
#######################################################################
#
#                 Cambridge Crystallographic Data Centre
#                                CCDC 
#
#######################################################################
#
# If this CIF has been generated from an entry in the Cambridge 
# Structural Database, then it will include bibliographic, chemical, 
# crystal, experimental, refinement or atomic coordinate data resulting 
# from the CCDC's data processing and validation procedures.
#
#######################################################################

data_HOQYIW
_symmetry_cell_setting           triclinic
_symmetry_space_group_name_H-M   'P -1'
_symmetry_Int_Tables_number      2
_space_group_name_Hall           '-P 1'
loop_
_symmetry_equiv_pos_site_id
_symmetry_equiv_pos_as_xyz
1 x,y,z
2 -x,-y,-z
_cell_length_a                   8.4346(3)
_cell_length_b                   10.0295(3)
_cell_length_c                   11.1651(4)
_cell_angle_alpha                79.354(1)
_cell_angle_beta                 85.938(1)
_cell_angle_gamma                83.506(1)
_cell_volume                     921.089
loop_
_atom_site_label
_atom_site_type_symbol
_atom_site_fract_x
_atom_site_fract_y
_atom_site_fract_z
Cu1 Cu 0.61307(4) 0.54696(3) 0.78078(3)
S1 S -0.19153(8) 0.82362(7) 0.76794(7)
P1 P 0.38423(8) 0.68767(7) 0.98386(6)
N1 N 0.5320(3) 0.6794(2) 0.6321(2)
N2 N 0.7467(3) 0.4640(2) 0.6499(2)
C1 C 0.2303(3) 0.8182(3) 0.9235(2)
C2 C 0.0954(3) 0.7771(3) 0.8798(3)
H1 H 0.0853 0.6847 0.8857
C3 C -0.0222(3) 0.8724(3) 0.8283(3)
C4 C -0.0088(4) 1.0109(3) 0.8206(3)
H2 H -0.0889 1.0752 0.7864
C5 C 0.1236(4) 1.0526(3) 0.8639(4)
H3 H 0.1327 1.1451 0.8588
C6 C 0.2432(4) 0.9561(3) 0.9151(3)
H4 H 0.3324 0.9843 0.9438
C7 C 0.4266(4) 0.7894(3) 0.6274(3)
H5 H 0.3813 0.8131 0.7000
C8 C 0.3822(4) 0.8706(4) 0.5165(3)
H6 H 0.3097 0.9477 0.5161
C9 C 0.4453(4) 0.8364(4) 0.4092(3)
H7 H 0.4149 0.8894 0.3353
C10 C 0.5569(4) 0.7204(4) 0.4107(3)
C11 C 0.6296(5) 0.6726(5) 0.3041(3)
H8 H 0.6025 0.7197 0.2273
C12 C 0.7364(5) 0.5609(5) 0.3130(3)
H9 H 0.7807 0.5323 0.2421
C13 C 0.7832(4) 0.4849(4) 0.4297(3)
C14 C 0.8977(5) 0.3708(4) 0.4468(3)
H10 H 0.9481 0.3376 0.3799
C15 C 0.9345(4) 0.3091(4) 0.5624(4)
H11 H 1.0120 0.2348 0.5743
C16 C 0.8561(4) 0.3572(3) 0.6630(3)
H12 H 0.8814 0.3131 0.7411
C17 C 0.7120(4) 0.5286(3) 0.5352(3)
C18 C 0.5967(3) 0.6460(3) 0.5263(3)
O1 O 0.4366(2) 0.6093(2) 0.88305(18)
O2 O 0.3143(2) 0.6085(2) 1.09965(18)
O3 O 0.5224(2) 0.7640(2) 1.01844(19)
H13 H 0.5656 0.8039 0.9561
O4 O -0.1756(3) 0.8668(3) 0.6374(2)
O5 O -0.3303(2) 0.8961(2) 0.8232(2)
O6 O -0.1855(2) 0.6758(2) 0.8068(2)
Cu1A Cu 0.38693(4) 0.45304(3) 1.21922(3)
Cu1_2 Cu -0.38693(4) 0.54696(3) 0.78078(3)
O2A O 0.6857(2) 0.3915(2) 0.90035(18)
O6_2 O 0.8145(2) 0.6758(2) 0.8068(2)
O7 O 0.9352(19) 0.5685(17) 0.0707(15)
loop_
_geom_bond_atom_site_label_1
_geom_bond_atom_site_label_2
_geom_bond_site_symmetry_1
_geom_bond_site_symmetry_2
Cu1 N1 1_555 1_555
S1 C3 1_555 1_555
P1 C1 1_555 1_555
N1 C7 1_555 1_555
N2 Cu1 1_555 1_555
C1 C2 1_555 1_555
C2 H1 1_555 1_555
C3 C2 1_555 1_555
C4 C3 1_555 1_555
H2 C4 1_555 1_555
C5 C4 1_555 1_555
H3 C5 1_555 1_555
C6 C1 1_555 1_555
H4 C6 1_555 1_555
C7 H5 1_555 1_555
C8 C7 1_555 1_555
H6 C8 1_555 1_555
C9 C8 1_555 1_555
H7 C9 1_555 1_555
C10 C9 1_555 1_555
C11 C10 1_555 1_555
H8 C11 1_555 1_555
C12 C11 1_555 1_555
H9 C12 1_555 1_555
C13 C12 1_555 1_555
C14 C13 1_555 1_555
H10 C14 1_555 1_555
C15 C14 1_555 1_555
H11 C15 1_555 1_555
C16 N2 1_555 1_555
H12 C16 1_555 1_555
C17 N2 1_555 1_555
C18 N1 1_555 1_555
O1 Cu1 1_555 1_555
O2 P1 1_555 1_555
O3 P1 1_555 1_555
H13 O3 1_555 1_555
O4 S1 1_555 1_555
O5 S1 1_555 1_555
O6 S1 1_555 1_555
Cu1A O2 1_555 1_555
Cu1_2 O6 1_555 1_555
O2A Cu1 1_555 1_555
O6_2 Cu1 1_555 1_555
P1 O1 1_555 1_555
C5 C6 1_555 1_555
C10 C18 1_555 1_555
C13 C17 1_555 1_555
C15 C16 1_555 1_555
C17 C18 1_555 1_555

#END
