
#######################################################################
#
#                 Cambridge Crystallographic Data Centre
#                                CCDC 
#
#######################################################################
#
# If this CIF has been generated from an entry in the Cambridge 
# Structural Database, then it will include bibliographic, chemical, 
# crystal, experimental, refinement or atomic coordinate data resulting 
# from the CCDC's data processing and validation procedures.
#
#######################################################################

data_HOQYUI
_symmetry_cell_setting           triclinic
_symmetry_space_group_name_H-M   'P -1'
_symmetry_Int_Tables_number      2
_space_group_name_Hall           '-P 1'
loop_
_symmetry_equiv_pos_site_id
_symmetry_equiv_pos_as_xyz
1 x,y,z
2 -x,-y,-z
_cell_length_a                   6.3532(9)
_cell_length_b                   7.4690(15)
_cell_length_c                   9.0380(15)
_cell_angle_alpha                114.000(8)
_cell_angle_beta                 106.990(8)
_cell_angle_gamma                93.053(5)
_cell_volume                     367.352
loop_
_atom_site_label
_atom_site_type_symbol
_atom_site_fract_x
_atom_site_fract_y
_atom_site_fract_z
Se1 Se 0.23657(12) 0.68818(11) 0.43217(9)
V1 V 0.3162(2) 0.41248(19) 0.64909(15)
O1 O 0.2472(9) 0.2168(8) 0.4711(7)
O2 O 0.2412(9) 0.6394(8) 0.5986(6)
O3 O 0.4262(9) 0.6679(8) 0.9169(6)
O4 O -0.0308(9) 0.5948(9) 0.2965(7)
O5 O 0.3606(9) 0.5108(8) 0.3207(6)
O6 O 0.5704(9) 0.7209(8) 1.1900(6)
C3 C 0.4978(12) 0.6101(7) 1.0310(9)
Se1A Se -0.23657(12) 0.31182(11) 0.56783(9)
V1A V -0.3162(2) 0.58752(19) 0.35091(15)
V1A_2 V 0.6838(2) 0.58752(19) 0.35091(15)
V1A_3 V 0.6838(2) 0.58752(19) 1.35091(15)
V1_2 V -0.6838(2) 0.41248(19) 0.64909(15)
O1A O -0.2472(9) 0.7832(8) 0.5289(7)
O2A O -0.2412(9) 0.3606(8) 0.4014(6)
O3A O 0.5738(9) 0.3321(8) 1.0831(6)
O3A_2 O -0.4262(9) 0.3321(8) 0.0831(6)
O4A O 0.0308(9) 0.4052(9) 0.7035(7)
O5A O -0.3606(9) 0.4892(8) 0.6793(6)
O5A_2 O 0.6394(9) 0.4892(8) 0.6793(6)
O5_2 O -0.6394(9) 0.5108(8) 0.3207(6)
O6A O 0.4296(9) 0.2791(8) 0.8100(6)
O6_2 O -0.4296(9) 0.7209(8) 0.1900(6)
C3A C 0.5022(12) 0.3899(7) 0.9690(9)
C1 C 1.0121(14) 0.8273(12) 1.0327(10)
H1 H 1.1657 0.8571 1.1099
H2 H 0.9402 0.6983 1.0141
C2 C 0.8891(13) 0.9861(11) 1.1139(11)
H3 H 0.8981 0.9958 1.2260
H4 H 0.7319 0.9495 1.0420
N1 N 1.0114(11) 0.8189(9) 0.8665(8)
H5 H 0.9593 0.7130 0.7698
C1A C 0.9879(14) 1.1727(12) 0.9673(10)
H1A H 0.8343 1.1429 0.8901
H2A H 1.0598 1.3017 0.9859
C2A C 1.1109(13) 1.0139(11) 0.8861(11)
H3A H 1.1019 1.0042 0.7740
H4A H 1.2681 1.0505 0.9580
N1A N 0.9886(11) 1.1811(9) 1.1335(8)
H5A H 1.0407 1.2870 1.2302
loop_
_geom_bond_atom_site_label_1
_geom_bond_atom_site_label_2
_geom_bond_site_symmetry_1
_geom_bond_site_symmetry_2
Se1 O2 1_555 1_555
V1 O1 1_555 1_555
O2 V1 1_555 1_555
O3 V1 1_555 1_555
O4 Se1 1_555 1_555
O5 Se1 1_555 1_555
O6 C3 1_555 1_555
C1 H1 1_555 1_555
H2 C1 1_555 1_555
C2 C1 1_555 1_555
H3 C2 1_555 1_555
H4 C2 1_555 1_555
C3 O3 1_555 1_555
N1 C1 1_555 1_555
H5 N1 1_555 1_555
Se1A O2A 1_555 1_555
V1A O4 1_555 1_555
V1A_2 O5 1_555 1_555
V1A_3 O6 1_555 1_555
V1_2 O5A 1_555 1_555
O1A V1A 1_555 1_555
O2A V1A 1_555 1_555
O3A V1A_3 1_555 1_555
O3A_2 V1A 1_555 1_555
O4A V1 1_555 1_555
O5A Se1A 1_555 1_555
O5A_2 V1 1_555 1_555
O5_2 V1A 1_555 1_555
O6A V1 1_555 1_555
O6_2 V1A 1_555 1_555
C1A H1A 1_555 1_555
H2A C1A 1_555 1_555
C2A N1 1_555 1_555
H3A C2A 1_555 1_555
H4A C2A 1_555 1_555
C3A C3 1_555 1_555
N1A C2 1_555 1_555
H5A N1A 1_555 1_555
Se1A O4A 1_555 1_555
O3A C3A 1_555 1_555
O6A C3A 1_555 1_555
C1A C2A 1_555 1_555
C1A N1A 1_555 1_555

#END
