
#######################################################################
#
#                 Cambridge Crystallographic Data Centre
#                                CCDC 
#
#######################################################################
#
# If this CIF has been generated from an entry in the Cambridge 
# Structural Database, then it will include bibliographic, chemical, 
# crystal, experimental, refinement or atomic coordinate data resulting 
# from the CCDC's data processing and validation procedures.
#
#######################################################################

data_HOQZIX
_symmetry_cell_setting           triclinic
_symmetry_space_group_name_H-M   'P -1'
_symmetry_Int_Tables_number      2
_space_group_name_Hall           '-P 1'
loop_
_symmetry_equiv_pos_site_id
_symmetry_equiv_pos_as_xyz
1 x,y,z
2 -x,-y,-z
_cell_length_a                   16.812(3)
_cell_length_b                   17.650(4)
_cell_length_c                   17.666(4)
_cell_angle_alpha                115.91(3)
_cell_angle_beta                 93.08(3)
_cell_angle_gamma                101.93(3)
_cell_volume                     4551.07
loop_
_atom_site_label
_atom_site_type_symbol
_atom_site_fract_x
_atom_site_fract_y
_atom_site_fract_z
Cu1 Cu -1.0000 -0.5000 -0.5000
Cu2 Cu -0.52296(18) -0.07681(19) 0.05191(19)
Cu3 Cu 0.00649(18) -0.3299(2) -0.5714(2)
Cu4 Cu -0.4180(2) -0.7933(2) -0.1508(2)
K1 K 0.0394(5) -0.1020(6) 0.1668(7)
P1 P -0.2584(3) -0.3718(3) -0.1660(3)
P2 P -0.2610(3) -0.2110(3) -0.2680(3)
W1 W -0.48160(5) -0.28793(5) -0.31573(6)
W2 W -0.16289(5) -0.03670(5) -0.06851(5)
W3 W -0.47704(5) -0.43723(6) -0.21729(6)
W4 W -0.35315(5) -0.39915(5) -0.46781(5)
W5 W -0.38749(5) -0.27093(6) -0.02509(6)
W6 W -0.04540(5) -0.13794(5) -0.20780(6)
W7 W -0.16227(5) -0.18784(6) 0.02738(6)
W8 W -0.14269(5) -0.47564(6) -0.31845(6)
W9 W -0.04380(5) -0.28927(6) -0.11146(6)
W10 W -0.14674(5) -0.32381(6) -0.41461(6)
W11 W -0.38977(5) -0.12114(5) -0.12437(5)
W12 W -0.34914(5) -0.54977(5) -0.37067(6)
W13 W -0.27696(6) -0.00478(5) -0.23299(6)
W14 W -0.35609(6) -0.56971(6) -0.17067(6)
W15 W -0.15618(6) -0.10309(6) -0.37345(6)
W16 W -0.26249(6) -0.39917(6) 0.02092(6)
W17 W -0.36494(6) -0.17646(6) -0.42523(6)
W18 W -0.14760(6) -0.50079(6) -0.12101(6)
O1 O -0.0396(8) -0.1986(8) -0.1437(9)
O2 O -0.3383(8) -0.4822(8) -0.4304(9)
O3 O -0.4800(8) -0.3594(8) -0.1021(9)
O4 O -0.4321(8) -0.3703(8) -0.3949(9)
O5 O -0.1495(8) -0.5210(9) -0.2384(9)
O6 O -0.1531(9) -0.4153(10) -0.3845(10)
O7 O -0.2409(8) -0.5624(8) -0.3851(9)
O8 O -0.4827(8) -0.1897(8) -0.2105(8)
O9 O -0.2767(8) -0.1990(9) 0.0105(9)
O10 O 0.0583(8) -0.2806(9) -0.0935(9)
O11 O -0.3390(8) -0.3466(8) -0.1541(8)
O12 O -0.2460(9) -0.3914(9) -0.4956(9)
O13 O -0.3401(8) -0.5855(8) -0.2821(8)
O14 O -0.2531(7) -0.2973(8) -0.3385(8)
O15 O -0.3504(9) -0.2908(9) -0.4730(9)
O16 O -0.2570(8) -0.4356(9) -0.1263(9)
O17 O -0.0814(9) -0.3865(9) -0.0891(9)
O18 O -0.0753(8) -0.3701(8) -0.2298(9)
O19 O -0.2519(7) -0.4230(8) -0.2599(9)
O20 O -0.1355(9) 0.0605(9) 0.0201(10)
O21 O -0.3499(9) -0.0590(9) -0.3394(10)
O22 O -0.0569(8) -0.2126(9) 0.0003(9)
O23 O -0.4369(8) -0.0476(9) -0.0547(10)
O24 O -0.5828(9) -0.3192(11) -0.3612(10)
O25 O -0.0794(8) -0.2484(9) -0.3095(8)
O26 O -0.3412(9) -0.2224(9) -0.2343(8)
O27 O -0.4337(9) -0.2236(10) 0.0619(10)
O28 O -0.2629(8) -0.1491(8) -0.3098(9)
O29 O -0.2582(9) -0.1359(9) -0.4505(10)
O30 O -0.1339(9) -0.1163(9) 0.1313(10)
O31 O -0.1563(8) -0.2236(9) -0.4255(9)
O32 O -0.4039(10) -0.6450(9) -0.4474(10)
O33 O 0.0631(8) 0.0403(8) 0.1116(9)
O34 O -0.3491(8) -0.3482(9) 0.0040(9)
O35 O -0.4093(9) -0.4668(9) -0.5635(10)
O36 O -0.3568(8) -0.0542(8) -0.1854(9)
O37 O -0.4334(9) -0.5085(9) -0.1731(9)
O38 O -0.4428(8) -0.2125(8) -0.3642(8)
O39 O -0.4296(9) -0.1777(9) -0.5063(10)
O40 O -0.1860(8) -0.2919(8) -0.1173(9)
O41 O -0.1883(9) -0.0017(9) -0.2983(10)
O42 O -0.0904(9) -0.0627(10) -0.4236(11)
O43 O -0.4878(8) -0.3514(9) -0.2516(9)
O44 O -0.2785(8) -0.0736(8) -0.0697(9)
O45 O -0.1753(9) -0.4543(9) -0.0100(10)
O46 O 0.0562(10) -0.1057(12) -0.2095(11)
O47 O -0.0857(9) -0.0886(9) -0.2787(9)
O48 O -0.1960(8) 0.0052(9) -0.1473(9)
O49 O -0.1920(9) -0.2926(8) 0.0419(9)
O50 O -0.2469(9) -0.5879(9) -0.1575(10)
O51 O -0.4067(9) -0.2009(10) -0.0804(9)
O52 O -0.0726(9) -0.5288(9) -0.3708(9)
O53 O -0.1873(8) -0.1696(8) -0.1973(9)
O54 O -0.5769(9) -0.4982(9) -0.2456(11)
O55 O -0.1424(8) -0.1101(9) -0.0206(9)
O56 O -0.0769(10) -0.5536(9) -0.1102(10)
O57 O -0.0756(10) -0.3502(9) -0.4806(10)
O58 O -0.4164(10) -0.6693(8) -0.1893(10)
O59 O -0.4286(9) -0.4944(8) -0.3163(9)
O60 O -0.2873(10) 0.0982(9) -0.1971(10)
O61 O -0.2695(10) -0.3877(10) 0.1193(9)
O62 O -0.3400(9) -0.5059(9) -0.0451(9)
C1 C -0.7746(14) -0.3798(14) -0.3346(15)
H1 H -0.7227 -0.3905 -0.3343
C2 C -0.8328(12) -0.4284(13) -0.4031(14)
H2 H -0.8177 -0.4701 -0.4503
C3 C -0.9291(16) -0.3561(16) -0.3436(17)
H3 H -0.9813 -0.3463 -0.3449
C4 C -0.8687(15) -0.3008(16) -0.2711(17)
H4 H -0.8815 -0.2542 -0.2267
C5 C -0.7918(14) -0.3138(15) -0.2642(14)
C6 C -0.7309(12) -0.2599(14) -0.1877(15)
C7 C -0.6572(12) -0.2803(14) -0.1740(16)
H5 H -0.6459 -0.3307 -0.2143
C8 C -0.6017(13) -0.2254(13) -0.1007(14)
H6 H -0.5526 -0.2397 -0.0936
C9 C -0.6857(14) -0.1350(15) -0.0469(16)
H7 H -0.6977 -0.0890 -0.0011
C10 C -0.7442(15) -0.1829(15) -0.1219(15)
H8 H -0.7910 -0.1645 -0.1284
C11 C -0.2899(17) 0.0301(15) 0.2022(15)
H9 H -0.2379 0.0199 0.1963
C12 C -0.3524(14) -0.0195(15) 0.1338(14)
H10 H -0.3409 -0.0578 0.0819
C13 C -0.4438(14) 0.0469(14) 0.2193(15)
H11 H -0.4971 0.0512 0.2279
C14 C -0.3798(12) 0.1008(13) 0.2851(14)
H12 H -0.3908 0.1430 0.3350
C15 C -0.2995(14) 0.0941(15) 0.2792(15)
C16 C -0.2296(13) 0.1501(13) 0.3519(14)
C17 C -0.1621(16) 0.1211(16) 0.3555(15)
H13 H -0.1587 0.0667 0.3150
C18 C -0.0953(12) 0.1777(14) 0.4244(15)
H14 H -0.0472 0.1597 0.4254
C19 C -0.1677(15) 0.2788(16) 0.4857(17)
H15 H -0.1725 0.3298 0.5311
C20 C -0.2347(14) 0.2275(14) 0.4153(15)
H16 H -0.2814 0.2475 0.4131
C21 C -0.2068(15) -0.4724(16) -0.7484(18)
H17 H -0.2631 -0.4796 -0.7477
C22 C -0.1561(14) -0.4192(17) -0.6778(17)
H18 H -0.1780 -0.3945 -0.6280
C23 C -0.0455(15) -0.4440(14) -0.7450(14)
H19 H 0.0110 -0.4368 -0.7442
C24 C -0.0974(16) -0.5024(15) -0.8210(17)
H20 H -0.0760 -0.5308 -0.8702
C25 C -0.1814(12) -0.5175(12) -0.8226(13)
C26 C -0.2378(13) -0.5819(14) -0.9020(14)
C27 C -0.3215(13) -0.5848(14) -0.9197(14)
H21 H -0.3437 -0.5436 -0.8794
C28 C -0.3693(13) -0.6448(13) -0.9925(14)
H22 H -0.4229 -0.6412 -1.0030
C29 C -0.2666(15) -0.7132(16) -1.0358(17)
H23 H -0.2471 -0.7575 -1.0758
C30 C -0.2154(15) -0.6536(15) -0.9635(16)
H24 H -0.1629 -0.6602 -0.9540
C31 C -0.6209(15) -0.9349(14) -0.3447(19)
H25 H -0.6759 -0.9347 -0.3537
C32 C -0.5649(16) -0.8725(17) -0.2636(17)
H26 H -0.5851 -0.8326 -0.2196
C33 C -0.4581(14) -0.9330(16) -0.3179(16)
H27 H -0.4028 -0.9325 -0.3107
C34 C -0.5070(14) -0.9932(15) -0.3918(15)
H28 H -0.4857 -1.0347 -0.4329
C35 C -0.5865(15) -0.9934(16) -0.4063(16)
C36 C -0.6410(15) -1.0566(17) -0.4901(18)
C37 C -0.7014(17) -1.0373(18) -0.5197(18)
H29 H -0.7091 -0.9818 -0.4893
C38 C -0.755(2) -1.0948(17) -0.594(2)
H30 H -0.7966 -1.0768 -0.6137
C39 C -0.6837(15) -1.1971(18) -0.6077(18)
H31 H -0.6742 -1.2515 -0.6395
C40 C -0.6322(14) -1.1425(14) -0.5331(15)
H32 H -0.5928 -1.1609 -0.5111
C41 C -0.804(2) -1.238(2) -0.734(2)
H33 H -0.7814 -1.2836 -0.7731
H34 H -0.8202 -1.2043 -0.7611
C42 C -0.861(3) -1.265(3) -0.698(3)
H35 H -0.8824 -1.2165 -0.6618
H36 H -0.9054 -1.3096 -0.7403
H37 H -0.8382 -1.2870 -0.6634
N1 N -0.9132(12) -0.4228(12) -0.4109(13)
N2 N -0.6137(11) -0.1532(12) -0.0393(12)
N3 N -0.4328(11) -0.0127(12) 0.1419(12)
N4 N -0.0980(12) 0.2518(12) 0.4849(13)
N5 N -0.0714(11) -0.3976(12) -0.6729(12)
N6 N -0.3439(11) -0.7108(11) -1.0520(12)
N7 N -0.4863(11) -0.8729(12) -0.2532(12)
N8 N -0.7480(16) -1.1784(17) -0.6395(17)
O63 O -0.012(2) -0.316(2) 0.103(2)
Cu2A Cu -1.47704(18) -0.92319(19) -1.05191(19)
Cu2A_2 Cu -0.47704(18) 0.07681(19) -0.05191(19)
Cu3A Cu -1.00649(18) 0.3299(2) 0.5714(2)
Cu3A_2 Cu -0.00649(18) 0.3299(2) 0.5714(2)
Cu3_2 Cu -1.99351(18) -1.3299(2) -1.5714(2)
Cu3_3 Cu 0.00649(18) -0.3299(2) 0.4286(2)
Cu4A Cu -0.5820(2) 0.7933(2) 0.1508(2)
Cu4_2 Cu -0.4180(2) -0.7933(2) -1.1508(2)
K1A K -1.0394(5) 0.1020(6) -0.1668(7)
K1A_2 K -0.0394(5) 0.1020(6) -0.1668(7)
K1_2 K -0.9606(5) -0.1020(6) 0.1668(7)
P1A P -0.7416(3) 0.3718(3) 0.1660(3)
P2A P -0.7390(3) 0.2110(3) 0.2680(3)
W1A W -0.51840(5) 0.28793(5) 0.31573(6)
W2A W -0.83711(5) 0.03670(5) 0.06851(5)
W2A_2 W 0.16289(5) 0.03670(5) 0.06851(5)
W3A W -0.52296(5) 0.43723(6) 0.21729(6)
W4A W -0.64685(5) 0.39915(5) 0.46781(5)
W5A W -0.61251(5) 0.27093(6) 0.02509(6)
W6A W -0.95460(5) 0.13794(5) 0.20780(6)
W6A_2 W 0.04540(5) 0.13794(5) 0.20780(6)
W7A W -0.83773(5) 0.18784(6) -0.02738(6)
W8A W -0.85731(5) 0.47564(6) 0.31845(6)
W9A W -0.95620(5) 0.28927(6) 0.11146(6)
W10A W -0.85326(5) 0.32381(6) 0.41461(6)
W11A W -0.61023(5) 0.12114(5) 0.12437(5)
W12A W -0.65086(5) 0.54977(5) 0.37067(6)
W13A W -0.72304(6) 0.00478(5) 0.23299(6)
W14A W -0.64391(6) 0.56971(6) 0.17067(6)
W15A W -0.84382(6) 0.10309(6) 0.37345(6)
W16A W -0.73751(6) 0.39917(6) -0.02092(6)
W17A W -0.63506(6) 0.17646(6) 0.42523(6)
W18A W -0.85240(6) 0.50079(6) 0.12101(6)
O1A O -0.9604(8) 0.1986(8) 0.1437(9)
O2A O -0.6617(8) 0.4822(8) 0.4304(9)
O3A O -0.5200(8) 0.3594(8) 0.1021(9)
O4A O -0.5679(8) 0.3703(8) 0.3949(9)
O5A O -0.8505(8) 0.5210(9) 0.2384(9)
O6A O -0.8469(9) 0.4153(10) 0.3845(10)
O7A O -0.7591(8) 0.5624(8) 0.3851(9)
O8A O -0.5173(8) 0.1897(8) 0.2105(8)
O9A O -0.7233(8) 0.1990(9) -0.0105(9)
O10A O -1.0583(8) 0.2806(9) 0.0935(9)
O11A O -0.6610(8) 0.3466(8) 0.1541(8)
O12A O -0.7540(9) 0.3914(9) 0.4956(9)
O13A O -0.6599(8) 0.5855(8) 0.2821(8)
O14A O -0.7469(7) 0.2973(8) 0.3385(8)
O15A O -0.6496(9) 0.2908(9) 0.4730(9)
O16A O -0.7430(8) 0.4356(9) 0.1263(9)
O17A O -0.9186(9) 0.3865(9) 0.0891(9)
O18A O -0.9247(8) 0.3701(8) 0.2298(9)
O19A O -0.7481(7) 0.4230(8) 0.2599(9)
O20A O -0.8645(9) -0.0605(9) -0.0201(10)
O21A O -0.6501(9) 0.0590(9) 0.3394(10)
O22A O -0.9431(8) 0.2126(9) -0.0003(9)
O23A O -0.5631(8) 0.0476(9) 0.0547(10)
O23A_2 O -1.5631(8) -0.9524(9) -0.9453(10)
O23_2 O -1.4369(8) -1.0476(9) -1.0547(10)
O24A O -0.4172(9) 0.3192(11) 0.3612(10)
O25A O -0.9206(8) 0.2484(9) 0.3095(8)
O26A O -0.6588(9) 0.2224(9) 0.2343(8)
O27A O -0.5663(9) 0.2236(10) -0.0619(10)
O28A O -0.7371(8) 0.1491(8) 0.3098(9)
O29A O -0.7418(9) 0.1359(9) 0.4505(10)
O30A O -0.8661(9) 0.1163(9) -0.1313(10)
O31A O -0.8437(8) 0.2236(9) 0.4255(9)
O32A O -0.5961(10) 0.6450(9) 0.4474(10)
O33A O -0.0631(8) -0.0403(8) -0.1116(9)
O33A_2 O -1.0631(8) -0.0403(8) -0.1116(9)
O33_2 O -0.9369(8) 0.0403(8) 0.1116(9)
O34A O -0.6509(8) 0.3482(9) -0.0040(9)
O35A O -0.5907(9) 0.4668(9) 0.5635(10)
O36A O -0.6432(8) 0.0542(8) 0.1854(9)
O37A O -0.5666(9) 0.5085(9) 0.1731(9)
O38A O -0.5572(8) 0.2125(8) 0.3642(8)
O39A O -0.5704(9) 0.1777(9) 0.5063(10)
O40A O -0.8140(8) 0.2919(8) 0.1173(9)
O41A O -0.8117(9) 0.0017(9) 0.2983(10)
O41A_2 O 0.1883(9) 0.0017(9) 0.2983(10)
O41_2 O -1.1883(9) -0.0017(9) -0.2983(10)
O42A O -0.9096(9) 0.0627(10) 0.4236(11)
O43A O -0.5122(8) 0.3514(9) 0.2516(9)
O44A O -0.7215(8) 0.0736(8) 0.0697(9)
O45A O -0.8247(9) 0.4543(9) 0.0100(10)
O46A O -1.0562(10) 0.1057(12) 0.2095(11)
O47A O -0.9143(9) 0.0886(9) 0.2787(9)
O47A_2 O 0.0857(9) 0.0886(9) 0.2787(9)
O47_2 O -1.0857(9) -0.0886(9) -0.2787(9)
O48A O -0.8040(8) -0.0052(9) 0.1473(9)
O48A_2 O 0.1960(8) -0.0052(9) 0.1473(9)
O48_2 O -1.1960(8) 0.0052(9) -0.1473(9)
O49A O -0.8080(9) 0.2926(8) -0.0419(9)
O50A O -0.7531(9) 0.5879(9) 0.1575(10)
O51A O -0.5933(9) 0.2009(10) 0.0804(9)
O52A O -0.9274(9) 0.5288(9) 0.3708(9)
O53A O -0.8127(8) 0.1696(8) 0.1973(9)
O54A O -0.4231(9) 0.4982(9) 0.2456(11)
O55A O -0.8576(8) 0.1101(9) 0.0206(9)
O56A O -0.9231(10) 0.5536(9) 0.1102(10)
O57A O -0.9244(10) 0.3502(9) 0.4806(10)
O58A O -0.5836(10) 0.6693(8) 0.1893(10)
O59A O -0.5714(9) 0.4944(8) 0.3163(9)
O60A O -0.7127(10) -0.0982(9) 0.1971(10)
O61A O -0.7305(10) 0.3877(10) -0.1193(9)
O62A O -0.6600(9) 0.5059(9) 0.0451(9)
C1A C -1.2254(14) -0.6202(14) -0.6654(15)
H1A H -1.2773 -0.6095 -0.6657
C2A C -1.1672(12) -0.5716(13) -0.5969(14)
H2A H -1.1823 -0.5299 -0.5497
C3A C -1.0709(16) -0.6439(16) -0.6564(17)
H3A H -1.0187 -0.6537 -0.6551
C4A C -1.1313(15) -0.6992(16) -0.7289(17)
H4A H -1.1185 -0.7458 -0.7733
C5A C -1.2082(14) -0.6862(15) -0.7358(14)
C6A C -1.2691(12) -0.7401(14) -0.8123(15)
C7A C -1.3428(12) -0.7197(14) -0.8260(16)
H5A H -1.3541 -0.6693 -0.7857
C8A C -1.3983(13) -0.7746(13) -0.8993(14)
H6A H -1.4474 -0.7603 -0.9064
C9A C -1.3143(14) -0.8650(15) -0.9531(16)
H7A H -1.3023 -0.9110 -0.9989
C10A C -1.2558(15) -0.8171(15) -0.8781(15)
H8A H -1.2090 -0.8355 -0.8716
C11A C -1.7101(17) -1.0301(15) -1.2022(15)
H9A H -1.7621 -1.0199 -1.1963
C12A C -1.6476(14) -0.9805(15) -1.1338(14)
H10A H -1.6591 -0.9422 -1.0819
C13A C -1.5562(14) -1.0469(14) -1.2193(15)
H11A H -1.5029 -1.0512 -1.2279
C14A C -1.6202(12) -1.1008(13) -1.2851(14)
H12A H -1.6092 -1.1430 -1.3350
C15A C -1.7005(14) -1.0941(15) -1.2792(15)
C16A C -1.7704(13) -1.1501(13) -1.3519(14)
C17A C -1.8379(16) -1.1211(16) -1.3555(15)
H13A H -1.8413 -1.0667 -1.3150
C18A C -1.9047(12) -1.1777(14) -1.4244(15)
H14A H -1.9528 -1.1597 -1.4254
C19A C -1.8323(15) -1.2788(16) -1.4857(17)
H15A H -1.8275 -1.3298 -1.5311
C20A C -1.7653(14) -1.2275(14) -1.4153(15)
H16A H -1.7186 -1.2475 -1.4131
C21_2 C -0.2068(15) -0.4724(16) 0.2516(18)
H17_2 H -0.2631 -0.4796 0.2523
C22_2 C -0.1561(14) -0.4192(17) 0.3222(17)
H18_2 H -0.1780 -0.3945 0.3720
C23_2 C -0.0455(15) -0.4440(14) 0.2550(14)
H19_2 H 0.0110 -0.4368 0.2558
C24_2 C -0.0974(16) -0.5024(15) 0.1790(17)
H20_2 H -0.0760 -0.5308 0.1298
C25_2 C -0.1814(12) -0.5175(12) 0.1774(13)
C26_2 C -0.2378(13) -0.5819(14) 0.0980(14)
C27_2 C -0.3215(13) -0.5848(14) 0.0803(14)
H21_2 H -0.3437 -0.5436 0.1206
C28_2 C -0.3693(13) -0.6448(13) 0.0075(14)
H22_2 H -0.4229 -0.6412 -0.0030
C29_2 C -0.2666(15) -0.7132(16) -0.0358(17)
H23_2 H -0.2471 -0.7575 -0.0758
C30_2 C -0.2154(15) -0.6536(15) 0.0365(16)
H24_2 H -0.1629 -0.6602 0.0460
C31A C -0.3791(15) 0.9349(14) 0.3447(19)
H25A H -0.3241 0.9347 0.3537
C32A C -0.4351(16) 0.8725(17) 0.2636(17)
H26A H -0.4149 0.8326 0.2196
C33A C -0.5419(14) 0.9330(16) 0.3179(16)
H27A H -0.5972 0.9325 0.3107
C34A C -0.4930(14) 0.9932(15) 0.3918(15)
H28A H -0.5143 1.0347 0.4329
C35A C -0.4135(15) 0.9934(16) 0.4063(16)
C36A C -0.3590(15) 1.0566(17) 0.4901(18)
C37A C -0.2986(17) 1.0373(18) 0.5197(18)
H29A H -0.2909 0.9818 0.4893
C38A C -0.245(2) 1.0948(17) 0.594(2)
H30A H -0.2034 1.0768 0.6137
C39A C -0.3163(15) 1.1971(18) 0.6077(18)
H31A H -0.3258 1.2515 0.6395
C40A C -0.3678(14) 1.1425(14) 0.5331(15)
H32A H -0.4072 1.1609 0.5111
C41A C -0.196(2) 1.238(2) 0.734(2)
H33A H -0.2186 1.2836 0.7731
H34A H -0.1798 1.2043 0.7611
C42A C -0.139(3) 1.265(3) 0.698(3)
H35A H -0.1176 1.2165 0.6618
H36A H -0.0946 1.3096 0.7403
H37A H -0.1618 1.2870 0.6634
N1A N -1.0868(12) -0.5772(12) -0.5891(13)
N2A N -1.3863(11) -0.8468(12) -0.9607(12)
N3A N -1.5672(11) -0.9873(12) -1.1419(12)
N4A N -1.9020(12) -1.2518(12) -1.4849(13)
N4A_2 N 0.0980(12) -0.2518(12) -0.4849(13)
N4_2 N -1.0980(12) 0.2518(12) 0.4849(13)
N5_2 N -0.0714(11) -0.3976(12) 0.3271(12)
N5A N -0.9286(11) 0.3976(12) 0.6729(12)
N6_2 N -0.3439(11) -0.7108(11) -0.0520(12)
N6A N -0.6561(11) 0.7108(11) 0.0520(12)
N7A N -0.5137(11) 0.8729(12) 0.2532(12)
N8A N -0.2520(16) 1.1784(17) 0.6395(17)
O63A O -0.988(2) 0.316(2) -0.103(2)
O64 O 0.5676(14) 0.6618(15) 0.3531(15)
O65 O 0.4125(15) 0.3464(16) 0.8160(16)
O66 O 0.5000 0.5000 0.0000
loop_
_geom_bond_atom_site_label_1
_geom_bond_atom_site_label_2
_geom_bond_site_symmetry_1
_geom_bond_site_symmetry_2
Cu1 N1 1_555 1_555
Cu2 O23 1_555 1_555
Cu3 O57 1_555 1_555
Cu4 O58 1_555 1_555
K1 O22 1_555 1_555
P1 O11 1_555 1_555
P2 O14 1_555 1_555
W1 O4 1_555 1_555
W2 O20 1_555 1_555
W3 O3 1_555 1_555
W4 O2 1_555 1_555
W5 O3 1_555 1_555
W6 O1 1_555 1_555
W7 O9 1_555 1_555
W8 O5 1_555 1_555
W9 O1 1_555 1_555
W10 O6 1_555 1_555
W11 O8 1_555 1_555
W12 O2 1_555 1_555
W13 O21 1_555 1_555
W14 O13 1_555 1_555
W15 O28 1_555 1_555
W16 O16 1_555 1_555
W17 O15 1_555 1_555
W18 O5 1_555 1_555
O4 W4 1_555 1_555
O6 W8 1_555 1_555
O7 W8 1_555 1_555
O8 W1 1_555 1_555
O9 W5 1_555 1_555
O10 W9 1_555 1_555
O11 W3 1_555 1_555
O12 W4 1_555 1_555
O13 W12 1_555 1_555
O14 W4 1_555 1_555
O15 W4 1_555 1_555
O16 P1 1_555 1_555
O17 W9 1_555 1_555
O18 W8 1_555 1_555
O19 P1 1_555 1_555
O21 W17 1_555 1_555
O22 W7 1_555 1_555
O23 W11 1_555 1_555
O24 W1 1_555 1_555
O25 W6 1_555 1_555
O26 P2 1_555 1_555
O27 W5 1_555 1_555
O28 P2 1_555 1_555
O29 W15 1_555 1_555
O30 K1 1_555 1_555
O31 W10 1_555 1_555
O32 W12 1_555 1_555
O33 K1 1_555 1_555
O34 W5 1_555 1_555
O35 W4 1_555 1_555
O36 W11 1_555 1_555
O37 W3 1_555 1_555
O38 W1 1_555 1_555
O39 W17 1_555 1_555
O40 P1 1_555 1_555
O41 W13 1_555 1_555
O42 W15 1_555 1_555
O43 W1 1_555 1_555
O44 W2 1_555 1_555
O45 W16 1_555 1_555
O46 W6 1_555 1_555
O47 W6 1_555 1_555
O48 W2 1_555 1_555
O49 W7 1_555 1_555
O50 W14 1_555 1_555
O51 W5 1_555 1_555
O52 W8 1_555 1_555
O53 P2 1_555 1_555
O54 W3 1_555 1_555
O55 W2 1_555 1_555
O56 W18 1_555 1_555
O57 W10 1_555 1_555
O58 W14 1_555 1_555
O59 W3 1_555 1_555
O60 W13 1_555 1_555
O61 W16 1_555 1_555
O62 W14 1_555 1_555
C1 H1 1_555 1_555
C2 C1 1_555 1_555
H2 C2 1_555 1_555
C3 H3 1_555 1_555
C4 C3 1_555 1_555
H4 C4 1_555 1_555
C5 C1 1_555 1_555
C6 C5 1_555 1_555
C7 C6 1_555 1_555
H5 C7 1_555 1_555
C8 C7 1_555 1_555
H6 C8 1_555 1_555
C9 H7 1_555 1_555
C10 C6 1_555 1_555
H8 C10 1_555 1_555
C11 H9 1_555 1_555
C12 C11 1_555 1_555
H10 C12 1_555 1_555
C13 H11 1_555 1_555
C14 C13 1_555 1_555
H12 C14 1_555 1_555
C15 C11 1_555 1_555
C16 C15 1_555 1_555
C17 C16 1_555 1_555
H13 C17 1_555 1_555
C18 C17 1_555 1_555
H14 C18 1_555 1_555
C19 H15 1_555 1_555
C20 C16 1_555 1_555
H16 C20 1_555 1_555
C21 H17 1_555 1_555
C22 C21 1_555 1_555
H18 C22 1_555 1_555
C23 H19 1_555 1_555
C24 C23 1_555 1_555
H20 C24 1_555 1_555
C25 C21 1_555 1_555
C26 C25 1_555 1_555
C27 C26 1_555 1_555
H21 C27 1_555 1_555
C28 C27 1_555 1_555
H22 C28 1_555 1_555
C29 H23 1_555 1_555
C30 C26 1_555 1_555
H24 C30 1_555 1_555
C31 H25 1_555 1_555
C32 C31 1_555 1_555
H26 C32 1_555 1_555
C33 H27 1_555 1_555
C34 C33 1_555 1_555
H28 C34 1_555 1_555
C35 C31 1_555 1_555
C36 C35 1_555 1_555
C37 C36 1_555 1_555
H29 C37 1_555 1_555
C38 C37 1_555 1_555
H30 C38 1_555 1_555
C39 H31 1_555 1_555
C40 C36 1_555 1_555
H32 C40 1_555 1_555
C41 H33 1_555 1_555
H34 C41 1_555 1_555
C42 C41 1_555 1_555
H35 C42 1_555 1_555
H36 C42 1_555 1_555
H37 C42 1_555 1_555
N1 C2 1_555 1_555
N2 Cu2 1_555 1_555
N3 Cu2 1_555 1_555
N4 C18 1_555 1_555
N5 Cu3 1_555 1_555
N6 C28 1_555 1_555
N7 Cu4 1_555 1_555
N8 C38 1_555 1_555
O63 K1 1_555 1_555
Cu2A O23A_2 1_555 1_555
Cu2A_2 O23 1_555 1_555
Cu3A O57A 1_555 1_555
Cu3A_2 N4 1_555 1_555
Cu3_2 N4A 1_555 1_555
Cu3_3 N5_2 1_555 1_555
Cu4A O58A 1_555 1_555
Cu4_2 N6 1_555 1_555
K1A O22A 1_555 1_555
K1A_2 O41 1_555 1_555
K1_2 O33_2 1_555 1_555
P1A O11A 1_555 1_555
P2A O14A 1_555 1_555
W1A O4A 1_555 1_555
W2A O20A 1_555 1_555
W2A_2 O33 1_555 1_555
W3A O3A 1_555 1_555
W4A O2A 1_555 1_555
W5A O3A 1_555 1_555
W6A O1A 1_555 1_555
W6A_2 O33 1_555 1_555
W7A O9A 1_555 1_555
W8A O5A 1_555 1_555
W9A O1A 1_555 1_555
W10A O6A 1_555 1_555
W11A O8A 1_555 1_555
W12A O2A 1_555 1_555
W13A O21A 1_555 1_555
W14A O13A 1_555 1_555
W15A O28A 1_555 1_555
W16A O16A 1_555 1_555
W17A O15A 1_555 1_555
W18A O5A 1_555 1_555
O4A W4A 1_555 1_555
O6A W8A 1_555 1_555
O7A W8A 1_555 1_555
O8A W1A 1_555 1_555
O9A W5A 1_555 1_555
O10A W9A 1_555 1_555
O11A W3A 1_555 1_555
O12A W4A 1_555 1_555
O13A W12A 1_555 1_555
O14A W4A 1_555 1_555
O15A W4A 1_555 1_555
O16A P1A 1_555 1_555
O17A W9A 1_555 1_555
O18A W8A 1_555 1_555
O19A P1A 1_555 1_555
O21A W17A 1_555 1_555
O22A W7A 1_555 1_555
O23A Cu2 1_555 1_555
O23_2 Cu2A 1_555 1_555
O24A W1A 1_555 1_555
O25A W6A 1_555 1_555
O26A P2A 1_555 1_555
O27A W5A 1_555 1_555
O28A P2A 1_555 1_555
O29A W15A 1_555 1_555
O30A K1A 1_555 1_555
O31A W10A 1_555 1_555
O32A W12A 1_555 1_555
O33A W2 1_555 1_555
O33A_2 K1A 1_555 1_555
O33_2 W2A 1_555 1_555
O34A W5A 1_555 1_555
O35A W4A 1_555 1_555
O36A W11A 1_555 1_555
O37A W3A 1_555 1_555
O38A W1A 1_555 1_555
O39A W17A 1_555 1_555
O40A P1A 1_555 1_555
O41A K1_2 1_555 1_555
O41A_2 K1 1_555 1_555
O41_2 K1A 1_555 1_555
O42A W15A 1_555 1_555
O43A W1A 1_555 1_555
O44A W2A 1_555 1_555
O45A W16A 1_555 1_555
O46A W6A 1_555 1_555
O47A K1_2 1_555 1_555
O47A_2 K1 1_555 1_555
O47_2 K1A 1_555 1_555
O48A K1_2 1_555 1_555
O48A_2 K1 1_555 1_555
O48_2 K1A 1_555 1_555
O49A W7A 1_555 1_555
O50A W14A 1_555 1_555
O51A W5A 1_555 1_555
O52A W8A 1_555 1_555
O53A P2A 1_555 1_555
O54A W3A 1_555 1_555
O55A W2A 1_555 1_555
O56A W18A 1_555 1_555
O57A W10A 1_555 1_555
O58A W14A 1_555 1_555
O59A W3A 1_555 1_555
O60A W13A 1_555 1_555
O61A W16A 1_555 1_555
O62A W14A 1_555 1_555
C1A H1A 1_555 1_555
C2A C1A 1_555 1_555
H2A C2A 1_555 1_555
C3A H3A 1_555 1_555
C4A C3A 1_555 1_555
H4A C4A 1_555 1_555
C5A C1A 1_555 1_555
C6A C5A 1_555 1_555
C7A C6A 1_555 1_555
H5A C7A 1_555 1_555
C8A C7A 1_555 1_555
H6A C8A 1_555 1_555
C9A H7A 1_555 1_555
C10A C6A 1_555 1_555
H8A C10A 1_555 1_555
C11A H9A 1_555 1_555
C12A C11A 1_555 1_555
H10A C12A 1_555 1_555
C13A H11A 1_555 1_555
C14A C13A 1_555 1_555
H12A C14A 1_555 1_555
C15A C11A 1_555 1_555
C16A C15A 1_555 1_555
C17A C16A 1_555 1_555
H13A C17A 1_555 1_555
C18A C17A 1_555 1_555
H14A C18A 1_555 1_555
C19A H15A 1_555 1_555
C20A C16A 1_555 1_555
H16A C20A 1_555 1_555
C21_2 H17_2 1_555 1_555
C22_2 C21_2 1_555 1_555
H18_2 C22_2 1_555 1_555
C23_2 H19_2 1_555 1_555
C24_2 C23_2 1_555 1_555
H20_2 C24_2 1_555 1_555
C25_2 C21_2 1_555 1_555
C26_2 C25_2 1_555 1_555
C27_2 C26_2 1_555 1_555
H21_2 C27_2 1_555 1_555
C28_2 C27_2 1_555 1_555
H22_2 C28_2 1_555 1_555
C29_2 H23_2 1_555 1_555
C30_2 C26_2 1_555 1_555
H24_2 C30_2 1_555 1_555
C31A H25A 1_555 1_555
C32A C31A 1_555 1_555
H26A C32A 1_555 1_555
C33A H27A 1_555 1_555
C34A C33A 1_555 1_555
H28A C34A 1_555 1_555
C35A C31A 1_555 1_555
C36A C35A 1_555 1_555
C37A C36A 1_555 1_555
H29A C37A 1_555 1_555
C38A C37A 1_555 1_555
H30A C38A 1_555 1_555
C39A H31A 1_555 1_555
C40A C36A 1_555 1_555
H32A C40A 1_555 1_555
C41A H33A 1_555 1_555
H34A C41A 1_555 1_555
C42A C41A 1_555 1_555
H35A C42A 1_555 1_555
H36A C42A 1_555 1_555
H37A C42A 1_555 1_555
N1A Cu1 1_555 1_555
N2A Cu2A 1_555 1_555
N3A Cu2A 1_555 1_555
N4A C18A 1_555 1_555
N4A_2 Cu3 1_555 1_555
N4_2 Cu3A 1_555 1_555
N5_2 C22_2 1_555 1_555
N5A Cu3A 1_555 1_555
N6_2 Cu4 1_555 1_555
N6A Cu4A 1_555 1_555
N7A Cu4A 1_555 1_555
N8A C38A 1_555 1_555
O63A K1A 1_555 1_555
W1 O26 1_555 1_555
W2 O53 1_555 1_555
W3 O43 1_555 1_555
W5 O11 1_555 1_555
W6 O53 1_555 1_555
W6 O33A 1_555 1_555
W7 O30 1_555 1_555
W7 O40 1_555 1_555
W7 O55 1_555 1_555
W8 O19 1_555 1_555
W9 O18 1_555 1_555
W9 O22 1_555 1_555
W9 O40 1_555 1_555
W10 O12 1_555 1_555
W10 O14 1_555 1_555
W10 O25 1_555 1_555
W11 O26 1_555 1_555
W11 O44 1_555 1_555
W11 O51 1_555 1_555
W12 O7 1_555 1_555
W12 O19 1_555 1_555
W12 O59 1_555 1_555
W13 O28 1_555 1_555
W13 O36 1_555 1_555
W13 O48 1_555 1_555
W14 O16 1_555 1_555
W14 O37 1_555 1_555
W15 O31 1_555 1_555
W15 O41 1_555 1_555
W15 O47 1_555 1_555
W16 O34 1_555 1_555
W16 O49 1_555 1_555
W16 O62 1_555 1_555
W17 O28 1_555 1_555
W17 O29 1_555 1_555
W17 O38 1_555 1_555
W18 O16 1_555 1_555
W18 O17 1_555 1_555
W18 O45 1_555 1_555
W18 O50 1_555 1_555
O47 K1A_2 1_555 1_555
O48 K1A_2 1_555 1_555
C3 N1 1_555 1_555
C4 C5 1_555 1_555
C8 N2 1_555 1_555
C9 C10 1_555 1_555
C9 N2 1_555 1_555
C12 N3 1_555 1_555
C13 N3 1_555 1_555
C14 C15 1_555 1_555
C19 C20 1_555 1_555
C19 N4 1_555 1_555
C22 N5 1_555 1_555
C23 N5 1_555 1_555
C24 C25 1_555 1_555
C29 C30 1_555 1_555
C29 N6 1_555 1_555
C32 N7 1_555 1_555
C33 N7 1_555 1_555
C34 C35 1_555 1_555
C39 C40 1_555 1_555
C39 N8 1_555 1_555
C41 N8 1_555 1_555
Cu2A_2 O23A 1_555 1_555
K1A_2 O33A 1_555 1_555
W1A O26A 1_555 1_555
W2A O48A 1_555 1_555
W2A O53A 1_555 1_555
W2A_2 O48A_2 1_555 1_555
W3A O43A 1_555 1_555
W5A O11A 1_555 1_555
W6A O33_2 1_555 1_555
W6A O47A 1_555 1_555
W6A O53A 1_555 1_555
W6A_2 O47A_2 1_555 1_555
W7A O30A 1_555 1_555
W7A O40A 1_555 1_555
W7A O55A 1_555 1_555
W8A O19A 1_555 1_555
W9A O18A 1_555 1_555
W9A O22A 1_555 1_555
W9A O40A 1_555 1_555
W10A O12A 1_555 1_555
W10A O14A 1_555 1_555
W10A O25A 1_555 1_555
W11A O23A 1_555 1_555
W11A O26A 1_555 1_555
W11A O44A 1_555 1_555
W11A O51A 1_555 1_555
W12A O7A 1_555 1_555
W12A O19A 1_555 1_555
W12A O59A 1_555 1_555
W13A O28A 1_555 1_555
W13A O36A 1_555 1_555
W13A O41A 1_555 1_555
W13A O48A 1_555 1_555
W14A O16A 1_555 1_555
W14A O37A 1_555 1_555
W15A O31A 1_555 1_555
W15A O41A 1_555 1_555
W15A O47A 1_555 1_555
W16A O34A 1_555 1_555
W16A O49A 1_555 1_555
W16A O62A 1_555 1_555
W17A O28A 1_555 1_555
W17A O29A 1_555 1_555
W17A O38A 1_555 1_555
W18A O16A 1_555 1_555
W18A O17A 1_555 1_555
W18A O45A 1_555 1_555
W18A O50A 1_555 1_555
C2A N1A 1_555 1_555
C3A N1A 1_555 1_555
C4A C5A 1_555 1_555
C8A N2A 1_555 1_555
C9A C10A 1_555 1_555
C9A N2A 1_555 1_555
C12A N3A 1_555 1_555
C13A N3A 1_555 1_555
C14A C15A 1_555 1_555
C19A C20A 1_555 1_555
C19A N4A 1_555 1_555
C23_2 N5_2 1_555 1_555
C24_2 C25_2 1_555 1_555
C28_2 N6_2 1_555 1_555
C29_2 C30_2 1_555 1_555
C29_2 N6_2 1_555 1_555
C32A N7A 1_555 1_555
C33A N7A 1_555 1_555
C34A C35A 1_555 1_555
C39A C40A 1_555 1_555
C39A N8A 1_555 1_555
C41A N8A 1_555 1_555

#END
