
#######################################################################
#
#                 Cambridge Crystallographic Data Centre
#                                CCDC 
#
#######################################################################
#
# If this CIF has been generated from an entry in the Cambridge 
# Structural Database, then it will include bibliographic, chemical, 
# crystal, experimental, refinement or atomic coordinate data resulting 
# from the CCDC's data processing and validation procedures.
#
#######################################################################

data_HOQZUJ
_symmetry_cell_setting           monoclinic
_symmetry_space_group_name_H-M   'C 2/c'
_symmetry_Int_Tables_number      15
_space_group_name_Hall           '-C 2yn'
loop_
_symmetry_equiv_pos_site_id
_symmetry_equiv_pos_as_xyz
1 x,y,z
2 -x,y,1/2-z
3 1/2+x,1/2+y,z
4 1/2-x,1/2+y,1/2-z
5 -x,-y,-z
6 x,-y,1/2+z
7 1/2-x,1/2-y,-z
8 1/2+x,1/2-y,1/2+z
_cell_length_a                   26.483(3)
_cell_length_b                   9.8657(12)
_cell_length_c                   16.786(2)
_cell_angle_alpha                90
_cell_angle_beta                 126.115(1)
_cell_angle_gamma                90
_cell_volume                     3542.95
loop_
_atom_site_label
_atom_site_type_symbol
_atom_site_fract_x
_atom_site_fract_y
_atom_site_fract_z
Zn1 Zn 1.055361(16) 0.74624(3) 0.38603(2)
Br1 Br 1.286970(19) 0.80508(5) 0.77790(4)
N1 N 1.11240(12) 0.5809(3) 0.38938(19)
N2 N 1.00608(12) 0.5685(3) 0.37412(19)
C1 C 1.09075(14) 0.4561(3) 0.3881(2)
C2 C 1.03414(14) 0.4504(3) 0.3815(2)
C3 C 1.12054(16) 0.3355(3) 0.3935(3)
C4 C 1.16410(15) 0.5872(4) 0.3941(3)
H1 H 1.1799 0.6723 0.3958
C5 C 1.01037(17) 0.3238(3) 0.3831(3)
C6 C 0.92806(17) 0.4438(4) 0.3712(3)
H2 H 0.8917 0.4446 0.3678
C7 C 1.17438(17) 0.3480(4) 0.3965(3)
H3 H 1.1953 0.2710 0.3985
C8 C 0.95387(15) 0.5643(4) 0.3690(3)
H4 H 0.9342 0.6453 0.3638
C9 C 1.19597(16) 0.4735(4) 0.3967(3)
H5 H 1.2316 0.4828 0.3985
C10 C 1.0431(2) 0.2030(4) 0.3907(3)
H6 H 1.0278 0.1192 0.3926
C11 C 0.95575(19) 0.3250(4) 0.3783(3)
H7 H 0.9385 0.2439 0.3799
C12 C 1.0951(2) 0.2082(4) 0.3951(3)
H8 H 1.1150 0.1282 0.3993
C13 C 1.22067(14) 0.9112(3) 0.7582(2)
C14 C 1.12431(14) 1.0473(3) 0.7439(2)
C15 C 1.16420(14) 0.9249(3) 0.6661(2)
C16 C 1.11667(14) 0.9952(3) 0.6608(2)
H9 H 1.0787 1.0075 0.5995
C17 C 1.07136(15) 1.1160(3) 0.7374(3)
C18 C 1.22992(15) 0.9657(3) 0.8419(2)
H10 H 1.2685 0.9569 0.9027
C19 C 1.18185(15) 1.0329(3) 0.8349(2)
O1 O 1.09923(11) 0.8049(3) 0.52107(17)
O2 O 1.02236(11) 1.1387(2) 0.65411(19)
O3 O 1.08085(11) 1.1437(3) 0.81759(19)
O4 O 1.18677(15) 0.8760(5) 0.5515(2)
C20 C 1.15054(15) 0.8648(4) 0.5721(2)
H11 H 1.1907(14) 1.068(3) 0.898(2)
Zn1D Zn 0.944639(16) 1.25376(3) 0.61397(2)
Zn1E Zn 1.055361(16) 1.25376(3) 0.88603(2)
O2D O 0.97764(11) 0.8613(2) 0.34589(19)
O3E O 1.08085(11) 0.8563(3) 0.31759(19)
loop_
_geom_bond_atom_site_label_1
_geom_bond_atom_site_label_2
_geom_bond_site_symmetry_1
_geom_bond_site_symmetry_2
Zn1 N1 1_555 1_555
Br1 C13 1_555 1_555
N1 C1 1_555 1_555
N2 Zn1 1_555 1_555
C1 C2 1_555 1_555
C2 N2 1_555 1_555
C3 C1 1_555 1_555
C4 N1 1_555 1_555
H1 C4 1_555 1_555
C5 C2 1_555 1_555
C6 H2 1_555 1_555
C7 C3 1_555 1_555
H3 C7 1_555 1_555
C8 N2 1_555 1_555
H4 C8 1_555 1_555
C9 C4 1_555 1_555
H5 C9 1_555 1_555
C10 C5 1_555 1_555
H6 C10 1_555 1_555
C11 C5 1_555 1_555
H7 C11 1_555 1_555
C12 C3 1_555 1_555
H8 C12 1_555 1_555
C13 C15 1_555 1_555
C14 C16 1_555 1_555
C15 C16 1_555 1_555
C16 H9 1_555 1_555
C17 C14 1_555 1_555
C18 C13 1_555 1_555
H10 C18 1_555 1_555
C19 C14 1_555 1_555
O1 Zn1 1_555 1_555
O2 C17 1_555 1_555
O3 C17 1_555 1_555
O4 C20 1_555 1_555
C20 C15 1_555 1_555
H11 C19 1_555 1_555
Zn1D O2 1_555 1_555
Zn1E O3 1_555 1_555
O2D Zn1 1_555 1_555
O3E Zn1 1_555 1_555
C6 C8 1_555 1_555
C6 C11 1_555 1_555
C7 C9 1_555 1_555
C10 C12 1_555 1_555
C18 C19 1_555 1_555
O1 C20 1_555 1_555

#END
