
#######################################################################
#
#                 Cambridge Crystallographic Data Centre
#                                CCDC 
#
#######################################################################
#
# If this CIF has been generated from an entry in the Cambridge 
# Structural Database, then it will include bibliographic, chemical, 
# crystal, experimental, refinement or atomic coordinate data resulting 
# from the CCDC's data processing and validation procedures.
#
#######################################################################

data_HORBIA
_symmetry_cell_setting           orthorhombic
_symmetry_space_group_name_H-M   'P n m a'
_symmetry_Int_Tables_number      62
_space_group_name_Hall           '-P 2ac 2n'
loop_
_symmetry_equiv_pos_site_id
_symmetry_equiv_pos_as_xyz
1 x,y,z
2 1/2-x,-y,1/2+z
3 1/2+x,1/2-y,1/2-z
4 -x,1/2+y,-z
5 -x,-y,-z
6 1/2+x,y,1/2-z
7 1/2-x,1/2+y,1/2+z
8 x,1/2-y,z
_cell_length_a                   6.1480(14)
_cell_length_b                   27.973(6)
_cell_length_c                   9.975(2)
_cell_angle_alpha                90
_cell_angle_beta                 90
_cell_angle_gamma                90
_cell_volume                     1715.48
loop_
_atom_site_label
_atom_site_type_symbol
_atom_site_fract_x
_atom_site_fract_y
_atom_site_fract_z
Cu1 Cu 0.5000 0.5000 0.5000
C1 C 0.5296(13) 0.4015(3) 0.4073(8)
H1 H 0.6708 0.4111 0.3877
C2 C 0.4757(14) 0.3538(3) 0.3924(9)
H2 H 0.5798 0.3319 0.3641
C3 C 0.2657(13) 0.3389(2) 0.4201(8)
C4 C 0.1179(12) 0.3731(3) 0.4618(8)
H3 H -0.0244 0.3643 0.4818
C5 C 0.1814(13) 0.4201(3) 0.4739(8)
H4 H 0.0791 0.4428 0.5002
C6 C 0.1981(12) 0.2887(3) 0.4089(8)
N1 N 0.2822(11) 0.5053(2) 0.6456(7)
N2 N 0.2734(10) 0.4793(2) 0.7372(7)
N3 N 0.2500(12) 0.4560(3) 0.8326(8)
N4 N 0.3865(10) 0.4344(2) 0.4488(6)
N5 N 0.0054(12) 0.2747(2) 0.3704(7)
N6 N 0.3265(13) 0.2500 0.4326(9)
N7 N 0.5387(14) 0.2500 0.4913(12)
H5 H 0.6058 0.2777 0.5105
Cu1A Cu 0.0000 0.5000 1.0000
Cu1C Cu 0.5000 0.0000 0.5000
Cu1A_2 Cu 0.0000 0.5000 0.0000
C1G C 0.5296(13) 0.0985(3) 0.4073(8)
H1G H 0.6708 0.0889 0.3877
C2G C 0.4757(14) 0.1462(3) 0.3924(9)
H2G H 0.5798 0.1681 0.3641
C3G C 0.2657(13) 0.1611(2) 0.4201(8)
C4G C 0.1179(12) 0.1269(3) 0.4618(8)
H3G H -0.0244 0.1357 0.4818
C5G C 0.1814(13) 0.0799(3) 0.4739(8)
H4G H 0.0791 0.0572 0.5002
C6G C 0.1981(12) 0.2113(3) 0.4089(8)
N1A N 0.2178(11) 0.4947(2) 0.1456(7)
N1D N 0.7178(11) 0.4947(2) 0.3544(7)
N2A N 0.2266(10) 0.5207(2) 0.2372(7)
N3A N 0.2500(12) 0.5440(3) 0.3326(8)
N3E N 0.7500(12) 0.4560(3) 0.6674(8)
N4G N 0.3865(10) 0.0656(2) 0.4488(6)
N4D N 0.6135(10) 0.5656(2) 0.5512(6)
N5G N 0.0054(12) 0.2253(2) 0.3704(7)
H5G H 0.6058 0.2223 0.5105
O1 O -0.318(5) 0.1589(10) 0.711(3)
O2? O 0.927(10) 0.299(2) 0.743(6)
loop_
_geom_bond_atom_site_label_1
_geom_bond_atom_site_label_2
_geom_bond_site_symmetry_1
_geom_bond_site_symmetry_2
Cu1 N1 1_555 1_555
C1 H1 1_555 1_555
C2 C1 1_555 1_555
H2 C2 1_555 1_555
C3 C2 1_555 1_555
C4 C3 1_555 1_555
H3 C4 1_555 1_555
C5 C4 1_555 1_555
H4 C5 1_555 1_555
C6 C3 1_555 1_555
N1 N2 1_555 1_555
N2 N3 1_555 1_555
N3 Cu1A 1_555 1_555
N4 Cu1 1_555 1_555
N5 C6 1_555 1_555
N6 C6 1_555 1_555
N7 N6 1_555 1_555
H5 N7 1_555 1_555
Cu1C N4G 1_555 1_555
Cu1A_2 N1A 1_555 1_555
C1G H1G 1_555 1_555
C2G C1G 1_555 1_555
H2G C2G 1_555 1_555
C3G C2G 1_555 1_555
C4G C3G 1_555 1_555
H3G C4G 1_555 1_555
C5G C4G 1_555 1_555
H4G C5G 1_555 1_555
C6G N6 1_555 1_555
N1A N2A 1_555 1_555
N1D Cu1 1_555 1_555
N2A N3A 1_555 1_555
N3A Cu1 1_555 1_555
N3E Cu1 1_555 1_555
N4G C1G 1_555 1_555
N4D Cu1 1_555 1_555
N5G N5 1_555 1_555
H5G N7 1_555 1_555
C1 N4 1_555 1_555
C5 N4 1_555 1_555
C3G C6G 1_555 1_555
C5G N4G 1_555 1_555
C6G N5G 1_555 1_555

#END
