
#######################################################################
#
#                 Cambridge Crystallographic Data Centre
#                                CCDC 
#
#######################################################################
#
# If this CIF has been generated from an entry in the Cambridge 
# Structural Database, then it will include bibliographic, chemical, 
# crystal, experimental, refinement or atomic coordinate data resulting 
# from the CCDC's data processing and validation procedures.
#
#######################################################################

data_HORBEW
_symmetry_cell_setting           triclinic
_symmetry_space_group_name_H-M   'P -1'
_symmetry_Int_Tables_number      2
_space_group_name_Hall           '-P 1'
loop_
_symmetry_equiv_pos_site_id
_symmetry_equiv_pos_as_xyz
1 x,y,z
2 -x,-y,-z
_cell_length_a                   9.402(2)
_cell_length_b                   10.458(3)
_cell_length_c                   11.996(5)
_cell_angle_alpha                107.336(4)
_cell_angle_beta                 98.786(4)
_cell_angle_gamma                114.313(3)
_cell_volume                     973.292
loop_
_atom_site_label
_atom_site_type_symbol
_atom_site_fract_x
_atom_site_fract_y
_atom_site_fract_z
Cu1 Cu 0.33944(5) 0.67499(5) 0.25055(4)
Cu2 Cu 0.0000 0.5000 0.0000
Cu3 Cu 0.5000 1.0000 0.5000
C1 C 0.1636(6) 0.5255(6) -0.2633(4)
H1 H 0.0474 0.4832 -0.2680
H2 H 0.1795 0.4471 -0.3204
H3 H 0.1964 0.6139 -0.2856
C2 C 0.2656(5) 0.5742(5) -0.1364(4)
C3 C 0.4867(4) 0.6670(4) 0.0183(4)
C4 C 0.6627(5) 0.7349(5) 0.0904(4)
H4 H 0.6716 0.7453 0.1755
H5 H 0.7260 0.8359 0.0897
H6 H 0.7063 0.6680 0.0535
C5 C 0.2724(6) 0.4314(5) 0.4188(4)
H7 H 0.3550 0.5394 0.4479
H8 H 0.3276 0.3710 0.4250
H9 H 0.1993 0.4209 0.4695
C6 C 0.1750(5) 0.3756(4) 0.2889(4)
C7 C -0.0120(5) 0.2258(4) 0.1088(4)
C8 C -0.1560(7) 0.0916(5) 0.0092(5)
H10 H -0.1769 0.1160 -0.0624
H11 H -0.2525 0.0647 0.0376
H12 H -0.1343 0.0049 -0.0140
N1 N 0.2201(4) 0.5667(4) -0.0394(3)
N2 N 0.3608(4) 0.6251(4) 0.0591(3)
N3 N 0.4333(4) 0.6378(4) -0.1028(3)
N4 N 0.5354(4) 0.6677(4) -0.1772(3)
N5 N 0.1900(4) 0.4552(4) 0.2203(3)
N6 N 0.0713(4) 0.3604(4) 0.1057(3)
N7 N 0.0512(4) 0.2321(4) 0.2208(3)
N8 N -0.0120(5) 0.1074(4) 0.2571(4)
N9 N 0.1337(4) 0.6736(4) 0.1646(3)
N10 N 0.0859(5) 0.7602(4) 0.2150(3)
N11 N 0.0377(7) 0.8368(6) 0.2605(5)
N12 N 0.4743(5) 0.9103(4) 0.3210(3)
N13 N 0.5024(5) 0.9851(4) 0.2599(3)
N14 N 0.5305(8) 1.0575(6) 0.2032(5)
N15 N 0.3239(6) 0.7958(4) 0.4653(4)
N16 N 0.2183(5) 0.7629(4) 0.5101(3)
N17 N 0.1114(7) 0.7222(7) 0.5494(5)
N18 N 0.5356(4) 0.6611(4) 0.3269(3)
N19 N 0.6249(6) 0.7626(5) 0.4216(5)
N20 N 0.7100(10) 0.8618(7) 0.5172(6)
Cu1A Cu -0.33944(5) 0.32501(5) -0.25055(4)
Cu3_2 Cu -0.5000 0.0000 -0.5000
C1A C -0.1636(6) 0.4745(6) 0.2633(4)
H1A H -0.0474 0.5168 0.2680
H2A H -0.1795 0.5529 0.3204
H3A H -0.1964 0.3861 0.2856
C2A C -0.2656(5) 0.4258(5) 0.1364(4)
C3A C -0.4867(4) 0.3330(4) -0.0183(4)
C4A C -0.6627(5) 0.2651(5) -0.0904(4)
H4A H -0.6716 0.2547 -0.1755
H5A H -0.7260 0.1641 -0.0897
H6A H -0.7063 0.3320 -0.0535
C5A C -0.2724(6) 0.5686(5) -0.4188(4)
H7A H -0.3550 0.4606 -0.4479
H8A H -0.3276 0.6290 -0.4250
H9A H -0.1993 0.5791 -0.4695
C6A C -0.1750(5) 0.6244(4) -0.2889(4)
C7A C 0.0120(5) 0.7742(4) -0.1088(4)
C8A C 0.1560(7) 0.9084(5) -0.0092(5)
H10A H 0.1769 0.8840 0.0624
H11A H 0.2525 0.9353 -0.0376
H12A H 0.1343 0.9951 0.0140
N1A N -0.2201(4) 0.4333(4) 0.0394(3)
N2A N -0.3608(4) 0.3749(4) -0.0591(3)
N3A N -0.4333(4) 0.3622(4) 0.1028(3)
N4A N -0.5354(4) 0.3323(4) 0.1772(3)
N5A N -0.1900(4) 0.5448(4) -0.2203(3)
N6A N -0.0713(4) 0.6396(4) -0.1057(3)
N7A N -0.0512(4) 0.7679(4) -0.2208(3)
N8A N 0.0120(5) 0.8926(4) -0.2571(4)
N9A N -0.1337(4) 0.3264(4) -0.1646(3)
N10A N -0.0859(5) 0.2398(4) -0.2150(3)
N11A N -0.0377(7) 0.1632(6) -0.2605(5)
N12A N -0.4743(5) 0.0897(4) -0.3210(3)
N12A_2 N 0.5257(5) 1.0897(4) 0.6790(3)
N13A N -0.5024(5) 0.0149(4) -0.2599(3)
N14A N -0.5305(8) -0.0575(6) -0.2032(5)
N15A N 0.6761(6) 1.2042(4) 0.5347(4)
N16A N 0.7817(5) 1.2371(4) 0.4899(3)
N17A N 0.8886(7) 1.2778(7) 0.4506(5)
N18A N -0.5356(4) 0.3389(4) -0.3269(3)
N19A N -0.6249(6) 0.2374(5) -0.4216(5)
N20A N -0.7100(10) 0.1382(7) -0.5172(6)
loop_
_geom_bond_atom_site_label_1
_geom_bond_atom_site_label_2
_geom_bond_site_symmetry_1
_geom_bond_site_symmetry_2
Cu1 N2 1_555 1_555
Cu2 N1 1_555 1_555
Cu3 N12 1_555 1_555
C1 H1 1_555 1_555
H2 C1 1_555 1_555
H3 C1 1_555 1_555
C2 C1 1_555 1_555
C3 C4 1_555 1_555
C4 H4 1_555 1_555
H5 C4 1_555 1_555
H6 C4 1_555 1_555
C5 H7 1_555 1_555
H8 C5 1_555 1_555
H9 C5 1_555 1_555
C6 C5 1_555 1_555
C7 C8 1_555 1_555
C8 H10 1_555 1_555
H11 C8 1_555 1_555
H12 C8 1_555 1_555
N1 C2 1_555 1_555
N2 C3 1_555 1_555
N3 C2 1_555 1_555
N4 N3 1_555 1_555
N5 Cu1 1_555 1_555
N6 Cu2 1_555 1_555
N7 C6 1_555 1_555
N8 N7 1_555 1_555
N9 Cu1 1_555 1_555
N10 N9 1_555 1_555
N11 N10 1_555 1_555
N12 Cu1 1_555 1_555
N13 N12 1_555 1_555
N14 N13 1_555 1_555
N15 Cu3 1_555 1_555
N16 N15 1_555 1_555
N17 N16 1_555 1_555
N18 Cu1 1_555 1_555
N19 N18 1_555 1_555
N20 N19 1_555 1_555
Cu1A N2A 1_555 1_555
Cu3_2 N12A 1_555 1_555
C1A H1A 1_555 1_555
H2A C1A 1_555 1_555
H3A C1A 1_555 1_555
C2A C1A 1_555 1_555
C3A C4A 1_555 1_555
C4A H4A 1_555 1_555
H5A C4A 1_555 1_555
H6A C4A 1_555 1_555
C5A H7A 1_555 1_555
H8A C5A 1_555 1_555
H9A C5A 1_555 1_555
C6A C5A 1_555 1_555
C7A C8A 1_555 1_555
C8A H10A 1_555 1_555
H11A C8A 1_555 1_555
H12A C8A 1_555 1_555
N1A Cu2 1_555 1_555
N2A C3A 1_555 1_555
N3A C2A 1_555 1_555
N4A N3A 1_555 1_555
N5A Cu1A 1_555 1_555
N6A Cu2 1_555 1_555
N7A C6A 1_555 1_555
N8A N7A 1_555 1_555
N9A Cu2 1_555 1_555
N10A N9A 1_555 1_555
N11A N10A 1_555 1_555
N12A Cu1A 1_555 1_555
N12A_2 Cu3 1_555 1_555
N13A N12A 1_555 1_555
N14A N13A 1_555 1_555
N15A Cu3 1_555 1_555
N16A N15A 1_555 1_555
N17A N16A 1_555 1_555
N18A Cu1A 1_555 1_555
N19A N18A 1_555 1_555
N20A N19A 1_555 1_555
Cu2 N9 1_555 1_555
C3 N3 1_555 1_555
C6 N5 1_555 1_555
C7 N6 1_555 1_555
C7 N7 1_555 1_555
N1 N2 1_555 1_555
N5 N6 1_555 1_555
Cu1A N9A 1_555 1_555
C2A N1A 1_555 1_555
C3A N3A 1_555 1_555
C6A N5A 1_555 1_555
C7A N6A 1_555 1_555
C7A N7A 1_555 1_555
N1A N2A 1_555 1_555
N5A N6A 1_555 1_555

#END
