
#######################################################################
#
#                 Cambridge Crystallographic Data Centre
#                                CCDC 
#
#######################################################################
#
# If this CIF has been generated from an entry in the Cambridge 
# Structural Database, then it will include bibliographic, chemical, 
# crystal, experimental, refinement or atomic coordinate data resulting 
# from the CCDC's data processing and validation procedures.
#
#######################################################################

data_HORBAS
_symmetry_cell_setting           triclinic
_symmetry_space_group_name_H-M   'P -1'
_symmetry_Int_Tables_number      2
_space_group_name_Hall           '-P 1'
loop_
_symmetry_equiv_pos_site_id
_symmetry_equiv_pos_as_xyz
1 x,y,z
2 -x,-y,-z
_cell_length_a                   8.5198(12)
_cell_length_b                   11.1221(15)
_cell_length_c                   11.2395(15)
_cell_angle_alpha                77.195(2)
_cell_angle_beta                 79.929(1)
_cell_angle_gamma                74.721(2)
_cell_volume                     994.129
loop_
_atom_site_label
_atom_site_type_symbol
_atom_site_fract_x
_atom_site_fract_y
_atom_site_fract_z
Zn1 Zn 0.22574(4) 0.83438(3) 0.77086(3)
C1 C 0.3469(3) 1.0525(2) 0.6992(2)
C2 C 0.3187(3) 1.1953(2) 0.6639(2)
C3 C 0.2255(3) 1.2821(2) 0.7387(2)
C4 C 0.2069(4) 1.4119(2) 0.6891(2)
H1 H 0.1444 1.4709 0.7362
C5 C 0.2781(4) 1.4543(3) 0.5737(3)
H2 H 0.2653 1.5409 0.5442
C6 C 0.3686(4) 1.3689(3) 0.5010(3)
H3 H 0.4165 1.3974 0.4224
C7 C 0.3875(3) 1.2405(3) 0.5461(2)
H4 H 0.4475 1.1829 0.4967
C8 C 0.1433(3) 1.2434(2) 0.8633(2)
H5 H 0.1275 1.1614 0.8848
C9 C 0.0909(3) 1.3172(3) 0.9464(2)
H6 H 0.1189 1.3951 0.9290
C10 C -0.0096(3) 1.2847(2) 1.0654(2)
C11 C 0.4282(3) 0.5729(3) 0.8259(2)
H7 H 0.3359 0.5420 0.8291
C12 C 0.6785(4) 0.5793(3) 0.8329(3)
H8 H 0.7897 0.5556 0.8414
C13 C 0.5875(4) 0.6987(3) 0.8057(3)
H9 H 0.6259 0.7721 0.7920
C14 C 0.6157(5) 0.3607(3) 0.8742(3)
H10 H 0.5146 0.3333 0.9043
H11 H 0.6840 0.3327 0.9404
C15 C 0.7010(4) 0.2966(3) 0.7700(3)
H12 H 0.6377 0.3298 0.7011
H13 H 0.8071 0.3173 0.7447
C16 C 0.7256(6) 0.1573(3) 0.7988(3)
H14 H 0.6687 0.1215 0.8705
C17 C 0.8323(5) 0.0739(3) 0.7224(3)
H15 H 0.7883 -0.0002 0.7325
H16 H 0.9380 0.0455 0.7532
C18 C 0.9649(4) 0.1995(3) 0.5356(3)
H17 H 1.0307 0.2293 0.5745
C19 C 0.9551(3) 0.2224(3) 0.4138(3)
H18 H 1.0141 0.2713 0.3539
C20 C 0.7908(3) 0.1034(2) 0.5014(2)
H19 H 0.7146 0.0539 0.5145
N1 N 0.4286(3) 0.6944(2) 0.80126(19)
N2 N 0.5764(3) 0.4998(2) 0.8457(2)
N3 N 0.8599(3) 0.1241(2) 0.5905(2)
N4 N 0.8443(3) 0.1622(2) 0.39250(19)
O1 O 0.2302(3) 1.00966(18) 0.76674(19)
O2 O 0.4731(3) 0.9859(2) 0.6570(2)
O3 O -0.0594(2) 1.18249(18) 1.08554(17)
O4 O -0.0456(3) 1.35944(19) 1.13794(17)
Zn1A Zn 0.77426(4) 0.16562(3) 0.22914(3)
Zn1A_2 Zn -0.22574(4) 1.16562(3) 1.22914(3)
N4A N 0.1557(3) 0.8378(2) 0.60750(19)
O3A O 0.0594(2) 0.81751(18) 0.91446(17)
loop_
_geom_bond_atom_site_label_1
_geom_bond_atom_site_label_2
_geom_bond_site_symmetry_1
_geom_bond_site_symmetry_2
Zn1 N1 1_555 1_555
C1 C2 1_555 1_555
C2 C3 1_555 1_555
C3 C4 1_555 1_555
C4 H1 1_555 1_555
C5 C4 1_555 1_555
H2 C5 1_555 1_555
C6 C5 1_555 1_555
H3 C6 1_555 1_555
C7 C2 1_555 1_555
H4 C7 1_555 1_555
C8 C3 1_555 1_555
H5 C8 1_555 1_555
C9 C8 1_555 1_555
H6 C9 1_555 1_555
C10 C9 1_555 1_555
C11 H7 1_555 1_555
C12 H8 1_555 1_555
C13 C12 1_555 1_555
H9 C13 1_555 1_555
C14 H10 1_555 1_555
H11 C14 1_555 1_555
C15 C14 1_555 1_555
H12 C15 1_555 1_555
H13 C15 1_555 1_555
C16 C15 1_555 1_555
H14 C16 1_555 1_555
C17 C16 1_555 1_555
H15 C17 1_555 1_555
H16 C17 1_555 1_555
C18 H17 1_555 1_555
C19 C18 1_555 1_555
H18 C19 1_555 1_555
C20 H19 1_555 1_555
N1 C11 1_555 1_555
N2 C11 1_555 1_555
N3 C17 1_555 1_555
N4 C19 1_555 1_555
O1 Zn1 1_555 1_555
O2 C1 1_555 1_555
O3 C10 1_555 1_555
O4 C10 1_555 1_555
Zn1A N4 1_555 1_555
Zn1A_2 O3 1_555 1_555
N4A Zn1 1_555 1_555
O3A Zn1 1_555 1_555
C1 O1 1_555 1_555
C6 C7 1_555 1_555
C12 N2 1_555 1_555
C13 N1 1_555 1_555
C14 N2 1_555 1_555
C18 N3 1_555 1_555
C20 N3 1_555 1_555
C20 N4 1_555 1_555

#END
