
#######################################################################
#
#                 Cambridge Crystallographic Data Centre
#                                CCDC 
#
#######################################################################
#
# If this CIF has been generated from an entry in the Cambridge 
# Structural Database, then it will include bibliographic, chemical, 
# crystal, experimental, refinement or atomic coordinate data resulting 
# from the CCDC's data processing and validation procedures.
#
#######################################################################

data_HORCIB
_symmetry_cell_setting           monoclinic
_symmetry_space_group_name_H-M   'P 21/m'
_symmetry_Int_Tables_number      11
_space_group_name_Hall           '-P 2yb'
loop_
_symmetry_equiv_pos_site_id
_symmetry_equiv_pos_as_xyz
1 x,y,z
2 -x,1/2+y,-z
3 -x,-y,-z
4 x,1/2-y,z
_cell_length_a                   9.6900(16)
_cell_length_b                   6.8211(14)
_cell_length_c                   11.236(3)
_cell_angle_alpha                90
_cell_angle_beta                 113.333(8)
_cell_angle_gamma                90
_cell_volume                     681.924
loop_
_atom_site_label
_atom_site_type_symbol
_atom_site_fract_x
_atom_site_fract_y
_atom_site_fract_z
Gd1 Gd 0.38464(6) 0.7500 0.23036(6)
O1 O 0.2429(10) 0.7500 -0.0019(10)
O2 O 0.0288(11) 0.7500 -0.1841(11)
O3 O -0.2962(8) 0.9158(11) -0.2188(8)
O4 O 0.2838(10) 0.7500 0.4015(10)
O5 O 0.0902(12) 0.7500 0.4660(11)
N1 N 0.0975(12) 0.7500 0.1520(11)
N2 N -0.2164(12) 0.7500 0.0645(13)
C1 C 0.0985(15) 0.7500 -0.0639(15)
C2 C 0.0101(14) 0.7500 0.0232(13)
C3 C -0.1504(14) 0.7500 -0.0214(14)
C4 C -0.2560(13) 0.7500 -0.1664(14)
C5 C -0.1270(15) 0.7500 0.1924(16)
H1 H -0.1711 0.7500 0.2523
C6 C 0.0323(15) 0.7500 0.2378(13)
C7 C 0.1423(16) 0.7500 0.3802(15)
O6 O 0.5763(8) 0.5519(13) 0.4052(8)
H2 H 0.5499 0.4357 0.4138
H3 H 0.6250 0.5920 0.4822
O7 O 0.5335(9) 0.5444(15) 0.1384(8)
H4 H 0.5705 0.5838 0.0856
H5 H 0.5935 0.4565 0.1838
Gd1A Gd -0.38464(6) 0.2500 -0.23036(6)
Gd1A_2 Gd -0.38464(6) 1.2500 -0.23036(6)
O3C O -0.2962(8) 0.5842(11) -0.2188(8)
O3A O 0.2962(8) 0.4158(11) 0.2188(8)
O3B O 0.2962(8) 1.0842(11) 0.2188(8)
O6C O 0.5763(8) 0.9481(13) 0.4052(8)
H2C H 0.5499 1.0643 0.4138
H3C H 0.6250 0.9080 0.4822
O7C O 0.5335(9) 0.9556(15) 0.1384(8)
H4C H 0.5705 0.9162 0.0856
H5C H 0.5935 1.0435 0.1838
O8 O 0.7300(11) 1.2500 0.2686(11)
H6 H 0.7773 1.2500 0.3504
H7 H 0.7982 1.2500 0.2388
O9 O 0.8419(12) 0.7500 0.5442(12)
H8 H 0.9081 0.7500 0.5124
H9 H 0.8912 0.7500 0.6259
loop_
_geom_bond_atom_site_label_1
_geom_bond_atom_site_label_2
_geom_bond_site_symmetry_1
_geom_bond_site_symmetry_2
Gd1 O1 1_555 1_555
O1 C1 1_555 1_555
O2 C1 1_555 1_555
O3 C4 1_555 1_555
O4 Gd1 1_555 1_555
O5 C7 1_555 1_555
N1 Gd1 1_555 1_555
N2 C3 1_555 1_555
C1 C2 1_555 1_555
C2 N1 1_555 1_555
C3 C2 1_555 1_555
C4 C3 1_555 1_555
C5 N2 1_555 1_555
H1 C5 1_555 1_555
C6 N1 1_555 1_555
C7 O4 1_555 1_555
O6 Gd1 1_555 1_555
H2 O6 1_555 1_555
H3 O6 1_555 1_555
O7 Gd1 1_555 1_555
H4 O7 1_555 1_555
H5 O7 1_555 1_555
O8 H6 1_555 1_555
H7 O8 1_555 1_555
O9 H8 1_555 1_555
H9 O9 1_555 1_555
Gd1A O3C 1_555 1_555
Gd1A_2 O3 1_555 1_555
O3C C4 1_555 1_555
O3A Gd1 1_555 1_555
O3B Gd1 1_555 1_555
O6C Gd1 1_555 1_555
H2C O6C 1_555 1_555
H3C O6C 1_555 1_555
O7C Gd1 1_555 1_555
H4C O7C 1_555 1_555
H5C O7C 1_555 1_555
C5 C6 1_555 1_555
C6 C7 1_555 1_555

#END
