
#######################################################################
#
#                 Cambridge Crystallographic Data Centre
#                                CCDC 
#
#######################################################################
#
# If this CIF has been generated from an entry in the Cambridge 
# Structural Database, then it will include bibliographic, chemical, 
# crystal, experimental, refinement or atomic coordinate data resulting 
# from the CCDC's data processing and validation procedures.
#
#######################################################################

data_HORCOH
_symmetry_cell_setting           orthorhombic
_symmetry_space_group_name_H-M   'P n m a'
_symmetry_Int_Tables_number      62
_space_group_name_Hall           '-P 2ac 2n'
loop_
_symmetry_equiv_pos_site_id
_symmetry_equiv_pos_as_xyz
1 x,y,z
2 1/2-x,-y,1/2+z
3 1/2+x,1/2-y,1/2-z
4 -x,1/2+y,-z
5 -x,-y,-z
6 1/2+x,y,1/2-z
7 1/2-x,1/2+y,1/2+z
8 x,1/2-y,z
_cell_length_a                   9.5054(10)
_cell_length_b                   6.5175(7)
_cell_length_c                   17.0878(18)
_cell_angle_alpha                90
_cell_angle_beta                 90
_cell_angle_gamma                90
_cell_volume                     1058.61
loop_
_atom_site_label
_atom_site_type_symbol
_atom_site_fract_x
_atom_site_fract_y
_atom_site_fract_z
Yb1 Yb 0.21920(2) 0.2500 0.379117(11)
O1 O 0.2522(5) 0.2500 0.5117(2)
O2 O 0.3868(6) 0.2500 0.61929(19)
O3 O 0.7108(4) 0.0805(6) 0.63248(18)
O4 O 0.5976(5) 0.2500 0.2293(2)
O5 O 0.3805(5) 0.2500 0.2746(2)
N1 N 0.4646(5) 0.2500 0.4192(2)
N2 N 0.7431(6) 0.2500 0.4624(3)
C1 C 0.3697(6) 0.2500 0.5481(3)
C2 C 0.4981(6) 0.2500 0.4952(3)
C3 C 0.6407(6) 0.2500 0.5162(3)
C4 C 0.6923(6) 0.2500 0.6000(3)
C5 C 0.7038(7) 0.2500 0.3866(3)
H1 H 0.7726 0.2500 0.3479
C6 C 0.5641(6) 0.2500 0.3653(3)
C7 C 0.5104(6) 0.2500 0.2829(3)
O6 O 0.0256(4) 0.0389(5) 0.41728(17)
H2 H 0.0473 -0.0710 0.4412
H3 H -0.0635 0.0448 0.4132
Yb1C Yb 0.78080(2) -0.2500 0.620883(11)
Yb1B Yb 0.71920(2) 0.2500 0.120883(11)
Yb1C_2 Yb 0.78080(2) 0.7500 0.620883(11)
O3G O 0.7108(4) 0.4195(6) 0.63248(18)
O3C O 0.2892(4) 0.5805(6) 0.36752(18)
O3D O 0.2892(4) -0.0805(6) 0.36752(18)
O4B O 0.0976(5) 0.2500 0.2707(2)
O6G O 0.0256(4) 0.4611(5) 0.41728(17)
H2G H 0.0473 0.5710 0.4412
H3G H -0.0635 0.4552 0.4132
O7 O 0.1115(6) 0.2500 0.6799(3)
H4 H 0.1820 0.2500 0.6492
H5 H 0.0291 0.2500 0.6604
loop_
_geom_bond_atom_site_label_1
_geom_bond_atom_site_label_2
_geom_bond_site_symmetry_1
_geom_bond_site_symmetry_2
Yb1 O1 1_555 1_555
O1 C1 1_555 1_555
O2 C1 1_555 1_555
O3 C4 1_555 1_555
O4 C7 1_555 1_555
O5 Yb1 1_555 1_555
N1 Yb1 1_555 1_555
N2 C3 1_555 1_555
C1 C2 1_555 1_555
C2 N1 1_555 1_555
C3 C2 1_555 1_555
C4 C3 1_555 1_555
C5 N2 1_555 1_555
H1 C5 1_555 1_555
C6 N1 1_555 1_555
C7 O5 1_555 1_555
O6 Yb1 1_555 1_555
H2 O6 1_555 1_555
H3 O6 1_555 1_555
O7 H4 1_555 1_555
H5 O7 1_555 1_555
Yb1C O3 1_555 1_555
Yb1B O4 1_555 1_555
Yb1C_2 O3G 1_555 1_555
O3G C4 1_555 1_555
O3C Yb1 1_555 1_555
O3D Yb1 1_555 1_555
O4B Yb1 1_555 1_555
O6G Yb1 1_555 1_555
H2G O6G 1_555 1_555
H3G O6G 1_555 1_555
C5 C6 1_555 1_555
C6 C7 1_555 1_555

#END
