
#######################################################################
#
#                 Cambridge Crystallographic Data Centre
#                                CCDC 
#
#######################################################################
#
# If this CIF has been generated from an entry in the Cambridge 
# Structural Database, then it will include bibliographic, chemical, 
# crystal, experimental, refinement or atomic coordinate data resulting 
# from the CCDC's data processing and validation procedures.
#
#######################################################################

data_HORHAX02
_symmetry_cell_setting           monoclinic
_symmetry_space_group_name_H-M   'P 21/c'
_symmetry_Int_Tables_number      14
_space_group_name_Hall           '-P 2ybc'
loop_
_symmetry_equiv_pos_site_id
_symmetry_equiv_pos_as_xyz
1 x,y,z
2 -x,1/2+y,1/2-z
3 -x,-y,-z
4 x,1/2-y,1/2+z
_cell_length_a                   9.1420(18)
_cell_length_b                   8.8440(18)
_cell_length_c                   9.5250(19)
_cell_angle_alpha                90
_cell_angle_beta                 100.43(3)
_cell_angle_gamma                90
_cell_volume                     757.389
loop_
_atom_site_label
_atom_site_type_symbol
_atom_site_fract_x
_atom_site_fract_y
_atom_site_fract_z
Ag1 Ag 0.96548(2) 0.20932(2) 0.388876(19)
S1 S 0.81756(6) -0.11937(6) 0.31196(6)
O1 O 0.8868(2) -0.0046(2) 0.2336(2)
C1 C 0.6254(3) -0.1157(3) 0.2410(3)
O2 O 0.8719(2) -0.2712(2) 0.2883(2)
O3 O 0.8319(2) -0.0814(2) 0.4633(2)
C2 C 0.5296(3) -0.0466(3) 0.3191(3)
H1 H 0.5677 -0.0049 0.4104
C3 C 0.3785(3) -0.0383(3) 0.2641(3)
H2 H 0.3126 0.0065 0.3185
C4 C 0.3241(3) -0.0963(3) 0.1286(3)
C5 C 0.4209(3) -0.1655(3) 0.0502(3)
H3 H 0.3834 -0.2056 -0.0418
C6 C 0.5719(3) -0.1757(3) 0.1064(3)
H4 H 0.6378 -0.2232 0.0535
N1 N 0.1691(2) -0.0861(2) 0.0712(2)
H5 H 0.128(5) -0.003(5) 0.122(5)
H6 H 0.156(4) -0.064(4) -0.027(4)
Ag1A Ag 1.03452(2) -0.29068(2) 0.111124(19)
Ag1B Ag 1.03452(2) -0.20932(2) 0.611124(19)
Ag1A_2 Ag 0.03452(2) -0.29068(2) 0.111124(19)
O2A O 1.1281(2) 0.2288(2) 0.2117(2)
O3B O 1.1681(2) 0.0814(2) 0.5367(2)
N1A N 0.8309(2) 0.4139(2) 0.4288(2)
H5A H 0.872(5) 0.497(5) 0.378(5)
H6A H 0.844(4) 0.436(4) 0.527(4)
loop_
_geom_bond_atom_site_label_1
_geom_bond_atom_site_label_2
_geom_bond_site_symmetry_1
_geom_bond_site_symmetry_2
Ag1 O1 1_555 1_555
S1 O1 1_555 1_555
C1 S1 1_555 1_555
O2 S1 1_555 1_555
O3 S1 1_555 1_555
C2 C1 1_555 1_555
H1 C2 1_555 1_555
C3 C2 1_555 1_555
H2 C3 1_555 1_555
C4 C3 1_555 1_555
C5 C4 1_555 1_555
H3 C5 1_555 1_555
C6 C1 1_555 1_555
H4 C6 1_555 1_555
N1 C4 1_555 1_555
H5 N1 1_555 1_555
H6 N1 1_555 1_555
Ag1A O2 1_555 1_555
Ag1B O3 1_555 1_555
Ag1A_2 N1 1_555 1_555
O2A Ag1 1_555 1_555
O3B Ag1 1_555 1_555
N1A Ag1 1_555 1_555
H5A N1A 1_555 1_555
H6A N1A 1_555 1_555
C5 C6 1_555 1_555

#END
