
#######################################################################
#
#                 Cambridge Crystallographic Data Centre
#                                CCDC 
#
#######################################################################
#
# If this CIF has been generated from an entry in the Cambridge 
# Structural Database, then it will include bibliographic, chemical, 
# crystal, experimental, refinement or atomic coordinate data resulting 
# from the CCDC's data processing and validation procedures.
#
#######################################################################

data_HORHEB
_symmetry_cell_setting           monoclinic
_symmetry_space_group_name_H-M   'P 21/n'
_symmetry_Int_Tables_number      14
_space_group_name_Hall           '-P 2yn'
loop_
_symmetry_equiv_pos_site_id
_symmetry_equiv_pos_as_xyz
1 x,y,z
2 1/2-x,1/2+y,1/2-z
3 -x,-y,-z
4 1/2+x,1/2-y,1/2+z
_cell_length_a                   9.866(2)
_cell_length_b                   19.799(4)
_cell_length_c                   10.079(2)
_cell_angle_alpha                90
_cell_angle_beta                 114.98(3)
_cell_angle_gamma                90
_cell_volume                     1784.63
loop_
_atom_site_label
_atom_site_type_symbol
_atom_site_fract_x
_atom_site_fract_y
_atom_site_fract_z
Tl1 Tl -0.26074(5) -0.46105(2) -0.11903(4)
Tl2 Tl -0.23995(6) -0.54288(3) 0.29101(5)
S1 S 0.0466(3) -0.42607(13) 0.2713(3)
O1 O 0.2067(10) -0.4365(4) 0.3409(11)
O2 O -0.0170(14) -0.4364(5) 0.3742(12)
O3 O -0.0197(11) -0.4687(4) 0.1458(9)
C1 C 0.0163(11) -0.3402(5) 0.2144(9)
C2 C 0.1326(11) -0.2995(5) 0.2291(11)
C3 C 0.1095(12) -0.2323(5) 0.1897(12)
C4 C -0.0330(12) -0.2061(5) 0.1267(9)
C5 C -0.1506(12) -0.2485(6) 0.1138(11)
C6 C -0.1266(12) -0.3152(6) 0.1572(12)
N1 N -0.0561(11) -0.1387(4) 0.0863(9)
H1 H 0.0224 -0.1117 0.1012
H2 H -0.1496 -0.1219 0.0452
H3 H 0.224(12) -0.315(5) 0.265(11)
H4 H 0.188(12) -0.214(5) 0.187(11)
H5 H -0.232(11) -0.233(6) 0.087(11)
H6 H -0.177(13) -0.340(6) 0.135(12)
S2 S -0.5365(3) -0.40440(13) 0.0883(3)
O4 O -0.6917(8) -0.4202(3) 0.0013(7)
O5 O -0.4798(10) -0.4409(4) 0.2256(8)
O6 O -0.4504(11) -0.4149(4) 0.0055(12)
C7 C -0.5268(10) -0.3178(5) 0.1296(10)
C8 C -0.5769(12) -0.2699(5) 0.0192(11)
C9 C -0.5730(11) -0.2024(5) 0.0497(11)
H7 H -0.6066 -0.1722 -0.0239
C10 C -0.5173(10) -0.1804(5) 0.1940(12)
C11 C -0.4620(12) -0.2282(6) 0.3041(12)
C12 C -0.4687(13) -0.2955(5) 0.2744(12)
N2 N -0.5133(13) -0.1119(5) 0.2215(13)
H8 H -0.613(10) -0.286(5) -0.069(10)
H9 H -0.441(10) -0.215(5) 0.399(10)
H10 H -0.448(12) -0.324(5) 0.326(11)
H11 H -0.499(12) -0.096(6) 0.292(11)
H12 H -0.580(11) -0.089(5) 0.157(10)
O4B O -0.3083(8) -0.5798(3) -0.0013(7)
Tl1B Tl -0.73926(5) -0.53895(2) 0.11903(4)
Tl2B Tl -0.76005(6) -0.45712(3) -0.29101(5)
N2A N 0.0133(13) -0.6119(5) 0.2785(13)
Tl2A Tl -0.26005(6) -0.04288(3) 0.20899(5)
N2C N -1.0133(13) -0.3881(5) -0.2785(13)
H11C H -0.999(12) -0.404(6) -0.208(11)
H12C H -1.080(11) -0.411(5) -0.343(10)
H11A H -0.001(12) -0.596(6) 0.208(11)
H12A H 0.080(11) -0.589(5) 0.343(10)
O7 O -0.1667(13) -0.9443(5) 0.9714(10)
H13 H -0.118(10) -0.944(4) 1.068(11)
H14 H -0.206(9) -0.988(4) 0.937(8)
loop_
_geom_bond_atom_site_label_1
_geom_bond_atom_site_label_2
_geom_bond_site_symmetry_1
_geom_bond_site_symmetry_2
Tl1 O3 1_555 1_555
Tl2 O2 1_555 1_555
S1 O1 1_555 1_555
O2 S1 1_555 1_555
O3 S1 1_555 1_555
C1 S1 1_555 1_555
C2 C1 1_555 1_555
C3 C2 1_555 1_555
C4 C3 1_555 1_555
C5 C4 1_555 1_555
C6 C1 1_555 1_555
N1 C4 1_555 1_555
H1 N1 1_555 1_555
H2 N1 1_555 1_555
H3 C2 1_555 1_555
H4 C3 1_555 1_555
H5 C5 1_555 1_555
H6 C6 1_555 1_555
S2 O4 1_555 1_555
O4 Tl1B 1_555 1_555
O5 S2 1_555 1_555
O6 Tl1 1_555 1_555
C7 S2 1_555 1_555
C8 C7 1_555 1_555
C9 C8 1_555 1_555
H7 C9 1_555 1_555
C10 C9 1_555 1_555
C11 C10 1_555 1_555
C12 C7 1_555 1_555
N2 C10 1_555 1_555
H8 C8 1_555 1_555
H9 C11 1_555 1_555
H10 C12 1_555 1_555
H11 N2 1_555 1_555
H12 N2 1_555 1_555
O7 H13 1_555 1_555
H14 O7 1_555 1_555
O4B Tl1 1_555 1_555
Tl2B O4 1_555 1_555
N2A Tl2 1_555 1_555
Tl2A N2 1_555 1_555
N2C Tl2B 1_555 1_555
H11C N2C 1_555 1_555
H12C N2C 1_555 1_555
H11A N2A 1_555 1_555
H12A N2A 1_555 1_555
Tl2 O4B 1_555 1_555
C5 C6 1_555 1_555
S2 O6 1_555 1_555
C11 C12 1_555 1_555

#END
