
#######################################################################
#
#                 Cambridge Crystallographic Data Centre
#                                CCDC 
#
#######################################################################
#
# If this CIF has been generated from an entry in the Cambridge 
# Structural Database, then it will include bibliographic, chemical, 
# crystal, experimental, refinement or atomic coordinate data resulting 
# from the CCDC's data processing and validation procedures.
#
#######################################################################

data_HORHAX01
_symmetry_cell_setting           monoclinic
_symmetry_space_group_name_H-M   'P 21/c'
_symmetry_Int_Tables_number      14
_space_group_name_Hall           '-P 2ybc'
loop_
_symmetry_equiv_pos_site_id
_symmetry_equiv_pos_as_xyz
1 x,y,z
2 -x,1/2+y,1/2-z
3 -x,-y,-z
4 x,1/2-y,1/2+z
_cell_length_a                   9.109(5)
_cell_length_b                   8.910(5)
_cell_length_c                   9.546(6)
_cell_angle_alpha                90
_cell_angle_beta                 100.076(7)
_cell_angle_gamma                90
_cell_volume                     762.815
loop_
_atom_site_label
_atom_site_type_symbol
_atom_site_fract_x
_atom_site_fract_y
_atom_site_fract_z
Ag1 Ag 0.96600(3) 0.70534(3) 0.39119(3)
N1 N 0.8309(3) 0.9090(3) 0.4261(3)
O1 O 0.1141(2) 0.9939(3) 0.2688(3)
O2 O 0.1282(3) 0.7312(3) 0.2107(3)
O3 O 0.1685(2) 0.9216(3) 0.0405(2)
S1 S 0.18274(7) 0.88117(9) 0.18993(8)
C1 C 0.3748(3) 0.8847(3) 0.2597(3)
C2 C 0.4713(3) 0.9514(4) 0.1826(3)
C3 C 0.6217(3) 0.9589(4) 0.2370(3)
C4 C 0.6754(3) 0.9008(3) 0.3695(3)
C5 C 0.5785(4) 0.8337(4) 0.4478(4)
C6 C 0.4274(4) 0.8258(4) 0.3925(4)
H1 H 0.439(4) 0.982(4) 0.095(4)
H2 H 0.680(4) 1.011(5) 0.187(4)
H3 H 0.610(5) 0.795(4) 0.545(5)
H4 H 0.367(5) 0.778(4) 0.451(4)
H5 H 0.842(4) 0.910(4) 0.528(4)
H6 H 0.866(4) 0.990(5) 0.381(4)
O1A O 0.8859(2) 0.4939(3) 0.2312(3)
O2_2 O 1.1282(3) 0.7312(3) 0.2107(3)
O3C O 1.1685(2) 0.5784(3) 0.5405(2)
Ag1A Ag 0.03400(3) 1.20534(3) 0.10881(3)
Ag1_2 Ag -0.03400(3) 0.70534(3) 0.39119(3)
Ag1C Ag -0.03400(3) 0.79466(3) -0.10881(3)
loop_
_geom_bond_atom_site_label_1
_geom_bond_atom_site_label_2
_geom_bond_site_symmetry_1
_geom_bond_site_symmetry_2
Ag1 N1 1_555 1_555
N1 C4 1_555 1_555
O1 S1 1_555 1_555
O2 S1 1_555 1_555
O3 S1 1_555 1_555
S1 C1 1_555 1_555
C1 C2 1_555 1_555
C2 C3 1_555 1_555
C3 C4 1_555 1_555
C4 C5 1_555 1_555
C5 C6 1_555 1_555
C6 C1 1_555 1_555
H1 C2 1_555 1_555
H2 C3 1_555 1_555
H3 C5 1_555 1_555
H4 C6 1_555 1_555
H5 N1 1_555 1_555
H6 N1 1_555 1_555
O1A Ag1 1_555 1_555
O2_2 Ag1 1_555 1_555
O3C Ag1 1_555 1_555
Ag1A O1 1_555 1_555
Ag1_2 O2 1_555 1_555
Ag1C O3 1_555 1_555

#END
