
#######################################################################
#
#                 Cambridge Crystallographic Data Centre
#                                CCDC 
#
#######################################################################
#
# If this CIF has been generated from an entry in the Cambridge 
# Structural Database, then it will include bibliographic, chemical, 
# crystal, experimental, refinement or atomic coordinate data resulting 
# from the CCDC's data processing and validation procedures.
#
#######################################################################

data_HORHAX03
_symmetry_cell_setting           monoclinic
_symmetry_space_group_name_H-M   'P 21/c'
_symmetry_Int_Tables_number      14
_space_group_name_Hall           '-P 2ybc'
loop_
_symmetry_equiv_pos_site_id
_symmetry_equiv_pos_as_xyz
1 x,y,z
2 -x,1/2+y,1/2-z
3 -x,-y,-z
4 x,1/2-y,1/2+z
_cell_length_a                   9.1527(5)
_cell_length_b                   8.8532(5)
_cell_length_c                   9.5318(6)
_cell_angle_alpha                90
_cell_angle_beta                 100.3940(10)
_cell_angle_gamma                90
_cell_volume                     759.694
loop_
_atom_site_label
_atom_site_type_symbol
_atom_site_fract_x
_atom_site_fract_y
_atom_site_fract_z
Ag1 Ag -0.034511(17) 0.290956(18) 0.889111(17)
S1 S 0.18260(5) 0.11939(5) 0.68842(5)
O1 O 0.11326(17) 0.00455(18) 0.76634(16)
O2 O 0.16785(17) 0.08088(19) 0.53693(16)
O3 O 0.12813(17) 0.27075(17) 0.71203(18)
N1 N 0.83079(19) 0.0865(2) 0.92800(19)
H1 H 0.8492 0.0795 1.0218
H2 H 0.8701 0.0062 0.8890
C1 C 0.3745(2) 0.1158(2) 0.7588(2)
C2 C 0.4287(2) 0.1755(2) 0.8939(2)
H3 H 0.3643 0.2216 0.9459
C3 C 0.5796(2) 0.1656(2) 0.9499(2)
H4 H 0.6164 0.2048 1.0398
C4 C 0.6758(2) 0.0967(2) 0.8709(2)
C5 C 0.6219(2) 0.0383(2) 0.7364(2)
H5 H 0.6865 -0.0062 0.6836
C6 C 0.4702(2) 0.0467(2) 0.6806(2)
H6 H 0.4333 0.0062 0.5912
Ag1_2 Ag 0.965489(17) 0.290956(18) 0.889111(17)
Ag1A Ag 0.034511(17) -0.209044(18) 0.610889(17)
Ag1C Ag -0.034511(17) 0.209044(18) 0.389111(17)
O1A O -0.11326(17) 0.50455(18) 0.73366(16)
O2C O 0.16785(17) 0.41912(19) 1.03693(16)
N1_2 N -0.16921(19) 0.0865(2) 0.92800(19)
loop_
_geom_bond_atom_site_label_1
_geom_bond_atom_site_label_2
_geom_bond_site_symmetry_1
_geom_bond_site_symmetry_2
Ag1 O3 1_555 1_555
S1 O1 1_555 1_555
O1 Ag1A 1_555 1_555
O2 S1 1_555 1_555
O3 S1 1_555 1_555
N1 H1 1_555 1_555
H2 N1 1_555 1_555
C1 S1 1_555 1_555
C2 C1 1_555 1_555
H3 C2 1_555 1_555
C3 C2 1_555 1_555
H4 C3 1_555 1_555
C4 N1 1_555 1_555
C5 C4 1_555 1_555
H5 C5 1_555 1_555
C6 C1 1_555 1_555
H6 C6 1_555 1_555
Ag1_2 N1 1_555 1_555
Ag1C O2 1_555 1_555
O1A Ag1 1_555 1_555
O2C Ag1 1_555 1_555
N1_2 Ag1 1_555 1_555
C3 C4 1_555 1_555
C5 C6 1_555 1_555

#END
