
#######################################################################
#
#                 Cambridge Crystallographic Data Centre
#                                CCDC 
#
#######################################################################
#
# If this CIF has been generated from an entry in the Cambridge 
# Structural Database, then it will include bibliographic, chemical, 
# crystal, experimental, refinement or atomic coordinate data resulting 
# from the CCDC's data processing and validation procedures.
#
#######################################################################

data_HORHOM
_symmetry_cell_setting           monoclinic
_symmetry_space_group_name_H-M   'P 21/c'
_symmetry_Int_Tables_number      14
_space_group_name_Hall           '-P 2ybc'
loop_
_symmetry_equiv_pos_site_id
_symmetry_equiv_pos_as_xyz
1 x,y,z
2 -x,1/2+y,1/2-z
3 -x,-y,-z
4 x,1/2-y,1/2+z
_cell_length_a                   11.0403(16)
_cell_length_b                   8.9060(13)
_cell_length_c                   13.640(2)
_cell_angle_alpha                90
_cell_angle_beta                 109.155(3)
_cell_angle_gamma                90
_cell_volume                     1266.9
loop_
_atom_site_label
_atom_site_type_symbol
_atom_site_fract_x
_atom_site_fract_y
_atom_site_fract_z
C1 C 0.8682(4) 0.5290(4) 0.9749(3)
C2 C 0.9437(4) 0.6187(4) 0.9347(3)
C3 C 0.9281(4) 0.4101(4) 1.0394(3)
H1 H 0.8786 0.3480 1.0659
C4 C 0.7251(4) 0.5589(5) 0.9479(4)
H2 H 0.7125 0.6596 0.9700
H3 H 0.6846 0.5537 0.8732
C5 C 0.6159(3) 0.3178(5) 0.9574(3)
H4 H 0.6084 0.2859 0.8907
C6 C 0.6076(4) 0.3255(5) 1.1111(3)
H5 H 0.5920 0.2985 1.1717
C7 C 0.6598(4) 0.4559(5) 1.0954(4)
H6 H 0.6876 0.5341 1.1427
C8 C 0.8856(4) 0.7448(5) 0.8593(3)
H7 H 0.8171 0.7920 0.8780
H8 H 0.9505 0.8201 0.8632
C9 C 0.9032(4) 0.6301(6) 0.6942(4)
H9 H 0.9920 0.6305 0.7110
C10 C 0.8179(5) 0.5740(7) 0.6074(4)
H10 H 0.8382 0.5287 0.5534
C11 C 0.7108(4) 0.6616(5) 0.6996(3)
H11 H 0.6434 0.6890 0.7225
Cd1 Cd 0.5000 0.0000 1.0000
Cl1 Cl 0.57907(12) -0.03614(13) 0.83501(9)
N1 N 0.6641(3) 0.4511(4) 0.9973(3)
N2 N 0.5810(3) 0.2387(4) 1.0238(3)
N3 N 0.8346(3) 0.6861(4) 0.7526(3)
N4 N 0.6967(3) 0.5939(4) 0.6109(3)
C1B C 1.1318(4) 0.4710(4) 1.0251(3)
C2B C 1.0563(4) 0.3813(4) 1.0653(3)
C3B C 1.0719(4) 0.5899(4) 0.9606(3)
H1B H 1.1214 0.6520 0.9341
C4B C 1.2749(4) 0.4411(5) 1.0521(4)
H2B H 1.2875 0.3404 1.0300
H3B H 1.3154 0.4463 1.1268
C5B C 1.3841(3) 0.6822(5) 1.0426(3)
H4B H 1.3916 0.7141 1.1093
C6B C 1.3924(4) 0.6745(5) 0.8889(3)
H5B H 1.4080 0.7015 0.8283
C7B C 1.3402(4) 0.5441(5) 0.9046(4)
H6B H 1.3124 0.4659 0.8573
C8B C 1.1144(4) 0.2552(5) 1.1407(3)
H7B H 1.1829 0.2080 1.1220
H8B H 1.0495 0.1799 1.1368
C9B C 1.0968(4) 0.3699(6) 1.3058(4)
H9B H 1.0080 0.3695 1.2890
C10B C 1.1821(5) 0.4260(7) 1.3926(4)
H10B H 1.1618 0.4713 1.4466
C11B C 1.2892(4) 0.3384(5) 1.3004(3)
H11B H 1.3566 0.3110 1.2775
Cd1A Cd 0.5000 0.5000 0.5000
Cd1A_2 Cd 1.5000 0.5000 1.5000
Cd1_2 Cd 1.5000 1.0000 1.0000
Cl1B Cl 0.42093(12) 0.03614(13) 1.16499(9)
N1B N 1.3359(3) 0.5489(4) 1.0027(3)
N2B N 1.4190(3) 0.7613(4) 0.9762(3)
N2B_2 N 0.4190(3) -0.2387(4) 0.9762(3)
N3B N 1.1654(3) 0.3139(4) 1.2474(3)
N4B N 1.3033(3) 0.4061(4) 1.3891(3)
N4A N 0.3033(3) 0.0939(4) 0.8891(3)
N4C N 0.6967(3) -0.0939(4) 1.1109(3)
O1 O 0.1558(8) 0.8804(11) 0.1284(9)
H12 H 0.2158 0.9412 0.1302
H13 H 0.0943 0.8917 0.0718
loop_
_geom_bond_atom_site_label_1
_geom_bond_atom_site_label_2
_geom_bond_site_symmetry_1
_geom_bond_site_symmetry_2
C1 C2 1_555 1_555
C2 C8 1_555 1_555
C3 C1 1_555 1_555
H1 C3 1_555 1_555
C4 C1 1_555 1_555
H2 C4 1_555 1_555
H3 C4 1_555 1_555
C5 H4 1_555 1_555
C6 H5 1_555 1_555
C7 C6 1_555 1_555
H6 C7 1_555 1_555
C8 H7 1_555 1_555
H8 C8 1_555 1_555
C9 H9 1_555 1_555
C10 C9 1_555 1_555
H10 C10 1_555 1_555
C11 H11 1_555 1_555
Cd1 Cl1 1_555 1_555
N1 C4 1_555 1_555
N2 C5 1_555 1_555
N3 C8 1_555 1_555
N4 C10 1_555 1_555
O1 H12 1_555 1_555
H13 O1 1_555 1_555
C1B C2B 1_555 1_555
C2B C3 1_555 1_555
C3B C2 1_555 1_555
H1B C3B 1_555 1_555
C4B C1B 1_555 1_555
H2B C4B 1_555 1_555
H3B C4B 1_555 1_555
C5B H4B 1_555 1_555
C6B H5B 1_555 1_555
C7B C6B 1_555 1_555
H6B C7B 1_555 1_555
C8B C2B 1_555 1_555
H7B C8B 1_555 1_555
H8B C8B 1_555 1_555
C9B H9B 1_555 1_555
C10B C9B 1_555 1_555
H10B C10B 1_555 1_555
C11B H11B 1_555 1_555
Cd1A N4 1_555 1_555
Cd1A_2 N4B 1_555 1_555
Cd1_2 N2B 1_555 1_555
Cl1B Cd1 1_555 1_555
N1B C4B 1_555 1_555
N2B C5B 1_555 1_555
N2B_2 Cd1 1_555 1_555
N3B C8B 1_555 1_555
N4B C10B 1_555 1_555
N4A Cd1 1_555 1_555
N4C Cd1 1_555 1_555
C5 N1 1_555 1_555
C6 N2 1_555 1_555
C7 N1 1_555 1_555
C9 N3 1_555 1_555
C11 N3 1_555 1_555
C11 N4 1_555 1_555
Cd1 N2 1_555 1_555
C1B C3B 1_555 1_555
C5B N1B 1_555 1_555
C6B N2B 1_555 1_555
C7B N1B 1_555 1_555
C9B N3B 1_555 1_555
C11B N3B 1_555 1_555
C11B N4B 1_555 1_555

#END
