
#######################################################################
#
#                 Cambridge Crystallographic Data Centre
#                                CCDC 
#
#######################################################################
#
# If this CIF has been generated from an entry in the Cambridge 
# Structural Database, then it will include bibliographic, chemical, 
# crystal, experimental, refinement or atomic coordinate data resulting 
# from the CCDC's data processing and validation procedures.
#
#######################################################################

data_HORJIJ
_symmetry_cell_setting           triclinic
_symmetry_space_group_name_H-M   'P -1'
_symmetry_Int_Tables_number      2
_space_group_name_Hall           '-P 1'
loop_
_symmetry_equiv_pos_site_id
_symmetry_equiv_pos_as_xyz
1 x,y,z
2 -x,-y,-z
_cell_length_a                   7.1460(13)
_cell_length_b                   8.3668(16)
_cell_length_c                   11.438(2)
_cell_angle_alpha                108.112(6)
_cell_angle_beta                 98.174(6)
_cell_angle_gamma                101.691(6)
_cell_volume                     620.841
loop_
_atom_site_label
_atom_site_type_symbol
_atom_site_fract_x
_atom_site_fract_y
_atom_site_fract_z
Fe1 Fe 0.18679(4) 0.16719(4) 0.32892(3)
Cl1 Cl 0.49724(7) 0.34054(7) 0.31521(5)
Cl2 Cl -0.10746(7) -0.05021(7) 0.31146(5)
N1 N 0.1297(3) 0.3912(2) 0.45206(16)
H1 H 0.2472 0.4666 0.4969
N2 N 0.1008(3) 0.1128(2) 0.12930(16)
H2 H 0.1821 0.1960 0.1108
N3 N 0.3350(2) 0.0585(2) 0.45021(16)
H3 H 0.2434 0.0095 0.4855
C1 C 0.4030(3) -0.0849(3) 0.3708(2)
H4 H 0.4942 -0.0381 0.3270
H5 H 0.2917 -0.1686 0.3077
C2 C -0.1023(3) 0.1069(3) 0.0756(2)
H6 H -0.1251 0.2206 0.1119
H7 H -0.1926 0.0238 0.0979
C3 C 0.4979(3) 0.1782(3) 0.5550(2)
H8 H 0.4481 0.2641 0.6115
H9 H 0.5941 0.2396 0.5212
C4 C 0.0133(3) 0.3599(3) 0.5432(2)
H10 H 0.0843 0.3131 0.5977
H11 H -0.1092 0.2732 0.4976
C5 C 0.1424(3) -0.0553(3) 0.06659(19)
H12 H 0.0625 -0.1455 0.0884
H13 H 0.2787 -0.0473 0.0979
C6 C 0.0307(3) 0.4768(3) 0.3765(2)
H14 H -0.0909 0.3955 0.3234
H15 H 0.1131 0.5064 0.3218
N1A N -0.1297(3) 0.6088(2) 0.54794(16)
H1A H -0.2472 0.5334 0.5031
C4A C -0.0133(3) 0.6401(3) 0.4568(2)
H10A H -0.0843 0.6869 0.4023
H11A H 0.1092 0.7268 0.5024
C6A C -0.0307(3) 0.5232(3) 0.6235(2)
H14A H 0.0909 0.6045 0.6766
H15A H -0.1131 0.4936 0.6782
N2A N -0.1008(3) -0.1128(2) -0.12930(16)
H2A H -0.1821 -0.1960 -0.1108
C2A C 0.1023(3) -0.1069(3) -0.0756(2)
H6A H 0.1251 -0.2206 -0.1119
H7A H 0.1926 -0.0238 -0.0979
C5A C -0.1424(3) 0.0553(3) -0.06659(19)
H12A H -0.0625 0.1455 -0.0884
H13A H -0.2787 0.0473 -0.0979
N3A N 0.6650(2) -0.0585(2) 0.54979(16)
H3A H 0.7566 -0.0095 0.5145
C1A C 0.5970(3) 0.0849(3) 0.6292(2)
H4A H 0.5058 0.0381 0.6730
H5A H 0.7083 0.1686 0.6923
C3A C 0.5021(3) -0.1782(3) 0.4450(2)
H8A H 0.5519 -0.2641 0.3885
H9A H 0.4059 -0.2396 0.4788
Fe1A Fe -0.18679(4) -0.16719(4) -0.32892(3)
Cl1A Cl -0.49724(7) -0.34054(7) -0.31521(5)
Cl2A Cl 0.10746(7) 0.05021(7) -0.31146(5)
Fe1A_2 Fe -0.18679(4) 0.83281(4) 0.67108(3)
Fe1A_3 Fe 0.81321(4) -0.16719(4) 0.67108(3)
N1A_2 N -0.1297(3) -0.3912(2) -0.45206(16)
N3A_2 N -0.3350(2) -0.0585(2) -0.45021(16)
N4 N 0.3556(3) 0.4024(3) 0.0481(2)
C7 C 0.5085(3) 0.3299(3) -0.0050(2)
H16 H 0.4536 0.2554 -0.0922
H17 H 0.5490 0.2581 0.0407
C8 C 0.3135(4) 0.5331(4) -0.0004(3)
H18 H 0.2285 0.5903 0.0469
H19 H 0.2420 0.4762 -0.0875
N4A N 0.6444(3) 0.5976(3) -0.0481(2)
C7A C 0.4915(3) 0.6701(3) 0.0050(2)
H16A H 0.5464 0.7446 0.0922
H17A H 0.4510 0.7419 -0.0407
C8A C 0.6865(4) 0.4669(4) 0.0004(3)
H18A H 0.7715 0.4097 -0.0469
H19A H 0.7580 0.5238 0.0875
loop_
_geom_bond_atom_site_label_1
_geom_bond_atom_site_label_2
_geom_bond_site_symmetry_1
_geom_bond_site_symmetry_2
Fe1 Cl1 1_555 1_555
Cl2 Fe1 1_555 1_555
N1 Fe1 1_555 1_555
H1 N1 1_555 1_555
N2 Fe1 1_555 1_555
H2 N2 1_555 1_555
N3 Fe1 1_555 1_555
H3 N3 1_555 1_555
C1 N3 1_555 1_555
H4 C1 1_555 1_555
H5 C1 1_555 1_555
C2 N2 1_555 1_555
H6 C2 1_555 1_555
H7 C2 1_555 1_555
C3 N3 1_555 1_555
H8 C3 1_555 1_555
H9 C3 1_555 1_555
C4 N1 1_555 1_555
H10 C4 1_555 1_555
H11 C4 1_555 1_555
C5 N2 1_555 1_555
H12 C5 1_555 1_555
H13 C5 1_555 1_555
C6 N1 1_555 1_555
H14 C6 1_555 1_555
H15 C6 1_555 1_555
N4 C7 1_555 1_555
C7 H16 1_555 1_555
H17 C7 1_555 1_555
C8 N4 1_555 1_555
H18 C8 1_555 1_555
H19 C8 1_555 1_555
N1A H1A 1_555 1_555
C4A C6 1_555 1_555
H10A C4A 1_555 1_555
H11A C4A 1_555 1_555
C6A C4 1_555 1_555
H14A C6A 1_555 1_555
H15A C6A 1_555 1_555
N2A H2A 1_555 1_555
C2A C5 1_555 1_555
H6A C2A 1_555 1_555
H7A C2A 1_555 1_555
C5A C2 1_555 1_555
H12A C5A 1_555 1_555
H13A C5A 1_555 1_555
N3A H3A 1_555 1_555
C1A C3 1_555 1_555
H4A C1A 1_555 1_555
H5A C1A 1_555 1_555
C3A C1 1_555 1_555
H8A C3A 1_555 1_555
H9A C3A 1_555 1_555
Fe1A N2A 1_555 1_555
Cl1A Fe1A 1_555 1_555
Cl2A Fe1A 1_555 1_555
Fe1A_2 N1A 1_555 1_555
Fe1A_3 N3A 1_555 1_555
N1A_2 Fe1A 1_555 1_555
N3A_2 Fe1A 1_555 1_555
N4A C7A 1_555 1_555
C7A C8 1_555 1_555
H16A C7A 1_555 1_555
H17A C7A 1_555 1_555
C8A C7 1_555 1_555
H18A C8A 1_555 1_555
H19A C8A 1_555 1_555
N1A C4A 1_555 1_555
N1A C6A 1_555 1_555
N2A C2A 1_555 1_555
N2A C5A 1_555 1_555
N3A C1A 1_555 1_555
N3A C3A 1_555 1_555
N4A C8A 1_555 1_555

#END
