
#######################################################################
#
#                 Cambridge Crystallographic Data Centre
#                                CCDC 
#
#######################################################################
#
# If this CIF has been generated from an entry in the Cambridge 
# Structural Database, then it will include bibliographic, chemical, 
# crystal, experimental, refinement or atomic coordinate data resulting 
# from the CCDC's data processing and validation procedures.
#
#######################################################################

data_HORROW
_symmetry_cell_setting           monoclinic
_symmetry_space_group_name_H-M   'P 21/n'
_symmetry_Int_Tables_number      14
_space_group_name_Hall           '-P 2yn'
loop_
_symmetry_equiv_pos_site_id
_symmetry_equiv_pos_as_xyz
1 x,y,z
2 1/2-x,1/2+y,1/2-z
3 -x,-y,-z
4 1/2+x,1/2-y,1/2+z
_cell_length_a                   6.39620(10)
_cell_length_b                   9.2177(2)
_cell_length_c                   14.2410(3)
_cell_angle_alpha                90
_cell_angle_beta                 93.8310(10)
_cell_angle_gamma                90
_cell_volume                     837.748
loop_
_atom_site_label
_atom_site_type_symbol
_atom_site_fract_x
_atom_site_fract_y
_atom_site_fract_z
Cu1 Cu 0.06656(4) 0.63014(3) 0.749677(17)
N1 N 0.0718(3) 0.6925(2) 0.61707(13)
N2 N 0.1594(4) 0.8182(3) 0.49832(16)
N3 N 0.2190(3) 0.7817(3) 0.58364(15)
C1 C -0.0733(4) 0.6800(3) 0.54640(16)
N4 N -0.0264(4) 0.7554(3) 0.47185(15)
N5 N -0.2524(4) 0.5989(3) 0.54856(16)
O1 O 0.0423(3) 0.5653(2) 0.88331(14)
O2 O 0.3742(3) 0.6731(3) 0.77267(16)
N6 N -0.4281(3) 0.3521(2) 0.70619(15)
N7 N -0.1796(3) 0.5097(2) 0.70498(13)
C2 C -0.2924(3) 0.5111(2) 0.62231(15)
N8 N -0.4485(3) 0.4163(2) 0.62019(14)
N9 N -0.2702(3) 0.4059(2) 0.75675(14)
H1 H -0.323(5) 0.602(3) 0.507(2)
H2 H 0.177(7) 0.600(4) 0.930(3)
H3 H -0.094(6) 0.609(4) 0.907(3)
H4 H 0.419(6) 0.722(4) 0.838(3)
H5 H 0.487(8) 0.597(6) 0.757(3)
Cu1A Cu -0.56656(4) 0.13014(3) 0.750323(17)
N6A N -0.0719(3) 0.8521(2) 0.79381(15)
loop_
_geom_bond_atom_site_label_1
_geom_bond_atom_site_label_2
_geom_bond_site_symmetry_1
_geom_bond_site_symmetry_2
Cu1 N1 1_555 1_555
N1 N3 1_555 1_555
N2 N3 1_555 1_555
C1 N1 1_555 1_555
N4 N2 1_555 1_555
N5 C1 1_555 1_555
O1 Cu1 1_555 1_555
O2 Cu1 1_555 1_555
N6 N8 1_555 1_555
N7 Cu1 1_555 1_555
C2 N5 1_555 1_555
N8 C2 1_555 1_555
N9 N6 1_555 1_555
H1 N5 1_555 1_555
H2 O1 1_555 1_555
H3 O1 1_555 1_555
H4 O2 1_555 1_555
H5 O2 1_555 1_555
Cu1A N6 1_555 1_555
N6A Cu1 1_555 1_555
C1 N4 1_555 1_555
N7 C2 1_555 1_555
N7 N9 1_555 1_555

#END
