
#######################################################################
#
#                 Cambridge Crystallographic Data Centre
#                                CCDC 
#
#######################################################################
#
# If this CIF has been generated from an entry in the Cambridge 
# Structural Database, then it will include bibliographic, chemical, 
# crystal, experimental, refinement or atomic coordinate data resulting 
# from the CCDC's data processing and validation procedures.
#
#######################################################################

data_HORRIQ
_symmetry_cell_setting           monoclinic
_symmetry_space_group_name_H-M   'P 21/c'
_symmetry_Int_Tables_number      14
_space_group_name_Hall           '-P 2ybc'
loop_
_symmetry_equiv_pos_site_id
_symmetry_equiv_pos_as_xyz
1 x,y,z
2 -x,1/2+y,1/2-z
3 -x,-y,-z
4 x,1/2-y,1/2+z
_cell_length_a                   9.4760(12)
_cell_length_b                   9.4375(11)
_cell_length_c                   8.2912(10)
_cell_angle_alpha                90
_cell_angle_beta                 109.035(7)
_cell_angle_gamma                90
_cell_volume                     700.935
loop_
_atom_site_label
_atom_site_type_symbol
_atom_site_fract_x
_atom_site_fract_y
_atom_site_fract_z
Co1 Co 0.0000 0.0000 0.5000
Na1 Na -0.38788(8) -0.19667(8) 0.44398(10)
N1 N -0.34476(16) 0.05692(16) 0.42326(19)
N2 N -0.21632(16) 0.09453(15) 0.39459(18)
N3 N 0.43696(17) -0.16282(18) 0.6135(2)
N4 N 0.37565(18) -0.27366(17) 0.6714(2)
C1 C 0.24183(19) -0.22671(18) 0.6646(2)
N5 N 0.16651(16) 0.12648(16) 0.26196(18)
N6 N 0.05481(16) 0.32528(15) 0.17113(18)
N7 N 0.17113(16) 0.24028(16) 0.17589(19)
C2 C -0.01766(18) 0.25648(17) 0.26027(19)
N8 N 0.04734(16) 0.13348(15) 0.31872(17)
N9 N -0.14308(18) 0.30875(16) 0.2872(2)
O1 O 0.3546(3) 0.4369(2) 0.4866(3)
H1 H -0.169(2) 0.390(3) 0.252(3)
H2 H 0.365(7) 0.485(5) 0.546(7)
H3 H 0.313(10) 0.463(8) 0.411(12)
Co1A Co 0.0000 0.5000 0.0000
Co1A_2 Co 0.0000 -0.5000 1.0000
Na1B Na 0.38788(8) 0.19667(8) 0.55602(10)
Na1_2 Na 0.61212(8) -0.19667(8) 0.44398(10)
Na1A Na 0.38788(8) 0.30333(8) 0.05602(10)
Na1B_2 Na -0.61212(8) 0.19667(8) 0.55602(10)
Na1C Na -0.38788(8) -0.30333(8) 0.94398(10)
Na1C_2 Na 0.61212(8) -0.30333(8) 0.94398(10)
Na1A_2 Na -0.61212(8) 0.30333(8) 0.05602(10)
N1B N 0.34476(16) -0.05692(16) 0.57674(19)
N2B N 0.21632(16) -0.09453(15) 0.60541(18)
N3B N 0.56304(17) 0.16282(18) 0.3865(2)
N3B_2 N -0.43696(17) 0.16282(18) 0.3865(2)
N3_2 N -0.56304(17) -0.16282(18) 0.6135(2)
N4C N -0.62435(18) -0.22634(17) 0.1714(2)
N4A N 0.62435(18) 0.22634(17) 0.8286(2)
N4B N -0.37565(18) 0.27366(17) 0.3286(2)
C1B C -0.24183(19) 0.22671(18) 0.3354(2)
N5B N -0.16651(16) -0.12648(16) 0.73804(18)
N6A N -0.05481(16) -0.17472(15) 0.32887(18)
N6C N 0.05481(16) 0.17472(15) 0.67113(18)
N6B N -0.05481(16) -0.32528(15) 0.82887(18)
N7A N -0.17113(16) -0.25972(16) 0.32411(19)
N7B N -0.17113(16) -0.24028(16) 0.82411(19)
N7C N 0.17113(16) 0.25972(16) 0.67589(19)
C2B C 0.01766(18) -0.25648(17) 0.73973(19)
N8B N -0.04734(16) -0.13348(15) 0.68128(17)
N9B N 0.14308(18) -0.30875(16) 0.7128(2)
O1B O -0.3546(3) -0.4369(2) 0.5134(3)
H1B H 0.169(2) -0.390(3) 0.748(3)
H2B H -0.365(7) -0.485(5) 0.454(7)
H3B H -0.313(10) -0.463(8) 0.589(12)
loop_
_geom_bond_atom_site_label_1
_geom_bond_atom_site_label_2
_geom_bond_site_symmetry_1
_geom_bond_site_symmetry_2
Co1 N2 1_555 1_555
Na1 N1 1_555 1_555
N1 N2 1_555 1_555
N2 C1B 1_555 1_555
N3 N4 1_555 1_555
N4 C1 1_555 1_555
C1 N2B 1_555 1_555
N5 N7 1_555 1_555
N6 N7 1_555 1_555
N7 Na1A 1_555 1_555
C2 N6 1_555 1_555
N8 Co1 1_555 1_555
N9 C2 1_555 1_555
O1 H2 1_555 1_555
H1 N9 1_555 1_555
H3 O1 1_555 1_555
Co1A N6 1_555 1_555
Co1A_2 N6B 1_555 1_555
Na1B N5 1_555 1_555
Na1_2 N3 1_555 1_555
Na1B_2 N3B_2 1_555 1_555
Na1C N7B 1_555 1_555
Na1C_2 N4 1_555 1_555
Na1A_2 N4B 1_555 1_555
N1B N3 1_555 1_555
N2B Co1 1_555 1_555
N3B Na1B 1_555 1_555
N3B_2 N1 1_555 1_555
N3_2 Na1 1_555 1_555
N4C Na1 1_555 1_555
N4A Na1B 1_555 1_555
N4B N3B_2 1_555 1_555
C1B N9 1_555 1_555
N5B Na1 1_555 1_555
N6A Co1 1_555 1_555
N6C Co1 1_555 1_555
N6B N7B 1_555 1_555
N7A Na1 1_555 1_555
N7B N5B 1_555 1_555
N7C Na1B 1_555 1_555
C2B N6B 1_555 1_555
N8B Co1 1_555 1_555
N9B C1 1_555 1_555
O1B Na1 1_555 1_555
H1B N9B 1_555 1_555
H2B O1B 1_555 1_555
H3B O1B 1_555 1_555
N5 N8 1_555 1_555
C2 N8 1_555 1_555
O1 Na1B 1_555 1_555
Na1B N1B 1_555 1_555
N1B N2B 1_555 1_555
N4B C1B 1_555 1_555
N5B N8B 1_555 1_555
N6A N7A 1_555 1_555
N6C N7C 1_555 1_555
C2B N8B 1_555 1_555
C2B N9B 1_555 1_555

#END
