
#######################################################################
#
#                 Cambridge Crystallographic Data Centre
#                                CCDC 
#
#######################################################################
#
# If this CIF has been generated from an entry in the Cambridge 
# Structural Database, then it will include bibliographic, chemical, 
# crystal, experimental, refinement or atomic coordinate data resulting 
# from the CCDC's data processing and validation procedures.
#
#######################################################################

data_HORSOX
_symmetry_cell_setting           triclinic
_symmetry_space_group_name_H-M   'P -1'
_symmetry_Int_Tables_number      2
_space_group_name_Hall           '-P 1'
loop_
_symmetry_equiv_pos_site_id
_symmetry_equiv_pos_as_xyz
1 x,y,z
2 -x,-y,-z
_cell_length_a                   7.1365(2)
_cell_length_b                   8.1576(2)
_cell_length_c                   11.0316(3)
_cell_angle_alpha                71.3400(12)
_cell_angle_beta                 75.4362(9)
_cell_angle_gamma                78.5850(11)
_cell_volume                     584.062
loop_
_atom_site_label
_atom_site_type_symbol
_atom_site_fract_x
_atom_site_fract_y
_atom_site_fract_z
Co1 Co 0.5000 0.0000 0.0000
Na1 Na -0.06227(13) -0.07920(11) -0.19749(9)
O1 O 0.5071(2) 0.20667(19) -0.17317(15)
C1 C 0.4837(3) 0.3715(3) -0.1902(2)
O2 O 0.4386(2) 0.4457(2) -0.10189(15)
C2 C 0.5346(3) 0.4779(3) -0.3309(2)
C3 C 0.6832(3) 0.5783(3) -0.3601(2)
H1 H 0.7282 0.5949 -0.2914
C4 C 0.7686(3) 0.6561(3) -0.4905(2)
H2 H 0.8697 0.7261 -0.5091
C5 C 0.4556(3) 0.4607(3) -0.4335(2)
C6 C 0.7075(3) 0.6320(3) -0.5919(2)
C7 C 0.8352(3) 0.6910(3) -0.7258(2)
O3 O 0.8744(2) 0.84670(19) -0.76490(15)
O4 O 0.8993(2) 0.5795(2) -0.78724(15)
O5 O 0.6191(2) -0.18073(19) -0.11093(15)
H3 H 0.5570 -0.1627 -0.1758
H4 H 0.6001 -0.2842 -0.0537
O6 O 0.7845(2) 0.01916(19) -0.00029(15)
H5 H 0.8237 -0.0512 0.0723
H6 H 0.8107 0.1244 -0.0055
O7 O 0.1145(2) -0.3002(2) -0.03612(16)
H7 H 0.2130 -0.3765 -0.0599
H8 H 0.0489 -0.3528 0.0421
O8 O 0.1270(2) -0.2318(2) -0.34055(16)
H9 H 0.1383 -0.2059 -0.4267
H10 H 0.1263 -0.3459 -0.3039
O9 O -0.2277(2) 0.0918(2) -0.38127(16)
H11 H -0.3117 0.1631 -0.3393
H12 H -0.3081 0.0204 -0.3805
Co1_2 Co 0.5000 1.0000 -1.0000
Co1_3 Co -0.5000 0.0000 0.0000
Na1A Na 1.06227(13) 1.07920(11) -0.80251(9)
Na1_2 Na 0.93773(13) -0.07920(11) -0.19749(9)
O1A O 0.4929(2) 0.79333(19) -0.82683(15)
O1A_2 O 0.4929(2) -0.20667(19) 0.17317(15)
C1A C 0.5163(3) 0.6285(3) -0.8098(2)
O2A O 0.5614(2) 0.5543(2) -0.89811(15)
C2A C 0.4654(3) 0.5221(3) -0.6691(2)
C3A C 0.3168(3) 0.4217(3) -0.6399(2)
H1A H 0.2718 0.4051 -0.7086
C4A C 0.2314(3) 0.3439(3) -0.5095(2)
H2A H 0.1303 0.2739 -0.4909
C5A C 0.5444(3) 0.5393(3) -0.5665(2)
C6A C 0.2925(3) 0.3680(3) -0.4081(2)
C7A C 0.1648(3) 0.3090(3) -0.2742(2)
O3A O 0.1256(2) 0.15330(19) -0.23510(15)
O3A_2 O 1.1256(2) 0.15330(19) -0.23510(15)
O4A O 0.1007(2) 0.4205(2) -0.21276(15)
O5A O 0.3809(2) 0.18073(19) 0.11093(15)
O5_2 O -0.3809(2) -0.18073(19) -0.11093(15)
H3A H 0.4430 0.1627 0.1758
H3_2 H -0.4430 -0.1627 -0.1758
H4A H 0.3999 0.2842 0.0537
H4_2 H -0.3999 -0.2842 -0.0537
O6A O 0.2155(2) -0.01916(19) 0.00029(15)
O6_2 O -0.2155(2) 0.01916(19) -0.00029(15)
H5A H 0.1763 0.0512 -0.0723
H5_2 H -0.1763 -0.0512 0.0723
H6A H 0.1893 -0.1244 0.0055
H6_2 H -0.1893 0.1244 -0.0055
O7_2 O 1.1145(2) -0.3002(2) -0.03612(16)
H7_2 H 1.2130 -0.3765 -0.0599
H8_2 H 1.0489 -0.3528 0.0421
O8_2 O 1.1270(2) -0.2318(2) -0.34055(16)
H9_2 H 1.1383 -0.2059 -0.4267
H10_2 H 1.1263 -0.3459 -0.3039
O9_2 O 0.7723(2) 0.0918(2) -0.38127(16)
H11_2 H 0.6883 0.1631 -0.3393
H12_2 H 0.6919 0.0204 -0.3805
O10 O 0.5653(2) 0.0818(2) -0.68638(16)
H13 H 0.6565 -0.0022 -0.7073
H14 H 0.6210 0.1547 -0.6707
loop_
_geom_bond_atom_site_label_1
_geom_bond_atom_site_label_2
_geom_bond_site_symmetry_1
_geom_bond_site_symmetry_2
Co1 O1 1_555 1_555
Na1 O7 1_555 1_555
O1 C1 1_555 1_555
C1 O2 1_555 1_555
C2 C1 1_555 1_555
C3 C2 1_555 1_555
H1 C3 1_555 1_555
C4 C3 1_555 1_555
H2 C4 1_555 1_555
C5 C2 1_555 1_555
C6 C4 1_555 1_555
C7 C6 1_555 1_555
O3 C7 1_555 1_555
O4 C7 1_555 1_555
O5 Co1 1_555 1_555
H3 O5 1_555 1_555
H4 O5 1_555 1_555
O6 Co1 1_555 1_555
H5 O6 1_555 1_555
H6 O6 1_555 1_555
O7 H7 1_555 1_555
H8 O7 1_555 1_555
O8 Na1 1_555 1_555
H9 O8 1_555 1_555
H10 O8 1_555 1_555
O9 Na1 1_555 1_555
H11 O9 1_555 1_555
H12 O9 1_555 1_555
O10 H13 1_555 1_555
H14 O10 1_555 1_555
Co1_2 O1A 1_555 1_555
Co1_3 O5_2 1_555 1_555
Na1A O3 1_555 1_555
Na1_2 O5 1_555 1_555
O1A C1A 1_555 1_555
O1A_2 Co1 1_555 1_555
C1A O2A 1_555 1_555
C2A C1A 1_555 1_555
C3A C2A 1_555 1_555
H1A C3A 1_555 1_555
C4A C3A 1_555 1_555
H2A C4A 1_555 1_555
C5A C5 1_555 1_555
C6A C5 1_555 1_555
C7A C6A 1_555 1_555
O3A Na1 1_555 1_555
O3A_2 Na1_2 1_555 1_555
O4A C7A 1_555 1_555
O5A Co1 1_555 1_555
O5_2 Na1 1_555 1_555
H3A O5A 1_555 1_555
H3_2 O5_2 1_555 1_555
H4A O5A 1_555 1_555
H4_2 O5_2 1_555 1_555
O6A Co1 1_555 1_555
O6_2 Na1 1_555 1_555
H5A O6A 1_555 1_555
H5_2 O6_2 1_555 1_555
H6A O6A 1_555 1_555
H6_2 O6_2 1_555 1_555
O7_2 Na1_2 1_555 1_555
H7_2 O7_2 1_555 1_555
H8_2 O7_2 1_555 1_555
O8_2 Na1_2 1_555 1_555
H9_2 O8_2 1_555 1_555
H10_2 O8_2 1_555 1_555
O9_2 Na1_2 1_555 1_555
H11_2 O9_2 1_555 1_555
H12_2 O9_2 1_555 1_555
C6 C5A 1_555 1_555
O6 Na1_2 1_555 1_555
Co1_3 O6_2 1_555 1_555
C2A C5A 1_555 1_555
C4A C6A 1_555 1_555
C7A O3A 1_555 1_555

#END
