
#######################################################################
#
#                 Cambridge Crystallographic Data Centre
#                                CCDC 
#
#######################################################################
#
# If this CIF has been generated from an entry in the Cambridge 
# Structural Database, then it will include bibliographic, chemical, 
# crystal, experimental, refinement or atomic coordinate data resulting 
# from the CCDC's data processing and validation procedures.
#
#######################################################################

data_HORSAJ
_symmetry_cell_setting           monoclinic
_symmetry_space_group_name_H-M   'P 21/c'
_symmetry_Int_Tables_number      14
_space_group_name_Hall           '-P 2ybc'
loop_
_symmetry_equiv_pos_site_id
_symmetry_equiv_pos_as_xyz
1 x,y,z
2 -x,1/2+y,1/2-z
3 -x,-y,-z
4 x,1/2-y,1/2+z
_cell_length_a                   9.4412(2)
_cell_length_b                   9.6151(2)
_cell_length_c                   8.6398(2)
_cell_angle_alpha                90
_cell_angle_beta                 108.874(2)
_cell_angle_gamma                90
_cell_volume                     742.134
loop_
_atom_site_label
_atom_site_type_symbol
_atom_site_fract_x
_atom_site_fract_y
_atom_site_fract_z
Mn1 Mn 0.0000 0.5000 0.0000
Na1 Na 0.38706(10) 0.30763(10) 0.05534(12)
N1 N 0.35178(19) 0.5638(2) 0.0810(2)
N2 N 0.22542(18) 0.59707(18) 0.1165(2)
N3 N 0.4417(2) 0.6692(2) 0.1144(3)
N4 N 0.3810(2) 0.7754(2) 0.1753(3)
C1 C 0.2495(2) 0.7257(2) 0.1741(3)
N5 N -0.1699(2) 0.6305(2) 0.2340(2)
N6 N -0.05238(19) 0.82137(19) 0.3291(2)
N7 N -0.17315(19) 0.7413(2) 0.3189(2)
C2 C 0.0210(2) 0.7532(2) 0.2452(3)
N8 N -0.04705(19) 0.63542(19) 0.1840(2)
N9 N 0.1505(2) 0.8033(2) 0.2253(3)
O1 O 0.3575(3) 0.0680(3) -0.0034(4)
H1 H 0.179(3) 0.882(3) 0.261(3)
H2 H 0.353(6) 0.028(6) 0.063(7)
H3 H 0.358(16) 0.036(15) -0.06(2)
Mn1A Mn 0.0000 1.0000 0.5000
Mn1A_2 Mn 0.0000 0.0000 -0.5000
Na1B Na -0.38706(10) 0.69237(10) -0.05534(12)
Na1B_2 Na 0.61294(10) 0.69237(10) -0.05534(12)
Na1A Na 0.61294(10) 0.80763(10) 0.44466(12)
Na1A_2 Na -0.38706(10) 0.80763(10) 0.44466(12)
Na1_2 Na -0.61294(10) 0.30763(10) 0.05534(12)
Na1C Na -0.61294(10) 0.19237(10) -0.44466(12)
Na1C_2 Na 0.38706(10) 0.19237(10) -0.44466(12)
N1B N -0.35178(19) 0.4362(2) -0.0810(2)
N2B N -0.22542(18) 0.40293(18) -0.1165(2)
N3B N -0.4417(2) 0.3308(2) -0.1144(3)
N3B_2 N 0.5583(2) 0.3308(2) -0.1144(3)
N3_2 N -0.5583(2) 0.6692(2) 0.1144(3)
N4B N -0.3810(2) 0.2246(2) -0.1753(3)
N4A N 0.6190(2) 0.2754(2) 0.3247(3)
N4C N -0.6190(2) 0.7246(2) -0.3247(3)
C1B C -0.2495(2) 0.2743(2) -0.1741(3)
N5B N 0.1699(2) 0.3695(2) -0.2340(2)
N6B N 0.05238(19) 0.17863(19) -0.3291(2)
N6A N 0.05238(19) 0.32137(19) 0.1709(2)
N6C N -0.05238(19) 0.67863(19) -0.1709(2)
N7B N 0.17315(19) 0.2587(2) -0.3189(2)
N7A N 0.17315(19) 0.2413(2) 0.1811(2)
N7C N -0.17315(19) 0.7587(2) -0.1811(2)
C2B C -0.0210(2) 0.2468(2) -0.2452(3)
N8B N 0.04705(19) 0.36458(19) -0.1840(2)
N9B N -0.1505(2) 0.1967(2) -0.2253(3)
O1B O -0.3575(3) 0.9320(3) 0.0034(4)
H1B H -0.179(3) 0.118(3) -0.261(3)
H2B H -0.353(6) 0.972(6) -0.063(7)
H3B H -0.358(16) 0.964(15) 0.06(2)
loop_
_geom_bond_atom_site_label_1
_geom_bond_atom_site_label_2
_geom_bond_site_symmetry_1
_geom_bond_site_symmetry_2
Mn1 N2 1_555 1_555
Na1 N1 1_555 1_555
N1 N2 1_555 1_555
N2 C1 1_555 1_555
N3 N1 1_555 1_555
N4 N3 1_555 1_555
C1 N4 1_555 1_555
N5 N7 1_555 1_555
N6 N7 1_555 1_555
N7 Na1A_2 1_555 1_555
C2 N6 1_555 1_555
N8 Mn1 1_555 1_555
N9 C1 1_555 1_555
O1 Na1 1_555 1_555
H1 N9 1_555 1_555
H2 O1 1_555 1_555
H3 O1 1_555 1_555
Mn1A N6 1_555 1_555
Mn1A_2 N6B 1_555 1_555
Na1B N5 1_555 1_555
Na1B_2 N3 1_555 1_555
Na1A N4 1_555 1_555
Na1_2 N3B 1_555 1_555
Na1C N4B 1_555 1_555
Na1C_2 N7B 1_555 1_555
N1B Na1B 1_555 1_555
N2B Mn1 1_555 1_555
N3B N1B 1_555 1_555
N3B_2 Na1 1_555 1_555
N3_2 Na1B 1_555 1_555
N4B N3B 1_555 1_555
N4A Na1 1_555 1_555
N4C Na1B 1_555 1_555
C1B N2B 1_555 1_555
N5B Na1 1_555 1_555
N6B N7B 1_555 1_555
N6A Mn1 1_555 1_555
N6C Mn1 1_555 1_555
N7B N5B 1_555 1_555
N7A Na1 1_555 1_555
N7C Na1B 1_555 1_555
C2B N6B 1_555 1_555
N8B Mn1 1_555 1_555
N9B C1B 1_555 1_555
O1B Na1B 1_555 1_555
H1B N9B 1_555 1_555
H2B O1B 1_555 1_555
H3B O1B 1_555 1_555
N5 N8 1_555 1_555
C2 N8 1_555 1_555
C2 N9 1_555 1_555
N1B N2B 1_555 1_555
N4B C1B 1_555 1_555
N5B N8B 1_555 1_555
N6A N7A 1_555 1_555
N6C N7C 1_555 1_555
C2B N8B 1_555 1_555
C2B N9B 1_555 1_555

#END
