
#######################################################################
#
#                 Cambridge Crystallographic Data Centre
#                                CCDC 
#
#######################################################################
#
# If this CIF has been generated from an entry in the Cambridge 
# Structural Database, then it will include bibliographic, chemical, 
# crystal, experimental, refinement or atomic coordinate data resulting 
# from the CCDC's data processing and validation procedures.
#
#######################################################################

data_HORTAK
_symmetry_cell_setting           triclinic
_symmetry_space_group_name_H-M   'P -1'
_symmetry_Int_Tables_number      2
_space_group_name_Hall           '-P 1'
loop_
_symmetry_equiv_pos_site_id
_symmetry_equiv_pos_as_xyz
1 x,y,z
2 -x,-y,-z
_cell_length_a                   7.3367(2)
_cell_length_b                   8.0935(2)
_cell_length_c                   10.9671(4)
_cell_angle_alpha                68.7292(10)
_cell_angle_beta                 75.1539(10)
_cell_angle_gamma                70.660(2)
_cell_volume                     565.714
loop_
_atom_site_label
_atom_site_type_symbol
_atom_site_fract_x
_atom_site_fract_y
_atom_site_fract_z
Cu1 Cu 0.45318(6) 0.23368(6) 0.42749(4)
O1 O 0.4525(3) 0.0561(3) 0.6111(2)
C1 C 0.4404(5) 0.1332(5) 0.6967(3)
O2 O 0.4244(4) 0.3012(3) 0.6685(3)
C2 C 0.4271(5) 0.0211(5) 0.8408(3)
C3 C 0.2854(5) -0.0736(5) 0.8888(3)
H1 H 0.2269 -0.0925 0.8288
C4 C 0.2270(5) -0.1424(5) 1.0257(3)
H2 H 0.1314 -0.2099 1.0572
C5 C 0.3053(5) -0.1140(4) 1.1149(3)
C6 C 0.5309(5) 0.0344(4) 0.9300(3)
C7 C 0.1902(5) -0.1436(5) 1.2553(3)
O3 O 0.1517(4) -0.0128(4) 1.3041(3)
O4 O 0.1303(4) -0.2842(4) 1.3087(3)
O5 O 0.4458(5) 0.4046(4) 0.2428(3)
H3 H 0.5594 0.4420 0.1914
H4 H 0.3636 0.5247 0.2397
O6 O 0.7246(5) 0.2419(5) 0.4242(3)
H5 H 0.7734 0.1725 0.5055
H6 H 0.8155 0.2235 0.3480
O7 O 0.1644(4) 0.2720(5) 0.4457(3)
H7 H 0.0955 0.2386 0.5334
H8 H 0.1136 0.3879 0.3850
Cu1A Cu 0.54682(6) -0.23368(6) 1.57251(4)
Cu1A_2 Cu 0.54682(6) -0.23368(6) 0.57251(4)
Cu1_2 Cu 0.45318(6) 0.23368(6) 1.42749(4)
O1A O 0.5475(3) -0.0561(3) 1.3889(2)
O1A_2 O 0.5475(3) -0.0561(3) 0.3889(2)
O1_2 O 0.4525(3) 0.0561(3) 1.6111(2)
C1A C 0.5596(5) -0.1332(5) 1.3033(3)
O2A O 0.5756(4) -0.3012(3) 1.3315(3)
C2A C 0.5729(5) -0.0211(5) 1.1592(3)
C3A C 0.7146(5) 0.0736(5) 1.1112(3)
H1A H 0.7731 0.0925 1.1712
C4A C 0.7730(5) 0.1424(5) 0.9743(3)
H2A H 0.8686 0.2099 0.9428
C5A C 0.6947(5) 0.1140(4) 0.8851(3)
C6A C 0.4691(5) -0.0344(4) 1.0700(3)
C7A C 0.8098(5) 0.1436(5) 0.7447(3)
O3A O 0.8483(4) 0.0128(4) 0.6959(3)
O4A O 0.8697(4) 0.2842(4) 0.6913(3)
O5A O 0.5542(5) -0.4046(4) 1.7572(3)
H3A H 0.4406 -0.4420 1.8086
H4A H 0.6364 -0.5247 1.7603
O6A O 0.2754(5) -0.2419(5) 1.5758(3)
H5A H 0.2266 -0.1725 1.4945
H6A H 0.1845 -0.2235 1.6520
O7A O 0.8356(4) -0.2720(5) 1.5543(3)
H7A H 0.9045 -0.2386 1.4666
H8A H 0.8864 -0.3879 1.6150
O8 O 0.1676(4) 0.3260(4) 0.1330(3)
H9 H 0.0571 0.4224 0.1484
H10 H 0.1658 0.2038 0.1850
O9 O -0.1988(4) 0.5472(4) 0.1345(3)
H11 H -0.2736 0.6123 0.1953
H12 H -0.1890 0.6151 0.0431
loop_
_geom_bond_atom_site_label_1
_geom_bond_atom_site_label_2
_geom_bond_site_symmetry_1
_geom_bond_site_symmetry_2
Cu1 O1 1_555 1_555
O1 C1 1_555 1_555
C1 O2 1_555 1_555
C2 C1 1_555 1_555
C3 C2 1_555 1_555
H1 C3 1_555 1_555
C4 C3 1_555 1_555
H2 C4 1_555 1_555
C5 C4 1_555 1_555
C6 C2 1_555 1_555
C7 C5 1_555 1_555
O3 C7 1_555 1_555
O4 C7 1_555 1_555
O5 Cu1 1_555 1_555
H3 O5 1_555 1_555
H4 O5 1_555 1_555
O6 Cu1 1_555 1_555
H5 O6 1_555 1_555
H6 O6 1_555 1_555
O7 Cu1 1_555 1_555
H7 O7 1_555 1_555
H8 O7 1_555 1_555
O8 H9 1_555 1_555
H10 O8 1_555 1_555
O9 H11 1_555 1_555
H12 O9 1_555 1_555
Cu1A O1A 1_555 1_555
Cu1A_2 O1 1_555 1_555
Cu1_2 O1A 1_555 1_555
O1A C1A 1_555 1_555
O1A_2 Cu1 1_555 1_555
O1_2 Cu1A 1_555 1_555
C1A O2A 1_555 1_555
C2A C1A 1_555 1_555
C3A C2A 1_555 1_555
H1A C3A 1_555 1_555
C4A C3A 1_555 1_555
H2A C4A 1_555 1_555
C5A C6 1_555 1_555
C6A C5 1_555 1_555
C7A C5A 1_555 1_555
O3A C7A 1_555 1_555
O4A C7A 1_555 1_555
O5A Cu1A 1_555 1_555
H3A O5A 1_555 1_555
H4A O5A 1_555 1_555
O6A Cu1A 1_555 1_555
H5A O6A 1_555 1_555
H6A O6A 1_555 1_555
O7A Cu1A 1_555 1_555
H7A O7A 1_555 1_555
H8A O7A 1_555 1_555
C6 C6A 1_555 1_555
Cu1A_2 O1A_2 1_555 1_555
Cu1_2 O1_2 1_555 1_555
C2A C6A 1_555 1_555
C4A C5A 1_555 1_555

#END
