
#######################################################################
#
#                 Cambridge Crystallographic Data Centre
#                                CCDC 
#
#######################################################################
#
# If this CIF has been generated from an entry in the Cambridge 
# Structural Database, then it will include bibliographic, chemical, 
# crystal, experimental, refinement or atomic coordinate data resulting 
# from the CCDC's data processing and validation procedures.
#
#######################################################################

data_HORTOY
_symmetry_cell_setting           triclinic
_symmetry_space_group_name_H-M   'P -1'
_symmetry_Int_Tables_number      2
_space_group_name_Hall           '-P 1'
loop_
_symmetry_equiv_pos_site_id
_symmetry_equiv_pos_as_xyz
1 x,y,z
2 -x,-y,-z
_cell_length_a                   7.3697(2)
_cell_length_b                   8.6305(2)
_cell_length_c                   9.7369(3)
_cell_angle_alpha                83.6472(9)
_cell_angle_beta                 76.7314(10)
_cell_angle_gamma                78.0218(17)
_cell_volume                     588.358
loop_
_atom_site_label
_atom_site_type_symbol
_atom_site_fract_x
_atom_site_fract_y
_atom_site_fract_z
Cu1 Cu 0.71071(5) 0.70692(4) 0.41837(4)
O1 O 0.7911(3) 0.4590(3) 0.3339(2)
C1 C 0.7379(4) 0.3914(4) 0.2466(3)
O2 O 0.7542(3) 0.2423(3) 0.2456(2)
C2 C 0.6659(4) 0.4899(3) 0.1245(3)
C3 C 0.5123(4) 0.4621(3) 0.0683(3)
C4 C 0.7781(4) 0.5950(4) 0.0541(3)
H1 H 0.8734 0.6180 0.0956
C5 C 0.7543(4) 0.6690(4) -0.0784(3)
H2 H 0.8331 0.7416 -0.1249
C6 C 0.3826(4) 0.3627(3) 0.1415(3)
C7 C 0.3661(4) 0.2993(4) 0.2934(3)
O3 O 0.3474(3) 0.4014(3) 0.3842(2)
O4 O 0.3541(3) 0.1568(3) 0.3261(2)
O5 O 0.9861(4) 0.6897(4) 0.4260(3)
H3 H 1.0143 0.7984 0.4040
H4 H 1.0052 0.6400 0.5216
O6 O 0.4358(4) 0.7286(3) 0.4148(3)
H5 H 0.4068 0.6147 0.4170
H6 H 0.4095 0.7847 0.3205
O7 O 0.7403(4) 0.8757(4) 0.2576(3)
H7 H 0.8758 0.8573 0.1999
H8 H 0.6584 0.8662 0.1882
Cu1A Cu 0.28929(5) 0.29308(4) -0.41837(4)
Cu1A_2 Cu 0.28929(5) 0.29308(4) 0.58163(4)
Cu1_2 Cu 0.71071(5) 0.70692(4) -0.58163(4)
O1A O 0.2089(3) 0.5410(3) -0.3339(2)
C1A C 0.2621(4) 0.6086(4) -0.2466(3)
O2A O 0.2458(3) 0.7577(3) -0.2456(2)
C2A C 0.3341(4) 0.5101(3) -0.1245(3)
C3A C 0.4877(4) 0.5379(3) -0.0683(3)
C4A C 0.2219(4) 0.4050(4) -0.0541(3)
H1A H 0.1266 0.3820 -0.0956
C5A C 0.2457(4) 0.3310(4) 0.0784(3)
H2A H 0.1669 0.2584 0.1249
C6A C 0.6174(4) 0.6373(3) -0.1415(3)
C7A C 0.6339(4) 0.7007(4) -0.2934(3)
O3A O 0.6526(3) 0.5986(3) -0.3842(2)
O3A_2 O 0.6526(3) 0.5986(3) 0.6158(2)
O3_2 O 0.3474(3) 0.4014(3) -0.6158(2)
O4A O 0.6459(3) 0.8432(3) -0.3261(2)
O5A O 0.0139(4) 0.3103(4) -0.4260(3)
H3A H -0.0143 0.2016 -0.4040
H4A H -0.0052 0.3600 -0.5216
O6A O 0.5642(4) 0.2714(3) -0.4148(3)
H5A H 0.5932 0.3853 -0.4170
H6A H 0.5905 0.2153 -0.3205
O7A O 0.2597(4) 0.1243(4) -0.2576(3)
H7A H 0.1242 0.1427 -0.1999
H8A H 0.3416 0.1338 -0.1882
O8 O 0.1122(4) 0.8574(3) 0.0323(3)
H9 H 0.1563 0.8164 -0.0572
H10 H 0.1883 0.8873 0.0863
O9 O 0.4033(4) 0.9371(3) 0.1262(3)
H11 H 0.3689 1.0213 0.1914
O10 O 0.0191(6) 0.0308(5) 0.3577(7)
H13 H -0.0845 0.1126 0.3377
H14 H 0.1243 0.0798 0.3649
H12? H 0.4679 0.9899 0.0353
loop_
_geom_bond_atom_site_label_1
_geom_bond_atom_site_label_2
_geom_bond_site_symmetry_1
_geom_bond_site_symmetry_2
Cu1 O1 1_555 1_555
O1 C1 1_555 1_555
C1 O2 1_555 1_555
C2 C1 1_555 1_555
C3 C2 1_555 1_555
C4 C2 1_555 1_555
H1 C4 1_555 1_555
C5 C4 1_555 1_555
H2 C5 1_555 1_555
C6 C3 1_555 1_555
C7 C6 1_555 1_555
O3 C7 1_555 1_555
O4 C7 1_555 1_555
O5 Cu1 1_555 1_555
H3 O5 1_555 1_555
H4 O5 1_555 1_555
O6 Cu1 1_555 1_555
H5 O6 1_555 1_555
H6 O6 1_555 1_555
O7 Cu1 1_555 1_555
H7 O7 1_555 1_555
H8 O7 1_555 1_555
O8 H9 1_555 1_555
H10 O8 1_555 1_555
O9 H11 1_555 1_555
O10 H13 1_555 1_555
H14 O10 1_555 1_555
Cu1A O1A 1_555 1_555
Cu1A_2 O3 1_555 1_555
Cu1_2 O3A 1_555 1_555
O1A C1A 1_555 1_555
C1A O2A 1_555 1_555
C2A C1A 1_555 1_555
C3A C3 1_555 1_555
C4A C2A 1_555 1_555
H1A C4A 1_555 1_555
C5A C6 1_555 1_555
H2A C5A 1_555 1_555
C6A C5 1_555 1_555
C7A C6A 1_555 1_555
O3A C7A 1_555 1_555
O3A_2 Cu1 1_555 1_555
O3_2 Cu1A 1_555 1_555
O4A C7A 1_555 1_555
O5A Cu1A 1_555 1_555
H3A O5A 1_555 1_555
H4A O5A 1_555 1_555
O6A Cu1A 1_555 1_555
H5A O6A 1_555 1_555
H6A O6A 1_555 1_555
O7A Cu1A 1_555 1_555
H7A O7A 1_555 1_555
H8A O7A 1_555 1_555
C2A C3A 1_555 1_555
C3A C6A 1_555 1_555
C4A C5A 1_555 1_555

#END
