
#######################################################################
#
#                 Cambridge Crystallographic Data Centre
#                                CCDC 
#
#######################################################################
#
# If this CIF has been generated from an entry in the Cambridge 
# Structural Database, then it will include bibliographic, chemical, 
# crystal, experimental, refinement or atomic coordinate data resulting 
# from the CCDC's data processing and validation procedures.
#
#######################################################################

data_HORWAM
_symmetry_cell_setting           orthorhombic
_symmetry_space_group_name_H-M   'P n m a'
_symmetry_Int_Tables_number      62
_space_group_name_Hall           '-P 2ac 2n'
loop_
_symmetry_equiv_pos_site_id
_symmetry_equiv_pos_as_xyz
1 x,y,z
2 1/2+x,y,1/2-z
3 x,1/2-y,z
4 1/2-x,1/2+y,1/2+z
5 -x,-y,-z
6 1/2-x,-y,1/2+z
7 -x,1/2+y,-z
8 1/2+x,1/2-y,1/2-z
_cell_length_a                   6.913(4)
_cell_length_b                   9.777(5)
_cell_length_c                   15.750(9)
_cell_angle_alpha                90
_cell_angle_beta                 90
_cell_angle_gamma                90
_cell_volume                     1064.52
loop_
_atom_site_label
_atom_site_type_symbol
_atom_site_fract_x
_atom_site_fract_y
_atom_site_fract_z
I1 I -0.15144(5) 0.02439(4) 0.32939(2)
N1 N -0.6307(7) -0.1290(5) 0.3819(3)
C1 C -0.5750(13) -0.2500 0.3505(5)
H1 H -0.4907 -0.2500 0.3029
N2 N -0.8177(11) -0.2500 0.4826(5)
C2 C -0.7554(9) -0.1354(6) 0.4475(4)
Cu1 Cu -0.03277(16) 0.2500 0.40259(7)
Cu2 Cu -0.52803(11) 0.05071(8) 0.32705(4)
H2 H -0.8018 -0.0516 0.4702
I2 I -0.65964(8) 0.2500 0.41842(3)
I1B I -0.15144(5) 0.47561(4) 0.32939(2)
Cu2B Cu -0.52803(11) 0.44929(8) 0.32705(4)
I1A I -0.65144(5) 0.02439(4) 0.17061(2)
Cu1_2 Cu -1.03277(16) 0.2500 0.40259(7)
I2_2 I 0.34036(8) 0.2500 0.41842(3)
N2D N -0.1823(11) 0.2500 0.5174(5)
Cu2D Cu -1.47197(11) -0.05071(8) 0.67295(4)
I2D I -1.34036(8) -0.2500 0.58158(3)
Cu1D Cu -0.96723(16) -0.2500 0.59741(7)
Cu2F Cu -1.47197(11) -0.44929(8) 0.67295(4)
I1F I -0.84856(5) -0.47561(4) 0.67061(2)
I1D I -0.84856(5) -0.02439(4) 0.67061(2)
Cu2A Cu -0.02803(11) 0.05071(8) 0.17295(4)
C2B C -0.7554(9) -0.3646(6) 0.4475(4)
N1B N -0.6307(7) -0.3710(5) 0.3819(3)
H2B H -0.8018 -0.4484 0.4702
Cu2B_2 Cu -0.52803(11) -0.55071(8) 0.32705(4)
loop_
_geom_bond_atom_site_label_1
_geom_bond_atom_site_label_2
_geom_bond_site_symmetry_1
_geom_bond_site_symmetry_2
I1 Cu1 1_555 1_555
N1 C1 1_555 1_555
C1 H1 1_555 1_555
N2 C2 1_555 1_555
C2 N1 1_555 1_555
Cu1 I1B 1_555 1_555
Cu2 I1 1_555 1_555
H2 C2 1_555 1_555
I2 Cu2 1_555 1_555
I1B Cu2B 1_555 1_555
Cu2B I2 1_555 1_555
I1A Cu2 1_555 1_555
Cu1_2 I2 1_555 1_555
I2_2 Cu1 1_555 1_555
N2D Cu1 1_555 1_555
Cu2D I2D 1_555 1_555
I2D Cu1D 1_555 1_555
Cu1D N2 1_555 1_555
Cu2F I2D 1_555 1_555
I1F Cu1D 1_555 1_555
I1D Cu1D 1_555 1_555
Cu2A I1 1_555 1_555
C2B N2 1_555 1_555
N1B C1 1_555 1_555
H2B C2B 1_555 1_555
Cu2B_2 N1B 1_555 1_555
N1 Cu2 1_555 1_555
C2B N1B 1_555 1_555

#END
