
#######################################################################
#
#                 Cambridge Crystallographic Data Centre
#                                CCDC 
#
#######################################################################
#
# If this CIF has been generated from an entry in the Cambridge 
# Structural Database, then it will include bibliographic, chemical, 
# crystal, experimental, refinement or atomic coordinate data resulting 
# from the CCDC's data processing and validation procedures.
#
#######################################################################

data_HORWEQ
_symmetry_cell_setting           hexagonal
_symmetry_space_group_name_H-M   'P 63 m c'
_symmetry_Int_Tables_number      186
_space_group_name_Hall           "P 6c -2'c"
loop_
_symmetry_equiv_pos_site_id
_symmetry_equiv_pos_as_xyz
1 x,y,z
2 -y,x-y,z
3 -x+y,-x,z
4 -x,-y,1/2+z
5 y,-x+y,1/2+z
6 x-y,x,1/2+z
7 -y,-x,z
8 -x+y,y,z
9 x,x-y,z
10 y,x,1/2+z
11 x-y,-y,1/2+z
12 -x,-x+y,1/2+z
_cell_length_a                   14.247(6)
_cell_length_b                   14.247(6)
_cell_length_c                   6.415(3)
_cell_angle_alpha                90
_cell_angle_beta                 90
_cell_angle_gamma                120
_cell_volume                     1127.65
loop_
_atom_site_label
_atom_site_type_symbol
_atom_site_fract_x
_atom_site_fract_y
_atom_site_fract_z
N1 N -0.4515(7) -0.1445(7) 0.2388(16)
N2 N -0.3337(5) -0.1669(10) 0.455(2)
C1 C -0.3763(8) -0.1075(8) 0.3906(18)
H1 H -0.3149 -0.3536 -0.0479
C2 C -0.4831(6) -0.2416(13) 0.153(3)
H2 H -0.5277 -0.2639 0.0327
Br1 Br -0.19450(7) -0.09725(7) -0.0083(2)
Br2 Br -0.55966(12) -0.44034(6) -0.2445(3)
Cu1 Cu -0.09367(9) -0.18734(17) 0.1143(3)
Cu2 Cu -0.53210(15) -0.46790(7) 0.1342(4)
N1B N -0.6930(10) -0.5485(7) 0.2388(16)
Cu2A Cu -0.53210(7) -0.06420(17) 0.1342(4)
C1H C -0.3763(8) -0.2688(11) 0.3906(18)
N1H N -0.4515(7) -0.3070(10) 0.2388(16)
Cu2C Cu -0.46790(15) -0.53210(7) -0.3658(4)
N1K N -0.5485(7) -0.6930(10) -0.2612(16)
Cu2E Cu -0.06420(17) -0.53210(15) -0.3658(4)
N1I N -0.1445(7) -0.4515(7) -0.2612(16)
C1I C -0.1075(8) -0.3763(8) -0.1094(18)
N2E N -0.1668(11) -0.3337(5) -0.045(2)
C1E C -0.2688(11) -0.3763(8) -0.1094(18)
N1E N -0.3070(10) -0.4515(7) -0.2612(16)
C2E C -0.2415(14) -0.4831(6) -0.347(3)
H2E H -0.2638 -0.5277 -0.4673
Br2C Br -0.44034(12) -0.55966(6) -0.7445(3)
Cu2_2 Cu -0.53210(15) -0.46790(7) -0.8658(4)
Br1A Br 0.09725(7) -0.09725(10) -0.0083(2)
Cu1B Cu -0.09367(19) 0.09367(9) 0.1143(3)
Br1E Br -0.09725(10) -0.19450(7) 0.4917(2)
Cu1D Cu -0.18734(17) -0.09367(19) 0.6143(3)
Br1D Br -0.09725(7) 0.09725(10) 0.4917(2)
Cu1E Cu 0.09367(19) -0.09367(9) 0.6143(3)
Br1_2 Br -0.19450(7) -0.09725(7) 0.9917(2)
Cu1D_2 Cu -0.18734(17) -0.09367(19) -0.3857(3)
H1G H -0.0387 -0.3536 -0.0479
Br2C_2 Br -0.44034(12) -0.55966(6) 0.2555(3)
H1I H -0.3536 -0.3149 0.4521
H1D H -0.3536 -0.0387 0.4521
loop_
_geom_bond_atom_site_label_1
_geom_bond_atom_site_label_2
_geom_bond_site_symmetry_1
_geom_bond_site_symmetry_2
N1 C1 1_555 1_555
N2 C1 1_555 1_555
C1 H1D 1_555 1_555
H1 C1E 1_555 1_555
C2 N1 1_555 1_555
H2 C2 1_555 1_555
Br1 Cu1 1_555 1_555
Br2 Cu2 1_555 1_555
Cu1 N2E 1_555 1_555
Cu2 N1B 1_555 1_555
Cu2A N1 1_555 1_555
C1H N2 1_555 1_555
N1H C2 1_555 1_555
Cu2C Br2 1_555 1_555
N1K Cu2C 1_555 1_555
Cu2E N1I 1_555 1_555
N1I C1I 1_555 1_555
C1I N2E 1_555 1_555
N2E C1E 1_555 1_555
C1E N1E 1_555 1_555
N1E Cu2C 1_555 1_555
C2E N1I 1_555 1_555
H2E C2E 1_555 1_555
Br2C Cu2C 1_555 1_555
Cu2_2 Br2C 1_555 1_555
Br1A Cu1 1_555 1_555
Cu1B Br1 1_555 1_555
Br1E Cu1 1_555 1_555
Cu1D N2 1_555 1_555
Br1D Cu1B 1_555 1_555
Cu1E Br1E 1_555 1_555
Br1_2 Cu1D 1_555 1_555
Cu1D_2 Br1 1_555 1_555
H1G C1I 1_555 1_555
Br2C_2 Cu2 1_555 1_555
H1I C1H 1_555 1_555
Cu2 N1H 1_555 1_555
C1H N1H 1_555 1_555
N1E C2E 1_555 1_555
Br1E Cu1D 1_555 1_555
Cu1D Br1D 1_555 1_555

#END
