
#######################################################################
#
#                 Cambridge Crystallographic Data Centre
#                                CCDC 
#
#######################################################################
#
# If this CIF has been generated from an entry in the Cambridge 
# Structural Database, then it will include bibliographic, chemical, 
# crystal, experimental, refinement or atomic coordinate data resulting 
# from the CCDC's data processing and validation procedures.
#
#######################################################################

data_HORXAN
_symmetry_cell_setting           orthorhombic
_symmetry_space_group_name_H-M   'P 21 21 21'
_symmetry_Int_Tables_number      19
_space_group_name_Hall           'P 2ac 2ab'
loop_
_symmetry_equiv_pos_site_id
_symmetry_equiv_pos_as_xyz
1 x,y,z
2 1/2-x,-y,1/2+z
3 1/2+x,1/2-y,-z
4 -x,1/2+y,1/2-z
_cell_length_a                   8.508(2)
_cell_length_b                   20.730(3)
_cell_length_c                   7.062(1)
_cell_angle_alpha                90
_cell_angle_beta                 90
_cell_angle_gamma                90
_cell_volume                     1245.53
loop_
_atom_site_label
_atom_site_type_symbol
_atom_site_fract_x
_atom_site_fract_y
_atom_site_fract_z
Na1 Na 0.7538(2) -0.00492(9) 0.0728(2)
O1 O 0.9120(3) 0.0399(1) -0.1738(5)
N1 N 0.8398(4) 0.1245(2) 0.3497(5)
N2 N 0.7294(4) 0.1020(2) 0.2260(5)
N3 N 1.0529(4) 0.0431(1) 0.2768(5)
N4 N 0.9701(4) -0.0054(2) 0.3620(5)
N5 N 1.0851(4) 0.1565(2) 0.1624(6)
N6 N 1.0443(4) 0.1502(2) -0.0231(5)
C1 C 0.7719(6) 0.1616(2) 0.4813(7)
C2 C 0.6136(6) 0.1641(2) 0.4471(8)
C3 C 0.5935(5) 0.1264(2) 0.2889(8)
C4 C 1.0399(5) -0.0598(2) 0.3041(7)
C5 C 1.1669(5) -0.0474(2) 0.1871(7)
C6 C 1.1706(5) 0.0184(2) 0.1740(7)
C7 C 1.1902(6) 0.2045(2) 0.1795(8)
C8 C 1.2171(7) 0.2306(2) 0.0057(10)
C9 C 1.1246(6) 0.1952(2) -0.1140(7)
B1 B 1.0182(5) 0.1148(2) 0.3223(8)
H1 H 1.0783 0.1279 0.4533
H2 H 0.8250 0.1828 0.5821
H3 H 0.5356 0.1867 0.5170
H4 H 0.4946 0.1187 0.2307
H5 H 1.0062 -0.1019 0.3390
H6 H 1.2357 -0.0777 0.1292
H7 H 1.2449 0.0426 0.1031
H8 H 1.2381 0.2180 0.2944
H9 H 1.2845 0.2656 -0.0254
H10 H 1.1188 0.2022 -0.2470
H11 H 0.9979 0.0152 -0.1943
H12 H 0.9605 0.0773 -0.1254
O1A O 0.5880(3) -0.0399(1) 0.3262(5)
H11A H 0.5021 -0.0152 0.3057
H12A H 0.5395 -0.0773 0.3746
N4A N 0.5299(4) 0.0054(2) -0.1380(5)
Na1A Na 0.7462(2) 0.00492(9) 0.5728(2)
Na1A_2 Na 0.7462(2) 0.00492(9) -0.4272(2)
loop_
_geom_bond_atom_site_label_1
_geom_bond_atom_site_label_2
_geom_bond_site_symmetry_1
_geom_bond_site_symmetry_2
Na1 O1 1_555 1_555
O1 H11 1_555 1_555
N1 N2 1_555 1_555
N2 Na1 1_555 1_555
N3 N4 1_555 1_555
N4 Na1 1_555 1_555
N5 N6 1_555 1_555
N6 C9 1_555 1_555
C1 N1 1_555 1_555
C2 C1 1_555 1_555
C3 N2 1_555 1_555
C4 N4 1_555 1_555
C5 C4 1_555 1_555
C6 N3 1_555 1_555
C7 N5 1_555 1_555
C8 C7 1_555 1_555
C9 C8 1_555 1_555
B1 N1 1_555 1_555
H1 B1 1_555 1_555
H2 C1 1_555 1_555
H3 C2 1_555 1_555
H4 C3 1_555 1_555
H5 C4 1_555 1_555
H6 C5 1_555 1_555
H7 C6 1_555 1_555
H8 C7 1_555 1_555
H9 C8 1_555 1_555
H10 C9 1_555 1_555
H12 O1 1_555 1_555
O1A Na1 1_555 1_555
H11A O1A 1_555 1_555
H12A O1A 1_555 1_555
N4A Na1 1_555 1_555
Na1A N4 1_555 1_555
Na1A_2 O1 1_555 1_555
N3 B1 1_555 1_555
N5 B1 1_555 1_555
C2 C3 1_555 1_555
C5 C6 1_555 1_555
O1A Na1A 1_555 1_555
N4A Na1A_2 1_555 1_555

#END
