
#######################################################################
#
#                 Cambridge Crystallographic Data Centre
#                                CCDC 
#
#######################################################################
#
# If this CIF has been generated from an entry in the Cambridge 
# Structural Database, then it will include bibliographic, chemical, 
# crystal, experimental, refinement or atomic coordinate data resulting 
# from the CCDC's data processing and validation procedures.
#
#######################################################################

data_HORYOE
_symmetry_cell_setting           monoclinic
_symmetry_space_group_name_H-M   'C 2/c'
_symmetry_Int_Tables_number      15
_space_group_name_Hall           '-C 2yn'
loop_
_symmetry_equiv_pos_site_id
_symmetry_equiv_pos_as_xyz
1 x,y,z
2 -x,y,1/2-z
3 1/2+x,1/2+y,z
4 1/2-x,1/2+y,1/2-z
5 -x,-y,-z
6 x,-y,1/2+z
7 1/2-x,1/2-y,-z
8 1/2+x,1/2-y,1/2+z
_cell_length_a                   18.937(4)
_cell_length_b                   11.546(2)
_cell_length_c                   15.385(3)
_cell_angle_alpha                90
_cell_angle_beta                 111.08(3)
_cell_angle_gamma                90
_cell_volume                     3138.76
loop_
_atom_site_label
_atom_site_type_symbol
_atom_site_fract_x
_atom_site_fract_y
_atom_site_fract_z
Ni1 Ni 0.22552(2) 0.66735(3) 0.64006(3)
O1 O 0.24831(13) 0.7005(2) 0.77572(15)
O2 O 0.33923(17) 0.8337(2) 0.81009(17)
O3 O 0.22906(13) 0.4292(2) 1.02003(15)
O4 O 0.29851(13) 0.4704(2) 1.16433(15)
O5 O 0.13706(14) 0.5584(2) 0.64418(19)
O6 O 0.30870(13) 0.7809(2) 0.63214(16)
N1 N 0.14456(16) 0.7907(3) 0.58836(19)
C1 C 0.30197(18) 0.7571(3) 0.8319(2)
C2 C 0.32251(17) 0.7263(3) 0.9332(2)
C3 C 0.29119(17) 0.6279(3) 0.9569(2)
H1 H 0.2561 0.5840 0.9105
C4 C 0.31212(16) 0.5951(3) 1.0495(2)
C5 C 0.27848(17) 0.4922(3) 1.0788(2)
C6 C 0.36389(17) 0.6622(3) 1.1183(2)
H2 H 0.3776 0.6400 1.1803
C7 C 0.39554(16) 0.7617(3) 1.0967(2)
C8 C 0.37463(17) 0.7923(3) 1.0032(2)
H3 H 0.3958 0.8578 0.9871
C9 C 0.44963(17) 0.8303(3) 1.1736(2)
C10 C 0.5000 0.7726(4) 1.2500
H4 H 0.5000 0.6921 1.2500
C11 C 0.45003(19) 0.9507(3) 1.1743(2)
H5 H 0.4168 0.9914 1.1240
C12 C 0.5000 1.0107(4) 1.2500
H6 H 0.5000 1.0912 1.2500
C13 C 0.14228(19) 0.8849(3) 0.6366(2)
H7 H 0.1803 0.8957 0.6944
C14 C 0.08677(19) 0.9669(3) 0.6053(2)
H8 H 0.0870 1.0306 0.6424
C15 C 0.03024(18) 0.9553(3) 0.5188(2)
C16 C 0.0332(2) 0.8574(4) 0.4694(3)
H9 H -0.0037 0.8453 0.4109
C17 C 0.0895(2) 0.7775(4) 0.5051(3)
H10 H 0.0896 0.7117 0.4703
O1A O 0.75169(13) 0.7005(2) 1.72428(15)
O2A O 0.66077(17) 0.8337(2) 1.68991(17)
O3A O 0.77094(13) 0.4292(2) 1.47997(15)
O4A O 0.70149(13) 0.4704(2) 1.33567(15)
C1A C 0.69803(18) 0.7571(3) 1.6681(2)
C2A C 0.67749(17) 0.7263(3) 1.5668(2)
C3A C 0.70881(17) 0.6279(3) 1.5431(2)
H1A H 0.7439 0.5840 1.5895
C4A C 0.68788(16) 0.5951(3) 1.4505(2)
C5A C 0.72152(17) 0.4922(3) 1.4212(2)
C6A C 0.63611(17) 0.6622(3) 1.3817(2)
H2A H 0.6224 0.6400 1.3197
C7A C 0.60446(16) 0.7617(3) 1.4033(2)
C8A C 0.62537(17) 0.7923(3) 1.4968(2)
H3A H 0.6042 0.8578 1.5129
C9A C 0.55037(17) 0.8303(3) 1.3264(2)
C11A C 0.54997(19) 0.9507(3) 1.3257(2)
H5A H 0.5832 0.9914 1.3760
N1D N -0.14456(16) 1.2093(3) 0.41164(19)
C13D C -0.14228(19) 1.1151(3) 0.3634(2)
H7D H -0.1803 1.1043 0.3056
C14D C -0.08677(19) 1.0331(3) 0.3947(2)
H8D H -0.0870 0.9694 0.3576
C15D C -0.03024(18) 1.0447(3) 0.4812(2)
C16D C -0.0332(2) 1.1426(4) 0.5306(3)
H9D H 0.0037 1.1547 0.5891
C17D C -0.0895(2) 1.2225(4) 0.4949(3)
H10D H -0.0896 1.2883 0.5297
Ni1A Ni 0.77448(2) 0.66735(3) 1.85994(3)
O5A O 0.86294(14) 0.5584(2) 1.85582(19)
O6A O 0.69130(13) 0.7809(2) 1.86786(16)
Ni1D Ni -0.22552(2) 1.33265(3) 0.35994(3)
Ni1D_2 Ni 0.77448(2) 0.33265(3) 1.35994(3)
Ni1E Ni 0.22552(2) 0.33265(3) 1.14006(3)
O3D O 0.77094(13) 0.5708(2) 1.97997(15)
O3E O 0.22906(13) 0.5708(2) 0.52003(15)
O4D O 0.70149(13) 0.5296(2) 1.83567(15)
O4E O 0.29851(13) 0.5296(2) 0.66433(15)
N1A N 0.85544(16) 0.7907(3) 1.91164(19)
loop_
_geom_bond_atom_site_label_1
_geom_bond_atom_site_label_2
_geom_bond_site_symmetry_1
_geom_bond_site_symmetry_2
Ni1 O1 1_555 1_555
O1 C1 1_555 1_555
O2 C1 1_555 1_555
O3 C5 1_555 1_555
O4 C5 1_555 1_555
O5 Ni1 1_555 1_555
O6 Ni1 1_555 1_555
N1 Ni1 1_555 1_555
C1 C2 1_555 1_555
C2 C3 1_555 1_555
C3 H1 1_555 1_555
C4 C3 1_555 1_555
C5 C4 1_555 1_555
C6 C4 1_555 1_555
H2 C6 1_555 1_555
C7 C6 1_555 1_555
C8 C2 1_555 1_555
H3 C8 1_555 1_555
C9 C7 1_555 1_555
C10 C9 1_555 1_555
H4 C10 1_555 1_555
C11 C9 1_555 1_555
H5 C11 1_555 1_555
C12 C11 1_555 1_555
H6 C12 1_555 1_555
C13 N1 1_555 1_555
H7 C13 1_555 1_555
C14 C13 1_555 1_555
H8 C14 1_555 1_555
C15 C14 1_555 1_555
C16 C15 1_555 1_555
H9 C16 1_555 1_555
C17 N1 1_555 1_555
H10 C17 1_555 1_555
O1A C1A 1_555 1_555
O2A C1A 1_555 1_555
O3A C5A 1_555 1_555
O4A C5A 1_555 1_555
C1A C2A 1_555 1_555
C2A C3A 1_555 1_555
C3A H1A 1_555 1_555
C4A C3A 1_555 1_555
C5A C4A 1_555 1_555
C6A C4A 1_555 1_555
H2A C6A 1_555 1_555
C7A C6A 1_555 1_555
C8A C2A 1_555 1_555
H3A C8A 1_555 1_555
C9A C10 1_555 1_555
C11A C12 1_555 1_555
H5A C11A 1_555 1_555
N1D C13D 1_555 1_555
C13D H7D 1_555 1_555
C14D C13D 1_555 1_555
H8D C14D 1_555 1_555
C15D C15 1_555 1_555
C16D C15D 1_555 1_555
H9D C16D 1_555 1_555
C17D N1D 1_555 1_555
H10D C17D 1_555 1_555
Ni1A O1A 1_555 1_555
O5A Ni1A 1_555 1_555
O6A Ni1A 1_555 1_555
Ni1D N1D 1_555 1_555
Ni1D_2 O3A 1_555 1_555
Ni1E O3 1_555 1_555
O3D Ni1A 1_555 1_555
O3E Ni1 1_555 1_555
O4D Ni1A 1_555 1_555
O4E Ni1 1_555 1_555
N1A Ni1A 1_555 1_555
O4 Ni1E 1_555 1_555
C7 C8 1_555 1_555
C16 C17 1_555 1_555
O4A Ni1D_2 1_555 1_555
C7A C8A 1_555 1_555
C7A C9A 1_555 1_555
C9A C11A 1_555 1_555
C14D C15D 1_555 1_555
C16D C17D 1_555 1_555

#END
