
#######################################################################
#
#                 Cambridge Crystallographic Data Centre
#                                CCDC 
#
#######################################################################
#
# If this CIF has been generated from an entry in the Cambridge 
# Structural Database, then it will include bibliographic, chemical, 
# crystal, experimental, refinement or atomic coordinate data resulting 
# from the CCDC's data processing and validation procedures.
#
#######################################################################

data_HORYUK
_symmetry_cell_setting           triclinic
_symmetry_space_group_name_H-M   'P -1'
_symmetry_Int_Tables_number      2
_space_group_name_Hall           '-P 1'
loop_
_symmetry_equiv_pos_site_id
_symmetry_equiv_pos_as_xyz
1 x,y,z
2 -x,-y,-z
_cell_length_a                   9.7207(19)
_cell_length_b                   10.111(2)
_cell_length_c                   15.286(3)
_cell_angle_alpha                92.87(3)
_cell_angle_beta                 98.72(3)
_cell_angle_gamma                96.33(3)
_cell_volume                     1472.57
loop_
_atom_site_label
_atom_site_type_symbol
_atom_site_fract_x
_atom_site_fract_y
_atom_site_fract_z
Mn1 Mn -0.03612(6) -0.52517(5) 0.83219(4)
Mn2 Mn -0.11066(5) 0.23339(5) 0.67532(3)
O1 O 0.1294(3) -0.3766(3) 0.91724(18)
O2 O -0.0350(3) -0.3094(3) 0.82244(18)
O3 O -0.0901(3) 0.1628(3) 0.80236(16)
O4 O 0.0421(3) 0.3128(3) 0.89909(18)
O5 O 0.2045(3) 0.5726(3) 1.27375(19)
O6 O 0.3439(3) 0.7442(3) 1.3366(2)
O7 O 0.8492(3) 0.7794(3) 1.30532(19)
O8 O 0.9406(2) 0.5952(3) 1.28053(17)
O9 O -0.1783(4) -0.5109(5) 0.9299(2)
N1 N -0.2112(3) 0.0366(3) 0.6104(2)
N2 N -0.0760(3) 0.2333(3) 0.5344(2)
C1 C 0.0660(4) -0.2835(4) 0.8849(2)
C2 C 0.1107(4) -0.1429(3) 0.9187(2)
C3 C 0.0395(4) -0.0437(4) 0.8800(2)
H1 H -0.0353 -0.0658 0.8341
C4 C 0.0799(4) 0.0871(3) 0.9096(2)
C5 C 0.0057(4) 0.1948(4) 0.8672(2)
C6 C 0.1908(4) 0.1179(4) 0.9778(2)
H2 H 0.2183 0.2069 0.9971
C7 C 0.2635(4) 0.0202(3) 1.0192(2)
C8 C 0.2208(4) -0.1109(3) 0.9878(2)
H3 H 0.2668 -0.1786 1.0136
C9 C 0.3829(4) 0.0583(3) 1.0917(2)
C10 C 0.4057(4) 0.1863(4) 1.1320(2)
H4 H 0.3405 0.2451 1.1160
C11 C 0.5225(4) 0.2305(4) 1.1955(2)
C12 C 0.6164(4) 0.1410(4) 1.2216(3)
H5 H 0.6951 0.1678 1.2640
C13 C 0.5925(4) 0.0126(4) 1.1845(3)
H6 H 0.6547 -0.0477 1.2032
C14 C 0.4786(4) -0.0289(4) 1.1204(3)
H7 H 0.4654 -0.1163 1.0960
C15 C 0.5434(4) 0.3713(3) 1.2311(2)
C16 C 0.4305(4) 0.4348(4) 1.2473(2)
H8 H 0.3413 0.3875 1.2384
C17 C 0.4485(4) 0.5687(4) 1.2769(2)
C18 C 0.3260(4) 0.6331(4) 1.2966(2)
C19 C 0.5788(3) 0.6402(4) 1.2881(2)
H9 H 0.5900 0.7304 1.3062
C20 C 0.6932(4) 0.5789(4) 1.2727(2)
C21 C 0.6749(4) 0.4442(4) 1.2454(2)
H10 H 0.7525 0.4021 1.2365
C22 C 0.8340(4) 0.6581(4) 1.2864(2)
C23 C -0.2962(4) -0.0475(4) 0.6480(3)
H11 H -0.2926 -0.0380 0.7092
C24 C -0.3879(6) -0.1462(5) 0.6012(3)
H12 H -0.4453 -0.2033 0.6299
C25 C -0.3944(6) -0.1604(6) 0.5113(4)
H13 H -0.4564 -0.2273 0.4778
C26 C -0.3085(6) -0.0748(5) 0.4711(3)
H14 H -0.3116 -0.0828 0.4099
C27 C -0.2174(4) 0.0232(4) 0.5221(2)
C28 C -0.1258(4) 0.1224(4) 0.4828(2)
C29 C -0.0921(4) 0.1029(4) 0.3994(3)
H15 H -0.1248 0.0237 0.3653
C30 C -0.0093(5) 0.2021(5) 0.3668(3)
H16 H 0.0130 0.1911 0.3101
C31 C 0.0392(5) 0.3148(5) 0.4176(3)
H17 H 0.0939 0.3835 0.3963
C32 C 0.0064(5) 0.3263(5) 0.5012(3)
H18 H 0.0434 0.4029 0.5370
Mn1_2 Mn -0.03612(6) 0.47483(5) 0.83219(4)
Mn1A Mn 0.03612(6) 0.52517(5) 1.16781(4)
Mn1A_2 Mn 1.03612(6) 0.52517(5) 1.16781(4)
Mn2A Mn 0.11066(5) 0.76661(5) 1.32468(3)
Mn2A_2 Mn 1.11066(5) 0.76661(5) 1.32468(3)
O4_2 O 0.0421(3) -0.6872(3) 0.89909(18)
O5A O -0.2045(3) -0.5726(3) 0.72625(19)
O5A_2 O -0.2045(3) 0.4274(3) 0.72625(19)
O6A O -0.3439(3) 0.2558(3) 0.6634(2)
O8A O 0.0594(2) -0.5952(3) 0.71947(17)
O8A_2 O 0.0594(2) 0.4048(3) 0.71947(17)
loop_
_geom_bond_atom_site_label_1
_geom_bond_atom_site_label_2
_geom_bond_site_symmetry_1
_geom_bond_site_symmetry_2
Mn1 O1 1_555 1_555
Mn2 O3 1_555 1_555
O1 C1 1_555 1_555
O2 Mn1 1_555 1_555
O3 C5 1_555 1_555
O4 C5 1_555 1_555
O5 C18 1_555 1_555
O6 C18 1_555 1_555
O7 C22 1_555 1_555
O8 C22 1_555 1_555
O9 Mn1 1_555 1_555
N1 Mn2 1_555 1_555
N2 Mn2 1_555 1_555
C1 O2 1_555 1_555
C2 C1 1_555 1_555
C3 C2 1_555 1_555
H1 C3 1_555 1_555
C4 C3 1_555 1_555
C5 C4 1_555 1_555
C6 C4 1_555 1_555
H2 C6 1_555 1_555
C7 C6 1_555 1_555
C8 C2 1_555 1_555
H3 C8 1_555 1_555
C9 C7 1_555 1_555
C10 C9 1_555 1_555
H4 C10 1_555 1_555
C11 C10 1_555 1_555
C12 C11 1_555 1_555
H5 C12 1_555 1_555
C13 C12 1_555 1_555
H6 C13 1_555 1_555
C14 C9 1_555 1_555
H7 C14 1_555 1_555
C15 C11 1_555 1_555
C16 C15 1_555 1_555
H8 C16 1_555 1_555
C17 C16 1_555 1_555
C18 C17 1_555 1_555
C19 C17 1_555 1_555
H9 C19 1_555 1_555
C20 C19 1_555 1_555
C21 C15 1_555 1_555
H10 C21 1_555 1_555
C22 C20 1_555 1_555
C23 N1 1_555 1_555
H11 C23 1_555 1_555
C24 C23 1_555 1_555
H12 C24 1_555 1_555
C25 C24 1_555 1_555
H13 C25 1_555 1_555
C26 C25 1_555 1_555
H14 C26 1_555 1_555
C27 N1 1_555 1_555
C28 N2 1_555 1_555
C29 C28 1_555 1_555
H15 C29 1_555 1_555
C30 C29 1_555 1_555
H16 C30 1_555 1_555
C31 C30 1_555 1_555
H17 C31 1_555 1_555
C32 N2 1_555 1_555
H18 C32 1_555 1_555
Mn1_2 O4 1_555 1_555
Mn1A O5 1_555 1_555
Mn1A_2 O8 1_555 1_555
Mn2A O5 1_555 1_555
Mn2A_2 O8 1_555 1_555
O4_2 Mn1 1_555 1_555
O5A Mn1 1_555 1_555
O5A_2 Mn2 1_555 1_555
O6A Mn2 1_555 1_555
O8A Mn1 1_555 1_555
O8A_2 Mn2 1_555 1_555
O6 Mn2A 1_555 1_555
C7 C8 1_555 1_555
C13 C14 1_555 1_555
C20 C21 1_555 1_555
C26 C27 1_555 1_555
C27 C28 1_555 1_555
C31 C32 1_555 1_555
Mn1_2 O5A_2 1_555 1_555
Mn1_2 O8A_2 1_555 1_555

#END
