
#######################################################################
#
#                 Cambridge Crystallographic Data Centre
#                                CCDC 
#
#######################################################################
#
# If this CIF has been generated from an entry in the Cambridge 
# Structural Database, then it will include bibliographic, chemical, 
# crystal, experimental, refinement or atomic coordinate data resulting 
# from the CCDC's data processing and validation procedures.
#
#######################################################################

data_HORZEV
_symmetry_cell_setting           monoclinic
_symmetry_space_group_name_H-M   'C 2/c'
_symmetry_Int_Tables_number      15
_space_group_name_Hall           '-C 2yn'
loop_
_symmetry_equiv_pos_site_id
_symmetry_equiv_pos_as_xyz
1 x,y,z
2 -x,y,1/2-z
3 1/2+x,1/2+y,z
4 1/2-x,1/2+y,1/2-z
5 -x,-y,-z
6 x,-y,1/2+z
7 1/2-x,1/2-y,-z
8 1/2+x,1/2-y,1/2+z
_cell_length_a                   28.427(6)
_cell_length_b                   10.685(2)
_cell_length_c                   17.978(4)
_cell_angle_alpha                90
_cell_angle_beta                 97.49(3)
_cell_angle_gamma                90
_cell_volume                     5414.09
loop_
_atom_site_label
_atom_site_type_symbol
_atom_site_fract_x
_atom_site_fract_y
_atom_site_fract_z
Co1 Co 0.464639(10) 0.69431(3) 0.151857(14)
O1 O 0.42543(5) 0.56415(14) 0.20512(8)
N1 N 0.50616(6) 0.83527(17) 0.10798(10)
N2 N 0.43918(6) 0.86040(17) 0.19835(10)
O2 O 0.52906(5) 0.62236(15) 0.19151(8)
O3 O 0.45838(6) 0.58835(16) 0.05103(8)
O4 O 0.40371(6) 0.72896(15) 0.05740(8)
C1 C 0.49523(8) 0.9532(2) 0.12664(12)
C2 C 0.54141(8) 0.8190(2) 0.06698(13)
C3 C 0.40427(8) 0.8718(2) 0.24020(13)
C4 C 0.45790(8) 0.9667(2) 0.17279(12)
C5 C 0.42201(8) 0.6441(2) 0.02150(11)
C6 C 0.51828(9) 1.0590(2) 0.10313(14)
C7 C 0.56728(10) 0.9186(3) 0.04300(15)
H1 H 0.5491 0.7381 0.0538
H2 H 0.3911 0.7996 0.2576
C8 C 0.38642(9) 0.9884(3) 0.25928(16)
C9 C 0.44262(9) 1.0872(2) 0.19032(14)
C10 C 0.40121(7) 0.61293(19) -0.05745(11)
C11 C 0.50238(11) 1.1803(2) 0.12222(17)
C12 C 0.55579(10) 1.0377(3) 0.06044(15)
H3 H 0.5922 0.9038 0.0153
H4 H 0.3616 0.9929 0.2881
C13 C 0.40591(10) 1.0942(3) 0.23510(16)
C14 C 0.46612(11) 1.1943(2) 0.16290(17)
C15 C 0.42704(8) 0.54042(19) -0.10155(11)
C16 C 0.35747(8) 0.6622(2) -0.08756(11)
H5 H 0.5174 1.2510 0.1063
H6 H 0.5726 1.1048 0.0443
H7 H 0.3948 1.1719 0.2483
H8 H 0.4560 1.2744 0.1735
H9 H 0.4558 0.5055 -0.0810
C17 C 0.40983(7) 0.51979(18) -0.17696(11)
C18 C 0.33929(7) 0.64171(19) -0.16257(11)
H10 H 0.3401 0.7095 -0.0573
C19 C 0.43759(7) 0.44035(19) -0.22423(11)
C20 C 0.36621(7) 0.57074(19) -0.20659(11)
C21 C 0.29326(8) 0.69654(19) -0.19560(12)
H11 H 0.3548 0.5571 -0.2568
C22 C 0.28696(8) 0.7379(2) -0.26994(12)
C23 C 0.25556(8) 0.7098(2) -0.15347(13)
C24 C 0.24472(8) 0.7925(2) -0.30218(12)
H12 H 0.3117 0.7287 -0.2987
C25 C 0.21326(9) 0.7621(3) -0.18529(14)
H13 H 0.2590 0.6833 -0.1038
C26 C 0.24116(8) 0.8450(2) -0.37932(12)
C27 C 0.20771(8) 0.8025(2) -0.25911(14)
H14 H 0.1883 0.7702 -0.1569
C28 C 0.19960(8) 0.8367(2) -0.43009(13)
C29 C 0.27925(8) 0.9099(2) -0.40174(12)
H15 H 0.1789 0.8368 -0.2801
C30 C 0.19659(8) 0.8922(2) -0.50056(12)
H16 H 0.1736 0.7935 -0.4166
H17 H 0.3070 0.9182 -0.3684
C31 C 0.27706(8) 0.9629(2) -0.47276(13)
C32 C 0.23537(8) 0.9537(2) -0.52243(13)
C33 C 0.15023(9) 0.8879(2) -0.55053(13)
C34 C 0.31733(9) 1.0370(2) -0.49525(14)
H18 H 0.2336 0.9887 -0.5701
O5 O 0.11834(8) 0.8189(2) -0.54173(14)
O6 O 0.14793(6) 0.97338(19) -0.60414(10)
O7 O 0.34549(7) 1.0805(2) -0.43651(10)
O8 O 0.32323(7) 1.0570(2) -0.55930(10)
H19 H 0.1212 0.9737 -0.6277
H20 H 0.3631 1.1342 -0.4503
O2D O 0.47094(5) 0.37764(15) -0.19151(8)
O1E O 0.42543(5) 0.43585(14) -0.29488(8)
Co1D Co 0.535361(10) 0.30569(3) -0.151857(14)
Co1E Co 0.464639(10) 0.30569(3) -0.348143(14)
loop_
_geom_bond_atom_site_label_1
_geom_bond_atom_site_label_2
_geom_bond_site_symmetry_1
_geom_bond_site_symmetry_2
Co1 O1 1_555 1_555
N1 Co1 1_555 1_555
N2 Co1 1_555 1_555
O2 Co1 1_555 1_555
O3 Co1 1_555 1_555
O4 Co1 1_555 1_555
C1 N1 1_555 1_555
C2 N1 1_555 1_555
C3 N2 1_555 1_555
C4 N2 1_555 1_555
C5 O3 1_555 1_555
C6 C1 1_555 1_555
C7 C2 1_555 1_555
H1 C2 1_555 1_555
H2 C3 1_555 1_555
C8 C3 1_555 1_555
C9 C4 1_555 1_555
C10 C5 1_555 1_555
C11 C6 1_555 1_555
C12 C6 1_555 1_555
H3 C7 1_555 1_555
H4 C8 1_555 1_555
C13 C8 1_555 1_555
C14 C9 1_555 1_555
C15 C10 1_555 1_555
C16 C10 1_555 1_555
H5 C11 1_555 1_555
H6 C12 1_555 1_555
H7 C13 1_555 1_555
H8 C14 1_555 1_555
H9 C15 1_555 1_555
C17 C15 1_555 1_555
C18 C16 1_555 1_555
H10 C16 1_555 1_555
C19 C17 1_555 1_555
C20 C17 1_555 1_555
C21 C18 1_555 1_555
H11 C20 1_555 1_555
C22 C21 1_555 1_555
C23 C21 1_555 1_555
C24 C22 1_555 1_555
H12 C22 1_555 1_555
C25 C23 1_555 1_555
H13 C23 1_555 1_555
C26 C24 1_555 1_555
C27 C24 1_555 1_555
H14 C25 1_555 1_555
C28 C26 1_555 1_555
C29 C26 1_555 1_555
H15 C27 1_555 1_555
C30 C28 1_555 1_555
H16 C28 1_555 1_555
H17 C29 1_555 1_555
C31 C29 1_555 1_555
C32 C30 1_555 1_555
C33 C30 1_555 1_555
C34 C31 1_555 1_555
H18 C32 1_555 1_555
O5 C33 1_555 1_555
O6 C33 1_555 1_555
O7 C34 1_555 1_555
O8 C34 1_555 1_555
H19 O6 1_555 1_555
H20 O7 1_555 1_555
O2D C19 1_555 1_555
O1E C19 1_555 1_555
Co1D O2D 1_555 1_555
Co1E O1E 1_555 1_555
O4 C5 1_555 1_555
C1 C4 1_555 1_555
C7 C12 1_555 1_555
C9 C13 1_555 1_555
C11 C14 1_555 1_555
C18 C20 1_555 1_555
C25 C27 1_555 1_555
C31 C32 1_555 1_555

#END
