
#######################################################################
#
#                 Cambridge Crystallographic Data Centre
#                                CCDC 
#
#######################################################################
#
# If this CIF has been generated from an entry in the Cambridge 
# Structural Database, then it will include bibliographic, chemical, 
# crystal, experimental, refinement or atomic coordinate data resulting 
# from the CCDC's data processing and validation procedures.
#
#######################################################################

data_HOSJOO
_symmetry_cell_setting           monoclinic
_symmetry_space_group_name_H-M   'P 21/c'
_symmetry_Int_Tables_number      14
_space_group_name_Hall           '-P 2ybc'
loop_
_symmetry_equiv_pos_site_id
_symmetry_equiv_pos_as_xyz
1 x,y,z
2 x,1/2-y,1/2+z
3 -x,-y,-z
4 -x,1/2+y,1/2-z
_cell_length_a                   12.333(2)
_cell_length_b                   20.462(2)
_cell_length_c                   9.1490(10)
_cell_angle_alpha                90
_cell_angle_beta                 97.94(3)
_cell_angle_gamma                90
_cell_volume                     2286.69
loop_
_atom_site_label
_atom_site_type_symbol
_atom_site_fract_x
_atom_site_fract_y
_atom_site_fract_z
N1 N 0.4069(2) 0.64222(14) 0.7098(4)
S1 S 0.28549(7) 0.66126(5) 0.73590(12)
O1 O 0.21731(19) 0.61307(12) 0.6508(3)
O2 O 0.2716(2) 0.66636(15) 0.8887(3)
C1 C 0.2525(3) 0.73785(19) 0.6533(5)
H1 H 0.3005 0.7714 0.7037
H2 H 0.1761 0.7485 0.6612
H3 H 0.2627 0.7362 0.5490
S2 S 0.51083(8) 0.68069(5) 0.79254(12)
O3 O 0.4953(2) 0.75011(13) 0.7907(4)
O4 O 0.60362(19) 0.65655(13) 0.7274(3)
C2 C 0.5300(4) 0.6561(3) 0.9775(5)
H4 H 0.4653 0.6677 1.0232
H5 H 0.5945 0.6781 1.0300
H6 H 0.5409 0.6086 0.9829
P1 P 0.11392(7) 0.44488(4) 0.37990(11)
O5 O 0.21795(18) 0.48270(11) 0.4185(3)
C3 C 0.0881(3) 0.42621(16) 0.1864(4)
C4 C 0.1768(3) 0.42409(18) 0.1075(5)
H7 H 0.2481 0.4356 0.1534
C5 C 0.1593(4) 0.4048(2) -0.0399(5)
H8 H 0.2194 0.4026 -0.0944
C6 C 0.0567(4) 0.3889(2) -0.1072(5)
H9 H 0.0460 0.3755 -0.2075
C7 C -0.0307(4) 0.3924(2) -0.0297(5)
H10 H -0.1021 0.3823 -0.0773
C8 C -0.0156(3) 0.41047(18) 0.1173(4)
H11 H -0.0763 0.4121 0.1708
C9 C 0.1186(3) 0.36940(15) 0.4827(4)
C10 C 0.2197(3) 0.34586(18) 0.5462(4)
H12 H 0.2846 0.3692 0.5348
C11 C 0.2256(4) 0.2884(2) 0.6263(5)
H13 H 0.2948 0.2723 0.6699
C12 C 0.1327(4) 0.25468(19) 0.6431(5)
H14 H 0.1373 0.2158 0.7005
C13 C 0.0324(3) 0.27690(18) 0.5770(5)
H15 H -0.0318 0.2525 0.5866
C14 C 0.0241(3) 0.33428(18) 0.4969(4)
H16 H -0.0453 0.3496 0.4521
C15 C -0.0049(3) 0.48940(16) 0.4196(4)
H17 H -0.0150 0.5285 0.3556
H18 H -0.0706 0.4615 0.3962
C16 C 0.3454(3) 0.60248(19) 0.3642(4)
H19 H 0.3506 0.5823 0.2682
H20 H 0.3993 0.6378 0.3821
H21 H 0.2717 0.6203 0.3643
C17 C 0.3567(3) 0.48669(18) 0.7305(4)
H22 H 0.3850 0.4419 0.7309
H23 H 0.2788 0.4857 0.7415
H24 H 0.3970 0.5112 0.8126
O6 O 0.5492(2) 0.54222(13) 0.5750(3)
H25 H 0.5756(28) 0.5711(17) 0.6134(41)
Sn1 Sn 0.376604(19) 0.532227(12) 0.53019(3)
C15B C 0.0049(3) 0.51060(16) 0.5804(4)
Sn1B Sn 0.623396(19) 0.467773(12) 0.46981(3)
O6B O 0.4508(2) 0.45778(13) 0.4250(3)
P1B P -0.11392(7) 0.55512(4) 0.62010(11)
H17B H 0.0150 0.4715 0.6444
H18B H 0.0706 0.5385 0.6038
N1B N 0.5931(2) 0.35778(14) 0.2902(4)
O1B O 0.78269(19) 0.38693(12) 0.3492(3)
O5B O 0.78205(18) 0.51730(11) 0.5815(3)
C16B C 0.6546(3) 0.39752(19) 0.6358(4)
C17B C 0.6433(3) 0.51331(18) 0.2695(4)
H25B H 0.4244(28) 0.4289(17) 0.3866(41)
O5B_2 O -0.21795(18) 0.51730(11) 0.5815(3)
C3B C -0.0881(3) 0.57379(16) 0.8136(4)
C9B C -0.1186(3) 0.63060(15) 0.5173(4)
S1B S 0.71451(7) 0.33874(5) 0.26410(12)
S2B S 0.48917(8) 0.31931(5) 0.20746(12)
H19B H 0.6494 0.4177 0.7318
H20B H 0.6007 0.3622 0.6179
H21B H 0.7283 0.3797 0.6357
H22B H 0.6150 0.5581 0.2691
H23B H 0.7212 0.5143 0.2585
H24B H 0.6030 0.4888 0.1874
Sn1B_2 Sn -0.376604(19) 0.467773(12) 0.46981(3)
C4B C -0.1768(3) 0.57591(18) 0.8925(5)
C8B C 0.0156(3) 0.58953(18) 0.8827(4)
C10B C -0.2197(3) 0.65414(18) 0.4538(4)
C14B C -0.0241(3) 0.66572(18) 0.5031(4)
O2B O 0.7284(2) 0.33364(15) 0.1113(3)
C1B C 0.7475(3) 0.26215(19) 0.3467(5)
O3B O 0.5047(2) 0.24989(13) 0.2093(4)
O4B O 0.39638(19) 0.34345(13) 0.2726(3)
C2B C 0.4700(4) 0.3439(3) 0.0225(5)
H7B H -0.2481 0.5644 0.8466
C5B C -0.1593(4) 0.5952(2) 1.0399(5)
C7B C 0.0307(4) 0.6076(2) 1.0297(5)
H11B H 0.0763 0.5879 0.8292
H12B H -0.2846 0.6308 0.4652
C11B C -0.2256(4) 0.7116(2) 0.3737(5)
C13B C -0.0324(3) 0.72310(18) 0.4230(5)
H16B H 0.0453 0.6504 0.5479
H1B H 0.6995 0.2286 0.2963
H2B H 0.8239 0.2515 0.3388
H3B H 0.7373 0.2638 0.4510
H4B H 0.5347 0.3323 -0.0232
H5B H 0.4055 0.3219 -0.0300
H6B H 0.4591 0.3914 0.0171
H8B H -0.2194 0.5974 1.0944
C6B C -0.0567(4) 0.6111(2) 1.1072(5)
H10B H 0.1021 0.6177 1.0773
H13B H -0.2948 0.7277 0.3301
C12B C -0.1327(4) 0.74532(19) 0.3569(5)
H15B H 0.0318 0.7475 0.4134
H9B H -0.0460 0.6245 1.2075
H14B H -0.1373 0.7842 0.2995
loop_
_geom_bond_atom_site_label_1
_geom_bond_atom_site_label_2
_geom_bond_site_symmetry_1
_geom_bond_site_symmetry_2
N1 S1 1_555 1_555
S1 O1 1_555 1_555
O1 Sn1 1_555 1_555
O2 S1 1_555 1_555
C1 S1 1_555 1_555
H1 C1 1_555 1_555
H2 C1 1_555 1_555
H3 C1 1_555 1_555
S2 N1 1_555 1_555
O3 S2 1_555 1_555
O4 S2 1_555 1_555
C2 S2 1_555 1_555
H4 C2 1_555 1_555
H5 C2 1_555 1_555
H6 C2 1_555 1_555
P1 O5 1_555 1_555
O5 Sn1 1_555 1_555
C3 P1 1_555 1_555
C4 C3 1_555 1_555
H7 C4 1_555 1_555
C5 C4 1_555 1_555
H8 C5 1_555 1_555
C6 C5 1_555 1_555
H9 C6 1_555 1_555
C7 C6 1_555 1_555
H10 C7 1_555 1_555
C8 C3 1_555 1_555
H11 C8 1_555 1_555
C9 P1 1_555 1_555
C10 C9 1_555 1_555
H12 C10 1_555 1_555
C11 C10 1_555 1_555
H13 C11 1_555 1_555
C12 C11 1_555 1_555
H14 C12 1_555 1_555
C13 C12 1_555 1_555
H15 C13 1_555 1_555
C14 C9 1_555 1_555
H16 C14 1_555 1_555
C15 P1 1_555 1_555
H17 C15 1_555 1_555
H18 C15 1_555 1_555
C16 H19 1_555 1_555
H20 C16 1_555 1_555
H21 C16 1_555 1_555
C17 H22 1_555 1_555
H23 C17 1_555 1_555
H24 C17 1_555 1_555
O6 H25 1_555 1_555
Sn1 N1 1_555 1_555
C15B C15 1_555 1_555
Sn1B O6 1_555 1_555
O6B Sn1 1_555 1_555
P1B C15B 1_555 1_555
H17B C15B 1_555 1_555
H18B C15B 1_555 1_555
N1B Sn1B 1_555 1_555
O1B Sn1B 1_555 1_555
O5B Sn1B 1_555 1_555
C16B Sn1B 1_555 1_555
C17B Sn1B 1_555 1_555
H25B O6B 1_555 1_555
O5B_2 P1B 1_555 1_555
C3B P1B 1_555 1_555
C9B P1B 1_555 1_555
S1B N1B 1_555 1_555
S2B N1B 1_555 1_555
H19B C16B 1_555 1_555
H20B C16B 1_555 1_555
H21B C16B 1_555 1_555
H22B C17B 1_555 1_555
H23B C17B 1_555 1_555
H24B C17B 1_555 1_555
Sn1B_2 O5B_2 1_555 1_555
C4B C3B 1_555 1_555
C8B C3B 1_555 1_555
C10B C9B 1_555 1_555
C14B C9B 1_555 1_555
O2B S1B 1_555 1_555
C1B S1B 1_555 1_555
O3B S2B 1_555 1_555
O4B S2B 1_555 1_555
C2B S2B 1_555 1_555
H7B C4B 1_555 1_555
C5B C4B 1_555 1_555
C7B C8B 1_555 1_555
H11B C8B 1_555 1_555
H12B C10B 1_555 1_555
C11B C10B 1_555 1_555
C13B C14B 1_555 1_555
H16B C14B 1_555 1_555
H1B C1B 1_555 1_555
H2B C1B 1_555 1_555
H3B C1B 1_555 1_555
H4B C2B 1_555 1_555
H5B C2B 1_555 1_555
H6B C2B 1_555 1_555
H8B C5B 1_555 1_555
C6B C5B 1_555 1_555
H10B C7B 1_555 1_555
H13B C11B 1_555 1_555
C12B C11B 1_555 1_555
H15B C13B 1_555 1_555
H9B C6B 1_555 1_555
H14B C12B 1_555 1_555
C7 C8 1_555 1_555
C13 C14 1_555 1_555
C16 Sn1 1_555 1_555
C17 Sn1 1_555 1_555
O6 Sn1 1_555 1_555
Sn1B O6B 1_555 1_555
O1B S1B 1_555 1_555
C7B C6B 1_555 1_555
C13B C12B 1_555 1_555

#END
