
#######################################################################
#
#                 Cambridge Crystallographic Data Centre
#                                CCDC 
#
#######################################################################
#
# If this CIF has been generated from an entry in the Cambridge 
# Structural Database, then it will include bibliographic, chemical, 
# crystal, experimental, refinement or atomic coordinate data resulting 
# from the CCDC's data processing and validation procedures.
#
#######################################################################

data_HOSNUZ
_symmetry_cell_setting           monoclinic
_symmetry_space_group_name_H-M   'P 2/c'
_symmetry_Int_Tables_number      13
_space_group_name_Hall           '-P 2yc'
loop_
_symmetry_equiv_pos_site_id
_symmetry_equiv_pos_as_xyz
1 x,y,z
2 -x,y,1/2-z
3 -x,-y,-z
4 x,-y,1/2+z
_cell_length_a                   13.4960(10)
_cell_length_b                   4.9310(10)
_cell_length_c                   12.3570(10)
_cell_angle_alpha                90
_cell_angle_beta                 113.3520(10)
_cell_angle_gamma                90
_cell_volume                     754.983
loop_
_atom_site_label
_atom_site_type_symbol
_atom_site_fract_x
_atom_site_fract_y
_atom_site_fract_z
Zn1 Zn 0.0000 0.02532(7) 0.2500
O1 O 0.48509(13) 1.0388(3) 0.65056(14)
O2 O 0.06484(17) -0.2446(4) 0.17945(17)
O3 O 0.07014(13) 0.2515(3) 0.46679(14)
O4 O 0.12200(13) 0.2746(3) 0.31887(13)
C1 C 0.39531(18) 0.8759(5) 0.60267(19)
C2 C 0.22564(18) 0.6856(4) 0.58165(19)
H1 H 0.1685 0.6754 0.6055
C3 C 0.13275(18) 0.3401(4) 0.42419(18)
C4 C 0.5000 1.1980(7) 0.7500
H2 H 0.4375 1.3138 0.7330
C5 C 0.22362(18) 0.5269(4) 0.48823(19)
C6 C 0.31099(19) 0.8591(5) 0.6403(2)
H3 H 0.3119 0.9624 0.7037
C7 C 0.3096(2) 0.5481(5) 0.4528(2)
H4 H 0.3092 0.4453 0.3896
C8 C 0.3942(2) 0.7180(5) 0.5100(2)
H5 H 0.4515 0.7273 0.4863
H6 H 0.069(3) -0.244(7) 0.110(3)
H7 H 0.085(2) -0.374(6) 0.210(2)
Zn1_2 Zn 1.0000 0.02532(7) 1.2500
O1A O 0.51491(13) 1.0388(3) 0.84944(14)
O2A O -0.06484(17) -0.2446(4) 0.32055(17)
O3A O 0.92986(13) 0.2515(3) 1.03321(14)
O4A O 0.87800(13) 0.2746(3) 1.18113(13)
O4A_2 O -0.12200(13) 0.2746(3) 0.18113(13)
C1A C 0.60469(18) 0.8759(5) 0.89733(19)
C2A C 0.77436(18) 0.6856(4) 0.91835(19)
H1A H 0.8315 0.6754 0.8945
C3A C 0.86725(18) 0.3401(4) 1.07581(18)
H2A H 0.5625 1.3138 0.7670
C5A C 0.77638(18) 0.5269(4) 1.01177(19)
C6A C 0.68901(19) 0.8591(5) 0.8597(2)
H3A H 0.6881 0.9624 0.7963
C7A C 0.6904(2) 0.5481(5) 1.0472(2)
H4A H 0.6908 0.4453 1.1104
C8A C 0.6058(2) 0.7180(5) 0.9900(2)
H5A H 0.5485 0.7273 1.0137
H6A H -0.069(3) -0.244(7) 0.390(3)
H7A H -0.085(2) -0.374(6) 0.290(2)
loop_
_geom_bond_atom_site_label_1
_geom_bond_atom_site_label_2
_geom_bond_site_symmetry_1
_geom_bond_site_symmetry_2
Zn1 O2 1_555 1_555
O1 C1 1_555 1_555
O2 H6 1_555 1_555
O3 C3 1_555 1_555
O4 Zn1 1_555 1_555
C1 C6 1_555 1_555
C2 H1 1_555 1_555
C3 O4 1_555 1_555
C4 O1 1_555 1_555
H2 C4 1_555 1_555
C5 C2 1_555 1_555
C6 C2 1_555 1_555
H3 C6 1_555 1_555
C7 C5 1_555 1_555
H4 C7 1_555 1_555
C8 C1 1_555 1_555
H5 C8 1_555 1_555
H7 O2 1_555 1_555
Zn1_2 O4A 1_555 1_555
O1A C4 1_555 1_555
O2A Zn1 1_555 1_555
O3A C3A 1_555 1_555
O4A C3A 1_555 1_555
O4A_2 Zn1 1_555 1_555
C1A O1A 1_555 1_555
C2A H1A 1_555 1_555
C3A C5A 1_555 1_555
H2A C4 1_555 1_555
C5A C2A 1_555 1_555
C6A C1A 1_555 1_555
H3A C6A 1_555 1_555
C7A C5A 1_555 1_555
H4A C7A 1_555 1_555
C8A C1A 1_555 1_555
H5A C8A 1_555 1_555
H6A O2A 1_555 1_555
H7A O2A 1_555 1_555
C3 C5 1_555 1_555
C7 C8 1_555 1_555
C2A C6A 1_555 1_555
C7A C8A 1_555 1_555

#END
