
#######################################################################
#
#                 Cambridge Crystallographic Data Centre
#                                CCDC 
#
#######################################################################
#
# If this CIF has been generated from an entry in the Cambridge 
# Structural Database, then it will include bibliographic, chemical, 
# crystal, experimental, refinement or atomic coordinate data resulting 
# from the CCDC's data processing and validation procedures.
#
#######################################################################

data_HOSPIQ
_symmetry_cell_setting           monoclinic
_symmetry_space_group_name_H-M   'P c'
_symmetry_Int_Tables_number      7
_space_group_name_Hall           'P -2yc'
loop_
_symmetry_equiv_pos_site_id
_symmetry_equiv_pos_as_xyz
1 x,y,z
2 x,-y,1/2+z
_cell_length_a                   8.1613(14)
_cell_length_b                   9.9004(18)
_cell_length_c                   14.630(3)
_cell_angle_alpha                90
_cell_angle_beta                 92.520(2)
_cell_angle_gamma                90
_cell_volume                     1180.96
loop_
_atom_site_label
_atom_site_type_symbol
_atom_site_fract_x
_atom_site_fract_y
_atom_site_fract_z
Hg1 Hg 0.56482(2) 0.72157(2) 0.853963(14)
Hg2 Hg 0.43564(2) 0.89403(2) 1.146307(15)
I1 I 0.70813(5) 0.72110(4) 0.69294(2)
I2 I 0.46371(5) 0.94557(4) 0.93874(2)
I3 I 0.71377(5) 0.78305(4) 1.20509(3)
I4 I 0.18153(5) 1.05600(4) 1.16251(3)
O1 O 0.8409(5) 0.7087(4) 0.9638(3)
N1 N 0.3395(6) 0.5569(5) 0.8475(3)
N2 N 0.6385(6) 0.5059(5) 0.9285(3)
N3 N 0.7875(5) 0.4856(4) 0.9725(3)
H1 H 0.8194 0.4044 0.9900
N4 N 1.2889(5) 0.6810(4) 1.1002(3)
C1 C 0.1893(7) 0.5806(6) 0.8105(3)
H2 H 0.1579 0.6711 0.7970
C2 C 0.0766(7) 0.4760(6) 0.7908(4)
H3 H -0.0302 0.4960 0.7661
C3 C 0.1232(7) 0.3439(6) 0.8079(4)
H4 H 0.0503 0.2714 0.7935
C4 C 0.2783(7) 0.3195(6) 0.8464(4)
H5 H 0.3131 0.2296 0.8591
C5 C 0.3815(7) 0.4261(6) 0.8662(4)
C6 C 0.5444(7) 0.4045(5) 0.9122(4)
H6 H 0.5790 0.3161 0.9294
C7 C 0.8839(7) 0.5946(6) 0.9884(4)
C8 C 1.0478(6) 0.5721(5) 1.0350(3)
C9 C 1.1195(7) 0.4450(5) 1.0505(4)
H7 H 1.0619 0.3647 1.0338
C10 C 1.2763(8) 0.4391(6) 1.0905(4)
H8 H 1.3276 0.3543 1.1022
C11 C 1.3580(7) 0.5587(6) 1.1135(4)
H9 H 1.4665 0.5537 1.1396
C12 C 1.1373(7) 0.6862(6) 1.0613(4)
H10 H 1.0884 0.7723 1.0512
Hg2_2 Hg 1.43564(2) 0.89403(2) 1.146307(15)
N4_2 N 0.2889(5) 0.6810(4) 1.1002(3)
N5 N -0.1352(7) 0.2025(5) 0.9722(3)
C13 C -0.0954(7) 0.1072(6) 0.9364(4)
C14 C -0.0433(8) -0.0162(6) 0.8914(5)
H11 H 0.0768 -0.0209 0.8938
H12 H -0.0842 -0.0159 0.8274
H13 H -0.0875 -0.0948 0.9228
loop_
_geom_bond_atom_site_label_1
_geom_bond_atom_site_label_2
_geom_bond_site_symmetry_1
_geom_bond_site_symmetry_2
Hg1 I1 1_555 1_555
Hg2 I2 1_555 1_555
I2 Hg1 1_555 1_555
I3 Hg2 1_555 1_555
I4 Hg2 1_555 1_555
O1 Hg1 1_555 1_555
N1 Hg1 1_555 1_555
N2 Hg1 1_555 1_555
N3 N2 1_555 1_555
H1 N3 1_555 1_555
N4 C11 1_555 1_555
C1 N1 1_555 1_555
H2 C1 1_555 1_555
C2 C1 1_555 1_555
H3 C2 1_555 1_555
C3 C2 1_555 1_555
H4 C3 1_555 1_555
C4 C3 1_555 1_555
H5 C4 1_555 1_555
C5 N1 1_555 1_555
C6 N2 1_555 1_555
H6 C6 1_555 1_555
C7 O1 1_555 1_555
C8 C7 1_555 1_555
C9 C8 1_555 1_555
H7 C9 1_555 1_555
C10 C9 1_555 1_555
H8 C10 1_555 1_555
C11 C10 1_555 1_555
H9 C11 1_555 1_555
C12 N4 1_555 1_555
H10 C12 1_555 1_555
N5 C13 1_555 1_555
C13 C14 1_555 1_555
C14 H11 1_555 1_555
H12 C14 1_555 1_555
H13 C14 1_555 1_555
Hg2_2 N4 1_555 1_555
N4_2 Hg2 1_555 1_555
N3 C7 1_555 1_555
C4 C5 1_555 1_555
C5 C6 1_555 1_555
C8 C12 1_555 1_555

#END
