
#######################################################################
#
#                 Cambridge Crystallographic Data Centre
#                                CCDC 
#
#######################################################################
#
# If this CIF has been generated from an entry in the Cambridge 
# Structural Database, then it will include bibliographic, chemical, 
# crystal, experimental, refinement or atomic coordinate data resulting 
# from the CCDC's data processing and validation procedures.
#
#######################################################################

data_HOSPAH
_symmetry_cell_setting           orthorhombic
_symmetry_space_group_name_H-M   'F d d 2'
_symmetry_Int_Tables_number      43
_space_group_name_Hall           'F 2 -2d'
loop_
_symmetry_equiv_pos_site_id
_symmetry_equiv_pos_as_xyz
1 x,y,z
2 -x,-y,z
3 1/4+x,1/4-y,1/4+z
4 1/4-x,1/4+y,1/4+z
5 x,1/2+y,1/2+z
6 -x,1/2-y,1/2+z
7 1/4+x,3/4-y,3/4+z
8 1/4-x,3/4+y,3/4+z
9 1/2+x,y,1/2+z
10 1/2-x,-y,1/2+z
11 3/4+x,1/4-y,3/4+z
12 3/4-x,1/4+y,3/4+z
13 1/2+x,1/2+y,z
14 1/2-x,1/2-y,z
15 3/4+x,3/4-y,1/4+z
16 3/4-x,3/4+y,1/4+z
_cell_length_a                   20.0624(4)
_cell_length_b                   32.5018(6)
_cell_length_c                   8.0268(2)
_cell_angle_alpha                90
_cell_angle_beta                 90
_cell_angle_gamma                90
_cell_volume                     5233.99
loop_
_atom_site_label
_atom_site_type_symbol
_atom_site_fract_x
_atom_site_fract_y
_atom_site_fract_z
Ni1 Ni 0.606548(9) 0.227000(5) 0.78384(2)
N1 N 0.55175(7) 0.27249(4) 0.65206(17)
N2 N 0.47332(7) 0.29025(4) 0.44204(17)
C1 C 0.50701(7) 0.26330(4) 0.5344(2)
H1 H 0.4985 0.2350 0.5149
C2 C 0.48569(8) 0.33035(5) 0.4691(2)
H2 H 0.4634 0.3505 0.4036
C3 C 0.52997(9) 0.34281(5) 0.5898(2)
H3 H 0.5379 0.3712 0.6103
C4 C 0.56250(9) 0.31286(5) 0.6799(2)
H4 H 0.5933 0.3208 0.7638
N3 N 0.69268(6) 0.24119(4) 0.64396(16)
C5 C 0.7500 0.2500 0.7204(3)
H5 H 0.7500 0.2500 0.8388
C6 C 0.7500 0.2500 0.3882(3)
H6 H 0.7500 0.2500 0.2698
C7 C 0.69298(8) 0.24151(6) 0.4778(2)
H7 H 0.6528 0.2357 0.4196
N4 N 0.58003(7) 0.18291(4) 0.61601(18)
C8 C 0.55990(7) 0.15388(4) 0.5486(2)
S1 S 0.53215(3) 0.113396(13) 0.45037(6)
N5 N 0.63443(7) 0.26781(4) 0.96274(18)
C9 C 0.63460(8) 0.29113(5) 1.07238(19)
S2 S 0.63423(3) 0.323347(15) 1.22718(6)
O1 O 0.66278(7) 0.18126(4) 0.90523(16)
C10 C 0.67557(12) 0.17680(6) 1.0780(3)
H8 H 0.6591 0.2011 1.1375
H9 H 0.7237 0.1740 1.0962
H10 H 0.6528 0.1522 1.1198
H11 H 0.6830(14) 0.1640(8) 0.854(3)
Ni1E Ni 0.393452(9) 0.273000(5) 1.28384(2)
Ni1E_2 Ni 0.393452(9) 0.273000(5) 0.28384(2)
Ni1M Ni 0.893452(9) 0.273000(5) 0.78384(2)
N1E N 0.44825(7) 0.22751(4) 1.15206(17)
N2E N 0.52668(7) 0.20975(4) 0.94204(17)
N2_2 N 0.47332(7) 0.29025(4) 1.44204(17)
C1E C 0.49299(7) 0.23670(4) 1.0344(2)
H1E H 0.5015 0.2650 1.0149
C2E C 0.51431(8) 0.16965(5) 0.9691(2)
H2E H 0.5366 0.1495 0.9036
C3E C 0.47003(9) 0.15719(5) 1.0898(2)
H3E H 0.4621 0.1288 1.1103
C4E C 0.43750(9) 0.18714(5) 1.1799(2)
H4E H 0.4067 0.1792 1.2638
N3M N 0.80732(6) 0.25881(4) 0.64396(16)
N3E N 0.30732(6) 0.25881(4) 1.14396(16)
C7M C 0.80702(8) 0.25849(6) 0.4778(2)
H7M H 0.8472 0.2643 0.4196
N4E N 0.41997(7) 0.31709(4) 1.11601(18)
C8E C 0.44010(7) 0.34612(4) 1.0486(2)
S1E S 0.46785(3) 0.386604(13) 0.95037(6)
N5E N 0.36557(7) 0.23219(4) 1.46274(18)
C9E C 0.36540(8) 0.20887(5) 1.57238(19)
S2E S 0.36577(3) 0.176653(15) 1.72718(6)
O1E O 0.33722(7) 0.31874(4) 1.40523(16)
C10E C 0.32443(12) 0.32320(6) 1.5780(3)
H8E H 0.3409 0.2989 1.6375
H9E H 0.2763 0.3260 1.5962
H10E H 0.3472 0.3478 1.6198
H11E H 0.3170(14) 0.3360(8) 1.354(3)
loop_
_geom_bond_atom_site_label_1
_geom_bond_atom_site_label_2
_geom_bond_site_symmetry_1
_geom_bond_site_symmetry_2
Ni1 N1 1_555 1_555
N1 C1 1_555 1_555
N2 C1 1_555 1_555
C1 H1 1_555 1_555
C2 N2 1_555 1_555
H2 C2 1_555 1_555
C3 C2 1_555 1_555
H3 C3 1_555 1_555
C4 N1 1_555 1_555
H4 C4 1_555 1_555
N3 Ni1 1_555 1_555
C5 N3 1_555 1_555
H5 C5 1_555 1_555
C6 H6 1_555 1_555
C7 N3 1_555 1_555
H7 C7 1_555 1_555
N4 Ni1 1_555 1_555
C8 N4 1_555 1_555
S1 C8 1_555 1_555
N5 Ni1 1_555 1_555
C9 N5 1_555 1_555
S2 C9 1_555 1_555
O1 Ni1 1_555 1_555
C10 O1 1_555 1_555
H8 C10 1_555 1_555
H9 C10 1_555 1_555
H10 C10 1_555 1_555
H11 O1 1_555 1_555
Ni1E N1E 1_555 1_555
Ni1E_2 N2 1_555 1_555
Ni1M N3M 1_555 1_555
N1E C1E 1_555 1_555
N2E Ni1 1_555 1_555
N2_2 Ni1E 1_555 1_555
C1E N2E 1_555 1_555
H1E C1E 1_555 1_555
C2E N2E 1_555 1_555
H2E C2E 1_555 1_555
C3E C2E 1_555 1_555
H3E C3E 1_555 1_555
C4E N1E 1_555 1_555
H4E C4E 1_555 1_555
N3M C5 1_555 1_555
N3E Ni1E 1_555 1_555
C7M C6 1_555 1_555
H7M C7M 1_555 1_555
N4E Ni1E 1_555 1_555
C8E N4E 1_555 1_555
S1E C8E 1_555 1_555
N5E Ni1E 1_555 1_555
C9E N5E 1_555 1_555
S2E C9E 1_555 1_555
O1E Ni1E 1_555 1_555
C10E O1E 1_555 1_555
H8E C10E 1_555 1_555
H9E C10E 1_555 1_555
H10E C10E 1_555 1_555
H11E O1E 1_555 1_555
C3 C4 1_555 1_555
C6 C7 1_555 1_555
C3E C4E 1_555 1_555
N3M C7M 1_555 1_555

#END
