
#######################################################################
#
#                 Cambridge Crystallographic Data Centre
#                                CCDC 
#
#######################################################################
#
# If this CIF has been generated from an entry in the Cambridge 
# Structural Database, then it will include bibliographic, chemical, 
# crystal, experimental, refinement or atomic coordinate data resulting 
# from the CCDC's data processing and validation procedures.
#
#######################################################################

data_HOSQAI
_symmetry_cell_setting           triclinic
_symmetry_space_group_name_H-M   'P -1'
_symmetry_Int_Tables_number      2
_space_group_name_Hall           '-P 1'
loop_
_symmetry_equiv_pos_site_id
_symmetry_equiv_pos_as_xyz
1 x,y,z
2 -x,-y,-z
_cell_length_a                   7.969(6)
_cell_length_b                   9.979(6)
_cell_length_c                   10.259(7)
_cell_angle_alpha                114.97(2)
_cell_angle_beta                 90.83(3)
_cell_angle_gamma                93.70(3)
_cell_volume                     737.24
loop_
_atom_site_label
_atom_site_type_symbol
_atom_site_fract_x
_atom_site_fract_y
_atom_site_fract_z
C1 C 0.6521(2) 0.1455(2) 0.94674(17)
H1 H 0.6695 0.2157 1.0416
C2 C 0.5873(2) 0.16729(19) 0.83506(17)
H2 H 0.5516 0.2565 0.8409
C3 C 0.64306(19) -0.06103(17) 0.75067(16)
H3 H 0.6543 -0.1596 0.6885
C4 C 0.7646(2) -0.0765(2) 0.9698(2)
H4 H 0.7167 -0.1783 0.9312
H5 H 0.7386 -0.0288 1.0705
C5 C 0.9543(2) -0.07561(17) 0.95821(18)
H6 H 0.9958 -0.1443 0.9931
H7 H 0.9803 -0.1107 0.8576
C6 C 0.2259(2) 0.22255(18) 0.64249(18)
H8 H 0.2873 0.2993 0.6314
C7 C 0.1451(2) 0.00888(18) 0.63070(18)
H9 H 0.1409 -0.0916 0.6093
C8 C 0.0303(2) 0.10224(18) 0.70471(18)
H10 H -0.0658 0.0784 0.7432
C9 C 0.0058(2) 0.3775(2) 0.7958(2)
H11 H -0.1151 0.3629 0.7760
H12 H 0.0495 0.4529 0.7663
C10 C 0.0423(3) 0.43001(19) 0.9552(2)
H13 H 0.1630 0.4487 0.9751
H14 H 0.0038 0.3522 0.9832
Co1 Co 0.5000 0.0000 0.5000
N1 N 0.58238(16) 0.03688(14) 0.71136(13)
N2 N 0.68668(16) -0.00004(15) 0.89242(14)
N3 N 0.26947(15) 0.08534(14) 0.59164(13)
N4 N 0.08195(17) 0.23842(15) 0.71246(15)
O1 O 0.59361(16) 0.22377(12) 0.53595(13)
H15 H 0.5827 0.3049 0.6089
H16 H 0.6273 0.2429 0.4670
C1A C 1.3479(2) -0.1455(2) 1.05326(17)
H1A H 1.3305 -0.2157 0.9584
C2A C 1.4127(2) -0.16729(19) 1.16494(17)
H2A H 1.4484 -0.2565 1.1591
C3A C 1.35694(19) 0.06103(17) 1.24933(16)
H3A H 1.3457 0.1596 1.3115
C4A C 1.2354(2) 0.0765(2) 1.0302(2)
H4A H 1.2833 0.1783 1.0688
H5A H 1.2614 0.0288 0.9295
C5A C 1.0457(2) 0.07561(17) 1.04179(18)
H6A H 1.0042 0.1443 1.0069
H7A H 1.0197 0.1107 1.1424
C6A C -0.2259(2) 0.77745(18) 1.35751(18)
H8A H -0.2873 0.7007 1.3686
C7A C -0.1451(2) 0.99112(18) 1.36930(18)
H9A H -0.1409 1.0916 1.3907
C8A C -0.0303(2) 0.89776(18) 1.29529(18)
H10A H 0.0658 0.9216 1.2568
C9A C -0.0058(2) 0.6225(2) 1.2042(2)
H11A H 0.1151 0.6371 1.2240
H12A H -0.0495 0.5471 1.2337
C10A C -0.0423(3) 0.56999(19) 1.0448(2)
H13A H -0.1630 0.5513 1.0249
H14A H -0.0038 0.6478 1.0168
Co1_2 Co 1.5000 0.0000 1.5000
Co1_3 Co -0.5000 1.0000 1.5000
N1A N 1.41762(16) -0.03688(14) 1.28864(13)
N1A_2 N 0.41762(16) -0.03688(14) 0.28864(13)
N2A N 1.31332(16) 0.00004(15) 1.10758(14)
N3A N -0.26947(15) 0.91466(14) 1.40836(13)
N3A_2 N 0.73053(15) -0.08534(14) 0.40836(13)
N4A N -0.08195(17) 0.76158(15) 1.28754(15)
O1A O 0.40639(16) -0.22377(12) 0.46405(13)
H15A H 0.4173 -0.3049 0.3911
H16A H 0.3727 -0.2429 0.5330
Cl1 Cl 0.74821(7) 0.35621(5) 0.32791(5)
O2 O 0.1615(2) 0.38041(17) 0.36469(18)
H17 H 0.1812 0.4490 0.4489
H18 H 0.0554 0.3700 0.3490
O3 O 0.4231(2) 0.49280(17) 0.24618(19)
H19 H 0.3378 0.4575 0.2734
H20 H 0.5121 0.4639 0.2693
loop_
_geom_bond_atom_site_label_1
_geom_bond_atom_site_label_2
_geom_bond_site_symmetry_1
_geom_bond_site_symmetry_2
C1 H1 1_555 1_555
C2 C1 1_555 1_555
H2 C2 1_555 1_555
C3 H3 1_555 1_555
C4 H4 1_555 1_555
H5 C4 1_555 1_555
C5 C4 1_555 1_555
H6 C5 1_555 1_555
H7 C5 1_555 1_555
C6 H8 1_555 1_555
C7 H9 1_555 1_555
C8 C7 1_555 1_555
H10 C8 1_555 1_555
C9 H11 1_555 1_555
H12 C9 1_555 1_555
C10 C9 1_555 1_555
H13 C10 1_555 1_555
H14 C10 1_555 1_555
Co1 N1 1_555 1_555
N1 C2 1_555 1_555
N2 C1 1_555 1_555
N3 C6 1_555 1_555
N4 C6 1_555 1_555
O1 Co1 1_555 1_555
H15 O1 1_555 1_555
H16 O1 1_555 1_555
O2 H17 1_555 1_555
H18 O2 1_555 1_555
O3 H19 1_555 1_555
H20 O3 1_555 1_555
C1A H1A 1_555 1_555
C2A C1A 1_555 1_555
H2A C2A 1_555 1_555
C3A H3A 1_555 1_555
C4A H4A 1_555 1_555
H5A C4A 1_555 1_555
C5A C5 1_555 1_555
H6A C5A 1_555 1_555
H7A C5A 1_555 1_555
C6A H8A 1_555 1_555
C7A H9A 1_555 1_555
C8A C7A 1_555 1_555
H10A C8A 1_555 1_555
C9A H11A 1_555 1_555
H12A C9A 1_555 1_555
C10A C10 1_555 1_555
H13A C10A 1_555 1_555
H14A C10A 1_555 1_555
Co1_2 N1A 1_555 1_555
Co1_3 N3A 1_555 1_555
N1A C2A 1_555 1_555
N1A_2 Co1 1_555 1_555
N2A C1A 1_555 1_555
N3A C6A 1_555 1_555
N3A_2 Co1 1_555 1_555
N4A C6A 1_555 1_555
O1A Co1 1_555 1_555
H15A O1A 1_555 1_555
H16A O1A 1_555 1_555
C3 N1 1_555 1_555
C3 N2 1_555 1_555
C4 N2 1_555 1_555
C7 N3 1_555 1_555
C8 N4 1_555 1_555
C9 N4 1_555 1_555
Co1 N3 1_555 1_555
C3A N1A 1_555 1_555
C3A N2A 1_555 1_555
C4A C5A 1_555 1_555
C4A N2A 1_555 1_555
C7A N3A 1_555 1_555
C8A N4A 1_555 1_555
C9A C10A 1_555 1_555
C9A N4A 1_555 1_555

#END
