
#######################################################################
#
#                 Cambridge Crystallographic Data Centre
#                                CCDC 
#
#######################################################################
#
# If this CIF has been generated from an entry in the Cambridge 
# Structural Database, then it will include bibliographic, chemical, 
# crystal, experimental, refinement or atomic coordinate data resulting 
# from the CCDC's data processing and validation procedures.
#
#######################################################################

data_HOSSUE
_symmetry_cell_setting           monoclinic
_symmetry_space_group_name_H-M   'P 21/n'
_symmetry_Int_Tables_number      14
_space_group_name_Hall           '-P 2yn'
loop_
_symmetry_equiv_pos_site_id
_symmetry_equiv_pos_as_xyz
1 x,y,z
2 1/2-x,1/2+y,1/2-z
3 -x,-y,-z
4 1/2+x,1/2-y,1/2+z
_cell_length_a                   7.8756(12)
_cell_length_b                   17.294(3)
_cell_length_c                   11.7700(18)
_cell_angle_alpha                90
_cell_angle_beta                 93.281(5)
_cell_angle_gamma                90
_cell_volume                     1600.45
loop_
_atom_site_label
_atom_site_type_symbol
_atom_site_fract_x
_atom_site_fract_y
_atom_site_fract_z
Co1 Co 0.5000 0.5000 0.5000
Na1 Na 0.67790(8) 0.83026(4) 0.04473(6)
Na2 Na 0.40642(9) 0.26855(4) 0.19976(5)
S1 S 0.28585(5) 0.72991(2) 0.01806(3)
O1 O 0.42263(15) 0.52219(6) 0.33357(9)
O2 O 0.42504(18) 0.40595(6) 0.25165(9)
O3 O 0.1617(2) 0.37979(7) -0.13019(11)
O4 O 0.11425(17) 0.47988(7) -0.24435(10)
O5 O 0.45517(15) 0.74752(7) -0.01734(10)
O6 O 0.25309(16) 0.76048(6) 0.12948(10)
O7 O 0.15486(14) 0.75313(6) -0.06860(10)
O8 O 0.75313(16) 0.52064(8) 0.46031(11)
H1 H 0.8214 0.5439 0.5062
H2 H 0.7812 0.5310 0.3929
O9 O 0.53565(14) 0.38179(6) 0.46304(9)
H3 H 0.4672 0.3521 0.4963
H4 H 0.5048 0.3772 0.3941
O10 O 0.79888(17) 0.76175(7) 0.21484(10)
H5 H 0.7460 0.7617 0.2737
H6 H 0.8003 0.7140 0.1973
O11 O 0.81355(15) 0.71915(7) -0.05730(11)
H7 H 0.9220 0.7260 -0.0709
H8 H 0.8196 0.6860 -0.0018
O12 O 0.63020(15) 0.87242(7) -0.14918(10)
H9 H 0.7084 0.9045 -0.1573
H10 H 0.5458 0.8962 -0.1885
O13 O 0.46117(16) 0.90306(7) 0.13289(11)
H11 H 0.4969 0.9325 0.1859
H12 H 0.3887 0.8713 0.1629
C1 C 0.4040(2) 0.47732(9) 0.24890(13)
C2 C 0.3461(2) 0.51502(9) 0.13824(13)
C3 C 0.3431(2) 0.59494(8) 0.12797(12)
H13 H 0.3844 0.6260 0.1879
C4 C 0.27793(19) 0.62793(8) 0.02779(12)
C5 C 0.2182(2) 0.58293(9) -0.06349(13)
H14 H 0.1747 0.6061 -0.1303
C6 C 0.2241(2) 0.50268(8) -0.05391(13)
C7 C 0.2891(2) 0.46985(9) 0.04690(13)
H15 H 0.2944 0.4163 0.0532
C8 C 0.1620(2) 0.45023(9) -0.15059(13)
Na1B Na 0.32210(8) 0.16974(4) 0.95527(6)
Na1A Na 0.82210(8) 0.33026(4) 0.45527(6)
Na1C Na 0.17790(8) 0.66974(4) 0.54473(6)
Na1B_2 Na 0.32210(8) 0.16974(4) -0.04473(6)
Na2B Na 0.59358(9) 0.73145(4) 0.80024(5)
Na2B_2 Na 0.59358(9) 0.73145(4) -0.19976(5)
Na2A Na 0.09358(9) 0.76855(4) 0.30024(5)
Na2A_2 Na 1.09358(9) 0.76855(4) 0.30024(5)
Na2_2 Na 0.40642(9) 0.26855(4) 1.19976(5)
Na2C Na 0.90642(9) 0.23145(4) 0.69976(5)
S1B S 0.71415(5) 0.27009(2) 0.98194(3)
O1B O 0.57737(15) 0.47781(6) 0.66643(9)
O2B O 0.57496(18) 0.59405(6) 0.74835(9)
O3B O 0.8383(2) 0.62021(7) 1.13019(11)
O4B O 0.88575(17) 0.52012(7) 1.24435(10)
O5B O 0.54483(15) 0.25248(7) 1.01734(10)
O5B_2 O 0.54483(15) 0.25248(7) 0.01734(10)
O5_2 O 0.45517(15) 0.74752(7) 0.98266(10)
O6B O 0.74691(16) 0.23952(6) 0.87052(10)
O6A O 0.24691(16) 0.26048(6) 0.37052(10)
O6C O 0.75309(16) 0.73952(6) 0.62948(10)
O7B O 0.84514(14) 0.24687(6) 1.06860(10)
O8B O 0.24687(16) 0.47936(8) 0.53969(11)
H1B H 0.1786 0.4561 0.4938
H2B H 0.2188 0.4690 0.6071
O9B O 0.46435(14) 0.61821(6) 0.53696(9)
O9A O 0.96435(14) 0.88179(6) 0.03696(9)
O9C O 0.03565(14) 0.11821(6) 0.96304(9)
H3B H 0.5328 0.6479 0.5037
H3A H 1.0328 0.8521 0.0037
H3C H -0.0328 0.1479 0.9963
H4B H 0.4952 0.6228 0.6059
H4A H 0.9952 0.8772 0.1059
H4C H 0.0048 0.1228 0.8941
O10A O 0.70112(17) 0.26175(7) 0.28516(10)
O10B O 0.20112(17) 0.23825(7) 0.78516(10)
O10C O 0.29888(17) 0.73825(7) 0.71484(10)
H5A H 0.7540 0.2617 0.2263
H5B H 0.2540 0.2383 0.7263
H5C H 0.2460 0.7383 0.7737
H6A H 0.6997 0.2140 0.3027
H6B H 0.1997 0.2860 0.8027
H6C H 0.3003 0.7860 0.6973
O11B O 0.18645(15) 0.28085(7) 0.05730(11)
O11B_2 O 0.18645(15) 0.28085(7) 1.05730(11)
O11_2 O 0.81355(15) 0.71915(7) 0.94270(11)
H7B H 0.0780 0.2740 0.0709
H7B_2 H 0.0780 0.2740 1.0709
H7_2 H 0.9220 0.7260 0.9291
H8B H 0.1804 0.3140 0.0018
H8B_2 H 0.1804 0.3140 1.0018
H8_2 H 0.8196 0.6860 0.9982
O12B O 0.36980(15) 0.12758(7) 0.14918(10)
O12B_2 O 0.36980(15) 0.12758(7) 1.14918(10)
O12_2 O 0.63020(15) 0.87242(7) 0.85082(10)
H9B H 0.2916 0.0955 0.1573
H9B_2 H 0.2916 0.0955 1.1573
H9_2 H 0.7084 0.9045 0.8427
H10B H 0.4542 0.1038 0.1885
H10B_2 H 0.4542 0.1038 1.1885
H10_2 H 0.5458 0.8962 0.8115
O13B O 0.53883(16) 0.09694(7) 0.86711(11)
H11B H 0.5031 0.0675 0.8141
H12B H 0.6113 0.1287 0.8371
C1B C 0.5960(2) 0.52268(9) 0.75110(13)
C2B C 0.6539(2) 0.48498(9) 0.86176(13)
C3B C 0.6569(2) 0.40506(8) 0.87203(12)
H13B H 0.6156 0.3740 0.8121
C4B C 0.72207(19) 0.37207(8) 0.97221(12)
C5B C 0.7818(2) 0.41707(9) 1.06349(13)
H14B H 0.8253 0.3939 1.1303
C6B C 0.7759(2) 0.49732(8) 1.05391(13)
C7B C 0.7109(2) 0.53015(9) 0.95310(13)
H15B H 0.7056 0.5837 0.9468
C8B C 0.8380(2) 0.54977(9) 1.15059(13)
loop_
_geom_bond_atom_site_label_1
_geom_bond_atom_site_label_2
_geom_bond_site_symmetry_1
_geom_bond_site_symmetry_2
Co1 O1 1_555 1_555
Na1 O5 1_555 1_555
Na2 O2 1_555 1_555
S1 O5 1_555 1_555
O1 C1 1_555 1_555
O2 C1 1_555 1_555
O3 C8 1_555 1_555
O4 C8 1_555 1_555
O5 Na2B_2 1_555 1_555
O6 S1 1_555 1_555
O7 S1 1_555 1_555
O8 Co1 1_555 1_555
H1 O8 1_555 1_555
H2 O8 1_555 1_555
O9 Co1 1_555 1_555
H3 O9 1_555 1_555
H4 O9 1_555 1_555
O10 Na1 1_555 1_555
H5 O10 1_555 1_555
H6 O10 1_555 1_555
O11 Na1 1_555 1_555
H7 O11 1_555 1_555
H8 O11 1_555 1_555
O12 Na1 1_555 1_555
H9 O12 1_555 1_555
H10 O12 1_555 1_555
O13 Na1 1_555 1_555
H11 O13 1_555 1_555
H12 O13 1_555 1_555
C1 C2 1_555 1_555
C2 C3 1_555 1_555
C3 H13 1_555 1_555
C4 S1 1_555 1_555
C5 C4 1_555 1_555
H14 C5 1_555 1_555
C6 C5 1_555 1_555
C7 C2 1_555 1_555
H15 C7 1_555 1_555
C8 C6 1_555 1_555
Na1B O5B 1_555 1_555
Na1A O9 1_555 1_555
Na1C O9B 1_555 1_555
Na1B_2 O5B_2 1_555 1_555
Na2B O2B 1_555 1_555
Na2B_2 O11 1_555 1_555
Na2A O6 1_555 1_555
Na2A_2 O10 1_555 1_555
Na2_2 O5B 1_555 1_555
Na2C O6B 1_555 1_555
S1B O5B 1_555 1_555
O1B Co1 1_555 1_555
O2B C1B 1_555 1_555
O3B C8B 1_555 1_555
O4B C8B 1_555 1_555
O5B_2 Na2 1_555 1_555
O5_2 Na2B 1_555 1_555
O6B S1B 1_555 1_555
O6A Na2 1_555 1_555
O6C Na2B 1_555 1_555
O7B S1B 1_555 1_555
O8B Co1 1_555 1_555
H1B O8B 1_555 1_555
H2B O8B 1_555 1_555
O9B Co1 1_555 1_555
O9A Na1 1_555 1_555
O9C Na1B 1_555 1_555
H3B O9B 1_555 1_555
H3A O9A 1_555 1_555
H3C O9C 1_555 1_555
H4B O9B 1_555 1_555
H4A O9A 1_555 1_555
H4C O9C 1_555 1_555
O10A Na2 1_555 1_555
O10B Na1B 1_555 1_555
O10C Na1C 1_555 1_555
H5A O10A 1_555 1_555
H5B O10B 1_555 1_555
H5C O10C 1_555 1_555
H6A O10A 1_555 1_555
H6B O10B 1_555 1_555
H6C O10C 1_555 1_555
O11B Na2 1_555 1_555
O11B_2 Na1B 1_555 1_555
O11_2 Na2B 1_555 1_555
H7B O11B 1_555 1_555
H7B_2 O11B_2 1_555 1_555
H7_2 O11_2 1_555 1_555
H8B O11B 1_555 1_555
H8B_2 O11B_2 1_555 1_555
H8_2 O11_2 1_555 1_555
O12B Na2 1_555 1_555
O12B_2 Na1B 1_555 1_555
O12_2 Na2B 1_555 1_555
H9B O12B 1_555 1_555
H9B_2 O12B_2 1_555 1_555
H9_2 O12_2 1_555 1_555
H10B O12B 1_555 1_555
H10B_2 O12B_2 1_555 1_555
H10_2 O12_2 1_555 1_555
O13B Na1B 1_555 1_555
H11B O13B 1_555 1_555
H12B O13B 1_555 1_555
C1B O1B 1_555 1_555
C2B C1B 1_555 1_555
C3B C2B 1_555 1_555
H13B C3B 1_555 1_555
C4B S1B 1_555 1_555
C5B C4B 1_555 1_555
H14B C5B 1_555 1_555
C6B C5B 1_555 1_555
C7B C2B 1_555 1_555
H15B C7B 1_555 1_555
C8B C6B 1_555 1_555
O12 Na2B_2 1_555 1_555
C3 C4 1_555 1_555
C6 C7 1_555 1_555
Na1A O10A 1_555 1_555
Na1B_2 O11B 1_555 1_555
Na1B_2 O12B 1_555 1_555
Na2B O10C 1_555 1_555
Na2_2 O11B_2 1_555 1_555
Na2_2 O12B_2 1_555 1_555
C3B C4B 1_555 1_555
C6B C7B 1_555 1_555

#END
