
#######################################################################
#
#                 Cambridge Crystallographic Data Centre
#                                CCDC 
#
#######################################################################
#
# If this CIF has been generated from an entry in the Cambridge 
# Structural Database, then it will include bibliographic, chemical, 
# crystal, experimental, refinement or atomic coordinate data resulting 
# from the CCDC's data processing and validation procedures.
#
#######################################################################

data_HOSTEO
_symmetry_cell_setting           triclinic
_symmetry_space_group_name_H-M   'P -1'
_symmetry_Int_Tables_number      2
_space_group_name_Hall           '-P 1'
loop_
_symmetry_equiv_pos_site_id
_symmetry_equiv_pos_as_xyz
1 x,y,z
2 -x,-y,-z
_cell_length_a                   7.977(1)
_cell_length_b                   8.656(1)
_cell_length_c                   11.807(1)
_cell_angle_alpha                69.06(1)
_cell_angle_beta                 86.07(1)
_cell_angle_gamma                67.36(1)
_cell_volume                     700.486
loop_
_atom_site_label
_atom_site_type_symbol
_atom_site_fract_x
_atom_site_fract_y
_atom_site_fract_z
Cu1 Cu -0.0694(1) 0.0009(1) 0.2321(1)
O1 O 0.7555(4) -0.1192(4) 0.2553(3)
O2 O 0.5976(4) 0.0839(4) 0.3361(3)
O3 O -0.1722(4) 0.1429(4) 0.0594(3)
O4 O 0.1281(4) -0.1650(4) 0.1326(3)
N1 N 0.2679(5) -0.2870(5) 0.5462(3)
N2 N 0.0611(4) -0.1556(4) 0.3933(3)
N3 N 0.0341(5) 0.1767(4) 0.2263(3)
N4 N 0.2144(5) 0.2964(5) 0.2568(3)
C1 C 0.6175(5) -0.0438(5) 0.3035(3)
C2 C 0.4737(6) -0.1246(6) 0.3242(4)
C3 C 0.3032(5) -0.0283(5) 0.3804(3)
C4 C 0.2053(5) -0.1505(5) 0.4384(3)
C5 C 0.1580(6) -0.3817(6) 0.5705(4)
C6 C 0.0299(6) -0.2998(5) 0.4766(4)
C7 C 0.1818(5) 0.1452(5) 0.2892(3)
C8 C -0.0299(6) 0.3564(6) 0.1507(4)
C9 C 0.0808(7) 0.4302(6) 0.1693(4)
C10 C -0.0879(5) 0.0901(5) -0.0231(3)
H1 H 0.374 -0.300 0.575
H2 H 0.312 0.299 0.277
H9 H 0.529 -0.256 0.372
H10 H 0.438 -0.129 0.244
H11 H 0.333 0.011 0.446
H12 H 0.175 -0.484 0.658
H13 H -0.089 -0.325 0.463
H14 H -0.168 0.411 0.127
H15 H 0.063 0.550 0.138
C10A C 0.0879(5) -0.0901(5) 0.0231(3)
O4A O -0.1281(4) 0.1650(4) -0.1326(3)
O3A O 0.1722(4) -0.1429(4) -0.0594(3)
Cu1A Cu 0.0694(1) -0.0009(1) -0.2321(1)
O1A O 0.2445(4) 0.1192(4) -0.2553(3)
N2A N -0.0611(4) 0.1556(4) -0.3933(3)
N3A N -0.0341(5) -0.1767(4) -0.2263(3)
O1_2 O -0.2445(4) -0.1192(4) 0.2553(3)
C4A C -0.2053(5) 0.1505(5) -0.4384(3)
C6A C -0.0299(6) 0.2998(5) -0.4766(4)
C7A C -0.1818(5) -0.1452(5) -0.2892(3)
C8A C 0.0299(6) -0.3564(6) -0.1507(4)
Cu1_2 Cu 0.9306(1) 0.0009(1) 0.2321(1)
N1A N -0.2679(5) 0.2870(5) -0.5462(3)
C3A C -0.3032(5) 0.0283(5) -0.3804(3)
C5A C -0.1580(6) 0.3817(6) -0.5705(4)
H13A H 0.089 0.325 -0.463
N4A N -0.2144(5) -0.2964(5) -0.2568(3)
C9A C -0.0808(7) -0.4302(6) -0.1693(4)
H14A H 0.168 -0.411 -0.127
H1A H -0.374 0.300 -0.575
C2A C -0.4737(6) 0.1246(6) -0.3242(4)
H11A H -0.333 -0.011 -0.446
H12A H -0.175 0.484 -0.658
H2A H -0.312 -0.299 -0.277
H15A H -0.063 -0.550 -0.138
Cu1A_2 Cu -0.9306(1) -0.0009(1) -0.2321(1)
C1A C -0.6175(5) 0.0438(5) -0.3035(3)
H9A H -0.529 0.256 -0.372
H10A H -0.438 0.129 -0.244
O1A_2 O -0.7555(4) 0.1192(4) -0.2553(3)
O2A O -0.5976(4) -0.0839(4) -0.3361(3)
O5 O 0.4280(7) 0.4997(6) 0.2712(7)
H3 H 0.440 0.557 0.172
H4 H 0.347 0.573 0.288
O6 O 0.3283(9) 0.1456(9) -0.0318(6)
H5 H 0.363 0.276 -0.075
H6 H 0.244 0.149 -0.104
O7 O 0.4823(9) 0.3827(9) -0.0375(9)
H7 H 0.410 0.522 -0.054
H8 H 0.630 0.330 -0.036
loop_
_geom_bond_atom_site_label_1
_geom_bond_atom_site_label_2
_geom_bond_site_symmetry_1
_geom_bond_site_symmetry_2
Cu1 O3 1_555 1_555
O1 C1 1_555 1_555
O2 C1 1_555 1_555
O3 C10 1_555 1_555
O4 Cu1 1_555 1_555
O5 H3 1_555 1_555
O6 H5 1_555 1_555
O7 H7 1_555 1_555
N1 C4 1_555 1_555
N2 Cu1 1_555 1_555
N3 Cu1 1_555 1_555
N4 C7 1_555 1_555
C1 C2 1_555 1_555
C2 C3 1_555 1_555
C3 C4 1_555 1_555
C4 N2 1_555 1_555
C5 N1 1_555 1_555
C6 N2 1_555 1_555
C7 N3 1_555 1_555
C8 N3 1_555 1_555
C9 N4 1_555 1_555
C10 C10A 1_555 1_555
H1 N1 1_555 1_555
H2 N4 1_555 1_555
H4 O5 1_555 1_555
H6 O6 1_555 1_555
H8 O7 1_555 1_555
H9 C2 1_555 1_555
H10 C2 1_555 1_555
H11 C3 1_555 1_555
H12 C5 1_555 1_555
H13 C6 1_555 1_555
H14 C8 1_555 1_555
H15 C9 1_555 1_555
C10A O4 1_555 1_555
O4A C10 1_555 1_555
O3A C10A 1_555 1_555
Cu1A O4A 1_555 1_555
O1A Cu1A 1_555 1_555
N2A Cu1A 1_555 1_555
N3A Cu1A 1_555 1_555
O1_2 Cu1 1_555 1_555
C4A N2A 1_555 1_555
C6A N2A 1_555 1_555
C7A N3A 1_555 1_555
C8A N3A 1_555 1_555
Cu1_2 O1 1_555 1_555
N1A C4A 1_555 1_555
C3A C4A 1_555 1_555
C5A C6A 1_555 1_555
H13A C6A 1_555 1_555
N4A C7A 1_555 1_555
C9A C8A 1_555 1_555
H14A C8A 1_555 1_555
H1A N1A 1_555 1_555
C2A C3A 1_555 1_555
H11A C3A 1_555 1_555
H12A C5A 1_555 1_555
H2A N4A 1_555 1_555
H15A C9A 1_555 1_555
Cu1A_2 O1A_2 1_555 1_555
C1A C2A 1_555 1_555
H9A C2A 1_555 1_555
H10A C2A 1_555 1_555
O1A_2 C1A 1_555 1_555
O2A C1A 1_555 1_555
C3 C7 1_555 1_555
C5 C6 1_555 1_555
C8 C9 1_555 1_555
O3A Cu1A 1_555 1_555
C7A C3A 1_555 1_555
N1A C5A 1_555 1_555
N4A C9A 1_555 1_555

#END
