
#######################################################################
#
#                 Cambridge Crystallographic Data Centre
#                                CCDC 
#
#######################################################################
#
# If this CIF has been generated from an entry in the Cambridge 
# Structural Database, then it will include bibliographic, chemical, 
# crystal, experimental, refinement or atomic coordinate data resulting 
# from the CCDC's data processing and validation procedures.
#
#######################################################################

data_HOSVAN
_symmetry_cell_setting           monoclinic
_symmetry_space_group_name_H-M   'P 21/n'
_symmetry_Int_Tables_number      14
_space_group_name_Hall           '-P 2yn'
loop_
_symmetry_equiv_pos_site_id
_symmetry_equiv_pos_as_xyz
1 x,y,z
2 1/2-x,1/2+y,1/2-z
3 -x,-y,-z
4 1/2+x,1/2-y,1/2+z
_cell_length_a                   7.4929(9)
_cell_length_b                   10.0963(12)
_cell_length_c                   17.149(2)
_cell_angle_alpha                90
_cell_angle_beta                 94.887(2)
_cell_angle_gamma                90
_cell_volume                     1292.62
loop_
_atom_site_label
_atom_site_type_symbol
_atom_site_fract_x
_atom_site_fract_y
_atom_site_fract_z
Zn1 Zn 0.5000 0.0000 0.0000
N1 N 0.6739(4) 0.0235(3) 0.10252(15)
N2 N 0.8545(4) 0.0414(3) 0.09414(16)
N3 N 0.8080(3) 0.0549(3) 0.21762(14)
N4 N 0.8448(4) 0.0976(3) 0.29546(14)
N5 N 0.9165(4) 0.2865(3) 0.50082(15)
C1 C 0.6489(4) 0.0320(3) 0.17647(18)
H1 H 0.5392 0.0237 0.1976
C2 C 0.9296(4) 0.0616(4) 0.16374(18)
H2 H 1.0511 0.0784 0.1753
C3 C 0.7815(4) 0.0301(3) 0.34965(19)
C4 C 0.6845(5) -0.0988(3) 0.3412(2)
H3 H 0.6757 -0.1257 0.2873
H4 H 0.5665 -0.0889 0.3582
H5 H 0.7489 -0.1648 0.3726
C5 C 0.8132(4) 0.0933(3) 0.42821(17)
C6 C 0.7662(5) 0.0350(4) 0.4965(2)
H6 H 0.7139 -0.0486 0.4953
C7 C 0.7979(5) 0.1027(4) 0.56667(19)
H7 H 0.7705 0.0639 0.6134
C8 C 0.8695(5) 0.2266(4) 0.56639(19)
H8 H 0.8870 0.2721 0.6136
C9 C 0.8878(4) 0.2192(3) 0.43411(18)
H9 H 0.9199 0.2592 0.3885
O5 O 0.7229(3) 0.0328(3) -0.06446(14)
H10 H 0.8172 0.0228 -0.0338
H11 H 0.7353 0.0972 -0.0954
Zn1A Zn 1.0000 0.5000 0.5000
Zn1A_2 Zn 0.0000 0.5000 -0.5000
N1C N 0.1739(4) 0.4765(3) -0.39748(15)
N1B N 0.3261(4) -0.0235(3) -0.10252(15)
N2C N 0.3545(4) 0.4586(3) -0.40586(16)
N3C N 0.3080(3) 0.4451(3) -0.28238(14)
N4C N 0.3448(4) 0.4024(3) -0.20454(14)
N5C N 0.4165(4) 0.2135(3) 0.00082(15)
N5A N 0.5835(4) -0.2135(3) -0.00082(15)
C1C C 0.1489(4) 0.4680(3) -0.32353(18)
H1C H 0.0392 0.4763 -0.3024
C2C C 0.4296(4) 0.4384(4) -0.33626(18)
H2C H 0.5511 0.4216 -0.3247
C3C C 0.2815(4) 0.4699(3) -0.15035(19)
C4C C 0.1845(5) 0.5988(3) -0.1588(2)
H3C H 0.1757 0.6257 -0.2127
H4C H 0.0665 0.5889 -0.1418
H5C H 0.2489 0.6648 -0.1274
C5C C 0.3132(4) 0.4067(3) -0.07179(17)
C6C C 0.2662(5) 0.4650(4) -0.0035(2)
H6C H 0.2139 0.5486 -0.0047
C7C C 0.2979(5) 0.3973(4) 0.06667(19)
H7C H 0.2705 0.4361 0.1134
C8C C 0.3695(5) 0.2734(4) 0.06639(19)
H8C H 0.3870 0.2279 0.1136
C9C C 0.3878(4) 0.2808(3) -0.06589(18)
H9C H 0.4199 0.2408 -0.1115
O5B O 0.2771(3) -0.0328(3) 0.06446(14)
H10B H 0.1828 -0.0228 0.0338
H11B H 0.2647 -0.0972 0.0954
Cl1 Cl 0.65614(11) 0.77575(8) 0.69869(5)
O1 O 0.6939(3) 0.9043(3) 0.73148(17)
O2 O 0.5062(4) 0.7213(3) 0.7307(2)
O3 O 0.6227(7) 0.7890(4) 0.6170(2)
O4 O 0.8049(5) 0.6906(3) 0.7127(3)
loop_
_geom_bond_atom_site_label_1
_geom_bond_atom_site_label_2
_geom_bond_site_symmetry_1
_geom_bond_site_symmetry_2
Zn1 N1 1_555 1_555
N1 N2 1_555 1_555
N2 C2 1_555 1_555
N3 N4 1_555 1_555
N4 C3 1_555 1_555
N5 C8 1_555 1_555
C1 N1 1_555 1_555
H1 C1 1_555 1_555
C2 N3 1_555 1_555
H2 C2 1_555 1_555
C3 C4 1_555 1_555
C4 H3 1_555 1_555
H4 C4 1_555 1_555
H5 C4 1_555 1_555
C5 C3 1_555 1_555
C6 C5 1_555 1_555
H6 C6 1_555 1_555
C7 C6 1_555 1_555
H7 C7 1_555 1_555
C8 C7 1_555 1_555
H8 C8 1_555 1_555
C9 N5 1_555 1_555
H9 C9 1_555 1_555
Cl1 O1 1_555 1_555
O2 Cl1 1_555 1_555
O3 Cl1 1_555 1_555
O4 Cl1 1_555 1_555
O5 Zn1 1_555 1_555
H10 O5 1_555 1_555
H11 O5 1_555 1_555
Zn1A N5 1_555 1_555
Zn1A_2 N1C 1_555 1_555
N1C N2C 1_555 1_555
N1B Zn1 1_555 1_555
N2C C2C 1_555 1_555
N3C N4C 1_555 1_555
N4C C3C 1_555 1_555
N5C Zn1 1_555 1_555
N5A Zn1 1_555 1_555
C1C N1C 1_555 1_555
H1C C1C 1_555 1_555
C2C N3C 1_555 1_555
H2C C2C 1_555 1_555
C3C C4C 1_555 1_555
C4C H3C 1_555 1_555
H4C C4C 1_555 1_555
H5C C4C 1_555 1_555
C5C C3C 1_555 1_555
C6C C5C 1_555 1_555
H6C C6C 1_555 1_555
C7C C6C 1_555 1_555
H7C C7C 1_555 1_555
C8C N5C 1_555 1_555
H8C C8C 1_555 1_555
C9C N5C 1_555 1_555
H9C C9C 1_555 1_555
O5B Zn1 1_555 1_555
H10B O5B 1_555 1_555
H11B O5B 1_555 1_555
N3 C1 1_555 1_555
C5 C9 1_555 1_555
N3C C1C 1_555 1_555
C5C C9C 1_555 1_555
C7C C8C 1_555 1_555

#END
