
#######################################################################
#
#                 Cambridge Crystallographic Data Centre
#                                CCDC 
#
#######################################################################
#
# If this CIF has been generated from an entry in the Cambridge 
# Structural Database, then it will include bibliographic, chemical, 
# crystal, experimental, refinement or atomic coordinate data resulting 
# from the CCDC's data processing and validation procedures.
#
#######################################################################

data_HOSVER
_symmetry_cell_setting           monoclinic
_symmetry_space_group_name_H-M   'C 2/c'
_symmetry_Int_Tables_number      15
_space_group_name_Hall           '-C 2yn'
loop_
_symmetry_equiv_pos_site_id
_symmetry_equiv_pos_as_xyz
1 x,y,z
2 -x,y,1/2-z
3 1/2+x,1/2+y,z
4 1/2-x,1/2+y,1/2-z
5 -x,-y,-z
6 x,-y,1/2+z
7 1/2-x,1/2-y,-z
8 1/2+x,1/2-y,1/2+z
_cell_length_a                   26.484(2)
_cell_length_b                   14.0374(15)
_cell_length_c                   16.8083(17)
_cell_angle_alpha                90
_cell_angle_beta                 108.404(2)
_cell_angle_gamma                90
_cell_volume                     5929.16
loop_
_atom_site_label
_atom_site_type_symbol
_atom_site_fract_x
_atom_site_fract_y
_atom_site_fract_z
Cu1 Cu 0.19607(2) 0.78202(4) 0.14330(4)
Cu2 Cu 0.14395(2) 1.00409(4) -0.08707(4)
N1 N 0.16100(16) 0.9077(3) 0.0066(2)
N2 N 0.20801(16) 0.8671(3) 0.0587(3)
N3 N 0.06961(16) 0.9731(3) -0.0874(3)
N4 N 0.17578(17) 0.6701(3) 0.2012(3)
N5 N 0.16690(18) 1.1384(3) -0.0190(3)
O1 O 0.12165(13) 0.8167(3) 0.0856(2)
O2 O 0.26870(13) 0.7475(3) 0.1794(2)
O3 O 0.12067(13) 0.9322(2) 0.3000(2)
O4 O 0.20303(13) 1.0058(2) 0.3598(2)
O5 O 0.19783(14) 0.8736(3) 0.2640(2)
O6 O 0.15828(16) 1.0242(3) 0.2100(2)
S1 S 0.17080(5) 0.95834(9) 0.27920(8)
C1 C 0.1195(2) 0.8746(4) 0.0264(3)
C2 C 0.0669(2) 0.9078(4) -0.0292(3)
C3 C 0.0197(2) 0.8731(4) -0.0246(4)
H1 H 0.0191 0.8286 0.0161
C4 C -0.0273(2) 0.9056(5) -0.0820(4)
H2 H -0.0600 0.8828 -0.0808
C5 C -0.0247(2) 0.9719(5) -0.1405(4)
H3 H -0.0557 0.9948 -0.1794
C6 C 0.0243(2) 1.0040(4) -0.1408(4)
H4 H 0.0257 1.0494 -0.1803
C7 C 0.2514(2) 0.8798(3) 0.0399(3)
H5 H 0.2495 0.9184 -0.0059
C8 C 0.3020(2) 0.8388(3) 0.0846(3)
C9 C 0.3072(2) 0.7729(4) 0.1518(3)
C10 C 0.3584(2) 0.7317(4) 0.1922(4)
H6 H 0.3616 0.6859 0.2335
C11 C 0.4018(2) 0.7567(4) 0.1727(4)
H7 H 0.4345 0.7299 0.2024
C12 C 0.3994(2) 0.8238(4) 0.1071(4)
C13 C 0.3491(2) 0.8645(4) 0.0621(3)
C14 C 0.3484(2) 0.9312(4) -0.0009(4)
H8 H 0.3162 0.9585 -0.0319
C15 C 0.3939(3) 0.9568(5) -0.0177(4)
H9 H 0.3920 1.0009 -0.0598
C16 C 0.4427(3) 0.9177(5) 0.0272(5)
H10 H 0.4734 0.9358 0.0156
C17 C 0.4451(2) 0.8525(5) 0.0886(4)
H11 H 0.4779 0.8265 0.1188
C18 C 0.1284(2) 0.6663(4) 0.2132(4)
H12 H 0.1068 0.7200 0.2012
C19 C 0.1099(3) 0.5857(5) 0.2430(4)
H13 H 0.0768 0.5859 0.2512
C20 C 0.1414(3) 0.5058(5) 0.2601(4)
H14 H 0.1294 0.4502 0.2785
C21 C 0.1905(3) 0.5093(4) 0.2498(4)
H15 H 0.2129 0.4567 0.2628
C22 C 0.2066(2) 0.5922(4) 0.2198(3)
H16 H 0.2399 0.5938 0.2124
C23 C 0.1707(2) 1.2197(4) -0.0595(4)
H17 H 0.1622 1.2175 -0.1176
C24 C 0.1862(3) 1.3053(4) -0.0203(4)
H18 H 0.1877 1.3598 -0.0510
C25 C 0.1995(3) 1.3085(5) 0.0656(4)
H19 H 0.2109 1.3654 0.0939
C26 C 0.1959(3) 1.2281(5) 0.1093(4)
H20 H 0.2042 1.2295 0.1673
C27 C 0.1797(2) 1.1443(4) 0.0646(4)
H21 H 0.1776 1.0894 0.0943
Cu1E Cu 0.19607(2) 1.21798(4) 0.64330(4)
Cu1E_2 Cu 0.19607(2) 1.21798(4) -0.35670(4)
Cu2E Cu 0.14395(2) 0.99591(4) 0.41293(4)
N1E N 0.16100(16) 1.0923(3) 0.5066(2)
N2E N 0.20801(16) 1.1329(3) 0.5587(3)
N3E N 0.06961(16) 1.0269(3) 0.4126(3)
N4E N 0.17578(17) 1.3299(3) 0.7012(3)
N5E N 0.16690(18) 0.8616(3) 0.4810(3)
O1E O 0.12165(13) 1.1833(3) 0.5856(2)
O2E O 0.26870(13) 1.2525(3) 0.6794(2)
O3E O 0.12067(13) 1.0678(2) -0.2000(2)
O4E O 0.20303(13) 0.9942(2) -0.1402(2)
O5E O 0.19783(14) 1.1264(3) -0.2360(2)
O5E_2 O 0.19783(14) 1.1264(3) 0.7640(2)
O6E O 0.15828(16) 0.9758(3) -0.2900(2)
S1E S 0.17080(5) 1.04166(9) -0.22080(8)
C1E C 0.1195(2) 1.1254(4) 0.5264(3)
C2E C 0.0669(2) 1.0922(4) 0.4708(3)
C3E C 0.0197(2) 1.1269(4) 0.4754(4)
H1E H 0.0191 1.1714 0.5161
C4E C -0.0273(2) 1.0944(5) 0.4180(4)
H2E H -0.0600 1.1172 0.4192
C5E C -0.0247(2) 1.0281(5) 0.3595(4)
H3E H -0.0557 1.0052 0.3206
C6E C 0.0243(2) 0.9960(4) 0.3592(4)
H4E H 0.0257 0.9506 0.3197
C7E C 0.2514(2) 1.1202(3) 0.5399(3)
H5E H 0.2495 1.0816 0.4941
C8E C 0.3020(2) 1.1612(3) 0.5846(3)
C9E C 0.3072(2) 1.2271(4) 0.6518(3)
C10E C 0.3584(2) 1.2683(4) 0.6922(4)
H6E H 0.3616 1.3141 0.7335
C11E C 0.4018(2) 1.2433(4) 0.6727(4)
H7E H 0.4345 1.2701 0.7024
C12E C 0.3994(2) 1.1762(4) 0.6071(4)
C13E C 0.3491(2) 1.1355(4) 0.5621(3)
C14E C 0.3484(2) 1.0688(4) 0.4991(4)
H8E H 0.3162 1.0415 0.4681
C15E C 0.3939(3) 1.0432(5) 0.4823(4)
H9E H 0.3920 0.9991 0.4402
C16E C 0.4427(3) 1.0823(5) 0.5272(5)
H10E H 0.4734 1.0642 0.5156
C17E C 0.4451(2) 1.1475(5) 0.5886(4)
H11E H 0.4779 1.1735 0.6188
C18E C 0.1284(2) 1.3337(4) 0.7132(4)
H12E H 0.1068 1.2800 0.7012
C19E C 0.1099(3) 1.4143(5) 0.7430(4)
H13E H 0.0768 1.4141 0.7512
C20E C 0.1414(3) 1.4942(5) 0.7601(4)
H14E H 0.1294 1.5498 0.7785
C21E C 0.1905(3) 1.4907(4) 0.7498(4)
H15E H 0.2129 1.5433 0.7628
C22E C 0.2066(2) 1.4078(4) 0.7198(3)
H16E H 0.2399 1.4062 0.7124
C23E C 0.1707(2) 0.7803(4) 0.4405(4)
H17E H 0.1622 0.7825 0.3824
C24E C 0.1862(3) 0.6947(4) 0.4797(4)
H18E H 0.1877 0.6402 0.4490
C25E C 0.1995(3) 0.6915(5) 0.5656(4)
H19E H 0.2109 0.6346 0.5939
C26E C 0.1959(3) 0.7719(5) 0.6093(4)
H20E H 0.2042 0.7705 0.6673
C27E C 0.1797(2) 0.8557(4) 0.5646(4)
H21E H 0.1776 0.9106 0.5943
O7 O 1.0000 0.6854(6) 0.2500
C28 C 0.9808(4) 0.7425(7) 0.1773(8)
H22 H 1.0083 0.7862 0.1733
H23 H 0.9504 0.7795 0.1798
C29 C 0.9644(4) 0.6756(9) 0.1002(7)
H24 H 0.9954 0.6439 0.0952
H25 H 0.9481 0.7122 0.0505
H26 H 0.9396 0.6291 0.1072
C28A C 1.0192(4) 0.7425(7) 0.3227(8)
H22A H 0.9917 0.7862 0.3267
H23A H 1.0496 0.7795 0.3202
C29A C 1.0356(4) 0.6756(9) 0.3998(7)
H24A H 1.0046 0.6439 0.4048
H25A H 1.0519 0.7122 0.4495
H26A H 1.0604 0.6291 0.3928
loop_
_geom_bond_atom_site_label_1
_geom_bond_atom_site_label_2
_geom_bond_site_symmetry_1
_geom_bond_site_symmetry_2
Cu1 N2 1_555 1_555
Cu2 N1 1_555 1_555
N1 N2 1_555 1_555
N2 C7 1_555 1_555
N3 Cu2 1_555 1_555
N4 Cu1 1_555 1_555
N5 Cu2 1_555 1_555
O1 Cu1 1_555 1_555
O2 Cu1 1_555 1_555
O3 S1 1_555 1_555
O4 S1 1_555 1_555
O5 Cu1 1_555 1_555
O6 S1 1_555 1_555
O7 C28 1_555 1_555
S1 O5 1_555 1_555
C1 N1 1_555 1_555
C2 N3 1_555 1_555
C3 C2 1_555 1_555
H1 C3 1_555 1_555
C4 C3 1_555 1_555
H2 C4 1_555 1_555
C5 C4 1_555 1_555
H3 C5 1_555 1_555
C6 N3 1_555 1_555
H4 C6 1_555 1_555
C7 H5 1_555 1_555
C8 C7 1_555 1_555
C9 O2 1_555 1_555
C10 C9 1_555 1_555
H6 C10 1_555 1_555
C11 C10 1_555 1_555
H7 C11 1_555 1_555
C12 C11 1_555 1_555
C13 C8 1_555 1_555
C14 C13 1_555 1_555
H8 C14 1_555 1_555
C15 C14 1_555 1_555
H9 C15 1_555 1_555
C16 C15 1_555 1_555
H10 C16 1_555 1_555
C17 C12 1_555 1_555
H11 C17 1_555 1_555
C18 N4 1_555 1_555
H12 C18 1_555 1_555
C19 C18 1_555 1_555
H13 C19 1_555 1_555
C20 C19 1_555 1_555
H14 C20 1_555 1_555
C21 C20 1_555 1_555
H15 C21 1_555 1_555
C22 N4 1_555 1_555
H16 C22 1_555 1_555
C23 N5 1_555 1_555
H17 C23 1_555 1_555
C24 C23 1_555 1_555
H18 C24 1_555 1_555
C25 C24 1_555 1_555
H19 C25 1_555 1_555
C26 C25 1_555 1_555
H20 C26 1_555 1_555
C27 N5 1_555 1_555
H21 C27 1_555 1_555
C28 H22 1_555 1_555
H23 C28 1_555 1_555
C29 C28 1_555 1_555
H24 C29 1_555 1_555
H25 C29 1_555 1_555
H26 C29 1_555 1_555
Cu1E N2E 1_555 1_555
Cu1E_2 O5E 1_555 1_555
Cu2E O3 1_555 1_555
N1E Cu2E 1_555 1_555
N2E N1E 1_555 1_555
N3E Cu2E 1_555 1_555
N4E Cu1E 1_555 1_555
N5E Cu2E 1_555 1_555
O1E Cu1E 1_555 1_555
O2E Cu1E 1_555 1_555
O3E Cu2 1_555 1_555
O4E Cu2 1_555 1_555
O5E S1E 1_555 1_555
O5E_2 Cu1E 1_555 1_555
O6E S1E 1_555 1_555
S1E O3E 1_555 1_555
C1E N1E 1_555 1_555
C2E N3E 1_555 1_555
C3E C2E 1_555 1_555
H1E C3E 1_555 1_555
C4E C3E 1_555 1_555
H2E C4E 1_555 1_555
C5E C4E 1_555 1_555
H3E C5E 1_555 1_555
C6E N3E 1_555 1_555
H4E C6E 1_555 1_555
C7E N2E 1_555 1_555
H5E C7E 1_555 1_555
C8E C7E 1_555 1_555
C9E O2E 1_555 1_555
C10E C9E 1_555 1_555
H6E C10E 1_555 1_555
C11E C10E 1_555 1_555
H7E C11E 1_555 1_555
C12E C11E 1_555 1_555
C13E C8E 1_555 1_555
C14E C13E 1_555 1_555
H8E C14E 1_555 1_555
C15E C14E 1_555 1_555
H9E C15E 1_555 1_555
C16E C15E 1_555 1_555
H10E C16E 1_555 1_555
C17E C12E 1_555 1_555
H11E C17E 1_555 1_555
C18E N4E 1_555 1_555
H12E C18E 1_555 1_555
C19E C18E 1_555 1_555
H13E C19E 1_555 1_555
C20E C19E 1_555 1_555
H14E C20E 1_555 1_555
C21E C20E 1_555 1_555
H15E C21E 1_555 1_555
C22E N4E 1_555 1_555
H16E C22E 1_555 1_555
C23E N5E 1_555 1_555
H17E C23E 1_555 1_555
C24E C23E 1_555 1_555
H18E C24E 1_555 1_555
C25E C24E 1_555 1_555
H19E C25E 1_555 1_555
C26E C25E 1_555 1_555
H20E C26E 1_555 1_555
C27E N5E 1_555 1_555
H21E C27E 1_555 1_555
C28A O7 1_555 1_555
H22A C28A 1_555 1_555
H23A C28A 1_555 1_555
C29A C28A 1_555 1_555
H24A C29A 1_555 1_555
H25A C29A 1_555 1_555
H26A C29A 1_555 1_555
O1 C1 1_555 1_555
O4 Cu2E 1_555 1_555
C1 C2 1_555 1_555
C5 C6 1_555 1_555
C8 C9 1_555 1_555
C12 C13 1_555 1_555
C16 C17 1_555 1_555
C21 C22 1_555 1_555
C26 C27 1_555 1_555
O1E C1E 1_555 1_555
O4E S1E 1_555 1_555
C1E C2E 1_555 1_555
C5E C6E 1_555 1_555
C8E C9E 1_555 1_555
C12E C13E 1_555 1_555
C16E C17E 1_555 1_555
C21E C22E 1_555 1_555
C26E C27E 1_555 1_555

#END
