
#######################################################################
#
#                 Cambridge Crystallographic Data Centre
#                                CCDC 
#
#######################################################################
#
# If this CIF has been generated from an entry in the Cambridge 
# Structural Database, then it will include bibliographic, chemical, 
# crystal, experimental, refinement or atomic coordinate data resulting 
# from the CCDC's data processing and validation procedures.
#
#######################################################################

data_HOSXEU
_symmetry_cell_setting           monoclinic
_symmetry_space_group_name_H-M   'P 21/c'
_symmetry_Int_Tables_number      14
_space_group_name_Hall           '-P 2ybc'
loop_
_symmetry_equiv_pos_site_id
_symmetry_equiv_pos_as_xyz
1 x,y,z
2 -x,1/2+y,1/2-z
3 -x,-y,-z
4 x,1/2-y,1/2+z
_cell_length_a                   10.6473(19)
_cell_length_b                   19.752(4)
_cell_length_c                   13.4070(16)
_cell_angle_alpha                90
_cell_angle_beta                 113.396(10)
_cell_angle_gamma                90
_cell_volume                     2587.75
loop_
_atom_site_label
_atom_site_type_symbol
_atom_site_fract_x
_atom_site_fract_y
_atom_site_fract_z
Mo1 Mo 0.36602(9) 0.95239(4) 0.40301(6)
Mo2 Mo 0.82131(9) 0.90885(4) 0.58212(7)
Mo3 Mo 0.63580(9) 0.98233(4) 0.35193(7)
Mo4 Mo 0.55108(9) 0.88186(4) 0.62985(7)
Cu1 Cu 0.43224(14) 0.82014(7) 0.84584(10)
O1 O 0.7430(6) 0.8864(3) 0.6877(5)
O2 O 0.8105(6) 0.9673(3) 0.4665(5)
O3 O 0.4394(6) 1.0055(3) 0.3164(5)
O4 O 0.3677(6) 0.9256(3) 0.5435(5)
O5 O 0.3476(6) 0.8762(3) 0.3395(5)
O6 O 0.5158(7) 0.8623(3) 0.7404(5)
O7 O 0.5818(6) 0.9451(3) 0.5025(5)
O8 O 0.9912(6) 0.9061(3) 0.6611(5)
O9 O 0.6737(7) 1.0330(3) 0.2665(5)
O10 O 0.7960(6) 1.0116(3) 0.6479(5)
O11 O 0.5210(7) 0.8088(3) 0.5574(6)
O12 O 0.6043(7) 0.9049(3) 0.2921(5)
O13 O 0.7828(7) 0.8335(3) 0.5135(5)
O14 O 0.5335(7) 0.7283(3) 0.8365(6)
N1 N 1.2655(8) 0.7916(4) 1.7240(7)
N2 N 0.3277(9) 0.8462(4) 0.9359(6)
N3 N 1.0990(8) 0.7856(4) 1.5598(6)
N4 N 0.7582(8) 0.8613(4) 1.1264(6)
N5 N 0.5996(9) 0.8539(4) 0.9648(7)
N6 N 0.1981(8) 0.9064(4) 0.9929(6)
C1 C 1.2201(11) 0.8146(5) 1.6241(8)
H1 H 1.2653 0.8469 1.6000
C2 C 1.0266(10) 0.8684(5) 1.4113(8)
H2 H 1.0886 0.8995 1.4568
C3 C 0.3681(11) 0.8362(5) 1.0451(8)
H3 H 0.4388 0.8079 1.0877
C4 C 0.8428(11) 0.7751(5) 1.2742(9)
H4 H 0.7804 0.7441 1.2287
C5 C 0.9293(11) 0.7569(5) 1.3787(9)
H5 H 0.9276 0.7128 1.4021
C6 C 0.8506(10) 0.8401(5) 1.2385(8)
C7 C 0.9439(11) 0.8860(5) 1.3085(8)
H6 H 0.9494 0.9295 1.2840
C8 C 1.0632(11) 0.7441(5) 1.6260(9)
H7 H 0.9837 0.7184 1.6052
C9 C 1.1631(10) 0.7470(5) 1.7266(9)
H8 H 1.1645 0.7237 1.7873
C10 C 0.2226(11) 0.8883(5) 0.9073(8)
H9 H 0.1728 0.9031 0.8367
C11 C 0.0969(10) 0.9540(5) 0.9967(8)
C12 C -0.0323(11) 0.9557(5) 0.9128(8)
H10 H -0.0543 0.9260 0.8545
C13 C 0.2903(12) 0.8736(5) 1.0813(8)
H11 H 0.2976 0.8766 1.1526
C14 C 0.6846(11) 0.8205(6) 1.0515(9)
H12 H 0.6901 0.7736 1.0571
C15 C 0.6176(13) 0.9218(6) 0.9960(10)
H13 H 0.5703 0.9585 0.9548
C16 C 0.7167(13) 0.9241(6) 1.0974(9)
H14 H 0.7498 0.9628 1.1391
C17 C 0.1287(11) 0.9978(5) 1.0833(8)
H15 H 0.2152 0.9963 1.1395
C18 C 1.0182(10) 0.8033(4) 1.4489(8)
N2B N -0.3277(9) 1.1538(4) 1.0641(6)
N6B N -0.1981(8) 1.0936(4) 1.0071(6)
C3B C -0.3681(11) 1.1638(5) 0.9549(8)
H3B H -0.4388 1.1921 0.9123
C10B C -0.2226(11) 1.1117(5) 1.0927(8)
H9B H -0.1728 1.0969 1.1633
C11B C -0.0969(10) 1.0460(5) 1.0033(8)
C12B C 0.0323(11) 1.0443(5) 1.0872(8)
H10B H 0.0543 1.0740 1.1455
C13B C -0.2903(12) 1.1264(5) 0.9187(8)
H11B H -0.2976 1.1234 0.8474
C17B C -0.1287(11) 1.0022(5) 0.9167(8)
H15B H -0.2152 1.0037 0.8605
Mo1B Mo -0.36602(9) 1.04761(4) 1.59699(6)
Mo2B Mo -0.82131(9) 1.09115(4) 1.41788(7)
Mo3B Mo -0.63580(9) 1.01767(4) 1.64807(7)
Mo4B Mo -0.55108(9) 1.11814(4) 1.37015(7)
Cu1B Cu -0.43224(14) 1.17986(7) 1.15416(10)
O1B O -0.7430(6) 1.1136(3) 1.3123(5)
O2B O -0.8105(6) 1.0327(3) 1.5335(5)
O3B O -0.4394(6) 0.9945(3) 1.6836(5)
O4B O -0.3677(6) 1.0744(3) 1.4565(5)
O5B O -0.3476(6) 1.1238(3) 1.6605(5)
O6B O -0.5158(7) 1.1377(3) 1.2596(5)
O7B O -0.5818(6) 1.0549(3) 1.4975(5)
O8B O -0.9912(6) 1.0939(3) 1.3389(5)
O9B O -0.6737(7) 0.9670(3) 1.7335(5)
O10B O -0.7960(6) 0.9884(3) 1.3521(5)
O11B O -0.5210(7) 1.1912(3) 1.4426(6)
O12B O -0.6043(7) 1.0951(3) 1.7079(5)
O13B O -0.7828(7) 1.1665(3) 1.4865(5)
O14B O -0.5335(7) 1.2717(3) 1.1635(6)
N1B N -1.2655(8) 1.2084(4) 0.2760(7)
N3B N -1.0990(8) 1.2144(4) 0.4402(6)
N4B N -0.7582(8) 1.1387(4) 0.8736(6)
N5B N -0.5996(9) 1.1461(4) 1.0352(7)
C1B C -1.2201(11) 1.1854(5) 0.3759(8)
H1B H -1.2653 1.1531 0.4000
C2B C -1.0266(10) 1.1316(5) 0.5887(8)
H2B H -1.0886 1.1005 0.5432
C4B C -0.8428(11) 1.2249(5) 0.7258(9)
H4B H -0.7804 1.2559 0.7713
C5B C -0.9293(11) 1.2431(5) 0.6213(9)
H5B H -0.9276 1.2872 0.5979
C6B C -0.8506(10) 1.1599(5) 0.7615(8)
C7B C -0.9439(11) 1.1140(5) 0.6915(8)
H6B H -0.9494 1.0705 0.7160
C8B C -1.0632(11) 1.2559(5) 0.3740(9)
H7B H -0.9837 1.2816 0.3948
C9B C -1.1631(10) 1.2530(5) 0.2734(9)
H8B H -1.1645 1.2763 0.2127
C14B C -0.6846(11) 1.1795(6) 0.9485(9)
H12B H -0.6901 1.2264 0.9429
C15B C -0.6176(13) 1.0782(6) 1.0040(10)
H13B H -0.5703 1.0415 1.0452
C16B C -0.7167(13) 1.0759(6) 0.9026(9)
H14B H -0.7498 1.0372 0.8609
C18B C -1.0182(10) 1.1967(4) 0.5511(8)
Mo1_2 Mo -0.63398(9) 0.95239(4) 1.40301(6)
Mo1B_2 Mo 0.63398(9) 1.04761(4) 0.59699(6)
Mo3_2 Mo -0.36420(9) 0.98233(4) 1.35193(7)
Mo3B_2 Mo 0.36420(9) 1.01767(4) 0.64807(7)
Mo4_2 Mo -0.44892(9) 0.88186(4) 1.62985(7)
Mo4B_2 Mo 0.44892(9) 1.11814(4) 0.37015(7)
Cu1_2 Cu 1.43224(14) 0.82014(7) 1.84584(10)
Cu1B_2 Cu -1.43224(14) 1.17986(7) 0.15416(10)
O3_2 O -0.5606(6) 1.0055(3) 1.3164(5)
O3B_2 O 0.5606(6) 0.9945(3) 0.6836(5)
O4_2 O -0.6323(6) 0.9256(3) 1.5435(5)
O4B_2 O 0.6323(6) 1.0744(3) 0.4565(5)
O7_2 O -0.4182(6) 0.9451(3) 1.5025(5)
O7B_2 O 0.4182(6) 1.0549(3) 0.4975(5)
O10_2 O -0.2040(6) 1.0116(3) 1.6479(5)
O10B_2 O 0.2040(6) 0.9884(3) 0.3521(5)
N1_2 N 0.2655(8) 0.7916(4) 0.7240(7)
N1B_2 N -0.2655(8) 1.2084(4) 1.2760(7)
loop_
_geom_bond_atom_site_label_1
_geom_bond_atom_site_label_2
_geom_bond_site_symmetry_1
_geom_bond_site_symmetry_2
Mo1 O3 1_555 1_555
Mo2 O1 1_555 1_555
Mo3 O2 1_555 1_555
Mo4 O1 1_555 1_555
Cu1 O6 1_555 1_555
O2 Mo2 1_555 1_555
O3 Mo3 1_555 1_555
O4 Mo1 1_555 1_555
O5 Mo1 1_555 1_555
O6 Mo4 1_555 1_555
O7 Mo1 1_555 1_555
O8 Mo2 1_555 1_555
O9 Mo3 1_555 1_555
O10 Mo2 1_555 1_555
O11 Mo4 1_555 1_555
O12 Mo3 1_555 1_555
O13 Mo2 1_555 1_555
O14 Cu1 1_555 1_555
N1 C1 1_555 1_555
N2 Cu1 1_555 1_555
N3 C1 1_555 1_555
N4 C6 1_555 1_555
N5 Cu1 1_555 1_555
N6 C10 1_555 1_555
C1 H1 1_555 1_555
C2 H2 1_555 1_555
C3 N2 1_555 1_555
H3 C3 1_555 1_555
C4 H4 1_555 1_555
C5 C4 1_555 1_555
H5 C5 1_555 1_555
C6 C4 1_555 1_555
C7 C2 1_555 1_555
H6 C7 1_555 1_555
C8 N3 1_555 1_555
H7 C8 1_555 1_555
C9 N1 1_555 1_555
H8 C9 1_555 1_555
C10 N2 1_555 1_555
H9 C10 1_555 1_555
C11 N6 1_555 1_555
C12 C11 1_555 1_555
H10 C12 1_555 1_555
C13 N6 1_555 1_555
H11 C13 1_555 1_555
C14 N4 1_555 1_555
H12 C14 1_555 1_555
C15 N5 1_555 1_555
H13 C15 1_555 1_555
C16 N4 1_555 1_555
H14 C16 1_555 1_555
C17 C11 1_555 1_555
H15 C17 1_555 1_555
C18 N3 1_555 1_555
N2B C3B 1_555 1_555
N6B C10B 1_555 1_555
C3B H3B 1_555 1_555
C10B N2B 1_555 1_555
H9B C10B 1_555 1_555
C11B N6B 1_555 1_555
C12B C17 1_555 1_555
H10B C12B 1_555 1_555
C13B N6B 1_555 1_555
H11B C13B 1_555 1_555
C17B C12 1_555 1_555
H15B C17B 1_555 1_555
Mo1B O3B 1_555 1_555
Mo2B O1B 1_555 1_555
Mo3B O2B 1_555 1_555
Mo4B O1B 1_555 1_555
Cu1B N2B 1_555 1_555
O2B Mo2B 1_555 1_555
O3B Mo3B 1_555 1_555
O4B Mo1B 1_555 1_555
O5B Mo1B 1_555 1_555
O6B Mo4B 1_555 1_555
O7B Mo1B 1_555 1_555
O8B Mo2B 1_555 1_555
O9B Mo3B 1_555 1_555
O10B Mo2B 1_555 1_555
O11B Mo4B 1_555 1_555
O12B Mo3B 1_555 1_555
O13B Mo2B 1_555 1_555
O14B Cu1B 1_555 1_555
N1B C1B 1_555 1_555
N3B C1B 1_555 1_555
N4B C6B 1_555 1_555
N5B Cu1B 1_555 1_555
C1B H1B 1_555 1_555
C2B H2B 1_555 1_555
C4B H4B 1_555 1_555
C5B C4B 1_555 1_555
H5B C5B 1_555 1_555
C6B C4B 1_555 1_555
C7B C2B 1_555 1_555
H6B C7B 1_555 1_555
C8B N3B 1_555 1_555
H7B C8B 1_555 1_555
C9B N1B 1_555 1_555
H8B C9B 1_555 1_555
C14B N4B 1_555 1_555
H12B C14B 1_555 1_555
C15B N5B 1_555 1_555
H13B C15B 1_555 1_555
C16B N4B 1_555 1_555
H14B C16B 1_555 1_555
C18B N3B 1_555 1_555
Mo1_2 O7B 1_555 1_555
Mo1B_2 O7 1_555 1_555
Mo3_2 O4B 1_555 1_555
Mo3B_2 O4 1_555 1_555
Mo4_2 O3B 1_555 1_555
Mo4B_2 O3 1_555 1_555
Cu1_2 N1 1_555 1_555
Cu1B_2 N1B 1_555 1_555
O3_2 Mo4B 1_555 1_555
O3B_2 Mo4 1_555 1_555
O4_2 Mo3B 1_555 1_555
O4B_2 Mo3 1_555 1_555
O7_2 Mo1B 1_555 1_555
O7B_2 Mo1 1_555 1_555
O10_2 Mo1B 1_555 1_555
O10B_2 Mo1 1_555 1_555
N1_2 Cu1 1_555 1_555
N1B_2 Cu1B 1_555 1_555
Mo2 O7 1_555 1_555
Mo3 O7 1_555 1_555
Mo4 O4 1_555 1_555
Mo4 O7 1_555 1_555
O10 Mo1B_2 1_555 1_555
N5 C14 1_555 1_555
C2 C18 1_555 1_555
C3 C13 1_555 1_555
C5 C18 1_555 1_555
C6 C7 1_555 1_555
C8 C9 1_555 1_555
C15 C16 1_555 1_555
C3B C13B 1_555 1_555
C11B C12B 1_555 1_555
C11B C17B 1_555 1_555
Mo2B O7B 1_555 1_555
Mo3B O7B 1_555 1_555
Mo4B O4B 1_555 1_555
Mo4B O7B 1_555 1_555
Cu1B O6B 1_555 1_555
O10B Mo1_2 1_555 1_555
N5B C14B 1_555 1_555
C2B C18B 1_555 1_555
C5B C18B 1_555 1_555
C6B C7B 1_555 1_555
C8B C9B 1_555 1_555
C15B C16B 1_555 1_555
Mo1_2 O3_2 1_555 1_555
Mo1_2 O4_2 1_555 1_555
Mo1_2 O7_2 1_555 1_555
Mo1B_2 O3B_2 1_555 1_555
Mo1B_2 O4B_2 1_555 1_555
Mo1B_2 O7B_2 1_555 1_555
Mo3_2 O3_2 1_555 1_555
Mo3_2 O7_2 1_555 1_555
Mo3B_2 O3B_2 1_555 1_555
Mo3B_2 O7B_2 1_555 1_555
Mo4_2 O4_2 1_555 1_555
Mo4_2 O7_2 1_555 1_555
Mo4B_2 O4B_2 1_555 1_555
Mo4B_2 O7B_2 1_555 1_555

#END
