
#######################################################################
#
#                 Cambridge Crystallographic Data Centre
#                                CCDC 
#
#######################################################################
#
# If this CIF has been generated from an entry in the Cambridge 
# Structural Database, then it will include bibliographic, chemical, 
# crystal, experimental, refinement or atomic coordinate data resulting 
# from the CCDC's data processing and validation procedures.
#
#######################################################################

data_HOSXET
_symmetry_cell_setting           monoclinic
_symmetry_space_group_name_H-M   'P 21/n'
_symmetry_Int_Tables_number      14
_space_group_name_Hall           '-P 2yn'
loop_
_symmetry_equiv_pos_site_id
_symmetry_equiv_pos_as_xyz
1 x,y,z
2 1/2-x,1/2+y,1/2-z
3 -x,-y,-z
4 1/2+x,1/2-y,1/2+z
_cell_length_a                   11.4474(4)
_cell_length_b                   13.0007(4)
_cell_length_c                   12.4234(4)
_cell_angle_alpha                90
_cell_angle_beta                 95.909(2)
_cell_angle_gamma                90
_cell_volume                     1839.08
loop_
_atom_site_label
_atom_site_type_symbol
_atom_site_fract_x
_atom_site_fract_y
_atom_site_fract_z
Zn1 Zn 0.25226(2) 0.03824(2) 0.00021(2)
Cl1 Cl 0.41393(5) 0.13442(5) 0.00653(5)
Cl2 Cl 0.08858(5) 0.13279(5) -0.00242(5)
N1 N 0.25698(18) -0.06042(15) -0.12735(16)
N2 N 0.48104(17) -0.04111(15) -0.39476(16)
N3 N 0.24771(17) -0.05999(15) 0.12836(16)
N4 N 0.04009(17) -0.07296(15) 0.42481(16)
C1 C 0.3501(2) -0.05974(18) -0.18528(19)
H1 H 0.4074 -0.0074 -0.1706
C2 C 0.3670(2) -0.13096(18) -0.26506(19)
C3 C 0.2813(2) -0.2056(2) -0.2866(2)
H2 H 0.2886 -0.2556 -0.3413
C4 C 0.1844(2) -0.2069(2) -0.2272(2)
H3 H 0.1249 -0.2575 -0.2413
C5 C 0.1758(2) -0.13440(19) -0.1481(2)
H4 H 0.1104 -0.1366 -0.1068
C6 C 0.4782(2) -0.12722(18) -0.31972(19)
H5 H 0.5461 -0.1218 -0.2638
H6 H 0.4863 -0.1923 -0.3597
C7 C 0.3966(2) -0.05658(19) -0.49056(19)
H7 H 0.3164 -0.0624 -0.4680
H8 H 0.4149 -0.1215 -0.5268
C8 C 0.5991(2) -0.03190(19) -0.4310(2)
H9 H 0.6196 -0.0966 -0.4666
H10 H 0.6575 -0.0205 -0.3677
C9 C 0.1506(2) -0.06356(18) 0.18122(18)
H11 H 0.0869 -0.0193 0.1581
C10 C 0.1394(2) -0.12847(17) 0.26723(19)
C11 C 0.2323(2) -0.19399(18) 0.3005(2)
H12 H 0.2279 -0.2391 0.3601
C12 C 0.3317(2) -0.1922(2) 0.2450(2)
H13 H 0.3956 -0.2371 0.2654
C13 C 0.3364(2) -0.12444(19) 0.1598(2)
H14 H 0.4047 -0.1234 0.1223
C14 C 0.0267(2) -0.12896(19) 0.32236(19)
H15 H -0.0371 -0.0972 0.2736
H16 H 0.0040 -0.2009 0.3358
C15 C -0.0598(2) -0.09447(19) 0.4855(2)
H17 H -0.0649 -0.1694 0.4983
H18 H -0.1332 -0.0726 0.4425
C16 C 0.0478(2) 0.03892(18) 0.4078(2)
H19 H -0.0237 0.0631 0.3634
H20 H 0.1164 0.0545 0.3682
Zn1B Zn 0.74774(2) -0.03824(2) -1.00021(2)
Zn1B_2 Zn -0.25226(2) -0.03824(2) 0.99979(2)
Cl1B Cl 0.58607(5) -0.13442(5) -1.00653(5)
Cl2B Cl 0.91142(5) -0.13279(5) -0.99758(5)
N1B N 0.74302(18) 0.06042(15) -0.87265(16)
N2B N 0.51896(17) 0.04111(15) -0.60524(16)
N3B N -0.24771(17) 0.05999(15) 0.87164(16)
N3B_2 N 0.75229(17) 0.05999(15) -1.12836(16)
N4B N -0.04009(17) 0.07296(15) 0.57519(16)
C1B C 0.6499(2) 0.05974(18) -0.81472(19)
H1B H 0.5926 0.0074 -0.8294
C2B C 0.6330(2) 0.13096(18) -0.73494(19)
C3B C 0.7187(2) 0.2056(2) -0.7134(2)
H2B H 0.7114 0.2556 -0.6587
C4B C 0.8156(2) 0.2069(2) -0.7728(2)
H3B H 0.8751 0.2575 -0.7587
C5B C 0.8242(2) 0.13440(19) -0.8519(2)
H4B H 0.8896 0.1366 -0.8932
C6B C 0.5218(2) 0.12722(18) -0.68028(19)
H5B H 0.4539 0.1218 -0.7362
H6B H 0.5137 0.1923 -0.6403
C7B C 0.6034(2) 0.05658(19) -0.50944(19)
H7B H 0.6836 0.0624 -0.5320
H8B H 0.5851 0.1215 -0.4732
C8B C 0.4009(2) 0.03190(19) -0.5690(2)
H9B H 0.3804 0.0966 -0.5334
H10B H 0.3425 0.0205 -0.6323
C9B C -0.1506(2) 0.06356(18) 0.81878(18)
H11B H -0.0869 0.0193 0.8419
C10B C -0.1394(2) 0.12847(17) 0.73277(19)
C11B C -0.2323(2) 0.19399(18) 0.6995(2)
H12B H -0.2279 0.2391 0.6399
C12B C -0.3317(2) 0.1922(2) 0.7550(2)
H13B H -0.3956 0.2371 0.7346
C13B C -0.3364(2) 0.12444(19) 0.8402(2)
H14B H -0.4047 0.1234 0.8777
C14B C -0.0267(2) 0.12896(19) 0.67764(19)
H15B H 0.0371 0.0972 0.7264
H16B H -0.0040 0.2009 0.6642
C15B C 0.0598(2) 0.09447(19) 0.5145(2)
H17B H 0.0649 0.1694 0.5017
H18B H 0.1332 0.0726 0.5575
C16B C -0.0478(2) -0.03892(18) 0.5922(2)
H19B H 0.0237 -0.0631 0.6366
H20B H -0.1164 -0.0545 0.6318
loop_
_geom_bond_atom_site_label_1
_geom_bond_atom_site_label_2
_geom_bond_site_symmetry_1
_geom_bond_site_symmetry_2
Zn1 Cl1 1_555 1_555
Cl2 Zn1 1_555 1_555
N1 Zn1 1_555 1_555
N2 C6 1_555 1_555
N3 Zn1 1_555 1_555
N4 C14 1_555 1_555
C1 N1 1_555 1_555
H1 C1 1_555 1_555
C2 C1 1_555 1_555
C3 C2 1_555 1_555
H2 C3 1_555 1_555
C4 C3 1_555 1_555
H3 C4 1_555 1_555
C5 N1 1_555 1_555
H4 C5 1_555 1_555
C6 C2 1_555 1_555
H5 C6 1_555 1_555
H6 C6 1_555 1_555
C7 N2 1_555 1_555
H7 C7 1_555 1_555
H8 C7 1_555 1_555
C8 N2 1_555 1_555
H9 C8 1_555 1_555
H10 C8 1_555 1_555
C9 N3 1_555 1_555
H11 C9 1_555 1_555
C10 C9 1_555 1_555
C11 C10 1_555 1_555
H12 C11 1_555 1_555
C12 C11 1_555 1_555
H13 C12 1_555 1_555
C13 N3 1_555 1_555
H14 C13 1_555 1_555
C14 C10 1_555 1_555
H15 C14 1_555 1_555
H16 C14 1_555 1_555
C15 N4 1_555 1_555
H17 C15 1_555 1_555
H18 C15 1_555 1_555
C16 N4 1_555 1_555
H19 C16 1_555 1_555
H20 C16 1_555 1_555
Zn1B Cl1B 1_555 1_555
Zn1B_2 N3B 1_555 1_555
Cl2B Zn1B 1_555 1_555
N1B Zn1B 1_555 1_555
N2B C6B 1_555 1_555
N3B C9B 1_555 1_555
N3B_2 Zn1B 1_555 1_555
N4B C14B 1_555 1_555
C1B N1B 1_555 1_555
H1B C1B 1_555 1_555
C2B C1B 1_555 1_555
C3B C2B 1_555 1_555
H2B C3B 1_555 1_555
C4B C3B 1_555 1_555
H3B C4B 1_555 1_555
C5B N1B 1_555 1_555
H4B C5B 1_555 1_555
C6B C2B 1_555 1_555
H5B C6B 1_555 1_555
H6B C6B 1_555 1_555
C7B C8 1_555 1_555
H7B C7B 1_555 1_555
H8B C7B 1_555 1_555
C8B C7 1_555 1_555
H9B C8B 1_555 1_555
H10B C8B 1_555 1_555
C9B H11B 1_555 1_555
C10B C9B 1_555 1_555
C11B C10B 1_555 1_555
H12B C11B 1_555 1_555
C12B C11B 1_555 1_555
H13B C12B 1_555 1_555
C13B N3B 1_555 1_555
H14B C13B 1_555 1_555
C14B C10B 1_555 1_555
H15B C14B 1_555 1_555
H16B C14B 1_555 1_555
C15B C16 1_555 1_555
H17B C15B 1_555 1_555
H18B C15B 1_555 1_555
C16B C15 1_555 1_555
H19B C16B 1_555 1_555
H20B C16B 1_555 1_555
C4 C5 1_555 1_555
C12 C13 1_555 1_555
N2B C7B 1_555 1_555
N2B C8B 1_555 1_555
N4B C15B 1_555 1_555
N4B C16B 1_555 1_555
C4B C5B 1_555 1_555
C12B C13B 1_555 1_555

#END
