
#######################################################################
#
#                 Cambridge Crystallographic Data Centre
#                                CCDC 
#
#######################################################################
#
# If this CIF has been generated from an entry in the Cambridge 
# Structural Database, then it will include bibliographic, chemical, 
# crystal, experimental, refinement or atomic coordinate data resulting 
# from the CCDC's data processing and validation procedures.
#
#######################################################################

data_HOSXIX
_symmetry_cell_setting           triclinic
_symmetry_space_group_name_H-M   'P -1'
_symmetry_Int_Tables_number      2
_space_group_name_Hall           '-P 1'
loop_
_symmetry_equiv_pos_site_id
_symmetry_equiv_pos_as_xyz
1 x,y,z
2 -x,-y,-z
_cell_length_a                   8.260(5)
_cell_length_b                   11.771(7)
_cell_length_c                   11.917(7)
_cell_angle_alpha                94.334(6)
_cell_angle_beta                 102.339(7)
_cell_angle_gamma                96.217(7)
_cell_volume                     1119.42
loop_
_atom_site_label
_atom_site_type_symbol
_atom_site_fract_x
_atom_site_fract_y
_atom_site_fract_z
Mn1 Mn 0.0000 0.0000 0.5000
C1 C 0.1323(3) 0.0099(2) 0.26331(18)
H1 H 0.2313 0.0235 0.3195
C2 C 0.1417(3) 0.0171(2) 0.14994(18)
H2 H 0.2450 0.0358 0.1321
C3 C -0.0016(2) -0.00339(17) 0.06212(16)
C4 C -0.1492(3) -0.03266(19) 0.09752(17)
H3 H -0.2496 -0.0490 0.0428
C5 C -0.1486(3) -0.03779(19) 0.21322(17)
H4 H -0.2499 -0.0580 0.2333
C6 C -0.0798(3) 0.24339(19) 0.4099(2)
H5 H -0.1457 0.1943 0.3484
C7 C -0.0917(3) 0.35907(19) 0.4094(2)
H6 H -0.1659 0.3853 0.3497
C8 C 0.0067(3) 0.43706(17) 0.49789(18)
C9 C 0.1167(3) 0.38947(19) 0.58152(19)
H7 H 0.1880 0.4370 0.6419
C10 C 0.1207(3) 0.27247(19) 0.57538(19)
H8 H 0.1977 0.2441 0.6318
N1 N 0.0201(2) 0.19659(14) 0.49270(14)
N2 N -0.0105(2) -0.01530(14) 0.29787(14)
O1 O 0.26802(17) 0.02247(12) 0.53842(12)
H17 H 0.3286 0.0809 0.5256
H18 H 0.3335 -0.0201 0.5745
Mn1_2 Mn 0.0000 0.0000 -0.5000
Mn1_3 Mn 0.0000 1.0000 0.5000
C1A C -0.1323(3) -0.0099(2) -0.26331(18)
H1A H -0.2313 -0.0235 -0.3195
C2A C -0.1417(3) -0.0171(2) -0.14994(18)
H2A H -0.2450 -0.0358 -0.1321
C3A C 0.0016(2) 0.00339(17) -0.06212(16)
C4A C 0.1492(3) 0.03266(19) -0.09752(17)
H3A H 0.2496 0.0490 -0.0428
C5A C 0.1486(3) 0.03779(19) -0.21322(17)
H4A H 0.2499 0.0580 -0.2333
C6A C 0.0798(3) 0.75661(19) 0.5901(2)
H5A H 0.1457 0.8057 0.6516
C7A C 0.0917(3) 0.64093(19) 0.5906(2)
H6A H 0.1659 0.6147 0.6503
C8A C -0.0067(3) 0.56294(17) 0.50211(18)
C9A C -0.1167(3) 0.61053(19) 0.41848(19)
H7A H -0.1880 0.5630 0.3581
C10A C -0.1207(3) 0.72753(19) 0.42462(19)
H8A H -0.1977 0.7559 0.3682
N1A N -0.0201(2) 0.80341(14) 0.50730(14)
N1A_2 N -0.0201(2) -0.19659(14) 0.50730(14)
N2A N 0.0105(2) 0.01530(14) -0.29787(14)
N2A_2 N 0.0105(2) 0.01530(14) 0.70213(14)
O1A O -0.26802(17) -0.02247(12) 0.46158(12)
H17A H -0.3286 -0.0809 0.4744
H18A H -0.3335 0.0201 0.4255
C11 C 0.4897(3) 0.19836(19) 0.37959(18)
C12 C 0.4734(3) 0.29917(18) 0.30933(17)
C13 C 0.4283(3) 0.3990(2) 0.3568(2)
H9 H 0.3984 0.3993 0.4278
C14 C 0.4264(4) 0.4974(2) 0.3015(2)
H10 H 0.3949 0.5633 0.3344
C15 C 0.4719(4) 0.4971(2) 0.1964(2)
H11 H 0.4741 0.5639 0.1595
C16 C 0.5139(3) 0.3989(2) 0.14617(19)
H12 H 0.5428 0.3998 0.0749
C17 C 0.5139(2) 0.29761(18) 0.20047(17)
C18 C 0.6650(3) 0.2313(2) -0.25469(19)
C19 C 0.7963(3) 0.26720(19) -0.14760(19)
C20 C 0.9572(3) 0.3118(2) -0.1525(2)
H13 H 0.9828 0.3190 -0.2241
C21 C 1.0794(3) 0.3457(3) -0.0539(3)
H14 H 1.1863 0.3754 -0.0590
C22 C 1.0418(3) 0.3351(3) 0.0525(2)
H15 H 1.1237 0.3575 0.1195
C23 C 0.8834(3) 0.2913(2) 0.0595(2)
H16 H 0.8592 0.2850 0.1317
C24 C 0.7592(3) 0.25648(18) -0.03888(18)
O2 O 0.4542(2) 0.20761(14) 0.47789(13)
O3 O 0.5396(2) 0.11191(14) 0.33731(13)
O4 O 0.5199(2) 0.20487(17) -0.25451(14)
O5 O 0.7208(2) 0.23484(17) -0.35055(14)
H19 H 0.6376 0.2168 -0.4033
S1 S 0.55261(7) 0.19603(5) -0.03290(5)
S2 S 0.56728(7) 0.16800(5) 0.13681(5)
loop_
_geom_bond_atom_site_label_1
_geom_bond_atom_site_label_2
_geom_bond_site_symmetry_1
_geom_bond_site_symmetry_2
Mn1 N1 1_555 1_555
C1 H1 1_555 1_555
C2 C1 1_555 1_555
H2 C2 1_555 1_555
C3 C2 1_555 1_555
C4 C3 1_555 1_555
H3 C4 1_555 1_555
C5 C4 1_555 1_555
H4 C5 1_555 1_555
C6 H5 1_555 1_555
C7 C6 1_555 1_555
H6 C7 1_555 1_555
C8 C7 1_555 1_555
C9 C8 1_555 1_555
H7 C9 1_555 1_555
C10 C9 1_555 1_555
H8 C10 1_555 1_555
C11 C12 1_555 1_555
C12 C13 1_555 1_555
C13 H9 1_555 1_555
C14 C13 1_555 1_555
H10 C14 1_555 1_555
C15 C14 1_555 1_555
H11 C15 1_555 1_555
C16 C15 1_555 1_555
H12 C16 1_555 1_555
C17 C12 1_555 1_555
C18 C19 1_555 1_555
C19 C20 1_555 1_555
C20 H13 1_555 1_555
C21 C20 1_555 1_555
H14 C21 1_555 1_555
C22 C21 1_555 1_555
H15 C22 1_555 1_555
C23 C22 1_555 1_555
H16 C23 1_555 1_555
C24 C19 1_555 1_555
N1 C6 1_555 1_555
N2 Mn1 1_555 1_555
O1 Mn1 1_555 1_555
H17 O1 1_555 1_555
H18 O1 1_555 1_555
O2 C11 1_555 1_555
O3 C11 1_555 1_555
O4 C18 1_555 1_555
O5 C18 1_555 1_555
H19 O5 1_555 1_555
S1 C24 1_555 1_555
S2 C17 1_555 1_555
Mn1_2 N2A 1_555 1_555
Mn1_3 N1A 1_555 1_555
C1A H1A 1_555 1_555
C2A C1A 1_555 1_555
H2A C2A 1_555 1_555
C3A C3 1_555 1_555
C4A C3A 1_555 1_555
H3A C4A 1_555 1_555
C5A C4A 1_555 1_555
H4A C5A 1_555 1_555
C6A H5A 1_555 1_555
C7A C6A 1_555 1_555
H6A C7A 1_555 1_555
C8A C8 1_555 1_555
C9A C8A 1_555 1_555
H7A C9A 1_555 1_555
C10A C9A 1_555 1_555
H8A C10A 1_555 1_555
N1A C6A 1_555 1_555
N1A_2 Mn1 1_555 1_555
N2A C1A 1_555 1_555
N2A_2 Mn1 1_555 1_555
O1A Mn1 1_555 1_555
H17A O1A 1_555 1_555
H18A O1A 1_555 1_555
C1 N2 1_555 1_555
C5 N2 1_555 1_555
C10 N1 1_555 1_555
C16 C17 1_555 1_555
C23 C24 1_555 1_555
S1 S2 1_555 1_555
C2A C3A 1_555 1_555
C5A N2A 1_555 1_555
C7A C8A 1_555 1_555
C10A N1A 1_555 1_555

#END
