
#######################################################################
#
#                 Cambridge Crystallographic Data Centre
#                                CCDC 
#
#######################################################################
#
# If this CIF has been generated from an entry in the Cambridge 
# Structural Database, then it will include bibliographic, chemical, 
# crystal, experimental, refinement or atomic coordinate data resulting 
# from the CCDC's data processing and validation procedures.
#
#######################################################################

data_HOTBID
_symmetry_cell_setting           monoclinic
_symmetry_space_group_name_H-M   'P 21/n'
_symmetry_Int_Tables_number      14
_space_group_name_Hall           '-P 2yn'
loop_
_symmetry_equiv_pos_site_id
_symmetry_equiv_pos_as_xyz
1 x,y,z
2 1/2-x,1/2+y,1/2-z
3 -x,-y,-z
4 1/2+x,1/2-y,1/2+z
_cell_length_a                   14.5287(5)
_cell_length_b                   14.0469(3)
_cell_length_c                   15.7245(5)
_cell_angle_alpha                90
_cell_angle_beta                 111.798(3)
_cell_angle_gamma                90
_cell_volume                     2979.65
loop_
_atom_site_label
_atom_site_type_symbol
_atom_site_fract_x
_atom_site_fract_y
_atom_site_fract_z
C1 C 0.3829(6) 1.4860(6) 0.5343(5)
H1 H 0.3990 1.5189 0.4904
C2 C 0.3641(6) 1.5370(6) 0.6019(5)
H2 H 0.3707 1.6029 0.6038
C3 C 0.3339(6) 1.3989(5) 0.6619(5)
H3 H 0.3167 1.3662 0.7052
C4 C 0.3561(5) 1.3482(5) 0.5961(5)
C5 C 0.3586(5) 1.2406(5) 0.6005(4)
C6 C 0.3564(5) 1.1000(5) 0.5068(5)
C7 C 0.3154(5) 1.0661(5) 0.4157(5)
H4 H 0.2809 1.1089 0.3697
C8 C 0.3742(5) 0.9130(5) 0.4596(4)
C9 C 0.3867(5) 0.8187(5) 0.4358(5)
H5 H 0.3600 0.7995 0.3749
C10 C 0.4377(6) 0.7556(5) 0.5020(5)
H6 H 0.4469 0.6938 0.4854
C11 C 0.4770(6) 0.7814(5) 0.5948(5)
H7 H 0.5107 0.7368 0.6393
C12 C 0.4653(6) 0.8727(6) 0.6194(5)
H8 H 0.4913 0.8900 0.6809
C13 C 0.4140(5) 0.9416(5) 0.5525(4)
C14 C 0.4057(5) 1.0376(5) 0.5751(4)
H9 H 0.4333 1.0581 0.6356
C15 C 0.1259(6) 0.5463(6) 0.4685(5)
H10 H 0.1124 0.5126 0.5135
C16 C 0.1449(6) 0.4971(5) 0.4011(5)
H11 H 0.1405 0.4311 0.4001
C17 C 0.1676(6) 0.6355(6) 0.3382(5)
H12 H 0.1823 0.6687 0.2936
C18 C 0.1446(5) 0.6856(5) 0.4036(5)
C19 C 0.1375(5) 0.7922(5) 0.3994(5)
C20 C 0.1365(5) 0.9314(5) 0.4929(5)
C21 C 0.1771(5) 0.9649(5) 0.5838(4)
H13 H 0.2098 0.9214 0.6297
C22 C 0.1225(5) 1.1190(5) 0.5413(4)
C23 C 0.1156(6) 1.2151(5) 0.5654(5)
H14 H 0.1443 1.2343 0.6262
C24 C 0.0668(6) 1.2794(6) 0.4991(6)
H15 H 0.0596 1.3417 0.5154
C25 C 0.0271(6) 1.2526(6) 0.4060(6)
H16 H -0.0036 1.2980 0.3614
C26 C 0.0335(6) 1.1612(6) 0.3810(5)
H17 H 0.0060 1.1441 0.3195
C27 C 0.0820(5) 1.0912(5) 0.4483(5)
C28 C 0.0886(5) 0.9949(5) 0.4252(5)
H18 H 0.0608 0.9751 0.3645
N1 N 0.3786(5) 1.3909(4) 0.5307(4)
N2 N 0.3368(5) 1.4935(5) 0.6637(5)
N3 N 0.3478(5) 1.1975(4) 0.5203(4)
H19 H 0.3343 1.2336 0.4731
N4 N 0.3233(4) 0.9781(4) 0.3925(4)
N5 N 0.1264(5) 0.6407(4) 0.4708(4)
N6 N 0.1691(5) 0.5402(4) 0.3381(4)
N7 N 0.1456(5) 0.8341(4) 0.4794(4)
H20 H 0.1574 0.7975 0.5262
N8 N 0.1719(4) 1.0539(4) 0.6082(4)
O1 O 0.3708(5) 1.1997(4) 0.6723(4)
O2 O 0.1248(5) 0.8343(4) 0.3278(4)
Hg1 Hg 0.26644(2) 1.09545(2) 0.762861(19)
Hg2 Hg 0.22715(2) 0.93850(2) 0.236580(19)
Cl1 Cl 0.39039(16) 0.97647(17) 0.80400(14)
Cl2 Cl 0.22029(19) 1.23951(14) 0.81161(14)
Cl3 Cl 0.10987(16) 1.06257(17) 0.20006(15)
Cl4 Cl 0.27307(19) 0.79412(14) 0.18824(13)
N2A N 0.1632(5) 0.9935(5) 0.8363(5)
N6A N 0.3309(5) 1.0402(4) 0.1619(4)
Hg1A Hg 0.23356(2) 1.59545(2) 0.737139(19)
Hg2A Hg 0.27285(2) 0.43850(2) 0.263420(19)
loop_
_geom_bond_atom_site_label_1
_geom_bond_atom_site_label_2
_geom_bond_site_symmetry_1
_geom_bond_site_symmetry_2
C1 H1 1_555 1_555
C2 C1 1_555 1_555
H2 C2 1_555 1_555
C3 H3 1_555 1_555
C4 C3 1_555 1_555
C5 C4 1_555 1_555
C6 C7 1_555 1_555
C7 H4 1_555 1_555
C8 C9 1_555 1_555
C9 H5 1_555 1_555
C10 C9 1_555 1_555
H6 C10 1_555 1_555
C11 C10 1_555 1_555
H7 C11 1_555 1_555
C12 C11 1_555 1_555
H8 C12 1_555 1_555
C13 C8 1_555 1_555
C14 C6 1_555 1_555
H9 C14 1_555 1_555
C15 H10 1_555 1_555
C16 C15 1_555 1_555
H11 C16 1_555 1_555
C17 H12 1_555 1_555
C18 C17 1_555 1_555
C19 C18 1_555 1_555
C20 C21 1_555 1_555
C21 H13 1_555 1_555
C22 C23 1_555 1_555
C23 H14 1_555 1_555
C24 C23 1_555 1_555
H15 C24 1_555 1_555
C25 C24 1_555 1_555
H16 C25 1_555 1_555
C26 C25 1_555 1_555
H17 C26 1_555 1_555
C27 C22 1_555 1_555
C28 C20 1_555 1_555
H18 C28 1_555 1_555
N1 C1 1_555 1_555
N2 C2 1_555 1_555
N3 C5 1_555 1_555
H19 N3 1_555 1_555
N4 C7 1_555 1_555
N5 C15 1_555 1_555
N6 C16 1_555 1_555
N7 C19 1_555 1_555
H20 N7 1_555 1_555
N8 C21 1_555 1_555
O1 C5 1_555 1_555
O2 C19 1_555 1_555
Hg1 N8 1_555 1_555
Hg2 N4 1_555 1_555
Cl1 Hg1 1_555 1_555
Cl2 Hg1 1_555 1_555
Cl3 Hg2 1_555 1_555
Cl4 Hg2 1_555 1_555
N2A Hg1 1_555 1_555
N6A Hg2 1_555 1_555
Hg1A N2 1_555 1_555
Hg2A N6 1_555 1_555
C3 N2 1_555 1_555
C4 N1 1_555 1_555
C6 N3 1_555 1_555
C8 N4 1_555 1_555
C12 C13 1_555 1_555
C13 C14 1_555 1_555
C17 N6 1_555 1_555
C18 N5 1_555 1_555
C20 N7 1_555 1_555
C22 N8 1_555 1_555
C26 C27 1_555 1_555
C27 C28 1_555 1_555
O1 Hg1 1_555 1_555
O2 Hg2 1_555 1_555

#END
