
#######################################################################
#
#                 Cambridge Crystallographic Data Centre
#                                CCDC 
#
#######################################################################
#
# If this CIF has been generated from an entry in the Cambridge 
# Structural Database, then it will include bibliographic, chemical, 
# crystal, experimental, refinement or atomic coordinate data resulting 
# from the CCDC's data processing and validation procedures.
#
#######################################################################

data_HOTBUP
_symmetry_cell_setting           monoclinic
_symmetry_space_group_name_H-M   'P 21/c'
_symmetry_Int_Tables_number      14
_space_group_name_Hall           '-P 2ybc'
loop_
_symmetry_equiv_pos_site_id
_symmetry_equiv_pos_as_xyz
1 x,y,z
2 -x,1/2+y,1/2-z
3 -x,-y,-z
4 x,1/2-y,1/2+z
_cell_length_a                   7.8761(4)
_cell_length_b                   7.5061(4)
_cell_length_c                   29.2866(14)
_cell_angle_alpha                90
_cell_angle_beta                 91.498(4)
_cell_angle_gamma                90
_cell_volume                     1730.8
loop_
_atom_site_label
_atom_site_type_symbol
_atom_site_fract_x
_atom_site_fract_y
_atom_site_fract_z
C1 C 1.6451(12) 1.5439(12) -0.1414(3)
H1 H 1.6694 1.5890 -0.1700
C2 C 1.7652(12) 1.5571(13) -0.1064(3)
H2 H 1.8687 1.6108 -0.1123
C3 C 1.5884(11) 1.4219(13) -0.0573(3)
H3 H 1.5645 1.3777 -0.0286
C4 C 1.4660(10) 1.4099(11) -0.0926(3)
C5 C 1.2993(11) 1.3207(12) -0.0840(3)
C6 C 1.0440(10) 1.2117(11) -0.1251(3)
C7 C 0.9577(11) 1.2136(12) -0.1676(3)
H4 H 1.0117 1.2644 -0.1923
C8 C 0.7208(10) 1.0715(11) -0.1395(3)
C9 C 0.5527(11) 1.0035(12) -0.1454(3)
H5 H 0.4976 1.0094 -0.1738
C10 C 0.4725(12) 0.9294(13) -0.1090(3)
H6 H 0.3624 0.8864 -0.1131
C11 C 0.5521(12) 0.9168(12) -0.0659(3)
H7 H 0.4942 0.8677 -0.0416
C12 C 0.7158(12) 0.9770(11) -0.0592(3)
H8 H 0.7701 0.9641 -0.0308
C13 C 0.8020(11) 1.0588(11) -0.0957(3)
C14 C 0.9645(10) 1.1297(11) -0.0895(3)
H9 H 1.0197 1.1214 -0.0611
N1 N 1.4944(9) 1.4678(10) -0.1348(3)
N2 N 1.7389(9) 1.4959(10) -0.0645(3)
N3 N 1.2034(9) 1.2952(9) -0.1223(2)
H10 H 1.2439 1.3340 -0.1474
N4 N 0.8029(9) 1.1466(10) -0.1746(2)
O1 O 1.2627(8) 1.2718(9) -0.0456(2)
Hg1 Hg 2.0000 1.5000 0.0000
Hg2 Hg 0.67691(5) 1.18337(6) -0.248197(14)
Br1 Br 1.86327(12) 1.26658(14) 0.04291(4)
Br2 Br 0.90976(18) 1.2256(2) -0.30149(5)
Br3 Br 0.37155(13) 1.27921(14) -0.24323(3)
C1B C 1.3549(12) 1.4561(12) 0.1414(3)
H1B H 1.3306 1.4110 0.1700
C2B C 1.2348(12) 1.4429(13) 0.1064(3)
H2B H 1.1313 1.3892 0.1123
C3B C 1.4116(11) 1.5781(13) 0.0573(3)
H3B H 1.4355 1.6223 0.0286
C4B C 1.5340(10) 1.5901(11) 0.0926(3)
C5B C 1.7007(11) 1.6793(12) 0.0840(3)
C6B C 1.9560(10) 1.7883(11) 0.1251(3)
C7B C 2.0423(11) 1.7864(12) 0.1676(3)
H4B H 1.9883 1.7356 0.1923
C8B C 2.2792(10) 1.9285(11) 0.1395(3)
C9B C 2.4473(11) 1.9965(12) 0.1454(3)
H5B H 2.5024 1.9906 0.1738
C10B C 2.5275(12) 2.0706(13) 0.1090(3)
H6B H 2.6376 2.1136 0.1131
C11B C 2.4479(12) 2.0832(12) 0.0659(3)
H7B H 2.5058 2.1323 0.0416
C12B C 2.2842(12) 2.0230(11) 0.0592(3)
H8B H 2.2299 2.0359 0.0308
C13B C 2.1980(11) 1.9412(11) 0.0957(3)
C14B C 2.0355(10) 1.8703(11) 0.0895(3)
H9B H 1.9803 1.8786 0.0611
N1B N 1.5056(9) 1.5322(10) 0.1348(3)
N2B N 1.2611(9) 1.5041(10) 0.0645(3)
N3B N 1.7966(9) 1.7048(9) 0.1223(2)
H10B H 1.7561 1.6660 0.1474
N4B N 2.1971(9) 1.8534(10) 0.1746(2)
O1B O 1.7373(8) 1.7282(9) 0.0456(2)
Hg2B Hg 2.32309(5) 1.81663(6) 0.248197(14)
Br2B Br 2.09024(18) 1.7744(2) 0.30149(5)
Br3B Br 2.62845(13) 1.72079(14) 0.24323(3)
Br1B Br 2.13673(12) 1.73342(14) -0.04291(4)
N2B_2 N 2.2611(9) 1.5041(10) 0.0645(3)
O1_2 O 2.2627(8) 1.2718(9) -0.0456(2)
Hg1_2 Hg 1.0000 1.5000 0.0000
Hg2A Hg 0.32309(5) 1.68337(6) -0.251803(14)
Hg2C Hg 2.67691(5) 1.31663(6) 0.251803(14)
Br3A Br 0.62845(13) 0.77921(14) -0.25677(3)
Br3C Br 2.37155(13) 2.22079(14) 0.25677(3)
loop_
_geom_bond_atom_site_label_1
_geom_bond_atom_site_label_2
_geom_bond_site_symmetry_1
_geom_bond_site_symmetry_2
C1 H1 1_555 1_555
C2 C1 1_555 1_555
H2 C2 1_555 1_555
C3 H3 1_555 1_555
C4 C3 1_555 1_555
C5 C4 1_555 1_555
C6 C7 1_555 1_555
C7 H4 1_555 1_555
C8 C9 1_555 1_555
C9 H5 1_555 1_555
C10 C9 1_555 1_555
H6 C10 1_555 1_555
C11 C10 1_555 1_555
H7 C11 1_555 1_555
C12 C11 1_555 1_555
H8 C12 1_555 1_555
C13 C8 1_555 1_555
C14 C6 1_555 1_555
H9 C14 1_555 1_555
N1 C1 1_555 1_555
N2 C2 1_555 1_555
N3 C5 1_555 1_555
H10 N3 1_555 1_555
N4 C7 1_555 1_555
O1 C5 1_555 1_555
Hg1 N2 1_555 1_555
Hg2 N4 1_555 1_555
Br1 Hg1 1_555 1_555
Br2 Hg2 1_555 1_555
Br3 Hg2 1_555 1_555
C1B H1B 1_555 1_555
C2B C1B 1_555 1_555
H2B C2B 1_555 1_555
C3B H3B 1_555 1_555
C4B C3B 1_555 1_555
C5B C4B 1_555 1_555
C6B C7B 1_555 1_555
C7B H4B 1_555 1_555
C8B C9B 1_555 1_555
C9B H5B 1_555 1_555
C10B C9B 1_555 1_555
H6B C10B 1_555 1_555
C11B C10B 1_555 1_555
H7B C11B 1_555 1_555
C12B C11B 1_555 1_555
H8B C12B 1_555 1_555
C13B C8B 1_555 1_555
C14B C6B 1_555 1_555
H9B C14B 1_555 1_555
N1B C1B 1_555 1_555
N2B C2B 1_555 1_555
N3B C5B 1_555 1_555
H10B N3B 1_555 1_555
N4B C7B 1_555 1_555
O1B Hg1 1_555 1_555
Hg2B N4B 1_555 1_555
Br2B Hg2B 1_555 1_555
Br3B Hg2B 1_555 1_555
Br1B Hg1 1_555 1_555
N2B_2 Hg1 1_555 1_555
O1_2 Hg1 1_555 1_555
Hg1_2 O1 1_555 1_555
Hg2A Br3 1_555 1_555
Hg2C Br3B 1_555 1_555
Br3A Hg2 1_555 1_555
Br3C Hg2B 1_555 1_555
C3 N2 1_555 1_555
C4 N1 1_555 1_555
C6 N3 1_555 1_555
C8 N4 1_555 1_555
C12 C13 1_555 1_555
C13 C14 1_555 1_555
C3B N2B 1_555 1_555
C4B N1B 1_555 1_555
C5B O1B 1_555 1_555
C6B N3B 1_555 1_555
C8B N4B 1_555 1_555
C12B C13B 1_555 1_555
C13B C14B 1_555 1_555
N2B Hg1_2 1_555 1_555

#END
