
#######################################################################
#
#                 Cambridge Crystallographic Data Centre
#                                CCDC 
#
#######################################################################
#
# If this CIF has been generated from an entry in the Cambridge 
# Structural Database, then it will include bibliographic, chemical, 
# crystal, experimental, refinement or atomic coordinate data resulting 
# from the CCDC's data processing and validation procedures.
#
#######################################################################

data_HOTCUO
_symmetry_cell_setting           monoclinic
_symmetry_space_group_name_H-M   'C 2/c'
_symmetry_Int_Tables_number      15
_space_group_name_Hall           '-C 2yn'
loop_
_symmetry_equiv_pos_site_id
_symmetry_equiv_pos_as_xyz
1 x,y,z
2 1/2+x,1/2+y,z
3 x,-y,1/2+z
4 1/2+x,1/2-y,1/2+z
5 -x,-y,-z
6 1/2-x,1/2-y,-z
7 -x,y,1/2-z
8 1/2-x,1/2+y,1/2-z
_cell_length_a                   28.714(3)
_cell_length_b                   8.2439(13)
_cell_length_c                   28.736(3)
_cell_angle_alpha                90
_cell_angle_beta                 96.633(9)
_cell_angle_gamma                90
_cell_volume                     6756.72
loop_
_atom_site_label
_atom_site_type_symbol
_atom_site_fract_x
_atom_site_fract_y
_atom_site_fract_z
Cd1 Cd 0.665163(15) 0.22467(6) 0.61435(2)
N1 N 0.6083(2) 0.4269(7) 0.6121(2)
C1 C 0.5698(3) 0.4157(9) 0.6336(3)
H1 H 0.5678(3) 0.3306(9) 0.6545(3)
C2 C 0.5325(2) 0.5236(10) 0.6266(3)
H2 H 0.5066(2) 0.5125(10) 0.6431(3)
C3 C 0.5348(2) 0.6476(8) 0.5948(3)
C4 C 0.5748(2) 0.6626(9) 0.5728(3)
H3 H 0.5779(2) 0.7472(9) 0.5520(3)
C5 C 0.6102(2) 0.5492(9) 0.5823(3)
H4 H 0.6369(2) 0.5594(9) 0.5670(3)
S1 S 0.48641(7) 0.7777(3) 0.58714(8)
C6 C 0.4970(2) 0.8999(9) 0.5394(3)
F1 F 0.4902(2) 0.6785(6) 0.4871(2)
C7 C 0.4951(2) 0.8370(9) 0.4935(3)
F2 F 0.5031(2) 1.1320(6) 0.5865(2)
C8 C 0.5013(2) 1.0639(9) 0.5437(3)
N2 N 0.7231(2) 0.0658(8) 0.5876(2)
C9 C 0.7288(3) -0.0901(11) 0.5982(4)
H5 H 0.7092(3) -0.1380(11) 0.6178(4)
C10 C 0.7629(4) -0.1832(12) 0.5813(4)
H6 H 0.7657(4) -0.2925(12) 0.5891(4)
C11 C 0.7925(3) -0.1143(11) 0.5530(3)
C12 C 0.7862(3) 0.0445(11) 0.5415(3)
H7 H 0.8055(3) 0.0948(11) 0.5219(3)
C13 C 0.7515(3) 0.1289(10) 0.5589(3)
H8 H 0.7473(3) 0.2371(10) 0.5503(3)
S2 S 0.83603(9) -0.2279(4) 0.52800(8)
C14 C 0.8621(3) -0.3308(11) 0.5783(3)
F3 F 0.8153(2) -0.5600(8) 0.5601(2)
C15 C 0.8495(2) -0.4875(10) 0.5880(3)
F4 F 0.8571(3) -0.7238(8) 0.6314(2)
C16 C 0.8713(3) -0.5714(11) 0.6252(3)
N3 N 0.8624(2) -0.4166(8) 0.8251(2)
C17 C 0.9062(3) -0.5049(13) 0.6549(3)
F5 F 0.9531(2) -0.2719(12) 0.6741(3)
C18 C 0.9188(3) -0.3460(14) 0.6456(3)
F6 F 0.9114(3) -0.1088(9) 0.6010(3)
C19 C 0.8972(3) -0.2607(11) 0.6083(3)
C20 C 0.9053(3) -0.5333(11) 0.7497(3)
C21 C 0.9247(3) -0.5599(11) 0.7945(3)
H9 H 0.9528(3) -0.6162(11) 0.8003(3)
C22 C 0.9028(3) -0.5035(10) 0.8312(3)
H10 H 0.9161(3) -0.5258(10) 0.8615(3)
S3 S 0.93413(10) -0.6110(4) 0.70328(8)
C23 C 0.8438(3) -0.3948(12) 0.7813(3)
H11 H 0.8154(3) -0.3397(12) 0.7761(3)
C24 C 0.8638(3) -0.4488(13) 0.7425(3)
H12 H 0.8496(3) -0.4284(13) 0.7123(3)
O1 O 0.6451(2) 0.2455(8) 0.5285(2)
N4 N 0.6195(2) 0.1180(10) 0.5268(2)
O2 O 0.6127(2) 0.0545(8) 0.5650(2)
O3 O 0.6029(2) 0.0564(13) 0.4902(2)
N5 N 0.7388(2) 0.4366(9) 0.6493(3)
O4 O 0.7180(2) 0.4571(7) 0.6094(2)
O5 O 0.7258(2) 0.3225(9) 0.6739(2)
O6 O 0.7715(3) 0.5241(11) 0.6640(3)
C8D C 0.4987(2) 0.9361(9) 0.4563(3)
C6D C 0.5030(2) 1.1001(9) 0.4606(3)
S1D S 0.51359(7) 1.2223(3) 0.41286(8)
C3D C 0.4652(2) 1.3524(8) 0.4052(3)
C2D C 0.4675(2) 1.4764(10) 0.3734(3)
C1D C 0.4302(3) 1.5843(9) 0.3664(3)
N1D N 0.3917(2) 1.5731(7) 0.3879(2)
C5D C 0.3898(2) 1.4508(9) 0.4177(3)
C4D C 0.4252(2) 1.3374(9) 0.4272(3)
H3D H 0.4221(2) 1.2528(9) 0.4480(3)
H4D H 0.3631(2) 1.4406(9) 0.4330(3)
H1D H 0.4322(3) 1.6694(9) 0.3455(3)
H2D H 0.4934(2) 1.4875(10) 0.3569(3)
C7D C 0.5049(2) 1.1630(9) 0.5065(3)
F1D F 0.5098(2) 1.3215(6) 0.5129(2)
F2D F 0.4969(2) 0.8680(6) 0.4135(2)
N2G N 0.7769(2) 0.5658(8) 0.9124(2)
C9G C 0.7712(3) 0.4099(11) 0.9018(4)
H5G H 0.7908(3) 0.3620(11) 0.8822(4)
C10G C 0.7371(4) 0.3168(12) 0.9187(4)
H6G H 0.7343(4) 0.2075(12) 0.9109(4)
C11G C 0.7075(3) 0.3857(11) 0.9470(3)
C12G C 0.7138(3) 0.5445(11) 0.9585(3)
H7G H 0.6945(3) 0.5948(11) 0.9781(3)
C13G C 0.7485(3) 0.6289(10) 0.9411(3)
H8G H 0.7527(3) 0.7371(10) 0.9497(3)
S2G S 0.66397(9) 0.2721(4) 0.97200(8)
C14G C 0.6379(3) 0.1692(11) 0.9217(3)
F3G F 0.6847(2) -0.0600(8) 0.9399(2)
C15G C 0.6505(2) 0.0125(10) 0.9120(3)
F4G F 0.6429(3) -0.2238(8) 0.8686(2)
C16G C 0.6287(3) -0.0714(11) 0.8748(3)
N3G N 0.6376(2) 0.0834(8) 0.6749(2)
C17G C 0.5938(3) -0.0049(13) 0.8451(3)
F5G F 0.5469(2) 0.2281(12) 0.8259(3)
C18G C 0.5812(3) 0.1540(14) 0.8544(3)
F6G F 0.5886(3) 0.3912(9) 0.8990(3)
C19G C 0.6028(3) 0.2393(11) 0.8917(3)
C20G C 0.5947(3) -0.0333(11) 0.7503(3)
C21G C 0.5753(3) -0.0599(11) 0.7055(3)
H9G H 0.5472(3) -0.1162(11) 0.6997(3)
C22G C 0.5972(3) -0.0035(10) 0.6688(3)
H10G H 0.5839(3) -0.0258(10) 0.6385(3)
S3G S 0.56587(10) -0.1110(4) 0.79672(8)
C23G C 0.6562(3) 0.1052(12) 0.7187(3)
H11G H 0.6846(3) 0.1603(12) 0.7239(3)
C24G C 0.6362(3) 0.0512(13) 0.7575(3)
H12G H 0.6504(3) 0.0716(13) 0.7877(3)
Cd1D Cd 0.334837(15) 1.77533(6) 0.38565(2)
Cd1G Cd 0.834837(15) 0.72467(6) 0.88565(2)
Cd1G_2 Cd 0.834837(15) -0.27533(6) 0.88565(2)
N2D N 0.2769(2) 1.9342(8) 0.4124(2)
N3C N 0.3624(2) 1.9166(8) 0.3251(2)
O1D O 0.3549(2) 1.7545(8) 0.4715(2)
N4D N 0.3805(2) 1.8820(10) 0.4732(2)
O2D O 0.3873(2) 1.9455(8) 0.4350(2)
O3D O 0.3971(2) 1.9436(13) 0.5098(2)
N5D N 0.2612(2) 1.5634(9) 0.3507(3)
O4D O 0.2820(2) 1.5429(7) 0.3906(2)
O5D O 0.2742(2) 1.6775(9) 0.3261(2)
O6D O 0.2285(3) 1.4759(11) 0.3360(3)
C25 C 0.6946(9) 0.6178(33) 0.7622(11)
Cl2 Cl 0.6640(7) 0.6309(23) 0.7104(5)
Cl4 Cl 0.6714(11) 0.4700(36) 0.7944(10)
Cl1? Cl 0.7064(7) 0.4447(23) 0.8001(7)
Cl3? Cl 0.6373(10) 0.5548(33) 0.7375(9)
loop_
_geom_bond_atom_site_label_1
_geom_bond_atom_site_label_2
_geom_bond_site_symmetry_1
_geom_bond_site_symmetry_2
Cd1 N1 1_555 1_555
N1 C1 1_555 1_555
C1 H1 1_555 1_555
C2 C1 1_555 1_555
H2 C2 1_555 1_555
C3 C2 1_555 1_555
C4 C3 1_555 1_555
H3 C4 1_555 1_555
C5 N1 1_555 1_555
H4 C5 1_555 1_555
S1 C3 1_555 1_555
C6 S1 1_555 1_555
F1 C7 1_555 1_555
C7 C6 1_555 1_555
F2 C8 1_555 1_555
C8 C6 1_555 1_555
N2 Cd1 1_555 1_555
C9 N2 1_555 1_555
H5 C9 1_555 1_555
C10 C9 1_555 1_555
H6 C10 1_555 1_555
C11 C10 1_555 1_555
C12 C11 1_555 1_555
H7 C12 1_555 1_555
C13 N2 1_555 1_555
H8 C13 1_555 1_555
S2 C11 1_555 1_555
C14 S2 1_555 1_555
F3 C15 1_555 1_555
C15 C14 1_555 1_555
F4 C16 1_555 1_555
C16 C15 1_555 1_555
N3 C22 1_555 1_555
C17 C16 1_555 1_555
F5 C18 1_555 1_555
C18 C17 1_555 1_555
F6 C19 1_555 1_555
C19 C14 1_555 1_555
C20 C21 1_555 1_555
C21 H9 1_555 1_555
C22 C21 1_555 1_555
H10 C22 1_555 1_555
S3 C17 1_555 1_555
C23 N3 1_555 1_555
H11 C23 1_555 1_555
C24 C20 1_555 1_555
H12 C24 1_555 1_555
O1 Cd1 1_555 1_555
N4 O1 1_555 1_555
O2 Cd1 1_555 1_555
O3 N4 1_555 1_555
N5 O4 1_555 1_555
O4 Cd1 1_555 1_555
O5 Cd1 1_555 1_555
O6 N5 1_555 1_555
C25 Cl2 1_555 1_555
Cl4 C25 1_555 1_555
C8D C7 1_555 1_555
C6D C8D 1_555 1_555
S1D C6D 1_555 1_555
C3D S1D 1_555 1_555
C2D C3D 1_555 1_555
C1D C2D 1_555 1_555
N1D C1D 1_555 1_555
C5D N1D 1_555 1_555
C4D C3D 1_555 1_555
H3D C4D 1_555 1_555
H4D C5D 1_555 1_555
H1D C1D 1_555 1_555
H2D C2D 1_555 1_555
C7D C8 1_555 1_555
F1D C7D 1_555 1_555
F2D C8D 1_555 1_555
N2G C9G 1_555 1_555
C9G H5G 1_555 1_555
C10G C9G 1_555 1_555
H6G C10G 1_555 1_555
C11G C10G 1_555 1_555
C12G C11G 1_555 1_555
H7G C12G 1_555 1_555
C13G N2G 1_555 1_555
H8G C13G 1_555 1_555
S2G C11G 1_555 1_555
C14G S2G 1_555 1_555
F3G C15G 1_555 1_555
C15G C14G 1_555 1_555
F4G C16G 1_555 1_555
C16G C15G 1_555 1_555
N3G Cd1 1_555 1_555
C17G C16G 1_555 1_555
F5G C18G 1_555 1_555
C18G C17G 1_555 1_555
F6G C19G 1_555 1_555
C19G C14G 1_555 1_555
C20G C21G 1_555 1_555
C21G H9G 1_555 1_555
C22G N3G 1_555 1_555
H10G C22G 1_555 1_555
S3G C17G 1_555 1_555
C23G N3G 1_555 1_555
H11G C23G 1_555 1_555
C24G C20G 1_555 1_555
H12G C24G 1_555 1_555
Cd1D N1D 1_555 1_555
Cd1G N2G 1_555 1_555
Cd1G_2 N3 1_555 1_555
N2D Cd1D 1_555 1_555
N3C Cd1D 1_555 1_555
O1D Cd1D 1_555 1_555
N4D O1D 1_555 1_555
O2D Cd1D 1_555 1_555
O3D N4D 1_555 1_555
N5D O4D 1_555 1_555
O4D Cd1D 1_555 1_555
O5D Cd1D 1_555 1_555
O6D N5D 1_555 1_555
C4 C5 1_555 1_555
C12 C13 1_555 1_555
C18 C19 1_555 1_555
C20 S3 1_555 1_555
C23 C24 1_555 1_555
N4 O2 1_555 1_555
N5 O5 1_555 1_555
C6D C7D 1_555 1_555
C5D C4D 1_555 1_555
C12G C13G 1_555 1_555
C18G C19G 1_555 1_555
C20G S3G 1_555 1_555
C21G C22G 1_555 1_555
C23G C24G 1_555 1_555
N4D O2D 1_555 1_555
N5D O5D 1_555 1_555

#END
