
#######################################################################
#
#                 Cambridge Crystallographic Data Centre
#                                CCDC 
#
#######################################################################
#
# If this CIF has been generated from an entry in the Cambridge 
# Structural Database, then it will include bibliographic, chemical, 
# crystal, experimental, refinement or atomic coordinate data resulting 
# from the CCDC's data processing and validation procedures.
#
#######################################################################

data_HOTCAW
_symmetry_cell_setting           triclinic
_symmetry_space_group_name_H-M   'P -1'
_symmetry_Int_Tables_number      2
_space_group_name_Hall           '-P 1'
loop_
_symmetry_equiv_pos_site_id
_symmetry_equiv_pos_as_xyz
1 x,y,z
2 -x,-y,-z
_cell_length_a                   3.9332(9)
_cell_length_b                   12.278(3)
_cell_length_c                   14.441(3)
_cell_angle_alpha                99.278(19)
_cell_angle_beta                 91.024(18)
_cell_angle_gamma                92.56(2)
_cell_volume                     687.35
loop_
_atom_site_label
_atom_site_type_symbol
_atom_site_fract_x
_atom_site_fract_y
_atom_site_fract_z
C1 C 0.777(3) 0.5604(9) 0.1806(8)
H1 H 0.8989 0.6180 0.1597
C2 C 0.699(3) 0.5688(9) 0.2736(8)
H2 H 0.7697 0.6336 0.3131
C3 C 0.432(2) 0.4008(10) 0.2507(8)
H3 H 0.3134 0.3434 0.2728
C4 C 0.502(2) 0.3907(9) 0.1560(8)
C5 C 0.378(2) 0.2874(10) 0.0909(8)
C6 C 0.455(2) 0.1944(9) -0.0738(7)
C7 C 0.302(3) 0.0924(9) -0.0634(8)
H4 H 0.2016 0.0816 -0.0075
C8 C 0.305(2) 0.0080(9) -0.1393(8)
H5 H 0.2053 -0.0611 -0.1350
C9 C 0.458(2) 0.0265(9) -0.2230(7)
C10 C 0.475(3) -0.0591(10) -0.3024(8)
H6 H 0.3845 -0.1299 -0.3004
C11 C 0.630(3) -0.0344(11) -0.3825(8)
H7 H 0.6499 -0.0890 -0.4346
C12 C 0.756(3) 0.0732(11) -0.3841(8)
H8 H 0.8564 0.0889 -0.4387
C13 C 0.740(2) 0.1575(10) -0.3090(8)
H9 H 0.8238 0.2285 -0.3133
C14 C 0.594(2) 0.1342(9) -0.2254(7)
N1 N 0.678(2) 0.4693(8) 0.1193(6)
N2 N 0.532(2) 0.4924(8) 0.3111(6)
N3 N 0.486(2) 0.2832(8) 0.0007(6)
H10 H 0.5856 0.3427 -0.0119
N4 N 0.598(2) 0.2181(8) -0.1501(6)
O1 O 0.202(2) 0.2191(8) 0.1200(6)
Br1 Br 0.9106(2) 0.66266(9) 0.52425(8)
Hg1 Hg 0.5000 0.5000 0.5000
C1A C 0.223(3) 0.4396(9) 0.8194(8)
H1A H 0.1011 0.3820 0.8403
C2A C 0.301(3) 0.4312(9) 0.7264(8)
H2A H 0.2303 0.3664 0.6869
C3A C 0.568(2) 0.5992(10) 0.7493(8)
H3A H 0.6866 0.6566 0.7272
C4A C 0.498(2) 0.6093(9) 0.8440(8)
C5A C 0.622(2) 0.7126(10) 0.9091(8)
C6A C 0.545(2) 0.8056(9) 1.0738(7)
C7A C 0.698(3) 0.9076(9) 1.0634(8)
H4A H 0.7984 0.9184 1.0075
C8A C 0.695(2) 0.9920(9) 1.1393(8)
H5A H 0.7947 1.0611 1.1350
C9A C 0.542(2) 0.9735(9) 1.2230(7)
C10A C 0.525(3) 1.0591(10) 1.3024(8)
H6A H 0.6155 1.1299 1.3004
C11A C 0.370(3) 1.0344(11) 1.3825(8)
H7A H 0.3501 1.0890 1.4346
C12A C 0.244(3) 0.9268(11) 1.3841(8)
H8A H 0.1436 0.9111 1.4387
C13A C 0.260(2) 0.8425(10) 1.3090(8)
H9A H 0.1762 0.7715 1.3133
C14A C 0.406(2) 0.8658(9) 1.2254(7)
N1A N 0.322(2) 0.5307(8) 0.8807(6)
N2A N 0.468(2) 0.5076(8) 0.6889(6)
N3A N 0.514(2) 0.7168(8) 0.9993(6)
H10A H 0.4144 0.6573 1.0119
N4A N 0.402(2) 0.7819(8) 1.1501(6)
O1A O 0.798(2) 0.7809(8) 0.8800(6)
Br1A Br 0.0894(2) 0.33734(9) 0.47575(8)
Br1_2 Br -0.0894(2) 0.66266(9) 0.52425(8)
Br1A_2 Br 1.0894(2) 0.33734(9) 0.47575(8)
Hg1_2 Hg -0.5000 0.5000 0.5000
Hg1_3 Hg 1.5000 0.5000 0.5000
loop_
_geom_bond_atom_site_label_1
_geom_bond_atom_site_label_2
_geom_bond_site_symmetry_1
_geom_bond_site_symmetry_2
C1 H1 1_555 1_555
C2 C1 1_555 1_555
H2 C2 1_555 1_555
C3 H3 1_555 1_555
C4 C3 1_555 1_555
C5 C4 1_555 1_555
C6 C7 1_555 1_555
C7 H4 1_555 1_555
C8 C7 1_555 1_555
H5 C8 1_555 1_555
C9 C8 1_555 1_555
C10 C9 1_555 1_555
H6 C10 1_555 1_555
C11 C10 1_555 1_555
H7 C11 1_555 1_555
C12 C11 1_555 1_555
H8 C12 1_555 1_555
C13 C12 1_555 1_555
H9 C13 1_555 1_555
C14 C9 1_555 1_555
N1 C1 1_555 1_555
N2 C2 1_555 1_555
N3 C5 1_555 1_555
H10 N3 1_555 1_555
N4 C6 1_555 1_555
O1 C5 1_555 1_555
Br1 Hg1 1_555 1_555
Hg1 N2 1_555 1_555
C1A H1A 1_555 1_555
C2A C1A 1_555 1_555
H2A C2A 1_555 1_555
C3A H3A 1_555 1_555
C4A C3A 1_555 1_555
C5A C4A 1_555 1_555
C6A C7A 1_555 1_555
C7A H4A 1_555 1_555
C8A C7A 1_555 1_555
H5A C8A 1_555 1_555
C9A C8A 1_555 1_555
C10A C9A 1_555 1_555
H6A C10A 1_555 1_555
C11A C10A 1_555 1_555
H7A C11A 1_555 1_555
C12A C11A 1_555 1_555
H8A C12A 1_555 1_555
C13A C12A 1_555 1_555
H9A C13A 1_555 1_555
C14A C9A 1_555 1_555
N1A C1A 1_555 1_555
N2A Hg1 1_555 1_555
N3A C5A 1_555 1_555
H10A N3A 1_555 1_555
N4A C6A 1_555 1_555
O1A C5A 1_555 1_555
Br1A Hg1 1_555 1_555
Br1_2 Hg1 1_555 1_555
Br1A_2 Hg1 1_555 1_555
Hg1_2 Br1A 1_555 1_555
Hg1_3 Br1 1_555 1_555
C3 N2 1_555 1_555
C4 N1 1_555 1_555
C6 N3 1_555 1_555
C13 C14 1_555 1_555
C14 N4 1_555 1_555
C2A N2A 1_555 1_555
C3A N2A 1_555 1_555
C4A N1A 1_555 1_555
C6A N3A 1_555 1_555
C13A C14A 1_555 1_555
C14A N4A 1_555 1_555
Br1_2 Hg1_2 1_555 1_555
Br1A_2 Hg1_3 1_555 1_555

#END
