
#######################################################################
#
#                 Cambridge Crystallographic Data Centre
#                                CCDC 
#
#######################################################################
#
# If this CIF has been generated from an entry in the Cambridge 
# Structural Database, then it will include bibliographic, chemical, 
# crystal, experimental, refinement or atomic coordinate data resulting 
# from the CCDC's data processing and validation procedures.
#
#######################################################################

data_HOTCEY
_symmetry_cell_setting           monoclinic
_symmetry_space_group_name_H-M   'P 21/c'
_symmetry_Int_Tables_number      14
_space_group_name_Hall           '-P 2ybc'
loop_
_symmetry_equiv_pos_site_id
_symmetry_equiv_pos_as_xyz
1 x,y,z
2 x,1/2-y,1/2+z
3 -x,-y,-z
4 -x,1/2+y,1/2-z
_cell_length_a                   5.988(2)
_cell_length_b                   16.777(3)
_cell_length_c                   23.539(3)
_cell_angle_alpha                90
_cell_angle_beta                 96.29(2)
_cell_angle_gamma                90
_cell_volume                     2350.51
loop_
_atom_site_label
_atom_site_type_symbol
_atom_site_fract_x
_atom_site_fract_y
_atom_site_fract_z
Co1 Co 0.3220(2) 0.28460(7) 0.05106(5)
I1 I 0.50192(13) 0.20175(4) 0.13641(3)
I2 I 0.56607(13) 0.35246(5) -0.01840(3)
N1 N 0.1365(13) 0.3696(4) 0.0861(3)
C1 C 0.0096(18) 0.3502(6) 0.1287(4)
H1 H 0.0114(18) 0.2977(6) 0.1415(4)
C2 C -0.1204(17) 0.4043(6) 0.1535(4)
H2 H -0.2063(17) 0.3884(6) 0.1821(4)
C3 C -0.1232(16) 0.4812(6) 0.1360(3)
C4 C 0.0003(20) 0.5035(6) 0.0913(4)
H3 H -0.0026(20) 0.5557(6) 0.0779(4)
C5 C 0.1254(17) 0.4464(6) 0.0678(4)
H4 H 0.2065(17) 0.4608(6) 0.0379(4)
S1 S -0.2840(6) 0.5574(2) 0.16429(11)
C6 C -0.3011(18) 0.5222(6) 0.2350(3)
C7 C -0.1326(18) 0.5390(6) 0.2772(4)
F1 F 0.0536(13) 0.5762(5) 0.2667(4)
C8 C -0.1537(18) 0.5189(6) 0.3339(4)
F2 F 0.0102(14) 0.5376(5) 0.3740(3)
C9 C -0.3439(17) 0.4816(6) 0.3492(4)
C10 C -0.5104(17) 0.4631(7) 0.3049(5)
F3 F -0.6984(13) 0.4282(6) 0.3173(4)
C11 C -0.4871(19) 0.4843(7) 0.2496(4)
F4 F -0.6537(14) 0.4642(6) 0.2090(3)
S2 S -0.3982(6) 0.4670(2) 0.41996(12)
C12 C -0.1924(17) 0.4004(6) 0.4492(4)
C13 C -0.0340(20) 0.3616(7) 0.4206(4)
H5 H -0.0286(20) 0.3707(7) 0.3818(4)
C14 C 0.1148(19) 0.3097(6) 0.4494(4)
H6 H 0.2233(19) 0.2854(6) 0.4298(4)
N2 N 0.1090(13) 0.2927(5) 0.5051(3)
C15 C -0.0466(19) 0.3305(6) 0.5321(4)
H7 H -0.0512(19) 0.3202(6) 0.5707(4)
C16 C -0.1956(19) 0.3822(6) 0.5064(4)
H8 H -0.3015(19) 0.4058(6) 0.5271(4)
N2A N 0.1090(13) 0.2073(5) 0.0051(3)
Co1A Co 0.3220(2) 0.21540(7) 0.55106(5)
C17 C 0.2547(56) 0.7144(16) 0.1943(16)
H9 H 0.2958(56) 0.6719(16) 0.2214(16)
H10 H 0.1950(56) 0.6897(16) 0.1586(16)
Cl1 Cl 0.0461(16) 0.7688(6) 0.2191(3)
Cl2 Cl 0.4782(19) 0.7617(6) 0.1836(6)
loop_
_geom_bond_atom_site_label_1
_geom_bond_atom_site_label_2
_geom_bond_site_symmetry_1
_geom_bond_site_symmetry_2
Co1 I1 1_555 1_555
I2 Co1 1_555 1_555
N1 Co1 1_555 1_555
C1 N1 1_555 1_555
H1 C1 1_555 1_555
C2 C1 1_555 1_555
H2 C2 1_555 1_555
C3 C2 1_555 1_555
C4 C3 1_555 1_555
H3 C4 1_555 1_555
C5 N1 1_555 1_555
H4 C5 1_555 1_555
S1 C3 1_555 1_555
C6 S1 1_555 1_555
C7 C6 1_555 1_555
F1 C7 1_555 1_555
C8 C7 1_555 1_555
F2 C8 1_555 1_555
C9 C8 1_555 1_555
C10 C9 1_555 1_555
F3 C10 1_555 1_555
C11 C6 1_555 1_555
F4 C11 1_555 1_555
S2 C9 1_555 1_555
C12 S2 1_555 1_555
C13 C12 1_555 1_555
H5 C13 1_555 1_555
C14 C13 1_555 1_555
H6 C14 1_555 1_555
N2 C14 1_555 1_555
C15 N2 1_555 1_555
H7 C15 1_555 1_555
C16 C12 1_555 1_555
H8 C16 1_555 1_555
C17 H9 1_555 1_555
H10 C17 1_555 1_555
Cl1 C17 1_555 1_555
Cl2 C17 1_555 1_555
N2A Co1 1_555 1_555
Co1A N2 1_555 1_555
C4 C5 1_555 1_555
C10 C11 1_555 1_555
C15 C16 1_555 1_555

#END
