
#######################################################################
#
#                 Cambridge Crystallographic Data Centre
#                                CCDC 
#
#######################################################################
#
# If this CIF has been generated from an entry in the Cambridge 
# Structural Database, then it will include bibliographic, chemical, 
# crystal, experimental, refinement or atomic coordinate data resulting 
# from the CCDC's data processing and validation procedures.
#
#######################################################################

data_HOTDAV
_symmetry_cell_setting           monoclinic
_symmetry_space_group_name_H-M   'P 21/n'
_symmetry_Int_Tables_number      14
_space_group_name_Hall           '-P 2yn'
loop_
_symmetry_equiv_pos_site_id
_symmetry_equiv_pos_as_xyz
1 x,y,z
2 1/2+x,1/2-y,1/2+z
3 -x,-y,-z
4 1/2-x,1/2+y,1/2-z
_cell_length_a                   7.8380(2)
_cell_length_b                   19.8698(5)
_cell_length_c                   9.5558(3)
_cell_angle_alpha                90
_cell_angle_beta                 111.9320(10)
_cell_angle_gamma                90
_cell_volume                     1380.51
loop_
_atom_site_label
_atom_site_type_symbol
_atom_site_fract_x
_atom_site_fract_y
_atom_site_fract_z
Mn1 Mn 0.06039(4) 0.03401(2) 0.35397(3)
N1 N -0.2230(2) 0.07652(9) 0.2438(2)
N2 N 0.0869(2) 0.14666(9) 0.3185(2)
N3 N 0.0353(3) 0.06143(10) 0.5833(2)
N4 N -0.0185(3) 0.11608(10) 0.5971(2)
N5 N -0.0680(4) 0.16901(13) 0.6095(3)
N6 N -0.0412(3) 0.00395(13) 0.8702(2)
N7 N 0.0000 0.0000 1.0000
N8 N -0.3537(3) -0.02218(13) 0.5473(3)
N9 N -0.5000 0.0000 0.5000
C1 C -0.3748(3) 0.03823(13) 0.2025(3)
C2 C -0.5483(3) 0.06321(14) 0.1269(3)
C3 C -0.5721(3) 0.13049(13) 0.0901(3)
C4 C -0.4157(3) 0.17105(12) 0.1358(3)
C5 C -0.2436(3) 0.14257(11) 0.2116(2)
C6 C -0.0700(3) 0.18262(11) 0.2589(2)
C7 C -0.0675(3) 0.25186(12) 0.2425(3)
C8 C 0.0973(3) 0.28686(12) 0.2865(3)
C9 C 0.2573(3) 0.24908(13) 0.3467(3)
C10 C 0.2468(3) 0.18048(13) 0.3621(3)
C11 C -0.7592(4) 0.1598(2) 0.0016(4)
C12 C 0.1016(6) 0.3618(2) 0.2702(5)
H1 H -0.3550(35) -0.0080(15) 0.2321(28)
H2 H -0.6541(40) 0.0345(13) 0.0971(30)
H3 H -0.4303(34) 0.2189(15) 0.1144(29)
H4 H -0.1760(31) 0.2723(12) 0.2009(25)
H5 H 0.3672(41) 0.2712(16) 0.3725(32)
H6 H 0.3553(33) 0.1550(13) 0.3994(27)
H7 H -0.8013(48) 0.1424(19) -0.0956(45)
H8 H -0.7607(48) 0.2080(21) -0.0101(41)
H9 H -0.8443(52) 0.1437(20) 0.0313(44)
H10 H -0.0182(58) 0.3800(21) 0.2233(46)
H11 H 0.1661(57) 0.3809(23) 0.3560(50)
H12 H 0.1447(52) 0.3707(21) 0.2014(44)
Mn1B Mn -0.06039(4) -0.03401(2) 0.64603(3)
N1B N 0.2230(2) -0.07652(9) 0.7562(2)
C1B C 0.3748(3) -0.03823(13) 0.7975(3)
C2B C 0.5483(3) -0.06321(14) 0.8731(3)
C3B C 0.5721(3) -0.13049(13) 0.9099(3)
C4B C 0.4157(3) -0.17105(12) 0.8642(3)
C5B C 0.2436(3) -0.14257(11) 0.7884(2)
C6B C 0.0700(3) -0.18262(11) 0.7411(2)
N2B N -0.0869(2) -0.14666(9) 0.6815(2)
N3B N -0.0353(3) -0.06143(10) 0.4167(2)
N4B N 0.0185(3) -0.11608(10) 0.4029(2)
N5B N 0.0680(4) -0.16901(13) 0.3905(3)
N6B N 0.0412(3) -0.00395(13) 0.1298(2)
N8B N 0.3537(3) 0.02218(13) 0.4527(3)
C10B C -0.2468(3) -0.18048(13) 0.6379(3)
C9B C -0.2573(3) -0.24908(13) 0.6533(3)
C8B C -0.0973(3) -0.28686(12) 0.7135(3)
C7B C 0.0675(3) -0.25186(12) 0.7575(3)
H4B H 0.1760(31) -0.2723(12) 0.7991(25)
C12B C -0.1016(6) -0.3618(2) 0.7298(5)
H10B H 0.0182(58) -0.3800(21) 0.7767(46)
H11B H -0.1661(57) -0.3809(23) 0.6440(50)
H12B H -0.1447(52) -0.3707(21) 0.7986(44)
H5B H -0.3672(41) -0.2712(16) 0.6275(32)
H6B H -0.3553(33) -0.1550(13) 0.6006(27)
H3B H 0.4303(34) -0.2189(15) 0.8856(29)
C11B C 0.7592(4) -0.1598(2) 0.9984(4)
H7B H 0.8013(48) -0.1424(19) 1.0956(45)
H8B H 0.7607(48) -0.2080(21) 1.0101(41)
H9B H 0.8443(52) -0.1437(20) 0.9687(44)
H2B H 0.6541(40) -0.0345(13) 0.9029(30)
H1B H 0.3550(35) 0.0080(15) 0.7679(28)
N6B_2 N 0.0412(3) -0.00395(13) 1.1298(2)
N8B_2 N -0.6463(3) 0.02218(13) 0.4527(3)
Mn1_2 Mn 0.06039(4) 0.03401(2) 1.35397(3)
Mn1_3 Mn -0.93961(4) 0.03401(2) 0.35397(3)
loop_
_geom_bond_atom_site_label_1
_geom_bond_atom_site_label_2
_geom_bond_site_symmetry_1
_geom_bond_site_symmetry_2
Mn1 N1 1_555 1_555
N1 C1 1_555 1_555
N2 Mn1 1_555 1_555
N3 Mn1 1_555 1_555
N4 N3 1_555 1_555
N5 N4 1_555 1_555
N6 N7 1_555 1_555
N7 N6B_2 1_555 1_555
N8 N9 1_555 1_555
N9 N8B_2 1_555 1_555
C1 C2 1_555 1_555
C2 C3 1_555 1_555
C3 C4 1_555 1_555
C4 C5 1_555 1_555
C5 N1 1_555 1_555
C6 N2 1_555 1_555
C7 C6 1_555 1_555
C8 C7 1_555 1_555
C9 C8 1_555 1_555
C10 N2 1_555 1_555
C11 C3 1_555 1_555
C12 C8 1_555 1_555
H1 C1 1_555 1_555
H2 C2 1_555 1_555
H3 C4 1_555 1_555
H4 C7 1_555 1_555
H5 C9 1_555 1_555
H6 C10 1_555 1_555
H7 C11 1_555 1_555
H8 C11 1_555 1_555
H9 C11 1_555 1_555
H10 C12 1_555 1_555
H11 C12 1_555 1_555
H12 C12 1_555 1_555
Mn1B N3 1_555 1_555
N1B Mn1B 1_555 1_555
C1B N1B 1_555 1_555
C2B C1B 1_555 1_555
C3B C2B 1_555 1_555
C4B C3B 1_555 1_555
C5B N1B 1_555 1_555
C6B C5B 1_555 1_555
N2B Mn1B 1_555 1_555
N3B Mn1 1_555 1_555
N4B N3B 1_555 1_555
N5B N4B 1_555 1_555
N6B Mn1 1_555 1_555
N8B Mn1 1_555 1_555
C10B N2B 1_555 1_555
C9B C10B 1_555 1_555
C8B C9B 1_555 1_555
C7B C6B 1_555 1_555
H4B C7B 1_555 1_555
C12B C8B 1_555 1_555
H10B C12B 1_555 1_555
H11B C12B 1_555 1_555
H12B C12B 1_555 1_555
H5B C9B 1_555 1_555
H6B C10B 1_555 1_555
H3B C4B 1_555 1_555
C11B C3B 1_555 1_555
H7B C11B 1_555 1_555
H8B C11B 1_555 1_555
H9B C11B 1_555 1_555
H2B C2B 1_555 1_555
H1B C1B 1_555 1_555
N6B_2 Mn1_2 1_555 1_555
N8B_2 Mn1_3 1_555 1_555
N6 Mn1B 1_555 1_555
N8 Mn1B 1_555 1_555
C5 C6 1_555 1_555
C9 C10 1_555 1_555
Mn1B N3B 1_555 1_555
C4B C5B 1_555 1_555
C6B N2B 1_555 1_555
C8B C7B 1_555 1_555

#END
