
#######################################################################
#
#                 Cambridge Crystallographic Data Centre
#                                CCDC 
#
#######################################################################
#
# If this CIF has been generated from an entry in the Cambridge 
# Structural Database, then it will include bibliographic, chemical, 
# crystal, experimental, refinement or atomic coordinate data resulting 
# from the CCDC's data processing and validation procedures.
#
#######################################################################

data_HOTDEZ
_symmetry_cell_setting           triclinic
_symmetry_space_group_name_H-M   'P -1'
_symmetry_Int_Tables_number      2
_space_group_name_Hall           '-P 1'
loop_
_symmetry_equiv_pos_site_id
_symmetry_equiv_pos_as_xyz
1 x,y,z
2 -x,-y,-z
_cell_length_a                   7.9610(6)
_cell_length_b                   9.3920(6)
_cell_length_c                   10.7626(8)
_cell_angle_alpha                113.4390(10)
_cell_angle_beta                 101.2280(10)
_cell_angle_gamma                101.9820(10)
_cell_volume                     686.893
loop_
_atom_site_label
_atom_site_type_symbol
_atom_site_fract_x
_atom_site_fract_y
_atom_site_fract_z
Cu1 Cu -0.29254(5) 0.00051(4) 0.09009(3)
N1 N -0.1590(3) 0.1206(3) 0.3023(3)
N2 N -0.4218(3) -0.1515(3) 0.1564(2)
N3 N -0.1502(4) 0.1743(4) 0.0563(3)
N4 N -0.0412(4) 0.1636(3) 0.0049(3)
N5 N 0.0764(6) 0.1640(5) -0.0456(6)
N6 N -0.4494(4) -0.1359(3) -0.1109(3)
N7 N -0.3995(4) -0.1314(3) -0.2078(3)
N8 N -0.3610(6) -0.1313(5) -0.3043(3)
C1 C -0.0187(5) 0.2592(4) 0.3688(4)
H1 H 0.0272 0.3039 0.3145
C2 C 0.0598(5) 0.3377(4) 0.5141(4)
H2 H 0.1573 0.4334 0.5561
C3 C -0.0049(4) 0.2754(4) 0.5978(3)
C4 C -0.1481(4) 0.1287(4) 0.5282(3)
H3 H -0.1946 0.0810 0.5804
C5 C -0.2202(4) 0.0550(3) 0.3822(3)
C6 C -0.3674(3) -0.1041(3) 0.2973(3)
C7 C -0.4371(4) -0.1993(3) 0.3570(3)
H4 H -0.3984 -0.1617 0.4550
C8 C -0.5666(4) -0.3531(3) 0.2682(3)
C9 C -0.6232(4) -0.3981(4) 0.1245(3)
H5 H -0.7111 -0.4982 0.0624
C10 C -0.5505(4) -0.2961(3) 0.0723(3)
H6 H -0.5922 -0.3286 -0.0248
C11 C 0.0731(6) 0.3624(5) 0.7575(4)
H7 H 0.0950 0.4778 0.7908
H8 H 0.1846 0.3426 0.7852
H9 H -0.0106 0.3224 0.7985
C12 C -0.6368(5) -0.4636(4) 0.3281(4)
H10 H -0.6532 -0.4001 0.4173
H11 H -0.5520 -0.5191 0.3426
H12 H -0.7504 -0.5427 0.2627
N5A N -0.0764(6) -0.1640(5) 0.0456(6)
Cu1A Cu 0.29254(5) -0.00051(4) -0.09009(3)
Cu1A_2 Cu -0.70746(5) -0.00051(4) -0.09009(3)
N6A N -0.5506(4) 0.1359(3) 0.1109(3)
loop_
_geom_bond_atom_site_label_1
_geom_bond_atom_site_label_2
_geom_bond_site_symmetry_1
_geom_bond_site_symmetry_2
Cu1 N1 1_555 1_555
N1 C1 1_555 1_555
N2 Cu1 1_555 1_555
N3 Cu1 1_555 1_555
N4 N3 1_555 1_555
N5 N4 1_555 1_555
N6 Cu1 1_555 1_555
N7 N6 1_555 1_555
N8 N7 1_555 1_555
C1 H1 1_555 1_555
C2 C1 1_555 1_555
H2 C2 1_555 1_555
C3 C2 1_555 1_555
C4 C3 1_555 1_555
H3 C4 1_555 1_555
C5 N1 1_555 1_555
C6 N2 1_555 1_555
C7 C6 1_555 1_555
H4 C7 1_555 1_555
C8 C7 1_555 1_555
C9 C8 1_555 1_555
H5 C9 1_555 1_555
C10 N2 1_555 1_555
H6 C10 1_555 1_555
C11 C3 1_555 1_555
H7 C11 1_555 1_555
H8 C11 1_555 1_555
H9 C11 1_555 1_555
C12 C8 1_555 1_555
H10 C12 1_555 1_555
H11 C12 1_555 1_555
H12 C12 1_555 1_555
N5A Cu1 1_555 1_555
Cu1A N5 1_555 1_555
Cu1A_2 N6 1_555 1_555
N6A Cu1 1_555 1_555
C4 C5 1_555 1_555
C5 C6 1_555 1_555
C9 C10 1_555 1_555
Cu1A_2 N6A 1_555 1_555

#END
