
#######################################################################
#
#                 Cambridge Crystallographic Data Centre
#                                CCDC 
#
#######################################################################
#
# If this CIF has been generated from an entry in the Cambridge 
# Structural Database, then it will include bibliographic, chemical, 
# crystal, experimental, refinement or atomic coordinate data resulting 
# from the CCDC's data processing and validation procedures.
#
#######################################################################

data_HOTDEZ01
_symmetry_cell_setting           triclinic
_symmetry_space_group_name_H-M   'P -1'
_symmetry_Int_Tables_number      2
_space_group_name_Hall           '-P 1'
loop_
_symmetry_equiv_pos_site_id
_symmetry_equiv_pos_as_xyz
1 x,y,z
2 -x,-y,-z
_cell_length_a                   7.9903(12)
_cell_length_b                   9.3545(9)
_cell_length_c                   10.754(2)
_cell_angle_alpha                113.485(11)
_cell_angle_beta                 101.399(13)
_cell_angle_gamma                101.897(12)
_cell_volume                     685.437
loop_
_atom_site_label
_atom_site_type_symbol
_atom_site_fract_x
_atom_site_fract_y
_atom_site_fract_z
Cu1 Cu -0.29367(10) -0.00030(8) -0.40991(6)
N1 N -0.4507(7) -0.1357(6) -0.6111(5)
N2 N -0.4006(7) -0.1319(6) -0.7075(5)
N3 N -0.3591(9) -0.1298(8) -0.8025(5)
N4 N -0.1531(7) 0.1731(6) -0.4429(5)
N5 N -0.0398(7) 0.1635(6) -0.4969(5)
N6 N 0.0752(9) 0.1606(8) -0.5472(8)
N7 N -0.4229(6) -0.1528(5) -0.3442(4)
N8 N -0.1599(6) 0.1206(5) -0.1977(4)
C1 C -0.0198(9) 0.2599(8) -0.1292(6)
H1 H 0.0179(90) 0.2968(81) -0.1899(68)
C2 C 0.0610(10) 0.3363(8) 0.0139(7)
H2 H 0.1446(80) 0.4169(73) 0.0479(59)
C3 C -0.0050(8) 0.2754(7) 0.0984(6)
C4 C -0.1472(8) 0.1292(7) 0.0282(6)
H3 H -0.1919(77) 0.0885(68) 0.0706(59)
C5 C -0.2209(7) 0.0543(6) -0.1184(5)
C6 C 0.0756(14) 0.3607(11) 0.2562(7)
H4 H 0.177(15) 0.353(14) 0.285(11)
H5 H -0.018(11) 0.3573(99) 0.3090(83)
H6 H 0.093(11) 0.469(10) 0.2961(84)
C7 C -0.5513(8) -0.2983(6) -0.4278(5)
H7 H -0.5851(77) -0.3169(69) -0.5235(62)
C8 C -0.6233(9) -0.3979(8) -0.3755(6)
H8 H -0.6917(76) -0.4781(68) -0.4220(55)
C9 C -0.5668(8) -0.3531(7) -0.2312(5)
C10 C -0.4378(8) -0.2007(7) -0.1440(5)
H9 H -0.3973(81) -0.1567(73) -0.0573(61)
C11 C -0.3680(7) -0.1042(6) -0.2020(5)
C12 C -0.6378(15) -0.4636(12) -0.1718(10)
H10 H -0.547(12) -0.483(11) -0.1362(99)
H11 H -0.746(13) -0.552(11) -0.2356(95)
H12 H -0.651(15) -0.427(13) -0.109(11)
Cu1A Cu -0.70633(10) 0.00030(8) -0.59009(6)
N1A N -0.5493(7) 0.1357(6) -0.3889(5)
N6A N -0.0752(9) -0.1606(8) -0.4528(8)
Cu1A_2 Cu 0.29367(10) 0.00030(8) -0.59009(6)
loop_
_geom_bond_atom_site_label_1
_geom_bond_atom_site_label_2
_geom_bond_site_symmetry_1
_geom_bond_site_symmetry_2
Cu1 N1 1_555 1_555
N1 N2 1_555 1_555
N2 N3 1_555 1_555
N4 Cu1 1_555 1_555
N5 N4 1_555 1_555
N6 N5 1_555 1_555
N7 Cu1 1_555 1_555
N8 Cu1 1_555 1_555
C1 N8 1_555 1_555
H1 C1 1_555 1_555
C2 C1 1_555 1_555
H2 C2 1_555 1_555
C3 C2 1_555 1_555
C4 C3 1_555 1_555
H3 C4 1_555 1_555
C5 N8 1_555 1_555
C6 C3 1_555 1_555
H4 C6 1_555 1_555
H5 C6 1_555 1_555
H6 C6 1_555 1_555
C7 N7 1_555 1_555
H7 C7 1_555 1_555
C8 C7 1_555 1_555
H8 C8 1_555 1_555
C9 C8 1_555 1_555
C10 C9 1_555 1_555
H9 C10 1_555 1_555
C11 N7 1_555 1_555
C12 C9 1_555 1_555
H10 C12 1_555 1_555
H11 C12 1_555 1_555
H12 C12 1_555 1_555
Cu1A N1 1_555 1_555
N1A Cu1 1_555 1_555
N6A Cu1 1_555 1_555
Cu1A_2 N6 1_555 1_555
C4 C5 1_555 1_555
C5 C11 1_555 1_555
C10 C11 1_555 1_555
Cu1A N1A 1_555 1_555

#END
