
#######################################################################
#
#                 Cambridge Crystallographic Data Centre
#                                CCDC 
#
#######################################################################
#
# If this CIF has been generated from an entry in the Cambridge 
# Structural Database, then it will include bibliographic, chemical, 
# crystal, experimental, refinement or atomic coordinate data resulting 
# from the CCDC's data processing and validation procedures.
#
#######################################################################

data_HOTHAZ
_symmetry_cell_setting           orthorhombic
_symmetry_space_group_name_H-M   'P 21 21 21'
_symmetry_Int_Tables_number      19
_space_group_name_Hall           'P 2ac 2ab'
loop_
_symmetry_equiv_pos_site_id
_symmetry_equiv_pos_as_xyz
1 x,y,z
2 1/2+x,1/2-y,-z
3 -x,1/2+y,1/2-z
4 1/2-x,-y,1/2+z
_cell_length_a                   7.5234(7)
_cell_length_b                   7.7774(7)
_cell_length_c                   19.444(3)
_cell_angle_alpha                90
_cell_angle_beta                 90
_cell_angle_gamma                90
_cell_volume                     1137.72
loop_
_atom_site_label
_atom_site_type_symbol
_atom_site_fract_x
_atom_site_fract_y
_atom_site_fract_z
Cu1 Cu 0.17368(6) 0.52585(5) 0.03380(2)
O1 O 0.2955(3) 0.5248(4) 0.12426(10)
O2 O 0.5595(3) 0.4817(4) 0.07763(11)
O3 O 0.4699(3) 0.4772(4) 0.44849(11)
O4 O 0.2717(3) 0.5671(5) 0.88668(14)
O5 O -0.0784(3) 0.4807(5) 0.10041(15)
N1 N 0.1651(5) 0.7823(4) 0.0385(2)
N2 N 0.2172(4) 0.2722(4) 0.0274(2)
C1 C 0.4612(4) 0.4984(4) 0.12871(15)
C2 C 0.5401(4) 0.4858(5) 0.20004(14)
C3 C 0.4118(4) 0.4800(5) 0.25958(15)
C4 C 0.5071(4) 0.4709(5) 0.32842(15)
C5 C 0.3904(5) 0.4601(5) 0.3915(2)
H1 H -0.1863 0.4898 0.0958
H2 H -0.0751 0.3900 0.1218
H7 H 0.1265 0.8239 -0.0014
H8 H 0.2734 0.8229 0.0471
H9 H 0.0914 0.8143 0.0720
H10 H 0.1607 0.2302 -0.0092
H11 H 0.1769 0.2210 0.0652
H12 H 0.3333 0.2527 0.0232
H13 H 0.6131 0.3831 0.20188
H14 H 0.6183 0.5835 0.20669
H15 H 0.3352 0.3804 0.25470
H16 H 0.3373 0.5818 0.25852
H17 H 0.5846 0.3712 0.32795
H18 H 0.5820 0.5718 0.33272
O3C O 0.0301(3) 0.5228(4) -0.05151(11)
Cu1C Cu 0.32632(6) 0.47415(5) 0.53380(2)
O1C O 0.2045(3) 0.4752(4) 0.62426(10)
C1C C 0.0388(4) 0.5016(4) 0.62871(15)
O2C O -0.0595(3) 0.5183(4) 0.57763(11)
C2C C -0.0401(4) 0.5142(5) 0.70004(14)
C3C C 0.0882(4) 0.5200(5) 0.75958(15)
C4C C -0.0071(4) 0.5291(5) 0.82842(15)
C5C C 0.1096(5) 0.5399(5) 0.8915(2)
O3C_2 O 0.0301(3) 0.5228(4) 0.94849(11)
Cu1_2 Cu 0.17368(6) 0.52585(5) 1.03380(2)
H17C H -0.0846 0.6288 0.82795
H18C H -0.0820 0.4282 0.83272
H15C H 0.1648 0.6196 0.75470
H16C H 0.1627 0.4182 0.75852
H13C H -0.1131 0.6169 0.70188
H14C H -0.1183 0.4165 0.70669
O5C O 0.5784(3) 0.5193(5) 0.60041(15)
H1C H 0.6863 0.5102 0.5958
H2C H 0.5751 0.6100 0.6218
N1C N 0.3349(5) 0.2177(4) 0.5385(2)
H7C H 0.3735 0.1761 0.4986
H8C H 0.2266 0.1771 0.5471
H9C H 0.4086 0.1857 0.5720
N2C N 0.2828(4) 0.7278(4) 0.5274(2)
H10C H 0.3393 0.7698 0.4908
H11C H 0.3231 0.7790 0.5652
H12C H 0.1667 0.7473 0.5232
O4C O 0.2283(3) 0.4329(5) 0.38668(14)
O6 O 0.0061(6) 0.7408(5) 0.2025(2)
H3 H 0.0202 0.6474 0.1837
H4 H -0.0772 0.7895 0.1836
O7 O 0.0195(6) 0.1775(5) 0.1593(2)
H5 H 0.0305 0.1760 0.2012
H6 H -0.0445 0.0946 0.1511
loop_
_geom_bond_atom_site_label_1
_geom_bond_atom_site_label_2
_geom_bond_site_symmetry_1
_geom_bond_site_symmetry_2
Cu1 O1 1_555 1_555
O1 C1 1_555 1_555
O2 C1 1_555 1_555
O3 C5 1_555 1_555
O4 C5C 1_555 1_555
O5 Cu1 1_555 1_555
O6 H3 1_555 1_555
O7 H5 1_555 1_555
N1 Cu1 1_555 1_555
N2 Cu1 1_555 1_555
C1 C2 1_555 1_555
C2 C3 1_555 1_555
C3 C4 1_555 1_555
C4 C5 1_555 1_555
C5 O4C 1_555 1_555
H1 O5 1_555 1_555
H2 O5 1_555 1_555
H4 O6 1_555 1_555
H6 O7 1_555 1_555
H7 N1 1_555 1_555
H8 N1 1_555 1_555
H9 N1 1_555 1_555
H10 N2 1_555 1_555
H11 N2 1_555 1_555
H12 N2 1_555 1_555
H13 C2 1_555 1_555
H14 C2 1_555 1_555
H15 C3 1_555 1_555
H16 C3 1_555 1_555
H17 C4 1_555 1_555
H18 C4 1_555 1_555
O3C Cu1 1_555 1_555
Cu1C O3 1_555 1_555
O1C Cu1C 1_555 1_555
C1C O1C 1_555 1_555
O2C C1C 1_555 1_555
C2C C1C 1_555 1_555
C3C C2C 1_555 1_555
C4C C3C 1_555 1_555
C5C C4C 1_555 1_555
O3C_2 C5C 1_555 1_555
Cu1_2 O3C_2 1_555 1_555
H17C C4C 1_555 1_555
H18C C4C 1_555 1_555
H15C C3C 1_555 1_555
H16C C3C 1_555 1_555
H13C C2C 1_555 1_555
H14C C2C 1_555 1_555
O5C Cu1C 1_555 1_555
H1C O5C 1_555 1_555
H2C O5C 1_555 1_555
N1C Cu1C 1_555 1_555
H7C N1C 1_555 1_555
H8C N1C 1_555 1_555
H9C N1C 1_555 1_555
N2C Cu1C 1_555 1_555
H10C N2C 1_555 1_555
H11C N2C 1_555 1_555
H12C N2C 1_555 1_555

#END
