
#######################################################################
#
#                 Cambridge Crystallographic Data Centre
#                                CCDC 
#
#######################################################################
#
# If this CIF has been generated from an entry in the Cambridge 
# Structural Database, then it will include bibliographic, chemical, 
# crystal, experimental, refinement or atomic coordinate data resulting 
# from the CCDC's data processing and validation procedures.
#
#######################################################################

data_HOTNAG
_symmetry_cell_setting           monoclinic
_symmetry_space_group_name_H-M   'P 21/c'
_symmetry_Int_Tables_number      14
_space_group_name_Hall           '-P 2ybc'
loop_
_symmetry_equiv_pos_site_id
_symmetry_equiv_pos_as_xyz
1 x,y,z
2 -x,1/2+y,1/2-z
3 -x,-y,-z
4 x,1/2-y,1/2+z
_cell_length_a                   23.219(5)
_cell_length_b                   18.342(4)
_cell_length_c                   14.511(3)
_cell_angle_alpha                90
_cell_angle_beta                 100.45(3)
_cell_angle_gamma                90
_cell_volume                     6077.48
loop_
_atom_site_label
_atom_site_type_symbol
_atom_site_fract_x
_atom_site_fract_y
_atom_site_fract_z
C1 C 0.56155(18) -0.0735(2) -0.5227(3)
H1 H 0.5271 -0.0497 -0.5489
C2 C 0.56147(19) -0.1490(2) -0.5180(3)
H2 H 0.5274 -0.1749 -0.5406
C3 C 0.61126(19) -0.1852(2) -0.4802(3)
H3 H 0.6118 -0.2358 -0.4764
C4 C 0.66158(18) -0.1444(2) -0.4475(3)
C5 C 0.65845(17) -0.0698(2) -0.4543(3)
C6 C 0.70972(18) -0.0240(2) -0.4217(3)
C7 C 0.76249(19) -0.0553(2) -0.3804(3)
C8 C 0.8100(2) -0.0082(3) -0.3512(4)
H4 H 0.8462 -0.0267 -0.3232
C9 C 0.8022(2) 0.0655(3) -0.3646(5)
H5 H 0.8330 0.0976 -0.3450
C10 C 0.7488(2) 0.0914(3) -0.4070(4)
H6 H 0.7444 0.1414 -0.4166
C11 C 0.76711(19) -0.1342(2) -0.3716(3)
C12 C 0.71740(19) -0.1788(2) -0.4069(3)
C13 C 0.7723(2) -0.2801(3) -0.3637(3)
C14 C 0.7771(3) -0.3571(3) -0.3607(4)
H7 H 0.7456 -0.3865 -0.3863
C15 C 0.8299(3) -0.3873(3) -0.3188(4)
H8 H 0.8343 -0.4377 -0.3168
C16 C 0.8761(3) -0.3435(4) -0.2798(4)
H9 H 0.9110 -0.3651 -0.2512
C17 C 0.8722(2) -0.2711(3) -0.2820(4)
H10 H 0.9042 -0.2431 -0.2545
C18 C 0.8201(2) -0.2363(3) -0.3254(3)
C19 C 0.5674(2) 0.0929(2) 0.3380(3)
C20 C 0.53715(19) 0.1040(2) 0.2401(3)
C21 C 0.5693(2) 0.1038(2) 0.1684(3)
H11 H 0.6093 0.0947 0.1823
C22 C 0.5432(2) 0.1169(3) 0.0768(3)
H12 H 0.5652 0.1164 0.0293
C23 C 0.4844(2) 0.1307(2) 0.0566(3)
C24 C 0.4514(2) 0.1319(2) 0.1270(3)
H13 H 0.4114 0.1413 0.1130
C25 C 0.4784(2) 0.1191(2) 0.2177(3)
H14 H 0.4564 0.1206 0.2651
C26 C 0.4876(2) 0.1452(3) -0.1052(3)
C27 C 0.4951(2) 0.0815(2) -0.1511(3)
H15 H 0.4796 0.0381 -0.1331
C28 C 0.5256(2) 0.0824(2) -0.2240(3)
H16 H 0.5308 0.0393 -0.2553
C29 C 0.5482(2) 0.1461(2) -0.2505(3)
C30 C 0.5807(2) 0.1492(2) -0.3296(4)
C31 C 0.5395(3) 0.2090(2) -0.2040(4)
H17 H 0.5540 0.2528 -0.2226
C32 C 0.5096(3) 0.2087(3) -0.1302(4)
H18 H 0.5048 0.2516 -0.0982
N1 N 0.60855(14) -0.03412(18) -0.4915(2)
N2 N 0.70260(16) 0.04841(19) -0.4354(3)
N3 N 0.81742(17) -0.1635(2) -0.3302(3)
N4 N 0.71980(17) -0.25093(19) -0.4047(3)
O1 O 0.58544(14) 0.09299(15) -0.3752(2)
O2 O 0.5990(3) 0.2068(2) -0.3491(5)
O3 O 0.64099(17) 0.19315(17) -0.4953(2)
O4 O 0.62129(13) 0.08004(16) 0.3557(2)
O5 O 0.53910(13) 0.09669(16) 0.4041(2)
O6 O 0.45466(14) 0.14441(18) -0.0327(2)
Co1 Co 0.61740(3) 0.08164(3) -0.49652(4)
O4_2 O 0.62129(13) 0.08004(16) -0.6443(2)
O5_2 O 0.53910(13) 0.09669(16) -0.5959(2)
Co1_2 Co 0.61740(3) 0.08164(3) 0.50348(4)
C33 C 0.7456(3) 0.0519(3) -0.1395(4)
H19 H 0.7459 0.1026 -0.1387
C34 C 0.6958(3) 0.0161(4) -0.1876(4)
H20 H 0.6639 0.0426 -0.2187
C35 C 0.6950(2) -0.0582(3) -0.1878(4)
H21 H 0.6620 -0.0829 -0.2182
C36 C 0.7430(2) -0.0971(3) -0.1429(3)
C37 C 0.7914(2) -0.0573(2) -0.0995(3)
C38 C 0.84491(18) -0.0943(2) -0.0561(3)
C39 C 0.84775(17) -0.1690(2) -0.0565(3)
C40 C 0.90165(19) -0.2018(2) -0.0181(3)
H22 H 0.9058 -0.2523 -0.0178
C41 C 0.9478(2) -0.1580(2) 0.0187(3)
H23 H 0.9838 -0.1786 0.0443
C42 C 0.94085(19) -0.0829(2) 0.0178(3)
H24 H 0.9725 -0.0538 0.0436
C43 C 0.79656(19) -0.2119(2) -0.0959(3)
C44 C 0.74484(19) -0.1766(3) -0.1392(3)
C45 C 0.7005(2) -0.2868(3) -0.1716(3)
C46 C 0.6509(2) -0.3296(4) -0.2113(4)
H25 H 0.6168 -0.3072 -0.2418
C47 C 0.6541(3) -0.4033(4) -0.2041(4)
H26 H 0.6216 -0.4312 -0.2296
C48 C 0.7050(3) -0.4382(3) -0.1593(4)
H27 H 0.7056 -0.4887 -0.1542
C49 C 0.7536(3) -0.3993(3) -0.1230(3)
H28 H 0.7877 -0.4230 -0.0949
C50 C 0.7517(2) -0.3218(3) -0.1287(3)
C51 C 0.9174(2) 0.0794(2) -0.8536(4)
C52 C 0.9127(2) 0.0891(3) -0.6832(4)
H29 H 0.8735 0.0756 -0.6973
C53 C 0.9459(2) 0.0922(2) -0.7535(3)
C54 C 0.9382(3) 0.1063(3) -0.5921(4)
H30 H 0.9159 0.1047 -0.5449
C55 C 1.0033(2) 0.1123(2) -0.7313(4)
H31 H 1.0256 0.1155 -0.7783
C56 C 1.0285(2) 0.1279(2) -0.6410(4)
H32 H 1.0679 0.1402 -0.6267
C57 C 0.9958(2) 0.1255(3) -0.5710(4)
C58 C 0.9936(2) 0.1447(3) -0.4078(3)
C59 C 0.9883(2) 0.0795(3) -0.3629(4)
H33 H 1.0017 0.0363 -0.3850
C60 C 0.9627(2) 0.0799(2) -0.2849(3)
H34 H 0.9592 0.0364 -0.2534
C61 C 0.9421(2) 0.1439(2) -0.2523(3)
C62 C 0.9132(2) 0.1444(3) -0.1691(3)
C63 C 0.9483(2) 0.2083(3) -0.2994(4)
H35 H 0.9355 0.2519 -0.2773
C64 C 0.9733(3) 0.2086(3) -0.3787(4)
H36 H 0.9763 0.2516 -0.4115
N5 N 0.79234(18) 0.0168(2) -0.0951(3)
N6 N 0.89065(16) -0.05117(18) -0.0187(2)
N7 N 0.80010(16) -0.28393(19) -0.0900(2)
N8 N 0.69659(16) -0.2130(2) -0.1774(3)
O7 O 0.83263(18) 0.16799(19) -0.0205(3)
O8 O 0.8996(2) 0.20272(19) -0.1377(3)
O9 O 0.90534(16) 0.08290(17) -0.1340(2)
O10 O 0.86520(16) 0.05626(17) -0.8719(2)
O11 O 1.02423(16) 0.1454(2) -0.4833(3)
O12 O 0.94565(16) 0.09036(18) -0.9173(2)
Co2 Co 0.87102(3) 0.06251(3) -0.01916(5)
O10_2 O 0.86520(16) 0.05626(17) 0.1281(2)
O12_2 O 0.94565(16) 0.09036(18) 0.0827(2)
Co2_2 Co 0.87102(3) 0.06251(3) -1.01916(5)
C65 C 0.6471(6) 0.0046(7) 0.0113(10)
H37 H 0.6574 -0.0363 0.0523
H38 H 0.6527 -0.0079 -0.0507
H39 H 0.6068 0.0171 0.0097
C66 C 0.7303(8) 0.0667(9) 0.1305(12)
H40 H 0.7317 0.0191 0.1586
H41 H 0.7215 0.1024 0.1743
H42 H 0.7676 0.0776 0.1140
C67 C 0.6825(11) 0.1336(8) 0.008(2)
H43 H 0.7096 0.1648 0.0434
N9 N 0.6849(4) 0.0680(6) 0.0463(8)
O13 O 0.6592(8) 0.1602(8) -0.0492(10)
O14 O 0.8015(4) 0.2395(4) 0.1323(6)
N10 N 0.7598(7) 0.2068(9) 0.2634(10)
C68 C 0.6972(8) 0.2373(17) 0.2710(12)
H44 H 0.6809 0.2088 0.3155
H45 H 0.6720 0.2345 0.2109
H46 H 0.7006 0.2872 0.2913
C69 C 0.7989(5) 0.2221(6) 0.2031(12)
H47 H 0.8368 0.2145 0.2356
C70 C 0.7807(10) 0.1702(13) 0.3759(16)
H48 H 0.7466 0.1640 0.4041
H49 H 0.8076 0.2027 0.4135
H50 H 0.7991 0.1238 0.3717
loop_
_geom_bond_atom_site_label_1
_geom_bond_atom_site_label_2
_geom_bond_site_symmetry_1
_geom_bond_site_symmetry_2
C1 H1 1_555 1_555
C2 C1 1_555 1_555
H2 C2 1_555 1_555
C3 C2 1_555 1_555
H3 C3 1_555 1_555
C4 C3 1_555 1_555
C5 C4 1_555 1_555
C6 C5 1_555 1_555
C7 C6 1_555 1_555
C8 C7 1_555 1_555
H4 C8 1_555 1_555
C9 C8 1_555 1_555
H5 C9 1_555 1_555
C10 C9 1_555 1_555
H6 C10 1_555 1_555
C11 C7 1_555 1_555
C12 C4 1_555 1_555
C13 C14 1_555 1_555
C14 H7 1_555 1_555
C15 C14 1_555 1_555
H8 C15 1_555 1_555
C16 C15 1_555 1_555
H9 C16 1_555 1_555
C17 C16 1_555 1_555
H10 C17 1_555 1_555
C18 C13 1_555 1_555
C19 C20 1_555 1_555
C20 C21 1_555 1_555
C21 H11 1_555 1_555
C22 C21 1_555 1_555
H12 C22 1_555 1_555
C23 C22 1_555 1_555
C24 C23 1_555 1_555
H13 C24 1_555 1_555
C25 C20 1_555 1_555
H14 C25 1_555 1_555
C26 C27 1_555 1_555
C27 H15 1_555 1_555
C28 C27 1_555 1_555
H16 C28 1_555 1_555
C29 C28 1_555 1_555
C30 C29 1_555 1_555
C31 C29 1_555 1_555
H17 C31 1_555 1_555
C32 C26 1_555 1_555
H18 C32 1_555 1_555
N1 C1 1_555 1_555
N2 C6 1_555 1_555
N3 C11 1_555 1_555
N4 C12 1_555 1_555
O1 C30 1_555 1_555
O2 C30 1_555 1_555
O3 Co1 1_555 1_555
O4 C19 1_555 1_555
O5 C19 1_555 1_555
O6 C23 1_555 1_555
Co1 N1 1_555 1_555
C33 H19 1_555 1_555
C34 C33 1_555 1_555
H20 C34 1_555 1_555
C35 C34 1_555 1_555
H21 C35 1_555 1_555
C36 C35 1_555 1_555
C37 C36 1_555 1_555
C38 C37 1_555 1_555
C39 C38 1_555 1_555
C40 C39 1_555 1_555
H22 C40 1_555 1_555
C41 C40 1_555 1_555
H23 C41 1_555 1_555
C42 C41 1_555 1_555
H24 C42 1_555 1_555
C43 C39 1_555 1_555
C44 C36 1_555 1_555
C45 C46 1_555 1_555
C46 H25 1_555 1_555
C47 C46 1_555 1_555
H26 C47 1_555 1_555
C48 C47 1_555 1_555
H27 C48 1_555 1_555
C49 C48 1_555 1_555
H28 C49 1_555 1_555
C50 C45 1_555 1_555
C51 C53 1_555 1_555
C52 H29 1_555 1_555
C53 C52 1_555 1_555
C54 C52 1_555 1_555
H30 C54 1_555 1_555
C55 C53 1_555 1_555
H31 C55 1_555 1_555
C56 C55 1_555 1_555
H32 C56 1_555 1_555
C57 C54 1_555 1_555
C58 C59 1_555 1_555
C59 H33 1_555 1_555
C60 C59 1_555 1_555
H34 C60 1_555 1_555
C61 C60 1_555 1_555
C62 C61 1_555 1_555
C63 C61 1_555 1_555
H35 C63 1_555 1_555
C64 C58 1_555 1_555
H36 C64 1_555 1_555
N5 C33 1_555 1_555
N6 C38 1_555 1_555
N7 C43 1_555 1_555
N8 C44 1_555 1_555
O7 Co2 1_555 1_555
O8 C62 1_555 1_555
O9 C62 1_555 1_555
O10 C51 1_555 1_555
O11 C57 1_555 1_555
O12 C51 1_555 1_555
Co2 N5 1_555 1_555
C65 H37 1_555 1_555
H38 C65 1_555 1_555
H39 C65 1_555 1_555
C66 H40 1_555 1_555
H41 C66 1_555 1_555
H42 C66 1_555 1_555
C67 H43 1_555 1_555
N9 C65 1_555 1_555
O13 C67 1_555 1_555
O14 C69 1_555 1_555
N10 C68 1_555 1_555
C68 H44 1_555 1_555
H45 C68 1_555 1_555
H46 C68 1_555 1_555
C69 N10 1_555 1_555
H47 C69 1_555 1_555
C70 N10 1_555 1_555
H48 C70 1_555 1_555
H49 C70 1_555 1_555
H50 C70 1_555 1_555
O4_2 Co1 1_555 1_555
O5_2 Co1 1_555 1_555
Co1_2 O4 1_555 1_555
O10_2 Co2 1_555 1_555
O12_2 Co2 1_555 1_555
Co2_2 O10 1_555 1_555
C5 N1 1_555 1_555
C10 N2 1_555 1_555
C11 C12 1_555 1_555
C13 N4 1_555 1_555
C17 C18 1_555 1_555
C18 N3 1_555 1_555
C24 C25 1_555 1_555
C26 O6 1_555 1_555
C31 C32 1_555 1_555
N2 Co1 1_555 1_555
O1 Co1 1_555 1_555
O5 Co1_2 1_555 1_555
C37 N5 1_555 1_555
C42 N6 1_555 1_555
C43 C44 1_555 1_555
C45 N8 1_555 1_555
C49 C50 1_555 1_555
C50 N7 1_555 1_555
C56 C57 1_555 1_555
C58 O11 1_555 1_555
C63 C64 1_555 1_555
N6 Co2 1_555 1_555
O9 Co2 1_555 1_555
O12 Co2_2 1_555 1_555
C66 N9 1_555 1_555
C67 N9 1_555 1_555

#END
