
#######################################################################
#
#                 Cambridge Crystallographic Data Centre
#                                CCDC 
#
#######################################################################
#
# If this CIF has been generated from an entry in the Cambridge 
# Structural Database, then it will include bibliographic, chemical, 
# crystal, experimental, refinement or atomic coordinate data resulting 
# from the CCDC's data processing and validation procedures.
#
#######################################################################

data_HOTPOW
_symmetry_cell_setting           triclinic
_symmetry_space_group_name_H-M   'P -1'
_symmetry_Int_Tables_number      2
_space_group_name_Hall           '-P 1'
loop_
_symmetry_equiv_pos_site_id
_symmetry_equiv_pos_as_xyz
1 x,y,z
2 -x,-y,-z
_cell_length_a                   7.7690(4)
_cell_length_b                   8.0818(4)
_cell_length_c                   14.1673(7)
_cell_angle_alpha                96.908(1)
_cell_angle_beta                 96.977(1)
_cell_angle_gamma                103.362(1)
_cell_volume                     848.845
loop_
_atom_site_label
_atom_site_type_symbol
_atom_site_fract_x
_atom_site_fract_y
_atom_site_fract_z
C1 C 0.2527(5) 0.7839(5) 0.2365(3)
C2 C 0.1786(6) 0.9292(6) 0.2071(3)
H1 H 0.0916 0.8880 0.1489
H2 H 0.2746 1.0191 0.1934
C3 C 0.0898(6) 1.0024(5) 0.2867(3)
H3 H -0.0074 0.9128 0.2997
H4 H 0.1763 1.0418 0.3451
C4 C 0.0178(5) 1.1500(5) 0.2583(3)
C5 C 0.5872(5) 0.2692(5) 0.3803(3)
C6 C 0.6783(5) 0.1479(5) 0.4276(3)
H5 H 0.6795 0.0531 0.3789
H6 H 0.6074 0.1006 0.4743
C7 C 0.8687(5) 0.2272(5) 0.4778(3)
H7 H 0.9228 0.1358 0.4946
H8 H 0.9369 0.2859 0.4333
C8 C 0.8817(5) 0.3536(5) 0.5680(3)
C9 C 0.6949(5) 0.6790(5) 0.1363(3)
C10 C 0.5957(5) 0.7991(5) 0.0954(3)
H9 H 0.6102 0.8991 0.1437
H10 H 0.4692 0.7419 0.0811
C11 C 0.6580(5) 0.8590(5) 0.0043(3)
H11 H 0.6406 0.9733 0.0008
H12 H 0.7850 0.8662 0.0077
C12 C 0.5580(5) 0.7392(5) -0.0856(3)
O1 O 0.3978(4) 0.8157(4) 0.2899(2)
O2 O 0.1660(4) 0.6266(4) 0.2058(2)
O3 O 0.1191(4) 1.3022(4) 0.2723(2)
O4 O -0.1419(4) 1.1251(4) 0.2223(2)
O5 O 0.4415(4) 0.2914(4) 0.4009(2)
O6 O 0.6560(4) 0.3457(4) 0.3151(2)
O7 O 0.7482(4) 0.4120(4) 0.5783(2)
O8 O 1.0243(4) 0.3923(4) 0.6280(2)
O9 O 0.6606(4) 0.6283(4) 0.2163(2)
O10 O 0.8123(4) 0.6297(4) 0.0960(2)
O11 O 0.3932(4) 0.7222(4) -0.1029(2)
O12 O 0.6447(4) 0.6600(4) -0.1378(2)
O13 O 0.6523(4) 0.6830(4) 0.4193(2)
O14 O -0.0051(4) 0.3294(5) 0.0681(2)
Sm1 Sm 0.40942(2) 0.51162(3) 0.296319(14)
Sm2 Sm -0.12938(3) 0.43080(3) 0.209950(14)
H13 H 0.7615 0.6864 0.4153
H14 H 0.6446 0.6921 0.4789
H15 H -0.0394 0.3459 0.0119
H16 H 0.0929 0.2990 0.0685
O3_2 O 0.1191(4) 0.3022(4) 0.2723(2)
O4_2 O -0.1419(4) 0.1251(4) 0.2223(2)
O6_2 O -0.3440(4) 0.3457(4) 0.3151(2)
O7A O 0.2518(4) 0.5880(4) 0.4217(2)
O8A O -0.0243(4) 0.6077(4) 0.3720(2)
O9_2 O -0.3394(4) 0.6283(4) 0.2163(2)
O10_2 O -0.1877(4) 0.6297(4) 0.0960(2)
O11A O -0.3932(4) 0.2778(4) 0.1029(2)
O12A O 0.3553(4) 0.3400(4) 0.1378(2)
Sm1_2 Sm 0.40942(2) 1.51162(3) 0.296319(14)
Sm1A Sm 0.59058(2) 0.48838(3) 0.703681(14)
Sm1A_2 Sm 0.59058(2) 0.48838(3) -0.296319(14)
Sm2_2 Sm -0.12938(3) 1.43080(3) 0.209950(14)
Sm2_3 Sm 0.87062(3) 0.43080(3) 0.209950(14)
Sm2A Sm 1.12938(3) 0.56920(3) 0.790050(14)
Sm2A_2 Sm 0.12938(3) 0.56920(3) -0.209950(14)
loop_
_geom_bond_atom_site_label_1
_geom_bond_atom_site_label_2
_geom_bond_site_symmetry_1
_geom_bond_site_symmetry_2
C1 C2 1_555 1_555
C2 H1 1_555 1_555
H2 C2 1_555 1_555
C3 C2 1_555 1_555
H3 C3 1_555 1_555
H4 C3 1_555 1_555
C4 C3 1_555 1_555
C5 C6 1_555 1_555
C6 H5 1_555 1_555
H6 C6 1_555 1_555
C7 C6 1_555 1_555
H7 C7 1_555 1_555
H8 C7 1_555 1_555
C8 C7 1_555 1_555
C9 C10 1_555 1_555
C10 H9 1_555 1_555
H10 C10 1_555 1_555
C11 C10 1_555 1_555
H11 C11 1_555 1_555
H12 C11 1_555 1_555
C12 C11 1_555 1_555
O1 C1 1_555 1_555
O2 C1 1_555 1_555
O3 C4 1_555 1_555
O4 C4 1_555 1_555
O5 C5 1_555 1_555
O6 C5 1_555 1_555
O7 C8 1_555 1_555
O8 C8 1_555 1_555
O9 C9 1_555 1_555
O10 C9 1_555 1_555
O11 C12 1_555 1_555
O12 C12 1_555 1_555
O13 Sm1 1_555 1_555
O14 Sm2 1_555 1_555
Sm1 O1 1_555 1_555
Sm2 O2 1_555 1_555
H13 O13 1_555 1_555
H14 O13 1_555 1_555
H15 O14 1_555 1_555
H16 O14 1_555 1_555
O3_2 Sm1 1_555 1_555
O4_2 Sm2 1_555 1_555
O6_2 Sm2 1_555 1_555
O7A Sm1 1_555 1_555
O8A Sm2 1_555 1_555
O9_2 Sm2 1_555 1_555
O10_2 Sm2 1_555 1_555
O11A Sm2 1_555 1_555
O12A Sm1 1_555 1_555
Sm1_2 O3 1_555 1_555
Sm1A O7 1_555 1_555
Sm1A_2 O12 1_555 1_555
Sm2_2 O3 1_555 1_555
Sm2_3 O6 1_555 1_555
Sm2A O8 1_555 1_555
Sm2A_2 O11 1_555 1_555
O2 Sm1 1_555 1_555
O4 Sm2_2 1_555 1_555
O5 Sm1 1_555 1_555
O6 Sm1 1_555 1_555
O9 Sm1 1_555 1_555
O9 Sm2_3 1_555 1_555
O10 Sm2_3 1_555 1_555
Sm2 O3_2 1_555 1_555

#END
