
#######################################################################
#
#                 Cambridge Crystallographic Data Centre
#                                CCDC 
#
#######################################################################
#
# If this CIF has been generated from an entry in the Cambridge 
# Structural Database, then it will include bibliographic, chemical, 
# crystal, experimental, refinement or atomic coordinate data resulting 
# from the CCDC's data processing and validation procedures.
#
#######################################################################

data_HOTREO
_symmetry_cell_setting           triclinic
_symmetry_space_group_name_H-M   'P -1'
_symmetry_Int_Tables_number      2
_space_group_name_Hall           '-P 1'
loop_
_symmetry_equiv_pos_site_id
_symmetry_equiv_pos_as_xyz
1 x,y,z
2 -x,-y,-z
_cell_length_a                   6.9934(18)
_cell_length_b                   10.902(3)
_cell_length_c                   12.396(3)
_cell_angle_alpha                82.289(4)
_cell_angle_beta                 80.859(4)
_cell_angle_gamma                72.673(4)
_cell_volume                     886.96
loop_
_atom_site_label
_atom_site_type_symbol
_atom_site_fract_x
_atom_site_fract_y
_atom_site_fract_z
C1 C 0.8168(7) 0.6523(5) 0.5040(4)
H1 H 0.8198 0.5760 0.5484
C2 C 0.8432(8) 0.6495(5) 0.3921(4)
H2 H 0.8660 0.5723 0.3615
C3 C 0.8354(7) 0.7627(6) 0.3255(4)
H3 H 0.8506 0.7628 0.2496
C4 C 0.8052(7) 0.8746(6) 0.3726(4)
H4 H 0.8017 0.9514 0.3289
C5 C 0.7795(6) 0.8725(5) 0.4868(3)
C6 C 0.7424(6) 0.9861(5) 0.5458(4)
C7 C 0.7219(7) 1.1118(5) 0.4960(4)
H5 H 0.7358 1.1267 0.4199
C8 C 0.6817(8) 1.2126(5) 0.5585(5)
H6 H 0.6659 1.2963 0.5257
C9 C 0.6648(8) 1.1882(5) 0.6721(5)
H7 H 0.6399 1.2547 0.7167
C10 C 0.6861(7) 1.0615(5) 0.7173(4)
H8 H 0.6730 1.0449 0.7933
C11 C 0.7987(8) 0.5266(5) 0.8332(4)
C12 C 0.6994(8) 0.4217(5) 0.8813(4)
H9 H 0.6048 0.4178 0.8334
H10 H 0.8020 0.3392 0.8840
C13 C 0.5884(9) 0.4437(5) 0.9957(5)
H11 H 0.5459 0.3676 1.0251
H12 H 0.6828 0.4518 1.0420
C14 C 0.4161(6) 0.8668(4) 0.8579(4)
C15 C 0.2861(6) 0.9254(5) 0.9571(4)
H13 H 0.3262 0.9998 0.9693
H14 H 0.3120 0.8631 1.0205
C16 C 0.0613(6) 0.9675(5) 0.9498(4)
H15 H 0.0182 0.8926 0.9423
H16 H 0.0346 1.0269 0.8848
Cu1 Cu 0.73673(8) 0.77939(5) 0.71374(4)
N1 N 0.7242(5) 0.9637(4) 0.6566(3)
N2 N 0.7866(5) 0.7615(4) 0.5519(3)
O1 O 0.7184(5) 0.6040(3) 0.7533(3)
O2 O 0.9445(6) 0.5350(4) 0.8705(3)
O3 O 0.6079(4) 0.8322(3) 0.8603(2)
O4 O 0.3420(4) 0.8526(3) 0.7772(2)
O5 O 1.0688(5) 0.7206(3) 0.7462(3)
H17 H 1.0929 0.7805 0.7685
H18 H 1.0130 0.6683 0.7918
C1A C 0.1832(7) 0.3477(5) 1.4960(4)
H1A H 0.1802 0.4240 1.4516
C2A C 0.1568(8) 0.3505(5) 1.6079(4)
H2A H 0.1340 0.4277 1.6385
C3A C 0.1646(7) 0.2373(6) 1.6745(4)
H3A H 0.1494 0.2372 1.7504
C4A C 0.1948(7) 0.1254(6) 1.6274(4)
H4A H 0.1983 0.0486 1.6711
C5A C 0.2205(6) 0.1275(5) 1.5132(3)
C6A C 0.2576(6) 0.0139(5) 1.4542(4)
C7A C 0.2781(7) -0.1118(5) 1.5040(4)
H5A H 0.2642 -0.1267 1.5801
C8A C 0.3183(8) -0.2126(5) 1.4415(5)
H6A H 0.3341 -0.2963 1.4743
C9A C 0.3352(8) -0.1882(5) 1.3279(5)
H7A H 0.3601 -0.2547 1.2833
C10A C 0.3139(7) -0.0615(5) 1.2827(4)
H8A H 0.3270 -0.0449 1.2067
C11A C 0.2013(8) 0.4734(5) 1.1668(4)
C12A C 0.3006(8) 0.5783(5) 1.1187(4)
H9A H 0.3952 0.5822 1.1666
H10A H 0.1980 0.6608 1.1160
C13A C 0.4116(9) 0.5563(5) 1.0043(5)
H11A H 0.4541 0.6324 0.9749
H12A H 0.3172 0.5482 0.9580
C14A C -0.4161(6) 1.1332(4) 1.1421(4)
C15A C -0.2861(6) 1.0746(5) 1.0429(4)
H13A H -0.3262 1.0002 1.0307
H14A H -0.3120 1.1369 0.9795
C16A C -0.0613(6) 1.0325(5) 1.0502(4)
H15A H -0.0182 1.1074 1.0577
H16A H -0.0346 0.9731 1.1152
Cu1A Cu 0.26327(8) 0.22061(5) 1.28626(4)
Cu1A_2 Cu -0.73673(8) 1.22061(5) 1.28626(4)
N1A N 0.2758(5) 0.0363(4) 1.3434(3)
N2A N 0.2134(5) 0.2385(4) 1.4481(3)
O1A O 0.2816(5) 0.3960(3) 1.2467(3)
O2A O 0.0555(6) 0.4650(4) 1.1295(3)
O3A O -0.6079(4) 1.1678(3) 1.1397(2)
O3A_2 O 0.3921(4) 0.1678(3) 1.1397(2)
O4A O -0.3420(4) 1.1474(3) 1.2228(2)
O5A O -0.0688(5) 0.2794(3) 1.2538(3)
H17A H -0.0929 0.2195 1.2315
H18A H -0.0130 0.3317 1.2082
O6 O 0.5681(8) 1.4557(6) 0.3553(5)
H19 H 0.6808 1.4033 0.3219
H20 H 0.4834 1.4365 0.3218
O7 O 0.7761(8) 0.7255(4) 0.0706(3)
H21 H 0.7429 0.7277 0.0043
H22 H 0.8069 0.6387 0.0851
loop_
_geom_bond_atom_site_label_1
_geom_bond_atom_site_label_2
_geom_bond_site_symmetry_1
_geom_bond_site_symmetry_2
C1 H1 1_555 1_555
C2 C1 1_555 1_555
H2 C2 1_555 1_555
C3 C2 1_555 1_555
H3 C3 1_555 1_555
C4 C3 1_555 1_555
H4 C4 1_555 1_555
C5 C4 1_555 1_555
C6 C5 1_555 1_555
C7 C6 1_555 1_555
H5 C7 1_555 1_555
C8 C7 1_555 1_555
H6 C8 1_555 1_555
C9 C8 1_555 1_555
H7 C9 1_555 1_555
C10 C9 1_555 1_555
H8 C10 1_555 1_555
C11 C12 1_555 1_555
C12 H9 1_555 1_555
H10 C12 1_555 1_555
C13 C12 1_555 1_555
H11 C13 1_555 1_555
H12 C13 1_555 1_555
C14 C15 1_555 1_555
C15 H13 1_555 1_555
H14 C15 1_555 1_555
C16 C15 1_555 1_555
H15 C16 1_555 1_555
H16 C16 1_555 1_555
Cu1 N1 1_555 1_555
N1 C6 1_555 1_555
N2 C1 1_555 1_555
O1 C11 1_555 1_555
O2 C11 1_555 1_555
O3 C14 1_555 1_555
O4 C14 1_555 1_555
O5 Cu1 1_555 1_555
H17 O5 1_555 1_555
H18 O5 1_555 1_555
O6 H19 1_555 1_555
H20 O6 1_555 1_555
O7 H21 1_555 1_555
H22 O7 1_555 1_555
C1A H1A 1_555 1_555
C2A C1A 1_555 1_555
H2A C2A 1_555 1_555
C3A C2A 1_555 1_555
H3A C3A 1_555 1_555
C4A C3A 1_555 1_555
H4A C4A 1_555 1_555
C5A C4A 1_555 1_555
C6A C5A 1_555 1_555
C7A C6A 1_555 1_555
H5A C7A 1_555 1_555
C8A C7A 1_555 1_555
H6A C8A 1_555 1_555
C9A C8A 1_555 1_555
H7A C9A 1_555 1_555
C10A C9A 1_555 1_555
H8A C10A 1_555 1_555
C11A C12A 1_555 1_555
C12A H9A 1_555 1_555
H10A C12A 1_555 1_555
C13A C13 1_555 1_555
H11A C13A 1_555 1_555
H12A C13A 1_555 1_555
C14A C15A 1_555 1_555
C15A H13A 1_555 1_555
H14A C15A 1_555 1_555
C16A C16 1_555 1_555
H15A C16A 1_555 1_555
H16A C16A 1_555 1_555
Cu1A N1A 1_555 1_555
Cu1A_2 O3A 1_555 1_555
N1A C6A 1_555 1_555
N2A C1A 1_555 1_555
O1A C11A 1_555 1_555
O2A C11A 1_555 1_555
O3A C14A 1_555 1_555
O3A_2 Cu1A 1_555 1_555
O4A C14A 1_555 1_555
O5A Cu1A 1_555 1_555
H17A O5A 1_555 1_555
H18A O5A 1_555 1_555
C5 N2 1_555 1_555
C10 N1 1_555 1_555
Cu1 N2 1_555 1_555
Cu1 O1 1_555 1_555
Cu1 O3 1_555 1_555
C5A N2A 1_555 1_555
C10A N1A 1_555 1_555
C12A C13A 1_555 1_555
C15A C16A 1_555 1_555
Cu1A N2A 1_555 1_555
Cu1A O1A 1_555 1_555

#END
