
#######################################################################
#
#                 Cambridge Crystallographic Data Centre
#                                CCDC 
#
#######################################################################
#
# If this CIF has been generated from an entry in the Cambridge 
# Structural Database, then it will include bibliographic, chemical, 
# crystal, experimental, refinement or atomic coordinate data resulting 
# from the CCDC's data processing and validation procedures.
#
#######################################################################

data_HOTVUI01
_symmetry_cell_setting           orthorhombic
_symmetry_space_group_name_H-M   'P b c a'
_symmetry_Int_Tables_number      61
_space_group_name_Hall           '-P 2ac 2ab'
loop_
_symmetry_equiv_pos_site_id
_symmetry_equiv_pos_as_xyz
1 x,y,z
2 1/2-x,-y,1/2+z
3 -x,1/2+y,1/2-z
4 1/2+x,1/2-y,-z
5 -x,-y,-z
6 1/2+x,y,1/2-z
7 x,1/2-y,1/2+z
8 1/2-x,1/2+y,z
_cell_length_a                   11.8752(3)
_cell_length_b                   8.9110(2)
_cell_length_c                   15.0091(5)
_cell_angle_alpha                90
_cell_angle_beta                 90
_cell_angle_gamma                90
_cell_volume                     1588.26
loop_
_atom_site_label
_atom_site_type_symbol
_atom_site_fract_x
_atom_site_fract_y
_atom_site_fract_z
Co1 Co 0.5000 0.0000 0.5000
O1 O 0.51550(14) 0.22297(19) 0.46518(13)
O2 O 0.68750(15) 0.2912(2) 0.51022(13)
N1 N 0.43155(17) 0.0701(2) 0.62815(13)
C1 C 0.3443(3) 0.1669(3) 0.79063(19)
C2 C 0.5908(2) 0.3193(3) 0.48022(19)
C3 C 0.4807(2) 0.1812(3) 0.67480(17)
C4 C 0.4398(3) 0.2324(3) 0.75554(17)
C5 C 0.3387(3) 0.0082(3) 0.6622(2)
C6 C 0.2923(3) 0.0530(3) 0.7434(2)
O3 O 0.33846(16) -0.00201(18) 0.44256(13)
C7 C 0.5538(3) 0.4846(3) 0.4725(3)
H1 H 0.545(3) 0.221(3) 0.653(2)
H2 H 0.307(3) -0.067(4) 0.628(2)
H3 H 0.317(3) 0.195(4) 0.847(3)
H4 H 0.319(3) -0.099(5) 0.455(2)
H5 H 0.478(3) 0.307(5) 0.788(3)
H6 H 0.225(4) 0.007(4) 0.768(3)
H7 H 0.299(4) 0.062(5) 0.454(3)
H8 H 0.585(2) 0.463(3) 0.411(2)
H9 H 0.553(7) 0.489(7) 0.394(5)
Co1_2 Co 0.5000 1.0000 0.5000
O1D O 0.48450(14) 0.77703(19) 0.53482(13)
O1D_2 O 0.48450(14) -0.22297(19) 0.53482(13)
O2D O 0.31250(15) 0.7088(2) 0.48978(13)
N1D N 0.56845(17) -0.0701(2) 0.37185(13)
C1D C 0.6557(3) -0.1669(3) 0.20937(19)
C2D C 0.4092(2) 0.6807(3) 0.51978(19)
C3D C 0.5193(2) -0.1812(3) 0.32520(17)
C4D C 0.5602(3) -0.2324(3) 0.24446(17)
C5D C 0.6613(3) -0.0082(3) 0.3378(2)
C6D C 0.7077(3) -0.0530(3) 0.2566(2)
O3D O 0.66154(16) 0.00201(18) 0.55744(13)
C7D C 0.4462(3) 0.5154(3) 0.5275(3)
H1D H 0.455(3) -0.221(3) 0.347(2)
H2D H 0.693(3) 0.067(4) 0.372(2)
H3D H 0.683(3) -0.195(4) 0.153(3)
H4D H 0.681(3) 0.099(5) 0.545(2)
H5D H 0.522(3) -0.307(5) 0.212(3)
H6D H 0.775(4) -0.007(4) 0.232(3)
H7D H 0.701(4) -0.062(5) 0.546(3)
H8D H 0.415(2) 0.537(3) 0.589(2)
H9D H 0.447(7) 0.511(7) 0.606(5)
loop_
_geom_bond_atom_site_label_1
_geom_bond_atom_site_label_2
_geom_bond_site_symmetry_1
_geom_bond_site_symmetry_2
Co1 O1 1_555 1_555
O1 C2 1_555 1_555
O2 C2 1_555 1_555
N1 Co1 1_555 1_555
C1 C4 1_555 1_555
C2 C7 1_555 1_555
C3 N1 1_555 1_555
C4 C3 1_555 1_555
C5 N1 1_555 1_555
C6 C1 1_555 1_555
O3 Co1 1_555 1_555
C7 H8 1_555 1_555
H1 C3 1_555 1_555
H2 C5 1_555 1_555
H3 C1 1_555 1_555
H4 O3 1_555 1_555
H5 C4 1_555 1_555
H6 C6 1_555 1_555
H7 O3 1_555 1_555
H9 C7 1_555 1_555
Co1_2 O1D 1_555 1_555
O1D C2D 1_555 1_555
O1D_2 Co1 1_555 1_555
O2D C2D 1_555 1_555
N1D Co1 1_555 1_555
C1D C4D 1_555 1_555
C2D C7D 1_555 1_555
C3D N1D 1_555 1_555
C4D C3D 1_555 1_555
C5D N1D 1_555 1_555
C6D C1D 1_555 1_555
O3D Co1 1_555 1_555
C7D C7 1_555 1_555
H1D C3D 1_555 1_555
H2D C5D 1_555 1_555
H3D C1D 1_555 1_555
H4D O3D 1_555 1_555
H5D C4D 1_555 1_555
H6D C6D 1_555 1_555
H7D O3D 1_555 1_555
H8D C7D 1_555 1_555
H9D C7D 1_555 1_555
C5 C6 1_555 1_555
C5D C6D 1_555 1_555

#END
