
#######################################################################
#
#                 Cambridge Crystallographic Data Centre
#                                CCDC 
#
#######################################################################
#
# If this CIF has been generated from an entry in the Cambridge 
# Structural Database, then it will include bibliographic, chemical, 
# crystal, experimental, refinement or atomic coordinate data resulting 
# from the CCDC's data processing and validation procedures.
#
#######################################################################

data_HOTVUH
_symmetry_cell_setting           triclinic
_symmetry_space_group_name_H-M   'P -1'
_symmetry_Int_Tables_number      2
_space_group_name_Hall           '-P 1'
loop_
_symmetry_equiv_pos_site_id
_symmetry_equiv_pos_as_xyz
1 x,y,z
2 -x,-y,-z
_cell_length_a                   6.9740(10)
_cell_length_b                   9.127(2)
_cell_length_c                   11.243(2)
_cell_angle_alpha                107.35(3)
_cell_angle_beta                 105.14(3)
_cell_angle_gamma                101.99(3)
_cell_volume                     626.883
loop_
_atom_site_label
_atom_site_type_symbol
_atom_site_fract_x
_atom_site_fract_y
_atom_site_fract_z
Cu1 Cu 0.20184(3) -0.33200(3) -0.76835(2)
Cl1 Cl 0.41318(8) -0.07538(6) -0.70503(5)
N1 N 0.3037(3) -0.2928(2) -0.36084(15)
C1 C 0.2027(3) -0.2222(2) -0.2809(2)
N2 N 0.0350(3) -0.1799(2) -0.3226(2)
C2 C -0.0347(3) -0.1933(2) -0.4494(2)
C3 C 0.0705(3) -0.2527(2) -0.5386(2)
C4 C 0.2488(3) -0.3048(2) -0.4921(2)
C5 C 0.4820(4) -0.3451(4) -0.3076(2)
H1 H 0.5319(4) -0.3912(4) -0.3774(2)
H2 H 0.4387(4) -0.4244(4) -0.2719(2)
H3 H 0.5918(4) -0.2538(4) -0.2386(2)
N3 N -0.1998(3) -0.1473(3) -0.4883(2)
H4 H -0.2589(3) -0.1102(3) -0.4328(2)
H5 H -0.2484(3) -0.1544(3) -0.5691(2)
N4 N 0.0244(3) -0.2607(2) -0.66428(15)
O1 O -0.1292(3) -0.2208(2) -0.71633(15)
O2 O 0.3458(2) -0.3584(2) -0.56240(14)
N5 N 0.2816(3) -0.1936(2) -0.1520(2)
H6 H 0.4083(3) -0.1920(2) -0.1189(2)
C6 C 0.1602(3) -0.1650(2) -0.0659(2)
H7 H 0.0767(3) -0.0986(2) -0.0900(2)
H8 H 0.2541(3) -0.1062(2) 0.0251(2)
C7 C 0.0169(3) -0.3217(2) -0.0753(2)
O3 O -0.0637(3) -0.3130(2) 0.0129(2)
O4 O -0.0062(3) -0.4478(2) -0.1693(2)
O5 O 0.3670(3) -0.4178(2) -0.8727(2)
H9 H 0.2973(3) -0.4987(2) -0.9280(2)
H10 H 0.4860(3) -0.3941(2) -0.8351(2)
Cu1_2 Cu 0.20184(3) -0.33200(3) 0.23165(2)
O3_2 O -0.0637(3) -0.3130(2) -0.9871(2)
O4A O 0.0062(3) -0.5522(2) -0.8307(2)
Cu1A Cu -0.20184(3) -0.66800(3) -0.23165(2)
O6 O 0.3915(3) -0.7967(2) -0.0538(2)
H11 H 0.4205(3) -0.7867(2) 0.0260(2)
H12 H 0.3626(3) -0.8846(2) -0.1132(2)
loop_
_geom_bond_atom_site_label_1
_geom_bond_atom_site_label_2
_geom_bond_site_symmetry_1
_geom_bond_site_symmetry_2
Cu1 Cl1 1_555 1_555
N1 C1 1_555 1_555
C1 N2 1_555 1_555
N2 C2 1_555 1_555
C2 C3 1_555 1_555
C3 C4 1_555 1_555
C4 N1 1_555 1_555
C5 N1 1_555 1_555
H1 C5 1_555 1_555
H2 C5 1_555 1_555
H3 C5 1_555 1_555
N3 C2 1_555 1_555
H4 N3 1_555 1_555
H5 N3 1_555 1_555
N4 Cu1 1_555 1_555
O1 N4 1_555 1_555
O2 Cu1 1_555 1_555
N5 C1 1_555 1_555
H6 N5 1_555 1_555
C6 N5 1_555 1_555
H7 C6 1_555 1_555
H8 C6 1_555 1_555
C7 C6 1_555 1_555
O3 C7 1_555 1_555
O4 C7 1_555 1_555
O5 Cu1 1_555 1_555
H9 O5 1_555 1_555
H10 O5 1_555 1_555
O6 H11 1_555 1_555
H12 O6 1_555 1_555
Cu1_2 O3 1_555 1_555
O3_2 Cu1 1_555 1_555
O4A Cu1 1_555 1_555
Cu1A O4 1_555 1_555
C3 N4 1_555 1_555
C4 O2 1_555 1_555

#END
