
#######################################################################
#
#                 Cambridge Crystallographic Data Centre
#                                CCDC 
#
#######################################################################
#
# If this CIF has been generated from an entry in the Cambridge 
# Structural Database, then it will include bibliographic, chemical, 
# crystal, experimental, refinement or atomic coordinate data resulting 
# from the CCDC's data processing and validation procedures.
#
#######################################################################

data_HOTVUH01
_symmetry_cell_setting           triclinic
_symmetry_space_group_name_H-M   'P -1'
_symmetry_Int_Tables_number      2
_space_group_name_Hall           '-P 1'
loop_
_symmetry_equiv_pos_site_id
_symmetry_equiv_pos_as_xyz
1 x,y,z
2 -x,-y,-z
_cell_length_a                   6.9807(5)
_cell_length_b                   9.1462(6)
_cell_length_c                   11.2512(6)
_cell_angle_alpha                107.357(5)
_cell_angle_beta                 105.037(5)
_cell_angle_gamma                102.028(6)
_cell_volume                     629.537
loop_
_atom_site_label
_atom_site_type_symbol
_atom_site_fract_x
_atom_site_fract_y
_atom_site_fract_z
Cu1 Cu 0.29780(4) 0.33211(3) 0.76823(2)
Cl1 Cl 0.08612(9) 0.07568(6) 0.70490(5)
N1 N 0.4639(3) 0.1791(2) 0.32186(17)
C1 C 0.2967(3) 0.2220(2) 0.28061(19)
N2 N 0.1962(3) 0.2928(2) 0.36055(17)
C2 C 0.2510(3) 0.3052(2) 0.49225(19)
C3 C 0.4289(3) 0.2522(2) 0.53803(19)
C4 C 0.5348(3) 0.1931(2) 0.4488(2)
N3 N 0.2179(3) 0.1932(2) 0.15159(17)
H1 H 0.108(4) 0.210(3) 0.122(3)
C5 C 0.3400(4) 0.1653(2) 0.0656(2)
H2 H 0.2446 0.1052 -0.0272
H3 H 0.4254 0.0980 0.0901
C6 C 0.4830(3) 0.3219(2) 0.0746(2)
O1 O 0.5637(3) 0.3138(2) -0.01310(17)
O2 O 0.5063(3) 0.44739(19) 0.16947(16)
C7 C 0.0182(4) 0.3450(4) 0.3077(2)
H4 H 0.0575 0.4158 0.2617
H5 H -0.0218 0.4036 0.3808
H6 H -0.0998 0.2504 0.2452
O3 O 0.1545(3) 0.3587(2) 0.56229(15)
N4 N 0.4750(3) 0.2599(2) 0.66369(17)
O4 O 0.6289(3) 0.2209(2) 0.71611(16)
N5 N 0.6983(3) 0.1474(3) 0.4873(2)
H7 H 0.746(5) 0.109(4) 0.427(3)
H8 H 0.739(5) 0.160(3) 0.565(3)
O5 O 0.1322(3) 0.4182(2) 0.87222(19)
H9 H 0.059(5) 0.358(4) 0.894(3)
H10 H 0.214(5) 0.491(4) 0.932(3)
Cu1A Cu 0.70220(4) 0.66789(3) 0.23177(2)
Cu1_2 Cu 0.29780(4) 0.33211(3) -0.23177(2)
O1_2 O 0.5637(3) 0.3138(2) 0.98690(17)
O2A O 0.4937(3) 0.55261(19) 0.83053(16)
O6 O 0.8916(3) 0.2031(2) -1.05350(18)
H11 H 0.780(5) 0.218(4) -1.049(3)
H12 H 0.871(5) 0.131(4) -1.118(3)
loop_
_geom_bond_atom_site_label_1
_geom_bond_atom_site_label_2
_geom_bond_site_symmetry_1
_geom_bond_site_symmetry_2
Cu1 Cl1 1_555 1_555
N1 C1 1_555 1_555
C1 N2 1_555 1_555
N2 C2 1_555 1_555
C2 C3 1_555 1_555
C3 C4 1_555 1_555
C4 N1 1_555 1_555
N3 C1 1_555 1_555
H1 N3 1_555 1_555
C5 N3 1_555 1_555
H2 C5 1_555 1_555
H3 C5 1_555 1_555
C6 C5 1_555 1_555
O1 C6 1_555 1_555
O2 C6 1_555 1_555
C7 N2 1_555 1_555
H4 C7 1_555 1_555
H5 C7 1_555 1_555
H6 C7 1_555 1_555
O3 Cu1 1_555 1_555
N4 Cu1 1_555 1_555
O4 N4 1_555 1_555
N5 C4 1_555 1_555
H7 N5 1_555 1_555
H8 N5 1_555 1_555
O5 Cu1 1_555 1_555
H9 O5 1_555 1_555
H10 O5 1_555 1_555
O6 H11 1_555 1_555
H12 O6 1_555 1_555
Cu1A O2 1_555 1_555
Cu1_2 O1 1_555 1_555
O1_2 Cu1 1_555 1_555
O2A Cu1 1_555 1_555
C2 O3 1_555 1_555
C3 N4 1_555 1_555

#END
