
#######################################################################
#
#                 Cambridge Crystallographic Data Centre
#                                CCDC 
#
#######################################################################
#
# If this CIF has been generated from an entry in the Cambridge 
# Structural Database, then it will include bibliographic, chemical, 
# crystal, experimental, refinement or atomic coordinate data resulting 
# from the CCDC's data processing and validation procedures.
#
#######################################################################

data_HOTWUJ
_symmetry_cell_setting           orthorhombic
_symmetry_space_group_name_H-M   'F d d d'
_symmetry_Int_Tables_number      70
_space_group_name_Hall           '-F 2uv 2vw'
loop_
_symmetry_equiv_pos_site_id
_symmetry_equiv_pos_as_xyz
1 x,y,z
2 3/4-x,3/4-y,z
3 3/4-x,y,3/4-z
4 x,3/4-y,3/4-z
5 x,1/2+y,1/2+z
6 3/4-x,1/4-y,1/2+z
7 3/4-x,1/2+y,1/4-z
8 x,1/4-y,1/4-z
9 1/2+x,y,1/2+z
10 1/4-x,3/4-y,1/2+z
11 1/4-x,y,1/4-z
12 1/2+x,3/4-y,1/4-z
13 1/2+x,1/2+y,z
14 1/4-x,1/4-y,z
15 1/4-x,1/2+y,3/4-z
16 1/2+x,1/4-y,3/4-z
17 -x,-y,-z
18 1/4+x,1/4+y,-z
19 1/4+x,-y,1/4+z
20 -x,1/4+y,1/4+z
21 -x,1/2-y,1/2-z
22 1/4+x,3/4+y,1/2-z
23 1/4+x,1/2-y,3/4+z
24 -x,3/4+y,3/4+z
25 1/2-x,-y,1/2-z
26 3/4+x,1/4+y,1/2-z
27 3/4+x,-y,3/4+z
28 1/2-x,1/4+y,3/4+z
29 1/2-x,1/2-y,-z
30 3/4+x,3/4+y,-z
31 3/4+x,1/2-y,1/4+z
32 1/2-x,3/4+y,1/4+z
_cell_length_a                   9.625(5)
_cell_length_b                   15.381(11)
_cell_length_c                   27.530(15)
_cell_angle_alpha                90
_cell_angle_beta                 90
_cell_angle_gamma                90
_cell_volume                     4075.6
loop_
_atom_site_label
_atom_site_type_symbol
_atom_site_fract_x
_atom_site_fract_y
_atom_site_fract_z
Nd1 Nd 0.1250 0.1250 0.509408(9)
O1 O 0.3670(3) 0.09179(18) 0.53950(11)
O2 O 0.3764(3) 0.22586(18) 0.51642(10)
O3 O 0.1141(3) 0.03874(16) 0.58513(9)
O4 O 0.2770(3) 0.12320(19) 0.43547(10)
H1 H 0.3072 0.1738 0.4286
H2 H 0.2485 0.0931 0.4116
C1 C 0.4342(4) 0.1584(3) 0.53110(15)
C2 C 0.5861(6) 0.1646(4) 0.5395(3)
H3 H 0.6249 0.2023 0.5148
H4 H 0.6004 0.1929 0.5706
C3 C 0.1250 0.0746(3) 0.6250
Nd1_2 Nd 1.1250 0.1250 0.509408(9)
Nd1Q Nd 0.3750 0.3750 0.490592(9)
Nd1P Nd 0.8750 -0.1250 0.490592(9)
Nd1G Nd 0.1250 0.1250 0.740592(9)
Nd1P_2 Nd -0.1250 -0.1250 0.490592(9)
Nd1_3 Nd -0.8750 0.1250 0.509408(9)
Nd1Q_2 Nd -0.6250 0.3750 0.490592(9)
O1M O 0.8830(3) 0.15821(18) 0.53950(11)
O1M_2 O -0.1170(3) 0.15821(18) 0.53950(11)
O1_2 O -0.6330(3) 0.09179(18) 0.53950(11)
O1_3 O 1.3670(3) 0.09179(18) 0.53950(11)
O2M O 0.8736(3) 0.02414(18) 0.51642(10)
O2M_2 O -0.1264(3) 0.02414(18) 0.51642(10)
O2_2 O -0.6236(3) 0.22586(18) 0.51642(10)
O2BA O 0.1236(3) 0.27414(18) 0.48358(10)
O2CA O 0.1264(3) -0.02414(18) 0.48358(10)
O2CA_2 O 1.1264(3) -0.02414(18) 0.48358(10)
O2BA_2 O 1.1236(3) 0.27414(18) 0.48358(10)
O3J O 0.1359(3) 0.03874(16) 0.66487(9)
O3G O 0.1141(3) 0.21126(16) 0.66487(9)
O3M O 0.1359(3) 0.21126(16) 0.58513(9)
O3M_2 O 1.1359(3) 0.21126(16) 0.58513(9)
O3_2 O 1.1141(3) 0.03874(16) 0.58513(9)
O4M O -0.0270(3) 0.12680(19) 0.43547(10)
O4M_2 O 0.9730(3) 0.12680(19) 0.43547(10)
O4_2 O 1.2770(3) 0.12320(19) 0.43547(10)
H1M H -0.0572 0.0762 0.4286
H1M_2 H 0.9428 0.0762 0.4286
H1_2 H 1.3072 0.1738 0.4286
H2M H 0.0015 0.1569 0.4116
H2M_2 H 1.0015 0.1569 0.4116
H2_2 H 1.2485 0.0931 0.4116
C1M C 0.8158(4) 0.0916(3) 0.53110(15)
C1M_2 C -0.1842(4) 0.0916(3) 0.53110(15)
C1_2 C -0.5658(4) 0.1584(3) 0.53110(15)
C2M C 0.6639(6) 0.0854(4) 0.5395(3)
C2M_2 C -0.3361(6) 0.0854(4) 0.5395(3)
C2_2 C -0.4139(6) 0.1646(4) 0.5395(3)
H3M H 0.6251 0.0477 0.5148
H3M_2 H -0.3749 0.0477 0.5148
H3_2 H -0.3751 0.2023 0.5148
H4M H 0.6496 0.0571 0.5706
H4M_2 H -0.3504 0.0571 0.5706
H4_2 H -0.3996 0.1929 0.5706
C3G C 0.1250 0.1754(3) 0.6250
O5 O 0.6972(6) 0.1996(4) 0.4029(2)
H5 H 0.6763 0.2303 0.4281
H6 H 0.7297 0.2284 0.3780
loop_
_geom_bond_atom_site_label_1
_geom_bond_atom_site_label_2
_geom_bond_site_symmetry_1
_geom_bond_site_symmetry_2
Nd1 O1 1_555 1_555
O1 C1 1_555 1_555
O2 C1 1_555 1_555
O3 Nd1 1_555 1_555
O4 Nd1 1_555 1_555
H1 O4 1_555 1_555
H2 O4 1_555 1_555
C1 C2 1_555 1_555
C2 H3 1_555 1_555
H4 C2 1_555 1_555
C3 O3 1_555 1_555
O5 H5 1_555 1_555
H6 O5 1_555 1_555
Nd1_2 O1M 1_555 1_555
Nd1Q O2 1_555 1_555
Nd1P O2M 1_555 1_555
Nd1G O3J 1_555 1_555
Nd1P_2 O2M_2 1_555 1_555
Nd1_3 O1_2 1_555 1_555
Nd1Q_2 O2_2 1_555 1_555
O1M C1M 1_555 1_555
O1M_2 Nd1 1_555 1_555
O1_2 C1_2 1_555 1_555
O1_3 Nd1_2 1_555 1_555
O2M C1M 1_555 1_555
O2M_2 C1M_2 1_555 1_555
O2_2 C1_2 1_555 1_555
O2BA Nd1 1_555 1_555
O2CA Nd1 1_555 1_555
O2CA_2 Nd1_2 1_555 1_555
O2BA_2 Nd1_2 1_555 1_555
O3J C3 1_555 1_555
O3G Nd1G 1_555 1_555
O3M Nd1 1_555 1_555
O3M_2 Nd1_2 1_555 1_555
O3_2 Nd1_2 1_555 1_555
O4M Nd1 1_555 1_555
O4M_2 Nd1_2 1_555 1_555
O4_2 Nd1_2 1_555 1_555
H1M O4M 1_555 1_555
H1M_2 O4M_2 1_555 1_555
H1_2 O4_2 1_555 1_555
H2M O4M 1_555 1_555
H2M_2 O4M_2 1_555 1_555
H2_2 O4_2 1_555 1_555
C1M C2M 1_555 1_555
C1M_2 O1M_2 1_555 1_555
C1_2 C2_2 1_555 1_555
C2M C2 1_555 1_555
C2M_2 C1M_2 1_555 1_555
C2_2 C2M_2 1_555 1_555
H3M C2M 1_555 1_555
H3M_2 C2M_2 1_555 1_555
H3_2 C2_2 1_555 1_555
H4M C2M 1_555 1_555
H4M_2 C2M_2 1_555 1_555
H4_2 C2_2 1_555 1_555
C3G C3 1_555 1_555
O3G C3G 1_555 1_555
O3M C3G 1_555 1_555

#END
