
#######################################################################
#
#                 Cambridge Crystallographic Data Centre
#                                CCDC 
#
#######################################################################
#
# If this CIF has been generated from an entry in the Cambridge 
# Structural Database, then it will include bibliographic, chemical, 
# crystal, experimental, refinement or atomic coordinate data resulting 
# from the CCDC's data processing and validation procedures.
#
#######################################################################

data_HOTWET
_symmetry_cell_setting           orthorhombic
_symmetry_space_group_name_H-M   'P n n m'
_symmetry_Int_Tables_number      58
_space_group_name_Hall           '-P 2 2n'
loop_
_symmetry_equiv_pos_site_id
_symmetry_equiv_pos_as_xyz
1 x,y,z
2 1/2-x,1/2+y,1/2-z
3 -x,-y,z
4 1/2+x,1/2-y,1/2-z
5 -x,-y,-z
6 1/2+x,1/2-y,1/2+z
7 x,y,-z
8 1/2-x,1/2+y,1/2+z
_cell_length_a                   14.2461(3)
_cell_length_b                   11.2834(3)
_cell_length_c                   7.3188(2)
_cell_angle_alpha                90
_cell_angle_beta                 90
_cell_angle_gamma                90
_cell_volume                     1176.46
loop_
_atom_site_label
_atom_site_type_symbol
_atom_site_fract_x
_atom_site_fract_y
_atom_site_fract_z
Ba1 Ba 0.644370(18) 0.42018(2) 0.0000
O1 O 0.5000 0.5000 0.2446(5)
O2 O 0.7474(3) 0.5231(3) 0.2730(5)
O3 O 0.6540(2) 0.2514(3) -0.2686(5)
N1 N 0.4773(3) 0.2625(3) 0.0000
N2 N 0.3940(3) 0.3191(4) 0.0000
N3 N 0.3262(3) 0.2418(4) 0.0000
N4 N 0.3627(3) 0.1303(4) 0.0000
N5 N 0.5207(3) 0.0573(4) 0.0000
N6 N 0.9907(3) 0.2828(3) 0.0000
N7 N 0.9377(3) 0.1842(4) 0.0000
N8 N 0.8488(3) 0.2130(4) 0.0000
N9 N 0.8400(3) 0.3316(4) 0.0000
N10 N 0.9504(3) 0.4904(4) 0.0000
C1 C 0.4540(3) 0.1480(4) 0.0000
C2 C 0.9286(3) 0.3702(4) 0.0000
H1 H 0.482(4) 0.449(4) 0.311(7)
H2 H 0.611(4) 0.239(5) -0.324(8)
H3 H 0.703(5) 0.228(6) -0.316(11)
H4 H 0.768(7) 0.592(8) 0.271(16)
H5 H 0.779(4) 0.484(5) 0.331(8)
Ba1B Ba 0.355630(18) 0.57982(2) 0.0000
Ba1B_2 Ba 0.355630(18) -0.42018(2) 0.0000
Ba1_2 Ba 0.644370(18) -0.57982(2) 0.0000
Ba1B_3 Ba 1.355630(18) 0.57982(2) 0.0000
O1D O 0.5000 0.5000 -0.2446(5)
O2F O 0.7474(3) 0.5231(3) -0.2730(5)
O2D O 0.2526(3) 0.4769(3) -0.2730(5)
O2B O 0.2526(3) 0.4769(3) 0.2730(5)
O3F O 0.6540(2) 0.2514(3) 0.2686(5)
O3D O 0.3460(2) 0.7486(3) 0.2686(5)
O3B O 0.3460(2) 0.7486(3) -0.2686(5)
N1B N 0.5227(3) -0.2625(3) 0.0000
N1B_2 N 0.5227(3) 0.7375(3) 0.0000
N2B N 0.6060(3) -0.3191(4) 0.0000
N2B_2 N 0.6060(3) 0.6809(4) 0.0000
N3B N 0.6738(3) -0.2418(4) 0.0000
N4B N 0.6373(3) -0.1303(4) 0.0000
N5B N 0.4793(3) -0.0573(4) 0.0000
N6B N 1.0093(3) 0.7172(3) 0.0000
N7B N 1.0623(3) 0.8158(4) 0.0000
N8B N 1.1512(3) 0.7870(4) 0.0000
N9B N 1.1600(3) 0.6684(4) 0.0000
N9B_2 N 0.1600(3) 0.6684(4) 0.0000
N10B N 1.0496(3) 0.5096(4) 0.0000
C1B C 0.5460(3) -0.1480(4) 0.0000
C2B C 1.0714(3) 0.6298(4) 0.0000
H1B H 0.518(4) 0.551(4) 0.311(7)
H1D H 0.518(4) 0.551(4) -0.311(7)
H1F H 0.482(4) 0.449(4) -0.311(7)
H2F H 0.611(4) 0.239(5) 0.324(8)
H2D H 0.389(4) 0.761(5) 0.324(8)
H2B H 0.389(4) 0.761(5) -0.324(8)
H3F H 0.703(5) 0.228(6) 0.316(11)
H3D H 0.297(5) 0.772(6) 0.316(11)
H3B H 0.297(5) 0.772(6) -0.316(11)
H4F H 0.768(7) 0.592(8) -0.271(16)
H4D H 0.232(7) 0.408(8) -0.271(16)
H4B H 0.232(7) 0.408(8) 0.271(16)
H5F H 0.779(4) 0.484(5) -0.331(8)
H5D H 0.221(4) 0.516(5) -0.331(8)
H5B H 0.221(4) 0.516(5) 0.331(8)
loop_
_geom_bond_atom_site_label_1
_geom_bond_atom_site_label_2
_geom_bond_site_symmetry_1
_geom_bond_site_symmetry_2
Ba1 O1 1_555 1_555
O1 H1 1_555 1_555
O2 Ba1 1_555 1_555
O3 Ba1 1_555 1_555
N1 Ba1 1_555 1_555
N2 N1 1_555 1_555
N3 N2 1_555 1_555
N4 N3 1_555 1_555
N5 C1 1_555 1_555
N6 N7 1_555 1_555
N7 N8 1_555 1_555
N8 N9 1_555 1_555
N9 Ba1 1_555 1_555
N10 C2 1_555 1_555
C1 N1 1_555 1_555
C2 N6 1_555 1_555
H2 O3 1_555 1_555
H3 O3 1_555 1_555
H4 O2 1_555 1_555
H5 O2 1_555 1_555
Ba1B O1 1_555 1_555
Ba1B_2 N1B 1_555 1_555
Ba1_2 N2B 1_555 1_555
Ba1B_3 N9B 1_555 1_555
O1D Ba1 1_555 1_555
O2F Ba1 1_555 1_555
O2D Ba1B 1_555 1_555
O2B Ba1B 1_555 1_555
O3F Ba1 1_555 1_555
O3D Ba1B 1_555 1_555
O3B Ba1B 1_555 1_555
N1B N2B 1_555 1_555
N1B_2 Ba1B 1_555 1_555
N2B N3B 1_555 1_555
N2B_2 Ba1 1_555 1_555
N3B N4B 1_555 1_555
N4B C1B 1_555 1_555
N5B N5 1_555 1_555
N6B N7B 1_555 1_555
N7B N8B 1_555 1_555
N8B N9B 1_555 1_555
N9B C2B 1_555 1_555
N9B_2 Ba1B 1_555 1_555
N10B N10 1_555 1_555
C1B N1B 1_555 1_555
C2B N6B 1_555 1_555
H1B O1 1_555 1_555
H1D O1D 1_555 1_555
H1F O1D 1_555 1_555
H2F O3F 1_555 1_555
H2D O3D 1_555 1_555
H2B O3B 1_555 1_555
H3F O3F 1_555 1_555
H3D O3D 1_555 1_555
H3B O3B 1_555 1_555
H4F O2F 1_555 1_555
H4D O2D 1_555 1_555
H4B O2B 1_555 1_555
H5F O2F 1_555 1_555
H5D O2D 1_555 1_555
H5B O2B 1_555 1_555
N2 Ba1B 1_555 1_555
N4 C1 1_555 1_555
N9 C2 1_555 1_555
Ba1B O1D 1_555 1_555
N1B_2 N2B_2 1_555 1_555
N5B C1B 1_555 1_555
N10B C2B 1_555 1_555

#END
