
#######################################################################
#
#                 Cambridge Crystallographic Data Centre
#                                CCDC 
#
#######################################################################
#
# If this CIF has been generated from an entry in the Cambridge 
# Structural Database, then it will include bibliographic, chemical, 
# crystal, experimental, refinement or atomic coordinate data resulting 
# from the CCDC's data processing and validation procedures.
#
#######################################################################

data_HOTWOC01
_symmetry_cell_setting           tetragonal
_symmetry_space_group_name_H-M   'P 4/m c c'
_symmetry_Int_Tables_number      124
_space_group_name_Hall           '-P 4 2c'
loop_
_symmetry_equiv_pos_site_id
_symmetry_equiv_pos_as_xyz
1 x,y,z
2 -y,x,z
3 y,-x,z
4 y,x,1/2-z
5 x,-y,1/2-z
6 -x,y,1/2-z
7 -y,-x,1/2-z
8 -x,-y,z
9 -x,-y,-z
10 y,-x,-z
11 -y,x,-z
12 -y,-x,1/2+z
13 -x,y,1/2+z
14 x,-y,1/2+z
15 y,x,1/2+z
16 x,y,-z
_cell_length_a                   13.997(2)
_cell_length_b                   13.997(2)
_cell_length_c                   6.5230(10)
_cell_angle_alpha                90
_cell_angle_beta                 90
_cell_angle_gamma                90
_cell_volume                     1277.96
loop_
_atom_site_label
_atom_site_type_symbol
_atom_site_fract_x
_atom_site_fract_y
_atom_site_fract_z
I1 I 0.0000 0.0000 0.2141(3)
I1O I 0.0000 0.0000 -0.2141(3)
I1C I 0.0000 0.0000 0.2859(3)
U1 U 0.5000 0.5000 0.2500
N1 N 0.5827(2) 0.2731(2) 0.0000
N2 N 0.4402(2) 0.3730(2) 0.0000
C1 C 0.4891(3) 0.2874(3) 0.0000
C2 C 0.4189(3) 0.2095(3) 0.0000
C3 C 0.4299(4) 0.1109(3) 0.0000
C4 C 0.3478(4) 0.0559(3) 0.0000
C5 C 0.2571(4) 0.0975(3) 0.0000
C6 C 0.2460(3) 0.1959(3) 0.0000
C7 C 0.3280(3) 0.2510(3) 0.0000
C8 C 0.3444(3) 0.3541(3) 0.0000
H1 H 0.492(3) 0.083(3) 0.0000
H2 H 0.354(3) -0.014(3) 0.0000
H3 H 0.200(3) 0.064(3) 0.0000
H4 H 0.186(3) 0.232(3) 0.0000
U1L U 0.5000 0.5000 -0.2500
U1L_2 U 0.5000 0.5000 0.7500
N2A N 0.6270(2) 0.4402(2) 0.0000
N2B N 0.3730(2) 0.5598(2) 0.0000
N2L N 0.5598(2) 0.3730(2) 0.5000
N2M N 0.4402(2) 0.6270(2) 0.5000
N2N N 0.3730(2) 0.4402(2) 0.5000
N2H N 0.5598(2) 0.6270(2) 0.0000
N2F N 0.6270(2) 0.5598(2) 0.5000
C8A C 0.6459(3) 0.3444(3) 0.0000
N1B N 0.2731(2) 0.4173(2) 0.0000
loop_
_geom_bond_atom_site_label_1
_geom_bond_atom_site_label_2
_geom_bond_site_symmetry_1
_geom_bond_site_symmetry_2
I1 I1O 1_555 1_555
U1 N2 1_555 1_555
N1 C1 1_555 1_555
N2 C1 1_555 1_555
C1 C2 1_555 1_555
C2 C3 1_555 1_555
C3 C4 1_555 1_555
C4 C5 1_555 1_555
C5 C6 1_555 1_555
C6 C7 1_555 1_555
C7 C2 1_555 1_555
C8 N2 1_555 1_555
H1 C3 1_555 1_555
H2 C4 1_555 1_555
H3 C5 1_555 1_555
H4 C6 1_555 1_555
I1C I1 1_555 1_555
U1L U1 1_555 1_555
U1L_2 U1 1_555 1_555
N2A U1 1_555 1_555
N2B U1 1_555 1_555
N2L U1 1_555 1_555
N2M U1 1_555 1_555
N2N U1 1_555 1_555
N2H U1 1_555 1_555
N2F U1 1_555 1_555
C8A N1 1_555 1_555
N1B C8 1_555 1_555
N2 U1L 1_555 1_555
C7 C8 1_555 1_555
U1L N2A 1_555 1_555
U1L N2B 1_555 1_555
U1L N2H 1_555 1_555
U1L_2 N2L 1_555 1_555
U1L_2 N2M 1_555 1_555
U1L_2 N2N 1_555 1_555
U1L_2 N2F 1_555 1_555
N2A C8A 1_555 1_555

#END
