
#######################################################################
#
#                 Cambridge Crystallographic Data Centre
#                                CCDC 
#
#######################################################################
#
# If this CIF has been generated from an entry in the Cambridge 
# Structural Database, then it will include bibliographic, chemical, 
# crystal, experimental, refinement or atomic coordinate data resulting 
# from the CCDC's data processing and validation procedures.
#
#######################################################################

data_HOTZAT
_symmetry_cell_setting           monoclinic
_symmetry_space_group_name_H-M   'P 21/n'
_symmetry_Int_Tables_number      14
_space_group_name_Hall           '-P 2yn'
loop_
_symmetry_equiv_pos_site_id
_symmetry_equiv_pos_as_xyz
1 x,y,z
2 1/2-x,1/2+y,1/2-z
3 -x,-y,-z
4 1/2+x,1/2-y,1/2+z
_cell_length_a                   9.9601(5)
_cell_length_b                   32.5682(13)
_cell_length_c                   12.2300(5)
_cell_angle_alpha                90
_cell_angle_beta                 107.435(2)
_cell_angle_gamma                90
_cell_volume                     3784.94
loop_
_atom_site_label
_atom_site_type_symbol
_atom_site_fract_x
_atom_site_fract_y
_atom_site_fract_z
Co1 Co 0.32008(4) 0.643239(13) 0.49894(3)
Co2 Co 1.0000 0.5000 0.0000
N1 N 0.4411(3) 0.61574(8) 0.4043(2)
N2 N 0.8559(3) 0.53001(8) 0.0796(2)
N3 N 0.1930(3) 0.59171(8) 0.4979(2)
O1 O 0.4540(2) 0.64012(6) 0.66195(17)
O2 O 0.4900(2) 0.69112(6) 0.55734(17)
O3 O 0.1968(2) 0.67864(7) 1.14967(19)
H1 H 0.1457 0.6766 1.1910
O4 O 0.1735(3) 0.61085(7) 1.1460(2)
O5 O 0.6233(2) 0.63251(6) 0.87876(17)
O6 O 0.1678(2) 0.68374(7) 0.52575(19)
O7 O 0.1539(2) 0.66926(7) 0.34894(18)
O8 O -0.0210(2) 0.54892(6) 0.88779(17)
O9 O -0.2099(2) 0.53038(7) 0.74465(19)
O10 O -0.0717(2) 0.70480(6) 0.57012(16)
O11 O 1.1800(2) 0.52830(6) 0.10734(17)
H2 H 1.2030 0.5174 0.1736
H3 H 1.1651 0.5537 0.1139
C1 C 0.5219(3) 0.67221(9) 0.6508(2)
C2 C 0.6403(3) 0.68764(9) 0.7502(2)
C3 C 0.6874(3) 0.66825(9) 0.8559(3)
C4 C 0.7988(4) 0.68366(11) 0.9430(3)
H4 H 0.8305 0.6697 1.0123
C5 C 0.8631(4) 0.71989(11) 0.9270(3)
H5 H 0.9375 0.7305 0.9857
C6 C 0.8166(3) 0.74001(10) 0.8241(3)
H6 H 0.8584 0.7646 0.8135
C7 C 0.7082(3) 0.72390(9) 0.7366(3)
H7 H 0.6795 0.7375 0.6666
C8 C 0.2205(3) 0.64166(10) 1.1144(3)
C9 C 0.3127(3) 0.64131(10) 1.0397(2)
C10 C 0.3740(3) 0.67685(10) 1.0155(3)
H8 H 0.3475 0.7021 1.0381
C11 C 0.4746(4) 0.67533(10) 0.9581(3)
H9 H 0.5139 0.6994 0.9407
C12 C 0.5162(3) 0.63774(9) 0.9267(2)
C13 C 0.4524(3) 0.60183(10) 0.9471(3)
H10 H 0.4776 0.5767 0.9232
C14 C 0.3515(4) 0.60384(10) 1.0031(3)
H11 H 0.3086 0.5798 1.0167
C15 C 0.1012(3) 0.68545(9) 0.4216(3)
C16 C -0.0419(3) 0.70425(9) 0.3806(2)
C17 C -0.1260(3) 0.71039(9) 0.4524(2)
C18 C -0.2625(3) 0.72511(9) 0.4085(3)
H12 H -0.3192 0.7279 0.4563
C19 C -0.3142(3) 0.73560(10) 0.2946(3)
H13 H -0.4054 0.7456 0.2657
C20 C -0.2313(4) 0.73134(11) 0.2231(3)
H14 H -0.2651 0.7392 0.1466
C21 C -0.0977(3) 0.71529(10) 0.2661(3)
H15 H -0.0432 0.7117 0.2169
C22 C -0.1123(3) 0.55514(9) 0.7929(3)
C23 C -0.1018(3) 0.59446(9) 0.7319(2)
C24 C -0.0069(3) 0.62440(10) 0.7846(2)
H16 H 0.0506 0.6203 0.8592
C25 C 0.0045(3) 0.66053(10) 0.7285(3)
H17 H 0.0692 0.6805 0.7651
C26 C -0.0809(3) 0.66671(9) 0.6180(2)
C27 C -0.1741(3) 0.63673(10) 0.5623(3)
H18 H -0.2296 0.6406 0.4870
C28 C -0.1839(3) 0.60081(10) 0.6201(3)
H19 H -0.2469 0.5806 0.5829
C29 C 0.4701(3) 0.57547(10) 0.4082(3)
H20 H 0.4357 0.5587 0.4554
C30 C 0.5492(3) 0.55776(10) 0.3450(3)
H21 H 0.5659 0.5296 0.3495
C31 C 0.6036(3) 0.58192(9) 0.2748(2)
C32 C 0.5746(3) 0.62362(9) 0.2721(2)
H22 H 0.6091 0.6411 0.2267
C33 C 0.4945(3) 0.63903(10) 0.3370(3)
H23 H 0.4764 0.6671 0.3340
C34 C 0.8638(3) 0.56973(10) 0.1071(3)
H24 H 0.9255 0.5862 0.0828
C35 C 0.7849(3) 0.58756(10) 0.1699(3)
H25 H 0.7958 0.6153 0.1883
C36 C 0.6894(3) 0.56414(9) 0.2055(2)
C37 C 0.6782(3) 0.52307(10) 0.1743(3)
H26 H 0.6146 0.5061 0.1948
C38 C 0.7627(4) 0.50762(10) 0.1123(3)
H27 H 0.7539 0.4800 0.0922
C39 C 0.1765(3) 0.57685(10) 0.5941(3)
H28 H 0.2173 0.5910 0.6620
C40 C 0.1022(3) 0.54161(10) 0.5983(3)
H29 H 0.0936 0.5327 0.6681
C41 C 0.0399(3) 0.51920(9) 0.4995(3)
C42 C 0.0549(4) 0.53563(11) 0.3991(3)
H30 H 0.0139 0.5225 0.3296
C43 C 0.1298(4) 0.57110(11) 0.4017(3)
H31 H 0.1370 0.5814 0.3328
N3B N -0.1930(3) 0.40829(8) 0.5021(2)
C39B C -0.1765(3) 0.42315(10) 0.4059(3)
H28B H -0.2173 0.4090 0.3380
C40B C -0.1022(3) 0.45839(10) 0.4017(3)
H29B H -0.0936 0.4673 0.3319
C41B C -0.0399(3) 0.48080(9) 0.5005(3)
C42B C -0.0549(4) 0.46437(11) 0.6009(3)
H30B H -0.0139 0.4775 0.6704
C43B C -0.1298(4) 0.42890(11) 0.5983(3)
H31B H -0.1370 0.4186 0.6672
Co1B Co -0.32008(4) 0.356761(13) 0.50106(3)
N1B N -0.4411(3) 0.38426(8) 0.5957(2)
N2B N -0.8559(3) 0.46999(8) 0.9204(2)
O1B O -0.4540(2) 0.35988(6) 0.33805(17)
O2B O -0.4900(2) 0.30888(6) 0.44266(17)
O3B O -0.1968(2) 0.32136(7) -0.14967(19)
H1B H -0.1457 0.3234 -0.1910
O4B O -0.1735(3) 0.38915(7) -0.1460(2)
O5B O -0.6233(2) 0.36749(6) 0.12124(17)
O6B O -0.1678(2) 0.31626(7) 0.47425(19)
O7B O -0.1539(2) 0.33074(7) 0.65106(18)
O8B O 0.0210(2) 0.45108(6) 0.11221(17)
O9B O 0.2099(2) 0.46962(7) 0.25535(19)
O10B O 0.0717(2) 0.29520(6) 0.42988(16)
C1B C -0.5219(3) 0.32779(9) 0.3492(2)
C2B C -0.6403(3) 0.31236(9) 0.2498(2)
C3B C -0.6874(3) 0.33175(9) 0.1441(3)
C4B C -0.7988(4) 0.31634(11) 0.0570(3)
H4B H -0.8305 0.3303 -0.0123
C5B C -0.8631(4) 0.28011(11) 0.0730(3)
H5B H -0.9375 0.2695 0.0143
C6B C -0.8166(3) 0.25999(10) 0.1759(3)
H6B H -0.8584 0.2354 0.1865
C7B C -0.7082(3) 0.27610(9) 0.2634(3)
H7B H -0.6795 0.2625 0.3334
C8B C -0.2205(3) 0.35834(10) -0.1144(3)
C9B C -0.3127(3) 0.35869(10) -0.0397(2)
C10B C -0.3740(3) 0.32315(10) -0.0155(3)
H8B H -0.3475 0.2979 -0.0381
C11B C -0.4746(4) 0.32467(10) 0.0419(3)
H9B H -0.5139 0.3006 0.0593
C12B C -0.5162(3) 0.36226(9) 0.0733(2)
C13B C -0.4524(3) 0.39817(10) 0.0529(3)
H10B H -0.4776 0.4233 0.0768
C14B C -0.3515(4) 0.39616(10) -0.0031(3)
H11B H -0.3086 0.4202 -0.0167
C15B C -0.1012(3) 0.31455(9) 0.5784(3)
C16B C 0.0419(3) 0.29575(9) 0.6194(2)
C17B C 0.1260(3) 0.28961(9) 0.5476(2)
C18B C 0.2625(3) 0.27489(9) 0.5915(3)
H12B H 0.3192 0.2721 0.5437
C19B C 0.3142(3) 0.26440(10) 0.7054(3)
H13B H 0.4054 0.2544 0.7343
C20B C 0.2313(4) 0.26866(11) 0.7769(3)
H14B H 0.2651 0.2608 0.8534
C21B C 0.0977(3) 0.28471(10) 0.7339(3)
H15B H 0.0432 0.2883 0.7831
C22B C 0.1123(3) 0.44486(9) 0.2071(3)
C23B C 0.1018(3) 0.40554(9) 0.2681(2)
C24B C 0.0069(3) 0.37560(10) 0.2154(2)
H16B H -0.0506 0.3797 0.1408
C25B C -0.0045(3) 0.33947(10) 0.2715(3)
H17B H -0.0692 0.3195 0.2349
C26B C 0.0809(3) 0.33329(9) 0.3820(2)
C27B C 0.1741(3) 0.36327(10) 0.4377(3)
H18B H 0.2296 0.3594 0.5130
C28B C 0.1839(3) 0.39919(10) 0.3799(3)
H19B H 0.2469 0.4194 0.4171
C29B C -0.4701(3) 0.42453(10) 0.5918(3)
H20B H -0.4357 0.4413 0.5446
C30B C -0.5492(3) 0.44224(10) 0.6550(3)
H21B H -0.5659 0.4704 0.6505
C31B C -0.6036(3) 0.41808(9) 0.7252(2)
C32B C -0.5746(3) 0.37638(9) 0.7279(2)
H22B H -0.6091 0.3589 0.7733
C33B C -0.4945(3) 0.36097(10) 0.6630(3)
H23B H -0.4764 0.3329 0.6660
C34B C -0.8638(3) 0.43027(10) 0.8929(3)
H24B H -0.9255 0.4138 0.9172
C35B C -0.7849(3) 0.41244(10) 0.8301(3)
H25B H -0.7958 0.3847 0.8117
C36B C -0.6894(3) 0.43586(9) 0.7945(2)
C37B C -0.6782(3) 0.47693(10) 0.8257(3)
H26B H -0.6146 0.4939 0.8052
C38B C -0.7627(4) 0.49238(10) 0.8877(3)
H27B H -0.7539 0.5200 0.9078
O11B O 0.8200(2) 0.47170(6) -0.10734(17)
H2B H 0.7970 0.4826 -0.1736
H3B H 0.8349 0.4463 -0.1139
Co2_2 Co -1.0000 0.5000 1.0000
Co2_3 Co 0.0000 0.5000 0.0000
Co2_4 Co 0.0000 0.5000 1.0000
N2B_2 N 1.1441(3) 0.46999(8) -0.0796(2)
O8_2 O 0.9790(2) 0.54892(6) -0.11221(17)
O8B_2 O 1.0210(2) 0.45108(6) 0.11221(17)
O12 O 0.4980(3) 0.45028(8) 0.3022(2)
H32 H 0.5097 0.4245 0.3122
H33 H 0.4109 0.4555 0.2883
loop_
_geom_bond_atom_site_label_1
_geom_bond_atom_site_label_2
_geom_bond_site_symmetry_1
_geom_bond_site_symmetry_2
Co1 N1 1_555 1_555
Co2 N2 1_555 1_555
N1 C29 1_555 1_555
N2 C34 1_555 1_555
N3 Co1 1_555 1_555
O1 Co1 1_555 1_555
O2 Co1 1_555 1_555
O3 H1 1_555 1_555
O4 C8 1_555 1_555
O5 C3 1_555 1_555
O6 Co1 1_555 1_555
O7 Co1 1_555 1_555
O8 C22 1_555 1_555
O9 C22 1_555 1_555
O10 C17 1_555 1_555
O11 Co2 1_555 1_555
H2 O11 1_555 1_555
H3 O11 1_555 1_555
C1 O1 1_555 1_555
C2 C1 1_555 1_555
C3 C2 1_555 1_555
C4 C3 1_555 1_555
H4 C4 1_555 1_555
C5 C4 1_555 1_555
H5 C5 1_555 1_555
C6 C5 1_555 1_555
H6 C6 1_555 1_555
C7 C2 1_555 1_555
H7 C7 1_555 1_555
C8 O3 1_555 1_555
C9 C8 1_555 1_555
C10 C9 1_555 1_555
H8 C10 1_555 1_555
C11 C10 1_555 1_555
H9 C11 1_555 1_555
C12 O5 1_555 1_555
C13 C12 1_555 1_555
H10 C13 1_555 1_555
C14 C9 1_555 1_555
H11 C14 1_555 1_555
C15 O6 1_555 1_555
C16 C15 1_555 1_555
C17 C16 1_555 1_555
C18 C17 1_555 1_555
H12 C18 1_555 1_555
C19 C18 1_555 1_555
H13 C19 1_555 1_555
C20 C19 1_555 1_555
H14 C20 1_555 1_555
C21 C16 1_555 1_555
H15 C21 1_555 1_555
C22 C23 1_555 1_555
C23 C24 1_555 1_555
C24 H16 1_555 1_555
C25 C24 1_555 1_555
H17 C25 1_555 1_555
C26 O10 1_555 1_555
C27 C26 1_555 1_555
H18 C27 1_555 1_555
C28 C23 1_555 1_555
H19 C28 1_555 1_555
C29 H20 1_555 1_555
C30 C29 1_555 1_555
H21 C30 1_555 1_555
C31 C30 1_555 1_555
C32 C31 1_555 1_555
H22 C32 1_555 1_555
C33 N1 1_555 1_555
H23 C33 1_555 1_555
C34 H24 1_555 1_555
C35 C34 1_555 1_555
H25 C35 1_555 1_555
C36 C31 1_555 1_555
C37 C36 1_555 1_555
H26 C37 1_555 1_555
C38 N2 1_555 1_555
H27 C38 1_555 1_555
C39 N3 1_555 1_555
H28 C39 1_555 1_555
C40 C39 1_555 1_555
H29 C40 1_555 1_555
C41 C40 1_555 1_555
C42 C41 1_555 1_555
H30 C42 1_555 1_555
C43 N3 1_555 1_555
H31 C43 1_555 1_555
O12 H32 1_555 1_555
H33 O12 1_555 1_555
N3B C39B 1_555 1_555
C39B H28B 1_555 1_555
C40B C39B 1_555 1_555
H29B C40B 1_555 1_555
C41B C41 1_555 1_555
C42B C41B 1_555 1_555
H30B C42B 1_555 1_555
C43B N3B 1_555 1_555
H31B C43B 1_555 1_555
Co1B N3B 1_555 1_555
N1B Co1B 1_555 1_555
N2B C34B 1_555 1_555
O1B Co1B 1_555 1_555
O2B Co1B 1_555 1_555
O3B H1B 1_555 1_555
O4B C8B 1_555 1_555
O5B C3B 1_555 1_555
O6B Co1B 1_555 1_555
O7B Co1B 1_555 1_555
O8B C22B 1_555 1_555
O9B C22B 1_555 1_555
O10B C17B 1_555 1_555
C1B O1B 1_555 1_555
C2B C1B 1_555 1_555
C3B C2B 1_555 1_555
C4B C3B 1_555 1_555
H4B C4B 1_555 1_555
C5B C4B 1_555 1_555
H5B C5B 1_555 1_555
C6B C5B 1_555 1_555
H6B C6B 1_555 1_555
C7B C2B 1_555 1_555
H7B C7B 1_555 1_555
C8B O3B 1_555 1_555
C9B C8B 1_555 1_555
C10B C9B 1_555 1_555
H8B C10B 1_555 1_555
C11B C10B 1_555 1_555
H9B C11B 1_555 1_555
C12B O5B 1_555 1_555
C13B C12B 1_555 1_555
H10B C13B 1_555 1_555
C14B C9B 1_555 1_555
H11B C14B 1_555 1_555
C15B O6B 1_555 1_555
C16B C15B 1_555 1_555
C17B C16B 1_555 1_555
C18B C17B 1_555 1_555
H12B C18B 1_555 1_555
C19B C18B 1_555 1_555
H13B C19B 1_555 1_555
C20B C19B 1_555 1_555
H14B C20B 1_555 1_555
C21B C16B 1_555 1_555
H15B C21B 1_555 1_555
C22B C23B 1_555 1_555
C23B C24B 1_555 1_555
C24B H16B 1_555 1_555
C25B C24B 1_555 1_555
H17B C25B 1_555 1_555
C26B O10B 1_555 1_555
C27B C26B 1_555 1_555
H18B C27B 1_555 1_555
C28B C23B 1_555 1_555
H19B C28B 1_555 1_555
C29B N1B 1_555 1_555
H20B C29B 1_555 1_555
C30B C29B 1_555 1_555
H21B C30B 1_555 1_555
C31B C30B 1_555 1_555
C32B C31B 1_555 1_555
H22B C32B 1_555 1_555
C33B N1B 1_555 1_555
H23B C33B 1_555 1_555
C34B H24B 1_555 1_555
C35B C34B 1_555 1_555
H25B C35B 1_555 1_555
C36B C31B 1_555 1_555
C37B C36B 1_555 1_555
H26B C37B 1_555 1_555
C38B N2B 1_555 1_555
H27B C38B 1_555 1_555
O11B Co2 1_555 1_555
H2B O11B 1_555 1_555
H3B O11B 1_555 1_555
Co2_2 N2B 1_555 1_555
Co2_3 O8B 1_555 1_555
Co2_4 O8 1_555 1_555
N2B_2 Co2 1_555 1_555
O8_2 Co2 1_555 1_555
O8B_2 Co2 1_555 1_555
O2 C1 1_555 1_555
O7 C15 1_555 1_555
C6 C7 1_555 1_555
C11 C12 1_555 1_555
C13 C14 1_555 1_555
C20 C21 1_555 1_555
C25 C26 1_555 1_555
C27 C28 1_555 1_555
C32 C33 1_555 1_555
C35 C36 1_555 1_555
C37 C38 1_555 1_555
C42 C43 1_555 1_555
C40B C41B 1_555 1_555
C42B C43B 1_555 1_555
O2B C1B 1_555 1_555
O7B C15B 1_555 1_555
C6B C7B 1_555 1_555
C11B C12B 1_555 1_555
C13B C14B 1_555 1_555
C20B C21B 1_555 1_555
C25B C26B 1_555 1_555
C27B C28B 1_555 1_555
C32B C33B 1_555 1_555
C35B C36B 1_555 1_555
C37B C38B 1_555 1_555

#END
