
#######################################################################
#
#                 Cambridge Crystallographic Data Centre
#                                CCDC 
#
#######################################################################
#
# If this CIF has been generated from an entry in the Cambridge 
# Structural Database, then it will include bibliographic, chemical, 
# crystal, experimental, refinement or atomic coordinate data resulting 
# from the CCDC's data processing and validation procedures.
#
#######################################################################

data_HOVBIF
_symmetry_cell_setting           monoclinic
_symmetry_space_group_name_H-M   'C 2/c'
_symmetry_Int_Tables_number      15
_space_group_name_Hall           '-C 2yn'
loop_
_symmetry_equiv_pos_site_id
_symmetry_equiv_pos_as_xyz
1 x,y,z
2 -x,y,1/2-z
3 1/2+x,1/2+y,z
4 1/2-x,1/2+y,1/2-z
5 -x,-y,-z
6 x,-y,1/2+z
7 1/2-x,1/2-y,-z
8 1/2+x,1/2-y,1/2+z
_cell_length_a                   34.432(5)
_cell_length_b                   7.052(5)
_cell_length_c                   25.211(5)
_cell_angle_alpha                90
_cell_angle_beta                 114.468(5)
_cell_angle_gamma                90
_cell_volume                     5571.83
loop_
_atom_site_label
_atom_site_type_symbol
_atom_site_fract_x
_atom_site_fract_y
_atom_site_fract_z
Cd1 Cd 0.0000 0.80108(6) 0.7500
Cd2 Cd 0.251307(9) 1.90585(4) 1.205508(11)
O1 O 0.24147(9) 1.2676(4) 0.78869(11)
C1 C 0.00605(16) 0.4067(7) 0.6818(2)
H1 H 0.0251 0.3478 0.7156
C2 C -0.00712(16) 0.3350(7) 0.62761(19)
H2 H 0.0009 0.2199 0.6172
O2 O 0.05481(10) 0.9813(5) 0.82632(14)
O3 O 0.19532(9) 1.0643(4) 0.72924(12)
N1 N -0.17922(11) 0.3938(5) 0.26343(14)
O4 O 0.22593(12) 1.9050(4) 1.10347(12)
O5 O 0.05789(10) 0.9360(5) 0.74230(14)
O6 O 0.23509(12) 1.6364(4) 1.14934(12)
C3 C 0.16755(15) 1.3050(6) 0.88755(17)
C4 C -0.10109(14) 0.4100(6) 0.41140(18)
N2 N -0.12482(11) 0.3967(5) 0.34866(14)
C5 C 0.19294(13) 1.2927(6) 0.85670(16)
H3 H 0.2191 1.3552 0.8707
N3 N -0.01264(12) 0.5776(5) 0.67980(15)
C6 C -0.07639(15) 0.5673(6) 0.43366(19)
H4 H -0.0753 0.6599 0.4081
N4 N -0.03468(12) 0.4656(5) 0.59094(15)
C7 C 0.1851(3) 1.6094(8) 0.9431(2)
H5 H 0.1784 1.6740 0.9083
C8 C 0.17991(13) 1.1886(6) 0.80534(16)
C9 C 0.18149(15) 1.4169(6) 0.94238(18)
C10 C -0.10422(14) 0.2633(6) 0.44683(19)
C11 C -0.08158(14) 0.2903(7) 0.50620(19)
H6 H -0.0829 0.1977 0.5317
C12 C 0.12876(15) 1.2101(6) 0.86606(19)
H7 H 0.1118 1.2160 0.8866
C13 C 0.11471(14) 1.1068(6) 0.81474(19)
C14 C 0.20726(13) 1.1733(6) 0.77263(16)
C15 C 0.22424(14) 1.7275(6) 1.10337(17)
C16 C -0.05307(15) 0.5934(6) 0.49261(19)
C17 C 0.20876(14) 1.6213(6) 1.04670(17)
C18 C 0.07336(14) 1.0015(7) 0.7936(2)
C19 C -0.14279(15) 0.3798(7) 0.25561(19)
H8 H -0.1414 0.3701 0.2196
C20 C 0.14091(13) 1.0964(5) 0.78469(17)
H9 H 0.1320 1.0265 0.7504
C21 C -0.05712(14) 0.4503(6) 0.52885(18)
C22 C -0.16710(14) 0.4033(6) 0.32039(18)
H10 H -0.1857 0.4133 0.3384
C23 C 0.20624(19) 1.4276(7) 1.0467(2)
H11 H 0.2135 1.3629 1.0816
C24 C -0.10843(15) 0.3822(7) 0.30794(19)
H12 H -0.0798 0.3753 0.3146
C25 C -0.03712(16) 0.6087(7) 0.62476(19)
H13 H -0.0540 0.7160 0.6108
C26 C 0.1985(2) 1.7114(7) 0.9949(2)
H14 H 0.2005 1.8427 0.9941
C27 C 0.1931(2) 1.3279(7) 0.9953(2)
H15 H 0.1920 1.1962 0.9963
C28 C -0.13024(18) 0.0871(7) 0.4236(2)
H16 H -0.1583 0.1051 0.4222
H17 H -0.1167 -0.0179 0.4487
H18 H -0.1324 0.0614 0.3851
C29 C -0.02530(17) 0.7646(7) 0.5151(2)
H19 H -0.0194 0.8191 0.4843
H20 H 0.0010 0.7283 0.5466
H21 H -0.0397 0.8562 0.5287
Cd2A Cd -0.251307(9) 1.90585(4) 0.294492(11)
O1A O -0.24147(9) 1.2676(4) 0.71131(11)
C1A C -0.00605(16) 0.4067(7) 0.8182(2)
H1A H -0.0251 0.3478 0.7844
C2A C 0.00712(16) 0.3350(7) 0.87239(19)
H2A H -0.0009 0.2199 0.8828
O2A O -0.05481(10) 0.9813(5) 0.67368(14)
O3A O -0.19532(9) 1.0643(4) 0.77076(12)
N1A N 0.17922(11) 0.3938(5) 1.23657(14)
O4A O -0.22593(12) 1.9050(4) 0.39653(12)
O5A O -0.05789(10) 0.9360(5) 0.75770(14)
O6A O -0.23509(12) 1.6364(4) 0.35066(12)
C3A C -0.16755(15) 1.3050(6) 0.61245(17)
C4A C 0.10109(14) 0.4100(6) 1.08860(18)
N2A N 0.12482(11) 0.3967(5) 1.15134(14)
C5A C -0.19294(13) 1.2927(6) 0.64330(16)
H3A H -0.2191 1.3552 0.6293
N3A N 0.01264(12) 0.5776(5) 0.82020(15)
C6A C 0.07639(15) 0.5673(6) 1.06634(19)
H4A H 0.0753 0.6599 1.0919
N4A N 0.03468(12) 0.4656(5) 0.90906(15)
C7A C -0.1851(3) 1.6094(8) 0.5569(2)
H5A H -0.1784 1.6740 0.5917
C8A C -0.17991(13) 1.1886(6) 0.69466(16)
C9A C -0.18149(15) 1.4169(6) 0.55762(18)
C10A C 0.10422(14) 0.2633(6) 1.05317(19)
C11A C 0.08158(14) 0.2903(7) 0.99380(19)
H6A H 0.0829 0.1977 0.9683
C12A C -0.12876(15) 1.2101(6) 0.63394(19)
H7A H -0.1118 1.2160 0.6134
C13A C -0.11471(14) 1.1068(6) 0.68526(19)
C14A C -0.20726(13) 1.1733(6) 0.72737(16)
C15A C -0.22424(14) 1.7275(6) 0.39663(17)
C16A C 0.05307(15) 0.5934(6) 1.00739(19)
C17A C -0.20876(14) 1.6213(6) 0.45330(17)
C18A C -0.07336(14) 1.0015(7) 0.7064(2)
C19A C 0.14279(15) 0.3798(7) 1.24439(19)
H8A H 0.1414 0.3701 1.2804
C20A C -0.14091(13) 1.0964(5) 0.71531(17)
H9A H -0.1320 1.0265 0.7496
C21A C 0.05712(14) 0.4503(6) 0.97115(18)
C22A C 0.16710(14) 0.4033(6) 1.17961(18)
H10A H 0.1857 0.4133 1.1616
C23A C -0.20624(19) 1.4276(7) 0.4533(2)
H11A H -0.2135 1.3629 0.4184
C24A C 0.10843(15) 0.3822(7) 1.19206(19)
H12A H 0.0798 0.3753 1.1854
C25A C 0.03712(16) 0.6087(7) 0.87524(19)
H13A H 0.0540 0.7160 0.8892
C26A C -0.1985(2) 1.7114(7) 0.5051(2)
H14A H -0.2005 1.8427 0.5059
C27A C -0.1931(2) 1.3279(7) 0.5047(2)
H15A H -0.1920 1.1962 0.5037
C28A C 0.13024(18) 0.0871(7) 1.0764(2)
H16A H 0.1583 0.1051 1.0778
H17A H 0.1167 -0.0179 1.0513
H18A H 0.1324 0.0614 1.1149
C29A C 0.02530(17) 0.7646(7) 0.9849(2)
H19A H 0.0194 0.8191 1.0157
H20A H -0.0010 0.7283 0.9534
H21A H 0.0397 0.8562 0.9713
Cd2B Cd -0.248693(9) 0.40585(4) 0.205508(11)
Cd2C Cd 0.248693(9) 0.40585(4) 1.294492(11)
Cd2D Cd -0.251307(9) 1.09415(4) 0.794492(11)
Cd2E Cd 0.251307(9) 1.09415(4) 0.705508(11)
Cd2F Cd 0.248693(9) 1.59415(4) 0.794492(11)
Cd2G Cd -0.248693(9) 1.59415(4) 0.705508(11)
O1D O -0.24147(9) 1.7324(4) 0.21131(11)
O1E O 0.24147(9) 1.7324(4) 1.28869(11)
O1F O 0.25853(9) 2.2324(4) 1.21131(11)
O1G O -0.25853(9) 2.2324(4) 0.28869(11)
O3D O -0.19532(9) 1.9357(4) 0.27076(12)
O3E O 0.19532(9) 1.9357(4) 1.22924(12)
N1B N 0.32078(11) 1.8938(5) 1.26343(14)
N1C N -0.32078(11) 1.8938(5) 0.23657(14)
O7 O 0.0578(2) 0.0122(13) 0.6346(3)
H22 H 0.0734 -0.0006 0.6708
H23 H 0.0728 0.0532 0.6175
loop_
_geom_bond_atom_site_label_1
_geom_bond_atom_site_label_2
_geom_bond_site_symmetry_1
_geom_bond_site_symmetry_2
Cd1 O2 1_555 1_555
Cd2 O4 1_555 1_555
O1 C14 1_555 1_555
C1 H1 1_555 1_555
C2 C1 1_555 1_555
H2 C2 1_555 1_555
O2 C18 1_555 1_555
O3 C14 1_555 1_555
N1 C19 1_555 1_555
O4 C15 1_555 1_555
O5 Cd1 1_555 1_555
O6 Cd2 1_555 1_555
C3 C5 1_555 1_555
C4 N2 1_555 1_555
N2 C22 1_555 1_555
C5 H3 1_555 1_555
N3 Cd1 1_555 1_555
C6 C4 1_555 1_555
H4 C6 1_555 1_555
N4 C2 1_555 1_555
C7 H5 1_555 1_555
C8 C5 1_555 1_555
C9 C3 1_555 1_555
C10 C4 1_555 1_555
C11 C10 1_555 1_555
H6 C11 1_555 1_555
C12 C3 1_555 1_555
H7 C12 1_555 1_555
C13 C12 1_555 1_555
C14 C8 1_555 1_555
C15 O6 1_555 1_555
C16 C6 1_555 1_555
C17 C15 1_555 1_555
C18 O5 1_555 1_555
C19 H8 1_555 1_555
C20 C8 1_555 1_555
H9 C20 1_555 1_555
C21 N4 1_555 1_555
C22 N1 1_555 1_555
H10 C22 1_555 1_555
C23 C17 1_555 1_555
H11 C23 1_555 1_555
C24 N2 1_555 1_555
H12 C24 1_555 1_555
C25 N3 1_555 1_555
H13 C25 1_555 1_555
C26 C7 1_555 1_555
H14 C26 1_555 1_555
C27 C9 1_555 1_555
H15 C27 1_555 1_555
C28 C10 1_555 1_555
H16 C28 1_555 1_555
H17 C28 1_555 1_555
H18 C28 1_555 1_555
C29 C16 1_555 1_555
H19 C29 1_555 1_555
H20 C29 1_555 1_555
H21 C29 1_555 1_555
O7 H22 1_555 1_555
H23 O7 1_555 1_555
Cd2A O4A 1_555 1_555
O1A C14A 1_555 1_555
C1A H1A 1_555 1_555
C2A C1A 1_555 1_555
H2A C2A 1_555 1_555
O2A Cd1 1_555 1_555
O3A C14A 1_555 1_555
N1A C19A 1_555 1_555
O4A C15A 1_555 1_555
O5A Cd1 1_555 1_555
O6A Cd2A 1_555 1_555
C3A C5A 1_555 1_555
C4A N2A 1_555 1_555
N2A C22A 1_555 1_555
C5A H3A 1_555 1_555
N3A Cd1 1_555 1_555
C6A C4A 1_555 1_555
H4A C6A 1_555 1_555
N4A C2A 1_555 1_555
C7A H5A 1_555 1_555
C8A C5A 1_555 1_555
C9A C3A 1_555 1_555
C10A C4A 1_555 1_555
C11A C10A 1_555 1_555
H6A C11A 1_555 1_555
C12A C3A 1_555 1_555
H7A C12A 1_555 1_555
C13A C12A 1_555 1_555
C14A C8A 1_555 1_555
C15A O6A 1_555 1_555
C16A C6A 1_555 1_555
C17A C15A 1_555 1_555
C18A O2A 1_555 1_555
C19A H8A 1_555 1_555
C20A C8A 1_555 1_555
H9A C20A 1_555 1_555
C21A N4A 1_555 1_555
C22A N1A 1_555 1_555
H10A C22A 1_555 1_555
C23A C17A 1_555 1_555
H11A C23A 1_555 1_555
C24A N2A 1_555 1_555
H12A C24A 1_555 1_555
C25A N3A 1_555 1_555
H13A C25A 1_555 1_555
C26A C7A 1_555 1_555
H14A C26A 1_555 1_555
C27A C9A 1_555 1_555
H15A C27A 1_555 1_555
C28A C10A 1_555 1_555
H16A C28A 1_555 1_555
H17A C28A 1_555 1_555
H18A C28A 1_555 1_555
C29A C16A 1_555 1_555
H19A C29A 1_555 1_555
H20A C29A 1_555 1_555
H21A C29A 1_555 1_555
Cd2B N1 1_555 1_555
Cd2C N1A 1_555 1_555
Cd2D O1A 1_555 1_555
Cd2E O1 1_555 1_555
Cd2F O1 1_555 1_555
Cd2G O1A 1_555 1_555
O1D Cd2A 1_555 1_555
O1E Cd2 1_555 1_555
O1F Cd2 1_555 1_555
O1G Cd2A 1_555 1_555
O3D Cd2A 1_555 1_555
O3E Cd2 1_555 1_555
N1B Cd2 1_555 1_555
N1C Cd2A 1_555 1_555
C1 N3 1_555 1_555
O3 Cd2E 1_555 1_555
N4 C25 1_555 1_555
C7 C9 1_555 1_555
C11 C21 1_555 1_555
C13 C18 1_555 1_555
C13 C20 1_555 1_555
C16 C21 1_555 1_555
C17 C26 1_555 1_555
C19 C24 1_555 1_555
C23 C27 1_555 1_555
C1A N3A 1_555 1_555
O3A Cd2D 1_555 1_555
O5A C18A 1_555 1_555
N4A C25A 1_555 1_555
C7A C9A 1_555 1_555
C11A C21A 1_555 1_555
C13A C18A 1_555 1_555
C13A C20A 1_555 1_555
C16A C21A 1_555 1_555
C17A C26A 1_555 1_555
C19A C24A 1_555 1_555
C23A C27A 1_555 1_555

#END
