
#######################################################################
#
#                 Cambridge Crystallographic Data Centre
#                                CCDC 
#
#######################################################################
#
# If this CIF has been generated from an entry in the Cambridge 
# Structural Database, then it will include bibliographic, chemical, 
# crystal, experimental, refinement or atomic coordinate data resulting 
# from the CCDC's data processing and validation procedures.
#
#######################################################################

data_HOVDED
_symmetry_cell_setting           orthorhombic
_symmetry_space_group_name_H-M   'A b a 2'
_symmetry_Int_Tables_number      41
_space_group_name_Hall           'A 2 -2ab'
loop_
_symmetry_equiv_pos_site_id
_symmetry_equiv_pos_as_xyz
1 x,y,z
2 -x,-y,z
3 1/2+x,1/2-y,z
4 1/2-x,1/2+y,z
5 x,1/2+y,1/2+z
6 -x,1/2-y,1/2+z
7 1/2+x,-y,1/2+z
8 1/2-x,y,1/2+z
_cell_length_a                   10.958(2)
_cell_length_b                   20.527(4)
_cell_length_c                   14.932(3)
_cell_angle_alpha                90
_cell_angle_beta                 90
_cell_angle_gamma                90
_cell_volume                     3358.73
loop_
_atom_site_label
_atom_site_type_symbol
_atom_site_fract_x
_atom_site_fract_y
_atom_site_fract_z
Cu1 Cu 1.19423(6) 0.21991(4) 0.82175(8)
S1 S 1.11427(13) 0.32295(9) 0.79801(12)
C1 C 0.8893(6) 0.0631(3) 0.7272(5)
C2 C 1.0402(6) 0.1277(3) 0.6833(4)
C3 C 0.9899(5) 0.1217(3) 0.8285(5)
C4 C 0.8336(9) 0.0835(6) 0.9964(6)
H1 H 0.8011 0.0831 1.0561
H2 H 0.8604 0.0404 0.9806
H3 H 0.7714 0.0973 0.9553
C5 C 0.9388(7) 0.1293(4) 0.9920(5)
C6 C 0.9872(8) 0.1673(4) 1.0559(5)
H4 H 0.9613 0.1697 1.1151
C7 C 1.0845(7) 0.2030(4) 1.0177(4)
C8 C 1.1663(8) 0.2519(5) 1.0607(6)
H5 H 1.2182 0.2711 1.0162
H6 H 1.2154 0.2308 1.1054
H7 H 1.1178 0.2853 1.0884
C9 C 0.6383(7) -0.0504(4) 0.7229(7)
H8 H 0.6086 -0.0303 0.6691
H9 H 0.5708 -0.0604 0.7615
H10 H 0.6808 -0.0898 0.7080
C10 C 0.7240(7) -0.0045(4) 0.7700(5)
H11 H 0.6788 0.0306 0.7982
H12 H 0.7700 -0.0274 0.8158
C11 C 1.1578(9) 0.0747(5) 0.5058(6)
H13 H 1.2373 0.0752 0.5328
H14 H 1.1660 0.0709 0.4420
H15 H 1.1122 0.0383 0.5283
C12 C 1.0931(7) 0.1356(4) 0.5277(4)
H16 H 1.1223 0.1704 0.4892
H17 H 1.0064 0.1301 0.5168
C13 C 0.9684(5) 0.3036(3) 0.8067(5)
N1 N 1.0657(5) 0.1474(3) 0.7662(3)
N2 N 0.9026(4) 0.0785(2) 0.8127(4)
N3 N 0.9540(5) 0.0854(3) 0.6587(4)
N4 N 1.0063(5) 0.1422(3) 0.9150(3)
N5 N 1.0956(5) 0.1873(3) 0.9324(4)
N6 N 0.8660(4) 0.2910(3) 0.8094(5)
O1 O 0.8046(4) 0.0208(2) 0.7027(3)
O2 O 1.1128(4) 0.1535(3) 0.6214(3)
Cu1B Cu 0.69423(6) 0.28009(4) 0.82175(8)
N6B N 1.3660(4) 0.2090(3) 0.8094(5)
loop_
_geom_bond_atom_site_label_1
_geom_bond_atom_site_label_2
_geom_bond_site_symmetry_1
_geom_bond_site_symmetry_2
Cu1 S1 1_555 1_555
S1 C13 1_555 1_555
C1 N2 1_555 1_555
C2 N1 1_555 1_555
C3 N1 1_555 1_555
C4 H1 1_555 1_555
H2 C4 1_555 1_555
H3 C4 1_555 1_555
C5 C4 1_555 1_555
C6 C5 1_555 1_555
H4 C6 1_555 1_555
C7 C6 1_555 1_555
C8 C7 1_555 1_555
H5 C8 1_555 1_555
H6 C8 1_555 1_555
H7 C8 1_555 1_555
C9 H8 1_555 1_555
H9 C9 1_555 1_555
H10 C9 1_555 1_555
C10 C9 1_555 1_555
H11 C10 1_555 1_555
H12 C10 1_555 1_555
C11 H13 1_555 1_555
H14 C11 1_555 1_555
H15 C11 1_555 1_555
C12 C11 1_555 1_555
H16 C12 1_555 1_555
H17 C12 1_555 1_555
C13 N6 1_555 1_555
N1 Cu1 1_555 1_555
N2 C3 1_555 1_555
N3 C1 1_555 1_555
N4 C3 1_555 1_555
N5 Cu1 1_555 1_555
N6 Cu1B 1_555 1_555
O1 C1 1_555 1_555
O2 C2 1_555 1_555
N6B Cu1 1_555 1_555
C2 N3 1_555 1_555
C5 N4 1_555 1_555
C7 N5 1_555 1_555
C10 O1 1_555 1_555
C12 O2 1_555 1_555
N4 N5 1_555 1_555

#END
