
#######################################################################
#
#                 Cambridge Crystallographic Data Centre
#                                CCDC 
#
#######################################################################
#
# If this CIF has been generated from an entry in the Cambridge 
# Structural Database, then it will include bibliographic, chemical, 
# crystal, experimental, refinement or atomic coordinate data resulting 
# from the CCDC's data processing and validation procedures.
#
#######################################################################

data_HOVFEE
_symmetry_cell_setting           monoclinic
_symmetry_space_group_name_H-M   'P 21/n'
_symmetry_Int_Tables_number      14
_space_group_name_Hall           '-P 2yn'
loop_
_symmetry_equiv_pos_site_id
_symmetry_equiv_pos_as_xyz
1 x,y,z
2 1/2-x,1/2+y,1/2-z
3 -x,-y,-z
4 1/2+x,1/2-y,1/2+z
_cell_length_a                   10.772(4)
_cell_length_b                   14.381(5)
_cell_length_c                   14.801(6)
_cell_angle_alpha                90
_cell_angle_beta                 93.416(5)
_cell_angle_gamma                90
_cell_volume                     2288.78
loop_
_atom_site_label
_atom_site_type_symbol
_atom_site_fract_x
_atom_site_fract_y
_atom_site_fract_z
C1 C 0.9994(6) 0.8038(4) 0.0446(4)
C2 C 1.0006(6) 0.9059(4) 0.0217(4)
C3 C 1.0411(6) 0.9719(4) 0.0851(4)
H1 H 1.0686 0.9526 0.1429
C4 C 0.9585(6) 0.9352(4) -0.0646(4)
H2 H 0.9305 0.8920 -0.1079
O1 O 1.0399(4) 0.7808(3) 0.1231(3)
O2 O 0.9580(6) 0.7500(3) -0.0151(3)
H3 H 0.9614 0.6965 0.0040
Cl1 Cl 0.8780(4) 0.6011(4) 0.0691(3)
C5 C 1.0955(6) 0.7398(4) 0.3470(5)
H4 H 1.0817 0.7933 0.3125
C6 C 1.1255(7) 0.7493(5) 0.4381(5)
H5 H 1.1307 0.8080 0.4645
C7 C 1.1479(6) 0.6702(5) 0.4901(4)
H6 H 1.1695 0.6750 0.5517
C8 C 1.1374(5) 0.5834(4) 0.4487(4)
C9 C 1.1624(5) 0.4978(4) 0.4985(4)
C10 C 1.2213(5) 0.4232(4) 0.6298(4)
C11 C 1.2616(7) 0.4284(5) 0.7296(4)
H7 H 1.1894 0.4412 0.7636
H8 H 1.3191 0.4799 0.7391
C12 C 1.3242(7) 0.3392(5) 0.7667(5)
H9 H 1.4075 0.3347 0.7455
H10 H 1.3309 0.3415 0.8323
C13 C 1.2491(7) 0.2547(5) 0.7358(4)
H11 H 1.2880 0.1991 0.7616
H12 H 1.1662 0.2592 0.7575
C14 C 1.2403(7) 0.2469(5) 0.6337(4)
H13 H 1.3185 0.2229 0.6142
H14 H 1.1760 0.2021 0.6160
C15 C 1.2119(5) 0.3361(4) 0.5854(4)
C16 C 1.1539(5) 0.4122(4) 0.4544(4)
C17 C 1.1193(5) 0.4068(4) 0.3575(4)
C18 C 1.1132(6) 0.3238(4) 0.3102(4)
H15 H 1.1312 0.2680 0.3399
C19 C 1.0806(7) 0.3245(4) 0.2194(4)
H16 H 1.0783 0.2694 0.1864
C20 C 1.0512(6) 0.4081(5) 0.1774(4)
H17 H 1.0247 0.4076 0.1164
C21 C 1.0947(5) 0.4897(4) 0.3098(4)
C22 C 1.1052(5) 0.5797(4) 0.3557(4)
C23 C 1.2742(6) 0.5696(4) 0.0718(4)
C24 C 1.3907(5) 0.5327(4) 0.0345(4)
C25 C 1.4945(6) 0.5165(4) 0.0918(4)
H18 H 1.4915 0.5273 0.1535
C26 C 1.3966(6) 0.5161(4) -0.0570(4)
H19 H 1.3270 0.5268 -0.0958
N1 N 1.0593(5) 0.4894(3) 0.2204(3)
N2 N 1.0854(5) 0.6572(3) 0.3055(3)
N3 N 1.1773(5) 0.3306(3) 0.4981(3)
N4 N 1.1955(5) 0.5026(3) 0.5886(3)
O3 O 1.1716(4) 0.5586(3) 0.0272(3)
O4 O 1.2822(4) 0.6088(3) 0.1484(3)
Cd1 Cd 1.06661(4) 0.63220(3) 0.14706(3)
C1B C 1.0006(6) 1.1962(4) -0.0446(4)
C2B C 0.9994(6) 1.0941(4) -0.0217(4)
C3B C 0.9589(6) 1.0281(4) -0.0851(4)
H1B H 0.9314 1.0474 -0.1429
C4B C 1.0415(6) 1.0648(4) 0.0646(4)
H2B H 1.0695 1.1080 0.1079
O1B O 0.9601(4) 1.2192(3) -0.1231(3)
O2B O 1.0420(6) 1.2500(3) 0.0151(3)
H3B H 1.0386 1.3035 -0.0040
Cl1B Cl 1.1220(4) 1.3989(4) -0.0691(3)
C5B C 0.9045(6) 1.2602(4) -0.3470(5)
H4B H 0.9183 1.2067 -0.3125
C6B C 0.8745(7) 1.2507(5) -0.4381(5)
H5B H 0.8693 1.1920 -0.4645
C7B C 0.8521(6) 1.3298(5) -0.4901(4)
H6B H 0.8305 1.3250 -0.5517
C8B C 0.8626(5) 1.4166(4) -0.4487(4)
C9B C 0.8376(5) 1.5022(4) -0.4985(4)
C10B C 0.7787(5) 1.5768(4) -0.6298(4)
C11B C 0.7384(7) 1.5716(5) -0.7296(4)
H7B H 0.8106 1.5588 -0.7636
H8B H 0.6809 1.5201 -0.7391
C12B C 0.6758(7) 1.6608(5) -0.7667(5)
H9B H 0.5925 1.6653 -0.7455
H10B H 0.6691 1.6585 -0.8323
C13B C 0.7509(7) 1.7453(5) -0.7358(4)
H11B H 0.7120 1.8009 -0.7616
H12B H 0.8338 1.7408 -0.7575
C14B C 0.7597(7) 1.7531(5) -0.6337(4)
H13B H 0.6815 1.7771 -0.6142
H14B H 0.8240 1.7979 -0.6160
C15B C 0.7881(5) 1.6639(4) -0.5854(4)
C16B C 0.8461(5) 1.5878(4) -0.4544(4)
C17B C 0.8807(5) 1.5932(4) -0.3575(4)
C18B C 0.8868(6) 1.6762(4) -0.3102(4)
H15B H 0.8688 1.7320 -0.3399
C19B C 0.9194(7) 1.6755(4) -0.2194(4)
H16B H 0.9217 1.7306 -0.1864
C20B C 0.9488(6) 1.5919(5) -0.1774(4)
H17B H 0.9753 1.5924 -0.1164
C21B C 0.9053(5) 1.5103(4) -0.3098(4)
C22B C 0.8948(5) 1.4203(4) -0.3557(4)
C23B C 1.7258(6) 0.4304(4) -0.0718(4)
C24B C 1.6093(5) 0.4673(4) -0.0345(4)
C25B C 1.5055(6) 0.4835(4) -0.0918(4)
H18B H 1.5085 0.4727 -0.1535
C26B C 1.6034(6) 0.4839(4) 0.0570(4)
H19B H 1.6730 0.4732 0.0958
N1B N 0.9407(5) 1.5106(3) -0.2204(3)
N2B N 0.9146(5) 1.3428(3) -0.3055(3)
N3B N 0.8227(5) 1.6694(3) -0.4981(3)
N4B N 0.8045(5) 1.4974(3) -0.5886(3)
O3B O 1.8284(4) 0.4414(3) -0.0272(3)
O3B_2 O 0.8284(4) 1.4414(3) -0.0272(3)
O4B O 1.7178(4) 0.3912(3) -0.1484(3)
O4B_2 O 0.7178(4) 1.3912(3) -0.1484(3)
Cd1B Cd 0.93339(4) 1.36780(3) -0.14706(3)
Cd1B_2 Cd 1.93339(4) 0.36780(3) -0.14706(3)
loop_
_geom_bond_atom_site_label_1
_geom_bond_atom_site_label_2
_geom_bond_site_symmetry_1
_geom_bond_site_symmetry_2
C1 C2 1_555 1_555
C2 C3 1_555 1_555
C3 H1 1_555 1_555
C4 C2 1_555 1_555
H2 C4 1_555 1_555
O1 C1 1_555 1_555
O2 C1 1_555 1_555
H3 O2 1_555 1_555
Cl1 Cd1 1_555 1_555
C5 H4 1_555 1_555
C6 C5 1_555 1_555
H5 C6 1_555 1_555
C7 C6 1_555 1_555
H6 C7 1_555 1_555
C8 C7 1_555 1_555
C9 C8 1_555 1_555
C10 C11 1_555 1_555
C11 H7 1_555 1_555
H8 C11 1_555 1_555
C12 C11 1_555 1_555
H9 C12 1_555 1_555
H10 C12 1_555 1_555
C13 C12 1_555 1_555
H11 C13 1_555 1_555
H12 C13 1_555 1_555
C14 C13 1_555 1_555
H13 C14 1_555 1_555
H14 C14 1_555 1_555
C15 C10 1_555 1_555
C16 C9 1_555 1_555
C17 C16 1_555 1_555
C18 C17 1_555 1_555
H15 C18 1_555 1_555
C19 C18 1_555 1_555
H16 C19 1_555 1_555
C20 C19 1_555 1_555
H17 C20 1_555 1_555
C21 C17 1_555 1_555
C22 C8 1_555 1_555
C23 C24 1_555 1_555
C24 C25 1_555 1_555
C25 H18 1_555 1_555
C26 C24 1_555 1_555
H19 C26 1_555 1_555
N1 C20 1_555 1_555
N2 C5 1_555 1_555
N3 C15 1_555 1_555
N4 C9 1_555 1_555
O3 C23 1_555 1_555
O4 C23 1_555 1_555
Cd1 O1 1_555 1_555
C1B C2B 1_555 1_555
C2B C3B 1_555 1_555
C3B C4 1_555 1_555
H1B C3B 1_555 1_555
C4B C3 1_555 1_555
H2B C4B 1_555 1_555
O1B C1B 1_555 1_555
O2B C1B 1_555 1_555
H3B O2B 1_555 1_555
Cl1B Cd1B 1_555 1_555
C5B H4B 1_555 1_555
C6B C5B 1_555 1_555
H5B C6B 1_555 1_555
C7B C6B 1_555 1_555
H6B C7B 1_555 1_555
C8B C7B 1_555 1_555
C9B C8B 1_555 1_555
C10B C11B 1_555 1_555
C11B H7B 1_555 1_555
H8B C11B 1_555 1_555
C12B C11B 1_555 1_555
H9B C12B 1_555 1_555
H10B C12B 1_555 1_555
C13B C12B 1_555 1_555
H11B C13B 1_555 1_555
H12B C13B 1_555 1_555
C14B C13B 1_555 1_555
H13B C14B 1_555 1_555
H14B C14B 1_555 1_555
C15B C10B 1_555 1_555
C16B C9B 1_555 1_555
C17B C16B 1_555 1_555
C18B C17B 1_555 1_555
H15B C18B 1_555 1_555
C19B C18B 1_555 1_555
H16B C19B 1_555 1_555
C20B C19B 1_555 1_555
H17B C20B 1_555 1_555
C21B C17B 1_555 1_555
C22B C8B 1_555 1_555
C23B C24B 1_555 1_555
C24B C25B 1_555 1_555
C25B C26 1_555 1_555
H18B C25B 1_555 1_555
C26B C25 1_555 1_555
H19B C26B 1_555 1_555
N1B C20B 1_555 1_555
N2B C5B 1_555 1_555
N3B C15B 1_555 1_555
N4B C9B 1_555 1_555
O3B C23B 1_555 1_555
O3B_2 Cd1B 1_555 1_555
O4B C23B 1_555 1_555
O4B_2 Cd1B 1_555 1_555
Cd1B O1B 1_555 1_555
Cd1B_2 O3B 1_555 1_555
C10 N4 1_555 1_555
C14 C15 1_555 1_555
C16 N3 1_555 1_555
C21 C22 1_555 1_555
C21 N1 1_555 1_555
C22 N2 1_555 1_555
N1 Cd1 1_555 1_555
N2 Cd1 1_555 1_555
O3 Cd1 1_555 1_555
O4 Cd1 1_555 1_555
C2B C4B 1_555 1_555
C10B N4B 1_555 1_555
C14B C15B 1_555 1_555
C16B N3B 1_555 1_555
C21B C22B 1_555 1_555
C21B N1B 1_555 1_555
C22B N2B 1_555 1_555
C24B C26B 1_555 1_555
N1B Cd1B 1_555 1_555
N2B Cd1B 1_555 1_555
O4B Cd1B_2 1_555 1_555

#END
