
#######################################################################
#
#                 Cambridge Crystallographic Data Centre
#                                CCDC 
#
#######################################################################
#
# If this CIF has been generated from an entry in the Cambridge 
# Structural Database, then it will include bibliographic, chemical, 
# crystal, experimental, refinement or atomic coordinate data resulting 
# from the CCDC's data processing and validation procedures.
#
#######################################################################

data_HOVFOO01
_symmetry_cell_setting           orthorhombic
_symmetry_space_group_name_H-M   'P n n a'
_symmetry_Int_Tables_number      52
_space_group_name_Hall           '-P 2a 2bc'
loop_
_symmetry_equiv_pos_site_id
_symmetry_equiv_pos_as_xyz
1 x,y,z
2 1/2-x,-y,z
3 x,1/2-y,1/2-z
4 1/2-x,1/2+y,1/2-z
5 -x,-y,-z
6 1/2+x,y,-z
7 -x,1/2+y,1/2+z
8 1/2+x,1/2-y,1/2+z
_cell_length_a                   13.571(3)
_cell_length_b                   16.443(5)
_cell_length_c                   8.265(4)
_cell_angle_alpha                90
_cell_angle_beta                 90
_cell_angle_gamma                90
_cell_volume                     1844.32
loop_
_atom_site_label
_atom_site_type_symbol
_atom_site_fract_x
_atom_site_fract_y
_atom_site_fract_z
Cd1 Cd 0.76229(2) 0.2500 0.2500
O1 O 0.8112(3) 0.7092(3) 1.0183(5)
O2 O 0.8158(3) 0.6171(3) 1.2103(4)
N1 N 0.8805(2) 0.3196(2) 0.3842(4)
N2 N 0.9148(2) 0.3960(3) 0.5952(5)
C1 C 0.9608(3) 0.2877(3) 0.4634(5)
H1 H 0.9950 0.2414 0.4320
C2 C 0.9824(3) 0.3340(3) 0.5943(6)
H2 H 1.0328 0.3255 0.6685
C3 C 0.8553(3) 0.3857(3) 0.4660(5)
H3 H 0.8037 0.4202 0.4382
C4 C 0.9010(3) 0.4584(4) 0.7149(6)
C5 C 0.8985(3) 0.4360(4) 0.8768(6)
H4 H 0.9108 0.3826 0.9079
C6 C 0.8773(3) 0.4955(4) 0.9916(7)
H5 H 0.8751 0.4819 1.1008
C7 C 0.8596(3) 0.5747(4) 0.9442(7)
C8 C 0.8647(4) 0.5963(4) 0.7815(7)
H6 H 0.8539 0.6498 0.7499
C9 C 0.8864(4) 0.5368(4) 0.6665(7)
H7 H 0.8909 0.5505 0.5576
C10 C 0.8276(3) 0.6380(4) 1.0656(7)
Cd1A Cd 0.73771(2) 0.7500 1.2500
Cd1A_2 Cd 0.73771(2) -0.2500 1.2500
O1C O 0.6888(3) 0.2092(3) 0.4817(5)
O1A O 0.6888(3) 0.2908(3) 0.0183(5)
O2C O 0.6842(3) 0.1171(3) 0.2897(4)
O2A O 0.6842(3) 0.3829(3) 0.2103(4)
N1C N 0.6195(2) -0.1804(2) 1.1158(4)
N1B N 0.8805(2) 0.1804(2) 0.1158(4)
N2C N 0.5852(2) -0.1040(3) 0.9048(5)
C1C C 0.5392(3) -0.2123(3) 1.0366(5)
H1C H 0.5050 -0.2586 1.0680
C2C C 0.5176(3) -0.1660(3) 0.9057(6)
H2C H 0.4672 -0.1745 0.8315
C3C C 0.6447(3) -0.1143(3) 1.0340(5)
H3C H 0.6963 -0.0798 1.0618
C4C C 0.5990(3) -0.0416(4) 0.7851(6)
C5C C 0.6015(3) -0.0640(4) 0.6232(6)
H4C H 0.5892 -0.1174 0.5921
C6C C 0.6227(3) -0.0045(4) 0.5084(7)
H5C H 0.6249 -0.0181 0.3992
C7C C 0.6404(3) 0.0747(4) 0.5558(7)
C8C C 0.6353(4) 0.0963(4) 0.7185(7)
H6C H 0.6461 0.1498 0.7501
C9C C 0.6136(4) 0.0368(4) 0.8335(7)
H7C H 0.6091 0.0505 0.9424
C10C C 0.6724(3) 0.1380(4) 0.4344(7)
loop_
_geom_bond_atom_site_label_1
_geom_bond_atom_site_label_2
_geom_bond_site_symmetry_1
_geom_bond_site_symmetry_2
Cd1 N1 1_555 1_555
O1 C10 1_555 1_555
O2 C10 1_555 1_555
N1 C1 1_555 1_555
N2 C2 1_555 1_555
C1 H1 1_555 1_555
C2 C1 1_555 1_555
H2 C2 1_555 1_555
C3 N1 1_555 1_555
H3 C3 1_555 1_555
C4 N2 1_555 1_555
C5 C4 1_555 1_555
H4 C5 1_555 1_555
C6 C5 1_555 1_555
H5 C6 1_555 1_555
C7 C6 1_555 1_555
C8 C7 1_555 1_555
H6 C8 1_555 1_555
C9 C4 1_555 1_555
H7 C9 1_555 1_555
C10 C7 1_555 1_555
Cd1A O1 1_555 1_555
Cd1A_2 N1C 1_555 1_555
O1C Cd1 1_555 1_555
O1A Cd1 1_555 1_555
O2C Cd1 1_555 1_555
O2A Cd1 1_555 1_555
N1C C1C 1_555 1_555
N1B Cd1 1_555 1_555
N2C C2C 1_555 1_555
C1C H1C 1_555 1_555
C2C C1C 1_555 1_555
H2C C2C 1_555 1_555
C3C N1C 1_555 1_555
H3C C3C 1_555 1_555
C4C N2C 1_555 1_555
C5C C4C 1_555 1_555
H4C C5C 1_555 1_555
C6C C5C 1_555 1_555
H5C C6C 1_555 1_555
C7C C6C 1_555 1_555
C8C C7C 1_555 1_555
H6C C8C 1_555 1_555
C9C C4C 1_555 1_555
H7C C9C 1_555 1_555
C10C O1C 1_555 1_555
O2 Cd1A 1_555 1_555
N2 C3 1_555 1_555
C8 C9 1_555 1_555
O2C C10C 1_555 1_555
N2C C3C 1_555 1_555
C7C C10C 1_555 1_555
C8C C9C 1_555 1_555

#END
