
#######################################################################
#
#                 Cambridge Crystallographic Data Centre
#                                CCDC 
#
#######################################################################
#
# If this CIF has been generated from an entry in the Cambridge 
# Structural Database, then it will include bibliographic, chemical, 
# crystal, experimental, refinement or atomic coordinate data resulting 
# from the CCDC's data processing and validation procedures.
#
#######################################################################

data_HOVFAA
_symmetry_cell_setting           orthorhombic
_symmetry_space_group_name_H-M   'P 21 21 21'
_symmetry_Int_Tables_number      19
_space_group_name_Hall           'P 2ac 2ab'
loop_
_symmetry_equiv_pos_site_id
_symmetry_equiv_pos_as_xyz
1 x,y,z
2 1/2-x,-y,1/2+z
3 -x,1/2+y,1/2-z
4 1/2+x,1/2-y,-z
_cell_length_a                   13.9224(18)
_cell_length_b                   16.178(2)
_cell_length_c                   20.989(3)
_cell_angle_alpha                90
_cell_angle_beta                 90
_cell_angle_gamma                90
_cell_volume                     4727.49
loop_
_atom_site_label
_atom_site_type_symbol
_atom_site_fract_x
_atom_site_fract_y
_atom_site_fract_z
C1 C 0.7206(9) 0.5077(7) 0.0444(5)
H1 H 0.7234 0.4538 0.0596
C2 C 0.7229(9) 0.5212(8) -0.0185(7)
H2 H 0.7257 0.4763 -0.0462
C3 C 0.7210(9) 0.6018(8) -0.0437(6)
H3 H 0.7233 0.6108 -0.0874
C4 C 0.7157(8) 0.6673(6) -0.0013(5)
C5 C 0.7144(8) 0.7531(7) -0.0230(5)
C6 C 0.7142(10) 0.8466(8) -0.1044(6)
C7 C 0.7087(12) 0.8683(9) -0.1699(7)
H4 H 0.6455 0.8532 -0.1856
H5 H 0.7554 0.8355 -0.1932
C8 C 0.725(2) 0.9549(14) -0.1845(10)
H6 H 0.7879 0.9568 -0.2045
H7 H 0.6792 0.9684 -0.2177
C9 C 0.723(2) 1.0153(12) -0.1466(9)
H8 H 0.6639 1.0449 -0.1541
H9 H 0.7753 1.0521 -0.1586
C10 C 0.7312(11) 1.0010(8) -0.0758(8)
H10 H 0.6823 1.0334 -0.0543
H11 H 0.7934 1.0203 -0.0613
C11 C 0.7193(10) 0.9096(9) -0.0573(7)
C12 C 0.7129(8) 0.8165(6) 0.0219(6)
C13 C 0.7086(7) 0.7977(6) 0.0927(5)
C14 C 0.6979(8) 0.8586(6) 0.1370(6)
H12 H 0.6946 0.9138 0.1247
C15 C 0.6923(9) 0.8378(6) 0.1977(6)
H13 H 0.6851 0.8778 0.2292
C16 C 0.6972(9) 0.7553(6) 0.2132(5)
H14 H 0.6964 0.7414 0.2561
C17 C 0.7119(7) 0.7140(6) 0.1126(5)
C18 C 0.7140(8) 0.6491(5) 0.0644(5)
C19 C 0.4477(9) -0.1637(7) 0.2011(6)
H15 H 0.4405 -0.1472 0.2432
C20 C 0.4505(9) -0.2500(8) 0.1876(7)
H16 H 0.4495 -0.2883 0.2206
C21 C 0.4548(8) -0.2755(6) 0.1262(6)
H17 H 0.4546 -0.3316 0.1164
C22 C 0.4595(7) -0.2161(6) 0.0779(5)
C23 C 0.4651(7) -0.2373(7) 0.0109(5)
C24 C 0.4687(8) -0.3362(7) -0.0618(7)
C25 C 0.4686(10) -0.4271(7) -0.0831(7)
H18 H 0.4042 -0.4489 -0.0781
H19 H 0.5104 -0.4581 -0.0548
C26 C 0.5014(11) -0.4420(9) -0.1524(8)
H20 H 0.5707 -0.4366 -0.1544
H21 H 0.4854 -0.4984 -0.1642
C27 C 0.4581(13) -0.3852(10) -0.1996(8)
H22 H 0.3893 -0.3946 -0.2011
H23 H 0.4840 -0.3975 -0.2414
C28 C 0.4761(12) -0.2966(8) -0.1846(6)
H24 H 0.4296 -0.2634 -0.2076
H25 H 0.5393 -0.2820 -0.2005
C29 C 0.4707(8) -0.2733(8) -0.1118(6)
C30 C 0.4676(8) -0.1749(6) -0.0350(5)
C31 C 0.4701(8) -0.0888(6) -0.0170(5)
C32 C 0.4724(9) -0.0247(7) -0.0607(5)
H26 H 0.4748 -0.0362 -0.1041
C33 C 0.4711(12) 0.0545(8) -0.0403(6)
H27 H 0.4690 0.0981 -0.0691
C34 C 0.4729(11) 0.0689(7) 0.0242(5)
H28 H 0.4770 0.1233 0.0382
C35 C 0.4642(8) -0.0676(6) 0.0469(5)
C36 C 0.4586(8) -0.1315(6) 0.0954(6)
C37 C 0.6370(10) 0.1194(7) 0.1632(5)
C38 C 0.7282(9) 0.1667(6) 0.1604(5)
C39 C 0.8162(12) 0.1276(8) 0.1481(7)
H29 H 0.8171 0.0709 0.1409
C40 C 0.7303(8) 0.2510(6) 0.1715(5)
H30 H 0.6733 0.2785 0.1809
C41 C 0.8136(9) 0.2947(6) 0.1690(6)
C42 C 0.8987(14) 0.2536(9) 0.1588(8)
H31 H 0.9567 0.2821 0.1601
C43 C 0.8974(14) 0.1688(10) 0.1466(10)
H32 H 0.9544 0.1414 0.1372
C44 C 0.8161(12) 0.3846(8) 0.1819(6)
N1 N 0.7144(7) 0.5708(5) 0.0859(4)
N2 N 0.7029(6) 0.6958(5) 0.1725(4)
N3 N 0.7145(7) 0.7704(6) -0.0855(4)
N4 N 0.7199(7) 0.8953(5) 0.0039(5)
N5 N 0.4544(7) -0.1079(5) 0.1584(4)
N6 N 0.4691(7) 0.0107(5) 0.0669(4)
N7 N 0.4647(7) -0.3193(5) -0.0022(4)
N8 N 0.4669(7) -0.1937(6) -0.0970(5)
O1 O 0.6399(6) 0.0422(5) 0.1660(4)
O2 O 0.5589(6) 0.1563(5) 0.1640(4)
O3 O 0.8969(7) 0.4227(5) 0.1861(5)
O4 O 0.7389(6) 0.4192(4) 0.1883(5)
O5 O 0.8816(5) 0.5795(5) 0.2108(4)
H33 H 0.8906 0.6282 0.2306
H34 H 0.9095 0.5809 0.1722
Cd1 Cd 0.71332(6) 0.55468(4) 0.19856(4)
Cd2 Cd 0.47231(7) 0.03278(5) 0.17733(4)
Cl1 Cl 0.5268(2) 0.52768(18) 0.20126(14)
Cl2 Cl 0.7042(3) 0.5763(2) 0.32050(16)
Cd2B Cd 0.52769(7) 0.53278(5) 0.32267(4)
Cl1B Cl 0.4732(2) 0.02768(18) 0.29874(14)
Cl2B Cl 0.2958(3) 0.0763(2) 0.17950(16)
loop_
_geom_bond_atom_site_label_1
_geom_bond_atom_site_label_2
_geom_bond_site_symmetry_1
_geom_bond_site_symmetry_2
C1 H1 1_555 1_555
C2 C1 1_555 1_555
H2 C2 1_555 1_555
C3 C2 1_555 1_555
H3 C3 1_555 1_555
C4 C3 1_555 1_555
C5 C4 1_555 1_555
C6 C7 1_555 1_555
C7 H4 1_555 1_555
H5 C7 1_555 1_555
C8 C7 1_555 1_555
H6 C8 1_555 1_555
H7 C8 1_555 1_555
C9 C8 1_555 1_555
H8 C9 1_555 1_555
H9 C9 1_555 1_555
C10 C9 1_555 1_555
H10 C10 1_555 1_555
H11 C10 1_555 1_555
C11 C6 1_555 1_555
C12 C5 1_555 1_555
C13 C12 1_555 1_555
C14 C13 1_555 1_555
H12 C14 1_555 1_555
C15 C14 1_555 1_555
H13 C15 1_555 1_555
C16 C15 1_555 1_555
H14 C16 1_555 1_555
C17 C13 1_555 1_555
C18 C4 1_555 1_555
C19 H15 1_555 1_555
C20 C19 1_555 1_555
H16 C20 1_555 1_555
C21 C20 1_555 1_555
H17 C21 1_555 1_555
C22 C21 1_555 1_555
C23 C22 1_555 1_555
C24 C25 1_555 1_555
C25 H18 1_555 1_555
H19 C25 1_555 1_555
C26 C25 1_555 1_555
H20 C26 1_555 1_555
H21 C26 1_555 1_555
C27 C26 1_555 1_555
H22 C27 1_555 1_555
H23 C27 1_555 1_555
C28 C27 1_555 1_555
H24 C28 1_555 1_555
H25 C28 1_555 1_555
C29 C24 1_555 1_555
C30 C23 1_555 1_555
C31 C30 1_555 1_555
C32 C31 1_555 1_555
H26 C32 1_555 1_555
C33 C32 1_555 1_555
H27 C33 1_555 1_555
C34 C33 1_555 1_555
H28 C34 1_555 1_555
C35 C31 1_555 1_555
C36 C22 1_555 1_555
C37 C38 1_555 1_555
C38 C39 1_555 1_555
C39 H29 1_555 1_555
C40 C38 1_555 1_555
H30 C40 1_555 1_555
C41 C40 1_555 1_555
C42 C41 1_555 1_555
H31 C42 1_555 1_555
C43 C39 1_555 1_555
H32 C43 1_555 1_555
C44 C41 1_555 1_555
N1 C1 1_555 1_555
N2 C16 1_555 1_555
N3 C5 1_555 1_555
N4 C11 1_555 1_555
N5 C19 1_555 1_555
N6 C34 1_555 1_555
N7 C23 1_555 1_555
N8 C29 1_555 1_555
O1 C37 1_555 1_555
O2 C37 1_555 1_555
O3 C44 1_555 1_555
O4 C44 1_555 1_555
O5 H33 1_555 1_555
H34 O5 1_555 1_555
Cd1 N1 1_555 1_555
Cd2 N5 1_555 1_555
Cl1 Cd1 1_555 1_555
Cl2 Cd1 1_555 1_555
Cd2B Cl1 1_555 1_555
Cl1B Cd2 1_555 1_555
Cl2B Cd2 1_555 1_555
C6 N3 1_555 1_555
C10 C11 1_555 1_555
C12 N4 1_555 1_555
C17 C18 1_555 1_555
C17 N2 1_555 1_555
C18 N1 1_555 1_555
C24 N7 1_555 1_555
C28 C29 1_555 1_555
C30 N8 1_555 1_555
C35 C36 1_555 1_555
C35 N6 1_555 1_555
C36 N5 1_555 1_555
C42 C43 1_555 1_555
N2 Cd1 1_555 1_555
N6 Cd2 1_555 1_555
O1 Cd2 1_555 1_555
O2 Cd2 1_555 1_555
O4 Cd1 1_555 1_555
O5 Cd1 1_555 1_555
Cl2 Cd2B 1_555 1_555

#END
