
#######################################################################
#
#                 Cambridge Crystallographic Data Centre
#                                CCDC 
#
#######################################################################
#
# If this CIF has been generated from an entry in the Cambridge 
# Structural Database, then it will include bibliographic, chemical, 
# crystal, experimental, refinement or atomic coordinate data resulting 
# from the CCDC's data processing and validation procedures.
#
#######################################################################

data_HOVFOO
_symmetry_cell_setting           orthorhombic
_symmetry_space_group_name_H-M   'P n n a'
_symmetry_Int_Tables_number      52
_space_group_name_Hall           '-P 2a 2bc'
loop_
_symmetry_equiv_pos_site_id
_symmetry_equiv_pos_as_xyz
1 x,y,z
2 1/2-x,-y,z
3 1/2-x,1/2+y,1/2-z
4 x,1/2-y,1/2-z
5 -x,-y,-z
6 1/2+x,y,-z
7 1/2+x,1/2-y,1/2+z
8 -x,1/2+y,1/2+z
_cell_length_a                   13.8052(6)
_cell_length_b                   16.5126(10)
_cell_length_c                   8.2158(12)
_cell_angle_alpha                90
_cell_angle_beta                 90
_cell_angle_gamma                90
_cell_volume                     1872.87
loop_
_atom_site_label
_atom_site_type_symbol
_atom_site_fract_x
_atom_site_fract_y
_atom_site_fract_z
C1 C 0.8297(2) 0.6371(2) -0.0671(5)
C2 C 0.8606(2) 0.5745(2) 0.0545(4)
C3 C 0.8674(3) 0.5951(2) 0.2163(4)
H1 H 0.8594 0.6488 0.2481
C4 C 0.8863(2) 0.5359(2) 0.3325(4)
H2 H 0.8896 0.5496 0.4422
C5 C 0.8998(2) 0.4581(2) 0.2846(4)
C6 C 0.8964(2) 0.4368(2) 0.1218(4)
H3 H 0.9073 0.3835 0.0898
C7 C 0.8766(2) 0.4962(2) 0.0073(4)
H4 H 0.8741 0.4826 -0.1025
C8 C 0.8516(2) 0.38368(19) 0.5303(4)
H5 H 0.7997 0.4172 0.5562
C9 C 0.9562(2) 0.28825(19) 0.5357(3)
H6 H 0.9901 0.2423 0.5682
C10 C 0.9788(2) 0.33475(18) 0.4073(4)
H7 H 1.0298 0.3269 0.3352
Cd1 Cd 0.73993(2) 0.7500 -0.2500
N1 N 0.91212(18) 0.39579(15) 0.4034(3)
N2 N 0.87564(18) 0.31871(14) 0.6119(3)
O1 O 0.8168(2) 0.61729(18) -0.2123(3)
O2 O 0.8144(2) 0.70747(17) -0.0190(3)
C1A C 0.6703(2) 0.3629(2) -1.0671(5)
C2A C 0.6394(2) 0.4255(2) -0.9455(4)
C3A C 0.6326(3) 0.4049(2) -0.7837(4)
H1A H 0.6406 0.3512 -0.7519
C4A C 0.6137(2) 0.4641(2) -0.6675(4)
H2A H 0.6104 0.4504 -0.5578
C5A C 0.6002(2) 0.5419(2) -0.7154(4)
C6A C 0.6036(2) 0.5632(2) -0.8782(4)
H3A H 0.5927 0.6165 -0.9102
C7A C 0.6234(2) 0.5038(2) -0.9927(4)
H4A H 0.6259 0.5174 -1.1025
C8A C 0.6484(2) 0.61632(19) -0.4697(4)
H5A H 0.7003 0.5828 -0.4438
C9A C 0.5438(2) 0.71175(19) -0.4643(3)
H6A H 0.5099 0.7577 -0.4318
C10A C 0.5212(2) 0.66525(18) -0.5927(4)
H7A H 0.4702 0.6731 -0.6648
Cd1A Cd 0.76007(2) 0.2500 0.7500
Cd1A_2 Cd 0.76007(2) 0.2500 -1.2500
N1A N 0.58788(18) 0.60421(15) -0.5966(3)
N2A N 0.62436(18) 0.68129(14) -0.3881(3)
N2B N 0.62436(18) 0.81871(14) -0.1119(3)
O1A O 0.6832(2) 0.38271(18) -1.2123(3)
O1C O 0.8168(2) 0.88271(18) -0.2877(3)
O2A O 0.6856(2) 0.29253(17) -1.0190(3)
O2C O 0.8144(2) 0.79253(17) -0.4810(3)
loop_
_geom_bond_atom_site_label_1
_geom_bond_atom_site_label_2
_geom_bond_site_symmetry_1
_geom_bond_site_symmetry_2
C1 C2 1_555 1_555
C2 C3 1_555 1_555
C3 H1 1_555 1_555
C4 C3 1_555 1_555
H2 C4 1_555 1_555
C5 C4 1_555 1_555
C6 C5 1_555 1_555
H3 C6 1_555 1_555
C7 C2 1_555 1_555
H4 C7 1_555 1_555
C8 H5 1_555 1_555
C9 H6 1_555 1_555
C10 C9 1_555 1_555
H7 C10 1_555 1_555
Cd1 O1 1_555 1_555
N1 C5 1_555 1_555
N2 C8 1_555 1_555
O1 C1 1_555 1_555
O2 C1 1_555 1_555
C1A C2A 1_555 1_555
C2A C3A 1_555 1_555
C3A H1A 1_555 1_555
C4A C3A 1_555 1_555
H2A C4A 1_555 1_555
C5A C4A 1_555 1_555
C6A C5A 1_555 1_555
H3A C6A 1_555 1_555
C7A C2A 1_555 1_555
H4A C7A 1_555 1_555
C8A H5A 1_555 1_555
C9A H6A 1_555 1_555
C10A C9A 1_555 1_555
H7A C10A 1_555 1_555
Cd1A N2 1_555 1_555
Cd1A_2 O1A 1_555 1_555
N1A C5A 1_555 1_555
N2A Cd1 1_555 1_555
N2B Cd1 1_555 1_555
O1A C1A 1_555 1_555
O1C Cd1 1_555 1_555
O2A C1A 1_555 1_555
O2C Cd1 1_555 1_555
C6 C7 1_555 1_555
C8 N1 1_555 1_555
C9 N2 1_555 1_555
C10 N1 1_555 1_555
Cd1 O2 1_555 1_555
C6A C7A 1_555 1_555
C8A N1A 1_555 1_555
C8A N2A 1_555 1_555
C9A N2A 1_555 1_555
C10A N1A 1_555 1_555
Cd1A_2 O2A 1_555 1_555

#END
