
#######################################################################
#
#                 Cambridge Crystallographic Data Centre
#                                CCDC 
#
#######################################################################
#
# If this CIF has been generated from an entry in the Cambridge 
# Structural Database, then it will include bibliographic, chemical, 
# crystal, experimental, refinement or atomic coordinate data resulting 
# from the CCDC's data processing and validation procedures.
#
#######################################################################

data_HOVQEQ
_symmetry_cell_setting           monoclinic
_symmetry_space_group_name_H-M   'P 21/c'
_symmetry_Int_Tables_number      14
_space_group_name_Hall           '-P 2ybc'
loop_
_symmetry_equiv_pos_site_id
_symmetry_equiv_pos_as_xyz
1 x,y,z
2 -x,1/2+y,1/2-z
3 -x,-y,-z
4 x,1/2-y,1/2+z
_cell_length_a                   13.865(3)
_cell_length_b                   7.7255(14)
_cell_length_c                   23.825(5)
_cell_angle_alpha                90
_cell_angle_beta                 125.542(7)
_cell_angle_gamma                90
_cell_volume                     2076.53
loop_
_atom_site_label
_atom_site_type_symbol
_atom_site_fract_x
_atom_site_fract_y
_atom_site_fract_z
Cl1 Cl 0.72221(7) 0.88942(13) 0.26336(4)
O2 O 0.7847(3) 0.8353(4) 0.33179(14)
O3 O 0.7922(3) 0.8703(6) 0.23868(19)
O4 O 0.6193(2) 0.7823(4) 0.22304(16)
O5 O 0.6914(3) 1.0639(4) 0.2602(2)
O6 O 0.5256(3) 0.3308(4) 0.22196(16)
H18 H 0.580(3) 0.259(5) 0.236(2)
H19 H 0.483(4) 0.310(7) 0.235(2)
Co1 Co 1.0000 0.5000 0.5000
O1 O 1.00352(17) 0.2547(3) 0.53871(11)
H1 H 1.062(2) 0.207(4) 0.5700(15)
H2 H 0.943(2) 0.205(4) 0.5282(17)
N1 N 0.9108(2) 0.3285(3) 0.30231(12)
N2 N 0.95903(19) 0.3800(3) 0.40732(12)
N3 N 0.7955(2) 0.4008(4) -0.00415(13)
N4 N 0.6320(3) 0.5304(4) -0.08603(16)
H3 H 0.5772 0.5742 -0.1267
N5 N 0.6555(2) 0.5005(3) 0.45843(15)
N6 N 0.8151(2) 0.5152(3) 0.45826(14)
N7 N 0.6224(2) 0.4657(4) 0.39363(16)
C1 C 0.8636(3) 0.3547(4) 0.23126(15)
C2 C 0.7639(3) 0.4567(5) 0.19001(18)
H4 H 0.7245 0.5051 0.2082
C3 C 0.7219(3) 0.4879(4) 0.12195(18)
H5 H 0.6553 0.5615 0.0944
C4 C 0.7754(3) 0.4135(4) 0.09331(15)
C5 C 0.8733(3) 0.3090(4) 0.13529(16)
H6 H 0.9105 0.2554 0.1166
C6 C 0.9185(3) 0.2805(4) 0.20398(16)
H7 H 0.9869 0.2104 0.2321
C7 C 0.9091(3) 0.4450(4) 0.34473(15)
H8 H 0.8763 0.5581 0.3312
C8 C 0.9932(3) 0.2149(4) 0.40419(17)
H9 H 1.0312 0.1349 0.4414
C9 C 0.9647(3) 0.1833(4) 0.34031(17)
H10 H 0.9794 0.0798 0.3250
C10 C 0.7319(3) 0.4490(4) 0.02178(17)
C11 C 0.6297(3) 0.5297(5) -0.02933(19)
H11 H 0.5695 0.5758 -0.0261
C12 C 0.7325(3) 0.4528(5) -0.06873(19)
H12 H 0.7551 0.4375 -0.0992
C13 C 0.5758(3) 0.5005(4) 0.47956(17)
C14 C 0.6188(3) 0.5092(7) 0.5471(2)
H13 H 0.7020 0.5156 0.5811
C15 C 0.5432(3) 0.5090(7) 0.5677(2)
H14 H 0.5754 0.5156 0.6154
C16 C 0.7734(2) 0.5300(4) 0.49671(17)
H15 H 0.8205 0.5575 0.5445
C17 C 0.7207(3) 0.4782(5) 0.39482(18)
H16 H 0.7224 0.4628 0.3558
H17 H 0.5448 0.4378 0.3548
N5B N 0.3445(2) 0.4995(3) 0.54157(15)
N6B N 0.1849(2) 0.4848(3) 0.54174(14)
N7B N 0.3776(2) 0.5343(4) 0.60637(16)
C13B C 0.4242(3) 0.4995(4) 0.52044(17)
C14B C 0.3812(3) 0.4908(7) 0.4529(2)
H13B H 0.2980 0.4844 0.4189
C15B C 0.4568(3) 0.4910(7) 0.4323(2)
H14B H 0.4246 0.4844 0.3846
C16B C 0.2266(2) 0.4700(4) 0.50329(17)
H15B H 0.1795 0.4425 0.4555
C17B C 0.2793(3) 0.5218(5) 0.60518(18)
H16B H 0.2776 0.5372 0.6442
H17B H 0.4552 0.5622 0.6452
N1B N 1.0892(2) 0.6715(3) 0.69769(12)
N2B N 1.04097(19) 0.6200(3) 0.59268(12)
N3B N 1.2045(2) 0.5992(4) 1.00415(13)
N4B N 1.3680(3) 0.4696(4) 1.08603(16)
H3B H 1.4228 0.4258 1.1267
C1B C 1.1364(3) 0.6453(4) 0.76874(15)
C2B C 1.2361(3) 0.5433(5) 0.80999(18)
H4B H 1.2755 0.4949 0.7918
C3B C 1.2781(3) 0.5121(4) 0.87805(18)
H5B H 1.3447 0.4385 0.9056
C4B C 1.2246(3) 0.5865(4) 0.90669(15)
C5B C 1.1267(3) 0.6910(4) 0.86471(16)
H6B H 1.0895 0.7446 0.8834
C6B C 1.0815(3) 0.7195(4) 0.79602(16)
H7B H 1.0131 0.7896 0.7679
C7B C 1.0909(3) 0.5550(4) 0.65527(15)
H8B H 1.1237 0.4419 0.6688
C8B C 1.0068(3) 0.7851(4) 0.59581(17)
H9B H 0.9688 0.8651 0.5586
C9B C 1.0353(3) 0.8167(4) 0.65969(17)
H10B H 1.0206 0.9202 0.6750
C10B C 1.2681(3) 0.5510(4) 0.97822(17)
C11B C 1.3703(3) 0.4703(5) 1.02933(19)
H11B H 1.4305 0.4242 1.0261
C12B C 1.2675(3) 0.5472(5) 1.06873(19)
H12B H 1.2449 0.5625 1.0992
O1B O 0.99648(17) 0.7453(3) 0.46129(11)
H1B H 0.938(2) 0.793(4) 0.4300(15)
H2B H 1.057(2) 0.795(4) 0.4718(17)
Co1_2 Co 0.0000 0.5000 0.5000
N6B_2 N 1.1849(2) 0.4848(3) 0.54174(14)
C18? C 0.6224(2) 0.4657(4) 0.39363(16)
C19? C 0.6555(2) 0.5005(3) 0.45843(15)
loop_
_geom_bond_atom_site_label_1
_geom_bond_atom_site_label_2
_geom_bond_site_symmetry_1
_geom_bond_site_symmetry_2
Co1 O1 1_555 1_555
O1 H1 1_555 1_555
H2 O1 1_555 1_555
N1 C1 1_555 1_555
N2 Co1 1_555 1_555
N3 C10 1_555 1_555
N4 H3 1_555 1_555
N5 N7 1_555 1_555
N6 Co1 1_555 1_555
N7 C17 1_555 1_555
C1 C2 1_555 1_555
C2 H4 1_555 1_555
C3 C2 1_555 1_555
H5 C3 1_555 1_555
C4 C3 1_555 1_555
C5 C4 1_555 1_555
H6 C5 1_555 1_555
C6 C1 1_555 1_555
H7 C6 1_555 1_555
C7 N1 1_555 1_555
H8 C7 1_555 1_555
C8 N2 1_555 1_555
H9 C8 1_555 1_555
C9 N1 1_555 1_555
H10 C9 1_555 1_555
C10 C4 1_555 1_555
C11 N4 1_555 1_555
H11 C11 1_555 1_555
C12 N3 1_555 1_555
H12 C12 1_555 1_555
C13 N5 1_555 1_555
C14 C13 1_555 1_555
H13 C14 1_555 1_555
C15 C14 1_555 1_555
H14 C15 1_555 1_555
C16 N5 1_555 1_555
H15 C16 1_555 1_555
C17 N6 1_555 1_555
H16 C17 1_555 1_555
H17 N7 1_555 1_555
Cl1 O2 1_555 1_555
O3 Cl1 1_555 1_555
O4 Cl1 1_555 1_555
O5 Cl1 1_555 1_555
O6 H18 1_555 1_555
H19 O6 1_555 1_555
N5B N7B 1_555 1_555
N6B C16B 1_555 1_555
N7B C17B 1_555 1_555
C13B C15 1_555 1_555
C14B C13B 1_555 1_555
H13B C14B 1_555 1_555
C15B C13 1_555 1_555
H14B C15B 1_555 1_555
C16B N5B 1_555 1_555
H15B C16B 1_555 1_555
C17B N6B 1_555 1_555
H16B C17B 1_555 1_555
H17B N7B 1_555 1_555
N1B C1B 1_555 1_555
N2B Co1 1_555 1_555
N3B C10B 1_555 1_555
N4B H3B 1_555 1_555
C1B C2B 1_555 1_555
C2B H4B 1_555 1_555
C3B C2B 1_555 1_555
H5B C3B 1_555 1_555
C4B C3B 1_555 1_555
C5B C4B 1_555 1_555
H6B C5B 1_555 1_555
C6B C1B 1_555 1_555
H7B C6B 1_555 1_555
C7B N1B 1_555 1_555
H8B C7B 1_555 1_555
C8B N2B 1_555 1_555
H9B C8B 1_555 1_555
C9B N1B 1_555 1_555
H10B C9B 1_555 1_555
C10B C4B 1_555 1_555
C11B N4B 1_555 1_555
H11B C11B 1_555 1_555
C12B N3B 1_555 1_555
H12B C12B 1_555 1_555
O1B Co1 1_555 1_555
H1B O1B 1_555 1_555
H2B O1B 1_555 1_555
Co1_2 N6B 1_555 1_555
N6B_2 Co1 1_555 1_555
N2 C7 1_555 1_555
N4 C12 1_555 1_555
N6 C16 1_555 1_555
C5 C6 1_555 1_555
C8 C9 1_555 1_555
C10 C11 1_555 1_555
N5B C13B 1_555 1_555
C14B C15B 1_555 1_555
N2B C7B 1_555 1_555
N4B C12B 1_555 1_555
C5B C6B 1_555 1_555
C8B C9B 1_555 1_555
C10B C11B 1_555 1_555

#END
