
#######################################################################
#
#                 Cambridge Crystallographic Data Centre
#                                CCDC 
#
#######################################################################
#
# If this CIF has been generated from an entry in the Cambridge 
# Structural Database, then it will include bibliographic, chemical, 
# crystal, experimental, refinement or atomic coordinate data resulting 
# from the CCDC's data processing and validation procedures.
#
#######################################################################

data_HOVQUG
_symmetry_cell_setting           orthorhombic
_symmetry_space_group_name_H-M   'F d d d'
_symmetry_Int_Tables_number      70
_space_group_name_Hall           '-F 2uv 2vw'
loop_
_symmetry_equiv_pos_site_id
_symmetry_equiv_pos_as_xyz
1 x,y,z
2 3/4-x,3/4-y,z
3 3/4-x,y,3/4-z
4 x,3/4-y,3/4-z
5 x,1/2+y,1/2+z
6 3/4-x,1/4-y,1/2+z
7 3/4-x,1/2+y,1/4-z
8 x,1/4-y,1/4-z
9 1/2+x,y,1/2+z
10 1/4-x,3/4-y,1/2+z
11 1/4-x,y,1/4-z
12 1/2+x,3/4-y,1/4-z
13 1/2+x,1/2+y,z
14 1/4-x,1/4-y,z
15 1/4-x,1/2+y,3/4-z
16 1/2+x,1/4-y,3/4-z
17 -x,-y,-z
18 1/4+x,1/4+y,-z
19 1/4+x,-y,1/4+z
20 -x,1/4+y,1/4+z
21 -x,1/2-y,1/2-z
22 1/4+x,3/4+y,1/2-z
23 1/4+x,1/2-y,3/4+z
24 -x,3/4+y,3/4+z
25 1/2-x,-y,1/2-z
26 3/4+x,1/4+y,1/2-z
27 3/4+x,-y,3/4+z
28 1/2-x,1/4+y,3/4+z
29 1/2-x,1/2-y,-z
30 3/4+x,3/4+y,-z
31 3/4+x,1/2-y,1/4+z
32 1/2-x,3/4+y,1/4+z
_cell_length_a                   16.366(3)
_cell_length_b                   38.437(8)
_cell_length_c                   17.626(4)
_cell_angle_alpha                90
_cell_angle_beta                 90
_cell_angle_gamma                90
_cell_volume                     11087.8
loop_
_atom_site_label
_atom_site_type_symbol
_atom_site_fract_x
_atom_site_fract_y
_atom_site_fract_z
Cu1 Cu 0.00915(3) 0.003151(12) 0.19181(3)
Cu2 Cu 0.1250 0.1250 0.1250
O1 O -0.0544(10) -0.0498(8) 0.2477(17)
O2 O 0.1967(2) -0.05859(8) 0.4774(2)
O3 O 0.0938(2) -0.08993(9) 0.4349(2)
N1 N 0.0850(2) -0.00654(8) 0.27172(19)
N2 N 0.17995(18) -0.01005(7) 0.36323(17)
N3 N 0.1862(2) 0.09216(8) 0.19770(19)
C1 C 0.1513(2) 0.00851(9) 0.30314(19)
C2 C 0.0708(2) -0.03582(9) 0.3130(2)
C3 C 0.1290(2) -0.03801(9) 0.3691(2)
C4 C 0.1541(2) 0.06202(9) 0.2229(2)
H1 H 0.1048 0.0548 0.2020
C5 C 0.1894(2) 0.04108(9) 0.2776(2)
C6 C 0.2638(3) 0.05215(12) 0.3066(3)
H2 H 0.2908 0.0389 0.3429
C7 C 0.2975(3) 0.08285(13) 0.2815(3)
H3 H 0.3474 0.0903 0.3006
C8 C 0.2570(3) 0.10241(11) 0.2281(3)
H4 H 0.2796 0.1234 0.2127
C9 C 0.0029(3) -0.05938(13) 0.2929(4)
C10 C 0.1420(3) -0.06342(11) 0.4313(2)
H5 H -0.029(4) -0.0731(17) 0.393(4)
O4 O -0.0160(12) -0.0831(5) 0.3469(10)
Cu1G Cu 0.00915(3) 0.246849(12) 0.05819(3)
O1G O -0.0544(10) 0.2998(8) 0.0023(17)
O2G O 0.1967(2) 0.30859(8) -0.2274(2)
O3G O 0.0938(2) 0.33993(9) -0.1849(2)
N1G N 0.0850(2) 0.25654(8) -0.02172(19)
N2G N 0.17995(18) 0.26005(7) -0.11323(17)
N3G N 0.1862(2) 0.15784(8) 0.05230(19)
C1G C 0.1513(2) 0.24149(9) -0.05314(19)
C2G C 0.0708(2) 0.28582(9) -0.0630(2)
C3G C 0.1290(2) 0.28801(9) -0.1191(2)
C4G C 0.1541(2) 0.18798(9) 0.0271(2)
H1G H 0.1048 0.1952 0.0480
C5G C 0.1894(2) 0.20892(9) -0.0276(2)
C6G C 0.2638(3) 0.19785(12) -0.0566(3)
H2G H 0.2908 0.2111 -0.0929
C7G C 0.2975(3) 0.16715(13) -0.0315(3)
H3G H 0.3474 0.1597 -0.0506
C8G C 0.2570(3) 0.14759(11) 0.0219(3)
H4G H 0.2796 0.1266 0.0373
C9G C 0.0029(3) 0.30938(13) -0.0429(4)
C10G C 0.1420(3) 0.31342(11) -0.1813(2)
H5G H -0.029(4) 0.3231(17) -0.143(4)
O4G O -0.0160(12) 0.3331(5) -0.0969(10)
Cu1J Cu 0.24085(3) 0.003151(12) 0.05819(3)
O1J O 0.3044(10) -0.0498(8) 0.0023(17)
O2J O 0.0533(2) -0.05859(8) -0.2274(2)
O3J O 0.1562(2) -0.08993(9) -0.1849(2)
N1J N 0.1650(2) -0.00654(8) -0.02172(19)
N2J N 0.07005(18) -0.01005(7) -0.11323(17)
N3J N 0.0638(2) 0.09216(8) 0.05230(19)
C1J C 0.0987(2) 0.00851(9) -0.05314(19)
C2J C 0.1792(2) -0.03582(9) -0.0630(2)
C3J C 0.1210(2) -0.03801(9) -0.1191(2)
C4J C 0.0959(2) 0.06202(9) 0.0271(2)
H1J H 0.1452 0.0548 0.0480
C5J C 0.0606(2) 0.04108(9) -0.0276(2)
C6J C -0.0138(3) 0.05215(12) -0.0566(3)
H2J H -0.0408 0.0389 -0.0929
C7J C -0.0475(3) 0.08285(13) -0.0315(3)
H3J H -0.0974 0.0903 -0.0506
C8J C -0.0070(3) 0.10241(11) 0.0219(3)
H4J H -0.0296 0.1234 0.0373
C9J C 0.2471(3) -0.05938(13) -0.0429(4)
C10J C 0.1080(3) -0.06342(11) -0.1813(2)
H5J H 0.279(4) -0.0731(17) -0.143(4)
O4J O 0.2660(12) -0.0831(5) -0.0969(10)
Cu1M Cu 0.24085(3) 0.246849(12) 0.19181(3)
O1M O 0.3044(10) 0.2998(8) 0.2477(17)
O2M O 0.0533(2) 0.30859(8) 0.4774(2)
O3M O 0.1562(2) 0.33993(9) 0.4349(2)
N1M N 0.1650(2) 0.25654(8) 0.27172(19)
N2M N 0.07005(18) 0.26005(7) 0.36323(17)
N3M N 0.0638(2) 0.15784(8) 0.19770(19)
C1M C 0.0987(2) 0.24149(9) 0.30314(19)
C2M C 0.1792(2) 0.28582(9) 0.3130(2)
C3M C 0.1210(2) 0.28801(9) 0.3691(2)
C4M C 0.0959(2) 0.18798(9) 0.2229(2)
H1M H 0.1452 0.1952 0.2020
C5M C 0.0606(2) 0.20892(9) 0.2776(2)
C6M C -0.0138(3) 0.19785(12) 0.3066(3)
H2M H -0.0408 0.2111 0.3429
C7M C -0.0475(3) 0.16715(13) 0.2815(3)
H3M H -0.0974 0.1597 0.3006
C8M C -0.0070(3) 0.14759(11) 0.2281(3)
H4M H -0.0296 0.1266 0.2127
C9M C 0.2471(3) 0.30938(13) 0.2929(4)
C10M C 0.1080(3) 0.31342(11) 0.4313(2)
H5M H 0.279(4) 0.3231(17) 0.393(4)
O4M O 0.2660(12) 0.3331(5) 0.3469(10)
Cu1P Cu -0.00915(3) -0.003151(12) -0.19181(3)
Cu1Q Cu 0.25915(3) 0.253151(12) -0.19181(3)
Cu1R Cu 0.25915(3) -0.003151(12) 0.44181(3)
Cu1S Cu -0.00915(3) 0.253151(12) 0.44181(3)
O2X O 0.3033(2) 0.05859(8) 0.0226(2)
O2Y O -0.0533(2) 0.19141(8) 0.0226(2)
O2Z O -0.0533(2) 0.05859(8) 0.2274(2)
O2AA O 0.3033(2) 0.19141(8) 0.2274(2)
N2X N 0.32005(18) 0.01005(7) 0.13677(17)
N2Y N -0.07005(18) 0.23995(7) 0.13677(17)
N2Z N -0.07005(18) 0.01005(7) 0.11323(17)
N2AA N 0.32005(18) 0.23995(7) 0.11323(17)
N4 N -0.1250 -0.1250 0.2433(18)
O5? O -0.0276(10) -0.0548(7) 0.2303(16)
N5? N -0.087(2) -0.1384(7) 0.225(2)
N6? N -0.057(2) -0.1450(8) 0.1783(18)
O6? O -0.0004(11) -0.0897(4) 0.3222(8)
loop_
_geom_bond_atom_site_label_1
_geom_bond_atom_site_label_2
_geom_bond_site_symmetry_1
_geom_bond_site_symmetry_2
Cu1 O1 1_555 1_555
Cu2 N3 1_555 1_555
O1 C9 1_555 1_555
O2 C10 1_555 1_555
O3 C10 1_555 1_555
N1 Cu1 1_555 1_555
N2 C1 1_555 1_555
N3 C4 1_555 1_555
C1 N1 1_555 1_555
C2 N1 1_555 1_555
C3 N2 1_555 1_555
C4 H1 1_555 1_555
C5 C1 1_555 1_555
C6 C5 1_555 1_555
H2 C6 1_555 1_555
C7 C6 1_555 1_555
H3 C7 1_555 1_555
C8 N3 1_555 1_555
H4 C8 1_555 1_555
C9 C2 1_555 1_555
C10 C3 1_555 1_555
H5 O4 1_555 1_555
O4 C9 1_555 1_555
Cu1G O1G 1_555 1_555
O1G C9G 1_555 1_555
O2G C10G 1_555 1_555
O3G C10G 1_555 1_555
N1G Cu1G 1_555 1_555
N2G C1G 1_555 1_555
N3G Cu2 1_555 1_555
C1G N1G 1_555 1_555
C2G N1G 1_555 1_555
C3G N2G 1_555 1_555
C4G N3G 1_555 1_555
H1G C4G 1_555 1_555
C5G C1G 1_555 1_555
C6G C5G 1_555 1_555
H2G C6G 1_555 1_555
C7G C6G 1_555 1_555
H3G C7G 1_555 1_555
C8G N3G 1_555 1_555
H4G C8G 1_555 1_555
C9G C2G 1_555 1_555
C10G C3G 1_555 1_555
H5G O4G 1_555 1_555
O4G C9G 1_555 1_555
Cu1J O1J 1_555 1_555
O1J C9J 1_555 1_555
O2J C10J 1_555 1_555
O3J C10J 1_555 1_555
N1J Cu1J 1_555 1_555
N2J C1J 1_555 1_555
N3J Cu2 1_555 1_555
C1J N1J 1_555 1_555
C2J N1J 1_555 1_555
C3J N2J 1_555 1_555
C4J N3J 1_555 1_555
H1J C4J 1_555 1_555
C5J C1J 1_555 1_555
C6J C5J 1_555 1_555
H2J C6J 1_555 1_555
C7J C6J 1_555 1_555
H3J C7J 1_555 1_555
C8J N3J 1_555 1_555
H4J C8J 1_555 1_555
C9J C2J 1_555 1_555
C10J C3J 1_555 1_555
H5J O4J 1_555 1_555
O4J C9J 1_555 1_555
Cu1M O1M 1_555 1_555
O1M C9M 1_555 1_555
O2M C10M 1_555 1_555
O3M C10M 1_555 1_555
N1M Cu1M 1_555 1_555
N2M C1M 1_555 1_555
N3M Cu2 1_555 1_555
C1M N1M 1_555 1_555
C2M N1M 1_555 1_555
C3M N2M 1_555 1_555
C4M N3M 1_555 1_555
H1M C4M 1_555 1_555
C5M C1M 1_555 1_555
C6M C5M 1_555 1_555
H2M C6M 1_555 1_555
C7M C6M 1_555 1_555
H3M C7M 1_555 1_555
C8M N3M 1_555 1_555
H4M C8M 1_555 1_555
C9M C2M 1_555 1_555
C10M C3M 1_555 1_555
H5M O4M 1_555 1_555
O4M C9M 1_555 1_555
Cu1P O2J 1_555 1_555
Cu1Q O2G 1_555 1_555
Cu1R O2 1_555 1_555
Cu1S O2M 1_555 1_555
O2X Cu1J 1_555 1_555
O2Y Cu1G 1_555 1_555
O2Z Cu1 1_555 1_555
O2AA Cu1M 1_555 1_555
N2X Cu1J 1_555 1_555
N2Y Cu1G 1_555 1_555
N2Z Cu1 1_555 1_555
N2AA Cu1M 1_555 1_555
N2 Cu1R 1_555 1_555
C2 C3 1_555 1_555
C4 C5 1_555 1_555
C7 C8 1_555 1_555
N2G Cu1Q 1_555 1_555
C2G C3G 1_555 1_555
C4G C5G 1_555 1_555
C7G C8G 1_555 1_555
N2J Cu1P 1_555 1_555
C2J C3J 1_555 1_555
C4J C5J 1_555 1_555
C7J C8J 1_555 1_555
N2M Cu1S 1_555 1_555
C2M C3M 1_555 1_555
C4M C5M 1_555 1_555
C7M C8M 1_555 1_555

#END
