
#######################################################################
#
#                 Cambridge Crystallographic Data Centre
#                                CCDC 
#
#######################################################################
#
# If this CIF has been generated from an entry in the Cambridge 
# Structural Database, then it will include bibliographic, chemical, 
# crystal, experimental, refinement or atomic coordinate data resulting 
# from the CCDC's data processing and validation procedures.
#
#######################################################################

data_HOVRAM
_symmetry_cell_setting           monoclinic
_symmetry_space_group_name_H-M   'P 21/c'
_symmetry_Int_Tables_number      14
_space_group_name_Hall           '-P 2ybc'
loop_
_symmetry_equiv_pos_site_id
_symmetry_equiv_pos_as_xyz
1 x,y,z
2 -x,1/2+y,1/2-z
3 -x,-y,-z
4 x,1/2-y,1/2+z
_cell_length_a                   12.051(7)
_cell_length_b                   9.494(4)
_cell_length_c                   12.877(6)
_cell_angle_alpha                90
_cell_angle_beta                 105.146(20)
_cell_angle_gamma                90
_cell_volume                     1422.11
loop_
_atom_site_label
_atom_site_type_symbol
_atom_site_fract_x
_atom_site_fract_y
_atom_site_fract_z
Zn1 Zn 0.91501(4) 0.05326(4) 0.19192(3)
Cl1 Cl 0.79245(9) 0.03074(9) 0.29719(6)
O1 O 0.9818(2) 0.2687(2) 0.23151(14)
O2 O 0.9375(2) 0.49582(19) 0.20547(16)
N1 N 0.8813(2) -0.0871(2) 0.06124(19)
N2 N 0.8478(2) -0.2410(2) -0.0703(2)
N3 N 0.8347(2) 0.1827(2) 0.06280(19)
C1 C 0.8861(3) -0.2207(3) 0.0362(2)
C2 C 0.8141(3) -0.1153(3) -0.1185(2)
C3 C 0.8339(3) -0.0198(3) -0.0369(2)
C4 C 0.8147(3) 0.1296(3) -0.0308(2)
C5 C 0.8237(3) 0.3319(2) 0.0843(2)
C6 C 0.9228(3) 0.3660(3) 0.1820(2)
C7 C 0.7097(3) 0.3636(3) 0.1092(2)
C8 C 0.6050(3) 0.3223(3) 0.0209(3)
C9 C 0.5367(4) 0.2140(4) 0.0348(4)
C10 C 0.4423(4) 0.1741(5) -0.0505(6)
C11 C 0.4191(5) 0.2450(6) -0.1464(5)
C12 C 0.4828(4) 0.3551(5) -0.1580(4)
C13 C 0.5751(3) 0.3924(4) -0.0753(3)
H1 H 0.8437 -0.3286 -0.1068
H2 H 0.9144 -0.2929 0.0873
H3 H 0.7834 -0.0967 -0.1930
H4 H 0.7887 0.1854 -0.0937
H5 H 0.5552 0.1646 0.1013
H6 H 0.3937 0.0999 -0.0396
H7 H 0.3556 0.2153 -0.2029
H8 H 0.4650 0.4032 -0.2250
H9 H 0.6194 0.4721 -0.0843
H10 H 0.7080 0.3116 0.1718
H11 H 0.7053 0.4615 0.1232
H12 H 0.8299 0.3865 0.0243
Zn1A Zn 1.08499(4) 0.55326(4) 0.30808(3)
O2A O 1.0625(2) -0.00418(19) 0.29453(16)
loop_
_geom_bond_atom_site_label_1
_geom_bond_atom_site_label_2
_geom_bond_site_symmetry_1
_geom_bond_site_symmetry_2
Zn1 Cl1 1_555 1_555
O1 Zn1 1_555 1_555
O2 C6 1_555 1_555
N1 Zn1 1_555 1_555
N2 C1 1_555 1_555
N3 Zn1 1_555 1_555
C1 N1 1_555 1_555
C2 N2 1_555 1_555
C3 N1 1_555 1_555
C4 N3 1_555 1_555
C5 N3 1_555 1_555
C6 O1 1_555 1_555
C7 C5 1_555 1_555
C8 C7 1_555 1_555
C9 C8 1_555 1_555
C10 C9 1_555 1_555
C11 C10 1_555 1_555
C12 C11 1_555 1_555
C13 C8 1_555 1_555
H1 N2 1_555 1_555
H2 C1 1_555 1_555
H3 C2 1_555 1_555
H4 C4 1_555 1_555
H5 C9 1_555 1_555
H6 C10 1_555 1_555
H7 C11 1_555 1_555
H8 C12 1_555 1_555
H9 C13 1_555 1_555
H10 C7 1_555 1_555
H11 C7 1_555 1_555
H12 C5 1_555 1_555
Zn1A O2 1_555 1_555
O2A Zn1 1_555 1_555
C2 C3 1_555 1_555
C3 C4 1_555 1_555
C5 C6 1_555 1_555
C12 C13 1_555 1_555

#END
