
#######################################################################
#
#                 Cambridge Crystallographic Data Centre
#                                CCDC 
#
#######################################################################
#
# If this CIF has been generated from an entry in the Cambridge 
# Structural Database, then it will include bibliographic, chemical, 
# crystal, experimental, refinement or atomic coordinate data resulting 
# from the CCDC's data processing and validation procedures.
#
#######################################################################

data_HOVRIU
_symmetry_cell_setting           orthorhombic
_symmetry_space_group_name_H-M   'P b c a'
_symmetry_Int_Tables_number      61
_space_group_name_Hall           '-P 2ac 2ab'
loop_
_symmetry_equiv_pos_site_id
_symmetry_equiv_pos_as_xyz
1 x,y,z
2 1/2-x,-y,1/2+z
3 1/2+x,1/2-y,-z
4 -x,1/2+y,1/2-z
5 -x,-y,-z
6 1/2+x,y,1/2-z
7 1/2-x,1/2+y,z
8 x,1/2-y,1/2+z
_cell_length_a                   9.318(4)
_cell_length_b                   15.310(7)
_cell_length_c                   23.043(8)
_cell_angle_alpha                90
_cell_angle_beta                 90
_cell_angle_gamma                90
_cell_volume                     3287.28
loop_
_atom_site_label
_atom_site_type_symbol
_atom_site_fract_x
_atom_site_fract_y
_atom_site_fract_z
Cu1 Cu 0.34162(8) 0.10241(6) 0.00585(3)
O1 O 0.3806(4) 0.0996(3) 0.08779(13)
O2 O 0.4577(4) 0.1307(3) 0.19413(17)
N1 N 0.6542(5) 0.3049(3) -0.01424(19)
N2 N 0.4925(4) 0.1954(2) -0.0050(2)
N3 N 0.3628(5) 0.0941(3) -0.08219(16)
N4 N 0.2356(5) -0.0091(3) 0.0098(2)
C1 C 0.5804(6) 0.2648(4) 0.0858(2)
C2 C 0.5738(7) 0.2546(4) 0.0206(2)
C3 C 0.6222(7) 0.2732(4) -0.0685(2)
C4 C 0.5251(7) 0.2072(4) -0.0643(2)
C5 C 0.4528(7) 0.1487(4) -0.1020(2)
C6 C 0.2919(7) 0.0345(4) -0.1217(2)
C7 C 0.2477(11) -0.0456(5) -0.0925(3)
C8 C 0.1696(9) -0.0476(5) -0.0429(3)
C9 C 0.2118(7) -0.0545(4) 0.0570(2)
C10 C 0.2555(7) -0.0289(4) 0.1152(2)
C11 C 0.2097(6) -0.0849(4) 0.1596(2)
C12 C 0.2481(8) -0.0693(4) 0.2157(2)
C13 C 0.3345(8) 0.0026(4) 0.2289(2)
C14 C 0.3753(7) 0.0584(4) 0.1864(2)
C15 C 0.3359(7) 0.0458(4) 0.1260(2)
C16 C 0.5097(8) 0.1466(4) 0.2518(3)
C17 C 0.5993(7) 0.2299(5) 0.2477(3)
H1 H 0.6527 0.2276 0.1010
H2 H 0.4902 0.2497 0.1021
H3 H 0.6025 0.3238 0.0952
H4 H 0.6619 0.2943 -0.1038
H5 H 0.4720 0.1504 -0.1424
H6 H 0.2092 0.0624 -0.1372
H7 H 0.3558 0.0202 -0.1523
H8 H 0.1939 -0.0776 -0.1203
H9 H 0.3341 -0.0760 -0.0840
H10 H 0.1489 -0.1071 -0.0346
H11 H 0.0826 -0.0171 -0.0501
H12 H 0.1619 -0.1082 0.0529
H13 H 0.1515 -0.1340 0.1506
H14 H 0.2164 -0.1072 0.2457
H15 H 0.3646 0.0124 0.2678
H16 H 0.4318 0.1546 0.2779
H17 H 0.5673 0.0992 0.2647
H18 H 0.6961 0.2152 0.2392
H19 H 0.5952 0.2603 0.2836
H20 H 0.5623 0.2661 0.2177
Cu1B Cu 0.84162(8) 0.39759(6) -0.00585(3)
N1B N 0.1542(5) 0.1951(3) 0.01424(19)
loop_
_geom_bond_atom_site_label_1
_geom_bond_atom_site_label_2
_geom_bond_site_symmetry_1
_geom_bond_site_symmetry_2
Cu1 O1 1_555 1_555
O1 C15 1_555 1_555
O2 C14 1_555 1_555
N1 C2 1_555 1_555
N2 Cu1 1_555 1_555
N3 Cu1 1_555 1_555
N4 Cu1 1_555 1_555
C1 C2 1_555 1_555
C2 N2 1_555 1_555
C3 N1 1_555 1_555
C4 N2 1_555 1_555
C5 N3 1_555 1_555
C6 N3 1_555 1_555
C7 C6 1_555 1_555
C8 N4 1_555 1_555
C9 N4 1_555 1_555
C10 C9 1_555 1_555
C11 C10 1_555 1_555
C12 C11 1_555 1_555
C13 C12 1_555 1_555
C14 C13 1_555 1_555
C15 C10 1_555 1_555
C16 O2 1_555 1_555
C17 C16 1_555 1_555
H1 C1 1_555 1_555
H2 C1 1_555 1_555
H3 C1 1_555 1_555
H4 C3 1_555 1_555
H5 C5 1_555 1_555
H6 C6 1_555 1_555
H7 C6 1_555 1_555
H8 C7 1_555 1_555
H9 C7 1_555 1_555
H10 C8 1_555 1_555
H11 C8 1_555 1_555
H12 C9 1_555 1_555
H13 C11 1_555 1_555
H14 C12 1_555 1_555
H15 C13 1_555 1_555
H16 C16 1_555 1_555
H17 C16 1_555 1_555
H18 C17 1_555 1_555
H19 C17 1_555 1_555
H20 C17 1_555 1_555
Cu1B N1 1_555 1_555
N1B Cu1 1_555 1_555
C3 C4 1_555 1_555
C4 C5 1_555 1_555
C7 C8 1_555 1_555
C14 C15 1_555 1_555

#END
