
#######################################################################
#
#                 Cambridge Crystallographic Data Centre
#                                CCDC 
#
#######################################################################
#
# If this CIF has been generated from an entry in the Cambridge 
# Structural Database, then it will include bibliographic, chemical, 
# crystal, experimental, refinement or atomic coordinate data resulting 
# from the CCDC's data processing and validation procedures.
#
#######################################################################

data_HOVVEV
_symmetry_cell_setting           orthorhombic
_symmetry_space_group_name_H-M   'P c c n'
_symmetry_Int_Tables_number      56
_space_group_name_Hall           '-P 2ab 2ac'
loop_
_symmetry_equiv_pos_site_id
_symmetry_equiv_pos_as_xyz
1 x,y,z
2 1/2-x,1/2-y,z
3 -x,1/2+y,1/2-z
4 1/2+x,-y,1/2-z
5 -x,-y,-z
6 1/2+x,1/2+y,-z
7 x,1/2-y,1/2+z
8 1/2-x,y,1/2+z
_cell_length_a                   12.156(2)
_cell_length_b                   12.223(2)
_cell_length_c                   14.928(3)
_cell_angle_alpha                90
_cell_angle_beta                 90
_cell_angle_gamma                90
_cell_volume                     2218.04
loop_
_atom_site_label
_atom_site_type_symbol
_atom_site_fract_x
_atom_site_fract_y
_atom_site_fract_z
N1 N 0.4287(7) 0.3894(7) 0.0906(5)
Ag1 Ag 0.52536(8) 0.22433(7) 0.05373(7)
Ag2 Ag 0.2500 0.7500 0.13273(8)
C1 C 0.3750(8) 0.4366(7) 0.0233(6)
N2 N 0.4486(8) 0.0093(7) 0.1122(6)
O1 O 0.4275(7) -0.0876(6) 0.1291(6)
C2 C 0.3241(9) 0.5387(7) 0.0360(6)
H1 H 0.2851 0.5701 -0.0111
O2 O 0.3789(7) 0.0795(7) 0.1078(8)
O3 O 0.5455(7) 0.0357(7) 0.0971(7)
C3 C 0.4304(11) 0.4435(9) 0.1677(7)
H2 H 0.4640 0.4097 0.2164
N3 N 0.4296(7) 0.2952(6) -0.0698(5)
C4 C 0.3713(8) 0.3813(8) -0.0640(7)
C5 C 0.2986(12) 0.4223(10) -0.1386(9)
H3 H 0.3293 0.4881 -0.1632
H4 H 0.2265 0.4374 -0.1154
H5 H 0.2935 0.3677 -0.1845
O4 O 0.4282(8) 0.2461(7) -0.1535(6)
H6 H 0.4465 0.1818 -0.1487
N4 N 0.3306(7) 0.5915(6) 0.1140(5)
C6 C 0.3875(10) 0.5433(9) 0.1808(7)
H7 H 0.3968 0.5789 0.2353
O5 O 0.7500 0.2500 0.0707(6)
N5 N 0.7500 0.2500 0.1510(7)
O6 O 0.6625(7) 0.2604(8) 0.1944(5)
O6A O 0.8375(7) 0.2396(8) 0.1944(5)
N1A N 0.0713(7) 1.1106(7) 0.0906(5)
Ag1A Ag -0.02536(8) 1.27567(7) 0.05373(7)
C1A C 0.1250(8) 1.0634(7) 0.0233(6)
N2A N 0.0514(8) 1.4907(7) 0.1122(6)
O1A O 0.0725(7) 1.5876(6) 0.1291(6)
C2A C 0.1759(9) 0.9613(7) 0.0360(6)
H1A H 0.2149 0.9299 -0.0111
O2A O 0.1211(7) 1.4205(7) 0.1078(8)
O3A O -0.0455(7) 1.4643(7) 0.0971(7)
C3A C 0.0696(11) 1.0565(9) 0.1677(7)
H2A H 0.0360 1.0903 0.2164
N3A N 0.0704(7) 1.2048(6) -0.0698(5)
C4A C 0.1287(8) 1.1187(8) -0.0640(7)
C5A C 0.2014(12) 1.0777(10) -0.1386(9)
H3A H 0.1707 1.0119 -0.1632
H4A H 0.2735 1.0626 -0.1154
H5A H 0.2065 1.1323 -0.1845
O4A O 0.0718(8) 1.2539(7) -0.1535(6)
H6A H 0.0535 1.3182 -0.1487
N4A N 0.1694(7) 0.9085(6) 0.1140(5)
C6A C 0.1125(10) 0.9567(9) 0.1808(7)
H7A H 0.1032 0.9211 0.2353
Ag1A_2 Ag 0.97464(8) 0.27567(7) 0.05373(7)
O6A_2 O -0.1625(7) 1.2396(8) 0.1944(5)
loop_
_geom_bond_atom_site_label_1
_geom_bond_atom_site_label_2
_geom_bond_site_symmetry_1
_geom_bond_site_symmetry_2
N1 Ag1 1_555 1_555
Ag1 O2 1_555 1_555
Ag2 N4 1_555 1_555
C1 N1 1_555 1_555
N2 O1 1_555 1_555
C2 C1 1_555 1_555
H1 C2 1_555 1_555
O2 N2 1_555 1_555
O3 Ag1 1_555 1_555
C3 N1 1_555 1_555
H2 C3 1_555 1_555
N3 Ag1 1_555 1_555
C4 C1 1_555 1_555
C5 C4 1_555 1_555
H3 C5 1_555 1_555
H4 C5 1_555 1_555
H5 C5 1_555 1_555
O4 N3 1_555 1_555
H6 O4 1_555 1_555
N4 C2 1_555 1_555
C6 C3 1_555 1_555
H7 C6 1_555 1_555
O5 N5 1_555 1_555
N5 O6 1_555 1_555
O6 Ag1 1_555 1_555
O6A N5 1_555 1_555
N1A Ag1A 1_555 1_555
Ag1A O2A 1_555 1_555
C1A N1A 1_555 1_555
N2A O1A 1_555 1_555
C2A C1A 1_555 1_555
H1A C2A 1_555 1_555
O2A N2A 1_555 1_555
O3A Ag1A 1_555 1_555
C3A N1A 1_555 1_555
H2A C3A 1_555 1_555
N3A Ag1A 1_555 1_555
C4A C1A 1_555 1_555
C5A C4A 1_555 1_555
H3A C5A 1_555 1_555
H4A C5A 1_555 1_555
H5A C5A 1_555 1_555
O4A N3A 1_555 1_555
H6A O4A 1_555 1_555
N4A Ag2 1_555 1_555
C6A C3A 1_555 1_555
H7A C6A 1_555 1_555
Ag1A_2 O6A 1_555 1_555
O6A_2 Ag1A 1_555 1_555
N2 O3 1_555 1_555
N3 C4 1_555 1_555
N4 C6 1_555 1_555
N2A O3A 1_555 1_555
C2A N4A 1_555 1_555
N3A C4A 1_555 1_555
N4A C6A 1_555 1_555

#END
