
#######################################################################
#
#                 Cambridge Crystallographic Data Centre
#                                CCDC 
#
#######################################################################
#
# If this CIF has been generated from an entry in the Cambridge 
# Structural Database, then it will include bibliographic, chemical, 
# crystal, experimental, refinement or atomic coordinate data resulting 
# from the CCDC's data processing and validation procedures.
#
#######################################################################

data_HOWFIJ
_symmetry_cell_setting           monoclinic
_symmetry_space_group_name_H-M   'P 21/c'
_symmetry_Int_Tables_number      14
_space_group_name_Hall           '-P 2ybc'
loop_
_symmetry_equiv_pos_site_id
_symmetry_equiv_pos_as_xyz
1 x,y,z
2 -x,1/2+y,1/2-z
3 -x,-y,-z
4 x,1/2-y,1/2+z
_cell_length_a                   11.7846(3)
_cell_length_b                   30.2442(5)
_cell_length_c                   13.0298(3)
_cell_angle_alpha                90
_cell_angle_beta                 102.368(2)
_cell_angle_gamma                90
_cell_volume                     4536.25
loop_
_atom_site_label
_atom_site_type_symbol
_atom_site_fract_x
_atom_site_fract_y
_atom_site_fract_z
U1 U 0.69590(7) 0.22944(2) 0.05550(6)
K1 K 0.6254(5) 0.19851(13) 0.3130(4)
O1 O 0.7596(10) 0.2345(3) 0.1951(9)
O2 O 0.6343(11) 0.2237(3) -0.0852(9)
O3 O 0.7414(12) 0.3012(4) 0.0152(11)
O4 O 0.5708(10) 0.1763(3) 0.1079(10)
N1 N 0.9151(14) 0.2336(5) 0.0215(14)
N2 N 0.7922(13) 0.1486(4) 0.0625(13)
N3 N 0.5122(15) 0.2736(5) 0.0795(13)
C1 C 0.923(2) 0.2631(6) -0.0700(18)
H1 H 0.8605 0.2550 -0.1308
H2 H 0.9983 0.2578 -0.0901
C2 C 0.912(2) 0.3129(6) -0.0459(18)
C3 C 0.996(2) 0.3411(7) -0.0722(16)
H3 H 1.0576 0.3289 -0.0994
C4 C 0.991(2) 0.3863(7) -0.0594(17)
C5 C 0.902(2) 0.4019(7) -0.0170(18)
H4 H 0.9022 0.4328 -0.0038
C6 C 0.810(2) 0.3768(6) 0.0095(17)
C7 C 0.8172(18) 0.3286(6) -0.0048(16)
C8 C 1.084(2) 0.4182(8) -0.0850(19)
C9 C 1.024(3) 0.4550(8) -0.157(2)
H5 H 0.9744 0.4723 -0.1210
H6 H 0.9767 0.4420 -0.2212
H7 H 1.0831 0.4744 -0.1763
C10 C 1.152(2) 0.4393(8) 0.017(2)
H8 H 1.2106 0.4595 0.0015
H9 H 1.1895 0.4160 0.0651
H10 H 1.0979 0.4558 0.0511
C11 C 1.173(3) 0.3934(8) -0.136(3)
H11 H 1.1324 0.3785 -0.2006
H12 H 1.2147 0.3714 -0.0871
H13 H 1.2289 0.4147 -0.1539
C12 C 0.710(2) 0.3949(6) 0.0573(18)
C13 C 0.723(2) 0.3764(7) 0.1682(18)
H14 H 0.7945 0.3874 0.2129
H15 H 0.7250 0.3440 0.1657
H16 H 0.6561 0.3858 0.1970
C14 C 0.598(2) 0.3861(6) -0.0155(19)
H17 H 0.5887 0.3541 -0.0269
H18 H 0.5969 0.4008 -0.0827
H19 H 0.5346 0.3974 0.0148
C15 C 0.723(2) 0.4475(6) 0.068(2)
H20 H 0.6612 0.4594 0.0994
H21 H 0.7180 0.4605 -0.0017
H22 H 0.7989 0.4547 0.1130
C16 C 0.7794(17) 0.1243(6) 0.1591(16)
H23 H 0.8001 0.1444 0.2201
H24 H 0.8348 0.0993 0.1709
C17 C 0.6575(18) 0.1066(5) 0.1534(15)
C18 C 0.6462(19) 0.0601(6) 0.1764(16)
H25 H 0.7137 0.0421 0.1936
C19 C 0.537(2) 0.0415(6) 0.1735(17)
C20 C 0.4429(19) 0.0694(6) 0.1459(17)
H26 H 0.3684 0.0569 0.1434
C21 C 0.4464(19) 0.1144(6) 0.1210(18)
C22 C 0.5562(17) 0.1326(5) 0.1267(15)
C23 C 0.527(2) -0.0070(6) 0.202(2)
C24 C 0.408(3) -0.0245(7) 0.163(2)
H27 H 0.4067 -0.0561 0.1786
H28 H 0.3860 -0.0201 0.0864
H29 H 0.3536 -0.0088 0.1966
C25 C 0.604(4) -0.0350(8) 0.149(4)
H30 H 0.6845 -0.0333 0.1882
H31 H 0.5992 -0.0241 0.0770
H32 H 0.5776 -0.0658 0.1457
C26 C 0.563(3) -0.0128(8) 0.318(2)
H33 H 0.5561 -0.0441 0.3354
H34 H 0.5117 0.0049 0.3521
H35 H 0.6431 -0.0031 0.3419
C27 C 0.339(2) 0.1410(7) 0.084(2)
C28 C 0.228(2) 0.1136(7) 0.081(3)
H36 H 0.2304 0.0870 0.0385
H37 H 0.1598 0.1313 0.0495
H38 H 0.2235 0.1051 0.1525
C29 C 0.339(2) 0.1798(6) 0.163(2)
H39 H 0.3518 0.1681 0.2348
H40 H 0.2641 0.1951 0.1460
H41 H 0.4014 0.2006 0.1578
C30 C 0.333(2) 0.1591(7) -0.025(2)
H42 H 0.4046 0.1757 -0.0264
H43 H 0.2661 0.1789 -0.0448
H44 H 0.3256 0.1346 -0.0754
C31 C 0.9447(18) 0.1894(6) -0.0054(17)
H45 H 1.0280 0.1886 -0.0080
H46 H 0.8992 0.1820 -0.0764
C32 C 0.9217(17) 0.1548(6) 0.0715(18)
H47 H 0.9570 0.1264 0.0572
H48 H 0.9582 0.1640 0.1440
C33 C 0.9976(19) 0.2499(7) 0.1208(18)
H49 H 1.0773 0.2500 0.1099
H50 H 0.9927 0.2303 0.1796
H51 H 0.9758 0.2800 0.1369
C34 C 0.7413(17) 0.1245(6) -0.0357(15)
H52 H 0.7783 0.0954 -0.0348
H53 H 0.7543 0.1414 -0.0962
H54 H 0.6577 0.1207 -0.0409
C35 C 0.503(2) 0.2930(6) 0.1739(17)
H55 H 0.5686 0.2920 0.2309
C36 C 0.404(2) 0.3136(7) 0.189(2)
H56 H 0.4043 0.3292 0.2521
C37 C 0.303(2) 0.3114(7) 0.109(2)
H57 H 0.2336 0.3244 0.1197
C38 C 0.304(2) 0.2910(7) 0.017(2)
H58 H 0.2364 0.2885 -0.0375
C39 C 0.4145(19) 0.2731(7) 0.0059(19)
H59 H 0.4177 0.2597 -0.0595
K1C K 0.6254(5) 0.30149(13) -0.1870(4)
O2C O 0.6343(11) 0.2763(3) 0.4148(9)
O3C O 0.7414(12) 0.1988(4) 0.5152(11)
C40 C -0.036(4) -0.0054(14) 1.035(3)
H60 H -0.1118 -0.0166 0.9945
H61 H -0.0515 0.0213 1.0738
C41 C 0.021(3) -0.0403(14) 1.111(4)
H62 H 0.0444 -0.0659 1.0728
H63 H 0.0917 -0.0282 1.1581
C42 C -0.066(6) -0.054(2) 1.174(5)
H64 H -0.1448 -0.0468 1.1354
H65 H -0.0611 -0.0864 1.1858
H66 H -0.0503 -0.0390 1.2420
C40B C 0.036(4) 0.0054(14) 0.965(3)
H60B H 0.1118 0.0166 1.0055
H61B H 0.0515 -0.0213 0.9262
C41B C -0.021(3) 0.0403(14) 0.889(4)
H62B H -0.0444 0.0659 0.9272
H63B H -0.0917 0.0282 0.8419
C42B C 0.066(6) 0.054(2) 0.826(5)
H64B H 0.1448 0.0468 0.8646
H65B H 0.0611 0.0864 0.8142
H66B H 0.0503 0.0390 0.7580
loop_
_geom_bond_atom_site_label_1
_geom_bond_atom_site_label_2
_geom_bond_site_symmetry_1
_geom_bond_site_symmetry_2
U1 O1 1_555 1_555
K1 O1 1_555 1_555
O2 U1 1_555 1_555
O3 U1 1_555 1_555
O4 U1 1_555 1_555
N1 U1 1_555 1_555
N2 U1 1_555 1_555
N3 U1 1_555 1_555
C1 N1 1_555 1_555
H1 C1 1_555 1_555
H2 C1 1_555 1_555
C2 C1 1_555 1_555
C3 C2 1_555 1_555
H3 C3 1_555 1_555
C4 C3 1_555 1_555
C5 C4 1_555 1_555
H4 C5 1_555 1_555
C6 C5 1_555 1_555
C7 O3 1_555 1_555
C8 C4 1_555 1_555
C9 C8 1_555 1_555
H5 C9 1_555 1_555
H6 C9 1_555 1_555
H7 C9 1_555 1_555
C10 C8 1_555 1_555
H8 C10 1_555 1_555
H9 C10 1_555 1_555
H10 C10 1_555 1_555
C11 C8 1_555 1_555
H11 C11 1_555 1_555
H12 C11 1_555 1_555
H13 C11 1_555 1_555
C12 C6 1_555 1_555
C13 C12 1_555 1_555
H14 C13 1_555 1_555
H15 C13 1_555 1_555
H16 C13 1_555 1_555
C14 C12 1_555 1_555
H17 C14 1_555 1_555
H18 C14 1_555 1_555
H19 C14 1_555 1_555
C15 C12 1_555 1_555
H20 C15 1_555 1_555
H21 C15 1_555 1_555
H22 C15 1_555 1_555
C16 N2 1_555 1_555
H23 C16 1_555 1_555
H24 C16 1_555 1_555
C17 C16 1_555 1_555
C18 C17 1_555 1_555
H25 C18 1_555 1_555
C19 C18 1_555 1_555
C20 C19 1_555 1_555
H26 C20 1_555 1_555
C21 C20 1_555 1_555
C22 O4 1_555 1_555
C23 C19 1_555 1_555
C24 C23 1_555 1_555
H27 C24 1_555 1_555
H28 C24 1_555 1_555
H29 C24 1_555 1_555
C25 C23 1_555 1_555
H30 C25 1_555 1_555
H31 C25 1_555 1_555
H32 C25 1_555 1_555
C26 C23 1_555 1_555
H33 C26 1_555 1_555
H34 C26 1_555 1_555
H35 C26 1_555 1_555
C27 C21 1_555 1_555
C28 C27 1_555 1_555
H36 C28 1_555 1_555
H37 C28 1_555 1_555
H38 C28 1_555 1_555
C29 C27 1_555 1_555
H39 C29 1_555 1_555
H40 C29 1_555 1_555
H41 C29 1_555 1_555
C30 C27 1_555 1_555
H42 C30 1_555 1_555
H43 C30 1_555 1_555
H44 C30 1_555 1_555
C31 N1 1_555 1_555
H45 C31 1_555 1_555
H46 C31 1_555 1_555
C32 N2 1_555 1_555
H47 C32 1_555 1_555
H48 C32 1_555 1_555
C33 N1 1_555 1_555
H49 C33 1_555 1_555
H50 C33 1_555 1_555
H51 C33 1_555 1_555
C34 N2 1_555 1_555
H52 C34 1_555 1_555
H53 C34 1_555 1_555
H54 C34 1_555 1_555
C35 N3 1_555 1_555
H55 C35 1_555 1_555
C36 C35 1_555 1_555
H56 C36 1_555 1_555
C37 C36 1_555 1_555
H57 C37 1_555 1_555
C38 C37 1_555 1_555
H58 C38 1_555 1_555
C39 N3 1_555 1_555
H59 C39 1_555 1_555
C40 H60 1_555 1_555
H61 C40 1_555 1_555
C41 C40 1_555 1_555
H62 C41 1_555 1_555
H63 C41 1_555 1_555
C42 C41 1_555 1_555
H64 C42 1_555 1_555
H65 C42 1_555 1_555
H66 C42 1_555 1_555
K1C O2 1_555 1_555
O2C K1 1_555 1_555
O3C K1 1_555 1_555
C40B C40 1_555 1_555
H60B C40B 1_555 1_555
H61B C40B 1_555 1_555
C41B C40B 1_555 1_555
H62B C41B 1_555 1_555
H63B C41B 1_555 1_555
C42B C41B 1_555 1_555
H64B C42B 1_555 1_555
H65B C42B 1_555 1_555
H66B C42B 1_555 1_555
K1 O4 1_555 1_555
O3 K1C 1_555 1_555
C2 C7 1_555 1_555
C6 C7 1_555 1_555
C17 C22 1_555 1_555
C21 C22 1_555 1_555
C31 C32 1_555 1_555
C38 C39 1_555 1_555

#END
