
#######################################################################
#
#                 Cambridge Crystallographic Data Centre
#                                CCDC 
#
#######################################################################
#
# If this CIF has been generated from an entry in the Cambridge 
# Structural Database, then it will include bibliographic, chemical, 
# crystal, experimental, refinement or atomic coordinate data resulting 
# from the CCDC's data processing and validation procedures.
#
#######################################################################

data_HOWHIM
_symmetry_cell_setting           monoclinic
_symmetry_space_group_name_H-M   'P 21/c'
_symmetry_Int_Tables_number      14
_space_group_name_Hall           '-P 2ybc'
loop_
_symmetry_equiv_pos_site_id
_symmetry_equiv_pos_as_xyz
1 x,y,z
2 -x,1/2+y,1/2-z
3 -x,-y,-z
4 x,1/2-y,1/2+z
_cell_length_a                   14.1383(7)
_cell_length_b                   22.3075(10)
_cell_length_c                   23.4765(11)
_cell_angle_alpha                90
_cell_angle_beta                 103.200(5)
_cell_angle_gamma                90
_cell_volume                     7208.63
loop_
_atom_site_label
_atom_site_type_symbol
_atom_site_fract_x
_atom_site_fract_y
_atom_site_fract_z
C1 C 0.2962(12) 0.9835(8) 0.2238(7)
C2 C 0.2551(12) 0.9746(8) 0.2784(8)
C3 C 0.2132(12) 1.0214(7) 0.2988(7)
C4 C 0.2055(11) 1.0777(7) 0.2718(7)
C5 C 0.2443(15) 1.0877(9) 0.2155(8)
C6 C 0.2925(13) 1.0388(9) 0.1951(8)
C7 C -0.0198(13) 1.2383(8) 0.2185(7)
C8 C 0.0286(12) 1.2726(7) 0.2760(6)
C9 C -0.0289(14) 1.3131(8) 0.2988(7)
C10 C -0.1254(14) 1.3186(8) 0.2773(8)
C11 C -0.1746(13) 1.2841(8) 0.2227(8)
C12 C -0.1168(13) 1.2464(8) 0.1959(7)
C13 C 0.4651(16) 0.7919(9) 0.2236(8)
C14 C 0.5095(16) 0.8301(7) 0.2778(7)
C15 C 0.6097(15) 0.8241(9) 0.3004(7)
C16 C 0.6683(13) 0.7807(8) 0.2787(7)
C17 C 0.6212(15) 0.7444(7) 0.2233(7)
C18 C 0.5196(12) 0.7518(8) 0.1985(7)
O1 O 0.3368(9) 0.9369(6) 0.2071(5)
O2 O 0.2682(9) 0.9241(6) 0.2993(5)
O3 O 0.2343(9) 1.1375(6) 0.1932(5)
O4 O 0.1654(10) 1.1245(6) 0.2869(5)
O5 O 0.0359(9) 1.2063(5) 0.1974(5)
O6 O 0.1191(9) 1.2619(5) 0.2952(5)
O7 O -0.2625(10) 1.2942(6) 0.2042(6)
O8 O -0.1776(9) 1.3530(5) 0.2976(6)
O9 O 0.3761(10) 0.8027(6) 0.2033(6)
O10 O 0.4537(11) 0.8623(6) 0.2967(5)
O11 O 0.7565(10) 0.7720(5) 0.2990(5)
O12 O 0.6752(10) 0.7102(5) 0.2059(5)
Mn1 Mn 0.1813(2) 1.20367(12) 0.24351(12)
Cr1 Cr 0.3153(2) 0.86064(13) 0.25081(13)
Br1 Br 0.34468(19) 1.04860(12) 0.12959(10)
Br2 Br 0.16164(18) 1.01236(9) 0.36588(9)
Br3 Br -0.17820(16) 1.20296(10) 0.12779(9)
Br4 Br 0.03473(16) 1.35922(9) 0.36578(8)
Br5 Br 0.6694(2) 0.87334(10) 0.36427(9)
Br6 Br 0.46413(15) 0.70607(12) 0.13412(11)
O7A O 0.2625(10) 0.7942(6) 0.2958(6)
O8A O 0.1776(9) 0.8530(5) 0.2024(6)
O11A O 0.2435(10) 1.2720(5) 0.2010(5)
O12A O 0.3248(10) 1.2102(5) 0.2941(5)
Mn1A Mn 0.8187(2) 0.70367(12) 0.25649(12)
Cr1A Cr -0.3153(2) 1.36064(13) 0.24919(13)
C19 C 0.9716(16) 0.1702(12) 0.3711(10)
C20 C 0.9475(16) 0.1385(12) 0.3205(10)
H1 H 0.9964 0.1173 0.3087
C21 C 0.8482(15) 0.1354(12) 0.2831(10)
H2 H 0.8310 0.1126 0.2492
C22 C 0.7798(16) 0.1730(12) 0.3062(10)
H3 H 0.7160 0.1735 0.2844
C23 C 0.7977(16) 0.2054(12) 0.3533(10)
H4 H 0.7491 0.2274 0.3645
C24 C 0.8999(16) 0.2059(13) 0.3888(11)
C25 C 0.9275(19) 0.2422(10) 0.4413(15)
H5 H 0.8798 0.2679 0.4485
C26 C 1.010(2) 0.2829(13) 0.5281(13)
H6 H 0.9630 0.2699 0.5501
H7 H 0.9936 0.3237 0.5149
C27 C 1.121(4) 0.281(3) 0.570(2)
H8 H 1.1523 0.3190 0.5678
H9 H 1.1163 0.2756 0.6107
C28 C 1.281(3) 0.2772(15) 0.5661(14)
H10 H 1.2936 0.2988 0.6029
H11 H 1.3328 0.2478 0.5688
C29 C 1.287(3) 0.3135(18) 0.5262(15)
H12 H 1.3546 0.3246 0.5329
H13 H 1.2526 0.3492 0.5343
C30 C 1.255(2) 0.3036(13) 0.4640(10)
H14 H 1.2068 0.3342 0.4495
H15 H 1.3104 0.3126 0.4476
C31 C 1.286(3) 0.2132(17) 0.4187(16)
H16 H 1.2592 0.2029 0.3781
H17 H 1.3434 0.2373 0.4201
C32 C 1.315(2) 0.1604(12) 0.4492(16)
H18 H 1.3745 0.1678 0.4780
H19 H 1.3281 0.1306 0.4221
C33 C 1.2546(14) 0.0817(11) 0.4965(9)
H20 H 1.3075 0.0609 0.4891
C34 C 1.1940(15) 0.0502(11) 0.5263(8)
C35 C 1.2154(19) -0.0095(12) 0.5444(11)
H21 H 1.2693 -0.0277 0.5353
C36 C 1.162(2) -0.0411(14) 0.5738(11)
H22 H 1.1818 -0.0796 0.5863
C37 C 1.083(3) -0.0187(19) 0.5854(16)
H23 H 1.0482 -0.0409 0.6073
C38 C 1.051(2) 0.0357(14) 0.5661(15)
H24 H 0.9910 0.0480 0.5712
C39 C 1.1066(17) 0.0778(12) 0.5368(10)
N1 N 1.0045(13) 0.2434(7) 0.4772(8)
N2 N 1.1748(14) 0.2400(8) 0.5584(6)
H25 H 1.1836 0.2105 0.5901
N3 N 1.2162(12) 0.2498(8) 0.4381(6)
H26 H 1.1724 0.2627 0.4016
N4 N 1.2441(11) 0.1362(8) 0.4786(7)
O13 O 1.0614(8) 0.1682(6) 0.3985(5)
O14 O 1.0797(12) 0.1296(7) 0.5217(7)
Fe1 Fe 1.12599(18) 0.19171(12) 0.47731(10)
N5 N 0.031(3) 0.3631(17) 0.1746(16)
C40 C 0.163(3) 0.424(2) 0.2378(19)
C41 C 0.084(3) 0.399(2) 0.201(2)
N6 N 0.985(3) 0.0269(16) 0.1919(14)
C42 C 1.026(3) 0.0717(16) 0.1031(14)
C43 C 1.001(5) 0.052(3) 0.152(2)
N7 N 0.753(3) 0.1343(18) 0.9951(17)
C44 C 0.852(4) 0.073(3) 0.940(2)
C45 C 0.798(4) 0.105(3) 0.971(3)
N8 N 0.651(5) 0.035(3) 0.214(3)
C46 C 0.562(5) 0.041(3) 0.295(3)
C47 C 0.611(4) 0.031(3) 0.252(3)
N9 N 0.465(5) 0.614(3) 0.424(3)
C48 C 0.455(3) 0.6859(19) 0.3422(18)
C49 C 0.441(5) 0.645(4) 0.383(3)
N10 N 0.116(3) 0.4539(17) 0.4804(16)
C50 C 0.275(5) 0.470(6) 0.454(5)
C51 C 0.181(4) 0.462(3) 0.459(2)
N11 N 0.684(3) 0.164(2) 0.485(2)
C52 C 0.845(3) 0.1452(19) 0.5523(17)
C53 C 0.759(3) 0.160(2) 0.516(2)
N12 N 0.293(3) 0.3790(19) 0.3195(18)
C54 C 0.463(6) 0.384(9) 0.380(7)
C55 C 0.372(3) 0.378(2) 0.345(2)
Mn2? Mn 0.3153(2) 0.86064(13) 0.25081(13)
H27? H 1.0321 0.3226 0.5205
H28? H 0.9464 0.2865 0.5373
C56? C 1.073(4) 0.257(2) 0.572(2)
H29? H 1.0433 0.2201 0.5821
H30? H 1.0838 0.2829 0.6053
C57? C 1.222(4) 0.291(2) 0.567(2)
H31? H 1.2625 0.2900 0.6061
H32? H 1.1735 0.3222 0.5668
H33? H 1.2958 0.3563 0.5324
H34? H 1.3498 0.2949 0.5392
Cr2? Cr 0.1813(2) 1.20367(12) 0.24351(12)
loop_
_geom_bond_atom_site_label_1
_geom_bond_atom_site_label_2
_geom_bond_site_symmetry_1
_geom_bond_site_symmetry_2
C1 C2 1_555 1_555
C2 C3 1_555 1_555
C3 C4 1_555 1_555
C4 C5 1_555 1_555
C5 C6 1_555 1_555
C6 C1 1_555 1_555
C7 C8 1_555 1_555
C8 C9 1_555 1_555
C9 C10 1_555 1_555
C10 C11 1_555 1_555
C11 C12 1_555 1_555
C12 C7 1_555 1_555
C13 C14 1_555 1_555
C14 C15 1_555 1_555
C15 C16 1_555 1_555
C16 C17 1_555 1_555
C17 C18 1_555 1_555
C18 C13 1_555 1_555
O1 C1 1_555 1_555
O2 C2 1_555 1_555
O3 C5 1_555 1_555
O4 C4 1_555 1_555
O5 C7 1_555 1_555
O6 C8 1_555 1_555
O7 C11 1_555 1_555
O8 C10 1_555 1_555
O9 C13 1_555 1_555
O10 C14 1_555 1_555
O11 C16 1_555 1_555
O12 C17 1_555 1_555
Mn1 O3 1_555 1_555
Cr1 O1 1_555 1_555
Br1 C6 1_555 1_555
Br2 C3 1_555 1_555
Br3 C12 1_555 1_555
Br4 C9 1_555 1_555
Br5 C15 1_555 1_555
Br6 C18 1_555 1_555
C19 C20 1_555 1_555
C20 H1 1_555 1_555
C21 C20 1_555 1_555
H2 C21 1_555 1_555
C22 C21 1_555 1_555
H3 C22 1_555 1_555
C23 C22 1_555 1_555
H4 C23 1_555 1_555
C24 C19 1_555 1_555
C25 C24 1_555 1_555
H5 C25 1_555 1_555
C26 H6 1_555 1_555
H7 C26 1_555 1_555
C27 C26 1_555 1_555
H8 C27 1_555 1_555
H9 C27 1_555 1_555
C28 H10 1_555 1_555
H11 C28 1_555 1_555
C29 C28 1_555 1_555
H12 C29 1_555 1_555
H13 C29 1_555 1_555
C30 C29 1_555 1_555
H14 C30 1_555 1_555
H15 C30 1_555 1_555
C31 H16 1_555 1_555
H17 C31 1_555 1_555
C32 C31 1_555 1_555
H18 C32 1_555 1_555
H19 C32 1_555 1_555
C33 H20 1_555 1_555
C34 C33 1_555 1_555
C35 C34 1_555 1_555
H21 C35 1_555 1_555
C36 C35 1_555 1_555
H22 C36 1_555 1_555
C37 C36 1_555 1_555
H23 C37 1_555 1_555
C38 C37 1_555 1_555
H24 C38 1_555 1_555
C39 C34 1_555 1_555
N1 C25 1_555 1_555
N2 C27 1_555 1_555
H25 N2 1_555 1_555
N3 C30 1_555 1_555
H26 N3 1_555 1_555
N4 C32 1_555 1_555
O13 C19 1_555 1_555
O14 C39 1_555 1_555
Fe1 N1 1_555 1_555
N5 C41 1_555 1_555
C40 C41 1_555 1_555
N6 C43 1_555 1_555
C42 C43 1_555 1_555
N7 C45 1_555 1_555
C44 C45 1_555 1_555
N8 C47 1_555 1_555
C46 C47 1_555 1_555
N9 C49 1_555 1_555
C48 C49 1_555 1_555
N10 C51 1_555 1_555
C50 C51 1_555 1_555
N11 C53 1_555 1_555
C52 C53 1_555 1_555
N12 C55 1_555 1_555
C54 C55 1_555 1_555
O7A Cr1 1_555 1_555
O8A Cr1 1_555 1_555
O11A Mn1 1_555 1_555
O12A Mn1 1_555 1_555
Mn1A O11 1_555 1_555
Cr1A O7 1_555 1_555
O2 Cr1 1_555 1_555
O4 Mn1 1_555 1_555
O5 Mn1 1_555 1_555
O6 Mn1 1_555 1_555
O8 Cr1A 1_555 1_555
O9 Cr1 1_555 1_555
O10 Cr1 1_555 1_555
O12 Mn1A 1_555 1_555
C23 C24 1_555 1_555
C26 N1 1_555 1_555
C28 N2 1_555 1_555
C31 N3 1_555 1_555
C33 N4 1_555 1_555
C38 C39 1_555 1_555
N2 Fe1 1_555 1_555
N3 Fe1 1_555 1_555
N4 Fe1 1_555 1_555
O13 Fe1 1_555 1_555
O14 Fe1 1_555 1_555

#END
