
#######################################################################
#
#                 Cambridge Crystallographic Data Centre
#                                CCDC 
#
#######################################################################
#
# If this CIF has been generated from an entry in the Cambridge 
# Structural Database, then it will include bibliographic, chemical, 
# crystal, experimental, refinement or atomic coordinate data resulting 
# from the CCDC's data processing and validation procedures.
#
#######################################################################

data_HOWHEI
_symmetry_cell_setting           hexagonal
_symmetry_space_group_name_H-M   'P 61 2 2'
_symmetry_Int_Tables_number      178
_space_group_name_Hall           "P 61 2' (0,0,5)"
loop_
_symmetry_equiv_pos_site_id
_symmetry_equiv_pos_as_xyz
1 x,y,z
2 -x,-y,1/2+z
3 -y,x-y,1/3+z
4 -x+y,-x,2/3+z
5 x-y,x,1/6+z
6 y,-x+y,5/6+z
7 x-y,-y,-z
8 -x,-x+y,2/3-z
9 y,x,1/3-z
10 -y,-x,5/6-z
11 x,x-y,1/6-z
12 -x+y,y,1/2-z
_cell_length_a                   13.7059(2)
_cell_length_b                   13.7059(2)
_cell_length_c                   66.2433(10)
_cell_angle_alpha                90
_cell_angle_beta                 90
_cell_angle_gamma                120
_cell_volume                     10776.7
loop_
_atom_site_label
_atom_site_type_symbol
_atom_site_fract_x
_atom_site_fract_y
_atom_site_fract_z
C10 C 0.1451(13) 0.0377(14) 0.1992(2)
C11 C 0.0850(13) -0.0079(14) 0.2172(2)
H1 H 0.0399 0.0199 0.2220
C12 C 0.0887(13) -0.0904(14) 0.2280(2)
C13 C 0.1631(12) -0.1310(14) 0.2221(2)
H2 H 0.1703 -0.1840 0.2297
C14 C 0.2219(13) -0.0879(13) 0.2049(2)
H3 H 0.2708 -0.1125 0.2007
C15 C 0.2133(13) -0.0060(14) 0.1925(2)
C16 C 0.2776(13) 0.0349(14) 0.1748(2)
H4 H 0.3195 0.0010 0.1712
C17 C 0.3474(16) 0.1412(16) 0.1439(2)
H5 H 0.2946 0.1175 0.1328
H6 H 0.3905 0.1029 0.1428
C18 C 0.4243(15) 0.2649(14) 0.1431(2)
H7 H 0.4844 0.2880 0.1529
H8 H 0.4575 0.2873 0.1297
C19 C 0.4232(13) 0.4307(13) 0.1557(2)
H9 H 0.4981 0.4678 0.1498
H10 H 0.3874 0.4743 0.1524
N1 N 0.2865(11) 0.1118(13) 0.16290(18)
N2 N 0.3565(11) 0.3156(11) 0.14758(18)
H11 H 0.3262 0.3231 0.1346
O7 O 0.1370(11) 0.1156(12) 0.18990(17)
O8 O 0.0267(12) -0.1358(11) 0.2451(2)
H12 H 0.0230 -0.1962 0.2476
Fe1 Fe 0.2103(2) 0.2103(2) 0.1667
C10H C 0.0377(14) 0.1451(13) 0.1341(2)
C11H C -0.0079(14) 0.0850(13) 0.1161(2)
H1H H 0.0199 0.0399 0.1113
C12H C -0.0904(14) 0.0887(13) 0.1053(2)
C13H C -0.1310(14) 0.1631(12) 0.1112(2)
H2H H -0.1840 0.1703 0.1036
C14H C -0.0879(13) 0.2219(13) 0.1284(2)
H3H H -0.1125 0.2708 0.1326
C15H C -0.0060(14) 0.2133(13) 0.1408(2)
C16H C 0.0349(14) 0.2776(13) 0.1585(2)
H4H H 0.0010 0.3195 0.1621
C17H C 0.1412(16) 0.3474(16) 0.1894(2)
H5H H 0.1175 0.2946 0.2005
H6H H 0.1029 0.3905 0.1905
C18H C 0.2649(14) 0.4243(15) 0.1902(2)
H7H H 0.2880 0.4844 0.1804
H8H H 0.2873 0.4575 0.2036
N1H N 0.1118(13) 0.2865(11) 0.17043(18)
O7H O 0.1156(12) 0.1370(11) 0.14343(17)
O8H O -0.1358(11) 0.0267(12) 0.0882(2)
H12H H -0.1962 0.0230 0.0857
C19H C 0.4307(13) 0.4232(13) 0.1776(2)
H9H H 0.4678 0.4981 0.1835
H10H H 0.4743 0.3874 0.1809
N2H N 0.3156(11) 0.3565(11) 0.18575(18)
H11H H 0.3231 0.3262 0.1987
C1 C 0.2325(11) 0.5232(13) 0.2401(2)
C2 C 0.2586(12) 0.6312(13) 0.2312(2)
C3 C 0.3367(12) 0.7271(13) 0.2402(2)
C4 C 0.3327(12) 1.0326(13) 0.2596(2)
C5 C 0.3996(12) 1.0950(13) 0.2410(2)
C6 C 0.2372(18) 1.1394(13) 0.2590(2)
C7 C 0.2578(11) 1.0586(13) 0.2683(2)
C8 C 0.2996(18) 1.2024(13) 0.2397(2)
C9 C 0.3779(11) 1.1733(13) 0.2316(2)
O1 O 0.1611(8) 0.4280(9) 0.23407(16)
O2 O 0.3613(7) 0.8247(8) 0.23295(15)
O3 O 0.3548(9) 0.9603(10) 0.26640(14)
O4 O 0.4652(9) 1.0624(10) 0.23363(18)
O5 O 0.1671(12) 1.1668(8) 0.26672(15)
O6 O 0.2718(10) 1.2694(9) 0.23234(14)
Cl1 Cl 0.1899(4) 0.6266(4) 0.20912(6)
Cl2 Cl 0.1886(4) 0.9914(5) 0.29009(6)
Cl3 Cl 0.4557(4) 1.2493(4) 0.21120(6)
Cr1 Cr 0.47580(16) 0.9516(3) 0.2500
Mn1 Mn 0.14271(15) 0.2854(3) 0.2500
C1K C 0.2907(17) 0.5232(13) 0.2599(2)
C2K C 0.3726(18) 0.6312(13) 0.2688(2)
C3K C 0.3904(18) 0.7271(13) 0.2598(2)
O1K O 0.2669(12) 0.4280(9) 0.26593(16)
O2K O 0.4634(11) 0.8247(8) 0.26705(15)
Cl1K Cl 0.4367(6) 0.6266(4) 0.29088(6)
C4K C 0.6999(18) 1.0326(13) 0.2404(2)
C5K C 0.6954(18) 1.0950(13) 0.2590(2)
C6K C 0.9022(22) 1.1394(13) 0.2410(2)
C7K C 0.8008(17) 1.0586(13) 0.2317(2)
C8K C 0.9028(22) 1.2024(13) 0.2603(2)
C9K C 0.7954(17) 1.1733(13) 0.2684(2)
O3K O 0.6055(13) 0.9603(10) 0.23360(14)
O4K O 0.5972(13) 1.0624(10) 0.26637(18)
O5K O 0.9997(14) 1.1668(8) 0.23328(15)
O6K O 0.9976(13) 1.2694(9) 0.26766(14)
Cl2K Cl 0.8028(6) 0.9914(5) 0.20991(6)
Cl3K Cl 0.7936(6) 1.2493(4) 0.28880(6)
O5_2 O 0.1671(12) 0.1668(8) 0.26672(15)
O5K_2 O -0.0003(14) 0.1668(8) 0.23328(15)
O6_2 O 0.2718(10) 0.2694(9) 0.23234(14)
O6K_2 O -0.0024(13) 0.2694(9) 0.26766(14)
Mn1_2 Mn 0.14271(15) 1.2854(3) 0.2500
Mn1_3 Mn 1.14271(15) 1.2854(3) 0.2500
loop_
_geom_bond_atom_site_label_1
_geom_bond_atom_site_label_2
_geom_bond_site_symmetry_1
_geom_bond_site_symmetry_2
C1 C2 1_555 1_555
C2 C3 1_555 1_555
C3 O2 1_555 1_555
C4 C5 1_555 1_555
C5 C9 1_555 1_555
C6 C7 1_555 1_555
C7 C4 1_555 1_555
C8 C6 1_555 1_555
C9 C8 1_555 1_555
O1 C1 1_555 1_555
O2 Cr1 1_555 1_555
O3 C4 1_555 1_555
O4 C5 1_555 1_555
O5 C6 1_555 1_555
O6 C8 1_555 1_555
Cl1 C2 1_555 1_555
Cl2 C7 1_555 1_555
Cl3 C9 1_555 1_555
Cr1 O3 1_555 1_555
Mn1 O1 1_555 1_555
C10 C11 1_555 1_555
C11 H1 1_555 1_555
C12 C11 1_555 1_555
C13 C12 1_555 1_555
H2 C13 1_555 1_555
C14 C13 1_555 1_555
H3 C14 1_555 1_555
C15 C10 1_555 1_555
C16 C15 1_555 1_555
H4 C16 1_555 1_555
C17 H5 1_555 1_555
H6 C17 1_555 1_555
C18 C17 1_555 1_555
H7 C18 1_555 1_555
H8 C18 1_555 1_555
C19 H9 1_555 1_555
H10 C19 1_555 1_555
N1 C16 1_555 1_555
N2 C18 1_555 1_555
H11 N2 1_555 1_555
O7 C10 1_555 1_555
O8 C12 1_555 1_555
H12 O8 1_555 1_555
Fe1 N1 1_555 1_555
C1K C1 1_555 1_555
C2K C1K 1_555 1_555
C3K C3 1_555 1_555
O1K Mn1 1_555 1_555
O2K Cr1 1_555 1_555
Cl1K C2K 1_555 1_555
C4K C5K 1_555 1_555
C5K C9K 1_555 1_555
C6K C7K 1_555 1_555
C7K C4K 1_555 1_555
C8K C6K 1_555 1_555
C9K C8K 1_555 1_555
O3K Cr1 1_555 1_555
O4K Cr1 1_555 1_555
O5K C6K 1_555 1_555
O6K C8K 1_555 1_555
Cl2K C7K 1_555 1_555
Cl3K C9K 1_555 1_555
O5_2 Mn1 1_555 1_555
O5K_2 Mn1 1_555 1_555
O6_2 Mn1 1_555 1_555
O6K_2 Mn1 1_555 1_555
Mn1_2 O5 1_555 1_555
Mn1_3 O5K 1_555 1_555
C10H C11H 1_555 1_555
C11H H1H 1_555 1_555
C12H C11H 1_555 1_555
C13H C12H 1_555 1_555
H2H C13H 1_555 1_555
C14H C13H 1_555 1_555
H3H C14H 1_555 1_555
C15H C10H 1_555 1_555
C16H C15H 1_555 1_555
H4H C16H 1_555 1_555
C17H H5H 1_555 1_555
H6H C17H 1_555 1_555
C18H C17H 1_555 1_555
H7H C18H 1_555 1_555
H8H C18H 1_555 1_555
N1H Fe1 1_555 1_555
O7H Fe1 1_555 1_555
O8H C12H 1_555 1_555
H12H O8H 1_555 1_555
C19H C19 1_555 1_555
H9H C19H 1_555 1_555
H10H C19H 1_555 1_555
N2H Fe1 1_555 1_555
H11H N2H 1_555 1_555
O4 Cr1 1_555 1_555
O6 Mn1_2 1_555 1_555
C14 C15 1_555 1_555
C17 N1 1_555 1_555
C19 N2 1_555 1_555
N2 Fe1 1_555 1_555
O7 Fe1 1_555 1_555
C1K O1K 1_555 1_555
C2K C3K 1_555 1_555
C3K O2K 1_555 1_555
C4K O3K 1_555 1_555
C5K O4K 1_555 1_555
O6K Mn1_3 1_555 1_555
C10H O7H 1_555 1_555
C14H C15H 1_555 1_555
C16H N1H 1_555 1_555
C17H N1H 1_555 1_555
C18H N2H 1_555 1_555
C19H N2H 1_555 1_555

#END
