
#######################################################################
#
#                 Cambridge Crystallographic Data Centre
#                                CCDC 
#
#######################################################################
#
# If this CIF has been generated from an entry in the Cambridge 
# Structural Database, then it will include bibliographic, chemical, 
# crystal, experimental, refinement or atomic coordinate data resulting 
# from the CCDC's data processing and validation procedures.
#
#######################################################################

data_HOWHUY
_symmetry_cell_setting           triclinic
_symmetry_space_group_name_H-M   'P -1'
_symmetry_Int_Tables_number      2
_space_group_name_Hall           '-P 1'
loop_
_symmetry_equiv_pos_site_id
_symmetry_equiv_pos_as_xyz
1 x,y,z
2 -x,-y,-z
_cell_length_a                   13.2167(3)
_cell_length_b                   16.2053(4)
_cell_length_c                   20.2599(5)
_cell_angle_alpha                97.796(2)
_cell_angle_beta                 97.354(2)
_cell_angle_gamma                95.928(2)
_cell_volume                     4231.55
loop_
_atom_site_label
_atom_site_type_symbol
_atom_site_fract_x
_atom_site_fract_y
_atom_site_fract_z
C1 C 0.8830(5) 0.2064(4) 0.3095(3)
C2 C 0.9438(4) 0.2797(4) 0.3558(3)
C3 C 0.8999(4) 0.3249(4) 0.4045(3)
C4 C 0.7997(5) 0.2991(4) 0.4160(3)
C5 C 0.7371(5) 0.2237(4) 0.3688(3)
C6 C 0.7834(5) 0.1831(4) 0.3157(3)
C7 C 1.0658(5) 0.2079(4) 0.1270(3)
C8 C 1.0245(5) 0.2905(4) 0.1447(3)
C9 C 1.0028(5) 0.3413(4) 0.0980(3)
C10 C 1.0158(5) 0.3175(4) 0.0292(3)
C11 C 1.0493(5) 0.2294(4) 0.0098(3)
C12 C 1.0743(5) 0.1801(4) 0.0610(3)
C13 C 0.4043(4) 0.2089(4) 0.4152(3)
C14 C 0.4360(5) 0.2930(4) 0.3903(3)
C15 C 0.3655(5) 0.3241(4) 0.3442(3)
C16 C 0.2714(5) 0.2781(4) 0.3196(3)
C17 C 0.2409(5) 0.1954(4) 0.3438(3)
C18 C 0.3078(5) 0.1637(4) 0.3887(3)
O1 O 0.9330(3) 0.1704(3) 0.2655(2)
O2 O 1.0363(3) 0.2968(3) 0.3451(2)
O3 O 0.7561(3) 0.3327(3) 0.4615(2)
O4 O 0.6480(3) 0.2033(3) 0.3796(2)
O5 O 1.0900(3) 0.1694(3) 0.1771(2)
O6 O 1.0125(3) 0.3070(3) 0.2069(2)
O7 O 1.0025(4) 0.3620(3) -0.0147(2)
O8 O 1.0519(4) 0.2079(3) -0.0504(2)
O9 O 0.4680(3) 0.1877(3) 0.4578(2)
O10 O 0.5222(3) 0.3295(3) 0.4142(2)
O11 O 0.2030(3) 0.3004(3) 0.2776(2)
O12 O 0.1499(3) 0.1598(3) 0.3189(2)
Cl1 Cl 0.96750(11) 0.41287(9) 0.45444(7)
Cl2 Cl 0.71201(13) 0.10086(11) 0.25990(9)
Cl3 Cl 0.96390(16) 0.43804(12) 0.12118(9)
Cl4 Cl 1.11874(15) 0.08501(11) 0.03938(9)
Cl5 Cl 0.39594(13) 0.42070(10) 0.32089(9)
Cl6 Cl 0.27338(12) 0.07022(10) 0.41708(8)
Cl7 Cl 0.71056(12) 0.15978(10) 0.53089(8)
Cl8 Cl 0.58441(13) 0.36531(11) 0.57730(8)
Cr1 Cr 1.06957(7) 0.23038(6) 0.26383(5)
Mn1 Mn 0.61845(7) 0.26703(6) 0.48668(5)
O11_2 O 1.2030(3) 0.3004(3) 0.2776(2)
O12_2 O 1.1499(3) 0.1598(3) 0.3189(2)
Cr1_2 Cr 0.06957(7) 0.23038(6) 0.26383(5)
C19 C 0.6306(5) -0.1040(4) 0.2117(4)
H1 H 0.6635 -0.0774 0.2536
C20 C 0.6059(6) -0.1643(5) 0.1063(4)
H2 H 0.6172 -0.1861 0.0634
C21 C 0.5124(6) -0.1630(5) 0.1285(4)
C22 C 0.4065(6) -0.1843(5) 0.0998(4)
H3 H 0.3862 -0.2117 0.0559
C23 C 0.2312(6) -0.1807(5) 0.1121(4)
H4 H 0.2237 -0.1944 0.0634
H5 H 0.1984 -0.1307 0.1227
C24 C 0.1775(6) -0.2526(5) 0.1402(4)
H6 H 0.1062 -0.2620 0.1195
H7 H 0.2084 -0.3029 0.1268
C25 C 0.4632(6) 0.0527(4) 0.1571(4)
H8 H 0.5246 0.0385 0.1436
C26 C 0.3313(6) 0.1203(5) 0.1713(4)
H9 H 0.2858 0.1604 0.1699
C27 C 0.3197(5) 0.0488(4) 0.2001(4)
C28 C 0.2470(5) 0.0081(5) 0.2343(4)
H10 H 0.1880 0.0314 0.2436
C29 C 0.1943(6) -0.1051(5) 0.2898(4)
H11 H 0.1513 -0.0653 0.3080
H12 H 0.2327 -0.1251 0.3273
C30 C 0.1260(6) -0.1794(5) 0.2452(4)
H13 H 0.0818 -0.2064 0.2728
H14 H 0.0821 -0.1578 0.2111
C31 C 0.5216(5) 0.0297(4) 0.3492(3)
H15 H 0.5263 0.0786 0.3298
C32 C 0.5406(5) -0.0559(4) 0.4231(3)
H16 H 0.5600 -0.0778 0.4623
C33 C 0.4844(5) -0.0976(4) 0.3655(3)
C34 C 0.4388(5) -0.1826(4) 0.3419(3)
H17 H 0.4400 -0.2242 0.3693
C35 C 0.3497(6) -0.2842(5) 0.2516(4)
H18 H 0.3799 -0.3224 0.2791
H19 H 0.3648 -0.2986 0.2062
C36 C 0.2332(6) -0.2937(5) 0.2511(4)
H20 H 0.2060 -0.3517 0.2342
H21 H 0.2194 -0.2816 0.2970
N1 N 0.5290(4) -0.1242(4) 0.1951(3)
N2 N 0.6788(5) -0.1283(4) 0.1582(3)
H22 H 0.7440 -0.1218 0.1574
N3 N 0.3414(5) -0.1629(4) 0.1391(3)
N4 N 0.4048(4) 0.0063(4) 0.1911(3)
N5 N 0.4216(5) 0.1224(4) 0.1451(3)
H23 H 0.4471 0.1611 0.1248
N6 N 0.2664(4) -0.0627(4) 0.2520(3)
N7 N 0.4737(4) -0.0438(3) 0.3187(3)
N8 N 0.5625(4) 0.0236(4) 0.4122(3)
H24 H 0.5970 0.0639 0.4409
N9 N 0.3952(4) -0.1971(3) 0.2787(3)
N10 N 0.1801(5) -0.2419(4) 0.2121(3)
Fe1 Fe 0.39879(7) -0.09967(6) 0.22942(5)
C37 C 0.7337(6) 0.4507(5) 0.2014(4)
H25 H 0.7625 0.4698 0.1658
C38 C 0.6397(6) 0.3722(5) 0.2566(4)
H26 H 0.5944 0.3298 0.2672
C39 C 0.6931(5) 0.4394(4) 0.2995(4)
C40 C 0.6958(5) 0.4668(4) 0.3696(4)
H27 H 0.6539 0.4377 0.3945
C41 C 0.7587(5) 0.5602(4) 0.4699(3)
H28 H 0.8287 0.5663 0.4929
H29 H 0.7174 0.5194 0.4893
C42 C 0.7164(5) 0.6440(5) 0.4784(3)
H30 H 0.6434 0.6357 0.4616
H31 H 0.7250 0.6667 0.5259
C43 C 0.9466(5) 0.6322(4) 0.1938(3)
H32 H 1.0075 0.6087 0.2019
C44 C 0.8214(6) 0.6882(5) 0.1418(4)
H33 H 0.7799 0.7098 0.1093
C45 C 0.8026(5) 0.6794(4) 0.2053(3)
C46 C 0.7206(5) 0.6992(5) 0.2426(3)
H34 H 0.6678 0.7268 0.2246
C47 C 0.6446(5) 0.7049(5) 0.3424(3)
H35 H 0.6019 0.6562 0.3509
H36 H 0.6008 0.7395 0.3192
C48 C 0.6995(6) 0.7543(5) 0.4085(4)
H37 H 0.7386 0.8049 0.3999
H38 H 0.6494 0.7708 0.4372
C49 C 1.0142(5) 0.4716(4) 0.3015(3)
H39 H 0.9725 0.4274 0.2737
C50 C 1.1528(5) 0.5485(4) 0.3599(3)
H40 H 1.2203 0.5672 0.3793
C51 C 1.0681(5) 0.5888(4) 0.3671(3)
C52 C 1.0531(5) 0.6698(4) 0.4033(3)
H41 H 1.1080 0.7052 0.4291
C53 C 0.9428(5) 0.7689(4) 0.4356(3)
H42 H 0.9180 0.8052 0.4045
H43 H 1.0060 0.7973 0.4624
C54 C 0.8627(6) 0.7511(5) 0.4816(3)
H44 H 0.8903 0.7192 0.5154
H45 H 0.8468 0.8037 0.5045
N11 N 0.7527(4) 0.4885(3) 0.2636(3)
N12 N 0.6668(5) 0.3803(4) 0.1954(3)
H46 H 0.6451 0.3462 0.1587
N13 N 0.7563(4) 0.5316(3) 0.3976(3)
N14 N 0.8819(4) 0.6436(3) 0.2379(3)
N15 N 0.9128(5) 0.6590(4) 0.1356(3)
H47 H 0.9438 0.6577 0.1008
N16 N 0.7218(4) 0.6782(4) 0.3006(3)
N17 N 0.9814(4) 0.5397(3) 0.3304(3)
N18 N 1.1171(4) 0.4750(4) 0.3182(3)
H48 H 1.1540 0.4371 0.3047
N19 N 0.9625(4) 0.6903(3) 0.3984(3)
N20 N 0.7685(4) 0.7037(3) 0.4423(3)
Fe2 Fe 0.84162(7) 0.60151(6) 0.33205(4)
Cl9 Cl 0.5415(2) -0.74738(16) 0.07307(12)
C55 C 0.9718(9) 0.0152(9) 0.3858(7)
H49 H 1.0266 -0.0066 0.4122
H50 H 1.0013 0.0639 0.3687
Cl10 Cl 0.9111(3) -0.0659(2) 0.31470(15)
Cl11 Cl 0.8819(3) 0.0433(2) 0.43528(17)
C56 C 0.1938(8) -0.4707(7) 0.0253(5)
H51 H 0.1260 -0.4524 0.0202
H52 H 0.1890 -0.5253 -0.0021
Cl12 Cl 0.2270(3) -0.4819(2) 0.1075(2)
Cl13 Cl 0.2775(3) -0.4004(2) -0.00597(18)
C57 C 0.693(2) 0.080(2) 0.0722(10)
H53 H 0.7099 0.0463 0.1075
H54 H 0.6318 0.1049 0.0818
Cl14 Cl 0.6668(8) 0.0243(5) 0.0109(4)
Cl15 Cl 0.8064(7) 0.1709(10) 0.0791(6)
C58 C 0.5098(15) -0.462(2) 0.1108(15)
H55 H 0.5219 -0.5189 0.0968
H56 H 0.4393 -0.4587 0.0917
Cl16 Cl 0.5031(3) -0.4587(3) 0.1916(3)
Cl17 Cl 0.5707(5) -0.4129(4) 0.0687(3)
C59 C 0.3371(15) -0.6549(10) 0.1466(7)
H57 H 0.3204 -0.7037 0.1671
H58 H 0.3035 -0.6096 0.1657
H59 H 0.4101 -0.6392 0.1547
C60 C 0.3011(12) -0.6746(10) 0.0713(9)
N21 N 0.2779(9) -0.6907(9) 0.0195(6)
C61 C 0.9328(8) -0.0124(5) 0.1506(5)
H60 H 0.9245 0.0185 0.1931
H61 H 0.9042 0.0151 0.1147
H62 H 1.0046 -0.0150 0.1486
O13 O 0.8813(4) -0.0947(3) 0.1439(3)
H63 H 0.9095 -0.1268 0.1194
loop_
_geom_bond_atom_site_label_1
_geom_bond_atom_site_label_2
_geom_bond_site_symmetry_1
_geom_bond_site_symmetry_2
C1 C2 1_555 1_555
C2 C3 1_555 1_555
C3 C4 1_555 1_555
C4 C5 1_555 1_555
C5 C6 1_555 1_555
C6 C1 1_555 1_555
C7 C8 1_555 1_555
C8 C9 1_555 1_555
C9 C10 1_555 1_555
C10 C11 1_555 1_555
C11 C12 1_555 1_555
C12 C7 1_555 1_555
C13 C14 1_555 1_555
C14 C15 1_555 1_555
C15 C16 1_555 1_555
C16 C17 1_555 1_555
C17 C18 1_555 1_555
C18 C13 1_555 1_555
O1 C1 1_555 1_555
O2 C2 1_555 1_555
O3 C4 1_555 1_555
O4 C5 1_555 1_555
O5 C7 1_555 1_555
O6 C8 1_555 1_555
O7 C10 1_555 1_555
O8 C11 1_555 1_555
O9 C13 1_555 1_555
O10 C14 1_555 1_555
O11 C16 1_555 1_555
O12 C17 1_555 1_555
Cl1 C3 1_555 1_555
Cl2 C6 1_555 1_555
Cl3 C9 1_555 1_555
Cl4 C12 1_555 1_555
Cl5 C15 1_555 1_555
Cl6 C18 1_555 1_555
Cl7 Mn1 1_555 1_555
Cl8 Mn1 1_555 1_555
Cr1 O1 1_555 1_555
Mn1 O3 1_555 1_555
C19 H1 1_555 1_555
C20 H2 1_555 1_555
C21 C20 1_555 1_555
C22 C21 1_555 1_555
H3 C22 1_555 1_555
C23 H4 1_555 1_555
H5 C23 1_555 1_555
C24 C23 1_555 1_555
H6 C24 1_555 1_555
H7 C24 1_555 1_555
C25 H8 1_555 1_555
C26 H9 1_555 1_555
C27 C26 1_555 1_555
C28 C27 1_555 1_555
H10 C28 1_555 1_555
C29 H11 1_555 1_555
H12 C29 1_555 1_555
C30 C29 1_555 1_555
H13 C30 1_555 1_555
H14 C30 1_555 1_555
C31 H15 1_555 1_555
C32 H16 1_555 1_555
C33 C32 1_555 1_555
C34 C33 1_555 1_555
H17 C34 1_555 1_555
C35 H18 1_555 1_555
H19 C35 1_555 1_555
C36 C35 1_555 1_555
H20 C36 1_555 1_555
H21 C36 1_555 1_555
N1 C19 1_555 1_555
N2 C19 1_555 1_555
H22 N2 1_555 1_555
N3 C22 1_555 1_555
N4 C25 1_555 1_555
N5 C25 1_555 1_555
H23 N5 1_555 1_555
N6 C28 1_555 1_555
N7 C31 1_555 1_555
N8 C31 1_555 1_555
H24 N8 1_555 1_555
N9 C34 1_555 1_555
N10 C24 1_555 1_555
Fe1 N1 1_555 1_555
C37 H25 1_555 1_555
C38 H26 1_555 1_555
C39 C38 1_555 1_555
C40 C39 1_555 1_555
H27 C40 1_555 1_555
C41 H28 1_555 1_555
H29 C41 1_555 1_555
C42 C41 1_555 1_555
H30 C42 1_555 1_555
H31 C42 1_555 1_555
C43 H32 1_555 1_555
C44 H33 1_555 1_555
C45 C44 1_555 1_555
C46 C45 1_555 1_555
H34 C46 1_555 1_555
C47 H35 1_555 1_555
H36 C47 1_555 1_555
C48 C47 1_555 1_555
H37 C48 1_555 1_555
H38 C48 1_555 1_555
C49 H39 1_555 1_555
C50 H40 1_555 1_555
C51 C50 1_555 1_555
C52 C51 1_555 1_555
H41 C52 1_555 1_555
C53 H42 1_555 1_555
H43 C53 1_555 1_555
C54 C53 1_555 1_555
H44 C54 1_555 1_555
H45 C54 1_555 1_555
N11 C37 1_555 1_555
N12 C37 1_555 1_555
H46 N12 1_555 1_555
N13 C40 1_555 1_555
N14 C43 1_555 1_555
N15 C43 1_555 1_555
H47 N15 1_555 1_555
N16 C46 1_555 1_555
N17 C49 1_555 1_555
N18 C49 1_555 1_555
H48 N18 1_555 1_555
N19 C52 1_555 1_555
N20 C42 1_555 1_555
Fe2 N11 1_555 1_555
C55 H49 1_555 1_555
H50 C55 1_555 1_555
Cl10 C55 1_555 1_555
Cl11 C55 1_555 1_555
C56 H51 1_555 1_555
H52 C56 1_555 1_555
Cl12 C56 1_555 1_555
Cl13 C56 1_555 1_555
C57 H53 1_555 1_555
H54 C57 1_555 1_555
Cl14 C57 1_555 1_555
Cl15 C57 1_555 1_555
C58 H55 1_555 1_555
H56 C58 1_555 1_555
Cl16 C58 1_555 1_555
Cl17 C58 1_555 1_555
C59 H57 1_555 1_555
H58 C59 1_555 1_555
H59 C59 1_555 1_555
C60 C59 1_555 1_555
N21 C60 1_555 1_555
C61 H60 1_555 1_555
H61 C61 1_555 1_555
H62 C61 1_555 1_555
O13 C61 1_555 1_555
H63 O13 1_555 1_555
O11_2 Cr1 1_555 1_555
O12_2 Cr1 1_555 1_555
Cr1_2 O11 1_555 1_555
O2 Cr1 1_555 1_555
O4 Mn1 1_555 1_555
O5 Cr1 1_555 1_555
O6 Cr1 1_555 1_555
O9 Mn1 1_555 1_555
O10 Mn1 1_555 1_555
O12 Cr1_2 1_555 1_555
C20 N2 1_555 1_555
C21 N1 1_555 1_555
C23 N3 1_555 1_555
C26 N5 1_555 1_555
C27 N4 1_555 1_555
C29 N6 1_555 1_555
C30 N10 1_555 1_555
C32 N8 1_555 1_555
C33 N7 1_555 1_555
C35 N9 1_555 1_555
C36 N10 1_555 1_555
N3 Fe1 1_555 1_555
N4 Fe1 1_555 1_555
N6 Fe1 1_555 1_555
N7 Fe1 1_555 1_555
N9 Fe1 1_555 1_555
C38 N12 1_555 1_555
C39 N11 1_555 1_555
C41 N13 1_555 1_555
C44 N15 1_555 1_555
C45 N14 1_555 1_555
C47 N16 1_555 1_555
C48 N20 1_555 1_555
C50 N18 1_555 1_555
C51 N17 1_555 1_555
C53 N19 1_555 1_555
C54 N20 1_555 1_555
N13 Fe2 1_555 1_555
N14 Fe2 1_555 1_555
N16 Fe2 1_555 1_555
N17 Fe2 1_555 1_555
N19 Fe2 1_555 1_555

#END
