
#######################################################################
#
#                 Cambridge Crystallographic Data Centre
#                                CCDC 
#
#######################################################################
#
# If this CIF has been generated from an entry in the Cambridge 
# Structural Database, then it will include bibliographic, chemical, 
# crystal, experimental, refinement or atomic coordinate data resulting 
# from the CCDC's data processing and validation procedures.
#
#######################################################################

data_HOWHAE
_symmetry_cell_setting           orthorhombic
_symmetry_space_group_name_H-M   'C 2 2 21'
_symmetry_Int_Tables_number      20
_space_group_name_Hall           'C 2n 2'
loop_
_symmetry_equiv_pos_site_id
_symmetry_equiv_pos_as_xyz
1 x,y,z
2 -x,-y,1/2+z
3 x,-y,-z
4 -x,y,1/2-z
5 1/2+x,1/2+y,z
6 1/2-x,1/2-y,1/2+z
7 1/2+x,1/2-y,-z
8 1/2-x,1/2+y,1/2-z
_cell_length_a                   12.9780(6)
_cell_length_b                   24.8692(12)
_cell_length_c                   21.9676(9)
_cell_angle_alpha                90
_cell_angle_beta                 90
_cell_angle_gamma                90
_cell_volume                     7090.1
loop_
_atom_site_label
_atom_site_type_symbol
_atom_site_fract_x
_atom_site_fract_y
_atom_site_fract_z
C1 C 0.1559(9) 0.3268(4) 0.7824(5)
C2 C 0.1894(9) 0.2989(4) 0.7228(5)
C3 C 0.2795(9) 0.3154(5) 0.6959(5)
C4 C 0.3406(9) 0.3563(4) 0.7207(5)
C5 C 0.3081(9) 0.3832(4) 0.7814(5)
C6 C 0.2149(9) 0.3650(5) 0.8088(5)
C7 C 0.5326(8) 0.6486(4) 0.7785(4)
C8 C 0.5637(8) 0.6003(4) 0.8048(4)
C9 C 0.5322(8) 0.5501(4) 0.7795(4)
O1 O 0.0676(7) 0.3103(3) 0.8016(4)
O2 O 0.1289(6) 0.2637(3) 0.7026(3)
O3 O 0.4227(6) 0.3743(3) 0.6990(3)
O4 O 0.3657(6) 0.4187(3) 0.8016(3)
O5 O 0.5556(6) 0.6949(3) 0.7986(3)
O6 O 0.5538(5) 0.5046(3) 0.8005(3)
Cl1 Cl 0.3206(3) 0.28439(12) 0.62841(13)
Cl2 Cl 0.1775(3) 0.39528(13) 0.87676(14)
Cl3 Cl 0.6427(2) 0.60214(12) 0.86753(12)
Cr1 Cr 0.0000 0.25529(9) 0.7500
Mn1 Mn 0.5000 0.43695(8) 0.7500
C8C C 0.4363(8) 0.6003(4) 0.6952(4)
C9C C 0.4678(8) 0.5501(4) 0.7205(4)
O6C O 0.4462(5) 0.5046(3) 0.6995(3)
Cl3C Cl 0.3573(2) 0.60214(12) 0.63247(12)
C7C C 0.4674(8) 0.6486(4) 0.7215(4)
O5C O 0.4444(6) 0.6949(3) 0.7014(3)
C1C C -0.1559(9) 0.3268(4) 0.7176(5)
C2C C -0.1894(9) 0.2989(4) 0.7772(5)
C3C C -0.2795(9) 0.3154(5) 0.8041(5)
C4C C -0.3406(9) 0.3563(4) 0.7793(5)
C5C C -0.3081(9) 0.3832(4) 0.7186(5)
C6C C -0.2149(9) 0.3650(5) 0.6912(5)
O1C O -0.0676(7) 0.3103(3) 0.6984(4)
O2C O -0.1289(6) 0.2637(3) 0.7974(3)
O3C O -0.4227(6) 0.3743(3) 0.8010(3)
O4C O -0.3657(6) 0.4187(3) 0.6984(3)
Cl1C Cl -0.3206(3) 0.28439(12) 0.87159(13)
Cl2C Cl -0.1775(3) 0.39528(13) 0.62324(14)
O3C_2 O 0.5773(6) 0.3743(3) 0.8010(3)
O4C_2 O 0.6343(6) 0.4187(3) 0.6984(3)
O5D O 0.0556(6) 0.1949(3) 0.7986(3)
O5G O -0.0556(6) 0.1949(3) 0.7014(3)
Cr1D Cr 0.5000 0.75529(9) 0.7500
Mn1_2 Mn -0.5000 0.43695(8) 0.7500
C10 C 0.1458(8) 0.0504(4) 0.6025(5)
C11 C 0.2011(8) 0.0424(5) 0.6554(5)
H1 H 0.2127 0.0074 0.6689
C12 C 0.2393(9) 0.0847(5) 0.6886(5)
H2 H 0.2757 0.0775 0.7241
C13 C 0.2255(10) 0.1379(5) 0.6709(5)
H3 H 0.2511 0.1660 0.6944
C14 C 0.1734(9) 0.1478(4) 0.6182(5)
H4 H 0.1652 0.1831 0.6051
C15 C 0.1311(9) 0.1045(4) 0.5826(5)
C16 C 0.0798(10) 0.1185(5) 0.5274(5)
H5 H 0.0764 0.1548 0.5173
C17 C -0.0097(11) 0.1026(4) 0.4335(5)
H6 H 0.0294 0.0898 0.3988
H7 H -0.0123 0.1416 0.4320
C18 C -0.1194(10) 0.0789(5) 0.4329(5)
H8 H -0.1603 0.0948 0.4652
H9 H -0.1526 0.0865 0.3943
C19 C -0.2087(9) -0.0040(5) 0.4662(5)
H10 H -0.2115 -0.0420 0.4565
H11 H -0.2681 0.0135 0.4482
N1 N 0.0376(7) 0.0846(3) 0.4903(4)
N2 N -0.1115(8) 0.0202(4) 0.4421(4)
H12 H -0.0992 0.0041 0.4020
O7 O 0.1101(6) 0.0097(3) 0.5708(3)
Fe1 Fe 0.02401(18) 0.0000 0.5000
C10B C 0.1458(8) -0.0504(4) 0.3975(5)
C11B C 0.2011(8) -0.0424(5) 0.3446(5)
H1B H 0.2127 -0.0074 0.3311
C12B C 0.2393(9) -0.0847(5) 0.3114(5)
H2B H 0.2757 -0.0775 0.2759
C13B C 0.2255(10) -0.1379(5) 0.3291(5)
H3B H 0.2511 -0.1660 0.3056
C14B C 0.1734(9) -0.1478(4) 0.3818(5)
H4B H 0.1652 -0.1831 0.3949
C15B C 0.1311(9) -0.1045(4) 0.4174(5)
C16B C 0.0798(10) -0.1185(5) 0.4726(5)
H5B H 0.0764 -0.1548 0.4827
C17B C -0.0097(11) -0.1026(4) 0.5665(5)
H6B H 0.0294 -0.0898 0.6012
H7B H -0.0123 -0.1416 0.5680
C18B C -0.1194(10) -0.0789(5) 0.5671(5)
H8B H -0.1603 -0.0948 0.5348
H9B H -0.1526 -0.0865 0.6057
N1B N 0.0376(7) -0.0846(3) 0.5097(4)
O7B O 0.1101(6) -0.0097(3) 0.4292(3)
C19B C -0.2087(9) 0.0040(5) 0.5338(5)
H10B H -0.2115 0.0420 0.5435
H11B H -0.2681 -0.0135 0.5518
N2B N -0.1115(8) -0.0202(4) 0.5579(4)
H12B H -0.0992 -0.0041 0.5980
C20 C 0.838(2) 0.5000 0.5000
H13 H 0.7934 0.4920 0.5344
Cl4 Cl 0.9089(12) 0.4438(7) 0.4832(5)
H13B H 0.7934 0.5080 0.4656
Cl4B Cl 0.9089(12) 0.5562(7) 0.5168(5)
C21 C 0.536(3) 0.9812(16) 0.3377(18)
H15 H 0.5527 0.9608 0.3734
H16 H 0.5252 0.9571 0.3041
H17 H 0.4740 1.0014 0.3448
C22 C 0.629(2) 1.0217(10) 0.3221(11)
N3 N 0.6878(14) 1.0472(7) 0.3119(7)
C23 C 0.0858(14) 0.3470(7) 0.5786(8)
H18 H 0.1104 0.3120 0.5900
H19 H 0.0120 0.3463 0.5758
H20 H 0.1064 0.3728 0.6087
C24 C 0.1277(17) 0.3615(9) 0.5216(10)
N4 N 0.1688(17) 0.3744(8) 0.4713(9)
C25 C -0.191(2) 0.2435(12) 0.5726(14)
H21 H -0.1664 0.2409 0.6136
H22 H -0.2347 0.2133 0.5637
H23 H -0.2300 0.2762 0.5680
C26 C -0.110(3) 0.2439(13) 0.5335(15)
N5 N -0.041(2) 0.2474(12) 0.5017(16)
C27 C 0.481(3) 0.1836(17) 0.8636(19)
O8 O 0.438(4) 0.2246(19) 0.825(2)
O9 O 0.5000 0.134(3) 0.7500
H14? H 0.7934 0.4920 0.5344
loop_
_geom_bond_atom_site_label_1
_geom_bond_atom_site_label_2
_geom_bond_site_symmetry_1
_geom_bond_site_symmetry_2
C1 C2 1_555 1_555
C2 C3 1_555 1_555
C3 C4 1_555 1_555
C4 C5 1_555 1_555
C5 C6 1_555 1_555
C6 C1 1_555 1_555
C7 C8 1_555 1_555
C8 C9 1_555 1_555
C9 O6 1_555 1_555
O1 C1 1_555 1_555
O2 C2 1_555 1_555
O3 C4 1_555 1_555
O4 C5 1_555 1_555
O5 C7 1_555 1_555
O6 Mn1 1_555 1_555
Cl1 C3 1_555 1_555
Cl2 C6 1_555 1_555
Cl3 C8 1_555 1_555
Cr1 O1 1_555 1_555
Mn1 O3 1_555 1_555
C10 C11 1_555 1_555
C11 H1 1_555 1_555
C12 C11 1_555 1_555
H2 C12 1_555 1_555
C13 C12 1_555 1_555
H3 C13 1_555 1_555
C14 C13 1_555 1_555
H4 C14 1_555 1_555
C15 C10 1_555 1_555
C16 C15 1_555 1_555
H5 C16 1_555 1_555
C17 H6 1_555 1_555
H7 C17 1_555 1_555
C18 C17 1_555 1_555
H8 C18 1_555 1_555
H9 C18 1_555 1_555
C19 H10 1_555 1_555
H11 C19 1_555 1_555
N1 C16 1_555 1_555
N2 C18 1_555 1_555
H12 N2 1_555 1_555
O7 C10 1_555 1_555
Fe1 N1 1_555 1_555
C20 H13 1_555 1_555
Cl4 C20 1_555 1_555
C21 H15 1_555 1_555
H16 C21 1_555 1_555
H17 C21 1_555 1_555
C22 C21 1_555 1_555
N3 C22 1_555 1_555
C23 H18 1_555 1_555
H19 C23 1_555 1_555
H20 C23 1_555 1_555
C24 C23 1_555 1_555
N4 C24 1_555 1_555
C25 H21 1_555 1_555
H22 C25 1_555 1_555
H23 C25 1_555 1_555
C26 C25 1_555 1_555
N5 C26 1_555 1_555
C27 O8 1_555 1_555
C8C C9C 1_555 1_555
C9C C9 1_555 1_555
O6C Mn1 1_555 1_555
Cl3C C8C 1_555 1_555
C7C C7 1_555 1_555
O5C C7C 1_555 1_555
C1C C2C 1_555 1_555
C2C C3C 1_555 1_555
C3C C4C 1_555 1_555
C4C C5C 1_555 1_555
C5C C6C 1_555 1_555
C6C C1C 1_555 1_555
O1C Cr1 1_555 1_555
O2C Cr1 1_555 1_555
O3C C4C 1_555 1_555
O4C C5C 1_555 1_555
Cl1C C3C 1_555 1_555
Cl2C C6C 1_555 1_555
O3C_2 Mn1 1_555 1_555
O4C_2 Mn1 1_555 1_555
O5D Cr1 1_555 1_555
O5G Cr1 1_555 1_555
Cr1D O5 1_555 1_555
Mn1_2 O3C 1_555 1_555
C10B C11B 1_555 1_555
C11B H1B 1_555 1_555
C12B C11B 1_555 1_555
H2B C12B 1_555 1_555
C13B C12B 1_555 1_555
H3B C13B 1_555 1_555
C14B C13B 1_555 1_555
H4B C14B 1_555 1_555
C15B C10B 1_555 1_555
C16B C15B 1_555 1_555
H5B C16B 1_555 1_555
C17B H6B 1_555 1_555
H7B C17B 1_555 1_555
C18B C17B 1_555 1_555
H8B C18B 1_555 1_555
H9B C18B 1_555 1_555
N1B Fe1 1_555 1_555
O7B Fe1 1_555 1_555
C19B C19 1_555 1_555
H10B C19B 1_555 1_555
H11B C19B 1_555 1_555
N2B Fe1 1_555 1_555
H12B N2B 1_555 1_555
H13B C20 1_555 1_555
Cl4B C20 1_555 1_555
O2 Cr1 1_555 1_555
O4 Mn1 1_555 1_555
C14 C15 1_555 1_555
C17 N1 1_555 1_555
C19 N2 1_555 1_555
N2 Fe1 1_555 1_555
O7 Fe1 1_555 1_555
C8C C7C 1_555 1_555
C9C O6C 1_555 1_555
O5C Cr1D 1_555 1_555
C1C O1C 1_555 1_555
C2C O2C 1_555 1_555
O4C Mn1_2 1_555 1_555
C10B O7B 1_555 1_555
C14B C15B 1_555 1_555
C16B N1B 1_555 1_555
C17B N1B 1_555 1_555
C18B N2B 1_555 1_555
C19B N2B 1_555 1_555

#END
