
#######################################################################
#
#                 Cambridge Crystallographic Data Centre
#                                CCDC 
#
#######################################################################
#
# If this CIF has been generated from an entry in the Cambridge 
# Structural Database, then it will include bibliographic, chemical, 
# crystal, experimental, refinement or atomic coordinate data resulting 
# from the CCDC's data processing and validation procedures.
#
#######################################################################

data_HOWHOS
_symmetry_cell_setting           monoclinic
_symmetry_space_group_name_H-M   'P 21/c'
_symmetry_Int_Tables_number      14
_space_group_name_Hall           '-P 2ybc'
loop_
_symmetry_equiv_pos_site_id
_symmetry_equiv_pos_as_xyz
1 x,y,z
2 -x,1/2+y,1/2-z
3 -x,-y,-z
4 x,1/2-y,1/2+z
_cell_length_a                   13.9066(8)
_cell_length_b                   23.1892(9)
_cell_length_c                   22.7189(13)
_cell_angle_alpha                90
_cell_angle_beta                 101.422(6)
_cell_angle_gamma                90
_cell_volume                     7181.36
loop_
_atom_site_label
_atom_site_type_symbol
_atom_site_fract_x
_atom_site_fract_y
_atom_site_fract_z
C21 C 0.7244(14) 0.5876(8) 0.2734(9)
C22 C 0.7013(17) 0.5386(9) 0.3040(10)
C23 C 0.7227(15) 0.4829(9) 0.2835(9)
C24 C 0.7580(15) 0.4758(9) 0.2239(9)
C25 C 0.7731(14) 0.5229(8) 0.1901(9)
C26 C 0.7549(14) 0.5805(8) 0.2112(10)
C27 C 0.5545(14) 0.3263(9) 0.2431(8)
C28 C 0.5998(14) 0.2981(9) 0.3022(9)
C29 C 0.5402(16) 0.2619(9) 0.3288(9)
C30 C 0.4479(14) 0.2482(7) 0.3013(9)
C31 C 0.3994(14) 0.2795(7) 0.2407(9)
C32 C 0.4596(16) 0.3168(10) 0.2154(9)
C33 C 1.0925(18) 0.2807(8) 0.2997(9)
C34 C 1.0412(18) 0.2436(9) 0.2421(9)
C35 C 0.9402(15) 0.2524(10) 0.2193(10)
C36 C 0.8889(13) 0.2925(8) 0.2435(8)
C37 C 0.9356(13) 0.3300(8) 0.2979(9)
C38 C 1.0351(14) 0.3242(8) 0.3184(8)
O3 O 0.7132(11) 0.4353(6) 0.3111(7)
O4 O 0.7766(11) 0.4245(6) 0.2131(7)
O5 O 0.7179(11) 0.6367(6) 0.2893(7)
O6 O 0.7663(12) 0.6243(6) 0.1843(7)
O7 O 0.6088(10) 0.3590(6) 0.2194(6)
O8 O 0.6881(11) 0.3130(6) 0.3215(7)
O9 O 0.3109(11) 0.2653(6) 0.2186(7)
O10 O 0.3927(12) 0.2137(6) 0.3209(6)
O11 O 1.1767(11) 0.2708(6) 0.3173(6)
O12 O 1.0959(9) 0.2084(6) 0.2253(6)
O13 O 0.8804(10) 0.3644(5) 0.3162(6)
O14 O 0.7958(10) 0.3025(6) 0.2253(7)
Cr1 Cr 0.7442(2) 0.36618(13) 0.26839(15)
Mn1 Mn 0.7551(2) 0.70403(13) 0.22934(15)
Br1 Br 0.6619(2) 0.54620(11) 0.37750(12)
Br2 Br 0.81011(19) 0.51420(10) 0.11704(10)
Br3 Br 0.59713(18) 0.22843(11) 0.40353(11)
Br4 Br 0.40046(19) 0.35531(11) 0.14366(11)
Br5 Br 1.09447(18) 0.37349(9) 0.38206(10)
Br6 Br 0.88211(18) 0.20787(11) 0.15251(11)
O9A O 0.6891(11) 0.7653(6) 0.2814(7)
O10A O 0.6073(12) 0.7137(6) 0.1791(6)
O11A O 0.8233(11) 0.7708(6) 0.1827(6)
O12A O 0.9041(9) 0.7084(6) 0.2747(6)
Mn1A Mn 0.2449(2) 0.20403(13) 0.27066(15)
Mn1A_2 Mn 1.2449(2) 0.20403(13) 0.27066(15)
C39 C 0.405(8) 0.720(5) 0.378(5)
H23 H 0.4263 0.7591 0.3700
H24 H 0.3356 0.7184 0.3603
Cl3 Cl 0.4721(12) 0.6671(6) 0.3314(7)
Cl4 Cl 0.4139(11) 0.7155(7) 0.4389(6)
C40 C 0.044(6) 0.538(3) 0.343(3)
H25 H 0.0888 0.5696 0.3414
H26 H 0.0809 0.5072 0.3663
Cl5 Cl -0.050(2) 0.5611(15) 0.380(3)
Cl6 Cl 0.0053(19) 0.5149(14) 0.2763(11)
O15 O 0.6240(19) 0.8772(11) 0.1410(11)
O16 O 0.514(4) 0.513(2) 0.105(2)
O17 O 0.834(5) 0.619(3) 0.795(3)
C41 C 0.093(6) 0.529(4) 0.562(4)
C42 C 0.119(5) 0.494(3) 0.521(3)
N5 N 0.148(4) 0.461(3) 0.485(3)
O18 O 0.445(4) 0.887(2) 1.072(2)
O19 O 0.200(5) 0.856(3) 0.970(3)
O20 O 0.395(4) 0.605(2) 0.972(2)
O21 O 0.290(4) 0.853(2) 0.425(2)
C45 C 0.461(5) 0.498(3) 0.234(3)
C46 C 0.467(6) 0.554(4) 0.205(4)
N7 N 0.489(3) 0.5869(16) 0.1944(15)
C1 C 0.8757(18) 0.6022(10) 0.9593(10)
C2 C 0.944(2) 0.5670(13) 0.9387(12)
H1 H 0.9995 0.5832 0.9282
C3 C 0.929(2) 0.5092(12) 0.9342(13)
H2 H 0.9766 0.4862 0.9221
C4 C 0.844(2) 0.4822(12) 0.9473(11)
C5 C 0.7709(16) 0.5181(9) 0.9651(9)
H3 H 0.7126 0.5028 0.9726
C6 C 0.7914(16) 0.5781(10) 0.9710(10)
C7 C 0.7110(16) 0.6086(9) 0.9905(10)
H4 H 0.6571 0.5880 0.9976
C8 C 0.6281(14) 0.6923(9) 1.0156(9)
H5 H 0.5845 0.7077 0.9804
H6 H 0.5915 0.6656 1.0356
C9 C 0.6697(17) 0.7401(11) 1.0572(12)
H7 H 0.6975 0.7241 1.0963
H8 H 0.6175 0.7663 1.0619
C10 C 0.707(2) 0.8178(10) 0.9877(10)
H9 H 0.7518 0.8504 0.9908
H10 H 0.6446 0.8314 0.9946
C11 C 0.6951(16) 0.7915(10) 0.9269(10)
H11 H 0.6894 0.8218 0.8970
H12 H 0.6351 0.7690 0.9188
C12 C 0.863(2) 0.7808(11) 0.9035(10)
H13 H 0.8397 0.8114 0.8752
H14 H 0.8987 0.7531 0.8840
C13 C 0.9327(17) 0.8065(11) 0.9607(11)
H15 H 0.9964 0.8157 0.9519
H16 H 0.9046 0.8414 0.9738
C14 C 1.0258(15) 0.7557(8) 1.0458(10)
H17 H 1.0779 0.7791 1.0408
C15 C 1.0422(16) 0.7164(8) 1.0934(8)
C16 C 1.1343(15) 0.7148(10) 1.1274(10)
H18 H 1.1820 0.7397 1.1186
C17 C 1.1591(14) 0.6756(9) 1.1764(10)
C18 C 1.0812(17) 0.6381(11) 1.1891(10)
H19 H 1.0948 0.6104 1.2192
C19 C 0.9867(18) 0.6443(9) 1.1557(11)
H20 H 0.9364 0.6230 1.1667
C20 C 0.965(2) 0.6804(10) 1.1071(10)
N1 N 0.7141(14) 0.6623(8) 0.9978(7)
N2 N 0.7482(14) 0.7729(7) 1.0337(9)
H21 H 0.7904 0.7922 1.0676
N3 N 0.7815(13) 0.7530(8) 0.9223(8)
H22 H 0.7572 0.7232 0.8924
N4 N 0.9423(12) 0.7620(7) 1.0076(8)
O1 O 0.8920(12) 0.6589(6) 0.9628(7)
O2 O 0.8736(11) 0.6817(6) 1.0777(6)
Fe1 Fe 0.8280(2) 0.71261(13) 1.00167(13)
Cl1 Cl 0.8262(7) 0.4084(3) 0.9407(4)
Cl2 Cl 1.2761(4) 0.6700(3) 1.2183(3)
C43? C 0.340(4) 0.896(3) 1.048(3)
C44? C 0.255(5) 0.877(3) 1.011(3)
N6? N 0.165(9) 0.878(5) 0.972(5)
loop_
_geom_bond_atom_site_label_1
_geom_bond_atom_site_label_2
_geom_bond_site_symmetry_1
_geom_bond_site_symmetry_2
C1 C2 1_555 1_555
C2 H1 1_555 1_555
C3 C2 1_555 1_555
H2 C3 1_555 1_555
C4 C3 1_555 1_555
C5 C4 1_555 1_555
H3 C5 1_555 1_555
C6 C1 1_555 1_555
C7 C6 1_555 1_555
H4 C7 1_555 1_555
C8 H5 1_555 1_555
H6 C8 1_555 1_555
C9 C8 1_555 1_555
H7 C9 1_555 1_555
H8 C9 1_555 1_555
C10 H9 1_555 1_555
H10 C10 1_555 1_555
C11 C10 1_555 1_555
H11 C11 1_555 1_555
H12 C11 1_555 1_555
C12 H13 1_555 1_555
H14 C12 1_555 1_555
C13 C12 1_555 1_555
H15 C13 1_555 1_555
H16 C13 1_555 1_555
C14 H17 1_555 1_555
C15 C14 1_555 1_555
C16 C15 1_555 1_555
H18 C16 1_555 1_555
C17 C16 1_555 1_555
C18 C17 1_555 1_555
H19 C18 1_555 1_555
C19 C18 1_555 1_555
H20 C19 1_555 1_555
C20 C15 1_555 1_555
N1 C7 1_555 1_555
N2 C9 1_555 1_555
H21 N2 1_555 1_555
N3 C11 1_555 1_555
H22 N3 1_555 1_555
N4 C13 1_555 1_555
O1 C1 1_555 1_555
O2 C20 1_555 1_555
Fe1 N1 1_555 1_555
Cl1 C4 1_555 1_555
Cl2 C17 1_555 1_555
C21 C22 1_555 1_555
C22 C23 1_555 1_555
C23 C24 1_555 1_555
C24 C25 1_555 1_555
C25 C26 1_555 1_555
C26 C21 1_555 1_555
C27 C28 1_555 1_555
C28 C29 1_555 1_555
C29 C30 1_555 1_555
C30 C31 1_555 1_555
C31 C32 1_555 1_555
C32 C27 1_555 1_555
C33 C34 1_555 1_555
C34 C35 1_555 1_555
C35 C36 1_555 1_555
C36 C37 1_555 1_555
C37 C38 1_555 1_555
C38 C33 1_555 1_555
O3 C23 1_555 1_555
O4 C24 1_555 1_555
O5 C21 1_555 1_555
O6 C26 1_555 1_555
O7 C27 1_555 1_555
O8 C28 1_555 1_555
O9 C31 1_555 1_555
O10 C30 1_555 1_555
O11 C33 1_555 1_555
O12 C34 1_555 1_555
O13 C37 1_555 1_555
O14 C36 1_555 1_555
Cr1 O3 1_555 1_555
Mn1 O5 1_555 1_555
Br1 C22 1_555 1_555
Br2 C25 1_555 1_555
Br3 C29 1_555 1_555
Br4 C32 1_555 1_555
Br5 C38 1_555 1_555
Br6 C35 1_555 1_555
C39 H23 1_555 1_555
H24 C39 1_555 1_555
Cl3 C39 1_555 1_555
Cl4 C39 1_555 1_555
C40 H25 1_555 1_555
H26 C40 1_555 1_555
Cl5 C40 1_555 1_555
Cl6 C40 1_555 1_555
C41 C42 1_555 1_555
C42 N5 1_555 1_555
C45 C46 1_555 1_555
C46 N7 1_555 1_555
O9A Mn1 1_555 1_555
O10A Mn1 1_555 1_555
O11A Mn1 1_555 1_555
O12A Mn1 1_555 1_555
Mn1A O9 1_555 1_555
Mn1A_2 O11 1_555 1_555
C5 C6 1_555 1_555
C8 N1 1_555 1_555
C10 N2 1_555 1_555
C12 N3 1_555 1_555
C14 N4 1_555 1_555
C19 C20 1_555 1_555
N2 Fe1 1_555 1_555
N3 Fe1 1_555 1_555
N4 Fe1 1_555 1_555
O1 Fe1 1_555 1_555
O2 Fe1 1_555 1_555
O4 Cr1 1_555 1_555
O6 Mn1 1_555 1_555
O7 Cr1 1_555 1_555
O8 Cr1 1_555 1_555
O10 Mn1A 1_555 1_555
O12 Mn1A_2 1_555 1_555
O13 Cr1 1_555 1_555
O14 Cr1 1_555 1_555

#END
