
#######################################################################
#
#                 Cambridge Crystallographic Data Centre
#                                CCDC 
#
#######################################################################
#
# If this CIF has been generated from an entry in the Cambridge 
# Structural Database, then it will include bibliographic, chemical, 
# crystal, experimental, refinement or atomic coordinate data resulting 
# from the CCDC's data processing and validation procedures.
#
#######################################################################

data_HOWJAG
_symmetry_cell_setting           triclinic
_symmetry_space_group_name_H-M   'P -1'
_symmetry_Int_Tables_number      2
_space_group_name_Hall           '-P 1'
loop_
_symmetry_equiv_pos_site_id
_symmetry_equiv_pos_as_xyz
1 x,y,z
2 -x,-y,-z
_cell_length_a                   13.2687(6)
_cell_length_b                   16.5753(4)
_cell_length_c                   20.3252(7)
_cell_angle_alpha                98.056(3)
_cell_angle_beta                 98.056(3)
_cell_angle_gamma                95.922(3)
_cell_volume                     4347.86
loop_
_atom_site_label
_atom_site_type_symbol
_atom_site_fract_x
_atom_site_fract_y
_atom_site_fract_z
C1 C 0.7376(7) 0.2009(5) 0.8411(4)
C2 C 0.7684(7) 0.2807(5) 0.8184(4)
C3 C 0.8601(8) 0.3241(5) 0.8428(5)
C4 C 0.9327(8) 0.2946(5) 0.8859(5)
C5 C 0.9009(8) 0.2114(5) 0.9111(4)
C6 C 0.8046(7) 0.1705(5) 0.8850(4)
C7 C 1.2383(7) 0.2247(5) 0.8658(4)
C8 C 1.2991(7) 0.3012(5) 0.9133(5)
C9 C 1.3975(7) 0.3267(5) 0.9026(4)
C10 C 1.4404(8) 0.2835(5) 0.8518(4)
C11 C 1.3809(8) 0.2103(5) 0.8061(4)
C12 C 1.2819(7) 0.1851(6) 0.8123(4)
C13 C 0.5184(8) 0.2904(6) 0.6410(5)
C14 C 0.4968(8) 0.3372(6) 0.5918(5)
C15 C 0.5131(8) 0.3131(6) 0.5269(5)
C16 C 0.5486(8) 0.2299(6) 0.5080(5)
C17 C 0.5742(8) 0.1832(6) 0.5592(5)
C18 C 0.5630(7) 0.2107(6) 0.6244(5)
O1 O 0.6460(5) 0.1674(4) 0.8175(3)
O2 O 0.6995(5) 0.3037(4) 0.7761(3)
O3 O 0.9680(5) 0.1899(4) 0.9522(3)
O4 O 1.0225(5) 0.3286(4) 0.9083(3)
O5 O 1.1502(5) 0.2029(4) 0.8780(3)
O6 O 1.2562(5) 0.3339(4) 0.9594(3)
O7 O 1.4315(5) 0.1752(4) 0.7624(3)
O8 O 1.5322(5) 0.3021(4) 0.8411(3)
O9 O 0.5882(5) 0.1733(4) 0.6757(3)
O10 O 0.5079(5) 0.3089(4) 0.7031(3)
O11 O 0.5551(7) 0.2061(4) 0.4475(4)
O12 O 0.5018(6) 0.3551(4) 0.4818(3)
Cl1 Cl 0.76880(19) 0.07844(14) 0.91290(12)
Cl2 Cl 0.8937(2) 0.42029(16) 0.81984(16)
Cl3 Cl 1.2123(2) 0.10105(16) 0.75941(13)
Cl4 Cl 1.46451(18) 0.41478(13) 0.95153(11)
Cl5 Cl 0.6182(3) 0.08777(17) 0.53917(13)
Cl6 Cl 0.4538(3) 0.43103(19) 0.61385(15)
Cl7 Cl 1.2135(2) 0.16597(15) 1.03063(12)
Cl8 Cl 1.0831(2) 0.36573(16) 1.07164(13)
Cr1 Cr 0.56588(12) 0.23497(9) 0.76090(7)
Mn1 Mn 1.11842(11) 0.26793(9) 0.98266(7)
O7_2 O 0.4315(5) 0.1752(4) 0.7624(3)
O8_2 O 0.5322(5) 0.3021(4) 0.8411(3)
Cr1_2 Cr 1.56588(12) 0.23497(9) 0.76090(7)
C19 C 0.5116(8) 0.4737(6) 0.7983(5)
H1 H 0.4702 0.4310 0.7692
C20 C 0.6503(9) 0.5489(6) 0.8596(5)
H2 H 0.7171 0.5676 0.8807
C21 C 0.5647(7) 0.5869(6) 0.8649(4)
C22 C 0.5509(8) 0.6640(6) 0.9029(5)
H3 H 0.6059 0.6974 0.9302
C23 C 0.4392(9) 0.7631(7) 0.9369(5)
H4 H 0.4112 0.7977 0.9060
H5 H 0.5022 0.7927 0.9631
C24 C 0.3624(8) 0.7436(7) 0.9837(5)
H6 H 0.3911 0.7108 1.0159
H7 H 0.3468 0.7941 1.0083
C25 C 0.4335(8) 0.6302(6) 0.6888(5)
H8 H 0.4921 0.6040 0.6940
C26 C 0.3150(10) 0.6918(7) 0.6438(6)
H9 H 0.2744 0.7161 0.6130
C27 C 0.2967(9) 0.6804(6) 0.7065(5)
C28 C 0.2192(10) 0.7008(7) 0.7459(6)
H10 H 0.1687 0.7312 0.7299
C29 C 0.1439(9) 0.7023(7) 0.8449(5)
H11 H 0.1006 0.6540 0.8512
H12 H 0.1006 0.7377 0.8233
C30 C 0.1977(10) 0.7465(7) 0.9116(6)
H13 H 0.2337 0.7983 0.9057
H14 H 0.1475 0.7584 0.9408
C31 C 0.2256(9) 0.4479(7) 0.6986(6)
H15 H 0.2530 0.4658 0.6627
C32 C 0.1348(10) 0.3717(8) 0.7550(7)
H16 H 0.0909 0.3297 0.7655
C33 C 0.1902(9) 0.4410(7) 0.8000(5)
C34 C 0.1959(8) 0.4662(6) 0.8680(5)
H17 H 0.1558 0.4369 0.8928
C35 C 0.2585(9) 0.5567(6) 0.9681(5)
H18 H 0.3284 0.5623 0.9914
H19 H 0.2171 0.5167 0.9869
C36 C 0.2162(9) 0.6404(6) 0.9776(6)
H20 H 0.1435 0.6329 0.9600
H21 H 0.2249 0.6622 1.0251
N1 N 0.4794(6) 0.5387(5) 0.8281(4)
N2 N 0.6163(6) 0.4775(5) 0.8163(4)
H22 H 0.6538 0.4412 0.8027
N3 N 0.4617(7) 0.6845(5) 0.8978(4)
N4 N 0.3733(6) 0.6398(5) 0.7341(4)
N5 N 0.4020(7) 0.6616(5) 0.6352(4)
H23 H 0.4322 0.6626 0.6005
N6 N 0.2194(6) 0.6777(5) 0.8021(4)
N7 N 0.2465(6) 0.4862(5) 0.7617(4)
N8 N 0.1596(8) 0.3801(6) 0.6938(6)
H24 H 0.1363 0.3466 0.6573
N9 N 0.2557(6) 0.5291(5) 0.8964(4)
N10 N 0.2699(7) 0.6986(5) 0.9428(4)
Fe1 Fe 0.33715(11) 0.59809(8) 0.83034(7)
C37 C 0.1301(9) 0.8961(6) 0.7047(6)
H25 H 0.1648 0.9213 0.7467
C38 C 0.0993(11) 0.8411(8) 0.5995(7)
H26 H 0.1068 0.8208 0.5556
C39 C 0.0111(9) 0.8395(7) 0.6244(6)
C40 C -0.0976(11) 0.8131(8) 0.5940(7)
H27 H -0.1155 0.7877 0.5495
C41 C -0.2721(10) 0.7990(8) 0.6046(7)
H28 H -0.2793 0.7731 0.5580
H29 H -0.3093 0.8465 0.6058
C42 C -0.3180(9) 0.7402(7) 0.6444(5)
H30 H -0.3901 0.7247 0.6265
H31 H -0.2843 0.6909 0.6406
C43 C -0.0406(9) 1.0556(7) 0.6583(6)
H32 H 0.0200 1.0410 0.6447
C44 C -0.1711(11) 1.1234(8) 0.6735(6)
H33 H -0.2154 1.1633 0.6723
C45 C -0.1859(9) 1.0524(7) 0.7008(6)
C46 C -0.2596(10) 1.0158(8) 0.7312(6)
H34 H -0.3168 1.0415 0.7392
C47 C -0.3296(11) 0.9082(8) 0.7773(7)
H35 H -0.3804 0.9455 0.7838
H36 H -0.3020 0.8956 0.8209
C48 C -0.3807(11) 0.8288(8) 0.7311(7)
H37 H -0.4297 0.8002 0.7538
H38 H -0.4179 0.8426 0.6905
C49 C 0.0270(8) 1.0290(6) 0.8565(5)
H39 H 0.0311 1.0765 0.8370
C50 C 0.0476(8) 0.9444(7) 0.9292(5)
H40 H 0.0664 0.9222 0.9680
C51 C -0.0083(8) 0.9057(6) 0.8703(5)
C52 C -0.0585(7) 0.8200(6) 0.8505(5)
H41 H -0.0553 0.7820 0.8801
C53 C -0.1618(9) 0.7166(7) 0.7694(6)
H42 H -0.1426 0.6825 0.8031
H43 H -0.1435 0.6923 0.7271
C54 C -0.2763(9) 0.7216(7) 0.7614(6)
H44 H -0.3131 0.6670 0.7460
H45 H -0.2945 0.7417 0.8048
N11 N 0.0291(7) 0.8735(5) 0.6906(4)
N12 N 0.1757(8) 0.8775(6) 0.6495(5)
H46 H 0.2399 0.8869 0.6468
N13 N -0.1633(8) 0.8262(6) 0.6302(4)
N14 N -0.0997(7) 1.0111(5) 0.6897(4)
N15 N -0.0802(9) 1.1254(6) 0.6485(5)
H47 H -0.0534 1.1641 0.6299
N16 N -0.2490(7) 0.9469(6) 0.7483(5)
N17 N -0.0234(6) 0.9560(5) 0.8260(4)
N18 N 0.0702(6) 1.0238(5) 0.9187(4)
H48 H 0.1060 1.0631 0.9472
N19 N -0.1063(6) 0.8017(5) 0.7906(4)
N20 N -0.3072(8) 0.7758(6) 0.7136(5)
Fe2 Fe -0.11160(12) 0.89615(9) 0.73005(7)
C55 C 0.688(2) 0.5230(18) 0.5386(14)
H49 H 0.6820 0.4677 0.5140
H50 H 0.6224 0.5429 0.5295
Cl9 Cl 0.7143(9) 0.5176(6) 0.6261(7)
Cl10 Cl 0.7799(8) 0.5857(7) 0.5060(5)
C56 C 0.4324(11) 0.9901(8) 0.6511(7)
H51 H 0.4832 0.9942 0.6905
H52 H 0.3870 1.0308 0.6584
H53 H 0.4656 0.9989 0.6133
O13 O 0.3755(7) 0.9109(5) 0.6382(4)
H54 H 0.3962 0.8842 0.6672
C57 C 0.827(2) 0.3478(18) 0.6392(15)
H55 H 0.7915 0.3079 0.6604
H56 H 0.8158 0.4019 0.6579
H57 H 0.8994 0.3433 0.6467
C58 C 0.794(2) 0.3347(19) 0.5757(18)
N21 N 0.783(2) 0.3221(18) 0.5256(16)
Cl11 Cl 0.0352(4) 0.2505(3) 0.57502(19)
C59 C 0.200(6) 0.102(4) 0.574(3)
Cl12 Cl 0.1888(17) 0.0357(12) 0.5028(10)
Cl13 Cl 0.2914(14) 0.1838(11) 0.5851(9)
C61 C 0.990(3) 0.607(2) 0.6347(15)
H58 H 0.9177 0.6044 0.6168
H59 H 1.0132 0.6632 0.6553
Cl16 Cl 0.9973(13) 0.5484(10) 0.6984(8)
Cl17 Cl 1.051(2) 0.5872(18) 0.5697(15)
C62 C 0.450(4) 1.009(3) 0.866(2)
Cl18 Cl 0.3797(10) 1.0496(8) 0.9340(6)
Cl19 Cl 0.4017(11) 0.9237(8) 0.8153(7)
C60? C 0.213(4) 0.090(4) 0.572(3)
Cl14? Cl 0.3240(15) 0.1204(12) 0.5465(9)
Cl15? Cl 0.1392(18) 0.0134(13) 0.5223(10)
C63? C 0.367(4) 0.996(3) 0.904(3)
Cl20? Cl 0.4727(17) 1.0631(14) 0.9051(11)
Cl21? Cl 0.3692(18) 0.9308(14) 0.8309(11)
loop_
_geom_bond_atom_site_label_1
_geom_bond_atom_site_label_2
_geom_bond_site_symmetry_1
_geom_bond_site_symmetry_2
C1 C2 1_555 1_555
C2 C3 1_555 1_555
C3 C4 1_555 1_555
C4 C5 1_555 1_555
C5 C6 1_555 1_555
C6 C1 1_555 1_555
C7 C8 1_555 1_555
C8 C9 1_555 1_555
C9 C10 1_555 1_555
C10 C11 1_555 1_555
C11 C12 1_555 1_555
C12 C7 1_555 1_555
C13 C14 1_555 1_555
C14 C15 1_555 1_555
C15 C16 1_555 1_555
C16 C17 1_555 1_555
C17 C18 1_555 1_555
C18 C13 1_555 1_555
O1 C1 1_555 1_555
O2 C2 1_555 1_555
O3 C5 1_555 1_555
O4 C4 1_555 1_555
O5 C7 1_555 1_555
O6 C8 1_555 1_555
O7 C11 1_555 1_555
O8 C10 1_555 1_555
O9 C18 1_555 1_555
O10 C13 1_555 1_555
O11 C16 1_555 1_555
O12 C15 1_555 1_555
Cl1 C6 1_555 1_555
Cl2 C3 1_555 1_555
Cl3 C12 1_555 1_555
Cl4 C9 1_555 1_555
Cl5 C17 1_555 1_555
Cl6 C14 1_555 1_555
Cl7 Mn1 1_555 1_555
Cl8 Mn1 1_555 1_555
Cr1 O1 1_555 1_555
Mn1 O3 1_555 1_555
C19 H1 1_555 1_555
C20 H2 1_555 1_555
C21 C20 1_555 1_555
C22 C21 1_555 1_555
H3 C22 1_555 1_555
C23 H4 1_555 1_555
H5 C23 1_555 1_555
C24 C23 1_555 1_555
H6 C24 1_555 1_555
H7 C24 1_555 1_555
C25 H8 1_555 1_555
C26 H9 1_555 1_555
C27 C26 1_555 1_555
C28 C27 1_555 1_555
H10 C28 1_555 1_555
C29 H11 1_555 1_555
H12 C29 1_555 1_555
C30 C29 1_555 1_555
H13 C30 1_555 1_555
H14 C30 1_555 1_555
C31 H15 1_555 1_555
C32 H16 1_555 1_555
C33 C32 1_555 1_555
C34 C33 1_555 1_555
H17 C34 1_555 1_555
C35 H18 1_555 1_555
H19 C35 1_555 1_555
C36 C35 1_555 1_555
H20 C36 1_555 1_555
H21 C36 1_555 1_555
N1 C19 1_555 1_555
N2 C19 1_555 1_555
H22 N2 1_555 1_555
N3 C22 1_555 1_555
N4 C25 1_555 1_555
N5 C25 1_555 1_555
H23 N5 1_555 1_555
N6 C28 1_555 1_555
N7 C31 1_555 1_555
N8 C31 1_555 1_555
H24 N8 1_555 1_555
N9 C34 1_555 1_555
N10 C24 1_555 1_555
Fe1 N1 1_555 1_555
C37 H25 1_555 1_555
C38 H26 1_555 1_555
C39 C38 1_555 1_555
C40 C39 1_555 1_555
H27 C40 1_555 1_555
C41 H28 1_555 1_555
H29 C41 1_555 1_555
C42 C41 1_555 1_555
H30 C42 1_555 1_555
H31 C42 1_555 1_555
C43 H32 1_555 1_555
C44 H33 1_555 1_555
C45 C44 1_555 1_555
C46 C45 1_555 1_555
H34 C46 1_555 1_555
C47 H35 1_555 1_555
H36 C47 1_555 1_555
C48 C47 1_555 1_555
H37 C48 1_555 1_555
H38 C48 1_555 1_555
C49 H39 1_555 1_555
C50 H40 1_555 1_555
C51 C50 1_555 1_555
C52 C51 1_555 1_555
H41 C52 1_555 1_555
C53 H42 1_555 1_555
H43 C53 1_555 1_555
C54 C53 1_555 1_555
H44 C54 1_555 1_555
H45 C54 1_555 1_555
N11 C37 1_555 1_555
N12 C37 1_555 1_555
H46 N12 1_555 1_555
N13 C40 1_555 1_555
N14 C43 1_555 1_555
N15 C43 1_555 1_555
H47 N15 1_555 1_555
N16 C46 1_555 1_555
N17 C49 1_555 1_555
N18 C49 1_555 1_555
H48 N18 1_555 1_555
N19 C52 1_555 1_555
N20 C42 1_555 1_555
Fe2 N11 1_555 1_555
C55 H49 1_555 1_555
H50 C55 1_555 1_555
Cl9 C55 1_555 1_555
Cl10 C55 1_555 1_555
C56 H51 1_555 1_555
H52 C56 1_555 1_555
H53 C56 1_555 1_555
O13 C56 1_555 1_555
H54 O13 1_555 1_555
C57 H55 1_555 1_555
H56 C57 1_555 1_555
H57 C57 1_555 1_555
C58 C57 1_555 1_555
N21 C58 1_555 1_555
C59 Cl12 1_555 1_555
Cl13 C59 1_555 1_555
C61 H58 1_555 1_555
H59 C61 1_555 1_555
Cl16 C61 1_555 1_555
Cl17 C61 1_555 1_555
C62 Cl18 1_555 1_555
Cl19 C62 1_555 1_555
O7_2 Cr1 1_555 1_555
O8_2 Cr1 1_555 1_555
Cr1_2 O7 1_555 1_555
O2 Cr1 1_555 1_555
O4 Mn1 1_555 1_555
O5 Mn1 1_555 1_555
O6 Mn1 1_555 1_555
O8 Cr1_2 1_555 1_555
O9 Cr1 1_555 1_555
O10 Cr1 1_555 1_555
C20 N2 1_555 1_555
C21 N1 1_555 1_555
C23 N3 1_555 1_555
C26 N5 1_555 1_555
C27 N4 1_555 1_555
C29 N6 1_555 1_555
C30 N10 1_555 1_555
C32 N8 1_555 1_555
C33 N7 1_555 1_555
C35 N9 1_555 1_555
C36 N10 1_555 1_555
N3 Fe1 1_555 1_555
N4 Fe1 1_555 1_555
N6 Fe1 1_555 1_555
N7 Fe1 1_555 1_555
N9 Fe1 1_555 1_555
C38 N12 1_555 1_555
C39 N11 1_555 1_555
C41 N13 1_555 1_555
C44 N15 1_555 1_555
C45 N14 1_555 1_555
C47 N16 1_555 1_555
C48 N20 1_555 1_555
C50 N18 1_555 1_555
C51 N17 1_555 1_555
C53 N19 1_555 1_555
C54 N20 1_555 1_555
N13 Fe2 1_555 1_555
N14 Fe2 1_555 1_555
N16 Fe2 1_555 1_555
N17 Fe2 1_555 1_555
N19 Fe2 1_555 1_555

#END
