
#######################################################################
#
#                 Cambridge Crystallographic Data Centre
#                                CCDC 
#
#######################################################################
#
# If this CIF has been generated from an entry in the Cambridge 
# Structural Database, then it will include bibliographic, chemical, 
# crystal, experimental, refinement or atomic coordinate data resulting 
# from the CCDC's data processing and validation procedures.
#
#######################################################################

data_HOWNOY01
_symmetry_cell_setting           triclinic
_symmetry_space_group_name_H-M   'P -1'
_symmetry_Int_Tables_number      2
_space_group_name_Hall           '-P 1'
loop_
_symmetry_equiv_pos_site_id
_symmetry_equiv_pos_as_xyz
1 x,y,z
2 -x,-y,-z
_cell_length_a                   10.6065(8)
_cell_length_b                   11.6485(9)
_cell_length_c                   17.4513(14)
_cell_angle_alpha                80.612(2)
_cell_angle_beta                 75.2150(10)
_cell_angle_gamma                89.821(2)
_cell_volume                     2055.12
loop_
_atom_site_label
_atom_site_type_symbol
_atom_site_fract_x
_atom_site_fract_y
_atom_site_fract_z
C1 C 0.0901(3) 0.3172(3) -0.0529(2)
C2 C 0.1520(4) 0.2120(3) -0.0840(3)
C3 C 0.2038(5) 0.2247(4) -0.1654(3)
H1 H 0.1949 0.2954 -0.1967
C4 C 0.2698(7) 0.1368(6) -0.2042(5)
H2 H 0.3035 0.1487 -0.2597
C5 C 0.2822(7) 0.0368(7) -0.1594(5)
H3 H 0.3266 -0.0216 -0.1844
C6 C 0.2300(5) 0.0143(4) -0.0739(5)
C7 C 0.2391(7) -0.0945(5) -0.0266(6)
H4 H 0.2822 -0.1535 -0.0515
C8 C 0.1861(7) -0.1157(5) 0.0551(6)
H5 H 0.1952 -0.1879 0.0845
C9 C 0.1176(6) -0.0286(4) 0.0951(4)
H6 H 0.0819 -0.0429 0.1504
C10 C 0.1048(4) 0.0783(3) 0.0499(3)
H7 H 0.0579 0.1350 0.0756
C11 C 0.1614(4) 0.1039(3) -0.0345(3)
C12 C 0.2328(3) 0.5764(3) -0.02350(19)
C13 C 0.3699(3) 0.6243(3) -0.0410(2)
C14 C 0.4220(3) 0.6233(3) 0.0234(2)
H8 H 0.3734 0.5892 0.0743
C15 C 0.5470(4) 0.6723(4) 0.0147(3)
H9 H 0.5803 0.6693 0.0594
C16 C 0.6183(4) 0.7232(4) -0.0578(3)
H10 H 0.7001 0.7567 -0.0629
C17 C 0.5708(3) 0.7265(3) -0.1264(3)
C18 C 0.6454(4) 0.7820(4) -0.2046(3)
H11 H 0.7268 0.8162 -0.2095
C19 C 0.6024(5) 0.7863(5) -0.2698(3)
H12 H 0.6522 0.8251 -0.3191
C20 C 0.4830(5) 0.7328(4) -0.2647(3)
H13 H 0.4542 0.7347 -0.3110
C21 C 0.4061(4) 0.6768(4) -0.1916(2)
H14 H 0.3272 0.6404 -0.1897
C22 C 0.4462(3) 0.6741(3) -0.1196(2)
C23 C 0.1406(4) -0.1129(3) 0.4017(2)
C24 C 0.2245(4) -0.1793(4) 0.3414(2)
C25 C 0.2930(5) -0.1158(4) 0.2699(3)
H15 H 0.2815 -0.0361 0.2595
C26 C 0.3805(6) -0.1682(6) 0.2119(3)
H16 H 0.4282 -0.1233 0.1643
C27 C 0.3947(6) -0.2859(6) 0.2262(4)
H17 H 0.4523 -0.3210 0.1879
C28 C 0.3240(5) -0.3538(4) 0.2972(3)
C29 C 0.3383(6) -0.4773(5) 0.3134(4)
H18 H 0.3939 -0.5126 0.2745
C30 C 0.2747(6) -0.5432(5) 0.3823(4)
H19 H 0.2898 -0.6222 0.3926
C31 C 0.1876(5) -0.4925(5) 0.4370(4)
H20 H 0.1396 -0.5396 0.4836
C32 C 0.1670(4) -0.3755(3) 0.4270(3)
H21 H 0.1065 -0.3450 0.4664
C33 C 0.2366(4) -0.3015(4) 0.3575(3)
C34 C 0.1981(3) 0.1064(3) 0.5147(2)
C35 C 0.3107(4) 0.1749(4) 0.5249(2)
C36 C 0.4356(4) 0.1516(4) 0.4891(3)
H22 H 0.4525 0.0898 0.4608
C37 C 0.5407(5) 0.2230(6) 0.4955(4)
H23 H 0.6266 0.2083 0.4713
C38 C 0.5136(6) 0.3116(6) 0.5368(4)
H24 H 0.5828 0.3584 0.5395
C39 C 0.3900(5) 0.3369(5) 0.5752(3)
C40 C 0.3646(8) 0.4315(6) 0.6178(4)
H25 H 0.4331 0.4792 0.6204
C41 C 0.2446(10) 0.4515(7) 0.6533(5)
H26 H 0.2285 0.5143 0.6807
C42 C 0.1412(7) 0.3820(6) 0.6512(4)
H27 H 0.0569 0.3982 0.6776
C43 C 0.1603(5) 0.2908(5) 0.6115(3)
H28 H 0.0894 0.2439 0.6117
C44 C 0.2850(5) 0.2665(4) 0.5703(3)
C45 C -0.0730(4) 0.2511(3) 0.2121(2)
H29 H -0.1164 0.2280 0.1768
C46 C -0.0781(4) 0.1788(3) 0.2834(2)
H30 H -0.1236 0.1074 0.2945
C47 C 0.0441(4) 0.3096(3) 0.3169(2)
H31 H 0.0866 0.3332 0.3526
C48 C 0.0502(4) 0.3814(3) 0.2452(2)
H32 H 0.0967 0.4524 0.2339
Cu1 Cu 0.00450(3) 0.45668(3) 0.07183(2)
Cu2 Cu -0.00950(4) 0.08004(4) 0.44099(2)
N1 N -0.0072(3) 0.3537(2) 0.19219(16)
N2 N -0.0206(3) 0.2077(2) 0.33651(17)
O1 O 0.0616(3) 0.3957(2) -0.10296(15)
O2 O 0.0714(2) 0.32228(19) 0.02099(15)
O3 O 0.1831(2) 0.5214(2) 0.04579(14)
O4 O 0.1745(2) 0.5959(2) -0.07790(14)
O5 O 0.1003(3) -0.0185(3) 0.37430(15)
O6 O 0.1188(3) -0.1551(2) 0.47448(16)
O7 O 0.1633(3) 0.0119(2) 0.56090(15)
O8 O 0.1456(3) 0.1500(2) 0.46105(15)
Cu1A Cu -0.00450(3) 0.54332(3) -0.07183(2)
Cu2A Cu 0.00950(4) -0.08004(4) 0.55901(2)
O1A O -0.0616(3) 0.6043(2) 0.10296(15)
O4A O -0.1745(2) 0.4041(2) 0.07790(14)
O6A O -0.1188(3) 0.1551(2) 0.52552(16)
O7A O -0.1633(3) -0.0119(2) 0.43910(15)
loop_
_geom_bond_atom_site_label_1
_geom_bond_atom_site_label_2
_geom_bond_site_symmetry_1
_geom_bond_site_symmetry_2
C1 C2 1_555 1_555
C2 C3 1_555 1_555
C3 H1 1_555 1_555
C4 C3 1_555 1_555
H2 C4 1_555 1_555
C5 C4 1_555 1_555
H3 C5 1_555 1_555
C6 C5 1_555 1_555
C7 C6 1_555 1_555
H4 C7 1_555 1_555
C8 C7 1_555 1_555
H5 C8 1_555 1_555
C9 C8 1_555 1_555
H6 C9 1_555 1_555
C10 C9 1_555 1_555
H7 C10 1_555 1_555
C11 C2 1_555 1_555
C12 C13 1_555 1_555
C13 C14 1_555 1_555
C14 H8 1_555 1_555
C15 C14 1_555 1_555
H9 C15 1_555 1_555
C16 C15 1_555 1_555
H10 C16 1_555 1_555
C17 C16 1_555 1_555
C18 C17 1_555 1_555
H11 C18 1_555 1_555
C19 C18 1_555 1_555
H12 C19 1_555 1_555
C20 C19 1_555 1_555
H13 C20 1_555 1_555
C21 C20 1_555 1_555
H14 C21 1_555 1_555
C22 C13 1_555 1_555
C23 C24 1_555 1_555
C24 C25 1_555 1_555
C25 H15 1_555 1_555
C26 C25 1_555 1_555
H16 C26 1_555 1_555
C27 C26 1_555 1_555
H17 C27 1_555 1_555
C28 C27 1_555 1_555
C29 C28 1_555 1_555
H18 C29 1_555 1_555
C30 C29 1_555 1_555
H19 C30 1_555 1_555
C31 C30 1_555 1_555
H20 C31 1_555 1_555
C32 C31 1_555 1_555
H21 C32 1_555 1_555
C33 C24 1_555 1_555
C34 C35 1_555 1_555
C35 C36 1_555 1_555
C36 H22 1_555 1_555
C37 C36 1_555 1_555
H23 C37 1_555 1_555
C38 C37 1_555 1_555
H24 C38 1_555 1_555
C39 C38 1_555 1_555
C40 C39 1_555 1_555
H25 C40 1_555 1_555
C41 C40 1_555 1_555
H26 C41 1_555 1_555
C42 C41 1_555 1_555
H27 C42 1_555 1_555
C43 C42 1_555 1_555
H28 C43 1_555 1_555
C44 C35 1_555 1_555
C45 H29 1_555 1_555
C46 C45 1_555 1_555
H30 C46 1_555 1_555
C47 H31 1_555 1_555
C48 C47 1_555 1_555
H32 C48 1_555 1_555
Cu1 N1 1_555 1_555
Cu2 N2 1_555 1_555
N1 C45 1_555 1_555
N2 C46 1_555 1_555
O1 C1 1_555 1_555
O2 C1 1_555 1_555
O3 C12 1_555 1_555
O4 C12 1_555 1_555
O5 C23 1_555 1_555
O6 C23 1_555 1_555
O7 C34 1_555 1_555
O8 C34 1_555 1_555
Cu1A Cu1 1_555 1_555
Cu2A Cu2 1_555 1_555
O1A Cu1 1_555 1_555
O4A Cu1 1_555 1_555
O6A Cu2 1_555 1_555
O7A Cu2 1_555 1_555
C6 C11 1_555 1_555
C10 C11 1_555 1_555
C17 C22 1_555 1_555
C21 C22 1_555 1_555
C28 C33 1_555 1_555
C32 C33 1_555 1_555
C39 C44 1_555 1_555
C43 C44 1_555 1_555
C47 N2 1_555 1_555
C48 N1 1_555 1_555
Cu1 O2 1_555 1_555
Cu1 O3 1_555 1_555
Cu2 O5 1_555 1_555
Cu2 O8 1_555 1_555
O1 Cu1A 1_555 1_555
O4 Cu1A 1_555 1_555
O6 Cu2A 1_555 1_555
O7 Cu2A 1_555 1_555

#END
