
#######################################################################
#
#                 Cambridge Crystallographic Data Centre
#                                CCDC 
#
#######################################################################
#
# If this CIF has been generated from an entry in the Cambridge 
# Structural Database, then it will include bibliographic, chemical, 
# crystal, experimental, refinement or atomic coordinate data resulting 
# from the CCDC's data processing and validation procedures.
#
#######################################################################

data_HOWNOY
_symmetry_cell_setting           triclinic
_symmetry_space_group_name_H-M   'P -1'
_symmetry_Int_Tables_number      2
_space_group_name_Hall           '-P 1'
loop_
_symmetry_equiv_pos_site_id
_symmetry_equiv_pos_as_xyz
1 x,y,z
2 -x,-y,-z
_cell_length_a                   10.4745(11)
_cell_length_b                   11.6064(12)
_cell_length_c                   17.0370(17)
_cell_angle_alpha                97.583(2)
_cell_angle_beta                 104.918(2)
_cell_angle_gamma                90.081(2)
_cell_volume                     1982.54
loop_
_atom_site_label
_atom_site_type_symbol
_atom_site_fract_x
_atom_site_fract_y
_atom_site_fract_z
C1 C 0.1471(3) 0.3852(3) 0.60091(17)
C2 C 0.2311(3) 0.3140(3) 0.66124(18)
C3 C 0.2416(3) 0.1910(2) 0.64249(18)
C4 C 0.1680(3) 0.1216(2) 0.57014(18)
H1 H 0.1036 0.1563 0.5310
C5 C 0.1887(3) 0.0046(3) 0.5561(2)
H2 H 0.1396 -0.0402 0.5067
C6 C 0.2812(3) -0.0497(3) 0.6134(2)
H3 H 0.2969 -0.1300 0.6021
C7 C 0.3481(3) 0.0132(3) 0.6849(2)
H4 H 0.4078 -0.0248 0.7245
C8 C 0.3314(3) 0.1347(3) 0.70239(19)
C9 C 0.4048(3) 0.1985(3) 0.7765(2)
H5 H 0.4659 0.1600 0.8150
C10 C 0.3893(3) 0.3147(3) 0.7935(2)
H6 H 0.4372 0.3566 0.8443
C11 C 0.3021(3) 0.3720(3) 0.73533(18)
H7 H 0.2918 0.4532 0.7475
C12 C 0.1963(3) 0.6081(2) 0.47870(16)
C13 C 0.3060(3) 0.6807(2) 0.46641(17)
C14 C 0.2729(3) 0.7749(3) 0.42037(17)
C15 C 0.1416(3) 0.7941(3) 0.37750(19)
H8 H 0.0720 0.7420 0.3781
C16 C 0.1144(3) 0.8870(3) 0.3353(2)
H9 H 0.0258 0.8993 0.3069
C17 C 0.2165(3) 0.9650(3) 0.3334(2)
H10 H 0.1960 1.0301 0.3045
C18 C 0.3431(3) 0.9478(3) 0.3723(2)
H11 H 0.4110 1.0007 0.3702
C19 C 0.3761(3) 0.8518(3) 0.41633(18)
C20 C 0.5081(3) 0.8292(3) 0.45549(18)
H12 H 0.5774 0.8810 0.4539
C21 C 0.5374(3) 0.7352(3) 0.49527(19)
H13 H 0.6271 0.7195 0.5189
C22 C 0.4349(3) 0.6601(3) 0.50172(19)
H14 H 0.4559 0.5952 0.5307
C23 C 0.0894(2) 0.8151(2) 1.05587(17)
C24 C 0.1521(3) 0.7076(2) 1.08711(18)
C25 C 0.1599(3) 0.6013(2) 1.0342(2)
C26 C 0.1009(3) 0.5800(2) 0.9494(2)
H15 H 0.0513 0.6391 0.9232
C27 C 0.1126(3) 0.4764(3) 0.9032(2)
H16 H 0.0722 0.4651 0.8459
C28 C 0.1844(4) 0.3867(3) 0.9403(3)
H17 H 0.1933 0.3152 0.9082
C29 C 0.2400(4) 0.4027(3) 1.0212(3)
H18 H 0.2875 0.3413 1.0458
C30 C 0.2304(3) 0.5092(3) 1.0720(2)
C31 C 0.2868(4) 0.5233(3) 1.1580(3)
H19 H 0.3334 0.4615 1.1824
C32 C 0.2753(4) 0.6230(3) 1.2054(2)
H20 H 0.3122 0.6306 1.2630
C33 C 0.2085(3) 0.7159(3) 1.1696(2)
H21 H 0.2024 0.7862 1.2037
C34 C 0.2364(2) 1.0771(2) 1.02724(16)
C35 C 0.3752(2) 1.1265(2) 1.04704(17)
C36 C 0.4475(3) 1.1799(2) 1.12752(17)
C37 C 0.4025(3) 1.1829(3) 1.20012(18)
H22 H 0.3219 1.1432 1.1977
C38 C 0.4746(3) 1.2428(3) 1.27386(19)
H23 H 0.4416 1.2455 1.3210
C39 C 0.5962(3) 1.2998(3) 1.2801(2)
H24 H 0.6445 1.3413 1.3309
C40 C 0.6439(3) 1.2950(3) 1.2132(2)
H25 H 0.7268 1.3324 1.2181
C41 C 0.5730(3) 1.2354(2) 1.13574(19)
C42 C 0.6262(3) 1.2316(3) 1.0674(2)
H26 H 0.7105 1.2673 1.0737
C43 C 0.5581(3) 1.1775(3) 0.9928(2)
H27 H 0.5956 1.1741 0.9473
C44 C 0.4317(3) 1.1262(3) 0.98272(18)
H28 H 0.3843 1.0904 0.9298
C45 C -0.0783(3) 0.6798(2) 0.71918(17)
H29 H -0.1297 0.6092 0.7086
C46 C -0.0714(3) 0.7542(2) 0.79053(16)
H30 H -0.1196 0.7344 0.8274
C47 C 0.0679(3) 0.8773(2) 0.75568(17)
H31 H 0.1225 0.9461 0.7674
C48 C 0.0587(3) 0.8038(2) 0.68365(17)
H32 H 0.1057 0.8242 0.6464
Cu1 Cu -0.00768(3) 0.57747(3) 0.560402(19)
Cu2 Cu 0.00785(3) 0.96055(3) 0.927393(18)
N1 N -0.0145(2) 0.70480(19) 0.66492(13)
N2 N 0.0018(2) 0.85374(19) 0.80904(13)
O1 O 0.1243(2) 0.34717(18) 0.52577(13)
O2 O 0.1070(2) 0.47831(19) 0.62972(13)
O3 O 0.1453(2) 0.64868(18) 0.53530(13)
O4 O 0.1612(2) 0.51471(18) 0.43225(13)
O5 O 0.0743(2) 0.82451(16) 0.98132(12)
O6 O 0.0576(2) 0.89131(17) 1.10686(12)
O7 O 0.17471(18) 1.09236(18) 1.08190(12)
O8 O 0.18879(18) 1.02539(17) 0.95605(11)
Cu1A Cu 0.00768(3) 0.42253(3) 0.439598(19)
Cu2A Cu -0.00785(3) 1.03945(3) 1.072607(18)
O1A O -0.1243(2) 0.65283(18) 0.47423(13)
O4A O -0.1612(2) 0.48529(18) 0.56775(13)
O6A O -0.0576(2) 1.10869(17) 0.89314(12)
O7A O -0.17471(18) 0.90764(18) 0.91810(12)
loop_
_geom_bond_atom_site_label_1
_geom_bond_atom_site_label_2
_geom_bond_site_symmetry_1
_geom_bond_site_symmetry_2
C1 C2 1_555 1_555
C2 C3 1_555 1_555
C3 C4 1_555 1_555
C4 H1 1_555 1_555
C5 C4 1_555 1_555
H2 C5 1_555 1_555
C6 C5 1_555 1_555
H3 C6 1_555 1_555
C7 C6 1_555 1_555
H4 C7 1_555 1_555
C8 C3 1_555 1_555
C9 C8 1_555 1_555
H5 C9 1_555 1_555
C10 C9 1_555 1_555
H6 C10 1_555 1_555
C11 C2 1_555 1_555
H7 C11 1_555 1_555
C12 C13 1_555 1_555
C13 C14 1_555 1_555
C14 C15 1_555 1_555
C15 H8 1_555 1_555
C16 C15 1_555 1_555
H9 C16 1_555 1_555
C17 C16 1_555 1_555
H10 C17 1_555 1_555
C18 C17 1_555 1_555
H11 C18 1_555 1_555
C19 C14 1_555 1_555
C20 C19 1_555 1_555
H12 C20 1_555 1_555
C21 C20 1_555 1_555
H13 C21 1_555 1_555
C22 C13 1_555 1_555
H14 C22 1_555 1_555
C23 C24 1_555 1_555
C24 C25 1_555 1_555
C25 C26 1_555 1_555
C26 H15 1_555 1_555
C27 C26 1_555 1_555
H16 C27 1_555 1_555
C28 C27 1_555 1_555
H17 C28 1_555 1_555
C29 C28 1_555 1_555
H18 C29 1_555 1_555
C30 C25 1_555 1_555
C31 C30 1_555 1_555
H19 C31 1_555 1_555
C32 C31 1_555 1_555
H20 C32 1_555 1_555
C33 C24 1_555 1_555
H21 C33 1_555 1_555
C34 C35 1_555 1_555
C35 C36 1_555 1_555
C36 C37 1_555 1_555
C37 H22 1_555 1_555
C38 C37 1_555 1_555
H23 C38 1_555 1_555
C39 C38 1_555 1_555
H24 C39 1_555 1_555
C40 C39 1_555 1_555
H25 C40 1_555 1_555
C41 C36 1_555 1_555
C42 C41 1_555 1_555
H26 C42 1_555 1_555
C43 C42 1_555 1_555
H27 C43 1_555 1_555
C44 C35 1_555 1_555
H28 C44 1_555 1_555
C45 H29 1_555 1_555
C46 C45 1_555 1_555
H30 C46 1_555 1_555
C47 H31 1_555 1_555
C48 C47 1_555 1_555
H32 C48 1_555 1_555
Cu1 N1 1_555 1_555
Cu2 N2 1_555 1_555
N1 C45 1_555 1_555
N2 C46 1_555 1_555
O1 C1 1_555 1_555
O2 C1 1_555 1_555
O3 C12 1_555 1_555
O4 C12 1_555 1_555
O5 C23 1_555 1_555
O6 C23 1_555 1_555
O7 C34 1_555 1_555
O8 C34 1_555 1_555
Cu1A Cu1 1_555 1_555
Cu2A Cu2 1_555 1_555
O1A Cu1 1_555 1_555
O4A Cu1 1_555 1_555
O6A Cu2 1_555 1_555
O7A Cu2 1_555 1_555
C7 C8 1_555 1_555
C10 C11 1_555 1_555
C18 C19 1_555 1_555
C21 C22 1_555 1_555
C29 C30 1_555 1_555
C32 C33 1_555 1_555
C40 C41 1_555 1_555
C43 C44 1_555 1_555
C47 N2 1_555 1_555
C48 N1 1_555 1_555
Cu1 O2 1_555 1_555
Cu1 O3 1_555 1_555
Cu2 O5 1_555 1_555
Cu2 O8 1_555 1_555
O1 Cu1A 1_555 1_555
O4 Cu1A 1_555 1_555
O6 Cu2A 1_555 1_555
O7 Cu2A 1_555 1_555

#END
