
#######################################################################
#
#                 Cambridge Crystallographic Data Centre
#                                CCDC 
#
#######################################################################
#
# If this CIF has been generated from an entry in the Cambridge 
# Structural Database, then it will include bibliographic, chemical, 
# crystal, experimental, refinement or atomic coordinate data resulting 
# from the CCDC's data processing and validation procedures.
#
#######################################################################

data_HOWPOA
_symmetry_cell_setting           tetragonal
_symmetry_space_group_name_H-M   'I -4 2 d'
_symmetry_Int_Tables_number      122
_space_group_name_Hall           'I -4 2bw'
loop_
_symmetry_equiv_pos_site_id
_symmetry_equiv_pos_as_xyz
1 x,y,z
2 -x,-y,z
3 y,-x,-z
4 -y,x,-z
5 1/2-x,y,3/4-z
6 1/2+x,-y,3/4-z
7 1/2-y,-x,3/4+z
8 1/2+y,x,3/4+z
9 1/2+x,1/2+y,1/2+z
10 1/2-x,1/2-y,1/2+z
11 1/2+y,1/2-x,1/2-z
12 1/2-y,1/2+x,1/2-z
13 -x,1/2+y,1/4-z
14 x,1/2-y,1/4-z
15 -y,1/2-x,1/4+z
16 y,1/2+x,1/4+z
_cell_length_a                   13.1338(4)
_cell_length_b                   13.1338(4)
_cell_length_c                   44.093(3)
_cell_angle_alpha                90
_cell_angle_beta                 90
_cell_angle_gamma                90
_cell_volume                     7605.9
loop_
_atom_site_label
_atom_site_type_symbol
_atom_site_fract_x
_atom_site_fract_y
_atom_site_fract_z
Ag1 Ag 0.21859(7) 0.2500 0.1250
Ag2 Ag 0.11829(5) 0.08075(5) 0.180061(15)
N1 N 0.3328(5) 0.3625(4) 0.25236(15)
N2 N 0.3682(7) 0.4518(6) 0.29232(18)
N3 N 0.4393(6) 0.3796(6) 0.28934(17)
N4 N 0.2831(4) 0.3251(5) 0.22738(14)
N5 N 0.1908(5) 0.2256(5) 0.19934(15)
N6 N 0.2287(7) 0.3014(6) 0.18118(16)
N7 N 0.4511(5) 0.0197(4) 0.14782(13)
N8 N 0.2886(5) 0.0400(5) 0.15706(15)
N9 N 0.3223(6) 0.1142(6) 0.13675(17)
C1 C 0.3029(6) 0.4464(7) 0.2689(2)
H1 H 0.2490 0.4901 0.2647
C2 C 0.4161(6) 0.3258(6) 0.2658(2)
H2 H 0.4525 0.2693 0.2591
C3 C 0.2875(7) 0.3587(7) 0.19816(19)
H3 H 0.3261 0.4134 0.1913
C4 C 0.2228(6) 0.2408(7) 0.22623(16)
H4 H 0.2071 0.1999 0.2428
C5 C 0.3695(7) -0.0174(6) 0.16253(16)
H5 H 0.3697 -0.0751 0.1748
C6 C 0.4192(6) 0.0982(6) 0.13137(16)
H6 H 0.4594 0.1360 0.1181
N7A N 0.5489(5) -0.0197(4) 0.14782(13)
N8A N 0.7114(5) -0.0400(5) 0.15706(15)
N9A N 0.6777(6) -0.1142(6) 0.13675(17)
C5A C 0.6305(7) 0.0174(6) 0.16253(16)
H5A H 0.6303 0.0751 0.1748
C6A C 0.5808(6) -0.0982(6) 0.13137(16)
H6A H 0.5406 -0.1360 0.1181
Ag2A Ag 0.88171(5) -0.08075(5) 0.180061(15)
N1A N 0.6672(5) -0.3625(4) 0.25236(15)
N2A N 0.6318(7) -0.4518(6) 0.29232(18)
N3A N 0.5607(6) -0.3796(6) 0.28934(17)
N4A N 0.7169(4) -0.3251(5) 0.22738(14)
N5A N 0.8092(5) -0.2256(5) 0.19934(15)
N6A N 0.7713(7) -0.3014(6) 0.18118(16)
C1A C 0.6971(6) -0.4464(7) 0.2689(2)
H1A H 0.7510 -0.4901 0.2647
C2A C 0.5839(6) -0.3258(6) 0.2658(2)
H2A H 0.5475 -0.2693 0.2591
C3A C 0.7125(7) -0.3587(7) 0.19816(19)
H3A H 0.6739 -0.4134 0.1913
C4A C 0.7772(6) -0.2408(7) 0.22623(16)
H4A H 0.7929 -0.1999 0.2428
Ag1A Ag 0.78141(7) -0.2500 0.1250
Ag2J Ag 0.58075(5) -0.61829(5) 0.319939(15)
Ag2J_2 Ag 0.58075(5) 0.38171(5) 0.319939(15)
Ag2K Ag 0.41925(5) -0.38171(5) 0.319939(15)
Ag2K_2 Ag 0.41925(5) 0.61829(5) 0.319939(15)
N2J N -0.0482(6) 0.1318(7) 0.20768(18)
N2K N 1.0482(6) -0.1318(7) 0.20768(18)
N3J N 0.8796(6) 0.0607(6) 0.21066(17)
N3K N 0.1204(6) -0.0607(6) 0.21066(17)
N6M N 0.2287(7) 0.1986(6) 0.06882(16)
N9M N 0.3223(6) 0.3858(6) 0.11325(17)
loop_
_geom_bond_atom_site_label_1
_geom_bond_atom_site_label_2
_geom_bond_site_symmetry_1
_geom_bond_site_symmetry_2
Ag1 N6 1_555 1_555
Ag2 N5 1_555 1_555
N1 N4 1_555 1_555
N2 N3 1_555 1_555
N3 C2 1_555 1_555
N4 C3 1_555 1_555
N5 N6 1_555 1_555
N6 C3 1_555 1_555
N7 C5 1_555 1_555
N8 Ag2 1_555 1_555
N9 Ag1 1_555 1_555
C1 N1 1_555 1_555
H1 C1 1_555 1_555
C2 N1 1_555 1_555
H2 C2 1_555 1_555
C3 H3 1_555 1_555
C4 N4 1_555 1_555
H4 C4 1_555 1_555
C5 N8 1_555 1_555
H5 C5 1_555 1_555
C6 N7 1_555 1_555
H6 C6 1_555 1_555
N7A N7 1_555 1_555
N8A N9A 1_555 1_555
N9A C6A 1_555 1_555
C5A N7A 1_555 1_555
H5A C5A 1_555 1_555
C6A N7A 1_555 1_555
H6A C6A 1_555 1_555
Ag2A N8A 1_555 1_555
N1A N4A 1_555 1_555
N2A N3A 1_555 1_555
N3A C2A 1_555 1_555
N4A C3A 1_555 1_555
N5A Ag2A 1_555 1_555
N6A N5A 1_555 1_555
C1A N1A 1_555 1_555
H1A C1A 1_555 1_555
C2A N1A 1_555 1_555
H2A C2A 1_555 1_555
C3A N6A 1_555 1_555
H3A C3A 1_555 1_555
C4A N4A 1_555 1_555
H4A C4A 1_555 1_555
Ag1A N9A 1_555 1_555
Ag2J N2A 1_555 1_555
Ag2J_2 N3 1_555 1_555
Ag2K N3A 1_555 1_555
Ag2K_2 N2 1_555 1_555
N2J Ag2 1_555 1_555
N2K Ag2A 1_555 1_555
N3J Ag2A 1_555 1_555
N3K Ag2 1_555 1_555
N6M Ag1 1_555 1_555
N9M Ag1 1_555 1_555
N2 C1 1_555 1_555
N5 C4 1_555 1_555
N8 N9 1_555 1_555
N9 C6 1_555 1_555
N8A C5A 1_555 1_555
N2A C1A 1_555 1_555
N5A C4A 1_555 1_555
N6A Ag1A 1_555 1_555

#END
