
#######################################################################
#
#                 Cambridge Crystallographic Data Centre
#                                CCDC 
#
#######################################################################
#
# If this CIF has been generated from an entry in the Cambridge 
# Structural Database, then it will include bibliographic, chemical, 
# crystal, experimental, refinement or atomic coordinate data resulting 
# from the CCDC's data processing and validation procedures.
#
#######################################################################

data_HOWPEQ
_symmetry_cell_setting           monoclinic
_symmetry_space_group_name_H-M   'P 21/n'
_symmetry_Int_Tables_number      14
_space_group_name_Hall           '-P 2yn'
loop_
_symmetry_equiv_pos_site_id
_symmetry_equiv_pos_as_xyz
1 x,y,z
2 1/2-x,1/2+y,1/2-z
3 -x,-y,-z
4 1/2+x,1/2-y,1/2+z
_cell_length_a                   12.866(7)
_cell_length_b                   12.776(7)
_cell_length_c                   16.802(9)
_cell_angle_alpha                90
_cell_angle_beta                 105.303(10)
_cell_angle_gamma                90
_cell_volume                     2663.92
loop_
_atom_site_label
_atom_site_type_symbol
_atom_site_fract_x
_atom_site_fract_y
_atom_site_fract_z
Ag1 Ag 0.08520(3) -0.34308(3) -1.09463(2)
Ag2 Ag 0.14402(4) -0.61134(3) -0.97572(2)
N1 N 0.2819(4) -0.7533(4) -1.3633(3)
N2 N 0.1736(4) -0.7567(4) -1.4047(3)
N3 N 0.1918(3) -0.6725(3) -1.2902(2)
N4 N 0.1676(3) -0.6231(3) -1.2240(2)
N5 N 0.1305(4) -0.6006(3) -1.1076(2)
N6 N 0.1310(4) -0.5031(3) -1.1447(2)
N7 N 0.4234(3) -0.2198(3) -0.6699(2)
N8 N 0.3340(3) -0.2018(3) -0.6404(2)
N9 N 0.2808(3) -0.2803(3) -0.7569(2)
N10 N 0.2150(3) -0.3251(3) -0.8275(2)
N11 N 0.1248(4) -0.3472(3) -0.9543(2)
N12 N 0.1329(4) -0.4436(3) -0.9126(2)
C1 C 0.1543(4) -0.5192(4) -1.2146(3)
H1 H 0.1608 -0.4676 -1.2520
C2 C 0.1531(5) -0.6713(4) -1.1565(3)
H2 H 0.1582 -0.7429 -1.1465
C3 C 0.2897(4) -0.7020(5) -1.2942(4)
H3 H 0.3536 -0.6885 -1.2543
C4 C 0.1206(5) -0.7077(5) -1.3605(3)
H4 H 0.0463 -0.6981 -1.3743
C5 C 0.3875(4) -0.2659(4) -0.7413(3)
H5 H 0.4295 -0.2857 -0.7761
C6 C 0.2499(4) -0.2379(4) -0.6931(3)
H6 H 0.1797 -0.2352 -0.6881
C7 C 0.1746(4) -0.2789(4) -0.9017(3)
H7 H 0.1818 -0.2084 -0.9130
C8 C 0.1866(4) -0.4272(3) -0.8381(3)
H8 H 0.2036 -0.4780 -0.7971
O1 O 0.3617(5) -0.6004(7) -0.9481(4)
H9 H 0.3949 -0.5466 -0.9245
H10 H 0.3964 -0.6495 -0.9636
Ag1A Ag 0.41480(3) -0.84308(3) -1.40537(2)
Ag1C Ag 0.58520(3) -0.15692(3) -0.59463(2)
Ag2A Ag 0.35598(4) -0.11134(3) -0.52428(2)
N1A N 0.2181(4) -0.2533(4) -1.1367(3)
N7C N -0.0766(3) -0.2802(3) -1.1699(2)
N8A N 0.1660(3) -0.7018(3) -0.8596(2)
C9 C 0.4916(6) -0.4688(7) -0.3532(6)
O2 O 0.3357(4) -0.4153(4) -0.2956(4)
O3 O 0.4701(7) -0.5335(4) -0.2156(4)
O4 O 0.5064(6) -0.3509(5) -0.2278(5)
S1 S 0.44585(15) -0.43917(13) -0.26289(12)
F1 F 0.5956(5) -0.4896(7) -0.3349(6)
F2 F 0.4753(6) -0.3876(5) -0.4046(5)
F3 F 0.4399(5) -0.5513(5) -0.3946(3)
C10 C 0.3231(9) 0.0294(8) -0.9599(5)
O5 O 0.4808(4) -0.0700(5) -0.8651(4)
O6 O 0.3121(4) -0.0667(4) -0.8290(3)
O7 O 0.4206(4) 0.0877(3) -0.8135(3)
S2 S 0.39150(11) -0.00900(12) -0.85657(9)
F4 F 0.3925(8) 0.0814(8) -0.9928(5)
F5 F 0.2859(7) -0.0511(6) -1.0069(3)
F6 F 0.2429(6) 0.0898(5) -0.9619(4)
O8 O 0.8811(7) -0.1390(8) -0.4360(5)
H11 H 0.9336 -0.1701 -0.4476
H12 H 0.8912 -0.1046 -0.3912
O9 O 0.4102(8) 0.2730(8) -1.0959(6)
H13 H 0.3572 0.3137 -1.1150
H14 H 0.4704 0.2847 -1.1061
loop_
_geom_bond_atom_site_label_1
_geom_bond_atom_site_label_2
_geom_bond_site_symmetry_1
_geom_bond_site_symmetry_2
Ag1 N6 1_555 1_555
Ag2 N5 1_555 1_555
N1 N2 1_555 1_555
N2 C4 1_555 1_555
N3 N4 1_555 1_555
N4 C1 1_555 1_555
N5 N6 1_555 1_555
N6 C1 1_555 1_555
N7 N8 1_555 1_555
N8 C6 1_555 1_555
N9 N10 1_555 1_555
N10 C7 1_555 1_555
N11 Ag1 1_555 1_555
N12 Ag2 1_555 1_555
C1 H1 1_555 1_555
C2 N4 1_555 1_555
H2 C2 1_555 1_555
C3 N1 1_555 1_555
H3 C3 1_555 1_555
C4 N3 1_555 1_555
H4 C4 1_555 1_555
C5 N7 1_555 1_555
H5 C5 1_555 1_555
C6 N9 1_555 1_555
H6 C6 1_555 1_555
C7 N11 1_555 1_555
H7 C7 1_555 1_555
C8 N10 1_555 1_555
H8 C8 1_555 1_555
O1 Ag2 1_555 1_555
H9 O1 1_555 1_555
H10 O1 1_555 1_555
C9 S1 1_555 1_555
O2 S1 1_555 1_555
O3 S1 1_555 1_555
O4 S1 1_555 1_555
F1 C9 1_555 1_555
F2 C9 1_555 1_555
F3 C9 1_555 1_555
C10 S2 1_555 1_555
O5 S2 1_555 1_555
O6 S2 1_555 1_555
O7 S2 1_555 1_555
F4 C10 1_555 1_555
F5 C10 1_555 1_555
F6 C10 1_555 1_555
O8 H11 1_555 1_555
H12 O8 1_555 1_555
O9 H13 1_555 1_555
H14 O9 1_555 1_555
Ag1A N1 1_555 1_555
Ag1C N7 1_555 1_555
Ag2A N8 1_555 1_555
N1A Ag1 1_555 1_555
N7C Ag1 1_555 1_555
N8A Ag2 1_555 1_555
N3 C3 1_555 1_555
N5 C2 1_555 1_555
N9 C5 1_555 1_555
N11 N12 1_555 1_555
N12 C8 1_555 1_555

#END
