
#######################################################################
#
#                 Cambridge Crystallographic Data Centre
#                                CCDC 
#
#######################################################################
#
# If this CIF has been generated from an entry in the Cambridge 
# Structural Database, then it will include bibliographic, chemical, 
# crystal, experimental, refinement or atomic coordinate data resulting 
# from the CCDC's data processing and validation procedures.
#
#######################################################################

data_HOWQEQ
_symmetry_cell_setting           monoclinic
_symmetry_space_group_name_H-M   'P 21/c'
_symmetry_Int_Tables_number      14
_space_group_name_Hall           '-P 2ybc'
loop_
_symmetry_equiv_pos_site_id
_symmetry_equiv_pos_as_xyz
1 x,y,z
2 -x,1/2+y,1/2-z
3 -x,-y,-z
4 x,1/2-y,1/2+z
_cell_length_a                   7.5770(14)
_cell_length_b                   27.320(5)
_cell_length_c                   15.071(3)
_cell_angle_alpha                90
_cell_angle_beta                 90.00
_cell_angle_gamma                90
_cell_volume                     3119.75
loop_
_atom_site_label
_atom_site_type_symbol
_atom_site_fract_x
_atom_site_fract_y
_atom_site_fract_z
Cd1 Cd 0.38348(6) 0.338401(18) 0.25529(3)
Cd2 Cd 0.23655(6) 0.405691(18) -0.16995(3)
O1 O 0.4730(8) 0.2535(2) 0.2198(5)
O2 O 0.6134(8) 0.2932(2) 0.3237(4)
O3 O 0.4309(8) 0.1625(2) 0.3431(5)
O4 O 0.5013(8) 0.1071(3) 0.2469(6)
O5 O 0.1317(6) 0.3328(2) 0.1834(4)
O6 O 0.1739(7) 0.4128(2) 0.1753(4)
O7 O 0.1442(6) 0.3836(2) -0.0261(3)
O8 O -0.0270(6) 0.43883(19) -0.0877(3)
O9 O 0.1980(12) 0.3282(4) 0.3794(5)
O10 O 0.3656(7) 0.4739(2) -0.1043(4)
N1 N 1.0221(8) 0.1536(2) 0.2769(4)
N2 N -0.4078(7) 0.3667(2) 0.1516(4)
N3 N 0.4677(9) 0.4044(2) 0.3429(4)
N4 N 0.1432(8) 0.0517(2) 0.2037(4)
N5 N 0.059(2) 0.2789(5) 0.4758(7)
C1 C 0.5953(9) 0.2575(3) 0.2742(6)
C2 C 0.7409(9) 0.2193(3) 0.2742(5)
C3 C 0.9149(9) 0.2348(3) 0.2693(6)
H1 H 0.9397 0.2680 0.2650
C4 C 1.0501(9) 0.2019(3) 0.2706(5)
H2 H 1.1655 0.2134 0.2670
C5 C 0.8546(9) 0.1383(3) 0.2766(5)
H3 H 0.8335 0.1048 0.2763
C6 C 0.7124(9) 0.1692(3) 0.2768(5)
C7 C 0.5323(10) 0.1454(3) 0.2889(6)
C8 C 0.0854(8) 0.3757(3) 0.1620(4)
C9 C -0.0992(8) 0.3798(2) 0.1236(4)
C10 C -0.2385(8) 0.3660(3) 0.1772(5)
H4 H -0.2132 0.3556 0.2346
C11 C -0.4424(9) 0.3821(3) 0.0697(5)
H5 H -0.5590 0.3827 0.0505
C12 C -0.3122(9) 0.3973(3) 0.0126(5)
H6 H -0.3421 0.4084 -0.0438
C13 C -0.1375(8) 0.3960(2) 0.0381(4)
C14 C 0.0039(9) 0.4079(3) -0.0288(4)
C15 C 0.5144(13) 0.3954(3) 0.4272(6)
H7 H 0.5362 0.3632 0.4441
C16 C 0.5313(13) 0.4318(4) 0.4896(6)
H8 H 0.5662 0.4241 0.5471
C17 C 0.4964(9) 0.4800(3) 0.4670(5)
C18 C 0.4602(12) 0.4889(3) 0.3779(5)
H9 H 0.4439 0.5208 0.3580
C19 C 0.4488(12) 0.4507(3) 0.3197(5)
H10 H 0.4264 0.4577 0.2603
C20 C 0.0807(12) 0.0066(3) 0.2003(5)
H11 H 0.0762 -0.0116 0.2525
C21 C 0.0223(12) -0.0147(3) 0.1235(5)
H12 H -0.0221 -0.0464 0.1250
C22 C 0.0284(9) 0.0108(3) 0.0420(5)
C23 C 0.0962(12) 0.0577(3) 0.0474(5)
H13 H 0.1037 0.0769 -0.0034
C24 C 0.1525(13) 0.0760(3) 0.1275(5)
H14 H 0.2002 0.1073 0.1284
C25 C 0.185(3) 0.2934(7) 0.4144(11)
H15 H 0.2715 0.2702 0.4014
C26 C 0.024(5) 0.2347(8) 0.5174(17)
H16 H 0.0259 0.2088 0.4744
H17 H -0.0909 0.2360 0.5446
H18 H 0.1113 0.2287 0.5620
C27 C -0.091(2) 0.3164(8) 0.4951(12)
H19 H -0.0657 0.3332 0.5497
H20 H -0.2013 0.2996 0.5000
H21 H -0.0966 0.3397 0.4475
Cd1_2 Cd 1.38348(6) 0.338401(18) 0.25529(3)
Cd1_3 Cd -0.61652(6) 0.338401(18) 0.25529(3)
Cd1B Cd 0.61652(6) 0.661599(18) 0.74471(3)
Cd2_2 Cd 1.23655(6) 0.405691(18) -0.16995(3)
Cd2C Cd 0.23655(6) 0.094309(18) 0.33005(3)
Cd2C_2 Cd 1.23655(6) 0.094309(18) 0.33005(3)
Cd2C_3 Cd -0.76345(6) 0.094309(18) 0.33005(3)
Cd2A Cd -0.23655(6) -0.094309(18) -0.33005(3)
O1_2 O 1.4730(8) 0.2535(2) 0.2198(5)
O1_3 O -0.5270(8) 0.2535(2) 0.2198(5)
O2_2 O 1.6134(8) 0.2932(2) 0.3237(4)
O2_3 O -0.3866(8) 0.2932(2) 0.3237(4)
O3C O 0.4309(8) 0.3375(2) -0.1569(5)
O3_2 O -0.5691(8) 0.1625(2) 0.3431(5)
O4C O 0.5013(8) 0.3929(3) -0.2531(6)
O4_2 O -0.4987(8) 0.1071(3) 0.2469(6)
O5_2 O 1.1317(6) 0.3328(2) 0.1834(4)
O6_2 O 1.1739(7) 0.4128(2) 0.1753(4)
O7_2 O 1.1442(6) 0.3836(2) -0.0261(3)
O7C O 0.1442(6) 0.1164(2) 0.4739(3)
O8_2 O 0.9730(6) 0.43883(19) -0.0877(3)
O8C O -0.0270(6) 0.06117(19) 0.4123(3)
O9_2 O 1.1980(12) 0.3282(4) 0.3794(5)
O10C O 0.3656(7) 0.0261(2) 0.3957(4)
N1C N 0.0221(8) 0.3464(2) -0.2231(4)
N1_2 N 0.0221(8) 0.1536(2) 0.2769(4)
N2_2 N 0.5922(7) 0.3667(2) 0.1516(4)
N2_3 N 1.5922(7) 0.3667(2) 0.1516(4)
N3B N 0.5323(9) 0.5956(2) 0.6571(4)
N3_2 N 1.4677(9) 0.4044(2) 0.3429(4)
N4C N 0.1432(8) 0.4483(2) -0.2963(4)
N4B N -0.1432(8) -0.0517(2) -0.2037(4)
N5_2 N 1.059(2) 0.2789(5) 0.4758(7)
C1_2 C -0.4047(9) 0.2575(3) 0.2742(6)
C2_2 C -0.2591(9) 0.2193(3) 0.2742(5)
C3_2 C -0.0851(9) 0.2348(3) 0.2693(6)
H1_2 H -0.0603 0.2680 0.2650
C4_2 C 0.0501(9) 0.2019(3) 0.2706(5)
H2_2 H 0.1655 0.2134 0.2670
C5_2 C -0.1454(9) 0.1383(3) 0.2766(5)
H3_2 H -0.1665 0.1048 0.2763
C6_2 C -0.2876(9) 0.1692(3) 0.2768(5)
C7_2 C -0.4677(10) 0.1454(3) 0.2889(6)
C8_2 C 1.0854(8) 0.3757(3) 0.1620(4)
C9_2 C 0.9008(8) 0.3798(2) 0.1236(4)
C10_2 C 0.7615(8) 0.3660(3) 0.1772(5)
H4_2 H 0.7868 0.3556 0.2346
C11_2 C 0.5576(9) 0.3821(3) 0.0697(5)
H5_2 H 0.4410 0.3827 0.0505
C12_2 C 0.6878(9) 0.3973(3) 0.0126(5)
H6_2 H 0.6579 0.4084 -0.0438
C13_2 C 0.8625(8) 0.3960(2) 0.0381(4)
C14_2 C 1.0039(9) 0.4079(3) -0.0288(4)
C15B C 0.4856(13) 0.6046(3) 0.5728(6)
H7B H 0.4638 0.6368 0.5559
C16B C 0.4687(13) 0.5682(4) 0.5104(6)
H8B H 0.4338 0.5759 0.4529
C17B C 0.5036(9) 0.5200(3) 0.5330(5)
C18B C 0.5398(12) 0.5111(3) 0.6221(5)
H9B H 0.5561 0.4792 0.6420
C19B C 0.5512(12) 0.5493(3) 0.6803(5)
H10B H 0.5736 0.5423 0.7397
C20B C -0.0807(12) -0.0066(3) -0.2003(5)
H11B H -0.0762 0.0116 -0.2525
C21B C -0.0223(12) 0.0147(3) -0.1235(5)
H12B H 0.0221 0.0464 -0.1250
C22B C -0.0284(9) -0.0108(3) -0.0420(5)
C23B C -0.0962(12) -0.0577(3) -0.0474(5)
H13B H -0.1037 -0.0769 0.0034
C24B C -0.1525(13) -0.0760(3) -0.1275(5)
H14B H -0.2002 -0.1073 -0.1284
C25_2 C 1.185(3) 0.2934(7) 0.4144(11)
H15_2 H 1.2715 0.2702 0.4014
C26_2 C 1.024(5) 0.2347(8) 0.5174(17)
H16_2 H 1.0259 0.2088 0.4744
H17_2 H 0.9091 0.2360 0.5446
H18_2 H 1.1113 0.2287 0.5620
C27_2 C 0.909(2) 0.3164(8) 0.4951(12)
H19_2 H 0.9343 0.3332 0.5497
H20_2 H 0.7987 0.2996 0.5000
H21_2 H 0.9034 0.3397 0.4475
O11 O 0.2864(7) 0.4919(2) 0.0789(4)
O12 O 0.437(4) 0.3163(9) 0.5815(14)
loop_
_geom_bond_atom_site_label_1
_geom_bond_atom_site_label_2
_geom_bond_site_symmetry_1
_geom_bond_site_symmetry_2
Cd1 O1 1_555 1_555
Cd2 O7 1_555 1_555
O1 C1 1_555 1_555
O2 Cd1 1_555 1_555
O3 C7 1_555 1_555
O4 C7 1_555 1_555
O5 Cd1 1_555 1_555
O6 C8 1_555 1_555
O7 C14 1_555 1_555
O8 Cd2 1_555 1_555
O9 Cd1 1_555 1_555
O10 Cd2 1_555 1_555
N1 C4 1_555 1_555
N2 C10 1_555 1_555
N3 Cd1 1_555 1_555
N4 C20 1_555 1_555
N5 C25 1_555 1_555
C1 O2 1_555 1_555
C2 C1 1_555 1_555
C3 C2 1_555 1_555
H1 C3 1_555 1_555
C4 C3 1_555 1_555
H2 C4 1_555 1_555
C5 N1 1_555 1_555
H3 C5 1_555 1_555
C6 C2 1_555 1_555
C7 C6 1_555 1_555
C8 O5 1_555 1_555
C9 C8 1_555 1_555
C10 C9 1_555 1_555
H4 C10 1_555 1_555
C11 N2 1_555 1_555
H5 C11 1_555 1_555
C12 C11 1_555 1_555
H6 C12 1_555 1_555
C13 C9 1_555 1_555
C14 O8 1_555 1_555
C15 N3 1_555 1_555
H7 C15 1_555 1_555
C16 C15 1_555 1_555
H8 C16 1_555 1_555
C17 C16 1_555 1_555
C18 C17 1_555 1_555
H9 C18 1_555 1_555
C19 N3 1_555 1_555
H10 C19 1_555 1_555
C20 H11 1_555 1_555
C21 C20 1_555 1_555
H12 C21 1_555 1_555
C22 C21 1_555 1_555
C23 C22 1_555 1_555
H13 C23 1_555 1_555
C24 N4 1_555 1_555
H14 C24 1_555 1_555
C25 O9 1_555 1_555
H15 C25 1_555 1_555
C26 N5 1_555 1_555
H16 C26 1_555 1_555
H17 C26 1_555 1_555
H18 C26 1_555 1_555
C27 N5 1_555 1_555
H19 C27 1_555 1_555
H20 C27 1_555 1_555
H21 C27 1_555 1_555
Cd1_2 O1_2 1_555 1_555
Cd1_3 N2 1_555 1_555
Cd1B N3B 1_555 1_555
Cd2_2 O7_2 1_555 1_555
Cd2C O3 1_555 1_555
Cd2C_2 N1 1_555 1_555
Cd2C_3 O3_2 1_555 1_555
Cd2A N4B 1_555 1_555
O1_3 Cd1_3 1_555 1_555
O2_2 Cd1_2 1_555 1_555
O2_3 Cd1_3 1_555 1_555
O3C Cd2 1_555 1_555
O3_2 C7_2 1_555 1_555
O4C Cd2 1_555 1_555
O4_2 Cd2C_3 1_555 1_555
O5_2 Cd1_2 1_555 1_555
O6_2 C8_2 1_555 1_555
O7_2 C14_2 1_555 1_555
O7C Cd2C 1_555 1_555
O8_2 Cd2_2 1_555 1_555
O8C Cd2C 1_555 1_555
O9_2 Cd1_2 1_555 1_555
O10C Cd2C 1_555 1_555
N1C Cd2 1_555 1_555
N1_2 Cd2C 1_555 1_555
N2_2 Cd1 1_555 1_555
N2_3 Cd1_2 1_555 1_555
N3B C15B 1_555 1_555
N3_2 Cd1_2 1_555 1_555
N4C Cd2 1_555 1_555
N4B C20B 1_555 1_555
N5_2 C25_2 1_555 1_555
C1_2 O1_3 1_555 1_555
C2_2 C1_2 1_555 1_555
C3_2 C2_2 1_555 1_555
H1_2 C3_2 1_555 1_555
C4_2 N1_2 1_555 1_555
H2_2 C4_2 1_555 1_555
C5_2 N1_2 1_555 1_555
H3_2 C5_2 1_555 1_555
C6_2 C2_2 1_555 1_555
C7_2 O4_2 1_555 1_555
C8_2 O5_2 1_555 1_555
C9_2 C8_2 1_555 1_555
C10_2 N2_2 1_555 1_555
H4_2 C10_2 1_555 1_555
C11_2 N2_2 1_555 1_555
H5_2 C11_2 1_555 1_555
C12_2 C11_2 1_555 1_555
H6_2 C12_2 1_555 1_555
C13_2 C9_2 1_555 1_555
C14_2 O8_2 1_555 1_555
C15B H7B 1_555 1_555
C16B C15B 1_555 1_555
H8B C16B 1_555 1_555
C17B C17 1_555 1_555
C18B C17B 1_555 1_555
H9B C18B 1_555 1_555
C19B N3B 1_555 1_555
H10B C19B 1_555 1_555
C20B H11B 1_555 1_555
C21B C20B 1_555 1_555
H12B C21B 1_555 1_555
C22B C22 1_555 1_555
C23B C22B 1_555 1_555
H13B C23B 1_555 1_555
C24B N4B 1_555 1_555
H14B C24B 1_555 1_555
C25_2 O9_2 1_555 1_555
H15_2 C25_2 1_555 1_555
C26_2 N5_2 1_555 1_555
H16_2 C26_2 1_555 1_555
H17_2 C26_2 1_555 1_555
H18_2 C26_2 1_555 1_555
C27_2 N5_2 1_555 1_555
H19_2 C27_2 1_555 1_555
H20_2 C27_2 1_555 1_555
H21_2 C27_2 1_555 1_555
O4 Cd2C 1_555 1_555
N4 Cd2C 1_555 1_555
C5 C6 1_555 1_555
C12 C13 1_555 1_555
C13 C14 1_555 1_555
C18 C19 1_555 1_555
C23 C24 1_555 1_555
O2_3 C1_2 1_555 1_555
C3_2 C4_2 1_555 1_555
C5_2 C6_2 1_555 1_555
C6_2 C7_2 1_555 1_555
C9_2 C10_2 1_555 1_555
C12_2 C13_2 1_555 1_555
C13_2 C14_2 1_555 1_555
C16B C17B 1_555 1_555
C18B C19B 1_555 1_555
C21B C22B 1_555 1_555
C23B C24B 1_555 1_555

#END
