
#######################################################################
#
#                 Cambridge Crystallographic Data Centre
#                                CCDC 
#
#######################################################################
#
# If this CIF has been generated from an entry in the Cambridge 
# Structural Database, then it will include bibliographic, chemical, 
# crystal, experimental, refinement or atomic coordinate data resulting 
# from the CCDC's data processing and validation procedures.
#
#######################################################################

data_HOWQIU
_symmetry_cell_setting           monoclinic
_symmetry_space_group_name_H-M   'C 2/c'
_symmetry_Int_Tables_number      15
_space_group_name_Hall           '-C 2yn'
loop_
_symmetry_equiv_pos_site_id
_symmetry_equiv_pos_as_xyz
1 x,y,z
2 -x,y,1/2-z
3 1/2+x,1/2+y,z
4 1/2-x,1/2+y,1/2-z
5 -x,-y,-z
6 x,-y,1/2+z
7 1/2-x,1/2-y,-z
8 1/2+x,1/2-y,1/2+z
_cell_length_a                   18.8138(13)
_cell_length_b                   11.1016(8)
_cell_length_c                   12.0169(9)
_cell_angle_alpha                90
_cell_angle_beta                 115.2130(10)
_cell_angle_gamma                90
_cell_volume                     2270.77
loop_
_atom_site_label
_atom_site_type_symbol
_atom_site_fract_x
_atom_site_fract_y
_atom_site_fract_z
Mn1 Mn 0.32589(4) 1.08185(7) 0.05953(7)
N1 N 0.2618(3) 0.5591(4) 0.0617(4)
N2 N 0.4242(5) 1.2231(6) 0.1732(6)
N3 N 0.4711(5) 1.3697(7) 0.3360(7)
O1 O 0.3692(2) 0.9662(3) 0.2191(4)
O2 O 0.4594(2) 0.8496(4) 0.3552(4)
O3 O 0.3087(2) 0.8294(3) 0.3908(3)
O4 O 0.2635(3) 0.6461(4) 0.3932(4)
O5 O 0.4165(2) 0.9919(4) 0.0153(4)
C1 C 0.3964(3) 0.8664(5) 0.2624(5)
C2 C 0.3506(3) 0.7569(5) 0.1969(5)
C3 C 0.3567(3) 0.7151(5) 0.0920(5)
H1 H 0.3910 0.7521 0.0653
C4 C 0.3114(3) 0.6184(5) 0.0277(5)
H2 H 0.3156 0.5932 -0.0430
C5 C 0.2585(3) 0.5959(5) 0.1653(5)
H3 H 0.2261 0.5536 0.1923
C6 C 0.3006(3) 0.6939(5) 0.2356(4)
C7 C 0.2887(3) 0.7263(5) 0.3491(4)
C8 C 0.4557(6) 1.3015(11) 0.0956(10)
H4 H 0.4640 1.2489 0.0378
H5 H 0.4150 1.3584 0.0479
C9 C 0.5000 1.1498(11) 0.2500
H6 H 0.4891 1.0980 0.3059
C10 C 0.4136(6) 1.2933(12) 0.2589(10)
H7 H 0.4006 1.2391 0.3109
H8 H 0.3673 1.3421 0.2146
C11 C 0.5000 1.4517(19) 0.2500
H9 H 0.4571 1.5031 0.1977
Mn1A Mn 0.67411(4) 1.08185(7) 0.44047(7)
Mn1C Mn 0.17411(4) 0.58185(7) 0.44047(7)
Mn1E Mn 0.32589(4) 0.91815(7) 0.55953(7)
Mn1F Mn 0.17411(4) 0.41815(7) -0.05953(7)
Mn1C_2 Mn 0.17411(4) 0.58185(7) -0.55953(7)
Mn1E_2 Mn 0.32589(4) 0.91815(7) -0.44047(7)
N1F N 0.2382(3) 0.9409(4) -0.0617(4)
N1G N 0.7618(3) 0.9409(4) 0.5617(4)
N2A N 0.5758(5) 1.2231(6) 0.3268(6)
N3A N 0.5289(5) 1.3697(7) 0.1640(7)
O1A O 0.6308(2) 0.9662(3) 0.2809(4)
O1F O 0.1308(2) 0.5338(3) -0.2191(4)
O2F O 0.0406(2) 0.6504(4) -0.3552(4)
O3D O 0.6913(2) 1.1706(3) 0.6092(3)
O3E O 0.3087(2) 1.1706(3) -0.1092(3)
O3F O 0.1913(2) 0.6706(3) -0.3908(3)
O4B O 0.7635(3) 1.1461(4) 0.3932(4)
O4C O 0.2365(3) 1.1461(4) 0.1068(4)
O4F O 0.2365(3) 0.8539(4) -0.3932(4)
O5A O 0.5835(2) 0.9919(4) 0.4847(4)
C1F C 0.1036(3) 0.6336(5) -0.2624(5)
C2F C 0.1494(3) 0.7431(5) -0.1969(5)
C3F C 0.1433(3) 0.7849(5) -0.0920(5)
H1F H 0.1090 0.7479 -0.0653
C4F C 0.1886(3) 0.8816(5) -0.0277(5)
H2F H 0.1844 0.9068 0.0430
C5F C 0.2415(3) 0.9041(5) -0.1653(5)
H3F H 0.2739 0.9464 -0.1923
C6F C 0.1994(3) 0.8061(5) -0.2356(4)
C7F C 0.2113(3) 0.7737(5) -0.3491(4)
C8A C 0.5443(6) 1.3015(11) 0.4044(10)
H4A H 0.5360 1.2489 0.4622
H5A H 0.5850 1.3584 0.4521
H6A H 0.5109 1.0980 0.1941
C10A C 0.5864(6) 1.2933(12) 0.2411(10)
H7A H 0.5994 1.2391 0.1891
H8A H 0.6327 1.3421 0.2854
H9A H 0.5429 1.5031 0.3023
loop_
_geom_bond_atom_site_label_1
_geom_bond_atom_site_label_2
_geom_bond_site_symmetry_1
_geom_bond_site_symmetry_2
Mn1 N2 1_555 1_555
N1 C4 1_555 1_555
N2 C8 1_555 1_555
N3 C10 1_555 1_555
O1 Mn1 1_555 1_555
O2 C1 1_555 1_555
O3 C7 1_555 1_555
O4 C7 1_555 1_555
O5 Mn1 1_555 1_555
C1 O1 1_555 1_555
C2 C1 1_555 1_555
C3 C2 1_555 1_555
H1 C3 1_555 1_555
C4 C3 1_555 1_555
H2 C4 1_555 1_555
C5 N1 1_555 1_555
H3 C5 1_555 1_555
C6 C2 1_555 1_555
C7 C6 1_555 1_555
C8 H4 1_555 1_555
H5 C8 1_555 1_555
C9 N2 1_555 1_555
H6 C9 1_555 1_555
C10 N2 1_555 1_555
H7 C10 1_555 1_555
H8 C10 1_555 1_555
C11 N3 1_555 1_555
H9 C11 1_555 1_555
Mn1A N1G 1_555 1_555
Mn1C O4 1_555 1_555
Mn1E O3 1_555 1_555
Mn1F N1 1_555 1_555
Mn1C_2 O3F 1_555 1_555
Mn1E_2 O4F 1_555 1_555
N1F Mn1 1_555 1_555
N2A C9 1_555 1_555
N3A C8 1_555 1_555
O1A Mn1A 1_555 1_555
O1F Mn1F 1_555 1_555
O2F C1F 1_555 1_555
O3D Mn1A 1_555 1_555
O3E Mn1 1_555 1_555
O3F C7F 1_555 1_555
O4B Mn1A 1_555 1_555
O4C Mn1 1_555 1_555
O4F C7F 1_555 1_555
O5A Mn1A 1_555 1_555
C1F O1F 1_555 1_555
C2F C1F 1_555 1_555
C3F C2F 1_555 1_555
H1F C3F 1_555 1_555
C4F N1F 1_555 1_555
H2F C4F 1_555 1_555
C5F N1F 1_555 1_555
H3F C5F 1_555 1_555
C6F C2F 1_555 1_555
C7F C6F 1_555 1_555
C8A N3 1_555 1_555
H4A C8A 1_555 1_555
H5A C8A 1_555 1_555
H6A C9 1_555 1_555
C10A N2A 1_555 1_555
H7A C10A 1_555 1_555
H8A C10A 1_555 1_555
H9A C11 1_555 1_555
C5 C6 1_555 1_555
C11 N3A 1_555 1_555
Mn1A N2A 1_555 1_555
N2A C8A 1_555 1_555
N3A C10A 1_555 1_555
C3F C4F 1_555 1_555
C5F C6F 1_555 1_555

#END
