
#######################################################################
#
#                 Cambridge Crystallographic Data Centre
#                                CCDC 
#
#######################################################################
#
# If this CIF has been generated from an entry in the Cambridge 
# Structural Database, then it will include bibliographic, chemical, 
# crystal, experimental, refinement or atomic coordinate data resulting 
# from the CCDC's data processing and validation procedures.
#
#######################################################################

data_HOWRES
_symmetry_cell_setting           monoclinic
_symmetry_space_group_name_H-M   'C 2/c'
_symmetry_Int_Tables_number      15
_space_group_name_Hall           '-C 2yn'
loop_
_symmetry_equiv_pos_site_id
_symmetry_equiv_pos_as_xyz
1 x,y,z
2 -x,y,1/2-z
3 1/2+x,1/2+y,z
4 1/2-x,1/2+y,1/2-z
5 -x,-y,-z
6 x,-y,1/2+z
7 1/2-x,1/2-y,-z
8 1/2+x,1/2-y,1/2+z
_cell_length_a                   19.020(2)
_cell_length_b                   7.7962(9)
_cell_length_c                   19.565(2)
_cell_angle_alpha                90
_cell_angle_beta                 92.355(10)
_cell_angle_gamma                90
_cell_volume                     2898.72
loop_
_atom_site_label
_atom_site_type_symbol
_atom_site_fract_x
_atom_site_fract_y
_atom_site_fract_z
Mg1 Mg 0.0000 0.7532(3) 0.2500
Mg2 Mg 0.0000 0.5000 0.5000
O1 O 0.0010(2) 0.5702(5) 0.32950(19)
O2 O 0.0527(2) 0.4174(5) 0.4139(2)
O3 O -0.0045(2) -0.0696(5) 0.1700(2)
O4 O 0.0492(3) 0.0662(6) 0.0872(2)
O5 O 0.1070(2) 0.7454(6) 0.2487(2)
H1 H 0.1245 0.7750 0.2876
H2 H 0.1222 0.7603 0.2195
O6 O -0.0912(2) 0.3763(6) 0.4595(2)
H3 H -0.0829 0.2698 0.4548
H4 H -0.1167 0.4121 0.4378
O7 O -0.0316(3) 0.7184(6) 0.4495(2)
H5 H -0.0350 0.6984 0.4067
H6 H -0.0702 0.7475 0.4628
C1 C 0.0781(3) 0.3442(7) 0.2997(3)
C2 C 0.0397(3) 0.2477(7) 0.2504(2)
C3 C 0.0761(3) 0.1561(7) 0.2018(3)
C4 C 0.1498(3) 0.1615(8) 0.2021(3)
H7 H 0.1738 0.1045 0.1684
C5 C 0.1866(3) 0.2523(9) 0.2528(3)
H8 H 0.2355 0.2527 0.2538
C6 C 0.1518(3) 0.3419(7) 0.3018(3)
H9 H 0.1772 0.4007 0.3361
C7 C 0.0410(3) 0.4520(7) 0.3514(3)
C8 C 0.0377(3) 0.0421(7) 0.1500(3)
O1A O -0.0010(2) 0.5702(5) 0.17050(19)
O2A O -0.0527(2) 0.4174(5) 0.0861(2)
O3A O 0.0045(2) -0.0696(5) 0.3300(2)
O4A O -0.0492(3) 0.0662(6) 0.4128(2)
C1A C -0.0781(3) 0.3442(7) 0.2003(3)
C2A C -0.0397(3) 0.2477(7) 0.2496(2)
C3A C -0.0761(3) 0.1561(7) 0.2982(3)
C4A C -0.1498(3) 0.1615(8) 0.2979(3)
H7A H -0.1738 0.1045 0.3316
C5A C -0.1866(3) 0.2523(9) 0.2472(3)
H8A H -0.2355 0.2527 0.2462
C6A C -0.1518(3) 0.3419(7) 0.1982(3)
H9A H -0.1772 0.4007 0.1639
C7A C -0.0410(3) 0.4520(7) 0.1486(3)
C8A C -0.0377(3) 0.0421(7) 0.3500(3)
O5A O -0.1070(2) 0.7454(6) 0.2513(2)
H1A H -0.1245 0.7750 0.2124
H2A H -0.1222 0.7603 0.2805
O6D O 0.0912(2) 0.6237(6) 0.5405(2)
H3D H 0.0829 0.7302 0.5452
H4D H 0.1167 0.5879 0.5622
O7D O 0.0316(3) 0.2816(6) 0.5505(2)
H5D H 0.0350 0.3016 0.5933
H6D H 0.0702 0.2525 0.5372
Mg1_2 Mg 0.0000 -0.2468(3) 0.2500
Mg2A Mg 0.0000 0.5000 0.0000
O2D O -0.0527(2) 0.5826(5) 0.5861(2)
O3_2 O -0.0045(2) 0.9304(5) 0.1700(2)
O3A_2 O 0.0045(2) 0.9304(5) 0.3300(2)
O8 O 0.1769(3) 0.5902(7) 0.1387(2)
H10 H 0.1436 0.5735 0.1462
H11 H 0.2091 0.5421 0.1401
O9 O 0.1930(3) 0.8958(7) 0.3524(3)
H12 H 0.2007 0.8085 0.3776
H13 H 0.1675 0.9532 0.3788
O10 O 0.1095(3) 0.0858(6) 0.4407(2)
H14 H 0.0883 0.1783 0.4295
H15 H 0.0809 0.0475 0.4677
O11 O 0.2127(3) 0.8520(7) 0.0450(3)
H16 H 0.2148 0.7793 0.0702
H17 H 0.1743 0.8522 0.0269
O12 O 0.2080(3) 0.6511(7) 0.4554(3)
H18 H 0.1783 0.6444 0.4770
H19 H 0.2376 0.5696 0.4587
loop_
_geom_bond_atom_site_label_1
_geom_bond_atom_site_label_2
_geom_bond_site_symmetry_1
_geom_bond_site_symmetry_2
Mg1 O1 1_555 1_555
Mg2 O2 1_555 1_555
O1 C7 1_555 1_555
O2 C7 1_555 1_555
O3 C8 1_555 1_555
O4 C8 1_555 1_555
O5 Mg1 1_555 1_555
H1 O5 1_555 1_555
H2 O5 1_555 1_555
O6 Mg2 1_555 1_555
H3 O6 1_555 1_555
H4 O6 1_555 1_555
O7 Mg2 1_555 1_555
H5 O7 1_555 1_555
H6 O7 1_555 1_555
C1 C2 1_555 1_555
C2 C3 1_555 1_555
C3 C4 1_555 1_555
C4 H7 1_555 1_555
C5 C4 1_555 1_555
H8 C5 1_555 1_555
C6 C1 1_555 1_555
H9 C6 1_555 1_555
C7 C1 1_555 1_555
C8 C3 1_555 1_555
O8 H10 1_555 1_555
H11 O8 1_555 1_555
O9 H12 1_555 1_555
H13 O9 1_555 1_555
O10 H14 1_555 1_555
H15 O10 1_555 1_555
O11 H16 1_555 1_555
H17 O11 1_555 1_555
O12 H18 1_555 1_555
H19 O12 1_555 1_555
O1A Mg1 1_555 1_555
O2A C7A 1_555 1_555
O3A C8A 1_555 1_555
O4A C8A 1_555 1_555
C1A C2A 1_555 1_555
C2A C2 1_555 1_555
C3A C2A 1_555 1_555
C4A C3A 1_555 1_555
H7A C4A 1_555 1_555
C5A C4A 1_555 1_555
H8A C5A 1_555 1_555
C6A C1A 1_555 1_555
H9A C6A 1_555 1_555
C7A O1A 1_555 1_555
C8A C3A 1_555 1_555
O5A Mg1 1_555 1_555
H1A O5A 1_555 1_555
H2A O5A 1_555 1_555
O6D Mg2 1_555 1_555
H3D O6D 1_555 1_555
H4D O6D 1_555 1_555
O7D Mg2 1_555 1_555
H5D O7D 1_555 1_555
H6D O7D 1_555 1_555
Mg1_2 O3 1_555 1_555
Mg2A O2A 1_555 1_555
O2D Mg2 1_555 1_555
O3_2 Mg1 1_555 1_555
O3A_2 Mg1 1_555 1_555
C5 C6 1_555 1_555
O3A Mg1_2 1_555 1_555
C1A C7A 1_555 1_555
C5A C6A 1_555 1_555

#END
