
#######################################################################
#
#                 Cambridge Crystallographic Data Centre
#                                CCDC 
#
#######################################################################
#
# If this CIF has been generated from an entry in the Cambridge 
# Structural Database, then it will include bibliographic, chemical, 
# crystal, experimental, refinement or atomic coordinate data resulting 
# from the CCDC's data processing and validation procedures.
#
#######################################################################

data_HOWROC
_symmetry_cell_setting           monoclinic
_symmetry_space_group_name_H-M   'P 21/c'
_symmetry_Int_Tables_number      14
_space_group_name_Hall           '-P 2ybc'
loop_
_symmetry_equiv_pos_site_id
_symmetry_equiv_pos_as_xyz
1 x,y,z
2 -x,1/2+y,1/2-z
3 -x,-y,-z
4 x,1/2-y,1/2+z
_cell_length_a                   19.4778(17)
_cell_length_b                   13.9542(13)
_cell_length_c                   23.761(2)
_cell_angle_alpha                90
_cell_angle_beta                 104.444(2)
_cell_angle_gamma                90
_cell_volume                     6254.04
loop_
_atom_site_label
_atom_site_type_symbol
_atom_site_fract_x
_atom_site_fract_y
_atom_site_fract_z
Ba1 Ba 0.682366(19) 0.75179(3) 0.270333(19)
Ba2 Ba -0.164102(18) 0.92812(3) 0.194079(15)
Ba3 Ba 0.680114(19) 0.43885(3) 0.315129(16)
Ba4 Ba 0.468468(18) 0.44796(3) 0.361888(15)
Ba5 Ba 0.15623(2) 0.67145(3) 0.186577(18)
Ba6 Ba -0.022102(17) 0.44319(3) 0.373396(14)
C1 C 0.7471(3) 0.4259(4) 0.5145(2)
C2 C 0.6872(3) 0.3682(4) 0.4955(2)
C3 C 0.6894(3) 0.2730(5) 0.5104(3)
H1 H 0.6483 0.2362 0.5000
C4 C 0.7522(4) 0.2313(5) 0.5410(3)
H2 H 0.7537 0.1667 0.5507
C5 C 0.8123(3) 0.2865(5) 0.5568(3)
H3 H 0.8552 0.2577 0.5749
C6 C 0.8102(3) 0.3828(4) 0.5463(2)
C7 C 0.7480(3) 0.5317(4) 0.5042(2)
C8 C 0.7891(3) 0.5717(4) 0.4696(2)
C9 C 0.7972(3) 0.6696(4) 0.4676(3)
H4 H 0.8261 0.6953 0.4455
C10 C 0.7631(3) 0.7303(5) 0.4978(3)
H5 H 0.7684 0.7963 0.4955
C11 C 0.7218(3) 0.6931(4) 0.5309(3)
H6 H 0.6985 0.7338 0.5510
C12 C 0.7143(3) 0.5949(4) 0.5347(2)
C13 C 0.6195(3) 0.4000(4) 0.4528(2)
C14 C 0.8775(3) 0.4400(4) 0.5704(2)
C15 C 0.8250(3) 0.5089(4) 0.4352(2)
C16 C 0.6707(3) 0.5587(4) 0.5745(3)
C17 C 0.4154(3) 0.6262(4) 0.1986(2)
C18 C 0.4819(3) 0.5875(4) 0.1986(2)
C19 C 0.4959(3) 0.5549(5) 0.1471(3)
H7 H 0.5406 0.5306 0.1477
C20 C 0.4446(4) 0.5581(5) 0.0955(3)
H8 H 0.4539 0.5350 0.0614
C21 C 0.3788(3) 0.5963(5) 0.0951(3)
H9 H 0.3439 0.5980 0.0604
C22 C 0.3636(3) 0.6319(4) 0.1449(2)
C23 C 0.4016(3) 0.6639(4) 0.2535(2)
C24 C 0.4360(3) 0.7474(4) 0.2774(3)
C25 C 0.4272(3) 0.7811(5) 0.3306(3)
H10 H 0.4523 0.8346 0.3479
C26 C 0.3819(4) 0.7357(5) 0.3572(3)
H11 H 0.3763 0.7587 0.3925
C27 C 0.3446(3) 0.6568(4) 0.3328(3)
H12 H 0.3120 0.6288 0.3504
C28 C 0.3553(3) 0.6176(4) 0.2810(2)
C29 C 0.5416(3) 0.5796(4) 0.2530(3)
C30 C 0.2918(3) 0.6747(5) 0.1413(3)
C31 C 0.4819(3) 0.8022(4) 0.2463(3)
C32 C 0.3167(3) 0.5268(4) 0.2579(2)
C33 C -0.1080(3) 0.6057(4) 0.1981(2)
C34 C -0.1765(3) 0.6120(4) 0.1598(3)
C35 C -0.1909(3) 0.5609(5) 0.1078(3)
H13 H -0.2363 0.5627 0.0833
C36 C -0.1389(4) 0.5072(5) 0.0919(3)
H14 H -0.1485 0.4764 0.0561
C37 C -0.0718(3) 0.4998(5) 0.1301(3)
H15 H -0.0370 0.4633 0.1197
C38 C -0.0567(3) 0.5457(4) 0.1828(2)
C39 C -0.0865(3) 0.6620(4) 0.2526(2)
C40 C -0.0353(3) 0.7346(4) 0.2560(2)
C41 C -0.0057(3) 0.7793(4) 0.3088(3)
H16 H 0.0305 0.8238 0.3114
C42 C -0.0297(3) 0.7582(4) 0.3572(3)
H17 H -0.0095 0.7880 0.3924
C43 C -0.0837(3) 0.6928(4) 0.3532(2)
H18 H -0.1016 0.6812 0.3854
C44 C -0.1121(3) 0.6435(4) 0.3009(2)
C45 C -0.2343(3) 0.6736(5) 0.1727(3)
C46 C 0.0148(3) 0.5247(4) 0.2247(2)
C47 C -0.0158(3) 0.7719(4) 0.2024(2)
C48 C -0.1687(3) 0.5673(4) 0.2988(2)
O1 O 0.6241(2) 0.4563(3) 0.41238(17)
O2 O 0.5621(2) 0.3657(3) 0.45854(19)
O3 O 0.9347(2) 0.4085(3) 0.56281(18)
O4 O 0.8744(2) 0.5138(3) 0.59927(17)
O5 O 0.8881(2) 0.5266(3) 0.43412(16)
O6 O 0.7899(2) 0.4386(3) 0.40797(17)
O7 O 0.6069(2) 0.5436(4) 0.55418(19)
O8 O 0.7015(2) 0.5496(4) 0.62820(18)
O9 O 0.5282(2) 0.5667(3) 0.30113(18)
O10 O 0.6037(2) 0.5851(3) 0.24569(18)
O11 O 0.2398(2) 0.6304(4) 0.1111(2)
O12 O 0.2864(2) 0.7490(3) 0.1693(2)
O13 O 0.4515(2) 0.8538(4) 0.2048(2)
O14 O 0.5470(2) 0.7945(4) 0.2636(3)
O15 O 0.3507(2) 0.4519(3) 0.25847(18)
O16 O 0.2489(2) 0.5330(3) 0.24016(18)
O17 O -0.2191(2) 0.7523(3) 0.19703(19)
O18 O -0.2961(2) 0.6403(4) 0.1573(3)
O19 O 0.0687(2) 0.5230(3) 0.20409(17)
O20 O 0.0176(2) 0.5054(3) 0.27630(17)
O21 O 0.0483(2) 0.7761(3) 0.20242(18)
O22 O -0.0650(2) 0.8034(3) 0.16211(16)
O23 O -0.1514(2) 0.4820(3) 0.29660(17)
O24 O -0.2297(2) 0.5963(3) 0.3003(2)
O25 O 0.6868(3) 0.4458(4) 0.1884(2)
H19 H 0.7129 0.4090 0.1893
H20 H 0.6924 0.5113 0.1780
O26 O 0.4115(3) 0.2594(4) 0.3536(3)
H21 H 0.3873 0.2506 0.3784
H22 H 0.4442 0.2176 0.3587
O27 O 0.5115(2) 0.5968(4) 0.44806(19)
H23 H 0.5565 0.5996 0.4582
H24 H 0.4958 0.5840 0.4776
O28 O 0.6478(3) 0.6499(4) 0.3699(2)
H25 H 0.6839 0.6184 0.3881
H26 H 0.6135 0.6117 0.3572
O29 O 0.6506(4) 0.8587(6) 0.3665(4)
H27 H 0.6738 0.8350 0.3985
H28 H 0.6625 0.9169 0.3644
O30 O 0.8052(3) 0.8642(4) 0.3116(2)
H29 H 0.8391 0.8314 0.3321
H30 H 0.7970 0.9119 0.3312
O31 O 0.1466(3) 0.6396(3) 0.30570(18)
H31 H 0.1747 0.6629 0.3267
H32 H 0.1066 0.6563 0.3108
O32 O 0.0750(3) 0.6029(5) 0.0778(3)
H33 H 0.0954 0.5544 0.0677
H34 H 0.0340 0.5870 0.0810
O33 O 0.1176(2) 0.8033(3) 0.09732(19)
H35 H 0.1462 0.8504 0.1038
H36 H 0.1193 0.7765 0.0655
O34 O 0.1995(3) 0.8195(4) 0.2713(3)
H37 H 0.2007 0.8791 0.2522
H38 H 0.2135 0.7829 0.3005
O35 O 0.0187(2) 0.3722(3) 0.48700(17)
H39 H -0.0165 0.3739 0.5021
H40 H 0.0520 0.4066 0.5070
Ba1_2 Ba -0.317634(19) 0.75179(3) 0.270333(19)
Ba1A Ba 0.317634(19) 0.25179(3) 0.229667(19)
Ba2_2 Ba 0.835898(18) 0.92812(3) 0.194079(15)
Ba2A Ba 0.164102(18) 0.42812(3) 0.305921(15)
Ba2C Ba 0.835898(18) 0.57188(3) 0.694079(15)
Ba3_2 Ba -0.319886(19) 0.43885(3) 0.315129(16)
Ba3A Ba 0.319886(19) 0.93885(3) 0.184871(16)
Ba4A Ba 0.531532(18) 0.94796(3) 0.138112(15)
Ba4B Ba 0.531532(18) 0.55204(3) 0.638112(15)
Ba6_2 Ba 0.977898(17) 0.44319(3) 0.373396(14)
Ba6A Ba 0.022102(17) 0.94319(3) 0.126604(14)
Ba6B Ba 1.022102(17) 0.55681(3) 0.626604(14)
O3B O 0.0653(2) 0.5915(3) 0.43719(18)
O4B O 0.1256(2) 0.4862(3) 0.40073(17)
O4C O -0.1256(2) 0.9862(3) 0.09927(17)
O5_2 O -0.1119(2) 0.5266(3) 0.43412(16)
O7B O 0.3931(2) 0.4564(4) 0.44582(19)
O8C O -0.2985(2) 0.9504(4) 0.12820(18)
O12A O 0.7136(2) 0.2490(3) 0.3307(2)
O13A O 0.5485(2) 0.3538(4) 0.2952(2)
O15A O 0.6493(2) 0.9519(3) 0.24153(18)
O16A O -0.2489(2) 1.0330(3) 0.25984(18)
O17_2 O 0.7809(2) 0.7523(3) 0.19703(19)
O18_2 O 0.7039(2) 0.6403(4) 0.1573(3)
O19A O -0.0687(2) 1.0230(3) 0.29591(17)
O20A O -0.0176(2) 1.0054(3) 0.22370(17)
O21A O -0.0483(2) 0.2761(3) 0.29758(18)
O22A O 0.0650(2) 0.3034(3) 0.33789(16)
O24_2 O 0.7703(2) 0.5963(3) 0.3003(2)
O26A O 0.5885(3) 0.7594(4) 0.1464(3)
O30_2 O -0.1948(3) 0.8642(4) 0.3116(2)
O31A O -0.1466(3) 1.1396(3) 0.19430(18)
O33A O -0.1176(2) 0.3033(3) 0.40268(19)
O36 O 0.6018(4) 0.4343(6) 0.0680(3)
H41 H 0.6268 0.4380 0.1027
H42 H 0.5845 0.3883 0.0634
O37 O 0.6292(7) 0.5944(9) 0.0201(5)
H43 H 0.6407 0.5656 0.0526
H44 H 0.5843 0.5963 0.0082
O38 O 0.9450(3) 0.6953(4) 0.0456(3)
H45 H 0.9114 0.6835 0.0616
H46 H 0.9443 0.7543 0.0366
O39 O 0.5002(6) 0.2044(7) 0.5058(4)
H47 H 0.4944 0.2478 0.4799
H48 H 0.5239 0.2216 0.5322
O40 O 0.2416(4) 0.4624(5) 0.0587(3)
H49 H 0.2408 0.5158 0.0757
H50 H 0.2709 0.4654 0.0375
O41 O 0.1103(4) 0.4079(5) 0.0598(3)
H51 H 0.0943 0.3773 0.0287
H52 H 0.1541 0.4046 0.0602
loop_
_geom_bond_atom_site_label_1
_geom_bond_atom_site_label_2
_geom_bond_site_symmetry_1
_geom_bond_site_symmetry_2
Ba1 O10 1_555 1_555
Ba2 O17 1_555 1_555
Ba3 O1 1_555 1_555
Ba4 O1 1_555 1_555
Ba5 O11 1_555 1_555
Ba6 O20 1_555 1_555
C1 C2 1_555 1_555
C2 C3 1_555 1_555
C3 H1 1_555 1_555
C4 C3 1_555 1_555
H2 C4 1_555 1_555
C5 C4 1_555 1_555
H3 C5 1_555 1_555
C6 C1 1_555 1_555
C7 C1 1_555 1_555
C8 C7 1_555 1_555
C9 C8 1_555 1_555
H4 C9 1_555 1_555
C10 C9 1_555 1_555
H5 C10 1_555 1_555
C11 C10 1_555 1_555
H6 C11 1_555 1_555
C12 C7 1_555 1_555
C13 C2 1_555 1_555
C14 C6 1_555 1_555
C15 C8 1_555 1_555
C16 C12 1_555 1_555
C17 C18 1_555 1_555
C18 C19 1_555 1_555
C19 H7 1_555 1_555
C20 C19 1_555 1_555
H8 C20 1_555 1_555
C21 C20 1_555 1_555
H9 C21 1_555 1_555
C22 C17 1_555 1_555
C23 C17 1_555 1_555
C24 C23 1_555 1_555
C25 C24 1_555 1_555
H10 C25 1_555 1_555
C26 C25 1_555 1_555
H11 C26 1_555 1_555
C27 C26 1_555 1_555
H12 C27 1_555 1_555
C28 C23 1_555 1_555
C29 C18 1_555 1_555
C30 C22 1_555 1_555
C31 C24 1_555 1_555
C32 C28 1_555 1_555
C33 C34 1_555 1_555
C34 C35 1_555 1_555
C35 H13 1_555 1_555
C36 C35 1_555 1_555
H14 C36 1_555 1_555
C37 C36 1_555 1_555
H15 C37 1_555 1_555
C38 C33 1_555 1_555
C39 C33 1_555 1_555
C40 C39 1_555 1_555
C41 C40 1_555 1_555
H16 C41 1_555 1_555
C42 C41 1_555 1_555
H17 C42 1_555 1_555
C43 C42 1_555 1_555
H18 C43 1_555 1_555
C44 C39 1_555 1_555
C45 C34 1_555 1_555
C46 C38 1_555 1_555
C47 C40 1_555 1_555
C48 C44 1_555 1_555
O1 C13 1_555 1_555
O2 Ba4 1_555 1_555
O3 C14 1_555 1_555
O4 C14 1_555 1_555
O5 C15 1_555 1_555
O6 Ba3 1_555 1_555
O7 C16 1_555 1_555
O8 C16 1_555 1_555
O9 Ba4 1_555 1_555
O10 Ba3 1_555 1_555
O11 C30 1_555 1_555
O12 Ba5 1_555 1_555
O13 C31 1_555 1_555
O14 Ba1 1_555 1_555
O15 Ba4 1_555 1_555
O16 Ba5 1_555 1_555
O17 C45 1_555 1_555
O18 C45 1_555 1_555
O19 Ba5 1_555 1_555
O20 C46 1_555 1_555
O21 Ba5 1_555 1_555
O22 Ba2 1_555 1_555
O23 Ba6 1_555 1_555
O24 C48 1_555 1_555
O25 Ba3 1_555 1_555
H19 O25 1_555 1_555
H20 O25 1_555 1_555
O26 Ba4 1_555 1_555
H21 O26 1_555 1_555
H22 O26 1_555 1_555
O27 Ba4 1_555 1_555
H23 O27 1_555 1_555
H24 O27 1_555 1_555
O28 Ba1 1_555 1_555
H25 O28 1_555 1_555
H26 O28 1_555 1_555
O29 Ba1 1_555 1_555
H27 O29 1_555 1_555
H28 O29 1_555 1_555
O30 Ba1 1_555 1_555
H29 O30 1_555 1_555
H30 O30 1_555 1_555
O31 Ba5 1_555 1_555
H31 O31 1_555 1_555
H32 O31 1_555 1_555
O32 Ba5 1_555 1_555
H33 O32 1_555 1_555
H34 O32 1_555 1_555
O33 Ba5 1_555 1_555
H35 O33 1_555 1_555
H36 O33 1_555 1_555
O34 Ba5 1_555 1_555
H37 O34 1_555 1_555
H38 O34 1_555 1_555
O35 Ba6 1_555 1_555
H39 O35 1_555 1_555
H40 O35 1_555 1_555
O36 H41 1_555 1_555
H42 O36 1_555 1_555
O37 H43 1_555 1_555
H44 O37 1_555 1_555
O38 H45 1_555 1_555
H46 O38 1_555 1_555
O39 H47 1_555 1_555
H48 O39 1_555 1_555
O40 H49 1_555 1_555
H50 O40 1_555 1_555
O41 H51 1_555 1_555
H52 O41 1_555 1_555
Ba1_2 O17 1_555 1_555
Ba1A O15 1_555 1_555
Ba2_2 O30 1_555 1_555
Ba2A O16 1_555 1_555
Ba2C O4 1_555 1_555
Ba3_2 O24 1_555 1_555
Ba3A O12 1_555 1_555
Ba4A O13 1_555 1_555
Ba4B O7 1_555 1_555
Ba6_2 O5 1_555 1_555
Ba6A O21 1_555 1_555
Ba6B O3 1_555 1_555
O3B Ba6 1_555 1_555
O4B Ba6 1_555 1_555
O4C Ba2 1_555 1_555
O5_2 Ba6 1_555 1_555
O7B Ba4 1_555 1_555
O8C Ba2 1_555 1_555
O12A Ba3 1_555 1_555
O13A Ba3 1_555 1_555
O15A Ba1 1_555 1_555
O16A Ba2 1_555 1_555
O17_2 Ba1 1_555 1_555
O18_2 Ba1 1_555 1_555
O19A Ba2 1_555 1_555
O20A Ba2 1_555 1_555
O21A Ba6 1_555 1_555
O22A Ba6 1_555 1_555
O24_2 Ba1 1_555 1_555
O26A Ba1 1_555 1_555
O30_2 Ba2 1_555 1_555
O31A Ba2 1_555 1_555
O33A Ba6 1_555 1_555
Ba3 O24_2 1_555 1_555
Ba4 O13A 1_555 1_555
C5 C6 1_555 1_555
C11 C12 1_555 1_555
C13 O2 1_555 1_555
C15 O6 1_555 1_555
C21 C22 1_555 1_555
C27 C28 1_555 1_555
C29 O9 1_555 1_555
C29 O10 1_555 1_555
C30 O12 1_555 1_555
C31 O14 1_555 1_555
C32 O15 1_555 1_555
C32 O16 1_555 1_555
C37 C38 1_555 1_555
C43 C44 1_555 1_555
C46 O19 1_555 1_555
C47 O21 1_555 1_555
C47 O22 1_555 1_555
C48 O23 1_555 1_555
O4 Ba6B 1_555 1_555
O8 Ba2C 1_555 1_555
O13 Ba3A 1_555 1_555
O18 Ba1_2 1_555 1_555
O19 Ba2A 1_555 1_555
O20 Ba2A 1_555 1_555
O22 Ba6A 1_555 1_555
O24 Ba1_2 1_555 1_555
O26 Ba1A 1_555 1_555
O31 Ba2A 1_555 1_555
O33 Ba6A 1_555 1_555
Ba1_2 O30_2 1_555 1_555
Ba2_2 O17_2 1_555 1_555
Ba2A O4B 1_555 1_555
Ba2A O22A 1_555 1_555
Ba4A O15A 1_555 1_555
Ba4A O26A 1_555 1_555
Ba6A O4C 1_555 1_555
Ba6A O20A 1_555 1_555

#END
