
#######################################################################
#
#                 Cambridge Crystallographic Data Centre
#                                CCDC 
#
#######################################################################
#
# If this CIF has been generated from an entry in the Cambridge 
# Structural Database, then it will include bibliographic, chemical, 
# crystal, experimental, refinement or atomic coordinate data resulting 
# from the CCDC's data processing and validation procedures.
#
#######################################################################

data_HOWRIW
_symmetry_cell_setting           monoclinic
_symmetry_space_group_name_H-M   'P 21/c'
_symmetry_Int_Tables_number      14
_space_group_name_Hall           '-P 2ybc'
loop_
_symmetry_equiv_pos_site_id
_symmetry_equiv_pos_as_xyz
1 x,y,z
2 -x,1/2+y,1/2-z
3 -x,-y,-z
4 x,1/2-y,1/2+z
_cell_length_a                   13.6876(6)
_cell_length_b                   10.4272(6)
_cell_length_c                   15.0005(7)
_cell_angle_alpha                90
_cell_angle_beta                 100.256(4)
_cell_angle_gamma                90
_cell_volume                     2106.71
loop_
_atom_site_label
_atom_site_type_symbol
_atom_site_fract_x
_atom_site_fract_y
_atom_site_fract_z
Sr1 Sr 0.10322(4) 0.04723(6) 0.13163(3)
Sr2 Sr 0.41162(4) 0.02750(6) 0.08423(4)
O1 O 0.0721(3) 0.4720(4) 0.4430(3)
O2 O 0.2236(3) 0.4193(4) 0.5104(2)
O3 O 0.4483(3) 0.3481(4) 0.4396(2)
O4 O 0.5118(3) 0.1690(4) 0.3923(3)
O5 O 0.0049(3) 0.1615(4) 0.3987(2)
O6 O 0.0490(3) 0.1787(4) 0.2634(2)
O7 O 0.4035(3) 0.2333(4) 0.1749(3)
O8 O 0.2843(3) 0.0996(4) 0.2007(2)
O9 O 0.0446(4) 0.2733(4) 0.0771(3)
H1 H 0.0177 0.3062 0.1186
H2 H 0.0447 0.3179 0.0297
O10 O 0.0975(3) -0.1277(4) 0.2522(2)
H3 H 0.1526 -0.1493 0.2843
H4 H 0.0765 -0.2043 0.2441
O11 O 0.6047(3) 0.0977(4) 0.0919(3)
H5 H 0.6333 0.0433 0.0631
H6 H 0.6338 0.1000 0.1469
O12 O 0.4983(3) -0.0293(4) 0.2503(3)
H7 H 0.5166 0.0331 0.2858
H8 H 0.5388 -0.0908 0.2650
O13 O 0.3378(3) -0.1828(4) 0.1258(3)
H9 H 0.2802 -0.2097 0.1029
H10 H 0.3863 -0.2290 0.1169
O14 O 0.1388(3) -0.1864(4) 0.0650(3)
H11 H 0.0994 -0.2422 0.0800
H12 H 0.1057 -0.1627 0.0143
C1 C 0.1684(5) 0.5262(6) 0.2903(4)
H13 H 0.1315 0.5948 0.3060
C2 C 0.1888(4) 0.4225(6) 0.3489(3)
C3 C 0.2027(5) 0.5280(7) 0.2088(4)
H14 H 0.1893 0.5975 0.1697
C4 C 0.2408(4) 0.3167(5) 0.3251(3)
C5 C 0.2567(5) 0.4257(6) 0.1868(4)
H15 H 0.2822 0.4281 0.1334
C6 C 0.2740(4) 0.3199(6) 0.2418(3)
C7 C 0.3250(5) 0.2094(6) 0.2058(3)
C8 C 0.2545(4) 0.1983(6) 0.3821(3)
C9 C 0.4431(4) 0.2313(6) 0.4170(3)
C10 C 0.3496(4) 0.1568(6) 0.4236(3)
C11 C 0.1717(4) 0.1230(6) 0.3927(3)
C12 C 0.0688(4) 0.1568(6) 0.3475(4)
C13 C 0.1845(4) 0.0112(6) 0.4417(4)
H16 H 0.1293 -0.0371 0.4488
C14 C 0.3598(5) 0.0418(6) 0.4707(4)
H17 H 0.4228 0.0129 0.4962
C15 C 0.2780(5) -0.0306(6) 0.4805(4)
H18 H 0.2859 -0.1070 0.5130
C16 C 0.1599(4) 0.4379(6) 0.4408(4)
Sr1A Sr -0.10322(4) 0.54723(6) 0.36837(3)
Sr1C Sr 0.10322(4) 0.45277(6) 0.63163(3)
Sr2A Sr 0.58838(4) 0.52750(6) 0.41577(4)
Sr2B Sr 0.58838(4) -0.02750(6) -0.08423(4)
Sr2C Sr 0.41162(4) 0.47250(6) 0.58423(4)
O1A O -0.0721(3) -0.0280(4) 0.0570(3)
O1C O 0.0721(3) 0.0280(4) -0.0570(3)
O2C O 0.2236(3) 0.0807(4) 0.0104(2)
O3A O 0.5517(3) -0.1519(4) 0.0604(2)
O3C O 0.4483(3) 0.1519(4) -0.0604(2)
O11B O 0.3953(3) -0.0977(4) -0.0919(3)
O15 O 0.3096(4) 0.8172(5) 0.3077(3)
H19 H 0.3715 0.8053 0.3254
H20 H 0.2985 0.8343 0.2514
loop_
_geom_bond_atom_site_label_1
_geom_bond_atom_site_label_2
_geom_bond_site_symmetry_1
_geom_bond_site_symmetry_2
Sr1 O6 1_555 1_555
Sr2 O7 1_555 1_555
O1 C16 1_555 1_555
O2 C16 1_555 1_555
O3 C9 1_555 1_555
O4 C9 1_555 1_555
O5 C12 1_555 1_555
O6 C12 1_555 1_555
O7 C7 1_555 1_555
O8 Sr1 1_555 1_555
O9 Sr1 1_555 1_555
H1 O9 1_555 1_555
H2 O9 1_555 1_555
O10 Sr1 1_555 1_555
H3 O10 1_555 1_555
H4 O10 1_555 1_555
O11 Sr2 1_555 1_555
H5 O11 1_555 1_555
H6 O11 1_555 1_555
O12 Sr2 1_555 1_555
H7 O12 1_555 1_555
H8 O12 1_555 1_555
O13 Sr2 1_555 1_555
H9 O13 1_555 1_555
H10 O13 1_555 1_555
O14 Sr1 1_555 1_555
H11 O14 1_555 1_555
H12 O14 1_555 1_555
C1 H13 1_555 1_555
C2 C1 1_555 1_555
C3 C1 1_555 1_555
H14 C3 1_555 1_555
C4 C2 1_555 1_555
C5 C3 1_555 1_555
H15 C5 1_555 1_555
C6 C4 1_555 1_555
C7 O8 1_555 1_555
C8 C4 1_555 1_555
C9 C10 1_555 1_555
C10 C8 1_555 1_555
C11 C8 1_555 1_555
C12 C11 1_555 1_555
C13 C11 1_555 1_555
H16 C13 1_555 1_555
C14 C10 1_555 1_555
H17 C14 1_555 1_555
C15 C13 1_555 1_555
H18 C15 1_555 1_555
C16 C2 1_555 1_555
O15 H19 1_555 1_555
H20 O15 1_555 1_555
Sr1A O1 1_555 1_555
Sr1C O1 1_555 1_555
Sr2A O3 1_555 1_555
Sr2B O11 1_555 1_555
Sr2C O2 1_555 1_555
O1A Sr1 1_555 1_555
O1C Sr1 1_555 1_555
O2C Sr1 1_555 1_555
O3A Sr2 1_555 1_555
O3C Sr2 1_555 1_555
O11B Sr2 1_555 1_555
Sr2 O8 1_555 1_555
Sr2 O2C 1_555 1_555
O2 Sr1C 1_555 1_555
O3 Sr2C 1_555 1_555
C5 C6 1_555 1_555
C6 C7 1_555 1_555
C14 C15 1_555 1_555
Sr2B O3A 1_555 1_555
Sr2B O3C 1_555 1_555
Sr2B O11B 1_555 1_555

#END
