
#######################################################################
#
#                 Cambridge Crystallographic Data Centre
#                                CCDC 
#
#######################################################################
#
# If this CIF has been generated from an entry in the Cambridge 
# Structural Database, then it will include bibliographic, chemical, 
# crystal, experimental, refinement or atomic coordinate data resulting 
# from the CCDC's data processing and validation procedures.
#
#######################################################################

data_HOWSOC
_symmetry_cell_setting           monoclinic
_symmetry_space_group_name_H-M   'P 21/c'
_symmetry_Int_Tables_number      14
_space_group_name_Hall           '-P 2ybc'
loop_
_symmetry_equiv_pos_site_id
_symmetry_equiv_pos_as_xyz
1 x,y,z
2 -x,1/2+y,1/2-z
3 -x,-y,-z
4 x,1/2-y,1/2+z
_cell_length_a                   21.3177(9)
_cell_length_b                   4.8924(2)
_cell_length_c                   15.8878(6)
_cell_angle_alpha                90
_cell_angle_beta                 107.455(4)
_cell_angle_gamma                90
_cell_volume                     1580.71
loop_
_atom_site_label
_atom_site_type_symbol
_atom_site_fract_x
_atom_site_fract_y
_atom_site_fract_z
O9 O 0.1486(2) 0.1103(10) 0.2991(3)
H1 H 0.1057(10) 0.108(14) 0.296(5)
H2 H 0.164(3) 0.279(7) 0.317(5)
O10 O 0.2100(3) 0.5987(12) 0.3574(5)
H3 H 0.194(4) 0.769(8) 0.347(5)
H4 H 0.2540(8) 0.596(16) 0.372(6)
Ag1 Ag 0.45906(2) -0.24962(10) 0.97879(3)
Ag2 Ag 0.0000 0.5000 0.5000
O1 O 0.4346(2) -0.4447(9) 0.8441(2)
O2 O 0.49853(18) -0.8213(9) 0.8747(2)
O3 O 0.4004(2) -0.6848(10) 1.0174(3)
O4 O 0.3035(2) -0.6117(9) 0.9255(3)
O5 O 0.3560(2) -0.9806(9) 0.9144(3)
O8 O 0.0475(5) 0.674(3) 0.3685(7)
N1 N 0.3581(2) -0.6412(10) 0.6934(3)
N2 N 0.0798(2) 0.2071(11) 0.5354(3)
N3 N 0.3529(2) -0.7587(11) 0.9523(3)
C1 C 0.1876(3) -0.1493(13) 0.5904(3)
C2 C 0.1359(3) -0.1565(13) 0.6279(4)
H7 H 0.1367 -0.2839 0.6733
C3 C 0.3047(3) -0.6823(13) 0.7211(3)
H8 H 0.3055 -0.8190 0.7638
C4 C 0.2462(3) -0.3255(12) 0.6241(3)
C5 C 0.3575(3) -0.4453(13) 0.6328(3)
H9 H 0.3957 -0.4160 0.6149
C6 C 0.1825(3) 0.0417(13) 0.5227(3)
H10 H 0.2158 0.0530 0.4944
C7 C 0.4534(2) -0.6729(12) 0.8270(3)
C8 C 0.2493(3) -0.5262(13) 0.6873(3)
H11 H 0.2122 -0.5559 0.7075
C9 C 0.4189(3) -0.7950(13) 0.7365(3)
H12 H 0.4486 -0.7883 0.6992
H13 H 0.4079 -0.9888 0.7432
C10 C 0.1290(3) 0.2116(13) 0.4979(3)
H14 H 0.1264 0.3395 0.4520
C11 C 0.3028(3) -0.2895(12) 0.5970(3)
H15 H 0.3030 -0.1561 0.5536
C12 C 0.0840(3) 0.0220(14) 0.5985(4)
H16 H 0.0493 0.0129 0.6245
Ag1B Ag -0.45906(2) 1.24962(10) 0.02121(3)
Ag1B_2 Ag 0.54094(2) -0.75038(10) 1.02121(3)
Ag1B_3 Ag 0.54094(2) 0.24962(10) 1.02121(3)
Ag1_2 Ag 0.45906(2) -1.24962(10) 0.97879(3)
Ag1_3 Ag -0.54094(2) 1.75038(10) -0.02121(3)
Ag1_4 Ag -0.54094(2) 0.75038(10) -0.02121(3)
Ag1_5 Ag 0.45906(2) 0.75038(10) 0.97879(3)
O1B O -0.4346(2) 1.4447(9) 0.1559(2)
O2B O -0.49853(18) 1.8213(9) 0.1253(2)
O2B_2 O 0.50147(18) -0.1787(9) 1.1253(2)
O2_2 O -0.50147(18) 1.1787(9) -0.1253(2)
O3_2 O 0.4004(2) 0.3152(10) 1.0174(3)
O3B O -0.4004(2) 1.6848(10) -0.0174(3)
O4_2 O 0.3035(2) 0.3883(9) 0.9255(3)
O5_2 O 0.3560(2) 0.0194(9) 0.9144(3)
O5B O -0.3560(2) 0.9806(9) 0.0856(3)
O8B O -0.0475(5) 0.326(3) 0.6315(7)
N1B N -0.3581(2) 1.6412(10) 0.3066(3)
N2B N -0.0798(2) 0.7929(11) 0.4646(3)
N3_2 N 0.3529(2) 0.2413(11) 0.9523(3)
C1B C -0.1876(3) 1.1493(13) 0.4096(3)
C2B C -0.1359(3) 1.1565(13) 0.3721(4)
H7B H -0.1367 1.2839 0.3267
C3B C -0.3047(3) 1.6823(13) 0.2789(3)
H8B H -0.3055 1.8190 0.2362
C4B C -0.2462(3) 1.3255(12) 0.3759(3)
C5B C -0.3575(3) 1.4453(13) 0.3672(3)
H9B H -0.3957 1.4160 0.3851
C6B C -0.1825(3) 0.9583(13) 0.4773(3)
H10B H -0.2158 0.9470 0.5056
C7B C -0.4534(2) 1.6729(12) 0.1730(3)
C8B C -0.2493(3) 1.5262(13) 0.3127(3)
H11B H -0.2122 1.5559 0.2925
C9B C -0.4189(3) 1.7950(13) 0.2635(3)
H12B H -0.4486 1.7883 0.3008
H13B H -0.4079 1.9888 0.2568
C10B C -0.1290(3) 0.7884(13) 0.5021(3)
H14B H -0.1264 0.6605 0.5480
C11B C -0.3028(3) 1.2895(12) 0.4030(3)
H15B H -0.3030 1.1561 0.4464
C12B C -0.0840(3) 0.9780(14) 0.4015(4)
H16B H -0.0493 0.9871 0.3755
O6? O -0.0094(5) 0.688(2) 0.2249(6)
O7? O 0.0007(6) 0.386(3) 0.3261(7)
O11? O 0.0546(5) 0.774(3) 0.3579(7)
H5? H 0.0911(7) 0.685(16) 0.387(9)
H6? H 0.028(9) 0.63(3) 0.348(15)
N4? N 0.0166(5) 0.611(2) 0.3045(7)
loop_
_geom_bond_atom_site_label_1
_geom_bond_atom_site_label_2
_geom_bond_site_symmetry_1
_geom_bond_site_symmetry_2
Ag1 O1 1_555 1_555
Ag2 O8 1_555 1_555
O1 C7 1_555 1_555
O2 C7 1_555 1_555
O3 Ag1 1_555 1_555
O4 N3 1_555 1_555
O5 N3 1_555 1_555
O9 H1 1_555 1_555
H2 O9 1_555 1_555
O10 H3 1_555 1_555
H4 O10 1_555 1_555
N1 C3 1_555 1_555
N2 Ag2 1_555 1_555
N3 O3 1_555 1_555
C1 C2 1_555 1_555
C2 H7 1_555 1_555
C3 H8 1_555 1_555
C4 C1 1_555 1_555
C5 N1 1_555 1_555
H9 C5 1_555 1_555
C6 C1 1_555 1_555
H10 C6 1_555 1_555
C7 C9 1_555 1_555
C8 C3 1_555 1_555
H11 C8 1_555 1_555
C9 N1 1_555 1_555
H12 C9 1_555 1_555
H13 C9 1_555 1_555
C10 N2 1_555 1_555
H14 C10 1_555 1_555
C11 C4 1_555 1_555
H15 C11 1_555 1_555
C12 N2 1_555 1_555
H16 C12 1_555 1_555
Ag1B Ag1_3 1_555 1_555
Ag1B_2 Ag1 1_555 1_555
Ag1B_3 Ag1 1_555 1_555
Ag1_2 O5 1_555 1_555
Ag1_3 O2B 1_555 1_555
Ag1_4 Ag1B 1_555 1_555
Ag1_5 Ag1B_3 1_555 1_555
O1B Ag1B 1_555 1_555
O2B C7B 1_555 1_555
O2B_2 Ag1 1_555 1_555
O2_2 Ag1B 1_555 1_555
O3_2 Ag1_5 1_555 1_555
O3B Ag1B 1_555 1_555
O4_2 N3_2 1_555 1_555
O5_2 Ag1 1_555 1_555
O5B Ag1B 1_555 1_555
O8B Ag2 1_555 1_555
N1B C3B 1_555 1_555
N2B Ag2 1_555 1_555
N3_2 O3_2 1_555 1_555
C1B C2B 1_555 1_555
C2B H7B 1_555 1_555
C3B H8B 1_555 1_555
C4B C1B 1_555 1_555
C5B N1B 1_555 1_555
H9B C5B 1_555 1_555
C6B C1B 1_555 1_555
H10B C6B 1_555 1_555
C7B O1B 1_555 1_555
C8B C3B 1_555 1_555
H11B C8B 1_555 1_555
C9B N1B 1_555 1_555
H12B C9B 1_555 1_555
H13B C9B 1_555 1_555
C10B N2B 1_555 1_555
H14B C10B 1_555 1_555
C11B C4B 1_555 1_555
H15B C11B 1_555 1_555
C12B N2B 1_555 1_555
H16B C12B 1_555 1_555
O2 Ag1B_2 1_555 1_555
C2 C12 1_555 1_555
C4 C8 1_555 1_555
C5 C11 1_555 1_555
C6 C10 1_555 1_555
Ag1B_2 Ag1_2 1_555 1_555
O5_2 N3_2 1_555 1_555
C2B C12B 1_555 1_555
C4B C8B 1_555 1_555
C5B C11B 1_555 1_555
C6B C10B 1_555 1_555
C7B C9B 1_555 1_555

#END
