
#######################################################################
#
#                 Cambridge Crystallographic Data Centre
#                                CCDC 
#
#######################################################################
#
# If this CIF has been generated from an entry in the Cambridge 
# Structural Database, then it will include bibliographic, chemical, 
# crystal, experimental, refinement or atomic coordinate data resulting 
# from the CCDC's data processing and validation procedures.
#
#######################################################################

data_HOWSAP
_symmetry_cell_setting           monoclinic
_symmetry_space_group_name_H-M   'C 2'
_symmetry_Int_Tables_number      5
_space_group_name_Hall           'C 2y'
loop_
_symmetry_equiv_pos_site_id
_symmetry_equiv_pos_as_xyz
1 x,y,z
2 -x,y,-z
3 1/2+x,1/2+y,z
4 1/2-x,1/2+y,-z
_cell_length_a                   21.7800(3)
_cell_length_b                   10.85510(10)
_cell_length_c                   19.4405(3)
_cell_angle_alpha                90
_cell_angle_beta                 92.0880(10)
_cell_angle_gamma                90
_cell_volume                     4593.15
loop_
_atom_site_label
_atom_site_type_symbol
_atom_site_fract_x
_atom_site_fract_y
_atom_site_fract_z
Cu1 Cu 0.301761(18) 0.14524(4) 0.19603(2)
Cu2 Cu 0.019413(18) 0.00857(4) 0.43772(2)
Cu3 Cu 0.377515(19) -0.02460(4) 0.15022(2)
O1 O 0.73650(10) 0.5342(2) 0.15941(12)
O2 O 0.46077(10) -0.3587(2) 0.41848(12)
O3 O 0.37994(10) 0.2213(2) 0.22799(12)
O4 O 0.04839(10) -0.1077(2) 0.58008(12)
O5 O 0.61619(10) 0.0804(2) -0.06898(12)
O6 O 0.44412(10) 0.0720(2) 0.19231(12)
O7 O 0.41908(10) -0.3765(2) 0.52252(12)
O8 O 0.07277(10) -0.1263(2) 0.46863(13)
O9 O 0.29845(10) 0.0566(2) 0.28360(12)
C1 C 0.32707(13) -0.0443(3) 0.28820(15)
O10 O 0.68910(10) 0.2122(2) -0.10366(12)
O11 O 0.35898(10) -0.0928(2) 0.24281(12)
O12 O 0.80152(10) 0.4045(2) 0.10890(12)
C2 C 0.64114(14) 0.3671(3) 0.13019(16)
H1 H 0.6385 0.4101 0.1714
C3 C 0.65095(13) 0.1727(3) -0.06100(16)
C4 C 0.69509(13) 0.3719(3) 0.09314(16)
C5 C 0.53390(14) 0.2927(3) 0.14520(17)
C6 C 0.41965(14) -0.3369(3) 0.46162(16)
O13 O 0.05615(11) 0.0136(3) 0.33430(12)
N1 N 0.53966(11) 0.2489(3) 0.20966(14)
C7 C 0.07898(14) -0.1515(3) 0.53154(18)
O14 O 0.42614(11) -0.1844(2) 0.12114(14)
C8 C 0.59119(13) 0.2973(3) 0.10487(17)
C9 C 0.74880(14) 0.4419(3) 0.12267(15)
C10 C 0.37077(13) -0.1929(3) 0.37525(16)
H2 H 0.4044 -0.2033 0.3477
C11 C 0.32294(14) -0.1142(3) 0.35451(17)
O15 O 0.23740(11) 0.2922(2) 0.21855(14)
O16 O 0.48400(11) 0.3295(2) 0.12033(13)
C12 C 0.27264(15) -0.0989(3) 0.39622(18)
H3 H 0.2419 -0.0429 0.3837
C13 C 0.26827(15) -0.1676(3) 0.45671(18)
N2 N 0.17774(12) -0.2523(3) 0.50773(15)
C14 C 0.64751(13) 0.2410(3) 0.00560(15)
C15 C 0.43271(14) 0.1732(3) 0.22035(16)
C16 C 0.48674(14) 0.2438(3) 0.25377(16)
H4 H 0.4741 0.3270 0.2668
C17 C 0.21383(14) -0.1542(4) 0.50184(18)
O17 O 0.20399(12) -0.0571(3) 0.53253(16)
C18 C 0.69869(13) 0.3075(3) 0.03130(16)
H5 H 0.7348 0.3087 0.0072
C19 C 0.59438(13) 0.2365(3) 0.04282(17)
H6 H 0.5606 0.1921 0.0258
C20 C 0.12607(15) -0.2491(3) 0.55368(18)
H7 H 0.1406 -0.2354 0.6014
C21 C 0.31536(15) -0.2463(3) 0.47709(17)
H8 H 0.3123 -0.2929 0.5169
C22 C 0.51178(15) 0.1722(4) 0.31712(17)
H9 H 0.5273 0.2282 0.3526
H10 H 0.4800 0.1210 0.3360
C23 C 0.59321(14) 0.1799(4) 0.23882(19)
H11 H 0.6225 0.2346 0.2620
H12 H 0.6138 0.1345 0.2034
C24 C 0.36787(14) -0.2557(3) 0.43749(17)
C25 C 0.17775(17) -0.3636(4) 0.4636(2)
H13 H 0.2096 -0.4210 0.4788
H14 H 0.1837 -0.3422 0.4158
C26 C 0.0388(4) 0.2070(6) 0.2742(3)
H15 H 0.0165 0.2451 0.2357
H16 H 0.0275 0.2480 0.3162
C27 C 0.11373(17) -0.4177(4) 0.4730(2)
H17 H 0.0844 -0.3845 0.4392
H18 H 0.1143 -0.5067 0.4689
C28 C 0.09771(17) -0.3788(4) 0.5453(2)
H19 H 0.1153 -0.4352 0.5793
H20 H 0.0535 -0.3761 0.5499
C29 C 0.56376(16) 0.0931(4) 0.28963(18)
H21 H 0.5928 0.0692 0.3263
H22 H 0.5478 0.0197 0.2668
C30 C 0.0235(2) 0.0724(4) 0.2777(2)
H23 H -0.0204 0.0628 0.2831
H24 H 0.0340 0.0328 0.2350
C31 C 0.12054(19) 0.0318(6) 0.3292(2)
H25 H 0.1347 -0.0126 0.2894
H26 H 0.1416 -0.0019 0.3698
O18 O 0.1047(3) 0.2177(5) 0.2654(2)
C32 C 0.1366(3) 0.1637(9) 0.3226(3)
H27 H 0.1263 0.2069 0.3643
H28 H 0.1805 0.1717 0.3170
Cu1A Cu 0.698239(18) 0.14524(4) -0.19603(2)
Cu1B Cu 0.801761(18) 0.64524(4) 0.19603(2)
Cu2A Cu -0.019413(18) 0.00857(4) 0.56228(2)
Cu2B Cu 0.519413(18) -0.49143(4) 0.43772(2)
Cu2C Cu 0.480587(18) -0.49143(4) 0.56228(2)
Cu3A Cu 0.622485(19) -0.02460(4) -0.15022(2)
Cu3B Cu 0.877515(19) 0.47540(4) 0.15022(2)
O1B O 0.23650(10) 0.0342(2) 0.15941(12)
O2B O -0.03923(10) 0.1413(2) 0.41848(12)
O4A O -0.04839(10) -0.1077(2) 0.41992(12)
O5A O 0.38381(10) 0.0804(2) 0.06898(12)
O7C O 0.08092(10) 0.1235(2) 0.47748(12)
O10A O 0.31090(10) 0.2122(2) 0.10366(12)
O12B O 0.30152(10) -0.0955(2) 0.10890(12)
O19 O 0.45334(13) -0.1936(3) -0.0906(2)
O20 O 0.32513(14) -0.1739(3) -0.08427(18)
C33 C 0.4170(3) -0.3017(5) -0.0851(3)
H29 H 0.4401 -0.3641 -0.0595
H30 H 0.4072 -0.3340 -0.1308
C34 C 0.4212(2) -0.0937(4) -0.1203(3)
H31 H 0.4112 -0.1116 -0.1683
H32 H 0.4471 -0.0210 -0.1184
C35 C 0.36313(19) -0.0683(4) -0.0835(3)
H33 H 0.3732 -0.0447 -0.0363
H34 H 0.3413 -0.0004 -0.1058
C36 C 0.3584(2) -0.2736(5) -0.0491(3)
H35 H 0.3327 -0.3467 -0.0486
H36 H 0.3680 -0.2501 -0.0018
O21 O 0.39090(15) -0.4087(3) 0.1771(2)
C37 C 0.3576(3) -0.4204(5) 0.2402(3)
H37 H 0.3748 -0.3647 0.2749
H38 H 0.3613 -0.5039 0.2577
C38 C 0.2896(3) -0.3891(5) 0.2249(3)
H39 H 0.2669 -0.3974 0.2666
H40 H 0.2861 -0.3043 0.2095
O22 O 0.26417(15) -0.4676(3) 0.1738(2)
C39 C 0.3651(2) -0.4881(5) 0.1246(3)
H41 H 0.3695 -0.5733 0.1389
H42 H 0.3869 -0.4772 0.0824
C40 C 0.2973(2) -0.4577(5) 0.1119(3)
H43 H 0.2934 -0.3746 0.0940
H44 H 0.2797 -0.5137 0.0777
O23 O 0.5000 0.4786(4) 0.0000
O24 O 0.2897(4) -0.0544(8) 0.6558(4)
loop_
_geom_bond_atom_site_label_1
_geom_bond_atom_site_label_2
_geom_bond_site_symmetry_1
_geom_bond_site_symmetry_2
Cu1 Cu3 1_555 1_555
Cu2 O8 1_555 1_555
Cu3 O6 1_555 1_555
O1 C9 1_555 1_555
O2 C6 1_555 1_555
O3 Cu1 1_555 1_555
O4 C7 1_555 1_555
O5 C3 1_555 1_555
O6 C15 1_555 1_555
O7 C6 1_555 1_555
O8 C7 1_555 1_555
O9 Cu1 1_555 1_555
C1 O9 1_555 1_555
O10 C3 1_555 1_555
O11 Cu3 1_555 1_555
O12 C9 1_555 1_555
C2 H1 1_555 1_555
C3 C14 1_555 1_555
C4 C2 1_555 1_555
C5 N1 1_555 1_555
C6 C24 1_555 1_555
O13 Cu2 1_555 1_555
N1 C16 1_555 1_555
C7 C20 1_555 1_555
O14 Cu3 1_555 1_555
C8 C2 1_555 1_555
C9 C4 1_555 1_555
C10 H2 1_555 1_555
C11 C1 1_555 1_555
O15 Cu1 1_555 1_555
O16 C5 1_555 1_555
C12 C11 1_555 1_555
H3 C12 1_555 1_555
C13 C12 1_555 1_555
N2 C17 1_555 1_555
C14 C18 1_555 1_555
C15 O3 1_555 1_555
C16 C15 1_555 1_555
H4 C16 1_555 1_555
C17 C13 1_555 1_555
O17 C17 1_555 1_555
C18 C4 1_555 1_555
H5 C18 1_555 1_555
C19 C8 1_555 1_555
H6 C19 1_555 1_555
C20 N2 1_555 1_555
H7 C20 1_555 1_555
C21 C13 1_555 1_555
H8 C21 1_555 1_555
C22 C16 1_555 1_555
H9 C22 1_555 1_555
H10 C22 1_555 1_555
C23 N1 1_555 1_555
H11 C23 1_555 1_555
H12 C23 1_555 1_555
C24 C10 1_555 1_555
C25 N2 1_555 1_555
H13 C25 1_555 1_555
H14 C25 1_555 1_555
C26 H15 1_555 1_555
H16 C26 1_555 1_555
C27 C25 1_555 1_555
H17 C27 1_555 1_555
H18 C27 1_555 1_555
C28 C20 1_555 1_555
H19 C28 1_555 1_555
H20 C28 1_555 1_555
C29 C22 1_555 1_555
H21 C29 1_555 1_555
H22 C29 1_555 1_555
C30 O13 1_555 1_555
H23 C30 1_555 1_555
H24 C30 1_555 1_555
C31 O13 1_555 1_555
H25 C31 1_555 1_555
H26 C31 1_555 1_555
O18 C26 1_555 1_555
C32 C31 1_555 1_555
H27 C32 1_555 1_555
H28 C32 1_555 1_555
O19 C33 1_555 1_555
O20 C35 1_555 1_555
C33 H29 1_555 1_555
H30 C33 1_555 1_555
C34 O19 1_555 1_555
H31 C34 1_555 1_555
H32 C34 1_555 1_555
C35 C34 1_555 1_555
H33 C35 1_555 1_555
H34 C35 1_555 1_555
C36 O20 1_555 1_555
H35 C36 1_555 1_555
H36 C36 1_555 1_555
O21 C37 1_555 1_555
C37 H37 1_555 1_555
H38 C37 1_555 1_555
C38 C37 1_555 1_555
H39 C38 1_555 1_555
H40 C38 1_555 1_555
O22 C38 1_555 1_555
C39 O21 1_555 1_555
H41 C39 1_555 1_555
H42 C39 1_555 1_555
C40 O22 1_555 1_555
H43 C40 1_555 1_555
H44 C40 1_555 1_555
Cu1A O10 1_555 1_555
Cu1B O1 1_555 1_555
Cu2A Cu2 1_555 1_555
Cu2B O2 1_555 1_555
Cu2C O7 1_555 1_555
Cu3A O5 1_555 1_555
Cu3B O12 1_555 1_555
O1B Cu1 1_555 1_555
O2B Cu2 1_555 1_555
O4A Cu2 1_555 1_555
O5A Cu3 1_555 1_555
O7C Cu2 1_555 1_555
O10A Cu1 1_555 1_555
O12B Cu3 1_555 1_555
O4 Cu2A 1_555 1_555
C1 O11 1_555 1_555
C5 C8 1_555 1_555
C10 C11 1_555 1_555
C14 C19 1_555 1_555
C21 C24 1_555 1_555
C23 C29 1_555 1_555
C26 C30 1_555 1_555
C27 C28 1_555 1_555
O18 C32 1_555 1_555
C33 C36 1_555 1_555
C39 C40 1_555 1_555
Cu1A Cu3A 1_555 1_555
Cu1B Cu3B 1_555 1_555
Cu2B Cu2C 1_555 1_555

#END
