
#######################################################################
#
#                 Cambridge Crystallographic Data Centre
#                                CCDC 
#
#######################################################################
#
# If this CIF has been generated from an entry in the Cambridge 
# Structural Database, then it will include bibliographic, chemical, 
# crystal, experimental, refinement or atomic coordinate data resulting 
# from the CCDC's data processing and validation procedures.
#
#######################################################################

data_HOWTIX
_symmetry_cell_setting           orthorhombic
_symmetry_space_group_name_H-M   'P c c n'
_symmetry_Int_Tables_number      56
_space_group_name_Hall           '-P 2ab 2ac'
loop_
_symmetry_equiv_pos_site_id
_symmetry_equiv_pos_as_xyz
1 x,y,z
2 1/2-x,1/2-y,z
3 -x,1/2+y,1/2-z
4 1/2+x,-y,1/2-z
5 -x,-y,-z
6 1/2+x,1/2+y,-z
7 x,1/2-y,1/2+z
8 1/2-x,y,1/2+z
_cell_length_a                   44.1966(5)
_cell_length_b                   14.2593(1)
_cell_length_c                   24.4632(2)
_cell_angle_alpha                90
_cell_angle_beta                 90
_cell_angle_gamma                90
_cell_volume                     15417
loop_
_atom_site_label
_atom_site_type_symbol
_atom_site_fract_x
_atom_site_fract_y
_atom_site_fract_z
N2 N 0.2343(3) 0.9547(10) 0.4238(6)
O7 O 0.2191(5) 0.8420(15) 0.3682(9)
C24 C 0.2271(6) 0.9229(16) 0.3789(8)
H20 H 0.2278 0.9655 0.3490
C25 C 0.2309(6) 0.9157(16) 0.4679(8)
H21 H 0.2248 0.8504 0.4619
H22 H 0.2152 0.9482 0.4888
H23 H 0.2500 0.9172 0.4883
C26 C 0.2419(7) 1.0431(14) 0.4264(11)
H24 H 0.2420 1.0700 0.3895
H25 H 0.2622 1.0487 0.4424
H26 H 0.2273 1.0769 0.4492
N3 N 0.1492(3) 0.8740(9) 0.2233(5)
O8 O 0.1696(6) 1.0114(15) 0.2270(10)
C27 C 0.1617(7) 0.9401(17) 0.2508(10)
H27 H 0.1647 0.9337 0.2890
C28 C 0.1402(10) 0.803(2) 0.2467(13)
H28 H 0.1469 0.8047 0.2849
H29 H 0.1486 0.7477 0.2286
H30 H 0.1181 0.8011 0.2454
C29 C 0.1448(5) 0.8903(16) 0.1736(7)
H31 H 0.1367 0.8340 0.1559
H32 H 0.1640 0.9079 0.1563
H33 H 0.1303 0.9418 0.1698
N4 N 0.0089(4) 0.5441(12) 0.1109(7)
O9 O 0.0396(5) 0.4834(17) 0.1686(10)
C30 C 0.0266(4) 0.5552(13) 0.1515(7)
H34 H 0.0298 0.6149 0.1678
C31 C 0.0049(5) 0.4672(13) 0.0930(10)
H35 H -0.0087 0.4707 0.0614
H36 H -0.0042 0.4275 0.1212
H37 H 0.0244 0.4404 0.0816
C32 C -0.0057(6) 0.6160(15) 0.0953(12)
H38 H -0.0188 0.5992 0.0644
H39 H 0.0086 0.6649 0.0839
H40 H -0.0181 0.6394 0.1255
Zn2 Zn 0.08643(2) 0.48736(6) -0.05589(4)
P2 P 0.01955(5) 0.98931(14) 0.10834(9)
C33 C 0.03616(18) 0.8806(5) 0.0842(3)
O10 O 0.06765(12) 0.6042(3) -0.0302(2)
N5 N 0.13208(17) 0.4899(5) -0.0618(3)
H41 H 0.1360 0.4534 -0.0925
C34 C 0.0266(2) 0.8439(5) 0.0339(3)
H42 H 0.0110 0.8748 0.0141
O11 O 0.09328(13) 0.5826(4) 0.0450(3)
C35 C 0.03963(19) 0.7632(5) 0.0125(3)
H43 H 0.0337 0.7419 -0.0226
O12 O 0.07033(13) 0.4909(4) -0.1315(2)
C36 C 0.06039(18) 0.7151(5) 0.0406(3)
O13 O 0.11321(16) 0.4426(4) -0.1728(2)
O14 O 0.06879(13) 0.3868(4) -0.0122(2)
C37 C 0.0698(2) 0.7471(6) 0.0911(3)
H44 H 0.0849 0.7137 0.1107
O15 O 0.09520(16) 0.2878(4) -0.0644(3)
C38 C 0.05737(18) 0.8274(6) 0.1134(3)
H45 H 0.0633 0.8468 0.1490
C39 C 0.07525(18) 0.6272(5) 0.0189(3)
C40 C 0.03912(19) 1.0088(5) 0.1719(3)
C41 C 0.02548(19) 0.9832(5) 0.2199(3)
H46 H 0.0054 0.9597 0.2188
C42 C 0.03978(19) 0.9903(6) 0.2697(3)
H47 H 0.0295 0.9701 0.3018
C43 C 0.0688(2) 1.0262(5) 0.2740(3)
C44 C 0.0828(2) 1.0564(6) 0.2255(3)
H48 H 0.1024 1.0837 0.2267
C45 C 0.0678(2) 1.0464(6) 0.1761(3)
H49 H 0.0778 1.0661 0.1436
C46 C 0.0860(3) 0.4686(5) -0.1740(3)
C47 C 0.03738(16) 1.0777(5) 0.0639(3)
C48 C 0.02877(18) 1.1715(5) 0.0740(3)
H50 H 0.0137 1.1850 0.1006
C49 C 0.04220(18) 1.2435(5) 0.0452(3)
H51 H 0.0377 1.3068 0.0542
C50 C 0.06187(18) 1.2245(5) 0.0040(3)
C51 C 0.06977(19) 1.1348(5) -0.0053(3)
H52 H 0.0841 1.1219 -0.0332
C52 C 0.05820(19) 1.0619(5) 0.0236(3)
H53 H 0.0646 0.9997 0.0157
C53 C 0.0775(2) 0.3040(6) -0.0278(4)
C54 C 0.1495(2) 0.4440(7) -0.0189(4)
H54 H 0.1712 0.4494 -0.0271
H55 H 0.1439 0.3776 -0.0170
H56 H 0.1453 0.4742 0.0163
C55 C 0.1442(3) 0.5833(8) -0.0771(4)
H57 H 0.1663 0.5801 -0.0793
H58 H 0.1384 0.6295 -0.0494
H59 H 0.1360 0.6019 -0.1127
C43F C 0.0688(2) 0.4738(5) -0.2260(3)
C46F C 0.0860(3) 1.0314(5) 0.3260(3)
C50_2 C 0.06187(18) 0.2245(5) 0.0040(3)
C53_2 C 0.0775(2) 1.3040(6) -0.0278(4)
Zn1 Zn 0.20309(2) 0.45850(6) 0.14858(4)
P1 P 0.13699(5) 0.95853(14) -0.01759(8)
C1 C 0.15748(18) 0.8661(5) 0.0184(3)
O1 O 0.22733(13) 0.6445(4) 0.1184(2)
N1 N 0.24844(19) 0.4494(5) 0.1630(3)
H1 H 0.2535 0.5017 0.1839
O2 O 0.18567(13) 0.5611(3) 0.1048(2)
C2 C 0.18723(18) 0.8726(5) 0.0366(3)
H2 H 0.1982 0.9289 0.0303
C3 C 0.20139(16) 0.7988(5) 0.0638(3)
H3 H 0.2217 0.8053 0.0757
O3 O 0.2087(3) 0.5926(7) 0.2384(3)
C4 C 0.1860(2) 0.7168(5) 0.0734(3)
O4 O 0.18308(14) 0.4693(4) 0.2217(2)
C5 C 0.1564(2) 0.7076(5) 0.0555(3)
H4 H 0.1458 0.6505 0.0611
O5 O 0.21292(16) 0.3593(5) 0.0551(3)
C6 C 0.14227(17) 0.7822(5) 0.0293(3)
H5 H 0.1217 0.7759 0.0185
O6 O 0.18262(15) 0.3416(4) 0.1264(3)
C7 C 0.2018(2) 0.6362(5) 0.1008(3)
C8 C 0.15359(18) 0.9518(5) -0.0861(3)
C9 C 0.1754(2) 0.8929(6) -0.1027(3)
H6 H 0.1831 0.8486 -0.0773
C10 C 0.1871(3) 0.8937(7) -0.1550(4)
H7 H 0.2018 0.8487 -0.1654
C11 C 0.1774(2) 0.9595(6) -0.1916(3)
C12 C 0.1548(2) 1.0201(6) -0.1776(3)
H8 H 0.1473 1.0645 -0.2032
C13 C 0.1431(2) 1.0149(6) -0.1252(3)
H9 H 0.1271 1.0564 -0.1154
C14 C 0.1910(3) 0.5320(7) 0.2526(4)
C15 C 0.15535(17) 1.0638(5) 0.0100(3)
C16 C 0.1769(2) 1.1160(6) -0.0172(4)
H10 H 0.1836 1.0960 -0.0522
C17 C 0.1890(2) 1.1971(6) 0.0055(4)
H11 H 0.2037 1.2322 -0.0140
C18 C 0.17969(19) 1.2266(5) 0.0564(3)
C19 C 0.15733(18) 1.1769(5) 0.0840(3)
H12 H 0.1505 1.1977 0.1188
C20 C 0.14497(19) 1.0959(5) 0.0602(3)
H13 H 0.1294 1.0627 0.0787
C21 C 0.1930(2) 0.3167(6) 0.0798(4)
C22 C 0.2557(4) 0.3708(18) 0.1950(13)
H14 H 0.2777 0.3685 0.2008
H15 H 0.2492 0.3137 0.1762
H16 H 0.2454 0.3753 0.2304
C23 C 0.2686(3) 0.4505(12) 0.1161(7)
H17 H 0.2896 0.4499 0.1287
H18 H 0.2649 0.5073 0.0945
H19 H 0.2648 0.3951 0.0934
C11F C 0.1774(2) 0.5405(6) 0.3084(3)
C14F C 0.1910(3) 0.9680(7) -0.2474(4)
C18_2 C 0.17969(19) 0.2266(5) 0.0564(3)
C21_2 C 0.1930(2) 1.3167(6) 0.0798(4)
loop_
_geom_bond_atom_site_label_1
_geom_bond_atom_site_label_2
_geom_bond_site_symmetry_1
_geom_bond_site_symmetry_2
Zn1 N1 1_555 1_555
P1 C1 1_555 1_555
C1 C2 1_555 1_555
O1 C7 1_555 1_555
N1 H1 1_555 1_555
O2 Zn1 1_555 1_555
C2 H2 1_555 1_555
C3 C2 1_555 1_555
H3 C3 1_555 1_555
O3 C14 1_555 1_555
C4 C3 1_555 1_555
O4 Zn1 1_555 1_555
C5 C4 1_555 1_555
H4 C5 1_555 1_555
O5 C21 1_555 1_555
C6 C1 1_555 1_555
H5 C6 1_555 1_555
O6 Zn1 1_555 1_555
C7 O2 1_555 1_555
C8 P1 1_555 1_555
C9 C8 1_555 1_555
H6 C9 1_555 1_555
C10 C9 1_555 1_555
H7 C10 1_555 1_555
C11 C10 1_555 1_555
C12 C11 1_555 1_555
H8 C12 1_555 1_555
C13 C8 1_555 1_555
H9 C13 1_555 1_555
C14 O4 1_555 1_555
C15 P1 1_555 1_555
C16 C15 1_555 1_555
H10 C16 1_555 1_555
C17 C16 1_555 1_555
H11 C17 1_555 1_555
C18 C17 1_555 1_555
C19 C18 1_555 1_555
H12 C19 1_555 1_555
C20 C15 1_555 1_555
H13 C20 1_555 1_555
C21 O6 1_555 1_555
C22 N1 1_555 1_555
H14 C22 1_555 1_555
H15 C22 1_555 1_555
H16 C22 1_555 1_555
C23 N1 1_555 1_555
H17 C23 1_555 1_555
H18 C23 1_555 1_555
H19 C23 1_555 1_555
N2 C24 1_555 1_555
O7 C24 1_555 1_555
C24 H20 1_555 1_555
C25 N2 1_555 1_555
H21 C25 1_555 1_555
H22 C25 1_555 1_555
H23 C25 1_555 1_555
C26 N2 1_555 1_555
H24 C26 1_555 1_555
H25 C26 1_555 1_555
H26 C26 1_555 1_555
N3 C27 1_555 1_555
O8 C27 1_555 1_555
C27 H27 1_555 1_555
C28 N3 1_555 1_555
H28 C28 1_555 1_555
H29 C28 1_555 1_555
H30 C28 1_555 1_555
C29 N3 1_555 1_555
H31 C29 1_555 1_555
H32 C29 1_555 1_555
H33 C29 1_555 1_555
N4 C30 1_555 1_555
O9 C30 1_555 1_555
C30 H34 1_555 1_555
C31 N4 1_555 1_555
H35 C31 1_555 1_555
H36 C31 1_555 1_555
H37 C31 1_555 1_555
C32 N4 1_555 1_555
H38 C32 1_555 1_555
H39 C32 1_555 1_555
H40 C32 1_555 1_555
Zn2 O10 1_555 1_555
P2 C33 1_555 1_555
C33 C34 1_555 1_555
O10 C39 1_555 1_555
N5 Zn2 1_555 1_555
H41 N5 1_555 1_555
C34 H42 1_555 1_555
O11 C39 1_555 1_555
C35 C34 1_555 1_555
H43 C35 1_555 1_555
O12 Zn2 1_555 1_555
C36 C35 1_555 1_555
O13 C46 1_555 1_555
O14 Zn2 1_555 1_555
C37 C36 1_555 1_555
H44 C37 1_555 1_555
O15 C53 1_555 1_555
C38 C33 1_555 1_555
H45 C38 1_555 1_555
C39 C36 1_555 1_555
C40 P2 1_555 1_555
C41 C40 1_555 1_555
H46 C41 1_555 1_555
C42 C41 1_555 1_555
H47 C42 1_555 1_555
C43 C42 1_555 1_555
C44 C43 1_555 1_555
H48 C44 1_555 1_555
C45 C40 1_555 1_555
H49 C45 1_555 1_555
C46 O12 1_555 1_555
C47 P2 1_555 1_555
C48 C47 1_555 1_555
H50 C48 1_555 1_555
C49 C48 1_555 1_555
H51 C49 1_555 1_555
C50 C49 1_555 1_555
C51 C50 1_555 1_555
H52 C51 1_555 1_555
C52 C47 1_555 1_555
H53 C52 1_555 1_555
C53 O14 1_555 1_555
C54 N5 1_555 1_555
H54 C54 1_555 1_555
H55 C54 1_555 1_555
H56 C54 1_555 1_555
C55 N5 1_555 1_555
H57 C55 1_555 1_555
H58 C55 1_555 1_555
H59 C55 1_555 1_555
C11F C14 1_555 1_555
C14F C11 1_555 1_555
C18_2 C21 1_555 1_555
C21_2 C18 1_555 1_555
C43F C46 1_555 1_555
C46F C43 1_555 1_555
C50_2 C53 1_555 1_555
C53_2 C50 1_555 1_555
C4 C7 1_555 1_555
C5 C6 1_555 1_555
C12 C13 1_555 1_555
C19 C20 1_555 1_555
C37 C38 1_555 1_555
C44 C45 1_555 1_555
C51 C52 1_555 1_555

#END
