
#######################################################################
#
#                 Cambridge Crystallographic Data Centre
#                                CCDC 
#
#######################################################################
#
# If this CIF has been generated from an entry in the Cambridge 
# Structural Database, then it will include bibliographic, chemical, 
# crystal, experimental, refinement or atomic coordinate data resulting 
# from the CCDC's data processing and validation procedures.
#
#######################################################################

data_HOWXOH
_symmetry_cell_setting           monoclinic
_symmetry_space_group_name_H-M   'P 21/c'
_symmetry_Int_Tables_number      14
_space_group_name_Hall           '-P 2ybc'
loop_
_symmetry_equiv_pos_site_id
_symmetry_equiv_pos_as_xyz
1 x,y,z
2 -x,1/2+y,1/2-z
3 -x,-y,-z
4 x,1/2-y,1/2+z
_cell_length_a                   10.9449(3)
_cell_length_b                   10.8468(3)
_cell_length_c                   25.1629(8)
_cell_angle_alpha                90
_cell_angle_beta                 97.845(2)
_cell_angle_gamma                90
_cell_volume                     2959.31
loop_
_atom_site_label
_atom_site_type_symbol
_atom_site_fract_x
_atom_site_fract_y
_atom_site_fract_z
Zn1 Zn 0.36516(3) 0.46697(3) -0.011058(12)
S1 S 0.37074(8) 0.41988(8) 0.34748(3)
S2 S 0.38100(7) 0.38474(7) 0.22140(3)
O1 O 0.33112(19) 0.6863(2) 0.37779(7)
O2 O 0.32794(17) 0.61737(19) 0.15921(7)
O3 O 0.3648(2) 0.5549(2) 0.05985(8)
O4 O 0.18699(18) 0.4354(2) -0.03374(8)
O5 O 0.56500(19) 0.6032(2) 0.07600(8)
O6 O 0.3762(2) 0.8636(2) 0.45123(9)
O7 O 0.5758(2) 0.8149(2) 0.46749(9)
N1 N 0.0312(2) 0.3930(2) -0.09958(10)
C1 C 0.4500(3) 0.6880(3) 0.40913(13)
H1 H 0.5128 0.6885 0.3854
H2 H 0.4606 0.6136 0.4306
C2 C 0.3308(2) 0.6661(3) 0.32377(11)
C3 C 0.3457(3) 0.5491(3) 0.30410(11)
C4 C 0.3472(3) 0.5321(3) 0.24767(11)
C5 C 0.3280(2) 0.6319(3) 0.21383(10)
C6 C 0.3059(2) 0.7524(3) 0.23313(11)
C7 C 0.2853(3) 0.8552(3) 0.19880(13)
H3 H 0.2824 0.8448 0.1620
C8 C 0.2696(3) 0.9699(3) 0.21919(15)
H4 H 0.2560 1.0370 0.1961
C9 C 0.2738(3) 0.9873(3) 0.27480(14)
H5 H 0.2636 1.0659 0.2883
C10 C 0.2925(3) 0.8905(3) 0.30892(13)
H6 H 0.2952 0.9034 0.3456
C11 C 0.3081(2) 0.7692(3) 0.28919(11)
C12 C 0.2497(3) 0.4264(3) 0.38766(13)
C13 C 0.2778(5) 0.3820(3) 0.43977(15)
H7 H 0.3580 0.3583 0.4527
C14 C 0.1868(7) 0.3733(4) 0.4719(2)
H8 H 0.2057 0.3443 0.5068
C15 C 0.0684(6) 0.4069(5) 0.4530(3)
H9 H 0.0066 0.3982 0.4747
C16 C 0.0407(5) 0.4537(4) 0.4017(3)
H10 H -0.0391 0.4799 0.3894
C17 C 0.1314(4) 0.4618(3) 0.36849(18)
H11 H 0.1124 0.4910 0.3336
C18 C 0.2310(3) 0.3390(3) 0.19135(13)
C19 C 0.1391(3) 0.3169(3) 0.22302(16)
H12 H 0.1562 0.3245 0.2601
C20 C 0.0227(4) 0.2839(4) 0.19973(19)
H13 H -0.0390 0.2718 0.2212
C21 C -0.0032(4) 0.2686(4) 0.1460(2)
H14 H -0.0820 0.2451 0.1309
C22 C 0.0878(4) 0.2880(4) 0.11340(18)
H15 H 0.0701 0.2769 0.0765
C23 C 0.2063(3) 0.3243(3) 0.13625(14)
H16 H 0.2675 0.3383 0.1147
C24 C 0.4496(3) 0.6350(3) 0.14515(12)
H17 H 0.5083 0.5883 0.1696
H18 H 0.4715 0.7215 0.1490
C25 C 0.4578(3) 0.5947(3) 0.08849(11)
C26 C 0.1475(3) 0.4118(3) -0.08181(12)
C27 C -0.0093(3) 0.3679(4) -0.15623(14)
H19 H 0.0605 0.3695 -0.1755
H20 H -0.0676 0.4296 -0.1705
H21 H -0.0475 0.2881 -0.1599
C28 C -0.0634(3) 0.3929(4) -0.06335(15)
H22 H -0.0253 0.4092 -0.0274
H23 H -0.1031 0.3139 -0.0647
H24 H -0.1234 0.4556 -0.0743
C29 C 0.4673(3) 0.7987(3) 0.44548(11)
H25 H 0.206(2) 0.401(2) -0.1117(11)
Zn1B Zn 0.63484(3) 0.53303(3) 0.011058(12)
Zn1C Zn 0.36516(3) 1.03303(3) 0.488942(12)
Zn1A Zn 0.63484(3) 0.96697(3) 0.511058(12)
O5B O 0.43500(19) 0.3968(2) -0.07600(8)
O6C O 0.3762(2) 0.6364(2) -0.04877(9)
O7A O 0.4242(2) 0.3149(2) 0.03251(9)
O8 O 0.7923(11) 0.1868(8) 0.0082(6)
loop_
_geom_bond_atom_site_label_1
_geom_bond_atom_site_label_2
_geom_bond_site_symmetry_1
_geom_bond_site_symmetry_2
Zn1 O3 1_555 1_555
S1 C3 1_555 1_555
S2 C4 1_555 1_555
O1 C1 1_555 1_555
O2 C5 1_555 1_555
O3 C25 1_555 1_555
O4 Zn1 1_555 1_555
O5 C25 1_555 1_555
O6 C29 1_555 1_555
O7 C29 1_555 1_555
N1 C26 1_555 1_555
C1 H1 1_555 1_555
H2 C1 1_555 1_555
C2 O1 1_555 1_555
C3 C2 1_555 1_555
C4 C3 1_555 1_555
C5 C4 1_555 1_555
C6 C5 1_555 1_555
C7 C6 1_555 1_555
H3 C7 1_555 1_555
C8 C7 1_555 1_555
H4 C8 1_555 1_555
C9 C8 1_555 1_555
H5 C9 1_555 1_555
C10 C9 1_555 1_555
H6 C10 1_555 1_555
C11 C2 1_555 1_555
C12 S1 1_555 1_555
C13 C12 1_555 1_555
H7 C13 1_555 1_555
C14 C13 1_555 1_555
H8 C14 1_555 1_555
C15 C14 1_555 1_555
H9 C15 1_555 1_555
C16 C15 1_555 1_555
H10 C16 1_555 1_555
C17 C12 1_555 1_555
H11 C17 1_555 1_555
C18 S2 1_555 1_555
C19 C18 1_555 1_555
H12 C19 1_555 1_555
C20 C19 1_555 1_555
H13 C20 1_555 1_555
C21 C20 1_555 1_555
H14 C21 1_555 1_555
C22 C21 1_555 1_555
H15 C22 1_555 1_555
C23 C18 1_555 1_555
H16 C23 1_555 1_555
C24 O2 1_555 1_555
H17 C24 1_555 1_555
H18 C24 1_555 1_555
C25 C24 1_555 1_555
C26 O4 1_555 1_555
C27 N1 1_555 1_555
H19 C27 1_555 1_555
H20 C27 1_555 1_555
H21 C27 1_555 1_555
C28 N1 1_555 1_555
H22 C28 1_555 1_555
H23 C28 1_555 1_555
H24 C28 1_555 1_555
C29 C1 1_555 1_555
H25 C26 1_555 1_555
Zn1B O5 1_555 1_555
Zn1C O6 1_555 1_555
Zn1A O7 1_555 1_555
O5B Zn1 1_555 1_555
O6C Zn1 1_555 1_555
O7A Zn1 1_555 1_555
C6 C11 1_555 1_555
C10 C11 1_555 1_555
C16 C17 1_555 1_555
C22 C23 1_555 1_555

#END
