
#######################################################################
#
#                 Cambridge Crystallographic Data Centre
#                                CCDC 
#
#######################################################################
#
# If this CIF has been generated from an entry in the Cambridge 
# Structural Database, then it will include bibliographic, chemical, 
# crystal, experimental, refinement or atomic coordinate data resulting 
# from the CCDC's data processing and validation procedures.
#
#######################################################################

data_HOWXUN
_symmetry_cell_setting           triclinic
_symmetry_space_group_name_H-M   'P -1'
_symmetry_Int_Tables_number      2
_space_group_name_Hall           '-P 1'
loop_
_symmetry_equiv_pos_site_id
_symmetry_equiv_pos_as_xyz
1 x,y,z
2 -x,-y,-z
_cell_length_a                   10.3255(18)
_cell_length_b                   12.302(2)
_cell_length_c                   12.901(2)
_cell_angle_alpha                65.031(12)
_cell_angle_beta                 73.605(13)
_cell_angle_gamma                87.517(13)
_cell_volume                     1419.74
loop_
_atom_site_label
_atom_site_type_symbol
_atom_site_fract_x
_atom_site_fract_y
_atom_site_fract_z
Zn1 Zn -0.00488(7) 0.56207(6) 0.37218(6)
S1 S 0.57881(16) 0.18516(15) 0.31858(15)
S2 S 0.58357(17) -0.07104(17) 0.31965(17)
C1 C 0.3092(6) -0.0554(5) 0.3333(5)
C2 C 0.1921(6) 0.0075(6) 0.3280(5)
C3 C 0.4316(6) 0.0010(6) 0.3205(5)
C4 C 0.3179(6) 0.1824(6) 0.3080(5)
C5 C 0.6030(9) 0.3286(8) 0.0780(7)
H1 H 0.5317 0.2804 0.0842
C6 C 0.4317(6) 0.1210(5) 0.3106(5)
C7 C 0.1946(6) 0.1274(6) 0.3141(5)
C8 C 0.6444(6) 0.3061(6) 0.1773(6)
C9 C 0.5804(6) -0.1628(7) 0.2457(7)
C10 C 0.0683(6) -0.0494(6) 0.3397(6)
H2 H 0.0644 -0.1287 0.3496
C11 C 0.7473(6) 0.3822(6) 0.1666(7)
H3 H 0.7744 0.3715 0.2329
C12 C 0.0760(6) 0.1889(6) 0.3095(6)
H4 H 0.0773 0.2687 0.2982
C13 C -0.0450(7) 0.0123(8) 0.3363(6)
H5 H -0.1256 -0.0253 0.3440
C14 C -0.0404(7) 0.1305(8) 0.3216(6)
H6 H -0.1186 0.1710 0.3199
C15 C 0.5602(10) -0.1935(11) 0.0798(9)
H7 H 0.5428 -0.1636 0.0062
C16 C 0.5525(8) -0.1199(8) 0.1359(7)
H8 H 0.5288 -0.0416 0.1013
C17 C 0.6143(9) -0.2793(8) 0.2951(9)
H9 H 0.6341 -0.3090 0.3677
C18 C 0.7686(10) 0.4944(9) -0.0426(9)
H10 H 0.8108 0.5567 -0.1165
C19 C 0.8098(9) 0.4752(7) 0.0546(9)
H11 H 0.8808 0.5250 0.0464
C20 C 0.5928(11) -0.3095(11) 0.1282(11)
H12 H 0.5970 -0.3584 0.0888
C21 C 0.6665(11) 0.4221(10) -0.0302(8)
H13 H 0.6379 0.4353 -0.0965
C22 C 0.6191(11) -0.3524(10) 0.2367(11)
H14 H 0.6405 -0.4315 0.2714
C23 C 0.1788(6) -0.3609(6) 0.5000(7)
C24 C 0.2817(7) -0.2599(6) 0.4685(6)
H15 H 0.2503 -0.2219 0.5224
H16 H 0.3670 -0.2924 0.4783
C25 C 0.3043(8) 0.3085(7) 0.4062(7)
H17 H 0.3878 0.3477 0.3993
H18 H 0.2917 0.2284 0.4710
C26 C -0.0326(10) 0.6988(10) 0.1308(10)
H19 H -0.1041 0.6406 0.1585
C27 C 0.1348(12) 0.7728(9) 0.1555(9)
H20 H 0.1893 0.7707 0.2026
C28 C 0.0969(17) 0.8680(12) -0.0301(13)
H21 H 0.1218 0.9238 -0.1098
C29 C 0.1676(16) 0.8671(13) 0.0387(11)
H22 H 0.2374 0.9264 0.0122
O1 O 0.3021(4) -0.1722(4) 0.3480(4)
O2 O 0.3173(4) 0.2980(4) 0.2970(4)
O3 O 0.1364(4) 0.4463(4) 0.3563(4)
O4 O 0.1306(5) -0.3601(4) 0.4217(4)
O5 O 0.1515(5) 0.3629(4) 0.5437(4)
O6 O 0.1513(5) -0.4402(4) 0.6066(4)
N1 N 0.0381(6) 0.6908(5) 0.2022(5)
C30 C -0.0063(14) 0.7934(13) 0.0100(10)
H23 H -0.0630 0.7992 -0.0365
C31 C 0.1871(6) 0.3789(6) 0.4371(6)
Zn1_2 Zn -0.00488(7) -0.43793(6) 0.37218(6)
Zn1A Zn 0.00488(7) 0.43793(6) 0.62782(6)
Zn1A_2 Zn 0.00488(7) -0.56207(6) 0.62782(6)
O4_2 O 0.1306(5) 0.6399(4) 0.4217(4)
O5A O -0.1515(5) 0.6371(4) 0.4563(4)
O6A O -0.1513(5) 0.4402(4) 0.3934(4)
loop_
_geom_bond_atom_site_label_1
_geom_bond_atom_site_label_2
_geom_bond_site_symmetry_1
_geom_bond_site_symmetry_2
Zn1 O3 1_555 1_555
S1 C6 1_555 1_555
S2 C3 1_555 1_555
C1 C2 1_555 1_555
C2 C7 1_555 1_555
C3 C1 1_555 1_555
C4 C6 1_555 1_555
C5 H1 1_555 1_555
C6 C3 1_555 1_555
C7 C4 1_555 1_555
C8 S1 1_555 1_555
C9 S2 1_555 1_555
C10 C2 1_555 1_555
H2 C10 1_555 1_555
C11 C8 1_555 1_555
H3 C11 1_555 1_555
C12 C7 1_555 1_555
H4 C12 1_555 1_555
C13 C10 1_555 1_555
H5 C13 1_555 1_555
C14 C12 1_555 1_555
H6 C14 1_555 1_555
C15 H7 1_555 1_555
C16 C9 1_555 1_555
H8 C16 1_555 1_555
C17 C9 1_555 1_555
H9 C17 1_555 1_555
C18 H10 1_555 1_555
C19 C11 1_555 1_555
H11 C19 1_555 1_555
C20 C15 1_555 1_555
H12 C20 1_555 1_555
C21 C5 1_555 1_555
H13 C21 1_555 1_555
C22 C17 1_555 1_555
H14 C22 1_555 1_555
C23 C24 1_555 1_555
C24 H15 1_555 1_555
H16 C24 1_555 1_555
C25 H17 1_555 1_555
H18 C25 1_555 1_555
C26 H19 1_555 1_555
C27 H20 1_555 1_555
C28 H21 1_555 1_555
C29 C27 1_555 1_555
H22 C29 1_555 1_555
O1 C1 1_555 1_555
O2 C4 1_555 1_555
O3 C31 1_555 1_555
O4 C23 1_555 1_555
O5 C31 1_555 1_555
O6 C23 1_555 1_555
N1 Zn1 1_555 1_555
C30 C26 1_555 1_555
H23 C30 1_555 1_555
C31 C25 1_555 1_555
Zn1_2 O4 1_555 1_555
Zn1A O5 1_555 1_555
Zn1A_2 O6 1_555 1_555
O4_2 Zn1 1_555 1_555
O5A Zn1 1_555 1_555
O6A Zn1 1_555 1_555
C5 C8 1_555 1_555
C13 C14 1_555 1_555
C15 C16 1_555 1_555
C18 C19 1_555 1_555
C18 C21 1_555 1_555
C20 C22 1_555 1_555
C24 O1 1_555 1_555
C25 O2 1_555 1_555
C26 N1 1_555 1_555
C27 N1 1_555 1_555
C28 C29 1_555 1_555
C28 C30 1_555 1_555

#END
