
#######################################################################
#
#                 Cambridge Crystallographic Data Centre
#                                CCDC 
#
#######################################################################
#
# If this CIF has been generated from an entry in the Cambridge 
# Structural Database, then it will include bibliographic, chemical, 
# crystal, experimental, refinement or atomic coordinate data resulting 
# from the CCDC's data processing and validation procedures.
#
#######################################################################

data_HOWYUN
_symmetry_cell_setting           monoclinic
_symmetry_space_group_name_H-M   'I 2/a'
_symmetry_Int_Tables_number      15
_space_group_name_Hall           '-I 2ya'
loop_
_symmetry_equiv_pos_site_id
_symmetry_equiv_pos_as_xyz
1 x,y,z
2 1/2+x,1/2+y,1/2+z
3 1/2+x,-y,z
4 x,1/2-y,1/2+z
5 -x,-y,-z
6 1/2-x,1/2-y,1/2-z
7 1/2-x,y,-z
8 -x,1/2+y,1/2-z
_cell_length_a                   18.130(1)
_cell_length_b                   9.122(1)
_cell_length_c                   18.813(1)
_cell_angle_alpha                90
_cell_angle_beta                 91.90(1)
_cell_angle_gamma                90
_cell_volume                     3109.62
loop_
_atom_site_label
_atom_site_type_symbol
_atom_site_fract_x
_atom_site_fract_y
_atom_site_fract_z
Al1 Al -0.2500 -0.11798(8) 0.0000
Li1 Li -0.3926(2) -0.1074(4) 0.0455(2)
Cl1 Cl 0.0000 0.0000 0.0000
O1 O -0.29354(8) -0.01989(15) 0.06678(8)
O2 O -0.16939(7) -0.21582(15) 0.02078(7)
C1 C -0.22469(13) 0.0904(3) -0.11808(12)
C2 C -0.30155(16) 0.1486(3) -0.10752(18)
H1 H -0.3369 0.0691 -0.1124
H2 H -0.3041 0.1910 -0.0604
H3 H -0.3130 0.2232 -0.1430
C3 C -0.2211(2) 0.0223(4) -0.19184(15)
H4 H -0.2574 -0.0556 -0.1966
H5 H -0.2316 0.0968 -0.2276
H6 H -0.1722 -0.0175 -0.1983
C4 C -0.16816(19) 0.2116(3) -0.1108(2)
H7 H -0.1193 0.1715 -0.1173
H8 H -0.1786 0.2860 -0.1466
H9 H -0.1703 0.2550 -0.0639
C5 C -0.35722(12) -0.3247(2) -0.06963(12)
C6 C -0.29386(17) -0.3982(4) -0.10477(19)
H10 H -0.2663 -0.3259 -0.1308
H11 H -0.2618 -0.4435 -0.0688
H12 H -0.3127 -0.4727 -0.1374
C7 C -0.40252(19) -0.4327(3) -0.02918(15)
H13 H -0.4433 -0.3820 -0.0079
H14 H -0.4216 -0.5076 -0.0615
H15 H -0.3718 -0.4781 0.0079
C8 C -0.40572(18) -0.2510(3) -0.12670(15)
H16 H -0.3766 -0.1811 -0.1526
H17 H -0.4255 -0.3246 -0.1593
H18 H -0.4460 -0.2003 -0.1046
O3 O -0.42916(9) -0.2181(2) 0.12831(9)
C9 C -0.39155(15) -0.3338(3) 0.16576(15)
H19 H -0.3592 -0.3870 0.1340
H20 H -0.3616 -0.2946 0.2057
C10 C -0.45022(17) -0.4324(4) 0.19186(17)
H21 H -0.4623 -0.5093 0.1570
H22 H -0.4349 -0.4783 0.2371
C11 C -0.51507(15) -0.3312(3) 0.20135(15)
H23 H -0.5164 -0.2958 0.2505
H24 H -0.5617 -0.3812 0.1892
C12 C -0.5021(2) -0.2090(4) 0.1517(2)
H25 H -0.5096 -0.1151 0.1757
H26 H -0.5370 -0.2151 0.1109
O1F O -0.20646(8) -0.01989(15) -0.06678(8)
Li1F Li -0.1074(2) -0.1074(4) -0.0455(2)
Cl1B Cl -0.5000 0.0000 0.0000
Li1B Li 0.1074(2) 0.1074(4) 0.0455(2)
O2F O -0.33061(7) -0.21582(15) -0.02078(7)
C5F C -0.14278(12) -0.3247(2) 0.06963(12)
C6F C -0.20614(17) -0.3982(4) 0.10477(19)
H10F H -0.2337 -0.3259 0.1308
H11F H -0.2382 -0.4435 0.0688
H12F H -0.1873 -0.4727 0.1374
C7F C -0.09748(19) -0.4327(3) 0.02918(15)
H13F H -0.0567 -0.3820 0.0079
H14F H -0.0784 -0.5076 0.0615
H15F H -0.1282 -0.4781 -0.0079
C8F C -0.09428(18) -0.2510(3) 0.12670(15)
H16F H -0.1234 -0.1811 0.1526
H17F H -0.0745 -0.3246 0.1593
H18F H -0.0540 -0.2003 0.1046
O3F O -0.07084(9) -0.2181(2) -0.12831(9)
C9F C -0.10845(15) -0.3338(3) -0.16576(15)
H19F H -0.1408 -0.3870 -0.1340
H20F H -0.1384 -0.2946 -0.2057
C10F C -0.04978(17) -0.4324(4) -0.19186(17)
H21F H -0.0377 -0.5093 -0.1570
H22F H -0.0651 -0.4783 -0.2371
C11F C 0.01507(15) -0.3312(3) -0.20135(15)
H23F H 0.0164 -0.2958 -0.2505
H24F H 0.0617 -0.3812 -0.1892
C12F C 0.0021(2) -0.2090(4) -0.1517(2)
H25F H 0.0096 -0.1151 -0.1757
H26F H 0.0370 -0.2151 -0.1109
C1F C -0.27531(13) 0.0904(3) 0.11808(12)
C2F C -0.19845(16) 0.1486(3) 0.10752(18)
H1F H -0.1631 0.0691 0.1124
H2F H -0.1959 0.1910 0.0604
H3F H -0.1870 0.2232 0.1430
C3F C -0.2789(2) 0.0223(4) 0.19184(15)
H4F H -0.2426 -0.0556 0.1966
H5F H -0.2684 0.0968 0.2276
H6F H -0.3278 -0.0175 0.1983
C4F C -0.33184(19) 0.2116(3) 0.1108(2)
H7F H -0.3807 0.1715 0.1173
H8F H -0.3214 0.2860 0.1466
H9F H -0.3297 0.2550 0.0639
loop_
_geom_bond_atom_site_label_1
_geom_bond_atom_site_label_2
_geom_bond_site_symmetry_1
_geom_bond_site_symmetry_2
Al1 O1 1_555 1_555
Li1 O1 1_555 1_555
Cl1 Li1F 1_555 1_555
O1 C1F 1_555 1_555
O2 Al1 1_555 1_555
C1 C2 1_555 1_555
C2 H1 1_555 1_555
H2 C2 1_555 1_555
H3 C2 1_555 1_555
C3 C1 1_555 1_555
H4 C3 1_555 1_555
H5 C3 1_555 1_555
H6 C3 1_555 1_555
C4 C1 1_555 1_555
H7 C4 1_555 1_555
H8 C4 1_555 1_555
H9 C4 1_555 1_555
C5 C6 1_555 1_555
C6 H10 1_555 1_555
H11 C6 1_555 1_555
H12 C6 1_555 1_555
C7 C5 1_555 1_555
H13 C7 1_555 1_555
H14 C7 1_555 1_555
H15 C7 1_555 1_555
C8 C5 1_555 1_555
H16 C8 1_555 1_555
H17 C8 1_555 1_555
H18 C8 1_555 1_555
O3 Li1 1_555 1_555
C9 O3 1_555 1_555
H19 C9 1_555 1_555
H20 C9 1_555 1_555
C10 C9 1_555 1_555
H21 C10 1_555 1_555
H22 C10 1_555 1_555
C11 C10 1_555 1_555
H23 C11 1_555 1_555
H24 C11 1_555 1_555
C12 O3 1_555 1_555
H25 C12 1_555 1_555
H26 C12 1_555 1_555
O1F Al1 1_555 1_555
Li1F O2 1_555 1_555
Cl1B Li1 1_555 1_555
Li1B Cl1 1_555 1_555
O2F Al1 1_555 1_555
C5F O2 1_555 1_555
C6F C5F 1_555 1_555
H10F C6F 1_555 1_555
H11F C6F 1_555 1_555
H12F C6F 1_555 1_555
C7F C5F 1_555 1_555
H13F C7F 1_555 1_555
H14F C7F 1_555 1_555
H15F C7F 1_555 1_555
C8F C5F 1_555 1_555
H16F C8F 1_555 1_555
H17F C8F 1_555 1_555
H18F C8F 1_555 1_555
O3F Li1F 1_555 1_555
C9F O3F 1_555 1_555
H19F C9F 1_555 1_555
H20F C9F 1_555 1_555
C10F C9F 1_555 1_555
H21F C10F 1_555 1_555
H22F C10F 1_555 1_555
C11F C10F 1_555 1_555
H23F C11F 1_555 1_555
H24F C11F 1_555 1_555
C12F O3F 1_555 1_555
H25F C12F 1_555 1_555
H26F C12F 1_555 1_555
C1F C2F 1_555 1_555
C2F H1F 1_555 1_555
H2F C2F 1_555 1_555
H3F C2F 1_555 1_555
C3F C1F 1_555 1_555
H4F C3F 1_555 1_555
H5F C3F 1_555 1_555
H6F C3F 1_555 1_555
C4F C1F 1_555 1_555
H7F C4F 1_555 1_555
H8F C4F 1_555 1_555
H9F C4F 1_555 1_555
Li1 O2F 1_555 1_555
C1 O1F 1_555 1_555
C5 O2F 1_555 1_555
C11 C12 1_555 1_555
O1F Li1F 1_555 1_555
C11F C12F 1_555 1_555

#END
