
#######################################################################
#
#                 Cambridge Crystallographic Data Centre
#                                CCDC 
#
#######################################################################
#
# If this CIF has been generated from an entry in the Cambridge 
# Structural Database, then it will include bibliographic, chemical, 
# crystal, experimental, refinement or atomic coordinate data resulting 
# from the CCDC's data processing and validation procedures.
#
#######################################################################

data_HOXDEE
_symmetry_cell_setting           monoclinic
_symmetry_space_group_name_H-M   'C 2/c'
_symmetry_Int_Tables_number      15
_space_group_name_Hall           '-C 2yn'
loop_
_symmetry_equiv_pos_site_id
_symmetry_equiv_pos_as_xyz
1 x,y,z
2 -x,y,1/2-z
3 1/2+x,1/2+y,z
4 1/2-x,1/2+y,1/2-z
5 -x,-y,-z
6 x,-y,1/2+z
7 1/2-x,1/2-y,-z
8 1/2+x,1/2-y,1/2+z
_cell_length_a                   7.5098(15)
_cell_length_b                   15.068(3)
_cell_length_c                   13.534(3)
_cell_angle_alpha                90
_cell_angle_beta                 97.26(3)
_cell_angle_gamma                90
_cell_volume                     1519.2
loop_
_atom_site_label
_atom_site_type_symbol
_atom_site_fract_x
_atom_site_fract_y
_atom_site_fract_z
Cu1 Cu 0.02593(8) 0.02161(4) 0.86771(4)
Cl1 Cl 0.23561(15) 0.04341(8) 0.75457(8)
C1 C 0.0023(11) 0.3813(4) 0.9680(4)
H1 H -0.0083 0.4428 0.9666
C2 C -0.0329(9) 0.3378(3) 1.0521(4)
H2 H -0.0621 0.3671 1.1082
C3 C 0.0527(9) 0.3392(3) 0.8846(4)
H3 H 0.0785 0.3734 0.8310
C4 C 0.0653(7) 0.2499(3) 0.8791(3)
H4 H 0.0992 0.2215 0.8234
C5 C -0.0855(6) 0.1840(3) 1.2138(3)
H5 H -0.1527 0.2378 1.2225
H6 H -0.1592 0.1338 1.2276
C6 C -0.0211(7) 0.2457(3) 1.0464(3)
C7 C 0.0241(6) 0.2025(3) 0.9629(3)
N1 N 0.0212(5) 0.1132(2) 0.9781(2)
N2 N -0.0455(5) 0.1788(2) 1.1112(2)
N3 N -0.0198(5) 0.0995(2) 1.0689(2)
Cu1A Cu -0.02593(8) 0.02161(4) 0.63229(4)
Cu1D Cu -0.02593(8) -0.02161(4) 1.13229(4)
Cu1A_2 Cu -0.02593(8) 0.02161(4) 1.63229(4)
Cu1E Cu 0.02593(8) -0.02161(4) 1.36771(4)
Cl1A Cl -0.23561(15) 0.04341(8) 0.74543(8)
C1A C -0.0023(11) 0.3813(4) 1.5320(4)
H1A H 0.0083 0.4428 1.5334
C2A C 0.0329(9) 0.3378(3) 1.4479(4)
H2A H 0.0621 0.3671 1.3918
C3A C -0.0527(9) 0.3392(3) 1.6154(4)
H3A H -0.0785 0.3734 1.6690
C4A C -0.0653(7) 0.2499(3) 1.6209(3)
H4A H -0.0992 0.2215 1.6766
C5A C 0.0855(6) 0.1840(3) 1.2862(3)
H5A H 0.1527 0.2378 1.2775
H6A H 0.1592 0.1338 1.2724
C6A C 0.0211(7) 0.2457(3) 1.4536(3)
C7A C -0.0241(6) 0.2025(3) 1.5371(3)
N1A N -0.0212(5) 0.1132(2) 1.5219(2)
N1A_2 N -0.0212(5) 0.1132(2) 0.5219(2)
N2A N 0.0455(5) 0.1788(2) 1.3888(2)
N3A N 0.0198(5) 0.0995(2) 1.4311(2)
N3D N 0.0198(5) -0.0995(2) 0.9311(2)
N3E N -0.0198(5) -0.0995(2) 0.5689(2)
loop_
_geom_bond_atom_site_label_1
_geom_bond_atom_site_label_2
_geom_bond_site_symmetry_1
_geom_bond_site_symmetry_2
Cu1 Cl1 1_555 1_555
Cl1 Cu1A 1_555 1_555
C1 H1 1_555 1_555
C2 C1 1_555 1_555
H2 C2 1_555 1_555
C3 C1 1_555 1_555
H3 C3 1_555 1_555
C4 C3 1_555 1_555
H4 C4 1_555 1_555
C5 H5 1_555 1_555
H6 C5 1_555 1_555
C6 C2 1_555 1_555
C7 C4 1_555 1_555
N1 Cu1 1_555 1_555
N2 C5 1_555 1_555
N3 N1 1_555 1_555
Cu1A Cl1A 1_555 1_555
Cu1D N3 1_555 1_555
Cu1A_2 N1A 1_555 1_555
Cu1E N3A 1_555 1_555
Cl1A Cu1 1_555 1_555
C1A H1A 1_555 1_555
C2A C1A 1_555 1_555
H2A C2A 1_555 1_555
C3A C1A 1_555 1_555
H3A C3A 1_555 1_555
C4A C3A 1_555 1_555
H4A C4A 1_555 1_555
C5A C5 1_555 1_555
H5A C5A 1_555 1_555
H6A C5A 1_555 1_555
C6A C2A 1_555 1_555
C7A C4A 1_555 1_555
N1A C7A 1_555 1_555
N1A_2 Cu1A 1_555 1_555
N2A C5A 1_555 1_555
N3A N1A 1_555 1_555
N3D Cu1 1_555 1_555
N3E Cu1A 1_555 1_555
C6 C7 1_555 1_555
C6 N2 1_555 1_555
C7 N1 1_555 1_555
N2 N3 1_555 1_555
C6A C7A 1_555 1_555
C6A N2A 1_555 1_555
N2A N3A 1_555 1_555

#END
