
#######################################################################
#
#                 Cambridge Crystallographic Data Centre
#                                CCDC 
#
#######################################################################
#
# If this CIF has been generated from an entry in the Cambridge 
# Structural Database, then it will include bibliographic, chemical, 
# crystal, experimental, refinement or atomic coordinate data resulting 
# from the CCDC's data processing and validation procedures.
#
#######################################################################

data_HOXDOO
_symmetry_cell_setting           triclinic
_symmetry_space_group_name_H-M   'P -1'
_symmetry_Int_Tables_number      2
_space_group_name_Hall           '-P 1'
loop_
_symmetry_equiv_pos_site_id
_symmetry_equiv_pos_as_xyz
1 x,y,z
2 -x,-y,-z
_cell_length_a                   4.0289(8)
_cell_length_b                   14.208(3)
_cell_length_c                   14.533(3)
_cell_angle_alpha                80.59(3)
_cell_angle_beta                 82.05(3)
_cell_angle_gamma                81.85(3)
_cell_volume                     806.758
loop_
_atom_site_label
_atom_site_type_symbol
_atom_site_fract_x
_atom_site_fract_y
_atom_site_fract_z
Cu1 Cu 0.6072(2) 1.37973(6) 1.48998(5)
Cu2 Cu 0.2374(2) 1.12027(6) 1.00989(6)
Cl1 Cl 1.0119(4) 1.28145(10) 1.48071(10)
Cl2 Cl -0.2501(3) 1.21839(10) 1.01942(10)
C1 C 0.3551(14) 1.4907(5) 1.1383(4)
H1 H 0.4163 1.4399 1.1038
C2 C -0.1771(16) 0.8580(4) 1.3262(5)
C3 C 0.0493(16) 0.9300(5) 1.3903(4)
C4 C 0.2281(16) 1.5692(5) 1.1099(5)
H2 H 0.1857 1.5848 1.0476
C5 C 0.1739(14) 1.6377(4) 1.2672(4)
H3 H 0.1039 1.6882 1.3016
C6 C -0.2307(14) 0.8625(4) 1.2323(4)
H4 H -0.3455 0.8270 1.2016
C7 C 0.1397(15) 1.6408(4) 1.1738(4)
H5 H 0.0414 1.6999 1.1459
C8 C 0.2253(15) 1.0085(4) 1.3613(4)
H6 H 0.3348 1.0454 1.3919
C9 C 0.1724(12) 1.0108(4) 1.2647(4)
C10 C 0.3964(12) 1.4885(4) 1.2346(4)
C11 C -0.0455(13) 0.9410(4) 1.2020(4)
C12 C 0.4016(11) 1.2503(4) 1.2505(4)
H7 H 0.2397 1.2432 1.3064
H8 H 0.2749 1.2750 1.1977
C13 C 0.5636(12) 1.1595(3) 1.2373(4)
H9 H 0.6655 1.1315 1.2938
H10 H 0.7459 1.1676 1.1866
C14 C 0.6676(12) 1.3398(4) 1.2625(4)
H11 H 0.8223 1.3099 1.3073
H12 H 0.8031 1.3539 1.2024
C15 C 0.3102(13) 1.5584(4) 1.2983(4)
N1 N 0.5155(11) 1.4554(3) 1.3802(3)
N2 N 0.3846(11) 1.5365(3) 1.3872(3)
N3 N 0.1783(11) 1.0438(3) 1.1205(3)
N4 N -0.0384(11) 0.9649(3) 1.1134(3)
N5 N 0.3098(10) 1.0735(3) 1.2105(3)
N6 N 0.5262(10) 1.4259(3) 1.2894(3)
Cu1A Cu 0.3928(2) 1.62027(6) 1.51002(5)
Cu2_2 Cu -0.7626(2) 1.12027(6) 1.00989(6)
Cl2_2 Cl 0.7499(3) 1.21839(10) 1.01942(10)
N2A N 0.6154(11) 1.4635(3) 1.6128(3)
loop_
_geom_bond_atom_site_label_1
_geom_bond_atom_site_label_2
_geom_bond_site_symmetry_1
_geom_bond_site_symmetry_2
Cu1 Cl1 1_555 1_555
Cu2 Cl2 1_555 1_555
Cl2 Cu2_2 1_555 1_555
C1 H1 1_555 1_555
C2 C3 1_555 1_555
C3 C8 1_555 1_555
C4 C1 1_555 1_555
H2 C4 1_555 1_555
C5 H3 1_555 1_555
C6 C2 1_555 1_555
H4 C6 1_555 1_555
C7 C4 1_555 1_555
H5 C7 1_555 1_555
C8 H6 1_555 1_555
C9 C8 1_555 1_555
C10 C1 1_555 1_555
C11 C6 1_555 1_555
C12 H7 1_555 1_555
H8 C12 1_555 1_555
C13 C12 1_555 1_555
H9 C13 1_555 1_555
H10 C13 1_555 1_555
C14 C12 1_555 1_555
H11 C14 1_555 1_555
H12 C14 1_555 1_555
C15 C5 1_555 1_555
N1 Cu1 1_555 1_555
N2 C15 1_555 1_555
N3 Cu2 1_555 1_555
N4 C11 1_555 1_555
N5 C9 1_555 1_555
N6 C10 1_555 1_555
Cu1A N2 1_555 1_555
Cl2_2 Cu2 1_555 1_555
N2A Cu1 1_555 1_555
C5 C7 1_555 1_555
C9 C11 1_555 1_555
C10 C15 1_555 1_555
C13 N5 1_555 1_555
C14 N6 1_555 1_555
N1 N2 1_555 1_555
N1 N6 1_555 1_555
N3 N4 1_555 1_555
N3 N5 1_555 1_555

#END
