
#######################################################################
#
#                 Cambridge Crystallographic Data Centre
#                                CCDC 
#
#######################################################################
#
# If this CIF has been generated from an entry in the Cambridge 
# Structural Database, then it will include bibliographic, chemical, 
# crystal, experimental, refinement or atomic coordinate data resulting 
# from the CCDC's data processing and validation procedures.
#
#######################################################################

data_HOXDII
_symmetry_cell_setting           monoclinic
_symmetry_space_group_name_H-M   'C 2/c'
_symmetry_Int_Tables_number      15
_space_group_name_Hall           '-C 2yn'
loop_
_symmetry_equiv_pos_site_id
_symmetry_equiv_pos_as_xyz
1 x,y,z
2 -x,y,1/2-z
3 1/2+x,1/2+y,z
4 1/2-x,1/2+y,1/2-z
5 -x,-y,-z
6 x,-y,1/2+z
7 1/2-x,1/2-y,-z
8 1/2+x,1/2-y,1/2+z
_cell_length_a                   18.001(2)
_cell_length_b                   10.1463(15)
_cell_length_c                   16.667(2)
_cell_angle_alpha                90
_cell_angle_beta                 97.706(2)
_cell_angle_gamma                90
_cell_volume                     3016.63
loop_
_atom_site_label
_atom_site_type_symbol
_atom_site_fract_x
_atom_site_fract_y
_atom_site_fract_z
Cu1 Cu 0.57247(2) 0.43770(4) 0.02415(3)
Br1 Br 0.467521(19) 0.43265(3) 0.10444(2)
N1 N 0.64047(14) 0.0551(2) 0.01126(17)
N2 N 0.64815(14) 0.1828(3) 0.03410(16)
N3 N 0.59524(14) 0.2500(3) -0.00920(17)
N4 N 0.83376(14) -0.0293(2) -0.08592(16)
N5 N 0.77651(15) -0.0692(2) -0.04917(17)
N6 N 0.72730(15) -0.1491(3) -0.09068(18)
C1 C 0.55270(17) 0.1658(3) -0.06063(19)
C2 C 0.58113(17) 0.0395(3) -0.04789(19)
C3 C 0.54868(19) -0.0702(3) -0.0902(2)
H1 H 0.5676 -0.1550 -0.0810
C4 C 0.4877(2) -0.0445(4) -0.1456(2)
H2 H 0.4640 -0.1143 -0.1749
C5 C 0.4592(2) 0.0833(4) -0.1602(2)
H3 H 0.4181 0.0959 -0.1996
C6 C 0.49022(18) 0.1895(3) -0.1180(2)
H4 H 0.4707 0.2739 -0.1271
C7 C 0.75500(19) -0.1636(3) -0.1617(2)
C8 C 0.82087(18) -0.0889(3) -0.1594(2)
C9 C 0.8616(2) -0.0858(3) -0.2259(2)
H5 H 0.9047 -0.0350 -0.2253
C10 C 0.8348(2) -0.1606(4) -0.2904(2)
H6 H 0.8609 -0.1622 -0.3349
C11 C 0.7688(3) -0.2363(4) -0.2930(3)
H7 H 0.7528 -0.2860 -0.3390
C12 C 0.7277(2) -0.2385(4) -0.2299(2)
H8 H 0.6838 -0.2875 -0.2320
C13 C 0.69174(18) -0.0404(3) 0.0542(2)
H9 H 0.6731 -0.1285 0.0410
H10 H 0.6925 -0.0279 0.1120
C14 C 0.77063(18) -0.0298(3) 0.0341(2)
H11 H 0.8033 -0.0851 0.0709
H12 H 0.7877 0.0606 0.0421
Cu1D Cu 0.42753(2) 0.56230(4) -0.02415(3)
Cu1F Cu 0.92753(2) 0.06230(4) -0.02415(3)
Br1D Br 0.532479(19) 0.56735(3) -0.10444(2)
N4F N 0.66624(14) 0.5293(2) 0.08592(16)
loop_
_geom_bond_atom_site_label_1
_geom_bond_atom_site_label_2
_geom_bond_site_symmetry_1
_geom_bond_site_symmetry_2
Cu1 Br1 1_555 1_555
Br1 Cu1D 1_555 1_555
N1 N2 1_555 1_555
N2 N3 1_555 1_555
N3 Cu1 1_555 1_555
N4 N5 1_555 1_555
N5 N6 1_555 1_555
N6 C7 1_555 1_555
C1 N3 1_555 1_555
C2 N1 1_555 1_555
C3 C2 1_555 1_555
H1 C3 1_555 1_555
C4 C3 1_555 1_555
H2 C4 1_555 1_555
C5 C4 1_555 1_555
H3 C5 1_555 1_555
C6 C1 1_555 1_555
H4 C6 1_555 1_555
C7 C8 1_555 1_555
C8 N4 1_555 1_555
C9 C8 1_555 1_555
H5 C9 1_555 1_555
C10 C9 1_555 1_555
H6 C10 1_555 1_555
C11 C10 1_555 1_555
H7 C11 1_555 1_555
C12 C7 1_555 1_555
H8 C12 1_555 1_555
C13 N1 1_555 1_555
H9 C13 1_555 1_555
H10 C13 1_555 1_555
C14 N5 1_555 1_555
H11 C14 1_555 1_555
H12 C14 1_555 1_555
Cu1D Br1D 1_555 1_555
Cu1F N4 1_555 1_555
Br1D Cu1 1_555 1_555
N4F Cu1 1_555 1_555
C1 C2 1_555 1_555
C5 C6 1_555 1_555
C11 C12 1_555 1_555
C13 C14 1_555 1_555

#END
