
#######################################################################
#
#                 Cambridge Crystallographic Data Centre
#                                CCDC 
#
#######################################################################
#
# If this CIF has been generated from an entry in the Cambridge 
# Structural Database, then it will include bibliographic, chemical, 
# crystal, experimental, refinement or atomic coordinate data resulting 
# from the CCDC's data processing and validation procedures.
#
#######################################################################

data_HOXFIK
_symmetry_cell_setting           orthorhombic
_symmetry_space_group_name_H-M   'P n m a'
_symmetry_Int_Tables_number      62
_space_group_name_Hall           '-P 2ac 2n'
loop_
_symmetry_equiv_pos_site_id
_symmetry_equiv_pos_as_xyz
1 x,y,z
2 1/2-x,-y,1/2+z
3 1/2+x,1/2-y,1/2-z
4 -x,1/2+y,-z
5 -x,-y,-z
6 1/2+x,y,1/2-z
7 1/2-x,1/2+y,1/2+z
8 x,1/2-y,z
_cell_length_a                   14.625(3)
_cell_length_b                   14.645(2)
_cell_length_c                   7.6099(13)
_cell_angle_alpha                90
_cell_angle_beta                 90
_cell_angle_gamma                90
_cell_volume                     1629.91
loop_
_atom_site_label
_atom_site_type_symbol
_atom_site_fract_x
_atom_site_fract_y
_atom_site_fract_z
Cu1 Cu 0.81713(7) 0.2500 0.50839(15)
Cu2 Cu 0.97664(7) 0.2500 0.92332(15)
C1 C 0.8625(15) -0.1287(8) 0.510(2)
H1 H 0.8631 -0.1905 0.4811
N1 N 0.6865(7) 0.2500 0.5507(12)
C2 C 0.8679(5) 0.2500 0.2677(10)
C3 C 0.9139(12) -0.1019(6) 0.6439(17)
H2 H 0.9452 -0.1428 0.7155
C4 C 0.8075(12) -0.0710(7) 0.4089(18)
H3 H 0.7702 -0.0960 0.3223
C5 C 0.8072(7) 0.0213(6) 0.4342(12)
H4 H 0.7714 0.0608 0.3678
C6 C 1.0264(5) 0.0192(6) 0.9213(9)
H5 H 1.0621 0.0716 0.9583
H6 H 1.0682 -0.0268 0.8771
C7 C 0.8660(5) 0.0517(5) 0.5700(9)
C8 C 0.9172(6) -0.0080(5) 0.6690(11)
N2 N 0.8827(3) 0.1383(3) 0.6268(6)
N3 N 0.9412(3) 0.1350(3) 0.7562(7)
N4 N 0.9636(4) 0.0463(4) 0.7823(7)
C9 C 0.6098(5) 0.2500 0.5710(11)
N5 N 0.9038(6) 0.2500 0.1329(12)
Cu1C Cu 1.18287(7) -0.2500 1.49161(15)
Cu2B Cu 0.47664(7) 0.2500 0.57668(15)
Cu2_2 Cu 0.97664(7) 0.2500 -0.07668(15)
Cu2C Cu 1.02336(7) -0.2500 1.07668(15)
C1D C 1.1375(15) 0.1287(8) 1.490(2)
H1D H 1.1369 0.1905 1.5189
C3D C 1.0861(12) 0.1019(6) 1.3561(17)
H2D H 1.0548 0.1428 1.2845
C4D C 1.1925(12) 0.0710(7) 1.5911(18)
H3D H 1.2298 0.0960 1.6777
C5D C 1.1928(7) -0.0213(6) 1.5658(12)
H4D H 1.2286 -0.0608 1.6322
C6D C 0.9736(5) -0.0192(6) 1.0787(9)
H5D H 0.9379 -0.0716 1.0417
H6D H 0.9318 0.0268 1.1229
C7D C 1.1340(5) -0.0517(5) 1.4300(9)
C8D C 1.0828(6) 0.0080(5) 1.3310(11)
N2D N 1.1173(3) -0.1383(3) 1.3732(6)
N2G N 0.8827(3) 0.3617(3) 0.6268(6)
N3D N 1.0588(3) -0.1350(3) 1.2438(7)
N3G N 0.9412(3) 0.3650(3) 0.7562(7)
N4D N 1.0364(4) -0.0463(4) 1.2177(7)
C9B C 1.1098(5) 0.2500 0.9290(11)
N5_2 N 0.9038(6) 0.2500 1.1329(12)
loop_
_geom_bond_atom_site_label_1
_geom_bond_atom_site_label_2
_geom_bond_site_symmetry_1
_geom_bond_site_symmetry_2
Cu1 N1 1_555 1_555
Cu2 N3 1_555 1_555
C1 H1 1_555 1_555
N1 C9 1_555 1_555
C2 Cu1 1_555 1_555
C3 C1 1_555 1_555
H2 C3 1_555 1_555
C4 C1 1_555 1_555
H3 C4 1_555 1_555
C5 C4 1_555 1_555
H4 C5 1_555 1_555
C6 H5 1_555 1_555
H6 C6 1_555 1_555
C7 C5 1_555 1_555
C8 C3 1_555 1_555
N2 Cu1 1_555 1_555
N3 N2 1_555 1_555
N4 C6 1_555 1_555
C9 Cu2B 1_555 1_555
N5 C2 1_555 1_555
Cu1C N2D 1_555 1_555
Cu2_2 N5 1_555 1_555
Cu2C N3D 1_555 1_555
C1D H1D 1_555 1_555
C3D C1D 1_555 1_555
H2D C3D 1_555 1_555
C4D C1D 1_555 1_555
H3D C4D 1_555 1_555
C5D C4D 1_555 1_555
H4D C5D 1_555 1_555
C6D C6 1_555 1_555
H5D C6D 1_555 1_555
H6D C6D 1_555 1_555
C7D C5D 1_555 1_555
C8D C3D 1_555 1_555
N2D C7D 1_555 1_555
N2G Cu1 1_555 1_555
N3D N2D 1_555 1_555
N3G Cu2 1_555 1_555
N4D C6D 1_555 1_555
C9B Cu2 1_555 1_555
N5_2 Cu2 1_555 1_555
C7 C8 1_555 1_555
C7 N2 1_555 1_555
C8 N4 1_555 1_555
N3 N4 1_555 1_555
C7D C8D 1_555 1_555
C8D N4D 1_555 1_555
N2G N3G 1_555 1_555
N3D N4D 1_555 1_555

#END
