
#######################################################################
#
#                 Cambridge Crystallographic Data Centre
#                                CCDC 
#
#######################################################################
#
# If this CIF has been generated from an entry in the Cambridge 
# Structural Database, then it will include bibliographic, chemical, 
# crystal, experimental, refinement or atomic coordinate data resulting 
# from the CCDC's data processing and validation procedures.
#
#######################################################################

data_HOXFOQ
_symmetry_cell_setting           monoclinic
_symmetry_space_group_name_H-M   'P 21/n'
_symmetry_Int_Tables_number      14
_space_group_name_Hall           '-P 2yn'
loop_
_symmetry_equiv_pos_site_id
_symmetry_equiv_pos_as_xyz
1 x,y,z
2 1/2-x,1/2+y,1/2-z
3 -x,-y,-z
4 1/2+x,1/2-y,1/2+z
_cell_length_a                   7.2894(15)
_cell_length_b                   16.269(3)
_cell_length_c                   15.829(3)
_cell_angle_alpha                90
_cell_angle_beta                 99.52(3)
_cell_angle_gamma                90
_cell_volume                     1851.33
loop_
_atom_site_label
_atom_site_type_symbol
_atom_site_fract_x
_atom_site_fract_y
_atom_site_fract_z
Cu1 Cu 0.23888(11) 0.86015(5) 0.27489(5)
Cu2 Cu -0.16594(12) 0.91211(5) 0.30102(5)
Cu3 Cu 0.21570(16) 1.01188(5) 0.50216(6)
Cu4 Cu 0.47994(16) 1.00916(5) 0.28750(5)
Cl1 Cl -0.00549(19) 0.92633(9) 0.19564(8)
Cl2 Cl 0.3460(2) 0.94939(9) 0.40291(8)
Cl3 Cl 0.50182(18) 0.88912(8) 0.21010(8)
Cl4 Cl -0.2040(2) 1.05343(9) 0.37092(9)
N1 N 0.3150(6) 0.6326(3) -0.0230(3)
N2 N 0.2938(6) 0.6577(3) -0.1032(3)
N3 N 0.1878(6) 0.7433(3) 0.2996(3)
N4 N 0.1218(6) 0.6090(3) 0.2763(3)
N5 N 0.1436(6) 0.6827(3) 0.2436(3)
N6 N 0.2785(6) 0.6959(3) 0.0267(3)
C1 C 0.3039(7) 0.6865(3) 0.1201(3)
H1 H 0.3558 0.6328 0.1361
H2 H 0.3902 0.7278 0.1471
C2 C 0.2314(7) 0.7636(3) -0.0223(3)
C3 C 0.1529(7) 0.6225(3) 0.3624(3)
C4 C 0.1365(8) 0.8950(3) -0.0721(4)
H3 H 0.0993 0.9484 -0.0627
C5 C 0.1464(8) 0.8703(3) -0.1571(3)
H4 H 0.1165 0.9078 -0.2015
C6 C 0.1453(8) 0.5680(3) 0.4310(3)
H5 H 0.1236 0.5120 0.4224
C7 C 0.1793(8) 0.8437(3) -0.0034(3)
H6 H 0.1767 0.8611 0.0523
C8 C 0.2096(7) 0.6867(4) 0.5248(3)
H7 H 0.2273 0.7066 0.5806
C9 C 0.2210(7) 0.7398(3) 0.4599(3)
H8 H 0.2458 0.7954 0.4697
C10 C 0.1717(8) 0.6022(4) 0.5107(3)
H9 H 0.1645 0.5686 0.5576
C11 C 0.1987(8) 0.7926(3) -0.1750(3)
H10 H 0.2066 0.7763 -0.2306
C12 C 0.1186(8) 0.6959(3) 0.1507(3)
H11 H 0.0699 0.7501 0.1373
H12 H 0.0316 0.6567 0.1220
C13 C 0.1931(7) 0.7060(3) 0.3765(3)
C14 C 0.2403(7) 0.7386(3) -0.1055(3)
Cu2_2 Cu 0.83406(12) 0.91211(5) 0.30102(5)
Cu2C Cu 0.33406(12) 0.58789(5) -0.19898(5)
Cu3B Cu -0.21570(16) 0.98812(5) 0.49784(6)
Cu3A Cu 0.28430(16) 0.51188(5) -0.00216(6)
Cu4_2 Cu -0.52006(16) 1.00916(5) 0.28750(5)
Cu4A Cu 0.02006(16) 0.50916(5) 0.21250(5)
Cl3_2 Cl -0.49818(18) 0.88912(8) 0.21010(8)
Cl4B Cl 0.2040(2) 0.94657(9) 0.62908(9)
Cl4_2 Cl 0.7960(2) 1.05343(9) 0.37092(9)
N1A N 0.1850(6) 1.1326(3) 0.5230(3)
N2C N -0.2062(6) 0.8423(3) 0.3968(3)
N4A N 0.3782(6) 1.1090(3) 0.2237(3)
loop_
_geom_bond_atom_site_label_1
_geom_bond_atom_site_label_2
_geom_bond_site_symmetry_1
_geom_bond_site_symmetry_2
Cu1 Cl1 1_555 1_555
Cu2 Cl1 1_555 1_555
Cu3 Cl2 1_555 1_555
Cu4 Cl2 1_555 1_555
Cl2 Cu1 1_555 1_555
Cl3 Cu1 1_555 1_555
Cl4 Cu2 1_555 1_555
N1 N2 1_555 1_555
N2 C14 1_555 1_555
N3 Cu1 1_555 1_555
N4 N5 1_555 1_555
N5 N3 1_555 1_555
N6 N1 1_555 1_555
C1 N6 1_555 1_555
H1 C1 1_555 1_555
H2 C1 1_555 1_555
C2 N6 1_555 1_555
C3 N4 1_555 1_555
C4 H3 1_555 1_555
C5 C4 1_555 1_555
H4 C5 1_555 1_555
C6 C3 1_555 1_555
H5 C6 1_555 1_555
C7 C2 1_555 1_555
H6 C7 1_555 1_555
C8 H7 1_555 1_555
C9 C8 1_555 1_555
H8 C9 1_555 1_555
C10 C6 1_555 1_555
H9 C10 1_555 1_555
C11 C5 1_555 1_555
H10 C11 1_555 1_555
C12 N5 1_555 1_555
H11 C12 1_555 1_555
H12 C12 1_555 1_555
C13 N3 1_555 1_555
C14 C2 1_555 1_555
Cu2_2 Cl3 1_555 1_555
Cu2C N2 1_555 1_555
Cu3B Cl4 1_555 1_555
Cu3A N1 1_555 1_555
Cu4_2 Cl4 1_555 1_555
Cu4A N4 1_555 1_555
Cl3_2 Cu2 1_555 1_555
Cl4B Cu3 1_555 1_555
Cl4_2 Cu4 1_555 1_555
N1A Cu3 1_555 1_555
N2C Cu2 1_555 1_555
N4A Cu4 1_555 1_555
Cu4 Cl3 1_555 1_555
C1 C12 1_555 1_555
C3 C13 1_555 1_555
C4 C7 1_555 1_555
C8 C10 1_555 1_555
C9 C13 1_555 1_555
C11 C14 1_555 1_555
Cu2_2 Cl4_2 1_555 1_555
Cu4_2 Cl3_2 1_555 1_555

#END
