
#######################################################################
#
#                 Cambridge Crystallographic Data Centre
#                                CCDC 
#
#######################################################################
#
# If this CIF has been generated from an entry in the Cambridge 
# Structural Database, then it will include bibliographic, chemical, 
# crystal, experimental, refinement or atomic coordinate data resulting 
# from the CCDC's data processing and validation procedures.
#
#######################################################################

data_HOXFEG
_symmetry_cell_setting           triclinic
_symmetry_space_group_name_H-M   'P -1'
_symmetry_Int_Tables_number      2
_space_group_name_Hall           '-P 1'
loop_
_symmetry_equiv_pos_site_id
_symmetry_equiv_pos_as_xyz
1 x,y,z
2 -x,-y,-z
_cell_length_a                   8.4740(10)
_cell_length_b                   10.7340(12)
_cell_length_c                   11.2700(14)
_cell_angle_alpha                80.8520(10)
_cell_angle_beta                 85.449(2)
_cell_angle_gamma                69.0960(10)
_cell_volume                     945.18
loop_
_atom_site_label
_atom_site_type_symbol
_atom_site_fract_x
_atom_site_fract_y
_atom_site_fract_z
Cu1 Cu 0.66785(11) 0.51502(10) 0.21289(8)
Cu2 Cu 0.48359(11) 0.64479(10) 0.45312(9)
Cu3 Cu 0.35489(11) 0.57053(10) 0.09368(9)
Br1 Br 0.38205(8) 0.71860(7) 0.24022(6)
Br2 Br 0.73405(8) 0.43855(7) 0.42921(6)
Br3 Br 0.57665(8) 0.35265(6) 0.13058(6)
N1 N 0.8518(6) 0.5811(5) 0.1316(4)
N2 N 1.0186(6) 0.5284(5) 0.1477(4)
N3 N 1.1054(6) 0.6037(5) 0.0928(5)
N4 N 1.5022(6) 0.2189(5) 0.4489(5)
N5 N 1.3643(6) 0.2045(5) 0.4130(5)
N6 N 1.3878(7) 0.1053(5) 0.3512(5)
C1 C 0.9873(7) 0.7137(6) 0.0356(5)
C2 C 0.8292(7) 0.6992(6) 0.0592(5)
C3 C 0.6810(8) 0.7980(7) 0.0101(6)
H1 H 0.5755 0.7898 0.0254
C4 C 0.7015(8) 0.9059(7) -0.0607(6)
H2 H 0.6070 0.9723 -0.0966
C5 C 0.8598(9) 0.9220(7) -0.0825(6)
H3 H 0.8655 0.9996 -0.1300
C6 C 1.0034(8) 0.8283(6) -0.0364(6)
H4 H 1.1076 0.8390 -0.0516
C7 C 1.5573(9) 0.0495(7) 0.3439(6)
C8 C 1.6298(8) 0.1191(6) 0.4039(6)
C9 C 1.8056(9) 0.0849(7) 0.4076(6)
H5 H 1.8536 0.1323 0.4466
C10 C 1.9022(10) -0.0213(8) 0.3514(7)
H6 H 2.0192 -0.0465 0.3515
C11 C 1.8305(10) -0.0934(8) 0.2935(7)
H7 H 1.9018 -0.1661 0.2575
C12 C 1.6615(10) -0.0617(7) 0.2878(7)
H8 H 1.6160 -0.1107 0.2488
C13 C 1.0995(8) 0.4016(6) 0.2248(5)
H9 H 1.2002 0.3478 0.1842
H10 H 1.0230 0.3515 0.2397
C14 C 1.1473(8) 0.4258(6) 0.3437(5)
H11 H 1.0527 0.4956 0.3751
H12 H 1.2416 0.4580 0.3301
C15 C 1.1958(8) 0.3002(7) 0.4363(6)
H13 H 1.1924 0.3260 0.5154
H14 H 1.1135 0.2564 0.4366
Cu2A Cu 0.51641(11) 0.35521(10) 0.54688(9)
Cu2A_2 Cu 1.51641(11) 0.35521(10) 0.54688(9)
Cu3A Cu 0.64511(11) 0.42947(10) -0.09368(9)
Cu3_2 Cu 1.35489(11) 0.57053(10) 0.09368(9)
Br2A Br 0.26595(8) 0.56145(7) 0.57079(6)
Br3A Br 0.42335(8) 0.64735(6) -0.13058(6)
N3_2 N 0.1054(6) 0.6037(5) 0.0928(5)
N4A N 0.4978(6) 0.7811(5) 0.5511(5)
loop_
_geom_bond_atom_site_label_1
_geom_bond_atom_site_label_2
_geom_bond_site_symmetry_1
_geom_bond_site_symmetry_2
Cu1 Br1 1_555 1_555
Cu2 Br1 1_555 1_555
Cu3 Br1 1_555 1_555
Br2 Cu1 1_555 1_555
Br3 Cu1 1_555 1_555
N1 Cu1 1_555 1_555
N2 N1 1_555 1_555
N3 N2 1_555 1_555
N4 N5 1_555 1_555
N5 N6 1_555 1_555
N6 C7 1_555 1_555
C1 N3 1_555 1_555
C2 N1 1_555 1_555
C3 C2 1_555 1_555
H1 C3 1_555 1_555
C4 C3 1_555 1_555
H2 C4 1_555 1_555
C5 C4 1_555 1_555
H3 C5 1_555 1_555
C6 C1 1_555 1_555
H4 C6 1_555 1_555
C7 C8 1_555 1_555
C8 N4 1_555 1_555
C9 C8 1_555 1_555
H5 C9 1_555 1_555
C10 C9 1_555 1_555
H6 C10 1_555 1_555
C11 C10 1_555 1_555
H7 C11 1_555 1_555
C12 C7 1_555 1_555
H8 C12 1_555 1_555
C13 N2 1_555 1_555
H9 C13 1_555 1_555
H10 C13 1_555 1_555
C14 C13 1_555 1_555
H11 C14 1_555 1_555
H12 C14 1_555 1_555
C15 N5 1_555 1_555
H13 C15 1_555 1_555
H14 C15 1_555 1_555
Cu2A Br2 1_555 1_555
Cu2A_2 N4 1_555 1_555
Cu3A Br3 1_555 1_555
Cu3_2 N3 1_555 1_555
Br2A Cu2 1_555 1_555
Br3A Cu3 1_555 1_555
N3_2 Cu3 1_555 1_555
N4A Cu2 1_555 1_555
Cu2 Br2 1_555 1_555
Cu3 Br3 1_555 1_555
C1 C2 1_555 1_555
C5 C6 1_555 1_555
C11 C12 1_555 1_555
C14 C15 1_555 1_555
Cu2A Br2A 1_555 1_555
Cu3A Br3A 1_555 1_555

#END
