
#######################################################################
#
#                 Cambridge Crystallographic Data Centre
#                                CCDC 
#
#######################################################################
#
# If this CIF has been generated from an entry in the Cambridge 
# Structural Database, then it will include bibliographic, chemical, 
# crystal, experimental, refinement or atomic coordinate data resulting 
# from the CCDC's data processing and validation procedures.
#
#######################################################################

data_HOXGOR
_symmetry_cell_setting           cubic
_symmetry_space_group_name_H-M   'P a -3'
_symmetry_Int_Tables_number      205
_space_group_name_Hall           '-P 2ac 2ab 3'
loop_
_symmetry_equiv_pos_site_id
_symmetry_equiv_pos_as_xyz
1 x,y,z
2 z,x,y
3 y,z,x
4 1/2-y,-z,1/2+x
5 1/2+z,1/2-x,-y
6 -y,1/2+z,1/2-x
7 1/2-z,-x,1/2+y
8 -z,1/2+x,1/2-y
9 1/2+y,1/2-z,-x
10 1/2-x,-y,1/2+z
11 1/2+x,1/2-y,-z
12 -x,1/2+y,1/2-z
13 -x,-y,-z
14 -z,-x,-y
15 -y,-z,-x
16 1/2+y,z,1/2-x
17 1/2-z,1/2+x,y
18 y,1/2-z,1/2+x
19 1/2+z,x,1/2-y
20 z,1/2-x,1/2+y
21 1/2-y,1/2+z,x
22 1/2+x,y,1/2-z
23 1/2-x,1/2+y,z
24 x,1/2-y,1/2+z
_cell_length_a                   17.9112(5)
_cell_length_b                   17.9112(5)
_cell_length_c                   17.9112(5)
_cell_angle_alpha                90
_cell_angle_beta                 90
_cell_angle_gamma                90
_cell_volume                     5746.11
loop_
_atom_site_label
_atom_site_type_symbol
_atom_site_fract_x
_atom_site_fract_y
_atom_site_fract_z
O1 O 0.88844(19) 0.3935(2) 0.22986(18)
O2 O 0.9333(4) 0.4333(4) 0.0667(4)
N1 N 0.8515(2) 0.6485(2) 0.3515(2)
N2 N 0.8918(3) 0.4874(3) 0.3129(2)
H1 H 0.8994 0.5001 0.3598
N3 N 0.9140(2) 0.3685(3) 0.3522(2)
H2 H 0.9216 0.3898 0.3958
N4 N 0.9483(5) 0.1801(4) 0.4218(5)
C1 C 0.8193(4) 0.6014(3) 0.2919(3)
H3 H 0.8006 0.6341 0.2515
H4 H 0.7760 0.5737 0.3125
C2 C 0.8736(4) 0.5462(4) 0.2591(3)
H5 H 0.8516 0.5234 0.2138
H6 H 0.9198 0.5725 0.2442
C3 C 0.8976(3) 0.4153(3) 0.2941(3)
C4 C 0.9432(5) 0.2556(5) 0.4135(4)
H7 H 0.9566 0.2859 0.4550
C5 C 0.9202(2) 0.2911(3) 0.3501(3)
C6 C 0.9010(4) 0.2462(4) 0.2921(3)
H8 H 0.8825 0.2665 0.2467
C7 C 0.9093(5) 0.1705(4) 0.3010(4)
H9 H 0.8960 0.1388 0.2606
C8 C 0.9344(5) 0.1404(4) 0.3612(5)
H10 H 0.9430 0.0881 0.3621
Li1 Li 0.8771(6) 0.3771(6) 0.1229(6)
O1C O 1.1065(2) 0.77014(18) 0.38844(19)
O1D O 0.72986(18) 0.61156(19) 0.6065(2)
O1H O 0.8935(2) 0.27014(18) 0.11156(19)
O1F O 1.27014(18) 0.11156(19) -0.1065(2)
O1K O 1.11156(19) -0.1065(2) 0.27014(18)
O1G O 0.77014(18) 0.38844(19) 0.1065(2)
O1A O 1.22986(18) 0.88844(19) 0.3935(2)
O1K_2 O 1.11156(19) 0.8935(2) 0.27014(18)
O2A O 1.0667(4) 0.9333(4) 0.4333(4)
N1F N 1.1485(2) 0.1485(2) 0.1485(2)
N2C N 1.0126(3) 0.6871(2) 0.3918(3)
N2D N 0.8129(2) 0.6082(3) 0.5126(3)
N2H N 0.9874(3) 0.1871(2) 0.1082(3)
N2F N 1.1871(2) 0.1082(3) -0.0126(3)
N2K N 1.1082(3) -0.0126(3) 0.1871(2)
H1C H 0.9999 0.6402 0.3994
H1D H 0.8598 0.6006 0.4999
H1H H 1.0001 0.1402 0.1006
H1F H 1.1402 0.1006 0.0001
H1K H 1.1006 0.0001 0.1402
N3C N 1.1315(3) 0.6478(2) 0.4140(2)
N3D N 0.8522(2) 0.5860(2) 0.6315(3)
N3H N 0.8685(3) 0.1478(2) 0.0860(2)
N3F N 1.1478(2) 0.0860(2) -0.1315(3)
N3K N 1.0860(2) -0.1315(3) 0.1478(2)
H2C H 1.1102 0.6042 0.4216
H2D H 0.8958 0.5784 0.6102
H2H H 0.8898 0.1042 0.0784
H2F H 1.1042 0.0784 -0.1102
H2K H 1.0784 -0.1102 0.1042
N4C N 1.3199(4) 0.5782(5) 0.4483(5)
N4D N 0.9218(5) 0.5517(5) 0.8199(4)
N4H N 0.6801(4) 0.0782(5) 0.0517(5)
N4F N 1.0782(5) 0.0517(5) -0.3199(4)
N4K N 1.0517(5) -0.3199(4) 0.0782(5)
C1C C 0.8986(3) 0.7081(3) 0.3193(4)
C1D C 0.7919(3) 0.6807(4) 0.3986(3)
C1H C 1.1014(3) 0.2081(3) 0.1807(4)
C1F C 1.2081(3) 0.1807(4) 0.1014(3)
C1K C 1.1807(4) 0.1014(3) 0.2081(3)
H3C H 0.8659 0.7485 0.3006
H3D H 0.7515 0.6994 0.3659
H3H H 1.1341 0.2485 0.1994
H3F H 1.2485 0.1994 0.1341
H3K H 1.1994 0.1341 0.2485
H4C H 0.9263 0.6875 0.2760
H4D H 0.8125 0.7240 0.4263
H4H H 1.0737 0.1875 0.2240
H4F H 1.1875 0.2240 0.0737
H4K H 1.2240 0.0737 0.1875
C2C C 0.9538(4) 0.7409(3) 0.3736(4)
C2D C 0.7591(3) 0.6264(4) 0.4538(4)
C2H C 1.0462(4) 0.2409(3) 0.1264(4)
C2F C 1.2409(3) 0.1264(4) 0.0462(4)
C2K C 1.1264(4) 0.0462(4) 0.2409(3)
H5C H 0.9766 0.7862 0.3516
H5D H 0.7138 0.6484 0.4766
H5H H 1.0234 0.2862 0.1484
H5F H 1.2862 0.1484 0.0234
H5K H 1.1484 0.0234 0.2862
H6C H 0.9275 0.7558 0.4198
H6D H 0.7442 0.5802 0.4275
H6H H 1.0725 0.2558 0.0802
H6F H 1.2558 0.0802 0.0725
H6K H 1.0802 0.0725 0.2558
C3C C 1.0847(3) 0.7059(3) 0.3976(3)
C3D C 0.7941(3) 0.6024(3) 0.5847(3)
C3H C 0.9153(3) 0.2059(3) 0.1024(3)
C3F C 1.2059(3) 0.1024(3) -0.0847(3)
C3K C 1.1024(3) -0.0847(3) 0.2059(3)
C4C C 1.2444(5) 0.5865(4) 0.4432(5)
C4D C 0.9135(4) 0.5568(5) 0.7444(5)
C4H C 0.7556(5) 0.0865(4) 0.0568(5)
C4F C 1.0865(4) 0.0568(5) -0.2444(5)
C4K C 1.0568(5) -0.2444(5) 0.0865(4)
H7C H 1.2141 0.5450 0.4566
H7D H 0.9550 0.5434 0.7141
H7H H 0.7859 0.0450 0.0434
H7F H 1.0450 0.0434 -0.2141
H7K H 1.0434 -0.2141 0.0450
C5C C 1.2089(3) 0.6499(3) 0.4202(2)
C5D C 0.8501(3) 0.5798(2) 0.7089(3)
C5H C 0.7911(3) 0.1499(3) 0.0798(2)
C5F C 1.1499(3) 0.0798(2) -0.2089(3)
C5K C 1.0798(2) -0.2089(3) 0.1499(3)
C6C C 1.2538(4) 0.7079(3) 0.4010(4)
C6D C 0.7921(3) 0.5990(4) 0.7538(4)
C6H C 0.7462(4) 0.2079(3) 0.0990(4)
C6F C 1.2079(3) 0.0990(4) -0.2538(4)
C6K C 1.0990(4) -0.2538(4) 0.2079(3)
H8C H 1.2335 0.7533 0.3825
H8D H 0.7467 0.6175 0.7335
H8H H 0.7665 0.2533 0.1175
H8F H 1.2533 0.1175 -0.2335
H8K H 1.1175 -0.2335 0.2533
C7C C 1.3295(4) 0.6990(4) 0.4093(5)
C7D C 0.8010(4) 0.5907(5) 0.8295(4)
C7H C 0.6705(4) 0.1990(4) 0.0907(5)
C7F C 1.1990(4) 0.0907(5) -0.3295(4)
C7K C 1.0907(5) -0.3295(4) 0.1990(4)
H9C H 1.3612 0.7394 0.3960
H9D H 0.7606 0.6040 0.8612
H9H H 0.6388 0.2394 0.1040
H9F H 1.2394 0.1040 -0.3612
H9K H 1.1040 -0.3612 0.2394
C8C C 1.3596(4) 0.6388(5) 0.4344(5)
C8D C 0.8612(5) 0.5656(5) 0.8596(4)
C8H C 0.6404(4) 0.1388(5) 0.0656(5)
C8F C 1.1388(5) 0.0656(5) -0.3596(4)
C8K C 1.0656(5) -0.3596(4) 0.1388(5)
H10C H 1.4119 0.6379 0.4430
H10D H 0.8621 0.5570 0.9119
H10H H 0.5881 0.1379 0.0570
H10F H 1.1379 0.0570 -0.4119
H10K H 1.0570 -0.4119 0.1379
Li1A Li 1.1229(6) 0.8771(6) 0.3771(6)
Li1D Li 0.6229(6) 0.6229(6) 0.6229(6)
Li1B Li 1.3771(6) 0.1229(6) -0.1229(6)
Li1A_2 Li 1.1229(6) -0.1229(6) 0.3771(6)
Se1 Se 0.98948(3) 0.51052(3) 0.48948(3)
O3 O 0.9086(3) 0.4711(3) 0.4782(3)
O4 O 0.9566(4) 0.5434(4) 0.4566(4)
Se1O Se 1.01052(3) 0.48948(3) 0.51052(3)
O3P O 1.0218(3) 0.4086(3) 0.4711(3)
O3C O 1.0289(3) 0.5218(3) 0.4086(3)
O3O O 0.9711(3) 0.4782(3) 0.5914(3)
O3D O 0.9782(3) 0.5914(3) 0.5289(3)
O3L O 1.0914(3) 0.5289(3) 0.5218(3)
O4O O 1.0434(4) 0.4566(4) 0.5434(4)
loop_
_geom_bond_atom_site_label_1
_geom_bond_atom_site_label_2
_geom_bond_site_symmetry_1
_geom_bond_site_symmetry_2
Se1 O3 1_555 1_555
O1 C3 1_555 1_555
O2 Li1 1_555 1_555
O3 O4 1_555 1_555
N1 C1 1_555 1_555
N2 H1 1_555 1_555
N3 H2 1_555 1_555
N4 C4 1_555 1_555
C1 H3 1_555 1_555
H4 C1 1_555 1_555
C2 N2 1_555 1_555
H5 C2 1_555 1_555
H6 C2 1_555 1_555
C3 N2 1_555 1_555
C4 H7 1_555 1_555
C5 N3 1_555 1_555
C6 C5 1_555 1_555
H8 C6 1_555 1_555
C7 C6 1_555 1_555
H9 C7 1_555 1_555
C8 N4 1_555 1_555
H10 C8 1_555 1_555
Li1 O1 1_555 1_555
O4 Se1 1_555 1_555
Se1O Se1 1_555 1_555
O1C C3C 1_555 1_555
O1D C3D 1_555 1_555
O1H Li1 1_555 1_555
O1F C3F 1_555 1_555
O1K C3K 1_555 1_555
O1G Li1 1_555 1_555
O1A Li1A 1_555 1_555
O1K_2 Li1A 1_555 1_555
O2A Li1A 1_555 1_555
O3P Se1 1_555 1_555
O3C Se1 1_555 1_555
O3O Se1 1_555 1_555
O3D Se1 1_555 1_555
O3L Se1 1_555 1_555
N1F C1H 1_555 1_555
N2C H1C 1_555 1_555
N2D H1D 1_555 1_555
N2H H1H 1_555 1_555
N2F H1F 1_555 1_555
N2K H1K 1_555 1_555
N3C H2C 1_555 1_555
N3D H2D 1_555 1_555
N3H H2H 1_555 1_555
N3F H2F 1_555 1_555
N3K H2K 1_555 1_555
N4C C4C 1_555 1_555
N4D C4D 1_555 1_555
N4H C4H 1_555 1_555
N4F C4F 1_555 1_555
N4K C4K 1_555 1_555
C1C N1 1_555 1_555
C1D N1 1_555 1_555
C1H H3H 1_555 1_555
C1F N1F 1_555 1_555
C1K N1F 1_555 1_555
H3C C1C 1_555 1_555
H3D C1D 1_555 1_555
H3F C1F 1_555 1_555
H3K C1K 1_555 1_555
H4C C1C 1_555 1_555
H4D C1D 1_555 1_555
H4H C1H 1_555 1_555
H4F C1F 1_555 1_555
H4K C1K 1_555 1_555
C2C N2C 1_555 1_555
C2D N2D 1_555 1_555
C2H N2H 1_555 1_555
C2F N2F 1_555 1_555
C2K N2K 1_555 1_555
H5C C2C 1_555 1_555
H5D C2D 1_555 1_555
H5H C2H 1_555 1_555
H5F C2F 1_555 1_555
H5K C2K 1_555 1_555
H6C C2C 1_555 1_555
H6D C2D 1_555 1_555
H6H C2H 1_555 1_555
H6F C2F 1_555 1_555
H6K C2K 1_555 1_555
C3C N2C 1_555 1_555
C3D N2D 1_555 1_555
C3H O1H 1_555 1_555
C3F N2F 1_555 1_555
C3K N2K 1_555 1_555
C4C H7C 1_555 1_555
C4D H7D 1_555 1_555
C4H H7H 1_555 1_555
C4F H7F 1_555 1_555
C4K H7K 1_555 1_555
C5C N3C 1_555 1_555
C5D N3D 1_555 1_555
C5H N3H 1_555 1_555
C5F N3F 1_555 1_555
C5K N3K 1_555 1_555
C6C C5C 1_555 1_555
C6D C5D 1_555 1_555
C6H C5H 1_555 1_555
C6F C5F 1_555 1_555
C6K C5K 1_555 1_555
H8C C6C 1_555 1_555
H8D C6D 1_555 1_555
H8H C6H 1_555 1_555
H8F C6F 1_555 1_555
H8K C6K 1_555 1_555
C7C C6C 1_555 1_555
C7D C6D 1_555 1_555
C7H C6H 1_555 1_555
C7F C6F 1_555 1_555
C7K C6K 1_555 1_555
H9C C7C 1_555 1_555
H9D C7D 1_555 1_555
H9H C7H 1_555 1_555
H9F C7F 1_555 1_555
H9K C7K 1_555 1_555
C8C N4C 1_555 1_555
C8D N4D 1_555 1_555
C8H N4H 1_555 1_555
C8F N4F 1_555 1_555
C8K N4K 1_555 1_555
H10C C8C 1_555 1_555
H10D C8D 1_555 1_555
H10H C8H 1_555 1_555
H10F C8F 1_555 1_555
H10K C8K 1_555 1_555
Li1A O1C 1_555 1_555
Li1D O1D 1_555 1_555
Li1B O1F 1_555 1_555
Li1A_2 O1K 1_555 1_555
O4O Se1 1_555 1_555
O3 Se1O 1_555 1_555
N3 C3 1_555 1_555
C1 C2 1_555 1_555
C4 C5 1_555 1_555
C7 C8 1_555 1_555
O4 Se1O 1_555 1_555
O4 O3C 1_555 1_555
O4 O3D 1_555 1_555
Se1O O3P 1_555 1_555
Se1O O3C 1_555 1_555
Se1O O3O 1_555 1_555
Se1O O3D 1_555 1_555
Se1O O3L 1_555 1_555
Se1O O4O 1_555 1_555
O3P O4O 1_555 1_555
O3O O4O 1_555 1_555
O3L O4O 1_555 1_555
N2H C3H 1_555 1_555
N3C C3C 1_555 1_555
N3D C3D 1_555 1_555
N3H C3H 1_555 1_555
N3F C3F 1_555 1_555
N3K C3K 1_555 1_555
C1C C2C 1_555 1_555
C1D C2D 1_555 1_555
C1H C2H 1_555 1_555
C1F C2F 1_555 1_555
C1K C2K 1_555 1_555
C4C C5C 1_555 1_555
C4D C5D 1_555 1_555
C4H C5H 1_555 1_555
C4F C5F 1_555 1_555
C4K C5K 1_555 1_555
C7C C8C 1_555 1_555
C7D C8D 1_555 1_555
C7H C8H 1_555 1_555
C7F C8F 1_555 1_555
C7K C8K 1_555 1_555

#END
