
#######################################################################
#
#                 Cambridge Crystallographic Data Centre
#                                CCDC 
#
#######################################################################
#
# If this CIF has been generated from an entry in the Cambridge 
# Structural Database, then it will include bibliographic, chemical, 
# crystal, experimental, refinement or atomic coordinate data resulting 
# from the CCDC's data processing and validation procedures.
#
#######################################################################

data_HOXGIL
_symmetry_cell_setting           cubic
_symmetry_space_group_name_H-M   'P a -3'
_symmetry_Int_Tables_number      205
_space_group_name_Hall           '-P 2ac 2ab 3'
loop_
_symmetry_equiv_pos_site_id
_symmetry_equiv_pos_as_xyz
1 x,y,z
2 z,x,y
3 y,z,x
4 1/2-y,-z,1/2+x
5 1/2+z,1/2-x,-y
6 -y,1/2+z,1/2-x
7 1/2-z,-x,1/2+y
8 -z,1/2+x,1/2-y
9 1/2+y,1/2-z,-x
10 1/2-x,-y,1/2+z
11 1/2+x,1/2-y,-z
12 -x,1/2+y,1/2-z
13 -x,-y,-z
14 -z,-x,-y
15 -y,-z,-x
16 1/2+y,z,1/2-x
17 1/2-z,1/2+x,y
18 y,1/2-z,1/2+x
19 1/2+z,x,1/2-y
20 z,1/2-x,1/2+y
21 1/2-y,1/2+z,x
22 1/2+x,y,1/2-z
23 1/2-x,1/2+y,z
24 x,1/2-y,1/2+z
_cell_length_a                   17.7907(7)
_cell_length_b                   17.7907(7)
_cell_length_c                   17.7907(7)
_cell_angle_alpha                90
_cell_angle_beta                 90
_cell_angle_gamma                90
_cell_volume                     5630.92
loop_
_atom_site_label
_atom_site_type_symbol
_atom_site_fract_x
_atom_site_fract_y
_atom_site_fract_z
O1 O -0.61198(11) 0.23693(12) -0.12003(10)
O2 O 0.07059(15) -0.07059(15) 0.42941(15)
N1 N -0.35121(13) 0.35121(13) -0.14879(13)
N2 N -0.51399(15) 0.31695(14) -0.11509(13)
H1 H -0.4994 0.3636 -0.1075
N3 N 0.14033(14) 0.08970(14) -0.13211(12)
H2 H 0.0972 0.0820 -0.1092
N4 N 0.0656(2) 0.0452(2) -0.31850(19)
C1 C -0.39820(19) 0.29333(18) -0.18504(17)
H3 H -0.2520 0.2972 -0.1346
H4 H -0.3156 0.2704 -0.0770
C2 C -0.4578(2) 0.26094(18) -0.13370(17)
H5 H 0.2822 0.1588 0.0176
H6 H 0.2576 0.0870 0.0661
C3 C -0.58725(15) 0.30066(16) -0.10897(15)
C4 C 0.0752(2) 0.0534(2) -0.24370(19)
H7 H 0.0347 0.0395 -0.2118
C5 C 0.14007(15) 0.08065(17) -0.21031(15)
C6 C 0.1980(2) 0.09930(19) -0.25787(18)
H8 H 0.2435 0.1196 -0.2388
C7 C 0.1886(2) 0.0878(2) -0.3340(2)
H9 H 0.2284 0.0994 -0.3676
C8 C 0.1227(2) 0.0599(2) -0.3617(2)
H10 H 0.1184 0.0509 -0.4142
Li1 Li -0.1327(3) 0.3673(3) 0.1327(3)
O1E O -0.23693(12) 0.37997(10) 0.11198(11)
O1A O -0.12003(10) 0.38802(11) 0.23693(12)
O1J O -0.11198(11) 0.26307(12) 0.12003(10)
O1C O 0.26307(12) 0.12003(10) -0.11198(11)
O1G O 0.12003(10) -0.11198(11) 0.26307(12)
O1I O 0.11198(11) -0.23693(12) 0.37997(10)
O1B O 0.23693(12) -0.12003(10) 0.38802(11)
O1F O -0.37997(10) 0.61198(11) -0.26307(12)
O2B O -0.07059(15) 0.42941(15) 0.07059(15)
N1C N 0.14879(13) 0.14879(13) 0.14879(13)
N2E N -0.31695(14) 0.38491(13) 0.01399(15)
N2J N -0.01399(15) 0.18305(14) 0.11509(13)
N2C N 0.18305(14) 0.11509(13) -0.01399(15)
N2G N 0.11509(13) -0.01399(15) 0.18305(14)
N2F N -0.38491(13) 0.51399(15) -0.18305(14)
H1E H -0.3636 0.3925 -0.0006
H1J H 0.0006 0.1364 0.1075
H1C H 0.1364 0.1075 0.0006
H1G H 0.1075 0.0006 0.1364
H1F H -0.3925 0.4994 -0.1364
N3B N 0.08970(14) -0.13211(12) 0.14033(14)
N3A N -0.13211(12) 0.14033(14) 0.08970(14)
N3J N -0.35967(14) 0.41030(14) 0.13211(12)
N3H N -0.41030(14) 0.63211(12) -0.14033(14)
N3D N -0.63211(12) 0.35967(14) -0.08970(14)
H2B H 0.0820 -0.1092 0.0972
H2A H -0.1092 0.0972 0.0820
H2J H -0.4028 0.4180 0.1092
H2H H -0.4180 0.6092 -0.0972
H2D H -0.6092 0.4028 -0.0820
N4B N 0.0452(2) -0.31850(19) 0.0656(2)
N4A N -0.31850(19) 0.0656(2) 0.0452(2)
N4J N -0.4344(2) 0.4548(2) 0.31850(19)
N4H N -0.4548(2) 0.81850(19) -0.0656(2)
N4D N -0.81850(19) 0.4344(2) -0.0452(2)
C1E C -0.29333(18) 0.31496(17) -0.10180(19)
C1J C 0.10180(19) 0.20667(18) 0.18504(17)
C1C C 0.20667(18) 0.18504(17) 0.10180(19)
C1G C 0.18504(17) 0.10180(19) 0.20667(18)
C1F C -0.31496(17) 0.39820(19) -0.20667(18)
H3J H 0.2480 0.2028 0.1346
H3C H 0.2028 0.1346 0.2480
H3G H 0.1346 0.2480 0.2028
H3E H -0.2972 0.3654 -0.2480
H3F H -0.3654 0.2520 -0.2028
H4J H 0.1844 0.2296 0.0770
H4C H 0.2296 0.0770 0.1844
H4G H 0.0770 0.1844 0.2296
H4E H -0.2704 0.4230 -0.1844
H4F H -0.4230 0.3156 -0.2296
C2E C -0.26094(18) 0.36630(17) -0.0422(2)
C2J C 0.0422(2) 0.23906(18) 0.13370(17)
C2C C 0.23906(18) 0.13370(17) 0.0422(2)
C2G C 0.13370(17) 0.0422(2) 0.23906(18)
C2F C -0.36630(17) 0.4578(2) -0.23906(18)
H5B H 0.1588 0.0176 0.2822
H5A H 0.0176 0.2822 0.1588
H5J H -0.2178 0.3412 -0.0176
H5H H -0.3412 0.4824 -0.2822
H5D H -0.4824 0.2178 -0.1588
H6B H 0.0870 0.0661 0.2576
H6A H 0.0661 0.2576 0.0870
H6J H -0.2424 0.4130 -0.0661
H6H H -0.4130 0.4339 -0.2576
H6D H -0.4339 0.2424 -0.0870
C3E C -0.30066(16) 0.39103(15) 0.08725(15)
C3J C -0.08725(15) 0.19934(16) 0.10897(15)
C3C C 0.19934(16) 0.10897(15) -0.08725(15)
C3G C 0.10897(15) -0.08725(15) 0.19934(16)
C3F C -0.39103(15) 0.58725(15) -0.19934(16)
C4B C 0.0534(2) -0.24370(19) 0.0752(2)
C4A C -0.24370(19) 0.0752(2) 0.0534(2)
C4J C -0.4248(2) 0.4466(2) 0.24370(19)
C4H C -0.4466(2) 0.74370(19) -0.0752(2)
C4D C -0.74370(19) 0.4248(2) -0.0534(2)
H7B H 0.0395 -0.2118 0.0347
H7A H -0.2118 0.0347 0.0395
H7J H -0.4653 0.4605 0.2118
H7H H -0.4605 0.7118 -0.0347
H7D H -0.7118 0.4653 -0.0395
C5B C 0.08065(17) -0.21031(15) 0.14007(15)
C5A C -0.21031(15) 0.14007(15) 0.08065(17)
C5J C -0.35993(15) 0.41935(17) 0.21031(15)
C5H C -0.41935(17) 0.71031(15) -0.14007(15)
C5D C -0.71031(15) 0.35993(15) -0.08065(17)
C6B C 0.09930(19) -0.25787(18) 0.1980(2)
C6A C -0.25787(18) 0.1980(2) 0.09930(19)
C6J C -0.3020(2) 0.40070(19) 0.25787(18)
C6H C -0.40070(19) 0.75787(18) -0.1980(2)
C6D C -0.75787(18) 0.3020(2) -0.09930(19)
H8B H 0.1196 -0.2388 0.2435
H8A H -0.2388 0.2435 0.1196
H8J H -0.2565 0.3804 0.2388
H8H H -0.3804 0.7388 -0.2435
H8D H -0.7388 0.2565 -0.1196
C7B C 0.0878(2) -0.3340(2) 0.1886(2)
C7A C -0.3340(2) 0.1886(2) 0.0878(2)
C7J C -0.3114(2) 0.4122(2) 0.3340(2)
C7H C -0.4122(2) 0.8340(2) -0.1886(2)
C7D C -0.8340(2) 0.3114(2) -0.0878(2)
H9B H 0.0994 -0.3676 0.2284
H9A H -0.3676 0.2284 0.0994
H9J H -0.2716 0.4006 0.3676
H9H H -0.4006 0.8676 -0.2284
H9D H -0.8676 0.2716 -0.0994
C8B C 0.0599(2) -0.3617(2) 0.1227(2)
C8A C -0.3617(2) 0.1227(2) 0.0599(2)
C8J C -0.3773(2) 0.4401(2) 0.3617(2)
C8H C -0.4401(2) 0.8617(2) -0.1227(2)
C8D C -0.8617(2) 0.3773(2) -0.0599(2)
H10B H 0.0509 -0.4142 0.1184
H10A H -0.4142 0.1184 0.0509
H10J H -0.3816 0.4491 0.4142
H10H H -0.4491 0.9142 -0.1184
H10D H -0.9142 0.3816 -0.0509
Li1B Li -0.6327(3) 0.1327(3) -0.1327(3)
Li1B_2 Li 0.3673(3) 0.1327(3) -0.1327(3)
Li1A Li 0.1327(3) -0.1327(3) 0.3673(3)
Li1D Li -0.3673(3) 0.6327(3) -0.3673(3)
S1 S -0.99126(12) -0.50874(12) -0.49126(12)
O3 O -0.91601(16) -0.47508(17) -0.48395(17)
O4 O -1.0414(2) -0.4586(2) -0.5414(2)
S1O S -1.00874(12) -0.49126(12) -0.50874(12)
O3O O -0.97508(17) -0.48395(17) -0.58399(16)
O3D O -0.98395(17) -0.58399(16) -0.52492(17)
O3P O -1.01605(17) -0.41601(16) -0.47508(17)
O3C O -1.02492(17) -0.51605(17) -0.41601(16)
O3L O -1.08399(16) -0.52492(17) -0.51605(17)
O4O O -0.9586(2) -0.5414(2) -0.4586(2)
loop_
_geom_bond_atom_site_label_1
_geom_bond_atom_site_label_2
_geom_bond_site_symmetry_1
_geom_bond_site_symmetry_2
S1 O3 1_555 1_555
O1 C3 1_555 1_555
O2 Li1A 1_555 1_555
O3 S1O 1_555 1_555
N1 C1 1_555 1_555
N2 H1 1_555 1_555
N3 H2 1_555 1_555
N4 C4 1_555 1_555
C1 C2 1_555 1_555
H3 C1E 1_555 1_555
H4 C1E 1_555 1_555
C2 N2 1_555 1_555
H5 C2C 1_555 1_555
H6 C2C 1_555 1_555
C3 N2 1_555 1_555
C4 H7 1_555 1_555
C5 N3 1_555 1_555
C6 C5 1_555 1_555
H8 C6 1_555 1_555
C7 C6 1_555 1_555
H9 C7 1_555 1_555
C8 N4 1_555 1_555
H10 C8 1_555 1_555
O4 S1 1_555 1_555
Li1 O1E 1_555 1_555
S1O S1 1_555 1_555
O1E C3E 1_555 1_555
O1A Li1 1_555 1_555
O1J Li1 1_555 1_555
O1C C3C 1_555 1_555
O1G C3G 1_555 1_555
O1I Li1A 1_555 1_555
O1B Li1A 1_555 1_555
O1F C3F 1_555 1_555
O2B Li1 1_555 1_555
O3O S1 1_555 1_555
O3D S1 1_555 1_555
O3P S1 1_555 1_555
O3C S1 1_555 1_555
O3L S1 1_555 1_555
N1C C1J 1_555 1_555
N2E H1E 1_555 1_555
N2J H1J 1_555 1_555
N2C H1C 1_555 1_555
N2G H1G 1_555 1_555
N2F H1F 1_555 1_555
N3B H2B 1_555 1_555
N3A H2A 1_555 1_555
N3J H2J 1_555 1_555
N3H H2H 1_555 1_555
N3D C3 1_555 1_555
H2D N3D 1_555 1_555
N4B C4B 1_555 1_555
N4A C4A 1_555 1_555
N4J C4J 1_555 1_555
N4H C4H 1_555 1_555
N4D C4D 1_555 1_555
C1E N1 1_555 1_555
C1J H3G 1_555 1_555
C1C N1C 1_555 1_555
C1G N1C 1_555 1_555
C1F N1 1_555 1_555
H3J C1C 1_555 1_555
H3C C1G 1_555 1_555
H3E C1F 1_555 1_555
H3F C1 1_555 1_555
H4J C1C 1_555 1_555
H4C C1G 1_555 1_555
H4G C1J 1_555 1_555
H4E C1F 1_555 1_555
H4F C1 1_555 1_555
C2E N2E 1_555 1_555
C2J N2J 1_555 1_555
C2C N2C 1_555 1_555
C2G N2G 1_555 1_555
C2F N2F 1_555 1_555
H5B C2G 1_555 1_555
H5A C2J 1_555 1_555
H5J C2E 1_555 1_555
H5H C2F 1_555 1_555
H5D C2 1_555 1_555
H6B C2G 1_555 1_555
H6A C2J 1_555 1_555
H6J C2E 1_555 1_555
H6H C2F 1_555 1_555
H6D C2 1_555 1_555
C3E N2E 1_555 1_555
C3J O1J 1_555 1_555
C3C N3 1_555 1_555
C3G N2G 1_555 1_555
C3F N2F 1_555 1_555
C4B H7B 1_555 1_555
C4A H7A 1_555 1_555
C4J H7J 1_555 1_555
C4H H7H 1_555 1_555
C4D H7D 1_555 1_555
C5B N3B 1_555 1_555
C5A N3A 1_555 1_555
C5J N3J 1_555 1_555
C5H N3H 1_555 1_555
C5D N3D 1_555 1_555
C6B C5B 1_555 1_555
C6A C5A 1_555 1_555
C6J C5J 1_555 1_555
C6H C5H 1_555 1_555
C6D C5D 1_555 1_555
H8B C6B 1_555 1_555
H8A C6A 1_555 1_555
H8J C6J 1_555 1_555
H8H C6H 1_555 1_555
H8D C6D 1_555 1_555
C7B C6B 1_555 1_555
C7A C6A 1_555 1_555
C7J C6J 1_555 1_555
C7H C6H 1_555 1_555
C7D C6D 1_555 1_555
H9B C7B 1_555 1_555
H9A C7A 1_555 1_555
H9J C7J 1_555 1_555
H9H C7H 1_555 1_555
H9D C7D 1_555 1_555
C8B N4B 1_555 1_555
C8A N4A 1_555 1_555
C8J N4J 1_555 1_555
C8H N4H 1_555 1_555
C8D N4D 1_555 1_555
H10B C8B 1_555 1_555
H10A C8A 1_555 1_555
H10J C8J 1_555 1_555
H10H C8H 1_555 1_555
H10D C8D 1_555 1_555
O4O S1 1_555 1_555
Li1B O1 1_555 1_555
Li1B_2 O1C 1_555 1_555
Li1A O1G 1_555 1_555
Li1D O1F 1_555 1_555
O3 O4O 1_555 1_555
C4 C5 1_555 1_555
C7 C8 1_555 1_555
O4 S1O 1_555 1_555
O4 O3O 1_555 1_555
O4 O3P 1_555 1_555
O4 O3L 1_555 1_555
S1O O3O 1_555 1_555
S1O O3D 1_555 1_555
S1O O3P 1_555 1_555
S1O O3C 1_555 1_555
S1O O3L 1_555 1_555
S1O O4O 1_555 1_555
O3D O4O 1_555 1_555
O3C O4O 1_555 1_555
N2J C3J 1_555 1_555
N2C C3C 1_555 1_555
N3B C3G 1_555 1_555
N3A C3J 1_555 1_555
N3J C3E 1_555 1_555
N3H C3F 1_555 1_555
C1E C2E 1_555 1_555
C1J C2J 1_555 1_555
C1C C2C 1_555 1_555
C1G C2G 1_555 1_555
C1F C2F 1_555 1_555
C4B C5B 1_555 1_555
C4A C5A 1_555 1_555
C4J C5J 1_555 1_555
C4H C5H 1_555 1_555
C4D C5D 1_555 1_555
C7B C8B 1_555 1_555
C7A C8A 1_555 1_555
C7J C8J 1_555 1_555
C7H C8H 1_555 1_555
C7D C8D 1_555 1_555

#END
