
#######################################################################
#
#                 Cambridge Crystallographic Data Centre
#                                CCDC 
#
#######################################################################
#
# If this CIF has been generated from an entry in the Cambridge 
# Structural Database, then it will include bibliographic, chemical, 
# crystal, experimental, refinement or atomic coordinate data resulting 
# from the CCDC's data processing and validation procedures.
#
#######################################################################

data_HOXGUX
_symmetry_cell_setting           cubic
_symmetry_space_group_name_H-M   'P a -3'
_symmetry_Int_Tables_number      205
_space_group_name_Hall           '-P 2ac 2ab 3'
loop_
_symmetry_equiv_pos_site_id
_symmetry_equiv_pos_as_xyz
1 x,y,z
2 z,x,y
3 y,z,x
4 1/2-y,-z,1/2+x
5 1/2+z,1/2-x,-y
6 -y,1/2+z,1/2-x
7 1/2-z,-x,1/2+y
8 -z,1/2+x,1/2-y
9 1/2+y,1/2-z,-x
10 1/2-x,-y,1/2+z
11 1/2+x,1/2-y,-z
12 -x,1/2+y,1/2-z
13 -x,-y,-z
14 -z,-x,-y
15 -y,-z,-x
16 1/2+y,z,1/2-x
17 1/2-z,1/2+x,y
18 y,1/2-z,1/2+x
19 1/2+z,x,1/2-y
20 z,1/2-x,1/2+y
21 1/2-y,1/2+z,x
22 1/2+x,y,1/2-z
23 1/2-x,1/2+y,z
24 x,1/2-y,1/2+z
_cell_length_a                   17.7871(4)
_cell_length_b                   17.7871(4)
_cell_length_c                   17.7871(4)
_cell_angle_alpha                90
_cell_angle_beta                 90
_cell_angle_gamma                90
_cell_volume                     5627.5
loop_
_atom_site_label
_atom_site_type_symbol
_atom_site_fract_x
_atom_site_fract_y
_atom_site_fract_z
O1 O 0.88086(17) 0.39205(19) 0.23490(16)
N1 N 0.84913(18) 0.65087(18) 0.34913(18)
C1 C 0.8148(3) 0.6041(3) 0.2902(3)
H1 H 0.7968 0.6372 0.2492
H2 H 0.7706 0.5779 0.3115
Li1 Li 0.8700(5) 0.3700(5) 0.1300(5)
O2 O 0.9305(3) 0.4305(3) 0.0695(3)
N2 N 0.8884(2) 0.4907(2) 0.3138(2)
H3 H 0.8972 0.5056 0.3601
C2 C 0.8677(3) 0.5466(3) 0.2576(3)
H4 H 0.8433 0.5214 0.2144
H5 H 0.9135 0.5721 0.2390
N3 N 0.9159(2) 0.3728(3) 0.3566(2)
H6 H 0.9248 0.3959 0.3993
C3 C 0.8945(2) 0.4178(3) 0.2975(2)
N4 N 0.9630(6) 0.1899(5) 0.4322(4)
C4 C 0.9539(6) 0.2638(5) 0.4205(4)
H7 H 0.9687 0.2970 0.4596
C5 C 0.9251(2) 0.2947(3) 0.3570(2)
C6 C 0.9051(4) 0.2481(3) 0.3014(3)
H8 H 0.8831 0.2666 0.2564
C7 C 0.9173(4) 0.1718(4) 0.3116(4)
H9 H 0.9046 0.1375 0.2727
C8 C 0.9469(4) 0.1460(4) 0.3758(4)
H10 H 0.9566 0.0937 0.3804
O1C O 1.10795(19) 0.76510(16) 0.38086(17)
O1D O 0.73490(16) 0.61914(17) 0.60795(19)
O1H O 0.89205(19) 0.26510(16) 0.11914(17)
O1F O 1.26510(16) 0.11914(17) -0.10795(19)
O1K O 1.11914(17) -0.10795(19) 0.26510(16)
O1G O 0.76510(16) 0.38086(17) 0.10795(19)
O1A O 1.23490(16) 0.88086(17) 0.39205(19)
O1K_2 O 1.11914(17) 0.89205(19) 0.26510(16)
N1F N 1.15087(18) 0.15087(18) 0.15087(18)
C1C C 0.8959(3) 0.7098(3) 0.3148(3)
C1D C 0.7902(3) 0.6852(3) 0.3959(3)
C1H C 1.1041(3) 0.2098(3) 0.1852(3)
C1F C 1.2098(3) 0.1852(3) 0.1041(3)
C1K C 1.1852(3) 0.1041(3) 0.2098(3)
H1C H 0.8628 0.7508 0.2968
H1D H 0.7492 0.7032 0.3628
H1H H 1.1372 0.2508 0.2032
H1F H 1.2508 0.2032 0.1372
H1K H 1.2032 0.1372 0.2508
H2C H 0.9221 0.6885 0.2706
H2D H 0.8115 0.7294 0.4221
H2H H 1.0779 0.1885 0.2294
H2F H 1.1885 0.2294 0.0779
H2K H 1.2294 0.0779 0.1885
Li1A Li 1.1300(5) 0.8700(5) 0.3700(5)
Li1D Li 0.6300(5) 0.6300(5) 0.6300(5)
Li1B Li 1.3700(5) 0.1300(5) -0.1300(5)
Li1A_2 Li 1.1300(5) -0.1300(5) 0.3700(5)
O2A O 1.0695(3) 0.9305(3) 0.4305(3)
N2C N 1.0093(2) 0.6862(2) 0.3884(2)
N2D N 0.8138(2) 0.6116(2) 0.5093(2)
N2H N 0.9907(2) 0.1862(2) 0.1116(2)
N2F N 1.1862(2) 0.1116(2) -0.0093(2)
N2K N 1.1116(2) -0.0093(2) 0.1862(2)
H3C H 0.9944 0.6399 0.3972
H3D H 0.8601 0.6028 0.4944
H3H H 1.0056 0.1399 0.1028
H3F H 1.1399 0.1028 0.0056
H3K H 1.1028 0.0056 0.1399
C2C C 0.9534(3) 0.7424(3) 0.3677(3)
C2D C 0.7576(3) 0.6323(3) 0.4534(3)
C2H C 1.0466(3) 0.2424(3) 0.1323(3)
C2F C 1.2424(3) 0.1323(3) 0.0466(3)
C2K C 1.1323(3) 0.0466(3) 0.2424(3)
H4C H 0.9786 0.7856 0.3433
H4D H 0.7144 0.6567 0.4786
H4H H 1.0214 0.2856 0.1567
H4F H 1.2856 0.1567 0.0214
H4K H 1.1567 0.0214 0.2856
H5C H 0.9279 0.7610 0.4135
H5D H 0.7390 0.5865 0.4279
H5H H 1.0721 0.2610 0.0865
H5F H 1.2610 0.0865 0.0721
H5K H 1.0865 0.0721 0.2610
N3C N 1.1272(3) 0.6434(2) 0.4159(2)
N3D N 0.8566(2) 0.5841(2) 0.6272(3)
N3H N 0.8728(3) 0.1434(2) 0.0841(2)
N3F N 1.1434(2) 0.0841(2) -0.1272(3)
N3K N 1.0841(2) -0.1272(3) 0.1434(2)
H6C H 1.1041 0.6007 0.4248
H6D H 0.8993 0.5752 0.6041
H6H H 0.8959 0.1007 0.0752
H6F H 1.1007 0.0752 -0.1041
H6K H 1.0752 -0.1041 0.1007
C3C C 1.0822(3) 0.7025(2) 0.3945(2)
C3D C 0.7975(2) 0.6055(2) 0.5822(3)
C3H C 0.9178(3) 0.2025(2) 0.1055(2)
C3F C 1.2025(2) 0.1055(2) -0.0822(3)
C3K C 1.1055(2) -0.0822(3) 0.2025(2)
N4C N 1.3101(5) 0.5678(4) 0.4630(6)
N4D N 0.9322(4) 0.5370(6) 0.8101(5)
N4H N 0.6899(5) 0.0678(4) 0.0370(6)
N4F N 1.0678(4) 0.0370(6) -0.3101(5)
N4K N 1.0370(6) -0.3101(5) 0.0678(4)
C4C C 1.2362(5) 0.5795(4) 0.4539(6)
C4D C 0.9205(4) 0.5461(6) 0.7362(5)
C4H C 0.7638(5) 0.0795(4) 0.0461(6)
C4F C 1.0795(4) 0.0461(6) -0.2362(5)
C4K C 1.0461(6) -0.2362(5) 0.0795(4)
H7C H 1.2030 0.5404 0.4687
H7D H 0.9596 0.5313 0.7030
H7H H 0.7970 0.0404 0.0313
H7F H 1.0404 0.0313 -0.2030
H7K H 1.0313 -0.2030 0.0404
C5C C 1.2053(3) 0.6430(2) 0.4251(2)
C5D C 0.8570(2) 0.5749(2) 0.7053(3)
C5H C 0.7947(3) 0.1430(2) 0.0749(2)
C5F C 1.1430(2) 0.0749(2) -0.2053(3)
C5K C 1.0749(2) -0.2053(3) 0.1430(2)
C6C C 1.2519(3) 0.6986(3) 0.4051(4)
C6D C 0.8014(3) 0.5949(4) 0.7519(3)
C6H C 0.7481(3) 0.1986(3) 0.0949(4)
C6F C 1.1986(3) 0.0949(4) -0.2519(3)
C6K C 1.0949(4) -0.2519(3) 0.1986(3)
H8C H 1.2334 0.7436 0.3831
H8D H 0.7564 0.6169 0.7334
H8H H 0.7666 0.2436 0.1169
H8F H 1.2436 0.1169 -0.2334
H8K H 1.1169 -0.2334 0.2436
C7C C 1.3282(4) 0.6884(4) 0.4173(4)
C7D C 0.8116(4) 0.5827(4) 0.8282(4)
C7H C 0.6718(4) 0.1884(4) 0.0827(4)
C7F C 1.1884(4) 0.0827(4) -0.3282(4)
C7K C 1.0827(4) -0.3282(4) 0.1884(4)
H9C H 1.3625 0.7273 0.4046
H9D H 0.7727 0.5954 0.8625
H9H H 0.6375 0.2273 0.0954
H9F H 1.2273 0.0954 -0.3625
H9K H 1.0954 -0.3625 0.2273
C8C C 1.3540(4) 0.6242(4) 0.4469(4)
C8D C 0.8758(4) 0.5531(4) 0.8540(4)
C8H C 0.6460(4) 0.1242(4) 0.0531(4)
C8F C 1.1242(4) 0.0531(4) -0.3540(4)
C8K C 1.0531(4) -0.3540(4) 0.1242(4)
H10C H 1.4063 0.6196 0.4566
H10D H 0.8804 0.5434 0.9063
H10H H 0.5937 0.1196 0.0434
H10F H 1.1196 0.0434 -0.4063
H10K H 1.0434 -0.4063 0.1196
S1 S 1.0054(16) 0.4946(16) 0.5054(16)
O3 O 0.9585(4) 0.5415(4) 0.4585(4)
O4 O 1.0156(3) 0.4167(3) 0.4755(4)
S1O S 0.9946(16) 0.5054(16) 0.4946(16)
O3O O 1.0415(4) 0.4585(4) 0.5415(4)
O4P O 1.0245(4) 0.5156(3) 0.4167(3)
O4C O 1.0833(3) 0.5245(4) 0.5156(3)
O4O O 0.9167(3) 0.4755(4) 0.4844(3)
O4D O 0.9755(4) 0.4844(3) 0.5833(3)
O4L O 0.9844(3) 0.5833(3) 0.5245(4)
loop_
_geom_bond_atom_site_label_1
_geom_bond_atom_site_label_2
_geom_bond_site_symmetry_1
_geom_bond_site_symmetry_2
S1 O3 1_555 1_555
O1 Li1 1_555 1_555
N1 C1 1_555 1_555
C1 H1 1_555 1_555
H2 C1 1_555 1_555
Li1 O2 1_555 1_555
N2 H3 1_555 1_555
C2 C1 1_555 1_555
H4 C2 1_555 1_555
H5 C2 1_555 1_555
O3 S1O 1_555 1_555
N3 H6 1_555 1_555
C3 O1 1_555 1_555
O4 S1 1_555 1_555
N4 C4 1_555 1_555
C4 H7 1_555 1_555
C5 N3 1_555 1_555
C6 C5 1_555 1_555
H8 C6 1_555 1_555
C7 C6 1_555 1_555
H9 C7 1_555 1_555
C8 N4 1_555 1_555
H10 C8 1_555 1_555
S1O S1 1_555 1_555
O1C Li1A 1_555 1_555
O1D Li1D 1_555 1_555
O1H Li1 1_555 1_555
O1F Li1B 1_555 1_555
O1K Li1A_2 1_555 1_555
O1G Li1 1_555 1_555
O1A Li1A 1_555 1_555
O1K_2 Li1A 1_555 1_555
N1F C1H 1_555 1_555
C1C N1 1_555 1_555
C1D N1 1_555 1_555
C1H H1H 1_555 1_555
C1F N1F 1_555 1_555
C1K N1F 1_555 1_555
H1C C1C 1_555 1_555
H1D C1D 1_555 1_555
H1F C1F 1_555 1_555
H1K C1K 1_555 1_555
H2C C1C 1_555 1_555
H2D C1D 1_555 1_555
H2H C1H 1_555 1_555
H2F C1F 1_555 1_555
H2K C1K 1_555 1_555
Li1A O2A 1_555 1_555
N2C H3C 1_555 1_555
N2D H3D 1_555 1_555
N2H H3H 1_555 1_555
N2F H3F 1_555 1_555
N2K H3K 1_555 1_555
C2C C1C 1_555 1_555
C2D C1D 1_555 1_555
C2H C1H 1_555 1_555
C2F C1F 1_555 1_555
C2K C1K 1_555 1_555
H4C C2C 1_555 1_555
H4D C2D 1_555 1_555
H4H C2H 1_555 1_555
H4F C2F 1_555 1_555
H4K C2K 1_555 1_555
H5C C2C 1_555 1_555
H5D C2D 1_555 1_555
H5H C2H 1_555 1_555
H5F C2F 1_555 1_555
H5K C2K 1_555 1_555
O3O S1 1_555 1_555
N3C H6C 1_555 1_555
N3D H6D 1_555 1_555
N3H H6H 1_555 1_555
N3F H6F 1_555 1_555
N3K H6K 1_555 1_555
C3C O1C 1_555 1_555
C3D O1D 1_555 1_555
C3H O1H 1_555 1_555
C3F O1F 1_555 1_555
C3K O1K 1_555 1_555
O4P S1 1_555 1_555
O4C S1 1_555 1_555
O4O S1 1_555 1_555
O4D S1 1_555 1_555
O4L S1 1_555 1_555
N4C C4C 1_555 1_555
N4D C4D 1_555 1_555
N4H C4H 1_555 1_555
N4F C4F 1_555 1_555
N4K C4K 1_555 1_555
C4C H7C 1_555 1_555
C4D H7D 1_555 1_555
C4H H7H 1_555 1_555
C4F H7F 1_555 1_555
C4K H7K 1_555 1_555
C5C N3C 1_555 1_555
C5D N3D 1_555 1_555
C5H N3H 1_555 1_555
C5F N3F 1_555 1_555
C5K N3K 1_555 1_555
C6C C5C 1_555 1_555
C6D C5D 1_555 1_555
C6H C5H 1_555 1_555
C6F C5F 1_555 1_555
C6K C5K 1_555 1_555
H8C C6C 1_555 1_555
H8D C6D 1_555 1_555
H8H C6H 1_555 1_555
H8F C6F 1_555 1_555
H8K C6K 1_555 1_555
C7C C6C 1_555 1_555
C7D C6D 1_555 1_555
C7H C6H 1_555 1_555
C7F C6F 1_555 1_555
C7K C6K 1_555 1_555
H9C C7C 1_555 1_555
H9D C7D 1_555 1_555
H9H C7H 1_555 1_555
H9F C7F 1_555 1_555
H9K C7K 1_555 1_555
C8C N4C 1_555 1_555
C8D N4D 1_555 1_555
C8H N4H 1_555 1_555
C8F N4F 1_555 1_555
C8K N4K 1_555 1_555
H10C C8C 1_555 1_555
H10D C8D 1_555 1_555
H10H C8H 1_555 1_555
H10F C8F 1_555 1_555
H10K C8K 1_555 1_555
N2 C2 1_555 1_555
N2 C3 1_555 1_555
O3 O4P 1_555 1_555
O3 O4O 1_555 1_555
O3 O4L 1_555 1_555
N3 C3 1_555 1_555
O4 S1O 1_555 1_555
O4 O3O 1_555 1_555
C4 C5 1_555 1_555
C7 C8 1_555 1_555
S1O O3O 1_555 1_555
S1O O4P 1_555 1_555
S1O O4C 1_555 1_555
S1O O4O 1_555 1_555
S1O O4D 1_555 1_555
S1O O4L 1_555 1_555
N2C C2C 1_555 1_555
N2C C3C 1_555 1_555
N2D C2D 1_555 1_555
N2D C3D 1_555 1_555
N2H C2H 1_555 1_555
N2H C3H 1_555 1_555
N2F C2F 1_555 1_555
N2F C3F 1_555 1_555
N2K C2K 1_555 1_555
N2K C3K 1_555 1_555
O3O O4C 1_555 1_555
O3O O4D 1_555 1_555
N3C C3C 1_555 1_555
N3D C3D 1_555 1_555
N3H C3H 1_555 1_555
N3F C3F 1_555 1_555
N3K C3K 1_555 1_555
C4C C5C 1_555 1_555
C4D C5D 1_555 1_555
C4H C5H 1_555 1_555
C4F C5F 1_555 1_555
C4K C5K 1_555 1_555
C7C C8C 1_555 1_555
C7D C8D 1_555 1_555
C7H C8H 1_555 1_555
C7F C8F 1_555 1_555
C7K C8K 1_555 1_555

#END
