
#######################################################################
#
#                 Cambridge Crystallographic Data Centre
#                                CCDC 
#
#######################################################################
#
# If this CIF has been generated from an entry in the Cambridge 
# Structural Database, then it will include bibliographic, chemical, 
# crystal, experimental, refinement or atomic coordinate data resulting 
# from the CCDC's data processing and validation procedures.
#
#######################################################################

data_HOXGAD
_symmetry_cell_setting           orthorhombic
_symmetry_space_group_name_H-M   'F d d d'
_symmetry_Int_Tables_number      70
_space_group_name_Hall           '-F 2uv 2vw'
loop_
_symmetry_equiv_pos_site_id
_symmetry_equiv_pos_as_xyz
1 x,y,z
2 1/4-x,1/4-y,z
3 x,1/4-y,1/4-z
4 1/4-x,y,1/4-z
5 x,1/2+y,1/2+z
6 1/4-x,3/4-y,1/2+z
7 x,3/4-y,3/4-z
8 1/4-x,1/2+y,3/4-z
9 1/2+x,y,1/2+z
10 3/4-x,1/4-y,1/2+z
11 1/2+x,1/4-y,3/4-z
12 3/4-x,y,3/4-z
13 1/2+x,1/2+y,z
14 3/4-x,3/4-y,z
15 1/2+x,3/4-y,1/4-z
16 3/4-x,1/2+y,1/4-z
17 -x,-y,-z
18 3/4+x,3/4+y,-z
19 -x,3/4+y,3/4+z
20 3/4+x,-y,3/4+z
21 -x,1/2-y,1/2-z
22 3/4+x,1/4+y,1/2-z
23 -x,1/4+y,1/4+z
24 3/4+x,1/2-y,1/4+z
25 1/2-x,-y,1/2-z
26 1/4+x,3/4+y,1/2-z
27 1/2-x,3/4+y,1/4+z
28 1/4+x,-y,1/4+z
29 1/2-x,1/2-y,-z
30 1/4+x,1/4+y,-z
31 1/2-x,1/4+y,3/4+z
32 1/4+x,1/2-y,3/4+z
_cell_length_a                   20.840(2)
_cell_length_b                   25.570(2)
_cell_length_c                   28.740(3)
_cell_angle_alpha                90
_cell_angle_beta                 90
_cell_angle_gamma                90
_cell_volume                     15314.9
loop_
_atom_site_label
_atom_site_type_symbol
_atom_site_fract_x
_atom_site_fract_y
_atom_site_fract_z
Cu1 Cu 0.82525(8) 0.64385(7) 1.07618(5)
Cu2 Cu 0.91989(8) 0.56799(6) 1.10805(6)
Cl1 Cl 0.93992(11) 0.65283(9) 1.06563(8)
Cl2 Cl 0.80567(11) 0.55608(9) 1.10165(8)
N1 N 0.7553(4) 0.6859(3) 0.9507(2)
N2 N 0.7992(4) 0.6677(3) 0.9806(3)
N3 N 0.7744(4) 0.6653(3) 1.0218(3)
N4 N 0.7400(3) 0.5657(3) 0.8013(2)
N5 N 0.6946(3) 0.5357(3) 0.8221(2)
N6 N 0.7204(4) 0.4899(3) 0.8314(2)
C1 C 0.7114(4) 0.6820(3) 1.0199(3)
C2 C 0.6992(4) 0.6942(3) 0.9742(3)
C3 C 0.6393(5) 0.7132(4) 0.9593(4)
H1 H 0.6309 0.7221 0.9286
C4 C 0.5941(6) 0.7175(5) 0.9942(7)
H2 H 0.5534 0.7295 0.9863
C5 C 0.6060(6) 0.7049(5) 1.0401(6)
H3 H 0.5733 0.7086 1.0619
C6 C 0.6660(5) 0.6867(4) 1.0546(4)
H4 H 0.6747 0.6783 1.0855
C7 C 0.7826(4) 0.4897(3) 0.8167(3)
C8 C 0.7963(4) 0.5384(3) 0.7976(2)
C9 C 0.8560(4) 0.5513(4) 0.7787(3)
H5 H 0.8645 0.5838 0.7656
C10 C 0.9010(5) 0.5123(6) 0.7811(4)
H6 H 0.9418 0.5189 0.7693
C11 C 0.8885(5) 0.4630(5) 0.8005(4)
H7 H 0.9209 0.4380 0.8009
C12 C 0.8298(5) 0.4507(4) 0.8188(3)
H8 H 0.8217 0.4182 0.8321
C13 C 0.7717(5) 0.6924(4) 0.9018(3)
H9 H 0.8179 0.6912 0.8983
H10 H 0.7571 0.7265 0.8914
C14 C 0.7417(6) 0.6506(4) 0.8718(3)
H11 H 0.6954 0.6516 0.8753
H12 H 0.7565 0.6165 0.8819
C15 C 0.7591(5) 0.6585(4) 0.8209(3)
H13 H 0.7473 0.6937 0.8115
H14 H 0.8051 0.6548 0.8171
C16 C 0.7256(4) 0.6197(3) 0.7897(3)
H15 H 0.6796 0.6251 0.7918
H16 H 0.7383 0.6262 0.7577
Cu1B Cu 0.82525(8) 0.60615(7) 1.17382(5)
Cu2B Cu 0.91989(8) 0.68201(6) 1.14195(6)
Cu2S Cu 0.66989(8) 0.43201(6) 0.85805(6)
Cl1B Cl 0.93992(11) 0.59717(9) 1.18437(8)
Cl2B Cl 0.80567(11) 0.69392(9) 1.14835(8)
N6AA N 0.9704(4) 0.5101(3) 1.0814(2)
loop_
_geom_bond_atom_site_label_1
_geom_bond_atom_site_label_2
_geom_bond_site_symmetry_1
_geom_bond_site_symmetry_2
Cu1 Cl1 1_555 1_555
Cu2 Cl1 1_555 1_555
Cl1 Cu2B 1_555 1_555
Cl2 Cu1 1_555 1_555
N1 N2 1_555 1_555
N2 N3 1_555 1_555
N3 Cu1 1_555 1_555
N4 N5 1_555 1_555
N5 N6 1_555 1_555
N6 C7 1_555 1_555
C1 N3 1_555 1_555
C2 N1 1_555 1_555
C3 C2 1_555 1_555
H1 C3 1_555 1_555
C4 C3 1_555 1_555
H2 C4 1_555 1_555
C5 C4 1_555 1_555
H3 C5 1_555 1_555
C6 C1 1_555 1_555
H4 C6 1_555 1_555
C7 C8 1_555 1_555
C8 N4 1_555 1_555
C9 C8 1_555 1_555
H5 C9 1_555 1_555
C10 C9 1_555 1_555
H6 C10 1_555 1_555
C11 C10 1_555 1_555
H7 C11 1_555 1_555
C12 C7 1_555 1_555
H8 C12 1_555 1_555
C13 N1 1_555 1_555
H9 C13 1_555 1_555
H10 C13 1_555 1_555
C14 C13 1_555 1_555
H11 C14 1_555 1_555
H12 C14 1_555 1_555
C15 C14 1_555 1_555
H13 C15 1_555 1_555
H14 C15 1_555 1_555
C16 N4 1_555 1_555
H15 C16 1_555 1_555
H16 C16 1_555 1_555
Cu1B Cl2 1_555 1_555
Cu2B Cl1B 1_555 1_555
Cu2S N6 1_555 1_555
Cl1B Cu2 1_555 1_555
Cl2B Cu1 1_555 1_555
N6AA Cu2 1_555 1_555
Cu2 Cl2 1_555 1_555
C1 C2 1_555 1_555
C5 C6 1_555 1_555
C11 C12 1_555 1_555
C15 C16 1_555 1_555
Cu1B Cl1B 1_555 1_555
Cu1B Cl2B 1_555 1_555
Cu2B Cl2B 1_555 1_555

#END
