
#######################################################################
#
#                 Cambridge Crystallographic Data Centre
#                                CCDC 
#
#######################################################################
#
# If this CIF has been generated from an entry in the Cambridge 
# Structural Database, then it will include bibliographic, chemical, 
# crystal, experimental, refinement or atomic coordinate data resulting 
# from the CCDC's data processing and validation procedures.
#
#######################################################################

data_HOXHUY
_symmetry_cell_setting           triclinic
_symmetry_space_group_name_H-M   'P -1'
_symmetry_Int_Tables_number      2
_space_group_name_Hall           '-P 1'
loop_
_symmetry_equiv_pos_site_id
_symmetry_equiv_pos_as_xyz
1 x,y,z
2 -x,-y,-z
_cell_length_a                   14.383(4)
_cell_length_b                   14.400(4)
_cell_length_c                   21.420(5)
_cell_angle_alpha                96.724(5)
_cell_angle_beta                 96.541(5)
_cell_angle_gamma                109.438(4)
_cell_volume                     4099.03
loop_
_atom_site_label
_atom_site_type_symbol
_atom_site_fract_x
_atom_site_fract_y
_atom_site_fract_z
Ge1 Ge -0.1838(3) -0.1837(2) -0.25428(14)
W1 W -0.05510(12) -0.05499(10) -0.36864(6)
W2 W -0.07737(12) 0.08033(10) -0.21603(7)
W3 W -0.32936(13) -0.02804(12) -0.25003(7)
W4 W -0.02847(13) -0.32958(11) -0.25017(7)
W5 W -0.20566(12) -0.04596(11) -0.11051(6)
W6 W 0.08023(12) -0.07737(11) -0.21600(7)
W7 W -0.04613(12) -0.20586(11) -0.11051(6)
W8 W -0.30773(12) -0.16286(11) -0.40287(6)
W9 W -0.16300(12) -0.30810(10) -0.40288(6)
W10 W -0.32364(13) -0.32370(11) -0.14909(7)
W11 W -0.30368(13) -0.44861(11) -0.28878(7)
W12 W -0.44849(12) -0.30365(11) -0.28869(7)
O1 O -0.1951(19) -0.0755(18) -0.2185(10)
O3 O -0.368(2) -0.368(2) -0.0838(13)
O4 O -0.338(2) -0.5743(19) -0.3130(11)
O5 O 0.0760(18) -0.1057(16) -0.1276(10)
O6 O -0.400(2) -0.2622(18) -0.3623(11)
O7 O -0.4303(19) -0.4297(18) -0.3127(11)
O8 O -0.0629(17) -0.1781(16) -0.4176(9)
O9 O -0.2623(18) -0.3982(16) -0.3641(10)
O10 O -0.440(2) -0.3277(18) -0.2009(11)
O11 O -0.0114(18) -0.3101(16) -0.1575(10)
O12 O 0.0866(18) -0.2092(16) -0.2436(9)
O13 O -0.1837(19) -0.0686(17) -0.4187(10)
O14 O -0.2135(19) -0.0032(17) -0.0338(10)
O15 O -0.3077(18) -0.0109(16) -0.1567(10)
O16 O -0.1563(19) -0.3897(17) -0.4642(10)
O17 O -0.1638(18) -0.4125(17) -0.2537(10)
O18 O -0.1073(17) 0.0756(15) -0.1274(9)
O19 O -0.0817(18) -0.2012(16) -0.2188(10)
O20 O -0.066(2) -0.3142(18) -0.3349(11)
O21 O -0.3287(18) -0.4455(16) -0.2019(10)
O22 O 0.2048(18) -0.0032(17) -0.2046(10)
O23 O -0.3878(19) -0.1531(17) -0.4637(10)
O24 O -0.0008(19) 0.2071(17) -0.2054(10)
O25 O -0.4158(19) -0.1685(17) -0.2569(10)
O26 O -0.1771(18) -0.1796(16) -0.3340(9)
O27 O 0.038(2) -0.4082(18) -0.2597(11)
O28 O -0.0744(18) 0.0360(16) -0.3022(10)
O29 O 0.0214(19) 0.0216(17) -0.4112(10)
O30 O 0.0329(17) -0.0768(15) -0.3057(9)
O31 O 0.0175(16) 0.0204(14) -0.1956(9)
O32 O -0.2114(17) 0.0896(15) -0.2412(9)
O33 O -0.3131(18) -0.0672(16) -0.3352(10)
O34 O -0.4134(17) 0.0311(15) -0.2617(9)
O35 O -0.1807(19) -0.2937(17) -0.1265(10)
O36 O -0.571(2) -0.336(2) -0.3087(12)
O37 O -0.291(2) -0.1772(19) -0.1241(11)
O38 O -0.265(2) -0.2663(18) -0.4430(11)
O39 O -0.2822(18) -0.2814(16) -0.2458(9)
O40 O -0.1032(18) -0.1034(16) -0.0981(10)
Cu1 Cu 0.3551(4) 0.9998(4) 0.77878(19)
Cu2 Cu 0.0012(4) 0.3559(3) -0.22054(19)
Cu3 Cu 0.2730(4) 0.7778(4) 0.26479(19)
Cu4 Cu -0.2225(4) 0.2726(4) -0.73507(19)
C1 C -0.106(3) 0.250(3) -0.5533(15)
H1 H -0.0878 0.2010 -0.5366
C2 C 0.076(3) 0.380(3) -0.0851(15)
H2 H 0.0715 0.3135 -0.0940
C3 C 0.098(3) 0.577(3) -0.0633(14)
H3 H 0.0994 0.6421 -0.0558
C4 C 0.210(3) 0.751(3) 0.1297(15)
H4 H 0.2153 0.8175 0.1364
C5 C 0.175(3) 0.542(3) 0.1037(18)
H5 H 0.1577 0.4730 0.0982
C6 C 0.382(3) 1.077(3) 0.9165(16)
H6 H 0.3135 1.0649 0.9079
C7 C 0.390(3) 0.875(3) 0.6005(15)
H7 H 0.4226 0.8327 0.5865
C8 C 0.239(3) 0.866(3) 0.3805(15)
H8 H 0.1880 0.8747 0.3541
C9 C -0.126(3) 0.387(3) -0.3970(15)
H9 H -0.1743 0.4124 -0.4109
C10 C 0.161(2) 0.589(2) 0.0549(13)
C11 C 0.307(3) 1.009(3) 0.6476(15)
H10 H 0.2887 1.0613 0.6648
C12 C 0.252(3) 0.899(2) 0.4450(15)
H11 H 0.2087 0.9277 0.4610
C13 C -0.106(3) 0.332(3) -0.5123(15)
C14 C 0.694(3) 1.177(3) 1.0688(17)
H12 H 0.7280 1.1656 1.0360
C15 C 0.329(3) 0.888(2) 0.4867(14)
C16 C 0.073(3) 0.528(3) -0.1226(16)
H13 H 0.0694 0.5633 -0.1561
C17 C 0.125(3) 0.532(2) -0.0087(15)
C18 C 0.386(3) 0.898(3) 0.6647(16)
H14 H 0.4155 0.8671 0.6927
C19 C 0.292(4) 0.985(3) 0.581(2)
H15 H 0.2542 1.0103 0.5546
C20 C -0.134(3) 0.240(3) -0.6201(15)
H16 H -0.1211 0.1913 -0.6470
C21 C 0.745(3) 1.207(3) 1.1308(16)
H17 H 0.8099 1.2080 1.1382
C22 C 0.109(3) 0.427(3) -0.0209(16)
H18 H 0.1196 0.3922 0.0116
C23 C 0.221(3) 0.608(3) 0.1699(19)
H19 H 0.2367 0.5785 0.2038
C24 C -0.098(3) 0.392(3) -0.3329(16)
H20 H -0.1220 0.4291 -0.3045
C25 C 0.175(3) 0.695(3) 0.0699(19)
H21 H 0.1602 0.7272 0.0369
C26 C 0.384(3) 0.821(3) 0.3937(16)
H22 H 0.4330 0.8024 0.3768
C27 C -0.012(3) 0.299(2) -0.4174(15)
H23 H 0.0177 0.2649 -0.4432
C28 C 0.544(4) 1.187(3) 1.1020(19)
H24 H 0.4776 1.1832 1.0959
C29 C 0.393(4) 0.848(3) 0.459(2)
H25 H 0.4443 0.8398 0.4854
C30 C 0.578(4) 1.106(3) 0.939(2)
H26 H 0.6460 1.1189 0.9453
C31 C 0.586(3) 1.163(3) 1.0543(16)
C32 C 0.423(3) 1.109(2) 0.9745(15)
H27 H 0.3866 1.1214 1.0054
C33 C -0.080(3) 0.340(3) -0.4449(16)
C34 C -0.149(3) 0.397(3) -0.5409(16)
H28 H -0.1571 0.4507 -0.5158
C35 C 0.339(3) 0.920(3) 0.5551(17)
C36 C 0.009(4) 0.309(3) -0.3522(19)
H29 H 0.0604 0.2896 -0.3349
C37 C 0.606(3) 1.220(3) 1.1656(19)
H30 H 0.5738 1.2321 1.1991
C38 C 0.523(4) 1.070(3) 0.878(2)
H31 H 0.5541 1.0527 0.8452
C39 C -0.179(3) 0.379(3) -0.6060(17)
H32 H -0.2027 0.4240 -0.6245
C40 C 0.531(3) 1.125(3) 0.9923(16)
N1 N 0.051(3) 0.422(2) -0.1362(14)
N2 N 0.345(2) 0.960(2) 0.6897(13)
N3 N 0.427(2) 1.059(2) 0.8651(13)
N4 N 0.238(2) 0.709(2) 0.1807(13)
N5 N -0.177(2) 0.298(2) -0.6447(13)
N6 N -0.041(3) 0.348(2) -0.3109(14)
N7 N 0.299(2) 0.820(2) 0.3531(12)
N8 N 0.706(3) 1.235(2) 1.1819(15)
O41 O -0.006(2) -0.2167(18) -0.0348(11)
O12A O -0.0866(18) 0.2092(16) -0.7564(9)
O22_2 O 0.2048(18) 0.9968(17) 0.7954(10)
O27A O -0.038(2) 0.4082(18) -0.7403(11)
O32A O 0.2114(17) 0.9104(15) 0.2412(9)
O34A O 0.4134(17) 0.9689(15) 0.2617(9)
Cu1_2 Cu 0.3551(4) -0.0002(4) -0.22122(19)
Cu3A Cu -0.2730(4) 0.2222(4) -0.26479(19)
Cu4_2 Cu 0.7775(4) 1.2726(4) 1.26493(19)
Cu4A Cu 0.2225(4) -0.2726(4) -0.26493(19)
N8_2 N -0.294(3) 0.235(2) -0.8181(15)
O2 O 0.0660(15) -0.9316(14) -0.0472(8)
loop_
_geom_bond_atom_site_label_1
_geom_bond_atom_site_label_2
_geom_bond_site_symmetry_1
_geom_bond_site_symmetry_2
Ge1 O1 1_555 1_555
W1 O8 1_555 1_555
W2 O1 1_555 1_555
W3 O1 1_555 1_555
W4 O11 1_555 1_555
W5 O1 1_555 1_555
W6 O5 1_555 1_555
W7 O5 1_555 1_555
W8 O6 1_555 1_555
W9 O8 1_555 1_555
W10 O3 1_555 1_555
W11 O4 1_555 1_555
W12 O6 1_555 1_555
O7 W11 1_555 1_555
O9 W9 1_555 1_555
O10 W10 1_555 1_555
O11 W7 1_555 1_555
O12 W4 1_555 1_555
O13 W1 1_555 1_555
O14 W5 1_555 1_555
O15 W3 1_555 1_555
O16 W9 1_555 1_555
O17 W4 1_555 1_555
O18 W2 1_555 1_555
O19 Ge1 1_555 1_555
O20 W4 1_555 1_555
O21 W10 1_555 1_555
O22 W6 1_555 1_555
O23 W8 1_555 1_555
O24 W2 1_555 1_555
O25 W3 1_555 1_555
O26 Ge1 1_555 1_555
O27 W4 1_555 1_555
O28 W1 1_555 1_555
O29 W1 1_555 1_555
O30 W1 1_555 1_555
O31 W2 1_555 1_555
O32 W2 1_555 1_555
O33 W3 1_555 1_555
O34 W3 1_555 1_555
O35 W7 1_555 1_555
O36 W12 1_555 1_555
O37 W5 1_555 1_555
O38 W8 1_555 1_555
O39 Ge1 1_555 1_555
O40 W5 1_555 1_555
Cu1 N2 1_555 1_555
Cu2 O24 1_555 1_555
Cu3 N4 1_555 1_555
Cu4 N5 1_555 1_555
C1 H1 1_555 1_555
C2 H2 1_555 1_555
C3 H3 1_555 1_555
C4 H4 1_555 1_555
C5 H5 1_555 1_555
C6 H6 1_555 1_555
C7 H7 1_555 1_555
C8 H8 1_555 1_555
C9 H9 1_555 1_555
C10 C5 1_555 1_555
C11 H10 1_555 1_555
C12 C8 1_555 1_555
H11 C12 1_555 1_555
C13 C1 1_555 1_555
C14 H12 1_555 1_555
C15 C12 1_555 1_555
C16 C3 1_555 1_555
H13 C16 1_555 1_555
C17 C3 1_555 1_555
C18 C7 1_555 1_555
H14 C18 1_555 1_555
C19 C11 1_555 1_555
H15 C19 1_555 1_555
C20 C1 1_555 1_555
H16 C20 1_555 1_555
C21 C14 1_555 1_555
H17 C21 1_555 1_555
C22 C2 1_555 1_555
H18 C22 1_555 1_555
C23 C5 1_555 1_555
H19 C23 1_555 1_555
C24 C9 1_555 1_555
H20 C24 1_555 1_555
C25 C4 1_555 1_555
H21 C25 1_555 1_555
C26 H22 1_555 1_555
C27 H23 1_555 1_555
C28 H24 1_555 1_555
C29 C15 1_555 1_555
H25 C29 1_555 1_555
C30 H26 1_555 1_555
C31 C14 1_555 1_555
C32 C6 1_555 1_555
H27 C32 1_555 1_555
C33 C9 1_555 1_555
C34 C13 1_555 1_555
H28 C34 1_555 1_555
C35 C7 1_555 1_555
C36 C27 1_555 1_555
H29 C36 1_555 1_555
C37 C28 1_555 1_555
H30 C37 1_555 1_555
C38 C30 1_555 1_555
H31 C38 1_555 1_555
C39 C34 1_555 1_555
H32 C39 1_555 1_555
C40 C30 1_555 1_555
N1 Cu2 1_555 1_555
N2 C11 1_555 1_555
N3 Cu1 1_555 1_555
N4 C4 1_555 1_555
N5 C20 1_555 1_555
N6 Cu2 1_555 1_555
N7 Cu3 1_555 1_555
N8 C21 1_555 1_555
O41 W7 1_555 1_555
O12A Cu4 1_555 1_555
O22_2 Cu1 1_555 1_555
O27A Cu4 1_555 1_555
O32A Cu3 1_555 1_555
O34A Cu3 1_555 1_555
Cu1_2 O22 1_555 1_555
Cu3A O32 1_555 1_555
Cu4_2 N8 1_555 1_555
Cu4A O12 1_555 1_555
N8_2 Cu4 1_555 1_555
W1 O26 1_555 1_555
W2 O28 1_555 1_555
W3 O32 1_555 1_555
W4 O19 1_555 1_555
W5 O15 1_555 1_555
W5 O18 1_555 1_555
W6 O12 1_555 1_555
W6 O19 1_555 1_555
W6 O30 1_555 1_555
W6 O31 1_555 1_555
W7 O19 1_555 1_555
W7 O40 1_555 1_555
W8 O13 1_555 1_555
W8 O26 1_555 1_555
W8 O33 1_555 1_555
W9 O20 1_555 1_555
W9 O26 1_555 1_555
W9 O38 1_555 1_555
W10 O35 1_555 1_555
W10 O37 1_555 1_555
W10 O39 1_555 1_555
W11 O9 1_555 1_555
W11 O17 1_555 1_555
W11 O21 1_555 1_555
W11 O39 1_555 1_555
W12 O7 1_555 1_555
W12 O10 1_555 1_555
W12 O25 1_555 1_555
W12 O39 1_555 1_555
O27 Cu4A 1_555 1_555
O34 Cu3A 1_555 1_555
C2 N1 1_555 1_555
C6 N3 1_555 1_555
C8 N7 1_555 1_555
C10 C17 1_555 1_555
C10 C25 1_555 1_555
C13 C33 1_555 1_555
C15 C35 1_555 1_555
C16 N1 1_555 1_555
C17 C22 1_555 1_555
C18 N2 1_555 1_555
C19 C35 1_555 1_555
C23 N4 1_555 1_555
C24 N6 1_555 1_555
C26 C29 1_555 1_555
C26 N7 1_555 1_555
C27 C33 1_555 1_555
C28 C31 1_555 1_555
C31 C40 1_555 1_555
C32 C40 1_555 1_555
C36 N6 1_555 1_555
C37 N8 1_555 1_555
C38 N3 1_555 1_555
C39 N5 1_555 1_555

#END
