
#######################################################################
#
#                 Cambridge Crystallographic Data Centre
#                                CCDC 
#
#######################################################################
#
# If this CIF has been generated from an entry in the Cambridge 
# Structural Database, then it will include bibliographic, chemical, 
# crystal, experimental, refinement or atomic coordinate data resulting 
# from the CCDC's data processing and validation procedures.
#
#######################################################################

data_HOXJAG
_symmetry_cell_setting           monoclinic
_symmetry_space_group_name_H-M   'C 2/c'
_symmetry_Int_Tables_number      15
_space_group_name_Hall           '-C 2yn'
loop_
_symmetry_equiv_pos_site_id
_symmetry_equiv_pos_as_xyz
1 x,y,z
2 -x,y,1/2-z
3 1/2+x,1/2+y,z
4 1/2-x,1/2+y,1/2-z
5 -x,-y,-z
6 x,-y,1/2+z
7 1/2-x,1/2-y,-z
8 1/2+x,1/2-y,1/2+z
_cell_length_a                   27.2773(18)
_cell_length_b                   3.7627(3)
_cell_length_c                   21.8196(16)
_cell_angle_alpha                90
_cell_angle_beta                 122.034(2)
_cell_angle_gamma                90
_cell_volume                     1898.48
loop_
_atom_site_label
_atom_site_type_symbol
_atom_site_fract_x
_atom_site_fract_y
_atom_site_fract_z
Mo1 Mo -0.33487(4) 1.0750(3) 0.10865(5)
Mo2 Mo -0.22020(7) 0.5729(4) 0.20688(9)
Cu1 Cu -0.5000 1.5000 0.0000
O1 O -0.2454(5) 1.078(2) 0.2003(6)
O2 O -0.3202(5) 1.076(3) 0.0413(6)
N1 N -0.5011(5) 1.493(4) 0.0863(6)
O3 O -0.3382(6) 1.075(3) 0.2132(6)
O4 O -0.1996(8) 0.575(6) 0.1479(9)
O5 O -0.3191(5) 1.575(2) 0.1338(5)
O6 O -0.4077(4) 1.070(3) 0.0629(5)
C1 C -0.4999(6) 1.477(4) 0.2171(6)
C2 C -0.4513(6) 1.575(4) 0.2146(7)
H1 H -0.4171 1.6384 0.2569
C3 C -0.5498(6) 1.386(4) 0.1497(8)
H2 H -0.5835 1.3196 0.1474
C4 C -0.4541(6) 1.577(4) 0.1503(7)
H3 H -0.4209 1.6419 0.1509
C5 C -0.5483(6) 1.397(5) 0.0879(8)
H4 H -0.5817 1.3347 0.0446
Mo1_2 Mo -0.33487(4) 2.0750(3) 0.10865(5)
Mo1C Mo -0.16513(4) 1.5750(3) 0.39135(5)
Mo1C_2 Mo -0.16513(4) 0.5750(3) 0.39135(5)
Mo1_3 Mo -0.33487(4) 0.0750(3) 0.10865(5)
Mo1_4 Mo -0.33487(4) -0.9250(3) 0.10865(5)
Mo1_5 Mo -0.33487(4) 3.0750(3) 0.10865(5)
Mo1C_3 Mo -0.16513(4) 2.5750(3) 0.39135(5)
Mo1C_4 Mo -0.16513(4) -0.4250(3) 0.39135(5)
Mo1_6 Mo -0.33487(4) -1.9250(3) 0.10865(5)
Mo1C_5 Mo -0.16513(4) -1.4250(3) 0.39135(5)
Mo1C_6 Mo -0.16513(4) 3.5750(3) 0.39135(5)
Mo2_2 Mo -0.22020(7) 1.5729(4) 0.20688(9)
Mo2C Mo -0.27980(7) 1.0729(4) 0.29312(9)
Mo2C_2 Mo -0.27980(7) 2.0729(4) 0.29312(9)
Mo2_3 Mo -0.22020(7) -0.4271(4) 0.20688(9)
Mo2C_3 Mo -0.27980(7) 0.0729(4) 0.29312(9)
Mo2_4 Mo -0.22020(7) 2.5729(4) 0.20688(9)
Mo2C_4 Mo -0.27980(7) 3.0729(4) 0.29312(9)
Mo2C_5 Mo -0.27980(7) -0.9271(4) 0.29312(9)
Mo2_5 Mo -0.22020(7) -1.4271(4) 0.20688(9)
Mo2_6 Mo -0.22020(7) 3.5729(4) 0.20688(9)
Cu1A Cu -0.5000 1.5000 0.5000
Cu1_2 Cu -0.5000 0.5000 0.0000
Cu1C Cu 0.0000 2.0000 0.5000
Cu1_3 Cu -0.5000 -0.5000 0.0000
Cu1C_2 Cu 0.0000 0.0000 0.5000
Cu1C_3 Cu 0.0000 1.0000 0.5000
Cu1_4 Cu -0.5000 2.5000 0.0000
Cu1C_4 Cu 0.0000 3.0000 0.5000
Cu1A_2 Cu -0.5000 -0.5000 0.5000
Cu1B Cu 0.0000 2.0000 1.0000
Cu1B_2 Cu 0.0000 1.0000 1.0000
O1_2 O -0.2454(5) 0.078(2) 0.2003(6)
O1C O -0.2546(5) 0.578(2) 0.2997(6)
O1C_2 O -0.2546(5) 1.578(2) 0.2997(6)
O1_3 O -0.2454(5) 2.078(2) 0.2003(6)
O1C_3 O -0.2546(5) 2.578(2) 0.2997(6)
O1_4 O -0.2454(5) -0.922(2) 0.2003(6)
O1C_4 O -0.2546(5) -0.422(2) 0.2997(6)
O1_5 O -0.2454(5) 3.078(2) 0.2003(6)
O2C O -0.1798(5) 0.576(3) 0.4587(6)
O2C_2 O -0.1798(5) 1.576(3) 0.4587(6)
O2_2 O -0.3202(5) 2.076(3) 0.0413(6)
O2_3 O -0.3202(5) 0.076(3) 0.0413(6)
O2_4 O -0.3202(5) -0.924(3) 0.0413(6)
O2C_3 O -0.1798(5) -0.424(3) 0.4587(6)
O2C_4 O -0.1798(5) 2.576(3) 0.4587(6)
N1D N -0.4989(5) 1.507(4) -0.0863(6)
N1A N -0.4989(5) 1.493(4) 0.4137(6)
N1_2 N -0.5011(5) -0.507(4) 0.0863(6)
N1D_2 N -0.4989(5) -0.493(4) -0.0863(6)
N1C N 0.0011(5) 0.993(4) 0.4137(6)
N1G N -0.0011(5) 1.007(4) 0.5863(6)
N1C_2 N 0.0011(5) 1.993(4) 0.4137(6)
N1G_2 N -0.0011(5) 2.007(4) 0.5863(6)
N1A_2 N -0.4989(5) -0.507(4) 0.4137(6)
N1F N 0.0011(5) 2.007(4) 0.9137(6)
N1F_2 N 0.0011(5) 1.007(4) 0.9137(6)
O3C O -0.1618(6) 0.575(3) 0.2868(6)
O3C_2 O -0.1618(6) 1.575(3) 0.2868(6)
O3_2 O -0.3382(6) 2.075(3) 0.2132(6)
O3_3 O -0.3382(6) 0.075(3) 0.2132(6)
O3_4 O -0.3382(6) -0.925(3) 0.2132(6)
O3C_3 O -0.1618(6) -0.425(3) 0.2868(6)
O3C_4 O -0.1618(6) 2.575(3) 0.2868(6)
O4C O -0.3004(8) 1.075(6) 0.3521(9)
O4_2 O -0.1996(8) 1.575(6) 0.1479(9)
O4C_2 O -0.3004(8) 2.075(6) 0.3521(9)
O4_3 O -0.1996(8) -0.425(6) 0.1479(9)
O4_4 O -0.1996(8) 2.575(6) 0.1479(9)
O4C_3 O -0.3004(8) 0.075(6) 0.3521(9)
O5_2 O -0.3191(5) 0.575(2) 0.1338(5)
O5C O -0.1809(5) 1.075(2) 0.3662(5)
O5C_2 O -0.1809(5) 2.075(2) 0.3662(5)
O5C_3 O -0.1809(5) 0.075(2) 0.3662(5)
O5_3 O -0.3191(5) 2.575(2) 0.1338(5)
O5_4 O -0.3191(5) -0.425(2) 0.1338(5)
O5_5 O -0.3191(5) -1.425(2) 0.1338(5)
O5C_4 O -0.1809(5) -0.925(2) 0.3662(5)
O5C_5 O -0.1809(5) 3.075(2) 0.3662(5)
O6D O -0.5923(4) 1.930(3) -0.0629(5)
O6C O -0.0923(4) 0.570(3) 0.4371(5)
O6C_2 O -0.0923(4) 1.570(3) 0.4371(5)
O6_2 O -0.4077(4) 2.070(3) 0.0629(5)
O6_3 O -0.4077(4) 0.070(3) 0.0629(5)
O6_4 O -0.4077(4) -0.930(3) 0.0629(5)
O6C_3 O -0.0923(4) -0.430(3) 0.4371(5)
O6C_4 O -0.0923(4) 2.570(3) 0.4371(5)
O6D_2 O -0.5923(4) -0.070(3) -0.0629(5)
O6G O 0.0923(4) 1.430(3) 0.5629(5)
O6G_2 O 0.0923(4) 2.430(3) 0.5629(5)
C1A C -0.5001(6) 1.477(4) 0.2829(6)
C1_2 C -0.4999(6) -0.523(4) 0.2171(6)
C1A_2 C -0.5001(6) -0.523(4) 0.2829(6)
C1G C 0.0001(6) 2.023(4) 0.7171(6)
C1F C -0.0001(6) 2.023(4) 0.7829(6)
C1G_2 C 0.0001(6) 1.023(4) 0.7171(6)
C1F_2 C -0.0001(6) 1.023(4) 0.7829(6)
C2A C -0.5487(6) 1.575(4) 0.2854(7)
C2_2 C -0.4513(6) -0.425(4) 0.2146(7)
C2G C 0.0487(6) 1.925(4) 0.7146(7)
C2A_2 C -0.5487(6) -0.425(4) 0.2854(7)
C2G_2 C 0.0487(6) 0.925(4) 0.7146(7)
C2F C -0.0487(6) 1.925(4) 0.7854(7)
C2F_2 C -0.0487(6) 0.925(4) 0.7854(7)
H1A H -0.5829 1.6384 0.2431
H1_2 H -0.4171 -0.3616 0.2569
H1A_2 H -0.5829 -0.3616 0.2431
H1G H 0.0829 1.8616 0.7569
H1G_2 H 0.0829 0.8616 0.7569
H1F H -0.0829 1.8616 0.7431
H1F_2 H -0.0829 0.8616 0.7431
C3A C -0.4502(6) 1.386(4) 0.3503(8)
C3_2 C -0.5498(6) -0.614(4) 0.1497(8)
C3G C -0.0498(6) 2.114(4) 0.6497(8)
C3A_2 C -0.4502(6) -0.614(4) 0.3503(8)
C3G_2 C -0.0498(6) 1.114(4) 0.6497(8)
C3F C 0.0498(6) 2.114(4) 0.8503(8)
C3F_2 C 0.0498(6) 1.114(4) 0.8503(8)
H2A H -0.4165 1.3196 0.3526
H2_2 H -0.5835 -0.6804 0.1474
H2A_2 H -0.4165 -0.6804 0.3526
H2G H -0.0835 2.1804 0.6474
H2G_2 H -0.0835 1.1804 0.6474
H2F H 0.0835 2.1804 0.8526
H2F_2 H 0.0835 1.1804 0.8526
C4A C -0.5459(6) 1.577(4) 0.3497(7)
C4_2 C -0.4541(6) -0.423(4) 0.1503(7)
C4G C 0.0459(6) 1.923(4) 0.6503(7)
C4A_2 C -0.5459(6) -0.423(4) 0.3497(7)
C4G_2 C 0.0459(6) 0.923(4) 0.6503(7)
C4F C -0.0459(6) 1.923(4) 0.8497(7)
C4F_2 C -0.0459(6) 0.923(4) 0.8497(7)
H3A H -0.5791 1.6419 0.3491
H3_2 H -0.4209 -0.3581 0.1509
H3G H 0.0791 1.8581 0.6509
H3A_2 H -0.5791 -0.3581 0.3491
H3G_2 H 0.0791 0.8581 0.6509
H3F H -0.0791 1.8581 0.8491
H3F_2 H -0.0791 0.8581 0.8491
C5A C -0.4517(6) 1.397(5) 0.4121(8)
C5_2 C -0.5483(6) -0.603(5) 0.0879(8)
C5G C -0.0483(6) 2.103(5) 0.5879(8)
C5A_2 C -0.4517(6) -0.603(5) 0.4121(8)
C5G_2 C -0.0483(6) 1.103(5) 0.5879(8)
C5F C 0.0483(6) 2.103(5) 0.9121(8)
C5F_2 C 0.0483(6) 1.103(5) 0.9121(8)
H4A H -0.4183 1.3347 0.4554
H4_2 H -0.5817 -0.6653 0.0446
H4G H -0.0817 2.1653 0.5446
H4A_2 H -0.4183 -0.6653 0.4554
H4G_2 H -0.0817 1.1653 0.5446
H4F H 0.0817 2.1653 0.9554
H4F_2 H 0.0817 1.1653 0.9554
O7 O -0.167(3) 0.10(2) 0.102(4)
loop_
_geom_bond_atom_site_label_1
_geom_bond_atom_site_label_2
_geom_bond_site_symmetry_1
_geom_bond_site_symmetry_2
Mo1 O1 1_555 1_555
Mo2 O1 1_555 1_555
Cu1 N1 1_555 1_555
O1 Mo2_2 1_555 1_555
O2 Mo1 1_555 1_555
N1 C4 1_555 1_555
O3 Mo1 1_555 1_555
O4 Mo2 1_555 1_555
O5 Mo1 1_555 1_555
O6 Mo1 1_555 1_555
C1 C2 1_555 1_555
C2 H1 1_555 1_555
C3 C1 1_555 1_555
H2 C3 1_555 1_555
C4 C2 1_555 1_555
H3 C4 1_555 1_555
C5 N1 1_555 1_555
H4 C5 1_555 1_555
Mo1_2 O5 1_555 1_555
Mo1C O1C_2 1_555 1_555
Mo1C_2 O1C 1_555 1_555
Mo1_3 O1_2 1_555 1_555
Mo1_4 O1_4 1_555 1_555
Mo1_5 O1_5 1_555 1_555
Mo1C_3 O1C_3 1_555 1_555
Mo1C_4 O1C_4 1_555 1_555
Mo1_6 O5_5 1_555 1_555
Mo1C_5 O5C_4 1_555 1_555
Mo1C_6 O5C_5 1_555 1_555
Mo2_2 O5 1_555 1_555
Mo2C O1 1_555 1_555
Mo2C_2 O1C_2 1_555 1_555
Mo2_3 O1_2 1_555 1_555
Mo2C_3 O1_2 1_555 1_555
Mo2_4 O1_3 1_555 1_555
Mo2C_4 O1C_3 1_555 1_555
Mo2C_5 O1_4 1_555 1_555
Mo2_5 O1_4 1_555 1_555
Mo2_6 O1_5 1_555 1_555
Cu1A N1A 1_555 1_555
Cu1_2 O6_3 1_555 1_555
Cu1C N1C_2 1_555 1_555
Cu1_3 N1_2 1_555 1_555
Cu1C_2 O6C_3 1_555 1_555
Cu1C_3 N1C 1_555 1_555
Cu1_4 O6_2 1_555 1_555
Cu1C_4 O6C_4 1_555 1_555
Cu1A_2 N1A_2 1_555 1_555
Cu1B N1F 1_555 1_555
Cu1B_2 N1F_2 1_555 1_555
O1_2 Mo2 1_555 1_555
O1C Mo2 1_555 1_555
O1C_2 Mo2_2 1_555 1_555
O1_3 Mo1_2 1_555 1_555
O1C_3 Mo2C_2 1_555 1_555
O1_4 Mo2_3 1_555 1_555
O1C_4 Mo2_3 1_555 1_555
O1_5 Mo2_4 1_555 1_555
O2C Mo1C_2 1_555 1_555
O2C_2 Mo1C 1_555 1_555
O2_2 Mo1_2 1_555 1_555
O2_3 Mo1_3 1_555 1_555
O2_4 Mo1_4 1_555 1_555
O2C_3 Mo1C_4 1_555 1_555
O2C_4 Mo1C_3 1_555 1_555
N1D Cu1 1_555 1_555
N1A C4A 1_555 1_555
N1_2 C4_2 1_555 1_555
N1D_2 Cu1_3 1_555 1_555
N1G Cu1C_3 1_555 1_555
N1G_2 Cu1C 1_555 1_555
N1A_2 C4A_2 1_555 1_555
N1F C4F 1_555 1_555
N1F_2 C4F_2 1_555 1_555
O3C Mo2 1_555 1_555
O3C_2 Mo1C 1_555 1_555
O3_2 Mo1_2 1_555 1_555
O3_3 Mo1_3 1_555 1_555
O3_4 Mo1_4 1_555 1_555
O3C_3 Mo1C_4 1_555 1_555
O3C_4 Mo1C_3 1_555 1_555
O4C Mo2C 1_555 1_555
O4_2 Mo2_2 1_555 1_555
O4C_2 Mo2C_2 1_555 1_555
O4_3 Mo2_3 1_555 1_555
O4_4 Mo2_4 1_555 1_555
O4C_3 Mo2C_3 1_555 1_555
O5_2 Mo1 1_555 1_555
O5C Mo1C 1_555 1_555
O5C_2 Mo1C 1_555 1_555
O5C_3 Mo1C_2 1_555 1_555
O5_3 Mo1_2 1_555 1_555
O5_4 Mo1_3 1_555 1_555
O5_5 Mo1_4 1_555 1_555
O5C_4 Mo1C_4 1_555 1_555
O5C_5 Mo1C_3 1_555 1_555
O6D Cu1 1_555 1_555
O6C Mo1C_2 1_555 1_555
O6C_2 Mo1C 1_555 1_555
O6_2 Mo1_2 1_555 1_555
O6_3 Mo1_3 1_555 1_555
O6_4 Mo1_4 1_555 1_555
O6C_3 Mo1C_4 1_555 1_555
O6C_4 Mo1C_3 1_555 1_555
O6D_2 Cu1_3 1_555 1_555
O6G Cu1C_3 1_555 1_555
O6G_2 Cu1C 1_555 1_555
C1A C1 1_555 1_555
C1_2 C1A_2 1_555 1_555
C1A_2 C2A_2 1_555 1_555
C1G C1F 1_555 1_555
C1F C2F 1_555 1_555
C1G_2 C1F_2 1_555 1_555
C1F_2 C2F_2 1_555 1_555
C2A C1A 1_555 1_555
C2_2 C1_2 1_555 1_555
C2G C1G 1_555 1_555
C2A_2 H1A_2 1_555 1_555
C2G_2 C1G_2 1_555 1_555
C2F H1F 1_555 1_555
C2F_2 H1F_2 1_555 1_555
H1A C2A 1_555 1_555
H1_2 C2_2 1_555 1_555
H1G C2G 1_555 1_555
H1G_2 C2G_2 1_555 1_555
C3A C1A 1_555 1_555
C3_2 C1_2 1_555 1_555
C3G C1G 1_555 1_555
C3A_2 C1A_2 1_555 1_555
C3G_2 C1G_2 1_555 1_555
C3F C1F 1_555 1_555
C3F_2 C1F_2 1_555 1_555
H2A C3A 1_555 1_555
H2_2 C3_2 1_555 1_555
H2A_2 C3A_2 1_555 1_555
H2G C3G 1_555 1_555
H2G_2 C3G_2 1_555 1_555
H2F C3F 1_555 1_555
H2F_2 C3F_2 1_555 1_555
C4A C2A 1_555 1_555
C4_2 C2_2 1_555 1_555
C4G N1G_2 1_555 1_555
C4A_2 C2A_2 1_555 1_555
C4G_2 N1G 1_555 1_555
C4F C2F 1_555 1_555
C4F_2 C2F_2 1_555 1_555
H3A C4A 1_555 1_555
H3_2 C4_2 1_555 1_555
H3G C4G 1_555 1_555
H3A_2 C4A_2 1_555 1_555
H3G_2 C4G_2 1_555 1_555
H3F C4F 1_555 1_555
H3F_2 C4F_2 1_555 1_555
C5A N1A 1_555 1_555
C5_2 N1_2 1_555 1_555
C5G N1G_2 1_555 1_555
C5A_2 N1A_2 1_555 1_555
C5G_2 N1G 1_555 1_555
C5F N1F 1_555 1_555
C5F_2 N1F_2 1_555 1_555
H4A C5A 1_555 1_555
H4_2 C5_2 1_555 1_555
H4G C5G 1_555 1_555
H4A_2 C5A_2 1_555 1_555
H4G_2 C5G_2 1_555 1_555
H4F C5F 1_555 1_555
H4F_2 C5F_2 1_555 1_555
Mo2 O5_2 1_555 1_555
Cu1 O6 1_555 1_555
O3 Mo2C 1_555 1_555
C3 C5 1_555 1_555
Mo1C_2 O3C 1_555 1_555
Mo1C_2 O5C 1_555 1_555
Mo1_3 O5_2 1_555 1_555
Mo1_4 O5_4 1_555 1_555
Mo1_5 O5_3 1_555 1_555
Mo1C_3 O5C_2 1_555 1_555
Mo1C_4 O5C_3 1_555 1_555
Mo2_2 O1_3 1_555 1_555
Mo2_2 O3C_2 1_555 1_555
Mo2C O1C 1_555 1_555
Mo2C O1C_2 1_555 1_555
Mo2C O5C 1_555 1_555
Mo2C_2 O1_3 1_555 1_555
Mo2C_2 O3_2 1_555 1_555
Mo2C_2 O5C_2 1_555 1_555
Mo2_3 O3C_3 1_555 1_555
Mo2_3 O5_4 1_555 1_555
Mo2C_3 O1C 1_555 1_555
Mo2C_3 O1C_4 1_555 1_555
Mo2C_3 O3_3 1_555 1_555
Mo2C_3 O5C_3 1_555 1_555
Mo2_4 O1C_3 1_555 1_555
Mo2_4 O3C_4 1_555 1_555
Mo2_4 O5_3 1_555 1_555
Mo2C_4 O1_5 1_555 1_555
Mo2C_4 O5C_5 1_555 1_555
Mo2C_5 O1C_4 1_555 1_555
Mo2C_5 O3_4 1_555 1_555
Mo2C_5 O5C_4 1_555 1_555
Mo2_5 O5_5 1_555 1_555
Cu1C O6C_2 1_555 1_555
Cu1_3 O6_4 1_555 1_555
Cu1C_3 O6C 1_555 1_555
C2G C4G 1_555 1_555
C2G_2 C4G_2 1_555 1_555
C3A C5A 1_555 1_555
C3_2 C5_2 1_555 1_555
C3G C5G 1_555 1_555
C3A_2 C5A_2 1_555 1_555
C3G_2 C5G_2 1_555 1_555
C3F C5F 1_555 1_555
C3F_2 C5F_2 1_555 1_555

#END
