
#######################################################################
#
#                 Cambridge Crystallographic Data Centre
#                                CCDC 
#
#######################################################################
#
# If this CIF has been generated from an entry in the Cambridge 
# Structural Database, then it will include bibliographic, chemical, 
# crystal, experimental, refinement or atomic coordinate data resulting 
# from the CCDC's data processing and validation procedures.
#
#######################################################################

data_HOXKUB
_symmetry_cell_setting           monoclinic
_symmetry_space_group_name_H-M   'P 21/n'
_symmetry_Int_Tables_number      14
_space_group_name_Hall           '-P 2yn'
loop_
_symmetry_equiv_pos_site_id
_symmetry_equiv_pos_as_xyz
1 x,y,z
2 1/2-x,1/2+y,1/2-z
3 -x,-y,-z
4 1/2+x,1/2-y,1/2+z
_cell_length_a                   17.326(12)
_cell_length_b                   11.492(8)
_cell_length_c                   17.326(12)
_cell_angle_alpha                90
_cell_angle_beta                 106.05
_cell_angle_gamma                90
_cell_volume                     3315.32
loop_
_atom_site_label
_atom_site_type_symbol
_atom_site_fract_x
_atom_site_fract_y
_atom_site_fract_z
Yb1 Yb 0.91573(3) -0.39367(4) 0.00946(3)
Yb2 Yb 0.89109(3) 0.05522(4) -0.48499(3)
S1 S 0.9711(2) -0.2106(3) -0.24885(19)
S2 S 0.90748(18) -0.2817(3) 0.24836(18)
S3 S 0.87356(19) -0.7700(3) -0.23344(19)
O1 O 0.9480(5) -0.2860(7) -0.0929(5)
O2 O 1.0083(5) -0.4539(7) -0.0834(4)
O3 O 0.9591(5) -0.0803(7) -0.3957(4)
O4 O 1.0564(5) -0.1723(6) -0.4351(4)
O5 O 1.0118(5) -0.1655(7) 0.3941(5)
O6 O 0.9149(5) -0.0729(7) 0.4295(5)
O7 O 0.8451(4) -0.4218(6) 0.0972(4)
O8 O 0.7174(5) -0.3758(7) 0.0805(5)
O9 O 0.8636(5) -0.5607(8) -0.0566(5)
O10 O 0.9613(5) -0.6748(7) -0.0765(5)
O11 O 0.7039(5) -0.8452(8) -0.4269(5)
O12 O 0.8323(5) -0.8721(8) -0.3966(5)
C1 C 0.9879(8) -0.3567(11) -0.1178(7)
C2 C 1.0097(7) -0.3314(10) -0.1937(7)
C3 C 1.0557(7) -0.3928(11) -0.2318(7)
H1 H 1.0809 -0.4626 -0.2124
C4 C 1.0615(8) -0.3393(10) -0.3046(7)
H2 H 1.0914 -0.3694 -0.3371
C5 C 1.0185(7) -0.2396(10) -0.3205(6)
C6 C 1.0115(7) -0.1587(10) -0.3907(7)
C7 C 0.9398(7) -0.1416(10) 0.3870(6)
C8 C 0.8797(7) -0.2013(10) 0.3184(7)
C9 C 0.7996(9) -0.1977(13) 0.3043(9)
H3 H 0.7736 -0.1583 0.3367
C10 C 0.7584(8) -0.2614(14) 0.2336(8)
H4 H 0.7030 -0.2708 0.2161
O13 O 0.7938(5) -0.0851(7) -0.4845(6)
H5 H 0.7510 -0.0693 -0.4718
H6 H 0.8041 -0.1532 -0.4981
C11 C 0.8107(7) -0.3066(10) 0.1950(7)
C12 C 0.7889(7) -0.3718(10) 0.1193(7)
C13 C 0.8901(8) -0.6385(11) -0.0953(7)
C14 C 0.8357(7) -0.6837(11) -0.1708(7)
C15 C 0.7576(9) -0.6648(13) -0.2005(9)
H7 H 0.7267 -0.6215 -0.1747
C16 C 0.7270(8) -0.7189(12) -0.2766(9)
H8 H 0.6735 -0.7128 -0.3063
C17 C 0.7814(7) -0.7797(11) -0.3021(7)
C18 C 0.7715(7) -0.8379(11) -0.3797(8)
O14 O 0.8942(6) -0.2055(8) 0.0495(6)
N1 N 0.8852(8) -0.0167(12) 0.0405(9)
C19 C 0.8873(11) 0.1000(14) 0.0039(12)
H9 H 0.9009 0.0916 -0.0459
H10 H 0.9269 0.1476 0.0399
H11 H 0.8356 0.1362 -0.0059
C20 C 0.8639(12) 0.0039(16) 0.1158(11)
H12 H 0.8617 -0.0691 0.1421
H13 H 0.8123 0.0412 0.1042
H14 H 0.9036 0.0530 0.1503
C21 C 0.8930(10) -0.1163(14) 0.0136(11)
H15 H 0.8981 -0.1210 -0.0383
Yb1B Yb 1.08427(3) -0.60633(4) -0.00946(3)
Yb1A Yb 0.58427(3) -0.89367(4) -0.50946(3)
Yb2B Yb 1.10891(3) -0.05522(4) -0.51501(3)
Yb2B_2 Yb 1.10891(3) -0.05522(4) 0.48499(3)
Yb2_2 Yb 0.89109(3) 0.05522(4) 0.51501(3)
Yb2A Yb 0.60891(3) -0.44478(4) -0.01501(3)
Yb2_3 Yb 0.89109(3) -0.94478(4) -0.48499(3)
O2B O 0.9917(5) -0.5461(7) 0.0834(4)
O4B O 0.9436(5) 0.1723(6) -0.5649(4)
O5B O 0.9882(5) 0.1655(7) -0.3941(5)
O6_2 O 0.9149(5) -0.0729(7) -0.5705(5)
O8A O 0.7826(5) 0.1242(7) -0.5805(5)
O10B O 1.0387(5) -0.3252(7) 0.0765(5)
O11A O 0.7961(5) -0.3452(8) -0.0731(5)
O12_2 O 0.8323(5) 0.1279(8) -0.3966(5)
O15 O 0.3225(10) -0.1757(14) 0.0227(10)
H16 H 0.3088 -0.1837 0.0641
C22 C 0.3702(16) 0.027(2) 0.0884(16)
H17 H 0.3954 0.0964 0.0758
H18 H 0.4034 -0.0064 0.1369
H19 H 0.3188 0.0469 0.0956
C23 C 0.3595(18) -0.0567(18) 0.0222(18)
H20 H 0.4122 -0.0692 0.0146
H21 H 0.3278 -0.0176 -0.0257
loop_
_geom_bond_atom_site_label_1
_geom_bond_atom_site_label_2
_geom_bond_site_symmetry_1
_geom_bond_site_symmetry_2
Yb1 O1 1_555 1_555
Yb2 O3 1_555 1_555
S1 C2 1_555 1_555
S2 C8 1_555 1_555
S3 C14 1_555 1_555
O1 C1 1_555 1_555
O2 Yb1 1_555 1_555
O3 C6 1_555 1_555
O4 C6 1_555 1_555
O5 C7 1_555 1_555
O6 C7 1_555 1_555
O7 Yb1 1_555 1_555
O8 C12 1_555 1_555
O9 Yb1 1_555 1_555
O10 C13 1_555 1_555
O11 C18 1_555 1_555
O12 C18 1_555 1_555
C1 O2 1_555 1_555
C2 C1 1_555 1_555
C3 C2 1_555 1_555
H1 C3 1_555 1_555
C4 C3 1_555 1_555
H2 C4 1_555 1_555
C5 S1 1_555 1_555
C6 C5 1_555 1_555
C7 C8 1_555 1_555
C8 C9 1_555 1_555
C9 H3 1_555 1_555
C10 C9 1_555 1_555
H4 C10 1_555 1_555
O13 Yb2 1_555 1_555
H5 O13 1_555 1_555
H6 O13 1_555 1_555
C11 S2 1_555 1_555
C12 O7 1_555 1_555
C13 O9 1_555 1_555
C14 C13 1_555 1_555
C15 C14 1_555 1_555
H7 C15 1_555 1_555
C16 C15 1_555 1_555
H8 C16 1_555 1_555
C17 S3 1_555 1_555
C18 C17 1_555 1_555
O14 Yb1 1_555 1_555
N1 C19 1_555 1_555
C19 H9 1_555 1_555
H10 C19 1_555 1_555
H11 C19 1_555 1_555
C20 N1 1_555 1_555
H12 C20 1_555 1_555
H13 C20 1_555 1_555
H14 C20 1_555 1_555
C21 O14 1_555 1_555
H15 C21 1_555 1_555
O15 H16 1_555 1_555
C22 H17 1_555 1_555
H18 C22 1_555 1_555
H19 C22 1_555 1_555
C23 O15 1_555 1_555
H20 C23 1_555 1_555
H21 C23 1_555 1_555
Yb1B O2 1_555 1_555
Yb1A O11 1_555 1_555
Yb2B O4 1_555 1_555
Yb2B_2 O5 1_555 1_555
Yb2_2 O6 1_555 1_555
Yb2A O8 1_555 1_555
Yb2_3 O12 1_555 1_555
O2B Yb1 1_555 1_555
O4B Yb2 1_555 1_555
O5B Yb2 1_555 1_555
O6_2 Yb2 1_555 1_555
O8A Yb2 1_555 1_555
O10B Yb1 1_555 1_555
O11A Yb1 1_555 1_555
O12_2 Yb2 1_555 1_555
O10 Yb1B 1_555 1_555
C4 C5 1_555 1_555
C10 C11 1_555 1_555
C11 C12 1_555 1_555
C16 C17 1_555 1_555
N1 C21 1_555 1_555
C22 C23 1_555 1_555
Yb1B O2B 1_555 1_555

#END
