
#######################################################################
#
#                 Cambridge Crystallographic Data Centre
#                                CCDC 
#
#######################################################################
#
# If this CIF has been generated from an entry in the Cambridge 
# Structural Database, then it will include bibliographic, chemical, 
# crystal, experimental, refinement or atomic coordinate data resulting 
# from the CCDC's data processing and validation procedures.
#
#######################################################################

data_HOXKOV
_symmetry_cell_setting           monoclinic
_symmetry_space_group_name_H-M   'C 2/c'
_symmetry_Int_Tables_number      15
_space_group_name_Hall           '-C 2yn'
loop_
_symmetry_equiv_pos_site_id
_symmetry_equiv_pos_as_xyz
1 x,y,z
2 1/2+x,1/2+y,z
3 -x,y,1/2-z
4 1/2-x,1/2+y,1/2-z
5 -x,-y,-z
6 1/2-x,1/2-y,-z
7 x,-y,1/2+z
8 1/2+x,1/2-y,1/2+z
_cell_length_a                   25.181(2)
_cell_length_b                   5.7808(5)
_cell_length_c                   18.8184(17)
_cell_angle_alpha                90
_cell_angle_beta                 124.0510(10)
_cell_angle_gamma                90
_cell_volume                     2269.64
loop_
_atom_site_label
_atom_site_type_symbol
_atom_site_fract_x
_atom_site_fract_y
_atom_site_fract_z
Tb1 Tb 0.866221(11) 0.15902(4) 0.885823(15)
S1 S 0.69250(7) -0.0027(2) 0.93790(9)
S2 S 1.0000 0.1897(3) 0.7500
O1 O 0.76819(17) 0.0471(7) 0.8605(2)
O2 O 0.70684(19) -0.1897(7) 0.7505(2)
O3 O 0.6516(2) 0.0236(7) 1.0579(3)
O4 O 0.6069(2) -0.3261(6) 1.0301(3)
O5 O 0.92718(19) 0.4680(7) 0.8661(3)
O6 O 0.94328(18) 0.1071(6) 0.8484(3)
C1 C 0.7249(3) -0.1017(9) 0.8226(3)
C2 C 0.6930(3) -0.1784(9) 0.8650(3)
C3 C 0.6648(3) -0.3896(10) 0.8579(4)
H1 H 0.6607 -0.5072 0.8213
C4 C 0.6432(3) -0.4068(10) 0.9118(4)
H2 H 0.6239 -0.5386 0.9161
C5 C 0.6533(2) -0.2096(9) 0.9575(3)
C6 C 0.6358(2) -0.1668(9) 1.0196(3)
C7 C 0.9482(3) 0.3227(9) 0.8390(4)
C8 C 0.9768(3) 0.3944(10) 0.7921(4)
C9 C 0.9861(4) 0.6121(11) 0.7730(5)
H3 H 0.9751 0.7460 0.7892
O7 O 0.8357(2) -0.1668(6) 0.7914(3)
H4 H 0.7952 -0.2294 0.7604
H5 H 0.8536 -0.2934 0.8070
O8 O 0.9673(2) 0.2059(7) 1.0223(3)
H6 H 0.9835 0.0647 1.0528
H7 H 0.9911 0.3224 1.0386
Tb1C Tb 0.633779(11) 0.65902(4) 0.614177(15)
Tb1C_2 Tb 0.633779(11) -0.34098(4) 0.614177(15)
Tb1E Tb 0.633779(11) 0.34098(4) 1.114177(15)
Tb1E_2 Tb 0.633779(11) -0.65902(4) 1.114177(15)
Tb1B Tb 1.133779(11) 0.15902(4) 0.614177(15)
Tb1F Tb 0.866221(11) 0.84098(4) 0.385823(15)
Tb1F_2 Tb 0.866221(11) -0.15902(4) 0.385823(15)
S1C S 0.80750(7) 0.4973(2) 0.56210(9)
O1C O 0.73181(17) 0.5471(7) 0.6395(2)
O2C O 0.79316(19) 0.3103(7) 0.7495(2)
O2_2 O 0.70684(19) 0.8103(7) 0.7505(2)
O3C O 0.8484(2) 0.5236(7) 0.4421(3)
O3E O 0.8484(2) 0.4764(7) 0.9421(3)
O3F O 0.6516(2) 0.9764(7) 0.5579(3)
O4C O 0.8931(2) 0.1739(6) 0.4699(3)
O4E O 0.8931(2) -0.1739(6) 0.9699(3)
O4F O 0.6069(2) 0.3261(6) 0.5301(3)
O5B O 1.07282(19) 0.4680(7) 0.6339(3)
O5C O 0.57282(19) 0.9680(7) 0.6339(3)
O6B O 1.05672(18) 0.1071(6) 0.6516(3)
O6C O 0.55672(18) 0.6071(6) 0.6516(3)
C1C C 0.7751(3) 0.3983(9) 0.6774(3)
C2C C 0.8070(3) 0.3216(9) 0.6350(3)
C3C C 0.8352(3) 0.1104(10) 0.6421(4)
H1C H 0.8393 -0.0072 0.6787
C4C C 0.8568(3) 0.0932(10) 0.5882(4)
H2C H 0.8761 -0.0386 0.5839
C5C C 0.8467(2) 0.2904(9) 0.5425(3)
C6C C 0.8642(2) 0.3332(9) 0.4804(3)
C7B C 1.0518(3) 0.3227(9) 0.6610(4)
C8B C 1.0232(3) 0.3944(10) 0.7079(4)
C9B C 1.0139(4) 0.6121(11) 0.7270(5)
H3B H 1.0249 0.7460 0.7108
O7C O 0.6643(2) 0.3332(6) 0.7086(3)
H4C H 0.7048 0.2706 0.7396
H5C H 0.6464 0.2066 0.6930
O8C O 0.5327(2) 0.7059(7) 0.4777(3)
H6C H 0.5165 0.5647 0.4472
H7C H 0.5089 0.8224 0.4614
loop_
_geom_bond_atom_site_label_1
_geom_bond_atom_site_label_2
_geom_bond_site_symmetry_1
_geom_bond_site_symmetry_2
Tb1 O1 1_555 1_555
S1 C2 1_555 1_555
S2 C8 1_555 1_555
O1 C1 1_555 1_555
O2 C1 1_555 1_555
O3 C6 1_555 1_555
O4 C6 1_555 1_555
O5 Tb1 1_555 1_555
O6 Tb1 1_555 1_555
C1 C2 1_555 1_555
C2 C3 1_555 1_555
C3 H1 1_555 1_555
C4 C3 1_555 1_555
H2 C4 1_555 1_555
C5 S1 1_555 1_555
C6 C5 1_555 1_555
C7 O5 1_555 1_555
C8 C7 1_555 1_555
C9 C8 1_555 1_555
H3 C9 1_555 1_555
O7 Tb1 1_555 1_555
H4 O7 1_555 1_555
H5 O7 1_555 1_555
O8 Tb1 1_555 1_555
H6 O8 1_555 1_555
H7 O8 1_555 1_555
Tb1C O1C 1_555 1_555
Tb1C_2 O2 1_555 1_555
Tb1E O3 1_555 1_555
Tb1E_2 O4 1_555 1_555
Tb1B O5B 1_555 1_555
Tb1F O3C 1_555 1_555
Tb1F_2 O4C 1_555 1_555
S1C C2C 1_555 1_555
O1C C1C 1_555 1_555
O2C Tb1 1_555 1_555
O2_2 Tb1C 1_555 1_555
O3C C6C 1_555 1_555
O3E Tb1 1_555 1_555
O3F Tb1C 1_555 1_555
O4C C6C 1_555 1_555
O4E Tb1 1_555 1_555
O4F Tb1C 1_555 1_555
O5B C7B 1_555 1_555
O5C Tb1C 1_555 1_555
O6B Tb1B 1_555 1_555
O6C Tb1C 1_555 1_555
C1C O2C 1_555 1_555
C2C C1C 1_555 1_555
C3C C2C 1_555 1_555
H1C C3C 1_555 1_555
C4C C3C 1_555 1_555
H2C C4C 1_555 1_555
C5C S1C 1_555 1_555
C6C C5C 1_555 1_555
C7B O6B 1_555 1_555
C8B S2 1_555 1_555
C9B C9 1_555 1_555
H3B C9B 1_555 1_555
O7C Tb1C 1_555 1_555
H4C O7C 1_555 1_555
H5C O7C 1_555 1_555
O8C Tb1C 1_555 1_555
H6C O8C 1_555 1_555
H7C O8C 1_555 1_555
O6 C7 1_555 1_555
C4 C5 1_555 1_555
C4C C5C 1_555 1_555
C7B C8B 1_555 1_555
C8B C9B 1_555 1_555

#END
