
#######################################################################
#
#                 Cambridge Crystallographic Data Centre
#                                CCDC 
#
#######################################################################
#
# If this CIF has been generated from an entry in the Cambridge 
# Structural Database, then it will include bibliographic, chemical, 
# crystal, experimental, refinement or atomic coordinate data resulting 
# from the CCDC's data processing and validation procedures.
#
#######################################################################

data_HOXKUC
_symmetry_cell_setting           monoclinic
_symmetry_space_group_name_H-M   'P 21/c'
_symmetry_Int_Tables_number      14
_space_group_name_Hall           '-P 2ybc'
loop_
_symmetry_equiv_pos_site_id
_symmetry_equiv_pos_as_xyz
1 x,y,z
2 -x,1/2+y,1/2-z
3 -x,-y,-z
4 x,1/2-y,1/2+z
_cell_length_a                   7.5693(15)
_cell_length_b                   25.062(5)
_cell_length_c                   22.116(4)
_cell_angle_alpha                90
_cell_angle_beta                 94.30(3)
_cell_angle_gamma                90
_cell_volume                     4183.64
loop_
_atom_site_label
_atom_site_type_symbol
_atom_site_fract_x
_atom_site_fract_y
_atom_site_fract_z
K1 K 1.01391(9) 0.32919(3) 0.55578(3)
K2 K 0.97584(9) 0.16945(3) 0.46498(3)
K3 K 0.51477(9) 0.42050(3) 0.55124(3)
B1 B 0.4737(5) 0.27406(13) 0.40749(16)
C1 C 0.2787(4) 0.27059(12) 0.43118(14)
N1 N 0.1379(4) 0.26847(11) 0.44644(13)
C2 C 0.5936(4) 0.30965(12) 0.45386(14)
N2 N 0.6806(4) 0.33550(11) 0.48601(13)
C3 C 0.5550(4) 0.21494(13) 0.40899(14)
N3 N 0.6155(4) 0.17320(11) 0.40927(13)
C4 C 0.4676(4) 0.29810(13) 0.33923(14)
H1 H 0.5874 0.3003 0.3266
H2 H 0.4014 0.2739 0.3118
C5 C 0.3823(5) 0.35335(14) 0.33440(16)
H3 H 0.3849 0.3663 0.2936
H4 H 0.4466 0.3774 0.3617
H5 H 0.2616 0.3510 0.3448
B2 B 0.5226(5) 0.21929(14) 0.60696(16)
C6 C 0.4423(4) 0.27835(13) 0.60417(14)
N4 N 0.3831(4) 0.32020(11) 0.60188(13)
C7 C 0.4007(4) 0.18355(12) 0.56094(14)
N5 N 0.3108(4) 0.15767(11) 0.52942(13)
C8 C 0.7175(4) 0.22182(12) 0.58253(14)
N6 N 0.8570(4) 0.22350(11) 0.56662(14)
C9 C 0.5291(4) 0.19417(13) 0.67404(14)
H6 H 0.5954 0.2179 0.7019
H7 H 0.4093 0.1918 0.6867
C10 C 0.6137(5) 0.13887(14) 0.67811(16)
H8 H 0.5492 0.1152 0.6504
H9 H 0.6107 0.1255 0.7187
H10 H 0.7344 0.1412 0.6678
B3 B 0.0263(5) 0.53237(14) 0.59602(16)
C11 C 0.2200(5) 0.52846(12) 0.57165(14)
N7 N 0.3600(4) 0.52618(11) 0.55581(13)
C12 C -0.0560(4) 0.47338(13) 0.59612(14)
N8 N -0.1174(4) 0.43164(11) 0.59686(13)
C13 C -0.0958(4) 0.56721(12) 0.54842(14)
N9 N -0.1834(4) 0.59270(11) 0.51591(13)
C14 C 0.0320(4) 0.55925(12) 0.66242(14)
H11 H -0.0879 0.5618 0.6749
H12 H 0.0988 0.5363 0.6911
C15 C 0.1152(5) 0.61453(14) 0.66466(16)
H13 H 0.2356 0.6121 0.6541
H14 H 0.1128 0.6288 0.7049
H15 H 0.0496 0.6375 0.6364
O1 O 0.4806(5) 0.43875(14) 0.67427(15)
C16 C 0.3625(9) 0.4145(2) 0.7127(3)
H16 H 0.3722 0.3760 0.7102
H17 H 0.2416 0.4245 0.6999
C17 C 0.4067(14) 0.4322(4) 0.7759(4)
H18 H 0.3001 0.4390 0.7964
H19 H 0.4772 0.4056 0.7985
C18 C 0.5019(11) 0.4785(4) 0.7702(4)
H20 H 0.6038 0.4789 0.7995
H21 H 0.4286 0.5092 0.7775
C19 C 0.5607(9) 0.4805(2) 0.7079(3)
H22 H 0.5274 0.5144 0.6891
H23 H 0.6886 0.4771 0.7090
O2 O 0.9833(5) 0.31420(13) 0.67925(13)
C20 C 1.0632(9) 0.2734(2) 0.7150(2)
H24 H 1.1909 0.2776 0.7173
H25 H 1.0340 0.2390 0.6968
C21 C 0.9999(11) 0.2759(4) 0.7760(4)
H26 H 0.9318 0.2443 0.7842
H27 H 1.0988 0.2786 0.8064
C22 C 0.8942(12) 0.3212(3) 0.7767(3)
H28 H 0.9530 0.3484 0.8020
H29 H 0.7824 0.3126 0.7931
C23 C 0.8625(8) 0.3409(2) 0.7143(2)
H30 H 0.7417 0.3333 0.6989
H31 H 0.8813 0.3791 0.7129
K4 K 1.52424(10) -0.07935(3) 0.53812(4)
B4 B 1.0247(5) 0.02215(14) 0.60378(16)
C24 C 1.2191(5) 0.01973(12) 0.57997(14)
N10 N 1.3589(4) 0.01851(11) 0.56406(13)
C25 C 0.9036(4) 0.05846(12) 0.55783(14)
N11 N 0.8132(4) 0.08438(12) 0.52620(13)
C26 C 0.9441(4) -0.03719(13) 0.59954(14)
N12 N 0.8838(4) -0.07906(11) 0.59680(13)
C27 C 1.0276(4) 0.04544(13) 0.67180(14)
H32 H 1.0928 0.0210 0.6992
H33 H 0.9071 0.0475 0.6838
C28 C 1.1124(5) 0.10069(14) 0.67782(16)
H34 H 1.1036 0.1138 0.7183
H35 H 1.2349 0.0983 0.6696
H36 H 1.0520 0.1246 0.6494
K1_2 K 0.01391(9) 0.32919(3) 0.55578(3)
K1B K -0.01391(9) 0.67081(3) 0.44422(3)
K2_2 K -0.02416(9) 0.16945(3) 0.46498(3)
K2B K 1.02416(9) -0.16945(3) 0.53502(3)
K3_2 K -0.48523(9) 0.42050(3) 0.55124(3)
K3B K -0.51477(9) 0.57950(3) 0.44876(3)
K3B_2 K 0.48523(9) 0.57950(3) 0.44876(3)
N1_2 N 1.1379(4) 0.26847(11) 0.44644(13)
N3B N 1.3845(4) -0.17320(11) 0.59073(13)
N4_2 N 1.3831(4) 0.32020(11) 0.60188(13)
N5_2 N 1.3108(4) 0.15767(11) 0.52942(13)
N5B N 1.6892(4) -0.15767(11) 0.47058(13)
N7B N 0.6400(4) 0.47382(11) 0.44419(13)
N8_2 N 0.8826(4) 0.43164(11) 0.59686(13)
N9B N 0.1834(4) 0.40730(11) 0.48409(13)
N9B_2 N 1.1834(4) 0.40730(11) 0.48409(13)
K4_2 K 0.52424(10) -0.07935(3) 0.53812(4)
K4B K 0.47576(10) 0.07935(3) 0.46188(4)
K4B_2 K 1.47576(10) 0.07935(3) 0.46188(4)
N10B N 1.6411(4) -0.01851(11) 0.43594(13)
N11B N 1.1868(4) -0.08438(12) 0.47380(13)
N12_2 N 1.8838(4) -0.07906(11) 0.59680(13)
N12B N 1.1162(4) 0.07906(11) 0.40320(13)
loop_
_geom_bond_atom_site_label_1
_geom_bond_atom_site_label_2
_geom_bond_site_symmetry_1
_geom_bond_site_symmetry_2
K1 N2 1_555 1_555
K2 N3 1_555 1_555
K3 N2 1_555 1_555
B1 C1 1_555 1_555
C1 N1 1_555 1_555
N1 K1_2 1_555 1_555
C2 B1 1_555 1_555
N2 C2 1_555 1_555
C3 B1 1_555 1_555
N3 C3 1_555 1_555
C4 B1 1_555 1_555
H1 C4 1_555 1_555
H2 C4 1_555 1_555
C5 C4 1_555 1_555
H3 C5 1_555 1_555
H4 C5 1_555 1_555
H5 C5 1_555 1_555
B2 C6 1_555 1_555
C6 N4 1_555 1_555
N4 K3 1_555 1_555
C7 B2 1_555 1_555
N5 C7 1_555 1_555
C8 B2 1_555 1_555
N6 K1 1_555 1_555
C9 B2 1_555 1_555
H6 C9 1_555 1_555
H7 C9 1_555 1_555
C10 C9 1_555 1_555
H8 C10 1_555 1_555
H9 C10 1_555 1_555
H10 C10 1_555 1_555
B3 C11 1_555 1_555
C11 N7 1_555 1_555
N7 K3 1_555 1_555
C12 B3 1_555 1_555
N8 C12 1_555 1_555
C13 B3 1_555 1_555
N9 C13 1_555 1_555
C14 B3 1_555 1_555
H11 C14 1_555 1_555
H12 C14 1_555 1_555
C15 C14 1_555 1_555
H13 C15 1_555 1_555
H14 C15 1_555 1_555
H15 C15 1_555 1_555
O1 K3 1_555 1_555
C16 O1 1_555 1_555
H16 C16 1_555 1_555
H17 C16 1_555 1_555
C17 C16 1_555 1_555
H18 C17 1_555 1_555
H19 C17 1_555 1_555
C18 C17 1_555 1_555
H20 C18 1_555 1_555
H21 C18 1_555 1_555
C19 O1 1_555 1_555
H22 C19 1_555 1_555
H23 C19 1_555 1_555
O2 K1 1_555 1_555
C20 O2 1_555 1_555
H24 C20 1_555 1_555
H25 C20 1_555 1_555
C21 C20 1_555 1_555
H26 C21 1_555 1_555
H27 C21 1_555 1_555
C22 C21 1_555 1_555
H28 C22 1_555 1_555
H29 C22 1_555 1_555
C23 O2 1_555 1_555
H30 C23 1_555 1_555
H31 C23 1_555 1_555
K4 N10 1_555 1_555
B4 C24 1_555 1_555
C24 N10 1_555 1_555
N10 K4B_2 1_555 1_555
C25 B4 1_555 1_555
N11 K2 1_555 1_555
C26 B4 1_555 1_555
N12 C26 1_555 1_555
C27 B4 1_555 1_555
H32 C27 1_555 1_555
H33 C27 1_555 1_555
C28 C27 1_555 1_555
H34 C28 1_555 1_555
H35 C28 1_555 1_555
H36 C28 1_555 1_555
K1_2 N4 1_555 1_555
K1B N9 1_555 1_555
K2_2 N1 1_555 1_555
K2B N12 1_555 1_555
K3_2 N8 1_555 1_555
K3B N9 1_555 1_555
K3B_2 N7 1_555 1_555
N1_2 K1 1_555 1_555
N3B K4 1_555 1_555
N4_2 K1 1_555 1_555
N5_2 K2 1_555 1_555
N5B K4 1_555 1_555
N7B K3 1_555 1_555
N8_2 K1 1_555 1_555
N9B K3 1_555 1_555
N9B_2 K1 1_555 1_555
K4_2 N12 1_555 1_555
K4B N3 1_555 1_555
K4B_2 N5_2 1_555 1_555
N10B K4 1_555 1_555
N11B K4 1_555 1_555
N12_2 K4 1_555 1_555
N12B K2 1_555 1_555
K2 N6 1_555 1_555
K2 N1_2 1_555 1_555
K3 N8_2 1_555 1_555
N5 K2_2 1_555 1_555
N5 K4B 1_555 1_555
C8 N6 1_555 1_555
N8 K1_2 1_555 1_555
C18 C19 1_555 1_555
C22 C23 1_555 1_555
C25 N11 1_555 1_555
N11 K4B 1_555 1_555
K1_2 N9B 1_555 1_555
K2B N3B 1_555 1_555
K2B N11B 1_555 1_555
K3B_2 N7B 1_555 1_555
K4B_2 N10B 1_555 1_555
K4B_2 N12B 1_555 1_555

#END
