
#######################################################################
#
#                 Cambridge Crystallographic Data Centre
#                                CCDC 
#
#######################################################################
#
# If this CIF has been generated from an entry in the Cambridge 
# Structural Database, then it will include bibliographic, chemical, 
# crystal, experimental, refinement or atomic coordinate data resulting 
# from the CCDC's data processing and validation procedures.
#
#######################################################################

data_HOXLUC
_symmetry_cell_setting           triclinic
_symmetry_space_group_name_H-M   'P -1'
_symmetry_Int_Tables_number      2
_space_group_name_Hall           '-P 1'
loop_
_symmetry_equiv_pos_site_id
_symmetry_equiv_pos_as_xyz
1 x,y,z
2 -x,-y,-z
_cell_length_a                   13.7598(8)
_cell_length_b                   14.4813(10)
_cell_length_c                   14.6317(10)
_cell_angle_alpha                104.327(4)
_cell_angle_beta                 90.613(4)
_cell_angle_gamma                95.779(2)
_cell_volume                     2808.56
loop_
_atom_site_label
_atom_site_type_symbol
_atom_site_fract_x
_atom_site_fract_y
_atom_site_fract_z
Cu1 Cu 0.96480(3) 0.69870(3) 0.32144(3)
Cu2 Cu 0.80546(3) 0.69151(3) 0.10946(3)
Cu3 Cu 0.58054(3) 0.67656(3) 0.24447(3)
Cu4 Cu 0.72583(3) 0.68646(3) 0.42822(3)
S1 S 1.04137(6) 0.55664(6) 0.28814(6)
S2 S 0.79207(6) 0.54791(6) -0.01290(6)
S3 S 0.46277(6) 0.51892(6) 0.19859(6)
S4 S 0.71553(6) 0.55413(6) 0.50216(6)
S5 S 0.93580(7) 0.25201(6) 0.43855(6)
S6 S 0.98244(6) 0.23681(6) -0.00409(6)
S7 S 0.53280(6) 0.22836(6) -0.10428(6)
S8 S 0.44264(6) 0.24141(6) 0.39427(6)
S9 S 0.80721(6) 0.83464(6) 0.31704(6)
O1 O 0.86572(17) 0.63051(17) 0.38219(18)
O2 O 0.8571(2) 0.1878(2) 0.3831(2)
O3 O 0.9306(2) 0.2557(2) 0.53813(19)
O4 O 1.0314(2) 0.2323(2) 0.3996(2)
O5 O 0.89788(18) 0.63369(17) 0.17193(17)
O6 O 0.9570(2) 0.1823(2) 0.0652(2)
O7 O 1.0862(2) 0.2384(2) -0.0214(2)
O8 O 0.9205(2) 0.20645(19) -0.0894(2)
O9 O 0.65997(17) 0.60882(17) 0.14868(17)
O10 O 0.6138(2) 0.2026(2) -0.1634(2)
O11 O 0.44452(18) 0.23726(18) -0.16008(18)
O12 O 0.5047(2) 0.1654(2) -0.0444(2)
O13 O 0.63097(17) 0.60626(17) 0.33724(17)
O14 O 0.3530(2) 0.2165(2) 0.33595(19)
O15 O 0.4219(2) 0.2582(2) 0.49463(18)
O16 O 0.5147(2) 0.1747(2) 0.3671(2)
O17 O 0.72314(18) 0.77237(19) 0.34073(19)
O18 O 0.89769(18) 0.81437(17) 0.36068(19)
O19 O 0.8136(2) 0.81135(19) 0.21325(19)
O20 O 0.7942(2) 0.93496(19) 0.3525(2)
O21 O 1.06958(18) 0.7701(2) 0.26843(19)
O22 O 0.7150(2) 0.7507(2) 0.0428(2)
O23 O 0.49968(19) 0.7488(2) 0.33894(18)
O24 O 0.79080(18) 0.78325(18) 0.53527(18)
C1 C 0.8818(2) 0.5472(2) 0.3966(2)
C2 C 0.8193(2) 0.4992(2) 0.4505(2)
C3 C 0.8374(2) 0.4118(3) 0.4649(2)
H1 H 0.7944 0.3815 0.5017
C4 C 0.9183(2) 0.3674(2) 0.4259(2)
C5 C 0.9818(2) 0.4134(2) 0.3745(2)
H2 H 1.0380 0.3846 0.3493
C6 C 0.9639(2) 0.5010(2) 0.3598(2)
C7 C 0.9194(2) 0.5466(2) 0.1320(2)
C8 C 0.9855(2) 0.4995(2) 0.1748(2)
C9 C 1.0053(2) 0.4068(2) 0.1329(2)
H3 H 1.0499 0.3771 0.1633
C10 C 0.9605(2) 0.3569(2) 0.0469(2)
C11 C 0.8969(2) 0.4012(2) 0.0021(2)
H4 H 0.8667 0.3680 -0.0572
C12 C 0.8774(2) 0.4932(2) 0.0435(2)
C13 C 0.6283(2) 0.5263(2) 0.0920(2)
C14 C 0.6810(2) 0.4862(2) 0.0124(2)
C15 C 0.6514(2) 0.3967(2) -0.0477(2)
H5 H 0.6887 0.3722 -0.1009
C16 C 0.5677(2) 0.3434(2) -0.0301(2)
C17 C 0.5117(2) 0.3816(2) 0.0468(2)
H6 H 0.4538 0.3457 0.0588
C18 C 0.5404(2) 0.4711(2) 0.1053(2)
C19 C 0.5868(2) 0.5260(2) 0.3510(2)
C20 C 0.5070(2) 0.4749(2) 0.2926(2)
C21 C 0.4619(2) 0.3893(3) 0.3068(2)
H7 H 0.4083 0.3556 0.2667
C22 C 0.4948(3) 0.3529(2) 0.3792(2)
C23 C 0.5726(2) 0.4028(3) 0.4395(2)
H8 H 0.5943 0.3790 0.4902
C24 C 0.61741(8) 0.48707(8) 0.42425(8)
H9 H 1.0677 0.7765 0.2033
H10 H 1.1224 0.7785 0.2837
H11 H 0.6689 0.7621 0.0745
H12 H 0.6994 0.7630 -0.0115
H13 H 0.4510 0.7766 0.3492
H14 H 0.5178 0.7425 0.3931
H15 H 0.8456 0.7658 0.5474
H16 H 0.7558 0.7756 0.5781
Cu1A Cu 1.03520(3) 0.30130(3) 0.67856(3)
Cu2A Cu 1.19454(3) 0.30849(3) -0.10946(3)
Cu3A Cu 0.41946(3) 0.32344(3) -0.24447(3)
Cu4A Cu 0.27417(3) 0.31354(3) 0.57178(3)
O3A O 1.0694(2) 0.7443(2) 0.46187(19)
O7A O 0.9138(2) 0.7616(2) 0.0214(2)
O11A O 0.55548(18) 0.76274(18) 0.16008(18)
O15A O 0.5781(2) 0.7418(2) 0.50537(18)
O25 O 1.10503(8) 0.23522(8) 0.21662(8)
O26 O 0.68533(8) 0.19412(8) 0.48901(8)
N1 N 0.10263(8) 0.00392(8) 0.32071(8)
C25 C 0.17833(8) -0.00026(8) 0.14941(8)
C26 C 0.18183(8) 0.03632(8) -0.01048(8)
H17 H 0.1250 0.0686 0.0039
C27 C 0.21873(8) -0.00367(8) 0.05511(8)
N2 N 0.29753(8) -0.01697(8) -0.11979(8)
C28 C 0.22003(8) 0.03283(8) -0.09209(8)
H18 H 0.1930 0.0659 -0.1332
C29 C 0.23893(8) -0.00148(8) 0.22401(8)
H19 H 0.3074 -0.0019 0.2164
C30 C 0.04303(8) 0.01172(8) 0.25401(8)
H20 H -0.0241 0.0185 0.2653
C31 C 0.07943(8) 0.00992(8) 0.16781(8)
H21 H 0.0368 0.0157 0.1185
C32 C 0.20003(8) -0.00206(8) 0.30911(8)
H22 H 0.2408 -0.0066 0.3603
C33 C 0.06243(8) 0.00123(8) 0.41270(8)
H23 H 0.0351 0.0616 0.4400
H24 H 0.1145 -0.0074 0.4551
H25 H 0.0108 -0.0523 0.4044
C34 C 0.29319(8) -0.05361(8) 0.02433(8)
H26 H 0.3172 -0.0890 0.0648
C35 C 0.33859(8) -0.05941(8) -0.05865(8)
H27 H 0.3957 -0.0913 -0.0728
C36 C 0.34639(8) -0.01821(8) -0.21186(8)
H28 H 0.4103 -0.0424 -0.2106
H29 H 0.3552 0.0470 -0.2208
H30 H 0.3054 -0.0600 -0.2640
O27 O 1.25733(8) 0.76623(8) 0.31071(8)
O28 O 0.45723(8) 0.15754(8) 0.14591(8)
O29 O 0.70949(8) 0.74760(8) -0.13626(8)
O30 O 0.48929(8) 0.93859(8) 0.36924(8)
O31 O 0.66529(8) 0.99820(8) 0.49654(8)
O32 O 0.80789(8) 0.20408(8) 0.19684(8)
O33 O 0.64508(8) 0.27516(8) 0.18627(8)
O34? O 0.73598(8) 0.33647(8) 0.20167(8)
loop_
_geom_bond_atom_site_label_1
_geom_bond_atom_site_label_2
_geom_bond_site_symmetry_1
_geom_bond_site_symmetry_2
Cu1 S1 1_555 1_555
Cu2 S2 1_555 1_555
Cu3 S3 1_555 1_555
Cu4 S4 1_555 1_555
S1 C6 1_555 1_555
S2 C12 1_555 1_555
S3 C18 1_555 1_555
S4 C2 1_555 1_555
S5 O2 1_555 1_555
S6 O6 1_555 1_555
S7 O10 1_555 1_555
S8 O14 1_555 1_555
S9 O17 1_555 1_555
O1 Cu1 1_555 1_555
O3 S5 1_555 1_555
O4 S5 1_555 1_555
O5 Cu1 1_555 1_555
O7 S6 1_555 1_555
O8 S6 1_555 1_555
O9 Cu2 1_555 1_555
O11 S7 1_555 1_555
O12 S7 1_555 1_555
O13 Cu3 1_555 1_555
O15 S8 1_555 1_555
O16 S8 1_555 1_555
O17 Cu3 1_555 1_555
O18 Cu1 1_555 1_555
O19 Cu2 1_555 1_555
O20 S9 1_555 1_555
O21 Cu1 1_555 1_555
O22 Cu2 1_555 1_555
O23 Cu3 1_555 1_555
O24 Cu4 1_555 1_555
C1 O1 1_555 1_555
C2 C1 1_555 1_555
C3 C2 1_555 1_555
H1 C3 1_555 1_555
C4 S5 1_555 1_555
C5 C4 1_555 1_555
H2 C5 1_555 1_555
C6 C1 1_555 1_555
C7 O5 1_555 1_555
C8 S1 1_555 1_555
C9 C8 1_555 1_555
H3 C9 1_555 1_555
C10 S6 1_555 1_555
C11 C10 1_555 1_555
H4 C11 1_555 1_555
C12 C7 1_555 1_555
C13 O9 1_555 1_555
C14 S2 1_555 1_555
C15 C14 1_555 1_555
H5 C15 1_555 1_555
C16 S7 1_555 1_555
C17 C16 1_555 1_555
H6 C17 1_555 1_555
C18 C13 1_555 1_555
C19 O13 1_555 1_555
C20 S3 1_555 1_555
C21 C20 1_555 1_555
H7 C21 1_555 1_555
C22 S8 1_555 1_555
C23 C22 1_555 1_555
H8 C23 1_555 1_555
C24 S4 1_555 1_555
H9 O21 1_555 1_555
H10 O21 1_555 1_555
H11 O22 1_555 1_555
H12 O22 1_555 1_555
H13 O23 1_555 1_555
H14 O23 1_555 1_555
H15 O24 1_555 1_555
H16 O24 1_555 1_555
N1 C30 1_555 1_555
C25 C27 1_555 1_555
C26 H17 1_555 1_555
C27 C26 1_555 1_555
N2 C28 1_555 1_555
C28 C26 1_555 1_555
H18 C28 1_555 1_555
C29 C25 1_555 1_555
H19 C29 1_555 1_555
C30 H20 1_555 1_555
C31 C25 1_555 1_555
H21 C31 1_555 1_555
C32 N1 1_555 1_555
H22 C32 1_555 1_555
C33 N1 1_555 1_555
H23 C33 1_555 1_555
H24 C33 1_555 1_555
H25 C33 1_555 1_555
C34 C27 1_555 1_555
H26 C34 1_555 1_555
C35 N2 1_555 1_555
H27 C35 1_555 1_555
C36 N2 1_555 1_555
H28 C36 1_555 1_555
H29 C36 1_555 1_555
H30 C36 1_555 1_555
Cu1A O3 1_555 1_555
Cu2A O7 1_555 1_555
Cu3A O11 1_555 1_555
Cu4A O15 1_555 1_555
O3A Cu1 1_555 1_555
O7A Cu2 1_555 1_555
O11A Cu3 1_555 1_555
O15A Cu4 1_555 1_555
Cu2 O5 1_555 1_555
Cu3 O9 1_555 1_555
Cu4 O1 1_555 1_555
Cu4 O13 1_555 1_555
Cu4 O17 1_555 1_555
S9 O18 1_555 1_555
S9 O19 1_555 1_555
C3 C4 1_555 1_555
C5 C6 1_555 1_555
C7 C8 1_555 1_555
C9 C10 1_555 1_555
C11 C12 1_555 1_555
C13 C14 1_555 1_555
C15 C16 1_555 1_555
C17 C18 1_555 1_555
C19 C20 1_555 1_555
C19 C24 1_555 1_555
C21 C22 1_555 1_555
C23 C24 1_555 1_555
C29 C32 1_555 1_555
C30 C31 1_555 1_555
C34 C35 1_555 1_555

#END
