
#######################################################################
#
#                 Cambridge Crystallographic Data Centre
#                                CCDC 
#
#######################################################################
#
# If this CIF has been generated from an entry in the Cambridge 
# Structural Database, then it will include bibliographic, chemical, 
# crystal, experimental, refinement or atomic coordinate data resulting 
# from the CCDC's data processing and validation procedures.
#
#######################################################################

data_HOXLOV
_symmetry_cell_setting           monoclinic
_symmetry_space_group_name_H-M   'P 21/c'
_symmetry_Int_Tables_number      14
_space_group_name_Hall           '-P 2ybc'
loop_
_symmetry_equiv_pos_site_id
_symmetry_equiv_pos_as_xyz
1 x,y,z
2 x,1/2-y,1/2+z
3 -x,-y,-z
4 -x,1/2+y,1/2-z
_cell_length_a                   11.9337(15)
_cell_length_b                   20.108(6)
_cell_length_c                   12.748(6)
_cell_angle_alpha                90
_cell_angle_beta                 92.247(14)
_cell_angle_gamma                90
_cell_volume                     3056.69
loop_
_atom_site_label
_atom_site_type_symbol
_atom_site_fract_x
_atom_site_fract_y
_atom_site_fract_z
Cu1 Cu -0.74945(4) 0.05271(2) 0.24589(3)
O1 O -0.7473(3) 0.17510(18) 0.2413(3)
N1 N -0.7610(3) -0.0663(2) 0.2531(3)
C1 C -0.8031(5) -0.1109(3) 0.2900(4)
C2 C -0.8585(6) -0.1679(4) 0.3373(6)
H1 H -0.9351 -0.1720 0.3073
H2 H -0.8611 -0.1613 0.4134
H3 H -0.8165 -0.2086 0.3230
N2 N -0.0920(3) 0.07467(18) 0.1969(3)
N3 N -0.0760(3) 0.02915(18) 0.1196(3)
C5 C 0.0325(3) 0.0191(2) 0.1269(3)
N4 N 0.0868(3) 0.05563(17) 0.2020(2)
C6 C 0.0054(3) 0.0896(2) 0.2450(3)
N5 N -0.4219(3) 0.08677(18) 0.3417(3)
N6 N -0.4267(3) 0.0234(2) 0.3792(3)
C7 C -0.5273(3) 0.0041(2) 0.3472(4)
N7 N -0.5867(3) 0.05156(18) 0.2926(2)
C8 C -0.5168(3) 0.1022(2) 0.2908(3)
C9 C -0.3280(3) 0.1307(2) 0.3696(4)
C10 C -0.2162(3) 0.1025(2) 0.3380(3)
C11 C -0.2042(3) 0.0996(2) 0.2208(3)
N8 N -0.7961(3) 0.09621(17) 0.5579(2)
N9 N -0.8788(3) 0.04990(18) 0.5485(3)
C12 C -0.8721(3) 0.0298(2) 0.4507(3)
N10 N -0.7904(3) 0.06102(17) 0.3976(2)
C13 C -0.7442(3) 0.1024(2) 0.4679(3)
C14 C -0.6989(4) 0.1258(2) 0.8380(3)
C15 C -0.7580(4) 0.0882(2) 0.7481(3)
C16 C -0.7754(4) 0.1337(2) 0.6544(3)
N11 N -0.6929(3) 0.08651(18) 0.9342(2)
N12 N -0.6351(3) 0.0280(2) 0.9402(3)
C17 C -0.6466(4) 0.0100(2) 1.0384(3)
N13 N -0.7088(3) 0.05286(17) 1.0943(2)
C18 C -0.7354(3) 0.1005(2) 1.0258(3)
H4 H -0.706(5) 0.193(3) 0.224(5)
H5 H -0.793(5) 0.193(3) 0.261(5)
H6 H 0.0651 -0.0102 0.0821
H7 H 0.0161 0.1170 0.3084
H8 H -0.5526 -0.0390 0.3606
H9 H -0.5204 0.1441 0.2616
H10 H -0.3422 0.1734 0.3397
H11 H -0.3333 0.1426 0.4448
H12 H -0.2069 0.0573 0.3628
H13 H -0.1532 0.1339 0.3639
H14 H -0.2628 0.0784 0.1782
H15 H -0.2003 0.1392 0.1817
H16 H -0.9165 -0.0029 0.4202
H17 H -0.6923 0.1362 0.4576
H18 H -0.7349 0.1600 0.8487
H19 H -0.6150 0.1354 0.8172
H20 H -0.8352 0.0692 0.7684
H21 H -0.7161 0.0531 0.7285
H22 H -0.8281 0.1655 0.6598
H23 H -0.7211 0.1636 0.6437
H24 H -0.6270 -0.0321 1.0599
H25 H -0.7789 0.1356 1.0402
Cu1_2 Cu 0.25055(4) 0.05271(2) 0.24589(3)
N4_2 N -0.9132(3) 0.05563(17) 0.2020(2)
Cu1_3 Cu -0.74945(4) 0.05271(2) 1.24589(3)
N13_2 N -0.7088(3) 0.05286(17) 0.0943(2)
S1 S 0.53284(12) 0.26930(7) 0.12780(11)
O2 O 0.4306(4) 0.2509(2) 0.1731(5)
O3 O 0.5351(4) 0.3358(2) 0.0885(4)
O4 O 0.6302(4) 0.2474(3) 0.1879(4)
C3 C 0.5369(7) 0.2182(3) 0.0131(6)
F1 F 0.4557(6) 0.2362(3) -0.0554(5)
F2 F 0.5238(4) 0.1548(2) 0.0355(4)
F3 F 0.6322(5) 0.2242(2) -0.0344(4)
S2 S 0.06065(10) 0.24214(6) 0.43083(9)
O5 O 0.0733(3) 0.2526(2) 0.3187(3)
O6 O 0.0080(3) 0.18042(16) 0.4559(3)
O7 O 0.1578(4) 0.2585(2) 0.4929(4)
C4 C -0.0403(6) 0.3047(3) 0.4613(5)
F4 F -0.1373(3) 0.2938(2) 0.4119(4)
F5 F -0.0570(5) 0.3043(2) 0.5647(3)
F6 F -0.0053(4) 0.36474(18) 0.4362(4)
loop_
_geom_bond_atom_site_label_1
_geom_bond_atom_site_label_2
_geom_bond_site_symmetry_1
_geom_bond_site_symmetry_2
Cu1 O1 1_555 1_555
O1 H4 1_555 1_555
N1 Cu1 1_555 1_555
C1 N1 1_555 1_555
C2 C1 1_555 1_555
H1 C2 1_555 1_555
H2 C2 1_555 1_555
H3 C2 1_555 1_555
S1 O2 1_555 1_555
O3 S1 1_555 1_555
O4 S1 1_555 1_555
C3 S1 1_555 1_555
F1 C3 1_555 1_555
F2 C3 1_555 1_555
F3 C3 1_555 1_555
S2 O5 1_555 1_555
O6 S2 1_555 1_555
O7 S2 1_555 1_555
C4 S2 1_555 1_555
F4 C4 1_555 1_555
F5 C4 1_555 1_555
F6 C4 1_555 1_555
N2 N3 1_555 1_555
N3 C5 1_555 1_555
C5 N4 1_555 1_555
N4 C6 1_555 1_555
C6 N2 1_555 1_555
N5 N6 1_555 1_555
N6 C7 1_555 1_555
C7 N7 1_555 1_555
N7 Cu1 1_555 1_555
C8 N5 1_555 1_555
C9 N5 1_555 1_555
C10 C9 1_555 1_555
C11 N2 1_555 1_555
N8 N9 1_555 1_555
N9 C12 1_555 1_555
C12 N10 1_555 1_555
N10 Cu1 1_555 1_555
C13 N8 1_555 1_555
C14 C15 1_555 1_555
C15 C16 1_555 1_555
C16 N8 1_555 1_555
N11 C14 1_555 1_555
N12 N11 1_555 1_555
C17 N12 1_555 1_555
N13 C17 1_555 1_555
C18 N11 1_555 1_555
H5 O1 1_555 1_555
H6 C5 1_555 1_555
H7 C6 1_555 1_555
H8 C7 1_555 1_555
H9 C8 1_555 1_555
H10 C9 1_555 1_555
H11 C9 1_555 1_555
H12 C10 1_555 1_555
H13 C10 1_555 1_555
H14 C11 1_555 1_555
H15 C11 1_555 1_555
H16 C12 1_555 1_555
H17 C13 1_555 1_555
H18 C14 1_555 1_555
H19 C14 1_555 1_555
H20 C15 1_555 1_555
H21 C15 1_555 1_555
H22 C16 1_555 1_555
H23 C16 1_555 1_555
H24 C17 1_555 1_555
H25 C18 1_555 1_555
Cu1_2 N4 1_555 1_555
N4_2 Cu1 1_555 1_555
Cu1_3 N13 1_555 1_555
N13_2 Cu1 1_555 1_555
N7 C8 1_555 1_555
C10 C11 1_555 1_555
N10 C13 1_555 1_555
N13 C18 1_555 1_555

#END
