
#######################################################################
#
#                 Cambridge Crystallographic Data Centre
#                                CCDC 
#
#######################################################################
#
# If this CIF has been generated from an entry in the Cambridge 
# Structural Database, then it will include bibliographic, chemical, 
# crystal, experimental, refinement or atomic coordinate data resulting 
# from the CCDC's data processing and validation procedures.
#
#######################################################################

data_HOXLUB
_symmetry_cell_setting           orthorhombic
_symmetry_space_group_name_H-M   'P n a 21'
_symmetry_Int_Tables_number      33
_space_group_name_Hall           'P 2c -2n'
loop_
_symmetry_equiv_pos_site_id
_symmetry_equiv_pos_as_xyz
1 x,y,z
2 1/2-x,1/2+y,1/2+z
3 1/2+x,1/2-y,z
4 -x,-y,1/2+z
_cell_length_a                   18.770(8)
_cell_length_b                   12.648(8)
_cell_length_c                   12.019(8)
_cell_angle_alpha                90
_cell_angle_beta                 90
_cell_angle_gamma                90
_cell_volume                     2853.35
loop_
_atom_site_label
_atom_site_type_symbol
_atom_site_fract_x
_atom_site_fract_y
_atom_site_fract_z
O1 O 0.0963(15) -0.910(3) 0.882(2)
O2 O 0.030(2) -0.8522(18) 0.744(3)
Cl1 Cl 0.0444(3) -0.9437(4) 0.8056(4)
O5 O -0.0094(11) -0.9746(18) 0.8791(18)
O6 O 0.0744(9) -1.0324(11) 0.7545(14)
O3 O 0.0625(15) -0.580(3) 0.1438(16)
O4 O -0.0466(16) -0.571(7) 0.284(7)
Cl2 Cl 0.0239(3) -0.5669(4) 0.2436(4)
O7 O 0.0476(9) -0.4760(11) 0.3008(14)
O8 O 0.0275(12) -0.6570(12) 0.3112(16)
Cu1 Cu 0.19725(11) -0.23252(13) -0.4916(2)
N1 N 0.3165(8) -0.2205(12) -0.5143(12)
C2 C 0.3611(18) -0.178(2) -0.549(3)
N2 N 0.0564(8) -0.2358(12) -0.4636(11)
C3 C 0.0094(12) -0.1971(18) -0.4211(19)
C4 C -0.0601(14) -0.149(2) -0.361(2)
N3 N 0.1401(7) -0.2984(11) 0.1846(11)
N4 N 0.2012(8) -0.3563(11) 0.1856(12)
C5 C 0.2240(9) -0.3413(13) 0.2877(14)
N5 N 0.1866(7) -0.2731(11) 0.3507(10)
C6 C 0.1309(9) -0.2515(13) 0.2801(13)
N6 N 0.1833(8) -0.1753(10) -0.1516(11)
N7 N 0.2370(8) -0.1062(11) -0.1743(12)
C7 C 0.2481(10) -0.1179(13) -0.2789(14)
N8 N 0.2044(7) -0.1904(10) -0.3282(10)
C8 C 0.1640(10) -0.2272(14) -0.2489(14)
C9 C 0.1515(10) -0.1843(14) -0.0399(14)
C10 C 0.1242(10) -0.2955(14) -0.0215(13)
C11 C 0.0868(10) -0.3048(15) 0.0931(15)
N9 N 0.1573(8) -0.5467(11) -0.4335(11)
N10 N 0.2124(8) -0.5420(11) -0.3638(11)
C12 C 0.2359(9) -0.4443(13) -0.3798(14)
N11 N 0.1920(7) -0.3870(11) -0.4471(10)
C13 C 0.1460(8) -0.4551(11) -0.4811(15)
C14 C 0.1042(9) -0.8249(13) -0.5106(15)
C15 C 0.1541(8) -0.7344(13) -0.4808(19)
C16 C 0.1098(9) -0.6417(13) -0.4420(14)
N12 N 0.1424(7) -0.9210(11) -0.5357(11)
N13 N 0.1870(8) -0.9288(12) -0.6228(12)
C17 C 0.2108(9) -1.0267(13) -0.6199(14)
N14 N 0.1822(7) -1.0798(11) -0.5309(10)
C18 C 0.1423(9) -1.0098(12) -0.4797(16)
C19 C 0.4209(9) -0.130(3) -0.614(3)
H4 H 0.4400 -0.1821 -0.6667
H5 H 0.4587 -0.1072 -0.5635
H6 H 0.4031 -0.0686 -0.6558
H7 H -0.1043 -0.1892 -0.3868
H8 H -0.0668 -0.0761 -0.3753
H9 H -0.0578 -0.1623 -0.2789
H10 H 0.2652 -0.3767 0.3178
H11 H 0.0900 -0.2092 0.3005
H12 H 0.2840 -0.0798 -0.3193
H13 H 0.1271 -0.2820 -0.2575
H14 H 0.1110 -0.1338 -0.0302
H15 H 0.1873 -0.1673 0.0191
H16 H 0.1647 -0.3469 -0.0249
H17 H 0.0903 -0.3153 -0.0816
H18 H 0.0517 -0.2472 0.1009
H19 H 0.0608 -0.3732 0.0978
H20 H 0.2780 -0.4152 -0.3440
H21 H 0.1079 -0.4411 -0.5329
H22 H 0.0705 -0.8373 -0.4460
H23 H 0.0736 -0.8031 -0.5744
H24 H 0.1869 -0.7571 -0.4197
H25 H 0.1833 -0.7149 -0.5458
H26 H 0.0711 -0.6286 -0.4970
H27 H 0.0877 -0.6575 -0.3695
H28 H 0.2419 -1.0583 -0.6723
H29 H 0.1186 -1.0215 -0.4098
Cu1_2 Cu 0.19725(11) -0.23252(13) 0.5084(2)
N5_2 N 0.1866(7) -0.2731(11) -0.6493(10)
Cu1_3 Cu 0.19725(11) -1.23252(13) -0.4916(2)
N14_2 N 0.1822(7) -0.0798(11) -0.5309(10)
C1? C 0.386(3) 0.941(7) 0.461(7)
H1? H 0.3902 0.9716 0.3867
H2? H 0.4330 0.9431 0.4979
H3? H 0.3517 0.9806 0.5051
O9? O 0.097(3) 0.135(4) 0.804(6)
O10? O 0.0035(18) 0.088(3) 0.714(2)
O11? O 0.012(2) 0.460(3) 0.1318(12)
O12? O -0.0492(6) 0.446(2) 0.221(2)
loop_
_geom_bond_atom_site_label_1
_geom_bond_atom_site_label_2
_geom_bond_site_symmetry_1
_geom_bond_site_symmetry_2
O1 Cl1 1_555 1_555
O2 Cl1 1_555 1_555
O3 Cl2 1_555 1_555
O4 Cl2 1_555 1_555
Cu1 N1 1_555 1_555
N1 C2 1_555 1_555
C2 C19 1_555 1_555
N2 Cu1 1_555 1_555
C3 N2 1_555 1_555
C4 C3 1_555 1_555
N3 N4 1_555 1_555
N4 C5 1_555 1_555
C5 N5 1_555 1_555
N5 C6 1_555 1_555
C6 N3 1_555 1_555
N6 N7 1_555 1_555
N7 C7 1_555 1_555
C7 N8 1_555 1_555
N8 Cu1 1_555 1_555
C8 N6 1_555 1_555
C9 N6 1_555 1_555
C10 C9 1_555 1_555
C11 N3 1_555 1_555
N9 N10 1_555 1_555
N10 C12 1_555 1_555
C12 N11 1_555 1_555
N11 Cu1 1_555 1_555
C13 N9 1_555 1_555
C14 C15 1_555 1_555
C15 C16 1_555 1_555
C16 N9 1_555 1_555
N12 C14 1_555 1_555
N13 N12 1_555 1_555
C17 N13 1_555 1_555
N14 C17 1_555 1_555
C18 N12 1_555 1_555
Cl1 O5 1_555 1_555
O6 Cl1 1_555 1_555
Cl2 O7 1_555 1_555
O8 Cl2 1_555 1_555
C19 H4 1_555 1_555
H5 C19 1_555 1_555
H6 C19 1_555 1_555
H7 C4 1_555 1_555
H8 C4 1_555 1_555
H9 C4 1_555 1_555
H10 C5 1_555 1_555
H11 C6 1_555 1_555
H12 C7 1_555 1_555
H13 C8 1_555 1_555
H14 C9 1_555 1_555
H15 C9 1_555 1_555
H16 C10 1_555 1_555
H17 C10 1_555 1_555
H18 C11 1_555 1_555
H19 C11 1_555 1_555
H20 C12 1_555 1_555
H21 C13 1_555 1_555
H22 C14 1_555 1_555
H23 C14 1_555 1_555
H24 C15 1_555 1_555
H25 C15 1_555 1_555
H26 C16 1_555 1_555
H27 C16 1_555 1_555
H28 C17 1_555 1_555
H29 C18 1_555 1_555
Cu1_2 N5 1_555 1_555
N5_2 Cu1 1_555 1_555
Cu1_3 N14 1_555 1_555
N14_2 Cu1 1_555 1_555
N8 C8 1_555 1_555
C10 C11 1_555 1_555
N11 C13 1_555 1_555
N14 C18 1_555 1_555

#END
