
#######################################################################
#
#                 Cambridge Crystallographic Data Centre
#                                CCDC 
#
#######################################################################
#
# If this CIF has been generated from an entry in the Cambridge 
# Structural Database, then it will include bibliographic, chemical, 
# crystal, experimental, refinement or atomic coordinate data resulting 
# from the CCDC's data processing and validation procedures.
#
#######################################################################

data_HOXMIQ
_symmetry_cell_setting           triclinic
_symmetry_space_group_name_H-M   'P -1'
_symmetry_Int_Tables_number      2
_space_group_name_Hall           '-P 1'
loop_
_symmetry_equiv_pos_site_id
_symmetry_equiv_pos_as_xyz
1 x,y,z
2 -x,-y,-z
_cell_length_a                   9.46160(10)
_cell_length_b                   9.4818(2)
_cell_length_c                   11.4619(3)
_cell_angle_alpha                111.95
_cell_angle_beta                 93.0910(10)
_cell_angle_gamma                101.8780(10)
_cell_volume                     923.569
loop_
_atom_site_label
_atom_site_type_symbol
_atom_site_fract_x
_atom_site_fract_y
_atom_site_fract_z
Zn1 Zn -0.55148(3) 0.27265(3) 0.30602(3)
N1 N -0.6686(3) 0.2128(3) 0.1199(2)
C1 C -0.7173(5) 0.3133(5) 0.0823(4)
H1 H -0.6913(5) 0.4193(5) 0.1354(4)
C2 C -0.8026(7) 0.2680(8) -0.0295(5)
H2 H -0.8316(7) 0.3414(8) -0.0548(5)
C3 C -0.8455(8) 0.1127(9) -0.1044(6)
H3 H -0.9081(8) 0.0778(9) -0.1802(6)
C4 C -0.7961(7) 0.0080(7) -0.0677(5)
H4 H -0.8231(7) -0.0983(7) -0.1197(5)
C5 C -0.7061(4) 0.0598(4) 0.0465(3)
C6 C -0.6464(4) -0.0413(4) 0.0949(3)
C7 C -0.6561(5) -0.1980(4) 0.0232(4)
H5 H -0.7069(5) -0.2459(4) -0.0590(4)
C8 C -0.5903(6) -0.2822(5) 0.0742(4)
H6 H -0.5934(6) -0.3866(5) 0.0257(4)
C9 C -0.5210(6) -0.2134(5) 0.1949(5)
H7 H -0.4780(6) -0.2702(5) 0.2309(5)
C10 C -0.5151(4) -0.0561(4) 0.2644(4)
H8 H -0.4668(4) -0.0081(4) 0.3474(4)
N2 N -0.5767(3) 0.0274(3) 0.2153(2)
O1 O -0.5292(2) 0.2514(2) 0.4827(2)
H9 H -0.4923(44) 0.3490(29) 0.5576(26)
H10 H -0.6072(33) 0.1814(39) 0.5016(40)
C11 C -0.1295(3) 0.5372(3) 0.3286(2)
C12 C -0.0688(3) 0.6929(3) 0.3504(3)
H11 H -0.1287(3) 0.7558(3) 0.3415(3)
C13 C 0.0807(3) 0.7550(3) 0.3855(3)
C14 C 0.1713(3) 0.6594(3) 0.3938(3)
H12 H 0.2714(3) 0.7009(3) 0.4174(3)
C15 C 0.1119(3) 0.5020(3) 0.3667(3)
C16 C -0.0385(3) 0.4439(3) 0.3372(2)
H13 H -0.0788(3) 0.3398(3) 0.3229(2)
C17 C -0.2932(3) 0.4759(3) 0.3008(3)
O2 O -0.3416(2) 0.3428(2) 0.3052(2)
O3 O -0.3703(2) 0.5540(3) 0.2767(3)
C18 C 0.1478(3) 0.9236(3) 0.4148(3)
O4 O 0.0640(2) 0.9883(3) 0.3652(2)
H14 H 0.1108(44) 1.0924(22) 0.3689(43)
O5 O 0.2657(2) 0.9940(3) 0.4770(2)
C19 C 0.2080(3) 0.3933(3) 0.3654(3)
O6 O 0.3446(2) 0.4458(2) 0.3747(2)
O7 O 0.1500(2) 0.2553(2) 0.3474(2)
O6_2 O -0.6554(2) 0.4458(2) 0.3747(2)
Zn1_2 Zn 0.44852(3) 0.27265(3) 0.30602(3)
loop_
_geom_bond_atom_site_label_1
_geom_bond_atom_site_label_2
_geom_bond_site_symmetry_1
_geom_bond_site_symmetry_2
Zn1 N1 1_555 1_555
N1 C1 1_555 1_555
C1 H1 1_555 1_555
C2 C1 1_555 1_555
H2 C2 1_555 1_555
C3 C2 1_555 1_555
H3 C3 1_555 1_555
C4 C3 1_555 1_555
H4 C4 1_555 1_555
C5 N1 1_555 1_555
C6 C5 1_555 1_555
C7 C6 1_555 1_555
H5 C7 1_555 1_555
C8 C7 1_555 1_555
H6 C8 1_555 1_555
C9 C8 1_555 1_555
H7 C9 1_555 1_555
C10 C9 1_555 1_555
H8 C10 1_555 1_555
N2 Zn1 1_555 1_555
O1 Zn1 1_555 1_555
H9 O1 1_555 1_555
H10 O1 1_555 1_555
C11 C12 1_555 1_555
C12 H11 1_555 1_555
C13 C12 1_555 1_555
C14 C13 1_555 1_555
H12 C14 1_555 1_555
C15 C14 1_555 1_555
C16 C11 1_555 1_555
H13 C16 1_555 1_555
C17 C11 1_555 1_555
O2 Zn1 1_555 1_555
O3 C17 1_555 1_555
C18 C13 1_555 1_555
O4 C18 1_555 1_555
H14 O4 1_555 1_555
O5 C18 1_555 1_555
C19 C15 1_555 1_555
O6 C19 1_555 1_555
O7 C19 1_555 1_555
O6_2 Zn1 1_555 1_555
Zn1_2 O6 1_555 1_555
C4 C5 1_555 1_555
C6 N2 1_555 1_555
C10 N2 1_555 1_555
C15 C16 1_555 1_555
C17 O2 1_555 1_555

#END
