
#######################################################################
#
#                 Cambridge Crystallographic Data Centre
#                                CCDC 
#
#######################################################################
#
# If this CIF has been generated from an entry in the Cambridge 
# Structural Database, then it will include bibliographic, chemical, 
# crystal, experimental, refinement or atomic coordinate data resulting 
# from the CCDC's data processing and validation procedures.
#
#######################################################################

data_HOXMUC
_symmetry_cell_setting           triclinic
_symmetry_space_group_name_H-M   'P -1'
_symmetry_Int_Tables_number      2
_space_group_name_Hall           '-P 1'
loop_
_symmetry_equiv_pos_site_id
_symmetry_equiv_pos_as_xyz
1 x,y,z
2 -x,-y,-z
_cell_length_a                   10.9103(10)
_cell_length_b                   11.4372(11)
_cell_length_c                   13.7163(13)
_cell_angle_alpha                110.791(2)
_cell_angle_beta                 93.6520(10)
_cell_angle_gamma                99.355(2)
_cell_volume                     1565.1
loop_
_atom_site_label
_atom_site_type_symbol
_atom_site_fract_x
_atom_site_fract_y
_atom_site_fract_z
Co1 Co -0.78121(8) -0.18865(8) 1.55693(7)
O1 O -0.8442(4) -0.3288(4) 1.6175(4)
H1 H -0.8093(72) -0.3096(77) 1.6903(22)
H2 H -0.8104(78) -0.3946(62) 1.5651(51)
N1 N -0.7526(5) -0.0466(5) 1.4911(5)
C1 C -0.6455(7) 0.0385(6) 1.5076(6)
H3 H -0.5814(7) 0.0429(6) 1.5576(6)
C2 C -0.6266(8) 0.1189(7) 1.4540(7)
H4 H -0.5507(8) 0.1758(7) 1.4666(7)
C3 C -0.7214(8) 0.1145(7) 1.3813(7)
H5 H -0.7103(8) 0.1671(7) 1.3429(7)
C4 C -0.8348(8) 0.0294(7) 1.3661(6)
H6 H -0.9012(8) 0.0266(7) 1.3188(6)
C5 C -0.8477(6) -0.0500(6) 1.4215(5)
C6 C -0.9631(6) -0.1442(6) 1.4109(5)
C7 C -1.0738(7) -0.1536(7) 1.3518(5)
H7 H -1.0781(7) -0.1001(7) 1.3146(5)
C8 C -1.1776(7) -0.2417(7) 1.3476(6)
H8 H -1.2521(7) -0.2487(7) 1.3071(6)
C9 C -1.1707(7) -0.3193(7) 1.4036(6)
H9 H -1.2400(7) -0.3796(7) 1.4020(6)
C10 C -1.0569(6) -0.3051(7) 1.4629(6)
H10 H -1.0514(6) -0.3578(7) 1.5007(6)
N2 N -0.9558(5) -0.2198(5) 1.4679(4)
P1 P -0.3293(2) -0.6671(2) 1.12950(13)
O2 O -0.2543(4) -0.7372(4) 1.1767(3)
C11 C -0.4275(6) -0.5835(6) 1.2199(5)
C12 C -0.4693(6) -0.6352(6) 1.2920(6)
H11 H -0.4419(6) -0.7064(6) 1.2961(6)
C13 C -0.5522(7) -0.5799(6) 1.3579(5)
H12 H -0.5801(7) -0.6151(6) 1.4060(5)
C14 C -0.5951(6) -0.4727(6) 1.3540(5)
C15 C -0.5514(6) -0.4212(6) 1.2831(5)
H13 H -0.5774(6) -0.3488(6) 1.2804(5)
C16 C -0.4702(6) -0.4749(6) 1.2164(5)
H14 H -0.4429(6) -0.4393(6) 1.1684(5)
C17 C -0.6888(6) -0.4180(6) 1.4260(5)
O3 O -0.7517(5) -0.4893(5) 1.4628(5)
O4 O -0.6927(4) -0.3030(4) 1.4433(3)
C18 C -0.4338(6) -0.7713(6) 1.0135(5)
C19 C -0.3839(8) -0.8392(12) 0.9288(9)
H15 H -0.2974(8) -0.8266(12) 0.9296(9)
C20 C -0.4615(8) -0.9277(11) 0.8407(8)
H16 H -0.4259(8) -0.9780(11) 0.7849(8)
C21 C -0.5878(6) -0.9424(6) 0.8338(5)
C22 C -0.6355(7) -0.8690(9) 0.9173(7)
H17 H -0.7219(7) -0.8761(9) 0.9141(7)
C23 C -0.5602(7) -0.7840(9) 1.0071(7)
H18 H -0.5961(7) -0.7352(9) 1.0634(7)
C24 C -0.6688(6) -1.0348(6) 0.7354(5)
O5 O -0.6173(4) -0.1102(4) 1.6646(4)
O6 O -0.7850(4) -0.0362(4) 1.7213(4)
C25 C -0.2290(6) -0.5514(6) 1.0944(5)
C26 C -0.2702(7) -0.5002(8) 1.0233(6)
H19 H -0.3487(7) -0.5345(8) 0.9833(6)
C27 C -0.1938(8) -0.3979(8) 1.0125(7)
H20 H -0.2206(8) -0.3644(8) 0.9641(7)
C28 C -0.0771(7) -0.3443(7) 1.0733(6)
C29 C -0.0320(7) -0.3999(7) 1.1365(6)
H21 H 0.0494(7) -0.3694(7) 1.1712(6)
C30 C -0.1074(6) -0.5030(7) 1.1498(6)
H22 H -0.0774(6) -0.5392(7) 1.1951(6)
O7 O 0.1000(6) -0.1736(6) 1.1277(6)
C31 C -0.0011(8) -0.2185(8) 1.0721(7)
O8 O -0.0530(6) -0.1704(6) 1.0191(5)
Co2 Co 0.0000 0.0000 1.0000
O9 O 0.1681(5) 0.0458(6) 1.1013(5)
O10 O -0.0838(6) 0.1026(6) 1.1339(5)
H23 H -0.0347(67) 0.0771(78) 1.1824(53)
H24 H -0.1724(35) 0.060(12) 1.118(11)
O5_2 O -0.6173(4) -1.1102(4) 0.6646(4)
O6_2 O -0.7850(4) -1.0362(4) 0.7213(4)
C24_2 C -0.6688(6) -0.0348(6) 1.7354(5)
O9A O -0.1681(5) -0.0458(6) 0.8987(5)
O10A O 0.0838(6) -0.1026(6) 0.8661(5)
O8A O 0.0530(6) 0.1704(6) 0.9809(5)
H23A H 0.0347(67) -0.0771(78) 0.8176(53)
H24A H 0.1724(35) -0.060(12) 0.882(11)
Co1_2 Co -0.78121(8) -1.18865(8) 0.55693(7)
O1_2 O -0.8442(4) -1.3288(4) 0.6175(4)
N1_2 N -0.7526(5) -1.0466(5) 0.4911(5)
N2_2 N -0.9558(5) -1.2198(5) 0.4679(4)
O4_2 O -0.6927(4) -1.3030(4) 0.4433(3)
C6_2 C -0.9631(6) -1.1442(6) 0.4109(5)
C10_2 C -1.0569(6) -1.3051(7) 0.4629(6)
C1_2 C -0.6455(7) -0.9615(6) 0.5076(6)
C5_2 C -0.8477(6) -1.0500(6) 0.4215(5)
H3_2 H -0.5814(7) -0.9571(6) 0.5576(6)
C2_2 C -0.6266(8) -0.8811(7) 0.4540(7)
C4_2 C -0.8348(8) -0.9706(7) 0.3661(6)
C9_2 C -1.1707(7) -1.3193(7) 0.4036(6)
H10_2 H -1.0514(6) -1.3578(7) 0.5007(6)
C7_2 C -1.0738(7) -1.1536(7) 0.3518(5)
H4_2 H -0.5507(8) -0.8242(7) 0.4666(7)
C3_2 C -0.7214(8) -0.8855(7) 0.3813(7)
H6_2 H -0.9012(8) -0.9734(7) 0.3188(6)
H7_2 H -1.0781(7) -1.1001(7) 0.3146(5)
C8_2 C -1.1776(7) -1.2417(7) 0.3476(6)
H9_2 H -1.2400(7) -1.3796(7) 0.4020(6)
H5_2 H -0.7103(8) -0.8329(7) 0.3429(7)
H8_2 H -1.2521(7) -1.2487(7) 0.3071(6)
H1_2 H -0.8093(72) -1.3096(77) 0.6903(22)
H2_2 H -0.8104(78) -1.3946(62) 0.5651(51)
C21_2 C -0.5878(6) 0.0576(6) 1.8338(5)
C20_2 C -0.4615(8) 0.0723(11) 1.8407(8)
C22_2 C -0.6355(7) 0.1310(9) 1.9173(7)
C19_2 C -0.3839(8) 0.1608(12) 1.9288(9)
H16_2 H -0.4259(8) 0.0220(11) 1.7849(8)
H17_2 H -0.7219(7) 0.1239(9) 1.9141(7)
C23_2 C -0.5602(7) 0.2160(9) 2.0071(7)
C18_2 C -0.4338(6) 0.2287(6) 2.0135(5)
H15_2 H -0.2974(8) 0.1734(12) 1.9296(9)
H18_2 H -0.5961(7) 0.2648(9) 2.0634(7)
P1_2 P -0.3293(2) 0.3329(2) 2.12950(13)
O2_2 O -0.2543(4) 0.2628(4) 2.1767(3)
C11_2 C -0.4275(6) 0.4165(6) 2.2199(5)
C25_2 C -0.2290(6) 0.4486(6) 2.0944(5)
C26_2 C -0.2702(7) 0.4998(8) 2.0233(6)
C30_2 C -0.1074(6) 0.4970(7) 2.1498(6)
C12_2 C -0.4693(6) 0.3648(6) 2.2920(6)
C16_2 C -0.4702(6) 0.5251(6) 2.2164(5)
H19_2 H -0.3487(7) 0.4655(8) 1.9833(6)
C27_2 C -0.1938(8) 0.6021(8) 2.0125(7)
C15_2 C -0.5514(6) 0.5788(6) 2.2831(5)
H14_2 H -0.4429(6) 0.5607(6) 2.1684(5)
H11_2 H -0.4419(6) 0.2936(6) 2.2961(6)
C13_2 C -0.5522(7) 0.4201(6) 2.3579(5)
C29_2 C -0.0320(7) 0.6001(7) 2.1365(6)
H22_2 H -0.0774(6) 0.4608(7) 2.1951(6)
H20_2 H -0.2206(8) 0.6356(8) 1.9641(7)
C28_2 C -0.0771(7) 0.6557(7) 2.0733(6)
H12_2 H -0.5801(7) 0.3849(6) 2.4060(5)
C14_2 C -0.5951(6) 0.5273(6) 2.3540(5)
H13_2 H -0.5774(6) 0.6512(6) 2.2804(5)
C17_2 C -0.6888(6) 0.5820(6) 2.4260(5)
O3_2 O -0.7517(5) 0.5107(5) 2.4628(5)
O4_3 O -0.6927(4) 0.6970(4) 2.4433(3)
Co1_3 Co -0.78121(8) 0.81135(8) 2.55693(7)
H21_2 H 0.0494(7) 0.6306(7) 2.1712(6)
C31_2 C -0.0011(8) 0.7815(8) 2.0721(7)
O7_2 O 0.1000(6) 0.8264(6) 2.1277(6)
O8_2 O -0.0530(6) 0.8296(6) 2.0191(5)
Co2_2 Co 0.0000 1.0000 2.0000
O11 O -0.1428(10) -0.2761(9) 0.7351(9)
loop_
_geom_bond_atom_site_label_1
_geom_bond_atom_site_label_2
_geom_bond_site_symmetry_1
_geom_bond_site_symmetry_2
Co1 O1 1_555 1_555
O1 H1 1_555 1_555
H2 O1 1_555 1_555
N1 Co1 1_555 1_555
C1 N1 1_555 1_555
H3 C1 1_555 1_555
C2 C1 1_555 1_555
H4 C2 1_555 1_555
C3 C2 1_555 1_555
H5 C3 1_555 1_555
C4 C3 1_555 1_555
H6 C4 1_555 1_555
C5 N1 1_555 1_555
C6 C5 1_555 1_555
C7 C6 1_555 1_555
H7 C7 1_555 1_555
C8 C7 1_555 1_555
H8 C8 1_555 1_555
C9 C8 1_555 1_555
H9 C9 1_555 1_555
C10 C9 1_555 1_555
H10 C10 1_555 1_555
N2 Co1 1_555 1_555
P1 O2 1_555 1_555
C11 P1 1_555 1_555
C12 C11 1_555 1_555
H11 C12 1_555 1_555
C13 C12 1_555 1_555
H12 C13 1_555 1_555
C14 C13 1_555 1_555
C15 C14 1_555 1_555
H13 C15 1_555 1_555
C16 C11 1_555 1_555
H14 C16 1_555 1_555
C17 C14 1_555 1_555
O3 C17 1_555 1_555
O4 Co1 1_555 1_555
C18 P1 1_555 1_555
C19 C18 1_555 1_555
H15 C19 1_555 1_555
C20 C19 1_555 1_555
H16 C20 1_555 1_555
C21 C20 1_555 1_555
C22 C21 1_555 1_555
H17 C22 1_555 1_555
C23 C18 1_555 1_555
H18 C23 1_555 1_555
C24 C21 1_555 1_555
O5 Co1 1_555 1_555
O6 Co1 1_555 1_555
C25 P1 1_555 1_555
C26 C25 1_555 1_555
H19 C26 1_555 1_555
C27 C26 1_555 1_555
H20 C27 1_555 1_555
C28 C27 1_555 1_555
C29 C28 1_555 1_555
H21 C29 1_555 1_555
C30 C25 1_555 1_555
H22 C30 1_555 1_555
O7 C31 1_555 1_555
C31 C28 1_555 1_555
O8 C31 1_555 1_555
Co2 O8 1_555 1_555
O9 Co2 1_555 1_555
O10 Co2 1_555 1_555
H23 O10 1_555 1_555
H24 O10 1_555 1_555
O5_2 C24 1_555 1_555
O6_2 C24 1_555 1_555
C24_2 O5 1_555 1_555
O9A Co2 1_555 1_555
O10A Co2 1_555 1_555
O8A Co2 1_555 1_555
H23A O10A 1_555 1_555
H24A O10A 1_555 1_555
Co1_2 O5_2 1_555 1_555
O1_2 Co1_2 1_555 1_555
N1_2 Co1_2 1_555 1_555
N2_2 Co1_2 1_555 1_555
O4_2 Co1_2 1_555 1_555
C6_2 N2_2 1_555 1_555
C10_2 N2_2 1_555 1_555
C1_2 N1_2 1_555 1_555
C5_2 N1_2 1_555 1_555
H3_2 C1_2 1_555 1_555
C2_2 C1_2 1_555 1_555
C4_2 C5_2 1_555 1_555
C9_2 C10_2 1_555 1_555
H10_2 C10_2 1_555 1_555
C7_2 C6_2 1_555 1_555
H4_2 C2_2 1_555 1_555
C3_2 C2_2 1_555 1_555
H6_2 C4_2 1_555 1_555
H7_2 C7_2 1_555 1_555
C8_2 C9_2 1_555 1_555
H9_2 C9_2 1_555 1_555
H5_2 C3_2 1_555 1_555
H8_2 C8_2 1_555 1_555
H1_2 O1_2 1_555 1_555
H2_2 O1_2 1_555 1_555
C21_2 C24_2 1_555 1_555
C20_2 C21_2 1_555 1_555
C22_2 C21_2 1_555 1_555
C19_2 C20_2 1_555 1_555
H16_2 C20_2 1_555 1_555
H17_2 C22_2 1_555 1_555
C23_2 C22_2 1_555 1_555
C18_2 C19_2 1_555 1_555
H15_2 C19_2 1_555 1_555
H18_2 C23_2 1_555 1_555
P1_2 C18_2 1_555 1_555
O2_2 P1_2 1_555 1_555
C11_2 P1_2 1_555 1_555
C25_2 P1_2 1_555 1_555
C26_2 C25_2 1_555 1_555
C30_2 C25_2 1_555 1_555
C12_2 C11_2 1_555 1_555
C16_2 C11_2 1_555 1_555
H19_2 C26_2 1_555 1_555
C27_2 C26_2 1_555 1_555
C15_2 C16_2 1_555 1_555
H14_2 C16_2 1_555 1_555
H11_2 C12_2 1_555 1_555
C13_2 C12_2 1_555 1_555
C29_2 C30_2 1_555 1_555
H22_2 C30_2 1_555 1_555
H20_2 C27_2 1_555 1_555
C28_2 C27_2 1_555 1_555
H12_2 C13_2 1_555 1_555
C14_2 C15_2 1_555 1_555
H13_2 C15_2 1_555 1_555
C17_2 C14_2 1_555 1_555
O3_2 C17_2 1_555 1_555
O4_3 C17_2 1_555 1_555
Co1_3 O4_3 1_555 1_555
H21_2 C29_2 1_555 1_555
C31_2 C28_2 1_555 1_555
O7_2 C31_2 1_555 1_555
O8_2 C31_2 1_555 1_555
Co2_2 O8_2 1_555 1_555
C4 C5 1_555 1_555
C6 N2 1_555 1_555
C10 N2 1_555 1_555
C15 C16 1_555 1_555
C17 O4 1_555 1_555
C22 C23 1_555 1_555
O6 C24_2 1_555 1_555
C29 C30 1_555 1_555
O6_2 Co1_2 1_555 1_555
C6_2 C5_2 1_555 1_555
C4_2 C3_2 1_555 1_555
C7_2 C8_2 1_555 1_555
C23_2 C18_2 1_555 1_555
C13_2 C14_2 1_555 1_555
C29_2 C28_2 1_555 1_555

#END
