
#######################################################################
#
#                 Cambridge Crystallographic Data Centre
#                                CCDC 
#
#######################################################################
#
# If this CIF has been generated from an entry in the Cambridge 
# Structural Database, then it will include bibliographic, chemical, 
# crystal, experimental, refinement or atomic coordinate data resulting 
# from the CCDC's data processing and validation procedures.
#
#######################################################################

data_HOXMEM
_symmetry_cell_setting           triclinic
_symmetry_space_group_name_H-M   'P -1'
_symmetry_Int_Tables_number      2
_space_group_name_Hall           '-P 1'
loop_
_symmetry_equiv_pos_site_id
_symmetry_equiv_pos_as_xyz
1 x,y,z
2 -x,-y,-z
_cell_length_a                   9.5599(5)
_cell_length_b                   10.1135(5)
_cell_length_c                   10.8358(5)
_cell_angle_alpha                98.5490(10)
_cell_angle_beta                 111.5960(10)
_cell_angle_gamma                104.9210(10)
_cell_volume                     906.055
loop_
_atom_site_label
_atom_site_type_symbol
_atom_site_fract_x
_atom_site_fract_y
_atom_site_fract_z
Co1 Co -0.40217(4) 0.15624(3) -0.01535(3)
O1 O -0.2025(2) 0.1086(2) -0.0080(2)
H1 H -0.1036(22) 0.1047(34) 0.0603(25)
H2 H -0.1757(36) 0.1446(29) -0.0778(22)
N1 N -0.2630(3) 0.3543(2) 0.1393(2)
C1 C -0.1037(3) 0.4022(3) 0.2098(3)
H3 H -0.0456(3) 0.3522(3) 0.1835(3)
C2 C -0.0223(5) 0.5216(4) 0.3190(3)
H4 H 0.0887(5) 0.5528(4) 0.3644(3)
C3 C -0.1062(6) 0.5930(4) 0.3595(4)
H5 H -0.0531(6) 0.6734(4) 0.4343(4)
C4 C -0.2710(5) 0.5469(4) 0.2900(4)
H6 H -0.3296(5) 0.5954(4) 0.3175(4)
C5 C -0.3482(4) 0.4259(3) 0.1773(3)
C6 C -0.5215(4) 0.3692(3) 0.0920(3)
C7 C -0.6279(5) 0.4349(3) 0.1068(4)
H7 H -0.5909(5) 0.5190(3) 0.1756(4)
C8 C -0.7876(5) 0.3753(4) 0.0196(5)
H8 H -0.8595(5) 0.4185(4) 0.0287(5)
C9 C -0.8400(4) 0.2516(4) -0.0809(4)
H9 H -0.9479(4) 0.2092(4) -0.1407(4)
C10 C -0.7303(3) 0.1916(3) -0.0917(3)
H10 H -0.7662(3) 0.1082(3) -0.1609(3)
N2 N -0.5752(2) 0.2467(2) -0.0081(2)
C11 C -0.4288(3) 0.1885(2) -0.4180(2)
C12 C -0.5876(3) 0.1797(2) -0.4796(2)
H11 H -0.6418(3) 0.1911(2) -0.4252(2)
C13 C -0.6666(3) 0.1542(2) -0.6213(2)
C14 C -0.5868(3) 0.1348(2) -0.7037(2)
H12 H -0.6390(3) 0.1192(2) -0.7986(2)
C15 C -0.4298(3) 0.1389(2) -0.6441(2)
C16 C -0.3509(3) 0.1675(2) -0.5019(2)
H13 H -0.2446(3) 0.1727(2) -0.4620(2)
C17 C -0.3463(3) 0.2076(2) -0.2653(2)
O2 O -0.4310(2) 0.2090(2) -0.1988(2)
O3 O -0.2031(2) 0.2164(2) -0.2150(2)
C18 C -0.8382(3) 0.1402(3) -0.6892(3)
O4 O -0.9061(2) 0.1425(3) -0.6035(2)
H14 H -1.0181(16) 0.1373(39) -0.6414(35)
O5 O -0.9108(2) 0.1243(3) -0.8099(2)
C19 C -0.3444(3) 0.1069(2) -0.7318(2)
O6 O -0.4287(2) 0.0544(2) -0.86279(14)
O7 O -0.1987(2) 0.1332(2) -0.6739(2)
O6_2 O -0.4287(2) 0.0544(2) 0.13721(14)
Co1_2 Co -0.40217(4) 0.15624(3) -1.01535(3)
Co1A Co -0.59783(4) -0.15624(3) -0.98465(3)
O2A O -0.5690(2) -0.2090(2) -0.8012(2)
C17A C -0.6537(3) -0.2076(2) -0.7347(2)
C11A C -0.5712(3) -0.1885(2) -0.5820(2)
C12A C -0.4124(3) -0.1797(2) -0.5204(2)
H11A H -0.3582(3) -0.1911(2) -0.5748(2)
C13A C -0.3334(3) -0.1542(2) -0.3787(2)
C14A C -0.4132(3) -0.1348(2) -0.2963(2)
H12A H -0.3610(3) -0.1192(2) -0.2014(2)
C15A C -0.5702(3) -0.1389(2) -0.3559(2)
C16A C -0.6491(3) -0.1675(2) -0.4981(2)
H13A H -0.7554(3) -0.1727(2) -0.5380(2)
C19A C -0.6556(3) -0.1069(2) -0.2682(2)
O6A O -0.5713(2) -0.0544(2) -0.13721(14)
Co1A_2 Co -0.59783(4) -0.15624(3) 0.01535(3)
O7A O -0.8013(2) -0.1332(2) -0.3261(2)
C18A C -0.1618(3) -0.1402(3) -0.3108(3)
O4A O -0.0939(2) -0.1425(3) -0.3965(2)
H14A H 0.0181(16) -0.1373(39) -0.3586(35)
O5A O -0.0892(2) -0.1243(3) -0.1901(2)
O3A O -0.7969(2) -0.2164(2) -0.7850(2)
O1A O -0.7975(2) -0.1086(2) 0.0080(2)
N1A N -0.7370(3) -0.3543(2) -0.1393(2)
N2A N -0.4248(2) -0.2467(2) 0.0081(2)
O2A_2 O -0.5690(2) -0.2090(2) 0.1988(2)
H1A H -0.8964(22) -0.1047(34) -0.0603(25)
H2A H -0.8243(36) -0.1446(29) 0.0778(22)
C1A C -0.8963(3) -0.4022(3) -0.2098(3)
C5A C -0.6518(4) -0.4259(3) -0.1773(3)
C6A C -0.4785(4) -0.3692(3) -0.0920(3)
C10A C -0.2697(3) -0.1916(3) 0.0917(3)
H3A H -0.9544(3) -0.3522(3) -0.1835(3)
C2A C -0.9777(5) -0.5216(4) -0.3190(3)
C4A C -0.7290(5) -0.5469(4) -0.2900(4)
C7A C -0.3721(5) -0.4349(3) -0.1068(4)
C9A C -0.1600(4) -0.2516(4) 0.0809(4)
H10A H -0.2338(3) -0.1082(3) 0.1609(3)
H4A H -1.0887(5) -0.5528(4) -0.3644(3)
C3A C -0.8938(6) -0.5930(4) -0.3595(4)
H6A H -0.6704(5) -0.5954(4) -0.3175(4)
H7A H -0.4091(5) -0.5190(3) -0.1756(4)
C8A C -0.2124(5) -0.3753(4) -0.0196(5)
H9A H -0.0521(4) -0.2092(4) 0.1407(4)
H5A H -0.9469(6) -0.6734(4) -0.4343(4)
H8A H -0.1405(5) -0.4185(4) -0.0287(5)
loop_
_geom_bond_atom_site_label_1
_geom_bond_atom_site_label_2
_geom_bond_site_symmetry_1
_geom_bond_site_symmetry_2
Co1 O1 1_555 1_555
O1 H1 1_555 1_555
H2 O1 1_555 1_555
N1 Co1 1_555 1_555
C1 N1 1_555 1_555
H3 C1 1_555 1_555
C2 C1 1_555 1_555
H4 C2 1_555 1_555
C3 C2 1_555 1_555
H5 C3 1_555 1_555
C4 C3 1_555 1_555
H6 C4 1_555 1_555
C5 N1 1_555 1_555
C6 C5 1_555 1_555
C7 C6 1_555 1_555
H7 C7 1_555 1_555
C8 C7 1_555 1_555
H8 C8 1_555 1_555
C9 C8 1_555 1_555
H9 C9 1_555 1_555
C10 C9 1_555 1_555
H10 C10 1_555 1_555
N2 Co1 1_555 1_555
C11 C12 1_555 1_555
C12 H11 1_555 1_555
C13 C12 1_555 1_555
C14 C13 1_555 1_555
H12 C14 1_555 1_555
C15 C14 1_555 1_555
C16 C11 1_555 1_555
H13 C16 1_555 1_555
C17 C11 1_555 1_555
O2 Co1 1_555 1_555
O3 C17 1_555 1_555
C18 C13 1_555 1_555
O4 C18 1_555 1_555
H14 O4 1_555 1_555
O5 C18 1_555 1_555
C19 C15 1_555 1_555
O6 C19 1_555 1_555
O7 C19 1_555 1_555
O6_2 Co1 1_555 1_555
Co1_2 O6 1_555 1_555
Co1A O6 1_555 1_555
O2A Co1A 1_555 1_555
C17A O2A 1_555 1_555
C11A C17A 1_555 1_555
C12A C11A 1_555 1_555
H11A C12A 1_555 1_555
C13A C12A 1_555 1_555
C14A C13A 1_555 1_555
H12A C14A 1_555 1_555
C15A C14A 1_555 1_555
C16A C11A 1_555 1_555
H13A C16A 1_555 1_555
C19A C15A 1_555 1_555
O6A Co1 1_555 1_555
Co1A_2 O6_2 1_555 1_555
O7A C19A 1_555 1_555
C18A C13A 1_555 1_555
O4A C18A 1_555 1_555
H14A O4A 1_555 1_555
O5A C18A 1_555 1_555
O3A C17A 1_555 1_555
O1A Co1A_2 1_555 1_555
N1A Co1A_2 1_555 1_555
N2A Co1A_2 1_555 1_555
O2A_2 Co1A_2 1_555 1_555
H1A O1A 1_555 1_555
H2A O1A 1_555 1_555
C1A N1A 1_555 1_555
C5A N1A 1_555 1_555
C6A N2A 1_555 1_555
C10A N2A 1_555 1_555
H3A C1A 1_555 1_555
C2A C1A 1_555 1_555
C4A C5A 1_555 1_555
C7A C6A 1_555 1_555
C9A C10A 1_555 1_555
H10A C10A 1_555 1_555
H4A C2A 1_555 1_555
C3A C2A 1_555 1_555
H6A C4A 1_555 1_555
H7A C7A 1_555 1_555
C8A C7A 1_555 1_555
H9A C9A 1_555 1_555
H5A C3A 1_555 1_555
H8A C8A 1_555 1_555
C4 C5 1_555 1_555
C6 N2 1_555 1_555
C10 N2 1_555 1_555
C15 C16 1_555 1_555
C17 O2 1_555 1_555
C15A C16A 1_555 1_555
C19A O6A 1_555 1_555
O6A Co1A_2 1_555 1_555
C5A C6A 1_555 1_555
C4A C3A 1_555 1_555
C9A C8A 1_555 1_555

#END
