
#######################################################################
#
#                 Cambridge Crystallographic Data Centre
#                                CCDC 
#
#######################################################################
#
# If this CIF has been generated from an entry in the Cambridge 
# Structural Database, then it will include bibliographic, chemical, 
# crystal, experimental, refinement or atomic coordinate data resulting 
# from the CCDC's data processing and validation procedures.
#
#######################################################################

data_HOXMAI
_symmetry_cell_setting           monoclinic
_symmetry_space_group_name_H-M   'P 21/n'
_symmetry_Int_Tables_number      14
_space_group_name_Hall           '-P 2yn'
loop_
_symmetry_equiv_pos_site_id
_symmetry_equiv_pos_as_xyz
1 x,y,z
2 1/2+x,1/2-y,1/2+z
3 -x,-y,-z
4 1/2-x,1/2+y,1/2-z
_cell_length_a                   10.3643(3)
_cell_length_b                   10.50350(10)
_cell_length_c                   17.0828(4)
_cell_angle_alpha                90
_cell_angle_beta                 103.3090(10)
_cell_angle_gamma                90
_cell_volume                     1809.71
loop_
_atom_site_label
_atom_site_type_symbol
_atom_site_fract_x
_atom_site_fract_y
_atom_site_fract_z
Mn1 Mn -0.13485(3) 0.45289(2) 0.03913(2)
O1 O -0.0287(2) 0.4061(2) 0.15803(9)
H1 H -0.0473(23) 0.3257(20) 0.1642(15)
H2 H 0.0232(22) 0.4423(21) 0.2016(13)
N1 N -0.30173(15) 0.51031(15) -0.06212(9)
C1 C -0.3185(2) 0.4587(2) -0.13471(12)
H3 H -0.2551(2) 0.4014(2) -0.14378(12)
C2 C -0.4255(2) 0.4857(2) -0.19760(13)
H4 H -0.4342(2) 0.4475(2) -0.24768(13)
C3 C -0.5178(2) 0.5702(2) -0.18360(14)
H5 H -0.5907(2) 0.5908(2) -0.22463(14)
C4 C -0.5031(2) 0.6250(2) -0.10901(13)
H6 H -0.5660(2) 0.6823(2) -0.09921(13)
C5 C -0.3933(2) 0.5938(2) -0.04832(11)
C6 C -0.3674(2) 0.6467(2) 0.03440(12)
C7 C -0.4430(2) 0.7448(2) 0.05570(15)
H7 H -0.5138(2) 0.7788(2) 0.01788(15)
C8 C -0.4122(2) 0.7909(3) 0.1328(2)
H8 H -0.4608(2) 0.8575(3) 0.1475(2)
C9 C -0.3089(2) 0.7377(2) 0.18825(15)
H9 H -0.2875(2) 0.7664(2) 0.24117(15)
C10 C -0.2378(2) 0.6409(2) 0.16362(12)
H10 H -0.1675(2) 0.6052(2) 0.20100(12)
N2 N -0.26536(15) 0.5959(2) 0.08799(9)
C11 C -0.0865(2) -0.1739(2) 0.02900(10)
C12 C -0.1554(2) -0.1867(2) -0.05045(10)
H11 H -0.1497(2) -0.2620(2) -0.07806(10)
C13 C -0.2333(2) -0.0866(2) -0.08897(10)
C14 C -0.2383(2) 0.0281(2) -0.04816(10)
H12 H -0.2880(2) 0.0957(2) -0.07436(10)
C15 C -0.1692(2) 0.0413(2) 0.03135(10)
C16 C -0.0954(2) -0.0605(2) 0.06947(10)
H13 H -0.0510(2) -0.0528(2) 0.12316(10)
C17 C -0.0015(2) -0.2791(2) 0.07296(10)
O2 O -0.00066(11) 0.38526(11) -0.03476(7)
O3 O 0.06007(14) -0.26069(12) 0.14284(7)
C18 C -0.3117(2) -0.0972(2) -0.17338(11)
O4 O -0.29018(14) -0.20189(13) -0.21050(8)
H14 H -0.3421(23) -0.2081(25) -0.2630(13)
O5 O -0.3902(2) -0.0170(2) -0.20465(9)
C19 C -0.1641(2) 0.1670(2) 0.07477(10)
O6 O -0.21443(12) 0.26295(11) 0.03337(8)
O7 O -0.1070(2) 0.16944(12) 0.14725(8)
Mn1B Mn 0.13485(3) 0.54711(2) -0.03913(2)
O1B O 0.0287(2) 0.5939(2) -0.15803(9)
H1B H 0.0473(23) 0.6743(20) -0.1642(15)
H2B H -0.0232(22) 0.5577(21) -0.2016(13)
N1B N 0.30173(15) 0.48969(15) 0.06212(9)
C1B C 0.3185(2) 0.5413(2) 0.13471(12)
H3B H 0.2551(2) 0.5986(2) 0.14378(12)
C2B C 0.4255(2) 0.5143(2) 0.19760(13)
H4B H 0.4342(2) 0.5525(2) 0.24768(13)
C3B C 0.5178(2) 0.4298(2) 0.18360(14)
H5B H 0.5907(2) 0.4092(2) 0.22463(14)
C4B C 0.5031(2) 0.3750(2) 0.10901(13)
H6B H 0.5660(2) 0.3177(2) 0.09921(13)
C5B C 0.3933(2) 0.4062(2) 0.04832(11)
C6B C 0.3674(2) 0.3533(2) -0.03440(12)
C7B C 0.4430(2) 0.2552(2) -0.05570(15)
H7B H 0.5138(2) 0.2212(2) -0.01788(15)
C8B C 0.4122(2) 0.2091(3) -0.1328(2)
H8B H 0.4608(2) 0.1425(3) -0.1475(2)
C9B C 0.3089(2) 0.2623(2) -0.18825(15)
H9B H 0.2875(2) 0.2336(2) -0.24117(15)
C10B C 0.2378(2) 0.3591(2) -0.16362(12)
H10B H 0.1675(2) 0.3948(2) -0.20100(12)
N2B N 0.26536(15) 0.4041(2) -0.08799(9)
O2B O 0.00066(11) 0.61474(11) 0.03476(7)
O2B_2 O 0.00066(11) -0.38526(11) 0.03476(7)
Mn1_2 Mn -0.13485(3) -0.54711(2) 0.03913(2)
Mn1B_2 Mn 0.13485(3) -0.45289(2) -0.03913(2)
C17B C 0.0015(2) 0.2791(2) -0.07296(10)
C11B C 0.0865(2) 0.1739(2) -0.02900(10)
C12B C 0.1554(2) 0.1867(2) 0.05045(10)
H11B H 0.1497(2) 0.2620(2) 0.07806(10)
C13B C 0.2333(2) 0.0866(2) 0.08897(10)
C14B C 0.2383(2) -0.0281(2) 0.04816(10)
H12B H 0.2880(2) -0.0957(2) 0.07436(10)
C15B C 0.1692(2) -0.0413(2) -0.03135(10)
C16B C 0.0954(2) 0.0605(2) -0.06947(10)
H13B H 0.0510(2) 0.0528(2) -0.12316(10)
C19B C 0.1641(2) -0.1670(2) -0.07477(10)
O6B O 0.21443(12) -0.26295(11) -0.03337(8)
O7B O 0.1070(2) -0.16944(12) -0.14725(8)
C18B C 0.3117(2) 0.0972(2) 0.17338(11)
O4B O 0.29018(14) 0.20189(13) 0.21050(8)
H14B H 0.3421(23) 0.2081(25) 0.2630(13)
O5B O 0.3902(2) 0.0170(2) 0.20465(9)
O3B O -0.06007(14) 0.26069(12) -0.14284(7)
O6B_2 O 0.21443(12) 0.73705(11) -0.03337(8)
loop_
_geom_bond_atom_site_label_1
_geom_bond_atom_site_label_2
_geom_bond_site_symmetry_1
_geom_bond_site_symmetry_2
Mn1 O1 1_555 1_555
O1 H1 1_555 1_555
H2 O1 1_555 1_555
N1 Mn1 1_555 1_555
C1 N1 1_555 1_555
H3 C1 1_555 1_555
C2 C1 1_555 1_555
H4 C2 1_555 1_555
C3 C2 1_555 1_555
H5 C3 1_555 1_555
C4 C3 1_555 1_555
H6 C4 1_555 1_555
C5 N1 1_555 1_555
C6 C5 1_555 1_555
C7 C6 1_555 1_555
H7 C7 1_555 1_555
C8 C7 1_555 1_555
H8 C8 1_555 1_555
C9 C8 1_555 1_555
H9 C9 1_555 1_555
C10 C9 1_555 1_555
H10 C10 1_555 1_555
N2 Mn1 1_555 1_555
C11 C12 1_555 1_555
C12 H11 1_555 1_555
C13 C12 1_555 1_555
C14 C13 1_555 1_555
H12 C14 1_555 1_555
C15 C14 1_555 1_555
C16 C11 1_555 1_555
H13 C16 1_555 1_555
C17 C11 1_555 1_555
O2 Mn1 1_555 1_555
O3 C17 1_555 1_555
C18 C13 1_555 1_555
O4 C18 1_555 1_555
H14 O4 1_555 1_555
O5 C18 1_555 1_555
C19 C15 1_555 1_555
O6 Mn1 1_555 1_555
O7 C19 1_555 1_555
Mn1B O2 1_555 1_555
O1B Mn1B 1_555 1_555
H1B O1B 1_555 1_555
H2B O1B 1_555 1_555
N1B Mn1B 1_555 1_555
C1B N1B 1_555 1_555
H3B C1B 1_555 1_555
C2B C1B 1_555 1_555
H4B C2B 1_555 1_555
C3B C2B 1_555 1_555
H5B C3B 1_555 1_555
C4B C3B 1_555 1_555
H6B C4B 1_555 1_555
C5B N1B 1_555 1_555
C6B C5B 1_555 1_555
C7B C6B 1_555 1_555
H7B C7B 1_555 1_555
C8B C7B 1_555 1_555
H8B C8B 1_555 1_555
C9B C8B 1_555 1_555
H9B C9B 1_555 1_555
C10B C9B 1_555 1_555
H10B C10B 1_555 1_555
N2B Mn1B 1_555 1_555
O2B Mn1 1_555 1_555
O2B_2 C17 1_555 1_555
Mn1_2 O2B_2 1_555 1_555
Mn1B_2 O2B_2 1_555 1_555
C17B O2 1_555 1_555
C11B C17B 1_555 1_555
C12B C11B 1_555 1_555
H11B C12B 1_555 1_555
C13B C12B 1_555 1_555
C14B C13B 1_555 1_555
H12B C14B 1_555 1_555
C15B C14B 1_555 1_555
C16B C11B 1_555 1_555
H13B C16B 1_555 1_555
C19B C15B 1_555 1_555
O6B Mn1B_2 1_555 1_555
O7B C19B 1_555 1_555
C18B C13B 1_555 1_555
O4B C18B 1_555 1_555
H14B O4B 1_555 1_555
O5B C18B 1_555 1_555
O3B C17B 1_555 1_555
O6B_2 Mn1B 1_555 1_555
C4 C5 1_555 1_555
C6 N2 1_555 1_555
C10 N2 1_555 1_555
C15 C16 1_555 1_555
C19 O6 1_555 1_555
Mn1B O2B 1_555 1_555
C4B C5B 1_555 1_555
C6B N2B 1_555 1_555
C10B N2B 1_555 1_555
C15B C16B 1_555 1_555
C19B O6B 1_555 1_555

#END
