
#######################################################################
#
#                 Cambridge Crystallographic Data Centre
#                                CCDC 
#
#######################################################################
#
# If this CIF has been generated from an entry in the Cambridge 
# Structural Database, then it will include bibliographic, chemical, 
# crystal, experimental, refinement or atomic coordinate data resulting 
# from the CCDC's data processing and validation procedures.
#
#######################################################################

data_HOXNIS
_symmetry_cell_setting           monoclinic
_symmetry_space_group_name_H-M   'C 2'
_symmetry_Int_Tables_number      5
_space_group_name_Hall           'C 2y'
loop_
_symmetry_equiv_pos_site_id
_symmetry_equiv_pos_as_xyz
1 x,y,z
2 -x,y,-z
3 1/2+x,1/2+y,z
4 1/2-x,1/2+y,-z
_cell_length_a                   15.5160(14)
_cell_length_b                   28.981(3)
_cell_length_c                   19.4548(18)
_cell_angle_alpha                90
_cell_angle_beta                 103.236(2)
_cell_angle_gamma                90
_cell_volume                     8515.83
loop_
_atom_site_label
_atom_site_type_symbol
_atom_site_fract_x
_atom_site_fract_y
_atom_site_fract_z
Zn1 Zn 0.85334(6) 0.33464(3) 0.19103(6)
Zn2 Zn 0.84440(6) -0.03779(3) 0.69008(5)
N1 N 0.7480(4) 0.3126(2) 0.2341(4)
N2 N 0.7479(5) 0.3739(3) 0.1333(4)
N3 N 0.7361(5) -0.0068(2) 0.7191(4)
N4 N 0.7442(5) -0.0840(2) 0.6486(4)
O1 O 0.9337(4) 0.3822(2) 0.1699(4)
O2 O 0.9331(4) 0.3095(2) 0.2789(4)
O3 O 0.9197(4) -0.0160(2) 0.7805(4)
O4 O 0.9303(4) -0.0805(2) 0.6639(4)
N5 N 0.8587(4) 0.01263(19) 0.6141(4)
C1 C 0.8517(6) 0.00216(19) 0.5433(4)
H1 H 0.8423 -0.0282 0.5277
C2 C 0.8587(6) 0.0370(3) 0.4958(3)
H2 H 0.8541 0.0300 0.4484
C3 C 0.8727(6) 0.0823(2) 0.5191(4)
C4 C 0.8797(6) 0.09279(17) 0.5899(4)
H3 H 0.8891 0.1231 0.6054
C5 C 0.8727(6) 0.0579(2) 0.6374(3)
H4 H 0.8773 0.0650 0.6847
C6 C 0.8791(7) 0.1202(4) 0.4701(7)
C7 C 0.8839(7) 0.1535(5) 0.4357(7)
C8 C 0.8971(4) 0.19450(18) 0.3938(4)
C9 C 0.9820(4) 0.2108(2) 0.3963(3)
H5 H 1.0308 0.1955 0.4233
C10 C 0.9940(3) 0.2500(2) 0.3584(4)
C11 C 0.9210(4) 0.27290(18) 0.3180(3)
C12 C 0.8361(3) 0.2566(2) 0.3155(4)
C13 C 0.8241(3) 0.2174(2) 0.3534(4)
H6 H 0.7673 0.2065 0.3518
C14 C 1.0907(6) 0.2678(4) 0.3644(7)
C15 C 1.1124(8) 0.2698(5) 0.2928(8)
H7 H 1.0700 0.2890 0.2620
H8 H 1.1104 0.2393 0.2734
H9 H 1.1707 0.2824 0.2974
C16 C 1.0948(8) 0.3168(4) 0.3976(9)
H10 H 1.0539 0.3368 0.3668
H11 H 1.1537 0.3289 0.4039
H12 H 1.0793 0.3150 0.4425
C17 C 1.1600(8) 0.2387(4) 0.4176(10)
H13 H 1.1621 0.2080 0.3994
H14 H 1.1432 0.2373 0.4621
H15 H 1.2173 0.2527 0.4240
C18 C 0.7552(6) 0.2787(3) 0.2778(5)
H16 H 0.7026 0.2670 0.2860
C19 C 0.6617(5) 0.3334(3) 0.2036(5)
H17 H 0.6578 0.3609 0.2320
C20 C 0.5800(5) 0.3053(3) 0.2041(6)
H18 H 0.5790 0.2976 0.2524
H19 H 0.5822 0.2767 0.1787
C21 C 0.4952(5) 0.3317(4) 0.1699(5)
H20 H 0.4444 0.3117 0.1674
H21 H 0.4888 0.3580 0.1990
C22 C 0.4970(6) 0.3483(4) 0.0955(6)
H22 H 0.4447 0.3667 0.0768
H23 H 0.4961 0.3219 0.0647
C23 C 0.5816(5) 0.3777(3) 0.0967(6)
H24 H 0.5832 0.3865 0.0489
H25 H 0.5797 0.4056 0.1238
C24 C 0.6625(5) 0.3511(3) 0.1287(4)
H26 H 0.6621 0.3237 0.0991
C25 C 0.7543(6) 0.4153(3) 0.1108(6)
H27 H 0.7017 0.4309 0.0925
C26 C 0.8359(3) 0.43984(19) 0.1114(4)
C27 C 0.9201(4) 0.42098(16) 0.1331(3)
C28 C 0.9933(3) 0.4453(2) 0.1228(4)
C29 C 0.9824(3) 0.4884(2) 0.0908(4)
H28 H 1.0314 0.5046 0.0839
C30 C 0.8982(4) 0.50726(17) 0.0690(4)
C31 C 0.8249(3) 0.4830(2) 0.0794(4)
H29 H 0.7685 0.4956 0.0648
C32 C 1.0876(7) 0.4254(4) 0.1438(7)
C33 C 1.1568(6) 0.4564(5) 0.1242(7)
H30 H 1.1431 0.4610 0.0740
H31 H 1.2140 0.4422 0.1388
H32 H 1.1572 0.4856 0.1475
C34 C 1.1163(8) 0.4162(5) 0.2227(7)
H33 H 1.0756 0.3950 0.2364
H34 H 1.1166 0.4446 0.2481
H35 H 1.1746 0.4031 0.2336
C35 C 1.0884(8) 0.3813(5) 0.1019(8)
H36 H 1.0466 0.3598 0.1133
H37 H 1.1466 0.3680 0.1137
H38 H 1.0725 0.3881 0.0524
C36 C 0.8861(7) 0.5530(4) 0.0359(7)
C37 C 0.8775(7) 0.5901(4) 0.0094(8)
C38 C 0.8697(7) 0.6355(3) -0.0200(7)
C39 C 0.8928(8) 0.6743(4) 0.0223(6)
H39 H 0.9132 0.6710 0.0709
C40 C 0.8853(8) 0.7180(3) -0.0080(8)
H40 H 0.9007 0.7439 0.0203
N6 N 0.8548(7) 0.7229(3) -0.0805(9)
C41 C 0.8318(8) 0.6841(5) -0.1228(6)
H41 H 0.8114 0.6874 -0.1714
C42 C 0.8392(8) 0.6405(4) -0.0925(6)
H42 H 0.8238 0.6145 -0.1208
N7 N 0.8673(4) 0.2825(2) 1.1185(4)
C43 C 0.8400(5) 0.29012(19) 1.0462(4)
H43 H 0.8184 0.3189 1.0293
C44 C 0.8451(6) 0.2547(3) 0.9991(3)
H44 H 0.8268 0.2598 0.9507
C45 C 0.8774(5) 0.2117(2) 1.0243(4)
C46 C 0.9047(6) 0.20413(19) 1.0966(5)
H45 H 0.9263 0.1754 1.1134
C47 C 0.8996(5) 0.2395(3) 1.1436(3)
H46 H 0.9179 0.2345 1.1920
C48 C 0.8775(7) 0.1737(4) 0.9735(6)
C49 C 0.8804(7) 0.1413(3) 0.9392(6)
C50 C 0.8890(4) 0.09881(18) 0.8983(3)
C51 C 0.9725(4) 0.0801(2) 0.9023(3)
H47 H 1.0220 0.0936 0.9313
C52 C 0.9818(3) 0.0411(2) 0.8630(4)
C53 C 0.9077(4) 0.02093(17) 0.8196(3)
C54 C 0.8243(3) 0.0397(2) 0.8156(3)
C55 C 0.8149(3) 0.0786(2) 0.8550(4)
H48 H 0.7590 0.0911 0.8523
C56 C 1.0774(6) 0.0224(3) 0.8685(6)
C57 C 1.0981(7) 0.0228(5) 0.7951(7)
H49 H 1.1567 0.0111 0.7983
H50 H 1.0944 0.0539 0.7774
H51 H 1.0560 0.0038 0.7636
C58 C 1.1495(7) 0.0511(4) 0.9188(7)
H52 H 1.1385 0.0509 0.9654
H53 H 1.1481 0.0823 0.9020
H54 H 1.2067 0.0379 0.9203
C59 C 1.0850(7) -0.0275(3) 0.8958(7)
H55 H 1.0728 -0.0284 0.9420
H56 H 1.1438 -0.0388 0.8983
H57 H 1.0431 -0.0466 0.8643
C60 C 0.7412(6) 0.0233(3) 0.7684(5)
H58 H 0.6884 0.0358 0.7749
C61 C 0.6529(5) -0.0198(3) 0.6724(5)
H59 H 0.6541 -0.0061 0.6265
C62 C 0.5681(6) -0.0044(4) 0.6878(6)
H60 H 0.5681 0.0289 0.6919
H61 H 0.5623 -0.0174 0.7324
C63 C 0.4919(6) -0.0193(3) 0.6307(6)
H62 H 0.4947 -0.0035 0.5873
H63 H 0.4373 -0.0102 0.6432
C64 C 0.4905(6) -0.0707(4) 0.6183(6)
H64 H 0.4811 -0.0865 0.6600
H65 H 0.4415 -0.0783 0.5792
C65 C 0.5748(6) -0.0875(4) 0.6022(6)
H66 H 0.5807 -0.0751 0.5572
H67 H 0.5737 -0.1209 0.5987
C66 C 0.6549(5) -0.0721(3) 0.6612(4)
H68 H 0.6495 -0.0871 0.7052
C67 C 0.7555(6) -0.1234(3) 0.6212(5)
H69 H 0.7053 -0.1416 0.6063
C68 C 0.8380(3) -0.1423(2) 0.6111(4)
C69 C 0.9201(4) -0.12087(17) 0.6310(3)
C70 C 0.9954(3) -0.1431(2) 0.6205(4)
C71 C 0.9887(3) -0.1867(2) 0.5901(4)
H70 H 1.0391 -0.2016 0.5830
C72 C 0.9066(4) -0.20815(17) 0.5702(4)
C73 C 0.8313(3) -0.1860(2) 0.5807(4)
H71 H 0.7764 -0.2003 0.5674
C74 C 1.0883(6) -0.1196(3) 0.6349(6)
C75 C 1.1190(7) -0.1079(4) 0.7147(6)
H72 H 1.1255 -0.1359 0.7418
H73 H 1.0758 -0.0885 0.7285
H74 H 1.1748 -0.0921 0.7232
C76 C 1.0819(8) -0.0727(4) 0.5945(7)
H75 H 1.0637 -0.0782 0.5446
H76 H 1.1387 -0.0579 0.6050
H77 H 1.0393 -0.0532 0.6091
C77 C 1.1601(8) -0.1491(5) 0.6143(10)
H78 H 1.1652 -0.1779 0.6394
H79 H 1.2157 -0.1331 0.6263
H80 H 1.1446 -0.1549 0.5644
C78 C 0.8971(6) -0.2545(3) 0.5389(6)
C79 C 0.8883(7) -0.2912(5) 0.5125(8)
C80 C 0.8772(6) -0.3366(2) 0.4759(7)
C81 C 0.8816(7) -0.3766(4) 0.5160(5)
H81 H 0.8900 -0.3746 0.5648
C82 C 0.8733(7) -0.4194(3) 0.4831(8)
H82 H 0.8762 -0.4462 0.5100
N8 N 0.8607(7) -0.4223(3) 0.4102(8)
C83 C 0.8564(9) -0.3823(5) 0.3701(5)
H83 H 0.8479 -0.3843 0.3213
C84 C 0.8646(8) -0.3395(4) 0.4030(6)
H84 H 0.8617 -0.3127 0.3761
Zn1_2 Zn 0.85334(6) 0.33464(3) 1.19103(6)
N7_2 N 0.8673(4) 0.2825(2) 0.1185(4)
C85 C 0.8634(11) 0.7079(6) 0.2195(11)
H85 H 0.8135 0.6958 0.1857
H86 H 0.8849 0.7351 0.2006
H87 H 0.8458 0.7157 0.2622
C86 C 0.9377(9) 0.6712(6) 0.2356(9)
C87 C 0.9390(9) 0.6285(6) 0.2031(7)
H88 H 0.8893 0.6183 0.1702
C88 C 1.0145(12) 0.6012(5) 0.2196(8)
H89 H 1.0154 0.5727 0.1979
C89 C 1.0888(9) 0.6165(6) 0.2687(8)
H90 H 1.1393 0.5982 0.2798
C90 C 1.0875(9) 0.6591(6) 0.3013(7)
H91 H 1.1372 0.6693 0.3341
C91 C 1.0120(12) 0.6864(5) 0.2847(8)
H92 H 1.0112 0.7150 0.3064
loop_
_geom_bond_atom_site_label_1
_geom_bond_atom_site_label_2
_geom_bond_site_symmetry_1
_geom_bond_site_symmetry_2
Zn1 N1 1_555 1_555
Zn2 N3 1_555 1_555
N1 C18 1_555 1_555
N2 Zn1 1_555 1_555
N3 C60 1_555 1_555
N4 Zn2 1_555 1_555
O1 Zn1 1_555 1_555
O2 Zn1 1_555 1_555
O3 Zn2 1_555 1_555
O4 Zn2 1_555 1_555
N5 Zn2 1_555 1_555
C1 N5 1_555 1_555
H1 C1 1_555 1_555
C2 C1 1_555 1_555
H2 C2 1_555 1_555
C3 C2 1_555 1_555
C4 C3 1_555 1_555
H3 C4 1_555 1_555
C5 N5 1_555 1_555
H4 C5 1_555 1_555
C6 C3 1_555 1_555
C7 C6 1_555 1_555
C8 C7 1_555 1_555
C9 C8 1_555 1_555
H5 C9 1_555 1_555
C10 C9 1_555 1_555
C11 O2 1_555 1_555
C12 C11 1_555 1_555
C13 C8 1_555 1_555
H6 C13 1_555 1_555
C14 C10 1_555 1_555
C15 C14 1_555 1_555
H7 C15 1_555 1_555
H8 C15 1_555 1_555
H9 C15 1_555 1_555
C16 C14 1_555 1_555
H10 C16 1_555 1_555
H11 C16 1_555 1_555
H12 C16 1_555 1_555
C17 C14 1_555 1_555
H13 C17 1_555 1_555
H14 C17 1_555 1_555
H15 C17 1_555 1_555
C18 C12 1_555 1_555
H16 C18 1_555 1_555
C19 N1 1_555 1_555
H17 C19 1_555 1_555
C20 C19 1_555 1_555
H18 C20 1_555 1_555
H19 C20 1_555 1_555
C21 C20 1_555 1_555
H20 C21 1_555 1_555
H21 C21 1_555 1_555
C22 C21 1_555 1_555
H22 C22 1_555 1_555
H23 C22 1_555 1_555
C23 C22 1_555 1_555
H24 C23 1_555 1_555
H25 C23 1_555 1_555
C24 N2 1_555 1_555
H26 C24 1_555 1_555
C25 N2 1_555 1_555
H27 C25 1_555 1_555
C26 C25 1_555 1_555
C27 O1 1_555 1_555
C28 C27 1_555 1_555
C29 C28 1_555 1_555
H28 C29 1_555 1_555
C30 C29 1_555 1_555
C31 C26 1_555 1_555
H29 C31 1_555 1_555
C32 C28 1_555 1_555
C33 C32 1_555 1_555
H30 C33 1_555 1_555
H31 C33 1_555 1_555
H32 C33 1_555 1_555
C34 C32 1_555 1_555
H33 C34 1_555 1_555
H34 C34 1_555 1_555
H35 C34 1_555 1_555
C35 C32 1_555 1_555
H36 C35 1_555 1_555
H37 C35 1_555 1_555
H38 C35 1_555 1_555
C36 C30 1_555 1_555
C37 C36 1_555 1_555
C38 C37 1_555 1_555
C39 C38 1_555 1_555
H39 C39 1_555 1_555
C40 C39 1_555 1_555
H40 C40 1_555 1_555
N6 C40 1_555 1_555
C41 N6 1_555 1_555
H41 C41 1_555 1_555
C42 C38 1_555 1_555
H42 C42 1_555 1_555
N7 C43 1_555 1_555
C43 H43 1_555 1_555
C44 C43 1_555 1_555
H44 C44 1_555 1_555
C45 C44 1_555 1_555
C46 C45 1_555 1_555
H45 C46 1_555 1_555
C47 N7 1_555 1_555
H46 C47 1_555 1_555
C48 C45 1_555 1_555
C49 C48 1_555 1_555
C50 C49 1_555 1_555
C51 C50 1_555 1_555
H47 C51 1_555 1_555
C52 C51 1_555 1_555
C53 O3 1_555 1_555
C54 C53 1_555 1_555
C55 C50 1_555 1_555
H48 C55 1_555 1_555
C56 C52 1_555 1_555
C57 C56 1_555 1_555
H49 C57 1_555 1_555
H50 C57 1_555 1_555
H51 C57 1_555 1_555
C58 C56 1_555 1_555
H52 C58 1_555 1_555
H53 C58 1_555 1_555
H54 C58 1_555 1_555
C59 C56 1_555 1_555
H55 C59 1_555 1_555
H56 C59 1_555 1_555
H57 C59 1_555 1_555
C60 C54 1_555 1_555
H58 C60 1_555 1_555
C61 N3 1_555 1_555
H59 C61 1_555 1_555
C62 C61 1_555 1_555
H60 C62 1_555 1_555
H61 C62 1_555 1_555
C63 C62 1_555 1_555
H62 C63 1_555 1_555
H63 C63 1_555 1_555
C64 C63 1_555 1_555
H64 C64 1_555 1_555
H65 C64 1_555 1_555
C65 C64 1_555 1_555
H66 C65 1_555 1_555
H67 C65 1_555 1_555
C66 N4 1_555 1_555
H68 C66 1_555 1_555
C67 N4 1_555 1_555
H69 C67 1_555 1_555
C68 C67 1_555 1_555
C69 O4 1_555 1_555
C70 C69 1_555 1_555
C71 C70 1_555 1_555
H70 C71 1_555 1_555
C72 C71 1_555 1_555
C73 C68 1_555 1_555
H71 C73 1_555 1_555
C74 C70 1_555 1_555
C75 C74 1_555 1_555
H72 C75 1_555 1_555
H73 C75 1_555 1_555
H74 C75 1_555 1_555
C76 C74 1_555 1_555
H75 C76 1_555 1_555
H76 C76 1_555 1_555
H77 C76 1_555 1_555
C77 C74 1_555 1_555
H78 C77 1_555 1_555
H79 C77 1_555 1_555
H80 C77 1_555 1_555
C78 C72 1_555 1_555
C79 C78 1_555 1_555
C80 C79 1_555 1_555
C81 C80 1_555 1_555
H81 C81 1_555 1_555
C82 C81 1_555 1_555
H82 C82 1_555 1_555
N8 C82 1_555 1_555
C83 N8 1_555 1_555
H83 C83 1_555 1_555
C84 C80 1_555 1_555
H84 C84 1_555 1_555
C85 H85 1_555 1_555
H86 C85 1_555 1_555
H87 C85 1_555 1_555
C86 C85 1_555 1_555
C87 C86 1_555 1_555
H88 C87 1_555 1_555
C88 C87 1_555 1_555
H89 C88 1_555 1_555
C89 C88 1_555 1_555
H90 C89 1_555 1_555
C90 C89 1_555 1_555
H91 C90 1_555 1_555
C91 C86 1_555 1_555
H92 C91 1_555 1_555
Zn1_2 N7 1_555 1_555
N7_2 Zn1 1_555 1_555
C4 C5 1_555 1_555
C10 C11 1_555 1_555
C12 C13 1_555 1_555
C19 C24 1_555 1_555
C23 C24 1_555 1_555
C26 C27 1_555 1_555
C30 C31 1_555 1_555
C41 C42 1_555 1_555
C46 C47 1_555 1_555
C52 C53 1_555 1_555
C54 C55 1_555 1_555
C61 C66 1_555 1_555
C65 C66 1_555 1_555
C68 C69 1_555 1_555
C72 C73 1_555 1_555
C83 C84 1_555 1_555
C90 C91 1_555 1_555

#END
