
#######################################################################
#
#                 Cambridge Crystallographic Data Centre
#                                CCDC 
#
#######################################################################
#
# If this CIF has been generated from an entry in the Cambridge 
# Structural Database, then it will include bibliographic, chemical, 
# crystal, experimental, refinement or atomic coordinate data resulting 
# from the CCDC's data processing and validation procedures.
#
#######################################################################

data_HOXNOY
_symmetry_cell_setting           monoclinic
_symmetry_space_group_name_H-M   'C 2'
_symmetry_Int_Tables_number      5
_space_group_name_Hall           'C 2y'
loop_
_symmetry_equiv_pos_site_id
_symmetry_equiv_pos_as_xyz
1 x,y,z
2 -x,y,-z
3 1/2+x,1/2+y,z
4 1/2-x,1/2+y,-z
_cell_length_a                   14.929(7)
_cell_length_b                   25.901(12)
_cell_length_c                   22.477(10)
_cell_angle_alpha                90
_cell_angle_beta                 90.000(5)
_cell_angle_gamma                90
_cell_volume                     8691.32
loop_
_atom_site_label
_atom_site_type_symbol
_atom_site_fract_x
_atom_site_fract_y
_atom_site_fract_z
Zn1 Zn -0.14905(13) -0.39102(5) -0.17643(7)
Zn2 Zn -0.15010(14) -0.03561(5) -0.67622(8)
O1 O -0.0760(10) -0.0647(5) -0.7345(5)
O2 O -0.0640(8) 0.0170(5) -0.6440(6)
O3 O -0.0647(8) -0.3565(4) -0.2340(5)
O4 O -0.0615(8) -0.4414(4) -0.1493(5)
N1 N -0.2579(9) -0.0706(5) -0.7208(5)
N2 N -0.2516(11) 0.0166(7) -0.6587(7)
N3 N -0.2533(9) -0.3665(5) -0.2311(6)
N4 N -0.2550(11) -0.4398(5) -0.1555(6)
N5 N -0.1415(7) -0.3427(3) -1.1030(4)
C1 C -0.1199(10) -0.3612(3) -1.0467(5)
H1 H -0.1117 -0.3964 -1.0408
C2 C -0.1106(11) -0.3271(4) -0.9994(4)
H2 H -0.0962 -0.3395 -0.9618
C3 C -0.1229(9) -0.2745(4) -1.0083(4)
C4 C -0.1444(10) -0.2559(3) -1.0645(5)
H3 H -0.1526 -0.2207 -1.0705
C5 C -0.1537(9) -0.2900(3) -1.1119(3)
H4 H -0.1681 -0.2776 -1.1495
C6 C -0.1236(18) -0.2358(9) -0.9598(8)
C7 C -0.1127(15) -0.2064(6) -0.9202(8)
C8 C -0.1035(9) -0.1724(4) -0.8692(4)
C9 C -0.0182(8) -0.1554(5) -0.8538(5)
H5 H 0.0316 -0.1680 -0.8739
C10 C -0.0075(6) -0.1197(5) -0.8082(5)
C11 C -0.0820(8) -0.1009(4) -0.7781(4)
C12 C -0.1672(6) -0.1178(4) -0.7935(5)
C13 C -0.1780(7) -0.1536(4) -0.8391(5)
H6 H -0.2350 -0.1649 -0.8494
C14 C 0.0873(12) -0.1072(7) -0.7895(8)
C15 C 0.1671(15) -0.1386(9) -0.8167(12)
H7 H 0.2226 -0.1259 -0.8008
H8 H 0.1672 -0.1345 -0.8592
H9 H 0.1605 -0.1744 -0.8070
C16 C 0.0986(17) -0.0496(7) -0.7944(10)
H10 H 0.0501 -0.0327 -0.7743
H11 H 0.0987 -0.0398 -0.8356
H12 H 0.1544 -0.0397 -0.7765
C17 C 0.1026(15) -0.1147(7) -0.7240(10)
H13 H 0.0643 -0.0917 -0.7021
H14 H 0.1640 -0.1073 -0.7147
H15 H 0.0892 -0.1497 -0.7134
C18 C -0.2535(14) -0.0997(7) -0.7672(9)
H16 H -0.3067 -0.1100 -0.7851
C19 C -0.3451(10) -0.0551(5) -0.6915(7)
H17 H -0.3447 -0.0686 -0.6508
C20 C -0.4341(10) -0.0716(7) -0.7208(7)
H18 H -0.4364 -0.0586 -0.7612
H19 H -0.4372 -0.1090 -0.7224
C21 C -0.5129(10) -0.0510(6) -0.6860(8)
H20 H -0.5683 -0.0617 -0.7048
H21 H -0.5119 -0.0648 -0.6459
C22 C -0.5084(14) 0.0069(8) -0.6838(11)
H22 H -0.5602 0.0203 -0.6629
H23 H -0.5087 0.0208 -0.7239
C23 C -0.4236(9) 0.0230(6) -0.6521(7)
H24 H -0.4228 0.0089 -0.6122
H25 H -0.4208 0.0604 -0.6493
C24 C -0.3429(10) 0.0026(7) -0.6879(7)
H26 H -0.3449 0.0169 -0.7282
C25 C -0.2370(14) 0.0607(7) -0.6349(7)
H27 H -0.2886 0.0801 -0.6287
C26 C -0.1642(6) 0.0838(4) -0.6179(4)
C27 C -0.0804(8) 0.0612(3) -0.6250(4)
C28 C -0.0037(6) 0.0880(5) -0.6084(5)
C29 C -0.0108(8) 0.1374(5) -0.5846(5)
H28 H 0.0406 0.1553 -0.5735
C30 C -0.0945(10) 0.1599(3) -0.5774(5)
C31 C -0.1712(7) 0.1332(4) -0.5941(5)
H29 H -0.2273 0.1483 -0.5892
C32 C 0.0962(9) 0.0682(6) -0.6053(9)
C33 C 0.0930(18) 0.0236(12) -0.5608(14)
H30 H 0.0501 -0.0016 -0.5738
H31 H 0.0758 0.0365 -0.5224
H32 H 0.1511 0.0079 -0.5581
C34 C 0.1735(16) 0.1040(10) -0.5847(14)
H33 H 0.1779 0.1330 -0.6112
H34 H 0.2289 0.0851 -0.5851
H35 H 0.1617 0.1160 -0.5451
C35 C 0.1259(15) 0.0419(10) -0.6637(8)
H36 H 0.1371 0.0678 -0.6934
H37 H 0.0794 0.0192 -0.6773
H38 H 0.1796 0.0225 -0.6568
C36 C -0.1226(15) 0.2078(6) -0.5527(8)
C37 C -0.1262(14) 0.2486(7) -0.5303(10)
C38 C -0.1238(9) 0.2986(4) -0.5050(7)
C39 C -0.1254(10) 0.3000(4) -0.4432(7)
H39 H -0.1255 0.2693 -0.4217
C40 C -0.1269(9) 0.3471(5) -0.4137(6)
H40 H -0.1280 0.3480 -0.3723
N6 N -0.1267(9) 0.3929(4) -0.4459(7)
C41 C -0.1251(10) 0.3915(4) -0.5077(7)
H41 H -0.1250 0.4222 -0.5293
C42 C -0.1236(10) 0.3444(6) -0.5373(6)
H42 H -0.1225 0.3435 -0.5786
C43 C -0.1194(12) -0.1854(6) -0.4564(8)
N7 N -0.1442(7) -0.0892(4) -0.6044(3)
C44 C -0.1549(10) -0.1421(4) -0.6122(4)
H43 H -0.1650 -0.1555 -0.6500
C45 C -0.1507(11) -0.1750(3) -0.5635(5)
H44 H -0.1579 -0.2104 -0.5687
C46 C -0.1357(10) -0.1551(4) -0.5069(4)
C47 C -0.1249(10) -0.1022(5) -0.4991(3)
H45 H -0.1149 -0.0888 -0.4613
C48 C -0.1291(9) -0.0693(3) -0.5479(3)
H46 H -0.1219 -0.0339 -0.5427
C49 C -0.1155(12) -0.2123(7) -0.4126(8)
C50 C -0.1021(9) -0.2502(4) -0.3647(4)
C51 C -0.1769(7) -0.2739(5) -0.3399(5)
H47 H -0.2337 -0.2664 -0.3545
C52 C -0.1667(7) -0.3087(5) -0.2934(5)
C53 C -0.0817(9) -0.3200(4) -0.2717(4)
C54 C -0.0069(7) -0.2963(5) -0.2965(5)
C55 C -0.0171(7) -0.2615(5) -0.3430(5)
H48 H 0.0329 -0.2457 -0.3596
C56 C 0.0912(11) -0.3105(7) -0.2801(7)
C57 C 0.1102(13) -0.3666(7) -0.3001(11)
H49 H 0.1709 -0.3755 -0.2905
H50 H 0.1013 -0.3695 -0.3423
H51 H 0.0701 -0.3897 -0.2799
C58 C 0.0975(14) -0.3009(8) -0.2112(7)
H52 H 0.0840 -0.2654 -0.2028
H53 H 0.1570 -0.3087 -0.1978
H54 H 0.0554 -0.3228 -0.1911
C59 C 0.1585(14) -0.2793(13) -0.3173(14)
H55 H 0.1567 -0.2437 -0.3054
H56 H 0.1432 -0.2820 -0.3587
H57 H 0.2177 -0.2927 -0.3111
C60 C -0.2462(11) -0.3307(6) -0.2702(6)
H58 H -0.2997 -0.3177 -0.2851
C61 C -0.3402(12) -0.3879(7) -0.2190(6)
H59 H -0.3444 -0.4166 -0.2472
C62 C -0.4217(12) -0.3592(7) -0.2298(9)
H60 H -0.4210 -0.3470 -0.2706
H61 H -0.4216 -0.3290 -0.2042
C63 C -0.5113(10) -0.3895(8) -0.2192(8)
H62 H -0.5614 -0.3657 -0.2213
H63 H -0.5188 -0.4151 -0.2503
C64 C -0.5118(15) -0.4165(8) -0.1583(9)
H64 H -0.5640 -0.4387 -0.1553
H65 H -0.5153 -0.3909 -0.1270
C65 C -0.4264(13) -0.4490(8) -0.1504(14)
H66 H -0.4259 -0.4767 -0.1794
H67 H -0.4261 -0.4642 -0.1110
C66 C -0.3408(11) -0.4146(6) -0.1586(6)
H68 H -0.3421 -0.3877 -0.1279
C67 C -0.1571(6) -0.5083(5) -0.1206(6)
C68 C -0.1697(7) -0.5573(5) -0.0968(6)
H69 H -0.2271 -0.5712 -0.0944
C69 C -0.0967(10) -0.5856(4) -0.0767(5)
C70 C -0.0110(8) -0.5649(4) -0.0802(4)
H70 H 0.0379 -0.5838 -0.0667
C71 C 0.0017(6) -0.5159(4) -0.1040(4)
C72 C -0.0713(7) -0.4876(3) -0.1242(5)
C73 C 0.0930(13) -0.4934(7) -0.1076(6)
C74 C 0.1620(12) -0.5330(9) -0.0839(10)
H71 H 0.1465 -0.5425 -0.0439
H72 H 0.2207 -0.5178 -0.0843
H73 H 0.1615 -0.5631 -0.1088
C75 C 0.1007(14) -0.4480(7) -0.0633(8)
H74 H 0.0850 -0.4597 -0.0242
H75 H 0.0609 -0.4208 -0.0751
H76 H 0.1612 -0.4354 -0.0631
C76 C 0.1220(13) -0.4810(8) -0.1720(7)
H77 H 0.0825 -0.4555 -0.1885
H78 H 0.1193 -0.5118 -0.1956
H79 H 0.1822 -0.4679 -0.1718
C77 C -0.1009(13) -0.6372(6) -0.0524(7)
C78 C -0.1169(10) -0.6779(5) -0.0344(8)
C79 C -0.1289(13) -0.7299(5) -0.0139(10)
C80 C -0.1032(13) -0.7410(5) 0.0441(9)
H80 H -0.0848 -0.7145 0.0693
C81 C -0.1050(12) -0.7916(6) 0.0646(8)
H81 H -0.0878 -0.7991 0.1034
N8 N -0.1325(11) -0.8312(5) 0.0269(9)
C82 C -0.1582(12) -0.8200(6) -0.0311(9)
H82 H -0.1765 -0.8465 -0.0563
C83 C -0.1563(12) -0.7694(7) -0.0515(8)
H83 H -0.1735 -0.7620 -0.0904
C84 C -0.2486(13) -0.4844(6) -0.1338(7)
H84 H -0.3004 -0.5031 -0.1257
Zn1_2 Zn -0.14905(13) -0.39102(5) -1.17643(7)
N5_2 N -0.1415(7) -0.3427(3) -0.1030(4)
C85 C -0.4700(11) -0.1913(6) -0.2197(10)
C86 C -0.5522(13) -0.2056(6) -0.1958(7)
H85 H -0.5688 -0.1940 -0.1582
C87 C -0.6098(9) -0.2370(6) -0.2282(10)
H86 H -0.6648 -0.2466 -0.2122
C88 C -0.5851(13) -0.2543(6) -0.2844(10)
H87 H -0.6236 -0.2753 -0.3061
C89 C -0.5029(15) -0.2400(8) -0.3083(8)
H88 H -0.4863 -0.2515 -0.3459
C90 C -0.4453(11) -0.2085(8) -0.2759(10)
H89 H -0.3903 -0.1989 -0.2919
C91 C -0.391(4) -0.169(3) -0.182(3)
H90 H -0.4128 -0.1575 -0.1444
H91 H -0.3642 -0.1405 -0.2030
H92 H -0.3466 -0.1955 -0.1762
C92 C -0.5000 -0.8515(10) -0.5000
C93 C -0.5794(13) -0.8754(9) -0.5064(10)
H93 H -0.6328 -0.8572 -0.5101
C94 C -0.5764(13) -0.9300(9) -0.5070(10)
H94 H -0.6297 -0.9481 -0.5125
C95 C -0.5000 -0.9572(10) -0.5000
H95 H -0.5000 -0.9931 -0.5000
C96 C -0.5000 -0.7948(12) -0.5000
C93A C -0.4206(13) -0.8754(9) -0.4936(10)
H93A H -0.3672 -0.8572 -0.4899
C94A C -0.4236(13) -0.9300(9) -0.4930(10)
H94A H -0.3703 -0.9481 -0.4875
H96? H -0.4407 -0.7824 -0.4917
H97? H -0.5405 -0.7824 -0.4700
H98? H -0.5189 -0.7824 -0.5383
loop_
_geom_bond_atom_site_label_1
_geom_bond_atom_site_label_2
_geom_bond_site_symmetry_1
_geom_bond_site_symmetry_2
Zn1 O3 1_555 1_555
Zn2 O1 1_555 1_555
O1 C11 1_555 1_555
O2 Zn2 1_555 1_555
O3 C53 1_555 1_555
O4 Zn1 1_555 1_555
N1 Zn2 1_555 1_555
N2 Zn2 1_555 1_555
N3 Zn1 1_555 1_555
N4 Zn1 1_555 1_555
N5 C1 1_555 1_555
C1 H1 1_555 1_555
C2 C1 1_555 1_555
H2 C2 1_555 1_555
C3 C2 1_555 1_555
C4 C3 1_555 1_555
H3 C4 1_555 1_555
C5 N5 1_555 1_555
H4 C5 1_555 1_555
C6 C3 1_555 1_555
C7 C6 1_555 1_555
C8 C7 1_555 1_555
C9 C8 1_555 1_555
H5 C9 1_555 1_555
C10 C9 1_555 1_555
C11 C10 1_555 1_555
C12 C11 1_555 1_555
C13 C8 1_555 1_555
H6 C13 1_555 1_555
C14 C10 1_555 1_555
C15 C14 1_555 1_555
H7 C15 1_555 1_555
H8 C15 1_555 1_555
H9 C15 1_555 1_555
C16 C14 1_555 1_555
H10 C16 1_555 1_555
H11 C16 1_555 1_555
H12 C16 1_555 1_555
C17 C14 1_555 1_555
H13 C17 1_555 1_555
H14 C17 1_555 1_555
H15 C17 1_555 1_555
C18 N1 1_555 1_555
H16 C18 1_555 1_555
C19 N1 1_555 1_555
H17 C19 1_555 1_555
C20 C19 1_555 1_555
H18 C20 1_555 1_555
H19 C20 1_555 1_555
C21 C20 1_555 1_555
H20 C21 1_555 1_555
H21 C21 1_555 1_555
C22 C21 1_555 1_555
H22 C22 1_555 1_555
H23 C22 1_555 1_555
C23 C22 1_555 1_555
H24 C23 1_555 1_555
H25 C23 1_555 1_555
C24 N2 1_555 1_555
H26 C24 1_555 1_555
C25 N2 1_555 1_555
H27 C25 1_555 1_555
C26 C25 1_555 1_555
C27 O2 1_555 1_555
C28 C27 1_555 1_555
C29 C28 1_555 1_555
H28 C29 1_555 1_555
C30 C29 1_555 1_555
C31 C26 1_555 1_555
H29 C31 1_555 1_555
C32 C28 1_555 1_555
C33 C32 1_555 1_555
H30 C33 1_555 1_555
H31 C33 1_555 1_555
H32 C33 1_555 1_555
C34 C32 1_555 1_555
H33 C34 1_555 1_555
H34 C34 1_555 1_555
H35 C34 1_555 1_555
C35 C32 1_555 1_555
H36 C35 1_555 1_555
H37 C35 1_555 1_555
H38 C35 1_555 1_555
C36 C30 1_555 1_555
C37 C36 1_555 1_555
C38 C37 1_555 1_555
C39 C38 1_555 1_555
H39 C39 1_555 1_555
C40 C39 1_555 1_555
H40 C40 1_555 1_555
N6 C40 1_555 1_555
C41 N6 1_555 1_555
H41 C41 1_555 1_555
C42 C38 1_555 1_555
H42 C42 1_555 1_555
C43 C46 1_555 1_555
N7 Zn2 1_555 1_555
C44 N7 1_555 1_555
H43 C44 1_555 1_555
C45 C44 1_555 1_555
H44 C45 1_555 1_555
C46 C45 1_555 1_555
C47 C46 1_555 1_555
H45 C47 1_555 1_555
C48 N7 1_555 1_555
H46 C48 1_555 1_555
C49 C43 1_555 1_555
C50 C49 1_555 1_555
C51 C50 1_555 1_555
H47 C51 1_555 1_555
C52 C51 1_555 1_555
C53 C52 1_555 1_555
C54 C53 1_555 1_555
C55 C50 1_555 1_555
H48 C55 1_555 1_555
C56 C54 1_555 1_555
C57 C56 1_555 1_555
H49 C57 1_555 1_555
H50 C57 1_555 1_555
H51 C57 1_555 1_555
C58 C56 1_555 1_555
H52 C58 1_555 1_555
H53 C58 1_555 1_555
H54 C58 1_555 1_555
C59 C56 1_555 1_555
H55 C59 1_555 1_555
H56 C59 1_555 1_555
H57 C59 1_555 1_555
C60 N3 1_555 1_555
H58 C60 1_555 1_555
C61 N3 1_555 1_555
H59 C61 1_555 1_555
C62 C61 1_555 1_555
H60 C62 1_555 1_555
H61 C62 1_555 1_555
C63 C62 1_555 1_555
H62 C63 1_555 1_555
H63 C63 1_555 1_555
C64 C63 1_555 1_555
H64 C64 1_555 1_555
H65 C64 1_555 1_555
C65 C64 1_555 1_555
H66 C65 1_555 1_555
H67 C65 1_555 1_555
C66 N4 1_555 1_555
H68 C66 1_555 1_555
C67 C68 1_555 1_555
C68 H69 1_555 1_555
C69 C68 1_555 1_555
C70 C69 1_555 1_555
H70 C70 1_555 1_555
C71 C70 1_555 1_555
C72 O4 1_555 1_555
C73 C71 1_555 1_555
C74 C73 1_555 1_555
H71 C74 1_555 1_555
H72 C74 1_555 1_555
H73 C74 1_555 1_555
C75 C73 1_555 1_555
H74 C75 1_555 1_555
H75 C75 1_555 1_555
H76 C75 1_555 1_555
C76 C73 1_555 1_555
H77 C76 1_555 1_555
H78 C76 1_555 1_555
H79 C76 1_555 1_555
C77 C69 1_555 1_555
C78 C77 1_555 1_555
C79 C78 1_555 1_555
C80 C79 1_555 1_555
H80 C80 1_555 1_555
C81 C80 1_555 1_555
H81 C81 1_555 1_555
N8 C81 1_555 1_555
C82 N8 1_555 1_555
H82 C82 1_555 1_555
C83 C79 1_555 1_555
H83 C83 1_555 1_555
C84 N4 1_555 1_555
H84 C84 1_555 1_555
C85 C86 1_555 1_555
C86 H85 1_555 1_555
C87 C86 1_555 1_555
H86 C87 1_555 1_555
C88 C87 1_555 1_555
H87 C88 1_555 1_555
C89 C88 1_555 1_555
H88 C89 1_555 1_555
C90 C85 1_555 1_555
H89 C90 1_555 1_555
C91 C85 1_555 1_555
H90 C91 1_555 1_555
H91 C91 1_555 1_555
H92 C91 1_555 1_555
C92 C93 1_555 1_555
C93 H93 1_555 1_555
C94 C93 1_555 1_555
H94 C94 1_555 1_555
C95 C94 1_555 1_555
H95 C95 1_555 1_555
C96 C92 1_555 1_555
Zn1_2 N5 1_555 1_555
N5_2 Zn1 1_555 1_555
C93A C92 1_555 1_555
H93A C93A 1_555 1_555
C94A C95 1_555 1_555
H94A C94A 1_555 1_555
C4 C5 1_555 1_555
C12 C13 1_555 1_555
C12 C18 1_555 1_555
C19 C24 1_555 1_555
C23 C24 1_555 1_555
C26 C27 1_555 1_555
C30 C31 1_555 1_555
C41 C42 1_555 1_555
C47 C48 1_555 1_555
C52 C60 1_555 1_555
C54 C55 1_555 1_555
C61 C66 1_555 1_555
C65 C66 1_555 1_555
C67 C72 1_555 1_555
C67 C84 1_555 1_555
C71 C72 1_555 1_555
C82 C83 1_555 1_555
C89 C90 1_555 1_555
C93A C94A 1_555 1_555

#END
