
#######################################################################
#
#                 Cambridge Crystallographic Data Centre
#                                CCDC 
#
#######################################################################
#
# If this CIF has been generated from an entry in the Cambridge 
# Structural Database, then it will include bibliographic, chemical, 
# crystal, experimental, refinement or atomic coordinate data resulting 
# from the CCDC's data processing and validation procedures.
#
#######################################################################

data_HOXNAJ
_symmetry_cell_setting           monoclinic
_symmetry_space_group_name_H-M   'P 21/a'
_symmetry_Int_Tables_number      14
_space_group_name_Hall           '-P 2yab'
loop_
_symmetry_equiv_pos_site_id
_symmetry_equiv_pos_as_xyz
1 x,y,z
2 1/2+x,1/2-y,z
3 -x,-y,-z
4 1/2-x,1/2+y,-z
_cell_length_a                   11.23800(10)
_cell_length_b                   13.5519(2)
_cell_length_c                   14.5787(3)
_cell_angle_alpha                90
_cell_angle_beta                 94.4970(10)
_cell_angle_gamma                90
_cell_volume                     2213.45
loop_
_atom_site_label
_atom_site_type_symbol
_atom_site_fract_x
_atom_site_fract_y
_atom_site_fract_z
Co1 Co 0.08621(3) -0.31659(3) 0.18611(2)
O1 O 0.2521(2) -0.2470(2) 0.2007(2)
H1 H 0.3291(4) -0.2804(5) 0.2127(35)
H2 H 0.2646(5) -0.1760(5) 0.2101(35)
N1 N 0.0270(2) -0.2918(2) 0.0444(2)
C1 C -0.0466(3) -0.2190(2) 0.0138(2)
H3 H -0.0730(3) -0.1743(2) 0.0561(2)
C2 C -0.0846(3) -0.2080(2) -0.0775(2)
H4 H -0.1348(3) -0.1562(2) -0.0967(2)
C3 C -0.0471(3) -0.2750(3) -0.1402(2)
H5 H -0.0724(3) -0.2697(3) -0.2022(2)
C4 C 0.0280(3) -0.3496(2) -0.1095(2)
H6 H 0.0544(3) -0.3955(2) -0.1509(2)
C5 C 0.0648(2) -0.3567(2) -0.0168(2)
C6 C 0.1462(2) -0.4347(2) 0.0219(2)
C7 C 0.1986(3) -0.5052(2) -0.0313(2)
H7 H 0.1826(3) -0.5059(2) -0.0948(2)
C8 C 0.2737(3) -0.5734(3) 0.0105(2)
H8 H 0.3102(3) -0.6204(3) -0.0244(2)
C9 C 0.2950(3) -0.5721(3) 0.1046(2)
H9 H 0.3458(3) -0.6183(3) 0.1342(2)
C10 C 0.2402(3) -0.5016(2) 0.1541(2)
H10 H 0.2540(3) -0.5015(2) 0.2179(2)
N2 N 0.1676(2) -0.4329(2) 0.1143(2)
O2 O -0.0035(2) -0.19929(13) 0.23468(13)
O3 O 0.1185(2) -0.07873(14) 0.19658(15)
C11 C 0.0370(2) -0.1108(2) 0.2403(2)
C12 C -0.0203(2) -0.0435(2) 0.3061(2)
C13 C 0.0010(2) 0.0572(2) 0.3032(2)
H11 H 0.0496(2) 0.0821(2) 0.2598(2)
C14 C -0.0483(2) 0.1213(2) 0.3633(2)
H12 H -0.0348(2) 0.1887(2) 0.3587(2)
C15 C -0.1186(2) 0.0856(2) 0.4313(2)
C16 C -0.1391(2) -0.0156(2) 0.4334(2)
H13 H -0.1857(2) -0.0412(2) 0.4777(2)
C17 C -0.0923(2) -0.0792(2) 0.3715(2)
H14 H -0.1091(2) -0.1463(2) 0.3738(2)
C18 C -0.1664(2) 0.1468(2) 0.5041(2)
H15 H -0.2023(2) 0.1117(2) 0.5492(2)
C19 C -0.1660(2) 0.2443(2) 0.5150(2)
H16 H -0.1972(2) 0.2672(2) 0.5682(2)
C20 C -0.1222(2) 0.3213(2) 0.4534(2)
C21 C -0.1984(2) 0.3636(2) 0.3852(2)
H17 H -0.2763(2) 0.3405(2) 0.3756(2)
C22 C -0.1606(2) 0.4399(2) 0.3309(2)
H18 H -0.2137(2) 0.4681(2) 0.2862(2)
C23 C -0.0444(2) 0.4740(2) 0.3430(2)
C24 C 0.0336(3) 0.4305(2) 0.4101(2)
H19 H 0.1123(3) 0.4520(2) 0.4181(2)
C25 C -0.0049(3) 0.3556(2) 0.4650(2)
H20 H 0.0479(3) 0.3278(2) 0.5100(2)
O4 O -0.0683(2) 0.58775(13) 0.21745(13)
C26 C -0.0024(2) 0.5567(2) 0.2855(2)
O5 O 0.0998(2) 0.59363(13) 0.30409(12)
O4_2 O -0.0683(2) -0.41225(13) 0.21745(13)
Co1_2 Co 0.08621(3) 0.68341(3) 0.18611(2)
O5_2 O 0.0998(2) -0.40637(13) 0.30409(12)
loop_
_geom_bond_atom_site_label_1
_geom_bond_atom_site_label_2
_geom_bond_site_symmetry_1
_geom_bond_site_symmetry_2
Co1 O1 1_555 1_555
O1 H1 1_555 1_555
H2 O1 1_555 1_555
N1 Co1 1_555 1_555
C1 N1 1_555 1_555
H3 C1 1_555 1_555
C2 C1 1_555 1_555
H4 C2 1_555 1_555
C3 C2 1_555 1_555
H5 C3 1_555 1_555
C4 C3 1_555 1_555
H6 C4 1_555 1_555
C5 N1 1_555 1_555
C6 C5 1_555 1_555
C7 C6 1_555 1_555
H7 C7 1_555 1_555
C8 C7 1_555 1_555
H8 C8 1_555 1_555
C9 C8 1_555 1_555
H9 C9 1_555 1_555
C10 C9 1_555 1_555
H10 C10 1_555 1_555
N2 Co1 1_555 1_555
O2 Co1 1_555 1_555
O3 C11 1_555 1_555
C11 O2 1_555 1_555
C12 C11 1_555 1_555
C13 C12 1_555 1_555
H11 C13 1_555 1_555
C14 C13 1_555 1_555
H12 C14 1_555 1_555
C15 C14 1_555 1_555
C16 C15 1_555 1_555
H13 C16 1_555 1_555
C17 C12 1_555 1_555
H14 C17 1_555 1_555
C18 C15 1_555 1_555
H15 C18 1_555 1_555
C19 C18 1_555 1_555
H16 C19 1_555 1_555
C20 C19 1_555 1_555
C21 C20 1_555 1_555
H17 C21 1_555 1_555
C22 C21 1_555 1_555
H18 C22 1_555 1_555
C23 C22 1_555 1_555
C24 C23 1_555 1_555
H19 C24 1_555 1_555
C25 C20 1_555 1_555
H20 C25 1_555 1_555
O4 C26 1_555 1_555
C26 C23 1_555 1_555
O5 C26 1_555 1_555
O4_2 Co1 1_555 1_555
Co1_2 O4 1_555 1_555
O5_2 Co1 1_555 1_555
C4 C5 1_555 1_555
C6 N2 1_555 1_555
C10 N2 1_555 1_555
C16 C17 1_555 1_555
C24 C25 1_555 1_555
O5 Co1_2 1_555 1_555

#END
