
#######################################################################
#
#                 Cambridge Crystallographic Data Centre
#                                CCDC 
#
#######################################################################
#
# If this CIF has been generated from an entry in the Cambridge 
# Structural Database, then it will include bibliographic, chemical, 
# crystal, experimental, refinement or atomic coordinate data resulting 
# from the CCDC's data processing and validation procedures.
#
#######################################################################

data_HOXRET
_symmetry_cell_setting           monoclinic
_symmetry_space_group_name_H-M   'P 21/c'
_symmetry_Int_Tables_number      14
_space_group_name_Hall           '-P 2ybc'
loop_
_symmetry_equiv_pos_site_id
_symmetry_equiv_pos_as_xyz
1 x,y,z
2 -x,1/2+y,1/2-z
3 -x,-y,-z
4 x,1/2-y,1/2+z
_cell_length_a                   7.4863(15)
_cell_length_b                   18.272(4)
_cell_length_c                   16.953(5)
_cell_angle_alpha                90
_cell_angle_beta                 107.44(3)
_cell_angle_gamma                90
_cell_volume                     2212.39
loop_
_atom_site_label
_atom_site_type_symbol
_atom_site_fract_x
_atom_site_fract_y
_atom_site_fract_z
Co1 Co -1.08949(6) 0.40839(2) -0.32176(3)
O1 O -1.0418(3) 0.29153(12) -0.32809(14)
O2 O -0.8275(3) 0.37268(12) -0.33186(15)
O3 O -0.4575(3) 0.08066(13) -0.41872(14)
O4 O -0.3087(3) 0.10366(13) -0.77069(14)
O5 O -0.0277(3) 0.07770(13) -0.68915(14)
N1 N -1.0760(4) 0.52033(15) -0.34463(17)
N2 N -1.2279(4) 0.41469(15) -0.44825(17)
C1 C -1.0000(5) 0.57169(19) -0.2881(2)
H1 H -0.9471 0.5572 -0.2334
C2 C -0.9968(5) 0.6447(2) -0.3070(2)
H2 H -0.9444 0.6786 -0.2657
C3 C -1.0719(5) 0.66739(19) -0.3882(2)
C4 C -1.0689(6) 0.7469(2) -0.4113(3)
H3 H -1.0091 0.7751 -0.3628
H4 H -1.1949 0.7640 -0.4352
H5 H -1.0008 0.7523 -0.4508
C5 C -1.1499(5) 0.61395(18) -0.4470(2)
H6 H -1.2019 0.6271 -0.5021
C6 C -1.1505(4) 0.54182(17) -0.42399(19)
C7 C -1.2337(4) 0.48170(18) -0.4827(2)
C8 C -1.3112(4) 0.49227(19) -0.5677(2)
H7 H -1.3122 0.5388 -0.5901
C9 C -1.3868(4) 0.4336(2) -0.6191(2)
C10 C -1.4696(6) 0.4436(2) -0.7107(2)
H8 H -1.4616 0.4942 -0.7246
H9 H -1.5985 0.4287 -0.7272
H10 H -1.4017 0.4143 -0.7390
C11 C -1.3809(5) 0.3655(2) -0.5823(2)
H11 H -1.4305 0.3248 -0.6143
C12 C -1.3009(5) 0.3585(2) -0.4978(2)
H12 H -1.2978 0.3123 -0.4744
C13 C -0.8834(5) 0.30683(18) -0.33687(19)
C14 C -0.7653(4) 0.24776(18) -0.35597(19)
C15 C -0.5862(5) 0.26189(19) -0.3591(2)
H13 H -0.5347 0.3083 -0.3460
C16 C -0.4827(5) 0.20685(19) -0.3817(2)
H14 H -0.3619 0.2161 -0.3837
C17 C -0.5613(5) 0.13843(19) -0.4012(2)
C18 C -0.7381(4) 0.12268(18) -0.39684(19)
H15 H -0.7879 0.0759 -0.4087
C19 C -0.8404(5) 0.17802(18) -0.3743(2)
H16 H -0.9603 0.1683 -0.3715
C20 C -0.3989(5) 0.08762(18) -0.4892(2)
C21 C -0.2166(4) 0.06866(18) -0.4810(2)
H17 H -0.1371 0.0539 -0.4300
C22 C -0.1531(5) 0.07175(18) -0.5495(2)
H18 H -0.0289 0.0603 -0.5441
C23 C -0.2720(4) 0.09162(17) -0.62610(19)
C24 C -0.1983(5) 0.09113(17) -0.6989(2)
C25 C -0.4571(5) 0.10921(19) -0.6336(2)
H19 H -0.5384 0.1222 -0.6849
C26 C -0.5207(5) 0.1075(2) -0.5650(2)
H20 H -0.6442 0.1195 -0.5699
Co1C Co -0.08949(6) 0.09161(2) -0.82176(3)
O4C O -1.3087(3) 0.39634(13) -0.27069(14)
O5C O -1.0277(3) 0.42230(13) -0.18915(14)
loop_
_geom_bond_atom_site_label_1
_geom_bond_atom_site_label_2
_geom_bond_site_symmetry_1
_geom_bond_site_symmetry_2
Co1 O1 1_555 1_555
O1 C13 1_555 1_555
O2 Co1 1_555 1_555
O3 C17 1_555 1_555
O4 C24 1_555 1_555
O5 C24 1_555 1_555
N1 Co1 1_555 1_555
N2 Co1 1_555 1_555
C1 N1 1_555 1_555
H1 C1 1_555 1_555
C2 C1 1_555 1_555
H2 C2 1_555 1_555
C3 C2 1_555 1_555
C4 C3 1_555 1_555
H3 C4 1_555 1_555
H4 C4 1_555 1_555
H5 C4 1_555 1_555
C5 C3 1_555 1_555
H6 C5 1_555 1_555
C6 N1 1_555 1_555
C7 N2 1_555 1_555
C8 C7 1_555 1_555
H7 C8 1_555 1_555
C9 C8 1_555 1_555
C10 C9 1_555 1_555
H8 C10 1_555 1_555
H9 C10 1_555 1_555
H10 C10 1_555 1_555
C11 C9 1_555 1_555
H11 C11 1_555 1_555
C12 N2 1_555 1_555
H12 C12 1_555 1_555
C13 O2 1_555 1_555
C14 C13 1_555 1_555
C15 C14 1_555 1_555
H13 C15 1_555 1_555
C16 C15 1_555 1_555
H14 C16 1_555 1_555
C17 C16 1_555 1_555
C18 C17 1_555 1_555
H15 C18 1_555 1_555
C19 C14 1_555 1_555
H16 C19 1_555 1_555
C20 O3 1_555 1_555
C21 C20 1_555 1_555
H17 C21 1_555 1_555
C22 C21 1_555 1_555
H18 C22 1_555 1_555
C23 C22 1_555 1_555
C24 C23 1_555 1_555
C25 C23 1_555 1_555
H19 C25 1_555 1_555
C26 C20 1_555 1_555
H20 C26 1_555 1_555
Co1C O4 1_555 1_555
O4C Co1 1_555 1_555
O5C Co1 1_555 1_555
O5 Co1C 1_555 1_555
C5 C6 1_555 1_555
C6 C7 1_555 1_555
C11 C12 1_555 1_555
C18 C19 1_555 1_555
C25 C26 1_555 1_555

#END
