
#######################################################################
#
#                 Cambridge Crystallographic Data Centre
#                                CCDC 
#
#######################################################################
#
# If this CIF has been generated from an entry in the Cambridge 
# Structural Database, then it will include bibliographic, chemical, 
# crystal, experimental, refinement or atomic coordinate data resulting 
# from the CCDC's data processing and validation procedures.
#
#######################################################################

data_HOXRAP
_symmetry_cell_setting           monoclinic
_symmetry_space_group_name_H-M   'P 21/c'
_symmetry_Int_Tables_number      14
_space_group_name_Hall           '-P 2ybc'
loop_
_symmetry_equiv_pos_site_id
_symmetry_equiv_pos_as_xyz
1 x,y,z
2 -x,1/2+y,1/2-z
3 -x,-y,-z
4 x,1/2-y,1/2+z
_cell_length_a                   13.76(2)
_cell_length_b                   9.815(17)
_cell_length_c                   8.759(12)
_cell_angle_alpha                90
_cell_angle_beta                 104.111(17)
_cell_angle_gamma                90
_cell_volume                     1147.25
loop_
_atom_site_label
_atom_site_type_symbol
_atom_site_fract_x
_atom_site_fract_y
_atom_site_fract_z
Cd1 Cd 0.89925(4) 0.59895(5) 0.23514(7)
O1 O 0.9634(5) 0.3828(5) 0.2522(7)
C1 C 0.7028(6) 0.3989(8) 0.0881(9)
O2 O 0.8612(5) 0.5342(6) 0.4677(7)
O3 O 0.8961(4) 0.6771(5) -0.0103(7)
N1 N 0.7848(5) 0.4559(6) 0.0317(8)
O4 O 0.8010(5) 0.7196(6) -0.2480(7)
C2 C 0.8225(6) 0.6541(7) -0.1222(10)
C3 C 0.8549(7) 0.3540(8) -0.0021(9)
H1 H 0.8936 0.3946 -0.0693
H2 H 0.8170 0.2787 -0.0592
C4 C 0.9262(6) 0.2997(7) 0.1459(9)
C5 C 0.7501(7) 0.5464(8) -0.1052(10)
H3 H 0.6882 0.5896 -0.0970
H4 H 0.7353 0.4912 -0.2000
C6 C 0.6772(7) 0.2650(9) 0.0769(12)
H5 H 0.7157 0.2029 0.0369
C7 C 0.5384(9) 0.3091(13) 0.1914(15)
H6 H 0.4836 0.2785 0.2264
C8 C 0.5643(10) 0.4392(13) 0.2048(18)
H7 H 0.5272 0.4995 0.2498
C9 C 0.6451(9) 0.4876(10) 0.1536(15)
H8 H 0.6611 0.5797 0.1629
O5 O 0.9467(4) 0.1749(5) 0.1496(7)
C10 C 0.5929(8) 0.2205(11) 0.1256(14)
H9 H 0.5738 0.1295 0.1129
H10 H 0.88(2) 0.461(18) 0.53(3)
H11 H 0.89(2) 0.608(18) 0.52(3)
Cd1A Cd 1.10075(4) 0.09895(5) 0.26486(7)
Cd1C Cd 0.89925(4) 0.90105(5) -0.26486(7)
O4C O 0.8010(5) 0.7804(6) 0.2520(7)
O5A O 1.0533(4) 0.6749(5) 0.3504(7)
O6 O 0.6601(14) 0.6182(18) -0.496(3)
loop_
_geom_bond_atom_site_label_1
_geom_bond_atom_site_label_2
_geom_bond_site_symmetry_1
_geom_bond_site_symmetry_2
Cd1 O1 1_555 1_555
O1 C4 1_555 1_555
C1 N1 1_555 1_555
O2 Cd1 1_555 1_555
O3 Cd1 1_555 1_555
N1 Cd1 1_555 1_555
O4 C2 1_555 1_555
C2 O3 1_555 1_555
C3 N1 1_555 1_555
H1 C3 1_555 1_555
H2 C3 1_555 1_555
C4 C3 1_555 1_555
C5 N1 1_555 1_555
H3 C5 1_555 1_555
H4 C5 1_555 1_555
C6 C1 1_555 1_555
H5 C6 1_555 1_555
C7 H6 1_555 1_555
C8 C7 1_555 1_555
H7 C8 1_555 1_555
C9 C1 1_555 1_555
H8 C9 1_555 1_555
O5 C4 1_555 1_555
C10 C6 1_555 1_555
H9 C10 1_555 1_555
H10 O2 1_555 1_555
H11 O2 1_555 1_555
Cd1A O5 1_555 1_555
Cd1C O4 1_555 1_555
O4C Cd1 1_555 1_555
O5A Cd1 1_555 1_555
C2 C5 1_555 1_555
C7 C10 1_555 1_555
C8 C9 1_555 1_555

#END
