
#######################################################################
#
#                 Cambridge Crystallographic Data Centre
#                                CCDC 
#
#######################################################################
#
# If this CIF has been generated from an entry in the Cambridge 
# Structural Database, then it will include bibliographic, chemical, 
# crystal, experimental, refinement or atomic coordinate data resulting 
# from the CCDC's data processing and validation procedures.
#
#######################################################################

data_HOXRUH
_symmetry_cell_setting           orthorhombic
_symmetry_space_group_name_H-M   'P c c a'
_symmetry_Int_Tables_number      54
_space_group_name_Hall           '-P 2a 2ac'
loop_
_symmetry_equiv_pos_site_id
_symmetry_equiv_pos_as_xyz
1 x,y,z
2 1/2+x,y,-z
3 x,-y,1/2+z
4 1/2-x,y,1/2+z
5 -x,-y,-z
6 1/2-x,-y,z
7 -x,y,1/2-z
8 1/2+x,-y,1/2-z
_cell_length_a                   11.108(2)
_cell_length_b                   8.886(2)
_cell_length_c                   15.397(3)
_cell_angle_alpha                90
_cell_angle_beta                 90
_cell_angle_gamma                90
_cell_volume                     1519.77
loop_
_atom_site_label
_atom_site_type_symbol
_atom_site_fract_x
_atom_site_fract_y
_atom_site_fract_z
Cu1 Cu 0.42003(3) 0.83253(4) 0.16707(2)
Cu2 Cu 0.7500 0.5000 0.08608(2)
Cu3 Cu 0.84738(3) 0.34159(3) -0.281338(19)
Cu4 Cu 1.0000 0.0000 -0.5000
N1 N 0.7500 0.5000 -0.04335(18)
N2 N 0.79048(19) 0.4407(2) -0.18070(12)
C1 C 0.2909(2) 0.9600(3) 0.17877(16)
N3 N 0.54492(19) 0.7043(3) 0.14451(15)
C2 C 0.6233(2) 0.6239(3) 0.12624(15)
N4 N 0.9095(2) 0.2125(3) -0.36455(16)
C3 C 0.9444(2) 0.1317(3) -0.41736(14)
C4 C 0.8118(2) 0.4101(3) -0.09763(15)
H1 H 0.8638 0.3347 -0.0790
C1E C 0.2091(2) 1.0400(3) 0.17877(16)
Cu1E Cu 0.07997(3) 1.16747(4) 0.16707(2)
N3E N -0.04492(19) 1.2957(3) 0.14451(15)
C2E C -0.1233(2) 1.3761(3) 0.12624(15)
Cu2E Cu -0.2500 1.5000 0.08608(2)
N1E N -0.2500 1.5000 -0.04335(18)
C4E C -0.3118(2) 1.5899(3) -0.09763(15)
N2E N -0.29048(19) 1.5593(2) -0.18070(12)
Cu3E Cu -0.34738(3) 1.65841(3) -0.281338(19)
N4E N -0.4095(2) 1.7875(3) -0.36455(16)
C3E C -0.4444(2) 1.8683(3) -0.41736(14)
Cu4E Cu -0.5000 2.0000 -0.5000
C3A C -0.5556(2) 2.1317(3) -0.58264(14)
N4A N -0.5905(2) 2.2125(3) -0.63545(16)
Cu3A Cu -0.65262(3) 2.34159(3) -0.718662(19)
N2A N -0.70952(19) 2.4407(2) -0.81930(12)
N2D N -0.79048(19) 2.5593(2) -0.81930(12)
Cu3D Cu -0.84738(3) 2.65841(3) -0.718662(19)
N4D N -0.9095(2) 2.7875(3) -0.63545(16)
C3D C -0.9444(2) 2.8683(3) -0.58264(14)
Cu4D Cu -1.0000 3.0000 -0.5000
C3_2 C -1.0556(2) 3.1317(3) -0.41736(14)
N4_2 N -1.0905(2) 3.2125(3) -0.36455(16)
Cu3_2 Cu -1.15262(3) 3.34159(3) -0.281338(19)
N2_2 N -1.20952(19) 3.4407(2) -0.18070(12)
N2E_2 N -1.29048(19) 3.5593(2) -0.18070(12)
C4_2 C -1.1882(2) 3.4101(3) -0.09763(15)
N1_2 N -1.2500 3.5000 -0.04335(18)
Cu2_2 Cu -1.2500 3.5000 0.08608(2)
C4E_2 C -1.3118(2) 3.5899(3) -0.09763(15)
H1_2 H -1.1362 3.3347 -0.0790
C4D C -0.8118(2) 2.5899(3) -0.90237(15)
N1D N -0.7500 2.5000 -0.95665(18)
Cu2D Cu -0.7500 2.5000 -1.08608(2)
C2D C -0.6233(2) 2.3761(3) -1.12624(15)
N3D N -0.54492(19) 2.2957(3) -1.14451(15)
Cu1D Cu -0.42003(3) 2.16747(4) -1.16707(2)
C1D C -0.2909(2) 2.0400(3) -1.17877(16)
C1A C -0.2091(2) 1.9600(3) -1.17877(16)
Cu1A Cu -0.07997(3) 1.83253(4) -1.16707(2)
N3A N 0.04492(19) 1.7043(3) -1.14451(15)
C2A C 0.1233(2) 1.6239(3) -1.12624(15)
Cu2A Cu 0.2500 1.5000 -1.08608(2)
N1A N 0.2500 1.5000 -0.95665(18)
C2D_2 C 0.3767(2) 1.3761(3) -1.12624(15)
C2A_2 C -0.8767(2) 2.6239(3) -1.12624(15)
C4A C -0.6882(2) 2.4101(3) -0.90237(15)
H1A H -0.6362 2.3347 -0.9210
H1D H -0.8638 2.6653 -0.9210
N2_3 N -0.20952(19) 1.4407(2) -0.18070(12)
Cu3_3 Cu -0.15262(3) 1.34159(3) -0.281338(19)
C4_3 C -0.1882(2) 1.4101(3) -0.09763(15)
H1E H -0.3638 1.6653 -0.0790
C2_2 C -0.3767(2) 1.6239(3) 0.12624(15)
N3_2 N -0.45508(19) 1.7043(3) 0.14451(15)
Cu1_2 Cu -0.57997(3) 1.83253(4) 0.16707(2)
C1_2 C -0.7091(2) 1.9600(3) 0.17877(16)
C2E_2 C 0.8767(2) 0.3761(3) 0.12624(15)
C3D_2 C 1.0556(2) -0.1317(3) -0.58264(14)
C4E_3 C 0.6882(2) 0.5899(3) -0.09763(15)
N2E_3 N 0.70952(19) 0.5593(2) -0.18070(12)
H1E_2 H -1.3638 3.6653 -0.0790
Cu3E_2 Cu -1.34738(3) 3.65841(3) -0.281338(19)
Cu3E_3 Cu 0.65262(3) 0.65841(3) -0.281338(19)
H1E_3 H 0.6362 0.6653 -0.0790
loop_
_geom_bond_atom_site_label_1
_geom_bond_atom_site_label_2
_geom_bond_site_symmetry_1
_geom_bond_site_symmetry_2
Cu1 C1 1_555 1_555
Cu2 N1 1_555 1_555
Cu3 N2 1_555 1_555
Cu4 C3 1_555 1_555
N1 C4 1_555 1_555
N2 C4 1_555 1_555
C1 C1E 1_555 1_555
N3 Cu1 1_555 1_555
C2 Cu2 1_555 1_555
N4 Cu3 1_555 1_555
C3 N4 1_555 1_555
C4 H1 1_555 1_555
C1E Cu1E 1_555 1_555
Cu1E N3E 1_555 1_555
N3E C2E 1_555 1_555
C2E Cu2E 1_555 1_555
Cu2E N1E 1_555 1_555
N1E C4E 1_555 1_555
C4E N2E 1_555 1_555
N2E Cu3E 1_555 1_555
Cu3E N4E 1_555 1_555
N4E C3E 1_555 1_555
C3E Cu4E 1_555 1_555
Cu4E C3A 1_555 1_555
C3A N4A 1_555 1_555
N4A Cu3A 1_555 1_555
Cu3A N2A 1_555 1_555
N2A N2D 1_555 1_555
N2D Cu3D 1_555 1_555
Cu3D N4D 1_555 1_555
N4D C3D 1_555 1_555
C3D Cu4D 1_555 1_555
Cu4D C3_2 1_555 1_555
C3_2 N4_2 1_555 1_555
N4_2 Cu3_2 1_555 1_555
Cu3_2 N2_2 1_555 1_555
N2_2 N2E_2 1_555 1_555
N2E_2 C4E_2 1_555 1_555
C4_2 N2_2 1_555 1_555
N1_2 C4_2 1_555 1_555
Cu2_2 N1_2 1_555 1_555
C4E_2 N1_2 1_555 1_555
H1_2 C4_2 1_555 1_555
C4D N2D 1_555 1_555
N1D C4D 1_555 1_555
Cu2D N1D 1_555 1_555
C2D Cu2D 1_555 1_555
N3D C2D 1_555 1_555
Cu1D N3D 1_555 1_555
C1D Cu1D 1_555 1_555
C1A C1D 1_555 1_555
Cu1A C1A 1_555 1_555
N3A Cu1A 1_555 1_555
C2A N3A 1_555 1_555
Cu2A C2A 1_555 1_555
N1A Cu2A 1_555 1_555
C2D_2 Cu2A 1_555 1_555
C2A_2 Cu2D 1_555 1_555
C4A N2A 1_555 1_555
H1A C4A 1_555 1_555
H1D C4D 1_555 1_555
N2_3 N2E 1_555 1_555
Cu3_3 N2_3 1_555 1_555
C4_3 N1E 1_555 1_555
H1E C4E 1_555 1_555
C2_2 Cu2E 1_555 1_555
N3_2 C2_2 1_555 1_555
Cu1_2 N3_2 1_555 1_555
C1_2 Cu1_2 1_555 1_555
C2E_2 Cu2 1_555 1_555
C3D_2 Cu4 1_555 1_555
C4E_3 N1 1_555 1_555
N2E_3 N2 1_555 1_555
H1E_2 C4E_2 1_555 1_555
Cu3E_2 N2E_2 1_555 1_555
Cu3E_3 N2E_3 1_555 1_555
H1E_3 C4E_3 1_555 1_555
N3 C2 1_555 1_555
N1D C4A 1_555 1_555
N2_3 C4_3 1_555 1_555
C4E_3 N2E_3 1_555 1_555

#END
