
#######################################################################
#
#                 Cambridge Crystallographic Data Centre
#                                CCDC 
#
#######################################################################
#
# If this CIF has been generated from an entry in the Cambridge 
# Structural Database, then it will include bibliographic, chemical, 
# crystal, experimental, refinement or atomic coordinate data resulting 
# from the CCDC's data processing and validation procedures.
#
#######################################################################

data_HOXSIW
_symmetry_cell_setting           triclinic
_symmetry_space_group_name_H-M   'P -1'
_symmetry_Int_Tables_number      2
_space_group_name_Hall           '-P 1'
loop_
_symmetry_equiv_pos_site_id
_symmetry_equiv_pos_as_xyz
1 x,y,z
2 -x,-y,-z
_cell_length_a                   8.542(2)
_cell_length_b                   9.802(2)
_cell_length_c                   20.439(4)
_cell_angle_alpha                82.468(5)
_cell_angle_beta                 83.126(5)
_cell_angle_gamma                79.832(5)
_cell_volume                     1661.73
loop_
_atom_site_label
_atom_site_type_symbol
_atom_site_fract_x
_atom_site_fract_y
_atom_site_fract_z
Cu1 Cu -0.11143(5) -0.84996(4) 0.45030(2)
Cu2 Cu -0.30509(6) -0.36263(4) 0.37658(2)
Cu5 Cu -0.54461(6) 0.02194(5) 0.22678(2)
N1 N 0.1910(4) -0.7632(3) 0.58145(15)
N2 N 0.0333(4) -0.8446(3) 0.52141(15)
N3 N -0.1140(4) -1.0432(3) 0.44051(15)
N7 N -0.6878(4) 0.0863(3) 0.15274(15)
N8 N -0.5421(4) 0.2326(3) 0.22202(15)
C1 C -0.2090(4) -0.6702(3) 0.42027(17)
N11 N -0.2571(4) -0.5541(3) 0.40429(16)
C2 C -0.4314(4) -0.2349(3) 0.31743(16)
N12 N -0.4790(5) -0.1387(4) 0.28174(19)
C5 C 0.0835(4) -0.7339(3) 0.53650(17)
H1 H 0.0477 -0.6438 0.5178
C6 C -0.2040(4) -1.0966(3) 0.40544(17)
H2 H -0.2693 -1.0434 0.3750
C9 C -0.7535(5) 0.0110(5) 0.1168(2)
H5 H -0.7311 -0.0858 0.1245
C10 C -0.8541(6) 0.0712(6) 0.0682(2)
H6 H -0.8970 0.0157 0.0438
C11 C -0.8887(5) 0.2144(6) 0.0571(2)
H7 H -0.9556 0.2561 0.0248
C12 C -0.8243(5) 0.2970(5) 0.09371(19)
C13 C -0.8502(6) 0.4467(5) 0.0843(2)
H8 H -0.9190 0.4938 0.0538
C14 C -0.7763(6) 0.5203(4) 0.1189(2)
H9 H -0.7966 0.6172 0.1120
C15 C -0.6671(5) 0.4531(4) 0.1663(2)
C16 C -0.5823(6) 0.5239(4) 0.2026(2)
H10 H -0.5949 0.6207 0.1967
C17 C -0.4825(5) 0.4496(4) 0.2459(2)
H11 H -0.4255 0.4953 0.2696
C18 C -0.4654(5) 0.3034(4) 0.25496(19)
H12 H -0.3974 0.2542 0.2854
C19 C -0.6428(5) 0.3060(4) 0.17797(18)
C20 C -0.7211(5) 0.2273(4) 0.14097(18)
N3A N 0.1140(4) -0.9568(3) 0.55949(15)
N2A N -0.0333(4) -1.1554(3) 0.47859(15)
N1A N -0.1910(4) -0.2368(3) 0.41855(15)
N1A_2 N -0.1910(4) -1.2368(3) 0.41855(15)
Cu1A Cu 0.11143(5) -1.15004(4) 0.54970(2)
C6A C 0.2040(4) -0.9034(3) 0.59456(17)
C5A C -0.0835(4) -1.2661(3) 0.46350(17)
Cu2A Cu 0.30509(6) -0.63737(4) 0.62342(2)
Cu2_2 Cu -0.30509(6) -1.36263(4) 0.37658(2)
C1A C 0.2090(4) -1.3298(3) 0.57973(17)
H2A H 0.2693 -0.9566 0.6250
H1A H -0.0477 -1.3562 0.4822
N11A N 0.2571(4) -0.4459(3) 0.59571(16)
C2A C 0.4314(4) -0.7651(3) 0.68257(16)
N11A_2 N 0.2571(4) -1.4459(3) 0.59571(16)
N12A N 0.4790(5) -0.8613(4) 0.71826(19)
Cu2A_2 Cu 0.30509(6) -1.63737(4) 0.62342(2)
Cu5A Cu 0.54461(6) -1.02194(5) 0.77322(2)
N7A N 0.6878(4) -1.0863(3) 0.84726(15)
N8A N 0.5421(4) -1.2326(3) 0.77798(15)
C9A C 0.7535(5) -1.0110(5) 0.8832(2)
C20A C 0.7211(5) -1.2273(4) 0.85903(18)
C18A C 0.4654(5) -1.3034(4) 0.74504(19)
C19A C 0.6428(5) -1.3060(4) 0.82203(18)
H5A H 0.7311 -0.9142 0.8755
C10A C 0.8541(6) -1.0712(6) 0.9318(2)
C12A C 0.8243(5) -1.2970(5) 0.90629(19)
C17A C 0.4825(5) -1.4496(4) 0.7541(2)
H12A H 0.3974 -1.2542 0.7146
C15A C 0.6671(5) -1.4531(4) 0.8337(2)
H6A H 0.8970 -1.0157 0.9562
C11A C 0.8887(5) -1.2144(6) 0.9429(2)
C13A C 0.8502(6) -1.4467(5) 0.9157(2)
C16A C 0.5823(6) -1.5239(4) 0.7974(2)
H11A H 0.4255 -1.4953 0.7304
C14A C 0.7763(6) -1.5203(4) 0.8811(2)
H7A H 0.9556 -1.2561 0.9752
H8A H 0.9190 -1.4938 0.9462
H10A H 0.5949 -1.6207 0.8033
H9A H 0.7966 -1.6172 0.8880
Cu3 Cu -0.23956(6) -0.02364(4) 0.14020(2)
Cu4 Cu -0.39415(6) -0.41290(4) 0.05037(2)
Cu6 Cu 0.01890(6) 0.19839(5) 0.28790(2)
N4 N -0.6937(4) -0.1561(3) -0.08091(15)
N5 N -0.5583(4) -0.3192(3) -0.01248(15)
N6 N -0.3645(4) -0.6143(3) 0.05154(14)
N9 N 0.0250(4) 0.4095(3) 0.28218(15)
N10 N 0.1833(4) 0.1880(3) 0.35172(15)
C3 C -0.3174(4) -0.2806(3) 0.09174(16)
N13 N -0.2823(4) -0.1883(3) 0.11207(17)
C4 C -0.1361(4) 0.0354(3) 0.20680(16)
N14 N -0.0780(5) 0.0934(4) 0.24044(19)
C7 C -0.5966(4) -0.1843(3) -0.03190(18)
H3 H -0.5599 -0.1156 -0.0134
C8 C -0.2863(4) -0.7148(3) 0.09103(18)
H4 H -0.2240 -0.6982 0.1225
C21 C -0.0549(5) 0.5185(4) 0.24675(19)
H13 H -0.1230 0.5019 0.2175
C22 C -0.0404(5) 0.6558(4) 0.2519(2)
H14 H -0.0976 0.7288 0.2263
C23 C 0.0587(5) 0.6826(4) 0.2950(2)
H15 H 0.0691 0.7740 0.2989
C24 C 0.1444(5) 0.5712(4) 0.33321(18)
C25 C 0.2526(5) 0.5872(4) 0.37935(19)
H16 H 0.2656 0.6763 0.3862
C26 C 0.3361(5) 0.4750(4) 0.41300(19)
H17 H 0.4055 0.4885 0.4424
C27 C 0.3197(4) 0.3368(4) 0.40426(18)
C28 C 0.4082(5) 0.2158(4) 0.43556(18)
H18 H 0.4832 0.2234 0.4637
C29 C 0.3834(5) 0.0868(4) 0.4243(2)
H19 H 0.4435 0.0065 0.4438
C30 C 0.2674(5) 0.0772(4) 0.38350(19)
H20 H 0.2479 -0.0109 0.3782
C31 C 0.2106(4) 0.3171(3) 0.36143(17)
C32 C 0.1232(4) 0.4356(4) 0.32485(17)
N6A N -0.6355(4) -0.3857(3) -0.05154(14)
N5A N -0.4417(4) -0.6808(3) 0.01248(15)
Cu4A Cu -0.60585(6) -0.58710(4) -0.05037(2)
C8A C -0.7137(4) -0.2852(3) -0.09103(18)
N4A N -0.3063(4) 0.1561(3) 0.08091(15)
N4A_2 N -0.3063(4) -0.8439(3) 0.08091(15)
C7A C -0.4034(4) -0.8157(3) 0.03190(18)
C3A C -0.6826(4) -0.7194(3) -0.09174(16)
H4A H -0.7760 -0.3018 -0.1225
Cu3A Cu -0.76044(6) 0.02364(4) -0.14020(2)
Cu3_2 Cu -0.23956(6) -1.02364(4) 0.14020(2)
H3A H -0.4401 -0.8844 0.0134
N13A N -0.7177(4) -0.8117(3) -0.11207(17)
N13A_2 N -0.7177(4) 0.1883(3) -0.11207(17)
C4A C -0.8639(4) -0.0354(3) -0.20680(16)
Cu3A_2 Cu -0.76044(6) -0.97636(4) -0.14020(2)
N14A N -0.9220(5) -0.0934(4) -0.24044(19)
Cu6A Cu -1.01890(6) -0.19839(5) -0.28790(2)
N9A N -1.0250(4) -0.4095(3) -0.28218(15)
N10A N -1.1833(4) -0.1880(3) -0.35172(15)
C21A C -0.9451(5) -0.5185(4) -0.24675(19)
C32A C -1.1232(4) -0.4356(4) -0.32485(17)
C30A C -1.2674(5) -0.0772(4) -0.38350(19)
C31A C -1.2106(4) -0.3171(3) -0.36143(17)
H13A H -0.8770 -0.5019 -0.2175
C22A C -0.9596(5) -0.6558(4) -0.2519(2)
C24A C -1.1444(5) -0.5712(4) -0.33321(18)
C29A C -1.3834(5) -0.0868(4) -0.4243(2)
H20A H -1.2479 0.0109 -0.3782
C27A C -1.3197(4) -0.3368(4) -0.40426(18)
H14A H -0.9024 -0.7288 -0.2263
C23A C -1.0587(5) -0.6826(4) -0.2950(2)
C25A C -1.2526(5) -0.5872(4) -0.37935(19)
C28A C -1.4082(5) -0.2158(4) -0.43556(18)
H19A H -1.4435 -0.0065 -0.4438
C26A C -1.3361(5) -0.4750(4) -0.41300(19)
H15A H -1.0691 -0.7740 -0.2989
H16A H -1.2656 -0.6763 -0.3862
H18A H -1.4832 -0.2234 -0.4637
H17A H -1.4055 -0.4885 -0.4424
loop_
_geom_bond_atom_site_label_1
_geom_bond_atom_site_label_2
_geom_bond_site_symmetry_1
_geom_bond_site_symmetry_2
Cu1 N2 1_555 1_555
Cu2 N11 1_555 1_555
Cu3 N13 1_555 1_555
Cu4 N5 1_555 1_555
Cu5 N7 1_555 1_555
Cu6 N9 1_555 1_555
N1 C5 1_555 1_555
N2 C5 1_555 1_555
N3 Cu1 1_555 1_555
N4 C7 1_555 1_555
N5 C7 1_555 1_555
N6 Cu4 1_555 1_555
N7 C9 1_555 1_555
N8 Cu5 1_555 1_555
N9 C21 1_555 1_555
N10 Cu6 1_555 1_555
C1 Cu1 1_555 1_555
N11 C1 1_555 1_555
C2 Cu2 1_555 1_555
N12 Cu5 1_555 1_555
C3 Cu4 1_555 1_555
N13 C3 1_555 1_555
C4 Cu3 1_555 1_555
N14 Cu6 1_555 1_555
C5 H1 1_555 1_555
C6 N3 1_555 1_555
H2 C6 1_555 1_555
C7 H3 1_555 1_555
C8 N6 1_555 1_555
H4 C8 1_555 1_555
C9 H5 1_555 1_555
C10 C9 1_555 1_555
H6 C10 1_555 1_555
C11 C10 1_555 1_555
H7 C11 1_555 1_555
C12 C11 1_555 1_555
C13 C12 1_555 1_555
H8 C13 1_555 1_555
C14 C13 1_555 1_555
H9 C14 1_555 1_555
C15 C14 1_555 1_555
C16 C15 1_555 1_555
H10 C16 1_555 1_555
C17 C16 1_555 1_555
H11 C17 1_555 1_555
C18 N8 1_555 1_555
H12 C18 1_555 1_555
C19 N8 1_555 1_555
C20 N7 1_555 1_555
C21 H13 1_555 1_555
C22 C21 1_555 1_555
H14 C22 1_555 1_555
C23 C22 1_555 1_555
H15 C23 1_555 1_555
C24 C23 1_555 1_555
C25 C24 1_555 1_555
H16 C25 1_555 1_555
C26 C25 1_555 1_555
H17 C26 1_555 1_555
C27 C26 1_555 1_555
C28 C27 1_555 1_555
H18 C28 1_555 1_555
C29 C28 1_555 1_555
H19 C29 1_555 1_555
C30 N10 1_555 1_555
H20 C30 1_555 1_555
C31 N10 1_555 1_555
C32 N9 1_555 1_555
N3A N2 1_555 1_555
N2A N3 1_555 1_555
N6A N5 1_555 1_555
N5A N6 1_555 1_555
N1A Cu2 1_555 1_555
N1A_2 C6 1_555 1_555
Cu1A N3A 1_555 1_555
C6A N1 1_555 1_555
C5A N2A 1_555 1_555
Cu4A N6A 1_555 1_555
C8A N4 1_555 1_555
N4A Cu3 1_555 1_555
N4A_2 C8 1_555 1_555
C7A N5A 1_555 1_555
Cu2A N1 1_555 1_555
Cu2_2 N1A_2 1_555 1_555
C1A Cu1A 1_555 1_555
H2A C6A 1_555 1_555
H1A C5A 1_555 1_555
C3A Cu4A 1_555 1_555
H4A C8A 1_555 1_555
Cu3A N4 1_555 1_555
Cu3_2 N4A_2 1_555 1_555
H3A C7A 1_555 1_555
N11A Cu2A 1_555 1_555
C2A Cu2A 1_555 1_555
N11A_2 C1A 1_555 1_555
N13A C3A 1_555 1_555
N13A_2 Cu3A 1_555 1_555
C4A Cu3A 1_555 1_555
N12A C2A 1_555 1_555
Cu2A_2 N11A_2 1_555 1_555
Cu3A_2 N13A 1_555 1_555
N14A C4A 1_555 1_555
Cu5A N12A 1_555 1_555
Cu6A N14A 1_555 1_555
N7A Cu5A 1_555 1_555
N8A Cu5A 1_555 1_555
N9A Cu6A 1_555 1_555
N10A Cu6A 1_555 1_555
C9A N7A 1_555 1_555
C20A N7A 1_555 1_555
C18A N8A 1_555 1_555
C19A N8A 1_555 1_555
C21A N9A 1_555 1_555
C32A N9A 1_555 1_555
C30A N10A 1_555 1_555
C31A N10A 1_555 1_555
H5A C9A 1_555 1_555
C10A C9A 1_555 1_555
C12A C20A 1_555 1_555
C17A C18A 1_555 1_555
H12A C18A 1_555 1_555
C15A C19A 1_555 1_555
H13A C21A 1_555 1_555
C22A C21A 1_555 1_555
C24A C32A 1_555 1_555
C29A C30A 1_555 1_555
H20A C30A 1_555 1_555
C27A C31A 1_555 1_555
H6A C10A 1_555 1_555
C11A C10A 1_555 1_555
C13A C12A 1_555 1_555
C16A C17A 1_555 1_555
H11A C17A 1_555 1_555
C14A C15A 1_555 1_555
H7A C11A 1_555 1_555
H8A C13A 1_555 1_555
H10A C16A 1_555 1_555
H9A C14A 1_555 1_555
H14A C22A 1_555 1_555
C23A C22A 1_555 1_555
C25A C24A 1_555 1_555
C28A C29A 1_555 1_555
H19A C29A 1_555 1_555
C26A C27A 1_555 1_555
H15A C23A 1_555 1_555
H16A C25A 1_555 1_555
H18A C28A 1_555 1_555
H17A C26A 1_555 1_555
C2 N12 1_555 1_555
C4 N14 1_555 1_555
C12 C20 1_555 1_555
C15 C19 1_555 1_555
C17 C18 1_555 1_555
C19 C20 1_555 1_555
C24 C32 1_555 1_555
C27 C31 1_555 1_555
C29 C30 1_555 1_555
C31 C32 1_555 1_555
N3A C6A 1_555 1_555
N2A Cu1A 1_555 1_555
N6A C8A 1_555 1_555
N5A Cu4A 1_555 1_555
N1A_2 C5A 1_555 1_555
N4A_2 C7A 1_555 1_555
C20A C19A 1_555 1_555
C32A C31A 1_555 1_555
C12A C11A 1_555 1_555
C15A C16A 1_555 1_555
C24A C23A 1_555 1_555
C27A C28A 1_555 1_555
C13A C14A 1_555 1_555
C25A C26A 1_555 1_555

#END
