
#######################################################################
#
#                 Cambridge Crystallographic Data Centre
#                                CCDC 
#
#######################################################################
#
# If this CIF has been generated from an entry in the Cambridge 
# Structural Database, then it will include bibliographic, chemical, 
# crystal, experimental, refinement or atomic coordinate data resulting 
# from the CCDC's data processing and validation procedures.
#
#######################################################################

data_HOXSAQ
_symmetry_cell_setting           orthorhombic
_symmetry_space_group_name_H-M   'P n m a'
_symmetry_Int_Tables_number      62
_space_group_name_Hall           '-P 2ac 2n'
loop_
_symmetry_equiv_pos_site_id
_symmetry_equiv_pos_as_xyz
1 x,y,z
2 1/2-x,-y,1/2+z
3 1/2+x,1/2-y,1/2-z
4 -x,1/2+y,-z
5 -x,-y,-z
6 1/2+x,y,1/2-z
7 1/2-x,1/2+y,1/2+z
8 x,1/2-y,z
_cell_length_a                   15.119(3)
_cell_length_b                   6.6612(13)
_cell_length_c                   14.342(3)
_cell_angle_alpha                90
_cell_angle_beta                 90
_cell_angle_gamma                90
_cell_volume                     1444.39
loop_
_atom_site_label
_atom_site_type_symbol
_atom_site_fract_x
_atom_site_fract_y
_atom_site_fract_z
C1 C 0.5753(10) 0.2500 1.0668(10)
C2 C 0.5048(9) 0.2500 0.9922(9)
C3 C 0.4132(9) 0.2500 1.0059(12)
C4 C 0.3694(12) 0.2500 1.1027(14)
C5 C 0.3232(15) 0.2500 0.7717(15)
C6 C 0.3902(13) 0.2500 0.8474(14)
C7 C 0.4821(10) 0.2500 0.8320(10)
C8 C 0.529(2) 0.2500 0.7385(12)
N1 N 0.5375(9) 0.2500 0.9063(9)
N2 N 0.3575(9) 0.2500 0.9337(12)
O1 O 0.6544(7) 0.2500 1.0377(8)
O2 O 0.5517(9) 0.2500 1.1486(8)
O3 O 0.3507(7) 0.4163(13) 1.1350(7)
O4 O 0.2945(8) 0.4142(13) 0.7421(9)
O5 O 0.4809(18) 0.2500 0.6683(10)
O6 O 0.6122(13) 0.2500 0.7423(9)
O7 O 0.8069(10) 0.465(3) 0.9486(15)
H1 H 0.8666 0.4127 0.9481
H2 H 0.7951 0.4939 1.0132
Tb1 Tb 0.70091(5) 0.2500 0.87957(6)
K1 K 0.2711(4) 0.2500 1.3091(3)
O3G O 0.3507(7) 0.0837(13) 1.1350(7)
O4G O 0.2945(8) 0.0858(13) 0.7421(9)
O7G O 0.8069(10) 0.035(3) 0.9486(15)
H1G H 0.8666 0.0873 0.9481
H2G H 0.7951 0.0061 1.0132
O1B O 0.1544(7) 0.2500 1.4623(8)
O2B O 0.0517(9) 0.2500 1.3514(8)
O3C O 0.6493(7) -0.0837(13) 0.8650(7)
O3D O 0.6493(7) 0.5837(13) 0.8650(7)
O4A O 0.2055(8) 0.5858(13) 1.2421(9)
O4B O 0.7945(8) 0.0858(13) 0.7579(9)
O4E O 0.7945(8) 0.4142(13) 0.7579(9)
O4F O 0.2055(8) -0.0858(13) 1.2421(9)
Tb1B Tb 0.20091(5) 0.2500 0.62043(6)
Tb1C Tb 0.29909(5) -0.2500 1.12043(6)
Tb1C_2 Tb 0.29909(5) 0.7500 1.12043(6)
K1A K 0.2289(4) -0.2500 0.8091(3)
K1A_2 K 0.2289(4) 0.7500 0.8091(3)
K1B K 0.7711(4) 0.2500 1.1909(3)
O8 O 0.676(4) 0.2500 0.553(4)
O9 O 0.4214(16) 0.7500 0.6572(14)
loop_
_geom_bond_atom_site_label_1
_geom_bond_atom_site_label_2
_geom_bond_site_symmetry_1
_geom_bond_site_symmetry_2
C1 C2 1_555 1_555
C2 C3 1_555 1_555
C3 C4 1_555 1_555
C4 O3 1_555 1_555
C5 C6 1_555 1_555
C6 C7 1_555 1_555
C7 C8 1_555 1_555
C8 O5 1_555 1_555
N1 C2 1_555 1_555
N2 C3 1_555 1_555
O1 C1 1_555 1_555
O2 C1 1_555 1_555
O3 K1 1_555 1_555
O4 C5 1_555 1_555
O6 C8 1_555 1_555
O7 H1 1_555 1_555
H2 O7 1_555 1_555
Tb1 N1 1_555 1_555
K1 O3G 1_555 1_555
O3G C4 1_555 1_555
O4G C5 1_555 1_555
O7G Tb1 1_555 1_555
H1G O7G 1_555 1_555
H2G O7G 1_555 1_555
O1B K1 1_555 1_555
O2B K1 1_555 1_555
O3C Tb1 1_555 1_555
O3D Tb1 1_555 1_555
O4A K1 1_555 1_555
O4B Tb1 1_555 1_555
O4E Tb1 1_555 1_555
O4F K1 1_555 1_555
Tb1B O4 1_555 1_555
Tb1C O3G 1_555 1_555
Tb1C_2 O3 1_555 1_555
K1A O4G 1_555 1_555
K1A_2 O4 1_555 1_555
K1B O1 1_555 1_555
C6 N2 1_555 1_555
C7 N1 1_555 1_555
O1 Tb1 1_555 1_555
O2 K1B 1_555 1_555
O6 Tb1 1_555 1_555
O7 Tb1 1_555 1_555
O4G Tb1B 1_555 1_555
O4A Tb1C_2 1_555 1_555
O4F Tb1C 1_555 1_555

#END
