
#######################################################################
#
#                 Cambridge Crystallographic Data Centre
#                                CCDC 
#
#######################################################################
#
# If this CIF has been generated from an entry in the Cambridge 
# Structural Database, then it will include bibliographic, chemical, 
# crystal, experimental, refinement or atomic coordinate data resulting 
# from the CCDC's data processing and validation procedures.
#
#######################################################################

data_HOXTUL
_symmetry_cell_setting           monoclinic
_symmetry_space_group_name_H-M   'P 21/n'
_symmetry_Int_Tables_number      14
_space_group_name_Hall           '-P 2yn'
loop_
_symmetry_equiv_pos_site_id
_symmetry_equiv_pos_as_xyz
1 x,y,z
2 1/2-x,1/2+y,1/2-z
3 -x,-y,-z
4 1/2+x,1/2-y,1/2+z
_cell_length_a                   10.750(5)
_cell_length_b                   11.645(5)
_cell_length_c                   22.919(5)
_cell_angle_alpha                90
_cell_angle_beta                 95.060(5)
_cell_angle_gamma                90
_cell_volume                     2857.91
loop_
_atom_site_label
_atom_site_type_symbol
_atom_site_fract_x
_atom_site_fract_y
_atom_site_fract_z
Zn1 Zn 1.19696(2) 1.035121(19) 1.215916(11)
Zn2 Zn 0.29838(2) 1.177853(18) 0.795016(10)
C1 C 0.21834(18) 0.91877(16) 0.77029(9)
H1 H 0.1545 0.9118 0.7949
O1 O 1.12581(14) 0.53754(11) 1.32353(7)
O2 O 0.98164(14) 0.66705(13) 1.34353(7)
O3 O 1.03961(15) 1.01787(12) 1.27919(7)
O4 O 0.36725(14) 0.70303(12) 0.66012(7)
O5 O 0.45174(15) 1.17381(12) 0.73222(7)
O6 O 0.94320(16) 0.87799(14) 1.32394(8)
H2 H 0.9563 0.8101 1.3318
N1 N 0.25320(15) 0.83370(13) 0.73600(7)
N2 N 0.70555(18) 0.74229(15) 0.98629(8)
C2 C 1.13568(17) 0.71800(16) 1.28101(8)
O7 O 0.49884(16) 0.84368(15) 0.64067(8)
N3 N 0.28489(15) 1.01509(13) 0.76548(7)
O8 O 0.53998(18) 1.05126(15) 0.67461(9)
H3 H 0.5270 0.9859 0.6622
N4 N 0.57274(15) 1.12911(14) 0.93210(7)
N5 N 1.23576(15) 0.68428(13) 1.25225(7)
C3 C 0.63757(19) 0.93583(17) 0.96129(9)
H4 H 0.5725 0.9061 0.9363
N6 N 0.93019(16) 1.06955(14) 1.07450(8)
C4 C 1.07655(18) 0.63503(16) 1.31833(8)
N7 N 0.7515(3) 0.55720(19) 0.98709(14)
N8 N 1.08228(16) 1.07766(14) 1.14494(7)
C5 C 0.72002(19) 0.86291(17) 0.99312(9)
C6 C 0.65339(18) 1.05354(16) 0.96716(8)
N9 N 1.20084(15) 0.86956(14) 1.23386(8)
C7 C 1.02794(19) 0.91550(17) 1.29191(9)
C8 C 0.47142(18) 1.09867(17) 0.89612(9)
H5 H 0.4392 1.0246 0.8931
C9 C 0.36815(18) 0.98924(16) 0.72563(8)
N10 N 0.42438(16) 1.18671(14) 0.86612(7)
C10 C 0.4999(2) 1.27910(19) 0.88257(10)
H6 H 0.4891 1.3534 0.8681
C11 C 0.81779(19) 0.90630(17) 1.03008(9)
H7 H 0.8737 0.8570 1.0508
C12 C 1.27149(18) 0.77787(17) 1.22446(9)
H8 H 1.3381 0.7792 1.2012
C13 C 1.0648(2) 1.18511(17) 1.12104(10)
H9 H 1.1100 1.2503 1.1331
C14 C 0.83093(19) 1.02401(17) 1.03569(9)
C15 C 0.41016(19) 0.80362(17) 0.66621(9)
C16 C 1.11473(18) 0.83254(16) 1.26986(8)
C17 C 0.34857(17) 0.87784(16) 0.70761(8)
C18 C 1.00028(19) 1.01051(17) 1.11586(9)
H10 H 0.9918 0.9324 1.1229
C19 C 0.4568(2) 1.07784(17) 0.71061(9)
C20 C 0.74868(18) 1.09964(17) 1.00484(9)
H11 H 0.7574 1.1787 1.0094
C21 C 0.5918(2) 1.24518(19) 0.92283(11)
H12 H 0.6552 1.2906 0.9408
C22 C 0.6027(3) 0.6852(2) 0.96136(13)
H13 H 0.5272 0.7175 0.9466
C23 C 0.9722(2) 1.18186(18) 1.07740(11)
H14 H 0.9425 1.2429 1.0540
C24 C 0.7922(3) 0.6600(2) 1.00064(16)
H15 H 0.8718 0.6753 1.0182
C25 C 0.6329(3) 0.5731(2) 0.96258(15)
H16 H 0.5798 0.5144 0.9485
Zn1A Zn 1.30304(2) 0.535121(19) 1.284084(11)
Zn2A Zn 0.20162(2) 0.677853(18) 0.704984(10)
O1A O 1.37419(14) 1.03754(11) 1.17647(7)
O4A O 0.13275(14) 1.20303(12) 0.83988(7)
N1A N 0.24680(15) 1.33370(13) 0.76400(7)
N5A N 1.26424(15) 1.18428(13) 1.24775(7)
O9 O 0.8800(2) 1.34375(16) 0.96591(9)
H17 H 0.9124 1.3384 0.9335
H18 H 0.8557 1.4111 0.9736
O10 O 0.7186(6) 1.3632(4) 1.0770(3)
H19 H 0.7312 1.4261 1.0597
H20 H 0.6718 1.3749 1.1044
loop_
_geom_bond_atom_site_label_1
_geom_bond_atom_site_label_2
_geom_bond_site_symmetry_1
_geom_bond_site_symmetry_2
Zn1 O3 1_555 1_555
Zn2 O5 1_555 1_555
C1 H1 1_555 1_555
O1 C4 1_555 1_555
O2 C4 1_555 1_555
O3 C7 1_555 1_555
O4 C15 1_555 1_555
O5 C19 1_555 1_555
O6 H2 1_555 1_555
N1 C1 1_555 1_555
N2 C5 1_555 1_555
C2 N5 1_555 1_555
O7 C15 1_555 1_555
N3 Zn2 1_555 1_555
O8 H3 1_555 1_555
N4 C6 1_555 1_555
N5 C12 1_555 1_555
C3 H4 1_555 1_555
N6 C14 1_555 1_555
C4 C2 1_555 1_555
N7 C24 1_555 1_555
N8 Zn1 1_555 1_555
C5 C3 1_555 1_555
C6 C3 1_555 1_555
N9 Zn1 1_555 1_555
C7 O6 1_555 1_555
C8 N4 1_555 1_555
H5 C8 1_555 1_555
C9 N3 1_555 1_555
N10 Zn2 1_555 1_555
C10 N10 1_555 1_555
H6 C10 1_555 1_555
C11 C5 1_555 1_555
H7 C11 1_555 1_555
C12 N9 1_555 1_555
H8 C12 1_555 1_555
C13 N8 1_555 1_555
H9 C13 1_555 1_555
C14 C11 1_555 1_555
C15 C17 1_555 1_555
C16 C2 1_555 1_555
C17 N1 1_555 1_555
C18 N6 1_555 1_555
H10 C18 1_555 1_555
C19 O8 1_555 1_555
C20 C6 1_555 1_555
H11 C20 1_555 1_555
C21 N4 1_555 1_555
H12 C21 1_555 1_555
C22 N2 1_555 1_555
H13 C22 1_555 1_555
C23 N6 1_555 1_555
H14 C23 1_555 1_555
C24 N2 1_555 1_555
H15 C24 1_555 1_555
C25 N7 1_555 1_555
H16 C25 1_555 1_555
O9 H17 1_555 1_555
H18 O9 1_555 1_555
O10 H19 1_555 1_555
H20 O10 1_555 1_555
Zn1A O1 1_555 1_555
Zn2A O4 1_555 1_555
O1A Zn1 1_555 1_555
O4A Zn2 1_555 1_555
N1A Zn2 1_555 1_555
N5A Zn1 1_555 1_555
C1 N3 1_555 1_555
N1 Zn2A 1_555 1_555
N5 Zn1A 1_555 1_555
N8 C18 1_555 1_555
N9 C16 1_555 1_555
C7 C16 1_555 1_555
C8 N10 1_555 1_555
C9 C17 1_555 1_555
C9 C19 1_555 1_555
C10 C21 1_555 1_555
C13 C23 1_555 1_555
C14 C20 1_555 1_555
C22 C25 1_555 1_555

#END
