
#######################################################################
#
#                 Cambridge Crystallographic Data Centre
#                                CCDC 
#
#######################################################################
#
# If this CIF has been generated from an entry in the Cambridge 
# Structural Database, then it will include bibliographic, chemical, 
# crystal, experimental, refinement or atomic coordinate data resulting 
# from the CCDC's data processing and validation procedures.
#
#######################################################################

data_HOXTOF
_symmetry_cell_setting           monoclinic
_symmetry_space_group_name_H-M   'C 2/c'
_symmetry_Int_Tables_number      15
_space_group_name_Hall           '-C 2yn'
loop_
_symmetry_equiv_pos_site_id
_symmetry_equiv_pos_as_xyz
1 x,y,z
2 -x,y,1/2-z
3 1/2+x,1/2+y,z
4 1/2-x,1/2+y,1/2-z
5 -x,-y,-z
6 x,-y,1/2+z
7 1/2-x,1/2-y,-z
8 1/2+x,1/2-y,1/2+z
_cell_length_a                   15.400(3)
_cell_length_b                   11.342(2)
_cell_length_c                   11.500(2)
_cell_angle_alpha                90
_cell_angle_beta                 98.40(3)
_cell_angle_gamma                90
_cell_volume                     1987.12
loop_
_atom_site_label
_atom_site_type_symbol
_atom_site_fract_x
_atom_site_fract_y
_atom_site_fract_z
Zn1 Zn 0.5000 0.23416(2) 0.7500
Ni1 Ni 0.2500 0.2500 1.0000
O1 O 0.5000 0.05882(14) 0.7500
H1 H 0.4529 0.0222 0.7245
N1 N 0.36042(10) 0.07846(13) 1.15788(14)
N2 N 0.38039(9) 0.23201(12) 0.82948(15)
N3 N 0.42314(8) 0.28167(12) 0.58228(12)
N4 N 0.5000 0.41875(15) 0.7500
C1 C 0.31805(10) 0.14349(14) 1.09761(14)
C2 C 0.32913(11) 0.23747(13) 0.89221(16)
C3 C 0.38422(11) 0.20649(16) 0.50096(14)
H2 H 0.3957 0.1246 0.5112
C4 C 0.32798(12) 0.24325(15) 0.40267(17)
H3 H 0.3013 0.1878 0.3466
C5 C 0.31167(11) 0.36219(17) 0.38805(15)
H4 H 0.2727 0.3899 0.3220
C6 C 0.35231(11) 0.44055(16) 0.46990(15)
H5 H 0.3425 0.5229 0.4602
C7 C 0.40778(10) 0.39793(14) 0.56663(13)
C8 C 0.45428(10) 0.47620(13) 0.65964(13)
C9 C 0.45336(10) 0.59867(14) 0.65704(15)
H6 H 0.4213 0.6399 0.5927
C10 C 0.5000 0.6592(2) 0.7500
H7 H 0.5000 0.7430 0.7500
H1A H 0.5471 0.0222 0.7755
N3A N 0.57686(8) 0.28167(12) 0.91772(12)
C3A C 0.61578(11) 0.20649(16) 0.99904(14)
H2A H 0.6043 0.1246 0.9888
C4A C 0.67202(12) 0.24325(15) 1.09733(17)
H3A H 0.6987 0.1878 1.1534
C5A C 0.68833(11) 0.36219(17) 1.11195(15)
H4A H 0.7273 0.3899 1.1780
C6A C 0.64769(11) 0.44055(16) 1.03010(15)
H5A H 0.6575 0.5229 1.0398
C7A C 0.59222(10) 0.39793(14) 0.93337(13)
C8A C 0.54572(10) 0.47620(13) 0.84036(13)
C9A C 0.54664(10) 0.59867(14) 0.84296(15)
H6A H 0.5787 0.6399 0.9073
N2A N 0.61961(9) 0.23201(12) 0.67052(15)
C2A C 0.67087(11) 0.23747(13) 0.60779(16)
N1F N 0.13958(10) 0.42154(13) 0.84212(14)
C1F C 0.18195(10) 0.35651(14) 0.90239(14)
Ni1A Ni 0.7500 0.2500 0.5000
C2F C 0.17087(11) 0.26253(13) 1.10779(16)
loop_
_geom_bond_atom_site_label_1
_geom_bond_atom_site_label_2
_geom_bond_site_symmetry_1
_geom_bond_site_symmetry_2
Zn1 O1 1_555 1_555
Ni1 C1 1_555 1_555
O1 H1 1_555 1_555
N1 C1 1_555 1_555
N2 Zn1 1_555 1_555
N3 Zn1 1_555 1_555
N4 Zn1 1_555 1_555
C2 Ni1 1_555 1_555
C3 N3 1_555 1_555
H2 C3 1_555 1_555
C4 C3 1_555 1_555
H3 C4 1_555 1_555
C5 C4 1_555 1_555
H4 C5 1_555 1_555
C6 C5 1_555 1_555
H5 C6 1_555 1_555
C7 N3 1_555 1_555
C8 N4 1_555 1_555
C9 C8 1_555 1_555
H6 C9 1_555 1_555
C10 C9 1_555 1_555
H7 C10 1_555 1_555
H1A O1 1_555 1_555
N3A Zn1 1_555 1_555
C3A N3A 1_555 1_555
H2A C3A 1_555 1_555
C4A C3A 1_555 1_555
H3A C4A 1_555 1_555
C5A C4A 1_555 1_555
H4A C5A 1_555 1_555
C6A C5A 1_555 1_555
H5A C6A 1_555 1_555
C7A N3A 1_555 1_555
C8A N4 1_555 1_555
C9A C10 1_555 1_555
H6A C9A 1_555 1_555
N2A Zn1 1_555 1_555
C2A N2A 1_555 1_555
N1F C1F 1_555 1_555
C1F Ni1 1_555 1_555
Ni1A C2A 1_555 1_555
C2F Ni1 1_555 1_555
N2 C2 1_555 1_555
C6 C7 1_555 1_555
C7 C8 1_555 1_555
C6A C7A 1_555 1_555
C7A C8A 1_555 1_555
C8A C9A 1_555 1_555

#END
