
#######################################################################
#
#                 Cambridge Crystallographic Data Centre
#                                CCDC 
#
#######################################################################
#
# If this CIF has been generated from an entry in the Cambridge 
# Structural Database, then it will include bibliographic, chemical, 
# crystal, experimental, refinement or atomic coordinate data resulting 
# from the CCDC's data processing and validation procedures.
#
#######################################################################

data_HOXVAT
_symmetry_cell_setting           monoclinic
_symmetry_space_group_name_H-M   'C 2/c'
_symmetry_Int_Tables_number      15
_space_group_name_Hall           '-C 2yn'
loop_
_symmetry_equiv_pos_site_id
_symmetry_equiv_pos_as_xyz
1 x,y,z
2 -x,y,1/2-z
3 1/2+x,1/2+y,z
4 1/2-x,1/2+y,1/2-z
5 -x,-y,-z
6 x,-y,1/2+z
7 1/2-x,1/2-y,-z
8 1/2+x,1/2-y,1/2+z
_cell_length_a                   30.114(5)
_cell_length_b                   10.610(5)
_cell_length_c                   14.080(5)
_cell_angle_alpha                90
_cell_angle_beta                 114.049(5)
_cell_angle_gamma                90
_cell_volume                     4108.2
loop_
_atom_site_label
_atom_site_type_symbol
_atom_site_fract_x
_atom_site_fract_y
_atom_site_fract_z
Cd1 Cd 0.770814(4) 0.261334(11) 0.154186(9)
O1 O 0.75258(4) 0.38318(12) -0.01777(10)
O2 O 0.71382(5) 0.55866(13) -0.09463(10)
N1 N 0.85329(6) 0.22878(16) 0.20709(14)
O3 O 0.67546(5) 0.82791(13) 0.09623(12)
C1 C 0.69169(7) 0.74782(15) 0.05666(16)
O4 O 0.68057(6) 0.74678(13) -0.04380(12)
H1 H 0.6925 0.6844 -0.0585
N2 N 0.93171(6) 0.26663(15) 0.29186(14)
N3 N 1.10425(6) 0.26645(15) 0.51557(14)
C2 C 1.10858(7) 0.15832(19) 0.57374(17)
H2 H 1.0836 0.1132 0.5807
N4 N 0.73872(5) 0.64055(14) 0.22466(11)
C3 C 0.72410(6) 0.64585(15) 0.11852(12)
C4 C 1.06214(6) 0.46386(19) 0.45359(15)
H3 H 1.0911 0.5068 0.4898
C5 C 0.73592(6) 0.49174(16) -0.01501(13)
N5 N 1.18230(5) 0.21900(15) 0.58804(13)
C6 C 0.97585(6) 0.33440(19) 0.34718(14)
N6 N 1.02059(5) 0.66338(17) 0.39362(13)
C7 C 1.01798(6) 0.26669(19) 0.40406(16)
H4 H 1.0175 0.1792 0.4070
C8 C 0.74244(6) 0.54011(15) 0.08853(12)
N7 N 0.76841(5) 0.47044(13) 0.17546(11)
C9 C 1.01953(6) 0.52987(18) 0.39587(14)
C10 C 1.15672(7) 0.13185(18) 0.61830(17)
H5 H 1.1705 0.0645 0.6629
C11 C 0.97623(6) 0.46507(19) 0.34187(14)
H6 H 0.9479 0.5089 0.3027
C12 C 0.88619(6) 0.3152(2) 0.25499(16)
H7 H 0.8791 0.3989 0.2626
C13 C 1.14979(6) 0.29871(18) 0.52706(14)
H8 H 1.1570 0.3683 0.4958
C14 C 0.76489(6) 0.53453(16) 0.25401(13)
H9 H 0.7793 0.5078 0.3228
C15 C 0.98202(9) 0.7445(2) 0.3511(2)
H10 H 0.9501 0.7181 0.3145
C16 C 0.87881(7) 0.1195(2) 0.2136(2)
H11 H 0.8650 0.0422 0.1862
C17 C 1.04449(10) 0.8593(2) 0.4237(3)
H12 H 1.0641 0.9303 0.4468
N8 N 0.99497(8) 0.86251(19) 0.36764(19)
C18 C 1.06074(6) 0.33356(19) 0.45622(15)
C19 C 0.92692(7) 0.1406(2) 0.2657(2)
H13 H 0.9518 0.0820 0.2809
C20 C 1.06095(9) 0.7394(2) 0.4409(3)
H14 H 1.0929 0.7132 0.4771
Cd1C Cd 0.729186(4) 0.761334(11) 0.345814(9)
Cd1F Cd 0.729186(4) 0.238666(11) -0.154186(9)
Cd1G Cd 1.270814(4) 0.238666(11) 0.654186(9)
O1F O 0.74742(4) 0.11682(12) 0.01777(10)
N4C N 0.76128(5) 0.14055(14) 0.27534(11)
N5G N 0.68230(5) 0.28100(15) 0.08804(13)
O5 O 0.62923(7) 0.8767(2) 0.7702(2)
H15 H 0.6302(12) 0.936(3) 0.837(3)
H16 H 0.664(3) 0.882(8) 0.795(6)
loop_
_geom_bond_atom_site_label_1
_geom_bond_atom_site_label_2
_geom_bond_site_symmetry_1
_geom_bond_site_symmetry_2
Cd1 O1 1_555 1_555
O1 C5 1_555 1_555
O2 C5 1_555 1_555
N1 Cd1 1_555 1_555
O3 C1 1_555 1_555
C1 O4 1_555 1_555
O4 H1 1_555 1_555
N2 C6 1_555 1_555
N3 C2 1_555 1_555
C2 H2 1_555 1_555
N4 C3 1_555 1_555
C3 C1 1_555 1_555
C4 H3 1_555 1_555
C5 C8 1_555 1_555
N5 C10 1_555 1_555
C6 C7 1_555 1_555
N6 C9 1_555 1_555
C7 H4 1_555 1_555
C8 C3 1_555 1_555
N7 Cd1 1_555 1_555
C9 C4 1_555 1_555
C10 C2 1_555 1_555
H5 C10 1_555 1_555
C11 C6 1_555 1_555
H6 C11 1_555 1_555
C12 N1 1_555 1_555
H7 C12 1_555 1_555
C13 N3 1_555 1_555
H8 C13 1_555 1_555
C14 N4 1_555 1_555
H9 C14 1_555 1_555
C15 N6 1_555 1_555
H10 C15 1_555 1_555
C16 N1 1_555 1_555
H11 C16 1_555 1_555
C17 H12 1_555 1_555
N8 C15 1_555 1_555
C18 N3 1_555 1_555
C19 N2 1_555 1_555
H13 C19 1_555 1_555
C20 N6 1_555 1_555
H14 C20 1_555 1_555
O5 H15 1_555 1_555
H16 O5 1_555 1_555
Cd1C N4 1_555 1_555
Cd1F O1 1_555 1_555
Cd1G N5 1_555 1_555
O1F Cd1 1_555 1_555
N4C Cd1 1_555 1_555
N5G Cd1 1_555 1_555
N2 C12 1_555 1_555
C4 C18 1_555 1_555
N5 C13 1_555 1_555
C7 C18 1_555 1_555
C8 N7 1_555 1_555
N7 C14 1_555 1_555
C9 C11 1_555 1_555
C16 C19 1_555 1_555
C17 N8 1_555 1_555
C17 C20 1_555 1_555
Cd1F O1F 1_555 1_555

#END
