
#######################################################################
#
#                 Cambridge Crystallographic Data Centre
#                                CCDC 
#
#######################################################################
#
# If this CIF has been generated from an entry in the Cambridge 
# Structural Database, then it will include bibliographic, chemical, 
# crystal, experimental, refinement or atomic coordinate data resulting 
# from the CCDC's data processing and validation procedures.
#
#######################################################################

data_HOXVEX
_symmetry_cell_setting           monoclinic
_symmetry_space_group_name_H-M   'C 2/c'
_symmetry_Int_Tables_number      15
_space_group_name_Hall           '-C 2yn'
loop_
_symmetry_equiv_pos_site_id
_symmetry_equiv_pos_as_xyz
1 x,y,z
2 -x,y,1/2-z
3 1/2+x,1/2+y,z
4 1/2-x,1/2+y,1/2-z
5 -x,-y,-z
6 x,-y,1/2+z
7 1/2-x,1/2-y,-z
8 1/2+x,1/2-y,1/2+z
_cell_length_a                   16.0613(7)
_cell_length_b                   11.5621(5)
_cell_length_c                   13.0621(5)
_cell_angle_alpha                90
_cell_angle_beta                 106.2340(10)
_cell_angle_gamma                90
_cell_volume                     2328.95
loop_
_atom_site_label
_atom_site_type_symbol
_atom_site_fract_x
_atom_site_fract_y
_atom_site_fract_z
Cd1 Cd 0.124907(14) 0.507384(18) 0.031938(16)
Cd2 Cd 0.2500 0.2500 0.0000
O1 O 0.28051(17) 0.4292(2) 0.0851(2)
O2 O 0.25151(17) 0.6129(2) 0.0423(2)
O3 O 0.62783(16) 0.8066(2) 0.0736(2)
O4 O 0.49924(16) 0.8830(2) 0.0517(2)
N1 N 0.1325(2) 0.4448(3) -0.1316(2)
N2 N 0.1766(2) 0.3445(2) -0.1423(2)
N3 N 0.13564(19) 0.4306(3) -0.3006(2)
N4 N 0.2112(3) 0.2488(3) -0.2866(3)
H1 H 0.2342 0.1913 -0.2469
H2 H 0.2098 0.2495 -0.3529
C1 C 0.3991(2) 0.5525(3) 0.0902(3)
C2 C 0.4283(2) 0.6629(3) 0.0762(3)
H3 H 0.3891 0.7237 0.0563
C3 C 0.5168(2) 0.6819(3) 0.0924(3)
C4 C 0.5754(2) 0.5909(3) 0.1248(3)
H4 H 0.6344 0.6042 0.1364
C5 C 0.5466(3) 0.4814(4) 0.1397(4)
H5 H 0.5859 0.4213 0.1621
C6 C 0.4585(3) 0.4618(3) 0.1211(4)
H6 H 0.4386 0.3877 0.1291
C7 C 0.3045(2) 0.5306(3) 0.0711(3)
C8 C 0.5487(2) 0.7973(3) 0.0705(2)
C9 C 0.1768(2) 0.3394(3) -0.2442(2)
C10 C 0.1105(3) 0.4923(3) -0.2260(3)
H7 H 0.0803 0.5618 -0.2407
Cd1D Cd 0.875093(14) 0.492616(18) -0.031938(16)
O1D O 0.71949(17) 0.5708(2) -0.0851(2)
O2D O 0.74849(17) 0.3871(2) -0.0423(2)
O3D O 0.37217(16) 0.1934(2) -0.0736(2)
O4D O 0.50076(16) 0.1170(2) -0.0517(2)
N1D N 0.8675(2) 0.5552(3) 0.1316(2)
N2D N 0.8234(2) 0.6555(2) 0.1423(2)
N3D N 0.86436(19) 0.5694(3) 0.3006(2)
N4D N 0.7888(3) 0.7512(3) 0.2866(3)
H1D H 0.7658 0.8087 0.2469
H2D H 0.7902 0.7505 0.3529
C1D C 0.6009(2) 0.4475(3) -0.0902(3)
C2D C 0.5717(2) 0.3371(3) -0.0762(3)
H3D H 0.6109 0.2763 -0.0563
C3D C 0.4832(2) 0.3181(3) -0.0924(3)
C4D C 0.4246(2) 0.4091(3) -0.1248(3)
H4D H 0.3656 0.3958 -0.1364
C5D C 0.4534(3) 0.5186(4) -0.1397(4)
H5D H 0.4141 0.5787 -0.1621
C6D C 0.5415(3) 0.5382(3) -0.1211(4)
H6D H 0.5614 0.6123 -0.1291
C7D C 0.6955(2) 0.4694(3) -0.0711(3)
C8D C 0.4513(2) 0.2027(3) -0.0705(2)
C9D C 0.8232(2) 0.6606(3) 0.2442(2)
C10D C 0.8895(3) 0.5077(3) 0.2260(3)
H7D H 0.9197 0.4382 0.2407
Cd1A Cd 0.875093(14) 0.507384(18) 0.468062(16)
Cd1B Cd 0.624907(14) 0.007384(18) 0.031938(16)
Cd1B_2 Cd 0.624907(14) 1.007384(18) 0.031938(16)
Cd1E Cd 0.124907(14) 0.492616(18) -0.468062(16)
Cd1F Cd 0.375093(14) -0.007384(18) -0.031938(16)
Cd1F_2 Cd 0.375093(14) 0.992616(18) -0.031938(16)
Cd2B Cd 0.7500 0.7500 0.0000
O1F O 0.21949(17) 0.0708(2) -0.0851(2)
O3B O 0.12783(16) 0.3066(2) 0.0736(2)
O3F O 0.87217(16) 0.6934(2) -0.0736(2)
O4B O -0.00076(16) 0.3830(2) 0.0517(2)
O4B_2 O 0.99924(16) 0.3830(2) 0.0517(2)
O4F O 0.00076(16) 0.6170(2) -0.0517(2)
O4F_2 O 1.00076(16) 0.6170(2) -0.0517(2)
N2F N 0.3234(2) 0.1555(2) 0.1423(2)
N3A N 0.86436(19) 0.4306(3) -0.1994(2)
N3E N 0.13564(19) 0.5694(3) 0.1994(2)
loop_
_geom_bond_atom_site_label_1
_geom_bond_atom_site_label_2
_geom_bond_site_symmetry_1
_geom_bond_site_symmetry_2
Cd1 O1 1_555 1_555
Cd2 O1 1_555 1_555
O1 C7 1_555 1_555
O2 Cd1 1_555 1_555
O3 C8 1_555 1_555
O4 C8 1_555 1_555
N1 Cd1 1_555 1_555
N2 Cd2 1_555 1_555
N3 C9 1_555 1_555
N4 H1 1_555 1_555
H2 N4 1_555 1_555
C1 C2 1_555 1_555
C2 H3 1_555 1_555
C3 C2 1_555 1_555
C4 C3 1_555 1_555
H4 C4 1_555 1_555
C5 C4 1_555 1_555
H5 C5 1_555 1_555
C6 C1 1_555 1_555
H6 C6 1_555 1_555
C7 O2 1_555 1_555
C8 C3 1_555 1_555
C9 N2 1_555 1_555
C10 N1 1_555 1_555
H7 C10 1_555 1_555
Cd1D O1D 1_555 1_555
O1D C7D 1_555 1_555
O2D Cd1D 1_555 1_555
O3D Cd2 1_555 1_555
O4D C8D 1_555 1_555
N1D Cd1D 1_555 1_555
N2D N1D 1_555 1_555
N3D C9D 1_555 1_555
N4D H1D 1_555 1_555
H2D N4D 1_555 1_555
C1D C2D 1_555 1_555
C2D H3D 1_555 1_555
C3D C2D 1_555 1_555
C4D C3D 1_555 1_555
H4D C4D 1_555 1_555
C5D C4D 1_555 1_555
H5D C5D 1_555 1_555
C6D C1D 1_555 1_555
H6D C6D 1_555 1_555
C7D O2D 1_555 1_555
C8D O3D 1_555 1_555
C9D N2D 1_555 1_555
C10D N1D 1_555 1_555
H7D C10D 1_555 1_555
Cd1A N3D 1_555 1_555
Cd1B O4D 1_555 1_555
Cd1B_2 O3 1_555 1_555
Cd1E N3 1_555 1_555
Cd1F O3D 1_555 1_555
Cd1F_2 O4 1_555 1_555
Cd2B O3 1_555 1_555
O1F Cd2 1_555 1_555
O3B Cd1 1_555 1_555
O3F Cd1D 1_555 1_555
O4B Cd1 1_555 1_555
O4B_2 Cd1D 1_555 1_555
O4F Cd1 1_555 1_555
O4F_2 Cd1D 1_555 1_555
N2F Cd2 1_555 1_555
N3A Cd1D 1_555 1_555
N3E Cd1 1_555 1_555
Cd2 O3B 1_555 1_555
O4 Cd1B_2 1_555 1_555
N1 N2 1_555 1_555
N3 C10 1_555 1_555
N4 C9 1_555 1_555
C1 C7 1_555 1_555
C5 C6 1_555 1_555
O1D Cd2B 1_555 1_555
O4D Cd1F 1_555 1_555
N2D Cd2B 1_555 1_555
N3D C10D 1_555 1_555
N4D C9D 1_555 1_555
C1D C7D 1_555 1_555
C3D C8D 1_555 1_555
C5D C6D 1_555 1_555
Cd1F O1F 1_555 1_555
Cd2B O3F 1_555 1_555

#END
