
#######################################################################
#
#                 Cambridge Crystallographic Data Centre
#                                CCDC 
#
#######################################################################
#
# If this CIF has been generated from an entry in the Cambridge 
# Structural Database, then it will include bibliographic, chemical, 
# crystal, experimental, refinement or atomic coordinate data resulting 
# from the CCDC's data processing and validation procedures.
#
#######################################################################

data_HOXWOI
_symmetry_cell_setting           monoclinic
_symmetry_space_group_name_H-M   'P 21/n'
_symmetry_Int_Tables_number      14
_space_group_name_Hall           '-P 2yn'
loop_
_symmetry_equiv_pos_site_id
_symmetry_equiv_pos_as_xyz
1 x,y,z
2 1/2-x,1/2+y,1/2-z
3 -x,-y,-z
4 1/2+x,1/2-y,1/2+z
_cell_length_a                   11.6228(3)
_cell_length_b                   16.1656(6)
_cell_length_c                   15.7701(4)
_cell_angle_alpha                90
_cell_angle_beta                 93.387(2)
_cell_angle_gamma                90
_cell_volume                     2957.86
loop_
_atom_site_label
_atom_site_type_symbol
_atom_site_fract_x
_atom_site_fract_y
_atom_site_fract_z
Cd1 Cd 0.0000 0.5000 0.0000
Cd2 Cd 0.5000 0.5000 0.0000
N1 N 0.1549(2) 0.55591(15) -0.06600(15)
C1 C 0.2446(2) 0.58544(16) -0.06995(15)
S1 S 0.37238(6) 0.62806(5) -0.07510(5)
N2 N 0.3441(2) 0.43551(16) 0.05199(17)
C2 C 0.2535(2) 0.40756(15) 0.05387(16)
S2 S 0.12565(6) 0.36719(5) 0.05847(6)
N3 N 0.04734(19) 0.57918(14) 0.12120(13)
C3 C 0.1536(2) 0.60437(17) 0.14323(17)
H1 H 0.2137 0.5849 0.1123
C4 C 0.1793(3) 0.65800(18) 0.20971(17)
H2 H 0.2551 0.6742 0.2224
C5 C 0.0928(3) 0.68757(16) 0.25723(17)
C6 C -0.0175(3) 0.6605(2) 0.23471(19)
H3 H -0.0788 0.6782 0.2654
C7 C -0.0371(3) 0.6077(2) 0.16735(19)
H4 H -0.1123 0.5909 0.1532
C8 C 0.1162(3) 0.74560(18) 0.33068(18)
H5 H 0.0575 0.7883 0.3287
H6 H 0.1900 0.7723 0.3248
C9 C 0.1177(3) 0.7025(2) 0.41675(18)
H7 H 0.1230 0.7442 0.4611
H8 H 0.0454 0.6734 0.4212
C10 C 0.2155(3) 0.6419(2) 0.4320(2)
H9 H 0.2051 0.5964 0.3922
H10 H 0.2874 0.6691 0.4211
C11 C 0.2236(3) 0.6078(2) 0.5212(2)
C12 C 0.2862(4) 0.6486(3) 0.5849(3)
H11 H 0.3265 0.6965 0.5729
C13 C 0.2888(5) 0.6180(4) 0.6678(3)
H12 H 0.3317 0.6456 0.7106
C14 C 0.2306(6) 0.5492(4) 0.6870(3)
H13 H 0.2322 0.5299 0.7426
C15 C 0.1697(5) 0.5085(3) 0.6240(4)
H14 H 0.1298 0.4606 0.6366
C16 C 0.1661(4) 0.5371(3) 0.5417(3)
H15 H 0.1241 0.5080 0.4994
N4 N 0.5297(2) 0.57222(16) 0.12884(16)
C17 C 0.5881(4) 0.6422(2) 0.1365(2)
H16 H 0.6202 0.6635 0.0885
C18 C 0.6042(4) 0.6852(2) 0.2114(2)
H17 H 0.6479 0.7334 0.2135
C19 C 0.5559(3) 0.6571(2) 0.2830(2)
C20 C 0.4986(4) 0.5832(3) 0.2754(2)
H18 H 0.4667 0.5600 0.3226
C21 C 0.4881(3) 0.5431(2) 0.1988(2)
H19 H 0.4495 0.4927 0.1960
C22 C 0.5651(4) 0.7039(3) 0.3664(3)
H20 H 0.5963 0.7585 0.3566
H21 H 0.4885 0.7109 0.3866
C23 C 0.6378(4) 0.6623(2) 0.4319(3)
H22 H 0.7160 0.6597 0.4137
H23 H 0.6106 0.6061 0.4381
C24 C 0.6388(4) 0.7061(2) 0.5191(2)
H24 H 0.6600 0.7637 0.5124
H25 H 0.5620 0.7045 0.5400
C25 C 0.7217(3) 0.6660(2) 0.5825(2)
C26 C 0.8380(4) 0.6790(3) 0.5803(3)
H26 H 0.8653 0.7140 0.5392
C27 C 0.9152(4) 0.6416(3) 0.6373(3)
H27 H 0.9937 0.6516 0.6346
C28 C 0.8775(5) 0.5902(3) 0.6974(3)
H28 H 0.9299 0.5645 0.7357
C29 C 0.7635(5) 0.5763(3) 0.7014(3)
H29 H 0.7375 0.5416 0.7432
C30 C 0.6854(4) 0.6130(2) 0.6445(2)
H30 H 0.6072 0.6021 0.6476
N1B N -0.1549(2) 0.44409(15) 0.06600(15)
C1B C -0.2446(2) 0.41456(16) 0.06995(15)
S1B S -0.37238(6) 0.37194(5) 0.07510(5)
N2B N -0.3441(2) 0.56449(16) -0.05199(17)
C2B C -0.2535(2) 0.59244(15) -0.05387(16)
S2B S -0.12565(6) 0.63281(5) -0.05847(6)
N3B N -0.04734(19) 0.42082(14) -0.12120(13)
C3B C -0.1536(2) 0.39563(17) -0.14323(17)
H1B H -0.2137 0.4151 -0.1123
C4B C -0.1793(3) 0.34200(18) -0.20971(17)
H2B H -0.2551 0.3258 -0.2224
C5B C -0.0928(3) 0.31243(16) -0.25723(17)
C6B C 0.0175(3) 0.3395(2) -0.23471(19)
H3B H 0.0788 0.3218 -0.2654
C7B C 0.0371(3) 0.3923(2) -0.16735(19)
H4B H 0.1123 0.4091 -0.1532
C8B C -0.1162(3) 0.25440(18) -0.33068(18)
H5B H -0.0575 0.2117 -0.3287
H6B H -0.1900 0.2277 -0.3248
C9B C -0.1177(3) 0.2975(2) -0.41675(18)
H7B H -0.1230 0.2558 -0.4611
H8B H -0.0454 0.3266 -0.4212
C10B C -0.2155(3) 0.3581(2) -0.4320(2)
H9B H -0.2051 0.4036 -0.3922
H10B H -0.2874 0.3309 -0.4211
C11B C -0.2236(3) 0.3922(2) -0.5212(2)
C12B C -0.2862(4) 0.3514(3) -0.5849(3)
H11B H -0.3265 0.3035 -0.5729
C13B C -0.2888(5) 0.3820(4) -0.6678(3)
H12B H -0.3317 0.3544 -0.7106
C14B C -0.2306(6) 0.4508(4) -0.6870(3)
H13B H -0.2322 0.4701 -0.7426
C15B C -0.1697(5) 0.4915(3) -0.6240(4)
H14B H -0.1298 0.5394 -0.6366
C16B C -0.1661(4) 0.4629(3) -0.5417(3)
H15B H -0.1241 0.4920 -0.4994
N4B N 0.4703(2) 0.42778(16) -0.12884(16)
C17B C 0.4119(4) 0.3578(2) -0.1365(2)
H16B H 0.3798 0.3365 -0.0885
C18B C 0.3958(4) 0.3148(2) -0.2114(2)
H17B H 0.3521 0.2666 -0.2135
C19B C 0.4441(3) 0.3429(2) -0.2830(2)
C20B C 0.5014(4) 0.4168(3) -0.2754(2)
H18B H 0.5333 0.4400 -0.3226
C21B C 0.5119(3) 0.4569(2) -0.1988(2)
H19B H 0.5505 0.5073 -0.1960
C22B C 0.4349(4) 0.2961(3) -0.3664(3)
H20B H 0.4037 0.2415 -0.3566
H21B H 0.5115 0.2891 -0.3866
C23B C 0.3622(4) 0.3377(2) -0.4319(3)
H22B H 0.2840 0.3403 -0.4137
H23B H 0.3894 0.3939 -0.4381
C24B C 0.3612(4) 0.2939(2) -0.5191(2)
H24B H 0.3400 0.2363 -0.5124
H25B H 0.4380 0.2955 -0.5400
C25B C 0.2783(3) 0.3340(2) -0.5825(2)
C26B C 0.1620(4) 0.3210(3) -0.5803(3)
H26B H 0.1347 0.2860 -0.5392
C27B C 0.0848(4) 0.3584(3) -0.6373(3)
H27B H 0.0063 0.3484 -0.6346
C28B C 0.1225(5) 0.4098(3) -0.6974(3)
H28B H 0.0701 0.4355 -0.7357
C29B C 0.2365(5) 0.4237(3) -0.7014(3)
H29B H 0.2625 0.4584 -0.7432
C30B C 0.3146(4) 0.3870(2) -0.6445(2)
H30B H 0.3928 0.3979 -0.6476
Cd2_2 Cd -0.5000 0.5000 0.0000
S1B_2 S 0.62762(6) 0.37194(5) 0.07510(5)
N2B_2 N 0.6559(2) 0.56449(16) -0.05199(17)
loop_
_geom_bond_atom_site_label_1
_geom_bond_atom_site_label_2
_geom_bond_site_symmetry_1
_geom_bond_site_symmetry_2
Cd1 N1 1_555 1_555
Cd2 S1 1_555 1_555
N1 C1 1_555 1_555
C1 S1 1_555 1_555
N2 Cd2 1_555 1_555
C2 N2 1_555 1_555
S2 Cd1 1_555 1_555
N3 Cd1 1_555 1_555
C3 N3 1_555 1_555
H1 C3 1_555 1_555
C4 C3 1_555 1_555
H2 C4 1_555 1_555
C5 C4 1_555 1_555
C6 C5 1_555 1_555
H3 C6 1_555 1_555
C7 N3 1_555 1_555
H4 C7 1_555 1_555
C8 C5 1_555 1_555
H5 C8 1_555 1_555
H6 C8 1_555 1_555
C9 C8 1_555 1_555
H7 C9 1_555 1_555
H8 C9 1_555 1_555
C10 C9 1_555 1_555
H9 C10 1_555 1_555
H10 C10 1_555 1_555
C11 C10 1_555 1_555
C12 C11 1_555 1_555
H11 C12 1_555 1_555
C13 C12 1_555 1_555
H12 C13 1_555 1_555
C14 C13 1_555 1_555
H13 C14 1_555 1_555
C15 C14 1_555 1_555
H14 C15 1_555 1_555
C16 C11 1_555 1_555
H15 C16 1_555 1_555
N4 Cd2 1_555 1_555
C17 N4 1_555 1_555
H16 C17 1_555 1_555
C18 C17 1_555 1_555
H17 C18 1_555 1_555
C19 C18 1_555 1_555
C20 C19 1_555 1_555
H18 C20 1_555 1_555
C21 N4 1_555 1_555
H19 C21 1_555 1_555
C22 C19 1_555 1_555
H20 C22 1_555 1_555
H21 C22 1_555 1_555
C23 C22 1_555 1_555
H22 C23 1_555 1_555
H23 C23 1_555 1_555
C24 C23 1_555 1_555
H24 C24 1_555 1_555
H25 C24 1_555 1_555
C25 C24 1_555 1_555
C26 C25 1_555 1_555
H26 C26 1_555 1_555
C27 C26 1_555 1_555
H27 C27 1_555 1_555
C28 C27 1_555 1_555
H28 C28 1_555 1_555
C29 C28 1_555 1_555
H29 C29 1_555 1_555
C30 C25 1_555 1_555
H30 C30 1_555 1_555
N1B Cd1 1_555 1_555
C1B N1B 1_555 1_555
S1B C1B 1_555 1_555
N2B C2B 1_555 1_555
C2B S2B 1_555 1_555
S2B Cd1 1_555 1_555
N3B Cd1 1_555 1_555
C3B N3B 1_555 1_555
H1B C3B 1_555 1_555
C4B C3B 1_555 1_555
H2B C4B 1_555 1_555
C5B C4B 1_555 1_555
C6B C5B 1_555 1_555
H3B C6B 1_555 1_555
C7B N3B 1_555 1_555
H4B C7B 1_555 1_555
C8B C5B 1_555 1_555
H5B C8B 1_555 1_555
H6B C8B 1_555 1_555
C9B C8B 1_555 1_555
H7B C9B 1_555 1_555
H8B C9B 1_555 1_555
C10B C9B 1_555 1_555
H9B C10B 1_555 1_555
H10B C10B 1_555 1_555
C11B C10B 1_555 1_555
C12B C11B 1_555 1_555
H11B C12B 1_555 1_555
C13B C12B 1_555 1_555
H12B C13B 1_555 1_555
C14B C13B 1_555 1_555
H13B C14B 1_555 1_555
C15B C14B 1_555 1_555
H14B C15B 1_555 1_555
C16B C11B 1_555 1_555
H15B C16B 1_555 1_555
N4B Cd2 1_555 1_555
C17B N4B 1_555 1_555
H16B C17B 1_555 1_555
C18B C17B 1_555 1_555
H17B C18B 1_555 1_555
C19B C18B 1_555 1_555
C20B C19B 1_555 1_555
H18B C20B 1_555 1_555
C21B N4B 1_555 1_555
H19B C21B 1_555 1_555
C22B C19B 1_555 1_555
H20B C22B 1_555 1_555
H21B C22B 1_555 1_555
C23B C22B 1_555 1_555
H22B C23B 1_555 1_555
H23B C23B 1_555 1_555
C24B C23B 1_555 1_555
H24B C24B 1_555 1_555
H25B C24B 1_555 1_555
C25B C24B 1_555 1_555
C26B C25B 1_555 1_555
H26B C26B 1_555 1_555
C27B C26B 1_555 1_555
H27B C27B 1_555 1_555
C28B C27B 1_555 1_555
H28B C28B 1_555 1_555
C29B C28B 1_555 1_555
H29B C29B 1_555 1_555
C30B C25B 1_555 1_555
H30B C30B 1_555 1_555
Cd2_2 S1B 1_555 1_555
S1B_2 Cd2 1_555 1_555
N2B_2 Cd2 1_555 1_555
C2 S2 1_555 1_555
C6 C7 1_555 1_555
C15 C16 1_555 1_555
C20 C21 1_555 1_555
C29 C30 1_555 1_555
N2B Cd2_2 1_555 1_555
C6B C7B 1_555 1_555
C15B C16B 1_555 1_555
C20B C21B 1_555 1_555
C29B C30B 1_555 1_555

#END
