
#######################################################################
#
#                 Cambridge Crystallographic Data Centre
#                                CCDC 
#
#######################################################################
#
# If this CIF has been generated from an entry in the Cambridge 
# Structural Database, then it will include bibliographic, chemical, 
# crystal, experimental, refinement or atomic coordinate data resulting 
# from the CCDC's data processing and validation procedures.
#
#######################################################################

data_HOXWEY
_symmetry_cell_setting           orthorhombic
_symmetry_space_group_name_H-M   'P 21 21 21'
_symmetry_Int_Tables_number      19
_space_group_name_Hall           'P 2ac 2ab'
loop_
_symmetry_equiv_pos_site_id
_symmetry_equiv_pos_as_xyz
1 x,y,z
2 1/2-x,-y,1/2+z
3 -x,1/2+y,1/2-z
4 1/2+x,1/2-y,-z
_cell_length_a                   6.6459(13)
_cell_length_b                   12.528(3)
_cell_length_c                   14.090(3)
_cell_angle_alpha                90
_cell_angle_beta                 90
_cell_angle_gamma                90
_cell_volume                     1173.13
loop_
_atom_site_label
_atom_site_type_symbol
_atom_site_fract_x
_atom_site_fract_y
_atom_site_fract_z
Gd1 Gd 0.09967(6) 0.35047(3) 0.27425(3)
O1 O 0.1087(11) 0.4184(4) 0.4294(3)
O2 O 0.0877(11) 0.3988(4) 0.5861(4)
O3 O 0.2708(8) 0.2168(4) 0.7085(4)
O4 O -0.0616(8) 0.1986(4) 0.7109(4)
O5 O 0.2269(10) -0.1452(5) 0.4573(4)
O6 O -0.0732(10) -0.1247(4) 0.3903(4)
O7 O 0.1353(8) -0.0060(4) 0.2430(4)
O8 O 0.1208(8) 0.1683(3) 0.2187(4)
O9 O 0.2971(9) 0.5111(5) 0.2499(4)
H1 H 0.2889 0.5624 0.2892
H2 H 0.3745 0.5160 0.2021
N1 N 0.1094(12) 0.2120(5) 0.4004(4)
C1 C 0.1019(12) 0.3623(6) 0.5057(5)
C2 C 0.1072(13) 0.2431(6) 0.4922(5)
C3 C 0.1043(12) 0.1688(5) 0.5651(5)
C4 C 0.1036(15) 0.0618(6) 0.5420(5)
H3 H 0.1067 0.0097 0.5910
C5 C 0.0982(14) 0.0295(5) 0.4479(5)
C6 C 0.1064(14) 0.1084(5) 0.3779(5)
C7 C 0.1190(11) 0.0883(5) 0.2718(6)
C8 C 0.1058(14) 0.1994(6) 0.6701(5)
C9 C 0.0891(16) -0.0902(6) 0.4286(5)
K1 K 0.0930(4) 0.63969(16) 0.46957(14)
O10 O 0.4520(11) 0.6689(5) 0.3684(5)
H4 H 0.4870 0.6236 0.3266
H5 H 0.5260 0.7228 0.3795
Gd1B Gd -0.09967(6) -0.14953(3) 0.22575(3)
Gd1C Gd -0.40033(6) 0.14953(3) 0.72575(3)
Gd1C_2 Gd 0.59967(6) 0.14953(3) 0.72575(3)
O3C O -0.2292(8) 0.2832(4) 0.2915(4)
O4C O 0.4384(8) 0.3014(4) 0.2891(4)
O5_2 O 0.2269(10) 0.8548(5) 0.4573(4)
O5C O -0.2731(10) 0.6452(5) 0.5427(4)
O6_2 O -0.0732(10) 0.8753(4) 0.3903(4)
O6B O 0.0732(10) 0.3753(4) 0.1097(4)
O6C O 0.4268(10) 0.6247(4) 0.6097(4)
O7B O -0.1353(8) 0.4940(4) 0.2570(4)
O8B O -0.1208(8) 0.6683(3) 0.2813(4)
K1_2 K 0.0930(4) -0.36031(16) 0.46957(14)
K1B K -0.0930(4) 0.13969(16) 0.03043(14)
K1C K -0.4070(4) -0.13969(16) 0.53043(14)
K1C_2 K 0.5930(4) -0.13969(16) 0.53043(14)
loop_
_geom_bond_atom_site_label_1
_geom_bond_atom_site_label_2
_geom_bond_site_symmetry_1
_geom_bond_site_symmetry_2
Gd1 O1 1_555 1_555
O1 C1 1_555 1_555
O2 C1 1_555 1_555
O3 C8 1_555 1_555
O4 C8 1_555 1_555
O5 C9 1_555 1_555
O6 C9 1_555 1_555
O7 C7 1_555 1_555
O8 Gd1 1_555 1_555
O9 Gd1 1_555 1_555
H1 O9 1_555 1_555
H2 O9 1_555 1_555
N1 Gd1 1_555 1_555
C1 C2 1_555 1_555
C2 N1 1_555 1_555
C3 C2 1_555 1_555
C4 C3 1_555 1_555
H3 C4 1_555 1_555
C5 C4 1_555 1_555
C6 N1 1_555 1_555
C7 O8 1_555 1_555
C8 C3 1_555 1_555
C9 C5 1_555 1_555
K1 O1 1_555 1_555
O10 K1 1_555 1_555
H4 O10 1_555 1_555
H5 O10 1_555 1_555
Gd1B O6 1_555 1_555
Gd1C O4 1_555 1_555
Gd1C_2 O3 1_555 1_555
O3C Gd1 1_555 1_555
O4C Gd1 1_555 1_555
O5_2 K1 1_555 1_555
O5C K1 1_555 1_555
O6_2 K1 1_555 1_555
O6B Gd1 1_555 1_555
O6C K1 1_555 1_555
O7B Gd1 1_555 1_555
O8B K1 1_555 1_555
K1_2 O5 1_555 1_555
K1B O8 1_555 1_555
K1C O6 1_555 1_555
K1C_2 O5 1_555 1_555
O6 K1_2 1_555 1_555
O7 Gd1B 1_555 1_555
C5 C6 1_555 1_555
C6 C7 1_555 1_555
O6B K1B 1_555 1_555

#END
