
#######################################################################
#
#                 Cambridge Crystallographic Data Centre
#                                CCDC 
#
#######################################################################
#
# If this CIF has been generated from an entry in the Cambridge 
# Structural Database, then it will include bibliographic, chemical, 
# crystal, experimental, refinement or atomic coordinate data resulting 
# from the CCDC's data processing and validation procedures.
#
#######################################################################

data_HOXWUO
_symmetry_cell_setting           monoclinic
_symmetry_space_group_name_H-M   'P 21/n'
_symmetry_Int_Tables_number      14
_space_group_name_Hall           '-P 2yn'
loop_
_symmetry_equiv_pos_site_id
_symmetry_equiv_pos_as_xyz
1 x,y,z
2 1/2-x,1/2+y,1/2-z
3 -x,-y,-z
4 1/2+x,1/2-y,1/2+z
_cell_length_a                   11.4485(3)
_cell_length_b                   15.9460(4)
_cell_length_c                   15.7759(5)
_cell_angle_alpha                90
_cell_angle_beta                 94.624(2)
_cell_angle_gamma                90
_cell_volume                     2870.64
loop_
_atom_site_label
_atom_site_type_symbol
_atom_site_fract_x
_atom_site_fract_y
_atom_site_fract_z
Mn1 Mn 0.0000 0.5000 0.0000
Mn2 Mn 0.5000 0.5000 0.0000
N1 N 0.14610(11) 0.55711(8) -0.05857(8)
C1 C 0.23786(13) 0.58574(9) -0.06593(9)
S1 S 0.36806(3) 0.62660(3) -0.07470(3)
N2 N 0.35184(12) 0.43648(9) 0.04493(9)
C2 C 0.25938(13) 0.40911(9) 0.05133(9)
S2 S 0.12917(3) 0.36981(3) 0.06077(3)
N3 N 0.04262(11) 0.57780(8) 0.11865(8)
C3 C 0.15115(14) 0.60374(10) 0.14369(10)
H1 H 0.2144 0.5836 0.1139
C4 C 0.17576(15) 0.65837(10) 0.21078(10)
H2 H 0.2542 0.6754 0.2258
C5 C 0.08595(15) 0.68826(10) 0.25604(10)
C6 C -0.02696(15) 0.66078(11) 0.23069(11)
H3 H -0.0915 0.6793 0.2600
C7 C -0.04436(15) 0.60654(11) 0.16282(10)
H4 H -0.1220 0.5886 0.1465
C8 C 0.10783(18) 0.74731(11) 0.33020(11)
H5 H 0.0454 0.7904 0.3275
H6 H 0.1835 0.7763 0.3256
C9 C 0.11073(17) 0.70249(11) 0.41646(10)
H7 H 0.1153 0.7451 0.4622
H8 H 0.0366 0.6712 0.4197
C10 C 0.21313(18) 0.64185(13) 0.43200(11)
H9 H 0.2031 0.5948 0.3911
H10 H 0.2868 0.6712 0.4216
C11 C 0.22283(16) 0.60718(11) 0.52132(11)
C12 C 0.28698(19) 0.64963(14) 0.58651(13)
H11 H 0.3274 0.6997 0.5744
C13 C 0.2924(2) 0.61930(17) 0.66920(14)
H12 H 0.3370 0.6486 0.7131
C14 C 0.2342(2) 0.54777(16) 0.68827(14)
H13 H 0.2374 0.5277 0.7451
C15 C 0.1708(2) 0.50509(14) 0.62418(16)
H14 H 0.1301 0.4553 0.6369
C16 C 0.1660(2) 0.53420(13) 0.54112(13)
H15 H 0.1231 0.5036 0.4973
N4 N 0.52830(13) 0.57010(9) 0.12659(9)
C17 C 0.58781(19) 0.64227(12) 0.13548(12)
H16 H 0.6227 0.6642 0.0875
C18 C 0.6009(2) 0.68634(12) 0.21080(12)
H17 H 0.6454 0.7367 0.2140
C19 C 0.54964(16) 0.65760(11) 0.28157(11)
C20 C 0.49117(18) 0.58164(13) 0.27282(12)
H18 H 0.4563 0.5580 0.3199
C21 C 0.48357(17) 0.54047(12) 0.19584(11)
H19 H 0.4442 0.4880 0.1920
C22 C 0.55742(18) 0.70484(12) 0.36462(12)
H20 H 0.4781 0.7096 0.3849
H21 H 0.5864 0.7623 0.3551
C23 C 0.6379(2) 0.66253(13) 0.43252(12)
H22 H 0.7188 0.6625 0.4145
H23 H 0.6132 0.6034 0.4383
C24 C 0.63738(19) 0.70609(12) 0.51920(12)
H24 H 0.6578 0.7660 0.5130
H25 H 0.5576 0.7031 0.5391
C25 C 0.72302(17) 0.66605(11) 0.58421(11)
C26 C 0.84222(19) 0.67925(12) 0.58147(13)
H26 H 0.8692 0.7156 0.5395
C27 C 0.9227(2) 0.64037(14) 0.63881(14)
H27 H 1.0042 0.6497 0.6356
C28 C 0.8848(2) 0.58833(14) 0.70043(14)
H28 H 0.9398 0.5618 0.7400
C29 C 0.7676(2) 0.57508(15) 0.70443(14)
H29 H 0.7414 0.5394 0.7472
C30 C 0.6861(2) 0.61312(12) 0.64673(13)
H30 H 0.6048 0.6029 0.6500
N1B N -0.14610(11) 0.44289(8) 0.05857(8)
C1B C -0.23786(13) 0.41426(9) 0.06593(9)
S1B S -0.36806(3) 0.37340(3) 0.07470(3)
N2B N -0.35184(12) 0.56352(9) -0.04493(9)
C2B C -0.25938(13) 0.59089(9) -0.05133(9)
S2B S -0.12917(3) 0.63019(3) -0.06077(3)
N3B N -0.04262(11) 0.42220(8) -0.11865(8)
C3B C -0.15115(14) 0.39626(10) -0.14369(10)
H1B H -0.2144 0.4164 -0.1139
C4B C -0.17576(15) 0.34163(10) -0.21078(10)
H2B H -0.2542 0.3246 -0.2258
C5B C -0.08595(15) 0.31174(10) -0.25604(10)
C6B C 0.02696(15) 0.33922(11) -0.23069(11)
H3B H 0.0915 0.3207 -0.2600
C7B C 0.04436(15) 0.39346(11) -0.16282(10)
H4B H 0.1220 0.4114 -0.1465
C8B C -0.10783(18) 0.25269(11) -0.33020(11)
H5B H -0.0454 0.2096 -0.3275
H6B H -0.1835 0.2237 -0.3256
C9B C -0.11073(17) 0.29751(11) -0.41646(10)
H7B H -0.1153 0.2549 -0.4622
H8B H -0.0366 0.3288 -0.4197
C10B C -0.21313(18) 0.35815(13) -0.43200(11)
H9B H -0.2031 0.4052 -0.3911
H10B H -0.2868 0.3288 -0.4216
C11B C -0.22283(16) 0.39282(11) -0.52132(11)
C12B C -0.28698(19) 0.35037(14) -0.58651(13)
H11B H -0.3274 0.3003 -0.5744
C13B C -0.2924(2) 0.38070(17) -0.66920(14)
H12B H -0.3370 0.3514 -0.7131
C14B C -0.2342(2) 0.45223(16) -0.68827(14)
H13B H -0.2374 0.4723 -0.7451
C15B C -0.1708(2) 0.49491(14) -0.62418(16)
H14B H -0.1301 0.5447 -0.6369
C16B C -0.1660(2) 0.46580(13) -0.54112(13)
H15B H -0.1231 0.4964 -0.4973
N4B N 0.47170(13) 0.42990(9) -0.12659(9)
C17B C 0.41219(19) 0.35773(12) -0.13548(12)
H16B H 0.3773 0.3358 -0.0875
C18B C 0.3991(2) 0.31366(12) -0.21080(12)
H17B H 0.3546 0.2633 -0.2140
C19B C 0.45036(16) 0.34240(11) -0.28157(11)
C20B C 0.50883(18) 0.41836(13) -0.27282(12)
H18B H 0.5437 0.4420 -0.3199
C21B C 0.51643(17) 0.45953(12) -0.19584(11)
H19B H 0.5558 0.5120 -0.1920
C22B C 0.44258(18) 0.29516(12) -0.36462(12)
H20B H 0.5219 0.2904 -0.3849
H21B H 0.4136 0.2377 -0.3551
C23B C 0.3621(2) 0.33747(13) -0.43252(12)
H22B H 0.2812 0.3375 -0.4145
H23B H 0.3868 0.3966 -0.4383
C24B C 0.36262(19) 0.29391(12) -0.51920(12)
H24B H 0.3422 0.2340 -0.5130
H25B H 0.4424 0.2969 -0.5391
C25B C 0.27698(17) 0.33395(11) -0.58421(11)
C26B C 0.15778(19) 0.32075(12) -0.58147(13)
H26B H 0.1308 0.2844 -0.5395
C27B C 0.0773(2) 0.35963(14) -0.63881(14)
H27B H -0.0042 0.3503 -0.6356
C28B C 0.1152(2) 0.41167(14) -0.70043(14)
H28B H 0.0602 0.4382 -0.7400
C29B C 0.2324(2) 0.42492(15) -0.70443(14)
H29B H 0.2586 0.4606 -0.7472
C30B C 0.3139(2) 0.38688(12) -0.64673(13)
H30B H 0.3952 0.3971 -0.6500
Mn2_2 Mn -0.5000 0.5000 0.0000
S1B_2 S 0.63194(3) 0.37340(3) 0.07470(3)
N2B_2 N 0.64816(12) 0.56352(9) -0.04493(9)
loop_
_geom_bond_atom_site_label_1
_geom_bond_atom_site_label_2
_geom_bond_site_symmetry_1
_geom_bond_site_symmetry_2
Mn1 N1 1_555 1_555
Mn2 S1 1_555 1_555
N1 C1 1_555 1_555
C1 S1 1_555 1_555
N2 Mn2 1_555 1_555
C2 N2 1_555 1_555
S2 Mn1 1_555 1_555
N3 Mn1 1_555 1_555
C3 N3 1_555 1_555
H1 C3 1_555 1_555
C4 C3 1_555 1_555
H2 C4 1_555 1_555
C5 C4 1_555 1_555
C6 C5 1_555 1_555
H3 C6 1_555 1_555
C7 N3 1_555 1_555
H4 C7 1_555 1_555
C8 C5 1_555 1_555
H5 C8 1_555 1_555
H6 C8 1_555 1_555
C9 C8 1_555 1_555
H7 C9 1_555 1_555
H8 C9 1_555 1_555
C10 C9 1_555 1_555
H9 C10 1_555 1_555
H10 C10 1_555 1_555
C11 C10 1_555 1_555
C12 C11 1_555 1_555
H11 C12 1_555 1_555
C13 C12 1_555 1_555
H12 C13 1_555 1_555
C14 C13 1_555 1_555
H13 C14 1_555 1_555
C15 C14 1_555 1_555
H14 C15 1_555 1_555
C16 C11 1_555 1_555
H15 C16 1_555 1_555
N4 Mn2 1_555 1_555
C17 N4 1_555 1_555
H16 C17 1_555 1_555
C18 C17 1_555 1_555
H17 C18 1_555 1_555
C19 C18 1_555 1_555
C20 C19 1_555 1_555
H18 C20 1_555 1_555
C21 N4 1_555 1_555
H19 C21 1_555 1_555
C22 C19 1_555 1_555
H20 C22 1_555 1_555
H21 C22 1_555 1_555
C23 C22 1_555 1_555
H22 C23 1_555 1_555
H23 C23 1_555 1_555
C24 C23 1_555 1_555
H24 C24 1_555 1_555
H25 C24 1_555 1_555
C25 C24 1_555 1_555
C26 C25 1_555 1_555
H26 C26 1_555 1_555
C27 C26 1_555 1_555
H27 C27 1_555 1_555
C28 C27 1_555 1_555
H28 C28 1_555 1_555
C29 C28 1_555 1_555
H29 C29 1_555 1_555
C30 C25 1_555 1_555
H30 C30 1_555 1_555
N1B Mn1 1_555 1_555
C1B N1B 1_555 1_555
S1B C1B 1_555 1_555
N2B C2B 1_555 1_555
C2B S2B 1_555 1_555
S2B Mn1 1_555 1_555
N3B Mn1 1_555 1_555
C3B N3B 1_555 1_555
H1B C3B 1_555 1_555
C4B C3B 1_555 1_555
H2B C4B 1_555 1_555
C5B C4B 1_555 1_555
C6B C5B 1_555 1_555
H3B C6B 1_555 1_555
C7B N3B 1_555 1_555
H4B C7B 1_555 1_555
C8B C5B 1_555 1_555
H5B C8B 1_555 1_555
H6B C8B 1_555 1_555
C9B C8B 1_555 1_555
H7B C9B 1_555 1_555
H8B C9B 1_555 1_555
C10B C9B 1_555 1_555
H9B C10B 1_555 1_555
H10B C10B 1_555 1_555
C11B C10B 1_555 1_555
C12B C11B 1_555 1_555
H11B C12B 1_555 1_555
C13B C12B 1_555 1_555
H12B C13B 1_555 1_555
C14B C13B 1_555 1_555
H13B C14B 1_555 1_555
C15B C14B 1_555 1_555
H14B C15B 1_555 1_555
C16B C11B 1_555 1_555
H15B C16B 1_555 1_555
N4B Mn2 1_555 1_555
C17B N4B 1_555 1_555
H16B C17B 1_555 1_555
C18B C17B 1_555 1_555
H17B C18B 1_555 1_555
C19B C18B 1_555 1_555
C20B C19B 1_555 1_555
H18B C20B 1_555 1_555
C21B N4B 1_555 1_555
H19B C21B 1_555 1_555
C22B C19B 1_555 1_555
H20B C22B 1_555 1_555
H21B C22B 1_555 1_555
C23B C22B 1_555 1_555
H22B C23B 1_555 1_555
H23B C23B 1_555 1_555
C24B C23B 1_555 1_555
H24B C24B 1_555 1_555
H25B C24B 1_555 1_555
C25B C24B 1_555 1_555
C26B C25B 1_555 1_555
H26B C26B 1_555 1_555
C27B C26B 1_555 1_555
H27B C27B 1_555 1_555
C28B C27B 1_555 1_555
H28B C28B 1_555 1_555
C29B C28B 1_555 1_555
H29B C29B 1_555 1_555
C30B C25B 1_555 1_555
H30B C30B 1_555 1_555
Mn2_2 S1B 1_555 1_555
S1B_2 Mn2 1_555 1_555
N2B_2 Mn2 1_555 1_555
C2 S2 1_555 1_555
C6 C7 1_555 1_555
C15 C16 1_555 1_555
C20 C21 1_555 1_555
C29 C30 1_555 1_555
N2B Mn2_2 1_555 1_555
C6B C7B 1_555 1_555
C15B C16B 1_555 1_555
C20B C21B 1_555 1_555
C29B C30B 1_555 1_555

#END
