
#######################################################################
#
#                 Cambridge Crystallographic Data Centre
#                                CCDC 
#
#######################################################################
#
# If this CIF has been generated from an entry in the Cambridge 
# Structural Database, then it will include bibliographic, chemical, 
# crystal, experimental, refinement or atomic coordinate data resulting 
# from the CCDC's data processing and validation procedures.
#
#######################################################################

data_HOXXUO
_symmetry_cell_setting           monoclinic
_symmetry_space_group_name_H-M   'P 21/c'
_symmetry_Int_Tables_number      14
_space_group_name_Hall           '-P 2ybc'
loop_
_symmetry_equiv_pos_site_id
_symmetry_equiv_pos_as_xyz
1 x,y,z
2 -x,1/2+y,1/2-z
3 -x,-y,-z
4 x,1/2-y,1/2+z
_cell_length_a                   9.15170(10)
_cell_length_b                   11.1653(2)
_cell_length_c                   19.4241(3)
_cell_angle_alpha                90
_cell_angle_beta                 97.0830(10)
_cell_angle_gamma                90
_cell_volume                     1969.64
loop_
_atom_site_label
_atom_site_type_symbol
_atom_site_fract_x
_atom_site_fract_y
_atom_site_fract_z
O1 O 0.6462(3) 0.7966(3) 0.72732(17)
C1 C 0.7699(6) 0.7166(5) 0.7281(3)
C2 C 0.8908(6) 0.7437(6) 0.7847(3)
C3 C 0.8333(4) 0.0641(4) 0.4219(2)
H1 H 0.806(5) 0.721(5) 0.684(3)
H2 H 0.846(6) 0.745(5) 0.830(3)
H3 H 0.732(6) 0.634(5) 0.730(3)
H4 H 0.932(7) 0.822(6) 0.776(3)
H5 H 0.976(7) 0.681(6) 0.782(3)
H6 H 0.596(7) 0.789(6) 0.768(4)
H7 H 0.629(7) 0.687(4) 0.486(2)
H8 H 0.537(8) -0.191(7) 0.3924(10)
H9 H 0.625(6) 0.545(2) 0.213(3)
H10 H 0.581(6) 0.404(3) 0.639(2)
H11 H 0.607(7) -0.052(4) 0.606(2)
K1 K 0.44702(12) 0.70223(10) 0.60769(6)
O2 O 0.5999(3) 0.4705(3) 0.61584(15)
O3 O 0.6233(4) 0.6358(3) 0.52116(16)
O4 O 0.6050(4) -0.1010(3) 0.56979(15)
O5 O 0.5654(4) -0.1806(3) 0.43778(15)
O6 O 0.5968(4) 0.4724(3) 0.19681(15)
O7 O 0.5356(3) 0.2318(3) 0.17836(14)
C4 C 0.8677(4) 0.3237(4) 0.5137(2)
C5 C 0.9158(4) 0.1178(4) 0.3660(2)
H12 H 1.0094 0.1485 0.3878
H13 H 0.9367 0.0544 0.3345
C6 C 0.8553(4) 0.1024(4) 0.4914(2)
C7 C 0.6811(5) -0.0471(4) 0.5215(2)
C8 C 0.8348(4) 0.2183(4) 0.3239(2)
C9 C 0.9529(4) 0.2068(4) 0.5168(2)
H14 H 0.9956 0.1918 0.5643
H15 H 1.0328 0.2135 0.4885
C10 C 0.6758(5) 0.3896(4) 0.2389(2)
C11 C 0.7011(4) 0.5337(4) 0.5151(2)
C12 C 0.7765(4) 0.3449(4) 0.5657(2)
H16 H 0.7738 0.2883 0.6007
C13 C 0.6445(4) 0.2671(4) 0.2263(2)
C14 C 0.7349(5) -0.0303(4) 0.4044(2)
H17 H 0.7200 -0.0562 0.3586
C15 C 0.8593(4) 0.3401(4) 0.3371(2)
C16 C 0.7284(5) 0.1856(4) 0.2687(2)
H18 H 0.7129 0.1044 0.2599
C17 C 0.8719(4) 0.4075(4) 0.4609(2)
C18 C 0.7788(5) 0.0451(4) 0.5395(2)
H19 H 0.7940 0.0700 0.5855
C19 C 0.6912(4) 0.4465(4) 0.5667(2)
C20 C 0.7883(4) 0.5128(4) 0.4632(2)
H20 H 0.7919 0.5702 0.4287
C21 C 0.9579(4) 0.3894(4) 0.3993(2)
H21 H 1.0386 0.3342 0.4121
H22 H 0.9994 0.4653 0.3870
C22 C 0.7795(5) 0.4227(4) 0.2933(2)
H23 H 0.7973 0.5039 0.3011
C23 C 0.6590(5) -0.0864(4) 0.4526(2)
H11_2 H 0.607(7) 0.948(4) 0.606(2)
K1_2 K 0.44702(12) -0.29777(10) 0.60769(6)
K1B K 0.55298(12) 0.29777(10) 0.39231(6)
O4_2 O 0.6050(4) 0.8990(3) 0.56979(15)
C8B C 0.1652(4) 0.7817(4) 0.6761(2)
C15B C 0.1407(4) 0.6599(4) 0.6629(2)
loop_
_geom_bond_atom_site_label_1
_geom_bond_atom_site_label_2
_geom_bond_site_symmetry_1
_geom_bond_site_symmetry_2
O1 C1 1_555 1_555
C1 C2 1_555 1_555
C2 H2 1_555 1_555
C3 C5 1_555 1_555
H1 C1 1_555 1_555
H3 C1 1_555 1_555
H4 C2 1_555 1_555
H5 C2 1_555 1_555
H6 O1 1_555 1_555
H7 O3 1_555 1_555
H8 O5 1_555 1_555
H9 O6 1_555 1_555
H10 O2 1_555 1_555
H11 O4 1_555 1_555
K1 O1 1_555 1_555
O2 K1 1_555 1_555
O3 K1 1_555 1_555
O4 C7 1_555 1_555
O5 C23 1_555 1_555
O6 C10 1_555 1_555
O7 C13 1_555 1_555
C4 C9 1_555 1_555
C5 H12 1_555 1_555
H13 C5 1_555 1_555
C6 C3 1_555 1_555
C7 C18 1_555 1_555
C8 C5 1_555 1_555
C9 C6 1_555 1_555
H14 C9 1_555 1_555
H15 C9 1_555 1_555
C10 C13 1_555 1_555
C11 O3 1_555 1_555
C12 C4 1_555 1_555
H16 C12 1_555 1_555
C13 C16 1_555 1_555
C14 C3 1_555 1_555
H17 C14 1_555 1_555
C15 C8 1_555 1_555
C16 C8 1_555 1_555
H18 C16 1_555 1_555
C17 C4 1_555 1_555
C18 C6 1_555 1_555
H19 C18 1_555 1_555
C19 O2 1_555 1_555
C20 C11 1_555 1_555
H20 C20 1_555 1_555
C21 C15 1_555 1_555
H21 C21 1_555 1_555
H22 C21 1_555 1_555
C22 C10 1_555 1_555
H23 C22 1_555 1_555
C23 C7 1_555 1_555
H11_2 O4_2 1_555 1_555
K1_2 O4 1_555 1_555
K1B C8 1_555 1_555
O4_2 K1 1_555 1_555
C8B K1 1_555 1_555
C15B K1 1_555 1_555
C11 C19 1_555 1_555
C12 C19 1_555 1_555
C14 C23 1_555 1_555
C15 C22 1_555 1_555
C15 K1B 1_555 1_555
C17 C20 1_555 1_555
C17 C21 1_555 1_555
C8B C15B 1_555 1_555

#END
