
#######################################################################
#
#                 Cambridge Crystallographic Data Centre
#                                CCDC 
#
#######################################################################
#
# If this CIF has been generated from an entry in the Cambridge 
# Structural Database, then it will include bibliographic, chemical, 
# crystal, experimental, refinement or atomic coordinate data resulting 
# from the CCDC's data processing and validation procedures.
#
#######################################################################

data_HOXYAW
_symmetry_cell_setting           monoclinic
_symmetry_space_group_name_H-M   'P 21/c'
_symmetry_Int_Tables_number      14
_space_group_name_Hall           '-P 2ybc'
loop_
_symmetry_equiv_pos_site_id
_symmetry_equiv_pos_as_xyz
1 x,y,z
2 -x,1/2+y,1/2-z
3 -x,-y,-z
4 x,1/2-y,1/2+z
_cell_length_a                   19.471(4)
_cell_length_b                   8.2704(17)
_cell_length_c                   10.556(2)
_cell_angle_alpha                90
_cell_angle_beta                 98.03(3)
_cell_angle_gamma                90
_cell_volume                     1683.2
loop_
_atom_site_label
_atom_site_type_symbol
_atom_site_fract_x
_atom_site_fract_y
_atom_site_fract_z
V1 V 0.22126(6) 0.64908(15) 0.32402(11)
V2 V 0.27620(6) 0.91330(15) 0.54616(11)
Cu1 Cu 0.24414(4) 0.32420(11) 0.52421(8)
O1 O 0.2353(3) 0.4553(6) 0.3715(4)
O2 O 0.1457(3) 0.7038(7) 0.3497(5)
O3 O 0.2827(3) 0.7777(6) 0.4151(4)
O4 O 0.2441(2) 1.0938(6) 0.4900(5)
O5 O 0.3535(3) 0.9367(7) 0.6206(5)
O6 O 0.2239(3) 0.8280(6) 0.6556(4)
C1 C 0.1356(4) 0.2842(9) 0.6998(7)
H1 H 0.1587 0.2003 0.7464
C2 C 0.0542(3) 0.4612(8) 0.6323(6)
H2 H 0.0131 0.5202 0.6224
C3 C 0.0251(4) 0.2760(10) 0.7978(7)
H3 H 0.0439 0.1767 0.8374
H4 H -0.0189 0.2504 0.7467
C4 C 0.0126(4) 0.3954(9) 0.9022(6)
C5 C 0.0654(4) 0.4907(9) 0.9640(7)
H5 H 0.1096 0.4850 0.9403
C6 C -0.0526(4) 0.4053(10) 0.9388(7)
H6 H -0.0884 0.3415 0.8979
C7 C 0.4045(3) 0.4037(9) 0.8212(6)
H7 H 0.4225 0.4429 0.9016
C8 C 0.3913(4) 0.2702(9) 0.6389(7)
H8 H 0.4005 0.2017 0.5735
C9 C 0.4984(3) 0.1085(9) 0.9003(6)
C10 C 0.5550(4) 0.1046(9) 0.9959(7)
H9 H 0.5921 0.1748 0.9928
C11 C 0.4438(3) 0.0037(9) 0.9045(6)
H10 H 0.4061 0.0060 0.8399
N1 N 0.1600(3) 0.3691(8) 0.6086(6)
N2 N 0.1071(4) 0.4776(10) 0.5711(8)
H11 H 0.1090 0.5492 0.5126
N3 N 0.0729(3) 0.3384(8) 0.7137(5)
N4 N 0.3322(3) 0.3564(8) 0.6403(5)
N5 N 0.3460(4) 0.4348(10) 0.7541(7)
H12 H 0.3170 0.5017 0.7796
N6 N 0.4337(3) 0.2992(7) 0.7454(5)
C12 C 0.5013(4) 0.2255(10) 0.7872(7)
H13 H 0.5350 0.3097 0.8127
H14 H 0.5162 0.1669 0.7163
C1B C -0.1356(4) 0.7158(9) 1.3002(7)
H1B H -0.1587 0.7997 1.2536
C2B C -0.0542(3) 0.5388(8) 1.3677(6)
H2B H -0.0131 0.4798 1.3776
C3B C -0.0251(4) 0.7240(10) 1.2022(7)
H3B H -0.0439 0.8233 1.1626
H4B H 0.0189 0.7496 1.2533
C4B C -0.0126(4) 0.6046(9) 1.0978(6)
C5B C -0.0654(4) 0.5093(9) 1.0360(7)
H5B H -0.1096 0.5150 1.0597
C6B C 0.0526(4) 0.5947(10) 1.0612(7)
H6B H 0.0884 0.6585 1.1021
N1B N -0.1600(3) 0.6309(8) 1.3914(6)
N2B N -0.1071(4) 0.5224(10) 1.4289(8)
H11B H -0.1090 0.4508 1.4874
N3B N -0.0729(3) 0.6616(8) 1.2863(5)
C7B C 0.5955(3) -0.4037(9) 1.1788(6)
H7B H 0.5775 -0.4429 1.0984
C8B C 0.6087(4) -0.2702(9) 1.3611(7)
H8B H 0.5995 -0.2017 1.4265
C9B C 0.5016(3) -0.1085(9) 1.0997(6)
C10B C 0.4450(4) -0.1046(9) 1.0041(7)
H9B H 0.4079 -0.1748 1.0072
C11B C 0.5562(3) -0.0037(9) 1.0955(6)
H10B H 0.5939 -0.0060 1.1601
N4B N 0.6678(3) -0.3564(8) 1.3597(5)
N5B N 0.6540(4) -0.4348(10) 1.2459(7)
H12B H 0.6830 -0.5017 1.2204
N6B N 0.5663(3) -0.2992(7) 1.2546(5)
C12B C 0.4987(4) -0.2255(10) 1.2128(7)
H13B H 0.4650 -0.3097 1.1873
H14B H 0.4838 -0.1669 1.2837
V1B V -0.22126(6) 0.35092(15) 1.67598(11)
V2B V -0.27620(6) 0.08670(15) 1.45384(11)
Cu1B Cu -0.24414(4) 0.67580(11) 1.47579(8)
O1B O -0.2353(3) 0.5447(6) 1.6285(4)
O2B O -0.1457(3) 0.2962(7) 1.6503(5)
O3B O -0.2827(3) 0.2223(6) 1.5849(4)
O4B O -0.2441(2) -0.0938(6) 1.5100(5)
O5B O -0.3535(3) 0.0633(7) 1.3794(5)
O6B O -0.2239(3) 0.1720(6) 1.3444(4)
V1A V -0.22126(6) 0.14908(15) 1.17598(11)
V1C V 0.22126(6) 0.85092(15) 0.82402(11)
Cu1_2 Cu 0.24414(4) 1.32420(11) 0.52421(8)
Cu1B_2 Cu -0.24414(4) -0.32420(11) 1.47579(8)
Cu1B_3 Cu 0.75586(4) -0.32420(11) 1.47579(8)
O4_2 O 0.2441(2) 0.0938(6) 0.4900(5)
O4B_2 O -0.2441(2) 0.9062(6) 1.5100(5)
O6A O -0.2239(3) 0.3280(6) 1.8444(4)
O6C O 0.2239(3) 0.6720(6) 0.1556(4)
N4B_2 N -0.3322(3) 0.6436(8) 1.3597(5)
loop_
_geom_bond_atom_site_label_1
_geom_bond_atom_site_label_2
_geom_bond_site_symmetry_1
_geom_bond_site_symmetry_2
V1 O1 1_555 1_555
V2 O3 1_555 1_555
Cu1 O1 1_555 1_555
O2 V1 1_555 1_555
O3 V1 1_555 1_555
O4 V2 1_555 1_555
O5 V2 1_555 1_555
O6 V2 1_555 1_555
C1 H1 1_555 1_555
C2 H2 1_555 1_555
C3 H3 1_555 1_555
H4 C3 1_555 1_555
C4 C3 1_555 1_555
C5 C4 1_555 1_555
H5 C5 1_555 1_555
C6 C4 1_555 1_555
H6 C6 1_555 1_555
C7 H7 1_555 1_555
C8 H8 1_555 1_555
C9 C10 1_555 1_555
C10 H9 1_555 1_555
C11 C9 1_555 1_555
H10 C11 1_555 1_555
N1 Cu1 1_555 1_555
N2 C2 1_555 1_555
H11 N2 1_555 1_555
N3 C1 1_555 1_555
N4 Cu1 1_555 1_555
N5 C7 1_555 1_555
H12 N5 1_555 1_555
N6 C7 1_555 1_555
C12 C9 1_555 1_555
H13 C12 1_555 1_555
H14 C12 1_555 1_555
C1B H1B 1_555 1_555
C2B H2B 1_555 1_555
C3B H3B 1_555 1_555
H4B C3B 1_555 1_555
C4B C3B 1_555 1_555
C5B C6 1_555 1_555
H5B C5B 1_555 1_555
C6B C5 1_555 1_555
H6B C6B 1_555 1_555
N1B C1B 1_555 1_555
N2B C2B 1_555 1_555
H11B N2B 1_555 1_555
N3B C1B 1_555 1_555
C7B H7B 1_555 1_555
C8B H8B 1_555 1_555
C9B C10B 1_555 1_555
C10B C11 1_555 1_555
H9B C10B 1_555 1_555
C11B C10 1_555 1_555
H10B C11B 1_555 1_555
N4B C8B 1_555 1_555
N5B C7B 1_555 1_555
H12B N5B 1_555 1_555
N6B C7B 1_555 1_555
C12B C9B 1_555 1_555
H13B C12B 1_555 1_555
H14B C12B 1_555 1_555
V1B O1B 1_555 1_555
V2B O3B 1_555 1_555
Cu1B N1B 1_555 1_555
O1B Cu1B 1_555 1_555
O2B V1B 1_555 1_555
O3B V1B 1_555 1_555
O4B V2B 1_555 1_555
O5B V2B 1_555 1_555
O6B V2B 1_555 1_555
V1A O6B 1_555 1_555
V1C O6 1_555 1_555
Cu1_2 O4 1_555 1_555
Cu1B_2 O4B 1_555 1_555
Cu1B_3 N4B 1_555 1_555
O4_2 Cu1 1_555 1_555
O4B_2 Cu1B 1_555 1_555
O6A V1B 1_555 1_555
O6C V1 1_555 1_555
N4B_2 Cu1B 1_555 1_555
C1 N1 1_555 1_555
C2 N3 1_555 1_555
C3 N3 1_555 1_555
C8 N4 1_555 1_555
C8 N6 1_555 1_555
N1 N2 1_555 1_555
N4 N5 1_555 1_555
N6 C12 1_555 1_555
C2B N3B 1_555 1_555
C3B N3B 1_555 1_555
C4B C5B 1_555 1_555
C4B C6B 1_555 1_555
N1B N2B 1_555 1_555
C8B N6B 1_555 1_555
C9B C11B 1_555 1_555
N4B N5B 1_555 1_555
N6B C12B 1_555 1_555

#END
