
#######################################################################
#
#                 Cambridge Crystallographic Data Centre
#                                CCDC 
#
#######################################################################
#
# If this CIF has been generated from an entry in the Cambridge 
# Structural Database, then it will include bibliographic, chemical, 
# crystal, experimental, refinement or atomic coordinate data resulting 
# from the CCDC's data processing and validation procedures.
#
#######################################################################

data_HOXYEA
_symmetry_cell_setting           monoclinic
_symmetry_space_group_name_H-M   'P 21/c'
_symmetry_Int_Tables_number      14
_space_group_name_Hall           '-P 2ybc'
loop_
_symmetry_equiv_pos_site_id
_symmetry_equiv_pos_as_xyz
1 x,y,z
2 -x,1/2+y,1/2-z
3 -x,-y,-z
4 x,1/2-y,1/2+z
_cell_length_a                   19.494(4)
_cell_length_b                   8.2740(17)
_cell_length_c                   10.561(2)
_cell_angle_alpha                90
_cell_angle_beta                 97.88(3)
_cell_angle_gamma                90
_cell_volume                     1687.33
loop_
_atom_site_label
_atom_site_type_symbol
_atom_site_fract_x
_atom_site_fract_y
_atom_site_fract_z
V1 V 0.22135(5) 0.64930(13) 0.32393(9)
V2 V 0.27605(5) 0.58696(13) 0.04598(8)
Zn1 Zn 0.24408(3) 0.32408(9) 0.52404(6)
O1 O 0.2831(2) 0.7773(5) 0.4157(4)
O2 O 0.1451(2) 0.7033(6) 0.3495(4)
O3 O 0.2353(2) 0.4546(6) 0.3710(4)
O4 O 0.2238(2) 0.6705(5) 0.1557(4)
O5 O 0.3532(2) 0.5631(6) 0.1210(4)
O6 O 0.2442(2) 0.0928(5) 0.4908(4)
C1 C 0.1351(3) 0.2826(9) 0.6990(5)
H1 H 0.1582 0.1975 0.7440
C2 C 0.0545(3) 0.4613(8) 0.6323(5)
H2 H 0.0137 0.5210 0.6232
C3 C 0.0249(3) 0.2769(8) 0.7985(5)
H3 H 0.0429 0.1772 0.8383
H4 H -0.0192 0.2526 0.7474
C4 C 0.0129(3) 0.3964(8) 0.9021(5)
C5 C 0.0656(3) 0.4896(8) 0.9641(5)
H5 H 0.1099 0.4831 0.9409
C6 C 0.0525(3) 0.5934(8) 1.0614(5)
H6 H 0.0882 0.6568 1.1025
C7 C 0.3904(3) 0.2707(8) 0.6381(5)
H7 H 0.3994 0.2032 0.5719
C8 C 0.4041(3) 0.4033(8) 0.8210(5)
H8 H 0.4218 0.4431 0.9012
C9 C 0.5006(3) 0.2231(9) 0.7883(6)
H9 H 0.5344 0.3072 0.8136
H10 H 0.5157 0.1640 0.7178
C10 C 0.4981(3) 0.1098(8) 0.8989(5)
C11 C 0.4443(3) 0.0036(8) 0.9050(5)
H11 H 0.4065 0.0056 0.8407
C12 C 0.5552(3) 0.1058(8) 0.9962(5)
H12 H 0.5922 0.1762 0.9939
N1 N 0.1594(2) 0.3712(7) 0.6080(4)
N2 N 0.1077(3) 0.4769(9) 0.5699(6)
H13 H 0.1096 0.5473 0.5106
N3 N 0.0734(3) 0.3367(7) 0.7136(4)
N4 N 0.3327(2) 0.3547(6) 0.6396(4)
N5 N 0.3449(3) 0.4348(8) 0.7535(6)
H14 H 0.3156 0.5011 0.7786
N6 N 0.4340(2) 0.2972(7) 0.7457(4)
C1B C -0.1351(3) 0.7174(9) 1.3010(5)
H1B H -0.1582 0.8025 1.2560
C2B C -0.0545(3) 0.5387(8) 1.3677(5)
H2B H -0.0137 0.4790 1.3768
C3B C -0.0249(3) 0.7231(8) 1.2015(5)
H3B H -0.0429 0.8228 1.1617
H4B H 0.0192 0.7474 1.2526
C4B C -0.0129(3) 0.6036(8) 1.0979(5)
C5B C -0.0656(3) 0.5104(8) 1.0359(5)
H5B H -0.1099 0.5169 1.0591
C6B C -0.0525(3) 0.4066(8) 0.9386(5)
H6B H -0.0882 0.3432 0.8975
N1B N -0.1594(2) 0.6288(7) 1.3920(4)
N2B N -0.1077(3) 0.5231(9) 1.4301(6)
H13B H -0.1096 0.4527 1.4894
N3B N -0.0734(3) 0.6633(7) 1.2864(4)
C7B C 0.6096(3) -0.2707(8) 1.3619(5)
H7B H 0.6006 -0.2032 1.4281
C8B C 0.5959(3) -0.4033(8) 1.1790(5)
H8B H 0.5782 -0.4431 1.0988
C9B C 0.4994(3) -0.2231(9) 1.2117(6)
H9B H 0.4656 -0.3072 1.1864
H10B H 0.4843 -0.1640 1.2822
C10B C 0.5019(3) -0.1098(8) 1.1011(5)
C11B C 0.5557(3) -0.0036(8) 1.0950(5)
H11B H 0.5935 -0.0056 1.1593
C12B C 0.4448(3) -0.1058(8) 1.0038(5)
H12B H 0.4078 -0.1762 1.0061
N4B N 0.6673(2) -0.3547(6) 1.3604(4)
N5B N 0.6551(3) -0.4348(8) 1.2465(6)
H14B H 0.6844 -0.5011 1.2214
N6B N 0.5660(2) -0.2972(7) 1.2543(4)
V1B V -0.22135(5) 0.35070(13) 1.67607(9)
V2B V -0.27605(5) 0.41304(13) 1.95402(8)
Zn1B Zn -0.24408(3) 0.67592(9) 1.47596(6)
O1B O -0.2831(2) 0.2227(5) 1.5843(4)
O2B O -0.1451(2) 0.2967(6) 1.6505(4)
O3B O -0.2353(2) 0.5454(6) 1.6290(4)
O4B O -0.2238(2) 0.3295(5) 1.8443(4)
O5B O -0.3532(2) 0.4369(6) 1.8790(4)
O6B O -0.2442(2) 0.9072(5) 1.5092(4)
V2A V -0.27605(5) 0.08696(13) 1.45402(8)
V2A_2 V -0.27605(5) 1.08696(13) 1.45402(8)
V2C V 0.27605(5) -0.08696(13) 0.54598(8)
V2C_2 V 0.27605(5) 0.91304(13) 0.54598(8)
Zn1B_2 Zn 0.75592(3) -0.32408(9) 1.47596(6)
O1A O -0.2831(2) 0.2773(5) 2.0843(4)
O1C O 0.2831(2) 0.7227(5) -0.0843(4)
O6A O -0.2442(2) 0.5928(5) 2.0092(4)
O6C O 0.2442(2) 0.4072(5) -0.0092(4)
N4B_2 N -0.3327(2) 0.6453(6) 1.3604(4)
loop_
_geom_bond_atom_site_label_1
_geom_bond_atom_site_label_2
_geom_bond_site_symmetry_1
_geom_bond_site_symmetry_2
V1 O1 1_555 1_555
V2 O4 1_555 1_555
Zn1 O3 1_555 1_555
O1 V2C_2 1_555 1_555
O2 V1 1_555 1_555
O3 V1 1_555 1_555
O4 V1 1_555 1_555
O5 V2 1_555 1_555
O6 Zn1 1_555 1_555
C1 H1 1_555 1_555
C2 H2 1_555 1_555
C3 H3 1_555 1_555
H4 C3 1_555 1_555
C4 C3 1_555 1_555
C5 C4 1_555 1_555
H5 C5 1_555 1_555
C6 C5 1_555 1_555
H6 C6 1_555 1_555
C7 H7 1_555 1_555
C8 H8 1_555 1_555
C9 H9 1_555 1_555
H10 C9 1_555 1_555
C10 C9 1_555 1_555
C11 C10 1_555 1_555
H11 C11 1_555 1_555
C12 C10 1_555 1_555
H12 C12 1_555 1_555
N1 Zn1 1_555 1_555
N2 C2 1_555 1_555
H13 N2 1_555 1_555
N3 C1 1_555 1_555
N4 Zn1 1_555 1_555
N5 C8 1_555 1_555
H14 N5 1_555 1_555
N6 C7 1_555 1_555
C1B H1B 1_555 1_555
C2B H2B 1_555 1_555
C3B H3B 1_555 1_555
H4B C3B 1_555 1_555
C4B C6 1_555 1_555
C5B C4B 1_555 1_555
H5B C5B 1_555 1_555
C6B C4 1_555 1_555
H6B C6B 1_555 1_555
N1B C1B 1_555 1_555
N2B C2B 1_555 1_555
H13B N2B 1_555 1_555
N3B C1B 1_555 1_555
C7B H7B 1_555 1_555
C8B H8B 1_555 1_555
C9B H9B 1_555 1_555
H10B C9B 1_555 1_555
C10B C9B 1_555 1_555
C11B C12 1_555 1_555
H11B C11B 1_555 1_555
C12B C11 1_555 1_555
H12B C12B 1_555 1_555
N4B C7B 1_555 1_555
N5B C8B 1_555 1_555
H14B N5B 1_555 1_555
N6B C7B 1_555 1_555
V1B O1B 1_555 1_555
V2B O4B 1_555 1_555
Zn1B N1B 1_555 1_555
O1B V2A 1_555 1_555
O2B V1B 1_555 1_555
O3B V1B 1_555 1_555
O4B V1B 1_555 1_555
O5B V2B 1_555 1_555
O6B Zn1B 1_555 1_555
V2A_2 O6B 1_555 1_555
V2C O6 1_555 1_555
Zn1B_2 N4B 1_555 1_555
O1A V2B 1_555 1_555
O1C V2 1_555 1_555
O6A V2B 1_555 1_555
O6C V2 1_555 1_555
N4B_2 Zn1B 1_555 1_555
C1 N1 1_555 1_555
C2 N3 1_555 1_555
C3 N3 1_555 1_555
C7 N4 1_555 1_555
C8 N6 1_555 1_555
C9 N6 1_555 1_555
N1 N2 1_555 1_555
N4 N5 1_555 1_555
C2B N3B 1_555 1_555
C3B C4B 1_555 1_555
C3B N3B 1_555 1_555
C5B C6B 1_555 1_555
N1B N2B 1_555 1_555
C8B N6B 1_555 1_555
C9B N6B 1_555 1_555
C10B C11B 1_555 1_555
C10B C12B 1_555 1_555
N4B N5B 1_555 1_555
Zn1B O3B 1_555 1_555

#END
