
#######################################################################
#
#                 Cambridge Crystallographic Data Centre
#                                CCDC 
#
#######################################################################
#
# If this CIF has been generated from an entry in the Cambridge 
# Structural Database, then it will include bibliographic, chemical, 
# crystal, experimental, refinement or atomic coordinate data resulting 
# from the CCDC's data processing and validation procedures.
#
#######################################################################

data_HOXYIE
_symmetry_cell_setting           orthorhombic
_symmetry_space_group_name_H-M   'P 21 21 21'
_symmetry_Int_Tables_number      19
_space_group_name_Hall           'P 2ac 2ab'
loop_
_symmetry_equiv_pos_site_id
_symmetry_equiv_pos_as_xyz
1 x,y,z
2 1/2-x,-y,1/2+z
3 1/2+x,1/2-y,-z
4 -x,1/2+y,1/2-z
_cell_length_a                   23.371(5)
_cell_length_b                   14.419(3)
_cell_length_c                   14.251(3)
_cell_angle_alpha                90
_cell_angle_beta                 90
_cell_angle_gamma                90
_cell_volume                     4802.39
loop_
_atom_site_label
_atom_site_type_symbol
_atom_site_fract_x
_atom_site_fract_y
_atom_site_fract_z
Mn1 Mn -0.14716(4) -0.38251(8) -1.69550(7)
Mn2 Mn -0.34964(5) -0.88180(8) -1.27007(7)
O1 O -0.1930(2) -0.4577(4) -1.5809(4)
O2 O -0.1495(2) -0.5440(3) -1.6864(3)
O3 O -0.3455(2) -0.0437(4) -1.2731(4)
O4 O -0.2958(2) 0.0429(4) -1.3716(4)
O5 O -0.1695(2) -0.2616(4) -1.6209(4)
O6 O -0.3183(2) -0.7586(4) -1.3287(4)
O7 O -0.29342(19) -0.6110(4) -1.3097(3)
O8 O -0.1990(2) -0.1174(4) -1.6442(3)
N1 N -0.0664(2) -0.3809(5) -1.6086(4)
N2 N -0.0710(2) -0.3730(5) -1.7940(4)
N3 N -0.4360(2) -0.8718(4) -1.1959(4)
N4 N -0.4199(2) -0.8769(5) -1.3790(4)
C1 C -0.4084(3) -0.8749(7) -1.4732(5)
H1 H -0.3706 -0.8756 -1.4934
C2 C -0.4523(4) -0.8717(7) -1.5396(6)
H2 H -0.4434 -0.8728 -1.6032
C3 C -0.5092(3) -0.8671(6) -1.5117(5)
C4 C -0.5581(4) -0.8645(7) -1.5806(6)
H3 H -0.5433 -0.8624 -1.6434
H4 H -0.5810 -0.8103 -1.5692
H5 H -0.5812 -0.9190 -1.5730
C5 C -0.5199(3) -0.8725(6) -1.4150(5)
H6 H -0.5574 -0.8744 -1.3931
C6 C -0.4744(3) -0.8752(6) -1.3512(5)
C7 C -0.4835(3) -0.8756(5) -1.2481(5)
C8 C -0.5369(3) -0.8800(6) -1.2080(5)
H7 H -0.5690 -0.8821 -1.2466
C9 C -0.5442(3) -0.8813(6) -1.1117(5)
C10 C -0.6019(3) -0.8886(7) -1.0684(6)
H8 H -0.5984 -0.8880 -1.0013
H9 H -0.6198 -0.9454 -1.0879
H10 H -0.6250 -0.8370 -1.0881
C11 C -0.4941(3) -0.8723(6) -1.0580(5)
H11 H -0.4963 -0.8683 -0.9930
C12 C -0.4423(3) -0.8693(5) -1.1019(5)
H12 H -0.4096 -0.8654 -1.0650
C13 C -0.0740(3) -0.3737(6) -1.8898(5)
H13 H -0.1099 -0.3701 -1.9180
C14 C -0.0262(3) -0.3795(6) -1.9464(5)
H14 H -0.0305 -0.3775 -2.0113
C15 C 0.0270(3) -0.3881(6) -1.9090(5)
C16 C 0.0806(3) -0.3957(7) -1.9683(6)
H15 H 0.0705 -0.3935 -2.0335
H16 H 0.0995 -0.4534 -1.9550
H17 H 0.1058 -0.3451 -1.9538
C17 C 0.0313(3) -0.3886(6) -1.8123(5)
H18 H 0.0668 -0.3958 -1.7839
C18 C -0.0177(3) -0.3784(6) -1.7569(5)
C19 C -0.0158(3) -0.3791(6) -1.6527(5)
C20 C 0.0355(3) -0.3759(6) -1.6038(5)
H19 H 0.0700 -0.3758 -1.6365
C21 C 0.0358(3) -0.3728(6) -1.5067(5)
C22 C 0.0909(3) -0.3682(8) -1.4519(6)
H20 H 0.1227 -0.3674 -1.4946
H21 H 0.0938 -0.4215 -1.4118
H22 H 0.0914 -0.3129 -1.4145
C23 C -0.0164(3) -0.3742(7) -1.4613(5)
H23 H -0.0181 -0.3719 -1.3962
C24 C -0.0666(3) -0.3791(6) -1.5147(5)
H24 H -0.1016 -0.3812 -1.4836
C25 C -0.1798(3) -0.5385(6) -1.6137(6)
C26 C -0.2013(3) -0.6216(6) -1.5649(5)
C27 C -0.1912(3) -0.7069(5) -1.6041(6)
H25 H -0.1693 -0.7109 -1.6585
C28 C -0.2133(3) -0.7888(6) -1.5637(6)
H26 H -0.2063 -0.8464 -1.5909
C29 C -0.2461(3) -0.7815(6) -1.4819(6)
H27 H -0.2616 -0.8344 -1.4546
C30 C -0.2555(3) -0.6944(5) -1.4411(6)
C31 C -0.1981(3) -0.1917(6) -1.5972(6)
C32 C -0.2333(3) -0.6139(6) -1.4831(5)
H28 H -0.2399 -0.5561 -1.4564
C33 C -0.2908(3) -0.6874(5) -1.3526(6)
C34 C -0.3103(3) -0.0353(6) -1.3416(6)
C35 C -0.2841(3) -0.1216(6) -1.3819(5)
C36 C -0.2539(3) -0.1168(6) -1.4681(5)
H29 H -0.2506 -0.0604 -1.4993
C37 C -0.2294(3) -0.1957(5) -1.5059(6)
C38 C -0.2341(3) -0.2807(6) -1.4574(6)
H30 H -0.2177 -0.3341 -1.4821
C39 C -0.2626(3) -0.2841(6) -1.3750(6)
H31 H -0.2653 -0.3399 -1.3427
C40 C -0.2877(3) -0.2052(5) -1.3384(6)
H32 H -0.3077 -0.2095 -1.2821
Mn1A Mn -0.35284(4) -0.61749(8) -1.19550(7)
Mn2_2 Mn -0.34964(5) 0.11820(8) -1.27007(7)
Mn2A Mn -0.15036(5) -0.11820(8) -1.77007(7)
O3_2 O -0.3455(2) -1.0437(4) -1.2731(4)
O4_2 O -0.2958(2) -0.9571(4) -1.3716(4)
O7A O -0.20658(19) -0.3890(4) -1.8097(3)
O8A O -0.3010(2) -0.8826(4) -1.1442(3)
C41 C -0.3838(5) -1.6054(17) -0.7042(10)
H33 H -0.3678 -1.6643 -0.7008
C42 C -0.3454(7) -1.5311(15) -0.7007(10)
H34 H -0.3063 -1.5401 -0.7091
C43 C -0.3676(6) -1.4444(15) -0.6846(10)
C44 C -0.3227(6) -1.3689(15) -0.6702(11)
H35 H -0.2852 -1.3957 -0.6740
H36 H -0.3279 -1.3410 -0.6096
H37 H -0.3269 -1.3225 -0.7180
C45 C -0.4264(6) -1.4426(18) -0.6849(9)
H38 H -0.4429 -1.3851 -0.6734
C46 C -0.4634(7) -1.5132(14) -0.6996(10)
C47 C -0.5228(6) -1.4899(13) -0.7013(11)
C48 C -0.5899(6) -1.3660(17) -0.6835(10)
H39 H -0.5979 -1.3040 -0.6714
C49 C -0.6318(7) -1.4306(14) -0.7012(11)
H40 H -0.6695 -1.4107 -0.7062
C50 C -0.6201(6) -1.5246(14) -0.7120(11)
C51 C -0.6598(7) -1.6072(16) -0.7225(11)
H41 H -0.6377 -1.6633 -0.7235
H42 H -0.6809 -1.6017 -0.7801
H43 H -0.6860 -1.6088 -0.6706
C52 C -0.5634(3) -1.5559(9) -0.7161(5)
H44 H -0.5542 -1.6175 -0.7281
N5 N -0.4427(3) -1.6017(9) -0.7120(5)
N6 N -0.5356(3) -1.4002(9) -0.6851(5)
loop_
_geom_bond_atom_site_label_1
_geom_bond_atom_site_label_2
_geom_bond_site_symmetry_1
_geom_bond_site_symmetry_2
Mn1 O1 1_555 1_555
Mn2 O6 1_555 1_555
O1 C25 1_555 1_555
O2 Mn1 1_555 1_555
O3 C34 1_555 1_555
O4 C34 1_555 1_555
O5 Mn1 1_555 1_555
O6 C33 1_555 1_555
O7 C33 1_555 1_555
O8 C31 1_555 1_555
N1 Mn1 1_555 1_555
N2 Mn1 1_555 1_555
N3 Mn2 1_555 1_555
N4 Mn2 1_555 1_555
C1 N4 1_555 1_555
H1 C1 1_555 1_555
C2 C1 1_555 1_555
H2 C2 1_555 1_555
C3 C2 1_555 1_555
C4 C3 1_555 1_555
H3 C4 1_555 1_555
H4 C4 1_555 1_555
H5 C4 1_555 1_555
C5 C3 1_555 1_555
H6 C5 1_555 1_555
C6 N4 1_555 1_555
C7 N3 1_555 1_555
C8 C7 1_555 1_555
H7 C8 1_555 1_555
C9 C8 1_555 1_555
C10 C9 1_555 1_555
H8 C10 1_555 1_555
H9 C10 1_555 1_555
H10 C10 1_555 1_555
C11 C9 1_555 1_555
H11 C11 1_555 1_555
C12 N3 1_555 1_555
H12 C12 1_555 1_555
C13 N2 1_555 1_555
H13 C13 1_555 1_555
C14 C13 1_555 1_555
H14 C14 1_555 1_555
C15 C14 1_555 1_555
C16 C15 1_555 1_555
H15 C16 1_555 1_555
H16 C16 1_555 1_555
H17 C16 1_555 1_555
C17 C15 1_555 1_555
H18 C17 1_555 1_555
C18 N2 1_555 1_555
C19 N1 1_555 1_555
C20 C19 1_555 1_555
H19 C20 1_555 1_555
C21 C20 1_555 1_555
C22 C21 1_555 1_555
H20 C22 1_555 1_555
H21 C22 1_555 1_555
H22 C22 1_555 1_555
C23 C21 1_555 1_555
H23 C23 1_555 1_555
C24 N1 1_555 1_555
H24 C24 1_555 1_555
C25 O2 1_555 1_555
C26 C25 1_555 1_555
C27 C26 1_555 1_555
H25 C27 1_555 1_555
C28 C27 1_555 1_555
H26 C28 1_555 1_555
C29 C28 1_555 1_555
H27 C29 1_555 1_555
C30 C29 1_555 1_555
C31 O5 1_555 1_555
C32 C26 1_555 1_555
H28 C32 1_555 1_555
C33 C30 1_555 1_555
C34 C35 1_555 1_555
C35 C36 1_555 1_555
C36 H29 1_555 1_555
C37 C31 1_555 1_555
C38 C37 1_555 1_555
H30 C38 1_555 1_555
C39 C38 1_555 1_555
H31 C39 1_555 1_555
C40 C35 1_555 1_555
H32 C40 1_555 1_555
C41 H33 1_555 1_555
C42 C41 1_555 1_555
H34 C42 1_555 1_555
C43 C42 1_555 1_555
C44 C43 1_555 1_555
H35 C44 1_555 1_555
H36 C44 1_555 1_555
H37 C44 1_555 1_555
C45 C43 1_555 1_555
H38 C45 1_555 1_555
C46 C45 1_555 1_555
C47 C46 1_555 1_555
C48 H39 1_555 1_555
C49 C48 1_555 1_555
H40 C49 1_555 1_555
C50 C49 1_555 1_555
C51 C50 1_555 1_555
H41 C51 1_555 1_555
H42 C51 1_555 1_555
H43 C51 1_555 1_555
C52 C47 1_555 1_555
H44 C52 1_555 1_555
N5 C41 1_555 1_555
N6 C47 1_555 1_555
Mn1A O7 1_555 1_555
Mn2_2 O3 1_555 1_555
Mn2A O8 1_555 1_555
O3_2 Mn2 1_555 1_555
O4_2 Mn2 1_555 1_555
O7A Mn1 1_555 1_555
O8A Mn2 1_555 1_555
O4 Mn2_2 1_555 1_555
C5 C6 1_555 1_555
C6 C7 1_555 1_555
C11 C12 1_555 1_555
C17 C18 1_555 1_555
C18 C19 1_555 1_555
C23 C24 1_555 1_555
C30 C32 1_555 1_555
C36 C37 1_555 1_555
C39 C40 1_555 1_555
C46 N5 1_555 1_555
C48 N6 1_555 1_555
C50 C52 1_555 1_555

#END
