
#######################################################################
#
#                 Cambridge Crystallographic Data Centre
#                                CCDC 
#
#######################################################################
#
# If this CIF has been generated from an entry in the Cambridge 
# Structural Database, then it will include bibliographic, chemical, 
# crystal, experimental, refinement or atomic coordinate data resulting 
# from the CCDC's data processing and validation procedures.
#
#######################################################################

data_HOXZEB
_symmetry_cell_setting           monoclinic
_symmetry_space_group_name_H-M   'P 21/c'
_symmetry_Int_Tables_number      14
_space_group_name_Hall           '-P 2ybc'
loop_
_symmetry_equiv_pos_site_id
_symmetry_equiv_pos_as_xyz
1 x,y,z
2 -x,1/2+y,1/2-z
3 -x,-y,-z
4 x,1/2-y,1/2+z
_cell_length_a                   10.1288(3)
_cell_length_b                   9.4139(2)
_cell_length_c                   21.4156(8)
_cell_angle_alpha                90
_cell_angle_beta                 103.197(3)
_cell_angle_gamma                90
_cell_volume                     1988.08
loop_
_atom_site_label
_atom_site_type_symbol
_atom_site_fract_x
_atom_site_fract_y
_atom_site_fract_z
O1 O 0.0945(3) -0.2862(2) 0.38585(12)
O2 O 0.2415(3) -0.2427(3) 0.47507(12)
O3 O 0.4694(3) 0.2677(3) 0.42486(13)
O4 O 0.3155(3) 0.3546(3) 0.34635(13)
N1 N 0.1309(3) -0.0234(3) 0.34175(12)
N2 N 0.1811(3) 0.1059(3) 0.33178(13)
N3 N 0.1788(3) -0.2090(3) 0.42108(14)
N4 N 0.3620(3) 0.2586(3) 0.38491(14)
C1 C 0.2861(3) 0.1296(3) 0.38240(16)
C2 C 0.3075(3) 0.0208(4) 0.42626(17)
C3 C 0.2064(3) -0.0711(3) 0.39791(15)
O5 O 0.0413(2) 1.0002(2) 0.20169(10)
O6 O 0.2319(2) 1.0647(2) 0.18096(12)
O7 O 0.5225(2) 0.5562(3) 0.20240(14)
O8 O 0.3834(2) 0.4056(2) 0.22987(12)
N5 N 0.1975(3) 0.6093(3) 0.22930(12)
N6 N 0.1272(2) 0.7311(3) 0.22360(12)
N7 N 0.1570(3) 0.9720(3) 0.19478(12)
N8 N 0.4139(3) 0.5263(3) 0.21518(13)
C4 C 0.3167(3) 0.6382(3) 0.21347(15)
C5 C 0.3271(3) 0.7795(3) 0.19586(16)
C6 C 0.2059(3) 0.8299(3) 0.20428(14)
O9 O 0.1670(3) 0.3695(3) 0.10960(13)
Ba1 Ba 0.103523(18) 0.316954(18) 0.227303(9)
C7 C 0.1656(5) 0.4940(4) 0.07281(18)
H1 H 0.1950 0.4713 0.0334
H2 H 0.2274 0.5643 0.0977
H3 H 0.0735 0.5330 0.0618
H4 H 0.395(4) 0.819(3) 0.1868(16)
H5 H 0.365(4) 0.017(4) 0.4620(18)
H6 H 0.195(4) 0.311(4) 0.0932(18)
O1A O -0.0945(3) 0.2138(2) 0.11415(12)
N1A N -0.1309(3) 0.4766(3) 0.15825(12)
O5_2 O 0.0413(2) 0.0002(2) 0.20169(10)
O5A O -0.0413(2) 0.5002(2) 0.29831(10)
O6_2 O 0.2319(2) 0.0647(2) 0.18096(12)
N6A N -0.1272(2) 0.2311(3) 0.27640(12)
Ba1_2 Ba 0.103523(18) 1.316954(18) 0.227303(9)
Ba1A Ba -0.103523(18) -0.183046(18) 0.272697(9)
Ba1A_2 Ba -0.103523(18) 0.816954(18) 0.272697(9)
O10 O 0.2870(3) 0.1798(2) 0.04044(13)
C8 C 0.0721(5) 0.1655(5) -0.0344(2)
H7 H 0.0124 0.1019 -0.0644
H8 H 0.0947 0.2483 -0.0576
H9 H 0.0259 0.1969 -0.0013
C9 C 0.2004(6) 0.0875(5) -0.0033(2)
H10 H 0.1780 0.0030 0.0198
H11 H 0.2472 0.0550 -0.0366
C10 C 0.4135(5) 0.1123(5) 0.0682(2)
H12 H 0.4623 0.0912 0.0341
H13 H 0.3963 0.0214 0.0881
C11 C 0.4978(5) 0.2042(5) 0.1169(3)
H14 H 0.5841 0.1566 0.1351
H15 H 0.4503 0.2233 0.1511
H16 H 0.5153 0.2940 0.0971
loop_
_geom_bond_atom_site_label_1
_geom_bond_atom_site_label_2
_geom_bond_site_symmetry_1
_geom_bond_site_symmetry_2
O1 N3 1_555 1_555
O2 N3 1_555 1_555
O3 N4 1_555 1_555
O4 N4 1_555 1_555
N1 N2 1_555 1_555
N2 C1 1_555 1_555
N3 C3 1_555 1_555
N4 C1 1_555 1_555
C1 C2 1_555 1_555
C2 C3 1_555 1_555
C3 N1 1_555 1_555
O5 N7 1_555 1_555
O6 N7 1_555 1_555
O7 N8 1_555 1_555
O8 N8 1_555 1_555
N5 N6 1_555 1_555
N6 C6 1_555 1_555
N7 C6 1_555 1_555
N8 C4 1_555 1_555
C4 N5 1_555 1_555
C5 C4 1_555 1_555
C6 C5 1_555 1_555
O9 Ba1 1_555 1_555
Ba1 O4 1_555 1_555
C7 O9 1_555 1_555
H1 C7 1_555 1_555
H2 C7 1_555 1_555
H3 C7 1_555 1_555
H4 C5 1_555 1_555
H5 C2 1_555 1_555
H6 O9 1_555 1_555
O10 C9 1_555 1_555
C8 H7 1_555 1_555
H8 C8 1_555 1_555
H9 C8 1_555 1_555
C9 C8 1_555 1_555
H10 C9 1_555 1_555
H11 C9 1_555 1_555
C10 O10 1_555 1_555
H12 C10 1_555 1_555
H13 C10 1_555 1_555
C11 C10 1_555 1_555
H14 C11 1_555 1_555
H15 C11 1_555 1_555
H16 C11 1_555 1_555
O1A Ba1 1_555 1_555
N1A Ba1 1_555 1_555
O5_2 Ba1 1_555 1_555
O5A Ba1 1_555 1_555
O6_2 Ba1 1_555 1_555
N6A Ba1 1_555 1_555
Ba1_2 O5 1_555 1_555
Ba1A O1 1_555 1_555
Ba1A_2 O5 1_555 1_555
N1 Ba1A 1_555 1_555
N2 Ba1 1_555 1_555
O6 Ba1_2 1_555 1_555
O8 Ba1 1_555 1_555
N5 Ba1 1_555 1_555
N6 Ba1A_2 1_555 1_555
O5_2 Ba1A 1_555 1_555
O5A Ba1A_2 1_555 1_555

#END
