
#######################################################################
#
#                 Cambridge Crystallographic Data Centre
#                                CCDC 
#
#######################################################################
#
# If this CIF has been generated from an entry in the Cambridge 
# Structural Database, then it will include bibliographic, chemical, 
# crystal, experimental, refinement or atomic coordinate data resulting 
# from the CCDC's data processing and validation procedures.
#
#######################################################################

data_HOXZOL
_symmetry_cell_setting           orthorhombic
_symmetry_space_group_name_H-M   'F d d 2'
_symmetry_Int_Tables_number      43
_space_group_name_Hall           'F 2 -2d'
loop_
_symmetry_equiv_pos_site_id
_symmetry_equiv_pos_as_xyz
1 x,y,z
2 -x,-y,z
3 1/4-x,1/4+y,1/4+z
4 3/4+x,3/4-y,1/4+z
5 x,1/2+y,1/2+z
6 -x,1/2-y,1/2+z
7 1/4-x,3/4+y,3/4+z
8 3/4+x,1/4-y,3/4+z
9 1/2+x,y,1/2+z
10 1/2-x,-y,1/2+z
11 3/4-x,1/4+y,3/4+z
12 1/4+x,3/4-y,3/4+z
13 1/2+x,1/2+y,z
14 1/2-x,1/2-y,z
15 3/4-x,3/4+y,1/4+z
16 1/4+x,1/4-y,1/4+z
_cell_length_a                   28.5318(8)
_cell_length_b                   28.4016(8)
_cell_length_c                   8.5108(2)
_cell_angle_alpha                90
_cell_angle_beta                 90
_cell_angle_gamma                90
_cell_volume                     6896.72
loop_
_atom_site_label
_atom_site_type_symbol
_atom_site_fract_x
_atom_site_fract_y
_atom_site_fract_z
O1 O 0.15525(8) 0.01082(8) 1.3440(2)
O2 O 0.09275(8) 0.05454(8) 1.3129(2)
O3 O 0.03634(7) 0.07528(9) 0.9862(3)
O4 O 0.07998(9) 0.13595(8) 1.0378(3)
O5 O 0.10674(7) 0.10613(7) 0.6806(2)
O6 O 0.17286(8) 0.07304(7) 0.6109(2)
N1 N 0.17708(9) 0.01816(8) 1.0409(3)
N2 N 0.18047(9) 0.03026(8) 0.8890(3)
N3 N 0.12777(9) 0.03441(8) 1.2636(3)
N4 N 0.07407(9) 0.09430(9) 1.0050(3)
N5 N 0.14084(8) 0.08041(7) 0.7053(3)
C1 C 0.13892(10) 0.03935(9) 1.1002(3)
C2 C 0.11596(9) 0.06594(9) 0.9868(3)
C3 C 0.14389(10) 0.05887(9) 0.8565(3)
Sr1 Sr 0.239032(9) -0.030190(8) 1.21922(3)
O7 O 0.24775(9) -0.05246(7) 0.8982(3)
N6 N 0.25814(9) -0.11946(8) 1.3551(3)
N7 N 0.27026(9) -0.11641(8) 1.5077(3)
C4 C 0.27641(11) -0.15985(10) 1.2988(3)
N8 N 0.31740(8) -0.16024(8) 1.6954(3)
O8 O 0.31777(8) -0.12683(7) 1.7864(2)
O9 O 0.24843(9) -0.14617(9) 1.0509(3)
C5 C 0.30093(10) -0.18349(9) 1.4139(3)
N9 N 0.32704(10) -0.22743(9) 1.4037(3)
N10 N 0.27189(10) -0.17207(9) 1.1348(3)
C6 C 0.29613(10) -0.15443(9) 1.5429(3)
O10 O 0.33551(7) -0.19835(6) 1.7221(3)
O11 O 0.36956(9) -0.22500(8) 1.3943(3)
O12 O 0.30521(10) -0.26368(8) 1.4100(4)
O13 O 0.29225(12) -0.20729(9) 1.0920(3)
O14 O 0.28136(9) 0.03546(7) 1.0408(2)
O15 O 0.16782(9) -0.08115(9) 1.1692(3)
H1 H 0.1397(17) -0.0753(13) 1.131(5)
H2 H 0.3091(16) 0.0395(13) 1.068(5)
H3 H 0.2266(17) -0.0694(16) 0.869(6)
H4 H 0.2692(14) -0.0752(12) 0.887(4)
H5 H 0.2695(14) 0.0592(14) 1.063(4)
H6 H 0.1653(16) -0.1056(16) 1.207(6)
O6I O 0.32714(8) -0.07304(7) 1.1109(2)
N2I N 0.31953(9) -0.03026(8) 1.3890(3)
Sr1I Sr 0.260968(9) 0.030190(8) 0.71922(3)
O7I O 0.25225(9) 0.05246(7) 1.3982(3)
O14I O 0.21864(9) -0.03546(7) 1.5408(2)
loop_
_geom_bond_atom_site_label_1
_geom_bond_atom_site_label_2
_geom_bond_site_symmetry_1
_geom_bond_site_symmetry_2
O1 N3 1_555 1_555
O2 N3 1_555 1_555
O3 N4 1_555 1_555
O4 N4 1_555 1_555
O5 N5 1_555 1_555
O6 N5 1_555 1_555
N1 N2 1_555 1_555
N2 C3 1_555 1_555
N3 C1 1_555 1_555
N4 C2 1_555 1_555
N5 C3 1_555 1_555
C1 N1 1_555 1_555
C2 C1 1_555 1_555
C3 C2 1_555 1_555
Sr1 O1 1_555 1_555
O7 Sr1 1_555 1_555
N6 Sr1 1_555 1_555
N7 N6 1_555 1_555
C4 N6 1_555 1_555
N8 O8 1_555 1_555
O9 N10 1_555 1_555
C5 C4 1_555 1_555
N9 C5 1_555 1_555
N10 C4 1_555 1_555
C6 N7 1_555 1_555
O10 N8 1_555 1_555
O11 N9 1_555 1_555
O12 N9 1_555 1_555
O13 N10 1_555 1_555
O14 Sr1 1_555 1_555
O15 Sr1 1_555 1_555
H1 O15 1_555 1_555
H2 O14 1_555 1_555
H3 O7 1_555 1_555
H4 O7 1_555 1_555
H5 O14 1_555 1_555
H6 O15 1_555 1_555
O6I Sr1 1_555 1_555
N2I Sr1 1_555 1_555
Sr1I O6 1_555 1_555
O7I Sr1 1_555 1_555
O14I Sr1 1_555 1_555
N1 Sr1 1_555 1_555
N2 Sr1I 1_555 1_555
O7 Sr1I 1_555 1_555
N8 C6 1_555 1_555
C5 C6 1_555 1_555
O14 Sr1I 1_555 1_555

#END
