
#######################################################################
#
#                 Cambridge Crystallographic Data Centre
#                                CCDC 
#
#######################################################################
#
# If this CIF has been generated from an entry in the Cambridge 
# Structural Database, then it will include bibliographic, chemical, 
# crystal, experimental, refinement or atomic coordinate data resulting 
# from the CCDC's data processing and validation procedures.
#
#######################################################################

data_HOXZUR
_symmetry_cell_setting           orthorhombic
_symmetry_space_group_name_H-M   'F d d 2'
_symmetry_Int_Tables_number      43
_space_group_name_Hall           'F 2 -2d'
loop_
_symmetry_equiv_pos_site_id
_symmetry_equiv_pos_as_xyz
1 x,y,z
2 -x,-y,z
3 1/4-x,1/4+y,1/4+z
4 1/4+x,1/4-y,1/4+z
5 x,1/2+y,1/2+z
6 -x,1/2-y,1/2+z
7 1/4-x,3/4+y,3/4+z
8 1/4+x,3/4-y,3/4+z
9 1/2+x,y,1/2+z
10 1/2-x,-y,1/2+z
11 3/4-x,1/4+y,3/4+z
12 3/4+x,1/4-y,3/4+z
13 1/2+x,1/2+y,z
14 1/2-x,1/2-y,z
15 3/4-x,3/4+y,1/4+z
16 3/4+x,3/4-y,1/4+z
_cell_length_a                   28.6910(8)
_cell_length_b                   28.8940(9)
_cell_length_c                   8.8301(2)
_cell_angle_alpha                90
_cell_angle_beta                 90
_cell_angle_gamma                90
_cell_volume                     7320.13
loop_
_atom_site_label
_atom_site_type_symbol
_atom_site_fract_x
_atom_site_fract_y
_atom_site_fract_z
Ba1 Ba 0.783747(4) 0.989489(5) 1.632739(19)
O1 O 0.71223(7) 1.03425(7) 1.4581(2)
N1 N 0.78183(8) 1.07338(7) 1.8125(2)
O2 O 0.82600(8) 1.08269(8) 1.5456(2)
O3 O 0.85851(8) 1.14662(7) 1.6218(3)
O4 O 0.80601(9) 1.15670(8) 2.2272(3)
N2 N 0.78610(8) 1.12238(8) 2.1782(3)
O5 O 0.80461(8) 0.99810(8) 1.3076(2)
N3 N 0.87124(9) 1.00860(9) 1.7880(3)
N4 N 0.83296(7) 1.11293(7) 1.6396(3)
N5 N 0.76946(8) 1.07586(8) 1.9584(3)
C1 C 0.79106(9) 1.11246(9) 2.0198(3)
O6 O 0.76343(9) 1.09516(8) 2.2550(2)
O7 O 0.83402(10) 0.91123(9) 1.5972(3)
N6 N 0.86877(8) 1.02005(9) 1.9349(3)
C2 C 0.81801(9) 1.13493(8) 1.9142(3)
C3 C 0.81122(9) 1.10894(9) 1.7852(3)
N7 N 0.91305(8) 1.06596(8) 2.1137(3)
C4 C 0.91056(10) 1.02655(11) 1.7304(3)
C5 C 0.90672(9) 1.04558(9) 1.9663(3)
N8 N 0.84780(10) 1.17532(9) 1.9359(3)
C6 C 0.93466(9) 1.05052(9) 1.8404(3)
N9 N 0.92072(11) 1.02158(11) 1.5726(3)
O8 O 0.95089(7) 1.08378(8) 2.1388(3)
O9 O 0.88035(8) 1.06632(8) 2.2033(3)
O10 O 0.82995(11) 1.21274(8) 1.9241(3)
N10 N 0.97832(10) 1.07641(10) 1.8266(3)
O11 O 0.88871(10) 1.16794(11) 1.9653(4)
O12 O 0.89232(11) 1.00099(10) 1.4949(3)
O13 O 1.01425(9) 1.05592(11) 1.8397(5)
O14 O 0.97614(12) 1.11729(11) 1.8091(4)
O15 O 0.95612(12) 1.03898(16) 1.5265(4)
H1 H 0.7063(19) 1.0640(6) 1.480(6)
H2 H 0.8211(16) 0.9722(10) 1.291(6)
H3 H 0.8261(17) 0.8840(9) 1.556(5)
H4 H 0.8287(10) 1.0177(11) 1.299(5)
H5 H 0.6867(8) 1.0185(11) 1.485(5)
H6 H 0.8601(11) 0.9070(17) 1.651(5)
Ba1I Ba 0.716253(4) 1.010511(5) 1.132739(19)
Ba1I_2 Ba 0.716253(4) 1.010511(5) 2.132739(19)
O1I O 0.78777(7) 0.96575(7) 1.9581(2)
O5I O 0.69539(8) 1.00190(8) 1.8076(2)
N5I N 0.73054(8) 0.92414(8) 1.4584(3)
O6I O 0.73657(9) 0.90484(8) 1.7550(2)
loop_
_geom_bond_atom_site_label_1
_geom_bond_atom_site_label_2
_geom_bond_site_symmetry_1
_geom_bond_site_symmetry_2
Ba1 O1 1_555 1_555
O1 H1 1_555 1_555
N1 Ba1 1_555 1_555
O2 Ba1 1_555 1_555
O3 N4 1_555 1_555
O4 N2 1_555 1_555
N2 C1 1_555 1_555
O5 Ba1 1_555 1_555
N3 Ba1 1_555 1_555
N4 O2 1_555 1_555
N5 N1 1_555 1_555
C1 N5 1_555 1_555
O6 N2 1_555 1_555
O7 Ba1 1_555 1_555
N6 N3 1_555 1_555
C2 C1 1_555 1_555
C3 N1 1_555 1_555
N7 C5 1_555 1_555
C4 N3 1_555 1_555
C5 N6 1_555 1_555
N8 C2 1_555 1_555
C6 C4 1_555 1_555
N9 C4 1_555 1_555
O8 N7 1_555 1_555
O9 N7 1_555 1_555
O10 N8 1_555 1_555
N10 C6 1_555 1_555
O11 N8 1_555 1_555
O12 N9 1_555 1_555
O13 N10 1_555 1_555
O14 N10 1_555 1_555
O15 N9 1_555 1_555
H2 O5 1_555 1_555
H3 O7 1_555 1_555
H4 O5 1_555 1_555
H5 O1 1_555 1_555
H6 O7 1_555 1_555
Ba1I O1 1_555 1_555
Ba1I_2 N5 1_555 1_555
O1I Ba1 1_555 1_555
O5I Ba1 1_555 1_555
N5I Ba1 1_555 1_555
O6I Ba1 1_555 1_555
O5 Ba1I 1_555 1_555
N4 C3 1_555 1_555
O6 Ba1I_2 1_555 1_555
C2 C3 1_555 1_555
C5 C6 1_555 1_555
Ba1I_2 O1I 1_555 1_555
Ba1I_2 O5I 1_555 1_555

#END
