
#######################################################################
#
#                 Cambridge Crystallographic Data Centre
#                                CCDC 
#
#######################################################################
#
# If this CIF has been generated from an entry in the Cambridge 
# Structural Database, then it will include bibliographic, chemical, 
# crystal, experimental, refinement or atomic coordinate data resulting 
# from the CCDC's data processing and validation procedures.
#
#######################################################################

data_HOYCOP
_symmetry_cell_setting           orthorhombic
_symmetry_space_group_name_H-M   'P b c a'
_symmetry_Int_Tables_number      61
_space_group_name_Hall           '-P 2ac 2ab'
loop_
_symmetry_equiv_pos_site_id
_symmetry_equiv_pos_as_xyz
1 x,y,z
2 1/2-x,-y,1/2+z
3 1/2+x,1/2-y,-z
4 -x,1/2+y,1/2-z
5 -x,-y,-z
6 1/2+x,y,1/2-z
7 1/2-x,1/2+y,z
8 x,1/2-y,1/2+z
_cell_length_a                   10.7430(3)
_cell_length_b                   6.8335(2)
_cell_length_c                   35.0543(9)
_cell_angle_alpha                90
_cell_angle_beta                 90
_cell_angle_gamma                90
_cell_volume                     2573.42
loop_
_atom_site_label
_atom_site_type_symbol
_atom_site_fract_x
_atom_site_fract_y
_atom_site_fract_z
Cu1 Cu 0.5000 1.0000 0.5000
Cu2 Cu 0.56111(3) 0.88819(5) 0.414043(8)
Cu3 Cu 0.42096(3) 0.54098(5) 0.296016(9)
K1 K 0.59583(6) 0.38069(8) 0.374266(15)
O1 O 0.41380(17) 0.9158(3) 0.20674(5)
O2 O 0.41231(18) 1.0480(3) 0.40893(5)
O3 O 0.61738(18) 0.9787(3) 0.36314(5)
O4 O 0.63804(17) 1.1124(3) 0.45407(5)
O5 O 0.26335(17) 0.6851(3) 0.29877(5)
O6 O 0.79150(17) 1.2214(3) 0.41786(5)
O7 O 0.36730(17) 1.1239(3) 0.47055(5)
O8 O 0.49663(17) 0.7812(3) 0.46295(5)
O9 O 0.46895(18) 0.7179(3) 0.25426(5)
O10 O 0.12467(18) 0.8443(3) 0.33414(5)
O11 O 0.50436(17) 0.7250(3) 0.34388(5)
O12 O 0.4483(2) 0.5100(3) 0.43195(6)
C1 C 0.4443(2) 0.6102(4) 0.46029(8)
H1 H 0.4005 0.5614 0.4818
C2 C 0.7386(2) 1.2005(4) 0.44974(7)
H2 H 0.7619 1.2961 0.4701
C3 C 0.5691(3) 0.8714(4) 0.33759(7)
H3 H 0.5836 0.9059 0.3117
C4 C 0.3511(2) 1.1311(4) 0.43490(7)
H4 H 0.2836 1.2099 0.4266
C5 C 0.2062(3) 0.7142(4) 0.32926(7)
H5 H 0.2256 0.6323 0.3503
C6 C 0.3907(3) 0.7858(4) 0.23109(7)
H6 H 0.3084 0.7354 0.2321
Cu2D Cu 0.43889(3) 1.11181(5) 0.585957(8)
Cu3D Cu 0.57904(3) 1.45902(5) 0.703984(9)
K1D K 0.40417(6) 1.61931(8) 0.625734(15)
O1D O 0.58620(17) 1.0842(3) 0.79326(5)
O2D O 0.58769(18) 0.9520(3) 0.59107(5)
O3D O 0.38262(18) 1.0213(3) 0.63686(5)
O4D O 0.36196(17) 0.8876(3) 0.54593(5)
O5D O 0.73665(17) 1.3149(3) 0.70123(5)
O6D O 0.20850(17) 0.7786(3) 0.58214(5)
O7D O 0.63270(17) 0.8761(3) 0.52945(5)
O8D O 0.50337(17) 1.2188(3) 0.53705(5)
O9D O 0.53105(18) 1.2821(3) 0.74574(5)
O10D O 0.87533(18) 1.1557(3) 0.66586(5)
O11D O 0.49564(17) 1.2750(3) 0.65612(5)
O12D O 0.5517(2) 1.4900(3) 0.56805(6)
C1D C 0.5557(2) 1.3898(4) 0.53971(8)
H1D H 0.5995 1.4386 0.5182
C2D C 0.2614(2) 0.7995(4) 0.55026(7)
H2D H 0.2381 0.7039 0.5299
C3D C 0.4309(3) 1.1286(4) 0.66241(7)
H3D H 0.4164 1.0941 0.6883
C4D C 0.6489(2) 0.8689(4) 0.56510(7)
H4D H 0.7164 0.7901 0.5734
C5D C 0.7938(3) 1.2858(4) 0.67074(7)
H5D H 0.7744 1.3677 0.6497
C6D C 0.6093(3) 1.2142(4) 0.76891(7)
H6D H 0.6916 1.2646 0.7679
Cu2B Cu 0.06111(3) 0.61181(5) 0.585957(8)
Cu2F Cu 0.93889(3) 1.38819(5) 0.414043(8)
Cu3B Cu 0.92096(3) 0.95902(5) 0.703984(9)
Cu3C Cu 0.57904(3) 1.04098(5) 0.203984(9)
Cu3F Cu 0.07904(3) 1.04098(5) 0.296016(9)
Cu3G Cu 0.42096(3) 0.95902(5) 0.796016(9)
K1_2 K 0.59583(6) 1.38069(8) 0.374266(15)
K1B K 0.09583(6) 1.11931(8) 0.625734(15)
K1B_2 K 1.09583(6) 1.11931(8) 0.625734(15)
K1C K 0.40417(6) 0.88069(8) 0.125734(15)
K1D_2 K 0.40417(6) 0.61931(8) 0.625734(15)
K1F K -0.09583(6) 0.88069(8) 0.374266(15)
K1F_2 K 0.90417(6) 0.88069(8) 0.374266(15)
K1G K 0.59583(6) 1.11931(8) 0.874266(15)
O1C O 0.58620(17) 0.4158(3) 0.29326(5)
O1G O 0.41380(17) 1.5842(3) 0.70674(5)
O2_2 O 0.41231(18) 0.0480(3) 0.40893(5)
O2D_2 O 0.58769(18) 1.9520(3) 0.59107(5)
O3_2 O 0.61738(18) -0.0213(3) 0.36314(5)
O3B O 0.11738(18) 1.5213(3) 0.63686(5)
O3D_2 O 0.38262(18) 2.0213(3) 0.63686(5)
O3F O 0.88262(18) 0.4787(3) 0.36314(5)
O4_2 O 0.63804(17) 0.1124(3) 0.45407(5)
O4D_2 O 0.36196(17) 1.8876(3) 0.54593(5)
O6_2 O 0.79150(17) 0.2214(3) 0.41786(5)
O6B O 0.29150(17) 1.2786(3) 0.58214(5)
O6D_2 O 0.20850(17) 1.7786(3) 0.58214(5)
O6F O 0.70850(17) 0.7214(3) 0.41786(5)
O10B O 0.62467(18) 1.6557(3) 0.66586(5)
O10F O 0.37533(18) 0.3443(3) 0.33414(5)
loop_
_geom_bond_atom_site_label_1
_geom_bond_atom_site_label_2
_geom_bond_site_symmetry_1
_geom_bond_site_symmetry_2
Cu1 O4 1_555 1_555
Cu2 O2 1_555 1_555
Cu3 O5 1_555 1_555
K1 O11 1_555 1_555
O1 C6 1_555 1_555
O2 C4 1_555 1_555
O3 Cu2 1_555 1_555
O4 Cu2 1_555 1_555
O5 C5 1_555 1_555
O6 C2 1_555 1_555
O7 Cu1 1_555 1_555
O8 Cu1 1_555 1_555
O9 Cu3 1_555 1_555
O10 C5 1_555 1_555
O11 Cu2 1_555 1_555
O12 K1 1_555 1_555
C1 O8 1_555 1_555
H1 C1 1_555 1_555
C2 O4 1_555 1_555
H2 C2 1_555 1_555
C3 O3 1_555 1_555
H3 C3 1_555 1_555
C4 O7 1_555 1_555
H4 C4 1_555 1_555
C5 H5 1_555 1_555
C6 O9 1_555 1_555
H6 C6 1_555 1_555
Cu2D O2D 1_555 1_555
Cu3D O5D 1_555 1_555
K1D O11D 1_555 1_555
O1D C6D 1_555 1_555
O2D C4D 1_555 1_555
O3D Cu2D 1_555 1_555
O4D Cu1 1_555 1_555
O5D C5D 1_555 1_555
O6D C2D 1_555 1_555
O7D Cu1 1_555 1_555
O8D Cu1 1_555 1_555
O9D Cu3D 1_555 1_555
O10D C5D 1_555 1_555
O11D Cu2D 1_555 1_555
O12D K1D 1_555 1_555
C1D O8D 1_555 1_555
H1D C1D 1_555 1_555
C2D O4D 1_555 1_555
H2D C2D 1_555 1_555
C3D O3D 1_555 1_555
H3D C3D 1_555 1_555
C4D O7D 1_555 1_555
H4D C4D 1_555 1_555
C5D H5D 1_555 1_555
C6D O9D 1_555 1_555
H6D C6D 1_555 1_555
Cu2B O6D 1_555 1_555
Cu2F O6 1_555 1_555
Cu3B O10D 1_555 1_555
Cu3C O1 1_555 1_555
Cu3F O10 1_555 1_555
Cu3G O1D 1_555 1_555
K1_2 O2 1_555 1_555
K1B O3D 1_555 1_555
K1B_2 O10D 1_555 1_555
K1C O1 1_555 1_555
K1D_2 O2D 1_555 1_555
K1F O10 1_555 1_555
K1F_2 O3 1_555 1_555
K1G O1D 1_555 1_555
O1C Cu3 1_555 1_555
O1G Cu3D 1_555 1_555
O2_2 K1 1_555 1_555
O2D_2 K1D 1_555 1_555
O3_2 K1 1_555 1_555
O3B K1D 1_555 1_555
O3D_2 K1D 1_555 1_555
O3F K1 1_555 1_555
O4_2 K1 1_555 1_555
O4D_2 K1D 1_555 1_555
O6_2 K1 1_555 1_555
O6B Cu2D 1_555 1_555
O6D_2 K1D 1_555 1_555
O6F Cu2 1_555 1_555
O10B Cu3D 1_555 1_555
O10F Cu3 1_555 1_555
Cu2 O8 1_555 1_555
Cu3 O11 1_555 1_555
K1 O1C 1_555 1_555
K1 O6F 1_555 1_555
K1 O10F 1_555 1_555
O3 K1_2 1_555 1_555
O4 K1_2 1_555 1_555
O6 K1_2 1_555 1_555
O6 K1F_2 1_555 1_555
O11 C3 1_555 1_555
O12 C1 1_555 1_555
Cu2D O4D 1_555 1_555
Cu2D O8D 1_555 1_555
Cu3D O11D 1_555 1_555
K1D O1G 1_555 1_555
K1D O6B 1_555 1_555
K1D O10B 1_555 1_555
O3D K1D_2 1_555 1_555
O4D K1D_2 1_555 1_555
O6D K1B 1_555 1_555
O6D K1D_2 1_555 1_555
O11D C3D 1_555 1_555
O12D C1D 1_555 1_555
K1B O3B 1_555 1_555
K1B O6B 1_555 1_555
K1F_2 O3F 1_555 1_555
K1F_2 O6F 1_555 1_555

#END
