
#######################################################################
#
#                 Cambridge Crystallographic Data Centre
#                                CCDC 
#
#######################################################################
#
# If this CIF has been generated from an entry in the Cambridge 
# Structural Database, then it will include bibliographic, chemical, 
# crystal, experimental, refinement or atomic coordinate data resulting 
# from the CCDC's data processing and validation procedures.
#
#######################################################################

data_HOYHOT
_symmetry_cell_setting           hexagonal
_symmetry_space_group_name_H-M   'P 63 2 2'
_symmetry_Int_Tables_number      182
_space_group_name_Hall           "P 6c 2'c"
loop_
_symmetry_equiv_pos_site_id
_symmetry_equiv_pos_as_xyz
1 x,y,z
2 x-y,x,1/2+z
3 -y,x-y,z
4 -x,-y,1/2+z
5 -x+y,-x,z
6 y,-x+y,1/2+z
7 x-y,-y,-z
8 -x,-x+y,-z
9 y,x,-z
10 -y,-x,1/2-z
11 -x+y,y,1/2-z
12 x,x-y,1/2-z
_cell_length_a                   14.575(3)
_cell_length_b                   14.575(3)
_cell_length_c                   13.889(4)
_cell_angle_alpha                90
_cell_angle_beta                 90
_cell_angle_gamma                120
_cell_volume                     2555.16
loop_
_atom_site_label
_atom_site_type_symbol
_atom_site_fract_x
_atom_site_fract_y
_atom_site_fract_z
Co1 Co 0.33880(9) 0.16940(5) 0.7500
K1 K 0.6667 0.3333 0.7500
O1 O 0.4598(7) 0.2754(7) 0.8286(8)
O2 O 0.3411(7) 0.2531(7) 0.9174(7)
N1 N 0.2653(4) 0.2370(4) 0.6806(4)
N2 N 0.1721(4) 0.2927(4) 0.5974(4)
H1 H 0.1145 0.2885 0.5726
C1 C 0.3313(6) 0.3559(5) 0.6779(6)
H2 H 0.4048 0.3792 0.6575
H3 H 0.3327 0.3871 0.7416
C2 C 0.2740(7) 0.3861(6) 0.6034(7)
H4 H 0.2682 0.4477 0.6252
H5 H 0.3109 0.4029 0.5405
C3 C 0.1799(5) 0.2124(5) 0.6363(4)
C4 C 0.0873(4) 0.1033(5) 0.6307(5)
C5 C -0.0163(5) 0.0856(5) 0.6299(4)
H6 H -0.0274 0.1445 0.6287
C6 C 0.4303(14) 0.2964(10) 0.8989(10)
C7 C 0.5180(8) 0.3756(10) 0.9673(11)
H7 H 0.5265 0.3369 1.0210
H8 H 0.4981 0.4261 0.9924
H9 H 0.5850 0.4140 0.9320
Co1B Co -0.16940(5) 0.16940(10) 0.7500
Co1D Co -0.16940(10) -0.33880(9) 0.7500
K1_2 K -0.3333 0.3333 0.7500
K1_3 K -0.3333 -0.6667 0.7500
O1B O 0.7246(7) 0.1844(10) 0.8286(8)
O1D O 0.8156(10) 0.5402(7) 0.8286(8)
O1I O 0.7246(7) 0.5402(7) 0.6714(8)
O1J O 0.8156(10) 0.2754(7) 0.6714(8)
O1K O 0.4598(7) 0.1844(10) 0.6714(8)
O1B_2 O -0.2754(7) 0.1844(10) 0.8286(8)
O1J_2 O -0.1844(10) 0.2754(7) 0.6714(8)
O1D_2 O -0.1844(10) -0.4598(7) 0.8286(8)
O1I_2 O -0.2754(7) -0.4598(7) 0.6714(8)
O2K O 0.3411(7) 0.0880(10) 0.5826(7)
O2B O -0.2531(7) 0.0880(10) 0.9174(7)
O2J O -0.0880(10) 0.2531(7) 0.5826(7)
O2D O -0.0880(10) -0.3411(7) 0.9174(7)
O2I O -0.2531(7) -0.3411(7) 0.5826(7)
N1B N -0.2370(4) 0.0283(6) 0.6806(4)
N1D N -0.0283(6) -0.2653(4) 0.6806(4)
N1K N 0.2653(4) 0.0283(6) 0.8194(4)
N1I N -0.2370(4) -0.2653(4) 0.8194(4)
N1J N -0.0283(6) 0.2370(4) 0.8194(4)
N2B N -0.2927(4) -0.1206(6) 0.5974(4)
N2D N 0.1206(6) -0.1721(4) 0.5974(4)
N2K N 0.1721(4) -0.1206(6) 0.9026(4)
N2I N -0.2927(4) -0.1721(4) 0.9026(4)
N2J N 0.1206(6) 0.2927(4) 0.9026(4)
H1B H -0.2885 -0.1740 0.5726
H1D H 0.1740 -0.1145 0.5726
H1K H 0.1145 -0.1740 0.9274
H1I H -0.2885 -0.1145 0.9274
H1J H 0.1740 0.2885 0.9274
C1B C -0.3559(5) -0.0246(8) 0.6779(6)
C1D C 0.0246(8) -0.3313(6) 0.6779(6)
C1K C 0.3313(6) -0.0246(8) 0.8221(6)
C1I C -0.3559(5) -0.3313(6) 0.8221(6)
C1J C 0.0246(8) 0.3559(5) 0.8221(6)
H2B H -0.3792 0.0256 0.6575
H2D H -0.0256 -0.4048 0.6575
H2K H 0.4048 0.0256 0.8425
H2I H -0.3792 -0.4048 0.8425
H2J H -0.0256 0.3792 0.8425
H3B H -0.3871 -0.0544 0.7416
H3D H 0.0544 -0.3327 0.7416
H3K H 0.3327 -0.0544 0.7584
H3I H -0.3871 -0.3327 0.7584
H3J H 0.0544 0.3871 0.7584
C2B C -0.3861(6) -0.1121(9) 0.6034(7)
C2D C 0.1121(9) -0.2740(7) 0.6034(7)
C2K C 0.2740(7) -0.1121(9) 0.8966(7)
C2I C -0.3861(6) -0.2740(7) 0.8966(7)
C2J C 0.1121(9) 0.3861(6) 0.8966(7)
H4B H -0.4477 -0.1795 0.6252
H4D H 0.1795 -0.2682 0.6252
H4K H 0.2682 -0.1795 0.8748
H4I H -0.4477 -0.2682 0.8748
H4J H 0.1795 0.4477 0.8748
H5B H -0.4029 -0.0920 0.5405
H5D H 0.0920 -0.3109 0.5405
H5K H 0.3109 -0.0920 0.9595
H5I H -0.4029 -0.3109 0.9595
H5J H 0.0920 0.4029 0.9595
C3B C -0.2124(5) -0.0325(7) 0.6363(4)
C3D C 0.0325(7) -0.1799(5) 0.6363(4)
C3K C 0.1799(5) -0.0325(7) 0.8637(4)
C3I C -0.2124(5) -0.1799(5) 0.8637(4)
C3J C 0.0325(7) 0.2124(5) 0.8637(4)
C4B C -0.1033(5) -0.0160(6) 0.6307(5)
C4D C 0.0160(6) -0.0873(4) 0.6307(5)
C4K C 0.0873(4) -0.0160(6) 0.8693(5)
C4I C -0.1033(5) -0.0873(4) 0.8693(5)
C4J C 0.0160(6) 0.1033(5) 0.8693(5)
C5B C -0.0856(5) -0.1019(7) 0.6299(4)
C5D C 0.1019(7) 0.0163(5) 0.6299(4)
C5K C -0.0163(5) -0.1019(7) 0.8701(4)
C5I C -0.0856(5) 0.0163(5) 0.8701(4)
C5J C 0.1019(7) 0.0856(5) 0.8701(4)
H6D H 0.1719 0.0274 0.6287
H6B H -0.1445 -0.1719 0.6287
H6K H -0.0274 -0.1719 0.8713
H6J H 0.1719 0.1445 0.8713
H6I H -0.1445 0.0274 0.8713
C6K C 0.4303(14) 0.1339(17) 0.6011(10)
C6B C -0.2964(10) 0.1339(17) 0.8989(10)
C6J C -0.1339(17) 0.2964(10) 0.6011(10)
C6D C -0.1339(17) -0.4303(14) 0.8989(10)
C6I C -0.2964(10) -0.4303(14) 0.6011(10)
C7K C 0.5180(8) 0.1424(13) 0.5327(11)
C7B C -0.3756(10) 0.1424(13) 0.9673(11)
C7J C -0.1424(13) 0.3756(10) 0.5327(11)
C7D C -0.1424(13) -0.5180(8) 0.9673(11)
C7I C -0.3756(10) -0.5180(8) 0.5327(11)
H7K H 0.5265 0.1896 0.4790
H7B H -0.3369 0.1896 1.0210
H7J H -0.1896 0.3369 0.4790
H7D H -0.1896 -0.5265 1.0210
H7I H -0.3369 -0.5265 0.4790
H8K H 0.4981 0.0720 0.5076
H8B H -0.4261 0.0720 0.9924
H8J H -0.0720 0.4261 0.5076
H8D H -0.0720 -0.4981 0.9924
H8I H -0.4261 -0.4981 0.5076
H9K H 0.5850 0.1710 0.5680
H9B H -0.4140 0.1710 0.9320
H9J H -0.1710 0.4140 0.5680
H9D H -0.1710 -0.5850 0.9320
H9I H -0.4140 -0.5850 0.5680
P1 P 0.3333 0.6667 0.7500
F1 F 0.3333 0.6667 0.6418(5)
F2 F 0.4465(11) 0.7561(10) 0.7581(12)
F1I F 0.3333 0.6667 0.8582(5)
F2K F 0.4465(11) 0.6904(15) 0.7419(12)
F2B F 0.2439(10) 0.6904(15) 0.7581(12)
F2J F 0.3096(15) 0.7561(10) 0.7419(12)
F2D F 0.3096(15) 0.5535(11) 0.7581(12)
F2I F 0.2439(10) 0.5535(11) 0.7419(12)
F3? F 0.3704(18) 0.5857(13) 0.7530(13)
loop_
_geom_bond_atom_site_label_1
_geom_bond_atom_site_label_2
_geom_bond_site_symmetry_1
_geom_bond_site_symmetry_2
P1 F1 1_555 1_555
F2 P1 1_555 1_555
Co1 O1 1_555 1_555
K1 O1 1_555 1_555
O1 C6 1_555 1_555
O2 C6 1_555 1_555
N1 Co1 1_555 1_555
N2 H1 1_555 1_555
C1 N1 1_555 1_555
H2 C1 1_555 1_555
H3 C1 1_555 1_555
C2 N2 1_555 1_555
H4 C2 1_555 1_555
H5 C2 1_555 1_555
C3 N1 1_555 1_555
C4 C3 1_555 1_555
C5 C4 1_555 1_555
H6 C5 1_555 1_555
C6 C7 1_555 1_555
C7 H7 1_555 1_555
H8 C7 1_555 1_555
H9 C7 1_555 1_555
F1I P1 1_555 1_555
F2K P1 1_555 1_555
F2B P1 1_555 1_555
F2J P1 1_555 1_555
F2D P1 1_555 1_555
F2I P1 1_555 1_555
Co1B O1B_2 1_555 1_555
Co1D O1D_2 1_555 1_555
K1_2 O1B_2 1_555 1_555
K1_3 O1D_2 1_555 1_555
O1B K1 1_555 1_555
O1D K1 1_555 1_555
O1I K1 1_555 1_555
O1J K1 1_555 1_555
O1K Co1 1_555 1_555
O1B_2 C6B 1_555 1_555
O1J_2 Co1B 1_555 1_555
O1D_2 C6D 1_555 1_555
O1I_2 Co1D 1_555 1_555
O2K C6K 1_555 1_555
O2B C6B 1_555 1_555
O2J C6J 1_555 1_555
O2D C6D 1_555 1_555
O2I C6I 1_555 1_555
N1B Co1B 1_555 1_555
N1D Co1D 1_555 1_555
N1K Co1 1_555 1_555
N1I Co1D 1_555 1_555
N1J Co1B 1_555 1_555
N2B H1B 1_555 1_555
N2D H1D 1_555 1_555
N2K H1K 1_555 1_555
N2I H1I 1_555 1_555
N2J H1J 1_555 1_555
C1B N1B 1_555 1_555
C1D N1D 1_555 1_555
C1K N1K 1_555 1_555
C1I N1I 1_555 1_555
C1J N1J 1_555 1_555
H2B C1B 1_555 1_555
H2D C1D 1_555 1_555
H2K C1K 1_555 1_555
H2I C1I 1_555 1_555
H2J C1J 1_555 1_555
H3B C1B 1_555 1_555
H3D C1D 1_555 1_555
H3K C1K 1_555 1_555
H3I C1I 1_555 1_555
H3J C1J 1_555 1_555
C2B N2B 1_555 1_555
C2D N2D 1_555 1_555
C2K N2K 1_555 1_555
C2I N2I 1_555 1_555
C2J N2J 1_555 1_555
H4B C2B 1_555 1_555
H4D C2D 1_555 1_555
H4K C2K 1_555 1_555
H4I C2I 1_555 1_555
H4J C2J 1_555 1_555
H5B C2B 1_555 1_555
H5D C2D 1_555 1_555
H5K C2K 1_555 1_555
H5I C2I 1_555 1_555
H5J C2J 1_555 1_555
C3B N1B 1_555 1_555
C3D N1D 1_555 1_555
C3K N1K 1_555 1_555
C3I N1I 1_555 1_555
C3J N1J 1_555 1_555
C4B C5 1_555 1_555
C4D C3D 1_555 1_555
C4K C3K 1_555 1_555
C4I C3I 1_555 1_555
C4J C3J 1_555 1_555
C5B C4B 1_555 1_555
C5D C4 1_555 1_555
C5K C4K 1_555 1_555
C5I C4I 1_555 1_555
C5J C4K 1_555 1_555
H6D C5D 1_555 1_555
H6B C5B 1_555 1_555
H6K C5K 1_555 1_555
H6J C5J 1_555 1_555
H6I C5I 1_555 1_555
C6K O1K 1_555 1_555
C6B C7B 1_555 1_555
C6J O1J_2 1_555 1_555
C6D C7D 1_555 1_555
C6I O1I_2 1_555 1_555
C7K C6K 1_555 1_555
C7B H7B 1_555 1_555
C7J C6J 1_555 1_555
C7D H7D 1_555 1_555
C7I C6I 1_555 1_555
H7K C7K 1_555 1_555
H7J C7J 1_555 1_555
H7I C7I 1_555 1_555
H8K C7K 1_555 1_555
H8B C7B 1_555 1_555
H8J C7J 1_555 1_555
H8D C7D 1_555 1_555
H8I C7I 1_555 1_555
H9K C7K 1_555 1_555
H9B C7B 1_555 1_555
H9J C7J 1_555 1_555
H9D C7D 1_555 1_555
H9I C7I 1_555 1_555
F2 F2K 1_555 1_555
K1 O1K 1_555 1_555
N2 C3 1_555 1_555
C1 C2 1_555 1_555
F2B F2J 1_555 1_555
F2D F2I 1_555 1_555
K1_2 O1J_2 1_555 1_555
K1_3 O1I_2 1_555 1_555
N2B C3B 1_555 1_555
N2D C3D 1_555 1_555
N2K C3K 1_555 1_555
N2I C3I 1_555 1_555
N2J C3J 1_555 1_555
C1B C2B 1_555 1_555
C1D C2D 1_555 1_555
C1K C2K 1_555 1_555
C1I C2I 1_555 1_555
C1J C2J 1_555 1_555
C3B C4B 1_555 1_555
C4D C5B 1_555 1_555
C4D C5D 1_555 1_555
C4I C5K 1_555 1_555
C4J C5I 1_555 1_555
C4J C5J 1_555 1_555

#END
