
#######################################################################
#
#                 Cambridge Crystallographic Data Centre
#                                CCDC 
#
#######################################################################
#
# If this CIF has been generated from an entry in the Cambridge 
# Structural Database, then it will include bibliographic, chemical, 
# crystal, experimental, refinement or atomic coordinate data resulting 
# from the CCDC's data processing and validation procedures.
#
#######################################################################

data_HOYJUB
_symmetry_cell_setting           monoclinic
_symmetry_space_group_name_H-M   'C 2/c'
_symmetry_Int_Tables_number      15
_space_group_name_Hall           '-C 2yn'
loop_
_symmetry_equiv_pos_site_id
_symmetry_equiv_pos_as_xyz
1 x,y,z
2 -x,y,1/2-z
3 1/2+x,1/2+y,z
4 1/2-x,1/2+y,1/2-z
5 -x,-y,-z
6 x,-y,1/2+z
7 1/2-x,1/2-y,-z
8 1/2+x,1/2-y,1/2+z
_cell_length_a                   42.178(15)
_cell_length_b                   9.0683(18)
_cell_length_c                   23.821(5)
_cell_angle_alpha                90
_cell_angle_beta                 93.27(3)
_cell_angle_gamma                90
_cell_volume                     9096.29
loop_
_atom_site_label
_atom_site_type_symbol
_atom_site_fract_x
_atom_site_fract_y
_atom_site_fract_z
Mo1 Mo 0.83439(2) 0.57092(12) 0.87076(4)
Mo2 Mo 0.90123(3) 0.51673(14) 0.87556(5)
Cu1 Cu 0.85982(4) 0.33992(19) 0.93133(7)
Cu2 Cu 0.85922(4) 0.3523(2) 0.80757(7)
S1 S 0.81594(8) 0.3402(4) 0.86581(14)
S2 S 0.90108(9) 0.2712(4) 0.87252(15)
S3 S 0.86985(9) 0.5798(4) 0.94914(14)
S4 S 0.86908(8) 0.5971(4) 0.79871(14)
N1 N 0.8571(3) 0.2093(14) 0.9956(4)
C1 C 0.8190(3) 0.8184(13) 0.8745(5)
C2 C 0.8034(3) 0.7570(13) 0.8237(5)
C3 C 0.7827(3) 0.6458(16) 0.8395(5)
C4 C 0.7831(3) 0.6359(14) 0.8996(5)
C5 C 0.8046(3) 0.7453(15) 0.9208(5)
C6 C 0.8399(4) 0.9475(16) 0.8770(8)
H1 H 0.8562 0.9364 0.8494
H2 H 0.8502 0.9558 0.9148
H3 H 0.8274 1.0365 0.8684
C7 C 0.8080(4) 0.8210(18) 0.7665(6)
H4 H 0.7931 0.7744 0.7388
H5 H 0.8298 0.8029 0.7561
H6 H 0.8040 0.9275 0.7672
C8 C 0.7601(3) 0.5607(18) 0.7996(6)
H7 H 0.7416 0.6223 0.7890
H8 H 0.7531 0.4711 0.8183
H9 H 0.7710 0.5338 0.7659
C9 C 0.7621(3) 0.5404(17) 0.9337(6)
H10 H 0.7727 0.5219 0.9708
H11 H 0.7582 0.4464 0.9142
H12 H 0.7419 0.5907 0.9383
C10 C 0.8098(4) 0.7863(18) 0.9807(5)
H13 H 0.7999 0.7123 1.0041
H14 H 0.8002 0.8829 0.9870
H15 H 0.8326 0.7910 0.9907
C11 C 0.8306(4) 0.1949(16) 1.0229(6)
H16 H 0.8123 0.2478 1.0091
C12 C 0.8279(3) 0.1087(17) 1.0698(6)
H17 H 0.8080 0.0962 1.0860
C13 C 0.8544(3) 0.0419(15) 1.0923(5)
C14 C 0.8830(3) 0.0543(17) 1.0635(5)
H18 H 0.9018 0.0045 1.0770
C15 C 0.8829(4) 0.1387(18) 1.0166(6)
H19 H 0.9021 0.1481 0.9978
C16 C 0.9354(3) 0.7132(18) 0.8472(7)
C17 C 0.9349(4) 0.7130(19) 0.9102(7)
C18 C 0.9462(4) 0.579(2) 0.9327(8)
C19 C 0.9583(4) 0.5095(19) 0.8884(8)
C20 C 0.9498(4) 0.5774(18) 0.8392(7)
C21 C 0.9298(4) 0.831(3) 0.8132(9)
H20 H 0.9464 0.8381 0.7863
H21 H 0.9296 0.9210 0.8359
H22 H 0.9091 0.8192 0.7927
C22 C 0.9240(6) 0.849(3) 0.9475(13)
H23 H 0.9291 0.8277 0.9873
H24 H 0.9011 0.8632 0.9413
H25 H 0.9352 0.9382 0.9366
C23 C 0.9497(6) 0.538(3) 0.9985(12)
H26 H 0.9720 0.5153 1.0091
H27 H 0.9366 0.4511 1.0056
H28 H 0.9427 0.6211 1.0207
C24 C 0.9755(6) 0.360(3) 0.8887(14)
H29 H 0.9683 0.3033 0.8552
H30 H 0.9707 0.3046 0.9225
H31 H 0.9985 0.3759 0.8884
C25 C 0.9558(6) 0.544(4) 0.7836(13)
H32 H 0.9698 0.6185 0.7689
H33 H 0.9357 0.5418 0.7608
H34 H 0.9660 0.4466 0.7822
N3 N 0.8570(3) -0.2220(14) 1.2415(4)
C28 C 0.8313(3) -0.2252(16) 1.2042(5)
H35 H 0.8139 -0.2873 1.2114
C29 C 0.8301(3) -0.1426(15) 1.1576(5)
H36 H 0.8122 -0.1501 1.1316
C30 C 0.8551(3) -0.0442(16) 1.1463(5)
C31 C 0.8800(4) -0.0496(19) 1.1839(6)
H37 H 0.8982 0.0078 1.1769
C32 C 0.8806(3) -0.1343(16) 1.2322(6)
H38 H 0.8983 -0.1285 1.2587
Cu2E Cu 0.85922(4) -0.3523(2) 1.30757(7)
N3E N 0.8570(3) 0.2220(14) 0.7415(4)
P1 P 0.73176(9) 1.0373(5) 0.88422(17)
F1 F 0.7584(4) 1.042(2) 0.9279(6)
F2 F 0.7317(4) 0.8699(14) 0.8954(9)
F3 F 0.7046(3) 1.0461(16) 0.9278(6)
F4 F 0.7043(3) 1.0270(16) 0.8348(5)
F5 F 0.7315(3) 1.2057(13) 0.8724(7)
F6 F 0.7595(3) 1.0257(14) 0.8423(6)
F7 F 0.9392(5) 0.276(3) 1.0703(9)
F8 F 0.9914(5) 0.273(3) 1.0668(8)
P2 P 0.9674(3) 0.247(2) 1.1149(6)
F9 F 0.9675(6) 0.077(2) 1.1011(13)
F10 F 0.9414(5) 0.221(4) 1.1592(9)
F11 F 0.9678(7) 0.417(2) 1.1295(13)
F12 F 0.9952(5) 0.221(4) 1.1606(9)
C26 C 0.6235(7) 1.061(3) 0.8708(13)
C27 C 0.6150(13) 0.920(4) 0.891(2)
N2 N 0.6081(9) 0.809(4) 0.9112(16)
C33? C 0.9435(14) 0.626(7) 0.826(3)
C34? C 0.9415(13) 0.702(7) 0.871(2)
C35? C 0.9482(15) 0.607(7) 0.923(3)
C36? C 0.9579(15) 0.483(7) 0.897(3)
C37? C 0.9527(14) 0.502(7) 0.844(3)
C38? C 0.9356(13) 0.703(6) 0.777(2)
C39? C 0.9291(4) 0.853(2) 0.8860(9)
C40? C 0.9484(6) 0.640(3) 0.9801(10)
C41? C 0.9709(7) 0.358(3) 0.9275(12)
C42? C 0.9655(8) 0.395(3) 0.8008(12)
C43? C 0.5982(13) 0.958(8) 0.876(4)
F13? F 0.9430(6) 0.101(4) 1.1376(13)
F14? F 0.9713(7) 0.307(3) 1.1487(9)
F15? F 0.9956(6) 0.091(4) 1.1292(14)
F16? F 0.9625(8) 0.067(3) 1.0526(13)
H39? H 0.9294 0.8038 0.7861
H40? H 0.9178 0.6539 0.7560
H41? H 0.9539 0.7059 0.7533
H42? H 0.9161 0.8923 0.8541
H43? H 0.9470 0.9194 0.8947
H44? H 0.9163 0.8444 0.9188
H45? H 0.9312 0.5874 0.9971
H46? H 0.9455 0.7469 0.9849
H47? H 0.9688 0.6107 0.9984
H48? H 0.9648 0.2668 0.9074
H49? H 0.9628 0.3556 0.9652
H50? H 0.9942 0.3654 0.9305
H51? H 0.9731 0.3053 0.8201
H52? H 0.9831 0.4416 0.7822
H53? H 0.9485 0.3700 0.7727
N4? N 0.5753(11) 0.888(7) 0.878(3)
P3? P 0.9673(4) 0.185(2) 1.1015(7)
loop_
_geom_bond_atom_site_label_1
_geom_bond_atom_site_label_2
_geom_bond_site_symmetry_1
_geom_bond_site_symmetry_2
Mo1 S1 1_555 1_555
Mo2 S2 1_555 1_555
Cu1 S1 1_555 1_555
Cu2 S1 1_555 1_555
S2 Cu1 1_555 1_555
S3 Mo1 1_555 1_555
S4 Mo1 1_555 1_555
N1 Cu1 1_555 1_555
C1 Mo1 1_555 1_555
C2 Mo1 1_555 1_555
C3 Mo1 1_555 1_555
C4 Mo1 1_555 1_555
C5 Mo1 1_555 1_555
C6 C1 1_555 1_555
H1 C6 1_555 1_555
H2 C6 1_555 1_555
H3 C6 1_555 1_555
C7 C2 1_555 1_555
H4 C7 1_555 1_555
H5 C7 1_555 1_555
H6 C7 1_555 1_555
C8 C3 1_555 1_555
H7 C8 1_555 1_555
H8 C8 1_555 1_555
H9 C8 1_555 1_555
C9 C4 1_555 1_555
H10 C9 1_555 1_555
H11 C9 1_555 1_555
H12 C9 1_555 1_555
C10 C5 1_555 1_555
H13 C10 1_555 1_555
H14 C10 1_555 1_555
H15 C10 1_555 1_555
C11 N1 1_555 1_555
H16 C11 1_555 1_555
C12 C11 1_555 1_555
H17 C12 1_555 1_555
C13 C12 1_555 1_555
C14 C13 1_555 1_555
H18 C14 1_555 1_555
C15 N1 1_555 1_555
H19 C15 1_555 1_555
P1 F1 1_555 1_555
F2 P1 1_555 1_555
F3 P1 1_555 1_555
F4 P1 1_555 1_555
F5 P1 1_555 1_555
F6 P1 1_555 1_555
F7 P2 1_555 1_555
F8 P2 1_555 1_555
P2 F9 1_555 1_555
F10 P2 1_555 1_555
F11 P2 1_555 1_555
F12 P2 1_555 1_555
C16 Mo2 1_555 1_555
C17 Mo2 1_555 1_555
C18 Mo2 1_555 1_555
C19 Mo2 1_555 1_555
C20 Mo2 1_555 1_555
C21 C16 1_555 1_555
H20 C21 1_555 1_555
H21 C21 1_555 1_555
H22 C21 1_555 1_555
C22 C17 1_555 1_555
H23 C22 1_555 1_555
H24 C22 1_555 1_555
H25 C22 1_555 1_555
C23 C18 1_555 1_555
H26 C23 1_555 1_555
H27 C23 1_555 1_555
H28 C23 1_555 1_555
C24 C19 1_555 1_555
H29 C24 1_555 1_555
H30 C24 1_555 1_555
H31 C24 1_555 1_555
C25 C20 1_555 1_555
H32 C25 1_555 1_555
H33 C25 1_555 1_555
H34 C25 1_555 1_555
C26 C27 1_555 1_555
C27 N2 1_555 1_555
N3 C28 1_555 1_555
C28 H35 1_555 1_555
C29 C28 1_555 1_555
H36 C29 1_555 1_555
C30 C13 1_555 1_555
C31 C30 1_555 1_555
H37 C31 1_555 1_555
C32 N3 1_555 1_555
H38 C32 1_555 1_555
Cu2E N3 1_555 1_555
N3E Cu2 1_555 1_555
Mo2 S3 1_555 1_555
Mo2 S4 1_555 1_555
Cu1 S3 1_555 1_555
Cu2 S2 1_555 1_555
Cu2 S4 1_555 1_555
C1 C2 1_555 1_555
C1 C5 1_555 1_555
C2 C3 1_555 1_555
C3 C4 1_555 1_555
C4 C5 1_555 1_555
C14 C15 1_555 1_555
C16 C17 1_555 1_555
C16 C20 1_555 1_555
C17 C18 1_555 1_555
C18 C19 1_555 1_555
C19 C20 1_555 1_555
C29 C30 1_555 1_555
C31 C32 1_555 1_555

#END
