
#######################################################################
#
#                 Cambridge Crystallographic Data Centre
#                                CCDC 
#
#######################################################################
#
# If this CIF has been generated from an entry in the Cambridge 
# Structural Database, then it will include bibliographic, chemical, 
# crystal, experimental, refinement or atomic coordinate data resulting 
# from the CCDC's data processing and validation procedures.
#
#######################################################################

data_HOYKAI
_symmetry_cell_setting           monoclinic
_symmetry_space_group_name_H-M   'P 2/c'
_symmetry_Int_Tables_number      13
_space_group_name_Hall           '-P 2yc'
loop_
_symmetry_equiv_pos_site_id
_symmetry_equiv_pos_as_xyz
1 x,y,z
2 -x,y,1/2-z
3 -x,-y,-z
4 x,-y,1/2+z
_cell_length_a                   25.290(5)
_cell_length_b                   8.5496(17)
_cell_length_c                   30.769(11)
_cell_angle_alpha                90
_cell_angle_beta                 127.255(19)
_cell_angle_gamma                90
_cell_volume                     5295.33
loop_
_atom_site_label
_atom_site_type_symbol
_atom_site_fract_x
_atom_site_fract_y
_atom_site_fract_z
Mo1 Mo 0.42966(3) 0.45732(6) 0.22176(2)
Cu1 Cu 0.51287(4) 0.24526(9) 0.30392(3)
S1 S 0.41113(8) 0.19939(18) 0.21397(7)
S2 S 0.51287(8) 0.50675(18) 0.31391(6)
N1 N 0.5157(3) 0.1362(6) 0.3608(2)
C1 C 0.3764(4) 0.6808(8) 0.2238(3)
C2 C 0.3665(3) 0.6791(8) 0.1734(3)
C3 C 0.3275(4) 0.5465(8) 0.1427(3)
C4 C 0.3117(4) 0.4670(9) 0.1745(3)
C5 C 0.3441(4) 0.5470(8) 0.2251(3)
C6 C 0.4097(5) 0.8097(9) 0.2660(4)
H1 H 0.3771 0.8913 0.2566
H2 H 0.4459 0.8547 0.2668
H3 H 0.4276 0.7666 0.3020
C7 C 0.3882(5) 0.8062(9) 0.1532(4)
H4 H 0.4331 0.8411 0.1831
H5 H 0.3574 0.8947 0.1398
H6 H 0.3881 0.7653 0.1234
C8 C 0.3013(4) 0.5060(12) 0.0858(3)
H7 H 0.3366 0.5188 0.0817
H8 H 0.2641 0.5754 0.0601
H9 H 0.2860 0.3972 0.0781
C9 C 0.2653(4) 0.3341(11) 0.1552(4)
H10 H 0.2215 0.3725 0.1423
H11 H 0.2820 0.2603 0.1853
H12 H 0.2616 0.2812 0.1252
C10 C 0.3371(5) 0.5140(11) 0.2692(4)
H13 H 0.3263 0.4033 0.2681
H14 H 0.3015 0.5788 0.2636
H15 H 0.3790 0.5383 0.3049
C11 C 0.5723(4) 0.0859(9) 0.4069(3)
H16 H 0.6114 0.0827 0.4090
C12 C 0.5758(4) 0.0382(9) 0.4515(3)
H17 H 0.6167 0.0017 0.4834
C13 C 0.5202(3) 0.0434(8) 0.4501(3)
C14 C 0.4614(4) 0.0945(11) 0.4014(3)
H18 H 0.4215 0.0997 0.3981
C15 C 0.4613(4) 0.1372(10) 0.3585(3)
H19 H 0.4206 0.1691 0.3254
C16 C 0.5248(4) 0.0027(9) 0.4983(3)
H20 H 0.5677 -0.0225 0.5305
Mo1A Mo 0.57034(3) 0.45732(6) 0.27824(2)
Cu1A Cu 0.48713(4) 0.24526(9) 0.19608(3)
Cu1B Cu 0.48713(4) -0.24526(9) 0.69608(3)
S1A S 0.58887(8) 0.19939(18) 0.28603(7)
S2A S 0.48713(8) 0.50675(18) 0.18609(6)
N1B N 0.4843(3) -0.1362(6) 0.6392(2)
N1A N 0.4843(3) 0.1362(6) 0.1392(2)
C1A C 0.6236(4) 0.6808(8) 0.2762(3)
C2A C 0.6335(3) 0.6791(8) 0.3266(3)
C3A C 0.6725(4) 0.5465(8) 0.3573(3)
C4A C 0.6883(4) 0.4670(9) 0.3255(3)
C5A C 0.6559(4) 0.5470(8) 0.2749(3)
C6A C 0.5903(5) 0.8097(9) 0.2340(4)
H1A H 0.6229 0.8913 0.2434
H2A H 0.5541 0.8547 0.2332
H3A H 0.5724 0.7666 0.1980
C7A C 0.6118(5) 0.8062(9) 0.3468(4)
H4A H 0.5669 0.8411 0.3169
H5A H 0.6426 0.8947 0.3602
H6A H 0.6119 0.7653 0.3766
C8A C 0.6987(4) 0.5060(12) 0.4142(3)
H7A H 0.6634 0.5188 0.4183
H8A H 0.7359 0.5754 0.4399
H9A H 0.7140 0.3972 0.4219
C9A C 0.7347(4) 0.3341(11) 0.3448(4)
H10A H 0.7785 0.3725 0.3577
H11A H 0.7180 0.2603 0.3147
H12A H 0.7384 0.2812 0.3748
C10A C 0.6629(5) 0.5140(11) 0.2308(4)
H13A H 0.6737 0.4033 0.2319
H14A H 0.6985 0.5788 0.2364
H15A H 0.6210 0.5383 0.1951
C11B C 0.4277(4) -0.0859(9) 0.5931(3)
H16B H 0.3886 -0.0827 0.5910
C12B C 0.4242(4) -0.0382(9) 0.5485(3)
H17B H 0.3833 -0.0017 0.5166
C13B C 0.4798(3) -0.0434(8) 0.5499(3)
C14B C 0.5386(4) -0.0945(11) 0.5986(3)
H18B H 0.5785 -0.0997 0.6019
C15B C 0.5387(4) -0.1372(10) 0.6415(3)
H19B H 0.5794 -0.1691 0.6746
C16B C 0.4752(4) -0.0027(9) 0.5017(3)
H20B H 0.4323 0.0225 0.4695
Mo2 Mo 0.07024(3) 0.44276(6) 0.29228(2)
Cu2 Cu 0.01329(5) 0.23142(9) 0.20941(3)
S3 S 0.08817(9) 0.18416(19) 0.30276(7)
S4 S 0.01399(9) 0.49233(19) 0.19966(7)
N2 N 0.0176(3) 0.1268(7) 0.1558(2)
C17 C 0.1233(4) 0.6653(8) 0.3475(3)
C18 C 0.1551(4) 0.5292(9) 0.3814(3)
C19 C 0.1878(4) 0.4512(9) 0.3638(3)
C20 C 0.1734(4) 0.5326(9) 0.3167(3)
C21 C 0.1347(4) 0.6655(9) 0.3080(3)
C22 C 0.0897(4) 0.7923(9) 0.3561(3)
H21 H 0.0517 0.8320 0.3207
H22 H 0.1212 0.8776 0.3771
H23 H 0.0743 0.7504 0.3763
C23 C 0.1588(5) 0.4925(11) 0.4311(3)
H24 H 0.1929 0.5581 0.4617
H25 H 0.1703 0.3820 0.4408
H26 H 0.1157 0.5135 0.4232
C24 C 0.2342(4) 0.3140(12) 0.3916(4)
H27 H 0.2275 0.2648 0.4167
H28 H 0.2802 0.3502 0.4121
H29 H 0.2251 0.2377 0.3640
C25 C 0.2010(5) 0.4930(12) 0.2865(4)
H30 H 0.2496 0.4921 0.3120
H31 H 0.1863 0.5713 0.2580
H32 H 0.1850 0.3895 0.2697
C26 C 0.1152(5) 0.7903(9) 0.2671(4)
H33 H 0.1491 0.8725 0.2838
H34 H 0.0725 0.8351 0.2546
H35 H 0.1112 0.7456 0.2359
C27 C 0.0750(4) 0.0996(11) 0.1646(3)
H36 H 0.1150 0.1107 0.2006
C28 C 0.0789(4) 0.0559(12) 0.1234(3)
H37 H 0.1210 0.0372 0.1314
C29 C 0.0212(4) 0.0392(8) 0.0704(3)
C30 C -0.0388(4) 0.0609(9) 0.0619(3)
H38 H -0.0797 0.0464 0.0267
C31 C -0.0383(4) 0.1035(9) 0.1052(3)
H39 H -0.0797 0.1172 0.0990
C32 C 0.0252(4) -0.0011(10) 0.0263(3)
H40 H 0.0674 -0.0313 0.0362
Mo2A Mo -0.07024(3) 0.44276(6) 0.20772(2)
Cu2A Cu -0.01329(5) 0.23142(9) 0.29059(3)
Cu2B Cu -0.01329(5) -0.23142(9) -0.20941(3)
S3A S -0.08817(9) 0.18416(19) 0.19724(7)
S4A S -0.01399(9) 0.49233(19) 0.30034(7)
N2B N -0.0176(3) -0.1268(7) -0.1558(2)
N2A N -0.0176(3) 0.1268(7) 0.3442(2)
C17A C -0.1233(4) 0.6653(8) 0.1525(3)
C18A C -0.1551(4) 0.5292(9) 0.1186(3)
C19A C -0.1878(4) 0.4512(9) 0.1362(3)
C20A C -0.1734(4) 0.5326(9) 0.1833(3)
C21A C -0.1347(4) 0.6655(9) 0.1920(3)
C22A C -0.0897(4) 0.7923(9) 0.1439(3)
H21A H -0.0517 0.8320 0.1793
H22A H -0.1212 0.8776 0.1229
H23A H -0.0743 0.7504 0.1237
C23A C -0.1588(5) 0.4925(11) 0.0689(3)
H24A H -0.1929 0.5581 0.0383
H25A H -0.1703 0.3820 0.0592
H26A H -0.1157 0.5135 0.0768
C24A C -0.2342(4) 0.3140(12) 0.1084(4)
H27A H -0.2275 0.2648 0.0833
H28A H -0.2802 0.3502 0.0879
H29A H -0.2251 0.2377 0.1360
C25A C -0.2010(5) 0.4930(12) 0.2135(4)
H30A H -0.2496 0.4921 0.1880
H31A H -0.1863 0.5713 0.2420
H32A H -0.1850 0.3895 0.2303
C26A C -0.1152(5) 0.7903(9) 0.2329(4)
H33A H -0.1491 0.8725 0.2162
H34A H -0.0725 0.8351 0.2454
H35A H -0.1112 0.7456 0.2641
C27B C -0.0750(4) -0.0996(11) -0.1646(3)
H36B H -0.1150 -0.1107 -0.2006
C28B C -0.0789(4) -0.0559(12) -0.1234(3)
H37B H -0.1210 -0.0372 -0.1314
C29B C -0.0212(4) -0.0392(8) -0.0704(3)
C30B C 0.0388(4) -0.0609(9) -0.0619(3)
H38B H 0.0797 -0.0464 -0.0267
C31B C 0.0383(4) -0.1035(9) -0.1052(3)
H39B H 0.0797 -0.1172 -0.0990
C32B C -0.0252(4) 0.0011(10) -0.0263(3)
H40B H -0.0674 0.0313 -0.0362
N3 N 0.2139(7) 0.8484(16) 0.1296(6)
H41 H 0.2246 0.8908 0.1098
H42 H 0.2305 0.8865 0.1621
C33 C 0.1714(8) 0.723(2) 0.1097(7)
C34 C 0.1532(8) 0.6684(19) 0.1404(6)
H43 H 0.1708 0.7121 0.1751
C35 C 0.1084(8) 0.548(3) 0.1191(8)
H44 H 0.0937 0.5091 0.1392
C36 C 0.0830(7) 0.478(2) 0.0674(8)
H45 H 0.0548 0.3893 0.0536
C37 C 0.1032(11) 0.553(3) 0.0386(8)
H46 H 0.0845 0.5193 0.0025
C38 C 0.1466(10) 0.666(3) 0.0599(7)
H47 H 0.1609 0.7092 0.0401
N4 N 0.2893(6) 0.8206(15) 0.4128(4)
H48 H 0.2693 0.8570 0.4262
H49 H 0.2821 0.8643 0.3837
C39 C 0.3321(7) 0.6947(19) 0.4375(5)
C40 C 0.3655(7) 0.628(2) 0.4180(6)
H50 H 0.3572 0.6691 0.3857
C41 C 0.4080(8) 0.510(2) 0.4434(9)
H51 H 0.4307 0.4732 0.4297
C42 C 0.4201(8) 0.440(2) 0.4882(9)
H52 H 0.4500 0.3546 0.5053
C43 C 0.3868(8) 0.499(2) 0.5083(6)
H53 H 0.3938 0.4521 0.5394
C44 C 0.3448(6) 0.6223(17) 0.4837(5)
H54 H 0.3233 0.6606 0.4983
Cl1 Cl 0.26962(12) 0.0181(4) 0.28186(11)
O1 O 0.2258(6) -0.0989(19) 0.2353(5)
O2 O 0.3046(6) 0.0996(19) 0.2693(6)
O3 O 0.3103(6) -0.0872(19) 0.3285(6)
O4 O 0.2184(7) 0.084(2) 0.2808(6)
Cl2 Cl 0.2400(4) -0.0077(12) 0.0113(4)
O5 O 0.2922(7) -0.103(2) 0.0178(5)
O6 O 0.2815(7) 0.090(2) 0.0615(6)
O7 O 0.2058(7) -0.117(2) 0.0194(6)
O8 O 0.2044(7) 0.038(2) -0.0389(6)
Cl3? Cl 0.2264(4) 0.0493(10) 0.0120(3)
O9? O 0.2356(6) 0.0471(19) 0.2261(6)
O10? O 0.3115(6) 0.1680(19) 0.3051(6)
O11? O 0.3157(7) -0.096(2) 0.3067(6)
O12? O 0.2313(7) 0.050(2) 0.3014(6)
O13? O 0.1720(6) 0.1543(17) -0.0027(5)
O14? O 0.1909(6) -0.0865(18) -0.0161(5)
O15? O 0.2538(6) 0.1350(18) -0.0093(5)
O16? O 0.2658(6) 0.0445(19) 0.0676(5)
loop_
_geom_bond_atom_site_label_1
_geom_bond_atom_site_label_2
_geom_bond_site_symmetry_1
_geom_bond_site_symmetry_2
Mo1 S1 1_555 1_555
Cu1 S1 1_555 1_555
S1 Cu1A 1_555 1_555
S2 Mo1 1_555 1_555
N1 Cu1 1_555 1_555
C1 Mo1 1_555 1_555
C2 Mo1 1_555 1_555
C3 Mo1 1_555 1_555
C4 Mo1 1_555 1_555
C5 Mo1 1_555 1_555
C6 C1 1_555 1_555
H1 C6 1_555 1_555
H2 C6 1_555 1_555
H3 C6 1_555 1_555
C7 C2 1_555 1_555
H4 C7 1_555 1_555
H5 C7 1_555 1_555
H6 C7 1_555 1_555
C8 C3 1_555 1_555
H7 C8 1_555 1_555
H8 C8 1_555 1_555
H9 C8 1_555 1_555
C9 C4 1_555 1_555
H10 C9 1_555 1_555
H11 C9 1_555 1_555
H12 C9 1_555 1_555
C10 C5 1_555 1_555
H13 C10 1_555 1_555
H14 C10 1_555 1_555
H15 C10 1_555 1_555
C11 N1 1_555 1_555
H16 C11 1_555 1_555
C12 C11 1_555 1_555
H17 C12 1_555 1_555
C13 C12 1_555 1_555
C14 C13 1_555 1_555
H18 C14 1_555 1_555
C15 N1 1_555 1_555
H19 C15 1_555 1_555
C16 C13 1_555 1_555
H20 C16 1_555 1_555
Mo2 S3 1_555 1_555
Cu2 S3 1_555 1_555
S3 Cu2A 1_555 1_555
S4 Mo2 1_555 1_555
N2 Cu2 1_555 1_555
C17 Mo2 1_555 1_555
C18 Mo2 1_555 1_555
C19 Mo2 1_555 1_555
C20 Mo2 1_555 1_555
C21 Mo2 1_555 1_555
C22 C17 1_555 1_555
H21 C22 1_555 1_555
H22 C22 1_555 1_555
H23 C22 1_555 1_555
C23 C18 1_555 1_555
H24 C23 1_555 1_555
H25 C23 1_555 1_555
H26 C23 1_555 1_555
C24 C19 1_555 1_555
H27 C24 1_555 1_555
H28 C24 1_555 1_555
H29 C24 1_555 1_555
C25 C20 1_555 1_555
H30 C25 1_555 1_555
H31 C25 1_555 1_555
H32 C25 1_555 1_555
C26 C21 1_555 1_555
H33 C26 1_555 1_555
H34 C26 1_555 1_555
H35 C26 1_555 1_555
C27 N2 1_555 1_555
H36 C27 1_555 1_555
C28 C27 1_555 1_555
H37 C28 1_555 1_555
C29 C28 1_555 1_555
C30 C29 1_555 1_555
H38 C30 1_555 1_555
C31 N2 1_555 1_555
H39 C31 1_555 1_555
C32 C29 1_555 1_555
H40 C32 1_555 1_555
N3 H41 1_555 1_555
H42 N3 1_555 1_555
C33 N3 1_555 1_555
C34 C33 1_555 1_555
H43 C34 1_555 1_555
C35 C34 1_555 1_555
H44 C35 1_555 1_555
C36 C35 1_555 1_555
H45 C36 1_555 1_555
C37 C36 1_555 1_555
H46 C37 1_555 1_555
C38 C33 1_555 1_555
H47 C38 1_555 1_555
N4 H48 1_555 1_555
H49 N4 1_555 1_555
C39 N4 1_555 1_555
C40 C39 1_555 1_555
H50 C40 1_555 1_555
C41 C40 1_555 1_555
H51 C41 1_555 1_555
C42 C41 1_555 1_555
H52 C42 1_555 1_555
C43 C42 1_555 1_555
H53 C43 1_555 1_555
C44 C39 1_555 1_555
H54 C44 1_555 1_555
Cl1 O1 1_555 1_555
O2 Cl1 1_555 1_555
O3 Cl1 1_555 1_555
O4 Cl1 1_555 1_555
Cl2 O5 1_555 1_555
O6 Cl2 1_555 1_555
O7 Cl2 1_555 1_555
O8 Cl2 1_555 1_555
Mo1A S2 1_555 1_555
Cu1A S1A 1_555 1_555
Cu1B N1B 1_555 1_555
S1A Cu1 1_555 1_555
S2A Mo1 1_555 1_555
N1B C11B 1_555 1_555
N1A Cu1A 1_555 1_555
C1A Mo1A 1_555 1_555
C2A Mo1A 1_555 1_555
C3A Mo1A 1_555 1_555
C4A Mo1A 1_555 1_555
C5A Mo1A 1_555 1_555
C6A C1A 1_555 1_555
H1A C6A 1_555 1_555
H2A C6A 1_555 1_555
H3A C6A 1_555 1_555
C7A C2A 1_555 1_555
H4A C7A 1_555 1_555
H5A C7A 1_555 1_555
H6A C7A 1_555 1_555
C8A C3A 1_555 1_555
H7A C8A 1_555 1_555
H8A C8A 1_555 1_555
H9A C8A 1_555 1_555
C9A C4A 1_555 1_555
H10A C9A 1_555 1_555
H11A C9A 1_555 1_555
H12A C9A 1_555 1_555
C10A C5A 1_555 1_555
H13A C10A 1_555 1_555
H14A C10A 1_555 1_555
H15A C10A 1_555 1_555
C11B H16B 1_555 1_555
C12B C11B 1_555 1_555
H17B C12B 1_555 1_555
C13B C12B 1_555 1_555
C14B C13B 1_555 1_555
H18B C14B 1_555 1_555
C15B N1B 1_555 1_555
H19B C15B 1_555 1_555
C16B C16 1_555 1_555
H20B C16B 1_555 1_555
Mo2A S4 1_555 1_555
Cu2A S3A 1_555 1_555
Cu2B N2B 1_555 1_555
S3A Cu2 1_555 1_555
S4A Mo2 1_555 1_555
N2B C27B 1_555 1_555
N2A Cu2A 1_555 1_555
C17A Mo2A 1_555 1_555
C18A Mo2A 1_555 1_555
C19A Mo2A 1_555 1_555
C20A Mo2A 1_555 1_555
C21A Mo2A 1_555 1_555
C22A C17A 1_555 1_555
H21A C22A 1_555 1_555
H22A C22A 1_555 1_555
H23A C22A 1_555 1_555
C23A C18A 1_555 1_555
H24A C23A 1_555 1_555
H25A C23A 1_555 1_555
H26A C23A 1_555 1_555
C24A C19A 1_555 1_555
H27A C24A 1_555 1_555
H28A C24A 1_555 1_555
H29A C24A 1_555 1_555
C25A C20A 1_555 1_555
H30A C25A 1_555 1_555
H31A C25A 1_555 1_555
H32A C25A 1_555 1_555
C26A C21A 1_555 1_555
H33A C26A 1_555 1_555
H34A C26A 1_555 1_555
H35A C26A 1_555 1_555
C27B H36B 1_555 1_555
C28B C27B 1_555 1_555
H37B C28B 1_555 1_555
C29B C28B 1_555 1_555
C30B C29B 1_555 1_555
H38B C30B 1_555 1_555
C31B N2B 1_555 1_555
H39B C31B 1_555 1_555
C32B C32 1_555 1_555
H40B C32B 1_555 1_555
Cu1 S2 1_555 1_555
C1 C2 1_555 1_555
C1 C5 1_555 1_555
C2 C3 1_555 1_555
C3 C4 1_555 1_555
C4 C5 1_555 1_555
C14 C15 1_555 1_555
Cu2 S4 1_555 1_555
C17 C18 1_555 1_555
C17 C21 1_555 1_555
C18 C19 1_555 1_555
C19 C20 1_555 1_555
C20 C21 1_555 1_555
C30 C31 1_555 1_555
C37 C38 1_555 1_555
C43 C44 1_555 1_555
Mo1A S1A 1_555 1_555
Mo1A S2A 1_555 1_555
Cu1A S2A 1_555 1_555
C1A C2A 1_555 1_555
C1A C5A 1_555 1_555
C2A C3A 1_555 1_555
C3A C4A 1_555 1_555
C4A C5A 1_555 1_555
C13B C16B 1_555 1_555
C14B C15B 1_555 1_555
Mo2A S3A 1_555 1_555
Mo2A S4A 1_555 1_555
Cu2A S4A 1_555 1_555
C17A C18A 1_555 1_555
C17A C21A 1_555 1_555
C18A C19A 1_555 1_555
C19A C20A 1_555 1_555
C20A C21A 1_555 1_555
C29B C32B 1_555 1_555
C30B C31B 1_555 1_555

#END
