
#######################################################################
#
#                 Cambridge Crystallographic Data Centre
#                                CCDC 
#
#######################################################################
#
# If this CIF has been generated from an entry in the Cambridge 
# Structural Database, then it will include bibliographic, chemical, 
# crystal, experimental, refinement or atomic coordinate data resulting 
# from the CCDC's data processing and validation procedures.
#
#######################################################################

data_HOYLOY
_symmetry_cell_setting           orthorhombic
_symmetry_space_group_name_H-M   'P 21 21 21'
_symmetry_Int_Tables_number      19
_space_group_name_Hall           'P 2ac 2ab'
loop_
_symmetry_equiv_pos_site_id
_symmetry_equiv_pos_as_xyz
1 x,y,z
2 1/2-x,-y,1/2+z
3 1/2+x,1/2-y,-z
4 -x,1/2+y,1/2-z
_cell_length_a                   4.7120(2)
_cell_length_b                   16.4085(7)
_cell_length_c                   17.6773(8)
_cell_angle_alpha                90
_cell_angle_beta                 90
_cell_angle_gamma                90
_cell_volume                     1366.75
loop_
_atom_site_label
_atom_site_type_symbol
_atom_site_fract_x
_atom_site_fract_y
_atom_site_fract_z
N1 N 0.2992(12) 1.0563(4) 0.5390(3)
Hg1 Hg -0.03078(6) 1.14516(2) 0.47693(2)
Br1 Br -0.11434(18) 1.07251(5) 0.35727(4)
Br2 Br -0.13409(17) 1.23181(5) 0.58949(4)
C1 C 0.4294(15) 0.9987(4) 0.4987(4)
H1 H 0.3826 0.9928 0.4467
C2 C 0.6305(15) 0.9469(5) 0.5299(5)
H2 H 0.7221 0.9074 0.4991
C3 C 0.6983(15) 0.9530(5) 0.6067(4)
C4 C 0.5585(17) 1.0121(5) 0.6473(4)
H3 H 0.5977 1.0181 0.6997
C5 C 0.3622(16) 1.0629(5) 0.6134(4)
H4 H 0.2697 1.1033 0.6430
C6 C 0.9125(17) 0.8994(5) 0.6406(4)
H5 H 0.9510 0.9029 0.6932
N2 N 1.0473(13) 0.8484(4) 0.6000(3)
C7 C 1.2510(16) 0.7952(5) 0.6308(5)
C8 C 1.3476(16) 0.7944(5) 0.7062(4)
H6 H 1.2716 0.8320 0.7417
C9 C 1.5524(17) 0.7392(5) 0.7289(4)
H7 H 1.6183 0.7394 0.7797
C10 C 1.6613(16) 0.6835(5) 0.6777(4)
Cl1 Cl 1.9145(4) 0.61241(12) 0.70499(11)
C11 C 1.5730(16) 0.6840(5) 0.6028(4)
H8 H 1.6504 0.6464 0.5675
C12 C 1.3709(16) 0.7399(5) 0.5805(4)
H9 H 1.3118 0.7407 0.5291
Hg1B Hg -0.53078(6) 1.35484(2) 0.52307(2)
Br2B Br 0.36591(17) 1.26819(5) 0.41051(4)
loop_
_geom_bond_atom_site_label_1
_geom_bond_atom_site_label_2
_geom_bond_site_symmetry_1
_geom_bond_site_symmetry_2
N1 Hg1 1_555 1_555
Hg1 Br1 1_555 1_555
Br2 Hg1 1_555 1_555
C1 N1 1_555 1_555
H1 C1 1_555 1_555
C2 C1 1_555 1_555
H2 C2 1_555 1_555
C3 C2 1_555 1_555
C4 C3 1_555 1_555
H3 C4 1_555 1_555
C5 N1 1_555 1_555
H4 C5 1_555 1_555
C6 C3 1_555 1_555
H5 C6 1_555 1_555
N2 C6 1_555 1_555
C7 N2 1_555 1_555
C8 C7 1_555 1_555
H6 C8 1_555 1_555
C9 C8 1_555 1_555
H7 C9 1_555 1_555
C10 C9 1_555 1_555
Cl1 C10 1_555 1_555
C11 C10 1_555 1_555
H8 C11 1_555 1_555
C12 C7 1_555 1_555
H9 C12 1_555 1_555
Hg1B Br2 1_555 1_555
Br2B Hg1 1_555 1_555
C4 C5 1_555 1_555
C11 C12 1_555 1_555

#END
