
#######################################################################
#
#                 Cambridge Crystallographic Data Centre
#                                CCDC 
#
#######################################################################
#
# If this CIF has been generated from an entry in the Cambridge 
# Structural Database, then it will include bibliographic, chemical, 
# crystal, experimental, refinement or atomic coordinate data resulting 
# from the CCDC's data processing and validation procedures.
#
#######################################################################

data_HOYMUD01
_symmetry_cell_setting           orthorhombic
_symmetry_space_group_name_H-M   'F d d 2'
_symmetry_Int_Tables_number      43
_space_group_name_Hall           'F 2 -2d'
loop_
_symmetry_equiv_pos_site_id
_symmetry_equiv_pos_as_xyz
1 x,y,z
2 -x,-y,z
3 1/4+x,1/4-y,1/4+z
4 1/4-x,1/4+y,1/4+z
5 x,1/2+y,1/2+z
6 -x,1/2-y,1/2+z
7 1/4+x,3/4-y,3/4+z
8 1/4-x,3/4+y,3/4+z
9 1/2+x,y,1/2+z
10 1/2-x,-y,1/2+z
11 3/4+x,1/4-y,3/4+z
12 3/4-x,1/4+y,3/4+z
13 1/2+x,1/2+y,z
14 1/2-x,1/2-y,z
15 3/4+x,3/4-y,1/4+z
16 3/4-x,3/4+y,1/4+z
_cell_length_a                   12.587(5)
_cell_length_b                   19.005(5)
_cell_length_c                   8.152(4)
_cell_angle_alpha                90
_cell_angle_beta                 90
_cell_angle_gamma                90
_cell_volume                     1950.09
loop_
_atom_site_label
_atom_site_type_symbol
_atom_site_fract_x
_atom_site_fract_y
_atom_site_fract_z
Cu1 Cu 0.06237(15) 0.35078(8) 0.2030(2)
S1 S 0.0044(3) 0.37356(15) 0.4727(4)
N1 N 0.0151(9) 0.4373(6) 0.0697(13)
C1 C 0.0000 0.5000 0.1358(22)
H1 H 0.0000 0.5000 0.2499(22)
C2 C 0.0155(12) 0.4382(7) -0.0982(15)
H2 H 0.0264(12) 0.3966(7) -0.1559(15)
C3 C 0.0000 0.5000 -0.1820(25)
H3 H 0.0000 0.5000 -0.2961(25)
C4 C -0.0157(11) 0.2938(7) 0.5511(16)
N2 N -0.0316(9) 0.2386(6) 0.6071(15)
S1F S 0.2544(3) 0.37644(15) 0.2227(4)
Cu1N Cu -0.18763(15) 0.39922(8) 0.4530(2)
N1A N -0.0151(9) 0.5627(6) 0.0697(13)
C2A C -0.0155(12) 0.5618(7) -0.0982(15)
N2E N 0.0316(9) 0.2614(6) 0.1071(15)
Cu1F Cu 0.31237(15) 0.39922(8) -0.0470(2)
C4F C 0.2343(11) 0.4562(7) 0.3011(16)
S1N S -0.2456(3) 0.37644(15) 0.7227(4)
N1N N -0.2349(9) 0.3127(6) 0.3197(13)
N2K N -0.2184(9) 0.4886(6) 0.3571(15)
Cu1A Cu -0.06237(15) 0.64922(8) 0.2030(2)
H2A H -0.0264(12) 0.6034(7) -0.1559(15)
Cu1E Cu -0.06237(15) 0.14922(8) 0.7030(2)
N2F N 0.2184(9) 0.5114(6) 0.3571(15)
Cu1C Cu 0.18763(15) 0.60078(8) 0.4530(2)
loop_
_geom_bond_atom_site_label_1
_geom_bond_atom_site_label_2
_geom_bond_site_symmetry_1
_geom_bond_site_symmetry_2
Cu1 S1 1_555 1_555
S1 C4 1_555 1_555
N1 Cu1 1_555 1_555
C1 N1 1_555 1_555
H1 C1 1_555 1_555
C2 N1 1_555 1_555
H2 C2 1_555 1_555
C3 C2 1_555 1_555
H3 C3 1_555 1_555
C4 N2 1_555 1_555
N2 Cu1E 1_555 1_555
S1F Cu1 1_555 1_555
Cu1N S1 1_555 1_555
N1A C1 1_555 1_555
C2A C3 1_555 1_555
N2E Cu1 1_555 1_555
Cu1F S1F 1_555 1_555
C4F S1F 1_555 1_555
S1N Cu1N 1_555 1_555
N1N Cu1N 1_555 1_555
N2K Cu1N 1_555 1_555
Cu1A N1A 1_555 1_555
H2A C2A 1_555 1_555
N2F C4F 1_555 1_555
Cu1C N2F 1_555 1_555
N1A C2A 1_555 1_555

#END
