
#######################################################################
#
#                 Cambridge Crystallographic Data Centre
#                                CCDC 
#
#######################################################################
#
# If this CIF has been generated from an entry in the Cambridge 
# Structural Database, then it will include bibliographic, chemical, 
# crystal, experimental, refinement or atomic coordinate data resulting 
# from the CCDC's data processing and validation procedures.
#
#######################################################################

data_HOYMIT
_symmetry_cell_setting           orthorhombic
_symmetry_space_group_name_H-M   'P 21 21 21'
_symmetry_Int_Tables_number      19
_space_group_name_Hall           'P 2ac 2ab'
loop_
_symmetry_equiv_pos_site_id
_symmetry_equiv_pos_as_xyz
1 x,y,z
2 1/2-x,-y,1/2+z
3 1/2+x,1/2-y,-z
4 -x,1/2+y,1/2-z
_cell_length_a                   4.7590(2)
_cell_length_b                   16.9800(10)
_cell_length_c                   18.1555(7)
_cell_angle_alpha                90
_cell_angle_beta                 90
_cell_angle_gamma                90
_cell_volume                     1467.11
loop_
_atom_site_label
_atom_site_type_symbol
_atom_site_fract_x
_atom_site_fract_y
_atom_site_fract_z
N1 N 0.697(3) 0.9514(7) 0.4573(8)
Hg1 Hg 1.01355(12) 0.86089(3) 0.51926(3)
I1 I 1.1140(2) 0.93444(6) 0.64401(6)
I2 I 1.1335(2) 0.77117(6) 0.40403(6)
C1 C 0.572(3) 1.0089(8) 0.4976(10)
H1 H 0.6209 1.0146 0.5481
C2 C 0.374(3) 1.0596(9) 0.4678(9)
H2 H 0.2934 1.0998 0.4975
C3 C 0.297(3) 1.0520(8) 0.3972(9)
C4 C 0.425(3) 0.9953(9) 0.3547(10)
H3 H 0.3814 0.9902 0.3038
C5 C 0.622(3) 0.9448(9) 0.3886(10)
H4 H 0.7036 0.9040 0.3599
C6 C 0.092(3) 1.1038(9) 0.3624(10)
H5 H 0.0578 1.1007 0.3109
N2 N -0.046(3) 1.1547(7) 0.4030(8)
C7 C -0.252(3) 1.2050(8) 0.3719(9)
C8 C -0.345(3) 1.2058(8) 0.3001(9)
H6 H -0.2690 1.1686 0.2665
C9 C -0.543(3) 1.2586(9) 0.2751(10)
H7 H -0.6039 1.2583 0.2253
C10 C -0.651(3) 1.3128(8) 0.3261(9)
Cl1 Cl -0.9013(8) 1.3816(2) 0.2972(2)
C11 C -0.567(3) 1.3133(9) 0.3984(10)
H8 H -0.6434 1.3502 0.4324
C12 C -0.369(3) 1.2590(8) 0.4206(9)
H9 H -0.3115 1.2583 0.4707
Hg1B Hg 1.51355(12) 0.63911(3) 0.48074(3)
I2B I 0.6335(2) 0.72883(6) 0.59597(6)
loop_
_geom_bond_atom_site_label_1
_geom_bond_atom_site_label_2
_geom_bond_site_symmetry_1
_geom_bond_site_symmetry_2
N1 Hg1 1_555 1_555
Hg1 I1 1_555 1_555
I2 Hg1 1_555 1_555
C1 N1 1_555 1_555
H1 C1 1_555 1_555
C2 C1 1_555 1_555
H2 C2 1_555 1_555
C3 C2 1_555 1_555
C4 C3 1_555 1_555
H3 C4 1_555 1_555
C5 N1 1_555 1_555
H4 C5 1_555 1_555
C6 C3 1_555 1_555
H5 C6 1_555 1_555
N2 C6 1_555 1_555
C7 N2 1_555 1_555
C8 C7 1_555 1_555
H6 C8 1_555 1_555
C9 C8 1_555 1_555
H7 C9 1_555 1_555
C10 C9 1_555 1_555
Cl1 C10 1_555 1_555
C11 C10 1_555 1_555
H8 C11 1_555 1_555
C12 C7 1_555 1_555
H9 C12 1_555 1_555
Hg1B I2 1_555 1_555
I2B Hg1 1_555 1_555
C4 C5 1_555 1_555
C11 C12 1_555 1_555

#END
