
#######################################################################
#
#                 Cambridge Crystallographic Data Centre
#                                CCDC 
#
#######################################################################
#
# If this CIF has been generated from an entry in the Cambridge 
# Structural Database, then it will include bibliographic, chemical, 
# crystal, experimental, refinement or atomic coordinate data resulting 
# from the CCDC's data processing and validation procedures.
#
#######################################################################

data_HOYMEP
_symmetry_cell_setting           orthorhombic
_symmetry_space_group_name_H-M   'F d d 2'
_symmetry_Int_Tables_number      43
_space_group_name_Hall           'F 2 -2d'
loop_
_symmetry_equiv_pos_site_id
_symmetry_equiv_pos_as_xyz
1 x,y,z
2 -x,-y,z
3 1/4-x,1/4+y,1/4+z
4 1/4+x,1/4-y,1/4+z
5 x,1/2+y,1/2+z
6 -x,1/2-y,1/2+z
7 1/4-x,3/4+y,3/4+z
8 1/4+x,3/4-y,3/4+z
9 1/2+x,y,1/2+z
10 1/2-x,-y,1/2+z
11 3/4-x,1/4+y,3/4+z
12 3/4+x,1/4-y,3/4+z
13 1/2+x,1/2+y,z
14 1/2-x,1/2-y,z
15 3/4-x,3/4+y,1/4+z
16 3/4+x,3/4-y,1/4+z
_cell_length_a                   37.6061(3)
_cell_length_b                   38.3258(8)
_cell_length_c                   4.2956(2)
_cell_angle_alpha                90
_cell_angle_beta                 90
_cell_angle_gamma                90
_cell_volume                     6191.18
loop_
_atom_site_label
_atom_site_type_symbol
_atom_site_fract_x
_atom_site_fract_y
_atom_site_fract_z
N1 N -0.0152(2) 0.87896(19) 0.832(2)
Hg1 Hg -0.05658(2) 0.83078(2) 0.88121(10)
I1 I -0.11126(2) 0.85507(2) 0.56917(15)
I2 I -0.02392(2) 0.78871(2) 1.27210(14)
C1 C -0.0226(3) 0.9090(3) 0.686(3)
H1 H -0.0461 0.9126 0.6117
C2 C 0.0019(3) 0.9350(3) 0.638(3)
H2 H -0.0046 0.9561 0.5378
C3 C 0.0362(3) 0.9294(2) 0.739(3)
C4 C 0.0442(3) 0.8995(3) 0.890(3)
H3 H 0.0677 0.8955 0.9645
C5 C 0.0179(3) 0.8746(3) 0.933(3)
H4 H 0.0237 0.8537 1.0394
C6 C 0.0647(3) 0.9554(3) 0.684(3)
H5 H 0.0864 0.9533 0.7952
N2 N 0.0609(2) 0.9802(2) 0.497(3)
C7 C 0.0894(3) 1.0031(2) 0.435(3)
C8 C 0.1241(3) 0.9991(3) 0.542(3)
H6 H 0.1300 0.9795 0.6672
C9 C 0.1503(3) 1.0233(3) 0.467(4)
H7 H 0.1738 1.0214 0.5465
C10 C 0.1405(3) 1.0503(3) 0.272(4)
F1 F 0.1667(2) 1.07357(18) 0.194(3)
C11 C 0.1070(3) 1.0549(3) 0.156(4)
H8 H 0.1013 1.0741 0.0244
C12 C 0.0823(3) 1.0305(2) 0.238(3)
H9 H 0.0590 1.0326 0.1554
Hg1_2 Hg -0.05658(2) 0.83078(2) 1.88121(10)
I2_2 I -0.02392(2) 0.78871(2) 0.27210(14)
loop_
_geom_bond_atom_site_label_1
_geom_bond_atom_site_label_2
_geom_bond_site_symmetry_1
_geom_bond_site_symmetry_2
N1 Hg1 1_555 1_555
Hg1 I1 1_555 1_555
I2 Hg1 1_555 1_555
C1 N1 1_555 1_555
H1 C1 1_555 1_555
C2 C1 1_555 1_555
H2 C2 1_555 1_555
C3 C2 1_555 1_555
C4 C3 1_555 1_555
H3 C4 1_555 1_555
C5 N1 1_555 1_555
H4 C5 1_555 1_555
C6 C3 1_555 1_555
H5 C6 1_555 1_555
N2 C6 1_555 1_555
C7 N2 1_555 1_555
C8 C7 1_555 1_555
H6 C8 1_555 1_555
C9 C8 1_555 1_555
H7 C9 1_555 1_555
C10 C9 1_555 1_555
F1 C10 1_555 1_555
C11 C10 1_555 1_555
H8 C11 1_555 1_555
C12 C7 1_555 1_555
H9 C12 1_555 1_555
Hg1_2 I2 1_555 1_555
I2_2 Hg1 1_555 1_555
C4 C5 1_555 1_555
C11 C12 1_555 1_555

#END
