
#######################################################################
#
#                 Cambridge Crystallographic Data Centre
#                                CCDC 
#
#######################################################################
#
# If this CIF has been generated from an entry in the Cambridge 
# Structural Database, then it will include bibliographic, chemical, 
# crystal, experimental, refinement or atomic coordinate data resulting 
# from the CCDC's data processing and validation procedures.
#
#######################################################################

data_HOYMUD
_symmetry_cell_setting           orthorhombic
_symmetry_space_group_name_H-M   'F d d 2'
_symmetry_Int_Tables_number      43
_space_group_name_Hall           'F 2 -2d'
loop_
_symmetry_equiv_pos_site_id
_symmetry_equiv_pos_as_xyz
1 x,y,z
2 -x,-y,z
3 1/4-x,1/4+y,1/4+z
4 3/4+x,3/4-y,1/4+z
5 x,1/2+y,1/2+z
6 -x,1/2-y,1/2+z
7 1/4-x,3/4+y,3/4+z
8 3/4+x,1/4-y,3/4+z
9 1/2+x,y,1/2+z
10 1/2-x,-y,1/2+z
11 3/4-x,1/4+y,3/4+z
12 1/4+x,3/4-y,3/4+z
13 1/2+x,1/2+y,z
14 1/2-x,1/2-y,z
15 3/4-x,3/4+y,1/4+z
16 1/4+x,1/4-y,1/4+z
_cell_length_a                   12.560(3)
_cell_length_b                   18.943(4)
_cell_length_c                   8.1360(16)
_cell_angle_alpha                90
_cell_angle_beta                 90
_cell_angle_gamma                90
_cell_volume                     1935.75
loop_
_atom_site_label
_atom_site_type_symbol
_atom_site_fract_x
_atom_site_fract_y
_atom_site_fract_z
Cu1 Cu 0.06261(6) 0.14914(3) -0.34022(10)
S1 S 0.00378(10) 0.12653(6) -0.60968(16)
C1 C -0.0157(4) 0.2069(3) -0.6870(7)
N1 N 0.0313(4) 0.2392(3) -0.2432(8)
C2 C 0.0000 0.0000 -0.2793(11)
H1 H 0.0000 0.0000 -0.3936
N2 N 0.0154(4) 0.0617(2) -0.2064(6)
C3 C 0.0000 0.0000 0.0442(12)
H2 H 0.0000 0.0000 0.1585
C4 C 0.0150(5) 0.0616(3) -0.0402(7)
H3 H 0.0250 0.1036 0.0169
S1O S 0.25378(10) 0.12347(6) -0.35968(16)
Cu1G Cu -0.18739(6) 0.10086(3) -0.59022(10)
N1E N -0.0313(4) 0.2608(3) -0.7432(8)
C1E C 0.0157(4) 0.2931(3) -0.1870(7)
N2A N -0.0154(4) -0.0617(2) -0.2064(6)
C4A C -0.0150(5) -0.0616(3) -0.0402(7)
Cu1A Cu -0.06261(6) -0.14914(3) -0.34022(10)
Cu1E Cu -0.06261(6) 0.35086(3) -0.84022(10)
S1E S -0.00378(10) 0.37347(6) -0.10968(16)
S1G S -0.24622(10) 0.12347(6) -0.85968(16)
N1G N -0.2187(4) 0.0108(3) -0.4932(8)
N2G N -0.2346(4) 0.1883(2) -0.4564(6)
H3A H -0.0250 -0.1036 0.0169
Cu1B Cu 0.18739(6) 0.39914(3) -0.09022(10)
Cu1E_2 Cu -0.06261(6) 0.35086(3) 0.15978(10)
loop_
_geom_bond_atom_site_label_1
_geom_bond_atom_site_label_2
_geom_bond_site_symmetry_1
_geom_bond_site_symmetry_2
Cu1 S1 1_555 1_555
S1 C1 1_555 1_555
C1 N1E 1_555 1_555
N1 Cu1 1_555 1_555
C2 H1 1_555 1_555
N2 Cu1 1_555 1_555
C3 H2 1_555 1_555
C4 N2 1_555 1_555
H3 C4 1_555 1_555
S1O Cu1 1_555 1_555
Cu1G S1 1_555 1_555
N1E Cu1E 1_555 1_555
C1E N1 1_555 1_555
N2A C2 1_555 1_555
C4A C3 1_555 1_555
Cu1A N2A 1_555 1_555
S1E C1E 1_555 1_555
S1G Cu1G 1_555 1_555
N1G Cu1G 1_555 1_555
N2G Cu1G 1_555 1_555
H3A C4A 1_555 1_555
Cu1B S1E 1_555 1_555
Cu1E_2 S1E 1_555 1_555
C2 N2 1_555 1_555
C3 C4 1_555 1_555
N2A C4A 1_555 1_555

#END
