
#######################################################################
#
#                 Cambridge Crystallographic Data Centre
#                                CCDC 
#
#######################################################################
#
# If this CIF has been generated from an entry in the Cambridge 
# Structural Database, then it will include bibliographic, chemical, 
# crystal, experimental, refinement or atomic coordinate data resulting 
# from the CCDC's data processing and validation procedures.
#
#######################################################################

data_HOYQAP
_symmetry_cell_setting           orthorhombic
_symmetry_space_group_name_H-M   'P b a 2'
_symmetry_Int_Tables_number      32
_space_group_name_Hall           'P 2 -2ab'
loop_
_symmetry_equiv_pos_site_id
_symmetry_equiv_pos_as_xyz
1 x,y,z
2 -x,-y,z
3 1/2+x,1/2-y,z
4 1/2-x,1/2+y,z
_cell_length_a                   10.536(9)
_cell_length_b                   12.314(10)
_cell_length_c                   4.659(4)
_cell_angle_alpha                90
_cell_angle_beta                 90
_cell_angle_gamma                90
_cell_volume                     604.46
loop_
_atom_site_label
_atom_site_type_symbol
_atom_site_fract_x
_atom_site_fract_y
_atom_site_fract_z
Zn1 Zn 0.05069(5) 0.13664(4) 0.94752(16)
C1 C 0.2964(4) 0.2548(4) 0.9157(15)
N1 N 0.4182(5) 0.2524(4) 1.0047(10)
N2 N 0.2299(5) 0.1726(4) 1.0227(9)
C2 C 0.3136(7) 0.1154(5) 1.1915(16)
H1 H 0.2938 0.0534 1.2965
C3 C 0.4285(6) 0.1628(7) 1.1814(18)
H2 H 0.5013 0.1395 1.2759
O1 O 0.0396(4) 0.0847(3) 1.5444(8)
O2 O 0.0000 0.0000 1.1411(11)
C4 C 0.0000 0.0000 1.4283(17)
C5 C 0.2428(7) 0.3383(6) 0.7192(15)
H3 H 0.2861 0.4060 0.7480
H4 H 0.1540 0.3475 0.7587
H5 H 0.2537 0.3151 0.5239
O1A O -0.0396(4) -0.0847(3) 1.5444(8)
Zn1A Zn -0.05069(5) -0.13664(4) 0.94752(16)
C1A C -0.2964(4) -0.2548(4) 0.9157(15)
N1A N -0.4182(5) -0.2524(4) 1.0047(10)
N2A N -0.2299(5) -0.1726(4) 1.0227(9)
C2A C -0.3136(7) -0.1154(5) 1.1915(16)
H1A H -0.2938 -0.0534 1.2965
C3A C -0.4285(6) -0.1628(7) 1.1814(18)
H2A H -0.5013 -0.1395 1.2759
C5A C -0.2428(7) -0.3383(6) 0.7192(15)
H3A H -0.2861 -0.4060 0.7480
H4A H -0.1540 -0.3475 0.7587
H5A H -0.2537 -0.3151 0.5239
Zn1_2 Zn 0.05069(5) 0.13664(4) 1.94752(16)
Zn1A_2 Zn -0.05069(5) -0.13664(4) 1.94752(16)
Zn1B Zn 0.55069(5) 0.36336(4) 0.94752(16)
Zn1C Zn -0.55069(5) -0.36336(4) 0.94752(16)
N1B N -0.0818(5) 0.2476(4) 1.0047(10)
N1C N 0.0818(5) -0.2476(4) 1.0047(10)
O1_2 O 0.0396(4) 0.0847(3) 0.5444(8)
O1A_2 O -0.0396(4) -0.0847(3) 0.5444(8)
loop_
_geom_bond_atom_site_label_1
_geom_bond_atom_site_label_2
_geom_bond_site_symmetry_1
_geom_bond_site_symmetry_2
Zn1 N2 1_555 1_555
C1 N1 1_555 1_555
N1 C3 1_555 1_555
N2 C1 1_555 1_555
C2 N2 1_555 1_555
H1 C2 1_555 1_555
C3 C2 1_555 1_555
H2 C3 1_555 1_555
O1 C4 1_555 1_555
O2 Zn1 1_555 1_555
C4 O2 1_555 1_555
C5 C1 1_555 1_555
H3 C5 1_555 1_555
H4 C5 1_555 1_555
H5 C5 1_555 1_555
O1A C4 1_555 1_555
Zn1A O2 1_555 1_555
C1A N1A 1_555 1_555
N1A C3A 1_555 1_555
N2A Zn1A 1_555 1_555
C2A N2A 1_555 1_555
H1A C2A 1_555 1_555
C3A C2A 1_555 1_555
H2A C3A 1_555 1_555
C5A C1A 1_555 1_555
H3A C5A 1_555 1_555
H4A C5A 1_555 1_555
H5A C5A 1_555 1_555
Zn1_2 O1 1_555 1_555
Zn1A_2 O1A 1_555 1_555
Zn1B N1 1_555 1_555
Zn1C N1A 1_555 1_555
N1B Zn1 1_555 1_555
N1C Zn1A 1_555 1_555
O1_2 Zn1 1_555 1_555
O1A_2 Zn1A 1_555 1_555
C1A N2A 1_555 1_555

#END
