
#######################################################################
#
#                 Cambridge Crystallographic Data Centre
#                                CCDC 
#
#######################################################################
#
# If this CIF has been generated from an entry in the Cambridge 
# Structural Database, then it will include bibliographic, chemical, 
# crystal, experimental, refinement or atomic coordinate data resulting 
# from the CCDC's data processing and validation procedures.
#
#######################################################################

data_HOYREU
_symmetry_cell_setting           tetragonal
_symmetry_space_group_name_H-M   'P -4 21 c'
_symmetry_Int_Tables_number      114
_space_group_name_Hall           'P -4 2n'
loop_
_symmetry_equiv_pos_site_id
_symmetry_equiv_pos_as_xyz
1 x,y,z
2 y,-x,-z
3 -x,-y,z
4 -y,x,-z
5 1/2+x,1/2-y,1/2-z
6 1/2-x,1/2+y,1/2-z
7 1/2-y,1/2-x,1/2+z
8 1/2+y,1/2+x,1/2+z
_cell_length_a                   15.0933(2)
_cell_length_b                   15.0933(2)
_cell_length_c                   10.0587(2)
_cell_angle_alpha                90
_cell_angle_beta                 90
_cell_angle_gamma                90
_cell_volume                     2291.45
loop_
_atom_site_label
_atom_site_type_symbol
_atom_site_fract_x
_atom_site_fract_y
_atom_site_fract_z
Ba1 Ba 0.5000 0.0000 0.608908(19)
Li1 Li 0.4440(7) 0.1906(6) 0.3617(6)
O1 O 0.39032(17) 0.12306(18) 0.4920(2)
O2 O 0.33320(17) 0.07630(17) 0.6813(2)
O3 O 0.08849(19) 0.43546(17) 0.6203(2)
O4 O 0.07092(18) 0.34479(18) 0.7940(2)
O5 O 0.4964(2) 0.3078(2) 0.3873(3)
N1 N 0.2099(2) 0.3192(2) 0.5067(3)
H1 H 0.196(3) 0.357(2) 0.448(3)
N2 N 0.2727(2) 0.2595(2) 0.4790(3)
N3 N 0.5931(3) 0.3862(3) 0.2616(4)
C1 C 0.3348(2) 0.1289(3) 0.5847(3)
C2 C 0.2693(2) 0.2021(2) 0.5793(3)
C3 C 0.2045(2) 0.2251(2) 0.6712(3)
H2 H 0.1896 0.1951 0.7488
C4 C 0.1673(2) 0.3016(2) 0.6231(3)
C5 C 0.1034(2) 0.3648(2) 0.6826(4)
C6 C 0.5581(3) 0.3598(3) 0.3737(5)
H3 H 0.5825 0.3829 0.4511
C7 C 0.5597(4) 0.3506(5) 0.1383(4)
H4 H 0.5347 0.2930 0.1539
H5 H 0.6073 0.3457 0.0754
H6 H 0.5149 0.3892 0.1035
C8 C 0.6689(4) 0.4461(4) 0.2561(6)
H7 H 0.6842 0.4645 0.3445
H8 H 0.6539 0.4971 0.2037
H9 H 0.7183 0.4161 0.2164
Li1A Li 0.1906(6) -0.4440(7) 0.6383(6)
O1A O 0.12306(18) -0.39032(17) 0.5080(2)
O2A O 0.07630(17) -0.33320(17) 0.3187(2)
O3A O 0.43546(17) -0.08849(19) 0.3797(2)
O4A O 0.34479(18) -0.07092(18) 0.2060(2)
O5A O 0.3078(2) -0.4964(2) 0.6127(3)
N1A N 0.3192(2) -0.2099(2) 0.4933(3)
H1A H 0.357(2) -0.196(3) 0.552(3)
N2A N 0.2595(2) -0.2727(2) 0.5210(3)
N3A N 0.3862(3) -0.5931(3) 0.7384(4)
C1A C 0.1289(3) -0.3348(2) 0.4153(3)
C2A C 0.2021(2) -0.2693(2) 0.4207(3)
C3A C 0.2251(2) -0.2045(2) 0.3288(3)
H2A H 0.1951 -0.1896 0.2512
C4A C 0.3016(2) -0.1673(2) 0.3769(3)
C5A C 0.3648(2) -0.1034(2) 0.3174(4)
C6A C 0.3598(3) -0.5581(3) 0.6263(5)
H3A H 0.3829 -0.5825 0.5489
C7A C 0.3506(5) -0.5597(4) 0.8617(4)
H4A H 0.2930 -0.5347 0.8461
H5A H 0.3457 -0.6073 0.9246
H6A H 0.3892 -0.5149 0.8965
C8A C 0.4461(4) -0.6689(4) 0.7439(6)
H7A H 0.4645 -0.6842 0.6555
H8A H 0.4971 -0.6539 0.7963
H9A H 0.4161 -0.7183 0.7836
Ba1A Ba 0.0000 -0.5000 0.391092(19)
Ba1A_2 Ba 0.0000 0.5000 0.391092(19)
Ba1D Ba 0.0000 0.5000 0.891092(19)
Ba1F Ba 0.5000 0.0000 0.108908(19)
Li1A_2 Li 0.1906(6) 0.5560(7) 0.6383(6)
Li1B Li 0.5560(7) -0.1906(6) 0.3617(6)
Li1E Li 0.0560(7) -0.3094(6) 0.1383(6)
Li1F Li 0.3094(6) 0.0560(7) 0.8617(6)
O1B O 0.60968(17) -0.12306(18) 0.4920(2)
O2B O 0.66680(17) -0.07630(17) 0.6813(2)
O2E O 0.16680(17) -0.42370(17) 0.8187(2)
O2F O 0.42370(17) 0.16680(17) 0.1813(2)
O3_2 O 0.08849(19) -0.56454(17) 0.6203(2)
O3C O 0.56454(17) 0.08849(19) 0.3797(2)
O3D O 0.58849(19) 0.06454(17) 0.8797(2)
O3E O 0.41151(19) -0.06454(17) 0.8797(2)
O4D O 0.57092(18) 0.15521(18) 0.7060(2)
O4E O 0.42908(18) -0.15521(18) 0.7060(2)
loop_
_geom_bond_atom_site_label_1
_geom_bond_atom_site_label_2
_geom_bond_site_symmetry_1
_geom_bond_site_symmetry_2
Ba1 O1 1_555 1_555
Li1 O1 1_555 1_555
O1 C1 1_555 1_555
O2 Ba1 1_555 1_555
O3 C5 1_555 1_555
O4 C5 1_555 1_555
O5 Li1 1_555 1_555
N1 H1 1_555 1_555
N2 N1 1_555 1_555
N3 C6 1_555 1_555
C1 O2 1_555 1_555
C2 N2 1_555 1_555
C3 C2 1_555 1_555
H2 C3 1_555 1_555
C4 N1 1_555 1_555
C5 C4 1_555 1_555
C6 O5 1_555 1_555
H3 C6 1_555 1_555
C7 N3 1_555 1_555
H4 C7 1_555 1_555
H5 C7 1_555 1_555
H6 C7 1_555 1_555
C8 N3 1_555 1_555
H7 C8 1_555 1_555
H8 C8 1_555 1_555
H9 C8 1_555 1_555
Li1A O1A 1_555 1_555
O1A C1A 1_555 1_555
O2A C1A 1_555 1_555
O3A Ba1 1_555 1_555
O4A C5A 1_555 1_555
O5A Li1A 1_555 1_555
N1A H1A 1_555 1_555
N2A N1A 1_555 1_555
N3A C6A 1_555 1_555
C1A C2A 1_555 1_555
C2A N2A 1_555 1_555
C3A C2A 1_555 1_555
H2A C3A 1_555 1_555
C4A N1A 1_555 1_555
C5A O3A 1_555 1_555
C6A O5A 1_555 1_555
H3A C6A 1_555 1_555
C7A N3A 1_555 1_555
H4A C7A 1_555 1_555
H5A C7A 1_555 1_555
H6A C7A 1_555 1_555
C8A N3A 1_555 1_555
H7A C8A 1_555 1_555
H8A C8A 1_555 1_555
H9A C8A 1_555 1_555
Ba1A O1A 1_555 1_555
Ba1A_2 O3 1_555 1_555
Ba1D O3 1_555 1_555
Ba1F O3A 1_555 1_555
Li1A_2 O3 1_555 1_555
Li1B O3A 1_555 1_555
Li1E O2A 1_555 1_555
Li1F O2 1_555 1_555
O1B Ba1 1_555 1_555
O2B Ba1 1_555 1_555
O2E Li1A 1_555 1_555
O2F Li1 1_555 1_555
O3_2 Li1A 1_555 1_555
O3C Ba1 1_555 1_555
O3D Ba1 1_555 1_555
O3E Ba1 1_555 1_555
O4D Ba1 1_555 1_555
O4E Ba1 1_555 1_555
Li1 O3C 1_555 1_555
O4 Ba1D 1_555 1_555
C1 C2 1_555 1_555
C3 C4 1_555 1_555
O2A Ba1A 1_555 1_555
O4A Ba1F 1_555 1_555
C3A C4A 1_555 1_555
C4A C5A 1_555 1_555
Ba1A O3_2 1_555 1_555
Ba1F O2F 1_555 1_555
Ba1F O3C 1_555 1_555
Li1B O1B 1_555 1_555
Li1F O3E 1_555 1_555

#END
