
#######################################################################
#
#                 Cambridge Crystallographic Data Centre
#                                CCDC 
#
#######################################################################
#
# If this CIF has been generated from an entry in the Cambridge 
# Structural Database, then it will include bibliographic, chemical, 
# crystal, experimental, refinement or atomic coordinate data resulting 
# from the CCDC's data processing and validation procedures.
#
#######################################################################

data_HOYRIY
_symmetry_cell_setting           tetragonal
_symmetry_space_group_name_H-M   'P -4 21 c'
_symmetry_Int_Tables_number      114
_space_group_name_Hall           'P -4 2n'
loop_
_symmetry_equiv_pos_site_id
_symmetry_equiv_pos_as_xyz
1 x,y,z
2 y,-x,-z
3 -x,-y,z
4 -y,x,-z
5 1/2+x,1/2-y,1/2-z
6 1/2-x,1/2+y,1/2-z
7 1/2-y,1/2-x,1/2+z
8 1/2+y,1/2+x,1/2+z
_cell_length_a                   14.7246(2)
_cell_length_b                   14.7246(2)
_cell_length_c                   10.2236(3)
_cell_angle_alpha                90
_cell_angle_beta                 90
_cell_angle_gamma                90
_cell_volume                     2216.62
loop_
_atom_site_label
_atom_site_type_symbol
_atom_site_fract_x
_atom_site_fract_y
_atom_site_fract_z
Sr1 Sr 0.5000 0.0000 0.59449(3)
Li1 Li 0.4494(4) 0.1819(4) 0.3637(5)
O1 O 0.39131(13) 0.11764(14) 0.4958(2)
O2 O 0.34170(13) 0.07351(13) 0.68731(18)
O3 O 0.08477(13) 0.43701(12) 0.61237(19)
O4 O 0.07493(13) 0.35931(13) 0.79901(18)
O5 O 0.49870(19) 0.30395(15) 0.3892(2)
N1 N 0.20223(17) 0.31331(16) 0.5088(2)
H1 H 0.188(2) 0.3527(16) 0.451(2)
N2 N 0.26547(17) 0.25151(17) 0.4806(2)
N3 N 0.59366(19) 0.38859(19) 0.2638(3)
C1 C 0.33785(18) 0.12455(17) 0.5898(3)
C2 C 0.26825(18) 0.19772(17) 0.5855(3)
C3 C 0.20631(17) 0.22502(17) 0.6800(2)
H2 H 0.1952 0.1979 0.7606
C4 C 0.16490(18) 0.30076(18) 0.6287(2)
C5 C 0.10206(16) 0.37004(16) 0.6835(3)
C6 C 0.5620(3) 0.3575(2) 0.3751(4)
H3 H 0.5902 0.3780 0.4509
C7 C 0.5552(3) 0.3571(3) 0.1425(4)
H4 H 0.5567 0.2920 0.1402
H5 H 0.5898 0.3809 0.0706
H6 H 0.4934 0.3775 0.1358
C8 C 0.6711(3) 0.4496(3) 0.2571(5)
H7 H 0.6932 0.4614 0.3438
H8 H 0.6529 0.5057 0.2170
H9 H 0.7183 0.4220 0.2060
Li1A Li 0.1819(4) -0.4494(4) 0.6363(5)
O1A O 0.11764(14) -0.39131(13) 0.5042(2)
O2A O 0.07351(13) -0.34170(13) 0.31269(18)
O3A O 0.43701(12) -0.08477(13) 0.38763(19)
O4A O 0.35931(13) -0.07493(13) 0.20099(18)
O5A O 0.30395(15) -0.49870(19) 0.6108(2)
N1A N 0.31331(16) -0.20223(17) 0.4912(2)
H1A H 0.3527(16) -0.188(2) 0.549(2)
N2A N 0.25151(17) -0.26547(17) 0.5194(2)
N3A N 0.38859(19) -0.59366(19) 0.7362(3)
C1A C 0.12455(17) -0.33785(18) 0.4102(3)
C2A C 0.19772(17) -0.26825(18) 0.4145(3)
C3A C 0.22502(17) -0.20631(17) 0.3200(2)
H2A H 0.1979 -0.1952 0.2394
C4A C 0.30076(18) -0.16490(18) 0.3713(2)
C5A C 0.37004(16) -0.10206(16) 0.3165(3)
C6A C 0.3575(2) -0.5620(3) 0.6249(4)
H3A H 0.3780 -0.5902 0.5491
C7A C 0.3571(3) -0.5552(3) 0.8575(4)
H4A H 0.2920 -0.5567 0.8598
H5A H 0.3809 -0.5898 0.9294
H6A H 0.3775 -0.4934 0.8642
C8A C 0.4496(3) -0.6711(3) 0.7429(5)
H7A H 0.4614 -0.6932 0.6562
H8A H 0.5057 -0.6529 0.7830
H9A H 0.4220 -0.7183 0.7940
Sr1A Sr 0.0000 -0.5000 0.40551(3)
Sr1A_2 Sr 0.0000 0.5000 0.40551(3)
Sr1D Sr 0.0000 0.5000 0.90551(3)
Sr1F Sr 0.5000 0.0000 0.09449(3)
Li1A_2 Li 0.1819(4) 0.5506(4) 0.6363(5)
Li1B Li 0.5506(4) -0.1819(4) 0.3637(5)
Li1E Li 0.0506(4) -0.3181(4) 0.1363(5)
Li1F Li 0.3181(4) 0.0506(4) 0.8637(5)
O1B O 0.60869(13) -0.11764(14) 0.4958(2)
O2B O 0.65830(13) -0.07351(13) 0.68731(18)
O2E O 0.15830(13) -0.42649(13) 0.81269(18)
O2F O 0.42649(13) 0.15830(13) 0.18731(18)
O3_2 O 0.08477(13) -0.56299(12) 0.61237(19)
O3C O 0.56299(12) 0.08477(13) 0.38763(19)
O4D O 0.57493(13) 0.14069(13) 0.70099(18)
O4E O 0.42507(13) -0.14069(13) 0.70099(18)
loop_
_geom_bond_atom_site_label_1
_geom_bond_atom_site_label_2
_geom_bond_site_symmetry_1
_geom_bond_site_symmetry_2
Sr1 O1 1_555 1_555
Li1 O1 1_555 1_555
O1 C1 1_555 1_555
O2 Sr1 1_555 1_555
O3 C5 1_555 1_555
O4 C5 1_555 1_555
O5 Li1 1_555 1_555
N1 H1 1_555 1_555
N2 N1 1_555 1_555
N3 C6 1_555 1_555
C1 O2 1_555 1_555
C2 N2 1_555 1_555
C3 C2 1_555 1_555
H2 C3 1_555 1_555
C4 N1 1_555 1_555
C5 C4 1_555 1_555
C6 O5 1_555 1_555
H3 C6 1_555 1_555
C7 N3 1_555 1_555
H4 C7 1_555 1_555
H5 C7 1_555 1_555
H6 C7 1_555 1_555
C8 N3 1_555 1_555
H7 C8 1_555 1_555
H8 C8 1_555 1_555
H9 C8 1_555 1_555
Li1A O1A 1_555 1_555
O1A C1A 1_555 1_555
O2A C1A 1_555 1_555
O3A Sr1 1_555 1_555
O4A C5A 1_555 1_555
O5A Li1A 1_555 1_555
N1A H1A 1_555 1_555
N2A N1A 1_555 1_555
N3A C6A 1_555 1_555
C1A C2A 1_555 1_555
C2A N2A 1_555 1_555
C3A C2A 1_555 1_555
H2A C3A 1_555 1_555
C4A N1A 1_555 1_555
C5A O3A 1_555 1_555
C6A O5A 1_555 1_555
H3A C6A 1_555 1_555
C7A N3A 1_555 1_555
H4A C7A 1_555 1_555
H5A C7A 1_555 1_555
H6A C7A 1_555 1_555
C8A N3A 1_555 1_555
H7A C8A 1_555 1_555
H8A C8A 1_555 1_555
H9A C8A 1_555 1_555
Sr1A O1A 1_555 1_555
Sr1A_2 O3 1_555 1_555
Sr1D O4 1_555 1_555
Sr1F O4A 1_555 1_555
Li1A_2 O3 1_555 1_555
Li1B O3A 1_555 1_555
Li1E O2A 1_555 1_555
Li1F O2 1_555 1_555
O1B Sr1 1_555 1_555
O2B Sr1 1_555 1_555
O2E Li1A 1_555 1_555
O2F Li1 1_555 1_555
O3_2 Li1A 1_555 1_555
O3C Sr1 1_555 1_555
O4D Sr1 1_555 1_555
O4E Sr1 1_555 1_555
Li1 O3C 1_555 1_555
C1 C2 1_555 1_555
C3 C4 1_555 1_555
O2A Sr1A 1_555 1_555
C3A C4A 1_555 1_555
C4A C5A 1_555 1_555
Sr1A O3_2 1_555 1_555
Sr1F O2F 1_555 1_555
Li1B O1B 1_555 1_555

#END
