
#######################################################################
#
#                 Cambridge Crystallographic Data Centre
#                                CCDC 
#
#######################################################################
#
# If this CIF has been generated from an entry in the Cambridge 
# Structural Database, then it will include bibliographic, chemical, 
# crystal, experimental, refinement or atomic coordinate data resulting 
# from the CCDC's data processing and validation procedures.
#
#######################################################################

data_HOYTEV
_symmetry_cell_setting           orthorhombic
_symmetry_space_group_name_H-M   'C 2 2 21'
_symmetry_Int_Tables_number      20
_space_group_name_Hall           'C 2n 2'
loop_
_symmetry_equiv_pos_site_id
_symmetry_equiv_pos_as_xyz
1 x,y,z
2 -x,-y,1/2+z
3 x,-y,-z
4 -x,y,1/2-z
5 1/2+x,1/2+y,z
6 1/2-x,1/2-y,1/2+z
7 1/2+x,1/2-y,-z
8 1/2-x,1/2+y,1/2-z
_cell_length_a                   9.9703(5)
_cell_length_b                   18.1086(7)
_cell_length_c                   18.6712(7)
_cell_angle_alpha                90
_cell_angle_beta                 90
_cell_angle_gamma                90
_cell_volume                     3371.05
loop_
_atom_site_label
_atom_site_type_symbol
_atom_site_fract_x
_atom_site_fract_y
_atom_site_fract_z
O1 O 0.2512(6) 1.3417(3) 0.3852(2)
H1 H 0.2423 1.2986 0.3761
H2 H 0.2969 1.3432 0.4176
O2 O 0.0000 1.2571(3) 0.2500
H3 H -0.0429 1.2842 0.2612
H3C H 0.0429 1.2842 0.2388
O3 O 0.0421(3) 1.0844(2) -0.17989(18)
H4 H -0.0204 1.0787 -0.1536
H5 H 0.0110 1.0827 -0.2311
O4 O 0.2729(5) 1.3007(2) -0.1727(3)
H6 H 0.3022 1.2924 -0.2217
H7 H 0.3471 1.3252 -0.1528
O5 O 0.4543(5) 1.0844(2) -0.1791(3)
H8 H 0.4006 1.0874 -0.1500
H9 H 0.5122 1.0555 -0.1533
Tb1 Tb -0.25043(3) 1.0000 0.0000
Cs1 Cs 0.0000 1.25921(2) -0.2500
Cs2 Cs 0.24096(3) 0.971980(13) -0.256490(12)
N1 N -0.3747(3) 1.12094(16) -0.00490(18)
N2 N 0.0001(5) 1.0000 0.0000
O6 O -0.1894(3) 1.08393(16) -0.09656(15)
O7 O -0.2298(4) 1.18221(19) -0.16569(17)
O8 O -0.4193(3) 1.01935(15) 0.09205(15)
O9 O -0.5383(3) 1.09692(19) 0.16015(17)
O10 O -0.1451(3) 0.92041(15) -0.08745(15)
O11 O 0.0332(3) 0.89252(19) -0.15576(19)
C1 C -0.3531(4) 1.1692(2) -0.0580(2)
C2 C -0.4184(5) 1.2356(3) -0.0623(2)
H10 H -0.4025 1.2681 -0.0999
C3 C -0.5113(7) 1.25297(19) -0.0072(4)
H11 H -0.5563 1.2979 -0.0080
C4 C -0.5346(4) 1.2042(2) 0.0465(2)
H12 H -0.5970 1.2145 0.0821
C5 C -0.4626(4) 1.1384(2) 0.0468(2)
C6 C -0.2496(6) 1.1442(2) -0.11211(19)
C7 C -0.4761(4) 1.0814(2) 0.1052(2)
C8 C 0.0680(4) 0.9614(2) -0.04893(19)
C9 C 0.2060(4) 0.9592(3) -0.0504(2)
H13 H 0.2518 0.9312 -0.0842
C10 C 0.2733(6) 1.0000 0.0000
H14 H 0.3666 1.0000 0.0000
C11 C -0.0190(5) 0.9215(2) -0.1025(2)
O3B O 0.0421(3) 0.9156(2) 0.17989(18)
H4B H -0.0204 0.9213 0.1536
H5B H 0.0110 0.9173 0.2311
O4C O -0.2729(5) 1.3007(2) -0.3273(3)
O4G O 0.2271(5) 0.8007(2) -0.3273(3)
O4E O 0.2271(5) 1.1993(2) 0.3273(3)
H6C H -0.3022 1.2924 -0.2783
H6G H 0.1978 0.7924 -0.2783
H6E H 0.1978 1.2076 0.2783
H7C H -0.3471 1.3252 -0.3472
H7G H 0.1529 0.8252 -0.3472
H7E H 0.1529 1.1748 0.3472
O5B O 0.4543(5) 0.9156(2) 0.1791(3)
H8B H 0.4006 0.9126 0.1500
H9B H 0.5122 0.9445 0.1533
Cs1E Cs -0.5000 1.24079(2) 0.2500
Cs1A Cs 0.0000 0.74079(2) 0.2500
Cs1D Cs -0.5000 0.75921(2) -0.2500
Cs2B Cs 0.24096(3) 1.028020(13) 0.256490(12)
Cs2G Cs 0.25904(3) 1.471980(13) -0.243510(12)
Cs2A Cs -0.24096(3) 1.028020(13) 0.243510(12)
Cs2B_2 Cs -0.75904(3) 1.028020(13) 0.256490(12)
Cs2C Cs -0.24096(3) 0.971980(13) -0.243510(12)
Cs2_2 Cs -0.75904(3) 0.971980(13) -0.256490(12)
Cs2D Cs -0.25904(3) 1.471980(13) -0.256490(12)
N1B N -0.3747(3) 0.87906(16) 0.00490(18)
O6B O -0.1894(3) 0.91607(16) 0.09656(15)
O7B O -0.2298(4) 0.81779(19) 0.16569(17)
O7C O 0.2298(4) 1.18221(19) -0.33431(17)
O8B O -0.4193(3) 0.98065(15) -0.09205(15)
O8A O 0.4193(3) 0.98065(15) -0.40795(15)
O8C O 0.4193(3) 1.01935(15) 0.40795(15)
O9B O -0.5383(3) 0.90308(19) -0.16015(17)
O9E O 0.0383(3) 1.40308(19) -0.33985(17)
O9F O -0.0383(3) 1.40308(19) -0.16015(17)
O9B_2 O 0.4617(3) 0.90308(19) -0.16015(17)
O9_2 O 0.4617(3) 1.09692(19) 0.16015(17)
O10B O -0.1451(3) 1.07959(15) 0.08745(15)
O10C O 0.1451(3) 0.92041(15) -0.41255(15)
O10A O 0.1451(3) 1.07959(15) 0.41255(15)
O11B O 0.0332(3) 1.10748(19) 0.15576(19)
C1B C -0.3531(4) 0.8308(2) 0.0580(2)
C2B C -0.4184(5) 0.7644(3) 0.0623(2)
H10B H -0.4025 0.7319 0.0999
C3B C -0.5113(7) 0.74703(19) 0.0072(4)
H11B H -0.5563 0.7021 0.0080
C4B C -0.5346(4) 0.7958(2) -0.0465(2)
H12B H -0.5970 0.7855 -0.0821
C5B C -0.4626(4) 0.8616(2) -0.0468(2)
C6B C -0.2496(6) 0.8558(2) 0.11211(19)
C7B C -0.4761(4) 0.9186(2) -0.1052(2)
C8B C 0.0680(4) 1.0386(2) 0.04893(19)
C9B C 0.2060(4) 1.0408(3) 0.0504(2)
H13B H 0.2518 1.0688 0.0842
C11B C -0.0190(5) 1.0785(2) 0.1025(2)
loop_
_geom_bond_atom_site_label_1
_geom_bond_atom_site_label_2
_geom_bond_site_symmetry_1
_geom_bond_site_symmetry_2
O1 H1 1_555 1_555
H2 O1 1_555 1_555
O2 H3 1_555 1_555
O3 H4 1_555 1_555
H5 O3 1_555 1_555
O4 H6 1_555 1_555
H7 O4 1_555 1_555
O5 H8 1_555 1_555
H9 O5 1_555 1_555
Tb1 N1 1_555 1_555
Cs1 O4 1_555 1_555
Cs2 O3 1_555 1_555
N1 C1 1_555 1_555
N2 Tb1 1_555 1_555
O6 Tb1 1_555 1_555
O7 Cs1 1_555 1_555
O8 Tb1 1_555 1_555
O9 C7 1_555 1_555
O10 Tb1 1_555 1_555
O11 Cs2 1_555 1_555
C1 C2 1_555 1_555
C2 H10 1_555 1_555
C3 C2 1_555 1_555
H11 C3 1_555 1_555
C4 C3 1_555 1_555
H12 C4 1_555 1_555
C5 N1 1_555 1_555
C6 O6 1_555 1_555
C7 O8 1_555 1_555
C8 N2 1_555 1_555
C9 C8 1_555 1_555
H13 C9 1_555 1_555
C10 C9 1_555 1_555
H14 C10 1_555 1_555
C11 O10 1_555 1_555
H3C O2 1_555 1_555
O3B H4B 1_555 1_555
H5B O3B 1_555 1_555
O4C Cs1 1_555 1_555
O4G Cs2 1_555 1_555
O4E H6E 1_555 1_555
H6C O4C 1_555 1_555
H6G O4G 1_555 1_555
H7C O4C 1_555 1_555
H7G O4G 1_555 1_555
H7E O4E 1_555 1_555
O5B H8B 1_555 1_555
H9B O5B 1_555 1_555
Cs1E O9 1_555 1_555
Cs1A O7B 1_555 1_555
Cs1D O9B 1_555 1_555
Cs2B O3B 1_555 1_555
Cs2G O4 1_555 1_555
Cs2A O8 1_555 1_555
Cs2B_2 O9 1_555 1_555
Cs2C O10 1_555 1_555
Cs2_2 O9B 1_555 1_555
Cs2D O4C 1_555 1_555
N1B Tb1 1_555 1_555
O6B Tb1 1_555 1_555
O7B C6B 1_555 1_555
O7C Cs1 1_555 1_555
O8B Tb1 1_555 1_555
O8A Cs2 1_555 1_555
O8C Cs2B 1_555 1_555
O9B C7B 1_555 1_555
O9E Cs1 1_555 1_555
O9F Cs1 1_555 1_555
O9B_2 Cs2 1_555 1_555
O9_2 Cs2B 1_555 1_555
O10B Tb1 1_555 1_555
O10C Cs2 1_555 1_555
O10A Cs2B 1_555 1_555
O11B Cs2B 1_555 1_555
C1B N1B 1_555 1_555
C2B C1B 1_555 1_555
H10B C2B 1_555 1_555
C3B C2B 1_555 1_555
H11B C3B 1_555 1_555
C4B C3B 1_555 1_555
H12B C4B 1_555 1_555
C5B N1B 1_555 1_555
C6B O6B 1_555 1_555
C7B O8B 1_555 1_555
C8B N2 1_555 1_555
C9B C10 1_555 1_555
H13B C9B 1_555 1_555
C11B O10B 1_555 1_555
O5 Cs2 1_555 1_555
O7 C6 1_555 1_555
O11 C11 1_555 1_555
C1 C6 1_555 1_555
C4 C5 1_555 1_555
C5 C7 1_555 1_555
C8 C11 1_555 1_555
O4E Cs2B 1_555 1_555
O5B Cs2B 1_555 1_555
Cs2G O9E 1_555 1_555
Cs2A O10B 1_555 1_555
Cs2C O8B 1_555 1_555
Cs2D O9F 1_555 1_555
O11B C11B 1_555 1_555
C1B C6B 1_555 1_555
C4B C5B 1_555 1_555
C5B C7B 1_555 1_555
C8B C9B 1_555 1_555
C8B C11B 1_555 1_555

#END
