
#######################################################################
#
#                 Cambridge Crystallographic Data Centre
#                                CCDC 
#
#######################################################################
#
# If this CIF has been generated from an entry in the Cambridge 
# Structural Database, then it will include bibliographic, chemical, 
# crystal, experimental, refinement or atomic coordinate data resulting 
# from the CCDC's data processing and validation procedures.
#
#######################################################################

data_HOYTIZ
_symmetry_cell_setting           orthorhombic
_symmetry_space_group_name_H-M   'C 2 2 21'
_symmetry_Int_Tables_number      20
_space_group_name_Hall           'C 2n 2'
loop_
_symmetry_equiv_pos_site_id
_symmetry_equiv_pos_as_xyz
1 x,y,z
2 -x,-y,1/2+z
3 x,-y,-z
4 -x,y,1/2-z
5 1/2+x,1/2+y,z
6 1/2-x,1/2-y,1/2+z
7 1/2+x,1/2-y,-z
8 1/2-x,1/2+y,1/2-z
_cell_length_a                   10.0475(2)
_cell_length_b                   17.9629(5)
_cell_length_c                   18.5700(5)
_cell_angle_alpha                90
_cell_angle_beta                 90
_cell_angle_gamma                90
_cell_volume                     3351.56
loop_
_atom_site_label
_atom_site_type_symbol
_atom_site_fract_x
_atom_site_fract_y
_atom_site_fract_z
Yb1 Yb 0.24910(5) 0.0000 0.5000
Cs1 Cs 0.0000 0.26352(5) 0.2500
Cs2 Cs 0.75618(5) 0.02405(2) 0.75645(3)
N1 N 0.3704(5) 0.1190(3) 0.4958(3)
O1 O 0.1837(5) 0.0827(3) 0.4053(3)
O2 O 0.2210(6) 0.1829(4) 0.3366(3)
O3 O 0.5374(6) 0.0922(4) 0.6590(3)
O4 O 0.4154(5) 0.0150(3) 0.5903(3)
C1 C 0.4603(7) 0.1351(4) 0.5463(4)
C2 C 0.5340(8) 0.2008(4) 0.5459(4)
H1 H 0.5969 0.2103 0.5815
C3 C 0.5115(12) 0.2507(4) 0.4922(8)
H2 H 0.5589 0.2951 0.4908
C4 C 0.4149(9) 0.2346(5) 0.4379(4)
H3 H 0.3979 0.2680 0.4007
C5 C 0.3484(7) 0.1681(4) 0.4426(4)
C6 C 0.2437(10) 0.1437(3) 0.3893(3)
C7 C 0.4743(7) 0.0764(4) 0.6038(4)
N2 N 0.0045(9) 0.0000 0.5000
O5 O 0.1511(5) 0.0785(3) 0.5872(3)
O6 O -0.0243(8) 0.1084(4) 0.6557(4)
C8 C -0.0609(7) 0.0389(4) 0.5491(4)
C9 C -0.1987(8) 0.0415(6) 0.5503(4)
H4 H -0.2433 0.0704 0.5841
C10 C -0.2687(16) 0.0000 0.5000
H5 H -0.3613 0.0000 0.5000
C11 C 0.0258(8) 0.0791(4) 0.6029(4)
O7 O 0.2791(12) 0.3010(6) 0.1837(12)
H6 H 0.3535 0.3021 0.2098
H7 H 0.2573 0.2573 0.2081
O8 O 0.5517(10) -0.0877(5) 0.6759(6)
H8 H 0.4969 -0.0865 0.6455
H9 H 0.6055 -0.0952 0.6504
O9 O 0.9548(7) -0.0866(4) 0.6802(4)
H10 H 0.9845 -0.1221 0.6827
H11 H 1.0008 -0.0623 0.6460
Cs1E Cs 0.5000 0.23648(5) 0.7500
Cs1A Cs 0.0000 -0.26352(5) 0.7500
Cs1D Cs 0.5000 -0.23648(5) 0.2500
Cs2B Cs 0.75618(5) -0.02405(2) 0.24355(3)
Cs2C Cs 0.24382(5) 0.02405(2) 0.74355(3)
Cs2_2 Cs -0.24382(5) 0.02405(2) 0.75645(3)
Cs2F Cs 0.25618(5) 0.47595(2) 0.24355(3)
Cs2A Cs 0.24382(5) -0.02405(2) 0.25645(3)
Cs2B_2 Cs -0.24382(5) -0.02405(2) 0.24355(3)
Cs2E Cs -0.25618(5) 0.47595(2) 0.25645(3)
N1B N 0.3704(5) -0.1190(3) 0.5042(3)
O1B O 0.1837(5) -0.0827(3) 0.5947(3)
O2B O 0.2210(6) -0.1829(4) 0.6634(3)
O2C O -0.2210(6) 0.1829(4) 0.1634(3)
O3B O 0.5374(6) -0.0922(4) 0.3410(3)
O3F O 0.0374(6) 0.4078(4) 0.3410(3)
O3E O -0.0374(6) 0.4078(4) 0.1590(3)
O4B O 0.4154(5) -0.0150(3) 0.4097(3)
O4C O 0.5846(5) 0.0150(3) 0.9097(3)
O4A O 0.5846(5) -0.0150(3) 0.0903(3)
C1B C 0.4603(7) -0.1351(4) 0.4537(4)
C2B C 0.5340(8) -0.2008(4) 0.4541(4)
H1B H 0.5969 -0.2103 0.4185
C3B C 0.5115(12) -0.2507(4) 0.5078(8)
H2B H 0.5589 -0.2951 0.5092
C4B C 0.4149(9) -0.2346(5) 0.5621(4)
H3B H 0.3979 -0.2680 0.5993
C5B C 0.3484(7) -0.1681(4) 0.5574(4)
C6B C 0.2437(10) -0.1437(3) 0.6107(3)
C7B C 0.4743(7) -0.0764(4) 0.3962(4)
O5B O 0.1511(5) -0.0785(3) 0.4128(3)
O5C O 0.8489(5) 0.0785(3) 0.9128(3)
O5A O 0.8489(5) -0.0785(3) 0.0872(3)
O6B O -0.0243(8) -0.1084(4) 0.3443(4)
O6_2 O 0.9757(8) 0.1084(4) 0.6557(4)
O6B_2 O 0.9757(8) -0.1084(4) 0.3443(4)
C8B C -0.0609(7) -0.0389(4) 0.4509(4)
C9B C -0.1987(8) -0.0415(6) 0.4497(4)
H4B H -0.2433 -0.0704 0.4159
C11B C 0.0258(8) -0.0791(4) 0.3971(4)
O7C O -0.2791(12) 0.3010(6) 0.3163(12)
O7F O 0.7791(12) 0.1990(6) 0.8163(12)
O7D O 0.7791(12) -0.1990(6) 0.1837(12)
H6C H -0.3535 0.3021 0.2902
H6F H 0.8535 0.1979 0.7902
H6D H 0.8535 -0.1979 0.2098
H7C H -0.2573 0.2573 0.2919
H7F H 0.7573 0.2427 0.7919
H7D H 0.7573 -0.2427 0.2081
O8B O 0.5517(10) 0.0877(5) 0.3241(6)
H8B H 0.4969 0.0865 0.3545
H9B H 0.6055 0.0952 0.3496
O9B O 0.9548(7) 0.0866(4) 0.3198(4)
H10B H 0.9845 0.1221 0.3173
H11B H 1.0008 0.0623 0.3540
O10 O 0.2547(13) 0.3343(7) 0.6146(6)
H12 H 0.2989 0.3399 0.5843
H13 H 0.2755 0.2877 0.6128
O11 O 0.0000 0.2517(6) 0.7500
H14 H -0.0611 0.2904 0.7499
H14C H 0.0611 0.2904 0.7501
loop_
_geom_bond_atom_site_label_1
_geom_bond_atom_site_label_2
_geom_bond_site_symmetry_1
_geom_bond_site_symmetry_2
Yb1 N1 1_555 1_555
Cs1 O2 1_555 1_555
Cs2 O3 1_555 1_555
N1 C1 1_555 1_555
O1 Yb1 1_555 1_555
O2 C6 1_555 1_555
O3 C7 1_555 1_555
O4 Yb1 1_555 1_555
C1 C2 1_555 1_555
C2 H1 1_555 1_555
C3 C2 1_555 1_555
H2 C3 1_555 1_555
C4 C3 1_555 1_555
H3 C4 1_555 1_555
C5 N1 1_555 1_555
C6 O1 1_555 1_555
C7 O4 1_555 1_555
N2 Yb1 1_555 1_555
O5 Yb1 1_555 1_555
O6 C11 1_555 1_555
C8 N2 1_555 1_555
C9 C8 1_555 1_555
H4 C9 1_555 1_555
C10 C9 1_555 1_555
H5 C10 1_555 1_555
C11 O5 1_555 1_555
O7 Cs1 1_555 1_555
H6 O7 1_555 1_555
H7 O7 1_555 1_555
O8 Cs2 1_555 1_555
H8 O8 1_555 1_555
H9 O8 1_555 1_555
O9 Cs2 1_555 1_555
H10 O9 1_555 1_555
H11 O9 1_555 1_555
O10 H12 1_555 1_555
H13 O10 1_555 1_555
O11 H14 1_555 1_555
Cs1E O3 1_555 1_555
Cs1A O2B 1_555 1_555
Cs1D O3B 1_555 1_555
Cs2B O3B 1_555 1_555
Cs2C O4 1_555 1_555
Cs2_2 O6 1_555 1_555
Cs2F O7 1_555 1_555
Cs2A O4B 1_555 1_555
Cs2B_2 O6B 1_555 1_555
Cs2E O3E 1_555 1_555
N1B Yb1 1_555 1_555
O1B Yb1 1_555 1_555
O2B C6B 1_555 1_555
O2C Cs1 1_555 1_555
O3B C7B 1_555 1_555
O3F Cs1 1_555 1_555
O3E Cs1 1_555 1_555
O4B Yb1 1_555 1_555
O4C Cs2 1_555 1_555
O4A Cs2B 1_555 1_555
C1B N1B 1_555 1_555
C2B C1B 1_555 1_555
H1B C2B 1_555 1_555
C3B C2B 1_555 1_555
H2B C3B 1_555 1_555
C4B C3B 1_555 1_555
H3B C4B 1_555 1_555
C5B N1B 1_555 1_555
C6B O1B 1_555 1_555
C7B O4B 1_555 1_555
O5B Yb1 1_555 1_555
O5C Cs2 1_555 1_555
O5A Cs2B 1_555 1_555
O6B C11B 1_555 1_555
O6_2 Cs2 1_555 1_555
O6B_2 Cs2B 1_555 1_555
C8B N2 1_555 1_555
C9B C10 1_555 1_555
H4B C9B 1_555 1_555
C11B O5B 1_555 1_555
O7C Cs1 1_555 1_555
O7F Cs2 1_555 1_555
O7D Cs1D 1_555 1_555
H6C O7C 1_555 1_555
H6F O7F 1_555 1_555
H6D O7D 1_555 1_555
H7C O7C 1_555 1_555
H7F O7F 1_555 1_555
H7D O7D 1_555 1_555
O8B Cs2B 1_555 1_555
H8B O8B 1_555 1_555
H9B O8B 1_555 1_555
O9B Cs2B 1_555 1_555
H10B O9B 1_555 1_555
H11B O9B 1_555 1_555
H14C O11 1_555 1_555
C1 C7 1_555 1_555
C4 C5 1_555 1_555
C5 C6 1_555 1_555
O5 Cs2C 1_555 1_555
C8 C11 1_555 1_555
Cs1E O7F 1_555 1_555
Cs2B O7D 1_555 1_555
Cs2F O3F 1_555 1_555
Cs2A O5B 1_555 1_555
Cs2E O7C 1_555 1_555
C1B C7B 1_555 1_555
C4B C5B 1_555 1_555
C5B C6B 1_555 1_555
C8B C9B 1_555 1_555
C8B C11B 1_555 1_555

#END
