
#######################################################################
#
#                 Cambridge Crystallographic Data Centre
#                                CCDC 
#
#######################################################################
#
# If this CIF has been generated from an entry in the Cambridge 
# Structural Database, then it will include bibliographic, chemical, 
# crystal, experimental, refinement or atomic coordinate data resulting 
# from the CCDC's data processing and validation procedures.
#
#######################################################################

data_HOYVAT
_symmetry_cell_setting           triclinic
_symmetry_space_group_name_H-M   'P -1'
_symmetry_Int_Tables_number      2
_space_group_name_Hall           '-P 1'
loop_
_symmetry_equiv_pos_site_id
_symmetry_equiv_pos_as_xyz
1 x,y,z
2 -x,-y,-z
_cell_length_a                   10.2456(4)
_cell_length_b                   10.9428(4)
_cell_length_c                   17.1405(6)
_cell_angle_alpha                74.274(3)
_cell_angle_beta                 77.229(3)
_cell_angle_gamma                72.904(3)
_cell_volume                     1747.05
loop_
_atom_site_label
_atom_site_type_symbol
_atom_site_fract_x
_atom_site_fract_y
_atom_site_fract_z
Na1 Na 1.00909(10) 0.74992(11) 0.25465(6)
Na2 Na 1.0000 0.5000 0.5000
Na3 Na 1.0000 0.0000 0.0000
Tb1 Tb 0.992483(11) 0.252059(12) 0.250890(7)
N1 N 0.7421(2) 1.2543(2) 0.26207(13)
C1 C 0.7071(3) 1.1417(3) 0.27319(16)
O1 O 0.82894(19) 1.46713(19) 0.22588(11)
O2 O 0.6124(2) 1.5946(2) 0.24029(12)
O3 O 0.8046(2) 0.9121(2) 0.29126(14)
O4 O 0.93907(19) 1.0418(2) 0.29008(11)
C2 C 0.5733(3) 1.1378(3) 0.27192(18)
H1 H 0.5515 1.0583 0.2792
C3 C 0.4734(3) 1.2546(3) 0.2596(2)
H2 H 0.3830 1.2550 0.2583
C4 C 0.5094(3) 1.3714(3) 0.24915(19)
H3 H 0.4436 1.4512 0.2413
C5 C 0.6454(3) 1.3668(3) 0.25067(15)
C6 C 0.6970(3) 1.4876(3) 0.23830(15)
C7 C 0.8247(3) 1.0206(3) 0.28601(16)
N2 N 1.1324(2) 0.1264(2) 0.36336(13)
O5 O 0.89235(19) 0.2934(2) 0.38445(11)
O6 O 0.9215(2) 0.3066(2) 0.50680(12)
O7 O 1.3975(2) -0.0673(2) 0.24560(12)
O8 O 1.21106(19) 0.0952(2) 0.21298(11)
C8 C 1.2506(3) 0.0360(3) 0.35012(16)
C9 C 1.3299(3) -0.0336(3) 0.41169(18)
H4 H 1.4094 -0.0988 0.4015
C10 C 1.2884(3) -0.0041(3) 0.48830(19)
H5 H 1.3405 -0.0480 0.5302
C11 C 1.1671(3) 0.0927(3) 0.50181(18)
H6 H 1.1376 0.1156 0.5524
C12 C 1.0915(3) 0.1538(3) 0.43763(16)
C13 C 0.9580(3) 0.2588(3) 0.44489(16)
C14 C 1.2913(3) 0.0174(3) 0.26265(17)
N3 N 1.1110(2) 0.3764(2) 0.12389(13)
O9 O 1.11110(19) 0.4015(2) 0.27142(11)
O10 O 1.2056(2) 0.5729(2) 0.22363(12)
O11 O 1.0541(2) 0.2061(2) -0.00762(12)
O12 O 0.97146(19) 0.2112(2) 0.12367(11)
C15 C 1.1188(3) 0.3492(3) 0.05126(16)
C16 C 1.1941(3) 0.4074(3) -0.01968(16)
H7 H 1.2004 0.3854 -0.0694
C17 C 1.2593(3) 0.4989(3) -0.01490(17)
H8 H 1.3094 0.5398 -0.0617
C18 C 1.2495(3) 0.5291(3) 0.06003(17)
H9 H 1.2914 0.5911 0.0644
C19 C 1.1755(3) 0.4642(3) 0.12817(16)
C20 C 1.1634(3) 0.4837(3) 0.21390(16)
C21 C 1.0426(3) 0.2479(3) 0.05450(16)
O13 O 0.9225(2) 0.5901(2) 0.36850(12)
D1 D 0.8363 0.6226 0.3697
D2 D 0.9361 0.5265 0.3445
O14 O 0.8825(2) 0.7080(2) 0.17604(11)
D3 D 0.9170 0.7159 0.1264
D4 D 0.8768 0.6261 0.1886
O15 O 1.2112(2) 0.4220(2) 0.41179(12)
D5 D 1.1866 0.4258 0.3682
D6 D 1.2550 0.4766 0.3987
O16 O 1.1327(2) 0.8103(2) 0.33122(12)
D7 D 1.0842 0.8930 0.3237
D8 D 1.1115 0.7808 0.3818
O17 O 1.0751(2) 0.9180(2) 0.13408(12)
D9 D 1.0681 0.9893 0.1499
D10 D 1.1607 0.8845 0.1319
O18 O 0.7864(2) 0.1096(2) 0.07107(13)
D11 D 0.7436 0.0533 0.0977
D12 D 0.7213 0.1652 0.0449
Na1A Na 0.99091(10) 0.25008(11) 0.74535(6)
Na1_2 Na 1.00909(10) -0.25008(11) 0.25465(6)
Na3_2 Na 1.0000 1.0000 0.0000
Na3_3 Na 1.0000 1.0000 1.0000
Na3_4 Na 1.0000 0.0000 1.0000
Tb1A Tb 1.007517(11) 0.747941(12) 0.749110(7)
Tb1_2 Tb 0.992483(11) 1.252059(12) 0.250890(7)
N1_2 N 0.7421(2) 0.2543(2) 0.26207(13)
N1A N 1.2579(2) 0.7457(2) 0.73793(13)
C1_2 C 0.7071(3) 0.1417(3) 0.27319(16)
O1_2 O 0.82894(19) 0.46713(19) 0.22588(11)
O1A O 1.17106(19) 0.53287(19) 0.77412(11)
O2_2 O 0.6124(2) 0.5946(2) 0.24029(12)
O3_2 O 0.8046(2) -0.0879(2) 0.29126(14)
O3A O 1.1954(2) 0.0879(2) 0.70874(14)
O4_2 O 0.93907(19) 0.0418(2) 0.29008(11)
O4A O 1.06093(19) 0.9582(2) 0.70992(11)
C2_2 C 0.5733(3) 0.1378(3) 0.27192(18)
H1_2 H 0.5515 0.0583 0.2792
C3_2 C 0.4734(3) 0.2546(3) 0.2596(2)
H2_2 H 0.3830 0.2550 0.2583
C4_2 C 0.5094(3) 0.3714(3) 0.24915(19)
H3_2 H 0.4436 0.4512 0.2413
C5_2 C 0.6454(3) 0.3668(3) 0.25067(15)
C6_2 C 0.6970(3) 0.4876(3) 0.23830(15)
C7_2 C 0.8247(3) 0.0206(3) 0.28601(16)
N2A N 0.8676(2) 0.8736(2) 0.63664(13)
O5A O 1.10765(19) 0.7066(2) 0.61555(11)
O6A O 1.0785(2) 0.6934(2) 0.49320(12)
O7A O 0.6025(2) 1.0673(2) 0.75440(12)
O8A O 0.78894(19) 0.9048(2) 0.78702(11)
C8A C 0.7494(3) 0.9640(3) 0.64988(16)
C9A C 0.6701(3) 1.0336(3) 0.58831(18)
H4A H 0.5906 1.0988 0.5985
C10A C 0.7116(3) 1.0041(3) 0.51170(19)
H5A H 0.6595 1.0480 0.4698
C11A C 0.8329(3) 0.9073(3) 0.49819(18)
H6A H 0.8624 0.8844 0.4476
C12A C 0.9085(3) 0.8462(3) 0.56237(16)
C13A C 1.0420(3) 0.7412(3) 0.55511(16)
C14A C 0.7087(3) 0.9826(3) 0.73735(17)
N3A N 0.8890(2) 0.6236(2) 0.87611(13)
O9A O 0.88890(19) 0.5985(2) 0.72858(11)
O10A O 0.7944(2) 0.4271(2) 0.77637(12)
O11A O 0.9459(2) 0.7939(2) 1.00762(12)
O11A_2 O 0.9459(2) -0.2061(2) 0.00762(12)
O12A O 1.02854(19) 0.7888(2) 0.87633(11)
C15A C 0.8812(3) 0.6508(3) 0.94874(16)
C16A C 0.8059(3) 0.5926(3) 1.01968(16)
H7A H 0.7996 0.6146 1.0694
C17A C 0.7407(3) 0.5011(3) 1.01490(17)
H8A H 0.6906 0.4602 1.0617
C18A C 0.7505(3) 0.4709(3) 0.93997(17)
H9A H 0.7086 0.4089 0.9356
C19A C 0.8245(3) 0.5358(3) 0.87183(16)
C20A C 0.8366(3) 0.5163(3) 0.78610(16)
C21A C 0.9574(3) 0.7521(3) 0.94550(16)
O13A O 1.0775(2) 0.4099(2) 0.63150(12)
D1A D 1.1637 0.3774 0.6303
D2A D 1.0639 0.4735 0.6555
O14A O 1.1175(2) 0.2920(2) 0.82396(11)
D3A D 1.0830 0.2841 0.8736
D4A D 1.1232 0.3739 0.8114
O15A O 0.7888(2) 0.5780(2) 0.58821(12)
D5A D 0.8134 0.5742 0.6318
D6A D 0.7450 0.5234 0.6013
O16A O 0.8673(2) 0.1897(2) 0.66878(12)
D7A D 0.9158 0.1070 0.6763
D8A D 0.8885 0.2192 0.6182
O17A O 0.9249(2) 0.0820(2) 0.86592(12)
O17A_2 O 0.9249(2) 0.0820(2) -0.13408(12)
O17_2 O 1.0751(2) -0.0820(2) 0.13408(12)
D9A D 0.9319 0.0107 0.8501
D9A_2 D 0.9319 0.0107 -0.1499
D9_2 D 1.0681 -0.0107 0.1499
D10A D 0.8393 0.1155 0.8681
D10A_2 D 0.8393 0.1155 -0.1319
D10_2 D 1.1607 -0.1155 0.1319
O18A O 1.2136(2) -0.1096(2) -0.07107(13)
D11A D 1.2564 -0.0533 -0.0977
D12A D 1.2787 -0.1652 -0.0449
O19 O 0.6249(2) 0.4165(3) 0.44563(17)
D13 D 0.7030 0.3918 0.4231
D14 D 0.6199 0.4077 0.5051
O20 O 0.4483(3) 0.2503(3) 0.47436(16)
D15 D 0.3769 0.2881 0.4516
D16 D 0.4991 0.2630 0.4317
O21 O 0.3764(2) 0.0887(3) 0.05946(14)
D17 D 0.3556 0.0853 0.0119
D18 D 0.3070 0.0963 0.1021
O22 O 0.3716(3) 0.6065(3) 0.37862(18)
D19 D 0.4357 0.6084 0.3392
D20 D 0.3514 0.5997 0.4333
O23 O 0.6456(3) 0.7053(3) 0.3718(2)
D21 D 0.6552 0.7458 0.3275
D22 D 0.6194 0.6090 0.4015
O24 O 0.5452(3) 0.2651(3) 0.0126(2)
D23 D 0.6157 0.2224 0.0361
D24 D 0.5096 0.2186 0.0113
O25 O 0.3659(3) 0.7175(3) 0.25900(18)
D25 D 0.3212 0.6487 0.3099
D26 D 0.4724 0.7162 0.2489
O26 O 0.3477(3) 0.7872(3) 0.1431(2)
D27 D 0.3780 0.8231 0.0997
D28 D 0.3339 0.6947 0.1956
O27 O 0.65154(18) 0.80220(18) 0.23838(10)
D29 D 0.5952 0.7498 0.2685
D30 D 0.6839 0.8142 0.2845
O28 O 0.6407(2) 0.9196(3) 0.10796(18)
D31 D 0.5703 0.9550 0.1039
D32 D 0.6648 0.8933 0.1478
loop_
_geom_bond_atom_site_label_1
_geom_bond_atom_site_label_2
_geom_bond_site_symmetry_1
_geom_bond_site_symmetry_2
Na1 O3 1_555 1_555
Na2 O6 1_555 1_555
Na3 O11 1_555 1_555
Tb1 N2 1_555 1_555
N1 C1 1_555 1_555
C1 C2 1_555 1_555
O1 C6 1_555 1_555
O2 C6 1_555 1_555
O3 C7 1_555 1_555
O4 C7 1_555 1_555
C2 H1 1_555 1_555
C3 C2 1_555 1_555
H2 C3 1_555 1_555
C4 C3 1_555 1_555
H3 C4 1_555 1_555
C5 N1 1_555 1_555
C6 C5 1_555 1_555
C7 C1 1_555 1_555
N2 C8 1_555 1_555
O5 Tb1 1_555 1_555
O6 C13 1_555 1_555
O7 C14 1_555 1_555
O8 Tb1 1_555 1_555
C8 C9 1_555 1_555
C9 H4 1_555 1_555
C10 C9 1_555 1_555
H5 C10 1_555 1_555
C11 C10 1_555 1_555
H6 C11 1_555 1_555
C12 N2 1_555 1_555
C13 O5 1_555 1_555
C14 O8 1_555 1_555
N3 Tb1 1_555 1_555
O9 Tb1 1_555 1_555
O10 Na1 1_555 1_555
O11 C21 1_555 1_555
O12 Tb1 1_555 1_555
C15 N3 1_555 1_555
C16 C15 1_555 1_555
H7 C16 1_555 1_555
C17 C16 1_555 1_555
H8 C17 1_555 1_555
C18 C17 1_555 1_555
H9 C18 1_555 1_555
C19 N3 1_555 1_555
C20 O9 1_555 1_555
C21 O12 1_555 1_555
O13 Na1 1_555 1_555
D1 O13 1_555 1_555
D2 O13 1_555 1_555
O14 Na1 1_555 1_555
D3 O14 1_555 1_555
D4 O14 1_555 1_555
O15 Na2 1_555 1_555
D5 O15 1_555 1_555
D6 O15 1_555 1_555
O16 Na1 1_555 1_555
D7 O16 1_555 1_555
D8 O16 1_555 1_555
O17 Na1 1_555 1_555
D9 O17 1_555 1_555
D10 O17 1_555 1_555
O18 Na3 1_555 1_555
D11 O18 1_555 1_555
D12 O18 1_555 1_555
O19 D13 1_555 1_555
D14 O19 1_555 1_555
O20 D15 1_555 1_555
D16 O20 1_555 1_555
O21 D17 1_555 1_555
D18 O21 1_555 1_555
O22 D19 1_555 1_555
D20 O22 1_555 1_555
O23 D21 1_555 1_555
D22 O23 1_555 1_555
O24 D23 1_555 1_555
D24 O24 1_555 1_555
O25 D25 1_555 1_555
D26 O25 1_555 1_555
O26 D27 1_555 1_555
D28 O26 1_555 1_555
O27 D29 1_555 1_555
D30 O27 1_555 1_555
O28 D31 1_555 1_555
D32 O28 1_555 1_555
Na1A O3A 1_555 1_555
Na1_2 O3_2 1_555 1_555
Na3_2 O17 1_555 1_555
Na3_3 O11A 1_555 1_555
Na3_4 O17A 1_555 1_555
Tb1A N1A 1_555 1_555
Tb1_2 N1 1_555 1_555
N1_2 Tb1 1_555 1_555
C1_2 N1_2 1_555 1_555
O1_2 Tb1 1_555 1_555
O1A Tb1A 1_555 1_555
O2_2 C6_2 1_555 1_555
O3_2 C7_2 1_555 1_555
O4_2 Tb1 1_555 1_555
O4A Tb1A 1_555 1_555
C2_2 C1_2 1_555 1_555
H1_2 C2_2 1_555 1_555
C3_2 C2_2 1_555 1_555
H2_2 C3_2 1_555 1_555
C4_2 C3_2 1_555 1_555
H3_2 C4_2 1_555 1_555
C5_2 N1_2 1_555 1_555
C6_2 O1_2 1_555 1_555
C7_2 C1_2 1_555 1_555
N2A Tb1A 1_555 1_555
O5A Tb1A 1_555 1_555
O6A Na2 1_555 1_555
O7A C14A 1_555 1_555
O8A Tb1A 1_555 1_555
C8A N2A 1_555 1_555
C9A C8A 1_555 1_555
H4A C9A 1_555 1_555
C10A C9A 1_555 1_555
H5A C10A 1_555 1_555
C11A C10A 1_555 1_555
H6A C11A 1_555 1_555
C12A N2A 1_555 1_555
C13A O5A 1_555 1_555
C14A O8A 1_555 1_555
N3A Tb1A 1_555 1_555
O9A Tb1A 1_555 1_555
O10A Na1A 1_555 1_555
O11A C21A 1_555 1_555
O11A_2 Na3 1_555 1_555
O12A Tb1A 1_555 1_555
C15A N3A 1_555 1_555
C16A C15A 1_555 1_555
H7A C16A 1_555 1_555
C17A C16A 1_555 1_555
H8A C17A 1_555 1_555
C18A C17A 1_555 1_555
H9A C18A 1_555 1_555
C19A N3A 1_555 1_555
C20A O9A 1_555 1_555
C21A O12A 1_555 1_555
O13A Na2 1_555 1_555
D1A O13A 1_555 1_555
D2A O13A 1_555 1_555
O14A Na1A 1_555 1_555
D3A O14A 1_555 1_555
D4A O14A 1_555 1_555
O15A Na2 1_555 1_555
D5A O15A 1_555 1_555
D6A O15A 1_555 1_555
O16A Na1A 1_555 1_555
D7A O16A 1_555 1_555
D8A O16A 1_555 1_555
O17A Na1A 1_555 1_555
O17A_2 Na3 1_555 1_555
O17_2 Na3 1_555 1_555
D9A O17A 1_555 1_555
D9A_2 O17A_2 1_555 1_555
D9_2 O17_2 1_555 1_555
D10A O17A 1_555 1_555
D10A_2 O17A_2 1_555 1_555
D10_2 O17_2 1_555 1_555
O18A Na3 1_555 1_555
D11A O18A 1_555 1_555
D12A O18A 1_555 1_555
Na2 O13 1_555 1_555
O1 Tb1_2 1_555 1_555
O4 Tb1_2 1_555 1_555
C4 C5 1_555 1_555
C8 C14 1_555 1_555
C11 C12 1_555 1_555
C12 C13 1_555 1_555
O10 C20 1_555 1_555
C15 C21 1_555 1_555
C18 C19 1_555 1_555
C19 C20 1_555 1_555
Na1A O13A 1_555 1_555
Na1_2 O17_2 1_555 1_555
O4_2 C7_2 1_555 1_555
C4_2 C5_2 1_555 1_555
C5_2 C6_2 1_555 1_555
O6A C13A 1_555 1_555
C8A C14A 1_555 1_555
C11A C12A 1_555 1_555
C12A C13A 1_555 1_555
O10A C20A 1_555 1_555
C15A C21A 1_555 1_555
C18A C19A 1_555 1_555
C19A C20A 1_555 1_555

#END
