
#######################################################################
#
#                 Cambridge Crystallographic Data Centre
#                                CCDC 
#
#######################################################################
#
# If this CIF has been generated from an entry in the Cambridge 
# Structural Database, then it will include bibliographic, chemical, 
# crystal, experimental, refinement or atomic coordinate data resulting 
# from the CCDC's data processing and validation procedures.
#
#######################################################################

data_HOYWOI
_symmetry_cell_setting           triclinic
_symmetry_space_group_name_H-M   'P -1'
_symmetry_Int_Tables_number      2
_space_group_name_Hall           '-P 1'
loop_
_symmetry_equiv_pos_site_id
_symmetry_equiv_pos_as_xyz
1 x,y,z
2 -x,-y,-z
_cell_length_a                   5.574(3)
_cell_length_b                   10.925(3)
_cell_length_c                   18.801(5)
_cell_angle_alpha                98.605(19)
_cell_angle_beta                 92.35(3)
_cell_angle_gamma                102.77(3)
_cell_volume                     1100.75
loop_
_atom_site_label
_atom_site_type_symbol
_atom_site_fract_x
_atom_site_fract_y
_atom_site_fract_z
S1 S -0.2118(3) 0.51677(16) -0.15157(8)
S2 S 0.6430(3) 0.02825(16) -0.09751(8)
Cl1 Cl -0.7209(4) 0.5875(2) -0.44216(10)
Cl2 Cl -0.8091(3) 0.74322(17) -0.29333(10)
Ca1 Ca 0.2484(3) 0.21803(13) 0.00759(7)
C1 C -0.4205(13) 0.4876(7) -0.3642(4)
H1 H -0.3937 0.4424 -0.4086
C2 C -0.5752(13) 0.5714(7) -0.3624(4)
C3 C -0.6162(13) 0.6380(6) -0.2973(4)
C4 C -0.4997(12) 0.6210(6) -0.2345(4)
H2 H -0.5234 0.6684 -0.1904
C5 C -0.3507(12) 0.5369(6) -0.2348(4)
C6 C -0.3053(12) 0.4699(6) -0.3011(3)
O1 O -0.3142(9) 0.5916(4) -0.0955(2)
O2 O 0.0516(8) 0.5632(5) -0.1546(3)
O3 O -0.2794(10) 0.3816(4) -0.1473(2)
N1 N -0.1453(10) 0.3868(5) -0.3031(3)
H3 H -0.0816 0.3708 -0.2634
N2 N -0.0937(10) 0.3333(5) -0.3670(3)
C7 C 0.0656(13) 0.2604(6) -0.3659(3)
C8 C 0.1870(13) 0.2282(6) -0.3035(4)
O4 O 0.1690(9) 0.2663(5) -0.2389(2)
N3 N 0.3288(11) 0.1487(6) -0.3335(3)
N4 N 0.3027(11) 0.1280(6) -0.4095(3)
C9 C 0.1483(14) 0.1923(7) -0.4290(4)
C10 C 0.0786(18) 0.1934(9) -0.5057(4)
H4 H 0.1143 0.2804 -0.5149
H5 H -0.0963 0.1559 -0.5162
H6 H 0.1721 0.1446 -0.5362
C11 C 0.4851(12) 0.0838(6) -0.2987(3)
C12 C 0.4912(12) 0.0885(6) -0.2243(3)
H7 H 0.3928 0.1338 -0.1965
C13 C 0.6425(12) 0.0263(6) -0.1919(3)
C14 C 0.7917(13) -0.0408(7) -0.2314(3)
H8 H 0.8967 -0.0817 -0.2084
C15 C 0.7813(14) -0.0456(7) -0.3058(4)
H9 H 0.8782 -0.0919 -0.3335
C16 C 0.6305(13) 0.0166(7) -0.3397(4)
H10 H 0.6264 0.0135 -0.3899
O5 O 0.4473(9) 0.0905(5) -0.0740(2)
O6 O 0.8868(9) 0.0938(5) -0.0652(2)
O7 O 0.5817(9) -0.1058(4) -0.0888(2)
O8 O 0.2142(10) 0.3491(5) -0.0816(3)
H11 H 0.288(7) 0.350(9) -0.1191(13)
H12 H 0.068(4) 0.343(10) -0.095(2)
O9 O -0.0541(10) 0.1782(5) 0.0942(3)
H13 H -0.117(8) 0.2372(16) 0.112(2)
H14 H -0.172(6) 0.115(3) 0.0842(14)
O10 O 0.6715(10) 0.3446(5) 0.0060(3)
H15 H 0.704(15) 0.412(3) 0.036(3)
H16 H 0.711(15) 0.366(6) -0.0331(17)
Ca1A Ca -0.2484(3) 0.78197(13) -0.00759(7)
Ca1_2 Ca 1.2484(3) 0.21803(13) 0.00759(7)
Ca1A_2 Ca 0.7516(3) -0.21803(13) -0.00759(7)
O1A O 0.3142(9) 0.4084(4) 0.0955(2)
O6_2 O -0.1132(9) 0.0938(5) -0.0652(2)
O7A O 0.4183(9) 0.1058(4) 0.0888(2)
loop_
_geom_bond_atom_site_label_1
_geom_bond_atom_site_label_2
_geom_bond_site_symmetry_1
_geom_bond_site_symmetry_2
S1 C5 1_555 1_555
S2 C13 1_555 1_555
Cl1 C2 1_555 1_555
Cl2 C3 1_555 1_555
Ca1 O5 1_555 1_555
C1 H1 1_555 1_555
C2 C1 1_555 1_555
C3 C2 1_555 1_555
C4 C3 1_555 1_555
H2 C4 1_555 1_555
C5 C4 1_555 1_555
C6 C1 1_555 1_555
O1 S1 1_555 1_555
O2 S1 1_555 1_555
O3 S1 1_555 1_555
N1 C6 1_555 1_555
H3 N1 1_555 1_555
N2 N1 1_555 1_555
C7 N2 1_555 1_555
C8 C7 1_555 1_555
O4 C8 1_555 1_555
N3 C8 1_555 1_555
N4 N3 1_555 1_555
C9 C7 1_555 1_555
C10 C9 1_555 1_555
H4 C10 1_555 1_555
H5 C10 1_555 1_555
H6 C10 1_555 1_555
C11 N3 1_555 1_555
C12 C11 1_555 1_555
H7 C12 1_555 1_555
C13 C12 1_555 1_555
C14 C13 1_555 1_555
H8 C14 1_555 1_555
C15 C14 1_555 1_555
H9 C15 1_555 1_555
C16 C11 1_555 1_555
H10 C16 1_555 1_555
O5 S2 1_555 1_555
O6 S2 1_555 1_555
O7 S2 1_555 1_555
O8 Ca1 1_555 1_555
H11 O8 1_555 1_555
H12 O8 1_555 1_555
O9 Ca1 1_555 1_555
H13 O9 1_555 1_555
H14 O9 1_555 1_555
O10 Ca1 1_555 1_555
H15 O10 1_555 1_555
H16 O10 1_555 1_555
Ca1A O1 1_555 1_555
Ca1_2 O6 1_555 1_555
Ca1A_2 O7 1_555 1_555
O1A Ca1 1_555 1_555
O6_2 Ca1 1_555 1_555
O7A Ca1 1_555 1_555
C5 C6 1_555 1_555
N4 C9 1_555 1_555
C15 C16 1_555 1_555

#END
