
#######################################################################
#
#                 Cambridge Crystallographic Data Centre
#                                CCDC 
#
#######################################################################
#
# If this CIF has been generated from an entry in the Cambridge 
# Structural Database, then it will include bibliographic, chemical, 
# crystal, experimental, refinement or atomic coordinate data resulting 
# from the CCDC's data processing and validation procedures.
#
#######################################################################

data_HOYWAV
_symmetry_cell_setting           monoclinic
_symmetry_space_group_name_H-M   'P 21'
_symmetry_Int_Tables_number      4
_space_group_name_Hall           'P 2yb'
loop_
_symmetry_equiv_pos_site_id
_symmetry_equiv_pos_as_xyz
1 x,y,z
2 -x,1/2+y,-z
_cell_length_a                   12.7195(19)
_cell_length_b                   9.7533(14)
_cell_length_c                   14.170(2)
_cell_angle_alpha                90
_cell_angle_beta                 115.087(9)
_cell_angle_gamma                90
_cell_volume                     1592.06
loop_
_atom_site_label
_atom_site_type_symbol
_atom_site_fract_x
_atom_site_fract_y
_atom_site_fract_z
Cu1 Cu 0.10077(4) 0.24686(6) 0.11605(4)
N1 N 0.0629(3) 0.2245(5) 0.2401(3)
H1 H 0.0873 0.1313 0.2661
N2 N 0.1689(3) 0.2274(4) 0.0117(3)
H2 H 0.2476 0.2654 0.0416
O1 O 0.5091(4) -0.1427(4) 0.3548(4)
H3 H 0.4805 -0.2197 0.3424
O2 O 0.2647(4) 0.5038(4) 0.3464(3)
O3 O 0.2102(3) 0.3832(3) 0.2007(3)
O4 O 0.0394(3) -0.1029(4) -0.0367(3)
O5 O 0.0179(3) 0.0798(4) 0.0485(3)
O6 O 0.6883(3) 0.2305(5) 0.0603(3)
H4 H 0.7056 0.1853 0.0203
C1 C 0.5901(4) 0.1776(6) 0.0630(5)
C2 C 0.5647(4) 0.2155(7) 0.1443(4)
H5 H 0.6131 0.2765 0.1943
C3 C 0.4678(4) 0.1639(6) 0.1526(4)
H6 H 0.4523 0.1897 0.2086
C4 C 0.3943(4) 0.0752(5) 0.0795(4)
C5 C 0.4199(4) 0.0388(6) -0.0029(4)
H7 H 0.371 -0.0211 -0.0535
C6 C 0.5165(4) 0.0897(6) -0.0113(4)
H8 H 0.5319 0.0645 -0.0674
C7 C 0.2864(4) 0.0192(5) 0.0860(4)
H9 H 0.288 0.0429 0.1531
H10 H 0.2861 -0.08 0.0809
C8 C 0.1756(4) 0.0764(4) -0.0009(3)
H11 H 0.1765 0.0574 -0.0684
C9 C 0.0686(4) 0.0108(5) 0.0021(3)
C10 C 0.0999(4) 0.2956(5) -0.0894(4)
H12 H 0.0903 0.3916 -0.0768
H13 H 0.0234 0.2544 -0.1207
C11 C 0.1546(4) 0.2860(4) -0.1655(4)
C12 C 0.2617(5) 0.3432(6) -0.1408(4)
H14 H 0.2994 0.3883 -0.0775
C13 C 0.3147(5) 0.3355(7) -0.2077(5)
H15 H 0.3871 0.3753 -0.1899
C14 C 0.2597(5) 0.2686(8) -0.3004(4)
H16 H 0.2957 0.2608 -0.3452
C15 C 0.1527(6) 0.2134(6) -0.3278(4)
H17 H 0.1145 0.1711 -0.3923
C16 C 0.0999(5) 0.2200(6) -0.2593(4)
H18 H 0.0277 0.1797 -0.2772
C17 C 0.4365(5) -0.0566(7) 0.3731(4)
C18 C 0.4739(5) 0.0760(7) 0.4015(4)
H19 H 0.5475 0.1022 0.4095
C19 C 0.4018(5) 0.1706(6) 0.4181(4)
H20 H 0.4282 0.2599 0.4367
C20 C 0.2920(5) 0.1360(6) 0.4079(4)
C21 C 0.2577(6) -0.0003(7) 0.3833(5)
H21 H 0.1861 -0.0279 0.3797
C22 C 0.3266(5) -0.0952(6) 0.3642(5)
H22 H 0.3003 -0.1845 0.3454
C23 C 0.2141(4) 0.2400(8) 0.4239(3)
H23 H 0.2617 0.3056 0.4761
H24 H 0.165 0.1939 0.4509
C24 C 0.1371(4) 0.3178(5) 0.3248(4)
H25 H 0.0854 0.3769 0.3421
C25 C 0.2090(4) 0.4103(5) 0.2885(4)
C26 C -0.0625(4) 0.2313(8) 0.2138(4)
H26 H -0.1016 0.1598 0.1634
H27 H -0.092 0.3186 0.1803
C27 C -0.0948(4) 0.2158(6) 0.3050(4)
C28 C -0.0871(6) 0.0914(8) 0.3531(5)
H28 H -0.0583 0.0154 0.3321
C29 C -0.1225(6) 0.0788(9) 0.4338(5)
H29 H -0.1173 -0.006 0.4655
C30 C -0.1642(7) 0.1881(12) 0.4666(6)
H30 H -0.1873 0.1789 0.5204
C31 C -0.1717(7) 0.3130(11) 0.4187(6)
H31 H -0.2007 0.3887 0.4399
C32 C -0.1362(5) 0.3266(8) 0.3383(5)
H32 H -0.1407 0.4117 0.3071
Cu1A Cu -0.10077(4) -0.25314(6) -0.11605(4)
O4A O -0.0394(3) 0.3971(4) 0.0367(3)
O7 O 0.4250(4) 0.6061(5) 0.2913(4)
H33 H 0.3808 0.5825 0.3167
C33 C 0.5113(6) 0.5060(8) 0.3122(6)
H34 H 0.5598 0.5303 0.2782
H35 H 0.4756 0.4188 0.2868
H36 H 0.5576 0.5004 0.386
O8 O 0.7606(5) 0.1047(8) 0.9327(4)
H37 H 0.721(6) 0.111(11) 0.876(6)
H38 H 0.833(6) 0.085(9) 0.950(6)
loop_
_geom_bond_atom_site_label_1
_geom_bond_atom_site_label_2
_geom_bond_site_symmetry_1
_geom_bond_site_symmetry_2
Cu1 N1 1_555 1_555
N1 H1 1_555 1_555
N2 Cu1 1_555 1_555
H2 N2 1_555 1_555
O1 H3 1_555 1_555
O2 C25 1_555 1_555
O3 Cu1 1_555 1_555
O4 C9 1_555 1_555
O5 Cu1 1_555 1_555
O6 H4 1_555 1_555
C1 O6 1_555 1_555
C2 C1 1_555 1_555
H5 C2 1_555 1_555
C3 C2 1_555 1_555
H6 C3 1_555 1_555
C4 C3 1_555 1_555
C5 C4 1_555 1_555
H7 C5 1_555 1_555
C6 C1 1_555 1_555
H8 C6 1_555 1_555
C7 C4 1_555 1_555
H9 C7 1_555 1_555
H10 C7 1_555 1_555
C8 N2 1_555 1_555
H11 C8 1_555 1_555
C9 O5 1_555 1_555
C10 N2 1_555 1_555
H12 C10 1_555 1_555
H13 C10 1_555 1_555
C11 C10 1_555 1_555
C12 C11 1_555 1_555
H14 C12 1_555 1_555
C13 C12 1_555 1_555
H15 C13 1_555 1_555
C14 C13 1_555 1_555
H16 C14 1_555 1_555
C15 C14 1_555 1_555
H17 C15 1_555 1_555
C16 C11 1_555 1_555
H18 C16 1_555 1_555
C17 O1 1_555 1_555
C18 C17 1_555 1_555
H19 C18 1_555 1_555
C19 C18 1_555 1_555
H20 C19 1_555 1_555
C20 C19 1_555 1_555
C21 C20 1_555 1_555
H21 C21 1_555 1_555
C22 C17 1_555 1_555
H22 C22 1_555 1_555
C23 C20 1_555 1_555
H23 C23 1_555 1_555
H24 C23 1_555 1_555
C24 N1 1_555 1_555
H25 C24 1_555 1_555
C25 O3 1_555 1_555
C26 N1 1_555 1_555
H26 C26 1_555 1_555
H27 C26 1_555 1_555
C27 C26 1_555 1_555
C28 C27 1_555 1_555
H28 C28 1_555 1_555
C29 C28 1_555 1_555
H29 C29 1_555 1_555
C30 C29 1_555 1_555
H30 C30 1_555 1_555
C31 C30 1_555 1_555
H31 C31 1_555 1_555
C32 C27 1_555 1_555
H32 C32 1_555 1_555
O7 H33 1_555 1_555
C33 O7 1_555 1_555
H34 C33 1_555 1_555
H35 C33 1_555 1_555
H36 C33 1_555 1_555
O8 H37 1_555 1_555
H38 O8 1_555 1_555
Cu1A O4 1_555 1_555
O4A Cu1 1_555 1_555
C5 C6 1_555 1_555
C7 C8 1_555 1_555
C8 C9 1_555 1_555
C15 C16 1_555 1_555
C21 C22 1_555 1_555
C23 C24 1_555 1_555
C24 C25 1_555 1_555
C31 C32 1_555 1_555

#END
