
#######################################################################
#
#                 Cambridge Crystallographic Data Centre
#                                CCDC 
#
#######################################################################
#
# If this CIF has been generated from an entry in the Cambridge 
# Structural Database, then it will include bibliographic, chemical, 
# crystal, experimental, refinement or atomic coordinate data resulting 
# from the CCDC's data processing and validation procedures.
#
#######################################################################

data_HOYWID
_symmetry_cell_setting           monoclinic
_symmetry_space_group_name_H-M   'P 21'
_symmetry_Int_Tables_number      4
_space_group_name_Hall           'P 2yb'
loop_
_symmetry_equiv_pos_site_id
_symmetry_equiv_pos_as_xyz
1 x,y,z
2 -x,1/2+y,-z
_cell_length_a                   10.2891(10)
_cell_length_b                   9.0692(9)
_cell_length_c                   14.9871(17)
_cell_angle_alpha                90
_cell_angle_beta                 91.668(7)
_cell_angle_gamma                90
_cell_volume                     1397.91
loop_
_atom_site_label
_atom_site_type_symbol
_atom_site_fract_x
_atom_site_fract_y
_atom_site_fract_z
Cu1 Cu 0.89882(7) 0.92744(7) 0.18734(5)
S1 S 0.8848(2) 0.8845(2) 0.42398(14)
S2 S 1.1361(2) 0.7072(2) 0.27844(15)
O1 O 0.8966(5) 0.5433(5) 0.0660(4)
O2 O 0.9394(4) 0.7724(4) 0.1047(3)
O3 O 0.2764(5) 0.5513(5) -0.0722(3)
H1 H 0.2179 0.6062 -0.0568
O4 O 0.8504(4) 1.0970(4) 0.2529(3)
O5 O 0.9136(5) 1.3204(5) 0.2933(3)
O6 O 1.6598(5) 1.2404(8) 0.3770(4)
H2 H 1.727(11) 1.222(12) 0.348(7)
N1 N 0.7474(5) 0.7947(5) 0.2144(3)
H3 H 0.6803 0.817 0.1686
N2 N 1.0648(5) 1.0355(5) 0.1692(3)
H4 H 1.0549 1.083 0.1107
C1 C 0.6825(6) 0.8139(6) 0.3025(4)
H5 H 0.658 0.9164 0.3095
H6 H 0.6038 0.755 0.3026
C2 C 0.7687(7) 0.7694(7) 0.3789(4)
C3 C 0.9361(9) 0.7557(13) 0.4990(5)
H7 H 1.0033 0.7708 0.5409
C4 C 0.8694(11) 0.6307(11) 0.4913(6)
H8 H 0.8856 0.549 0.5274
C5 C 0.7702(9) 0.6335(8) 0.4223(5)
H9 H 0.7146 0.5555 0.4083
C6 C 0.7916(6) 0.6422(6) 0.1951(4)
H10 H 0.8483 0.6143 0.246
C7 C 0.8798(6) 0.6497(7) 0.1154(4)
C8 C 0.6862(6) 0.5239(6) 0.1896(4)
H11 H 0.7284 0.4298 0.1801
H12 H 0.646 0.5189 0.2473
C9 C 0.5795(6) 0.5406(6) 0.1194(4)
C10 C 0.5910(6) 0.4816(7) 0.0344(4)
H13 H 0.6693 0.4389 0.0188
C11 C 0.4885(7) 0.4847(7) -0.0279(4)
H14 H 0.4983 0.4425 -0.0838
C12 C 0.3735(6) 0.5494(6) -0.0074(4)
C13 C 0.3584(7) 0.6085(6) 0.0768(4)
H15 H 0.28 0.6517 0.0918
C14 C 0.4611(6) 0.6028(6) 0.1386(4)
H16 H 0.4498 0.6422 0.1951
C15 C 0.9368(7) 1.2004(7) 0.2615(4)
C16 C 1.0735(6) 1.1579(6) 0.2353(4)
H17 H 1.1152 1.1157 0.2891
C17 C 1.1854(5) 0.9436(7) 0.1649(4)
H18 H 1.1744 0.8722 0.1172
H19 H 1.2578 1.0069 0.1504
C18 C 1.2178(6) 0.8639(6) 0.2497(4)
C19 C 1.2236(9) 0.6921(10) 0.3755(5)
H20 H 1.2119 0.617 0.4168
C20 C 1.3117(9) 0.8005(10) 0.3864(6)
H21 H 1.368 0.8088 0.4358
C21 C 1.3089(6) 0.8995(7) 0.3147(5)
H22 H 1.3634 0.981 0.3116
C22 C 1.1625(6) 1.2878(6) 0.2070(5)
H23 H 1.1695 1.2868 0.1426
H24 H 1.1221 1.3802 0.2234
C23 C 1.2981(7) 1.2807(6) 0.2498(5)
C24 C 1.4047(7) 1.2423(6) 0.2020(5)
H25 H 1.3951 1.2265 0.1408
C25 C 1.5269(7) 1.2264(7) 0.2431(5)
H26 H 1.5976 1.1983 0.2097
C26 C 1.5429(7) 1.2522(8) 0.3323(5)
C27 C 1.4367(8) 1.2926(9) 0.3806(5)
H27 H 1.4463 1.3114 0.4414
C28 C 1.3159(7) 1.3051(8) 0.3386(6)
H28 H 1.2448 1.3311 0.3721
Cu1A Cu 0.10118(7) 0.42744(7) -0.18734(5)
O3A O 0.7236(5) 1.0513(5) 0.0722(3)
O7 O 0.9156(5) 0.2445(4) 0.0486(3)
H29 H 0.913(8) 0.335(3) 0.063(5)
H30 H 0.952(7) 0.239(7) -0.002(3)
loop_
_geom_bond_atom_site_label_1
_geom_bond_atom_site_label_2
_geom_bond_site_symmetry_1
_geom_bond_site_symmetry_2
Cu1 O2 1_555 1_555
S1 C2 1_555 1_555
S2 C18 1_555 1_555
O1 C7 1_555 1_555
O2 C7 1_555 1_555
O3 H1 1_555 1_555
O4 Cu1 1_555 1_555
O5 C15 1_555 1_555
O6 H2 1_555 1_555
N1 Cu1 1_555 1_555
H3 N1 1_555 1_555
N2 Cu1 1_555 1_555
H4 N2 1_555 1_555
C1 N1 1_555 1_555
H5 C1 1_555 1_555
H6 C1 1_555 1_555
C2 C1 1_555 1_555
C3 S1 1_555 1_555
H7 C3 1_555 1_555
C4 C3 1_555 1_555
H8 C4 1_555 1_555
C5 C2 1_555 1_555
H9 C5 1_555 1_555
C6 N1 1_555 1_555
H10 C6 1_555 1_555
C7 C6 1_555 1_555
C8 C6 1_555 1_555
H11 C8 1_555 1_555
H12 C8 1_555 1_555
C9 C8 1_555 1_555
C10 C9 1_555 1_555
H13 C10 1_555 1_555
C11 C10 1_555 1_555
H14 C11 1_555 1_555
C12 O3 1_555 1_555
C13 C12 1_555 1_555
H15 C13 1_555 1_555
C14 C9 1_555 1_555
H16 C14 1_555 1_555
C15 O4 1_555 1_555
C16 N2 1_555 1_555
H17 C16 1_555 1_555
C17 N2 1_555 1_555
H18 C17 1_555 1_555
H19 C17 1_555 1_555
C18 C17 1_555 1_555
C19 S2 1_555 1_555
H20 C19 1_555 1_555
C20 C19 1_555 1_555
H21 C20 1_555 1_555
C21 C18 1_555 1_555
H22 C21 1_555 1_555
C22 C16 1_555 1_555
H23 C22 1_555 1_555
H24 C22 1_555 1_555
C23 C22 1_555 1_555
C24 C23 1_555 1_555
H25 C24 1_555 1_555
C25 C24 1_555 1_555
H26 C25 1_555 1_555
C26 O6 1_555 1_555
C27 C26 1_555 1_555
H27 C27 1_555 1_555
C28 C23 1_555 1_555
H28 C28 1_555 1_555
O7 H29 1_555 1_555
H30 O7 1_555 1_555
Cu1A O3 1_555 1_555
O3A Cu1 1_555 1_555
C4 C5 1_555 1_555
C11 C12 1_555 1_555
C13 C14 1_555 1_555
C15 C16 1_555 1_555
C20 C21 1_555 1_555
C25 C26 1_555 1_555
C27 C28 1_555 1_555

#END
