
#######################################################################
#
#                 Cambridge Crystallographic Data Centre
#                                CCDC 
#
#######################################################################
#
# If this CIF has been generated from an entry in the Cambridge 
# Structural Database, then it will include bibliographic, chemical, 
# crystal, experimental, refinement or atomic coordinate data resulting 
# from the CCDC's data processing and validation procedures.
#
#######################################################################

data_HOYWEZ
_symmetry_cell_setting           orthorhombic
_symmetry_space_group_name_H-M   'P 21 21 21'
_symmetry_Int_Tables_number      19
_space_group_name_Hall           'P 2ac 2ab'
loop_
_symmetry_equiv_pos_site_id
_symmetry_equiv_pos_as_xyz
1 x,y,z
2 1/2-x,-y,1/2+z
3 -x,1/2+y,1/2-z
4 1/2+x,1/2-y,-z
_cell_length_a                   9.2543(6)
_cell_length_b                   10.0380(8)
_cell_length_c                   23.8749(19)
_cell_angle_alpha                90
_cell_angle_beta                 90
_cell_angle_gamma                90
_cell_volume                     2217.85
loop_
_atom_site_label
_atom_site_type_symbol
_atom_site_fract_x
_atom_site_fract_y
_atom_site_fract_z
Cu1 Cu 0.54361(5) 0.89465(5) 0.98754(2)
O1 O 0.5267(4) 1.2514(3) 0.93756(16)
H1 H 0.5081 1.331 0.9347
O2 O 0.7243(3) 0.9921(3) 0.98475(14)
O3 O 0.8575(3) 1.1290(3) 0.93187(14)
O4 O 0.3561(3) 0.8019(3) 0.99014(14)
O5 O 0.3679(3) 1.0944(3) 1.02387(13)
H2 H 0.3875 1.174 1.0254
O6 O 0.1605(3) 0.7942(3) 1.04452(13)
N1 N 0.5090(3) 0.9706(4) 0.91086(15)
H3 H 0.4223 1.0261 0.9137
N2 N 0.5286(3) 0.8789(4) 1.07148(14)
H4 H 0.5826 0.9519 1.089
C1 C 0.4784(4) 0.8689(4) 0.86693(18)
H5 H 0.3959 0.8163 0.8787
H6 H 0.5607 0.8093 0.8643
C2 C 0.4479(5) 0.9249(4) 0.80957(18)
C3 C 0.5430(5) 0.9010(5) 0.76623(19)
H7 H 0.6247 0.8493 0.7726
C4 C 0.5180(5) 0.9530(5) 0.7133(2)
H8 H 0.5824 0.9353 0.6843
C5 C 0.3988(6) 1.0304(5) 0.7036(2)
H9 H 0.3831 1.0669 0.6683
C6 C 0.3024(5) 1.0540(5) 0.7462(2)
H10 H 0.2201 1.1047 0.7394
C7 C 0.3272(5) 1.0023(5) 0.7993(2)
H11 H 0.2622 1.02 0.8281
C8 C 0.6304(4) 1.0622(4) 0.89579(19)
H12 H 0.674 1.0294 0.861
C9 C 0.5786(5) 1.2028(5) 0.8855(2)
H13 H 0.6573 1.2579 0.872
H14 H 0.502 1.2033 0.8578
C10 C 0.7475(4) 1.0614(4) 0.9412(2)
C11 C 0.2889(4) 0.8250(4) 1.03561(19)
C12 C 0.3716(4) 0.8990(5) 1.08129(18)
H15 H 0.345 0.8635 1.1181
C13 C 0.5786(4) 0.7494(4) 1.09544(19)
H16 H 0.6771 0.7332 1.0833
H17 H 0.5188 0.6784 1.0805
C14 C 0.5735(4) 0.7441(4) 1.1585(2)
C15 C 0.6688(5) 0.8208(5) 1.1892(2)
H18 H 0.7364 0.8732 1.1706
C16 C 0.6652(6) 0.8207(5) 1.2473(2)
H19 H 0.73 0.8733 1.2673
C17 C 0.5669(6) 0.7438(5) 1.2754(2)
H20 H 0.5636 0.7446 1.3143
C18 C 0.4721(5) 0.6645(5) 1.2449(2)
H21 H 0.4053 0.6113 1.2635
C19 C 0.4769(5) 0.6646(5) 1.1868(2)
H22 H 0.4141 0.6103 1.1668
C20 C 0.3344(5) 1.0469(5) 1.0784(2)
H23 H 0.2325 1.0599 1.0861
H24 H 0.3897 1.0957 1.1061
Cu1C Cu 0.04361(5) 0.60535(5) 1.01246(2)
O6C O 0.6605(3) 0.7058(3) 0.95548(13)
O7 O 0.9366(3) 0.9848(3) 0.06541(15)
H25 H 0.994(4) 0.919(3) 0.0615(18)
H26 H 0.878(4) 0.985(4) 0.0378(13)
O8 O 0.6892(4) 0.1250(4) 0.11663(17)
H27 H 0.765(3) 0.090(4) 0.1027(18)
H28 H 0.679(4) 0.203(2) 0.1028(19)
O9 O 0.1658(3) 0.1134(5) 0.93054(15)
H29 H 0.0765(15) 0.098(5) 0.9347(16)
H30 H 0.207(4) 0.112(6) 0.9625(9)
loop_
_geom_bond_atom_site_label_1
_geom_bond_atom_site_label_2
_geom_bond_site_symmetry_1
_geom_bond_site_symmetry_2
Cu1 O2 1_555 1_555
O1 H1 1_555 1_555
O2 C10 1_555 1_555
O3 C10 1_555 1_555
O4 Cu1 1_555 1_555
O5 Cu1 1_555 1_555
H2 O5 1_555 1_555
O6 C11 1_555 1_555
N1 Cu1 1_555 1_555
H3 N1 1_555 1_555
N2 Cu1 1_555 1_555
H4 N2 1_555 1_555
C1 N1 1_555 1_555
H5 C1 1_555 1_555
H6 C1 1_555 1_555
C2 C1 1_555 1_555
C3 C2 1_555 1_555
H7 C3 1_555 1_555
C4 C3 1_555 1_555
H8 C4 1_555 1_555
C5 C4 1_555 1_555
H9 C5 1_555 1_555
C6 C5 1_555 1_555
H10 C6 1_555 1_555
C7 C2 1_555 1_555
H11 C7 1_555 1_555
C8 N1 1_555 1_555
H12 C8 1_555 1_555
C9 O1 1_555 1_555
H13 C9 1_555 1_555
H14 C9 1_555 1_555
C10 C8 1_555 1_555
C11 O4 1_555 1_555
C12 N2 1_555 1_555
H15 C12 1_555 1_555
C13 N2 1_555 1_555
H16 C13 1_555 1_555
H17 C13 1_555 1_555
C14 C13 1_555 1_555
C15 C14 1_555 1_555
H18 C15 1_555 1_555
C16 C15 1_555 1_555
H19 C16 1_555 1_555
C17 C16 1_555 1_555
H20 C17 1_555 1_555
C18 C17 1_555 1_555
H21 C18 1_555 1_555
C19 C14 1_555 1_555
H22 C19 1_555 1_555
C20 O5 1_555 1_555
H23 C20 1_555 1_555
H24 C20 1_555 1_555
O7 H25 1_555 1_555
H26 O7 1_555 1_555
O8 H27 1_555 1_555
H28 O8 1_555 1_555
O9 H29 1_555 1_555
H30 O9 1_555 1_555
Cu1C O6 1_555 1_555
O6C Cu1 1_555 1_555
C6 C7 1_555 1_555
C8 C9 1_555 1_555
C11 C12 1_555 1_555
C12 C20 1_555 1_555
C18 C19 1_555 1_555

#END
