
#######################################################################
#
#                 Cambridge Crystallographic Data Centre
#                                CCDC 
#
#######################################################################
#
# If this CIF has been generated from an entry in the Cambridge 
# Structural Database, then it will include bibliographic, chemical, 
# crystal, experimental, refinement or atomic coordinate data resulting 
# from the CCDC's data processing and validation procedures.
#
#######################################################################

data_HOYWUO
_symmetry_cell_setting           triclinic
_symmetry_space_group_name_H-M   'P -1'
_symmetry_Int_Tables_number      2
_space_group_name_Hall           '-P 1'
loop_
_symmetry_equiv_pos_site_id
_symmetry_equiv_pos_as_xyz
1 x,y,z
2 -x,-y,-z
_cell_length_a                   10.5951(10)
_cell_length_b                   11.4600(11)
_cell_length_c                   15.2829(15)
_cell_angle_alpha                82.876(8)
_cell_angle_beta                 70.639(8)
_cell_angle_gamma                70.015(7)
_cell_volume                     1645.16
loop_
_atom_site_label
_atom_site_type_symbol
_atom_site_fract_x
_atom_site_fract_y
_atom_site_fract_z
N1 N -0.26845(14) 0.52321(14) -0.42756(10)
H1 H -0.2661(19) 0.5107(19) -0.3707(15)
N2 N -0.17184(14) 0.45643(14) -0.49825(10)
C1 C -0.39273(16) 0.60759(16) -0.44166(11)
C2 C -0.49581(16) 0.68635(16) -0.37079(11)
S1 S -0.47683(4) 0.69244(4) -0.25964(3)
O1 O -0.39617(12) 0.56670(12) -0.24032(8)
O2 O -0.40658(13) 0.78252(13) -0.26744(9)
O3 O -0.62208(12) 0.73077(13) -0.19794(8)
C3 C -0.61877(17) 0.76729(17) -0.38689(12)
H2 H -0.6891 0.8206 -0.3390
C4 C -0.63899(17) 0.77033(17) -0.47270(12)
Cl1 Cl -0.79145(4) 0.87511(5) -0.49063(3)
C5 C -0.53773(17) 0.69197(17) -0.54184(12)
Cl2 Cl -0.56053(5) 0.69113(5) -0.64884(3)
C6 C -0.41518(17) 0.60997(17) -0.52721(12)
H3 H -0.3467 0.5556 -0.5751
C7 C -0.06163(16) 0.37090(17) -0.48345(11)
C8 C -0.02771(17) 0.33594(17) -0.39583(12)
O4 O -0.09618(12) 0.38050(13) -0.31894(8)
N3 N 0.09914(14) 0.24177(14) -0.42141(10)
N4 N 0.14755(14) 0.21486(14) -0.51728(10)
C9 C 0.05345(16) 0.29063(17) -0.55332(12)
C10 C 0.06731(18) 0.28886(19) -0.65316(12)
H4 H 0.1540 0.2234 -0.6842
H5 H 0.0714 0.3694 -0.6818
H6 H -0.0144 0.2726 -0.6593
C11 C 0.18796(16) 0.17756(16) -0.36660(11)
C12 C 0.13262(16) 0.17560(16) -0.27006(11)
H7 H 0.0356 0.2172 -0.2397
S2 S 0.16355(4) 0.11008(4) -0.09627(3)
C13 C 0.22376(16) 0.11085(16) -0.21931(11)
O5 O 0.22120(12) 0.19110(12) -0.06732(8)
O6 O 0.00945(11) 0.15370(12) -0.06778(8)
O7 O 0.22041(11) -0.01935(11) -0.06802(8)
C14 C 0.36536(16) 0.04914(17) -0.26241(12)
H8 H 0.4255 0.0050 -0.2266
C15 C 0.41820(16) 0.05256(17) -0.35825(12)
H9 H 0.5152 0.0106 -0.3883
C16 C 0.33037(17) 0.11698(17) -0.41111(12)
H10 H 0.3673 0.1196 -0.4768
Ca1 Ca -0.17752(3) 0.20399(3) 0.07347(2)
O8 O -0.03429(13) 0.10079(13) 0.16859(9)
C17 C 0.09423(19) 0.07563(19) 0.15362(13)
H11 H 0.1459 0.1050 0.0970
N5 N 0.16575(14) 0.01104(15) 0.21005(11)
C18 C 0.0976(2) -0.0369(2) 0.29849(15)
H12 H -0.0039 -0.0132 0.3077
H13 H 0.1378 -0.1276 0.2995
H14 H 0.1127 -0.0023 0.3483
C19 C 0.31730(19) -0.0117(2) 0.18680(16)
H15 H 0.3522 0.0228 0.1250
H16 H 0.3351 0.0282 0.2326
H17 H 0.3664 -0.1013 0.1872
O9 O -0.11137(13) 0.36783(12) 0.09164(9)
C20 C -0.00810(18) 0.39934(17) 0.08751(12)
H18 H 0.0778 0.3651 0.0397
N6 N -0.01013(14) 0.47698(14) 0.14508(10)
C21 C -0.13819(18) 0.53359(18) 0.21975(12)
H19 H -0.2006 0.4828 0.2337
H20 H -0.1135 0.5389 0.2752
H21 H -0.1867 0.6172 0.2006
C22 C 0.11161(19) 0.5183(2) 0.13095(13)
H22 H 0.1880 0.4778 0.0762
H23 H 0.0842 0.6086 0.1215
H24 H 0.1442 0.4963 0.1856
O10 O -0.30439(13) 0.31356(13) -0.02127(9)
C23 C -0.38507(17) 0.35479(18) -0.06896(13)
H25 H -0.3637 0.4127 -0.1170
N7 N -0.49802(14) 0.32389(14) -0.05763(10)
C24 C -0.5378(2) 0.2363(2) 0.01579(14)
H26 H -0.5914 0.2807 0.0743
H27 H -0.5963 0.1975 -0.0005
H28 H -0.4525 0.1720 0.0227
C25 C -0.59075(18) 0.38065(19) -0.11494(12)
H29 H -0.5490 0.4339 -0.1627
H30 H -0.6019 0.3154 -0.1447
H31 H -0.6834 0.4306 -0.0758
O3A O -0.37792(12) 0.26923(13) 0.19794(8)
O7A O -0.22041(11) 0.01935(11) 0.06802(8)
Ca1A Ca -0.82248(3) 0.79601(3) -0.07347(2)
Ca1A_2 Ca 0.17752(3) -0.20399(3) -0.07347(2)
loop_
_geom_bond_atom_site_label_1
_geom_bond_atom_site_label_2
_geom_bond_site_symmetry_1
_geom_bond_site_symmetry_2
N1 H1 1_555 1_555
N2 N1 1_555 1_555
C1 N1 1_555 1_555
C2 C1 1_555 1_555
S1 C2 1_555 1_555
O1 S1 1_555 1_555
O2 S1 1_555 1_555
O3 S1 1_555 1_555
C3 C2 1_555 1_555
H2 C3 1_555 1_555
C4 C3 1_555 1_555
Cl1 C4 1_555 1_555
C5 C4 1_555 1_555
Cl2 C5 1_555 1_555
C6 C1 1_555 1_555
H3 C6 1_555 1_555
C7 N2 1_555 1_555
C8 C7 1_555 1_555
O4 C8 1_555 1_555
N3 C8 1_555 1_555
N4 N3 1_555 1_555
C9 C7 1_555 1_555
C10 C9 1_555 1_555
H4 C10 1_555 1_555
H5 C10 1_555 1_555
H6 C10 1_555 1_555
C11 N3 1_555 1_555
C12 C11 1_555 1_555
H7 C12 1_555 1_555
S2 C13 1_555 1_555
C13 C12 1_555 1_555
O5 S2 1_555 1_555
O6 S2 1_555 1_555
O7 S2 1_555 1_555
C14 C13 1_555 1_555
H8 C14 1_555 1_555
C15 C14 1_555 1_555
H9 C15 1_555 1_555
C16 C11 1_555 1_555
H10 C16 1_555 1_555
Ca1 O6 1_555 1_555
O8 Ca1 1_555 1_555
C17 O8 1_555 1_555
H11 C17 1_555 1_555
N5 C17 1_555 1_555
C18 N5 1_555 1_555
H12 C18 1_555 1_555
H13 C18 1_555 1_555
H14 C18 1_555 1_555
C19 N5 1_555 1_555
H15 C19 1_555 1_555
H16 C19 1_555 1_555
H17 C19 1_555 1_555
O9 Ca1 1_555 1_555
C20 O9 1_555 1_555
H18 C20 1_555 1_555
N6 C20 1_555 1_555
C21 N6 1_555 1_555
H19 C21 1_555 1_555
H20 C21 1_555 1_555
H21 C21 1_555 1_555
C22 N6 1_555 1_555
H22 C22 1_555 1_555
H23 C22 1_555 1_555
H24 C22 1_555 1_555
O10 Ca1 1_555 1_555
C23 O10 1_555 1_555
H25 C23 1_555 1_555
N7 C23 1_555 1_555
C24 N7 1_555 1_555
H26 C24 1_555 1_555
H27 C24 1_555 1_555
H28 C24 1_555 1_555
C25 N7 1_555 1_555
H29 C25 1_555 1_555
H30 C25 1_555 1_555
H31 C25 1_555 1_555
O3A Ca1 1_555 1_555
O7A Ca1 1_555 1_555
Ca1A O3 1_555 1_555
Ca1A_2 O7 1_555 1_555
C5 C6 1_555 1_555
N4 C9 1_555 1_555
C15 C16 1_555 1_555

#END
