
#######################################################################
#
#                 Cambridge Crystallographic Data Centre
#                                CCDC 
#
#######################################################################
#
# If this CIF has been generated from an entry in the Cambridge 
# Structural Database, then it will include bibliographic, chemical, 
# crystal, experimental, refinement or atomic coordinate data resulting 
# from the CCDC's data processing and validation procedures.
#
#######################################################################

data_HOYZUS
_symmetry_cell_setting           monoclinic
_symmetry_space_group_name_H-M   'P 2/n'
_symmetry_Int_Tables_number      13
_space_group_name_Hall           '-P 2yac'
loop_
_symmetry_equiv_pos_site_id
_symmetry_equiv_pos_as_xyz
1 x,y,z
2 1/2-x,y,1/2-z
3 -x,-y,-z
4 1/2+x,-y,1/2+z
_cell_length_a                   12.800(5)
_cell_length_b                   8.333(5)
_cell_length_c                   14.046(5)
_cell_angle_alpha                90
_cell_angle_beta                 113.164(5)
_cell_angle_gamma                90
_cell_volume                     1377.4
loop_
_atom_site_label
_atom_site_type_symbol
_atom_site_fract_x
_atom_site_fract_y
_atom_site_fract_z
Cl1 Cl 0.7500 0.9348(3) 0.7500
O3 O 0.6547(4) 0.8416(6) 0.7431(6)
O4 O 0.7793(7) 1.0351(10) 0.8366(7)
O3A O 0.8453(4) 0.8416(6) 0.7569(6)
O4A O 0.7207(7) 1.0351(10) 0.6634(7)
Cl2 Cl 0.7500 0.5457(3) 0.2500
O5 O 0.7500 0.7129(8) 0.2500
O6 O 0.6510(9) 0.5199(14) 0.1356(8)
O7 O 0.8264(6) 0.4761(8) 0.2218(9)
O6A O 0.8490(9) 0.5199(14) 0.3644(8)
O7A O 0.6736(6) 0.4761(8) 0.2782(9)
O8 O 0.5392(4) 0.8247(6) -0.0047(3)
H10 H 0.5152 0.8901 0.0254
C9 C 0.6521(6) 0.8592(8) 0.0146(5)
H11 H 0.6742 0.9562 0.0544
H12 H 0.6604 0.8728 -0.0499
H13 H 0.6995 0.7724 0.0526
Cu1 Cu 0.5000 0.5000 0.5000
O1 O 0.9006(3) 0.2771(5) 1.0413(3)
N1 N 0.4920(4) 0.1130(5) 0.8060(3)
O2 O 0.8296(3) 0.5013(4) 0.9584(3)
N2 N 0.4211(4) -0.0044(6) 0.6374(4)
H1 H 0.3922 -0.0874 0.5998
C1 C 0.4417(5) 0.1257(7) 0.5925(4)
H2 H 0.4246 0.1277 0.5217
C2 C 0.8174(5) 0.3657(7) 0.9943(4)
N3 N 0.5662(4) 0.3779(5) 0.8046(4)
N4 N 0.5244(4) 0.4057(6) 0.6363(4)
C3 C 0.4447(5) -0.0108(7) 0.7424(4)
C4 C 0.5142(4) 0.2378(6) 0.7600(4)
C5 C 0.6036(5) 0.4204(7) 0.9152(4)
H3 H 0.6284 0.5314 0.9252
H4 H 0.5402 0.4095 0.9362
C6 C 0.7004(5) 0.3129(8) 0.9822(4)
H5 H 0.6871 0.2058 0.9527
H6 H 0.6985 0.3062 1.0504
N5 N 0.4192(4) -0.1432(6) 0.7800(4)
H7 H 0.4328 -0.1498 0.8450
H8 H 0.3889 -0.2228 0.7397
C7 C 0.4885(4) 0.2555(7) 0.6527(4)
C8 C 0.5691(5) 0.4736(7) 0.7262(5)
H9 H 0.6000 0.5763 0.7366
O1A O 0.5994(3) 0.2771(5) 0.4587(3)
N1A N 1.0080(4) 0.1130(5) 0.6940(3)
O2A O 0.6704(3) 0.5013(4) 0.5416(3)
N2A N 1.0789(4) -0.0044(6) 0.8626(4)
H1A H 1.1078 -0.0874 0.9002
C1A C 1.0583(5) 0.1257(7) 0.9075(4)
H2A H 1.0754 0.1277 0.9783
C2A C 0.6826(5) 0.3657(7) 0.5057(4)
N3A N 0.9338(4) 0.3779(5) 0.6954(4)
N4A N 0.9756(4) 0.4057(6) 0.8637(4)
C3A C 1.0553(5) -0.0108(7) 0.7576(4)
C4A C 0.9858(4) 0.2378(6) 0.7400(4)
C5A C 0.8964(5) 0.4204(7) 0.5848(4)
H3A H 0.8716 0.5314 0.5748
H4A H 0.9598 0.4095 0.5638
C6A C 0.7996(5) 0.3129(8) 0.5178(4)
H5A H 0.8129 0.2058 0.5473
H6A H 0.8015 0.3062 0.4496
N5A N 1.0808(4) -0.1432(6) 0.7200(4)
H7A H 1.0672 -0.1498 0.6550
H8A H 1.1111 -0.2228 0.7603
C7A C 1.0115(4) 0.2555(7) 0.8473(4)
C8A C 0.9309(5) 0.4736(7) 0.7738(5)
H9A H 0.9000 0.5763 0.7634
Cu1A Cu 1.0000 0.5000 1.0000
O1C O 0.4006(3) 0.7229(5) 0.5413(3)
O2C O 0.3296(3) 0.4987(4) 0.4584(3)
N4B N 0.4756(4) 0.5943(6) 0.3637(4)
loop_
_geom_bond_atom_site_label_1
_geom_bond_atom_site_label_2
_geom_bond_site_symmetry_1
_geom_bond_site_symmetry_2
Cu1 N4 1_555 1_555
O1 C2 1_555 1_555
N1 C3 1_555 1_555
O2 C2 1_555 1_555
N2 H1 1_555 1_555
C1 N2 1_555 1_555
H2 C1 1_555 1_555
C2 C6 1_555 1_555
N3 C4 1_555 1_555
N4 C7 1_555 1_555
C3 N2 1_555 1_555
C4 N1 1_555 1_555
C5 N3 1_555 1_555
H3 C5 1_555 1_555
H4 C5 1_555 1_555
C6 C5 1_555 1_555
H5 C6 1_555 1_555
H6 C6 1_555 1_555
N5 C3 1_555 1_555
H7 N5 1_555 1_555
H8 N5 1_555 1_555
C7 C1 1_555 1_555
C8 N3 1_555 1_555
H9 C8 1_555 1_555
Cl1 O3 1_555 1_555
O4 Cl1 1_555 1_555
Cl2 O5 1_555 1_555
O6 Cl2 1_555 1_555
O7 Cl2 1_555 1_555
O8 H10 1_555 1_555
C9 O8 1_555 1_555
H11 C9 1_555 1_555
H12 C9 1_555 1_555
H13 C9 1_555 1_555
O1A Cu1 1_555 1_555
N1A C3A 1_555 1_555
O2A Cu1 1_555 1_555
N2A H1A 1_555 1_555
C1A N2A 1_555 1_555
H2A C1A 1_555 1_555
C2A O1A 1_555 1_555
N3A C4A 1_555 1_555
N4A C7A 1_555 1_555
C3A N2A 1_555 1_555
C4A N1A 1_555 1_555
C5A N3A 1_555 1_555
H3A C5A 1_555 1_555
H4A C5A 1_555 1_555
C6A C2A 1_555 1_555
H5A C6A 1_555 1_555
H6A C6A 1_555 1_555
N5A C3A 1_555 1_555
H7A N5A 1_555 1_555
H8A N5A 1_555 1_555
C7A C1A 1_555 1_555
C8A N3A 1_555 1_555
H9A C8A 1_555 1_555
Cu1A O1 1_555 1_555
O1C Cu1 1_555 1_555
O2C Cu1 1_555 1_555
N4B Cu1 1_555 1_555
O3A Cl1 1_555 1_555
O4A Cl1 1_555 1_555
O6A Cl2 1_555 1_555
O7A Cl2 1_555 1_555
O2 Cu1A 1_555 1_555
N4 C8 1_555 1_555
C4 C7 1_555 1_555
O2A C2A 1_555 1_555
N4A C8A 1_555 1_555
N4A Cu1A 1_555 1_555
C4A C7A 1_555 1_555
C5A C6A 1_555 1_555

#END
