
#######################################################################
#
#                 Cambridge Crystallographic Data Centre
#                                CCDC 
#
#######################################################################
#
# If this CIF has been generated from an entry in the Cambridge 
# Structural Database, then it will include bibliographic, chemical, 
# crystal, experimental, refinement or atomic coordinate data resulting 
# from the CCDC's data processing and validation procedures.
#
#######################################################################

data_HOYZUQ
_symmetry_cell_setting           monoclinic
_symmetry_space_group_name_H-M   'P c'
_symmetry_Int_Tables_number      7
_space_group_name_Hall           'P -2yc'
loop_
_symmetry_equiv_pos_site_id
_symmetry_equiv_pos_as_xyz
1 x,y,z
2 x,-y,1/2+z
_cell_length_a                   7.940(1)
_cell_length_b                   9.691(2)
_cell_length_c                   18.539(3)
_cell_angle_alpha                90
_cell_angle_beta                 95.83(2)
_cell_angle_gamma                90
_cell_volume                     1419.13
loop_
_atom_site_label
_atom_site_type_symbol
_atom_site_fract_x
_atom_site_fract_y
_atom_site_fract_z
Cu1 Cu 1.564(2) 0.55557(6) -0.0069(8)
F1 F 1.948(2) 0.760(1) 0.1827(9)
F2 F 1.757(2) 0.8271(9) 0.2402(8)
F3 F 1.798(2) 0.622(1) 0.2309(9)
F4 F 1.321(3) 1.028(1) 0.095(1)
F5 F 1.146(2) 0.883(1) 0.050(1)
F6 F 1.274(2) 0.9931(9) -0.012(1)
F7 F 1.925(2) 0.147(1) -0.050(1)
F8 F 1.828(2) 0.1255(7) 0.046(1)
F9 F 1.728(2) 0.0300(7) -0.041(1)
F10 F 1.300(2) 0.382(1) -0.2323(9)
F11 F 1.150(2) 0.326(2) -0.157(1)
F12 F 1.292(2) 0.1876(8) -0.1975(9)
O1 O 1.719(2) 0.6308(5) 0.0834(8)
O2 O 1.419(2) 0.7439(5) -0.0020(9)
O3 O 1.423(2) 0.4742(5) -0.0947(8)
O4 O 1.724(2) 0.3698(4) -0.0055(8)
N1 N 1.420(2) 0.4633(4) 0.0608(8)
N2 N 0.714(2) 0.3488(5) 0.4271(9)
C1 C 1.482(2) 0.4006(7) 0.1206(9)
C2 C 1.382(2) 0.3414(8) 0.1676(8)
C3 C 1.207(2) 0.3445(7) 0.1552(9)
C4 C 1.145(2) 0.4116(9) 0.0936(9)
C5 C 1.249(2) 0.4692(8) 0.0493(9)
C6 C 1.090(2) 0.2771(9) 0.2038(9)
C7 C 1.167(2) 0.1903(89) 0.2618(9)
C8 C 1.038(2) 0.1084(7) 0.3022(9)
C9 C 0.925(2) 0.1987(6) 0.3422(9)
C10 C 0.987(2) 0.2805(9) 0.399(1)
C11 C 0.882(2) 0.3500(8) 0.4393(9)
C12 C 0.748(2) 0.1947(8) 0.3294(9)
C13 C 0.651(2) 0.2698(7) 0.3718(9)
C14 C 1.801(3) 0.730(2) 0.194(1)
C15 C 1.682(2) 0.7263(8) 0.1230(9)
C16 C 1.550(2) 0.8181(8) 0.1125(9)
C17 C 1.436(2) 0.8217(7) 0.0533(9)
C18 C 1.296(3) 0.9341(1) 0.049(1)
C19 C 1.785(3) 0.138(1) -0.019(1)
C20 C 1.680(2) 0.2638(7) -0.0402(9)
C21 C 1.545(2) 0.2495(7) -0.0929(9)
C22 C 1.429(2) 0.3510(8) -0.1160(9)
C23 C 1.292(2) 0.315(1) -0.175(1)
H1 H 1.6172 0.3967 0.1233
H2 H 1.4333 0.2944 0.2097
H3 H 1.0250 0.4177 0.0795
H4 H 1.1981 0.5171 0.0051
H5 H 1.0292 0.3485 0.2232
H6 H 1.0111 0.2219 0.1716
H7 H 1.2298 0.2470 0.2937
H8 H 1.2378 0.1262 0.2391
H9 H 0.9683 0.0545 0.2654
H10 H 1.0975 0.0486 0.3341
H11 H 1.1045 0.2900 0.4072
H12 H 0.9295 0.4028 0.4768
H13 H 0.6948 0.1397 0.2883
H14 H 0.5299 0.2652 0.3591
H15 H 1.543(6) 0.8844 0.1477
H16 H 1.5295 0.1638 -0.1186
N2A N 1.714(2) 0.6512(5) -0.0729(9)
Cu1A Cu 0.564(2) 0.44443(6) 0.4931(8)
loop_
_geom_bond_atom_site_label_1
_geom_bond_atom_site_label_2
_geom_bond_site_symmetry_1
_geom_bond_site_symmetry_2
Cu1 O1 1_555 1_555
F1 C14 1_555 1_555
F2 C14 1_555 1_555
F3 C14 1_555 1_555
F4 C18 1_555 1_555
F5 C18 1_555 1_555
F6 C18 1_555 1_555
F7 C19 1_555 1_555
F8 C19 1_555 1_555
F9 C19 1_555 1_555
F10 C23 1_555 1_555
F11 C23 1_555 1_555
F12 C23 1_555 1_555
O1 C15 1_555 1_555
O2 Cu1 1_555 1_555
O3 Cu1 1_555 1_555
O4 Cu1 1_555 1_555
N1 Cu1 1_555 1_555
N2 C11 1_555 1_555
C1 N1 1_555 1_555
C2 C1 1_555 1_555
C3 C2 1_555 1_555
C4 C3 1_555 1_555
C5 N1 1_555 1_555
C6 C3 1_555 1_555
C7 C6 1_555 1_555
C8 C7 1_555 1_555
C9 C8 1_555 1_555
C10 C9 1_555 1_555
C11 C10 1_555 1_555
C12 C9 1_555 1_555
C13 N2 1_555 1_555
C14 C15 1_555 1_555
C15 C16 1_555 1_555
C16 C17 1_555 1_555
C17 O2 1_555 1_555
C18 C17 1_555 1_555
C19 C20 1_555 1_555
C20 O4 1_555 1_555
C21 C20 1_555 1_555
C22 O3 1_555 1_555
C23 C22 1_555 1_555
H1 C1 1_555 1_555
H2 C2 1_555 1_555
H3 C4 1_555 1_555
H4 C5 1_555 1_555
H5 C6 1_555 1_555
H6 C6 1_555 1_555
H7 C7 1_555 1_555
H8 C7 1_555 1_555
H9 C8 1_555 1_555
H10 C8 1_555 1_555
H11 C10 1_555 1_555
H12 C11 1_555 1_555
H13 C12 1_555 1_555
H14 C13 1_555 1_555
H15 C16 1_555 1_555
H16 C21 1_555 1_555
N2A Cu1 1_555 1_555
Cu1A N2 1_555 1_555
C4 C5 1_555 1_555
C12 C13 1_555 1_555
C21 C22 1_555 1_555

#END
