
#######################################################################
#
#                 Cambridge Crystallographic Data Centre
#                                CCDC 
#
#######################################################################
#
# If this CIF has been generated from an entry in the Cambridge 
# Structural Database, then it will include bibliographic, chemical, 
# crystal, experimental, refinement or atomic coordinate data resulting 
# from the CCDC's data processing and validation procedures.
#
#######################################################################

data_HOZBAB
_symmetry_cell_setting           triclinic
_symmetry_space_group_name_H-M   'P -1'
_symmetry_Int_Tables_number      2
_space_group_name_Hall           '-P 1'
loop_
_symmetry_equiv_pos_site_id
_symmetry_equiv_pos_as_xyz
1 x,y,z
2 -x,-y,-z
_cell_length_a                   7.1207(10)
_cell_length_b                   13.2355(19)
_cell_length_c                   14.725(2)
_cell_angle_alpha                98.846(3)
_cell_angle_beta                 101.901(3)
_cell_angle_gamma                94.406(2)
_cell_volume                     1333.31
loop_
_atom_site_label
_atom_site_type_symbol
_atom_site_fract_x
_atom_site_fract_y
_atom_site_fract_z
Co1 Co 0.5000 0.5000 0.0000
Co2 Co 0.5000 0.0000 0.5000
O1 O 0.7667(4) 0.5927(2) 0.02024(18)
H1 H 0.7885 0.6328 0.0731
H2 H 0.7614 0.6280 -0.0236
O2 O 0.6380(4) 0.3789(2) 0.94214(18)
O3 O 0.5126(3) 0.09327(19) 0.39707(16)
O4 O 0.7888(4) -0.0260(2) 0.52132(19)
H3 H 0.8430 -0.0066 0.5792
H4 H 0.8450 0.0078 0.4880
N1 N 0.5004(4) 0.3877(2) 0.5513(2)
O5 O 0.8289(4) 0.1391(2) 0.41333(18)
N2 N 0.5964(4) 0.4606(2) 0.1360(2)
O6 O 0.4356(5) 0.2390(2) 0.9354(2)
C1 C 0.7449(5) 0.6296(3) 0.2465(2)
H5 H 0.7010 0.6736 0.2052
N3 N 0.8532(4) 0.6679(2) 0.3325(2)
N4 N 0.8794(4) 0.4971(2) 0.37127(19)
N5 N 0.7170(4) 0.3629(2) 0.2410(2)
C2 C 0.6119(5) 0.3670(3) 0.1533(2)
H6 H 0.5560 0.3085 0.1097
N6 N 0.5709(4) 0.1296(2) 0.6128(2)
C3 C 0.4716(5) 0.2855(3) 0.5390(2)
H7 H 0.3874 0.2488 0.4851
N7 N 0.7093(4) 0.3968(2) 0.7062(2)
N8 N 0.7427(4) 0.2262(2) 0.7475(2)
C4 C 0.8654(6) 0.2491(3) 0.8432(2)
H8 H 0.9083 0.3223 0.8593
H9 H 0.9789 0.2127 0.8448
N9 N 1.0210(5) 0.6425(2) 0.4777(2)
H10 H 1.0633 0.6035 0.5171
H11 H 1.0466 0.7082 0.4932
C5 C 0.5961(6) 0.2830(3) 0.9311(2)
C6 C 0.7581(7) 0.2177(3) 0.9162(3)
H12 H 0.7040 0.1463 0.8961
H13 H 0.8498 0.2229 0.9758
C7 C 0.6989(5) 0.5245(3) 0.2192(2)
C8 C 0.9148(5) 0.6008(3) 0.3916(2)
C9 C 0.7742(5) 0.4638(3) 0.2848(2)
C10 C 0.7651(5) 0.2705(3) 0.2805(2)
H14 H 0.8821 0.2873 0.3297
H15 H 0.7892 0.2184 0.2316
C11 C 0.6021(6) 0.2281(3) 0.3212(3)
H16 H 0.5594 0.2846 0.3591
H17 H 0.4941 0.1988 0.2696
C12 C 0.6553(5) 0.1468(3) 0.3812(2)
C13 C 0.5675(5) 0.2335(3) 0.6067(2)
C14 C 0.6216(5) 0.4392(3) 0.6315(3)
C15 C 0.6766(5) 0.2943(3) 0.6895(2)
C16 C 0.6770(5) 0.1297(3) 0.6972(3)
H18 H 0.7049 0.0698 0.7205
N10 N 0.6506(5) 0.5419(2) 0.6374(2)
H19 H 0.5938 0.5705 0.5921
H20 H 0.7257 0.5790 0.6864
O2A O 0.3620(4) -0.3789(2) 0.05786(18)
O3A O 0.4874(3) -0.09327(19) 0.60293(16)
O4A O 0.2112(4) 0.0260(2) 0.47868(19)
H3A H 0.1570 0.0066 0.4208
H4A H 0.1550 -0.0078 0.5120
N1A N 0.4996(4) -0.3877(2) 0.4487(2)
O5A O 0.1711(4) -0.1391(2) 0.58667(18)
N2A N 0.4036(4) -0.4606(2) 0.8640(2)
O6A O 0.5644(5) -0.2390(2) 0.0646(2)
C1A C 0.2551(5) -0.6296(3) 0.7535(2)
H5A H 0.2990 -0.6736 0.7948
N3A N 0.1468(4) -0.6679(2) 0.6675(2)
N4A N 0.1206(4) -0.4971(2) 0.62873(19)
N5A N 0.2830(4) -0.3629(2) 0.7590(2)
C2A C 0.3881(5) -0.3670(3) 0.8467(2)
H6A H 0.4440 -0.3085 0.8903
N6A N 0.4291(4) -0.1296(2) 0.3872(2)
C3A C 0.5284(5) -0.2855(3) 0.4610(2)
H7A H 0.6126 -0.2488 0.5149
N7A N 0.2907(4) -0.3968(2) 0.2938(2)
N8A N 0.2573(4) -0.2262(2) 0.2525(2)
C4A C 0.1346(6) -0.2491(3) 0.1568(2)
H8A H 0.0917 -0.3223 0.1407
H9A H 0.0211 -0.2127 0.1552
N9A N -0.0210(5) -0.6425(2) 0.5223(2)
H10A H -0.0633 -0.6035 0.4829
H11A H -0.0466 -0.7082 0.5068
C5A C 0.4039(6) -0.2830(3) 0.0689(2)
C6A C 0.2419(7) -0.2177(3) 0.0838(3)
H12A H 0.2960 -0.1463 0.1039
H13A H 0.1502 -0.2229 0.0242
C7A C 0.3011(5) -0.5245(3) 0.7808(2)
C8A C 0.0852(5) -0.6008(3) 0.6084(2)
C9A C 0.2258(5) -0.4638(3) 0.7152(2)
C10A C 0.2349(5) -0.2705(3) 0.7195(2)
H14A H 0.1179 -0.2873 0.6703
H15A H 0.2108 -0.2184 0.7684
C11A C 0.3979(6) -0.2281(3) 0.6788(3)
H16A H 0.4406 -0.2846 0.6409
H17A H 0.5059 -0.1988 0.7304
C12A C 0.3447(5) -0.1468(3) 0.6188(2)
C13A C 0.4325(5) -0.2335(3) 0.3933(2)
C14A C 0.3784(5) -0.4392(3) 0.3685(3)
C15A C 0.3234(5) -0.2943(3) 0.3105(2)
C16A C 0.3230(5) -0.1297(3) 0.3028(3)
H18A H 0.2951 -0.0698 0.2795
N10A N 0.3494(5) -0.5419(2) 0.3626(2)
H19A H 0.4062 -0.5705 0.4079
H20A H 0.2743 -0.5790 0.3136
O1A O 0.2333(4) 0.4073(2) -0.02024(18)
H1A H 0.2115 0.3672 -0.0731
H2A H 0.2386 0.3720 0.0236
Co1_2 Co 0.5000 -0.5000 0.0000
Co1_3 Co 0.5000 -0.5000 1.0000
Co1_4 Co 0.5000 0.5000 1.0000
O2_2 O 0.6380(4) 0.3789(2) -0.05786(18)
O2A_2 O 0.3620(4) 0.6211(2) 0.05786(18)
N2A_2 N 0.4036(4) 0.5394(2) -0.1360(2)
loop_
_geom_bond_atom_site_label_1
_geom_bond_atom_site_label_2
_geom_bond_site_symmetry_1
_geom_bond_site_symmetry_2
Co1 O1 1_555 1_555
Co2 O3 1_555 1_555
O1 H1 1_555 1_555
H2 O1 1_555 1_555
O2 C5 1_555 1_555
O3 C12 1_555 1_555
O4 Co2 1_555 1_555
H3 O4 1_555 1_555
H4 O4 1_555 1_555
N1 C3 1_555 1_555
O5 C12 1_555 1_555
N2 Co1 1_555 1_555
O6 C5 1_555 1_555
C1 H5 1_555 1_555
N3 C1 1_555 1_555
N4 C8 1_555 1_555
N5 C2 1_555 1_555
C2 N2 1_555 1_555
H6 C2 1_555 1_555
N6 Co2 1_555 1_555
C3 H7 1_555 1_555
N7 C14 1_555 1_555
N8 C4 1_555 1_555
C4 H8 1_555 1_555
H9 C4 1_555 1_555
N9 H10 1_555 1_555
H11 N9 1_555 1_555
C5 C6 1_555 1_555
C6 C4 1_555 1_555
H12 C6 1_555 1_555
H13 C6 1_555 1_555
C7 N2 1_555 1_555
C8 N3 1_555 1_555
C9 N4 1_555 1_555
C10 N5 1_555 1_555
H14 C10 1_555 1_555
H15 C10 1_555 1_555
C11 C10 1_555 1_555
H16 C11 1_555 1_555
H17 C11 1_555 1_555
C12 C11 1_555 1_555
C13 N6 1_555 1_555
C14 N1 1_555 1_555
C15 N7 1_555 1_555
C16 N6 1_555 1_555
H18 C16 1_555 1_555
N10 C14 1_555 1_555
H19 N10 1_555 1_555
H20 N10 1_555 1_555
O2A C5A 1_555 1_555
O3A Co2 1_555 1_555
O4A Co2 1_555 1_555
H3A O4A 1_555 1_555
H4A O4A 1_555 1_555
N1A C3A 1_555 1_555
O5A C12A 1_555 1_555
N2A C2A 1_555 1_555
O6A C5A 1_555 1_555
C1A H5A 1_555 1_555
N3A C1A 1_555 1_555
N4A C8A 1_555 1_555
N5A C2A 1_555 1_555
C2A H6A 1_555 1_555
N6A Co2 1_555 1_555
C3A H7A 1_555 1_555
N7A C14A 1_555 1_555
N8A C4A 1_555 1_555
C4A H8A 1_555 1_555
H9A C4A 1_555 1_555
N9A H10A 1_555 1_555
H11A N9A 1_555 1_555
C5A C6A 1_555 1_555
C6A C4A 1_555 1_555
H12A C6A 1_555 1_555
H13A C6A 1_555 1_555
C7A N2A 1_555 1_555
C8A N3A 1_555 1_555
C9A N4A 1_555 1_555
C10A N5A 1_555 1_555
H14A C10A 1_555 1_555
H15A C10A 1_555 1_555
C11A C10A 1_555 1_555
H16A C11A 1_555 1_555
H17A C11A 1_555 1_555
C12A O3A 1_555 1_555
C13A N6A 1_555 1_555
C14A N1A 1_555 1_555
C15A N7A 1_555 1_555
C16A N6A 1_555 1_555
H18A C16A 1_555 1_555
N10A C14A 1_555 1_555
H19A N10A 1_555 1_555
H20A N10A 1_555 1_555
O1A Co1 1_555 1_555
H1A O1A 1_555 1_555
H2A O1A 1_555 1_555
Co1_2 O2A 1_555 1_555
Co1_3 N2A 1_555 1_555
Co1_4 O2 1_555 1_555
O2_2 Co1 1_555 1_555
O2A_2 Co1 1_555 1_555
N2A_2 Co1 1_555 1_555
C1 C7 1_555 1_555
N5 C9 1_555 1_555
C3 C13 1_555 1_555
N8 C15 1_555 1_555
N8 C16 1_555 1_555
N9 C8 1_555 1_555
C7 C9 1_555 1_555
C13 C15 1_555 1_555
C1A C7A 1_555 1_555
N5A C9A 1_555 1_555
C3A C13A 1_555 1_555
N8A C15A 1_555 1_555
N8A C16A 1_555 1_555
N9A C8A 1_555 1_555
C7A C9A 1_555 1_555
C11A C12A 1_555 1_555
C13A C15A 1_555 1_555

#END
