
#######################################################################
#
#                 Cambridge Crystallographic Data Centre
#                                CCDC 
#
#######################################################################
#
# If this CIF has been generated from an entry in the Cambridge 
# Structural Database, then it will include bibliographic, chemical, 
# crystal, experimental, refinement or atomic coordinate data resulting 
# from the CCDC's data processing and validation procedures.
#
#######################################################################

data_HOZBIJ
_symmetry_cell_setting           triclinic
_symmetry_space_group_name_H-M   'P -1'
_symmetry_Int_Tables_number      2
_space_group_name_Hall           '-P 1'
loop_
_symmetry_equiv_pos_site_id
_symmetry_equiv_pos_as_xyz
1 x,y,z
2 -x,-y,-z
_cell_length_a                   7.2795(18)
_cell_length_b                   9.856(3)
_cell_length_c                   10.962(3)
_cell_angle_alpha                82.736(4)
_cell_angle_beta                 81.059(4)
_cell_angle_gamma                78.575(4)
_cell_volume                     757.811
loop_
_atom_site_label
_atom_site_type_symbol
_atom_site_fract_x
_atom_site_fract_y
_atom_site_fract_z
Cd1 Cd 1.5000 1.0000 0.0000
Cd2 Cd 1.0000 1.0000 0.0000
Cl1 Cl 1.1887(9) 1.1154(7) 0.1301(6)
N1 N 0.760(3) 0.916(3) 0.471(2)
N2 N 0.780(3) 0.675(3) 0.455(2)
O1 O 0.434(3) 0.468(2) 0.1639(19)
H1 H 0.3962 0.4858 0.0959
O2 O 0.709(3) 0.502(2) 0.0505(19)
C1 C 0.886(4) 0.835(3) 0.281(3)
C2 C 0.838(4) 0.944(3) 0.352(2)
H2 H 0.8572 1.0324 0.3200
N3 N 0.910(3) 0.614(2) 0.250(2)
C3 C 0.697(4) 0.442(3) 0.272(3)
H3 H 0.6919 0.3454 0.3022
H4 H 0.6161 0.4994 0.3316
C4 C 0.617(4) 0.473(3) 0.151(3)
O3 O 1.476(3) 1.189(2) -0.152(2)
H5 H 1.3696 1.2423 -0.1366
H6 H 1.4839 1.1594 -0.2224
N4 N 0.966(3) 0.822(2) 0.158(2)
C5 C 0.734(4) 0.784(3) 0.519(3)
C6 C 0.853(4) 0.703(3) 0.338(3)
C7 C 0.899(4) 0.464(3) 0.266(3)
H7 H 0.9486 0.4216 0.3412
H8 H 0.9769 0.4195 0.1966
C8 C 0.974(4) 0.689(3) 0.144(3)
H9 H 1.0198 0.6512 0.0698
Cl2 Cl 1.3156(9) 0.8537(7) -0.0990(6)
N5 N 0.657(4) 0.771(3) 0.638(2)
H10 H 0.6380 0.6904 0.6729
H11 H 0.6272 0.8418 0.6797
H12 H 0.72(6) 0.98(4) 0.52(4)
Cl1A Cl 0.8113(9) 0.8846(7) -0.1301(6)
N1A N 1.240(3) 1.084(3) -0.471(2)
N2A N 1.220(3) 1.325(3) -0.455(2)
O1A O 1.566(3) 1.532(2) -0.1639(19)
H1A H 1.6038 1.5142 -0.0959
O2A O 1.291(3) 1.498(2) -0.0505(19)
C1A C 1.114(4) 1.165(3) -0.281(3)
C2A C 1.162(4) 1.056(3) -0.352(2)
H2A H 1.1428 0.9676 -0.3200
N3A N 1.090(3) 1.386(2) -0.250(2)
C3A C 1.303(4) 1.558(3) -0.272(3)
H3A H 1.3081 1.6546 -0.3022
H4A H 1.3839 1.5006 -0.3316
C4A C 1.383(4) 1.527(3) -0.151(3)
N4A N 1.034(3) 1.178(2) -0.158(2)
C5A C 1.266(4) 1.216(3) -0.519(3)
C6A C 1.147(4) 1.297(3) -0.338(3)
C7A C 1.101(4) 1.536(3) -0.266(3)
H7A H 1.0514 1.5784 -0.3412
H8A H 1.0231 1.5805 -0.1966
C8A C 1.026(4) 1.311(3) -0.144(3)
H9A H 0.9802 1.3488 -0.0698
Cl2A Cl 0.6844(9) 1.1463(7) 0.0990(6)
N5A N 1.343(4) 1.229(3) -0.638(2)
H10A H 1.3620 1.3096 -0.6729
H11A H 1.3728 1.1582 -0.6797
H12A H 1.28(6) 1.02(4) -0.52(4)
O3A O 1.524(3) 0.811(2) 0.152(2)
H5A H 1.6304 0.7577 0.1366
H6A H 1.5161 0.8406 0.2224
Cd1_2 Cd 0.5000 1.0000 0.0000
Cl1A_2 Cl 1.8113(9) 0.8846(7) -0.1301(6)
Cl2A_2 Cl 1.6844(9) 1.1463(7) 0.0990(6)
O4 O 0.625(3) 0.131(2) 0.614(2)
O5 O 0.712(3) 0.325(2) 0.633(2)
O6 O 0.842(3) 0.207(2) 0.4790(19)
N6 N 0.729(3) 0.224(2) 0.574(2)
loop_
_geom_bond_atom_site_label_1
_geom_bond_atom_site_label_2
_geom_bond_site_symmetry_1
_geom_bond_site_symmetry_2
Cd1 Cl1 1_555 1_555
Cd2 Cl1 1_555 1_555
N1 C2 1_555 1_555
N2 C5 1_555 1_555
O1 H1 1_555 1_555
O2 C4 1_555 1_555
C1 C2 1_555 1_555
C2 H2 1_555 1_555
N3 C6 1_555 1_555
C3 H3 1_555 1_555
H4 C3 1_555 1_555
C4 O1 1_555 1_555
O3 Cd1 1_555 1_555
H5 O3 1_555 1_555
H6 O3 1_555 1_555
N4 Cd2 1_555 1_555
C5 N1 1_555 1_555
C6 N2 1_555 1_555
C7 N3 1_555 1_555
H7 C7 1_555 1_555
H8 C7 1_555 1_555
C8 N3 1_555 1_555
H9 C8 1_555 1_555
Cl2 Cd1 1_555 1_555
N5 C5 1_555 1_555
H10 N5 1_555 1_555
H11 N5 1_555 1_555
H12 N1 1_555 1_555
O4 N6 1_555 1_555
O5 N6 1_555 1_555
O6 N6 1_555 1_555
Cl1A Cd2 1_555 1_555
N1A C2A 1_555 1_555
N2A C5A 1_555 1_555
O1A H1A 1_555 1_555
O2A C4A 1_555 1_555
C1A C2A 1_555 1_555
C2A H2A 1_555 1_555
N3A C6A 1_555 1_555
C3A H3A 1_555 1_555
H4A C3A 1_555 1_555
C4A O1A 1_555 1_555
N4A Cd2 1_555 1_555
C5A N1A 1_555 1_555
C6A N2A 1_555 1_555
C7A N3A 1_555 1_555
H7A C7A 1_555 1_555
H8A C7A 1_555 1_555
C8A N3A 1_555 1_555
H9A C8A 1_555 1_555
Cl2A Cd2 1_555 1_555
N5A C5A 1_555 1_555
H10A N5A 1_555 1_555
H11A N5A 1_555 1_555
H12A N1A 1_555 1_555
O3A Cd1 1_555 1_555
H5A O3A 1_555 1_555
H6A O3A 1_555 1_555
Cd1_2 Cl1A 1_555 1_555
Cl1A_2 Cd1 1_555 1_555
Cl2A_2 Cd1 1_555 1_555
Cd2 Cl2 1_555 1_555
C1 N4 1_555 1_555
C1 C6 1_555 1_555
C3 C4 1_555 1_555
C3 C7 1_555 1_555
N4 C8 1_555 1_555
C1A N4A 1_555 1_555
C1A C6A 1_555 1_555
C3A C4A 1_555 1_555
C3A C7A 1_555 1_555
N4A C8A 1_555 1_555
Cl2A Cd1_2 1_555 1_555

#END
