
#######################################################################
#
#                 Cambridge Crystallographic Data Centre
#                                CCDC 
#
#######################################################################
#
# If this CIF has been generated from an entry in the Cambridge 
# Structural Database, then it will include bibliographic, chemical, 
# crystal, experimental, refinement or atomic coordinate data resulting 
# from the CCDC's data processing and validation procedures.
#
#######################################################################

data_HOZDEH
_symmetry_cell_setting           monoclinic
_symmetry_space_group_name_H-M   'P 21/c'
_symmetry_Int_Tables_number      14
_space_group_name_Hall           '-P 2ybc'
loop_
_symmetry_equiv_pos_site_id
_symmetry_equiv_pos_as_xyz
1 x,y,z
2 -x,1/2+y,1/2-z
3 -x,-y,-z
4 x,1/2-y,1/2+z
_cell_length_a                   9.87808(10)
_cell_length_b                   8.76433(10)
_cell_length_c                   10.10872(10)
_cell_angle_alpha                90
_cell_angle_beta                 105.5356(10)
_cell_angle_gamma                90
_cell_volume                     843.185
loop_
_atom_site_label
_atom_site_type_symbol
_atom_site_fract_x
_atom_site_fract_y
_atom_site_fract_z
P1 P 0.1344(2) 0.1956(2) 0.12404(20)
P2 P 0.78382(19) 0.1913(3) 0.11823(19)
Al1 Al -0.0171(3) -0.0972(2) 0.1820(2)
O1 O 0.1062(4) 0.0546(5) 0.2009(3)
O2 O 0.0474(4) 0.2105(4) -0.0254(4)
O3 O 0.1141(4) 0.3478(4) 0.1953(4)
O4 O 0.7822(5) 0.3012(5) -0.0035(4)
O5 O 0.8621(4) 0.2741(4) 0.2454(4)
O6 O 0.8350(5) 0.0320(5) 0.1035(4)
C1 C 0.3195(5) 0.1922(6) 0.1289(5)
C2 C 0.3638(5) 0.2981(6) 0.0471(4)
C3 C 0.5036(5) 0.3008(6) 0.0442(5)
C4 C 0.5921(5) 0.1871(6) 0.1151(5)
C5 C 0.5463(5) 0.0723(6) 0.1876(5)
C6 C 0.4074(5) 0.0752(6) 0.1936(5)
H1 H 0.795(5) 0.256(4) -0.070(3)
H2 H 0.297976 0.36922 -0.007252
H3 H 0.538055 0.378653 -0.005146
H4 H 0.609081 -0.006962 0.232428
H5 H 0.372402 -0.003174 0.242044
Al1_2 Al 0.9829(3) -0.0972(2) 0.1820(2)
Al1A Al 0.0171(3) 0.4028(2) 0.3180(2)
Al1A_2 Al 1.0171(3) 0.4028(2) 0.3180(2)
Al1B Al 0.0171(3) 0.0972(2) -0.1820(2)
O2B O -0.0474(4) -0.2105(4) 0.0254(4)
O3A O -0.1141(4) -0.1522(4) 0.3047(4)
O5A O 0.1379(4) -0.2259(4) 0.2546(4)
O6_2 O -0.1650(5) 0.0320(5) 0.1035(4)
loop_
_geom_bond_atom_site_label_1
_geom_bond_atom_site_label_2
_geom_bond_site_symmetry_1
_geom_bond_site_symmetry_2
P1 O1 1_555 1_555
P2 O4 1_555 1_555
Al1 O1 1_555 1_555
O2 P1 1_555 1_555
O3 P1 1_555 1_555
O4 H1 1_555 1_555
O5 P2 1_555 1_555
O6 P2 1_555 1_555
C1 P1 1_555 1_555
C2 C1 1_555 1_555
C3 C2 1_555 1_555
C4 P2 1_555 1_555
C5 C4 1_555 1_555
C6 C1 1_555 1_555
H2 C2 1_555 1_555
H3 C3 1_555 1_555
H4 C5 1_555 1_555
H5 C6 1_555 1_555
Al1_2 O6 1_555 1_555
Al1A O3 1_555 1_555
Al1A_2 O5 1_555 1_555
Al1B O2 1_555 1_555
O2B Al1 1_555 1_555
O3A Al1 1_555 1_555
O5A Al1 1_555 1_555
O6_2 Al1 1_555 1_555
C3 C4 1_555 1_555
C5 C6 1_555 1_555

#END
