
#######################################################################
#
#                 Cambridge Crystallographic Data Centre
#                                CCDC 
#
#######################################################################
#
# If this CIF has been generated from an entry in the Cambridge 
# Structural Database, then it will include bibliographic, chemical, 
# crystal, experimental, refinement or atomic coordinate data resulting 
# from the CCDC's data processing and validation procedures.
#
#######################################################################

data_HOZDAD
_symmetry_cell_setting           monoclinic
_symmetry_space_group_name_H-M   'P 21/c'
_symmetry_Int_Tables_number      14
_space_group_name_Hall           '-P 2ybc'
loop_
_symmetry_equiv_pos_site_id
_symmetry_equiv_pos_as_xyz
1 x,y,z
2 -x,1/2+y,1/2-z
3 -x,-y,-z
4 x,1/2-y,1/2+z
_cell_length_a                   10.05306(4)
_cell_length_b                   9.22355(4)
_cell_length_c                   10.09498(4)
_cell_angle_alpha                90
_cell_angle_beta                 104.7759(3)
_cell_angle_gamma                90
_cell_volume                     905.101
loop_
_atom_site_label
_atom_site_type_symbol
_atom_site_fract_x
_atom_site_fract_y
_atom_site_fract_z
P1 P -0.13637(12) -0.17065(15) -0.09701(13)
P2 P -0.78213(12) -0.17273(17) -0.13426(14)
Al1 Al -0.01051(16) -0.09896(17) 0.21322(15)
O1 O -0.0698(3) -0.2119(3) 0.0522(3)
O2 O -0.8392(3) -0.0224(3) -0.1623(3)
O3 O -0.0977(3) -0.0214(3) -0.1346(3)
O4 O -0.7855(3) -0.2355(2) 0.0102(3)
H1 H -0.831787 -0.163487 0.027117
O5 O -0.1065(3) -0.2827(3) -0.1914(3)
O6 O -0.8484(3) -0.2828(3) -0.2376(3)
O7 O 0.0617(3) 0.00967(13) 0.38317(13)
H2 H 0.047681 0.094509 0.40938
H3 H 0.101321 -0.053924 0.441073
C1 C -0.4069(4) -0.0695(4) -0.1891(4)
C2 C -0.5172(5) -0.2699(5) -0.0522(4)
C3 C -0.3187(4) -0.1713(5) -0.1174(4)
C4 C -0.5486(5) -0.0676(4) -0.2000(4)
C5 C -0.3750(5) -0.2670(5) -0.0410(4)
C6 C -0.6019(4) -0.1681(5) -0.1272(4)
H4 H -0.369513 0.005334 -0.234975
H5 H -0.554925 -0.344589 -0.006418
H6 H -0.607138 0.002499 -0.256904
H7 H -0.315772 -0.332604 0.020842
Al1B Al -0.98949(16) 0.09896(17) -0.21322(15)
Al1B_2 Al 0.01051(16) 0.09896(17) -0.21322(15)
Al1C Al -1.01051(16) -0.40104(17) -0.28678(15)
Al1C_2 Al -0.01051(16) -0.40104(17) -0.28678(15)
O2B O -0.1608(3) 0.0224(3) 0.1623(3)
O3B O 0.0977(3) 0.0214(3) 0.1346(3)
O5C O -0.1065(3) -0.2173(3) 0.3086(3)
O6C O 0.1516(3) -0.2172(3) 0.2624(3)
loop_
_geom_bond_atom_site_label_1
_geom_bond_atom_site_label_2
_geom_bond_site_symmetry_1
_geom_bond_site_symmetry_2
P1 O1 1_555 1_555
P2 O2 1_555 1_555
Al1 O1 1_555 1_555
O2 Al1B 1_555 1_555
O3 P1 1_555 1_555
O4 P2 1_555 1_555
H1 O4 1_555 1_555
O5 P1 1_555 1_555
O6 P2 1_555 1_555
O7 Al1 1_555 1_555
H2 O7 1_555 1_555
H3 O7 1_555 1_555
C1 C3 1_555 1_555
C2 C5 1_555 1_555
C3 P1 1_555 1_555
C4 C1 1_555 1_555
C5 C3 1_555 1_555
C6 P2 1_555 1_555
H4 C1 1_555 1_555
H5 C2 1_555 1_555
H6 C4 1_555 1_555
H7 C5 1_555 1_555
Al1B_2 O3 1_555 1_555
Al1C O6 1_555 1_555
Al1C_2 O5 1_555 1_555
O2B Al1 1_555 1_555
O3B Al1 1_555 1_555
O5C Al1 1_555 1_555
O6C Al1 1_555 1_555
C2 C6 1_555 1_555
C4 C6 1_555 1_555

#END
