
#######################################################################
#
#                 Cambridge Crystallographic Data Centre
#                                CCDC 
#
#######################################################################
#
# If this CIF has been generated from an entry in the Cambridge 
# Structural Database, then it will include bibliographic, chemical, 
# crystal, experimental, refinement or atomic coordinate data resulting 
# from the CCDC's data processing and validation procedures.
#
#######################################################################

data_HOZFAF
_symmetry_cell_setting           triclinic
_symmetry_space_group_name_H-M   'P -1'
_symmetry_Int_Tables_number      2
_space_group_name_Hall           '-P 1'
loop_
_symmetry_equiv_pos_site_id
_symmetry_equiv_pos_as_xyz
1 x,y,z
2 -x,-y,-z
_cell_length_a                   5.0422(3)
_cell_length_b                   7.1471(5)
_cell_length_c                   7.2031(5)
_cell_angle_alpha                83.237(2)
_cell_angle_beta                 76.586(2)
_cell_angle_gamma                81.731(2)
_cell_volume                     248.91
loop_
_atom_site_label
_atom_site_type_symbol
_atom_site_fract_x
_atom_site_fract_y
_atom_site_fract_z
Li1 Li -0.2514(4) 0.5320(3) 0.3862(3)
O1 O -0.03611(19) 0.35216(12) 0.21666(13)
O2 O -0.20468(18) 0.08581(13) 0.33560(13)
H1 H -0.149(5) -0.055(4) 0.330(3)
C1 C -0.0099(2) 0.17852(16) 0.23025(16)
C2 C 0.2494(2) 0.07303(16) 0.11796(15)
C3 C 0.4030(2) 0.18785(16) -0.02489(16)
H2 H 0.338(3) 0.318(2) -0.038(2)
C4 C 0.6492(2) 0.12081(15) -0.14490(16)
C5 C 0.7801(2) 0.26858(15) -0.29296(16)
O3 O 0.62547(17) 0.39895(12) -0.35824(12)
O4 O 1.04016(17) 0.25684(12) -0.34126(13)
O1A O 1.03611(19) -0.35216(12) -0.21666(13)
O2A O 1.20468(18) -0.08581(13) -0.33560(13)
H1A H 1.149(5) 0.055(4) -0.330(3)
C1A C 1.0099(2) -0.17852(16) -0.23025(16)
C2A C 0.7506(2) -0.07303(16) -0.11796(15)
C3A C 0.5970(2) -0.18785(16) 0.02489(16)
H2A H 0.662(3) -0.318(2) 0.038(2)
C4A C 0.3508(2) -0.12081(15) 0.14490(16)
C5A C 0.2199(2) -0.26858(15) 0.29296(16)
O3A O 0.37453(17) -0.39895(12) 0.35824(12)
O4A O -0.04016(17) -0.25684(12) 0.34126(13)
Li1A Li 0.2514(4) -0.5320(3) 0.6138(3)
Li1_2 Li -0.2514(4) -0.4680(3) 0.3862(3)
Li1_3 Li 0.7486(4) -0.4680(3) 0.3862(3)
Li1_4 Li 0.7486(4) 0.5320(3) -0.6138(3)
Li1A_2 Li 0.2514(4) 0.4680(3) -0.3862(3)
Li1A_3 Li 1.2514(4) -0.5320(3) -0.3862(3)
Li1A_4 Li 1.2514(4) 0.4680(3) -0.3862(3)
O1A_2 O 0.03611(19) -0.35216(12) 0.78334(13)
O3_2 O -0.37453(17) 0.39895(12) 0.64176(12)
O3_3 O 0.62547(17) -0.60105(12) 0.64176(12)
O3A_2 O -0.62547(17) 0.60105(12) 0.35824(12)
O4_2 O 0.04016(17) -0.74316(12) 0.65874(13)
O4A_2 O -0.04016(17) 0.74316(12) 0.34126(13)
loop_
_geom_bond_atom_site_label_1
_geom_bond_atom_site_label_2
_geom_bond_site_symmetry_1
_geom_bond_site_symmetry_2
Li1 O1 1_555 1_555
O1 C1 1_555 1_555
O2 H1 1_555 1_555
C1 O2 1_555 1_555
C2 C1 1_555 1_555
C3 C2 1_555 1_555
H2 C3 1_555 1_555
C4 C3 1_555 1_555
C5 C4 1_555 1_555
O3 C5 1_555 1_555
O4 C5 1_555 1_555
O1A C1A 1_555 1_555
O2A H1A 1_555 1_555
C1A O2A 1_555 1_555
C2A C4 1_555 1_555
C3A C2A 1_555 1_555
H2A C3A 1_555 1_555
C4A C2 1_555 1_555
C5A C4A 1_555 1_555
O3A C5A 1_555 1_555
O4A C5A 1_555 1_555
Li1A O3A 1_555 1_555
Li1_2 O4A 1_555 1_555
Li1_3 O3A 1_555 1_555
Li1_4 O3 1_555 1_555
Li1A_2 O3 1_555 1_555
Li1A_3 O1A 1_555 1_555
Li1A_4 O4 1_555 1_555
O1A_2 Li1A 1_555 1_555
O3_2 Li1 1_555 1_555
O3_3 Li1A 1_555 1_555
O3A_2 Li1 1_555 1_555
O4_2 Li1A 1_555 1_555
O4A_2 Li1 1_555 1_555
C1A C2A 1_555 1_555
C3A C4A 1_555 1_555
Li1_3 O3_3 1_555 1_555

#END
