
#######################################################################
#
#                 Cambridge Crystallographic Data Centre
#                                CCDC 
#
#######################################################################
#
# If this CIF has been generated from an entry in the Cambridge 
# Structural Database, then it will include bibliographic, chemical, 
# crystal, experimental, refinement or atomic coordinate data resulting 
# from the CCDC's data processing and validation procedures.
#
#######################################################################

data_HOZHAH
_symmetry_cell_setting           triclinic
_symmetry_space_group_name_H-M   'P -1'
_symmetry_Int_Tables_number      2
_space_group_name_Hall           '-P 1'
loop_
_symmetry_equiv_pos_site_id
_symmetry_equiv_pos_as_xyz
1 x,y,z
2 -x,-y,-z
_cell_length_a                   11.4391(5)
_cell_length_b                   11.9757(5)
_cell_length_c                   12.3265(6)
_cell_angle_alpha                67.3010(10)
_cell_angle_beta                 87.7520(10)
_cell_angle_gamma                73.7150(10)
_cell_volume                     1490.78
loop_
_atom_site_label
_atom_site_type_symbol
_atom_site_fract_x
_atom_site_fract_y
_atom_site_fract_z
Mo1 Mo -0.11564(3) 0.62747(3) 0.01422(3)
Mo2 Mo 0.30114(3) 0.48987(3) 0.09940(3)
Mo3 Mo 0.06332(3) 0.43290(3) 0.24230(3)
Mo4 Mo 0.11389(3) 0.69260(3) -0.13270(3)
Cu1 Cu 0.25983(4) 0.75937(4) 0.19125(4)
O1 O 0.2871(2) 0.6107(2) 0.1492(2)
O2 O 0.0421(3) 0.5583(3) 0.2817(2)
N1 N 0.2427(3) 0.6533(3) 0.3581(2)
O3 O 0.2364(2) 0.3852(2) 0.2319(2)
O4 O 0.2741(2) 0.5904(2) -0.0649(2)
O5 O -0.1048(2) 0.4853(2) 0.1641(2)
O6 O 0.1384(3) 0.7608(3) -0.2767(2)
C1 C 0.3939(4) -0.2012(4) 0.9686(3)
H1 H 0.4331 -0.2867 0.9891
C2 C 0.2789(4) 0.5290(3) 0.4139(3)
H2 H 0.3164 0.4731 0.3790
N2 N 0.3168(3) -0.1516(3) 1.0358(2)
O7 O 0.4516(2) 0.4140(3) 0.1211(2)
O8 O -0.0610(2) 0.6963(2) -0.1427(2)
O9 O 0.0561(3) 0.3093(3) 0.3681(2)
O10 O -0.2663(2) 0.6452(2) -0.0304(2)
N3 N 0.2544(3) 0.4939(3) 0.5282(3)
N4 N 0.2678(3) 0.8951(3) 0.2450(2)
N5 N 0.3334(3) 0.9706(3) 0.3597(3)
C3 C 0.4401(4) 1.1012(3) 0.3979(3)
C4 C 0.2801(4) -0.0274(3) 0.9752(3)
H3 H 0.2263 0.0300 1.0007
C5 C 0.3608(4) 0.8826(3) 0.3128(3)
H4 H 0.4356 0.8211 0.3264
O11 O 0.0588(3) 0.8279(3) 0.1423(3)
C6 C 0.2783(4) 0.3667(3) 0.6164(3)
C7 C 0.1752(4) 0.9970(3) 0.2481(3)
H5 H 0.0981 1.0280 0.2084
C8 C 0.3616(4) 0.2109(4) 0.8030(3)
H6 H 0.4070 0.1839 0.8741
C9 C 0.5257(4) 1.1186(3) 0.4629(3)
C10 C 0.5570(5) 1.2427(4) 0.4164(4)
H7 H 0.5274 1.2887 0.3349
H8 H 0.6440 1.2264 0.4236
H9 H 0.5193 1.2916 0.4611
C11 C 0.4047(4) -0.1074(4) 0.8678(4)
H10 H 0.4524 -0.1159 0.8070
C12 C 0.4173(4) 0.9839(4) 0.4348(3)
C13 C 0.3112(4) 0.1288(3) 0.7825(3)
C14 C 0.2428(4) 0.1618(4) 0.6787(3)
C15 C 0.4062(4) 0.4206(4) 0.7447(4)
H11 H 0.4350 0.4703 0.6733
H12 H 0.4737 0.3712 0.8030
H13 H 0.3474 0.4755 0.7734
N6 N 0.3313(3) 0.0037(3) 0.8721(3)
C16 C 0.1901(4) 0.6981(4) 0.4418(3)
H14 H 0.1549 0.7829 0.4279
C17 C 0.3469(4) 0.3335(4) 0.7204(3)
C18 C 0.1971(4) 0.6012(4) 0.5463(3)
H15 H 0.1687 0.6063 0.6165
O12 O 0.0771(2) 0.5429(2) 0.04726(19)
O13 O -0.1269(2) 0.7469(2) 0.0586(2)
O14 O 0.0904(3) 0.8100(2) -0.0815(2)
C19 C 0.2154(4) 1.0442(4) 0.3186(4)
H16 H 0.1719 1.1128 0.3358
C20 C 0.2267(4) 0.2851(4) 0.5952(3)
H17 H 0.1805 0.3123 0.5246
C21 C 0.1815(5) 0.0753(4) 0.6568(4)
H18 H 0.2416 0.0108 0.6405
H19 H 0.1220 0.1233 0.5905
H20 H 0.1417 0.0368 0.7254
N4A N 0.7322(3) 1.1049(3) 0.7550(2)
N5A N 0.6666(3) 1.0294(3) 0.6403(3)
C3A C 0.5599(4) 0.8988(3) 0.6021(3)
C5A C 0.6392(4) 1.1174(3) 0.6872(3)
H4A H 0.5644 1.1789 0.6736
C7A C 0.8248(4) 1.0030(3) 0.7519(3)
H5A H 0.9019 0.9720 0.7916
C9A C 0.4743(4) 0.8814(3) 0.5371(3)
C10A C 0.4430(5) 0.7573(4) 0.5836(4)
H7A H 0.4726 0.7113 0.6651
H8A H 0.3560 0.7736 0.5764
H9A H 0.4807 0.7084 0.5389
C12A C 0.5827(4) 1.0161(4) 0.5652(3)
C19A C 0.7846(4) 0.9558(4) 0.6814(4)
H16A H 0.8281 0.8872 0.6642
Mo1A Mo 0.11564(3) 0.37253(3) -0.01422(3)
Mo2A Mo -0.30114(3) 0.51013(3) -0.09940(3)
Mo3A Mo -0.06332(3) 0.56710(3) -0.24230(3)
Mo4A Mo -0.11389(3) 0.30740(3) 0.13270(3)
Cu1A Cu -0.25983(4) 0.24063(4) -0.19125(4)
O1A O -0.2871(2) 0.3893(2) -0.1492(2)
O2A O -0.0421(3) 0.4417(3) -0.2817(2)
N1A N -0.2427(3) 0.3467(3) -0.3581(2)
O3A O -0.2364(2) 0.6148(2) -0.2319(2)
O4A O -0.2741(2) 0.4096(2) 0.0649(2)
O5A O 0.1048(2) 0.5147(2) -0.1641(2)
O6A O -0.1384(3) 0.2392(3) 0.2767(2)
C1A C -0.3939(4) 1.2012(4) -0.9686(3)
H1A H -0.4331 1.2867 -0.9891
C2A C -0.2789(4) 0.4710(3) -0.4139(3)
H2A H -0.3164 0.5269 -0.3790
N2A N -0.3168(3) 1.1516(3) -1.0358(2)
O7A O -0.4516(2) 0.5860(3) -0.1211(2)
O8A O 0.0610(2) 0.3037(2) 0.1427(2)
O9A O -0.0561(3) 0.6907(3) -0.3681(2)
O10A O 0.2663(2) 0.3548(2) 0.0304(2)
N3A N -0.2544(3) 0.5061(3) -0.5282(3)
C4A C -0.2801(4) 1.0274(3) -0.9752(3)
H3A H -0.2263 0.9700 -1.0007
O11A O -0.0588(3) 0.1721(3) -0.1423(3)
C6A C -0.2783(4) 0.6333(3) -0.6164(3)
C8A C -0.3616(4) 0.7891(4) -0.8030(3)
H6A H -0.4070 0.8161 -0.8741
C11A C -0.4047(4) 1.1074(4) -0.8678(4)
H10A H -0.4524 1.1159 -0.8070
C13A C -0.3112(4) 0.8712(3) -0.7825(3)
C14A C -0.2428(4) 0.8382(4) -0.6787(3)
C15A C -0.4062(4) 0.5794(4) -0.7447(4)
H11A H -0.4350 0.5297 -0.6733
H12A H -0.4737 0.6288 -0.8030
H13A H -0.3474 0.5245 -0.7734
N6A N -0.3313(3) 0.9963(3) -0.8721(3)
C16A C -0.1901(4) 0.3019(4) -0.4418(3)
H14A H -0.1549 0.2171 -0.4279
C17A C -0.3469(4) 0.6665(4) -0.7204(3)
C18A C -0.1971(4) 0.3988(4) -0.5463(3)
H15A H -0.1687 0.3937 -0.6165
O12A O -0.0771(2) 0.4571(2) -0.04726(19)
O13A O 0.1269(2) 0.2531(2) -0.0586(2)
O14A O -0.0904(3) 0.1900(2) 0.0815(2)
C20A C -0.2267(4) 0.7149(4) -0.5952(3)
H17A H -0.1805 0.6877 -0.5246
C21A C -0.1815(5) 0.9247(4) -0.6568(4)
H18A H -0.2416 0.9892 -0.6405
H19A H -0.1220 0.8767 -0.5905
H20A H -0.1417 0.9632 -0.7254
Cu1_2 Cu 0.25983(4) -0.24063(4) 1.19125(4)
Cu1A_2 Cu -0.25983(4) 1.24063(4) -1.19125(4)
Cu1A_3 Cu 0.74017(4) 1.24063(4) 0.80875(4)
N2_2 N 0.3168(3) 0.8484(3) 0.0358(2)
N2A_2 N -0.3168(3) 0.1516(3) -0.0358(2)
N4A_2 N -0.2678(3) 0.1049(3) -0.2450(2)
loop_
_geom_bond_atom_site_label_1
_geom_bond_atom_site_label_2
_geom_bond_site_symmetry_1
_geom_bond_site_symmetry_2
Mo1 O5 1_555 1_555
Mo2 O1 1_555 1_555
Mo3 O2 1_555 1_555
Mo4 O4 1_555 1_555
Cu1 O1 1_555 1_555
N1 Cu1 1_555 1_555
O3 Mo2 1_555 1_555
O4 Mo2 1_555 1_555
O5 Mo3 1_555 1_555
O6 Mo4 1_555 1_555
C1 H1 1_555 1_555
C2 N1 1_555 1_555
H2 C2 1_555 1_555
N2 C1 1_555 1_555
O7 Mo2 1_555 1_555
O8 Mo1 1_555 1_555
O9 Mo3 1_555 1_555
O10 Mo1 1_555 1_555
N3 C2 1_555 1_555
N4 Cu1 1_555 1_555
N5 C5 1_555 1_555
C3 C9 1_555 1_555
C4 N2 1_555 1_555
H3 C4 1_555 1_555
C5 N4 1_555 1_555
H4 C5 1_555 1_555
O11 Cu1 1_555 1_555
C6 N3 1_555 1_555
C7 N4 1_555 1_555
H5 C7 1_555 1_555
C8 H6 1_555 1_555
C9 C10 1_555 1_555
C10 H7 1_555 1_555
H8 C10 1_555 1_555
H9 C10 1_555 1_555
C11 C1 1_555 1_555
H10 C11 1_555 1_555
C12 N5 1_555 1_555
C13 C8 1_555 1_555
C14 C13 1_555 1_555
C15 H11 1_555 1_555
H12 C15 1_555 1_555
H13 C15 1_555 1_555
N6 C4 1_555 1_555
C16 N1 1_555 1_555
H14 C16 1_555 1_555
C17 C6 1_555 1_555
C18 N3 1_555 1_555
H15 C18 1_555 1_555
O12 Mo1 1_555 1_555
O13 Mo1 1_555 1_555
O14 Mo4 1_555 1_555
C19 N5 1_555 1_555
H16 C19 1_555 1_555
C20 C6 1_555 1_555
H17 C20 1_555 1_555
C21 C14 1_555 1_555
H18 C21 1_555 1_555
H19 C21 1_555 1_555
H20 C21 1_555 1_555
N4A C5A 1_555 1_555
N5A C5A 1_555 1_555
C3A C9A 1_555 1_555
C5A H4A 1_555 1_555
C7A N4A 1_555 1_555
H5A C7A 1_555 1_555
C9A C12 1_555 1_555
C10A C9A 1_555 1_555
H7A C10A 1_555 1_555
H8A C10A 1_555 1_555
H9A C10A 1_555 1_555
C12A C9 1_555 1_555
C19A N5A 1_555 1_555
H16A C19A 1_555 1_555
Mo1A O12 1_555 1_555
Mo2A O10 1_555 1_555
Mo3A O8 1_555 1_555
Mo4A O5 1_555 1_555
Cu1A O1A 1_555 1_555
O1A Mo2A 1_555 1_555
O2A Mo3A 1_555 1_555
N1A Cu1A 1_555 1_555
O3A Mo2A 1_555 1_555
O4A Mo2A 1_555 1_555
O5A Mo4 1_555 1_555
O6A Mo4A 1_555 1_555
C1A H1A 1_555 1_555
C2A N1A 1_555 1_555
H2A C2A 1_555 1_555
N2A C1A 1_555 1_555
O7A Mo2A 1_555 1_555
O8A Mo3 1_555 1_555
O9A Mo3A 1_555 1_555
O10A Mo2 1_555 1_555
N3A C2A 1_555 1_555
C4A N2A 1_555 1_555
H3A C4A 1_555 1_555
O11A Cu1A 1_555 1_555
C6A N3A 1_555 1_555
C8A H6A 1_555 1_555
C11A C1A 1_555 1_555
H10A C11A 1_555 1_555
C13A C8A 1_555 1_555
C14A C13A 1_555 1_555
C15A H11A 1_555 1_555
H12A C15A 1_555 1_555
H13A C15A 1_555 1_555
N6A C4A 1_555 1_555
C16A N1A 1_555 1_555
H14A C16A 1_555 1_555
C17A C6A 1_555 1_555
C18A N3A 1_555 1_555
H15A C18A 1_555 1_555
O12A Mo1 1_555 1_555
O13A Mo1A 1_555 1_555
O14A Mo4A 1_555 1_555
C20A C6A 1_555 1_555
H17A C20A 1_555 1_555
C21A C14A 1_555 1_555
H18A C21A 1_555 1_555
H19A C21A 1_555 1_555
H20A C21A 1_555 1_555
Cu1_2 N2 1_555 1_555
Cu1A_2 N2A 1_555 1_555
Cu1A_3 N4A 1_555 1_555
N2_2 Cu1 1_555 1_555
N2A_2 Cu1A 1_555 1_555
N4A_2 Cu1A 1_555 1_555
Mo2 O12 1_555 1_555
Mo3 O3 1_555 1_555
Mo3 O12 1_555 1_555
Mo4 O8 1_555 1_555
Mo4 O12 1_555 1_555
C3 C12 1_555 1_555
C7 C19 1_555 1_555
C8 C17 1_555 1_555
C11 N6 1_555 1_555
C13 N6 1_555 1_555
C14 C20 1_555 1_555
C15 C17 1_555 1_555
C16 C18 1_555 1_555
N5A C12A 1_555 1_555
C3A C12A 1_555 1_555
C7A C19A 1_555 1_555
Mo1A O5A 1_555 1_555
Mo1A O8A 1_555 1_555
Mo1A O10A 1_555 1_555
Mo1A O12A 1_555 1_555
Mo2A O12A 1_555 1_555
Mo3A O3A 1_555 1_555
Mo3A O5A 1_555 1_555
Mo3A O12A 1_555 1_555
Mo4A O4A 1_555 1_555
Mo4A O8A 1_555 1_555
Mo4A O12A 1_555 1_555
C8A C17A 1_555 1_555
C11A N6A 1_555 1_555
C13A N6A 1_555 1_555
C14A C20A 1_555 1_555
C15A C17A 1_555 1_555
C16A C18A 1_555 1_555

#END
