
#######################################################################
#
#                 Cambridge Crystallographic Data Centre
#                                CCDC 
#
#######################################################################
#
# If this CIF has been generated from an entry in the Cambridge 
# Structural Database, then it will include bibliographic, chemical, 
# crystal, experimental, refinement or atomic coordinate data resulting 
# from the CCDC's data processing and validation procedures.
#
#######################################################################

data_HOZJAJ
_symmetry_cell_setting           hexagonal
_symmetry_space_group_name_H-M   'P 65'
_symmetry_Int_Tables_number      170
_space_group_name_Hall           'P 65'
loop_
_symmetry_equiv_pos_site_id
_symmetry_equiv_pos_as_xyz
1 x,y,z
2 -y,x-y,2/3+z
3 -x+y,-x,1/3+z
4 -x,-y,1/2+z
5 y,-x+y,1/6+z
6 x-y,x,5/6+z
_cell_length_a                   11.1955(3)
_cell_length_b                   11.1955(3)
_cell_length_c                   26.7384(14)
_cell_angle_alpha                90
_cell_angle_beta                 90
_cell_angle_gamma                120
_cell_volume                     2902.37
loop_
_atom_site_label
_atom_site_type_symbol
_atom_site_fract_x
_atom_site_fract_y
_atom_site_fract_z
Eu1 Eu 0.02816(2) 0.17093(2) 0.73732(2)
O1 O 0.0923(3) 0.0173(2) 0.69566(9)
O2 O -0.0154(3) -0.0370(3) 0.62203(9)
C1 C 0.0697(3) -0.0351(3) 0.65305(13)
C2 C 0.1490(3) -0.1054(3) 0.63703(13)
C3 C 0.2174(4) -0.1436(4) 0.67082(13)
H1 H 0.2162 -0.1261 0.7055
C4 C 0.2878(4) -0.2079(4) 0.65328(14)
H2 H 0.3352 -0.2352 0.6759
C5 C 0.2882(4) -0.2317(4) 0.60275(13)
H3 H 0.3370 -0.2754 0.5910
N1 N 0.2221(3) -0.1954(3) 0.56936(13)
C6 C 0.1540(3) -0.1334(4) 0.58656(13)
H4 H 0.1071 -0.1074 0.5632
O3 O -0.1840(2) 0.0312(2) 0.70081(9)
O4 O -0.2964(2) -0.1113(2) 0.63788(9)
C7 C -0.2755(3) -0.0811(3) 0.68313(12)
C8 C -0.3701(3) -0.1907(3) 0.71983(12)
C9 C -0.4632(3) -0.3239(3) 0.70300(14)
H5 H -0.4691 -0.3450 0.6684
C10 C -0.5468(3) -0.4252(3) 0.73695(15)
H6 H -0.6113 -0.5155 0.7258
C11 C -0.5348(4) -0.3926(4) 0.78712(15)
H7 H -0.5897 -0.4615 0.8109
N2 N -0.4451(3) -0.2630(3) 0.80263(11)
H8 H -0.440(5) -0.245(5) 0.833(2)
C12 C -0.3649(3) -0.1630(4) 0.77048(13)
H9 H -0.3041 -0.0725 0.7825
O5 O 0.1606(3) 0.2910(3) 0.66509(9)
O6 O 0.0026(2) 0.2424(2) 0.60548(9)
C13 C 0.1248(3) 0.3029(3) 0.62170(12)
C14 C 0.2367(4) 0.3983(3) 0.58669(13)
C15 C 0.2094(4) 0.4259(4) 0.53878(13)
H10 H 0.1177 0.3820 0.5263
C16 C 0.3184(4) 0.5186(4) 0.50946(15)
H11 H 0.3028 0.5397 0.4765
C17 C 0.4507(4) 0.5803(4) 0.52900(14)
H12 H 0.5242 0.6471 0.5092
N3 N 0.4812(3) 0.5511(3) 0.57428(14)
C18 C 0.3740(4) 0.4609(4) 0.60187(13)
H13 H 0.3929 0.4380 0.6340
N4 N 0.0517(3) 0.4432(3) 0.73075(11)
O7 O -0.0505(2) 0.3376(2) 0.71158(9)
O8 O 0.1367(3) 0.4226(3) 0.75572(9)
O9 O 0.0679(3) 0.5591(3) 0.72549(11)
Eu1E Eu -0.14277(3) 0.02816(2) 0.57065(2)
O2D O -0.0370(3) -0.0216(4) 0.78870(9)
O4D O -0.1113(2) 0.1851(3) 0.80455(9)
O6D O 0.2424(2) 0.2398(3) 0.77215(9)
loop_
_geom_bond_atom_site_label_1
_geom_bond_atom_site_label_2
_geom_bond_site_symmetry_1
_geom_bond_site_symmetry_2
Eu1 O1 1_555 1_555
O1 C1 1_555 1_555
O2 C1 1_555 1_555
C1 C2 1_555 1_555
C2 C3 1_555 1_555
C3 H1 1_555 1_555
C4 C3 1_555 1_555
H2 C4 1_555 1_555
C5 C4 1_555 1_555
H3 C5 1_555 1_555
N1 C5 1_555 1_555
C6 C2 1_555 1_555
H4 C6 1_555 1_555
O3 Eu1 1_555 1_555
O4 C7 1_555 1_555
C7 O3 1_555 1_555
C8 C7 1_555 1_555
C9 C8 1_555 1_555
H5 C9 1_555 1_555
C10 C9 1_555 1_555
H6 C10 1_555 1_555
C11 C10 1_555 1_555
H7 C11 1_555 1_555
N2 C11 1_555 1_555
H8 N2 1_555 1_555
C12 C8 1_555 1_555
H9 C12 1_555 1_555
O5 Eu1 1_555 1_555
O6 C13 1_555 1_555
C13 O5 1_555 1_555
C14 C13 1_555 1_555
C15 C14 1_555 1_555
H10 C15 1_555 1_555
C16 C15 1_555 1_555
H11 C16 1_555 1_555
C17 C16 1_555 1_555
H12 C17 1_555 1_555
N3 C17 1_555 1_555
C18 C14 1_555 1_555
H13 C18 1_555 1_555
N4 O7 1_555 1_555
O7 Eu1 1_555 1_555
O8 Eu1 1_555 1_555
O9 N4 1_555 1_555
Eu1E O2 1_555 1_555
O2D Eu1 1_555 1_555
O4D Eu1 1_555 1_555
O6D Eu1 1_555 1_555
N1 C6 1_555 1_555
O4 Eu1E 1_555 1_555
N2 C12 1_555 1_555
O6 Eu1E 1_555 1_555
N3 C18 1_555 1_555
N4 O8 1_555 1_555

#END
