
#######################################################################
#
#                 Cambridge Crystallographic Data Centre
#                                CCDC 
#
#######################################################################
#
# If this CIF has been generated from an entry in the Cambridge 
# Structural Database, then it will include bibliographic, chemical, 
# crystal, experimental, refinement or atomic coordinate data resulting 
# from the CCDC's data processing and validation procedures.
#
#######################################################################

data_HOZQOD
_symmetry_cell_setting           monoclinic
_symmetry_space_group_name_H-M   'C 2/m'
_symmetry_Int_Tables_number      12
_space_group_name_Hall           '-C 2y'
loop_
_symmetry_equiv_pos_site_id
_symmetry_equiv_pos_as_xyz
1 x,y,z
2 -x,y,-z
3 1/2+x,1/2+y,z
4 1/2-x,1/2+y,-z
5 -x,-y,-z
6 x,-y,z
7 1/2-x,1/2-y,-z
8 1/2+x,1/2-y,z
_cell_length_a                   11.708(2)
_cell_length_b                   12.641(3)
_cell_length_c                   9.482(2)
_cell_angle_alpha                90
_cell_angle_beta                 90.03(3)
_cell_angle_gamma                90
_cell_volume                     1403.34
loop_
_atom_site_label
_atom_site_type_symbol
_atom_site_fract_x
_atom_site_fract_y
_atom_site_fract_z
Co1 Co 0.63260(6) 0.5000 0.05521(7)
Co2 Co 0.7500 0.7500 0.5000
O1 O 0.5653(3) 0.5000 0.2672(4)
H1 H 0.5809 0.5542 0.3126
N1 N 0.5000 0.6031(3) 0.0000
N2 N 0.5000 0.6985(4) 0.0000
N3 N 0.5000 0.7879(4) 0.0000
N4 N 0.7375(3) 0.6270(3) 0.1236(3)
N5 N 0.7825(2) 0.6481(2) 0.2305(3)
N6 N 0.8296(3) 0.6721(3) 0.3366(3)
N7 N 0.5887(3) 0.6830(3) 0.4392(3)
N8 N 0.5000 0.6846(3) 0.5000
N9 N 0.7336(4) 0.5000 -0.1405(4)
N10 N 0.7802(2) 0.5981(2) -0.3582(3)
N11 N 0.9295(4) 0.5000 -0.2327(4)
C1 C 0.9043(3) 0.5940(3) -0.3150(4)
H2 H 0.9519 0.5946 -0.3987
H3 H 0.9226 0.6563 -0.2598
C2 C 0.7106(3) 0.5960(3) -0.2269(4)
H4 H 0.7274 0.6585 -0.1713
H5 H 0.6302 0.5979 -0.2516
C3 C 0.8593(4) 0.5000 -0.1062(5)
H6 H 0.8772 0.5620 -0.0502
C4 C 0.7551(4) 0.5000 -0.4383(5)
H7 H 0.7999 0.5000 -0.5244
H8 H 0.6751 0.5000 -0.4648
Co1A Co 0.36740(6) 0.5000 -0.05521(7)
Co2_2 Co 0.7500 0.7500 -0.5000
Co2A Co 0.2500 0.7500 0.5000
Co2C Co 0.7500 0.2500 -0.5000
Co2C_2 Co 0.7500 0.2500 0.5000
H1E H 0.5809 0.4458 0.3126
N1D N 0.5000 0.3969(3) 0.0000
N4E N 0.7375(3) 0.3730(3) 0.1236(3)
N5E N 0.7825(2) 0.3519(2) 0.2305(3)
N6E N 0.8296(3) 0.3279(3) 0.3366(3)
N6F N 0.6704(3) 0.8279(3) 0.6634(3)
N7A N 0.4113(3) 0.6830(3) 0.5608(3)
N7F N 0.9113(3) 0.8170(3) 0.5608(3)
N10E N 0.7802(2) 0.4019(2) -0.3582(3)
N10_2 N 0.7802(2) 0.5981(2) 0.6418(3)
N10F N 0.7198(2) 0.9019(2) 0.3582(3)
C1E C 0.9043(3) 0.4060(3) -0.3150(4)
H2E H 0.9519 0.4054 -0.3987
H3E H 0.9226 0.3437 -0.2598
C2E C 0.7106(3) 0.4040(3) -0.2269(4)
H4E H 0.7274 0.3415 -0.1713
H5E H 0.6302 0.4021 -0.2516
H6E H 0.8772 0.4380 -0.0502
loop_
_geom_bond_atom_site_label_1
_geom_bond_atom_site_label_2
_geom_bond_site_symmetry_1
_geom_bond_site_symmetry_2
Co1 O1 1_555 1_555
Co2 N6 1_555 1_555
O1 H1 1_555 1_555
N1 Co1 1_555 1_555
N2 N1 1_555 1_555
N3 N2 1_555 1_555
N4 Co1 1_555 1_555
N5 N4 1_555 1_555
N6 N5 1_555 1_555
N7 Co2 1_555 1_555
N8 N7 1_555 1_555
N9 Co1 1_555 1_555
N10 C1 1_555 1_555
N11 C1 1_555 1_555
C1 H2 1_555 1_555
H3 C1 1_555 1_555
C2 N9 1_555 1_555
H4 C2 1_555 1_555
H5 C2 1_555 1_555
C3 N9 1_555 1_555
H6 C3 1_555 1_555
C4 N10 1_555 1_555
H7 C4 1_555 1_555
H8 C4 1_555 1_555
Co1A N1 1_555 1_555
Co2_2 N10 1_555 1_555
Co2A N7A 1_555 1_555
Co2C N10E 1_555 1_555
Co2C_2 N6E 1_555 1_555
H1E O1 1_555 1_555
N1D Co1 1_555 1_555
N4E Co1 1_555 1_555
N5E N4E 1_555 1_555
N6E N5E 1_555 1_555
N6F Co2 1_555 1_555
N7A N8 1_555 1_555
N7F Co2 1_555 1_555
N10E C4 1_555 1_555
N10_2 Co2 1_555 1_555
N10F Co2 1_555 1_555
C1E N11 1_555 1_555
H2E C1E 1_555 1_555
H3E C1E 1_555 1_555
C2E N9 1_555 1_555
H4E C2E 1_555 1_555
H5E C2E 1_555 1_555
H6E C3 1_555 1_555
N10 C2 1_555 1_555
N11 C3 1_555 1_555
Co1A N1D 1_555 1_555
N10E C1E 1_555 1_555
N10E C2E 1_555 1_555

#END
