
#######################################################################
#
#                 Cambridge Crystallographic Data Centre
#                                CCDC 
#
#######################################################################
#
# If this CIF has been generated from an entry in the Cambridge 
# Structural Database, then it will include bibliographic, chemical, 
# crystal, experimental, refinement or atomic coordinate data resulting 
# from the CCDC's data processing and validation procedures.
#
#######################################################################

data_HOZQOD01
_symmetry_cell_setting           monoclinic
_symmetry_space_group_name_H-M   'C 2/m'
_symmetry_Int_Tables_number      12
_space_group_name_Hall           '-C 2y'
loop_
_symmetry_equiv_pos_site_id
_symmetry_equiv_pos_as_xyz
1 x,y,z
2 -x,y,-z
3 1/2+x,1/2+y,z
4 1/2-x,1/2+y,-z
5 -x,-y,-z
6 x,-y,z
7 1/2-x,1/2-y,-z
8 1/2+x,1/2-y,z
_cell_length_a                   11.7392(6)
_cell_length_b                   12.7081(6)
_cell_length_c                   9.5192(5)
_cell_angle_alpha                90
_cell_angle_beta                 90.153(3)
_cell_angle_gamma                90
_cell_volume                     1420.1
loop_
_atom_site_label
_atom_site_type_symbol
_atom_site_fract_x
_atom_site_fract_y
_atom_site_fract_z
Co1 Co 0.2500 0.2500 0.5000
Co2 Co 0.36722(3) 0.0000 0.94503(4)
N1 N 0.08892(17) 0.31726(15) 0.4400(2)
N2 N 0.0000 0.31473(19) 0.5000
N3 N 0.17221(16) 0.17220(15) 0.66337(18)
N4 N 0.21828(15) 0.14796(14) 0.76864(19)
N5 N 0.26211(18) 0.12629(16) 0.8751(2)
N6 N 0.5000 0.1029(2) 1.0000
N7 N 0.5000 0.1969(2) 1.0000
N8 N 0.5000 0.2856(3) 1.0000
N9 N 0.28083(14) 0.40254(13) 0.64277(17)
N10 N 0.4298(2) 0.5000 0.7679(3)
N11 N 0.2350(2) 0.5000 0.8592(2)
C1 C 0.40341(18) 0.40635(18) 0.6857(2)
H1 H 0.4214 0.3443 0.7407
H2 H 0.4507 0.4054 0.6023
C2 C 0.21149(18) 0.40502(16) 0.7732(2)
H3 H 0.1313 0.4036 0.7484
H4 H 0.2278 0.3427 0.8286
C3 C 0.2559(3) 0.5000 0.5627(3)
H5 H 0.3007 0.5000 0.4772
H6 H 0.1761 0.5000 0.5359
C4 C 0.3604(2) 0.5000 0.8957(3)
H7 H 0.3782 0.5618 0.9514
O1 O 0.4345(2) 0.0000 0.7314(2)
H8 H 0.415(2) 0.069(2) 0.666(3)
Co1A Co -0.2500 0.2500 0.5000
Co1C Co 0.2500 0.7500 0.5000
Co2A Co 0.63278(3) 0.0000 1.05497(4)
Co2C Co 0.13278(3) 0.5000 1.05497(4)
Co2C_2 Co 0.13278(3) 0.5000 0.05497(4)
N1A N -0.08892(17) 0.31726(15) 0.5600(2)
N1F N 0.41108(17) 0.18274(15) 0.5600(2)
N3F N 0.32779(16) 0.32780(15) 0.33663(18)
N4F N 0.28172(15) 0.35204(14) 0.23136(19)
N5F N 0.23789(18) 0.37371(16) 0.1249(2)
N5E N 0.26211(18) -0.12629(16) 0.8751(2)
N6D N 0.5000 -0.1029(2) 1.0000
N9E N 0.28083(14) 0.59746(13) 0.64277(17)
N9F N 0.21917(14) 0.09746(13) 0.35723(17)
N11C N 0.2650(2) 0.0000 1.1408(2)
C1E C 0.40341(18) 0.59365(18) 0.6857(2)
H1E H 0.4214 0.6557 0.7407
H2E H 0.4507 0.5946 0.6023
C2E C 0.21149(18) 0.59498(16) 0.7732(2)
H3E H 0.1313 0.5964 0.7484
H4E H 0.2278 0.6573 0.8286
H7E H 0.3782 0.4382 0.9514
H8E H 0.415(2) -0.069(2) 0.666(3)
loop_
_geom_bond_atom_site_label_1
_geom_bond_atom_site_label_2
_geom_bond_site_symmetry_1
_geom_bond_site_symmetry_2
Co1 N1 1_555 1_555
Co2 N5 1_555 1_555
N1 N2 1_555 1_555
N2 N1A 1_555 1_555
N3 Co1 1_555 1_555
N4 N3 1_555 1_555
N5 N4 1_555 1_555
N6 Co2 1_555 1_555
N7 N6 1_555 1_555
N8 N7 1_555 1_555
N9 Co1 1_555 1_555
N10 C1 1_555 1_555
N11 C2 1_555 1_555
C1 N9 1_555 1_555
H1 C1 1_555 1_555
H2 C1 1_555 1_555
C2 N9 1_555 1_555
H3 C2 1_555 1_555
H4 C2 1_555 1_555
C3 N9 1_555 1_555
H5 C3 1_555 1_555
H6 C3 1_555 1_555
C4 N10 1_555 1_555
H7 C4 1_555 1_555
O1 Co2 1_555 1_555
H8 O1 1_555 1_555
Co1A N1A 1_555 1_555
Co1C N9E 1_555 1_555
Co2A N6 1_555 1_555
Co2C N11 1_555 1_555
Co2C_2 N5F 1_555 1_555
N1F Co1 1_555 1_555
N3F Co1 1_555 1_555
N4F N3F 1_555 1_555
N5F N4F 1_555 1_555
N5E Co2 1_555 1_555
N6D Co2 1_555 1_555
N9E C3 1_555 1_555
N9F Co1 1_555 1_555
N11C Co2 1_555 1_555
C1E N10 1_555 1_555
H1E C1E 1_555 1_555
H2E C1E 1_555 1_555
C2E N11 1_555 1_555
H3E C2E 1_555 1_555
H4E C2E 1_555 1_555
H7E C4 1_555 1_555
H8E O1 1_555 1_555
N11 C4 1_555 1_555
Co2A N6D 1_555 1_555
N9E C1E 1_555 1_555
N9E C2E 1_555 1_555

#END
