
#######################################################################
#
#                 Cambridge Crystallographic Data Centre
#                                CCDC 
#
#######################################################################
#
# If this CIF has been generated from an entry in the Cambridge 
# Structural Database, then it will include bibliographic, chemical, 
# crystal, experimental, refinement or atomic coordinate data resulting 
# from the CCDC's data processing and validation procedures.
#
#######################################################################

data_HOZTOG
_symmetry_cell_setting           cubic
_symmetry_space_group_name_H-M   'I -4 3 d'
_symmetry_Int_Tables_number      220
_space_group_name_Hall           'I -4bd 2c 3'
loop_
_symmetry_equiv_pos_site_id
_symmetry_equiv_pos_as_xyz
1 x,y,z
2 1/2-x,-y,1/2+z
3 -x,1/2+y,1/2-z
4 1/2+x,1/2-y,-z
5 z,x,y
6 1/2+z,1/2-x,-y
7 1/2-z,-x,1/2+y
8 -z,1/2+x,1/2-y
9 y,z,x
10 -y,1/2+z,1/2-x
11 1/2+y,1/2-z,-x
12 1/2-y,-z,1/2+x
13 1/4+y,1/4+x,1/4+z
14 1/4-y,3/4-x,3/4+z
15 3/4+y,1/4-x,3/4-z
16 3/4-y,3/4+x,1/4-z
17 1/4+x,1/4+z,1/4+y
18 3/4-x,3/4+z,1/4-y
19 1/4-x,3/4-z,3/4+y
20 3/4+x,1/4-z,3/4-y
21 1/4+z,1/4+y,1/4+x
22 3/4+z,1/4-y,3/4-x
23 3/4-z,3/4+y,1/4-x
24 1/4-z,3/4-y,3/4+x
25 1/2+x,1/2+y,1/2+z
26 -x,1/2-y,z
27 1/2-x,y,-z
28 x,-y,1/2-z
29 1/2+z,1/2+x,1/2+y
30 z,-x,1/2-y
31 -z,1/2-x,y
32 1/2-z,x,-y
33 1/2+y,1/2+z,1/2+x
34 1/2-y,z,-x
35 y,-z,1/2-x
36 -y,1/2-z,x
37 3/4+y,3/4+x,3/4+z
38 3/4-y,1/4-x,1/4+z
39 1/4+y,3/4-x,1/4-z
40 1/4-y,1/4+x,3/4-z
41 3/4+x,3/4+z,3/4+y
42 1/4-x,1/4+z,3/4-y
43 3/4-x,1/4-z,1/4+y
44 1/4+x,3/4-z,1/4-y
45 3/4+z,3/4+y,3/4+x
46 1/4+z,3/4-y,1/4-x
47 1/4-z,1/4+y,3/4-x
48 3/4-z,1/4-y,1/4+x
_cell_length_a                   30.361(3)
_cell_length_b                   30.361(3)
_cell_length_c                   30.361(3)
_cell_angle_alpha                90
_cell_angle_beta                 90
_cell_angle_gamma                90
_cell_volume                     27986.5
loop_
_atom_site_label
_atom_site_type_symbol
_atom_site_fract_x
_atom_site_fract_y
_atom_site_fract_z
O2 O 0.3012(4) 0.9235(4) 0.5610(5)
H3 H 0.3238 0.9385 0.5677
H4 H 0.3091 0.9010 0.5461
O3 O 0.0838(4) 0.7351(4) 0.7245(4)
H5 H 0.0621 0.7482 0.7364
H6 H 0.0752 0.7223 0.7011
H7 H 0.2295 0.9243 0.9513
H8 H 0.2122 0.8820 0.9490
O4 O 0.2143(4) 0.9053(4) 0.9635(4)
O5 O 0.2654(4) 0.9322(4) 0.9117(4)
H9 H 0.2527 0.9108 0.9244
H10 H 0.2836 0.9224 0.8929
O6 O 0.1928(4) 0.7288(4) 0.8701(4)
H11 H 0.1954 0.7274 0.8980
H12 H 0.1676 0.7390 0.8636
O7 O 0.2158(8) 0.9864(7) 0.5667(6)
H13 H 0.1946 1.0045 0.5646
H14 H 0.2162 0.9698 0.5442
O8 O 0.1148(5) 0.7441(4) 0.8291(6)
H15 H 0.0873 0.7392 0.8272
H16 H 0.1288 0.7202 0.8256
C1 C 0.1862(3) 0.8492(3) 0.7687(2)
H17 H 0.1681 0.8419 0.7451
C2 C 0.2146(2) 0.8846(2) 0.8291(2)
H18 H 0.2185 0.9043 0.8521
C3 C 0.2424(2) 0.8490(2) 0.8191(2)
H19 H 0.2679 0.8413 0.8343
C4 C 0.2402(2) 0.7898(2) 0.7620(2)
C5 C -0.0122(2) 1.0399(2) 0.6712(2)
H20 H 0.0076 1.0628 0.6666
C6 C -0.04609(18) 0.9789(2) 0.6999(2)
H21 H -0.0522 0.9549 0.7178
C7 C -0.0720(2) 0.9936(2) 0.66400(19)
H22 H -0.0978 0.9807 0.6538
C8 C -0.0610(2) 1.0542(2) 0.60920(19)
Cu1 Cu 0.13167(3) 0.92869(2) 0.80451(2)
Cu2 Cu 0.03628(4) 1.0000 0.7500
I1 I 0.096868(16) 0.903841(15) 0.877032(16)
N1 N 0.17999(18) 0.88546(19) 0.79833(18)
N2 N 0.22486(19) 0.82649(18) 0.78178(18)
N3 N 0.21760(19) 0.77916(18) 0.72586(19)
N4 N -0.00925(19) 1.00719(18) 0.70372(18)
N5 N -0.05134(18) 1.03153(19) 0.64653(18)
N6 N -0.03620(18) 1.0895(2) 0.5962(2)
S1 S 0.08237(6) 0.93916(6) 0.74613(6)
W1 W 0.1250 1.0000 0.7500
C1G C 0.2313(2) 0.6862(3) 0.6508(3)
C1J C 0.3492(3) 0.7313(2) 0.8138(3)
C1R C 0.0638(3) 0.9813(2) 0.5992(3)
C1T C 0.0187(2) 1.0992(3) 0.4362(3)
C1O C -0.0992(3) 0.9362(3) 0.4813(2)
C1OA C 0.0638(3) 1.0187(2) 0.9008(3)
C1SA C 0.0187(2) 0.9008(3) 1.0638(3)
C1KA C -0.0992(3) 1.0638(3) 1.0187(2)
C1AA C 0.1862(3) 1.1508(3) 0.7313(2)
C1DA C 0.2313(2) 1.3138(3) 0.8492(3)
C1FA C 0.3492(3) 1.2687(2) 0.6862(3)
C1I C 0.1508(3) 1.2687(2) 0.3138(3)
C1A C 0.3138(3) 1.1508(3) 0.2687(2)
C1E C 0.2687(2) 1.3138(3) 0.1508(3)
C1HA C -0.1508(3) 1.2313(2) 0.3138(3)
C1X C -0.3138(3) 1.3492(3) 0.2687(2)
C1EA C -0.2687(2) 1.1862(3) 0.1508(3)
C1F C -0.2687(2) 0.8138(3) 0.3492(3)
C1H C -0.1508(3) 0.7687(2) 0.1862(3)
C1C C -0.3138(3) 0.6508(3) 0.2313(2)
C1CA C -0.2313(2) 0.8138(3) 0.6508(3)
C1GA C -0.3492(3) 0.7687(2) 0.8138(3)
C1Y C -0.1862(3) 0.6508(3) 0.7687(2)
H17G H 0.2549 0.6681 0.6581
H17J H 0.3419 0.7549 0.8319
H17R H 0.0819 1.0049 0.5919
H17T H -0.0049 1.0919 0.4181
H17O H -0.0919 0.9181 0.5049
H17OA H 0.0819 0.9951 0.9081
H17SA H -0.0049 0.9081 1.0819
H17KA H -0.0919 1.0819 0.9951
H17AA H 0.1681 1.1581 0.7549
H17DA H 0.2549 1.3319 0.8419
H17FA H 0.3419 1.2451 0.6681
H17I H 0.1581 1.2451 0.3319
H17A H 0.3319 1.1581 0.2451
H17E H 0.2451 1.3319 0.1581
H17HA H -0.1581 1.2549 0.3319
H17X H -0.3319 1.3419 0.2451
H17EA H -0.2451 1.1681 0.1581
H17F H -0.2451 0.8319 0.3419
H17H H -0.1581 0.7451 0.1681
H17C H -0.3319 0.6581 0.2549
H17CA H -0.2549 0.8319 0.6581
H17GA H -0.3419 0.7451 0.8319
H17Y H -0.1681 0.6581 0.7451
C2G C 0.1709(2) 0.7146(2) 0.6154(2)
C2J C 0.3846(2) 0.6709(2) 0.7854(2)
C2R C 0.0354(2) 0.9209(2) 0.6346(2)
C2T C 0.0791(2) 1.1346(2) 0.4646(2)
C2O C -0.1346(2) 0.9646(2) 0.4209(2)
C2OA C 0.0354(2) 1.0791(2) 0.8654(2)
C2SA C 0.0791(2) 0.8654(2) 1.0354(2)
C2KA C -0.1346(2) 1.0354(2) 1.0791(2)
C2AA C 0.2146(2) 1.1154(2) 0.6709(2)
C2DA C 0.1709(2) 1.2854(2) 0.8846(2)
C2FA C 0.3846(2) 1.3291(2) 0.7146(2)
C2I C 0.1154(2) 1.3291(2) 0.2854(2)
C2A C 0.2854(2) 1.1154(2) 0.3291(2)
C2E C 0.3291(2) 1.2854(2) 0.1154(2)
C2HA C -0.1154(2) 1.1709(2) 0.2854(2)
C2X C -0.2854(2) 1.3846(2) 0.3291(2)
C2EA C -0.3291(2) 1.2146(2) 0.1154(2)
C2F C -0.3291(2) 0.7854(2) 0.3846(2)
C2H C -0.1154(2) 0.8291(2) 0.2146(2)
C2C C -0.2854(2) 0.6154(2) 0.1709(2)
C2CA C -0.1709(2) 0.7854(2) 0.6154(2)
C2GA C -0.3846(2) 0.8291(2) 0.7854(2)
C2Y C -0.2146(2) 0.6154(2) 0.8291(2)
H18G H 0.1479 0.7185 0.5957
H18J H 0.4043 0.6479 0.7815
H18R H 0.0315 0.8979 0.6543
H18T H 0.1021 1.1543 0.4685
H18O H -0.1543 0.9685 0.3979
H18OA H 0.0315 1.1021 0.8457
H18SA H 0.1021 0.8457 1.0315
H18KA H -0.1543 1.0315 1.1021
H18AA H 0.2185 1.0957 0.6479
H18DA H 0.1479 1.2815 0.9043
H18FA H 0.4043 1.3521 0.7185
H18I H 0.0957 1.3521 0.2815
H18A H 0.2815 1.0957 0.3521
H18E H 0.3521 1.2815 0.0957
H18HA H -0.0957 1.1479 0.2815
H18X H -0.2815 1.4043 0.3521
H18EA H -0.3521 1.2185 0.0957
H18F H -0.3521 0.7815 0.4043
H18H H -0.0957 0.8521 0.2185
H18C H -0.2815 0.5957 0.1479
H18CA H -0.1479 0.7815 0.5957
H18GA H -0.4043 0.8521 0.7815
H18Y H -0.2185 0.5957 0.8521
C3G C 0.1809(2) 0.7424(2) 0.6510(2)
C3J C 0.3490(2) 0.6809(2) 0.7576(2)
C3R C 0.0076(2) 0.9309(2) 0.5990(2)
C3T C 0.0691(2) 1.0990(2) 0.4924(2)
C3O C -0.0990(2) 0.9924(2) 0.4309(2)
C3OA C 0.0076(2) 1.0691(2) 0.9010(2)
C3SA C 0.0691(2) 0.9010(2) 1.0076(2)
C3KA C -0.0990(2) 1.0076(2) 1.0691(2)
C3AA C 0.2424(2) 1.1510(2) 0.6809(2)
C3DA C 0.1809(2) 1.2576(2) 0.8490(2)
C3FA C 0.3490(2) 1.3191(2) 0.7424(2)
C3I C 0.1510(2) 1.3191(2) 0.2576(2)
C3A C 0.2576(2) 1.1510(2) 0.3191(2)
C3E C 0.3191(2) 1.2576(2) 0.1510(2)
C3HA C -0.1510(2) 1.1809(2) 0.2576(2)
C3X C -0.2576(2) 1.3490(2) 0.3191(2)
C3EA C -0.3191(2) 1.2424(2) 0.1510(2)
C3F C -0.3191(2) 0.7576(2) 0.3490(2)
C3H C -0.1510(2) 0.8191(2) 0.2424(2)
C3C C -0.2576(2) 0.6510(2) 0.1809(2)
C3CA C -0.1809(2) 0.7576(2) 0.6510(2)
C3GA C -0.3490(2) 0.8191(2) 0.7576(2)
C3Y C -0.2424(2) 0.6510(2) 0.8191(2)
H19G H 0.1657 0.7679 0.6587
H19J H 0.3413 0.6657 0.7321
H19R H -0.0179 0.9157 0.5913
H19T H 0.0843 1.0913 0.5179
H19O H -0.0913 1.0179 0.4157
H19OA H -0.0179 1.0843 0.9087
H19SA H 0.0843 0.9087 0.9821
H19KA H -0.0913 0.9821 1.0843
H19AA H 0.2679 1.1587 0.6657
H19DA H 0.1657 1.2321 0.8413
H19FA H 0.3413 1.3343 0.7679
H19I H 0.1587 1.3343 0.2321
H19A H 0.2321 1.1587 0.3343
H19E H 0.3343 1.2321 0.1587
H19HA H -0.1587 1.1657 0.2321
H19X H -0.2321 1.3413 0.3343
H19EA H -0.3343 1.2679 0.1587
H19F H -0.3343 0.7321 0.3413
H19H H -0.1587 0.8343 0.2679
H19C H -0.2321 0.6587 0.1657
H19CA H -0.1657 0.7321 0.6587
H19GA H -0.3413 0.8343 0.7321
H19Y H -0.2679 0.6587 0.8343
C4G C 0.2380(2) 0.7402(2) 0.7102(2)
C4J C 0.2898(2) 0.7380(2) 0.7598(2)
C4R C 0.0098(2) 0.9880(2) 0.5398(2)
C4T C 0.0120(2) 1.0398(2) 0.4902(2)
C4O C -0.0398(2) 0.9902(2) 0.4880(2)
C4OA C 0.0098(2) 1.0120(2) 0.9602(2)
C4SA C 0.0120(2) 0.9602(2) 1.0098(2)
C4KA C -0.0398(2) 1.0098(2) 1.0120(2)
C4AA C 0.2402(2) 1.2102(2) 0.7380(2)
C4DA C 0.2380(2) 1.2598(2) 0.7898(2)
C4FA C 0.2898(2) 1.2620(2) 0.7402(2)
C4I C 0.2102(2) 1.2620(2) 0.2598(2)
C4A C 0.2598(2) 1.2102(2) 0.2620(2)
C4E C 0.2620(2) 1.2598(2) 0.2102(2)
C4HA C -0.2102(2) 1.2380(2) 0.2598(2)
C4X C -0.2598(2) 1.2898(2) 0.2620(2)
C4EA C -0.2620(2) 1.2402(2) 0.2102(2)
C4F C -0.2620(2) 0.7598(2) 0.2898(2)
C4H C -0.2102(2) 0.7620(2) 0.2402(2)
C4C C -0.2598(2) 0.7102(2) 0.2380(2)
C4CA C -0.2380(2) 0.7598(2) 0.7102(2)
C4GA C -0.2898(2) 0.7620(2) 0.7598(2)
C4Y C -0.2402(2) 0.7102(2) 0.7620(2)
C5I C -0.0399(2) 1.1712(2) 0.5122(2)
C5F C -0.1712(2) 1.0122(2) 0.5399(2)
C5AA C -0.0122(2) 0.9601(2) 0.8288(2)
C5IA C -0.0399(2) 0.8288(2) 0.9878(2)
C5EA C -0.1712(2) 0.9878(2) 0.9601(2)
C5R C 0.2622(2) 1.0788(2) 0.7899(2)
C5L C 0.2899(2) 1.2378(2) 0.9212(2)
C5U C 0.4212(2) 1.2101(2) 0.7622(2)
C5OA C 0.2622(2) 0.9212(2) 0.7101(2)
C5LA C 0.2899(2) 0.7622(2) 0.5788(2)
C5RA C 0.4212(2) 0.7899(2) 0.7378(2)
C5HA C 0.0399(2) 1.3288(2) 0.5122(2)
C5BA C 0.1712(2) 1.4878(2) 0.5399(2)
C5Y C 0.0122(2) 1.4601(2) 0.6712(2)
C5CA C -0.3288(2) 1.0122(2) 0.4601(2)
C5Z C -0.4878(2) 1.0399(2) 0.3288(2)
C5FA C -0.4601(2) 1.1712(2) 0.4878(2)
C5H C 0.0399(2) 0.6712(2) 0.9878(2)
C5E C 0.1712(2) 0.5122(2) 0.9601(2)
C5B C 0.0122(2) 0.5399(2) 0.8288(2)
C5D C -0.3288(2) 0.9878(2) 1.0399(2)
C5A C -0.4878(2) 0.9601(2) 1.1712(2)
C5J C -0.4601(2) 0.8288(2) 1.0122(2)
H20I H -0.0628 1.1666 0.4924
H20F H -0.1666 0.9924 0.5628
H20AA H 0.0076 0.9372 0.8334
H20IA H -0.0628 0.8334 1.0076
H20EA H -0.1666 1.0076 0.9372
H20R H 0.2424 1.0834 0.8128
H20L H 0.3128 1.2576 0.9166
H20U H 0.4166 1.1872 0.7424
H20OA H 0.2424 0.9166 0.6872
H20LA H 0.3128 0.7424 0.5834
H20RA H 0.4166 0.8128 0.7576
H20HA H 0.0628 1.3334 0.4924
H20BA H 0.1666 1.5076 0.5628
H20Y H -0.0076 1.4372 0.6666
H20CA H -0.3334 0.9924 0.4372
H20Z H -0.5076 1.0628 0.3334
H20FA H -0.4372 1.1666 0.5076
H20H H 0.0628 0.6666 1.0076
H20E H 0.1666 0.4924 0.9372
H20B H -0.0076 0.5628 0.8334
H20D H -0.3334 1.0076 1.0628
H20A H -0.5076 0.9372 1.1666
H20J H -0.4372 0.8334 0.9924
C6I C 0.0211(2) 1.1999(2) 0.54609(18)
C6F C -0.1999(2) 1.04609(18) 0.4789(2)
C6AA C -0.04609(18) 1.0211(2) 0.8001(2)
C6IA C 0.0211(2) 0.8001(2) 0.95391(18)
C6EA C -0.1999(2) 0.95391(18) 1.0211(2)
C6R C 0.29609(18) 1.0501(2) 0.7289(2)
C6L C 0.2289(2) 1.20391(18) 0.9499(2)
C6U C 0.4499(2) 1.2711(2) 0.79609(18)
C6OA C 0.29609(18) 0.9499(2) 0.7711(2)
C6LA C 0.2289(2) 0.79609(18) 0.5501(2)
C6RA C 0.4499(2) 0.7289(2) 0.70391(18)
C6HA C -0.0211(2) 1.3001(2) 0.54609(18)
C6BA C 0.1999(2) 1.45391(18) 0.4789(2)
C6Y C 0.04609(18) 1.5211(2) 0.6999(2)
C6CA C -0.3001(2) 1.04609(18) 0.5211(2)
C6Z C -0.45391(18) 0.9789(2) 0.3001(2)
C6FA C -0.5211(2) 1.1999(2) 0.45391(18)
C6H C -0.0211(2) 0.6999(2) 0.95391(18)
C6E C 0.1999(2) 0.54609(18) 1.0211(2)
C6B C 0.04609(18) 0.4789(2) 0.8001(2)
C6D C -0.3001(2) 0.95391(18) 0.9789(2)
C6A C -0.45391(18) 1.0211(2) 1.1999(2)
C6J C -0.5211(2) 0.8001(2) 1.04609(18)
H21I H 0.0451 1.2178 0.5522
H21F H -0.2178 1.0522 0.4549
H21AA H -0.0522 1.0451 0.7822
H21IA H 0.0451 0.7822 0.9478
H21EA H -0.2178 0.9478 1.0451
H21R H 0.3022 1.0322 0.7049
H21L H 0.2049 1.1978 0.9678
H21U H 0.4678 1.2951 0.8022
H21OA H 0.3022 0.9678 0.7951
H21LA H 0.2049 0.8022 0.5322
H21RA H 0.4678 0.7049 0.6978
H21HA H -0.0451 1.2822 0.5522
H21BA H 0.2178 1.4478 0.4549
H21Y H 0.0522 1.5451 0.7178
H21CA H -0.2822 1.0522 0.5451
H21Z H -0.4478 0.9549 0.2822
H21FA H -0.5451 1.2178 0.4478
H21H H -0.0451 0.7178 0.9478
H21E H 0.2178 0.5522 1.0451
H21B H 0.0522 0.4549 0.7822
H21D H -0.2822 0.9478 0.9549
H21A H -0.4478 1.0451 1.2178
H21J H -0.5451 0.7822 1.0522
C7I C 0.0064(2) 1.16400(19) 0.5720(2)
C7F C -0.16400(19) 1.0720(2) 0.4936(2)
C7AA C -0.0720(2) 1.0064(2) 0.83600(19)
C7IA C 0.0064(2) 0.83600(19) 0.9280(2)
C7EA C -0.16400(19) 0.9280(2) 1.0064(2)
C7R C 0.3220(2) 1.08600(19) 0.7436(2)
C7L C 0.2436(2) 1.1780(2) 0.91400(19)
C7U C 0.41400(19) 1.2564(2) 0.8220(2)
C7OA C 0.3220(2) 0.91400(19) 0.7564(2)
C7LA C 0.2436(2) 0.8220(2) 0.58600(19)
C7RA C 0.41400(19) 0.7436(2) 0.6780(2)
C7HA C -0.0064(2) 1.33600(19) 0.5720(2)
C7BA C 0.16400(19) 1.4280(2) 0.4936(2)
C7Y C 0.0720(2) 1.5064(2) 0.66400(19)
C7CA C -0.33600(19) 1.0720(2) 0.5064(2)
C7Z C -0.4280(2) 0.9936(2) 0.33600(19)
C7FA C -0.5064(2) 1.16400(19) 0.4280(2)
C7H C -0.0064(2) 0.66400(19) 0.9280(2)
C7E C 0.16400(19) 0.5720(2) 1.0064(2)
C7B C 0.0720(2) 0.4936(2) 0.83600(19)
C7D C -0.33600(19) 0.9280(2) 0.9936(2)
C7A C -0.4280(2) 1.0064(2) 1.16400(19)
C7J C -0.5064(2) 0.83600(19) 1.0720(2)
H22I H 0.0193 1.1538 0.5978
H22F H -0.1538 1.0978 0.4807
H22AA H -0.0978 1.0193 0.8462
H22IA H 0.0193 0.8462 0.9022
H22EA H -0.1538 0.9022 1.0193
H22R H 0.3478 1.0962 0.7307
H22L H 0.2307 1.1522 0.9038
H22U H 0.4038 1.2693 0.8478
H22OA H 0.3478 0.9038 0.7693
H22LA H 0.2307 0.8478 0.5962
H22RA H 0.4038 0.7307 0.6522
H22HA H -0.0193 1.3462 0.5978
H22BA H 0.1538 1.4022 0.4807
H22Y H 0.0978 1.5193 0.6538
H22CA H -0.3462 1.0978 0.5193
H22Z H -0.4022 0.9807 0.3462
H22FA H -0.5193 1.1538 0.4022
H22H H -0.0193 0.6538 0.9022
H22E H 0.1538 0.5978 1.0193
H22B H 0.0978 0.4807 0.8462
H22D H -0.3462 0.9022 0.9807
H22A H -0.4022 1.0193 1.1538
H22J H -0.5193 0.8462 1.0978
C8I C -0.0542(2) 1.10920(19) 0.5610(2)
C8F C -0.10920(19) 1.0610(2) 0.5542(2)
C8AA C -0.0610(2) 0.9458(2) 0.89080(19)
C8IA C -0.0542(2) 0.89080(19) 0.9390(2)
C8EA C -0.10920(19) 0.9390(2) 0.9458(2)
C8R C 0.3110(2) 1.14080(19) 0.8042(2)
C8L C 0.3042(2) 1.1890(2) 0.85920(19)
C8U C 0.35920(19) 1.1958(2) 0.8110(2)
C8OA C 0.3110(2) 0.85920(19) 0.6958(2)
C8LA C 0.3042(2) 0.8110(2) 0.64080(19)
C8RA C 0.35920(19) 0.8042(2) 0.6890(2)
C8HA C 0.0542(2) 1.39080(19) 0.5610(2)
C8BA C 0.10920(19) 1.4390(2) 0.5542(2)
C8Y C 0.0610(2) 1.4458(2) 0.60920(19)
C8CA C -0.39080(19) 1.0610(2) 0.4458(2)
C8Z C -0.4390(2) 1.0542(2) 0.39080(19)
C8FA C -0.4458(2) 1.10920(19) 0.4390(2)
C8H C 0.0542(2) 0.60920(19) 0.9390(2)
C8E C 0.10920(19) 0.5610(2) 0.9458(2)
C8B C 0.0610(2) 0.5542(2) 0.89080(19)
C8D C -0.39080(19) 0.9390(2) 1.0542(2)
C8A C -0.4390(2) 0.9458(2) 1.10920(19)
C8J C -0.4458(2) 0.89080(19) 1.0610(2)
Cu1R Cu 0.11833(3) 0.94549(2) 0.67869(2)
Cu1OA Cu 0.11833(3) 1.05451(2) 0.82131(2)
Cu1AA Cu 0.13167(3) 1.07131(2) 0.69549(2)
Cu1G Cu 0.19549(2) 0.63167(3) 0.57131(2)
Cu1J Cu 0.42869(2) 0.69549(2) 0.86833(3)
Cu1T Cu 0.05451(2) 1.17869(2) 0.38167(3)
Cu1O Cu -0.17869(2) 0.88167(3) 0.44549(2)
Cu1SA Cu 0.05451(2) 0.82131(2) 1.11833(3)
Cu1KA Cu -0.17869(2) 1.11833(3) 1.05451(2)
Cu1DA Cu 0.19549(2) 1.36833(3) 0.92869(2)
Cu1FA Cu 0.42869(2) 1.30451(2) 0.63167(3)
Cu1I Cu 0.07131(2) 1.30451(2) 0.36833(3)
Cu1HA Cu -0.07131(2) 1.19549(2) 0.36833(3)
Cu1F Cu -0.30451(2) 0.86833(3) 0.42869(2)
Cu1CA Cu -0.19549(2) 0.86833(3) 0.57131(2)
Cu1IA Cu 0.07131(2) 0.69549(2) 1.13167(3)
Cu1H Cu -0.07131(2) 0.80451(2) 1.13167(3)
Cu1EA Cu -0.30451(2) 1.13167(3) 1.07131(2)
Cu1D Cu -0.19549(2) 1.13167(3) 0.92869(2)
Cu1L Cu 0.17869(2) 1.38167(3) 1.05451(2)
Cu1MA Cu 0.32131(2) 1.38167(3) 0.94549(2)
Cu1U Cu 0.55451(2) 1.32131(2) 0.61833(3)
Cu1TA Cu 0.44549(2) 1.17869(2) 0.61833(3)
Cu1UA Cu -0.05451(2) 1.32131(2) 0.38167(3)
Cu1JA Cu -0.32131(2) 0.88167(3) 0.55451(2)
Cu1V Cu -0.05451(2) 0.67869(2) 1.11833(3)
Cu1N Cu -0.32131(2) 1.11833(3) 0.94549(2)
Cu1E Cu 0.30451(2) 1.36833(3) 1.07131(2)
Cu1K Cu 0.57131(2) 1.19549(2) 0.63167(3)
Cu1LA Cu 0.17869(2) 0.61833(3) 0.44549(2)
Cu1M Cu 0.32131(2) 0.61833(3) 0.55451(2)
Cu1BA Cu 0.30451(2) 0.63167(3) 0.42869(2)
Cu1RA Cu 0.55451(2) 0.67869(2) 0.88167(3)
Cu1W Cu 0.44549(2) 0.82131(2) 0.88167(3)
Cu1GA Cu 0.57131(2) 0.80451(2) 0.86833(3)
Cu1A Cu 0.36833(3) 1.07131(2) 0.30451(2)
Cu1E_2 Cu 0.30451(2) 1.36833(3) 0.07131(2)
Cu1X Cu -0.36833(3) 1.42869(2) 0.30451(2)
Cu1EA_2 Cu -0.30451(2) 1.13167(3) 0.07131(2)
Cu1H_2 Cu -0.07131(2) 0.80451(2) 0.13167(3)
Cu1C Cu -0.36833(3) 0.57131(2) 0.19549(2)
Cu1GA_2 Cu -0.42869(2) 0.80451(2) 0.86833(3)
Cu1Y Cu -0.13167(3) 0.57131(2) 0.80451(2)
Cu2R Cu 0.21372(4) 1.0000 0.7500
Cu2I Cu 0.0000 1.2500 0.46372(4)
Cu2F Cu -0.2500 0.96372(4) 0.5000
Cu2H Cu 0.0000 0.7500 1.03628(4)
Cu2D Cu -0.2500 1.03628(4) 1.0000
Cu2L Cu 0.2500 1.28628(4) 1.0000
Cu2U Cu 0.5000 1.2500 0.71372(4)
Cu2M Cu 0.2500 0.71372(4) 0.5000
Cu2W Cu 0.5000 0.7500 0.78628(4)
Cu2G Cu 0.2500 1.53628(4) 0.5000
Cu2B Cu -0.03628(4) 1.5000 0.7500
Cu2A Cu -0.53628(4) 1.0000 0.2500
Cu2K Cu -0.5000 1.2500 0.53628(4)
Cu2E Cu 0.2500 0.46372(4) 1.0000
Cu2B_2 Cu -0.03628(4) 0.5000 0.7500
Cu2A_2 Cu -0.53628(4) 1.0000 1.2500
Cu2J Cu -0.5000 0.7500 0.96372(4)
Cu2G_2 Cu 0.2500 0.53628(4) 0.5000
Cu2J_2 Cu 0.5000 0.7500 0.96372(4)
Cu2T Cu 0.0000 1.2500 0.28628(4)
Cu2O Cu -0.2500 0.78628(4) 0.5000
I1R I 0.153132(16) 0.872968(16) 0.653841(15)
I1OA I 0.153132(16) 1.127032(16) 0.846159(15)
I1AA I 0.096868(16) 1.096159(15) 0.622968(16)
I1G I 0.122968(16) 0.596868(16) 0.596159(15)
I1J I 0.403841(15) 0.622968(16) 0.903132(16)
I1T I 0.127032(16) 1.153841(15) 0.346868(16)
I1O I -0.153841(15) 0.846868(16) 0.372968(16)
I1SA I 0.127032(16) 0.846159(15) 1.153132(16)
I1KA I -0.153841(15) 1.153132(16) 1.127032(16)
I1DA I 0.122968(16) 1.403132(16) 0.903841(15)
I1FA I 0.403841(15) 1.377032(16) 0.596868(16)
I1I I 0.096159(15) 1.377032(16) 0.403132(16)
I1HA I -0.096159(15) 1.122968(16) 0.403132(16)
I1F I -0.377032(16) 0.903132(16) 0.403841(15)
I1CA I -0.122968(16) 0.903132(16) 0.596159(15)
I1IA I 0.096159(15) 0.622968(16) 1.096868(16)
I1H I -0.096159(15) 0.877032(16) 1.096868(16)
I1EA I -0.377032(16) 1.096868(16) 1.096159(15)
I1D I -0.122968(16) 1.096868(16) 0.903841(15)
I1L I 0.153841(15) 1.346868(16) 1.127032(16)
I1MA I 0.346159(15) 1.346868(16) 0.872968(16)
I1U I 0.627032(16) 1.346159(15) 0.653132(16)
I1TA I 0.372968(16) 1.153841(15) 0.653132(16)
N1G N 0.20167(18) 0.67999(18) 0.61454(19)
N1J N 0.38546(19) 0.70167(18) 0.82001(18)
N1R N 0.07001(18) 0.95167(18) 0.63546(19)
N1T N 0.04833(18) 1.13546(19) 0.42999(18)
N1O N -0.13546(19) 0.92999(18) 0.45167(18)
N1OA N 0.07001(18) 1.04833(18) 0.86454(19)
N1SA N 0.04833(18) 0.86454(19) 1.07001(18)
N1KA N -0.13546(19) 1.07001(18) 1.04833(18)
N1AA N 0.17999(18) 1.11454(19) 0.70167(18)
N1DA N 0.20167(18) 1.32001(18) 0.88546(19)
N1FA N 0.38546(19) 1.29833(18) 0.67999(18)
N1I N 0.11454(19) 1.29833(18) 0.32001(18)
N1A N 0.32001(18) 1.11454(19) 0.29833(18)
N1E N 0.29833(18) 1.32001(18) 0.11454(19)
N1HA N -0.11454(19) 1.20167(18) 0.32001(18)
N1X N -0.32001(18) 1.38546(19) 0.29833(18)
N1EA N -0.29833(18) 1.17999(18) 0.11454(19)
N1F N -0.29833(18) 0.82001(18) 0.38546(19)
N1H N -0.11454(19) 0.79833(18) 0.17999(18)
N1C N -0.32001(18) 0.61454(19) 0.20167(18)
N1CA N -0.20167(18) 0.82001(18) 0.61454(19)
N1GA N -0.38546(19) 0.79833(18) 0.82001(18)
N1Y N -0.17999(18) 0.61454(19) 0.79833(18)
N1IA N 0.11454(19) 0.70167(18) 1.17999(18)
N1H_2 N -0.11454(19) 0.79833(18) 1.17999(18)
N1EA_2 N -0.29833(18) 1.17999(18) 1.11454(19)
N1D N -0.20167(18) 1.17999(18) 0.88546(19)
N1L N 0.13546(19) 1.42999(18) 1.04833(18)
N1MA N 0.36454(19) 1.42999(18) 0.95167(18)
N1U N 0.54833(18) 1.36454(19) 0.57001(18)
N1TA N 0.45167(18) 1.13546(19) 0.57001(18)
N2G N 0.21822(18) 0.72486(19) 0.67351(18)
N2J N 0.32649(18) 0.71822(18) 0.77514(19)
N2R N 0.02514(19) 0.96822(18) 0.57649(18)
N2T N 0.03178(18) 1.07649(18) 0.47486(19)
N2O N -0.07649(18) 0.97486(19) 0.46822(18)
N2OA N 0.02514(19) 1.03178(18) 0.92351(18)
N2SA N 0.03178(18) 0.92351(18) 1.02514(19)
N2KA N -0.07649(18) 1.02514(19) 1.03178(18)
N2AA N 0.22486(19) 1.17351(18) 0.71822(18)
N2DA N 0.21822(18) 1.27514(19) 0.82649(18)
N2FA N 0.32649(18) 1.28178(18) 0.72486(19)
N2I N 0.17351(18) 1.28178(18) 0.27514(19)
N2A N 0.27514(19) 1.17351(18) 0.28178(18)
N2E N 0.28178(18) 1.27514(19) 0.17351(18)
N2HA N -0.17351(18) 1.21822(18) 0.27514(19)
N2X N -0.27514(19) 1.32649(18) 0.28178(18)
N2EA N -0.28178(18) 1.22486(19) 0.17351(18)
N2F N -0.28178(18) 0.77514(19) 0.32649(18)
N2H N -0.17351(18) 0.78178(18) 0.22486(19)
N2C N -0.27514(19) 0.67351(18) 0.21822(18)
N2CA N -0.21822(18) 0.77514(19) 0.67351(18)
N2GA N -0.32649(18) 0.78178(18) 0.77514(19)
N2Y N -0.22486(19) 0.67351(18) 0.78178(18)
N3G N 0.27414(19) 0.71760(19) 0.72084(18)
N3J N 0.27916(18) 0.77414(19) 0.78240(19)
N3R N 0.03240(19) 1.02414(19) 0.52916(18)
N3T N -0.02414(19) 1.02916(18) 0.46760(19)
N3O N -0.02916(18) 0.96760(19) 0.52414(19)
N3OA N 0.03240(19) 0.97586(19) 0.97084(18)
N3SA N -0.02414(19) 0.97084(18) 1.03240(19)
N3KA N -0.02916(18) 1.03240(19) 0.97586(19)
N3AA N 0.21760(19) 1.22084(18) 0.77414(19)
N3DA N 0.27414(19) 1.28240(19) 0.77916(18)
N3FA N 0.27916(18) 1.22586(19) 0.71760(19)
N3I N 0.22084(18) 1.22586(19) 0.28240(19)
N3A N 0.28240(19) 1.22084(18) 0.22586(19)
N3E N 0.22586(19) 1.28240(19) 0.22084(18)
N3HA N -0.22084(18) 1.27414(19) 0.28240(19)
N3X N -0.28240(19) 1.27916(18) 0.22586(19)
N3EA N -0.22586(19) 1.21760(19) 0.22084(18)
N3F N -0.22586(19) 0.78240(19) 0.27916(18)
N3H N -0.22084(18) 0.72586(19) 0.21760(19)
N3C N -0.28240(19) 0.72084(18) 0.27414(19)
N3CA N -0.27414(19) 0.78240(19) 0.72084(18)
N3GA N -0.27916(18) 0.72586(19) 0.78240(19)
N3Y N -0.21760(19) 0.72084(18) 0.72586(19)
N4I N -0.00719(18) 1.20372(18) 0.50925(19)
N4F N -0.20372(18) 1.00925(19) 0.50719(18)
N4AA N -0.00925(19) 0.99281(18) 0.79628(18)
N4IA N -0.00719(18) 0.79628(18) 0.99075(19)
N4EA N -0.20372(18) 0.99075(19) 0.99281(18)
N4R N 0.25925(19) 1.04628(18) 0.75719(18)
N4L N 0.25719(18) 1.24075(19) 0.95372(18)
N4U N 0.45372(18) 1.24281(18) 0.75925(19)
N4OA N 0.25925(19) 0.95372(18) 0.74281(18)
N4LA N 0.25719(18) 0.75925(19) 0.54628(18)
N4RA N 0.45372(18) 0.75719(18) 0.74075(19)
N4HA N 0.00719(18) 1.29628(18) 0.50925(19)
N4BA N 0.20372(18) 1.49075(19) 0.50719(18)
N4Y N 0.00925(19) 1.49281(18) 0.70372(18)
N4CA N -0.29628(18) 1.00925(19) 0.49281(18)
N4Z N -0.49075(19) 1.00719(18) 0.29628(18)
N4FA N -0.49281(18) 1.20372(18) 0.49075(19)
N4H N 0.00719(18) 0.70372(18) 0.99075(19)
N4E N 0.20372(18) 0.50925(19) 0.99281(18)
N4B N 0.00925(19) 0.50719(18) 0.79628(18)
N4D N -0.29628(18) 0.99075(19) 1.00719(18)
N4A N -0.49075(19) 0.99281(18) 1.20372(18)
N4J N -0.49281(18) 0.79628(18) 1.00925(19)
N4MA N 0.24281(18) 1.24075(19) 1.04628(18)
N4TA N 0.54628(18) 1.25719(18) 0.75925(19)
N4M N 0.24281(18) 0.75925(19) 0.45372(18)
N4W N 0.54628(18) 0.74281(18) 0.74075(19)
N4G N 0.29628(18) 1.49075(19) 0.49281(18)
N4B_2 N 0.00925(19) 1.50719(18) 0.79628(18)
N5I N -0.03153(19) 1.14653(18) 0.55134(18)
N5F N -0.14653(18) 1.05134(18) 0.53153(19)
N5AA N -0.05134(18) 0.96847(19) 0.85347(18)
N5IA N -0.03153(19) 0.85347(18) 0.94866(18)
N5EA N -0.14653(18) 0.94866(18) 0.96847(19)
N5R N 0.30134(18) 1.10347(18) 0.78153(19)
N5L N 0.28153(19) 1.19866(18) 0.89653(18)
N5U N 0.39653(18) 1.21847(19) 0.80134(18)
N5OA N 0.30134(18) 0.89653(18) 0.71847(19)
N5LA N 0.28153(19) 0.80134(18) 0.60347(18)
N5RA N 0.39653(18) 0.78153(19) 0.69866(18)
N5HA N 0.03153(19) 1.35347(18) 0.55134(18)
N5BA N 0.14653(18) 1.44866(18) 0.53153(19)
N5Y N 0.05134(18) 1.46847(19) 0.64653(18)
N5CA N -0.35347(18) 1.05134(18) 0.46847(19)
N5Z N -0.44866(18) 1.03153(19) 0.35347(18)
N5FA N -0.46847(19) 1.14653(18) 0.44866(18)
N5H N 0.03153(19) 0.64653(18) 0.94866(18)
N5E N 0.14653(18) 0.55134(18) 0.96847(19)
N5B N 0.05134(18) 0.53153(19) 0.85347(18)
N5D N -0.35347(18) 0.94866(18) 1.03153(19)
N5A N -0.44866(18) 0.96847(19) 1.14653(18)
N5J N -0.46847(19) 0.85347(18) 1.05134(18)
N6I N -0.0895(2) 1.0962(2) 0.53620(18)
N6F N -0.0962(2) 1.03620(18) 0.5895(2)
N6AA N -0.03620(18) 0.9105(2) 0.9038(2)
N6IA N -0.0895(2) 0.9038(2) 0.96380(18)
N6EA N -0.0962(2) 0.96380(18) 0.9105(2)
N6R N 0.28620(18) 1.1538(2) 0.8395(2)
N6L N 0.3395(2) 1.21380(18) 0.8462(2)
N6U N 0.3462(2) 1.1605(2) 0.78620(18)
N6OA N 0.28620(18) 0.8462(2) 0.6605(2)
N6LA N 0.3395(2) 0.78620(18) 0.6538(2)
N6RA N 0.3462(2) 0.8395(2) 0.71380(18)
N6HA N 0.0895(2) 1.4038(2) 0.53620(18)
N6BA N 0.0962(2) 1.46380(18) 0.5895(2)
N6Y N 0.03620(18) 1.4105(2) 0.5962(2)
N6CA N -0.4038(2) 1.03620(18) 0.4105(2)
N6Z N -0.46380(18) 1.0895(2) 0.4038(2)
N6FA N -0.4105(2) 1.0962(2) 0.46380(18)
N6H N 0.0895(2) 0.5962(2) 0.96380(18)
N6E N 0.0962(2) 0.53620(18) 0.9105(2)
N6B N 0.03620(18) 0.5895(2) 0.9038(2)
N6D N -0.4038(2) 0.96380(18) 1.0895(2)
N6A N -0.46380(18) 0.9105(2) 1.0962(2)
N6J N -0.4105(2) 0.9038(2) 1.03620(18)
S1R S 0.16763(6) 1.00387(6) 0.68916(6)
S1OA S 0.16763(6) 0.99613(6) 0.81084(6)
S1AA S 0.08237(6) 1.06084(6) 0.75387(6)
S1I S 0.06084(6) 1.24613(6) 0.41763(6)
S1HA S -0.06084(6) 1.25387(6) 0.41763(6)
S1F S -0.24613(6) 0.91763(6) 0.43916(6)
S1CA S -0.25387(6) 0.91763(6) 0.56084(6)
S1IA S 0.06084(6) 0.75387(6) 1.08237(6)
S1H S -0.06084(6) 0.74613(6) 1.08237(6)
S1EA S -0.24613(6) 1.08237(6) 1.06084(6)
S1D S -0.25387(6) 1.08237(6) 0.93916(6)
S1L S 0.18916(6) 1.33237(6) 0.99613(6)
S1MA S 0.31084(6) 1.33237(6) 1.00387(6)
S1U S 0.49613(6) 1.31084(6) 0.66763(6)
S1TA S 0.50387(6) 1.18916(6) 0.66763(6)
S1LA S 0.18916(6) 0.66763(6) 0.50387(6)
S1M S 0.31084(6) 0.66763(6) 0.49613(6)
S1RA S 0.49613(6) 0.68916(6) 0.83237(6)
S1W S 0.50387(6) 0.81084(6) 0.83237(6)
S1G S 0.25387(6) 0.58237(6) 0.56084(6)
S1J S 0.43916(6) 0.75387(6) 0.91763(6)
S1T S -0.00387(6) 1.18916(6) 0.33237(6)
S1O S -0.18916(6) 0.83237(6) 0.50387(6)
S1SA S -0.00387(6) 0.81084(6) 1.16763(6)
S1KA S -0.18916(6) 1.16763(6) 0.99613(6)
S1DA S 0.25387(6) 1.41763(6) 0.93916(6)
S1FA S 0.43916(6) 1.24613(6) 0.58237(6)
S1UA S 0.00387(6) 1.31084(6) 0.33237(6)
S1JA S -0.31084(6) 0.83237(6) 0.49613(6)
S1V S 0.00387(6) 0.68916(6) 1.16763(6)
S1N S -0.31084(6) 1.16763(6) 1.00387(6)
S1E S 0.24613(6) 1.41763(6) 1.06084(6)
S1BA S 0.24613(6) 1.58237(6) 0.43916(6)
S1G_2 S 0.25387(6) 1.58237(6) 0.56084(6)
S1Y S -0.08237(6) 1.56084(6) 0.74613(6)
S1B S -0.08237(6) 1.43916(6) 0.75387(6)
S1K S 0.56084(6) 1.25387(6) 0.58237(6)
W1I W 0.0000 1.2500 0.3750
W1F W -0.2500 0.8750 0.5000
W1H W 0.0000 0.7500 1.1250
W1D W -0.2500 1.1250 1.0000
W1E W 0.2500 1.3750 1.0000
W1K W 0.5000 1.2500 0.6250
W1G W 0.2500 0.6250 0.5000
W1J W 0.5000 0.7500 0.8750
O1 O 0.2741(4) 0.9721(4) 0.6186(4)
H1 H 0.2723 0.9623 0.5924
H2 H 0.2679 0.9994 0.6203
loop_
_geom_bond_atom_site_label_1
_geom_bond_atom_site_label_2
_geom_bond_site_symmetry_1
_geom_bond_site_symmetry_2
O1 H1 1_555 1_555
H2 O1 1_555 1_555
O2 H3 1_555 1_555
H4 O2 1_555 1_555
O3 H5 1_555 1_555
H6 O3 1_555 1_555
H7 O4 1_555 1_555
H8 O4 1_555 1_555
O5 H9 1_555 1_555
H10 O5 1_555 1_555
O6 H11 1_555 1_555
H12 O6 1_555 1_555
O7 H13 1_555 1_555
H14 O7 1_555 1_555
O8 H15 1_555 1_555
H16 O8 1_555 1_555
C1 H17 1_555 1_555
C2 H18 1_555 1_555
C3 C2 1_555 1_555
H19 C3 1_555 1_555
C4 N2 1_555 1_555
C5 H20 1_555 1_555
C6 H21 1_555 1_555
C7 C6 1_555 1_555
H22 C7 1_555 1_555
C8 N5 1_555 1_555
Cu1 I1 1_555 1_555
Cu2 N4 1_555 1_555
N1 C1 1_555 1_555
N2 C1 1_555 1_555
N3 C4 1_555 1_555
N4 C5 1_555 1_555
N5 C5 1_555 1_555
N6 C8 1_555 1_555
S1 Cu1 1_555 1_555
W1 S1 1_555 1_555
C1G H17G 1_555 1_555
C1J H17J 1_555 1_555
C1R H17R 1_555 1_555
C1T H17T 1_555 1_555
C1O H17O 1_555 1_555
C1OA H17OA 1_555 1_555
C1SA H17SA 1_555 1_555
C1KA H17KA 1_555 1_555
C1AA H17AA 1_555 1_555
C1DA H17DA 1_555 1_555
C1FA H17FA 1_555 1_555
C1I H17I 1_555 1_555
C1A H17A 1_555 1_555
C1E H17E 1_555 1_555
C1HA H17HA 1_555 1_555
C1X H17X 1_555 1_555
C1EA H17EA 1_555 1_555
C1F H17F 1_555 1_555
C1H H17H 1_555 1_555
C1C H17C 1_555 1_555
C1CA H17CA 1_555 1_555
C1GA H17GA 1_555 1_555
C1Y H17Y 1_555 1_555
C2G H18G 1_555 1_555
C2J H18J 1_555 1_555
C2R H18R 1_555 1_555
C2T H18T 1_555 1_555
C2O H18O 1_555 1_555
C2OA H18OA 1_555 1_555
C2SA H18SA 1_555 1_555
C2KA H18KA 1_555 1_555
C2AA H18AA 1_555 1_555
C2DA H18DA 1_555 1_555
C2FA H18FA 1_555 1_555
C2I H18I 1_555 1_555
C2A H18A 1_555 1_555
C2E H18E 1_555 1_555
C2HA H18HA 1_555 1_555
C2X H18X 1_555 1_555
C2EA H18EA 1_555 1_555
C2F H18F 1_555 1_555
C2H H18H 1_555 1_555
C2C H18C 1_555 1_555
C2CA H18CA 1_555 1_555
C2GA H18GA 1_555 1_555
C2Y H18Y 1_555 1_555
C3G C2G 1_555 1_555
C3J C2J 1_555 1_555
C3R C2R 1_555 1_555
C3T C2T 1_555 1_555
C3O C2O 1_555 1_555
C3OA C2OA 1_555 1_555
C3SA C2SA 1_555 1_555
C3KA C2KA 1_555 1_555
C3AA C2AA 1_555 1_555
C3DA C2DA 1_555 1_555
C3FA C2FA 1_555 1_555
C3I C2I 1_555 1_555
C3A C2A 1_555 1_555
C3E C2E 1_555 1_555
C3HA C2HA 1_555 1_555
C3X C2X 1_555 1_555
C3EA C2EA 1_555 1_555
C3F C2F 1_555 1_555
C3H C2H 1_555 1_555
C3C C2C 1_555 1_555
C3CA C2CA 1_555 1_555
C3GA C2GA 1_555 1_555
C3Y C2Y 1_555 1_555
H19G C3G 1_555 1_555
H19J C3J 1_555 1_555
H19R C3R 1_555 1_555
H19T C3T 1_555 1_555
H19O C3O 1_555 1_555
H19OA C3OA 1_555 1_555
H19SA C3SA 1_555 1_555
H19KA C3KA 1_555 1_555
H19AA C3AA 1_555 1_555
H19DA C3DA 1_555 1_555
H19FA C3FA 1_555 1_555
H19I C3I 1_555 1_555
H19A C3A 1_555 1_555
H19E C3E 1_555 1_555
H19HA C3HA 1_555 1_555
H19X C3X 1_555 1_555
H19EA C3EA 1_555 1_555
H19F C3F 1_555 1_555
H19H C3H 1_555 1_555
H19C C3C 1_555 1_555
H19CA C3CA 1_555 1_555
H19GA C3GA 1_555 1_555
H19Y C3Y 1_555 1_555
C4G N3 1_555 1_555
C4J N2J 1_555 1_555
C4R N2R 1_555 1_555
C4T N2T 1_555 1_555
C4O N2O 1_555 1_555
C4OA N2OA 1_555 1_555
C4SA N2SA 1_555 1_555
C4KA N2KA 1_555 1_555
C4AA N2AA 1_555 1_555
C4DA N2DA 1_555 1_555
C4FA N2FA 1_555 1_555
C4I N2I 1_555 1_555
C4A N2A 1_555 1_555
C4E N2E 1_555 1_555
C4HA N2HA 1_555 1_555
C4X N2X 1_555 1_555
C4EA N2EA 1_555 1_555
C4F N2F 1_555 1_555
C4H N2H 1_555 1_555
C4C N2C 1_555 1_555
C4CA N2CA 1_555 1_555
C4GA N2GA 1_555 1_555
C4Y N2Y 1_555 1_555
C5I H20I 1_555 1_555
C5F H20F 1_555 1_555
C5AA H20AA 1_555 1_555
C5IA H20IA 1_555 1_555
C5EA H20EA 1_555 1_555
C5R H20R 1_555 1_555
C5L H20L 1_555 1_555
C5U H20U 1_555 1_555
C5OA H20OA 1_555 1_555
C5LA H20LA 1_555 1_555
C5RA H20RA 1_555 1_555
C5HA H20HA 1_555 1_555
C5BA H20BA 1_555 1_555
C5Y H20Y 1_555 1_555
C5CA H20CA 1_555 1_555
C5Z H20Z 1_555 1_555
C5FA H20FA 1_555 1_555
C5H H20H 1_555 1_555
C5E H20E 1_555 1_555
C5B H20B 1_555 1_555
C5D H20D 1_555 1_555
C5A H20A 1_555 1_555
C5J H20J 1_555 1_555
C6I H21I 1_555 1_555
C6F H21F 1_555 1_555
C6AA H21AA 1_555 1_555
C6IA H21IA 1_555 1_555
C6EA H21EA 1_555 1_555
C6R H21R 1_555 1_555
C6L H21L 1_555 1_555
C6U H21U 1_555 1_555
C6OA H21OA 1_555 1_555
C6LA H21LA 1_555 1_555
C6RA H21RA 1_555 1_555
C6HA H21HA 1_555 1_555
C6BA H21BA 1_555 1_555
C6Y H21Y 1_555 1_555
C6CA H21CA 1_555 1_555
C6Z H21Z 1_555 1_555
C6FA H21FA 1_555 1_555
C6H H21H 1_555 1_555
C6E H21E 1_555 1_555
C6B H21B 1_555 1_555
C6D H21D 1_555 1_555
C6A H21A 1_555 1_555
C6J H21J 1_555 1_555
C7I C6I 1_555 1_555
C7F C6F 1_555 1_555
C7AA C6AA 1_555 1_555
C7IA C6IA 1_555 1_555
C7EA C6EA 1_555 1_555
C7R C6R 1_555 1_555
C7L C6L 1_555 1_555
C7U C6U 1_555 1_555
C7OA C6OA 1_555 1_555
C7LA C6LA 1_555 1_555
C7RA C6RA 1_555 1_555
C7HA C6HA 1_555 1_555
C7BA C6BA 1_555 1_555
C7Y C6Y 1_555 1_555
C7CA C6CA 1_555 1_555
C7Z C6Z 1_555 1_555
C7FA C6FA 1_555 1_555
C7H C6H 1_555 1_555
C7E C6E 1_555 1_555
C7B C6B 1_555 1_555
C7D C6D 1_555 1_555
C7A C6A 1_555 1_555
C7J C6J 1_555 1_555
H22I C7I 1_555 1_555
H22F C7F 1_555 1_555
H22AA C7AA 1_555 1_555
H22IA C7IA 1_555 1_555
H22EA C7EA 1_555 1_555
H22R C7R 1_555 1_555
H22L C7L 1_555 1_555
H22U C7U 1_555 1_555
H22OA C7OA 1_555 1_555
H22LA C7LA 1_555 1_555
H22RA C7RA 1_555 1_555
H22HA C7HA 1_555 1_555
H22BA C7BA 1_555 1_555
H22Y C7Y 1_555 1_555
H22CA C7CA 1_555 1_555
H22Z C7Z 1_555 1_555
H22FA C7FA 1_555 1_555
H22H C7H 1_555 1_555
H22E C7E 1_555 1_555
H22B C7B 1_555 1_555
H22D C7D 1_555 1_555
H22A C7A 1_555 1_555
H22J C7J 1_555 1_555
C8I N6 1_555 1_555
C8F N5F 1_555 1_555
C8AA N5AA 1_555 1_555
C8IA N5IA 1_555 1_555
C8EA N5EA 1_555 1_555
C8R N5R 1_555 1_555
C8L N5L 1_555 1_555
C8U N5U 1_555 1_555
C8OA N5OA 1_555 1_555
C8LA N5LA 1_555 1_555
C8RA N5RA 1_555 1_555
C8HA N5HA 1_555 1_555
C8BA N5BA 1_555 1_555
C8Y N5Y 1_555 1_555
C8CA N5CA 1_555 1_555
C8Z N5Z 1_555 1_555
C8FA N5FA 1_555 1_555
C8H N5H 1_555 1_555
C8E N5E 1_555 1_555
C8B N5B 1_555 1_555
C8D N5D 1_555 1_555
C8A N5A 1_555 1_555
C8J N5J 1_555 1_555
Cu1R S1 1_555 1_555
Cu1OA I1OA 1_555 1_555
Cu1AA I1AA 1_555 1_555
Cu1G I1G 1_555 1_555
Cu1J I1J 1_555 1_555
Cu1T I1T 1_555 1_555
Cu1O I1O 1_555 1_555
Cu1SA I1SA 1_555 1_555
Cu1KA I1KA 1_555 1_555
Cu1DA I1DA 1_555 1_555
Cu1FA I1FA 1_555 1_555
Cu1I I1I 1_555 1_555
Cu1HA I1HA 1_555 1_555
Cu1F I1F 1_555 1_555
Cu1CA I1CA 1_555 1_555
Cu1IA I1IA 1_555 1_555
Cu1H I1H 1_555 1_555
Cu1EA I1EA 1_555 1_555
Cu1D I1D 1_555 1_555
Cu1L I1L 1_555 1_555
Cu1MA I1MA 1_555 1_555
Cu1U I1U 1_555 1_555
Cu1TA I1TA 1_555 1_555
Cu1UA S1HA 1_555 1_555
Cu1JA S1CA 1_555 1_555
Cu1V S1H 1_555 1_555
Cu1N S1D 1_555 1_555
Cu1E S1MA 1_555 1_555
Cu1K S1TA 1_555 1_555
Cu1LA S1LA 1_555 1_555
Cu1M S1M 1_555 1_555
Cu1BA S1M 1_555 1_555
Cu1RA S1RA 1_555 1_555
Cu1W S1W 1_555 1_555
Cu1GA S1W 1_555 1_555
Cu1A N1A 1_555 1_555
Cu1E_2 N1E 1_555 1_555
Cu1X N1X 1_555 1_555
Cu1EA_2 N1EA 1_555 1_555
Cu1H_2 N1H 1_555 1_555
Cu1C N1C 1_555 1_555
Cu1GA_2 N1GA 1_555 1_555
Cu1Y N1Y 1_555 1_555
Cu2R N4R 1_555 1_555
Cu2I N4I 1_555 1_555
Cu2F N4F 1_555 1_555
Cu2H N4IA 1_555 1_555
Cu2D N4EA 1_555 1_555
Cu2L N4L 1_555 1_555
Cu2U N4U 1_555 1_555
Cu2M N4LA 1_555 1_555
Cu2W N4RA 1_555 1_555
Cu2G N4BA 1_555 1_555
Cu2B N4Y 1_555 1_555
Cu2A N4Z 1_555 1_555
Cu2K N4FA 1_555 1_555
Cu2E N4E 1_555 1_555
Cu2B_2 N4B 1_555 1_555
Cu2A_2 N4A 1_555 1_555
Cu2J N4J 1_555 1_555
Cu2G_2 S1G 1_555 1_555
Cu2J_2 S1J 1_555 1_555
Cu2T S1T 1_555 1_555
Cu2O S1O 1_555 1_555
I1R Cu1R 1_555 1_555
N1G C1G 1_555 1_555
N1J C1J 1_555 1_555
N1R C1R 1_555 1_555
N1T C1T 1_555 1_555
N1O C1O 1_555 1_555
N1OA C1OA 1_555 1_555
N1SA C1SA 1_555 1_555
N1KA C1KA 1_555 1_555
N1AA C1AA 1_555 1_555
N1DA C1DA 1_555 1_555
N1FA C1FA 1_555 1_555
N1I C1I 1_555 1_555
N1A C1A 1_555 1_555
N1E C1E 1_555 1_555
N1HA C1HA 1_555 1_555
N1X C1X 1_555 1_555
N1EA C1EA 1_555 1_555
N1F C1F 1_555 1_555
N1H C1H 1_555 1_555
N1C C1C 1_555 1_555
N1CA C1CA 1_555 1_555
N1GA C1GA 1_555 1_555
N1Y C1Y 1_555 1_555
N1IA Cu1IA 1_555 1_555
N1H_2 Cu1H 1_555 1_555
N1EA_2 Cu1EA 1_555 1_555
N1D Cu1D 1_555 1_555
N1L Cu1L 1_555 1_555
N1MA Cu1MA 1_555 1_555
N1U Cu1U 1_555 1_555
N1TA Cu1TA 1_555 1_555
N2G C1G 1_555 1_555
N2J C1J 1_555 1_555
N2R C1R 1_555 1_555
N2T C1T 1_555 1_555
N2O C1O 1_555 1_555
N2OA C1OA 1_555 1_555
N2SA C1SA 1_555 1_555
N2KA C1KA 1_555 1_555
N2AA C1AA 1_555 1_555
N2DA C1DA 1_555 1_555
N2FA C1FA 1_555 1_555
N2I C1I 1_555 1_555
N2A C1A 1_555 1_555
N2E C1E 1_555 1_555
N2HA C1HA 1_555 1_555
N2X C1X 1_555 1_555
N2EA C1EA 1_555 1_555
N2F C1F 1_555 1_555
N2H C1H 1_555 1_555
N2C C1C 1_555 1_555
N2CA C1CA 1_555 1_555
N2GA C1GA 1_555 1_555
N2Y C1Y 1_555 1_555
N3G C4G 1_555 1_555
N3J C4 1_555 1_555
N3R C4R 1_555 1_555
N3T C4T 1_555 1_555
N3O C4R 1_555 1_555
N3OA C4OA 1_555 1_555
N3SA C4SA 1_555 1_555
N3KA C4OA 1_555 1_555
N3AA C4AA 1_555 1_555
N3DA C4DA 1_555 1_555
N3FA C4AA 1_555 1_555
N3I C4I 1_555 1_555
N3A C4A 1_555 1_555
N3E C4I 1_555 1_555
N3HA C4HA 1_555 1_555
N3X C4X 1_555 1_555
N3EA C4HA 1_555 1_555
N3F C4F 1_555 1_555
N3H C4H 1_555 1_555
N3C C4F 1_555 1_555
N3CA C4CA 1_555 1_555
N3GA C4GA 1_555 1_555
N3Y C4CA 1_555 1_555
N4I C5I 1_555 1_555
N4F C5F 1_555 1_555
N4AA Cu2 1_555 1_555
N4IA C5IA 1_555 1_555
N4EA C5EA 1_555 1_555
N4R C5R 1_555 1_555
N4L C5L 1_555 1_555
N4U C5U 1_555 1_555
N4OA C5OA 1_555 1_555
N4LA C5LA 1_555 1_555
N4RA C5RA 1_555 1_555
N4HA C5HA 1_555 1_555
N4BA C5BA 1_555 1_555
N4Y C5Y 1_555 1_555
N4CA C5CA 1_555 1_555
N4Z C5Z 1_555 1_555
N4FA C5FA 1_555 1_555
N4H C5H 1_555 1_555
N4E C5E 1_555 1_555
N4B C5B 1_555 1_555
N4D C5D 1_555 1_555
N4A C5A 1_555 1_555
N4J C5J 1_555 1_555
N4MA Cu2L 1_555 1_555
N4TA Cu2U 1_555 1_555
N4M Cu2M 1_555 1_555
N4W Cu2W 1_555 1_555
N4G Cu2G 1_555 1_555
N4B_2 Cu2B 1_555 1_555
N5I C5I 1_555 1_555
N5F C5F 1_555 1_555
N5AA C5AA 1_555 1_555
N5IA C5IA 1_555 1_555
N5EA C5EA 1_555 1_555
N5R C5R 1_555 1_555
N5L C5L 1_555 1_555
N5U C5U 1_555 1_555
N5OA C5OA 1_555 1_555
N5LA C5LA 1_555 1_555
N5RA C5RA 1_555 1_555
N5HA C5HA 1_555 1_555
N5BA C5BA 1_555 1_555
N5Y C5Y 1_555 1_555
N5CA C5CA 1_555 1_555
N5Z C5Z 1_555 1_555
N5FA C5FA 1_555 1_555
N5H C5H 1_555 1_555
N5E C5E 1_555 1_555
N5B C5B 1_555 1_555
N5D C5D 1_555 1_555
N5A C5A 1_555 1_555
N5J C5J 1_555 1_555
N6I C8I 1_555 1_555
N6F C8 1_555 1_555
N6AA C8AA 1_555 1_555
N6IA C8IA 1_555 1_555
N6EA C8AA 1_555 1_555
N6R C8R 1_555 1_555
N6L C8L 1_555 1_555
N6U C8R 1_555 1_555
N6OA C8OA 1_555 1_555
N6LA C8LA 1_555 1_555
N6RA C8OA 1_555 1_555
N6HA C8HA 1_555 1_555
N6BA C8BA 1_555 1_555
N6Y C8HA 1_555 1_555
N6CA C8CA 1_555 1_555
N6Z C8Z 1_555 1_555
N6FA C8CA 1_555 1_555
N6H C8H 1_555 1_555
N6E C8E 1_555 1_555
N6B C8H 1_555 1_555
N6D C8D 1_555 1_555
N6A C8A 1_555 1_555
N6J C8D 1_555 1_555
S1R W1 1_555 1_555
S1OA Cu1 1_555 1_555
S1AA Cu2 1_555 1_555
S1I Cu1T 1_555 1_555
S1HA Cu1HA 1_555 1_555
S1F Cu1O 1_555 1_555
S1CA Cu1CA 1_555 1_555
S1IA Cu1SA 1_555 1_555
S1H Cu1H 1_555 1_555
S1EA Cu1KA 1_555 1_555
S1D Cu1D 1_555 1_555
S1L Cu1DA 1_555 1_555
S1MA Cu1MA 1_555 1_555
S1U Cu1FA 1_555 1_555
S1TA Cu1TA 1_555 1_555
S1LA Cu1G 1_555 1_555
S1M Cu2M 1_555 1_555
S1RA Cu1J 1_555 1_555
S1W Cu2W 1_555 1_555
S1G Cu1G 1_555 1_555
S1J Cu1J 1_555 1_555
S1T Cu1T 1_555 1_555
S1O Cu1O 1_555 1_555
S1SA Cu1SA 1_555 1_555
S1KA Cu1KA 1_555 1_555
S1DA Cu1DA 1_555 1_555
S1FA Cu1FA 1_555 1_555
S1UA Cu1I 1_555 1_555
S1JA Cu1F 1_555 1_555
S1V Cu1IA 1_555 1_555
S1N Cu1EA 1_555 1_555
S1E Cu1L 1_555 1_555
S1BA Cu2G 1_555 1_555
S1G_2 Cu2G 1_555 1_555
S1Y Cu2B 1_555 1_555
S1B Cu2B 1_555 1_555
S1K Cu1U 1_555 1_555
W1I S1I 1_555 1_555
W1F S1F 1_555 1_555
W1H S1IA 1_555 1_555
W1D S1EA 1_555 1_555
W1E S1L 1_555 1_555
W1K S1U 1_555 1_555
W1G S1LA 1_555 1_555
W1J S1RA 1_555 1_555
C2 N1 1_555 1_555
C3 N2 1_555 1_555
C6 N4 1_555 1_555
C7 N5 1_555 1_555
Cu1 N1 1_555 1_555
Cu2 S1 1_555 1_555
W1 S1OA 1_555 1_555
W1 S1AA 1_555 1_555
C2G N1G 1_555 1_555
C2J N1J 1_555 1_555
C2R N1R 1_555 1_555
C2T N1T 1_555 1_555
C2O N1O 1_555 1_555
C2OA N1OA 1_555 1_555
C2SA N1SA 1_555 1_555
C2KA N1KA 1_555 1_555
C2AA N1AA 1_555 1_555
C2DA N1DA 1_555 1_555
C2FA N1FA 1_555 1_555
C2I N1I 1_555 1_555
C2A N1A 1_555 1_555
C2E N1E 1_555 1_555
C2HA N1HA 1_555 1_555
C2X N1X 1_555 1_555
C2EA N1EA 1_555 1_555
C2F N1F 1_555 1_555
C2H N1H 1_555 1_555
C2C N1C 1_555 1_555
C2CA N1CA 1_555 1_555
C2GA N1GA 1_555 1_555
C2Y N1Y 1_555 1_555
C3G N2G 1_555 1_555
C3J N2J 1_555 1_555
C3R N2R 1_555 1_555
C3T N2T 1_555 1_555
C3O N2O 1_555 1_555
C3OA N2OA 1_555 1_555
C3SA N2SA 1_555 1_555
C3KA N2KA 1_555 1_555
C3AA N2AA 1_555 1_555
C3DA N2DA 1_555 1_555
C3FA N2FA 1_555 1_555
C3I N2I 1_555 1_555
C3A N2A 1_555 1_555
C3E N2E 1_555 1_555
C3HA N2HA 1_555 1_555
C3X N2X 1_555 1_555
C3EA N2EA 1_555 1_555
C3F N2F 1_555 1_555
C3H N2H 1_555 1_555
C3C N2C 1_555 1_555
C3CA N2CA 1_555 1_555
C3GA N2GA 1_555 1_555
C3Y N2Y 1_555 1_555
C4G N2G 1_555 1_555
C4J N3G 1_555 1_555
C4J N3J 1_555 1_555
C4T N3R 1_555 1_555
C4O N3T 1_555 1_555
C4O N3O 1_555 1_555
C4SA N3OA 1_555 1_555
C4KA N3SA 1_555 1_555
C4KA N3KA 1_555 1_555
C4DA N3AA 1_555 1_555
C4FA N3DA 1_555 1_555
C4FA N3FA 1_555 1_555
C4A N3I 1_555 1_555
C4E N3A 1_555 1_555
C4E N3E 1_555 1_555
C4X N3HA 1_555 1_555
C4EA N3X 1_555 1_555
C4EA N3EA 1_555 1_555
C4H N3F 1_555 1_555
C4C N3H 1_555 1_555
C4C N3C 1_555 1_555
C4GA N3CA 1_555 1_555
C4Y N3GA 1_555 1_555
C4Y N3Y 1_555 1_555
C5AA N4AA 1_555 1_555
C6I N4I 1_555 1_555
C6F N4F 1_555 1_555
C6AA N4AA 1_555 1_555
C6IA N4IA 1_555 1_555
C6EA N4EA 1_555 1_555
C6R N4R 1_555 1_555
C6L N4L 1_555 1_555
C6U N4U 1_555 1_555
C6OA N4OA 1_555 1_555
C6LA N4LA 1_555 1_555
C6RA N4RA 1_555 1_555
C6HA N4HA 1_555 1_555
C6BA N4BA 1_555 1_555
C6Y N4Y 1_555 1_555
C6CA N4CA 1_555 1_555
C6Z N4Z 1_555 1_555
C6FA N4FA 1_555 1_555
C6H N4H 1_555 1_555
C6E N4E 1_555 1_555
C6B N4B 1_555 1_555
C6D N4D 1_555 1_555
C6A N4A 1_555 1_555
C6J N4J 1_555 1_555
C7I N5I 1_555 1_555
C7F N5F 1_555 1_555
C7AA N5AA 1_555 1_555
C7IA N5IA 1_555 1_555
C7EA N5EA 1_555 1_555
C7R N5R 1_555 1_555
C7L N5L 1_555 1_555
C7U N5U 1_555 1_555
C7OA N5OA 1_555 1_555
C7LA N5LA 1_555 1_555
C7RA N5RA 1_555 1_555
C7HA N5HA 1_555 1_555
C7BA N5BA 1_555 1_555
C7Y N5Y 1_555 1_555
C7CA N5CA 1_555 1_555
C7Z N5Z 1_555 1_555
C7FA N5FA 1_555 1_555
C7H N5H 1_555 1_555
C7E N5E 1_555 1_555
C7B N5B 1_555 1_555
C7D N5D 1_555 1_555
C7A N5A 1_555 1_555
C7J N5J 1_555 1_555
C8I N5I 1_555 1_555
C8F N6I 1_555 1_555
C8F N6F 1_555 1_555
C8IA N6AA 1_555 1_555
C8EA N6IA 1_555 1_555
C8EA N6EA 1_555 1_555
C8L N6R 1_555 1_555
C8U N6L 1_555 1_555
C8U N6U 1_555 1_555
C8LA N6OA 1_555 1_555
C8RA N6LA 1_555 1_555
C8RA N6RA 1_555 1_555
C8BA N6HA 1_555 1_555
C8Y N6BA 1_555 1_555
C8Y N6Y 1_555 1_555
C8Z N6CA 1_555 1_555
C8FA N6Z 1_555 1_555
C8FA N6FA 1_555 1_555
C8E N6H 1_555 1_555
C8B N6E 1_555 1_555
C8B N6B 1_555 1_555
C8A N6D 1_555 1_555
C8J N6A 1_555 1_555
C8J N6J 1_555 1_555
Cu1R N1R 1_555 1_555
Cu1R S1R 1_555 1_555
Cu1OA N1OA 1_555 1_555
Cu1OA S1OA 1_555 1_555
Cu1OA S1AA 1_555 1_555
Cu1AA N1AA 1_555 1_555
Cu1AA S1R 1_555 1_555
Cu1AA S1AA 1_555 1_555
Cu1G N1G 1_555 1_555
Cu1J N1J 1_555 1_555
Cu1T N1T 1_555 1_555
Cu1O N1O 1_555 1_555
Cu1SA N1SA 1_555 1_555
Cu1KA N1KA 1_555 1_555
Cu1DA N1DA 1_555 1_555
Cu1FA N1FA 1_555 1_555
Cu1I N1I 1_555 1_555
Cu1I S1I 1_555 1_555
Cu1HA N1HA 1_555 1_555
Cu1HA S1T 1_555 1_555
Cu1F N1F 1_555 1_555
Cu1F S1F 1_555 1_555
Cu1CA N1CA 1_555 1_555
Cu1CA S1O 1_555 1_555
Cu1IA S1IA 1_555 1_555
Cu1H S1SA 1_555 1_555
Cu1EA S1EA 1_555 1_555
Cu1D S1KA 1_555 1_555
Cu1L S1L 1_555 1_555
Cu1MA S1DA 1_555 1_555
Cu1U S1U 1_555 1_555
Cu1TA S1FA 1_555 1_555
Cu1UA S1UA 1_555 1_555
Cu1JA S1JA 1_555 1_555
Cu1V S1V 1_555 1_555
Cu1N S1N 1_555 1_555
Cu1E S1E 1_555 1_555
Cu1K S1K 1_555 1_555
Cu1M S1G 1_555 1_555
Cu1W S1J 1_555 1_555
Cu2R N4OA 1_555 1_555
Cu2R S1R 1_555 1_555
Cu2R S1OA 1_555 1_555
Cu2I N4HA 1_555 1_555
Cu2I S1I 1_555 1_555
Cu2I S1HA 1_555 1_555
Cu2F N4CA 1_555 1_555
Cu2F S1F 1_555 1_555
Cu2F S1CA 1_555 1_555
Cu2H N4H 1_555 1_555
Cu2H S1IA 1_555 1_555
Cu2H S1H 1_555 1_555
Cu2D N4D 1_555 1_555
Cu2D S1EA 1_555 1_555
Cu2D S1D 1_555 1_555
Cu2L S1L 1_555 1_555
Cu2L S1MA 1_555 1_555
Cu2U S1U 1_555 1_555
Cu2U S1TA 1_555 1_555
Cu2M S1LA 1_555 1_555
Cu2W S1RA 1_555 1_555
Cu2T S1UA 1_555 1_555
Cu2O S1JA 1_555 1_555
S1HA W1I 1_555 1_555
S1CA W1F 1_555 1_555
S1H W1H 1_555 1_555
S1D W1D 1_555 1_555
S1MA W1E 1_555 1_555
S1TA W1K 1_555 1_555
S1M W1G 1_555 1_555
S1W W1J 1_555 1_555
S1G W1G 1_555 1_555
S1J W1J 1_555 1_555
S1T W1I 1_555 1_555
S1O W1F 1_555 1_555
S1SA W1H 1_555 1_555
S1KA W1D 1_555 1_555
S1DA W1E 1_555 1_555
S1FA W1K 1_555 1_555
S1UA W1I 1_555 1_555
S1JA W1F 1_555 1_555
S1V W1H 1_555 1_555
S1N W1D 1_555 1_555
S1E W1E 1_555 1_555
S1K W1K 1_555 1_555

#END
