
#######################################################################
#
#                 Cambridge Crystallographic Data Centre
#                                CCDC 
#
#######################################################################
#
# If this CIF has been generated from an entry in the Cambridge 
# Structural Database, then it will include bibliographic, chemical, 
# crystal, experimental, refinement or atomic coordinate data resulting 
# from the CCDC's data processing and validation procedures.
#
#######################################################################

data_HOZTAR
_symmetry_cell_setting           monoclinic
_symmetry_space_group_name_H-M   'C 2/c'
_symmetry_Int_Tables_number      15
_space_group_name_Hall           '-C 2yn'
loop_
_symmetry_equiv_pos_site_id
_symmetry_equiv_pos_as_xyz
1 x,y,z
2 -x,y,1/2-z
3 1/2+x,1/2+y,z
4 1/2-x,1/2+y,1/2-z
5 -x,-y,-z
6 x,-y,1/2+z
7 1/2-x,1/2-y,-z
8 1/2+x,1/2-y,1/2+z
_cell_length_a                   24.79(7)
_cell_length_b                   16.11(6)
_cell_length_c                   17.24(6)
_cell_angle_alpha                90
_cell_angle_beta                 101.2(2)
_cell_angle_gamma                90
_cell_volume                     6753.96
loop_
_atom_site_label
_atom_site_type_symbol
_atom_site_fract_x
_atom_site_fract_y
_atom_site_fract_z
Cl2 Cl -0.1047(2) 0.2288(3) -0.8859(3)
O14 O -0.1135(9) 0.1637(10) -0.9272(9)
O15 O -0.1447(8) 0.263(1) -0.871(2)
O16 O -0.065(1) 0.211(1) -0.832(1)
O17 O -0.0854(8) 0.294(1) -0.922(1)
Ba1 Ba -0.19671(3) 0.29513(5) -0.30729(4)
Fe1 Fe -0.05869(5) 0.19768(9) -0.32621(7)
Cl1 Cl -0.2140(1) 0.1282(2) -0.4712(2)
O1 O -0.1204(2) 0.1721(4) -0.2749(4)
O2 O -0.0957(2) 0.3006(4) -0.3610(3)
O3 O -0.1449(3) 0.4429(4) -0.3623(5)
O4 O 0.2253(4) 0.4606(6) -0.2281(5)
O5 O 0.2361(4) 0.3302(6) -0.3375(6)
O6 O 0.1777(3) 0.1901(6) -0.3366(4)
O7 O 0.0000 0.2148(6) -0.2500
O8 O -0.2513(4) 0.1427(6) -0.5429(5)
O9 O -0.2015(4) 0.0437(5) -0.4628(5)
O10 O -0.1647(4) 0.1744(6) -0.4695(5)
O11 O -0.2368(4) 0.1555(5) -0.4052(5)
O12 O 0.3031(4) 0.2502(6) -0.2056(6)
O13 O 0.1110(3) 0.3697(5) -0.3051(4)
N1 N 0.0561(3) 0.0710(5) -0.1491(5)
N2 N -0.0288(3) 0.1976(6) -0.4328(4)
C1 C 0.1221(4) 0.1052(7) -0.2730(6)
C2 C 0.1538(5) 0.1130(8) -0.3342(6)
C3 C 0.1564(5) 0.0451(10) -0.3861(7)
C4 C 0.1290(6) -0.0292(9) -0.3766(8)
C5 C 0.0995(5) -0.0385(7) -0.3152(7)
C6 C 0.0962(4) 0.0289(7) -0.2625(6)
C7 C 0.0685(4) 0.0134(7) -0.1945(6)
C8 C 0.0348(5) 0.0460(7) -0.0771(6)
C9 C -0.0012(5) 0.1207(8) -0.0571(6)
C10 C -0.0316(4) 0.2556(8) -0.4857(6)
C11 C -0.0583(5) 0.3317(7) -0.4797(6)
C12 C -0.0546(6) 0.3922(9) -0.5410(7)
C13 C -0.0803(7) 0.4677(10) -0.5391(9)
C14 C -0.1127(6) 0.4898(8) -0.4808(9)
C15 C -0.1148(5) 0.4304(7) -0.4229(8)
C16 C 0.0893(4) 0.3512(7) -0.0800(6)
C17 C 0.1745(6) 0.5207(7) -0.1357(9)
C18 C 0.1897(7) 0.5279(9) -0.2176(10)
C19 C 0.252(1) 0.467(1) -0.298(1)
C20 C 0.250(1) 0.413(1) -0.346(2)
C21 C 0.2115(7) 0.295(1) -0.4099(9)
C22 C 0.2077(5) 0.2039(10) -0.4010(7)
C23 C 0.3490(5) 0.2206(9) -0.1506(8)
C24 C 0.0711(5) 0.3297(8) -0.3622(7)
Ba1F Ba -0.30329(3) 0.20487(5) -0.69271(4)
Fe1A Fe 0.05869(5) 0.19768(9) -0.17379(7)
O1A O 0.1204(2) 0.1721(4) -0.2251(4)
Ba1A Ba 0.19671(3) 0.29513(5) -0.19271(4)
O2A O 0.0957(2) 0.3006(4) -0.1390(3)
O3A O 0.1449(3) 0.4429(4) -0.1377(5)
C15A C 0.1148(5) 0.4304(7) -0.0771(8)
C14A C 0.1127(6) 0.4898(8) -0.0192(9)
C13A C 0.0803(7) 0.4677(10) 0.0391(9)
C12A C 0.0546(6) 0.3922(9) 0.0410(7)
C11A C 0.0583(5) 0.3317(7) -0.0203(6)
C10A C 0.0316(4) 0.2556(8) -0.0143(6)
N2A N 0.0288(3) 0.1976(6) -0.0672(4)
O8G O 0.2487(4) 0.3573(6) -0.0429(5)
Cl1G Cl 0.2860(1) 0.3718(2) 0.0288(2)
O9G O 0.2985(4) 0.4563(5) 0.0372(5)
O10G O 0.3353(4) 0.3256(6) 0.0305(5)
O11G O 0.2632(4) 0.3445(5) 0.0948(5)
Ba1G Ba 0.30329(3) 0.20487(5) 0.19271(4)
O11A O 0.2368(4) 0.1555(5) -0.0948(5)
N1A N -0.0561(3) 0.0710(5) -0.3509(5)
C7A C -0.0685(4) 0.0134(7) -0.3055(6)
C6A C -0.0962(4) 0.0289(7) -0.2375(6)
C1A C -0.1221(4) 0.1052(7) -0.2270(6)
C2A C -0.1538(5) 0.1130(8) -0.1658(6)
O6A O -0.1777(3) 0.1901(6) -0.1634(4)
O4A O -0.2253(4) 0.4606(6) -0.2719(5)
C18A C -0.1897(7) 0.5279(9) -0.2824(10)
C17A C -0.1745(6) 0.5207(7) -0.3643(9)
C19A C -0.252(1) 0.467(1) -0.202(1)
C20A C -0.250(1) 0.413(1) -0.154(2)
O5A O -0.2361(4) 0.3302(6) -0.1625(6)
O8F O -0.2487(4) 0.3573(6) -0.4571(5)
O12A O -0.3031(4) 0.2502(6) -0.2944(6)
C23A C -0.3490(5) 0.2206(9) -0.3494(8)
O13A O -0.1110(3) 0.3697(5) -0.1949(4)
C24A C -0.0711(5) 0.3297(8) -0.1378(7)
C21A C -0.2115(7) 0.295(1) -0.0901(9)
C22A C -0.2077(5) 0.2039(10) -0.0990(7)
C3A C -0.1564(5) 0.0451(10) -0.1139(7)
C4A C -0.1290(6) -0.0292(9) -0.1234(8)
C5A C -0.0995(5) -0.0385(7) -0.1848(7)
C8A C -0.0348(5) 0.0460(7) -0.4229(6)
C9A C 0.0012(5) 0.1207(8) -0.4429(6)
C16A C -0.0893(4) 0.3512(7) -0.4200(6)
O18? O 0.0331(6) 0.452(2) 0.241(1)
C25? C 0.0000 0.525 0.2500
loop_
_geom_bond_atom_site_label_1
_geom_bond_atom_site_label_2
_geom_bond_site_symmetry_1
_geom_bond_site_symmetry_2
Ba1 O1 1_555 1_555
Fe1 O1 1_555 1_555
Cl1 O8 1_555 1_555
Cl2 O14 1_555 1_555
O1 C1A 1_555 1_555
O2 Ba1 1_555 1_555
O3 Ba1 1_555 1_555
O4 C18 1_555 1_555
O5 C20 1_555 1_555
O6 C2 1_555 1_555
O7 Fe1 1_555 1_555
O8 Ba1F 1_555 1_555
O9 Cl1 1_555 1_555
O10 Cl1 1_555 1_555
O11 Ba1 1_555 1_555
O12 C23 1_555 1_555
O13 C24 1_555 1_555
O15 Cl2 1_555 1_555
O16 Cl2 1_555 1_555
O17 Cl2 1_555 1_555
N1 C7 1_555 1_555
N2 Fe1 1_555 1_555
C1 C2 1_555 1_555
C2 C3 1_555 1_555
C3 C4 1_555 1_555
C4 C5 1_555 1_555
C5 C6 1_555 1_555
C6 C1 1_555 1_555
C7 C6 1_555 1_555
C8 N1 1_555 1_555
C9 C8 1_555 1_555
C10 N2 1_555 1_555
C11 C10 1_555 1_555
C12 C11 1_555 1_555
C13 C12 1_555 1_555
C14 C13 1_555 1_555
C15 O3 1_555 1_555
C16 O2A 1_555 1_555
C17 C18 1_555 1_555
C19 O4 1_555 1_555
C20 C19 1_555 1_555
C21 O5 1_555 1_555
C22 O6 1_555 1_555
Fe1A O7 1_555 1_555
O1A C1 1_555 1_555
Ba1A O4 1_555 1_555
O2A Fe1A 1_555 1_555
O3A C17 1_555 1_555
C15A C16 1_555 1_555
C14A C15A 1_555 1_555
C13A C14A 1_555 1_555
C12A C13A 1_555 1_555
C11A C16 1_555 1_555
C10A C11A 1_555 1_555
N2A C9 1_555 1_555
O8G Ba1A 1_555 1_555
Cl1G O8G 1_555 1_555
O9G Cl1G 1_555 1_555
O10G Cl1G 1_555 1_555
O11G Cl1G 1_555 1_555
Ba1G O11G 1_555 1_555
O11A Ba1A 1_555 1_555
N1A Fe1 1_555 1_555
C7A N1A 1_555 1_555
C6A C7A 1_555 1_555
C1A C6A 1_555 1_555
C2A C1A 1_555 1_555
O6A Ba1 1_555 1_555
O4A Ba1 1_555 1_555
C18A O4A 1_555 1_555
C17A O3 1_555 1_555
C19A O4A 1_555 1_555
C20A C19A 1_555 1_555
O5A Ba1 1_555 1_555
O8F Ba1 1_555 1_555
O12A Ba1 1_555 1_555
C23A O12A 1_555 1_555
O13A Ba1 1_555 1_555
C24A O13A 1_555 1_555
C21A O5A 1_555 1_555
C22A O6A 1_555 1_555
C3A C2A 1_555 1_555
C4A C3A 1_555 1_555
C5A C6A 1_555 1_555
C8A N1A 1_555 1_555
C9A N2 1_555 1_555
C16A O2 1_555 1_555
Fe1 O2 1_555 1_555
Cl1 O11 1_555 1_555
O5 Ba1A 1_555 1_555
O6 Ba1A 1_555 1_555
O12 Ba1A 1_555 1_555
O13 Ba1A 1_555 1_555
N1 Fe1A 1_555 1_555
C11 C16A 1_555 1_555
C14 C15 1_555 1_555
C15 C16A 1_555 1_555
C21 C22 1_555 1_555
Fe1A O1A 1_555 1_555
Fe1A N2A 1_555 1_555
O1A Ba1A 1_555 1_555
Ba1A O2A 1_555 1_555
Ba1A O3A 1_555 1_555
O3A C15A 1_555 1_555
C12A C11A 1_555 1_555
C10A N2A 1_555 1_555
C2A O6A 1_555 1_555
C18A C17A 1_555 1_555
C20A O5A 1_555 1_555
C21A C22A 1_555 1_555
C4A C5A 1_555 1_555
C8A C9A 1_555 1_555

#END
