
#######################################################################
#
#                 Cambridge Crystallographic Data Centre
#                                CCDC 
#
#######################################################################
#
# If this CIF has been generated from an entry in the Cambridge 
# Structural Database, then it will include bibliographic, chemical, 
# crystal, experimental, refinement or atomic coordinate data resulting 
# from the CCDC's data processing and validation procedures.
#
#######################################################################

data_HOZTIA
_symmetry_cell_setting           tetragonal
_symmetry_space_group_name_H-M   'P 42'
_symmetry_Int_Tables_number      77
_space_group_name_Hall           'P 4c'
loop_
_symmetry_equiv_pos_site_id
_symmetry_equiv_pos_as_xyz
1 x,y,z
2 -x,-y,z
3 -y,x,1/2+z
4 y,-x,1/2+z
_cell_length_a                   12.6773(7)
_cell_length_b                   12.6773(7)
_cell_length_c                   13.2398(7)
_cell_angle_alpha                90
_cell_angle_beta                 90
_cell_angle_gamma                90
_cell_volume                     2127.82
loop_
_atom_site_label
_atom_site_type_symbol
_atom_site_fract_x
_atom_site_fract_y
_atom_site_fract_z
C1 C 0.8427(8) -0.1382(7) 0.0580(8)
H1 H 0.7889 -0.1223 0.1033
C2 C 0.8546(7) -0.0769(7) -0.0213(8)
H2 H 0.8083 -0.0207 -0.0299
C3 C 0.9355(7) -0.0929(8) -0.0952(7)
C4 C 0.9975(9) -0.1826(8) -0.0735(7)
H3 H 1.0518 -0.2006 -0.1175
C5 C 0.9810(8) -0.2421(9) 0.0076(8)
H4 H 1.0240 -0.3005 0.0180
C6 C 0.9472(9) -0.0332(8) -0.1869(8)
H5 H 0.8875 0.0140 -0.1944
H6 H 0.9474 -0.0810 -0.2441
C7 C 1.2745(8) -0.1656(8) 0.2273(8)
H7 H 1.2536 -0.1678 0.2946
C8 C 1.3320(8) -0.0839(8) 0.1937(8)
H8 H 1.3468 -0.0290 0.2380
C9 C 1.3677(9) -0.0783(10) 0.1028(11)
C10 C 1.3375(8) -0.1579(9) 0.0299(8)
H9 H 1.3585 -0.1511 -0.0371
C11 C 1.2779(8) -0.2438(8) 0.0588(10)
H10 H 1.2595 -0.2968 0.0135
C12 C 1.4381(8) 0.0082(8) 0.0632(9)
H11 H 1.4233 0.0713 0.1022
H12 H 1.4169 0.0226 -0.0058
C13 C 1.3847(7) -0.3757(8) 0.3321(9)
H13 H 1.4129 -0.3505 0.2719
C14 C 1.4495(8) -0.3830(10) 0.4145(9)
H14 H 1.5200 -0.3626 0.4116
C15 C 1.4056(8) -0.4219(8) 0.5017(8)
C16 C 1.3038(9) -0.4529(8) 0.5078(10)
H15 H 1.2750 -0.4772 0.5681
C17 C 1.2451(8) -0.4468(8) 0.4212(9)
H16 H 1.1771 -0.4743 0.4231
C18 C 1.4812(8) -0.4405(8) 0.5939(8)
H17 H 1.4445 -0.4249 0.6565
H18 H 1.5418 -0.3941 0.5890
Cu1 Cu 0.86817(10) -0.33068(10) 0.18976(11)
I1 I 0.70363(5) -0.25931(5) 0.28045(7)
Cu2 Cu 1.17132(11) -0.37772(11) 0.21371(10)
N1 N 0.9025(7) -0.2207(7) 0.0772(8)
N2 N 1.2458(7) -0.2469(7) 0.1626(7)
N3 N 1.2776(7) -0.4045(7) 0.3340(7)
S1 S 1.01181(19) -0.3564(2) 0.2942(3)
S2 S 0.8551(2) -0.4889(2) 0.1020(3)
W1 W 1.0000 -0.5000 0.19793(6)
C1A C 1.1573(8) 0.1382(7) 0.0580(8)
H1A H 1.2111 0.1223 0.1033
C2A C 1.1454(7) 0.0769(7) -0.0213(8)
H2A H 1.1917 0.0207 -0.0299
C3A C 1.0645(7) 0.0929(8) -0.0952(7)
C4A C 1.0025(9) 0.1826(8) -0.0735(7)
H3A H 0.9482 0.2006 -0.1175
C5A C 1.0190(8) 0.2421(9) 0.0076(8)
H4A H 0.9760 0.3005 0.0180
C6A C 1.0528(9) 0.0332(8) -0.1869(8)
H5A H 1.1125 -0.0140 -0.1944
H6A H 1.0526 0.0810 -0.2441
C7A C 1.7255(8) 0.1656(8) 0.2273(8)
H7A H 1.7464 0.1678 0.2946
C8A C 1.6680(8) 0.0839(8) 0.1937(8)
H8A H 1.6532 0.0290 0.2380
C9A C 1.6323(9) 0.0783(10) 0.1028(11)
C10A C 1.6625(8) 0.1579(9) 0.0299(8)
H9A H 1.6415 0.1511 -0.0371
C11A C 1.7221(8) 0.2438(8) 0.0588(10)
H10A H 1.7405 0.2968 0.0135
C12A C 1.5619(8) -0.0082(8) 0.0632(9)
H11A H 1.5767 -0.0713 0.1022
H12A H 1.5831 -0.0226 -0.0058
C13A C 1.6153(7) -0.6243(8) 0.3321(9)
H13A H 1.5871 -0.6495 0.2719
C14A C 1.5505(8) -0.6170(10) 0.4145(9)
H14A H 1.4800 -0.6374 0.4116
C15A C 1.5944(8) -0.5781(8) 0.5017(8)
C16A C 1.6962(9) -0.5471(8) 0.5078(10)
H15A H 1.7250 -0.5228 0.5681
C17A C 1.7549(8) -0.5532(8) 0.4212(9)
H16A H 1.8229 -0.5257 0.4231
C18A C 1.5188(8) -0.5595(8) 0.5939(8)
H17A H 1.5555 -0.5751 0.6565
H18A H 1.4582 -0.6059 0.5890
Cu1A Cu 1.13183(10) -0.66932(10) 0.18976(11)
Cu1A_2 Cu 1.13183(10) 0.33068(10) 0.18976(11)
I1A I 1.29637(5) -0.74069(5) 0.28045(7)
Cu2A Cu 0.82868(11) -0.62228(11) 0.21371(10)
Cu2A_2 Cu 1.82868(11) 0.37772(11) 0.21371(10)
Cu2A_3 Cu 1.82868(11) -0.62228(11) 0.21371(10)
N1A N 1.0975(7) 0.2207(7) 0.0772(8)
N1A_2 N 1.0975(7) -0.7793(7) 0.0772(8)
N2A N 1.7542(7) 0.2469(7) 0.1626(7)
N2A_2 N 0.7542(7) -0.7531(7) 0.1626(7)
N3A N 1.7224(7) -0.5955(7) 0.3340(7)
N3A_2 N 0.7224(7) -0.5955(7) 0.3340(7)
S1A S 0.98819(19) -0.6436(2) 0.2942(3)
S2A S 1.1449(2) -0.5111(2) 0.1020(3)
O1 O 0.5000 1.0000 0.3896(12)
H19? H 0.4967 1.0359 0.4437
H20? H 0.4959 0.9347 0.4037
loop_
_geom_bond_atom_site_label_1
_geom_bond_atom_site_label_2
_geom_bond_site_symmetry_1
_geom_bond_site_symmetry_2
C1 H1 1_555 1_555
C2 C1 1_555 1_555
H2 C2 1_555 1_555
C3 C2 1_555 1_555
C4 C3 1_555 1_555
H3 C4 1_555 1_555
C5 C4 1_555 1_555
H4 C5 1_555 1_555
C6 C3 1_555 1_555
H5 C6 1_555 1_555
H6 C6 1_555 1_555
C7 H7 1_555 1_555
C8 C7 1_555 1_555
H8 C8 1_555 1_555
C9 C8 1_555 1_555
C10 C9 1_555 1_555
H9 C10 1_555 1_555
C11 C10 1_555 1_555
H10 C11 1_555 1_555
C12 C9 1_555 1_555
H11 C12 1_555 1_555
H12 C12 1_555 1_555
C13 H13 1_555 1_555
C14 C13 1_555 1_555
H14 C14 1_555 1_555
C15 C14 1_555 1_555
C16 C15 1_555 1_555
H15 C16 1_555 1_555
C17 C16 1_555 1_555
H16 C17 1_555 1_555
C18 C15 1_555 1_555
H17 C18 1_555 1_555
H18 C18 1_555 1_555
Cu1 I1 1_555 1_555
Cu2 N2 1_555 1_555
N1 C1 1_555 1_555
N2 C7 1_555 1_555
N3 C13 1_555 1_555
S1 Cu1 1_555 1_555
S2 Cu1 1_555 1_555
W1 S1 1_555 1_555
C1A H1A 1_555 1_555
C2A C1A 1_555 1_555
H2A C2A 1_555 1_555
C3A C2A 1_555 1_555
C4A C3A 1_555 1_555
H3A C4A 1_555 1_555
C5A C4A 1_555 1_555
H4A C5A 1_555 1_555
C6A C6 1_555 1_555
H5A C6A 1_555 1_555
H6A C6A 1_555 1_555
C7A H7A 1_555 1_555
C8A C7A 1_555 1_555
H8A C8A 1_555 1_555
C9A C8A 1_555 1_555
C10A C9A 1_555 1_555
H9A C10A 1_555 1_555
C11A C10A 1_555 1_555
H10A C11A 1_555 1_555
C12A C12 1_555 1_555
H11A C12A 1_555 1_555
H12A C12A 1_555 1_555
C13A H13A 1_555 1_555
C14A C13A 1_555 1_555
H14A C14A 1_555 1_555
C15A C14A 1_555 1_555
C16A C15A 1_555 1_555
H15A C16A 1_555 1_555
C17A C16A 1_555 1_555
H16A C17A 1_555 1_555
C18A C18 1_555 1_555
H17A C18A 1_555 1_555
H18A C18A 1_555 1_555
Cu1A I1A 1_555 1_555
Cu1A_2 N1A 1_555 1_555
Cu2A S2 1_555 1_555
Cu2A_2 N2A 1_555 1_555
Cu2A_3 N3A 1_555 1_555
N1A C1A 1_555 1_555
N1A_2 Cu1A 1_555 1_555
N2A C7A 1_555 1_555
N2A_2 Cu2A 1_555 1_555
N3A C13A 1_555 1_555
N3A_2 Cu2A 1_555 1_555
S1A W1 1_555 1_555
S2A Cu2 1_555 1_555
C5 N1 1_555 1_555
C11 N2 1_555 1_555
C17 N3 1_555 1_555
Cu1 N1 1_555 1_555
Cu2 N3 1_555 1_555
Cu2 S1 1_555 1_555
S2 W1 1_555 1_555
W1 S2A 1_555 1_555
C3A C6A 1_555 1_555
C5A N1A 1_555 1_555
C9A C12A 1_555 1_555
C11A N2A 1_555 1_555
C15A C18A 1_555 1_555
C17A N3A 1_555 1_555
Cu1A S1A 1_555 1_555
Cu1A S2A 1_555 1_555
Cu2A S1A 1_555 1_555

#END
