
#######################################################################
#
#                 Cambridge Crystallographic Data Centre
#                                CCDC 
#
#######################################################################
#
# If this CIF has been generated from an entry in the Cambridge 
# Structural Database, then it will include bibliographic, chemical, 
# crystal, experimental, refinement or atomic coordinate data resulting 
# from the CCDC's data processing and validation procedures.
#
#######################################################################

data_HOZWUQ
_symmetry_cell_setting           monoclinic
_symmetry_space_group_name_H-M   'C 2/c'
_symmetry_Int_Tables_number      15
_space_group_name_Hall           '-C 2yn'
loop_
_symmetry_equiv_pos_site_id
_symmetry_equiv_pos_as_xyz
1 x,y,z
2 -x,y,1/2-z
3 1/2+x,1/2+y,z
4 1/2-x,1/2+y,1/2-z
5 -x,-y,-z
6 x,-y,1/2+z
7 1/2-x,1/2-y,-z
8 1/2+x,1/2-y,1/2+z
_cell_length_a                   7.455(4)
_cell_length_b                   22.060(10)
_cell_length_c                   10.512(5)
_cell_angle_alpha                90
_cell_angle_beta                 109.315(6)
_cell_angle_gamma                90
_cell_volume                     1631.47
loop_
_atom_site_label
_atom_site_type_symbol
_atom_site_fract_x
_atom_site_fract_y
_atom_site_fract_z
Cd1 Cd 0.0722(3) 0.07774(8) 0.59820(19)
N1 N -0.084(3) 0.2030(11) 0.430(2)
H1 H -0.0204 0.2256 0.4964
N2 N -0.081(3) 0.1435(11) 0.434(2)
C1 C -0.198(4) 0.1244(12) 0.312(3)
C2 C -0.277(4) 0.1746(12) 0.229(3)
H2 H -0.3617 0.1745 0.1415
C3 C -0.199(4) 0.2245(12) 0.312(3)
C4 C -0.216(4) 0.0603(13) 0.283(3)
O1 O -0.114(3) 0.0253(9) 0.381(2)
O2 O -0.320(3) 0.0395(9) 0.173(2)
C5 C -0.221(4) 0.2905(14) 0.289(3)
O3 O -0.122(3) 0.3252(9) 0.386(2)
O4 O -0.333(3) 0.3105(10) 0.180(2)
O5 O 0.359(3) 0.0830(9) 0.574(2)
O6 O -0.196(3) 0.0722(9) 0.6650(19)
H3 H 0.3667 0.0660 0.5024
H4 H 0.4277 0.1156 0.5809
H5 H -0.2549 0.0374 0.6538
H6 H -0.2802 0.1004 0.6607
Cd1A Cd -0.0722(3) 0.07774(8) 0.90180(19)
Cd1D Cd -0.0722(3) -0.07774(8) 0.40180(19)
Cd1G Cd -0.4278(3) 0.42226(8) 0.09820(19)
O1D O 0.114(3) -0.0253(9) 0.619(2)
O4G O 0.167(3) 0.1895(10) 0.680(2)
O6A O 0.196(3) 0.0722(9) 0.8350(19)
loop_
_geom_bond_atom_site_label_1
_geom_bond_atom_site_label_2
_geom_bond_site_symmetry_1
_geom_bond_site_symmetry_2
Cd1 N2 1_555 1_555
N1 H1 1_555 1_555
N2 N1 1_555 1_555
C1 N2 1_555 1_555
C2 C1 1_555 1_555
H2 C2 1_555 1_555
C3 N1 1_555 1_555
C4 C1 1_555 1_555
O1 Cd1 1_555 1_555
O2 C4 1_555 1_555
C5 C3 1_555 1_555
O3 C5 1_555 1_555
O4 C5 1_555 1_555
O5 Cd1 1_555 1_555
O6 Cd1 1_555 1_555
H3 O5 1_555 1_555
H4 O5 1_555 1_555
H5 O6 1_555 1_555
H6 O6 1_555 1_555
Cd1A O6 1_555 1_555
Cd1D O1 1_555 1_555
Cd1G O4 1_555 1_555
O1D Cd1 1_555 1_555
O4G Cd1 1_555 1_555
O6A Cd1 1_555 1_555
C2 C3 1_555 1_555
C4 O1 1_555 1_555
Cd1A O6A 1_555 1_555
Cd1D O1D 1_555 1_555

#END
