
#######################################################################
#
#                 Cambridge Crystallographic Data Centre
#                                CCDC 
#
#######################################################################
#
# If this CIF has been generated from an entry in the Cambridge 
# Structural Database, then it will include bibliographic, chemical, 
# crystal, experimental, refinement or atomic coordinate data resulting 
# from the CCDC's data processing and validation procedures.
#
#######################################################################

data_HOZXAX
_symmetry_cell_setting           monoclinic
_symmetry_space_group_name_H-M   'P 21/c'
_symmetry_Int_Tables_number      14
_space_group_name_Hall           '-P 2ybc'
loop_
_symmetry_equiv_pos_site_id
_symmetry_equiv_pos_as_xyz
1 x,y,z
2 -x,1/2+y,1/2-z
3 -x,-y,-z
4 x,1/2-y,1/2+z
_cell_length_a                   7.208(1)
_cell_length_b                   11.437(1)
_cell_length_c                   13.398(2)
_cell_angle_alpha                90
_cell_angle_beta                 106.65(1)
_cell_angle_gamma                90
_cell_volume                     1058.19
loop_
_atom_site_label
_atom_site_type_symbol
_atom_site_fract_x
_atom_site_fract_y
_atom_site_fract_z
Cd1 Cd 0.238172(17) 0.263078(11) 0.181638(9)
N1 N 0.3921(2) 0.44896(13) 0.18963(11)
N2 N 0.2924(2) 0.54035(14) 0.13399(12)
N3 N 0.3720(2) 0.63861(14) 0.17317(12)
N4 N 0.5278(2) 0.61538(13) 0.25552(11)
C1 C 0.5344(3) 0.49821(15) 0.26388(13)
N5 N 0.6748(2) 0.43819(14) 0.33487(12)
H1 H 0.6493 0.3701 0.3411
H2 H 0.7116 0.4750 0.3931
N6 N 0.2558(2) 0.29689(14) 0.35476(12)
N7 N 0.2395(2) 0.40584(14) 0.39086(12)
N8 N 0.2354(2) 0.39876(14) 0.48573(12)
N9 N 0.2499(2) 0.28512(14) 0.51610(12)
C2 C 0.2609(3) 0.22530(16) 0.43353(14)
N10 N 0.2649(2) 0.10552(14) 0.42765(12)
H3 H 0.3353 0.0798 0.3925
H4 H 0.2937 0.0693 0.4855
N11 N -0.0447(2) 0.37067(14) 0.09945(12)
H5 H -0.0370 0.4424 0.1280
H6 H -0.0548 0.3791 0.0313
C3 C -0.2164(3) 0.30965(17) 0.11152(16)
H7 H -0.3315 0.3382 0.0601
H8 H -0.2304 0.3250 0.1802
C4 C -0.1954(3) 0.17953(17) 0.09744(16)
H9 H -0.3105 0.1394 0.1030
H10 H -0.1812 0.1642 0.0288
N12 N -0.0250(2) 0.13568(14) 0.17749(12)
H11 H 0.0031 0.0624 0.1619
H12 H -0.0481 0.1347 0.2400
Cd1A Cd 0.761828(17) 0.763078(11) 0.318362(9)
Cd1C Cd 0.238172(17) 0.236922(11) 0.681638(9)
N4A N 0.4722(2) 0.11538(13) 0.24448(11)
N9C N 0.2499(2) 0.21488(14) 0.01610(12)
loop_
_geom_bond_atom_site_label_1
_geom_bond_atom_site_label_2
_geom_bond_site_symmetry_1
_geom_bond_site_symmetry_2
Cd1 N1 1_555 1_555
N1 N2 1_555 1_555
N2 N3 1_555 1_555
N3 N4 1_555 1_555
N4 C1 1_555 1_555
C1 N1 1_555 1_555
N5 C1 1_555 1_555
H1 N5 1_555 1_555
H2 N5 1_555 1_555
N6 Cd1 1_555 1_555
N7 N6 1_555 1_555
N8 N7 1_555 1_555
N9 N8 1_555 1_555
C2 N6 1_555 1_555
N10 C2 1_555 1_555
H3 N10 1_555 1_555
H4 N10 1_555 1_555
N11 Cd1 1_555 1_555
H5 N11 1_555 1_555
H6 N11 1_555 1_555
C3 N11 1_555 1_555
H7 C3 1_555 1_555
H8 C3 1_555 1_555
C4 C3 1_555 1_555
H9 C4 1_555 1_555
H10 C4 1_555 1_555
N12 Cd1 1_555 1_555
H11 N12 1_555 1_555
H12 N12 1_555 1_555
Cd1A N4 1_555 1_555
Cd1C N9 1_555 1_555
N4A Cd1 1_555 1_555
N9C Cd1 1_555 1_555
N9 C2 1_555 1_555
C4 N12 1_555 1_555

#END
