
#######################################################################
#
#                 Cambridge Crystallographic Data Centre
#                                CCDC 
#
#######################################################################
#
# If this CIF has been generated from an entry in the Cambridge 
# Structural Database, then it will include bibliographic, chemical, 
# crystal, experimental, refinement or atomic coordinate data resulting 
# from the CCDC's data processing and validation procedures.
#
#######################################################################

data_HOZXIF
_symmetry_cell_setting           orthorhombic
_symmetry_space_group_name_H-M   'P b c a'
_symmetry_Int_Tables_number      61
_space_group_name_Hall           '-P 2ac 2ab'
loop_
_symmetry_equiv_pos_site_id
_symmetry_equiv_pos_as_xyz
1 x,y,z
2 1/2-x,-y,1/2+z
3 1/2+x,1/2-y,-z
4 -x,1/2+y,1/2-z
5 -x,-y,-z
6 1/2+x,y,1/2-z
7 1/2-x,1/2+y,z
8 x,1/2-y,1/2+z
_cell_length_a                   16.001(9)
_cell_length_b                   18.320(11)
_cell_length_c                   16.016(9)
_cell_angle_alpha                90
_cell_angle_beta                 90
_cell_angle_gamma                90
_cell_volume                     4694.9
loop_
_atom_site_label
_atom_site_type_symbol
_atom_site_fract_x
_atom_site_fract_y
_atom_site_fract_z
Cd1 Cd 0.89875(3) 0.16408(3) 0.11735(3)
Cd2 Cd 0.83323(3) -0.10122(3) 0.33481(3)
Cl1 Cl 0.70905(12) -0.18658(10) 0.31710(11)
Cl2 Cl 0.78384(11) -0.02319(10) 0.45376(11)
N1 N 0.9700(4) 0.0658(3) 0.1766(3)
C1 C 0.9202(4) 0.0226(4) 0.2207(4)
N2 N 0.9443(4) -0.0229(3) 0.2808(3)
C2 C 1.0279(5) -0.0262(4) 0.2956(4)
C3 C 1.0850(4) 0.0170(4) 0.2548(4)
H1 H 1.1419 0.0148 0.2662
C4 C 1.0520(5) 0.0645(4) 0.1950(4)
C5 C 0.8279(4) 0.0278(4) 0.2018(4)
O1 O 0.8034(3) 0.0761(3) 0.1548(3)
O2 O 0.7814(3) -0.0195(3) 0.2370(3)
O3 O 1.0472(3) -0.0754(3) 0.3542(3)
C6 C 1.1347(4) -0.0852(4) 0.3755(4)
H2 H 1.1658 -0.0968 0.3260
H3 H 1.1401 -0.1243 0.4150
H4 H 1.1561 -0.0410 0.3995
O4 O 1.0964(3) 0.1130(3) 0.1514(3)
C7 C 1.1843(4) 0.1259(4) 0.1731(4)
H5 H 1.1890 0.1339 0.2321
H6 H 1.2043 0.1681 0.1437
H7 H 1.2170 0.0841 0.1576
N3 N 0.9212(3) -0.1837(3) 0.2619(3)
C8 C 0.9717(4) -0.2243(4) 0.3076(4)
N4 N 1.0278(3) -0.2714(3) 0.2795(3)
C9 C 1.0325(4) -0.2792(4) 0.1958(4)
C10 C 0.9854(4) -0.2371(4) 0.1420(4)
H8 H 0.9902 -0.2413 0.0843
C11 C 0.9310(4) -0.1888(4) 0.1785(4)
C12 C 0.9642(5) -0.2186(4) 0.4032(4)
O5 O 0.9073(3) -0.1762(3) 0.4295(3)
O6 O 1.0135(3) -0.2547(2) 0.4454(3)
O7 O 1.0849(3) -0.3334(3) 0.1748(3)
C13 C 1.0946(5) -0.3485(4) 0.0869(4)
H9 H 1.0408 -0.3578 0.0625
H10 H 1.1296 -0.3906 0.0797
H11 H 1.1197 -0.3072 0.0599
O8 O 0.8797(3) -0.1421(3) 0.1385(3)
C14 C 0.8827(5) -0.1401(5) 0.0484(4)
H12 H 0.9387 -0.1293 0.0306
H13 H 0.8454 -0.1031 0.0281
H14 H 0.8661 -0.1867 0.0265
O9 O 0.7880(3) 0.2420(3) 0.1315(3)
O10 O 0.8737(3) 0.1235(3) -0.0151(3)
H15 H 0.7435 0.2163 0.1237
H16 H 0.7821 0.2562 0.1828
H17 H 0.8652 0.1385 -0.0680
H18 H 0.8339 0.0909 -0.0152
Cd1C Cd 1.10125(3) -0.33592(3) 0.38265(3)
N4C N 0.9722(3) 0.2286(3) 0.2205(3)
O6C O 0.9865(3) 0.2453(2) 0.0546(3)
O11 O 0.8432(3) 0.6534(3) 0.0928(3)
H19 H 0.7960 0.6253 0.0966
H20 H 0.8481 0.6538 0.0378
loop_
_geom_bond_atom_site_label_1
_geom_bond_atom_site_label_2
_geom_bond_site_symmetry_1
_geom_bond_site_symmetry_2
Cd1 N1 1_555 1_555
Cd2 Cl1 1_555 1_555
Cl2 Cd2 1_555 1_555
N1 C1 1_555 1_555
C1 N2 1_555 1_555
N2 Cd2 1_555 1_555
C2 N2 1_555 1_555
C3 C2 1_555 1_555
H1 C3 1_555 1_555
C4 N1 1_555 1_555
C5 C1 1_555 1_555
O1 Cd1 1_555 1_555
O2 Cd2 1_555 1_555
O3 C2 1_555 1_555
C6 O3 1_555 1_555
H2 C6 1_555 1_555
H3 C6 1_555 1_555
H4 C6 1_555 1_555
O4 C4 1_555 1_555
C7 O4 1_555 1_555
H5 C7 1_555 1_555
H6 C7 1_555 1_555
H7 C7 1_555 1_555
N3 Cd2 1_555 1_555
C8 N3 1_555 1_555
N4 C8 1_555 1_555
C9 N4 1_555 1_555
C10 C9 1_555 1_555
H8 C10 1_555 1_555
C11 N3 1_555 1_555
C12 C8 1_555 1_555
O5 Cd2 1_555 1_555
O6 C12 1_555 1_555
O7 C9 1_555 1_555
C13 O7 1_555 1_555
H9 C13 1_555 1_555
H10 C13 1_555 1_555
H11 C13 1_555 1_555
O8 C11 1_555 1_555
C14 O8 1_555 1_555
H12 C14 1_555 1_555
H13 C14 1_555 1_555
H14 C14 1_555 1_555
O9 Cd1 1_555 1_555
O10 Cd1 1_555 1_555
H15 O9 1_555 1_555
H16 O9 1_555 1_555
H17 O10 1_555 1_555
H18 O10 1_555 1_555
O11 H19 1_555 1_555
H20 O11 1_555 1_555
Cd1C N4 1_555 1_555
N4C Cd1 1_555 1_555
O6C Cd1 1_555 1_555
C3 C4 1_555 1_555
C5 O1 1_555 1_555
C5 O2 1_555 1_555
C10 C11 1_555 1_555
C12 O5 1_555 1_555
O6 Cd1C 1_555 1_555

#END
