
#######################################################################
#
#                 Cambridge Crystallographic Data Centre
#                                CCDC 
#
#######################################################################
#
# If this CIF has been generated from an entry in the Cambridge 
# Structural Database, then it will include bibliographic, chemical, 
# crystal, experimental, refinement or atomic coordinate data resulting 
# from the CCDC's data processing and validation procedures.
#
#######################################################################

data_HOZXOL
_symmetry_cell_setting           orthorhombic
_symmetry_space_group_name_H-M   'C 2 2 21'
_symmetry_Int_Tables_number      20
_space_group_name_Hall           'C 2n 2'
loop_
_symmetry_equiv_pos_site_id
_symmetry_equiv_pos_as_xyz
1 x,y,z
2 -x,-y,1/2+z
3 -x,y,1/2-z
4 x,-y,-z
5 1/2+x,1/2+y,z
6 1/2-x,1/2-y,1/2+z
7 1/2-x,1/2+y,1/2-z
8 1/2+x,1/2-y,-z
_cell_length_a                   12.039(2)
_cell_length_b                   15.986(3)
_cell_length_c                   6.862(1)
_cell_angle_alpha                90
_cell_angle_beta                 90
_cell_angle_gamma                90
_cell_volume                     1320.63
loop_
_atom_site_label
_atom_site_type_symbol
_atom_site_fract_x
_atom_site_fract_y
_atom_site_fract_z
Cd1 Cd 0.83090(6) 0.81956(5) 0.84881(10)
N1 N 0.7082(7) 0.9289(6) 0.9553(12)
C1 C 0.5968(9) 0.9257(7) 0.9563(16)
H1 H 0.5601 0.8759 0.9290
C2 C 0.5353(11) 1.0000 1.0000
C3 C 0.7595(10) 1.0000 1.0000
C4 C 0.8850(11) 1.0000 1.0000
O1 O 0.9345(5) 0.9317(4) 0.9575(11)
Br1 Br 0.38196(13) 1.0000 1.0000
Cl1 Cl 0.6657(2) 0.73924(15) 0.7068(3)
Cl2 Cl 1.0000 0.7300(2) 0.7500
O2 O 0.8447(6) 0.8937(4) 0.5549(10)
H2 H 0.9099 0.9166 0.5317
H3 H 0.8310 0.8673 0.4450
N1C N 0.7082(7) 1.0711(6) 1.0447(12)
C1C C 0.5968(9) 1.0743(7) 1.0437(16)
H1C H 0.5601 1.1241 1.0710
O1C O 0.9345(5) 1.0683(4) 1.0425(11)
Cd1B Cd 1.16910(6) 0.81956(5) 0.65119(10)
Cl1B Cl 1.3343(2) 0.73924(15) 0.7932(3)
O2B O 1.1553(6) 0.8937(4) 0.9451(10)
H2B H 1.0901 0.9166 0.9683
H3B H 1.1690 0.8673 1.0550
Cd1C Cd 0.83090(6) 1.18044(5) 1.15119(10)
Cd1E Cd 0.66910(6) 0.68044(5) 0.34881(10)
Cd1G Cd 1.33090(6) 0.68044(5) 1.15119(10)
N1B N 1.2918(7) 0.9289(6) 0.5447(12)
O1B O 1.0655(5) 0.9317(4) 0.5425(11)
Cl1E Cl 0.8343(2) 0.76076(15) 1.2068(3)
Cl1G Cl 1.1657(2) 0.76076(15) 0.2932(3)
loop_
_geom_bond_atom_site_label_1
_geom_bond_atom_site_label_2
_geom_bond_site_symmetry_1
_geom_bond_site_symmetry_2
Cd1 N1 1_555 1_555
N1 C1 1_555 1_555
C1 H1 1_555 1_555
C2 C1 1_555 1_555
C3 N1 1_555 1_555
C4 C3 1_555 1_555
O1 Cd1 1_555 1_555
Br1 C2 1_555 1_555
Cl1 Cd1 1_555 1_555
Cl2 Cd1 1_555 1_555
O2 Cd1 1_555 1_555
H2 O2 1_555 1_555
H3 O2 1_555 1_555
N1C C3 1_555 1_555
C1C C2 1_555 1_555
H1C C1C 1_555 1_555
O1C C4 1_555 1_555
Cd1B Cl2 1_555 1_555
Cl1B Cd1B 1_555 1_555
O2B Cd1B 1_555 1_555
H2B O2B 1_555 1_555
H3B O2B 1_555 1_555
Cd1C N1C 1_555 1_555
Cd1E Cl1 1_555 1_555
Cd1G Cl1B 1_555 1_555
N1B Cd1B 1_555 1_555
O1B Cd1B 1_555 1_555
Cl1E Cd1 1_555 1_555
Cl1G Cd1B 1_555 1_555
C4 O1 1_555 1_555
N1C C1C 1_555 1_555
O1C Cd1C 1_555 1_555

#END
