
#######################################################################
#
#                 Cambridge Crystallographic Data Centre
#                                CCDC 
#
#######################################################################
#
# If this CIF has been generated from an entry in the Cambridge 
# Structural Database, then it will include bibliographic, chemical, 
# crystal, experimental, refinement or atomic coordinate data resulting 
# from the CCDC's data processing and validation procedures.
#
#######################################################################

data_HUBCEN
_symmetry_cell_setting           monoclinic
_symmetry_space_group_name_H-M   'C 2/c'
_symmetry_Int_Tables_number      15
_space_group_name_Hall           '-C 2yn'
loop_
_symmetry_equiv_pos_site_id
_symmetry_equiv_pos_as_xyz
1 x,y,z
2 -x,y,1/2-z
3 1/2+x,1/2+y,z
4 1/2-x,1/2+y,1/2-z
5 -x,-y,-z
6 x,-y,1/2+z
7 1/2-x,1/2-y,-z
8 1/2+x,1/2-y,1/2+z
_cell_length_a                   23.234(14)
_cell_length_b                   7.502(4)
_cell_length_c                   13.029(7)
_cell_angle_alpha                90
_cell_angle_beta                 99.98(1)
_cell_angle_gamma                90
_cell_volume                     2236.61
loop_
_atom_site_label
_atom_site_type_symbol
_atom_site_fract_x
_atom_site_fract_y
_atom_site_fract_z
Pu1 Pu 0.13735(3) 0.99943(13) 0.01324(7)
K1 K 0.0814(3) 0.5002(9) -0.1291(6)
C1 C -0.0027(10) 1.100(3) -0.0279(18)
C2 C 0.2297(12) 0.665(3) -0.013(2)
C3 C 0.1126(13) 0.919(3) -0.249(2)
C4 C 0.1561(16) 1.083(5) -0.240(3)
O1 O 0.1621(10) 1.154(3) -0.1468(19)
O2 O 0.0949(8) 0.868(2) -0.1640(15)
O3 O -0.0506(7) 1.175(2) -0.0353(13)
O4 O 0.0983(8) 0.865(2) -0.3383(15)
O5 O 0.2542(9) 0.520(3) -0.0269(19)
O6 O 0.1758(8) 0.693(2) -0.0113(15)
O7 O 0.1783(10) 1.301(3) 0.0659(17)
O8 O 0.0438(7) 1.163(2) -0.0472(13)
O9 O 0.1738(10) 1.133(3) -0.3156(19)
O10 O 0.0409(9) 0.514(3) -0.3505(19)
Pu1E Pu 0.13735(3) 1.00057(13) 0.51324(7)
Pu1D Pu -0.13735(3) 1.00057(13) -0.01324(7)
Pu1E_2 Pu 0.13735(3) 1.00057(13) -0.48676(7)
Pu1F Pu 0.36265(3) 0.50057(13) -0.01324(7)
K1E K 0.0814(3) 1.4998(9) 0.3709(6)
K1_2 K 0.0814(3) 1.5002(9) -0.1291(6)
K1A K -0.0814(3) 0.5002(9) -0.3709(6)
K1D K -0.0814(3) 0.4998(9) 0.1291(6)
K1F K 0.4186(3) 0.9998(9) 0.1291(6)
C1D C 0.0027(10) 0.900(3) 0.0279(18)
C2F C 0.2703(12) 0.835(3) 0.013(2)
C3E C 0.1126(13) 1.081(3) 0.251(2)
C4E C 0.1561(16) 0.917(5) 0.260(3)
O1E O 0.1621(10) 0.846(3) 0.3532(19)
O2E O 0.0949(8) 1.132(2) 0.3360(15)
O3D O 0.0506(7) 0.825(2) 0.0353(13)
O3A O 0.0506(7) 1.175(2) 0.5353(13)
O4E O 0.0983(8) 1.135(2) 0.1617(15)
O4_2 O 0.0983(8) 0.865(2) 0.6617(15)
O5F O 0.2458(9) 0.980(3) 0.0269(19)
O5C O 0.2458(9) 1.020(3) 0.5269(19)
O6F O 0.3242(8) 0.807(2) 0.0113(15)
O6E O 0.1758(8) 1.307(2) 0.4887(15)
O7E O 0.1783(10) 0.699(3) 0.5659(17)
O8D O -0.0438(7) 0.837(2) 0.0472(13)
O8_2 O 0.0438(7) 0.163(2) -0.0472(13)
O8E O 0.0438(7) 0.837(2) 0.4528(13)
O8E_2 O 0.0438(7) 1.837(2) 0.4528(13)
O9E O 0.1738(10) 0.867(3) 0.1844(19)
O9_2 O 0.1738(10) 1.133(3) 0.6844(19)
O10A O -0.0409(9) 0.514(3) -0.1495(19)
O10E O 0.0409(9) 1.486(3) 0.1495(19)
O10D O -0.0409(9) 1.486(3) 0.3505(19)
O11 O 0.1893(10) 0.489(3) 0.236(2)
loop_
_geom_bond_atom_site_label_1
_geom_bond_atom_site_label_2
_geom_bond_site_symmetry_1
_geom_bond_site_symmetry_2
Pu1 O1 1_555 1_555
K1 O2 1_555 1_555
C1 O3 1_555 1_555
C2 O5 1_555 1_555
C3 C4 1_555 1_555
C4 O1 1_555 1_555
O2 Pu1 1_555 1_555
O3 Pu1D 1_555 1_555
O4 C3 1_555 1_555
O5 Pu1F 1_555 1_555
O6 Pu1 1_555 1_555
O7 Pu1 1_555 1_555
O8 Pu1 1_555 1_555
O9 C4 1_555 1_555
O10 K1 1_555 1_555
Pu1E O1E 1_555 1_555
Pu1D O8D 1_555 1_555
Pu1E_2 O4 1_555 1_555
Pu1F O6F 1_555 1_555
K1E O2E 1_555 1_555
K1_2 O8 1_555 1_555
K1A O10 1_555 1_555
K1D O8D 1_555 1_555
K1F O6F 1_555 1_555
C1D C1 1_555 1_555
C2F C2 1_555 1_555
C3E C4E 1_555 1_555
C4E O1E 1_555 1_555
O2E Pu1E 1_555 1_555
O3D Pu1 1_555 1_555
O3A Pu1E 1_555 1_555
O4E Pu1 1_555 1_555
O4_2 Pu1E 1_555 1_555
O5F Pu1 1_555 1_555
O5C Pu1E 1_555 1_555
O6F C2F 1_555 1_555
O6E Pu1E 1_555 1_555
O7E Pu1E 1_555 1_555
O8D C1D 1_555 1_555
O8_2 K1 1_555 1_555
O8E Pu1E 1_555 1_555
O8E_2 K1E 1_555 1_555
O9E Pu1 1_555 1_555
O9_2 Pu1E 1_555 1_555
O10A K1 1_555 1_555
O10E K1E 1_555 1_555
O10D K1E 1_555 1_555
K1 O6 1_555 1_555
C1 O8 1_555 1_555
C2 O6 1_555 1_555
C3 O2 1_555 1_555
O9 Pu1E_2 1_555 1_555
K1E O6E 1_555 1_555
K1A O10A 1_555 1_555
C1D O3D 1_555 1_555
C2F O5F 1_555 1_555
C3E O2E 1_555 1_555
C3E O4E 1_555 1_555
C4E O9E 1_555 1_555

#END
