
#######################################################################
#
#                 Cambridge Crystallographic Data Centre
#                                CCDC 
#
#######################################################################
#
# If this CIF has been generated from an entry in the Cambridge 
# Structural Database, then it will include bibliographic, chemical, 
# crystal, experimental, refinement or atomic coordinate data resulting 
# from the CCDC's data processing and validation procedures.
#
#######################################################################

data_HUBCAK
_symmetry_cell_setting           monoclinic
_symmetry_space_group_name_H-M   'P 21/m'
_symmetry_Int_Tables_number      11
_space_group_name_Hall           '-P 2yb'
loop_
_symmetry_equiv_pos_site_id
_symmetry_equiv_pos_as_xyz
1 x,y,z
2 -x,1/2+y,-z
3 -x,-y,-z
4 x,1/2-y,z
_cell_length_a                   9.2649(2)
_cell_length_b                   22.0524(6)
_cell_length_c                   10.8207(3)
_cell_angle_alpha                90
_cell_angle_beta                 90.415(3)
_cell_angle_gamma                90
_cell_volume                     2210.75
loop_
_atom_site_label
_atom_site_type_symbol
_atom_site_fract_x
_atom_site_fract_y
_atom_site_fract_z
Hg1 Hg -0.03292(4) -0.25 0.78913(3)
Hg2 Hg 0.07026(4) 0.25000 -0.31292(3)
I1 I -0.29677(6) -0.25 0.87838(5)
I2 I 0.25202(6) -0.25 0.80558(6)
I3 I -0.21509(7) 0.25000 -0.34772(6)
I4 I 0.33981(7) 0.25000 -0.39222(6)
N1 N -0.0584(5) -0.1627(2) 0.6437(4)
N2 N 0.0797(5) 0.1674(2) -0.1601(5)
N3 N 0.0045(5) -0.0165(2) 0.2865(4)
H1 H 0.0879 -0.0348 0.2984
N4 N -0.0117(5) 0.0262(2) 0.1948(4)
O1 O -0.2291(4) -0.00636(19) 0.3422(4)
C1 C 0.0544(7) -0.1455(3) 0.5775(6)
H2 H 0.1457 -0.1631 0.596
C2 C 0.0463(7) -0.1033(3) 0.4829(6)
H3 H 0.1291 -0.0933 0.4358
C3 C -0.0864(6) -0.0760(3) 0.4585(5)
C4 C -0.2035(6) -0.0919(3) 0.5297(6)
H4 H -0.295 -0.0734 0.517
C5 C -0.1842(7) -0.1358(3) 0.6205(6)
H5 H -0.2652 -0.1471 0.6686
C6 C -0.1103(6) -0.0298(3) 0.3577(5)
C7 C 0.0977(6) 0.0368(3) 0.1279(5)
H6 H 0.185 0.0153 0.1423
C8 C 0.0902(6) 0.0817(3) 0.0292(5)
C9 C -0.0303(6) 0.1183(3) 0.0120(6)
H7 H -0.1111 0.1149 0.0651
C10 C -0.0303(7) 0.1594(3) -0.0831(6)
H8 H -0.114 0.1837 -0.0949
C11 C 0.1962(7) 0.1323(3) -0.1435(6)
H9 H 0.2755 0.1371 -0.1978
C12 C 0.2060(7) 0.0891(3) -0.0506(6)
H10 H 0.2904 0.065 -0.0416
N1C N -0.0584(5) -0.3373(2) 0.6437(4)
N2C N 0.0797(5) -0.6674(2) -0.1601(5)
N3C N 0.0045(5) -0.4835(2) 0.2865(4)
H1C H 0.0879 -0.4652 0.2984
N4C N -0.0117(5) -0.5262(2) 0.1948(4)
O1C O -0.2291(4) -0.49364(19) 0.3422(4)
C1C C 0.0544(7) -0.3545(3) 0.5775(6)
H2C H 0.1457 -0.3369 0.596
C2C C 0.0463(7) -0.3967(3) 0.4829(6)
H3C H 0.1291 -0.4067 0.4358
C3C C -0.0864(6) -0.4240(3) 0.4585(5)
C4C C -0.2035(6) -0.4081(3) 0.5297(6)
H4C H -0.295 -0.4266 0.517
C5C C -0.1842(7) -0.3642(3) 0.6205(6)
H5C H -0.2652 -0.3529 0.6686
C6C C -0.1103(6) -0.4702(3) 0.3577(5)
C7C C 0.0977(6) -0.5368(3) 0.1279(5)
H6C H 0.185 -0.5153 0.1423
C8C C 0.0902(6) -0.5817(3) 0.0292(5)
C9C C -0.0303(6) -0.6183(3) 0.0120(6)
H7C H -0.1111 -0.6149 0.0651
C10C C -0.0303(7) -0.6594(3) -0.0831(6)
H8C H -0.114 -0.6837 -0.0949
C11C C 0.1962(7) -0.6323(3) -0.1435(6)
H9C H 0.2755 -0.6371 -0.1978
C12C C 0.2060(7) -0.5891(3) -0.0506(6)
H10C H 0.2904 -0.565 -0.0416
Hg2_2 Hg 0.07026(4) -0.75000 -0.31292(3)
N2C_2 N 0.0797(5) 0.3326(2) -0.1601(5)
O2 O 0.3031(5) -0.0519(2) 0.3009(4)
H11 H 0.335(7) -0.074(3) 0.228(4)
C13 C 0.4088(7) -0.0669(3) 0.3908(7)
H12 H 0.5042 -0.0548 0.3612
H13 H 0.4076 -0.1107 0.4055
H14 H 0.3877 -0.0455 0.468
O3 O 0.4108(6) -0.0885(3) 0.0845(5)
H15 H 0.397(13) -0.070(5) 0.003(6)
C14 C 0.4296(7) -0.1525(3) 0.0831(6)
H16 H 0.5217 -0.1624 0.0439
H17 H 0.3504 -0.1713 0.0363
H18 H 0.4298 -0.1679 0.168
O4 O 0.3498(5) -0.0646(2) -0.1541(5)
H19 H 0.286(6) -0.042(3) -0.208(6)
C15 C 0.4623(8) -0.0852(3) -0.2299(6)
H20 H 0.5113 -0.0504 -0.267
H21 H 0.4225 -0.1111 -0.2953
H22 H 0.5314 -0.1085 -0.18
loop_
_geom_bond_atom_site_label_1
_geom_bond_atom_site_label_2
_geom_bond_site_symmetry_1
_geom_bond_site_symmetry_2
Hg1 I1 1_555 1_555
Hg2 I3 1_555 1_555
I2 Hg1 1_555 1_555
I4 Hg2 1_555 1_555
N1 Hg1 1_555 1_555
N2 Hg2 1_555 1_555
N3 H1 1_555 1_555
N4 N3 1_555 1_555
O1 C6 1_555 1_555
C1 N1 1_555 1_555
H2 C1 1_555 1_555
C2 C1 1_555 1_555
H3 C2 1_555 1_555
C3 C2 1_555 1_555
C4 C3 1_555 1_555
H4 C4 1_555 1_555
C5 N1 1_555 1_555
H5 C5 1_555 1_555
C6 N3 1_555 1_555
C7 N4 1_555 1_555
H6 C7 1_555 1_555
C8 C7 1_555 1_555
C9 C8 1_555 1_555
H7 C9 1_555 1_555
C10 N2 1_555 1_555
H8 C10 1_555 1_555
C11 N2 1_555 1_555
H9 C11 1_555 1_555
C12 C8 1_555 1_555
H10 C12 1_555 1_555
O2 H11 1_555 1_555
C13 O2 1_555 1_555
H12 C13 1_555 1_555
H13 C13 1_555 1_555
H14 C13 1_555 1_555
O3 H15 1_555 1_555
C14 O3 1_555 1_555
H16 C14 1_555 1_555
H17 C14 1_555 1_555
H18 C14 1_555 1_555
O4 H19 1_555 1_555
C15 O4 1_555 1_555
H20 C15 1_555 1_555
H21 C15 1_555 1_555
H22 C15 1_555 1_555
N1C Hg1 1_555 1_555
N2C C10C 1_555 1_555
N3C H1C 1_555 1_555
N4C N3C 1_555 1_555
O1C C6C 1_555 1_555
C1C N1C 1_555 1_555
H2C C1C 1_555 1_555
C2C C1C 1_555 1_555
H3C C2C 1_555 1_555
C3C C2C 1_555 1_555
C4C C3C 1_555 1_555
H4C C4C 1_555 1_555
C5C N1C 1_555 1_555
H5C C5C 1_555 1_555
C6C N3C 1_555 1_555
C7C N4C 1_555 1_555
H6C C7C 1_555 1_555
C8C C7C 1_555 1_555
C9C C8C 1_555 1_555
H7C C9C 1_555 1_555
C10C C9C 1_555 1_555
H8C C10C 1_555 1_555
C11C N2C 1_555 1_555
H9C C11C 1_555 1_555
C12C C8C 1_555 1_555
H10C C12C 1_555 1_555
Hg2_2 N2C 1_555 1_555
N2C_2 Hg2 1_555 1_555
C3 C6 1_555 1_555
C4 C5 1_555 1_555
C9 C10 1_555 1_555
C11 C12 1_555 1_555
C3C C6C 1_555 1_555
C4C C5C 1_555 1_555
C11C C12C 1_555 1_555

#END
