
#######################################################################
#
#                 Cambridge Crystallographic Data Centre
#                                CCDC 
#
#######################################################################
#
# If this CIF has been generated from an entry in the Cambridge 
# Structural Database, then it will include bibliographic, chemical, 
# crystal, experimental, refinement or atomic coordinate data resulting 
# from the CCDC's data processing and validation procedures.
#
#######################################################################

data_HUBDEP
_symmetry_cell_setting           triclinic
_symmetry_space_group_name_H-M   'P -1'
_symmetry_Int_Tables_number      2
_space_group_name_Hall           '-P 1'
loop_
_symmetry_equiv_pos_site_id
_symmetry_equiv_pos_as_xyz
1 x,y,z
2 -x,-y,-z
_cell_length_a                   11.1140(9)
_cell_length_b                   12.8430(11)
_cell_length_c                   14.1460(12)
_cell_angle_alpha                85.183(2)
_cell_angle_beta                 75.5180(10)
_cell_angle_gamma                75.4110(10)
_cell_volume                     1891.49
loop_
_atom_site_label
_atom_site_type_symbol
_atom_site_fract_x
_atom_site_fract_y
_atom_site_fract_z
Mn1 Mn 0.17766(5) 0.28729(4) 0.24042(3)
N1 N 0.0090(3) 0.2539(2) 0.18911(18)
N2 N 0.0775(3) 0.4437(2) 0.17466(18)
N3 N 0.0404(2) 0.3172(2) 0.39441(19)
N4 N 0.1941(3) 0.1276(2) 0.32477(19)
O1 O 0.3232(2) 0.20411(16) 0.12254(14)
O2 O 0.4134(2) 0.33526(17) 0.05273(16)
O3 O 0.5848(2) 0.35475(19) -0.08674(17)
H1 H 0.5366 0.3504 -0.0330
O4 O 0.7407(3) 0.24898(19) -0.18629(18)
O5 O 0.6675(2) -0.12568(15) 0.11913(15)
O6 O 0.2915(2) -0.62360(16) 0.28493(15)
O7 O 0.4492(2) -0.76411(17) 0.29551(18)
O8 O 0.6320(2) -0.81168(15) 0.36632(15)
H2 H 0.5674 -0.7947 0.3451
O9 O 0.7577(3) -0.73219(18) 0.4139(2)
O10 O 0.6231(2) -0.35029(16) 0.40557(15)
C1 C 0.6428(3) -0.1317(2) 0.2207(2)
C2 C 0.6363(3) -0.2331(2) 0.2606(2)
H3 H 0.6424 -0.2893 0.2209
C3 C 0.6208(3) -0.2492(2) 0.3598(2)
C4 C 0.6111(3) -0.1669(2) 0.4197(2)
H4 H 0.6007 -0.1787 0.4867
C5 C 0.6169(3) -0.0662(2) 0.3782(2)
H5 H 0.6098 -0.0098 0.4180
C6 C 0.6332(3) -0.0481(2) 0.2787(2)
H6 H 0.6375 0.0197 0.2514
C7 C 0.6574(4) 0.2606(3) -0.1114(3)
C8 C 0.4156(3) 0.2373(3) 0.0717(2)
C9 C 0.6443(3) 0.1639(2) -0.0431(2)
C10 C 0.5409(3) 0.1527(2) 0.0359(2)
C11 C 0.5502(3) 0.0562(2) 0.0895(2)
H7 H 0.4816 0.0477 0.1403
C12 C 0.6585(3) -0.0271(3) 0.0691(2)
C13 C 0.7593(3) -0.0170(3) -0.0079(2)
H8 H 0.8323 -0.0729 -0.0227
C14 C 0.7502(3) 0.0773(3) -0.0627(2)
H9 H 0.8180 0.0833 -0.1152
C15 C 0.3996(3) -0.6642(3) 0.3008(2)
C16 C 0.6631(4) -0.7246(3) 0.3839(3)
C17 C 0.4723(3) -0.5877(2) 0.3248(2)
C18 C 0.5814(3) -0.6142(2) 0.3632(2)
C19 C 0.6290(3) -0.5311(2) 0.3862(2)
H10 H 0.7006 -0.5479 0.4123
C20 C 0.5717(3) -0.4242(2) 0.3709(2)
C21 C 0.4666(3) -0.3972(2) 0.3326(2)
H11 H 0.4276 -0.3254 0.3227
C22 C 0.4193(3) -0.4784(2) 0.3087(2)
H12 H 0.3492 -0.4598 0.2808
C23 C -0.0243(4) 0.1616(3) 0.1950(2)
H13 H 0.0274 0.1010 0.2179
C24 C -0.1329(5) 0.1500(4) 0.1687(3)
H14 H -0.1504 0.0825 0.1719
C25 C -0.2131(4) 0.2374(5) 0.1383(3)
H15 H -0.2869 0.2306 0.1222
C26 C -0.1826(4) 0.3393(5) 0.1313(3)
C27 C -0.0696(3) 0.3423(3) 0.1574(2)
C28 C -0.0321(3) 0.4433(3) 0.1494(2)
C29 C -0.1083(4) 0.5356(4) 0.1148(3)
C30 C -0.0651(5) 0.6307(4) 0.1065(3)
H16 H -0.1128 0.6940 0.0842
C31 C 0.0447(5) 0.6311(3) 0.1308(3)
H17 H 0.0733 0.6940 0.1252
C32 C 0.1149(3) 0.5348(3) 0.1645(2)
H18 H 0.1912 0.5349 0.1804
C33 C -0.2589(4) 0.4358(5) 0.0968(3)
H19 H -0.3336 0.4337 0.0795
C34 C -0.2223(5) 0.5293(5) 0.0893(3)
H20 H -0.2728 0.5910 0.0671
C35 C -0.0401(3) 0.4079(3) 0.4282(3)
H21 H -0.0514 0.4666 0.3854
C36 C -0.1110(4) 0.4200(4) 0.5281(3)
H22 H -0.1672 0.4849 0.5499
C37 C -0.0933(4) 0.3331(4) 0.5900(3)
H23 H -0.1391 0.3391 0.6549
C38 C -0.0085(4) 0.2354(4) 0.5588(3)
C39 C 0.0559(3) 0.2306(3) 0.4582(2)
C40 C 0.1381(3) 0.1306(3) 0.4218(3)
C41 C 0.1562(4) 0.0384(4) 0.4835(3)
C42 C 0.2335(4) -0.0578(4) 0.4422(4)
H24 H 0.2487 -0.1196 0.4810
C43 C 0.2861(4) -0.0604(3) 0.3453(3)
H25 H 0.3364 -0.1242 0.3162
C44 C 0.2641(3) 0.0336(3) 0.2894(3)
H26 H 0.3011 0.0301 0.2227
C45 C 0.0147(5) 0.1411(4) 0.6196(3)
H27 H -0.0253 0.1446 0.6857
C46 C 0.0918(5) 0.0489(4) 0.5840(3)
H28 H 0.1041 -0.0105 0.6260
Mn1_2 Mn 0.17766(5) -0.71271(4) 0.24042(3)
O6_2 O 0.2915(2) 0.37640(16) 0.28493(15)
loop_
_geom_bond_atom_site_label_1
_geom_bond_atom_site_label_2
_geom_bond_site_symmetry_1
_geom_bond_site_symmetry_2
Mn1 N1 1_555 1_555
N1 C23 1_555 1_555
N2 Mn1 1_555 1_555
N3 Mn1 1_555 1_555
N4 Mn1 1_555 1_555
O1 Mn1 1_555 1_555
O2 C8 1_555 1_555
O3 H1 1_555 1_555
O4 C7 1_555 1_555
O5 C1 1_555 1_555
O6 C15 1_555 1_555
O7 C15 1_555 1_555
O8 H2 1_555 1_555
O9 C16 1_555 1_555
O10 C3 1_555 1_555
C1 C2 1_555 1_555
C2 H3 1_555 1_555
C3 C2 1_555 1_555
C4 C3 1_555 1_555
H4 C4 1_555 1_555
C5 C4 1_555 1_555
H5 C5 1_555 1_555
C6 C1 1_555 1_555
H6 C6 1_555 1_555
C7 O3 1_555 1_555
C8 O1 1_555 1_555
C9 C7 1_555 1_555
C10 C8 1_555 1_555
C11 C10 1_555 1_555
H7 C11 1_555 1_555
C12 O5 1_555 1_555
C13 C12 1_555 1_555
H8 C13 1_555 1_555
C14 C9 1_555 1_555
H9 C14 1_555 1_555
C15 C17 1_555 1_555
C16 O8 1_555 1_555
C17 C18 1_555 1_555
C18 C16 1_555 1_555
C19 C18 1_555 1_555
H10 C19 1_555 1_555
C20 O10 1_555 1_555
C21 C20 1_555 1_555
H11 C21 1_555 1_555
C22 C17 1_555 1_555
H12 C22 1_555 1_555
C23 H13 1_555 1_555
C24 C23 1_555 1_555
H14 C24 1_555 1_555
C25 C24 1_555 1_555
H15 C25 1_555 1_555
C26 C25 1_555 1_555
C27 N1 1_555 1_555
C28 N2 1_555 1_555
C29 C28 1_555 1_555
C30 C29 1_555 1_555
H16 C30 1_555 1_555
C31 C30 1_555 1_555
H17 C31 1_555 1_555
C32 N2 1_555 1_555
H18 C32 1_555 1_555
C33 C26 1_555 1_555
H19 C33 1_555 1_555
C34 C29 1_555 1_555
H20 C34 1_555 1_555
C35 N3 1_555 1_555
H21 C35 1_555 1_555
C36 C35 1_555 1_555
H22 C36 1_555 1_555
C37 C36 1_555 1_555
H23 C37 1_555 1_555
C38 C37 1_555 1_555
C39 N3 1_555 1_555
C40 N4 1_555 1_555
C41 C40 1_555 1_555
C42 C41 1_555 1_555
H24 C42 1_555 1_555
C43 C42 1_555 1_555
H25 C43 1_555 1_555
C44 N4 1_555 1_555
H26 C44 1_555 1_555
C45 C38 1_555 1_555
H27 C45 1_555 1_555
C46 C41 1_555 1_555
H28 C46 1_555 1_555
Mn1_2 O6 1_555 1_555
O6_2 Mn1 1_555 1_555
C5 C6 1_555 1_555
C9 C10 1_555 1_555
C11 C12 1_555 1_555
C13 C14 1_555 1_555
C19 C20 1_555 1_555
C21 C22 1_555 1_555
C26 C27 1_555 1_555
C27 C28 1_555 1_555
C31 C32 1_555 1_555
C33 C34 1_555 1_555
C38 C39 1_555 1_555
C39 C40 1_555 1_555
C43 C44 1_555 1_555
C45 C46 1_555 1_555

#END
