
#######################################################################
#
#                 Cambridge Crystallographic Data Centre
#                                CCDC 
#
#######################################################################
#
# If this CIF has been generated from an entry in the Cambridge 
# Structural Database, then it will include bibliographic, chemical, 
# crystal, experimental, refinement or atomic coordinate data resulting 
# from the CCDC's data processing and validation procedures.
#
#######################################################################

data_HUBGES
_symmetry_cell_setting           monoclinic
_symmetry_space_group_name_H-M   'P 21/c'
_symmetry_Int_Tables_number      14
_space_group_name_Hall           '-P 2ybc'
loop_
_symmetry_equiv_pos_site_id
_symmetry_equiv_pos_as_xyz
1 x,y,z
2 -x,1/2+y,1/2-z
3 -x,-y,-z
4 x,1/2-y,1/2+z
_cell_length_a                   11.4714(3)
_cell_length_b                   12.9140(3)
_cell_length_c                   16.7325(5)
_cell_angle_alpha                90
_cell_angle_beta                 114.019(2)
_cell_angle_gamma                90
_cell_volume                     2264.14
loop_
_atom_site_label
_atom_site_type_symbol
_atom_site_fract_x
_atom_site_fract_y
_atom_site_fract_z
Zn1 Zn 0.77275(2) 0.785369(18) 0.815853(14)
S1 S 0.95789(6) 0.71275(5) 1.08022(4)
O1 O 0.73055(12) 0.62533(11) 0.76853(8)
O2 O 0.82749(15) 0.94311(15) 1.03341(11)
O3 O 0.81674(13) 0.90575(12) 0.90100(9)
N1 N 0.83089(15) 0.65958(14) 0.91104(10)
N2 N 0.86294(17) 0.53228(15) 1.02169(11)
N3 N 0.57618(15) 0.77800(13) 0.81487(11)
N4 N -0.04915(16) 0.77845(13) 0.80046(11)
N5 N 0.68451(15) 0.87219(13) 0.69981(11)
C1 C 0.77055(18) 0.58859(17) 0.84656(13)
C2 C 0.7538(2) 0.48742(17) 0.87031(14)
H1 H 0.7132 0.4378 0.8278
C3 C 0.7986(2) 0.46297(17) 0.95772(14)
C4 C 0.7768(2) 0.35901(19) 0.98899(16)
H2 H 0.8568 0.3311 1.0292
H3 H 0.7396 0.3131 0.9399
H4 H 0.7200 0.3661 1.0179
C5 C 0.87553(19) 0.62609(18) 0.99394(13)
C6 C 0.98186(19) 0.82556(18) 1.02500(14)
H5 H 1.0517 0.8657 1.0666
H6 H 1.0076 0.8028 0.9793
C7 C 0.8657(2) 0.89647(18) 0.98395(14)
C8 C 0.54716(19) 0.82241(18) 0.87649(14)
H7 H 0.6120 0.8555 0.9227
C9 C 0.42615(19) 0.82188(18) 0.87534(14)
H8 H 0.4107 0.8536 0.9200
C10 C 0.32712(19) 0.77309(16) 0.80625(13)
C11 C 0.35744(19) 0.72601(16) 0.74177(13)
H9 H 0.2949 0.6919 0.6949
C12 C 0.48123(19) 0.73080(16) 0.74854(13)
H10 H 0.4999 0.6998 0.7050
C13 C 0.19594(18) 0.77374(17) 0.80224(13)
C14 C 0.11801(19) 0.68691(17) 0.77958(13)
H11 H 0.1463 0.6256 0.7644
C15 C -0.00232(19) 0.69243(17) 0.77987(13)
H12 H -0.0532 0.6334 0.7650
C16 C 0.02540(19) 0.86288(18) 0.82067(14)
H13 H -0.0064 0.9238 0.8337
C17 C 0.14731(19) 0.86365(18) 0.82300(14)
H14 H 0.1963 0.9237 0.8383
C18 C 0.6773(2) 0.83632(18) 0.62328(14)
H15 H 0.7220 0.7763 0.6231
C19 C 0.6071(2) 0.88343(18) 0.54435(14)
H16 H 0.6049 0.8550 0.4927
C20 C 0.53933(18) 0.97362(16) 0.54204(13)
C21 C 0.5483(2) 1.01123(17) 0.62214(13)
H17 H 0.5055 1.0716 0.6244
C22 C 0.6205(2) 0.95941(17) 0.69827(14)
H18 H 0.6250 0.9862 0.7510
N5B N 0.31549(15) 1.12781(13) 0.30019(11)
C18B C 0.3227(2) 1.16368(18) 0.37672(14)
H15B H 0.2780 1.2237 0.3769
C19B C 0.3929(2) 1.11657(18) 0.45565(14)
H16B H 0.3951 1.1450 0.5073
C20B C 0.46067(18) 1.02638(16) 0.45796(13)
C21B C 0.4517(2) 0.98877(17) 0.37786(13)
H17B H 0.4945 0.9284 0.3756
C22B C 0.3795(2) 1.04059(17) 0.30173(14)
H18B H 0.3750 1.0138 0.2490
Zn1B Zn 0.22725(2) 1.214631(18) 0.184147(14)
S1B S 0.04211(6) 1.28725(5) -0.08022(4)
O1B O 0.26945(12) 1.37467(11) 0.23147(8)
O2B O 0.17251(15) 1.05689(15) -0.03341(11)
O3B O 0.18326(13) 1.09425(12) 0.09900(9)
N1B N 0.16911(15) 1.34042(14) 0.08896(10)
N2B N 0.13706(17) 1.46772(15) -0.02169(11)
N3B N 0.42382(15) 1.22200(13) 0.18513(11)
N4B N 1.04915(16) 1.22155(13) 0.19954(11)
C1B C 0.22945(18) 1.41141(17) 0.15344(13)
C2B C 0.2462(2) 1.51258(17) 0.12969(14)
H1B H 0.2868 1.5622 0.1722
C3B C 0.2014(2) 1.53703(17) 0.04228(14)
C4B C 0.2232(2) 1.64099(19) 0.01101(16)
H2B H 0.1432 1.6689 -0.0292
H3B H 0.2604 1.6869 0.0601
H4B H 0.2800 1.6339 -0.0179
C5B C 0.12447(19) 1.37391(18) 0.00606(13)
C6B C 0.01814(19) 1.17444(18) -0.02500(14)
H5B H -0.0517 1.1343 -0.0666
H6B H -0.0076 1.1972 0.0207
C7B C 0.1343(2) 1.10353(18) 0.01605(14)
C8B C 0.45284(19) 1.17759(18) 0.12351(14)
H7B H 0.3880 1.1445 0.0773
C9B C 0.57385(19) 1.17812(18) 0.12466(14)
H8B H 0.5893 1.1464 0.0800
C10B C 0.67288(19) 1.22691(16) 0.19375(13)
C11B C 0.64256(19) 1.27399(16) 0.25823(13)
H9B H 0.7051 1.3081 0.3051
C12B C 0.51877(19) 1.26920(16) 0.25146(13)
H10B H 0.5001 1.3002 0.2950
C13B C 0.80406(18) 1.22626(17) 0.19776(13)
C14B C 0.88199(19) 1.31309(17) 0.22042(13)
H11B H 0.8537 1.3744 0.2356
C15B C 1.00232(19) 1.30757(17) 0.22013(13)
H12B H 1.0532 1.3666 0.2350
C16B C 0.97460(19) 1.13712(18) 0.17933(14)
H13B H 1.0064 1.0762 0.1663
C17B C 0.85269(19) 1.13635(18) 0.17700(14)
H14B H 0.8037 1.0763 0.1617
Zn1_2 Zn -0.22725(2) 0.785369(18) 0.815853(14)
Zn1B_2 Zn 1.22725(2) 1.214631(18) 0.184147(14)
N4_2 N 0.95085(16) 0.77845(13) 0.80046(11)
N4B_2 N 0.04915(16) 1.22155(13) 0.19954(11)
O4 O 0.62327(16) 0.57417(16) 0.59288(11)
H19 H 0.657(2) 0.582(2) 0.6481(7)
H20 H 0.6812(19) 0.572(3) 0.5737(15)
O5 O 0.35965(19) 0.60239(17) 0.56778(15)
H21 H 0.4309(16) 0.586(2) 0.567(2)
H22 H 0.308(2) 0.5517(18) 0.548(2)
loop_
_geom_bond_atom_site_label_1
_geom_bond_atom_site_label_2
_geom_bond_site_symmetry_1
_geom_bond_site_symmetry_2
Zn1 O1 1_555 1_555
S1 C5 1_555 1_555
O1 C1 1_555 1_555
O2 C7 1_555 1_555
O3 Zn1 1_555 1_555
N1 Zn1 1_555 1_555
N2 C3 1_555 1_555
N3 Zn1 1_555 1_555
N4 C15 1_555 1_555
N5 Zn1 1_555 1_555
C1 N1 1_555 1_555
C2 C1 1_555 1_555
H1 C2 1_555 1_555
C3 C2 1_555 1_555
C4 C3 1_555 1_555
H2 C4 1_555 1_555
H3 C4 1_555 1_555
H4 C4 1_555 1_555
C5 N1 1_555 1_555
C6 S1 1_555 1_555
H5 C6 1_555 1_555
H6 C6 1_555 1_555
C7 O3 1_555 1_555
C8 N3 1_555 1_555
H7 C8 1_555 1_555
C9 C8 1_555 1_555
H8 C9 1_555 1_555
C10 C9 1_555 1_555
C11 C10 1_555 1_555
H9 C11 1_555 1_555
C12 N3 1_555 1_555
H10 C12 1_555 1_555
C13 C10 1_555 1_555
C14 C13 1_555 1_555
H11 C14 1_555 1_555
C15 C14 1_555 1_555
H12 C15 1_555 1_555
C16 N4 1_555 1_555
H13 C16 1_555 1_555
C17 C13 1_555 1_555
H14 C17 1_555 1_555
C18 N5 1_555 1_555
H15 C18 1_555 1_555
C19 C18 1_555 1_555
H16 C19 1_555 1_555
C20 C19 1_555 1_555
C21 C20 1_555 1_555
H17 C21 1_555 1_555
C22 N5 1_555 1_555
H18 C22 1_555 1_555
O4 H19 1_555 1_555
H20 O4 1_555 1_555
O5 H21 1_555 1_555
H22 O5 1_555 1_555
N5B C18B 1_555 1_555
C18B H15B 1_555 1_555
C19B C18B 1_555 1_555
H16B C19B 1_555 1_555
C20B C20 1_555 1_555
C21B C20B 1_555 1_555
H17B C21B 1_555 1_555
C22B N5B 1_555 1_555
H18B C22B 1_555 1_555
Zn1B N5B 1_555 1_555
S1B C5B 1_555 1_555
O1B Zn1B 1_555 1_555
O2B C7B 1_555 1_555
O3B Zn1B 1_555 1_555
N1B Zn1B 1_555 1_555
N2B C3B 1_555 1_555
N3B Zn1B 1_555 1_555
N4B C15B 1_555 1_555
C1B O1B 1_555 1_555
C2B C1B 1_555 1_555
H1B C2B 1_555 1_555
C3B C2B 1_555 1_555
C4B C3B 1_555 1_555
H2B C4B 1_555 1_555
H3B C4B 1_555 1_555
H4B C4B 1_555 1_555
C5B N1B 1_555 1_555
C6B S1B 1_555 1_555
H5B C6B 1_555 1_555
H6B C6B 1_555 1_555
C7B O3B 1_555 1_555
C8B N3B 1_555 1_555
H7B C8B 1_555 1_555
C9B C8B 1_555 1_555
H8B C9B 1_555 1_555
C10B C9B 1_555 1_555
C11B C10B 1_555 1_555
H9B C11B 1_555 1_555
C12B N3B 1_555 1_555
H10B C12B 1_555 1_555
C13B C10B 1_555 1_555
C14B C13B 1_555 1_555
H11B C14B 1_555 1_555
C15B C14B 1_555 1_555
H12B C15B 1_555 1_555
C16B N4B 1_555 1_555
H13B C16B 1_555 1_555
C17B C13B 1_555 1_555
H14B C17B 1_555 1_555
Zn1_2 N4 1_555 1_555
Zn1B_2 N4B 1_555 1_555
N4_2 Zn1 1_555 1_555
N4B_2 Zn1B 1_555 1_555
N2 C5 1_555 1_555
C6 C7 1_555 1_555
C11 C12 1_555 1_555
C16 C17 1_555 1_555
C21 C22 1_555 1_555
C19B C20B 1_555 1_555
C21B C22B 1_555 1_555
N1B C1B 1_555 1_555
N2B C5B 1_555 1_555
C6B C7B 1_555 1_555
C11B C12B 1_555 1_555
C16B C17B 1_555 1_555

#END
