
#######################################################################
#
#                 Cambridge Crystallographic Data Centre
#                                CCDC 
#
#######################################################################
#
# If this CIF has been generated from an entry in the Cambridge 
# Structural Database, then it will include bibliographic, chemical, 
# crystal, experimental, refinement or atomic coordinate data resulting 
# from the CCDC's data processing and validation procedures.
#
#######################################################################

data_HUBHAO
_symmetry_cell_setting           monoclinic
_symmetry_space_group_name_H-M   'P 21/a'
_symmetry_Int_Tables_number      14
_space_group_name_Hall           '-P 2yab'
loop_
_symmetry_equiv_pos_site_id
_symmetry_equiv_pos_as_xyz
1 x,y,z
2 1/2-x,1/2+y,-z
3 -x,-y,-z
4 1/2+x,1/2-y,z
_cell_length_a                   8.7703(5)
_cell_length_b                   6.0112(5)
_cell_length_c                   9.7663(6)
_cell_angle_alpha                90
_cell_angle_beta                 100.886(5)
_cell_angle_gamma                90
_cell_volume                     505.614
loop_
_atom_site_label
_atom_site_type_symbol
_atom_site_fract_x
_atom_site_fract_y
_atom_site_fract_z
C1 C 0.5774(3) 0.6048(5) 0.1180(2)
H1 H 0.6293 0.6777 0.1972
C2 C 0.6218(2) 0.3901(4) 0.0899(2)
C3 C 0.5426(3) 0.2875(4) -0.0305(2)
H2 H 0.5707 0.1446 -0.0525
C4 C 0.7513(3) 0.2733(5) 0.1866(2)
H3 H 0.8447 0.3631 0.1974
H4 H 0.7725 0.1322 0.1458
C5 C 0.7109(2) 0.2324(4) 0.3284(2)
Co1 Co 0.5000 0.0000 0.5000
O1 O 0.59893(17) 0.1041(3) 0.33366(16)
O2 O 0.78850(18) 0.3255(3) 0.43469(17)
O3 O 0.4102(2) -0.2863(4) 0.3902(2)
H5 H 0.336(4) -0.319(6) 0.427(3)
H6 H 0.451(6) -0.369(8) 0.348(5)
C1B C 0.4226(3) 0.3952(5) -0.1180(2)
H1B H 0.3707 0.3223 -0.1972
C2B C 0.3782(2) 0.6099(4) -0.0899(2)
C3B C 0.4574(3) 0.7125(4) 0.0305(2)
H2B H 0.4293 0.8554 0.0525
C4B C 0.2487(3) 0.7267(5) -0.1866(2)
H3B H 0.1553 0.6369 -0.1974
H4B H 0.2275 0.8678 -0.1458
C5B C 0.2891(2) 0.7676(4) -0.3284(2)
Co1_2 Co 0.5000 1.0000 -0.5000
Co1A Co 0.0000 0.5000 -0.5000
Co1A_2 Co 1.0000 0.5000 0.5000
O1B O 0.40107(17) 0.8959(3) -0.33366(16)
O1B_2 O 0.40107(17) -0.1041(3) 0.66634(16)
O2B O 0.21150(18) 0.6745(3) -0.43469(17)
O2A O 0.71150(18) -0.1745(3) 0.56531(17)
O2C O 0.28850(18) 0.1745(3) 0.43469(17)
O3B O 0.5898(2) 0.2863(4) 0.6098(2)
H5B H 0.664(4) 0.319(6) 0.573(3)
H6B H 0.549(6) 0.369(8) 0.652(5)
loop_
_geom_bond_atom_site_label_1
_geom_bond_atom_site_label_2
_geom_bond_site_symmetry_1
_geom_bond_site_symmetry_2
C1 H1 1_555 1_555
C2 C1 1_555 1_555
C3 C2 1_555 1_555
H2 C3 1_555 1_555
C4 C2 1_555 1_555
H3 C4 1_555 1_555
H4 C4 1_555 1_555
C5 C4 1_555 1_555
Co1 O1 1_555 1_555
O1 C5 1_555 1_555
O2 C5 1_555 1_555
O3 Co1 1_555 1_555
H5 O3 1_555 1_555
H6 O3 1_555 1_555
C1B C3 1_555 1_555
H1B C1B 1_555 1_555
C2B C1B 1_555 1_555
C3B C1 1_555 1_555
H2B C3B 1_555 1_555
C4B C2B 1_555 1_555
H3B C4B 1_555 1_555
H4B C4B 1_555 1_555
C5B C4B 1_555 1_555
Co1_2 O1B 1_555 1_555
Co1A O2B 1_555 1_555
Co1A_2 O2 1_555 1_555
O1B C5B 1_555 1_555
O1B_2 Co1 1_555 1_555
O2B C5B 1_555 1_555
O2A Co1 1_555 1_555
O2C Co1 1_555 1_555
O3B Co1 1_555 1_555
H5B O3B 1_555 1_555
H6B O3B 1_555 1_555
C2B C3B 1_555 1_555

#END
