
#######################################################################
#
#                 Cambridge Crystallographic Data Centre
#                                CCDC 
#
#######################################################################
#
# If this CIF has been generated from an entry in the Cambridge 
# Structural Database, then it will include bibliographic, chemical, 
# crystal, experimental, refinement or atomic coordinate data resulting 
# from the CCDC's data processing and validation procedures.
#
#######################################################################

data_HUBHES
_symmetry_cell_setting           monoclinic
_symmetry_space_group_name_H-M   'P 21/a'
_symmetry_Int_Tables_number      14
_space_group_name_Hall           '-P 2yab'
loop_
_symmetry_equiv_pos_site_id
_symmetry_equiv_pos_as_xyz
1 x,y,z
2 1/2-x,1/2+y,-z
3 -x,-y,-z
4 1/2+x,1/2-y,z
_cell_length_a                   9.6427(4)
_cell_length_b                   4.8841(2)
_cell_length_c                   19.6584(8)
_cell_angle_alpha                90
_cell_angle_beta                 95.290(3)
_cell_angle_gamma                90
_cell_volume                     921.887
loop_
_atom_site_label
_atom_site_type_symbol
_atom_site_fract_x
_atom_site_fract_y
_atom_site_fract_z
Co1 Co 0.29131(4) 0.69368(7) 0.238516(16)
O1 O 0.3011(2) 0.3054(4) 0.21521(9)
O2 O 0.32778(19) -0.0800(4) 0.16033(8)
O3 O 0.41528(18) 0.7883(4) 0.31953(9)
O4 O 0.59817(18) 0.7618(4) 0.26144(8)
C1 C 0.4000(3) 0.2014(6) -0.00943(13)
C2 C 0.5633(3) -0.0495(6) 0.06437(13)
C3 C 0.4632(3) 0.1547(5) 0.05570(12)
C4 C 0.4253(3) 0.3230(6) 0.11554(14)
C5 C 0.3453(2) 0.1742(6) 0.16661(12)
C6 C 0.5989(3) 0.8047(8) 0.49346(16)
C7 C 0.4632(3) 1.1727(8) 0.44650(16)
C8 C 0.5625(3) 0.9753(7) 0.43913(14)
C9 C 0.6310(4) 0.9496(11) 0.37344(17)
C10 C 0.5431(3) 0.8228(6) 0.31469(12)
H1 H 0.333(3) 0.338(6) -0.0160(12)
H2 H 0.607(3) -0.084(6) 0.1105(14)
H3 H 0.665(4) 0.671(8) 0.4914(17)
H4 H 0.439(3) 1.298(7) 0.4124(15)
H5 H 0.373(3) 0.488(7) 0.1000(15)
H6 H 0.509(3) 0.393(6) 0.1410(14)
H7 H 0.673(5) 1.104(10) 0.359(2)
H8 H 0.708(4) 0.818(9) 0.3824(19)
Co1B Co 0.70869(4) -0.69368(7) -0.238516(16)
Co1_2 Co 0.29131(4) -0.30632(7) 0.238516(16)
Co1C Co 0.79131(4) 0.80632(7) 0.238516(16)
Co1B_2 Co 0.70869(4) 0.30632(7) -0.238516(16)
Co1B_3 Co 0.70869(4) 1.30632(7) 0.761484(16)
Co1A Co 0.20869(4) 1.19368(7) 0.761484(16)
O1B O 0.6989(2) -0.3054(4) -0.21521(9)
O2B O 0.67222(19) 0.0800(4) -0.16033(8)
O2_2 O 0.32778(19) 0.9200(4) 0.16033(8)
O2B_2 O 0.67222(19) -0.9200(4) -0.16033(8)
O3B O 0.58472(18) 1.2117(4) 0.68047(9)
O3B_2 O 0.58472(18) -0.7883(4) -0.31953(9)
O4B O 0.40183(18) 1.2382(4) 0.73856(8)
O4C O 0.09817(18) 0.7382(4) 0.26144(8)
O4A O 0.90183(18) -0.7382(4) -0.26144(8)
C1B C 0.6000(3) -0.2014(6) 0.00943(13)
C2B C 0.4367(3) 0.0495(6) -0.06437(13)
C3B C 0.5368(3) -0.1547(5) -0.05570(12)
C4B C 0.5747(3) -0.3230(6) -0.11554(14)
C5B C 0.6547(2) -0.1742(6) -0.16661(12)
C6B C 0.4011(3) 1.1953(8) 0.50654(16)
C7B C 0.5368(3) 0.8273(8) 0.55350(16)
C8B C 0.4375(3) 1.0247(7) 0.56087(14)
C9B C 0.3690(4) 1.0504(11) 0.62656(17)
C10B C 0.4569(3) 1.1772(6) 0.68531(12)
H1B H 0.667(3) -0.338(6) 0.0160(12)
H2B H 0.393(3) 0.084(6) -0.1105(14)
H3B H 0.335(4) 1.329(8) 0.5086(17)
H4B H 0.561(3) 0.702(7) 0.5876(15)
H5B H 0.627(3) -0.488(7) -0.1000(15)
H6B H 0.491(3) -0.393(6) -0.1410(14)
H7B H 0.327(5) 0.896(10) 0.641(2)
H8B H 0.292(4) 1.182(9) 0.6176(19)
loop_
_geom_bond_atom_site_label_1
_geom_bond_atom_site_label_2
_geom_bond_site_symmetry_1
_geom_bond_site_symmetry_2
Co1 O1 1_555 1_555
O1 C5 1_555 1_555
O2 C5 1_555 1_555
O3 Co1 1_555 1_555
O4 C10 1_555 1_555
C1 C3 1_555 1_555
C2 C3 1_555 1_555
C3 C4 1_555 1_555
C4 C5 1_555 1_555
C6 C8 1_555 1_555
C7 C8 1_555 1_555
C8 C9 1_555 1_555
C9 C10 1_555 1_555
C10 O3 1_555 1_555
H1 C1 1_555 1_555
H2 C2 1_555 1_555
H3 C6 1_555 1_555
H4 C7 1_555 1_555
H5 C4 1_555 1_555
H6 C4 1_555 1_555
H7 C9 1_555 1_555
H8 C9 1_555 1_555
Co1B O1B 1_555 1_555
Co1_2 O2 1_555 1_555
Co1C O4 1_555 1_555
Co1B_2 O2B 1_555 1_555
Co1B_3 O3B 1_555 1_555
Co1A O4B 1_555 1_555
O1B C5B 1_555 1_555
O2B C5B 1_555 1_555
O2_2 Co1 1_555 1_555
O2B_2 Co1B 1_555 1_555
O3B C10B 1_555 1_555
O3B_2 Co1B 1_555 1_555
O4B C10B 1_555 1_555
O4C Co1 1_555 1_555
O4A Co1B 1_555 1_555
C1B C2 1_555 1_555
C2B C1 1_555 1_555
C3B C1B 1_555 1_555
C4B C3B 1_555 1_555
C5B C4B 1_555 1_555
C6B C7 1_555 1_555
C7B C6 1_555 1_555
C8B C6B 1_555 1_555
C9B C8B 1_555 1_555
C10B C9B 1_555 1_555
H1B C1B 1_555 1_555
H2B C2B 1_555 1_555
H3B C6B 1_555 1_555
H4B C7B 1_555 1_555
H5B C4B 1_555 1_555
H6B C4B 1_555 1_555
H7B C9B 1_555 1_555
H8B C9B 1_555 1_555
C2B C3B 1_555 1_555
C7B C8B 1_555 1_555

#END
