
#######################################################################
#
#                 Cambridge Crystallographic Data Centre
#                                CCDC 
#
#######################################################################
#
# If this CIF has been generated from an entry in the Cambridge 
# Structural Database, then it will include bibliographic, chemical, 
# crystal, experimental, refinement or atomic coordinate data resulting 
# from the CCDC's data processing and validation procedures.
#
#######################################################################

data_HUBKEV
_symmetry_cell_setting           monoclinic
_symmetry_space_group_name_H-M   'C 2/c'
_symmetry_Int_Tables_number      15
_space_group_name_Hall           '-C 2yn'
loop_
_symmetry_equiv_pos_site_id
_symmetry_equiv_pos_as_xyz
1 x,y,z
2 -x,y,1/2-z
3 1/2+x,1/2+y,z
4 1/2-x,1/2+y,1/2-z
5 -x,-y,-z
6 x,-y,1/2+z
7 1/2-x,1/2-y,-z
8 1/2+x,1/2-y,1/2+z
_cell_length_a                   16.1372(16)
_cell_length_b                   13.4945(14)
_cell_length_c                   11.8557(12)
_cell_angle_alpha                90
_cell_angle_beta                 96.9610(10)
_cell_angle_gamma                90
_cell_volume                     2562.71
loop_
_atom_site_label
_atom_site_type_symbol
_atom_site_fract_x
_atom_site_fract_y
_atom_site_fract_z
Mn1 Mn 0.079140(18) 0.16299(2) 1.07443(2)
Mn2 Mn 0.2500 0.2500 1.0000
C1 C 0.21238(11) 0.02658(14) 0.96466(15)
C2 C 0.23118(12) -0.07442(14) 0.91605(17)
H1 H 0.2333 -0.1238 0.9758
H2 H 0.1864 -0.0924 0.8576
C3 C 0.31246(12) -0.04235(16) 0.76075(17)
H3 H 0.2631 -0.0215 0.7188
C4 C 0.38229(12) -0.10299(15) 0.93047(17)
H4 H 0.3805 -0.1258 1.0042
C5 C 0.45730(13) -0.09832(16) 0.88715(17)
H5 H 0.5063 -0.1160 0.9322
C6 C 0.38589(13) -0.03937(16) 0.71272(17)
H6 H 0.3857 -0.0187 0.6379
C7 C 0.45998(12) -0.06711(14) 0.77560(16)
N1 N 0.06292(11) 0.05757(14) 1.20988(15)
N2 N 0.0000 0.05797(17) 1.2500
N3 N 0.01502(12) 0.28907(15) 1.15532(15)
N4 N 0.0000 0.28804(18) 1.2500
N5 N 0.11644(10) 0.24414(12) 0.92713(13)
N6 N 0.10541(11) 0.21639(13) 0.83076(15)
N7 N 0.09606(16) 0.1927(2) 0.73767(18)
N8 N 0.29859(10) 0.28255(13) 0.83601(13)
N9 N 0.29628(10) 0.23068(13) 0.75376(14)
N10 N 0.29405(14) 0.18341(16) 0.67264(17)
N11 N 0.31127(10) -0.07481(11) 0.86701(13)
O1 O 0.14368(8) 0.03261(10) 1.00329(12)
O2 O 0.26569(8) 0.09285(10) 0.96352(12)
O3 O -0.03801(10) 0.12252(13) 0.98112(14)
H7 H -0.0624(17) 0.077(2) 0.993(2)
H8 H -0.0518(17) 0.144(2) 0.911(2)
Mn1F Mn 0.420860(18) 0.33701(2) 0.92557(2)
Mn1A Mn 0.920860(18) 0.16299(2) 0.42557(2)
Mn1A_2 Mn -0.079140(18) 0.16299(2) 1.42557(2)
Mn2A Mn 0.7500 0.2500 0.5000
C1A C 0.78762(11) 0.02658(14) 0.53534(15)
C2A C 0.76882(12) -0.07442(14) 0.58395(17)
H1A H 0.7667 -0.1238 0.5242
H2A H 0.8136 -0.0924 0.6424
C3A C 0.68754(12) -0.04235(16) 0.73925(17)
H3A H 0.7369 -0.0215 0.7812
C4A C 0.61771(12) -0.10299(15) 0.56953(17)
H4A H 0.6195 -0.1258 0.4958
C5A C 0.54270(13) -0.09832(16) 0.61285(17)
H5A H 0.4937 -0.1160 0.5678
C6A C 0.61411(13) -0.03937(16) 0.78728(17)
H6A H 0.6143 -0.0187 0.8621
C7A C 0.54002(12) -0.06711(14) 0.72440(16)
N1A N -0.06292(11) 0.05757(14) 1.29012(15)
N1F N 0.43708(11) 0.44243(14) 0.79012(15)
N3A N -0.01502(12) 0.28907(15) 1.34468(15)
N3F N 0.48498(12) 0.21093(15) 0.84468(15)
N5F N 0.38356(10) 0.25586(12) 1.07287(13)
N6F N 0.39459(11) 0.28361(13) 1.16924(15)
N7F N 0.40394(16) 0.3073(2) 1.26233(18)
N8F N 0.20141(10) 0.21745(13) 1.16399(13)
N9F N 0.20372(10) 0.26932(13) 1.24624(14)
N10F N 0.20595(14) 0.31659(16) 1.32736(17)
N11A N 0.68873(10) -0.07481(11) 0.63299(13)
O1A O 0.85632(8) 0.03261(10) 0.49671(12)
O1F O 0.35632(8) 0.46739(10) 0.99671(12)
O2A O 0.73431(8) 0.09285(10) 0.53648(12)
O2F O 0.23431(8) 0.40715(10) 1.03648(12)
O3F O 0.53801(10) 0.37748(13) 1.01888(14)
H7F H 0.5624(17) 0.423(2) 1.007(2)
H8F H 0.5518(17) 0.356(2) 1.089(2)
loop_
_geom_bond_atom_site_label_1
_geom_bond_atom_site_label_2
_geom_bond_site_symmetry_1
_geom_bond_site_symmetry_2
Mn1 N1 1_555 1_555
Mn2 N5 1_555 1_555
C1 C2 1_555 1_555
C2 H1 1_555 1_555
H2 C2 1_555 1_555
C3 H3 1_555 1_555
C4 H4 1_555 1_555
C5 C4 1_555 1_555
H5 C5 1_555 1_555
C6 C3 1_555 1_555
H6 C6 1_555 1_555
C7 C5 1_555 1_555
N1 N2 1_555 1_555
N2 N1A 1_555 1_555
N3 Mn1 1_555 1_555
N4 N3 1_555 1_555
N5 Mn1 1_555 1_555
N6 N5 1_555 1_555
N7 N6 1_555 1_555
N8 Mn2 1_555 1_555
N9 N8 1_555 1_555
N10 N9 1_555 1_555
N11 C2 1_555 1_555
O1 Mn1 1_555 1_555
O2 Mn2 1_555 1_555
O3 Mn1 1_555 1_555
H7 O3 1_555 1_555
H8 O3 1_555 1_555
Mn1F N8 1_555 1_555
Mn1A O1A 1_555 1_555
Mn1A_2 N1A 1_555 1_555
Mn2A O2A 1_555 1_555
C1A C2A 1_555 1_555
C2A H1A 1_555 1_555
H2A C2A 1_555 1_555
C3A H3A 1_555 1_555
C4A H4A 1_555 1_555
C5A C4A 1_555 1_555
H5A C5A 1_555 1_555
C6A C3A 1_555 1_555
H6A C6A 1_555 1_555
C7A C7 1_555 1_555
N1F Mn1F 1_555 1_555
N3A N4 1_555 1_555
N3F Mn1F 1_555 1_555
N5F Mn2 1_555 1_555
N6F N5F 1_555 1_555
N7F N6F 1_555 1_555
N8F Mn1 1_555 1_555
N9F N8F 1_555 1_555
N10F N9F 1_555 1_555
N11A C2A 1_555 1_555
O1A C1A 1_555 1_555
O1F Mn1F 1_555 1_555
O2A C1A 1_555 1_555
O2F Mn2 1_555 1_555
O3F Mn1F 1_555 1_555
H7F O3F 1_555 1_555
H8F O3F 1_555 1_555
Mn2 N8F 1_555 1_555
C1 O1 1_555 1_555
C1 O2 1_555 1_555
C3 N11 1_555 1_555
C4 N11 1_555 1_555
C6 C7 1_555 1_555
Mn1F N5F 1_555 1_555
Mn1A_2 N3A 1_555 1_555
C3A N11A 1_555 1_555
C4A N11A 1_555 1_555
C5A C7A 1_555 1_555
C6A C7A 1_555 1_555

#END
