
#######################################################################
#
#                 Cambridge Crystallographic Data Centre
#                                CCDC 
#
#######################################################################
#
# If this CIF has been generated from an entry in the Cambridge 
# Structural Database, then it will include bibliographic, chemical, 
# crystal, experimental, refinement or atomic coordinate data resulting 
# from the CCDC's data processing and validation procedures.
#
#######################################################################

data_HUBKAR
_symmetry_cell_setting           monoclinic
_symmetry_space_group_name_H-M   'C 2/c'
_symmetry_Int_Tables_number      15
_space_group_name_Hall           '-C 2yn'
loop_
_symmetry_equiv_pos_site_id
_symmetry_equiv_pos_as_xyz
1 x,y,z
2 -x,y,1/2-z
3 1/2+x,1/2+y,z
4 1/2-x,1/2+y,1/2-z
5 -x,-y,-z
6 x,-y,1/2+z
7 1/2-x,1/2-y,-z
8 1/2+x,1/2-y,1/2+z
_cell_length_a                   24.771(5)
_cell_length_b                   6.2498(12)
_cell_length_c                   15.335(3)
_cell_angle_alpha                90
_cell_angle_beta                 107.53(3)
_cell_angle_gamma                90
_cell_volume                     2263.82
loop_
_atom_site_label
_atom_site_type_symbol
_atom_site_fract_x
_atom_site_fract_y
_atom_site_fract_z
Co1 Co 0.25258(3) 0.25949(9) 0.75280(4)
C1 C 0.28414(19) -0.0029(8) 0.9263(3)
C2 C 0.3172(2) -0.0334(9) 1.0277(3)
H1 H 0.2911 -0.0196 1.0635
H2 H 0.3323 -0.1776 1.0363
C3 C 0.4142(3) 0.0687(11) 1.0509(4)
H3 H 0.4196 -0.0559 1.0214
C4 C 0.3550(2) 0.2951(10) 1.1061(4)
H4 H 0.3196 0.3207 1.1130
C5 C 0.3978(2) 0.4435(10) 1.1410(4)
H5 H 0.3910 0.5665 1.1702
C6 C 0.4587(3) 0.2151(11) 1.0849(4)
H6 H 0.4937 0.1869 1.0766
C7 C 0.4518(2) 0.4044(10) 1.1314(4)
C8 C 0.5003(3) 0.5490(10) 1.1671(4)
H7 H 0.5022 0.6438 1.1181
H8 H 0.5346 0.4635 1.1839
C9 C 0.5000 0.6870(16) 1.2500
N1 N 0.3627(2) 0.1142(8) 1.0623(3)
N2 N 0.30630(17) 0.0057(6) 0.7371(2)
N3 N 0.3561(2) 0.0039(7) 0.7776(3)
N4 N 0.4038(2) 0.0023(9) 0.8152(4)
N5 N 0.18810(16) 0.0145(6) 0.7163(2)
N6 N 0.15132(18) 0.0335(7) 0.6448(3)
N7 N 0.1152(2) 0.0580(9) 0.5777(3)
O1 O 0.27834(14) 0.1826(5) 0.8951(2)
O2 O 0.26611(15) -0.1714(5) 0.8870(2)
H9 H 0.540(2) 0.784(7) 1.258(3)
Co1C Co 0.24742(3) -0.24051(9) 0.74720(4)
Co1B Co 0.75258(3) -0.24051(9) 1.75280(4)
Co1A Co 0.74742(3) 0.25949(9) 1.74720(4)
C1A C 0.71586(19) -0.0029(8) 1.5737(3)
C2A C 0.6828(2) -0.0334(9) 1.4723(3)
H1A H 0.7089 -0.0196 1.4365
H2A H 0.6677 -0.1776 1.4637
C3A C 0.5858(3) 0.0687(11) 1.4491(4)
H3A H 0.5804 -0.0559 1.4786
C4A C 0.6450(2) 0.2951(10) 1.3939(4)
H4A H 0.6804 0.3207 1.3870
C5A C 0.6022(2) 0.4435(10) 1.3590(4)
H5A H 0.6090 0.5665 1.3298
C6A C 0.5413(3) 0.2151(11) 1.4151(4)
H6A H 0.5063 0.1869 1.4234
C7A C 0.5482(2) 0.4044(10) 1.3686(4)
C8A C 0.4997(3) 0.5490(10) 1.3329(4)
H7A H 0.4978 0.6438 1.3819
H8A H 0.4654 0.4635 1.3161
N1A N 0.6373(2) 0.1142(8) 1.4377(3)
N2C N 0.19370(17) 0.5057(6) 0.7629(2)
N2A N 0.69370(17) 0.0057(6) 1.7629(2)
N2B N 0.80630(17) -0.4943(6) 1.7371(2)
N3A N 0.6439(2) 0.0039(7) 1.7224(3)
N4A N 0.5962(2) 0.0023(9) 1.6848(4)
N5C N 0.31190(16) 0.5145(6) 0.7837(2)
N5A N 0.81190(16) 0.0145(6) 1.7837(2)
N5B N 0.68810(16) -0.4855(6) 1.7163(2)
N6A N 0.84868(18) 0.0335(7) 1.8552(3)
N7A N 0.8848(2) 0.0580(9) 1.9223(3)
O1A O 0.72166(14) 0.1826(5) 1.6049(2)
O1B O 0.77834(14) -0.3174(5) 1.8951(2)
O2A O 0.73389(15) -0.1714(5) 1.6130(2)
O2C O 0.23389(15) 0.3286(5) 0.6130(2)
H9A H 0.460(2) 0.784(7) 1.242(3)
loop_
_geom_bond_atom_site_label_1
_geom_bond_atom_site_label_2
_geom_bond_site_symmetry_1
_geom_bond_site_symmetry_2
Co1 N2 1_555 1_555
C1 C2 1_555 1_555
C2 H1 1_555 1_555
H2 C2 1_555 1_555
C3 H3 1_555 1_555
C4 H4 1_555 1_555
C5 C4 1_555 1_555
H5 C5 1_555 1_555
C6 C3 1_555 1_555
H6 C6 1_555 1_555
C7 C5 1_555 1_555
C8 C7 1_555 1_555
H7 C8 1_555 1_555
H8 C8 1_555 1_555
C9 C8 1_555 1_555
N1 C2 1_555 1_555
N2 N3 1_555 1_555
N3 N4 1_555 1_555
N5 Co1 1_555 1_555
N6 N5 1_555 1_555
N7 N6 1_555 1_555
O1 Co1 1_555 1_555
O2 C1 1_555 1_555
H9 C9 1_555 1_555
Co1C N2 1_555 1_555
Co1B N2A 1_555 1_555
Co1A N2A 1_555 1_555
C1A C2A 1_555 1_555
C2A H1A 1_555 1_555
H2A C2A 1_555 1_555
C3A H3A 1_555 1_555
C4A H4A 1_555 1_555
C5A C4A 1_555 1_555
H5A C5A 1_555 1_555
C6A C3A 1_555 1_555
H6A C6A 1_555 1_555
C7A C5A 1_555 1_555
C8A C9 1_555 1_555
H7A C8A 1_555 1_555
H8A C8A 1_555 1_555
N1A C2A 1_555 1_555
N2C Co1 1_555 1_555
N2A N3A 1_555 1_555
N2B Co1B 1_555 1_555
N3A N4A 1_555 1_555
N5C Co1 1_555 1_555
N5A Co1B 1_555 1_555
N5B Co1B 1_555 1_555
N6A N5A 1_555 1_555
N7A N6A 1_555 1_555
O1A Co1A 1_555 1_555
O1B Co1B 1_555 1_555
O2A Co1B 1_555 1_555
O2C Co1 1_555 1_555
H9A C9 1_555 1_555
C1 O1 1_555 1_555
C3 N1 1_555 1_555
C4 N1 1_555 1_555
C6 C7 1_555 1_555
N5 Co1C 1_555 1_555
O2 Co1C 1_555 1_555
Co1A N5A 1_555 1_555
C1A O1A 1_555 1_555
C1A O2A 1_555 1_555
C3A N1A 1_555 1_555
C4A N1A 1_555 1_555
C6A C7A 1_555 1_555
C7A C8A 1_555 1_555

#END
