
#######################################################################
#
#                 Cambridge Crystallographic Data Centre
#                                CCDC 
#
#######################################################################
#
# If this CIF has been generated from an entry in the Cambridge 
# Structural Database, then it will include bibliographic, chemical, 
# crystal, experimental, refinement or atomic coordinate data resulting 
# from the CCDC's data processing and validation procedures.
#
#######################################################################

data_HUBKIZ
_symmetry_cell_setting           monoclinic
_symmetry_space_group_name_H-M   'C 2/c'
_symmetry_Int_Tables_number      15
_space_group_name_Hall           '-C 2yn'
loop_
_symmetry_equiv_pos_site_id
_symmetry_equiv_pos_as_xyz
1 x,y,z
2 -x,y,1/2-z
3 1/2+x,1/2+y,z
4 1/2-x,1/2+y,1/2-z
5 -x,-y,-z
6 x,-y,1/2+z
7 1/2-x,1/2-y,-z
8 1/2+x,1/2-y,1/2+z
_cell_length_a                   15.9219(2)
_cell_length_b                   13.3137(2)
_cell_length_c                   11.7049(2)
_cell_angle_alpha                90
_cell_angle_beta                 96.6570(10)
_cell_angle_gamma                90
_cell_volume                     2464.47
loop_
_atom_site_label
_atom_site_type_symbol
_atom_site_fract_x
_atom_site_fract_y
_atom_site_fract_z
Co1 Co 0.082290(14) 0.164291(17) 1.075018(19)
Co2 Co 0.2500 0.2500 1.0000
C1 C 0.20937(10) 0.02990(13) 0.96482(13)
C2 C 0.22801(10) -0.07424(13) 0.91925(15)
H1 H 0.2302 -0.1225 0.9816
H2 H 0.1826 -0.0939 0.8611
C3 C 0.31033(11) -0.04279(14) 0.76144(15)
H3 H 0.2605 -0.0212 0.7193
C4 C 0.38064(11) -0.10524(14) 0.93285(15)
H4 H 0.3785 -0.1287 1.0073
C5 C 0.45664(11) -0.10083(15) 0.88914(15)
H5 H 0.5061 -0.1191 0.9346
C6 C 0.38462(12) -0.04039(15) 0.71259(16)
H6 H 0.3845 -0.0196 0.6367
C7 C 0.45963(11) -0.06881(13) 0.77598(15)
N1 N 0.06371(10) 0.06374(12) 1.20924(13)
N2 N 0.0000 0.06402(15) 1.2500
N3 N 0.01681(10) 0.28524(13) 1.15446(14)
N4 N 0.0000 0.28421(16) 1.2500
N5 N 0.11969(9) 0.24627(11) 0.93272(12)
N6 N 0.10724(9) 0.21523(12) 0.83583(13)
N7 N 0.09640(14) 0.18832(19) 0.74247(17)
N8 N 0.29878(9) 0.28474(12) 0.84197(12)
N9 N 0.29603(9) 0.23244(12) 0.75794(13)
N10 N 0.29329(13) 0.18555(15) 0.67542(16)
N11 N 0.30900(9) -0.07601(11) 0.86913(12)
O1 O 0.13953(8) 0.03651(9) 1.00431(11)
O2 O 0.26304(7) 0.09671(9) 0.96061(11)
O3 O -0.03264(9) 0.12358(12) 0.98298(13)
H7 H -0.0559(16) 0.077(2) 0.992(2)
H8 H -0.0432(16) 0.1439(19) 0.914(2)
Co1F Co 0.417710(14) 0.335709(17) 0.924982(19)
Co1A Co 0.917710(14) 0.164291(17) 0.424982(19)
Co1A_2 Co -0.082290(14) 0.164291(17) 1.424982(19)
Co2A Co 0.7500 0.2500 0.5000
C1A C 0.79063(10) 0.02990(13) 0.53518(13)
C2A C 0.77199(10) -0.07424(13) 0.58075(15)
H1A H 0.7698 -0.1225 0.5184
H2A H 0.8174 -0.0939 0.6389
C3A C 0.68967(11) -0.04279(14) 0.73856(15)
H3A H 0.7395 -0.0212 0.7807
C4A C 0.61936(11) -0.10524(14) 0.56715(15)
H4A H 0.6215 -0.1287 0.4927
C5A C 0.54336(11) -0.10083(15) 0.61086(15)
H5A H 0.4939 -0.1191 0.5654
C6A C 0.61538(12) -0.04039(15) 0.78741(16)
H6A H 0.6155 -0.0196 0.8633
C7A C 0.54037(11) -0.06881(13) 0.72402(15)
N1A N -0.06371(10) 0.06374(12) 1.29076(13)
N1F N 0.43629(10) 0.43626(12) 0.79076(13)
N3A N -0.01681(10) 0.28524(13) 1.34554(14)
N3F N 0.48319(10) 0.21476(13) 0.84554(14)
N5F N 0.38031(9) 0.25373(11) 1.06728(12)
N6F N 0.39276(9) 0.28477(12) 1.16417(13)
N7F N 0.40360(14) 0.31168(19) 1.25753(17)
N8F N 0.20122(9) 0.21526(12) 1.15803(12)
N9F N 0.20397(9) 0.26756(12) 1.24206(13)
N10F N 0.20671(13) 0.31445(15) 1.32458(16)
N11A N 0.69100(9) -0.07601(11) 0.63087(12)
O1A O 0.86047(8) 0.03651(9) 0.49569(11)
O1F O 0.36047(8) 0.46349(9) 0.99569(11)
O2A O 0.73696(7) 0.09671(9) 0.53939(11)
O2F O 0.23696(7) 0.40329(9) 1.03939(11)
O3F O 0.53264(9) 0.37642(12) 1.01702(13)
H7F H 0.5559(16) 0.423(2) 1.008(2)
H8F H 0.5432(16) 0.3561(19) 1.086(2)
loop_
_geom_bond_atom_site_label_1
_geom_bond_atom_site_label_2
_geom_bond_site_symmetry_1
_geom_bond_site_symmetry_2
Co1 N1 1_555 1_555
Co2 N5 1_555 1_555
C1 C2 1_555 1_555
C2 H1 1_555 1_555
H2 C2 1_555 1_555
C3 H3 1_555 1_555
C4 H4 1_555 1_555
C5 C4 1_555 1_555
H5 C5 1_555 1_555
C6 C3 1_555 1_555
H6 C6 1_555 1_555
C7 C5 1_555 1_555
N1 N2 1_555 1_555
N2 N1A 1_555 1_555
N3 Co1 1_555 1_555
N4 N3 1_555 1_555
N5 Co1 1_555 1_555
N6 N5 1_555 1_555
N7 N6 1_555 1_555
N8 Co2 1_555 1_555
N9 N8 1_555 1_555
N10 N9 1_555 1_555
N11 C2 1_555 1_555
O1 Co1 1_555 1_555
O2 Co2 1_555 1_555
O3 Co1 1_555 1_555
H7 O3 1_555 1_555
H8 O3 1_555 1_555
Co1F N8 1_555 1_555
Co1A O1A 1_555 1_555
Co1A_2 N1A 1_555 1_555
Co2A O2A 1_555 1_555
C1A C2A 1_555 1_555
C2A H1A 1_555 1_555
H2A C2A 1_555 1_555
C3A H3A 1_555 1_555
C4A H4A 1_555 1_555
C5A C4A 1_555 1_555
H5A C5A 1_555 1_555
C6A C3A 1_555 1_555
H6A C6A 1_555 1_555
C7A C7 1_555 1_555
N1F Co1F 1_555 1_555
N3A N4 1_555 1_555
N3F Co1F 1_555 1_555
N5F Co2 1_555 1_555
N6F N5F 1_555 1_555
N7F N6F 1_555 1_555
N8F Co1 1_555 1_555
N9F N8F 1_555 1_555
N10F N9F 1_555 1_555
N11A C2A 1_555 1_555
O1A C1A 1_555 1_555
O1F Co1F 1_555 1_555
O2A C1A 1_555 1_555
O2F Co2 1_555 1_555
O3F Co1F 1_555 1_555
H7F O3F 1_555 1_555
H8F O3F 1_555 1_555
Co2 N8F 1_555 1_555
C1 O1 1_555 1_555
C1 O2 1_555 1_555
C3 N11 1_555 1_555
C4 N11 1_555 1_555
C6 C7 1_555 1_555
Co1F N5F 1_555 1_555
Co1A_2 N3A 1_555 1_555
C3A N11A 1_555 1_555
C4A N11A 1_555 1_555
C5A C7A 1_555 1_555
C6A C7A 1_555 1_555

#END
