
#######################################################################
#
#                 Cambridge Crystallographic Data Centre
#                                CCDC 
#
#######################################################################
#
# If this CIF has been generated from an entry in the Cambridge 
# Structural Database, then it will include bibliographic, chemical, 
# crystal, experimental, refinement or atomic coordinate data resulting 
# from the CCDC's data processing and validation procedures.
#
#######################################################################

data_HUBKIA
_symmetry_cell_setting           orthorhombic
_symmetry_space_group_name_H-M   'P b c a'
_symmetry_Int_Tables_number      61
_space_group_name_Hall           '-P 2ac 2ab'
loop_
_symmetry_equiv_pos_site_id
_symmetry_equiv_pos_as_xyz
1 x,y,z
2 1/2-x,-y,1/2+z
3 1/2+x,1/2-y,-z
4 -x,1/2+y,1/2-z
5 -x,-y,-z
6 1/2+x,y,1/2-z
7 1/2-x,1/2+y,z
8 x,1/2-y,1/2+z
_cell_length_a                   10.3424(14)
_cell_length_b                   12.1287(16)
_cell_length_c                   22.674(3)
_cell_angle_alpha                90
_cell_angle_beta                 90
_cell_angle_gamma                90
_cell_volume                     2844.22
loop_
_atom_site_label
_atom_site_type_symbol
_atom_site_fract_x
_atom_site_fract_y
_atom_site_fract_z
Mo1 Mo 0.210420(18) 0.213946(15) 0.661530(9)
O1 O 0.32170(16) 0.31822(13) 0.70792(7)
N1 N 0.4825(2) 0.31386(15) 0.63708(9)
C1 C 0.3465(2) 0.12103(17) 0.52882(10)
O2 O 0.10558(17) 0.18800(13) 0.71752(8)
N2 N 0.39755(18) 0.23781(15) 0.61075(9)
C2 C 0.3732(3) 0.0934(2) 0.46939(11)
O3 O 0.20418(15) 0.08435(13) 0.61206(7)
N3 N 0.65059(19) 0.58566(14) 0.78467(8)
C3 C 0.3000(3) 0.0171(3) 0.43959(13)
O4 O 0.13363(19) 0.30404(14) 0.61618(8)
C4 C 0.1982(3) -0.0360(2) 0.46701(13)
C5 C 0.1691(3) -0.01119(19) 0.52493(12)
C6 C 0.2406(2) 0.06706(18) 0.55590(10)
C7 C 0.4302(2) 0.20146(16) 0.55877(11)
C8 C 0.5507(2) 0.2409(2) 0.52882(12)
H1 H 0.5284 0.2924 0.4983
H2 H 0.5954 0.1792 0.5118
H3 H 0.6058 0.2764 0.5571
C9 C 0.4331(2) 0.34974(17) 0.68566(10)
C10 C 0.5079(2) 0.43180(17) 0.72015(10)
C11 C 0.5999(3) 0.4980(2) 0.69320(11)
C12 C 0.6671(3) 0.5736(2) 0.72672(11)
C13 C 0.5619(2) 0.52064(19) 0.81035(11)
C14 C 0.4877(2) 0.44476(19) 0.78005(11)
H4 H 0.150(3) -0.091(2) 0.4469(11)
H5 H 0.099(3) -0.039(2) 0.5446(12)
H6 H 0.555(2) 0.5238(19) 0.8527(11)
H7 H 0.436(3) 0.402(2) 0.8030(11)
H8 H 0.436(3) 0.129(2) 0.4487(12)
H9 H 0.616(3) 0.4901(19) 0.6511(11)
H10 H 0.322(3) -0.006(2) 0.4069(14)
H11 H 0.724(3) 0.615(3) 0.7073(14)
Mo1C Mo 0.789580(18) 0.713946(15) 0.838470(9)
N3C N 0.34941(19) 0.08566(14) 0.71533(8)
loop_
_geom_bond_atom_site_label_1
_geom_bond_atom_site_label_2
_geom_bond_site_symmetry_1
_geom_bond_site_symmetry_2
Mo1 O1 1_555 1_555
O1 C9 1_555 1_555
N1 N2 1_555 1_555
C1 C2 1_555 1_555
O2 Mo1 1_555 1_555
N2 Mo1 1_555 1_555
C2 C3 1_555 1_555
O3 Mo1 1_555 1_555
N3 C12 1_555 1_555
C3 C4 1_555 1_555
O4 Mo1 1_555 1_555
C4 C5 1_555 1_555
C5 C6 1_555 1_555
C6 C1 1_555 1_555
C7 C1 1_555 1_555
C8 C7 1_555 1_555
H1 C8 1_555 1_555
H2 C8 1_555 1_555
H3 C8 1_555 1_555
C9 N1 1_555 1_555
C10 C9 1_555 1_555
C11 C10 1_555 1_555
C12 C11 1_555 1_555
C13 N3 1_555 1_555
C14 C10 1_555 1_555
H4 C4 1_555 1_555
H5 C5 1_555 1_555
H6 C13 1_555 1_555
H7 C14 1_555 1_555
H8 C2 1_555 1_555
H9 C11 1_555 1_555
H10 C3 1_555 1_555
H11 C12 1_555 1_555
Mo1C N3 1_555 1_555
N3C Mo1 1_555 1_555
N2 C7 1_555 1_555
O3 C6 1_555 1_555
C13 C14 1_555 1_555

#END
