
#######################################################################
#
#                 Cambridge Crystallographic Data Centre
#                                CCDC 
#
#######################################################################
#
# If this CIF has been generated from an entry in the Cambridge 
# Structural Database, then it will include bibliographic, chemical, 
# crystal, experimental, refinement or atomic coordinate data resulting 
# from the CCDC's data processing and validation procedures.
#
#######################################################################

data_HUBQOM
_symmetry_cell_setting           trigonal
_symmetry_space_group_name_H-M   'P -3'
_symmetry_Int_Tables_number      147
_space_group_name_Hall           '-P 3'
loop_
_symmetry_equiv_pos_site_id
_symmetry_equiv_pos_as_xyz
1 x,y,z
2 -y,x-y,z
3 -x+y,-x,z
4 -x,-y,-z
5 y,-x+y,-z
6 x-y,x,-z
_cell_length_a                   22.2555(9)
_cell_length_b                   22.2555(9)
_cell_length_c                   12.5854(8)
_cell_angle_alpha                90
_cell_angle_beta                 90
_cell_angle_gamma                120
_cell_volume                     5398.49
loop_
_atom_site_label
_atom_site_type_symbol
_atom_site_fract_x
_atom_site_fract_y
_atom_site_fract_z
Mo1 Mo 0.71035(9) 0.43614(8) 0.80107(12)
Mo2 Mo 0.50811(8) 0.33623(9) 1.03610(13)
Mo3 Mo 0.60570(10) 0.38014(9) 1.26092(14)
Mo4 Mo 0.65919(8) 0.48956(8) 1.04996(13)
P1 P 0.6667 0.3333 1.0330(5)
O1 O 0.6667 0.3333 0.9128(15)
O2 O 0.6271(6) 0.3688(6) 1.0730(9)
O3 O 0.6688(6) 0.4665(6) 0.8985(9)
O4 O 0.7896(6) 0.4721(6) 0.8962(9)
O5 O 0.6227(6) 0.3698(6) 0.7419(9)
O6 O 0.7397(7) 0.4997(7) 0.7079(10)
O7 O 0.5598(6) 0.4313(6) 1.0138(9)
O8 O 0.5182(6) 0.3483(6) 1.1864(10)
O9 O 0.4932(6) 0.2415(6) 1.0638(9)
O10 O 0.4264(6) 0.3199(7) 1.0199(11)
O11 O 0.6348(6) 0.4714(6) 1.1896(9)
O12 O 0.7030(7) 0.4127(7) 1.2796(10)
O13 O 0.5808(9) 0.3978(9) 1.3865(13)
O14 O 0.6695(6) 0.5691(7) 1.0327(10)
O2A O 0.6312(6) 0.2583(8) 1.0730(9)
O2B O 0.7417(8) 0.3729(6) 1.0730(9)
Mo1A Mo 0.56386(8) 0.27421(12) 0.80107(12)
Mo2A Mo 0.66377(9) 0.17188(12) 1.03610(13)
Mo3A Mo 0.61986(9) 0.22556(13) 1.26092(14)
Mo4A Mo 0.51044(8) 0.16963(11) 1.04996(13)
O3A O 0.5335(6) 0.2023(8) 0.8985(9)
O4A O 0.5279(6) 0.3175(8) 0.8962(9)
O5A O 0.6302(6) 0.2529(8) 0.7419(9)
O6A O 0.5003(7) 0.2400(10) 0.7079(10)
O7A O 0.5687(6) 0.1285(8) 1.0138(9)
O8A O 0.6517(6) 0.1699(8) 1.1864(10)
O9A O 0.7585(6) 0.2517(8) 1.0638(9)
O10A O 0.6801(7) 0.1065(9) 1.0199(11)
O11A O 0.5286(6) 0.1634(8) 1.1896(9)
O12A O 0.5873(7) 0.2903(10) 1.2796(10)
O13A O 0.6022(9) 0.1830(13) 1.3865(13)
O14A O 0.4309(7) 0.1004(9) 1.0327(10)
Mo1B Mo 0.72579(12) 0.28965(9) 0.80107(12)
Mo2B Mo 0.82812(12) 0.49189(8) 1.03610(13)
Mo3B Mo 0.77444(13) 0.39430(10) 1.26092(14)
Mo4B Mo 0.83037(11) 0.34081(8) 1.04996(13)
O3B O 0.7977(8) 0.3312(6) 0.8985(9)
O4B O 0.6825(8) 0.2104(6) 0.8962(9)
O5B O 0.7471(8) 0.3773(6) 0.7419(9)
O6B O 0.7600(10) 0.2603(7) 0.7079(10)
O7B O 0.8715(8) 0.4402(6) 1.0138(9)
O8B O 0.8301(8) 0.4818(6) 1.1864(10)
O9B O 0.7483(8) 0.5068(6) 1.0638(9)
O10B O 0.8935(9) 0.5736(6) 1.0199(11)
O11B O 0.8366(8) 0.3652(6) 1.1896(9)
O12B O 0.7097(10) 0.2970(7) 1.2796(10)
O13B O 0.8170(13) 0.4192(9) 1.3865(13)
O14B O 0.8996(9) 0.3305(6) 1.0327(10)
Cl1 Cl 0.6667 0.3333 0.520(2)
O15 O 0.5730(10) 0.4299(10) 0.5941(16)
H25 H 0.5885 0.4108 0.6359
H26 H 0.5763 0.4187 0.5307
Ni1 Ni 0.79173(13) 0.63123(13) 0.66984(17)
N1 N 0.5886(10) 0.5693(9) 0.7361(14)
N2 N 0.6935(9) 0.6107(9) 0.6730(13)
N3 N 0.3981(10) 0.3594(14) 0.6874(15)
N4 N 0.3652(9) 0.2482(13) 0.6772(13)
N5 N 0.8281(9) 0.6308(9) 0.3511(13)
N6 N 0.7895(9) 0.6152(9) 0.5144(13)
N7 N 0.8492(9) 0.7054(9) -0.0213(13)
N8 N 0.8064(9) 0.6694(9) -0.1820(13)
C1 C 0.6498(12) 0.5738(12) 0.7501(17)
H1 H 0.6606 0.5538 0.8064
C2 C 0.6552(12) 0.6257(12) 0.6029(17)
H2 H 0.6718 0.6502 0.5396
C3 C 0.5899(13) 0.5994(12) 0.6399(17)
H3 H 0.5534 0.6012 0.6073
C4 C 0.4146(12) 0.3107(17) 0.6728(17)
H4 H 0.4601 0.3216 0.6599
C5 C 0.3060(13) 0.2557(18) 0.7008(19)
H5 H 0.2607 0.2199 0.7110
C6 C 0.3287(12) 0.3252(18) 0.705(2)
H6 H 0.3016 0.3454 0.7185
C7 C 0.5294(12) 0.5329(12) 0.8092(18)
H7 H 0.5000 0.5533 0.8019
H8 H 0.5471 0.5416 0.8813
C8 C 0.4839(13) 0.4541(12) 0.7945(18)
H9 H 0.5136 0.4338 0.7947
H10 H 0.4529 0.4353 0.8549
C9 C 0.4416(13) 0.4325(12) 0.6953(19)
H11 H 0.4131 0.4542 0.6932
H12 H 0.4725 0.4490 0.6344
C10 C 0.8400(12) 0.6572(12) 0.4514(16)
H13 H 0.8783 0.6989 0.4721
C11 C 0.7451(13) 0.5593(12) 0.4545(16)
H14 H 0.7043 0.5215 0.4792
C12 C 0.7699(12) 0.5672(12) 0.3510(17)
H15 H 0.7510 0.5362 0.2948
C13 C 0.8425(11) 0.6632(11) -0.1050(16)
H16 H 0.8611 0.6340 -0.1070
C14 C 0.8152(12) 0.7381(12) -0.0479(18)
H17 H 0.8112 0.7706 -0.0065
C15 C 0.7862(11) 0.7153(11) -0.1497(16)
H18 H 0.7588 0.7287 -0.1873
C16 C 0.8735(12) 0.6631(12) 0.2559(16)
H19 H 0.9120 0.7080 0.2759
H20 H 0.8927 0.6342 0.2341
C17 C 0.8378(12) 0.6718(12) 0.1671(16)
H21 H 0.8149 0.6968 0.1902
H22 H 0.8025 0.6266 0.1418
C18 C 0.8879(11) 0.7117(11) 0.0756(15)
H23 H 0.9160 0.7602 0.0947
H24 H 0.9187 0.6933 0.0634
Ni1_2 Ni 0.79173(13) 0.63123(13) -0.33016(17)
Ni1A Ni 0.36877(13) 0.16050(18) 0.66984(17)
N4B N 0.8830(16) 0.6348(9) 0.6772(13)
N8_2 N 0.8064(9) 0.6694(9) 0.8180(13)
Mo5? Mo 0.9496(4) 0.9313(4) 0.2409(5)
O16? O 0.929(3) 0.899(3) 0.116(5)
O17? O 0.845(3) 1.040(4) 0.529(4)
O18? O 0.8167(19) 0.888(3) 0.517(3)
Mo6? Mo 1.0257(3) 0.8995(2) 0.6937(3)
Mo7? Mo 0.86757(24) 0.83567(14) 0.5820(2)
P2? P 1.0000 1.0000 0.5000
O19? O 1.051(4) 1.009(3) 0.592(5)
O20? O 1.044(6) 0.967(4) 0.538(5)
O21? O 0.9421(17) 0.8537(11) 0.6816(18)
O22? O 1.1096(16) 0.9616(11) 0.6842(17)
O23? O 1.0385(24) 0.8481(17) 0.778(2)
O24? O 0.8556(26) 0.8186(17) 0.423(3)
O25? O 0.8120(22) 0.7543(13) 0.622(2)
loop_
_geom_bond_atom_site_label_1
_geom_bond_atom_site_label_2
_geom_bond_site_symmetry_1
_geom_bond_site_symmetry_2
Ni1 N2 1_555 1_555
N1 C1 1_555 1_555
N2 C1 1_555 1_555
N3 C4 1_555 1_555
N4 C4 1_555 1_555
N5 C10 1_555 1_555
N6 Ni1 1_555 1_555
N7 C13 1_555 1_555
N8 C13 1_555 1_555
C1 H1 1_555 1_555
C2 N2 1_555 1_555
H2 C2 1_555 1_555
C3 N1 1_555 1_555
H3 C3 1_555 1_555
C4 H4 1_555 1_555
C5 N4 1_555 1_555
H5 C5 1_555 1_555
C6 N3 1_555 1_555
H6 C6 1_555 1_555
C7 N1 1_555 1_555
H7 C7 1_555 1_555
H8 C7 1_555 1_555
C8 C7 1_555 1_555
H9 C8 1_555 1_555
H10 C8 1_555 1_555
C9 N3 1_555 1_555
H11 C9 1_555 1_555
H12 C9 1_555 1_555
C10 N6 1_555 1_555
H13 C10 1_555 1_555
C11 N6 1_555 1_555
H14 C11 1_555 1_555
C12 N5 1_555 1_555
H15 C12 1_555 1_555
C13 H16 1_555 1_555
C14 N7 1_555 1_555
H17 C14 1_555 1_555
C15 N8 1_555 1_555
H18 C15 1_555 1_555
C16 N5 1_555 1_555
H19 C16 1_555 1_555
H20 C16 1_555 1_555
C17 C16 1_555 1_555
H21 C17 1_555 1_555
H22 C17 1_555 1_555
C18 N7 1_555 1_555
H23 C18 1_555 1_555
H24 C18 1_555 1_555
Mo1 O1 1_555 1_555
Mo2 O2 1_555 1_555
Mo3 O2 1_555 1_555
Mo4 O2 1_555 1_555
P1 O1 1_555 1_555
O1 Mo1A 1_555 1_555
O2 P1 1_555 1_555
O3 Mo1 1_555 1_555
O4 Mo1 1_555 1_555
O5 Mo1 1_555 1_555
O6 Mo1 1_555 1_555
O7 Mo2 1_555 1_555
O8 Mo2 1_555 1_555
O9 Mo2 1_555 1_555
O10 Mo2 1_555 1_555
O11 Mo3 1_555 1_555
O12 Mo3 1_555 1_555
O13 Mo3 1_555 1_555
O14 Mo4 1_555 1_555
O15 H25 1_555 1_555
H26 O15 1_555 1_555
Ni1_2 N8 1_555 1_555
Ni1A N4 1_555 1_555
N4B Ni1 1_555 1_555
N8_2 Ni1 1_555 1_555
O2A P1 1_555 1_555
O2B P1 1_555 1_555
Mo1A O5 1_555 1_555
Mo2A O2A 1_555 1_555
Mo3A O2A 1_555 1_555
Mo4A O9 1_555 1_555
O3A Mo1A 1_555 1_555
O4A Mo2 1_555 1_555
O5A Mo1A 1_555 1_555
O6A Mo1A 1_555 1_555
O7A Mo2A 1_555 1_555
O8A Mo2A 1_555 1_555
O9A Mo2A 1_555 1_555
O10A Mo2A 1_555 1_555
O11A Mo3A 1_555 1_555
O12A Mo3 1_555 1_555
O13A Mo3A 1_555 1_555
O14A Mo4A 1_555 1_555
Mo1B O1 1_555 1_555
Mo2B O4 1_555 1_555
Mo3B O12 1_555 1_555
Mo4B O2B 1_555 1_555
O3B Mo1B 1_555 1_555
O4B Mo2A 1_555 1_555
O5B Mo1 1_555 1_555
O6B Mo1B 1_555 1_555
O7B Mo2B 1_555 1_555
O8B Mo2B 1_555 1_555
O9B Mo4 1_555 1_555
O10B Mo2B 1_555 1_555
O11B Mo3B 1_555 1_555
O12B Mo3A 1_555 1_555
O13B Mo3B 1_555 1_555
O14B Mo4B 1_555 1_555
C2 C3 1_555 1_555
C5 C6 1_555 1_555
C8 C9 1_555 1_555
C11 C12 1_555 1_555
C14 C15 1_555 1_555
C17 C18 1_555 1_555
Mo3 O8 1_555 1_555
Mo4 O3 1_555 1_555
Mo4 O7 1_555 1_555
Mo4 O11 1_555 1_555
O2A Mo4A 1_555 1_555
O2B Mo2B 1_555 1_555
O2B Mo3B 1_555 1_555
Mo1A O4A 1_555 1_555
Mo3A O8A 1_555 1_555
Mo3A O12A 1_555 1_555
Mo4A O3A 1_555 1_555
Mo4A O7A 1_555 1_555
Mo4A O11A 1_555 1_555
O5A Mo1B 1_555 1_555
O9A Mo4B 1_555 1_555
Mo1B O4B 1_555 1_555
Mo1B O5B 1_555 1_555
Mo2B O9B 1_555 1_555
Mo3B O8B 1_555 1_555
Mo3B O12B 1_555 1_555
Mo4B O3B 1_555 1_555
Mo4B O7B 1_555 1_555
Mo4B O11B 1_555 1_555

#END
