
#######################################################################
#
#                 Cambridge Crystallographic Data Centre
#                                CCDC 
#
#######################################################################
#
# If this CIF has been generated from an entry in the Cambridge 
# Structural Database, then it will include bibliographic, chemical, 
# crystal, experimental, refinement or atomic coordinate data resulting 
# from the CCDC's data processing and validation procedures.
#
#######################################################################

data_HUBQEA
_symmetry_cell_setting           monoclinic
_symmetry_space_group_name_H-M   'P 21'
_symmetry_Int_Tables_number      4
_space_group_name_Hall           'P 2ybc'
loop_
_symmetry_equiv_pos_site_id
_symmetry_equiv_pos_as_xyz
1 x,y,z
2 -x,1/2+y,1/2-z
_cell_length_a                   9.2800(10)
_cell_length_b                   8.1490(10)
_cell_length_c                   21.404(4)
_cell_angle_alpha                90
_cell_angle_beta                 100.620(10)
_cell_angle_gamma                90
_cell_volume                     1590.9
loop_
_atom_site_label
_atom_site_type_symbol
_atom_site_fract_x
_atom_site_fract_y
_atom_site_fract_z
Co1 Co -0.0002(4) 0.5222(5) 0.50004(16)
S1 S 0.1785(8) 0.9681(7) 0.3870(2)
S2 S -0.1662(9) 0.0677(6) 0.6080(3)
N1 N -0.0898(15) 0.3187(18) 0.5354(7)
N2 N 0.0857(18) 0.7276(15) 0.4621(7)
N3 N 0.0767(16) 0.6149(15) 0.5977(7)
N4 N 0.2023(17) 1.1518(18) 1.0032(7)
N5 N -0.0776(15) 0.4282(19) 0.3998(5)
N6 N -0.2123(17) -0.1115(17) -0.0049(7)
O1 O 0.2749(15) 0.9652(14) 0.6724(6)
O2 O 0.5010(11) 1.1868(17) 0.9137(5)
O3 O -0.2628(16) 0.0684(15) 0.3303(6)
O4 O -0.5066(15) -0.1346(18) 0.0873(6)
C1 C -0.124(2) 0.213(2) 0.5675(8)
C2 C 0.1228(18) 0.8316(16) 0.4336(7)
C3 C 0.146(2) 0.761(2) 0.6085(10)
H1 H 0.1616 0.8185 0.5730
C4 C 0.195(2) 0.833(2) 0.6665(9)
C5 C 0.169(2) 0.739(2) 0.7177(9)
H2 H 0.1970 0.7818 0.7584
C6 C 0.101(2) 0.5825(17) 0.7111(8)
H3 H 0.0899 0.5169 0.7454
C7 C 0.054(2) 0.538(2) 0.6489(9)
H4 H 0.0005 0.4411 0.6422
C8 C 0.2876(15) 1.124(2) 0.9612(8)
H5 H 0.2585 1.0435 0.9308
C9 C 0.416(2) 1.2063(18) 0.9590(8)
C10 C 0.484(2) 1.304(2) 1.0057(9)
H6 H 0.5789 1.3423 1.0084
C11 C 0.387(2) 1.347(2) 1.0544(7)
H7 H 0.4173 1.4249 1.0858
C12 C 0.261(2) 1.272(2) 1.0510(8)
H8 H 0.2045 1.2971 1.0815
C13 C 0.4432(19) 1.135(2) 0.8523(8)
C14 C 0.315(2) 1.196(2) 0.8230(9)
H9 H 0.2680 1.2748 0.8434
C15 C 0.250(2) 1.143(2) 0.7610(9)
H10 H 0.1597 1.1839 0.7412
C16 C 0.321(2) 1.033(2) 0.7317(8)
C17 C 0.464(2) 0.976(2) 0.7614(8)
H11 H 0.5237 0.9115 0.7406
C18 C 0.504(2) 1.025(3) 0.8226(10)
H12 H 0.5853 0.9727 0.8462
C19 C -0.1461(17) 0.285(2) 0.3907(7)
H13 H -0.1587 0.2212 0.4254
C20 C -0.1991(13) 0.2295(17) 0.3289(7)
C21 C -0.1821(19) 0.3098(17) 0.2758(7)
H14 H -0.2182 0.2717 0.2350
C22 C -0.0595(16) 0.5184(18) 0.3478(6)
H15 H -0.0163 0.6217 0.3525
C23 C -0.1069(17) 0.452(2) 0.2881(7)
H16 H -0.0853 0.5097 0.2535
C24 C -0.2548(17) -0.2138(18) -0.0473(7)
H17 H -0.1957 -0.2407 -0.0765
C25 C -0.394(2) -0.290(3) -0.0512(10)
H18 H -0.4330 -0.3509 -0.0870
C26 C -0.4664(18) -0.2755(18) -0.0074(8)
H19 H -0.5498 -0.3389 -0.0076
C27 C -0.290(2) -0.084(2) 0.0423(8)
H20 H -0.2546 -0.0108 0.0749
C28 C -0.4198(15) -0.1626(19) 0.0423(8)
C29 C -0.432(2) -0.089(2) 0.1480(9)
C30 C -0.5251(17) 0.0227(19) 0.1762(7)
H21 H -0.6186 0.0551 0.1565
C31 C -0.453(2) 0.077(2) 0.2381(10)
H22 H -0.4973 0.1610 0.2571
C32 C -0.335(2) 0.0173(19) 0.2688(8)
C33 C -0.258(2) -0.098(2) 0.2424(8)
H23 H -0.1718 -0.1392 0.2662
C34 C -0.3048(17) -0.1541(18) 0.1813(8)
H24 H -0.2521 -0.2328 0.1635
N4A N -0.2023(17) 0.6518(18) 0.4968(7)
N6A N 0.2123(17) 0.3885(17) 0.5049(7)
Co1A Co 0.0002(4) 1.0222(5) 0.99996(16)
Co1A_2 Co 0.0002(4) 0.0222(5) -0.00004(16)
loop_
_geom_bond_atom_site_label_1
_geom_bond_atom_site_label_2
_geom_bond_site_symmetry_1
_geom_bond_site_symmetry_2
Co1 N1 1_555 1_555
S1 C2 1_555 1_555
S2 C1 1_555 1_555
N1 C1 1_555 1_555
N2 Co1 1_555 1_555
N3 Co1 1_555 1_555
N4 C8 1_555 1_555
N5 Co1 1_555 1_555
N6 C24 1_555 1_555
O1 C4 1_555 1_555
O2 C9 1_555 1_555
O3 C20 1_555 1_555
O4 C28 1_555 1_555
C2 N2 1_555 1_555
C3 N3 1_555 1_555
H1 C3 1_555 1_555
C4 C3 1_555 1_555
C5 C4 1_555 1_555
H2 C5 1_555 1_555
C6 C5 1_555 1_555
H3 C6 1_555 1_555
C7 N3 1_555 1_555
H4 C7 1_555 1_555
C8 H5 1_555 1_555
C9 C8 1_555 1_555
C10 C9 1_555 1_555
H6 C10 1_555 1_555
C11 C10 1_555 1_555
H7 C11 1_555 1_555
C12 N4 1_555 1_555
H8 C12 1_555 1_555
C13 O2 1_555 1_555
C14 C13 1_555 1_555
H9 C14 1_555 1_555
C15 C14 1_555 1_555
H10 C15 1_555 1_555
C16 O1 1_555 1_555
C17 C16 1_555 1_555
H11 C17 1_555 1_555
C18 C13 1_555 1_555
H12 C18 1_555 1_555
C19 N5 1_555 1_555
H13 C19 1_555 1_555
C20 C19 1_555 1_555
C21 C20 1_555 1_555
H14 C21 1_555 1_555
C22 N5 1_555 1_555
H15 C22 1_555 1_555
C23 C21 1_555 1_555
H16 C23 1_555 1_555
C24 H17 1_555 1_555
C25 C24 1_555 1_555
H18 C25 1_555 1_555
C26 C25 1_555 1_555
H19 C26 1_555 1_555
C27 N6 1_555 1_555
H20 C27 1_555 1_555
C28 C26 1_555 1_555
C29 O4 1_555 1_555
C30 C29 1_555 1_555
H21 C30 1_555 1_555
C31 C30 1_555 1_555
H22 C31 1_555 1_555
C32 O3 1_555 1_555
C33 C32 1_555 1_555
H23 C33 1_555 1_555
C34 C29 1_555 1_555
H24 C34 1_555 1_555
N4A Co1 1_555 1_555
N6A Co1 1_555 1_555
Co1A N4 1_555 1_555
Co1A_2 N6 1_555 1_555
C6 C7 1_555 1_555
C11 C12 1_555 1_555
C15 C16 1_555 1_555
C17 C18 1_555 1_555
C22 C23 1_555 1_555
C27 C28 1_555 1_555
C31 C32 1_555 1_555
C33 C34 1_555 1_555

#END
