
#######################################################################
#
#                 Cambridge Crystallographic Data Centre
#                                CCDC 
#
#######################################################################
#
# If this CIF has been generated from an entry in the Cambridge 
# Structural Database, then it will include bibliographic, chemical, 
# crystal, experimental, refinement or atomic coordinate data resulting 
# from the CCDC's data processing and validation procedures.
#
#######################################################################

data_HUBTUV
_symmetry_cell_setting           monoclinic
_symmetry_space_group_name_H-M   'C 2/c'
_symmetry_Int_Tables_number      15
_space_group_name_Hall           '-C 2yn'
loop_
_symmetry_equiv_pos_site_id
_symmetry_equiv_pos_as_xyz
1 x,y,z
2 -x,y,1/2-z
3 1/2+x,1/2+y,z
4 1/2-x,1/2+y,1/2-z
5 -x,-y,-z
6 x,-y,1/2+z
7 1/2-x,1/2-y,-z
8 1/2+x,1/2-y,1/2+z
_cell_length_a                   16.426(4)
_cell_length_b                   9.113(2)
_cell_length_c                   17.329(4)
_cell_angle_alpha                90
_cell_angle_beta                 115.979(3)
_cell_angle_gamma                90
_cell_volume                     2331.87
loop_
_atom_site_label
_atom_site_type_symbol
_atom_site_fract_x
_atom_site_fract_y
_atom_site_fract_z
Co1 Co 1.0000 0.0000 0.0000
S1 S 0.88820(6) 0.52420(9) 0.15861(5)
O1 O 1.10357(16) 0.1584(3) 0.07302(15)
O2 O 1.20214(17) 0.3073(3) 0.06665(18)
O3 O 1.06772(17) 0.3862(3) 0.03482(16)
N1 N 0.90635(17) 0.1028(3) 0.03572(16)
N2 N 0.85324(18) 0.2396(3) 0.10771(17)
N3 N 0.88970(19) 0.7174(3) 0.27904(17)
N4 N 0.94764(18) 0.8848(3) 0.38111(16)
N5 N 1.12376(18) 0.2855(3) 0.05657(17)
C1 C 0.9199(2) 0.2218(3) 0.0823(2)
H1 H 0.9697 0.2867 0.0963
C2 C 0.8279(2) 0.0391(4) 0.0316(2)
H2 H 0.8018 -0.0497 0.0025
C3 C 0.7941(2) 0.1231(3) 0.0753(2)
H3 H 0.7406 0.1055 0.0823
C4 C 0.8499(2) 0.3493(3) 0.1638(2)
C5 C 0.8174(2) 0.3362(4) 0.2228(2)
H4 H 0.7924 0.2482 0.2327
C6 C 0.8248(2) 0.4683(4) 0.2681(2)
H5 H 0.8055 0.4796 0.3120
C7 C 0.8628(2) 0.5773(4) 0.2413(2)
C8 C 0.9281(2) 0.7445(4) 0.3649(2)
H6 H 0.9393 0.6718 0.4076
C9 C 0.8854(2) 0.8493(4) 0.2382(2)
H7 H 0.8623 0.8656 0.1782
C10 C 0.9206(2) 0.9500(4) 0.3011(2)
H8 H 0.9262 1.0516 0.2921
S1D S 1.11180(6) -0.52420(9) -0.15861(5)
O1D O 0.89643(16) -0.1584(3) -0.07302(15)
O2D O 0.79786(17) -0.3073(3) -0.06665(18)
O3D O 0.93228(17) -0.3862(3) -0.03482(16)
N1D N 1.09365(17) -0.1028(3) -0.03572(16)
N2D N 1.14676(18) -0.2396(3) -0.10771(17)
N3D N 1.11030(19) -0.7174(3) -0.27904(17)
N4D N 1.05236(18) -0.8848(3) -0.38111(16)
N5D N 0.87624(18) -0.2855(3) -0.05657(17)
C1D C 1.0801(2) -0.2218(3) -0.0823(2)
H1D H 1.0303 -0.2867 -0.0963
C2D C 1.1721(2) -0.0391(4) -0.0316(2)
H2D H 1.1982 0.0497 -0.0025
C3D C 1.2059(2) -0.1231(3) -0.0753(2)
H3D H 1.2594 -0.1055 -0.0823
C4D C 1.1501(2) -0.3493(3) -0.1638(2)
C5D C 1.1826(2) -0.3362(4) -0.2228(2)
H4D H 1.2076 -0.2482 -0.2327
C6D C 1.1752(2) -0.4683(4) -0.2681(2)
H5D H 1.1945 -0.4796 -0.3120
C7D C 1.1372(2) -0.5773(4) -0.2413(2)
C8D C 1.0719(2) -0.7445(4) -0.3649(2)
H6D H 1.0607 -0.6718 -0.4076
C9D C 1.1146(2) -0.8493(4) -0.2382(2)
H7D H 1.1377 -0.8656 -0.1782
C10D C 1.0794(2) -0.9500(4) -0.3011(2)
H8D H 1.0738 -1.0516 -0.2921
Co1A Co 1.0000 -1.0000 -0.5000
Co1A_2 Co 1.0000 1.0000 0.5000
N4A N 1.05236(18) -0.1152(3) 0.11889(16)
N4E N 0.94764(18) 0.1152(3) -0.11889(16)
loop_
_geom_bond_atom_site_label_1
_geom_bond_atom_site_label_2
_geom_bond_site_symmetry_1
_geom_bond_site_symmetry_2
Co1 O1 1_555 1_555
S1 C4 1_555 1_555
O1 N5 1_555 1_555
O2 N5 1_555 1_555
O3 N5 1_555 1_555
N1 Co1 1_555 1_555
N2 C1 1_555 1_555
N3 C7 1_555 1_555
N4 C8 1_555 1_555
C1 N1 1_555 1_555
H1 C1 1_555 1_555
C2 N1 1_555 1_555
H2 C2 1_555 1_555
C3 N2 1_555 1_555
H3 C3 1_555 1_555
C4 N2 1_555 1_555
C5 C4 1_555 1_555
H4 C5 1_555 1_555
C6 C5 1_555 1_555
H5 C6 1_555 1_555
C7 S1 1_555 1_555
C8 N3 1_555 1_555
H6 C8 1_555 1_555
C9 N3 1_555 1_555
H7 C9 1_555 1_555
C10 N4 1_555 1_555
H8 C10 1_555 1_555
S1D C4D 1_555 1_555
O1D Co1 1_555 1_555
O2D N5D 1_555 1_555
O3D N5D 1_555 1_555
N1D Co1 1_555 1_555
N2D C1D 1_555 1_555
N3D C7D 1_555 1_555
N4D C8D 1_555 1_555
N5D O1D 1_555 1_555
C1D N1D 1_555 1_555
H1D C1D 1_555 1_555
C2D N1D 1_555 1_555
H2D C2D 1_555 1_555
C3D N2D 1_555 1_555
H3D C3D 1_555 1_555
C4D N2D 1_555 1_555
C5D C4D 1_555 1_555
H4D C5D 1_555 1_555
C6D C5D 1_555 1_555
H5D C6D 1_555 1_555
C7D S1D 1_555 1_555
C8D N3D 1_555 1_555
H6D C8D 1_555 1_555
C9D N3D 1_555 1_555
H7D C9D 1_555 1_555
C10D N4D 1_555 1_555
H8D C10D 1_555 1_555
Co1A N4D 1_555 1_555
Co1A_2 N4 1_555 1_555
N4A Co1 1_555 1_555
N4E Co1 1_555 1_555
C2 C3 1_555 1_555
C6 C7 1_555 1_555
C9 C10 1_555 1_555
C2D C3D 1_555 1_555
C6D C7D 1_555 1_555
C9D C10D 1_555 1_555

#END
