
#######################################################################
#
#                 Cambridge Crystallographic Data Centre
#                                CCDC 
#
#######################################################################
#
# If this CIF has been generated from an entry in the Cambridge 
# Structural Database, then it will include bibliographic, chemical, 
# crystal, experimental, refinement or atomic coordinate data resulting 
# from the CCDC's data processing and validation procedures.
#
#######################################################################

data_HUBTIJ
_symmetry_cell_setting           orthorhombic
_symmetry_space_group_name_H-M   'P b c a'
_symmetry_Int_Tables_number      61
_space_group_name_Hall           '-P 2ac 2ab'
loop_
_symmetry_equiv_pos_site_id
_symmetry_equiv_pos_as_xyz
1 x,y,z
2 1/2-x,-y,1/2+z
3 -x,1/2+y,1/2-z
4 1/2+x,1/2-y,-z
5 -x,-y,-z
6 1/2+x,y,1/2-z
7 x,1/2-y,1/2+z
8 1/2-x,1/2+y,z
_cell_length_a                   15.386(3)
_cell_length_b                   14.451(3)
_cell_length_c                   22.540(4)
_cell_angle_alpha                90
_cell_angle_beta                 90
_cell_angle_gamma                90
_cell_volume                     5011.61
loop_
_atom_site_label
_atom_site_type_symbol
_atom_site_fract_x
_atom_site_fract_y
_atom_site_fract_z
Cd1 Cd 0.04582(3) 0.20274(3) 0.26755(2)
S1 S -0.06137(11) 0.12163(13) 0.00815(7)
S2 S 0.18428(11) 0.16841(13) 0.01381(7)
O1 O 0.0360(3) 0.3390(4) 0.1982(2)
O2 O 0.0356(3) 0.3169(4) 0.1027(2)
O3 O 0.1276(4) 0.4120(4) 0.1418(3)
O4 O 0.0055(3) 0.1098(3) 0.3510(2)
O5 O 0.1101(4) 0.0310(4) 0.3107(2)
O6 O 0.0697(4) 0.0009(4) 0.4006(2)
N1 N -0.0492(4) 0.1236(4) 0.2072(2)
N2 N -0.1104(4) 0.0851(4) 0.1216(2)
N3 N -0.1188(3) 0.1383(4) -0.1056(2)
N4 N -0.0484(4) 0.1995(4) -0.1817(3)
N5 N 0.1577(4) 0.1542(4) 0.2062(2)
N6 N 0.2378(4) 0.1350(4) 0.1263(2)
N7 N 0.2371(4) 0.1860(4) -0.0999(2)
N8 N 0.1586(3) 0.2378(4) -0.1750(2)
N9 N 0.0684(4) 0.3567(4) 0.1472(3)
N10 N 0.0620(4) 0.0464(4) 0.3537(2)
C1 C -0.0777(5) 0.1544(5) 0.1554(3)
H1 H -0.0756 0.2161 0.1437
C2 C -0.0665(5) 0.0295(5) 0.2068(3)
H2 H -0.0547 -0.0110 0.2378
C3 C -0.1030(5) 0.0054(5) 0.1545(3)
H3 H -0.1198 -0.0537 0.1430
C4 C -0.1374(4) 0.0927(4) 0.0611(3)
C5 C -0.2165(5) 0.0790(5) 0.0384(3)
H4 H -0.2644 0.0613 0.0608
C6 C -0.2193(5) 0.0948(5) -0.0245(3)
H5 H -0.2689 0.0889 -0.0477
C7 C -0.1411(4) 0.1190(5) -0.0453(3)
C8 C -0.0584(4) 0.2006(5) -0.1233(3)
H6 H -0.0278 0.2392 -0.0977
C9 C -0.1480(5) 0.0948(5) -0.1560(3)
H7 H -0.1892 0.0478 -0.1577
C10 C -0.1060(4) 0.1329(5) -0.2024(3)
H8 H -0.1142 0.1170 -0.2420
C11 C 0.1599(4) 0.1611(5) 0.1485(3)
H9 H 0.1136 0.1815 0.1254
C12 C 0.2391(5) 0.1211(5) 0.2224(3)
H10 H 0.2561 0.1087 0.2611
C13 C 0.2904(4) 0.1094(5) 0.1741(3)
H11 H 0.3477 0.0889 0.1731
C14 C 0.2635(4) 0.1393(5) 0.0659(3)
C15 C 0.3439(4) 0.1277(5) 0.0422(3)
H12 H 0.3927 0.1108 0.0640
C16 C 0.3447(4) 0.1449(5) -0.0210(3)
H13 H 0.3938 0.1410 -0.0449
C17 C 0.2635(5) 0.1677(5) -0.0410(3)
C18 C 0.1672(4) 0.2387(5) -0.1172(3)
H14 H 0.1310 0.2707 -0.0914
C19 C 0.2763(5) 0.1501(5) -0.1513(3)
H15 H 0.3255 0.1130 -0.1540
C20 C 0.2243(5) 0.1830(5) -0.1972(3)
H16 H 0.2328 0.1698 -0.2371
Cd1F Cd 0.04582(3) 0.29726(3) -0.23245(2)
N4F N -0.0484(4) 0.3005(4) 0.3183(3)
N8F N 0.1586(3) 0.2622(4) 0.3250(2)
O7 O 0.0578(3) 0.3468(4) 0.9806(2)
loop_
_geom_bond_atom_site_label_1
_geom_bond_atom_site_label_2
_geom_bond_site_symmetry_1
_geom_bond_site_symmetry_2
Cd1 O1 1_555 1_555
S1 C4 1_555 1_555
S2 C14 1_555 1_555
O1 N9 1_555 1_555
O2 N9 1_555 1_555
O3 N9 1_555 1_555
O4 Cd1 1_555 1_555
O5 N10 1_555 1_555
O6 N10 1_555 1_555
N1 Cd1 1_555 1_555
N2 C1 1_555 1_555
N3 C7 1_555 1_555
N4 C8 1_555 1_555
N5 Cd1 1_555 1_555
N6 C11 1_555 1_555
N7 C17 1_555 1_555
N8 C18 1_555 1_555
N10 O4 1_555 1_555
C1 N1 1_555 1_555
H1 C1 1_555 1_555
C2 N1 1_555 1_555
H2 C2 1_555 1_555
C3 N2 1_555 1_555
H3 C3 1_555 1_555
C4 N2 1_555 1_555
C5 C4 1_555 1_555
H4 C5 1_555 1_555
C6 C5 1_555 1_555
H5 C6 1_555 1_555
C7 S1 1_555 1_555
C8 N3 1_555 1_555
H6 C8 1_555 1_555
C9 N3 1_555 1_555
H7 C9 1_555 1_555
C10 N4 1_555 1_555
H8 C10 1_555 1_555
C11 N5 1_555 1_555
H9 C11 1_555 1_555
C12 N5 1_555 1_555
H10 C12 1_555 1_555
C13 N6 1_555 1_555
H11 C13 1_555 1_555
C14 N6 1_555 1_555
C15 C14 1_555 1_555
H12 C15 1_555 1_555
C16 C15 1_555 1_555
H13 C16 1_555 1_555
C17 S2 1_555 1_555
C18 N7 1_555 1_555
H14 C18 1_555 1_555
C19 N7 1_555 1_555
H15 C19 1_555 1_555
C20 N8 1_555 1_555
H16 C20 1_555 1_555
Cd1F N4 1_555 1_555
N4F Cd1 1_555 1_555
N8F Cd1 1_555 1_555
N8 Cd1F 1_555 1_555
C2 C3 1_555 1_555
C6 C7 1_555 1_555
C9 C10 1_555 1_555
C12 C13 1_555 1_555
C16 C17 1_555 1_555
C19 C20 1_555 1_555

#END
