
#######################################################################
#
#                 Cambridge Crystallographic Data Centre
#                                CCDC 
#
#######################################################################
#
# If this CIF has been generated from an entry in the Cambridge 
# Structural Database, then it will include bibliographic, chemical, 
# crystal, experimental, refinement or atomic coordinate data resulting 
# from the CCDC's data processing and validation procedures.
#
#######################################################################

data_HUBTEF
_symmetry_cell_setting           monoclinic
_symmetry_space_group_name_H-M   'P 21/n'
_symmetry_Int_Tables_number      14
_space_group_name_Hall           '-P 2yn'
loop_
_symmetry_equiv_pos_site_id
_symmetry_equiv_pos_as_xyz
1 x,y,z
2 1/2-x,1/2+y,1/2-z
3 -x,-y,-z
4 1/2+x,1/2-y,1/2+z
_cell_length_a                   7.605(5)
_cell_length_b                   15.726(5)
_cell_length_c                   22.283(5)
_cell_angle_alpha                90
_cell_angle_beta                 93.666(5)
_cell_angle_gamma                90
_cell_volume                     2659.51
loop_
_atom_site_label
_atom_site_type_symbol
_atom_site_fract_x
_atom_site_fract_y
_atom_site_fract_z
Cd1 Cd 0.49073(3) 0.246640(15) 0.243693(11)
S1 S 0.74323(12) 0.38206(6) -0.00350(4)
S2 S 0.21468(13) 0.36961(6) 0.49144(4)
O1 O 0.2362(3) 0.23097(18) 0.18583(12)
O2 O 0.2730(3) 0.24744(15) 0.08746(11)
O3 O 0.7514(4) 0.23918(18) 0.29655(13)
O4 O 0.7636(4) 0.32407(17) 0.37528(12)
N1 N 0.6022(4) 0.35581(18) 0.18418(13)
N2 N 0.6899(4) 0.43329(18) 0.10992(12)
N3 N 0.8063(4) 0.43561(18) -0.11563(12)
N4 N 0.8862(4) 0.35999(18) -0.19250(13)
N5 N 0.3351(4) 0.34595(18) 0.29803(13)
N6 N 0.2465(4) 0.41645(18) 0.37621(13)
N7 N 0.2064(4) 0.42509(18) 0.60581(13)
N8 N 0.1244(4) 0.35591(18) 0.68494(13)
C1 C 0.5902(4) 0.3664(2) 0.12578(16)
H1 H 0.5226 0.3326 0.0989
C2 C 0.7129(5) 0.4183(2) 0.20711(17)
H2 H 0.7445 0.4263 0.2477
C3 C 0.7695(5) 0.4669(2) 0.16198(16)
H3 H 0.8458 0.5131 0.1654
C4 C 0.7177(4) 0.4591(2) 0.05009(15)
C5 C 0.7386(4) 0.5396(2) 0.02915(16)
H4 H 0.7292 0.5883 0.0523
C6 C 0.7766(4) 0.5399(2) -0.03241(16)
H5 H 0.7960 0.5890 -0.0543
C7 C 0.7812(4) 0.4599(2) -0.05551(15)
C8 C 0.8979(4) 0.3672(2) -0.13365(16)
H6 H 0.9608 0.3302 -0.1077
C9 C 0.7330(5) 0.4741(2) -0.16686(16)
H7 H 0.6630 0.5226 -0.1690
C10 C 0.7835(5) 0.4269(2) -0.21336(17)
H8 H 0.7532 0.4381 -0.2537
C11 C 0.3756(5) 0.3680(2) 0.35404(16)
H9 H 0.4791 0.3525 0.3758
C12 C 0.1705(5) 0.3798(2) 0.28292(16)
H10 H 0.1082 0.3736 0.2459
C13 C 0.1139(5) 0.4236(2) 0.33058(17)
H11 H 0.0077 0.4525 0.3323
C14 C 0.2414(5) 0.4444(2) 0.43651(16)
C15 C 0.2553(5) 0.5251(2) 0.45819(16)
H12 H 0.2727 0.5728 0.4347
C16 C 0.2397(5) 0.5272(2) 0.52171(16)
H13 H 0.2441 0.5768 0.5446
C17 C 0.2179(4) 0.4486(2) 0.54457(15)
C18 C 0.0922(4) 0.3682(2) 0.62705(16)
H14 H 0.0027 0.3415 0.6037
C19 C 0.3196(5) 0.4493(2) 0.65352(16)
H15 H 0.4125 0.4877 0.6525
C20 C 0.2689(5) 0.4064(2) 0.70193(17)
H16 H 0.3222 0.4101 0.7406
C21 C 0.1805(5) 0.2453(2) 0.13265(17)
C22 C -0.0140(5) 0.2620(3) 0.12173(18)
H17 H -0.0736 0.2463 0.1568
H18 H -0.0595 0.2291 0.0879
H19 H -0.0328 0.3214 0.1135
C23 C 0.8187(5) 0.2636(2) 0.34524(16)
C24 C 0.9853(5) 0.2183(3) 0.36841(18)
H20 H 0.9618 0.1587 0.3722
H21 H 1.0242 0.2411 0.4070
H22 H 1.0754 0.2266 0.3407
Cd1C Cd -0.00927(3) 0.253360(15) 0.743693(11)
Cd1C_2 Cd 0.99073(3) 0.253360(15) -0.256307(11)
N4C N 0.3862(4) 0.14001(18) 0.30750(13)
N8C N 0.6244(4) 0.14409(18) 0.18494(13)
O5 O 0.6220(4) 0.23885(19) 0.47078(13)
H23 H 0.695(5) 0.265(3) 0.4431(18)
H24 H 0.665(8) 0.245(4) 0.5111(13)
loop_
_geom_bond_atom_site_label_1
_geom_bond_atom_site_label_2
_geom_bond_site_symmetry_1
_geom_bond_site_symmetry_2
Cd1 O1 1_555 1_555
S1 C4 1_555 1_555
S2 C14 1_555 1_555
O1 C21 1_555 1_555
O2 C21 1_555 1_555
O3 Cd1 1_555 1_555
O4 C23 1_555 1_555
N1 Cd1 1_555 1_555
N2 C1 1_555 1_555
N3 C7 1_555 1_555
N4 C8 1_555 1_555
N5 Cd1 1_555 1_555
N6 C11 1_555 1_555
N7 C17 1_555 1_555
N8 C18 1_555 1_555
C1 N1 1_555 1_555
H1 C1 1_555 1_555
C2 N1 1_555 1_555
H2 C2 1_555 1_555
C3 N2 1_555 1_555
H3 C3 1_555 1_555
C4 N2 1_555 1_555
C5 C4 1_555 1_555
H4 C5 1_555 1_555
C6 C5 1_555 1_555
H5 C6 1_555 1_555
C7 S1 1_555 1_555
C8 N3 1_555 1_555
H6 C8 1_555 1_555
C9 N3 1_555 1_555
H7 C9 1_555 1_555
C10 N4 1_555 1_555
H8 C10 1_555 1_555
C11 N5 1_555 1_555
H9 C11 1_555 1_555
C12 N5 1_555 1_555
H10 C12 1_555 1_555
C13 N6 1_555 1_555
H11 C13 1_555 1_555
C14 N6 1_555 1_555
C15 C14 1_555 1_555
H12 C15 1_555 1_555
C16 C15 1_555 1_555
H13 C16 1_555 1_555
C17 S2 1_555 1_555
C18 N7 1_555 1_555
H14 C18 1_555 1_555
C19 N7 1_555 1_555
H15 C19 1_555 1_555
C20 N8 1_555 1_555
H16 C20 1_555 1_555
C21 C22 1_555 1_555
C22 H17 1_555 1_555
H18 C22 1_555 1_555
H19 C22 1_555 1_555
C23 O3 1_555 1_555
C24 C23 1_555 1_555
H20 C24 1_555 1_555
H21 C24 1_555 1_555
H22 C24 1_555 1_555
O5 H23 1_555 1_555
H24 O5 1_555 1_555
Cd1C N8 1_555 1_555
Cd1C_2 N4 1_555 1_555
N4C Cd1 1_555 1_555
N8C Cd1 1_555 1_555
C2 C3 1_555 1_555
C6 C7 1_555 1_555
C9 C10 1_555 1_555
C12 C13 1_555 1_555
C16 C17 1_555 1_555
C19 C20 1_555 1_555

#END
