
#######################################################################
#
#                 Cambridge Crystallographic Data Centre
#                                CCDC 
#
#######################################################################
#
# If this CIF has been generated from an entry in the Cambridge 
# Structural Database, then it will include bibliographic, chemical, 
# crystal, experimental, refinement or atomic coordinate data resulting 
# from the CCDC's data processing and validation procedures.
#
#######################################################################

data_HUBVAD
_symmetry_cell_setting           monoclinic
_symmetry_space_group_name_H-M   'P 21/c'
_symmetry_Int_Tables_number      14
_space_group_name_Hall           '-P 2ybc'
loop_
_symmetry_equiv_pos_site_id
_symmetry_equiv_pos_as_xyz
1 x,y,z
2 -x,1/2+y,1/2-z
3 -x,-y,-z
4 x,1/2-y,1/2+z
_cell_length_a                   10.987(2)
_cell_length_b                   13.308(3)
_cell_length_c                   9.917(2)
_cell_angle_alpha                90
_cell_angle_beta                 110.74(3)
_cell_angle_gamma                90
_cell_volume                     1356.05
loop_
_atom_site_label
_atom_site_type_symbol
_atom_site_fract_x
_atom_site_fract_y
_atom_site_fract_z
Co1 Co 0.0000 0.0000 0.0000
S1 S 0.53135(10) 0.16028(8) 0.35377(11)
O1 O 0.1301(3) 0.0700(2) -0.0796(3)
O2 O 0.2109(4) 0.0093(2) -0.2396(4)
N1 N 0.1363(3) 0.0307(3) 0.2114(4)
N2 N 0.3167(3) 0.0792(2) 0.3865(4)
N3 N 0.7725(3) 0.2348(3) 0.4972(4)
N4 N 0.9114(3) 0.3542(2) 0.4944(4)
C1 C 0.2565(3) 0.0629(3) 0.2423(4)
H1 H 0.2955 0.0732 0.1741
C2 C 0.1175(4) 0.0269(3) 0.3423(4)
H2 H 0.0407 0.0070 0.3542
C3 C 0.2272(4) 0.0564(3) 0.4509(4)
H3 H 0.2395 0.0604 0.5485
C4 C 0.4423(4) 0.1183(3) 0.4562(4)
C5 C 0.5079(4) 0.1279(3) 0.5998(4)
H4 H 0.4743 0.1096 0.6701
C6 C 0.6346(4) 0.1694(3) 0.6305(5)
H5 H 0.6932 0.1803 0.7235
C7 C 0.6602(4) 0.1911(3) 0.5105(4)
C8 C 0.8130(4) 0.3318(3) 0.5328(4)
H6 H 0.7750 0.3762 0.5787
C9 C 0.8517(4) 0.1939(3) 0.4294(5)
H7 H 0.8470 0.1294 0.3917
C10 C 0.9371(4) 0.2670(3) 0.4292(5)
H8 H 1.0031 0.2605 0.3915
C11 C 0.1872(4) 0.0786(3) -0.1698(4)
C12 C 0.2269(9) 0.1824(4) -0.1949(9)
H9 H 0.2370 0.2233 -0.1119
H10 H 0.1613 0.2109 -0.2778
H11 H 0.3080 0.1795 -0.2109
S1B S -0.53135(10) -0.16028(8) -0.35377(11)
O1B O -0.1301(3) -0.0700(2) 0.0796(3)
O2B O -0.2109(4) -0.0093(2) 0.2396(4)
N1B N -0.1363(3) -0.0307(3) -0.2114(4)
N2B N -0.3167(3) -0.0792(2) -0.3865(4)
N3B N -0.7725(3) -0.2348(3) -0.4972(4)
N4B N -0.9114(3) -0.3542(2) -0.4944(4)
C1B C -0.2565(3) -0.0629(3) -0.2423(4)
H1B H -0.2955 -0.0732 -0.1741
C2B C -0.1175(4) -0.0269(3) -0.3423(4)
H2B H -0.0407 -0.0070 -0.3542
C3B C -0.2272(4) -0.0564(3) -0.4509(4)
H3B H -0.2395 -0.0604 -0.5485
C4B C -0.4423(4) -0.1183(3) -0.4562(4)
C5B C -0.5079(4) -0.1279(3) -0.5998(4)
H4B H -0.4743 -0.1096 -0.6701
C6B C -0.6346(4) -0.1694(3) -0.6305(5)
H5B H -0.6932 -0.1803 -0.7235
C7B C -0.6602(4) -0.1911(3) -0.5105(4)
C8B C -0.8130(4) -0.3318(3) -0.5328(4)
H6B H -0.7750 -0.3762 -0.5787
C9B C -0.8517(4) -0.1939(3) -0.4294(5)
H7B H -0.8470 -0.1294 -0.3917
C10B C -0.9371(4) -0.2670(3) -0.4292(5)
H8B H -1.0031 -0.2605 -0.3915
C11B C -0.1872(4) -0.0786(3) 0.1698(4)
C12B C -0.2269(9) -0.1824(4) 0.1949(9)
H9B H -0.2370 -0.2233 0.1119
H10B H -0.1613 -0.2109 0.2778
H11B H -0.3080 -0.1795 0.2109
Co1A Co -1.0000 -0.5000 -0.5000
Co1A_2 Co 1.0000 0.5000 0.5000
N4A N 0.0886(3) -0.1458(2) 0.0056(4)
N4C N -0.0886(3) 0.1458(2) -0.0056(4)
loop_
_geom_bond_atom_site_label_1
_geom_bond_atom_site_label_2
_geom_bond_site_symmetry_1
_geom_bond_site_symmetry_2
Co1 O1 1_555 1_555
S1 C4 1_555 1_555
O1 C11 1_555 1_555
O2 C11 1_555 1_555
N1 Co1 1_555 1_555
N2 C1 1_555 1_555
N3 C7 1_555 1_555
N4 C8 1_555 1_555
C1 N1 1_555 1_555
H1 C1 1_555 1_555
C2 N1 1_555 1_555
H2 C2 1_555 1_555
C3 N2 1_555 1_555
H3 C3 1_555 1_555
C4 N2 1_555 1_555
C5 C4 1_555 1_555
H4 C5 1_555 1_555
C6 C5 1_555 1_555
H5 C6 1_555 1_555
C7 S1 1_555 1_555
C8 N3 1_555 1_555
H6 C8 1_555 1_555
C9 N3 1_555 1_555
H7 C9 1_555 1_555
C10 N4 1_555 1_555
H8 C10 1_555 1_555
C11 C12 1_555 1_555
C12 H9 1_555 1_555
H10 C12 1_555 1_555
H11 C12 1_555 1_555
S1B C4B 1_555 1_555
O1B Co1 1_555 1_555
O2B C11B 1_555 1_555
N1B Co1 1_555 1_555
N2B C1B 1_555 1_555
N3B C7B 1_555 1_555
N4B C8B 1_555 1_555
C1B N1B 1_555 1_555
H1B C1B 1_555 1_555
C2B N1B 1_555 1_555
H2B C2B 1_555 1_555
C3B N2B 1_555 1_555
H3B C3B 1_555 1_555
C4B N2B 1_555 1_555
C5B C4B 1_555 1_555
H4B C5B 1_555 1_555
C6B C5B 1_555 1_555
H5B C6B 1_555 1_555
C7B S1B 1_555 1_555
C8B N3B 1_555 1_555
H6B C8B 1_555 1_555
C9B N3B 1_555 1_555
H7B C9B 1_555 1_555
C10B N4B 1_555 1_555
H8B C10B 1_555 1_555
C11B O1B 1_555 1_555
C12B C11B 1_555 1_555
H9B C12B 1_555 1_555
H10B C12B 1_555 1_555
H11B C12B 1_555 1_555
Co1A N4B 1_555 1_555
Co1A_2 N4 1_555 1_555
N4A Co1 1_555 1_555
N4C Co1 1_555 1_555
C2 C3 1_555 1_555
C6 C7 1_555 1_555
C9 C10 1_555 1_555
C2B C3B 1_555 1_555
C6B C7B 1_555 1_555
C9B C10B 1_555 1_555

#END
