
#######################################################################
#
#                 Cambridge Crystallographic Data Centre
#                                CCDC 
#
#######################################################################
#
# If this CIF has been generated from an entry in the Cambridge 
# Structural Database, then it will include bibliographic, chemical, 
# crystal, experimental, refinement or atomic coordinate data resulting 
# from the CCDC's data processing and validation procedures.
#
#######################################################################

data_HUBWUY
_symmetry_cell_setting           triclinic
_symmetry_space_group_name_H-M   'P -1'
_symmetry_Int_Tables_number      2
_space_group_name_Hall           '-P 1'
loop_
_symmetry_equiv_pos_site_id
_symmetry_equiv_pos_as_xyz
1 x,y,z
2 -x,-y,-z
_cell_length_a                   8.8003(5)
_cell_length_b                   14.7244(10)
_cell_length_c                   16.5169(14)
_cell_angle_alpha                98.647(6)
_cell_angle_beta                 93.170(6)
_cell_angle_gamma                98.561(5)
_cell_volume                     2085.73
loop_
_atom_site_label
_atom_site_type_symbol
_atom_site_fract_x
_atom_site_fract_y
_atom_site_fract_z
Cu1 Cu 0.86020(10) 0.42620(7) 0.03809(6)
O1 O 0.0875(5) 0.4505(4) 0.0426(3)
O2 O 0.6353(6) 0.4087(4) 0.0321(4)
O3 O 0.0919(6) 0.3374(5) 0.1150(4)
N1 N 0.7074(8) 0.6767(5) 0.4143(4)
N2 N 0.8400(7) 0.3246(5) -0.0593(4)
N3 N 0.8570(7) 0.5209(5) 0.1393(4)
O4 O 0.4825(8) 0.6707(5) 0.3393(4)
O5 O 0.9348(7) 0.6758(5) 0.4851(4)
N4 N 0.6492(11) 0.1060(5) -0.3313(5)
O6 O 0.6598(8) 0.3119(6) 0.1187(5)
C1 C 0.5476(10) 0.6592(6) 0.4025(5)
C2 C 0.7227(15) 0.0896(7) -0.2555(7)
H1 H 0.8159 0.0641 -0.2678
H2 H 0.6543 0.0431 -0.2334
O7 O 0.4164(11) 0.0776(6) -0.2843(5)
C3 C 0.1567(9) 0.3968(6) 0.0780(5)
O8 O 0.8856(9) 0.1438(5) -0.3765(6)
C4 C 0.5460(10) 0.6211(6) 0.5448(5)
C5 C 0.3279(9) 0.4068(6) 0.0721(5)
H3 H 0.3776 0.4611 0.0567
C6 C 0.8156(10) 0.6467(6) 0.2774(5)
C7 C 0.7866(13) 0.6377(8) 0.6262(6)
H4 H 0.8935 0.6521 0.6322
C8 C 0.5084(12) 0.1227(6) -0.4850(7)
C9 C 0.4109(9) 0.3445(7) 0.0872(6)
H5 H 0.3619 0.2907 0.1039
C10 C 0.7089(10) 0.6406(6) 0.5532(5)
C11 C 0.7924(11) 0.7188(6) 0.3507(5)
H6 H 0.8923 0.7512 0.3751
H7 H 0.7360 0.7643 0.3315
C12 C 0.6716(12) 0.1411(6) -0.4714(7)
C13 C 0.4640(10) 0.6280(6) 0.4714(5)
C14 C 0.4894(14) 0.0922(7) -0.3415(8)
C15 C 0.7940(11) 0.6645(6) 0.4833(6)
C16 C 0.9311(9) 0.5233(6) 0.2107(5)
H8 H 0.9992 0.4812 0.2145
C17 C 0.9150(10) 0.5840(7) 0.2809(6)
H9 H 0.9710 0.5822 0.3300
C18 C 0.7661(10) 0.3321(6) -0.1284(5)
H10 H 0.7381 0.3895 -0.1338
C19 C 0.2602(14) 0.0782(7) -0.4386(9)
H11 H 0.1989 0.0594 -0.3981
C20 C 0.7399(14) 0.6461(8) 0.2024(6)
H12 H 0.6723 0.6880 0.1968
C21 C 0.3080(11) 0.6100(6) 0.4633(7)
H13 H 0.2539 0.6143 0.4144
C22 C 0.2770(19) 0.1114(9) -0.5732(10)
H14 H 0.2282 0.1169 -0.6232
C23 C 0.4647(13) 0.5965(6) 0.6119(6)
C24 C 0.5812(10) 0.3541(7) 0.0792(6)
C25 C 0.7049(18) 0.6130(9) 0.6926(7)
H15 H 0.7583 0.6098 0.7420
C26 C 0.4375(17) 0.1297(7) -0.5621(8)
C27 C 0.7648(12) 0.1759(7) -0.1897(6)
C28 C 0.7639(14) 0.5835(8) 0.1355(6)
H16 H 0.7123 0.5851 0.0852
C29 C 0.2299(12) 0.5847(7) 0.5304(8)
H17 H 0.1228 0.5713 0.5253
C30 C 0.7462(14) 0.1312(6) -0.3914(7)
C31 C 0.7616(15) 0.1668(7) -0.5320(9)
H18 H 0.8685 0.1790 -0.5229
C32 C 0.7268(11) 0.2602(6) -0.1939(6)
H19 H 0.6738 0.2704 -0.2412
C33 C 0.4181(11) 0.0977(6) -0.4226(7)
C34 C 0.3074(15) 0.5794(7) 0.6025(7)
H20 H 0.2523 0.5638 0.6462
C35 C 0.5478(16) 0.5939(8) 0.6849(7)
H21 H 0.4955 0.5787 0.7296
C36 C 0.8781(13) 0.2435(8) -0.0558(7)
H22 H 0.9313 0.2355 -0.0078
C37 C 0.689(2) 0.1743(9) -0.6075(9)
H23 H 0.7488 0.1921 -0.6490
C38 C 0.1919(17) 0.0860(9) -0.5136(12)
H24 H 0.0851 0.0734 -0.5230
C39 C 0.8455(15) 0.1681(7) -0.1183(7)
H25 H 0.8782 0.1121 -0.1119
C40 C 0.531(2) 0.1556(8) -0.6215(9)
H26 H 0.4863 0.1607 -0.6726
Cu1_2 Cu -0.13980(10) 0.42620(7) 0.03809(6)
Cu1A Cu 0.13980(10) 0.57380(7) -0.03809(6)
O1_2 O 1.0875(5) 0.4505(4) 0.0426(3)
O1A O 0.9125(5) 0.5495(4) -0.0426(3)
O9 O 0.8907(12) 0.2713(10) 0.2308(7)
loop_
_geom_bond_atom_site_label_1
_geom_bond_atom_site_label_2
_geom_bond_site_symmetry_1
_geom_bond_site_symmetry_2
Cu1 O2 1_555 1_555
O1 C3 1_555 1_555
O2 C24 1_555 1_555
O3 C3 1_555 1_555
N1 C1 1_555 1_555
N2 Cu1 1_555 1_555
N3 Cu1 1_555 1_555
O4 C1 1_555 1_555
O5 C15 1_555 1_555
N4 C2 1_555 1_555
O6 Cu1 1_555 1_555
C1 C13 1_555 1_555
C2 H1 1_555 1_555
H2 C2 1_555 1_555
O7 C14 1_555 1_555
C3 C5 1_555 1_555
O8 C30 1_555 1_555
C4 C10 1_555 1_555
C5 H3 1_555 1_555
C6 C11 1_555 1_555
C7 H4 1_555 1_555
C8 C12 1_555 1_555
C9 C5 1_555 1_555
H5 C9 1_555 1_555
C10 C7 1_555 1_555
C11 N1 1_555 1_555
H6 C11 1_555 1_555
H7 C11 1_555 1_555
C12 C30 1_555 1_555
C13 C4 1_555 1_555
C14 N4 1_555 1_555
C15 N1 1_555 1_555
C16 N3 1_555 1_555
H8 C16 1_555 1_555
C17 C6 1_555 1_555
H9 C17 1_555 1_555
C18 N2 1_555 1_555
H10 C18 1_555 1_555
C19 H11 1_555 1_555
C20 C6 1_555 1_555
H12 C20 1_555 1_555
C21 C13 1_555 1_555
H13 C21 1_555 1_555
C22 H14 1_555 1_555
C23 C4 1_555 1_555
C24 O6 1_555 1_555
C25 C7 1_555 1_555
H15 C25 1_555 1_555
C26 C8 1_555 1_555
C27 C2 1_555 1_555
C28 N3 1_555 1_555
H16 C28 1_555 1_555
C29 C21 1_555 1_555
H17 C29 1_555 1_555
C30 N4 1_555 1_555
C31 C12 1_555 1_555
H18 C31 1_555 1_555
C32 C18 1_555 1_555
H19 C32 1_555 1_555
C33 C8 1_555 1_555
C34 C23 1_555 1_555
H20 C34 1_555 1_555
C35 C23 1_555 1_555
H21 C35 1_555 1_555
C36 N2 1_555 1_555
H22 C36 1_555 1_555
C37 C31 1_555 1_555
H23 C37 1_555 1_555
C38 C19 1_555 1_555
H24 C38 1_555 1_555
C39 C27 1_555 1_555
H25 C39 1_555 1_555
C40 C26 1_555 1_555
H26 C40 1_555 1_555
Cu1_2 O1 1_555 1_555
Cu1A O1 1_555 1_555
O1_2 Cu1 1_555 1_555
O1A Cu1 1_555 1_555
C9 C24 1_555 1_555
C10 C15 1_555 1_555
C14 C33 1_555 1_555
C16 C17 1_555 1_555
C19 C33 1_555 1_555
C20 C28 1_555 1_555
C22 C26 1_555 1_555
C22 C38 1_555 1_555
C25 C35 1_555 1_555
C27 C32 1_555 1_555
C29 C34 1_555 1_555
C36 C39 1_555 1_555
C37 C40 1_555 1_555

#END
