
#######################################################################
#
#                 Cambridge Crystallographic Data Centre
#                                CCDC 
#
#######################################################################
#
# If this CIF has been generated from an entry in the Cambridge 
# Structural Database, then it will include bibliographic, chemical, 
# crystal, experimental, refinement or atomic coordinate data resulting 
# from the CCDC's data processing and validation procedures.
#
#######################################################################

data_HUBWAE
_symmetry_cell_setting           monoclinic
_symmetry_space_group_name_H-M   'P 21/c'
_symmetry_Int_Tables_number      14
_space_group_name_Hall           '-P 2ybc'
loop_
_symmetry_equiv_pos_site_id
_symmetry_equiv_pos_as_xyz
1 x,y,z
2 -x,1/2+y,1/2-z
3 -x,-y,-z
4 x,1/2-y,1/2+z
_cell_length_a                   10.6759(9)
_cell_length_b                   19.3653(16)
_cell_length_c                   7.9920(7)
_cell_angle_alpha                90
_cell_angle_beta                 104.496(3)
_cell_angle_gamma                90
_cell_volume                     1599.68
loop_
_atom_site_label
_atom_site_type_symbol
_atom_site_fract_x
_atom_site_fract_y
_atom_site_fract_z
Cd1 Cd 0.29174(6) 0.69606(3) 0.28824(7)
N1 N 0.1546(6) 0.7227(3) -0.1408(8)
N2 N 0.1705(6) 0.6851(3) 0.0107(8)
N3 N 0.0083(6) 0.6422(3) -0.1824(8)
N4 N -0.0966(7) 0.5975(4) -0.2528(10)
H1 H -0.1659 0.6227 -0.3016
H2 H -0.0759 0.5708 -0.3324
N5 N 0.0638(6) 0.5881(3) 0.0962(9)
H3 H 0.0227 0.5501 0.0655
N6 N 0.1223(7) 0.6060(4) 0.2713(9)
H4 H 0.1581 0.5681 0.3293
H5 H 0.0613 0.6219 0.3215
N7 N 0.4278(7) 0.7183(3) 0.7227(9)
N8 N 0.4168(6) 0.6865(3) 0.5633(8)
N9 N 0.5484(6) 0.6270(3) 0.7618(8)
N10 N 0.6310(7) 0.5715(3) 0.8363(10)
H6 H 0.6125 0.5586 0.9343
H7 H 0.7129 0.5857 0.8586
N11 N 0.5017(7) 0.5823(3) 0.4765(9)
H8 H 0.5598 0.5489 0.4739
N12 N 0.4400(6) 0.5989(3) 0.2990(9)
H9 H 0.3960 0.5620 0.2465
H10 H 0.5004 0.6100 0.2426
C1 C 0.0800(7) 0.6376(4) -0.0169(10)
C2 C 0.0588(8) 0.6953(4) -0.2535(11)
H11 H 0.0290 0.7101 -0.3672
C3 C 0.4903(7) 0.6307(4) 0.5936(10)
C4 C 0.5071(8) 0.6820(4) 0.8349(11)
H12 H 0.5329 0.6924 0.9521
Cd1C Cd 0.29174(6) 0.80394(3) -0.21176(7)
Cd1C_2 Cd 0.29174(6) 0.80394(3) 0.78824(7)
N1C N 0.1546(6) 0.7773(3) 0.3592(8)
N7C N 0.4278(7) 0.7817(3) 0.2227(9)
Cl1 Cl 0.7841(2) 0.69627(11) 0.2329(4)
O1 O 0.8898(8) 0.6857(4) 0.3759(10)
O2 O 0.6732(8) 0.6618(5) 0.2464(14)
O3 O 0.7548(8) 0.7672(4) 0.2069(11)
O4 O 0.8215(9) 0.6697(5) 0.0825(10)
Cl2 Cl 0.2390(2) 0.51724(11) 0.6996(3)
O5 O 0.2476(7) 0.4842(3) 0.5422(9)
O6 O 0.2211(7) 0.5894(3) 0.6692(10)
O7 O 0.1351(8) 0.4897(4) 0.7570(13)
O8 O 0.3594(8) 0.5062(4) 0.8276(11)
loop_
_geom_bond_atom_site_label_1
_geom_bond_atom_site_label_2
_geom_bond_site_symmetry_1
_geom_bond_site_symmetry_2
Cd1 N2 1_555 1_555
N1 N2 1_555 1_555
N2 C1 1_555 1_555
N3 N4 1_555 1_555
N4 H1 1_555 1_555
H2 N4 1_555 1_555
N5 H3 1_555 1_555
N6 Cd1 1_555 1_555
H4 N6 1_555 1_555
H5 N6 1_555 1_555
N7 N8 1_555 1_555
N8 Cd1 1_555 1_555
N9 N10 1_555 1_555
N10 H6 1_555 1_555
H7 N10 1_555 1_555
N11 H8 1_555 1_555
N12 Cd1 1_555 1_555
H9 N12 1_555 1_555
H10 N12 1_555 1_555
C1 N3 1_555 1_555
C2 N1 1_555 1_555
H11 C2 1_555 1_555
C3 N8 1_555 1_555
C4 N7 1_555 1_555
H12 C4 1_555 1_555
Cl1 O1 1_555 1_555
O2 Cl1 1_555 1_555
O3 Cl1 1_555 1_555
O4 Cl1 1_555 1_555
Cl2 O5 1_555 1_555
O6 Cl2 1_555 1_555
O7 Cl2 1_555 1_555
O8 Cl2 1_555 1_555
Cd1C N1 1_555 1_555
Cd1C_2 N7 1_555 1_555
N1C Cd1 1_555 1_555
N7C Cd1 1_555 1_555
N3 C2 1_555 1_555
N5 N6 1_555 1_555
N5 C1 1_555 1_555
N9 C3 1_555 1_555
N9 C4 1_555 1_555
N11 N12 1_555 1_555
N11 C3 1_555 1_555

#END
