
#######################################################################
#
#                 Cambridge Crystallographic Data Centre
#                                CCDC 
#
#######################################################################
#
# If this CIF has been generated from an entry in the Cambridge 
# Structural Database, then it will include bibliographic, chemical, 
# crystal, experimental, refinement or atomic coordinate data resulting 
# from the CCDC's data processing and validation procedures.
#
#######################################################################

data_HUBXAF
_symmetry_cell_setting           orthorhombic
_symmetry_space_group_name_H-M   'P b c a'
_symmetry_Int_Tables_number      61
_space_group_name_Hall           '-P 2ac 2ab'
loop_
_symmetry_equiv_pos_site_id
_symmetry_equiv_pos_as_xyz
1 x,y,z
2 1/2-x,-y,1/2+z
3 1/2+x,1/2-y,-z
4 -x,1/2+y,1/2-z
5 -x,-y,-z
6 1/2+x,y,1/2-z
7 1/2-x,1/2+y,z
8 x,1/2-y,1/2+z
_cell_length_a                   15.1823(11)
_cell_length_b                   7.8010(6)
_cell_length_c                   31.418(2)
_cell_angle_alpha                90
_cell_angle_beta                 90
_cell_angle_gamma                90
_cell_volume                     3721.06
loop_
_atom_site_label
_atom_site_type_symbol
_atom_site_fract_x
_atom_site_fract_y
_atom_site_fract_z
Cu1 Cu 0.60841(4) 0.34919(8) 0.245169(17)
O1 O 0.8458(3) 0.8155(6) 0.06451(12)
O2 O 0.9343(3) 0.2685(6) 0.08648(12)
O3 O 0.69600(19) 0.2328(5) 0.27835(10)
O4 O 0.7473(2) 0.1030(5) 0.33535(10)
O5 O 0.5182(2) 0.1801(4) 0.26303(10)
O6 O 0.4841(2) -0.0670(5) 0.29353(10)
O7 O 0.5948(3) 0.5409(6) 0.29763(12)
H1 H 0.6427 0.5544 0.3093
N1 N 0.8955(3) 0.5434(6) 0.07468(12)
N2 N 0.7041(2) 0.4314(5) 0.20482(11)
C1 C 0.8639(3) 0.6766(8) 0.04900(16)
C2 C 0.8561(3) 0.6413(7) 0.00303(15)
C3 C 0.8277(3) 0.7669(8) -0.02416(16)
H2 H 0.8113 0.8733 -0.0134
C4 C 0.8231(4) 0.7367(9) -0.06780(16)
H3 H 0.8046 0.8237 -0.0860
C5 C 0.8453(4) 0.5825(9) -0.08392(17)
H4 H 0.8417 0.5647 -0.1131
C6 C 0.8736(3) 0.4483(8) -0.05745(16)
C7 C 0.8788(3) 0.4787(7) -0.01272(15)
C8 C 0.8962(4) 0.2847(9) -0.07234(19)
H5 H 0.8938 0.2626 -0.1014
C9 C 0.9214(4) 0.1593(9) -0.0458(2)
H6 H 0.9368 0.0526 -0.0567
C10 C 0.9245(4) 0.1873(8) -0.00184(19)
H7 H 0.9399 0.0981 0.0163
C11 C 0.9050(3) 0.3456(7) 0.01456(16)
C12 C 0.9125(3) 0.3775(8) 0.06078(17)
C13 C 0.9130(4) 0.5813(8) 0.11971(15)
H8 H 0.9231 0.7034 0.1228
H9 H 0.9664 0.5224 0.1283
C14 C 0.8387(3) 0.5284(7) 0.14910(14)
C15 C 0.7516(3) 0.5474(7) 0.13808(14)
H10 H 0.7366 0.5928 0.1117
C16 C 0.6868(3) 0.4992(7) 0.16623(15)
H11 H 0.6283 0.5141 0.1583
C17 C 0.7896(3) 0.4124(7) 0.21488(15)
H12 H 0.8037 0.3654 0.2412
C18 C 0.8571(3) 0.4589(7) 0.18824(15)
H13 H 0.9152 0.4432 0.1967
C19 C 0.6856(3) 0.1493(7) 0.31285(14)
C20 C 0.5928(3) 0.1030(8) 0.32691(15)
H14 H 0.5960 0.0015 0.3446
H15 H 0.5703 0.1956 0.3444
C21 C 0.5281(3) 0.0700(7) 0.29186(15)
H16 H 0.573(4) 0.611(7) 0.2890(17)
Cu1C Cu 0.39159(4) -0.15081(8) 0.254831(17)
O6C O 0.5159(2) 0.4330(5) 0.20647(10)
loop_
_geom_bond_atom_site_label_1
_geom_bond_atom_site_label_2
_geom_bond_site_symmetry_1
_geom_bond_site_symmetry_2
Cu1 O3 1_555 1_555
O1 C1 1_555 1_555
O2 C12 1_555 1_555
O3 C19 1_555 1_555
O4 C19 1_555 1_555
O5 Cu1 1_555 1_555
O6 C21 1_555 1_555
O7 Cu1 1_555 1_555
H1 O7 1_555 1_555
N1 C1 1_555 1_555
N2 Cu1 1_555 1_555
C1 C2 1_555 1_555
C2 C3 1_555 1_555
C3 H2 1_555 1_555
C4 C3 1_555 1_555
H3 C4 1_555 1_555
C5 C4 1_555 1_555
H4 C5 1_555 1_555
C6 C5 1_555 1_555
C7 C2 1_555 1_555
C8 C6 1_555 1_555
H5 C8 1_555 1_555
C9 C8 1_555 1_555
H6 C9 1_555 1_555
C10 C9 1_555 1_555
H7 C10 1_555 1_555
C11 C7 1_555 1_555
C12 N1 1_555 1_555
C13 N1 1_555 1_555
H8 C13 1_555 1_555
H9 C13 1_555 1_555
C14 C13 1_555 1_555
C15 C14 1_555 1_555
H10 C15 1_555 1_555
C16 N2 1_555 1_555
H11 C16 1_555 1_555
C17 N2 1_555 1_555
H12 C17 1_555 1_555
C18 C14 1_555 1_555
H13 C18 1_555 1_555
C19 C20 1_555 1_555
C20 H14 1_555 1_555
H15 C20 1_555 1_555
C21 O5 1_555 1_555
H16 O7 1_555 1_555
Cu1C O6 1_555 1_555
O6C Cu1 1_555 1_555
C6 C7 1_555 1_555
C10 C11 1_555 1_555
C11 C12 1_555 1_555
C15 C16 1_555 1_555
C17 C18 1_555 1_555
C20 C21 1_555 1_555

#END
