
#######################################################################
#
#                 Cambridge Crystallographic Data Centre
#                                CCDC 
#
#######################################################################
#
# If this CIF has been generated from an entry in the Cambridge 
# Structural Database, then it will include bibliographic, chemical, 
# crystal, experimental, refinement or atomic coordinate data resulting 
# from the CCDC's data processing and validation procedures.
#
#######################################################################

data_HUCBUD
_symmetry_cell_setting           monoclinic
_symmetry_space_group_name_H-M   'P 21/n'
_symmetry_Int_Tables_number      14
_space_group_name_Hall           '-P 2yn'
loop_
_symmetry_equiv_pos_site_id
_symmetry_equiv_pos_as_xyz
1 x,y,z
2 1/2-x,1/2+y,1/2-z
3 -x,-y,-z
4 1/2+x,1/2-y,1/2+z
_cell_length_a                   7.492(4)
_cell_length_b                   18.289(9)
_cell_length_c                   10.942(6)
_cell_angle_alpha                90
_cell_angle_beta                 90.778(7)
_cell_angle_gamma                90
_cell_volume                     1499.15
loop_
_atom_site_label
_atom_site_type_symbol
_atom_site_fract_x
_atom_site_fract_y
_atom_site_fract_z
Cu1 Cu 0.95031(12) 0.05969(4) 0.58331(8)
Cu2 Cu 0.84079(12) 0.08323(4) 0.28829(8)
S1 S 1.3009(3) 0.07868(9) 1.28290(16)
O1 O 1.4726(7) 0.1029(3) 1.3307(5)
O2 O 1.2903(8) -0.0007(3) 1.2657(5)
O3 O 1.1508(7) 0.1060(3) 1.3534(5)
O4 O 0.8603(7) 0.0164(2) 0.4310(4)
O5 O 1.3124(7) 0.3270(2) 0.8803(4)
O6 O 1.1359(7) -0.0010(3) 0.8256(4)
O7 O 1.0564(7) 0.1024(3) 0.7260(4)
O8 O 1.3063(7) 0.3511(3) 1.0820(4)
C1 C 1.2712(9) 0.1202(4) 1.1361(6)
C2 C 1.2098(10) 0.0784(4) 1.0390(6)
H1 H 1.1920 0.0273 1.0489
C3 C 1.1741(9) 0.1115(4) 0.9264(6)
C4 C 1.1935(10) 0.1866(4) 0.9156(6)
H2 H 1.1620 0.2096 0.8404
C5 C 1.2578(10) 0.2293(4) 1.0116(6)
C6 C 1.2983(9) 0.1959(4) 1.1232(6)
H3 H 1.3436 0.2240 1.1898
C7 C 1.2939(9) 0.3093(4) 0.9892(6)
C8 C 0.6979(11) 0.1124(4) 0.0398(7)
H4 H 0.6655 0.0623 0.0443
N1 N 0.7856(8) 0.1431(3) 0.1380(5)
C9 C 0.6543(10) 0.1504(4) -0.0649(7)
H5 H 0.5981 0.1265 -0.1322
C10 C 0.6942(11) 0.2245(5) -0.0700(7)
H6 H 0.6625 0.2524 -0.1402
C11 C 0.7810(11) 0.2573(4) 0.0285(7)
H7 H 0.8092 0.3079 0.0271
C12 C 0.8257(10) 0.2145(4) 0.1289(6)
H8 H 0.8880 0.2370 0.1951
C13 C 1.1173(9) 0.0662(4) 0.8179(6)
Cu1B Cu 1.04969(12) -0.05969(4) 0.41669(8)
Cu1C Cu 1.45031(12) 0.44031(4) 1.08331(8)
Cu2C Cu 1.34079(12) 0.41677(4) 0.78829(8)
Cu2B Cu 1.15921(12) -0.08323(4) 0.71171(8)
O4B O 1.1397(7) -0.0164(2) 0.5690(4)
O5C O 0.8124(7) 0.1730(2) 0.3803(4)
O6B O 0.8641(7) 0.0010(3) 0.1744(4)
O8C O 0.8063(7) 0.1489(3) 0.5820(4)
O9 O 0.4289(8) 0.0670(3) 0.5878(6)
H9 H 0.491(10) 0.081(4) 0.529(8)
H10 H 0.492(14) 0.062(6) 0.637(10)
loop_
_geom_bond_atom_site_label_1
_geom_bond_atom_site_label_2
_geom_bond_site_symmetry_1
_geom_bond_site_symmetry_2
Cu1 O4 1_555 1_555
Cu2 O4 1_555 1_555
S1 O1 1_555 1_555
O2 S1 1_555 1_555
O3 S1 1_555 1_555
O4 Cu1B 1_555 1_555
O5 C7 1_555 1_555
O6 C13 1_555 1_555
O7 Cu1 1_555 1_555
O8 C7 1_555 1_555
C1 S1 1_555 1_555
C2 C1 1_555 1_555
H1 C2 1_555 1_555
C3 C2 1_555 1_555
C4 C3 1_555 1_555
H2 C4 1_555 1_555
C5 C4 1_555 1_555
C6 C1 1_555 1_555
H3 C6 1_555 1_555
C7 C5 1_555 1_555
C8 H4 1_555 1_555
N1 Cu2 1_555 1_555
C9 C8 1_555 1_555
H5 C9 1_555 1_555
C10 C9 1_555 1_555
H6 C10 1_555 1_555
C11 C10 1_555 1_555
H7 C11 1_555 1_555
C12 N1 1_555 1_555
H8 C12 1_555 1_555
C13 O7 1_555 1_555
O9 H9 1_555 1_555
H10 O9 1_555 1_555
Cu1B O4B 1_555 1_555
Cu1C O8 1_555 1_555
Cu2C O5 1_555 1_555
Cu2B O6 1_555 1_555
O4B Cu1 1_555 1_555
O5C Cu2 1_555 1_555
O6B Cu2 1_555 1_555
O8C Cu1 1_555 1_555
C3 C13 1_555 1_555
C5 C6 1_555 1_555
C8 N1 1_555 1_555
C11 C12 1_555 1_555
Cu2B O4B 1_555 1_555

#END
