
#######################################################################
#
#                 Cambridge Crystallographic Data Centre
#                                CCDC 
#
#######################################################################
#
# If this CIF has been generated from an entry in the Cambridge 
# Structural Database, then it will include bibliographic, chemical, 
# crystal, experimental, refinement or atomic coordinate data resulting 
# from the CCDC's data processing and validation procedures.
#
#######################################################################

data_HUCBUE
_symmetry_cell_setting           orthorhombic
_symmetry_space_group_name_H-M   'P b c a'
_symmetry_Int_Tables_number      61
_space_group_name_Hall           '-P 2ac 2ab'
loop_
_symmetry_equiv_pos_site_id
_symmetry_equiv_pos_as_xyz
1 x,y,z
2 1/2-x,-y,1/2+z
3 -x,1/2+y,1/2-z
4 1/2+x,1/2-y,-z
5 -x,-y,-z
6 1/2+x,y,1/2-z
7 x,1/2-y,1/2+z
8 1/2-x,1/2+y,z
_cell_length_a                   14.8167(16)
_cell_length_b                   9.5651(7)
_cell_length_c                   24.5912(17)
_cell_angle_alpha                90
_cell_angle_beta                 90
_cell_angle_gamma                90
_cell_volume                     3485.14
loop_
_atom_site_label
_atom_site_type_symbol
_atom_site_fract_x
_atom_site_fract_y
_atom_site_fract_z
Cd1 Cd -0.01896(9) 0.64285(14) 0.57066(4)
Cd2 Cd -0.00326(9) 0.60798(13) 0.74363(4)
Cl1 Cl -0.1074(3) 0.6842(5) 0.66204(16)
Cl2 Cl -0.0772(3) 0.3518(5) 0.73967(15)
N1 N 0.1035(10) 0.5478(15) 0.6217(5)
N2 N 0.1010(10) 0.5499(15) 0.6780(5)
N3 N 0.2157(10) 0.4266(15) 0.6519(5)
N4 N 0.1967(10) 0.4617(15) 0.7471(5)
H1 H 0.2483 0.4278 0.7562
N5 N 0.1310(9) 0.5051(15) 0.7849(5)
H2 H 0.1559 0.5681 0.8076
H3 H 0.1142 0.4308 0.8050
N6 N 0.2871(10) 0.3337(16) 0.6518(5)
H4 H 0.3161 0.3396 0.6834
H5 H 0.2651 0.2478 0.6477
N7 N 0.0672(10) 0.5788(15) 0.4414(5)
N8 N 0.0586(10) 0.6543(16) 0.4886(5)
N9 N 0.1255(10) 0.7876(16) 0.4284(5)
N10 N 0.1024(10) 0.8795(15) 0.5167(5)
H6 H 0.1292 0.9570 0.5093
N11 N 0.0675(10) 0.8530(14) 0.5681(5)
H7 H 0.0324 0.9252 0.5783
H8 H 0.1132 0.8465 0.5921
N12 N 0.1722(10) 0.8971(15) 0.4029(5)
H9 H 0.1720 0.9712 0.4248
H10 H 0.2288 0.8706 0.3967
N13 N -0.1659(13) 0.779(2) 0.5182(7)
N14 N -0.0869(12) 0.6336(17) 0.8430(6)
O1 O -0.1191(11) 0.8284(15) 0.5353(6)
O2 O -0.1806(12) 0.6592(16) 0.5137(6)
O3 O -0.2303(12) 0.8598(18) 0.4930(6)
O4 O -0.1176(9) 0.6607(14) 0.8060(5)
O5 O -0.0154(10) 0.5835(14) 0.8504(4)
O6 O -0.1348(10) 0.6488(16) 0.8892(6)
C1 C 0.1694(13) 0.4795(19) 0.6934(6)
C2 C 0.1680(12) 0.4687(19) 0.6085(6)
H11 H 0.1810 0.4427 0.5729
C3 C 0.0928(13) 0.781(2) 0.4797(7)
C4 C 0.1093(12) 0.6569(19) 0.4057(6)
H12 H 0.1256 0.6294 0.3708
Cd1D Cd 0.01896(9) 0.35715(14) 0.42934(4)
Cd2B Cd 0.00326(9) 0.10798(13) 0.75637(4)
Cl2B Cl 0.0772(3) 0.8518(5) 0.76033(15)
N7D N -0.0672(10) 0.4212(15) 0.5586(5)
loop_
_geom_bond_atom_site_label_1
_geom_bond_atom_site_label_2
_geom_bond_site_symmetry_1
_geom_bond_site_symmetry_2
Cd1 Cl1 1_555 1_555
Cd2 Cl1 1_555 1_555
Cl2 Cd2 1_555 1_555
N1 Cd1 1_555 1_555
N2 Cd2 1_555 1_555
N3 N6 1_555 1_555
N4 H1 1_555 1_555
N5 Cd2 1_555 1_555
H2 N5 1_555 1_555
H3 N5 1_555 1_555
N6 H4 1_555 1_555
H5 N6 1_555 1_555
N7 N8 1_555 1_555
N8 Cd1 1_555 1_555
N9 N12 1_555 1_555
N10 H6 1_555 1_555
N11 Cd1 1_555 1_555
H7 N11 1_555 1_555
H8 N11 1_555 1_555
N12 H9 1_555 1_555
H10 N12 1_555 1_555
N13 O1 1_555 1_555
N14 O4 1_555 1_555
O1 Cd1 1_555 1_555
O2 Cd1 1_555 1_555
O3 N13 1_555 1_555
O4 Cd2 1_555 1_555
O5 Cd2 1_555 1_555
O6 N14 1_555 1_555
C1 N2 1_555 1_555
C2 N1 1_555 1_555
H11 C2 1_555 1_555
C3 N8 1_555 1_555
C4 N7 1_555 1_555
H12 C4 1_555 1_555
Cd1D N7 1_555 1_555
Cd2B Cl2 1_555 1_555
Cl2B Cd2 1_555 1_555
N7D Cd1 1_555 1_555
N1 N2 1_555 1_555
N3 C1 1_555 1_555
N3 C2 1_555 1_555
N4 N5 1_555 1_555
N4 C1 1_555 1_555
N9 C3 1_555 1_555
N9 C4 1_555 1_555
N10 N11 1_555 1_555
N10 C3 1_555 1_555
N13 O2 1_555 1_555
N14 O5 1_555 1_555

#END
