
#######################################################################
#
#                 Cambridge Crystallographic Data Centre
#                                CCDC 
#
#######################################################################
#
# If this CIF has been generated from an entry in the Cambridge 
# Structural Database, then it will include bibliographic, chemical, 
# crystal, experimental, refinement or atomic coordinate data resulting 
# from the CCDC's data processing and validation procedures.
#
#######################################################################

data_HUCBIS
_symmetry_cell_setting           orthorhombic
_symmetry_space_group_name_H-M   'P b c n'
_symmetry_Int_Tables_number      60
_space_group_name_Hall           '-P 2n 2ab'
loop_
_symmetry_equiv_pos_site_id
_symmetry_equiv_pos_as_xyz
1 x,y,z
2 1/2-x,1/2-y,1/2+z
3 1/2+x,1/2-y,-z
4 -x,y,1/2-z
5 -x,-y,-z
6 1/2+x,1/2+y,1/2-z
7 1/2-x,1/2+y,z
8 x,-y,1/2+z
_cell_length_a                   16.4076(11)
_cell_length_b                   13.8565(10)
_cell_length_c                   14.1470(10)
_cell_angle_alpha                90
_cell_angle_beta                 90
_cell_angle_gamma                90
_cell_volume                     3216.35
loop_
_atom_site_label
_atom_site_type_symbol
_atom_site_fract_x
_atom_site_fract_y
_atom_site_fract_z
Co1 Co 0.473503(18) 0.02318(2) 0.60319(2)
N1 N 0.38781(12) 0.11988(15) 0.65476(14)
O1 O 0.39414(10) -0.08277(12) 0.57003(12)
C1 C 0.41130(15) 0.20952(19) 0.67896(17)
H1 H 0.4664 0.2251 0.6761
O2 O 0.5000 -0.01584(16) 0.7500
H2 H 0.4628 -0.0536 0.7633
O3 O 0.43866(10) -0.11990(12) 0.42409(12)
N2 N 0.10679(13) 0.19817(18) 0.70699(19)
H3 H 0.1243 0.2529 0.7271
C2 C 0.35656(15) 0.2794(2) 0.70801(19)
H4 H 0.3746 0.3406 0.7252
O4 O 0.12374(11) -0.39024(15) 0.30530(13)
C3 C 0.27438(16) 0.25656(19) 0.71102(18)
H5 H 0.2364 0.3027 0.7292
O5 O 0.06876(10) -0.41919(13) 0.44570(12)
C4 C 0.24921(14) 0.16386(18) 0.68663(17)
O6 O 0.14388(12) 0.04927(15) 0.65715(17)
C5 C 0.30847(15) 0.09762(18) 0.65930(17)
H6 H 0.2923 0.0353 0.6435
C6 C 0.16188(15) 0.1309(2) 0.68223(18)
C7 C 0.01912(15) 0.1834(3) 0.7016(2)
H7 H 0.0081 0.1222 0.6707
H8 H -0.0051 0.2342 0.6637
C8 C 0.39123(13) -0.13043(16) 0.49363(17)
C9 C 0.32404(13) -0.20321(17) 0.48186(16)
C10 C 0.24457(14) -0.17452(17) 0.49528(17)
H9 H 0.2337 -0.1139 0.5206
C11 C 0.17942(14) -0.23604(18) 0.47108(17)
H10 H 0.1261 -0.2152 0.4799
C12 C 0.19352(14) -0.32637(17) 0.43463(16)
C13 C 0.12338(14) -0.38375(17) 0.39364(17)
C14 C 0.27537(14) -0.36096(17) 0.42546(17)
C15 C 0.29305(17) -0.45491(19) 0.39195(19)
H11 H 0.2506 -0.4953 0.3738
C16 C 0.37174(18) -0.4871(2) 0.3858(2)
H12 H 0.3822 -0.5491 0.3635
C17 C 0.43699(17) -0.4273(2) 0.4130(2)
H13 H 0.4902 -0.4501 0.4097
C18 C 0.42206(14) -0.33566(18) 0.44421(18)
H14 H 0.4655 -0.2965 0.4618
C19 C 0.34158(14) -0.29913(17) 0.45030(16)
N1C N -0.38781(12) 0.11988(15) 0.84524(14)
C1C C -0.41130(15) 0.20952(19) 0.82104(17)
H1C H -0.4664 0.2251 0.8239
N2C N -0.10679(13) 0.19817(18) 0.79301(19)
H3C H -0.1243 0.2529 0.7729
C2C C -0.35656(15) 0.2794(2) 0.79199(19)
H4C H -0.3746 0.3406 0.7748
C3C C -0.27438(16) 0.25656(19) 0.78898(18)
H5C H -0.2364 0.3027 0.7708
C4C C -0.24921(14) 0.16386(18) 0.81337(17)
O6C O -0.14388(12) 0.04927(15) 0.84285(17)
C5C C -0.30847(15) 0.09762(18) 0.84070(17)
H6C H -0.2923 0.0353 0.8565
C6C C -0.16188(15) 0.1309(2) 0.81777(18)
C7C C -0.01912(15) 0.1834(3) 0.7984(2)
H7C H -0.0081 0.1222 0.8293
H8C H 0.0051 0.2342 0.8363
H2C H 0.5372 -0.0536 0.7367
Co1C Co -0.473503(18) 0.02318(2) 0.89681(2)
O1C O -0.39414(10) -0.08277(12) 0.92997(12)
O3C O -0.43866(10) -0.11990(12) 1.07591(12)
O4C O -0.12374(11) -0.39024(15) 1.19470(13)
O5C O -0.06876(10) -0.41919(13) 1.05430(12)
C8C C -0.39123(13) -0.13043(16) 1.00637(17)
C9C C -0.32404(13) -0.20321(17) 1.01814(16)
C10C C -0.24457(14) -0.17452(17) 1.00472(17)
H9C H -0.2337 -0.1139 0.9794
C11C C -0.17942(14) -0.23604(18) 1.02892(17)
H10C H -0.1261 -0.2152 1.0201
C12C C -0.19352(14) -0.32637(17) 1.06537(16)
C13C C -0.12338(14) -0.38375(17) 1.10636(17)
C14C C -0.27537(14) -0.36096(17) 1.07454(17)
C15C C -0.29305(17) -0.45491(19) 1.10805(19)
H11C H -0.2506 -0.4953 1.1262
C16C C -0.37174(18) -0.4871(2) 1.1142(2)
H12C H -0.3822 -0.5491 1.1365
C17C C -0.43699(17) -0.4273(2) 1.0870(2)
H13C H -0.4902 -0.4501 1.0903
C18C C -0.42206(14) -0.33566(18) 1.05579(18)
H14C H -0.4655 -0.2965 1.0382
C19C C -0.34158(14) -0.29913(17) 1.04970(16)
Co1A Co 0.026497(18) -0.52318(2) 1.10319(2)
Co1B Co -0.026497(18) -0.52318(2) 0.39681(2)
Co1C_2 Co 0.526497(18) 0.02318(2) 0.89681(2)
Co1D Co 0.526497(18) -0.02318(2) 0.39681(2)
Co1G Co -0.526497(18) -0.02318(2) 1.10319(2)
O2_2 O -0.5000 -0.01584(16) 0.7500
O3D O 0.56134(10) 0.11990(12) 0.57591(12)
O3G O -0.56134(10) 0.11990(12) 0.92409(12)
O5A O -0.56876(10) -0.08081(13) 0.94570(12)
O5B O 0.56876(10) -0.08081(13) 0.55430(12)
loop_
_geom_bond_atom_site_label_1
_geom_bond_atom_site_label_2
_geom_bond_site_symmetry_1
_geom_bond_site_symmetry_2
Co1 N1 1_555 1_555
N1 C1 1_555 1_555
O1 Co1 1_555 1_555
C1 H1 1_555 1_555
O2 Co1 1_555 1_555
H2 O2 1_555 1_555
O3 C8 1_555 1_555
N2 H3 1_555 1_555
C2 C1 1_555 1_555
H4 C2 1_555 1_555
O4 C13 1_555 1_555
C3 C2 1_555 1_555
H5 C3 1_555 1_555
O5 C13 1_555 1_555
C4 C3 1_555 1_555
O6 C6 1_555 1_555
C5 N1 1_555 1_555
H6 C5 1_555 1_555
C6 N2 1_555 1_555
C7 N2 1_555 1_555
H7 C7 1_555 1_555
H8 C7 1_555 1_555
C8 O1 1_555 1_555
C9 C8 1_555 1_555
C10 C9 1_555 1_555
H9 C10 1_555 1_555
C11 C10 1_555 1_555
H10 C11 1_555 1_555
C12 C11 1_555 1_555
C13 C12 1_555 1_555
C14 C12 1_555 1_555
C15 C14 1_555 1_555
H11 C15 1_555 1_555
C16 C15 1_555 1_555
H12 C16 1_555 1_555
C17 C16 1_555 1_555
H13 C17 1_555 1_555
C18 C17 1_555 1_555
H14 C18 1_555 1_555
C19 C9 1_555 1_555
N1C C1C 1_555 1_555
C1C H1C 1_555 1_555
N2C H3C 1_555 1_555
C2C C1C 1_555 1_555
H4C C2C 1_555 1_555
C3C C2C 1_555 1_555
H5C C3C 1_555 1_555
C4C C3C 1_555 1_555
O6C C6C 1_555 1_555
C5C N1C 1_555 1_555
H6C C5C 1_555 1_555
C6C N2C 1_555 1_555
C7C C7 1_555 1_555
H7C C7C 1_555 1_555
H8C C7C 1_555 1_555
H2C O2 1_555 1_555
Co1C N1C 1_555 1_555
O1C Co1C 1_555 1_555
O3C C8C 1_555 1_555
O4C C13C 1_555 1_555
O5C C13C 1_555 1_555
C8C O1C 1_555 1_555
C9C C8C 1_555 1_555
C10C C9C 1_555 1_555
H9C C10C 1_555 1_555
C11C C10C 1_555 1_555
H10C C11C 1_555 1_555
C12C C11C 1_555 1_555
C13C C12C 1_555 1_555
C14C C12C 1_555 1_555
C15C C14C 1_555 1_555
H11C C15C 1_555 1_555
C16C C15C 1_555 1_555
H12C C16C 1_555 1_555
C17C C16C 1_555 1_555
H13C C17C 1_555 1_555
C18C C17C 1_555 1_555
H14C C18C 1_555 1_555
C19C C9C 1_555 1_555
Co1A O5C 1_555 1_555
Co1B O5 1_555 1_555
Co1C_2 O2 1_555 1_555
Co1D O3 1_555 1_555
Co1G O3C 1_555 1_555
O2_2 Co1C 1_555 1_555
O3D Co1 1_555 1_555
O3G Co1C 1_555 1_555
O5A Co1C 1_555 1_555
O5B Co1 1_555 1_555
C4 C5 1_555 1_555
C4 C6 1_555 1_555
C14 C19 1_555 1_555
C18 C19 1_555 1_555
N2C C7C 1_555 1_555
C4C C5C 1_555 1_555
C4C C6C 1_555 1_555
C14C C19C 1_555 1_555
C18C C19C 1_555 1_555

#END
