
#######################################################################
#
#                 Cambridge Crystallographic Data Centre
#                                CCDC 
#
#######################################################################
#
# If this CIF has been generated from an entry in the Cambridge 
# Structural Database, then it will include bibliographic, chemical, 
# crystal, experimental, refinement or atomic coordinate data resulting 
# from the CCDC's data processing and validation procedures.
#
#######################################################################

data_HUCFIV
_symmetry_cell_setting           triclinic
_symmetry_space_group_name_H-M   'P -1'
_symmetry_Int_Tables_number      2
_space_group_name_Hall           '-P 1'
loop_
_symmetry_equiv_pos_site_id
_symmetry_equiv_pos_as_xyz
1 x,y,z
2 -x,-y,-z
_cell_length_a                   7.948(3)
_cell_length_b                   8.6512(18)
_cell_length_c                   8.7425(18)
_cell_angle_alpha                115.525(2)
_cell_angle_beta                 101.970(3)
_cell_angle_gamma                96.306(3)
_cell_volume                     516.977
loop_
_atom_site_label
_atom_site_type_symbol
_atom_site_fract_x
_atom_site_fract_y
_atom_site_fract_z
C1 C 1.1008(9) 0.3421(10) 0.7510(9)
C2 C 1.2220(10) 0.2213(10) 0.7476(10)
C3 C 1.2449(13) 0.0959(12) 0.5928(12)
H1 H 1.1882 0.0920 0.4865
C4 C 1.4345(11) 0.0053(11) 0.7489(11)
H2 H 1.5126 -0.0660 0.7543
C5 C 1.4166(11) 0.1312(11) 0.9049(11)
H3 H 1.4818 0.1415 1.0116
C6 C 1.0717(8) -0.0062(9) 1.0711(9)
C7 C 1.5587(9) 0.4748(9) 1.4355(9)
H4 H 0.942(11) 0.255(10) 1.351(9)
H5 H 0.857(10) 0.370(10) 1.324(10)
H6 H 1.401(5) 0.771(10) 1.320(9)
H7 H 1.269(9) 0.774(9) 1.198(10)
N1 N 1.3077(9) 0.2389(9) 0.9065(8)
N2 N 1.3439(9) -0.0191(9) 0.5892(9)
Nd1 Nd 1.16059(4) 0.41347(4) 1.17544(4)
O1 O 1.0011(8) 0.3228(8) 0.6106(7)
O2 O 1.1050(7) 0.4616(7) 0.9021(7)
O3 O 1.1906(7) 0.1307(7) 1.1728(7)
O4 O 1.0581(7) -0.1485(7) 1.0749(7)
O5 O 1.4851(7) 0.4322(8) 1.2786(7)
O6 O 1.7157(7) 0.4807(8) 1.5016(6)
O7 O 0.9246(9) 0.3029(9) 1.2852(8)
O8 O 1.2992(7) 0.7166(7) 1.2520(7)
C1A C 0.8992(9) 0.6579(10) 1.2490(9)
C2A C 0.7780(10) 0.7787(10) 1.2524(10)
C3A C 0.7551(13) 0.9041(12) 1.4072(12)
H1A H 0.8118 0.9080 1.5135
C4A C 0.5655(11) 0.9947(11) 1.2511(11)
H2A H 0.4874 1.0660 1.2457
C5A C 0.5834(11) 0.8688(11) 1.0951(11)
H3A H 0.5182 0.8585 0.9884
C6A C 0.9283(8) 0.0062(9) 0.9289(9)
C7A C 1.4413(9) 0.5252(9) 1.5645(9)
H4A H 1.058(11) 0.745(10) 0.649(9)
H5A H 1.143(10) 0.630(10) 0.676(10)
H6A H 0.599(5) 0.229(10) 0.680(9)
H7A H 0.731(9) 0.226(9) 0.802(10)
N1A N 0.6923(9) 0.7611(9) 1.0935(8)
N2A N 0.6561(9) 1.0191(9) 1.4108(9)
Nd1A Nd 0.83941(4) 0.58653(4) 0.82456(4)
Nd1A_2 Nd 0.83941(4) -0.41347(4) 0.82456(4)
Nd1A_3 Nd 1.83941(4) 0.58653(4) 1.82456(4)
O1A O 0.9989(8) 0.6772(8) 1.3894(7)
O2A O 0.8950(7) 0.5384(7) 1.0979(7)
O3A O 0.8094(7) -0.1307(7) 0.8272(7)
O3A_2 O 0.8094(7) 0.8693(7) 0.8272(7)
O4A O 0.9419(7) 0.1485(7) 0.9251(7)
O4_2 O 1.0581(7) 0.8515(7) 1.0749(7)
O5A O 1.5149(7) 0.5678(8) 1.7214(7)
O5A_2 O 0.5149(7) 0.5678(8) 0.7214(7)
O6A O 1.2843(7) 0.5193(8) 1.4984(6)
O6_2 O 0.7157(7) 0.4807(8) 0.5016(6)
O7A O 1.0754(9) 0.6971(9) 0.7148(8)
O8A O 0.7008(7) 0.2834(7) 0.7480(7)
loop_
_geom_bond_atom_site_label_1
_geom_bond_atom_site_label_2
_geom_bond_site_symmetry_1
_geom_bond_site_symmetry_2
C1 C2 1_555 1_555
C2 C3 1_555 1_555
C3 H1 1_555 1_555
C4 H2 1_555 1_555
C5 C4 1_555 1_555
H3 C5 1_555 1_555
C6 O3 1_555 1_555
C7 O5 1_555 1_555
H4 O7 1_555 1_555
H5 O7 1_555 1_555
H6 O8 1_555 1_555
H7 O8 1_555 1_555
N1 C2 1_555 1_555
N2 C3 1_555 1_555
Nd1 N1 1_555 1_555
O1 C1 1_555 1_555
O2 C1 1_555 1_555
O3 Nd1 1_555 1_555
O4 C6 1_555 1_555
O5 Nd1 1_555 1_555
O6 C7 1_555 1_555
O7 Nd1 1_555 1_555
O8 Nd1 1_555 1_555
C1A C2A 1_555 1_555
C2A C3A 1_555 1_555
C3A H1A 1_555 1_555
C4A H2A 1_555 1_555
C5A C4A 1_555 1_555
H3A C5A 1_555 1_555
C6A C6 1_555 1_555
C7A C7 1_555 1_555
H4A O7A 1_555 1_555
H5A O7A 1_555 1_555
H6A O8A 1_555 1_555
H7A O8A 1_555 1_555
N1A C2A 1_555 1_555
N2A C3A 1_555 1_555
Nd1A O1 1_555 1_555
Nd1A_2 O4 1_555 1_555
Nd1A_3 O6 1_555 1_555
O1A Nd1 1_555 1_555
O2A Nd1 1_555 1_555
O3A C6A 1_555 1_555
O3A_2 Nd1A 1_555 1_555
O4A Nd1 1_555 1_555
O4_2 Nd1A 1_555 1_555
O5A C7A 1_555 1_555
O5A_2 Nd1A 1_555 1_555
O6A Nd1 1_555 1_555
O6_2 Nd1A 1_555 1_555
O7A Nd1A 1_555 1_555
O8A Nd1A 1_555 1_555
C4 N2 1_555 1_555
C5 N1 1_555 1_555
Nd1 O2 1_555 1_555
O2 Nd1A 1_555 1_555
C1A O1A 1_555 1_555
C1A O2A 1_555 1_555
C4A N2A 1_555 1_555
C5A N1A 1_555 1_555
C6A O4A 1_555 1_555
C7A O6A 1_555 1_555
N1A Nd1A 1_555 1_555
Nd1A O2A 1_555 1_555
Nd1A_2 O3A 1_555 1_555
Nd1A_3 O5A 1_555 1_555

#END
