
#######################################################################
#
#                 Cambridge Crystallographic Data Centre
#                                CCDC 
#
#######################################################################
#
# If this CIF has been generated from an entry in the Cambridge 
# Structural Database, then it will include bibliographic, chemical, 
# crystal, experimental, refinement or atomic coordinate data resulting 
# from the CCDC's data processing and validation procedures.
#
#######################################################################

data_HUCGAO
_symmetry_cell_setting           orthorhombic
_symmetry_space_group_name_H-M   'P n m a'
_symmetry_Int_Tables_number      62
_space_group_name_Hall           '-P 2ac 2n'
loop_
_symmetry_equiv_pos_site_id
_symmetry_equiv_pos_as_xyz
1 x,y,z
2 1/2-x,-y,1/2+z
3 -x,1/2+y,-z
4 1/2+x,1/2-y,1/2-z
5 -x,-y,-z
6 1/2+x,y,1/2-z
7 x,1/2-y,z
8 1/2-x,1/2+y,1/2+z
_cell_length_a                   18.421(6)
_cell_length_b                   30.906(11)
_cell_length_c                   11.346(4)
_cell_angle_alpha                90
_cell_angle_beta                 90
_cell_angle_gamma                90
_cell_volume                     6459.5
loop_
_atom_site_label
_atom_site_type_symbol
_atom_site_fract_x
_atom_site_fract_y
_atom_site_fract_z
Zn1 Zn 0.748174(18) 0.574369(10) 0.82017(3)
O1 O 0.65833(10) 0.56316(7) 0.90871(16)
O2 O 0.66892(11) 0.49777(6) 0.82720(15)
O3 O 0.84206(11) 0.54729(7) 0.85243(16)
O4 O 0.80801(10) 0.52970(7) 1.03599(16)
O5 O 0.75628(10) 0.63783(6) 0.79740(15)
O6 O 0.78004(10) 0.63646(6) 0.98921(16)
N1 N 0.73121(13) 0.55959(8) 0.6450(2)
H1 H 0.7200 0.5310 0.6400
C1 C 0.63617(15) 0.52421(10) 0.8892(2)
C2 C 0.56500(15) 0.51227(9) 0.9466(2)
C3 C 0.52584(15) 0.54188(9) 1.0140(2)
H2 H 0.5431 0.5699 1.0241
C4 C 0.53859(14) 0.47065(9) 0.9343(2)
H3 H 0.5648 0.4507 0.8902
C5 C 0.85371(15) 0.53206(9) 0.9570(2)
C6 C 0.92994(15) 0.51533(9) 0.9779(2)
C7 C 0.97830(16) 0.50915(9) 0.8842(2)
H4 H 0.9637 0.5152 0.8076
C8 C 0.95059(16) 0.50634(9) 1.0942(2)
H5 H 0.9182 0.5105 1.1561
C9 C 0.76932(16) 0.65657(10) 0.8979(3)
C10 C 0.76968(16) 0.70493(10) 0.8943(3)
C11 C 0.77888(16) 0.72718(9) 0.9980(2)
H6 H 0.7851 0.7121 1.0683
C12 C 0.75900(15) 0.72744(10) 0.7922(3)
H7 H 0.7517 0.7125 0.7220
C13 C 0.79857(15) 0.56728(10) 0.5745(2)
H8 H 0.7985 0.5488 0.5065
H9 H 0.8404 0.5610 0.6220
H10 H 0.8001 0.5970 0.5497
C14 C 0.66929(16) 0.58483(10) 0.5948(3)
H11 H 0.6832 0.6146 0.5867
H12 H 0.6282 0.5828 0.6466
H13 H 0.6566 0.5733 0.5190
Zn1D Zn 0.251826(18) 0.425631(10) 1.17983(3)
Zn1D_2 Zn 1.251826(18) 0.425631(10) 1.17983(3)
Zn1F Zn 0.748174(18) 0.925631(10) 0.82017(3)
O1D O 0.34167(10) 0.43684(7) 1.09129(16)
O2D O 0.33108(11) 0.50223(6) 1.17280(15)
O3D O 1.15794(11) 0.45271(7) 1.14757(16)
O3D_2 O 0.15794(11) 0.45271(7) 1.14757(16)
O4D O 1.19199(10) 0.47030(7) 0.96401(16)
O5F O 0.75628(10) 0.86217(6) 0.79740(15)
O5D O 0.24372(10) 0.36217(6) 1.20260(15)
O6F O 0.78004(10) 0.86354(6) 0.98921(16)
N1D N 0.26879(13) 0.44041(8) 1.3550(2)
H1D H 0.2800 0.4690 1.3600
C1D C 0.36383(15) 0.47579(10) 1.1108(2)
C2D C 0.43500(15) 0.48773(9) 1.0534(2)
C3D C 0.47416(15) 0.45812(9) 0.9860(2)
H2D H 0.4569 0.4301 0.9759
C4D C 0.46141(14) 0.52935(9) 1.0657(2)
H3D H 0.4352 0.5493 1.1098
C5D C 1.14629(15) 0.46794(9) 1.0430(2)
C6D C 1.07006(15) 0.48467(9) 1.0221(2)
C7D C 1.02170(16) 0.49085(9) 1.1158(2)
H4D H 1.0363 0.4848 1.1924
C8D C 1.04941(16) 0.49366(9) 0.9058(2)
H5D H 1.0818 0.4895 0.8439
C9F C 0.76932(16) 0.84343(10) 0.8979(3)
C10F C 0.76968(16) 0.79507(10) 0.8943(3)
C11F C 0.77888(16) 0.77282(9) 0.9980(2)
H6F H 0.7851 0.7879 1.0683
C12F C 0.75900(15) 0.77256(10) 0.7922(3)
H7F H 0.7517 0.7875 0.7220
C13D C 0.20143(15) 0.43272(10) 1.4255(2)
H8D H 0.2015 0.4512 1.4935
H9D H 0.1596 0.4390 1.3780
H10D H 0.1999 0.4030 1.4503
C14D C 0.33071(16) 0.41517(10) 1.4052(3)
H11D H 0.3168 0.3854 1.4133
H12D H 0.3718 0.4172 1.3534
H13D H 0.3434 0.4267 1.4810
N2 N 0.71822(14) 0.58391(7) 0.1646(2)
H14 H 0.7433 0.5721 0.1039
H15 H 0.6898 0.6051 0.1400
C15 C 0.76977(15) 0.60535(9) 0.2428(3)
H16 H 0.7630 0.5950 0.3219
H17 H 0.7618 0.6360 0.2405
H18 H 0.8184 0.5991 0.2175
C16 C 0.67670(15) 0.54833(9) 0.2260(3)
H19 H 0.7052 0.5371 0.2899
H20 H 0.6666 0.5255 0.1709
H21 H 0.6319 0.5597 0.2561
N3 N 0.99518(13) 0.65769(8) 0.7182(2)
O7 O 0.94026(11) 0.70680(7) 0.62427(17)
C17 C 1.07238(16) 0.66164(10) 0.6734(3)
H22 H 1.0783 0.6889 0.6338
H23 H 1.0823 0.6385 0.6194
H24 H 1.1055 0.6601 0.7387
C18 C 0.97423(16) 0.61309(10) 0.7612(3)
H25 H 0.9970 0.6076 0.8359
H26 H 0.9899 0.5918 0.7051
H27 H 0.9225 0.6115 0.7700
C19 C 0.94719(16) 0.69498(10) 0.7315(3)
H28 H 0.9272 0.7069 0.7995
O8 O 0.9438(3) 0.67157(17) -0.0031(4)
H29 H 0.9746 0.6689 -0.0584
H30 H 0.9637 0.6652 0.0622
O9 O 0.8541(3) 0.71662(18) 0.2652(5)
H31 H 0.8835 0.7354 0.2384
H32 H 0.8109 0.7258 0.2577
O11 O 0.9212(4) 0.6362(2) 0.3470(6)
H35 H 0.9660 0.6296 0.3475
H36 H 0.9033 0.6426 0.2802
O12 O 0.5802(4) 0.6679(2) 0.4913(6)
H37 H 0.5468 0.6616 0.4425
H38 H 0.5761 0.6937 0.5166
O13 O 0.6421(4) 0.7102(2) 0.3095(6)
H39 H 0.6165 0.7006 0.2528
H40 H 0.6247 0.7342 0.3331
O15 O 0.5532(4) 0.6179(2) 0.2001(6)
H43 H 0.5213 0.6289 0.2452
H44 H 0.5933 0.6311 0.2089
O16 O 0.7248(3) 0.67473(17) 0.5303(5)
H45 H 0.6995 0.6740 0.4677
H46 H 0.7597 0.6925 0.5220
O10? O 0.8853(4) 0.6581(2) 0.4696(6)
H33? H 0.9200 0.6760 0.4780
H34? H 0.8986 0.6333 0.4938
O14? O 0.5498(4) 0.7708(2) 0.2396(6)
H41? H 0.5208 0.7614 0.1873
H42? H 0.5316 0.7931 0.2722
loop_
_geom_bond_atom_site_label_1
_geom_bond_atom_site_label_2
_geom_bond_site_symmetry_1
_geom_bond_site_symmetry_2
Zn1 O1 1_555 1_555
O1 C1 1_555 1_555
O2 C1 1_555 1_555
O3 Zn1 1_555 1_555
O4 C5 1_555 1_555
O5 Zn1 1_555 1_555
O6 C9 1_555 1_555
N1 Zn1 1_555 1_555
H1 N1 1_555 1_555
C1 C2 1_555 1_555
C2 C3 1_555 1_555
C3 H2 1_555 1_555
C4 C2 1_555 1_555
H3 C4 1_555 1_555
C5 O3 1_555 1_555
C6 C5 1_555 1_555
C7 C6 1_555 1_555
H4 C7 1_555 1_555
C8 C6 1_555 1_555
H5 C8 1_555 1_555
C9 O5 1_555 1_555
C10 C9 1_555 1_555
C11 C10 1_555 1_555
H6 C11 1_555 1_555
C12 C10 1_555 1_555
H7 C12 1_555 1_555
C13 N1 1_555 1_555
H8 C13 1_555 1_555
H9 C13 1_555 1_555
H10 C13 1_555 1_555
C14 N1 1_555 1_555
H11 C14 1_555 1_555
H12 C14 1_555 1_555
H13 C14 1_555 1_555
N2 H14 1_555 1_555
H15 N2 1_555 1_555
C15 N2 1_555 1_555
H16 C15 1_555 1_555
H17 C15 1_555 1_555
H18 C15 1_555 1_555
C16 N2 1_555 1_555
H19 C16 1_555 1_555
H20 C16 1_555 1_555
H21 C16 1_555 1_555
N3 C17 1_555 1_555
O7 C19 1_555 1_555
C17 H22 1_555 1_555
H23 C17 1_555 1_555
H24 C17 1_555 1_555
C18 N3 1_555 1_555
H25 C18 1_555 1_555
H26 C18 1_555 1_555
H27 C18 1_555 1_555
C19 N3 1_555 1_555
H28 C19 1_555 1_555
O8 H29 1_555 1_555
H30 O8 1_555 1_555
O9 H31 1_555 1_555
H32 O9 1_555 1_555
O11 H35 1_555 1_555
H36 O11 1_555 1_555
O12 H37 1_555 1_555
H38 O12 1_555 1_555
O13 H39 1_555 1_555
H40 O13 1_555 1_555
O15 H43 1_555 1_555
H44 O15 1_555 1_555
O16 H45 1_555 1_555
H46 O16 1_555 1_555
Zn1D O1D 1_555 1_555
Zn1D_2 O3D 1_555 1_555
Zn1F O5F 1_555 1_555
O1D C1D 1_555 1_555
O2D C1D 1_555 1_555
O3D C5D 1_555 1_555
O3D_2 Zn1D 1_555 1_555
O4D C5D 1_555 1_555
O5F C9F 1_555 1_555
O5D Zn1D 1_555 1_555
O6F C9F 1_555 1_555
N1D Zn1D 1_555 1_555
H1D N1D 1_555 1_555
C1D C2D 1_555 1_555
C2D C3D 1_555 1_555
C3D C4 1_555 1_555
H2D C3D 1_555 1_555
C4D C3 1_555 1_555
H3D C4D 1_555 1_555
C5D C6D 1_555 1_555
C6D C7D 1_555 1_555
C7D C8 1_555 1_555
H4D C7D 1_555 1_555
C8D C7 1_555 1_555
H5D C8D 1_555 1_555
C9F C10F 1_555 1_555
C10F C11F 1_555 1_555
C11F C11 1_555 1_555
H6F C11F 1_555 1_555
C12F C12 1_555 1_555
H7F C12F 1_555 1_555
C13D N1D 1_555 1_555
H8D C13D 1_555 1_555
H9D C13D 1_555 1_555
H10D C13D 1_555 1_555
C14D N1D 1_555 1_555
H11D C14D 1_555 1_555
H12D C14D 1_555 1_555
H13D C14D 1_555 1_555
C2D C4D 1_555 1_555
C6D C8D 1_555 1_555
C10F C12F 1_555 1_555

#END
