
#######################################################################
#
#                 Cambridge Crystallographic Data Centre
#                                CCDC 
#
#######################################################################
#
# If this CIF has been generated from an entry in the Cambridge 
# Structural Database, then it will include bibliographic, chemical, 
# crystal, experimental, refinement or atomic coordinate data resulting 
# from the CCDC's data processing and validation procedures.
#
#######################################################################

data_HUCGAP
_symmetry_cell_setting           monoclinic
_symmetry_space_group_name_H-M   'C 2/c'
_symmetry_Int_Tables_number      15
_space_group_name_Hall           '-C 2yn'
loop_
_symmetry_equiv_pos_site_id
_symmetry_equiv_pos_as_xyz
1 x,y,z
2 -x,y,1/2-z
3 1/2+x,1/2+y,z
4 1/2-x,1/2+y,1/2-z
5 -x,-y,-z
6 x,-y,1/2+z
7 1/2-x,1/2-y,-z
8 1/2+x,1/2-y,1/2+z
_cell_length_a                   58.419(6)
_cell_length_b                   20.302(2)
_cell_length_c                   7.4801(8)
_cell_angle_alpha                90
_cell_angle_beta                 91.105(3)
_cell_angle_gamma                90
_cell_volume                     8869.92
loop_
_atom_site_label
_atom_site_type_symbol
_atom_site_fract_x
_atom_site_fract_y
_atom_site_fract_z
Mn1 Mn 0.124316(15) 0.90755(5) -0.31276(11)
Mn2 Mn 0.144310(16) 0.75971(5) -0.39217(12)
Mn3 Mn 0.176091(15) 0.86614(5) -0.17242(11)
O1 O 0.14817(6) 0.8439(2) -0.2853(5)
O2 O 0.11253(7) 0.7775(2) -0.4547(5)
O3 O 0.19068(7) 0.7869(3) -0.2540(5)
O4 O 0.14574(7) 0.9786(2) -0.2705(5)
O5 O 0.09878(6) 0.9660(2) -0.3325(5)
O6 O 0.14124(7) 0.6791(3) -0.5115(6)
O7 O 0.20549(7) 0.8917(3) -0.0929(6)
O8 O 0.05805(9) 1.1190(3) -0.1860(7)
O9 O 0.10991(10) 0.5174(4) -0.7026(9)
O10 O 0.26749(9) 0.8855(4) 0.1425(7)
O11 O 0.16493(7) 0.8463(2) 0.0862(5)
O12 O 0.15700(8) 0.8096(3) 0.3556(5)
O13 O 0.12868(7) 0.9121(2) -0.6056(5)
H1 H 0.1173 0.9215 -0.6737
H2 H 0.1417 0.9048 -0.6500
O14 O 0.11680(8) 0.9038(3) -0.0192(5)
H3 H 0.1033 0.9117 0.0158
H4 H 0.1274 0.8948 0.0567
O15 O 0.13292(9) 0.7122(3) -0.1337(6)
H5 H 0.1428 0.6956 -0.0621
H6 H 0.1188 0.7113 -0.1082
N1 N 0.10379(8) 0.8321(3) -0.3674(6)
N2 N 0.17670(9) 0.7366(3) -0.3210(6)
N3 N 0.16721(8) 0.9635(3) -0.1949(6)
C1 C 0.08200(11) 0.8294(4) -0.3317(8)
H7 H 0.0738 0.7897 -0.3547
C2 C 0.06970(10) 0.8862(4) -0.2566(8)
C3 C 0.04821(11) 0.8744(4) -0.1820(9)
H8 H 0.0426 0.8305 -0.1787
C4 C 0.03469(11) 0.9247(5) -0.1125(9)
C5 C 0.01190(12) 0.9075(6) -0.0201(12)
H9 H 0.0047 0.9480 0.0224
H10 H 0.0150 0.8782 0.0815
H11 H 0.0016 0.8854 -0.1059
C6 C 0.04256(11) 0.9878(5) -0.1277(9)
H12 H 0.0333 1.0227 -0.0854
C7 C 0.06377(11) 1.0037(4) -0.2032(8)
C8 C 0.07085(13) 1.0726(4) -0.2166(9)
H13 H 0.0861 1.0818 -0.2507
C9 C 0.07833(10) 0.9519(4) -0.2629(8)
C10 C 0.18598(11) 0.6790(4) -0.3272(7)
H14 H 0.2014 0.6744 -0.2854
C11 C 0.17417(11) 0.6204(4) -0.3948(8)
C12 C 0.18538(13) 0.5591(4) -0.3767(8)
H15 H 0.2004 0.5582 -0.3250
C13 C 0.17550(13) 0.4999(4) -0.4313(8)
C14 C 0.18739(15) 0.4340(4) -0.3998(10)
H16 H 0.2021 0.4413 -0.3372
H17 H 0.1901 0.4126 -0.5149
H18 H 0.1777 0.4058 -0.3269
C15 C 0.15432(13) 0.5040(4) -0.5182(9)
H19 H 0.1473 0.4645 -0.5599
C16 C 0.14282(11) 0.5638(4) -0.5473(9)
C17 C 0.12077(14) 0.5661(5) -0.6440(11)
H20 H 0.1142 0.6083 -0.6638
C18 C 0.15237(11) 0.6236(4) -0.4843(8)
C19 C 0.18032(11) 1.0140(4) -0.1631(7)
H21 H 0.1744 1.0564 -0.1916
C20 C 0.20329(10) 1.0107(4) -0.0874(8)
C21 C 0.21457(12) 1.0696(4) -0.0415(8)
H22 H 0.2067 1.1099 -0.0619
C22 C 0.23650(12) 1.0720(5) 0.0318(9)
C23 C 0.24778(13) 1.1385(5) 0.0783(10)
H23 H 0.2631 1.1308 0.1293
H24 H 0.2385 1.1618 0.1656
H25 H 0.2489 1.1651 -0.0303
C24 C 0.24742(11) 1.0132(5) 0.0667(8)
H26 H 0.2624 1.0137 0.1178
C25 C 0.23688(11) 0.9521(4) 0.0286(8)
C26 C 0.24821(12) 0.8900(5) 0.0731(9)
H27 H 0.2402 0.8503 0.0470
C27 C 0.21444(10) 0.9499(4) -0.0519(7)
C28 C 0.16772(11) 0.8040(4) 0.2112(9)
C29 C 0.18414(14) 0.7487(5) 0.1877(10)
H28 H 0.1909 0.7517 0.0691
H29 H 0.1760 0.7067 0.1987
H30 H 0.1963 0.7514 0.2797
Mn2_2 Mn 0.144310(16) 0.75971(5) 0.60783(12)
O12_2 O 0.15700(8) 0.8096(3) -0.6444(5)
loop_
_geom_bond_atom_site_label_1
_geom_bond_atom_site_label_2
_geom_bond_site_symmetry_1
_geom_bond_site_symmetry_2
Mn1 O1 1_555 1_555
Mn2 O1 1_555 1_555
Mn3 O1 1_555 1_555
O2 Mn2 1_555 1_555
O3 Mn3 1_555 1_555
O4 Mn1 1_555 1_555
O5 Mn1 1_555 1_555
O6 Mn2 1_555 1_555
O7 Mn3 1_555 1_555
O8 C8 1_555 1_555
O9 C17 1_555 1_555
O10 C26 1_555 1_555
O11 Mn3 1_555 1_555
O12 C28 1_555 1_555
O13 Mn1 1_555 1_555
H1 O13 1_555 1_555
H2 O13 1_555 1_555
O14 Mn1 1_555 1_555
H3 O14 1_555 1_555
H4 O14 1_555 1_555
O15 Mn2 1_555 1_555
H5 O15 1_555 1_555
H6 O15 1_555 1_555
N1 Mn1 1_555 1_555
N2 Mn2 1_555 1_555
N3 Mn3 1_555 1_555
C1 N1 1_555 1_555
H7 C1 1_555 1_555
C2 C1 1_555 1_555
C3 C2 1_555 1_555
H8 C3 1_555 1_555
C4 C3 1_555 1_555
C5 C4 1_555 1_555
H9 C5 1_555 1_555
H10 C5 1_555 1_555
H11 C5 1_555 1_555
C6 C4 1_555 1_555
H12 C6 1_555 1_555
C7 C6 1_555 1_555
C8 C7 1_555 1_555
H13 C8 1_555 1_555
C9 O5 1_555 1_555
C10 N2 1_555 1_555
H14 C10 1_555 1_555
C11 C10 1_555 1_555
C12 C11 1_555 1_555
H15 C12 1_555 1_555
C13 C12 1_555 1_555
C14 C13 1_555 1_555
H16 C14 1_555 1_555
H17 C14 1_555 1_555
H18 C14 1_555 1_555
C15 C13 1_555 1_555
H19 C15 1_555 1_555
C16 C15 1_555 1_555
C17 C16 1_555 1_555
H20 C17 1_555 1_555
C18 O6 1_555 1_555
C19 N3 1_555 1_555
H21 C19 1_555 1_555
C20 C19 1_555 1_555
C21 C20 1_555 1_555
H22 C21 1_555 1_555
C22 C21 1_555 1_555
C23 C22 1_555 1_555
H23 C23 1_555 1_555
H24 C23 1_555 1_555
H25 C23 1_555 1_555
C24 C22 1_555 1_555
H26 C24 1_555 1_555
C25 C24 1_555 1_555
C26 C25 1_555 1_555
H27 C26 1_555 1_555
C27 O7 1_555 1_555
C28 O11 1_555 1_555
C29 C28 1_555 1_555
H28 C29 1_555 1_555
H29 C29 1_555 1_555
H30 C29 1_555 1_555
Mn2_2 O12 1_555 1_555
O12_2 Mn2 1_555 1_555
O2 N1 1_555 1_555
O3 N2 1_555 1_555
O4 N3 1_555 1_555
C2 C9 1_555 1_555
C7 C9 1_555 1_555
C11 C18 1_555 1_555
C16 C18 1_555 1_555
C20 C27 1_555 1_555
C25 C27 1_555 1_555

#END
