
#######################################################################
#
#                 Cambridge Crystallographic Data Centre
#                                CCDC 
#
#######################################################################
#
# If this CIF has been generated from an entry in the Cambridge 
# Structural Database, then it will include bibliographic, chemical, 
# crystal, experimental, refinement or atomic coordinate data resulting 
# from the CCDC's data processing and validation procedures.
#
#######################################################################

data_HUCHIX
_symmetry_cell_setting           monoclinic
_symmetry_space_group_name_H-M   'C 2/c'
_symmetry_Int_Tables_number      15
_space_group_name_Hall           '-C 2yn'
loop_
_symmetry_equiv_pos_site_id
_symmetry_equiv_pos_as_xyz
1 x,y,z
2 -x,y,1/2-z
3 1/2+x,1/2+y,z
4 1/2-x,1/2+y,1/2-z
5 -x,-y,-z
6 x,-y,1/2+z
7 1/2-x,1/2-y,-z
8 1/2+x,1/2-y,1/2+z
_cell_length_a                   25.2976(8)
_cell_length_b                   5.3702(2)
_cell_length_c                   21.3122(7)
_cell_angle_alpha                90
_cell_angle_beta                 115.865(2)
_cell_angle_gamma                90
_cell_volume                     2605.29
loop_
_atom_site_label
_atom_site_type_symbol
_atom_site_fract_x
_atom_site_fract_y
_atom_site_fract_z
Cu1 Cu 0.0000 0.0000 0.0000
O1 O 0.07835(8) -0.1413(4) 0.04676(10)
O2 O 0.11395(9) 0.1584(4) 0.00388(11)
O3 O 0.31946(10) 0.1103(5) 0.04659(13)
H1 H 0.3473(12) 0.154(7) 0.0365(19)
O4 O 0.37815(10) -0.2063(5) 0.10363(13)
O5 O 0.30010(10) -0.7828(4) 0.22279(12)
O6 O 0.20769(10) -0.7829(4) 0.19827(11)
N1 N 0.01902(10) 0.2420(5) 0.07966(12)
N2 N 0.25020(11) -0.6974(5) 0.19249(12)
C1 C 0.17873(12) -0.1639(6) 0.07286(14)
C2 C 0.22615(12) -0.0740(6) 0.06286(14)
H2 H 0.2213 0.0694 0.0348
C3 C 0.28055(12) -0.1922(6) 0.09360(14)
C4 C 0.28838(12) -0.3992(6) 0.13549(14)
H3 H 0.3252 -0.4823 0.1562
C5 C 0.24125(13) -0.4817(5) 0.14633(14)
C6 C 0.18627(12) -0.3712(6) 0.11546(14)
H4 H 0.1545 -0.4349 0.1231
C7 C 0.11985(12) -0.0359(6) 0.03800(14)
C8 C 0.33175(12) -0.0985(6) 0.08267(15)
C9 C 0.06442(14) 0.2091(7) 0.14297(17)
H5 H 0.0897 0.0709 0.1492
C10 C 0.07641(14) 0.3641(7) 0.19921(16)
H6 H 0.1088 0.3305 0.2428
C11 C 0.04037(13) 0.5719(6) 0.19170(16)
C12 C -0.00464(13) 0.6150(6) 0.12500(16)
H7 H -0.0290 0.7579 0.1164
C13 C -0.01359(13) 0.4504(6) 0.07206(16)
H8 H -0.0445 0.4844 0.0274
C14 C 0.05196(14) 0.7391(7) 0.25328(16)
H9 H 0.0841 0.8549 0.2586
H10 H 0.0662 0.6344 0.2957
C15 C 0.0000 0.8934(9) 0.2500
H11 H -0.0137 1.0023 0.2084
Cu1A Cu 0.0000 0.0000 0.5000
O1D O -0.07835(8) 0.1413(4) -0.04676(10)
O2D O -0.11395(9) -0.1584(4) -0.00388(11)
O3D O -0.31946(10) -0.1103(5) -0.04659(13)
H1D H -0.3473(12) -0.154(7) -0.0365(19)
O4D O -0.37815(10) 0.2063(5) -0.10363(13)
O5D O -0.30010(10) 0.7828(4) -0.22279(12)
O6D O -0.20769(10) 0.7829(4) -0.19827(11)
N1A N -0.01902(10) 0.2420(5) 0.42034(12)
N1D N -0.01902(10) -0.2420(5) -0.07966(12)
N2D N -0.25020(11) 0.6974(5) -0.19249(12)
C1D C -0.17873(12) 0.1639(6) -0.07286(14)
C2D C -0.22615(12) 0.0740(6) -0.06286(14)
H2D H -0.2213 -0.0694 -0.0348
C3D C -0.28055(12) 0.1922(6) -0.09360(14)
C4D C -0.28838(12) 0.3992(6) -0.13549(14)
H3D H -0.3252 0.4823 -0.1562
C5D C -0.24125(13) 0.4817(5) -0.14633(14)
C6D C -0.18627(12) 0.3712(6) -0.11546(14)
H4D H -0.1545 0.4349 -0.1231
C7D C -0.11985(12) 0.0359(6) -0.03800(14)
C8D C -0.33175(12) 0.0985(6) -0.08267(15)
C9A C -0.06442(14) 0.2091(7) 0.35703(17)
H5A H -0.0897 0.0709 0.3508
C10A C -0.07641(14) 0.3641(7) 0.30079(16)
H6A H -0.1088 0.3305 0.2572
C11A C -0.04037(13) 0.5719(6) 0.30830(16)
C12A C 0.00464(13) 0.6150(6) 0.37500(16)
H7A H 0.0290 0.7579 0.3836
C13A C 0.01359(13) 0.4504(6) 0.42794(16)
H8A H 0.0445 0.4844 0.4726
C14A C -0.05196(14) 0.7391(7) 0.24672(16)
H9A H -0.0841 0.8549 0.2414
H10A H -0.0662 0.6344 0.2043
H11A H 0.0137 1.0023 0.2916
loop_
_geom_bond_atom_site_label_1
_geom_bond_atom_site_label_2
_geom_bond_site_symmetry_1
_geom_bond_site_symmetry_2
Cu1 O1 1_555 1_555
O1 C7 1_555 1_555
O2 C7 1_555 1_555
O3 H1 1_555 1_555
O4 C8 1_555 1_555
O5 N2 1_555 1_555
O6 N2 1_555 1_555
N1 Cu1 1_555 1_555
N2 C5 1_555 1_555
C1 C2 1_555 1_555
C2 H2 1_555 1_555
C3 C2 1_555 1_555
C4 C3 1_555 1_555
H3 C4 1_555 1_555
C5 C4 1_555 1_555
C6 C1 1_555 1_555
H4 C6 1_555 1_555
C7 C1 1_555 1_555
C8 O3 1_555 1_555
C9 N1 1_555 1_555
H5 C9 1_555 1_555
C10 C9 1_555 1_555
H6 C10 1_555 1_555
C11 C10 1_555 1_555
C12 C11 1_555 1_555
H7 C12 1_555 1_555
C13 N1 1_555 1_555
H8 C13 1_555 1_555
C14 C11 1_555 1_555
H9 C14 1_555 1_555
H10 C14 1_555 1_555
C15 C14 1_555 1_555
H11 C15 1_555 1_555
Cu1A N1A 1_555 1_555
O1D Cu1 1_555 1_555
O2D C7D 1_555 1_555
O3D H1D 1_555 1_555
O4D C8D 1_555 1_555
O5D N2D 1_555 1_555
O6D N2D 1_555 1_555
N1A C9A 1_555 1_555
N1D Cu1 1_555 1_555
N2D C5D 1_555 1_555
C1D C2D 1_555 1_555
C2D H2D 1_555 1_555
C3D C2D 1_555 1_555
C4D C3D 1_555 1_555
H3D C4D 1_555 1_555
C5D C4D 1_555 1_555
C6D C1D 1_555 1_555
H4D C6D 1_555 1_555
C7D O1D 1_555 1_555
C8D O3D 1_555 1_555
C9A H5A 1_555 1_555
C10A C9A 1_555 1_555
H6A C10A 1_555 1_555
C11A C10A 1_555 1_555
C12A C11A 1_555 1_555
H7A C12A 1_555 1_555
C13A N1A 1_555 1_555
H8A C13A 1_555 1_555
C14A C15 1_555 1_555
H9A C14A 1_555 1_555
H10A C14A 1_555 1_555
H11A C15 1_555 1_555
C3 C8 1_555 1_555
C5 C6 1_555 1_555
C12 C13 1_555 1_555
C1D C7D 1_555 1_555
C3D C8D 1_555 1_555
C5D C6D 1_555 1_555
C11A C14A 1_555 1_555
C12A C13A 1_555 1_555

#END
