
#######################################################################
#
#                 Cambridge Crystallographic Data Centre
#                                CCDC 
#
#######################################################################
#
# If this CIF has been generated from an entry in the Cambridge 
# Structural Database, then it will include bibliographic, chemical, 
# crystal, experimental, refinement or atomic coordinate data resulting 
# from the CCDC's data processing and validation procedures.
#
#######################################################################

data_HUCJIZ
_symmetry_cell_setting           monoclinic
_symmetry_space_group_name_H-M   'C 2/m'
_symmetry_Int_Tables_number      12
_space_group_name_Hall           '-C 2y'
loop_
_symmetry_equiv_pos_site_id
_symmetry_equiv_pos_as_xyz
1 x,y,z
2 -x,y,-z
3 1/2+x,1/2+y,z
4 1/2-x,1/2+y,-z
5 -x,-y,-z
6 x,-y,z
7 1/2-x,1/2-y,-z
8 1/2+x,1/2-y,z
_cell_length_a                   14.584(3)
_cell_length_b                   7.3948(15)
_cell_length_c                   11.380(2)
_cell_angle_alpha                90
_cell_angle_beta                 108.38(3)
_cell_angle_gamma                90
_cell_volume                     1164.68
loop_
_atom_site_label
_atom_site_type_symbol
_atom_site_fract_x
_atom_site_fract_y
_atom_site_fract_z
Zn1 Zn 0.5000 0.5000 0.5000
O1 O 0.60582(14) 0.7084(3) 0.54834(19)
H1 H 0.6631(16) 0.698(5) 0.596(2)
H2 H 0.605(2) 0.790(4) 0.498(3)
C1 C 0.5820(3) 0.5000 0.7822(4)
H3 H 0.6403 0.5000 0.7651
C2 C 0.5848(3) 0.5000 0.9042(4)
H4 H 0.6440 0.5000 0.9667
C3 C 0.4997(3) 0.5000 0.9346(3)
C4 C 0.4162(3) 0.5000 0.8359(3)
H5 H 0.3568 0.5000 0.8501
C5 C 0.4189(3) 0.5000 0.7155(3)
H6 H 0.3607 0.5000 0.6511
N1 N 0.5005(2) 0.5000 0.6874(3)
Zn1_2 Zn 0.5000 0.5000 1.5000
O1A O 0.39418(14) 0.7084(3) 0.45166(19)
O1D O 0.39418(14) 0.2916(3) 0.45166(19)
O1E O 0.60582(14) 0.2916(3) 0.54834(19)
H1A H 0.3369(16) 0.698(5) 0.404(2)
H1D H 0.3369(16) 0.302(5) 0.404(2)
H1E H 0.6631(16) 0.302(5) 0.596(2)
H2A H 0.395(2) 0.790(4) 0.502(3)
H2D H 0.395(2) 0.210(4) 0.502(3)
H2E H 0.605(2) 0.210(4) 0.498(3)
C1A C 0.4180(3) 0.5000 1.2178(4)
H3A H 0.3597 0.5000 1.2349
C2A C 0.4152(3) 0.5000 1.0958(4)
H4A H 0.3560 0.5000 1.0333
C3A C 0.5003(3) 0.5000 1.0654(3)
C4A C 0.5838(3) 0.5000 1.1641(3)
H5A H 0.6432 0.5000 1.1499
C5A C 0.5811(3) 0.5000 1.2845(3)
H6A H 0.6393 0.5000 1.3489
N1A N 0.4995(2) 0.5000 1.3126(3)
N1A_2 N 0.4995(2) 0.5000 0.3126(3)
S1 S 0.84039(6) 0.5000 0.70300(8)
O2 O 0.8672(2) 0.5000 0.5896(2)
O3 O 0.78840(14) 0.6629(3) 0.71577(18)
C6 C 0.8693(3) 0.5000 0.9887(4)
H7 H 0.8090 0.5000 0.9283
C7 C 0.9543(2) 0.5000 0.9528(3)
C8 C 0.9520(3) 0.5000 0.8266(3)
C9 C 1.0349(3) 0.5000 0.7957(4)
H8 H 1.0322 0.5000 0.7130
C10 C 1.1247(3) 0.5000 0.8898(5)
H9 H 1.1812 0.5000 0.8684
S1A S 1.15961(6) 0.5000 1.29700(8)
O2A O 1.1328(2) 0.5000 1.4104(2)
O3A O 1.21160(14) 0.6629(3) 1.28423(18)
O3D O 1.21160(14) 0.3371(3) 1.28423(18)
O3E O 0.78840(14) 0.3371(3) 0.71577(18)
C6A C 1.1307(3) 0.5000 1.0113(4)
H7A H 1.1910 0.5000 1.0717
C7A C 1.0457(2) 0.5000 1.0472(3)
C8A C 1.0480(3) 0.5000 1.1734(3)
C9A C 0.9651(3) 0.5000 1.2043(4)
H8A H 0.9678 0.5000 1.2870
C10A C 0.8753(3) 0.5000 1.1102(5)
H9A H 0.8188 0.5000 1.1316
loop_
_geom_bond_atom_site_label_1
_geom_bond_atom_site_label_2
_geom_bond_site_symmetry_1
_geom_bond_site_symmetry_2
Zn1 O1 1_555 1_555
S1 O2 1_555 1_555
O1 H1 1_555 1_555
H2 O1 1_555 1_555
O3 S1 1_555 1_555
C1 H3 1_555 1_555
C2 C1 1_555 1_555
H4 C2 1_555 1_555
C3 C2 1_555 1_555
C4 C3 1_555 1_555
H5 C4 1_555 1_555
C5 C4 1_555 1_555
H6 C5 1_555 1_555
C6 H7 1_555 1_555
C7 C6 1_555 1_555
C8 S1 1_555 1_555
C9 C8 1_555 1_555
H8 C9 1_555 1_555
C10 C9 1_555 1_555
H9 C10 1_555 1_555
N1 Zn1 1_555 1_555
Zn1_2 N1A 1_555 1_555
S1A O2A 1_555 1_555
O1A Zn1 1_555 1_555
O1D Zn1 1_555 1_555
O1E Zn1 1_555 1_555
H1A O1A 1_555 1_555
H1D O1D 1_555 1_555
H1E O1E 1_555 1_555
H2A O1A 1_555 1_555
H2D O1D 1_555 1_555
H2E O1E 1_555 1_555
O3A S1A 1_555 1_555
O3D S1A 1_555 1_555
O3E S1 1_555 1_555
C1A H3A 1_555 1_555
C2A C1A 1_555 1_555
H4A C2A 1_555 1_555
C3A C3 1_555 1_555
C4A C3A 1_555 1_555
H5A C4A 1_555 1_555
C5A C4A 1_555 1_555
H6A C5A 1_555 1_555
C6A C10 1_555 1_555
H7A C6A 1_555 1_555
C7A C7 1_555 1_555
C8A S1A 1_555 1_555
C9A C8A 1_555 1_555
H8A C9A 1_555 1_555
C10A C6 1_555 1_555
H9A C10A 1_555 1_555
N1A C1A 1_555 1_555
N1A_2 Zn1 1_555 1_555
C1 N1 1_555 1_555
C5 N1 1_555 1_555
C7 C8 1_555 1_555
C2A C3A 1_555 1_555
C5A N1A 1_555 1_555
C6A C7A 1_555 1_555
C7A C8A 1_555 1_555
C9A C10A 1_555 1_555

#END
