
#######################################################################
#
#                 Cambridge Crystallographic Data Centre
#                                CCDC 
#
#######################################################################
#
# If this CIF has been generated from an entry in the Cambridge 
# Structural Database, then it will include bibliographic, chemical, 
# crystal, experimental, refinement or atomic coordinate data resulting 
# from the CCDC's data processing and validation procedures.
#
#######################################################################

data_HUCJUM
_symmetry_cell_setting           monoclinic
_symmetry_space_group_name_H-M   'P 21/a'
_symmetry_Int_Tables_number      14
_space_group_name_Hall           '-P 2yab'
loop_
_symmetry_equiv_pos_site_id
_symmetry_equiv_pos_as_xyz
1 x,y,z
2 1/2-x,1/2+y,-z
3 -x,-y,-z
4 1/2+x,1/2-y,z
_cell_length_a                   9.0212(5)
_cell_length_b                   13.2138(9)
_cell_length_c                   30.273(2)
_cell_angle_alpha                90
_cell_angle_beta                 91.213(6)
_cell_angle_gamma                90
_cell_volume                     3607.86
loop_
_atom_site_label
_atom_site_type_symbol
_atom_site_fract_x
_atom_site_fract_y
_atom_site_fract_z
Co1 Co 0.78095(9) 0.46592(6) 0.25927(3)
O1 O 0.0071(4) 0.4516(3) 0.25144(15)
O2 O 0.5616(4) 0.4773(3) 0.27594(16)
O3 O 0.7756(5) 0.5709(4) 0.20665(17)
O4 O 0.3872(6) 0.2547(4) 0.05442(16)
O5 O 0.8064(5) 0.3470(4) 0.30788(16)
O6 O 0.5072(5) 0.3216(4) 0.30133(17)
O7 O 1.1290(6) 0.7439(4) 0.44803(18)
O8 O 0.0681(5) 0.5889(4) 0.2139(2)
N1 N 0.7120(5) 0.3593(4) 0.20770(17)
N2 N 0.8362(5) 0.5888(4) 0.30419(17)
N3 N 0.5540(6) 0.1351(4) 0.07497(17)
N4 N 0.9648(6) 0.8579(4) 0.42130(17)
O9 O 0.7972(7) 0.9697(4) 0.3933(2)
O10 O 0.7326(7) 0.0245(4) 0.0963(2)
C1 C 0.2595(6) 0.5009(5) 0.2518(2)
H1 H 0.3277 0.5459 0.2402
C2 C 0.9541(7) 0.7530(5) 0.3524(2)
C3 C 0.4702(6) 0.4091(5) 0.2867(2)
C4 C 0.5837(7) 0.2216(5) 0.1486(2)
C5 C 0.5427(7) 0.3213(5) 0.1481(2)
H2 H 0.4726 0.3443 0.1275
C6 C 0.6271(7) 0.1050(5) -0.0143(2)
C7 C 0.5205(7) 0.1792(5) -0.0033(2)
C8 C 1.0238(8) 0.8422(5) 0.3764(2)
H3 H 1.1301 0.8316 0.3788
H4 H 1.0068 0.9029 0.3591
C9 C 0.6682(7) 0.0656(5) 0.0655(2)
C10 C 0.9431(7) 0.5770(5) 0.3352(2)
H5 H 0.9794 0.5121 0.3405
C11 C 0.4808(7) 0.1939(5) 0.0432(2)
C12 C 0.8723(7) 0.9012(5) 0.5074(2)
C13 C 0.5048(8) 0.1426(6) 0.1209(2)
H6 H 0.5185 0.0773 0.1350
H7 H 0.3995 0.1575 0.1205
C14 C 0.6059(7) 0.3881(5) 0.1785(2)
H8 H 0.5738 0.4550 0.1786
C15 C 0.1003(7) 0.5144(5) 0.2388(2)
C16 C 0.3108(7) 0.4288(5) 0.2789(2)
H9 H 0.2427 0.3890 0.2936
C17 C 0.8519(7) 0.9299(5) 0.4259(2)
C18 C 0.8078(7) 0.9532(5) 0.4715(3)
C19 C 0.9791(8) 0.8253(5) 0.5009(2)
C20 C 0.6999(7) 0.0483(5) 0.0188(2)
C21 C 0.7582(7) 0.2641(5) 0.2066(2)
H10 H 0.8349 0.2442 0.2257
C22 C 1.0328(7) 0.8046(5) 0.4556(2)
C23 C 1.0015(8) 0.6558(5) 0.3595(2)
H11 H 1.0742 0.6430 0.3810
C24 C 0.6970(8) 0.1936(5) 0.1781(2)
H12 H 0.7312 0.1272 0.1786
C25 C 0.7870(7) 0.6827(6) 0.2980(2)
H13 H 0.7120 0.6931 0.2770
C26 C 0.8412(8) 0.7668(5) 0.3213(2)
H14 H 0.8021 0.8309 0.3160
C27 C 0.5839(10) 0.1498(8) -0.0913(3)
H15 H 0.6046 0.1414 -0.1210
C28 C 0.8030(8) -0.0230(6) 0.0066(3)
H16 H 0.8525 -0.0610 0.0281
C29 C 0.6594(8) 0.0898(6) -0.0598(3)
C30 C 0.7044(8) 1.0264(6) 0.4793(4)
H17 H 0.6630 1.0629 0.4559
C31 C 1.0443(11) 0.7746(7) 0.5360(3)
H18 H 1.1175 0.7265 0.5312
C32 C 0.4520(9) 0.2336(6) -0.0359(3)
H19 H 0.3823 0.2821 -0.0284
C33 C 0.8331(10) -0.0383(7) -0.0375(4)
H20 H 0.9020 -0.0874 -0.0450
C34 C 0.8293(9) 0.9217(7) 0.5516(3)
C35 C 0.4833(10) 0.2185(8) -0.0798(3)
H21 H 0.4341 0.2562 -0.1015
C36 C 0.7663(9) 0.0151(8) -0.0697(3)
H22 H 0.7904 0.0032 -0.0990
C37 C 0.7211(12) 0.9981(9) 0.5571(4)
H23 H 0.6914 1.0149 0.5854
C38 C 0.6609(11) 1.0466(9) 0.5224(5)
H24 H 0.5880 1.0950 0.5271
C39 C 0.8967(14) 0.8668(11) 0.5864(3)
H25 H 0.8692 0.8800 0.6153
C40 C 0.9997(14) 0.7960(10) 0.5791(3)
H26 H 1.0419 0.7608 0.6027
H27 H 0.885(8) 0.311(8) 0.309(4)
H28 H 0.714(3) 0.339(9) 0.310(4)
H29 H 0.869(3) 0.579(7) 0.210(3)
H30 H 0.711(4) 0.615(3) 0.1998(16)
Co1_2 Co -0.21905(9) 0.46592(6) 0.25927(3)
O1_2 O 1.0071(4) 0.4516(3) 0.25144(15)
O11 O 0.5568(8) 0.7049(5) 0.1985(3)
O12 O 0.6899(8) 0.3644(6) 0.8442(2)
loop_
_geom_bond_atom_site_label_1
_geom_bond_atom_site_label_2
_geom_bond_site_symmetry_1
_geom_bond_site_symmetry_2
Co1 O2 1_555 1_555
O1 C15 1_555 1_555
O2 C3 1_555 1_555
O3 Co1 1_555 1_555
O4 C11 1_555 1_555
O5 Co1 1_555 1_555
O6 C3 1_555 1_555
O7 C22 1_555 1_555
O8 C15 1_555 1_555
N1 Co1 1_555 1_555
N2 Co1 1_555 1_555
N3 C9 1_555 1_555
N4 C8 1_555 1_555
O9 C17 1_555 1_555
O10 C9 1_555 1_555
C1 H1 1_555 1_555
C2 C8 1_555 1_555
C3 C16 1_555 1_555
C4 C5 1_555 1_555
C5 H2 1_555 1_555
C6 C7 1_555 1_555
C7 C11 1_555 1_555
C8 H3 1_555 1_555
H4 C8 1_555 1_555
C9 C20 1_555 1_555
C10 N2 1_555 1_555
H5 C10 1_555 1_555
C11 N3 1_555 1_555
C12 C18 1_555 1_555
C13 N3 1_555 1_555
H6 C13 1_555 1_555
H7 C13 1_555 1_555
C14 N1 1_555 1_555
H8 C14 1_555 1_555
C15 C1 1_555 1_555
C16 C1 1_555 1_555
H9 C16 1_555 1_555
C17 N4 1_555 1_555
C18 C17 1_555 1_555
C19 C12 1_555 1_555
C20 C6 1_555 1_555
C21 N1 1_555 1_555
H10 C21 1_555 1_555
C22 N4 1_555 1_555
C23 C2 1_555 1_555
H11 C23 1_555 1_555
C24 C4 1_555 1_555
H12 C24 1_555 1_555
C25 N2 1_555 1_555
H13 C25 1_555 1_555
C26 C2 1_555 1_555
H14 C26 1_555 1_555
C27 H15 1_555 1_555
C28 C20 1_555 1_555
H16 C28 1_555 1_555
C29 C6 1_555 1_555
C30 C18 1_555 1_555
H17 C30 1_555 1_555
C31 C19 1_555 1_555
H18 C31 1_555 1_555
C32 C7 1_555 1_555
H19 C32 1_555 1_555
C33 C28 1_555 1_555
H20 C33 1_555 1_555
C34 C12 1_555 1_555
C35 C27 1_555 1_555
H21 C35 1_555 1_555
C36 C29 1_555 1_555
H22 C36 1_555 1_555
C37 C34 1_555 1_555
H23 C37 1_555 1_555
C38 C30 1_555 1_555
H24 C38 1_555 1_555
C39 C34 1_555 1_555
H25 C39 1_555 1_555
C40 C31 1_555 1_555
H26 C40 1_555 1_555
H27 O5 1_555 1_555
H28 O5 1_555 1_555
H29 O3 1_555 1_555
H30 O3 1_555 1_555
Co1_2 O1 1_555 1_555
O1_2 Co1 1_555 1_555
C4 C13 1_555 1_555
C5 C14 1_555 1_555
C10 C23 1_555 1_555
C19 C22 1_555 1_555
C21 C24 1_555 1_555
C25 C26 1_555 1_555
C27 C29 1_555 1_555
C32 C35 1_555 1_555
C33 C36 1_555 1_555
C37 C38 1_555 1_555
C39 C40 1_555 1_555

#END
