
#######################################################################
#
#                 Cambridge Crystallographic Data Centre
#                                CCDC 
#
#######################################################################
#
# If this CIF has been generated from an entry in the Cambridge 
# Structural Database, then it will include bibliographic, chemical, 
# crystal, experimental, refinement or atomic coordinate data resulting 
# from the CCDC's data processing and validation procedures.
#
#######################################################################

data_HUCKOG
_symmetry_cell_setting           triclinic
_symmetry_space_group_name_H-M   'P -1'
_symmetry_Int_Tables_number      2
_space_group_name_Hall           '-P 1'
loop_
_symmetry_equiv_pos_site_id
_symmetry_equiv_pos_as_xyz
1 x,y,z
2 -x,-y,-z
_cell_length_a                   6.610(2)
_cell_length_b                   7.689(3)
_cell_length_c                   8.018(3)
_cell_angle_alpha                101.589(5)
_cell_angle_beta                 101.843(4)
_cell_angle_gamma                101.492(5)
_cell_volume                     378.216
loop_
_atom_site_label
_atom_site_type_symbol
_atom_site_fract_x
_atom_site_fract_y
_atom_site_fract_z
Y1 Y 0.53610(4) 0.62226(3) 0.80635(3)
C1 C 0.1559(4) 0.3484(3) 0.7710(3)
C2 C -0.0273(4) 0.1915(4) 0.7540(4)
H1 H -0.0878 0.2200 0.8536
H2 H 0.0271 0.0844 0.7616
C3 C -0.2057(4) 0.1422(4) 0.5858(4)
H3 H -0.1424 0.1425 0.4868
H4 H -0.2900 0.0186 0.5697
C4 C -0.3519(4) 0.2691(4) 0.5834(3)
C5 C 0.3783(4) 0.9630(4) 0.9836(3)
O1 O 0.2979(3) 0.4094(2) 0.9192(2)
O2 O 0.1803(3) 0.4203(3) 0.6480(2)
O3 O -0.3798(4) 0.3458(3) 0.7273(3)
O4 O -0.4457(3) 0.2882(3) 0.4388(3)
O5 O 0.3011(3) 0.7981(2) 0.8991(3)
O6 O 0.2800(3) 1.0725(2) 1.0435(3)
O7 O 0.8645(3) 0.6937(3) 0.7236(3)
H5 H 0.8427 0.6564 0.6127
H6 H 0.9949 0.7307 0.7811
Y1A Y 0.46390(4) 0.37774(3) 1.19365(3)
Y1_2 Y -0.46390(4) 0.62226(3) 0.80635(3)
Y1A_2 Y -0.53610(4) 0.37774(3) 0.19365(3)
Y1A_3 Y 0.46390(4) 1.37774(3) 1.19365(3)
Y1A_4 Y 1.46390(4) 0.37774(3) 1.19365(3)
Y1_3 Y 1.53610(4) 0.62226(3) 1.80635(3)
C1A C 0.8441(4) 0.6516(3) 1.2290(3)
C2A C 1.0273(4) 0.8085(4) 1.2460(4)
H1A H 1.0878 0.7800 1.1464
H2A H 0.9729 0.9156 1.2384
C3A C 1.2057(4) 0.8578(4) 1.4142(4)
H3A H 1.1424 0.8575 1.5132
H4A H 1.2900 0.9814 1.4303
C4A C 1.3519(4) 0.7309(4) 1.4166(3)
C5A C 0.6217(4) 1.0370(4) 1.0164(3)
O1A O 0.7021(3) 0.5906(2) 1.0808(2)
O2A O 0.8197(3) 0.5797(3) 1.3520(2)
O3A O 1.3798(4) 0.6542(3) 1.2727(3)
O3_2 O 0.6202(4) 0.3458(3) 0.7273(3)
O3A_2 O 0.3798(4) 0.6542(3) 1.2727(3)
O4A O 1.4457(3) 0.7118(3) 1.5612(3)
O4A_2 O 0.4457(3) 0.7118(3) 0.5612(3)
O4_2 O 0.5543(3) 0.2882(3) 1.4388(3)
O5A O 0.6989(3) 1.2019(2) 1.1009(3)
O5A_2 O 0.6989(3) 0.2019(2) 1.1009(3)
O6A O 0.7200(3) 0.9275(2) 0.9565(3)
O6_2 O 0.2800(3) 0.0725(2) 1.0435(3)
O7A O 0.1355(3) 0.3063(3) 1.2764(3)
H5A H 0.1573 0.3436 1.3873
H6A H 0.0051 0.2693 1.2189
loop_
_geom_bond_atom_site_label_1
_geom_bond_atom_site_label_2
_geom_bond_site_symmetry_1
_geom_bond_site_symmetry_2
Y1 O1 1_555 1_555
C1 C2 1_555 1_555
C2 H1 1_555 1_555
H2 C2 1_555 1_555
C3 C2 1_555 1_555
H3 C3 1_555 1_555
H4 C3 1_555 1_555
C4 C3 1_555 1_555
C5 O5 1_555 1_555
O1 C1 1_555 1_555
O2 Y1 1_555 1_555
O3 C4 1_555 1_555
O4 C4 1_555 1_555
O5 Y1 1_555 1_555
O6 C5 1_555 1_555
O7 Y1 1_555 1_555
H5 O7 1_555 1_555
H6 O7 1_555 1_555
Y1A O1 1_555 1_555
Y1_2 O3 1_555 1_555
Y1A_2 O4 1_555 1_555
Y1A_3 O6 1_555 1_555
Y1A_4 O3A 1_555 1_555
Y1_3 O4A 1_555 1_555
C1A C2A 1_555 1_555
C2A H1A 1_555 1_555
H2A C2A 1_555 1_555
C3A C2A 1_555 1_555
H3A C3A 1_555 1_555
H4A C3A 1_555 1_555
C4A C3A 1_555 1_555
C5A C5 1_555 1_555
O1A Y1 1_555 1_555
O2A Y1A 1_555 1_555
O3A C4A 1_555 1_555
O3_2 Y1 1_555 1_555
O3A_2 Y1A 1_555 1_555
O4A C4A 1_555 1_555
O4A_2 Y1 1_555 1_555
O4_2 Y1A 1_555 1_555
O5A Y1A_3 1_555 1_555
O5A_2 Y1A 1_555 1_555
O6A Y1 1_555 1_555
O6_2 Y1A 1_555 1_555
O7A Y1A 1_555 1_555
H5A O7A 1_555 1_555
H6A O7A 1_555 1_555
C1 O2 1_555 1_555
Y1A O1A 1_555 1_555
C1A O1A 1_555 1_555
C1A O2A 1_555 1_555
C5A O5A 1_555 1_555
C5A O6A 1_555 1_555

#END
