
#######################################################################
#
#                 Cambridge Crystallographic Data Centre
#                                CCDC 
#
#######################################################################
#
# If this CIF has been generated from an entry in the Cambridge 
# Structural Database, then it will include bibliographic, chemical, 
# crystal, experimental, refinement or atomic coordinate data resulting 
# from the CCDC's data processing and validation procedures.
#
#######################################################################

data_HUCKAT
_symmetry_cell_setting           triclinic
_symmetry_space_group_name_H-M   'P -1'
_symmetry_Int_Tables_number      2
_space_group_name_Hall           '-P 1'
loop_
_symmetry_equiv_pos_site_id
_symmetry_equiv_pos_as_xyz
1 x,y,z
2 -x,-y,-z
_cell_length_a                   5.5869(4)
_cell_length_b                   12.0319(13)
_cell_length_c                   14.5280(15)
_cell_angle_alpha                107.552(9)
_cell_angle_beta                 100.654(7)
_cell_angle_gamma                97.990(7)
_cell_volume                     895.086
loop_
_atom_site_label
_atom_site_type_symbol
_atom_site_fract_x
_atom_site_fract_y
_atom_site_fract_z
Co1 Co 0.5000 0.5000 0.5000
O1 O 0.2433(6) 0.4292(3) -0.0481(3)
O2 O -0.1647(7) 0.0807(3) -0.0441(3)
O3 O 0.7505(4) 0.6386(2) 0.48539(18)
O4 O 0.5375(5) 0.7826(2) 0.5170(3)
O5 O 0.7510(5) 0.3854(2) 0.45945(19)
N1 N 0.3073(5) 0.4432(3) 0.3409(2)
N2 N 0.0511(6) 0.2543(3) -0.0414(2)
C1 C 0.3953(7) 0.3717(4) 0.2711(3)
H1 H 0.5416 0.3479 0.2915
C2 C 0.2837(7) 0.3308(4) 0.1705(3)
H2 H 0.3547 0.2812 0.1257
C3 C 0.0669(7) 0.3638(3) 0.1370(3)
C4 C -0.0249(7) 0.4388(4) 0.2084(3)
H3 H -0.1693 0.4649 0.1895
C5 C 0.0970(7) 0.4752(4) 0.3076(3)
H4 H 0.0293 0.5248 0.3538
C6 C -0.0764(8) 0.3216(4) 0.0293(3)
H5 H -0.2353 0.2718 0.0226
H6 H -0.1103 0.3904 0.0117
C7 C -0.0138(8) 0.1301(4) -0.0763(3)
C8 C 0.1096(8) 0.0662(4) -0.1508(3)
C9 C 0.0550(10) -0.0566(4) -0.1862(4)
H7 H -0.0631 -0.0985 -0.1647
C10 C 0.1782(11) -0.1183(5) -0.2548(4)
H8 H 0.1407 -0.2012 -0.2786
C11 C 0.3512(10) -0.0589(5) -0.2868(3)
H9 H 0.4324 -0.1016 -0.3316
C12 C 0.4093(8) 0.0664(4) -0.2533(3)
C13 C 0.2839(7) 0.1298(4) -0.1843(3)
C14 C 0.5833(9) 0.1325(5) -0.2859(3)
H10 H 0.6661 0.0926 -0.3314
C15 C 0.6322(9) 0.2533(5) -0.2520(4)
H11 H 0.7478 0.2951 -0.2746
C16 C 0.5111(8) 0.3160(5) -0.1834(3)
H12 H 0.5475 0.3989 -0.1602
C17 C 0.3389(7) 0.2552(4) -0.1505(3)
C18 C 0.2119(8) 0.3217(4) -0.0776(3)
C19 C 0.7191(6) 0.7440(3) 0.4931(3)
C20 C 0.9102(7) 0.8249(3) 0.4682(3)
H13 H 0.8811 0.8029 0.3965
H14 H 1.0748 0.8132 0.4932
C21 C 0.9026(7) 0.9593(4) 0.5131(3)
H15 H 0.7380 0.9711 0.4883
H16 H 0.9327 0.9815 0.5849
H17 H 0.901(4) 0.386(4) 0.479(3)
H18 H 0.667(8) 0.329(3) 0.470(4)
O3A O 1.2495(4) 1.3614(2) 0.51461(18)
O4A O 1.4625(5) 1.2174(2) 0.4830(3)
C19A C 1.2809(6) 1.2560(3) 0.5069(3)
C20A C 1.0898(7) 1.1751(3) 0.5318(3)
H13A H 1.1189 1.1971 0.6035
H14A H 0.9252 1.1868 0.5068
C21A C 1.0974(7) 1.0407(4) 0.4869(3)
H15A H 1.2620 1.0289 0.5117
H16A H 1.0673 1.0185 0.4151
O1A O 0.7567(6) 0.5708(3) 1.0481(3)
O2A O 1.1647(7) 0.9193(3) 1.0441(3)
O5A O 0.2490(5) 0.6146(2) 0.54055(19)
N1A N 0.6927(5) 0.5568(3) 0.6591(2)
N2A N 0.9489(6) 0.7457(3) 1.0414(2)
C1A C 0.6047(7) 0.6283(4) 0.7289(3)
H1A H 0.4584 0.6521 0.7085
C2A C 0.7163(7) 0.6692(4) 0.8295(3)
H2A H 0.6453 0.7188 0.8743
C3A C 0.9331(7) 0.6362(3) 0.8630(3)
C4A C 1.0249(7) 0.5612(4) 0.7916(3)
H3A H 1.1693 0.5351 0.8105
C5A C 0.9030(7) 0.5248(4) 0.6924(3)
H4A H 0.9707 0.4752 0.6462
C6A C 1.0764(8) 0.6784(4) 0.9707(3)
H5A H 1.2353 0.7282 0.9774
H6A H 1.1103 0.6096 0.9883
C7A C 1.0138(8) 0.8699(4) 1.0763(3)
C8A C 0.8904(8) 0.9338(4) 1.1508(3)
C9A C 0.9450(10) 1.0566(4) 1.1862(4)
H7A H 1.0631 1.0985 1.1647
C10A C 0.8218(11) 1.1183(5) 1.2548(4)
H8A H 0.8593 1.2012 1.2786
C11A C 0.6488(10) 1.0589(5) 1.2868(3)
H9A H 0.5676 1.1016 1.3316
C12A C 0.5907(8) 0.9336(4) 1.2533(3)
C13A C 0.7161(7) 0.8702(4) 1.1843(3)
C14A C 0.4167(9) 0.8675(5) 1.2859(3)
H10A H 0.3339 0.9074 1.3314
C15A C 0.3678(9) 0.7467(5) 1.2520(4)
H11A H 0.2522 0.7049 1.2746
C16A C 0.4889(8) 0.6840(5) 1.1834(3)
H12A H 0.4525 0.6011 1.1602
C17A C 0.6611(7) 0.7448(4) 1.1505(3)
C18A C 0.7881(8) 0.6783(4) 1.0776(3)
H17A H 0.099(4) 0.614(4) 0.521(3)
H18A H 0.333(8) 0.671(3) 0.530(4)
Co1_2 Co 1.5000 1.5000 0.5000
O3A_2 O 0.2495(4) 0.3614(2) 0.51461(18)
O6 O 0.476(3) 0.1165(13) 0.0516(10)
loop_
_geom_bond_atom_site_label_1
_geom_bond_atom_site_label_2
_geom_bond_site_symmetry_1
_geom_bond_site_symmetry_2
Co1 O3 1_555 1_555
O1 C18 1_555 1_555
O2 C7 1_555 1_555
O3 C19 1_555 1_555
O4 C19 1_555 1_555
O5 Co1 1_555 1_555
N1 Co1 1_555 1_555
N2 C6 1_555 1_555
C1 N1 1_555 1_555
H1 C1 1_555 1_555
C2 C1 1_555 1_555
H2 C2 1_555 1_555
C3 C2 1_555 1_555
C4 C3 1_555 1_555
H3 C4 1_555 1_555
C5 N1 1_555 1_555
H4 C5 1_555 1_555
C6 C3 1_555 1_555
H5 C6 1_555 1_555
H6 C6 1_555 1_555
C7 N2 1_555 1_555
C8 C7 1_555 1_555
C9 C8 1_555 1_555
H7 C9 1_555 1_555
C10 C9 1_555 1_555
H8 C10 1_555 1_555
C11 C10 1_555 1_555
H9 C11 1_555 1_555
C12 C11 1_555 1_555
C13 C8 1_555 1_555
C14 C12 1_555 1_555
H10 C14 1_555 1_555
C15 C14 1_555 1_555
H11 C15 1_555 1_555
C16 C15 1_555 1_555
H12 C16 1_555 1_555
C17 C13 1_555 1_555
C18 N2 1_555 1_555
C19 C20 1_555 1_555
C20 H13 1_555 1_555
H14 C20 1_555 1_555
C21 C20 1_555 1_555
H15 C21 1_555 1_555
H16 C21 1_555 1_555
H17 O5 1_555 1_555
H18 O5 1_555 1_555
O3A C19A 1_555 1_555
O4A C19A 1_555 1_555
C19A C20A 1_555 1_555
C20A H13A 1_555 1_555
H14A C20A 1_555 1_555
C21A C21 1_555 1_555
H15A C21A 1_555 1_555
H16A C21A 1_555 1_555
O1A C18A 1_555 1_555
O2A C7A 1_555 1_555
O5A Co1 1_555 1_555
N1A Co1 1_555 1_555
N2A C6A 1_555 1_555
C1A N1A 1_555 1_555
H1A C1A 1_555 1_555
C2A C1A 1_555 1_555
H2A C2A 1_555 1_555
C3A C2A 1_555 1_555
C4A C3A 1_555 1_555
H3A C4A 1_555 1_555
C5A N1A 1_555 1_555
H4A C5A 1_555 1_555
C6A C3A 1_555 1_555
H5A C6A 1_555 1_555
H6A C6A 1_555 1_555
C7A N2A 1_555 1_555
C8A C7A 1_555 1_555
C9A C8A 1_555 1_555
H7A C9A 1_555 1_555
C10A C9A 1_555 1_555
H8A C10A 1_555 1_555
C11A C10A 1_555 1_555
H9A C11A 1_555 1_555
C12A C11A 1_555 1_555
C13A C8A 1_555 1_555
C14A C12A 1_555 1_555
H10A C14A 1_555 1_555
C15A C14A 1_555 1_555
H11A C15A 1_555 1_555
C16A C15A 1_555 1_555
H12A C16A 1_555 1_555
C17A C13A 1_555 1_555
C18A N2A 1_555 1_555
H17A O5A 1_555 1_555
H18A O5A 1_555 1_555
Co1_2 O3A 1_555 1_555
O3A_2 Co1 1_555 1_555
C4 C5 1_555 1_555
C12 C13 1_555 1_555
C16 C17 1_555 1_555
C17 C18 1_555 1_555
C20A C21A 1_555 1_555
C4A C5A 1_555 1_555
C12A C13A 1_555 1_555
C16A C17A 1_555 1_555
C17A C18A 1_555 1_555

#END
