
#######################################################################
#
#                 Cambridge Crystallographic Data Centre
#                                CCDC 
#
#######################################################################
#
# If this CIF has been generated from an entry in the Cambridge 
# Structural Database, then it will include bibliographic, chemical, 
# crystal, experimental, refinement or atomic coordinate data resulting 
# from the CCDC's data processing and validation procedures.
#
#######################################################################

data_HUCKEV
_symmetry_cell_setting           orthorhombic
_symmetry_space_group_name_H-M   'P 21 21 21'
_symmetry_Int_Tables_number      19
_space_group_name_Hall           'P 2ac 2ab'
loop_
_symmetry_equiv_pos_site_id
_symmetry_equiv_pos_as_xyz
1 x,y,z
2 1/2-x,-y,1/2+z
3 -x,1/2+y,1/2-z
4 1/2+x,1/2-y,-z
_cell_length_a                   6.406(5)
_cell_length_b                   12.601(18)
_cell_length_c                   13.246(16)
_cell_angle_alpha                90
_cell_angle_beta                 90
_cell_angle_gamma                90
_cell_volume                     1069.24
loop_
_atom_site_label
_atom_site_type_symbol
_atom_site_fract_x
_atom_site_fract_y
_atom_site_fract_z
Ag1 Ag 0.19588(13) -0.39025(4) 0.23549(4)
Cl1 Cl 0.3044(4) 0.01969(12) 0.36529(13)
Cl2 Cl 0.3262(4) 0.03414(12) 0.60297(14)
O1 O 0.2886(10) -0.3805(3) 0.4094(3)
O2 O 0.2942(11) -0.2001(3) 0.2993(3)
C1 C 0.2983(13) -0.2949(4) 0.4543(4)
C2 C 0.3048(13) -0.2810(4) 0.5589(4)
C3 C 0.3191(12) -0.1801(5) 0.6076(4)
C4 C 0.3194(13) -0.0841(4) 0.5411(4)
C5 C 0.3108(14) -0.0901(4) 0.4407(5)
C6 C 0.3027(14) -0.1930(4) 0.3896(4)
C7 C 0.2998(13) -0.3720(4) 0.6212(4)
O3 O 0.3344(10) -0.1696(4) 0.6980(3)
N1 N 0.1853(16) -0.3112(6) 0.0798(4)
N2 N 0.2961(12) -0.4450(4) 0.6715(4)
C8 C 0.1746(17) -0.3171(6) -0.0055(6)
C9 C 0.1699(19) -0.3246(7) -0.1113(6)
H1 H 0.0288 -0.3272 -0.1357
H2 H 0.2392 -0.2637 -0.1391
H3 H 0.2423 -0.3879 -0.1315
O3C O -0.1656(10) -0.3304(4) 0.3020(3)
N2A N 0.2039(12) -0.5550(4) 0.1715(4)
Ag1C Ag 0.69588(13) -0.10975(4) 0.76451(4)
Ag1A Ag 0.30412(13) -0.60975(4) 0.73549(4)
loop_
_geom_bond_atom_site_label_1
_geom_bond_atom_site_label_2
_geom_bond_site_symmetry_1
_geom_bond_site_symmetry_2
Ag1 O1 1_555 1_555
Cl1 C5 1_555 1_555
Cl2 C4 1_555 1_555
O1 C1 1_555 1_555
O2 Ag1 1_555 1_555
C1 C2 1_555 1_555
C2 C3 1_555 1_555
C3 C4 1_555 1_555
C4 C5 1_555 1_555
C5 C6 1_555 1_555
C6 O2 1_555 1_555
C7 C2 1_555 1_555
O3 C3 1_555 1_555
N1 Ag1 1_555 1_555
N2 C7 1_555 1_555
C8 N1 1_555 1_555
C9 C8 1_555 1_555
H1 C9 1_555 1_555
H2 C9 1_555 1_555
H3 C9 1_555 1_555
O3C Ag1 1_555 1_555
N2A Ag1 1_555 1_555
Ag1C O3 1_555 1_555
Ag1A N2 1_555 1_555
C1 C6 1_555 1_555

#END
