
#######################################################################
#
#                 Cambridge Crystallographic Data Centre
#                                CCDC 
#
#######################################################################
#
# If this CIF has been generated from an entry in the Cambridge 
# Structural Database, then it will include bibliographic, chemical, 
# crystal, experimental, refinement or atomic coordinate data resulting 
# from the CCDC's data processing and validation procedures.
#
#######################################################################

data_HUCKEX
_symmetry_cell_setting           monoclinic
_symmetry_space_group_name_H-M   'P 21/a'
_symmetry_Int_Tables_number      14
_space_group_name_Hall           '-P 2yab'
loop_
_symmetry_equiv_pos_site_id
_symmetry_equiv_pos_as_xyz
1 x,y,z
2 1/2-x,1/2+y,-z
3 -x,-y,-z
4 1/2+x,1/2-y,z
_cell_length_a                   9.1127(3)
_cell_length_b                   13.0832(5)
_cell_length_c                   18.4154(7)
_cell_angle_alpha                90
_cell_angle_beta                 97.724(3)
_cell_angle_gamma                90
_cell_volume                     2175.62
loop_
_atom_site_label
_atom_site_type_symbol
_atom_site_fract_x
_atom_site_fract_y
_atom_site_fract_z
C1 C 0.7615(7) 0.8865(4) 0.9727(3)
C2 C 0.6176(7) 0.8958(5) 0.9891(5)
H1 H 0.5391 0.9018 0.9515
C3 C 0.5911(10) 0.8961(5) 1.0617(6)
H2 H 0.4949 0.9023 1.0727
C4 C 0.7086(13) 0.8871(5) 1.1179(4)
H3 H 0.6908 0.8873 1.1664
C5 C 0.8525(11) 0.8778(4) 1.1015(3)
C6 C 0.8790(7) 0.8775(3) 1.0289(3)
Ni1 Ni 0.89242(4) 0.45420(4) 0.62791(2)
O1 O 1.1121(3) 0.4436(2) 0.61635(15)
O2 O 1.6688(3) 0.4550(2) 0.63515(17)
O3 O 0.9070(3) 0.3518(2) 0.71450(16)
H4 H 0.9870 0.3222 0.7182
O4 O 1.1878(3) 0.3120(2) 0.68982(16)
O5 O 0.8660(3) 0.5599(2) 0.53936(16)
H5 H 0.7846 0.5873 0.5370
O6 O 1.5957(3) 0.5901(2) 0.56644(18)
N1 N 0.9330(4) 0.5807(3) 0.69563(18)
O7 O 0.8512(3) 0.3381(3) 0.5550(2)
H6 H 0.9260 0.3032 0.5553
C7 C 1.5716(4) 0.5143(3) 0.6048(2)
C8 C 1.4142(4) 0.4936(3) 0.6141(2)
H7 H 1.3447 0.5450 0.6017
C9 C 1.2105(4) 0.3846(3) 0.6493(2)
C10 C 1.3686(4) 0.4070(3) 0.6388(2)
H8 H 1.4385 0.3558 0.6506
C11 C 1.0283(6) 0.7515(4) 0.7115(3)
H9 H 1.0842 0.8039 0.6949
C12 C 0.8754(6) 0.6865(4) 0.7936(3)
H10 H 0.8268 0.6927 0.8346
C13 C 1.0180(5) 0.6589(4) 0.6764(2)
H11 H 1.0718 0.6491 0.6375
C14 C 0.9555(6) 0.7664(4) 0.7715(3)
C15 C 0.8677(6) 0.5964(4) 0.7541(3)
H12 H 0.8125 0.5431 0.7701
C16 C 0.967(4) 0.8707(11) 1.1542(7)
H13 H 0.9448 0.8741 1.2020
C17 C 1.0253(10) 0.8668(4) 1.0144(3)
C18 C 1.110(3) 0.8592(14) 1.1464(10)
H14 H 1.1834 0.8518 1.1863
O8 O 1.1753(6) 0.8535(4) 0.9210(4)
C19 C 1.1423(15) 0.8592(6) 1.0696(5)
H15 H 1.2391 0.8541 1.0591
N2 N 0.9323(6) 0.8723(3) 0.8842(2)
C20 C 1.0540(7) 0.8634(4) 0.9375(3)
O9 O 0.6935(7) 0.9020(5) 0.8455(4)
C21 C 0.7902(8) 0.8881(5) 0.8982(4)
C22 C 0.9571(10) 0.8718(5) 0.8073(3)
H16 H 1.0520 0.9037 0.8039
H17 H 0.8814 0.9136 0.7795
H18 H 0.876(5) 0.536(4) 0.4986(16)
H19 H 0.778(4) 0.303(4) 0.543(3)
H20 H 0.840(3) 0.310(3) 0.705(2)
Ni1_2 Ni 1.89242(4) 0.45420(4) 0.62791(2)
O2_2 O 0.6688(3) 0.4550(2) 0.63515(17)
O10 O 0.4221(3) 0.7335(3) 0.4987(2)
H21 H 0.408(7) 0.778(4) 0.530(3)
H22 H 0.474(5) 0.696(4) 0.529(2)
loop_
_geom_bond_atom_site_label_1
_geom_bond_atom_site_label_2
_geom_bond_site_symmetry_1
_geom_bond_site_symmetry_2
C1 C2 1_555 1_555
C2 H1 1_555 1_555
C3 C2 1_555 1_555
H2 C3 1_555 1_555
C4 C3 1_555 1_555
H3 C4 1_555 1_555
C5 C4 1_555 1_555
C6 C1 1_555 1_555
Ni1 O1 1_555 1_555
O1 C9 1_555 1_555
O2 C7 1_555 1_555
O3 Ni1 1_555 1_555
H4 O3 1_555 1_555
O4 C9 1_555 1_555
O5 Ni1 1_555 1_555
H5 O5 1_555 1_555
O6 C7 1_555 1_555
N1 Ni1 1_555 1_555
O7 Ni1 1_555 1_555
H6 O7 1_555 1_555
C7 C8 1_555 1_555
C8 H7 1_555 1_555
C9 C10 1_555 1_555
C10 C8 1_555 1_555
H8 C10 1_555 1_555
C11 H9 1_555 1_555
C12 H10 1_555 1_555
C13 N1 1_555 1_555
H11 C13 1_555 1_555
C14 C11 1_555 1_555
C15 N1 1_555 1_555
H12 C15 1_555 1_555
C16 C5 1_555 1_555
H13 C16 1_555 1_555
C17 C6 1_555 1_555
C18 C16 1_555 1_555
H14 C18 1_555 1_555
O8 C20 1_555 1_555
C19 C17 1_555 1_555
H15 C19 1_555 1_555
N2 C20 1_555 1_555
C20 C17 1_555 1_555
O9 C21 1_555 1_555
C21 C1 1_555 1_555
C22 C14 1_555 1_555
H16 C22 1_555 1_555
H17 C22 1_555 1_555
H18 O5 1_555 1_555
H19 O7 1_555 1_555
H20 O3 1_555 1_555
O10 H21 1_555 1_555
H22 O10 1_555 1_555
Ni1_2 O2 1_555 1_555
O2_2 Ni1 1_555 1_555
C5 C6 1_555 1_555
C11 C13 1_555 1_555
C12 C14 1_555 1_555
C12 C15 1_555 1_555
C18 C19 1_555 1_555
N2 C21 1_555 1_555
N2 C22 1_555 1_555

#END
