
#######################################################################
#
#                 Cambridge Crystallographic Data Centre
#                                CCDC 
#
#######################################################################
#
# If this CIF has been generated from an entry in the Cambridge 
# Structural Database, then it will include bibliographic, chemical, 
# crystal, experimental, refinement or atomic coordinate data resulting 
# from the CCDC's data processing and validation procedures.
#
#######################################################################

data_HUCLUO
_symmetry_cell_setting           triclinic
_symmetry_space_group_name_H-M   'P -1'
_symmetry_Int_Tables_number      2
_space_group_name_Hall           '-P 1'
loop_
_symmetry_equiv_pos_site_id
_symmetry_equiv_pos_as_xyz
1 x,y,z
2 -x,-y,-z
_cell_length_a                   8.1359(2)
_cell_length_b                   10.7079(3)
_cell_length_c                   14.4453(3)
_cell_angle_alpha                99.141(2)
_cell_angle_beta                 90.766(2)
_cell_angle_gamma                111.3250(10)
_cell_volume                     1153.93
loop_
_atom_site_label
_atom_site_type_symbol
_atom_site_fract_x
_atom_site_fract_y
_atom_site_fract_z
C1 C 0.2307(7) 0.7470(5) 0.9728(3)
C2 C 0.3100(6) 0.7339(5) 1.0633(3)
C3 C 0.2984(6) 0.6056(5) 1.0761(3)
H1 H 0.2368 0.5293 1.0311
C4 C 0.3805(6) 0.5922(4) 1.1575(3)
C5 C 0.4676(6) 0.7033(5) 1.2253(3)
H2 H 0.5217 0.6935 1.2793
C6 C 0.4742(6) 0.8300(5) 1.2125(3)
C7 C 0.3983(6) 0.8469(5) 1.1314(3)
H3 H 0.4066 0.9331 1.1227
C8 C -0.0893(8) 0.8191(7) 0.6148(5)
H4 H -0.0394 0.9073 0.6485
C9 C -0.1942(10) 0.7963(11) 0.5311(6)
H5 H -0.2131 0.8681 0.5102
C10 C -0.2666(9) 0.6692(11) 0.4817(5)
H6 H -0.3346 0.6531 0.4257
C11 C -0.2401(7) 0.5606(8) 0.5142(4)
C12 C -0.3167(10) 0.4246(11) 0.4672(5)
H7 H -0.3888 0.4039 0.4120
C13 C -0.2872(9) 0.3260(10) 0.5008(6)
H8 H -0.3381 0.2374 0.4677
C14 C -0.1786(8) 0.3506(7) 0.5873(5)
C15 C -0.1458(9) 0.2503(7) 0.6238(6)
H9 H -0.1944 0.1604 0.5929
C16 C -0.0430(10) 0.2826(7) 0.7045(6)
H10 H -0.0221 0.2148 0.7300
C17 C 0.0339(9) 0.4211(6) 0.7508(5)
H11 H 0.1081 0.4431 0.8053
C18 C -0.1014(7) 0.4849(6) 0.6355(4)
C19 C -0.1324(7) 0.5910(6) 0.5990(4)
N1 N -0.0585(6) 0.7199(5) 0.6479(3)
N2 N 0.0017(6) 0.5186(4) 0.7177(3)
O1 O 0.4665(6) 0.3856(4) 1.0944(4)
O2 O 0.4604(6) 0.4454(4) 1.2617(3)
O3 O 0.1908(5) 0.3420(3) 1.1622(3)
O4 O 0.6346(7) 0.9265(4) 1.3792(3)
O5 O 0.4698(5) 1.0486(4) 1.3169(3)
O6 O 0.7430(4) 1.0530(3) 1.2538(3)
O7 O 0.2699(6) 0.8626(4) 0.9492(3)
O8 O 0.1284(5) 0.6426(3) 0.9196(2)
O9 O 0.3518(5) 0.7326(4) 0.7614(3)
H12 H 0.424(9) 0.793(7) 0.743(5)
H13 H 0.377(9) 0.677(7) 0.775(5)
O10 O -0.0113(5) 0.9283(4) 0.8556(3)
H14 H 0.0411 1.0139 0.8392
H15 H -0.1058 0.9114 0.8936
S1 S 0.37586(15) 0.42922(11) 1.17027(9)
S2 S 0.58740(17) 0.97486(11) 1.29956(8)
Yb1 Yb 0.09371(3) 0.75670(2) 0.801972(15)
O3A O -0.1908(5) 0.6580(3) 0.8378(3)
O6A O 0.2570(4) 0.9470(3) 0.7462(3)
Yb1A Yb -0.09371(3) 0.24330(2) 1.198028(15)
Yb1A_2 Yb 0.90629(3) 1.24330(2) 1.198028(15)
O11 O 0.7355(8) 0.8862(5) 0.9795(6)
H16 H 0.7041 0.9593 0.9906
H17 H 0.7808 0.8430 1.0243
loop_
_geom_bond_atom_site_label_1
_geom_bond_atom_site_label_2
_geom_bond_site_symmetry_1
_geom_bond_site_symmetry_2
C1 C2 1_555 1_555
C2 C3 1_555 1_555
C3 H1 1_555 1_555
C4 C3 1_555 1_555
C5 C4 1_555 1_555
H2 C5 1_555 1_555
C6 C5 1_555 1_555
C7 C2 1_555 1_555
H3 C7 1_555 1_555
C8 H4 1_555 1_555
C9 C8 1_555 1_555
H5 C9 1_555 1_555
C10 C9 1_555 1_555
H6 C10 1_555 1_555
C11 C10 1_555 1_555
C12 C11 1_555 1_555
H7 C12 1_555 1_555
C13 C12 1_555 1_555
H8 C13 1_555 1_555
C14 C13 1_555 1_555
C15 C14 1_555 1_555
H9 C15 1_555 1_555
C16 C15 1_555 1_555
H10 C16 1_555 1_555
C17 C16 1_555 1_555
H11 C17 1_555 1_555
C18 C14 1_555 1_555
C19 C11 1_555 1_555
N1 C8 1_555 1_555
N2 C17 1_555 1_555
O1 S1 1_555 1_555
O2 S1 1_555 1_555
O3 S1 1_555 1_555
O4 S2 1_555 1_555
O5 S2 1_555 1_555
O6 S2 1_555 1_555
O7 C1 1_555 1_555
O8 C1 1_555 1_555
O9 H12 1_555 1_555
H13 O9 1_555 1_555
O10 H14 1_555 1_555
H15 O10 1_555 1_555
S1 C4 1_555 1_555
S2 C6 1_555 1_555
Yb1 N1 1_555 1_555
O11 H16 1_555 1_555
H17 O11 1_555 1_555
O3A Yb1 1_555 1_555
O6A Yb1 1_555 1_555
Yb1A O3 1_555 1_555
Yb1A_2 O6 1_555 1_555
C6 C7 1_555 1_555
C18 C19 1_555 1_555
C18 N2 1_555 1_555
C19 N1 1_555 1_555
N2 Yb1 1_555 1_555
O7 Yb1 1_555 1_555
O8 Yb1 1_555 1_555
O9 Yb1 1_555 1_555
O10 Yb1 1_555 1_555

#END
