
#######################################################################
#
#                 Cambridge Crystallographic Data Centre
#                                CCDC 
#
#######################################################################
#
# If this CIF has been generated from an entry in the Cambridge 
# Structural Database, then it will include bibliographic, chemical, 
# crystal, experimental, refinement or atomic coordinate data resulting 
# from the CCDC's data processing and validation procedures.
#
#######################################################################

data_HUCMOH
_symmetry_cell_setting           triclinic
_symmetry_space_group_name_H-M   'P -1'
_symmetry_Int_Tables_number      2
_space_group_name_Hall           '-P 1'
loop_
_symmetry_equiv_pos_site_id
_symmetry_equiv_pos_as_xyz
1 x,y,z
2 -x,-y,-z
_cell_length_a                   7.3374(6)
_cell_length_b                   8.6976(7)
_cell_length_c                   9.2006(8)
_cell_angle_alpha                81.9232(15)
_cell_angle_beta                 89.3677(19)
_cell_angle_gamma                84.3131(15)
_cell_volume                     578.474
loop_
_atom_site_label
_atom_site_type_symbol
_atom_site_fract_x
_atom_site_fract_y
_atom_site_fract_z
Ba1 Ba 0.22680(3) 0.28553(3) 0.08429(2)
S1 S -0.23258(13) 0.33113(12) 0.19748(11)
S2 S -0.44551(13) 0.12706(12) 0.75459(11)
O1 O 0.0555(5) 0.1414(5) -0.1161(4)
H1 H -0.0601(10) 0.141(6) -0.120(7)
H2 H 0.107(6) 0.055(4) -0.138(7)
O2 O -0.1381(4) 0.4628(3) 0.1252(3)
O3 O -0.1126(4) 0.1865(3) 0.2048(3)
O4 O -0.4095(4) 0.3226(4) 0.1310(3)
O5 O -0.5615(5) 0.0442(4) 0.6750(4)
O6 O -0.5431(4) 0.2131(4) 0.8606(3)
O7 O -0.2881(4) 0.0293(4) 0.8203(4)
O8 O -0.2998(4) 0.4314(3) 0.8166(3)
H3 H -0.3232 0.3565 0.8817
O9 O -0.1938(4) 0.6528(3) 0.6265(3)
H4 H -0.1528 0.7232 0.5648
C1 C -0.2694(5) 0.3657(5) 0.3807(4)
C2 C -0.3441(5) 0.2529(5) 0.4793(4)
H5 H -0.3857 0.1636 0.4466
C3 C -0.3570(5) 0.2725(5) 0.6264(4)
C4 C -0.3006(5) 0.4052(5) 0.6749(4)
C5 C -0.2365(5) 0.5214(5) 0.5729(4)
C6 C -0.2175(5) 0.5024(5) 0.4257(5)
H6 H -0.1703 0.5805 0.3570
O2A O 0.1381(4) 0.5372(3) -0.1252(3)
O4_2 O 0.5905(4) 0.3226(4) 0.1310(3)
O6_2 O 0.4569(4) 0.2131(4) -0.1394(3)
O7A O 0.2881(4) -0.0293(4) 0.1797(4)
O8A O 0.2998(4) 0.5686(3) 0.1834(3)
O9A O 0.1938(4) 0.3472(3) 0.3735(3)
Ba1A Ba -0.22680(3) 0.71447(3) -0.08429(2)
Ba1_2 Ba -0.77320(3) 0.28553(3) 0.08429(2)
Ba1_3 Ba -0.77320(3) 0.28553(3) 1.08429(2)
Ba1A_2 Ba -0.22680(3) -0.28553(3) 0.91571(2)
Ba1A_3 Ba -0.22680(3) 0.71447(3) 0.91571(2)
H3A H 0.3232 0.6435 0.1183
H4A H 0.1528 0.2768 0.4352
O10 O -0.0900(5) 0.8811(4) 0.4376(5)
H7 H -0.193(5) 0.919(7) 0.400(7)
H8 H -0.058(8) 0.937(7) 0.500(6)
loop_
_geom_bond_atom_site_label_1
_geom_bond_atom_site_label_2
_geom_bond_site_symmetry_1
_geom_bond_site_symmetry_2
Ba1 O1 1_555 1_555
S1 O2 1_555 1_555
S2 O5 1_555 1_555
O1 H1 1_555 1_555
H2 O1 1_555 1_555
O2 Ba1 1_555 1_555
O3 Ba1 1_555 1_555
O4 S1 1_555 1_555
O6 S2 1_555 1_555
O7 S2 1_555 1_555
O8 H3 1_555 1_555
O9 H4 1_555 1_555
C1 S1 1_555 1_555
C2 C1 1_555 1_555
H5 C2 1_555 1_555
C3 S2 1_555 1_555
C4 O8 1_555 1_555
C5 O9 1_555 1_555
C6 C1 1_555 1_555
H6 C6 1_555 1_555
O10 H7 1_555 1_555
H8 O10 1_555 1_555
O2A Ba1 1_555 1_555
O4_2 Ba1 1_555 1_555
O6_2 Ba1 1_555 1_555
O7A Ba1 1_555 1_555
O8A Ba1 1_555 1_555
O9A Ba1 1_555 1_555
Ba1A O2 1_555 1_555
Ba1_2 O4 1_555 1_555
Ba1_3 O6 1_555 1_555
Ba1A_2 O7 1_555 1_555
Ba1A_3 O8 1_555 1_555
H3A O8A 1_555 1_555
H4A O9A 1_555 1_555
S1 O3 1_555 1_555
O9 Ba1A_3 1_555 1_555
C2 C3 1_555 1_555
C3 C4 1_555 1_555
C4 C5 1_555 1_555
C5 C6 1_555 1_555
O2A Ba1A 1_555 1_555

#END
