
#######################################################################
#
#                 Cambridge Crystallographic Data Centre
#                                CCDC 
#
#######################################################################
#
# If this CIF has been generated from an entry in the Cambridge 
# Structural Database, then it will include bibliographic, chemical, 
# crystal, experimental, refinement or atomic coordinate data resulting 
# from the CCDC's data processing and validation procedures.
#
#######################################################################

data_HUCNUQ
_symmetry_cell_setting           monoclinic
_symmetry_space_group_name_H-M   'P 21/c'
_symmetry_Int_Tables_number      14
_space_group_name_Hall           '-P 2ybc'
loop_
_symmetry_equiv_pos_site_id
_symmetry_equiv_pos_as_xyz
1 x,y,z
2 -x,1/2+y,1/2-z
3 -x,-y,-z
4 x,1/2-y,1/2+z
_cell_length_a                   9.1523(5)
_cell_length_b                   11.5014(6)
_cell_length_c                   12.2199(5)
_cell_angle_alpha                90
_cell_angle_beta                 118.106(3)
_cell_angle_gamma                90
_cell_volume                     1134.63
loop_
_atom_site_label
_atom_site_type_symbol
_atom_site_fract_x
_atom_site_fract_y
_atom_site_fract_z
C1 C 0.6230(3) 0.48117(18) 0.62755(19)
C2 C 0.4546(3) 0.43284(18) 0.58138(18)
C3 C 0.3327(3) 0.45868(18) 0.46084(18)
C4 C 0.1681(3) 0.42621(19) 0.42075(19)
C5 C 0.1308(3) 0.3618(2) 0.5002(2)
H1 H 0.0219 0.3392 0.4745
C6 C 0.2528(3) 0.3307(2) 0.6171(2)
H2 H 0.2257 0.2843 0.6673
C7 C 0.4149(3) 0.36769(17) 0.66052(19)
C8 C 0.5405(3) 0.33209(18) 0.79003(19)
C9 C 0.0272(3) 0.46506(19) 0.29896(19)
H3 H 0.816(5) 0.596(3) 1.114(4)
H4 H 0.843(4) 0.180(3) 1.100(3)
H5 H 0.567(4) 0.454(3) 1.135(3)
H6 H 0.678(4) 0.605(3) 1.026(3)
H7 H 0.722(4) 0.200(3) 0.988(4)
H8 H 0.601(4) 0.353(3) 1.174(3)
Ni1 Ni 0.75536(3) 0.39339(2) 1.05414(2)
O1 O 0.7641(3) 0.57326(16) 1.04973(18)
O2 O 0.9159(2) 0.38643(15) 0.97463(17)
H9 H 0.8615 0.3978 0.8946
H10 H 1.0199 0.3978 1.0001
O3 O 0.7528(2) 0.21583(14) 1.05529(18)
O4 O 0.5851(2) 0.39684(17) 1.11867(16)
O5 O -0.0468(2) 0.38504(13) 0.22253(15)
O6 O -0.0104(2) 0.57030(14) 0.28609(14)
O7 O 0.5545(2) 0.39650(12) 0.87809(13)
O8 O 0.6178(2) 0.23967(13) 0.80370(14)
O9 O 0.7219(2) 0.47842(16) 0.73737(14)
C1B C 0.3770(3) 0.51883(18) 0.37245(19)
C2B C 0.5454(3) 0.56716(18) 0.41862(18)
C3B C 0.6673(3) 0.54132(18) 0.53916(18)
C4B C 0.8319(3) 0.57379(19) 0.57925(19)
C5B C 0.8692(3) 0.6382(2) 0.4998(2)
H1B H 0.9781 0.6608 0.5255
C6B C 0.7472(3) 0.6693(2) 0.3829(2)
H2B H 0.7743 0.7157 0.3327
C7B C 0.5851(3) 0.63231(17) 0.33948(19)
C8B C 0.4595(3) 0.66791(18) 0.20997(19)
O7B O 0.4455(2) 0.60350(12) 0.12191(13)
O8B O 0.3822(2) 0.76033(13) 0.19630(14)
O9B O 0.2781(2) 0.52158(16) 0.26263(14)
C9B C 0.9728(3) 0.53494(19) 0.70104(19)
O5B O 1.0468(2) 0.61496(13) 0.77747(15)
O6B O 1.0104(2) 0.42970(14) 0.71391(14)
H3B H 0.184(5) 0.404(3) -0.114(4)
H4B H 0.157(4) 0.820(3) -0.100(3)
H5B H 0.433(4) 0.546(3) -0.135(3)
H6B H 0.322(4) 0.395(3) -0.026(3)
H7B H 0.278(4) 0.800(3) 0.012(4)
H8B H 0.399(4) 0.647(3) -0.174(3)
Ni1B Ni 0.24464(3) 0.60661(2) -0.05414(2)
O1B O 0.2359(3) 0.42674(16) -0.04973(18)
O2B O 0.0841(2) 0.61357(15) 0.02537(17)
H9B H 0.1385 0.6022 0.1054
H10B H -0.0199 0.6022 -0.0001
O3B O 0.2472(2) 0.78417(14) -0.05529(18)
O4B O 0.4149(2) 0.60316(17) -0.11867(16)
Ni1_2 Ni -0.24464(3) 0.39339(2) 0.05414(2)
Ni1B_2 Ni 1.24464(3) 0.60661(2) 0.94586(2)
O5_2 O 0.9532(2) 0.38504(13) 1.22253(15)
O5B_2 O 0.0468(2) 0.61496(13) -0.22253(15)
loop_
_geom_bond_atom_site_label_1
_geom_bond_atom_site_label_2
_geom_bond_site_symmetry_1
_geom_bond_site_symmetry_2
C1 C2 1_555 1_555
C2 C3 1_555 1_555
C3 C4 1_555 1_555
C4 C5 1_555 1_555
C5 H1 1_555 1_555
C6 C5 1_555 1_555
H2 C6 1_555 1_555
C7 C2 1_555 1_555
C8 C7 1_555 1_555
C9 C4 1_555 1_555
H3 O1 1_555 1_555
H4 O3 1_555 1_555
H5 O4 1_555 1_555
H6 O1 1_555 1_555
H7 O3 1_555 1_555
H8 O4 1_555 1_555
Ni1 O1 1_555 1_555
O2 Ni1 1_555 1_555
H9 O2 1_555 1_555
H10 O2 1_555 1_555
O3 Ni1 1_555 1_555
O4 Ni1 1_555 1_555
O5 C9 1_555 1_555
O6 C9 1_555 1_555
O7 C8 1_555 1_555
O8 C8 1_555 1_555
O9 C1 1_555 1_555
C1B C3 1_555 1_555
C2B C1B 1_555 1_555
C3B C1 1_555 1_555
C4B C3B 1_555 1_555
C5B C4B 1_555 1_555
H1B C5B 1_555 1_555
C6B C5B 1_555 1_555
H2B C6B 1_555 1_555
C7B C2B 1_555 1_555
C8B C7B 1_555 1_555
O7B C8B 1_555 1_555
O8B C8B 1_555 1_555
O9B C1B 1_555 1_555
C9B C4B 1_555 1_555
O5B C9B 1_555 1_555
O6B C9B 1_555 1_555
H3B O1B 1_555 1_555
H4B O3B 1_555 1_555
H5B O4B 1_555 1_555
H6B O1B 1_555 1_555
H7B O3B 1_555 1_555
H8B O4B 1_555 1_555
Ni1B O7B 1_555 1_555
O1B Ni1B 1_555 1_555
O2B Ni1B 1_555 1_555
H9B O2B 1_555 1_555
H10B O2B 1_555 1_555
O3B Ni1B 1_555 1_555
O4B Ni1B 1_555 1_555
Ni1_2 O5 1_555 1_555
Ni1B_2 O5B 1_555 1_555
O5_2 Ni1 1_555 1_555
O5B_2 Ni1B 1_555 1_555
C6 C7 1_555 1_555
Ni1 O7 1_555 1_555
C2B C3B 1_555 1_555
C6B C7B 1_555 1_555

#END
