
#######################################################################
#
#                 Cambridge Crystallographic Data Centre
#                                CCDC 
#
#######################################################################
#
# If this CIF has been generated from an entry in the Cambridge 
# Structural Database, then it will include bibliographic, chemical, 
# crystal, experimental, refinement or atomic coordinate data resulting 
# from the CCDC's data processing and validation procedures.
#
#######################################################################

data_HUCNEA
_symmetry_cell_setting           monoclinic
_symmetry_space_group_name_H-M   'C 2/c'
_symmetry_Int_Tables_number      15
_space_group_name_Hall           '-C 2yn'
loop_
_symmetry_equiv_pos_site_id
_symmetry_equiv_pos_as_xyz
1 x,y,z
2 -x,y,1/2-z
3 1/2+x,1/2+y,z
4 1/2-x,1/2+y,1/2-z
5 -x,-y,-z
6 x,-y,1/2+z
7 1/2-x,1/2-y,-z
8 1/2+x,1/2-y,1/2+z
_cell_length_a                   15.954(9)
_cell_length_b                   14.314(8)
_cell_length_c                   20.999(12)
_cell_angle_alpha                90
_cell_angle_beta                 106.424(10)
_cell_angle_gamma                90
_cell_volume                     4599.77
loop_
_atom_site_label
_atom_site_type_symbol
_atom_site_fract_x
_atom_site_fract_y
_atom_site_fract_z
C1 C 0.9036(3) 0.2814(3) 0.88894(18)
C2 C 0.9647(2) 0.3655(3) 0.89477(19)
C3 C 0.9838(2) 0.4315(3) 0.94612(18)
C4 C 1.0313(2) 0.5120(3) 0.94133(18)
C5 C 1.0399(2) 0.5883(3) 0.99161(19)
C6 C 1.0649(2) 0.5244(3) 0.88694(19)
C7 C 1.0468(3) 0.4567(3) 0.8378(2)
H1 H 1.0685 0.4640 0.8014
C8 C 0.9976(3) 0.3788(3) 0.84156(19)
H2 H 0.9864 0.3348 0.8076
C9 C 0.5502(3) 0.4386(3) 0.9373(2)
C10 C 0.6239(3) 0.3927(3) 0.9742(2)
H3 H 0.6416 0.3984 1.0202
C11 C 0.6711(3) 0.3385(3) 0.9429(2)
H4 H 0.7214 0.3094 0.9686
C12 C 0.5781(3) 0.3715(4) 0.8422(2)
H5 H 0.5614 0.3645 0.7963
C13 C 1.1226(3) 0.6030(3) 0.8763(2)
C14 C 0.4961(3) 0.4966(3) 0.96810(18)
H6 H 0.4521 0.5318 0.9397
C15 C 0.7345(3) 0.3434(3) 0.7277(2)
H7 H 0.7738 0.3768 0.7611
C16 C 0.6296(3) 0.2346(3) 0.6970(2)
H8 H 0.5940 0.1898 0.7083
C17 C 0.6181(3) 0.2529(3) 0.6314(2)
H9 H 0.5750 0.2215 0.5994
C18 C 0.6700(3) 0.3176(3) 0.6126(2)
C19 C 0.5290(3) 0.4283(3) 0.8694(2)
H10 H 0.4813 0.4600 0.8423
C20 C 0.7281(3) 0.3665(4) 0.6626(2)
H11 H 0.7622 0.4141 0.6528
C21 C 0.7115(3) 0.3782(4) 0.5160(2)
H12 H 0.7563 0.4108 0.5457
C22 C 0.6618(3) 0.3306(3) 0.5408(2)
H13 H 0.6153 0.3006 0.5110
C23 C 0.6460(3) 0.3428(4) 0.3932(2)
H14 H 0.6040 0.3038 0.4020
C24 C 0.7057(3) 0.3878(3) 0.4441(2)
C25 C 0.7626(3) 0.4463(4) 0.4261(2)
H15 H 0.8031 0.4802 0.4584
C26 C 0.7607(3) 0.4556(4) 0.3605(2)
H16 H 0.8011 0.4955 0.3504
C27 C 0.6493(3) 0.3564(4) 0.3289(2)
H17 H 0.6090 0.3240 0.2954
N1 N 0.6484(2) 0.3255(2) 0.87725(15)
N2 N 0.6885(2) 0.2769(3) 0.74566(15)
N3 N 0.7050(3) 0.4115(3) 0.31084(18)
Ni1 Ni 0.71334(3) 0.22371(4) 0.84126(2)
O1 O 1.19304(17) 0.6224(2) 0.91928(12)
O2 O 1.10119(17) 0.6426(2) 0.82008(12)
O3 O 0.82443(17) 0.30016(19) 0.88143(12)
O4 O 1.05781(18) 0.6677(2) 0.97946(13)
O5 O 0.93461(19) 0.2023(2) 0.88515(15)
O6 O 0.78682(19) 0.1136(2) 0.82018(16)
H18 H 0.8390 0.1259 0.8344
H19 H 0.789(3) 0.102(3) 0.7821(19)
C1D C 1.0964(3) 0.7186(3) 1.11106(18)
C2D C 1.0353(2) 0.6345(3) 1.10523(19)
C3D C 1.0162(2) 0.5685(3) 1.05388(18)
C4D C 0.9687(2) 0.4880(3) 1.05867(18)
C5D C 0.9601(2) 0.4117(3) 1.00839(19)
C6D C 0.9351(2) 0.4756(3) 1.11306(19)
C7D C 0.9532(3) 0.5433(3) 1.1622(2)
H1D H 0.9315 0.5360 1.1986
C8D C 1.0024(3) 0.6212(3) 1.15844(19)
H2D H 1.0136 0.6652 1.1924
O3D O 1.17557(17) 0.69984(19) 1.11857(12)
O4D O 0.94219(18) 0.3323(2) 1.02054(13)
O5D O 1.06539(19) 0.7977(2) 1.11485(15)
C13D C 0.8774(3) 0.3970(3) 1.1237(2)
O1D O 0.80696(17) 0.3776(2) 1.08072(12)
O2D O 0.89881(17) 0.3574(2) 1.17992(12)
C9D C 0.4498(3) 0.5614(3) 1.0627(2)
C10D C 0.3761(3) 0.6073(3) 1.0258(2)
H3D H 0.3584 0.6016 0.9798
C11D C 0.3289(3) 0.6615(3) 1.0571(2)
H4D H 0.2786 0.6906 1.0314
C12D C 0.4219(3) 0.6285(4) 1.1578(2)
H5D H 0.4386 0.6355 1.2037
C14D C 0.5039(3) 0.5034(3) 1.03190(18)
H6D H 0.5479 0.4682 1.0603
C19D C 0.4710(3) 0.5717(3) 1.1306(2)
H10D H 0.5187 0.5400 1.1577
N1D N 0.3516(2) 0.6745(2) 1.12275(15)
C15D C 0.2655(3) 0.6566(3) 1.2723(2)
H7D H 0.2262 0.6232 1.2389
C16D C 0.3704(3) 0.7654(3) 1.3030(2)
H8D H 0.4060 0.8102 1.2917
C17D C 0.3819(3) 0.7471(3) 1.3686(2)
H9D H 0.4250 0.7785 1.4006
C18D C 0.3300(3) 0.6824(3) 1.3874(2)
C20D C 0.2719(3) 0.6335(4) 1.3374(2)
H11D H 0.2378 0.5859 1.3472
C21D C 0.2885(3) 0.6218(4) 1.4840(2)
H12D H 0.2437 0.5892 1.4543
C22D C 0.3382(3) 0.6694(3) 1.4592(2)
H13D H 0.3847 0.6994 1.4890
C23D C 0.3540(3) 0.6572(4) 1.6068(2)
H14D H 0.3960 0.6962 1.5980
C24D C 0.2943(3) 0.6122(3) 1.5559(2)
C25D C 0.2374(3) 0.5537(4) 1.5739(2)
H15D H 0.1969 0.5198 1.5416
C26D C 0.2393(3) 0.5444(4) 1.6395(2)
H16D H 0.1989 0.5045 1.6496
C27D C 0.3507(3) 0.6436(4) 1.6711(2)
H17D H 0.3910 0.6760 1.7046
N2D N 0.3115(2) 0.7231(3) 1.25434(15)
N3D N 0.2950(3) 0.5885(3) 1.68916(18)
Ni1D Ni 0.28666(3) 0.77629(4) 1.15874(2)
O6D O 0.21318(19) 0.8864(2) 1.17982(16)
H18D H 0.1610 0.8741 1.1656
H19D H 0.211(3) 0.898(3) 1.2179(19)
Ni1B Ni 1.21334(3) 0.72371(4) 0.84126(2)
Ni1D_2 Ni 1.28666(3) 0.77629(4) 1.15874(2)
Ni1F Ni 0.78666(3) 0.27629(4) 1.15874(2)
O1B O 0.69304(17) 0.1224(2) 0.91928(12)
O1F O 0.30696(17) 0.8776(2) 1.08072(12)
O2B O 0.60119(17) 0.1426(2) 0.82008(12)
O2F O 0.39881(17) 0.8574(2) 1.17992(12)
O3D_2 O 0.17557(17) 0.69984(19) 1.11857(12)
loop_
_geom_bond_atom_site_label_1
_geom_bond_atom_site_label_2
_geom_bond_site_symmetry_1
_geom_bond_site_symmetry_2
C1 C2 1_555 1_555
C2 C3 1_555 1_555
C3 C4 1_555 1_555
C4 C5 1_555 1_555
C5 O4 1_555 1_555
C6 C4 1_555 1_555
C7 C6 1_555 1_555
H1 C7 1_555 1_555
C8 C2 1_555 1_555
H2 C8 1_555 1_555
C9 C10 1_555 1_555
C10 H3 1_555 1_555
C11 C10 1_555 1_555
H4 C11 1_555 1_555
C12 H5 1_555 1_555
C13 C6 1_555 1_555
C14 C9 1_555 1_555
H6 C14 1_555 1_555
C15 H7 1_555 1_555
C16 H8 1_555 1_555
C17 C16 1_555 1_555
H9 C17 1_555 1_555
C18 C17 1_555 1_555
C19 C9 1_555 1_555
H10 C19 1_555 1_555
C20 C15 1_555 1_555
H11 C20 1_555 1_555
C21 H12 1_555 1_555
C22 C18 1_555 1_555
H13 C22 1_555 1_555
C23 H14 1_555 1_555
C24 C21 1_555 1_555
C25 C24 1_555 1_555
H15 C25 1_555 1_555
C26 C25 1_555 1_555
H16 C26 1_555 1_555
C27 C23 1_555 1_555
H17 C27 1_555 1_555
N1 C11 1_555 1_555
N2 C15 1_555 1_555
N3 C26 1_555 1_555
Ni1 N1 1_555 1_555
O1 C13 1_555 1_555
O2 C13 1_555 1_555
O3 C1 1_555 1_555
O5 C1 1_555 1_555
O6 Ni1 1_555 1_555
H18 O6 1_555 1_555
H19 O6 1_555 1_555
C1D C2D 1_555 1_555
C2D C3D 1_555 1_555
C3D C5 1_555 1_555
C4D C3D 1_555 1_555
C5D C3 1_555 1_555
C6D C4D 1_555 1_555
C7D C6D 1_555 1_555
H1D C7D 1_555 1_555
C8D C2D 1_555 1_555
H2D C8D 1_555 1_555
O3D C1D 1_555 1_555
O4D C5D 1_555 1_555
O5D C1D 1_555 1_555
C13D C6D 1_555 1_555
O1D C13D 1_555 1_555
O2D C13D 1_555 1_555
C9D C10D 1_555 1_555
C10D H3D 1_555 1_555
C11D C10D 1_555 1_555
H4D C11D 1_555 1_555
C12D H5D 1_555 1_555
C14D C14 1_555 1_555
H6D C14D 1_555 1_555
C19D C9D 1_555 1_555
H10D C19D 1_555 1_555
N1D C11D 1_555 1_555
C15D H7D 1_555 1_555
C16D H8D 1_555 1_555
C17D C16D 1_555 1_555
H9D C17D 1_555 1_555
C18D C17D 1_555 1_555
C20D C15D 1_555 1_555
H11D C20D 1_555 1_555
C21D H12D 1_555 1_555
C22D C18D 1_555 1_555
H13D C22D 1_555 1_555
C23D H14D 1_555 1_555
C24D C21D 1_555 1_555
C25D C24D 1_555 1_555
H15D C25D 1_555 1_555
C26D C25D 1_555 1_555
H16D C26D 1_555 1_555
C27D C23D 1_555 1_555
H17D C27D 1_555 1_555
N2D C15D 1_555 1_555
N3D C26D 1_555 1_555
Ni1D N1D 1_555 1_555
O6D Ni1D 1_555 1_555
H18D O6D 1_555 1_555
H19D O6D 1_555 1_555
Ni1B O1 1_555 1_555
Ni1D_2 O3D 1_555 1_555
Ni1F O1D 1_555 1_555
O1B Ni1 1_555 1_555
O1F Ni1D 1_555 1_555
O2B Ni1 1_555 1_555
O2F Ni1D 1_555 1_555
O3D_2 Ni1D 1_555 1_555
C7 C8 1_555 1_555
C12 C19 1_555 1_555
C12 N1 1_555 1_555
C16 N2 1_555 1_555
C18 C20 1_555 1_555
C21 C22 1_555 1_555
C23 C24 1_555 1_555
C27 N3 1_555 1_555
N2 Ni1 1_555 1_555
Ni1 O3 1_555 1_555
O2 Ni1B 1_555 1_555
C4D C5D 1_555 1_555
C7D C8D 1_555 1_555
O2D Ni1F 1_555 1_555
C9D C14D 1_555 1_555
C12D C19D 1_555 1_555
C12D N1D 1_555 1_555
C16D N2D 1_555 1_555
C18D C20D 1_555 1_555
C21D C22D 1_555 1_555
C23D C24D 1_555 1_555
C27D N3D 1_555 1_555
N2D Ni1D 1_555 1_555

#END
