
#######################################################################
#
#                 Cambridge Crystallographic Data Centre
#                                CCDC 
#
#######################################################################
#
# If this CIF has been generated from an entry in the Cambridge 
# Structural Database, then it will include bibliographic, chemical, 
# crystal, experimental, refinement or atomic coordinate data resulting 
# from the CCDC's data processing and validation procedures.
#
#######################################################################

data_HUCNIE
_symmetry_cell_setting           monoclinic
_symmetry_space_group_name_H-M   'C 2/c'
_symmetry_Int_Tables_number      15
_space_group_name_Hall           '-C 2yn'
loop_
_symmetry_equiv_pos_site_id
_symmetry_equiv_pos_as_xyz
1 x,y,z
2 -x,y,1/2-z
3 1/2+x,1/2+y,z
4 1/2-x,1/2+y,1/2-z
5 -x,-y,-z
6 x,-y,1/2+z
7 1/2-x,1/2-y,-z
8 1/2+x,1/2-y,1/2+z
_cell_length_a                   18.8085(8)
_cell_length_b                   11.8783(5)
_cell_length_c                   19.8616(9)
_cell_angle_alpha                90
_cell_angle_beta                 100.1250(10)
_cell_angle_gamma                90
_cell_volume                     4368.24
loop_
_atom_site_label
_atom_site_type_symbol
_atom_site_fract_x
_atom_site_fract_y
_atom_site_fract_z
C1 C 0.33393(9) 0.48481(14) 0.42854(8)
C2 C 0.27767(9) 0.57366(14) 0.40997(8)
C3 C 0.26250(9) 0.65989(13) 0.45351(8)
C4 C 0.28779(9) 0.64957(14) 0.52885(8)
C5 C 0.21889(9) 0.75101(14) 0.42693(8)
C6 C 0.18676(9) 0.75262(15) 0.35757(8)
C7 C 0.13764(10) 0.84436(15) 0.32234(9)
C8 C 0.19819(11) 0.66232(16) 0.31653(9)
H1 H 0.1749 0.6607 0.2712
C9 C 0.24360(10) 0.57457(16) 0.34171(9)
H2 H 0.2514 0.5159 0.3129
C10 C 0.36253(11) -0.24354(18) 0.05286(10)
H3 H 0.3367 -0.1986 0.0187
C11 C 0.34557(12) -0.23817(18) 0.11738(11)
H4 H 0.3088 -0.1908 0.1259
C12 C 0.38318(11) -0.30326(16) 0.16958(10)
C13 C 0.43672(12) -0.37209(17) 0.15315(10)
H5 H 0.4634 -0.4176 0.1865
C14 C 0.45059(11) -0.37334(16) 0.08716(10)
H6 H 0.4869 -0.4204 0.0773
C15 C 0.36743(13) -0.29739(18) 0.24097(11)
H7 H 0.3925 -0.3580 0.2681
H8 H 0.3160 -0.3072 0.2397
C16 C 0.39129(14) -0.18498(17) 0.27437(11)
H9 H 0.3650 -0.1249 0.2477
H10 H 0.4423 -0.1743 0.2736
C17 C 0.37894(14) -0.17626(16) 0.34808(11)
H11 H 0.3300 -0.1994 0.3507
H12 H 0.4121 -0.2258 0.3771
C18 C 0.39085(12) -0.05632(16) 0.37253(10)
C19 C 0.33457(12) 0.02016(17) 0.36371(11)
H13 H 0.2879 -0.0029 0.3454
C20 C 0.34813(11) 0.13086(17) 0.38233(11)
H14 H 0.3097 0.1812 0.3758
C21 C 0.46771(12) 0.09562(18) 0.41870(13)
H15 H 0.5137 0.1207 0.4377
C22 C 0.45833(13) -0.01705(18) 0.40127(13)
H16 H 0.4975 -0.0661 0.4090
N1 N 0.41356(9) 0.16957(13) 0.40929(9)
N2 N 0.41431(8) -0.31016(13) 0.03671(8)
Ni1 Ni 0.426136(11) 0.336304(17) 0.436251(11)
O1 O 0.53670(7) 0.32841(10) 0.45917(7)
H17 H 0.5513 0.3364 0.4127
H18 H 0.5590 0.3798 0.4872
O2 O 0.43694(7) 0.38898(14) 0.33914(6)
H19 H 0.4758 0.3776 0.3246
H20 H 0.4069 0.3964 0.3025
O3 O 0.39838(6) 0.51227(10) 0.45251(6)
O4 O 0.31779(7) 0.38430(10) 0.41296(6)
O5 O 0.07565(8) 0.84941(13) 0.33702(7)
O6 O 0.16111(8) 0.89873(13) 0.27721(7)
O7 O 0.30790(8) 0.55930(11) 0.55397(6)
C1F C 0.16607(9) 1.01519(14) 0.57146(8)
C2F C 0.22233(9) 0.92634(14) 0.59003(8)
C3F C 0.23750(9) 0.84011(13) 0.54649(8)
C4F C 0.21221(9) 0.85043(14) 0.47115(8)
C5F C 0.28111(9) 0.74899(14) 0.57307(8)
C6F C 0.31324(9) 0.74738(15) 0.64243(8)
C7F C 0.36236(10) 0.65564(15) 0.67766(9)
C8F C 0.30181(11) 0.83768(16) 0.68347(9)
H1F H 0.3251 0.8393 0.7288
C9F C 0.25640(10) 0.92543(16) 0.65829(9)
H2F H 0.2486 0.9841 0.6871
O3F O 0.10162(6) 0.98773(10) 0.54749(6)
O4F O 0.18221(7) 1.11570(10) 0.58704(6)
O5F O 0.42435(8) 0.65059(13) 0.66298(7)
O6F O 0.33889(8) 0.60127(13) 0.72279(7)
O7F O 0.19210(8) 0.94070(11) 0.44603(6)
C10F C 0.13747(11) 1.74354(18) 0.94714(10)
H3F H 0.1633 1.6986 0.9813
C11F C 0.15443(12) 1.73817(18) 0.88262(11)
H4F H 0.1912 1.6908 0.8741
C12F C 0.11682(11) 1.80326(16) 0.83042(10)
C13F C 0.06328(12) 1.87209(17) 0.84685(10)
H5F H 0.0366 1.9176 0.8135
C14F C 0.04941(11) 1.87334(16) 0.91284(10)
H6F H 0.0131 1.9204 0.9227
C15F C 0.13257(13) 1.79739(18) 0.75903(11)
H7F H 0.1075 1.8580 0.7319
H8F H 0.1840 1.8072 0.7603
C16F C 0.10871(14) 1.68498(17) 0.72563(11)
H9F H 0.1350 1.6249 0.7523
H10F H 0.0577 1.6743 0.7264
C17F C 0.12106(14) 1.67626(16) 0.65192(11)
H11F H 0.1700 1.6994 0.6493
H12F H 0.0879 1.7258 0.6229
C18F C 0.10915(12) 1.55632(16) 0.62747(10)
C19F C 0.16543(12) 1.47984(17) 0.63629(11)
H13F H 0.2121 1.5029 0.6546
C20F C 0.15187(11) 1.36914(17) 0.61767(11)
H14F H 0.1903 1.3188 0.6242
C21F C 0.03229(12) 1.40438(18) 0.58130(13)
H15F H -0.0137 1.3793 0.5623
C22F C 0.04167(13) 1.51705(18) 0.59873(13)
H16F H 0.0025 1.5661 0.5910
N1F N 0.08644(9) 1.33043(13) 0.59071(9)
N2F N 0.08569(8) 1.81016(13) 0.96329(8)
Ni1F Ni 0.073864(11) 1.163696(17) 0.563749(11)
O1F O -0.03670(7) 1.17159(10) 0.54083(7)
H17F H -0.0513 1.1636 0.5873
H18F H -0.0590 1.1202 0.5128
O2F O 0.06306(7) 1.11102(14) 0.66086(6)
H19F H 0.0242 1.1224 0.6754
H20F H 0.0931 1.1036 0.6975
N2C N 0.08569(8) 1.18984(13) 0.46329(8)
N2E N 0.41431(8) 0.31016(13) 0.53671(8)
Ni1C Ni 0.073864(11) 1.836304(17) 1.063749(11)
Ni1E Ni 0.426136(11) -0.336304(17) -0.063749(11)
loop_
_geom_bond_atom_site_label_1
_geom_bond_atom_site_label_2
_geom_bond_site_symmetry_1
_geom_bond_site_symmetry_2
C1 C2 1_555 1_555
C2 C3 1_555 1_555
C3 C4 1_555 1_555
C4 O7 1_555 1_555
C5 C3 1_555 1_555
C6 C5 1_555 1_555
C7 C6 1_555 1_555
C8 C6 1_555 1_555
H1 C8 1_555 1_555
C9 C2 1_555 1_555
H2 C9 1_555 1_555
C10 H3 1_555 1_555
C11 C10 1_555 1_555
H4 C11 1_555 1_555
C12 C11 1_555 1_555
C13 C12 1_555 1_555
H5 C13 1_555 1_555
C14 C13 1_555 1_555
H6 C14 1_555 1_555
C15 C12 1_555 1_555
H7 C15 1_555 1_555
H8 C15 1_555 1_555
C16 C15 1_555 1_555
H9 C16 1_555 1_555
H10 C16 1_555 1_555
C17 C16 1_555 1_555
H11 C17 1_555 1_555
H12 C17 1_555 1_555
C18 C17 1_555 1_555
C19 C18 1_555 1_555
H13 C19 1_555 1_555
C20 C19 1_555 1_555
H14 C20 1_555 1_555
C21 H15 1_555 1_555
C22 C18 1_555 1_555
H16 C22 1_555 1_555
N1 C20 1_555 1_555
N2 C10 1_555 1_555
Ni1 N1 1_555 1_555
O1 Ni1 1_555 1_555
H17 O1 1_555 1_555
H18 O1 1_555 1_555
O2 Ni1 1_555 1_555
H19 O2 1_555 1_555
H20 O2 1_555 1_555
O3 C1 1_555 1_555
O4 C1 1_555 1_555
O5 C7 1_555 1_555
O6 C7 1_555 1_555
C1F C2F 1_555 1_555
C2F C3F 1_555 1_555
C3F C4F 1_555 1_555
C4F C5 1_555 1_555
C5F C4 1_555 1_555
C6F C5F 1_555 1_555
C7F C6F 1_555 1_555
C8F C6F 1_555 1_555
H1F C8F 1_555 1_555
C9F C2F 1_555 1_555
H2F C9F 1_555 1_555
O3F C1F 1_555 1_555
O4F C1F 1_555 1_555
O5F C7F 1_555 1_555
O6F C7F 1_555 1_555
O7F C4F 1_555 1_555
C10F H3F 1_555 1_555
C11F C10F 1_555 1_555
H4F C11F 1_555 1_555
C12F C11F 1_555 1_555
C13F C12F 1_555 1_555
H5F C13F 1_555 1_555
C14F C13F 1_555 1_555
H6F C14F 1_555 1_555
C15F C12F 1_555 1_555
H7F C15F 1_555 1_555
H8F C15F 1_555 1_555
C16F C15F 1_555 1_555
H9F C16F 1_555 1_555
H10F C16F 1_555 1_555
C17F C16F 1_555 1_555
H11F C17F 1_555 1_555
H12F C17F 1_555 1_555
C18F C17F 1_555 1_555
C19F C18F 1_555 1_555
H13F C19F 1_555 1_555
C20F C19F 1_555 1_555
H14F C20F 1_555 1_555
C21F H15F 1_555 1_555
C22F C18F 1_555 1_555
H16F C22F 1_555 1_555
N1F C20F 1_555 1_555
N2F C10F 1_555 1_555
Ni1F O3F 1_555 1_555
O1F Ni1F 1_555 1_555
H17F O1F 1_555 1_555
H18F O1F 1_555 1_555
O2F Ni1F 1_555 1_555
H19F O2F 1_555 1_555
H20F O2F 1_555 1_555
N2C Ni1F 1_555 1_555
N2E Ni1 1_555 1_555
Ni1C N2F 1_555 1_555
Ni1E N2 1_555 1_555
C8 C9 1_555 1_555
C14 N2 1_555 1_555
C21 C22 1_555 1_555
C21 N1 1_555 1_555
Ni1 O3 1_555 1_555
Ni1 O4 1_555 1_555
C3F C5F 1_555 1_555
C8F C9F 1_555 1_555
O4F Ni1F 1_555 1_555
C14F N2F 1_555 1_555
C21F C22F 1_555 1_555
C21F N1F 1_555 1_555
N1F Ni1F 1_555 1_555

#END
