
#######################################################################
#
#                 Cambridge Crystallographic Data Centre
#                                CCDC 
#
#######################################################################
#
# If this CIF has been generated from an entry in the Cambridge 
# Structural Database, then it will include bibliographic, chemical, 
# crystal, experimental, refinement or atomic coordinate data resulting 
# from the CCDC's data processing and validation procedures.
#
#######################################################################

data_HUCNOJ
_symmetry_cell_setting           monoclinic
_symmetry_space_group_name_H-M   'C 2/c'
_symmetry_Int_Tables_number      15
_space_group_name_Hall           '-C 2yn'
loop_
_symmetry_equiv_pos_site_id
_symmetry_equiv_pos_as_xyz
1 x,y,z
2 -x,y,1/2-z
3 1/2+x,1/2+y,z
4 1/2-x,1/2+y,1/2-z
5 -x,-y,-z
6 x,-y,1/2+z
7 1/2-x,1/2-y,-z
8 1/2+x,1/2-y,1/2+z
_cell_length_a                   14.201(5)
_cell_length_b                   8.064(5)
_cell_length_c                   16.940(5)
_cell_angle_alpha                90
_cell_angle_beta                 111.655(5)
_cell_angle_gamma                90
_cell_volume                     1803
loop_
_atom_site_label
_atom_site_type_symbol
_atom_site_fract_x
_atom_site_fract_y
_atom_site_fract_z
I1 I 0.5000 -0.19054(3) 0.2500
Cu1 Cu 0.5000 0.12185(4) 0.2500
S1 S 0.52076(4) 0.34963(8) 0.11434(3)
N1 N 0.32885(12) 0.4555(2) 0.05807(11)
N2 N 0.38109(11) 0.2506(2) 0.16787(9)
C1 C 0.21161(14) 0.3484(3) 0.11508(12)
H1 H 0.1466 0.3468 0.1161
C2 C 0.23460(14) 0.4530(2) 0.06006(12)
C3 C 0.28616(14) 0.2463(3) 0.16853(11)
C4 C 0.52381(15) 0.5214(3) 0.04659(12)
H2 H 0.4881 0.6149 0.0584
H3 H 0.5936 0.5545 0.0597
C5 C 0.39619(13) 0.3559(2) 0.11190(11)
C6 C 0.15807(18) 0.5669(3) 0.00052(16)
H4 H 0.1729 0.6791 0.0202
H5 H 0.0916 0.5374 -0.0017
H6 H 0.1605 0.5575 -0.0552
C7 C 0.26594(15) 0.1282(3) 0.22824(14)
H7 H 0.2754 0.0165 0.2128
H8 H 0.1975 0.1419 0.2252
H9 H 0.3119 0.1500 0.2851
Cu1D Cu 0.5000 0.87815(4) -0.2500
S1D S 0.47924(4) 0.65037(8) -0.11434(3)
N1D N 0.67115(12) 0.5445(2) -0.05807(11)
N2D N 0.61891(11) 0.7494(2) -0.16787(9)
N2A N 0.61891(11) 0.2506(2) 0.33213(9)
C1D C 0.78839(14) 0.6516(3) -0.11508(12)
H1D H 0.8534 0.6532 -0.1161
C2D C 0.76540(14) 0.5470(2) -0.06006(12)
C3D C 0.71384(14) 0.7537(3) -0.16853(11)
C4D C 0.47619(15) 0.4786(3) -0.04659(12)
H2D H 0.5119 0.3851 -0.0584
H3D H 0.4064 0.4455 -0.0597
C5D C 0.60381(13) 0.6441(2) -0.11190(11)
C6D C 0.84193(18) 0.4331(3) -0.00052(16)
H4D H 0.8271 0.3209 -0.0202
H5D H 0.9084 0.4626 0.0017
H6D H 0.8395 0.4425 0.0552
C7D C 0.73406(15) 0.8718(3) -0.22824(14)
H7D H 0.7246 0.9835 -0.2128
H8D H 0.8025 0.8581 -0.2252
H9D H 0.6881 0.8500 -0.2851
loop_
_geom_bond_atom_site_label_1
_geom_bond_atom_site_label_2
_geom_bond_site_symmetry_1
_geom_bond_site_symmetry_2
I1 Cu1 1_555 1_555
Cu1 N2 1_555 1_555
S1 C4 1_555 1_555
N1 C2 1_555 1_555
N2 C3 1_555 1_555
C1 H1 1_555 1_555
C2 C1 1_555 1_555
C3 C1 1_555 1_555
C4 H2 1_555 1_555
H3 C4 1_555 1_555
C5 S1 1_555 1_555
C6 C2 1_555 1_555
H4 C6 1_555 1_555
H5 C6 1_555 1_555
H6 C6 1_555 1_555
C7 C3 1_555 1_555
H7 C7 1_555 1_555
H8 C7 1_555 1_555
H9 C7 1_555 1_555
Cu1D N2D 1_555 1_555
S1D C4D 1_555 1_555
N1D C2D 1_555 1_555
N2D C3D 1_555 1_555
N2A Cu1 1_555 1_555
C1D H1D 1_555 1_555
C2D C1D 1_555 1_555
C3D C1D 1_555 1_555
C4D C4 1_555 1_555
H2D C4D 1_555 1_555
H3D C4D 1_555 1_555
C5D S1D 1_555 1_555
C6D C2D 1_555 1_555
H4D C6D 1_555 1_555
H5D C6D 1_555 1_555
H6D C6D 1_555 1_555
C7D C3D 1_555 1_555
H7D C7D 1_555 1_555
H8D C7D 1_555 1_555
H9D C7D 1_555 1_555
N1 C5 1_555 1_555
N2 C5 1_555 1_555
N1D C5D 1_555 1_555
N2D C5D 1_555 1_555

#END
