
#######################################################################
#
#                 Cambridge Crystallographic Data Centre
#                                CCDC 
#
#######################################################################
#
# If this CIF has been generated from an entry in the Cambridge 
# Structural Database, then it will include bibliographic, chemical, 
# crystal, experimental, refinement or atomic coordinate data resulting 
# from the CCDC's data processing and validation procedures.
#
#######################################################################

data_HUCNOK
_symmetry_cell_setting           monoclinic
_symmetry_space_group_name_H-M   'C 2/c'
_symmetry_Int_Tables_number      15
_space_group_name_Hall           '-C 2yn'
loop_
_symmetry_equiv_pos_site_id
_symmetry_equiv_pos_as_xyz
1 x,y,z
2 -x,y,1/2-z
3 1/2+x,1/2+y,z
4 1/2-x,1/2+y,1/2-z
5 -x,-y,-z
6 x,-y,1/2+z
7 1/2-x,1/2-y,-z
8 1/2+x,1/2-y,1/2+z
_cell_length_a                   20.072(4)
_cell_length_b                   11.254(2)
_cell_length_c                   11.869(2)
_cell_angle_alpha                90
_cell_angle_beta                 106.364(4)
_cell_angle_gamma                90
_cell_volume                     2572.48
loop_
_atom_site_label
_atom_site_type_symbol
_atom_site_fract_x
_atom_site_fract_y
_atom_site_fract_z
Ni1 Ni 0.5000 0.20022(6) 0.7500
O1 O 0.88379(13) -0.0554(2) 0.5228(2)
O2 O 0.79845(13) -0.1396(2) 0.3875(2)
O3 O 0.81625(13) 0.1406(2) 0.3647(2)
O4 O 0.66914(12) 0.1618(2) 0.8183(2)
O5 O 0.57708(11) 0.18566(19) 0.66254(17)
O6 O 0.56927(12) 0.2022(2) 0.9184(2)
H1 H 0.6041(10) 0.190(3) 0.892(3)
H2 H 0.5731(17) 0.2760(6) 0.934(3)
N1 N 0.5000 0.3847(3) 0.7500
N2 N 0.5000 1.0134(3) 0.7500
C1 C 0.82220(19) -0.0644(3) 0.4746(3)
C2 C 0.76997(17) -0.0001(3) 0.5204(3)
C3 C 0.75828(16) 0.1213(3) 0.5096(3)
C4 C 0.71536(16) 0.1771(3) 0.5690(3)
C5 C 0.68180(17) 0.1097(3) 0.6349(3)
C6 C 0.69137(18) -0.0116(3) 0.6395(3)
H3 H 0.6676 -0.0579 0.6804
C7 C 0.73546(17) -0.0658(3) 0.5846(3)
H4 H 0.7420 -0.1476 0.5909
C8 C 0.78973(16) 0.1920(3) 0.4319(3)
C9 C 0.63888(19) 0.1599(3) 0.7092(3)
C10 C 0.51324(19) 0.8295(3) 0.8528(3)
H5 H 0.5218 0.7903 0.9245
C11 C 0.51376(19) 0.9510(3) 0.8493(3)
H6 H 0.5243 0.9923 0.9200
C12 C 0.46361(18) 0.4477(3) 0.8075(3)
H7 H 0.4375 0.4066 0.8481
C13 C 0.46250(18) 0.5696(3) 0.8101(3)
H8 H 0.4365 0.6087 0.8524
C14 C 0.5000 0.6338(4) 0.7500
C15 C 0.5000 0.7652(4) 0.7500
O1F O 0.61621(13) 0.5554(2) 0.4772(2)
O2F O 0.70155(13) 0.6396(2) 0.6125(2)
O3F O 0.68375(13) 0.3594(2) 0.6353(2)
O4F O 0.83086(12) 0.3382(2) 0.1817(2)
O5F O 0.92292(11) 0.31434(19) 0.33746(17)
C1F C 0.67780(19) 0.5644(3) 0.5254(3)
C2F C 0.73003(17) 0.5001(3) 0.4796(3)
C3F C 0.74172(16) 0.3787(3) 0.4904(3)
C4F C 0.78464(16) 0.3229(3) 0.4310(3)
C5F C 0.81820(17) 0.3903(3) 0.3651(3)
C6F C 0.80863(18) 0.5116(3) 0.3605(3)
H3F H 0.8324 0.5579 0.3196
C7F C 0.76454(17) 0.5658(3) 0.4154(3)
H4F H 0.7580 0.6476 0.4091
C8F C 0.71027(16) 0.3080(3) 0.5681(3)
C9F C 0.86112(19) 0.3401(3) 0.2908(3)
C12A C 0.53639(18) 0.4477(3) 0.6925(3)
H7A H 0.5625 0.4066 0.6519
C13A C 0.53750(18) 0.5696(3) 0.6899(3)
H8A H 0.5635 0.6087 0.6476
C10A C 0.48676(19) 0.8295(3) 0.6472(3)
H5A H 0.4782 0.7903 0.5755
C11A C 0.48624(19) 0.9510(3) 0.6507(3)
H6A H 0.4757 0.9923 0.5800
O6A O 0.43073(12) 0.2022(2) 0.5816(2)
H1A H 0.3959(10) 0.190(3) 0.608(3)
H2A H 0.4269(17) 0.2760(6) 0.566(3)
Ni1_2 Ni 0.5000 1.20022(6) 0.7500
Ni1F Ni 1.0000 0.29978(6) 0.2500
O5A O 0.42292(11) 0.18566(19) 0.83746(17)
N2_2 N 0.5000 0.0134(3) 0.7500
loop_
_geom_bond_atom_site_label_1
_geom_bond_atom_site_label_2
_geom_bond_site_symmetry_1
_geom_bond_site_symmetry_2
Ni1 O5 1_555 1_555
O1 C1 1_555 1_555
O2 C1 1_555 1_555
O3 C8 1_555 1_555
O4 C9 1_555 1_555
O5 C9 1_555 1_555
O6 Ni1 1_555 1_555
H1 O6 1_555 1_555
H2 O6 1_555 1_555
N1 Ni1 1_555 1_555
N2 C11 1_555 1_555
C1 C2 1_555 1_555
C2 C3 1_555 1_555
C3 C4 1_555 1_555
C4 C5 1_555 1_555
C5 C6 1_555 1_555
C6 H3 1_555 1_555
C7 C2 1_555 1_555
H4 C7 1_555 1_555
C8 C3 1_555 1_555
C9 C5 1_555 1_555
C10 H5 1_555 1_555
C11 C10 1_555 1_555
H6 C11 1_555 1_555
C12 N1 1_555 1_555
H7 C12 1_555 1_555
C13 C12 1_555 1_555
H8 C13 1_555 1_555
C14 C13 1_555 1_555
C15 C10 1_555 1_555
O1F C1F 1_555 1_555
O2F C1F 1_555 1_555
O3F C8F 1_555 1_555
O4F C9F 1_555 1_555
O5F C9F 1_555 1_555
C1F C2F 1_555 1_555
C2F C3F 1_555 1_555
C3F C4F 1_555 1_555
C4F C8 1_555 1_555
C5F C4F 1_555 1_555
C6F C5F 1_555 1_555
H3F C6F 1_555 1_555
C7F C2F 1_555 1_555
H4F C7F 1_555 1_555
C8F C4 1_555 1_555
C9F C5F 1_555 1_555
C12A N1 1_555 1_555
H7A C12A 1_555 1_555
C13A C14 1_555 1_555
H8A C13A 1_555 1_555
C10A C15 1_555 1_555
H5A C10A 1_555 1_555
C11A N2 1_555 1_555
H6A C11A 1_555 1_555
O6A Ni1 1_555 1_555
H1A O6A 1_555 1_555
H2A O6A 1_555 1_555
Ni1_2 N2 1_555 1_555
Ni1F O5F 1_555 1_555
O5A Ni1 1_555 1_555
N2_2 Ni1 1_555 1_555
C6 C7 1_555 1_555
C14 C15 1_555 1_555
C3F C8F 1_555 1_555
C6F C7F 1_555 1_555
C12A C13A 1_555 1_555
C10A C11A 1_555 1_555

#END
