
#######################################################################
#
#                 Cambridge Crystallographic Data Centre
#                                CCDC 
#
#######################################################################
#
# If this CIF has been generated from an entry in the Cambridge 
# Structural Database, then it will include bibliographic, chemical, 
# crystal, experimental, refinement or atomic coordinate data resulting 
# from the CCDC's data processing and validation procedures.
#
#######################################################################

data_HUCPUS
_symmetry_cell_setting           monoclinic
_symmetry_space_group_name_H-M   'C 2/c'
_symmetry_Int_Tables_number      15
_space_group_name_Hall           '-C 2yn'
loop_
_symmetry_equiv_pos_site_id
_symmetry_equiv_pos_as_xyz
1 x,y,z
2 -x,y,1/2-z
3 1/2+x,1/2+y,z
4 1/2-x,1/2+y,1/2-z
5 -x,-y,-z
6 x,-y,1/2+z
7 1/2-x,1/2-y,-z
8 1/2+x,1/2-y,1/2+z
_cell_length_a                   16.883(2)
_cell_length_b                   14.6655(18)
_cell_length_c                   21.033(3)
_cell_angle_alpha                90
_cell_angle_beta                 113.0670(10)
_cell_angle_gamma                90
_cell_volume                     4791.35
loop_
_atom_site_label
_atom_site_type_symbol
_atom_site_fract_x
_atom_site_fract_y
_atom_site_fract_z
Mo1 Mo 0.03629(2) 0.27299(3) 0.110935(19)
Mo2 Mo 0.0000 0.48237(4) 0.2500
Mn1 Mn 0.0000 0.26538(6) 0.2500
Mo3 Mo 0.16807(2) 0.37532(3) 0.25666(2)
Mo4 Mo -0.12115(3) 0.15551(3) 0.11584(2)
Mo5 Mo -0.16019(3) 0.14747(3) 0.25305(2)
O1 O 0.02708(19) 0.35893(19) 0.19907(15)
O2 O 0.01529(19) 0.1817(2) 0.18645(15)
O3 O 0.12068(19) 0.2552(2) 0.30229(16)
O4 O -0.1250(2) 0.0808(2) 0.19123(17)
O5 O 0.15366(19) 0.2656(2) 0.19182(16)
O6 O 0.0458(2) 0.3721(2) 0.07107(17)
O7 O 0.1206(2) 0.4522(2) 0.30487(16)
O8 O -0.0850(2) 0.2609(2) 0.07567(16)
O9 O -0.2678(2) 0.1581(3) 0.2073(2)
O10 O 0.2697(2) 0.3562(2) 0.31738(19)
O11 O 0.0112(2) 0.5535(2) 0.18926(17)
O12 O 0.0615(2) 0.1887(2) 0.06597(17)
O13 O 0.1805(2) 0.4496(2) 0.19871(17)
O14 O -0.2286(2) 0.1740(3) 0.06971(18)
O15 O -0.0937(2) 0.0699(2) 0.07317(18)
O16 O -0.1491(2) 0.0676(2) 0.31532(18)
Cu1 Cu 0.0000 0.5000 0.0000
O17 O -0.0707(2) 0.5344(2) 0.05007(18)
H1 H -0.1068 0.4923 0.0463
H2 H -0.0388 0.5423 0.0925
O18 O 0.1039(2) 0.5577(3) 0.07306(18)
H3 H 0.1075 0.6129 0.0622
H4 H 0.0989 0.5558 0.1117
Cu2 Cu 0.07997(7) 0.05845(8) -0.00317(6)
O19 O -0.0301(4) 0.0591(8) -0.0554(5)
H5 H -0.0372 0.0437 -0.0963
H6 H -0.0486 0.1130 -0.0557
O20 O 0.1818(3) 0.0291(3) 0.0704(2)
H7 H 0.1713 -0.0097 0.0960
H8 H 0.2029 0.0770 0.0936
N1 N 0.1431(4) 0.1466(4) -0.0424(3)
C1 C 0.1239(5) 0.2344(5) -0.0538(4)
H9 H 0.0822 0.2605 -0.0385
C2 C 0.1973(4) 0.1076(4) -0.0655(4)
H10 H 0.2115 0.0444 -0.0553
C3 C 0.1595(5) 0.2866(4) -0.0905(4)
H11 H 0.1488 0.3510 -0.0957
C4 C 0.2341(5) 0.1554(5) -0.1028(4)
H12 H 0.2740 0.1269 -0.1189
C5 C 0.2156(5) 0.2461(5) -0.1148(4)
H13 H 0.2372 0.2801 -0.1436
Mo1A Mo -0.03629(2) 0.27299(3) 0.389065(19)
Mo3A Mo -0.16807(2) 0.37532(3) 0.24334(2)
Mo4A Mo 0.12115(3) 0.15551(3) 0.38416(2)
Mo5A Mo 0.16019(3) 0.14747(3) 0.24695(2)
O1A O -0.02708(19) 0.35893(19) 0.30093(15)
O2A O -0.01529(19) 0.1817(2) 0.31355(15)
O3A O -0.12068(19) 0.2552(2) 0.19771(16)
O4A O 0.1250(2) 0.0808(2) 0.30877(17)
O5A O -0.15366(19) 0.2656(2) 0.30818(16)
O6A O -0.0458(2) 0.3721(2) 0.42893(17)
O7A O -0.1206(2) 0.4522(2) 0.19513(16)
O8A O 0.0850(2) 0.2609(2) 0.42433(16)
O9A O 0.2678(2) 0.1581(3) 0.2927(2)
O10A O -0.2697(2) 0.3562(2) 0.18262(19)
O11A O -0.0112(2) 0.5535(2) 0.31074(17)
O12A O -0.0615(2) 0.1887(2) 0.43403(17)
O13A O -0.1805(2) 0.4496(2) 0.30129(17)
O14A O 0.2286(2) 0.1740(3) 0.43029(18)
O15A O 0.0937(2) 0.0699(2) 0.42683(18)
O16A O 0.1491(2) 0.0676(2) 0.18468(18)
Cu2A Cu -0.07997(7) 0.05845(8) 0.50317(6)
O19A O 0.0301(4) 0.0591(8) 0.5554(5)
H5A H 0.0372 0.0437 0.5963
H6A H 0.0486 0.1130 0.5557
O20A O -0.1818(3) 0.0291(3) 0.4296(2)
H7A H -0.1713 -0.0097 0.4040
H8A H -0.2029 0.0770 0.4064
N1A N -0.1431(4) 0.1466(4) 0.5424(3)
C1A C -0.1239(5) 0.2344(5) 0.5538(4)
H9A H -0.0822 0.2605 0.5385
C2A C -0.1973(4) 0.1076(4) 0.5655(4)
H10A H -0.2115 0.0444 0.5553
C3A C -0.1595(5) 0.2866(4) 0.5905(4)
H11A H -0.1488 0.3510 0.5957
C4A C -0.2341(5) 0.1554(5) 0.6028(4)
H12A H -0.2740 0.1269 0.6189
C5A C -0.2156(5) 0.2461(5) 0.6148(4)
H13A H -0.2372 0.2801 0.6436
O17D O 0.0707(2) 0.4656(2) -0.05007(18)
H1D H 0.1068 0.5077 -0.0463
H2D H 0.0388 0.4577 -0.0925
O18D O -0.1039(2) 0.4423(3) -0.07306(18)
H3D H -0.1075 0.3871 -0.0622
H4D H -0.0989 0.4442 -0.1117
O6D O -0.0458(2) 0.6279(2) -0.07107(17)
O15D O 0.0937(2) -0.0699(2) -0.07317(18)
O15E O -0.0937(2) -0.0699(2) 0.57317(18)
Cu1A Cu 0.0000 0.5000 0.5000
Cu2D Cu -0.07997(7) -0.05845(8) 0.00317(6)
Cu2E Cu 0.07997(7) -0.05845(8) 0.49683(6)
O19D O 0.0301(4) -0.0591(8) 0.0554(5)
O19E O -0.0301(4) -0.0591(8) 0.4446(5)
O21 O 0.1072(3) 0.7502(3) 0.0712(2)
N2 N 1.0000 0.7564(7) 0.2500
C6 C 0.9474(7) 0.8031(8) 0.2745(5)
H14 H 0.9081 0.7738 0.2908
C7 C 1.0000 0.9340(8) 0.2500
H15 H 1.0000 0.9993 0.2500
C8 C 0.9517(8) 0.8946(8) 0.2738(6)
H16 H 0.9171 0.9316 0.2906
C6A C 1.0526(7) 0.8031(8) 0.2255(5)
H14A H 1.0919 0.7738 0.2092
C8A C 1.0483(8) 0.8946(8) 0.2262(6)
H16A H 1.0829 0.9316 0.2094
O22 O 0.8047(2) 0.4215(3) 0.05278(19)
loop_
_geom_bond_atom_site_label_1
_geom_bond_atom_site_label_2
_geom_bond_site_symmetry_1
_geom_bond_site_symmetry_2
Mo1 O1 1_555 1_555
Mo2 O1 1_555 1_555
Mn1 O1 1_555 1_555
Mo3 O1 1_555 1_555
Mo4 O2 1_555 1_555
Mo5 O4 1_555 1_555
O2 Mo1 1_555 1_555
O3 Mn1 1_555 1_555
O4 Mo4 1_555 1_555
O5 Mo1 1_555 1_555
O6 Mo1 1_555 1_555
O7 Mo2 1_555 1_555
O8 Mo1 1_555 1_555
O9 Mo5 1_555 1_555
O10 Mo3 1_555 1_555
O11 Mo2 1_555 1_555
O12 Mo1 1_555 1_555
O13 Mo3 1_555 1_555
O14 Mo4 1_555 1_555
O15 Mo4 1_555 1_555
O16 Mo5 1_555 1_555
Cu1 O6 1_555 1_555
O17 Cu1 1_555 1_555
H1 O17 1_555 1_555
H2 O17 1_555 1_555
O18 Cu1 1_555 1_555
H3 O18 1_555 1_555
H4 O18 1_555 1_555
Cu2 O12 1_555 1_555
O19 Cu2 1_555 1_555
H5 O19 1_555 1_555
H6 O19 1_555 1_555
O20 Cu2 1_555 1_555
H7 O20 1_555 1_555
H8 O20 1_555 1_555
N1 Cu2 1_555 1_555
C1 N1 1_555 1_555
H9 C1 1_555 1_555
C2 N1 1_555 1_555
H10 C2 1_555 1_555
C3 C1 1_555 1_555
H11 C3 1_555 1_555
C4 C2 1_555 1_555
H12 C4 1_555 1_555
C5 C3 1_555 1_555
H13 C5 1_555 1_555
N2 C6 1_555 1_555
C6 H14 1_555 1_555
C7 H15 1_555 1_555
C8 C6 1_555 1_555
H16 C8 1_555 1_555
Mo1A O1A 1_555 1_555
Mo3A O1A 1_555 1_555
Mo4A O3 1_555 1_555
Mo5A O2 1_555 1_555
O1A Mo2 1_555 1_555
O2A Mn1 1_555 1_555
O3A Mn1 1_555 1_555
O4A Mo4A 1_555 1_555
O5A Mo5 1_555 1_555
O6A Mo1A 1_555 1_555
O7A Mo2 1_555 1_555
O8A Mo1A 1_555 1_555
O9A Mo5A 1_555 1_555
O10A Mo3A 1_555 1_555
O11A Mo2 1_555 1_555
O12A Mo1A 1_555 1_555
O13A Mo3A 1_555 1_555
O14A Mo4A 1_555 1_555
O15A Mo4A 1_555 1_555
O16A Mo5A 1_555 1_555
Cu2A O12A 1_555 1_555
O19A Cu2A 1_555 1_555
H5A O19A 1_555 1_555
H6A O19A 1_555 1_555
O20A Cu2A 1_555 1_555
H7A O20A 1_555 1_555
H8A O20A 1_555 1_555
N1A Cu2A 1_555 1_555
C1A N1A 1_555 1_555
H9A C1A 1_555 1_555
C2A N1A 1_555 1_555
H10A C2A 1_555 1_555
C3A C1A 1_555 1_555
H11A C3A 1_555 1_555
C4A C2A 1_555 1_555
H12A C4A 1_555 1_555
C5A C3A 1_555 1_555
H13A C5A 1_555 1_555
O17D Cu1 1_555 1_555
H1D O17D 1_555 1_555
H2D O17D 1_555 1_555
O18D Cu1 1_555 1_555
H3D O18D 1_555 1_555
H4D O18D 1_555 1_555
O6D Cu1 1_555 1_555
O15D Cu2 1_555 1_555
O15E Cu2A 1_555 1_555
Cu1A O6A 1_555 1_555
Cu2D O15 1_555 1_555
Cu2E O15A 1_555 1_555
O19D Cu2 1_555 1_555
O19E Cu2A 1_555 1_555
C6A N2 1_555 1_555
H14A C6A 1_555 1_555
C8A C7 1_555 1_555
H16A C8A 1_555 1_555
Mn1 O2 1_555 1_555
Mn1 O1A 1_555 1_555
Mo3 O3 1_555 1_555
Mo3 O5 1_555 1_555
Mo3 O7 1_555 1_555
Mo4 O8 1_555 1_555
Mo4 O3A 1_555 1_555
Mo5 O2A 1_555 1_555
Mo5 O3A 1_555 1_555
O3 Mo5A 1_555 1_555
O5 Mo5A 1_555 1_555
O19 Cu2D 1_555 1_555
C4 C5 1_555 1_555
C7 C8 1_555 1_555
Mo1A O2A 1_555 1_555
Mo1A O5A 1_555 1_555
Mo3A O3A 1_555 1_555
Mo3A O5A 1_555 1_555
Mo3A O7A 1_555 1_555
Mo4A O2A 1_555 1_555
Mo4A O8A 1_555 1_555
Mo5A O4A 1_555 1_555
O19A Cu2E 1_555 1_555
C4A C5A 1_555 1_555
Cu2D O19D 1_555 1_555
Cu2E O19E 1_555 1_555
C6A C8A 1_555 1_555

#END
