
#######################################################################
#
#                 Cambridge Crystallographic Data Centre
#                                CCDC 
#
#######################################################################
#
# If this CIF has been generated from an entry in the Cambridge 
# Structural Database, then it will include bibliographic, chemical, 
# crystal, experimental, refinement or atomic coordinate data resulting 
# from the CCDC's data processing and validation procedures.
#
#######################################################################

data_HUCXIO
_symmetry_cell_setting           monoclinic
_symmetry_space_group_name_H-M   'P 21/n'
_symmetry_Int_Tables_number      14
_space_group_name_Hall           '-P 2yn'
loop_
_symmetry_equiv_pos_site_id
_symmetry_equiv_pos_as_xyz
1 x,y,z
2 1/2-x,1/2+y,1/2-z
3 -x,-y,-z
4 1/2+x,1/2-y,1/2+z
_cell_length_a                   16.2078(5)
_cell_length_b                   8.7082(3)
_cell_length_c                   20.8775(6)
_cell_angle_alpha                90
_cell_angle_beta                 94.748(3)
_cell_angle_gamma                90
_cell_volume                     2936.55
loop_
_atom_site_label
_atom_site_type_symbol
_atom_site_fract_x
_atom_site_fract_y
_atom_site_fract_z
Dy1 Dy 0.242724(19) 0.22225(4) 0.712689(17)
O1 O 0.1276(3) 0.3581(6) 0.6627(2)
O2 O 0.3674(3) 0.3226(6) 0.7488(3)
O3 O 1.1793(3) 0.5396(6) 0.8389(2)
O4 O 1.1785(3) 0.3015(6) 0.8010(2)
O5 O 0.3621(3) 0.5473(6) 0.7994(3)
O6 O 0.2129(3) 0.5355(6) 0.7054(2)
O7 O 0.2787(3) 0.3206(7) 0.6140(3)
N1 N -0.0148(4) 0.9342(7) 0.4995(3)
N2 N 0.7557(5) 0.4580(11) 0.8411(4)
N3 N 0.7838(5) 0.3609(12) 0.8109(5)
N4 N 0.3516(7) 0.2752(13) 0.5299(6)
C1 C 0.1528(4) 0.4948(10) 0.6654(4)
C2 C 0.1110(4) 0.6104(9) 0.6205(4)
C3 C 0.1488(5) 0.7509(9) 0.6098(4)
H1 H 0.2008 0.7718 0.6301
C4 C 0.1103(4) 0.8590(9) 0.5698(4)
H2 H 0.1358 0.9528 0.5634
C5 C 0.0322(5) 0.8264(9) 0.5387(4)
C6 C -0.0045(5) 0.6824(10) 0.5473(4)
H3 H -0.0557 0.6598 0.5258
C7 C 0.0349(5) 0.5747(9) 0.5872(4)
H4 H 0.0110 0.4787 0.5921
C8 C 0.3999(4) 0.4339(9) 0.7807(4)
C9 C 0.4922(4) 0.4260(9) 0.7974(4)
C10 C 0.5309(5) 0.5388(11) 0.8371(4)
H5 H 0.4992 0.6146 0.8546
C11 C 0.6165(6) 0.5385(14) 0.8506(5)
H6 H 0.6420 0.6121 0.8778
C12 C 0.6618(7) 0.4299(14) 0.8238(6)
C13 C 0.6258(6) 0.3125(13) 0.7860(6)
H7 H 0.6580 0.2356 0.7698
C14 C 0.5386(5) 0.3133(11) 0.7729(5)
H8 H 0.5130 0.2366 0.7474
C15 C 1.1433(4) 0.4173(9) 0.8222(4)
C16 C 1.0516(4) 0.4073(10) 0.8261(4)
C17 C 1.0098(5) 0.5181(11) 0.8592(4)
H9 H 1.0386 0.5952 0.8824
C18 C 0.9214(6) 0.5100(13) 0.8566(5)
H10 H 0.8922 0.5835 0.8778
C19 C 0.8797(6) 0.3952(15) 0.8233(5)
C20 C 0.9216(7) 0.2886(13) 0.7926(6)
H11 H 0.8926 0.2099 0.7707
C21 C 1.0079(5) 0.2933(12) 0.7929(5)
H12 H 1.0356 0.2193 0.7707
C22 C 0.3391(6) 0.3380(13) 0.5806(5)
C23 C 0.4133(7) 0.4519(14) 0.6061(6)
H13 H 0.3958 0.5137 0.6405
H14 H 0.4274 0.5172 0.5716
H15 H 0.4608 0.3924 0.6213
C24 C 0.4227(7) 0.2902(14) 0.4911(6)
H16 H 0.4136 0.3749 0.4619
H17 H 0.4289 0.1974 0.4672
H18 H 0.4720 0.3081 0.5189
C25 C 0.2769(8) 0.1713(16) 0.5075(6)
H19 H 0.2899 0.0664 0.5182
H20 H 0.2653 0.1807 0.4618
H21 H 0.2293 0.2026 0.5286
O1B O -0.1276(3) 1.6419(6) 0.3373(2)
N1B N 0.0148(4) 1.0658(7) 0.5005(3)
C1B C -0.1528(4) 1.5052(10) 0.3346(4)
C2B C -0.1110(4) 1.3896(9) 0.3795(4)
C3B C -0.1488(5) 1.2491(9) 0.3902(4)
H1B H -0.2008 1.2282 0.3699
C4B C -0.1103(4) 1.1410(9) 0.4302(4)
H2B H -0.1358 1.0472 0.4366
C5B C -0.0322(5) 1.1736(9) 0.4613(4)
C6B C 0.0045(5) 1.3176(10) 0.4527(4)
H3B H 0.0557 1.3402 0.4742
C7B C -0.0349(5) 1.4253(9) 0.4128(4)
H4B H -0.0110 1.5213 0.4079
O6B O -0.2129(3) 1.4645(6) 0.2946(2)
Dy1B Dy -0.242724(19) 1.77775(4) 0.287311(17)
O2B O -0.3674(3) 1.6774(6) 0.2512(3)
O3B O -1.1793(3) 1.4604(6) 0.1611(2)
O4B O -1.1785(3) 1.6985(6) 0.1990(2)
O5B O -0.3621(3) 1.4527(6) 0.2006(3)
O7B O -0.2787(3) 1.6794(7) 0.3860(3)
N2B N -0.7557(5) 1.5420(11) 0.1589(4)
N3B N -0.7838(5) 1.6391(12) 0.1891(5)
N4B N -0.3516(7) 1.7248(13) 0.4701(6)
C8B C -0.3999(4) 1.5661(9) 0.2193(4)
C9B C -0.4922(4) 1.5740(9) 0.2026(4)
C10B C -0.5309(5) 1.4612(11) 0.1629(4)
H5B H -0.4992 1.3854 0.1454
C11B C -0.6165(6) 1.4615(14) 0.1494(5)
H6B H -0.6420 1.3879 0.1222
C12B C -0.6618(7) 1.5701(14) 0.1762(6)
C13B C -0.6258(6) 1.6875(13) 0.2140(6)
H7B H -0.6580 1.7644 0.2302
C14B C -0.5386(5) 1.6867(11) 0.2271(5)
H8B H -0.5130 1.7634 0.2526
C15B C -1.1433(4) 1.5827(9) 0.1778(4)
C16B C -1.0516(4) 1.5927(10) 0.1739(4)
C17B C -1.0098(5) 1.4819(11) 0.1408(4)
H9B H -1.0386 1.4048 0.1176
C18B C -0.9214(6) 1.4900(13) 0.1434(5)
H10B H -0.8922 1.4165 0.1222
C19B C -0.8797(6) 1.6048(15) 0.1767(5)
C20B C -0.9216(7) 1.7114(13) 0.2074(6)
H11B H -0.8926 1.7901 0.2293
C21B C -1.0079(5) 1.7067(12) 0.2071(5)
H12B H -1.0356 1.7807 0.2293
C22B C -0.3391(6) 1.6620(13) 0.4194(5)
C23B C -0.4133(7) 1.5481(14) 0.3939(6)
H13B H -0.3958 1.4863 0.3595
H14B H -0.4274 1.4828 0.4284
H15B H -0.4608 1.6076 0.3787
C24B C -0.4227(7) 1.7098(14) 0.5089(6)
H16B H -0.4136 1.6251 0.5381
H17B H -0.4289 1.8026 0.5328
H18B H -0.4720 1.6919 0.4811
C25B C -0.2769(8) 1.8287(16) 0.4925(6)
H19B H -0.2899 1.9336 0.4818
H20B H -0.2653 1.8193 0.5382
H21B H -0.2293 1.7974 0.4714
Dy1_2 Dy 1.242724(19) 0.22225(4) 0.712689(17)
Dy1A Dy 0.257276(19) 0.72225(4) 0.787311(17)
Dy1A_2 Dy 1.257276(19) 0.72225(4) 0.787311(17)
Dy1B_2 Dy -1.242724(19) 1.77775(4) 0.287311(17)
Dy1C Dy -1.257276(19) 1.27775(4) 0.212689(17)
Dy1C_2 Dy -0.257276(19) 1.27775(4) 0.212689(17)
O3A O 0.3207(3) 0.0396(6) 0.6611(2)
O3C O -0.3207(3) 1.9604(6) 0.3389(2)
O4_2 O 0.1785(3) 0.3015(6) 0.8010(2)
O4B_2 O -0.1785(3) 1.6985(6) 0.1990(2)
O5A O 0.1379(3) 0.0473(6) 0.7006(3)
O5C O -0.1379(3) 1.9527(6) 0.2994(3)
O6A O 0.2871(3) 0.0355(6) 0.7946(2)
O6C O -0.2871(3) 1.9645(6) 0.2054(2)
O8 O 0.3937(6) 0.6633(13) 0.4336(6)
N5 N 0.2656(7) 0.5924(15) 0.4187(6)
C26 C 0.3287(9) 0.6603(19) 0.4511(8)
C27 C 0.3118(12) 0.740(2) 0.5144(11)
H22 H 0.3626 0.7496 0.5413
H23 H 0.2729 0.6810 0.5362
H24 H 0.2894 0.8409 0.5053
C28 C 0.1840(9) 0.577(2) 0.4441(11)
H25 H 0.1910 0.5419 0.4878
H26 H 0.1512 0.5043 0.4186
H27 H 0.1567 0.6749 0.4426
C29 C 0.2800(12) 0.525(3) 0.3586(11)
H28 H 0.3329 0.5578 0.3461
H29 H 0.2373 0.5563 0.3267
H30 H 0.2796 0.4151 0.3626
loop_
_geom_bond_atom_site_label_1
_geom_bond_atom_site_label_2
_geom_bond_site_symmetry_1
_geom_bond_site_symmetry_2
Dy1 O1 1_555 1_555
O1 C1 1_555 1_555
O2 Dy1 1_555 1_555
O3 C15 1_555 1_555
O4 C15 1_555 1_555
O5 C8 1_555 1_555
O6 Dy1 1_555 1_555
O7 Dy1 1_555 1_555
N1 C5 1_555 1_555
N2 N3 1_555 1_555
N3 C19 1_555 1_555
N4 C22 1_555 1_555
C1 O6 1_555 1_555
C2 C1 1_555 1_555
C3 C2 1_555 1_555
H1 C3 1_555 1_555
C4 C3 1_555 1_555
H2 C4 1_555 1_555
C5 C4 1_555 1_555
C6 C5 1_555 1_555
H3 C6 1_555 1_555
C7 C2 1_555 1_555
H4 C7 1_555 1_555
C8 O2 1_555 1_555
C9 C8 1_555 1_555
C10 C9 1_555 1_555
H5 C10 1_555 1_555
C11 C10 1_555 1_555
H6 C11 1_555 1_555
C12 N2 1_555 1_555
C13 C12 1_555 1_555
H7 C13 1_555 1_555
C14 C9 1_555 1_555
H8 C14 1_555 1_555
C15 C16 1_555 1_555
C16 C17 1_555 1_555
C17 H9 1_555 1_555
C18 C17 1_555 1_555
H10 C18 1_555 1_555
C19 C18 1_555 1_555
C20 C19 1_555 1_555
H11 C20 1_555 1_555
C21 C16 1_555 1_555
H12 C21 1_555 1_555
C22 O7 1_555 1_555
C23 C22 1_555 1_555
H13 C23 1_555 1_555
H14 C23 1_555 1_555
H15 C23 1_555 1_555
C24 N4 1_555 1_555
H16 C24 1_555 1_555
H17 C24 1_555 1_555
H18 C24 1_555 1_555
C25 N4 1_555 1_555
H19 C25 1_555 1_555
H20 C25 1_555 1_555
H21 C25 1_555 1_555
O8 C26 1_555 1_555
N5 C26 1_555 1_555
C26 C27 1_555 1_555
C27 H22 1_555 1_555
H23 C27 1_555 1_555
H24 C27 1_555 1_555
C28 N5 1_555 1_555
H25 C28 1_555 1_555
H26 C28 1_555 1_555
H27 C28 1_555 1_555
C29 N5 1_555 1_555
H28 C29 1_555 1_555
H29 C29 1_555 1_555
H30 C29 1_555 1_555
O1B C1B 1_555 1_555
N1B N1 1_555 1_555
C1B C2B 1_555 1_555
C2B C3B 1_555 1_555
C3B H1B 1_555 1_555
C4B C3B 1_555 1_555
H2B C4B 1_555 1_555
C5B N1B 1_555 1_555
C6B C5B 1_555 1_555
H3B C6B 1_555 1_555
C7B C2B 1_555 1_555
H4B C7B 1_555 1_555
O6B C1B 1_555 1_555
Dy1B O1B 1_555 1_555
O2B Dy1B 1_555 1_555
O3B C15B 1_555 1_555
O4B C15B 1_555 1_555
O5B C8B 1_555 1_555
O7B Dy1B 1_555 1_555
N2B N3B 1_555 1_555
N3B C19B 1_555 1_555
N4B C22B 1_555 1_555
C8B O2B 1_555 1_555
C9B C8B 1_555 1_555
C10B C9B 1_555 1_555
H5B C10B 1_555 1_555
C11B C10B 1_555 1_555
H6B C11B 1_555 1_555
C12B N2B 1_555 1_555
C13B C12B 1_555 1_555
H7B C13B 1_555 1_555
C14B C9B 1_555 1_555
H8B C14B 1_555 1_555
C15B C16B 1_555 1_555
C16B C17B 1_555 1_555
C17B H9B 1_555 1_555
C18B C17B 1_555 1_555
H10B C18B 1_555 1_555
C19B C18B 1_555 1_555
C20B C19B 1_555 1_555
H11B C20B 1_555 1_555
C21B C16B 1_555 1_555
H12B C21B 1_555 1_555
C22B O7B 1_555 1_555
C23B C22B 1_555 1_555
H13B C23B 1_555 1_555
H14B C23B 1_555 1_555
H15B C23B 1_555 1_555
C24B N4B 1_555 1_555
H16B C24B 1_555 1_555
H17B C24B 1_555 1_555
H18B C24B 1_555 1_555
C25B N4B 1_555 1_555
H19B C25B 1_555 1_555
H20B C25B 1_555 1_555
H21B C25B 1_555 1_555
Dy1_2 O4 1_555 1_555
Dy1A O5 1_555 1_555
Dy1A_2 O3 1_555 1_555
Dy1B_2 O4B 1_555 1_555
Dy1C O3B 1_555 1_555
Dy1C_2 O6B 1_555 1_555
O3A Dy1 1_555 1_555
O3C Dy1B 1_555 1_555
O4_2 Dy1 1_555 1_555
O4B_2 Dy1B 1_555 1_555
O5A Dy1 1_555 1_555
O5C Dy1B 1_555 1_555
O6A Dy1 1_555 1_555
O6C Dy1B 1_555 1_555
O6 Dy1A 1_555 1_555
C6 C7 1_555 1_555
C11 C12 1_555 1_555
C13 C14 1_555 1_555
C20 C21 1_555 1_555
C4B C5B 1_555 1_555
C6B C7B 1_555 1_555
O6B Dy1B 1_555 1_555
O5B Dy1C_2 1_555 1_555
C11B C12B 1_555 1_555
C13B C14B 1_555 1_555
C20B C21B 1_555 1_555

#END
