
#######################################################################
#
#                 Cambridge Crystallographic Data Centre
#                                CCDC 
#
#######################################################################
#
# If this CIF has been generated from an entry in the Cambridge 
# Structural Database, then it will include bibliographic, chemical, 
# crystal, experimental, refinement or atomic coordinate data resulting 
# from the CCDC's data processing and validation procedures.
#
#######################################################################

data_HUDHET
_symmetry_cell_setting           rhombohedral
_symmetry_space_group_name_H-M   'R -3'
_symmetry_Int_Tables_number      148
_space_group_name_Hall           '-R 3'
loop_
_symmetry_equiv_pos_site_id
_symmetry_equiv_pos_as_xyz
1 x,y,z
2 -y,x-y,z
3 -x+y,-x,z
4 2/3+x,1/3+y,1/3+z
5 2/3-y,1/3+x-y,1/3+z
6 2/3-x+y,1/3-x,1/3+z
7 1/3+x,2/3+y,2/3+z
8 2/3+y,1/3-x+y,1/3-z
9 2/3+x-y,1/3+x,1/3-z
10 -x,-y,-z
11 y,-x+y,-z
12 x-y,x,-z
13 1/3-x,2/3-y,2/3-z
14 1/3+y,2/3-x+y,2/3-z
15 1/3+x-y,2/3+x,2/3-z
16 2/3-x,1/3-y,1/3-z
17 1/3-y,2/3+x-y,2/3+z
18 1/3-x+y,2/3-x,2/3+z
_cell_length_a                   19.142(3)
_cell_length_b                   19.142(3)
_cell_length_c                   42.640(9)
_cell_angle_alpha                90
_cell_angle_beta                 90
_cell_angle_gamma                120.00
_cell_volume                     13530.8
loop_
_atom_site_label
_atom_site_type_symbol
_atom_site_fract_x
_atom_site_fract_y
_atom_site_fract_z
O5 O 0.6664(3) 1.0028(2) 0.08327(17)
H1 H 0.7030(6) 0.9938(3) 0.08925(19)
H2 H 0.6267(6) 0.9434(9) 0.08355(17)
O6 O 0.6666(5) 1.1477(5) 0.0839(4)
C22 C 0.8942(15) 0.6654(17) 0.1516(6)
C23 C 0.8934(14) 0.7347(14) 0.1517(6)
C24 C 0.8341(16) 0.5850(14) 0.1661(6)
C24O C 0.8326(16) 0.7483(14) 0.1672(6)
C23O C 0.7733(14) 0.5986(14) 0.1816(6)
C22O C 0.7725(15) 0.6679(17) 0.1817(6)
C25 C 0.4396(16) 0.4365(15) 0.0157(6)
C26 C 0.4400(15) 0.5046(16) 0.0134(6)
C27 C 0.4983(16) 0.4186(14) 0.0025(7)
C27I C 0.5017(16) 0.5814(14) -0.0025(7)
C26I C 0.5600(15) 0.4954(16) -0.0134(6)
C25I C 0.5604(16) 0.5635(15) -0.0157(6)
Cu1 Cu 0.66666(3) 0.80021(3) 0.083340(18)
O1 O 0.78375(17) 0.85868(18) 0.08944(10)
O2 O 0.7998(2) 0.9822(2) 0.08356(13)
O3 O 0.54970(16) 0.74166(18) 0.07724(10)
O4 O 0.53359(19) 0.84883(19) 0.08348(13)
N1 N 0.6845(2) 0.8186(2) 0.03644(13)
N2 N 0.6490(2) 0.8007(2) 0.12997(13)
N3 N 0.6664(3) 0.6805(2) 0.08341(14)
C1 C 0.9679(2) 1.0515(2) 0.08536(15)
H3 H 0.9464 1.0863 0.0852
C2 C 0.9163(2) 0.9683(2) 0.08549(14)
C3 C 0.8266(2) 0.9350(3) 0.08623(15)
C4 C 0.3653(2) 0.7502(2) 0.08089(14)
H4 H 0.3867 0.8064 0.0804
C5 C 0.4170(2) 0.7187(2) 0.08127(14)
C6 C 0.5069(2) 0.7751(2) 0.08017(14)
C7 C 0.6413(4) 0.8390(4) 0.01782(19)
H5 H 0.6023 0.8484 0.0272
C8 C 0.6506(5) 0.8470(5) -0.0142(2)
H6 H 0.6189 0.8617 -0.0263
C9 C 0.7067(5) 0.8331(5) -0.0280(2)
H7 H 0.7113 0.8346 -0.0500
C10 C 0.7553(4) 0.8173(4) -0.0106(2)
H8 H 0.7967 0.8115 -0.0198
C11 C 0.7422(3) 0.8100(4) 0.0213(2)
H9 H 0.7758 0.7981 0.0336
C12 C 0.7272(4) 0.6747(4) 0.09648(19)
H10 H 0.7701 0.7205 0.1059
C13 C 0.7283(5) 0.6024(5) 0.0965(2)
H11 H 0.7720 0.6002 0.1055
C14 C 0.6662(6) 0.5350(4) 0.0834(3)
H12 H 0.6661 0.4858 0.0836
C15 C 0.6039(5) 0.5401(4) 0.0699(2)
H13 H 0.5601 0.4944 0.0609
C16 C 0.6062(4) 0.6145(3) 0.0698(2)
H14 H 0.5644 0.6183 0.0598
C17 C 0.5912(4) 0.7341(3) 0.1442(2)
H15 H 0.5578 0.6893 0.1316
C18 C 0.5779(5) 0.7278(4) 0.1762(2)
H16 H 0.5366 0.6797 0.1850
C19 C 0.6269(5) 0.7941(5) 0.19551(19)
H17 H 0.6217 0.7909 0.2175
C20 C 0.6829(5) 0.8638(4) 0.1809(2)
H18 H 0.7141 0.9109 0.1926
C21 C 0.6931(4) 0.8645(4) 0.1490(2)
H19 H 0.7334 0.9124 0.1398
C2B C 1.0520(3) 1.0837(2) 0.08549(14)
C1A C 0.9485(2) 0.9164(3) 0.08536(15)
C5A C 0.2813(2) 0.6983(3) 0.08127(14)
C4B C 0.3849(3) 0.6347(2) 0.08089(14)
C1B C 1.0836(3) 1.0321(2) 0.08536(15)
C3B C 1.1084(4) 1.1734(2) 0.08623(15)
H3A H 0.9137 0.8601 0.0852
C2A C 1.0317(2) 0.9480(3) 0.08549(14)
C4A C 0.2498(2) 0.6151(3) 0.08089(14)
C6A C 0.2249(2) 0.7318(3) 0.08017(14)
H4B H 0.4197 0.6133 0.0804
C5B C 0.3017(3) 0.5830(2) 0.08127(14)
H3B H 1.1399 1.0536 0.0852
O1B O 1.07493(25) 1.21625(17) 0.08944(10)
O2B O 1.1824(3) 1.2002(2) 0.08356(13)
C3A C 1.0650(3) 0.8916(4) 0.08623(15)
H4A H 0.1936 0.5803 0.0804
O3A O 0.25834(18) 0.80804(24) 0.07724(10)
O4A O 0.15117(19) 0.68476(27) 0.08348(13)
C6B C 0.2682(3) 0.4931(2) 0.08017(14)
Cu1B Cu 1.13355(4) 1.33334(3) 0.083340(18)
O1A O 1.14132(18) 0.92507(25) 0.08944(10)
O2A O 1.0178(2) 0.8176(3) 0.08356(13)
Cu1A Cu 0.19979(3) 0.86645(4) 0.083340(18)
O3B O 0.19196(24) 0.45030(16) 0.07724(10)
O4B O 0.31524(27) 0.46641(19) 0.08348(13)
Cu1A_2 Cu 1.19979(3) 0.86645(4) 0.083340(18)
Cu1B_2 Cu 0.13355(4) 0.33334(3) 0.083340(18)
O1A_2 O 0.14132(18) 0.92507(25) 0.08944(10)
N1A N 0.1814(2) 0.8659(3) 0.03644(13)
N2A N 0.1993(2) 0.8483(3) 0.12997(13)
N3A N 0.3195(2) 0.9859(4) 0.08341(14)
O3A_2 O 1.25834(18) 0.80804(24) 0.07724(10)
N1A_2 N 1.1814(2) 0.8659(3) 0.03644(13)
N2A_2 N 1.1993(2) 0.8483(3) 0.12997(13)
N3A_2 N 1.3195(2) 0.9859(4) 0.08341(14)
C7A C 0.1610(4) 0.8023(6) 0.01782(19)
C11A C 0.1900(4) 0.9322(5) 0.0213(2)
C17A C 0.2659(3) 0.8571(5) 0.1442(2)
C21A C 0.1355(4) 0.8286(6) 0.1490(2)
C12A C 0.3253(4) 1.0525(6) 0.09648(19)
C16A C 0.3855(3) 0.9917(5) 0.0698(2)
C7A_2 C 1.1610(4) 0.8023(6) 0.01782(19)
C11A_2 C 1.1900(4) 0.9322(5) 0.0213(2)
C17A_2 C 1.2659(3) 0.8571(5) 0.1442(2)
C21A_2 C 1.1355(4) 0.8286(6) 0.1490(2)
C12A_2 C 1.3253(4) 1.0525(6) 0.09648(19)
C16A_2 C 1.3855(3) 0.9917(5) 0.0698(2)
H5A H 0.1516 0.7539 0.0272
C8A C 0.1530(5) 0.8036(7) -0.0142(2)
C10A C 0.1827(4) 0.9380(6) -0.0106(2)
H9A H 0.2019 0.9777 0.0336
H15A H 0.3107 0.8685 0.1316
C18A C 0.2722(4) 0.8501(6) 0.1762(2)
C20A C 0.1362(4) 0.8191(6) 0.1809(2)
H19A H 0.0876 0.8210 0.1398
H10A H 0.2795 1.0496 0.1059
C13A C 0.3976(5) 1.1259(7) 0.0965(2)
C15A C 0.4599(4) 1.0638(6) 0.0699(2)
H14A H 0.3817 0.9461 0.0598
H5A_2 H 1.1516 0.7539 0.0272
C8A_2 C 1.1530(5) 0.8036(7) -0.0142(2)
C10A_2 C 1.1827(4) 0.9380(6) -0.0106(2)
H9A_2 H 1.2019 0.9777 0.0336
H15A_2 H 1.3107 0.8685 0.1316
C18A_2 C 1.2722(4) 0.8501(6) 0.1762(2)
C20A_2 C 1.1362(4) 0.8191(6) 0.1809(2)
H19A_2 H 1.0876 0.8210 0.1398
H10A_2 H 1.2795 1.0496 0.1059
C13A_2 C 1.3976(5) 1.1259(7) 0.0965(2)
C15A_2 C 1.4599(4) 1.0638(6) 0.0699(2)
H14A_2 H 1.3817 0.9461 0.0598
H6A H 0.1383 0.7572 -0.0263
C9A C 0.1669(5) 0.8736(7) -0.0280(2)
H8A H 0.1885 0.9852 -0.0198
H16A H 0.3203 0.8569 0.1850
C19A C 0.2059(5) 0.8328(7) 0.19551(19)
H18A H 0.0891 0.8032 0.1926
H11A H 0.3998 1.1718 0.1055
C14A C 0.4650(4) 1.1312(7) 0.0834(3)
H13A H 0.5056 1.0657 0.0609
H6A_2 H 1.1383 0.7572 -0.0263
C9A_2 C 1.1669(5) 0.8736(7) -0.0280(2)
H8A_2 H 1.1885 0.9852 -0.0198
H16A_2 H 1.3203 0.8569 0.1850
C19A_2 C 1.2059(5) 0.8328(7) 0.19551(19)
H18A_2 H 1.0891 0.8032 0.1926
H11A_2 H 1.3998 1.1718 0.1055
C14A_2 C 1.4650(4) 1.1312(7) 0.0834(3)
H13A_2 H 1.5056 1.0657 0.0609
H7A H 0.1654 0.8767 -0.0500
H17A H 0.2091 0.8308 0.2175
H12A H 0.5142 1.1803 0.0836
H7A_2 H 1.1654 0.8767 -0.0500
H17A_2 H 1.2091 0.8308 0.2175
H12A_2 H 1.5142 1.1803 0.0836
loop_
_geom_bond_atom_site_label_1
_geom_bond_atom_site_label_2
_geom_bond_site_symmetry_1
_geom_bond_site_symmetry_2
Cu1 O1 1_555 1_555
O1 C3 1_555 1_555
O2 C3 1_555 1_555
O3 Cu1 1_555 1_555
O4 C6 1_555 1_555
O5 H1 1_555 1_555
H2 O5 1_555 1_555
N1 Cu1 1_555 1_555
N2 Cu1 1_555 1_555
N3 Cu1 1_555 1_555
C1 H3 1_555 1_555
C2 C1 1_555 1_555
C3 C2 1_555 1_555
C4 H4 1_555 1_555
C5 C4 1_555 1_555
C6 O3 1_555 1_555
C7 N1 1_555 1_555
H5 C7 1_555 1_555
C8 C7 1_555 1_555
H6 C8 1_555 1_555
C9 C8 1_555 1_555
H7 C9 1_555 1_555
C10 C9 1_555 1_555
H8 C10 1_555 1_555
C11 N1 1_555 1_555
H9 C11 1_555 1_555
C12 N3 1_555 1_555
H10 C12 1_555 1_555
C13 C12 1_555 1_555
H11 C13 1_555 1_555
C14 C13 1_555 1_555
H12 C14 1_555 1_555
C15 C14 1_555 1_555
H13 C15 1_555 1_555
C16 N3 1_555 1_555
H14 C16 1_555 1_555
C17 N2 1_555 1_555
H15 C17 1_555 1_555
C18 C17 1_555 1_555
H16 C18 1_555 1_555
C19 C18 1_555 1_555
H17 C19 1_555 1_555
C20 C19 1_555 1_555
H18 C20 1_555 1_555
C21 N2 1_555 1_555
H19 C21 1_555 1_555
C22 C23 1_555 1_555
C23 C24O 1_555 1_555
C24 C22 1_555 1_555
C25 C26 1_555 1_555
C26 C27I 1_555 1_555
C27 C25 1_555 1_555
C2B C1 1_555 1_555
C1A C2 1_555 1_555
C5A C4 1_555 1_555
C4B C5 1_555 1_555
C24O C22O 1_555 1_555
C23O C24 1_555 1_555
C27I C25I 1_555 1_555
C26I C27 1_555 1_555
C1B C2B 1_555 1_555
C3B C2B 1_555 1_555
H3A C1A 1_555 1_555
C2A C1A 1_555 1_555
C4A C5A 1_555 1_555
C6A C5A 1_555 1_555
H4B C4B 1_555 1_555
C5B C4B 1_555 1_555
C22O C23O 1_555 1_555
C25I C26I 1_555 1_555
H3B C1B 1_555 1_555
O1B C3B 1_555 1_555
O2B C3B 1_555 1_555
C3A C2A 1_555 1_555
H4A C4A 1_555 1_555
O3A C6A 1_555 1_555
O4A C6A 1_555 1_555
C6B C5B 1_555 1_555
Cu1B O1B 1_555 1_555
O1A C3A 1_555 1_555
O2A C3A 1_555 1_555
Cu1A O3A 1_555 1_555
O3B C6B 1_555 1_555
O4B C6B 1_555 1_555
Cu1A_2 O1A 1_555 1_555
Cu1B_2 O3B 1_555 1_555
O1A_2 Cu1A 1_555 1_555
N1A Cu1A 1_555 1_555
N2A Cu1A 1_555 1_555
N3A Cu1A 1_555 1_555
O3A_2 Cu1A_2 1_555 1_555
N1A_2 Cu1A_2 1_555 1_555
N2A_2 Cu1A_2 1_555 1_555
N3A_2 Cu1A_2 1_555 1_555
C7A N1A 1_555 1_555
C11A N1A 1_555 1_555
C17A N2A 1_555 1_555
C21A N2A 1_555 1_555
C12A N3A 1_555 1_555
C16A N3A 1_555 1_555
C7A_2 N1A_2 1_555 1_555
C11A_2 N1A_2 1_555 1_555
C17A_2 N2A_2 1_555 1_555
C21A_2 N2A_2 1_555 1_555
C12A_2 N3A_2 1_555 1_555
C16A_2 N3A_2 1_555 1_555
H5A C7A 1_555 1_555
C8A C7A 1_555 1_555
C10A C11A 1_555 1_555
H9A C11A 1_555 1_555
H15A C17A 1_555 1_555
C18A C17A 1_555 1_555
C20A C21A 1_555 1_555
H19A C21A 1_555 1_555
H10A C12A 1_555 1_555
C13A C12A 1_555 1_555
C15A C16A 1_555 1_555
H14A C16A 1_555 1_555
H5A_2 C7A_2 1_555 1_555
C8A_2 C7A_2 1_555 1_555
C10A_2 C11A_2 1_555 1_555
H9A_2 C11A_2 1_555 1_555
H15A_2 C17A_2 1_555 1_555
C18A_2 C17A_2 1_555 1_555
C20A_2 C21A_2 1_555 1_555
H19A_2 C21A_2 1_555 1_555
H10A_2 C12A_2 1_555 1_555
C13A_2 C12A_2 1_555 1_555
C15A_2 C16A_2 1_555 1_555
H14A_2 C16A_2 1_555 1_555
H6A C8A 1_555 1_555
C9A C8A 1_555 1_555
H8A C10A 1_555 1_555
H16A C18A 1_555 1_555
C19A C18A 1_555 1_555
H18A C20A 1_555 1_555
H11A C13A 1_555 1_555
C14A C13A 1_555 1_555
H13A C15A 1_555 1_555
H6A_2 C8A_2 1_555 1_555
C9A_2 C8A_2 1_555 1_555
H8A_2 C10A_2 1_555 1_555
H16A_2 C18A_2 1_555 1_555
C19A_2 C18A_2 1_555 1_555
H18A_2 C20A_2 1_555 1_555
H11A_2 C13A_2 1_555 1_555
C14A_2 C13A_2 1_555 1_555
H13A_2 C15A_2 1_555 1_555
H7A C9A 1_555 1_555
H17A C19A 1_555 1_555
H12A C14A 1_555 1_555
H7A_2 C9A_2 1_555 1_555
H17A_2 C19A_2 1_555 1_555
H12A_2 C14A_2 1_555 1_555
C5 C6 1_555 1_555
C10 C11 1_555 1_555
C15 C16 1_555 1_555
C20 C21 1_555 1_555
C1B C2A 1_555 1_555
C4A C5B 1_555 1_555
C10A C9A 1_555 1_555
C20A C19A 1_555 1_555
C15A C14A 1_555 1_555
C10A_2 C9A_2 1_555 1_555
C20A_2 C19A_2 1_555 1_555
C15A_2 C14A_2 1_555 1_555

#END
