
#######################################################################
#
#                 Cambridge Crystallographic Data Centre
#                                CCDC 
#
#######################################################################
#
# If this CIF has been generated from an entry in the Cambridge 
# Structural Database, then it will include bibliographic, chemical, 
# crystal, experimental, refinement or atomic coordinate data resulting 
# from the CCDC's data processing and validation procedures.
#
#######################################################################

data_HUDKUM01
_symmetry_cell_setting           monoclinic
_symmetry_space_group_name_H-M   'P 21/c'
_symmetry_Int_Tables_number      14
_space_group_name_Hall           '-P 2ybc'
loop_
_symmetry_equiv_pos_site_id
_symmetry_equiv_pos_as_xyz
1 x,y,z
2 x,1/2-y,1/2+z
3 -x,-y,-z
4 -x,1/2+y,1/2-z
_cell_length_a                   10.6180(9)
_cell_length_b                   12.4751(9)
_cell_length_c                   12.1851(11)
_cell_angle_alpha                90
_cell_angle_beta                 106.070(6)
_cell_angle_gamma                90
_cell_volume                     1550.98
loop_
_atom_site_label
_atom_site_type_symbol
_atom_site_fract_x
_atom_site_fract_y
_atom_site_fract_z
Sb1 Sb 0.66435(3) -0.48251(3) -0.24421(2)
Sb2 Sb 0.67042(3) -0.78735(3) -0.24467(3)
Mn1 Mn 0.36069(8) -0.81974(7) -0.74250(6)
Mn2 Mn 0.51128(7) -0.64906(6) -0.50289(5)
S1 S 0.45582(12) -0.80002(10) -0.37767(9)
S2 S 0.44172(12) -0.50207(9) -0.36369(10)
S3 S 0.74102(12) -0.63248(10) -0.34658(10)
S4 S 0.71843(12) -0.33965(10) -0.35817(10)
S5 S 0.40180(12) -0.19149(10) -0.39623(9)
N1 N 0.3045(5) -0.9392(4) -0.6277(4)
H1 H 0.3461(5) -0.9209(4) -0.5553(4)
H2 H 0.3364(5) -1.0033(4) -0.6409(4)
C1 C 0.1643(12) -0.9529(11) -0.6326(14)
H3 H 0.1458(12) -0.8914(11) -0.5908(14)
H4 H 0.1189(12) -0.9389(11) -0.7120(14)
C2 C 0.1031(4) -1.0218(5) -0.6074(4)
H5 H 0.0131(4) -1.0002(5) -0.6237(4)
H6 H 0.1367(4) -1.0368(5) -0.5273(4)
H7 H 0.1094(4) -1.0850(5) -0.6505(4)
N2 N 0.1809(4) -0.8444(5) -0.8885(4)
H8 H 0.1455(4) -0.9072(5) -0.8757(4)
H9 H 0.2083(4) -0.8535(5) -0.9514(4)
C3 C 0.0786(9) -0.7724(11) -0.9154(7)
H10 H 0.1132(9) -0.7022(11) -0.9255(7)
H11 H 0.0411(9) -0.7678(11) -0.8515(7)
C4 C -0.0305(9) -0.7999(15) -1.0228(7)
H12 H -0.0975(9) -0.7460(15) -1.0355(7)
H13 H -0.0673(9) -0.8684(15) -1.0131(7)
H14 H 0.0048(9) -0.8027(15) -1.0872(7)
Sb2C Sb 0.32958(3) -0.28735(3) -0.25533(3)
Mn1B Mn 0.63931(8) -0.18026(7) -0.25750(6)
S2B S 0.55828(12) -0.49793(9) -0.63631(10)
Sb1B Sb 0.33565(3) -0.51749(3) -0.75579(2)
Mn2B Mn 0.48872(7) -0.35094(6) -0.49711(5)
S4B S 0.28157(12) -0.66035(10) -0.64183(10)
S5B S 0.59820(12) -0.80851(10) -0.60377(9)
S1A S 0.45582(12) -0.69998(10) -0.87767(9)
S5C S 0.59820(12) -0.69149(10) -0.10377(9)
Mn1A Mn 0.36069(8) -0.68026(7) -0.24250(6)
S4C S 0.28157(12) -0.83965(10) -0.14183(10)
N1A N 0.3045(5) -0.5608(4) -0.1277(4)
H1A H 0.3461(5) -0.5791(4) -0.0553(4)
H2A H 0.3364(5) -0.4967(4) -0.1409(4)
C1A C 0.1643(12) -0.5471(11) -0.1326(14)
H3A H 0.1458(12) -0.6086(11) -0.0908(14)
H4A H 0.1189(12) -0.5611(11) -0.2120(14)
C2A C 0.1031(4) -0.4782(5) -0.1074(4)
H5A H 0.0131(4) -0.4998(5) -0.1237(4)
H6A H 0.1367(4) -0.4632(5) -0.0273(4)
H7A H 0.1094(4) -0.4150(5) -0.1505(4)
N2A N 0.1809(4) -0.6556(5) -0.3885(4)
H8A H 0.1455(4) -0.5928(5) -0.3757(4)
H9A H 0.2083(4) -0.6465(5) -0.4514(4)
C3A C 0.0786(9) -0.7276(11) -0.4154(7)
H10A H 0.1132(9) -0.7978(11) -0.4255(7)
H11A H 0.0411(9) -0.7322(11) -0.3515(7)
C4A C -0.0305(9) -0.7001(15) -0.5228(7)
H12A H -0.0975(9) -0.7540(15) -0.5355(7)
H13A H -0.0673(9) -0.6316(15) -0.5131(7)
H14A H 0.0048(9) -0.6973(15) -0.5872(7)
S1B S 0.54418(12) -0.19998(10) -0.62233(9)
S3B S 0.25898(12) -0.36752(10) -0.65342(10)
Sb2B Sb 0.32958(3) -0.21265(3) -0.75533(3)
S5A S 0.40180(12) -0.30851(10) -0.89623(9)
Mn1C Mn 0.63931(8) -0.31974(7) -0.75750(6)
Mn2C Mn 0.48872(7) -0.14906(6) -0.99711(5)
loop_
_geom_bond_atom_site_label_1
_geom_bond_atom_site_label_2
_geom_bond_site_symmetry_1
_geom_bond_site_symmetry_2
Sb1 S2 1_555 1_555
Sb2 S1 1_555 1_555
Mn1 N1 1_555 1_555
Mn2 S1 1_555 1_555
S1 Mn1A 1_555 1_555
S2 Mn2 1_555 1_555
S3 Sb1 1_555 1_555
S4 Sb1 1_555 1_555
S5 Sb2C 1_555 1_555
N1 H1 1_555 1_555
H2 N1 1_555 1_555
C1 N1 1_555 1_555
H3 C1 1_555 1_555
H4 C1 1_555 1_555
C2 C1 1_555 1_555
H5 C2 1_555 1_555
H6 C2 1_555 1_555
H7 C2 1_555 1_555
N2 Mn1 1_555 1_555
H8 N2 1_555 1_555
H9 N2 1_555 1_555
C3 N2 1_555 1_555
H10 C3 1_555 1_555
H11 C3 1_555 1_555
C4 C3 1_555 1_555
H12 C4 1_555 1_555
H13 C4 1_555 1_555
H14 C4 1_555 1_555
Mn1B S4 1_555 1_555
S2B Mn2 1_555 1_555
Sb1B S2B 1_555 1_555
Mn2B S2 1_555 1_555
S4B Mn1 1_555 1_555
S5B Mn1 1_555 1_555
S1A Mn1 1_555 1_555
S5C Sb2 1_555 1_555
Mn1A S5C 1_555 1_555
S4C Mn1A 1_555 1_555
N1A Mn1A 1_555 1_555
H1A N1A 1_555 1_555
H2A N1A 1_555 1_555
C1A N1A 1_555 1_555
H3A C1A 1_555 1_555
H4A C1A 1_555 1_555
C2A C1A 1_555 1_555
H5A C2A 1_555 1_555
H6A C2A 1_555 1_555
H7A C2A 1_555 1_555
N2A Mn1A 1_555 1_555
H8A N2A 1_555 1_555
H9A N2A 1_555 1_555
C3A N2A 1_555 1_555
H10A C3A 1_555 1_555
H11A C3A 1_555 1_555
C4A C3A 1_555 1_555
H12A C4A 1_555 1_555
H13A C4A 1_555 1_555
H14A C4A 1_555 1_555
S1B Mn2B 1_555 1_555
S3B Sb1B 1_555 1_555
Sb2B S1B 1_555 1_555
S5A Sb2B 1_555 1_555
Mn1C S1B 1_555 1_555
Mn2C S5A 1_555 1_555
Sb2 S3 1_555 1_555
Mn2 S4B 1_555 1_555
Mn2 S5B 1_555 1_555
Mn2 S3 1_555 1_555
S4 Mn2B 1_555 1_555
S5 Mn2B 1_555 1_555
S5 Mn1B 1_555 1_555
S2B Mn2B 1_555 1_555
Sb1B S4B 1_555 1_555
Mn2B S3B 1_555 1_555
S3B Sb2B 1_555 1_555
S5A Mn1C 1_555 1_555

#END
