
#######################################################################
#
#                 Cambridge Crystallographic Data Centre
#                                CCDC 
#
#######################################################################
#
# If this CIF has been generated from an entry in the Cambridge 
# Structural Database, then it will include bibliographic, chemical, 
# crystal, experimental, refinement or atomic coordinate data resulting 
# from the CCDC's data processing and validation procedures.
#
#######################################################################

data_HUDMAV
_symmetry_cell_setting           monoclinic
_symmetry_space_group_name_H-M   'P 21/c'
_symmetry_Int_Tables_number      14
_space_group_name_Hall           '-P 2ybc'
loop_
_symmetry_equiv_pos_site_id
_symmetry_equiv_pos_as_xyz
1 x,y,z
2 -x,1/2+y,1/2-z
3 -x,-y,-z
4 x,1/2-y,1/2+z
_cell_length_a                   12.103(6)
_cell_length_b                   9.381(4)
_cell_length_c                   13.035(7)
_cell_angle_alpha                90
_cell_angle_beta                 106.808(20)
_cell_angle_gamma                90
_cell_volume                     1416.75
loop_
_atom_site_label
_atom_site_type_symbol
_atom_site_fract_x
_atom_site_fract_y
_atom_site_fract_z
Br1 Br 0.19418(5) 0.04589(5) 0.69474(4)
Cu1 Cu 0.06474(5) 0.07300(5) 0.82216(4)
O1 O 0.0103(2) 0.2742(2) 0.7729(2)
O2 O 0.0704(2) 0.4992(2) 0.7824(2)
N1 N 0.1065(3) -0.0751(3) 0.9393(2)
N2 N 0.1467(3) -0.2374(3) 1.0673(3)
N3 N 0.1672(3) 0.1880(3) 0.9357(3)
C1 C 0.0940(4) -0.2105(4) 0.9627(4)
C2 C 0.1967(4) -0.1151(4) 1.1144(3)
C3 C 0.1743(4) -0.0161(4) 1.0352(3)
C4 C 0.2025(4) 0.1322(4) 1.0288(3)
C5 C 0.1806(3) 0.3386(4) 0.9096(3)
C6 C 0.0779(4) 0.3713(4) 0.8136(3)
C7 C 0.2951(4) 0.3667(4) 0.8854(3)
C8 C 0.3990(4) 0.3242(4) 0.9758(4)
C9 C 0.4691(5) 0.2119(5) 0.9638(5)
C10 C 0.5624(5) 0.1713(6) 1.0515(6)
C11 C 0.5852(5) 0.2369(6) 1.1490(5)
C12 C 0.5182(5) 0.3485(6) 1.1600(4)
C13 C 0.4266(4) 0.3923(5) 1.0748(4)
H1 H 0.0529 -0.2789 0.9122
H2 H 0.2385 -0.1021 1.1876
H3 H 0.4528 0.1635 0.8970
H4 H 0.6099 0.0949 1.0418
H5 H 0.6489 0.2070 1.2066
H6 H 0.5335 0.3939 1.2278
H7 H 0.3817 0.4718 1.0839
H8 H 0.2445 0.1850 1.0898
H9 H 0.1766 0.3961 0.9684
H10 H 0.2952 0.3147 0.8229
H11 H 0.3001 0.4658 0.8724
H12 H 0.1487 -0.3269 1.1019
Cu1A Cu -0.06474(5) 0.57300(5) 0.67784(4)
O2A O -0.0704(2) -0.0008(2) 0.7176(2)
loop_
_geom_bond_atom_site_label_1
_geom_bond_atom_site_label_2
_geom_bond_site_symmetry_1
_geom_bond_site_symmetry_2
Br1 Cu1 1_555 1_555
Cu1 O1 1_555 1_555
O1 C6 1_555 1_555
O2 C6 1_555 1_555
N1 Cu1 1_555 1_555
N2 C1 1_555 1_555
N3 Cu1 1_555 1_555
C1 N1 1_555 1_555
C2 N2 1_555 1_555
C3 N1 1_555 1_555
C4 N3 1_555 1_555
C5 N3 1_555 1_555
C6 C5 1_555 1_555
C7 C5 1_555 1_555
C8 C7 1_555 1_555
C9 C8 1_555 1_555
C10 C9 1_555 1_555
C11 C10 1_555 1_555
C12 C11 1_555 1_555
C13 C8 1_555 1_555
H1 C1 1_555 1_555
H2 C2 1_555 1_555
H3 C9 1_555 1_555
H4 C10 1_555 1_555
H5 C11 1_555 1_555
H6 C12 1_555 1_555
H7 C13 1_555 1_555
H8 C4 1_555 1_555
H9 C5 1_555 1_555
H10 C7 1_555 1_555
H11 C7 1_555 1_555
H12 N2 1_555 1_555
Cu1A O2 1_555 1_555
O2A Cu1 1_555 1_555
C2 C3 1_555 1_555
C3 C4 1_555 1_555
C12 C13 1_555 1_555

#END
