
#######################################################################
#
#                 Cambridge Crystallographic Data Centre
#                                CCDC 
#
#######################################################################
#
# If this CIF has been generated from an entry in the Cambridge 
# Structural Database, then it will include bibliographic, chemical, 
# crystal, experimental, refinement or atomic coordinate data resulting 
# from the CCDC's data processing and validation procedures.
#
#######################################################################

data_HUDMOJ
_symmetry_cell_setting           triclinic
_symmetry_space_group_name_H-M   'P -1'
_symmetry_Int_Tables_number      2
_space_group_name_Hall           '-P 1'
loop_
_symmetry_equiv_pos_site_id
_symmetry_equiv_pos_as_xyz
1 x,y,z
2 -x,-y,-z
_cell_length_a                   10.329(5)
_cell_length_b                   15.393(7)
_cell_length_c                   18.958(9)
_cell_angle_alpha                94.935(8)
_cell_angle_beta                 96.422(8)
_cell_angle_gamma                99.363(10)
_cell_volume                     2938.65
loop_
_atom_site_label
_atom_site_type_symbol
_atom_site_fract_x
_atom_site_fract_y
_atom_site_fract_z
Zn1 Zn 1.04922(8) 0.67957(5) 0.20856(4)
Zn2 Zn 1.02516(7) 0.83391(5) 0.31326(4)
S1 S 0.43430(17) 0.95034(13) -0.10382(10)
S2 S 0.47509(17) 0.81738(13) 0.01804(9)
S3 S 1.58729(18) 0.66517(14) 0.52511(11)
S4 S 1.54642(18) 0.51622(12) 0.63295(10)
O1 O 0.6826(4) 0.9972(3) -0.1766(2)
O2 O 0.7550(5) 0.7896(3) 0.0468(2)
O3 O 0.8883(5) 0.8475(4) 0.2294(3)
O4 O 0.9112(5) 0.7368(4) 0.1505(3)
O5 O 1.1124(5) 0.2610(4) 0.6559(3)
O6 O 1.0977(5) 0.3742(3) 0.7360(3)
O7 O 1.1686(5) 0.7813(3) 0.3683(3)
O8 O 1.1825(5) 0.6660(4) 0.2923(3)
O9 O 1.3272(5) 0.7243(3) 0.4732(2)
O10 O 1.2750(5) 0.4853(3) 0.6776(2)
O11 O 1.0130(5) 0.9447(3) 0.3727(2)
N1 N 1.0305(7) 1.0948(4) 0.3767(3)
C1 C 0.6964(6) 0.9457(4) -0.1202(3)
C2 C 0.8236(6) 0.9239(4) -0.1009(3)
C3 C 0.9316(7) 0.9531(5) -0.1390(4)
H1 H 0.9203 0.9874 -0.1765
C4 C 1.0532(7) 0.9298(5) -0.1194(4)
H2 H 1.1226 0.9462 -0.1455
C5 C 1.0736(7) 0.8824(5) -0.0615(4)
H3 H 1.1574 0.8697 -0.0483
C6 C 0.9725(7) 0.8538(5) -0.0233(4)
H4 H 0.9874 0.8216 0.0152
C7 C 0.8438(6) 0.8743(4) -0.0433(3)
C8 C 0.7331(6) 0.8424(4) -0.0082(3)
C9 C 0.6079(6) 0.8606(4) -0.0281(3)
C10 C 0.5897(6) 0.9152(4) -0.0850(3)
C11 C 0.3924(7) 0.7260(5) -0.0416(4)
C12 C 0.2589(7) 0.6933(5) -0.0335(4)
H5 H 0.2187 0.7190 0.0026
C13 C 0.1893(9) 0.6225(6) -0.0801(6)
H6 H 0.1018 0.6013 -0.0746
C14 C 0.4496(9) 0.6811(6) -0.0940(5)
H7 H 0.5389 0.6986 -0.0977
C15 C 0.3782(10) 0.6123(6) -0.1400(5)
H8 H 0.4181 0.5851 -0.1754
C16 C 0.3861(6) 0.9143(5) -0.1958(4)
C17 C 0.7712(8) 0.8384(5) 0.1162(4)
H9 H 0.6856 0.8346 0.1332
H10 H 0.8043 0.9002 0.1122
C18 C 0.8650(7) 0.8049(5) 0.1700(4)
C19 C 1.2131(7) 0.7125(5) 0.3506(4)
C20 C 1.1442(7) 0.3385(5) 0.6836(4)
C21 C 1.3174(8) 0.6845(5) 0.4013(4)
H11 H 1.2982 0.6206 0.4011
H12 H 1.4024 0.6994 0.3841
C22 C 1.3191(6) 0.6654(4) 0.5240(3)
C23 C 1.1910(6) 0.6363(4) 0.5449(3)
C24 C 1.0783(7) 0.6685(5) 0.5138(4)
H13 H 1.0862 0.7088 0.4800
C25 C 0.9561(8) 0.6381(6) 0.5355(5)
H14 H 0.8820 0.6584 0.5152
C26 C 0.9409(8) 0.5800(6) 0.5851(5)
H15 H 0.8573 0.5611 0.5977
C27 C 1.0516(7) 0.5478(5) 0.6179(4)
H16 H 1.0415 0.5084 0.6522
C28 C 1.1763(6) 0.5768(5) 0.5973(4)
C29 C 1.2911(7) 0.5435(4) 0.6255(3)
C30 C 1.4142(6) 0.5712(4) 0.6040(3)
C31 C 1.4287(6) 0.6333(4) 0.5531(3)
C32 C 1.6449(7) 0.5905(5) 0.7030(3)
C33 C 1.6163(8) 0.6701(5) 0.7282(4)
H17 H 1.5390 0.6879 0.7093
C34 C 1.7007(10) 0.7242(6) 0.7813(5)
H18 H 1.6796 0.7780 0.7982
C35 C 1.8169(10) 0.6994(7) 0.8098(5)
H19 H 1.8756 0.7367 0.8446
C36 C 1.8422(10) 0.6204(7) 0.7859(5)
H20 H 1.9187 0.6025 0.8057
C37 C 1.7592(8) 0.5644(6) 0.7330(4)
H21 H 1.7797 0.5098 0.7176
C38 C 1.6073(7) 0.7810(6) 0.5272(5)
C39 C 1.5925(12) 0.8365(8) 0.5846(8)
H22 H 1.5650 0.8118 0.6247
C40 C 1.6163(13) 0.9269(9) 0.5863(11)
H23 H 1.6004 0.9620 0.6258
C41 C 1.6584(13) 0.8180(9) 0.4687(7)
H24 H 1.6728 0.7828 0.4290
C42 C 1.2510(8) 0.3947(5) 0.6511(4)
H25 H 1.2262 0.3896 0.5998
H26 H 1.3325 0.3715 0.6598
C43 C 0.3604(12) 0.8258(7) -0.2212(6)
H27 H 0.3750 0.7840 -0.1900
C44 C 0.2987(15) 0.8548(16) -0.3379(8)
H28 H 0.2736 0.8348 -0.3860
C45 C 1.0374(8) 1.0164(5) 0.3463(4)
H29 H 1.0628 1.0138 0.3008
C46 C 0.9937(11) 1.1053(6) 0.4478(5)
H30 H 0.9413 1.0512 0.4575
H31 H 0.9432 1.1523 0.4514
H32 H 1.0720 1.1195 0.4819
C47 C 1.0645(11) 1.1744(6) 0.3414(5)
H33 H 1.1423 1.2109 0.3675
H34 H 0.9924 1.2068 0.3398
H35 H 1.0813 1.1581 0.2937
C48 C 0.2435(11) 0.5827(6) -0.1336(6)
H36 H 0.1931 0.5370 -0.1653
C49 C 0.3666(12) 0.9728(8) -0.2435(6)
H37 H 0.3845 1.0332 -0.2285
C50 C 0.3193(15) 0.9434(13) -0.3162(7)
H38 H 0.3026 0.9837 -0.3484
C51 C 1.686(2) 0.9107(17) 0.4733(14)
H39 H 1.7227 0.9370 0.4360
C52 C 1.6626(18) 0.9647(11) 0.5307(18)
H40 H 1.6782 1.0260 0.5308
C53 C 0.3139(16) 0.7978(11) -0.2917(9)
H41 H 0.2930 0.7375 -0.3066
O13 O 1.0464(6) 0.5804(4) 0.1343(4)
C55 C 0.7907(7) 1.1456(5) -0.1989(4)
C56 C 0.7005(8) 1.0897(5) -0.1566(4)
H43 H 0.7361 1.1015 -0.1065
H44 H 0.6147 1.1080 -0.1619
O14 O 0.8338(5) 1.1088(3) -0.2513(3)
O15 O 0.8122(5) 1.2252(3) -0.1777(3)
H51 H 1.011(8) 0.573(5) 0.095(4)
H52 H 1.123(12) 0.557(7) 0.123(5)
Zn1A Zn 0.95078(8) 0.32043(5) 0.79144(4)
Zn1A_2 Zn 0.95078(8) 1.32043(5) -0.20856(4)
Zn2A Zn 0.97484(7) 0.16609(5) 0.68674(4)
Zn2A_2 Zn 0.97484(7) 1.16609(5) -0.31326(4)
O5A O 0.8876(5) 0.7390(4) 0.3441(3)
O6A O 0.9023(5) 0.6258(3) 0.2640(3)
O14A O 1.1662(5) 0.8912(3) 0.2513(3)
O15A O 1.1878(5) 0.7748(3) 0.1777(3)
O12 O 0.2521(6) 0.5119(5) 0.0863(3)
N2 N 0.4564(7) 0.5900(5) 0.1271(4)
C54 C 0.3730(11) 0.5319(8) 0.0830(6)
H42 H 0.4067 0.5029 0.0459
C57 C 0.5946(12) 0.6109(9) 0.1130(9)
H45 H 0.6056 0.5768 0.0700
H46 H 0.6519 0.5967 0.1522
H47 H 0.6165 0.6728 0.1078
C58 C 0.4159(14) 0.6402(11) 0.1823(8)
H48 H 0.3774 0.6875 0.1636
H49 H 0.4909 0.6645 0.2170
H50 H 0.3516 0.6033 0.2045
O16 O 0.8963(7) 0.6165(5) 0.0182(3)
loop_
_geom_bond_atom_site_label_1
_geom_bond_atom_site_label_2
_geom_bond_site_symmetry_1
_geom_bond_site_symmetry_2
Zn1 O4 1_555 1_555
Zn2 O3 1_555 1_555
S1 C10 1_555 1_555
S2 C9 1_555 1_555
S3 C31 1_555 1_555
S4 C30 1_555 1_555
O1 C1 1_555 1_555
O2 C8 1_555 1_555
O3 C18 1_555 1_555
O4 C18 1_555 1_555
O5 C20 1_555 1_555
O6 C20 1_555 1_555
O7 Zn2 1_555 1_555
O8 Zn1 1_555 1_555
O9 C21 1_555 1_555
O10 C29 1_555 1_555
O11 Zn2 1_555 1_555
N1 C45 1_555 1_555
C1 C2 1_555 1_555
C2 C3 1_555 1_555
C3 H1 1_555 1_555
C4 C3 1_555 1_555
H2 C4 1_555 1_555
C5 C4 1_555 1_555
H3 C5 1_555 1_555
C6 C5 1_555 1_555
H4 C6 1_555 1_555
C7 C2 1_555 1_555
C8 C7 1_555 1_555
C9 C8 1_555 1_555
C10 C1 1_555 1_555
C11 S2 1_555 1_555
C12 C11 1_555 1_555
H5 C12 1_555 1_555
C13 C12 1_555 1_555
H6 C13 1_555 1_555
C14 C11 1_555 1_555
H7 C14 1_555 1_555
C15 C14 1_555 1_555
H8 C15 1_555 1_555
C16 S1 1_555 1_555
C17 O2 1_555 1_555
H9 C17 1_555 1_555
H10 C17 1_555 1_555
C18 C17 1_555 1_555
C19 O7 1_555 1_555
C20 C42 1_555 1_555
C21 C19 1_555 1_555
H11 C21 1_555 1_555
H12 C21 1_555 1_555
C22 O9 1_555 1_555
C23 C22 1_555 1_555
C24 C23 1_555 1_555
H13 C24 1_555 1_555
C25 C24 1_555 1_555
H14 C25 1_555 1_555
C26 C25 1_555 1_555
H15 C26 1_555 1_555
C27 C26 1_555 1_555
H16 C27 1_555 1_555
C28 C23 1_555 1_555
C29 C28 1_555 1_555
C30 C29 1_555 1_555
C31 C22 1_555 1_555
C32 S4 1_555 1_555
C33 C32 1_555 1_555
H17 C33 1_555 1_555
C34 C33 1_555 1_555
H18 C34 1_555 1_555
C35 C34 1_555 1_555
H19 C35 1_555 1_555
C36 C35 1_555 1_555
H20 C36 1_555 1_555
C37 C32 1_555 1_555
H21 C37 1_555 1_555
C38 S3 1_555 1_555
C39 C38 1_555 1_555
H22 C39 1_555 1_555
C40 C39 1_555 1_555
H23 C40 1_555 1_555
C41 C38 1_555 1_555
H24 C41 1_555 1_555
C42 O10 1_555 1_555
H25 C42 1_555 1_555
H26 C42 1_555 1_555
C43 C16 1_555 1_555
H27 C43 1_555 1_555
C44 H28 1_555 1_555
C45 O11 1_555 1_555
H29 C45 1_555 1_555
C46 N1 1_555 1_555
H30 C46 1_555 1_555
H31 C46 1_555 1_555
H32 C46 1_555 1_555
C47 N1 1_555 1_555
H33 C47 1_555 1_555
H34 C47 1_555 1_555
H35 C47 1_555 1_555
C48 C13 1_555 1_555
H36 C48 1_555 1_555
C49 C16 1_555 1_555
H37 C49 1_555 1_555
C50 C44 1_555 1_555
H38 C50 1_555 1_555
C51 C41 1_555 1_555
H39 C51 1_555 1_555
C52 C40 1_555 1_555
H40 C52 1_555 1_555
C53 C43 1_555 1_555
H41 C53 1_555 1_555
O12 C54 1_555 1_555
N2 C54 1_555 1_555
C54 H42 1_555 1_555
O13 Zn1 1_555 1_555
C55 C56 1_555 1_555
C56 O1 1_555 1_555
H43 C56 1_555 1_555
H44 C56 1_555 1_555
O14 C55 1_555 1_555
O15 C55 1_555 1_555
C57 N2 1_555 1_555
H45 C57 1_555 1_555
H46 C57 1_555 1_555
H47 C57 1_555 1_555
C58 N2 1_555 1_555
H48 C58 1_555 1_555
H49 C58 1_555 1_555
H50 C58 1_555 1_555
H51 O13 1_555 1_555
H52 O13 1_555 1_555
Zn1A O6 1_555 1_555
Zn1A_2 O15 1_555 1_555
Zn2A O5 1_555 1_555
Zn2A_2 O14 1_555 1_555
O5A Zn2 1_555 1_555
O6A Zn1 1_555 1_555
O14A Zn2 1_555 1_555
O15A Zn1 1_555 1_555
O8 C19 1_555 1_555
C6 C7 1_555 1_555
C9 C10 1_555 1_555
C15 C48 1_555 1_555
C27 C28 1_555 1_555
C30 C31 1_555 1_555
C36 C37 1_555 1_555
C44 C53 1_555 1_555
C49 C50 1_555 1_555
C51 C52 1_555 1_555

#END
