
#######################################################################
#
#                 Cambridge Crystallographic Data Centre
#                                CCDC 
#
#######################################################################
#
# If this CIF has been generated from an entry in the Cambridge 
# Structural Database, then it will include bibliographic, chemical, 
# crystal, experimental, refinement or atomic coordinate data resulting 
# from the CCDC's data processing and validation procedures.
#
#######################################################################

data_HUDNAW
_symmetry_cell_setting           monoclinic
_symmetry_space_group_name_H-M   'C 2'
_symmetry_Int_Tables_number      5
_space_group_name_Hall           'C 2y'
loop_
_symmetry_equiv_pos_site_id
_symmetry_equiv_pos_as_xyz
1 x,y,z
2 -x,y,-z
3 1/2+x,1/2+y,z
4 1/2-x,1/2+y,-z
_cell_length_a                   15.531(2)
_cell_length_b                   29.200(4)
_cell_length_c                   18.945(3)
_cell_angle_alpha                90
_cell_angle_beta                 102.634(2)
_cell_angle_gamma                90
_cell_volume                     8383.63
loop_
_atom_site_label
_atom_site_type_symbol
_atom_site_fract_x
_atom_site_fract_y
_atom_site_fract_z
Zn1 Zn -0.35356(5) -0.35913(2) -0.19214(4)
Zn2 Zn -0.34625(5) -0.73127(2) -0.69134(4)
O1 O -0.4345(3) -0.31280(18) -0.1715(3)
O2 O -0.4329(3) -0.38392(18) -0.2814(3)
O3 O -0.4186(3) -0.71070(17) -0.7839(3)
O4 O -0.4308(3) -0.77433(18) -0.6647(3)
N1 N -0.2478(4) -0.3828(2) -0.2337(3)
N2 N -0.2489(4) -0.3203(2) -0.1339(3)
N3 N -0.2387(4) -0.6992(2) -0.7197(3)
N4 N -0.2455(3) -0.7774(2) -0.6502(3)
N5 N -0.3622(3) -0.68097(16) -0.6165(3)
C1 C -0.3498(5) -0.69064(16) -0.5431(3)
H1 H -0.3369 -0.7204 -0.5265
C2 C -0.3567(6) -0.6559(2) -0.4945(2)
H2 H -0.3484 -0.6624 -0.4454
C3 C -0.3760(5) -0.61146(19) -0.5193(3)
C4 C -0.3885(5) -0.60178(15) -0.5927(3)
H3 H -0.4014 -0.5721 -0.6092
C5 C -0.3816(5) -0.63654(19) -0.6412(2)
H4 H -0.3899 -0.6301 -0.6903
C6 C -0.3830(5) -0.5742(3) -0.4723(5)
C7 C -0.3867(6) -0.5410(3) -0.4371(5)
C8 C -0.3973(3) -0.49949(15) -0.3951(3)
C9 C -0.4817(3) -0.48257(17) -0.3982(3)
H5 H -0.5304 -0.4976 -0.4258
C10 C -0.4933(2) -0.44321(17) -0.3601(3)
C11 C -0.4205(3) -0.42078(14) -0.3188(3)
C12 C -0.3361(2) -0.43769(16) -0.3157(3)
C13 C -0.3245(3) -0.47705(17) -0.3538(3)
H6 H -0.2680 -0.4884 -0.3518
C14 C -0.5876(5) -0.4236(3) -0.3688(6)
C15 C -0.6574(6) -0.4534(4) -0.4198(7)
H7 H -0.6575 -0.4837 -0.4000
H8 H -0.6432 -0.4552 -0.4666
H9 H -0.7147 -0.4399 -0.4244
C16 C -0.5941(6) -0.3760(3) -0.4029(6)
H10 H -0.5537 -0.3557 -0.3722
H11 H -0.6531 -0.3646 -0.4083
H12 H -0.5793 -0.3777 -0.4494
C17 C -0.6124(6) -0.4200(5) -0.2943(6)
H13 H -0.6097 -0.4498 -0.2726
H14 H -0.6712 -0.4081 -0.3005
H15 H -0.5718 -0.3999 -0.2636
C18 C -0.2537(5) -0.4176(3) -0.2776(4)
H16 H -0.2015 -0.4304 -0.2850
C19 C -0.1629(4) -0.3608(3) -0.2053(4)
H17 H -0.1586 -0.3340 -0.2354
C20 C -0.0804(5) -0.3910(3) -0.2035(5)
H18 H -0.0840 -0.4185 -0.1756
H19 H -0.0780 -0.4000 -0.2523
C21 C 0.0008(5) -0.3648(3) -0.1701(4)
H20 H 0.0076 -0.3396 -0.2019
H21 H 0.0516 -0.3847 -0.1661
C22 C -0.0004(5) -0.3460(3) -0.0970(5)
H22 H 0.0528 -0.3282 -0.0795
H23 H -0.0008 -0.3711 -0.0635
C23 C -0.0810(5) -0.3158(3) -0.0992(5)
H24 H -0.0789 -0.2895 -0.1301
H25 H -0.0813 -0.3048 -0.0509
C24 C -0.1647(4) -0.3436(2) -0.1284(4)
H26 H -0.1639 -0.3704 -0.0972
C25 C -0.2557(5) -0.2794(3) -0.1128(4)
H27 H -0.2033 -0.2637 -0.0953
C26 C -0.3365(2) -0.25460(16) -0.1131(3)
C27 C -0.4206(3) -0.27311(13) -0.1345(3)
C28 C -0.4936(2) -0.24804(17) -0.1257(3)
C29 C -0.4825(3) -0.20444(17) -0.0956(3)
H28 H -0.5314 -0.1877 -0.0898
C30 C -0.3984(3) -0.18592(14) -0.0743(3)
C31 C -0.3254(2) -0.21100(17) -0.0830(3)
H29 H -0.2691 -0.1986 -0.0687
C32 C -0.5871(5) -0.2693(4) -0.1421(6)
C33 C -0.5870(7) -0.3135(5) -0.1002(6)
H30 H -0.6450 -0.3267 -0.1113
H31 H -0.5702 -0.3073 -0.0492
H32 H -0.5457 -0.3346 -0.1134
C34 C -0.6177(5) -0.2797(4) -0.2221(6)
H33 H -0.6190 -0.2519 -0.2494
H34 H -0.6758 -0.2928 -0.2311
H35 H -0.5778 -0.3010 -0.2365
C35 C -0.6548(6) -0.2385(5) -0.1223(7)
H36 H -0.6566 -0.2101 -0.1483
H37 H -0.6397 -0.2325 -0.0713
H38 H -0.7115 -0.2530 -0.1346
C36 C -0.3855(6) -0.1394(3) -0.0457(6)
C37 C -0.3778(6) -0.1015(4) -0.0230(8)
C38 C -0.3722(7) -0.0553(3) -0.0016(7)
C39 C -0.3354(7) -0.0435(4) 0.0697(6)
H39 H -0.3130 -0.0662 0.1032
C40 C -0.3321(6) 0.0021(4) 0.0909(6)
H40 H -0.3075 0.0101 0.1386
N6 N -0.3655(7) 0.0360(3) 0.0407(9)
C41 C -0.4022(9) 0.0242(4) -0.0306(8)
H41 H -0.4246 0.0468 -0.0641
C42 C -0.4056(8) -0.0215(5) -0.0517(5)
H42 H -0.4302 -0.0294 -0.0994
C43 C -0.3807(6) -0.5188(4) -0.9720(6)
N7 N -0.3705(4) -0.41048(16) -1.1178(3)
C44 C -0.3418(5) -0.40333(16) -1.0439(3)
H43 H -0.3195 -0.3749 -1.0267
C45 C -0.3463(5) -0.4386(2) -0.9956(2)
H44 H -0.3270 -0.4339 -0.9461
C46 C -0.3796(4) -0.48112(18) -1.0213(3)
C47 C -0.4083(5) -0.48827(15) -1.0953(3)
H45 H -0.4306 -0.5167 -1.1125
C48 C -0.4038(4) -0.4529(2) -1.1435(2)
H46 H -0.4231 -0.4577 -1.1930
C49 C -0.3835(5) -0.5521(3) -0.9371(5)
C50 C -0.3911(3) -0.59328(15) -0.8978(3)
C51 C -0.3169(3) -0.61337(17) -0.8544(3)
H47 H -0.2616 -0.6003 -0.8513
C52 C -0.3254(3) -0.65295(17) -0.8158(3)
C53 C -0.4081(3) -0.67245(14) -0.8204(3)
C54 C -0.4823(2) -0.65237(17) -0.8638(3)
C55 C -0.4738(3) -0.61279(17) -0.9024(3)
H48 H -0.5235 -0.5994 -0.9314
C56 C -0.5777(5) -0.6722(3) -0.8704(5)
C57 C -0.6486(5) -0.6437(4) -0.9200(6)
H49 H -0.7053 -0.6576 -0.9230
H50 H -0.6362 -0.6423 -0.9674
H51 H -0.6489 -0.6133 -0.9009
C58 C -0.5815(5) -0.7208(3) -0.9004(6)
H52 H -0.6399 -0.7329 -0.9047
H53 H -0.5400 -0.7397 -0.8682
H54 H -0.5670 -0.7203 -0.9471
C59 C -0.5986(6) -0.6719(4) -0.7957(6)
H55 H -0.6565 -0.6843 -0.7986
H56 H -0.5964 -0.6410 -0.7780
H57 H -0.5560 -0.6902 -0.7634
C60 C -0.2444(5) -0.6692(3) -0.7692(4)
H58 H -0.1919 -0.6565 -0.7761
C61 C -0.1561(4) -0.7129(2) -0.6716(4)
H59 H -0.1578 -0.6998 -0.6243
C62 C -0.0697(5) -0.6969(3) -0.6882(5)
H60 H -0.0630 -0.7100 -0.7337
H61 H -0.0706 -0.6638 -0.6931
C63 C 0.0060(5) -0.7106(3) -0.6300(5)
H62 H 0.0017 -0.6957 -0.5852
H63 H 0.0605 -0.7008 -0.6423
C64 C 0.0079(5) -0.7626(3) -0.6194(5)
H64 H 0.0562 -0.7706 -0.5795
H65 H 0.0180 -0.7774 -0.6627
C65 C -0.0806(5) -0.7802(3) -0.6032(5)
H66 H -0.0800 -0.8134 -0.6012
H67 H -0.0871 -0.7687 -0.5566
C66 C -0.1574(4) -0.7642(2) -0.6615(3)
H68 H -0.1507 -0.7782 -0.7070
C67 C -0.2569(5) -0.8167(2) -0.6225(4)
H69 H -0.2070 -0.8347 -0.6069
C68 C -0.3392(2) -0.83512(16) -0.6134(3)
C69 C -0.4211(3) -0.81388(14) -0.6318(3)
C70 C -0.4958(2) -0.83629(17) -0.6202(3)
C71 C -0.4885(3) -0.87994(17) -0.5902(3)
H70 H -0.5384 -0.8949 -0.5824
C72 C -0.4065(3) -0.90118(13) -0.5718(3)
C73 C -0.3319(2) -0.87877(16) -0.5834(3)
H71 H -0.2770 -0.8930 -0.5711
C74 C -0.5894(5) -0.8131(3) -0.6364(4)
C75 C -0.5840(6) -0.7686(4) -0.5916(6)
H72 H -0.6409 -0.7542 -0.6007
H73 H -0.5420 -0.7482 -0.6053
H74 H -0.5657 -0.7757 -0.5411
C76 C -0.6193(5) -0.8007(4) -0.7156(5)
H75 H -0.6239 -0.8280 -0.7444
H76 H -0.5772 -0.7803 -0.7291
H77 H -0.6759 -0.7859 -0.7234
C77 C -0.6604(6) -0.8427(4) -0.6121(8)
H78 H -0.6676 -0.8710 -0.6386
H79 H -0.7155 -0.8265 -0.6213
H80 H -0.6422 -0.8491 -0.5613
C78 C -0.3974(6) -0.9478(3) -0.5437(6)
C79 C -0.3884(6) -0.9846(4) -0.5183(7)
C80 C -0.3745(6) -1.0309(3) -0.4894(6)
C81 C -0.3789(8) -1.0693(3) -0.5335(6)
H81 H -0.3882 -1.0658 -0.5834
C82 C -0.3695(9) -1.1128(3) -0.5030(8)
H82 H -0.3725 -1.1384 -0.5325
N8 N -0.3556(8) -1.1179(3) -0.4284(9)
C83 C -0.3512(10) -1.0795(5) -0.3843(6)
H83 H -0.3419 -1.0830 -0.3344
C84 C -0.3606(9) -1.0360(4) -0.4148(6)
H84 H -0.3576 -1.0104 -0.3853
Zn1_2 Zn -0.35356(5) -0.35913(2) -1.19214(4)
N7_2 N -0.3705(4) -0.41048(16) -0.1178(3)
loop_
_geom_bond_atom_site_label_1
_geom_bond_atom_site_label_2
_geom_bond_site_symmetry_1
_geom_bond_site_symmetry_2
Zn1 O1 1_555 1_555
Zn2 O3 1_555 1_555
O1 C27 1_555 1_555
O2 Zn1 1_555 1_555
O3 C53 1_555 1_555
O4 Zn2 1_555 1_555
N1 Zn1 1_555 1_555
N2 Zn1 1_555 1_555
N3 Zn2 1_555 1_555
N4 Zn2 1_555 1_555
N5 Zn2 1_555 1_555
C1 N5 1_555 1_555
H1 C1 1_555 1_555
C2 C1 1_555 1_555
H2 C2 1_555 1_555
C3 C2 1_555 1_555
C4 C3 1_555 1_555
H3 C4 1_555 1_555
C5 N5 1_555 1_555
H4 C5 1_555 1_555
C6 C3 1_555 1_555
C7 C6 1_555 1_555
C8 C7 1_555 1_555
C9 C8 1_555 1_555
H5 C9 1_555 1_555
C10 C9 1_555 1_555
C11 O2 1_555 1_555
C12 C11 1_555 1_555
C13 C8 1_555 1_555
H6 C13 1_555 1_555
C14 C10 1_555 1_555
C15 C14 1_555 1_555
H7 C15 1_555 1_555
H8 C15 1_555 1_555
H9 C15 1_555 1_555
C16 C14 1_555 1_555
H10 C16 1_555 1_555
H11 C16 1_555 1_555
H12 C16 1_555 1_555
C17 C14 1_555 1_555
H13 C17 1_555 1_555
H14 C17 1_555 1_555
H15 C17 1_555 1_555
C18 N1 1_555 1_555
H16 C18 1_555 1_555
C19 N1 1_555 1_555
H17 C19 1_555 1_555
C20 C19 1_555 1_555
H18 C20 1_555 1_555
H19 C20 1_555 1_555
C21 C20 1_555 1_555
H20 C21 1_555 1_555
H21 C21 1_555 1_555
C22 C21 1_555 1_555
H22 C22 1_555 1_555
H23 C22 1_555 1_555
C23 C22 1_555 1_555
H24 C23 1_555 1_555
H25 C23 1_555 1_555
C24 N2 1_555 1_555
H26 C24 1_555 1_555
C25 N2 1_555 1_555
H27 C25 1_555 1_555
C26 C25 1_555 1_555
C27 C26 1_555 1_555
C28 C27 1_555 1_555
C29 C28 1_555 1_555
H28 C29 1_555 1_555
C30 C29 1_555 1_555
C31 C26 1_555 1_555
H29 C31 1_555 1_555
C32 C28 1_555 1_555
C33 C32 1_555 1_555
H30 C33 1_555 1_555
H31 C33 1_555 1_555
H32 C33 1_555 1_555
C34 C32 1_555 1_555
H33 C34 1_555 1_555
H34 C34 1_555 1_555
H35 C34 1_555 1_555
C35 C32 1_555 1_555
H36 C35 1_555 1_555
H37 C35 1_555 1_555
H38 C35 1_555 1_555
C36 C30 1_555 1_555
C37 C36 1_555 1_555
C38 C37 1_555 1_555
C39 C38 1_555 1_555
H39 C39 1_555 1_555
C40 C39 1_555 1_555
H40 C40 1_555 1_555
N6 C40 1_555 1_555
C41 N6 1_555 1_555
H41 C41 1_555 1_555
C42 C38 1_555 1_555
H42 C42 1_555 1_555
C43 C46 1_555 1_555
N7 C44 1_555 1_555
C44 H43 1_555 1_555
C45 C44 1_555 1_555
H44 C45 1_555 1_555
C46 C45 1_555 1_555
C47 C46 1_555 1_555
H45 C47 1_555 1_555
C48 N7 1_555 1_555
H46 C48 1_555 1_555
C49 C43 1_555 1_555
C50 C49 1_555 1_555
C51 C50 1_555 1_555
H47 C51 1_555 1_555
C52 C51 1_555 1_555
C53 C52 1_555 1_555
C54 C53 1_555 1_555
C55 C50 1_555 1_555
H48 C55 1_555 1_555
C56 C54 1_555 1_555
C57 C56 1_555 1_555
H49 C57 1_555 1_555
H50 C57 1_555 1_555
H51 C57 1_555 1_555
C58 C56 1_555 1_555
H52 C58 1_555 1_555
H53 C58 1_555 1_555
H54 C58 1_555 1_555
C59 C56 1_555 1_555
H55 C59 1_555 1_555
H56 C59 1_555 1_555
H57 C59 1_555 1_555
C60 N3 1_555 1_555
H58 C60 1_555 1_555
C61 N3 1_555 1_555
H59 C61 1_555 1_555
C62 C61 1_555 1_555
H60 C62 1_555 1_555
H61 C62 1_555 1_555
C63 C62 1_555 1_555
H62 C63 1_555 1_555
H63 C63 1_555 1_555
C64 C63 1_555 1_555
H64 C64 1_555 1_555
H65 C64 1_555 1_555
C65 C64 1_555 1_555
H66 C65 1_555 1_555
H67 C65 1_555 1_555
C66 N4 1_555 1_555
H68 C66 1_555 1_555
C67 N4 1_555 1_555
H69 C67 1_555 1_555
C68 C67 1_555 1_555
C69 O4 1_555 1_555
C70 C69 1_555 1_555
C71 C70 1_555 1_555
H70 C71 1_555 1_555
C72 C71 1_555 1_555
C73 C68 1_555 1_555
H71 C73 1_555 1_555
C74 C70 1_555 1_555
C75 C74 1_555 1_555
H72 C75 1_555 1_555
H73 C75 1_555 1_555
H74 C75 1_555 1_555
C76 C74 1_555 1_555
H75 C76 1_555 1_555
H76 C76 1_555 1_555
H77 C76 1_555 1_555
C77 C74 1_555 1_555
H78 C77 1_555 1_555
H79 C77 1_555 1_555
H80 C77 1_555 1_555
C78 C72 1_555 1_555
C79 C78 1_555 1_555
C80 C79 1_555 1_555
C81 C80 1_555 1_555
H81 C81 1_555 1_555
C82 C81 1_555 1_555
H82 C82 1_555 1_555
N8 C82 1_555 1_555
C83 N8 1_555 1_555
H83 C83 1_555 1_555
C84 C80 1_555 1_555
H84 C84 1_555 1_555
Zn1_2 N7 1_555 1_555
N7_2 Zn1 1_555 1_555
C4 C5 1_555 1_555
C10 C11 1_555 1_555
C12 C13 1_555 1_555
C12 C18 1_555 1_555
C19 C24 1_555 1_555
C23 C24 1_555 1_555
C30 C31 1_555 1_555
C41 C42 1_555 1_555
C47 C48 1_555 1_555
C52 C60 1_555 1_555
C54 C55 1_555 1_555
C61 C66 1_555 1_555
C65 C66 1_555 1_555
C68 C69 1_555 1_555
C72 C73 1_555 1_555
C83 C84 1_555 1_555

#END
