
#######################################################################
#
#                 Cambridge Crystallographic Data Centre
#                                CCDC 
#
#######################################################################
#
# If this CIF has been generated from an entry in the Cambridge 
# Structural Database, then it will include bibliographic, chemical, 
# crystal, experimental, refinement or atomic coordinate data resulting 
# from the CCDC's data processing and validation procedures.
#
#######################################################################

data_HUDQON
_symmetry_cell_setting           monoclinic
_symmetry_space_group_name_H-M   'P 21/n'
_symmetry_Int_Tables_number      14
_space_group_name_Hall           '-P 2yn'
loop_
_symmetry_equiv_pos_site_id
_symmetry_equiv_pos_as_xyz
1 x,y,z
2 1/2-x,1/2+y,1/2-z
3 -x,-y,-z
4 1/2+x,1/2-y,1/2+z
_cell_length_a                   11.3022(15)
_cell_length_b                   9.8469(14)
_cell_length_c                   12.1468(18)
_cell_angle_alpha                90
_cell_angle_beta                 112.148(2)
_cell_angle_gamma                90
_cell_volume                     1252.09
loop_
_atom_site_label
_atom_site_type_symbol
_atom_site_fract_x
_atom_site_fract_y
_atom_site_fract_z
Sn1 Sn 0.17568(3) 0.09824(4) 0.23917(3)
O1 O 0.3014(4) 0.2882(4) 0.2205(5)
O2 O 0.4496(4) 0.4411(4) 0.2415(4)
C1 C 0.4091(6) 0.3183(6) 0.2231(6)
C2 C 0.4961(6) 0.2138(7) 0.2052(7)
H1 H 0.4529 0.1255 0.1915
C3 C 0.5310(8) 0.2458(9) 0.1026(8)
H2 H 0.4539 0.2451 0.0313
H3 H 0.5654 0.3373 0.1125
C4 C 0.6246(10) 0.1532(11) 0.0847(10)
H4 H 0.6277 0.1437 0.0097
C5 C 0.7028(9) 0.0848(9) 0.1741(10)
H5 H 0.7612 0.0275 0.1603
C6 C 0.7047(9) 0.0922(9) 0.2906(10)
H6 H 0.7920 0.1077 0.3449
H7 H 0.6781 0.0051 0.3106
C7 C 0.6205(7) 0.2020(9) 0.3105(8)
H8 H 0.6032 0.1806 0.3809
H9 H 0.6650 0.2883 0.3236
C8 C 0.1852(7) 0.0177(7) 0.0817(6)
H10 H 0.2669 -0.0244 0.0994
H11 H 0.1742 0.0896 0.0253
H12 H 0.1189 -0.0486 0.0489
C9 C 0.0327(6) 0.2468(6) 0.2198(7)
H13 H 0.0032 0.2384 0.2840
H14 H -0.0375 0.2333 0.1456
H15 H 0.0679 0.3358 0.2212
C10 C 0.3183(7) 0.0735(7) 0.4101(6)
H16 H 0.3965 0.0455 0.4031
H17 H 0.2917 0.0057 0.4528
H18 H 0.3315 0.1581 0.4523
Sn1A Sn 0.32432(3) 0.59824(4) 0.26083(3)
O2A O 0.0504(4) -0.0589(4) 0.2585(4)
loop_
_geom_bond_atom_site_label_1
_geom_bond_atom_site_label_2
_geom_bond_site_symmetry_1
_geom_bond_site_symmetry_2
Sn1 O1 1_555 1_555
O1 C1 1_555 1_555
O2 C1 1_555 1_555
C1 C2 1_555 1_555
C2 H1 1_555 1_555
C3 C2 1_555 1_555
H2 C3 1_555 1_555
H3 C3 1_555 1_555
C4 C3 1_555 1_555
H4 C4 1_555 1_555
C5 C4 1_555 1_555
H5 C5 1_555 1_555
C6 C5 1_555 1_555
H6 C6 1_555 1_555
H7 C6 1_555 1_555
C7 C2 1_555 1_555
H8 C7 1_555 1_555
H9 C7 1_555 1_555
C8 Sn1 1_555 1_555
H10 C8 1_555 1_555
H11 C8 1_555 1_555
H12 C8 1_555 1_555
C9 Sn1 1_555 1_555
H13 C9 1_555 1_555
H14 C9 1_555 1_555
H15 C9 1_555 1_555
C10 Sn1 1_555 1_555
H16 C10 1_555 1_555
H17 C10 1_555 1_555
H18 C10 1_555 1_555
Sn1A O2 1_555 1_555
O2A Sn1 1_555 1_555
C6 C7 1_555 1_555

#END
