
#######################################################################
#
#                 Cambridge Crystallographic Data Centre
#                                CCDC 
#
#######################################################################
#
# If this CIF has been generated from an entry in the Cambridge 
# Structural Database, then it will include bibliographic, chemical, 
# crystal, experimental, refinement or atomic coordinate data resulting 
# from the CCDC's data processing and validation procedures.
#
#######################################################################

data_HUDQED01
_symmetry_cell_setting           monoclinic
_symmetry_space_group_name_H-M   'C 2/c'
_symmetry_Int_Tables_number      15
_space_group_name_Hall           '-C 2yn'
loop_
_symmetry_equiv_pos_site_id
_symmetry_equiv_pos_as_xyz
1 x,y,z
2 -x,y,1/2-z
3 1/2+x,1/2+y,z
4 1/2-x,1/2+y,1/2-z
5 -x,-y,-z
6 x,-y,1/2+z
7 1/2-x,1/2-y,-z
8 1/2+x,1/2-y,1/2+z
_cell_length_a                   22.0591(2)
_cell_length_b                   9.2269(1)
_cell_length_c                   17.1097(3)
_cell_angle_alpha                90
_cell_angle_beta                 108.214(1)
_cell_angle_gamma                90
_cell_volume                     3307.97
loop_
_atom_site_label
_atom_site_type_symbol
_atom_site_fract_x
_atom_site_fract_y
_atom_site_fract_z
Ag1 Ag 0.17085(2) 0.43646(6) 0.13613(3)
C1 C 0.1124(3) 0.4184(6) 0.2775(4)
H1 H 0.1157 0.5186 0.2750
C2 C 0.0800(3) 0.3614(5) 0.3266(3)
H2 H 0.0623 0.4224 0.3569
C3 C 0.0737(2) 0.2148(4) 0.3311(2)
C4 C 0.1020(2) 0.1292(5) 0.2862(3)
H3 H 0.0992 0.0287 0.2877
C5 C 0.1349(2) 0.1956(6) 0.2389(3)
H4 H 0.1546 0.1371 0.2098
C6 C 0.0374(2) 0.1469(4) 0.3835(2)
C7 C 0.2248(3) 0.5506(8) -0.0010(4)
H5 H 0.1882 0.6076 -0.0158
C8 C 0.2691(3) 0.5706(8) -0.0424(4)
H6 H 0.2619 0.6397 -0.0838
C9 C 0.3231(2) 0.4888(5) -0.0221(3)
C10 C 0.3287(2) 0.3820(6) 0.0350(3)
H7 H 0.3630 0.3181 0.0474
C11 C 0.2826(2) 0.3702(6) 0.0739(3)
H8 H 0.2875 0.2984 0.1135
C12 C 0.3776(2) 0.5202(5) -0.0552(2)
C13 C 0.0352(2) 0.4854(4) 0.0246(2)
C14 C 0.03640(19) 0.2480(4) 0.7699(2)
N1 N 0.13952(19) 0.3378(4) 0.2330(2)
N2 N 0.23213(19) 0.4550(5) 0.0581(2)
O1 O 0.03475(14) 0.2193(3) 0.44409(17)
O2 O 0.01473(14) 0.0231(3) 0.36309(17)
O3 O 0.37177(14) 0.6229(4) -0.10472(18)
O4 O 0.42836(13) 0.4480(3) -0.02880(17)
O5 O 0.06221(14) 0.5753(3) 0.07934(17)
O6 O 0.06014(14) 0.3733(3) 0.00678(17)
O7 O 0.06889(13) 0.2315(3) 0.72175(16)
O8 O 0.05697(14) 0.2666(3) 0.84585(16)
Sm1 Sm 0.012515(10) 0.18612(2) 0.573260(12)
Ag1D Ag -0.17085(2) 0.56354(6) -0.13613(3)
Ag1D_2 Ag -0.17085(2) -0.43646(6) 0.86387(3)
Ag1C Ag 0.32915(2) -0.06354(6) 0.36387(3)
C1D C -0.1124(3) -0.4184(6) 0.7225(4)
H1D H -0.1157 -0.5186 0.7250
C2D C -0.0800(3) -0.3614(5) 0.6734(3)
H2D H -0.0623 -0.4224 0.6431
C3D C -0.0737(2) -0.2148(4) 0.6689(2)
C4D C -0.1020(2) -0.1292(5) 0.7138(3)
H3D H -0.0992 -0.0287 0.7123
C5D C -0.1349(2) -0.1956(6) 0.7611(3)
H4D H -0.1546 -0.1371 0.7902
C6D C -0.0374(2) -0.1469(4) 0.6165(2)
C7C C 0.2752(3) 0.0506(8) 0.5010(4)
H5C H 0.3118 0.1076 0.5158
C8C C 0.2309(3) 0.0706(8) 0.5424(4)
H6C H 0.2381 0.1397 0.5838
C9C C 0.1769(2) -0.0112(5) 0.5221(3)
C10C C 0.1713(2) -0.1180(6) 0.4650(3)
H7C H 0.1370 -0.1819 0.4526
C11C C 0.2174(2) -0.1298(6) 0.4261(3)
H8C H 0.2125 -0.2016 0.3865
C12C C 0.1224(2) 0.0202(5) 0.5552(2)
C13D C -0.0352(2) 0.5146(4) -0.0246(2)
C14A C -0.03640(19) 0.2480(4) 0.7301(2)
N1D N -0.13952(19) -0.3378(4) 0.7670(2)
N1D_2 N -0.13952(19) 0.6622(4) -0.2330(2)
N2C N 0.26787(19) -0.0450(5) 0.4419(2)
N2D N -0.23213(19) 0.5450(5) -0.0581(2)
O1D O -0.03475(14) -0.2193(3) 0.55591(17)
O2D O -0.01473(14) -0.0231(3) 0.63691(17)
O3C O 0.12823(14) 0.1229(4) 0.60472(18)
O3G O -0.12823(14) -0.1229(4) 0.39528(18)
O4C O 0.07164(13) -0.0520(3) 0.52880(17)
O4G O -0.07164(13) 0.0520(3) 0.47120(17)
O5D O -0.06221(14) 0.4247(3) -0.07934(17)
O5E O 0.06221(14) 0.4247(3) 0.57934(17)
O5A O -0.06221(14) -0.4247(3) 0.42066(17)
O6D O -0.06014(14) 0.6267(3) -0.00678(17)
O6A O -0.06014(14) 0.3733(3) 0.49322(17)
O6E O 0.06014(14) -0.3733(3) 0.50678(17)
O7A O -0.06889(13) 0.2315(3) 0.77825(16)
O7D O -0.06889(13) -0.2315(3) 0.27825(16)
O8A O -0.05697(14) 0.2666(3) 0.65415(16)
O8E O 0.05697(14) -0.2666(3) 0.34585(16)
Sm1D Sm -0.012515(10) -0.18612(2) 0.426740(12)
Sm1C Sm 0.487485(10) 0.68612(2) -0.073260(12)
Sm1G Sm 0.512515(10) 0.31388(2) 0.073260(12)
Sm1E Sm 0.012515(10) 0.81388(2) 0.073260(12)
Sm1A Sm -0.012515(10) 0.18612(2) -0.073260(12)
Sm1A_2 Sm -0.012515(10) 0.18612(2) 0.926740(12)
O9 O 0.20287(19) 0.3026(5) 0.7402(3)
H9 H 0.1843 0.2299 0.7528
H10 H 0.2159 0.2814 0.6998
loop_
_geom_bond_atom_site_label_1
_geom_bond_atom_site_label_2
_geom_bond_site_symmetry_1
_geom_bond_site_symmetry_2
Ag1 N1 1_555 1_555
C1 H1 1_555 1_555
C2 C1 1_555 1_555
H2 C2 1_555 1_555
C3 C2 1_555 1_555
C4 C3 1_555 1_555
H3 C4 1_555 1_555
C5 C4 1_555 1_555
H4 C5 1_555 1_555
C6 C3 1_555 1_555
C7 H5 1_555 1_555
C8 C7 1_555 1_555
H6 C8 1_555 1_555
C9 C8 1_555 1_555
C10 C9 1_555 1_555
H7 C10 1_555 1_555
C11 C10 1_555 1_555
H8 C11 1_555 1_555
C12 C9 1_555 1_555
C13 O5 1_555 1_555
C14 O7 1_555 1_555
N1 C1 1_555 1_555
N2 Ag1 1_555 1_555
O1 C6 1_555 1_555
O2 C6 1_555 1_555
O3 C12 1_555 1_555
O4 C12 1_555 1_555
O5 Ag1 1_555 1_555
O6 C13 1_555 1_555
O7 Sm1 1_555 1_555
O8 C14 1_555 1_555
Sm1 O1 1_555 1_555
O9 H9 1_555 1_555
H10 O9 1_555 1_555
Ag1D N1D_2 1_555 1_555
Ag1D_2 N1D 1_555 1_555
Ag1C N2C 1_555 1_555
C1D H1D 1_555 1_555
C2D C1D 1_555 1_555
H2D C2D 1_555 1_555
C3D C2D 1_555 1_555
C4D C3D 1_555 1_555
H3D C4D 1_555 1_555
C5D C4D 1_555 1_555
H4D C5D 1_555 1_555
C6D C3D 1_555 1_555
C7C H5C 1_555 1_555
C8C C7C 1_555 1_555
H6C C8C 1_555 1_555
C9C C8C 1_555 1_555
C10C C9C 1_555 1_555
H7C C10C 1_555 1_555
C11C C10C 1_555 1_555
H8C C11C 1_555 1_555
C12C C9C 1_555 1_555
C13D C13 1_555 1_555
C14A C14 1_555 1_555
N1D C1D 1_555 1_555
N2C C7C 1_555 1_555
N2D Ag1D 1_555 1_555
O1D C6D 1_555 1_555
O2D Sm1 1_555 1_555
O3C Sm1 1_555 1_555
O3G Sm1D 1_555 1_555
O4C Sm1 1_555 1_555
O4G Sm1 1_555 1_555
O5D Ag1D 1_555 1_555
O5E Sm1 1_555 1_555
O5A Sm1D 1_555 1_555
O6D C13D 1_555 1_555
O6A Sm1 1_555 1_555
O6E Sm1D 1_555 1_555
O7A C14A 1_555 1_555
O7D Sm1D 1_555 1_555
O8A Sm1 1_555 1_555
O8E Sm1D 1_555 1_555
Sm1D O2 1_555 1_555
Sm1C O3 1_555 1_555
Sm1G O4 1_555 1_555
Sm1E O5 1_555 1_555
Sm1A O6 1_555 1_555
Sm1A_2 O8 1_555 1_555
C5 N1 1_555 1_555
C7 N2 1_555 1_555
C11 N2 1_555 1_555
O4 Sm1C 1_555 1_555
C5D N1D 1_555 1_555
C6D O2D 1_555 1_555
C11C N2C 1_555 1_555
C12C O3C 1_555 1_555
C12C O4C 1_555 1_555
C13D O5D 1_555 1_555
C14A O8A 1_555 1_555
O1D Sm1D 1_555 1_555
O4C Sm1D 1_555 1_555
O4G Sm1D 1_555 1_555
O5D Sm1A 1_555 1_555
O6D Sm1E 1_555 1_555
O7A Sm1A_2 1_555 1_555

#END
