
#######################################################################
#
#                 Cambridge Crystallographic Data Centre
#                                CCDC 
#
#######################################################################
#
# If this CIF has been generated from an entry in the Cambridge 
# Structural Database, then it will include bibliographic, chemical, 
# crystal, experimental, refinement or atomic coordinate data resulting 
# from the CCDC's data processing and validation procedures.
#
#######################################################################

data_HUDQUT
_symmetry_cell_setting           monoclinic
_symmetry_space_group_name_H-M   'P 21/c'
_symmetry_Int_Tables_number      14
_space_group_name_Hall           '-P 2ybc'
loop_
_symmetry_equiv_pos_site_id
_symmetry_equiv_pos_as_xyz
1 x,y,z
2 -x,1/2+y,1/2-z
3 -x,-y,-z
4 x,1/2-y,1/2+z
_cell_length_a                   10.304(2)
_cell_length_b                   11.044(2)
_cell_length_c                   10.274(2)
_cell_angle_alpha                90
_cell_angle_beta                 107.89(3)
_cell_angle_gamma                90
_cell_volume                     1112.62
loop_
_atom_site_label
_atom_site_type_symbol
_atom_site_fract_x
_atom_site_fract_y
_atom_site_fract_z
C1 C 0.3232(4) 0.6168(3) 0.1469(4)
C2 C 0.4605(4) 0.6443(4) 0.1809(4)
H1 H 0.5148 0.6004 0.1402
C3 C 0.4363(5) 0.7903(4) 0.3276(4)
H2 H 0.4728 0.8507 0.3915
C4 C 0.2983(5) 0.7643(4) 0.2953(4)
H3 H 0.2446 0.8077 0.3370
C5 C 0.2594(4) 0.5175(4) 0.0442(4)
C6 C -0.1395(4) 0.8772(4) -0.0343(4)
C7 C -0.2299(5) 0.9723(4) -0.0745(5)
H4 H -0.2229 1.0226 -0.1446
C8 C -0.3322(5) 0.9200(4) 0.0826(5)
H5 H -0.3991 0.9315 0.1250
C9 C -0.2419(4) 0.8262(4) 0.1254(4)
H6 H -0.2484 0.7770 0.1967
C10 C -0.0370(4) 0.8481(4) -0.1094(4)
Cd1 Cd 0.00719(3) 0.63837(3) 0.10693(3)
N1 N 0.2415(3) 0.6773(3) 0.2048(3)
N2 N 0.5188(4) 0.7323(4) 0.2710(4)
N3 N -0.1448(3) 0.8035(3) 0.0671(3)
N4 N -0.3279(4) 0.9948(4) -0.0163(4)
O1 O 0.1363(3) 0.4919(2) 0.0364(3)
O2 O 0.3285(3) 0.4700(3) -0.0196(3)
O3 O 0.0344(3) 0.7562(3) -0.0752(3)
O4 O -0.0375(3) 0.9214(3) -0.2042(3)
C1B C -0.3232(4) 0.3832(3) -0.1469(4)
C2B C -0.4605(4) 0.3557(4) -0.1809(4)
H1B H -0.5148 0.3996 -0.1402
C3B C -0.4363(5) 0.2097(4) -0.3276(4)
H2B H -0.4728 0.1493 -0.3915
C4B C -0.2983(5) 0.2357(4) -0.2953(4)
H3B H -0.2446 0.1923 -0.3370
C5B C -0.2594(4) 0.4825(4) -0.0442(4)
C6B C 0.1395(4) 0.1228(4) 0.0343(4)
C7B C 0.2299(5) 0.0277(4) 0.0745(5)
H4B H 0.2229 -0.0226 0.1446
C8B C 0.3322(5) 0.0800(4) -0.0826(5)
H5B H 0.3991 0.0685 -0.1250
C9B C 0.2419(4) 0.1738(4) -0.1254(4)
H6B H 0.2484 0.2230 -0.1967
C10B C 0.0370(4) 0.1519(4) 0.1094(4)
Cd1B Cd -0.00719(3) 0.36163(3) -0.10693(3)
Cd1A Cd -0.00719(3) 0.13837(3) 0.39307(3)
Cd1C Cd 0.00719(3) 0.86163(3) -0.39307(3)
N1B N -0.2415(3) 0.3227(3) -0.2048(3)
N2B N -0.5188(4) 0.2677(4) -0.2710(4)
N3B N 0.1448(3) 0.1965(3) -0.0671(3)
N4B N 0.3279(4) 0.0052(4) 0.0163(4)
O1B O -0.1363(3) 0.5081(2) -0.0364(3)
O2B O -0.3285(3) 0.5300(3) 0.0196(3)
O3B O -0.0344(3) 0.2438(3) 0.0752(3)
O4B O 0.0375(3) 0.0786(3) 0.2042(3)
O4A O 0.0375(3) 0.4214(3) -0.2958(3)
O4C O -0.0375(3) 0.5786(3) 0.2958(3)
loop_
_geom_bond_atom_site_label_1
_geom_bond_atom_site_label_2
_geom_bond_site_symmetry_1
_geom_bond_site_symmetry_2
C1 C2 1_555 1_555
C2 H1 1_555 1_555
C3 H2 1_555 1_555
C4 C3 1_555 1_555
H3 C4 1_555 1_555
C5 C1 1_555 1_555
C6 C7 1_555 1_555
C7 H4 1_555 1_555
C8 H5 1_555 1_555
C9 C8 1_555 1_555
H6 C9 1_555 1_555
C10 C6 1_555 1_555
Cd1 N1 1_555 1_555
N1 C1 1_555 1_555
N2 C2 1_555 1_555
N3 C6 1_555 1_555
N4 C7 1_555 1_555
O1 C5 1_555 1_555
O2 C5 1_555 1_555
O3 C10 1_555 1_555
O4 C10 1_555 1_555
C1B C2B 1_555 1_555
C2B H1B 1_555 1_555
C3B H2B 1_555 1_555
C4B C3B 1_555 1_555
H3B C4B 1_555 1_555
C5B C1B 1_555 1_555
C6B C7B 1_555 1_555
C7B H4B 1_555 1_555
C8B H5B 1_555 1_555
C9B C8B 1_555 1_555
H6B C9B 1_555 1_555
C10B C6B 1_555 1_555
Cd1B O1 1_555 1_555
Cd1A O4B 1_555 1_555
Cd1C O4 1_555 1_555
N1B C1B 1_555 1_555
N2B C2B 1_555 1_555
N3B C6B 1_555 1_555
N4B C7B 1_555 1_555
O1B Cd1 1_555 1_555
O2B C5B 1_555 1_555
O3B C10B 1_555 1_555
O4B C10B 1_555 1_555
O4A Cd1B 1_555 1_555
O4C Cd1 1_555 1_555
C3 N2 1_555 1_555
C4 N1 1_555 1_555
C8 N4 1_555 1_555
C9 N3 1_555 1_555
Cd1 N3 1_555 1_555
Cd1 O1 1_555 1_555
Cd1 O3 1_555 1_555
C3B N2B 1_555 1_555
C4B N1B 1_555 1_555
C5B O1B 1_555 1_555
C8B N4B 1_555 1_555
C9B N3B 1_555 1_555
Cd1B N1B 1_555 1_555
Cd1B N3B 1_555 1_555
Cd1B O1B 1_555 1_555
Cd1B O3B 1_555 1_555

#END
