
#######################################################################
#
#                 Cambridge Crystallographic Data Centre
#                                CCDC 
#
#######################################################################
#
# If this CIF has been generated from an entry in the Cambridge 
# Structural Database, then it will include bibliographic, chemical, 
# crystal, experimental, refinement or atomic coordinate data resulting 
# from the CCDC's data processing and validation procedures.
#
#######################################################################

data_HUDQED
_symmetry_cell_setting           monoclinic
_symmetry_space_group_name_H-M   'C 2/c'
_symmetry_Int_Tables_number      15
_space_group_name_Hall           '-C 2yn'
loop_
_symmetry_equiv_pos_site_id
_symmetry_equiv_pos_as_xyz
1 x,y,z
2 -x,y,1/2-z
3 1/2+x,1/2+y,z
4 1/2-x,1/2+y,1/2-z
5 -x,-y,-z
6 x,-y,1/2+z
7 1/2-x,1/2-y,-z
8 1/2+x,1/2-y,1/2+z
_cell_length_a                   22.0484(18)
_cell_length_b                   9.2372(8)
_cell_length_c                   17.1137(14)
_cell_angle_alpha                90
_cell_angle_beta                 108.1230(10)
_cell_angle_gamma                90
_cell_volume                     3312.56
loop_
_atom_site_label
_atom_site_type_symbol
_atom_site_fract_x
_atom_site_fract_y
_atom_site_fract_z
Ag1 Ag 0.17077(3) 0.56369(8) 0.13601(4)
C1 C 0.0352(2) 0.5142(5) 0.0244(3)
C2 C -0.0364(2) 0.7525(5) 0.7303(3)
C3 C 0.3774(2) 0.4799(6) -0.0550(3)
C4 C 0.3236(3) 0.5115(6) -0.0213(3)
C5 C 0.2693(4) 0.4269(10) -0.0417(6)
H1 H 0.2627 0.3567 -0.0825
C6 C 0.3283(3) 0.6170(8) 0.0352(5)
H2 H 0.3623 0.6817 0.0473
C7 C 0.2830(3) 0.6284(8) 0.0745(4)
H3 H 0.2884 0.6992 0.1148
C8 C 0.2246(4) 0.4474(10) -0.0008(6)
H4 H 0.1878 0.3910 -0.0155
C9 C 0.1123(4) 0.5823(7) 0.2779(5)
H5 H 0.1160 0.4822 0.2760
C10 C 0.1345(3) 0.8035(7) 0.2388(4)
H6 H 0.1547 0.8615 0.2101
C11 C 0.1016(3) 0.8711(7) 0.2855(4)
H7 H 0.0985 0.9714 0.2866
C12 C 0.0803(3) 0.6383(7) 0.3267(4)
H8 H 0.0630 0.5773 0.3574
C13 C 0.0734(3) 0.7849(6) 0.3305(3)
C14 C 0.0374(2) 0.8525(6) 0.3833(3)
N1 N 0.1388(2) 0.6622(6) 0.2325(3)
N2 N 0.2324(3) 0.5447(6) 0.0585(3)
O1 O 0.0347(2) 0.7806(4) 0.4442(2)
O2 O 0.01455(19) 0.9765(4) 0.3628(2)
O3 O 0.37193(18) 0.3777(5) -0.1045(2)
O4 O 0.42816(17) 0.5524(4) -0.0283(2)
O5 O 0.06218(17) 0.4253(4) 0.0790(2)
O6 O 0.05987(17) 0.6263(4) 0.0070(2)
O7 O -0.05695(18) 0.7331(4) 0.6546(2)
O8 O -0.06874(17) 0.7685(4) 0.7785(2)
Sm1 Sm 0.012450(12) 0.81384(3) 0.573230(15)
Ag1D Ag -0.17077(3) 0.43631(8) -0.13601(4)
Ag1D_2 Ag -0.17077(3) 1.43631(8) 0.86399(4)
Ag1C Ag 0.32923(3) 1.06369(8) 0.36399(4)
C1D C -0.0352(2) 0.4858(5) -0.0244(3)
C2A C 0.0364(2) 0.7525(5) 0.7697(3)
C3C C 0.1226(2) 0.9799(6) 0.5550(3)
C4C C 0.1764(3) 1.0115(6) 0.5213(3)
C5C C 0.2307(4) 0.9269(10) 0.5417(6)
H1C H 0.2373 0.8567 0.5825
C6C C 0.1717(3) 1.1170(8) 0.4648(5)
H2C H 0.1377 1.1817 0.4527
C7C C 0.2170(3) 1.1284(8) 0.4255(4)
H3C H 0.2116 1.1992 0.3852
C8C C 0.2754(4) 0.9474(10) 0.5008(6)
H4C H 0.3122 0.8910 0.5155
C9D C -0.1123(4) 1.4177(7) 0.7221(5)
H5D H -0.1160 1.5178 0.7240
C10D C -0.1345(3) 1.1965(7) 0.7612(4)
H6D H -0.1547 1.1385 0.7899
C11D C -0.1016(3) 1.1289(7) 0.7145(4)
H7D H -0.0985 1.0286 0.7134
C12D C -0.0803(3) 1.3617(7) 0.6733(4)
H8D H -0.0630 1.4227 0.6426
C13D C -0.0734(3) 1.2151(6) 0.6695(3)
C14D C -0.0374(2) 1.1475(6) 0.6167(3)
N1D N -0.1388(2) 1.3378(6) 0.7675(3)
N1D_2 N -0.1388(2) 0.3378(6) -0.2325(3)
N2C N 0.2676(3) 1.0447(6) 0.4415(3)
N2D N -0.2324(3) 0.4553(6) -0.0585(3)
O1D O -0.0347(2) 1.2194(4) 0.5558(2)
O2D O -0.01455(19) 1.0235(4) 0.6372(2)
O3C O 0.12807(18) 0.8777(5) 0.6045(2)
O3G O -0.12807(18) 1.1223(5) 0.3955(2)
O4C O 0.07184(17) 1.0524(4) 0.5283(2)
O4G O -0.07184(17) 0.9476(4) 0.4717(2)
O5D O -0.06218(17) 0.5747(4) -0.0790(2)
O5E O 0.06218(17) 0.5747(4) 0.5790(2)
O5A O -0.06218(17) 1.4253(4) 0.4210(2)
O6D O -0.05987(17) 0.3737(4) -0.0070(2)
O6A O -0.05987(17) 0.6263(4) 0.4930(2)
O6E O 0.05987(17) 1.3737(4) 0.5070(2)
O7A O 0.05695(18) 0.7331(4) 0.8454(2)
O7D O 0.05695(18) 1.2669(4) 0.3454(2)
O8A O 0.06874(17) 0.7685(4) 0.7215(2)
O8E O -0.06874(17) 1.2315(4) 0.2785(2)
Sm1D Sm -0.012450(12) 1.18616(3) 0.426770(15)
Sm1C Sm 0.487550(12) 0.31384(3) -0.073230(15)
Sm1G Sm 0.512450(12) 0.68616(3) 0.073230(15)
Sm1E Sm 0.012450(12) 0.18616(3) 0.073230(15)
Sm1A Sm -0.012450(12) 0.81384(3) -0.073230(15)
Sm1A_2 Sm -0.012450(12) 0.81384(3) 0.926770(15)
O9 O 0.2965(3) 0.1982(6) -0.2401(4)
H9 H 0.3311 0.2196 -0.2506
H10 H 0.2925 0.2570 -0.2031
loop_
_geom_bond_atom_site_label_1
_geom_bond_atom_site_label_2
_geom_bond_site_symmetry_1
_geom_bond_site_symmetry_2
Ag1 N1 1_555 1_555
C1 O5 1_555 1_555
C2 O7 1_555 1_555
C3 C4 1_555 1_555
C4 C5 1_555 1_555
C5 H1 1_555 1_555
C6 C4 1_555 1_555
H2 C6 1_555 1_555
C7 C6 1_555 1_555
H3 C7 1_555 1_555
C8 C5 1_555 1_555
H4 C8 1_555 1_555
C9 H5 1_555 1_555
C10 H6 1_555 1_555
C11 C10 1_555 1_555
H7 C11 1_555 1_555
C12 C9 1_555 1_555
H8 C12 1_555 1_555
C13 C11 1_555 1_555
C14 C13 1_555 1_555
N1 C9 1_555 1_555
N2 Ag1 1_555 1_555
O1 C14 1_555 1_555
O2 C14 1_555 1_555
O3 C3 1_555 1_555
O4 C3 1_555 1_555
O5 Ag1 1_555 1_555
O6 C1 1_555 1_555
O7 Sm1 1_555 1_555
O8 C2 1_555 1_555
O9 H9 1_555 1_555
H10 O9 1_555 1_555
Sm1 O1 1_555 1_555
Ag1D N1D_2 1_555 1_555
Ag1D_2 N1D 1_555 1_555
Ag1C N2C 1_555 1_555
C1D C1 1_555 1_555
C2A C2 1_555 1_555
C3C C4C 1_555 1_555
C4C C5C 1_555 1_555
C5C H1C 1_555 1_555
C6C C4C 1_555 1_555
H2C C6C 1_555 1_555
C7C C6C 1_555 1_555
H3C C7C 1_555 1_555
C8C C5C 1_555 1_555
H4C C8C 1_555 1_555
C9D H5D 1_555 1_555
C10D H6D 1_555 1_555
C11D C10D 1_555 1_555
H7D C11D 1_555 1_555
C12D C9D 1_555 1_555
H8D C12D 1_555 1_555
C13D C11D 1_555 1_555
C14D C13D 1_555 1_555
N1D C9D 1_555 1_555
N2C C7C 1_555 1_555
N2D Ag1D 1_555 1_555
O1D C14D 1_555 1_555
O2D Sm1 1_555 1_555
O3C Sm1 1_555 1_555
O3G Sm1D 1_555 1_555
O4C Sm1 1_555 1_555
O4G Sm1 1_555 1_555
O5D Ag1D 1_555 1_555
O5E Sm1 1_555 1_555
O5A Sm1D 1_555 1_555
O6D C1D 1_555 1_555
O6A Sm1 1_555 1_555
O6E Sm1D 1_555 1_555
O7A C2A 1_555 1_555
O7D Sm1D 1_555 1_555
O8A Sm1 1_555 1_555
O8E Sm1D 1_555 1_555
Sm1D O2 1_555 1_555
Sm1C O3 1_555 1_555
Sm1G O4 1_555 1_555
Sm1E O5 1_555 1_555
Sm1A O6 1_555 1_555
Sm1A_2 O8 1_555 1_555
C7 N2 1_555 1_555
C8 N2 1_555 1_555
C10 N1 1_555 1_555
C12 C13 1_555 1_555
O4 Sm1C 1_555 1_555
C1D O5D 1_555 1_555
C2A O8A 1_555 1_555
C3C O3C 1_555 1_555
C3C O4C 1_555 1_555
C8C N2C 1_555 1_555
C10D N1D 1_555 1_555
C12D C13D 1_555 1_555
C14D O2D 1_555 1_555
O1D Sm1D 1_555 1_555
O4C Sm1D 1_555 1_555
O4G Sm1D 1_555 1_555
O5D Sm1A 1_555 1_555
O6D Sm1E 1_555 1_555
O7A Sm1A_2 1_555 1_555

#END
