
#######################################################################
#
#                 Cambridge Crystallographic Data Centre
#                                CCDC 
#
#######################################################################
#
# If this CIF has been generated from an entry in the Cambridge 
# Structural Database, then it will include bibliographic, chemical, 
# crystal, experimental, refinement or atomic coordinate data resulting 
# from the CCDC's data processing and validation procedures.
#
#######################################################################

data_HUDRII
_symmetry_cell_setting           monoclinic
_symmetry_space_group_name_H-M   'C 2/c'
_symmetry_Int_Tables_number      15
_space_group_name_Hall           '-C 2yn'
loop_
_symmetry_equiv_pos_site_id
_symmetry_equiv_pos_as_xyz
1 x,y,z
2 -x,y,1/2-z
3 1/2+x,1/2+y,z
4 1/2-x,1/2+y,1/2-z
5 -x,-y,-z
6 x,-y,1/2+z
7 1/2-x,1/2-y,-z
8 1/2+x,1/2-y,1/2+z
_cell_length_a                   27.028(5)
_cell_length_b                   12.618(3)
_cell_length_c                   6.7904(14)
_cell_angle_alpha                90
_cell_angle_beta                 94.96(3)
_cell_angle_gamma                90
_cell_volume                     2307.12
loop_
_atom_site_label
_atom_site_type_symbol
_atom_site_fract_x
_atom_site_fract_y
_atom_site_fract_z
Cu1 Cu -0.2500 0.2500 0.0000
Cl1 Cl -0.25356(2) 0.38364(4) -0.32770(8)
O1 O -0.5000 0.13053(16) -0.2500
N1 N -0.21455(6) 0.14463(14) -0.1808(3)
H1 H -0.2260 0.0793 -0.1575
H2 H -0.2248 0.1606 -0.3069
N2 N -0.47412(6) -0.03453(15) -0.2314(3)
N3 N -0.31537(6) 0.18313(14) -0.1116(2)
C1 C -0.16136(8) 0.13839(16) -0.1674(3)
C2 C -0.35055(8) 0.24122(16) -0.2121(3)
H3 H -0.3421 0.3077 -0.2578
C3 C -0.13423(9) 0.21652(19) -0.2524(3)
H4 H -0.1504 0.2698 -0.3277
C4 C -0.37354(7) 0.04244(17) -0.0989(3)
H5 H -0.3801 -0.0273 -0.0650
C5 C -0.41057(7) 0.10551(16) -0.1900(3)
C6 C -0.13728(9) 0.05767(19) -0.0619(3)
H6 H -0.1554 0.0039 -0.0081
C7 C -0.46097(7) 0.06337(17) -0.2226(3)
C8 C -0.08592(10) 0.0568(2) -0.0361(4)
H7 H -0.0696 0.0023 0.0355
C9 C -0.32679(7) 0.08464(17) -0.0592(3)
H8 H -0.3022 0.0430 0.0065
C10 C -0.39873(8) 0.20621(17) -0.2503(3)
H9 H -0.4227 0.2495 -0.3153
C11 C -0.05886(9) 0.1359(2) -0.1157(4)
H10 H -0.0244 0.1357 -0.0958
C12 C -0.08290(9) 0.2150(2) -0.2247(4)
H11 H -0.0646 0.2678 -0.2804
Cu1A Cu -0.7500 0.2500 -0.5000
Cl1F Cl -0.24644(2) 0.11636(4) 0.32770(8)
N1F N -0.28545(6) 0.35537(14) 0.1808(3)
H1F H -0.2740 0.4207 0.1575
H2F H -0.2752 0.3394 0.3069
N2A N -0.52588(6) -0.03453(15) -0.2686(3)
N3A N -0.68463(6) 0.18313(14) -0.3884(2)
N3F N -0.18463(6) 0.31687(14) 0.1116(2)
C1F C -0.33864(8) 0.36161(16) 0.1674(3)
C2A C -0.64945(8) 0.24122(16) -0.2879(3)
H3A H -0.6579 0.3077 -0.2422
C3F C -0.36577(9) 0.28348(19) 0.2524(3)
H4F H -0.3496 0.2302 0.3277
C4A C -0.62646(7) 0.04244(17) -0.4011(3)
H5A H -0.6199 -0.0273 -0.4350
C5A C -0.58943(7) 0.10551(16) -0.3100(3)
C6F C -0.36272(9) 0.44233(19) 0.0619(3)
H6F H -0.3446 0.4961 0.0081
C7A C -0.53903(7) 0.06337(17) -0.2774(3)
C8F C -0.41408(10) 0.4432(2) 0.0361(4)
H7F H -0.4304 0.4977 -0.0355
C9A C -0.67321(7) 0.08464(17) -0.4408(3)
H8A H -0.6978 0.0430 -0.5065
C10A C -0.60127(8) 0.20621(17) -0.2497(3)
H9A H -0.5773 0.2495 -0.1847
C11F C -0.44114(9) 0.3641(2) 0.1157(4)
H10F H -0.4756 0.3643 0.0958
C12F C -0.41710(9) 0.2850(2) 0.2247(4)
H11F H -0.4354 0.2322 0.2804
loop_
_geom_bond_atom_site_label_1
_geom_bond_atom_site_label_2
_geom_bond_site_symmetry_1
_geom_bond_site_symmetry_2
Cu1 Cl1 1_555 1_555
O1 C7 1_555 1_555
N1 Cu1 1_555 1_555
H1 N1 1_555 1_555
H2 N1 1_555 1_555
N2 C7 1_555 1_555
N3 Cu1 1_555 1_555
C1 N1 1_555 1_555
C2 N3 1_555 1_555
H3 C2 1_555 1_555
C3 C1 1_555 1_555
H4 C3 1_555 1_555
C4 H5 1_555 1_555
C5 C4 1_555 1_555
C6 C1 1_555 1_555
H6 C6 1_555 1_555
C7 C5 1_555 1_555
C8 C6 1_555 1_555
H7 C8 1_555 1_555
C9 N3 1_555 1_555
H8 C9 1_555 1_555
C10 C2 1_555 1_555
H9 C10 1_555 1_555
C11 C8 1_555 1_555
H10 C11 1_555 1_555
C12 C3 1_555 1_555
H11 C12 1_555 1_555
Cu1A N3A 1_555 1_555
Cl1F Cu1 1_555 1_555
N1F Cu1 1_555 1_555
H1F N1F 1_555 1_555
H2F N1F 1_555 1_555
N2A N2 1_555 1_555
N3A C2A 1_555 1_555
N3F Cu1 1_555 1_555
C1F N1F 1_555 1_555
C2A H3A 1_555 1_555
C3F C1F 1_555 1_555
H4F C3F 1_555 1_555
C4A H5A 1_555 1_555
C5A C4A 1_555 1_555
C6F C1F 1_555 1_555
H6F C6F 1_555 1_555
C7A O1 1_555 1_555
C8F C6F 1_555 1_555
H7F C8F 1_555 1_555
C9A N3A 1_555 1_555
H8A C9A 1_555 1_555
C10A C2A 1_555 1_555
H9A C10A 1_555 1_555
C11F C8F 1_555 1_555
H10F C11F 1_555 1_555
C12F C3F 1_555 1_555
H11F C12F 1_555 1_555
C4 C9 1_555 1_555
C5 C10 1_555 1_555
C11 C12 1_555 1_555
N2A C7A 1_555 1_555
C4A C9A 1_555 1_555
C5A C7A 1_555 1_555
C5A C10A 1_555 1_555
C11F C12F 1_555 1_555

#END
