
#######################################################################
#
#                 Cambridge Crystallographic Data Centre
#                                CCDC 
#
#######################################################################
#
# If this CIF has been generated from an entry in the Cambridge 
# Structural Database, then it will include bibliographic, chemical, 
# crystal, experimental, refinement or atomic coordinate data resulting 
# from the CCDC's data processing and validation procedures.
#
#######################################################################

data_HUDVUZ
_symmetry_cell_setting           monoclinic
_symmetry_space_group_name_H-M   'C 2/c'
_symmetry_Int_Tables_number      15
_space_group_name_Hall           '-C 2yn'
loop_
_symmetry_equiv_pos_site_id
_symmetry_equiv_pos_as_xyz
1 x,y,z
2 -x,y,1/2-z
3 1/2+x,1/2+y,z
4 1/2-x,1/2+y,1/2-z
5 -x,-y,-z
6 x,-y,1/2+z
7 1/2-x,1/2-y,-z
8 1/2+x,1/2-y,1/2+z
_cell_length_a                   17.4550(11)
_cell_length_b                   17.5918(9)
_cell_length_c                   19.7955(11)
_cell_angle_alpha                90
_cell_angle_beta                 104.960(7)
_cell_angle_gamma                90
_cell_volume                     5872.48
loop_
_atom_site_label
_atom_site_type_symbol
_atom_site_fract_x
_atom_site_fract_y
_atom_site_fract_z
Eu1 Eu 0.988507(19) 0.042533(19) 0.619705(18)
N1 N 0.9818(3) -0.1217(3) 0.6353(3)
O1 O 0.9225(3) -0.0542(3) 0.4467(3)
O2 O 1.0282(3) -0.0925(3) 0.6042(3)
C1 C 0.8752(4) -0.0515(4) 0.4838(4)
O3 O 1.0906(3) 0.0359(3) 0.7187(3)
O4 O 0.8814(3) -0.0074(3) 0.5347(2)
O5 O 1.1111(3) 0.0767(3) 0.8276(3)
C2 C 1.1352(4) 0.0617(4) 0.7746(4)
N2 N 1.3051(4) -0.0323(3) 0.6239(3)
N3 N 0.9697(4) 0.2047(4) 0.6014(4)
C3 C 1.2478(4) 0.0432(4) 0.7243(4)
H1 H 1.2134 0.0138 0.6906
N4 N 0.6818(3) -0.2117(3) 0.4174(3)
N5 N 1.3783(4) 0.0967(3) 0.7666(3)
N6 N 0.6684(4) -0.2968(3) 0.3057(3)
O6 O 0.9482(3) -0.0761(3) 0.6698(3)
O7 O 1.0252(3) 0.1763(3) 0.6507(3)
C4 C 1.2564(4) 0.1590(4) 0.8851(4)
H2 H 1.2062 0.1536 0.8926
O8 O 0.9286(3) 0.1592(3) 0.5578(3)
C5 C 1.4289(5) 0.0356(4) 0.6525(4)
H3 H 1.4621 0.0705 0.6811
C6 C 0.7444(4) -0.1124(4) 0.5011(4)
C7 C 0.8043(4) -0.1539(4) 0.4100(4)
H4 H 0.8450 -0.1521 0.3876
C8 C 1.4008(5) -0.0503(4) 0.5571(4)
H5 H 1.4148 -0.0749 0.5205
C9 C 0.7404(4) -0.2051(4) 0.3871(4)
C10 C 0.6764(4) -0.0803(4) 0.5892(4)
H6 H 0.6737 -0.0511 0.6277
C11 C 1.2748(4) 0.1203(4) 0.8287(4)
C12 C 0.7359(4) -0.2542(4) 0.3258(4)
C13 C 0.6160(4) -0.1336(4) 0.5630(4)
H7 H 0.5748 -0.1403 0.5843
C14 C 0.8058(4) -0.1070(4) 0.4657(3)
C15 C 1.3880(4) 0.2151(4) 0.9184(4)
H8 H 1.4242 0.2474 0.9474
O9 O 0.9684(3) -0.1898(3) 0.6367(4)
C16 C 1.3523(4) 0.1298(4) 0.8192(4)
C17 C 0.6825(4) -0.1670(4) 0.4739(4)
C18 C 1.3276(4) 0.0537(4) 0.7207(4)
C19 C 1.2213(4) 0.0758(4) 0.7769(4)
C20 C 0.7386(4) -0.0695(4) 0.5606(4)
H9 H 0.7776 -0.0340 0.5800
C21 C 1.3557(4) 0.0178(4) 0.6638(4)
O10 O 0.9570(4) 0.2740(3) 0.5983(4)
C22 C 0.6190(4) -0.1752(4) 0.5057(4)
H10 H 0.5786 -0.2096 0.4871
C23 C 1.4517(5) 0.0011(5) 0.5984(4)
H11 H 1.5004 0.0121 0.5899
C24 C 0.7774(5) -0.3055(4) 0.2292(4)
H12 H 0.8147 -0.3084 0.2032
C25 C 1.3115(5) 0.2043(4) 0.9289(4)
H13 H 1.2984 0.2283 0.9663
C26 C 0.7079(5) -0.3474(4) 0.2090(4)
H14 H 0.6975 -0.3778 0.1693
C27 C 0.6548(5) -0.3428(4) 0.2492(4)
H15 H 0.6087 -0.3718 0.2375
C28 C 1.3282(5) -0.0648(5) 0.5710(4)
H16 H 1.2939 -0.0988 0.5423
C29 C 0.7916(5) -0.2592(4) 0.2880(4)
H17 H 0.8386 -0.2317 0.3017
C30 C 1.4078(4) 0.1776(4) 0.8652(4)
H18 H 1.4584 0.1834 0.8588
Eu1A Eu 1.011493(19) 0.042533(19) 0.880295(18)
Eu1D Eu 1.011493(19) -0.042533(19) 0.380295(18)
O1D O 1.0775(3) 0.0542(3) 0.5533(3)
O5A O 0.8889(3) 0.0767(3) 0.6724(3)
loop_
_geom_bond_atom_site_label_1
_geom_bond_atom_site_label_2
_geom_bond_site_symmetry_1
_geom_bond_site_symmetry_2
Eu1 O2 1_555 1_555
N1 O2 1_555 1_555
O1 C1 1_555 1_555
C1 O4 1_555 1_555
O3 Eu1 1_555 1_555
O4 Eu1 1_555 1_555
O5 C2 1_555 1_555
C2 O3 1_555 1_555
N2 C21 1_555 1_555
N3 O7 1_555 1_555
C3 H1 1_555 1_555
N4 C9 1_555 1_555
N5 C16 1_555 1_555
N6 C12 1_555 1_555
O6 Eu1 1_555 1_555
O7 Eu1 1_555 1_555
C4 H2 1_555 1_555
O8 Eu1 1_555 1_555
C5 H3 1_555 1_555
C6 C14 1_555 1_555
C7 H4 1_555 1_555
C8 H5 1_555 1_555
C9 C7 1_555 1_555
C10 H6 1_555 1_555
C11 C4 1_555 1_555
C12 C9 1_555 1_555
C13 C10 1_555 1_555
H7 C13 1_555 1_555
C14 C1 1_555 1_555
C15 H8 1_555 1_555
O9 N1 1_555 1_555
C16 C11 1_555 1_555
C17 N4 1_555 1_555
C18 C3 1_555 1_555
C19 C2 1_555 1_555
C20 C6 1_555 1_555
H9 C20 1_555 1_555
C21 C5 1_555 1_555
O10 N3 1_555 1_555
C22 C13 1_555 1_555
H10 C22 1_555 1_555
C23 C5 1_555 1_555
H11 C23 1_555 1_555
C24 H12 1_555 1_555
C25 C4 1_555 1_555
H13 C25 1_555 1_555
C26 C24 1_555 1_555
H14 C26 1_555 1_555
C27 N6 1_555 1_555
H15 C27 1_555 1_555
C28 N2 1_555 1_555
H16 C28 1_555 1_555
C29 C12 1_555 1_555
H17 C29 1_555 1_555
C30 C15 1_555 1_555
H18 C30 1_555 1_555
Eu1A O5 1_555 1_555
Eu1D O1 1_555 1_555
O1D Eu1 1_555 1_555
O5A Eu1 1_555 1_555
N1 O6 1_555 1_555
N3 O8 1_555 1_555
C3 C19 1_555 1_555
N5 C18 1_555 1_555
C6 C17 1_555 1_555
C7 C14 1_555 1_555
C8 C23 1_555 1_555
C8 C28 1_555 1_555
C10 C20 1_555 1_555
C11 C19 1_555 1_555
C15 C25 1_555 1_555
C16 C30 1_555 1_555
C17 C22 1_555 1_555
C18 C21 1_555 1_555
C24 C29 1_555 1_555
C26 C27 1_555 1_555

#END
