
#######################################################################
#
#                 Cambridge Crystallographic Data Centre
#                                CCDC 
#
#######################################################################
#
# If this CIF has been generated from an entry in the Cambridge 
# Structural Database, then it will include bibliographic, chemical, 
# crystal, experimental, refinement or atomic coordinate data resulting 
# from the CCDC's data processing and validation procedures.
#
#######################################################################

data_HUDWOS
_symmetry_cell_setting           monoclinic
_symmetry_space_group_name_H-M   'C 2/c'
_symmetry_Int_Tables_number      15
_space_group_name_Hall           '-C 2yn'
loop_
_symmetry_equiv_pos_site_id
_symmetry_equiv_pos_as_xyz
1 x,y,z
2 1/2+x,1/2+y,z
3 x,-y,1/2+z
4 1/2+x,1/2-y,1/2+z
5 -x,-y,-z
6 1/2-x,1/2-y,-z
7 -x,y,1/2-z
8 1/2-x,1/2+y,1/2-z
_cell_length_a                   18.522(7)
_cell_length_b                   9.293(5)
_cell_length_c                   18.782(5)
_cell_angle_alpha                90
_cell_angle_beta                 104.20(3)
_cell_angle_gamma                90
_cell_volume                     3134.07
loop_
_atom_site_label
_atom_site_type_symbol
_atom_site_fract_x
_atom_site_fract_y
_atom_site_fract_z
Co1 Co 0.5000 0.53759(14) 0.2500
O1 O 0.4516(3) 0.5316(5) 0.3425(3)
N1 N 0.5807(3) 0.3776(6) 0.3005(3)
N2 N 0.5760(3) -0.2968(6) 0.3005(3)
C1 C 0.5981(4) -0.1982(8) 0.2603(4)
C2 C 0.5618(4) 0.2677(8) 0.3372(4)
C3 C 0.6544(4) 0.3974(9) 0.3070(4)
C4 C 0.6119(4) -0.3031(8) 0.3716(4)
C5 C 0.6872(4) 0.1994(7) 0.3902(4)
C6 C 0.6586(4) -0.1094(8) 0.2874(4)
H1 H 0.6728 -0.0427 0.2566
C7 C 0.6120(4) 0.1789(7) 0.3820(4)
C8 C 0.7065(4) 0.3110(7) 0.3504(4)
H2 H 0.7567 0.3278 0.3532
C9 C 0.6719(4) -0.2153(8) 0.4017(4)
H3 H 0.6948 -0.2225 0.4515
C10 C 0.6979(3) -0.1189(7) 0.3599(4)
C11 C 0.7635(4) -0.0216(7) 0.3916(4)
H4 H 0.8030 -0.0779 0.4228
H5 H 0.7824 0.0177 0.3519
C12 C 0.7429(5) 0.1009(9) 0.4360(4)
H6 H 0.721(3) 0.061(6) 0.476(3)
H7 H 0.587(3) 0.107(7) 0.405(3)
H8 H 0.570(3) -0.192(6) 0.207(3)
H9 H 0.4546 0.5819 0.3892
H10 H 0.4447 0.4723 0.3526
H11 H 0.663(3) 0.466(7) 0.277(3)
H12 H 0.782(4) 0.148(7) 0.451(4)
H13 H 0.510(4) 0.251(7) 0.332(4)
H14 H 0.602(3) -0.377(6) 0.396(3)
O1F O 0.5484(3) 0.5316(5) 0.1575(3)
H9F H 0.5454 0.5819 0.1108
H10F H 0.5553 0.4723 0.1474
N1F N 0.4193(3) 0.3776(6) 0.1995(3)
N2F N 0.4240(3) -0.2968(6) 0.1995(3)
C1F C 0.4019(4) -0.1982(8) 0.2397(4)
C2F C 0.4382(4) 0.2677(8) 0.1628(4)
C3F C 0.3456(4) 0.3974(9) 0.1930(4)
C4F C 0.3881(4) -0.3031(8) 0.1284(4)
C5F C 0.3128(4) 0.1994(7) 0.1098(4)
C6F C 0.3414(4) -0.1094(8) 0.2126(4)
H1F H 0.3272 -0.0427 0.2434
C7F C 0.3880(4) 0.1789(7) 0.1180(4)
C8F C 0.2935(4) 0.3110(7) 0.1496(4)
H2F H 0.2433 0.3278 0.1468
C9F C 0.3281(4) -0.2153(8) 0.0983(4)
H3F H 0.3052 -0.2225 0.0485
C10F C 0.3021(3) -0.1189(7) 0.1401(4)
C11F C 0.2365(4) -0.0216(7) 0.1084(4)
H4F H 0.1970 -0.0779 0.0772
H5F H 0.2176 0.0177 0.1481
C12F C 0.2571(5) 0.1009(9) 0.0640(4)
H6F H 0.279(3) 0.061(6) 0.024(3)
H7F H 0.413(3) 0.107(7) 0.095(3)
H8F H 0.430(3) -0.192(6) 0.293(3)
H11F H 0.337(3) 0.466(7) 0.223(3)
H12F H 0.218(4) 0.148(7) 0.049(4)
H13F H 0.490(4) 0.251(7) 0.168(4)
H14F H 0.398(3) -0.377(6) 0.104(3)
N2_2 N 0.5760(3) 0.7032(6) 0.3005(3)
N2F_2 N 0.4240(3) 0.7032(6) 0.1995(3)
Co1_2 Co 0.5000 -0.46241(14) 0.2500
Cl1 Cl 0.61130(12) 0.1364(2) 0.09983(12)
O3 O 0.5609(4) 0.0384(7) 0.1152(5)
O4 O 0.5787(4) 0.2620(7) 0.0663(4)
O5 O 0.6602(6) 0.0841(10) 0.0669(7)
O6 O 0.6518(8) 0.1831(12) 0.1675(5)
O2 O 0.4462(3) 0.7410(6) 0.4429(3)
loop_
_geom_bond_atom_site_label_1
_geom_bond_atom_site_label_2
_geom_bond_site_symmetry_1
_geom_bond_site_symmetry_2
Co1 O1 1_555 1_555
Cl1 O3 1_555 1_555
O1 H9 1_555 1_555
N1 Co1 1_555 1_555
N2 C1 1_555 1_555
C1 C6 1_555 1_555
C2 N1 1_555 1_555
C3 N1 1_555 1_555
C4 N2 1_555 1_555
C5 C7 1_555 1_555
C6 H1 1_555 1_555
C7 C2 1_555 1_555
C8 C3 1_555 1_555
H2 C8 1_555 1_555
C9 C4 1_555 1_555
H3 C9 1_555 1_555
C10 C6 1_555 1_555
C11 C10 1_555 1_555
H4 C11 1_555 1_555
H5 C11 1_555 1_555
C12 C5 1_555 1_555
O4 Cl1 1_555 1_555
O5 Cl1 1_555 1_555
O6 Cl1 1_555 1_555
H6 C12 1_555 1_555
H7 C7 1_555 1_555
H8 C1 1_555 1_555
H10 O1 1_555 1_555
H11 C3 1_555 1_555
H12 C12 1_555 1_555
H13 C2 1_555 1_555
H14 C4 1_555 1_555
O1F Co1 1_555 1_555
H9F O1F 1_555 1_555
H10F O1F 1_555 1_555
N1F Co1 1_555 1_555
N2F C1F 1_555 1_555
C1F C6F 1_555 1_555
C2F N1F 1_555 1_555
C3F N1F 1_555 1_555
C4F N2F 1_555 1_555
C5F C7F 1_555 1_555
C6F H1F 1_555 1_555
C7F C2F 1_555 1_555
C8F C3F 1_555 1_555
H2F C8F 1_555 1_555
C9F C4F 1_555 1_555
H3F C9F 1_555 1_555
C10F C6F 1_555 1_555
C11F C10F 1_555 1_555
H4F C11F 1_555 1_555
H5F C11F 1_555 1_555
C12F C5F 1_555 1_555
H6F C12F 1_555 1_555
H7F C7F 1_555 1_555
H8F C1F 1_555 1_555
H11F C3F 1_555 1_555
H12F C12F 1_555 1_555
H13F C2F 1_555 1_555
H14F C4F 1_555 1_555
N2_2 Co1 1_555 1_555
N2F_2 Co1 1_555 1_555
Co1_2 N2 1_555 1_555
C5 C8 1_555 1_555
C9 C10 1_555 1_555
C11 C12 1_555 1_555
N2F Co1_2 1_555 1_555
C5F C8F 1_555 1_555
C9F C10F 1_555 1_555
C11F C12F 1_555 1_555

#END
