
#######################################################################
#
#                 Cambridge Crystallographic Data Centre
#                                CCDC 
#
#######################################################################
#
# If this CIF has been generated from an entry in the Cambridge 
# Structural Database, then it will include bibliographic, chemical, 
# crystal, experimental, refinement or atomic coordinate data resulting 
# from the CCDC's data processing and validation procedures.
#
#######################################################################

data_HUDWAG
_symmetry_cell_setting           monoclinic
_symmetry_space_group_name_H-M   'C 2/c'
_symmetry_Int_Tables_number      15
_space_group_name_Hall           '-C 2yn'
loop_
_symmetry_equiv_pos_site_id
_symmetry_equiv_pos_as_xyz
1 x,y,z
2 -x,y,1/2-z
3 1/2+x,1/2+y,z
4 1/2-x,1/2+y,1/2-z
5 -x,-y,-z
6 x,-y,1/2+z
7 1/2-x,1/2-y,-z
8 1/2+x,1/2-y,1/2+z
_cell_length_a                   17.400(5)
_cell_length_b                   17.775(5)
_cell_length_c                   19.987(6)
_cell_angle_alpha                90
_cell_angle_beta                 104.563(5)
_cell_angle_gamma                90
_cell_volume                     5983.07
loop_
_atom_site_label
_atom_site_type_symbol
_atom_site_fract_x
_atom_site_fract_y
_atom_site_fract_z
Tb1 Tb 0.01070(2) 0.03698(2) 0.37891(2)
O1 O -0.1108(4) 0.0679(4) 0.1722(3)
N1 N -0.3287(5) 0.2943(4) 0.3078(4)
C1 C -0.3423(7) 0.3402(6) 0.2522(6)
H1 H -0.3883 0.3692 0.2411
O2 O -0.0788(4) 0.0490(4) 0.4427(4)
N2 N -0.3155(4) 0.2098(4) 0.4181(4)
C2 C -0.2898(8) 0.3448(6) 0.2122(6)
H2 H -0.3003 0.3748 0.1728
O3 O -0.0893(4) 0.0329(4) 0.2816(3)
C3 C -0.4282(6) 0.0359(7) 0.3467(6)
H3 H -0.4607 0.0711 0.3188
C4 C -0.2210(8) 0.3041(6) 0.2315(6)
H4 H -0.1834 0.3076 0.2058
N3 N -0.3761(4) 0.0954(5) 0.2339(4)
O4 O -0.1139(4) 0.0108(4) 0.5348(3)
C5 C -0.2067(7) 0.2571(6) 0.2897(5)
H5 H -0.1598 0.2297 0.3026
C6 C -0.2618(6) 0.2519(5) 0.3274(5)
O5 O -0.0244(5) 0.1680(4) 0.3483(4)
N4 N 0.0275(6) 0.1961(5) 0.3989(5)
N5 N 0.0161(4) -0.1227(4) 0.3631(4)
C7 C -0.2575(5) 0.2031(5) 0.3878(4)
O6 O 0.0697(5) 0.1506(5) 0.4419(4)
C8 C -0.1944(5) 0.1521(5) 0.4107(4)
H6 H -0.1533 0.1505 0.3887
O7 O 0.0383(8) 0.2641(5) 0.4061(7)
O8 O 0.0506(5) -0.0795(5) 0.3297(4)
C9 C -0.1930(5) 0.1051(5) 0.4646(4)
C10 C -0.2538(5) 0.1111(5) 0.5005(4)
O9 O -0.0298(5) -0.0956(5) 0.3929(4)
C11 C -0.2601(5) 0.0677(6) 0.5581(5)
H7 H -0.2216 0.0318 0.5759
O10 O 0.0285(6) -0.1912(5) 0.3615(6)
C12 C -0.3219(6) 0.0777(6) 0.5881(5)
H8 H -0.3248 0.0486 0.6261
C13 C -0.3812(6) 0.1317(6) 0.5620(5)
H9 H -0.4228 0.1382 0.5829
C14 C -0.3777(5) 0.1742(6) 0.5065(5)
H10 H -0.4169 0.2100 0.4900
C15 C -0.3153(5) 0.1649(5) 0.4734(4)
C16 C -0.1227(5) 0.0509(5) 0.4834(4)
C17 C -0.4518(8) 0.0011(8) 0.4008(7)
H11 H -0.5003 0.0131 0.4097
C18 C -0.4025(8) -0.0511(7) 0.4408(7)
H12 H -0.4173 -0.0755 0.4768
C19 C -0.3305(8) -0.0665(7) 0.4261(7)
H13 H -0.2968 -0.1010 0.4540
N6 N -0.3068(6) -0.0347(5) 0.3744(5)
C20 C -0.3555(6) 0.0168(5) 0.3354(5)
C21 C -0.3258(5) 0.0524(5) 0.2795(5)
C22 C -0.2466(5) 0.0412(5) 0.2765(4)
H14 H -0.2127 0.0126 0.3105
C23 C -0.2190(5) 0.0720(5) 0.2244(4)
C24 C -0.2718(5) 0.1176(5) 0.1735(4)
C25 C -0.2526(6) 0.1552(6) 0.1167(5)
H15 H -0.2029 0.1483 0.1083
C26 C -0.3067(7) 0.2010(6) 0.0747(5)
H16 H -0.2927 0.2257 0.0384
C27 C -0.3831(6) 0.2119(7) 0.0847(6)
H17 H -0.4189 0.2436 0.0555
C28 C -0.4038(6) 0.1759(6) 0.1369(5)
H18 H -0.4546 0.1825 0.1431
C29 C -0.3497(5) 0.1283(5) 0.1823(5)
C30 C -0.1337(5) 0.0570(5) 0.2251(4)
Tb1A Tb -0.01070(2) 0.03698(2) 0.12109(2)
Tb1D Tb -0.01070(2) -0.03698(2) 0.62109(2)
O1A O 0.1108(4) 0.0679(4) 0.3278(3)
O4D O 0.1139(4) -0.0108(4) 0.4652(3)
loop_
_geom_bond_atom_site_label_1
_geom_bond_atom_site_label_2
_geom_bond_site_symmetry_1
_geom_bond_site_symmetry_2
Tb1 O2 1_555 1_555
O1 C30 1_555 1_555
N1 C1 1_555 1_555
C1 H1 1_555 1_555
O2 C16 1_555 1_555
N2 C7 1_555 1_555
C2 C1 1_555 1_555
H2 C2 1_555 1_555
O3 Tb1 1_555 1_555
C3 H3 1_555 1_555
C4 C2 1_555 1_555
H4 C4 1_555 1_555
N3 C21 1_555 1_555
O4 C16 1_555 1_555
C5 C4 1_555 1_555
H5 C5 1_555 1_555
C6 N1 1_555 1_555
O5 Tb1 1_555 1_555
N4 O5 1_555 1_555
N5 O8 1_555 1_555
C7 C6 1_555 1_555
O6 Tb1 1_555 1_555
C8 C7 1_555 1_555
H6 C8 1_555 1_555
O7 N4 1_555 1_555
O8 Tb1 1_555 1_555
C9 C8 1_555 1_555
C10 C9 1_555 1_555
O9 Tb1 1_555 1_555
C11 C10 1_555 1_555
H7 C11 1_555 1_555
O10 N5 1_555 1_555
C12 C11 1_555 1_555
H8 C12 1_555 1_555
C13 C12 1_555 1_555
H9 C13 1_555 1_555
C14 C13 1_555 1_555
H10 C14 1_555 1_555
C15 N2 1_555 1_555
C16 C9 1_555 1_555
C17 C3 1_555 1_555
H11 C17 1_555 1_555
C18 C17 1_555 1_555
H12 C18 1_555 1_555
C19 C18 1_555 1_555
H13 C19 1_555 1_555
N6 C19 1_555 1_555
C20 C3 1_555 1_555
C21 C20 1_555 1_555
C22 C21 1_555 1_555
H14 C22 1_555 1_555
C23 C22 1_555 1_555
C24 C23 1_555 1_555
C25 C24 1_555 1_555
H15 C25 1_555 1_555
C26 C25 1_555 1_555
H16 C26 1_555 1_555
C27 C26 1_555 1_555
H17 C27 1_555 1_555
C28 C27 1_555 1_555
H18 C28 1_555 1_555
C29 N3 1_555 1_555
C30 O3 1_555 1_555
Tb1A O1 1_555 1_555
Tb1D O4 1_555 1_555
O1A Tb1 1_555 1_555
O4D Tb1 1_555 1_555
C5 C6 1_555 1_555
N4 O6 1_555 1_555
N5 O9 1_555 1_555
C10 C15 1_555 1_555
C14 C15 1_555 1_555
N6 C20 1_555 1_555
C23 C30 1_555 1_555
C24 C29 1_555 1_555
C28 C29 1_555 1_555

#END
