
#######################################################################
#
#                 Cambridge Crystallographic Data Centre
#                                CCDC 
#
#######################################################################
#
# If this CIF has been generated from an entry in the Cambridge 
# Structural Database, then it will include bibliographic, chemical, 
# crystal, experimental, refinement or atomic coordinate data resulting 
# from the CCDC's data processing and validation procedures.
#
#######################################################################

data_HUFHOH
_symmetry_cell_setting           rhombohedral
_symmetry_space_group_name_H-M   'R -3'
_symmetry_Int_Tables_number      148
_space_group_name_Hall           '-R 3'
loop_
_symmetry_equiv_pos_site_id
_symmetry_equiv_pos_as_xyz
1 x,y,z
2 -y,x-y,z
3 -x+y,-x,z
4 2/3+x,1/3+y,1/3+z
5 2/3-y,1/3+x-y,1/3+z
6 2/3-x+y,1/3-x,1/3+z
7 1/3+x,2/3+y,2/3+z
8 1/3-y,2/3+x-y,2/3+z
9 1/3-x+y,2/3-x,2/3+z
10 -x,-y,-z
11 y,-x+y,-z
12 x-y,x,-z
13 1/3-x,2/3-y,2/3-z
14 1/3+y,2/3-x+y,2/3-z
15 1/3+x-y,2/3+x,2/3-z
16 2/3-x,1/3-y,1/3-z
17 2/3+y,1/3-x+y,1/3-z
18 2/3+x-y,1/3+x,1/3-z
_cell_length_a                   28.9589(17)
_cell_length_b                   28.9589(17)
_cell_length_c                   14.5653(9)
_cell_angle_alpha                90
_cell_angle_beta                 90
_cell_angle_gamma                120
_cell_volume                     10578.3
loop_
_atom_site_label
_atom_site_type_symbol
_atom_site_fract_x
_atom_site_fract_y
_atom_site_fract_z
Ag1 Ag 0.60166(2) 0.06353(2) 0.74324(3)
C1 C 0.7025(2) 0.1146(2) 0.6083(3)
N1 N 0.79136(18) 0.20348(18) 0.8767(3)
N2 N 0.65483(17) 0.06975(17) 0.6221(3)
C2 C 0.72775(19) 0.16557(19) 0.7559(3)
N3 N 0.69089(19) 0.1284(2) 0.8120(3)
C3 C 0.7777(2) 0.20186(19) 0.7873(4)
H1 H 0.8032 0.2265 0.7454
C4 C 0.7125(2) 0.1643(2) 0.6573(4)
H2 H 0.7414 0.1956 0.6254
H3 H 0.6799 0.1672 0.6541
N4 N 0.73122(19) 0.06960(18) 0.5057(3)
C5 C 0.7548(3) 0.1665(3) 0.9315(4)
H4 H 0.7631 0.1665 0.9946
C6 C 0.7403(2) 0.1137(2) 0.5507(4)
H5 H 0.7736 0.1454 0.5429
C7 C 0.7058(2) 0.1287(3) 0.9006(4)
H6 H 0.6817 0.1020 0.9417
C8 C 0.6834(2) 0.0263(2) 0.5184(5)
H7 H 0.6749 -0.0053 0.4858
C9 C 0.6462(2) 0.0262(2) 0.5775(5)
H8 H 0.6134 -0.0060 0.5866
Ag1H Ag 0.79520(3) 0.06501(2) 0.40991(3)
Ag1N Ag 0.87146(3) 0.26833(2) 0.92343(3)
N1M N 0.53681(18) 0.07879(25) 0.7900(3)
N4D N 0.59707(18) -0.00505(26) 0.8390(3)
P1 P 0.61919(8) 0.08250(9) 1.13891(13)
F1 F 0.6207(3) 0.0406(3) 1.0738(4)
F2 F 0.6281(3) 0.0557(3) 1.2264(3)
F3 F 0.6271(3) 0.1302(3) 1.2048(4)
F4 F 0.6818(2) 0.1108(3) 1.1257(4)
F5 F 0.6163(3) 0.1137(2) 1.0520(3)
F6 F 0.5622(2) 0.0604(5) 1.1671(5)
O1 O 0.5215(2) -0.0086(3) 0.6255(4)
C10 C 0.4832(3) -0.0518(5) 0.6195(6)
C11 C 0.4327(4) -0.0593(7) 0.5737(9)
H9 H 0.4294 -0.0276 0.5843
H10 H 0.4016 -0.0907 0.5997
H11 H 0.4345 -0.0644 0.5075
C12 C 0.4841(5) -0.0992(5) 0.6549(9)
H12 H 0.5205 -0.0890 0.6736
H13 H 0.4723 -0.1263 0.6066
H14 H 0.4602 -0.1136 0.7078
loop_
_geom_bond_atom_site_label_1
_geom_bond_atom_site_label_2
_geom_bond_site_symmetry_1
_geom_bond_site_symmetry_2
Ag1 N2 1_555 1_555
C1 N2 1_555 1_555
N1 C3 1_555 1_555
N2 C9 1_555 1_555
C2 N3 1_555 1_555
N3 Ag1 1_555 1_555
C3 C2 1_555 1_555
H1 C3 1_555 1_555
C4 C1 1_555 1_555
H2 C4 1_555 1_555
H3 C4 1_555 1_555
N4 C6 1_555 1_555
C5 N1 1_555 1_555
H4 C5 1_555 1_555
C6 C1 1_555 1_555
H5 C6 1_555 1_555
C7 N3 1_555 1_555
H6 C7 1_555 1_555
C8 N4 1_555 1_555
H7 C8 1_555 1_555
C9 C8 1_555 1_555
H8 C9 1_555 1_555
P1 F1 1_555 1_555
F2 P1 1_555 1_555
F3 P1 1_555 1_555
F4 P1 1_555 1_555
F5 P1 1_555 1_555
F6 P1 1_555 1_555
O1 C10 1_555 1_555
C10 C11 1_555 1_555
C11 H9 1_555 1_555
H10 C11 1_555 1_555
H11 C11 1_555 1_555
C12 C10 1_555 1_555
H12 C12 1_555 1_555
H13 C12 1_555 1_555
H14 C12 1_555 1_555
Ag1H N4 1_555 1_555
Ag1N N1 1_555 1_555
N1M Ag1 1_555 1_555
N4D Ag1 1_555 1_555
C2 C4 1_555 1_555
C5 C7 1_555 1_555

#END
