
#######################################################################
#
#                 Cambridge Crystallographic Data Centre
#                                CCDC 
#
#######################################################################
#
# If this CIF has been generated from an entry in the Cambridge 
# Structural Database, then it will include bibliographic, chemical, 
# crystal, experimental, refinement or atomic coordinate data resulting 
# from the CCDC's data processing and validation procedures.
#
#######################################################################

data_HUFHEX
_symmetry_cell_setting           rhombohedral
_symmetry_space_group_name_H-M   'R -3'
_symmetry_Int_Tables_number      148
_space_group_name_Hall           '-R 3'
loop_
_symmetry_equiv_pos_site_id
_symmetry_equiv_pos_as_xyz
1 x,y,z
2 -y,x-y,z
3 -x+y,-x,z
4 2/3+x,1/3+y,1/3+z
5 2/3-y,1/3+x-y,1/3+z
6 2/3-x+y,1/3-x,1/3+z
7 1/3+x,2/3+y,2/3+z
8 1/3-y,2/3+x-y,2/3+z
9 1/3-x+y,2/3-x,2/3+z
10 -x,-y,-z
11 y,-x+y,-z
12 x-y,x,-z
13 1/3-x,2/3-y,2/3-z
14 1/3+y,2/3-x+y,2/3-z
15 1/3+x-y,2/3+x,2/3-z
16 2/3-x,1/3-y,1/3-z
17 2/3+y,1/3-x+y,1/3-z
18 2/3+x-y,1/3+x,1/3-z
_cell_length_a                   28.9105(14)
_cell_length_b                   28.9105(14)
_cell_length_c                   14.3863(6)
_cell_angle_alpha                90
_cell_angle_beta                 90
_cell_angle_gamma                120
_cell_volume                     10413.4
loop_
_atom_site_label
_atom_site_type_symbol
_atom_site_fract_x
_atom_site_fract_y
_atom_site_fract_z
Ag1 Ag 0.80207(2) 0.06580(2) 0.39295(3)
N1 N 0.73293(18) -0.00297(17) 0.2981(3)
C1 C 0.7684(2) -0.0734(2) 0.6006(3)
H1 H 0.7650 -0.0773 0.6662
C2 C 0.7380(2) -0.04478(19) 0.2714(3)
C3 C 0.77775(19) -0.05861(18) 0.4157(3)
C4 C 0.78267(19) -0.0510(2) 0.3121(3)
H2 H 0.7824 -0.0822 0.2831
H3 H 0.8173 -0.0189 0.2973
C5 C 0.7582(2) -0.10872(18) 0.4555(3)
H4 H 0.7472 -0.1388 0.4160
N2 N 0.7925(2) -0.01567(17) 0.4685(3)
C6 C 0.6587(2) -0.0341(2) 0.1972(4)
H5 H 0.6311 -0.0292 0.1723
N3 N 0.75429(18) -0.11617(16) 0.5472(3)
C7 C 0.7023(2) -0.0814(2) 0.2071(3)
H6 H 0.7061 -0.1111 0.1899
C8 C 0.7879(3) -0.0235(2) 0.5610(4)
H7 H 0.7984 0.0064 0.6006
N4 N 0.6627(2) -0.07602(18) 0.1688(3)
C9 C 0.6935(2) 0.0023(2) 0.2616(4)
H8 H 0.6891 0.0314 0.2800
S1 S 0.83114(9) 0.08242(9) 0.14664(13)
O1 O 0.8377(2) 0.1082(2) 0.2408(3)
C10 C 0.7856(4) 0.0936(4) 0.0840(5)
H9 H 0.7512 0.0770 0.1167
H10 H 0.7806 0.0779 0.0219
H11 H 0.7994 0.1321 0.0785
C11 C 0.8882(4) 0.1250(5) 0.0837(6)
H12 H 0.8871 0.1573 0.0667
H13 H 0.8898 0.1069 0.0272
H14 H 0.9199 0.1349 0.1218
Ag1H Ag 0.59706(3) -0.13540(2) 0.05962(3)
Ag1K Ag 0.73627(3) -0.19793(2) 0.60705(3)
N3J N 0.88383(16) 0.12954(24) 0.4528(3)
N4D N 0.74269(18) 0.07205(27) 0.5021(3)
P1 P 0.79429(6) 0.04752(6) 0.81089(10)
F1 F 0.84874(15) 0.08823(16) 0.8613(3)
F2 F 0.76833(17) 0.08102(17) 0.8482(3)
F3 F 0.74001(16) 0.00781(19) 0.7601(3)
F4 F 0.81333(18) 0.0824(2) 0.7196(3)
F5 F 0.7746(2) 0.01212(17) 0.9018(3)
F6 F 0.8197(2) 0.0139(2) 0.7729(4)
loop_
_geom_bond_atom_site_label_1
_geom_bond_atom_site_label_2
_geom_bond_site_symmetry_1
_geom_bond_site_symmetry_2
Ag1 N1 1_555 1_555
N1 C2 1_555 1_555
C1 H1 1_555 1_555
C2 C4 1_555 1_555
C3 C4 1_555 1_555
C4 H2 1_555 1_555
H3 C4 1_555 1_555
C5 C3 1_555 1_555
H4 C5 1_555 1_555
N2 Ag1 1_555 1_555
C6 H5 1_555 1_555
N3 C1 1_555 1_555
C7 C2 1_555 1_555
H6 C7 1_555 1_555
C8 C1 1_555 1_555
H7 C8 1_555 1_555
N4 C6 1_555 1_555
C9 N1 1_555 1_555
H8 C9 1_555 1_555
S1 O1 1_555 1_555
O1 Ag1 1_555 1_555
C10 S1 1_555 1_555
H9 C10 1_555 1_555
H10 C10 1_555 1_555
H11 C10 1_555 1_555
C11 S1 1_555 1_555
H12 C11 1_555 1_555
H13 C11 1_555 1_555
H14 C11 1_555 1_555
P1 F1 1_555 1_555
F2 P1 1_555 1_555
F3 P1 1_555 1_555
F4 P1 1_555 1_555
F5 P1 1_555 1_555
F6 P1 1_555 1_555
Ag1H N4 1_555 1_555
Ag1K N3 1_555 1_555
N3J Ag1 1_555 1_555
N4D Ag1 1_555 1_555
C3 N2 1_555 1_555
C5 N3 1_555 1_555
N2 C8 1_555 1_555
C6 C9 1_555 1_555
C7 N4 1_555 1_555

#END
