
#######################################################################
#
#                 Cambridge Crystallographic Data Centre
#                                CCDC 
#
#######################################################################
#
# If this CIF has been generated from an entry in the Cambridge 
# Structural Database, then it will include bibliographic, chemical, 
# crystal, experimental, refinement or atomic coordinate data resulting 
# from the CCDC's data processing and validation procedures.
#
#######################################################################

data_HUFHIB
_symmetry_cell_setting           rhombohedral
_symmetry_space_group_name_H-M   'R -3'
_symmetry_Int_Tables_number      148
_space_group_name_Hall           '-R 3'
loop_
_symmetry_equiv_pos_site_id
_symmetry_equiv_pos_as_xyz
1 x,y,z
2 -y,x-y,z
3 -x+y,-x,z
4 2/3+x,1/3+y,1/3+z
5 2/3-y,1/3+x-y,1/3+z
6 2/3-x+y,1/3-x,1/3+z
7 1/3+x,2/3+y,2/3+z
8 1/3-y,2/3+x-y,2/3+z
9 1/3-x+y,2/3-x,2/3+z
10 -x,-y,-z
11 y,-x+y,-z
12 x-y,x,-z
13 1/3-x,2/3-y,2/3-z
14 1/3+y,2/3-x+y,2/3-z
15 1/3+x-y,2/3+x,2/3-z
16 2/3-x,1/3-y,1/3-z
17 2/3+y,1/3-x+y,1/3-z
18 2/3+x-y,1/3+x,1/3-z
_cell_length_a                   29.054(2)
_cell_length_b                   29.054(2)
_cell_length_c                   12.6638(16)
_cell_angle_alpha                90
_cell_angle_beta                 90
_cell_angle_gamma                120
_cell_volume                     9257.77
loop_
_atom_site_label
_atom_site_type_symbol
_atom_site_fract_x
_atom_site_fract_y
_atom_site_fract_z
Ag1 Ag 0.47070(3) 0.07052(3) 0.21322(6)
N1 N 0.4440(4) 0.1304(3) 0.2982(7)
N2 N 0.4180(3) 0.2018(3) 0.3865(7)
N3 N 0.3440(3) 0.0782(3) -0.0489(6)
N4 N 0.4256(3) 0.0796(3) 0.0712(6)
C1 C 0.4432(4) 0.1693(3) 0.2399(7)
C2 C 0.3784(4) 0.1209(4) 0.0058(7)
H1 H 0.3748 0.1516 0.0044
C3 C 0.3925(4) 0.0370(4) 0.0151(8)
H2 H 0.3966 0.0066 0.0168
C4 C 0.4194(4) 0.1223(4) 0.0647(7)
C5 C 0.3526(4) 0.0359(4) -0.0451(8)
H3 H 0.3303 0.0049 -0.0851
C6 C 0.4153(4) 0.1625(4) 0.4416(9)
H4 H 0.4038 0.1582 0.5129
C7 C 0.4286(5) 0.1277(4) 0.3999(8)
H5 H 0.4271 0.1004 0.4437
C8 C 0.4305(4) 0.2044(4) 0.2841(8)
H6 H 0.4307 0.2313 0.2412
C9 C 0.4581(4) 0.1713(3) 0.1260(8)
H7 H 0.4939 0.1752 0.1217
H8 H 0.4599 0.2030 0.0927
Ag1G Ag 0.26281(3) 0.06685(4) -0.12011(6)
Ag1M Ag 0.40385(3) 0.26649(4) 0.45345(6)
N2N N 0.5495(4) 0.0847(3) 0.2802(7)
N3E N 0.4009(4) -0.0107(3) 0.2844(6)
P1 P 0.45097(13) 0.06786(14) 0.6755(3)
F1 F 0.4176(3) 0.0943(3) 0.6379(6)
F2 F 0.4700(4) 0.1048(4) 0.7735(6)
F3 F 0.4018(3) 0.0248(3) 0.7419(5)
F4 F 0.4827(4) 0.0395(4) 0.7184(9)
F5 F 0.5012(3) 0.1087(4) 0.6094(9)
F6 F 0.4296(4) 0.0289(4) 0.5765(7)
Cl1 Cl 0.4698(3) 0.2427(2) 0.6693(5)
Cl2 Cl 0.3547(4) 0.1709(4) 0.6951(9)
C10 C 0.4180(7) 0.1968(10) 0.7420(18)
H9 H 0.4242 0.1668 0.7548
H10 H 0.4194 0.2131 0.8116
Cl1O Cl 0.1969(3) 0.0906(2) 0.6640(5)
Cl2O Cl 0.3120(4) 0.1624(4) 0.6382(9)
C10O C 0.2487(7) 0.1365(10) 0.5913(18)
H9O H 0.2425 0.1665 0.5785
H10O H 0.2473 0.1202 0.5217
loop_
_geom_bond_atom_site_label_1
_geom_bond_atom_site_label_2
_geom_bond_site_symmetry_1
_geom_bond_site_symmetry_2
Ag1 N1 1_555 1_555
N1 C1 1_555 1_555
N2 C6 1_555 1_555
N3 C2 1_555 1_555
N4 Ag1 1_555 1_555
C1 C8 1_555 1_555
C2 H1 1_555 1_555
C3 N4 1_555 1_555
H2 C3 1_555 1_555
C4 N4 1_555 1_555
C5 N3 1_555 1_555
H3 C5 1_555 1_555
C6 H4 1_555 1_555
C7 N1 1_555 1_555
H5 C7 1_555 1_555
C8 N2 1_555 1_555
H6 C8 1_555 1_555
C9 C1 1_555 1_555
H7 C9 1_555 1_555
H8 C9 1_555 1_555
P1 F1 1_555 1_555
F2 P1 1_555 1_555
F3 P1 1_555 1_555
F4 P1 1_555 1_555
F5 P1 1_555 1_555
F6 P1 1_555 1_555
Cl1 C10 1_555 1_555
Cl2 C10 1_555 1_555
C10 H9 1_555 1_555
H10 C10 1_555 1_555
Ag1G N3 1_555 1_555
Ag1M N2 1_555 1_555
N2N Ag1 1_555 1_555
N3E Ag1 1_555 1_555
Cl1O C10O 1_555 1_555
Cl2O C10O 1_555 1_555
C10O H9O 1_555 1_555
H10O C10O 1_555 1_555
C2 C4 1_555 1_555
C3 C5 1_555 1_555
C4 C9 1_555 1_555
C6 C7 1_555 1_555

#END
