
#######################################################################
#
#                 Cambridge Crystallographic Data Centre
#                                CCDC 
#
#######################################################################
#
# If this CIF has been generated from an entry in the Cambridge 
# Structural Database, then it will include bibliographic, chemical, 
# crystal, experimental, refinement or atomic coordinate data resulting 
# from the CCDC's data processing and validation procedures.
#
#######################################################################

data_HUFJUN
_symmetry_cell_setting           triclinic
_symmetry_space_group_name_H-M   'P -1'
_symmetry_Int_Tables_number      2
_space_group_name_Hall           '-P 1'
loop_
_symmetry_equiv_pos_site_id
_symmetry_equiv_pos_as_xyz
1 x,y,z
2 -x,-y,-z
_cell_length_a                   5.7372(12)
_cell_length_b                   9.897(2)
_cell_length_c                   10.394(3)
_cell_angle_alpha                108.33(2)
_cell_angle_beta                 105.27(2)
_cell_angle_gamma                90.50(2)
_cell_volume                     537.75
loop_
_atom_site_label
_atom_site_type_symbol
_atom_site_fract_x
_atom_site_fract_y
_atom_site_fract_z
Cu1 Cu 0.21610(6) 0.02626(4) -0.05746(4)
N1 N 0.4439(5) -0.0996(3) -0.1354(3)
N2 N 0.4309(5) -0.1420(3) -0.2585(3)
N3 N 0.4267(7) -0.1844(4) -0.3751(3)
N4 N 0.0064(5) -0.1333(3) -0.0463(3)
N5 N -0.0123(5) -0.2599(3) -0.1010(4)
N6 N -0.0254(9) -0.3802(4) -0.1488(6)
N7 N 0.2483(5) 0.1683(3) -0.1549(3)
C1 C 0.0824(6) 0.1671(4) -0.2737(3)
C2 C 0.1154(8) 0.2617(4) -0.3416(4)
H1 H -0.0027(8) 0.2600(4) -0.4230(4)
C3 C 0.3163(8) 0.3581(4) -0.2929(4)
C4 C 0.4830(7) 0.3590(4) -0.1705(5)
H2 H 0.6225(7) 0.4230(4) -0.1326(5)
C5 C 0.4420(6) 0.2650(4) -0.1047(4)
H3 H 0.5548(6) 0.2685(4) -0.0207(4)
C6 C -0.1348(8) 0.0594(5) -0.3268(5)
H4 H -0.2507(25) 0.0776(20) -0.4033(21)
H5 H -0.2072(32) 0.0664(22) -0.2518(10)
H6 H -0.0858(12) -0.0350(6) -0.3593(29)
C7 C 0.3538(11) 0.4618(6) -0.3673(6)
H7 H 0.3373(65) 0.5570(7) -0.3112(19)
H8 H 0.2345(42) 0.4365(23) -0.4576(17)
H9 H 0.5134(26) 0.4578(28) -0.3805(34)
N1A N 0.5561(5) 0.0996(3) 0.1354(3)
N4A N -0.0064(5) 0.1333(3) 0.0463(3)
Cu1A Cu 0.78390(6) -0.02626(4) 0.05746(4)
Cu1A_2 Cu -0.21610(6) -0.02626(4) 0.05746(4)
loop_
_geom_bond_atom_site_label_1
_geom_bond_atom_site_label_2
_geom_bond_site_symmetry_1
_geom_bond_site_symmetry_2
Cu1 N1 1_555 1_555
N1 N2 1_555 1_555
N2 N3 1_555 1_555
N4 Cu1 1_555 1_555
N5 N4 1_555 1_555
N6 N5 1_555 1_555
N7 Cu1 1_555 1_555
C1 N7 1_555 1_555
C2 C1 1_555 1_555
H1 C2 1_555 1_555
C3 C2 1_555 1_555
C4 C3 1_555 1_555
H2 C4 1_555 1_555
C5 N7 1_555 1_555
H3 C5 1_555 1_555
C6 C1 1_555 1_555
H4 C6 1_555 1_555
H5 C6 1_555 1_555
H6 C6 1_555 1_555
C7 C3 1_555 1_555
H7 C7 1_555 1_555
H8 C7 1_555 1_555
H9 C7 1_555 1_555
N1A Cu1 1_555 1_555
N4A Cu1 1_555 1_555
Cu1A N1 1_555 1_555
Cu1A_2 N4 1_555 1_555
C4 C5 1_555 1_555
N1A Cu1A 1_555 1_555
N4A Cu1A_2 1_555 1_555

#END
