
#######################################################################
#
#                 Cambridge Crystallographic Data Centre
#                                CCDC 
#
#######################################################################
#
# If this CIF has been generated from an entry in the Cambridge 
# Structural Database, then it will include bibliographic, chemical, 
# crystal, experimental, refinement or atomic coordinate data resulting 
# from the CCDC's data processing and validation procedures.
#
#######################################################################

data_HUFJEZ
_symmetry_cell_setting           rhombohedral
_symmetry_space_group_name_H-M   'R -3'
_symmetry_Int_Tables_number      148
_space_group_name_Hall           '-R 3'
loop_
_symmetry_equiv_pos_site_id
_symmetry_equiv_pos_as_xyz
1 x,y,z
2 -y,x-y,z
3 -x+y,-x,z
4 2/3+x,1/3+y,1/3+z
5 2/3-y,1/3+x-y,1/3+z
6 2/3-x+y,1/3-x,1/3+z
7 1/3+x,2/3+y,2/3+z
8 1/3-y,2/3+x-y,2/3+z
9 1/3-x+y,2/3-x,2/3+z
10 -x,-y,-z
11 y,-x+y,-z
12 x-y,x,-z
13 1/3-x,2/3-y,2/3-z
14 1/3+y,2/3-x+y,2/3-z
15 1/3+x-y,2/3+x,2/3-z
16 2/3-x,1/3-y,1/3-z
17 2/3+y,1/3-x+y,1/3-z
18 2/3+x-y,1/3+x,1/3-z
_cell_length_a                   28.159(2)
_cell_length_b                   28.159(2)
_cell_length_c                   11.9365(12)
_cell_angle_alpha                90
_cell_angle_beta                 90
_cell_angle_gamma                120
_cell_volume                     8196.76
loop_
_atom_site_label
_atom_site_type_symbol
_atom_site_fract_x
_atom_site_fract_y
_atom_site_fract_z
Ag1 Ag 0.58905(2) 0.06801(3) 0.19037(6)
C1 C 0.6445(3) 0.0369(3) -0.0091(6)
H1 H 0.6099 0.0042 -0.0102
C2 C 0.7654(3) 0.2004(3) 0.2890(9)
H2 H 0.7943 0.2279 0.2454
N1 N 0.6509(3) 0.0806(3) 0.0488(6)
N2 N 0.7377(3) 0.0836(3) -0.0672(5)
C3 C 0.7170(4) 0.1669(3) 0.2395(8)
C4 C 0.6834(4) 0.1203(4) 0.3982(9)
H3 H 0.6546 0.0910 0.4388
C5 C 0.6888(3) 0.0395(3) -0.0679(6)
H4 H 0.6834 0.0084 -0.1095
C6 C 0.7004(4) 0.1260(4) 0.0487(8)
N3 N 0.6758(3) 0.1267(3) 0.2943(7)
C7 C 0.7425(3) 0.1259(4) -0.0105(7)
H5 H 0.7772 0.1586 -0.0104
C8 C 0.7322(3) 0.1545(4) 0.4529(9)
H6 H 0.7365 0.1492 0.5300
N4 N 0.7739(3) 0.1961(3) 0.3946(9)
C9 C 0.7072(4) 0.1732(4) 0.1157(8)
H7 H 0.6739 0.1764 0.1083
H8 H 0.7386 0.2073 0.0862
Ag1H Ag 0.81229(4) 0.07762(2) -0.14296(6)
Ag1N Ag 0.85437(4) 0.25572(2) 0.47630(6)
N2D N 0.5831(3) -0.0126(4) 0.2661(5)
N4M N 0.5294(3) 0.0889(4) 0.2721(9)
F1 F 0.5938(3) 0.0975(3) 0.6319(7)
F2 F 0.5934(3) 0.0212(3) 0.5802(6)
F3 F 0.6627(3) 0.0866(4) 0.6810(7)
B1 B 0.6062(6) 0.0576(5) 0.6606(11)
F4 F 0.5773(4) 0.0346(3) 0.7579(6)
Cl1 Cl 0.5696(3) 0.1358(2) 0.9426(8)
C10 C 0.5301(10) 0.0732(6) 0.9158(16)
H9 H 0.5477 0.0654 0.8519
H10 H 0.4966 0.0714 0.8851
Cl2 Cl 0.5069(2) 0.0175(2) 0.9989(5)
Cl1I Cl 0.4304(3) -0.1358(2) 1.0574(8)
C10I C 0.4699(10) -0.0732(6) 1.0842(16)
H9I H 0.4523 -0.0654 1.1481
H10I H 0.5034 -0.0714 1.1149
Cl2I Cl 0.4931(2) -0.0175(2) 1.0011(5)
loop_
_geom_bond_atom_site_label_1
_geom_bond_atom_site_label_2
_geom_bond_site_symmetry_1
_geom_bond_site_symmetry_2
Ag1 N1 1_555 1_555
C1 H1 1_555 1_555
C2 H2 1_555 1_555
N1 C1 1_555 1_555
N2 C5 1_555 1_555
C3 C2 1_555 1_555
C4 H3 1_555 1_555
C5 C1 1_555 1_555
H4 C5 1_555 1_555
C6 N1 1_555 1_555
N3 Ag1 1_555 1_555
C7 N2 1_555 1_555
H5 C7 1_555 1_555
C8 C4 1_555 1_555
H6 C8 1_555 1_555
N4 C2 1_555 1_555
C9 C3 1_555 1_555
H7 C9 1_555 1_555
H8 C9 1_555 1_555
F1 B1 1_555 1_555
F2 B1 1_555 1_555
F3 B1 1_555 1_555
B1 F4 1_555 1_555
Cl1 C10 1_555 1_555
C10 H9 1_555 1_555
H10 C10 1_555 1_555
Cl2 C10 1_555 1_555
Ag1H N2 1_555 1_555
Ag1N N4 1_555 1_555
N2D Ag1 1_555 1_555
N4M Ag1 1_555 1_555
Cl1I C10I 1_555 1_555
C10I H9I 1_555 1_555
H10I C10I 1_555 1_555
Cl2I C10I 1_555 1_555
C3 N3 1_555 1_555
C4 N3 1_555 1_555
C6 C7 1_555 1_555
C6 C9 1_555 1_555
C8 N4 1_555 1_555

#END
