
#######################################################################
#
#                 Cambridge Crystallographic Data Centre
#                                CCDC 
#
#######################################################################
#
# If this CIF has been generated from an entry in the Cambridge 
# Structural Database, then it will include bibliographic, chemical, 
# crystal, experimental, refinement or atomic coordinate data resulting 
# from the CCDC's data processing and validation procedures.
#
#######################################################################

data_HUFLOL
_symmetry_cell_setting           monoclinic
_symmetry_space_group_name_H-M   'P 21/n'
_symmetry_Int_Tables_number      14
_space_group_name_Hall           '-P 2yn'
loop_
_symmetry_equiv_pos_site_id
_symmetry_equiv_pos_as_xyz
1 x,y,z
2 1/2-x,1/2+y,1/2-z
3 -x,-y,-z
4 1/2+x,1/2-y,1/2+z
_cell_length_a                   4.4398(3)
_cell_length_b                   23.0380(18)
_cell_length_c                   14.3878(9)
_cell_angle_alpha                90
_cell_angle_beta                 96.661(6)
_cell_angle_gamma                90
_cell_volume                     1461.71
loop_
_atom_site_label
_atom_site_type_symbol
_atom_site_fract_x
_atom_site_fract_y
_atom_site_fract_z
Ca1 Ca 0.87377(17) 0.41899(3) 0.50393(5)
F1 F 0.1732(5) 0.45754(10) 0.80156(15)
F2 F 0.2192(5) 0.52372(11) 0.95744(15)
F3 F 0.5582(6) 0.62147(11) 0.96716(15)
F4 F 0.8447(5) 0.65442(10) 0.82277(15)
O1 O 0.6192(6) 0.44628(12) 0.63340(17)
O2 O 0.1902(6) 0.49343(11) 0.58486(17)
O3 O 1.0389(6) 0.61950(12) 0.65537(17)
O4 O 0.6381(6) 0.58442(11) 0.56698(17)
O5 O 0.7541(7) 0.31456(13) 0.5302(2)
O6 O 1.1353(6) 0.34892(12) 0.62007(19)
O7 O 1.0165(8) 0.25790(13) 0.6299(2)
N1 N 0.9671(8) 0.30554(15) 0.5946(2)
C1 C 0.4288(8) 0.48448(17) 0.6401(3)
C2 C 0.4758(8) 0.52321(17) 0.7266(3)
C3 C 0.3387(9) 0.50678(18) 0.8038(3)
C4 C 0.3648(9) 0.53976(19) 0.8843(3)
C5 C 0.5354(9) 0.58902(18) 0.8886(3)
C6 C 0.6797(8) 0.60561(18) 0.8135(3)
C7 C 0.6495(8) 0.57376(17) 0.7312(3)
C8 C 0.7874(9) 0.59509(16) 0.6466(3)
Ca1_2 Ca -0.12623(17) 0.41899(3) 0.50393(5)
Ca1B Ca 0.12623(17) 0.58101(3) 0.49607(5)
Ca1B_2 Ca 1.12623(17) 0.58101(3) 0.49607(5)
O2_2 O 1.1902(6) 0.49343(11) 0.58486(17)
O2B O 0.8098(6) 0.50657(11) 0.41514(17)
O3B O 0.9611(6) 0.38050(12) 0.34463(17)
O4B O 0.3619(6) 0.41558(11) 0.43302(17)
O4B_2 O 1.3619(6) 0.41558(11) 0.43302(17)
N2 N 0.5430(9) 0.30840(17) 0.7679(3)
H1 H 0.426(11) 0.3160(19) 0.729(3)
C9 C 0.5478(10) 0.2574(2) 0.8104(3)
H2 H 0.4221 0.2267 0.7845
C10 C 0.7361(10) 0.24910(19) 0.8924(3)
H3 H 0.7443 0.2125 0.9231
C11 C 0.9119(10) 0.29460(19) 0.9291(3)
H4 H 1.0423 0.2897 0.9857
C12 C 0.8983(10) 0.34735(19) 0.8833(3)
H5 H 1.0174 0.3791 0.9086
C13 C 0.7117(9) 0.35346(19) 0.8013(3)
H6 H 0.7022 0.3893 0.7685
loop_
_geom_bond_atom_site_label_1
_geom_bond_atom_site_label_2
_geom_bond_site_symmetry_1
_geom_bond_site_symmetry_2
Ca1 O1 1_555 1_555
F1 C3 1_555 1_555
F2 C4 1_555 1_555
F3 C5 1_555 1_555
F4 C6 1_555 1_555
O1 C1 1_555 1_555
O2 C1 1_555 1_555
O3 C8 1_555 1_555
O4 C8 1_555 1_555
O5 Ca1 1_555 1_555
O6 Ca1 1_555 1_555
O7 N1 1_555 1_555
N1 O5 1_555 1_555
C1 C2 1_555 1_555
C2 C3 1_555 1_555
C3 C4 1_555 1_555
C4 C5 1_555 1_555
C5 C6 1_555 1_555
C6 C7 1_555 1_555
C7 C2 1_555 1_555
C8 C7 1_555 1_555
N2 H1 1_555 1_555
C9 N2 1_555 1_555
H2 C9 1_555 1_555
C10 C9 1_555 1_555
H3 C10 1_555 1_555
C11 C10 1_555 1_555
H4 C11 1_555 1_555
C12 C11 1_555 1_555
H5 C12 1_555 1_555
C13 N2 1_555 1_555
H6 C13 1_555 1_555
Ca1_2 O2 1_555 1_555
Ca1B O2 1_555 1_555
Ca1B_2 O3 1_555 1_555
O2_2 Ca1 1_555 1_555
O2B Ca1 1_555 1_555
O3B Ca1 1_555 1_555
O4B Ca1 1_555 1_555
O4B_2 Ca1 1_555 1_555
O4 Ca1B 1_555 1_555
O4 Ca1B_2 1_555 1_555
O6 N1 1_555 1_555
C12 C13 1_555 1_555
Ca1_2 O4B 1_555 1_555
Ca1B_2 O2_2 1_555 1_555
Ca1B_2 O2B 1_555 1_555

#END
