
#######################################################################
#
#                 Cambridge Crystallographic Data Centre
#                                CCDC 
#
#######################################################################
#
# If this CIF has been generated from an entry in the Cambridge 
# Structural Database, then it will include bibliographic, chemical, 
# crystal, experimental, refinement or atomic coordinate data resulting 
# from the CCDC's data processing and validation procedures.
#
#######################################################################

data_HUFMOM
_symmetry_cell_setting           monoclinic
_symmetry_space_group_name_H-M   'C 2'
_symmetry_Int_Tables_number      5
_space_group_name_Hall           'C 2y'
loop_
_symmetry_equiv_pos_site_id
_symmetry_equiv_pos_as_xyz
1 x,y,z
2 -x,y,-z
3 1/2+x,1/2+y,z
4 1/2-x,1/2+y,-z
_cell_length_a                   32.076(3)
_cell_length_b                   6.1638(3)
_cell_length_c                   11.5618(7)
_cell_angle_alpha                90
_cell_angle_beta                 97.569(7)
_cell_angle_gamma                90
_cell_volume                     2265.97
loop_
_atom_site_label
_atom_site_type_symbol
_atom_site_fract_x
_atom_site_fract_y
_atom_site_fract_z
Sr1 Sr 0.5000 0.6613(3) 0.0000
Sr2 Sr 0.52714(5) 1.3373(2) -0.28360(11)
F1 F 0.6521(3) 1.2979(17) 0.4661(8)
F2 F 0.7075(3) 1.0198(19) 0.3947(9)
F3 F 0.6795(3) 0.658(2) 0.2727(9)
F4 F 0.5984(3) 0.5910(17) 0.2150(9)
F5 F 0.6369(4) 1.2208(17) 0.0818(9)
F6 F 0.7173(4) 1.0830(19) 0.1406(9)
F7 F 0.7410(3) 0.6919(19) 0.0649(9)
F8 F 0.6863(3) 0.4376(18) -0.0669(9)
O1 O 0.5674(4) 1.1907(19) 0.5581(9)
O2 O 0.5257(3) 0.3190(19) 0.1232(9)
H1 H 0.5536 0.3319 0.1565
H2 H 0.5223 0.1923 0.0793
O3 O 0.5481(4) 1.3883(17) 0.3969(9)
O4 O 0.5483(3) 1.6736(17) -0.4032(8)
H3 H 0.5306 1.7936 -0.3977
H4 H 0.5471 1.6425 -0.4832
O5 O 0.5186(4) 0.7181(18) 0.2222(9)
O6 O 0.5109(4) 0.9633(19) 0.3544(10)
O7 O 0.5669(4) 1.039(2) -0.1680(10)
O8 O 0.5502(4) 0.9861(18) 0.0163(8)
O9 O 0.6083(4) 0.4504(19) -0.2164(10)
O10 O 0.5632(4) 0.5403(19) -0.0940(10)
C1 C 0.5661(5) 1.232(3) 0.4520(13)
C2 C 0.5943(6) 1.082(3) 0.3869(13)
C3 C 0.6367(6) 1.120(3) 0.4063(13)
C4 C 0.6662(6) 0.980(3) 0.3685(15)
C5 C 0.6520(6) 0.799(3) 0.3091(14)
C6 C 0.6100(6) 0.765(3) 0.2815(16)
C7 C 0.5792(5) 0.900(2) 0.3199(13)
C8 C 0.5320(5) 0.852(3) 0.2958(11)
C9 C 0.5744(5) 0.976(2) -0.0629(13)
C10 C 0.6189(5) 0.896(3) -0.0235(13)
C11 C 0.6482(6) 1.027(3) 0.0416(14)
C12 C 0.6899(6) 0.963(3) 0.0733(14)
C13 C 0.7016(6) 0.763(3) 0.0305(14)
C14 C 0.6726(6) 0.630(3) -0.0349(15)
C15 C 0.6302(5) 0.696(3) -0.0630(12)
C16 C 0.5985(5) 0.552(3) -0.1307(13)
Sr2A Sr 0.47286(5) 1.3373(2) 0.28360(11)
F1A F 0.3479(3) 1.2979(17) -0.4661(8)
F2A F 0.2925(3) 1.0198(19) -0.3947(9)
F3A F 0.3205(3) 0.658(2) -0.2727(9)
F4A F 0.4016(3) 0.5910(17) -0.2150(9)
F5A F 0.3631(4) 1.2208(17) -0.0818(9)
F6A F 0.2827(4) 1.0830(19) -0.1406(9)
F7A F 0.2590(3) 0.6919(19) -0.0649(9)
F8A F 0.3137(3) 0.4376(18) 0.0669(9)
O1A O 0.4326(4) 1.1907(19) -0.5581(9)
O2A O 0.4743(3) 0.3190(19) -0.1232(9)
H1A H 0.4464 0.3319 -0.1565
H2A H 0.4777 0.1923 -0.0793
O3A O 0.4519(4) 1.3883(17) -0.3969(9)
O4A O 0.4517(3) 1.6736(17) 0.4032(8)
H3A H 0.4694 1.7936 0.3977
H4A H 0.4529 1.6425 0.4832
O5A O 0.4814(4) 0.7181(18) -0.2222(9)
O6A O 0.4891(4) 0.9633(19) -0.3544(10)
O7A O 0.4331(4) 1.039(2) 0.1680(10)
O8A O 0.4498(4) 0.9861(18) -0.0163(8)
O9A O 0.3917(4) 0.4504(19) 0.2164(10)
O10A O 0.4368(4) 0.5403(19) 0.0940(10)
C1A C 0.4339(5) 1.232(3) -0.4520(13)
C2A C 0.4057(6) 1.082(3) -0.3869(13)
C3A C 0.3633(6) 1.120(3) -0.4063(13)
C4A C 0.3338(6) 0.980(3) -0.3685(15)
C5A C 0.3480(6) 0.799(3) -0.3091(14)
C6A C 0.3900(6) 0.765(3) -0.2815(16)
C7A C 0.4208(5) 0.900(2) -0.3199(13)
C8A C 0.4680(5) 0.852(3) -0.2958(11)
C9A C 0.4256(5) 0.976(2) 0.0629(13)
C10A C 0.3811(5) 0.896(3) 0.0235(13)
C11A C 0.3518(6) 1.027(3) -0.0416(14)
C12A C 0.3101(6) 0.963(3) -0.0733(14)
C13A C 0.2984(6) 0.763(3) -0.0305(14)
C14A C 0.3274(6) 0.630(3) 0.0349(15)
C15A C 0.3698(5) 0.696(3) 0.0630(12)
C16A C 0.4015(5) 0.552(3) 0.1307(13)
Sr2_2 Sr 0.52714(5) 0.3373(2) -0.28360(11)
Sr2_3 Sr 0.52714(5) 1.3373(2) 0.71640(11)
Sr2A_2 Sr 0.47286(5) 0.3373(2) 0.28360(11)
Sr2A_3 Sr 0.47286(5) 1.3373(2) -0.71640(11)
O1_2 O 0.5674(4) 1.1907(19) -0.4419(9)
O1A_2 O 0.4326(4) 1.1907(19) 0.4419(9)
O2_2 O 0.5257(3) 1.3190(19) 0.1232(9)
O2A_2 O 0.4743(3) 1.3190(19) -0.1232(9)
O5_2 O 0.5186(4) 1.7181(18) 0.2222(9)
O5A_2 O 0.4814(4) 1.7181(18) -0.2222(9)
O9_2 O 0.6083(4) 1.4504(19) -0.2164(10)
O9A_2 O 0.3917(4) 1.4504(19) 0.2164(10)
O10_2 O 0.5632(4) 1.5403(19) -0.0940(10)
O10A_2 O 0.4368(4) 1.5403(19) 0.0940(10)
N1 N 0.6299(5) 0.860(3) -0.3411(11)
H5 H 0.6022 0.8580 -0.3508
C17 C 0.6497(6) 1.031(3) -0.2920(15)
H6 H 0.6342 1.1513 -0.2684
C18 C 0.6931(6) 1.035(3) -0.2754(14)
H7 H 0.7077 1.1550 -0.2378
C19 C 0.7148(6) 0.868(3) -0.3122(16)
H8 H 0.7447 0.8704 -0.3018
C20 C 0.6930(6) 0.690(4) -0.3662(16)
H9 H 0.7076 0.5713 -0.3949
C21 C 0.6506(6) 0.692(3) -0.3758(14)
H10 H 0.6353 0.5701 -0.4085
loop_
_geom_bond_atom_site_label_1
_geom_bond_atom_site_label_2
_geom_bond_site_symmetry_1
_geom_bond_site_symmetry_2
Sr1 O2 1_555 1_555
Sr2 O4 1_555 1_555
F1 C3 1_555 1_555
F2 C4 1_555 1_555
F3 C5 1_555 1_555
F4 C6 1_555 1_555
F5 C11 1_555 1_555
F6 C12 1_555 1_555
F7 C13 1_555 1_555
F8 C14 1_555 1_555
O1 C1 1_555 1_555
O2 H1 1_555 1_555
H2 O2 1_555 1_555
O3 C1 1_555 1_555
O4 H3 1_555 1_555
H4 O4 1_555 1_555
O5 Sr1 1_555 1_555
O6 C8 1_555 1_555
O7 Sr2 1_555 1_555
O8 Sr1 1_555 1_555
O9 C16 1_555 1_555
O10 Sr1 1_555 1_555
C1 C2 1_555 1_555
C2 C3 1_555 1_555
C3 C4 1_555 1_555
C4 C5 1_555 1_555
C5 C6 1_555 1_555
C6 C7 1_555 1_555
C7 C2 1_555 1_555
C8 O5 1_555 1_555
C9 O7 1_555 1_555
C10 C9 1_555 1_555
C11 C10 1_555 1_555
C12 C11 1_555 1_555
C13 C12 1_555 1_555
C14 C13 1_555 1_555
C15 C10 1_555 1_555
C16 O10 1_555 1_555
N1 H5 1_555 1_555
C17 N1 1_555 1_555
H6 C17 1_555 1_555
C18 C17 1_555 1_555
H7 C18 1_555 1_555
C19 C18 1_555 1_555
H8 C19 1_555 1_555
C20 C19 1_555 1_555
H9 C20 1_555 1_555
C21 N1 1_555 1_555
H10 C21 1_555 1_555
Sr2A O3 1_555 1_555
F1A C3A 1_555 1_555
F2A C4A 1_555 1_555
F3A C5A 1_555 1_555
F4A C6A 1_555 1_555
F5A C11A 1_555 1_555
F6A C12A 1_555 1_555
F7A C13A 1_555 1_555
F8A C14A 1_555 1_555
O1A C1A 1_555 1_555
O2A Sr1 1_555 1_555
H1A O2A 1_555 1_555
H2A O2A 1_555 1_555
O3A Sr2 1_555 1_555
O4A Sr2A 1_555 1_555
H3A O4A 1_555 1_555
H4A O4A 1_555 1_555
O5A Sr1 1_555 1_555
O6A Sr2 1_555 1_555
O7A Sr2A 1_555 1_555
O8A Sr1 1_555 1_555
O9A C16A 1_555 1_555
O10A Sr1 1_555 1_555
C1A O3A 1_555 1_555
C2A C1A 1_555 1_555
C3A C2A 1_555 1_555
C4A C3A 1_555 1_555
C5A C4A 1_555 1_555
C6A C5A 1_555 1_555
C7A C2A 1_555 1_555
C8A O5A 1_555 1_555
C9A O7A 1_555 1_555
C10A C9A 1_555 1_555
C11A C10A 1_555 1_555
C12A C11A 1_555 1_555
C13A C12A 1_555 1_555
C14A C13A 1_555 1_555
C15A C10A 1_555 1_555
C16A O10A 1_555 1_555
Sr2_2 O9 1_555 1_555
Sr2_3 O1 1_555 1_555
Sr2A_2 O2 1_555 1_555
Sr2A_3 O1A 1_555 1_555
O1_2 Sr2 1_555 1_555
O1A_2 Sr2A 1_555 1_555
O2_2 Sr2A 1_555 1_555
O2A_2 Sr2 1_555 1_555
O5_2 Sr2A 1_555 1_555
O5A_2 Sr2 1_555 1_555
O9_2 Sr2 1_555 1_555
O9A_2 Sr2A 1_555 1_555
O10_2 Sr2 1_555 1_555
O10A_2 Sr2A 1_555 1_555
O5 Sr2A_2 1_555 1_555
O6 Sr2A 1_555 1_555
O8 C9 1_555 1_555
O10 Sr2_2 1_555 1_555
C7 C8 1_555 1_555
C14 C15 1_555 1_555
C15 C16 1_555 1_555
C20 C21 1_555 1_555
O2A Sr2_2 1_555 1_555
O5A Sr2_2 1_555 1_555
O6A C8A 1_555 1_555
O8A C9A 1_555 1_555
O9A Sr2A_2 1_555 1_555
O10A Sr2A_2 1_555 1_555
C6A C7A 1_555 1_555
C7A C8A 1_555 1_555
C14A C15A 1_555 1_555
C15A C16A 1_555 1_555

#END
