
#######################################################################
#
#                 Cambridge Crystallographic Data Centre
#                                CCDC 
#
#######################################################################
#
# If this CIF has been generated from an entry in the Cambridge 
# Structural Database, then it will include bibliographic, chemical, 
# crystal, experimental, refinement or atomic coordinate data resulting 
# from the CCDC's data processing and validation procedures.
#
#######################################################################

data_HUFNAZ
_symmetry_cell_setting           triclinic
_symmetry_space_group_name_H-M   'P -1'
_symmetry_Int_Tables_number      2
_space_group_name_Hall           '-P 1'
loop_
_symmetry_equiv_pos_site_id
_symmetry_equiv_pos_as_xyz
1 x,y,z
2 -x,-y,-z
_cell_length_a                   8.8263(7)
_cell_length_b                   8.9293(7)
_cell_length_c                   10.8630(9)
_cell_angle_alpha                92.612(16)
_cell_angle_beta                 93.939(17)
_cell_angle_gamma                100.991(18)
_cell_volume                     836.947
loop_
_atom_site_label
_atom_site_type_symbol
_atom_site_fract_x
_atom_site_fract_y
_atom_site_fract_z
Sr1 Sr 0.42979(7) 0.28371(7) 0.58036(6)
F1 F 0.3014(5) 0.8715(5) 0.8149(4)
F2 F 0.0725(5) 0.8239(5) 0.9674(4)
F3 F -0.1541(5) 0.5735(5) 0.9291(4)
F4 F 0.0820(4) 0.4117(5) 0.5858(4)
O1 O 0.3930(5) 0.5529(5) 0.5851(4)
O2 O 0.3026(6) 0.2973(7) 0.7780(5)
O3 O 0.2705(6) 0.2858(6) 0.3742(5)
H1 H 0.2485 0.3778 0.3644
H2 H 0.1822 0.2182 0.3727
O4 O 0.3778(5) 0.7968(6) 0.5781(4)
O5 O 0.2260(5) 0.0294(6) 0.5431(5)
H3 H 0.2717 -0.0541 0.5501
H4 H 0.1756 0.0213 0.4657
O6 O -0.3024(5) 0.4062(6) 0.6891(4)
O7 O 0.5350(5) 0.0783(6) 0.6948(4)
H5 H 0.6367 0.1071 0.7137
H6 H 0.5182 -0.0088 0.6480
O8 O -0.1672(5) 0.2271(6) 0.7412(5)
N1 N 0.3817(7) 0.2286(8) 0.9663(6)
C1 C 0.3329(7) 0.6651(8) 0.6138(6)
C2 C 0.2777(9) 0.2302(9) 0.8724(7)
H7 H 0.1757 0.1748 0.8791
C3 C 0.2016(8) 0.6395(8) 0.6976(6)
C4 C 0.3439(9) 0.1443(10) 1.0752(7)
H8 H 0.2343 0.0949 1.0667
H9 H 0.3641 0.2149 1.1488
H10 H 0.4079 0.0664 1.0835
C5 C 0.1931(8) 0.7440(9) 0.7934(6)
C6 C 0.5392(8) 0.3102(10) 0.9632(8)
H11 H 0.5699 0.3746 1.0397
H12 H 0.5465 0.3745 0.8923
H13 H 0.6082 0.2368 0.9555
C7 C 0.0750(8) 0.7199(9) 0.8723(7)
C8 C -0.0385(8) 0.5926(9) 0.8511(6)
C9 C -0.0416(7) 0.4878(8) 0.7562(6)
C10 C -0.1804(8) 0.3606(9) 0.7259(7)
C11 C 0.0838(8) 0.5127(8) 0.6815(6)
Sr1_2 Sr -0.57021(7) 0.28371(7) 0.58036(6)
Sr1A Sr 0.57021(7) 0.71629(7) 0.41964(6)
O1A O 0.6070(5) 0.4471(5) 0.4149(4)
O4A O 0.6222(5) 0.2032(6) 0.4219(4)
O6_2 O 0.6976(5) 0.4062(6) 0.6891(4)
O9 O -0.0367(6) -0.0178(6) 0.6806(5)
H14 H -0.0641 0.0656 0.7076
H15 H 0.0528 0.0051 0.6501
loop_
_geom_bond_atom_site_label_1
_geom_bond_atom_site_label_2
_geom_bond_site_symmetry_1
_geom_bond_site_symmetry_2
Sr1 O1 1_555 1_555
F1 C5 1_555 1_555
F2 C7 1_555 1_555
F3 C8 1_555 1_555
F4 C11 1_555 1_555
O1 C1 1_555 1_555
O2 Sr1 1_555 1_555
O3 Sr1 1_555 1_555
H1 O3 1_555 1_555
H2 O3 1_555 1_555
O4 C1 1_555 1_555
O5 Sr1 1_555 1_555
H3 O5 1_555 1_555
H4 O5 1_555 1_555
O6 C10 1_555 1_555
O7 Sr1 1_555 1_555
H5 O7 1_555 1_555
H6 O7 1_555 1_555
O8 C10 1_555 1_555
N1 C2 1_555 1_555
C1 C3 1_555 1_555
C2 O2 1_555 1_555
H7 C2 1_555 1_555
C3 C5 1_555 1_555
C4 N1 1_555 1_555
H8 C4 1_555 1_555
H9 C4 1_555 1_555
H10 C4 1_555 1_555
C5 C7 1_555 1_555
C6 N1 1_555 1_555
H11 C6 1_555 1_555
H12 C6 1_555 1_555
H13 C6 1_555 1_555
C7 C8 1_555 1_555
C8 C9 1_555 1_555
C9 C10 1_555 1_555
C11 C3 1_555 1_555
O9 H14 1_555 1_555
H15 O9 1_555 1_555
Sr1_2 O6 1_555 1_555
Sr1A O1 1_555 1_555
O1A Sr1 1_555 1_555
O4A Sr1 1_555 1_555
O6_2 Sr1 1_555 1_555
O4 Sr1A 1_555 1_555
C9 C11 1_555 1_555
Sr1A O1A 1_555 1_555

#END
