
#######################################################################
#
#                 Cambridge Crystallographic Data Centre
#                                CCDC 
#
#######################################################################
#
# If this CIF has been generated from an entry in the Cambridge 
# Structural Database, then it will include bibliographic, chemical, 
# crystal, experimental, refinement or atomic coordinate data resulting 
# from the CCDC's data processing and validation procedures.
#
#######################################################################

data_HUFNED
_symmetry_cell_setting           triclinic
_symmetry_space_group_name_H-M   'P -1'
_symmetry_Int_Tables_number      2
_space_group_name_Hall           '-P 1'
loop_
_symmetry_equiv_pos_site_id
_symmetry_equiv_pos_as_xyz
1 x,y,z
2 -x,-y,-z
_cell_length_a                   7.3008(5)
_cell_length_b                   9.1264(5)
_cell_length_c                   13.1904(9)
_cell_angle_alpha                101.118(6)
_cell_angle_beta                 93.830(5)
_cell_angle_gamma                110.526(6)
_cell_volume                     798.946
loop_
_atom_site_label
_atom_site_type_symbol
_atom_site_fract_x
_atom_site_fract_y
_atom_site_fract_z
Sr1 Sr 0.72286(4) 0.39605(3) 0.04057(2)
F1 F 0.1311(3) 0.4485(2) 0.32275(16)
F2 F 0.0069(3) 0.2196(3) 0.43296(17)
F3 F -0.0343(3) -0.0853(3) 0.34890(18)
F4 F 0.1930(3) 0.0679(3) 0.04424(16)
O1 O 0.3901(3) 0.4319(3) 0.08724(19)
O2 O 0.4348(4) 0.1955(3) -0.10444(19)
H1 H 0.3319 0.2229 -0.1012
H2 H 0.4039 0.0984 -0.0945
O3 O 0.0876(4) 0.4362(3) 0.0910(2)
O4 O -0.1290(4) -0.2969(3) 0.13589(19)
O5 O 0.1881(4) -0.2152(3) 0.1068(2)
O6 O 0.6512(4) 0.1369(3) 0.1230(2)
O7 O 0.6774(4) 0.3512(3) 0.2379(2)
O8 O 0.5952(5) 0.1207(4) 0.2815(2)
N1 N 0.6404(5) 0.2020(4) 0.2154(2)
C1 C 0.2211(5) 0.3880(4) 0.1147(3)
C2 C 0.1668(5) 0.2624(4) 0.1800(3)
C3 C 0.1154(5) 0.2981(4) 0.2785(3)
C4 C 0.0503(5) 0.1816(4) 0.3351(3)
C5 C 0.0285(5) 0.0250(4) 0.2909(3)
C6 C 0.0735(5) -0.0199(4) 0.1922(3)
C7 C 0.0429(5) -0.1932(4) 0.1411(3)
C8 C 0.1457(5) 0.1044(4) 0.1401(3)
Sr1_2 Sr -0.27714(4) -0.60395(3) 0.04057(2)
Sr1_3 Sr -0.27714(4) 0.39605(3) 0.04057(2)
Sr1A Sr 0.27714(4) -0.39605(3) -0.04057(2)
Sr1A_2 Sr 0.27714(4) 0.60395(3) -0.04057(2)
O1A O 0.6099(3) 0.5681(3) -0.08724(19)
O3_2 O 1.0876(4) 0.4362(3) 0.0910(2)
O3A O 0.9124(4) 0.5638(3) -0.0910(2)
O4_2 O 0.8710(4) 0.7031(3) 0.13589(19)
O5A O 0.8119(4) 0.2152(3) -0.1068(2)
N2 N 0.4763(5) 0.7537(4) 0.2934(3)
H3 H 0.4718 0.7666 0.2290
C9 C 0.5808(6) 0.6693(5) 0.3225(3)
H4 H 0.6475 0.6243 0.2736
C10 C 0.5912(6) 0.6481(5) 0.4226(3)
H5 H 0.6654 0.5892 0.4439
C11 C 0.4913(7) 0.7146(5) 0.4925(3)
H6 H 0.4975 0.7017 0.5623
C12 C 0.3827(6) 0.7993(5) 0.4606(3)
H7 H 0.3122 0.8435 0.5075
C13 C 0.3790(6) 0.8185(5) 0.3594(3)
H8 H 0.3071 0.8779 0.3365
loop_
_geom_bond_atom_site_label_1
_geom_bond_atom_site_label_2
_geom_bond_site_symmetry_1
_geom_bond_site_symmetry_2
Sr1 O1 1_555 1_555
F1 C3 1_555 1_555
F2 C4 1_555 1_555
F3 C5 1_555 1_555
F4 C8 1_555 1_555
O1 C1 1_555 1_555
O2 Sr1 1_555 1_555
H1 O2 1_555 1_555
H2 O2 1_555 1_555
O3 C1 1_555 1_555
O4 C7 1_555 1_555
O5 C7 1_555 1_555
O6 Sr1 1_555 1_555
O7 Sr1 1_555 1_555
O8 N1 1_555 1_555
N1 O6 1_555 1_555
C1 C2 1_555 1_555
C2 C3 1_555 1_555
C3 C4 1_555 1_555
C4 C5 1_555 1_555
C5 C6 1_555 1_555
C6 C7 1_555 1_555
C8 C2 1_555 1_555
N2 H3 1_555 1_555
C9 N2 1_555 1_555
H4 C9 1_555 1_555
C10 C9 1_555 1_555
H5 C10 1_555 1_555
C11 C10 1_555 1_555
H6 C11 1_555 1_555
C12 C11 1_555 1_555
H7 C12 1_555 1_555
C13 N2 1_555 1_555
H8 C13 1_555 1_555
Sr1_2 O4 1_555 1_555
Sr1_3 O3 1_555 1_555
Sr1A O5 1_555 1_555
Sr1A_2 O1 1_555 1_555
O1A Sr1 1_555 1_555
O3_2 Sr1 1_555 1_555
O3A Sr1 1_555 1_555
O4_2 Sr1 1_555 1_555
O5A Sr1 1_555 1_555
O3 Sr1A_2 1_555 1_555
O7 N1 1_555 1_555
C6 C8 1_555 1_555
C12 C13 1_555 1_555
Sr1A_2 O1A 1_555 1_555

#END
