
#######################################################################
#
#                 Cambridge Crystallographic Data Centre
#                                CCDC 
#
#######################################################################
#
# If this CIF has been generated from an entry in the Cambridge 
# Structural Database, then it will include bibliographic, chemical, 
# crystal, experimental, refinement or atomic coordinate data resulting 
# from the CCDC's data processing and validation procedures.
#
#######################################################################

data_HUFPUT
_symmetry_cell_setting           triclinic
_symmetry_space_group_name_H-M   'P -1'
_symmetry_Int_Tables_number      2
_space_group_name_Hall           '-P 1'
loop_
_symmetry_equiv_pos_site_id
_symmetry_equiv_pos_as_xyz
1 x,y,z
2 -x,-y,-z
_cell_length_a                   6.0283(4)
_cell_length_b                   8.7916(6)
_cell_length_c                   9.1191(6)
_cell_angle_alpha                69.4860(10)
_cell_angle_beta                 81.5080(10)
_cell_angle_gamma                83.0170(10)
_cell_volume                     446.414
loop_
_atom_site_label
_atom_site_type_symbol
_atom_site_fract_x
_atom_site_fract_y
_atom_site_fract_z
Na1 Na -0.2913(3) 0.0444(2) -0.4217(2)
Na2 Na 0.1397(3) 0.2643(2) -0.3760(2)
Sn1 Sn -0.83092(4) -0.13839(3) -0.13383(3)
Sn2 Sn -0.16735(5) -0.43093(3) -0.17984(3)
F1 F -0.6388(4) -0.0411(3) -0.3430(3)
F2 F -0.0601(4) 0.0434(3) -0.2572(3)
F3 F -0.1316(5) -0.2346(3) -0.3827(3)
C1 C -0.5860(7) 0.0761(5) -0.0139(5)
O1 O -0.7533(5) 0.0761(4) -0.0830(4)
O2 O -0.5468(6) 0.1848(4) 0.0324(4)
C2 C -0.6026(7) 0.4972(5) -0.2704(5)
O3 O -0.5433(5) 0.5911(4) -0.2096(4)
O4 O -0.7991(5) 0.4775(4) -0.2847(4)
C3 C -0.4118(6) 0.3945(5) -0.3352(5)
O5 O -0.2124(5) 0.4212(4) -0.3235(4)
O6 O -0.4600(5) 0.2976(4) -0.3919(4)
C1A C -0.4140(7) -0.0761(5) 0.0139(5)
O1A O -0.2467(5) -0.0761(4) 0.0830(4)
O2A O -0.4532(6) -0.1848(4) -0.0324(4)
F1A F -0.3612(4) 0.0411(3) -0.6570(3)
Na1A Na -0.7087(3) -0.0444(2) -0.5783(2)
Na2A Na -0.1397(3) -0.2643(2) -0.6240(2)
Sn1A Sn -0.16908(4) 0.13839(3) -0.86617(3)
Sn2_2 Sn -0.16735(5) 0.56907(3) -0.17984(3)
F3A F 0.1316(5) 0.2346(3) -0.6173(3)
C2_2 C 0.3974(7) 0.4972(5) -0.2704(5)
O3_2 O 0.4567(5) 0.5911(4) -0.2096(4)
O4_2 O 0.2009(5) 0.4775(4) -0.2847(4)
C3_2 C 0.5882(6) 0.3945(5) -0.3352(5)
O5_2 O 0.7876(5) 0.4212(4) -0.3235(4)
O6_2 O 0.5400(5) 0.2976(4) -0.3919(4)
F2_2 F -1.0601(4) 0.0434(3) -0.2572(3)
O3_3 O -0.5433(5) -0.4089(4) -0.2096(4)
O4_3 O 0.2009(5) -0.5225(4) -0.2847(4)
O5_3 O -0.2124(5) -0.5788(4) -0.3235(4)
Sn1_2 Sn 0.16908(4) -0.13839(3) -0.13383(3)
Sn1A_2 Sn -0.16908(4) 0.13839(3) 0.13383(3)
Na2_2 Na -0.8603(3) 0.2643(2) -0.3760(2)
Sn2_3 Sn -1.16735(5) 0.56907(3) -0.17984(3)
F2A F -0.9399(4) -0.0434(3) -0.7428(3)
F3A_2 F -0.8684(5) 0.2346(3) -0.6173(3)
O6A O -0.5400(5) -0.2976(4) -0.6081(4)
F2A_2 F 0.0601(4) -0.0434(3) -0.7428(3)
O4A O -0.2009(5) -0.4775(4) -0.7153(4)
O5A O 0.2124(5) -0.4212(4) -0.6765(4)
O1A_2 O -0.2467(5) -0.0761(4) -0.9170(4)
O2_2 O -0.5468(6) 0.1848(4) -0.9676(4)
F3_2 F -0.1316(5) 0.7654(3) -0.3827(3)
Na1A_2 Na 0.2913(3) -0.0444(2) -0.5783(2)
Sn2A Sn 0.16735(5) 0.43093(3) -0.82016(3)
Sn2_4 Sn 0.83265(5) 0.56907(3) -0.17984(3)
Na2_3 Na 1.1397(3) 0.2643(2) -0.3760(2)
Na1_2 Na 0.7087(3) 0.0444(2) -0.4217(2)
Na1_3 Na -1.2913(3) 0.0444(2) -0.4217(2)
loop_
_geom_bond_atom_site_label_1
_geom_bond_atom_site_label_2
_geom_bond_site_symmetry_1
_geom_bond_site_symmetry_2
Na1 F1 1_555 1_555
Na2 F2 1_555 1_555
Sn1 F1 1_555 1_555
Sn2 F3 1_555 1_555
F1 Na1A 1_555 1_555
F2 Na1 1_555 1_555
F3 Na1 1_555 1_555
C1 O1 1_555 1_555
O1 Sn1 1_555 1_555
O2 C1 1_555 1_555
C2 O3 1_555 1_555
O3 Sn2_2 1_555 1_555
O4 C2 1_555 1_555
C3 C2 1_555 1_555
O5 Na2 1_555 1_555
O6 Na1 1_555 1_555
C1A C1 1_555 1_555
O1A C1A 1_555 1_555
O2A Sn1 1_555 1_555
F1A Na1 1_555 1_555
Na1A F1A 1_555 1_555
Na2A F3 1_555 1_555
Sn1A F1A 1_555 1_555
Sn2_2 O5 1_555 1_555
F3A Na2 1_555 1_555
C2_2 O3_2 1_555 1_555
O3_2 Sn2_4 1_555 1_555
O4_2 Na2 1_555 1_555
C3_2 C2_2 1_555 1_555
O5_2 C3_2 1_555 1_555
O6_2 Na2 1_555 1_555
F2_2 Sn1 1_555 1_555
O3_3 Sn2 1_555 1_555
O4_3 Sn2 1_555 1_555
O5_3 Sn2 1_555 1_555
Sn1_2 F2 1_555 1_555
Sn1A_2 O2 1_555 1_555
Na2_2 O4 1_555 1_555
Sn2_3 O4 1_555 1_555
F2A Na1A 1_555 1_555
F3A_2 Na1A 1_555 1_555
O6A Na1A 1_555 1_555
F2A_2 Na2A 1_555 1_555
O4A Na2A 1_555 1_555
O5A Na2A 1_555 1_555
O1A_2 Sn1A 1_555 1_555
O2_2 Sn1A 1_555 1_555
F3_2 Sn2_2 1_555 1_555
Na1A_2 F3A 1_555 1_555
Sn2A F3A 1_555 1_555
Sn2_4 O5_2 1_555 1_555
Na2_3 O5_2 1_555 1_555
Na1_2 O6_2 1_555 1_555
Na1_3 F2_2 1_555 1_555
C3 O5 1_555 1_555
C3 O6 1_555 1_555
O6 Na2_2 1_555 1_555
C1A O2A 1_555 1_555
O1A Sn1A_2 1_555 1_555
Na2A O6A 1_555 1_555
Sn1A F2A_2 1_555 1_555
Sn2_2 O4_2 1_555 1_555
C2_2 O4_2 1_555 1_555
C3_2 O6_2 1_555 1_555
F2_2 Na2_2 1_555 1_555
Na2_2 F3A_2 1_555 1_555
F2A_2 Na1A_2 1_555 1_555

#END
