
#######################################################################
#
#                 Cambridge Crystallographic Data Centre
#                                CCDC 
#
#######################################################################
#
# If this CIF has been generated from an entry in the Cambridge 
# Structural Database, then it will include bibliographic, chemical, 
# crystal, experimental, refinement or atomic coordinate data resulting 
# from the CCDC's data processing and validation procedures.
#
#######################################################################

data_HUFPIJ
_symmetry_cell_setting           monoclinic
_symmetry_space_group_name_H-M   'C 2'
_symmetry_Int_Tables_number      5
_space_group_name_Hall           'C 2y'
loop_
_symmetry_equiv_pos_site_id
_symmetry_equiv_pos_as_xyz
1 x,y,z
2 -x,y,-z
3 1/2+x,1/2+y,z
4 1/2-x,1/2+y,-z
_cell_length_a                   18.775(3)
_cell_length_b                   15.626(3)
_cell_length_c                   12.872(2)
_cell_angle_alpha                90
_cell_angle_beta                 99.973(2)
_cell_angle_gamma                90
_cell_volume                     3719.3
loop_
_atom_site_label
_atom_site_type_symbol
_atom_site_fract_x
_atom_site_fract_y
_atom_site_fract_z
C1 C 0.1023(6) 0.7650(6) 1.1966(7)
H1 H 0.1030 0.8235 1.1836
C2 C 0.0995(6) 0.7093(6) 1.1128(7)
H2 H 0.1005 0.7309 1.0457
C3 C 0.0952(4) 0.6216(5) 1.1270(6)
C4 C 0.0949(5) 0.5964(6) 1.2299(7)
H3 H 0.0907 0.5387 1.2455
C5 C 0.1010(5) 0.6563(6) 1.3094(7)
H4 H 0.1029 0.6368 1.3781
C6 C 0.0920(4) 0.5650(5) 1.0367(6)
C7 C 0.0932(4) 0.5246(6) 0.8814(6)
C8 C 0.0949(5) 0.5274(6) 0.7685(6)
C9 C 0.0871(5) 0.6032(7) 0.7173(7)
H5 H 0.0791 0.6529 0.7534
C10 C 0.0909(6) 0.6069(8) 0.6095(8)
H6 H 0.0854 0.6601 0.5767
C11 C 0.1079(6) 0.4681(9) 0.6019(8)
H7 H 0.1138 0.4194 0.5628
C12 C 0.1066(5) 0.4569(7) 0.7085(7)
H8 H 0.1134 0.4029 0.7390
C13 C -0.1974(5) 0.3500(6) 0.6475(7)
H9 H -0.1842 0.3859 0.7053
C14 C -0.2661(5) 0.3541(6) 0.5893(8)
H10 H -0.2975 0.3938 0.6107
C15 C -0.2441(6) 0.2530(7) 0.4804(9)
H11 H -0.2585 0.2185 0.4217
C16 C -0.1756(5) 0.2439(8) 0.5336(9)
H12 H -0.1458 0.2030 0.5107
C17 C -0.1487(5) 0.2933(5) 0.6204(6)
C18 C -0.0758(5) 0.2781(5) 0.6759(7)
C19 C 0.0251(5) 0.2234(6) 0.7174(7)
C20 C 0.0872(4) 0.1656(6) 0.7140(7)
C21 C 0.0838(5) 0.1067(6) 0.6343(8)
H13 H 0.0432 0.1041 0.5815
C22 C 0.1409(8) 0.0511(7) 0.6327(9)
H14 H 0.1379 0.0149 0.5748
C23 C 0.2015(6) 0.1009(9) 0.7791(10)
H15 H 0.2426 0.1001 0.8312
C24 C 0.1486(5) 0.1622(8) 0.7879(9)
H16 H 0.1554 0.2006 0.8440
C25 C 0.2580(6) 0.3699(6) 0.9932(10)
H17 H 0.2170 0.3731 0.9411
C26 C 0.3182(7) 0.4237(7) 0.9889(12)
H18 H 0.3138 0.4642 0.9353
C27 C 0.3801(6) 0.3671(8) 1.1311(10)
H19 H 0.4226 0.3641 1.1803
C28 C 0.3233(5) 0.3137(8) 1.1464(9)
H20 H 0.3277 0.2783 1.2052
C29 C 0.2608(4) 0.3141(6) 1.0735(7)
C30 C 0.2016(5) 0.2545(6) 1.0865(7)
C31 C 0.1466(4) 0.1539(5) 1.1451(6)
C32 C 0.1347(4) 0.0824(5) 1.2125(6)
C33 C 0.1949(5) 0.0448(6) 1.2746(7)
H21 H 0.2411 0.0653 1.2729
C34 C 0.1847(5) -0.0234(6) 1.3386(7)
H22 H 0.2253 -0.0464 1.3810
C35 C 0.0649(5) -0.0197(6) 1.2895(8)
H23 H 0.0193 -0.0392 1.2971
C36 C 0.0687(5) 0.0477(6) 1.2223(7)
H24 H 0.0265 0.0701 1.1832
Cu1 Cu 0.08101(5) 0.32728(7) 0.91829(7)
Cu2 Cu 0.10907(5) -0.17390(8) 1.41894(8)
Cu3 Cu -0.06956(5) 0.39920(7) 0.86003(8)
Cu4 Cu 0.0000 0.17104(10) 1.0000
N1 N 0.1040(4) 0.7387(5) 1.2944(6)
N2 N 0.0873(3) 0.4805(4) 1.0409(5)
N3 N 0.0878(3) 0.4520(4) 0.9377(5)
N4 N 0.0956(4) 0.5950(4) 0.9407(5)
N5 N 0.1017(5) 0.5406(8) 0.5519(7)
N6 N -0.2914(3) 0.3072(5) 0.5063(5)
N7 N -0.0334(4) 0.2203(4) 0.6423(6)
N8 N -0.0452(3) 0.3193(5) 0.7638(5)
N9 N 0.0227(4) 0.2817(4) 0.7923(5)
N10 N 0.1978(5) 0.0450(6) 0.7039(8)
N11 N 0.3782(6) 0.4206(7) 1.0535(10)
N12 N 0.2112(3) 0.1936(4) 1.1598(6)
N13 N 0.1341(4) 0.2574(4) 1.0303(5)
N14 N 0.0981(4) 0.1892(4) 1.0673(6)
N15 N 0.1213(4) -0.0584(4) 1.3438(6)
C37 C 0.0268(4) -0.1733(6) 1.4819(6)
N16 N -0.0268(4) -0.1733(6) 1.5181(6)
O1 O 0.0000 0.0149(6) 1.0000
C37A C -0.0268(4) -0.1733(6) 1.5181(6)
N16A N 0.0268(4) -0.1733(6) 1.4819(6)
C1A C -0.1023(6) 0.7650(6) 0.8034(7)
H1A H -0.1030 0.8235 0.8164
C2A C -0.0995(6) 0.7093(6) 0.8872(7)
H2A H -0.1005 0.7309 0.9543
C3A C -0.0952(4) 0.6216(5) 0.8730(6)
C4A C -0.0949(5) 0.5964(6) 0.7701(7)
H3A H -0.0907 0.5387 0.7545
C5A C -0.1010(5) 0.6563(6) 0.6906(7)
H4A H -0.1029 0.6368 0.6219
C6A C -0.0920(4) 0.5650(5) 0.9633(6)
C7A C -0.0932(4) 0.5246(6) 1.1186(6)
C8A C -0.0949(5) 0.5274(6) 1.2315(6)
C9A C -0.0871(5) 0.6032(7) 1.2827(7)
H5A H -0.0791 0.6529 1.2466
C10A C -0.0909(6) 0.6069(8) 1.3905(8)
H6A H -0.0854 0.6601 1.4233
C11A C -0.1079(6) 0.4681(9) 1.3981(8)
H7A H -0.1138 0.4194 1.4372
C12A C -0.1066(5) 0.4569(7) 1.2915(7)
H8A H -0.1134 0.4029 1.2610
C13A C 0.1974(5) 0.3500(6) 1.3525(7)
H9A H 0.1842 0.3859 1.2947
C14A C 0.2661(5) 0.3541(6) 1.4107(8)
H10A H 0.2975 0.3938 1.3893
C15A C 0.2441(6) 0.2530(7) 1.5196(9)
H11A H 0.2585 0.2185 1.5783
C16A C 0.1756(5) 0.2439(8) 1.4664(9)
H12A H 0.1458 0.2030 1.4893
C17A C 0.1487(5) 0.2933(5) 1.3796(6)
C18A C 0.0758(5) 0.2781(5) 1.3241(7)
C19A C -0.0251(5) 0.2234(6) 1.2826(7)
C20A C -0.0872(4) 0.1656(6) 1.2860(7)
C21A C -0.0838(5) 0.1067(6) 1.3657(8)
H13A H -0.0432 0.1041 1.4185
C22A C -0.1409(8) 0.0511(7) 1.3673(9)
H14A H -0.1379 0.0149 1.4252
C23A C -0.2015(6) 0.1009(9) 1.2209(10)
H15A H -0.2426 0.1001 1.1688
C24A C -0.1486(5) 0.1622(8) 1.2121(9)
H16A H -0.1554 0.2006 1.1560
C25A C -0.2580(6) 0.3699(6) 1.0068(10)
H17A H -0.2170 0.3731 1.0589
C26A C -0.3182(7) 0.4237(7) 1.0111(12)
H18A H -0.3138 0.4642 1.0647
C27A C -0.3801(6) 0.3671(8) 0.8689(10)
H19A H -0.4226 0.3641 0.8197
C28A C -0.3233(5) 0.3137(8) 0.8536(9)
H20A H -0.3277 0.2783 0.7948
C29A C -0.2608(4) 0.3141(6) 0.9265(7)
C30A C -0.2016(5) 0.2545(6) 0.9135(7)
C31A C -0.1466(4) 0.1539(5) 0.8549(6)
C32A C -0.1347(4) 0.0824(5) 0.7875(6)
C33A C -0.1949(5) 0.0448(6) 0.7254(7)
H21A H -0.2411 0.0653 0.7271
C34A C -0.1847(5) -0.0234(6) 0.6614(7)
H22A H -0.2253 -0.0464 0.6190
C35A C -0.0649(5) -0.0197(6) 0.7105(8)
H23A H -0.0193 -0.0392 0.7029
C36A C -0.0687(5) 0.0477(6) 0.7777(7)
H24A H -0.0265 0.0701 0.8168
Cu1A Cu -0.08101(5) 0.32728(7) 1.08171(7)
Cu2A Cu -0.10907(5) -0.17390(8) 0.58106(8)
Cu3A Cu 0.06956(5) 0.39920(7) 1.13997(8)
N1A N -0.1040(4) 0.7387(5) 0.7056(6)
N2A N -0.0873(3) 0.4805(4) 0.9591(5)
N3A N -0.0878(3) 0.4520(4) 1.0623(5)
N4A N -0.0956(4) 0.5950(4) 1.0593(5)
N5A N -0.1017(5) 0.5406(8) 1.4481(7)
N6A N 0.2914(3) 0.3072(5) 1.4937(5)
N7A N 0.0334(4) 0.2203(4) 1.3577(6)
N8A N 0.0452(3) 0.3193(5) 1.2362(5)
N9A N -0.0227(4) 0.2817(4) 1.2077(5)
N10A N -0.1978(5) 0.0450(6) 1.2961(8)
N11A N -0.3782(6) 0.4206(7) 0.9465(10)
N12A N -0.2112(3) 0.1936(4) 0.8402(6)
N13A N -0.1341(4) 0.2574(4) 0.9697(5)
N14A N -0.0981(4) 0.1892(4) 0.9327(6)
N15A N -0.1213(4) -0.0584(4) 0.6562(6)
Cu2_2 Cu 0.10907(5) 0.82610(8) 1.41894(8)
Cu2A_2 Cu -0.10907(5) -0.17390(8) 1.58106(8)
Cu2A_3 Cu -0.10907(5) 0.82610(8) 0.58106(8)
Cu2B Cu -0.39093(5) 0.32610(8) 0.41894(8)
Cu2C Cu 0.39093(5) 0.32610(8) 1.58106(8)
N1_2 N 0.1040(4) -0.2613(5) 1.2944(6)
N1A_2 N -0.1040(4) -0.2613(5) 0.7056(6)
N6B N 0.2086(3) -0.1928(5) 1.5063(5)
N6C N -0.2086(3) -0.1928(5) 0.4937(5)
C37A_2 C -0.0268(4) -0.1733(6) 0.5181(6)
N16_2 N -0.0268(4) -0.1733(6) 0.5181(6)
loop_
_geom_bond_atom_site_label_1
_geom_bond_atom_site_label_2
_geom_bond_site_symmetry_1
_geom_bond_site_symmetry_2
C1 H1 1_555 1_555
C2 C1 1_555 1_555
H2 C2 1_555 1_555
C3 C2 1_555 1_555
C4 C3 1_555 1_555
H3 C4 1_555 1_555
C5 C4 1_555 1_555
H4 C5 1_555 1_555
C6 C3 1_555 1_555
C7 C8 1_555 1_555
C8 C9 1_555 1_555
C9 H5 1_555 1_555
C10 C9 1_555 1_555
H6 C10 1_555 1_555
C11 H7 1_555 1_555
C12 C8 1_555 1_555
H8 C12 1_555 1_555
C13 H9 1_555 1_555
C14 C13 1_555 1_555
H10 C14 1_555 1_555
C15 H11 1_555 1_555
C16 C15 1_555 1_555
H12 C16 1_555 1_555
C17 C13 1_555 1_555
C18 C17 1_555 1_555
C19 C20 1_555 1_555
C20 C21 1_555 1_555
C21 H13 1_555 1_555
C22 C21 1_555 1_555
H14 C22 1_555 1_555
C23 H15 1_555 1_555
C24 C20 1_555 1_555
H16 C24 1_555 1_555
C25 H17 1_555 1_555
C26 C25 1_555 1_555
H18 C26 1_555 1_555
C27 H19 1_555 1_555
C28 C27 1_555 1_555
H20 C28 1_555 1_555
C29 C25 1_555 1_555
C30 C29 1_555 1_555
C31 C32 1_555 1_555
C32 C33 1_555 1_555
C33 H21 1_555 1_555
C34 C33 1_555 1_555
H22 C34 1_555 1_555
C35 H23 1_555 1_555
C36 C32 1_555 1_555
H24 C36 1_555 1_555
Cu1 N3 1_555 1_555
Cu2 N15 1_555 1_555
Cu3 N8 1_555 1_555
Cu4 N14 1_555 1_555
N1 C1 1_555 1_555
N2 C6 1_555 1_555
N3 C7 1_555 1_555
N4 C6 1_555 1_555
N5 C10 1_555 1_555
N6 C14 1_555 1_555
N7 C18 1_555 1_555
N8 C18 1_555 1_555
N9 C19 1_555 1_555
N10 C22 1_555 1_555
N11 C26 1_555 1_555
N12 C30 1_555 1_555
N13 C30 1_555 1_555
N14 C31 1_555 1_555
N15 C34 1_555 1_555
C37 Cu2 1_555 1_555
N16 C37 1_555 1_555
O1 Cu4 1_555 1_555
C37A C37 1_555 1_555
N16A Cu2 1_555 1_555
C1A H1A 1_555 1_555
C2A C1A 1_555 1_555
H2A C2A 1_555 1_555
C3A C2A 1_555 1_555
C4A C3A 1_555 1_555
H3A C4A 1_555 1_555
C5A C4A 1_555 1_555
H4A C5A 1_555 1_555
C6A C3A 1_555 1_555
C7A C8A 1_555 1_555
C8A C9A 1_555 1_555
C9A H5A 1_555 1_555
C10A C9A 1_555 1_555
H6A C10A 1_555 1_555
C11A H7A 1_555 1_555
C12A C8A 1_555 1_555
H8A C12A 1_555 1_555
C13A H9A 1_555 1_555
C14A C13A 1_555 1_555
H10A C14A 1_555 1_555
C15A H11A 1_555 1_555
C16A C15A 1_555 1_555
H12A C16A 1_555 1_555
C17A C13A 1_555 1_555
C18A C17A 1_555 1_555
C19A C20A 1_555 1_555
C20A C21A 1_555 1_555
C21A H13A 1_555 1_555
C22A C21A 1_555 1_555
H14A C22A 1_555 1_555
C23A H15A 1_555 1_555
C24A C20A 1_555 1_555
H16A C24A 1_555 1_555
C25A H17A 1_555 1_555
C26A C25A 1_555 1_555
H18A C26A 1_555 1_555
C27A H19A 1_555 1_555
C28A C27A 1_555 1_555
H20A C28A 1_555 1_555
C29A C25A 1_555 1_555
C30A C29A 1_555 1_555
C31A C32A 1_555 1_555
C32A C33A 1_555 1_555
C33A H21A 1_555 1_555
C34A C33A 1_555 1_555
H22A C34A 1_555 1_555
C35A H23A 1_555 1_555
C36A C32A 1_555 1_555
H24A C36A 1_555 1_555
Cu1A N3A 1_555 1_555
Cu2A N15A 1_555 1_555
Cu3A N2 1_555 1_555
N1A C1A 1_555 1_555
N2A Cu3 1_555 1_555
N3A C7A 1_555 1_555
N4A C6A 1_555 1_555
N5A C10A 1_555 1_555
N6A C14A 1_555 1_555
N7A C18A 1_555 1_555
N8A C18A 1_555 1_555
N9A C19A 1_555 1_555
N10A C22A 1_555 1_555
N11A C26A 1_555 1_555
N12A C30A 1_555 1_555
N13A C30A 1_555 1_555
N14A Cu4 1_555 1_555
N15A C34A 1_555 1_555
Cu2_2 N1 1_555 1_555
Cu2A_2 N16 1_555 1_555
Cu2A_3 N1A 1_555 1_555
Cu2B N6 1_555 1_555
Cu2C N6A 1_555 1_555
N1_2 Cu2 1_555 1_555
N1A_2 Cu2A 1_555 1_555
N6B Cu2 1_555 1_555
N6C Cu2A 1_555 1_555
C37A_2 Cu2A 1_555 1_555
N16_2 Cu2A 1_555 1_555
C5 N1 1_555 1_555
C7 N4 1_555 1_555
C11 C12 1_555 1_555
C11 N5 1_555 1_555
C15 N6 1_555 1_555
C16 C17 1_555 1_555
C19 N7 1_555 1_555
C23 C24 1_555 1_555
C23 N10 1_555 1_555
C27 N11 1_555 1_555
C28 C29 1_555 1_555
C31 N12 1_555 1_555
C35 C36 1_555 1_555
C35 N15 1_555 1_555
Cu1 N9 1_555 1_555
Cu1 N13 1_555 1_555
N2 N3 1_555 1_555
N8 N9 1_555 1_555
N13 N14 1_555 1_555
N16 N16A 1_555 1_555
C37A N16A 1_555 1_555
C37A Cu2A_2 1_555 1_555
C5A N1A 1_555 1_555
C6A N2A 1_555 1_555
C7A N4A 1_555 1_555
C11A C12A 1_555 1_555
C11A N5A 1_555 1_555
C15A N6A 1_555 1_555
C16A C17A 1_555 1_555
C19A N7A 1_555 1_555
C23A C24A 1_555 1_555
C23A N10A 1_555 1_555
C27A N11A 1_555 1_555
C28A C29A 1_555 1_555
C31A N12A 1_555 1_555
C31A N14A 1_555 1_555
C35A C36A 1_555 1_555
C35A N15A 1_555 1_555
Cu1A N9A 1_555 1_555
Cu1A N13A 1_555 1_555
Cu3A N8A 1_555 1_555
N2A N3A 1_555 1_555
N8A N9A 1_555 1_555
N13A N14A 1_555 1_555

#END
