
#######################################################################
#
#                 Cambridge Crystallographic Data Centre
#                                CCDC 
#
#######################################################################
#
# If this CIF has been generated from an entry in the Cambridge 
# Structural Database, then it will include bibliographic, chemical, 
# crystal, experimental, refinement or atomic coordinate data resulting 
# from the CCDC's data processing and validation procedures.
#
#######################################################################

data_HUFPUV
_symmetry_cell_setting           triclinic
_symmetry_space_group_name_H-M   'P -1'
_symmetry_Int_Tables_number      2
_space_group_name_Hall           '-P 1'
loop_
_symmetry_equiv_pos_site_id
_symmetry_equiv_pos_as_xyz
1 x,y,z
2 -x,-y,-z
_cell_length_a                   15.1529(3)
_cell_length_b                   15.9528(4)
_cell_length_c                   18.0296(3)
_cell_angle_alpha                109.253(2)
_cell_angle_beta                 109.589(2)
_cell_angle_gamma                100.914(2)
_cell_volume                     3649.43
loop_
_atom_site_label
_atom_site_type_symbol
_atom_site_fract_x
_atom_site_fract_y
_atom_site_fract_z
O43 O 0.3361(4) 0.7862(4) 0.2138(3)
H38 H 0.3283 0.7478 0.1645
H39 H 0.3427 0.8368 0.2067
O44 O 0.2992(6) -0.2144(5) 0.0520(4)
H40 H 0.2995 -0.1601 0.0547
H41 H 0.2427 -0.2551 0.0148
O45 O 1.1560(6) 0.5076(7) 0.8052(5)
H42 H 1.1294 0.4855 0.8324
H43 H 1.1457 0.4631 0.7581
O46 O 0.2419(6) 0.1291(7) -0.0800(5)
H44 H 0.2558 0.1183 -0.1235
H45 H 0.2126 0.0772 -0.0816
O47 O 1.1738(7) 0.8027(9) 0.8301(6)
H46 H 1.1972 0.8428 0.8827
H47 H 1.1861 0.8302 0.7997
O48 O 0.7185(7) 0.3212(10) 0.1715(8)
H48 H 0.7622 0.2943 0.1756
H49 H 0.7462 0.3795 0.2059
O49 O 0.5542(12) 0.2705(12) 0.0221(10)
H50 H 0.6116 0.2898 0.0638
H51 H 0.5099 0.2555 0.0389
O50 O 0.6684(11) 0.7951(12) 0.2787(9)
H52 H 0.7046 0.7619 0.2891
H53 H 0.6646 0.8272 0.3250
O51 O 0.8103(12) 0.6711(12) 0.2644(9)
H54 H 0.8153 0.7060 0.3139
H55 H 0.7590 0.6220 0.2393
O52 O 0.3597(19) 0.2750(16) -0.1051(13)
H56 H 0.4160 0.2780 -0.0708
H57 H 0.3542 0.2575 -0.1568
O53 O 0.736(2) 0.9039(19) 0.2284(13)
H58 H 0.6982 0.8499 0.2157
H59 H 0.7875 0.9110 0.2715
Th1 Th 0.608022(15) 0.540329(15) 0.447230(13)
O1 O 0.5598(3) 0.3622(3) 0.3680(3)
O2 O 0.6858(3) 0.4472(3) 0.5291(3)
O3 O 0.7415(3) 0.4882(3) 0.4090(3)
O4 O 0.4864(3) 0.6189(3) 0.3884(3)
O5 O 0.4464(3) 0.4417(3) 0.3111(3)
O6 O 0.6101(3) 0.5565(4) 0.3105(3)
O7 O 0.6121(3) 0.6976(3) 0.5429(3)
O8 O 0.7327(3) 0.6217(3) 0.6073(3)
O9 O 0.7519(3) 0.6800(3) 0.4757(3)
O10 O 0.5000 0.5000 0.5000
Th2 Th 0.430278(15) 0.278236(15) 0.221130(12)
As1 As 0.63909(4) 0.33959(5) 0.44531(4)
Th3 Th 0.833709(14) 0.538759(15) 0.671808(12)
S1 S 0.84049(10) 0.48443(11) 0.45238(9)
Th4 Th 0.521092(13) 0.786001(14) 0.473555(12)
As2 As 0.40160(5) 0.52641(5) 0.29409(4)
S2 S 0.57691(12) 0.49857(13) 0.21806(10)
As3 As 0.71126(5) 0.72615(5) 0.63727(4)
S3 S 0.77715(11) 0.77825(11) 0.48979(10)
O11 O 0.5371(4) 0.3980(4) 0.1959(3)
O12 O 0.2973(3) 0.3168(3) 0.1466(3)
O13 O 0.4502(3) 0.1497(3) 0.2566(3)
O14 O 0.2865(4) 0.1185(4) 0.1044(3)
O15 O 0.5823(4) 0.2435(4) 0.2147(4)
O16 O 0.4140(5) 0.2238(6) 0.0698(4)
O17 O 0.3164(3) 0.2463(3) 0.2782(3)
C1 C 0.7400(4) 0.3005(5) 0.4174(4)
O18 O 0.5782(3) 0.2567(3) 0.4637(3)
O19 O 0.8770(3) 0.5287(3) 0.5477(3)
O20 O 0.8150(3) 0.3819(3) 0.6460(3)
O21 O 0.9971(3) 0.5133(4) 0.6823(3)
O22 O 0.9704(4) 0.6947(4) 0.7179(3)
O23 O 0.7147(3) 0.4920(3) 0.7164(3)
O24 O 0.8440(3) 0.6748(3) 0.7851(3)
O25 O 0.9522(4) 0.5563(4) 0.8192(3)
C2 C 0.8226(5) 0.3622(5) 0.4221(4)
O26 O 0.9122(3) 0.5209(4) 0.4253(3)
O27 O 0.6889(3) 0.8078(3) 0.4721(3)
O28 O 0.5138(4) 0.7741(4) 0.3274(3)
O29 O 0.6144(3) 0.8795(3) 0.6212(3)
O30 O 0.3592(3) 0.7337(3) 0.3687(3)
O31 O 0.4334(3) 0.9111(3) 0.5208(3)
O32 O 0.6001(3) 0.9474(3) 0.4833(3)
C3 C 0.4017(5) 0.5393(5) 0.1924(4)
C4 C 0.4760(5) 0.5291(5) 0.1640(4)
O33 O 0.6505(4) 0.5185(4) 0.1866(4)
C5 C 0.8283(5) 0.8239(5) 0.6654(5)
C6 C 0.8543(5) 0.8418(5) 0.6032(4)
O34 O 0.8333(3) 0.8021(4) 0.4445(3)
As4 As 0.17756(5) 0.29364(5) 0.12746(4)
As5 As 0.39110(5) 0.07509(5) 0.28383(4)
S4 S 0.26076(16) 0.01493(14) 0.06219(11)
H1 H 0.6333 0.2919 0.2508
H2 H 0.5870 0.1974 0.2275
H3 H 0.3663 0.2386 0.0425
H4 H 0.3938 0.1639 0.0486
C7 C 0.7281(5) 0.2062(5) 0.3925(4)
As6 As 0.76101(5) 0.28937(5) 0.65636(4)
H5 H 1.0465 0.5586 0.7256
H6 H 0.9950 0.5123 0.6343
H7 H 0.9593 0.7313 0.7576
H8 H 1.0304 0.7017 0.7476
S5 S 1.02576(12) 0.63082(14) 0.90523(10)
C8 C 0.8940(5) 0.3291(5) 0.4028(4)
H9 H 0.4510 0.7546 0.2985
H10 H 0.5264 0.7286 0.2972
S6 S 0.37233(10) 0.95070(11) 0.46837(10)
C9 C 0.3221(5) 0.5609(5) 0.1464(4)
C10 C 0.4714(6) 0.5432(7) 0.0912(5)
C11 C 0.8931(5) 0.8724(5) 0.7527(5)
C12 C 0.9468(5) 0.9088(5) 0.6303(5)
C13 C 0.1225(5) 0.3393(5) 0.0431(4)
O35 O 0.1212(3) 0.1726(3) 0.0731(3)
C14 C 0.2555(5) -0.0065(5) 0.2062(4)
O36 O 0.4601(4) 0.0003(4) 0.2924(3)
C15 C 0.2026(6) -0.0285(5) 0.1188(5)
O37 O 0.1895(6) -0.0242(5) -0.0278(4)
O38 O 0.3473(5) -0.0138(5) 0.0758(4)
H11 H 0.6726 0.1654 0.3890
C16 C 0.7995(6) 0.1714(5) 0.3722(5)
C17 C 0.8038(5) 0.1926(5) 0.5948(4)
O39 O 0.8162(4) 0.3097(4) 0.7642(3)
C18 C 0.9634(5) 0.6348(5) 0.9735(4)
O40 O 1.1125(4) 0.6057(5) 0.9413(4)
O41 O 1.0506(4) 0.7239(4) 0.9063(3)
H12 H 0.9498 0.3703 0.4070
C19 C 0.8815(6) 0.2332(6) 0.3771(5)
C20 C 0.2493(4) 0.9028(5) 0.4538(4)
O42 O 0.3691(3) 0.9210(3) 0.3825(3)
H13 H 0.2722 0.5667 0.1649
C21 C 0.3173(6) 0.5738(6) 0.0723(5)
C22 C 0.3902(7) 0.5646(7) 0.0448(5)
H14 H 0.5216 0.5386 0.0730
C23 C 0.9861(5) 0.9377(6) 0.7791(5)
H15 H 0.8749 0.8617 0.7940
H16 H 0.9646 0.9214 0.5895
C24 C 1.0112(5) 0.9558(6) 0.7175(6)
C25 C 0.1686(5) 0.3349(6) -0.0124(5)
H17 H 0.1640 0.1474 0.0777
C26 C 0.2084(5) -0.0445(5) 0.2474(5)
H18 H 0.4437 -0.0296 0.3177
C27 C 0.1032(6) -0.0869(6) 0.0735(5)
H19 H 0.7920 0.1078 0.3558
C28 C 0.9008(5) 0.2286(5) 0.6058(5)
H20 H 0.7752 0.2832 0.7766
C29 C 1.0030(6) 0.6167(6) 1.0452(5)
H21 H 0.9287 0.2104 0.3630
C30 C 0.2059(5) 0.9629(5) 0.4929(5)
H22 H 0.2644 0.5886 0.0416
H23 H 0.3862 0.5725 -0.0049
H24 H 1.0306 0.9687 0.8376
H25 H 1.0722 1.0002 0.7352
C31 C 0.1284(6) 0.3540(7) -0.0845(5)
H26 H 0.2262 0.3192 -0.0016
H27 H 0.2425 -0.0293 0.3061
C32 C 0.1101(6) -0.1053(6) 0.2012(6)
H28 H 0.0677 -0.1001 0.0154
C33 C 0.0578(6) -0.1251(6) 0.1159(6)
C34 C 0.9441(5) 0.1683(6) 0.5669(6)
H29 H 0.9366 0.2926 0.6389
H30 H 1.0604 0.6006 1.0563
C35 C 0.9569(6) 0.6224(6) 1.1008(5)
H31 H 0.2420 1.0267 0.5271
C36 C 0.1087(6) 0.9268(6) 0.4804(6)
H32 H 0.1593 0.3509 -0.1216
H33 H 0.0800 -0.1326 0.2288
H34 H -0.0085 -0.1641 0.0861
H35 H 1.0082 0.1922 0.5728
H36 H 0.9837 0.6103 1.1491
H37 H 0.0788 0.9672 0.5042
Th1A Th 0.391978(15) 0.459671(15) 0.552770(13)
O18A O 0.4218(3) 0.7433(3) 0.5363(3)
O23A O 0.2853(3) 0.5080(3) 0.2836(3)
O17A O 0.6836(3) 0.7537(3) 0.7218(3)
O1A O 0.4402(3) 0.6378(3) 0.6320(3)
O2A O 0.3142(3) 0.5528(3) 0.4709(3)
O3A O 0.2585(3) 0.5118(3) 0.5910(3)
O4A O 0.5136(3) 0.3811(3) 0.6116(3)
O5A O 0.5536(3) 0.5583(3) 0.6889(3)
O6A O 0.3899(3) 0.4435(4) 0.6895(3)
O7A O 0.3879(3) 0.3024(3) 0.4571(3)
O8A O 0.2673(3) 0.3783(3) 0.3927(3)
O9A O 0.2481(3) 0.3200(3) 0.5243(3)
As3A As 0.28874(5) 0.27385(5) 0.36273(4)
Th4A Th 0.478908(13) 0.213999(14) 0.526445(12)
As2A As 0.59840(5) 0.47359(5) 0.70591(4)
As4A As 0.82244(5) 0.70636(5) 0.87254(4)
As1A As 0.36091(4) 0.66041(5) 0.55469(4)
As5A As 0.60890(5) 0.92491(5) 0.71617(4)
As6A As 0.23899(5) 0.71063(5) 0.34364(4)
Th3A Th 0.166291(14) 0.461241(15) 0.328192(12)
Th2A Th 0.569722(15) 0.721764(15) 0.778870(12)
S1A S 0.15951(10) 0.51557(11) 0.54762(9)
S2A S 0.42309(12) 0.50143(13) 0.78194(10)
S3A S 0.22285(11) 0.22175(11) 0.51021(10)
O24A O 0.1560(3) 0.3252(3) 0.2149(3)
O29A O 0.3856(3) 0.1205(3) 0.3788(3)
C5A C 0.1717(5) 0.1761(5) 0.3346(5)
O30A O 0.6408(3) 0.2663(3) 0.6313(3)
O31A O 0.5666(3) 0.0889(3) 0.4792(3)
O27A O 0.3111(3) 0.1922(3) 0.5279(3)
O28A O 0.4862(4) 0.2259(4) 0.6726(3)
O32A O 0.3999(3) 0.0526(3) 0.5167(3)
C3A C 0.5983(5) 0.4607(5) 0.8076(4)
C13A C 0.8775(5) 0.6607(5) 0.9569(4)
O12A O 0.7027(3) 0.6832(3) 0.8534(3)
O35A O 0.8788(3) 0.8274(3) 0.9269(3)
C1A C 0.2600(4) 0.6995(5) 0.5826(4)
C14A C 0.7445(5) 1.0065(5) 0.7938(4)
O13A O 0.5498(3) 0.8503(3) 0.7434(3)
O36A O 0.5399(4) 0.9997(4) 0.7076(3)
C17A C 0.1962(5) 0.8074(5) 0.4052(4)
O20A O 0.1850(3) 0.6181(3) 0.3540(3)
O39A O 0.1838(4) 0.6903(4) 0.2358(3)
O32A_2 O 0.3999(3) 1.0526(3) 0.5167(3)
O25A O 0.0478(4) 0.4437(4) 0.1808(3)
O19A O 0.1230(3) 0.4713(3) 0.4523(3)
O21A O 0.0029(3) 0.4867(4) 0.3177(3)
O22A O 0.0296(4) 0.3053(4) 0.2821(3)
O11A O 0.4629(4) 0.6020(4) 0.8041(3)
O14A O 0.7135(4) 0.8815(4) 0.8956(3)
O15A O 0.4177(4) 0.7565(4) 0.7853(4)
O16A O 0.5860(5) 0.7762(6) 0.9302(4)
C2A C 0.1774(5) 0.6378(5) 0.5779(4)
O26A O 0.0878(3) 0.4791(4) 0.5747(3)
C4A C 0.5240(5) 0.4709(5) 0.8360(4)
O33A O 0.3495(4) 0.4815(4) 0.8134(4)
C6A C 0.1457(5) 0.1582(5) 0.3968(4)
O34A O 0.1667(3) 0.1979(4) 0.5555(3)
C18A C 0.0366(5) 0.3652(5) 0.0265(4)
C11A C 0.1069(5) 0.1276(5) 0.2473(5)
S6A S 0.62767(10) 0.04930(11) 0.53163(10)
H9A H 0.5490 0.2454 0.7015
H10A H 0.4736 0.2714 0.7028
C20A C 0.7507(4) 0.0972(5) 0.5462(4)
C9A C 0.6779(5) 0.4391(5) 0.8536(4)
C25A C 0.8314(5) 0.6651(6) 1.0124(5)
H17A H 0.8360 0.8526 0.9223
C7A C 0.2719(5) 0.7938(5) 0.6075(4)
C15A C 0.7974(6) 1.0285(5) 0.8812(5)
C26A C 0.7916(5) 1.0445(5) 0.7526(5)
H18A H 0.5563 1.0296 0.6823
C28A C 0.0992(5) 0.7714(5) 0.3942(5)
H20A H 0.2248 0.7168 0.2234
Th4A_2 Th 0.478908(13) 1.213999(14) 0.526445(12)
S5A S -0.02576(12) 0.36918(14) 0.09477(10)
H5A H -0.0465 0.4414 0.2744
H6A H 0.0050 0.4877 0.3657
H7A H 0.0407 0.2687 0.2424
H8A H -0.0304 0.2983 0.2524
S4A S 0.73924(16) 0.98507(14) 0.93781(11)
H1A H 0.3667 0.7081 0.7492
H2A H 0.4130 0.8026 0.7725
H3A H 0.6337 0.7614 0.9575
H4A H 0.6062 0.8361 0.9514
C8A C 0.1060(5) 0.6709(5) 0.5972(4)
C10A C 0.5286(6) 0.4568(7) 0.9088(5)
C12A C 0.0532(5) 0.0912(5) 0.3697(5)
C29A C -0.0030(6) 0.3833(6) -0.0452(5)
C23A C 0.0139(5) 0.0623(6) 0.2209(5)
H15A H 0.1251 0.1383 0.2060
O42A O 0.6309(3) 0.0790(3) 0.6175(3)
O32_2 O 0.6001(3) -0.0526(3) 0.4833(3)
C30A C 0.7941(5) 0.0371(5) 0.5071(5)
H13A H 0.7278 0.4333 0.8351
C21A C 0.6827(6) 0.4262(6) 0.9277(5)
C31A C 0.8716(6) 0.6460(7) 1.0845(5)
H26A H 0.7738 0.6808 1.0016
H11A H 0.3274 0.8346 0.6110
C16A C 0.2005(6) 0.8286(5) 0.6278(5)
C27A C 0.8968(6) 1.0869(6) 0.9265(5)
H27A H 0.7575 1.0293 0.6939
C32A C 0.8899(6) 1.1053(6) 0.7988(6)
C34A C 0.0559(5) 0.8317(6) 0.4331(6)
H29A H 0.0634 0.7074 0.3611
O40A O -0.1125(4) 0.3943(5) 0.0587(4)
O41A O -0.0506(4) 0.2761(4) 0.0937(3)
O37A O 0.8105(6) 1.0242(5) 1.0278(4)
O38A O 0.6527(5) 1.0138(5) 0.9242(4)
H12A H 0.0502 0.6297 0.5930
C19A C 0.1185(6) 0.7668(6) 0.6229(5)
C22A C 0.6098(7) 0.4354(7) 0.9552(5)
H14A H 0.4784 0.4614 0.9270
H16A H 0.0354 0.0786 0.4105
C24A C -0.0112(5) 0.0442(6) 0.2825(6)
H30A H -0.0604 0.3994 -0.0563
C35A C 0.0431(6) 0.3776(6) -0.1008(5)
H24A H -0.0306 0.0313 0.1624
Th4_2 Th 0.521092(13) -0.213999(14) 0.473555(12)
H31A H 0.7580 -0.0267 0.4729
C36A C 0.8913(6) 0.0732(6) 0.5196(6)
H22A H 0.7356 0.4114 0.9584
H32A H 0.8407 0.6491 1.1216
H19A H 0.2080 0.8922 0.6442
H28A H 0.9323 1.1001 0.9846
C33A C 0.9422(6) 1.1251(6) 0.8841(6)
H33A H 0.9200 1.1326 0.7712
H35A H -0.0082 0.8078 0.4272
H21A H 0.0713 0.7896 0.6370
H23A H 0.6138 0.4275 1.0049
H25A H -0.0722 -0.0002 0.2648
H36A H 0.0163 0.3897 -0.1491
H37A H 0.9212 0.0328 0.4958
H34A H 1.0085 1.1641 0.9139
loop_
_geom_bond_atom_site_label_1
_geom_bond_atom_site_label_2
_geom_bond_site_symmetry_1
_geom_bond_site_symmetry_2
Th1 O1 1_555 1_555
O1 Th2 1_555 1_555
O2 Th1 1_555 1_555
O3 Th1 1_555 1_555
O4 Th1 1_555 1_555
O5 Th1 1_555 1_555
O6 Th1 1_555 1_555
O7 Th1 1_555 1_555
O8 Th1 1_555 1_555
O9 Th1 1_555 1_555
O10 Th1 1_555 1_555
Th2 O5 1_555 1_555
As1 O1 1_555 1_555
Th3 O2 1_555 1_555
S1 O3 1_555 1_555
Th4 O4 1_555 1_555
As2 O4 1_555 1_555
S2 O6 1_555 1_555
As3 O7 1_555 1_555
S3 O9 1_555 1_555
O11 Th2 1_555 1_555
O12 Th2 1_555 1_555
O13 Th2 1_555 1_555
O14 Th2 1_555 1_555
O15 Th2 1_555 1_555
O16 Th2 1_555 1_555
O17 Th2 1_555 1_555
C1 As1 1_555 1_555
O18 As1 1_555 1_555
O19 Th3 1_555 1_555
O20 Th3 1_555 1_555
O21 Th3 1_555 1_555
O22 Th3 1_555 1_555
O23 Th3 1_555 1_555
O24 Th3 1_555 1_555
O25 Th3 1_555 1_555
C2 S1 1_555 1_555
O26 S1 1_555 1_555
O27 Th4 1_555 1_555
O28 Th4 1_555 1_555
O29 Th4 1_555 1_555
O30 Th4 1_555 1_555
O31 Th4 1_555 1_555
O32 Th4 1_555 1_555
C3 As2 1_555 1_555
C4 S2 1_555 1_555
O33 S2 1_555 1_555
C5 As3 1_555 1_555
C6 S3 1_555 1_555
O34 S3 1_555 1_555
As4 O12 1_555 1_555
As5 O13 1_555 1_555
S4 O14 1_555 1_555
H1 O15 1_555 1_555
H2 O15 1_555 1_555
H3 O16 1_555 1_555
H4 O16 1_555 1_555
C7 C1 1_555 1_555
As6 O20 1_555 1_555
H5 O21 1_555 1_555
H6 O21 1_555 1_555
H7 O22 1_555 1_555
H8 O22 1_555 1_555
S5 O25 1_555 1_555
C8 C2 1_555 1_555
H9 O28 1_555 1_555
H10 O28 1_555 1_555
S6 O31 1_555 1_555
C9 C3 1_555 1_555
C10 C4 1_555 1_555
C11 C5 1_555 1_555
C12 C6 1_555 1_555
C13 As4 1_555 1_555
O35 As4 1_555 1_555
C14 As5 1_555 1_555
O36 As5 1_555 1_555
C15 S4 1_555 1_555
O37 S4 1_555 1_555
O38 S4 1_555 1_555
H11 C7 1_555 1_555
C16 C7 1_555 1_555
C17 As6 1_555 1_555
O39 As6 1_555 1_555
C18 S5 1_555 1_555
O40 S5 1_555 1_555
O41 S5 1_555 1_555
H12 C8 1_555 1_555
C19 C8 1_555 1_555
C20 S6 1_555 1_555
O42 S6 1_555 1_555
H13 C9 1_555 1_555
C21 C9 1_555 1_555
C22 C10 1_555 1_555
H14 C10 1_555 1_555
C23 C11 1_555 1_555
H15 C11 1_555 1_555
H16 C12 1_555 1_555
C24 C12 1_555 1_555
C25 C13 1_555 1_555
H17 O35 1_555 1_555
C26 C14 1_555 1_555
H18 O36 1_555 1_555
C27 C15 1_555 1_555
H19 C16 1_555 1_555
C28 C17 1_555 1_555
H20 O39 1_555 1_555
C29 C18 1_555 1_555
H21 C19 1_555 1_555
C30 C20 1_555 1_555
H22 C21 1_555 1_555
H23 C22 1_555 1_555
H24 C23 1_555 1_555
H25 C24 1_555 1_555
C31 C25 1_555 1_555
H26 C25 1_555 1_555
H27 C26 1_555 1_555
C32 C26 1_555 1_555
H28 C27 1_555 1_555
C33 C27 1_555 1_555
C34 C28 1_555 1_555
H29 C28 1_555 1_555
H30 C29 1_555 1_555
C35 C29 1_555 1_555
H31 C30 1_555 1_555
C36 C30 1_555 1_555
H32 C31 1_555 1_555
H33 C32 1_555 1_555
H34 C33 1_555 1_555
H35 C34 1_555 1_555
H36 C35 1_555 1_555
H37 C36 1_555 1_555
O43 H38 1_555 1_555
H39 O43 1_555 1_555
O44 H40 1_555 1_555
H41 O44 1_555 1_555
O45 H42 1_555 1_555
H43 O45 1_555 1_555
O46 H44 1_555 1_555
H45 O46 1_555 1_555
O47 H46 1_555 1_555
H47 O47 1_555 1_555
O48 H48 1_555 1_555
H49 O48 1_555 1_555
O49 H50 1_555 1_555
H51 O49 1_555 1_555
O50 H52 1_555 1_555
H53 O50 1_555 1_555
O51 H54 1_555 1_555
H55 O51 1_555 1_555
O52 H56 1_555 1_555
H57 O52 1_555 1_555
O53 H58 1_555 1_555
H59 O53 1_555 1_555
Th1A O10 1_555 1_555
O18A Th4 1_555 1_555
O23A As2 1_555 1_555
O17A As3 1_555 1_555
O1A Th1A 1_555 1_555
O2A Th1A 1_555 1_555
O3A Th1A 1_555 1_555
O4A Th1A 1_555 1_555
O5A Th1A 1_555 1_555
O6A Th1A 1_555 1_555
O7A Th1A 1_555 1_555
O8A Th1A 1_555 1_555
O9A Th1A 1_555 1_555
As3A O17 1_555 1_555
Th4A O18 1_555 1_555
As2A O23 1_555 1_555
As4A O24 1_555 1_555
As1A O18A 1_555 1_555
As5A O29 1_555 1_555
As6A O30 1_555 1_555
Th3A O23A 1_555 1_555
Th2A O17A 1_555 1_555
S1A O3A 1_555 1_555
S2A O6A 1_555 1_555
S3A O9A 1_555 1_555
O24A As4 1_555 1_555
O29A As5 1_555 1_555
C5A As3A 1_555 1_555
O30A As6 1_555 1_555
O31A Th4A 1_555 1_555
O27A Th4A 1_555 1_555
O28A Th4A 1_555 1_555
O32A Th4A 1_555 1_555
C3A As2A 1_555 1_555
C13A C18 1_555 1_555
O12A As4A 1_555 1_555
O35A As4A 1_555 1_555
C1A As1A 1_555 1_555
C14A As5A 1_555 1_555
O13A As5A 1_555 1_555
O36A As5A 1_555 1_555
C17A C20 1_555 1_555
O20A As6A 1_555 1_555
O39A As6A 1_555 1_555
O32A_2 S6 1_555 1_555
O25A Th3A 1_555 1_555
O19A Th3A 1_555 1_555
O21A Th3A 1_555 1_555
O22A Th3A 1_555 1_555
O11A Th2A 1_555 1_555
O14A Th2A 1_555 1_555
O15A Th2A 1_555 1_555
O16A Th2A 1_555 1_555
C2A S1A 1_555 1_555
O26A S1A 1_555 1_555
C4A S2A 1_555 1_555
O33A S2A 1_555 1_555
C6A S3A 1_555 1_555
O34A S3A 1_555 1_555
C18A C13 1_555 1_555
C11A C5A 1_555 1_555
S6A O31A 1_555 1_555
H9A O28A 1_555 1_555
H10A O28A 1_555 1_555
C20A C17 1_555 1_555
C9A C3A 1_555 1_555
C25A C13A 1_555 1_555
H17A O35A 1_555 1_555
C7A C1A 1_555 1_555
C15A C14A 1_555 1_555
C26A C14A 1_555 1_555
H18A O36A 1_555 1_555
C28A C17A 1_555 1_555
H20A O39A 1_555 1_555
Th4A_2 O32A_2 1_555 1_555
S5A O25A 1_555 1_555
H5A O21A 1_555 1_555
H6A O21A 1_555 1_555
H7A O22A 1_555 1_555
H8A O22A 1_555 1_555
S4A O14A 1_555 1_555
H1A O15A 1_555 1_555
H2A O15A 1_555 1_555
H3A O16A 1_555 1_555
H4A O16A 1_555 1_555
C8A C2A 1_555 1_555
C10A C4A 1_555 1_555
C12A C6A 1_555 1_555
C29A C18A 1_555 1_555
C23A C11A 1_555 1_555
H15A C11A 1_555 1_555
O42A S6A 1_555 1_555
O32_2 S6A 1_555 1_555
C30A C20A 1_555 1_555
H13A C9A 1_555 1_555
C21A C9A 1_555 1_555
C31A C35 1_555 1_555
H26A C25A 1_555 1_555
H11A C7A 1_555 1_555
C16A C7A 1_555 1_555
C27A C15A 1_555 1_555
H27A C26A 1_555 1_555
C32A C26A 1_555 1_555
C34A C36 1_555 1_555
H29A C28A 1_555 1_555
O40A S5A 1_555 1_555
O41A S5A 1_555 1_555
O37A S4A 1_555 1_555
O38A S4A 1_555 1_555
H12A C8A 1_555 1_555
C19A C8A 1_555 1_555
C22A C10A 1_555 1_555
H14A C10A 1_555 1_555
H16A C12A 1_555 1_555
C24A C12A 1_555 1_555
H30A C29A 1_555 1_555
C35A C31 1_555 1_555
H24A C23A 1_555 1_555
Th4_2 O32_2 1_555 1_555
H31A C30A 1_555 1_555
C36A C34 1_555 1_555
H22A C21A 1_555 1_555
H32A C31A 1_555 1_555
H19A C16A 1_555 1_555
H28A C27A 1_555 1_555
C33A C27A 1_555 1_555
H33A C32A 1_555 1_555
H35A C34A 1_555 1_555
H21A C19A 1_555 1_555
H23A C22A 1_555 1_555
H25A C24A 1_555 1_555
H36A C35A 1_555 1_555
H37A C36A 1_555 1_555
H34A C33A 1_555 1_555
O2 As1 1_555 1_555
O5 As2 1_555 1_555
O7 Th4 1_555 1_555
O8 Th3 1_555 1_555
O8 As3 1_555 1_555
S1 O19 1_555 1_555
S2 O11 1_555 1_555
S3 O27 1_555 1_555
C1 C2 1_555 1_555
C3 C4 1_555 1_555
C5 C6 1_555 1_555
C14 C15 1_555 1_555
C16 C19 1_555 1_555
C21 C22 1_555 1_555
C23 C24 1_555 1_555
C32 C33 1_555 1_555
O1A As1A 1_555 1_555
O1A Th2A 1_555 1_555
O2A As1A 1_555 1_555
O2A Th3A 1_555 1_555
O4A Th4A 1_555 1_555
O4A As2A 1_555 1_555
O5A As2A 1_555 1_555
O5A Th2A 1_555 1_555
O7A As3A 1_555 1_555
O7A Th4A 1_555 1_555
O8A As3A 1_555 1_555
O8A Th3A 1_555 1_555
Th4A O29A 1_555 1_555
Th4A O30A 1_555 1_555
As4A C13A 1_555 1_555
As6A C17A 1_555 1_555
Th3A O24A 1_555 1_555
Th3A O20A 1_555 1_555
Th2A O12A 1_555 1_555
Th2A O13A 1_555 1_555
S1A O19A 1_555 1_555
S2A O11A 1_555 1_555
S3A O27A 1_555 1_555
C5A C6A 1_555 1_555
C3A C4A 1_555 1_555
C1A C2A 1_555 1_555
C18A S5A 1_555 1_555
S6A C20A 1_555 1_555
C25A C31A 1_555 1_555
C15A S4A 1_555 1_555
C28A C34A 1_555 1_555
C29A C35A 1_555 1_555
C23A C24A 1_555 1_555
C30A C36A 1_555 1_555
C21A C22A 1_555 1_555
C16A C19A 1_555 1_555
C32A C33A 1_555 1_555

#END
