
#######################################################################
#
#                 Cambridge Crystallographic Data Centre
#                                CCDC 
#
#######################################################################
#
# If this CIF has been generated from an entry in the Cambridge 
# Structural Database, then it will include bibliographic, chemical, 
# crystal, experimental, refinement or atomic coordinate data resulting 
# from the CCDC's data processing and validation procedures.
#
#######################################################################

data_HUFQAC
_symmetry_cell_setting           orthorhombic
_symmetry_space_group_name_H-M   'P 21 21 21'
_symmetry_Int_Tables_number      19
_space_group_name_Hall           'P 2ac 2ab'
loop_
_symmetry_equiv_pos_site_id
_symmetry_equiv_pos_as_xyz
1 x,y,z
2 1/2-x,-y,1/2+z
3 -x,1/2+y,1/2-z
4 1/2+x,1/2-y,-z
_cell_length_a                   15.9090(2)
_cell_length_b                   26.1828(4)
_cell_length_c                   30.3819(6)
_cell_angle_alpha                90
_cell_angle_beta                 90
_cell_angle_gamma                90
_cell_volume                     12655.3
loop_
_atom_site_label
_atom_site_type_symbol
_atom_site_fract_x
_atom_site_fract_y
_atom_site_fract_z
O79 O 0.629(4) 0.414(3) 0.985(2)
H65 H 0.6207 0.4394 0.9684
H66 H 0.6083 0.3872 0.9729
Th1 Th 0.64429(5) 0.39514(3) 0.79687(3)
O1 O 0.7697(8) 0.3480(6) 0.8285(5)
O2 O 0.6685(10) 0.3034(6) 0.7747(6)
O3 O 0.6104(10) 0.3316(7) 0.8610(7)
O4 O 0.5886(9) 0.3631(6) 0.7239(6)
O5 O 0.5515(9) 0.4522(6) 0.7501(5)
O6 O 0.4843(11) 0.3658(9) 0.7941(7)
O7 O 0.6526(11) 0.4948(5) 0.8038(5)
O8 O 0.7378(9) 0.4354(7) 0.8556(7)
O9 O 0.5499(11) 0.4330(7) 0.8568(9)
O10 O 0.7453(9) 0.4157(6) 0.7500(5)
Th2 Th 0.84090(5) 0.38398(3) 0.89218(3)
As1 As 0.75119(14) 0.28760(9) 0.80912(8)
Th3 Th 0.59817(5) 0.26894(3) 0.71108(3)
S1 S 0.6394(5) 0.3115(3) 0.9033(2)
As2 As 0.52295(14) 0.41001(9) 0.71033(8)
Th4 Th 0.54824(5) 0.54356(3) 0.76499(3)
S2 S 0.4229(3) 0.3269(3) 0.7761(2)
As3 As 0.71172(15) 0.49884(9) 0.85020(9)
S3 S 0.4980(4) 0.4771(3) 0.8688(2)
Th5 Th 0.84727(5) 0.43564(3) 0.70434(3)
O11 O 0.7170(13) 0.3399(8) 0.9183(8)
O12 O 0.8782(12) 0.4675(6) 0.9060(6)
O13 O 0.9654(11) 0.3784(8) 0.9414(6)
O14 O 0.9461(8) 0.3982(7) 0.8423(5)
O15 O 0.8968(12) 0.3004(6) 0.8824(6)
O16 O 0.792(2) 0.4072(14) 0.9687(11)
O17 O 0.8359(9) 0.2649(6) 0.7824(5)
C1 C 0.7262(15) 0.2391(9) 0.8509(10)
O18 O 0.5642(14) 0.2038(6) 0.7701(7)
O19 O 0.4687(11) 0.2866(7) 0.7538(8)
O20 O 0.7084(13) 0.2114(7) 0.7208(8)
O21 O 0.593(2) 0.2072(14) 0.6477(14)
O22 O 0.5198(11) 0.3072(8) 0.6557(7)
O23 O 0.6947(9) 0.2961(6) 0.6600(6)
O24 O 0.463(4) 0.214(3) 0.693(3)
O25 O 0.5756(14) 0.3084(10) 0.9350(8)
C2 C 0.6756(19) 0.2493(12) 0.8903(9)
O26 O 0.5488(8) 0.4308(5) 0.6603(4)
C3 C 0.4047(14) 0.3970(10) 0.7099(8)
O27 O 0.4876(14) 0.5143(9) 0.8321(7)
O28 O 0.6170(11) 0.6009(7) 0.8099(6)
O29 O 0.6591(10) 0.5627(7) 0.7208(6)
O30 O 0.3898(13) 0.5457(9) 0.7639(7)
O31 O 0.4956(11) 0.5373(7) 0.6939(5)
O32 O 0.5124(11) 0.6308(6) 0.7402(7)
O33 O 0.3635(14) 0.3082(9) 0.8076(7)
C4 C 0.3685(16) 0.3600(8) 0.7352(9)
O34 O 0.7964(9) 0.5352(6) 0.8414(5)
C5 C 0.6473(16) 0.5201(11) 0.9032(8)
O35 O 0.4199(13) 0.4662(11) 0.8897(9)
C6 C 0.561(2) 0.5096(11) 0.9066(10)
O36 O 0.9034(9) 0.4677(6) 0.7784(6)
O37 O 0.9408(10) 0.3787(6) 0.7510(5)
O38 O 1.0034(8) 0.4686(7) 0.7064(7)
O39 O 0.8349(9) 0.3380(5) 0.6985(5)
O40 O 0.7540(12) 0.3950(7) 0.6424(6)
O41 O 0.9344(10) 0.3949(8) 0.6410(7)
O42 O 0.7212(8) 0.4840(5) 0.6728(5)
O43 O 0.8214(9) 0.5271(6) 0.7260(6)
O44 O 0.8788(11) 0.5000(7) 0.6376(7)
As4 As 0.96093(17) 0.50758(11) 0.89937(9)
S4 S 1.0081(5) 0.4085(3) 0.9753(2)
As5 As 0.96843(14) 0.42027(9) 0.79245(8)
As6 As 0.98226(17) 0.27688(10) 0.85978(9)
H1 H 0.7496 0.3876 0.9705
H2 H 0.7682 0.4359 0.9724
Th6 Th 0.94340(4) 0.28895(3) 0.73696(3)
C7 C 0.750(2) 0.1899(11) 0.8459(12)
S5 S 0.5502(4) 0.1554(2) 0.7886(2)
As7 As 0.79421(18) 0.18990(10) 0.69623(10)
S6 S 0.6056(5) 0.1515(3) 0.6379(4)
As8 As 0.53136(17) 0.32189(10) 0.60116(9)
As9 As 0.78025(14) 0.33224(9) 0.65125(8)
H3 H 0.4258 0.2201 0.7127
H4 H 0.4767 0.1826 0.6945
C8 C 0.652(2) 0.2121(15) 0.9200(9)
Th7 Th 0.64719(5) 0.44697(3) 0.60931(3)
C9 C 0.3600(17) 0.4221(11) 0.6775(10)
As10 As 0.70231(19) 0.64016(11) 0.80895(11)
As11 As 0.74032(14) 0.54286(9) 0.69251(8)
H5 H 0.3756 0.5687 0.7823
H6 H 0.3721 0.5560 0.7391
C10 C 0.2813(16) 0.3531(10) 0.7302(9)
Th8 Th 0.89411(5) 0.56139(3) 0.78985(3)
C11 C 0.6990(7) 0.5467(4) 0.9349(4)
C12 C 0.521(2) 0.523(2) 0.9466(15)
S7 S 1.0671(4) 0.5032(2) 0.7242(2)
S8 S 0.9894(4) 0.3532(3) 0.6299(2)
S9 S 0.8490(4) 0.5199(3) 0.5980(2)
O45 O 0.9733(9) 0.5288(7) 0.8482(4)
O46 O 0.9321(12) 0.5583(8) 0.9313(8)
C13 C 1.0662(7) 0.4839(4) 0.9161(4)
O47 O 1.054(2) 0.3746(10) 1.0038(9)
O48 O 0.9496(15) 0.4425(11) 0.9956(6)
C14 C 1.0880(7) 0.4433(4) 0.9477(4)
C15 C 1.0849(15) 0.4322(9) 0.7901(8)
O49 O 0.9971(10) 0.2958(6) 0.8074(5)
O50 O 1.0677(12) 0.2974(9) 0.8917(7)
C16 C 0.9776(16) 0.2039(9) 0.8656(11)
O51 O 0.8710(10) 0.2328(6) 0.6920(6)
O52 O 1.0039(12) 0.3204(7) 0.6683(5)
O53 O 0.9824(10) 0.1996(7) 0.7600(6)
O54 O 1.1039(9) 0.2878(7) 0.7360(7)
C17 C 0.726(2) 0.1504(12) 0.8742(13)
H7 H 0.7845 0.1818 0.8221
O55 O 0.6210(10) 0.1240(7) 0.7949(8)
C18 C 0.4966(17) 0.1652(12) 0.8394(11)
O56 O 0.8255(15) 0.1408(7) 0.7291(9)
C19 C 0.7824(7) 0.1623(4) 0.6389(4)
O57 O 0.546(3) 0.1390(18) 0.6033(15)
O58 O 0.603(2) 0.1221(11) 0.6792(12)
C20 C 0.7089(7) 0.1490(4) 0.6170(4)
O59 O 0.6073(11) 0.3632(6) 0.5885(6)
O60 O 0.5545(14) 0.2683(7) 0.5712(7)
C21 C 0.4180(15) 0.3404(10) 0.5847(10)
C22 C 0.8408(18) 0.3051(9) 0.6033(10)
H8 H 0.6192 0.2194 0.9444
C23 C 0.683(3) 0.1614(13) 0.9112(16)
O61 O 0.5057(15) 0.4505(8) 0.5719(7)
O62 O 0.7732(14) 0.4934(10) 0.5827(6)
O63 O 0.6562(18) 0.4472(16) 0.5257(8)
O64 O 0.5935(10) 0.5282(6) 0.6188(7)
C24 C 0.2737(17) 0.4121(10) 0.6718(11)
H9 H 0.3868 0.4457 0.6594
O65 O 0.7782(13) 0.6159(7) 0.7807(7)
O66 O 0.675(2) 0.7000(19) 0.7802(14)
C25 C 0.726(2) 0.6566(14) 0.8694(13)
C26 C 0.768(3) 0.5951(12) 0.6497(13)
H10 H 0.2524 0.3308 0.7487
C27 C 0.2368(16) 0.3806(15) 0.6964(12)
O67 O 0.9286(14) 0.6363(7) 0.8349(7)
O68 O 1.0236(11) 0.5424(7) 0.7506(7)
O69 O 0.9273(9) 0.6264(8) 0.7298(7)
C28 C 0.658(3) 0.5577(19) 0.9737(12)
H11 H 0.7546 0.5556 0.9295
H12 H 0.4638 0.5188 0.9509
C29 C 0.573(3) 0.544(2) 0.9791(14)
O70 O 1.1228(13) 0.5228(9) 0.6925(8)
C30 C 1.1232(17) 0.4701(12) 0.7633(10)
O71 O 1.0629(13) 0.3671(9) 0.6082(10)
C31 C 0.9280(17) 0.3167(11) 0.5922(9)
O72 O 0.9117(14) 0.5220(10) 0.5647(7)
C32 C 0.8106(18) 0.5808(13) 0.6108(10)
H13 H 0.9633 0.5601 0.9528
C33 C 1.136(2) 0.5080(15) 0.8955(12)
C34 C 1.1706(7) 0.4332(4) 0.9542(4)
C35 C 1.1312(15) 0.4066(10) 0.8217(10)
H14 H 1.0523 0.3204 0.9082
C36 C 1.0010(17) 0.1662(9) 0.8386(9)
C37 C 0.943(3) 0.1900(15) 0.9079(9)
S10 S 1.0505(4) 0.1766(2) 0.7877(2)
H15 H 1.1209 0.2653 0.7179
H16 H 1.1222 0.2808 0.7616
H17 H 0.7403 0.1168 0.8677
C38 C 0.4763(16) 0.1281(9) 0.8679(6)
C39 C 0.484(2) 0.2181(12) 0.8527(11)
H18 H 0.8693 0.1486 0.7416
C40 C 0.8600(7) 0.1533(4) 0.6194(4)
C41 C 0.7130(7) 0.1266(4) 0.5756(4)
H19 H 0.5685 0.2452 0.5879
C42 C 0.3879(18) 0.3813(12) 0.5621(8)
C43 C 0.3620(17) 0.3038(15) 0.5997(11)
C44 C 0.797(2) 0.2745(12) 0.5739(12)
H20 H 0.6718 0.1355 0.9313
S11 S 0.4519(5) 0.4278(3) 0.5372(2)
H21 H 0.6327 0.4745 0.5167
H22 H 0.6309 0.4215 0.5149
H23 H 0.2438 0.4288 0.6498
H24 H 0.7169 0.7204 0.7817
C45 C 0.806(2) 0.6694(10) 0.8886(12)
C46 C 0.661(2) 0.6570(17) 0.8964(15)
C47 C 0.7442(18) 0.6437(10) 0.6586(11)
H25 H 0.1795 0.3749 0.6927
S12 S 0.8932(5) 0.6836(3) 0.8509(3)
H26 H 0.6863 0.5744 0.9963
H27 H 0.5497 0.5484 1.0069
C48 C 1.2097(16) 0.4800(11) 0.7680(9)
C49 C 0.966(2) 0.2913(17) 0.5584(9)
C50 C 0.833(2) 0.6210(15) 0.5813(12)
C51 C 1.215(2) 0.4951(16) 0.9055(12)
H28 H 1.1270 0.5334 0.8746
H29 H 1.1827 0.4075 0.9744
C52 C 1.235(3) 0.456(2) 0.9367(14)
C53 C 1.222(2) 0.4121(14) 0.8236(13)
H30 H 1.1039 0.3856 0.8419
C54 C 0.988(2) 0.1134(12) 0.8502(11)
C55 C 0.936(2) 0.1383(12) 0.9196(11)
H31 H 0.9260 0.2152 0.9275
O73 O 1.1192(9) 0.2102(6) 0.7957(7)
As12 As 0.49052(16) 0.05512(10) 0.85793(9)
C56 C 0.437(2) 0.1397(14) 0.9075(10)
H32 H 0.5025 0.2446 0.8350
C57 C 0.442(2) 0.2288(14) 0.8929(9)
C58 C 0.8641(7) 0.1309(4) 0.5780(4)
H33 H 0.9108 0.1625 0.6345
H34 H 0.6623 0.1173 0.5605
C59 C 0.7906(7) 0.1175(4) 0.5561(4)
C60 C 0.304(2) 0.3880(16) 0.5571(9)
C61 C 0.277(2) 0.309(2) 0.5962(17)
H35 H 0.3835 0.2745 0.6129
C62 C 0.837(2) 0.2511(16) 0.5397(9)
H36 H 0.7390 0.2700 0.5777
O74 O 0.5051(16) 0.4036(15) 0.5062(6)
O75 O 0.394(2) 0.4658(12) 0.5203(13)
C63 C 0.814(3) 0.6776(16) 0.9303(15)
C64 C 0.667(4) 0.664(2) 0.9403(13)
H37 H 0.6075 0.6521 0.8844
C65 C 0.768(2) 0.6810(9) 0.6295(13)
H38 H 0.7130 0.6514 0.6837
O76 O 0.8539(16) 0.7141(10) 0.8149(10)
O77 O 0.9557(17) 0.7103(10) 0.8789(11)
H39 H 1.2360 0.5052 0.7513
C66 C 1.2554(15) 0.4505(16) 0.7987(12)
H40 H 1.0232 0.2947 0.5542
C67 C 0.921(2) 0.2612(14) 0.5305(9)
H41 H 0.8659 0.6136 0.5568
C68 C 0.808(2) 0.6697(13) 0.5882(12)
H42 H 1.2585 0.5120 0.8914
H43 H 1.2900 0.4483 0.9441
H44 H 1.2556 0.3908 0.8408
H45 H 1.0044 0.0875 0.8311
C69 C 0.949(2) 0.1013(14) 0.8913(9)
H46 H 0.9203 0.1300 0.9482
O78 O 0.5783(13) 0.0386(9) 0.8873(7)
C70 C 0.425(2) 0.1870(10) 0.9182(13)
H47 H 0.4188 0.1137 0.9262
H48 H 0.4270 0.2617 0.9014
H49 H 0.9177 0.1246 0.5645
H50 H 0.7935 0.1020 0.5275
H51 H 0.2844 0.4171 0.5430
C71 C 0.245(2) 0.351(2) 0.5731(15)
H52 H 0.2410 0.2848 0.6088
H53 H 0.8071 0.2281 0.5222
H54 H 0.8668 0.6856 0.9409
C72 C 0.749(3) 0.675(2) 0.9602(17)
H55 H 0.6188 0.6619 0.9579
H56 H 0.7577 0.7150 0.6367
H57 H 1.3122 0.4578 0.8023
H58 H 0.9462 0.2475 0.5056
H59 H 0.8156 0.6949 0.5670
H60 H 0.9341 0.0679 0.8979
H61 H 0.5683 0.0132 0.9022
H62 H 0.4025 0.1931 0.9460
H63 H 0.1881 0.3546 0.5682
H64 H 0.7562 0.6807 0.9902
O32B O 0.4876(11) 0.1308(6) 0.7598(7)
Th4B Th 0.45176(5) 0.04356(3) 0.73501(3)
O69B O 1.0727(9) 0.1264(8) 0.7702(7)
O31B O 0.5044(11) 0.0373(7) 0.8061(5)
Th8B Th 1.10589(5) 0.06139(3) 0.71015(3)
O64B O 0.4065(10) 0.0282(6) 0.8812(7)
Th7B Th 0.35281(5) -0.05303(3) 0.89069(3)
loop_
_geom_bond_atom_site_label_1
_geom_bond_atom_site_label_2
_geom_bond_site_symmetry_1
_geom_bond_site_symmetry_2
Th1 O1 1_555 1_555
O1 Th2 1_555 1_555
O2 Th1 1_555 1_555
O3 Th1 1_555 1_555
O4 Th1 1_555 1_555
O5 Th1 1_555 1_555
O6 Th1 1_555 1_555
O7 Th1 1_555 1_555
O8 Th1 1_555 1_555
O9 Th1 1_555 1_555
O10 Th1 1_555 1_555
Th2 O8 1_555 1_555
As1 O1 1_555 1_555
Th3 O2 1_555 1_555
S1 O3 1_555 1_555
As2 O4 1_555 1_555
Th4 O5 1_555 1_555
S2 O6 1_555 1_555
As3 O7 1_555 1_555
S3 O9 1_555 1_555
Th5 O10 1_555 1_555
O11 Th2 1_555 1_555
O12 Th2 1_555 1_555
O13 Th2 1_555 1_555
O14 Th2 1_555 1_555
O15 Th2 1_555 1_555
O16 Th2 1_555 1_555
O17 As1 1_555 1_555
C1 As1 1_555 1_555
O18 Th3 1_555 1_555
O19 Th3 1_555 1_555
O20 Th3 1_555 1_555
O21 Th3 1_555 1_555
O22 Th3 1_555 1_555
O23 Th3 1_555 1_555
O24 Th3 1_555 1_555
O25 S1 1_555 1_555
C2 S1 1_555 1_555
O26 As2 1_555 1_555
C3 As2 1_555 1_555
O27 Th4 1_555 1_555
O28 Th4 1_555 1_555
O29 Th4 1_555 1_555
O30 Th4 1_555 1_555
O31 Th4 1_555 1_555
O32 Th4 1_555 1_555
O33 S2 1_555 1_555
C4 S2 1_555 1_555
O34 As3 1_555 1_555
C5 As3 1_555 1_555
O35 S3 1_555 1_555
C6 S3 1_555 1_555
O36 Th5 1_555 1_555
O37 Th5 1_555 1_555
O38 Th5 1_555 1_555
O39 Th5 1_555 1_555
O40 Th5 1_555 1_555
O41 Th5 1_555 1_555
O42 Th5 1_555 1_555
O43 Th5 1_555 1_555
O44 Th5 1_555 1_555
As4 O12 1_555 1_555
S4 O13 1_555 1_555
As5 O14 1_555 1_555
As6 O15 1_555 1_555
H1 O16 1_555 1_555
H2 O16 1_555 1_555
Th6 O17 1_555 1_555
C7 C1 1_555 1_555
S5 O18 1_555 1_555
As7 O20 1_555 1_555
S6 O21 1_555 1_555
As8 O22 1_555 1_555
As9 O23 1_555 1_555
H3 O24 1_555 1_555
H4 O24 1_555 1_555
C8 C2 1_555 1_555
Th7 O26 1_555 1_555
C9 C3 1_555 1_555
As10 O28 1_555 1_555
As11 O29 1_555 1_555
H5 O30 1_555 1_555
H6 O30 1_555 1_555
C10 C4 1_555 1_555
Th8 O34 1_555 1_555
C11 C5 1_555 1_555
C12 C6 1_555 1_555
S7 O38 1_555 1_555
S8 O41 1_555 1_555
S9 O44 1_555 1_555
O45 As4 1_555 1_555
O46 As4 1_555 1_555
C13 As4 1_555 1_555
O47 S4 1_555 1_555
O48 S4 1_555 1_555
C14 S4 1_555 1_555
C15 As5 1_555 1_555
O49 As6 1_555 1_555
O50 As6 1_555 1_555
C16 As6 1_555 1_555
O51 Th6 1_555 1_555
O52 Th6 1_555 1_555
O53 Th6 1_555 1_555
O54 Th6 1_555 1_555
C17 C7 1_555 1_555
H7 C7 1_555 1_555
O55 S5 1_555 1_555
C18 S5 1_555 1_555
O56 As7 1_555 1_555
C19 As7 1_555 1_555
O57 S6 1_555 1_555
O58 S6 1_555 1_555
C20 S6 1_555 1_555
O59 As8 1_555 1_555
O60 As8 1_555 1_555
C21 As8 1_555 1_555
C22 As9 1_555 1_555
H8 C8 1_555 1_555
C23 C8 1_555 1_555
O61 Th7 1_555 1_555
O62 Th7 1_555 1_555
O63 Th7 1_555 1_555
O64 Th7 1_555 1_555
C24 C9 1_555 1_555
H9 C9 1_555 1_555
O65 As10 1_555 1_555
O66 As10 1_555 1_555
C25 As10 1_555 1_555
C26 As11 1_555 1_555
H10 C10 1_555 1_555
C27 C10 1_555 1_555
O67 Th8 1_555 1_555
O68 Th8 1_555 1_555
O69 Th8 1_555 1_555
C28 C11 1_555 1_555
H11 C11 1_555 1_555
H12 C12 1_555 1_555
C29 C12 1_555 1_555
O70 S7 1_555 1_555
C30 S7 1_555 1_555
O71 S8 1_555 1_555
C31 S8 1_555 1_555
O72 S9 1_555 1_555
C32 S9 1_555 1_555
H13 O46 1_555 1_555
C33 C13 1_555 1_555
C34 C14 1_555 1_555
C35 C15 1_555 1_555
H14 O50 1_555 1_555
C36 C16 1_555 1_555
C37 C16 1_555 1_555
S10 O53 1_555 1_555
H15 O54 1_555 1_555
H16 O54 1_555 1_555
H17 C17 1_555 1_555
C38 C18 1_555 1_555
C39 C18 1_555 1_555
H18 O56 1_555 1_555
C40 C19 1_555 1_555
C41 C20 1_555 1_555
H19 O60 1_555 1_555
C42 C21 1_555 1_555
C43 C21 1_555 1_555
C44 C22 1_555 1_555
H20 C23 1_555 1_555
S11 O61 1_555 1_555
H21 O63 1_555 1_555
H22 O63 1_555 1_555
H23 C24 1_555 1_555
H24 O66 1_555 1_555
C45 C25 1_555 1_555
C46 C25 1_555 1_555
C47 C26 1_555 1_555
H25 C27 1_555 1_555
S12 O67 1_555 1_555
H26 C28 1_555 1_555
H27 C29 1_555 1_555
C48 C30 1_555 1_555
C49 C31 1_555 1_555
C50 C32 1_555 1_555
C51 C33 1_555 1_555
H28 C33 1_555 1_555
H29 C34 1_555 1_555
C52 C34 1_555 1_555
C53 C35 1_555 1_555
H30 C35 1_555 1_555
C54 C36 1_555 1_555
C55 C37 1_555 1_555
H31 C37 1_555 1_555
O73 S10 1_555 1_555
As12 C38 1_555 1_555
C56 C38 1_555 1_555
H32 C39 1_555 1_555
C57 C39 1_555 1_555
C58 C40 1_555 1_555
H33 C40 1_555 1_555
H34 C41 1_555 1_555
C59 C41 1_555 1_555
C60 C42 1_555 1_555
C61 C43 1_555 1_555
H35 C43 1_555 1_555
C62 C44 1_555 1_555
H36 C44 1_555 1_555
O74 S11 1_555 1_555
O75 S11 1_555 1_555
C63 C45 1_555 1_555
C64 C46 1_555 1_555
H37 C46 1_555 1_555
C65 C47 1_555 1_555
H38 C47 1_555 1_555
O76 S12 1_555 1_555
O77 S12 1_555 1_555
H39 C48 1_555 1_555
C66 C48 1_555 1_555
H40 C49 1_555 1_555
C67 C49 1_555 1_555
H41 C50 1_555 1_555
C68 C50 1_555 1_555
H42 C51 1_555 1_555
H43 C52 1_555 1_555
H44 C53 1_555 1_555
H45 C54 1_555 1_555
C69 C54 1_555 1_555
H46 C55 1_555 1_555
O78 As12 1_555 1_555
C70 C56 1_555 1_555
H47 C56 1_555 1_555
H48 C57 1_555 1_555
H49 C58 1_555 1_555
H50 C59 1_555 1_555
H51 C60 1_555 1_555
C71 C60 1_555 1_555
H52 C61 1_555 1_555
H53 C62 1_555 1_555
H54 C63 1_555 1_555
C72 C63 1_555 1_555
H55 C64 1_555 1_555
H56 C65 1_555 1_555
H57 C66 1_555 1_555
H58 C67 1_555 1_555
H59 C68 1_555 1_555
H60 C69 1_555 1_555
H61 O78 1_555 1_555
H62 C70 1_555 1_555
H63 C71 1_555 1_555
H64 C72 1_555 1_555
O79 H65 1_555 1_555
H66 O79 1_555 1_555
O32B S5 1_555 1_555
Th4B O32B 1_555 1_555
O69B S10 1_555 1_555
O31B As12 1_555 1_555
Th8B O69B 1_555 1_555
O64B As12 1_555 1_555
Th7B O64B 1_555 1_555
O2 As1 1_555 1_555
O4 Th3 1_555 1_555
O5 As2 1_555 1_555
O7 Th4 1_555 1_555
O8 As3 1_555 1_555
S1 O11 1_555 1_555
S2 O19 1_555 1_555
S3 O27 1_555 1_555
C1 C2 1_555 1_555
C3 C4 1_555 1_555
C5 C6 1_555 1_555
O36 As5 1_555 1_555
O36 Th8 1_555 1_555
O37 As5 1_555 1_555
O37 Th6 1_555 1_555
O39 Th6 1_555 1_555
O39 As9 1_555 1_555
O40 As9 1_555 1_555
O40 Th7 1_555 1_555
O42 Th7 1_555 1_555
O42 As11 1_555 1_555
O43 As11 1_555 1_555
O43 Th8 1_555 1_555
Th6 O49 1_555 1_555
As7 O51 1_555 1_555
Th7 O59 1_555 1_555
Th8 O45 1_555 1_555
Th8 O65 1_555 1_555
S7 O68 1_555 1_555
S8 O52 1_555 1_555
S9 O62 1_555 1_555
C13 C14 1_555 1_555
C15 C30 1_555 1_555
C17 C23 1_555 1_555
C19 C20 1_555 1_555
C22 C31 1_555 1_555
C24 C27 1_555 1_555
C26 C32 1_555 1_555
C28 C29 1_555 1_555
C36 S10 1_555 1_555
C42 S11 1_555 1_555
C45 S12 1_555 1_555
C51 C52 1_555 1_555
C53 C66 1_555 1_555
C55 C69 1_555 1_555
C57 C70 1_555 1_555
C58 C59 1_555 1_555
C61 C71 1_555 1_555
C62 C67 1_555 1_555
C64 C72 1_555 1_555
C65 C68 1_555 1_555
Th4B O31B 1_555 1_555

#END
