
#######################################################################
#
#                 Cambridge Crystallographic Data Centre
#                                CCDC 
#
#######################################################################
#
# If this CIF has been generated from an entry in the Cambridge 
# Structural Database, then it will include bibliographic, chemical, 
# crystal, experimental, refinement or atomic coordinate data resulting 
# from the CCDC's data processing and validation procedures.
#
#######################################################################

data_HUGLUS
_symmetry_cell_setting           monoclinic
_symmetry_space_group_name_H-M   'C 2/c'
_symmetry_Int_Tables_number      15
_space_group_name_Hall           '-C 2yn'
loop_
_symmetry_equiv_pos_site_id
_symmetry_equiv_pos_as_xyz
1 x,y,z
2 -x,y,1/2-z
3 1/2+x,1/2+y,z
4 1/2-x,1/2+y,1/2-z
5 -x,-y,-z
6 x,-y,1/2+z
7 1/2-x,1/2-y,-z
8 1/2+x,1/2-y,1/2+z
_cell_length_a                   25.097(6)
_cell_length_b                   12.774(4)
_cell_length_c                   12.636(3)
_cell_angle_alpha                90
_cell_angle_beta                 108.232(11)
_cell_angle_gamma                90
_cell_volume                     3847.59
loop_
_atom_site_label
_atom_site_type_symbol
_atom_site_fract_x
_atom_site_fract_y
_atom_site_fract_z
C1 C 0.4644(3) 0.2853(7) 0.5379(8)
C2 C 0.4346(4) 0.1883(8) 0.4870(8)
C3 C 0.3946(4) 0.1902(8) 0.3849(8)
H1 H 0.3887 0.2518 0.3436
C4 C 0.4445(4) 0.0937(8) 0.5428(8)
H2 H 0.4722 0.0896 0.6117
C5 C 0.3629(4) 0.1039(8) 0.3415(7)
H3 H 0.3349 0.1089 0.2731
C6 C 0.4141(4) 0.0050(8) 0.4983(8)
H4 H 0.4221 -0.0582 0.5365
C7 C 0.3718(4) 0.0097(8) 0.3976(8)
C8 C 0.3343(4) -0.0838(8) 0.3427(8)
C9 C 0.3571(5) -0.1254(10) 0.2545(11)
C10 C 0.3368(5) -0.1732(9) 0.4233(11)
C11 C 0.2727(4) -0.0467(7) 0.2962(8)
C12 C 0.2502(4) 0.0094(8) 0.3658(8)
H5 H 0.2726 0.0240 0.4382
C13 C 0.2380(4) -0.0703(8) 0.1912(8)
H6 H 0.2514 -0.1115 0.1443
C14 C 0.1829(4) -0.0330(8) 0.1540(8)
H7 H 0.1604 -0.0461 0.0813
C15 C 0.1957(4) 0.0439(8) 0.3309(8)
H8 H 0.1815 0.0818 0.3790
C16 C 0.1621(4) 0.0223(7) 0.2243(7)
C17 C 0.1016(4) 0.0569(7) 0.1857(7)
F1 F 0.4128(2) -0.1413(5) 0.2910(6)
F2 F 0.3491(2) -0.0582(5) 0.1686(6)
F3 F 0.3342(2) -0.2152(5) 0.2078(6)
F4 F 0.3851(3) -0.2250(5) 0.4572(6)
F5 F 0.3267(3) -0.1402(5) 0.5174(6)
F6 F 0.2972(3) -0.2447(5) 0.3803(6)
Ga1 Ga 0.0000 0.09507(12) 0.2500
Ga2 Ga 0.0000 0.0000 0.0000
O1 O 0.4813(2) 0.2898(4) 0.6441(4)
O2 O 0.4703(3) 0.3554(5) 0.4721(5)
O3 O 0.0806(2) 0.0876(5) 0.2568(5)
O4 O 0.0768(2) 0.0481(5) 0.0830(5)
O5 O -0.0187(2) -0.0094(4) 0.1354(4)
C1A C -0.4644(3) 0.2853(7) -0.0379(8)
C2A C -0.4346(4) 0.1883(8) 0.0130(8)
C3A C -0.3946(4) 0.1902(8) 0.1151(8)
H1A H -0.3887 0.2518 0.1564
C4A C -0.4445(4) 0.0937(8) -0.0428(8)
H2A H -0.4722 0.0896 -0.1117
C5A C -0.3629(4) 0.1039(8) 0.1585(7)
H3A H -0.3349 0.1089 0.2269
C6A C -0.4141(4) 0.0050(8) 0.0017(8)
H4A H -0.4221 -0.0582 -0.0365
C7A C -0.3718(4) 0.0097(8) 0.1024(8)
C8A C -0.3343(4) -0.0838(8) 0.1573(8)
C9A C -0.3571(5) -0.1254(10) 0.2455(11)
C10A C -0.3368(5) -0.1732(9) 0.0767(11)
C11A C -0.2727(4) -0.0467(7) 0.2038(8)
C12A C -0.2502(4) 0.0094(8) 0.1342(8)
H5A H -0.2726 0.0240 0.0618
C13A C -0.2380(4) -0.0703(8) 0.3088(8)
H6A H -0.2514 -0.1115 0.3557
C14A C -0.1829(4) -0.0330(8) 0.3460(8)
H7A H -0.1604 -0.0461 0.4187
C15A C -0.1957(4) 0.0439(8) 0.1691(8)
H8A H -0.1815 0.0818 0.1210
C16A C -0.1621(4) 0.0223(7) 0.2757(7)
C17A C -0.1016(4) 0.0569(7) 0.3143(7)
F1A F -0.4128(2) -0.1413(5) 0.2090(6)
F2A F -0.3491(2) -0.0582(5) 0.3314(6)
F3A F -0.3342(2) -0.2152(5) 0.2922(6)
F4A F -0.3851(3) -0.2250(5) 0.0428(6)
F5A F -0.3267(3) -0.1402(5) -0.0174(6)
F6A F -0.2972(3) -0.2447(5) 0.1197(6)
O1A O -0.4813(2) 0.2898(4) -0.1441(4)
O2A O -0.4703(3) 0.3554(5) 0.0279(5)
O3A O -0.0806(2) 0.0876(5) 0.2432(5)
O4A O -0.0768(2) 0.0481(5) 0.4170(5)
O5A O 0.0187(2) -0.0094(4) 0.3646(4)
Ga1F Ga -0.5000 0.40493(12) -0.2500
Ga1F_2 Ga 0.5000 0.40493(12) 0.7500
Ga2A Ga 0.0000 0.0000 0.5000
Ga2B Ga -0.5000 0.5000 0.0000
Ga2C Ga 0.5000 0.5000 0.5000
O1F O 0.0187(2) 0.2102(4) 0.3559(4)
O1G O -0.0187(2) 0.2102(4) 0.1441(4)
O2C O 0.0297(3) -0.1446(5) 0.0279(5)
O2G O -0.0297(3) 0.1446(5) -0.0279(5)
O4D O -0.0768(2) -0.0481(5) -0.0830(5)
O5D O 0.0187(2) 0.0094(4) -0.1354(4)
loop_
_geom_bond_atom_site_label_1
_geom_bond_atom_site_label_2
_geom_bond_site_symmetry_1
_geom_bond_site_symmetry_2
C1 C2 1_555 1_555
C2 C3 1_555 1_555
C3 H1 1_555 1_555
C4 C2 1_555 1_555
H2 C4 1_555 1_555
C5 C3 1_555 1_555
H3 C5 1_555 1_555
C6 C4 1_555 1_555
H4 C6 1_555 1_555
C7 C5 1_555 1_555
C8 C7 1_555 1_555
C9 C8 1_555 1_555
C10 C8 1_555 1_555
C11 C8 1_555 1_555
C12 C11 1_555 1_555
H5 C12 1_555 1_555
C13 C11 1_555 1_555
H6 C13 1_555 1_555
C14 C13 1_555 1_555
H7 C14 1_555 1_555
C15 C12 1_555 1_555
H8 C15 1_555 1_555
C16 C14 1_555 1_555
C17 C16 1_555 1_555
F1 C9 1_555 1_555
F2 C9 1_555 1_555
F3 C9 1_555 1_555
F4 C10 1_555 1_555
F5 C10 1_555 1_555
F6 C10 1_555 1_555
Ga1 O3 1_555 1_555
Ga2 O4 1_555 1_555
O1 C1 1_555 1_555
O2 C1 1_555 1_555
O3 C17 1_555 1_555
O4 C17 1_555 1_555
O5 Ga1 1_555 1_555
C1A C2A 1_555 1_555
C2A C3A 1_555 1_555
C3A H1A 1_555 1_555
C4A C2A 1_555 1_555
H2A C4A 1_555 1_555
C5A C3A 1_555 1_555
H3A C5A 1_555 1_555
C6A C4A 1_555 1_555
H4A C6A 1_555 1_555
C7A C5A 1_555 1_555
C8A C7A 1_555 1_555
C9A C8A 1_555 1_555
C10A C8A 1_555 1_555
C11A C8A 1_555 1_555
C12A C11A 1_555 1_555
H5A C12A 1_555 1_555
C13A C11A 1_555 1_555
H6A C13A 1_555 1_555
C14A C13A 1_555 1_555
H7A C14A 1_555 1_555
C15A C12A 1_555 1_555
H8A C15A 1_555 1_555
C16A C14A 1_555 1_555
C17A C16A 1_555 1_555
F1A C9A 1_555 1_555
F2A C9A 1_555 1_555
F3A C9A 1_555 1_555
F4A C10A 1_555 1_555
F5A C10A 1_555 1_555
F6A C10A 1_555 1_555
O1A C1A 1_555 1_555
O2A C1A 1_555 1_555
O3A Ga1 1_555 1_555
O4A C17A 1_555 1_555
O5A Ga1 1_555 1_555
Ga1F O1A 1_555 1_555
Ga1F_2 O1 1_555 1_555
Ga2A O4A 1_555 1_555
Ga2B O2A 1_555 1_555
Ga2C O2 1_555 1_555
O1F Ga1 1_555 1_555
O1G Ga1 1_555 1_555
O2C Ga2 1_555 1_555
O2G Ga2 1_555 1_555
O4D Ga2 1_555 1_555
O5D Ga2 1_555 1_555
C6 C7 1_555 1_555
C15 C16 1_555 1_555
Ga2 O5 1_555 1_555
C6A C7A 1_555 1_555
C15A C16A 1_555 1_555
C17A O3A 1_555 1_555
O5A Ga2A 1_555 1_555

#END
