
#######################################################################
#
#                 Cambridge Crystallographic Data Centre
#                                CCDC 
#
#######################################################################
#
# If this CIF has been generated from an entry in the Cambridge 
# Structural Database, then it will include bibliographic, chemical, 
# crystal, experimental, refinement or atomic coordinate data resulting 
# from the CCDC's data processing and validation procedures.
#
#######################################################################

data_HUGLOM
_symmetry_cell_setting           monoclinic
_symmetry_space_group_name_H-M   'C 2/c'
_symmetry_Int_Tables_number      15
_space_group_name_Hall           '-C 2yn'
loop_
_symmetry_equiv_pos_site_id
_symmetry_equiv_pos_as_xyz
1 x,y,z
2 -x,y,1/2-z
3 1/2+x,1/2+y,z
4 1/2-x,1/2+y,1/2-z
5 -x,-y,-z
6 x,-y,1/2+z
7 1/2-x,1/2-y,-z
8 1/2+x,1/2-y,1/2+z
_cell_length_a                   24.988(3)
_cell_length_b                   12.6951(17)
_cell_length_c                   12.3953(19)
_cell_angle_alpha                90
_cell_angle_beta                 108.173(12)
_cell_angle_gamma                90
_cell_volume                     3735.96
loop_
_atom_site_label
_atom_site_type_symbol
_atom_site_fract_x
_atom_site_fract_y
_atom_site_fract_z
Al1 Al 0.5000 0.0944(6) 0.7500
Al2 Al 0.5000 0.0000 1.0000
C1 C 0.0334(6) 0.2903(12) 0.4607(12)
C2 C 0.0654(7) 0.1931(13) 0.5153(13)
C3 C 0.0531(7) 0.0954(16) 0.4577(13)
H1 H 0.0240 0.0909 0.3894
C4 C 0.1067(8) 0.1999(16) 0.6202(13)
H2 H 0.1138 0.2619 0.6622
C5 C 0.0852(6) 0.0041(13) 0.5037(13)
H3 H 0.0760 -0.0600 0.4662
C6 C 0.1374(8) 0.1055(15) 0.6594(14)
H4 H 0.1652 0.1093 0.7296
C7 C 0.1308(7) 0.0090(14) 0.6052(14)
C8 C 0.1668(8) -0.0845(16) 0.6598(14)
C9 C 0.1441(10) -0.126(2) 0.749(2)
C10 C 0.1637(8) -0.1709(18) 0.5749(18)
C11 C 0.2291(7) -0.0437(14) 0.7078(14)
C12 C 0.2640(8) -0.0694(14) 0.8142(14)
H5 H 0.2506 -0.1113 0.8618
C13 C 0.2501(7) 0.0088(15) 0.6367(14)
H6 H 0.2272 0.0202 0.5625
C14 C 0.3185(7) -0.0333(15) 0.8504(14)
H7 H 0.3413 -0.0485 0.9237
C15 C 0.3055(7) 0.0474(13) 0.6698(12)
H8 H 0.3191 0.0865 0.6205
C16 C 0.3394(7) 0.0242(12) 0.7808(13)
C17 C 0.4021(7) 0.0569(14) 0.8183(12)
F1 F 0.1519(4) -0.0555(10) 0.8376(9)
F2 F 0.0877(5) -0.1391(10) 0.7146(11)
F3 F 0.1681(5) -0.2158(9) 0.7941(10)
F4 F 0.2044(5) -0.2459(9) 0.6193(9)
F5 F 0.1148(5) -0.2250(8) 0.5421(10)
F6 F 0.1735(4) -0.1384(9) 0.4815(9)
O1 O 0.0180(4) 0.2931(8) 0.3566(8)
O2 O 0.0285(5) 0.3595(8) 0.5294(8)
O3 O 0.4267(4) 0.0503(9) 0.9198(7)
O4 O 0.4221(5) 0.0890(9) 0.7446(8)
O5 O 0.4819(4) -0.0048(8) 0.6332(7)
C1A C 0.9666(6) 0.2903(12) 1.0393(12)
C2A C 0.9346(7) 0.1931(13) 0.9847(13)
C3A C 0.9469(7) 0.0954(16) 1.0423(13)
H1A H 0.9760 0.0909 1.1106
C4A C 0.8933(8) 0.1999(16) 0.8798(13)
H2A H 0.8862 0.2619 0.8378
C5A C 0.9148(6) 0.0041(13) 0.9963(13)
H3A H 0.9240 -0.0600 1.0338
C6A C 0.8626(8) 0.1055(15) 0.8406(14)
H4A H 0.8348 0.1093 0.7704
C7A C 0.8692(7) 0.0090(14) 0.8948(14)
C8A C 0.8332(8) -0.0845(16) 0.8402(14)
C9A C 0.8559(10) -0.126(2) 0.751(2)
C10A C 0.8363(8) -0.1709(18) 0.9251(18)
C11A C 0.7709(7) -0.0437(14) 0.7922(14)
C12A C 0.7360(8) -0.0694(14) 0.6858(14)
H5A H 0.7494 -0.1113 0.6382
C13A C 0.7499(7) 0.0088(15) 0.8633(14)
H6A H 0.7728 0.0202 0.9375
C14A C 0.6815(7) -0.0333(15) 0.6496(14)
H7A H 0.6587 -0.0485 0.5763
C15A C 0.6945(7) 0.0474(13) 0.8302(12)
H8A H 0.6809 0.0865 0.8795
C16A C 0.6606(7) 0.0242(12) 0.7192(13)
C17A C 0.5979(7) 0.0569(14) 0.6817(12)
F1A F 0.8481(4) -0.0555(10) 0.6624(9)
F2A F 0.9123(5) -0.1391(10) 0.7854(11)
F3A F 0.8319(5) -0.2158(9) 0.7059(10)
F4A F 0.7956(5) -0.2459(9) 0.8807(9)
F5A F 0.8852(5) -0.2250(8) 0.9579(10)
F6A F 0.8265(4) -0.1384(9) 1.0185(9)
O1A O 0.9820(4) 0.2931(8) 1.1434(8)
O2A O 0.9715(5) 0.3595(8) 0.9706(8)
O3A O 0.5733(4) 0.0503(9) 0.5802(7)
O4A O 0.5779(5) 0.0890(9) 0.7554(8)
O5A O 0.5181(4) -0.0048(8) 0.8668(7)
Al1F Al 0.0000 0.4056(6) 0.2500
Al1F_2 Al 1.0000 0.4056(6) 1.2500
Al2A Al 0.5000 0.0000 0.5000
Al2B Al 1.0000 0.5000 1.0000
Al2C Al 0.0000 0.5000 0.5000
O1F O 0.4820(4) 0.2069(8) 0.6434(8)
O1G O 0.5180(4) 0.2069(8) 0.8566(8)
O2C O 0.4715(5) -0.1405(8) 0.9706(8)
O2G O 0.5285(5) 0.1405(8) 1.0294(8)
O3D O 0.5733(4) -0.0503(9) 1.0802(7)
O5E O 0.4819(4) 0.0048(8) 1.1332(7)
loop_
_geom_bond_atom_site_label_1
_geom_bond_atom_site_label_2
_geom_bond_site_symmetry_1
_geom_bond_site_symmetry_2
Al1 O4 1_555 1_555
Al2 O3 1_555 1_555
C1 C2 1_555 1_555
C2 C3 1_555 1_555
C3 H1 1_555 1_555
C4 C2 1_555 1_555
H2 C4 1_555 1_555
C5 C3 1_555 1_555
H3 C5 1_555 1_555
C6 C4 1_555 1_555
H4 C6 1_555 1_555
C7 C5 1_555 1_555
C8 C7 1_555 1_555
C9 C8 1_555 1_555
C10 C8 1_555 1_555
C11 C8 1_555 1_555
C12 C11 1_555 1_555
H5 C12 1_555 1_555
C13 C11 1_555 1_555
H6 C13 1_555 1_555
C14 C12 1_555 1_555
H7 C14 1_555 1_555
C15 C13 1_555 1_555
H8 C15 1_555 1_555
C16 C14 1_555 1_555
C17 C16 1_555 1_555
F1 C9 1_555 1_555
F2 C9 1_555 1_555
F3 C9 1_555 1_555
F4 C10 1_555 1_555
F5 C10 1_555 1_555
F6 C10 1_555 1_555
O1 C1 1_555 1_555
O2 C1 1_555 1_555
O3 C17 1_555 1_555
O4 C17 1_555 1_555
O5 Al1 1_555 1_555
C1A C2A 1_555 1_555
C2A C3A 1_555 1_555
C3A H1A 1_555 1_555
C4A C2A 1_555 1_555
H2A C4A 1_555 1_555
C5A C3A 1_555 1_555
H3A C5A 1_555 1_555
C6A C4A 1_555 1_555
H4A C6A 1_555 1_555
C7A C5A 1_555 1_555
C8A C7A 1_555 1_555
C9A C8A 1_555 1_555
C10A C8A 1_555 1_555
C11A C8A 1_555 1_555
C12A C11A 1_555 1_555
H5A C12A 1_555 1_555
C13A C11A 1_555 1_555
H6A C13A 1_555 1_555
C14A C12A 1_555 1_555
H7A C14A 1_555 1_555
C15A C13A 1_555 1_555
H8A C15A 1_555 1_555
C16A C14A 1_555 1_555
C17A C16A 1_555 1_555
F1A C9A 1_555 1_555
F2A C9A 1_555 1_555
F3A C9A 1_555 1_555
F4A C10A 1_555 1_555
F5A C10A 1_555 1_555
F6A C10A 1_555 1_555
O1A C1A 1_555 1_555
O2A C1A 1_555 1_555
O3A C17A 1_555 1_555
O4A Al1 1_555 1_555
O5A Al1 1_555 1_555
Al1F O1 1_555 1_555
Al1F_2 O1A 1_555 1_555
Al2A O5 1_555 1_555
Al2B O2A 1_555 1_555
Al2C O2 1_555 1_555
O1F Al1 1_555 1_555
O1G Al1 1_555 1_555
O2C Al2 1_555 1_555
O2G Al2 1_555 1_555
O3D Al2 1_555 1_555
O5E Al2 1_555 1_555
Al2 O5A 1_555 1_555
C6 C7 1_555 1_555
C15 C16 1_555 1_555
C6A C7A 1_555 1_555
C15A C16A 1_555 1_555
C17A O4A 1_555 1_555
O3A Al2A 1_555 1_555

#END
