
#######################################################################
#
#                 Cambridge Crystallographic Data Centre
#                                CCDC 
#
#######################################################################
#
# If this CIF has been generated from an entry in the Cambridge 
# Structural Database, then it will include bibliographic, chemical, 
# crystal, experimental, refinement or atomic coordinate data resulting 
# from the CCDC's data processing and validation procedures.
#
#######################################################################

data_HUGLIG
_symmetry_cell_setting           monoclinic
_symmetry_space_group_name_H-M   'C 2/c'
_symmetry_Int_Tables_number      15
_space_group_name_Hall           '-C 2yn'
loop_
_symmetry_equiv_pos_site_id
_symmetry_equiv_pos_as_xyz
1 x,y,z
2 -x,y,1/2-z
3 1/2+x,1/2+y,z
4 1/2-x,1/2+y,1/2-z
5 -x,-y,-z
6 x,-y,1/2+z
7 1/2-x,1/2-y,-z
8 1/2+x,1/2-y,1/2+z
_cell_length_a                   25.3750(13)
_cell_length_b                   13.1271(6)
_cell_length_c                   13.1893(6)
_cell_angle_alpha                90
_cell_angle_beta                 107.305(3)
_cell_angle_gamma                90
_cell_volume                     4194.49
loop_
_atom_site_label
_atom_site_type_symbol
_atom_site_fract_x
_atom_site_fract_y
_atom_site_fract_z
In1 In 0.5000 0.5000 0.5000
In2 In 0.5000 0.60983(9) 0.7500
O1 O 0.4816(4) 0.4842(7) 0.6410(7)
O2 O 0.0796(4) 0.9368(9) 0.0861(8)
O3 O 0.0876(4) 0.8949(8) 0.2516(8)
O4 O 0.4785(4) 0.7265(7) 0.6332(7)
O5 O 0.4604(4) 0.6468(7) 0.4766(7)
C1 C 0.4574(6) 0.7228(12) 0.5348(12)
F1 F 0.3233(5) 1.1366(9) 0.4843(11)
F2 F 0.2958(5) 1.2314(8) 0.3470(12)
C2 C 0.1054(6) 0.9293(11) 0.1835(12)
F3 F 0.3494(5) 1.0365(13) 0.1577(10)
F4 F 0.4106(5) 1.1244(12) 0.2694(11)
C3 C 0.3682(6) 0.9814(11) 0.3796(13)
C4 C 0.3621(7) 0.8883(13) 0.3321(13)
H1 H 0.3375 0.8816 0.2643
F5 F 0.3828(6) 1.2129(8) 0.4225(12)
C5 C 0.4399(7) 0.9101(11) 0.5279(12)
H2 H 0.4665 0.9172 0.5935
C6 C 0.1965(6) 0.9486(12) 0.3185(12)
H3 H 0.1828 0.9142 0.3669
C7 C 0.1855(8) 1.0182(13) 0.1483(14)
H4 H 0.1637 1.0288 0.0787
C8 C 0.2510(7) 0.9831(13) 0.3468(14)
H5 H 0.2741 0.9689 0.4144
C9 C 0.1636(6) 0.9672(11) 0.2159(12)
C10 C 0.4292(6) 0.8155(12) 0.4792(12)
C11 C 0.2706(6) 1.0356(12) 0.2802(13)
F6 F 0.3346(6) 1.1927(10) 0.1844(11)
C12 C 0.2372(6) 1.0536(15) 0.1782(14)
H6 H 0.2506 1.0902 0.1307
C13 C 0.4105(7) 0.9933(12) 0.4772(14)
H7 H 0.4185 1.0577 0.5072
C14 C 0.3331(8) 1.1661(14) 0.3922(19)
C15 C 0.3566(8) 1.1045(18) 0.2333(19)
C16 C 0.3312(6) 1.0718(13) 0.3224(15)
C17 C 0.3905(6) 0.8044(12) 0.3799(12)
H8 H 0.3841 0.7411 0.3468
C18 C 0.4769(7) 0.3909(14) 0.6944(12)
H9 H 0.4818 0.3330 0.6524
H10 H 0.4407 0.3861 0.7046
O1A O 0.5184(4) 0.4842(7) 0.8590(7)
C18A C 0.5231(7) 0.3909(14) 0.8056(12)
H9A H 0.5182 0.3330 0.8476
H10A H 0.5593 0.3861 0.7954
O2A O 0.9204(4) 0.9368(9) 1.4139(8)
O3A O 0.9124(4) 0.8949(8) 1.2484(8)
O4A O 0.5215(4) 0.7265(7) 0.8668(7)
O5A O 0.5396(4) 0.6468(7) 1.0234(7)
C1A C 0.5426(6) 0.7228(12) 0.9652(12)
F1A F 0.6767(5) 1.1366(9) 1.0157(11)
F2A F 0.7042(5) 1.2314(8) 1.1530(12)
C2A C 0.8946(6) 0.9293(11) 1.3165(12)
F3A F 0.6506(5) 1.0365(13) 1.3423(10)
F4A F 0.5894(5) 1.1244(12) 1.2306(11)
C3A C 0.6318(6) 0.9814(11) 1.1204(13)
C4A C 0.6379(7) 0.8883(13) 1.1679(13)
H1A H 0.6625 0.8816 1.2357
F5A F 0.6172(6) 1.2129(8) 1.0775(12)
C5A C 0.5601(7) 0.9101(11) 0.9721(12)
H2A H 0.5335 0.9172 0.9065
C6A C 0.8035(6) 0.9486(12) 1.1815(12)
H3A H 0.8172 0.9142 1.1331
C7A C 0.8145(8) 1.0182(13) 1.3517(14)
H4A H 0.8363 1.0288 1.4213
C8A C 0.7490(7) 0.9831(13) 1.1532(14)
H5A H 0.7259 0.9689 1.0856
C9A C 0.8364(6) 0.9672(11) 1.2841(12)
C10A C 0.5708(6) 0.8155(12) 1.0208(12)
C11A C 0.7294(6) 1.0356(12) 1.2198(13)
F6A F 0.6654(6) 1.1927(10) 1.3156(11)
C12A C 0.7628(6) 1.0536(15) 1.3218(14)
H6A H 0.7494 1.0902 1.3693
C13A C 0.5895(7) 0.9933(12) 1.0228(14)
H7A H 0.5815 1.0577 0.9928
C14A C 0.6669(8) 1.1661(14) 1.1078(19)
C15A C 0.6434(8) 1.1045(18) 1.2667(19)
C16A C 0.6688(6) 1.0718(13) 1.1776(15)
C17A C 0.6095(6) 0.8044(12) 1.1201(12)
H8A H 0.6159 0.7411 1.1532
In1A In 0.5000 0.5000 1.0000
In1B In 1.0000 1.0000 1.5000
In1C In 0.0000 1.0000 0.0000
In2F In 0.0000 0.89017(9) 0.2500
In2F_2 In 1.0000 0.89017(9) 1.2500
O1D O 0.5184(4) 0.5158(7) 0.3590(7)
O2C O 0.4204(4) 0.4368(9) 0.4139(8)
O2G O 0.5796(4) 0.5632(9) 0.5861(8)
O3F O 0.4124(4) 0.6051(8) 0.7484(8)
O3G O 0.5876(4) 0.6051(8) 0.7516(8)
O5D O 0.5396(4) 0.3532(7) 0.5234(7)
loop_
_geom_bond_atom_site_label_1
_geom_bond_atom_site_label_2
_geom_bond_site_symmetry_1
_geom_bond_site_symmetry_2
In1 O1 1_555 1_555
In2 O1 1_555 1_555
O1 C18 1_555 1_555
O2 C2 1_555 1_555
O3 C2 1_555 1_555
O4 In2 1_555 1_555
O5 In1 1_555 1_555
C1 O4 1_555 1_555
F1 C14 1_555 1_555
F2 C14 1_555 1_555
C2 C9 1_555 1_555
F3 C15 1_555 1_555
F4 C15 1_555 1_555
C3 C4 1_555 1_555
C4 H1 1_555 1_555
F5 C14 1_555 1_555
C5 H2 1_555 1_555
C6 H3 1_555 1_555
C7 H4 1_555 1_555
C8 C6 1_555 1_555
H5 C8 1_555 1_555
C9 C6 1_555 1_555
C10 C1 1_555 1_555
C11 C8 1_555 1_555
F6 C15 1_555 1_555
C12 C7 1_555 1_555
H6 C12 1_555 1_555
C13 C3 1_555 1_555
H7 C13 1_555 1_555
C14 C16 1_555 1_555
C15 C16 1_555 1_555
C16 C3 1_555 1_555
C17 C4 1_555 1_555
H8 C17 1_555 1_555
C18 H9 1_555 1_555
H10 C18 1_555 1_555
O1A In2 1_555 1_555
C18A C18 1_555 1_555
H9A C18A 1_555 1_555
H10A C18A 1_555 1_555
O2A C2A 1_555 1_555
O3A C2A 1_555 1_555
O4A In2 1_555 1_555
O5A C1A 1_555 1_555
C1A O4A 1_555 1_555
F1A C14A 1_555 1_555
F2A C14A 1_555 1_555
C2A C9A 1_555 1_555
F3A C15A 1_555 1_555
F4A C15A 1_555 1_555
C3A C4A 1_555 1_555
C4A H1A 1_555 1_555
F5A C14A 1_555 1_555
C5A H2A 1_555 1_555
C6A H3A 1_555 1_555
C7A H4A 1_555 1_555
C8A C6A 1_555 1_555
H5A C8A 1_555 1_555
C9A C6A 1_555 1_555
C10A C1A 1_555 1_555
C11A C8A 1_555 1_555
F6A C15A 1_555 1_555
C12A C7A 1_555 1_555
H6A C12A 1_555 1_555
C13A C3A 1_555 1_555
H7A C13A 1_555 1_555
C14A C16A 1_555 1_555
C15A C16A 1_555 1_555
C16A C3A 1_555 1_555
C17A C4A 1_555 1_555
H8A C17A 1_555 1_555
In1A O1A 1_555 1_555
In1B O2A 1_555 1_555
In1C O2 1_555 1_555
In2F O3 1_555 1_555
In2F_2 O3A 1_555 1_555
O1D In1 1_555 1_555
O2C In1 1_555 1_555
O2G In1 1_555 1_555
O3F In2 1_555 1_555
O3G In2 1_555 1_555
O5D In1 1_555 1_555
O5 C1 1_555 1_555
C5 C10 1_555 1_555
C5 C13 1_555 1_555
C7 C9 1_555 1_555
C10 C17 1_555 1_555
C11 C12 1_555 1_555
C11 C16 1_555 1_555
O1A C18A 1_555 1_555
O5A In1A 1_555 1_555
C5A C10A 1_555 1_555
C5A C13A 1_555 1_555
C7A C9A 1_555 1_555
C10A C17A 1_555 1_555
C11A C12A 1_555 1_555
C11A C16A 1_555 1_555

#END
