
#######################################################################
#
#                 Cambridge Crystallographic Data Centre
#                                CCDC 
#
#######################################################################
#
# If this CIF has been generated from an entry in the Cambridge 
# Structural Database, then it will include bibliographic, chemical, 
# crystal, experimental, refinement or atomic coordinate data resulting 
# from the CCDC's data processing and validation procedures.
#
#######################################################################

data_HUGTOS
_symmetry_cell_setting           monoclinic
_symmetry_space_group_name_H-M   'P 21/n'
_symmetry_Int_Tables_number      14
_space_group_name_Hall           '-P 2yn'
loop_
_symmetry_equiv_pos_site_id
_symmetry_equiv_pos_as_xyz
1 x,y,z
2 1/2+x,1/2-y,1/2+z
3 -x,-y,-z
4 1/2-x,1/2+y,1/2-z
_cell_length_a                   11.184(5)
_cell_length_b                   9.177(2)
_cell_length_c                   18.2430(10)
_cell_angle_alpha                90.00
_cell_angle_beta                 107.840(10)
_cell_angle_gamma                90.00
_cell_volume                     1782.35
loop_
_atom_site_label
_atom_site_type_symbol
_atom_site_fract_x
_atom_site_fract_y
_atom_site_fract_z
Mn1 Mn 0.93980(2) 0.20365(3) 0.226254(14)
O1 O 0.76485(12) 0.11099(14) 0.15825(8)
O2 O 0.83838(13) -0.0665(2) 0.10121(9)
O3 O 0.44584(13) -0.1592(2) 0.17153(8)
O4 O 0.64633(12) -0.18788(15) 0.18448(8)
N1 N 0.8915(2) 0.4033(2) 0.15155(10)
N2 N 0.8460(2) 0.6257(2) 0.10817(13)
N3 N 1.1006(2) 0.1603(2) 0.18607(10)
N4 N 1.2620(2) 0.0447(2) 0.17097(13)
N5 N 0.98041(15) 0.0154(2) 0.30901(9)
N6 N 0.9232(2) -0.1739(2) 0.36357(12)
C1 C 0.7528(2) 0.0107(2) 0.10877(9)
C2 C 0.6213(2) -0.0026(2) 0.05298(9)
C3 C 0.5990(2) 0.0612(2) -0.01928(9)
C4 C 0.5212(2) -0.0651(2) 0.07216(9)
C5 C 0.5401(2) -0.1410(2) 0.14778(9)
C6 C 0.8632(2) 0.5356(2) 0.16818(14)
C7 C 0.8613(3) 0.5470(3) 0.0487(2)
C8 C 0.8901(3) 0.4105(3) 0.07605(14)
C9 C 1.1521(2) 0.0327(3) 0.1842(2)
C10 C 1.2828(3) 0.1879(3) 0.1632(2)
C11 C 1.1833(2) 0.2594(3) 0.1725(2)
C12 C 0.9046(2) -0.0974(2) 0.29910(12)
C13 C 1.0161(3) -0.1069(3) 0.41942(13)
C14 C 1.0512(2) 0.0093(2) 0.38517(13)
H1 H 0.6660 0.1100 -0.0310
H2 H 0.8460 0.5660 0.2140
H3 H 0.8285 0.7170 0.1074
H4 H 0.8590 0.6020 -0.0010
H5 H 0.9110 0.3350 0.0470
H6 H 1.1230 -0.0590 0.1930
H7 H 1.3110 -0.0258 0.1679
H8 H 1.3523 0.2289 0.1534
H9 H 1.1640 0.3640 0.1690
H10 H 0.8390 -0.1210 0.2540
H11 H 0.8740 -0.2570 0.3720
H12 H 1.0480 -0.1430 0.4660
H13 H 1.1070 0.0840 0.4030
C4B C 0.4788(2) 0.0651(2) -0.07216(9)
C2B C 0.3787(2) 0.0026(2) -0.05298(9)
C1B C 0.2472(2) -0.0107(2) -0.10877(9)
O1B O 0.23515(12) -0.11099(14) -0.15825(8)
O2B O 0.16162(13) 0.0665(2) -0.10121(9)
C3B C 0.4010(2) -0.0612(2) 0.01928(9)
H1B H 0.3340 -0.1100 0.0310
C5B C 0.4599(2) 0.1410(2) -0.14778(9)
O3B O 0.55416(13) 0.1592(2) -0.17153(8)
O4B O 0.35367(12) 0.18788(15) -0.18448(8)
Mn1B Mn 0.06020(2) -0.20365(3) -0.226254(14)
N1B N 0.1085(2) -0.4033(2) -0.15155(10)
N2B N 0.1540(2) -0.6257(2) -0.10817(13)
C6B C 0.1368(2) -0.5356(2) -0.16818(14)
C7B C 0.1387(3) -0.5470(3) -0.0487(2)
C8B C 0.1099(3) -0.4105(3) -0.07605(14)
H2B H 0.1540 -0.5660 -0.2140
H3B H 0.1715 -0.7170 -0.1074
H4B H 0.1410 -0.6020 0.0010
H5B H 0.0890 -0.3350 -0.0470
N3B N -0.1006(2) -0.1603(2) -0.18607(10)
N4B N -0.2620(2) -0.0447(2) -0.17097(13)
C9B C -0.1521(2) -0.0327(3) -0.1842(2)
C10B C -0.2828(3) -0.1879(3) -0.1632(2)
C11B C -0.1833(2) -0.2594(3) -0.1725(2)
H6B H -0.1230 0.0590 -0.1930
H7B H -0.3110 0.0258 -0.1679
H8B H -0.3523 -0.2289 -0.1534
H9B H -0.1640 -0.3640 -0.1690
N5B N 0.01959(15) -0.0154(2) -0.30901(9)
N6B N 0.0768(2) 0.1739(2) -0.36357(12)
C12B C 0.0954(2) 0.0974(2) -0.29910(12)
C13B C -0.0161(3) 0.1069(3) -0.41942(13)
C14B C -0.0512(2) -0.0093(2) -0.38517(13)
H10B H 0.1610 0.1210 -0.2540
H11B H 0.1260 0.2570 -0.3720
H12B H -0.0480 0.1430 -0.4660
H13B H -0.1070 -0.0840 -0.4030
O3C O 1.05416(13) 0.3408(2) 0.32847(8)
O4C O 0.85367(12) 0.31212(15) 0.31552(8)
Mn1C Mn 0.56020(2) -0.29635(3) 0.273746(14)
Mn1A Mn 0.43980(2) 0.29635(3) -0.273746(14)
O3A O -0.05416(13) -0.3408(2) -0.32847(8)
O4A O 0.14633(12) -0.31212(15) -0.31552(8)
O5 O 0.9665(8) 0.1012(9) -0.0130(4)
loop_
_geom_bond_atom_site_label_1
_geom_bond_atom_site_label_2
_geom_bond_site_symmetry_1
_geom_bond_site_symmetry_2
Mn1 O1 1_555 1_555
O1 C1 1_555 1_555
O2 C1 1_555 1_555
O3 C5 1_555 1_555
O4 C5 1_555 1_555
N1 Mn1 1_555 1_555
N2 C6 1_555 1_555
N3 Mn1 1_555 1_555
N4 C9 1_555 1_555
N5 Mn1 1_555 1_555
N6 C12 1_555 1_555
C1 C2 1_555 1_555
C2 C3 1_555 1_555
C3 H1 1_555 1_555
C4 C2 1_555 1_555
C5 C4 1_555 1_555
C6 N1 1_555 1_555
C7 N2 1_555 1_555
C8 N1 1_555 1_555
C9 N3 1_555 1_555
C10 N4 1_555 1_555
C11 N3 1_555 1_555
C12 N5 1_555 1_555
C13 N6 1_555 1_555
C14 N5 1_555 1_555
H2 C6 1_555 1_555
H3 N2 1_555 1_555
H4 C7 1_555 1_555
H5 C8 1_555 1_555
H6 C9 1_555 1_555
H7 N4 1_555 1_555
H8 C10 1_555 1_555
H9 C11 1_555 1_555
H10 C12 1_555 1_555
H11 N6 1_555 1_555
H12 C13 1_555 1_555
H13 C14 1_555 1_555
C4B C3 1_555 1_555
C2B C4B 1_555 1_555
C1B C2B 1_555 1_555
O1B C1B 1_555 1_555
O2B C1B 1_555 1_555
C3B C4 1_555 1_555
H1B C3B 1_555 1_555
C5B C4B 1_555 1_555
O3B C5B 1_555 1_555
O4B C5B 1_555 1_555
Mn1B O1B 1_555 1_555
N1B Mn1B 1_555 1_555
N2B C6B 1_555 1_555
C6B N1B 1_555 1_555
C7B N2B 1_555 1_555
C8B N1B 1_555 1_555
H2B C6B 1_555 1_555
H3B N2B 1_555 1_555
H4B C7B 1_555 1_555
H5B C8B 1_555 1_555
N3B Mn1B 1_555 1_555
N4B C9B 1_555 1_555
C9B N3B 1_555 1_555
C10B N4B 1_555 1_555
C11B N3B 1_555 1_555
H6B C9B 1_555 1_555
H7B N4B 1_555 1_555
H8B C10B 1_555 1_555
H9B C11B 1_555 1_555
N5B Mn1B 1_555 1_555
N6B C12B 1_555 1_555
C12B N5B 1_555 1_555
C13B N6B 1_555 1_555
C14B N5B 1_555 1_555
H10B C12B 1_555 1_555
H11B N6B 1_555 1_555
H12B C13B 1_555 1_555
H13B C14B 1_555 1_555
O3C Mn1 1_555 1_555
O4C Mn1 1_555 1_555
Mn1C O3 1_555 1_555
Mn1A O3B 1_555 1_555
O3A Mn1B 1_555 1_555
O4A Mn1B 1_555 1_555
O4 Mn1C 1_555 1_555
C7 C8 1_555 1_555
C10 C11 1_555 1_555
C13 C14 1_555 1_555
C2B C3B 1_555 1_555
O4B Mn1A 1_555 1_555
C7B C8B 1_555 1_555
C10B C11B 1_555 1_555
C13B C14B 1_555 1_555

#END
