
#######################################################################
#
#                 Cambridge Crystallographic Data Centre
#                                CCDC 
#
#######################################################################
#
# If this CIF has been generated from an entry in the Cambridge 
# Structural Database, then it will include bibliographic, chemical, 
# crystal, experimental, refinement or atomic coordinate data resulting 
# from the CCDC's data processing and validation procedures.
#
#######################################################################

data_HUGVEL
_symmetry_cell_setting           monoclinic
_symmetry_space_group_name_H-M   'P 21/c'
_symmetry_Int_Tables_number      14
_space_group_name_Hall           '-P 2ybc'
loop_
_symmetry_equiv_pos_site_id
_symmetry_equiv_pos_as_xyz
1 x,y,z
2 -x,1/2+y,1/2-z
3 -x,-y,-z
4 x,1/2-y,1/2+z
_cell_length_a                   14.3120(10)
_cell_length_b                   9.9480(7)
_cell_length_c                   22.5040(14)
_cell_angle_alpha                90
_cell_angle_beta                 103.736(5)
_cell_angle_gamma                90
_cell_volume                     3112.39
loop_
_atom_site_label
_atom_site_type_symbol
_atom_site_fract_x
_atom_site_fract_y
_atom_site_fract_z
Ga1 Ga 0.28541(5) 1.17838(8) 0.34128(3)
Ga2 Ga 0.21268(4) 0.70319(7) 0.48330(3)
C1 C 0.2001(4) 1.0719(6) 0.3819(3)
C2 C 0.2253(4) 0.9465(6) 0.4100(3)
H1 H 0.2897 0.9164 0.4146
C3 C 0.1619(4) 0.8629(7) 0.4317(3)
C4 C 0.0672(4) 0.9130(6) 0.4257(3)
H2 H 0.0224 0.8598 0.4404
C5 C 0.0374(4) 1.0376(7) 0.3990(3)
C6 C 0.1033(4) 1.1149(6) 0.3770(3)
H3 H 0.0832 1.1988 0.3581
C7 C -0.0605(4) 1.0945(7) 0.3989(3)
H4 H -0.0702 1.0881 0.4410
H5 H -0.0607 1.1912 0.3884
C8 C -0.1442(4) 1.0286(7) 0.3561(3)
H6 H -0.1398 0.9301 0.3624
H7 H -0.1409 1.0471 0.3134
C9 C -0.2415(5) 1.0788(8) 0.3658(4)
H8 H -0.2450 1.0557 0.4080
H9 H -0.2427 1.1780 0.3625
C10 C -0.3267(5) 1.0266(11) 0.3241(5)
H10 H -0.3241 1.0471 0.2820
H11 H -0.3839 1.0684 0.3329
H12 H -0.3297 0.9290 0.3293
C11 C 0.2221(5) 1.2921(7) 0.2728(3)
H13 H 0.1531 1.2968 0.2711
H14 H 0.2317 1.2539 0.2346
H15 H 0.2498 1.3826 0.2784
C12 C 0.4196(4) 1.1143(8) 0.3536(4)
H16 H 0.4196 1.0178 0.3447
H17 H 0.4543 1.1302 0.3960
H18 H 0.4514 1.1630 0.3260
C13 C 0.3520(4) 0.7018(7) 0.5182(3)
H19 H 0.3665 0.7511 0.5570
H20 H 0.3847 0.7449 0.4896
H21 H 0.3743 0.6088 0.5254
C14 C 0.1246(4) 0.5996(7) 0.5213(3)
H22 H 0.1384 0.5035 0.5193
H23 H 0.0580 0.6172 0.4993
H24 H 0.1337 0.6268 0.5641
Ga3 Ga 0.28041(4) 1.21534(7) 0.48235(3)
Ga4 Ga 0.09669(5) 0.68362(8) 0.33855(3)
C15 C 0.2920(4) 1.3724(7) 0.4284(3)
C16 C 0.2106(4) 1.4551(6) 0.4052(3)
H25 H 0.1499 1.4265 0.4108
C17 C 0.2149(4) 1.5768(7) 0.3744(3)
C18 C 0.3052(4) 1.6146(7) 0.3656(3)
H26 H 0.3096 1.6946 0.3433
C19 C 0.3882(4) 1.5405(7) 0.3879(3)
C20 C 0.3792(4) 1.4198(7) 0.4185(3)
H27 H 0.4354 1.3675 0.4333
C21 C 0.4860(4) 1.5887(8) 0.3800(4)
H28 H 0.4791 1.6818 0.3641
H29 H 0.5316 1.5907 0.4207
C22 C 0.5274(5) 1.5050(9) 0.3386(3)
H30 H 0.4872 1.5134 0.2964
H31 H 0.5265 1.4096 0.3510
C23 C 0.6322(5) 1.5467(9) 0.3395(5)
H32 H 0.6317 1.6399 0.3239
H33 H 0.6704 1.5466 0.3824
C24 C 0.6813(6) 1.4570(10) 0.3021(5)
H34 H 0.6809 1.3641 0.3165
H35 H 0.7479 1.4868 0.3066
H36 H 0.6471 1.4619 0.2589
C25 C 0.3969(4) 1.1115(7) 0.5190(3)
H37 H 0.4272 1.1488 0.5593
H38 H 0.4421 1.1164 0.4925
H39 H 0.3795 1.0174 0.5236
C26 C 0.1700(4) 1.2160(7) 0.5198(3)
H40 H 0.1473 1.1237 0.5223
H41 H 0.1182 1.2704 0.4948
H42 H 0.1893 1.2543 0.5610
C27 C -0.0240(4) 0.6126(7) 0.3541(3)
H43 H -0.0497 0.5425 0.3241
H44 H -0.0710 0.6856 0.3506
H45 H -0.0112 0.5744 0.3954
C28 C 0.0987(5) 0.8094(7) 0.2711(3)
H46 H 0.0565 0.7755 0.2332
H47 H 0.1645 0.8173 0.2658
H48 H 0.0760 0.8979 0.2807
Ga2_2 Ga 0.21268(4) 1.70319(7) 0.48330(3)
Ga4_2 Ga 0.09669(5) 1.68362(8) 0.33855(3)
C17_2 C 0.2149(4) 0.5768(7) 0.3744(3)
loop_
_geom_bond_atom_site_label_1
_geom_bond_atom_site_label_2
_geom_bond_site_symmetry_1
_geom_bond_site_symmetry_2
Ga1 C1 1_555 1_555
Ga2 C3 1_555 1_555
C1 C2 1_555 1_555
C2 H1 1_555 1_555
C3 C2 1_555 1_555
C4 C3 1_555 1_555
H2 C4 1_555 1_555
C5 C4 1_555 1_555
C6 C1 1_555 1_555
H3 C6 1_555 1_555
C7 C5 1_555 1_555
H4 C7 1_555 1_555
H5 C7 1_555 1_555
C8 C7 1_555 1_555
H6 C8 1_555 1_555
H7 C8 1_555 1_555
C9 C8 1_555 1_555
H8 C9 1_555 1_555
H9 C9 1_555 1_555
C10 C9 1_555 1_555
H10 C10 1_555 1_555
H11 C10 1_555 1_555
H12 C10 1_555 1_555
C11 Ga1 1_555 1_555
H13 C11 1_555 1_555
H14 C11 1_555 1_555
H15 C11 1_555 1_555
C12 Ga1 1_555 1_555
H16 C12 1_555 1_555
H17 C12 1_555 1_555
H18 C12 1_555 1_555
C13 Ga2 1_555 1_555
H19 C13 1_555 1_555
H20 C13 1_555 1_555
H21 C13 1_555 1_555
C14 Ga2 1_555 1_555
H22 C14 1_555 1_555
H23 C14 1_555 1_555
H24 C14 1_555 1_555
Ga3 C1 1_555 1_555
Ga4 C3 1_555 1_555
C15 Ga1 1_555 1_555
C16 C15 1_555 1_555
H25 C16 1_555 1_555
C17 C16 1_555 1_555
C18 C17 1_555 1_555
H26 C18 1_555 1_555
C19 C18 1_555 1_555
C20 C15 1_555 1_555
H27 C20 1_555 1_555
C21 C19 1_555 1_555
H28 C21 1_555 1_555
H29 C21 1_555 1_555
C22 C21 1_555 1_555
H30 C22 1_555 1_555
H31 C22 1_555 1_555
C23 C22 1_555 1_555
H32 C23 1_555 1_555
H33 C23 1_555 1_555
C24 C23 1_555 1_555
H34 C24 1_555 1_555
H35 C24 1_555 1_555
H36 C24 1_555 1_555
C25 Ga3 1_555 1_555
H37 C25 1_555 1_555
H38 C25 1_555 1_555
H39 C25 1_555 1_555
C26 Ga3 1_555 1_555
H40 C26 1_555 1_555
H41 C26 1_555 1_555
H42 C26 1_555 1_555
C27 Ga4 1_555 1_555
H43 C27 1_555 1_555
H44 C27 1_555 1_555
H45 C27 1_555 1_555
C28 Ga4 1_555 1_555
H46 C28 1_555 1_555
H47 C28 1_555 1_555
H48 C28 1_555 1_555
Ga2_2 C17 1_555 1_555
Ga4_2 C17 1_555 1_555
C17_2 Ga2 1_555 1_555
C5 C6 1_555 1_555
Ga3 C15 1_555 1_555
Ga4 C17_2 1_555 1_555
C19 C20 1_555 1_555

#END
