
#######################################################################
#
#                 Cambridge Crystallographic Data Centre
#                                CCDC 
#
#######################################################################
#
# If this CIF has been generated from an entry in the Cambridge 
# Structural Database, then it will include bibliographic, chemical, 
# crystal, experimental, refinement or atomic coordinate data resulting 
# from the CCDC's data processing and validation procedures.
#
#######################################################################

data_HUGVOV
_symmetry_cell_setting           monoclinic
_symmetry_space_group_name_H-M   'C 2/c'
_symmetry_Int_Tables_number      15
_space_group_name_Hall           '-C 2yn'
loop_
_symmetry_equiv_pos_site_id
_symmetry_equiv_pos_as_xyz
1 x,y,z
2 -x,y,1/2-z
3 1/2+x,1/2+y,z
4 1/2-x,1/2+y,1/2-z
5 -x,-y,-z
6 x,-y,1/2+z
7 1/2-x,1/2-y,-z
8 1/2+x,1/2-y,1/2+z
_cell_length_a                   17.6600(3)
_cell_length_b                   10.4860(2)
_cell_length_c                   15.9950(2)
_cell_angle_alpha                90
_cell_angle_beta                 104.5570(11)
_cell_angle_gamma                90
_cell_volume                     2866.91
loop_
_atom_site_label
_atom_site_type_symbol
_atom_site_fract_x
_atom_site_fract_y
_atom_site_fract_z
Ga1 Ga 0.326071(10) 0.640260(16) 0.322882(12)
Ga2 Ga 0.257140(10) 0.623410(16) 0.151790(12)
Ga3 Ga 0.478768(11) 0.242213(17) 0.150017(12)
C1 C 0.31912(10) 0.47184(15) 0.24992(11)
C2 C 0.26814(10) 0.37715(15) 0.26812(11)
H1 H 0.2227 0.4043 0.2848
C3 C 0.28100(10) 0.24610(15) 0.26290(11)
C4 C 0.34887(9) 0.21006(15) 0.23630(11)
H2 H 0.3595 0.1217 0.2326
C5 C 0.40100(9) 0.29735(15) 0.21520(11)
C6 C 0.38444(9) 0.42815(15) 0.22369(11)
H3 H 0.4195 0.4895 0.2109
C7 C 0.42159(10) 0.73767(17) 0.32467(13)
H4 H 0.4372 0.7862 0.3786
H5 H 0.4115 0.7965 0.2755
H6 H 0.4637 0.6788 0.3208
C8 C 0.29016(12) 0.6061(2) 0.42704(13)
H7 H 0.3299 0.5564 0.4679
H8 H 0.2411 0.5578 0.4115
H9 H 0.2815 0.6870 0.4539
C9 C 0.33430(11) 0.70340(18) 0.09821(12)
H10 H 0.3434 0.6479 0.0524
H11 H 0.3836 0.7162 0.1421
H12 H 0.3143 0.7860 0.0735
C10 C 0.16919(11) 0.52232(19) 0.08527(12)
H13 H 0.1333 0.5778 0.0443
H14 H 0.1414 0.4833 0.1247
H15 H 0.1889 0.4553 0.0536
C11 C 0.47747(11) 0.05716(18) 0.13054(13)
H16 H 0.4945 0.0391 0.0780
H17 H 0.4243 0.0247 0.1239
H18 H 0.5130 0.0154 0.1800
C12 C 0.51169(13) 0.3673(2) 0.07587(13)
H19 H 0.5677 0.3570 0.0801
H20 H 0.5018 0.4534 0.0944
H21 H 0.4821 0.3541 0.0159
Ga1C Ga 0.173929(10) 0.140260(16) 0.177118(12)
Ga2C Ga 0.242860(10) 0.123410(16) 0.348210(12)
Ga3A Ga 0.521232(11) 0.242213(17) 0.349983(12)
C3C C 0.21900(10) 0.74610(15) 0.23710(11)
C5A C 0.59900(9) 0.29735(15) 0.28480(11)
loop_
_geom_bond_atom_site_label_1
_geom_bond_atom_site_label_2
_geom_bond_site_symmetry_1
_geom_bond_site_symmetry_2
Ga1 C1 1_555 1_555
Ga2 C1 1_555 1_555
Ga3 C5 1_555 1_555
C1 C2 1_555 1_555
C2 H1 1_555 1_555
C3 C2 1_555 1_555
C4 C3 1_555 1_555
H2 C4 1_555 1_555
C5 C4 1_555 1_555
C6 C1 1_555 1_555
H3 C6 1_555 1_555
C7 Ga1 1_555 1_555
H4 C7 1_555 1_555
H5 C7 1_555 1_555
H6 C7 1_555 1_555
C8 Ga1 1_555 1_555
H7 C8 1_555 1_555
H8 C8 1_555 1_555
H9 C8 1_555 1_555
C9 Ga2 1_555 1_555
H10 C9 1_555 1_555
H11 C9 1_555 1_555
H12 C9 1_555 1_555
C10 Ga2 1_555 1_555
H13 C10 1_555 1_555
H14 C10 1_555 1_555
H15 C10 1_555 1_555
C11 Ga3 1_555 1_555
H16 C11 1_555 1_555
H17 C11 1_555 1_555
H18 C11 1_555 1_555
C12 Ga3 1_555 1_555
H19 C12 1_555 1_555
H20 C12 1_555 1_555
H21 C12 1_555 1_555
Ga1C C3 1_555 1_555
Ga2C C3 1_555 1_555
Ga3A C5 1_555 1_555
C3C Ga1 1_555 1_555
C5A Ga3 1_555 1_555
Ga2 C3C 1_555 1_555
C5 C6 1_555 1_555
Ga3A C5A 1_555 1_555

#END
