
#######################################################################
#
#                 Cambridge Crystallographic Data Centre
#                                CCDC 
#
#######################################################################
#
# If this CIF has been generated from an entry in the Cambridge 
# Structural Database, then it will include bibliographic, chemical, 
# crystal, experimental, refinement or atomic coordinate data resulting 
# from the CCDC's data processing and validation procedures.
#
#######################################################################

data_HUGWIQ
_symmetry_cell_setting           triclinic
_symmetry_space_group_name_H-M   'P -1'
_symmetry_Int_Tables_number      2
_space_group_name_Hall           '-P 1'
loop_
_symmetry_equiv_pos_site_id
_symmetry_equiv_pos_as_xyz
1 x,y,z
2 -x,-y,-z
_cell_length_a                   12.684(3)
_cell_length_b                   24.602(5)
_cell_length_c                   25.044(5)
_cell_angle_alpha                105.80(3)
_cell_angle_beta                 100.97(3)
_cell_angle_gamma                93.75(3)
_cell_volume                     7325.29
loop_
_atom_site_label
_atom_site_type_symbol
_atom_site_fract_x
_atom_site_fract_y
_atom_site_fract_z
Pb1 Pb 0.69537(3) 0.306420(14) 0.811977(14)
Pb2 Pb 0.87861(3) 0.562157(14) 0.783735(15)
Pb3 Pb 0.88923(3) 0.751711(14) 0.638376(14)
Pb4 Pb 0.88508(3) 0.045140(14) 0.758240(15)
S1 S 0.7880(2) 0.45308(10) 0.86199(11)
S2 S 0.8990(2) 0.59882(10) 0.66095(11)
S3 S 0.9804(2) -0.10201(10) 0.68523(12)
S4 S 0.7037(2) 0.14058(9) 0.80177(11)
F1 F 0.7598(5) 0.4411(3) 0.9584(3)
F2 F 0.6876(6) 0.5113(3) 0.9366(3)
F3 F 0.8590(6) 0.5185(3) 0.9662(3)
F4 F 0.9506(6) 0.4971(2) 0.6236(3)
F5 F 0.9151(6) 0.5404(3) 0.5595(3)
F6 F 1.0658(6) 0.5632(3) 0.6206(3)
F7 F 1.1521(6) -0.1442(3) 0.6565(3)
F8 F 1.1032(7) -0.0763(3) 0.6204(4)
F9 F 1.1815(6) -0.0570(3) 0.7096(4)
F10 F 0.6064(5) 0.0570(2) 0.8267(3)
F11 F 0.5120(5) 0.1257(3) 0.8233(4)
F12 F 0.6427(6) 0.1356(3) 0.8946(3)
O1 O 0.6882(5) 0.4153(2) 0.8347(3)
O2 O 0.7970(5) 0.5028(2) 0.8416(3)
O3 O 0.8833(5) 0.4248(3) 0.8678(3)
O4 O 0.9662(5) 0.6051(3) 0.7166(3)
O5 O 0.9108(6) 0.6489(3) 0.6414(3)
O6 O 0.7905(5) 0.5730(3) 0.6525(3)
O7 O 0.9150(6) -0.1434(2) 0.6341(3)
O8 O 0.9483(6) -0.0452(2) 0.6945(3)
O9 O 0.9994(6) -0.1227(3) 0.7340(3)
O10 O 0.8069(5) 0.1236(3) 0.8250(3)
O11 O 0.7000(5) 0.2017(2) 0.8196(3)
O12 O 0.6615(6) 0.1116(3) 0.7423(3)
N1 N 0.5384(5) 0.2999(3) 0.8412(3)
N2 N 0.5816(5) 0.2718(3) 0.7243(3)
N3 N 0.9262(6) 0.6324(3) 0.8676(3)
N4 N 1.0427(5) 0.5375(3) 0.8155(3)
N5 N 0.9265(6) 0.7180(3) 0.5513(3)
N6 N 0.7139(6) 0.7216(3) 0.5898(3)
N7 N 1.0620(6) 0.0850(3) 0.7848(3)
N8 N 0.9368(6) 0.0106(3) 0.8335(3)
C1 C 0.7733(10) 0.4829(4) 0.9347(5)
C2 C 0.6182(8) 0.2842(4) 0.6770(4)
C3 C 0.5866(8) 0.3323(4) 0.6612(4)
C4 C 0.6243(8) 0.3434(4) 0.6155(4)
H1 H 0.6025 0.3749 0.6031
C5 C 0.6921(9) 0.3098(5) 0.5882(4)
H2 H 0.7171 0.3183 0.5576
C6 C 0.7232(8) 0.2633(4) 0.6060(4)
H3 H 0.7700 0.2403 0.5870
C7 C 0.6887(7) 0.2493(4) 0.6503(4)
C8 C 0.5146(8) 0.3705(4) 0.6922(5)
H4 H 0.5291 0.3680 0.7321
C9 C 0.3974(9) 0.3497(6) 0.6672(6)
H5 H 0.3532 0.3749 0.6884
H6 H 0.3815 0.3110 0.6695
H7 H 0.3805 0.3496 0.6273
C10 C 0.5398(12) 0.4332(5) 0.6958(6)
H8 H 0.5203 0.4380 0.6577
H9 H 0.6173 0.4455 0.7114
H10 H 0.4981 0.4562 0.7206
C11 C 0.7256(8) 0.1984(4) 0.6681(4)
H11 H 0.6780 0.1893 0.6929
C12 C 0.8421(8) 0.2113(4) 0.7024(4)
H12 H 0.8901 0.2212 0.6791
H13 H 0.8636 0.1777 0.7135
H14 H 0.8475 0.2433 0.7365
C13 C 0.7156(9) 0.1455(4) 0.6169(5)
H15 H 0.6435 0.1400 0.5922
H16 H 0.7264 0.1120 0.6303
H17 H 0.7707 0.1509 0.5955
C14 C 0.4937(7) 0.2342(4) 0.7151(4)
C15 C 0.4421(8) 0.1993(4) 0.6549(4)
H18 H 0.4307 0.2245 0.6306
H19 H 0.3724 0.1792 0.6543
H20 H 0.4898 0.1716 0.6408
C16 C 0.4462(7) 0.2244(4) 0.7584(4)
H21 H 0.3968 0.1905 0.7475
C17 C 0.4603(7) 0.2564(3) 0.8141(4)
C18 C 0.3813(7) 0.2408(4) 0.8474(4)
H22 H 0.4168 0.2210 0.8736
H23 H 0.3186 0.2158 0.8211
H24 H 0.3573 0.2755 0.8691
C19 C 0.5313(7) 0.3386(4) 0.8948(4)
C20 C 0.5784(8) 0.3293(4) 0.9465(4)
C21 C 0.5726(9) 0.3679(4) 0.9967(4)
H25 H 0.6051 0.3620 1.0318
C22 C 0.5187(9) 0.4160(4) 0.9964(5)
H26 H 0.5135 0.4424 1.0312
C23 C 0.4737(9) 0.4244(4) 0.9453(5)
H27 H 0.4370 0.4569 0.9455
C24 C 0.4796(7) 0.3873(4) 0.8935(4)
C25 C 0.6333(8) 0.2764(4) 0.9486(4)
H28 H 0.6138 0.2490 0.9095
C26 C 0.7562(9) 0.2911(5) 0.9639(4)
H29 H 0.7785 0.3168 1.0027
H30 H 0.7787 0.3099 0.9373
H31 H 0.7903 0.2562 0.9615
C27 C 0.5954(10) 0.2465(4) 0.9886(4)
H32 H 0.6199 0.2707 1.0279
H33 H 0.6257 0.2103 0.9845
H34 H 0.5162 0.2392 0.9792
C28 C 0.4255(8) 0.3974(4) 0.8384(4)
H35 H 0.4609 0.3757 0.8082
C29 C 0.3067(9) 0.3744(4) 0.8211(6)
H36 H 0.2988 0.3328 0.8121
H37 H 0.2729 0.3853 0.7876
H38 H 0.2712 0.3902 0.8525
C30 C 0.4396(9) 0.4605(4) 0.8390(5)
H39 H 0.4027 0.4829 0.8669
H40 H 0.4083 0.4635 0.8012
H41 H 0.5168 0.4749 0.8493
C31 C 0.9613(10) 0.5477(5) 0.6146(5)
C32 C 0.8792(8) 0.6851(4) 0.8734(4)
C33 C 0.9362(8) 0.7315(4) 0.8635(4)
C34 C 0.8913(9) 0.7824(4) 0.8723(4)
H42 H 0.9296 0.8143 0.8671
C35 C 0.7946(9) 0.7884(4) 0.8881(5)
H43 H 0.7673 0.8241 0.8945
C36 C 0.7366(10) 0.7416(5) 0.8946(5)
H44 H 0.6683 0.7456 0.9046
C37 C 0.7760(9) 0.6886(4) 0.8867(5)
C38 C 1.0424(7) 0.7265(4) 0.8449(4)
H45 H 1.0463 0.6850 0.8280
C39 C 1.1385(10) 0.7488(7) 0.8941(5)
H46 H 1.1377 0.7896 0.9114
H47 H 1.2054 0.7429 0.8803
H48 H 1.1349 0.7285 0.9224
C40 C 1.0492(9) 0.7557(5) 0.7984(5)
H49 H 0.9875 0.7399 0.7663
H50 H 1.1167 0.7491 0.7855
H51 H 1.0477 0.7967 0.8139
C41 C 0.7097(11) 0.6373(5) 0.8918(7)
H52 H 0.7594 0.6082 0.8963
C42 C 0.6605(14) 0.6525(7) 0.9428(9)
H53 H 0.7157 0.6746 0.9760
H54 H 0.6324 0.6176 0.9498
H55 H 0.6013 0.6751 0.9361
C43 C 0.6232(11) 0.6114(6) 0.8370(8)
H56 H 0.5888 0.5748 0.8377
H57 H 0.6572 0.6053 0.8041
H58 H 0.5685 0.6374 0.8340
C44 C 0.9803(7) 0.6218(4) 0.9140(4)
C45 C 0.9761(9) 0.6618(4) 0.9720(4)
H59 H 1.0088 0.7001 0.9755
H60 H 1.0161 0.6480 1.0021
H61 H 0.9006 0.6629 0.9755
C46 C 1.0416(7) 0.5774(4) 0.9150(4)
H62 H 1.0618 0.5705 0.9509
C47 C 1.0781(7) 0.5411(4) 0.8705(4)
C48 C 1.1604(9) 0.5031(4) 0.8866(4)
H63 H 1.1227 0.4678 0.8884
H64 H 1.2069 0.5229 0.9239
H65 H 1.2048 0.4942 0.8581
C49 C 1.1004(7) 0.5105(3) 0.7731(4)
C50 C 1.0649(8) 0.4533(4) 0.7396(4)
C51 C 1.1179(8) 0.4299(4) 0.6968(4)
H66 H 1.0937 0.3922 0.6730
C52 C 1.2047(8) 0.4602(4) 0.6880(4)
H67 H 1.2406 0.4427 0.6589
C53 C 1.2406(8) 0.5159(4) 0.7209(4)
H68 H 1.3000 0.5364 0.7139
C54 C 1.1893(7) 0.5419(4) 0.7645(3)
C55 C 0.9691(8) 0.4192(4) 0.7491(5)
H69 H 0.9465 0.4429 0.7833
C56 C 0.8728(9) 0.4066(5) 0.6991(5)
H70 H 0.8546 0.4423 0.6915
H71 H 0.8106 0.3880 0.7081
H72 H 0.8912 0.3814 0.6653
C57 C 1.0005(9) 0.3642(4) 0.7612(6)
H73 H 1.0196 0.3393 0.7276
H74 H 0.9393 0.3450 0.7705
H75 H 1.0628 0.3732 0.7934
C58 C 1.2266(8) 0.6025(4) 0.7992(4)
H76 H 1.1681 0.6164 0.8192
C59 C 1.3272(11) 0.6074(5) 0.8441(5)
H77 H 1.3101 0.5894 0.8724
H78 H 1.3543 0.6477 0.8627
H79 H 1.3826 0.5882 0.8264
C60 C 1.2479(12) 0.6423(5) 0.7646(5)
H80 H 1.3069 0.6305 0.7456
H81 H 1.2682 0.6812 0.7898
H82 H 1.1823 0.6408 0.7360
C61 C 1.1120(10) -0.0941(5) 0.6660(6)
C62 C 0.6317(7) 0.7482(4) 0.6146(4)
C63 C 0.5921(7) 0.7952(4) 0.5985(4)
C64 C 0.5101(8) 0.8205(4) 0.6225(5)
H83 H 0.4815 0.8514 0.6112
C65 C 0.4698(8) 0.8009(4) 0.6628(5)
H84 H 0.4154 0.8189 0.6798
C66 C 0.5105(9) 0.7544(4) 0.6778(5)
H85 H 0.4828 0.7411 0.7052
C67 C 0.5884(8) 0.7273(4) 0.6543(4)
C68 C 0.6371(10) 0.8188(4) 0.5558(4)
H86 H 0.7058 0.8024 0.5505
C69 C 0.5586(17) 0.8020(7) 0.4990(6)
H87 H 0.4849 0.8054 0.5049
H88 H 0.5637 0.7625 0.4786
H89 H 0.5763 0.8271 0.4768
C70 C 0.6614(11) 0.8824(5) 0.5748(6)
H90 H 0.5937 0.8993 0.5761
H91 H 0.6971 0.8948 0.5479
H92 H 0.7091 0.8947 0.6127
C71 C 0.6324(9) 0.6781(4) 0.6736(5)
H93 H 0.6717 0.6576 0.6447
C72 C 0.7156(9) 0.7003(4) 0.7313(4)
H94 H 0.7757 0.7249 0.7273
H95 H 0.7434 0.6679 0.7426
H96 H 0.6802 0.7219 0.7604
C73 C 0.5425(9) 0.6354(4) 0.6766(5)
H97 H 0.5039 0.6539 0.7057
H98 H 0.5740 0.6032 0.6865
H99 H 0.4918 0.6217 0.6396
C74 C 0.6896(8) 0.6766(4) 0.5424(4)
C75 C 0.5732(9) 0.6503(5) 0.5216(5)
H100 H 0.5516 0.6333 0.5496
H101 H 0.5652 0.6207 0.4853
H102 H 0.5272 0.6797 0.5163
C76 C 0.7642(9) 0.6510(4) 0.5123(4)
H103 H 0.7390 0.6138 0.4875
C77 C 0.8693(8) 0.6713(4) 0.5128(4)
C78 C 0.9212(11) 0.6373(5) 0.4677(5)
H104 H 0.9495 0.6624 0.4479
H105 H 0.8674 0.6073 0.4404
H106 H 0.9807 0.6201 0.4853
C79 C 1.0211(7) 0.7448(4) 0.5400(3)
C80 C 1.1242(8) 0.7304(4) 0.5597(4)
C81 C 1.2144(8) 0.7582(4) 0.5500(4)
H107 H 1.2841 0.7479 0.5617
C82 C 1.2042(9) 0.8004(4) 0.5236(4)
H108 H 1.2666 0.8206 0.5189
C83 C 1.1027(9) 0.8132(5) 0.5041(4)
H109 H 1.0957 0.8412 0.4843
C84 C 1.0106(9) 0.7864(4) 0.5126(4)
C85 C 1.1395(10) 0.6849(5) 0.5916(6)
H110 H 1.0676 0.6630 0.5874
C86 C 1.1858(11) 0.7154(8) 0.6545(8)
H111 H 1.1922 0.6873 0.6759
H112 H 1.1374 0.7425 0.6689
H113 H 1.2574 0.7358 0.6590
C87 C 1.2144(12) 0.6446(6) 0.5688(9)
H114 H 1.1852 0.6257 0.5283
H115 H 1.2216 0.6159 0.5894
H116 H 1.2856 0.6657 0.5738
C88 C 0.8996(10) 0.8009(6) 0.4905(6)
H117 H 0.8492 0.7907 0.5135
C89 C 0.8571(13) 0.7645(8) 0.4272(7)
H118 H 0.7888 0.7767 0.4117
H119 H 0.8453 0.7242 0.4253
H120 H 0.9107 0.7700 0.4050
C90 C 0.8972(12) 0.8619(7) 0.4936(7)
H121 H 0.9294 0.8855 0.5324
H122 H 0.8221 0.8691 0.4831
H123 H 0.9385 0.8714 0.4673
C91 C 0.6102(8) 0.1135(4) 0.8390(5)
C92 C 0.8587(8) 0.0001(4) 0.8648(4)
C93 C 0.8691(8) 0.0364(4) 0.9194(4)
C94 C 0.7951(9) 0.0262(4) 0.9516(5)
H124 H 0.8013 0.0505 0.9890
C95 C 0.7129(9) -0.0187(5) 0.9295(5)
H125 H 0.6645 -0.0262 0.9520
C96 C 0.7021(9) -0.0528(5) 0.8742(5)
H126 H 0.6444 -0.0831 0.8589
C97 C 0.7732(8) -0.0442(4) 0.8399(4)
C98 C 0.9562(8) 0.0882(4) 0.9446(4)
H127 H 0.9857 0.0951 0.9124
C99 C 1.0514(10) 0.0777(5) 0.9871(5)
H128 H 1.0809 0.0432 0.9689
H129 H 1.0262 0.0727 1.0203
H130 H 1.1079 0.1103 0.9991
C100 C 0.9135(10) 0.1425(5) 0.9729(6)
H131 H 0.8859 0.1377 1.0056
H132 H 0.8549 0.1506 0.9456
H133 H 0.9721 0.1741 0.9859
C101 C 0.7548(8) -0.0798(4) 0.7786(4)
H134 H 0.8191 -0.0702 0.7637
C102 C 0.7436(10) -0.1438(4) 0.7711(5)
H135 H 0.8117 -0.1540 0.7894
H136 H 0.7265 -0.1645 0.7305
H137 H 0.6853 -0.1540 0.7886
C103 C 0.6569(8) -0.0647(4) 0.7434(4)
H138 H 0.5919 -0.0749 0.7562
H139 H 0.6496 -0.0856 0.7033
H140 H 0.6656 -0.0237 0.7480
C104 C 1.0354(8) -0.0071(3) 0.8422(4)
C105 C 1.0478(8) -0.0536(4) 0.8728(4)
H141 H 1.0000 -0.0883 0.8496
H142 H 1.0283 -0.0403 0.9098
H143 H 1.1231 -0.0618 0.8783
C106 C 1.1241(8) 0.0116(4) 0.8258(4)
H144 H 1.1831 -0.0100 0.8294
C107 C 1.1420(7) 0.0578(4) 0.8043(4)
C108 C 1.2572(8) 0.0766(4) 0.8043(5)
H145 H 1.3055 0.0542 0.8226
H146 H 1.2760 0.1170 0.8253
H147 H 1.2654 0.0706 0.7651
C109 C 1.0854(7) 0.1344(3) 0.7668(4)
C110 C 1.1055(7) 0.1296(4) 0.7130(4)
C111 C 1.1290(7) 0.1783(4) 0.6980(4)
H148 H 1.1445 0.1753 0.6617
C112 C 1.1300(7) 0.2316(4) 0.7355(4)
H149 H 1.1478 0.2649 0.7251
C113 C 1.1056(7) 0.2364(4) 0.7876(4)
H150 H 1.1032 0.2732 0.8120
C114 C 1.0842(7) 0.1889(4) 0.8057(4)
C115 C 1.0968(9) 0.0714(4) 0.6688(4)
H151 H 1.0970 0.0418 0.6893
C116 C 0.9893(10) 0.0594(5) 0.6249(4)
H152 H 0.9844 0.0217 0.5977
H153 H 0.9860 0.0883 0.6045
H154 H 0.9290 0.0605 0.6443
C117 C 1.1935(10) 0.0664(5) 0.6404(5)
H155 H 1.1875 0.0279 0.6144
H156 H 1.2606 0.0736 0.6695
H157 H 1.1945 0.0943 0.6190
C118 C 1.0571(7) 0.1947(4) 0.8633(4)
H158 H 1.0113 0.1589 0.8602
C119 C 1.1596(9) 0.1998(5) 0.9084(4)
H159 H 1.1945 0.1651 0.8987
H160 H 1.1408 0.2049 0.9455
H161 H 1.2094 0.2327 0.9100
C120 C 0.9914(9) 0.2444(4) 0.8812(5)
H162 H 0.9738 0.2454 0.9179
H163 H 0.9244 0.2393 0.8524
H164 H 1.0343 0.2804 0.8848
Pb3_2 Pb 0.88923(3) -0.248289(14) 0.638376(14)
O7_2 O 0.9150(6) 0.8566(2) 0.6341(3)
loop_
_geom_bond_atom_site_label_1
_geom_bond_atom_site_label_2
_geom_bond_site_symmetry_1
_geom_bond_site_symmetry_2
Pb1 O1 1_555 1_555
Pb2 O2 1_555 1_555
Pb3 O5 1_555 1_555
Pb4 O8 1_555 1_555
S1 O1 1_555 1_555
S2 O4 1_555 1_555
S3 O7 1_555 1_555
S4 O10 1_555 1_555
F1 C1 1_555 1_555
F2 C1 1_555 1_555
F3 C1 1_555 1_555
F4 C31 1_555 1_555
F5 C31 1_555 1_555
F6 C31 1_555 1_555
F7 C61 1_555 1_555
F8 C61 1_555 1_555
F9 C61 1_555 1_555
F10 C91 1_555 1_555
F11 C91 1_555 1_555
F12 C91 1_555 1_555
O2 S1 1_555 1_555
O3 S1 1_555 1_555
O4 Pb2 1_555 1_555
O5 S2 1_555 1_555
O6 S2 1_555 1_555
O7 Pb3_2 1_555 1_555
O8 S3 1_555 1_555
O9 S3 1_555 1_555
O10 Pb4 1_555 1_555
O11 Pb1 1_555 1_555
O12 S4 1_555 1_555
N1 Pb1 1_555 1_555
N2 Pb1 1_555 1_555
N3 Pb2 1_555 1_555
N4 Pb2 1_555 1_555
N5 Pb3 1_555 1_555
N6 Pb3 1_555 1_555
N7 Pb4 1_555 1_555
N8 Pb4 1_555 1_555
C1 S1 1_555 1_555
C2 N2 1_555 1_555
C3 C2 1_555 1_555
C4 C3 1_555 1_555
H1 C4 1_555 1_555
C5 C4 1_555 1_555
H2 C5 1_555 1_555
C6 C5 1_555 1_555
H3 C6 1_555 1_555
C7 C2 1_555 1_555
C8 C3 1_555 1_555
H4 C8 1_555 1_555
C9 C8 1_555 1_555
H5 C9 1_555 1_555
H6 C9 1_555 1_555
H7 C9 1_555 1_555
C10 C8 1_555 1_555
H8 C10 1_555 1_555
H9 C10 1_555 1_555
H10 C10 1_555 1_555
C11 C7 1_555 1_555
H11 C11 1_555 1_555
C12 C11 1_555 1_555
H12 C12 1_555 1_555
H13 C12 1_555 1_555
H14 C12 1_555 1_555
C13 C11 1_555 1_555
H15 C13 1_555 1_555
H16 C13 1_555 1_555
H17 C13 1_555 1_555
C14 N2 1_555 1_555
C15 C14 1_555 1_555
H18 C15 1_555 1_555
H19 C15 1_555 1_555
H20 C15 1_555 1_555
C16 C14 1_555 1_555
H21 C16 1_555 1_555
C17 N1 1_555 1_555
C18 C17 1_555 1_555
H22 C18 1_555 1_555
H23 C18 1_555 1_555
H24 C18 1_555 1_555
C19 N1 1_555 1_555
C20 C19 1_555 1_555
C21 C20 1_555 1_555
H25 C21 1_555 1_555
C22 C21 1_555 1_555
H26 C22 1_555 1_555
C23 C22 1_555 1_555
H27 C23 1_555 1_555
C24 C19 1_555 1_555
C25 C20 1_555 1_555
H28 C25 1_555 1_555
C26 C25 1_555 1_555
H29 C26 1_555 1_555
H30 C26 1_555 1_555
H31 C26 1_555 1_555
C27 C25 1_555 1_555
H32 C27 1_555 1_555
H33 C27 1_555 1_555
H34 C27 1_555 1_555
C28 C24 1_555 1_555
H35 C28 1_555 1_555
C29 C28 1_555 1_555
H36 C29 1_555 1_555
H37 C29 1_555 1_555
H38 C29 1_555 1_555
C30 C28 1_555 1_555
H39 C30 1_555 1_555
H40 C30 1_555 1_555
H41 C30 1_555 1_555
C31 S2 1_555 1_555
C32 N3 1_555 1_555
C33 C32 1_555 1_555
C34 C33 1_555 1_555
H42 C34 1_555 1_555
C35 C34 1_555 1_555
H43 C35 1_555 1_555
C36 C35 1_555 1_555
H44 C36 1_555 1_555
C37 C32 1_555 1_555
C38 C33 1_555 1_555
H45 C38 1_555 1_555
C39 C38 1_555 1_555
H46 C39 1_555 1_555
H47 C39 1_555 1_555
H48 C39 1_555 1_555
C40 C38 1_555 1_555
H49 C40 1_555 1_555
H50 C40 1_555 1_555
H51 C40 1_555 1_555
C41 C37 1_555 1_555
H52 C41 1_555 1_555
C42 C41 1_555 1_555
H53 C42 1_555 1_555
H54 C42 1_555 1_555
H55 C42 1_555 1_555
C43 C41 1_555 1_555
H56 C43 1_555 1_555
H57 C43 1_555 1_555
H58 C43 1_555 1_555
C44 N3 1_555 1_555
C45 C44 1_555 1_555
H59 C45 1_555 1_555
H60 C45 1_555 1_555
H61 C45 1_555 1_555
C46 C44 1_555 1_555
H62 C46 1_555 1_555
C47 N4 1_555 1_555
C48 C47 1_555 1_555
H63 C48 1_555 1_555
H64 C48 1_555 1_555
H65 C48 1_555 1_555
C49 N4 1_555 1_555
C50 C49 1_555 1_555
C51 C50 1_555 1_555
H66 C51 1_555 1_555
C52 C51 1_555 1_555
H67 C52 1_555 1_555
C53 C52 1_555 1_555
H68 C53 1_555 1_555
C54 C49 1_555 1_555
C55 C50 1_555 1_555
H69 C55 1_555 1_555
C56 C55 1_555 1_555
H70 C56 1_555 1_555
H71 C56 1_555 1_555
H72 C56 1_555 1_555
C57 C55 1_555 1_555
H73 C57 1_555 1_555
H74 C57 1_555 1_555
H75 C57 1_555 1_555
C58 C54 1_555 1_555
H76 C58 1_555 1_555
C59 C58 1_555 1_555
H77 C59 1_555 1_555
H78 C59 1_555 1_555
H79 C59 1_555 1_555
C60 C58 1_555 1_555
H80 C60 1_555 1_555
H81 C60 1_555 1_555
H82 C60 1_555 1_555
C61 S3 1_555 1_555
C62 N6 1_555 1_555
C63 C62 1_555 1_555
C64 C63 1_555 1_555
H83 C64 1_555 1_555
C65 C64 1_555 1_555
H84 C65 1_555 1_555
C66 C65 1_555 1_555
H85 C66 1_555 1_555
C67 C62 1_555 1_555
C68 C63 1_555 1_555
H86 C68 1_555 1_555
C69 C68 1_555 1_555
H87 C69 1_555 1_555
H88 C69 1_555 1_555
H89 C69 1_555 1_555
C70 C68 1_555 1_555
H90 C70 1_555 1_555
H91 C70 1_555 1_555
H92 C70 1_555 1_555
C71 C67 1_555 1_555
H93 C71 1_555 1_555
C72 C71 1_555 1_555
H94 C72 1_555 1_555
H95 C72 1_555 1_555
H96 C72 1_555 1_555
C73 C71 1_555 1_555
H97 C73 1_555 1_555
H98 C73 1_555 1_555
H99 C73 1_555 1_555
C74 N6 1_555 1_555
C75 C74 1_555 1_555
H100 C75 1_555 1_555
H101 C75 1_555 1_555
H102 C75 1_555 1_555
C76 C74 1_555 1_555
H103 C76 1_555 1_555
C77 N5 1_555 1_555
C78 C77 1_555 1_555
H104 C78 1_555 1_555
H105 C78 1_555 1_555
H106 C78 1_555 1_555
C79 N5 1_555 1_555
C80 C79 1_555 1_555
C81 C80 1_555 1_555
H107 C81 1_555 1_555
C82 C81 1_555 1_555
H108 C82 1_555 1_555
C83 C82 1_555 1_555
H109 C83 1_555 1_555
C84 C79 1_555 1_555
C85 C80 1_555 1_555
H110 C85 1_555 1_555
C86 C85 1_555 1_555
H111 C86 1_555 1_555
H112 C86 1_555 1_555
H113 C86 1_555 1_555
C87 C85 1_555 1_555
H114 C87 1_555 1_555
H115 C87 1_555 1_555
H116 C87 1_555 1_555
C88 C84 1_555 1_555
H117 C88 1_555 1_555
C89 C88 1_555 1_555
H118 C89 1_555 1_555
H119 C89 1_555 1_555
H120 C89 1_555 1_555
C90 C88 1_555 1_555
H121 C90 1_555 1_555
H122 C90 1_555 1_555
H123 C90 1_555 1_555
C91 S4 1_555 1_555
C92 N8 1_555 1_555
C93 C92 1_555 1_555
C94 C93 1_555 1_555
H124 C94 1_555 1_555
C95 C94 1_555 1_555
H125 C95 1_555 1_555
C96 C95 1_555 1_555
H126 C96 1_555 1_555
C97 C92 1_555 1_555
C98 C93 1_555 1_555
H127 C98 1_555 1_555
C99 C98 1_555 1_555
H128 C99 1_555 1_555
H129 C99 1_555 1_555
H130 C99 1_555 1_555
C100 C98 1_555 1_555
H131 C100 1_555 1_555
H132 C100 1_555 1_555
H133 C100 1_555 1_555
C101 C97 1_555 1_555
H134 C101 1_555 1_555
C102 C101 1_555 1_555
H135 C102 1_555 1_555
H136 C102 1_555 1_555
H137 C102 1_555 1_555
C103 C101 1_555 1_555
H138 C103 1_555 1_555
H139 C103 1_555 1_555
H140 C103 1_555 1_555
C104 N8 1_555 1_555
C105 C104 1_555 1_555
H141 C105 1_555 1_555
H142 C105 1_555 1_555
H143 C105 1_555 1_555
C106 C104 1_555 1_555
H144 C106 1_555 1_555
C107 N7 1_555 1_555
C108 C107 1_555 1_555
H145 C108 1_555 1_555
H146 C108 1_555 1_555
H147 C108 1_555 1_555
C109 N7 1_555 1_555
C110 C109 1_555 1_555
C111 C110 1_555 1_555
H148 C111 1_555 1_555
C112 C111 1_555 1_555
H149 C112 1_555 1_555
C113 C112 1_555 1_555
H150 C113 1_555 1_555
C114 C109 1_555 1_555
C115 C110 1_555 1_555
H151 C115 1_555 1_555
C116 C115 1_555 1_555
H152 C116 1_555 1_555
H153 C116 1_555 1_555
H154 C116 1_555 1_555
C117 C115 1_555 1_555
H155 C117 1_555 1_555
H156 C117 1_555 1_555
H157 C117 1_555 1_555
C118 C114 1_555 1_555
H158 C118 1_555 1_555
C119 C118 1_555 1_555
H159 C119 1_555 1_555
H160 C119 1_555 1_555
H161 C119 1_555 1_555
C120 C118 1_555 1_555
H162 C120 1_555 1_555
H163 C120 1_555 1_555
H164 C120 1_555 1_555
O7_2 Pb3 1_555 1_555
S4 O11 1_555 1_555
C6 C7 1_555 1_555
C16 C17 1_555 1_555
C23 C24 1_555 1_555
C36 C37 1_555 1_555
C46 C47 1_555 1_555
C53 C54 1_555 1_555
C66 C67 1_555 1_555
C76 C77 1_555 1_555
C83 C84 1_555 1_555
C96 C97 1_555 1_555
C106 C107 1_555 1_555
C113 C114 1_555 1_555

#END
