
#######################################################################
#
#                 Cambridge Crystallographic Data Centre
#                                CCDC 
#
#######################################################################
#
# If this CIF has been generated from an entry in the Cambridge 
# Structural Database, then it will include bibliographic, chemical, 
# crystal, experimental, refinement or atomic coordinate data resulting 
# from the CCDC's data processing and validation procedures.
#
#######################################################################

data_HUGYOZ
_symmetry_cell_setting           triclinic
_symmetry_space_group_name_H-M   'P -1'
_symmetry_Int_Tables_number      2
_space_group_name_Hall           '-P 1'
loop_
_symmetry_equiv_pos_site_id
_symmetry_equiv_pos_as_xyz
1 x,y,z
2 -x,-y,-z
_cell_length_a                   10.4349(7)
_cell_length_b                   12.1652(8)
_cell_length_c                   12.8576(9)
_cell_angle_alpha                85.764(6)
_cell_angle_beta                 68.039(5)
_cell_angle_gamma                71.606(5)
_cell_volume                     1434.6
loop_
_atom_site_label
_atom_site_type_symbol
_atom_site_fract_x
_atom_site_fract_y
_atom_site_fract_z
Ag1 Ag 0.86621(3) 0.44532(2) 0.10510(2)
N1 N 0.0414(4) 1.2942(3) 0.1084(3)
N2 N 0.3711(4) 0.9911(3) 0.1164(3)
N3 N 0.6902(4) 0.5975(3) 0.1061(3)
N4 N 0.3577(4) 0.8971(3) 0.0965(3)
C1 C 0.1486(5) 1.2950(4) 0.1408(3)
H1 H 0.1492 1.3673 0.1636
C2 C 0.6868(4) 0.7015(4) 0.1378(3)
H2 H 0.7617 0.7047 0.1613
C3 C 0.5811(4) 0.8036(4) 0.1379(3)
H3 H 0.5822 0.8751 0.1621
C4 C 0.2564(4) 1.0908(4) 0.1110(3)
C5 C 0.0432(5) 1.1911(4) 0.0755(4)
H4 H -0.0316 1.1893 0.0510
C6 C 0.1470(5) 1.0887(4) 0.0754(3)
H5 H 0.1442 1.0177 0.0514
C7 C 0.5847(5) 0.5933(4) 0.0712(4)
H6 H 0.5858 0.5204 0.0484
C8 C 0.2591(5) 1.1963(4) 0.1430(3)
H7 H 0.3342 1.2006 0.1657
C9 C 0.4724(4) 0.7994(4) 0.1018(3)
C10 C 0.4745(5) 0.6925(4) 0.0676(4)
H8 H 0.4018 0.6875 0.0423
Ag1_2 Ag -0.13379(3) 1.44532(2) 0.10510(2)
N1_2 N 1.0414(4) 0.2942(3) 0.1084(3)
S1 S 0.06857(11) 0.61360(9) 0.20976(8)
O1 O 0.0103(3) 0.5999(3) 0.1277(3)
F1 F -0.1252(3) 0.8179(3) 0.2699(3)
F2 F 0.0721(3) 0.8187(2) 0.1337(2)
O2 O -0.0038(4) 0.5782(3) 0.3199(3)
F3 F 0.0687(4) 0.7977(3) 0.3018(3)
O3 O 0.2249(4) 0.5747(3) 0.1714(3)
C11 C 0.0184(5) 0.7701(4) 0.2296(4)
Ag2 Ag 0.79419(3) 0.43454(3) 0.39347(2)
N5 N -0.0417(4) 1.2771(3) 0.4008(3)
C12 C -0.0443(5) 1.1730(4) 0.3764(3)
H9 H -0.1214 1.1691 0.3560
N6 N 0.6206(4) 0.5879(3) 0.3953(3)
N7 N 0.2790(4) 0.8878(4) 0.3992(3)
N8 N 0.2938(5) 0.9809(4) 0.4157(3)
C13 C 0.0666(5) 1.2819(4) 0.4302(4)
H10 H 0.0667 1.3555 0.4502
C14 C 0.5029(5) 0.5842(4) 0.3781(4)
H11 H 0.4964 0.5111 0.3636
C15 C 0.1780(6) 1.1850(4) 0.4327(4)
H12 H 0.2561 1.1920 0.4500
C16 C 0.3990(5) 0.7895(4) 0.4030(3)
C17 C 0.0607(5) 1.0711(4) 0.3797(4)
H13 H 0.0561 0.9983 0.3621
C18 C 0.6278(5) 0.6910(4) 0.4181(4)
H14 H 0.7106 0.6935 0.4314
C19 C 0.3906(5) 0.6837(4) 0.3807(4)
H15 H 0.3089 0.6788 0.3672
C20 C 0.5191(5) 0.7943(4) 0.4231(4)
H16 H 0.5266 0.8663 0.4398
C21 C 0.1735(5) 1.0781(4) 0.4095(4)
Ag2_2 Ag -0.20581(3) 1.43454(3) 0.39347(2)
N5_2 N 0.9583(4) 0.2771(3) 0.4008(3)
O4 O 0.7733(4) 0.5198(3) 0.5869(3)
H17 H 0.8339 0.4864 0.6198
H18 H 0.7000 0.5732 0.6324
S2 S 0.38695(11) 0.72951(9) -0.23478(9)
F4 F 0.3723(4) 0.9275(3) -0.1581(3)
O5 O 0.3097(4) 0.7033(3) -0.1222(3)
F5 F 0.3926(4) 0.9269(3) -0.3298(3)
F6 F 0.1893(3) 0.9338(2) -0.1987(3)
O6 O 0.3402(4) 0.7018(3) -0.3184(3)
O7 O 0.5422(4) 0.6984(3) -0.2667(3)
C22 C 0.3329(5) 0.8873(4) -0.2302(4)
loop_
_geom_bond_atom_site_label_1
_geom_bond_atom_site_label_2
_geom_bond_site_symmetry_1
_geom_bond_site_symmetry_2
Ag1 N3 1_555 1_555
N1 C1 1_555 1_555
N2 N4 1_555 1_555
N3 C2 1_555 1_555
N4 C9 1_555 1_555
C1 H1 1_555 1_555
C2 H2 1_555 1_555
C3 C2 1_555 1_555
H3 C3 1_555 1_555
C4 N2 1_555 1_555
C5 N1 1_555 1_555
H4 C5 1_555 1_555
C6 C4 1_555 1_555
H5 C6 1_555 1_555
C7 N3 1_555 1_555
H6 C7 1_555 1_555
C8 C1 1_555 1_555
H7 C8 1_555 1_555
C9 C3 1_555 1_555
C10 C7 1_555 1_555
H8 C10 1_555 1_555
S1 O1 1_555 1_555
F1 C11 1_555 1_555
F2 C11 1_555 1_555
O2 S1 1_555 1_555
F3 C11 1_555 1_555
O3 S1 1_555 1_555
C11 S1 1_555 1_555
Ag2 N6 1_555 1_555
N5 C12 1_555 1_555
C12 H9 1_555 1_555
N6 C14 1_555 1_555
N7 N8 1_555 1_555
N8 C21 1_555 1_555
C13 N5 1_555 1_555
H10 C13 1_555 1_555
C14 H11 1_555 1_555
C15 C13 1_555 1_555
H12 C15 1_555 1_555
C16 N7 1_555 1_555
C17 C12 1_555 1_555
H13 C17 1_555 1_555
C18 N6 1_555 1_555
H14 C18 1_555 1_555
C19 C14 1_555 1_555
H15 C19 1_555 1_555
C20 C16 1_555 1_555
H16 C20 1_555 1_555
C21 C15 1_555 1_555
O4 H17 1_555 1_555
H18 O4 1_555 1_555
S2 O5 1_555 1_555
F4 C22 1_555 1_555
F5 C22 1_555 1_555
F6 C22 1_555 1_555
O6 S2 1_555 1_555
O7 S2 1_555 1_555
C22 S2 1_555 1_555
Ag1_2 N1 1_555 1_555
N1_2 Ag1 1_555 1_555
Ag2_2 N5 1_555 1_555
N5_2 Ag2 1_555 1_555
C4 C8 1_555 1_555
C5 C6 1_555 1_555
C9 C10 1_555 1_555
C16 C19 1_555 1_555
C17 C21 1_555 1_555
C18 C20 1_555 1_555

#END
