
#######################################################################
#
#                 Cambridge Crystallographic Data Centre
#                                CCDC 
#
#######################################################################
#
# If this CIF has been generated from an entry in the Cambridge 
# Structural Database, then it will include bibliographic, chemical, 
# crystal, experimental, refinement or atomic coordinate data resulting 
# from the CCDC's data processing and validation procedures.
#
#######################################################################

data_HUGYEN01
_symmetry_cell_setting           triclinic
_symmetry_space_group_name_H-M   'P -1'
_symmetry_Int_Tables_number      2
_space_group_name_Hall           '-P 1'
loop_
_symmetry_equiv_pos_site_id
_symmetry_equiv_pos_as_xyz
1 x,y,z
2 -x,-y,-z
_cell_length_a                   7.0774(9)
_cell_length_b                   9.6587(7)
_cell_length_c                   10.4432(13)
_cell_angle_alpha                93.624(10)
_cell_angle_beta                 109.603(9)
_cell_angle_gamma                91.358(10)
_cell_volume                     670.394
loop_
_atom_site_label
_atom_site_type_symbol
_atom_site_fract_x
_atom_site_fract_y
_atom_site_fract_z
Cu1 Cu 0.28020(7) 0.51253(5) 0.38668(5)
O1 O 0.1975(4) 0.6153(3) 0.5229(2)
O2 O 0.1298(4) 0.5807(3) 0.7111(3)
O3 O 0.3629(4) 0.3769(3) 0.5193(3)
O4 O 0.2899(8) 0.3188(5) 0.7029(5)
N1 N 0.2102(4) 0.6527(3) 0.2495(3)
N2 N 0.3227(4) 0.4002(3) 0.2328(3)
C1 C 0.1960(5) 0.5431(4) 0.6209(4)
C2 C 0.2824(5) 0.3979(4) 0.6179(4)
C3 C 0.1654(5) 0.7841(4) 0.2724(4)
H3 H 0.1481 0.8031 0.3535
C4 C 0.1371(6) 0.8787(4) 0.1755(4)
H4 H 0.1022 0.9726 0.1979
C5 C 0.1511(6) 0.8360(4) 0.0504(4)
H5 H 0.1290 0.8997 -0.0142
C6 C 0.1923(5) 0.7001(4) 0.0252(4)
H6 H 0.1979 0.6742 -0.0664
C7 C 0.2240(4) 0.6105(4) 0.1282(3)
C8 C 0.2802(5) 0.4654(3) 0.1166(3)
C9 C 0.2906(5) 0.3993(4) -0.0022(4)
H7 H 0.2603 0.4493 -0.0909
C10 C 0.3515(5) 0.2639(4) 0.0005(4)
H8 H 0.3550 0.2069 -0.0861
C11 C 0.3983(6) 0.1992(4) 0.1199(4)
H9 H 0.4399 0.1165 0.1291
C12 C 0.3821(5) 0.2696(4) 0.2345(4)
H10 H 0.3980 0.2220 0.3090
Cu1A Cu 0.71980(7) 0.48747(5) 0.61332(5)
O2A O -0.1298(4) 0.4193(3) 0.2889(3)
O3A O 0.6371(4) 0.6231(3) 0.4807(3)
Cu1A_2 Cu -0.28020(7) 0.48747(5) 0.61332(5)
O5 O 0.9738(7) 0.1354(4) 0.3203(4)
H11 H 1.0496 0.1046 0.3871
H12 H 0.9657 0.2338 0.3494
O6 O 0.3197(10) 0.0494(7) 0.7436(7)
H13 H 0.2094 -0.0242 0.7236
H14 H 0.3871 0.0497 0.6672
O7 O 0.3663(11) 0.0955(7) 0.4933(7)
H15 H 0.4389 0.0965 0.5674
H1? H 0.3834 0.3857 0.7068
H2? H 0.1823 0.3050 0.5989
O8? O 0.3040(14) 0.0384(8) 0.5688(10)
H16? H 0.3155 0.1133 0.6144
loop_
_geom_bond_atom_site_label_1
_geom_bond_atom_site_label_2
_geom_bond_site_symmetry_1
_geom_bond_site_symmetry_2
Cu1 O1 1_555 1_555
O1 C1 1_555 1_555
O2 C1 1_555 1_555
O3 Cu1 1_555 1_555
O4 C2 1_555 1_555
N1 Cu1 1_555 1_555
N2 Cu1 1_555 1_555
C1 C2 1_555 1_555
C2 O3 1_555 1_555
C3 N1 1_555 1_555
H3 C3 1_555 1_555
C4 C3 1_555 1_555
H4 C4 1_555 1_555
C5 C4 1_555 1_555
H5 C5 1_555 1_555
C6 C5 1_555 1_555
H6 C6 1_555 1_555
C7 N1 1_555 1_555
C8 N2 1_555 1_555
C9 C8 1_555 1_555
H7 C9 1_555 1_555
C10 C9 1_555 1_555
H8 C10 1_555 1_555
C11 C10 1_555 1_555
H9 C11 1_555 1_555
C12 N2 1_555 1_555
H10 C12 1_555 1_555
O5 H11 1_555 1_555
H12 O5 1_555 1_555
O6 H13 1_555 1_555
H14 O6 1_555 1_555
O7 H15 1_555 1_555
Cu1A O3 1_555 1_555
O2A Cu1 1_555 1_555
O3A Cu1 1_555 1_555
Cu1A_2 O2 1_555 1_555
C6 C7 1_555 1_555
C7 C8 1_555 1_555
C11 C12 1_555 1_555
Cu1A O3A 1_555 1_555

#END
