
#######################################################################
#
#                 Cambridge Crystallographic Data Centre
#                                CCDC 
#
#######################################################################
#
# If this CIF has been generated from an entry in the Cambridge 
# Structural Database, then it will include bibliographic, chemical, 
# crystal, experimental, refinement or atomic coordinate data resulting 
# from the CCDC's data processing and validation procedures.
#
#######################################################################

data_HUGYOZ01
_symmetry_cell_setting           triclinic
_symmetry_space_group_name_H-M   'P -1'
_symmetry_Int_Tables_number      2
_space_group_name_Hall           '-P 1'
loop_
_symmetry_equiv_pos_site_id
_symmetry_equiv_pos_as_xyz
1 x,y,z
2 -x,-y,-z
_cell_length_a                   10.617(4)
_cell_length_b                   12.048(5)
_cell_length_c                   13.167(6)
_cell_angle_alpha                85.528(14)
_cell_angle_beta                 68.594(10)
_cell_angle_gamma                71.399(12)
_cell_volume                     1484.73
loop_
_atom_site_label
_atom_site_type_symbol
_atom_site_fract_x
_atom_site_fract_y
_atom_site_fract_z
Ag1 Ag 0.86763(4) 0.44214(3) 0.10391(4)
N1 N 1.6918(4) -0.4042(3) 0.1056(3)
N2 N 1.3695(4) -0.0113(3) 0.1172(3)
N3 N 1.0438(4) 0.2893(3) 0.1057(3)
N4 N 1.3625(4) -0.1055(3) 0.0947(3)
C1 C 1.4761(5) -0.2041(4) 0.1008(4)
C2 C 1.2562(5) 0.0882(4) 0.1103(4)
C3 C 1.5820(5) -0.1988(4) 0.1357(4)
H1 H 1.5816 -0.1275 0.1584
C4 C 1.6871(5) -0.2993(4) 0.1364(4)
H2 H 1.7586 -0.2948 0.1593
C5 C 1.1500(5) 0.0835(4) 0.0754(4)
H3 H 1.1494 0.0124 0.0530
C6 C 1.2556(5) 0.1953(4) 0.1423(4)
H4 H 1.3264 0.2006 0.1655
C7 C 1.0462(5) 0.1850(4) 0.0746(4)
H5 H 0.9743 0.1818 0.0516
C8 C 1.1476(5) 0.2932(4) 0.1386(4)
H6 H 1.1464 0.3655 0.1599
C9 C 1.5901(5) -0.4094(4) 0.0718(4)
H7 H 1.5940 -0.4818 0.0486
C10 C 1.4792(5) -0.3125(4) 0.0696(4)
H8 H 1.4081 -0.3196 0.0478
Ag1_2 Ag 1.86763(4) -0.55786(3) 0.10391(4)
N1_2 N 0.6918(4) 0.5958(3) 0.1056(3)
Ag2 Ag 0.78411(4) 0.44419(3) 0.39524(4)
N5 N 1.2720(6) -0.1042(5) 0.3956(5)
N6 N 1.2785(6) -0.0090(4) 0.4160(5)
C11 C 1.5032(5) -0.1928(3) 0.4238(4)
H9 H 1.5062 -0.1200 0.4395
C12 C 1.6130(5) -0.2937(4) 0.4237(5)
H10 H 1.6895 -0.2884 0.4394
N7 N 1.6085(5) -0.4025(4) 0.4001(6)
C13 C 1.4941(6) -0.4105(3) 0.3766(6)
H11 H 1.4911 -0.4833 0.3609
C14 C 1.3843(5) -0.3096(4) 0.3767(5)
H12 H 1.3078 -0.3149 0.3610
C15 C 1.3888(5) -0.2008(3) 0.4003(4)
C16 C 1.1660(5) 0.1976(4) 0.4285(4)
H13 H 1.2402 0.2054 0.4460
C17 C 1.0569(6) 0.2967(3) 0.4235(5)
H14 H 1.0581 0.3707 0.4376
N8 N 0.9460(5) 0.2852(3) 0.3973(5)
C18 C 0.9442(5) 0.1746(4) 0.3761(5)
H15 H 0.8700 0.1669 0.3586
C19 C 1.0532(5) 0.0755(3) 0.3811(5)
H16 H 1.0520 0.0015 0.3670
C20 C 1.1641(4) 0.0870(3) 0.4073(4)
Ag2_2 Ag 1.78411(4) -0.55581(3) 0.39524(4)
N7_2 N 0.6085(5) 0.5975(4) 0.4001(6)
S1 S 1.38861(15) -0.27333(12) 0.76793(14)
O1 O 1.3104(6) -0.2950(4) 0.8769(4)
O2 O 1.3453(6) -0.3047(4) 0.6884(5)
F1 F 1.3732(7) -0.0719(4) 0.8342(5)
F2 F 1.2004(6) -0.0698(4) 0.7942(6)
O3 O 1.5367(5) -0.3049(5) 0.7412(6)
F3 F 1.3927(9) -0.0776(5) 0.6724(4)
C31 C 1.3395(6) -0.1158(5) 0.7656(6)
S2 S 1.05825(16) -0.38331(12) 0.21565(14)
F4 F 1.0703(7) -0.1826(4) 0.1379(4)
O4 O 1.0102(6) -0.4006(4) 0.1326(5)
O5 O 0.9855(7) -0.4171(5) 0.3196(5)
O6 O 1.2092(5) -0.4249(5) 0.1868(6)
F5 F 0.8764(6) -0.1788(4) 0.2611(6)
F6 F 1.0578(8) -0.1979(5) 0.2989(5)
C32 C 1.0123(7) -0.2285(5) 0.2292(5)
O7 O 1.2351(6) -0.5255(5) 0.4092(4)
H25 H 1.3138 -0.5679 0.3645
H26 H 1.1849 -0.4836 0.3742
C21? C 1.5534(16) -0.1902(11) 0.4212(14)
H17? H 1.5734 -0.1233 0.4322
C22? C 1.6553(13) -0.2996(14) 0.4094(16)
H18? H 1.7434 -0.3060 0.4126
N9? N 1.6254(16) -0.3996(11) 0.3930(18)
C23? C 1.4937(19) -0.3901(10) 0.3883(17)
H19? H 1.4737 -0.4569 0.3772
C24? C 1.3918(14) -0.2806(12) 0.4000(14)
H20? H 1.3037 -0.2742 0.3969
C25? C 1.4217(14) -0.1806(9) 0.4165(14)
N10? N 1.3250(15) -0.0627(16) 0.4268(13)
N11? N 1.2303(15) -0.0548(16) 0.3918(13)
C26? C 1.0276(18) 0.0788(11) 0.3615(14)
H21? H 1.0171 0.0152 0.3335
C27? C 0.9351(17) 0.1908(13) 0.3628(16)
H22? H 0.8627 0.2022 0.3355
N12? N 0.9507(17) 0.2859(9) 0.4047(16)
C28? C 1.0589(18) 0.2690(10) 0.4455(14)
H23? H 1.0693 0.3326 0.4736
C29? C 1.1514(14) 0.1570(12) 0.4443(12)
H24? H 1.2238 0.1457 0.4716
C30? C 1.1357(15) 0.0619(9) 0.4023(13)
loop_
_geom_bond_atom_site_label_1
_geom_bond_atom_site_label_2
_geom_bond_site_symmetry_1
_geom_bond_site_symmetry_2
Ag1 N3 1_555 1_555
N1 C4 1_555 1_555
N2 N4 1_555 1_555
N3 C7 1_555 1_555
N4 C1 1_555 1_555
C1 C3 1_555 1_555
C2 N2 1_555 1_555
C3 H1 1_555 1_555
C4 C3 1_555 1_555
H2 C4 1_555 1_555
C5 C2 1_555 1_555
H3 C5 1_555 1_555
C6 C2 1_555 1_555
H4 C6 1_555 1_555
C7 C5 1_555 1_555
H5 C7 1_555 1_555
C8 N3 1_555 1_555
H6 C8 1_555 1_555
C9 N1 1_555 1_555
H7 C9 1_555 1_555
C10 C1 1_555 1_555
H8 C10 1_555 1_555
Ag2 N8 1_555 1_555
N5 N6 1_555 1_555
N6 C20 1_555 1_555
C11 H9 1_555 1_555
C12 C11 1_555 1_555
H10 C12 1_555 1_555
N7 C12 1_555 1_555
C13 N7 1_555 1_555
H11 C13 1_555 1_555
C14 C13 1_555 1_555
H12 C14 1_555 1_555
C15 N5 1_555 1_555
C16 H13 1_555 1_555
C17 C16 1_555 1_555
H14 C17 1_555 1_555
N8 C17 1_555 1_555
C18 N8 1_555 1_555
H15 C18 1_555 1_555
C19 C18 1_555 1_555
H16 C19 1_555 1_555
C20 C16 1_555 1_555
S1 O1 1_555 1_555
O2 S1 1_555 1_555
F1 C31 1_555 1_555
F2 C31 1_555 1_555
O3 S1 1_555 1_555
F3 C31 1_555 1_555
C31 S1 1_555 1_555
S2 O4 1_555 1_555
F4 C32 1_555 1_555
O5 S2 1_555 1_555
O6 S2 1_555 1_555
F5 C32 1_555 1_555
F6 C32 1_555 1_555
C32 S2 1_555 1_555
O7 H25 1_555 1_555
H26 O7 1_555 1_555
Ag1_2 N1 1_555 1_555
N1_2 Ag1 1_555 1_555
Ag2_2 N7 1_555 1_555
N7_2 Ag2 1_555 1_555
C6 C8 1_555 1_555
C9 C10 1_555 1_555
C11 C15 1_555 1_555
C14 C15 1_555 1_555
C19 C20 1_555 1_555

#END
