
#######################################################################
#
#                 Cambridge Crystallographic Data Centre
#                                CCDC 
#
#######################################################################
#
# If this CIF has been generated from an entry in the Cambridge 
# Structural Database, then it will include bibliographic, chemical, 
# crystal, experimental, refinement or atomic coordinate data resulting 
# from the CCDC's data processing and validation procedures.
#
#######################################################################

data_HUHCOD01
_symmetry_cell_setting           monoclinic
_symmetry_space_group_name_H-M   'P 21/c'
_symmetry_Int_Tables_number      14
_space_group_name_Hall           '-P 2ybc'
loop_
_symmetry_equiv_pos_site_id
_symmetry_equiv_pos_as_xyz
1 x,y,z
2 -x,1/2+y,1/2-z
3 -x,-y,-z
4 x,1/2-y,1/2+z
_cell_length_a                   19.778(4)
_cell_length_b                   5.3988(11)
_cell_length_c                   9.2837(19)
_cell_angle_alpha                90
_cell_angle_beta                 97.13(3)
_cell_angle_gamma                90
_cell_volume                     983.624
loop_
_atom_site_label
_atom_site_type_symbol
_atom_site_fract_x
_atom_site_fract_y
_atom_site_fract_z
C1 C 0.06365(13) 0.6966(5) 0.2681(3)
C2 C 0.11446(12) 0.4957(5) 0.3240(3)
C3 C 0.17731(14) 0.6246(6) 0.4028(3)
C4 C 0.24061(13) 0.4727(5) 0.4219(3)
C5 C 0.25593(14) 0.2680(6) 0.3461(3)
C6 C 0.35222(14) 0.3582(5) 0.4891(3)
C7 C 0.41847(15) 0.3696(7) 0.5605(4)
C8 C 0.43405(16) 0.5585(7) 0.6563(4)
C9 C 0.38576(16) 0.7352(7) 0.6827(3)
C10 C 0.31984(14) 0.7265(6) 0.6129(3)
C11 C 0.30214(13) 0.5350(5) 0.5140(3)
Zn1 Zn 0.0000 0.5000 0.5000
H1 H 0.4509(16) 0.251(6) 0.536(3)
H2 H 0.4779(19) 0.569(7) 0.702(4)
H3 H 0.3975(16) 0.860(7) 0.746(4)
H4 H 0.2837(14) 0.848(6) 0.630(3)
H5 H 0.1881(17) 0.779(7) 0.345(4)
H6 H 0.1674(14) 0.683(6) 0.494(3)
H7 H 0.1254(13) 0.410(5) 0.246(3)
H8 H 0.1136(16) 0.268(6) 0.487(3)
H9 H 0.2275(15) 0.175(6) 0.272(3)
H10 H 0.3435(19) 0.077(7) 0.352(4)
N1 N 0.32288(13) 0.1982(5) 0.3867(3)
O1 O 0.07491(10) 0.8029(4) 0.1533(2)
N2 N 0.08398(12) 0.3233(4) 0.4207(3)
O2 O 0.01630(9) 0.7523(3) 0.34090(17)
H11 H 0.0668(19) 0.208(7) 0.379(4)
C1B C -0.06365(13) 0.3034(5) 0.7319(3)
C2B C -0.11446(12) 0.5043(5) 0.6760(3)
C3B C -0.17731(14) 0.3754(6) 0.5972(3)
C4B C -0.24061(13) 0.5273(5) 0.5781(3)
C5B C -0.25593(14) 0.7320(6) 0.6539(3)
C6B C -0.35222(14) 0.6418(5) 0.5109(3)
C7B C -0.41847(15) 0.6304(7) 0.4395(4)
C8B C -0.43405(16) 0.4415(7) 0.3437(4)
C9B C -0.38576(16) 0.2648(7) 0.3173(3)
C10B C -0.31984(14) 0.2735(6) 0.3871(3)
C11B C -0.30214(13) 0.4650(5) 0.4860(3)
Zn1A Zn 0.0000 0.0000 1.0000
Zn1A_2 Zn 0.0000 1.0000 0.0000
H1B H -0.4509(16) 0.749(6) 0.464(3)
H2B H -0.4779(19) 0.431(7) 0.298(4)
H3B H -0.3975(16) 0.140(7) 0.254(4)
H4B H -0.2837(14) 0.152(6) 0.370(3)
H5B H -0.1881(17) 0.221(7) 0.655(4)
H6B H -0.1674(14) 0.317(6) 0.506(3)
H7B H -0.1254(13) 0.590(5) 0.754(3)
H8B H -0.1136(16) 0.732(6) 0.513(3)
H9B H -0.2275(15) 0.825(6) 0.728(3)
H10B H -0.3435(19) 0.923(7) 0.648(4)
N1B N -0.32288(13) 0.8018(5) 0.6133(3)
O1B O -0.07491(10) 0.1971(4) 0.8467(2)
O1A O -0.07491(10) 0.3029(4) 0.3467(2)
O1C O 0.07491(10) 0.6971(4) 0.6533(2)
N2B N -0.08398(12) 0.6767(4) 0.5793(3)
O2B O -0.01630(9) 0.2477(3) 0.65910(17)
H11B H -0.0668(19) 0.792(7) 0.621(4)
loop_
_geom_bond_atom_site_label_1
_geom_bond_atom_site_label_2
_geom_bond_site_symmetry_1
_geom_bond_site_symmetry_2
C1 C2 1_555 1_555
C2 C3 1_555 1_555
C3 C4 1_555 1_555
C4 C5 1_555 1_555
C5 H9 1_555 1_555
C6 C7 1_555 1_555
C7 C8 1_555 1_555
C8 C9 1_555 1_555
C9 C10 1_555 1_555
C10 C11 1_555 1_555
C11 C4 1_555 1_555
Zn1 N2 1_555 1_555
H1 C7 1_555 1_555
H2 C8 1_555 1_555
H3 C9 1_555 1_555
H4 C10 1_555 1_555
H5 C3 1_555 1_555
H6 C3 1_555 1_555
H7 C2 1_555 1_555
H8 N2 1_555 1_555
H10 N1 1_555 1_555
N1 C5 1_555 1_555
O1 C1 1_555 1_555
N2 C2 1_555 1_555
O2 C1 1_555 1_555
H11 N2 1_555 1_555
C1B C2B 1_555 1_555
C2B C3B 1_555 1_555
C3B C4B 1_555 1_555
C4B C5B 1_555 1_555
C5B H9B 1_555 1_555
C6B C7B 1_555 1_555
C7B C8B 1_555 1_555
C8B C9B 1_555 1_555
C9B C10B 1_555 1_555
C10B C11B 1_555 1_555
C11B C4B 1_555 1_555
Zn1A O1B 1_555 1_555
Zn1A_2 O1 1_555 1_555
H1B C7B 1_555 1_555
H2B C8B 1_555 1_555
H3B C9B 1_555 1_555
H4B C10B 1_555 1_555
H5B C3B 1_555 1_555
H6B C3B 1_555 1_555
H7B C2B 1_555 1_555
H8B N2B 1_555 1_555
H10B N1B 1_555 1_555
N1B C5B 1_555 1_555
O1B C1B 1_555 1_555
O1A Zn1 1_555 1_555
O1C Zn1 1_555 1_555
N2B Zn1 1_555 1_555
O2B Zn1 1_555 1_555
H11B N2B 1_555 1_555
C6 C11 1_555 1_555
C6 N1 1_555 1_555
Zn1 O2 1_555 1_555
C1B O2B 1_555 1_555
C2B N2B 1_555 1_555
C6B C11B 1_555 1_555
C6B N1B 1_555 1_555

#END
