
#######################################################################
#
#                 Cambridge Crystallographic Data Centre
#                                CCDC 
#
#######################################################################
#
# If this CIF has been generated from an entry in the Cambridge 
# Structural Database, then it will include bibliographic, chemical, 
# crystal, experimental, refinement or atomic coordinate data resulting 
# from the CCDC's data processing and validation procedures.
#
#######################################################################

data_HUHCOD
_symmetry_cell_setting           monoclinic
_symmetry_space_group_name_H-M   'C 2'
_symmetry_Int_Tables_number      5
_space_group_name_Hall           'C 2y'
loop_
_symmetry_equiv_pos_site_id
_symmetry_equiv_pos_as_xyz
1 x,y,z
2 -x,y,-z
3 1/2+x,1/2+y,z
4 1/2-x,1/2+y,-z
_cell_length_a                   9.167(1)
_cell_length_b                   5.3320(6)
_cell_length_c                   19.525(2)
_cell_angle_alpha                90
_cell_angle_beta                 96.800(2)
_cell_angle_gamma                90
_cell_volume                     947.638
loop_
_atom_site_label
_atom_site_type_symbol
_atom_site_fract_x
_atom_site_fract_y
_atom_site_fract_z
Zn1 Zn 0.0000 0.5000 0.5000
N1 N 0.0773(10) 0.6755(17) 0.4163(4)
H1 H 0.0014 0.7168 0.3847
H2 H 0.1256 0.8169 0.4302
N2 N 0.1167(14) 0.806(3) 0.1811(6)
H3 H 0.1518 0.9380 0.1637
O1 O 0.3464(9) 0.1957(18) 0.4248(4)
O2 O 0.1588(8) 0.2483(15) 0.4837(4)
C1 C 0.2334(12) 0.300(2) 0.4364(5)
C2 C 0.1775(9) 0.5000 0.3853(4)
H4 H 0.2614 0.5950 0.3722
C3 C 0.0985(14) 0.374(3) 0.3219(6)
H5 H 0.1507 0.2200 0.3147
H6 H 0.0019 0.3265 0.3329
C4 C 0.1584(16) 0.725(3) 0.2440(6)
H7 H 0.2297 0.8018 0.2749
C5 C 0.0791(11) 0.5000 0.2595(5)
C6 C -0.0138(13) 0.5000 0.1968(5)
C7 C 0.0171(17) 0.665(3) 0.1483(6)
C8 C -0.0565(19) 0.670(4) 0.0829(7)
H8 H -0.0352 0.7900 0.0509
C9 C -0.1619(18) 0.5000 0.0674(6)
H9 H -0.2213 0.5000 0.0255
C10 C -0.185(2) 0.297(4) 0.1127(8)
H10 H -0.2507 0.1695 0.0981
C11 C -0.1085(17) 0.293(3) 0.1792(7)
H11 H -0.1194 0.1631 0.2099
Zn1B Zn 0.5000 0.0000 0.5000
Zn1B_2 Zn -0.5000 1.0000 0.5000
N1B N -0.4227(10) 1.1755(17) 0.4163(4)
N1A N -0.0773(10) 0.6755(17) 0.5837(4)
H1B H -0.4986 1.2168 0.3847
H1A H -0.0014 0.7168 0.6153
H2B H -0.3744 1.3169 0.4302
H2A H -0.1256 0.8169 0.5698
N2B N -0.3833(14) 1.306(3) 0.1811(6)
H3B H -0.3482 1.4380 0.1637
O1B O -0.1536(9) 0.6957(18) 0.4248(4)
O1C O 0.1536(9) 0.6957(18) 0.5752(4)
O2B O -0.3412(8) 0.7483(15) 0.4837(4)
O2A O -0.1588(8) 0.2483(15) 0.5163(4)
C1B C -0.2666(12) 0.800(2) 0.4364(5)
C2B C -0.3225(9) 1.0000 0.3853(4)
H4B H -0.2386 1.0950 0.3722
C3B C -0.4015(14) 0.874(3) 0.3219(6)
H5B H -0.3493 0.7200 0.3147
H6B H -0.4981 0.8265 0.3329
C4B C -0.3416(16) 1.225(3) 0.2440(6)
H7B H -0.2703 1.3018 0.2749
C5B C -0.4209(11) 1.0000 0.2595(5)
C6B C -0.5138(13) 1.0000 0.1968(5)
C7B C -0.4829(17) 1.165(3) 0.1483(6)
C8B C -0.5565(19) 1.170(4) 0.0829(7)
H8B H -0.5352 1.2900 0.0509
C9B C -0.6619(18) 1.0000 0.0674(6)
H9B H -0.7213 1.0000 0.0255
C10B C -0.685(2) 0.797(4) 0.1127(8)
H10B H -0.7507 0.6695 0.0981
C11B C -0.6085(17) 0.793(3) 0.1792(7)
H11B H -0.6194 0.6631 0.2099
loop_
_geom_bond_atom_site_label_1
_geom_bond_atom_site_label_2
_geom_bond_site_symmetry_1
_geom_bond_site_symmetry_2
Zn1 N1 1_555 1_555
N1 H1 1_555 1_555
H2 N1 1_555 1_555
N2 H3 1_555 1_555
O1 C1 1_555 1_555
O2 Zn1 1_555 1_555
C1 O2 1_555 1_555
C2 N1 1_555 1_555
H4 C2 1_555 1_555
C3 C2 1_555 1_555
H5 C3 1_555 1_555
H6 C3 1_555 1_555
C4 N2 1_555 1_555
H7 C4 1_555 1_555
C5 C3 1_555 1_555
C6 C5 1_555 1_555
C7 N2 1_555 1_555
C8 C7 1_555 1_555
H8 C8 1_555 1_555
C9 C8 1_555 1_555
H9 C9 1_555 1_555
C10 C9 1_555 1_555
H10 C10 1_555 1_555
C11 C6 1_555 1_555
H11 C11 1_555 1_555
Zn1B O1 1_555 1_555
Zn1B_2 N1B 1_555 1_555
N1B H1B 1_555 1_555
N1A Zn1 1_555 1_555
H1A N1A 1_555 1_555
H2B N1B 1_555 1_555
H2A N1A 1_555 1_555
N2B H3B 1_555 1_555
O1B Zn1 1_555 1_555
O1C Zn1 1_555 1_555
O2B Zn1B_2 1_555 1_555
O2A Zn1 1_555 1_555
C1B O1B 1_555 1_555
C2B N1B 1_555 1_555
H4B C2B 1_555 1_555
C3B C2B 1_555 1_555
H5B C3B 1_555 1_555
H6B C3B 1_555 1_555
C4B N2B 1_555 1_555
H7B C4B 1_555 1_555
C5B C3B 1_555 1_555
C6B C5B 1_555 1_555
C7B N2B 1_555 1_555
C8B C7B 1_555 1_555
H8B C8B 1_555 1_555
C9B C8B 1_555 1_555
H9B C9B 1_555 1_555
C10B C9B 1_555 1_555
H10B C10B 1_555 1_555
C11B C6B 1_555 1_555
H11B C11B 1_555 1_555
C1 C2 1_555 1_555
C4 C5 1_555 1_555
C6 C7 1_555 1_555
C10 C11 1_555 1_555
O2B C1B 1_555 1_555
C1B C2B 1_555 1_555
C4B C5B 1_555 1_555
C6B C7B 1_555 1_555
C10B C11B 1_555 1_555

#END
