
#######################################################################
#
#                 Cambridge Crystallographic Data Centre
#                                CCDC 
#
#######################################################################
#
# If this CIF has been generated from an entry in the Cambridge 
# Structural Database, then it will include bibliographic, chemical, 
# crystal, experimental, refinement or atomic coordinate data resulting 
# from the CCDC's data processing and validation procedures.
#
#######################################################################

data_HUHFOH
_symmetry_cell_setting           orthorhombic
_symmetry_space_group_name_H-M   'C 2 2 21'
_symmetry_Int_Tables_number      20
_space_group_name_Hall           'C 2n 2'
loop_
_symmetry_equiv_pos_site_id
_symmetry_equiv_pos_as_xyz
1 x,y,z
2 -x,-y,1/2+z
3 x,-y,-z
4 -x,y,1/2-z
5 1/2+x,1/2+y,z
6 1/2-x,1/2-y,1/2+z
7 1/2+x,1/2-y,-z
8 1/2-x,1/2+y,1/2-z
_cell_length_a                   11.3985(10)
_cell_length_b                   22.943(2)
_cell_length_c                   23.982(2)
_cell_angle_alpha                90
_cell_angle_beta                 90
_cell_angle_gamma                90
_cell_volume                     6271.67
loop_
_atom_site_label
_atom_site_type_symbol
_atom_site_fract_x
_atom_site_fract_y
_atom_site_fract_z
Ag1 Ag 0.5000 -0.03171(3) 0.7500
Ag2 Ag 0.24674(5) 0.00555(2) 0.80531(3)
Ag3 Ag 0.0000 0.04731(4) 0.7500
N1 N 0.3722(6) 0.0697(2) 0.7088(2)
N2 N 0.4503(6) -0.0384(3) 0.6649(3)
N3 N 0.2946(6) 0.0935(2) 0.8213(2)
N4 N 0.1338(6) -0.0525(2) 0.7048(2)
N5 N 0.1988(6) -0.0837(2) 0.8153(2)
N6 N 0.0535(6) 0.0579(3) 0.6666(3)
O1 O 0.3968(6) -0.0076(3) 0.5815(2)
O2 O 0.3499(6) 0.1856(2) 0.8072(2)
O3 O 0.1452(6) -0.1742(2) 0.7956(3)
O4 O 0.1268(6) 0.0363(3) 0.5837(2)
C1 C 0.3895(7) 0.0632(3) 0.6541(3)
C2 C 0.3830(9) 0.1071(4) 0.6166(3)
H1 H 0.3930 0.0996 0.5788
C3 C 0.3612(10) 0.1635(3) 0.6351(4)
H2 H 0.3574 0.1945 0.6102
C4 C 0.3455(9) 0.1720(3) 0.6914(3)
H3 H 0.3320 0.2091 0.7055
C5 C 0.3502(7) 0.1239(3) 0.7270(3)
C6 C 0.4153(6) 0.0032(3) 0.6348(3)
C7 C 0.4629(10) -0.0901(4) 0.6292(4)
H4 H 0.4083 -0.1204 0.6403
H5 H 0.5421 -0.1054 0.6310
C8 C 0.4354(11) -0.0682(4) 0.5721(4)
H6 H 0.5042 -0.0694 0.5484
H7 H 0.3735 -0.0911 0.5550
C9 C 0.3298(7) 0.1319(3) 0.7870(3)
C10 C 0.2919(9) 0.1217(3) 0.8766(3)
H8 H 0.3544 0.1069 0.9002
H9 H 0.2173 0.1148 0.8950
C11 C 0.3090(11) 0.1862(4) 0.8648(4)
H10 H 0.2359 0.2075 0.8684
H11 H 0.3671 0.2032 0.8895
C12 C 0.1516(7) -0.1083(3) 0.7181(3)
C13 C 0.1583(8) -0.1537(3) 0.6807(3)
H12 H 0.1684 -0.1918 0.6928
C14 C 0.1499(9) -0.1408(4) 0.6252(4)
H13 H 0.1580 -0.1699 0.5985
C15 C 0.1290(8) -0.0835(4) 0.6092(3)
H14 H 0.1196 -0.0737 0.5719
C16 C 0.1227(7) -0.0421(3) 0.6496(3)
C17 C 0.1656(7) -0.1186(3) 0.7791(3)
C18 C 0.1946(8) -0.1133(3) 0.8699(3)
H15 H 0.1313 -0.0982 0.8927
H16 H 0.2681 -0.1089 0.8898
C19 C 0.1729(10) -0.1776(4) 0.8541(4)
H17 H 0.2424 -0.2011 0.8604
H18 H 0.1081 -0.1939 0.8752
C20 C 0.0979(7) 0.0202(3) 0.6357(3)
C21 C 0.0506(10) 0.1136(4) 0.6335(4)
H19 H -0.0271 0.1308 0.6342
H20 H 0.1065 0.1416 0.6481
C22 C 0.0833(10) 0.0950(4) 0.5759(4)
H21 H 0.0156 0.0955 0.5514
H22 H 0.1436 0.1202 0.5605
Ag2C Ag -0.24674(5) 0.00555(2) 0.69469(3)
N1C N -0.3722(6) 0.0697(2) 0.7912(2)
N2C N -0.4503(6) -0.0384(3) 0.8351(3)
N3C N -0.2946(6) 0.0935(2) 0.6787(2)
N4C N -0.1338(6) -0.0525(2) 0.7952(2)
N5C N -0.1988(6) -0.0837(2) 0.6847(2)
N6C N -0.0535(6) 0.0579(3) 0.8334(3)
O1C O -0.3968(6) -0.0076(3) 0.9185(2)
O2C O -0.3499(6) 0.1856(2) 0.6928(2)
O3C O -0.1452(6) -0.1742(2) 0.7044(3)
O4C O -0.1268(6) 0.0363(3) 0.9163(2)
C1C C -0.3895(7) 0.0632(3) 0.8459(3)
C2C C -0.3830(9) 0.1071(4) 0.8834(3)
H1C H -0.3930 0.0996 0.9212
C3C C -0.3612(10) 0.1635(3) 0.8649(4)
H2C H -0.3574 0.1945 0.8898
C4C C -0.3455(9) 0.1720(3) 0.8086(3)
H3C H -0.3320 0.2091 0.7945
C5C C -0.3502(7) 0.1239(3) 0.7730(3)
C6C C -0.4153(6) 0.0032(3) 0.8652(3)
C7C C -0.4629(10) -0.0901(4) 0.8708(4)
H4C H -0.4083 -0.1204 0.8597
H5C H -0.5421 -0.1054 0.8690
C8C C -0.4354(11) -0.0682(4) 0.9279(4)
H6C H -0.5042 -0.0694 0.9516
H7C H -0.3735 -0.0911 0.9450
C9C C -0.3298(7) 0.1319(3) 0.7130(3)
C10C C -0.2919(9) 0.1217(3) 0.6234(3)
H8C H -0.3544 0.1069 0.5998
H9C H -0.2173 0.1148 0.6050
C11C C -0.3090(11) 0.1862(4) 0.6352(4)
H10C H -0.2359 0.2075 0.6316
H11C H -0.3671 0.2032 0.6105
C12C C -0.1516(7) -0.1083(3) 0.7819(3)
C13C C -0.1583(8) -0.1537(3) 0.8193(3)
H12C H -0.1684 -0.1918 0.8072
C14C C -0.1499(9) -0.1408(4) 0.8748(4)
H13C H -0.1580 -0.1699 0.9015
C15C C -0.1290(8) -0.0835(4) 0.8908(3)
H14C H -0.1196 -0.0737 0.9281
C16C C -0.1227(7) -0.0421(3) 0.8504(3)
C17C C -0.1656(7) -0.1186(3) 0.7209(3)
C18C C -0.1946(8) -0.1133(3) 0.6301(3)
H15C H -0.1313 -0.0982 0.6073
H16C H -0.2681 -0.1089 0.6102
C19C C -0.1729(10) -0.1776(4) 0.6459(4)
H17C H -0.2424 -0.2011 0.6396
H18C H -0.1081 -0.1939 0.6248
C20C C -0.0979(7) 0.0202(3) 0.8643(3)
C21C C -0.0506(10) 0.1136(4) 0.8665(4)
H19C H 0.0271 0.1308 0.8658
H20C H -0.1065 0.1416 0.8519
C22C C -0.0833(10) 0.0950(4) 0.9241(4)
H21C H -0.0156 0.0955 0.9486
H22C H -0.1436 0.1202 0.9395
Ag1_2 Ag -0.5000 -0.03171(3) 0.7500
N2C_2 N 0.5497(6) -0.0384(3) 0.8351(3)
Sb1 Sb 0.97861(7) 0.26177(3) 0.52048(2)
F1 F 1.0825(12) 0.2747(13) 0.5670(5)
F2 F 0.8748(11) 0.3014(5) 0.5598(7)
F3 F 1.0741(17) 0.2223(7) 0.4768(8)
F4 F 1.0329(15) 0.3245(5) 0.4811(5)
F5 F 0.9316(16) 0.2017(4) 0.5554(4)
F6 F 0.8756(18) 0.2459(13) 0.4673(6)
Sb2 Sb 0.21801(10) 1.0000 0.0000
F7 F 0.2203(11) 0.9210(3) -0.0018(2)
F8 F 0.1234(12) 0.9968(5) 0.0602(5)
F9 F 0.3261(13) 1.0018(5) 0.0569(5)
F7B F 0.2203(11) 1.0790(3) 0.0018(2)
F8B F 0.1234(12) 1.0032(5) -0.0602(5)
F9B F 0.3261(13) 0.9982(5) -0.0569(5)
Sb3 Sb 0.0000 0.26102(4) 0.7500
F10 F -0.0808(13) 0.1905(7) 0.7360(8)
F11 F 0.1032(13) 0.2703(9) 0.8053(6)
F12 F 0.0985(10) 0.2515(8) 0.6902(5)
F10C F 0.0808(13) 0.1905(7) 0.7640(8)
F11C F -0.1032(13) 0.2703(9) 0.6947(6)
F12C F -0.0985(10) 0.2515(8) 0.8098(5)
F13? F -0.0801(13) 0.3293(6) 0.7624(10)
loop_
_geom_bond_atom_site_label_1
_geom_bond_atom_site_label_2
_geom_bond_site_symmetry_1
_geom_bond_site_symmetry_2
Ag1 N2 1_555 1_555
Ag2 N3 1_555 1_555
Ag3 N6 1_555 1_555
N1 C1 1_555 1_555
N2 C6 1_555 1_555
N3 C9 1_555 1_555
N4 C12 1_555 1_555
N5 Ag2 1_555 1_555
N6 C20 1_555 1_555
O1 C6 1_555 1_555
O2 C9 1_555 1_555
O3 C17 1_555 1_555
O4 C20 1_555 1_555
C1 C2 1_555 1_555
C2 H1 1_555 1_555
C3 C2 1_555 1_555
H2 C3 1_555 1_555
C4 C3 1_555 1_555
H3 C4 1_555 1_555
C5 N1 1_555 1_555
C6 C1 1_555 1_555
C7 N2 1_555 1_555
H4 C7 1_555 1_555
H5 C7 1_555 1_555
C8 O1 1_555 1_555
H6 C8 1_555 1_555
H7 C8 1_555 1_555
C9 C5 1_555 1_555
C10 N3 1_555 1_555
H8 C10 1_555 1_555
H9 C10 1_555 1_555
C11 O2 1_555 1_555
H10 C11 1_555 1_555
H11 C11 1_555 1_555
C12 C13 1_555 1_555
C13 H12 1_555 1_555
C14 C13 1_555 1_555
H13 C14 1_555 1_555
C15 C14 1_555 1_555
H14 C15 1_555 1_555
C16 N4 1_555 1_555
C17 N5 1_555 1_555
C18 N5 1_555 1_555
H15 C18 1_555 1_555
H16 C18 1_555 1_555
C19 O3 1_555 1_555
H17 C19 1_555 1_555
H18 C19 1_555 1_555
C20 C16 1_555 1_555
C21 N6 1_555 1_555
H19 C21 1_555 1_555
H20 C21 1_555 1_555
C22 O4 1_555 1_555
H21 C22 1_555 1_555
H22 C22 1_555 1_555
Sb1 F1 1_555 1_555
F2 Sb1 1_555 1_555
F3 Sb1 1_555 1_555
F4 Sb1 1_555 1_555
F5 Sb1 1_555 1_555
F6 Sb1 1_555 1_555
Sb2 F7 1_555 1_555
F8 Sb2 1_555 1_555
F9 Sb2 1_555 1_555
Sb3 F10 1_555 1_555
F11 Sb3 1_555 1_555
F12 Sb3 1_555 1_555
Ag2C N3C 1_555 1_555
N1C C1C 1_555 1_555
N2C C6C 1_555 1_555
N3C C9C 1_555 1_555
N4C C12C 1_555 1_555
N5C Ag2C 1_555 1_555
N6C Ag3 1_555 1_555
O1C C6C 1_555 1_555
O2C C9C 1_555 1_555
O3C C17C 1_555 1_555
O4C C20C 1_555 1_555
C1C C2C 1_555 1_555
C2C H1C 1_555 1_555
C3C C2C 1_555 1_555
H2C C3C 1_555 1_555
C4C C3C 1_555 1_555
H3C C4C 1_555 1_555
C5C N1C 1_555 1_555
C6C C1C 1_555 1_555
C7C N2C 1_555 1_555
H4C C7C 1_555 1_555
H5C C7C 1_555 1_555
C8C O1C 1_555 1_555
H6C C8C 1_555 1_555
H7C C8C 1_555 1_555
C9C C5C 1_555 1_555
C10C N3C 1_555 1_555
H8C C10C 1_555 1_555
H9C C10C 1_555 1_555
C11C O2C 1_555 1_555
H10C C11C 1_555 1_555
H11C C11C 1_555 1_555
C12C C13C 1_555 1_555
C13C H12C 1_555 1_555
C14C C13C 1_555 1_555
H13C C14C 1_555 1_555
C15C C14C 1_555 1_555
H14C C15C 1_555 1_555
C16C N4C 1_555 1_555
C17C N5C 1_555 1_555
C18C N5C 1_555 1_555
H15C C18C 1_555 1_555
H16C C18C 1_555 1_555
C19C O3C 1_555 1_555
H17C C19C 1_555 1_555
H18C C19C 1_555 1_555
C20C N6C 1_555 1_555
C21C N6C 1_555 1_555
H19C C21C 1_555 1_555
H20C C21C 1_555 1_555
C22C O4C 1_555 1_555
H21C C22C 1_555 1_555
H22C C22C 1_555 1_555
Ag1_2 N2C 1_555 1_555
N2C_2 Ag1 1_555 1_555
F7B Sb2 1_555 1_555
F8B Sb2 1_555 1_555
F9B Sb2 1_555 1_555
F10C Sb3 1_555 1_555
F11C Sb3 1_555 1_555
F12C Sb3 1_555 1_555
C4 C5 1_555 1_555
C7 C8 1_555 1_555
C10 C11 1_555 1_555
C12 C17 1_555 1_555
C15 C16 1_555 1_555
C18 C19 1_555 1_555
C21 C22 1_555 1_555
C4C C5C 1_555 1_555
C7C C8C 1_555 1_555
C10C C11C 1_555 1_555
C12C C17C 1_555 1_555
C15C C16C 1_555 1_555
C16C C20C 1_555 1_555
C18C C19C 1_555 1_555
C21C C22C 1_555 1_555

#END
