
#######################################################################
#
#                 Cambridge Crystallographic Data Centre
#                                CCDC 
#
#######################################################################
#
# If this CIF has been generated from an entry in the Cambridge 
# Structural Database, then it will include bibliographic, chemical, 
# crystal, experimental, refinement or atomic coordinate data resulting 
# from the CCDC's data processing and validation procedures.
#
#######################################################################

data_HUHFIB
_symmetry_cell_setting           monoclinic
_symmetry_space_group_name_H-M   'P 2/c'
_symmetry_Int_Tables_number      13
_space_group_name_Hall           '-P 2yc'
loop_
_symmetry_equiv_pos_site_id
_symmetry_equiv_pos_as_xyz
1 x,y,z
2 -x,y,1/2-z
3 -x,-y,-z
4 x,-y,1/2+z
_cell_length_a                   14.9539(18)
_cell_length_b                   11.5320(14)
_cell_length_c                   20.406(2)
_cell_angle_alpha                90
_cell_angle_beta                 91.324(2)
_cell_angle_gamma                90
_cell_volume                     3518.04
loop_
_atom_site_label
_atom_site_type_symbol
_atom_site_fract_x
_atom_site_fract_y
_atom_site_fract_z
Ag1 Ag 0.09921(2) 0.36225(3) 0.784315(16)
Ag2 Ag 0.29932(3) 0.26155(3) 0.810141(17)
Ag3 Ag 0.5000 0.20758(5) 0.7500
N1 N 0.0000 0.1535(4) 0.7500
N2 N 0.0572(3) 0.2682(3) 0.86733(17)
N3 N 0.1403(3) 0.4615(3) 0.70408(18)
N4 N 0.2033(2) 0.2304(3) 0.68945(17)
N5 N 0.2598(3) 0.0857(3) 0.79396(18)
N6 N 0.3382(3) 0.4291(3) 0.84383(18)
N7 N 0.3941(2) 0.4097(3) 0.71137(17)
N8 N 0.4570(3) 0.2072(3) 0.64878(19)
O1 O 0.0201(2) 0.1068(3) 0.92176(16)
O2 O 0.1857(3) 0.4940(4) 0.60208(16)
O3 O 0.2224(2) -0.0667(3) 0.73145(17)
O4 O 0.3754(2) 0.6164(3) 0.83940(17)
O5 O 0.4121(3) 0.2850(3) 0.55367(16)
C1 C 0.0000 -0.0859(6) 0.7500
H1 H 0.0000 -0.1666 0.7500
C2 C 0.0128(3) -0.0259(4) 0.8076(2)
H2 H 0.0202 -0.0650 0.8472
C3 C 0.0143(3) 0.0944(4) 0.8054(2)
C4 C 0.0321(3) 0.1635(4) 0.8651(2)
C5 C 0.0655(4) 0.3012(5) 0.9377(2)
H3 H 0.0241 0.3628 0.9482
H4 H 0.1259 0.3262 0.9489
C6 C 0.0425(4) 0.1902(5) 0.9733(3)
H5 H 0.0931 0.1633 0.9997
H6 H -0.0080 0.2021 1.0016
C7 C 0.1889(3) 0.2978(5) 0.6375(2)
C8 C 0.1892(3) 0.2569(5) 0.5737(2)
H7 H 0.1810 0.3070 0.5384
C9 C 0.2018(4) 0.1394(6) 0.5642(3)
H8 H 0.2007 0.1089 0.5220
C10 C 0.2161(3) 0.0682(5) 0.6171(2)
H9 H 0.2249 -0.0110 0.6117
C11 C 0.2169(3) 0.1181(4) 0.6791(2)
C12 C 0.1698(3) 0.4207(5) 0.6511(2)
C13 C 0.1330(4) 0.5887(4) 0.6957(3)
H10 H 0.1753 0.6290 0.7243
H11 H 0.0730 0.6155 0.7047
C14 C 0.1550(5) 0.6072(6) 0.6242(3)
H12 H 0.1024 0.6318 0.5992
H13 H 0.2015 0.6651 0.6199
C15 C 0.2350(3) 0.0468(4) 0.7382(2)
C16 C 0.2679(4) -0.0143(4) 0.8384(3)
H14 H 0.2256 -0.0085 0.8736
H15 H 0.3279 -0.0197 0.8573
C17 C 0.2472(4) -0.1171(4) 0.7952(3)
H16 H 0.2991 -0.1670 0.7917
H17 H 0.1981 -0.1621 0.8124
C18 C 0.3829(3) 0.5141(4) 0.7391(2)
C19 C 0.3892(3) 0.6165(4) 0.7056(3)
H18 H 0.3843 0.6869 0.7274
C20 C 0.4030(4) 0.6143(5) 0.6392(3)
H19 H 0.4067 0.6826 0.6153
C21 C 0.4111(3) 0.5079(5) 0.6092(2)
H20 H 0.4177 0.5032 0.5641
C22 C 0.4093(3) 0.4086(4) 0.6467(2)
C23 C 0.3637(3) 0.5137(4) 0.8099(2)
C24 C 0.3273(4) 0.4722(5) 0.9113(2)
H21 H 0.3642 0.4283 0.9422
H22 H 0.2654 0.4670 0.9241
C25 C 0.3576(4) 0.5977(5) 0.9083(3)
H23 H 0.3111 0.6494 0.9230
H24 H 0.4112 0.6098 0.9351
C26 C 0.4268(3) 0.2934(4) 0.6181(2)
C27 C 0.4676(4) 0.1122(5) 0.6006(2)
H25 H 0.4316 0.0455 0.6120
H26 H 0.5296 0.0886 0.5980
C28 C 0.4345(4) 0.1666(5) 0.5369(3)
H27 H 0.4809 0.1648 0.5044
H28 H 0.3824 0.1258 0.5196
N2A N -0.0572(3) 0.2682(3) 0.63267(17)
O1A O -0.0201(2) 0.1068(3) 0.57824(16)
C2A C -0.0128(3) -0.0259(4) 0.6924(2)
H2A H -0.0202 -0.0650 0.6528
C3A C -0.0143(3) 0.0944(4) 0.6946(2)
C4A C -0.0321(3) 0.1635(4) 0.6349(2)
C5A C -0.0655(4) 0.3012(5) 0.5623(2)
H3A H -0.0241 0.3628 0.5518
H4A H -0.1259 0.3262 0.5511
C6A C -0.0425(4) 0.1902(5) 0.5267(3)
H5A H -0.0931 0.1633 0.5003
H6A H 0.0080 0.2021 0.4984
Ag1A Ag -0.09921(2) 0.36225(3) 0.715685(16)
Ag2A Ag -0.29932(3) 0.26155(3) 0.689859(17)
N3A N -0.1403(3) 0.4615(3) 0.79592(18)
N4A N -0.2033(2) 0.2304(3) 0.81055(17)
N5A N -0.2598(3) 0.0857(3) 0.70604(18)
N6A N -0.3382(3) 0.4291(3) 0.65617(18)
N7A N -0.3941(2) 0.4097(3) 0.78863(17)
N8A N -0.4570(3) 0.2072(3) 0.85122(19)
O2A O -0.1857(3) 0.4940(4) 0.89792(16)
O3A O -0.2224(2) -0.0667(3) 0.76855(17)
O4A O -0.3754(2) 0.6164(3) 0.66060(17)
O5A O -0.4121(3) 0.2850(3) 0.94633(16)
C7A C -0.1889(3) 0.2978(5) 0.8625(2)
C8A C -0.1892(3) 0.2569(5) 0.9263(2)
H7A H -0.1810 0.3070 0.9616
C9A C -0.2018(4) 0.1394(6) 0.9358(3)
H8A H -0.2007 0.1089 0.9780
C10A C -0.2161(3) 0.0682(5) 0.8829(2)
H9A H -0.2249 -0.0110 0.8883
C11A C -0.2169(3) 0.1181(4) 0.8209(2)
C12A C -0.1698(3) 0.4207(5) 0.8489(2)
C13A C -0.1330(4) 0.5887(4) 0.8043(3)
H10A H -0.1753 0.6290 0.7757
H11A H -0.0730 0.6155 0.7953
C14A C -0.1550(5) 0.6072(6) 0.8758(3)
H12A H -0.1024 0.6318 0.9008
H13A H -0.2015 0.6651 0.8801
C15A C -0.2350(3) 0.0468(4) 0.7618(2)
C16A C -0.2679(4) -0.0143(4) 0.6616(3)
H14A H -0.2256 -0.0085 0.6264
H15A H -0.3279 -0.0197 0.6427
C17A C -0.2472(4) -0.1171(4) 0.7048(3)
H16A H -0.2991 -0.1670 0.7083
H17A H -0.1981 -0.1621 0.6876
C18A C -0.3829(3) 0.5141(4) 0.7609(2)
C19A C -0.3892(3) 0.6165(4) 0.7944(3)
H18A H -0.3843 0.6869 0.7726
C20A C -0.4030(4) 0.6143(5) 0.8608(3)
H19A H -0.4067 0.6826 0.8847
C21A C -0.4111(3) 0.5079(5) 0.8908(2)
H20A H -0.4177 0.5032 0.9359
C22A C -0.4093(3) 0.4086(4) 0.8533(2)
C23A C -0.3637(3) 0.5137(4) 0.6901(2)
C24A C -0.3273(4) 0.4722(5) 0.5887(2)
H21A H -0.3642 0.4283 0.5578
H22A H -0.2654 0.4670 0.5759
C25A C -0.3576(4) 0.5977(5) 0.5917(3)
H23A H -0.3111 0.6494 0.5770
H24A H -0.4112 0.6098 0.5649
C26A C -0.4268(3) 0.2934(4) 0.8819(2)
C27A C -0.4676(4) 0.1122(5) 0.8994(2)
H25A H -0.4316 0.0455 0.8880
H26A H -0.5296 0.0886 0.9020
C28A C -0.4345(4) 0.1666(5) 0.9631(3)
H27A H -0.4809 0.1648 0.9956
H28A H -0.3824 0.1258 0.9804
Ag3_2 Ag -0.5000 0.20758(5) 0.7500
N8A_2 N 0.5430(3) 0.2072(3) 0.85122(19)
B1 B 0.3098(6) 0.8280(7) 0.4987(4)
F1 F 0.3446(6) 0.9341(5) 0.4959(4)
F2 F 0.2555(7) 0.8183(7) 0.5512(4)
F3 F 0.2614(6) 0.8044(6) 0.4423(3)
F4 F 0.3759(5) 0.7439(6) 0.5047(4)
B2 B 0.1018(5) 0.6600(7) 0.8906(4)
F9 F 0.0419(3) 0.7212(4) 0.8595(3)
F10 F 0.0739(4) 0.6016(4) 0.9407(2)
F11 F 0.1496(4) 0.5979(5) 0.8497(2)
F12 F 0.1610(3) 0.7414(4) 0.9188(2)
B3 B 0.5000 0.9084(9) 0.7500
F13 F 0.5156(4) 0.8422(4) 0.6972(3)
F14 F 0.4285(3) 0.9785(4) 0.7410(3)
F13A F 0.4844(4) 0.8422(4) 0.8028(3)
F14A F 0.5715(3) 0.9785(4) 0.7590(3)
F5? F 0.3709(10) 0.8660(17) 0.5455(8)
F6? F 0.2516(14) 0.9177(15) 0.4873(7)
F7? F 0.2652(12) 0.7463(18) 0.5250(10)
F8? F 0.3495(12) 0.7975(14) 0.4461(7)
loop_
_geom_bond_atom_site_label_1
_geom_bond_atom_site_label_2
_geom_bond_site_symmetry_1
_geom_bond_site_symmetry_2
Ag1 N2 1_555 1_555
Ag2 N5 1_555 1_555
Ag3 N8 1_555 1_555
N1 C3 1_555 1_555
N2 C4 1_555 1_555
N3 Ag1 1_555 1_555
N4 C7 1_555 1_555
N5 C15 1_555 1_555
N6 Ag2 1_555 1_555
N7 C18 1_555 1_555
N8 C26 1_555 1_555
O1 C4 1_555 1_555
O2 C12 1_555 1_555
O3 C15 1_555 1_555
O4 C23 1_555 1_555
O5 C26 1_555 1_555
C1 H1 1_555 1_555
C2 C1 1_555 1_555
H2 C2 1_555 1_555
C3 C2 1_555 1_555
C4 C3 1_555 1_555
C5 N2 1_555 1_555
H3 C5 1_555 1_555
H4 C5 1_555 1_555
C6 O1 1_555 1_555
H5 C6 1_555 1_555
H6 C6 1_555 1_555
C7 C8 1_555 1_555
C8 H7 1_555 1_555
C9 C8 1_555 1_555
H8 C9 1_555 1_555
C10 C9 1_555 1_555
H9 C10 1_555 1_555
C11 N4 1_555 1_555
C12 N3 1_555 1_555
C13 N3 1_555 1_555
H10 C13 1_555 1_555
H11 C13 1_555 1_555
C14 O2 1_555 1_555
H12 C14 1_555 1_555
H13 C14 1_555 1_555
C15 C11 1_555 1_555
C16 N5 1_555 1_555
H14 C16 1_555 1_555
H15 C16 1_555 1_555
C17 O3 1_555 1_555
H16 C17 1_555 1_555
H17 C17 1_555 1_555
C18 C19 1_555 1_555
C19 H18 1_555 1_555
C20 C19 1_555 1_555
H19 C20 1_555 1_555
C21 C20 1_555 1_555
H20 C21 1_555 1_555
C22 N7 1_555 1_555
C23 N6 1_555 1_555
C24 N6 1_555 1_555
H21 C24 1_555 1_555
H22 C24 1_555 1_555
C25 O4 1_555 1_555
H23 C25 1_555 1_555
H24 C25 1_555 1_555
C26 C22 1_555 1_555
C27 N8 1_555 1_555
H25 C27 1_555 1_555
H26 C27 1_555 1_555
C28 O5 1_555 1_555
H27 C28 1_555 1_555
H28 C28 1_555 1_555
B1 F1 1_555 1_555
F2 B1 1_555 1_555
F3 B1 1_555 1_555
F4 B1 1_555 1_555
B2 F9 1_555 1_555
F10 B2 1_555 1_555
F11 B2 1_555 1_555
F12 B2 1_555 1_555
B3 F13 1_555 1_555
F14 B3 1_555 1_555
N2A C4A 1_555 1_555
O1A C4A 1_555 1_555
C2A C1 1_555 1_555
H2A C2A 1_555 1_555
C3A N1 1_555 1_555
C4A C3A 1_555 1_555
C5A N2A 1_555 1_555
H3A C5A 1_555 1_555
H4A C5A 1_555 1_555
C6A O1A 1_555 1_555
H5A C6A 1_555 1_555
H6A C6A 1_555 1_555
Ag1A N2A 1_555 1_555
Ag2A N5A 1_555 1_555
N3A Ag1A 1_555 1_555
N4A C7A 1_555 1_555
N5A C15A 1_555 1_555
N6A Ag2A 1_555 1_555
N7A C18A 1_555 1_555
N8A C26A 1_555 1_555
O2A C12A 1_555 1_555
O3A C15A 1_555 1_555
O4A C23A 1_555 1_555
O5A C26A 1_555 1_555
C7A C8A 1_555 1_555
C8A H7A 1_555 1_555
C9A C8A 1_555 1_555
H8A C9A 1_555 1_555
C10A C9A 1_555 1_555
H9A C10A 1_555 1_555
C11A N4A 1_555 1_555
C12A N3A 1_555 1_555
C13A N3A 1_555 1_555
H10A C13A 1_555 1_555
H11A C13A 1_555 1_555
C14A O2A 1_555 1_555
H12A C14A 1_555 1_555
H13A C14A 1_555 1_555
C15A C11A 1_555 1_555
C16A N5A 1_555 1_555
H14A C16A 1_555 1_555
H15A C16A 1_555 1_555
C17A O3A 1_555 1_555
H16A C17A 1_555 1_555
H17A C17A 1_555 1_555
C18A C19A 1_555 1_555
C19A H18A 1_555 1_555
C20A C19A 1_555 1_555
H19A C20A 1_555 1_555
C21A C20A 1_555 1_555
H20A C21A 1_555 1_555
C22A N7A 1_555 1_555
C23A N6A 1_555 1_555
C24A N6A 1_555 1_555
H21A C24A 1_555 1_555
H22A C24A 1_555 1_555
C25A O4A 1_555 1_555
H23A C25A 1_555 1_555
H24A C25A 1_555 1_555
C26A C22A 1_555 1_555
C27A N8A 1_555 1_555
H25A C27A 1_555 1_555
H26A C27A 1_555 1_555
C28A O5A 1_555 1_555
H27A C28A 1_555 1_555
H28A C28A 1_555 1_555
Ag3_2 N8A 1_555 1_555
N8A_2 Ag3 1_555 1_555
F13A B3 1_555 1_555
F14A B3 1_555 1_555
C5 C6 1_555 1_555
C7 C12 1_555 1_555
C10 C11 1_555 1_555
C13 C14 1_555 1_555
C16 C17 1_555 1_555
C18 C23 1_555 1_555
C21 C22 1_555 1_555
C24 C25 1_555 1_555
C27 C28 1_555 1_555
C2A C3A 1_555 1_555
C5A C6A 1_555 1_555
C7A C12A 1_555 1_555
C10A C11A 1_555 1_555
C13A C14A 1_555 1_555
C16A C17A 1_555 1_555
C18A C23A 1_555 1_555
C21A C22A 1_555 1_555
C24A C25A 1_555 1_555
C27A C28A 1_555 1_555

#END
