
#######################################################################
#
#                 Cambridge Crystallographic Data Centre
#                                CCDC 
#
#######################################################################
#
# If this CIF has been generated from an entry in the Cambridge 
# Structural Database, then it will include bibliographic, chemical, 
# crystal, experimental, refinement or atomic coordinate data resulting 
# from the CCDC's data processing and validation procedures.
#
#######################################################################

data_HUHGIA
_symmetry_cell_setting           triclinic
_symmetry_space_group_name_H-M   'P -1'
_symmetry_Int_Tables_number      2
_space_group_name_Hall           '-P 1'
loop_
_symmetry_equiv_pos_site_id
_symmetry_equiv_pos_as_xyz
1 x,y,z
2 -x,-y,-z
_cell_length_a                   10.7244(10)
_cell_length_b                   12.0469(11)
_cell_length_c                   16.7829(15)
_cell_angle_alpha                76.801(11)
_cell_angle_beta                 75.115(10)
_cell_angle_gamma                65.637(10)
_cell_volume                     1890.38
loop_
_atom_site_label
_atom_site_type_symbol
_atom_site_fract_x
_atom_site_fract_y
_atom_site_fract_z
Au1 Au 0.00998(3) 0.58590(2) 0.744111(13)
Au2 Au 0.30840(3) 0.38238(2) 0.731777(14)
C1 C 0.0171(8) 0.6384(7) 0.6251(4)
N1 N 0.0176(6) 0.6741(5) 0.5561(3)
C2 C 0.0146(9) 0.7302(7) 0.4692(4)
C3 C 0.1390(12) 0.7655(11) 0.4395(5)
H1 H 0.1298 0.8287 0.4709
H2 H 0.1453 0.7979 0.3801
H3 H 0.2234 0.6929 0.4481
C4 C -0.1265(12) 0.8297(10) 0.4689(6)
H4 H -0.1979 0.7945 0.4935
H5 H -0.1366 0.8676 0.4115
H6 H -0.1377 0.8922 0.5015
C5 C 0.0288(11) 0.6320(9) 0.4207(5)
H7 H 0.1177 0.5628 0.4249
H8 H 0.0259 0.6668 0.3621
H9 H -0.0479 0.6031 0.4439
N2 N -0.0007(6) 0.5385(5) 0.8694(3)
C6 C 0.0759(7) 0.5744(6) 0.9064(4)
O1 O 0.1502(5) 0.6330(4) 0.8684(2)
C7 C 0.0470(7) 0.5293(6) 0.9949(3)
C8 C -0.0738(6) 0.4759(6) 0.9278(3)
C9 C -0.1597(7) 0.4233(6) 0.9072(4)
C10 C -0.1372(8) 0.3841(7) 0.8315(4)
H10 H -0.0657 0.3972 0.7882
C11 C -0.2145(8) 0.3270(7) 0.8173(4)
H11 H -0.1941 0.2973 0.7658
C12 C -0.3220(8) 0.3132(7) 0.8783(4)
C13 C -0.3495(8) 0.3509(7) 0.9535(4)
H12 H -0.4233 0.3393 0.9955
C14 C -0.2695(7) 0.4059(7) 0.9682(4)
H13 H -0.2889 0.4325 1.0207
Cl1 Cl -0.4220(3) 0.2415(2) 0.85973(13)
C15 C 0.2521(7) 0.2833(7) 0.8330(4)
N3 N 0.2303(6) 0.2188(5) 0.8899(3)
C16 C 0.2255(8) 0.1237(6) 0.9625(4)
C17 C 0.2638(9) 0.1598(8) 1.0317(4)
H14 H 0.3571 0.1625 1.0134
H15 H 0.2628 0.0990 1.0816
H16 H 0.1962 0.2410 1.0444
C18 C 0.0779(8) 0.1266(7) 0.9860(4)
H17 H 0.0146 0.2051 1.0056
H18 H 0.0736 0.0587 1.0304
H19 H 0.0502 0.1178 0.9372
C19 C 0.3314(9) 0.0035(7) 0.9360(5)
H20 H 0.3051 -0.0149 0.8901
H21 H 0.3349 -0.0624 0.9831
H22 H 0.4231 0.0094 0.9174
N4 N 0.3896(6) 0.4633(5) 0.6218(3)
C20 C 0.3771(7) 0.4294(6) 0.5512(4)
O2 O 0.2991(5) 0.3758(5) 0.5535(3)
C21 C 0.4686(7) 0.4721(6) 0.4821(4)
C22 C 0.4802(7) 0.5240(6) 0.6027(3)
C23 C 0.5116(7) 0.5744(6) 0.6628(4)
C24 C 0.6139(7) 0.6247(7) 0.6377(4)
H23 H 0.6643 0.6232 0.5821
C25 C 0.6428(8) 0.6761(7) 0.6918(4)
H24 H 0.7125 0.7104 0.6737
C26 C 0.5711(7) 0.6783(6) 0.7725(4)
C27 C 0.4698(9) 0.6307(7) 0.7985(4)
H25 H 0.4199 0.6328 0.8542
C28 C 0.4399(8) 0.5795(7) 0.7439(4)
H26 H 0.3686 0.5471 0.7623
Cl2 Cl 0.6115(2) 0.74161(18) 0.84143(11)
C7A C -0.0470(7) 0.4707(6) 1.0051(3)
C6A C -0.0759(7) 0.4256(6) 1.0936(4)
N2A N 0.0007(6) 0.4615(5) 1.1306(3)
C8A C 0.0738(6) 0.5241(6) 1.0722(3)
C9A C 0.1597(7) 0.5767(6) 1.0928(4)
C10A C 0.1372(8) 0.6159(7) 1.1685(4)
H10A H 0.0657 0.6028 1.2118
C11A C 0.2145(8) 0.6730(7) 1.1827(4)
H11A H 0.1941 0.7027 1.2342
C12A C 0.3220(8) 0.6868(7) 1.1217(4)
C13A C 0.3495(8) 0.6491(7) 1.0465(4)
H12A H 0.4233 0.6607 1.0045
C14A C 0.2695(7) 0.5941(7) 1.0318(4)
H13A H 0.2889 0.5675 0.9793
Cl1A Cl 0.4220(3) 0.7585(2) 1.14027(13)
O1A O -0.1502(5) 0.3670(4) 1.1316(2)
C21A C 0.5314(7) 0.5279(6) 0.5179(4)
C20A C 0.6229(7) 0.5706(6) 0.4488(4)
N4A N 0.6104(6) 0.5367(5) 0.3782(3)
C22A C 0.5198(7) 0.4760(6) 0.3973(3)
C23A C 0.4884(7) 0.4256(6) 0.3372(4)
C24A C 0.3861(7) 0.3753(7) 0.3623(4)
H23A H 0.3357 0.3768 0.4179
C25A C 0.3572(8) 0.3239(7) 0.3082(4)
H24A H 0.2875 0.2896 0.3263
C26A C 0.4289(7) 0.3217(6) 0.2275(4)
C27A C 0.5302(9) 0.3693(7) 0.2015(4)
H25A H 0.5801 0.3672 0.1458
C28A C 0.5601(8) 0.4205(7) 0.2561(4)
H26A H 0.6314 0.4529 0.2377
Cl2A Cl 0.3885(2) 0.25839(18) 0.15857(11)
O2A O 0.7009(5) 0.6242(5) 0.4465(3)
Au1A Au -0.00998(3) 0.41410(2) 1.255889(13)
C1A C -0.0171(8) 0.3616(7) 1.3749(4)
N1A N -0.0176(6) 0.3259(5) 1.4439(3)
C2A C -0.0146(9) 0.2698(7) 1.5308(4)
C3A C -0.1390(12) 0.2345(11) 1.5605(5)
H1A H -0.1298 0.1713 1.5291
H2A H -0.1453 0.2021 1.6199
H3A H -0.2234 0.3071 1.5519
C4A C 0.1265(12) 0.1703(10) 1.5311(6)
H4A H 0.1979 0.2055 1.5065
H5A H 0.1366 0.1324 1.5885
H6A H 0.1377 0.1078 1.4985
C5A C -0.0288(11) 0.3680(9) 1.5793(5)
H7A H -0.1177 0.4372 1.5751
H8A H -0.0259 0.3332 1.6379
H9A H 0.0479 0.3969 1.5561
Au2A Au 0.69160(3) 0.61762(2) 0.268223(14)
C15A C 0.7479(7) 0.7167(7) 0.1670(4)
N3A N 0.7697(6) 0.7812(5) 0.1101(3)
C16A C 0.7745(8) 0.8763(6) 0.0375(4)
C17A C 0.7362(9) 0.8402(8) -0.0317(4)
H14A H 0.6429 0.8375 -0.0134
H15A H 0.7372 0.9010 -0.0816
H16A H 0.8038 0.7590 -0.0444
C18A C 0.9221(8) 0.8734(7) 0.0140(4)
H17A H 0.9854 0.7949 -0.0056
H18A H 0.9264 0.9413 -0.0304
H19A H 0.9498 0.8822 0.0628
C19A C 0.6686(9) 0.9965(7) 0.0640(5)
H20A H 0.6949 1.0149 0.1099
H21A H 0.6651 1.0624 0.0169
H22A H 0.5769 0.9906 0.0826
Au2A_2 Au -0.30840(3) 0.61762(2) 1.268223(14)
Au1A_2 Au 0.99002(3) 0.41410(2) 0.255889(13)
C29 C 0.0788(11) 0.8723(9) 0.7452(5)
H28 H 0.1036 0.7971 0.7876
Cl3 Cl 0.1869(3) 0.8428(2) 0.64851(15)
Cl4 Cl -0.0929(4) 0.9211(3) 0.7347(2)
Cl6 Cl 0.0731(11) 0.9987(8) 0.7822(3)
C30 C 0.4894(10) 0.1107(9) 0.6300(5)
H30 H 0.4050 0.1885 0.6326
Cl10 Cl 0.521(3) 0.028(3) 0.7274(16)
Cl11 Cl 0.628(3) 0.130(2) 0.5775(17)
Cl12 Cl 0.473(3) -0.008(3) 0.583(2)
H27? H 0.0993 0.7902 0.7807
Cl5? Cl 0.1449(16) 0.9513(12) 0.7866(4)
H29? H 0.4143 0.1945 0.6320
Cl7? Cl 0.4102(5) 0.0079(4) 0.6658(3)
Cl8? Cl 0.5765(5) 0.1042(4) 0.5260(3)
Cl9? Cl 0.5984(5) 0.0967(5) 0.6943(3)
loop_
_geom_bond_atom_site_label_1
_geom_bond_atom_site_label_2
_geom_bond_site_symmetry_1
_geom_bond_site_symmetry_2
Au1 Au2 1_555 1_555
Au2 C15 1_555 1_555
C1 Au1 1_555 1_555
N1 C1 1_555 1_555
C2 N1 1_555 1_555
C3 C2 1_555 1_555
H1 C3 1_555 1_555
H2 C3 1_555 1_555
H3 C3 1_555 1_555
C4 C2 1_555 1_555
H4 C4 1_555 1_555
H5 C4 1_555 1_555
H6 C4 1_555 1_555
C5 C2 1_555 1_555
H7 C5 1_555 1_555
H8 C5 1_555 1_555
H9 C5 1_555 1_555
N2 Au1 1_555 1_555
C6 N2 1_555 1_555
O1 C6 1_555 1_555
C7 C6 1_555 1_555
C8 N2 1_555 1_555
C9 C8 1_555 1_555
C10 C9 1_555 1_555
H10 C10 1_555 1_555
C11 C10 1_555 1_555
H11 C11 1_555 1_555
C12 C11 1_555 1_555
C13 C12 1_555 1_555
H12 C13 1_555 1_555
C14 C9 1_555 1_555
H13 C14 1_555 1_555
Cl1 C12 1_555 1_555
C15 N3 1_555 1_555
N3 C16 1_555 1_555
C16 C17 1_555 1_555
C17 H14 1_555 1_555
H15 C17 1_555 1_555
H16 C17 1_555 1_555
C18 C16 1_555 1_555
H17 C18 1_555 1_555
H18 C18 1_555 1_555
H19 C18 1_555 1_555
C19 C16 1_555 1_555
H20 C19 1_555 1_555
H21 C19 1_555 1_555
H22 C19 1_555 1_555
N4 Au2 1_555 1_555
C20 N4 1_555 1_555
O2 C20 1_555 1_555
C21 C20 1_555 1_555
C22 N4 1_555 1_555
C23 C22 1_555 1_555
C24 C23 1_555 1_555
H23 C24 1_555 1_555
C25 C24 1_555 1_555
H24 C25 1_555 1_555
C26 C25 1_555 1_555
C27 C26 1_555 1_555
H25 C27 1_555 1_555
C28 C23 1_555 1_555
H26 C28 1_555 1_555
Cl2 C26 1_555 1_555
C29 H28 1_555 1_555
Cl3 C29 1_555 1_555
Cl4 C29 1_555 1_555
Cl6 C29 1_555 1_555
C30 H30 1_555 1_555
Cl10 C30 1_555 1_555
Cl11 C30 1_555 1_555
Cl12 C30 1_555 1_555
C7A C7 1_555 1_555
C6A C7A 1_555 1_555
N2A C6A 1_555 1_555
C8A C7 1_555 1_555
C9A C8A 1_555 1_555
C10A C9A 1_555 1_555
H10A C10A 1_555 1_555
C11A C10A 1_555 1_555
H11A C11A 1_555 1_555
C12A C11A 1_555 1_555
C13A C12A 1_555 1_555
H12A C13A 1_555 1_555
C14A C9A 1_555 1_555
H13A C14A 1_555 1_555
Cl1A C12A 1_555 1_555
O1A C6A 1_555 1_555
C21A C21 1_555 1_555
C20A C21A 1_555 1_555
N4A C20A 1_555 1_555
C22A C21 1_555 1_555
C23A C22A 1_555 1_555
C24A C23A 1_555 1_555
H23A C24A 1_555 1_555
C25A C24A 1_555 1_555
H24A C25A 1_555 1_555
C26A C25A 1_555 1_555
C27A C26A 1_555 1_555
H25A C27A 1_555 1_555
C28A C23A 1_555 1_555
H26A C28A 1_555 1_555
Cl2A C26A 1_555 1_555
O2A C20A 1_555 1_555
Au1A N2A 1_555 1_555
C1A Au1A 1_555 1_555
N1A C1A 1_555 1_555
C2A N1A 1_555 1_555
C3A C2A 1_555 1_555
H1A C3A 1_555 1_555
H2A C3A 1_555 1_555
H3A C3A 1_555 1_555
C4A C2A 1_555 1_555
H4A C4A 1_555 1_555
H5A C4A 1_555 1_555
H6A C4A 1_555 1_555
C5A C2A 1_555 1_555
H7A C5A 1_555 1_555
H8A C5A 1_555 1_555
H9A C5A 1_555 1_555
Au2A N4A 1_555 1_555
C15A Au2A 1_555 1_555
N3A C15A 1_555 1_555
C16A N3A 1_555 1_555
C17A C16A 1_555 1_555
H14A C17A 1_555 1_555
H15A C17A 1_555 1_555
H16A C17A 1_555 1_555
C18A C16A 1_555 1_555
H17A C18A 1_555 1_555
H18A C18A 1_555 1_555
H19A C18A 1_555 1_555
C19A C16A 1_555 1_555
H20A C19A 1_555 1_555
H21A C19A 1_555 1_555
H22A C19A 1_555 1_555
Au2A_2 Au1A 1_555 1_555
Au1A_2 Au2A 1_555 1_555
C8 C7A 1_555 1_555
C13 C14 1_555 1_555
C22 C21A 1_555 1_555
C27 C28 1_555 1_555
N2A C8A 1_555 1_555
C13A C14A 1_555 1_555
N4A C22A 1_555 1_555
C27A C28A 1_555 1_555

#END
