
#######################################################################
#
#                 Cambridge Crystallographic Data Centre
#                                CCDC 
#
#######################################################################
#
# If this CIF has been generated from an entry in the Cambridge 
# Structural Database, then it will include bibliographic, chemical, 
# crystal, experimental, refinement or atomic coordinate data resulting 
# from the CCDC's data processing and validation procedures.
#
#######################################################################

data_HUHHUO
_symmetry_cell_setting           orthorhombic
_symmetry_space_group_name_H-M   'I m a 2'
_symmetry_Int_Tables_number      46
_space_group_name_Hall           'I 2 -2a'
loop_
_symmetry_equiv_pos_site_id
_symmetry_equiv_pos_as_xyz
1 x,y,z
2 -x,-y,z
3 1/2+x,-y,z
4 1/2-x,y,z
5 1/2+x,1/2+y,1/2+z
6 1/2-x,1/2-y,1/2+z
7 x,1/2-y,1/2+z
8 -x,1/2+y,1/2+z
_cell_length_a                   20.501(4)
_cell_length_b                   9.790(2)
_cell_length_c                   7.8907(16)
_cell_angle_alpha                90
_cell_angle_beta                 90
_cell_angle_gamma                90
_cell_volume                     1583.7
loop_
_atom_site_label
_atom_site_type_symbol
_atom_site_fract_x
_atom_site_fract_y
_atom_site_fract_z
O3 O 0.34968(13) 0.7491(9) 0.8719(19)
H13 H 0.378(2) 0.785(8) 0.937(6)
H14 H 0.366(3) 0.732(8) 0.775(4)
O4 O 0.43329(12) 0.8414(3) 0.117(2)
H15 H 0.429(2) 0.924(3) 0.088(9)
H16 H 0.4723(12) 0.821(5) 0.142(11)
Zn1 Zn -0.2500 0.59053(5) 0.1192(6)
N1 N -0.1698(7) 0.7097(16) 0.1168(13)
N2 N -0.1692(7) 0.8429(15) 0.1606(19)
N3 N -0.1068(8) 0.8865(14) 0.157(2)
C1 C -0.1078(8) 0.6710(15) 0.0862(7)
C2 C -0.0861(7) 0.5324(18) 0.0319(16)
H2 H -0.1037 0.4685 0.1121
C3 C -0.0124(7) 0.508(3) 0.028(3)
C4 C 0.0145(6) 0.494(3) 0.208(3)
N8 N -0.0691(8) 0.7788(17) 0.1264(17)
O1 O -0.2500 0.4671(17) 0.3285(17)
H9 H -0.2500 0.526(12) 0.409(14)
H10 H -0.207(6) 0.426(11) 0.326(18)
O2 O -0.2500 0.4715(6) -0.0898(8)
H11 H -0.282(2) 0.410(7) -0.095(7)
H12 H -0.2500 0.515(6) -0.184(5)
Zn1A Zn 0.2500 0.40947(5) 0.1192(6)
N1A N 0.1698(7) 0.2903(16) 0.1168(13)
N1C N -0.3302(7) 0.7097(16) 0.1168(13)
N2A N 0.1692(7) 0.1571(15) 0.1606(19)
N3A N 0.1068(8) 0.1135(14) 0.157(2)
C1A C 0.1078(8) 0.3290(15) 0.0862(7)
C2A C 0.0861(7) 0.4676(18) 0.0319(16)
H2A H 0.1037 0.5315 0.1121
C3A C 0.0124(7) 0.492(3) 0.028(3)
C4A C -0.0145(6) 0.506(3) 0.208(3)
N8A N 0.0691(8) 0.2212(17) 0.1264(17)
H10C H -0.293(6) 0.426(11) 0.326(18)
H11C H -0.218(2) 0.410(7) -0.095(7)
N4? N -0.0689(8) 0.7803(17) 0.1110(18)
H1? H -0.1057 0.5140 -0.0762
H3? H 0.0076 0.5848 -0.0263
H4? H -0.0028 0.4273 -0.0366
H5? H -0.0074 0.4185 0.2615
H6? H 0.0040 0.5748 0.2707
C5? C 0.0886(7) 0.4691(17) 0.2128(15)
H7? H 0.1023 0.4829 0.3279
H8? H 0.1100 0.5365 0.1443
C6? C 0.1070(8) 0.3289(15) 0.1556(6)
N5? N 0.1684(7) 0.2923(16) 0.1253(13)
N6? N -0.1684(7) 0.8380(15) 0.0775(19)
N7? N -0.1070(8) 0.8819(14) 0.078(2)
loop_
_geom_bond_atom_site_label_1
_geom_bond_atom_site_label_2
_geom_bond_site_symmetry_1
_geom_bond_site_symmetry_2
Zn1 N1 1_555 1_555
N1 N2 1_555 1_555
N2 N3 1_555 1_555
N3 N8 1_555 1_555
C1 N1 1_555 1_555
C2 C1 1_555 1_555
H2 C2 1_555 1_555
C3 C2 1_555 1_555
C4 C3 1_555 1_555
N8 C1 1_555 1_555
O1 Zn1 1_555 1_555
H9 O1 1_555 1_555
H10 O1 1_555 1_555
O2 Zn1 1_555 1_555
H11 O2 1_555 1_555
H12 O2 1_555 1_555
O3 H13 1_555 1_555
H14 O3 1_555 1_555
O4 H15 1_555 1_555
H16 O4 1_555 1_555
Zn1A N1A 1_555 1_555
N1A N2A 1_555 1_555
N1C Zn1 1_555 1_555
N2A N3A 1_555 1_555
N3A N8A 1_555 1_555
C1A N1A 1_555 1_555
C2A C1A 1_555 1_555
H2A C2A 1_555 1_555
C3A C3 1_555 1_555
C4A C3 1_555 1_555
N8A C1A 1_555 1_555
H10C O1 1_555 1_555
H11C O2 1_555 1_555
C4 C3A 1_555 1_555
C4 C4A 1_555 1_555
C2A C3A 1_555 1_555
C3A C4A 1_555 1_555

#END
