
#######################################################################
#
#                 Cambridge Crystallographic Data Centre
#                                CCDC 
#
#######################################################################
#
# If this CIF has been generated from an entry in the Cambridge 
# Structural Database, then it will include bibliographic, chemical, 
# crystal, experimental, refinement or atomic coordinate data resulting 
# from the CCDC's data processing and validation procedures.
#
#######################################################################

data_HUHHOI
_symmetry_cell_setting           orthorhombic
_symmetry_space_group_name_H-M   'F m m 2'
_symmetry_Int_Tables_number      42
_space_group_name_Hall           'F 2 -2'
loop_
_symmetry_equiv_pos_site_id
_symmetry_equiv_pos_as_xyz
1 x,y,z
2 -x,-y,z
3 x,-y,z
4 -x,y,z
5 x,1/2+y,1/2+z
6 -x,1/2-y,1/2+z
7 x,1/2-y,1/2+z
8 -x,1/2+y,1/2+z
9 1/2+x,y,1/2+z
10 1/2-x,-y,1/2+z
11 1/2+x,-y,1/2+z
12 1/2-x,y,1/2+z
13 1/2+x,1/2+y,z
14 1/2-x,1/2-y,z
15 1/2+x,1/2-y,z
16 1/2-x,1/2+y,z
_cell_length_a                   13.663(5)
_cell_length_b                   37.256(8)
_cell_length_c                   10.932(2)
_cell_angle_alpha                90
_cell_angle_beta                 90
_cell_angle_gamma                90
_cell_volume                     5564.7
loop_
_atom_site_label
_atom_site_type_symbol
_atom_site_fract_x
_atom_site_fract_y
_atom_site_fract_z
Cd1 Cd 0.13742(3) 0.122638(9) 0.3374(2)
Cd2 Cd 0.24978(15) 0.183393(9) 0.0883(2)
Cl1 Cl 0.25167(9) 0.17955(3) 0.3391(7)
Cl2 Cl 0.2500 0.2500 0.0902(16)
Cl3 Cl 0.0000 0.07728(5) 0.3345(12)
N1 N 0.2193(14) 0.1010(4) 0.1795(14)
N2 N 0.2498(16) 0.12084(12) 0.0933(18)
N3 N 0.2819(12) 0.0995(4) 0.0009(11)
N4 N 0.2628(12) 0.0674(3) 0.0283(10)
N5 N 0.0794(8) 0.1798(4) 0.5624(13)
N6 N 0.0450(9) 0.1569(4) 0.4821(10)
N7 N -0.0793(9) 0.1808(3) 1.1064(12)
N8 N -0.0485(8) 0.1586(4) 1.1935(12)
C1 C 0.2179(18) 0.0649(5) 0.1331(19)
C2 C 0.2214(9) 0.03338(19) 0.2145(8)
H1 H 0.1595 0.0311 0.2573
H2 H 0.2724 0.0368 0.2751
C3 C 0.2408(9) 0.0000 0.1452(11)
H3 H 0.3088 0.0000 0.1194
H4 H 0.2006 0.0000 0.0720
C4 C 0.0000 0.1956(4) 0.6202(17)
C5 C 0.0000 0.22214(13) 0.7192(12)
H5 H -0.0615 0.2368 0.7190
C6 C 0.0000 0.19688(13) 0.8397(12)
H6 H -0.0701 0.1810 0.8540
C7 C 0.0000 0.19310(13) 1.0612(12)
C8 C 0.0000 0.21704(13) 0.9499(12)
Cd1B Cd 0.13742(3) -0.122638(9) 0.3374(2)
Cd1C Cd -0.13742(3) 0.122638(9) 0.3374(2)
Cd1K Cd 0.36258(3) 0.122638(9) -0.1626(2)
Cd1C_2 Cd -0.13742(3) 0.122638(9) 1.3374(2)
Cd1I Cd 0.36258(3) -0.122638(9) -0.1626(2)
Cd1_2 Cd 0.13742(3) 0.122638(9) 1.3374(2)
Cd2K Cd 0.25022(15) 0.183393(9) 0.5883(2)
Cd2M Cd 0.25022(15) 0.316607(9) 0.0883(2)
Cd2C Cd -0.24978(15) 0.183393(9) 1.0883(2)
Cd2B Cd 0.24978(15) -0.183393(9) 0.0883(2)
Cd2H Cd -0.25022(15) 0.183393(9) 0.5883(2)
Cd2_2 Cd 0.24978(15) 0.183393(9) 1.0883(2)
Cd2K_2 Cd 0.25022(15) 0.183393(9) -0.4117(2)
Cl1K Cl 0.24833(9) 0.17955(3) -0.1609(7)
Cl1B Cl 0.25167(9) -0.17955(3) 0.3391(7)
Cl1K_2 Cl 0.24833(9) 0.17955(3) 0.8391(7)
Cl2F Cl 0.2500 0.2500 0.5902(16)
Cl3A Cl 0.0000 -0.07728(5) 0.3345(12)
N1B N 0.2193(14) -0.1010(4) 0.1795(14)
N2B N 0.2498(16) -0.12084(12) 0.0933(18)
N2K N 0.2502(16) 0.12084(12) 0.5933(18)
N3B N 0.2819(12) -0.0995(4) 0.0009(11)
N3K N 0.2181(12) 0.0995(4) 0.5009(11)
N3I N 0.2181(12) -0.0995(4) 0.5009(11)
N4B N 0.2628(12) -0.0674(3) 0.0283(10)
N5C N -0.0794(8) 0.1798(4) 0.5624(13)
N5K N 0.4206(8) 0.1798(4) 0.0624(13)
N6C N -0.0450(9) 0.1569(4) 0.4821(10)
N6B N 0.0450(9) -0.1569(4) 0.4821(10)
N7C N 0.0793(9) 0.1808(3) 1.1064(12)
N7C_2 N 0.0793(9) 0.1808(3) 0.1064(12)
N7H N 0.4207(9) 0.1808(3) 0.6064(12)
N8C N 0.0485(8) 0.1586(4) 1.1935(12)
N8C_2 N 0.0485(8) 0.1586(4) 0.1935(12)
N8A N 0.0485(8) -0.1586(4) 0.1935(12)
C1B C 0.2179(18) -0.0649(5) 0.1331(19)
C2B C 0.2214(9) -0.03338(19) 0.2145(8)
H1B H 0.1595 -0.0311 0.2573
H2B H 0.2724 -0.0368 0.2751
H5C H 0.0615 0.2368 0.7190
H6C H 0.0701 0.1810 0.8540
loop_
_geom_bond_atom_site_label_1
_geom_bond_atom_site_label_2
_geom_bond_site_symmetry_1
_geom_bond_site_symmetry_2
Cd1 Cl1 1_555 1_555
Cd2 Cl1 1_555 1_555
Cl1 Cd2K 1_555 1_555
Cl2 Cd2 1_555 1_555
Cl3 Cd1 1_555 1_555
N1 Cd1 1_555 1_555
N2 Cd2 1_555 1_555
N3 N2 1_555 1_555
N4 N3 1_555 1_555
N5 N6 1_555 1_555
N6 Cd1 1_555 1_555
N7 N8 1_555 1_555
N8 Cd1C_2 1_555 1_555
C1 N1 1_555 1_555
C2 C1 1_555 1_555
H1 C2 1_555 1_555
H2 C2 1_555 1_555
C3 C2 1_555 1_555
H3 C3 1_555 1_555
H4 C3 1_555 1_555
C4 N5 1_555 1_555
C5 C4 1_555 1_555
H5 C5 1_555 1_555
C6 C5 1_555 1_555
H6 C6 1_555 1_555
C7 N7 1_555 1_555
C8 C6 1_555 1_555
Cd1B Cl1B 1_555 1_555
Cd1C Cl3 1_555 1_555
Cd1K N3 1_555 1_555
Cd1I N3B 1_555 1_555
Cd1_2 N8C 1_555 1_555
Cd2K N5 1_555 1_555
Cd2M Cl2 1_555 1_555
Cd2C N7 1_555 1_555
Cd2B Cl1B 1_555 1_555
Cd2H N5C 1_555 1_555
Cd2_2 Cl1K_2 1_555 1_555
Cd2K_2 Cl1K 1_555 1_555
Cl1K Cd2 1_555 1_555
Cl1K_2 Cd2K 1_555 1_555
Cl2F Cd2K 1_555 1_555
Cl3A Cd1B 1_555 1_555
N1B Cd1B 1_555 1_555
N2B Cd2B 1_555 1_555
N2K Cd2K 1_555 1_555
N3B N2B 1_555 1_555
N3K Cd1 1_555 1_555
N3I Cd1B 1_555 1_555
N4B N3B 1_555 1_555
N5C C4 1_555 1_555
N5K Cd2 1_555 1_555
N6C N6 1_555 1_555
N6B Cd1B 1_555 1_555
N7C C7 1_555 1_555
N7C_2 Cd2 1_555 1_555
N7H Cd2K 1_555 1_555
N8C N8 1_555 1_555
N8C_2 Cd1 1_555 1_555
N8A Cd1B 1_555 1_555
C1B N1B 1_555 1_555
C2B C3 1_555 1_555
H1B C2B 1_555 1_555
H2B C2B 1_555 1_555
H5C C5 1_555 1_555
H6C C6 1_555 1_555
N1 N2 1_555 1_555
N4 C1 1_555 1_555
C7 C8 1_555 1_555
Cd1C N6C 1_555 1_555
Cd1K Cl1K 1_555 1_555
Cd2_2 N7C 1_555 1_555
N1B N2B 1_555 1_555
N2K N3K 1_555 1_555
N4B C1B 1_555 1_555
N5C N6C 1_555 1_555
N7C N8C 1_555 1_555
N7C_2 N8C_2 1_555 1_555
C1B C2B 1_555 1_555

#END
