
#######################################################################
#
#                 Cambridge Crystallographic Data Centre
#                                CCDC 
#
#######################################################################
#
# If this CIF has been generated from an entry in the Cambridge 
# Structural Database, then it will include bibliographic, chemical, 
# crystal, experimental, refinement or atomic coordinate data resulting 
# from the CCDC's data processing and validation procedures.
#
#######################################################################

data_HUHHIC
_symmetry_cell_setting           monoclinic
_symmetry_space_group_name_H-M   'P 21/c'
_symmetry_Int_Tables_number      14
_space_group_name_Hall           '-P 2ybc'
loop_
_symmetry_equiv_pos_site_id
_symmetry_equiv_pos_as_xyz
1 x,y,z
2 -x,1/2+y,1/2-z
3 -x,-y,-z
4 x,1/2-y,1/2+z
_cell_length_a                   5.5424(11)
_cell_length_b                   15.704(3)
_cell_length_c                   9.5651(19)
_cell_angle_alpha                90
_cell_angle_beta                 96.04(3)
_cell_angle_gamma                90
_cell_volume                     827.904
loop_
_atom_site_label
_atom_site_type_symbol
_atom_site_fract_x
_atom_site_fract_y
_atom_site_fract_z
Zn1 Zn 0.41301(3) 0.626512(12) 0.10424(2)
C1 C 0.3296(3) 0.76911(11) 0.32146(18)
C2 C 0.1074(3) 0.80901(11) 0.24575(18)
H1 H 0.0195 0.8385 0.3138
H2 H 0.0030 0.7642 0.2039
C3 C 0.1593(3) 0.87239(11) 0.12976(19)
H3 H 0.2483 0.8430 0.0622
H4 H 0.0060 0.8908 0.0809
C4 C 0.3040(3) 0.95137(11) 0.1824(2)
H5 H 0.4568 0.9334 0.2325
H6 H 0.3404 0.9850 0.1022
C5 C 0.1710(3) 1.00576(11) 0.27742(18)
N1 N 0.4466(3) 0.70167(9) 0.27596(15)
N2 N 0.6338(3) 0.68381(10) 0.37582(15)
N3 N 0.6312(3) 0.73824(10) 0.47762(16)
N4 N 0.4412(3) 0.79300(9) 0.44608(15)
N5 N 0.2784(3) 1.05985(9) 0.37474(15)
N6 N 0.0992(3) 1.09774(10) 0.43597(16)
N7 N -0.1045(3) 1.06591(9) 0.37743(15)
N8 N -0.0686(3) 1.00802(9) 0.27695(15)
Zn1A Zn -0.41301(3) 1.126512(12) 0.39576(2)
Zn1A_2 Zn 0.58699(3) 1.126512(12) 0.39576(2)
Zn1C Zn 0.41301(3) 0.873488(12) 0.60424(2)
N4C N 0.4412(3) 0.70700(9) -0.05392(15)
N5A N 0.7216(3) 0.55985(9) 0.12526(15)
N7A N 0.1045(3) 0.56591(9) 0.12257(15)
loop_
_geom_bond_atom_site_label_1
_geom_bond_atom_site_label_2
_geom_bond_site_symmetry_1
_geom_bond_site_symmetry_2
Zn1 N1 1_555 1_555
C1 C2 1_555 1_555
C2 H1 1_555 1_555
H2 C2 1_555 1_555
C3 C2 1_555 1_555
H3 C3 1_555 1_555
H4 C3 1_555 1_555
C4 C3 1_555 1_555
H5 C4 1_555 1_555
H6 C4 1_555 1_555
C5 C4 1_555 1_555
N1 C1 1_555 1_555
N2 N1 1_555 1_555
N3 N2 1_555 1_555
N4 C1 1_555 1_555
N5 C5 1_555 1_555
N6 N5 1_555 1_555
N7 N6 1_555 1_555
N8 C5 1_555 1_555
Zn1A N7 1_555 1_555
Zn1A_2 N5 1_555 1_555
Zn1C N4 1_555 1_555
N4C Zn1 1_555 1_555
N5A Zn1 1_555 1_555
N7A Zn1 1_555 1_555
N3 N4 1_555 1_555
N7 N8 1_555 1_555

#END
