
#######################################################################
#
#                 Cambridge Crystallographic Data Centre
#                                CCDC 
#
#######################################################################
#
# If this CIF has been generated from an entry in the Cambridge 
# Structural Database, then it will include bibliographic, chemical, 
# crystal, experimental, refinement or atomic coordinate data resulting 
# from the CCDC's data processing and validation procedures.
#
#######################################################################

data_HUHHEY
_symmetry_cell_setting           triclinic
_symmetry_space_group_name_H-M   'P -1'
_symmetry_Int_Tables_number      2
_space_group_name_Hall           '-P 1'
loop_
_symmetry_equiv_pos_site_id
_symmetry_equiv_pos_as_xyz
1 x,y,z
2 -x,-y,-z
_cell_length_a                   8.576(6)
_cell_length_b                   9.430(7)
_cell_length_c                   11.430(8)
_cell_angle_alpha                82.908(12)
_cell_angle_beta                 70.653(10)
_cell_angle_gamma                85.374(11)
_cell_volume                     864.711
loop_
_atom_site_label
_atom_site_type_symbol
_atom_site_fract_x
_atom_site_fract_y
_atom_site_fract_z
Cd1 Cd 0.5000 0.0000 0.0000
Cd2 Cd 0.72575(8) -0.19019(8) -0.30576(6)
O1 O 0.7052(10) -0.0779(11) -0.4880(8)
O2 O 1.0049(9) -0.2358(10) -0.3820(7)
O3 O 0.6781(9) -0.4132(8) -0.3487(7)
N1 N 0.7082(9) 0.1081(8) -0.1648(7)
N2 N 0.7908(9) 0.0341(8) -0.2594(7)
N3 N 0.9085(9) 0.1101(9) -0.3355(7)
N4 N 0.9066(10) 0.2356(9) -0.2919(8)
N5 N 0.7347(10) 0.5858(8) 0.0631(7)
N6 N 0.6572(9) 0.7115(8) 0.0900(7)
N7 N 0.6438(8) 0.7810(8) -0.0112(7)
N8 N 0.7148(8) 0.7035(8) -0.1076(7)
N9 N 0.3612(8) -0.0544(8) -0.1290(7)
N10 N 0.4367(8) -0.1361(9) -0.2208(7)
N11 N 0.3285(9) -0.1714(10) -0.2661(7)
N12 N 0.1803(10) -0.1136(10) -0.2070(8)
C1 C 0.7815(11) 0.2291(10) -0.1861(8)
C2 C 0.7258(12) 0.3493(11) -0.1071(9)
H1 H 0.6264 0.3942 -0.1203
H2 H 0.6961 0.3100 -0.0204
C3 C 0.7679(10) 0.5856(10) -0.0567(9)
C4 C 0.8469(11) 0.4615(10) -0.1287(9)
H3 H 0.9399 0.4218 -0.1032
H4 H 0.8882 0.4941 -0.2169
C5 C 0.2057(10) -0.0433(10) -0.1240(9)
C6 C 0.0756(10) 0.0423(11) -0.0342(9)
H5 H 0.0441 0.1275 -0.0794
H6 H 0.1209 0.0723 0.0256
H7 H 0.6451 -0.0859 -0.5339
H8 H 0.7964 -0.0434 -0.5381
H9 H 1.0713 -0.2115 -0.4555
H10 H 1.0542 -0.2133 -0.3316
H11 H 0.6859 -0.4752 -0.2883
H12 H 0.6246 -0.4521 -0.3861
Cd1_2 Cd 0.5000 1.0000 0.0000
Cd1_3 Cd -0.5000 0.0000 0.0000
Cd2A Cd 0.27425(8) 1.19019(8) 0.30576(6)
Cd2_2 Cd 0.72575(8) 0.80981(8) -0.30576(6)
Cd2A_2 Cd -0.72575(8) 0.19019(8) 0.30576(6)
Cd2A_3 Cd 0.27425(8) 0.19019(8) 0.30576(6)
O1A O 0.2948(10) 1.0779(11) 0.4880(8)
O2A O -0.0049(9) 1.2358(10) 0.3820(7)
O3A O 0.3219(9) 1.4132(8) 0.3487(7)
N1A N 0.2918(9) 0.8919(8) 0.1648(7)
N1A_2 N 0.2918(9) -0.1081(8) 0.1648(7)
N2A N 0.2092(9) 0.9659(8) 0.2594(7)
N3A N 0.0915(9) 0.8899(9) 0.3355(7)
N4A N 0.0934(10) 0.7644(9) 0.2919(8)
N5A N 0.2653(10) 0.4142(8) -0.0631(7)
N6A N 0.3428(9) 0.2885(8) -0.0900(7)
N7A N 0.3562(8) 0.2190(8) 0.0112(7)
N7_2 N 0.6438(8) -0.2190(8) -0.0112(7)
N8A N 0.2852(8) 0.2965(8) 0.1076(7)
N8_2 N 0.7148(8) -0.2965(8) -0.1076(7)
N8A_2 N 0.2852(8) 1.2965(8) 0.1076(7)
N9A N -0.3612(8) 0.0544(8) 0.1290(7)
N9A_2 N 0.6388(8) 0.0544(8) 0.1290(7)
N10A N -0.4367(8) 0.1361(9) 0.2208(7)
N10A_2 N 0.5633(8) 1.1361(9) 0.2208(7)
N11A N -0.3285(9) 0.1714(10) 0.2661(7)
N12A N -0.1803(10) 0.1136(10) 0.2070(8)
C1A C 0.2185(11) 0.7709(10) 0.1861(8)
C2A C 0.2742(12) 0.6507(11) 0.1071(9)
H1A H 0.3736 0.6058 0.1203
H2A H 0.3039 0.6900 0.0204
C3A C 0.2321(10) 0.4144(10) 0.0567(9)
C4A C 0.1531(11) 0.5385(10) 0.1287(9)
H3A H 0.0601 0.5782 0.1032
H4A H 0.1118 0.5059 0.2169
C5A C -0.2057(10) 0.0433(10) 0.1240(9)
C6A C -0.0756(10) -0.0423(11) 0.0342(9)
H5A H -0.0441 -0.1275 0.0794
H6A H -0.1209 -0.0723 -0.0256
H7A H 0.3549 1.0859 0.5339
H8A H 0.2036 1.0434 0.5381
H9A H -0.0713 1.2115 0.4555
H10A H -0.0542 1.2133 0.3316
H11A H 0.3141 1.4752 0.2883
H12A H 0.3754 1.4521 0.3861
O4 O 0.5105(14) -0.2231(13) -0.6272(10)
H13 H 0.5453 -0.2095 -0.7080
H14 H 0.4042 -0.2214 -0.6063
O5 O 0.3444(9) 0.5387(9) -0.3058(7)
H15 H 0.2640 0.5271 -0.2366
H16 H 0.3065 0.5942 -0.3558
O6 O 1.1369(9) 0.4497(8) -0.4205(7)
H17 H 1.1232 0.3619 -0.3869
H18 H 1.0434 0.4933 -0.3934
loop_
_geom_bond_atom_site_label_1
_geom_bond_atom_site_label_2
_geom_bond_site_symmetry_1
_geom_bond_site_symmetry_2
Cd1 N1 1_555 1_555
Cd2 O1 1_555 1_555
O1 H7 1_555 1_555
O2 Cd2 1_555 1_555
O3 Cd2 1_555 1_555
O4 H13 1_555 1_555
O5 H15 1_555 1_555
O6 H17 1_555 1_555
N1 N2 1_555 1_555
N2 Cd2 1_555 1_555
N3 N2 1_555 1_555
N4 N3 1_555 1_555
N5 N6 1_555 1_555
N6 N7 1_555 1_555
N7 N8 1_555 1_555
N8 C3 1_555 1_555
N9 Cd1 1_555 1_555
N10 Cd2 1_555 1_555
N11 N10 1_555 1_555
N12 N11 1_555 1_555
C1 N1 1_555 1_555
C2 C1 1_555 1_555
H1 C2 1_555 1_555
H2 C2 1_555 1_555
C3 N5 1_555 1_555
C4 C2 1_555 1_555
H3 C4 1_555 1_555
H4 C4 1_555 1_555
C5 N9 1_555 1_555
C6 C5 1_555 1_555
H5 C6 1_555 1_555
H6 C6 1_555 1_555
H8 O1 1_555 1_555
H9 O2 1_555 1_555
H10 O2 1_555 1_555
H11 O3 1_555 1_555
H12 O3 1_555 1_555
H14 O4 1_555 1_555
H16 O5 1_555 1_555
H18 O6 1_555 1_555
Cd1_2 N7 1_555 1_555
Cd1_3 N9A 1_555 1_555
Cd2A O1A 1_555 1_555
Cd2_2 N8 1_555 1_555
Cd2A_2 N10A 1_555 1_555
Cd2A_3 N8A 1_555 1_555
O1A H7A 1_555 1_555
O2A Cd2A 1_555 1_555
O3A Cd2A 1_555 1_555
N1A Cd1_2 1_555 1_555
N1A_2 Cd1 1_555 1_555
N2A Cd2A 1_555 1_555
N3A N2A 1_555 1_555
N4A N3A 1_555 1_555
N5A N6A 1_555 1_555
N6A N7A 1_555 1_555
N7A Cd1 1_555 1_555
N7_2 Cd1 1_555 1_555
N8A N7A 1_555 1_555
N8_2 Cd2 1_555 1_555
N8A_2 Cd2A 1_555 1_555
N9A N10A 1_555 1_555
N9A_2 Cd1 1_555 1_555
N10A N11A 1_555 1_555
N10A_2 Cd2A 1_555 1_555
N11A N12A 1_555 1_555
N12A C5A 1_555 1_555
C1A N1A 1_555 1_555
C2A C1A 1_555 1_555
H1A C2A 1_555 1_555
H2A C2A 1_555 1_555
C3A N5A 1_555 1_555
C4A C2A 1_555 1_555
H3A C4A 1_555 1_555
H4A C4A 1_555 1_555
C5A N9A 1_555 1_555
C6A C6 1_555 1_555
H5A C6A 1_555 1_555
H6A C6A 1_555 1_555
H8A O1A 1_555 1_555
H9A O2A 1_555 1_555
H10A O2A 1_555 1_555
H11A O3A 1_555 1_555
H12A O3A 1_555 1_555
N4 C1 1_555 1_555
N9 N10 1_555 1_555
N12 C5 1_555 1_555
C3 C4 1_555 1_555
N1A N2A 1_555 1_555
N4A C1A 1_555 1_555
N7_2 N8_2 1_555 1_555
N8A C3A 1_555 1_555
C3A C4A 1_555 1_555
C5A C6A 1_555 1_555

#END
