
#######################################################################
#
#                 Cambridge Crystallographic Data Centre
#                                CCDC 
#
#######################################################################
#
# If this CIF has been generated from an entry in the Cambridge 
# Structural Database, then it will include bibliographic, chemical, 
# crystal, experimental, refinement or atomic coordinate data resulting 
# from the CCDC's data processing and validation procedures.
#
#######################################################################

data_HUHLIH
_symmetry_cell_setting           monoclinic
_symmetry_space_group_name_H-M   'P 21/n'
_symmetry_Int_Tables_number      14
_space_group_name_Hall           '-P 2yn'
loop_
_symmetry_equiv_pos_site_id
_symmetry_equiv_pos_as_xyz
1 x,y,z
2 1/2-x,1/2+y,1/2-z
3 -x,-y,-z
4 1/2+x,1/2-y,1/2+z
_cell_length_a                   17.336(3)
_cell_length_b                   17.302(3)
_cell_length_c                   18.817(3)
_cell_angle_alpha                90
_cell_angle_beta                 97.458(7)
_cell_angle_gamma                90
_cell_volume                     5596.36
loop_
_atom_site_label
_atom_site_type_symbol
_atom_site_fract_x
_atom_site_fract_y
_atom_site_fract_z
Cd1 Cd 0.24350(4) 0.46449(3) 0.49365(3)
O1 O 0.8553(5) 0.9472(4) 0.6396(4)
O2 O 0.8609(10) 0.4525(11) 0.1226(9)
O3 O 0.3928(8) 0.3142(6) 0.4864(6)
O4 O 0.3524(5) 0.3993(5) 0.5545(4)
O5 O 0.4692(8) 0.3833(11) 0.5518(8)
O6 O 0.0795(6) 0.4035(5) 0.4559(6)
O7 O 0.1882(6) 0.3362(5) 0.4681(5)
O8 O 0.0765(6) 0.2804(5) 0.4641(6)
N1 N 0.3154(6) 0.5738(5) 0.5451(5)
N2 N 0.3992(6) 0.8031(5) 0.6945(4)
N3 N 0.3110(6) 0.9430(5) 0.9020(4)
N4 N 0.3393(6) 0.0598(5) 0.0643(5)
N5 N 0.4106(6) 0.3011(5) 0.1994(4)
N6 N 0.3054(6) 0.4495(5) 0.3911(4)
N7 N 0.3983(8) 0.3586(7) 0.5311(6)
N8 N 0.1158(8) 0.3389(6) 0.4613(6)
C1 C 0.2771(7) 0.6325(6) 0.5701(6)
C2 C 0.3923(7) 0.5790(6) 0.5504(5)
C3 C 0.4354(7) 0.6424(6) 0.5801(5)
C4 C 0.3943(7) 0.7030(6) 0.6076(6)
C5 C 0.3135(8) 0.6976(6) 0.6032(7)
C6 C 0.4372(7) 0.7700(5) 0.6454(5)
C7 C 0.5102(7) 0.7935(6) 0.6314(5)
C8 C 0.5485(7) 0.8529(6) 0.6712(5)
C9 C 0.6290(7) 0.8776(6) 0.6608(5)
C10 C 0.6732(7) 0.8340(6) 0.6205(5)
C11 C 0.7489(7) 0.8550(6) 0.6129(6)
C12 C 0.7827(7) 0.9227(6) 0.6444(6)
C13 C 0.7367(8) 0.9668(7) 0.6839(7)
C14 C 0.6624(7) 0.9461(7) 0.6927(7)
C15 C 0.9003(7) 0.9045(6) 0.5969(6)
C16 C 0.9783(7) 0.9385(7) 0.5986(6)
C17 C 1.0282(8) 0.8946(7) 0.5493(7)
C18 C 1.1114(8) 0.9228(8) 0.5518(7)
C19 C 1.1556(10) 0.8805(9) 0.5003(8)
C20 C 1.2417(10) 0.9080(12) 0.5027(10)
C21 C 1.2815(15) 0.8579(14) 0.4496(14)
C22 C 0.5076(7) 0.8878(5) 0.7230(5)
C23 C 0.4342(7) 0.8614(5) 0.7327(5)
C24 C 0.3904(7) 0.8917(6) 0.7898(5)
C25 C 0.3333(7) 0.8474(6) 0.8145(6)
C26 C 0.2973(8) 0.8729(6) 0.8697(5)
C27 C 0.3670(7) 0.9867(6) 0.8772(5)
C28 C 0.4057(7) 0.9631(5) 0.8222(5)
C29 C 0.3033(8) 0.1076(7) 0.1063(7)
C30 C 0.3400(8) 0.1736(7) 0.1345(8)
C31 C 0.4127(7) 0.1942(6) 0.1205(5)
C32 C 0.4482(7) 0.1433(6) 0.0773(5)
C33 C 0.4100(7) 0.0771(6) 0.0516(5)
C34 C 0.4498(7) 0.2643(6) 0.1526(5)
C35 C 0.5220(7) 0.2901(6) 0.1387(5)
C36 C 0.3713(8) 0.4871(6) 0.3757(5)
C37 C 0.4160(8) 0.4641(5) 0.3252(6)
C38 C 0.3961(7) 0.3970(5) 0.2859(5)
C39 C 0.3284(8) 0.3595(6) 0.2993(6)
C40 C 0.2876(9) 0.3866(6) 0.3519(6)
C41 C 0.4416(7) 0.3633(5) 0.2329(5)
C42 C 0.5160(7) 0.3919(6) 0.2207(5)
C43 C 0.5581(7) 0.3541(6) 0.1728(5)
C44 C 0.6368(8) 0.3806(6) 0.1596(6)
C45 C 0.6687(9) 0.3521(8) 0.1020(7)
C46 C 0.7438(11) 0.3735(11) 0.0886(8)
C47 C 0.7844(13) 0.4307(14) 0.1320(9)
C48 C 0.7514(11) 0.4588(11) 0.1889(9)
C49 C 0.6773(9) 0.4344(8) 0.2039(7)
C50 C 0.9128(11) 0.4099(14) 0.0818(13)
C51 C 0.9961(13) 0.4121(13) 0.1154(14)
C52 C 1.0350(15) 0.3412(13) 0.1491(13)
C53 C 1.0949(15) 0.3292(13) 0.2131(12)
C54 C 1.1125(16) 0.2518(12) 0.2475(13)
C55 C 1.1386(16) 0.1870(13) 0.2034(11)
C56 C 1.1088(16) 0.2220(16) 0.1321(12)
H1 H 0.2219 0.6296 0.5653
H2 H 0.4195 0.5366 0.5333
H3 H 0.4903 0.6442 0.5814
H4 H 0.2840 0.7371 0.6221
H5 H 0.5341 0.7688 0.5948
H6 H 0.6515 0.7888 0.5974
H7 H 0.7787 0.8228 0.5859
H8 H 0.7577 1.0128 0.7061
H9 H 0.6329 0.9776 0.7206
H10 H 0.9054 0.8532 0.6149
H11 H 0.8754 0.9037 0.5489
H12 H 1.0037 0.9375 0.6464
H13 H 0.9729 0.9906 0.5825
H14 H 1.0296 0.8419 0.5635
H15 H 1.0037 0.8988 0.5013
H16 H 1.1376 0.9151 0.5988
H17 H 1.1106 0.9764 0.5407
H18 H 1.1297 0.8894 0.4533
H19 H 1.1547 0.8268 0.5108
H20 H 1.2675 0.9022 0.5501
H21 H 1.2432 0.9607 0.4888
H22 H 1.3338 0.8751 0.4522
H23 H 1.2807 0.8050 0.4632
H24 H 1.2564 0.8636 0.4019
H25 H 0.5306 0.9294 0.7511
H26 H 0.3192 0.7989 0.7930
H27 H 0.2596 0.8403 0.8867
H28 H 0.3790 1.0357 0.8986
H29 H 0.4435 0.9962 0.8060
H30 H 0.2526 0.0953 0.1167
H31 H 0.3136 0.2061 0.1640
H32 H 0.4985 0.1544 0.0651
H33 H 0.4361 0.0424 0.0237
H34 H 0.5475 0.2632 0.1044
H35 H 0.3865 0.5327 0.4020
H36 H 0.4607 0.4929 0.3170
H37 H 0.3110 0.3150 0.2723
H38 H 0.2430 0.3581 0.3609
H39 H 0.5367 0.4368 0.2451
H40 H 0.6399 0.3167 0.0704
H41 H 0.7672 0.3495 0.0513
H42 H 0.7801 0.4947 0.2201
H43 H 0.6557 0.4555 0.2435
H44 H 0.9103 0.4299 0.0345
H45 H 0.8980 0.3570 0.0797
H46 H 1.0288 0.4303 0.0822
H47 H 0.9939 0.4495 0.1519
H48 H 1.0572 0.3165 0.1114
H49 H 0.9917 0.3120 0.1602
H50 H 1.1418 0.3505 0.2006
H51 H 1.0778 0.3589 0.2505
H52 H 1.1544 0.2601 0.2845
H53 H 1.0683 0.2340 0.2678
H54 H 1.1934 0.1808 0.2066
H55 H 1.1154 0.1389 0.2124
H56 H 1.1168 0.1901 0.0926
H57 H 1.1326 0.2708 0.1274
H58 H 1.0546 0.2289 0.1332
Cd1A Cd 0.25650(4) -0.03551(3) 0.00635(3)
Cd1A_2 Cd 0.25650(4) 0.96449(3) 1.00635(3)
N3A N 0.1890(6) 0.4430(5) 0.5980(4)
N4A N 0.1607(6) 0.5598(5) 0.4357(5)
O9 O 0.5893(8) 0.8289(7) 0.0995(6)
C57 C 0.5966(14) 0.8026(14) 0.1660(11)
H59 H 0.6466 0.8147 0.1903
H60 H 0.5578 0.8246 0.1912
H61 H 0.5902 0.7481 0.1639
H62 H 0.5409 0.8148 0.0809
O10 O 0.9122(7) 0.0562(5) 0.1936(5)
C58 C 0.9056(14) 0.1267(10) 0.2272(8)
H63 H 0.9238 0.1217 0.2769
H64 H 0.9355 0.1647 0.2068
H65 H 0.8525 0.1418 0.2213
H66 H 0.8932 0.0704 0.1487
loop_
_geom_bond_atom_site_label_1
_geom_bond_atom_site_label_2
_geom_bond_site_symmetry_1
_geom_bond_site_symmetry_2
Cd1 O4 1_555 1_555
O1 C12 1_555 1_555
O2 C47 1_555 1_555
O3 N7 1_555 1_555
O4 N7 1_555 1_555
O5 N7 1_555 1_555
O6 N8 1_555 1_555
O7 Cd1 1_555 1_555
O8 N8 1_555 1_555
N1 Cd1 1_555 1_555
N2 C6 1_555 1_555
N3 C26 1_555 1_555
N4 C29 1_555 1_555
N5 C34 1_555 1_555
N6 Cd1 1_555 1_555
N8 O7 1_555 1_555
C1 N1 1_555 1_555
C2 N1 1_555 1_555
C3 C2 1_555 1_555
C4 C3 1_555 1_555
C5 C1 1_555 1_555
C6 C4 1_555 1_555
C7 C6 1_555 1_555
C8 C7 1_555 1_555
C9 C8 1_555 1_555
C10 C9 1_555 1_555
C11 C10 1_555 1_555
C12 C11 1_555 1_555
C13 C12 1_555 1_555
C14 C9 1_555 1_555
C15 O1 1_555 1_555
C16 C15 1_555 1_555
C17 C16 1_555 1_555
C18 C17 1_555 1_555
C19 C18 1_555 1_555
C20 C19 1_555 1_555
C21 C20 1_555 1_555
C22 C8 1_555 1_555
C23 N2 1_555 1_555
C24 C23 1_555 1_555
C25 C24 1_555 1_555
C26 C25 1_555 1_555
C27 N3 1_555 1_555
C28 C24 1_555 1_555
C29 C30 1_555 1_555
C30 C31 1_555 1_555
C31 C32 1_555 1_555
C32 C33 1_555 1_555
C33 N4 1_555 1_555
C34 C31 1_555 1_555
C35 C34 1_555 1_555
C36 N6 1_555 1_555
C37 C36 1_555 1_555
C38 C37 1_555 1_555
C39 C38 1_555 1_555
C40 N6 1_555 1_555
C41 N5 1_555 1_555
C42 C41 1_555 1_555
C43 C35 1_555 1_555
C44 C43 1_555 1_555
C45 C44 1_555 1_555
C46 C45 1_555 1_555
C47 C46 1_555 1_555
C48 C47 1_555 1_555
C49 C44 1_555 1_555
C50 O2 1_555 1_555
C51 C50 1_555 1_555
C52 C51 1_555 1_555
C53 C52 1_555 1_555
C54 C53 1_555 1_555
C55 C54 1_555 1_555
C56 C55 1_555 1_555
H1 C1 1_555 1_555
H2 C2 1_555 1_555
H3 C3 1_555 1_555
H4 C5 1_555 1_555
H5 C7 1_555 1_555
H6 C10 1_555 1_555
H7 C11 1_555 1_555
H8 C13 1_555 1_555
H9 C14 1_555 1_555
H10 C15 1_555 1_555
H11 C15 1_555 1_555
H12 C16 1_555 1_555
H13 C16 1_555 1_555
H14 C17 1_555 1_555
H15 C17 1_555 1_555
H16 C18 1_555 1_555
H17 C18 1_555 1_555
H18 C19 1_555 1_555
H19 C19 1_555 1_555
H20 C20 1_555 1_555
H21 C20 1_555 1_555
H22 C21 1_555 1_555
H23 C21 1_555 1_555
H24 C21 1_555 1_555
H25 C22 1_555 1_555
H26 C25 1_555 1_555
H27 C26 1_555 1_555
H28 C27 1_555 1_555
H29 C28 1_555 1_555
H30 C29 1_555 1_555
H31 C30 1_555 1_555
H32 C32 1_555 1_555
H33 C33 1_555 1_555
H34 C35 1_555 1_555
H35 C36 1_555 1_555
H36 C37 1_555 1_555
H37 C39 1_555 1_555
H38 C40 1_555 1_555
H39 C42 1_555 1_555
H40 C45 1_555 1_555
H41 C46 1_555 1_555
H42 C48 1_555 1_555
H43 C49 1_555 1_555
H44 C50 1_555 1_555
H45 C50 1_555 1_555
H46 C51 1_555 1_555
H47 C51 1_555 1_555
H48 C52 1_555 1_555
H49 C52 1_555 1_555
H50 C53 1_555 1_555
H51 C53 1_555 1_555
H52 C54 1_555 1_555
H53 C54 1_555 1_555
H54 C55 1_555 1_555
H55 C55 1_555 1_555
H56 C56 1_555 1_555
H57 C56 1_555 1_555
H58 C56 1_555 1_555
O9 C57 1_555 1_555
C57 H59 1_555 1_555
H60 C57 1_555 1_555
H61 C57 1_555 1_555
H62 O9 1_555 1_555
O10 C58 1_555 1_555
C58 H63 1_555 1_555
H64 C58 1_555 1_555
H65 C58 1_555 1_555
H66 O10 1_555 1_555
Cd1A N4 1_555 1_555
Cd1A_2 N3 1_555 1_555
N3A Cd1 1_555 1_555
N4A Cd1 1_555 1_555
C4 C5 1_555 1_555
C13 C14 1_555 1_555
C22 C23 1_555 1_555
C27 C28 1_555 1_555
C38 C41 1_555 1_555
C39 C40 1_555 1_555
C42 C43 1_555 1_555
C48 C49 1_555 1_555

#END
