
#######################################################################
#
#                 Cambridge Crystallographic Data Centre
#                                CCDC 
#
#######################################################################
#
# If this CIF has been generated from an entry in the Cambridge 
# Structural Database, then it will include bibliographic, chemical, 
# crystal, experimental, refinement or atomic coordinate data resulting 
# from the CCDC's data processing and validation procedures.
#
#######################################################################

data_HUHNIJ
_symmetry_cell_setting           orthorhombic
_symmetry_space_group_name_H-M   'P 21 21 21'
_symmetry_Int_Tables_number      19
_space_group_name_Hall           'P 2ac 2ab'
loop_
_symmetry_equiv_pos_site_id
_symmetry_equiv_pos_as_xyz
1 x,y,z
2 1/2-x,-y,1/2+z
3 1/2+x,1/2-y,-z
4 -x,1/2+y,1/2-z
_cell_length_a                   13.9325(12)
_cell_length_b                   26.873(2)
_cell_length_c                   27.147(2)
_cell_angle_alpha                90
_cell_angle_beta                 90
_cell_angle_gamma                90
_cell_volume                     10164.1
loop_
_atom_site_label
_atom_site_type_symbol
_atom_site_fract_x
_atom_site_fract_y
_atom_site_fract_z
Cd1 Cd 1.30793(7) 0.62932(3) 1.04194(3)
Cd2 Cd -0.09235(7) 0.78380(3) 0.86201(3)
Ti1 Ti 0.68726(14) 0.44401(5) 0.78086(6)
Ti2 Ti 0.55557(13) 0.52149(5) 0.69699(5)
O1 O 0.6632(5) 0.37657(19) 0.7681(2)
O2 O 0.7768(6) 0.4287(2) 0.8325(2)
O3 O 0.5953(5) 0.5100(2) 0.6318(2)
O4 O 0.4591(5) 0.5716(2) 0.6799(2)
O5 O 0.6220(5) 0.4727(2) 0.7286(2)
O6 O 0.5897(6) 0.4604(2) 0.8250(2)
O7 O 0.6431(5) 0.5697(2) 0.7169(3)
O8 O 1.3530(9) 0.5535(4) 1.0758(5)
O9 O 1.4049(9) 0.5674(4) 0.9999(5)
O10 O -0.1320(10) 0.8005(6) 0.7830(4)
O11 O -0.1873(13) 0.7298(5) 0.8076(4)
O12 O 0.0242(10) 0.8505(4) 0.8667(6)
O13 O -0.0421(8) 0.8337(3) 0.9308(6)
O14 O -0.2325(7) 0.8253(3) 0.8895(3)
O15 O -0.3555(9) 0.8214(5) 0.9350(4)
N1 N 0.7683(6) 0.5145(3) 0.7837(3)
H1 H 0.7312 0.5392 0.7638
N2 N 0.8089(6) 0.4311(2) 0.7272(3)
H2 H 0.8566 0.4086 0.7434
N3 N 0.6825(8) 0.1838(3) 0.5223(3)
N4 N 1.1875(8) 0.5842(3) 1.0016(4)
N5 N 0.4449(6) 0.4624(3) 0.6773(3)
H3 H 0.4004 0.4773 0.6524
N6 N 0.4616(6) 0.5170(3) 0.7627(3)
H4 H 0.4949 0.4958 0.7877
N7 N 0.6109(9) 0.2775(3) 0.4220(3)
N8 N 0.0400(8) 0.7397(3) 0.8295(4)
C1 C 0.8625(9) 0.5102(3) 0.7607(4)
H5 H 0.9052 0.4927 0.7847
C2 C 0.5762(12) 0.4506(6) 0.8746(4)
H6 H 0.6281 0.4659 0.8937
H7 H 0.5765 0.4145 0.8801
H8 H 0.5144 0.4644 0.8852
C3 C 0.8589(7) 0.4792(3) 0.7152(4)
H9 H 0.8184 0.4972 0.6906
C4 C 0.9620(9) 0.4716(5) 0.6915(5)
H10 H 1.0038 0.4541 0.7153
H11 H 0.9560 0.4503 0.6618
C5 C 1.0087(12) 0.5207(6) 0.6771(6)
H12 H 0.9713 0.5374 0.6509
H13 H 1.0749 0.5152 0.6651
C6 C 1.0092(11) 0.5530(6) 0.7254(7)
H14 H 1.0518 0.5368 0.7498
H15 H 1.0373 0.5860 0.7176
C7 C 0.9095(10) 0.5612(4) 0.7495(6)
H16 H 0.9168 0.5804 0.7804
H17 H 0.8679 0.5805 0.7269
C8 C 0.7757(8) 0.4063(3) 0.6811(4)
H18 H 0.8323 0.3998 0.6601
H19 H 0.7335 0.4297 0.6631
C9 C 0.6495(11) 0.6208(4) 0.7065(8)
H20 H 0.6705 0.6388 0.7360
H21 H 0.5865 0.6333 0.6962
H22 H 0.6961 0.6262 0.6799
C10 C 0.6678(5) 0.34471(16) 0.73025(17)
C11 C 0.6174(4) 0.30010(18) 0.73205(17)
C12 C 0.6200(4) 0.26769(15) 0.6922(2)
H23 H 0.5856 0.2372 0.6934
C13 C 0.6729(5) 0.27989(18) 0.65048(17)
C14 C 0.7233(5) 0.3245(2) 0.64868(18)
H24 H 0.7595 0.3328 0.6202
C15 C 0.7208(4) 0.35690(16) 0.6886(2)
C16 C 0.5558(9) 0.2863(3) 0.7775(4)
C17 C 0.4752(9) 0.3251(4) 0.7856(5)
H25 H 0.5038 0.3573 0.7944
H26 H 0.4331 0.3139 0.8123
H27 H 0.4378 0.3287 0.7552
C18 C 0.6196(9) 0.2843(4) 0.8242(4)
H28 H 0.6603 0.2546 0.8229
H29 H 0.5787 0.2829 0.8535
H30 H 0.6600 0.3141 0.8256
C19 C 0.5022(9) 0.2351(3) 0.7724(4)
H31 H 0.4449 0.2394 0.7519
H32 H 0.4831 0.2233 0.8052
H33 H 0.5450 0.2107 0.7571
C20 C 0.6769(8) 0.2468(3) 0.6062(4)
C21 C 0.7421(10) 0.2510(4) 0.5700(5)
H34 H 0.7904 0.2757 0.5733
C22 C 0.7432(10) 0.2222(4) 0.5296(5)
H35 H 0.7892 0.2293 0.5047
C23 C 0.6146(11) 0.1791(5) 0.5585(6)
H36 H 0.5667 0.1543 0.5546
C24 C 0.6120(11) 0.2078(4) 0.5994(5)
H37 H 0.5651 0.2014 0.6240
C25 C 0.7699(8) 0.5332(3) 0.8339(4)
H38 H 0.7052 0.5302 0.8488
H39 H 0.7885 0.5687 0.8341
C26 C 0.8416(5) 0.50312(17) 0.8637(2)
C27 C 0.8404(5) 0.45141(18) 0.8628(2)
C28 C 0.9076(5) 0.42463(13) 0.8898(2)
C29 C 0.9761(5) 0.44957(19) 0.9177(2)
H40 H 1.0221 0.4313 0.9361
C30 C 0.9773(5) 0.5013(2) 0.9186(2)
C31 C 0.9100(5) 0.52806(13) 0.8916(2)
H41 H 0.9109 0.5634 0.8922
C32 C 0.9119(13) 0.3659(4) 0.8875(5)
C33 C 0.9249(15) 0.3485(4) 0.8333(6)
H42 H 0.8631 0.3502 0.8162
H43 H 0.9487 0.3142 0.8328
H44 H 0.9712 0.3703 0.8167
C34 C 0.8187(15) 0.3472(4) 0.9075(6)
H45 H 0.8143 0.3553 0.9426
H46 H 0.8151 0.3111 0.9031
H47 H 0.7656 0.3631 0.8897
C35 C 0.9992(16) 0.3457(6) 0.9131(10)
H48 H 1.0538 0.3679 0.9071
H49 H 1.0138 0.3125 0.9002
H50 H 0.9868 0.3436 0.9486
C36 C 1.0513(8) 0.5282(4) 0.9491(4)
C37 C 1.0835(11) 0.5731(5) 0.9327(5)
H51 H 1.0599 0.5863 0.9026
C38 C 1.1519(11) 0.6002(5) 0.9606(6)
H52 H 1.1726 0.6316 0.9485
C39 C 1.1505(9) 0.5405(4) 1.0190(4)
H53 H 1.1717 0.5283 1.0500
C40 C 1.0838(9) 0.5137(4) 0.9931(4)
H54 H 1.0597 0.4838 1.0070
C41 C 0.3874(8) 0.4476(3) 0.7195(4)
H55 H 0.4262 0.4236 0.7394
C42 C 0.3690(7) 0.4929(3) 0.7509(4)
H56 H 0.3287 0.5169 0.7318
C43 C 0.3136(11) 0.4776(4) 0.7984(5)
H57 H 0.3532 0.4546 0.8184
H58 H 0.2991 0.5074 0.8185
C44 C 0.2202(11) 0.4519(5) 0.7827(7)
H59 H 0.1834 0.4426 0.8125
H60 H 0.1808 0.4757 0.7636
C45 C 0.2375(12) 0.4066(5) 0.7524(8)
H61 H 0.1756 0.3914 0.7427
H62 H 0.2744 0.3818 0.7717
C46 C 0.2952(10) 0.4223(5) 0.7056(6)
H63 H 0.3094 0.3924 0.6856
H64 H 0.2557 0.4452 0.6854
C47 C 0.4919(8) 0.4188(3) 0.6539(3)
H65 H 0.4419 0.3937 0.6466
H66 H 0.5366 0.4039 0.6781
C48 C 0.6084(5) 0.39669(16) 0.52939(17)
C49 C 0.5532(5) 0.39123(16) 0.57171(19)
H67 H 0.5189 0.3612 0.5773
C50 C 0.5483(4) 0.42969(18) 0.60586(17)
C51 C 0.5985(5) 0.47361(15) 0.59768(16)
C52 C 0.6537(5) 0.47907(17) 0.55536(18)
C53 C 0.6586(4) 0.4406(2) 0.52121(16)
H68 H 0.6963 0.4443 0.4923
C54 C 0.7105(9) 0.5274(3) 0.5457(4)
C55 C 0.7677(10) 0.5260(4) 0.4966(4)
H69 H 0.8172 0.5002 0.4985
H70 H 0.7981 0.5584 0.4910
H71 H 0.7239 0.5186 0.4694
C56 C 0.6476(10) 0.5735(4) 0.5451(5)
H72 H 0.6061 0.5727 0.5160
H73 H 0.6881 0.6032 0.5441
H74 H 0.6078 0.5741 0.5749
C57 C 0.7863(8) 0.5361(5) 0.5867(4)
H75 H 0.7541 0.5382 0.6187
H76 H 0.8206 0.5673 0.5802
H77 H 0.8321 0.5085 0.5870
C58 C 0.6107(9) 0.3552(3) 0.4933(3)
C59 C 0.5452(9) 0.3174(4) 0.4936(4)
H78 H 0.4965 0.3176 0.5181
C60 C 0.5466(9) 0.2789(4) 0.4598(4)
H79 H 0.5014 0.2527 0.4631
C61 C 0.6713(10) 0.3146(4) 0.4205(4)
H80 H 0.7147 0.3157 0.3935
C62 C 0.6775(10) 0.3524(4) 0.4551(4)
H81 H 0.7272 0.3765 0.4528
C63 C 0.4509(9) 0.5672(3) 0.7839(4)
H82 H 0.5150 0.5830 0.7865
H83 H 0.4239 0.5645 0.8175
C64 C 0.3865(4) 0.59971(19) 0.75305(16)
C65 C 0.3923(4) 0.60012(19) 0.70194(17)
C66 C 0.3278(5) 0.6283(2) 0.67460(13)
C67 C 0.2575(4) 0.6561(2) 0.69838(18)
H84 H 0.2134 0.6753 0.6797
C68 C 0.2517(4) 0.6556(2) 0.74949(19)
C69 C 0.3163(5) 0.6275(2) 0.77683(13)
H85 H 0.3123 0.6272 0.8118
C70 C 0.3340(10) 0.6271(4) 0.6180(4)
C71 C 0.3173(15) 0.5724(5) 0.5994(5)
H86 H 0.3668 0.5505 0.6132
H87 H 0.3210 0.5716 0.5633
H88 H 0.2538 0.5609 0.6100
C72 C 0.4305(12) 0.6512(5) 0.6000(4)
H89 H 0.4364 0.6848 0.6138
H90 H 0.4307 0.6531 0.5640
H91 H 0.4847 0.6308 0.6111
C73 C 0.2509(12) 0.6600(6) 0.5959(5)
H92 H 0.1888 0.6451 0.6042
H93 H 0.2578 0.6618 0.5600
H94 H 0.2545 0.6936 0.6098
C74 C 0.1776(9) 0.6850(3) 0.7755(4)
C75 C 0.1346(12) 0.6672(4) 0.8187(5)
H95 H 0.1542 0.6361 0.8319
C76 C 0.0655(10) 0.6939(4) 0.8418(5)
H96 H 0.0330 0.6787 0.8687
C77 C 0.0824(9) 0.7583(3) 0.7886(4)
H97 H 0.0651 0.7908 0.7779
C78 C 0.1478(9) 0.7328(4) 0.7624(4)
H98 H 0.1748 0.7478 0.7339
C79 C 1.3928(13) 0.5384(5) 1.0380(8)
C80 C 1.4385(14) 0.4847(7) 1.0335(9)
H99 H 1.4079 0.4667 1.0063
H100 H 1.4284 0.4664 1.0644
H101 H 1.5075 0.4876 1.0272
C81 C -0.1729(15) 0.7605(9) 0.7768(8)
C82 C -0.215(2) 0.7538(11) 0.7236(12)
H102 H -0.2115 0.7857 0.7060
H103 H -0.2815 0.7428 0.7257
H104 H -0.1767 0.7289 0.7058
C83 C 0.0241(13) 0.8548(5) 0.9128(7)
C84 C 0.0970(15) 0.8891(7) 0.9436(9)
H105 H 0.0791 0.8885 0.9785
H106 H 0.0938 0.9234 0.9313
H107 H 0.1625 0.8764 0.9398
C85 C -0.3139(11) 0.8119(5) 0.8965(4)
C86 C -0.3683(13) 0.7803(7) 0.8545(8)
H108 H -0.3395 0.7875 0.8224
H109 H -0.4363 0.7895 0.8540
H110 H -0.3621 0.7447 0.8617
Cd1B Cd -0.19207(7) 0.87068(3) 0.95806(3)
Cd1C Cd 0.69207(7) 0.12932(3) 0.45806(3)
Cd2A Cd 0.59235(7) 0.21620(3) 0.36201(3)
O13B O 1.4579(8) 0.6663(3) 1.0692(6)
O14B O 1.2675(7) 0.6747(3) 1.1105(3)
O15B O 1.1445(9) 0.6786(5) 1.0650(4)
N3C N 1.3175(8) 0.6838(3) 0.9777(3)
N7A N -0.1109(9) 0.7225(3) 0.9220(3)
loop_
_geom_bond_atom_site_label_1
_geom_bond_atom_site_label_2
_geom_bond_site_symmetry_1
_geom_bond_site_symmetry_2
Cd1 O8 1_555 1_555
Cd2 O10 1_555 1_555
Ti1 O1 1_555 1_555
Ti2 O3 1_555 1_555
O1 C10 1_555 1_555
O2 Ti1 1_555 1_555
O3 C51 1_555 1_555
O4 Ti2 1_555 1_555
O5 Ti1 1_555 1_555
O6 Ti1 1_555 1_555
O7 Ti2 1_555 1_555
O8 C79 1_555 1_555
O9 Cd1 1_555 1_555
O10 C81 1_555 1_555
O11 Cd2 1_555 1_555
O12 Cd2 1_555 1_555
O13 Cd2 1_555 1_555
O14 Cd2 1_555 1_555
O15 C85 1_555 1_555
N1 Ti1 1_555 1_555
H1 N1 1_555 1_555
N2 Ti1 1_555 1_555
H2 N2 1_555 1_555
N3 C22 1_555 1_555
N4 Cd1 1_555 1_555
N5 Ti2 1_555 1_555
H3 N5 1_555 1_555
N6 Ti2 1_555 1_555
H4 N6 1_555 1_555
N7 C60 1_555 1_555
N8 Cd2 1_555 1_555
C1 N1 1_555 1_555
H5 C1 1_555 1_555
C2 O6 1_555 1_555
H6 C2 1_555 1_555
H7 C2 1_555 1_555
H8 C2 1_555 1_555
C3 N2 1_555 1_555
H9 C3 1_555 1_555
C4 C3 1_555 1_555
H10 C4 1_555 1_555
H11 C4 1_555 1_555
C5 C4 1_555 1_555
H12 C5 1_555 1_555
H13 C5 1_555 1_555
C6 C5 1_555 1_555
H14 C6 1_555 1_555
H15 C6 1_555 1_555
C7 C1 1_555 1_555
H16 C7 1_555 1_555
H17 C7 1_555 1_555
C8 N2 1_555 1_555
H18 C8 1_555 1_555
H19 C8 1_555 1_555
C9 O7 1_555 1_555
H20 C9 1_555 1_555
H21 C9 1_555 1_555
H22 C9 1_555 1_555
C10 C11 1_555 1_555
C11 C12 1_555 1_555
C12 H23 1_555 1_555
C13 C12 1_555 1_555
C14 C13 1_555 1_555
H24 C14 1_555 1_555
C15 C8 1_555 1_555
C16 C11 1_555 1_555
C17 C16 1_555 1_555
H25 C17 1_555 1_555
H26 C17 1_555 1_555
H27 C17 1_555 1_555
C18 C16 1_555 1_555
H28 C18 1_555 1_555
H29 C18 1_555 1_555
H30 C18 1_555 1_555
C19 C16 1_555 1_555
H31 C19 1_555 1_555
H32 C19 1_555 1_555
H33 C19 1_555 1_555
C20 C13 1_555 1_555
C21 C20 1_555 1_555
H34 C21 1_555 1_555
C22 C21 1_555 1_555
H35 C22 1_555 1_555
C23 N3 1_555 1_555
H36 C23 1_555 1_555
C24 C20 1_555 1_555
H37 C24 1_555 1_555
C25 N1 1_555 1_555
H38 C25 1_555 1_555
H39 C25 1_555 1_555
C26 C25 1_555 1_555
C27 O2 1_555 1_555
C28 C27 1_555 1_555
C29 C28 1_555 1_555
H40 C29 1_555 1_555
C30 C29 1_555 1_555
C31 C26 1_555 1_555
H41 C31 1_555 1_555
C32 C28 1_555 1_555
C33 C32 1_555 1_555
H42 C33 1_555 1_555
H43 C33 1_555 1_555
H44 C33 1_555 1_555
C34 C32 1_555 1_555
H45 C34 1_555 1_555
H46 C34 1_555 1_555
H47 C34 1_555 1_555
C35 C32 1_555 1_555
H48 C35 1_555 1_555
H49 C35 1_555 1_555
H50 C35 1_555 1_555
C36 C30 1_555 1_555
C37 C36 1_555 1_555
H51 C37 1_555 1_555
C38 N4 1_555 1_555
H52 C38 1_555 1_555
C39 N4 1_555 1_555
H53 C39 1_555 1_555
C40 C36 1_555 1_555
H54 C40 1_555 1_555
C41 N5 1_555 1_555
H55 C41 1_555 1_555
C42 N6 1_555 1_555
H56 C42 1_555 1_555
C43 C42 1_555 1_555
H57 C43 1_555 1_555
H58 C43 1_555 1_555
C44 C43 1_555 1_555
H59 C44 1_555 1_555
H60 C44 1_555 1_555
C45 C44 1_555 1_555
H61 C45 1_555 1_555
H62 C45 1_555 1_555
C46 C41 1_555 1_555
H63 C46 1_555 1_555
H64 C46 1_555 1_555
C47 N5 1_555 1_555
H65 C47 1_555 1_555
H66 C47 1_555 1_555
C48 C49 1_555 1_555
C49 H67 1_555 1_555
C50 C47 1_555 1_555
C51 C50 1_555 1_555
C52 C51 1_555 1_555
C53 C48 1_555 1_555
H68 C53 1_555 1_555
C54 C52 1_555 1_555
C55 C54 1_555 1_555
H69 C55 1_555 1_555
H70 C55 1_555 1_555
H71 C55 1_555 1_555
C56 C54 1_555 1_555
H72 C56 1_555 1_555
H73 C56 1_555 1_555
H74 C56 1_555 1_555
C57 C54 1_555 1_555
H75 C57 1_555 1_555
H76 C57 1_555 1_555
H77 C57 1_555 1_555
C58 C48 1_555 1_555
C59 C58 1_555 1_555
H78 C59 1_555 1_555
C60 C59 1_555 1_555
H79 C60 1_555 1_555
C61 N7 1_555 1_555
H80 C61 1_555 1_555
C62 C58 1_555 1_555
H81 C62 1_555 1_555
C63 N6 1_555 1_555
H82 C63 1_555 1_555
H83 C63 1_555 1_555
C64 C63 1_555 1_555
C65 O4 1_555 1_555
C66 C65 1_555 1_555
C67 C66 1_555 1_555
H84 C67 1_555 1_555
C68 C67 1_555 1_555
C69 C64 1_555 1_555
H85 C69 1_555 1_555
C70 C66 1_555 1_555
C71 C70 1_555 1_555
H86 C71 1_555 1_555
H87 C71 1_555 1_555
H88 C71 1_555 1_555
C72 C70 1_555 1_555
H89 C72 1_555 1_555
H90 C72 1_555 1_555
H91 C72 1_555 1_555
C73 C70 1_555 1_555
H92 C73 1_555 1_555
H93 C73 1_555 1_555
H94 C73 1_555 1_555
C74 C68 1_555 1_555
C75 C74 1_555 1_555
H95 C75 1_555 1_555
C76 N8 1_555 1_555
H96 C76 1_555 1_555
C77 N8 1_555 1_555
H97 C77 1_555 1_555
C78 C74 1_555 1_555
H98 C78 1_555 1_555
C79 O9 1_555 1_555
C80 C79 1_555 1_555
H99 C80 1_555 1_555
H100 C80 1_555 1_555
H101 C80 1_555 1_555
C81 O11 1_555 1_555
C82 C81 1_555 1_555
H102 C82 1_555 1_555
H103 C82 1_555 1_555
H104 C82 1_555 1_555
C83 O12 1_555 1_555
C84 C83 1_555 1_555
H105 C84 1_555 1_555
H106 C84 1_555 1_555
H107 C84 1_555 1_555
C85 O14 1_555 1_555
C86 C85 1_555 1_555
H108 C86 1_555 1_555
H109 C86 1_555 1_555
H110 C86 1_555 1_555
Cd1B O13 1_555 1_555
Cd1C N3 1_555 1_555
Cd2A N7 1_555 1_555
O13B Cd1 1_555 1_555
O14B Cd1 1_555 1_555
O15B Cd1 1_555 1_555
N3C Cd1 1_555 1_555
N7A Cd2 1_555 1_555
Ti2 O5 1_555 1_555
O13 C83 1_555 1_555
O14 Cd1B 1_555 1_555
O15 Cd1B 1_555 1_555
C1 C3 1_555 1_555
C6 C7 1_555 1_555
C10 C15 1_555 1_555
C14 C15 1_555 1_555
C23 C24 1_555 1_555
C26 C27 1_555 1_555
C30 C31 1_555 1_555
C37 C38 1_555 1_555
C39 C40 1_555 1_555
C41 C42 1_555 1_555
C45 C46 1_555 1_555
C49 C50 1_555 1_555
C52 C53 1_555 1_555
C61 C62 1_555 1_555
C64 C65 1_555 1_555
C68 C69 1_555 1_555
C75 C76 1_555 1_555
C77 C78 1_555 1_555

#END
