
#######################################################################
#
#                 Cambridge Crystallographic Data Centre
#                                CCDC 
#
#######################################################################
#
# If this CIF has been generated from an entry in the Cambridge 
# Structural Database, then it will include bibliographic, chemical, 
# crystal, experimental, refinement or atomic coordinate data resulting 
# from the CCDC's data processing and validation procedures.
#
#######################################################################

data_HUHPAB
_symmetry_cell_setting           monoclinic
_symmetry_space_group_name_H-M   'C 2/m'
_symmetry_Int_Tables_number      12
_space_group_name_Hall           '-C 2y'
loop_
_symmetry_equiv_pos_site_id
_symmetry_equiv_pos_as_xyz
1 x,y,z
2 x,-y,z
3 1/2+x,1/2+y,z
4 1/2+x,1/2-y,z
5 -x,-y,-z
6 -x,y,-z
7 1/2-x,1/2-y,-z
8 1/2-x,1/2+y,-z
_cell_length_a                   9.793(2)
_cell_length_b                   7.179(2)
_cell_length_c                   7.872(2)
_cell_angle_alpha                90
_cell_angle_beta                 97.56(2)
_cell_angle_gamma                90
_cell_volume                     548.622
loop_
_atom_site_label
_atom_site_type_symbol
_atom_site_fract_x
_atom_site_fract_y
_atom_site_fract_z
Co1 Co 0.5000 0.5000 0.0000
Cl1 Cl 0.8269(2) 0.5000 -0.4449(3)
O1 O 0.6343(6) 0.5000 -0.1792(7)
O2 O 0.6349(6) 0.5000 -0.7736(7)
N1 N 0.5000 0.806(1) 0.0000
C1 C 0.5782(9) 0.5000 -0.3338(10)
C2 C 0.5798(9) 0.5000 -0.638(1)
C3 C 0.6488(9) 0.5000 -0.475(1)
C4 C 0.5902(6) 0.9033(9) -0.0777(8)
H1 H 0.6665 0.8411 -0.1304
C2D C 0.4202(9) 0.5000 -0.362(1)
O2D O 0.3651(6) 0.5000 -0.2264(7)
C3D C 0.3512(9) 0.5000 -0.525(1)
Cl1D Cl 0.1731(2) 0.5000 -0.5551(3)
C1D C 0.4218(9) 0.5000 -0.6662(10)
O1D O 0.3657(6) 0.5000 -0.8208(7)
C4A C 0.5902(6) 1.0967(9) -0.0777(8)
N1A N 0.5000 1.194(1) 0.0000
C4D C 0.4098(6) 1.0967(9) 0.0777(8)
C4E C 0.4098(6) 0.9033(9) 0.0777(8)
H1E H 0.3335 0.8411 0.1304
H1D H 0.3335 1.1589 0.1304
H1A H 0.6665 1.1589 -0.1304
O1D_2 O 0.3657(6) 0.5000 0.1792(7)
O2_2 O 0.6349(6) 0.5000 0.2264(7)
N1A_2 N 0.5000 0.194(1) 0.0000
Co1_2 Co 0.5000 0.5000 -1.0000
Co1_3 Co 0.5000 1.5000 0.0000
loop_
_geom_bond_atom_site_label_1
_geom_bond_atom_site_label_2
_geom_bond_site_symmetry_1
_geom_bond_site_symmetry_2
Co1 O1 1_555 1_555
Cl1 C3 1_555 1_555
O1 C1 1_555 1_555
O2 C2 1_555 1_555
N1 Co1 1_555 1_555
C1 C3 1_555 1_555
C2 C3 1_555 1_555
C4 N1 1_555 1_555
H1 C4 1_555 1_555
C2D C1 1_555 1_555
O2D Co1 1_555 1_555
C3D C2D 1_555 1_555
Cl1D C3D 1_555 1_555
C1D C2 1_555 1_555
O1D C1D 1_555 1_555
C4A C4 1_555 1_555
N1A C4A 1_555 1_555
C4D N1A 1_555 1_555
C4E N1 1_555 1_555
H1E C4E 1_555 1_555
H1D C4D 1_555 1_555
H1A C4A 1_555 1_555
O1D_2 Co1 1_555 1_555
O2_2 Co1 1_555 1_555
N1A_2 Co1 1_555 1_555
Co1_2 O2 1_555 1_555
Co1_3 N1A 1_555 1_555
C2D O2D 1_555 1_555
C3D C1D 1_555 1_555
O1D Co1_2 1_555 1_555
C4D C4E 1_555 1_555

#END
