
#######################################################################
#
#                 Cambridge Crystallographic Data Centre
#                                CCDC 
#
#######################################################################
#
# If this CIF has been generated from an entry in the Cambridge 
# Structural Database, then it will include bibliographic, chemical, 
# crystal, experimental, refinement or atomic coordinate data resulting 
# from the CCDC's data processing and validation procedures.
#
#######################################################################

data_HUHPEF
_symmetry_cell_setting           monoclinic
_symmetry_space_group_name_H-M   'C 2/m'
_symmetry_Int_Tables_number      12
_space_group_name_Hall           '-C 2y'
loop_
_symmetry_equiv_pos_site_id
_symmetry_equiv_pos_as_xyz
1 x,y,z
2 x,-y,z
3 1/2+x,1/2+y,z
4 1/2+x,1/2-y,z
5 -x,-y,-z
6 -x,y,-z
7 1/2-x,1/2-y,-z
8 1/2-x,1/2+y,-z
_cell_length_a                   9.632(1)
_cell_length_b                   7.382(2)
_cell_length_c                   8.080(1)
_cell_angle_alpha                90
_cell_angle_beta                 97.60(1)
_cell_angle_gamma                90
_cell_volume                     569.469
loop_
_atom_site_label
_atom_site_type_symbol
_atom_site_fract_x
_atom_site_fract_y
_atom_site_fract_z
Mn1 Mn 0.5000 0.5000 0.0000
Cl1 Cl 0.16779(7) 0.5000 -0.55255(9)
O1 O 0.3623(2) 0.5000 -0.2336(2)
O2 O 0.3622(2) 0.5000 -0.8124(2)
N1 N 0.5000 0.8115(3) 0.0000
C1 C 0.4196(3) 0.5000 -0.3635(3)
C2 C 0.4195(3) 0.5000 -0.6628(3)
C3 C 0.3485(3) 0.5000 -0.5248(3)
C4 C 0.4153(2) 0.9069(3) 0.0846(2)
H1 H 0.354(2) 0.839(3) 0.147(2)
C2D C 0.5805(3) 0.5000 -0.3372(3)
O2D O 0.6378(2) 0.5000 -0.1876(2)
C3D C 0.6515(3) 0.5000 -0.4752(3)
Cl1D Cl 0.83221(7) 0.5000 -0.44745(9)
C1D C 0.5804(3) 0.5000 -0.6365(3)
O1D O 0.6377(2) 0.5000 -0.7664(2)
C4A C 0.4153(2) 1.0931(3) 0.0846(2)
N1A N 0.5000 1.1885(3) 0.0000
C4D C 0.5847(2) 1.0931(3) -0.0846(2)
C4E C 0.5847(2) 0.9069(3) -0.0846(2)
H1E H 0.646(2) 0.839(3) -0.147(2)
H1D H 0.646(2) 1.161(3) -0.147(2)
H1A H 0.354(2) 1.161(3) 0.147(2)
O1D_2 O 0.6377(2) 0.5000 0.2336(2)
O2_2 O 0.3622(2) 0.5000 0.1876(2)
N1A_2 N 0.5000 0.1885(3) 0.0000
Mn1_2 Mn 0.5000 0.5000 -1.0000
Mn1_3 Mn 0.5000 1.5000 0.0000
loop_
_geom_bond_atom_site_label_1
_geom_bond_atom_site_label_2
_geom_bond_site_symmetry_1
_geom_bond_site_symmetry_2
Mn1 O1 1_555 1_555
Cl1 C3 1_555 1_555
O1 C1 1_555 1_555
O2 C2 1_555 1_555
N1 Mn1 1_555 1_555
C1 C3 1_555 1_555
C2 C3 1_555 1_555
C4 N1 1_555 1_555
H1 C4 1_555 1_555
C2D C1 1_555 1_555
O2D Mn1 1_555 1_555
C3D C2D 1_555 1_555
Cl1D C3D 1_555 1_555
C1D C2 1_555 1_555
O1D C1D 1_555 1_555
C4A C4 1_555 1_555
N1A C4A 1_555 1_555
C4D N1A 1_555 1_555
C4E N1 1_555 1_555
H1E C4E 1_555 1_555
H1D C4D 1_555 1_555
H1A C4A 1_555 1_555
O1D_2 Mn1 1_555 1_555
O2_2 Mn1 1_555 1_555
N1A_2 Mn1 1_555 1_555
Mn1_2 O2 1_555 1_555
Mn1_3 N1A 1_555 1_555
C2D O2D 1_555 1_555
C3D C1D 1_555 1_555
O1D Mn1_2 1_555 1_555
C4D C4E 1_555 1_555

#END
