
#######################################################################
#
#                 Cambridge Crystallographic Data Centre
#                                CCDC 
#
#######################################################################
#
# If this CIF has been generated from an entry in the Cambridge 
# Structural Database, then it will include bibliographic, chemical, 
# crystal, experimental, refinement or atomic coordinate data resulting 
# from the CCDC's data processing and validation procedures.
#
#######################################################################

data_HUHWOY
_symmetry_cell_setting           monoclinic
_symmetry_space_group_name_H-M   'P 21/n'
_symmetry_Int_Tables_number      14
_space_group_name_Hall           '-P 2yn'
loop_
_symmetry_equiv_pos_site_id
_symmetry_equiv_pos_as_xyz
1 x,y,z
2 1/2-x,1/2+y,1/2-z
3 -x,-y,-z
4 1/2+x,1/2-y,1/2+z
_cell_length_a                   15.0312(9)
_cell_length_b                   25.4508(11)
_cell_length_c                   21.7048(12)
_cell_angle_alpha                90
_cell_angle_beta                 92.051(4)
_cell_angle_gamma                90
_cell_volume                     8297.98
loop_
_atom_site_label
_atom_site_type_symbol
_atom_site_fract_x
_atom_site_fract_y
_atom_site_fract_z
Cd1 Cd 0.28555(4) 0.57665(2) 0.69947(3)
Cd2 Cd 0.29171(5) 0.92550(2) 0.30349(3)
O1 O -0.4961(5) 0.8409(4) 0.6151(4)
O2 O -0.4923(9) 0.6598(5) 0.3742(6)
O3 O 1.0843(6) 0.7340(5) 0.4867(5)
O4 O 0.3502(5) 0.6329(3) 0.7777(3)
O5 O 0.2239(5) 0.6004(3) 0.7996(3)
O6 O 0.2866(7) 0.6560(4) 0.8621(4)
O7 O 0.1617(5) 0.5201(3) 0.6760(4)
O8 O 0.1345(7) 0.4780(4) 0.5926(5)
O9 O 0.2497(6) 0.5301(3) 0.6008(4)
O10 O 0.2617(6) 0.9678(3) 0.4018(4)
O11 O 0.1478(7) 1.0169(3) 0.4150(5)
O12 O 0.1680(5) 0.9810(3) 0.3276(5)
O13 O 0.3591(5) 0.8718(3) 0.2269(3)
O14 O 0.2320(6) 0.9010(3) 0.1974(4)
O15 O 0.2960(6) 0.8418(3) 0.1434(4)
N1 N 0.1481(6) 1.0042(3) 0.7536(4)
N2 N 0.0588(5) 0.8251(3) 0.6782(4)
N3 N 0.1893(5) 0.6456(3) 0.6719(4)
N4 N 0.1939(7) 0.8570(3) 0.3218(5)
N5 N 0.0589(7) 0.6781(3) 0.3081(4)
N6 N 0.1419(7) 0.4978(3) 0.2383(4)
N7 N 0.4044(6) 0.8857(3) 0.3644(4)
N8 N 0.5226(5) 0.7440(3) 0.5005(4)
N9 N 0.3984(5) 0.6116(3) 0.6408(4)
N10 N 0.2868(6) 0.6297(3) 0.8146(4)
N11 N 0.1816(7) 0.5090(3) 0.6221(4)
N12 N 0.1904(7) 0.9892(3) 0.3840(6)
N13 N 0.2953(6) 0.8711(3) 0.1876(4)
C1 C 0.0767(8) 1.0090(5) 0.7178(8)
C2 C 0.0327(9) 0.9687(4) 0.6903(8)
C3 C 0.0628(7) 0.9172(4) 0.7023(5)
C4 C 0.1399(7) 0.9128(4) 0.7347(5)
C5 C 0.1800(7) 0.9576(4) 0.7578(6)
C6 C 0.0133(7) 0.8702(4) 0.6788(5)
C7 C -0.0726(6) 0.7785(3) 0.6473(4)
C8 C 0.0157(7) 0.7807(3) 0.6628(4)
C9 C 0.0755(6) 0.7337(3) 0.6635(4)
C10 C 0.1655(7) 0.7379(4) 0.6677(6)
C11 C 0.2223(7) 0.6947(4) 0.6694(6)
C12 C 0.1000(6) 0.6407(4) 0.6678(5)
C13 C 0.0427(7) 0.6814(3) 0.6629(5)
C14 C -0.1227(6) 0.8255(3) 0.6471(4)
C15 C -0.0785(7) 0.8717(4) 0.6638(5)
C16 C -0.2198(6) 0.8264(3) 0.6342(4)
C17 C -0.2742(7) 0.7877(4) 0.6580(5)
C18 C -0.3660(7) 0.7909(4) 0.6517(5)
C19 C -0.4051(8) 0.8332(5) 0.6212(6)
C20 C -0.3546(7) 0.8707(4) 0.5946(5)
C21 C -0.2598(7) 0.8679(4) 0.6006(5)
C22 C -0.5534(9) 0.8099(6) 0.6497(8)
C23 C -0.6431(9) 0.8415(7) 0.6591(7)
C24 C -0.6895(16) 0.8540(11) 0.6012(9)
C25 C 0.1051(8) 0.8620(4) 0.3321(7)
C26 C 0.0480(9) 0.8202(4) 0.3318(6)
C27 C 0.0785(9) 0.7711(4) 0.3219(5)
C28 C 0.1693(9) 0.7648(4) 0.3116(6)
C29 C 0.2236(10) 0.8081(4) 0.3112(6)
C30 C 0.0200(9) 0.7223(4) 0.3225(5)
C31 C -0.0721(9) 0.7252(4) 0.3353(5)
C32 C -0.1208(9) 0.6791(5) 0.3350(5)
C33 C -0.0762(8) 0.6330(4) 0.3210(5)
C34 C 0.0103(8) 0.6339(4) 0.3073(5)
C35 C 0.0607(8) 0.5868(3) 0.2856(5)
C36 C 0.1329(9) 0.5908(4) 0.2506(6)
C37 C 0.1729(10) 0.5449(4) 0.2282(5)
C38 C 0.0751(9) 0.4939(4) 0.2754(6)
C39 C 0.0322(8) 0.5356(4) 0.2999(6)
C40 C -0.2175(12) 0.6789(7) 0.3463(8)
C41 C -0.2720(12) 0.7145(8) 0.3249(8)
C42 C -0.3669(13) 0.7106(8) 0.3292(8)
C43 C -0.3456(12) 0.6339(8) 0.3894(9)
C44 C -0.3954(13) 0.6699(8) 0.3619(9)
C45 C -0.2547(12) 0.6381(7) 0.3781(8)
C46 C 0.4844(7) 0.8739(4) 0.3474(5)
C47 C 0.5444(7) 0.8414(4) 0.3793(5)
C48 C 0.5147(7) 0.8181(4) 0.4319(4)
C49 C 0.4314(8) 0.8313(5) 0.4516(5)
C50 C 0.3780(8) 0.8661(5) 0.4182(5)
C51 C 0.5707(6) 0.7784(4) 0.4681(4)
C52 C 0.6607(7) 0.7787(4) 0.4667(4)
C53 C 0.7089(7) 0.7395(4) 0.5008(4)
C54 C 0.6602(6) 0.7051(4) 0.5353(4)
C55 C 0.5693(6) 0.7075(4) 0.5340(4)
C56 C 0.5139(6) 0.6726(3) 0.5705(4)
C57 C 0.5387(7) 0.6523(4) 0.6278(5)
C58 C 0.4807(6) 0.6226(4) 0.6595(5)
C59 C 0.3747(8) 0.6279(4) 0.5837(5)
C60 C 0.4290(7) 0.6583(4) 0.5480(5)
C61 C 0.8075(7) 0.7377(4) 0.4993(4)
C62 C 0.8532(7) 0.6895(5) 0.5090(5)
C63 C 0.9428(8) 0.6875(5) 0.5058(6)
C64 C 0.9898(9) 0.7316(6) 0.4926(6)
C65 C 0.9497(8) 0.7808(5) 0.4853(5)
C66 C 0.8572(8) 0.7822(5) 0.4879(5)
C67 C 1.1287(11) 0.6835(7) 0.4894(8)
C68 C 1.2145(11) 0.6922(7) 0.4613(8)
C69 C 1.2568(12) 0.7370(7) 0.4878(8)
C70 C -0.5417(9) 0.6979(7) 0.3373(9)
C71 C -0.6329(12) 0.6745(7) 0.3301(11)
C72 C -0.6678(15) 0.6196(7) 0.3315(10)
H1 H 0.0545 1.0434 0.7103
H2 H -0.0177 0.9748 0.6635
H3 H 0.1665 0.8794 0.7416
H4 H 0.2364 0.9536 0.7785
H5 H -0.1002 0.7460 0.6368
H6 H 0.1910 0.7720 0.6695
H7 H 0.2849 0.6999 0.6692
H8 H 0.0759 0.6062 0.6683
H9 H -0.0195 0.6750 0.6590
H10 H -0.1101 0.9040 0.6649
H11 H -0.2479 0.7585 0.6791
H12 H -0.4021 0.7641 0.6681
H13 H -0.3824 0.8986 0.5721
H14 H -0.2239 0.8937 0.5819
H15 H -0.5258 0.8024 0.6888
H16 H -0.5662 0.7780 0.6285
H17 H -0.6295 0.8732 0.6806
H18 H -0.6813 0.8206 0.6829
H19 H -0.7427 0.8727 0.6091
H20 H -0.6520 0.8752 0.5772
H21 H -0.7039 0.8226 0.5795
H22 H 0.0821 0.8961 0.3400
H23 H -0.0134 0.8257 0.3387
H24 H 0.1928 0.7308 0.3048
H25 H 0.2848 0.8033 0.3034
H26 H -0.0994 0.7579 0.3439
H27 H -0.1074 0.6005 0.3210
H28 H 0.1568 0.6244 0.2413
H29 H 0.2245 0.5483 0.2045
H30 H 0.0557 0.4597 0.2860
H31 H -0.0164 0.5301 0.3259
H32 H -0.2484 0.7448 0.3058
H33 H -0.4067 0.7350 0.3098
H34 H -0.3688 0.6071 0.4146
H35 H -0.2162 0.6111 0.3933
H36 H 0.5034 0.8887 0.3099
H37 H 0.6029 0.8356 0.3655
H38 H 0.4104 0.8162 0.4883
H39 H 0.3220 0.8761 0.4334
H40 H 0.6909 0.8045 0.4437
H41 H 0.6901 0.6796 0.5604
H42 H 0.5967 0.6589 0.6448
H43 H 0.5011 0.6088 0.6981
H44 H 0.3178 0.6181 0.5671
H45 H 0.4087 0.6694 0.5081
H46 H 0.8207 0.6585 0.5175
H47 H 0.9731 0.6553 0.5132
H48 H 0.9837 0.8116 0.4787
H49 H 0.8275 0.8148 0.4819
H50 H 1.1376 0.6723 0.5309
H51 H 1.0946 0.6580 0.4670
H52 H 1.2512 0.6621 0.4676
H53 H 1.2050 0.6981 0.4183
H54 H 1.3125 0.7427 0.4694
H55 H 1.2663 0.7311 0.5307
H56 H 1.2201 0.7670 0.4815
H57 H -0.5415 0.7316 0.3561
H58 H -0.5174 0.7004 0.2976
H59 H -0.6602 0.6892 0.3650
H60 H -0.6581 0.6897 0.2936
H61 H -0.7310 0.6203 0.3290
H62 H -0.6483 0.6015 0.3678
H63 H -0.6463 0.6020 0.2964
Cd1A Cd 0.21445(4) 1.07665(2) 0.80053(3)
Cd2A Cd 0.20829(5) 0.42550(2) 0.19651(3)
N1A N 0.3519(6) 0.5042(3) 0.7464(4)
N6A N 0.3581(7) 0.9978(3) 0.2617(4)
loop_
_geom_bond_atom_site_label_1
_geom_bond_atom_site_label_2
_geom_bond_site_symmetry_1
_geom_bond_site_symmetry_2
Cd1 O4 1_555 1_555
Cd2 O10 1_555 1_555
O1 C19 1_555 1_555
O2 C44 1_555 1_555
O3 C64 1_555 1_555
O4 N10 1_555 1_555
O5 Cd1 1_555 1_555
O6 N10 1_555 1_555
O7 Cd1 1_555 1_555
O8 N11 1_555 1_555
O9 Cd1 1_555 1_555
O10 N12 1_555 1_555
O11 N12 1_555 1_555
O12 Cd2 1_555 1_555
O13 Cd2 1_555 1_555
O14 Cd2 1_555 1_555
O15 N13 1_555 1_555
N1 C1 1_555 1_555
N2 C6 1_555 1_555
N3 Cd1 1_555 1_555
N4 Cd2 1_555 1_555
N5 C30 1_555 1_555
N6 C37 1_555 1_555
N7 Cd2 1_555 1_555
N8 C51 1_555 1_555
N9 Cd1 1_555 1_555
N10 O5 1_555 1_555
N11 O7 1_555 1_555
N12 O12 1_555 1_555
N13 O13 1_555 1_555
C1 C2 1_555 1_555
C2 C3 1_555 1_555
C3 C4 1_555 1_555
C4 C5 1_555 1_555
C5 N1 1_555 1_555
C6 C3 1_555 1_555
C7 C8 1_555 1_555
C8 N2 1_555 1_555
C9 C8 1_555 1_555
C10 C9 1_555 1_555
C11 N3 1_555 1_555
C12 N3 1_555 1_555
C13 C9 1_555 1_555
C14 C7 1_555 1_555
C15 C6 1_555 1_555
C16 C14 1_555 1_555
C17 C16 1_555 1_555
C18 C17 1_555 1_555
C19 C18 1_555 1_555
C20 C19 1_555 1_555
C21 C16 1_555 1_555
C22 O1 1_555 1_555
C23 C22 1_555 1_555
C24 C23 1_555 1_555
C25 N4 1_555 1_555
C26 C25 1_555 1_555
C27 C26 1_555 1_555
C28 C27 1_555 1_555
C29 N4 1_555 1_555
C30 C27 1_555 1_555
C31 C30 1_555 1_555
C32 C31 1_555 1_555
C33 C32 1_555 1_555
C34 N5 1_555 1_555
C35 C34 1_555 1_555
C36 C35 1_555 1_555
C37 C36 1_555 1_555
C38 N6 1_555 1_555
C39 C35 1_555 1_555
C40 C32 1_555 1_555
C41 C40 1_555 1_555
C42 C41 1_555 1_555
C43 C44 1_555 1_555
C44 C42 1_555 1_555
C45 C40 1_555 1_555
C46 N7 1_555 1_555
C47 C46 1_555 1_555
C48 C47 1_555 1_555
C49 C48 1_555 1_555
C50 N7 1_555 1_555
C51 C48 1_555 1_555
C52 C51 1_555 1_555
C53 C52 1_555 1_555
C54 C53 1_555 1_555
C55 N8 1_555 1_555
C56 C55 1_555 1_555
C57 C56 1_555 1_555
C58 N9 1_555 1_555
C59 N9 1_555 1_555
C60 C56 1_555 1_555
C61 C53 1_555 1_555
C62 C61 1_555 1_555
C63 C62 1_555 1_555
C64 C63 1_555 1_555
C65 C64 1_555 1_555
C66 C61 1_555 1_555
C67 O3 1_555 1_555
C68 C67 1_555 1_555
C69 C68 1_555 1_555
C70 O2 1_555 1_555
C71 C70 1_555 1_555
C72 C71 1_555 1_555
H1 C1 1_555 1_555
H2 C2 1_555 1_555
H3 C4 1_555 1_555
H4 C5 1_555 1_555
H5 C7 1_555 1_555
H6 C10 1_555 1_555
H7 C11 1_555 1_555
H8 C12 1_555 1_555
H9 C13 1_555 1_555
H10 C15 1_555 1_555
H11 C17 1_555 1_555
H12 C18 1_555 1_555
H13 C20 1_555 1_555
H14 C21 1_555 1_555
H15 C22 1_555 1_555
H16 C22 1_555 1_555
H17 C23 1_555 1_555
H18 C23 1_555 1_555
H19 C24 1_555 1_555
H20 C24 1_555 1_555
H21 C24 1_555 1_555
H22 C25 1_555 1_555
H23 C26 1_555 1_555
H24 C28 1_555 1_555
H25 C29 1_555 1_555
H26 C31 1_555 1_555
H27 C33 1_555 1_555
H28 C36 1_555 1_555
H29 C37 1_555 1_555
H30 C38 1_555 1_555
H31 C39 1_555 1_555
H32 C41 1_555 1_555
H33 C42 1_555 1_555
H34 C43 1_555 1_555
H35 C45 1_555 1_555
H36 C46 1_555 1_555
H37 C47 1_555 1_555
H38 C49 1_555 1_555
H39 C50 1_555 1_555
H40 C52 1_555 1_555
H41 C54 1_555 1_555
H42 C57 1_555 1_555
H43 C58 1_555 1_555
H44 C59 1_555 1_555
H45 C60 1_555 1_555
H46 C62 1_555 1_555
H47 C63 1_555 1_555
H48 C65 1_555 1_555
H49 C66 1_555 1_555
H50 C67 1_555 1_555
H51 C67 1_555 1_555
H52 C68 1_555 1_555
H53 C68 1_555 1_555
H54 C69 1_555 1_555
H55 C69 1_555 1_555
H56 C69 1_555 1_555
H57 C70 1_555 1_555
H58 C70 1_555 1_555
H59 C71 1_555 1_555
H60 C71 1_555 1_555
H61 C72 1_555 1_555
H62 C72 1_555 1_555
H63 C72 1_555 1_555
Cd1A N1 1_555 1_555
Cd2A N6 1_555 1_555
N1A Cd1 1_555 1_555
N6A Cd2 1_555 1_555
O9 N11 1_555 1_555
O14 N13 1_555 1_555
C10 C11 1_555 1_555
C12 C13 1_555 1_555
C14 C15 1_555 1_555
C20 C21 1_555 1_555
C28 C29 1_555 1_555
C33 C34 1_555 1_555
C38 C39 1_555 1_555
C43 C45 1_555 1_555
C49 C50 1_555 1_555
C54 C55 1_555 1_555
C57 C58 1_555 1_555
C59 C60 1_555 1_555
C65 C66 1_555 1_555

#END
