
#######################################################################
#
#                 Cambridge Crystallographic Data Centre
#                                CCDC 
#
#######################################################################
#
# If this CIF has been generated from an entry in the Cambridge 
# Structural Database, then it will include bibliographic, chemical, 
# crystal, experimental, refinement or atomic coordinate data resulting 
# from the CCDC's data processing and validation procedures.
#
#######################################################################

data_HUJBOD
_symmetry_cell_setting           monoclinic
_symmetry_space_group_name_H-M   'P 21/n'
_symmetry_Int_Tables_number      14
_space_group_name_Hall           '-P 2yn'
loop_
_symmetry_equiv_pos_site_id
_symmetry_equiv_pos_as_xyz
1 x,y,z
2 1/2+x,1/2-y,1/2+z
3 -x,-y,-z
4 1/2-x,1/2+y,1/2-z
_cell_length_a                   13.655(11)
_cell_length_b                   10.678(8)
_cell_length_c                   21.348(17)
_cell_angle_alpha                90
_cell_angle_beta                 100.412(15)
_cell_angle_gamma                90
_cell_volume                     3061.46
loop_
_atom_site_label
_atom_site_type_symbol
_atom_site_fract_x
_atom_site_fract_y
_atom_site_fract_z
K1 K 0.73342(14) 0.5482(2) 0.71720(10)
N1 N 0.5682(4) 0.5799(6) 0.7790(3)
P1 P 0.53280(16) 0.4515(2) 0.80251(10)
P2 P 0.63191(16) 0.2703(2) 0.70356(10)
Si1 Si 0.50051(19) 0.6937(2) 0.73597(12)
C1 C 0.4671(6) 0.3467(8) 0.7466(4)
H1 H 0.4007 0.3342 0.7495
C2 C 0.4995(6) 0.2816(7) 0.6997(4)
C3 C 0.4521(7) 0.4691(10) 0.8612(4)
C4 C 0.4684(7) 0.5735(11) 0.9006(5)
H2 H 0.5146 0.6336 0.8937
C5 C 0.4174(11) 0.5882(13) 0.9490(6)
H3 H 0.4327 0.6549 0.9771
C6 C 0.3454(11) 0.5083(17) 0.9569(6)
H4 H 0.3074 0.5237 0.9881
C7 C 0.3271(8) 0.4034(13) 0.9192(6)
H5 H 0.2794 0.3452 0.9259
C8 C 0.3815(8) 0.3865(10) 0.8710(5)
H6 H 0.3690 0.3166 0.8448
C9 C 0.6358(6) 0.3713(8) 0.8510(4)
C10 C 0.6284(7) 0.2494(10) 0.8690(4)
H7 H 0.5695 0.2071 0.8535
C11 C 0.7028(9) 0.1844(10) 0.9088(5)
H8 H 0.6938 0.1022 0.9209
C12 C 0.7893(9) 0.2462(13) 0.9291(4)
H9 H 0.8410 0.2055 0.9556
C13 C 0.8026(7) 0.3699(11) 0.9110(4)
H10 H 0.8621 0.4115 0.9257
C14 C 0.7260(7) 0.4289(9) 0.8711(4)
H11 H 0.7356 0.5099 0.8574
C15 C 0.6535(6) 0.3096(7) 0.6256(4)
C16 C 0.5944(7) 0.3795(9) 0.5807(4)
H12 H 0.5337 0.4078 0.5892
C17 C 0.6202(8) 0.4103(9) 0.5231(5)
H13 H 0.5755 0.4556 0.4936
C18 C 0.7114(9) 0.3755(9) 0.5082(5)
H14 H 0.7290 0.3963 0.4694
C19 C 0.7719(7) 0.3108(10) 0.5522(5)
H15 H 0.8339 0.2878 0.5438
C20 C 0.7481(7) 0.2765(8) 0.6089(4)
H16 H 0.7937 0.2307 0.6376
C21 C 0.4204(7) 0.2069(9) 0.6542(4)
C22 C 0.3376(7) 0.2889(9) 0.6190(4)
H17 H 0.3106 0.3391 0.6491
H18 H 0.2861 0.2370 0.5958
H19 H 0.3638 0.3425 0.5899
C23 C 0.3726(7) 0.1102(9) 0.6947(5)
H20 H 0.4235 0.0562 0.7169
H21 H 0.3240 0.0611 0.6671
H22 H 0.3410 0.1540 0.7249
C24 C 0.4607(7) 0.1273(9) 0.6044(4)
H23 H 0.5125 0.0732 0.6256
H24 H 0.4871 0.1813 0.5756
H25 H 0.4078 0.0777 0.5811
C25 C 0.3784(7) 0.7231(10) 0.7544(5)
H26 H 0.3842 0.7388 0.7992
H27 H 0.3367 0.6513 0.7429
H28 H 0.3494 0.7948 0.7309
C26 C 0.5789(8) 0.8389(10) 0.7494(6)
H29 H 0.5390 0.8776 0.7773
H30 H 0.5520 0.8749 0.7081
C27 C 0.4825(9) 0.6676(12) 0.6495(4)
H31 H 0.5457 0.6510 0.6374
H32 H 0.4534 0.7409 0.6276
H33 H 0.4390 0.5973 0.6382
H34 H 0.646(3) 0.842(12) 0.742(6)
P2C P 0.86809(16) 0.7703(2) 0.79644(10)
K1C K 0.76658(14) 0.0482(2) 0.78280(10)
loop_
_geom_bond_atom_site_label_1
_geom_bond_atom_site_label_2
_geom_bond_site_symmetry_1
_geom_bond_site_symmetry_2
K1 N1 1_555 1_555
N1 P1 1_555 1_555
P1 C1 1_555 1_555
P2 K1 1_555 1_555
Si1 N1 1_555 1_555
C1 H1 1_555 1_555
C2 P2 1_555 1_555
C3 P1 1_555 1_555
C4 C3 1_555 1_555
H2 C4 1_555 1_555
C5 C4 1_555 1_555
H3 C5 1_555 1_555
C6 C5 1_555 1_555
H4 C6 1_555 1_555
C7 C6 1_555 1_555
H5 C7 1_555 1_555
C8 C3 1_555 1_555
H6 C8 1_555 1_555
C9 P1 1_555 1_555
C10 C9 1_555 1_555
H7 C10 1_555 1_555
C11 C10 1_555 1_555
H8 C11 1_555 1_555
C12 C11 1_555 1_555
H9 C12 1_555 1_555
C13 C12 1_555 1_555
H10 C13 1_555 1_555
C14 C9 1_555 1_555
H11 C14 1_555 1_555
C15 P2 1_555 1_555
C16 C15 1_555 1_555
H12 C16 1_555 1_555
C17 C16 1_555 1_555
H13 C17 1_555 1_555
C18 C17 1_555 1_555
H14 C18 1_555 1_555
C19 C18 1_555 1_555
H15 C19 1_555 1_555
C20 C15 1_555 1_555
H16 C20 1_555 1_555
C21 C2 1_555 1_555
C22 C21 1_555 1_555
H17 C22 1_555 1_555
H18 C22 1_555 1_555
H19 C22 1_555 1_555
C23 C21 1_555 1_555
H20 C23 1_555 1_555
H21 C23 1_555 1_555
H22 C23 1_555 1_555
C24 C21 1_555 1_555
H23 C24 1_555 1_555
H24 C24 1_555 1_555
H25 C24 1_555 1_555
C25 Si1 1_555 1_555
H26 C25 1_555 1_555
H27 C25 1_555 1_555
H28 C25 1_555 1_555
C26 Si1 1_555 1_555
H29 C26 1_555 1_555
H30 C26 1_555 1_555
C27 Si1 1_555 1_555
H31 C27 1_555 1_555
H32 C27 1_555 1_555
H33 C27 1_555 1_555
H34 C26 1_555 1_555
P2C K1 1_555 1_555
K1C P2 1_555 1_555
C1 C2 1_555 1_555
C7 C8 1_555 1_555
C13 C14 1_555 1_555
C19 C20 1_555 1_555

#END
