
#######################################################################
#
#                 Cambridge Crystallographic Data Centre
#                                CCDC 
#
#######################################################################
#
# If this CIF has been generated from an entry in the Cambridge 
# Structural Database, then it will include bibliographic, chemical, 
# crystal, experimental, refinement or atomic coordinate data resulting 
# from the CCDC's data processing and validation procedures.
#
#######################################################################

data_HUJDOH
_symmetry_cell_setting           monoclinic
_symmetry_space_group_name_H-M   'P 21/n'
_symmetry_Int_Tables_number      14
_space_group_name_Hall           '-P 2yn'
loop_
_symmetry_equiv_pos_site_id
_symmetry_equiv_pos_as_xyz
1 x,y,z
2 1/2-x,1/2+y,1/2-z
3 -x,-y,-z
4 1/2+x,1/2-y,1/2+z
_cell_length_a                   11.8332(4)
_cell_length_b                   21.4246(8)
_cell_length_c                   18.7942(6)
_cell_angle_alpha                90
_cell_angle_beta                 91.843(3)
_cell_angle_gamma                90
_cell_volume                     4762.27
loop_
_atom_site_label
_atom_site_type_symbol
_atom_site_fract_x
_atom_site_fract_y
_atom_site_fract_z
Au1 Au 0.79629(3) 0.53352(2) 0.74288(2)
Au2 Au 0.74855(3) 0.67847(2) 0.71948(2)
S1 S 0.6560(2) 0.52952(11) 0.65589(12)
S2 S 0.75146(19) 0.39663(11) 0.65905(12)
S3 S 0.9384(2) 0.53911(11) 0.82902(12)
S4 S 0.81273(19) 0.41979(11) 0.86566(12)
S5 S 0.5720(2) 0.67649(11) 0.66490(12)
S6 S 0.57196(19) 0.79492(11) 0.75489(12)
S7 S 0.9248(2) 0.68330(11) 0.77364(12)
S8 S 0.89857(19) 0.81216(11) 0.70293(11)
Na1 Na 1.1205(3) 0.95875(18) 0.48434(18)
Na2 Na 1.0248(3) 0.78391(17) 0.55116(19)
Na3 Na 0.9961(3) 0.62688(18) 0.51521(19)
Na4 Na 0.7951(3) 0.53877(19) 0.4949(2)
Na5 Na 0.4295(3) 0.73068(18) 0.87805(19)
Na6 Na 0.3390(3) 0.56249(17) 0.87794(19)
O1 O 0.8440(6) 0.3037(3) 0.5053(4)
O2 O 0.8826(6) 0.2147(3) 0.5609(3)
O3 O 0.7280(7) 0.3634(4) 1.0464(4)
O4 O 0.6522(6) 0.2737(3) 1.0085(4)
O5 O 0.4469(6) 0.8362(3) 0.8916(3)
O6 O 0.4278(6) 0.9375(3) 0.9093(3)
O7 O 1.0330(5) 0.8886(3) 0.5784(3)
O8 O 1.0209(5) 0.9911(3) 0.5875(3)
O9 O 1.1796(6) 0.8954(3) 0.3955(4)
H1 H 1.223(8) 0.905(4) 0.363(5)
H2 H 1.177(10) 0.8571(13) 0.402(6)
O10 O 1.0336(6) 0.6897(3) 0.6170(3)
O11 O 0.9384(6) 0.5410(3) 0.5855(4)
H3 H 0.971(8) 0.506(2) 0.584(5)
H4 H 0.902(10) 0.545(5) 0.623(4)
H5 H 1.103(3) 0.684(8) 0.626(7)
O12 O 0.8269(6) 0.4298(4) 0.4786(4)
H6 H 0.7911 0.3975 0.4974
H7 H 0.7938 0.4327 0.4401
O13 O 0.6169(6) 0.5059(4) 0.4506(4)
H8 H 0.602(8) 0.482(5) 0.485(5)
H9 H 0.560(6) 0.528(5) 0.439(6)
O14 O 0.7892(6) 0.6489(3) 0.5263(4)
H10 H 0.7477 0.6693 0.4943
H11 H 0.7592 0.6536 0.5683
H12 H 1.286(8) 1.042(3) 0.517(6)
O15 O 0.2444(6) 0.7121(4) 0.8202(4)
H13 H 0.229(8) 0.682(4) 0.846(6)
H14 H 0.188(6) 0.736(4) 0.814(6)
O16 O 0.4711(6) 0.6286(3) 0.8219(4)
H15 H 0.533(5) 0.618(6) 0.840(4)
H16 H 0.471(8) 0.625(6) 0.7773(12)
H17 H 0.995(9) 0.678(7) 0.651(5)
O17 O 0.2163(7) 0.5340(6) 0.7889(4)
H18 H 0.2355 0.5206 0.7454
H19 H 0.1400 0.5341 0.7913
O18 O 1.2818(6) 1.0072(3) 0.5377(4)
H20 H 1.345(4) 0.996(4) 0.556(5)
N1 N 0.5821(7) 0.4297(4) 0.5818(4)
N2 N 1.0037(7) 0.4502(4) 0.9222(4)
N3 N 0.4250(7) 0.7726(4) 0.6564(4)
N4 N 1.0487(7) 0.7863(4) 0.7983(4)
C1 C 0.6566(8) 0.4513(4) 0.6282(5)
C2 C 0.5982(8) 0.3665(5) 0.5688(5)
C3 C 0.6863(8) 0.3404(4) 0.6057(4)
C4 C 0.7279(8) 0.2747(4) 0.6020(5)
H21 H 0.6642 0.2476 0.5861
H22 H 0.7521 0.2612 0.6505
C5 C 0.8254(8) 0.2646(5) 0.5527(5)
C6 C 0.5187(10) 0.3335(5) 0.5176(6)
H23 H 0.4668 0.3074 0.5441
H24 H 0.5621 0.3073 0.4856
H25 H 0.4753 0.3644 0.4896
C7 C 0.9283(8) 0.4691(4) 0.8763(5)
C8 C 0.9724(8) 0.3937(5) 0.9531(5)
C9 C 0.8719(8) 0.3702(4) 0.9286(5)
C10 C 0.8150(8) 0.3107(4) 0.9502(5)
H26 H 0.8737 0.2819 0.9695
H27 H 0.7807 0.2911 0.9070
C11 C 0.7229(8) 0.3176(5) 1.0056(5)
C12 C 1.0497(8) 0.3632(5) 1.0069(5)
H28 H 1.1150 0.3903 1.0170
H29 H 1.0758 0.3232 0.9882
H30 H 1.0092 0.3560 1.0509
C13 C 0.5167(8) 0.7495(5) 0.6867(4)
C14 C 0.3948(8) 0.8285(5) 0.6878(5)
C15 C 0.4621(8) 0.8483(4) 0.7425(5)
C16 C 0.4546(8) 0.9043(4) 0.7893(5)
H31 H 0.3896 0.9299 0.7722
H32 H 0.5238 0.9296 0.7839
C17 C 0.4410(8) 0.8908(5) 0.8690(5)
C18 C 0.2901(8) 0.8607(5) 0.6581(5)
H33 H 0.2234 0.8356 0.6683
H34 H 0.2958 0.8655 0.6065
H35 H 0.2832 0.9019 0.6802
C19 C 0.9634(7) 0.7620(4) 0.7629(5)
C20 C 1.0670(8) 0.8483(5) 0.7795(5)
C21 C 0.9933(7) 0.8706(4) 0.7270(5)
C22 C 0.9920(8) 0.9337(4) 0.6933(5)
H36 H 1.0484 0.9600 0.7191
H37 H 0.9168 0.9526 0.7003
C23 C 1.0162(7) 0.9369(4) 0.6137(5)
C24 C 1.1591(9) 0.8827(5) 0.8183(5)
H38 H 1.2291 0.8583 0.8173
H39 H 1.1383 0.8892 0.8678
H40 H 1.1706 0.9232 0.7954
Na1B Na 0.8795(3) 1.04125(18) 0.51566(18)
Na2A Na 0.4752(3) 0.28391(17) 0.94884(19)
Na2B Na 0.9752(3) 0.21609(17) 0.44884(19)
Na3B Na 1.0039(3) 0.37312(18) 0.48479(19)
Na3C Na 0.4961(3) 0.87312(18) 1.01521(19)
Na4C Na 0.2951(3) 0.96123(19) 0.9949(2)
Na5A Na 1.0705(3) 0.23068(18) 0.62195(19)
Na5B Na 0.5705(3) 0.26932(18) 1.12195(19)
Na6A Na 1.1610(3) 1.06249(17) 0.62206(19)
Na6B Na 0.6610(3) 0.43751(17) 1.12206(19)
O1B O 1.1560(6) 0.6963(3) 0.4947(4)
O2A O 0.6174(6) 0.7147(3) 0.9391(3)
O2B O 1.1174(6) 0.7853(3) 0.4391(3)
O3B O 0.2720(7) 0.6366(4) 0.9536(4)
O4A O 0.8478(6) 0.7737(3) 0.4915(4)
O4B O 0.3478(6) 0.7263(3) 0.9915(4)
O5C O 0.9469(6) 0.6638(3) 0.3916(3)
O6C O 0.9278(6) 0.5625(3) 0.4093(3)
O8A O 0.4791(5) 0.4911(3) 0.9125(3)
O8B O 0.9791(5) 1.0089(3) 0.4125(3)
O12B O 1.1731(6) 0.5702(4) 0.5214(4)
O18A O 0.2182(6) 0.5072(3) 0.9623(4)
O19 O 0.2538(7) 0.6847(4) 0.6740(4)
H41 H 0.254(15) 0.685(10) 0.7187(12)
H42 H 0.313(11) 0.701(11) 0.659(9)
O20 O 0.2828(9) 0.5608(4) 0.6571(5)
H43 H 0.347(6) 0.548(6) 0.645(8)
H44 H 0.283(12) 0.6001(12) 0.660(10)
loop_
_geom_bond_atom_site_label_1
_geom_bond_atom_site_label_2
_geom_bond_site_symmetry_1
_geom_bond_site_symmetry_2
Au1 Au2 1_555 1_555
Au2 S5 1_555 1_555
S1 Au1 1_555 1_555
S2 C1 1_555 1_555
S3 Au1 1_555 1_555
S4 C7 1_555 1_555
S5 C13 1_555 1_555
S6 Na5 1_555 1_555
S7 Au2 1_555 1_555
S8 C19 1_555 1_555
Na1 O7 1_555 1_555
Na2 O7 1_555 1_555
Na3 O10 1_555 1_555
Na4 O11 1_555 1_555
Na5 O5 1_555 1_555
Na6 O16 1_555 1_555
O1 C5 1_555 1_555
O2 C5 1_555 1_555
O3 C11 1_555 1_555
O4 C11 1_555 1_555
O5 C17 1_555 1_555
O6 C17 1_555 1_555
O7 C23 1_555 1_555
O8 Na1 1_555 1_555
O9 Na1 1_555 1_555
H1 O9 1_555 1_555
H2 O9 1_555 1_555
O10 Na2 1_555 1_555
O11 Na3 1_555 1_555
H3 O11 1_555 1_555
H4 O11 1_555 1_555
H5 O10 1_555 1_555
O12 Na4 1_555 1_555
H6 O12 1_555 1_555
H7 O12 1_555 1_555
O13 Na4 1_555 1_555
H8 O13 1_555 1_555
H9 O13 1_555 1_555
O14 Na3 1_555 1_555
H10 O14 1_555 1_555
H11 O14 1_555 1_555
H12 O18 1_555 1_555
O15 Na5 1_555 1_555
H13 O15 1_555 1_555
H14 O15 1_555 1_555
O16 Na5 1_555 1_555
H15 O16 1_555 1_555
H16 O16 1_555 1_555
H17 O10 1_555 1_555
O17 Na6 1_555 1_555
H18 O17 1_555 1_555
H19 O17 1_555 1_555
O18 Na1 1_555 1_555
H20 O18 1_555 1_555
N1 C1 1_555 1_555
N2 C7 1_555 1_555
N3 C13 1_555 1_555
N4 C19 1_555 1_555
C1 S1 1_555 1_555
C2 N1 1_555 1_555
C3 S2 1_555 1_555
C4 C3 1_555 1_555
H21 C4 1_555 1_555
H22 C4 1_555 1_555
C5 C4 1_555 1_555
C6 C2 1_555 1_555
H23 C6 1_555 1_555
H24 C6 1_555 1_555
H25 C6 1_555 1_555
C7 S3 1_555 1_555
C8 N2 1_555 1_555
C9 S4 1_555 1_555
C10 C9 1_555 1_555
H26 C10 1_555 1_555
H27 C10 1_555 1_555
C11 C10 1_555 1_555
C12 C8 1_555 1_555
H28 C12 1_555 1_555
H29 C12 1_555 1_555
H30 C12 1_555 1_555
C13 S6 1_555 1_555
C14 N3 1_555 1_555
C15 S6 1_555 1_555
C16 C15 1_555 1_555
H31 C16 1_555 1_555
H32 C16 1_555 1_555
C17 C16 1_555 1_555
C18 C14 1_555 1_555
H33 C18 1_555 1_555
H34 C18 1_555 1_555
H35 C18 1_555 1_555
C19 S7 1_555 1_555
C20 N4 1_555 1_555
C21 S8 1_555 1_555
C22 C21 1_555 1_555
H36 C22 1_555 1_555
H37 C22 1_555 1_555
C23 O8 1_555 1_555
C24 C20 1_555 1_555
H38 C24 1_555 1_555
H39 C24 1_555 1_555
H40 C24 1_555 1_555
O19 H41 1_555 1_555
H42 O19 1_555 1_555
O20 H43 1_555 1_555
H44 O20 1_555 1_555
Na1B O8 1_555 1_555
Na2A O4 1_555 1_555
Na2B O1 1_555 1_555
Na3B O1 1_555 1_555
Na3C O5 1_555 1_555
Na4C O6 1_555 1_555
Na5A O2 1_555 1_555
Na5B O4 1_555 1_555
Na6A O8 1_555 1_555
Na6B O3 1_555 1_555
O1B Na2 1_555 1_555
O2A Na5 1_555 1_555
O2B Na2 1_555 1_555
O3B Na6 1_555 1_555
O4A Na2 1_555 1_555
O4B Na5 1_555 1_555
O5C Na3 1_555 1_555
O6C Na3 1_555 1_555
O8A Na6 1_555 1_555
O8B Na1 1_555 1_555
O12B Na3 1_555 1_555
O18A Na6 1_555 1_555
Na3 O1B 1_555 1_555
Na4 O14 1_555 1_555
Na4 O6C 1_555 1_555
O2 Na2B 1_555 1_555
O6 Na3C 1_555 1_555
O12 Na3B 1_555 1_555
O18 Na6A 1_555 1_555
C2 C3 1_555 1_555
C8 C9 1_555 1_555
C14 C15 1_555 1_555
C20 C21 1_555 1_555
C22 C23 1_555 1_555
Na1B O8B 1_555 1_555

#END
