
#######################################################################
#
#                 Cambridge Crystallographic Data Centre
#                                CCDC 
#
#######################################################################
#
# If this CIF has been generated from an entry in the Cambridge 
# Structural Database, then it will include bibliographic, chemical, 
# crystal, experimental, refinement or atomic coordinate data resulting 
# from the CCDC's data processing and validation procedures.
#
#######################################################################

data_HUJGOJ
_symmetry_cell_setting           monoclinic
_symmetry_space_group_name_H-M   'P 21/n'
_symmetry_Int_Tables_number      14
_space_group_name_Hall           '-P 2yn'
loop_
_symmetry_equiv_pos_site_id
_symmetry_equiv_pos_as_xyz
1 x,y,z
2 1/2-x,1/2+y,1/2-z
3 -x,-y,-z
4 1/2+x,1/2-y,1/2+z
_cell_length_a                   8.9239(7)
_cell_length_b                   18.146(2)
_cell_length_c                   18.215(3)
_cell_angle_alpha                90
_cell_angle_beta                 91.729(2)
_cell_angle_gamma                90
_cell_volume                     2948.27
loop_
_atom_site_label
_atom_site_type_symbol
_atom_site_fract_x
_atom_site_fract_y
_atom_site_fract_z
Sn1 Sn 0.66805(3) 0.689295(15) 0.717375(15)
N1 N 0.4400(4) 0.88571(17) 0.42172(17)
H1 H 0.4535 0.9284 0.4026
O1 O 0.5570(3) 0.72458(15) 0.61658(15)
O2 O 0.6108(3) 0.84405(16) 0.63309(15)
O3 O 0.2979(3) 0.85616(15) 0.32255(15)
C1 C 0.5585(4) 0.7921(2) 0.5968(2)
C2 C 0.5050(5) 0.8717(2) 0.4879(2)
H3 H 0.5613 0.9085 0.5113
C3 C 0.4907(4) 0.8059(2) 0.5211(2)
C4 C 0.4054(5) 0.7521(2) 0.4831(2)
H4 H 0.3951 0.7056 0.5038
C5 C 0.3378(5) 0.7664(2) 0.4169(2)
H5 H 0.2804 0.7301 0.3935
C6 C 0.3537(5) 0.8358(2) 0.3832(2)
C7 C 0.8802(4) 0.7269(2) 0.6833(2)
C8 C 0.9915(5) 0.7518(3) 0.7304(3)
H6 H 0.9745 0.7527 0.7805
C9 C 1.1284(6) 0.7758(3) 0.7058(3)
H7 H 1.2015 0.7929 0.7391
C10 C 1.1550(6) 0.7742(4) 0.6332(4)
H8 H 1.2468 0.7903 0.6164
C11 C 1.0474(7) 0.7489(4) 0.5844(3)
H9 H 1.0664 0.7472 0.5346
C12 C 0.9107(6) 0.7260(3) 0.6093(3)
H10 H 0.8375 0.7096 0.5757
C13 C 0.6046(4) 0.5776(2) 0.6939(2)
C14 C 0.5048(6) 0.5611(3) 0.6379(3)
H11 H 0.4652 0.5991 0.6091
C15 C 0.4608(7) 0.4890(3) 0.6228(4)
H12 H 0.3939 0.4793 0.5839
C16 C 0.5153(6) 0.4334(3) 0.6647(3)
H13 H 0.4847 0.3853 0.6551
C17 C 0.6146(6) 0.4475(3) 0.7207(3)
H14 H 0.6525 0.4091 0.7495
C18 C 0.6591(6) 0.5189(3) 0.7346(3)
H15 H 0.7283 0.5278 0.7728
C19 C 0.5243(5) 0.7417(2) 0.7926(2)
C20 C 0.5148(5) 0.8164(3) 0.8039(2)
H16 H 0.5711 0.8482 0.7756
C21 C 0.4219(7) 0.8452(3) 0.8570(3)
H17 H 0.4175 0.8959 0.8644
C22 C 0.3381(7) 0.7995(4) 0.8979(3)
H18 H 0.2745 0.8190 0.9325
C23 C 0.3463(7) 0.7256(4) 0.8886(3)
H19 H 0.2900 0.6943 0.9174
C24 C 0.4383(6) 0.6969(3) 0.8364(3)
H20 H 0.4429 0.6461 0.8303
Sn1C Sn 0.16805(3) 0.810705(15) 0.217375(15)
O3C O 0.7979(3) 0.64384(15) 0.82255(15)
O4 O 0.4891(5) -0.01837(18) 0.6385(2)
H2 H 0.5232 -0.0603 0.6391
C25 C 0.347(3) -0.0257(15) 0.6731(17)
H21 H 0.3407 -0.0728 0.6979
H22 H 0.2654 -0.0221 0.6369
C26 C 0.340(3) 0.0379(12) 0.7285(19)
H23 H 0.4207 0.0330 0.7643
H24 H 0.2460 0.0363 0.7526
H25 H 0.3491 0.0840 0.7032
C27 C -0.0413(11) 0.9457(5) 0.5446(5)
H26 H -0.0652 0.9069 0.5755
C28 C 0.0608(11) 0.9353(6) 0.4910(6)
H27 H 0.1017 0.8888 0.4841
C29 C -0.1032(10) 1.0076(6) 0.5524(5)
H28 H -0.1763 1.0142 0.5871
C27B C 0.0413(11) 1.0543(5) 0.4554(5)
H26B H 0.0652 1.0931 0.4245
C28B C -0.0608(11) 1.0647(6) 0.5090(6)
H27B H -0.1017 1.1112 0.5159
C29B C 0.1032(10) 0.9924(6) 0.4476(5)
H28B H 0.1763 0.9858 0.4129
C30 C 0.579(3) 0.9486(6) 1.0386(12)
H29 H 0.6343 0.9134 1.0650
C31 C 0.6367(14) 0.9799(12) 0.9769(13)
H30 H 0.7306 0.9660 0.9610
C32 C 0.444(3) 0.9692(11) 1.0603(7)
H31 H 0.4049 0.9478 1.1020
C30B C 0.421(3) 1.0514(6) 0.9614(12)
H29B H 0.3657 1.0866 0.9350
C31B C 0.3633(14) 1.0201(12) 1.0231(13)
H30B H 0.2694 1.0340 1.0390
C32B C 0.556(3) 1.0308(11) 0.9397(7)
H31B H 0.5951 1.0522 0.8980
C33? C 0.411(6) -0.0134(19) 0.706(2)
C34? C 0.267(5) 0.0237(19) 0.678(3)
H32? H 0.4647 0.0168 0.7422
H33? H 0.3919 -0.0616 0.7270
H34? H 0.2738 0.0759 0.6857
H35? H 0.1832 0.0043 0.7033
H36? H 0.2535 0.0141 0.6261
loop_
_geom_bond_atom_site_label_1
_geom_bond_atom_site_label_2
_geom_bond_site_symmetry_1
_geom_bond_site_symmetry_2
Sn1 O1 1_555 1_555
N1 H1 1_555 1_555
O1 C1 1_555 1_555
O2 C1 1_555 1_555
O3 C6 1_555 1_555
O4 H2 1_555 1_555
C1 C3 1_555 1_555
C2 N1 1_555 1_555
H3 C2 1_555 1_555
C3 C2 1_555 1_555
C4 C3 1_555 1_555
H4 C4 1_555 1_555
C5 C4 1_555 1_555
H5 C5 1_555 1_555
C6 N1 1_555 1_555
C7 Sn1 1_555 1_555
C8 C7 1_555 1_555
H6 C8 1_555 1_555
C9 C8 1_555 1_555
H7 C9 1_555 1_555
C10 C9 1_555 1_555
H8 C10 1_555 1_555
C11 C10 1_555 1_555
H9 C11 1_555 1_555
C12 C7 1_555 1_555
H10 C12 1_555 1_555
C13 Sn1 1_555 1_555
C14 C13 1_555 1_555
H11 C14 1_555 1_555
C15 C14 1_555 1_555
H12 C15 1_555 1_555
C16 C15 1_555 1_555
H13 C16 1_555 1_555
C17 C16 1_555 1_555
H14 C17 1_555 1_555
C18 C13 1_555 1_555
H15 C18 1_555 1_555
C19 Sn1 1_555 1_555
C20 C19 1_555 1_555
H16 C20 1_555 1_555
C21 C20 1_555 1_555
H17 C21 1_555 1_555
C22 C21 1_555 1_555
H18 C22 1_555 1_555
C23 C22 1_555 1_555
H19 C23 1_555 1_555
C24 C19 1_555 1_555
H20 C24 1_555 1_555
C25 O4 1_555 1_555
H21 C25 1_555 1_555
H22 C25 1_555 1_555
C26 C25 1_555 1_555
H23 C26 1_555 1_555
H24 C26 1_555 1_555
H25 C26 1_555 1_555
C27 H26 1_555 1_555
C28 C27 1_555 1_555
H27 C28 1_555 1_555
C29 C27 1_555 1_555
H28 C29 1_555 1_555
C30 H29 1_555 1_555
C31 C30 1_555 1_555
H30 C31 1_555 1_555
C32 C30 1_555 1_555
H31 C32 1_555 1_555
Sn1C O3 1_555 1_555
O3C Sn1 1_555 1_555
C27B H26B 1_555 1_555
C28B C29 1_555 1_555
H27B C28B 1_555 1_555
C29B C28 1_555 1_555
H28B C29B 1_555 1_555
C30B H29B 1_555 1_555
C31B C32 1_555 1_555
H30B C31B 1_555 1_555
C32B C31 1_555 1_555
H31B C32B 1_555 1_555
C5 C6 1_555 1_555
C11 C12 1_555 1_555
C17 C18 1_555 1_555
C23 C24 1_555 1_555
C27B C28B 1_555 1_555
C27B C29B 1_555 1_555
C30B C31B 1_555 1_555
C30B C32B 1_555 1_555

#END
