
#######################################################################
#
#                 Cambridge Crystallographic Data Centre
#                                CCDC 
#
#######################################################################
#
# If this CIF has been generated from an entry in the Cambridge 
# Structural Database, then it will include bibliographic, chemical, 
# crystal, experimental, refinement or atomic coordinate data resulting 
# from the CCDC's data processing and validation procedures.
#
#######################################################################

data_HUJHUP01
_symmetry_cell_setting           monoclinic
_symmetry_space_group_name_H-M   'P 21/m'
_symmetry_Int_Tables_number      11
_space_group_name_Hall           '-P 2yb'
loop_
_symmetry_equiv_pos_site_id
_symmetry_equiv_pos_as_xyz
1 x,y,z
2 x,1/2-y,z
3 -x,-y,-z
4 -x,1/2+y,-z
_cell_length_a                   4.1554(7)
_cell_length_b                   15.1590(18)
_cell_length_c                   7.0487(9)
_cell_angle_alpha                90
_cell_angle_beta                 96.806(16)
_cell_angle_gamma                90
_cell_volume                     440.881
loop_
_atom_site_label
_atom_site_type_symbol
_atom_site_fract_x
_atom_site_fract_y
_atom_site_fract_z
Cu1 Cu 0.2453(2) 0.44066(6) 0.99788(14)
I1 I 0.19871(11) 0.57673(3) 0.76719(7)
N1 N 0.2604(15) 0.3288(4) 0.8337(9)
C1 C 0.213(3) 0.2500 0.9077(15)
H1 H 0.1365 0.2500 1.0265
C2 C 0.368(2) 0.3275(5) 0.6615(10)
H2 H 0.4024 0.3805 0.6006
C3 C 0.428(3) 0.2500 0.5745(15)
H3 H 0.5093 0.2500 0.4570
N1A N 0.2604(15) 0.1712(4) 0.8337(9)
C2A C 0.368(2) 0.1725(5) 0.6615(10)
H2A H 0.4024 0.1195 0.6006
I1B I -0.19871(11) 0.42327(3) 1.23281(7)
Cu1B Cu -0.2453(2) 0.55934(6) 1.00212(14)
I1B_2 I 0.80129(11) 0.42327(3) 1.23281(7)
Cu1B_2 Cu 0.7547(2) 0.55934(6) 1.00212(14)
Cu1A Cu 0.2453(2) 0.05934(6) 0.99788(14)
Cu1_2 Cu -0.7547(2) 0.44066(6) 0.99788(14)
I1_2 I -0.80129(11) 0.57673(3) 0.76719(7)
N1B N -0.2604(15) 0.6712(4) 1.1663(9)
loop_
_geom_bond_atom_site_label_1
_geom_bond_atom_site_label_2
_geom_bond_site_symmetry_1
_geom_bond_site_symmetry_2
Cu1 I1 1_555 1_555
I1 Cu1B 1_555 1_555
N1 Cu1 1_555 1_555
C1 N1 1_555 1_555
H1 C1 1_555 1_555
C2 N1 1_555 1_555
H2 C2 1_555 1_555
C3 C2 1_555 1_555
H3 C3 1_555 1_555
N1A C1 1_555 1_555
C2A C3 1_555 1_555
H2A C2A 1_555 1_555
I1B Cu1 1_555 1_555
Cu1B I1B 1_555 1_555
I1B_2 Cu1 1_555 1_555
Cu1B_2 I1 1_555 1_555
Cu1A N1A 1_555 1_555
Cu1_2 I1B 1_555 1_555
I1_2 Cu1B 1_555 1_555
N1B Cu1B 1_555 1_555
N1A C2A 1_555 1_555
I1B_2 Cu1B_2 1_555 1_555
Cu1_2 I1_2 1_555 1_555

#END
