
#######################################################################
#
#                 Cambridge Crystallographic Data Centre
#                                CCDC 
#
#######################################################################
#
# If this CIF has been generated from an entry in the Cambridge 
# Structural Database, then it will include bibliographic, chemical, 
# crystal, experimental, refinement or atomic coordinate data resulting 
# from the CCDC's data processing and validation procedures.
#
#######################################################################

data_HUJHUP
_symmetry_cell_setting           monoclinic
_symmetry_space_group_name_H-M   'P 21/m'
_symmetry_Int_Tables_number      11
_space_group_name_Hall           '-P 2yb'
loop_
_symmetry_equiv_pos_site_id
_symmetry_equiv_pos_as_xyz
1 x,y,z
2 x,1/2-y,z
3 -x,-y,-z
4 -x,1/2+y,-z
_cell_length_a                   4.1530(8)
_cell_length_b                   15.038(3)
_cell_length_c                   7.0220(14)
_cell_angle_alpha                90
_cell_angle_beta                 97.07(3)
_cell_angle_gamma                90
_cell_volume                     435.209
loop_
_atom_site_label
_atom_site_type_symbol
_atom_site_fract_x
_atom_site_fract_y
_atom_site_fract_z
I1 I 0.19590(14) 0.57693(4) 0.76532(10)
Cu1 Cu 0.2453(3) 0.44118(9) 0.9988(2)
N1 N 0.2604(21) 0.3278(6) 0.8342(14)
C1 C 0.3716(27) 0.3282(7) 0.6609(17)
H1 H 0.4119(27) 0.3828(7) 0.6027(17)
C2 C 0.2070(36) 0.2500 0.9114(27)
H2 H 0.1247(36) 0.2500 1.0302(27)
C3 C 0.4262(49) 0.2500 0.5688(25)
H3 H 0.4984(49) 0.2500 0.4471(25)
C1A C 0.3716(27) 0.1718(7) 0.6609(17)
N1A N 0.2604(21) 0.1722(6) 0.8342(14)
H1A H 0.4119(27) 0.1172(7) 0.6027(17)
I1B I -0.19590(14) 0.42307(4) 1.23468(10)
Cu1B Cu -0.2453(3) 0.55882(9) 1.0012(2)
Cu1B_2 Cu 0.7547(3) 0.55882(9) 1.0012(2)
I1B_2 I 0.80410(14) 0.42307(4) 1.23468(10)
Cu1A Cu 0.2453(3) 0.05882(9) 0.9988(2)
Cu1_2 Cu -0.7547(3) 0.44118(9) 0.9988(2)
I1_2 I -0.80410(14) 0.57693(4) 0.76532(10)
N1B N -0.2604(21) 0.6722(6) 1.1658(14)
loop_
_geom_bond_atom_site_label_1
_geom_bond_atom_site_label_2
_geom_bond_site_symmetry_1
_geom_bond_site_symmetry_2
I1 Cu1 1_555 1_555
Cu1 N1 1_555 1_555
N1 C1 1_555 1_555
C1 H1 1_555 1_555
C2 N1 1_555 1_555
H2 C2 1_555 1_555
C3 C1 1_555 1_555
H3 C3 1_555 1_555
C1A C3 1_555 1_555
N1A C2 1_555 1_555
H1A C1A 1_555 1_555
I1B Cu1 1_555 1_555
Cu1B I1 1_555 1_555
Cu1B_2 I1 1_555 1_555
I1B_2 Cu1 1_555 1_555
Cu1A N1A 1_555 1_555
Cu1_2 I1B 1_555 1_555
I1_2 Cu1B 1_555 1_555
N1B Cu1B 1_555 1_555
C1A N1A 1_555 1_555
I1B Cu1B 1_555 1_555
Cu1B_2 I1B_2 1_555 1_555
Cu1_2 I1_2 1_555 1_555

#END
