
#######################################################################
#
#                 Cambridge Crystallographic Data Centre
#                                CCDC 
#
#######################################################################
#
# If this CIF has been generated from an entry in the Cambridge 
# Structural Database, then it will include bibliographic, chemical, 
# crystal, experimental, refinement or atomic coordinate data resulting 
# from the CCDC's data processing and validation procedures.
#
#######################################################################

data_HUJHAW
_symmetry_cell_setting           monoclinic
_symmetry_space_group_name_H-M   'P 21'
_symmetry_Int_Tables_number      4
_space_group_name_Hall           'P 2yb'
loop_
_symmetry_equiv_pos_site_id
_symmetry_equiv_pos_as_xyz
1 x,y,z
2 -x,1/2+y,-z
_cell_length_a                   9.1760(12)
_cell_length_b                   16.975(3)
_cell_length_c                   9.9575(17)
_cell_angle_alpha                90
_cell_angle_beta                 113.052(2)
_cell_angle_gamma                90
_cell_volume                     1427.16
loop_
_atom_site_label
_atom_site_type_symbol
_atom_site_fract_x
_atom_site_fract_y
_atom_site_fract_z
Sn1 Sn 0.16460(9) 0.34224(14) 0.65263(9)
N1 N 0.8025(15) 0.3665(9) 1.1822(15)
H1 H 0.8829 0.3751 1.1602
O1 O 0.3629(11) 0.353(2) 0.8568(12)
O2 O 0.2462(12) 0.3285(17) 1.0107(13)
O3 O 0.9668(12) 0.355(2) 1.4172(12)
C1 C 0.3636(14) 0.341(3) 0.9845(13)
C2 C 0.6511(18) 0.3643(11) 1.0730(17)
H5 H 0.6366 0.3720 0.9762
C3 C 0.5212(15) 0.350(3) 1.1086(13)
C4 C 0.5428(15) 0.339(3) 1.2534(15)
H6 H 0.4558 0.3297 1.2772
C5 C 0.6942(15) 0.341(3) 1.3625(13)
H7 H 0.7087 0.3335 1.4594
C6 C 0.8241(15) 0.355(2) 1.3269(15)
C7 C 0.3103(15) 0.342(3) 0.5299(15)
H8 H 0.2850 0.2961 0.4676
H9 H 0.2842 0.3882 0.4670
C8 C 0.4866(14) 0.343(3) 0.6207(14)
C9 C 0.562(4) 0.270(2) 0.655(4)
H10 H 0.5040 0.2239 0.6210
C10 C 0.723(4) 0.266(2) 0.740(5)
H11 H 0.7731 0.2172 0.7634
C11 C 0.8092(19) 0.335(3) 0.7915(17)
H12 H 0.9171 0.3320 0.8486
C12 C 0.734(4) 0.407(2) 0.757(4)
H13 H 0.7918 0.4535 0.7912
C13 C 0.573(4) 0.411(2) 0.672(4)
H14 H 0.5226 0.4601 0.6487
C14 C 0.095(4) 0.456(2) 0.696(4)
H15 H -0.0117 0.4667 0.6274
H16 H 0.0964 0.4568 0.7935
C15 C 0.204(4) 0.518(3) 0.683(4)
C16 C 0.335(3) 0.5350(19) 0.810(3)
H17 H 0.3456 0.5113 0.8972
C17 C 0.448(3) 0.5878(17) 0.805(3)
H18 H 0.5358 0.5994 0.8903
C18 C 0.432(3) 0.6233(17) 0.674(4)
H19 H 0.5081 0.6587 0.6717
C19 C 0.301(3) 0.606(2) 0.548(4)
H20 H 0.2902 0.6298 0.4600
C20 C 0.187(4) 0.553(2) 0.552(4)
H21 H 0.1000 0.5417 0.4668
C21 C 0.071(4) 0.229(2) 0.675(4)
H22 H 0.0612 0.2261 0.7688
H23 H -0.0337 0.2223 0.5991
C22 C 0.174(4) 0.165(3) 0.666(5)
C23 C 0.283(4) 0.126(2) 0.786(4)
H24 H 0.2913 0.1385 0.8795
C24 C 0.378(4) 0.0671(19) 0.766(4)
H25 H 0.4511 0.0409 0.8464
C25 C 0.365(4) 0.048(2) 0.626(4)
H26 H 0.4295 0.0087 0.6129
C26 C 0.257(4) 0.087(3) 0.506(5)
H27 H 0.2481 0.0741 0.4125
C27 C 0.161(5) 0.145(2) 0.526(5)
H28 H 0.0884 0.1717 0.4457
Sn1_2 Sn 1.16460(9) 0.34224(14) 1.65263(9)
O3_2 O -0.0332(12) 0.355(2) 0.4172(12)
O4 O -0.086(5) 0.167(3) 0.135(6)
H2 H -0.1104 0.1272 0.0852
C28 C 0.049(4) 0.202(3) 0.123(4)
H29 H 0.0700 0.2503 0.1807
H30 H 0.0152 0.2191 0.0220
C29 C 0.206(4) 0.1632(19) 0.161(3)
H31 H 0.2654 0.1906 0.1140
H32 H 0.1904 0.1095 0.1274
H33 H 0.2641 0.1642 0.2644
O5 O 0.934(4) 0.934(2) 0.867(4)
H3 H 0.8848 0.9026 0.9013
H4 H 0.9720 0.9722 0.9255
H34? H -0.0157 0.1736 0.0358
H35? H 0.0084 0.1898 0.1966
H36? H 0.1090 0.3033 0.1974
H37? H 0.1853 0.9666 0.8561
H38? H 0.1783 1.0165 0.9618
O6? O 0.028(10) 0.285(6) 0.137(9)
O7? O 0.135(6) 1.005(3) 0.872(7)
loop_
_geom_bond_atom_site_label_1
_geom_bond_atom_site_label_2
_geom_bond_site_symmetry_1
_geom_bond_site_symmetry_2
Sn1 O1 1_555 1_555
N1 H1 1_555 1_555
O1 C1 1_555 1_555
O2 C1 1_555 1_555
O3 C6 1_555 1_555
O4 H2 1_555 1_555
O5 H3 1_555 1_555
H4 O5 1_555 1_555
C1 C3 1_555 1_555
C2 N1 1_555 1_555
H5 C2 1_555 1_555
C3 C2 1_555 1_555
C4 C3 1_555 1_555
H6 C4 1_555 1_555
C5 C4 1_555 1_555
H7 C5 1_555 1_555
C6 N1 1_555 1_555
C7 Sn1 1_555 1_555
H8 C7 1_555 1_555
H9 C7 1_555 1_555
C8 C7 1_555 1_555
C9 C8 1_555 1_555
H10 C9 1_555 1_555
C10 C9 1_555 1_555
H11 C10 1_555 1_555
C11 C10 1_555 1_555
H12 C11 1_555 1_555
C12 C11 1_555 1_555
H13 C12 1_555 1_555
C13 C8 1_555 1_555
H14 C13 1_555 1_555
C14 Sn1 1_555 1_555
H15 C14 1_555 1_555
H16 C14 1_555 1_555
C15 C14 1_555 1_555
C16 C15 1_555 1_555
H17 C16 1_555 1_555
C17 C16 1_555 1_555
H18 C17 1_555 1_555
C18 C17 1_555 1_555
H19 C18 1_555 1_555
C19 C18 1_555 1_555
H20 C19 1_555 1_555
C20 C15 1_555 1_555
H21 C20 1_555 1_555
C21 Sn1 1_555 1_555
H22 C21 1_555 1_555
H23 C21 1_555 1_555
C22 C21 1_555 1_555
C23 C22 1_555 1_555
H24 C23 1_555 1_555
C24 C23 1_555 1_555
H25 C24 1_555 1_555
C25 C24 1_555 1_555
H26 C25 1_555 1_555
C26 C25 1_555 1_555
H27 C26 1_555 1_555
C27 C22 1_555 1_555
H28 C27 1_555 1_555
C28 O4 1_555 1_555
H29 C28 1_555 1_555
H30 C28 1_555 1_555
C29 C28 1_555 1_555
H31 C29 1_555 1_555
H32 C29 1_555 1_555
H33 C29 1_555 1_555
Sn1_2 O3 1_555 1_555
O3_2 Sn1 1_555 1_555
C5 C6 1_555 1_555
C12 C13 1_555 1_555
C19 C20 1_555 1_555
C26 C27 1_555 1_555

#END
