
#######################################################################
#
#                 Cambridge Crystallographic Data Centre
#                                CCDC 
#
#######################################################################
#
# If this CIF has been generated from an entry in the Cambridge 
# Structural Database, then it will include bibliographic, chemical, 
# crystal, experimental, refinement or atomic coordinate data resulting 
# from the CCDC's data processing and validation procedures.
#
#######################################################################

data_HUJHID
_symmetry_cell_setting           monoclinic
_symmetry_space_group_name_H-M   'P 21/n'
_symmetry_Int_Tables_number      14
_space_group_name_Hall           '-P 2yn'
loop_
_symmetry_equiv_pos_site_id
_symmetry_equiv_pos_as_xyz
1 x,y,z
2 1/2+x,1/2-y,1/2+z
3 -x,-y,-z
4 1/2-x,1/2+y,1/2-z
_cell_length_a                   9.5000(19)
_cell_length_b                   4.1000(8)
_cell_length_c                   18.781(4)
_cell_angle_alpha                90
_cell_angle_beta                 102.84(3)
_cell_angle_gamma                90
_cell_volume                     713.228
loop_
_atom_site_label
_atom_site_type_symbol
_atom_site_fract_x
_atom_site_fract_y
_atom_site_fract_z
I1 I 0.31333(6) 0.11067(13) 0.65542(3)
Cu1 Cu 0.31958(13) 0.1104(3) 0.79620(7)
N1 N 0.5329(9) 0.0895(17) 0.8499(5)
C1 C 0.5688(10) -0.051(3) 0.9170(5)
H1 H 0.4958 -0.1430 0.9373
C2 C 0.7116(11) -0.063(2) 0.9565(5)
H2 H 0.7329 -0.1633 1.0027
C3 C 0.8243(10) 0.073(2) 0.9286(6)
C4 C 0.7833(12) 0.215(3) 0.8594(6)
H3 H 0.8538 0.3077 0.8375
C5 C 0.6376(11) 0.221(3) 0.8224(5)
H4 H 0.6129 0.3218 0.7764
C6 C 0.9724(11) 0.067(2) 0.9684(6)
H5 H 1.0384 0.1736 0.9458
C6B C 1.0276(11) -0.067(2) 1.0316(6)
C3B C 1.1757(10) -0.073(2) 1.0714(6)
C2B C 1.2884(11) 0.063(2) 1.0435(5)
C1B C 1.4312(10) 0.051(3) 1.0830(5)
N1B N 1.4671(9) -0.0895(17) 1.1501(5)
C5B C 1.3624(11) -0.221(3) 1.1776(5)
C4B C 1.2167(12) -0.215(3) 1.1406(6)
H3B H 1.1462 -0.3077 1.1625
H4B H 1.3871 -0.3218 1.2236
H1B H 1.5042 0.1430 1.0627
H2B H 1.2671 0.1633 0.9973
H5B H 0.9616 -0.1736 1.0542
I1C I 0.18667(6) -0.38933(13) 0.84458(3)
Cu1C Cu 0.18042(13) -0.3896(3) 0.70380(7)
Cu1C_2 Cu 0.18042(13) 0.6104(3) 0.70380(7)
I1C_2 I 0.18667(6) 0.61067(13) 0.84458(3)
Cu1B Cu 1.68042(13) -0.1104(3) 1.20380(7)
Cu1_2 Cu 0.31958(13) -0.8896(3) 0.79620(7)
I1_2 I 0.31333(6) -0.88933(13) 0.65542(3)
N1C N -0.0329(9) -0.4105(17) 0.6501(5)
loop_
_geom_bond_atom_site_label_1
_geom_bond_atom_site_label_2
_geom_bond_site_symmetry_1
_geom_bond_site_symmetry_2
I1 Cu1 1_555 1_555
Cu1 N1 1_555 1_555
N1 C1 1_555 1_555
C1 H1 1_555 1_555
C2 C1 1_555 1_555
H2 C2 1_555 1_555
C3 C2 1_555 1_555
C4 C3 1_555 1_555
H3 C4 1_555 1_555
C5 N1 1_555 1_555
H4 C5 1_555 1_555
C6 C3 1_555 1_555
H5 C6 1_555 1_555
C6B C6 1_555 1_555
C3B C6B 1_555 1_555
C2B C3B 1_555 1_555
C1B C2B 1_555 1_555
N1B C1B 1_555 1_555
C5B N1B 1_555 1_555
C4B C3B 1_555 1_555
H3B C4B 1_555 1_555
H4B C5B 1_555 1_555
H1B C1B 1_555 1_555
H2B C2B 1_555 1_555
H5B C6B 1_555 1_555
I1C Cu1 1_555 1_555
Cu1C I1 1_555 1_555
Cu1C_2 I1 1_555 1_555
I1C_2 Cu1 1_555 1_555
Cu1B N1B 1_555 1_555
Cu1_2 I1C 1_555 1_555
I1_2 Cu1C 1_555 1_555
N1C Cu1C 1_555 1_555
C4 C5 1_555 1_555
C5B C4B 1_555 1_555
I1C Cu1C 1_555 1_555
Cu1C_2 I1C_2 1_555 1_555
Cu1_2 I1_2 1_555 1_555

#END
