
#######################################################################
#
#                 Cambridge Crystallographic Data Centre
#                                CCDC 
#
#######################################################################
#
# If this CIF has been generated from an entry in the Cambridge 
# Structural Database, then it will include bibliographic, chemical, 
# crystal, experimental, refinement or atomic coordinate data resulting 
# from the CCDC's data processing and validation procedures.
#
#######################################################################

data_HUJHOK
_symmetry_cell_setting           orthorhombic
_symmetry_space_group_name_H-M   'P 21 21 21'
_symmetry_Int_Tables_number      19
_space_group_name_Hall           'P 2ac 2ab'
loop_
_symmetry_equiv_pos_site_id
_symmetry_equiv_pos_as_xyz
1 x,y,z
2 1/2-x,-y,1/2+z
3 -x,1/2+y,1/2-z
4 1/2+x,1/2-y,-z
_cell_length_a                   8.6910(16)
_cell_length_b                   10.716(4)
_cell_length_c                   22.502(5)
_cell_angle_alpha                90
_cell_angle_beta                 90
_cell_angle_gamma                90
_cell_volume                     2095.67
loop_
_atom_site_label
_atom_site_type_symbol
_atom_site_fract_x
_atom_site_fract_y
_atom_site_fract_z
Sn1 Sn 0.35558(3) 1.00416(2) 0.872385(11)
O1 O 0.3204(4) 0.8048(2) 0.87691(13)
O2 O 0.4348(5) 0.7819(3) 0.78862(15)
O3 O 0.3998(5) 0.2275(3) 0.86626(17)
N1 N 0.4372(5) 0.4002(3) 0.81018(17)
C1 C 0.4310(6) 0.5249(3) 0.80263(18)
H1 H 0.4690 0.5587 0.7675
C2 C 0.3823(6) 0.3426(4) 0.8607(2)
C3 C 0.3135(8) 0.4242(4) 0.9028(2)
H2 H 0.2710 0.3905 0.9372
C4 C 0.3081(8) 0.5464(4) 0.8947(2)
H3 H 0.2613 0.5967 0.9231
C5 C 0.3729(6) 0.6015(3) 0.8432(2)
C6 C 0.3764(6) 0.7382(4) 0.8346(2)
C7 C 0.5998(5) 0.9973(4) 0.8780(2)
H4 H 0.6411 0.9941 0.8380
H5 H 0.6356 1.0742 0.8961
C8 C 0.6666(7) 0.8857(5) 0.9138(3)
H6 H 0.6106 0.8789 0.9510
H7 H 0.6483 0.8097 0.8915
C9 C 0.8299(8) 0.8937(5) 0.9272(3)
H8 H 0.8479 0.9641 0.9534
H9 H 0.8864 0.9082 0.8907
C10 C 0.8887(9) 0.7774(5) 0.9561(3)
H10 H 0.8626 0.7782 0.9975
H11 H 0.9985 0.7734 0.9518
H12 H 0.8428 0.7059 0.9375
C11 C 0.2406(7) 1.0381(5) 0.9550(2)
H13 H 0.1580 1.0972 0.9481
H14 H 0.1942 0.9607 0.9684
C12 C 0.3414(7) 1.0877(5) 1.0040(2)
H15 H 0.3925 1.1630 0.9904
H16 H 0.4201 1.0265 1.0133
C13 C 0.2499(8) 1.1167(7) 1.0598(3)
H17 H 0.1729 1.1793 1.0505
H18 H 0.1966 1.0418 1.0725
C14 C 0.3456(10) 1.1618(9) 1.1083(3)
H19 H 0.3985 1.0928 1.1263
H20 H 0.2820 1.2020 1.1375
H21 H 0.4194 1.2205 1.0932
C15 C 0.2202(7) 1.0355(5) 0.7949(2)
H22 H 0.2817 1.0813 0.7663
H23 H 0.1951 0.9554 0.7774
C16 C 0.0768(8) 1.1043(6) 0.8052(3)
H24 H 0.1028 1.1836 0.8235
H25 H 0.0159 1.0578 0.8337
C17 C -0.0235(8) 1.1305(7) 0.7511(3)
H26 H -0.0490 1.0518 0.7322
H27 H -0.1190 1.1684 0.7643
C18 C 0.0449(11) 1.2080(9) 0.7095(4)
H28 H -0.0248 1.2214 0.6770
H29 H 0.1375 1.1698 0.6950
H30 H 0.0694 1.2866 0.7277
H31 H 0.4762 0.3431 0.7832
Sn1_2 Sn 0.35558(3) 0.00416(2) 0.872385(11)
O3_2 O 0.3998(5) 1.2275(3) 0.86626(17)
loop_
_geom_bond_atom_site_label_1
_geom_bond_atom_site_label_2
_geom_bond_site_symmetry_1
_geom_bond_site_symmetry_2
Sn1 O1 1_555 1_555
O1 C6 1_555 1_555
O2 C6 1_555 1_555
O3 C2 1_555 1_555
N1 C1 1_555 1_555
C1 H1 1_555 1_555
C2 N1 1_555 1_555
C3 C2 1_555 1_555
H2 C3 1_555 1_555
C4 C3 1_555 1_555
H3 C4 1_555 1_555
C5 C1 1_555 1_555
C6 C5 1_555 1_555
C7 Sn1 1_555 1_555
H4 C7 1_555 1_555
H5 C7 1_555 1_555
C8 C7 1_555 1_555
H6 C8 1_555 1_555
H7 C8 1_555 1_555
C9 C8 1_555 1_555
H8 C9 1_555 1_555
H9 C9 1_555 1_555
C10 C9 1_555 1_555
H10 C10 1_555 1_555
H11 C10 1_555 1_555
H12 C10 1_555 1_555
C11 Sn1 1_555 1_555
H13 C11 1_555 1_555
H14 C11 1_555 1_555
C12 C11 1_555 1_555
H15 C12 1_555 1_555
H16 C12 1_555 1_555
C13 C12 1_555 1_555
H17 C13 1_555 1_555
H18 C13 1_555 1_555
C14 C13 1_555 1_555
H19 C14 1_555 1_555
H20 C14 1_555 1_555
H21 C14 1_555 1_555
C15 Sn1 1_555 1_555
H22 C15 1_555 1_555
H23 C15 1_555 1_555
C16 C15 1_555 1_555
H24 C16 1_555 1_555
H25 C16 1_555 1_555
C17 C16 1_555 1_555
H26 C17 1_555 1_555
H27 C17 1_555 1_555
C18 C17 1_555 1_555
H28 C18 1_555 1_555
H29 C18 1_555 1_555
H30 C18 1_555 1_555
H31 N1 1_555 1_555
Sn1_2 O3 1_555 1_555
O3_2 Sn1 1_555 1_555
C4 C5 1_555 1_555

#END
