
#######################################################################
#
#                 Cambridge Crystallographic Data Centre
#                                CCDC 
#
#######################################################################
#
# If this CIF has been generated from an entry in the Cambridge 
# Structural Database, then it will include bibliographic, chemical, 
# crystal, experimental, refinement or atomic coordinate data resulting 
# from the CCDC's data processing and validation procedures.
#
#######################################################################

data_HUJJEB
_symmetry_cell_setting           monoclinic
_symmetry_space_group_name_H-M   'C 2/c'
_symmetry_Int_Tables_number      15
_space_group_name_Hall           '-C 2yn'
loop_
_symmetry_equiv_pos_site_id
_symmetry_equiv_pos_as_xyz
1 x,y,z
2 1/2+x,1/2+y,z
3 x,-y,1/2+z
4 1/2+x,1/2-y,1/2+z
5 -x,-y,-z
6 1/2-x,1/2-y,-z
7 -x,y,1/2-z
8 1/2-x,1/2+y,1/2-z
_cell_length_a                   4.228(2)
_cell_length_b                   14.784(5)
_cell_length_c                   19.093(5)
_cell_angle_alpha                90
_cell_angle_beta                 91.75(4)
_cell_angle_gamma                90
_cell_volume                     1192.88
loop_
_atom_site_label
_atom_site_type_symbol
_atom_site_fract_x
_atom_site_fract_y
_atom_site_fract_z
I1 I -1.0000 0.03118(8) 0.2500
Cu1 Cu -0.5000 -0.07444(15) 0.2500
N1 N -0.462(2) -0.1497(6) 0.3398(5)
C1 C -0.285(3) -0.2251(8) 0.3425(5)
H1 H -0.2208 -0.2498 0.3005
C2 C -0.194(3) -0.2682(8) 0.4040(6)
C3 C -0.296(3) -0.2293(7) 0.4669(5)
C4 C -0.486(3) -0.1514(7) 0.4648(6)
C5 C -0.565(3) -0.1155(8) 0.4001(6)
H2 H -0.6953 -0.0649 0.3980
C6 C 0.004(3) -0.3489(8) 0.4072(7)
H3 H 0.0691 -0.3755 0.3659
C7 C -0.595(3) -0.1145(8) 0.5304(6)
H4 H -0.7294 -0.0648 0.5295
C3E C -0.204(3) -0.2707(7) 0.5331(5)
C2E C -0.306(3) -0.2318(8) 0.5960(6)
C1E C -0.215(3) -0.2749(8) 0.6575(5)
N1E N -0.038(2) -0.3503(6) 0.6602(5)
C5E C 0.065(3) -0.3845(8) 0.5999(6)
C4E C -0.014(3) -0.3486(7) 0.5352(6)
C7E C 0.095(3) -0.3855(8) 0.4696(6)
H4E H 0.2294 -0.4352 0.4705
H2E H 0.1953 -0.4351 0.6020
H1E H -0.2792 -0.2502 0.6995
C6E C -0.504(3) -0.1511(8) 0.5928(7)
H3E H -0.5691 -0.1245 0.6341
Cu1_2 Cu -1.5000 -0.07444(15) 0.2500
I1_2 I 0.0000 0.03118(8) 0.2500
N1F N -0.538(2) -0.1497(6) 0.1602(5)
Cu1C Cu 0.0000 -0.42556(15) 0.7500
loop_
_geom_bond_atom_site_label_1
_geom_bond_atom_site_label_2
_geom_bond_site_symmetry_1
_geom_bond_site_symmetry_2
I1 Cu1 1_555 1_555
Cu1 N1 1_555 1_555
N1 C1 1_555 1_555
C1 H1 1_555 1_555
C2 C1 1_555 1_555
C3 C2 1_555 1_555
C4 C3 1_555 1_555
C5 N1 1_555 1_555
H2 C5 1_555 1_555
C6 C2 1_555 1_555
H3 C6 1_555 1_555
C7 C4 1_555 1_555
H4 C7 1_555 1_555
C3E C3 1_555 1_555
C2E C3E 1_555 1_555
C1E C2E 1_555 1_555
N1E C1E 1_555 1_555
C5E N1E 1_555 1_555
C4E C3E 1_555 1_555
C7E C6 1_555 1_555
H4E C7E 1_555 1_555
H2E C5E 1_555 1_555
H1E C1E 1_555 1_555
C6E C7 1_555 1_555
H3E C6E 1_555 1_555
Cu1_2 I1 1_555 1_555
I1_2 Cu1 1_555 1_555
N1F Cu1 1_555 1_555
Cu1C N1E 1_555 1_555
C4 C5 1_555 1_555
C2E C6E 1_555 1_555
C5E C4E 1_555 1_555
C4E C7E 1_555 1_555

#END
