
#######################################################################
#
#                 Cambridge Crystallographic Data Centre
#                                CCDC 
#
#######################################################################
#
# If this CIF has been generated from an entry in the Cambridge 
# Structural Database, then it will include bibliographic, chemical, 
# crystal, experimental, refinement or atomic coordinate data resulting 
# from the CCDC's data processing and validation procedures.
#
#######################################################################

data_HUJPUZ
_symmetry_cell_setting           orthorhombic
_symmetry_space_group_name_H-M   'P b c n'
_symmetry_Int_Tables_number      60
_space_group_name_Hall           '-P 2n 2ab'
loop_
_symmetry_equiv_pos_site_id
_symmetry_equiv_pos_as_xyz
1 x,y,z
2 1/2-x,1/2-y,1/2+z
3 -x,y,1/2-z
4 1/2+x,1/2-y,-z
5 -x,-y,-z
6 1/2+x,1/2+y,1/2-z
7 x,-y,1/2+z
8 1/2-x,1/2+y,z
_cell_length_a                   35.022(3)
_cell_length_b                   10.7640(10)
_cell_length_c                   20.158(2)
_cell_angle_alpha                90
_cell_angle_beta                 90
_cell_angle_gamma                90
_cell_volume                     7599.1
loop_
_atom_site_label
_atom_site_type_symbol
_atom_site_fract_x
_atom_site_fract_y
_atom_site_fract_z
C1 C 0.15661(9) 0.3771(3) 1.15050(16)
H1 H 0.1526 0.4447 1.1227
C2 C 0.17904(10) 0.3904(4) 1.20725(18)
H2 H 0.1901 0.4669 1.2169
C3 C 0.18497(9) 0.2908(4) 1.24919(17)
H3 H 0.1993 0.3008 1.2876
C4 C 0.16965(9) 0.1769(4) 1.23412(15)
H4 H 0.1738 0.1096 1.2621
C5 C 0.14792(8) 0.1620(3) 1.17710(14)
H5 H 0.1383 0.0839 1.1664
C6 C 0.14031(8) 0.2626(3) 1.13561(14)
C7 C 0.11387(8) 0.2424(3) 1.07726(13)
C8 C 0.09602(8) 0.3451(3) 1.04706(14)
H6 H 0.1023 0.4244 1.0618
C9 C 0.06933(8) 0.3329(3) 0.99591(14)
C10 C 0.05008(8) 0.4467(3) 0.96904(13)
C11 C 0.04944(8) 0.5615(3) 1.00070(14)
H7 H 0.0608 0.5695 1.0422
C12 C 0.03245(8) 0.6631(3) 0.97229(14)
H8 H 0.0322 0.7386 0.9947
C13 C 0.01508(8) 0.5427(3) 0.87971(14)
H9 H 0.0031 0.5360 0.8387
C14 C 0.03176(8) 0.4400(3) 0.90764(14)
H10 H 0.0309 0.3645 0.8853
C15 C 0.21261(10) 0.3385(4) 0.84241(18)
H11 H 0.2047 0.3275 0.7988
C16 C 0.24316(11) 0.4160(4) 0.8561(2)
H12 H 0.2556 0.4569 0.8217
C17 C 0.25526(11) 0.4327(4) 0.9204(2)
H13 H 0.2759 0.4843 0.9295
C18 C 0.23663(10) 0.3729(4) 0.97119(19)
H14 H 0.2447 0.3842 1.0147
C19 C 0.20591(9) 0.2962(3) 0.95799(16)
H15 H 0.1933 0.2570 0.9928
C20 C 0.19374(8) 0.2771(3) 0.89318(15)
C21 C 0.15946(8) 0.1963(3) 0.88264(14)
C22 C 0.14534(8) 0.1737(3) 0.81755(14)
H16 H 0.1605 0.1949 0.7814
C23 C 0.10997(8) 0.1214(3) 0.80597(13)
C24 C 0.09552(8) 0.1110(3) 0.73578(13)
C25 C 0.10792(8) 0.1851(3) 0.68396(13)
H17 H 0.1267 0.2446 0.6912
C26 C 0.09232(8) 0.1707(3) 0.62149(13)
H18 H 0.0998 0.2232 0.5872
C27 C 0.05386(8) 0.0071(3) 0.65955(13)
H19 H 0.0363 -0.0555 0.6507
C28 C 0.06715(8) 0.0245(3) 0.72294(13)
H20 H 0.0570 -0.0222 0.7576
C29 C 0.19092(9) -0.1392(3) 1.09791(15)
H21 H 0.1792 -0.0616 1.0978
C30 C 0.21714(10) -0.1682(4) 1.14727(17)
H22 H 0.2229 -0.1103 1.1800
C31 C 0.23453(11) -0.2828(4) 1.1477(2)
H23 H 0.2521 -0.3025 1.1807
C32 C 0.22588(13) -0.3683(4) 1.0991(2)
H24 H 0.2378 -0.4455 1.0991
C33 C 0.19948(11) -0.3399(4) 1.0502(2)
H25 H 0.1935 -0.3987 1.0180
C34 C 0.18199(9) -0.2247(3) 1.04881(15)
C35 C 0.15290(8) -0.1886(3) 0.99773(14)
C36 C 0.14224(9) -0.2720(3) 0.94729(15)
H26 H 0.1555 -0.3464 0.9429
C37 C 0.11231(8) -0.2465(3) 0.90357(14)
C38 C 0.10341(8) -0.3350(3) 0.84845(14)
C39 C 0.11469(9) -0.4586(3) 0.84581(15)
H27 H 0.1285 -0.4926 0.8808
C40 C 0.10566(10) -0.5309(3) 0.79223(16)
H28 H 0.1132 -0.6137 0.7916
C41 C 0.07411(9) -0.3643(3) 0.74149(15)
H29 H 0.0604 -0.3318 0.7061
C42 C 0.08235(8) -0.2910(3) 0.79504(14)
H30 H 0.0736 -0.2094 0.7957
Dy1 Dy 0.088730(4) 0.038578(12) 0.962135(6)
N1 N 0.01585(7) 0.6541(2) 0.91129(11)
N2 N 0.06647(7) 0.0815(2) 0.60998(11)
N3 N 0.08591(8) -0.4842(2) 0.73980(13)
O1 O 0.00081(6) 0.75307(18) 0.88281(10)
O2 O 0.05978(6) 0.23076(18) 0.96820(9)
O3 O 0.10795(6) 0.13125(19) 1.06144(9)
O4 O 0.05245(5) 0.06677(18) 0.54901(8)
O5 O 0.08691(6) 0.0836(2) 0.84962(9)
O6 O 0.14325(6) 0.1536(2) 0.93382(9)
O7 O 0.07892(7) -0.5534(2) 0.68787(12)
O8 O 0.09126(6) -0.15091(19) 0.90619(10)
O9 O 0.13817(6) -0.08222(19) 1.00472(10)
O10 O 0.02432(6) -0.01126(19) 0.92800(10)
H31 H 0.0199(11) -0.093(2) 0.914(2)
H32 H 0.0016(8) 0.025(3) 0.941(2)
Dy1F Dy 0.088730(4) -0.038578(12) 0.462135(6)
O4F O 0.05245(5) -0.06677(18) 1.04901(8)
C43 C 0.0000 0.2645(6) 0.7500
O11 O 0.0000 0.3847(4) 0.7500
O12 O 0.0000 0.8340(3) 0.7500
H33 H -0.0022(13) 0.779(3) 0.7107(14)
H33B H 0.0022(13) 0.779(3) 0.7893(14)
H34? H 0.0187 0.2348 0.7190
H35? H -0.0248 0.2348 0.7374
H36? H 0.0061 0.2348 0.7936
H37? H -0.0161 0.4101 0.7762
loop_
_geom_bond_atom_site_label_1
_geom_bond_atom_site_label_2
_geom_bond_site_symmetry_1
_geom_bond_site_symmetry_2
C1 H1 1_555 1_555
C2 C1 1_555 1_555
H2 C2 1_555 1_555
C3 C2 1_555 1_555
H3 C3 1_555 1_555
C4 C3 1_555 1_555
H4 C4 1_555 1_555
C5 C4 1_555 1_555
H5 C5 1_555 1_555
C6 C1 1_555 1_555
C7 C6 1_555 1_555
C8 C7 1_555 1_555
H6 C8 1_555 1_555
C9 C8 1_555 1_555
C10 C9 1_555 1_555
C11 C10 1_555 1_555
H7 C11 1_555 1_555
C12 C11 1_555 1_555
H8 C12 1_555 1_555
C13 H9 1_555 1_555
C14 C10 1_555 1_555
H10 C14 1_555 1_555
C15 H11 1_555 1_555
C16 C15 1_555 1_555
H12 C16 1_555 1_555
C17 C16 1_555 1_555
H13 C17 1_555 1_555
C18 C17 1_555 1_555
H14 C18 1_555 1_555
C19 C18 1_555 1_555
H15 C19 1_555 1_555
C20 C15 1_555 1_555
C21 C20 1_555 1_555
C22 C21 1_555 1_555
H16 C22 1_555 1_555
C23 C22 1_555 1_555
C24 C23 1_555 1_555
C25 C24 1_555 1_555
H17 C25 1_555 1_555
C26 C25 1_555 1_555
H18 C26 1_555 1_555
C27 H19 1_555 1_555
C28 C24 1_555 1_555
H20 C28 1_555 1_555
C29 H21 1_555 1_555
C30 C29 1_555 1_555
H22 C30 1_555 1_555
C31 C30 1_555 1_555
H23 C31 1_555 1_555
C32 C31 1_555 1_555
H24 C32 1_555 1_555
C33 C32 1_555 1_555
H25 C33 1_555 1_555
C34 C29 1_555 1_555
C35 C34 1_555 1_555
C36 C35 1_555 1_555
H26 C36 1_555 1_555
C37 C36 1_555 1_555
C38 C37 1_555 1_555
C39 C38 1_555 1_555
H27 C39 1_555 1_555
C40 C39 1_555 1_555
H28 C40 1_555 1_555
C41 H29 1_555 1_555
C42 C38 1_555 1_555
H30 C42 1_555 1_555
Dy1 O2 1_555 1_555
N1 C12 1_555 1_555
N2 C26 1_555 1_555
N3 C40 1_555 1_555
O1 N1 1_555 1_555
O2 C9 1_555 1_555
O3 C7 1_555 1_555
O4 N2 1_555 1_555
O5 C23 1_555 1_555
O6 C21 1_555 1_555
O7 N3 1_555 1_555
O8 C37 1_555 1_555
O9 C35 1_555 1_555
O10 Dy1 1_555 1_555
H31 O10 1_555 1_555
H32 O10 1_555 1_555
C43 O11 1_555 1_555
O12 H33 1_555 1_555
Dy1F O4 1_555 1_555
O4F Dy1 1_555 1_555
H33B O12 1_555 1_555
C5 C6 1_555 1_555
C13 C14 1_555 1_555
C13 N1 1_555 1_555
C19 C20 1_555 1_555
C27 C28 1_555 1_555
C27 N2 1_555 1_555
C33 C34 1_555 1_555
C41 C42 1_555 1_555
C41 N3 1_555 1_555
Dy1 O3 1_555 1_555
Dy1 O5 1_555 1_555
Dy1 O6 1_555 1_555
Dy1 O8 1_555 1_555
Dy1 O9 1_555 1_555

#END
