
#######################################################################
#
#                 Cambridge Crystallographic Data Centre
#                                CCDC 
#
#######################################################################
#
# If this CIF has been generated from an entry in the Cambridge 
# Structural Database, then it will include bibliographic, chemical, 
# crystal, experimental, refinement or atomic coordinate data resulting 
# from the CCDC's data processing and validation procedures.
#
#######################################################################

data_HUJRUA
_symmetry_cell_setting           triclinic
_symmetry_space_group_name_H-M   'P -1'
_symmetry_Int_Tables_number      2
_space_group_name_Hall           '-P 1'
loop_
_symmetry_equiv_pos_site_id
_symmetry_equiv_pos_as_xyz
1 x,y,z
2 -x,-y,-z
_cell_length_a                   17.8878(18)
_cell_length_b                   18.589(2)
_cell_length_c                   20.570(2)
_cell_angle_alpha                86.598(4)
_cell_angle_beta                 66.986(3)
_cell_angle_gamma                76.681(3)
_cell_volume                     6122.53
loop_
_atom_site_label
_atom_site_type_symbol
_atom_site_fract_x
_atom_site_fract_y
_atom_site_fract_z
Na1 Na -0.18601(19) 0.38990(15) 0.19044(16)
Cl2 Cl 0.04636(10) 0.32586(9) 0.10051(10)
O64 O -0.0402(3) 0.3217(3) 0.1303(3)
O65 O 0.0550(4) 0.3953(3) 0.1179(4)
O66 O 0.0769(4) 0.3167(4) 0.0243(3)
O67 O 0.0920(4) 0.2665(3) 0.1261(4)
Cl3 Cl -0.18822(13) 0.53693(9) 0.09944(10)
O68 O -0.1703(4) 0.5995(3) 0.1242(3)
O69 O -0.1208(5) 0.4746(3) 0.0890(4)
O70 O -0.2616(5) 0.5207(4) 0.1528(4)
O71 O -0.2016(5) 0.5542(4) 0.0358(4)
Cl4 Cl 0.21025(13) -0.28780(10) 0.13336(12)
O72 O 0.2496(5) -0.3514(4) 0.1571(4)
O73 O 0.2415(5) -0.2913(4) 0.0566(4)
O74 O 0.2211(5) -0.2204(4) 0.1544(4)
O75 O 0.1221(4) -0.2850(4) 0.1604(4)
Cl5 Cl -0.61841(14) 0.12324(15) 0.54154(11)
O76 O -0.6301(5) 0.1442(7) 0.4783(5)
O77 O -0.6499(10) 0.0591(7) 0.5653(6)
O78 O -0.6665(9) 0.1763(6) 0.5961(5)
O79 O -0.5409(8) 0.1246(14) 0.5300(8)
Cl6 Cl -0.57045(15) 0.17381(16) 0.25923(14)
O80 O -0.4881(4) 0.1853(4) 0.2324(3)
O81 O -0.6079(5) 0.1968(6) 0.2113(5)
O82 O -0.5739(7) 0.1038(7) 0.2800(7)
O83 O -0.6161(7) 0.2189(9) 0.3245(6)
Cl7 Cl -0.15474(14) 0.04645(18) 0.36381(11)
O84 O -0.1934(5) 0.0478(5) 0.4352(3)
O85 O -0.1959(5) 0.1001(5) 0.3290(4)
O86 O -0.0682(5) 0.0368(5) 0.3340(4)
O87 O -0.1654(9) -0.0303(6) 0.3415(6)
Cl8 Cl -0.45588(17) -0.12500(18) 0.25087(17)
O88 O -0.4090(6) -0.1893(5) 0.2732(5)
O89 O -0.5373(9) -0.1243(12) 0.2701(12)
O90 O -0.4197(14) -0.1222(12) 0.1824(7)
O91 O -0.4587(11) -0.0647(7) 0.2861(11)
Cl9 Cl -0.1397(2) 0.45335(16) 0.30842(15)
O92 O -0.1584(7) 0.4943(6) 0.2544(5)
O93 O -0.1866(11) 0.4869(7) 0.3732(6)
O94 O -0.1548(6) 0.3847(5) 0.3036(6)
O95 O -0.0543(11) 0.4427(11) 0.2974(10)
Cl10 Cl -0.5088(3) 0.6455(3) 0.1062(4)
O96 O -0.5314(7) 0.6261(7) 0.0556(6)
O97 O -0.4405(6) 0.6015(6) 0.1172(6)
O98 O -0.5265(14) 0.7202(7) 0.1237(12)
O99 O -0.5770(11) 0.6164(12) 0.1706(9)
Cl11 Cl 0.2447(8) -0.5960(5) 0.1856(7)
O100 O 0.1813(13) -0.6345(13) 0.2288(11)
O101 O 0.2027(16) -0.5285(11) 0.1678(15)
O102 O 0.2919(14) -0.6418(13) 0.1228(10)
O103 O 0.295(2) -0.585(2) 0.218(2)
Cl12 Cl 0.0332(4) 0.0717(6) 0.4564(3)
O104 O 0.0708(4) 0.0595(4) 0.3801(3)
O105 O 0.0883(10) 0.0622(10) 0.4923(8)
O106 O 0.0395(14) 0.1605(8) 0.4515(11)
O107 O -0.0501(9) 0.0825(13) 0.4883(10)
Cl13 Cl 0.0814(4) -0.2879(5) -0.5109(3)
O108 O 0.1036(14) -0.3303(12) -0.4609(13)
O109 O 0.0824(17) -0.2117(10) -0.495(2)
O110 O 0.121(3) -0.314(2) -0.567(3)
O111 O -0.007(2) -0.283(2) -0.487(2)
O22 O 0.5480(15) -0.3258(19) -0.4992(10)
O23 O 0.2439(5) 0.2069(4) 0.1918(4)
O24 O 0.3240(5) -0.1263(4) 0.2244(4)
O25 O -0.4499(14) 0.2370(9) 0.6056(8)
O26 O 0.055(2) 0.359(4) -0.3848(17)
O27 O 0.0421(10) -0.3997(9) 0.2479(7)
O28 O -0.3330(4) 0.4124(3) 0.2628(4)
O29 O -0.3823(5) -0.0204(6) -0.1800(5)
O30 O -0.472(2) 0.3267(16) 0.689(3)
O31 O -0.712(3) 0.325(2) 0.4913(19)
O32 O -0.3659(6) 0.0169(7) 0.1244(9)
O33 O -0.4655(10) -0.0716(19) 0.0159(11)
O34 O -0.1520(10) -0.1553(10) 0.4338(8)
O35 O -0.5359(12) 0.4679(14) 0.7525(12)
O36 O -0.7897(12) 0.2293(14) 0.4291(11)
O37 O 0.3029(13) -0.2626(9) 0.2743(11)
Eu1 Eu 0.160210(16) 0.024331(14) 0.144324(14)
Eu2 Eu -0.228297(15) 0.200553(14) 0.142425(13)
Eu3 Eu -0.128412(16) -0.184942(14) 0.165522(14)
Cu1 Cu 0.01605(4) -0.07634(3) 0.15107(3)
Cu2 Cu 0.14375(4) 0.09796(4) -0.01383(3)
Cu3 Cu -0.17130(4) 0.01025(3) 0.15133(3)
Cu4 Cu -0.03005(4) 0.11099(3) 0.13639(3)
Cu5 Cu -0.04744(4) 0.18734(4) -0.01250(3)
Cu6 Cu 0.18912(4) -0.08660(3) -0.00051(3)
Cu7 Cu -0.40987(4) 0.23526(4) 0.30102(4)
Cu8 Cu -0.42983(4) 0.30276(4) 0.16554(4)
Cu9 Cu 0.15137(5) 0.13619(4) 0.28228(4)
Cu10 Cu -0.27865(5) -0.29383(4) 0.19561(4)
Cu11 Cu 0.19227(5) -0.04037(4) 0.30015(4)
Cu12 Cu -0.32436(6) 0.15493(5) 0.52348(4)
Cu13 Cu -0.5000 0.5000 0.0000
Cl1 Cl 0.0000 0.0000 0.0000
N1 N -0.3778(4) 0.4954(5) -0.0477(4)
H1 H -0.3556 0.4656 -0.0867
H2 H -0.3716 0.5415 -0.0606
N2 N -0.4955(3) 0.2929(3) 0.1095(3)
H3 H -0.5445 0.2829 0.1383
H4 H -0.5062 0.3358 0.0888
N3 N -0.6343(18) 0.4769(14) 0.2994(14)
H5 H -0.6782 0.5144 0.3182
H6 H -0.5934 0.4935 0.2658
H7 H -0.6487 0.4430 0.2808
N4 N -0.4562(3) 0.1639(3) 0.3710(3)
H8 H -0.4507 0.1719 0.4114
H9 H -0.5110 0.1703 0.3804
N5 N -0.2580(8) 0.2299(6) 0.4966(5)
H10 H -0.2786 0.2649 0.5314
H11 H -0.2052 0.2089 0.4909
N6 N -0.3765(4) 0.0685(4) 0.5436(4)
H12 H -0.4315 0.0833 0.5693
H13 H -0.3695 0.0473 0.5028
N7 N -0.0112(4) -0.4475(3) 0.1472(3)
H14 H 0.0027 -0.4965 0.1486
H15 H -0.0075 -0.4272 0.1837
H16 H -0.0633 -0.4335 0.1495
N8 N -0.3465(4) -0.2983(4) 0.1402(4)
H17 H -0.3460 -0.3457 0.1329
H18 H -0.3996 -0.2742 0.1639
N9 N -0.3194(4) -0.3581(4) 0.2761(4)
H19 H -0.3754 -0.3483 0.2941
H20 H -0.3001 -0.4059 0.2614
N10 N 0.1504(5) -0.1215(4) 0.3583(4)
H21 H 0.1934 -0.1604 0.3526
H22 H 0.1273 -0.1067 0.4041
N11 N 0.0711(5) 0.2301(5) 0.3237(5)
H23 H 0.0556 0.2312 0.3710
H24 H 0.0948 0.2685 0.3062
C1 C -0.3941(4) 0.4319(3) 0.0633(4)
C2 C -0.3382(4) 0.4662(4) 0.0018(4)
H25 H -0.3231 0.5061 0.0187
H26 H -0.2875 0.4296 -0.0228
C3 C -0.3649(4) 0.1984(3) 0.0535(3)
C4 C -0.4499(5) 0.2340(5) 0.0558(5)
H27 H -0.4446 0.2540 0.0100
H28 H -0.4821 0.1964 0.0644
C5 C -0.5408(5) 0.3625(5) 0.3068(5)
C6 C -0.6152(8) 0.4208(8) 0.3513(6)
H29 H -0.6559 0.3975 0.3867
H30 H -0.6001 0.4563 0.3739
C7 C -0.3368(4) 0.0858(3) 0.2768(3)
C8 C -0.4130(4) 0.0879(4) 0.3441(3)
H31 H -0.4510 0.0640 0.3352
H32 H -0.3965 0.0606 0.3797
C9 C -0.3209(4) 0.2398(4) 0.4100(4)
C10 C -0.2589(9) 0.2641(8) 0.4315(6)
H33 H -0.2037 0.2503 0.3943
H34 H -0.2735 0.3175 0.4381
C11 C -0.2878(4) 0.0496(4) 0.6113(3)
C12 C -0.3374(5) 0.0147(4) 0.5830(4)
H35 H -0.3010 -0.0274 0.5520
H36 H -0.3802 -0.0031 0.6218
C13 C 0.0237(4) -0.3392(3) 0.0767(3)
C14 C 0.0464(5) -0.4227(4) 0.0800(4)
H37 H 0.1033 -0.4384 0.0771
H38 H 0.0430 -0.4452 0.0402
C15 C -0.2561(4) -0.2144(3) 0.0754(3)
C16 C -0.3112(6) -0.2640(5) 0.0724(5)
H39 H -0.3560 -0.2351 0.0601
H40 H -0.2786 -0.3023 0.0359
C17 C -0.2158(5) -0.3082(4) 0.3003(4)
C18 C -0.2899(6) -0.3441(5) 0.3307(4)
H41 H -0.2741 -0.3905 0.3513
H42 H -0.3348 -0.3120 0.3680
C19 C 0.0803(4) -0.1060(3) 0.2754(3)
C20 C 0.0883(6) -0.1445(5) 0.3390(4)
H43 H 0.0347 -0.1335 0.3784
H44 H 0.1045 -0.1975 0.3294
C21 C 0.0096(4) 0.1801(3) 0.2532(3)
C22 C -0.0020(5) 0.2358(5) 0.3063(6)
H45 H -0.0157 0.2847 0.2890
H46 H -0.0490 0.2305 0.3492
O1 O 0.0146(2) 0.0228(2) 0.17917(19)
H47 H -0.0132 0.0289 0.2307
O2 O -0.0773(2) 0.1951(2) 0.09071(19)
H48 H -0.0664 0.2408 0.1027
O3 O -0.1060(2) -0.0636(2) 0.1920(2)
H49 H -0.1274 -0.0548 0.2433
O4 O 0.1376(2) -0.0865(2) 0.10229(19)
H50 H 0.1664 -0.1304 0.1190
O5 O -0.1633(2) 0.1812(2) 0.01418(19)
H51 H -0.1909 0.2208 -0.0080
O6 O 0.0161(2) -0.1704(2) 0.11406(19)
H52 H 0.0504 -0.2102 0.1305
O7 O 0.0861(2) 0.1187(2) 0.0880(2)
H53 H 0.0910 0.1677 0.0989
O8 O -0.1438(2) 0.09693(19) 0.17941(19)
H54 H -0.1624 0.0994 0.2310
O9 O -0.1931(2) -0.0748(2) 0.11600(19)
H55 H -0.2535 -0.0707 0.1338
O10 O 0.2093(2) 0.0102(2) 0.01349(19)
H56 H 0.2689 0.0095 -0.0091
O11 O -0.3553(2) 0.2871(2) 0.2162(2)
H57 H -0.3445 0.3334 0.2271
O12 O 0.0704(2) 0.1822(2) -0.0371(2)
H58 H 0.0754 0.2274 -0.0185
O13 O 0.2156(2) 0.0404(2) 0.2340(2)
H59 H 0.2754 0.0391 0.2122
O14 O -0.2305(2) 0.0811(2) 0.10340(19)
H60 H -0.2885 0.0763 0.1211
O15 O 0.2912(3) -0.0670(3) 0.1109(3)
O16 O 0.2485(3) 0.1117(3) 0.0958(3)
O17 O -0.1960(2) 0.2588(2) 0.2317(2)
O18 O -0.2130(2) 0.3271(2) 0.0966(2)
O19 O -0.0771(3) -0.2122(3) 0.2594(3)
O20 O -0.2545(3) -0.1234(2) 0.2633(2)
O21 O 0.2243(3) 0.1369(3) 0.3322(3)
O38 O -0.3653(3) 0.3934(3) 0.1027(3)
O39 O -0.4703(3) 0.4428(3) 0.0724(3)
O40 O -0.3433(2) 0.2240(2) 0.0997(2)
O41 O 0.3208(3) -0.1479(2) -0.0105(2)
O42 O -0.5036(3) 0.3196(3) 0.3416(3)
O43 O -0.5230(3) 0.3652(3) 0.2403(3)
O44 O -0.3237(2) 0.1480(2) 0.2496(2)
O45 O -0.2913(3) 0.0252(2) 0.2502(2)
O46 O -0.3590(3) 0.1940(3) 0.4475(2)
O47 O -0.3294(3) 0.2658(3) 0.3549(2)
O48 O 0.2587(3) -0.0127(3) 0.3480(3)
O49 O -0.2779(3) 0.1131(3) 0.5930(3)
O50 O -0.0421(3) -0.3057(2) 0.1245(2)
O51 O -0.0724(3) 0.3112(2) -0.0262(2)
O52 O -0.2297(2) -0.2249(2) 0.1251(2)
O53 O 0.2374(3) 0.1686(3) -0.0287(2)
O54 O -0.2058(3) -0.2769(2) 0.2403(2)
O55 O -0.1725(5) -0.3075(5) 0.3322(4)
O56 O 0.1255(3) -0.0582(2) 0.2479(2)
O57 O 0.0334(3) -0.1234(2) 0.2509(2)
O58 O 0.0791(2) 0.1305(2) 0.2327(2)
O59 O -0.0459(3) 0.1822(2) 0.2308(2)
O60 O -0.035(3) 0.006(3) 0.0775(10)
O61 O 0.014(3) 0.0653(18) 0.025(2)
O62 O -0.044(3) 0.0627(18) -0.024(2)
Eu3A Eu 0.128412(16) 0.184942(14) -0.165522(14)
Cu2A Cu -0.14375(4) -0.09796(4) 0.01383(3)
Cu5A Cu 0.04744(4) -0.18734(4) 0.01250(3)
Cu6A Cu -0.18912(4) 0.08660(3) 0.00051(3)
N1A N -0.6222(4) 0.5046(5) 0.0477(4)
C3A C 0.3649(4) -0.1984(3) -0.0535(3)
C11A C 0.2878(4) -0.0496(4) 0.3887(3)
C13A C -0.0237(4) 0.3392(3) -0.0767(3)
C15A C 0.2561(4) 0.2144(3) -0.0754(3)
O5A O 0.1633(2) -0.1812(2) -0.01418(19)
O6A O -0.0161(2) 0.1704(2) -0.11406(19)
O9A O 0.1931(2) 0.0748(2) -0.11600(19)
O12A O -0.0704(2) -0.1822(2) 0.0371(2)
O14A O 0.2305(2) -0.0811(2) -0.10340(19)
O39A O -0.5297(3) 0.5572(3) -0.0724(3)
O41A O -0.3208(3) 0.1479(2) 0.0105(2)
O48A O -0.2587(3) 0.0127(3) 0.6520(3)
O51A O 0.0724(3) -0.3112(2) 0.0262(2)
O53A O -0.2374(3) -0.1686(3) 0.0287(2)
O60A O 0.035(3) -0.006(3) -0.0775(10)
O61A O -0.014(3) -0.0653(18) -0.025(2)
O62A O 0.044(3) -0.0627(18) 0.024(2)
O63? O -0.0899(11) 0.007(3) 0.026(2)
loop_
_geom_bond_atom_site_label_1
_geom_bond_atom_site_label_2
_geom_bond_site_symmetry_1
_geom_bond_site_symmetry_2
Eu1 O1 1_555 1_555
Eu2 O2 1_555 1_555
Eu3 O3 1_555 1_555
Cu1 O1 1_555 1_555
Cu2 O7 1_555 1_555
Cu3 O3 1_555 1_555
Cu4 O1 1_555 1_555
Cu5 O2 1_555 1_555
Cu6 O4 1_555 1_555
Cu7 N4 1_555 1_555
Cu8 N2 1_555 1_555
Cu9 N11 1_555 1_555
Cu10 N8 1_555 1_555
Cu11 N10 1_555 1_555
Cu12 N5 1_555 1_555
Cu13 N1 1_555 1_555
Cl1 O60 1_555 1_555
Cl2 O64 1_555 1_555
Cl3 O68 1_555 1_555
Cl4 O72 1_555 1_555
Cl5 O76 1_555 1_555
Cl6 O80 1_555 1_555
Cl7 O84 1_555 1_555
Cl8 O88 1_555 1_555
Cl9 O92 1_555 1_555
Cl10 O96 1_555 1_555
Cl11 O100 1_555 1_555
Cl12 O104 1_555 1_555
Cl13 O108 1_555 1_555
N1 H1 1_555 1_555
H2 N1 1_555 1_555
N2 H3 1_555 1_555
H4 N2 1_555 1_555
N3 H5 1_555 1_555
H6 N3 1_555 1_555
H7 N3 1_555 1_555
N4 H8 1_555 1_555
H9 N4 1_555 1_555
N5 H10 1_555 1_555
H11 N5 1_555 1_555
N6 Cu12 1_555 1_555
H12 N6 1_555 1_555
H13 N6 1_555 1_555
N7 H14 1_555 1_555
H15 N7 1_555 1_555
H16 N7 1_555 1_555
N8 H17 1_555 1_555
H18 N8 1_555 1_555
N9 Cu10 1_555 1_555
H19 N9 1_555 1_555
H20 N9 1_555 1_555
N10 H21 1_555 1_555
H22 N10 1_555 1_555
N11 H23 1_555 1_555
H24 N11 1_555 1_555
C1 C2 1_555 1_555
C2 N1 1_555 1_555
H25 C2 1_555 1_555
H26 C2 1_555 1_555
C3 C4 1_555 1_555
C4 N2 1_555 1_555
H27 C4 1_555 1_555
H28 C4 1_555 1_555
C5 C6 1_555 1_555
C6 N3 1_555 1_555
H29 C6 1_555 1_555
H30 C6 1_555 1_555
C7 C8 1_555 1_555
C8 N4 1_555 1_555
H31 C8 1_555 1_555
H32 C8 1_555 1_555
C9 C10 1_555 1_555
C10 N5 1_555 1_555
H33 C10 1_555 1_555
H34 C10 1_555 1_555
C11 C12 1_555 1_555
C12 N6 1_555 1_555
H35 C12 1_555 1_555
H36 C12 1_555 1_555
C13 C14 1_555 1_555
C14 N7 1_555 1_555
H37 C14 1_555 1_555
H38 C14 1_555 1_555
C15 C16 1_555 1_555
C16 N8 1_555 1_555
H39 C16 1_555 1_555
H40 C16 1_555 1_555
C17 C18 1_555 1_555
C18 N9 1_555 1_555
H41 C18 1_555 1_555
H42 C18 1_555 1_555
C19 C20 1_555 1_555
C20 N10 1_555 1_555
H43 C20 1_555 1_555
H44 C20 1_555 1_555
C21 C22 1_555 1_555
C22 N11 1_555 1_555
H45 C22 1_555 1_555
H46 C22 1_555 1_555
O1 H47 1_555 1_555
O2 Cu4 1_555 1_555
H48 O2 1_555 1_555
O3 Cu1 1_555 1_555
H49 O3 1_555 1_555
O4 Eu1 1_555 1_555
H50 O4 1_555 1_555
O5 Eu2 1_555 1_555
H51 O5 1_555 1_555
O6 Eu3 1_555 1_555
H52 O6 1_555 1_555
O7 Eu1 1_555 1_555
H53 O7 1_555 1_555
O8 Eu2 1_555 1_555
H54 O8 1_555 1_555
O9 Eu3 1_555 1_555
H55 O9 1_555 1_555
O10 Eu1 1_555 1_555
H56 O10 1_555 1_555
O11 Eu2 1_555 1_555
H57 O11 1_555 1_555
O12 Cu2 1_555 1_555
H58 O12 1_555 1_555
O13 Eu1 1_555 1_555
H59 O13 1_555 1_555
O14 Eu2 1_555 1_555
H60 O14 1_555 1_555
O15 Eu1 1_555 1_555
O16 Eu1 1_555 1_555
O17 Eu2 1_555 1_555
O18 Eu2 1_555 1_555
O19 Eu3 1_555 1_555
O20 Eu3 1_555 1_555
O21 Cu9 1_555 1_555
O38 Cu8 1_555 1_555
O39 Cu13 1_555 1_555
O40 Eu2 1_555 1_555
O41 Cu6 1_555 1_555
O42 Cu7 1_555 1_555
O43 Cu8 1_555 1_555
O44 Eu2 1_555 1_555
O45 Cu3 1_555 1_555
O46 Cu12 1_555 1_555
O47 Cu7 1_555 1_555
O48 Cu11 1_555 1_555
O49 Cu12 1_555 1_555
O50 Eu3 1_555 1_555
O51 Cu5 1_555 1_555
O52 Eu3 1_555 1_555
O53 Cu2 1_555 1_555
O54 Eu3 1_555 1_555
O55 C17 1_555 1_555
O56 Eu1 1_555 1_555
O57 Cu1 1_555 1_555
O58 Eu1 1_555 1_555
O59 Cu4 1_555 1_555
O60 Cu1 1_555 1_555
O61 Cu2 1_555 1_555
O62 Cu5 1_555 1_555
O65 Cl2 1_555 1_555
O66 Cl2 1_555 1_555
O67 Cl2 1_555 1_555
O69 Cl3 1_555 1_555
O70 Cl3 1_555 1_555
O71 Cl3 1_555 1_555
O73 Cl4 1_555 1_555
O74 Cl4 1_555 1_555
O75 Cl4 1_555 1_555
O77 Cl5 1_555 1_555
O78 Cl5 1_555 1_555
O79 Cl5 1_555 1_555
O81 Cl6 1_555 1_555
O82 Cl6 1_555 1_555
O83 Cl6 1_555 1_555
O85 Cl7 1_555 1_555
O86 Cl7 1_555 1_555
O87 Cl7 1_555 1_555
O89 Cl8 1_555 1_555
O90 Cl8 1_555 1_555
O91 Cl8 1_555 1_555
O93 Cl9 1_555 1_555
O94 Cl9 1_555 1_555
O95 Cl9 1_555 1_555
O97 Cl10 1_555 1_555
O98 Cl10 1_555 1_555
O99 Cl10 1_555 1_555
O101 Cl11 1_555 1_555
O102 Cl11 1_555 1_555
O103 Cl11 1_555 1_555
O105 Cl12 1_555 1_555
O106 Cl12 1_555 1_555
O107 Cl12 1_555 1_555
O109 Cl13 1_555 1_555
O110 Cl13 1_555 1_555
O111 Cl13 1_555 1_555
Eu3A O12 1_555 1_555
Cu2A O9 1_555 1_555
Cu5A O6 1_555 1_555
Cu6A O5 1_555 1_555
N1A Cu13 1_555 1_555
C3A O41 1_555 1_555
C11A O48 1_555 1_555
C13A O51 1_555 1_555
C15A O53 1_555 1_555
O5A Cu6 1_555 1_555
O6A Cu5 1_555 1_555
O9A Cu2 1_555 1_555
O12A Eu3 1_555 1_555
O14A Cu6 1_555 1_555
O39A Cu13 1_555 1_555
O41A C3 1_555 1_555
O48A C11 1_555 1_555
O51A C13 1_555 1_555
O53A C15 1_555 1_555
O60A Cl1 1_555 1_555
O61A Cl1 1_555 1_555
O62A Cu6 1_555 1_555
Cu1 O4 1_555 1_555
Cu1 O6 1_555 1_555
Cu2 O10 1_555 1_555
Cu3 O8 1_555 1_555
Cu3 O9 1_555 1_555
Cu3 O14 1_555 1_555
Cu3 O60 1_555 1_555
Cu4 O7 1_555 1_555
Cu4 O8 1_555 1_555
Cu4 O60 1_555 1_555
Cu4 O61 1_555 1_555
Cu5 O5 1_555 1_555
Cu5 O12 1_555 1_555
Cu6 O10 1_555 1_555
Cu7 O11 1_555 1_555
Cu7 O44 1_555 1_555
Cu8 O11 1_555 1_555
Cu8 O40 1_555 1_555
Cu9 O13 1_555 1_555
Cu9 O58 1_555 1_555
Cu10 O52 1_555 1_555
Cu10 O54 1_555 1_555
Cu11 O13 1_555 1_555
Cu11 O56 1_555 1_555
Cl1 O61 1_555 1_555
Cl1 O62 1_555 1_555
Cl1 O62A 1_555 1_555
C1 O38 1_555 1_555
C1 O39 1_555 1_555
C3 O40 1_555 1_555
C5 O42 1_555 1_555
C5 O43 1_555 1_555
C7 O44 1_555 1_555
C7 O45 1_555 1_555
C9 O46 1_555 1_555
C9 O47 1_555 1_555
C11 O49 1_555 1_555
C13 O50 1_555 1_555
C15 O52 1_555 1_555
C17 O54 1_555 1_555
C19 O56 1_555 1_555
C19 O57 1_555 1_555
C21 O58 1_555 1_555
C21 O59 1_555 1_555
O14 Cu6A 1_555 1_555
O60 O61 1_555 1_555
O60 O62A 1_555 1_555
O61 O62 1_555 1_555
O62 Cu6A 1_555 1_555
O62 O60A 1_555 1_555
Eu3A O6A 1_555 1_555
Eu3A O9A 1_555 1_555
Cu2A O12A 1_555 1_555
Cu2A O53A 1_555 1_555
Cu2A O61A 1_555 1_555
Cu5A O5A 1_555 1_555
Cu5A O12A 1_555 1_555
Cu5A O51A 1_555 1_555
Cu5A O62A 1_555 1_555
Cu6A O41A 1_555 1_555
O60A O61A 1_555 1_555
O61A O62A 1_555 1_555

#END
