
#######################################################################
#
#                 Cambridge Crystallographic Data Centre
#                                CCDC 
#
#######################################################################
#
# If this CIF has been generated from an entry in the Cambridge 
# Structural Database, then it will include bibliographic, chemical, 
# crystal, experimental, refinement or atomic coordinate data resulting 
# from the CCDC's data processing and validation procedures.
#
#######################################################################

data_HUJSAH
_symmetry_cell_setting           triclinic
_symmetry_space_group_name_H-M   'P -1'
_symmetry_Int_Tables_number      2
_space_group_name_Hall           '-P 1'
loop_
_symmetry_equiv_pos_site_id
_symmetry_equiv_pos_as_xyz
1 x,y,z
2 -x,-y,-z
_cell_length_a                   16.040(3)
_cell_length_b                   20.720(4)
_cell_length_c                   21.239(4)
_cell_angle_alpha                107.49(3)
_cell_angle_beta                 106.91(3)
_cell_angle_gamma                107.71(3)
_cell_volume                     5818.01
loop_
_atom_site_label
_atom_site_type_symbol
_atom_site_fract_x
_atom_site_fract_y
_atom_site_fract_z
Cl2 Cl 0.484(3) 0.642(2) 0.0929(19)
O60 O 0.443(8) 0.613(7) 0.130(4)
O61 O 0.573(17) 0.701(8) 0.125(10)
O62 O 0.427(17) 0.663(8) 0.047(7)
O63 O 0.486(12) 0.587(10) 0.040(7)
Cl3 Cl -0.283(2) 0.8866(15) -0.3469(16)
O64 O -0.356(6) 0.859(5) -0.416(4)
O65 O -0.234(7) 0.964(4) -0.318(5)
O66 O -0.215(7) 0.855(5) -0.351(5)
O67 O -0.326(7) 0.861(6) -0.305(6)
Cl4 Cl 0.146(2) 0.3665(17) -0.8469(14)
O68 O 0.219(6) 0.339(5) -0.847(5)
O69 O 0.191(7) 0.446(5) -0.812(5)
O70 O 0.074(6) 0.342(4) -0.919(4)
O71 O 0.111(7) 0.341(5) -0.804(4)
Cl5 Cl -0.169(2) 0.3536(16) -0.5260(16)
O72 O -0.203(6) 0.353(6) -0.473(4)
O73 O -0.104(7) 0.330(6) -0.529(6)
O74 O -0.251(6) 0.328(5) -0.598(5)
O75 O -0.111(12) 0.434(7) -0.487(7)
Cl6 Cl 0.132(3) 0.304(2) -0.1142(19)
O76 O 0.222(6) 0.374(5) -0.077(6)
O77 O 0.129(8) 0.268(4) -0.065(3)
O78 O 0.050(4) 0.321(4) -0.134(6)
O79 O 0.135(7) 0.255(5) -0.179(4)
Cl8 Cl -0.488(3) -0.027(2) 0.262(2)
O84 O -0.395(5) 0.029(5) 0.276(4)
O85 O -0.530(7) -0.089(5) 0.193(4)
O86 O -0.552(5) 0.013(4) 0.265(6)
O87 O -0.479(9) -0.049(4) 0.322(3)
Cl9 Cl -0.042(3) 0.094(2) -0.052(2)
O88 O -0.071(8) 0.038(4) -0.024(4)
O89 O -0.102(8) 0.065(6) -0.129(3)
O90 O -0.048(6) 0.162(4) -0.012(6)
O91 O 0.059(4) 0.111(7) -0.042(6)
Cl10 Cl -0.950(3) 0.289(3) -0.378(2)
O92 O -0.877(4) 0.258(4) -0.370(6)
O93 O -0.993(5) 0.282(5) -0.326(3)
O94 O -1.023(7) 0.245(5) -0.453(4)
O95 O -0.904(9) 0.368(3) -0.361(6)
Cl11 Cl -0.117(6) 0.026(5) -0.452(4)
O96 O -0.196(4) 0.026(4) -0.507(3)
O97 O -0.058(8) 0.095(5) -0.385(5)
O98 O -0.161(8) -0.034(4) -0.429(4)
O99 O -0.054(5) 0.003(6) -0.483(5)
Cl12 Cl -0.694(5) 0.383(4) -0.288(4)
O100 O -0.651(6) 0.467(3) -0.256(4)
O101 O -0.626(4) 0.355(4) -0.297(4)
O102 O -0.777(6) 0.356(6) -0.359(4)
O103 O -0.732(6) 0.359(5) -0.238(3)
O20 O -0.612(6) 0.603(4) -0.128(4)
O23 O -0.260(9) 0.774(6) -0.043(5)
O24 O -0.209(11) 0.831(8) 0.246(7)
O25 O -0.198(6) 0.250(4) -0.403(4)
O26 O 0.427(7) 0.776(5) 0.240(4)
O27 O -0.246(9) -0.119(6) -0.674(5)
O28 O -0.527(6) 0.106(5) -0.426(5)
O29 O -0.394(7) -0.014(5) -0.433(5)
O30 O 0.541(7) 0.717(6) 0.264(5)
O31 O -0.418(16) 0.887(8) -0.098(11)
O51 O -0.233(8) 1.033(6) 0.093(5)
Dy1 Dy -0.4153(3) 0.3433(2) -0.3818(2)
Dy2 Dy -0.1499(3) 0.6606(2) -0.4159(2)
Dy3 Dy -0.5093(3) 0.3343(2) -0.7278(2)
Cu1 Cu -0.3575(8) 0.3087(7) -0.8183(6)
Cu2 Cu 0.0000 0.5000 0.0000
Cu3 Cu -0.7812(12) 0.0933(11) -1.1758(10)
Cu4 Cu -0.4651(7) 0.3433(6) -0.5516(5)
Cu5 Cu -0.4575(7) 0.5035(5) -0.3318(5)
Cu6 Cu -0.3346(7) 0.4946(5) -0.5701(5)
Cu7 Cu -0.6733(7) 0.3425(6) -0.6515(5)
Cu8 Cu -0.2892(7) 0.5022(6) -0.3999(5)
Cu9 Cu -0.6294(7) 0.3484(6) -0.4805(5)
Cu10 Cu 0.0065(8) 0.8254(6) -0.4181(6)
Cu11 Cu -0.5559(9) 0.3086(7) -0.9104(5)
Cu12 Cu -0.2118(8) 0.3217(6) -0.2804(6)
Cu13 Cu -0.3675(9) 0.1817(6) -0.4147(6)
Cl1 Cl -0.5000 0.5000 -0.5000
Cl7 Cl -0.141(4) 0.408(3) 0.084(2)
N1 N -0.074(6) 0.385(4) -0.242(4)
H1 H -0.0478 0.4058 -0.1929
H2 H -0.0440 0.3567 -0.2567
N2 N -0.219(5) 0.357(5) -0.780(5)
H3 H -0.2011 0.3730 -0.8111
H4 H -0.1942 0.3246 -0.7739
N3 N -0.396(6) 0.106(4) -0.511(4)
H5 H -0.3475 0.0921 -0.5069
H6 H -0.4506 0.0657 -0.5257
N4 N -0.031(6) 0.887(5) -0.468(5)
H7 H -0.0062 0.9355 -0.4354
H8 H -0.0108 0.8852 -0.5030
N5 N -0.791(8) 0.106(7) -0.917(6)
H9 H -0.8355 0.0609 -0.9514
H10 H -0.7790 0.1377 -0.9368
H11 H -0.7376 0.1025 -0.8946
N6 N -0.601(6) 0.364(4) -0.961(4)
H12 H -0.6589 0.3328 -0.9981
H13 H -0.5595 0.3811 -0.9794
N7 N 0.153(5) 0.874(4) -0.378(4)
H14 H 0.1723 0.8627 -0.4142
H15 H 0.1769 0.9239 -0.3544
N8 N -0.130(8) 0.165(6) -0.187(6)
H16 H -0.1217 0.1344 -0.1662
H17 H -0.1351 0.2023 -0.1571
H18 H -0.0794 0.1829 -0.1965
N9 N -0.662(8) 0.093(8) -1.177(6)
H19 H -0.6529 0.1045 -1.2128
H20 H -0.6643 0.0473 -1.1855
N10 N -0.094(6) 0.542(5) -0.012(5)
H21 H -0.0988 0.5610 0.0298
H22 H -0.0757 0.5791 -0.0263
N11 N 0.093(7) 1.084(6) -0.175(5)
H23 H 0.0721 1.1129 -0.1938
H24 H 0.0960 1.0968 -0.1299
C1 C -0.613(9) 0.188(6) -1.058(6)
C2 C -0.577(8) 0.149(7) -1.105(6)
H25 H -0.5308 0.1848 -1.1132
H26 H -0.5458 0.1238 -1.0826
C3 C -0.158(7) 0.444(5) -0.312(5)
C4 C -0.060(7) 0.443(6) -0.268(6)
H27 H -0.0269 0.4358 -0.2992
H28 H -0.0197 0.4914 -0.2268
C5 C -0.258(6) 0.427(4) -0.683(4)
C6 C -0.181(7) 0.424(7) -0.707(6)
H29 H -0.1507 0.4697 -0.7107
H30 H -0.1322 0.4201 -0.6701
C7 C -0.422(7) 0.204(5) -0.540(5)
C8 C -0.406(8) 0.138(5) -0.564(5)
H31 H -0.3479 0.1510 -0.5719
H32 H -0.4595 0.1011 -0.6095
C9 C -0.186(6) 0.786(5) -0.496(4)
C10 C -0.130(7) 0.856(6) -0.496(6)
H33 H -0.1524 0.8489 -0.5460
H34 H -0.1474 0.8934 -0.4705
C11 C -0.753(8) 0.208(5) -0.804(5)
C12 C -0.830(8) 0.134(7) -0.861(6)
H35 H -0.8464 0.0992 -0.8398
H36 H -0.8879 0.1398 -0.8839
C13 C -0.576(7) 0.436(6) -0.833(5)
C14 C -0.607(9) 0.427(6) -0.911(5)
H37 H -0.5678 0.4730 -0.9107
H38 H -0.6737 0.4207 -0.9293
C15 C 0.109(6) 0.772(5) -0.338(4)
C16 C 0.184(7) 0.841(5) -0.328(5)
H39 H 0.2372 0.8306 -0.3335
H40 H 0.2085 0.8782 -0.2785
C17 C -0.238(8) 0.174(6) -0.289(5)
C18 C -0.220(8) 0.122(5) -0.257(6)
H41 H -0.2133 0.0825 -0.2911
H42 H -0.2748 0.0981 -0.2476
C19 C 0.064(10) 0.963(6) -0.266(6)
C20 C 0.027(14) 1.003(10) -0.222(10)
H43 H -0.0331 0.9991 -0.2541
H44 H 0.0135 0.9791 -0.1913
C21 C -0.170(8) 0.426(6) -0.117(5)
C22 C -0.188(7) 0.479(6) -0.070(5)
H45 H -0.2239 0.4547 -0.0473
H46 H -0.2260 0.4976 -0.0970
O1 O -0.702(5) 0.180(5) -1.082(4)
O2 O -0.550(5) 0.238(4) -0.993(3)
O3 O -0.150(4) 0.495(3) -0.333(3)
O4 O -0.231(4) 0.481(3) -0.624(3)
O5 O -0.310(5) 0.137(3) -0.350(4)
O6 O -0.576(4) 0.301(3) -0.644(3)
H47 H -0.6082 0.2468 -0.6627
O7 O -0.535(4) 0.394(3) -0.376(3)
H48 H -0.5664 0.3793 -0.3466
O8 O -0.348(4) 0.481(3) -0.333(3)
H49 H -0.2974 0.5041 -0.2831
O9 O -0.541(4) 0.306(3) -0.500(3)
H50 H -0.5750 0.2510 -0.5255
O10 O -0.236(4) 0.392(3) -0.322(3)
O11 O -0.354(4) 0.263(3) -0.332(3)
H51 H -0.3842 0.2471 -0.3021
O12 O -0.354(4) 0.391(3) -0.459(3)
H52 H -0.3055 0.3742 -0.4648
O13 O -0.409(4) 0.234(3) -0.471(3)
O14 O -0.438(4) 0.235(4) -0.580(3)
O15 O 0.019(4) 0.747(3) -0.378(3)
O16 O -0.287(4) 0.602(3) -0.538(3)
H53 H -0.2630 0.6163 -0.5716
O17 O -0.284(4) 0.694(3) -0.414(3)
H54 H -0.2590 0.7483 -0.3935
O18 O -0.240(4) 0.522(3) -0.469(3)
H55 H -0.1950 0.4995 -0.4726
O19 O -0.234(4) 0.611(3) -0.347(3)
H56 H -0.1882 0.6276 -0.2967
O21 O -0.382(5) 0.239(5) -0.919(4)
O22 O -0.339(6) 0.215(5) -0.775(4)
O32 O -0.559(4) 0.239(4) -0.397(3)
O33 O -0.396(4) 0.386(3) -0.254(3)
O34 O -0.088(5) 0.768(4) -0.297(3)
O35 O -0.042(4) 0.622(3) -0.345(3)
O36 O -0.090(5) 0.612(4) -0.505(3)
O37 O -0.342(4) 0.377(3) -0.724(3)
O38 O -0.497(4) 0.270(3) -0.844(3)
H57 H -0.5290 0.2149 -0.8631
O39 O -0.392(4) 0.385(3) -0.600(3)
H58 H -0.3420 0.3676 -0.5985
O40 O -0.434(4) 0.472(3) -0.663(3)
H59 H -0.4029 0.4924 -0.6905
O41 O -0.555(4) 0.381(3) -0.826(3)
O42 O -0.624(4) 0.387(3) -0.709(3)
H60 H -0.6764 0.3704 -0.7556
O43 O -0.670(5) 0.234(4) -0.805(3)
O44 O -0.473(5) 0.230(3) -0.718(3)
O45 O -0.132(4) 0.763(3) -0.459(3)
O46 O -0.274(4) 0.756(3) -0.524(3)
O47 O -0.779(4) 0.236(4) -0.755(3)
O48 O -0.575(5) 0.485(3) -0.787(3)
O49 O -0.239(4) 0.377(3) -0.181(3)
O50 O -0.090(5) 0.424(4) -0.096(4)
O52 O 0.132(5) 0.736(4) -0.303(4)
O53 O -0.193(5) 0.242(4) -0.255(3)
O54 O 0.006(6) 0.896(4) -0.312(4)
O55 O 0.147(6) 0.996(5) -0.259(4)
O57 O -0.545(6) 0.478(5) -0.456(4)
O59 O -0.457(6) 0.458(5) -0.470(7)
O80 O -0.149(6) 0.474(4) 0.131(5)
O81 O -0.070(5) 0.432(6) 0.058(4)
O82 O -0.236(6) 0.356(6) 0.028(5)
O83 O -0.106(7) 0.377(3) 0.135(4)
Dy1A Dy 0.4153(3) 0.6567(2) 0.3818(2)
Dy2A Dy 0.1499(3) 0.3394(2) 0.4159(2)
Dy2A_2 Dy -0.8501(3) 0.3394(2) -0.5841(2)
Dy3A Dy 0.5093(3) 0.6657(2) 0.7278(2)
Dy3A_2 Dy -0.4907(3) 0.6657(2) -0.2722(2)
Cu1A Cu 0.3575(8) 0.6913(7) 0.8183(6)
Cu1A_2 Cu -0.6425(8) 0.6913(7) -0.1817(6)
Cu3A Cu -0.2188(12) 0.9067(11) 0.1758(10)
Cu3_2 Cu 0.2188(12) 1.0933(11) -0.1758(10)
Cu3A_2 Cu -1.2188(12) -0.0933(11) -0.8242(10)
Cu4A Cu 0.4651(7) 0.6567(6) 0.5516(5)
Cu4A_2 Cu -0.5349(7) 0.6567(6) -0.4484(5)
Cu5A Cu 0.4575(7) 0.4965(5) 0.3318(5)
Cu5A_2 Cu -0.5425(7) 0.4965(5) -0.6682(5)
Cu6A Cu 0.3346(7) 0.5054(5) 0.5701(5)
Cu6A_2 Cu -0.6654(7) 0.5054(5) -0.4299(5)
Cu7A Cu 0.6733(7) 0.6575(6) 0.6515(5)
Cu7A_2 Cu -0.3267(7) 0.6575(6) -0.3485(5)
Cu7_2 Cu 0.3267(7) 0.3425(6) 0.3485(5)
Cu8A Cu 0.2892(7) 0.4978(6) 0.3999(5)
Cu8A_2 Cu -0.7108(7) 0.4978(6) -0.6001(5)
Cu9A Cu 0.6294(7) 0.6516(6) 0.4805(5)
Cu9A_2 Cu -0.3706(7) 0.6516(6) -0.5195(5)
Cu10A Cu -1.0065(8) 0.1746(6) -0.5819(6)
Cu11A Cu -0.4441(9) 0.6914(7) -0.0896(5)
Cu12A Cu 0.2118(8) 0.6783(6) 0.2804(6)
Cu13A Cu 0.3675(9) 0.8183(6) 0.4147(6)
Cl7A Cl 0.141(4) 0.592(3) -0.084(2)
N1A N 0.074(6) 0.615(4) 0.242(4)
H1A H 0.0478 0.5942 0.1929
H2A H 0.0440 0.6433 0.2567
N2A N 0.219(5) 0.643(5) 0.780(5)
H3A H 0.2011 0.6270 0.8111
H4A H 0.1942 0.6754 0.7739
N3A N 0.396(6) 0.894(4) 0.511(4)
H5A H 0.3475 0.9079 0.5069
H6A H 0.4506 0.9343 0.5257
N4A N -0.969(6) 0.113(5) -0.532(5)
H7A H -0.9938 0.0645 -0.5646
H8A H -0.9892 0.1148 -0.4970
N5A N 0.791(8) 0.894(7) 0.917(6)
H9A H 0.8355 0.9391 0.9514
H10A H 0.7790 0.8623 0.9368
H11A H 0.7376 0.8975 0.8946
N6A N -0.399(6) 0.636(4) -0.039(4)
H12A H -0.3411 0.6672 -0.0019
H13A H -0.4405 0.6189 -0.0206
N7A N -1.153(5) 0.126(4) -0.622(4)
H14A H -1.1723 0.1373 -0.5858
H15A H -1.1769 0.0761 -0.6456
N8A N 0.130(8) 0.835(6) 0.187(6)
H16A H 0.1217 0.8656 0.1662
H17A H 0.1351 0.7977 0.1571
H18A H 0.0794 0.8171 0.1965
N9A N -0.338(8) 0.907(8) 0.177(6)
H19A H -0.3471 0.8955 0.2128
H20A H -0.3357 0.9527 0.1855
N10A N 0.094(6) 0.458(5) 0.012(5)
H21A H 0.0988 0.4390 -0.0298
H22A H 0.0757 0.4209 0.0263
N11A N -1.093(7) -0.084(6) -0.825(5)
N11_2 N -0.907(7) 0.084(6) -1.175(5)
N11A_2 N -0.093(7) 0.916(6) 0.175(5)
H23A H -1.0721 -0.1129 -0.8062
H23_2 H -0.9279 0.1129 -1.1938
H23A_2 H -0.0721 0.8871 0.1938
H24A H -1.0960 -0.0968 -0.8701
H24_2 H -0.9040 0.0968 -1.1299
H24A_2 H -0.0960 0.9032 0.1299
C1A C -0.387(9) 0.812(6) 0.058(6)
C2A C -0.423(8) 0.851(7) 0.105(6)
H25A H -0.4692 0.8152 0.1132
H26A H -0.4542 0.8762 0.0826
C3A C 0.158(7) 0.556(5) 0.312(5)
C4A C 0.060(7) 0.557(6) 0.268(6)
H27A H 0.0269 0.5642 0.2992
H28A H 0.0197 0.5086 0.2268
C5A C 0.258(6) 0.573(4) 0.683(4)
C6A C 0.181(7) 0.576(7) 0.707(6)
H29A H 0.1507 0.5303 0.7107
H30A H 0.1322 0.5799 0.6701
C7A C 0.422(7) 0.796(5) 0.540(5)
C8A C 0.406(8) 0.862(5) 0.564(5)
H31A H 0.3479 0.8490 0.5719
H32A H 0.4595 0.8989 0.6095
C9A C -0.814(6) 0.214(5) -0.504(4)
C10A C -0.870(7) 0.144(6) -0.504(6)
H33A H -0.8476 0.1511 -0.4540
H34A H -0.8526 0.1066 -0.5295
C11A C 0.753(8) 0.792(5) 0.804(5)
C12A C 0.830(8) 0.866(7) 0.861(6)
H35A H 0.8464 0.9008 0.8398
H36A H 0.8879 0.8602 0.8839
C13A C -0.424(7) 0.564(6) -0.167(5)
C14A C -0.393(9) 0.573(6) -0.089(5)
H37A H -0.4322 0.5270 -0.0893
H38A H -0.3263 0.5793 -0.0707
C15A C -1.109(6) 0.228(5) -0.662(4)
C16A C -1.184(7) 0.159(5) -0.672(5)
H39A H -1.2372 0.1694 -0.6665
H40A H -1.2085 0.1218 -0.7215
C17A C 0.238(8) 0.826(6) 0.289(5)
C18A C 0.220(8) 0.878(5) 0.257(6)
H41A H 0.2133 0.9175 0.2911
H42A H 0.2748 0.9019 0.2476
C19A C -1.064(10) 0.037(6) -0.734(6)
C20A C -1.027(14) -0.003(10) -0.778(10)
H43A H -0.9669 0.0009 -0.7459
H44A H -1.0135 0.0209 -0.8087
C21A C 0.170(8) 0.574(6) 0.117(5)
C22A C 0.188(7) 0.521(6) 0.070(5)
H45A H 0.2239 0.5453 0.0473
H46A H 0.2260 0.5024 0.0970
O1A O -0.298(5) 0.820(5) 0.082(4)
O2A O -0.450(5) 0.762(4) -0.007(3)
O3A O 0.150(4) 0.505(3) 0.333(3)
O4A O 0.231(4) 0.519(3) 0.624(3)
O5A O 0.310(5) 0.863(3) 0.350(4)
O6A O 0.576(4) 0.699(3) 0.644(3)
H47A H 0.6082 0.7532 0.6627
O7A O 0.535(4) 0.606(3) 0.376(3)
H48A H 0.5664 0.6207 0.3466
O8A O 0.348(4) 0.519(3) 0.333(3)
H49A H 0.2974 0.4959 0.2831
O9A O 0.541(4) 0.694(3) 0.500(3)
H50A H 0.5750 0.7490 0.5255
O10A O 0.236(4) 0.608(3) 0.322(3)
O11A O 0.354(4) 0.737(3) 0.332(3)
H51A H 0.3842 0.7529 0.3021
O12A O 0.354(4) 0.609(3) 0.459(3)
H52A H 0.3055 0.6258 0.4648
O13A O 0.409(4) 0.766(3) 0.471(3)
O14A O 0.438(4) 0.765(4) 0.580(3)
O15A O -1.019(4) 0.253(3) -0.622(3)
O15A_2 O -0.019(4) 0.253(3) 0.378(3)
O16A O -0.713(4) 0.398(3) -0.462(3)
O16A_2 O 0.287(4) 0.398(3) 0.538(3)
O16_2 O 0.713(4) 0.602(3) 0.462(3)
H53A H -0.7370 0.3837 -0.4284
H53A_2 H 0.2630 0.3837 0.5716
H53_2 H 0.7370 0.6163 0.4284
O17A O -0.716(4) 0.306(3) -0.586(3)
O17A_2 O 0.284(4) 0.306(3) 0.414(3)
O17_2 O 0.716(4) 0.694(3) 0.586(3)
H54A H -0.7410 0.2517 -0.6065
H54A_2 H 0.2590 0.2517 0.3935
H54_2 H 0.7410 0.7483 0.6065
O18A O 0.240(4) 0.478(3) 0.469(3)
H55A H 0.1950 0.5005 0.4726
O19A O 0.234(4) 0.389(3) 0.347(3)
O19A_2 O -0.766(4) 0.389(3) -0.653(3)
O19_2 O 0.766(4) 0.611(3) 0.653(3)
H56A H 0.1882 0.3724 0.2967
H56A_2 H -0.8118 0.3724 -0.7033
H56_2 H 0.8118 0.6276 0.7033
O21A O 0.382(5) 0.761(5) 0.919(4)
O22A O 0.339(6) 0.785(5) 0.775(4)
O32A O 0.559(4) 0.761(4) 0.397(3)
O33A O 0.396(4) 0.614(3) 0.254(3)
O34A O 0.088(5) 0.232(4) 0.297(3)
O35A O 0.042(4) 0.378(3) 0.345(3)
O36A O 0.090(5) 0.388(4) 0.505(3)
O37A O 0.342(4) 0.623(3) 0.724(3)
O38A O -0.503(4) 0.730(3) -0.156(3)
O38A_2 O 0.497(4) 0.730(3) 0.844(3)
H57A H -0.4710 0.7851 -0.1369
H57A_2 H 0.5290 0.7851 0.8631
O39A O 0.392(4) 0.615(3) 0.600(3)
H58A H 0.3420 0.6324 0.5985
O40A O -0.566(4) 0.528(3) -0.337(3)
O40A_2 O 0.434(4) 0.528(3) 0.663(3)
O40_2 O 0.566(4) 0.472(3) 0.337(3)
H59A H -0.5971 0.5076 -0.3095
H59A_2 H 0.4029 0.5076 0.6905
H59_2 H 0.5971 0.4924 0.3095
O41A O -0.445(4) 0.619(3) -0.174(3)
O41A_2 O 0.555(4) 0.619(3) 0.826(3)
O42A O -0.376(4) 0.613(3) -0.291(3)
O42A_2 O 0.624(4) 0.613(3) 0.709(3)
O42_2 O 0.376(4) 0.387(3) 0.291(3)
H60A H -0.3236 0.6296 -0.2444
H60A_2 H 0.6764 0.6296 0.7556
H60_2 H 0.3236 0.3704 0.2444
O43A O 0.670(5) 0.766(4) 0.805(3)
O44A O 0.473(5) 0.770(3) 0.718(3)
O45A O -0.868(4) 0.237(3) -0.541(3)
O45A_2 O 0.132(4) 0.237(3) 0.459(3)
O46A O -0.726(4) 0.244(3) -0.476(3)
O46_2 O 0.726(4) 0.756(3) 0.476(3)
O47A O 0.779(4) 0.764(4) 0.755(3)
O48A O -0.425(5) 0.515(3) -0.213(3)
O48_2 O 0.425(5) 0.485(3) 0.213(3)
O49A O 0.239(4) 0.623(3) 0.181(3)
O50A O 0.090(5) 0.576(4) 0.096(4)
O52A O -1.132(5) 0.264(4) -0.697(4)
O53A O 0.193(5) 0.758(4) 0.255(3)
O54A O -1.006(6) 0.104(4) -0.688(4)
O55A O -1.147(6) 0.004(5) -0.741(4)
O55_2 O -0.853(6) -0.004(5) -1.259(4)
O55A_2 O -0.147(6) 1.004(5) 0.259(4)
O57A O -0.455(6) 0.522(5) -0.544(4)
O57A_2 O 0.545(6) 0.522(5) 0.456(4)
O57_2 O 0.455(6) 0.478(5) 0.544(4)
O59A O -0.543(6) 0.542(5) -0.530(7)
O59A_2 O 0.457(6) 0.542(5) 0.470(7)
O80A O 0.149(6) 0.526(4) -0.131(5)
O81A O 0.070(5) 0.568(6) -0.058(4)
O82A O 0.236(6) 0.644(6) -0.028(5)
O83A O 0.106(7) 0.623(3) -0.135(4)
O56? O -0.427(6) 0.529(5) -0.428(4)
O58? O -0.505(7) 0.437(4) -0.487(6)
loop_
_geom_bond_atom_site_label_1
_geom_bond_atom_site_label_2
_geom_bond_site_symmetry_1
_geom_bond_site_symmetry_2
Dy1 O7 1_555 1_555
Dy2 O15 1_555 1_555
Dy3 O6 1_555 1_555
Cu1 N2 1_555 1_555
Cu2 N10 1_555 1_555
Cu3 N9 1_555 1_555
Cu4 O6 1_555 1_555
Cu5 O7 1_555 1_555
Cu6 O4 1_555 1_555
Cu7 O6 1_555 1_555
Cu8 O3 1_555 1_555
Cu9 O7 1_555 1_555
Cu10 N4 1_555 1_555
Cu11 N6 1_555 1_555
Cu12 N1 1_555 1_555
Cu13 N3 1_555 1_555
Cl1 O57 1_555 1_555
Cl2 O60 1_555 1_555
Cl3 O64 1_555 1_555
Cl4 O68 1_555 1_555
Cl5 O72 1_555 1_555
Cl6 O76 1_555 1_555
Cl7 O80 1_555 1_555
Cl8 O84 1_555 1_555
Cl9 O88 1_555 1_555
Cl10 O92 1_555 1_555
Cl11 O96 1_555 1_555
Cl12 O100 1_555 1_555
N1 H1 1_555 1_555
H2 N1 1_555 1_555
N2 H3 1_555 1_555
H4 N2 1_555 1_555
N3 H5 1_555 1_555
H6 N3 1_555 1_555
N4 H7 1_555 1_555
H8 N4 1_555 1_555
N5 H9 1_555 1_555
H10 N5 1_555 1_555
H11 N5 1_555 1_555
N6 H12 1_555 1_555
H13 N6 1_555 1_555
N7 Cu10 1_555 1_555
H14 N7 1_555 1_555
H15 N7 1_555 1_555
N8 H16 1_555 1_555
H17 N8 1_555 1_555
H18 N8 1_555 1_555
N9 H19 1_555 1_555
H20 N9 1_555 1_555
N10 H21 1_555 1_555
H22 N10 1_555 1_555
N11 H23 1_555 1_555
H24 N11 1_555 1_555
C1 C2 1_555 1_555
C2 N9 1_555 1_555
H25 C2 1_555 1_555
H26 C2 1_555 1_555
C3 C4 1_555 1_555
C4 N1 1_555 1_555
H27 C4 1_555 1_555
H28 C4 1_555 1_555
C5 C6 1_555 1_555
C6 N2 1_555 1_555
H29 C6 1_555 1_555
H30 C6 1_555 1_555
C7 C8 1_555 1_555
C8 N3 1_555 1_555
H31 C8 1_555 1_555
H32 C8 1_555 1_555
C9 C10 1_555 1_555
C10 N4 1_555 1_555
H33 C10 1_555 1_555
H34 C10 1_555 1_555
C11 C12 1_555 1_555
C12 N5 1_555 1_555
H35 C12 1_555 1_555
H36 C12 1_555 1_555
C13 C14 1_555 1_555
C14 N6 1_555 1_555
H37 C14 1_555 1_555
H38 C14 1_555 1_555
C15 C16 1_555 1_555
C16 N7 1_555 1_555
H39 C16 1_555 1_555
H40 C16 1_555 1_555
C17 C18 1_555 1_555
C18 N8 1_555 1_555
H41 C18 1_555 1_555
H42 C18 1_555 1_555
C19 C20 1_555 1_555
C20 N11 1_555 1_555
H43 C20 1_555 1_555
H44 C20 1_555 1_555
C21 C22 1_555 1_555
C22 N10 1_555 1_555
H45 C22 1_555 1_555
H46 C22 1_555 1_555
O1 Cu3 1_555 1_555
O2 Cu11 1_555 1_555
O3 C3 1_555 1_555
O4 C5 1_555 1_555
O5 Cu13 1_555 1_555
O6 H47 1_555 1_555
O7 H48 1_555 1_555
O8 Dy1 1_555 1_555
H49 O8 1_555 1_555
O9 Dy1 1_555 1_555
H50 O9 1_555 1_555
O10 Dy1 1_555 1_555
O11 Dy1 1_555 1_555
H51 O11 1_555 1_555
O12 Dy1 1_555 1_555
H52 O12 1_555 1_555
O13 Dy1 1_555 1_555
O14 Cu4 1_555 1_555
O15 Cu10 1_555 1_555
O16 Dy2 1_555 1_555
H53 O16 1_555 1_555
O17 Dy2 1_555 1_555
H54 O17 1_555 1_555
O18 Dy2 1_555 1_555
H55 O18 1_555 1_555
O19 Dy2 1_555 1_555
H56 O19 1_555 1_555
O21 Cu1 1_555 1_555
O22 Cu1 1_555 1_555
O32 Dy1 1_555 1_555
O33 Dy1 1_555 1_555
O34 Dy2 1_555 1_555
O35 Dy2 1_555 1_555
O36 Dy2 1_555 1_555
O37 Dy3 1_555 1_555
O38 Dy3 1_555 1_555
H57 O38 1_555 1_555
O39 Dy3 1_555 1_555
H58 O39 1_555 1_555
O40 Dy3 1_555 1_555
H59 O40 1_555 1_555
O41 Dy3 1_555 1_555
O42 Dy3 1_555 1_555
H60 O42 1_555 1_555
O43 Dy3 1_555 1_555
O44 Dy3 1_555 1_555
O45 Dy2 1_555 1_555
O46 C9 1_555 1_555
O47 Cu7 1_555 1_555
O48 C13 1_555 1_555
O49 Cu12 1_555 1_555
O50 Cu2 1_555 1_555
O52 C15 1_555 1_555
O53 Cu12 1_555 1_555
O54 Cu10 1_555 1_555
O55 C19 1_555 1_555
O57 Cu5 1_555 1_555
O59 Cu4 1_555 1_555
O61 Cl2 1_555 1_555
O62 Cl2 1_555 1_555
O63 Cl2 1_555 1_555
O65 Cl3 1_555 1_555
O66 Cl3 1_555 1_555
O67 Cl3 1_555 1_555
O69 Cl4 1_555 1_555
O70 Cl4 1_555 1_555
O71 Cl4 1_555 1_555
O73 Cl5 1_555 1_555
O74 Cl5 1_555 1_555
O75 Cl5 1_555 1_555
O77 Cl6 1_555 1_555
O78 Cl6 1_555 1_555
O79 Cl6 1_555 1_555
O81 Cu2 1_555 1_555
O82 Cl7 1_555 1_555
O83 Cl7 1_555 1_555
O85 Cl8 1_555 1_555
O86 Cl8 1_555 1_555
O87 Cl8 1_555 1_555
O89 Cl9 1_555 1_555
O90 Cl9 1_555 1_555
O91 Cl9 1_555 1_555
O93 Cl10 1_555 1_555
O94 Cl10 1_555 1_555
O95 Cl10 1_555 1_555
O97 Cl11 1_555 1_555
O98 Cl11 1_555 1_555
O99 Cl11 1_555 1_555
O101 Cl12 1_555 1_555
O102 Cl12 1_555 1_555
O103 Cl12 1_555 1_555
Dy1A O7A 1_555 1_555
Dy2A O15A_2 1_555 1_555
Dy2A_2 O15A 1_555 1_555
Dy3A O6A 1_555 1_555
Dy3A_2 O38A 1_555 1_555
Cu1A N2A 1_555 1_555
Cu1A_2 O38A 1_555 1_555
Cu3A N9A 1_555 1_555
Cu3_2 N11 1_555 1_555
Cu3A_2 N11A 1_555 1_555
Cu4A O6A 1_555 1_555
Cu4A_2 O59A 1_555 1_555
Cu5A O7A 1_555 1_555
Cu5A_2 O40 1_555 1_555
Cu6A O4A 1_555 1_555
Cu6A_2 O57 1_555 1_555
Cu7A O6A 1_555 1_555
Cu7A_2 O17 1_555 1_555
Cu7_2 O17A_2 1_555 1_555
Cu8A O3A 1_555 1_555
Cu8A_2 O19A_2 1_555 1_555
Cu9A O7A 1_555 1_555
Cu9A_2 O16 1_555 1_555
Cu10A N4A 1_555 1_555
Cu11A N6A 1_555 1_555
Cu12A N1A 1_555 1_555
Cu13A N3A 1_555 1_555
Cl7A O80A 1_555 1_555
N1A H1A 1_555 1_555
H2A N1A 1_555 1_555
N2A H3A 1_555 1_555
H4A N2A 1_555 1_555
N3A H5A 1_555 1_555
H6A N3A 1_555 1_555
N4A H7A 1_555 1_555
H8A N4A 1_555 1_555
N5A H9A 1_555 1_555
H10A N5A 1_555 1_555
H11A N5A 1_555 1_555
N6A H12A 1_555 1_555
H13A N6A 1_555 1_555
N7A Cu10A 1_555 1_555
H14A N7A 1_555 1_555
H15A N7A 1_555 1_555
N8A H16A 1_555 1_555
H17A N8A 1_555 1_555
H18A N8A 1_555 1_555
N9A H19A 1_555 1_555
H20A N9A 1_555 1_555
N10A Cu2 1_555 1_555
H21A N10A 1_555 1_555
H22A N10A 1_555 1_555
N11A H23A 1_555 1_555
N11_2 Cu3 1_555 1_555
N11A_2 Cu3A 1_555 1_555
H23_2 N11_2 1_555 1_555
H23A_2 N11A_2 1_555 1_555
H24A N11A 1_555 1_555
H24_2 N11_2 1_555 1_555
H24A_2 N11A_2 1_555 1_555
C1A C2A 1_555 1_555
C2A N9A 1_555 1_555
H25A C2A 1_555 1_555
H26A C2A 1_555 1_555
C3A C4A 1_555 1_555
C4A N1A 1_555 1_555
H27A C4A 1_555 1_555
H28A C4A 1_555 1_555
C5A C6A 1_555 1_555
C6A N2A 1_555 1_555
H29A C6A 1_555 1_555
H30A C6A 1_555 1_555
C7A C8A 1_555 1_555
C8A N3A 1_555 1_555
H31A C8A 1_555 1_555
H32A C8A 1_555 1_555
C9A C10A 1_555 1_555
C10A N4A 1_555 1_555
H33A C10A 1_555 1_555
H34A C10A 1_555 1_555
C11A C12A 1_555 1_555
C12A N5A 1_555 1_555
H35A C12A 1_555 1_555
H36A C12A 1_555 1_555
C13A C14A 1_555 1_555
C14A N6A 1_555 1_555
H37A C14A 1_555 1_555
H38A C14A 1_555 1_555
C15A C16A 1_555 1_555
C16A N7A 1_555 1_555
H39A C16A 1_555 1_555
H40A C16A 1_555 1_555
C17A C18A 1_555 1_555
C18A N8A 1_555 1_555
H41A C18A 1_555 1_555
H42A C18A 1_555 1_555
C19A C20A 1_555 1_555
C20A N11A 1_555 1_555
H43A C20A 1_555 1_555
H44A C20A 1_555 1_555
C21A C22A 1_555 1_555
C22A N10A 1_555 1_555
H45A C22A 1_555 1_555
H46A C22A 1_555 1_555
O1A Cu3A 1_555 1_555
O2A Cu11A 1_555 1_555
O3A C3A 1_555 1_555
O4A C5A 1_555 1_555
O5A Cu13A 1_555 1_555
O6A H47A 1_555 1_555
O7A H48A 1_555 1_555
O8A Dy1A 1_555 1_555
H49A O8A 1_555 1_555
O9A Dy1A 1_555 1_555
H50A O9A 1_555 1_555
O10A Dy1A 1_555 1_555
O11A Dy1A 1_555 1_555
H51A O11A 1_555 1_555
O12A Dy1A 1_555 1_555
H52A O12A 1_555 1_555
O13A Dy1A 1_555 1_555
O14A Cu4A 1_555 1_555
O15A Cu10A 1_555 1_555
O16A Cu9 1_555 1_555
O16A_2 Dy2A 1_555 1_555
O16_2 Cu9A 1_555 1_555
H53A O16A 1_555 1_555
H53A_2 O16A_2 1_555 1_555
H53_2 O16_2 1_555 1_555
O17A Cu7 1_555 1_555
O17A_2 Dy2A 1_555 1_555
O17_2 Cu7A 1_555 1_555
H54A O17A 1_555 1_555
H54A_2 O17A_2 1_555 1_555
H54_2 O17_2 1_555 1_555
O18A Dy2A 1_555 1_555
H55A O18A 1_555 1_555
O19A Dy2A 1_555 1_555
O19A_2 Cu7 1_555 1_555
O19_2 Cu7A 1_555 1_555
H56A O19A 1_555 1_555
H56A_2 O19A_2 1_555 1_555
H56_2 O19_2 1_555 1_555
O21A Cu1A 1_555 1_555
O22A Cu1A 1_555 1_555
O32A Dy1A 1_555 1_555
O33A Dy1A 1_555 1_555
O34A Dy2A 1_555 1_555
O35A Dy2A 1_555 1_555
O36A Dy2A 1_555 1_555
O37A Dy3A 1_555 1_555
O38A Cu11A 1_555 1_555
O38A_2 Dy3A 1_555 1_555
H57A O38A 1_555 1_555
H57A_2 O38A_2 1_555 1_555
O39A Dy3A 1_555 1_555
H58A O39A 1_555 1_555
O40A Cu5 1_555 1_555
O40A_2 Dy3A 1_555 1_555
O40_2 Cu5A 1_555 1_555
H59A O40A 1_555 1_555
H59A_2 O40A_2 1_555 1_555
H59_2 O40_2 1_555 1_555
O41A Dy3A_2 1_555 1_555
O41A_2 Dy3A 1_555 1_555
O42A Cu5 1_555 1_555
O42A_2 Dy3A 1_555 1_555
O42_2 Cu5A 1_555 1_555
H60A O42A 1_555 1_555
H60A_2 O42A_2 1_555 1_555
H60_2 O42_2 1_555 1_555
O43A Dy3A 1_555 1_555
O44A Dy3A 1_555 1_555
O45A Dy2A_2 1_555 1_555
O45A_2 Dy2A 1_555 1_555
O46A Cu9 1_555 1_555
O46_2 Cu9A 1_555 1_555
O47A Cu7A 1_555 1_555
O48A Cu5 1_555 1_555
O48_2 Cu5A 1_555 1_555
O49A Cu12A 1_555 1_555
O50A Cu2 1_555 1_555
O52A C15A 1_555 1_555
O53A Cu12A 1_555 1_555
O54A Cu10A 1_555 1_555
O55A Cu3A_2 1_555 1_555
O55_2 Cu3 1_555 1_555
O55A_2 Cu3A 1_555 1_555
O57A Cu6 1_555 1_555
O57A_2 Cu5A 1_555 1_555
O57_2 Cu6A 1_555 1_555
O59A Cl1 1_555 1_555
O59A_2 Cu4A 1_555 1_555
O81A Cu2 1_555 1_555
O82A Cl7A 1_555 1_555
O83A Cl7A 1_555 1_555
Cu1 O37 1_555 1_555
Cu1 O38 1_555 1_555
Cu4 O9 1_555 1_555
Cu4 O12 1_555 1_555
Cu4 O39 1_555 1_555
Cu5 O8 1_555 1_555
Cu6 O16 1_555 1_555
Cu6 O18 1_555 1_555
Cu6 O39 1_555 1_555
Cu6 O40 1_555 1_555
Cu7 O42 1_555 1_555
Cu8 O8 1_555 1_555
Cu8 O12 1_555 1_555
Cu8 O18 1_555 1_555
Cu8 O19 1_555 1_555
Cu8 O59 1_555 1_555
Cu9 O9 1_555 1_555
Cu9 O57 1_555 1_555
Cu9 O17A 1_555 1_555
Cu10 O45 1_555 1_555
Cu11 O38 1_555 1_555
Cu11 O41 1_555 1_555
Cu12 O10 1_555 1_555
Cu12 O11 1_555 1_555
Cu13 O11 1_555 1_555
Cu13 O13 1_555 1_555
Cl1 O59 1_555 1_555
Cl1 O57A 1_555 1_555
Cl7 O81 1_555 1_555
C1 O1 1_555 1_555
C1 O2 1_555 1_555
C3 O10 1_555 1_555
C5 O37 1_555 1_555
C7 O13 1_555 1_555
C7 O14 1_555 1_555
C9 O45 1_555 1_555
C11 O43 1_555 1_555
C11 O47 1_555 1_555
C13 O41 1_555 1_555
C15 O15 1_555 1_555
C17 O5 1_555 1_555
C17 O53 1_555 1_555
C19 O54 1_555 1_555
C21 O49 1_555 1_555
C21 O50 1_555 1_555
O17 Cu9A_2 1_555 1_555
O19 Cu7A_2 1_555 1_555
O42 Cu5A_2 1_555 1_555
O46 Cu9A_2 1_555 1_555
O48 Cu5A_2 1_555 1_555
O55 Cu3_2 1_555 1_555
Dy2A_2 O16A 1_555 1_555
Dy2A_2 O17A 1_555 1_555
Dy2A_2 O19A_2 1_555 1_555
Dy3A_2 O40A 1_555 1_555
Dy3A_2 O42A 1_555 1_555
Cu1A O37A 1_555 1_555
Cu1A O38A_2 1_555 1_555
Cu4A O9A 1_555 1_555
Cu4A O12A 1_555 1_555
Cu4A O39A 1_555 1_555
Cu5A O8A 1_555 1_555
Cu5A_2 O57A 1_555 1_555
Cu6A O16A_2 1_555 1_555
Cu6A O18A 1_555 1_555
Cu6A O39A 1_555 1_555
Cu6A O40A_2 1_555 1_555
Cu6A_2 O16A 1_555 1_555
Cu6A_2 O40A 1_555 1_555
Cu7A O42A_2 1_555 1_555
Cu7A_2 O42A 1_555 1_555
Cu7_2 O19A 1_555 1_555
Cu7_2 O42_2 1_555 1_555
Cu8A O8A 1_555 1_555
Cu8A O12A 1_555 1_555
Cu8A O18A 1_555 1_555
Cu8A O19A 1_555 1_555
Cu8A O59A_2 1_555 1_555
Cu8A_2 O59A 1_555 1_555
Cu9A O9A 1_555 1_555
Cu9A O17_2 1_555 1_555
Cu9A O57A_2 1_555 1_555
Cu9A_2 O57A 1_555 1_555
Cu10A O45A 1_555 1_555
Cu11A O41A 1_555 1_555
Cu12A O10A 1_555 1_555
Cu12A O11A 1_555 1_555
Cu13A O11A 1_555 1_555
Cu13A O13A 1_555 1_555
Cl7A O81A 1_555 1_555
C1A O1A 1_555 1_555
C1A O2A 1_555 1_555
C3A O10A 1_555 1_555
C5A O37A 1_555 1_555
C7A O13A 1_555 1_555
C7A O14A 1_555 1_555
C9A O45A 1_555 1_555
C9A O46A 1_555 1_555
C11A O43A 1_555 1_555
C11A O47A 1_555 1_555
C13A O41A 1_555 1_555
C13A O48A 1_555 1_555
C15A O15A 1_555 1_555
C17A O5A 1_555 1_555
C17A O53A 1_555 1_555
C19A O54A 1_555 1_555
C19A O55A 1_555 1_555
C21A O49A 1_555 1_555
C21A O50A 1_555 1_555

#END
