
#######################################################################
#
#                 Cambridge Crystallographic Data Centre
#                                CCDC 
#
#######################################################################
#
# If this CIF has been generated from an entry in the Cambridge 
# Structural Database, then it will include bibliographic, chemical, 
# crystal, experimental, refinement or atomic coordinate data resulting 
# from the CCDC's data processing and validation procedures.
#
#######################################################################

data_HUJTIP
_symmetry_cell_setting           monoclinic
_symmetry_space_group_name_H-M   'P 21/n'
_symmetry_Int_Tables_number      14
_space_group_name_Hall           '-P 2yn'
loop_
_symmetry_equiv_pos_site_id
_symmetry_equiv_pos_as_xyz
1 x,y,z
2 1/2+x,1/2-y,1/2+z
3 -x,-y,-z
4 1/2-x,1/2+y,1/2-z
_cell_length_a                   10.226(2)
_cell_length_b                   12.265(2)
_cell_length_c                   15.917(3)
_cell_angle_alpha                90
_cell_angle_beta                 108.07(3)
_cell_angle_gamma                90
_cell_volume                     1897.88
loop_
_atom_site_label
_atom_site_type_symbol
_atom_site_fract_x
_atom_site_fract_y
_atom_site_fract_z
Cd1 Cd 0.41837(3) 0.18032(3) 0.18950(2)
O1 O 0.4560(5) 0.0079(4) 0.1395(3)
O2 O 0.3951(6) -0.1008(4) 0.0295(4)
O3 O 0.3145(5) 0.0623(4) 0.0171(4)
O4 O 0.4065(5) 0.3537(3) 0.2598(2)
O5 O 0.5580(4) 0.3595(4) 0.3892(3)
O6 O 0.3496(6) 0.4079(5) 0.3713(3)
N1 N 0.1846(4) 0.1772(4) 0.1593(3)
N2 N 0.0872(5) 0.1505(4) 0.0823(3)
H1 H 0.1066(5) 0.1283(4) 0.0336(3)
N3 N 0.4180(6) 0.3036(4) 0.0779(3)
N4 N 0.4161(10) 0.2755(5) -0.0024(4)
H2 H 0.3946(10) 0.2082(5) -0.0252(4)
N5 N -0.3468(5) 0.2023(4) 0.2320(3)
N6 N -0.2764(5) 0.2879(4) 0.2772(3)
H3 H -0.3078(5) 0.3317(4) 0.3120(3)
N7 N 0.4289(5) 0.0838(4) 0.3169(3)
N8 N 0.3512(5) -0.0052(4) 0.3129(3)
H4 H 0.2904(5) -0.0307(4) 0.2629(3)
N9 N 0.3878(5) -0.0115(4) 0.0601(3)
N10 N 0.4378(5) 0.3741(3) 0.3420(3)
C1 C 0.1122(5) 0.2055(5) 0.2139(3)
H5 H 0.1522(5) 0.2285(5) 0.2741(3)
C2 C -0.0285(5) 0.1962(4) 0.1718(3)
C3 C -0.0388(6) 0.1601(5) 0.0872(3)
H6 H -0.1226(6) 0.1452(5) 0.0407(3)
C4 C -0.1544(6) 0.2999(5) 0.2642(4)
H7 H -0.0876(6) 0.3556(5) 0.2889(4)
C5 C -0.1422(5) 0.2183(5) 0.2075(3)
C6 C -0.2640(6) 0.1593(5) 0.1897(4)
H8 H -0.2861(6) 0.0967(5) 0.1518(4)
C7 C 0.4539(20) 0.3570(8) -0.0438(6)
H9 H 0.4594(20) 0.3544(8) -0.1029(6)
C8 C 0.4787(8) 0.4454(5) 0.0088(4)
C9 C 0.4569(9) 0.4077(5) 0.0847(4)
H10 H 0.4664(9) 0.4518(5) 0.1360(4)
C10 C 0.5032(6) 0.0920(5) 0.4023(3)
H11 H 0.5705(6) 0.1477(5) 0.4258(3)
C11 C 0.4712(5) 0.0100(4) 0.4523(3)
C12 C 0.3750(6) -0.0521(4) 0.3921(3)
H12 H 0.3331(6) -0.1176(4) 0.4047(3)
C8B C 0.5213(8) 0.5546(5) -0.0088(4)
C7B C 0.5461(20) 0.6430(8) 0.0438(6)
N4B N 0.5839(10) 0.7245(5) 0.0024(4)
N3B N 0.5820(6) 0.6964(4) -0.0779(3)
C9B C 0.5431(9) 0.5923(5) -0.0847(4)
H10B H 0.5336(9) 0.5482(5) -0.1360(4)
H2B H 0.6054(10) 0.7918(5) 0.0252(4)
H9B H 0.5406(20) 0.6456(8) 0.1029(6)
C11B C 0.5288(5) -0.0100(4) 0.5477(3)
C10B C 0.4968(6) -0.0920(5) 0.5977(3)
N7B N 0.5711(5) -0.0838(4) 0.6831(3)
N8B N 0.6488(5) 0.0052(4) 0.6871(3)
H4B H 0.7096(5) 0.0307(4) 0.7371(3)
C12B C 0.6250(6) 0.0521(4) 0.6079(3)
H12B H 0.6669(6) 0.1176(4) 0.5953(3)
H11B H 0.4295(6) -0.1477(5) 0.5742(3)
N1_2 N 1.1846(4) 0.1772(4) 0.1593(3)
N2_2 N 1.0872(5) 0.1505(4) 0.0823(3)
H1_2 H 1.1066(5) 0.1283(4) 0.0336(3)
N5_2 N 0.6532(5) 0.2023(4) 0.2320(3)
N6_2 N 0.7236(5) 0.2879(4) 0.2772(3)
H3_2 H 0.6922(5) 0.3317(4) 0.3120(3)
C1_2 C 1.1122(5) 0.2055(5) 0.2139(3)
H5_2 H 1.1522(5) 0.2285(5) 0.2741(3)
C2_2 C 0.9715(5) 0.1962(4) 0.1718(3)
C3_2 C 0.9612(6) 0.1601(5) 0.0872(3)
H6_2 H 0.8774(6) 0.1452(5) 0.0407(3)
C4_2 C 0.8456(6) 0.2999(5) 0.2642(4)
H7_2 H 0.9124(6) 0.3556(5) 0.2889(4)
C5_2 C 0.8578(5) 0.2183(5) 0.2075(3)
C6_2 C 0.7360(6) 0.1593(5) 0.1897(4)
H8_2 H 0.7139(6) 0.0967(5) 0.1518(4)
Cd1_2 Cd 1.41837(3) 0.18032(3) 0.18950(2)
O1_2 O 1.4560(5) 0.0079(4) 0.1395(3)
O2_2 O 1.3951(6) -0.1008(4) 0.0295(4)
O3_2 O 1.3145(5) 0.0623(4) 0.0171(4)
N9_2 N 1.3878(5) -0.0115(4) 0.0601(3)
O4_2 O 1.4065(5) 0.3537(3) 0.2598(2)
O5_2 O 1.5580(4) 0.3595(4) 0.3892(3)
O6_2 O 1.3496(6) 0.4079(5) 0.3713(3)
N10_2 N 1.4378(5) 0.3741(3) 0.3420(3)
Cd1_3 Cd -0.58163(3) 0.18032(3) 0.18950(2)
Cd1B Cd 0.58163(3) 0.81968(3) -0.18950(2)
Cd1B_2 Cd 0.58163(3) -0.18032(3) 0.81050(2)
N3_2 N 1.4180(6) 0.3036(4) 0.0779(3)
N5_3 N 1.6532(5) 0.2023(4) 0.2320(3)
N7_2 N 1.4289(5) 0.0838(4) 0.3169(3)
loop_
_geom_bond_atom_site_label_1
_geom_bond_atom_site_label_2
_geom_bond_site_symmetry_1
_geom_bond_site_symmetry_2
Cd1 O1 1_555 1_555
O1 N9 1_555 1_555
O2 N9 1_555 1_555
O3 N9 1_555 1_555
O4 Cd1 1_555 1_555
O5 N10 1_555 1_555
O6 N10 1_555 1_555
N1 Cd1 1_555 1_555
N2 N1 1_555 1_555
H1 N2 1_555 1_555
N3 Cd1 1_555 1_555
N4 N3 1_555 1_555
H2 N4 1_555 1_555
N5 N6 1_555 1_555
N6 H3 1_555 1_555
N7 Cd1 1_555 1_555
N8 N7 1_555 1_555
H4 N8 1_555 1_555
N10 O4 1_555 1_555
C1 N1 1_555 1_555
H5 C1 1_555 1_555
C2 C1 1_555 1_555
C3 N2 1_555 1_555
H6 C3 1_555 1_555
C4 N6 1_555 1_555
H7 C4 1_555 1_555
C5 C2 1_555 1_555
C6 N5 1_555 1_555
H8 C6 1_555 1_555
C7 N4 1_555 1_555
H9 C7 1_555 1_555
C8 C7 1_555 1_555
C9 N3 1_555 1_555
H10 C9 1_555 1_555
C10 N7 1_555 1_555
H11 C10 1_555 1_555
C11 C10 1_555 1_555
C12 N8 1_555 1_555
H12 C12 1_555 1_555
C8B C8 1_555 1_555
C7B C8B 1_555 1_555
N4B C7B 1_555 1_555
N3B N4B 1_555 1_555
C9B C8B 1_555 1_555
H10B C9B 1_555 1_555
H2B N4B 1_555 1_555
H9B C7B 1_555 1_555
C11B C11 1_555 1_555
C10B C11B 1_555 1_555
N7B C10B 1_555 1_555
N8B N7B 1_555 1_555
H4B N8B 1_555 1_555
C12B C11B 1_555 1_555
H12B C12B 1_555 1_555
H11B C10B 1_555 1_555
N1_2 N2_2 1_555 1_555
N2_2 H1_2 1_555 1_555
N5_2 Cd1 1_555 1_555
N6_2 N5_2 1_555 1_555
H3_2 N6_2 1_555 1_555
C1_2 N1_2 1_555 1_555
H5_2 C1_2 1_555 1_555
C2_2 C1_2 1_555 1_555
C3_2 N2_2 1_555 1_555
H6_2 C3_2 1_555 1_555
C4_2 N6_2 1_555 1_555
H7_2 C4_2 1_555 1_555
C5_2 C2_2 1_555 1_555
C6_2 N5_2 1_555 1_555
H8_2 C6_2 1_555 1_555
Cd1_2 N1_2 1_555 1_555
O1_2 Cd1_2 1_555 1_555
O2_2 N9_2 1_555 1_555
O3_2 N9_2 1_555 1_555
N9_2 O1_2 1_555 1_555
O4_2 Cd1_2 1_555 1_555
O5_2 N10_2 1_555 1_555
O6_2 N10_2 1_555 1_555
N10_2 O4_2 1_555 1_555
Cd1_3 N5 1_555 1_555
Cd1B N3B 1_555 1_555
Cd1B_2 N7B 1_555 1_555
N3_2 Cd1_2 1_555 1_555
N5_3 Cd1_2 1_555 1_555
N7_2 Cd1_2 1_555 1_555
C2 C3 1_555 1_555
C4 C5 1_555 1_555
C5 C6 1_555 1_555
C8 C9 1_555 1_555
C11 C12 1_555 1_555
N3B C9B 1_555 1_555
N8B C12B 1_555 1_555
C2_2 C3_2 1_555 1_555
C4_2 C5_2 1_555 1_555
C5_2 C6_2 1_555 1_555

#END
