
#######################################################################
#
#                 Cambridge Crystallographic Data Centre
#                                CCDC 
#
#######################################################################
#
# If this CIF has been generated from an entry in the Cambridge 
# Structural Database, then it will include bibliographic, chemical, 
# crystal, experimental, refinement or atomic coordinate data resulting 
# from the CCDC's data processing and validation procedures.
#
#######################################################################

data_HUJTAH
_symmetry_cell_setting           triclinic
_symmetry_space_group_name_H-M   'P -1'
_symmetry_Int_Tables_number      2
_space_group_name_Hall           '-P 1'
loop_
_symmetry_equiv_pos_site_id
_symmetry_equiv_pos_as_xyz
1 x,y,z
2 -x,-y,-z
_cell_length_a                   7.735(2)
_cell_length_b                   9.733(2)
_cell_length_c                   11.460(2)
_cell_angle_alpha                71.32(3)
_cell_angle_beta                 81.38(3)
_cell_angle_gamma                67.54(3)
_cell_volume                     754.945
loop_
_atom_site_label
_atom_site_type_symbol
_atom_site_fract_x
_atom_site_fract_y
_atom_site_fract_z
Cu1 Cu 0.02988(7) 0.21389(6) 0.27452(5)
O1 O 0.2719(5) 0.2397(4) 0.1464(4)
O2 O 0.1890(5) 0.1259(4) 0.4223(3)
N1 N -0.0241(5) 0.4208(4) 0.2981(3)
N2 N -0.1629(5) 0.4856(5) 0.3717(4)
H1 H -0.2532(5) 0.4476(5) 0.4080(4)
N3 N 0.0861(5) 0.9952(4) 0.2755(3)
N4 N 0.2607(5) 0.8929(4) 0.2654(3)
H2 H 0.3646(5) 0.9174(4) 0.2502(3)
N5 N -0.1600(5) 0.3000(4) 0.1438(3)
N6 N -0.1837(6) 0.2149(5) 0.0807(4)
H3 H -0.1072(6) 0.1170(5) 0.0845(4)
C1 C -0.1482(6) 0.6130(6) 0.3849(4)
H4 H -0.2318(6) 0.6780(6) 0.4326(4)
C2 C 0.0047(6) 0.6338(5) 0.3164(4)
C3 C 0.0782(6) 0.5117(5) 0.2636(4)
H5 H 0.1864(6) 0.4957(5) 0.2090(4)
C4 C -0.0250(6) 0.9120(5) 0.2983(4)
H6 H -0.1583(6) 0.9536(5) 0.3108(4)
C5 C 0.0764(6) 0.7589(5) 0.3003(4)
C6 C 0.2592(6) 0.7513(5) 0.2800(4)
H7 H 0.3673(6) 0.6610(5) 0.2772(4)
C7 C -0.3350(6) 0.2921(5) 0.0113(4)
H8 H -0.3783(6) 0.2534(5) -0.0414(4)
C8 C -0.4157(5) 0.4378(5) 0.0285(4)
C9 C -0.3003(6) 0.4359(5) 0.1127(4)
H9 H -0.3179(6) 0.5218(5) 0.1429(4)
N8 N -0.4043(6) 0.2438(6) 0.4181(5)
O6 O -0.4883(7) 0.3812(6) 0.4049(7)
O7 O -0.4759(11) 0.1558(9) 0.4083(18)
O8 O -0.2323(5) 0.1856(5) 0.4385(3)
C8A C -0.5843(5) 0.5622(5) -0.0285(4)
C7A C -0.6650(6) 0.7079(5) -0.0113(4)
N6A N -0.8163(6) 0.7851(5) -0.0807(4)
N5A N -0.8400(5) 0.7000(4) -0.1438(3)
C9A C -0.6997(6) 0.5641(5) -0.1127(4)
H9A H -0.6821(6) 0.4782(5) -0.1429(4)
H3A H -0.8928(6) 0.8830(5) -0.0845(4)
H8A H -0.6217(6) 0.7466(5) 0.0414(4)
N1_2 N -0.0241(5) -0.5792(4) 0.2981(3)
N2_2 N -0.1629(5) -0.5144(5) 0.3717(4)
H1_2 H -0.2532(5) -0.5524(5) 0.4080(4)
N3_2 N 0.0861(5) -0.0048(4) 0.2755(3)
N4_2 N 0.2607(5) -0.1071(4) 0.2654(3)
H2_2 H 0.3646(5) -0.0826(4) 0.2502(3)
C1_2 C -0.1482(6) -0.3870(6) 0.3849(4)
H4_2 H -0.2318(6) -0.3220(6) 0.4326(4)
C2_2 C 0.0047(6) -0.3662(5) 0.3164(4)
C3_2 C 0.0782(6) -0.4883(5) 0.2636(4)
H5_2 H 0.1864(6) -0.5043(5) 0.2090(4)
C4_2 C -0.0250(6) -0.0880(5) 0.2983(4)
H6_2 H -0.1583(6) -0.0464(5) 0.3108(4)
C5_2 C 0.0764(6) -0.2411(5) 0.3003(4)
C6_2 C 0.2592(6) -0.2487(5) 0.2800(4)
H7_2 H 0.3673(6) -0.3390(5) 0.2772(4)
Cu1_2 Cu 0.02988(7) -0.78611(6) 0.27452(5)
O1_2 O 0.2719(5) -0.7603(4) 0.1464(4)
O2_2 O 0.1890(5) -0.8741(4) 0.4223(3)
N8_2 N -0.4043(6) -0.7562(6) 0.4181(5)
O6_2 O -0.4883(7) -0.6188(6) 0.4049(7)
O7_2 O -0.4759(11) -0.8442(9) 0.4083(18)
O8_2 O -0.2323(5) -0.8144(5) 0.4385(3)
Cu1_3 Cu 0.02988(7) 1.21389(6) 0.27452(5)
Cu1A Cu -1.02988(7) 0.78611(6) -0.27452(5)
N3_3 N 0.0861(5) -1.0048(4) 0.2755(3)
N5_2 N -0.1600(5) -0.7000(4) 0.1438(3)
N7 N 0.3188(6) 0.1036(5) 0.8929(4)
O3 O 0.3637(7) 0.2074(6) 0.9063(5)
O4 O 0.1938(6) 0.0645(5) 0.9583(5)
O5 O 0.4018(5) 0.0394(5) 0.8106(4)
loop_
_geom_bond_atom_site_label_1
_geom_bond_atom_site_label_2
_geom_bond_site_symmetry_1
_geom_bond_site_symmetry_2
Cu1 O1 1_555 1_555
O2 Cu1 1_555 1_555
N1 Cu1 1_555 1_555
N2 N1 1_555 1_555
H1 N2 1_555 1_555
N3 N4 1_555 1_555
N4 H2 1_555 1_555
N5 Cu1 1_555 1_555
N6 N5 1_555 1_555
H3 N6 1_555 1_555
C1 N2 1_555 1_555
H4 C1 1_555 1_555
C2 C1 1_555 1_555
C3 N1 1_555 1_555
H5 C3 1_555 1_555
C4 N3 1_555 1_555
H6 C4 1_555 1_555
C5 C2 1_555 1_555
C6 N4 1_555 1_555
H7 C6 1_555 1_555
C7 N6 1_555 1_555
H8 C7 1_555 1_555
C8 C7 1_555 1_555
C9 N5 1_555 1_555
H9 C9 1_555 1_555
N7 O3 1_555 1_555
O4 N7 1_555 1_555
O5 N7 1_555 1_555
N8 O6 1_555 1_555
O7 N8 1_555 1_555
O8 Cu1 1_555 1_555
C8A C8 1_555 1_555
C7A C8A 1_555 1_555
N6A C7A 1_555 1_555
N5A N6A 1_555 1_555
C9A C8A 1_555 1_555
H9A C9A 1_555 1_555
H3A N6A 1_555 1_555
H8A C7A 1_555 1_555
N1_2 N2_2 1_555 1_555
N2_2 H1_2 1_555 1_555
N3_2 Cu1 1_555 1_555
N4_2 N3_2 1_555 1_555
H2_2 N4_2 1_555 1_555
C1_2 N2_2 1_555 1_555
H4_2 C1_2 1_555 1_555
C2_2 C1_2 1_555 1_555
C3_2 N1_2 1_555 1_555
H5_2 C3_2 1_555 1_555
C4_2 N3_2 1_555 1_555
H6_2 C4_2 1_555 1_555
C5_2 C2_2 1_555 1_555
C6_2 N4_2 1_555 1_555
H7_2 C6_2 1_555 1_555
Cu1_2 N1_2 1_555 1_555
O1_2 Cu1_2 1_555 1_555
O2_2 Cu1_2 1_555 1_555
N8_2 O6_2 1_555 1_555
O7_2 N8_2 1_555 1_555
O8_2 Cu1_2 1_555 1_555
Cu1_3 N3 1_555 1_555
Cu1A N5A 1_555 1_555
N3_3 Cu1_2 1_555 1_555
N5_2 Cu1_2 1_555 1_555
C2 C3 1_555 1_555
C4 C5 1_555 1_555
C5 C6 1_555 1_555
C8 C9 1_555 1_555
N8 O8 1_555 1_555
N5A C9A 1_555 1_555
C2_2 C3_2 1_555 1_555
C4_2 C5_2 1_555 1_555
C5_2 C6_2 1_555 1_555
N8_2 O8_2 1_555 1_555

#END
