
#######################################################################
#
#                 Cambridge Crystallographic Data Centre
#                                CCDC 
#
#######################################################################
#
# If this CIF has been generated from an entry in the Cambridge 
# Structural Database, then it will include bibliographic, chemical, 
# crystal, experimental, refinement or atomic coordinate data resulting 
# from the CCDC's data processing and validation procedures.
#
#######################################################################

data_HUJTEL
_symmetry_cell_setting           triclinic
_symmetry_space_group_name_H-M   'P -1'
_symmetry_Int_Tables_number      2
_space_group_name_Hall           '-P 1'
loop_
_symmetry_equiv_pos_site_id
_symmetry_equiv_pos_as_xyz
1 x,y,z
2 -x,-y,-z
_cell_length_a                   7.7970(11)
_cell_length_b                   9.7952(11)
_cell_length_c                   11.3333(13)
_cell_angle_alpha                98.558(2)
_cell_angle_beta                 101.046(2)
_cell_angle_gamma                112.051(2)
_cell_volume                     763.848
loop_
_atom_site_label
_atom_site_type_symbol
_atom_site_fract_x
_atom_site_fract_y
_atom_site_fract_z
Zn1 Zn 0.24731(9) 0.21413(7) 0.22619(7)
O1 O 0.3459(6) 0.1204(5) 0.0857(4)
O2 O 0.4926(6) 0.2304(4) 0.3561(4)
O3 O -0.0072(6) 0.1929(5) 0.0727(4)
O4 O -0.2950(7) 0.1605(6) 0.0665(9)
O5 O -0.0833(7) 0.3850(5) 0.0881(5)
N1 N 0.0750(6) -0.0158(5) 0.2198(4)
N2 N 0.1475(7) -0.1209(5) 0.2299(4)
H1 H 0.2733(7) -0.1003(5) 0.2438(4)
N3 N -0.5941(6) -0.5726(5) 0.1983(5)
N4 N -0.6675(7) -0.4994(5) 0.1250(5)
H2 H -0.7935(7) -0.5315(5) 0.0883(5)
N5 N 0.1359(6) 0.3003(5) 0.3597(4)
N6 N 0.0137(7) 0.2106(5) 0.4147(5)
H3 H -0.0162(7) 0.1110(5) 0.4071(5)
N7 N -0.1286(7) 0.2482(5) 0.0779(5)
C1 C 0.0089(8) -0.2587(6) 0.2168(5)
H4 H 0.0263(8) -0.3501(6) 0.2202(5)
C2 C -0.1646(8) -0.2452(6) 0.1963(5)
C3 C -0.1135(7) -0.0913(6) 0.1991(5)
H5 H -0.2035(7) -0.0459(6) 0.1886(5)
C4 C -0.4047(8) -0.4897(6) 0.2328(5)
H6 H -0.3130(8) -0.5125(6) 0.2862(5)
C5 C -0.3559(8) -0.3643(6) 0.1810(5)
C6 C -0.5298(8) -0.3742(6) 0.1138(6)
H7 H -0.5484(8) -0.3040(6) 0.0676(6)
C7 C -0.0575(8) 0.2891(6) 0.4819(5)
H8 H -0.1457(8) 0.2493(6) 0.5296(5)
C8 C 0.0186(8) 0.4368(6) 0.4714(5)
C9 C 0.1382(8) 0.4367(6) 0.3939(6)
H9 H 0.2134(8) 0.5248(6) 0.3693(6)
C8A C -0.0186(8) 0.5632(6) 0.5286(5)
C7A C 0.0575(8) 0.7109(6) 0.5181(5)
N6A N -0.0137(7) 0.7894(5) 0.5853(5)
N5A N -0.1359(6) 0.6997(5) 0.6403(4)
C9A C -0.1382(8) 0.5633(6) 0.6061(6)
H9A H -0.2134(8) 0.4752(6) 0.6307(6)
H3A H 0.0162(7) 0.8890(5) 0.5929(5)
H8A H 0.1457(8) 0.7507(6) 0.4704(5)
N1_2 N 1.0750(6) 0.9842(5) 0.2198(4)
N2_2 N 1.1475(7) 0.8791(5) 0.2299(4)
H1_2 H 1.2733(7) 0.8997(5) 0.2438(4)
N3_2 N 0.4059(6) 0.4274(5) 0.1983(5)
N4_2 N 0.3325(7) 0.5006(5) 0.1250(5)
H2_2 H 0.2065(7) 0.4685(5) 0.0883(5)
C1_2 C 1.0089(8) 0.7413(6) 0.2168(5)
H4_2 H 1.0263(8) 0.6499(6) 0.2202(5)
C2_2 C 0.8354(8) 0.7548(6) 0.1963(5)
C3_2 C 0.8865(7) 0.9087(6) 0.1991(5)
H5_2 H 0.7965(7) 0.9541(6) 0.1886(5)
C4_2 C 0.5953(8) 0.5103(6) 0.2328(5)
H6_2 H 0.6870(8) 0.4875(6) 0.2862(5)
C5_2 C 0.6441(8) 0.6357(6) 0.1810(5)
C6_2 C 0.4702(8) 0.6258(6) 0.1138(6)
H7_2 H 0.4516(8) 0.6960(6) 0.0676(6)
Zn1_2 Zn 1.24731(9) 1.21413(7) 0.22619(7)
O1_2 O 1.3459(6) 1.1204(5) 0.0857(4)
O2_2 O 1.4926(6) 1.2304(4) 0.3561(4)
O3_2 O 0.9928(6) 1.1929(5) 0.0727(4)
O4_2 O 0.7050(7) 1.1605(6) 0.0665(9)
O5_2 O 0.9167(7) 1.3850(5) 0.0881(5)
N7_2 N 0.8714(7) 1.2482(5) 0.0779(5)
Zn1_3 Zn -0.75269(9) -0.78587(7) 0.22619(7)
Zn1A Zn -0.24731(9) 0.78587(7) 0.77381(7)
N3_3 N 1.4059(6) 1.4274(5) 0.1983(5)
N5_2 N 1.1359(6) 1.3003(5) 0.3597(4)
O6 O 0.5594(6) 0.2095(5) 0.5979(5)
O7 O 0.2552(6) 0.0620(5) 0.5423(5)
O8 O 0.4457(6) 0.0369(5) 0.6965(4)
N8 N 0.4193(7) 0.1025(5) 0.6112(5)
loop_
_geom_bond_atom_site_label_1
_geom_bond_atom_site_label_2
_geom_bond_site_symmetry_1
_geom_bond_site_symmetry_2
Zn1 O1 1_555 1_555
O2 Zn1 1_555 1_555
O3 Zn1 1_555 1_555
O4 N7 1_555 1_555
O5 N7 1_555 1_555
O6 N8 1_555 1_555
O7 N8 1_555 1_555
O8 N8 1_555 1_555
N1 Zn1 1_555 1_555
N2 N1 1_555 1_555
H1 N2 1_555 1_555
N3 N4 1_555 1_555
N4 H2 1_555 1_555
N5 Zn1 1_555 1_555
N6 N5 1_555 1_555
H3 N6 1_555 1_555
N7 O3 1_555 1_555
C1 N2 1_555 1_555
H4 C1 1_555 1_555
C2 C1 1_555 1_555
C3 N1 1_555 1_555
H5 C3 1_555 1_555
C4 N3 1_555 1_555
H6 C4 1_555 1_555
C5 C2 1_555 1_555
C6 N4 1_555 1_555
H7 C6 1_555 1_555
C7 N6 1_555 1_555
H8 C7 1_555 1_555
C8 C7 1_555 1_555
C9 N5 1_555 1_555
H9 C9 1_555 1_555
C8A C8 1_555 1_555
C7A C8A 1_555 1_555
N6A C7A 1_555 1_555
N5A N6A 1_555 1_555
C9A C8A 1_555 1_555
H9A C9A 1_555 1_555
H3A N6A 1_555 1_555
H8A C7A 1_555 1_555
N1_2 N2_2 1_555 1_555
N2_2 H1_2 1_555 1_555
N3_2 Zn1 1_555 1_555
N4_2 N3_2 1_555 1_555
H2_2 N4_2 1_555 1_555
C1_2 N2_2 1_555 1_555
H4_2 C1_2 1_555 1_555
C2_2 C1_2 1_555 1_555
C3_2 N1_2 1_555 1_555
H5_2 C3_2 1_555 1_555
C4_2 N3_2 1_555 1_555
H6_2 C4_2 1_555 1_555
C5_2 C2_2 1_555 1_555
C6_2 N4_2 1_555 1_555
H7_2 C6_2 1_555 1_555
Zn1_2 N1_2 1_555 1_555
O1_2 Zn1_2 1_555 1_555
O2_2 Zn1_2 1_555 1_555
O3_2 Zn1_2 1_555 1_555
O4_2 N7_2 1_555 1_555
O5_2 N7_2 1_555 1_555
N7_2 O3_2 1_555 1_555
Zn1_3 N3 1_555 1_555
Zn1A N5A 1_555 1_555
N3_3 Zn1_2 1_555 1_555
N5_2 Zn1_2 1_555 1_555
C2 C3 1_555 1_555
C4 C5 1_555 1_555
C5 C6 1_555 1_555
C8 C9 1_555 1_555
N5A C9A 1_555 1_555
C2_2 C3_2 1_555 1_555
C4_2 C5_2 1_555 1_555
C5_2 C6_2 1_555 1_555

#END
