
#######################################################################
#
#                 Cambridge Crystallographic Data Centre
#                                CCDC 
#
#######################################################################
#
# If this CIF has been generated from an entry in the Cambridge 
# Structural Database, then it will include bibliographic, chemical, 
# crystal, experimental, refinement or atomic coordinate data resulting 
# from the CCDC's data processing and validation procedures.
#
#######################################################################

data_HUJTUB
_symmetry_cell_setting           triclinic
_symmetry_space_group_name_H-M   'P -1'
_symmetry_Int_Tables_number      2
_space_group_name_Hall           '-P 1'
loop_
_symmetry_equiv_pos_site_id
_symmetry_equiv_pos_as_xyz
1 x,y,z
2 -x,-y,-z
_cell_length_a                   7.2520(10)
_cell_length_b                   7.876(2)
_cell_length_c                   8.724(2)
_cell_angle_alpha                102.85(3)
_cell_angle_beta                 102.36(3)
_cell_angle_gamma                96.36(3)
_cell_volume                     467.939
loop_
_atom_site_label
_atom_site_type_symbol
_atom_site_fract_x
_atom_site_fract_y
_atom_site_fract_z
Co1 Co 1.0000 0.5000 0.5000
Cl1 Cl 1.19541(8) 0.32656(7) 0.34306(7)
N1 N 0.8093(3) 0.2647(3) 0.4769(2)
N2 N 0.8408(3) 0.1072(3) 0.3990(3)
N3 N 0.8279(3) 0.5343(3) 0.2801(2)
N4 N 0.8968(3) 0.6145(3) 0.1779(3)
C1 C 0.6522(3) 0.2284(3) 0.5273(3)
H1 H 0.5931(3) 0.3153(3) 0.5865(3)
C2 C 0.5827(3) 0.0461(3) 0.4822(3)
C3 C 0.7088(4) -0.0261(3) 0.3995(4)
H2 H 0.7022(4) -0.1492(3) 0.3504(4)
C4 C 0.6426(3) 0.4779(3) 0.2088(3)
H3 H 0.5545(3) 0.4166(3) 0.2540(3)
C5 C 0.5929(3) 0.5202(3) 0.0579(3)
C6 C 0.7616(4) 0.6091(4) 0.0445(3)
H4 H 0.7786(4) 0.6584(4) -0.0437(3)
H8 H 0.9385(49) 0.0989(44) 0.3547(41)
H9 H 1.0020(42) 0.6709(40) 0.1981(35)
C2A C 0.4173(3) -0.0461(3) 0.5178(3)
C1A C 0.3478(3) -0.2284(3) 0.4727(3)
N1A N 0.1907(3) -0.2647(3) 0.5231(2)
N2A N 0.1592(3) -0.1072(3) 0.6010(3)
C3A C 0.2912(4) 0.0261(3) 0.6005(4)
H2A H 0.2978(4) 0.1492(3) 0.6496(4)
H8A H 0.0615(49) -0.0989(44) 0.6453(41)
H1A H 0.4069(3) -0.3153(3) 0.4135(3)
C5A C 0.4071(3) 0.4798(3) -0.0579(3)
C4A C 0.3574(3) 0.5221(3) -0.2088(3)
N3A N 0.1721(3) 0.4657(3) -0.2801(2)
N4A N 0.1032(3) 0.3855(3) -0.1779(3)
C6A C 0.2384(4) 0.3909(4) -0.0445(3)
H4A H 0.2214(4) 0.3416(4) 0.0437(3)
H9A H -0.0020(42) 0.3291(40) -0.1981(35)
H3A H 0.4455(3) 0.5834(3) -0.2540(3)
Cl1A Cl 0.80459(8) 0.67344(7) 0.65694(7)
N1A_2 N 1.1907(3) 0.7353(3) 0.5231(2)
N3A_2 N 1.1721(3) 0.4657(3) 0.7199(2)
Co1_2 Co 0.0000 -0.5000 0.5000
Co1_3 Co 0.0000 0.5000 -0.5000
O1 O 1.1524(5) 0.9116(4) 0.1591(4)
C7 C 1.2465(8) 0.9050(6) 0.0383(5)
H5 H 1.2168(8) 0.9962(6) -0.0153(5)
H6 H 1.2062(8) 0.7919(6) -0.0386(5)
H7 H 1.3820(8) 0.9221(6) 0.0837(5)
H10 H 1.1993(42) 1.0560(40) 0.2429(35)
loop_
_geom_bond_atom_site_label_1
_geom_bond_atom_site_label_2
_geom_bond_site_symmetry_1
_geom_bond_site_symmetry_2
Co1 Cl1 1_555 1_555
N1 Co1 1_555 1_555
N2 N1 1_555 1_555
N3 Co1 1_555 1_555
N4 N3 1_555 1_555
C1 N1 1_555 1_555
H1 C1 1_555 1_555
C2 C1 1_555 1_555
C3 N2 1_555 1_555
H2 C3 1_555 1_555
C4 N3 1_555 1_555
H3 C4 1_555 1_555
C5 C4 1_555 1_555
C6 N4 1_555 1_555
H4 C6 1_555 1_555
O1 C7 1_555 1_555
C7 H5 1_555 1_555
H6 C7 1_555 1_555
H7 C7 1_555 1_555
H8 N2 1_555 1_555
H9 N4 1_555 1_555
H10 O1 1_555 1_555
C2A C2 1_555 1_555
C1A C2A 1_555 1_555
N1A C1A 1_555 1_555
N2A N1A 1_555 1_555
C3A C2A 1_555 1_555
H2A C3A 1_555 1_555
H8A N2A 1_555 1_555
H1A C1A 1_555 1_555
C5A C5 1_555 1_555
C4A C5A 1_555 1_555
N3A C4A 1_555 1_555
N4A N3A 1_555 1_555
C6A C5A 1_555 1_555
H4A C6A 1_555 1_555
H9A N4A 1_555 1_555
H3A C4A 1_555 1_555
Cl1A Co1 1_555 1_555
N1A_2 Co1 1_555 1_555
N3A_2 Co1 1_555 1_555
Co1_2 N1A 1_555 1_555
Co1_3 N3A 1_555 1_555
C2 C3 1_555 1_555
C5 C6 1_555 1_555
N2A C3A 1_555 1_555
N4A C6A 1_555 1_555

#END
