
#######################################################################
#
#                 Cambridge Crystallographic Data Centre
#                                CCDC 
#
#######################################################################
#
# If this CIF has been generated from an entry in the Cambridge 
# Structural Database, then it will include bibliographic, chemical, 
# crystal, experimental, refinement or atomic coordinate data resulting 
# from the CCDC's data processing and validation procedures.
#
#######################################################################

data_HUJVIR
_symmetry_cell_setting           monoclinic
_symmetry_space_group_name_H-M   'C 2/c'
_symmetry_Int_Tables_number      15
_space_group_name_Hall           '-C 2yn'
loop_
_symmetry_equiv_pos_site_id
_symmetry_equiv_pos_as_xyz
1 x,y,z
2 1/2+x,1/2+y,z
3 x,-y,1/2+z
4 1/2+x,1/2-y,1/2+z
5 -x,-y,-z
6 1/2-x,1/2-y,-z
7 -x,y,1/2-z
8 1/2-x,1/2+y,1/2-z
_cell_length_a                   14.606(2)
_cell_length_b                   13.8371(14)
_cell_length_c                   14.2804(12)
_cell_angle_alpha                90
_cell_angle_beta                 99.406(3)
_cell_angle_gamma                90
_cell_volume                     2847.33
loop_
_atom_site_label
_atom_site_type_symbol
_atom_site_fract_x
_atom_site_fract_y
_atom_site_fract_z
Zn1 Zn 0.0000 0.11352(3) 0.2500
O1 O 0.0539(2) 0.1030(2) 0.4019(2)
H1 H 0.1184(54) 0.1203(43) 0.4348(51)
H2 H 0.0169(40) 0.1242(35) 0.4451(39)
N1 N 0.0917(2) 0.2274(2) 0.2242(2)
N2 N 0.0613(2) 0.3020(2) 0.1669(2)
H3 H 0.0090(30) 0.2982(28) 0.1326(27)
N3 N 0.4045(2) 0.5036(2) 0.2721(2)
N4 N 0.4301(2) 0.4315(2) 0.3341(2)
H4 H 0.4843(36) 0.4342(34) 0.3709(33)
C1 C 0.1264(2) 0.3721(2) 0.1714(2)
H5 H 0.1205(2) 0.4321(2) 0.1371(2)
C2 C 0.2023(2) 0.3428(2) 0.2344(2)
C3 C 0.1767(2) 0.2515(2) 0.2651(2)
H6 H 0.2162(2) 0.2119(2) 0.3099(2)
C4 C 0.3636(2) 0.3643(2) 0.3307(2)
H7 H 0.3665(2) 0.3068(2) 0.3687(2)
C5 C 0.2904(2) 0.3922(2) 0.2630(2)
C6 C 0.3195(2) 0.4806(2) 0.2289(2)
H8 H 0.2828(2) 0.5191(2) 0.1809(2)
O1F O -0.0539(2) 0.1030(2) 0.0981(2)
H1F H -0.1184(54) 0.1203(43) 0.0652(51)
H2F H -0.0169(40) 0.1242(35) 0.0549(39)
N1F N -0.0917(2) 0.2274(2) 0.2758(2)
N2F N -0.0613(2) 0.3020(2) 0.3331(2)
H3F H -0.0090(30) 0.2982(28) 0.3674(27)
N3F N -0.4045(2) 0.5036(2) 0.2279(2)
N4F N -0.4301(2) 0.4315(2) 0.1659(2)
H4F H -0.4843(36) 0.4342(34) 0.1291(33)
C1F C -0.1264(2) 0.3721(2) 0.3286(2)
H5F H -0.1205(2) 0.4321(2) 0.3629(2)
C2F C -0.2023(2) 0.3428(2) 0.2656(2)
C3F C -0.1767(2) 0.2515(2) 0.2349(2)
H6F H -0.2162(2) 0.2119(2) 0.1901(2)
C4F C -0.3636(2) 0.3643(2) 0.1693(2)
H7F H -0.3665(2) 0.3068(2) 0.1313(2)
C5F C -0.2904(2) 0.3922(2) 0.2370(2)
C6F C -0.3195(2) 0.4806(2) 0.2711(2)
H8F H -0.2828(2) 0.5191(2) 0.3191(2)
N3A N -0.0955(2) 0.0036(2) 0.2721(2)
N3G N 0.0955(2) 0.0036(2) 0.2279(2)
Zn1A Zn 0.5000 0.61352(3) 0.2500
Zn1A_2 Zn -0.5000 0.61352(3) 0.2500
Cl1 Cl 0.14694(6) 0.61599(5) 0.01021(6)
O2 O 0.2415(3) 0.6031(4) 0.0052(4)
O3 O 0.1132(2) 0.7071(2) -0.0275(2)
O4 O 0.1386(3) 0.6128(3) 0.1085(3)
O5 O 0.0888(5) 0.5443(3) -0.0374(5)
O6 O 0.0657(2) 0.1527(2) -0.0228(2)
C7 C 0.1578(3) 0.1320(4) 0.0118(3)
H9 H 0.1805(3) 0.1755(4) 0.0627(3)
H10 H 0.1940(3) 0.1391(4) -0.0380(3)
H11 H 0.1625(3) 0.0667(4) 0.0349(3)
O7 O 0.0830(5) 0.3362(3) -0.0836(4)
C8 C 0.1151(5) 0.3565(7) -0.1679(5)
O8 O 0.0000 0.3466(7) -0.2500
C9 C 0.0000 0.4211(10) -0.2500
loop_
_geom_bond_atom_site_label_1
_geom_bond_atom_site_label_2
_geom_bond_site_symmetry_1
_geom_bond_site_symmetry_2
Zn1 O1 1_555 1_555
Cl1 O2 1_555 1_555
O1 H1 1_555 1_555
H2 O1 1_555 1_555
O3 Cl1 1_555 1_555
O4 Cl1 1_555 1_555
O5 Cl1 1_555 1_555
N1 Zn1 1_555 1_555
N2 N1 1_555 1_555
H3 N2 1_555 1_555
N3 N4 1_555 1_555
N4 H4 1_555 1_555
C1 N2 1_555 1_555
H5 C1 1_555 1_555
C2 C1 1_555 1_555
C3 N1 1_555 1_555
H6 C3 1_555 1_555
C4 N4 1_555 1_555
H7 C4 1_555 1_555
C5 C2 1_555 1_555
C6 N3 1_555 1_555
H8 C6 1_555 1_555
O6 C7 1_555 1_555
C7 H9 1_555 1_555
H10 C7 1_555 1_555
H11 C7 1_555 1_555
O7 C8 1_555 1_555
O8 C9 1_555 1_555
O1F Zn1 1_555 1_555
H1F O1F 1_555 1_555
H2F O1F 1_555 1_555
N1F Zn1 1_555 1_555
N2F N1F 1_555 1_555
H3F N2F 1_555 1_555
N3F N4F 1_555 1_555
N4F H4F 1_555 1_555
C1F N2F 1_555 1_555
H5F C1F 1_555 1_555
C2F C1F 1_555 1_555
C3F N1F 1_555 1_555
H6F C3F 1_555 1_555
C4F N4F 1_555 1_555
H7F C4F 1_555 1_555
C5F C2F 1_555 1_555
C6F N3F 1_555 1_555
H8F C6F 1_555 1_555
N3A Zn1 1_555 1_555
N3G Zn1 1_555 1_555
Zn1A N3 1_555 1_555
Zn1A_2 N3F 1_555 1_555
C2 C3 1_555 1_555
C4 C5 1_555 1_555
C5 C6 1_555 1_555
C2F C3F 1_555 1_555
C4F C5F 1_555 1_555
C5F C6F 1_555 1_555

#END
