
#######################################################################
#
#                 Cambridge Crystallographic Data Centre
#                                CCDC 
#
#######################################################################
#
# If this CIF has been generated from an entry in the Cambridge 
# Structural Database, then it will include bibliographic, chemical, 
# crystal, experimental, refinement or atomic coordinate data resulting 
# from the CCDC's data processing and validation procedures.
#
#######################################################################

data_HUJVOX
_symmetry_cell_setting           tetragonal
_symmetry_space_group_name_H-M   'P 43 21 2'
_symmetry_Int_Tables_number      96
_space_group_name_Hall           'P 4nw 2abw'
loop_
_symmetry_equiv_pos_site_id
_symmetry_equiv_pos_as_xyz
1 x,y,z
2 1/2-y,1/2+x,3/4+z
3 -x,-y,1/2+z
4 1/2+y,1/2-x,1/4+z
5 1/2-x,1/2+y,3/4-z
6 y,x,-z
7 1/2+x,1/2-y,1/4-z
8 -y,-x,1/2-z
_cell_length_a                   9.032(1)
_cell_length_b                   9.032(1)
_cell_length_c                   31.322(5)
_cell_angle_alpha                90
_cell_angle_beta                 90
_cell_angle_gamma                90
_cell_volume                     2555.16
loop_
_atom_site_label
_atom_site_type_symbol
_atom_site_fract_x
_atom_site_fract_y
_atom_site_fract_z
Cu1 Cu 0.73262(5) 0.73262(5) 0.0000
O1 O 0.9159(4) 0.5387(4) 0.00304(15)
N1 N 0.6265(4) 0.6184(3) 0.04515(9)
N2 N 0.6070(4) 0.4710(4) 0.04427(11)
N3 N 0.3265(4) 0.6406(3) 0.2051(1)
N4 N 0.3146(4) 0.4921(4) 0.20437(11)
C1 C 0.5623(4) 0.6638(4) 0.08129(11)
C2 C 0.5012(4) 0.5442(4) 0.10354(11)
C3 C 0.5332(5) 0.4238(5) 0.07870(13)
C4 C 0.3949(5) 0.6753(4) 0.16866(12)
C5 C 0.4258(4) 0.5496(4) 0.14464(11)
C6 C 0.3723(6) 0.4354(5) 0.16901(13)
H1 H 0.560(6) 0.778(6) 0.0903(16)
H2 H 0.634(6) 0.421(6) 0.0234(17)
H3 H 0.523(5) 0.337(6) 0.0829(14)
H4 H 0.372(5) 0.341(6) 0.1635(14)
H5 H 0.932(8) 0.514(9) -0.017(3)
H6 H 0.964(8) 0.490(9) 0.025(3)
H7 H 0.289(6) 0.448(6) 0.2256(17)
H8 H 0.407(6) 0.780(6) 0.1619(15)
O1E O 0.5387(4) 0.9159(4) -0.00304(15)
H5E H 0.514(9) 0.932(8) 0.017(3)
H6E H 0.490(9) 0.964(8) -0.025(3)
N1E N 0.6184(3) 0.6265(4) -0.04515(9)
N2E N 0.4710(4) 0.6070(4) -0.04427(11)
N3E N 0.6406(3) 0.3265(4) -0.2051(1)
N4E N 0.4921(4) 0.3146(4) -0.20437(11)
C1E C 0.6638(4) 0.5623(4) -0.08129(11)
C2E C 0.5442(4) 0.5012(4) -0.10354(11)
C3E C 0.4238(5) 0.5332(5) -0.07870(13)
C4E C 0.6753(4) 0.3949(5) -0.16866(12)
C5E C 0.5496(4) 0.4258(4) -0.14464(11)
C6E C 0.4354(5) 0.3723(6) -0.16901(13)
H1E H 0.778(6) 0.560(6) -0.0903(16)
H2E H 0.421(6) 0.634(6) -0.0234(17)
H3E H 0.337(6) 0.523(5) -0.0829(14)
H4E H 0.341(6) 0.372(5) -0.1635(14)
H7E H 0.448(6) 0.289(6) -0.2256(17)
H8E H 0.780(6) 0.407(6) -0.1619(15)
N3A N 0.8594(3) 0.8265(4) -0.0449(1)
N3F N 0.8265(4) 0.8594(3) 0.0449(1)
Cu1C Cu 0.23262(5) 0.76738(5) 0.2500
Cu1A Cu 0.76738(5) 0.23262(5) -0.2500
Cl1 Cl 0.32163(16) 0.02851(13) 0.09733(4)
O2 O 0.2731(5) 0.1795(4) 0.09862(19)
O3 O 0.4859(6) 0.0286(7) 0.1003(2)
O4 O 0.2943(7) -0.0303(6) 0.05491(18)
O5 O 0.7003(4) 0.2372(4) -0.01316(11)
H9 H 0.776(9) 0.265(9) -0.037(3)
H10 H 0.653(7) 0.210(7) -0.030(2)
O6 O 1.1231(6) 0.4613(5) 0.06523(17)
O7 O 0.2411(13) 0.2411(13) 0.0000
loop_
_geom_bond_atom_site_label_1
_geom_bond_atom_site_label_2
_geom_bond_site_symmetry_1
_geom_bond_site_symmetry_2
Cu1 O1 1_555 1_555
Cl1 O2 1_555 1_555
O1 H5 1_555 1_555
O3 Cl1 1_555 1_555
O4 Cl1 1_555 1_555
O5 H9 1_555 1_555
N1 Cu1 1_555 1_555
N2 N1 1_555 1_555
N3 N4 1_555 1_555
N4 C6 1_555 1_555
C1 N1 1_555 1_555
C2 C1 1_555 1_555
C3 N2 1_555 1_555
C4 N3 1_555 1_555
C5 C2 1_555 1_555
C6 C5 1_555 1_555
H1 C1 1_555 1_555
H2 N2 1_555 1_555
H3 C3 1_555 1_555
H4 C6 1_555 1_555
H6 O1 1_555 1_555
H7 N4 1_555 1_555
H8 C4 1_555 1_555
H10 O5 1_555 1_555
O1E Cu1 1_555 1_555
H5E O1E 1_555 1_555
H6E O1E 1_555 1_555
N1E Cu1 1_555 1_555
N2E N1E 1_555 1_555
N3E N4E 1_555 1_555
N4E C6E 1_555 1_555
C1E N1E 1_555 1_555
C2E C1E 1_555 1_555
C3E N2E 1_555 1_555
C4E N3E 1_555 1_555
C5E C2E 1_555 1_555
C6E C5E 1_555 1_555
H1E C1E 1_555 1_555
H2E N2E 1_555 1_555
H3E C3E 1_555 1_555
H4E C6E 1_555 1_555
H7E N4E 1_555 1_555
H8E C4E 1_555 1_555
N3A Cu1 1_555 1_555
N3F Cu1 1_555 1_555
Cu1C N3 1_555 1_555
Cu1A N3E 1_555 1_555
C2 C3 1_555 1_555
C4 C5 1_555 1_555
C2E C3E 1_555 1_555
C4E C5E 1_555 1_555

#END
