
#######################################################################
#
#                 Cambridge Crystallographic Data Centre
#                                CCDC 
#
#######################################################################
#
# If this CIF has been generated from an entry in the Cambridge 
# Structural Database, then it will include bibliographic, chemical, 
# crystal, experimental, refinement or atomic coordinate data resulting 
# from the CCDC's data processing and validation procedures.
#
#######################################################################

data_HUJVEN
_symmetry_cell_setting           monoclinic
_symmetry_space_group_name_H-M   'C 2/c'
_symmetry_Int_Tables_number      15
_space_group_name_Hall           '-C 2yn'
loop_
_symmetry_equiv_pos_site_id
_symmetry_equiv_pos_as_xyz
1 x,y,z
2 1/2+x,1/2+y,z
3 x,-y,1/2+z
4 1/2+x,1/2-y,1/2+z
5 -x,-y,-z
6 1/2-x,1/2-y,-z
7 -x,y,1/2-z
8 1/2-x,1/2+y,1/2-z
_cell_length_a                   15.0660(12)
_cell_length_b                   14.1748(10)
_cell_length_c                   14.1377(10)
_cell_angle_alpha                90
_cell_angle_beta                 100.405(2)
_cell_angle_gamma                90
_cell_volume                     2969.56
loop_
_atom_site_label
_atom_site_type_symbol
_atom_site_fract_x
_atom_site_fract_y
_atom_site_fract_z
Cd1 Cd 0.0000 0.11661(2) 0.2500
O1 O -0.0592(2) 0.0993(2) 0.0835(2)
N1 N 0.09887(14) 0.0001(2) 0.2269(2)
N2 N 0.07317(15) -0.0739(2) 0.1692(2)
H1 H 0.0183(23) -0.0823(23) 0.1314(24)
N3 N 0.40795(14) -0.2631(2) 0.2821(2)
N4 N 0.4377(2) -0.1876(2) 0.3364(2)
H2 H 0.4898(24) -0.1888(24) 0.3681(25)
C1 C 0.1391(2) -0.1391(2) 0.1751(2)
H3 H 0.1294(22) -0.1943(24) 0.1382(24)
C2 C 0.2114(2) -0.1060(2) 0.2397(2)
C3 C 0.1834(2) -0.0194(2) 0.2699(2)
H4 H 0.2117(23) 0.0197(24) 0.3136(25)
C4 C 0.3743(2) -0.1200(2) 0.3310(2)
H5 H 0.3842(23) -0.0642(26) 0.3653(25)
C5 C 0.2986(2) -0.1530(2) 0.2700(2)
C6 C 0.3235(2) -0.2421(2) 0.2416(2)
H6 H 0.2914(22) -0.2849(23) 0.2014(24)
H15 H -0.1082(34) 0.1160(27) 0.0630(34)
H16 H -0.0287(33) 0.1207(29) 0.0548(34)
O1F O 0.0592(2) 0.0993(2) 0.4165(2)
H15F H 0.1082(34) 0.1160(27) 0.4370(34)
H16F H 0.0287(33) 0.1207(29) 0.4452(34)
N1F N -0.09887(14) 0.0001(2) 0.2731(2)
N2F N -0.07317(15) -0.0739(2) 0.3308(2)
H1F H -0.0183(23) -0.0823(23) 0.3686(24)
N3F N -0.40795(14) -0.2631(2) 0.2179(2)
N4F N -0.4377(2) -0.1876(2) 0.1636(2)
H2F H -0.4898(24) -0.1888(24) 0.1319(25)
C1F C -0.1391(2) -0.1391(2) 0.3249(2)
H3F H -0.1294(22) -0.1943(24) 0.3618(24)
C2F C -0.2114(2) -0.1060(2) 0.2603(2)
C3F C -0.1834(2) -0.0194(2) 0.2301(2)
H4F H -0.2117(23) 0.0197(24) 0.1864(25)
C4F C -0.3743(2) -0.1200(2) 0.1690(2)
H5F H -0.3842(23) -0.0642(26) 0.1347(25)
C5F C -0.2986(2) -0.1530(2) 0.2300(2)
C6F C -0.3235(2) -0.2421(2) 0.2584(2)
H6F H -0.2914(22) -0.2849(23) 0.2986(24)
N3A N -0.09205(14) 0.2369(2) 0.2821(2)
N3G N 0.09205(14) 0.2369(2) 0.2179(2)
Cd1A Cd 0.5000 -0.38339(2) 0.2500
Cd1A_2 Cd -0.5000 -0.38339(2) 0.2500
Cl1 Cl -0.35149(5) 0.11817(5) 0.01029(5)
O2 O -0.4138(3) 0.0485(2) -0.0314(3)
O3 O -0.3833(2) 0.2062(2) -0.0317(2)
O4 O -0.2638(2) 0.0969(3) -0.0035(3)
O5 O -0.3517(2) 0.1207(2) 0.1108(2)
O6 O -0.4223(3) -0.1599(2) -0.0860(3)
C7 C -0.3834(4) -0.1367(4) -0.1627(4)
H7 H -0.4082(4) -0.0764(4) -0.1970(4)
H8 H -0.3941(4) -0.1872(4) -0.2085(4)
H9 H -0.3194(4) -0.1307(4) -0.1422(4)
H14 H -0.4383(2) -0.0970(3) -0.0539(3)
O7 O 0.06274(14) 0.1585(2) -0.0298(2)
C8 C 0.1537(2) 0.1328(3) 0.0072(3)
H10 H 0.1945(2) 0.1382(3) -0.0452(3)
H11 H 0.1553(2) 0.0691(3) 0.0305(3)
H12 H 0.1772(2) 0.1731(3) 0.0604(3)
H13 H 0.0671(2) 0.2155(3) -0.0597(3)
loop_
_geom_bond_atom_site_label_1
_geom_bond_atom_site_label_2
_geom_bond_site_symmetry_1
_geom_bond_site_symmetry_2
Cd1 O1 1_555 1_555
Cl1 O2 1_555 1_555
O1 H15 1_555 1_555
O3 Cl1 1_555 1_555
O4 Cl1 1_555 1_555
O5 Cl1 1_555 1_555
O6 C7 1_555 1_555
O7 C8 1_555 1_555
N1 Cd1 1_555 1_555
N2 N1 1_555 1_555
H1 N2 1_555 1_555
N3 N4 1_555 1_555
N4 H2 1_555 1_555
C1 N2 1_555 1_555
H3 C1 1_555 1_555
C2 C1 1_555 1_555
C3 N1 1_555 1_555
H4 C3 1_555 1_555
C4 N4 1_555 1_555
H5 C4 1_555 1_555
C5 C2 1_555 1_555
C6 N3 1_555 1_555
H6 C6 1_555 1_555
C7 H7 1_555 1_555
H8 C7 1_555 1_555
H9 C7 1_555 1_555
C8 H10 1_555 1_555
H11 C8 1_555 1_555
H12 C8 1_555 1_555
H13 O7 1_555 1_555
H14 O6 1_555 1_555
H16 O1 1_555 1_555
O1F Cd1 1_555 1_555
H15F O1F 1_555 1_555
H16F O1F 1_555 1_555
N1F Cd1 1_555 1_555
N2F N1F 1_555 1_555
H1F N2F 1_555 1_555
N3F N4F 1_555 1_555
N4F H2F 1_555 1_555
C1F N2F 1_555 1_555
H3F C1F 1_555 1_555
C2F C1F 1_555 1_555
C3F N1F 1_555 1_555
H4F C3F 1_555 1_555
C4F N4F 1_555 1_555
H5F C4F 1_555 1_555
C5F C2F 1_555 1_555
C6F N3F 1_555 1_555
H6F C6F 1_555 1_555
N3A Cd1 1_555 1_555
N3G Cd1 1_555 1_555
Cd1A N3 1_555 1_555
Cd1A_2 N3F 1_555 1_555
C2 C3 1_555 1_555
C4 C5 1_555 1_555
C5 C6 1_555 1_555
C2F C3F 1_555 1_555
C4F C5F 1_555 1_555
C5F C6F 1_555 1_555

#END
