
#######################################################################
#
#                 Cambridge Crystallographic Data Centre
#                                CCDC 
#
#######################################################################
#
# If this CIF has been generated from an entry in the Cambridge 
# Structural Database, then it will include bibliographic, chemical, 
# crystal, experimental, refinement or atomic coordinate data resulting 
# from the CCDC's data processing and validation procedures.
#
#######################################################################

data_HUJVAJ
_symmetry_cell_setting           monoclinic
_symmetry_space_group_name_H-M   'P 21/n'
_symmetry_Int_Tables_number      14
_space_group_name_Hall           '-P 2yn'
loop_
_symmetry_equiv_pos_site_id
_symmetry_equiv_pos_as_xyz
1 x,y,z
2 1/2+x,1/2-y,1/2+z
3 -x,-y,-z
4 1/2-x,1/2+y,1/2-z
_cell_length_a                   13.163(2)
_cell_length_b                   16.305(2)
_cell_length_c                   14.099(2)
_cell_angle_alpha                90
_cell_angle_beta                 90.419(5)
_cell_angle_gamma                90
_cell_volume                     3025.88
loop_
_atom_site_label
_atom_site_type_symbol
_atom_site_fract_x
_atom_site_fract_y
_atom_site_fract_z
Cu1 Cu 0.948940(14) 0.700491(13) 0.887232(13)
O1 O 0.94016(13) 0.55733(9) 0.91059(11)
O2 O 0.94514(14) 0.84889(10) 0.87287(12)
N1 N 1.04254(10) 0.71174(9) 0.99876(10)
N2 N 1.03064(11) 0.66420(10) 1.07549(10)
H1 H 0.98675(11) 0.62532(10) 1.07960(10)
N3 N 1.35292(11) 0.81369(9) 1.27842(10)
N4 N 1.35451(11) 0.87469(9) 1.21404(10)
H2 H 1.39524(11) 0.91589(9) 1.21646(10)
N5 N 0.82839(10) 0.70932(9) 0.97571(10)
N6 N 0.74834(11) 0.65811(9) 0.97277(10)
H3 H 0.73965(11) 0.62067(9) 0.93053(10)
N7 N 0.56955(11) 0.80321(9) 1.29920(10)
N8 N 0.66059(11) 0.83757(10) 1.31795(11)
H4 H 0.67405(11) 0.86619(10) 1.36772(11)
C1 C 1.09550(14) 0.68485(12) 1.14474(13)
H5 H 1.10076(14) 0.66001(12) 1.20395(13)
C2 C 1.15352(13) 0.74982(11) 1.11262(12)
C3 C 1.11750(12) 0.76385(11) 1.02040(12)
H6 H 1.14236(12) 0.80393(11) 0.97976(12)
C4 C 1.28010(13) 0.76286(11) 1.24945(12)
H7 H 1.26179(13) 0.71494(11) 1.28076(12)
C5 C 1.23471(13) 0.79110(11) 1.16556(12)
C6 C 1.28463(14) 0.86317(12) 1.14575(13)
H8 H 1.27215(14) 0.89759(12) 1.09437(13)
C7 C 0.68384(13) 0.67282(12) 1.04374(13)
H9 H 0.62400(13) 0.64443(12) 1.05564(13)
C8 C 0.72205(13) 0.73759(11) 1.09623(12)
C9 C 0.81257(13) 0.75816(11) 1.04962(12)
H10 H 0.85580(13) 0.80044(11) 1.06814(12)
C10 C 0.58052(13) 0.76489(12) 1.21656(12)
H11 H 0.52912(13) 0.73575(12) 1.18597(12)
C11 C 0.67877(13) 0.77397(11) 1.18154(12)
C12 C 0.72749(14) 0.82147(13) 1.24912(14)
H12 H 0.79461(14) 0.83916(13) 1.24718(14)
H18 H 0.9008(24) 0.8773(18) 0.8593(20)
H19 H 0.9856(24) 0.8739(19) 0.8604(21)
H20 H 0.8971(24) 0.5332(19) 0.9124(22)
H22 H 0.9846(21) 0.5259(16) 0.8972(18)
N3A N 0.85292(11) 0.68631(9) 0.77842(10)
N7A N 1.06955(11) 0.69679(9) 0.79920(10)
Cu1A Cu 1.448940(14) 0.799509(13) 1.387232(13)
Cu1A_2 Cu 0.448940(14) 0.799509(13) 1.387232(13)
F1 F 0.85104(13) 0.81975(10) 0.4862(2)
F2 F 0.95291(10) 0.92156(11) 0.49668(13)
F3 F 0.89793(12) 0.86300(11) 0.62110(12)
O5 O 0.72611(13) 0.94520(10) 0.46464(12)
O6 O 0.77662(15) 0.99465(10) 0.60349(11)
C13 C 0.78210(14) 0.94792(12) 0.53491(14)
C14 C 0.8712(2) 0.88698(13) 0.5346(2)
F4 F 0.9105(8) 0.3202(7) 0.5853(6)
F5 F 1.0449(9) 0.3465(6) 0.5178(9)
F6 F 0.9184(13) 0.4240(7) 0.4986(7)
O7 O 1.08924(12) 0.42847(13) 0.67174(11)
O8 O 0.92758(11) 0.46569(9) 0.68732(11)
C15 C 0.9989(2) 0.43078(13) 0.64787(14)
C16 C 0.9690(2) 0.3799(2) 0.5600(2)
O3 O 1.09887(11) 0.45553(10) 0.86300(12)
H25 H 1.1063(21) 0.4549(18) 0.8091(22)
H26 H 1.1435(22) 0.4781(18) 0.8863(20)
O4 O 0.78431(14) 0.93868(11) 0.80282(14)
H21 H 0.7896(23) 0.9537(19) 0.7524(23)
H23 H 0.7208(29) 0.9466(21) 0.8164(24)
O9 O 1.24050(14) 0.93408(13) 0.93159(12)
C17 C 1.1701(2) 0.97130(13) 0.87483(15)
C18 C 1.1645(2) 0.95634(14) 0.7783(2)
H13 H 1.2104(2) 0.92081(14) 0.7500(2)
C19 C 1.0904(2) 0.9943(2) 0.7244(2)
H14 H 1.0876(2) 0.9849(2) 0.6594(2)
C20 C 1.0206(2) 1.0457(2) 0.7653(2)
H15 H 0.9707(2) 1.0709(2) 0.7284(2)
C21 C 1.0256(2) 1.0595(2) 0.8621(2)
H16 H 0.9782(2) 1.0936(2) 0.8906(2)
C22 C 1.1005(2) 1.0231(2) 0.9166(2)
H17 H 1.1041(2) 1.0334(2) 0.9814(2)
H24 H 1.2916(27) 0.9227(20) 0.9047(24)
F7? F 1.0346(11) 0.3844(17) 0.4935(9)
F8? F 0.8831(8) 0.3970(11) 0.5236(12)
F9? F 0.9600(22) 0.3027(8) 0.5833(12)
loop_
_geom_bond_atom_site_label_1
_geom_bond_atom_site_label_2
_geom_bond_site_symmetry_1
_geom_bond_site_symmetry_2
Cu1 O1 1_555 1_555
F1 C14 1_555 1_555
F2 C14 1_555 1_555
F3 C14 1_555 1_555
F4 C16 1_555 1_555
F5 C16 1_555 1_555
F6 C16 1_555 1_555
O1 H20 1_555 1_555
O2 Cu1 1_555 1_555
O3 H25 1_555 1_555
O4 H21 1_555 1_555
O5 C13 1_555 1_555
O6 C13 1_555 1_555
O7 C15 1_555 1_555
O8 C15 1_555 1_555
O9 C17 1_555 1_555
N1 Cu1 1_555 1_555
N2 N1 1_555 1_555
H1 N2 1_555 1_555
N3 N4 1_555 1_555
N4 H2 1_555 1_555
N5 Cu1 1_555 1_555
N6 N5 1_555 1_555
H3 N6 1_555 1_555
N7 N8 1_555 1_555
N8 H4 1_555 1_555
C1 N2 1_555 1_555
H5 C1 1_555 1_555
C2 C1 1_555 1_555
C3 N1 1_555 1_555
H6 C3 1_555 1_555
C4 N3 1_555 1_555
H7 C4 1_555 1_555
C5 C2 1_555 1_555
C6 N4 1_555 1_555
H8 C6 1_555 1_555
C7 N6 1_555 1_555
H9 C7 1_555 1_555
C8 C7 1_555 1_555
C9 N5 1_555 1_555
H10 C9 1_555 1_555
C10 N7 1_555 1_555
H11 C10 1_555 1_555
C11 C8 1_555 1_555
C12 N8 1_555 1_555
H12 C12 1_555 1_555
C13 C14 1_555 1_555
C15 C16 1_555 1_555
C17 C18 1_555 1_555
C18 H13 1_555 1_555
C19 C18 1_555 1_555
H14 C19 1_555 1_555
C20 C19 1_555 1_555
H15 C20 1_555 1_555
C21 C20 1_555 1_555
H16 C21 1_555 1_555
C22 C17 1_555 1_555
H17 C22 1_555 1_555
H18 O2 1_555 1_555
H19 O2 1_555 1_555
H22 O1 1_555 1_555
H23 O4 1_555 1_555
H24 O9 1_555 1_555
H26 O3 1_555 1_555
N3A Cu1 1_555 1_555
N7A Cu1 1_555 1_555
Cu1A N3 1_555 1_555
Cu1A_2 N7 1_555 1_555
C2 C3 1_555 1_555
C4 C5 1_555 1_555
C5 C6 1_555 1_555
C8 C9 1_555 1_555
C10 C11 1_555 1_555
C11 C12 1_555 1_555
C21 C22 1_555 1_555

#END
