
#######################################################################
#
#                 Cambridge Crystallographic Data Centre
#                                CCDC 
#
#######################################################################
#
# If this CIF has been generated from an entry in the Cambridge 
# Structural Database, then it will include bibliographic, chemical, 
# crystal, experimental, refinement or atomic coordinate data resulting 
# from the CCDC's data processing and validation procedures.
#
#######################################################################

data_HUKDEY
_symmetry_cell_setting           monoclinic
_symmetry_space_group_name_H-M   'P 21/c'
_symmetry_Int_Tables_number      14
_space_group_name_Hall           '-P 2ybc'
loop_
_symmetry_equiv_pos_site_id
_symmetry_equiv_pos_as_xyz
1 x,y,z
2 -x,1/2+y,1/2-z
3 -x,-y,-z
4 x,1/2-y,1/2+z
_cell_length_a                   9.0855(10)
_cell_length_b                   18.021(2)
_cell_length_c                   14.2701(15)
_cell_angle_alpha                90
_cell_angle_beta                 106.531(2)
_cell_angle_gamma                90
_cell_volume                     2239.87
loop_
_atom_site_label
_atom_site_type_symbol
_atom_site_fract_x
_atom_site_fract_y
_atom_site_fract_z
Eu1 Eu 0.69153(3) 1.07568(2) 0.51215(2)
C1 C 0.3501(7) 0.8502(3) 0.1911(5)
H1 H 0.3177 0.8029 0.2023
C2 C 0.6295(8) 0.7501(3) 0.2659(5)
H2 H 0.5730 0.7374 0.2028
C3 C 0.2949(7) 0.9640(4) 0.1115(4)
H3 H 0.2244 0.9950 0.0693
O1 O 0.5374(5) 1.0693(2) 0.3443(3)
O2 O 0.7759(5) 1.1016(3) 0.3610(3)
C4 C 0.8249(7) 0.7201(3) 0.4148(5)
C5 C 0.6016(6) 1.1064(3) 0.1993(4)
C6 C 0.4985(6) 0.8718(3) 0.2389(4)
C7 C 0.6400(6) 1.0906(3) 0.3065(4)
C8 C 0.6073(7) 0.8195(3) 0.3046(4)
C9 C 0.4426(6) 0.9898(3) 0.1550(4)
C10 C 0.4935(7) 1.0634(3) 0.1300(4)
C11 C 0.5460(6) 0.9416(3) 0.2183(4)
H4 H 0.6469 0.9565 0.2467
N1 N 0.2516(6) 0.8952(3) 0.1291(4)
C12 C 0.6943(6) 0.8387(3) 0.3985(4)
C13 C 0.4907(8) 1.1581(3) 0.0084(5)
H5 H 0.4489 1.1764 -0.0546
C14 C 0.4422(7) 1.0902(3) 0.0347(4)
H6 H 0.3736 1.0619 -0.0126
C15 C 0.8034(7) 0.7888(3) 0.4526(5)
H7 H 0.8625 0.8018 0.5151
C16 C 0.6021(7) 1.1989(3) 0.0763(4)
C17 C 0.6560(6) 1.1716(3) 0.1713(4)
H8 H 0.7308 1.1982 0.2171
C18 C 0.7346(8) 0.7010(3) 0.3212(5)
H9 H 0.7457 0.6544 0.2959
C19 C 0.9399(9) 0.6649(4) 0.4662(6)
C20 C 0.6765(6) 0.9132(3) 0.4429(4)
O3 O 0.7880(4) 0.9566(2) 0.4641(3)
O4 O 1.0072(8) 0.6814(4) 0.5539(5)
H10 H 1.0692 0.6487 0.5783
O5 O 0.9747(11) 0.6109(4) 0.4295(6)
C21 C 0.6482(7) 1.2742(3) 0.0513(4)
O6 O 0.5514(5) 0.9321(2) 0.4574(3)
O7 O 0.6033(7) 1.2973(3) -0.0345(3)
O8 O 0.7282(6) 1.3149(2) 0.1186(3)
O9 O 0.7329(4) 1.0039(3) 0.6604(3)
H11 H 0.8094 0.9667 0.6624
H12 H 0.6386 0.9804 0.6613
O10 O 0.9559(5) 1.0854(3) 0.5841(4)
H13 H 1.0056 1.0416 0.5697
H14 H 0.9761 1.0903 0.6536
Eu1B Eu 0.30847(3) 0.92432(2) 0.48785(2)
Eu1C Eu 0.69153(3) 1.42432(2) 0.01215(2)
O6B O 0.4486(5) 1.0679(2) 0.5426(3)
O7C O 0.6033(7) 1.2027(3) 0.4655(3)
O8C O 0.7282(6) 1.1851(2) 0.6186(3)
O11 O 0.9836(15) 0.9198(9) 0.7281(12)
O12 O 0.0986(12) 0.1071(13) 0.7789(10)
loop_
_geom_bond_atom_site_label_1
_geom_bond_atom_site_label_2
_geom_bond_site_symmetry_1
_geom_bond_site_symmetry_2
Eu1 O1 1_555 1_555
C1 H1 1_555 1_555
C2 H2 1_555 1_555
C3 H3 1_555 1_555
O1 C7 1_555 1_555
O2 Eu1 1_555 1_555
C4 C15 1_555 1_555
C5 C7 1_555 1_555
C6 C1 1_555 1_555
C7 O2 1_555 1_555
C8 C2 1_555 1_555
C9 C3 1_555 1_555
C10 C5 1_555 1_555
C11 C6 1_555 1_555
H4 C11 1_555 1_555
N1 C1 1_555 1_555
C12 C8 1_555 1_555
C13 H5 1_555 1_555
C14 C10 1_555 1_555
H6 C14 1_555 1_555
C15 C12 1_555 1_555
H7 C15 1_555 1_555
C16 C13 1_555 1_555
C17 C5 1_555 1_555
H8 C17 1_555 1_555
C18 C2 1_555 1_555
H9 C18 1_555 1_555
C19 C4 1_555 1_555
C20 C12 1_555 1_555
O3 Eu1 1_555 1_555
O4 C19 1_555 1_555
H10 O4 1_555 1_555
O5 C19 1_555 1_555
C21 C16 1_555 1_555
O6 Eu1 1_555 1_555
O7 C21 1_555 1_555
O8 C21 1_555 1_555
O9 Eu1 1_555 1_555
H11 O9 1_555 1_555
H12 O9 1_555 1_555
O10 Eu1 1_555 1_555
H13 O10 1_555 1_555
H14 O10 1_555 1_555
Eu1B O6 1_555 1_555
Eu1C O7 1_555 1_555
O6B Eu1 1_555 1_555
O7C Eu1 1_555 1_555
O8C Eu1 1_555 1_555
C3 N1 1_555 1_555
C4 C18 1_555 1_555
C6 C8 1_555 1_555
C9 C10 1_555 1_555
C9 C11 1_555 1_555
C13 C14 1_555 1_555
C16 C17 1_555 1_555
C20 O3 1_555 1_555
C20 O6 1_555 1_555
O8 Eu1C 1_555 1_555
Eu1B O6B 1_555 1_555

#END
