
#######################################################################
#
#                 Cambridge Crystallographic Data Centre
#                                CCDC 
#
#######################################################################
#
# If this CIF has been generated from an entry in the Cambridge 
# Structural Database, then it will include bibliographic, chemical, 
# crystal, experimental, refinement or atomic coordinate data resulting 
# from the CCDC's data processing and validation procedures.
#
#######################################################################

data_HUKDIC
_symmetry_cell_setting           monoclinic
_symmetry_space_group_name_H-M   'P 21/c'
_symmetry_Int_Tables_number      14
_space_group_name_Hall           '-P 2ybc'
loop_
_symmetry_equiv_pos_site_id
_symmetry_equiv_pos_as_xyz
1 x,y,z
2 -x,1/2+y,1/2-z
3 -x,-y,-z
4 x,1/2-y,1/2+z
_cell_length_a                   9.125(3)
_cell_length_b                   17.970(6)
_cell_length_c                   14.297(5)
_cell_angle_alpha                90
_cell_angle_beta                 106.386(5)
_cell_angle_gamma                90
_cell_volume                     2249.15
loop_
_atom_site_label
_atom_site_type_symbol
_atom_site_fract_x
_atom_site_fract_y
_atom_site_fract_z
O1 O 0.4472(5) 0.9325(2) 0.0453(3)
O2 O 0.2752(5) 1.3119(2) 0.3848(3)
O3 O 0.4052(6) 1.2952(2) 0.5358(3)
C1 C 0.3565(6) 1.2718(3) 0.4526(4)
Nd1 Nd 0.30923(3) 1.07616(2) -0.01166(2)
O4 O 0.2670(4) 1.0031(2) -0.1619(3)
H1 H 0.1839 0.9691 -0.1670
H2 H 0.3579 0.9756 -0.1603
O5 O 0.2074(4) 0.9544(2) 0.0332(3)
O6 O 0.0395(5) 1.0870(3) -0.0855(4)
H3 H 0.0189 1.0863 -0.1552
H4 H -0.0118 1.0460 -0.0653
O7 O 0.4657(5) 1.06909(19) 0.1595(3)
C2 C 0.3720(7) 0.7493(3) 0.2326(4)
H5 H 0.4322 0.7353 0.2941
O8 O 0.2281(5) 1.1012(3) 0.1424(3)
C3 C 0.4575(6) 0.9402(3) 0.2823(4)
H6 H 0.3580 0.9560 0.2535
C4 C 0.0573(7) 0.6656(4) 0.0314(5)
C5 C 0.5627(7) 1.0880(3) 0.4665(4)
H7 H 0.6331 1.0600 0.5129
C6 C 0.3613(6) 1.0898(3) 0.1954(4)
C7 C 0.3929(5) 0.8183(3) 0.1965(4)
O9 O 0.0246(8) 0.6107(3) 0.0719(5)
C8 C 0.5596(6) 0.9877(2) 0.3467(4)
C9 C 0.1760(6) 0.7194(3) 0.0853(4)
C10 C 0.3071(5) 0.8383(2) 0.1013(4)
C11 C 0.3463(6) 1.1690(3) 0.3322(4)
H8 H 0.2683 1.1947 0.2879
C12 C 0.5020(6) 0.8704(3) 0.2608(3)
N1 N 0.7473(5) 0.8930(3) 0.3695(4)
C13 C 0.5090(6) 1.0612(3) 0.3724(4)
C14 C 0.4025(6) 1.1052(3) 0.3034(4)
C15 C 0.5137(7) 1.1559(3) 0.4934(4)
H9 H 0.5552 1.1740 0.5562
C16 C 0.1983(6) 0.7884(3) 0.0466(4)
H10 H 0.1406 0.8014 -0.0159
C17 C 0.3219(6) 0.9121(3) 0.0572(4)
O10 O -0.0064(7) 0.6817(4) -0.0555(5)
H11 H -0.0696 0.6497 -0.0799
C18 C 0.4037(6) 1.1965(3) 0.4270(4)
C19 C 0.7055(6) 0.9617(3) 0.3882(4)
H12 H 0.7765 0.9924 0.4301
C20 C 0.2632(7) 0.7001(3) 0.1792(4)
H13 H 0.2483 0.6544 0.2057
C21 C 0.6500(6) 0.8483(3) 0.3087(4)
H14 H 0.6817 0.8007 0.2978
O1B O 0.5528(5) 1.0675(2) -0.0453(3)
O2C O 0.2752(5) 1.1881(2) -0.1152(3)
O3C O 0.4052(6) 1.2048(2) 0.0358(3)
Nd1B Nd 0.69077(3) 0.92384(2) 0.01166(2)
Nd1C Nd 0.30923(3) 1.42384(2) 0.48834(2)
O11 O 1.0086(12) 0.9249(9) 0.7693(10)
O12 O 0.903(2) 0.1131(17) 0.7213(11)
loop_
_geom_bond_atom_site_label_1
_geom_bond_atom_site_label_2
_geom_bond_site_symmetry_1
_geom_bond_site_symmetry_2
O1 Nd1 1_555 1_555
O2 C1 1_555 1_555
O3 C1 1_555 1_555
C1 C18 1_555 1_555
Nd1 O4 1_555 1_555
O4 H1 1_555 1_555
H2 O4 1_555 1_555
O5 Nd1 1_555 1_555
O6 Nd1 1_555 1_555
H3 O6 1_555 1_555
H4 O6 1_555 1_555
O7 Nd1 1_555 1_555
C2 H5 1_555 1_555
O8 Nd1 1_555 1_555
C3 H6 1_555 1_555
C4 O9 1_555 1_555
C5 H7 1_555 1_555
C6 O7 1_555 1_555
C7 C2 1_555 1_555
C8 C3 1_555 1_555
C9 C4 1_555 1_555
C10 C7 1_555 1_555
C11 H8 1_555 1_555
C12 C3 1_555 1_555
N1 C19 1_555 1_555
C13 C5 1_555 1_555
C14 C6 1_555 1_555
C15 C5 1_555 1_555
H9 C15 1_555 1_555
C16 C9 1_555 1_555
H10 C16 1_555 1_555
C17 O1 1_555 1_555
O10 C4 1_555 1_555
H11 O10 1_555 1_555
C18 C11 1_555 1_555
C19 C8 1_555 1_555
H12 C19 1_555 1_555
C20 C2 1_555 1_555
H13 C20 1_555 1_555
C21 C12 1_555 1_555
H14 C21 1_555 1_555
O1B Nd1 1_555 1_555
O2C Nd1 1_555 1_555
O3C Nd1 1_555 1_555
Nd1B O1 1_555 1_555
Nd1C O2 1_555 1_555
O3 Nd1C 1_555 1_555
O5 C17 1_555 1_555
O8 C6 1_555 1_555
C7 C12 1_555 1_555
C8 C13 1_555 1_555
C9 C20 1_555 1_555
C10 C16 1_555 1_555
C10 C17 1_555 1_555
C11 C14 1_555 1_555
N1 C21 1_555 1_555
C13 C14 1_555 1_555
C15 C18 1_555 1_555
O1B Nd1B 1_555 1_555

#END
