
#######################################################################
#
#                 Cambridge Crystallographic Data Centre
#                                CCDC 
#
#######################################################################
#
# If this CIF has been generated from an entry in the Cambridge 
# Structural Database, then it will include bibliographic, chemical, 
# crystal, experimental, refinement or atomic coordinate data resulting 
# from the CCDC's data processing and validation procedures.
#
#######################################################################

data_HUKDOI
_symmetry_cell_setting           monoclinic
_symmetry_space_group_name_H-M   'P 21/c'
_symmetry_Int_Tables_number      14
_space_group_name_Hall           '-P 2ybc'
loop_
_symmetry_equiv_pos_site_id
_symmetry_equiv_pos_as_xyz
1 x,y,z
2 -x,1/2+y,1/2-z
3 -x,-y,-z
4 x,1/2-y,1/2+z
_cell_length_a                   9.083(3)
_cell_length_b                   17.974(5)
_cell_length_c                   14.258(4)
_cell_angle_alpha                90
_cell_angle_beta                 106.256(4)
_cell_angle_gamma                90
_cell_volume                     2234.67
loop_
_atom_site_label
_atom_site_type_symbol
_atom_site_fract_x
_atom_site_fract_y
_atom_site_fract_z
Sm1 Sm 0.69098(3) -0.07598(2) 0.51133(2)
O1 O 0.7745(6) -0.1017(3) 0.3584(3)
O2 O 0.5353(6) -0.0690(2) 0.3423(4)
O3 O 0.7901(5) 0.0438(3) 0.4648(4)
O4 O 0.9771(12) 0.3891(4) 0.4268(6)
O5 O 1.0056(9) 0.3182(4) 0.5559(6)
H1 H 1.0694 0.3500 0.5808
O6 O 0.5480(6) 0.0685(3) 0.4521(5)
O7 O 0.7256(6) -0.3141(3) 0.1148(4)
O8 O 0.6024(8) -0.2962(3) -0.0350(4)
O9 O 0.9581(7) -0.0852(3) 0.5852(5)
H2 H 0.9764 -0.0970 0.6532
H3 H 1.0061 -0.0386 0.5789
O10 O 0.7322(5) -0.0046(3) 0.6603(4)
H4 H 0.6449 0.0268 0.6557
H5 H 0.8222 0.0256 0.6692
N1 N 0.2520(7) 0.1061(4) 0.1292(4)
C1 C 0.6420(8) -0.0900(4) 0.3075(5)
C2 C 0.4886(9) -0.1573(4) 0.0077(5)
H6 H 0.4475 -0.1755 -0.0552
C3 C 0.6563(7) -0.1702(3) 0.1695(4)
H7 H 0.7345 -0.1959 0.2138
C4 C 0.2945(8) 0.0379(4) 0.1113(5)
H8 H 0.2240 0.0072 0.0688
C5 C 0.6285(9) 0.2511(4) 0.2667(6)
H9 H 0.5691 0.2643 0.2045
C6 C 0.4988(7) 0.1286(3) 0.2390(4)
C7 C 0.5994(7) -0.1056(3) 0.1982(4)
C8 C 0.4399(9) -0.0891(4) 0.0352(5)
H10 H 0.3699 -0.0609 -0.0114
C9 C 0.8242(8) 0.2803(4) 0.4137(5)
C10 C 0.4926(8) -0.0622(3) 0.1293(5)
C11 C 0.5440(7) 0.0596(4) 0.2185(5)
H11 H 0.6441 0.0442 0.2475
C12 C 0.4422(7) 0.0115(3) 0.1546(4)
C13 C 0.6075(7) 0.1817(3) 0.3041(5)
C14 C 0.8029(7) 0.2109(4) 0.4517(6)
H12 H 0.8626 0.1975 0.5137
C15 C 0.7342(9) 0.3002(4) 0.3191(6)
H13 H 0.7471 0.3463 0.2929
C16 C 0.5986(8) -0.1974(3) 0.0754(5)
C17 C 0.6948(7) 0.1622(3) 0.3987(5)
C18 C 0.6757(7) 0.0880(3) 0.4398(5)
C19 C 0.3506(8) 0.1516(4) 0.1923(5)
H14 H 0.3186 0.1989 0.2046
C20 C 0.6467(8) -0.2733(3) 0.0501(6)
C21 C 0.9447(9) 0.3343(5) 0.4684(8)
Sm1B Sm 0.30902(3) 0.07598(2) 0.48867(2)
Sm1C Sm 0.69098(3) -0.42402(2) 0.01133(2)
O6B O 0.4520(6) -0.0685(3) 0.5479(5)
O7C O 0.7256(6) -0.1859(3) 0.6148(4)
O8C O 0.6024(8) -0.2038(3) 0.4650(4)
O11 O -0.0158(16) 0.4238(10) 0.2289(15)
O12 O 0.907(2) 0.1151(15) 0.2284(9)
loop_
_geom_bond_atom_site_label_1
_geom_bond_atom_site_label_2
_geom_bond_site_symmetry_1
_geom_bond_site_symmetry_2
Sm1 O1 1_555 1_555
O1 C1 1_555 1_555
O2 Sm1 1_555 1_555
O3 Sm1 1_555 1_555
O4 C21 1_555 1_555
O5 H1 1_555 1_555
O6 Sm1 1_555 1_555
O7 C20 1_555 1_555
O8 C20 1_555 1_555
O9 Sm1 1_555 1_555
H2 O9 1_555 1_555
H3 O9 1_555 1_555
O10 Sm1 1_555 1_555
H4 O10 1_555 1_555
H5 O10 1_555 1_555
N1 C4 1_555 1_555
C1 O2 1_555 1_555
C2 H6 1_555 1_555
C3 H7 1_555 1_555
C4 H8 1_555 1_555
C5 H9 1_555 1_555
C6 C11 1_555 1_555
C7 C1 1_555 1_555
C8 C2 1_555 1_555
H10 C8 1_555 1_555
C9 C14 1_555 1_555
C10 C7 1_555 1_555
C11 H11 1_555 1_555
C12 C4 1_555 1_555
C13 C5 1_555 1_555
C14 H12 1_555 1_555
C15 C5 1_555 1_555
H13 C15 1_555 1_555
C16 C2 1_555 1_555
C17 C13 1_555 1_555
C18 O3 1_555 1_555
C19 N1 1_555 1_555
H14 C19 1_555 1_555
C20 C16 1_555 1_555
C21 O5 1_555 1_555
Sm1B O6 1_555 1_555
Sm1C O7 1_555 1_555
O6B Sm1 1_555 1_555
O7C Sm1 1_555 1_555
O8C Sm1 1_555 1_555
O6 C18 1_555 1_555
O8 Sm1C 1_555 1_555
C3 C7 1_555 1_555
C3 C16 1_555 1_555
C6 C13 1_555 1_555
C6 C19 1_555 1_555
C8 C10 1_555 1_555
C9 C15 1_555 1_555
C9 C21 1_555 1_555
C10 C12 1_555 1_555
C11 C12 1_555 1_555
C14 C17 1_555 1_555
C17 C18 1_555 1_555
Sm1B O6B 1_555 1_555

#END
