
#######################################################################
#
#                 Cambridge Crystallographic Data Centre
#                                CCDC 
#
#######################################################################
#
# If this CIF has been generated from an entry in the Cambridge 
# Structural Database, then it will include bibliographic, chemical, 
# crystal, experimental, refinement or atomic coordinate data resulting 
# from the CCDC's data processing and validation procedures.
#
#######################################################################

data_HUKDOG
_symmetry_cell_setting           triclinic
_symmetry_space_group_name_H-M   'P -1'
_symmetry_Int_Tables_number      2
_space_group_name_Hall           '-P 1'
loop_
_symmetry_equiv_pos_site_id
_symmetry_equiv_pos_as_xyz
1 x,y,z
2 -x,-y,-z
_cell_length_a                   7.146(6)
_cell_length_b                   14.261(10)
_cell_length_c                   15.355(15)
_cell_angle_alpha                109.00(9)
_cell_angle_beta                 93.65(9)
_cell_angle_gamma                99.49(7)
_cell_volume                     1447.71
loop_
_atom_site_label
_atom_site_type_symbol
_atom_site_fract_x
_atom_site_fract_y
_atom_site_fract_z
Cu1 Cu 0.1561(2) 0.31851(10) 0.32281(9)
Cu2 Cu 0.03842(19) 0.06641(10) 0.24258(9)
Cu3 Cu 0.2872(2) 0.18462(10) 0.45249(9)
S1 S -0.2893(4) 0.1912(2) 0.3568(2)
O1 O 0.2236(10) 0.1881(5) 0.3254(5)
H1 H 0.3432 0.1848 0.2976
N1 N 0.2535(12) 0.3810(6) 0.4520(6)
N2 N 0.3011(12) 0.3298(7) 0.5078(6)
N3 N 0.3147(15) 0.4896(8) 0.5969(7)
N4 N 0.1027(13) -0.0135(7) 0.3181(6)
N5 N 0.1964(13) 0.0410(7) 0.4059(6)
N6 N 0.1134(15) -0.1191(7) 0.3986(8)
N7 N -0.0193(12) 0.1460(7) 0.1696(6)
N8 N 0.0296(13) 0.2492(7) 0.1970(6)
N9 N -0.1567(15) 0.1962(8) 0.0602(7)
N10 N 0.2214(14) 0.5496(7) 0.4749(7)
H2 H 0.2324 0.6089 0.5155
N11 N 0.2780(14) 0.0033(8) 0.5412(7)
H3 H 0.2816 -0.0444 0.5637
N12 N -0.2129(13) 0.0186(7) 0.0375(6)
H4 H -0.2707 0.0055 -0.0172
C1 C 0.146(2) 0.6329(9) 0.3691(10)
H5 H 0.1708 0.6886 0.4267
H6 H 0.0179 0.6257 0.3409
H7 H 0.2351 0.6453 0.3281
C2 C 0.1661(16) 0.5388(9) 0.3868(9)
C3 C 0.2626(16) 0.4746(8) 0.5070(8)
C4 C 0.3352(16) 0.3976(9) 0.5923(8)
H8 H 0.3709 0.3820 0.6444
C5 C 0.4338(19) 0.1111(11) 0.6938(8)
H9 H 0.4179 0.0465 0.7020
H10 H 0.3688 0.1547 0.7379
H11 H 0.5675 0.1408 0.7033
C6 C 0.3516(16) 0.0977(10) 0.5975(9)
C7 C 0.1969(15) -0.0245(9) 0.4505(8)
C8 C 0.0590(16) -0.1072(8) 0.3184(9)
H12 H -0.0047 -0.1609 0.2668
C9 C -0.3151(19) -0.1600(9) 0.0003(9)
H13 H -0.3708 -0.1513 -0.0544
H14 H -0.4143 -0.1871 0.0298
H15 H -0.2284 -0.2059 -0.0166
C10 C -0.2063(16) -0.0578(9) 0.0674(8)
C11 C -0.1316(16) 0.1201(8) 0.0892(7)
C12 C -0.0563(18) 0.2748(10) 0.1321(9)
H16 H -0.0483 0.3417 0.1356
O2 O 0.1409(12) 0.4570(6) 0.3221(5)
O3 O 0.3600(11) 0.1732(6) 0.5736(5)
O4 O -0.1247(12) -0.0533(6) 0.1427(6)
O5 O -0.1613(12) 0.2859(7) 0.3726(6)
O6 O -0.3971(13) 0.1933(7) 0.4287(6)
O7 O -0.4265(12) 0.1720(7) 0.2666(6)
O8 O -0.1864(13) 0.1092(7) 0.3367(7)
O6_2 O 0.6029(13) 0.1933(7) 0.4287(6)
Cu3_2 Cu -0.7128(2) 0.18462(10) 0.45249(9)
O9 O 0.3716(15) 0.0117(8) 0.1474(6)
H17 H 0.3481 -0.0354 0.1808
H18 H 0.4302 0.0808 0.1846
O10 O 0.5078(15) 0.6538(8) 0.7503(8)
H19 H 0.4219 0.6222 0.7837
H20 H 0.6056 0.6180 0.7231
O11 O 0.2501(18) 0.7867(9) 0.1111(8)
H21 H 0.3860 0.8026 0.1221
H22 H 0.2066 0.8439 0.1494
O12 O 0.500(4) 0.3584(17) 0.906(3)
H23 H 0.5467 0.3918 0.8619
H24 H 0.6035 0.3193 0.9075
O13 O 0.110(4) 0.353(2) 0.8617(16)
H25 H 0.1356 0.3513 0.9233
H26 H 0.0014 0.3873 0.8671
O14 O 0.425(4) 0.433(2) 0.116(2)
H27 H 0.3591 0.4782 0.1587
H28 H 0.5587 0.4584 0.1142
O15 O 0.076(5) 0.499(4) 0.079(3)
H29 H 0.0162 0.5049 0.1347
H30 H 0.2132 0.5218 0.0869
loop_
_geom_bond_atom_site_label_1
_geom_bond_atom_site_label_2
_geom_bond_site_symmetry_1
_geom_bond_site_symmetry_2
Cu1 O1 1_555 1_555
Cu2 O1 1_555 1_555
Cu3 O1 1_555 1_555
S1 O5 1_555 1_555
O1 H1 1_555 1_555
N1 Cu1 1_555 1_555
N2 Cu3 1_555 1_555
N3 C3 1_555 1_555
N4 Cu2 1_555 1_555
N5 Cu3 1_555 1_555
N6 C7 1_555 1_555
N7 Cu2 1_555 1_555
N8 Cu1 1_555 1_555
N9 C11 1_555 1_555
N10 H2 1_555 1_555
N11 H3 1_555 1_555
N12 H4 1_555 1_555
C1 H5 1_555 1_555
H6 C1 1_555 1_555
H7 C1 1_555 1_555
C2 N10 1_555 1_555
C3 N1 1_555 1_555
C4 N2 1_555 1_555
H8 C4 1_555 1_555
C5 H9 1_555 1_555
H10 C5 1_555 1_555
H11 C5 1_555 1_555
C6 N11 1_555 1_555
C7 N5 1_555 1_555
C8 N4 1_555 1_555
H12 C8 1_555 1_555
C9 H13 1_555 1_555
H14 C9 1_555 1_555
H15 C9 1_555 1_555
C10 N12 1_555 1_555
C11 N7 1_555 1_555
C12 N8 1_555 1_555
H16 C12 1_555 1_555
O2 Cu1 1_555 1_555
O3 Cu3 1_555 1_555
O4 Cu2 1_555 1_555
O5 Cu1 1_555 1_555
O6 S1 1_555 1_555
O7 S1 1_555 1_555
O8 Cu2 1_555 1_555
O9 H17 1_555 1_555
H18 O9 1_555 1_555
O10 H19 1_555 1_555
H20 O10 1_555 1_555
O11 H21 1_555 1_555
H22 O11 1_555 1_555
O12 H23 1_555 1_555
H24 O12 1_555 1_555
O13 H25 1_555 1_555
H26 O13 1_555 1_555
O14 H27 1_555 1_555
H28 O14 1_555 1_555
O15 H29 1_555 1_555
H30 O15 1_555 1_555
O6_2 Cu3 1_555 1_555
Cu3_2 O6 1_555 1_555
S1 O8 1_555 1_555
N1 N2 1_555 1_555
N3 C4 1_555 1_555
N4 N5 1_555 1_555
N6 C8 1_555 1_555
N7 N8 1_555 1_555
N9 C12 1_555 1_555
N10 C3 1_555 1_555
N11 C7 1_555 1_555
N12 C11 1_555 1_555
C1 C2 1_555 1_555
C2 O2 1_555 1_555
C5 C6 1_555 1_555
C6 O3 1_555 1_555
C9 C10 1_555 1_555
C10 O4 1_555 1_555

#END
