
#######################################################################
#
#                 Cambridge Crystallographic Data Centre
#                                CCDC 
#
#######################################################################
#
# If this CIF has been generated from an entry in the Cambridge 
# Structural Database, then it will include bibliographic, chemical, 
# crystal, experimental, refinement or atomic coordinate data resulting 
# from the CCDC's data processing and validation procedures.
#
#######################################################################

data_HUKFEA
_symmetry_cell_setting           monoclinic
_symmetry_space_group_name_H-M   'P 2/c'
_symmetry_Int_Tables_number      13
_space_group_name_Hall           '-P 2yc'
loop_
_symmetry_equiv_pos_site_id
_symmetry_equiv_pos_as_xyz
1 x,y,z
2 -x,y,1/2-z
3 -x,-y,-z
4 x,-y,1/2+z
_cell_length_a                   16.1866(4)
_cell_length_b                   10.4245(3)
_cell_length_c                   30.8202(8)
_cell_angle_alpha                90
_cell_angle_beta                 103.526(3)
_cell_angle_gamma                90
_cell_volume                     5056.27
loop_
_atom_site_label
_atom_site_type_symbol
_atom_site_fract_x
_atom_site_fract_y
_atom_site_fract_z
O9 O 0.9612(7) 0.7390(10) 0.5517(4)
H42 H 0.9761 0.6610 0.5562
H43 H 0.9264 0.7581 0.5675
Cd1 Cd 0.100916(17) 0.43564(3) 0.667511(9)
Cd2 Cd 0.366827(17) 0.51287(3) 0.717917(9)
O1 O 0.30796(18) 1.3640(3) 1.15966(9)
O2 O 0.49967(18) 0.5291(3) 0.80127(10)
O3 O 0.19390(19) 1.4855(3) 1.13064(10)
O4 O 0.23625(17) 0.5279(3) 0.74266(10)
O5 O -0.00719(19) 0.5095(3) 0.60650(11)
O6 O 0.41167(17) 0.6781(3) 0.76468(9)
O7 O 0.09912(17) 0.5777(3) 0.72027(10)
O8 O -0.04850(19) 0.3889(3) 0.65625(11)
N1 N 0.1154(2) 0.2577(3) 0.71667(12)
N2 N 0.3594(2) 0.3232(3) 0.75789(13)
N3 N 0.3591(2) 0.3327(3) 0.66988(13)
N4 N -0.4368(3) 0.5633(4) 0.48525(14)
N5 N 0.1180(2) 0.2476(3) 0.62869(13)
N6 N 0.2440(4) 0.8987(7) 0.9407(2)
N7 N 0.4561(5) 1.0510(8) 0.9592(3)
C1 C 0.4903(2) 0.8613(4) 0.91869(13)
C2 C 0.2509(2) 0.7123(4) 0.81281(14)
H1 H 0.3006 0.6942 0.8037
C3 C 0.1123(4) 0.0157(5) 0.5834(2)
H2 H 0.1102 -0.0615 0.5680
C4 C 0.2538(3) 0.7891(4) 0.84955(14)
H3 H 0.3056 0.8221 0.8652
C5 C 0.4827(3) 0.9207(4) 0.87760(14)
H4 H 0.4825 1.0098 0.8762
C6 C 0.1155(4) 0.1287(6) 0.5619(2)
H5 H 0.1158 0.1298 0.5318
C7 C 0.3295(3) -0.0166(5) 0.6845(2)
H6 H 0.3242 -0.0922 0.6680
C8 C 0.4929(3) 0.7280(4) 0.91957(14)
H7 H 0.4981 0.6854 0.9466
C9 C 0.2051(3) 1.1703(4) 1.00882(14)
C10 C -0.2203(3) 0.4366(6) 0.61521(17)
H8 H -0.2079 0.4132 0.6452
C11 C 0.1006(2) 0.6861(4) 0.80394(13)
H9 H 0.0492 0.6509 0.7888
C12 C 0.1123(3) 0.2640(4) 0.75923(14)
H10 H 0.1126 0.3442 0.7725
C13 C 0.1120(3) 0.0158(4) 0.6293(2)
C14 C 0.1938(3) 1.0832(5) 0.96951(15)
C15 C 0.1421(3) 1.2524(4) 1.01617(15)
H11 H 0.0907 1.2576 0.9951
C16 C -0.4793(3) 0.4235(4) 0.53650(15)
H12 H -0.4652 0.3709 0.5615
C17 C 0.3359(3) 0.0929(4) 0.75417(19)
C18 C -0.0636(3) 0.4525(4) 0.62084(15)
C19 C 0.5391(6) 0.8856(9) 1.0013(3)
H13 H 0.5665 0.8069 1.0019
C20 C 0.4635(2) 0.6364(4) 0.79892(13)
C21 C 0.1085(3) 0.1538(5) 0.78516(16)
H14 H 0.1065 0.1612 0.8150
C22 C 0.1547(3) 1.3269(4) 1.05452(14)
H15 H 0.1121 1.3822 1.0587
C23 C 0.3416(3) 0.2073(5) 0.82200(18)
H16 H 0.3393 0.2087 0.8519
C24 C 0.3399(4) 0.1127(5) 0.6182(2)
H17 H 0.3333 0.0397 0.6004
C25 C 0.3312(3) 0.0947(5) 0.7986(2)
H18 H 0.3208 0.0191 0.8125
C26 C 0.3500(4) 0.2288(6) 0.6003(2)
H19 H 0.3504 0.2353 0.5703
C27 C 0.3559(3) 0.3205(5) 0.80049(16)
H20 H 0.3631 0.3968 0.8166
C28 C 0.1184(4) 0.2437(5) 0.58573(18)
H21 H 0.1206 0.3207 0.5708
C29 C -0.1551(3) 0.4613(4) 0.59488(15)
C30 C 0.2819(3) 1.1657(4) 1.04049(15)
H22 H 0.3256 1.1138 1.0356
C31 C 0.1033(3) 0.7623(4) 0.84095(14)
H23 H 0.0540 0.7767 0.8508
C32 C -0.3254(3) 0.4764(4) 0.54700(15)
C33 C 0.1708(2) 0.5836(4) 0.74773(13)
C34 C 0.1080(3) 0.0365(5) 0.76578(18)
H24 H 0.1066 -0.0373 0.7826
C35 C 0.4880(3) 0.6578(4) 0.88117(14)
H25 H 0.4914 0.5688 0.8828
C36 C -0.3046(3) 0.4459(6) 0.59182(18)
H26 H -0.3477 0.4314 0.6066
C37 C -0.1760(3) 0.4973(6) 0.55058(18)
H27 H -0.1329 0.5170 0.5363
C38 C 0.4951(3) 0.9340(4) 0.96052(15)
C39 C 0.2940(3) 1.2377(4) 1.07936(14)
H28 H 0.3450 1.2316 1.1007
C40 C 0.1820(3) 0.9100(4) 0.90056(15)
C41 C -0.2596(3) 0.5047(6) 0.52696(19)
H29 H -0.2718 0.5291 0.4971
C42 C 0.1736(2) 0.6615(4) 0.78918(13)
C43 C 0.1797(3) 0.8179(4) 0.86367(14)
C44 C 0.4755(2) 0.8511(4) 0.83873(13)
H30 H 0.4688 0.8934 0.8116
C45 C 0.4783(2) 0.7173(4) 0.84023(14)
C46 C 0.1085(3) -0.0998(5) 0.6543(2)
H31 H 0.1069 -0.1790 0.6402
C47 C -0.4153(3) 0.4863(4) 0.52229(15)
C48 C 0.3597(3) 0.3392(5) 0.62719(18)
H32 H 0.3667 0.4184 0.6146
C49 C 0.3278(3) -0.0210(5) 0.7275(2)
H33 H 0.3211 -0.0997 0.7405
C50 C 0.2496(4) 0.9804(6) 0.9740(2)
H34 H 0.2907 0.9690 1.0004
C51 C 0.1075(3) -0.0942(4) 0.6975(2)
H35 H 0.1053 -0.1700 0.7131
C52 C 0.1098(3) 0.0260(4) 0.72019(17)
C53 C 0.1136(2) 0.1416(4) 0.69722(15)
C54 C 0.3394(3) 0.1020(5) 0.6634(2)
C55 C 0.1150(3) 0.1360(4) 0.65059(16)
C56 C 0.3488(2) 0.2125(4) 0.73452(16)
C57 C 0.1197(5) 0.9993(7) 0.8994(3)
H36 H 0.0727 1.0015 0.8754
C58 C 0.3496(3) 0.2167(4) 0.68800(16)
C59 C 0.1267(5) 1.0864(8) 0.9340(2)
H37 H 0.0846 1.1479 0.9328
C60 C 0.2305(3) 1.3189(4) 1.08660(13)
C61 C 0.2443(2) 1.3955(4) 1.12917(13)
O2B O 0.50033(18) 1.4709(3) 1.19873(10)
O6B O 0.58833(17) 1.3219(3) 1.23532(9)
N7B N 0.5439(5) 0.9490(8) 1.0408(3)
C1B C 0.5097(2) 1.1387(4) 1.08131(13)
C5B C 0.5173(3) 1.0793(4) 1.12240(14)
H4B H 0.5175 0.9902 1.1238
C8B C 0.5071(3) 1.2720(4) 1.08043(14)
H7B H 0.5019 1.3146 1.0534
C19B C 0.4609(6) 1.1144(9) 0.9987(3)
H13B H 0.4335 1.1931 0.9981
C20B C 0.5365(2) 1.3636(4) 1.20108(13)
C35B C 0.5120(3) 1.3422(4) 1.11883(14)
H25B H 0.5086 1.4312 1.1172
C38B C 0.5049(3) 1.0660(4) 1.03948(15)
C44B C 0.5245(2) 1.1489(4) 1.16127(13)
H30B H 0.5312 1.1066 1.1884
C45B C 0.5217(2) 1.2827(4) 1.15977(14)
O5B O -0.99281(19) 0.4905(3) 0.39350(11)
O8B O -0.95150(19) 0.6111(3) 0.34375(11)
N4B N -0.5632(3) 0.4367(4) 0.51475(14)
C10B C -0.7797(3) 0.5634(6) 0.38479(17)
H8B H -0.7921 0.5868 0.3548
C16B C -0.5207(3) 0.5765(4) 0.46350(15)
H12B H -0.5348 0.6291 0.4385
C18B C -0.9364(3) 0.5475(4) 0.37916(15)
C29B C -0.8449(3) 0.5387(4) 0.40512(15)
C32B C -0.6746(3) 0.5236(4) 0.45300(15)
C36B C -0.6954(3) 0.5541(6) 0.40818(18)
H26B H -0.6523 0.5686 0.3934
C37B C -0.8240(3) 0.5027(6) 0.44942(18)
H27B H -0.8671 0.4830 0.4637
C41B C -0.7404(3) 0.4953(6) 0.47304(19)
H29B H -0.7282 0.4709 0.5029
C47B C -0.5847(3) 0.5137(4) 0.47771(15)
Cd1A Cd 0.899084(17) 0.43564(3) 0.832489(9)
Cd2A Cd 0.633173(17) 0.51287(3) 0.782083(9)
O1A O 0.69204(18) 1.3640(3) 0.34034(9)
O3A O 0.80610(19) 1.4855(3) 0.36936(10)
O4A O 0.76375(17) 0.5279(3) 0.75734(10)
O7A O 0.90088(17) 0.5777(3) 0.77973(10)
N1A N 0.8846(2) 0.2577(3) 0.78333(12)
N2A N 0.6406(2) 0.3232(3) 0.74211(13)
N3A N 0.6409(2) 0.3327(3) 0.83012(13)
N5A N 0.8820(2) 0.2476(3) 0.87131(13)
N6A N 0.7560(4) 0.8987(7) 0.5593(2)
C2A C 0.7491(2) 0.7123(4) 0.68719(14)
H1A H 0.6994 0.6942 0.6963
C3A C 0.8877(4) 0.0157(5) 0.9166(2)
H2A H 0.8898 -0.0615 0.9320
C4A C 0.7462(3) 0.7891(4) 0.65045(14)
H3A H 0.6944 0.8221 0.6348
C6A C 0.8845(4) 0.1287(6) 0.9381(2)
H5A H 0.8842 0.1298 0.9682
C7A C 0.6705(3) -0.0166(5) 0.8155(2)
H6A H 0.6758 -0.0922 0.8320
C9A C 0.7949(3) 1.1703(4) 0.49118(14)
C11A C 0.8994(2) 0.6861(4) 0.69606(13)
H9A H 0.9508 0.6509 0.7112
C12A C 0.8877(3) 0.2640(4) 0.74077(14)
H10A H 0.8874 0.3442 0.7275
C13A C 0.8880(3) 0.0158(4) 0.8707(2)
C14A C 0.8062(3) 1.0832(5) 0.53049(15)
C15A C 0.8579(3) 1.2524(4) 0.48383(15)
H11A H 0.9093 1.2576 0.5049
C17A C 0.6641(3) 0.0929(4) 0.74583(19)
C21A C 0.8915(3) 0.1538(5) 0.71484(16)
H14A H 0.8935 0.1612 0.6850
C22A C 0.8453(3) 1.3269(4) 0.44548(14)
H15A H 0.8879 1.3822 0.4413
C23A C 0.6584(3) 0.2073(5) 0.67800(18)
H16A H 0.6607 0.2087 0.6481
C24A C 0.6601(4) 0.1127(5) 0.8818(2)
H17A H 0.6667 0.0397 0.8996
C25A C 0.6688(3) 0.0947(5) 0.7014(2)
H18A H 0.6792 0.0191 0.6875
C26A C 0.6500(4) 0.2288(6) 0.8997(2)
H19A H 0.6496 0.2353 0.9297
C27A C 0.6441(3) 0.3205(5) 0.69951(16)
H20A H 0.6369 0.3968 0.6834
C28A C 0.8816(4) 0.2437(5) 0.91427(18)
H21A H 0.8794 0.3207 0.9292
C30A C 0.7181(3) 1.1657(4) 0.45951(15)
H22A H 0.6744 1.1138 0.4644
C31A C 0.8967(3) 0.7623(4) 0.65905(14)
H23A H 0.9460 0.7767 0.6492
C33A C 0.8292(2) 0.5836(4) 0.75227(13)
C34A C 0.8920(3) 0.0365(5) 0.73422(18)
H24A H 0.8934 -0.0373 0.7174
C39A C 0.7060(3) 1.2377(4) 0.42064(14)
H28A H 0.6550 1.2316 0.3993
C40A C 0.8180(3) 0.9100(4) 0.59944(15)
C42A C 0.8264(2) 0.6615(4) 0.71082(13)
C43A C 0.8203(3) 0.8179(4) 0.63633(14)
C46A C 0.8915(3) -0.0998(5) 0.8457(2)
H31A H 0.8931 -0.1790 0.8598
C48A C 0.6403(3) 0.3392(5) 0.87281(18)
H32A H 0.6333 0.4184 0.8854
C49A C 0.6722(3) -0.0210(5) 0.7725(2)
H33A H 0.6789 -0.0997 0.7595
C50A C 0.7504(4) 0.9804(6) 0.5260(2)
H34A H 0.7093 0.9690 0.4996
C51A C 0.8925(3) -0.0942(4) 0.8025(2)
H35A H 0.8947 -0.1700 0.7869
C52A C 0.8902(3) 0.0260(4) 0.77981(17)
C53A C 0.8864(2) 0.1416(4) 0.80278(15)
C54A C 0.6606(3) 0.1020(5) 0.8366(2)
C55A C 0.8850(3) 0.1360(4) 0.84941(16)
C56A C 0.6512(2) 0.2125(4) 0.76548(16)
C57A C 0.8803(5) 0.9993(7) 0.6006(3)
H36A H 0.9273 1.0015 0.6246
C58A C 0.6504(3) 0.2167(4) 0.81200(16)
C59A C 0.8733(5) 1.0864(8) 0.5660(2)
H37A H 0.9154 1.1479 0.5672
C60A C 0.7695(3) 1.3189(4) 0.41340(13)
C61A C 0.7557(2) 1.3955(4) 0.37083(13)
Cd1B Cd -1.100916(17) 0.56436(3) 0.332489(9)
Cd1B_2 Cd 0.899084(17) 1.56436(3) 0.332489(9)
Cd1C Cd 0.100916(17) 1.56436(3) 1.167511(9)
Cd2B Cd 0.633173(17) 1.48713(3) 0.282083(9)
Cd2B_2 Cd 0.633173(17) 1.48713(3) 1.282083(9)
Cd2C Cd 0.366827(17) 1.48713(3) 1.217917(9)
O1B O 0.69204(18) 0.6360(3) 0.84034(9)
O1C O 0.30796(18) 0.6360(3) 0.65966(9)
O2A O 0.50033(18) 0.5291(3) 0.69873(10)
O3B O 0.80610(19) 0.5145(3) 0.86936(10)
O3C O 0.19390(19) 0.5145(3) 0.63064(10)
O5A O 1.00719(19) 0.5095(3) 0.89350(11)
O6A O 0.58833(17) 0.6781(3) 0.73532(9)
O8A O 1.04850(19) 0.3889(3) 0.84375(11)
N8? N 0.5331(6) 1.0521(9) 0.9659(3)
N9? N 0.1215(9) 0.9339(13) 0.9183(5)
C62? C 0.4618(6) 0.8846(10) 0.9950(3)
H38? H 0.4350 0.8051 0.9910
C63? C 0.2627(11) 1.0826(15) 0.9448(5)
H39? H 0.3082 1.1394 0.9521
C64? C 0.2566(10) 0.9968(14) 0.9118(5)
H40? H 0.2990 0.9918 0.8960
C65? C 0.1246(11) 1.0201(16) 0.9515(6)
H41? H 0.0759 1.0349 0.9618
loop_
_geom_bond_atom_site_label_1
_geom_bond_atom_site_label_2
_geom_bond_site_symmetry_1
_geom_bond_site_symmetry_2
Cd1 O5 1_555 1_555
Cd2 O4 1_555 1_555
O1 C61 1_555 1_555
O2 C20 1_555 1_555
O3 C61 1_555 1_555
O4 C33 1_555 1_555
O5 C18 1_555 1_555
O6 Cd2 1_555 1_555
O7 Cd1 1_555 1_555
O8 Cd1 1_555 1_555
N1 Cd1 1_555 1_555
N2 Cd2 1_555 1_555
N3 Cd2 1_555 1_555
N4 C47 1_555 1_555
N5 Cd1 1_555 1_555
N6 C40 1_555 1_555
N7 C38 1_555 1_555
C1 C5 1_555 1_555
C2 H1 1_555 1_555
C3 H2 1_555 1_555
C4 C2 1_555 1_555
H3 C4 1_555 1_555
C5 H4 1_555 1_555
C6 C3 1_555 1_555
H5 C6 1_555 1_555
C7 H6 1_555 1_555
C8 C1 1_555 1_555
H7 C8 1_555 1_555
C9 C14 1_555 1_555
C10 H8 1_555 1_555
C11 H9 1_555 1_555
C12 N1 1_555 1_555
H10 C12 1_555 1_555
C13 C3 1_555 1_555
C14 C50 1_555 1_555
C15 C9 1_555 1_555
H11 C15 1_555 1_555
C16 H12 1_555 1_555
C17 C25 1_555 1_555
C18 O8 1_555 1_555
C19 H13 1_555 1_555
C20 O6 1_555 1_555
C21 C12 1_555 1_555
H14 C21 1_555 1_555
C22 C15 1_555 1_555
H15 C22 1_555 1_555
C23 H16 1_555 1_555
C24 H17 1_555 1_555
C25 C23 1_555 1_555
H18 C25 1_555 1_555
C26 C24 1_555 1_555
H19 C26 1_555 1_555
C27 N2 1_555 1_555
H20 C27 1_555 1_555
C28 N5 1_555 1_555
H21 C28 1_555 1_555
C29 C10 1_555 1_555
C30 C9 1_555 1_555
H22 C30 1_555 1_555
C31 C11 1_555 1_555
H23 C31 1_555 1_555
C32 C36 1_555 1_555
C33 O7 1_555 1_555
C34 C21 1_555 1_555
H24 C34 1_555 1_555
C35 C8 1_555 1_555
H25 C35 1_555 1_555
C36 C10 1_555 1_555
H26 C36 1_555 1_555
C37 C29 1_555 1_555
H27 C37 1_555 1_555
C38 C1 1_555 1_555
C39 C30 1_555 1_555
H28 C39 1_555 1_555
C40 C43 1_555 1_555
C41 C32 1_555 1_555
H29 C41 1_555 1_555
C42 C2 1_555 1_555
C43 C4 1_555 1_555
C44 C5 1_555 1_555
H30 C44 1_555 1_555
C45 C20 1_555 1_555
C46 C13 1_555 1_555
H31 C46 1_555 1_555
C47 C16 1_555 1_555
C48 N3 1_555 1_555
H32 C48 1_555 1_555
C49 C7 1_555 1_555
H33 C49 1_555 1_555
C50 N6 1_555 1_555
H34 C50 1_555 1_555
C51 C46 1_555 1_555
H35 C51 1_555 1_555
C52 C34 1_555 1_555
C53 N1 1_555 1_555
C54 C7 1_555 1_555
C55 N5 1_555 1_555
C56 N2 1_555 1_555
C57 C40 1_555 1_555
H36 C57 1_555 1_555
C58 N3 1_555 1_555
C59 C14 1_555 1_555
H37 C59 1_555 1_555
C60 C22 1_555 1_555
C61 C60 1_555 1_555
O9 H42 1_555 1_555
H43 O9 1_555 1_555
O2B C20B 1_555 1_555
O6B C20B 1_555 1_555
N7B C19 1_555 1_555
C1B C5B 1_555 1_555
C5B H4B 1_555 1_555
C8B C1B 1_555 1_555
H7B C8B 1_555 1_555
C19B N7 1_555 1_555
H13B C19B 1_555 1_555
C20B C45B 1_555 1_555
C35B C8B 1_555 1_555
H25B C35B 1_555 1_555
C38B N7B 1_555 1_555
C44B C5B 1_555 1_555
H30B C44B 1_555 1_555
C45B C35B 1_555 1_555
O5B C18B 1_555 1_555
O8B C18B 1_555 1_555
N4B C16 1_555 1_555
C10B H8B 1_555 1_555
C16B N4 1_555 1_555
H12B C16B 1_555 1_555
C18B C29B 1_555 1_555
C29B C10B 1_555 1_555
C32B C36B 1_555 1_555
C36B C10B 1_555 1_555
H26B C36B 1_555 1_555
C37B C29B 1_555 1_555
H27B C37B 1_555 1_555
C41B C32B 1_555 1_555
H29B C41B 1_555 1_555
C47B N4B 1_555 1_555
Cd1A O7A 1_555 1_555
Cd2A O2 1_555 1_555
O1A C61A 1_555 1_555
O3A C61A 1_555 1_555
O4A Cd2A 1_555 1_555
O7A C33A 1_555 1_555
N1A Cd1A 1_555 1_555
N2A Cd2A 1_555 1_555
N3A Cd2A 1_555 1_555
N5A Cd1A 1_555 1_555
N6A C40A 1_555 1_555
C2A H1A 1_555 1_555
C3A H2A 1_555 1_555
C4A C2A 1_555 1_555
H3A C4A 1_555 1_555
C6A C3A 1_555 1_555
H5A C6A 1_555 1_555
C7A H6A 1_555 1_555
C9A C14A 1_555 1_555
C11A H9A 1_555 1_555
C12A N1A 1_555 1_555
H10A C12A 1_555 1_555
C13A C3A 1_555 1_555
C14A C50A 1_555 1_555
C15A C9A 1_555 1_555
H11A C15A 1_555 1_555
C17A C25A 1_555 1_555
C21A C12A 1_555 1_555
H14A C21A 1_555 1_555
C22A C15A 1_555 1_555
H15A C22A 1_555 1_555
C23A H16A 1_555 1_555
C24A H17A 1_555 1_555
C25A C23A 1_555 1_555
H18A C25A 1_555 1_555
C26A C24A 1_555 1_555
H19A C26A 1_555 1_555
C27A N2A 1_555 1_555
H20A C27A 1_555 1_555
C28A N5A 1_555 1_555
H21A C28A 1_555 1_555
C30A C9A 1_555 1_555
H22A C30A 1_555 1_555
C31A C11A 1_555 1_555
H23A C31A 1_555 1_555
C33A O4A 1_555 1_555
C34A C21A 1_555 1_555
H24A C34A 1_555 1_555
C39A C30A 1_555 1_555
H28A C39A 1_555 1_555
C40A C43A 1_555 1_555
C42A C2A 1_555 1_555
C43A C4A 1_555 1_555
C46A C13A 1_555 1_555
H31A C46A 1_555 1_555
C48A N3A 1_555 1_555
H32A C48A 1_555 1_555
C49A C7A 1_555 1_555
H33A C49A 1_555 1_555
C50A N6A 1_555 1_555
H34A C50A 1_555 1_555
C51A C46A 1_555 1_555
H35A C51A 1_555 1_555
C52A C34A 1_555 1_555
C53A N1A 1_555 1_555
C54A C7A 1_555 1_555
C55A N5A 1_555 1_555
C56A N2A 1_555 1_555
C57A C40A 1_555 1_555
H36A C57A 1_555 1_555
C58A N3A 1_555 1_555
C59A C14A 1_555 1_555
H37A C59A 1_555 1_555
C60A C22A 1_555 1_555
C61A C60A 1_555 1_555
Cd1B O5B 1_555 1_555
Cd1B_2 O3A 1_555 1_555
Cd1C O3 1_555 1_555
Cd2B O1A 1_555 1_555
Cd2B_2 O6B 1_555 1_555
Cd2C O1 1_555 1_555
O1B Cd2A 1_555 1_555
O1C Cd2 1_555 1_555
O2A Cd2 1_555 1_555
O3B Cd1A 1_555 1_555
O3C Cd1 1_555 1_555
O5A Cd1A 1_555 1_555
O6A Cd2A 1_555 1_555
O8A Cd1A 1_555 1_555
C6 C28 1_555 1_555
C11 C42 1_555 1_555
C13 C55 1_555 1_555
C17 C49 1_555 1_555
C17 C56 1_555 1_555
C18 C29 1_555 1_555
C19 C38 1_555 1_555
C23 C27 1_555 1_555
C24 C54 1_555 1_555
C26 C48 1_555 1_555
C31 C43 1_555 1_555
C32 C47 1_555 1_555
C33 C42 1_555 1_555
C35 C45 1_555 1_555
C37 C41 1_555 1_555
C39 C60 1_555 1_555
C44 C45 1_555 1_555
C51 C52 1_555 1_555
C52 C53 1_555 1_555
C53 C55 1_555 1_555
C54 C58 1_555 1_555
C56 C58 1_555 1_555
C57 C59 1_555 1_555
O2B Cd2C 1_555 1_555
C1B C38B 1_555 1_555
C19B C38B 1_555 1_555
C44B C45B 1_555 1_555
O8B Cd1B 1_555 1_555
C16B C47B 1_555 1_555
C32B C47B 1_555 1_555
C37B C41B 1_555 1_555
C6A C28A 1_555 1_555
C11A C42A 1_555 1_555
C13A C55A 1_555 1_555
C17A C49A 1_555 1_555
C17A C56A 1_555 1_555
C23A C27A 1_555 1_555
C24A C54A 1_555 1_555
C26A C48A 1_555 1_555
C31A C43A 1_555 1_555
C33A C42A 1_555 1_555
C39A C60A 1_555 1_555
C51A C52A 1_555 1_555
C52A C53A 1_555 1_555
C53A C55A 1_555 1_555
C54A C58A 1_555 1_555
C56A C58A 1_555 1_555
C57A C59A 1_555 1_555

#END
