
#######################################################################
#
#                 Cambridge Crystallographic Data Centre
#                                CCDC 
#
#######################################################################
#
# If this CIF has been generated from an entry in the Cambridge 
# Structural Database, then it will include bibliographic, chemical, 
# crystal, experimental, refinement or atomic coordinate data resulting 
# from the CCDC's data processing and validation procedures.
#
#######################################################################

data_HUKNOR
_symmetry_cell_setting           monoclinic
_symmetry_space_group_name_H-M   'C 2/c'
_symmetry_Int_Tables_number      15
_space_group_name_Hall           '-C 2yn'
loop_
_symmetry_equiv_pos_site_id
_symmetry_equiv_pos_as_xyz
1 x,y,z
2 -x,y,1/2-z
3 1/2+x,1/2+y,z
4 1/2-x,1/2+y,1/2-z
5 -x,-y,-z
6 x,-y,1/2+z
7 1/2-x,1/2-y,-z
8 1/2+x,1/2-y,1/2+z
_cell_length_a                   39.760(2)
_cell_length_b                   4.0060(2)
_cell_length_c                   12.4552(5)
_cell_angle_alpha                90
_cell_angle_beta                 104.069(4)
_cell_angle_gamma                90
_cell_volume                     1924.34
loop_
_atom_site_label
_atom_site_type_symbol
_atom_site_fract_x
_atom_site_fract_y
_atom_site_fract_z
N1 N 0.10333(9) 0.8276(9) 0.2560(2)
N2 N 0.06915(10) 0.5454(10) 0.0912(2)
N3 N 0.03914(10) 0.3826(11) 0.0738(3)
N4 N 0.02766(10) 0.3786(10) 0.1647(3)
N5 N 0.05041(9) 0.5465(9) 0.2441(2)
O1 O 0.14181(10) 1.0767(11) 0.4390(2)
C1 C 0.16410(13) 1.1716(13) 0.3788(3)
C2 C 0.19438(14) 1.3382(14) 0.4302(4)
H1 H 0.1991 1.3819 0.5057
C3 C 0.21735(14) 1.4384(14) 0.3710(4)
H2 H 0.2376 1.5481 0.4070
C4 C 0.21103(13) 1.3793(13) 0.2583(4)
H3 H 0.2268 1.4476 0.2185
C5 C 0.18096(13) 1.2176(13) 0.2065(3)
H4 H 0.1765 1.1790 0.1307
C6 C 0.15687(11) 1.1094(11) 0.2641(3)
C7 C 0.12661(11) 0.9265(12) 0.2078(3)
H5 H 0.1238 0.8779 0.1331
C8 C 0.07521(11) 0.6437(11) 0.1971(3)
K1 K 0.03786(3) 0.9504(3) -0.10438(7)
H6 H 0.1228(13) 0.964(14) 0.391(4)
N3_2 N 0.03914(10) 1.3826(11) 0.0738(3)
N4E N 0.02766(10) 0.6214(10) -0.3353(3)
N4D N -0.02766(10) 0.6214(10) -0.1647(3)
N5E N 0.05041(9) 0.4535(9) -0.2559(2)
N5E_2 N 0.05041(9) 1.4535(9) -0.2559(2)
K1_2 K 0.03786(3) -0.0496(3) -0.10438(7)
K1E K 0.03786(3) 0.0496(3) 0.39562(7)
K1D K -0.03786(3) 0.0496(3) 0.10438(7)
K1E_2 K 0.03786(3) 1.0496(3) 0.39562(7)
loop_
_geom_bond_atom_site_label_1
_geom_bond_atom_site_label_2
_geom_bond_site_symmetry_1
_geom_bond_site_symmetry_2
N1 C7 1_555 1_555
N2 N3 1_555 1_555
N3 N4 1_555 1_555
N4 N5 1_555 1_555
N5 C8 1_555 1_555
O1 C1 1_555 1_555
C1 C2 1_555 1_555
C2 H1 1_555 1_555
C3 C2 1_555 1_555
H2 C3 1_555 1_555
C4 C3 1_555 1_555
H3 C4 1_555 1_555
C5 C4 1_555 1_555
H4 C5 1_555 1_555
C6 C1 1_555 1_555
C7 C6 1_555 1_555
H5 C7 1_555 1_555
C8 N1 1_555 1_555
K1 N2 1_555 1_555
H6 O1 1_555 1_555
N3_2 K1 1_555 1_555
N4E K1 1_555 1_555
N4D K1 1_555 1_555
N5E K1 1_555 1_555
N5E_2 K1 1_555 1_555
K1_2 N3 1_555 1_555
K1E N4 1_555 1_555
K1D N4 1_555 1_555
K1E_2 N5 1_555 1_555
N2 C8 1_555 1_555
N5 K1E 1_555 1_555
C5 C6 1_555 1_555
N4E N5E 1_555 1_555
N5E K1_2 1_555 1_555

#END
