
#######################################################################
#
#                 Cambridge Crystallographic Data Centre
#                                CCDC 
#
#######################################################################
#
# If this CIF has been generated from an entry in the Cambridge 
# Structural Database, then it will include bibliographic, chemical, 
# crystal, experimental, refinement or atomic coordinate data resulting 
# from the CCDC's data processing and validation procedures.
#
#######################################################################

data_HUKQUZ
_symmetry_cell_setting           rhombohedral
_symmetry_space_group_name_H-M   'R -3'
_symmetry_Int_Tables_number      148
_space_group_name_Hall           '-R 3'
loop_
_symmetry_equiv_pos_site_id
_symmetry_equiv_pos_as_xyz
1 x,y,z
2 -y,x-y,z
3 -x+y,-x,z
4 2/3+x,1/3+y,1/3+z
5 2/3-y,1/3+x-y,1/3+z
6 2/3-x+y,1/3-x,1/3+z
7 1/3+x,2/3+y,2/3+z
8 1/3-y,2/3+x-y,2/3+z
9 1/3-x+y,2/3-x,2/3+z
10 -x,-y,-z
11 y,-x+y,-z
12 x-y,x,-z
13 1/3-x,2/3-y,2/3-z
14 1/3+y,2/3-x+y,2/3-z
15 1/3+x-y,2/3+x,2/3-z
16 2/3-x,1/3-y,1/3-z
17 2/3+y,1/3-x+y,1/3-z
18 2/3+x-y,1/3+x,1/3-z
_cell_length_a                   20.783(7)
_cell_length_b                   20.783(7)
_cell_length_c                   59.34(3)
_cell_angle_alpha                90
_cell_angle_beta                 90
_cell_angle_gamma                120
_cell_volume                     22197
loop_
_atom_site_label
_atom_site_type_symbol
_atom_site_fract_x
_atom_site_fract_y
_atom_site_fract_z
Cd1 Cd 0.0000 0.0000 0.0000
Cd2 Cd 0.3333 0.6667 0.1667
N1 N 0.0103(5) 0.0963(5) 0.02248(14)
N2 N 0.0500(5) 0.2086(5) 0.03665(15)
N3 N 0.2465(5) 0.4432(5) 0.13449(14)
N4 N 0.2983(5) 0.5612(5) 0.14476(14)
C1 C 0.0606(7) 0.1681(6) 0.02115(19)
H1 H 0.0997 0.1884 0.0104
C2 C -0.0329(7) 0.0923(7) 0.0400(2)
H2 H -0.0739 0.0477 0.0455
C3 C -0.0100(7) 0.1599(7) 0.0486(2)
H3 H -0.0320 0.1715 0.0608
C4 C 0.0933(7) 0.2873(6) 0.0399(2)
H4 H 0.0634 0.3102 0.0354
H5 H 0.1376 0.3077 0.0301
C5 C 0.1182(7) 0.3079(6) 0.06415(19)
C6 C 0.1606(7) 0.2815(7) 0.0741(2)
H6 H 0.1735 0.2507 0.0657
C7 C 0.1010(7) 0.3521(6) 0.0768(2)
H7 H 0.0724 0.3712 0.0702
C8 C 0.1842(6) 0.2994(6) 0.0958(2)
H8 H 0.2139 0.2813 0.1023
C9 C 0.1236(6) 0.3699(6) 0.09888(18)
H9 H 0.1103 0.4004 0.1073
C10 C 0.1658(6) 0.3429(5) 0.10849(18)
C11 C 0.1912(6) 0.3642(6) 0.13245(18)
H10 H 0.1478 0.3528 0.1420
H11 H 0.2129 0.3342 0.1379
C12 C 0.2413(6) 0.4941(6) 0.14779(18)
H12 H 0.2016 0.4825 0.1579
C13 C 0.3125(5) 0.4806(6) 0.12318(18)
H13 H 0.3326 0.4607 0.1127
C14 C 0.3429(6) 0.5518(6) 0.1300(2)
H14 H 0.3899 0.5906 0.1251
N1A N -0.0963(5) -0.0860(7) 0.02248(14)
N1B N 0.0860(7) -0.0103(5) 0.02248(14)
N1I N -0.0103(5) -0.0963(5) -0.02248(14)
N1J N 0.0963(5) 0.0860(7) -0.02248(14)
N1K N -0.0860(7) 0.0103(5) -0.02248(14)
N4A N 0.4388(5) 0.7371(7) 0.14476(14)
N4B N 0.2629(7) 0.7017(5) 0.14476(14)
N4P N 0.2279(5) 0.5962(7) 0.18857(14)
N4Q N 0.4038(7) 0.6316(5) 0.18857(14)
N4O N 0.3684(5) 0.7721(5) 0.18857(14)
C1A C -0.1681(6) -0.1075(9) 0.02115(19)
C2A C -0.0923(7) -0.1252(10) 0.0400(2)
C1B C 0.1075(9) -0.0606(7) 0.02115(19)
C2B C 0.1252(10) 0.0329(7) 0.0400(2)
C12A C 0.5059(6) 0.7472(8) 0.14779(18)
C14A C 0.4482(6) 0.7911(8) 0.1300(2)
C12B C 0.2528(8) 0.7587(6) 0.14779(18)
C14B C 0.2089(8) 0.6571(6) 0.1300(2)
C12P C 0.1608(6) 0.5861(8) 0.18554(18)
C14P C 0.2185(6) 0.5422(8) 0.2033(2)
N2A N -0.2086(5) -0.1586(7) 0.03665(15)
H1A H -0.1884 -0.0887 0.0104
H2A H -0.0477 -0.1216 0.0455
C3A C -0.1599(7) -0.1699(10) 0.0486(2)
N2B N 0.1586(7) -0.0500(5) 0.03665(15)
H1B H 0.0887 -0.0997 0.0104
H2B H 0.1216 0.0739 0.0455
C3B C 0.1699(10) 0.0100(7) 0.0486(2)
N3A N 0.5568(5) 0.8033(7) 0.13449(14)
H12A H 0.5175 0.7191 0.1579
C13A C 0.5194(6) 0.8319(8) 0.12318(18)
H14A H 0.4094 0.7993 0.1251
N3B N 0.1967(7) 0.7535(5) 0.13449(14)
H12B H 0.2809 0.7984 0.1579
C13B C 0.1681(8) 0.6875(5) 0.12318(18)
H14B H 0.2007 0.6101 0.1251
N3P N 0.1099(5) 0.5300(7) 0.19884(14)
H12P H 0.1492 0.6142 0.1754
C13P C 0.1473(6) 0.5014(8) 0.21015(18)
H14P H 0.2573 0.5340 0.2082
C4A C -0.2873(6) -0.1940(9) 0.0399(2)
H3A H -0.1715 -0.2035 0.0608
C4B C 0.1940(9) -0.0933(7) 0.0399(2)
H3B H 0.2035 0.0320 0.0608
C11A C 0.6358(6) 0.8270(8) 0.13245(18)
H13A H 0.5393 0.8719 0.1127
C11B C 0.1730(8) 0.8088(6) 0.13245(18)
H13B H 0.1281 0.6674 0.1127
C11P C 0.0309(6) 0.5063(8) 0.20088(18)
H13P H 0.1274 0.4614 0.2206
H4A H -0.3102 -0.2468 0.0354
H5A H -0.3077 -0.1701 0.0301
C5A C -0.3079(6) -0.1897(9) 0.06415(19)
H4B H 0.2468 -0.0634 0.0354
H5B H 0.1701 -0.1376 0.0301
C5B C 0.1897(9) -0.1182(7) 0.06415(19)
C10A C 0.6571(5) 0.8229(8) 0.10849(18)
H10A H 0.6472 0.7950 0.1420
H11A H 0.6658 0.8787 0.1379
C10B C 0.1771(8) 0.8342(6) 0.10849(18)
H10B H 0.2050 0.8522 0.1420
H11B H 0.1213 0.7871 0.1379
C10P C 0.0096(5) 0.5104(8) 0.22484(18)
H10P H 0.0195 0.5383 0.1913
H11P H 0.0009 0.4546 0.1954
C6A C -0.2815(7) -0.1209(10) 0.0741(2)
C7A C -0.3521(6) -0.2511(9) 0.0768(2)
C6B C 0.1209(10) -0.1606(7) 0.0741(2)
C7B C 0.2511(9) -0.1010(7) 0.0768(2)
C8A C 0.7006(6) 0.8848(8) 0.0958(2)
C9A C 0.6301(6) 0.7537(8) 0.09888(18)
C8B C 0.1152(8) 0.8158(6) 0.0958(2)
C9B C 0.2463(8) 0.8764(6) 0.09888(18)
C8P C -0.0339(6) 0.4485(8) 0.2375(2)
C9P C 0.0366(6) 0.5796(8) 0.23445(18)
H6A H -0.2507 -0.0772 0.0657
C8A_2 C -0.2994(6) -0.1152(8) 0.0958(2)
H7A H -0.3712 -0.2988 0.0702
C9A_2 C -0.3699(6) -0.2463(8) 0.09888(18)
H6B H 0.0772 -0.1735 0.0657
C8B_2 C 0.1152(8) -0.1842(6) 0.0958(2)
H7B H 0.2988 -0.0724 0.0702
C9B_2 C 0.2463(8) -0.1236(6) 0.09888(18)
C6A_2 C 0.7185(7) 0.8791(10) 0.0741(2)
H8A H 0.7187 0.9326 0.1023
C7A_2 C 0.6479(6) 0.7489(9) 0.0768(2)
H9A H 0.5996 0.7099 0.1073
C6B_2 C 0.1209(10) 0.8394(7) 0.0741(2)
H8B H 0.0674 0.7861 0.1023
C7B_2 C 0.2511(9) 0.8990(7) 0.0768(2)
H9B H 0.2901 0.8897 0.1073
C6P C -0.0518(7) 0.4542(10) 0.2592(2)
H8P H -0.0520 0.4007 0.2310
C7P C 0.0188(6) 0.5844(9) 0.2565(2)
H9P H 0.0671 0.6234 0.2260
H8A_2 H -0.2813 -0.0674 0.1023
C10A_2 C -0.3429(5) -0.1771(8) 0.10849(18)
H9A_2 H -0.4004 -0.2901 0.1073
H8B_2 H 0.0674 -0.2139 0.1023
C10B_2 C 0.1771(8) -0.1658(6) 0.10849(18)
H9B_2 H 0.2901 -0.1103 0.1073
C5A_2 C 0.6921(6) 0.8103(9) 0.06415(19)
H6A_2 H 0.7493 0.9228 0.0657
H7A_2 H 0.6288 0.7012 0.0702
C5B_2 C 0.1897(9) 0.8818(7) 0.06415(19)
H6B_2 H 0.0772 0.8265 0.0657
H7B_2 H 0.2988 0.9276 0.0702
C5P C -0.0254(6) 0.5230(9) 0.26918(19)
H6P H -0.0826 0.4105 0.2676
H7P H 0.0379 0.6321 0.2631
C11A_2 C -0.3642(6) -0.1730(8) 0.13245(18)
C11B_2 C 0.1730(8) -0.1912(6) 0.13245(18)
C4A_2 C 0.7127(6) 0.8060(9) 0.0399(2)
C4B_2 C 0.1940(9) 0.9067(7) 0.0399(2)
C4P C -0.0460(6) 0.5273(9) 0.2934(2)
N3A_2 N -0.4432(5) -0.1967(7) 0.13449(14)
H10A_2 H -0.3528 -0.2050 0.1420
H11A_2 H -0.3342 -0.1213 0.1379
N3B_2 N 0.1967(7) -0.2465(5) 0.13449(14)
H10B_2 H 0.2050 -0.1478 0.1420
H11B_2 H 0.1213 -0.2129 0.1379
N2A_2 N 0.7914(5) 0.8414(7) 0.03665(15)
H4A_2 H 0.6898 0.7532 0.0354
H5A_2 H 0.6923 0.8299 0.0301
N2B_2 N 0.1586(7) 0.9500(5) 0.03665(15)
H4B_2 H 0.2468 0.9366 0.0354
H5B_2 H 0.1701 0.8624 0.0301
N2P N -0.1247(5) 0.4919(7) 0.29668(15)
H4P H -0.0231 0.5801 0.2979
H5P H -0.0256 0.5034 0.3032
C12A_2 C -0.4941(6) -0.2528(8) 0.14779(18)
C13A_2 C -0.4806(6) -0.1681(8) 0.12318(18)
C12B_2 C 0.2528(8) -0.2413(6) 0.14779(18)
C13B_2 C 0.1681(8) -0.3125(5) 0.12318(18)
C1A_2 C 0.8319(6) 0.8925(9) 0.02115(19)
C3A_2 C 0.8401(7) 0.8301(10) 0.0486(2)
C1B_2 C 0.1075(9) 0.9394(7) 0.02115(19)
C3B_2 C 0.1699(10) 1.0100(7) 0.0486(2)
C1P C -0.1652(6) 0.4408(9) 0.31218(19)
C3P C -0.1734(7) 0.5032(10) 0.2847(2)
N4A_2 N -0.5612(5) -0.2629(7) 0.14476(14)
H12A_2 H -0.4825 -0.2809 0.1579
H13A_2 H -0.4607 -0.1281 0.1127
C14A_2 C -0.5518(6) -0.2089(8) 0.1300(2)
N4B_2 N 0.2629(7) -0.2983(5) 0.14476(14)
H12B_2 H 0.2809 -0.2016 0.1579
H13B_2 H 0.1281 -0.3326 0.1127
C14B_2 C 0.2089(8) -0.3429(6) 0.1300(2)
N1A_2 N 0.9037(5) 0.9140(7) 0.02248(14)
H1A_2 H 0.8116 0.9113 0.0104
C2A_2 C 0.9077(7) 0.8748(10) 0.0400(2)
H3A_2 H 0.8285 0.7965 0.0608
N1B_2 N 0.0860(7) 0.9897(5) 0.02248(14)
H1B_2 H 0.0887 0.9003 0.0104
C2B_2 C 0.1252(10) 1.0329(7) 0.0400(2)
H3B_2 H 0.2035 1.0320 0.0608
N1P N -0.2370(5) 0.4193(7) 0.31085(14)
H1P H -0.1449 0.4220 0.3229
C2P C -0.2410(7) 0.4585(10) 0.2933(2)
H3P H -0.1618 0.5368 0.2725
Cd2_2 Cd -0.6667 -0.3333 0.1667
H14A_2 H -0.5906 -0.2007 0.1251
Cd2_3 Cd 0.3333 -0.3333 0.1667
H14B_2 H 0.2007 -0.3899 0.1251
Cd1_2 Cd 1.0000 1.0000 0.0000
H2A_2 H 0.9523 0.8784 0.0455
Cd1_3 Cd 0.0000 1.0000 0.0000
H2B_2 H 0.1216 1.0739 0.0455
Cd1C Cd -0.3333 0.3333 0.3333
H2P H -0.2856 0.4549 0.2878
Cd3 Cd 0.0000 0.0000 0.15655(2)
Cd4 Cd 0.3333 0.6667 0.32278(2)
N5 N 0.0682(5) 0.1050(5) 0.17923(14)
N6 N 0.1223(4) 0.2205(4) 0.19185(13)
N7 N 0.1572(6) 0.4677(6) 0.28628(17)
N8 N 0.2407(5) 0.5743(5) 0.30002(14)
C15 C 0.0746(5) 0.1703(6) 0.17674(17)
H15 H 0.0489 0.1815 0.1656
C16 C 0.1467(7) 0.1815(6) 0.2045(2)
H16 H 0.1815 0.2006 0.2166
C17 C 0.1122(6) 0.1115(7) 0.1968(2)
H17 H 0.1179 0.0722 0.2027
C18 C 0.1453(6) 0.2980(5) 0.19303(18)
H18 H 0.1152 0.3088 0.1824
H19 H 0.1980 0.3277 0.1884
C19 C 0.1365(6) 0.3212(6) 0.21669(19)
C20 C 0.0671(6) 0.3015(5) 0.22493(18)
H20 H 0.0243 0.2728 0.2159
C21 C 0.1988(7) 0.3645(7) 0.2293(2)
H21 H 0.2469 0.3803 0.2233
C22 C 0.0599(6) 0.3233(6) 0.24630(19)
H22 H 0.0118 0.3090 0.2519
C23 C 0.1901(7) 0.3847(8) 0.2511(2)
H23 H 0.2325 0.4125 0.2603
C24 C 0.1197(7) 0.3645(6) 0.2593(2)
C25 C 0.1127(8) 0.3883(7) 0.2826(2)
H24 H 0.0599 0.3725 0.2855
H25 H 0.1276 0.3625 0.2937
C26 C 0.1501(7) 0.5210(8) 0.2743(2)
H26 H 0.1167 0.5136 0.2624
C27 C 0.2116(7) 0.5030(7) 0.3013(2)
H27 H 0.2270 0.4787 0.3117
C28 C 0.2022(6) 0.5866(7) 0.28366(19)
H28 H 0.2104 0.6341 0.2794
N9 N -0.0711(4) -0.1067(5) 0.13498(15)
N10 N -0.1335(5) -0.2255(4) 0.12588(14)
N11 N -0.1692(7) -0.4641(7) 0.02669(19)
N12 N 0.4262(5) 0.7612(6) 0.34496(16)
C29 C -0.0757(6) -0.1724(6) 0.13743(18)
H29 H -0.0423 -0.1808 0.1462
C30 C -0.1304(6) -0.1198(6) 0.12120(19)
H30 H -0.1420 -0.0830 0.1164
C31 C -0.1696(6) -0.1929(6) 0.1156(2)
H31 H -0.2128 -0.2167 0.1064
C32 C -0.1533(6) -0.3047(6) 0.12372(19)
H32 H -0.1186 -0.3136 0.1328
H33 H -0.2042 -0.3372 0.1296
C33 C -0.1497(7) -0.3233(6) 0.0998(2)
C34 C -0.0985(7) -0.2769(7) 0.0846(2)
H34 H -0.0626 -0.2284 0.0894
C35 C -0.1966(8) -0.3951(8) 0.0923(2)
H35 H -0.2335 -0.4300 0.1022
C36 C -0.0961(6) -0.2967(6) 0.06258(19)
H36 H -0.0606 -0.2609 0.0525
C37 C -0.1911(9) -0.4173(8) 0.0709(2)
H37 H -0.2202 -0.4682 0.0667
C38 C -0.1428(8) -0.3655(7) 0.0551(2)
C39 C -0.1398(10) -0.3836(8) 0.0306(2)
H38 H -0.1691 -0.3671 0.0216
H39 H -0.0877 -0.3555 0.0253
C40 C 0.4417(8) 0.8296(8) 0.3456(2)
H40 H 0.4170 0.8492 0.3369
C41 C -0.1493(9) -0.5117(10) 0.0362(3)
H41 H -0.1121 -0.5003 0.0472
C42 C 0.4739(7) 0.7561(8) 0.3598(2)
H42 H 0.4756 0.7121 0.3629
N5A N -0.1050(5) -0.0368(7) 0.17923(14)
N5B N 0.0368(7) -0.0682(5) 0.17923(14)
N9A N 0.1067(5) 0.0356(6) 0.13498(15)
N9B N -0.0356(6) 0.0711(4) 0.13498(15)
N8A N 0.4257(5) 0.6664(7) 0.30002(14)
N8B N 0.3336(7) 0.7593(5) 0.30002(14)
N12A N 0.2388(6) 0.6650(8) 0.34496(16)
N12B N 0.3350(8) 0.5738(5) 0.34496(16)
C40F C -0.2250(8) -0.5037(8) 0.0123(2)
N11C N 0.4975(7) 0.8692(7) 0.36002(19)
C42F C -0.1928(7) -0.5772(8) 0.0265(2)
C41C C 0.5174(9) 0.8216(10) 0.3695(3)
C15A C -0.1703(6) -0.0957(8) 0.17674(17)
C17A C -0.1115(7) 0.0007(9) 0.1968(2)
C27A C 0.4970(7) 0.7086(10) 0.3013(2)
C28A C 0.4134(7) 0.6156(9) 0.28366(19)
C27B C 0.2914(10) 0.7884(7) 0.3013(2)
C28B C 0.3844(9) 0.7978(6) 0.28366(19)
N12F N -0.2405(5) -0.5721(6) 0.01163(16)
H40F H -0.2497 -0.4841 0.0036
C39C C 0.5269(10) 0.9497(8) 0.3639(2)
H42F H -0.1911 -0.6212 0.0296
H41C H 0.5546 0.8330 0.3805
N6A N -0.2205(4) -0.0982(6) 0.19185(13)
H15A H -0.1815 -0.1326 0.1656
C16A C -0.1815(6) -0.0348(9) 0.2045(2)
H17A H -0.0722 0.0457 0.2027
N7A N 0.5323(6) 0.6895(8) 0.28628(17)
H27A H 0.5213 0.7483 0.3117
C26A C 0.4790(8) 0.6291(11) 0.2743(2)
H28A H 0.3659 0.5763 0.2794
N7B N 0.3105(8) 0.8428(6) 0.28628(17)
H27B H 0.2517 0.7730 0.3117
C26B C 0.3709(11) 0.8499(7) 0.2743(2)
H28B H 0.4237 0.7896 0.2794
Cd4F Cd -0.3334 -0.6666 -0.01055(2)
C38C C 0.5239(8) 0.9678(7) 0.3884(2)
H38C H 0.4976 0.9662 0.3549
H39C H 0.5790 0.9778 0.3586
C18A C -0.2980(5) -0.1527(8) 0.19303(18)
H16A H -0.2006 -0.0191 0.2166
C25A C 0.6117(7) 0.7244(11) 0.2826(2)
H26A H 0.4864 0.6031 0.2624
C25B C 0.2756(11) 0.8873(8) 0.2826(2)
H26B H 0.3969 0.8833 0.2624
C36C C 0.5706(6) 1.0366(6) 0.39591(19)
C37C C 0.4756(9) 0.9160(8) 0.4042(2)
H18A H -0.3088 -0.1936 0.1824
H19A H -0.3277 -0.1297 0.1884
C19A C -0.3212(6) -0.1847(8) 0.21669(19)
C24A C 0.6355(6) 0.7552(9) 0.2593(2)
H24A H 0.6275 0.6874 0.2855
H25A H 0.6375 0.7651 0.2937
C24B C 0.2448(9) 0.8803(7) 0.2593(2)
H24B H 0.3126 0.9401 0.2855
H25B H 0.2349 0.8724 0.2937
C34C C 0.5682(7) 1.0564(7) 0.4179(2)
H36C H 0.6061 1.0724 0.3858
C35C C 0.4701(8) 0.9382(8) 0.4256(2)
H37C H 0.4465 0.8651 0.4000
C20A C -0.3015(5) -0.2344(8) 0.22493(18)
C21A C -0.3645(7) -0.1657(10) 0.2293(2)
C22A C 0.6767(6) 0.7366(8) 0.24630(19)
C23A C 0.6153(8) 0.8054(11) 0.2511(2)
C22B C 0.2634(8) 0.9401(6) 0.24630(19)
C23B C 0.1946(11) 0.8099(7) 0.2511(2)
C33C C 0.5170(7) 1.0100(6) 0.4331(2)
H34C H 0.6041 1.1049 0.4227
H35C H 0.4332 0.9033 0.4355
H20A H -0.2728 -0.2485 0.2159
C22A_2 C -0.3233(6) -0.2634(8) 0.24630(19)
H21A H -0.3803 -0.1334 0.2233
C23A_2 C -0.3847(8) -0.1946(11) 0.2511(2)
C20A_2 C 0.6985(5) 0.7656(8) 0.22493(18)
H22A H 0.6910 0.7028 0.2519
C21A_2 C 0.6355(7) 0.8343(10) 0.2293(2)
H23A H 0.5875 0.8200 0.2603
C20B C 0.2344(8) 0.9329(6) 0.22493(18)
H22B H 0.2972 0.9882 0.2519
C21B C 0.1657(10) 0.8012(7) 0.2293(2)
H23B H 0.1800 0.7675 0.2603
C32C C 0.5134(6) 1.0286(6) 0.45705(19)
H22A_2 H -0.3090 -0.2972 0.2519
C24A_2 C -0.3645(6) -0.2448(9) 0.2593(2)
H23A_2 H -0.4125 -0.1800 0.2603
C19A_2 C 0.6788(6) 0.8153(8) 0.21669(19)
H20A_2 H 0.7272 0.7515 0.2159
H21A_2 H 0.6197 0.8666 0.2233
C19B C 0.1847(8) 0.8635(6) 0.21669(19)
H20B H 0.2485 0.9757 0.2159
H21B H 0.1334 0.7531 0.2233
N10C N 0.5332(5) 1.1078(4) 0.45921(14)
H32C H 0.5481 1.0197 0.4661
H33C H 0.4625 0.9961 0.4629
C25A_2 C -0.3883(7) -0.2756(11) 0.2826(2)
C18A_2 C 0.7020(5) 0.8473(8) 0.19303(18)
C18B C 0.1527(8) 0.8547(6) 0.19303(18)
C29C C 0.5910(6) 1.1609(6) 0.47076(18)
C31C C 0.4971(6) 1.1404(6) 0.4489(2)
N7A_2 N -0.4677(6) -0.3105(8) 0.28628(17)
H24A_2 H -0.3725 -0.3126 0.2855
H25A_2 H -0.3625 -0.2349 0.2937
N6A_2 N 0.7795(4) 0.9018(6) 0.19185(13)
H18A_2 H 0.6912 0.8064 0.1824
H19A_2 H 0.6723 0.8703 0.1884
N6B N 0.0982(6) 0.8777(4) 0.19185(13)
H18B H 0.1936 0.8848 0.1824
H19B H 0.1297 0.8020 0.1884
N9C N 0.5956(4) 1.2266(5) 0.46831(15)
H29C H 0.6244 1.1525 0.4795
C30C C 0.5363(6) 1.2135(6) 0.45453(19)
H31C H 0.4539 1.1166 0.4397
C26A_2 C -0.5210(8) -0.3709(11) 0.2743(2)
C27A_2 C -0.5030(7) -0.2914(10) 0.3013(2)
C15A_2 C 0.8297(6) 0.9043(8) 0.17674(17)
C16A_2 C 0.8185(6) 0.9652(9) 0.2045(2)
C15B C 0.0957(8) 0.9254(5) 0.17674(17)
C16B C 0.0348(9) 0.8533(7) 0.2045(2)
Cd3C Cd 0.6667 1.3333 0.48988(2)
H30C H 0.5247 1.2503 0.4497
H26A_2 H -0.5136 -0.3969 0.2624
C28A_2 C -0.5866(7) -0.3844(9) 0.28366(19)
N8A_2 N -0.5743(5) -0.3336(7) 0.30002(14)
H27A_2 H -0.4787 -0.2517 0.3117
N5A_2 N 0.8950(5) 0.9632(7) 0.17923(14)
H15A_2 H 0.8185 0.8674 0.1656
H16A_2 H 0.7994 0.9809 0.2166
C17A_2 C 0.8885(7) 1.0007(9) 0.1968(2)
N5B_2 N 0.0368(7) 0.9318(5) 0.17923(14)
H15B H 0.1326 0.9511 0.1656
H16B H 0.0191 0.8185 0.2166
C17B C -0.0007(9) 0.8878(6) 0.1968(2)
H28A_2 H -0.6341 -0.4237 0.2794
Cd4_2 Cd -0.6667 -0.3333 0.32278(2)
Cd3_2 Cd 1.0000 1.0000 0.15655(2)
H17A_2 H 0.9278 1.0457 0.2027
Cd3_3 Cd 0.0000 1.0000 0.15655(2)
H17B H -0.0457 0.8821 0.2027
Cl1 Cl 0.32985(15) 0.32193(15) 0.17152(5)
O1 O 0.3179(5) 0.3119(5) 0.19544(13)
O2 O 0.2646(4) 0.2680(4) 0.15998(14)
O3 O 0.3926(4) 0.3142(5) 0.16542(15)
O4 O 0.3438(4) 0.3945(4) 0.16549(15)
Cl2 Cl 0.2720(3) 0.3288(3) 0.00235(9)
O5 O 0.3414(10) 0.3412(12) -0.0025(3)
O6 O 0.2651(8) 0.3900(8) 0.0089(3)
O7 O 0.2198(10) 0.2914(11) -0.0142(3)
O8 O 0.2450(11) 0.2797(10) 0.0220(3)
O9 O 0.4150(13) 0.4171(12) -0.0412(4)
C43 C 0.361(2) 0.426(2) -0.0545(7)
Cl3? Cl 0.3983(12) 0.4109(9) -0.0139(3)
O10? O 0.3428(18) 0.381(2) 0.0014(5)
O11? O 0.376(4) 0.433(4) -0.0330(10)
O12? O 0.461(3) 0.474(3) -0.0047(10)
O13? O 0.426(3) 0.366(3) -0.0206(9)
loop_
_geom_bond_atom_site_label_1
_geom_bond_atom_site_label_2
_geom_bond_site_symmetry_1
_geom_bond_site_symmetry_2
Cd1 N1 1_555 1_555
Cd2 N4 1_555 1_555
N1 C1 1_555 1_555
N2 C1 1_555 1_555
N3 C11 1_555 1_555
N4 C12 1_555 1_555
C1 H1 1_555 1_555
C2 N1 1_555 1_555
H2 C2 1_555 1_555
C3 N2 1_555 1_555
H3 C3 1_555 1_555
C4 N2 1_555 1_555
H4 C4 1_555 1_555
H5 C4 1_555 1_555
C5 C4 1_555 1_555
C6 C5 1_555 1_555
H6 C6 1_555 1_555
C7 C5 1_555 1_555
H7 C7 1_555 1_555
C8 C6 1_555 1_555
H8 C8 1_555 1_555
C9 C7 1_555 1_555
H9 C9 1_555 1_555
C10 C8 1_555 1_555
C11 C10 1_555 1_555
H10 C11 1_555 1_555
H11 C11 1_555 1_555
C12 N3 1_555 1_555
H12 C12 1_555 1_555
C13 N3 1_555 1_555
H13 C13 1_555 1_555
C14 N4 1_555 1_555
H14 C14 1_555 1_555
Cd3 N5 1_555 1_555
Cd4 N8 1_555 1_555
N5 C15 1_555 1_555
N6 C15 1_555 1_555
N7 C25 1_555 1_555
N8 C27 1_555 1_555
C15 H15 1_555 1_555
C16 N6 1_555 1_555
H16 C16 1_555 1_555
C17 N5 1_555 1_555
H17 C17 1_555 1_555
C18 N6 1_555 1_555
H18 C18 1_555 1_555
H19 C18 1_555 1_555
C19 C18 1_555 1_555
C20 C19 1_555 1_555
H20 C20 1_555 1_555
C21 C19 1_555 1_555
H21 C21 1_555 1_555
C22 C20 1_555 1_555
H22 C22 1_555 1_555
C23 C21 1_555 1_555
H23 C23 1_555 1_555
C24 C22 1_555 1_555
C25 C24 1_555 1_555
H24 C25 1_555 1_555
H25 C25 1_555 1_555
C26 N7 1_555 1_555
H26 C26 1_555 1_555
C27 N7 1_555 1_555
H27 C27 1_555 1_555
C28 N8 1_555 1_555
H28 C28 1_555 1_555
N9 Cd3 1_555 1_555
N10 C29 1_555 1_555
N11 C39 1_555 1_555
N12 Cd4 1_555 1_555
C29 N9 1_555 1_555
H29 C29 1_555 1_555
C30 N9 1_555 1_555
H30 C30 1_555 1_555
C31 N10 1_555 1_555
H31 C31 1_555 1_555
C32 N10 1_555 1_555
H32 C32 1_555 1_555
H33 C32 1_555 1_555
C33 C32 1_555 1_555
C34 C33 1_555 1_555
H34 C34 1_555 1_555
C35 C33 1_555 1_555
H35 C35 1_555 1_555
C36 C34 1_555 1_555
H36 C36 1_555 1_555
C37 C35 1_555 1_555
H37 C37 1_555 1_555
C38 C36 1_555 1_555
C39 C38 1_555 1_555
H38 C39 1_555 1_555
H39 C39 1_555 1_555
C40 N12 1_555 1_555
H40 C40 1_555 1_555
C41 N11 1_555 1_555
H41 C41 1_555 1_555
C42 N12 1_555 1_555
H42 C42 1_555 1_555
Cl1 O1 1_555 1_555
O2 Cl1 1_555 1_555
O3 Cl1 1_555 1_555
O4 Cl1 1_555 1_555
Cl2 O5 1_555 1_555
O6 Cl2 1_555 1_555
O7 Cl2 1_555 1_555
O8 Cl2 1_555 1_555
O9 C43 1_555 1_555
N1A Cd1 1_555 1_555
N1B Cd1 1_555 1_555
N1I Cd1 1_555 1_555
N1J Cd1 1_555 1_555
N1K Cd1 1_555 1_555
N4A Cd2 1_555 1_555
N4B Cd2 1_555 1_555
N4P Cd2 1_555 1_555
N4Q Cd2 1_555 1_555
N4O Cd2 1_555 1_555
C1A N1A 1_555 1_555
C2A N1A 1_555 1_555
C1B N1B 1_555 1_555
C2B N1B 1_555 1_555
C12A N4A 1_555 1_555
C14A N4A 1_555 1_555
C12B N4B 1_555 1_555
C14B N4B 1_555 1_555
C12P N4P 1_555 1_555
C14P N4P 1_555 1_555
N2A C1A 1_555 1_555
H1A C1A 1_555 1_555
H2A C2A 1_555 1_555
C3A C2A 1_555 1_555
N2B C1B 1_555 1_555
H1B C1B 1_555 1_555
H2B C2B 1_555 1_555
C3B C2B 1_555 1_555
N3A C12A 1_555 1_555
H12A C12A 1_555 1_555
C13A C14A 1_555 1_555
H14A C14A 1_555 1_555
N3B C12B 1_555 1_555
H12B C12B 1_555 1_555
C13B C14B 1_555 1_555
H14B C14B 1_555 1_555
N3P C12P 1_555 1_555
H12P C12P 1_555 1_555
C13P C14P 1_555 1_555
H14P C14P 1_555 1_555
C4A N2A 1_555 1_555
H3A C3A 1_555 1_555
C4B N2B 1_555 1_555
H3B C3B 1_555 1_555
C11A N3A 1_555 1_555
H13A C13A 1_555 1_555
C11B N3B 1_555 1_555
H13B C13B 1_555 1_555
C11P N3P 1_555 1_555
H13P C13P 1_555 1_555
H4A C4A 1_555 1_555
H5A C4A 1_555 1_555
C5A C4A 1_555 1_555
H4B C4B 1_555 1_555
H5B C4B 1_555 1_555
C5B C4B 1_555 1_555
C10A C11A 1_555 1_555
H10A C11A 1_555 1_555
H11A C11A 1_555 1_555
C10B C11B 1_555 1_555
H10B C11B 1_555 1_555
H11B C11B 1_555 1_555
C10P C11P 1_555 1_555
H10P C11P 1_555 1_555
H11P C11P 1_555 1_555
C6A C5A 1_555 1_555
C7A C5A 1_555 1_555
C6B C5B 1_555 1_555
C7B C5B 1_555 1_555
C8A C10A 1_555 1_555
C9A C10A 1_555 1_555
C8B C10B 1_555 1_555
C9B C10B 1_555 1_555
C8P C10P 1_555 1_555
C9P C10P 1_555 1_555
H6A C6A 1_555 1_555
C8A_2 C6A 1_555 1_555
H7A C7A 1_555 1_555
C9A_2 C7A 1_555 1_555
H6B C6B 1_555 1_555
C8B_2 C6B 1_555 1_555
H7B C7B 1_555 1_555
C9B_2 C7B 1_555 1_555
C6A_2 C8A 1_555 1_555
H8A C8A 1_555 1_555
C7A_2 C9A 1_555 1_555
H9A C9A 1_555 1_555
C6B_2 C8B 1_555 1_555
H8B C8B 1_555 1_555
C7B_2 C9B 1_555 1_555
H9B C9B 1_555 1_555
C6P C8P 1_555 1_555
H8P C8P 1_555 1_555
C7P C9P 1_555 1_555
H9P C9P 1_555 1_555
H8A_2 C8A_2 1_555 1_555
C10A_2 C8A_2 1_555 1_555
H9A_2 C9A_2 1_555 1_555
H8B_2 C8B_2 1_555 1_555
C10B_2 C8B_2 1_555 1_555
H9B_2 C9B_2 1_555 1_555
C5A_2 C6A_2 1_555 1_555
H6A_2 C6A_2 1_555 1_555
H7A_2 C7A_2 1_555 1_555
C5B_2 C6B_2 1_555 1_555
H6B_2 C6B_2 1_555 1_555
H7B_2 C7B_2 1_555 1_555
C5P C6P 1_555 1_555
H6P C6P 1_555 1_555
H7P C7P 1_555 1_555
C11A_2 C10A_2 1_555 1_555
C11B_2 C10B_2 1_555 1_555
C4A_2 C5A_2 1_555 1_555
C4B_2 C5B_2 1_555 1_555
C4P C5P 1_555 1_555
N3A_2 C11A_2 1_555 1_555
H10A_2 C11A_2 1_555 1_555
H11A_2 C11A_2 1_555 1_555
N3B_2 C11B_2 1_555 1_555
H10B_2 C11B_2 1_555 1_555
H11B_2 C11B_2 1_555 1_555
N2A_2 C4A_2 1_555 1_555
H4A_2 C4A_2 1_555 1_555
H5A_2 C4A_2 1_555 1_555
N2B_2 C4B_2 1_555 1_555
H4B_2 C4B_2 1_555 1_555
H5B_2 C4B_2 1_555 1_555
N2P C4P 1_555 1_555
H4P C4P 1_555 1_555
H5P C4P 1_555 1_555
C12A_2 N3A_2 1_555 1_555
C13A_2 N3A_2 1_555 1_555
C12B_2 N3B_2 1_555 1_555
C13B_2 N3B_2 1_555 1_555
C1A_2 N2A_2 1_555 1_555
C3A_2 N2A_2 1_555 1_555
C1B_2 N2B_2 1_555 1_555
C3B_2 N2B_2 1_555 1_555
C1P N2P 1_555 1_555
C3P N2P 1_555 1_555
N4A_2 C12A_2 1_555 1_555
H12A_2 C12A_2 1_555 1_555
H13A_2 C13A_2 1_555 1_555
C14A_2 C13A_2 1_555 1_555
N4B_2 C12B_2 1_555 1_555
H12B_2 C12B_2 1_555 1_555
H13B_2 C13B_2 1_555 1_555
C14B_2 C13B_2 1_555 1_555
N1A_2 C1A_2 1_555 1_555
H1A_2 C1A_2 1_555 1_555
C2A_2 C3A_2 1_555 1_555
H3A_2 C3A_2 1_555 1_555
N1B_2 C1B_2 1_555 1_555
H1B_2 C1B_2 1_555 1_555
C2B_2 C3B_2 1_555 1_555
H3B_2 C3B_2 1_555 1_555
N1P C1P 1_555 1_555
H1P C1P 1_555 1_555
C2P C3P 1_555 1_555
H3P C3P 1_555 1_555
Cd2_2 N4A_2 1_555 1_555
H14A_2 C14A_2 1_555 1_555
Cd2_3 N4B_2 1_555 1_555
H14B_2 C14B_2 1_555 1_555
Cd1_2 N1A_2 1_555 1_555
H2A_2 C2A_2 1_555 1_555
Cd1_3 N1B_2 1_555 1_555
H2B_2 C2B_2 1_555 1_555
Cd1C N1P 1_555 1_555
H2P C2P 1_555 1_555
N5A Cd3 1_555 1_555
N5B Cd3 1_555 1_555
N9A Cd3 1_555 1_555
N9B Cd3 1_555 1_555
N8A Cd4 1_555 1_555
N8B Cd4 1_555 1_555
N12A Cd4 1_555 1_555
N12B Cd4 1_555 1_555
C40F N11 1_555 1_555
N11C C40 1_555 1_555
C42F C41 1_555 1_555
C41C C42 1_555 1_555
C15A N5A 1_555 1_555
C17A N5A 1_555 1_555
C27A N8A 1_555 1_555
C28A N8A 1_555 1_555
C27B N8B 1_555 1_555
C28B N8B 1_555 1_555
N12F C40F 1_555 1_555
H40F C40F 1_555 1_555
C39C N11C 1_555 1_555
H42F C42F 1_555 1_555
H41C C41C 1_555 1_555
N6A C15A 1_555 1_555
H15A C15A 1_555 1_555
C16A C17A 1_555 1_555
H17A C17A 1_555 1_555
N7A C27A 1_555 1_555
H27A C27A 1_555 1_555
C26A C28A 1_555 1_555
H28A C28A 1_555 1_555
N7B C27B 1_555 1_555
H27B C27B 1_555 1_555
C26B C28B 1_555 1_555
H28B C28B 1_555 1_555
Cd4F N12F 1_555 1_555
C38C C39C 1_555 1_555
H38C C39C 1_555 1_555
H39C C39C 1_555 1_555
C18A N6A 1_555 1_555
H16A C16A 1_555 1_555
C25A N7A 1_555 1_555
H26A C26A 1_555 1_555
C25B N7B 1_555 1_555
H26B C26B 1_555 1_555
C36C C38C 1_555 1_555
C37C C38C 1_555 1_555
H18A C18A 1_555 1_555
H19A C18A 1_555 1_555
C19A C18A 1_555 1_555
C24A C25A 1_555 1_555
H24A C25A 1_555 1_555
H25A C25A 1_555 1_555
C24B C25B 1_555 1_555
H24B C25B 1_555 1_555
H25B C25B 1_555 1_555
C34C C36C 1_555 1_555
H36C C36C 1_555 1_555
C35C C37C 1_555 1_555
H37C C37C 1_555 1_555
C20A C19A 1_555 1_555
C21A C19A 1_555 1_555
C22A C24A 1_555 1_555
C23A C24A 1_555 1_555
C22B C24B 1_555 1_555
C23B C24B 1_555 1_555
C33C C34C 1_555 1_555
H34C C34C 1_555 1_555
H35C C35C 1_555 1_555
H20A C20A 1_555 1_555
C22A_2 C20A 1_555 1_555
H21A C21A 1_555 1_555
C23A_2 C21A 1_555 1_555
C20A_2 C22A 1_555 1_555
H22A C22A 1_555 1_555
C21A_2 C23A 1_555 1_555
H23A C23A 1_555 1_555
C20B C22B 1_555 1_555
H22B C22B 1_555 1_555
C21B C23B 1_555 1_555
H23B C23B 1_555 1_555
C32C C33C 1_555 1_555
H22A_2 C22A_2 1_555 1_555
C24A_2 C22A_2 1_555 1_555
H23A_2 C23A_2 1_555 1_555
C19A_2 C20A_2 1_555 1_555
H20A_2 C20A_2 1_555 1_555
H21A_2 C21A_2 1_555 1_555
C19B C20B 1_555 1_555
H20B C20B 1_555 1_555
H21B C21B 1_555 1_555
N10C C32C 1_555 1_555
H32C C32C 1_555 1_555
H33C C32C 1_555 1_555
C25A_2 C24A_2 1_555 1_555
C18A_2 C19A_2 1_555 1_555
C18B C19B 1_555 1_555
C29C N10C 1_555 1_555
C31C N10C 1_555 1_555
N7A_2 C25A_2 1_555 1_555
H24A_2 C25A_2 1_555 1_555
H25A_2 C25A_2 1_555 1_555
N6A_2 C18A_2 1_555 1_555
H18A_2 C18A_2 1_555 1_555
H19A_2 C18A_2 1_555 1_555
N6B C18B 1_555 1_555
H18B C18B 1_555 1_555
H19B C18B 1_555 1_555
N9C C29C 1_555 1_555
H29C C29C 1_555 1_555
C30C C31C 1_555 1_555
H31C C31C 1_555 1_555
C26A_2 N7A_2 1_555 1_555
C27A_2 N7A_2 1_555 1_555
C15A_2 N6A_2 1_555 1_555
C16A_2 N6A_2 1_555 1_555
C15B N6B 1_555 1_555
C16B N6B 1_555 1_555
Cd3C N9C 1_555 1_555
H30C C30C 1_555 1_555
H26A_2 C26A_2 1_555 1_555
C28A_2 C26A_2 1_555 1_555
N8A_2 C27A_2 1_555 1_555
H27A_2 C27A_2 1_555 1_555
N5A_2 C15A_2 1_555 1_555
H15A_2 C15A_2 1_555 1_555
H16A_2 C16A_2 1_555 1_555
C17A_2 C16A_2 1_555 1_555
N5B_2 C15B 1_555 1_555
H15B C15B 1_555 1_555
H16B C16B 1_555 1_555
C17B C16B 1_555 1_555
H28A_2 C28A_2 1_555 1_555
Cd4_2 N8A_2 1_555 1_555
Cd3_2 N5A_2 1_555 1_555
H17A_2 C17A_2 1_555 1_555
Cd3_3 N5B_2 1_555 1_555
H17B C17B 1_555 1_555
C2 C3 1_555 1_555
C9 C10 1_555 1_555
C13 C14 1_555 1_555
C16 C17 1_555 1_555
C23 C24 1_555 1_555
C26 C28 1_555 1_555
C30 C31 1_555 1_555
C37 C38 1_555 1_555
N2A C3A 1_555 1_555
N2B C3B 1_555 1_555
N3A C13A 1_555 1_555
N3B C13B 1_555 1_555
N3P C13P 1_555 1_555
C9A_2 C10A_2 1_555 1_555
C9B_2 C10B_2 1_555 1_555
C7A_2 C5A_2 1_555 1_555
C7B_2 C5B_2 1_555 1_555
C7P C5P 1_555 1_555
N4A_2 C14A_2 1_555 1_555
N4B_2 C14B_2 1_555 1_555
N1A_2 C2A_2 1_555 1_555
N1B_2 C2B_2 1_555 1_555
N1P C2P 1_555 1_555
N11C C41C 1_555 1_555
C42F N12F 1_555 1_555
N6A C16A 1_555 1_555
N7A C26A 1_555 1_555
N7B C26B 1_555 1_555
C35C C33C 1_555 1_555
C23A_2 C24A_2 1_555 1_555
C21A_2 C19A_2 1_555 1_555
C21B C19B 1_555 1_555
N9C C30C 1_555 1_555
C28A_2 N8A_2 1_555 1_555
N5A_2 C17A_2 1_555 1_555
N5B_2 C17B 1_555 1_555

#END
