
#######################################################################
#
#                 Cambridge Crystallographic Data Centre
#                                CCDC 
#
#######################################################################
#
# If this CIF has been generated from an entry in the Cambridge 
# Structural Database, then it will include bibliographic, chemical, 
# crystal, experimental, refinement or atomic coordinate data resulting 
# from the CCDC's data processing and validation procedures.
#
#######################################################################

data_HUKREK
_symmetry_cell_setting           trigonal
_symmetry_space_group_name_H-M   'P -3'
_symmetry_Int_Tables_number      147
_space_group_name_Hall           '-P 3'
loop_
_symmetry_equiv_pos_site_id
_symmetry_equiv_pos_as_xyz
1 x,y,z
2 -y,x-y,z
3 -x+y,-x,z
4 -x,-y,-z
5 y,-x+y,-z
6 x-y,x,-z
_cell_length_a                   11.3886(5)
_cell_length_b                   11.3886(5)
_cell_length_c                   8.2486(10)
_cell_angle_alpha                90
_cell_angle_beta                 90
_cell_angle_gamma                120
_cell_volume                     926.513
loop_
_atom_site_label
_atom_site_type_symbol
_atom_site_fract_x
_atom_site_fract_y
_atom_site_fract_z
Zn1 Zn 1.0000 1.0000 0.0000
N1 N 0.17571(16) 0.12426(16) 0.84858(19)
N2 N 0.35809(19) 0.30131(18) 0.7520(2)
C1 C 0.2583(2) 0.2558(2) 0.8618(2)
H1 H 1.6895 0.9381 0.9381
C2 C 0.2266(2) 0.0846(2) 0.7225(3)
H2 H 0.1890 -0.0036 0.6837
C3 C 0.3390(3) 0.1926(3) 0.6634(3)
H3 H 0.3929 0.1926 0.5786
C4 C 0.4703(3) 0.4416(3) 0.7383(3)
H4 H 0.5527 0.4480 0.7810
H5 H 0.4500 0.5011 0.8017
C5 C 0.4908(3) 0.4846(2) 0.5688(3)
Zn1_2 Zn 0.0000 0.0000 1.0000
C5C C 0.5092(3) 0.5154(2) 0.4312(3)
C4C C 0.5297(3) 0.5584(3) 0.2617(3)
N2C N 0.64191(19) 0.69869(18) 0.2480(2)
C1C C 0.7417(2) 0.7442(2) 0.1382(2)
N1C N 0.82429(16) 0.87574(16) 0.15142(19)
N1D N 1.12426(16) 0.94855(23) 0.15142(19)
C1D C 1.2558(2) 0.9975(3) 0.1382(2)
N2D N 1.30131(18) 0.94322(26) 0.2480(2)
C3D C 1.1926(3) 0.8536(4) 0.3366(3)
C2D C 1.0846(2) 0.8580(3) 0.2775(3)
H2D H 0.9964 0.8074 0.3163
H3D H 1.1926 0.7997 0.4214
C4D C 1.4416(3) 0.9713(4) 0.2617(3)
H4D H 1.4480 0.8953 0.2190
H5D H 1.5011 1.0511 0.1983
C5D C 1.4846(2) 0.9938(4) 0.4312(3)
C5A C 1.5154(2) 1.0062(4) 0.5688(3)
C4A C 1.5584(3) 1.0287(4) 0.7383(3)
N2A N 1.69869(18) 1.05678(26) 0.7520(2)
C1A C 1.7442(2) 1.0025(3) 0.8618(2)
N1A N 1.87574(16) 1.05145(23) 0.84858(19)
Zn1_3 Zn 2.0000 1.0000 1.0000
C2A C 1.9154(2) 1.1420(3) 0.7225(3)
H2A H 2.0036 1.1926 0.6837
C3A C 1.8074(3) 1.1464(4) 0.6634(3)
H3A H 1.8074 1.2003 0.5786
H4A H 1.5520 1.1047 0.7810
H5A H 1.4989 0.9489 0.8017
H1C H 1.3105 1.0619 0.0619
N1E N 1.05145(23) 1.17571(16) 0.15142(19)
N1_2 N 1.17571(16) 1.12426(16) -0.15142(19)
N1A_2 N 0.87574(16) 1.05145(23) -0.15142(19)
N1B N 0.94855(23) 0.82429(16) -0.15142(19)
C2C C 0.7734(2) 0.9154(2) 0.2775(3)
H2C H 0.8110 1.0036 0.3163
C3C C 0.6610(3) 0.8074(3) 0.3366(3)
H3C H 0.6071 0.8074 0.4214
H1E H 0.7514 0.6895 0.0619
H4C H 0.4473 0.5520 0.2190
H5C H 0.5500 0.4989 0.1983
H1B H 0.2486 0.3105 0.9381
C1E C 1.0025(3) 1.2583(2) 0.1382(2)
C2E C 1.1420(3) 1.2266(2) 0.2775(3)
N2E N 1.05678(26) 1.35809(19) 0.2480(2)
H1D H 0.9381 1.2486 0.0619
H2E H 1.1926 1.1890 0.3163
C3E C 1.1464(4) 1.3390(3) 0.3366(3)
C4E C 1.0287(4) 1.4703(3) 0.2617(3)
H3E H 1.2003 1.3929 0.4214
H4E H 1.1047 1.5527 0.2190
H5E H 0.9489 1.4500 0.1983
C5E C 1.0062(4) 1.4908(3) 0.4312(3)
C5B C 0.9938(4) 1.5092(3) 0.5688(3)
C4B C 0.9713(4) 1.5297(3) 0.7383(3)
N2B N 0.94322(26) 1.64191(19) 0.7520(2)
H4B H 0.8953 1.4473 0.7810
H5B H 1.0511 1.5500 0.8017
C1B C 0.9975(3) 1.7417(2) 0.8618(2)
C3B C 0.8536(4) 1.6610(3) 0.6634(3)
N1B_2 N 0.94855(23) 1.82429(16) 0.84858(19)
H1A H 1.0619 1.7514 0.9381
C2B C 0.8580(3) 1.7734(2) 0.7225(3)
H3B H 0.7997 1.6071 0.5786
Zn1_4 Zn 1.0000 2.0000 1.0000
H2B H 0.8074 1.8110 0.6837
F1 F -0.2813(11) -0.7446(11) 0.0868(19)
F2 F -0.3333 -0.6667 -0.1389(13)
B1 B -0.3333 -0.6667 0.035(4)
F1B F -0.4633(16) -0.7187(11) 0.0868(19)
F1A F -0.2554(11) -0.5367(16) 0.0868(19)
B2? B -0.3333 -0.6667 0.082(5)
F3? F -0.2721(15) -0.7291(14) 0.0248(18)
F4? F -0.3333 -0.6667 0.2345(13)
loop_
_geom_bond_atom_site_label_1
_geom_bond_atom_site_label_2
_geom_bond_site_symmetry_1
_geom_bond_site_symmetry_2
Zn1 N1C 1_555 1_555
N1 C1 1_555 1_555
N2 C1 1_555 1_555
C1 H1B 1_555 1_555
H1 C1A 1_555 1_555
C2 N1 1_555 1_555
H2 C2 1_555 1_555
C3 N2 1_555 1_555
H3 C3 1_555 1_555
C4 N2 1_555 1_555
H4 C4 1_555 1_555
H5 C4 1_555 1_555
C5 C4 1_555 1_555
F1 B1 1_555 1_555
F2 B1 1_555 1_555
B1 F1B 1_555 1_555
Zn1_2 N1 1_555 1_555
C5C C5 1_555 1_555
C4C C5C 1_555 1_555
N2C C4C 1_555 1_555
C1C N2C 1_555 1_555
N1C C1C 1_555 1_555
N1D Zn1 1_555 1_555
C1D N1D 1_555 1_555
N2D C1D 1_555 1_555
C3D N2D 1_555 1_555
C2D N1D 1_555 1_555
H2D C2D 1_555 1_555
H3D C3D 1_555 1_555
C4D N2D 1_555 1_555
H4D C4D 1_555 1_555
H5D C4D 1_555 1_555
C5D C4D 1_555 1_555
C5A C5D 1_555 1_555
C4A C5A 1_555 1_555
N2A C4A 1_555 1_555
C1A N2A 1_555 1_555
N1A C1A 1_555 1_555
Zn1_3 N1A 1_555 1_555
C2A N1A 1_555 1_555
H2A C2A 1_555 1_555
C3A N2A 1_555 1_555
H3A C3A 1_555 1_555
H4A C4A 1_555 1_555
H5A C4A 1_555 1_555
H1C C1D 1_555 1_555
N1E Zn1 1_555 1_555
N1_2 Zn1 1_555 1_555
N1A_2 Zn1 1_555 1_555
N1B Zn1 1_555 1_555
C2C N1C 1_555 1_555
H2C C2C 1_555 1_555
C3C N2C 1_555 1_555
H3C C3C 1_555 1_555
H1E C1C 1_555 1_555
H4C C4C 1_555 1_555
H5C C4C 1_555 1_555
F1A B1 1_555 1_555
C1E N1E 1_555 1_555
C2E N1E 1_555 1_555
N2E C1E 1_555 1_555
H1D C1E 1_555 1_555
H2E C2E 1_555 1_555
C3E C2E 1_555 1_555
C4E N2E 1_555 1_555
H3E C3E 1_555 1_555
H4E C4E 1_555 1_555
H5E C4E 1_555 1_555
C5E C4E 1_555 1_555
C5B C5E 1_555 1_555
C4B C5B 1_555 1_555
N2B C4B 1_555 1_555
H4B C4B 1_555 1_555
H5B C4B 1_555 1_555
C1B N2B 1_555 1_555
C3B N2B 1_555 1_555
N1B_2 C1B 1_555 1_555
H1A C1B 1_555 1_555
C2B C3B 1_555 1_555
H3B C3B 1_555 1_555
Zn1_4 N1B_2 1_555 1_555
H2B C2B 1_555 1_555
C2 C3 1_555 1_555
C3D C2D 1_555 1_555
C2A C3A 1_555 1_555
C2C C3C 1_555 1_555
N2E C3E 1_555 1_555
N1B_2 C2B 1_555 1_555

#END
