
#######################################################################
#
#                 Cambridge Crystallographic Data Centre
#                                CCDC 
#
#######################################################################
#
# If this CIF has been generated from an entry in the Cambridge 
# Structural Database, then it will include bibliographic, chemical, 
# crystal, experimental, refinement or atomic coordinate data resulting 
# from the CCDC's data processing and validation procedures.
#
#######################################################################

data_HUKROW
_symmetry_cell_setting           triclinic
_symmetry_space_group_name_H-M   'P -1'
_symmetry_Int_Tables_number      2
_space_group_name_Hall           '-P 1'
loop_
_symmetry_equiv_pos_site_id
_symmetry_equiv_pos_as_xyz
1 x,y,z
2 -x,-y,-z
_cell_length_a                   13.153(3)
_cell_length_b                   13.630(3)
_cell_length_c                   22.965(6)
_cell_angle_alpha                93.498(5)
_cell_angle_beta                 100.261(5)
_cell_angle_gamma                113.853(5)
_cell_volume                     3664.47
loop_
_atom_site_label
_atom_site_type_symbol
_atom_site_fract_x
_atom_site_fract_y
_atom_site_fract_z
Ag1 Ag 0.13193(7) -0.21973(6) 0.10749(4)
Ag2 Ag 0.29292(7) 0.10590(6) 0.28959(4)
Ag3 Ag 0.67644(7) 0.44939(7) 0.37708(4)
O1 O -0.0194(6) -0.3931(5) 0.1475(3)
O2 O 0.3227(8) -0.3894(7) -0.0491(4)
N1 N 0.1249(7) -0.3788(6) 0.0702(4)
N2 N 0.1913(7) -0.3897(7) 0.0301(4)
C1 C -0.0919(10) -0.4268(9) 0.1849(6)
H1 H -0.1122 -0.3812 0.2072
C2 C -0.1297(9) -0.5313(9) 0.1858(5)
H2 H -0.1822 -0.5726 0.2068
C3 C -0.0754(10) -0.5683(9) 0.1488(6)
H3 H -0.0839 -0.6393 0.1413
C4 C -0.0081(8) -0.4828(8) 0.1257(5)
C5 C 0.0654(9) -0.4694(9) 0.0858(5)
H4 H 0.0708 -0.5309 0.0697
C6 C 0.2458(8) -0.3015(8) 0.0124(5)
H5 H 0.2420 -0.2384 0.0273
C7 C 0.3130(10) -0.2977(11) -0.0302(6)
C8 C 0.3680(10) -0.2170(11) -0.0594(6)
H6 H 0.3746 -0.1463 -0.0542
C9 C 0.4149(11) -0.2618(13) -0.1005(6)
H7 H 0.4572 -0.2269 -0.1275
C10 C 0.3844(11) -0.3631(14) -0.0911(8)
H8 H 0.4037 -0.4117 -0.1116
O3 O 0.2329(6) -0.0447(6) 0.0490(4)
O4 O 0.1840(5) -0.0529(6) 0.3478(3)
N3 N 0.2097(6) -0.0603(6) 0.1693(4)
N4 N 0.2105(6) -0.0501(6) 0.2308(4)
C11 C 0.2527(10) -0.0067(11) -0.0034(5)
H9 H 0.2351 -0.0496 -0.0401
C12 C 0.3005(10) 0.0997(11) 0.0060(6)
H10 H 0.3237 0.1447 -0.0224
C13 C 0.3104(10) 0.1324(10) 0.0642(6)
H11 H 0.3404 0.2037 0.0830
C14 C 0.2686(9) 0.0425(10) 0.0904(5)
C15 C 0.2573(7) 0.0284(8) 0.1494(5)
H12 H 0.2883 0.0912 0.1772
C16 C 0.1592(7) -0.1393(7) 0.2509(5)
H13 H 0.1303 -0.2035 0.2243
C17 C 0.1436(9) -0.1476(8) 0.3094(5)
C18 C 0.0936(8) -0.2300(9) 0.3385(6)
H14 H 0.0579 -0.3031 0.3224
C19 C 0.1041(9) -0.1874(11) 0.3973(6)
H15 H 0.0790 -0.2261 0.4278
C20 C 0.1584(10) -0.0775(11) 0.4010(5)
H16 H 0.1752 -0.0275 0.4347
O5 O 0.2419(6) 0.2464(5) 0.2191(3)
O6 O 0.6796(6) 0.3318(6) 0.4677(3)
N5 N 0.4174(6) 0.2759(6) 0.3154(3)
N6 N 0.5110(6) 0.3059(6) 0.3647(4)
C21 C 0.1802(10) 0.2579(11) 0.1683(6)
H17 H 0.1082 0.2059 0.1490
C22 C 0.2330(13) 0.3503(14) 0.1492(6)
H18 H 0.2075 0.3748 0.1151
C23 C 0.3383(11) 0.4046(10) 0.1925(7)
H19 H 0.3940 0.4739 0.1929
C24 C 0.3424(9) 0.3385(8) 0.2319(5)
C25 C 0.4266(8) 0.3511(8) 0.2831(5)
H20 H 0.4913 0.4165 0.2937
C26 C 0.4953(7) 0.2394(7) 0.4021(4)
H21 H 0.4265 0.1777 0.3929
C27 C 0.5735(8) 0.2495(8) 0.4579(4)
C28 C 0.5626(9) 0.1897(9) 0.5023(5)
H22 H 0.4985 0.1290 0.5055
C29 C 0.6682(10) 0.2380(10) 0.5428(5)
H23 H 0.6877 0.2154 0.5789
C30 C 0.7342(9) 0.3202(9) 0.5211(5)
H24 H 0.8094 0.3653 0.5398
O7 O 0.6931(6) 0.5812(5) 0.4782(3)
O8 O 1.1215(6) 0.5277(6) 0.3553(4)
N7 N 0.8555(6) 0.5434(6) 0.4237(4)
N8 N 0.9519(7) 0.5417(6) 0.4064(4)
C31 C 0.6444(9) 0.6148(9) 0.5171(5)
H25 H 0.5669 0.5979 0.5100
C32 C 0.7185(9) 0.6745(9) 0.5663(5)
H26 H 0.7040 0.7058 0.5992
C33 C 0.8250(9) 0.6801(9) 0.5580(5)
H27 H 0.8949 0.7163 0.5849
C34 C 0.8068(9) 0.6244(8) 0.5048(5)
C35 C 0.8806(8) 0.6029(7) 0.4742(5)
H28 H 0.9575 0.6362 0.4930
C36 C 0.9259(8) 0.4655(8) 0.3643(5)
H29 H 0.8496 0.4182 0.3496
C37 C 1.0112(9) 0.4504(8) 0.3391(5)
C38 C 1.0070(9) 0.3710(8) 0.2993(5)
H30 H 0.9422 0.3089 0.2811
C39 C 1.1153(10) 0.3979(10) 0.2905(5)
H31 H 1.1377 0.3577 0.2656
C40 C 1.1825(10) 0.4944(10) 0.3252(6)
H32 H 1.2603 0.5323 0.3277
O9 O -0.0007(7) -0.2308(8) 0.0107(4)
H33 H -0.0317 -0.2790 -0.0183
C41 C -0.0322(12) -0.1433(12) -0.0001(7)
H34 H -0.1113 -0.1721 -0.0197
H35 H 0.0132 -0.0992 -0.0251
H36 H -0.0195 -0.1000 0.0373
P1 P -0.32082(19) -0.09693(19) 0.26707(11)
Mo1 Mo -0.48914(7) -0.03532(7) 0.35393(4)
Mo2 Mo -0.37374(8) 0.14038(7) 0.25973(4)
Mo3 Mo -0.20338(7) 0.12391(7) 0.38671(4)
Mo4 Mo -0.45044(7) -0.31343(7) 0.14548(4)
Mo5 Mo -0.48479(7) -0.08150(7) 0.13051(4)
Mo6 Mo -0.61976(7) -0.25092(7) 0.22296(4)
Mo7 Mo -0.01988(7) 0.05449(7) 0.30320(4)
Mo8 Mo -0.13905(7) -0.14169(6) 0.18053(4)
Mo9 Mo -0.17637(7) 0.09145(6) 0.17794(4)
Mo10 Mo -0.45159(7) -0.29036(7) 0.35996(4)
Mo11 Mo -0.26806(8) -0.32967(7) 0.28394(4)
Mo12 Mo -0.16691(7) -0.12847(7) 0.40380(4)
O10 O -0.5874(5) -0.0299(5) 0.3905(3)
O11 O -0.3934(6) 0.2507(5) 0.2425(3)
O12 O -0.1274(5) 0.2190(5) 0.4457(3)
O13 O -0.4865(5) -0.4190(5) 0.0927(3)
O14 O -0.5437(5) -0.0455(5) 0.0698(3)
O15 O -0.7598(5) -0.3226(5) 0.2177(3)
O16 O 0.1204(5) 0.1300(5) 0.3335(3)
O17 O -0.0697(5) -0.1921(5) 0.1420(3)
O18 O -0.1309(5) 0.1794(5) 0.1303(3)
O19 O -0.5359(5) -0.3708(5) 0.4002(3)
O20 O -0.2519(6) -0.4468(5) 0.2774(3)
O21 O -0.0772(5) -0.1176(5) 0.4669(3)
O22 O -0.4802(5) 0.0840(5) 0.3061(3)
O23 O -0.3936(5) -0.3801(5) 0.3274(3)
O24 O -0.3092(5) -0.2193(5) 0.4186(3)
O25 O -0.5835(5) -0.1308(5) 0.2800(3)
O26 O -0.0133(4) -0.0448(4) 0.2447(3)
O27 O -0.4670(5) -0.1530(4) 0.3766(3)
O28 O -0.4843(5) -0.2119(5) 0.0990(3)
O29 O -0.1314(5) -0.0208(4) 0.1454(3)
O30 O -0.2572(5) 0.2028(4) 0.3331(3)
O31 O -0.6184(4) -0.1676(5) 0.1594(3)
O32 O -0.5895(4) -0.3459(4) 0.1689(3)
O33 O -0.3904(4) -0.3571(4) 0.2143(3)
O34 O -0.4606(5) 0.0360(5) 0.1930(3)
O35 O -0.2916(5) -0.2244(4) 0.1438(3)
O36 O -0.3546(5) 0.0666(5) 0.4052(3)
O37 O -0.0646(5) -0.0479(4) 0.3539(3)
O38 O -0.1737(5) -0.2585(5) 0.3584(3)
O39 O -0.0429(4) 0.1346(4) 0.2375(3)
O40 O -0.2444(4) 0.1526(4) 0.2237(3)
O41 O -0.5555(5) -0.3080(5) 0.2868(3)
O42 O -0.0921(4) 0.1274(4) 0.3444(3)
O43 O -0.3282(4) -0.0051(4) 0.1345(3)
O44 O -0.1943(5) -0.0046(5) 0.4143(3)
O45 O -0.1725(5) -0.2420(4) 0.2414(3)
O46 O -0.3396(4) -0.0084(4) 0.3014(3)
O47 O -0.4232(4) -0.1571(4) 0.2152(2)
O48 O -0.2121(4) -0.0464(4) 0.2430(2)
O49 O -0.3087(4) -0.1770(4) 0.3087(3)
Ag3_2 Ag -0.32356(7) -0.55061(7) 0.37708(4)
O20_2 O 0.7481(6) 0.5532(5) 0.2774(3)
O50 O 0.8018(7) 0.5981(6) -0.0057(4)
H37 H 0.7865 0.5331 -0.0093
C42 C 0.7160(13) 0.6162(12) 0.0166(8)
H38 H 0.7503 0.6674 0.0528
H39 H 0.6619 0.5491 0.0248
H40 H 0.6778 0.6445 -0.0127
loop_
_geom_bond_atom_site_label_1
_geom_bond_atom_site_label_2
_geom_bond_site_symmetry_1
_geom_bond_site_symmetry_2
Ag1 O1 1_555 1_555
Ag2 O4 1_555 1_555
Ag3 O6 1_555 1_555
O1 C1 1_555 1_555
O2 C7 1_555 1_555
N1 Ag1 1_555 1_555
N2 N1 1_555 1_555
C1 H1 1_555 1_555
C2 C1 1_555 1_555
H2 C2 1_555 1_555
C3 C2 1_555 1_555
H3 C3 1_555 1_555
C4 O1 1_555 1_555
C5 N1 1_555 1_555
H4 C5 1_555 1_555
C6 N2 1_555 1_555
H5 C6 1_555 1_555
C7 C6 1_555 1_555
C8 C7 1_555 1_555
H6 C8 1_555 1_555
C9 C8 1_555 1_555
H7 C9 1_555 1_555
C10 O2 1_555 1_555
H8 C10 1_555 1_555
O3 Ag1 1_555 1_555
O4 C17 1_555 1_555
N3 Ag1 1_555 1_555
N4 Ag2 1_555 1_555
C11 O3 1_555 1_555
H9 C11 1_555 1_555
C12 C11 1_555 1_555
H10 C12 1_555 1_555
C13 C12 1_555 1_555
H11 C13 1_555 1_555
C14 O3 1_555 1_555
C15 N3 1_555 1_555
H12 C15 1_555 1_555
C16 N4 1_555 1_555
H13 C16 1_555 1_555
C17 C16 1_555 1_555
C18 C17 1_555 1_555
H14 C18 1_555 1_555
C19 C18 1_555 1_555
H15 C19 1_555 1_555
C20 O4 1_555 1_555
H16 C20 1_555 1_555
O5 Ag2 1_555 1_555
O6 C27 1_555 1_555
N5 Ag2 1_555 1_555
N6 Ag3 1_555 1_555
C21 O5 1_555 1_555
H17 C21 1_555 1_555
C22 C21 1_555 1_555
H18 C22 1_555 1_555
C23 C22 1_555 1_555
H19 C23 1_555 1_555
C24 O5 1_555 1_555
C25 N5 1_555 1_555
H20 C25 1_555 1_555
C26 N6 1_555 1_555
H21 C26 1_555 1_555
C27 C26 1_555 1_555
C28 C27 1_555 1_555
H22 C28 1_555 1_555
C29 C28 1_555 1_555
H23 C29 1_555 1_555
C30 O6 1_555 1_555
H24 C30 1_555 1_555
O7 Ag3 1_555 1_555
O8 C37 1_555 1_555
N7 Ag3 1_555 1_555
N8 N7 1_555 1_555
C31 O7 1_555 1_555
H25 C31 1_555 1_555
C32 C31 1_555 1_555
H26 C32 1_555 1_555
C33 C32 1_555 1_555
H27 C33 1_555 1_555
C34 O7 1_555 1_555
C35 N7 1_555 1_555
H28 C35 1_555 1_555
C36 N8 1_555 1_555
H29 C36 1_555 1_555
C37 C36 1_555 1_555
C38 C37 1_555 1_555
H30 C38 1_555 1_555
C39 C38 1_555 1_555
H31 C39 1_555 1_555
C40 O8 1_555 1_555
H32 C40 1_555 1_555
O9 Ag1 1_555 1_555
H33 O9 1_555 1_555
C41 O9 1_555 1_555
H34 C41 1_555 1_555
H35 C41 1_555 1_555
H36 C41 1_555 1_555
P1 O46 1_555 1_555
Mo1 O10 1_555 1_555
Mo2 O11 1_555 1_555
Mo3 O12 1_555 1_555
Mo4 O13 1_555 1_555
Mo5 O14 1_555 1_555
Mo6 O15 1_555 1_555
Mo7 O16 1_555 1_555
Mo8 O17 1_555 1_555
Mo9 O18 1_555 1_555
Mo10 O19 1_555 1_555
Mo11 O20 1_555 1_555
Mo12 O21 1_555 1_555
O16 Ag2 1_555 1_555
O20 Ag3_2 1_555 1_555
O22 Mo1 1_555 1_555
O23 Mo10 1_555 1_555
O24 Mo10 1_555 1_555
O25 Mo1 1_555 1_555
O26 Mo7 1_555 1_555
O27 Mo1 1_555 1_555
O28 Mo4 1_555 1_555
O29 Mo8 1_555 1_555
O30 Mo2 1_555 1_555
O31 Mo5 1_555 1_555
O32 Mo4 1_555 1_555
O33 Mo4 1_555 1_555
O34 Mo2 1_555 1_555
O35 Mo4 1_555 1_555
O36 Mo1 1_555 1_555
O37 Mo7 1_555 1_555
O38 Mo11 1_555 1_555
O39 Mo7 1_555 1_555
O40 Mo2 1_555 1_555
O41 Mo6 1_555 1_555
O42 Mo3 1_555 1_555
O43 Mo5 1_555 1_555
O44 Mo3 1_555 1_555
O45 Mo8 1_555 1_555
O46 Mo1 1_555 1_555
O47 P1 1_555 1_555
O48 P1 1_555 1_555
O49 P1 1_555 1_555
O50 H37 1_555 1_555
C42 O50 1_555 1_555
H38 C42 1_555 1_555
H39 C42 1_555 1_555
H40 C42 1_555 1_555
O20_2 Ag3 1_555 1_555
C3 C4 1_555 1_555
C4 C5 1_555 1_555
C9 C10 1_555 1_555
N3 N4 1_555 1_555
C13 C14 1_555 1_555
C14 C15 1_555 1_555
C19 C20 1_555 1_555
N5 N6 1_555 1_555
C23 C24 1_555 1_555
C24 C25 1_555 1_555
C29 C30 1_555 1_555
C33 C34 1_555 1_555
C34 C35 1_555 1_555
C39 C40 1_555 1_555
Mo2 O22 1_555 1_555
Mo2 O46 1_555 1_555
Mo3 O30 1_555 1_555
Mo3 O36 1_555 1_555
Mo3 O46 1_555 1_555
Mo4 O47 1_555 1_555
Mo5 O28 1_555 1_555
Mo5 O34 1_555 1_555
Mo5 O47 1_555 1_555
Mo6 O25 1_555 1_555
Mo6 O31 1_555 1_555
Mo6 O32 1_555 1_555
Mo6 O47 1_555 1_555
Mo7 O42 1_555 1_555
Mo7 O48 1_555 1_555
Mo8 O26 1_555 1_555
Mo8 O35 1_555 1_555
Mo8 O48 1_555 1_555
Mo9 O29 1_555 1_555
Mo9 O39 1_555 1_555
Mo9 O40 1_555 1_555
Mo9 O43 1_555 1_555
Mo9 O48 1_555 1_555
Mo10 O27 1_555 1_555
Mo10 O41 1_555 1_555
Mo10 O49 1_555 1_555
Mo11 O23 1_555 1_555
Mo11 O33 1_555 1_555
Mo11 O45 1_555 1_555
Mo11 O49 1_555 1_555
Mo12 O24 1_555 1_555
Mo12 O37 1_555 1_555
Mo12 O38 1_555 1_555
Mo12 O44 1_555 1_555
Mo12 O49 1_555 1_555

#END
