
#######################################################################
#
#                 Cambridge Crystallographic Data Centre
#                                CCDC 
#
#######################################################################
#
# If this CIF has been generated from an entry in the Cambridge 
# Structural Database, then it will include bibliographic, chemical, 
# crystal, experimental, refinement or atomic coordinate data resulting 
# from the CCDC's data processing and validation procedures.
#
#######################################################################

data_HUKRIO
_symmetry_cell_setting           trigonal
_symmetry_space_group_name_H-M   'P -3 1 m'
_symmetry_Int_Tables_number      162
_space_group_name_Hall           "-P 3 2'"
loop_
_symmetry_equiv_pos_site_id
_symmetry_equiv_pos_as_xyz
1 x,y,z
2 -y,x-y,z
3 -x+y,-x,z
4 y,x,z
5 -x,-x+y,z
6 x-y,-y,z
7 -x,-y,-z
8 y,-x+y,-z
9 x-y,x,-z
10 -y,-x,-z
11 x,x-y,-z
12 -x+y,y,-z
_cell_length_a                   11.3550(12)
_cell_length_b                   11.3550(12)
_cell_length_c                   8.0625(13)
_cell_angle_alpha                90
_cell_angle_beta                 90
_cell_angle_gamma                120
_cell_volume                     900.274
loop_
_atom_site_label
_atom_site_type_symbol
_atom_site_fract_x
_atom_site_fract_y
_atom_site_fract_z
Co1 Co 0.0000 0.0000 0.0000
N1 N 0.1258(18) 0.1721(18) 0.154(3)
N2 N 0.306(3) 0.357(3) 0.244(3)
C1 C 0.2587(17) 0.2587(17) 0.135(3)
C2 C 0.075(3) 0.215(3) 0.285(3)
C3 C 0.196(3) 0.340(3) 0.333(4)
C4 C 0.4587(19) 0.4587(19) 0.246(4)
C5 C 0.492(2) 0.492(2) 0.431(3)
N1A N -0.1721(18) -0.0463(25) 0.154(3)
N1B N 0.0463(25) -0.1258(18) 0.154(3)
N1C N 0.1721(18) 0.1258(18) 0.154(3)
N1D N -0.1258(18) 0.0463(25) 0.154(3)
N1E N -0.0463(25) -0.1721(18) 0.154(3)
N1F N -0.1258(18) -0.1721(18) -0.154(3)
N1G N 0.1721(18) 0.0463(25) -0.154(3)
N1H N -0.0463(25) 0.1258(18) -0.154(3)
N1I N -0.1721(18) -0.1258(18) -0.154(3)
N1J N 0.1258(18) -0.0463(25) -0.154(3)
N1K N 0.0463(25) 0.1721(18) -0.154(3)
N2C N 0.357(3) 0.306(3) 0.244(3)
C2D C -0.075(3) 0.140(4) 0.285(3)
C5F C 0.508(2) 0.508(2) 0.569(3)
O1 O 0.543(3) 0.256(4) 0.055(4)
N3 N 0.6667 0.3333 0.067(6)
O1J O 0.543(3) 0.287(5) -0.055(4)
N3I N 0.6667 0.3333 -0.067(6)
O1B O 0.713(5) 0.457(3) 0.055(4)
O1A O 0.744(4) 0.287(5) 0.055(4)
O1I O 0.744(4) 0.457(3) -0.055(4)
O1K O 0.713(5) 0.256(4) -0.055(4)
loop_
_geom_bond_atom_site_label_1
_geom_bond_atom_site_label_2
_geom_bond_site_symmetry_1
_geom_bond_site_symmetry_2
Co1 N1 1_555 1_555
N1 C1 1_555 1_555
N2 C1 1_555 1_555
C1 N1C 1_555 1_555
C2 N1 1_555 1_555
C3 N2 1_555 1_555
C4 N2 1_555 1_555
C5 C4 1_555 1_555
O1 N3 1_555 1_555
N3 O1J 1_555 1_555
N1A Co1 1_555 1_555
N1B Co1 1_555 1_555
N1C Co1 1_555 1_555
N1D Co1 1_555 1_555
N1E Co1 1_555 1_555
N1F Co1 1_555 1_555
N1G Co1 1_555 1_555
N1H Co1 1_555 1_555
N1I Co1 1_555 1_555
N1J Co1 1_555 1_555
N1K Co1 1_555 1_555
N2C N2 1_555 1_555
C2D C2 1_555 1_555
C5F C5 1_555 1_555
O1J O1 1_555 1_555
N3I O1 1_555 1_555
O1B N3 1_555 1_555
O1A N3 1_555 1_555
O1I N3 1_555 1_555
O1K N3 1_555 1_555
N1 N1C 1_555 1_555
C1 N2C 1_555 1_555
C2 C3 1_555 1_555
C4 N2C 1_555 1_555
N3 N3I 1_555 1_555
N1A N1D 1_555 1_555
N1B N1E 1_555 1_555
N1D C2D 1_555 1_555
N1F N1I 1_555 1_555
N1G N1J 1_555 1_555
N1H N1K 1_555 1_555
O1J N3I 1_555 1_555
N3I O1I 1_555 1_555
N3I O1K 1_555 1_555
N3I O1B 1_555 1_555
N3I O1A 1_555 1_555
O1B O1I 1_555 1_555
O1A O1K 1_555 1_555

#END
