
#######################################################################
#
#                 Cambridge Crystallographic Data Centre
#                                CCDC 
#
#######################################################################
#
# If this CIF has been generated from an entry in the Cambridge 
# Structural Database, then it will include bibliographic, chemical, 
# crystal, experimental, refinement or atomic coordinate data resulting 
# from the CCDC's data processing and validation procedures.
#
#######################################################################

data_HUKSEM
_symmetry_cell_setting           monoclinic
_symmetry_space_group_name_H-M   'C 2/c'
_symmetry_Int_Tables_number      15
_space_group_name_Hall           '-C 2yn'
loop_
_symmetry_equiv_pos_site_id
_symmetry_equiv_pos_as_xyz
1 x,y,z
2 -x,y,1/2-z
3 1/2+x,1/2+y,z
4 1/2-x,1/2+y,1/2-z
5 -x,-y,-z
6 x,-y,1/2+z
7 1/2-x,1/2-y,-z
8 1/2+x,1/2-y,1/2+z
_cell_length_a                   21.6873(6)
_cell_length_b                   7.6211(2)
_cell_length_c                   24.1630(7)
_cell_angle_alpha                90
_cell_angle_beta                 114.128(3)
_cell_angle_gamma                90
_cell_volume                     3644.78
loop_
_atom_site_label
_atom_site_type_symbol
_atom_site_fract_x
_atom_site_fract_y
_atom_site_fract_z
Cl1 Cl 0.0442(4) 0.6092(10) 0.0316(3)
C1 C 0.0583(10) 0.821(2) 0.0154(7)
H1 H 0.0270 0.8965 0.0258
Cl2 Cl 0.0436(3) 0.8688(9) -0.0588(2)
Cl3 Cl 0.1341(5) 0.8883(15) 0.0568(5)
Zn1 Zn 0.0000 0.52597(9) 0.2500
Si1 Si 0.0000 0.0248(2) 0.2500
F1 F 0.0000 0.2515(5) 0.2500
F2 F -0.01940(17) 0.0231(4) 0.30996(14)
F3 F -0.08162(14) 0.0243(4) 0.20432(15)
F4 F 0.0000 -0.2013(5) 0.2500
N1 N 0.07962(19) 0.5285(5) 0.21685(17)
C2 C 0.1163(2) 0.6745(6) 0.2215(2)
H2 H 0.1033 0.7797 0.2350
C3 C 0.1722(2) 0.6781(6) 0.2075(2)
H3 H 0.1963 0.7847 0.2108
C4 C 0.1931(2) 0.5261(6) 0.1885(2)
C5 C 0.1541(2) 0.3757(6) 0.1822(2)
H4 H 0.1655 0.2691 0.1681
C6 C 0.0983(2) 0.3842(6) 0.1968(2)
H5 H 0.0720 0.2810 0.1921
S1 S 0.26785(6) 0.53903(16) 0.17778(5)
C7 C 0.2692(2) 0.3381(6) 0.1394(2)
H6 H 0.3148 0.3232 0.1398
H7 H 0.2615 0.2391 0.1623
C8 C 0.2171(2) 0.3280(7) 0.0739(2)
H8 H 0.1718 0.3592 0.0717
H9 H 0.2151 0.2071 0.0582
S2 S 0.24153(6) 0.47905(17) 0.02906(5)
C9 C 0.1752(2) 0.4676(6) -0.0431(2)
C10 C 0.1224(2) 0.3475(6) -0.0609(2)
H10 H 0.1195 0.2628 -0.0332
C11 C 0.0743(2) 0.3544(6) -0.1198(2)
H11 H 0.0386 0.2711 -0.1320
N2 N 0.07506(19) 0.4715(5) -0.16063(17)
C12 C 0.1261(2) 0.5862(6) -0.1433(2)
H12 H 0.1273 0.6699 -0.1720
C13 C 0.1769(2) 0.5885(7) -0.0859(2)
H13 H 0.2127 0.6712 -0.0755
Zn1_2 Zn 0.0000 -0.47403(9) 0.2500
Zn1D Zn 0.0000 0.47403(9) -0.2500
F2A F 0.01940(17) 0.0231(4) 0.19004(14)
F3A F 0.08162(14) 0.0243(4) 0.29568(15)
F4_2 F 0.0000 0.7987(5) 0.2500
N1D N -0.07962(19) 0.4715(5) -0.21685(17)
N1A N -0.07962(19) 0.5285(5) 0.28315(17)
C2D C -0.1163(2) 0.3255(6) -0.2215(2)
H2D H -0.1033 0.2203 -0.2350
C3D C -0.1722(2) 0.3219(6) -0.2075(2)
H3D H -0.1963 0.2153 -0.2108
C4D C -0.1931(2) 0.4739(6) -0.1885(2)
C5D C -0.1541(2) 0.6243(6) -0.1822(2)
H4D H -0.1655 0.7309 -0.1681
C6D C -0.0983(2) 0.6158(6) -0.1968(2)
H5D H -0.0720 0.7190 -0.1921
S1D S -0.26785(6) 0.46097(16) -0.17778(5)
C7D C -0.2692(2) 0.6619(6) -0.1394(2)
H6D H -0.3148 0.6768 -0.1398
H7D H -0.2615 0.7609 -0.1623
C8D C -0.2171(2) 0.6720(7) -0.0739(2)
H8D H -0.1718 0.6408 -0.0717
H9D H -0.2151 0.7929 -0.0582
S2D S -0.24153(6) 0.52095(17) -0.02906(5)
C9D C -0.1752(2) 0.5324(6) 0.0431(2)
C10D C -0.1224(2) 0.6525(6) 0.0609(2)
H10D H -0.1195 0.7372 0.0332
C11D C -0.0743(2) 0.6456(6) 0.1198(2)
H11D H -0.0386 0.7289 0.1320
N2D N -0.07506(19) 0.5285(5) 0.16063(17)
N2E N 0.07506(19) 0.5285(5) 0.33937(17)
C12D C -0.1261(2) 0.4138(6) 0.1433(2)
H12D H -0.1273 0.3301 0.1720
C13D C -0.1769(2) 0.4115(7) 0.0859(2)
H13D H -0.2127 0.3288 0.0755
loop_
_geom_bond_atom_site_label_1
_geom_bond_atom_site_label_2
_geom_bond_site_symmetry_1
_geom_bond_site_symmetry_2
Cl1 C1 1_555 1_555
C1 H1 1_555 1_555
Zn1 F1 1_555 1_555
Si1 F1 1_555 1_555
F2 Si1 1_555 1_555
F3 Si1 1_555 1_555
F4 Si1 1_555 1_555
N1 Zn1 1_555 1_555
C2 N1 1_555 1_555
H2 C2 1_555 1_555
C3 C2 1_555 1_555
H3 C3 1_555 1_555
C4 C3 1_555 1_555
C5 C4 1_555 1_555
H4 C5 1_555 1_555
C6 N1 1_555 1_555
H5 C6 1_555 1_555
S1 C4 1_555 1_555
C7 S1 1_555 1_555
H6 C7 1_555 1_555
H7 C7 1_555 1_555
C8 C7 1_555 1_555
H8 C8 1_555 1_555
H9 C8 1_555 1_555
S2 C8 1_555 1_555
C9 S2 1_555 1_555
C10 C9 1_555 1_555
H10 C10 1_555 1_555
C11 C10 1_555 1_555
H11 C11 1_555 1_555
N2 C11 1_555 1_555
C12 N2 1_555 1_555
H12 C12 1_555 1_555
C13 C9 1_555 1_555
H13 C13 1_555 1_555
Cl2 C1 1_555 1_555
Cl3 C1 1_555 1_555
Zn1_2 F4 1_555 1_555
Zn1D N2 1_555 1_555
F2A Si1 1_555 1_555
F3A Si1 1_555 1_555
F4_2 Zn1 1_555 1_555
N1D Zn1D 1_555 1_555
N1A Zn1 1_555 1_555
C2D N1D 1_555 1_555
H2D C2D 1_555 1_555
C3D C2D 1_555 1_555
H3D C3D 1_555 1_555
C4D C3D 1_555 1_555
C5D C4D 1_555 1_555
H4D C5D 1_555 1_555
C6D N1D 1_555 1_555
H5D C6D 1_555 1_555
S1D C4D 1_555 1_555
C7D S1D 1_555 1_555
H6D C7D 1_555 1_555
H7D C7D 1_555 1_555
C8D C7D 1_555 1_555
H8D C8D 1_555 1_555
H9D C8D 1_555 1_555
S2D C8D 1_555 1_555
C9D S2D 1_555 1_555
C10D C9D 1_555 1_555
H10D C10D 1_555 1_555
C11D C10D 1_555 1_555
H11D C11D 1_555 1_555
N2D Zn1 1_555 1_555
N2E Zn1 1_555 1_555
C12D N2D 1_555 1_555
H12D C12D 1_555 1_555
C13D C9D 1_555 1_555
H13D C13D 1_555 1_555
C5 C6 1_555 1_555
C12 C13 1_555 1_555
C5D C6D 1_555 1_555
C11D N2D 1_555 1_555
C12D C13D 1_555 1_555

#END
