
#######################################################################
#
#                 Cambridge Crystallographic Data Centre
#                                CCDC 
#
#######################################################################
#
# If this CIF has been generated from an entry in the Cambridge 
# Structural Database, then it will include bibliographic, chemical, 
# crystal, experimental, refinement or atomic coordinate data resulting 
# from the CCDC's data processing and validation procedures.
#
#######################################################################

data_HUKSIQ
_symmetry_cell_setting           monoclinic
_symmetry_space_group_name_H-M   'C 2/c'
_symmetry_Int_Tables_number      15
_space_group_name_Hall           '-C 2yn'
loop_
_symmetry_equiv_pos_site_id
_symmetry_equiv_pos_as_xyz
1 x,y,z
2 -x,y,1/2-z
3 1/2+x,1/2+y,z
4 1/2-x,1/2+y,1/2-z
5 -x,-y,-z
6 x,-y,1/2+z
7 1/2-x,1/2-y,-z
8 1/2+x,1/2-y,1/2+z
_cell_length_a                   21.6498(14)
_cell_length_b                   7.7080(5)
_cell_length_c                   28.670(2)
_cell_angle_alpha                90
_cell_angle_beta                 111.5450(10)
_cell_angle_gamma                90
_cell_volume                     4450.07
loop_
_atom_site_label
_atom_site_type_symbol
_atom_site_fract_x
_atom_site_fract_y
_atom_site_fract_z
Zn1 Zn 0.5000 0.33949(7) 0.2500
Si1 Si 0.5000 -0.16158(17) 0.2500
F1 F 0.5000 0.0621(4) 0.2500
F2 F 0.5000 -0.3856(4) 0.2500
F3 F 0.42554(12) -0.1590(3) 0.20303(10)
F4 F 0.53669(14) -0.1612(3) 0.20837(11)
N1 N 0.60661(15) 0.3387(4) 0.27214(12)
C1 C 0.6394(2) 0.1953(5) 0.26829(16)
H1 H 0.6147 0.0917 0.2566
C2 C 0.70690(19) 0.1913(5) 0.28051(16)
H2 H 0.7278 0.0862 0.2771
C3 C 0.74520(18) 0.3410(5) 0.29790(14)
C4 C 0.71089(19) 0.4890(5) 0.30253(16)
H3 H 0.7343 0.5940 0.3147
C5 C 0.6433(2) 0.4826(5) 0.28952(16)
H4 H 0.6211 0.5854 0.2929
S1 S 0.82969(5) 0.32674(14) 0.30826(4)
C6 C 0.8645(2) 0.5220(6) 0.34349(16)
H5 H 0.9097 0.5394 0.3434
H6 H 0.8371 0.6224 0.3261
C7 C 0.8684(2) 0.5202(7) 0.39766(18)
H7 H 0.8840 0.6348 0.4131
H8 H 0.8235 0.5001 0.3982
C8 C 0.9150(3) 0.3809(7) 0.42817(19)
H9 H 0.9597 0.4002 0.4271
H10 H 0.8990 0.2663 0.4129
C9 C 0.9202(3) 0.3791(7) 0.48279(19)
H11 H 0.9371 0.4916 0.4991
H12 H 0.8762 0.3568 0.4848
S2 S 0.97722(8) 0.2068(2) 0.51262(5)
C10 C 0.9804(3) 0.2012(6) 0.57457(17)
C11 C 1.0170(3) 0.0698(7) 0.60460(19)
H13 H 1.0393 -0.0125 0.5917
C12 C 1.0209(3) 0.0590(6) 0.65377(17)
H14 H 1.0459 -0.0329 0.6741
N2 N 0.99077(16) 0.1729(4) 0.67408(13)
C13 C 0.9554(2) 0.3008(5) 0.64427(15)
H15 H 0.9340 0.3829 0.6580
C14 C 0.9487(2) 0.3183(6) 0.59522(17)
H16 H 0.9226 0.4096 0.5754
Zn1_2 Zn 0.5000 -0.66051(7) 0.2500
Zn1F Zn 1.0000 0.16051(7) 0.7500
Zn1F_2 Zn 0.0000 0.16051(7) -0.2500
F2_2 F 0.5000 0.6144(4) 0.2500
F3A F 0.57446(12) -0.1590(3) 0.29697(10)
F4A F 0.46331(14) -0.1612(3) 0.29163(11)
N1G N 0.10661(15) 0.1613(4) -0.22786(12)
N1A N 0.39339(15) 0.3387(4) 0.22786(12)
C1G C 0.1394(2) 0.3047(5) -0.23171(16)
H1G H 0.1147 0.4083 -0.2434
C2G C 0.20690(19) 0.3087(5) -0.21949(16)
H2G H 0.2278 0.4138 -0.2229
C3G C 0.24520(18) 0.1590(5) -0.20210(14)
C4G C 0.21089(19) 0.0110(5) -0.19747(16)
H3G H 0.2343 -0.0940 -0.1853
C5G C 0.1433(2) 0.0174(5) -0.21048(16)
H4G H 0.1211 -0.0854 -0.2071
S1G S 0.32969(5) 0.17326(14) -0.19174(4)
C6G C 0.3645(2) -0.0220(6) -0.15651(16)
H5G H 0.4097 -0.0394 -0.1566
H6G H 0.3371 -0.1224 -0.1739
C7G C 0.3684(2) -0.0202(7) -0.10234(18)
H7G H 0.3840 -0.1348 -0.0869
H8G H 0.3235 -0.0001 -0.1018
C8G C 0.4150(3) 0.1191(7) -0.07183(19)
H9G H 0.4597 0.0998 -0.0729
H10G H 0.3990 0.2337 -0.0871
C9G C 0.4202(3) 0.1209(7) -0.01721(19)
H11G H 0.4371 0.0084 -0.0009
H12G H 0.3762 0.1432 -0.0152
S2G S 0.47722(8) 0.2932(2) 0.01262(5)
C10G C 0.4804(3) 0.2988(6) 0.07457(17)
C11G C 0.5170(3) 0.4302(7) 0.10460(19)
H13G H 0.5393 0.5125 0.0917
C12G C 0.5209(3) 0.4410(6) 0.15377(17)
H14G H 0.5459 0.5329 0.1741
N2G N 0.49077(16) 0.3271(4) 0.17408(13)
N2F N 0.50923(16) 0.3271(4) 0.32592(13)
C13G C 0.4554(2) 0.1992(5) 0.14427(15)
H15G H 0.4340 0.1171 0.1580
C14G C 0.4487(2) 0.1817(6) 0.09522(17)
H16G H 0.4226 0.0904 0.0754
loop_
_geom_bond_atom_site_label_1
_geom_bond_atom_site_label_2
_geom_bond_site_symmetry_1
_geom_bond_site_symmetry_2
Zn1 F1 1_555 1_555
Si1 F1 1_555 1_555
F2 Si1 1_555 1_555
F3 Si1 1_555 1_555
F4 Si1 1_555 1_555
N1 Zn1 1_555 1_555
C1 N1 1_555 1_555
H1 C1 1_555 1_555
C2 C1 1_555 1_555
H2 C2 1_555 1_555
C3 C2 1_555 1_555
C4 C3 1_555 1_555
H3 C4 1_555 1_555
C5 N1 1_555 1_555
H4 C5 1_555 1_555
S1 C3 1_555 1_555
C6 S1 1_555 1_555
H5 C6 1_555 1_555
H6 C6 1_555 1_555
C7 C6 1_555 1_555
H7 C7 1_555 1_555
H8 C7 1_555 1_555
C8 C7 1_555 1_555
H9 C8 1_555 1_555
H10 C8 1_555 1_555
C9 C8 1_555 1_555
H11 C9 1_555 1_555
H12 C9 1_555 1_555
S2 C9 1_555 1_555
C10 S2 1_555 1_555
C11 C10 1_555 1_555
H13 C11 1_555 1_555
C12 C11 1_555 1_555
H14 C12 1_555 1_555
N2 C12 1_555 1_555
C13 N2 1_555 1_555
H15 C13 1_555 1_555
C14 C10 1_555 1_555
H16 C14 1_555 1_555
Zn1_2 F2 1_555 1_555
Zn1F N2 1_555 1_555
Zn1F_2 N1G 1_555 1_555
F2_2 Zn1 1_555 1_555
F3A Si1 1_555 1_555
F4A Si1 1_555 1_555
N1G C1G 1_555 1_555
N1A Zn1 1_555 1_555
C1G H1G 1_555 1_555
C2G C1G 1_555 1_555
H2G C2G 1_555 1_555
C3G C2G 1_555 1_555
C4G C3G 1_555 1_555
H3G C4G 1_555 1_555
C5G N1G 1_555 1_555
H4G C5G 1_555 1_555
S1G C3G 1_555 1_555
C6G S1G 1_555 1_555
H5G C6G 1_555 1_555
H6G C6G 1_555 1_555
C7G C6G 1_555 1_555
H7G C7G 1_555 1_555
H8G C7G 1_555 1_555
C8G C7G 1_555 1_555
H9G C8G 1_555 1_555
H10G C8G 1_555 1_555
C9G C8G 1_555 1_555
H11G C9G 1_555 1_555
H12G C9G 1_555 1_555
S2G C9G 1_555 1_555
C10G S2G 1_555 1_555
C11G C10G 1_555 1_555
H13G C11G 1_555 1_555
C12G C11G 1_555 1_555
H14G C12G 1_555 1_555
N2G Zn1 1_555 1_555
N2F Zn1 1_555 1_555
C13G N2G 1_555 1_555
H15G C13G 1_555 1_555
C14G C10G 1_555 1_555
H16G C14G 1_555 1_555
C4 C5 1_555 1_555
C13 C14 1_555 1_555
C4G C5G 1_555 1_555
C12G N2G 1_555 1_555
C13G C14G 1_555 1_555

#END
