
#######################################################################
#
#                 Cambridge Crystallographic Data Centre
#                                CCDC 
#
#######################################################################
#
# If this CIF has been generated from an entry in the Cambridge 
# Structural Database, then it will include bibliographic, chemical, 
# crystal, experimental, refinement or atomic coordinate data resulting 
# from the CCDC's data processing and validation procedures.
#
#######################################################################

data_HUKSOW
_symmetry_cell_setting           monoclinic
_symmetry_space_group_name_H-M   'C 2/c'
_symmetry_Int_Tables_number      15
_space_group_name_Hall           '-C 2yn'
loop_
_symmetry_equiv_pos_site_id
_symmetry_equiv_pos_as_xyz
1 x,y,z
2 -x,y,1/2-z
3 1/2+x,1/2+y,z
4 1/2-x,1/2+y,1/2-z
5 -x,-y,-z
6 x,-y,1/2+z
7 1/2-x,1/2-y,-z
8 1/2+x,1/2-y,1/2+z
_cell_length_a                   22.512(2)
_cell_length_b                   14.5274(17)
_cell_length_c                   15.2352(16)
_cell_angle_alpha                90
_cell_angle_beta                 112.227(3)
_cell_angle_gamma                90
_cell_volume                     4612.29
loop_
_atom_site_label
_atom_site_type_symbol
_atom_site_fract_x
_atom_site_fract_y
_atom_site_fract_z
Zn1 Zn 0.5000 0.0000 0.0000
Si1 Si 0.5000 0.01518(16) 0.2500
F1 F 0.49825(18) 0.0142(3) 0.1351(3)
F2 F 0.5000 0.1292(4) 0.2500
F3 F 0.42040(19) 0.0140(3) 0.2077(3)
F4 F 0.5000 -0.1003(4) 0.2500
N1 N 0.4199(3) 0.0948(4) -0.0507(4)
C1 C 0.3824(4) 0.1182(6) -0.0052(5)
H1 H 0.3901 0.0897 0.0542
C2 C 0.3327(4) 0.1815(6) -0.0383(6)
H2 H 0.3064 0.1946 -0.0036
C3 C 0.3227(3) 0.2251(5) -0.1236(5)
C4 C 0.3613(3) 0.2027(5) -0.1723(5)
H3 H 0.3553 0.2318 -0.2309
C5 C 0.4090(3) 0.1375(5) -0.1349(5)
H4 H 0.4350 0.1219 -0.1693
C6 C 0.2702(3) 0.2970(5) -0.1583(5)
O1 O 0.2306(3) 0.3052(4) -0.1249(4)
S1 S 0.27395(9) 0.36795(13) -0.24984(13)
C7 C 0.2112(4) 0.4470(5) -0.2575(5)
H5 H 0.1739 0.4117 -0.2565
H6 H 0.1977 0.4796 -0.3190
C8 C 0.2300(4) 0.5178(5) -0.1784(6)
H7 H 0.1919 0.5548 -0.1833
H8 H 0.2456 0.4861 -0.1163
S2 S 0.29204(10) 0.59306(15) -0.18543(15)
C9 C 0.3041(4) 0.6597(5) -0.0848(6)
O2 O 0.2765(3) 0.6440(5) -0.0304(6)
C10 C 0.3519(3) 0.7368(5) -0.0664(5)
C11 C 0.3542(4) 0.8011(6) 0.0017(6)
H9 H 0.3265 0.7956 0.0354
C12 C 0.3975(3) 0.8738(5) 0.0203(5)
H10 H 0.3995 0.9172 0.0681
N2 N 0.4366(3) 0.8845(4) -0.0276(4)
C13 C 0.4345(3) 0.8209(5) -0.0929(5)
H11 H 0.4626 0.8276 -0.1258
C14 C 0.3935(4) 0.7470(5) -0.1143(5)
H12 H 0.3935 0.7034 -0.1608
Zn1_2 Zn 0.5000 1.0000 0.0000
Zn1A Zn 0.5000 0.0000 0.5000
Zn1_3 Zn 0.5000 -1.0000 0.0000
F1A F 0.50175(18) 0.0142(3) 0.3649(3)
F1D F 0.50175(18) -0.0142(3) -0.1351(3)
F3A F 0.57960(19) 0.0140(3) 0.2923(3)
N1D N 0.5801(3) -0.0948(4) 0.0507(4)
C1D C 0.6176(4) -0.1182(6) 0.0052(5)
H1D H 0.6099 -0.0897 -0.0542
C2D C 0.6673(4) -0.1815(6) 0.0383(6)
H2D H 0.6936 -0.1946 0.0036
C3D C 0.6773(3) -0.2251(5) 0.1236(5)
C4D C 0.6387(3) -0.2027(5) 0.1723(5)
H3D H 0.6447 -0.2318 0.2309
C5D C 0.5910(3) -0.1375(5) 0.1349(5)
H4D H 0.5650 -0.1219 0.1693
C6D C 0.7298(3) -0.2970(5) 0.1583(5)
O1D O 0.7694(3) -0.3052(4) 0.1249(4)
S1D S 0.72605(9) -0.36795(13) 0.24984(13)
C7D C 0.7888(4) -0.4470(5) 0.2575(5)
H5D H 0.8261 -0.4117 0.2565
H6D H 0.8023 -0.4796 0.3190
C8D C 0.7700(4) -0.5178(5) 0.1784(6)
H7D H 0.8081 -0.5548 0.1833
H8D H 0.7544 -0.4861 0.1163
S2D S 0.70796(10) -0.59306(15) 0.18543(15)
C9D C 0.6959(4) -0.6597(5) 0.0848(6)
O2D O 0.7235(3) -0.6440(5) 0.0304(6)
C10D C 0.6481(3) -0.7368(5) 0.0664(5)
C11D C 0.6458(4) -0.8011(6) -0.0017(6)
H9D H 0.6735 -0.7956 -0.0354
C12D C 0.6025(3) -0.8738(5) -0.0203(5)
H10D H 0.6005 -0.9172 -0.0681
N2D N 0.5634(3) -0.8845(4) 0.0276(4)
N2_2 N 0.4366(3) -0.1155(4) -0.0276(4)
N2D_2 N 0.5634(3) 0.1155(4) 0.0276(4)
C13D C 0.5655(3) -0.8209(5) 0.0929(5)
H11D H 0.5374 -0.8276 0.1258
C14D C 0.6065(4) -0.7470(5) 0.1143(5)
H12D H 0.6065 -0.7034 0.1608
C15 C 0.5883(14) 0.592(2) 0.8924(17)
H13 H 0.5637 0.5433 0.8460
Cl1 Cl 0.6798(6) 0.5779(7) 0.9176(6)
Cl2 Cl 0.5675(4) 0.7006(5) 0.8400(5)
Cl3 Cl 0.5899(7) 0.5655(10) 0.9966(6)
O3 O 0.4183(5) 0.3599(7) 0.6934(10)
H14 H 0.4161 0.4148 0.6752
C16 C 0.4767(13) 0.316(2) 0.688(2)
H15 H 0.4657 0.2509 0.6688
C17 C 0.5081(6) 0.3572(8) 0.6223(9)
H17 H 0.4793 0.4032 0.5806
H18 H 0.5159 0.3081 0.5839
H19 H 0.5489 0.3864 0.6609
H16? H 0.5098 0.3146 0.7533
loop_
_geom_bond_atom_site_label_1
_geom_bond_atom_site_label_2
_geom_bond_site_symmetry_1
_geom_bond_site_symmetry_2
Zn1 F1 1_555 1_555
Si1 F1 1_555 1_555
F2 Si1 1_555 1_555
F3 Si1 1_555 1_555
F4 Si1 1_555 1_555
N1 Zn1 1_555 1_555
C1 N1 1_555 1_555
H1 C1 1_555 1_555
C2 C1 1_555 1_555
H2 C2 1_555 1_555
C3 C2 1_555 1_555
C4 C3 1_555 1_555
H3 C4 1_555 1_555
C5 N1 1_555 1_555
H4 C5 1_555 1_555
C6 C3 1_555 1_555
O1 C6 1_555 1_555
S1 C6 1_555 1_555
C7 S1 1_555 1_555
H5 C7 1_555 1_555
H6 C7 1_555 1_555
C8 C7 1_555 1_555
H7 C8 1_555 1_555
H8 C8 1_555 1_555
S2 C8 1_555 1_555
C9 S2 1_555 1_555
O2 C9 1_555 1_555
C10 C9 1_555 1_555
C11 C10 1_555 1_555
H9 C11 1_555 1_555
C12 C11 1_555 1_555
H10 C12 1_555 1_555
N2 C12 1_555 1_555
C13 N2 1_555 1_555
H11 C13 1_555 1_555
C14 C10 1_555 1_555
H12 C14 1_555 1_555
C15 H13 1_555 1_555
Cl1 C15 1_555 1_555
Cl2 C15 1_555 1_555
Cl3 C15 1_555 1_555
O3 H14 1_555 1_555
C16 O3 1_555 1_555
H15 C16 1_555 1_555
C17 C16 1_555 1_555
H17 C17 1_555 1_555
H18 C17 1_555 1_555
H19 C17 1_555 1_555
Zn1_2 N2 1_555 1_555
Zn1A F1A 1_555 1_555
Zn1_3 N2D 1_555 1_555
F1A Si1 1_555 1_555
F1D Zn1 1_555 1_555
F3A Si1 1_555 1_555
N1D Zn1 1_555 1_555
C1D N1D 1_555 1_555
H1D C1D 1_555 1_555
C2D C1D 1_555 1_555
H2D C2D 1_555 1_555
C3D C2D 1_555 1_555
C4D C3D 1_555 1_555
H3D C4D 1_555 1_555
C5D N1D 1_555 1_555
H4D C5D 1_555 1_555
C6D C3D 1_555 1_555
O1D C6D 1_555 1_555
S1D C6D 1_555 1_555
C7D S1D 1_555 1_555
H5D C7D 1_555 1_555
H6D C7D 1_555 1_555
C8D C7D 1_555 1_555
H7D C8D 1_555 1_555
H8D C8D 1_555 1_555
S2D C8D 1_555 1_555
C9D S2D 1_555 1_555
O2D C9D 1_555 1_555
C10D C9D 1_555 1_555
C11D C10D 1_555 1_555
H9D C11D 1_555 1_555
C12D C11D 1_555 1_555
H10D C12D 1_555 1_555
N2D C12D 1_555 1_555
N2_2 Zn1 1_555 1_555
N2D_2 Zn1 1_555 1_555
C13D N2D 1_555 1_555
H11D C13D 1_555 1_555
C14D C10D 1_555 1_555
H12D C14D 1_555 1_555
C4 C5 1_555 1_555
C13 C14 1_555 1_555
C4D C5D 1_555 1_555
C13D C14D 1_555 1_555

#END
