
#######################################################################
#
#                 Cambridge Crystallographic Data Centre
#                                CCDC 
#
#######################################################################
#
# If this CIF has been generated from an entry in the Cambridge 
# Structural Database, then it will include bibliographic, chemical, 
# crystal, experimental, refinement or atomic coordinate data resulting 
# from the CCDC's data processing and validation procedures.
#
#######################################################################

data_HUKYIX
_symmetry_cell_setting           orthorhombic
_symmetry_space_group_name_H-M   'P b c a'
_symmetry_Int_Tables_number      61
_space_group_name_Hall           '-P 2ac 2ab'
loop_
_symmetry_equiv_pos_site_id
_symmetry_equiv_pos_as_xyz
1 x,y,z
2 1/2-x,-y,1/2+z
3 -x,1/2+y,1/2-z
4 1/2+x,1/2-y,-z
5 -x,-y,-z
6 1/2+x,y,1/2-z
7 x,1/2-y,1/2+z
8 1/2-x,1/2+y,z
_cell_length_a                   10.7029(4)
_cell_length_b                   14.6422(6)
_cell_length_c                   17.8357(8)
_cell_angle_alpha                90
_cell_angle_beta                 90
_cell_angle_gamma                90
_cell_volume                     2795.1
loop_
_atom_site_label
_atom_site_type_symbol
_atom_site_fract_x
_atom_site_fract_y
_atom_site_fract_z
Cd1 Cd 0.549964(19) 0.120160(14) 0.564597(12)
C1 C 0.3952(3) 0.1406(2) 0.70906(17)
C2 C 0.3862(3) 0.0196(2) 0.7803(2)
H1 H 0.3674 -0.0204 0.8192
C3 C 0.4584(3) 0.0018(2) 0.72022(19)
H2 H 0.4980 -0.0535 0.7107
C4 C 0.3754(3) 0.2298(2) 0.67596(17)
C5 C 0.3771(3) 0.3347(2) 0.59217(19)
H3 H 0.3893 0.3652 0.5470
C6 C 0.3264(3) 0.3718(2) 0.65430(19)
H4 H 0.2976 0.4314 0.6599
C7 C 0.0794(3) 0.2330(2) 0.57763(18)
H5 H 0.0314 0.2745 0.6046
C8 C 0.1111(3) 0.1509(2) 0.60970(19)
H6 H 0.0807 0.1374 0.6573
C9 C 0.2237(3) 0.1122(2) 0.50700(17)
C10 C 0.3176(3) 0.0466(2) 0.47311(18)
C11 C 0.1874(2) 0.19306(19) 0.47210(17)
C12 C 0.2226(3) 0.2161(2) 0.39213(17)
N1 N 0.4080(2) 0.24512(19) 0.60554(15)
N2 N 0.3257(2) 0.30482(18) 0.70728(15)
H7 H 0.2984 0.3097 0.7525
N3 N 0.3457(3) 0.10762(18) 0.77291(14)
H8 H 0.2975 0.1365 0.8034
N4 N 0.4647(2) 0.07765(18) 0.67524(15)
N5 N 0.1836(2) 0.08980(19) 0.57546(15)
N6 N 0.1162(2) 0.25398(17) 0.50863(14)
O1 O 0.42891(19) 0.07354(16) 0.46893(13)
O2 O 0.2799(2) -0.03012(15) 0.45414(14)
O3 O 0.2717(2) 0.15508(16) 0.35460(13)
O4 O 0.1986(2) 0.29515(14) 0.36950(12)
Cd1C Cd 0.049964(19) 0.379840(14) 0.435403(12)
Cd1D Cd 0.450036(19) -0.120160(14) 0.435403(12)
N6C N 0.6162(2) 0.24602(17) 0.49137(14)
O2D O 0.7201(2) 0.03012(15) 0.54586(14)
O4C O 0.6986(2) 0.20485(14) 0.63050(12)
loop_
_geom_bond_atom_site_label_1
_geom_bond_atom_site_label_2
_geom_bond_site_symmetry_1
_geom_bond_site_symmetry_2
Cd1 N1 1_555 1_555
C1 C4 1_555 1_555
C2 H1 1_555 1_555
C3 C2 1_555 1_555
H2 C3 1_555 1_555
C4 N1 1_555 1_555
C5 H3 1_555 1_555
C6 C5 1_555 1_555
H4 C6 1_555 1_555
C7 H5 1_555 1_555
C8 C7 1_555 1_555
H6 C8 1_555 1_555
C9 C10 1_555 1_555
C10 O1 1_555 1_555
C11 C9 1_555 1_555
C12 C11 1_555 1_555
N1 C5 1_555 1_555
N2 C4 1_555 1_555
H7 N2 1_555 1_555
N3 C1 1_555 1_555
H8 N3 1_555 1_555
N4 Cd1 1_555 1_555
N5 C8 1_555 1_555
N6 C7 1_555 1_555
O1 Cd1 1_555 1_555
O2 C10 1_555 1_555
O3 C12 1_555 1_555
O4 C12 1_555 1_555
Cd1C N6 1_555 1_555
Cd1D O2 1_555 1_555
N6C Cd1 1_555 1_555
O2D Cd1 1_555 1_555
O4C Cd1 1_555 1_555
C1 N4 1_555 1_555
C2 N3 1_555 1_555
C3 N4 1_555 1_555
C6 N2 1_555 1_555
C9 N5 1_555 1_555
C11 N6 1_555 1_555
O4 Cd1C 1_555 1_555

#END
