
#######################################################################
#
#                 Cambridge Crystallographic Data Centre
#                                CCDC 
#
#######################################################################
#
# If this CIF has been generated from an entry in the Cambridge 
# Structural Database, then it will include bibliographic, chemical, 
# crystal, experimental, refinement or atomic coordinate data resulting 
# from the CCDC's data processing and validation procedures.
#
#######################################################################

data_HUKYAP
_symmetry_cell_setting           triclinic
_symmetry_space_group_name_H-M   'P -1'
_symmetry_Int_Tables_number      2
_space_group_name_Hall           '-P 1'
loop_
_symmetry_equiv_pos_site_id
_symmetry_equiv_pos_as_xyz
1 x,y,z
2 -x,-y,-z
_cell_length_a                   8.2763(8)
_cell_length_b                   8.3342(8)
_cell_length_c                   8.8041(14)
_cell_angle_alpha                107.567(2)
_cell_angle_beta                 107.865(2)
_cell_angle_gamma                102.6640(10)
_cell_volume                     517.479
loop_
_atom_site_label
_atom_site_type_symbol
_atom_site_fract_x
_atom_site_fract_y
_atom_site_fract_z
Cd1 Cd 0.08203(6) 0.30841(5) 1.09710(5)
O1 O 0.1778(6) 0.5193(5) 0.9647(5)
O2 O 0.5622(6) 0.1720(6) 0.7632(6)
H1 H 0.6367 0.2673 0.8294
O3 O 0.0586(6) -0.1382(5) 0.1755(5)
O4 O -0.0631(5) 0.0705(5) 0.1485(5)
O5 O -0.0211(6) 0.4973(6) 0.7183(5)
N1 N 0.3713(7) 0.3434(6) 1.2663(6)
N2 N 0.6392(7) 0.3678(7) 1.4390(6)
H2 H 0.7353 0.4027 1.5311
C1 C 0.5004(7) 0.4298(7) 1.4266(7)
C2 C 0.4330(8) 0.2235(8) 1.1773(8)
H3 H 0.3699 0.1434 1.0617
C3 C 0.5984(9) 0.2380(8) 1.2813(8)
H4 H 0.6700 0.1728 1.2515
C4 C 0.1794(7) 0.3348(7) 0.6974(7)
C5 C 0.0855(8) 0.2419(7) 0.5198(7)
H5 H -0.0174 0.2627 0.4621
C6 C 0.1444(7) 0.1173(7) 0.4269(7)
C7 C 0.3027(8) 0.0913(7) 0.5125(7)
H6 H 0.3408 0.0056 0.4520
C8 C 0.4027(8) 0.1944(8) 0.6888(8)
C9 C 0.3381(8) 0.3107(7) 0.7824(7)
H7 H 0.4010 0.3726 0.9021
C10 C 0.1088(8) 0.4581(7) 0.8010(7)
C11 C 0.0394(8) 0.0095(7) 0.2359(7)
N1A N 0.6287(7) 0.6566(6) 1.7337(6)
N2A N 0.3608(7) 0.6322(7) 1.5610(6)
H2A H 0.2647 0.5973 1.4689
C1A C 0.4996(7) 0.5702(7) 1.5734(7)
C2A C 0.5670(8) 0.7765(8) 1.8227(8)
H3A H 0.6301 0.8566 1.9383
C3A C 0.4016(9) 0.7620(8) 1.7187(8)
H4A H 0.3300 0.8272 1.7485
Cd1A Cd -0.08203(6) -0.30841(5) -0.09710(5)
O1A O -0.1778(6) -0.5193(5) 0.0353(5)
O2A O -0.5622(6) -0.1720(6) 0.2368(6)
H1A H -0.6367 -0.2673 0.1706
O3A O -0.0586(6) 0.1382(5) 0.8245(5)
O4A O 0.0631(5) -0.0705(5) 0.8515(5)
O5A O 0.0211(6) -0.4973(6) 0.2817(5)
C4A C -0.1794(7) -0.3348(7) 0.3026(7)
C5A C -0.0855(8) -0.2419(7) 0.4802(7)
H5A H 0.0174 -0.2627 0.5379
C6A C -0.1444(7) -0.1173(7) 0.5731(7)
C7A C -0.3027(8) -0.0913(7) 0.4875(7)
H6A H -0.3408 -0.0056 0.5480
C8A C -0.4027(8) -0.1944(8) 0.3112(8)
C9A C -0.3381(8) -0.3107(7) 0.2176(7)
H7A H -0.4010 -0.3726 0.0979
C10A C -0.1088(8) -0.4581(7) 0.1990(7)
C11A C -0.0394(8) -0.0095(7) 0.7641(7)
Cd1_2 Cd 0.08203(6) -0.69159(5) 0.09710(5)
Cd1_3 Cd 0.08203(6) 0.30841(5) 0.09710(5)
Cd1A_2 Cd -0.08203(6) -0.30841(5) 0.90290(5)
Cd1A_3 Cd -0.08203(6) 0.69159(5) 0.90290(5)
Cd1A_4 Cd 0.91797(6) 0.69159(5) 1.90290(5)
O4_2 O -0.0631(5) 0.0705(5) 1.1485(5)
O4A_2 O 0.0631(5) -0.0705(5) -0.1485(5)
O5_2 O -0.0211(6) -0.5027(6) -0.2817(5)
O5A_2 O 0.0211(6) 0.5027(6) 1.2817(5)
N1A_2 N -0.3713(7) -0.3434(6) -0.2663(6)
loop_
_geom_bond_atom_site_label_1
_geom_bond_atom_site_label_2
_geom_bond_site_symmetry_1
_geom_bond_site_symmetry_2
Cd1 O1 1_555 1_555
O1 C10 1_555 1_555
O2 H1 1_555 1_555
O3 C11 1_555 1_555
O4 C11 1_555 1_555
O5 C10 1_555 1_555
N1 Cd1 1_555 1_555
N2 H2 1_555 1_555
C1 N1 1_555 1_555
C2 N1 1_555 1_555
H3 C2 1_555 1_555
C3 N2 1_555 1_555
H4 C3 1_555 1_555
C4 C5 1_555 1_555
C5 H5 1_555 1_555
C6 C5 1_555 1_555
C7 C6 1_555 1_555
H6 C7 1_555 1_555
C8 O2 1_555 1_555
C9 C4 1_555 1_555
H7 C9 1_555 1_555
C10 C4 1_555 1_555
C11 C6 1_555 1_555
N1A C1A 1_555 1_555
N2A H2A 1_555 1_555
C1A C1 1_555 1_555
C2A N1A 1_555 1_555
H3A C2A 1_555 1_555
C3A N2A 1_555 1_555
H4A C3A 1_555 1_555
Cd1A O3 1_555 1_555
O1A Cd1A 1_555 1_555
O2A H1A 1_555 1_555
O3A Cd1 1_555 1_555
O4A C11A 1_555 1_555
O5A C10A 1_555 1_555
C4A C5A 1_555 1_555
C5A H5A 1_555 1_555
C6A C5A 1_555 1_555
C7A C6A 1_555 1_555
H6A C7A 1_555 1_555
C8A O2A 1_555 1_555
C9A C4A 1_555 1_555
H7A C9A 1_555 1_555
C10A O1A 1_555 1_555
C11A O3A 1_555 1_555
Cd1_2 O5A 1_555 1_555
Cd1_3 O4 1_555 1_555
Cd1A_2 O4A 1_555 1_555
Cd1A_3 O5 1_555 1_555
Cd1A_4 N1A 1_555 1_555
O4_2 Cd1 1_555 1_555
O4A_2 Cd1A 1_555 1_555
O5_2 Cd1A 1_555 1_555
O5A_2 Cd1 1_555 1_555
N1A_2 Cd1A 1_555 1_555
N2 C1 1_555 1_555
C2 C3 1_555 1_555
C7 C8 1_555 1_555
C8 C9 1_555 1_555
N2A C1A 1_555 1_555
C2A C3A 1_555 1_555
C4A C10A 1_555 1_555
C6A C11A 1_555 1_555
C7A C8A 1_555 1_555
C8A C9A 1_555 1_555

#END
