
#######################################################################
#
#                 Cambridge Crystallographic Data Centre
#                                CCDC 
#
#######################################################################
#
# If this CIF has been generated from an entry in the Cambridge 
# Structural Database, then it will include bibliographic, chemical, 
# crystal, experimental, refinement or atomic coordinate data resulting 
# from the CCDC's data processing and validation procedures.
#
#######################################################################

data_HUKZUK
_symmetry_cell_setting           monoclinic
_symmetry_space_group_name_H-M   'P 21/c'
_symmetry_Int_Tables_number      14
_space_group_name_Hall           '-P 2ybc'
loop_
_symmetry_equiv_pos_site_id
_symmetry_equiv_pos_as_xyz
1 x,y,z
2 -x,1/2+y,1/2-z
3 -x,-y,-z
4 x,1/2-y,1/2+z
_cell_length_a                   16.0457(12)
_cell_length_b                   14.7446(11)
_cell_length_c                   8.2511(6)
_cell_angle_alpha                90
_cell_angle_beta                 96.6100(10)
_cell_angle_gamma                90
_cell_volume                     1939.13
loop_
_atom_site_label
_atom_site_type_symbol
_atom_site_fract_x
_atom_site_fract_y
_atom_site_fract_z
O1 O -0.4247(2) 0.1375(2) -0.3914(5)
O2 O -0.3630(2) 0.0034(2) -0.3313(5)
O3 O 0.3503(2) 0.3152(2) 0.7409(4)
Sm1 Sm 0.448399(13) 0.117054(13) 0.43855(3)
C1 C 0.2461(3) 0.2562(3) 0.5447(6)
C2 C 0.2119(3) 0.3411(3) 0.5089(6)
H1 H 0.2391 0.3926 0.5535
C3 C 0.1386(3) 0.3499(3) 0.4085(7)
H2 H 0.1168 0.4074 0.3847
C4 C 0.2040(3) 0.1796(3) 0.4803(6)
H3 H 0.2260 0.1222 0.5046
C5 C 0.0957(3) 0.2740(3) 0.3410(6)
C6 C -0.0911(3) 0.2640(3) 0.0644(6)
C7 C 0.0194(3) 0.2843(3) 0.2285(6)
C8 C 0.1293(3) 0.1890(3) 0.3801(6)
H4 H 0.1010 0.1375 0.3383
N1 N -0.0308(2) 0.2184(3) 0.1619(5)
N2 N -0.0103(3) 0.3660(3) 0.1727(5)
N3 N -0.0803(3) 0.3534(3) 0.0679(5)
H5 H -0.1110 0.3939 0.0153
C9 C 0.3289(3) 0.2499(3) 0.6488(5)
O4 O 0.3727(2) 0.1787(2) 0.6383(4)
C10 C -0.2941(3) 0.1355(3) -0.2263(6)
C11 C -0.2975(3) 0.2276(3) -0.1930(7)
H6 H -0.3444 0.2612 -0.2335
C12 C -0.2308(3) 0.2699(3) -0.0989(7)
H7 H -0.2330 0.3317 -0.0779
C13 C -0.1574(3) 0.1280(3) -0.0720(6)
H8 H -0.1104 0.0945 -0.0316
C14 C -0.1612(3) 0.2196(3) -0.0366(6)
O5 O 0.5279(2) 0.1160(2) 0.1952(4)
O6 O 0.5478(2) -0.0021(2) 0.3539(4)
C15 C 0.5654(3) 0.0430(3) 0.2326(6)
O7 O 0.4871(2) 0.2760(2) 0.4244(4)
H9 H 0.5259 0.2919 0.3683
H10 H 0.4620 0.3157 0.4757
C16 C -0.2231(3) 0.0858(3) -0.1676(6)
H11 H -0.2197 0.0245 -0.1924
C17 C 0.6328(4) 0.0105(4) 0.1349(8)
H12 H 0.6093 -0.0316 0.0534
H13 H 0.6762 -0.0189 0.2059
H14 H 0.6561 0.0613 0.0829
C18 C -0.3650(3) 0.0886(3) -0.3235(6)
O1_2 O 0.5753(2) 0.1375(2) 0.6086(5)
O2B O 0.3630(2) -0.0034(2) 0.3313(5)
O3C O 0.3503(2) 0.1848(2) 0.2409(4)
Sm1_2 Sm -0.551601(13) 0.117054(13) -0.56145(3)
Sm1B Sm -0.448399(13) -0.117054(13) -0.43855(3)
Sm1B_2 Sm 0.551601(13) -0.117054(13) 0.56145(3)
Sm1C Sm 0.448399(13) 0.382946(13) 0.93855(3)
O6B O 0.4522(2) 0.0021(2) 0.6461(4)
O8 O 0.0538(3) 0.5402(2) 0.2090(5)
loop_
_geom_bond_atom_site_label_1
_geom_bond_atom_site_label_2
_geom_bond_site_symmetry_1
_geom_bond_site_symmetry_2
O1 C18 1_555 1_555
O2 C18 1_555 1_555
O3 C9 1_555 1_555
Sm1 O4 1_555 1_555
C1 C2 1_555 1_555
C2 H1 1_555 1_555
C3 C2 1_555 1_555
H2 C3 1_555 1_555
C4 C1 1_555 1_555
H3 C4 1_555 1_555
C5 C3 1_555 1_555
C6 N1 1_555 1_555
C7 C5 1_555 1_555
C8 C4 1_555 1_555
H4 C8 1_555 1_555
N1 C7 1_555 1_555
N2 C7 1_555 1_555
N3 C6 1_555 1_555
H5 N3 1_555 1_555
C9 C1 1_555 1_555
O4 C9 1_555 1_555
C10 C11 1_555 1_555
C11 H6 1_555 1_555
C12 C11 1_555 1_555
H7 C12 1_555 1_555
C13 H8 1_555 1_555
C14 C6 1_555 1_555
O5 Sm1 1_555 1_555
O6 Sm1 1_555 1_555
C15 O5 1_555 1_555
O7 Sm1 1_555 1_555
H9 O7 1_555 1_555
H10 O7 1_555 1_555
C16 C10 1_555 1_555
H11 C16 1_555 1_555
C17 C15 1_555 1_555
H12 C17 1_555 1_555
H13 C17 1_555 1_555
H14 C17 1_555 1_555
C18 C10 1_555 1_555
O1_2 Sm1 1_555 1_555
O2B Sm1 1_555 1_555
O3C Sm1 1_555 1_555
Sm1_2 O1 1_555 1_555
Sm1B O2 1_555 1_555
Sm1B_2 O6 1_555 1_555
Sm1C O3 1_555 1_555
O6B Sm1 1_555 1_555
C5 C8 1_555 1_555
N2 N3 1_555 1_555
C12 C14 1_555 1_555
C13 C14 1_555 1_555
C13 C16 1_555 1_555
O6 C15 1_555 1_555
Sm1B_2 O6B 1_555 1_555

#END
