
#######################################################################
#
#                 Cambridge Crystallographic Data Centre
#                                CCDC 
#
#######################################################################
#
# If this CIF has been generated from an entry in the Cambridge 
# Structural Database, then it will include bibliographic, chemical, 
# crystal, experimental, refinement or atomic coordinate data resulting 
# from the CCDC's data processing and validation procedures.
#
#######################################################################

data_HUKZOE
_symmetry_cell_setting           monoclinic
_symmetry_space_group_name_H-M   'P 21/c'
_symmetry_Int_Tables_number      14
_space_group_name_Hall           '-P 2ybc'
loop_
_symmetry_equiv_pos_site_id
_symmetry_equiv_pos_as_xyz
1 x,y,z
2 -x,1/2+y,1/2-z
3 -x,-y,-z
4 x,1/2-y,1/2+z
_cell_length_a                   15.9866(5)
_cell_length_b                   14.8018(3)
_cell_length_c                   8.3195(2)
_cell_angle_alpha                90
_cell_angle_beta                 96.397(2)
_cell_angle_gamma                90
_cell_volume                     1956.39
loop_
_atom_site_label
_atom_site_type_symbol
_atom_site_fract_x
_atom_site_fract_y
_atom_site_fract_z
Nd1 Nd 0.553412(11) 0.882721(11) 1.061121(19)
C1 C 0.3648(2) 0.9093(2) 0.8242(4)
C2 C 0.2933(2) 0.8622(2) 0.7269(4)
C3 C 0.2237(2) 0.9109(2) 0.6650(4)
H1 H 0.2206 0.9723 0.6874
C4 C 0.1585(2) 0.8696(2) 0.5703(4)
H2 H 0.1118 0.9032 0.5294
C5 C 0.1621(2) 0.7780(2) 0.5357(4)
C6 C 0.2976(2) 0.7704(2) 0.6926(4)
H3 H 0.3445 0.7369 0.7328
C7 C 0.2318(2) 0.7292(2) 0.5987(4)
H4 H 0.2345 0.6677 0.5774
C8 C 0.0926(2) 0.7338(2) 0.4353(4)
C9 C -0.0173(2) 0.7137(2) 0.2710(4)
C10 C -0.0935(2) 0.7243(2) 0.1576(4)
C11 C -0.1262(2) 0.8096(2) 0.1192(4)
H5 H -0.0977 0.8607 0.1609
C12 C -0.2004(2) 0.8188(2) 0.0196(4)
H6 H -0.2224 0.8760 -0.0040
C13 C -0.2095(2) 0.6589(2) -0.0102(4)
H7 H -0.2370 0.6080 -0.0553
C14 C -0.2426(2) 0.7430(2) -0.0457(4)
C15 C -0.3250(2) 0.7502(2) -0.1495(4)
C16 C 0.4340(2) 0.9568(2) 1.2694(4)
C17 C 0.3679(3) 0.9892(3) 1.3681(5)
H8 H 0.3926 1.0298 1.4500
H9 H 0.3438 0.9385 1.4182
H10 H 0.3248 1.0202 1.2996
C18 C -0.1359(2) 0.6490(3) 0.0913(4)
H11 H -0.1146 0.5915 0.1154
O1 O 0.42419(18) 0.86126(16) 0.8906(3)
O2 O 0.36157(18) 0.99390(16) 0.8326(3)
O3 O -0.34701(16) 0.68523(15) -0.2397(3)
O4 O -0.36832(15) 0.82139(15) -0.1399(3)
O5 O 0.47262(18) 0.88473(16) 1.3056(3)
O6 O 0.45132(17) 1.00103(16) 1.1490(3)
O7 O 0.51574(19) 0.72139(16) 1.0755(3)
H12 H 0.5379 0.6798 1.0080
H13 H 0.4794 0.7022 1.1483
N1 N 0.03228(19) 0.77964(19) 0.3369(3)
N2 N 0.0821(2) 0.6450(2) 0.4324(3)
N3 N 0.01226(19) 0.63391(19) 0.3273(3)
H14 H -0.0102 0.5825 0.3001
Nd1_2 Nd -0.446588(11) 0.882721(11) 0.061121(19)
Nd1B Nd 0.446588(11) 1.117279(11) 0.938879(19)
Nd1C Nd -0.446588(11) 0.617279(11) -0.438879(19)
O2B O 0.63843(18) 1.00610(16) 1.1674(3)
O3C O 0.65299(16) 0.81477(15) 1.2603(3)
O4_2 O 0.63168(15) 0.82139(15) 0.8601(3)
O6B O 0.54868(17) 0.99897(16) 0.8510(3)
O8 O 0.0548(3) 0.9606(2) 0.2108(4)
H15 H 0.047(3) 0.913(4) 0.265(6)
H16 H 0.081(4) 0.944(5) 0.124(8)
loop_
_geom_bond_atom_site_label_1
_geom_bond_atom_site_label_2
_geom_bond_site_symmetry_1
_geom_bond_site_symmetry_2
Nd1 O1 1_555 1_555
C1 C2 1_555 1_555
C2 C3 1_555 1_555
C3 H1 1_555 1_555
C4 C3 1_555 1_555
H2 C4 1_555 1_555
C5 C4 1_555 1_555
C6 C2 1_555 1_555
H3 C6 1_555 1_555
C7 C5 1_555 1_555
H4 C7 1_555 1_555
C8 C5 1_555 1_555
C9 C10 1_555 1_555
C10 C11 1_555 1_555
C11 H5 1_555 1_555
C12 C11 1_555 1_555
H6 C12 1_555 1_555
C13 H7 1_555 1_555
C14 C12 1_555 1_555
C15 C14 1_555 1_555
C16 C17 1_555 1_555
C17 H8 1_555 1_555
H9 C17 1_555 1_555
H10 C17 1_555 1_555
C18 C10 1_555 1_555
H11 C18 1_555 1_555
O1 C1 1_555 1_555
O2 C1 1_555 1_555
O3 C15 1_555 1_555
O4 C15 1_555 1_555
O5 Nd1 1_555 1_555
O6 Nd1 1_555 1_555
O7 Nd1 1_555 1_555
H12 O7 1_555 1_555
H13 O7 1_555 1_555
N1 C8 1_555 1_555
N2 C8 1_555 1_555
N3 C9 1_555 1_555
H14 N3 1_555 1_555
O8 H15 1_555 1_555
H16 O8 1_555 1_555
Nd1_2 O4 1_555 1_555
Nd1B O2 1_555 1_555
Nd1C O3 1_555 1_555
O2B Nd1 1_555 1_555
O3C Nd1 1_555 1_555
O4_2 Nd1 1_555 1_555
O6B Nd1 1_555 1_555
C6 C7 1_555 1_555
C9 N1 1_555 1_555
C13 C14 1_555 1_555
C13 C18 1_555 1_555
C16 O5 1_555 1_555
C16 O6 1_555 1_555
O6 Nd1B 1_555 1_555
N2 N3 1_555 1_555
Nd1B O6B 1_555 1_555

#END
