
#######################################################################
#
#                 Cambridge Crystallographic Data Centre
#                                CCDC 
#
#######################################################################
#
# If this CIF has been generated from an entry in the Cambridge 
# Structural Database, then it will include bibliographic, chemical, 
# crystal, experimental, refinement or atomic coordinate data resulting 
# from the CCDC's data processing and validation procedures.
#
#######################################################################

data_HULBEX
_symmetry_cell_setting           monoclinic
_symmetry_space_group_name_H-M   'P 21/c'
_symmetry_Int_Tables_number      14
_space_group_name_Hall           '-P 2ybc'
loop_
_symmetry_equiv_pos_site_id
_symmetry_equiv_pos_as_xyz
1 x,y,z
2 -x,1/2+y,1/2-z
3 -x,-y,-z
4 x,1/2-y,1/2+z
_cell_length_a                   16.1151(6)
_cell_length_b                   14.6839(5)
_cell_length_c                   8.1831(3)
_cell_angle_alpha                90
_cell_angle_beta                 96.9280(10)
_cell_angle_gamma                90
_cell_volume                     1922.25
loop_
_atom_site_label
_atom_site_type_symbol
_atom_site_fract_x
_atom_site_fract_y
_atom_site_fract_z
Tb1 Tb 0.049448(9) 0.116974(9) 0.062372(17)
O1 O 0.12304(14) 0.17888(15) -0.1355(3)
O2 O 0.14585(15) 0.31501(15) -0.2395(3)
O3 O 0.86390(16) 0.00080(15) 0.8315(3)
O4 O 0.92440(17) 0.13623(16) 0.8923(3)
O5 O -0.02895(18) 0.11647(15) 0.3017(3)
O6 O -0.04647(16) -0.00271(15) 0.1453(3)
O7 O 0.00991(17) 0.27423(15) 0.0763(3)
H1 H 0.0309 0.3168 0.0078
H2 H -0.0264 0.2925 0.1502
C1 C 0.16735(19) 0.2497(2) -0.1469(4)
C2 C 0.2502(2) 0.2555(2) -0.0427(4)
C3 C 0.2922(2) 0.1782(2) 0.0229(4)
H3 H 0.2694 0.1207 0.0004
C4 C 0.3678(2) 0.1869(2) 0.1213(4)
H4 H 0.3964 0.1351 0.1618
C5 C 0.4012(2) 0.2723(2) 0.1600(4)
C6 C 0.3588(2) 0.3498(2) 0.0935(5)
H5 H 0.3810 0.4074 0.1175
C7 C 0.2847(2) 0.3405(2) -0.0068(4)
H6 H 0.2573 0.3921 -0.0514
C8 C 0.4785(2) 0.2823(2) 0.2724(4)
C9 C 0.5893(2) 0.2618(2) 0.4359(4)
C10 C 0.6599(2) 0.2172(2) 0.5373(4)
C11 C 0.7304(2) 0.2671(2) 0.5968(4)
H7 H 0.7329 0.3289 0.5731
C12 C 0.7967(2) 0.2258(2) 0.6908(5)
H8 H 0.8436 0.2599 0.7301
C13 C 0.7938(2) 0.1332(2) 0.7269(4)
C14 C 0.7227(2) 0.0838(2) 0.6682(4)
H9 H 0.7198 0.0222 0.6931
C15 C 0.6564(2) 0.1247(2) 0.5738(4)
H10 H 0.6095 0.0907 0.5345
C16 C 0.8660(2) 0.0868(2) 0.8244(4)
C17 C -0.0667(2) 0.0416(2) 0.2672(4)
C18 C -0.1316(3) 0.0094(3) 0.3642(6)
H11 H -0.1084 -0.0358 0.4413
H12 H -0.1767 -0.0167 0.2920
H13 H -0.1521 0.0597 0.4228
N1 N 0.52838(18) 0.21623(19) 0.3387(3)
N2 N 0.50904(19) 0.3630(2) 0.3277(4)
H14 H 0.4868 0.4149 0.3001
N3 N 0.57962(18) 0.3515(2) 0.4329(4)
Tb1_2 Tb 1.049448(9) 0.116974(9) 1.062372(17)
Tb1B Tb -0.049448(9) -0.116974(9) -0.062372(17)
Tb1B_2 Tb 0.950552(9) -0.116974(9) 0.937628(17)
Tb1C Tb 0.049448(9) 0.383026(9) -0.437628(17)
O2C O 0.14585(15) 0.18499(15) 0.2605(3)
O3B O 0.13610(16) -0.00080(15) 0.1685(3)
O4_2 O -0.07560(17) 0.13623(16) -0.1077(3)
O6B O 0.04647(16) 0.00271(15) -0.1453(3)
O8 O 0.4467(3) 0.5376(2) 0.2905(5)
H15 H 0.450(3) 0.580(4) 0.242(6)
H16 H 0.426(4) 0.553(4) 0.362(8)
loop_
_geom_bond_atom_site_label_1
_geom_bond_atom_site_label_2
_geom_bond_site_symmetry_1
_geom_bond_site_symmetry_2
Tb1 O1 1_555 1_555
O1 C1 1_555 1_555
O2 C1 1_555 1_555
O3 C16 1_555 1_555
O4 C16 1_555 1_555
O5 Tb1 1_555 1_555
O6 Tb1 1_555 1_555
O7 Tb1 1_555 1_555
H1 O7 1_555 1_555
H2 O7 1_555 1_555
C1 C2 1_555 1_555
C2 C3 1_555 1_555
C3 H3 1_555 1_555
C4 C3 1_555 1_555
H4 C4 1_555 1_555
C5 C4 1_555 1_555
C6 C5 1_555 1_555
H5 C6 1_555 1_555
C7 C2 1_555 1_555
H6 C7 1_555 1_555
C8 C5 1_555 1_555
C9 C10 1_555 1_555
C10 C11 1_555 1_555
C11 H7 1_555 1_555
C12 C11 1_555 1_555
H8 C12 1_555 1_555
C13 C12 1_555 1_555
C14 C13 1_555 1_555
H9 C14 1_555 1_555
C15 C10 1_555 1_555
H10 C15 1_555 1_555
C16 C13 1_555 1_555
C17 O5 1_555 1_555
C18 C17 1_555 1_555
H11 C18 1_555 1_555
H12 C18 1_555 1_555
H13 C18 1_555 1_555
N1 C8 1_555 1_555
N2 C8 1_555 1_555
H14 N2 1_555 1_555
N3 C9 1_555 1_555
O8 H15 1_555 1_555
H16 O8 1_555 1_555
Tb1_2 O4 1_555 1_555
Tb1B O6 1_555 1_555
Tb1B_2 O3 1_555 1_555
Tb1C O2 1_555 1_555
O2C Tb1 1_555 1_555
O3B Tb1 1_555 1_555
O4_2 Tb1 1_555 1_555
O6B Tb1 1_555 1_555
O6 C17 1_555 1_555
C6 C7 1_555 1_555
C9 N1 1_555 1_555
C14 C15 1_555 1_555
N2 N3 1_555 1_555
Tb1B O6B 1_555 1_555

#END
