
#######################################################################
#
#                 Cambridge Crystallographic Data Centre
#                                CCDC 
#
#######################################################################
#
# If this CIF has been generated from an entry in the Cambridge 
# Structural Database, then it will include bibliographic, chemical, 
# crystal, experimental, refinement or atomic coordinate data resulting 
# from the CCDC's data processing and validation procedures.
#
#######################################################################

data_HULBIB
_symmetry_cell_setting           monoclinic
_symmetry_space_group_name_H-M   'P 21/c'
_symmetry_Int_Tables_number      14
_space_group_name_Hall           '-P 2ybc'
loop_
_symmetry_equiv_pos_site_id
_symmetry_equiv_pos_as_xyz
1 x,y,z
2 -x,1/2+y,1/2-z
3 -x,-y,-z
4 x,1/2-y,1/2+z
_cell_length_a                   16.1537(9)
_cell_length_b                   14.6264(9)
_cell_length_c                   8.1223(5)
_cell_angle_alpha                90
_cell_angle_beta                 97.1810(10)
_cell_angle_gamma                90
_cell_volume                     1904.01
loop_
_atom_site_label
_atom_site_type_symbol
_atom_site_fract_x
_atom_site_fract_y
_atom_site_fract_z
Ho1 Ho 0.451652(13) 0.383147(13) -0.56275(2)
C1 C 0.7062(3) 0.3687(3) -0.2272(6)
C2 C 0.7039(3) 0.2755(4) -0.1913(7)
H1 H 0.655(4) 0.244(4) -0.211(7)
C3 C 0.7701(3) 0.2340(4) -0.0973(7)
H2 H 0.771(3) 0.173(4) -0.069(6)
C4 C 0.8410(3) 0.2844(3) -0.0386(6)
C5 C 0.7775(3) 0.4173(4) -0.1707(6)
H3 H 0.785(3) 0.477(4) -0.200(6)
C6 C 0.8443(3) 0.3768(4) -0.0763(7)
H4 H 0.898(3) 0.410(4) -0.036(6)
C7 C 0.9118(3) 0.2397(4) 0.0631(6)
C8 C 1.0225(3) 0.2187(3) 0.2260(6)
C9 C 0.6336(3) 0.4151(4) -0.3243(6)
C10 C 1.1002(3) 0.2288(4) 0.3385(6)
C11 C 1.1424(3) 0.1517(4) 0.4043(7)
H5 H 1.118(4) 0.096(4) 0.384(7)
C12 C 1.2168(3) 0.1603(4) 0.5065(7)
H6 H 1.244(4) 0.113(4) 0.531(7)
C13 C 1.2099(3) 0.3226(4) 0.4753(7)
H7 H 1.234(3) 0.381(4) 0.505(7)
C14 C 1.1344(3) 0.3139(4) 0.3766(7)
H8 H 1.111(4) 0.367(4) 0.341(7)
C15 C 1.2519(3) 0.2453(3) 0.5411(6)
C16 C 1.3351(3) 0.2507(3) 0.6459(6)
C17 C 0.6310(4) 0.4914(5) -0.8625(8)
H9 H 0.6080 0.5363 -0.9414
H10 H 0.6524 0.4410 -0.9200
H11 H 0.6754 0.5183 -0.7886
C18 C 0.5647(3) 0.4581(4) -0.7654(6)
O1 O 0.6353(2) 0.5009(2) -0.3314(5)
O2 O 0.5757(2) 0.3646(2) -0.3938(5)
O3 O 1.3562(2) 0.1850(2) 0.7393(4)
O4 O 1.3791(2) 0.3209(2) 0.6331(4)
O5 O 0.5285(2) 0.3837(2) -0.8013(4)
O6 O 0.5455(2) 0.5033(2) -0.6443(4)
O7 O 0.4917(2) 0.2274(2) -0.5770(4)
H12 H 0.4710 0.1843 -0.5086
H13 H 0.5281 0.2095 -0.6511
N1 N 0.9729(2) 0.2852(3) 0.1581(5)
N2 N 0.9918(3) 0.1381(3) 0.1718(5)
H14 H 1.0139 0.0860 0.2003
N3 N 0.9211(3) 0.1495(3) 0.0658(5)
Ho1_2 Ho 1.451652(13) 0.383147(13) 0.43725(2)
Ho1B Ho 0.548348(13) 0.616853(13) -0.43725(2)
Ho1C Ho 1.451652(13) 0.116853(13) 0.93725(2)
O1B O 0.3647(2) 0.4991(2) -0.6686(5)
O3C O 0.3562(2) 0.3150(2) -0.7607(4)
O4_2 O 0.3791(2) 0.3209(2) -0.3669(4)
O6B O 0.4545(2) 0.4967(2) -0.3557(4)
O8 O 0.0536(4) 0.9629(3) 0.2094(7)
H15 H 0.076(5) 0.946(6) 0.126(10)
H16 H 0.040(6) 0.918(7) 0.269(13)
loop_
_geom_bond_atom_site_label_1
_geom_bond_atom_site_label_2
_geom_bond_site_symmetry_1
_geom_bond_site_symmetry_2
Ho1 O2 1_555 1_555
C1 C2 1_555 1_555
C2 H1 1_555 1_555
C3 C2 1_555 1_555
H2 C3 1_555 1_555
C4 C3 1_555 1_555
C5 C1 1_555 1_555
H3 C5 1_555 1_555
C6 C4 1_555 1_555
H4 C6 1_555 1_555
C7 C4 1_555 1_555
C8 C10 1_555 1_555
C9 C1 1_555 1_555
C10 C11 1_555 1_555
C11 H5 1_555 1_555
C12 C11 1_555 1_555
H6 C12 1_555 1_555
C13 H7 1_555 1_555
C14 C10 1_555 1_555
H8 C14 1_555 1_555
C15 C12 1_555 1_555
C16 C15 1_555 1_555
C17 H9 1_555 1_555
H10 C17 1_555 1_555
H11 C17 1_555 1_555
C18 C17 1_555 1_555
O1 C9 1_555 1_555
O2 C9 1_555 1_555
O3 C16 1_555 1_555
O4 C16 1_555 1_555
O5 Ho1 1_555 1_555
O6 Ho1 1_555 1_555
O7 Ho1 1_555 1_555
H12 O7 1_555 1_555
H13 O7 1_555 1_555
N1 C7 1_555 1_555
N2 C8 1_555 1_555
H14 N2 1_555 1_555
N3 C7 1_555 1_555
O8 H15 1_555 1_555
H16 O8 1_555 1_555
Ho1_2 O4 1_555 1_555
Ho1B O1 1_555 1_555
Ho1C O3 1_555 1_555
O1B Ho1 1_555 1_555
O3C Ho1 1_555 1_555
O4_2 Ho1 1_555 1_555
O6B Ho1 1_555 1_555
C5 C6 1_555 1_555
C8 N1 1_555 1_555
C13 C14 1_555 1_555
C13 C15 1_555 1_555
C18 O5 1_555 1_555
C18 O6 1_555 1_555
O6 Ho1B 1_555 1_555
N2 N3 1_555 1_555
Ho1B O6B 1_555 1_555

#END
