
#######################################################################
#
#                 Cambridge Crystallographic Data Centre
#                                CCDC 
#
#######################################################################
#
# If this CIF has been generated from an entry in the Cambridge 
# Structural Database, then it will include bibliographic, chemical, 
# crystal, experimental, refinement or atomic coordinate data resulting 
# from the CCDC's data processing and validation procedures.
#
#######################################################################

data_HULBOH
_symmetry_cell_setting           monoclinic
_symmetry_space_group_name_H-M   'P 21/c'
_symmetry_Int_Tables_number      14
_space_group_name_Hall           '-P 2ybc'
loop_
_symmetry_equiv_pos_site_id
_symmetry_equiv_pos_as_xyz
1 x,y,z
2 -x,1/2+y,1/2-z
3 -x,-y,-z
4 x,1/2-y,1/2+z
_cell_length_a                   16.2421(7)
_cell_length_b                   14.5719(6)
_cell_length_c                   8.0697(4)
_cell_angle_alpha                90
_cell_angle_beta                 97.5690(10)
_cell_angle_gamma                90
_cell_volume                     1893.28
loop_
_atom_site_label
_atom_site_type_symbol
_atom_site_fract_x
_atom_site_fract_y
_atom_site_fract_z
C1 C 0.3708(2) 0.5077(3) 0.8626(5)
H1 H 0.3941 0.4622 0.9410
H2 H 0.3260 0.4812 0.7884
H3 H 0.3501 0.5581 0.9219
Yb1 Yb 0.546854(7) 0.616850(8) 0.563202(14)
N1 N 1.07800(15) 0.84890(19) 0.9351(3)
C2 C 0.66195(17) 0.74922(19) 0.3551(3)
C3 C 0.74509(17) 0.7543(2) 0.4606(4)
C4 C 1.1553(2) 0.6209(2) 1.0788(4)
N2 N 1.02526(15) 0.71231(17) 0.8428(3)
N3 N 1.00695(16) 0.86057(19) 0.8289(3)
C5 C 0.7866(2) 0.6760(2) 0.5254(4)
C6 C 1.15820(18) 0.7138(2) 1.0401(4)
C7 C 0.8552(2) 0.8478(2) 0.5964(4)
C8 C 0.89711(18) 0.7695(2) 0.6627(4)
C9 C 0.86294(19) 0.6842(2) 0.6246(4)
C10 C 1.08711(18) 0.7586(2) 0.9391(4)
C11 C 1.2293(2) 0.7648(2) 1.0969(4)
C12 C 0.77998(19) 0.8393(2) 0.4962(4)
C13 C 1.29410(18) 0.63034(19) 1.2283(4)
C14 C 0.97567(18) 0.7795(2) 0.7755(4)
C15 C 1.2230(2) 0.5800(2) 1.1731(4)
C16 C 1.2963(2) 0.7228(2) 1.1904(4)
O1 O 0.61705(12) 0.67908(13) 0.3696(3)
O2 O 0.64101(12) 0.81535(14) 0.2604(3)
C17 C 1.36755(19) 0.5831(2) 1.3255(4)
O3 O 1.42471(14) 0.63415(14) 1.3935(3)
O4 O 1.36616(13) 0.49683(13) 1.3309(3)
C18 C 0.43590(19) 0.5415(2) 0.7642(4)
O5 O 0.47164(15) 0.61640(14) 0.7998(3)
O6 O 0.45608(13) 0.49581(13) 0.6428(3)
O7 O 0.50552(16) 0.77010(16) 0.5770(3)
H4 H 0.753(2) 0.893(2) 0.452(4)
H5 H 0.762(2) 0.616(2) 0.499(4)
H6 H 0.892(2) 0.628(2) 0.659(5)
H7 H 0.880(2) 0.906(2) 0.628(4)
H8 H 1.2180(18) 0.522(2) 1.209(4)
H9 H 1.107(2) 0.588(2) 1.036(4)
H10 H 1.231(2) 0.823(2) 1.066(4)
H11 H 1.345(2) 0.760(2) 1.222(4)
H12 H 0.527(2) 0.799(2) 0.645(5)
H13 H 0.497(2) 0.802(2) 0.501(5)
H14 H 0.987(2) 0.913(3) 0.822(5)
Yb1_2 Yb 1.546854(7) 0.616850(8) 1.563202(14)
Yb1B Yb 0.453146(7) 0.383150(8) 0.436798(14)
Yb1B_2 Yb 1.453146(7) 0.383150(8) 1.436798(14)
Yb1C Yb 0.546854(7) 0.883150(8) 0.063202(14)
O2C O 0.64101(12) 0.68465(14) 0.7604(3)
O3_2 O 0.42471(14) 0.63415(14) 0.3935(3)
O4B O 0.63384(13) 0.50317(13) 0.6691(3)
O6B O 0.54392(13) 0.50419(13) 0.3572(3)
O8 O 0.0536(2) 0.96411(19) 0.2086(4)
H15 H 0.080(4) 0.939(4) 0.129(8)
H16 H 0.041(4) 0.918(4) 0.265(8)
loop_
_geom_bond_atom_site_label_1
_geom_bond_atom_site_label_2
_geom_bond_site_symmetry_1
_geom_bond_site_symmetry_2
C1 H1 1_555 1_555
H2 C1 1_555 1_555
H3 C1 1_555 1_555
Yb1 O1 1_555 1_555
N1 N3 1_555 1_555
C2 C3 1_555 1_555
C3 C5 1_555 1_555
C4 C6 1_555 1_555
N2 C10 1_555 1_555
N3 C14 1_555 1_555
C5 C9 1_555 1_555
C6 C10 1_555 1_555
C7 C8 1_555 1_555
C8 C9 1_555 1_555
C9 H6 1_555 1_555
C10 N1 1_555 1_555
C11 C6 1_555 1_555
C12 C3 1_555 1_555
C13 C15 1_555 1_555
C14 N2 1_555 1_555
C15 C4 1_555 1_555
C16 C11 1_555 1_555
O1 C2 1_555 1_555
O2 C2 1_555 1_555
C17 C13 1_555 1_555
O3 C17 1_555 1_555
O4 C17 1_555 1_555
C18 C1 1_555 1_555
O5 Yb1 1_555 1_555
O6 Yb1 1_555 1_555
O7 Yb1 1_555 1_555
H4 C12 1_555 1_555
H5 C5 1_555 1_555
H7 C7 1_555 1_555
H8 C15 1_555 1_555
H9 C4 1_555 1_555
H10 C11 1_555 1_555
H11 C16 1_555 1_555
H12 O7 1_555 1_555
H13 O7 1_555 1_555
H14 N3 1_555 1_555
O8 H15 1_555 1_555
H16 O8 1_555 1_555
Yb1_2 O3 1_555 1_555
Yb1B O6 1_555 1_555
Yb1B_2 O4 1_555 1_555
Yb1C O2 1_555 1_555
O2C Yb1 1_555 1_555
O3_2 Yb1 1_555 1_555
O4B Yb1 1_555 1_555
O6B Yb1 1_555 1_555
C7 C12 1_555 1_555
C8 C14 1_555 1_555
C13 C16 1_555 1_555
C18 O5 1_555 1_555
C18 O6 1_555 1_555
Yb1B O6B 1_555 1_555

#END
