
#######################################################################
#
#                 Cambridge Crystallographic Data Centre
#                                CCDC 
#
#######################################################################
#
# If this CIF has been generated from an entry in the Cambridge 
# Structural Database, then it will include bibliographic, chemical, 
# crystal, experimental, refinement or atomic coordinate data resulting 
# from the CCDC's data processing and validation procedures.
#
#######################################################################

data_HULCEW
_symmetry_cell_setting           cubic
_symmetry_space_group_name_H-M   'P n -3 n'
_symmetry_Int_Tables_number      222
_space_group_name_Hall           '-P 4a 2bc 3'
loop_
_symmetry_equiv_pos_site_id
_symmetry_equiv_pos_as_xyz
1 x,y,z
2 z,x,y
3 y,z,x
4 y,x,1/2-z
5 y,1/2-x,z
6 1/2-y,x,z
7 x,z,1/2-y
8 1/2-x,z,y
9 x,1/2-z,y
10 z,y,1/2-x
11 z,1/2-y,x
12 1/2-z,y,x
13 1/2+x,1/2+y,-z
14 1/2+x,-y,1/2+z
15 -x,1/2+y,1/2+z
16 -z,1/2+x,1/2+y
17 1/2+z,1/2+x,-y
18 1/2+z,-x,1/2+y
19 1/2+y,-z,1/2+x
20 -y,1/2+z,1/2+x
21 1/2+y,1/2+z,-x
22 1/2+y,1/2+x,1/2+z
23 1/2+x,1/2+z,1/2+y
24 1/2+z,1/2+y,1/2+x
25 -x,-y,-z
26 -z,-x,-y
27 -y,-z,-x
28 -y,-x,1/2+z
29 -y,1/2+x,-z
30 1/2+y,-x,-z
31 -x,-z,1/2+y
32 1/2+x,-z,-y
33 -x,1/2+z,-y
34 -z,-y,1/2+x
35 -z,1/2+y,-x
36 1/2+z,-y,-x
37 1/2-x,1/2-y,z
38 1/2-x,y,1/2-z
39 x,1/2-y,1/2-z
40 z,1/2-x,1/2-y
41 1/2-z,1/2-x,y
42 1/2-z,x,1/2-y
43 1/2-y,z,1/2-x
44 y,1/2-z,1/2-x
45 1/2-y,1/2-z,x
46 1/2-y,1/2-x,1/2-z
47 1/2-x,1/2-z,1/2-y
48 1/2-z,1/2-y,1/2-x
_cell_length_a                   16.1467(8)
_cell_length_b                   16.1467(8)
_cell_length_c                   16.1467(8)
_cell_angle_alpha                90
_cell_angle_beta                 90
_cell_angle_gamma                90
_cell_volume                     4209.7
loop_
_atom_site_label
_atom_site_type_symbol
_atom_site_fract_x
_atom_site_fract_y
_atom_site_fract_z
Ni1 Ni 0.498248(16) 0.498248(16) 0.2500
C1 C 0.30983(15) 0.48345(14) 0.22750(14)
O1 O 0.38197(10) 0.48724(11) 0.19876(10)
C2 C 0.50071(15) 0.68953(15) 0.22847(15)
O2 O 0.50353(11) 0.61723(10) 0.20048(11)
O3 O 0.46163(10) 0.53619(10) 0.36349(10)
H1 H 0.4158 0.5185 0.3765
H2 H 0.4675 0.5845 0.3779
C1I C 0.22750(14) 0.48345(14) 0.19017(15)
C1KA C 0.19017(15) 0.48345(14) 0.27250(14)
C1K C 0.27250(14) 0.48345(14) 0.30983(15)
O1K O 0.30124(10) 0.48724(11) 0.38197(10)
O1KA O 0.11803(10) 0.48724(11) 0.30124(10)
O1I O 0.19876(10) 0.48724(11) 0.11803(10)
C2DA C 0.49929(15) 0.77153(15) 0.18953(15)
C2LA C 0.50071(15) 0.81047(15) 0.27153(15)
C2FA C 0.49929(15) 0.72847(15) 0.31047(15)
O2FA O 0.49647(11) 0.70048(11) 0.38277(10)
O2LA O 0.50353(11) 0.88277(10) 0.29952(11)
O2DA O 0.49647(11) 0.79952(11) 0.11723(10)
O3C O 0.53619(10) 0.46163(10) 0.13651(10)
H1C H 0.5185 0.4158 0.1235
H2C H 0.5845 0.4675 0.1221
Ni1K Ni 0.2500 0.498248(16) 0.498248(16)
O3K O 0.13651(10) 0.53619(10) 0.46163(10)
H1K H 0.1235 0.5185 0.4158
H2K H 0.1221 0.5845 0.4675
O3A O 0.36349(10) 0.46163(10) 0.53619(10)
H1A H 0.3765 0.4158 0.5185
H2A H 0.3779 0.4675 0.5845
O1C O 0.48724(11) 0.38197(10) 0.30124(10)
O2C O 0.61723(10) 0.50353(11) 0.29952(11)
Ni1E Ni 0.001752(16) 0.498248(16) 0.2500
Ni1I Ni 0.2500 0.498248(16) 0.001752(16)
Ni1Z Ni 0.501752(16) 0.7500 0.501752(16)
Ni1D Ni 0.498248(16) 1.001752(16) 0.2500
Ni1S Ni 0.501752(16) 0.7500 -0.001752(16)
O1A O 0.19876(10) 0.38197(10) 0.48724(11)
O2A O 0.20048(11) 0.50353(11) 0.61723(10)
O2K O 0.29952(11) 0.61723(10) 0.50353(11)
O4 O 0.2500 0.6672(15) 0.2500
O5? O 0.2982(15) 0.7047(9) 0.2007(15)
loop_
_geom_bond_atom_site_label_1
_geom_bond_atom_site_label_2
_geom_bond_site_symmetry_1
_geom_bond_site_symmetry_2
Ni1 O1 1_555 1_555
C1 O1 1_555 1_555
C2 O2 1_555 1_555
O2 Ni1 1_555 1_555
O3 Ni1 1_555 1_555
H1 O3 1_555 1_555
H2 O3 1_555 1_555
C1I C1 1_555 1_555
C1KA C1I 1_555 1_555
C1K C1 1_555 1_555
O1K C1K 1_555 1_555
O1KA C1KA 1_555 1_555
O1I C1I 1_555 1_555
C2DA C2 1_555 1_555
C2LA C2DA 1_555 1_555
C2FA C2 1_555 1_555
O2FA C2FA 1_555 1_555
O2LA C2LA 1_555 1_555
O2DA C2DA 1_555 1_555
O3C Ni1 1_555 1_555
H1C O3C 1_555 1_555
H2C O3C 1_555 1_555
Ni1K O1K 1_555 1_555
O3K Ni1K 1_555 1_555
H1K O3K 1_555 1_555
H2K O3K 1_555 1_555
O3A Ni1K 1_555 1_555
H1A O3A 1_555 1_555
H2A O3A 1_555 1_555
O1C Ni1 1_555 1_555
O2C Ni1 1_555 1_555
Ni1E O1KA 1_555 1_555
Ni1I O1I 1_555 1_555
Ni1Z O2FA 1_555 1_555
Ni1D O2LA 1_555 1_555
Ni1S O2DA 1_555 1_555
O1A Ni1K 1_555 1_555
O2A Ni1K 1_555 1_555
O2K Ni1K 1_555 1_555
C1KA C1K 1_555 1_555
C2LA C2FA 1_555 1_555

#END
