
#######################################################################
#
#                 Cambridge Crystallographic Data Centre
#                                CCDC 
#
#######################################################################
#
# If this CIF has been generated from an entry in the Cambridge 
# Structural Database, then it will include bibliographic, chemical, 
# crystal, experimental, refinement or atomic coordinate data resulting 
# from the CCDC's data processing and validation procedures.
#
#######################################################################

data_HULFOL
_symmetry_cell_setting           orthorhombic
_symmetry_space_group_name_H-M   'P n a 21'
_symmetry_Int_Tables_number      33
_space_group_name_Hall           'P 2c -2n'
loop_
_symmetry_equiv_pos_site_id
_symmetry_equiv_pos_as_xyz
1 x,y,z
2 -x,-y,1/2+z
3 1/2+x,1/2-y,z
4 1/2-x,1/2+y,1/2+z
_cell_length_a                   17.4395(13)
_cell_length_b                   8.9231(7)
_cell_length_c                   14.2725(11)
_cell_angle_alpha                90
_cell_angle_beta                 90
_cell_angle_gamma                90
_cell_volume                     2221.01
loop_
_atom_site_label
_atom_site_type_symbol
_atom_site_fract_x
_atom_site_fract_y
_atom_site_fract_z
I1 I 0.53842(4) 0.78255(9) 0.49999(7)
I2 I 0.37048(5) 0.41174(11) 0.78620(6)
I3 I 0.22227(5) 0.54170(12) 0.41417(6)
Cd1 Cd 0.39590(6) 0.82893(15) 0.20774(8)
O1 O 0.4069(6) 0.6345(12) 0.3157(7)
O2 O 0.3608(6) 0.8418(12) 0.3682(8)
O3 O 0.1908(6) 0.5137(15) 0.6690(8)
O4 O 0.2309(6) 0.2936(13) 0.6210(11)
N1 N 0.5040(6) 0.5941(13) 0.6840(8)
H1 H 0.5448 0.6413 0.6674
H2 H 0.5023 0.5496 0.7374
N2 N 0.5104(7) 0.9508(13) 0.2139(9)
N3 N 0.6200(7) 0.997(2) 0.1442(12)
H3 H 0.6572 0.9887 0.1051
N4 N 0.5613(8) 0.7663(17) -0.0086(10)
H4 H 0.6069 0.7877 -0.0273
N5 N 0.4588(7) 0.7539(13) 0.0765(9)
C1 C 0.3823(7) 0.7160(16) 0.3815(10)
C2 C 0.3801(6) 0.6456(13) 0.4791(7)
C3 C 0.3147(7) 0.5661(13) 0.5067(10)
C4 C 0.3097(6) 0.5025(12) 0.5956(9)
C5 C 0.3739(7) 0.5111(14) 0.6531(9)
C6 C 0.4425(6) 0.5897(14) 0.6259(8)
C7 C 0.4407(6) 0.6580(13) 0.5393(9)
C8 C 0.2401(7) 0.4266(18) 0.6298(12)
C9 C 0.6189(12) 1.087(2) 0.2164(17)
H5 H 0.6559 1.1570 0.2328
C10 C 0.5495(10) 1.0548(18) 0.2652(15)
H6 H 0.5337 1.0970 0.3215
C11 C 0.5538(7) 0.9208(17) 0.1406(12)
C12 C 0.5285(8) 0.8164(16) 0.0711(10)
C13 C 0.5103(11) 0.6755(18) -0.0553(12)
H7 H 0.5177 0.6280 -0.1126
C14 C 0.4474(10) 0.6700(18) -0.0005(12)
H8 H 0.4030 0.6164 -0.0139
Cd1C Cd 0.10410(6) 0.32893(15) 0.70774(8)
O3C O 0.3092(6) 1.0137(15) 0.1690(8)
O4C O 0.2691(6) 0.7936(13) 0.1210(11)
O5 O 0.6784(12) 0.685(2) 0.6997(17)
H9 H 0.6861 0.7643 0.7313
H10 H 0.7005 0.6116 0.7262
O6 O 0.7037(14) 0.860(3) 0.9303(19)
H11 H 0.7368 0.7957 0.9477
H12 H 0.7261 0.9324 0.9031
loop_
_geom_bond_atom_site_label_1
_geom_bond_atom_site_label_2
_geom_bond_site_symmetry_1
_geom_bond_site_symmetry_2
I1 C7 1_555 1_555
I2 C5 1_555 1_555
I3 C3 1_555 1_555
Cd1 O1 1_555 1_555
O1 C1 1_555 1_555
O2 Cd1 1_555 1_555
O3 C8 1_555 1_555
O4 C8 1_555 1_555
N1 H1 1_555 1_555
H2 N1 1_555 1_555
N2 Cd1 1_555 1_555
N3 H3 1_555 1_555
N4 H4 1_555 1_555
N5 Cd1 1_555 1_555
C1 O2 1_555 1_555
C2 C1 1_555 1_555
C3 C2 1_555 1_555
C4 C3 1_555 1_555
C5 C4 1_555 1_555
C6 N1 1_555 1_555
C7 C2 1_555 1_555
C8 C4 1_555 1_555
C9 N3 1_555 1_555
H5 C9 1_555 1_555
C10 N2 1_555 1_555
H6 C10 1_555 1_555
C11 N2 1_555 1_555
C12 N4 1_555 1_555
C13 N4 1_555 1_555
H7 C13 1_555 1_555
C14 N5 1_555 1_555
H8 C14 1_555 1_555
O5 H9 1_555 1_555
H10 O5 1_555 1_555
O6 H11 1_555 1_555
H12 O6 1_555 1_555
Cd1C O3 1_555 1_555
O3C Cd1 1_555 1_555
O4C Cd1 1_555 1_555
O4 Cd1C 1_555 1_555
N3 C11 1_555 1_555
N5 C12 1_555 1_555
C5 C6 1_555 1_555
C6 C7 1_555 1_555
C9 C10 1_555 1_555
C11 C12 1_555 1_555
C13 C14 1_555 1_555

#END
