
#######################################################################
#
#                 Cambridge Crystallographic Data Centre
#                                CCDC 
#
#######################################################################
#
# If this CIF has been generated from an entry in the Cambridge 
# Structural Database, then it will include bibliographic, chemical, 
# crystal, experimental, refinement or atomic coordinate data resulting 
# from the CCDC's data processing and validation procedures.
#
#######################################################################

data_HULHOM
_symmetry_cell_setting           monoclinic
_symmetry_space_group_name_H-M   'C 2/c'
_symmetry_Int_Tables_number      15
_space_group_name_Hall           '-C 2yn'
loop_
_symmetry_equiv_pos_site_id
_symmetry_equiv_pos_as_xyz
1 x,y,z
2 -x,y,1/2-z
3 1/2+x,1/2+y,z
4 1/2-x,1/2+y,1/2-z
5 -x,-y,-z
6 x,-y,1/2+z
7 1/2-x,1/2-y,-z
8 1/2+x,1/2-y,1/2+z
_cell_length_a                   21.125(4)
_cell_length_b                   14.387(3)
_cell_length_c                   13.278(3)
_cell_angle_alpha                90
_cell_angle_beta                 92.15(3)
_cell_angle_gamma                90
_cell_volume                     4032.68
loop_
_atom_site_label
_atom_site_type_symbol
_atom_site_fract_x
_atom_site_fract_y
_atom_site_fract_z
B1 B 0.2689(3) 0.1562(4) 0.6712(5)
F1 F 0.3039(3) 0.0970(5) 0.7302(4)
F2 F 0.3032(3) 0.2319(4) 0.6569(4)
F3 F 0.2559(2) 0.1120(4) 0.5815(3)
F4 F 0.2156(2) 0.1744(4) 0.7214(4)
B2 B 0.0957(4) 0.6121(5) 0.4695(6)
F5 F 0.0357(3) 0.6226(7) 0.4362(5)
F6 F 0.1207(2) 0.5337(3) 0.4302(4)
F7 F 0.1019(2) 0.6109(3) 0.5712(3)
F8 F 0.1308(4) 0.6852(3) 0.4331(4)
Ag1 Ag -0.04698(2) 0.17064(3) 0.11415(3)
Ag2 Ag 0.00450(2) -0.08926(3) 0.13243(3)
C1 C -0.1738(2) 0.0483(4) 0.1023(4)
H1 H -0.1988 0.1014 0.0967
C2 C -0.1447(2) -0.0943(3) 0.1044(4)
H2 H -0.1454 -0.1588 0.1000
C3 C 0.1085(3) 0.1731(4) 0.1270(4)
H3 H 0.1088 0.2377 0.1252
C4 C 0.1382(3) 0.0315(4) 0.1397(4)
H4 H 0.1634 -0.0210 0.1488
C5 C -0.1242(3) 0.3091(4) -0.0525(4)
H5 H -0.1474 0.3374 -0.0028
C6 C -0.0861(2) 0.2771(3) -0.1948(4)
H6 H -0.0772 0.2791 -0.2629
C7 C -0.0388(3) 0.3819(4) 0.1965(5)
H7 H -0.0713 0.4022 0.1526
N1 N -0.1133(2) 0.0476(3) 0.1248(3)
N2 N -0.09430(19) -0.0449(3) 0.1274(3)
N3 N -0.19499(19) -0.0396(3) 0.0882(3)
N4 N -0.2553(2) -0.0715(4) 0.0580(4)
H8 H -0.2617 -0.1299 0.0486
H9 H -0.2859 -0.0326 0.0487
N5 N 0.0580(2) 0.1213(3) 0.1146(3)
N6 N 0.0775(2) 0.0295(3) 0.1226(3)
N7 N 0.1600(2) 0.1191(3) 0.1426(3)
N8 N 0.2234(2) 0.1465(4) 0.1600(4)
H10 H 0.2524 0.1053 0.1701
H11 H 0.2332 0.2046 0.1605
N9 N -0.0872(2) 0.2370(3) -0.0385(3)
N10 N -0.06331(19) 0.2156(3) -0.1304(3)
N11 N -0.1238(2) 0.3364(3) -0.1485(3)
N12 N -0.1592(3) 0.4119(4) -0.1864(4)
H12 H -0.1827 0.4433 -0.1472
H13 H -0.1575 0.4269 -0.2490
N13 N -0.0247(2) 0.2954(3) 0.2145(3)
N14 N 0.0000 0.4368(4) 0.2500
N15 N 0.0226(5) 0.5324(6) 0.2258(10)
H14 H 0.0041 0.5641 0.3110
Ag1A Ag 0.04698(2) 0.17064(3) 0.38585(3)
Ag1D Ag 0.04698(2) -0.17064(3) -0.11415(3)
Ag2D Ag -0.00450(2) 0.08926(3) -0.13243(3)
Ag2A Ag -0.00450(2) -0.08926(3) 0.36757(3)
C1A C 0.1738(2) 0.0483(4) 0.3977(4)
H1A H 0.1988 0.1014 0.4033
C2A C 0.1447(2) -0.0943(3) 0.3956(4)
H2A H 0.1454 -0.1588 0.4000
C3A C -0.1085(3) 0.1731(4) 0.3730(4)
H3A H -0.1088 0.2377 0.3748
C4A C -0.1382(3) 0.0315(4) 0.3603(4)
H4A H -0.1634 -0.0210 0.3512
C5D C 0.1242(3) -0.3091(4) 0.0525(4)
H5D H 0.1474 -0.3374 0.0028
C6D C 0.0861(2) -0.2771(3) 0.1948(4)
H6D H 0.0772 -0.2791 0.2629
C7A C 0.0388(3) 0.3819(4) 0.3035(5)
H7A H 0.0713 0.4022 0.3474
N1A N 0.1133(2) 0.0476(3) 0.3752(3)
N2A N 0.09430(19) -0.0449(3) 0.3726(3)
N2D N 0.09430(19) 0.0449(3) -0.1274(3)
N3A N 0.19499(19) -0.0396(3) 0.4118(3)
N4A N 0.2553(2) -0.0715(4) 0.4420(4)
H8A H 0.2617 -0.1299 0.4514
H9A H 0.2859 -0.0326 0.4513
N5A N -0.0580(2) 0.1213(3) 0.3854(3)
N6A N -0.0775(2) 0.0295(3) 0.3774(3)
N6D N -0.0775(2) -0.0295(3) -0.1226(3)
N7A N -0.1600(2) 0.1191(3) 0.3574(3)
N8A N -0.2234(2) 0.1465(4) 0.3400(4)
H10A H -0.2524 0.1053 0.3299
H11A H -0.2332 0.2046 0.3395
N9D N 0.0872(2) -0.2370(3) 0.0385(3)
N9A N 0.0872(2) 0.2370(3) 0.5385(3)
N10D N 0.06331(19) -0.2156(3) 0.1304(3)
N11D N 0.1238(2) -0.3364(3) 0.1485(3)
N12D N 0.1592(3) -0.4119(4) 0.1864(4)
H12D H 0.1827 -0.4433 0.1472
H13D H 0.1575 -0.4269 0.2490
N13A N 0.0247(2) 0.2954(3) 0.2855(3)
N15A N -0.0226(5) 0.5324(6) 0.2742(10)
H14A H -0.0041 0.5641 0.1890
loop_
_geom_bond_atom_site_label_1
_geom_bond_atom_site_label_2
_geom_bond_site_symmetry_1
_geom_bond_site_symmetry_2
Ag1 N1 1_555 1_555
Ag2 N2 1_555 1_555
B1 F1 1_555 1_555
B2 F5 1_555 1_555
C1 H1 1_555 1_555
C2 H2 1_555 1_555
C3 H3 1_555 1_555
C4 H4 1_555 1_555
C5 H5 1_555 1_555
C6 H6 1_555 1_555
C7 H7 1_555 1_555
F2 B1 1_555 1_555
F3 B1 1_555 1_555
F4 B1 1_555 1_555
F6 B2 1_555 1_555
F7 B2 1_555 1_555
F8 B2 1_555 1_555
N1 C1 1_555 1_555
N2 C2 1_555 1_555
N3 C1 1_555 1_555
N4 N3 1_555 1_555
H8 N4 1_555 1_555
H9 N4 1_555 1_555
N5 Ag1 1_555 1_555
N6 Ag2 1_555 1_555
N7 C3 1_555 1_555
N8 N7 1_555 1_555
H10 N8 1_555 1_555
H11 N8 1_555 1_555
N9 Ag1 1_555 1_555
N10 C6 1_555 1_555
N11 C5 1_555 1_555
N12 N11 1_555 1_555
H12 N12 1_555 1_555
H13 N12 1_555 1_555
N13 Ag1 1_555 1_555
N14 C7 1_555 1_555
N15 N14 1_555 1_555
H14 N15 1_555 1_555
Ag1A N1A 1_555 1_555
Ag1D N9D 1_555 1_555
Ag2D N10 1_555 1_555
Ag2A N2A 1_555 1_555
C1A H1A 1_555 1_555
C2A H2A 1_555 1_555
C3A H3A 1_555 1_555
C4A H4A 1_555 1_555
C5D H5D 1_555 1_555
C6D H6D 1_555 1_555
C7A N14 1_555 1_555
H7A C7A 1_555 1_555
N1A C1A 1_555 1_555
N2A C2A 1_555 1_555
N2D Ag2D 1_555 1_555
N3A C1A 1_555 1_555
N4A N3A 1_555 1_555
H8A N4A 1_555 1_555
H9A N4A 1_555 1_555
N5A Ag1A 1_555 1_555
N6A Ag2A 1_555 1_555
N6D Ag2D 1_555 1_555
N7A C3A 1_555 1_555
N8A N7A 1_555 1_555
H10A N8A 1_555 1_555
H11A N8A 1_555 1_555
N9D C5D 1_555 1_555
N9A Ag1A 1_555 1_555
N10D Ag2 1_555 1_555
N11D C5D 1_555 1_555
N12D N11D 1_555 1_555
H12D N12D 1_555 1_555
H13D N12D 1_555 1_555
N13A N13 1_555 1_555
N15A N14 1_555 1_555
H14A N15 1_555 1_555
C2 N3 1_555 1_555
C3 N5 1_555 1_555
C4 N6 1_555 1_555
C4 N7 1_555 1_555
C5 N9 1_555 1_555
C6 N11 1_555 1_555
C7 N13 1_555 1_555
N1 N2 1_555 1_555
N5 N6 1_555 1_555
N9 N10 1_555 1_555
N15 N15A 1_555 1_555
H14 N15A 1_555 1_555
Ag1A N13A 1_555 1_555
C2A N3A 1_555 1_555
C3A N5A 1_555 1_555
C4A N6A 1_555 1_555
C4A N7A 1_555 1_555
C6D N10D 1_555 1_555
C6D N11D 1_555 1_555
C7A N13A 1_555 1_555
N1A N2A 1_555 1_555
N5A N6A 1_555 1_555
N9D N10D 1_555 1_555
N15A H14A 1_555 1_555

#END
