
#######################################################################
#
#                 Cambridge Crystallographic Data Centre
#                                CCDC 
#
#######################################################################
#
# If this CIF has been generated from an entry in the Cambridge 
# Structural Database, then it will include bibliographic, chemical, 
# crystal, experimental, refinement or atomic coordinate data resulting 
# from the CCDC's data processing and validation procedures.
#
#######################################################################

data_HULHIG
_symmetry_cell_setting           monoclinic
_symmetry_space_group_name_H-M   'C 2/c'
_symmetry_Int_Tables_number      15
_space_group_name_Hall           '-C 2yn'
loop_
_symmetry_equiv_pos_site_id
_symmetry_equiv_pos_as_xyz
1 x,y,z
2 -x,y,1/2-z
3 1/2+x,1/2+y,z
4 1/2-x,1/2+y,1/2-z
5 -x,-y,-z
6 x,-y,1/2+z
7 1/2-x,1/2-y,-z
8 1/2+x,1/2-y,1/2+z
_cell_length_a                   21.362(4)
_cell_length_b                   14.540(3)
_cell_length_c                   13.349(3)
_cell_angle_alpha                90
_cell_angle_beta                 91.49(3)
_cell_angle_gamma                90
_cell_volume                     4144.84
loop_
_atom_site_label
_atom_site_type_symbol
_atom_site_fract_x
_atom_site_fract_y
_atom_site_fract_z
Cl2 Cl 0.09459(8) 0.61205(11) 0.47234(11)
O5 O 0.0328(3) 0.6201(8) 0.4426(6)
O6 O 0.1287(5) 0.6874(4) 0.4340(5)
O7 O 0.1021(3) 0.6118(3) 0.5774(3)
O8 O 0.1205(2) 0.5323(3) 0.4317(4)
Ag1 Ag 1.00187(2) -0.08945(3) 0.13192(3)
Ag2 Ag 0.95451(2) 0.17067(3) 0.11395(3)
N1 N 1.0576(2) 0.1189(3) 0.1175(3)
N2 N 1.0753(2) 0.0271(3) 0.1234(3)
N3 N 1.1584(2) 0.1125(3) 0.1428(3)
N4 N 1.2216(2) 0.1371(4) 0.1596(4)
H1 H 1.2495 0.0950 0.1686
H2 H 1.2323 0.1941 0.1609
N5 N 0.8874(2) 0.0491(3) 0.1249(3)
N6 N 0.9048(2) -0.0434(3) 0.1252(3)
N7 N 0.8055(2) -0.0345(3) 0.0878(3)
N8 N 0.7457(2) -0.0640(4) 0.0573(4)
H3 H 0.7386 -0.1214 0.0465
H4 H 0.7159 -0.0246 0.0492
N9 N 1.06038(19) -0.2139(3) 0.1303(3)
N10 N 1.0848(2) -0.2354(3) 0.0379(3)
N11 N 1.1204(2) -0.3336(3) 0.1486(3)
N12 N 1.1555(3) -0.4078(4) 0.1871(4)
H5 H 1.1785 -0.4395 0.1482
H6 H 1.1539 -0.4215 0.2497
N13 N 0.9754(2) 0.2938(3) 0.2155(3)
N14 N 1.0000 0.4343(4) 0.2500
N15 N 0.9794(5) 0.5296(6) 0.2717(9)
H7 H 0.9909 0.5594 0.1981
C1 C 1.1080(3) 0.1678(4) 0.1293(4)
H8 H 1.1094 0.2317 0.1285
C2 C 1.1353(3) 0.0264(4) 0.1389(4)
H9 H 1.1594 -0.0266 0.1463
C3 C 0.8276(3) 0.0516(4) 0.1025(4)
H10 H 0.8037 0.1049 0.0973
C4 C 0.8552(3) -0.0908(3) 0.1025(4)
H11 H 0.8539 -0.1545 0.0971
C5 C 1.0826(3) -0.2740(3) 0.1946(4)
H12 H 1.0735 -0.2753 0.2623
C6 C 1.1202(3) -0.3078(4) 0.0525(4)
H13 H 1.1423 -0.3374 0.0028
C7 C 0.9616(3) 0.3790(4) 0.1975(5)
H14 H 0.9296 0.3989 0.1542
N13A N 1.0246(2) 0.2938(3) 0.2845(3)
N15A N 1.0206(5) 0.5296(6) 0.2283(9)
H7A H 1.0091 0.5594 0.3019
C7A C 1.0384(3) 0.3790(4) 0.3025(5)
H14A H 1.0704 0.3989 0.3458
Ag1A Ag 0.99813(2) -0.08945(3) 0.36808(3)
Ag2A Ag 1.04549(2) 0.17067(3) 0.38605(3)
N1A N 0.9424(2) 0.1189(3) 0.3825(3)
N2A N 0.9247(2) 0.0271(3) 0.3766(3)
N3A N 0.8416(2) 0.1125(3) 0.3572(3)
N4A N 0.7784(2) 0.1371(4) 0.3404(4)
H1A H 0.7505 0.0950 0.3314
H2A H 0.7677 0.1941 0.3391
N5A N 1.1126(2) 0.0491(3) 0.3751(3)
N6A N 1.0952(2) -0.0434(3) 0.3748(3)
N7A N 1.1945(2) -0.0345(3) 0.4122(3)
N8A N 1.2543(2) -0.0640(4) 0.4427(4)
H3A H 1.2614 -0.1214 0.4535
H4A H 1.2841 -0.0246 0.4508
N9A N 0.93962(19) -0.2139(3) 0.3697(3)
N10A N 0.9152(2) -0.2354(3) 0.4621(3)
N11A N 0.8796(2) -0.3336(3) 0.3514(3)
N12A N 0.8445(3) -0.4078(4) 0.3129(4)
H5A H 0.8215 -0.4395 0.3518
H6A H 0.8461 -0.4215 0.2503
C1A C 0.8920(3) 0.1678(4) 0.3707(4)
H8A H 0.8906 0.2317 0.3715
C2A C 0.8647(3) 0.0264(4) 0.3611(4)
H9A H 0.8406 -0.0266 0.3537
C3A C 1.1724(3) 0.0516(4) 0.3975(4)
H10A H 1.1963 0.1049 0.4027
C4A C 1.1448(3) -0.0908(3) 0.3975(4)
H11A H 1.1461 -0.1545 0.4029
C5A C 0.9174(3) -0.2740(3) 0.3054(4)
H12A H 0.9265 -0.2753 0.2377
C6A C 0.8798(3) -0.3078(4) 0.4475(4)
H13A H 0.8577 -0.3374 0.4972
Ag2D Ag 1.04549(2) -0.17067(3) -0.11395(3)
Ag2E Ag 0.95451(2) -0.17067(3) 0.61395(3)
N10D N 0.9152(2) 0.2354(3) -0.0379(3)
N10E N 1.0848(2) 0.2354(3) 0.5379(3)
Cl1 Cl 0.73076(6) 0.84267(9) 0.32736(10)
O1 O 0.7004(4) 0.9138(5) 0.2720(5)
O2 O 0.6883(3) 0.7701(4) 0.3358(4)
O3 O 0.7836(2) 0.8168(4) 0.2737(4)
O4 O 0.7467(3) 0.8786(4) 0.4226(4)
loop_
_geom_bond_atom_site_label_1
_geom_bond_atom_site_label_2
_geom_bond_site_symmetry_1
_geom_bond_site_symmetry_2
Cl1 O1 1_555 1_555
O2 Cl1 1_555 1_555
O3 Cl1 1_555 1_555
O4 Cl1 1_555 1_555
Cl2 O5 1_555 1_555
O6 Cl2 1_555 1_555
O7 Cl2 1_555 1_555
O8 Cl2 1_555 1_555
Ag1 N2 1_555 1_555
Ag2 N1 1_555 1_555
N1 N2 1_555 1_555
N2 C2 1_555 1_555
N3 N4 1_555 1_555
N4 H1 1_555 1_555
H2 N4 1_555 1_555
N5 Ag2 1_555 1_555
N6 Ag1 1_555 1_555
N7 N8 1_555 1_555
N8 H3 1_555 1_555
H4 N8 1_555 1_555
N9 Ag1 1_555 1_555
N10 N9 1_555 1_555
N11 N12 1_555 1_555
N12 H5 1_555 1_555
H6 N12 1_555 1_555
N13 Ag2 1_555 1_555
N14 N15 1_555 1_555
N15 H7 1_555 1_555
H7 N15A 1_555 1_555
C1 N1 1_555 1_555
H8 C1 1_555 1_555
C2 N3 1_555 1_555
H9 C2 1_555 1_555
C3 N5 1_555 1_555
H10 C3 1_555 1_555
C4 N6 1_555 1_555
H11 C4 1_555 1_555
C5 N9 1_555 1_555
H12 C5 1_555 1_555
C6 N10 1_555 1_555
H13 C6 1_555 1_555
C7 N13 1_555 1_555
H14 C7 1_555 1_555
N13A N13 1_555 1_555
N15A N14 1_555 1_555
H7A N15 1_555 1_555
C7A N14 1_555 1_555
H14A C7A 1_555 1_555
Ag1A Ag1 1_555 1_555
Ag2A N13A 1_555 1_555
N1A Ag2A 1_555 1_555
N2A Ag1A 1_555 1_555
N3A N4A 1_555 1_555
N4A H1A 1_555 1_555
H2A N4A 1_555 1_555
N5A Ag2A 1_555 1_555
N6A Ag1A 1_555 1_555
N7A N8A 1_555 1_555
N8A H3A 1_555 1_555
H4A N8A 1_555 1_555
N9A Ag1A 1_555 1_555
N10A N9A 1_555 1_555
N11A N12A 1_555 1_555
N12A H5A 1_555 1_555
H6A N12A 1_555 1_555
C1A N1A 1_555 1_555
H8A C1A 1_555 1_555
C2A N2A 1_555 1_555
H9A C2A 1_555 1_555
C3A N5A 1_555 1_555
H10A C3A 1_555 1_555
C4A N6A 1_555 1_555
H11A C4A 1_555 1_555
C5A N9A 1_555 1_555
H12A C5A 1_555 1_555
C6A N10A 1_555 1_555
H13A C6A 1_555 1_555
Ag2D N10 1_555 1_555
Ag2E N10A 1_555 1_555
N10D Ag2 1_555 1_555
N10E Ag2A 1_555 1_555
N3 C1 1_555 1_555
N5 N6 1_555 1_555
N7 C3 1_555 1_555
N7 C4 1_555 1_555
N11 C5 1_555 1_555
N11 C6 1_555 1_555
N14 C7 1_555 1_555
N15 N15A 1_555 1_555
N13A C7A 1_555 1_555
N15A H7A 1_555 1_555
N1A N2A 1_555 1_555
N3A C1A 1_555 1_555
N3A C2A 1_555 1_555
N5A N6A 1_555 1_555
N7A C3A 1_555 1_555
N7A C4A 1_555 1_555
N11A C5A 1_555 1_555
N11A C6A 1_555 1_555

#END
