
#######################################################################
#
#                 Cambridge Crystallographic Data Centre
#                                CCDC 
#
#######################################################################
#
# If this CIF has been generated from an entry in the Cambridge 
# Structural Database, then it will include bibliographic, chemical, 
# crystal, experimental, refinement or atomic coordinate data resulting 
# from the CCDC's data processing and validation procedures.
#
#######################################################################

data_HULNOR
_symmetry_cell_setting           monoclinic
_symmetry_space_group_name_H-M   'C c'
_symmetry_Int_Tables_number      9
_space_group_name_Hall           'C -2yc'
loop_
_symmetry_equiv_pos_site_id
_symmetry_equiv_pos_as_xyz
1 x,y,z
2 x,-y,1/2+z
3 1/2+x,1/2+y,z
4 1/2+x,1/2-y,1/2+z
_cell_length_a                   14.4953(19)
_cell_length_b                   12.4520(16)
_cell_length_c                   9.3666(13)
_cell_angle_alpha                90
_cell_angle_beta                 109.318(2)
_cell_angle_gamma                90
_cell_volume                     1595.44
loop_
_atom_site_label
_atom_site_type_symbol
_atom_site_fract_x
_atom_site_fract_y
_atom_site_fract_z
Fe1 Fe 0.80880(4) -0.12116(3) 0.92834(5)
O1 O 0.89670(18) -0.0080(2) 0.8575(3)
O2 O 0.7335(2) -0.1088(2) 0.6923(3)
N1 N 0.5666(2) -0.3176(3) 0.8762(4)
H1 H 0.5164 -0.3483 0.8131
N2 N 0.6302(2) -0.2587(3) 0.8365(4)
N3 N 0.6972(2) -0.2243(2) 0.9604(3)
N4 N 0.9032(2) -0.2535(2) 0.9259(3)
N5 N 0.9939(2) -0.2489(3) 1.0206(4)
N6 N 1.0385(2) -0.3392(3) 1.0045(4)
H2 H 1.0982 -0.3545 1.0553
C1 C 0.7223(3) -0.2497(3) 1.2384(4)
H3 H 0.7788 -0.2087 1.2762
C2 C 0.6811(4) -0.3001(4) 1.3322(5)
H4 H 0.7102 -0.2934 1.4363
C3 C 0.5957(4) -0.3619(4) 1.2745(5)
H5 H 0.5699 -0.3946 1.3423
C4 C 0.5500(3) -0.3758(3) 1.1270(5)
H6 H 0.4942 -0.4180 1.0910
C5 C 0.5904(3) -0.3234(3) 1.0283(4)
C6 C 0.6751(2) -0.2630(3) 1.0823(4)
C7 C 0.9884(3) -0.5060(3) 0.8411(5)
H7 H 1.0469 -0.5439 0.8752
C8 C 0.9085(3) -0.5456(4) 0.7340(5)
H8 H 0.9125 -0.6129 0.6934
C9 C 0.8202(4) -0.4896(4) 0.6817(7)
H9 H 0.7679 -0.5207 0.6069
C10 C 0.8079(3) -0.3907(3) 0.7365(4)
H10 H 0.7487 -0.3541 0.7026
C11 C 0.7670(3) -0.0388(3) 0.6248(4)
C12 C 0.8906(2) -0.3479(3) 0.8474(4)
C13 C 0.9779(3) -0.4044(3) 0.8976(4)
C14 C 0.8604(3) 0.0205(3) 0.7239(4)
O3 O 0.73311(19) -0.0130(2) 0.4904(3)
O4 O 0.89173(19) 0.0944(2) 0.6606(3)
O3A O 0.73311(19) 0.0130(2) 0.9904(3)
O4A O 0.89173(19) -0.0944(2) 1.1606(3)
Fe1A Fe 0.80880(4) 0.12116(3) 0.42834(5)
loop_
_geom_bond_atom_site_label_1
_geom_bond_atom_site_label_2
_geom_bond_site_symmetry_1
_geom_bond_site_symmetry_2
Fe1 O1 1_555 1_555
O1 C14 1_555 1_555
O2 Fe1 1_555 1_555
N1 H1 1_555 1_555
N2 N1 1_555 1_555
N3 Fe1 1_555 1_555
N4 Fe1 1_555 1_555
N5 N4 1_555 1_555
N6 N5 1_555 1_555
H2 N6 1_555 1_555
C1 H3 1_555 1_555
C2 C1 1_555 1_555
H4 C2 1_555 1_555
C3 C2 1_555 1_555
H5 C3 1_555 1_555
C4 C3 1_555 1_555
H6 C4 1_555 1_555
C5 N1 1_555 1_555
C6 N3 1_555 1_555
C7 H7 1_555 1_555
C8 C7 1_555 1_555
H8 C8 1_555 1_555
C9 C8 1_555 1_555
H9 C9 1_555 1_555
C10 C9 1_555 1_555
H10 C10 1_555 1_555
C11 O2 1_555 1_555
C12 N4 1_555 1_555
C13 N6 1_555 1_555
C14 C11 1_555 1_555
O3 C11 1_555 1_555
O4 C14 1_555 1_555
O3A Fe1 1_555 1_555
O4A Fe1 1_555 1_555
Fe1A O3 1_555 1_555
N2 N3 1_555 1_555
C1 C6 1_555 1_555
C4 C5 1_555 1_555
C5 C6 1_555 1_555
C7 C13 1_555 1_555
C10 C12 1_555 1_555
C12 C13 1_555 1_555
O4 Fe1A 1_555 1_555

#END
