
#######################################################################
#
#                 Cambridge Crystallographic Data Centre
#                                CCDC 
#
#######################################################################
#
# If this CIF has been generated from an entry in the Cambridge 
# Structural Database, then it will include bibliographic, chemical, 
# crystal, experimental, refinement or atomic coordinate data resulting 
# from the CCDC's data processing and validation procedures.
#
#######################################################################

data_HULPUB
_symmetry_cell_setting           monoclinic
_symmetry_space_group_name_H-M   'C 2/c'
_symmetry_Int_Tables_number      15
_space_group_name_Hall           '-C 2yn'
loop_
_symmetry_equiv_pos_site_id
_symmetry_equiv_pos_as_xyz
1 x,y,z
2 1/2+x,1/2+y,z
3 -x,y,1/2-z
4 1/2-x,1/2+y,1/2-z
5 -x,-y,-z
6 1/2-x,1/2-y,-z
7 x,-y,1/2+z
8 1/2+x,1/2-y,1/2+z
_cell_length_a                   15.3316(4)
_cell_length_b                   10.3039(3)
_cell_length_c                   15.7168(4)
_cell_angle_alpha                90
_cell_angle_beta                 90.550(2)
_cell_angle_gamma                90
_cell_volume                     2482.75
loop_
_atom_site_label
_atom_site_type_symbol
_atom_site_fract_x
_atom_site_fract_y
_atom_site_fract_z
Fe1 Fe 0.2500 0.2500 0.5000
Na1 Na 0.0000 0.48625(6) 0.7500
N1 N 0.31741(6) 0.39262(9) 0.58035(6)
C1 C 0.40456(7) 0.40818(11) 0.57629(7)
C2 C 0.44840(8) 0.50301(12) 0.62175(8)
C3 C 0.40170(8) 0.58437(13) 0.67430(8)
C4 C 0.31235(8) 0.56748(12) 0.68048(7)
C5 C 0.27262(7) 0.47154(11) 0.63215(7)
N2 N 0.06593(6) 0.65453(10) 0.65921(6)
C6 C 0.06801(7) 0.63938(12) 0.57481(7)
C7 C 0.11407(9) 0.72027(12) 0.52118(8)
C8 C 0.16091(8) 0.82167(12) 0.55606(9)
C9 C 0.15919(8) 0.83972(12) 0.64322(9)
C10 C 0.11075(8) 0.75428(12) 0.69180(8)
N3 N 0.17558(6) 0.19322(10) 0.60159(6)
N4 N 0.11613(6) 0.25534(9) 0.62944(6)
N5 N 0.05863(7) 0.31311(11) 0.65765(7)
N6 N 0.15955(6) 0.38552(10) 0.47011(6)
N7 N 0.14885(6) 0.44109(9) 0.40405(6)
N8 N 0.13580(7) 0.49695(12) 0.34160(7)
H1 H 0.4357 0.3537 0.5399
H2 H 0.5101 0.5119 0.6144
H3 H 0.4278 0.6527 0.7052
H4 H 0.2785 0.6210 0.7182
H5 H 0.2096 0.4607 0.6332
H6 H 0.0371 0.5685 0.5518
H7 H 0.1103 0.7084 0.4639
H8 H 0.1915 0.8789 0.5218
H9 H 0.1894 0.9089 0.6682
H10 H 0.1082 0.7642 0.7521
N6D N -0.15955(6) 0.61448(10) 0.52989(6)
N7D N -0.14885(6) 0.55891(9) 0.59595(6)
N8D N -0.13580(7) 0.50305(12) 0.65840(7)
N1E N 0.18259(6) 0.10738(9) 0.41965(6)
C1E C 0.09544(7) 0.09182(11) 0.42371(7)
C2E C 0.05160(8) -0.00301(12) 0.37825(8)
C3E C 0.09830(8) -0.08437(13) 0.32570(8)
C4E C 0.18765(8) -0.06748(12) 0.31952(7)
C5E C 0.22738(7) 0.02846(11) 0.36785(7)
H1E H 0.0643 0.1463 0.4601
H2E H -0.0101 -0.0119 0.3856
H3E H 0.0722 -0.1527 0.2948
H4E H 0.2215 -0.1210 0.2818
H5E H 0.2904 0.0393 0.3668
N2B N -0.06593(6) 0.65453(10) 0.84079(6)
C6B C -0.06801(7) 0.63938(12) 0.92519(7)
C7B C -0.11407(9) 0.72027(12) 0.97882(8)
C8B C -0.16091(8) 0.82167(12) 0.94394(9)
C9B C -0.15919(8) 0.83972(12) 0.85678(9)
C10B C -0.11075(8) 0.75428(12) 0.80820(8)
H6B H -0.0371 0.5685 0.9482
H7B H -0.1103 0.7084 1.0361
H8B H -0.1915 0.8789 0.9782
H9B H -0.1894 0.9089 0.8318
H10B H -0.1082 0.7642 0.7479
N3E N 0.32442(6) 0.30678(10) 0.39841(6)
N4E N 0.38387(6) 0.24466(9) 0.37056(6)
N5E N 0.44137(7) 0.18689(11) 0.34235(7)
Fe1D Fe -0.2500 0.7500 0.5000
Na1D Na 0.0000 0.51375(6) 0.2500
Na1E Na 0.5000 0.01375(6) 0.2500
N5B N -0.05863(7) 0.31311(11) 0.84235(7)
N6E N 0.34045(6) 0.11448(10) 0.52989(6)
N8F N 0.13580(7) 0.50305(12) 0.84160(7)
loop_
_geom_bond_atom_site_label_1
_geom_bond_atom_site_label_2
_geom_bond_site_symmetry_1
_geom_bond_site_symmetry_2
Fe1 N1 1_555 1_555
Na1 N2 1_555 1_555
N1 C1 1_555 1_555
C1 C2 1_555 1_555
C2 C3 1_555 1_555
C3 C4 1_555 1_555
C4 C5 1_555 1_555
C5 N1 1_555 1_555
N2 C6 1_555 1_555
C6 C7 1_555 1_555
C7 C8 1_555 1_555
C8 C9 1_555 1_555
C9 C10 1_555 1_555
C10 N2 1_555 1_555
N3 Fe1 1_555 1_555
N4 N3 1_555 1_555
N5 Na1 1_555 1_555
N6 Fe1 1_555 1_555
N7 N6 1_555 1_555
N8 N7 1_555 1_555
H1 C1 1_555 1_555
H2 C2 1_555 1_555
H3 C3 1_555 1_555
H4 C4 1_555 1_555
H5 C5 1_555 1_555
H6 C6 1_555 1_555
H7 C7 1_555 1_555
H8 C8 1_555 1_555
H9 C9 1_555 1_555
H10 C10 1_555 1_555
N6D N7D 1_555 1_555
N7D N8D 1_555 1_555
N8D Na1 1_555 1_555
N1E Fe1 1_555 1_555
C1E N1E 1_555 1_555
C2E C1E 1_555 1_555
C3E C2E 1_555 1_555
C4E C3E 1_555 1_555
C5E N1E 1_555 1_555
H1E C1E 1_555 1_555
H2E C2E 1_555 1_555
H3E C3E 1_555 1_555
H4E C4E 1_555 1_555
H5E C5E 1_555 1_555
N2B Na1 1_555 1_555
C6B N2B 1_555 1_555
C7B C6B 1_555 1_555
C8B C7B 1_555 1_555
C9B C8B 1_555 1_555
C10B N2B 1_555 1_555
H6B C6B 1_555 1_555
H7B C7B 1_555 1_555
H8B C8B 1_555 1_555
H9B C9B 1_555 1_555
H10B C10B 1_555 1_555
N3E Fe1 1_555 1_555
N4E N3E 1_555 1_555
N5E N4E 1_555 1_555
Fe1D N6D 1_555 1_555
Na1D N8 1_555 1_555
Na1E N5E 1_555 1_555
N5B Na1 1_555 1_555
N6E Fe1 1_555 1_555
N8F Na1 1_555 1_555
N4 N5 1_555 1_555
C4E C5E 1_555 1_555
C9B C10B 1_555 1_555

#END
