
#######################################################################
#
#                 Cambridge Crystallographic Data Centre
#                                CCDC 
#
#######################################################################
#
# If this CIF has been generated from an entry in the Cambridge 
# Structural Database, then it will include bibliographic, chemical, 
# crystal, experimental, refinement or atomic coordinate data resulting 
# from the CCDC's data processing and validation procedures.
#
#######################################################################

data_HULPUA
_symmetry_cell_setting           monoclinic
_symmetry_space_group_name_H-M   'C 2/c'
_symmetry_Int_Tables_number      15
_space_group_name_Hall           '-C 2yn'
loop_
_symmetry_equiv_pos_site_id
_symmetry_equiv_pos_as_xyz
1 x,y,z
2 -x,y,1/2-z
3 1/2+x,1/2+y,z
4 1/2-x,1/2+y,1/2-z
5 -x,-y,-z
6 x,-y,1/2+z
7 1/2-x,1/2-y,-z
8 1/2+x,1/2-y,1/2+z
_cell_length_a                   15.591(6)
_cell_length_b                   12.468(3)
_cell_length_c                   12.251(3)
_cell_angle_alpha                90
_cell_angle_beta                 94.992(16)
_cell_angle_gamma                90
_cell_volume                     2372.42
loop_
_atom_site_label
_atom_site_type_symbol
_atom_site_fract_x
_atom_site_fract_y
_atom_site_fract_z
O6 O 0.5307(10) 0.4548(12) 0.2826(14)
O6A O 0.4693(10) 0.4548(12) 0.2174(14)
Pr1 Pr 1.0000 0.56621(2) 0.2500
O1 O 1.0552(2) 0.6571(2) 0.0873(2)
O2 O 1.0964(2) 0.7356(3) 0.2428(2)
O3 O 1.3480(2) 0.9903(3) 0.2408(3)
O4 O 1.3807(3) 1.0598(2) 0.0843(3)
O5 O 0.9839(3) 0.4094(3) 0.3813(3)
N1 N 1.1731(3) 0.8914(4) -0.2053(3)
H1 H 1.2263 0.8983 -0.2317
N2 N 1.0634(8) 0.9294(7) -0.4215(8)
N3 N 1.1026(8) 0.8465(9) -0.5648(7)
H3 H 1.1104 0.8316 -0.6334
C1 C 1.1864(3) 0.8811(4) -0.0914(3)
C2 C 1.1381(3) 0.8111(3) -0.0334(3)
H4 H 1.0970 0.7655 -0.0719
C3 C 1.1490(3) 0.8069(3) 0.0807(3)
C4 C 1.2104(3) 0.8718(3) 0.1379(3)
H5 H 1.2175 0.8697 0.2157
C5 C 1.2615(4) 0.9400(3) 0.0799(4)
C6 C 1.2489(4) 0.9456(3) -0.0334(4)
H6 H 1.2827 0.9934 -0.0723
C7 C 1.1275(7) 0.8095(7) -0.2677(6)
H7 H 1.0702 0.7997 -0.2400
H8 H 1.1593 0.7411 -0.2573
C8 C 1.1162(9) 0.8351(9) -0.3860(8)
C9 C 1.1348(8) 0.7882(8) -0.4746(8)
H9 H 1.1661 0.7230 -0.4775
C10 C 1.0556(12) 0.9334(9) -0.5290(11)
H10 H 1.0243 0.9849 -0.5735
C11 C 1.0973(3) 0.7293(3) 0.1404(3)
C12 C 1.3339(3) 1.0013(3) 0.1381(3)
Pr1B Pr 1.5000 1.06621(2) 0.2500
Pr1B_2 Pr 0.5000 1.06621(2) 0.2500
O1A O 0.9448(2) 0.6571(2) 0.4127(2)
O2A O 0.9036(2) 0.7356(3) 0.2572(2)
O3A O 0.6520(2) 0.9903(3) 0.2592(3)
O3B O 0.8480(2) 0.4903(3) 0.2408(3)
O3C O 1.1520(2) 0.4903(3) 0.2592(3)
O4A O 0.6193(3) 1.0598(2) 0.4157(3)
O4B O 0.8807(3) 0.5598(2) 0.0843(3)
O4C O 1.1193(3) 0.5598(2) 0.4157(3)
O5A O 1.0161(3) 0.4094(3) 0.1187(3)
N1A N 0.8269(3) 0.8914(4) 0.7053(3)
H1A H 0.7737 0.8983 0.7317
N2A N 0.9366(8) 0.9294(7) 0.9215(8)
N3A N 0.8974(8) 0.8465(9) 1.0648(7)
H3A H 0.8896 0.8316 1.1334
C1A C 0.8136(3) 0.8811(4) 0.5914(3)
C2A C 0.8619(3) 0.8111(3) 0.5334(3)
H4A H 0.9030 0.7655 0.5719
C3A C 0.8510(3) 0.8069(3) 0.4193(3)
C4A C 0.7896(3) 0.8718(3) 0.3621(3)
H5A H 0.7825 0.8697 0.2843
C5A C 0.7385(4) 0.9400(3) 0.4201(4)
C6A C 0.7511(4) 0.9456(3) 0.5334(4)
H6A H 0.7173 0.9934 0.5723
C7A C 0.8725(7) 0.8095(7) 0.7677(6)
H7A H 0.9298 0.7997 0.7400
H8A H 0.8407 0.7411 0.7573
C8A C 0.8838(9) 0.8351(9) 0.8860(8)
C9A C 0.8652(8) 0.7882(8) 0.9746(8)
H9A H 0.8339 0.7230 0.9775
C10A C 0.9444(12) 0.9334(9) 1.0290(11)
H10A H 0.9757 0.9849 1.0735
C11A C 0.9027(3) 0.7293(3) 0.3596(3)
C12A C 0.6661(3) 1.0013(3) 0.3619(3)
H2? H 0.6443 0.4549 -0.2198
loop_
_geom_bond_atom_site_label_1
_geom_bond_atom_site_label_2
_geom_bond_site_symmetry_1
_geom_bond_site_symmetry_2
Pr1 O1 1_555 1_555
O1 C11 1_555 1_555
O2 Pr1 1_555 1_555
O3 C12 1_555 1_555
O4 C12 1_555 1_555
O5 Pr1 1_555 1_555
O6 O6A 1_555 1_555
N1 H1 1_555 1_555
N2 C8 1_555 1_555
N3 H3 1_555 1_555
C1 N1 1_555 1_555
C2 C1 1_555 1_555
H4 C2 1_555 1_555
C3 C2 1_555 1_555
C4 C3 1_555 1_555
H5 C4 1_555 1_555
C5 C4 1_555 1_555
C6 C1 1_555 1_555
H6 C6 1_555 1_555
C7 N1 1_555 1_555
H7 C7 1_555 1_555
H8 C7 1_555 1_555
C8 C7 1_555 1_555
C9 N3 1_555 1_555
H9 C9 1_555 1_555
C10 N2 1_555 1_555
H10 C10 1_555 1_555
C11 O2 1_555 1_555
C12 C5 1_555 1_555
Pr1B O3 1_555 1_555
Pr1B_2 O3A 1_555 1_555
O1A Pr1 1_555 1_555
O2A Pr1 1_555 1_555
O3A C12A 1_555 1_555
O3B Pr1 1_555 1_555
O3C Pr1 1_555 1_555
O4A Pr1B_2 1_555 1_555
O4B Pr1 1_555 1_555
O4C Pr1 1_555 1_555
O5A Pr1 1_555 1_555
N1A H1A 1_555 1_555
N2A C8A 1_555 1_555
N3A H3A 1_555 1_555
C1A N1A 1_555 1_555
C2A C1A 1_555 1_555
H4A C2A 1_555 1_555
C3A C2A 1_555 1_555
C4A C3A 1_555 1_555
H5A C4A 1_555 1_555
C5A C4A 1_555 1_555
C6A C1A 1_555 1_555
H6A C6A 1_555 1_555
C7A N1A 1_555 1_555
H7A C7A 1_555 1_555
H8A C7A 1_555 1_555
C8A C7A 1_555 1_555
C9A N3A 1_555 1_555
H9A C9A 1_555 1_555
C10A N2A 1_555 1_555
H10A C10A 1_555 1_555
C11A O1A 1_555 1_555
C12A O4A 1_555 1_555
O4 Pr1B 1_555 1_555
N3 C10 1_555 1_555
C3 C11 1_555 1_555
C5 C6 1_555 1_555
C8 C9 1_555 1_555
O2A C11A 1_555 1_555
N3A C10A 1_555 1_555
C3A C11A 1_555 1_555
C5A C6A 1_555 1_555
C5A C12A 1_555 1_555
C8A C9A 1_555 1_555

#END
