
#######################################################################
#
#                 Cambridge Crystallographic Data Centre
#                                CCDC 
#
#######################################################################
#
# If this CIF has been generated from an entry in the Cambridge 
# Structural Database, then it will include bibliographic, chemical, 
# crystal, experimental, refinement or atomic coordinate data resulting 
# from the CCDC's data processing and validation procedures.
#
#######################################################################

data_HULQIP
_symmetry_cell_setting           monoclinic
_symmetry_space_group_name_H-M   'C 2/c'
_symmetry_Int_Tables_number      15
_space_group_name_Hall           '-C 2yn'
loop_
_symmetry_equiv_pos_site_id
_symmetry_equiv_pos_as_xyz
1 x,y,z
2 -x,y,1/2-z
3 1/2+x,1/2+y,z
4 1/2-x,1/2+y,1/2-z
5 -x,-y,-z
6 x,-y,1/2+z
7 1/2-x,1/2-y,-z
8 1/2+x,1/2-y,1/2+z
_cell_length_a                   15.460(5)
_cell_length_b                   12.313(6)
_cell_length_c                   12.211(5)
_cell_angle_alpha                90
_cell_angle_beta                 94.943(15)
_cell_angle_gamma                90
_cell_volume                     2315.83
loop_
_atom_site_label
_atom_site_type_symbol
_atom_site_fract_x
_atom_site_fract_y
_atom_site_fract_z
O6 O 0.5315(9) 0.4489(10) 0.2867(15)
H3 H 0.558(15) 0.440(16) 0.348(9)
O6A O 0.4685(9) 0.4489(10) 0.2133(15)
H3A H 0.442(15) 0.440(16) 0.152(9)
Gd1 Gd 0.5000 0.934619(18) 0.7500
O1 O 0.44586(19) 0.8477(2) 0.9112(2)
O2 O 0.4049(2) 0.7678(2) 0.7551(2)
O3 O 0.14939(19) 0.5101(3) 0.7569(2)
O4 O 0.1182(2) 0.4393(2) 0.9140(3)
O5 O 0.5126(2) 1.0900(3) 0.6243(3)
H1 H 0.494(4) 1.101(6) 0.561(2)
H2 H 0.544(4) 1.145(3) 0.626(5)
N1 N 0.3270(3) 0.6091(4) 1.2041(3)
H6 H 0.2730 0.6050 1.2304
N2 N 0.4385(6) 0.5704(6) 1.4228(8)
N3 N 0.3990(7) 0.6557(8) 1.5648(7)
H7 H 0.3912 0.6719 1.6334
C1 C 0.3142(3) 0.6192(3) 1.0899(3)
C2 C 0.3629(2) 0.6907(3) 1.0319(3)
H8 H 0.4042 0.7370 1.0706
C3 C 0.3517(2) 0.6951(3) 0.9175(3)
C4 C 0.2901(2) 0.6293(3) 0.8597(3)
H9 H 0.2830 0.6314 0.7816
C5 C 0.2392(3) 0.5601(3) 0.9181(4)
C6 C 0.2515(3) 0.5543(3) 1.0316(4)
H10 H 0.2172 0.5060 1.0703
C7 C 0.3754(6) 0.6902(7) 1.2673(7)
H11 H 0.3446 0.7605 1.2588
H12 H 0.4329 0.6989 1.2385
C8 C 0.3877(6) 0.6621(7) 1.3854(7)
C9 C 0.3662(6) 0.7153(8) 1.4712(8)
H13 H 0.3346 0.7815 1.4710
C10 C 0.4458(9) 0.5668(9) 1.5302(10)
H14 H 0.4766 0.5144 1.5755
C11 C 0.4036(2) 0.7738(3) 0.8579(3)
C12 C 0.1652(2) 0.4984(3) 0.8597(3)
Gd1B Gd 0.0000 0.434619(18) 0.7500
Gd1B_2 Gd 1.0000 0.434619(18) 0.7500
O1A O 0.55414(19) 0.8477(2) 0.5888(2)
O2A O 0.5951(2) 0.7678(2) 0.7449(2)
O3A O 0.85061(19) 0.5101(3) 0.7431(2)
O3B O 0.64939(19) 1.0101(3) 0.7569(2)
O3C O 0.35061(19) 1.0101(3) 0.7431(2)
O4A O 0.8818(2) 0.4393(2) 0.5860(3)
O4B O 0.6182(2) 0.9393(2) 0.9140(3)
O4C O 0.3818(2) 0.9393(2) 0.5860(3)
O5A O 0.4874(2) 1.0900(3) 0.8757(3)
H1A H 0.506(4) 1.101(6) 0.939(2)
H2A H 0.456(4) 1.145(3) 0.874(5)
N1A N 0.6730(3) 0.6091(4) 0.2959(3)
H6A H 0.7270 0.6050 0.2696
N2A N 0.5615(6) 0.5704(6) 0.0772(8)
N3A N 0.6010(7) 0.6557(8) -0.0648(7)
H7A H 0.6088 0.6719 -0.1334
C1A C 0.6858(3) 0.6192(3) 0.4101(3)
C2A C 0.6371(2) 0.6907(3) 0.4681(3)
H8A H 0.5958 0.7370 0.4294
C3A C 0.6483(2) 0.6951(3) 0.5825(3)
C4A C 0.7099(2) 0.6293(3) 0.6403(3)
H9A H 0.7170 0.6314 0.7184
C5A C 0.7608(3) 0.5601(3) 0.5819(4)
C6A C 0.7485(3) 0.5543(3) 0.4684(4)
H10A H 0.7828 0.5060 0.4297
C7A C 0.6246(6) 0.6902(7) 0.2327(7)
H11A H 0.6554 0.7605 0.2412
H12A H 0.5671 0.6989 0.2615
C8A C 0.6123(6) 0.6621(7) 0.1146(7)
C9A C 0.6338(6) 0.7153(8) 0.0288(8)
H13A H 0.6654 0.7815 0.0290
C10A C 0.5542(9) 0.5668(9) -0.0302(10)
H14A H 0.5234 0.5144 -0.0755
C11A C 0.5964(2) 0.7738(3) 0.6421(3)
C12A C 0.8348(2) 0.4984(3) 0.6403(3)
H4? H 0.5000 0.495(3) 0.2500
H5? H 0.3539 0.5435 1.2191
loop_
_geom_bond_atom_site_label_1
_geom_bond_atom_site_label_2
_geom_bond_site_symmetry_1
_geom_bond_site_symmetry_2
Gd1 O1 1_555 1_555
O1 C11 1_555 1_555
O2 Gd1 1_555 1_555
O3 C12 1_555 1_555
O4 C12 1_555 1_555
O5 Gd1 1_555 1_555
H1 O5 1_555 1_555
H2 O5 1_555 1_555
O6 H3 1_555 1_555
N1 H6 1_555 1_555
N2 C8 1_555 1_555
N3 H7 1_555 1_555
C1 N1 1_555 1_555
C2 C1 1_555 1_555
H8 C2 1_555 1_555
C3 C2 1_555 1_555
C4 C3 1_555 1_555
H9 C4 1_555 1_555
C5 C4 1_555 1_555
C6 C1 1_555 1_555
H10 C6 1_555 1_555
C7 N1 1_555 1_555
H11 C7 1_555 1_555
H12 C7 1_555 1_555
C8 C7 1_555 1_555
C9 N3 1_555 1_555
H13 C9 1_555 1_555
C10 N2 1_555 1_555
H14 C10 1_555 1_555
C11 O2 1_555 1_555
C12 C5 1_555 1_555
Gd1B O3 1_555 1_555
Gd1B_2 O3A 1_555 1_555
O1A Gd1 1_555 1_555
O2A Gd1 1_555 1_555
O3A C12A 1_555 1_555
O3B Gd1 1_555 1_555
O3C Gd1 1_555 1_555
O4A Gd1B_2 1_555 1_555
O4B Gd1 1_555 1_555
O4C Gd1 1_555 1_555
O5A Gd1 1_555 1_555
H1A O5A 1_555 1_555
H2A O5A 1_555 1_555
O6A O6 1_555 1_555
H3A O6A 1_555 1_555
N1A H6A 1_555 1_555
N2A C8A 1_555 1_555
N3A H7A 1_555 1_555
C1A N1A 1_555 1_555
C2A C1A 1_555 1_555
H8A C2A 1_555 1_555
C3A C2A 1_555 1_555
C4A C3A 1_555 1_555
H9A C4A 1_555 1_555
C5A C4A 1_555 1_555
C6A C1A 1_555 1_555
H10A C6A 1_555 1_555
C7A N1A 1_555 1_555
H11A C7A 1_555 1_555
H12A C7A 1_555 1_555
C8A C7A 1_555 1_555
C9A N3A 1_555 1_555
H13A C9A 1_555 1_555
C10A N2A 1_555 1_555
H14A C10A 1_555 1_555
C11A O1A 1_555 1_555
C12A O4A 1_555 1_555
O4 Gd1B 1_555 1_555
N3 C10 1_555 1_555
C3 C11 1_555 1_555
C5 C6 1_555 1_555
C8 C9 1_555 1_555
O2A C11A 1_555 1_555
N3A C10A 1_555 1_555
C3A C11A 1_555 1_555
C5A C6A 1_555 1_555
C5A C12A 1_555 1_555
C8A C9A 1_555 1_555

#END
