
#######################################################################
#
#                 Cambridge Crystallographic Data Centre
#                                CCDC 
#
#######################################################################
#
# If this CIF has been generated from an entry in the Cambridge 
# Structural Database, then it will include bibliographic, chemical, 
# crystal, experimental, refinement or atomic coordinate data resulting 
# from the CCDC's data processing and validation procedures.
#
#######################################################################

data_HULQOV
_symmetry_cell_setting           monoclinic
_symmetry_space_group_name_H-M   'C 2/c'
_symmetry_Int_Tables_number      15
_space_group_name_Hall           '-C 2yn'
loop_
_symmetry_equiv_pos_site_id
_symmetry_equiv_pos_as_xyz
1 x,y,z
2 -x,y,1/2-z
3 1/2+x,1/2+y,z
4 1/2-x,1/2+y,1/2-z
5 -x,-y,-z
6 x,-y,1/2+z
7 1/2-x,1/2-y,-z
8 1/2+x,1/2-y,1/2+z
_cell_length_a                   15.394(6)
_cell_length_b                   12.353(5)
_cell_length_c                   12.192(4)
_cell_angle_alpha                90
_cell_angle_beta                 95.228(18)
_cell_angle_gamma                90
_cell_volume                     2308.81
loop_
_atom_site_label
_atom_site_type_symbol
_atom_site_fract_x
_atom_site_fract_y
_atom_site_fract_z
O6 O 0.5334(7) 0.4481(9) 0.2903(13)
H3 H 0.572(2) 0.454(7) 0.247(4)
O6A O 0.4666(7) 0.4481(9) 0.2097(13)
H3A H 0.428(2) 0.454(7) 0.253(4)
Tb1 Tb 1.0000 0.565279(17) 0.2500
O1 O 1.05419(18) 0.6512(2) 0.0898(2)
O2 O 1.0947(2) 0.7315(2) 0.2457(2)
O3 O 1.35080(19) 0.9901(3) 0.2431(2)
O4 O 1.3819(2) 1.0606(2) 0.0858(3)
O5 O 0.9876(2) 0.4104(3) 0.3754(3)
H1 H 1.013(3) 0.416(5) 0.438(2)
H2 H 0.946(2) 0.368(3) 0.376(5)
N1 N 1.1721(3) 0.8907(4) -0.2042(3)
H6 H 1.1437 0.9553 -0.2189
N2 N 1.0610(6) 0.9316(6) -0.4222(7)
N3 N 1.0993(7) 0.8455(8) -0.5661(7)
H7 H 1.1059 0.8292 -0.6351
C1 C 1.1856(3) 0.8801(3) -0.0900(3)
C2 C 1.1364(2) 0.8087(3) -0.0318(3)
H8 H 1.0947 0.7628 -0.0706
C3 C 1.1480(2) 0.8044(3) 0.0828(3)
C4 C 1.2098(2) 0.8704(3) 0.1404(3)
H9 H 1.2174 0.8683 0.2186
C5 C 1.2608(3) 0.9401(3) 0.0819(4)
C6 C 1.2482(3) 0.9455(3) -0.0316(4)
H10 H 1.2823 0.9940 -0.0704
C7 C 1.1253(6) 0.8095(7) -0.2663(7)
H11 H 1.0679 0.7989 -0.2372
H12 H 1.1577 0.7404 -0.2582
C8 C 1.1116(7) 0.8386(8) -0.3857(7)
C9 C 1.1348(6) 0.7825(9) -0.4698(8)
H13 H 1.1670 0.7168 -0.4687
C10 C 1.0539(9) 0.9345(9) -0.5319(10)
H14 H 1.0237 0.9871 -0.5776
C11 C 1.0961(2) 0.7253(3) 0.1429(3)
C12 C 1.3348(2) 1.0017(3) 0.1402(3)
Tb1B Tb 1.5000 1.065279(17) 0.2500
Tb1B_2 Tb 0.5000 1.065279(17) 0.2500
O1A O 0.94581(18) 0.6512(2) 0.4102(2)
O2A O 0.9053(2) 0.7315(2) 0.2543(2)
O3A O 0.64920(19) 0.9901(3) 0.2569(2)
O3B O 0.85080(19) 0.4901(3) 0.2431(2)
O3C O 1.14920(19) 0.4901(3) 0.2569(2)
O4A O 0.6181(2) 1.0606(2) 0.4142(3)
O4B O 0.8819(2) 0.5606(2) 0.0858(3)
O4C O 1.1181(2) 0.5606(2) 0.4142(3)
O5A O 1.0124(2) 0.4104(3) 0.1246(3)
H1A H 0.987(3) 0.416(5) 0.062(2)
H2A H 1.054(2) 0.368(3) 0.124(5)
N1A N 0.8279(3) 0.8907(4) 0.7042(3)
H6A H 0.8563 0.9553 0.7189
N2A N 0.9390(6) 0.9316(6) 0.9222(7)
N3A N 0.9007(7) 0.8455(8) 1.0661(7)
H7A H 0.8941 0.8292 1.1351
C1A C 0.8144(3) 0.8801(3) 0.5900(3)
C2A C 0.8636(2) 0.8087(3) 0.5318(3)
H8A H 0.9053 0.7628 0.5706
C3A C 0.8520(2) 0.8044(3) 0.4172(3)
C4A C 0.7902(2) 0.8704(3) 0.3596(3)
H9A H 0.7826 0.8683 0.2814
C5A C 0.7392(3) 0.9401(3) 0.4181(4)
C6A C 0.7518(3) 0.9455(3) 0.5316(4)
H10A H 0.7177 0.9940 0.5704
C7A C 0.8747(6) 0.8095(7) 0.7663(7)
H11A H 0.9321 0.7989 0.7372
H12A H 0.8423 0.7404 0.7582
C8A C 0.8884(7) 0.8386(8) 0.8857(7)
C9A C 0.8652(6) 0.7825(9) 0.9698(8)
H13A H 0.8330 0.7168 0.9687
C10A C 0.9461(9) 0.9345(9) 1.0319(10)
H14A H 0.9763 0.9871 1.0776
C11A C 0.9039(2) 0.7253(3) 0.3571(3)
C12A C 0.6652(2) 1.0017(3) 0.3598(3)
H4? H 0.506(5) 0.506(4) 0.280(9)
H5? H 0.7260 0.3966 -0.2307
loop_
_geom_bond_atom_site_label_1
_geom_bond_atom_site_label_2
_geom_bond_site_symmetry_1
_geom_bond_site_symmetry_2
Tb1 O1 1_555 1_555
O1 C11 1_555 1_555
O2 Tb1 1_555 1_555
O3 C12 1_555 1_555
O4 C12 1_555 1_555
O5 Tb1 1_555 1_555
H1 O5 1_555 1_555
H2 O5 1_555 1_555
O6 H3 1_555 1_555
N1 H6 1_555 1_555
N2 C8 1_555 1_555
N3 H7 1_555 1_555
C1 N1 1_555 1_555
C2 C1 1_555 1_555
H8 C2 1_555 1_555
C3 C2 1_555 1_555
C4 C3 1_555 1_555
H9 C4 1_555 1_555
C5 C4 1_555 1_555
C6 C1 1_555 1_555
H10 C6 1_555 1_555
C7 N1 1_555 1_555
H11 C7 1_555 1_555
H12 C7 1_555 1_555
C8 C7 1_555 1_555
C9 N3 1_555 1_555
H13 C9 1_555 1_555
C10 N2 1_555 1_555
H14 C10 1_555 1_555
C11 O2 1_555 1_555
C12 C5 1_555 1_555
Tb1B O3 1_555 1_555
Tb1B_2 O3A 1_555 1_555
O1A Tb1 1_555 1_555
O2A Tb1 1_555 1_555
O3A C12A 1_555 1_555
O3B Tb1 1_555 1_555
O3C Tb1 1_555 1_555
O4A Tb1B_2 1_555 1_555
O4B Tb1 1_555 1_555
O4C Tb1 1_555 1_555
O5A Tb1 1_555 1_555
H1A O5A 1_555 1_555
H2A O5A 1_555 1_555
O6A O6 1_555 1_555
H3A O6A 1_555 1_555
N1A H6A 1_555 1_555
N2A C8A 1_555 1_555
N3A H7A 1_555 1_555
C1A N1A 1_555 1_555
C2A C1A 1_555 1_555
H8A C2A 1_555 1_555
C3A C2A 1_555 1_555
C4A C3A 1_555 1_555
H9A C4A 1_555 1_555
C5A C4A 1_555 1_555
C6A C1A 1_555 1_555
H10A C6A 1_555 1_555
C7A N1A 1_555 1_555
H11A C7A 1_555 1_555
H12A C7A 1_555 1_555
C8A C7A 1_555 1_555
C9A N3A 1_555 1_555
H13A C9A 1_555 1_555
C10A N2A 1_555 1_555
H14A C10A 1_555 1_555
C11A O1A 1_555 1_555
C12A O4A 1_555 1_555
O4 Tb1B 1_555 1_555
N3 C10 1_555 1_555
C3 C11 1_555 1_555
C5 C6 1_555 1_555
C8 C9 1_555 1_555
O2A C11A 1_555 1_555
N3A C10A 1_555 1_555
C3A C11A 1_555 1_555
C5A C6A 1_555 1_555
C5A C12A 1_555 1_555
C8A C9A 1_555 1_555

#END
