
#######################################################################
#
#                 Cambridge Crystallographic Data Centre
#                                CCDC 
#
#######################################################################
#
# If this CIF has been generated from an entry in the Cambridge 
# Structural Database, then it will include bibliographic, chemical, 
# crystal, experimental, refinement or atomic coordinate data resulting 
# from the CCDC's data processing and validation procedures.
#
#######################################################################

data_HULQEL
_symmetry_cell_setting           monoclinic
_symmetry_space_group_name_H-M   'C 2/c'
_symmetry_Int_Tables_number      15
_space_group_name_Hall           '-C 2yn'
loop_
_symmetry_equiv_pos_site_id
_symmetry_equiv_pos_as_xyz
1 x,y,z
2 -x,y,1/2-z
3 1/2+x,1/2+y,z
4 1/2-x,1/2+y,1/2-z
5 -x,-y,-z
6 x,-y,1/2+z
7 1/2-x,1/2-y,-z
8 1/2+x,1/2-y,1/2+z
_cell_length_a                   15.510(7)
_cell_length_b                   12.405(4)
_cell_length_c                   12.203(5)
_cell_angle_alpha                90
_cell_angle_beta                 95.33(2)
_cell_angle_gamma                90
_cell_volume                     2337.72
loop_
_atom_site_label
_atom_site_type_symbol
_atom_site_fract_x
_atom_site_fract_y
_atom_site_fract_z
O6 O 0.0315(8) 0.5495(10) 0.2879(13)
H4 H 0.057(13) 0.571(13) 0.235(12)
O6A O -0.0315(8) 0.5495(10) 0.2121(13)
H4A H -0.057(13) 0.571(13) 0.265(12)
Sm1 Sm 1.0000 0.066555(18) 0.7500
O1 O 1.1184(2) 0.0604(2) 0.9137(3)
O2 O 1.15033(18) -0.0092(2) 0.7570(2)
O3 O 1.40411(19) -0.2660(2) 0.7555(2)
O4 O 1.44582(18) -0.3449(2) 0.9112(2)
O5 O 1.0136(2) -0.0897(3) 0.6225(3)
H1 H 0.993(4) -0.097(6) 0.559(2)
H2 H 1.045(3) -0.144(3) 0.625(5)
N1 N 1.3265(3) -0.1092(3) 1.2039(3)
H6 H 1.3541 -0.0445 1.2189
N2 N 1.4372(6) -0.0709(6) 1.4225(7)
N3 N 1.3977(7) -0.1558(8) 1.5642(6)
H7 H 1.3890 -0.1715 1.6326
C1 C 1.3132(2) -0.1193(3) 1.0900(3)
C2 C 1.2509(3) -0.0546(3) 1.0315(3)
H8 H 1.2169 -0.0066 1.0701
C3 C 1.2386(2) -0.0598(3) 0.9185(3)
C4 C 1.2898(2) -0.1283(3) 0.8603(3)
H9 H 1.2826 -0.1300 0.7821
C5 C 1.3512(2) -0.1939(3) 0.9179(3)
C6 C 1.3625(2) -0.1899(3) 1.0320(3)
H10 H 1.4040 -0.2355 1.0709
C7 C 1.3747(6) -0.1911(6) 1.2670(6)
H11 H 1.4320 -0.2001 1.2385
H12 H 1.3434 -0.2606 1.2580
C8 C 1.3869(6) -0.1631(7) 1.3850(6)
C9 C 1.3673(6) -0.2140(7) 1.4721(7)
H13 H 1.3368 -0.2804 1.4724
C10 C 1.4444(8) -0.0684(8) 1.5301(10)
H14 H 1.4754 -0.0169 1.5760
C11 C 1.1655(2) 0.0019(3) 0.8597(3)
C12 C 1.4031(2) -0.2722(3) 0.8581(3)
Sm1B Sm 1.5000 -0.433445(18) 0.7500
Sm1B_2 Sm 0.5000 -0.433445(18) 0.7500
O1A O 0.8816(2) 0.0604(2) 0.5863(3)
O2A O 0.84967(18) -0.0092(2) 0.7430(2)
O3A O 0.59589(19) -0.2660(2) 0.7445(2)
O3B O 0.90411(19) 0.2340(2) 0.7555(2)
O3C O 1.09589(19) 0.2340(2) 0.7445(2)
O4A O 0.55418(18) -0.3449(2) 0.5888(2)
O4B O 0.94582(18) 0.1551(2) 0.9112(2)
O4C O 1.05418(18) 0.1551(2) 0.5888(2)
O5A O 0.9864(2) -0.0897(3) 0.8775(3)
H1A H 1.007(4) -0.097(6) 0.941(2)
H2A H 0.955(3) -0.144(3) 0.875(5)
N1A N 0.6735(3) -0.1092(3) 0.2961(3)
H6A H 0.6459 -0.0445 0.2811
N2A N 0.5628(6) -0.0709(6) 0.0775(7)
N3A N 0.6023(7) -0.1558(8) -0.0642(6)
H7A H 0.6110 -0.1715 -0.1326
C1A C 0.6868(2) -0.1193(3) 0.4100(3)
C2A C 0.7491(3) -0.0546(3) 0.4685(3)
H8A H 0.7831 -0.0066 0.4299
C3A C 0.7614(2) -0.0598(3) 0.5815(3)
C4A C 0.7102(2) -0.1283(3) 0.6397(3)
H9A H 0.7174 -0.1300 0.7179
C5A C 0.6488(2) -0.1939(3) 0.5821(3)
C6A C 0.6375(2) -0.1899(3) 0.4680(3)
H10A H 0.5960 -0.2355 0.4291
C7A C 0.6253(6) -0.1911(6) 0.2330(6)
H11A H 0.5680 -0.2001 0.2615
H12A H 0.6566 -0.2606 0.2420
C8A C 0.6131(6) -0.1631(7) 0.1150(6)
C9A C 0.6327(6) -0.2140(7) 0.0279(7)
H13A H 0.6632 -0.2804 0.0276
C10A C 0.5556(8) -0.0684(8) -0.0301(10)
H14A H 0.5246 -0.0169 -0.0760
C11A C 0.8345(2) 0.0019(3) 0.6403(3)
C12A C 0.5969(2) -0.2722(3) 0.6419(3)
H3? H 0.019(13) 0.486(6) 0.269(15)
H5? H 0.7729 0.3956 1.2301
loop_
_geom_bond_atom_site_label_1
_geom_bond_atom_site_label_2
_geom_bond_site_symmetry_1
_geom_bond_site_symmetry_2
Sm1 O1 1_555 1_555
O1 C11 1_555 1_555
O2 Sm1 1_555 1_555
O3 C12 1_555 1_555
O4 C12 1_555 1_555
O5 Sm1 1_555 1_555
H1 O5 1_555 1_555
H2 O5 1_555 1_555
O6 H4 1_555 1_555
N1 H6 1_555 1_555
N2 C8 1_555 1_555
N3 H7 1_555 1_555
C1 N1 1_555 1_555
C2 C1 1_555 1_555
H8 C2 1_555 1_555
C3 C2 1_555 1_555
C4 C3 1_555 1_555
H9 C4 1_555 1_555
C5 C4 1_555 1_555
C6 C1 1_555 1_555
H10 C6 1_555 1_555
C7 N1 1_555 1_555
H11 C7 1_555 1_555
H12 C7 1_555 1_555
C8 C7 1_555 1_555
C9 N3 1_555 1_555
H13 C9 1_555 1_555
C10 N2 1_555 1_555
H14 C10 1_555 1_555
C11 O2 1_555 1_555
C12 C5 1_555 1_555
Sm1B O3 1_555 1_555
Sm1B_2 O3A 1_555 1_555
O1A Sm1 1_555 1_555
O2A Sm1 1_555 1_555
O3A C12A 1_555 1_555
O3B Sm1 1_555 1_555
O3C Sm1 1_555 1_555
O4A Sm1B_2 1_555 1_555
O4B Sm1 1_555 1_555
O4C Sm1 1_555 1_555
O5A Sm1 1_555 1_555
H1A O5A 1_555 1_555
H2A O5A 1_555 1_555
O6A O6 1_555 1_555
H4A O6A 1_555 1_555
N1A H6A 1_555 1_555
N2A C8A 1_555 1_555
N3A H7A 1_555 1_555
C1A N1A 1_555 1_555
C2A C1A 1_555 1_555
H8A C2A 1_555 1_555
C3A C2A 1_555 1_555
C4A C3A 1_555 1_555
H9A C4A 1_555 1_555
C5A C4A 1_555 1_555
C6A C1A 1_555 1_555
H10A C6A 1_555 1_555
C7A N1A 1_555 1_555
H11A C7A 1_555 1_555
H12A C7A 1_555 1_555
C8A C7A 1_555 1_555
C9A N3A 1_555 1_555
H13A C9A 1_555 1_555
C10A N2A 1_555 1_555
H14A C10A 1_555 1_555
C11A O1A 1_555 1_555
C12A O4A 1_555 1_555
O4 Sm1B 1_555 1_555
N3 C10 1_555 1_555
C3 C11 1_555 1_555
C5 C6 1_555 1_555
C8 C9 1_555 1_555
O2A C11A 1_555 1_555
N3A C10A 1_555 1_555
C3A C11A 1_555 1_555
C5A C6A 1_555 1_555
C5A C12A 1_555 1_555
C8A C9A 1_555 1_555

#END
