
#######################################################################
#
#                 Cambridge Crystallographic Data Centre
#                                CCDC 
#
#######################################################################
#
# If this CIF has been generated from an entry in the Cambridge 
# Structural Database, then it will include bibliographic, chemical, 
# crystal, experimental, refinement or atomic coordinate data resulting 
# from the CCDC's data processing and validation procedures.
#
#######################################################################

data_HULRIR
_symmetry_cell_setting           monoclinic
_symmetry_space_group_name_H-M   'C 2/c'
_symmetry_Int_Tables_number      15
_space_group_name_Hall           '-C 2yn'
loop_
_symmetry_equiv_pos_site_id
_symmetry_equiv_pos_as_xyz
1 x,y,z
2 -x,y,1/2-z
3 1/2+x,1/2+y,z
4 1/2-x,1/2+y,1/2-z
5 -x,-y,-z
6 x,-y,1/2+z
7 1/2-x,1/2-y,-z
8 1/2+x,1/2-y,1/2+z
_cell_length_a                   18.873(4)
_cell_length_b                   19.329(4)
_cell_length_c                   25.911(5)
_cell_angle_alpha                90
_cell_angle_beta                 101.04(3)
_cell_angle_gamma                90
_cell_volume                     9277.31
loop_
_atom_site_label
_atom_site_type_symbol
_atom_site_fract_x
_atom_site_fract_y
_atom_site_fract_z
O1 O 0.2343(4) 0.0594(4) 0.5173(3)
O2 O 0.3132(3) 0.0292(4) 0.4695(2)
C1 C 0.2969(5) 0.0475(6) 0.5118(4)
O3 O 0.3057(6) 0.0816(6) 0.7065(4)
O4 O 0.4098(4) 0.1101(5) 0.7409(3)
C2 C 0.3697(6) 0.0905(7) 0.7034(4)
O5 O 0.6708(4) 0.4315(4) 0.4524(3)
O6 O 0.7633(4) 0.3692(4) 0.4955(3)
C3 C 0.6993(5) 0.3902(6) 0.4885(4)
O7 O 0.4445(4) 0.3941(4) 0.6011(4)
O8 O 0.4451(4) 0.4426(5) 0.5297(4)
C4 C 0.4725(5) 0.4046(6) 0.5629(4)
C5 C 0.5448(5) 0.3720(5) 0.5620(3)
C6 C 0.8646(15) -0.0615(15) 0.8007(11)
H1 H 0.8767 -0.0680 0.8369
Cd1 Cd 0.69654(3) 0.07855(4) 0.57095(2)
Cd2 Cd 0.67811(4) 0.11975(4) 0.70645(3)
Cd3 Cd 0.83646(3) -0.05260(4) 0.56226(3)
O9 O 0.5750(3) 0.0854(4) 0.5515(3)
C7 C 0.4809(4) 0.0691(5) 0.5989(3)
C8 C 0.4620(5) 0.0772(6) 0.6477(4)
H2 H 0.4978 0.0839 0.6774
C9 C 0.3377(5) 0.0674(6) 0.6073(4)
H3 H 0.2894 0.0698 0.6102
C10 C 0.5589(5) 0.0694(5) 0.5955(4)
N1 N 0.7683(4) 0.0281(5) 0.6436(3)
O10 O 0.7036(3) 0.1829(4) 0.6179(2)
O11 O 0.6190(4) 0.2098(3) 0.6636(2)
C11 C 0.6741(4) 0.3065(5) 0.5572(3)
H4 H 0.7177 0.2846 0.5561
C12 C 0.6540(5) 0.3619(5) 0.5262(3)
N2 N 0.7581(4) 0.0412(5) 0.6917(3)
C13 C 0.6307(5) 0.2818(5) 0.5906(3)
C14 C 0.3544(4) 0.0561(6) 0.5590(3)
C15 C 0.6522(5) 0.2221(5) 0.6258(4)
C16 C 0.4270(5) 0.0572(5) 0.5553(4)
H5 H 0.4397 0.0499 0.5228
C17 C 0.5874(5) 0.3960(5) 0.5274(4)
H6 H 0.5727 0.4336 0.5056
N3 N 0.8160(4) -0.0188(5) 0.6418(3)
O12 O 0.6058(3) 0.0553(4) 0.6344(3)
C18 C 0.5675(5) 0.3160(5) 0.5942(3)
H7 H 0.5401 0.3013 0.6184
C19 C 0.3906(5) 0.0755(6) 0.6523(4)
C20 C 0.8389(7) -0.0407(7) 0.6909(5)
C21 C 0.8021(7) -0.0022(7) 0.7214(4)
O13 O 0.7670(8) 0.2043(7) 0.7439(5)
O14 O 0.7901(8) -0.1698(8) 0.5745(7)
C22 C 0.8155(9) -0.0124(10) 0.7796(7)
H8 H 0.7911 0.0137 0.8008
C23 C 0.8885(12) -0.0933(11) 0.7087(9)
H9 H 0.9127 -0.1189 0.6871
C24 C 0.8973(14) -0.1029(13) 0.7652(11)
H10 H 0.9268 -0.1392 0.7799
O1D O 0.7657(4) -0.0594(4) 0.4827(3)
O2D O 0.6868(3) -0.0292(4) 0.5305(2)
O3A O 0.6943(6) 0.0816(6) 0.7935(4)
O4A O 0.5902(4) 0.1101(5) 0.7591(3)
O5F O 0.8292(4) 0.0685(4) 0.5476(3)
O6F O 0.7367(4) 0.1308(4) 0.5045(3)
O7B O 0.9445(4) -0.1059(4) 0.6011(4)
O8B O 0.9451(4) -0.0574(5) 0.5297(4)
Cd1D Cd 0.30346(3) -0.07855(4) 0.42905(2)
Cd1F Cd 0.80346(3) 0.42145(4) 0.42905(2)
Cd2A Cd 0.32189(4) 0.11975(4) 0.79355(3)
Cd3B Cd 0.33646(3) 0.44740(4) 0.56226(3)
Cd3D Cd 0.16354(3) 0.05260(4) 0.43774(3)
Cd3F Cd 0.66354(3) 0.55260(4) 0.43774(3)
loop_
_geom_bond_atom_site_label_1
_geom_bond_atom_site_label_2
_geom_bond_site_symmetry_1
_geom_bond_site_symmetry_2
O1 C1 1_555 1_555
O2 C1 1_555 1_555
C1 C14 1_555 1_555
O3 C2 1_555 1_555
O4 C2 1_555 1_555
C2 C19 1_555 1_555
O5 C3 1_555 1_555
O6 C3 1_555 1_555
C3 C12 1_555 1_555
O7 C4 1_555 1_555
O8 C4 1_555 1_555
C4 C5 1_555 1_555
C5 C17 1_555 1_555
C6 H1 1_555 1_555
Cd1 O9 1_555 1_555
Cd2 O10 1_555 1_555
Cd3 N3 1_555 1_555
O9 C10 1_555 1_555
C7 C8 1_555 1_555
C8 H2 1_555 1_555
C9 H3 1_555 1_555
C10 C7 1_555 1_555
N1 Cd1 1_555 1_555
O10 Cd1 1_555 1_555
O11 Cd2 1_555 1_555
C11 H4 1_555 1_555
C12 C11 1_555 1_555
N2 Cd2 1_555 1_555
C13 C11 1_555 1_555
C14 C9 1_555 1_555
C15 O10 1_555 1_555
C16 C7 1_555 1_555
H5 C16 1_555 1_555
C17 C12 1_555 1_555
H6 C17 1_555 1_555
N3 N1 1_555 1_555
O12 Cd1 1_555 1_555
C18 C5 1_555 1_555
H7 C18 1_555 1_555
C19 C8 1_555 1_555
C20 N3 1_555 1_555
C21 N2 1_555 1_555
O13 Cd2 1_555 1_555
O14 Cd3 1_555 1_555
C22 C6 1_555 1_555
H8 C22 1_555 1_555
C23 C20 1_555 1_555
H9 C23 1_555 1_555
C24 C6 1_555 1_555
H10 C24 1_555 1_555
O1D Cd3 1_555 1_555
O2D Cd1 1_555 1_555
O3A Cd2 1_555 1_555
O4A Cd2 1_555 1_555
O5F Cd1 1_555 1_555
O6F Cd1 1_555 1_555
O7B Cd3 1_555 1_555
O8B Cd3 1_555 1_555
Cd1D O2 1_555 1_555
Cd1F O5 1_555 1_555
Cd2A O3 1_555 1_555
Cd3B O7 1_555 1_555
Cd3D O1 1_555 1_555
Cd3F O5 1_555 1_555
O4 Cd2A 1_555 1_555
O6 Cd1F 1_555 1_555
O8 Cd3B 1_555 1_555
Cd2 O12 1_555 1_555
Cd3 O5F 1_555 1_555
C9 C19 1_555 1_555
C10 O12 1_555 1_555
N1 N2 1_555 1_555
O11 C15 1_555 1_555
C13 C15 1_555 1_555
C13 C18 1_555 1_555
C14 C16 1_555 1_555
C20 C21 1_555 1_555
C21 C22 1_555 1_555
C23 C24 1_555 1_555

#END
