
#######################################################################
#
#                 Cambridge Crystallographic Data Centre
#                                CCDC 
#
#######################################################################
#
# If this CIF has been generated from an entry in the Cambridge 
# Structural Database, then it will include bibliographic, chemical, 
# crystal, experimental, refinement or atomic coordinate data resulting 
# from the CCDC's data processing and validation procedures.
#
#######################################################################

data_HULREN
_symmetry_cell_setting           tetragonal
_symmetry_space_group_name_H-M   'P 43 2 2'
_symmetry_Int_Tables_number      95
_space_group_name_Hall           'P 4cw 2c'
loop_
_symmetry_equiv_pos_site_id
_symmetry_equiv_pos_as_xyz
1 x,y,z
2 -y,x,3/4+z
3 -x,-y,1/2+z
4 y,-x,1/4+z
5 x,-y,1/2-z
6 y,x,1/4-z
7 -x,y,-z
8 -y,-x,3/4-z
_cell_length_a                   8.0722(8)
_cell_length_b                   8.0722(8)
_cell_length_c                   28.111(5)
_cell_angle_alpha                90
_cell_angle_beta                 90
_cell_angle_gamma                90
_cell_volume                     1831.72
loop_
_atom_site_label
_atom_site_type_symbol
_atom_site_fract_x
_atom_site_fract_y
_atom_site_fract_z
Ni1 Ni -0.5000 0.48777(9) 0.0000
O1 O -0.1719(5) 0.4463(4) 0.05300(14)
O2 O -0.3539(4) 0.6411(4) 0.03244(12)
N1 N 0.2583(4) 1.1084(5) 0.06901(12)
N2 N 0.3981(4) 1.3262(4) 0.04704(13)
C1 C -0.0921(6) 0.7302(6) 0.05786(15)
C2 C -0.1440(5) 0.8947(6) 0.05795(14)
H1 H -0.2558 0.9197 0.0544
C3 C -0.0294(5) 1.0212(5) 0.06333(14)
H2 H -0.0627 1.1315 0.0640
C4 C 0.1356(5) 0.9791(5) 0.06772(13)
C5 C 0.1900(6) 0.8169(5) 0.06839(14)
H3 H 0.3018 0.7919 0.0719
C6 C 0.0726(6) 0.6924(6) 0.06370(15)
H4 H 0.1058 0.5821 0.0645
C7 C 0.2632(6) 1.2410(5) 0.04008(15)
H5 H 0.1815 1.2682 0.0181
C8 C 0.4850(6) 1.2447(6) 0.08223(18)
H6 H 0.5874 1.2778 0.0941
C9 C 0.4004(6) 1.1106(6) 0.09693(17)
H7 H 0.4304 1.0358 0.1206
C10 C -0.2134(7) 0.5910(7) 0.04765(16)
O1F O -0.8281(5) 0.4463(4) -0.05300(14)
O2F O -0.6461(4) 0.6411(4) -0.03244(12)
N1F N -1.2583(4) 1.1084(5) -0.06901(12)
N2F N -1.3981(4) 1.3262(4) -0.04704(13)
C1F C -0.9079(6) 0.7302(6) -0.05786(15)
C2F C -0.8560(5) 0.8947(6) -0.05795(14)
H1F H -0.7442 0.9197 -0.0544
C3F C -0.9706(5) 1.0212(5) -0.06333(14)
H2F H -0.9373 1.1315 -0.0640
C4F C -1.1356(5) 0.9791(5) -0.06772(13)
C5F C -1.1900(6) 0.8169(5) -0.06839(14)
H3F H -1.3018 0.7919 -0.0719
C6F C -1.0726(6) 0.6924(6) -0.06370(15)
H4F H -1.1058 0.5821 -0.0645
C7F C -1.2632(6) 1.2410(5) -0.04008(15)
H5F H -1.1815 1.2682 -0.0181
C8F C -1.4850(6) 1.2447(6) -0.08223(18)
H6F H -1.5874 1.2778 -0.0941
C9F C -1.4004(6) 1.1106(6) -0.09693(17)
H7F H -1.4304 1.0358 -0.1206
C10F C -0.7866(7) 0.5910(7) -0.04765(16)
Ni1_2 Ni -1.5000 1.48777(9) 0.0000
Ni1_3 Ni 0.5000 1.48777(9) 0.0000
N2_2 N -0.6019(4) 0.3262(4) 0.04704(13)
N2F_2 N -0.3981(4) 0.3262(4) -0.04704(13)
loop_
_geom_bond_atom_site_label_1
_geom_bond_atom_site_label_2
_geom_bond_site_symmetry_1
_geom_bond_site_symmetry_2
Ni1 O2 1_555 1_555
O1 C10 1_555 1_555
O2 C10 1_555 1_555
N1 C4 1_555 1_555
N2 C7 1_555 1_555
C1 C2 1_555 1_555
C2 H1 1_555 1_555
C3 C2 1_555 1_555
H2 C3 1_555 1_555
C4 C3 1_555 1_555
C5 C4 1_555 1_555
H3 C5 1_555 1_555
C6 C1 1_555 1_555
H4 C6 1_555 1_555
C7 N1 1_555 1_555
H5 C7 1_555 1_555
C8 N2 1_555 1_555
H6 C8 1_555 1_555
C9 N1 1_555 1_555
H7 C9 1_555 1_555
C10 C1 1_555 1_555
O1F C10F 1_555 1_555
O2F Ni1 1_555 1_555
N1F C4F 1_555 1_555
N2F C7F 1_555 1_555
C1F C2F 1_555 1_555
C2F H1F 1_555 1_555
C3F C2F 1_555 1_555
H2F C3F 1_555 1_555
C4F C3F 1_555 1_555
C5F C4F 1_555 1_555
H3F C5F 1_555 1_555
C6F C1F 1_555 1_555
H4F C6F 1_555 1_555
C7F N1F 1_555 1_555
H5F C7F 1_555 1_555
C8F N2F 1_555 1_555
H6F C8F 1_555 1_555
C9F N1F 1_555 1_555
H7F C9F 1_555 1_555
C10F O2F 1_555 1_555
Ni1_2 N2F 1_555 1_555
Ni1_3 N2 1_555 1_555
N2_2 Ni1 1_555 1_555
N2F_2 Ni1 1_555 1_555
C5 C6 1_555 1_555
C8 C9 1_555 1_555
C1F C10F 1_555 1_555
C5F C6F 1_555 1_555
C8F C9F 1_555 1_555

#END
