
#######################################################################
#
#                 Cambridge Crystallographic Data Centre
#                                CCDC 
#
#######################################################################
#
# If this CIF has been generated from an entry in the Cambridge 
# Structural Database, then it will include bibliographic, chemical, 
# crystal, experimental, refinement or atomic coordinate data resulting 
# from the CCDC's data processing and validation procedures.
#
#######################################################################

data_HULXIV
_symmetry_cell_setting           triclinic
_symmetry_space_group_name_H-M   'P -1'
_symmetry_Int_Tables_number      2
_space_group_name_Hall           '-P 1'
loop_
_symmetry_equiv_pos_site_id
_symmetry_equiv_pos_as_xyz
1 x,y,z
2 -x,-y,-z
_cell_length_a                   6.3586(12)
_cell_length_b                   7.0047(10)
_cell_length_c                   13.529(2)
_cell_angle_alpha                88.463(11)
_cell_angle_beta                 77.165(8)
_cell_angle_gamma                68.056(9)
_cell_volume                     543.907
loop_
_atom_site_label
_atom_site_type_symbol
_atom_site_fract_x
_atom_site_fract_y
_atom_site_fract_z
Co1 Co 0.0000 0.0000 0.0000
O1 O -0.2032(5) -0.1818(4) 0.0287(2)
H1 H -0.171(8) -0.264(5) 0.073(2)
H2 H -0.207(9) -0.241(6) -0.022(2)
O2 O -0.2844(5) 0.2830(4) 0.0577(2)
H3 H -0.240(7) 0.359(6) 0.086(3)
H4 H -0.420(5) 0.303(6) 0.087(3)
N1 N -0.0504(5) 0.0475(5) -0.1492(2)
C1 C 0.1358(7) 0.0030(6) -0.2266(3)
H5 H 0.2834 -0.0280 -0.2113
C2 C 0.1263(7) -0.0006(5) -0.3267(3)
H6 H 0.2648 -0.0349 -0.3786
C3 C -0.0877(7) 0.0463(5) -0.3518(3)
C4 C -0.2827(7) 0.1028(6) -0.2721(3)
H7 H -0.4332 0.1430 -0.2856
C5 C -0.2590(7) 0.1009(6) -0.1733(3)
H8 H -0.3952 0.1387 -0.1199
C6 C -0.1130(7) 0.0341(6) -0.4595(3)
H9 H -0.2166 0.1715 -0.4748
H10 H -0.1909 -0.0632 -0.4640
C6A C 0.1130(7) -0.0341(6) -0.5405(3)
C3A C 0.0877(7) -0.0463(5) -0.6482(3)
C2A C -0.1263(7) 0.0006(5) -0.6733(3)
C1A C -0.1358(7) -0.0030(6) -0.7734(3)
N1A N 0.0504(5) -0.0475(5) -0.8508(2)
C5A C 0.2590(7) -0.1009(6) -0.8267(3)
C4A C 0.2827(7) -0.1028(6) -0.7279(3)
H7A H 0.4332 -0.1430 -0.7144
H8A H 0.3952 -0.1387 -0.8801
H5A H -0.2834 0.0280 -0.7887
H6A H -0.2648 0.0349 -0.6214
H9A H 0.2166 -0.1715 -0.5252
H10A H 0.1909 0.0632 -0.5360
O1A O 0.2032(5) 0.1818(4) -0.0287(2)
H1A H 0.171(8) 0.264(5) -0.073(2)
H2A H 0.207(9) 0.241(6) 0.022(2)
O2A O 0.2844(5) -0.2830(4) -0.0577(2)
H3A H 0.240(7) -0.359(6) -0.086(3)
H4A H 0.420(5) -0.303(6) -0.087(3)
N1A_2 N 0.0504(5) -0.0475(5) 0.1492(2)
Co1_2 Co 0.0000 0.0000 -1.0000
O3 O -0.2476(5) -0.3552(4) -0.1335(2)
O4 O 0.1401(5) -0.5207(4) -0.1781(2)
C7 C -0.0592(7) -0.4456(6) -0.1980(3)
C8 C -0.0749(7) -0.4597(5) -0.3076(3)
C9 C 0.1213(7) -0.5191(5) -0.3845(3)
H11 H 0.2687 -0.5556 -0.3682
C10 C -0.2949(7) -0.4070(5) -0.3320(3)
H12 H -0.4323 -0.3670 -0.2792
C11 C -0.3108(7) -0.4131(5) -0.4308(3)
H13 H -0.4598 -0.3767 -0.4454
C12 C 0.1113(6) -0.5278(5) -0.4882(3)
C11A C 0.3108(7) -0.5869(5) -0.5692(3)
C10A C 0.2949(7) -0.5930(5) -0.6680(3)
C8A C 0.0749(7) -0.5403(5) -0.6924(3)
C7A C 0.0592(7) -0.5544(6) -0.8020(3)
O3A O 0.2476(5) -0.6448(4) -0.8665(2)
O4A O -0.1401(5) -0.4793(4) -0.8219(2)
C9A C -0.1213(7) -0.4809(5) -0.6155(3)
H11A H -0.2687 -0.4444 -0.6318
C12A C -0.1113(6) -0.4722(5) -0.5118(3)
H12A H 0.4323 -0.6330 -0.7208
H13A H 0.4598 -0.6233 -0.5546
loop_
_geom_bond_atom_site_label_1
_geom_bond_atom_site_label_2
_geom_bond_site_symmetry_1
_geom_bond_site_symmetry_2
Co1 O1 1_555 1_555
O1 H1 1_555 1_555
H2 O1 1_555 1_555
O2 Co1 1_555 1_555
H3 O2 1_555 1_555
H4 O2 1_555 1_555
O3 C7 1_555 1_555
O4 C7 1_555 1_555
N1 Co1 1_555 1_555
C1 N1 1_555 1_555
H5 C1 1_555 1_555
C2 C1 1_555 1_555
H6 C2 1_555 1_555
C3 C2 1_555 1_555
C4 C3 1_555 1_555
H7 C4 1_555 1_555
C5 N1 1_555 1_555
H8 C5 1_555 1_555
C6 C3 1_555 1_555
H9 C6 1_555 1_555
H10 C6 1_555 1_555
C7 C8 1_555 1_555
C8 C9 1_555 1_555
C9 H11 1_555 1_555
C10 C8 1_555 1_555
H12 C10 1_555 1_555
C11 C10 1_555 1_555
H13 C11 1_555 1_555
C12 C9 1_555 1_555
C11A C12 1_555 1_555
C10A C11A 1_555 1_555
C8A C10A 1_555 1_555
C7A C8A 1_555 1_555
O3A C7A 1_555 1_555
O4A C7A 1_555 1_555
C9A C8A 1_555 1_555
H11A C9A 1_555 1_555
C12A C11 1_555 1_555
H12A C10A 1_555 1_555
H13A C11A 1_555 1_555
C6A C6 1_555 1_555
C3A C6A 1_555 1_555
C2A C3A 1_555 1_555
C1A C2A 1_555 1_555
N1A C1A 1_555 1_555
C5A N1A 1_555 1_555
C4A C3A 1_555 1_555
H7A C4A 1_555 1_555
H8A C5A 1_555 1_555
H5A C1A 1_555 1_555
H6A C2A 1_555 1_555
H9A C6A 1_555 1_555
H10A C6A 1_555 1_555
O1A Co1 1_555 1_555
H1A O1A 1_555 1_555
H2A O1A 1_555 1_555
O2A Co1 1_555 1_555
H3A O2A 1_555 1_555
H4A O2A 1_555 1_555
N1A_2 Co1 1_555 1_555
Co1_2 N1A 1_555 1_555
C4 C5 1_555 1_555
C12 C12A 1_555 1_555
C9A C12A 1_555 1_555
C5A C4A 1_555 1_555

#END
