
#######################################################################
#
#                 Cambridge Crystallographic Data Centre
#                                CCDC 
#
#######################################################################
#
# If this CIF has been generated from an entry in the Cambridge 
# Structural Database, then it will include bibliographic, chemical, 
# crystal, experimental, refinement or atomic coordinate data resulting 
# from the CCDC's data processing and validation procedures.
#
#######################################################################

data_HULZIZ
_symmetry_cell_setting           monoclinic
_symmetry_space_group_name_H-M   'P 21/c'
_symmetry_Int_Tables_number      14
_space_group_name_Hall           '-P 2ybc'
loop_
_symmetry_equiv_pos_site_id
_symmetry_equiv_pos_as_xyz
1 x,y,z
2 -x,1/2+y,1/2-z
3 -x,-y,-z
4 x,1/2-y,1/2+z
_cell_length_a                   8.7037(17)
_cell_length_b                   16.355(3)
_cell_length_c                   18.856(5)
_cell_angle_alpha                90
_cell_angle_beta                 115.71(2)
_cell_angle_gamma                90
_cell_volume                     2418.41
loop_
_atom_site_label
_atom_site_type_symbol
_atom_site_fract_x
_atom_site_fract_y
_atom_site_fract_z
Zn1 Zn 0.96821(9) 0.19744(4) 0.28832(4)
N1 N 1.1796(6) 0.2359(3) -0.1439(3)
N2 N 1.3562(6) 0.1662(3) -0.0401(3)
N3 N 1.0208(7) 0.0861(3) 0.2584(3)
N4 N 1.1692(7) -0.0113(3) 0.2367(3)
O1 O 1.0347(6) 0.2641(3) 0.6512(3)
O2 O 0.8339(6) 0.2405(3) 0.6927(2)
O3 O 0.8741(6) 0.2016(3) 0.3650(2)
O4 O 0.6254(6) 0.1400(3) 0.2912(2)
O5 O 0.3608(5) 0.0884(3) 0.4747(2)
C1 C 0.9366(9) 0.0136(4) 0.2494(4)
H1 H 0.8330 0.0067 0.2519
C2 C 1.0268(10) -0.0463(4) 0.2362(4)
H2 H 0.9974 -0.1013 0.2282
C3 C 1.1591(8) 0.0688(4) 0.2486(4)
H3 H 1.2388 0.1073 0.2499
C4 C 1.3054(10) -0.0506(4) 0.2209(4)
H4 H 1.3024 -0.1092 0.2280
H5 H 1.4156 -0.0307 0.2587
C5 C 1.2848(8) -0.0332(4) 0.1390(4)
C6 C 1.3642(8) 0.0353(4) 0.1250(4)
H6 H 1.4322 0.0682 0.1673
C7 C 1.3444(8) 0.0558(4) 0.0500(4)
C8 C 1.2401(8) 0.0055(4) -0.0132(4)
H7 H 1.2240 0.0183 -0.0640
C9 C 1.1612(9) -0.0629(4) -0.0007(4)
H8 H 1.0930 -0.0958 -0.0428
C10 C 1.1845(8) -0.0820(4) 0.0750(4)
H9 H 1.1321 -0.1283 0.0832
C11 C 1.2217(8) 0.2166(4) -0.0691(4)
H10 H 1.1647 0.2357 -0.0405
C12 C 1.2949(8) 0.1957(4) -0.1628(4)
H11 H 1.2978 0.1978 -0.2115
C13 C 1.4044(8) 0.1522(4) -0.0998(4)
H12 H 1.4941 0.1196 -0.0973
C14 C 1.4349(9) 0.1310(4) 0.0396(4)
H13 H 1.5521 0.1165 0.0523
H14 H 1.4372 0.1724 0.0769
C15 C 0.7312(8) 0.1691(4) 0.3541(3)
C16 C 0.6963(7) 0.1675(4) 0.4268(3)
C17 C 0.8095(7) 0.2036(4) 0.4984(3)
H15 H 0.9094 0.2284 0.5027
C18 C 0.7699(7) 0.2018(4) 0.5628(3)
C19 C 0.6217(7) 0.1646(4) 0.5574(3)
H16 H 0.5961 0.1645 0.6004
C20 C 0.5109(8) 0.1270(4) 0.4866(3)
C21 C 0.5491(7) 0.1300(4) 0.4217(3)
H17 H 0.4743 0.1063 0.3744
C22 C 0.8914(8) 0.2388(4) 0.6410(4)
C23 C 0.3265(8) 0.0809(4) 0.5417(4)
H18 H 0.3255 0.1347 0.5633
H19 H 0.4152 0.0487 0.5820
C24 C 0.0747(8) -0.0031(4) 0.4482(4)
H20 H 0.1235 -0.0055 0.4130
C25 C 0.1561(8) 0.0401(4) 0.5184(4)
C26 C 0.0792(8) 0.0429(4) 0.5696(4)
H21 H 0.1316 0.0719 0.6166
O1B O -1.0347(6) -0.2641(3) 0.3488(3)
O2B O -0.8339(6) -0.2405(3) 0.3073(2)
O3B O -0.8741(6) -0.2016(3) 0.6350(2)
O4B O -0.6254(6) -0.1400(3) 0.7088(2)
O5B O -0.3608(5) -0.0884(3) 0.5253(2)
C15B C -0.7312(8) -0.1691(4) 0.6459(3)
C16B C -0.6963(7) -0.1675(4) 0.5732(3)
C17B C -0.8095(7) -0.2036(4) 0.5016(3)
H15B H -0.9094 -0.2284 0.4973
C18B C -0.7699(7) -0.2018(4) 0.4372(3)
C19B C -0.6217(7) -0.1646(4) 0.4426(3)
H16B H -0.5961 -0.1645 0.3996
C20B C -0.5109(8) -0.1270(4) 0.5134(3)
C21B C -0.5491(7) -0.1300(4) 0.5783(3)
H17B H -0.4743 -0.1063 0.6256
C22B C -0.8914(8) -0.2388(4) 0.3590(4)
C23B C -0.3265(8) -0.0809(4) 0.4583(4)
H18B H -0.3255 -0.1347 0.4367
H19B H -0.4152 -0.0487 0.4180
C24B C -0.0747(8) 0.0031(4) 0.5518(4)
H20B H -0.1235 0.0055 0.5870
C25B C -0.1561(8) -0.0401(4) 0.4816(4)
C26B C -0.0792(8) -0.0429(4) 0.4304(4)
H21B H -0.1316 -0.0719 0.3834
Zn1B Zn -0.96821(9) -0.19744(4) 0.71168(4)
N1B N -1.1796(6) -0.2359(3) 1.1439(3)
N2B N -1.3562(6) -0.1662(3) 1.0401(3)
N3B N -1.0208(7) -0.0861(3) 0.7416(3)
N4B N -1.1692(7) 0.0113(3) 0.7633(3)
C1B C -0.9366(9) -0.0136(4) 0.7506(4)
H1B H -0.8330 -0.0067 0.7481
C2B C -1.0268(10) 0.0463(4) 0.7638(4)
H2B H -0.9974 0.1013 0.7718
C3B C -1.1591(8) -0.0688(4) 0.7514(4)
H3B H -1.2388 -0.1073 0.7501
C4B C -1.3054(10) 0.0506(4) 0.7791(4)
H4B H -1.3024 0.1092 0.7720
H5B H -1.4156 0.0307 0.7413
C5B C -1.2848(8) 0.0332(4) 0.8610(4)
C6B C -1.3642(8) -0.0353(4) 0.8750(4)
H6B H -1.4322 -0.0682 0.8327
C7B C -1.3444(8) -0.0558(4) 0.9500(4)
C8B C -1.2401(8) -0.0055(4) 1.0132(4)
H7B H -1.2240 -0.0183 1.0640
C9B C -1.1612(9) 0.0629(4) 1.0007(4)
H8B H -1.0930 0.0958 1.0428
C10B C -1.1845(8) 0.0820(4) 0.9250(4)
H9B H -1.1321 0.1283 0.9168
C11B C -1.2217(8) -0.2166(4) 1.0691(4)
H10B H -1.1647 -0.2357 1.0405
C12B C -1.2949(8) -0.1957(4) 1.1628(4)
H11B H -1.2978 -0.1978 1.2115
C13B C -1.4044(8) -0.1522(4) 1.0998(4)
H12B H -1.4941 -0.1196 1.0973
C14B C -1.4349(9) -0.1310(4) 0.9604(4)
H13B H -1.5521 -0.1165 0.9477
H14B H -1.4372 -0.1724 0.9231
Zn1A Zn -0.96821(9) -0.30256(4) 0.21168(4)
Zn1A_2 Zn -0.96821(9) -0.30256(4) 1.21168(4)
Zn1C Zn 0.96821(9) 0.30256(4) -0.21168(4)
Zn1C_2 Zn 0.96821(9) 0.30256(4) 0.78832(4)
N1A N -1.1796(6) -0.2641(3) 0.6439(3)
N1C N 1.1796(6) 0.2641(3) 0.3561(3)
O2A O -0.8339(6) -0.2595(3) 0.8073(2)
O2C O 0.8339(6) 0.2595(3) 0.1927(2)
O6 O 0.3831(8) 0.2396(4) 0.6730(4)
loop_
_geom_bond_atom_site_label_1
_geom_bond_atom_site_label_2
_geom_bond_site_symmetry_1
_geom_bond_site_symmetry_2
Zn1 N3 1_555 1_555
N1 C11 1_555 1_555
N2 C11 1_555 1_555
N3 C1 1_555 1_555
N4 C2 1_555 1_555
O1 C22 1_555 1_555
O2 C22 1_555 1_555
O3 Zn1 1_555 1_555
O4 C15 1_555 1_555
O5 C20 1_555 1_555
C1 H1 1_555 1_555
C2 C1 1_555 1_555
H2 C2 1_555 1_555
C3 N3 1_555 1_555
H3 C3 1_555 1_555
C4 N4 1_555 1_555
H4 C4 1_555 1_555
H5 C4 1_555 1_555
C5 C4 1_555 1_555
C6 C5 1_555 1_555
H6 C6 1_555 1_555
C7 C6 1_555 1_555
C8 C7 1_555 1_555
H7 C8 1_555 1_555
C9 C8 1_555 1_555
H8 C9 1_555 1_555
C10 C5 1_555 1_555
H9 C10 1_555 1_555
C11 H10 1_555 1_555
C12 N1 1_555 1_555
H11 C12 1_555 1_555
C13 N2 1_555 1_555
H12 C13 1_555 1_555
C14 N2 1_555 1_555
H13 C14 1_555 1_555
H14 C14 1_555 1_555
C15 O3 1_555 1_555
C16 C15 1_555 1_555
C17 C16 1_555 1_555
H15 C17 1_555 1_555
C18 C17 1_555 1_555
C19 C18 1_555 1_555
H16 C19 1_555 1_555
C20 C19 1_555 1_555
C21 C16 1_555 1_555
H17 C21 1_555 1_555
C22 C18 1_555 1_555
C23 O5 1_555 1_555
H18 C23 1_555 1_555
H19 C23 1_555 1_555
C24 H20 1_555 1_555
C25 C23 1_555 1_555
C26 C25 1_555 1_555
H21 C26 1_555 1_555
O1B C22B 1_555 1_555
O2B C22B 1_555 1_555
O3B C15B 1_555 1_555
O4B C15B 1_555 1_555
O5B C20B 1_555 1_555
C15B C16B 1_555 1_555
C16B C17B 1_555 1_555
C17B H15B 1_555 1_555
C18B C17B 1_555 1_555
C19B C18B 1_555 1_555
H16B C19B 1_555 1_555
C20B C19B 1_555 1_555
C21B C16B 1_555 1_555
H17B C21B 1_555 1_555
C22B C18B 1_555 1_555
C23B O5B 1_555 1_555
H18B C23B 1_555 1_555
H19B C23B 1_555 1_555
C24B C26 1_555 1_555
H20B C24B 1_555 1_555
C25B C23B 1_555 1_555
C26B C24 1_555 1_555
H21B C26B 1_555 1_555
Zn1B O3B 1_555 1_555
N1B C11B 1_555 1_555
N2B C11B 1_555 1_555
N3B Zn1B 1_555 1_555
N4B C2B 1_555 1_555
C1B N3B 1_555 1_555
H1B C1B 1_555 1_555
C2B C1B 1_555 1_555
H2B C2B 1_555 1_555
C3B N3B 1_555 1_555
H3B C3B 1_555 1_555
C4B N4B 1_555 1_555
H4B C4B 1_555 1_555
H5B C4B 1_555 1_555
C5B C4B 1_555 1_555
C6B C5B 1_555 1_555
H6B C6B 1_555 1_555
C7B C6B 1_555 1_555
C8B C7B 1_555 1_555
H7B C8B 1_555 1_555
C9B C8B 1_555 1_555
H8B C9B 1_555 1_555
C10B C5B 1_555 1_555
H9B C10B 1_555 1_555
C11B H10B 1_555 1_555
C12B N1B 1_555 1_555
H11B C12B 1_555 1_555
C13B N2B 1_555 1_555
H12B C13B 1_555 1_555
C14B N2B 1_555 1_555
H13B C14B 1_555 1_555
H14B C14B 1_555 1_555
Zn1A O2B 1_555 1_555
Zn1A_2 N1B 1_555 1_555
Zn1C N1 1_555 1_555
Zn1C_2 O2 1_555 1_555
N1A Zn1B 1_555 1_555
N1C Zn1 1_555 1_555
O2A Zn1B 1_555 1_555
O2C Zn1 1_555 1_555
N4 C3 1_555 1_555
C7 C14 1_555 1_555
C9 C10 1_555 1_555
C12 C13 1_555 1_555
C20 C21 1_555 1_555
C24 C25 1_555 1_555
C20B C21B 1_555 1_555
C24B C25B 1_555 1_555
C25B C26B 1_555 1_555
N4B C3B 1_555 1_555
C7B C14B 1_555 1_555
C9B C10B 1_555 1_555
C12B C13B 1_555 1_555

#END
