
#######################################################################
#
#                 Cambridge Crystallographic Data Centre
#                                CCDC 
#
#######################################################################
#
# If this CIF has been generated from an entry in the Cambridge 
# Structural Database, then it will include bibliographic, chemical, 
# crystal, experimental, refinement or atomic coordinate data resulting 
# from the CCDC's data processing and validation procedures.
#
#######################################################################

data_HULZOF
_symmetry_cell_setting           triclinic
_symmetry_space_group_name_H-M   'P -1'
_symmetry_Int_Tables_number      2
_space_group_name_Hall           '-P 1'
loop_
_symmetry_equiv_pos_site_id
_symmetry_equiv_pos_as_xyz
1 x,y,z
2 -x,-y,-z
_cell_length_a                   9.8901(8)
_cell_length_b                   11.0011(7)
_cell_length_c                   11.9223(11)
_cell_angle_alpha                82.982(6)
_cell_angle_beta                 77.657(7)
_cell_angle_gamma                65.772(7)
_cell_volume                     1154.71
loop_
_atom_site_label
_atom_site_type_symbol
_atom_site_fract_x
_atom_site_fract_y
_atom_site_fract_z
Zn1 Zn 0.63966(3) 0.25026(3) 0.49119(2)
N1 N 0.7072(2) 0.12992(19) 0.34155(16)
N2 N 0.6948(2) 0.09405(19) -0.38659(16)
O1 O 0.44234(18) 0.35371(16) 0.44068(14)
O2 O 0.3482(3) 0.2078(2) 0.5231(2)
O3 O 0.1032(2) 0.62824(18) 0.16332(15)
O4 O -0.1705(2) 0.2840(2) 0.46265(16)
O5 O 0.55885(19) 0.39326(16) 0.62499(14)
H1 H 0.4634 0.4210 0.6423
H2 H 0.5806 0.4598 0.5992
O6 O -0.2690(2) 0.4332(2) 0.32838(19)
C1 C -0.1680(3) 0.3740(3) 0.3857(2)
C2 C 0.5982(3) 0.0416(3) -0.3305(2)
H3 H 0.5040 0.0711 -0.3511
C3 C 0.6321(4) -0.0545(3) -0.2433(2)
H4 H 0.5601 -0.0869 -0.2061
C4 C 0.7693(3) -0.1027(2) -0.2108(2)
C5 C 0.8705(3) -0.0511(3) -0.2701(2)
H5 H 0.9666 -0.0819 -0.2527
C6 C 0.8296(3) 0.0469(3) -0.3558(2)
H6 H 0.8995 0.0813 -0.3937
C7 C 0.8060(4) -0.2070(3) -0.1139(2)
H7 H 0.9141 -0.2581 -0.1254
H8 H 0.7583 -0.2678 -0.1160
C8 C 0.7682(3) -0.0034(2) 0.3413(2)
H9 H 0.7807 -0.0506 0.4112
C9 C 0.8133(4) -0.0741(3) 0.2433(2)
H10 H 0.8555 -0.1669 0.2479
C10 C 0.7960(3) -0.0076(3) 0.1380(2)
C11 C 0.7249(4) 0.1303(3) 0.1392(2)
H11 H 0.7044 0.1794 0.0712
C12 C 0.6848(3) 0.1947(3) 0.2400(2)
H12 H 0.6400 0.2875 0.2379
C13 C 0.8510(4) -0.0807(3) 0.0253(3)
H13 H 0.8570 -0.0177 -0.0381
H14 H 0.9518 -0.1486 0.0254
C14 C 0.7523(4) -0.1444(3) 0.0061(2)
H15 H 0.6497 -0.0783 0.0115
H16 H 0.7530 -0.2133 0.0654
C15 C 0.3419(3) 0.3046(2) 0.4597(2)
C16 C 0.2129(2) 0.3733(2) 0.39580(19)
C17 C 0.0862(3) 0.3440(2) 0.4227(2)
H17 H 0.0797 0.2815 0.4814
C18 C -0.0316(3) 0.4078(2) 0.3622(2)
C19 C -0.0228(3) 0.5029(2) 0.2765(2)
H18 H -0.1024 0.5470 0.2370
C20 C 0.1041(3) 0.5324(2) 0.24941(19)
C21 C 0.2227(3) 0.4663(2) 0.30760(19)
H19 H 0.3093 0.4840 0.2878
C22 C 0.2245(3) 0.6718(3) 0.1444(2)
H20 H 0.2473 0.6781 0.2181
H21 H 0.1920 0.7604 0.1080
C23 C 0.5056(3) 0.5732(3) 0.0828(2)
H22 H 0.5110 0.6219 0.1390
C24 C 0.3673(3) 0.5805(3) 0.0703(2)
C25 C 0.3625(3) 0.5060(3) -0.0127(2)
H23 H 0.2703 0.5087 -0.0220
O1A O 0.55766(18) 0.64629(16) -0.44068(14)
O2A O 0.6518(3) 0.7922(2) -0.5231(2)
O3A O 0.8968(2) 0.37176(18) -0.16332(15)
C15A C 0.6581(3) 0.6954(2) -0.4597(2)
C16A C 0.7871(2) 0.6267(2) -0.39580(19)
C17A C 0.9138(3) 0.6560(2) -0.4227(2)
H17A H 0.9203 0.7185 -0.4814
C18A C 1.0316(3) 0.5922(2) -0.3622(2)
C19A C 1.0228(3) 0.4971(2) -0.2765(2)
H18A H 1.1024 0.4530 -0.2370
C20A C 0.8959(3) 0.4676(2) -0.24941(19)
C21A C 0.7773(3) 0.5337(2) -0.30760(19)
H19A H 0.6907 0.5160 -0.2878
C22A C 0.7755(3) 0.3282(3) -0.1444(2)
H20A H 0.7527 0.3219 -0.2181
H21A H 0.8080 0.2396 -0.1080
C23A C 0.4944(3) 0.4268(3) -0.0828(2)
H22A H 0.4890 0.3781 -0.1390
C24A C 0.6327(3) 0.4195(3) -0.0703(2)
C25A C 0.6375(3) 0.4940(3) 0.0127(2)
H23A H 0.7297 0.4913 0.0220
O4A O 1.1705(2) 0.7160(2) -0.46265(16)
O6A O 1.2690(2) 0.5668(2) -0.32838(19)
C1A C 1.1680(3) 0.6260(3) -0.3857(2)
Zn1A Zn 0.36034(3) 0.74974(3) -0.49119(2)
N1A N 0.2928(2) 0.87008(19) -0.34155(16)
N2A N 0.3052(2) 0.90595(19) 0.38659(16)
O5A O 0.44115(19) 0.60674(16) -0.62499(14)
H1A H 0.5366 0.5790 -0.6423
H2A H 0.4194 0.5402 -0.5992
C2A C 0.4018(3) 0.9584(3) 0.3305(2)
H3A H 0.4960 0.9289 0.3511
C3A C 0.3679(4) 1.0545(3) 0.2433(2)
H4A H 0.4399 1.0869 0.2061
C4A C 0.2307(3) 1.1027(2) 0.2108(2)
C5A C 0.1295(3) 1.0511(3) 0.2701(2)
H5A H 0.0334 1.0819 0.2527
C6A C 0.1704(3) 0.9531(3) 0.3558(2)
H6A H 0.1005 0.9187 0.3937
C7A C 0.1940(4) 1.2070(3) 0.1139(2)
H7A H 0.0859 1.2581 0.1254
H8A H 0.2417 1.2678 0.1160
C8A C 0.2318(3) 1.0034(2) -0.3413(2)
H9A H 0.2193 1.0506 -0.4112
C9A C 0.1867(4) 1.0741(3) -0.2433(2)
H10A H 0.1445 1.1669 -0.2479
C10A C 0.2040(3) 1.0076(3) -0.1380(2)
C11A C 0.2751(4) 0.8697(3) -0.1392(2)
H11A H 0.2956 0.8206 -0.0712
C12A C 0.3152(3) 0.8053(3) -0.2400(2)
H12A H 0.3600 0.7125 -0.2379
C13A C 0.1490(4) 1.0807(3) -0.0253(3)
H13A H 0.1430 1.0177 0.0381
H14A H 0.0482 1.1486 -0.0254
C14A C 0.2477(4) 1.1444(3) -0.0061(2)
H15A H 0.3503 1.0783 -0.0115
H16A H 0.2470 1.2133 -0.0654
Zn1_2 Zn -0.36034(3) 0.25026(3) 0.49119(2)
Zn1_3 Zn 0.63966(3) 0.25026(3) -0.50881(2)
Zn1A_2 Zn 0.36034(3) 0.74974(3) 0.50881(2)
Zn1A_3 Zn 1.36034(3) 0.74974(3) -0.49119(2)
N2_2 N 0.6948(2) 0.09405(19) 0.61341(16)
N2A_2 N 0.3052(2) 0.90595(19) -0.61341(16)
O4_2 O 0.8295(2) 0.2840(2) 0.46265(16)
O4A_2 O 0.1705(2) 0.7160(2) -0.46265(16)
loop_
_geom_bond_atom_site_label_1
_geom_bond_atom_site_label_2
_geom_bond_site_symmetry_1
_geom_bond_site_symmetry_2
Zn1 N1 1_555 1_555
N1 C8 1_555 1_555
N2 C2 1_555 1_555
O1 Zn1 1_555 1_555
O2 C15 1_555 1_555
O3 C20 1_555 1_555
O4 C1 1_555 1_555
O5 Zn1 1_555 1_555
H1 O5 1_555 1_555
H2 O5 1_555 1_555
O6 C1 1_555 1_555
C1 C18 1_555 1_555
C2 H3 1_555 1_555
C3 C2 1_555 1_555
H4 C3 1_555 1_555
C4 C3 1_555 1_555
C5 C4 1_555 1_555
H5 C5 1_555 1_555
C6 N2 1_555 1_555
H6 C6 1_555 1_555
C7 C4 1_555 1_555
H7 C7 1_555 1_555
H8 C7 1_555 1_555
C8 H9 1_555 1_555
C9 C8 1_555 1_555
H10 C9 1_555 1_555
C10 C9 1_555 1_555
C11 C10 1_555 1_555
H11 C11 1_555 1_555
C12 N1 1_555 1_555
H12 C12 1_555 1_555
C13 C10 1_555 1_555
H13 C13 1_555 1_555
H14 C13 1_555 1_555
C14 C7 1_555 1_555
H15 C14 1_555 1_555
H16 C14 1_555 1_555
C15 O1 1_555 1_555
C16 C15 1_555 1_555
C17 C16 1_555 1_555
H17 C17 1_555 1_555
C18 C17 1_555 1_555
C19 C18 1_555 1_555
H18 C19 1_555 1_555
C20 C19 1_555 1_555
C21 C16 1_555 1_555
H19 C21 1_555 1_555
C22 O3 1_555 1_555
H20 C22 1_555 1_555
H21 C22 1_555 1_555
C23 H22 1_555 1_555
C24 C22 1_555 1_555
C25 C24 1_555 1_555
H23 C25 1_555 1_555
O1A C15A 1_555 1_555
O2A C15A 1_555 1_555
O3A C20A 1_555 1_555
C15A C16A 1_555 1_555
C16A C17A 1_555 1_555
C17A H17A 1_555 1_555
C18A C17A 1_555 1_555
C19A C18A 1_555 1_555
H18A C19A 1_555 1_555
C20A C19A 1_555 1_555
C21A C16A 1_555 1_555
H19A C21A 1_555 1_555
C22A O3A 1_555 1_555
H20A C22A 1_555 1_555
H21A C22A 1_555 1_555
C23A C25 1_555 1_555
H22A C23A 1_555 1_555
C24A C22A 1_555 1_555
C25A C23 1_555 1_555
H23A C25A 1_555 1_555
O4A C1A 1_555 1_555
O6A C1A 1_555 1_555
C1A C18A 1_555 1_555
Zn1A O1A 1_555 1_555
N1A Zn1A 1_555 1_555
N2A C2A 1_555 1_555
O5A Zn1A 1_555 1_555
H1A O5A 1_555 1_555
H2A O5A 1_555 1_555
C2A H3A 1_555 1_555
C3A C2A 1_555 1_555
H4A C3A 1_555 1_555
C4A C3A 1_555 1_555
C5A C4A 1_555 1_555
H5A C5A 1_555 1_555
C6A N2A 1_555 1_555
H6A C6A 1_555 1_555
C7A C4A 1_555 1_555
H7A C7A 1_555 1_555
H8A C7A 1_555 1_555
C8A N1A 1_555 1_555
H9A C8A 1_555 1_555
C9A C8A 1_555 1_555
H10A C9A 1_555 1_555
C10A C9A 1_555 1_555
C11A C10A 1_555 1_555
H11A C11A 1_555 1_555
C12A N1A 1_555 1_555
H12A C12A 1_555 1_555
C13A C10A 1_555 1_555
H13A C13A 1_555 1_555
H14A C13A 1_555 1_555
C14A C7A 1_555 1_555
H15A C14A 1_555 1_555
H16A C14A 1_555 1_555
Zn1_2 O4 1_555 1_555
Zn1_3 N2 1_555 1_555
Zn1A_2 N2A 1_555 1_555
Zn1A_3 O4A 1_555 1_555
N2_2 Zn1 1_555 1_555
N2A_2 Zn1A 1_555 1_555
O4_2 Zn1 1_555 1_555
O4A_2 Zn1A 1_555 1_555
C5 C6 1_555 1_555
C11 C12 1_555 1_555
C13 C14 1_555 1_555
C20 C21 1_555 1_555
C23 C24 1_555 1_555
C20A C21A 1_555 1_555
C23A C24A 1_555 1_555
C24A C25A 1_555 1_555
C5A C6A 1_555 1_555
C11A C12A 1_555 1_555
C13A C14A 1_555 1_555

#END
