
#######################################################################
#
#                 Cambridge Crystallographic Data Centre
#                                CCDC 
#
#######################################################################
#
# If this CIF has been generated from an entry in the Cambridge 
# Structural Database, then it will include bibliographic, chemical, 
# crystal, experimental, refinement or atomic coordinate data resulting 
# from the CCDC's data processing and validation procedures.
#
#######################################################################

data_HUMCAT
_symmetry_cell_setting           monoclinic
_symmetry_space_group_name_H-M   'P 21/n'
_symmetry_Int_Tables_number      14
_space_group_name_Hall           '-P 2yn'
loop_
_symmetry_equiv_pos_site_id
_symmetry_equiv_pos_as_xyz
1 x,y,z
2 1/2+x,1/2-y,1/2+z
3 -x,-y,-z
4 1/2-x,1/2+y,1/2-z
_cell_length_a                   5.7900(10)
_cell_length_b                   16.655(3)
_cell_length_c                   15.782(3)
_cell_angle_alpha                90
_cell_angle_beta                 98.07(2)
_cell_angle_gamma                90
_cell_volume                     1506.83
loop_
_atom_site_label
_atom_site_type_symbol
_atom_site_fract_x
_atom_site_fract_y
_atom_site_fract_z
P1 P 0.78088(15) 0.08508(5) 0.39213(6)
O1 O 0.6158(4) 0.03503(12) 0.43570(13)
O2 O 1.0371(4) 0.07388(13) 0.41791(14)
Li1 Li 0.7060(9) -0.0032(3) 0.5553(3)
C1 C 0.7098(6) 0.18983(19) 0.4046(2)
C2 C 0.8569(7) 0.2494(2) 0.3822(2)
H1 H 0.9938 0.235 0.3615
C3 C 0.8039(8) 0.3296(2) 0.3899(3)
H2 H 0.9034 0.3687 0.3735
C4 C 0.6049(8) 0.3517(2) 0.4217(3)
H3 H 0.5706 0.4057 0.4283
C5 C 0.4579(7) 0.2940(3) 0.4435(3)
H4 H 0.3218 0.309 0.4645
C6 C 0.5073(6) 0.2135(2) 0.4351(2)
H5 H 0.4041 0.1749 0.45
C7 C 0.7130(6) 0.07102(18) 0.2776(2)
C8 C 0.8756(7) 0.0932(2) 0.2249(2)
H6 H 1.0218 0.1113 0.2493
C9 C 0.8236(9) 0.0886(3) 0.1371(2)
H7 H 0.9345 0.1037 0.1029
C10 C 0.6103(10) 0.0622(3) 0.1004(3)
H8 H 0.5742 0.0604 0.0411
C11 C 0.4492(8) 0.0382(3) 0.1508(3)
H9 H 0.3053 0.0185 0.1258
C12 C 0.5003(7) 0.0432(2) 0.2391(2)
H10 H 0.3889 0.0274 0.2729
O3 O 0.7923(4) 0.09484(15) 0.62916(17)
C13 C 0.6510(9) 0.1517(3) 0.6643(3)
H11 H 0.6071 0.1316 0.7175
H12 H 0.5099 0.1617 0.6248
C14 C 0.7878(9) 0.2271(3) 0.6802(4)
H13 H 0.7046 0.2719 0.6509
H14 H 0.8172 0.2389 0.7409
C15 C 1.0093(8) 0.2122(3) 0.6460(3)
H15 H 1.0057 0.2359 0.5896
H16 H 1.1407 0.2342 0.6838
C16 C 1.0246(7) 0.1237(2) 0.6417(3)
H17 H 1.1053 0.1076 0.5946
H18 H 1.1087 0.1026 0.6945
Li1B Li 0.2940(9) 0.0032(3) 0.4447(3)
Li1B_2 Li 1.2940(9) 0.0032(3) 0.4447(3)
O1B O 0.3842(4) -0.03503(12) 0.56430(13)
O2B O 0.9629(4) -0.07388(13) 0.58209(14)
loop_
_geom_bond_atom_site_label_1
_geom_bond_atom_site_label_2
_geom_bond_site_symmetry_1
_geom_bond_site_symmetry_2
P1 O1 1_555 1_555
O1 Li1 1_555 1_555
O2 P1 1_555 1_555
Li1 O3 1_555 1_555
C1 P1 1_555 1_555
C2 C1 1_555 1_555
H1 C2 1_555 1_555
C3 C2 1_555 1_555
H2 C3 1_555 1_555
C4 C3 1_555 1_555
H3 C4 1_555 1_555
C5 C4 1_555 1_555
H4 C5 1_555 1_555
C6 C1 1_555 1_555
H5 C6 1_555 1_555
C7 P1 1_555 1_555
C8 C7 1_555 1_555
H6 C8 1_555 1_555
C9 C8 1_555 1_555
H7 C9 1_555 1_555
C10 C9 1_555 1_555
H8 C10 1_555 1_555
C11 C10 1_555 1_555
H9 C11 1_555 1_555
C12 C7 1_555 1_555
H10 C12 1_555 1_555
O3 C13 1_555 1_555
C13 H11 1_555 1_555
H12 C13 1_555 1_555
C14 C13 1_555 1_555
H13 C14 1_555 1_555
H14 C14 1_555 1_555
C15 C14 1_555 1_555
H15 C15 1_555 1_555
H16 C15 1_555 1_555
C16 O3 1_555 1_555
H17 C16 1_555 1_555
H18 C16 1_555 1_555
Li1B O1 1_555 1_555
Li1B_2 O2 1_555 1_555
O1B Li1 1_555 1_555
O2B Li1 1_555 1_555
C5 C6 1_555 1_555
C11 C12 1_555 1_555
C15 C16 1_555 1_555
Li1B O1B 1_555 1_555

#END
