
#######################################################################
#
#                 Cambridge Crystallographic Data Centre
#                                CCDC 
#
#######################################################################
#
# If this CIF has been generated from an entry in the Cambridge 
# Structural Database, then it will include bibliographic, chemical, 
# crystal, experimental, refinement or atomic coordinate data resulting 
# from the CCDC's data processing and validation procedures.
#
#######################################################################

data_HUMJIJ
_symmetry_cell_setting           monoclinic
_symmetry_space_group_name_H-M   'P 21/c'
_symmetry_Int_Tables_number      14
_space_group_name_Hall           '-P 2ybc'
loop_
_symmetry_equiv_pos_site_id
_symmetry_equiv_pos_as_xyz
1 x,y,z
2 -x,1/2+y,1/2-z
3 -x,-y,-z
4 x,1/2-y,1/2+z
_cell_length_a                   10.6811(8)
_cell_length_b                   11.9175(9)
_cell_length_c                   13.2109(10)
_cell_angle_alpha                90
_cell_angle_beta                 102.1170(10)
_cell_angle_gamma                90
_cell_volume                     1644.18
loop_
_atom_site_label
_atom_site_type_symbol
_atom_site_fract_x
_atom_site_fract_y
_atom_site_fract_z
Ag1 Ag 1.41996(2) 0.626079(18) 0.056141(16)
N1 N 1.53869(19) 0.77492(16) 0.03704(15)
N2 N 1.9195(2) 0.7145(2) 0.34744(17)
H1 H 1.9943 0.7099 0.3870
N3 N 1.5903(3) 0.9833(2) 0.32717(19)
N4 N 1.6855(3) 0.4843(2) 0.07767(18)
C1 C 1.3854(3) 0.8068(3) -0.1248(2)
H2 H 1.3186 0.8061 -0.0862
H3 H 1.3903 0.7347 -0.1560
H4 H 1.3671 0.8631 -0.1778
C2 C 1.5107(3) 0.8328(2) -0.05345(19)
C3 C 1.5938(3) 0.9122(3) -0.0773(2)
H5 H 1.5720 0.9530 -0.1384
C4 C 1.7091(3) 0.9309(3) -0.0105(2)
H6 H 1.7672 0.9823 -0.0270
C5 C 1.7370(3) 0.8723(2) 0.0815(2)
H7 H 1.8145 0.8835 0.1279
C6 C 1.6492(2) 0.7974(2) 0.10398(17)
C7 C 1.6729(2) 0.73604(19) 0.20797(17)
H8 H 1.5910 0.7065 0.2186
C8 C 1.7269(2) 0.8150(2) 0.29716(18)
C9 C 1.8434(2) 0.8036(2) 0.35906(18)
C10 C 1.8811(3) 0.6320(2) 0.27514(19)
C11 C 1.7652(3) 0.63843(19) 0.21090(18)
C12 C 1.6503(3) 0.9083(2) 0.31297(19)
C13 C 1.8998(3) 0.8824(2) 0.4449(2)
H9 H 1.8506 0.9504 0.4380
H10 H 1.9866 0.8992 0.4413
H11 H 1.8982 0.8480 0.5103
C14 C 1.9755(3) 0.5404(3) 0.2755(2)
H12 H 1.9349 0.4789 0.2344
H13 H 2.0072 0.5154 0.3453
H14 H 2.0455 0.5677 0.2472
C15 C 1.7237(3) 0.5508(2) 0.13854(19)
Ag1A Ag 1.58004(2) 1.126079(18) 0.443859(16)
Ag1B Ag 1.58004(2) 0.373921(18) -0.056141(16)
N3A N 1.4097(3) 0.4833(2) 0.17283(19)
N4B N 1.3145(3) 0.5157(2) -0.07767(18)
B1 B 1.1632(4) 0.7834(3) 0.1132(3)
F1 F 1.2814(14) 0.8316(14) 0.1500(13)
F2 F 1.1947(14) 0.6816(13) 0.0803(15)
F3 F 1.0921(9) 0.8461(9) 0.0355(8)
F4 F 1.0970(10) 0.7681(10) 0.1848(9)
F5? F 1.2466(13) 0.8560(14) 0.1689(12)
F6? F 1.1999(15) 0.6751(10) 0.1119(12)
F7? F 1.1363(9) 0.8168(10) 0.0089(7)
F8? F 1.0493(9) 0.7829(8) 0.1507(9)
loop_
_geom_bond_atom_site_label_1
_geom_bond_atom_site_label_2
_geom_bond_site_symmetry_1
_geom_bond_site_symmetry_2
Ag1 N1 1_555 1_555
B1 F1 1_555 1_555
F2 B1 1_555 1_555
F3 B1 1_555 1_555
F4 B1 1_555 1_555
N1 C2 1_555 1_555
N2 H1 1_555 1_555
N3 C12 1_555 1_555
N4 C15 1_555 1_555
C1 H2 1_555 1_555
H3 C1 1_555 1_555
H4 C1 1_555 1_555
C2 C1 1_555 1_555
C3 C2 1_555 1_555
H5 C3 1_555 1_555
C4 C3 1_555 1_555
H6 C4 1_555 1_555
C5 C4 1_555 1_555
H7 C5 1_555 1_555
C6 N1 1_555 1_555
C7 C6 1_555 1_555
H8 C7 1_555 1_555
C8 C7 1_555 1_555
C9 N2 1_555 1_555
C10 N2 1_555 1_555
C11 C7 1_555 1_555
C12 C8 1_555 1_555
C13 C9 1_555 1_555
H9 C13 1_555 1_555
H10 C13 1_555 1_555
H11 C13 1_555 1_555
C14 C10 1_555 1_555
H12 C14 1_555 1_555
H13 C14 1_555 1_555
H14 C14 1_555 1_555
C15 C11 1_555 1_555
Ag1A N3 1_555 1_555
Ag1B N4 1_555 1_555
N3A Ag1 1_555 1_555
N4B Ag1 1_555 1_555
C5 C6 1_555 1_555
C8 C9 1_555 1_555
C10 C11 1_555 1_555

#END
