
#######################################################################
#
#                 Cambridge Crystallographic Data Centre
#                                CCDC 
#
#######################################################################
#
# If this CIF has been generated from an entry in the Cambridge 
# Structural Database, then it will include bibliographic, chemical, 
# crystal, experimental, refinement or atomic coordinate data resulting 
# from the CCDC's data processing and validation procedures.
#
#######################################################################

data_HUMJOP
_symmetry_cell_setting           monoclinic
_symmetry_space_group_name_H-M   'P 21/c'
_symmetry_Int_Tables_number      14
_space_group_name_Hall           '-P 2ybc'
loop_
_symmetry_equiv_pos_site_id
_symmetry_equiv_pos_as_xyz
1 x,y,z
2 -x,1/2+y,1/2-z
3 -x,-y,-z
4 x,1/2-y,1/2+z
_cell_length_a                   6.6550(8)
_cell_length_b                   20.7600(18)
_cell_length_c                   13.537(2)
_cell_angle_alpha                90
_cell_angle_beta                 102.726(12)
_cell_angle_gamma                90
_cell_volume                     1824.3
loop_
_atom_site_label
_atom_site_type_symbol
_atom_site_fract_x
_atom_site_fract_y
_atom_site_fract_z
Ag1 Ag -0.14951(4) 0.233109(13) 0.367978(19)
N1 N 0.1066(4) 0.18875(12) 0.48267(18)
N2 N -0.0227(4) 0.39553(13) 0.4206(2)
H1 H -0.0867 0.4293 0.3932
N3 N -0.0706(5) 0.27364(17) 0.7110(2)
N4 N 0.5433(5) 0.27239(16) 0.3613(2)
C1 C -0.0498(7) 0.0870(2) 0.4215(4)
H2 H -0.1753 0.0988 0.4407
H3 H -0.0258 0.0417 0.4327
H4 H -0.0610 0.0965 0.3511
C2 C 0.1252(6) 0.12395(16) 0.4835(3)
C3 C 0.3006(6) 0.09411(18) 0.5386(3)
H5 H 0.3120 0.0495 0.5382
C4 C 0.4557(6) 0.1304(2) 0.5931(3)
H6 H 0.5749 0.1107 0.6293
C5 C 0.4362(5) 0.19653(18) 0.5947(2)
H7 H 0.5399 0.2219 0.6330
C6 C 0.2586(5) 0.22424(15) 0.5381(2)
C7 C 0.2354(4) 0.29690(15) 0.5321(2)
H8 H 0.3506 0.3159 0.5812
C8 C 0.0362(4) 0.32170(15) 0.5558(2)
C9 C -0.0730(5) 0.37073(15) 0.5062(2)
C10 C 0.1249(5) 0.36874(15) 0.3773(2)
C11 C 0.2462(4) 0.32128(14) 0.4268(2)
C12 C -0.0217(5) 0.29598(17) 0.6427(2)
C13 C -0.2507(6) 0.40327(19) 0.5370(3)
H9 H -0.2976 0.3771 0.5859
H10 H -0.3608 0.4090 0.4786
H11 H -0.2075 0.4445 0.5662
C14 C 0.1387(6) 0.39414(19) 0.2761(3)
H12 H 0.2511 0.3737 0.2545
H13 H 0.1614 0.4398 0.2804
H14 H 0.0124 0.3853 0.2280
C15 C 0.4070(5) 0.29492(16) 0.3861(2)
Ag1C Ag -0.14951(4) 0.266891(13) 0.867978(19)
Ag1_2 Ag 0.85049(4) 0.233109(13) 0.367978(19)
N3C N -0.0706(5) 0.22636(17) 0.2110(2)
N4_2 N -0.4567(5) 0.27239(16) 0.3613(2)
F1 F 0.437(3) 0.1140(7) 0.2342(14)
F2 F 0.433(3) 0.0257(8) 0.3473(13)
F3 F 0.1421(13) 0.0630(9) 0.2295(12)
F4 F 0.329(2) -0.0328(6) 0.2188(13)
F5 F 0.6058(9) 0.0198(6) 0.2437(15)
F6 F 0.319(2) 0.0499(6) 0.1101(8)
P1 P 0.37028(15) 0.03944(5) 0.22944(8)
F7? F 0.338(2) 0.1088(5) 0.2548(12)
F8? F 0.362(3) 0.0261(12) 0.3381(15)
F9? F 0.1264(6) 0.0293(4) 0.1962(10)
F10? F 0.3786(16) -0.0369(4) 0.2021(9)
F11? F 0.6133(5) 0.0412(5) 0.2391(7)
F12? F 0.367(2) 0.0541(7) 0.1170(9)
loop_
_geom_bond_atom_site_label_1
_geom_bond_atom_site_label_2
_geom_bond_site_symmetry_1
_geom_bond_site_symmetry_2
Ag1 N1 1_555 1_555
N1 C2 1_555 1_555
N2 H1 1_555 1_555
N3 C12 1_555 1_555
N4 C15 1_555 1_555
C1 H2 1_555 1_555
H3 C1 1_555 1_555
H4 C1 1_555 1_555
C2 C1 1_555 1_555
C3 C2 1_555 1_555
H5 C3 1_555 1_555
C4 C3 1_555 1_555
H6 C4 1_555 1_555
C5 C4 1_555 1_555
H7 C5 1_555 1_555
C6 N1 1_555 1_555
C7 C6 1_555 1_555
H8 C7 1_555 1_555
C8 C7 1_555 1_555
C9 N2 1_555 1_555
C10 N2 1_555 1_555
C11 C7 1_555 1_555
C12 C8 1_555 1_555
C13 C9 1_555 1_555
H9 C13 1_555 1_555
H10 C13 1_555 1_555
H11 C13 1_555 1_555
C14 C10 1_555 1_555
H12 C14 1_555 1_555
H13 C14 1_555 1_555
H14 C14 1_555 1_555
C15 C11 1_555 1_555
F1 P1 1_555 1_555
F2 P1 1_555 1_555
F3 P1 1_555 1_555
F4 P1 1_555 1_555
F5 P1 1_555 1_555
F6 P1 1_555 1_555
Ag1C N3 1_555 1_555
Ag1_2 N4 1_555 1_555
N3C Ag1 1_555 1_555
N4_2 Ag1 1_555 1_555
C5 C6 1_555 1_555
C8 C9 1_555 1_555
C10 C11 1_555 1_555

#END
