
#######################################################################
#
#                 Cambridge Crystallographic Data Centre
#                                CCDC 
#
#######################################################################
#
# If this CIF has been generated from an entry in the Cambridge 
# Structural Database, then it will include bibliographic, chemical, 
# crystal, experimental, refinement or atomic coordinate data resulting 
# from the CCDC's data processing and validation procedures.
#
#######################################################################

data_HUMLUX
_symmetry_cell_setting           monoclinic
_symmetry_space_group_name_H-M   'P 21/c'
_symmetry_Int_Tables_number      14
_space_group_name_Hall           '-P 2ybc'
loop_
_symmetry_equiv_pos_site_id
_symmetry_equiv_pos_as_xyz
1 x,y,z
2 -x,1/2+y,1/2-z
3 -x,-y,-z
4 x,1/2-y,1/2+z
_cell_length_a                   12.076(8)
_cell_length_b                   8.851(6)
_cell_length_c                   19.893(12)
_cell_angle_alpha                90
_cell_angle_beta                 106.749(9)
_cell_angle_gamma                90
_cell_volume                     2036.05
loop_
_atom_site_label
_atom_site_type_symbol
_atom_site_fract_x
_atom_site_fract_y
_atom_site_fract_z
Sn1 Sn 0.109583(11) 0.545917(16) 0.230489(7)
O1 O 0.26155(13) 0.65710(18) 0.20557(8)
O2 O 0.04277(12) 0.32468(16) 0.24321(8)
O3 O 0.06639(13) 0.07666(16) 0.23722(8)
N1 N 0.31693(14) 0.4177(2) 0.18034(9)
N2 N 0.22485(14) 0.3746(2) 0.20282(8)
C1 C 0.4818(3) 0.5465(3) 0.12422(18)
H1 H 0.4625 0.4455 0.1145
C2 C 0.5696(3) 0.6108(5) 0.1024(2)
H2 H 0.6095 0.5524 0.0782
C3 C 0.5986(2) 0.7593(4) 0.11575(16)
H3 H 0.6576 0.8018 0.1005
C4 C 0.5411(2) 0.8444(3) 0.15125(14)
H4 H 0.5610 0.9453 0.1606
C5 C 0.4526(2) 0.7820(3) 0.17379(13)
H5 H 0.4133 0.8414 0.1980
C6 C 0.42260(18) 0.6320(3) 0.16050(11)
C7 C 0.32634(17) 0.5677(3) 0.18377(11)
C8 C 0.20153(17) 0.2337(2) 0.20690(11)
C9 C 0.09622(16) 0.2082(2) 0.23109(10)
C10 C 0.2688(2) 0.1058(3) 0.19041(15)
H6 H 0.2485 0.0919 0.1405
H7 H 0.2516 0.0153 0.2120
H8 H 0.3500 0.1274 0.2080
C11 C 0.19034(18) 0.5923(3) 0.33802(12)
C12 C 0.2870(2) 0.6846(3) 0.36012(14)
H9 H 0.3152 0.7339 0.3272
C13 C 0.3412(3) 0.7033(4) 0.43072(16)
H10 H 0.4063 0.7646 0.4451
C14 C 0.3003(3) 0.6328(4) 0.47977(15)
H11 H 0.3372 0.6466 0.5273
C15 C 0.2049(3) 0.5415(4) 0.45889(15)
H12 H 0.1771 0.4935 0.4924
C16 C 0.1494(2) 0.5204(3) 0.38801(13)
H13 H 0.0849 0.4580 0.3741
C17 C 0.00502(19) 0.5983(3) 0.12817(11)
C18 C 0.0415(2) 0.6954(3) 0.08409(13)
H14 H 0.1120 0.7452 0.1003
C19 C -0.0271(3) 0.7179(4) 0.01605(14)
H15 H -0.0023 0.7836 -0.0131
C20 C -0.1306(3) 0.6453(4) -0.00896(14)
H16 H -0.1757 0.6610 -0.0549
C21 C -0.1676(2) 0.5490(4) 0.03408(14)
H17 H -0.2382 0.4997 0.0172
C22 C -0.1007(2) 0.5250(3) 0.10236(13)
H18 H -0.1265 0.4594 0.1312
Sn1A Sn -0.109583(11) 0.045917(16) 0.269511(7)
O3A O -0.06639(13) 0.57666(16) 0.26278(8)
loop_
_geom_bond_atom_site_label_1
_geom_bond_atom_site_label_2
_geom_bond_site_symmetry_1
_geom_bond_site_symmetry_2
Sn1 O1 1_555 1_555
O1 C7 1_555 1_555
O2 Sn1 1_555 1_555
O3 C9 1_555 1_555
N1 N2 1_555 1_555
N2 Sn1 1_555 1_555
C1 H1 1_555 1_555
C2 C1 1_555 1_555
H2 C2 1_555 1_555
C3 C2 1_555 1_555
H3 C3 1_555 1_555
C4 C3 1_555 1_555
H4 C4 1_555 1_555
C5 C4 1_555 1_555
H5 C5 1_555 1_555
C6 C1 1_555 1_555
C7 N1 1_555 1_555
C8 N2 1_555 1_555
C9 O2 1_555 1_555
C10 C8 1_555 1_555
H6 C10 1_555 1_555
H7 C10 1_555 1_555
H8 C10 1_555 1_555
C11 Sn1 1_555 1_555
C12 C11 1_555 1_555
H9 C12 1_555 1_555
C13 C12 1_555 1_555
H10 C13 1_555 1_555
C14 C13 1_555 1_555
H11 C14 1_555 1_555
C15 C14 1_555 1_555
H12 C15 1_555 1_555
C16 C11 1_555 1_555
H13 C16 1_555 1_555
C17 Sn1 1_555 1_555
C18 C17 1_555 1_555
H14 C18 1_555 1_555
C19 C18 1_555 1_555
H15 C19 1_555 1_555
C20 C19 1_555 1_555
H16 C20 1_555 1_555
C21 C20 1_555 1_555
H17 C21 1_555 1_555
C22 C17 1_555 1_555
H18 C22 1_555 1_555
Sn1A O3 1_555 1_555
O3A Sn1 1_555 1_555
C5 C6 1_555 1_555
C6 C7 1_555 1_555
C8 C9 1_555 1_555
C15 C16 1_555 1_555
C21 C22 1_555 1_555

#END
