
#######################################################################
#
#                 Cambridge Crystallographic Data Centre
#                                CCDC 
#
#######################################################################
#
# If this CIF has been generated from an entry in the Cambridge 
# Structural Database, then it will include bibliographic, chemical, 
# crystal, experimental, refinement or atomic coordinate data resulting 
# from the CCDC's data processing and validation procedures.
#
#######################################################################

data_HUMPOV
_symmetry_cell_setting           monoclinic
_symmetry_space_group_name_H-M   'P 21/n'
_symmetry_Int_Tables_number      14
_space_group_name_Hall           '-P 2yn'
loop_
_symmetry_equiv_pos_site_id
_symmetry_equiv_pos_as_xyz
1 x,y,z
2 1/2-x,1/2+y,1/2-z
3 -x,-y,-z
4 1/2+x,1/2-y,1/2+z
_cell_length_a                   8.9167(4)
_cell_length_b                   3.6621(2)
_cell_length_c                   14.6030(7)
_cell_angle_alpha                90
_cell_angle_beta                 97.049(4)
_cell_angle_gamma                90
_cell_volume                     473.24
loop_
_atom_site_label
_atom_site_type_symbol
_atom_site_fract_x
_atom_site_fract_y
_atom_site_fract_z
Na1 Na 0.92182(11) 0.4764(3) 0.22317(7)
O1 O 1.0923(2) -0.0592(6) 0.19426(13)
H1 H 1.128(4) -0.022(13) 0.2557(14)
H2 H 1.175(3) -0.085(11) 0.1621(19)
Cl1 Cl 0.83631(6) 0.20641(19) 0.03041(4)
O2 O 0.61667(19) 0.1654(5) -0.13960(11)
O3 O 0.66033(19) 0.5469(5) 0.16923(11)
C1 C 0.5928(3) 0.5232(6) 0.08892(15)
C2 C 0.5690(3) 0.3224(6) -0.07292(16)
C3 C 0.6516(2) 0.3655(7) 0.01416(16)
Na1_2 Na 0.92182(11) 1.4764(3) 0.22317(7)
Na1_3 Na 0.92182(11) -0.5236(3) 0.22317(7)
Na1C Na 0.42182(11) 0.0236(3) -0.27683(7)
Na1A Na 0.57818(11) 0.9764(3) 0.27683(7)
Na1A_2 Na 0.57818(11) -0.0236(3) 0.27683(7)
Na1B Na 0.07818(11) 0.5236(3) -0.22317(7)
Na1C_2 Na 0.42182(11) 1.0236(3) -0.27683(7)
O1_2 O 1.0923(2) 0.9408(6) 0.19426(13)
O1_3 O 1.0923(2) 1.9408(6) 0.19426(13)
H1_2 H 1.128(4) 0.978(13) 0.2557(14)
H1_3 H 1.128(4) 1.978(13) 0.2557(14)
H2_2 H 1.175(3) 0.915(11) 0.1621(19)
H2_3 H 1.175(3) 1.915(11) 0.1621(19)
Cl1B Cl 0.16369(6) 0.79359(19) -0.03041(4)
Cl1_2 Cl 0.83631(6) 1.20641(19) 0.03041(4)
O2B O 0.38333(19) 0.8346(5) 0.13960(11)
O2C O 1.11667(19) 0.3346(5) 0.36040(11)
O2C_2 O 1.11667(19) 1.3346(5) 0.36040(11)
O3B O 0.33967(19) 0.4531(5) -0.16923(11)
O3A O 0.83967(19) 0.0469(5) 0.33077(11)
O3A_2 O 0.83967(19) 1.0469(5) 0.33077(11)
O3_2 O 0.66033(19) 1.5469(5) 0.16923(11)
O3A_3 O 0.83967(19) 2.0469(5) 0.33077(11)
C1B C 0.4072(3) 0.4768(6) -0.08892(15)
C2B C 0.4310(3) 0.6776(6) 0.07292(16)
C3B C 0.3484(2) 0.6345(7) -0.01416(16)
loop_
_geom_bond_atom_site_label_1
_geom_bond_atom_site_label_2
_geom_bond_site_symmetry_1
_geom_bond_site_symmetry_2
Na1 O1 1_555 1_555
O1 H1 1_555 1_555
H2 O1 1_555 1_555
Cl1 Na1 1_555 1_555
O2 C2 1_555 1_555
O3 Na1 1_555 1_555
C1 O3 1_555 1_555
C2 C3 1_555 1_555
C3 Cl1 1_555 1_555
Na1_2 O1_2 1_555 1_555
Na1_3 O1 1_555 1_555
Na1C O2 1_555 1_555
Na1A O3 1_555 1_555
Na1A_2 O3 1_555 1_555
Na1B Cl1B 1_555 1_555
Na1C_2 O3B 1_555 1_555
O1_2 Na1 1_555 1_555
O1_3 Na1_2 1_555 1_555
H1_2 O1_2 1_555 1_555
H1_3 O1_3 1_555 1_555
H2_2 O1_2 1_555 1_555
H2_3 O1_3 1_555 1_555
Cl1B C3B 1_555 1_555
Cl1_2 Na1_2 1_555 1_555
O2B Na1A 1_555 1_555
O2C Na1 1_555 1_555
O2C_2 Na1_2 1_555 1_555
O3B Na1C 1_555 1_555
O3A Na1 1_555 1_555
O3A_2 Na1 1_555 1_555
O3_2 Na1_2 1_555 1_555
O3A_3 Na1_2 1_555 1_555
C1B C2 1_555 1_555
C2B C1 1_555 1_555
C3B C1B 1_555 1_555
C1 C3 1_555 1_555
Na1_2 O3A_2 1_555 1_555
Na1_3 O3A 1_555 1_555
Na1A O3A_2 1_555 1_555
Na1A O3_2 1_555 1_555
Na1A_2 O3A 1_555 1_555
Na1B O3B 1_555 1_555
O2B C2B 1_555 1_555
O3B C1B 1_555 1_555
C2B C3B 1_555 1_555

#END
