
#######################################################################
#
#                 Cambridge Crystallographic Data Centre
#                                CCDC 
#
#######################################################################
#
# If this CIF has been generated from an entry in the Cambridge 
# Structural Database, then it will include bibliographic, chemical, 
# crystal, experimental, refinement or atomic coordinate data resulting 
# from the CCDC's data processing and validation procedures.
#
#######################################################################

data_HUMQOX
_symmetry_cell_setting           monoclinic
_symmetry_space_group_name_H-M   'C 2/c'
_symmetry_Int_Tables_number      15
_space_group_name_Hall           '-C 2yn'
loop_
_symmetry_equiv_pos_site_id
_symmetry_equiv_pos_as_xyz
1 x,y,z
2 -x,y,1/2-z
3 1/2+x,1/2+y,z
4 1/2-x,1/2+y,1/2-z
5 -x,-y,-z
6 x,-y,1/2+z
7 1/2-x,1/2-y,-z
8 1/2+x,1/2-y,1/2+z
_cell_length_a                   16.8050(7)
_cell_length_b                   10.3730(7)
_cell_length_c                   9.2740(5)
_cell_angle_alpha                90
_cell_angle_beta                 95.526(3)
_cell_angle_gamma                90
_cell_volume                     1609.11
loop_
_atom_site_label
_atom_site_type_symbol
_atom_site_fract_x
_atom_site_fract_y
_atom_site_fract_z
Cu1 Cu 0.0000 0.35343(2) 0.2500
O1 O 0.06352(6) 0.48905(11) 0.36079(11)
O2 O 0.07088(6) 0.61770(10) 0.55315(11)
N1 N 0.06190(7) 0.20778(13) 0.34930(12)
C1 C 0.12300(10) 0.21203(19) 0.45136(17)
H1 H 0.1434 0.2936 0.4834
C2 C 0.15813(12) 0.1007(2) 0.5129(2)
H2 H 0.2014 0.1069 0.5864
C3 C 0.13006(13) -0.0169(2) 0.4673(2)
H3 H 0.1540 -0.0931 0.5084
C4 C 0.06530(12) -0.02547(18) 0.35873(19)
C5 C 0.03353(9) 0.09118(15) 0.30419(15)
C6 C 0.03126(15) -0.14300(18) 0.3020(3)
H4 H 0.0528 -0.2228 0.3377
C7 C 0.03891(8) 0.53119(14) 0.47628(14)
O1D O -0.06352(6) 0.51095(11) 0.63921(11)
O2D O -0.07088(6) 0.38230(10) 0.44685(11)
C7D C -0.03891(8) 0.46881(14) 0.52372(14)
N1A N -0.06190(7) 0.20778(13) 0.15070(12)
C1A C -0.12300(10) 0.21203(19) 0.04864(17)
H1A H -0.1434 0.2936 0.0166
C2A C -0.15813(12) 0.1007(2) -0.0129(2)
H2A H -0.2014 0.1069 -0.0864
C3A C -0.13006(13) -0.0169(2) 0.0327(2)
H3A H -0.1540 -0.0931 -0.0084
C4A C -0.06530(12) -0.02547(18) 0.14127(19)
C5A C -0.03353(9) 0.09118(15) 0.19581(15)
C6A C -0.03126(15) -0.14300(18) 0.1980(3)
H4A H -0.0528 -0.2228 0.1623
Cu1D Cu 0.0000 0.64657(2) 0.7500
O1A O -0.06352(6) 0.48905(11) 0.13921(11)
O2E O 0.07088(6) 0.38230(10) 0.05315(11)
O3 O 0.29712(10) 0.09786(17) 0.25104(19)
H5 H 0.2807(15) 0.043(2) 0.269(3)
H6 H 0.3368(18) 0.070(3) 0.206(3)
O4 O 0.23115(9) 0.33653(16) 0.1687(2)
H7 H 0.2474(14) 0.273(2) 0.184(3)
H8 H 0.1938(15) 0.339(2) 0.112(3)
loop_
_geom_bond_atom_site_label_1
_geom_bond_atom_site_label_2
_geom_bond_site_symmetry_1
_geom_bond_site_symmetry_2
Cu1 O1 1_555 1_555
O1 C7 1_555 1_555
O2 C7 1_555 1_555
N1 Cu1 1_555 1_555
C1 N1 1_555 1_555
H1 C1 1_555 1_555
C2 C1 1_555 1_555
H2 C2 1_555 1_555
C3 C2 1_555 1_555
H3 C3 1_555 1_555
C4 C3 1_555 1_555
C5 N1 1_555 1_555
C6 C4 1_555 1_555
H4 C6 1_555 1_555
C7 C7D 1_555 1_555
O3 H5 1_555 1_555
H6 O3 1_555 1_555
O4 H7 1_555 1_555
H8 O4 1_555 1_555
O1D C7D 1_555 1_555
O2D Cu1 1_555 1_555
C7D O2D 1_555 1_555
N1A Cu1 1_555 1_555
C1A N1A 1_555 1_555
H1A C1A 1_555 1_555
C2A C1A 1_555 1_555
H2A C2A 1_555 1_555
C3A C2A 1_555 1_555
H3A C3A 1_555 1_555
C4A C3A 1_555 1_555
C5A C5 1_555 1_555
C6A C6 1_555 1_555
H4A C6A 1_555 1_555
Cu1D O2 1_555 1_555
O1A Cu1 1_555 1_555
O2E Cu1 1_555 1_555
C4 C5 1_555 1_555
O1D Cu1D 1_555 1_555
N1A C5A 1_555 1_555
C4A C5A 1_555 1_555
C4A C6A 1_555 1_555

#END
