
#######################################################################
#
#                 Cambridge Crystallographic Data Centre
#                                CCDC 
#
#######################################################################
#
# If this CIF has been generated from an entry in the Cambridge 
# Structural Database, then it will include bibliographic, chemical, 
# crystal, experimental, refinement or atomic coordinate data resulting 
# from the CCDC's data processing and validation procedures.
#
#######################################################################

data_HUMRUE
_symmetry_cell_setting           monoclinic
_symmetry_space_group_name_H-M   'P 21/n'
_symmetry_Int_Tables_number      14
_space_group_name_Hall           '-P 2yn'
loop_
_symmetry_equiv_pos_site_id
_symmetry_equiv_pos_as_xyz
1 x,y,z
2 1/2-x,1/2+y,1/2-z
3 -x,-y,-z
4 1/2+x,1/2-y,1/2+z
_cell_length_a                   17.8411(6)
_cell_length_b                   15.0386(5)
_cell_length_c                   37.8314(13)
_cell_angle_alpha                90
_cell_angle_beta                 103.360(2)
_cell_angle_gamma                90
_cell_volume                     9875.67
loop_
_atom_site_label
_atom_site_type_symbol
_atom_site_fract_x
_atom_site_fract_y
_atom_site_fract_z
Mn1 Mn 0.48244(4) 1.34746(4) 0.309959(17)
Mn2 Mn 0.60709(4) 1.25247(4) 0.375668(17)
Mn3 Mn 0.42725(4) 1.25911(4) 0.379030(17)
Mn4 Mn 0.57327(4) 0.84528(4) 0.308398(17)
Mn5 Mn 0.69589(4) 0.76030(4) 0.377488(18)
Mn6 Mn 0.51358(4) 0.75407(4) 0.375496(17)
O1 O 0.50566(16) 1.28870(18) 0.35516(7)
O2 O 0.59465(16) 0.78907(18) 0.35407(8)
O3 O 0.64400(17) 1.2954(2) 0.33557(8)
N1 N 0.5930(2) 1.3397(2) 0.30794(9)
C1 C 0.6251(3) 1.3767(3) 0.28432(11)
C2 C 0.5847(2) 1.4238(3) 0.25239(12)
C3 C 0.5034(3) 1.4265(3) 0.24209(11)
O4 O 0.45974(18) 1.3938(2) 0.26285(8)
C4 C 0.4666(3) 1.4630(3) 0.20746(12)
C5 C 0.5135(3) 1.5029(3) 0.18751(12)
C6 C 0.5938(3) 1.5058(3) 0.19891(13)
C7 C 0.6288(3) 1.4649(3) 0.23105(13)
C8 C 0.3791(3) 1.4554(3) 0.19343(12)
C9 C 0.3566(3) 1.3572(3) 0.19013(13)
C10 C 0.3357(3) 1.5025(4) 0.21867(14)
C11 C 0.3516(3) 1.4978(4) 0.15511(13)
O5 O 0.49693(17) 1.2016(2) 0.41788(9)
N2 N 0.5747(2) 1.2082(2) 0.41985(10)
C12 C 0.6180(3) 1.1789(3) 0.44915(12)
C13 C 0.7016(3) 1.1738(3) 0.45653(12)
C14 C 0.7442(3) 1.2027(3) 0.43127(12)
O6 O 0.70889(18) 1.2332(2) 0.39863(8)
C15 C 0.8258(3) 1.1992(3) 0.44061(12)
C16 C 0.8606(3) 1.1633(3) 0.47451(13)
C17 C 0.8186(3) 1.1334(4) 0.49902(14)
C18 C 0.7403(3) 1.1391(3) 0.48996(13)
C19 C 0.8737(3) 1.2348(3) 0.41462(13)
C20 C 0.8561(3) 1.1849(4) 0.37885(14)
C21 C 0.8563(3) 1.3341(3) 0.40761(16)
C22 C 0.9603(3) 1.2257(5) 0.43062(15)
O7 O 0.37608(17) 1.3571(2) 0.31105(8)
N3 N 0.3499(2) 1.3143(2) 0.33841(10)
C23 C 0.2765(2) 1.3151(3) 0.33433(12)
C24 C 0.2345(3) 1.2729(3) 0.35834(12)
C25 C 0.2721(3) 1.2285(3) 0.39054(12)
O8 O 0.34731(18) 1.2252(2) 0.40056(9)
C26 C 0.2273(3) 1.1879(3) 0.41250(12)
C27 C 0.1482(3) 1.1934(3) 0.40105(14)
C28 C 0.1105(3) 1.2389(3) 0.36975(14)
C29 C 0.1536(3) 1.2776(3) 0.34827(13)
C30 C 0.2661(3) 1.1372(3) 0.44762(14)
C31 C 0.3172(4) 1.0623(4) 0.43844(15)
C32 C 0.3159(3) 1.2007(4) 0.47450(14)
C33 C 0.2058(3) 1.0948(4) 0.46494(17)
O9 O 0.43722(17) 0.7944(2) 0.33492(8)
N4 N 0.4609(2) 0.8375(2) 0.30691(10)
C34 C 0.4056(3) 0.8735(3) 0.28353(11)
C35 C 0.4154(2) 0.9224(3) 0.25142(12)
C36 C 0.4859(3) 0.9277(3) 0.24106(11)
O10 O 0.54976(18) 0.8913(2) 0.26129(8)
C37 C 0.4895(3) 0.9692(3) 0.20762(12)
C38 C 0.4218(3) 1.0084(3) 0.18792(12)
C39 C 0.3530(3) 1.0069(3) 0.19908(12)
C40 C 0.3492(3) 0.9628(3) 0.23019(12)
C41 C 0.5636(3) 0.9683(3) 0.19391(12)
C42 C 0.5847(3) 0.8726(4) 0.18735(16)
C43 C 0.6295(3) 1.0133(4) 0.22139(14)
C44 C 0.5547(3) 1.0188(5) 0.15793(14)
O11 O 0.68092(17) 0.8493(2) 0.30778(8)
N5 N 0.7341(2) 0.8111(2) 0.33627(10)
C45 C 0.8037(3) 0.8132(3) 0.33289(13)
C46 C 0.8693(3) 0.7779(3) 0.35887(13)
C47 C 0.8632(2) 0.7356(3) 0.39186(12)
O12 O 0.79508(18) 0.7262(2) 0.39942(9)
C48 C 0.9298(3) 0.7036(3) 0.41631(13)
C49 C 0.9990(3) 0.7148(4) 0.40666(16)
C50 C 1.0066(3) 0.7550(5) 0.37445(18)
C51 C 0.9423(3) 0.7872(4) 0.35070(16)
C52 C 0.9235(3) 0.6570(3) 0.45189(13)
C53 C 0.8744(4) 0.5731(4) 0.44343(16)
C54 C 0.8869(3) 0.7194(4) 0.47534(15)
C55 C 1.0032(3) 0.6304(4) 0.47477(15)
O13 O 0.66633(17) 0.7105(2) 0.41859(9)
N6 N 0.5902(2) 0.7151(2) 0.42001(10)
C56 C 0.5011(2) 0.6800(3) 0.45747(12)
C57 C 0.4326(3) 0.7016(3) 0.43171(12)
O14 O 0.43435(17) 0.7317(2) 0.39890(8)
C58 C 0.5761(3) 0.6865(3) 0.44945(12)
C59 C 0.3594(3) 0.6926(3) 0.44067(11)
C60 C 0.3597(3) 0.6615(4) 0.47518(13)
C61 C 0.4269(3) 0.6399(4) 0.50075(14)
C62 C 0.4970(3) 0.6500(4) 0.49199(13)
C63 C 0.2844(3) 0.7173(3) 0.41365(13)
C64 C 0.2745(3) 0.6633(4) 0.37827(14)
C65 C 0.2858(3) 0.8174(3) 0.40514(14)
C66 C 0.2140(3) 0.6983(4) 0.42924(15)
C67 C 0.6010(3) 1.0495(3) 0.34110(11)
O15 O 0.57443(19) 1.1139(2) 0.35581(9)
O16 O 0.56575(19) 0.9765(2) 0.33627(9)
C68 C 0.6750(3) 1.0614(3) 0.32925(15)
C69 C 0.4901(3) 0.5520(3) 0.34029(11)
O17 O 0.51899(18) 0.4764(2) 0.33820(8)
O18 O 0.52821(18) 0.6133(2) 0.35828(9)
C70 C 0.4088(3) 0.5690(3) 0.32042(14)
C71 C 0.4922(4) 1.1705(4) 0.25974(16)
O19 O 0.4506(2) 1.2133(2) 0.28299(9)
C72 C 0.3695(3) 1.0566(4) 0.34218(18)
O20 O 0.42218(18) 1.1276(2) 0.34389(9)
C73 C 0.4067(4) 1.4607(4) 0.41443(18)
O21 O 0.4522(2) 1.3879(2) 0.41020(10)
C74 C 0.5161(4) 0.6739(4) 0.25400(17)
O22 O 0.5706(3) 0.7088(2) 0.28270(10)
C75 C 0.7505(6) 0.9311(6) 0.4309(3)
O23 O 0.7024(3) 0.8994(3) 0.40168(10)
C76 C 0.7218(3) 0.5580(4) 0.34336(16)
O24 O 0.66777(19) 0.6267(2) 0.34406(9)
C77 C 0.4996(4) 0.9482(4) 0.42391(18)
O25 O 0.5377(2) 0.9061(2) 0.39911(10)
H1 H 0.6779 1.3725 0.2881
H2 H 0.4901 1.5286 0.1655
H3 H 0.6235 1.5349 0.1852
H4 H 0.6826 1.4645 0.2387
H5 H 0.3021 1.3536 0.1811
H6 H 0.3710 1.3300 0.2136
H7 H 0.3828 1.3296 0.1733
H8 H 0.2808 1.4954 0.2098
H9 H 0.3482 1.5646 0.2197
H10 H 0.3506 1.4785 0.2427
H11 H 0.2970 1.4888 0.1466
H12 H 0.3619 1.5601 0.1560
H13 H 0.3786 1.4703 0.1385
H14 H 0.5941 1.1593 0.4668
H15 H 0.9133 1.1591 0.4809
H16 H 0.8430 1.1089 0.5214
H17 H 0.7116 1.1197 0.5059
H18 H 0.8887 1.2056 0.3635
H19 H 0.8662 1.1235 0.3839
H20 H 0.8032 1.1915 0.3667
H21 H 0.8916 1.3579 0.3941
H22 H 0.8633 1.3641 0.4305
H23 H 0.8037 1.3413 0.3941
H24 H 0.9871 1.2481 0.4136
H25 H 0.9748 1.2593 0.4526
H26 H 0.9744 1.1647 0.4353
H27 H 0.2479 1.3460 0.3143
H28 H 0.1179 1.1658 0.4149
H29 H 0.0572 1.2409 0.3632
H30 H 0.1287 1.3066 0.3267
H31 H 0.3398 1.0293 0.4605
H32 H 0.3570 1.0868 0.4287
H33 H 0.2871 1.0224 0.4208
H34 H 0.3434 1.1676 0.4953
H35 H 0.2849 1.2453 0.4827
H36 H 0.3526 1.2290 0.4633
H37 H 0.2302 1.0655 0.4873
H38 H 0.1721 1.1397 0.4701
H39 H 0.1760 1.0518 0.4489
H40 H 0.3557 0.8672 0.2864
H41 H 0.4223 1.0369 0.1666
H42 H 0.3096 1.0359 0.1855
H43 H 0.3029 0.9609 0.2377
H44 H 0.6330 0.8714 0.1807
H45 H 0.5879 0.8380 0.2089
H46 H 0.5447 0.8480 0.1679
H47 H 0.6768 1.0058 0.2137
H48 H 0.6199 1.0758 0.2228
H49 H 0.6354 0.9883 0.2450
H50 H 0.6020 1.0140 0.1499
H51 H 0.5442 1.0801 0.1617
H52 H 0.5123 0.9942 0.1396
H53 H 0.8122 0.8394 0.3121
H54 H 1.0439 0.6947 0.4222
H55 H 1.0547 0.7587 0.3691
H56 H 0.9464 0.8144 0.3290
H57 H 0.8723 0.5425 0.4654
H58 H 0.8980 0.5351 0.4287
H59 H 0.8235 0.5884 0.4306
H60 H 0.8844 0.6896 0.4975
H61 H 0.9177 0.7722 0.4813
H62 H 0.8352 0.7351 0.4626
H63 H 0.9980 0.6007 0.4964
H64 H 1.0352 0.6816 0.4813
H65 H 1.0274 0.5904 0.4609
H66 H 0.6190 0.6685 0.4673
H67 H 0.3131 0.6552 0.4819
H68 H 0.4246 0.6192 0.5234
H69 H 0.5424 0.6367 0.5089
H70 H 0.2266 0.6783 0.3622
H71 H 0.3153 0.6758 0.3665
H72 H 0.2742 0.6005 0.3836
H73 H 0.2363 0.8365 0.3916
H74 H 0.2989 0.8514 0.4270
H75 H 0.3236 0.8297 0.3916
H76 H 0.1674 0.7130 0.4119
H77 H 0.2179 0.7334 0.4510
H78 H 0.2131 0.6363 0.4352
H79 H 0.6746 1.0304 0.3073
H80 H 0.7160 1.0379 0.3476
H81 H 0.6857 1.1234 0.3262
H82 H 0.3993 0.6312 0.3198
H83 H 0.3739 0.5407 0.3327
H84 H 0.4005 0.5471 0.2966
H85 H 0.4507 1.1749 0.2977
H86 H 0.4677 1.1165 0.2506
H87 H 0.5444 1.1574 0.2728
H88 H 0.4937 1.2079 0.2398
H89 H 0.4679 1.1150 0.3496
H90 H 0.3780 1.0115 0.3261
H91 H 0.3744 1.0311 0.3656
H92 H 0.3187 1.0802 0.3338
H93 H 0.4947 1.4055 0.4091
H94 H 0.4234 1.4872 0.4378
H95 H 0.3540 1.4432 0.4110
H96 H 0.4095 1.5054 0.3967
H97 H 0.5844 0.6697 0.2978
H98 H 0.5242 0.6116 0.2526
H99 H 0.5210 0.7018 0.2319
H100 H 0.4654 0.6842 0.2576
H101 H 0.6719 0.9125 0.4139
H102 H 0.7561 0.8886 0.4500
H103 H 0.8000 0.9418 0.4258
H104 H 0.7297 0.9851 0.4381
H105 H 0.6311 0.6099 0.3518
H106 H 0.6954 0.5019 0.3398
H107 H 0.7600 0.5556 0.3659
H108 H 0.7462 0.5676 0.3238
H109 H 0.5333 0.9368 0.3809
H110 H 0.5168 0.9230 0.4479
H111 H 0.5088 1.0106 0.4263
H112 H 0.4445 0.9391 0.4164
Mn1_2 Mn 0.48244(4) 0.34746(4) 0.309959(17)
O17_2 O 0.51899(18) 1.4764(2) 0.33820(8)
C78 C 0.1932(5) 0.4170(6) 0.4348(3)
Cl1 Cl 0.09874(17) 0.4454(2) 0.42909(8)
Cl2 Cl 0.25185(14) 0.45083(14) 0.47584(7)
H113 H 0.1968 0.3525 0.4323
H114 H 0.2111 0.4462 0.4153
C79 C 0.6687(3) 1.4550(4) 0.42363(16)
O26 O 0.60389(18) 1.4084(2) 0.40151(9)
H115 H 0.5944 1.4443 0.3846
H116 H 0.6541 1.5146 0.4286
H117 H 0.6858 1.4236 0.4465
H118 H 0.7106 1.4587 0.4111
C80 C 0.7281(5) 0.7057(5) 0.2360(2)
O27 O 0.7395(2) 0.7945(3) 0.24738(12)
H119 H 0.7070 0.7982 0.2598
H120 H 0.7289 0.6693 0.2571
H121 H 0.6785 0.6996 0.2190
H122 H 0.7682 0.6876 0.2246
C81 C 0.2609(4) 0.1989(5) 0.2393(2)
O28 O 0.2601(2) 0.2876(3) 0.25126(11)
H123 H 0.3021 0.2947 0.2647
H124 H 0.2988 0.1908 0.2252
H125 H 0.2736 0.1605 0.2598
H126 H 0.2115 0.1822 0.2252
C82 C 0.0411(14) 0.0518(10) 0.5651(5)
Cl3 Cl -0.0241(3) 0.0148(4) 0.58440(14)
Cl4 Cl 0.0346(3) 0.0369(3) 0.52181(14)
H127 H 0.0906 0.0288 0.5780
H128 H 0.0401 0.1150 0.5682
loop_
_geom_bond_atom_site_label_1
_geom_bond_atom_site_label_2
_geom_bond_site_symmetry_1
_geom_bond_site_symmetry_2
Mn1 O1 1_555 1_555
Mn2 O1 1_555 1_555
Mn3 O1 1_555 1_555
Mn4 O2 1_555 1_555
Mn5 O2 1_555 1_555
Mn6 O2 1_555 1_555
O3 Mn2 1_555 1_555
N1 Mn1 1_555 1_555
C1 N1 1_555 1_555
C2 C1 1_555 1_555
C3 C2 1_555 1_555
O4 Mn1 1_555 1_555
C4 C3 1_555 1_555
C5 C4 1_555 1_555
C6 C5 1_555 1_555
C7 C2 1_555 1_555
C8 C4 1_555 1_555
C9 C8 1_555 1_555
C10 C8 1_555 1_555
C11 C8 1_555 1_555
O5 Mn3 1_555 1_555
N2 Mn2 1_555 1_555
C12 N2 1_555 1_555
C13 C12 1_555 1_555
C14 C13 1_555 1_555
O6 Mn2 1_555 1_555
C15 C14 1_555 1_555
C16 C15 1_555 1_555
C17 C16 1_555 1_555
C18 C13 1_555 1_555
C19 C15 1_555 1_555
C20 C19 1_555 1_555
C21 C19 1_555 1_555
C22 C19 1_555 1_555
O7 Mn1 1_555 1_555
N3 Mn3 1_555 1_555
C23 N3 1_555 1_555
C24 C23 1_555 1_555
C25 C24 1_555 1_555
O8 Mn3 1_555 1_555
C26 C25 1_555 1_555
C27 C26 1_555 1_555
C28 C27 1_555 1_555
C29 C24 1_555 1_555
C30 C26 1_555 1_555
C31 C30 1_555 1_555
C32 C30 1_555 1_555
C33 C30 1_555 1_555
O9 Mn6 1_555 1_555
N4 Mn4 1_555 1_555
C34 N4 1_555 1_555
C35 C34 1_555 1_555
C36 C35 1_555 1_555
O10 Mn4 1_555 1_555
C37 C36 1_555 1_555
C38 C37 1_555 1_555
C39 C38 1_555 1_555
C40 C35 1_555 1_555
C41 C37 1_555 1_555
C42 C41 1_555 1_555
C43 C41 1_555 1_555
C44 C41 1_555 1_555
O11 Mn4 1_555 1_555
N5 Mn5 1_555 1_555
C45 N5 1_555 1_555
C46 C45 1_555 1_555
C47 C46 1_555 1_555
O12 Mn5 1_555 1_555
C48 C47 1_555 1_555
C49 C48 1_555 1_555
C50 C49 1_555 1_555
C51 C46 1_555 1_555
C52 C48 1_555 1_555
C53 C52 1_555 1_555
C54 C52 1_555 1_555
C55 C52 1_555 1_555
O13 Mn5 1_555 1_555
N6 Mn6 1_555 1_555
C56 C57 1_555 1_555
C57 O14 1_555 1_555
O14 Mn6 1_555 1_555
C58 N6 1_555 1_555
C59 C57 1_555 1_555
C60 C59 1_555 1_555
C61 C60 1_555 1_555
C62 C56 1_555 1_555
C63 C59 1_555 1_555
C64 C63 1_555 1_555
C65 C63 1_555 1_555
C66 C63 1_555 1_555
C67 O15 1_555 1_555
O15 Mn2 1_555 1_555
O16 Mn4 1_555 1_555
C68 C67 1_555 1_555
C69 O17 1_555 1_555
O17 Mn1_2 1_555 1_555
O18 Mn6 1_555 1_555
C70 C69 1_555 1_555
C71 O19 1_555 1_555
O19 Mn1 1_555 1_555
C72 O20 1_555 1_555
O20 Mn3 1_555 1_555
C73 O21 1_555 1_555
O21 Mn3 1_555 1_555
C74 O22 1_555 1_555
O22 Mn4 1_555 1_555
C75 O23 1_555 1_555
O23 Mn5 1_555 1_555
C76 O24 1_555 1_555
O24 Mn5 1_555 1_555
C77 O25 1_555 1_555
O25 Mn6 1_555 1_555
H1 C1 1_555 1_555
H2 C5 1_555 1_555
H3 C6 1_555 1_555
H4 C7 1_555 1_555
H5 C9 1_555 1_555
H6 C9 1_555 1_555
H7 C9 1_555 1_555
H8 C10 1_555 1_555
H9 C10 1_555 1_555
H10 C10 1_555 1_555
H11 C11 1_555 1_555
H12 C11 1_555 1_555
H13 C11 1_555 1_555
H14 C12 1_555 1_555
H15 C16 1_555 1_555
H16 C17 1_555 1_555
H17 C18 1_555 1_555
H18 C20 1_555 1_555
H19 C20 1_555 1_555
H20 C20 1_555 1_555
H21 C21 1_555 1_555
H22 C21 1_555 1_555
H23 C21 1_555 1_555
H24 C22 1_555 1_555
H25 C22 1_555 1_555
H26 C22 1_555 1_555
H27 C23 1_555 1_555
H28 C27 1_555 1_555
H29 C28 1_555 1_555
H30 C29 1_555 1_555
H31 C31 1_555 1_555
H32 C31 1_555 1_555
H33 C31 1_555 1_555
H34 C32 1_555 1_555
H35 C32 1_555 1_555
H36 C32 1_555 1_555
H37 C33 1_555 1_555
H38 C33 1_555 1_555
H39 C33 1_555 1_555
H40 C34 1_555 1_555
H41 C38 1_555 1_555
H42 C39 1_555 1_555
H43 C40 1_555 1_555
H44 C42 1_555 1_555
H45 C42 1_555 1_555
H46 C42 1_555 1_555
H47 C43 1_555 1_555
H48 C43 1_555 1_555
H49 C43 1_555 1_555
H50 C44 1_555 1_555
H51 C44 1_555 1_555
H52 C44 1_555 1_555
H53 C45 1_555 1_555
H54 C49 1_555 1_555
H55 C50 1_555 1_555
H56 C51 1_555 1_555
H57 C53 1_555 1_555
H58 C53 1_555 1_555
H59 C53 1_555 1_555
H60 C54 1_555 1_555
H61 C54 1_555 1_555
H62 C54 1_555 1_555
H63 C55 1_555 1_555
H64 C55 1_555 1_555
H65 C55 1_555 1_555
H66 C58 1_555 1_555
H67 C60 1_555 1_555
H68 C61 1_555 1_555
H69 C62 1_555 1_555
H70 C64 1_555 1_555
H71 C64 1_555 1_555
H72 C64 1_555 1_555
H73 C65 1_555 1_555
H74 C65 1_555 1_555
H75 C65 1_555 1_555
H76 C66 1_555 1_555
H77 C66 1_555 1_555
H78 C66 1_555 1_555
H79 C68 1_555 1_555
H80 C68 1_555 1_555
H81 C68 1_555 1_555
H82 C70 1_555 1_555
H83 C70 1_555 1_555
H84 C70 1_555 1_555
H85 O19 1_555 1_555
H86 C71 1_555 1_555
H87 C71 1_555 1_555
H88 C71 1_555 1_555
H89 O20 1_555 1_555
H90 C72 1_555 1_555
H91 C72 1_555 1_555
H92 C72 1_555 1_555
H93 O21 1_555 1_555
H94 C73 1_555 1_555
H95 C73 1_555 1_555
H96 C73 1_555 1_555
H97 O22 1_555 1_555
H98 C74 1_555 1_555
H99 C74 1_555 1_555
H100 C74 1_555 1_555
H101 O23 1_555 1_555
H102 C75 1_555 1_555
H103 C75 1_555 1_555
H104 C75 1_555 1_555
H105 O24 1_555 1_555
H106 C76 1_555 1_555
H107 C76 1_555 1_555
H108 C76 1_555 1_555
H109 O25 1_555 1_555
H110 C77 1_555 1_555
H111 C77 1_555 1_555
H112 C77 1_555 1_555
C78 Cl1 1_555 1_555
Cl2 C78 1_555 1_555
H113 C78 1_555 1_555
H114 C78 1_555 1_555
C79 O26 1_555 1_555
O26 H115 1_555 1_555
H116 C79 1_555 1_555
H117 C79 1_555 1_555
H118 C79 1_555 1_555
C80 O27 1_555 1_555
O27 H119 1_555 1_555
H120 C80 1_555 1_555
H121 C80 1_555 1_555
H122 C80 1_555 1_555
C81 O28 1_555 1_555
O28 H123 1_555 1_555
H124 C81 1_555 1_555
H125 C81 1_555 1_555
H126 C81 1_555 1_555
C82 Cl3 1_555 1_555
Cl4 C82 1_555 1_555
H127 C82 1_555 1_555
H128 C82 1_555 1_555
O17_2 Mn1 1_555 1_555
O3 N1 1_555 1_555
C3 O4 1_555 1_555
C6 C7 1_555 1_555
O5 N2 1_555 1_555
C14 O6 1_555 1_555
C17 C18 1_555 1_555
O7 N3 1_555 1_555
C25 O8 1_555 1_555
C28 C29 1_555 1_555
O9 N4 1_555 1_555
C36 O10 1_555 1_555
C39 C40 1_555 1_555
O11 N5 1_555 1_555
C47 O12 1_555 1_555
C50 C51 1_555 1_555
O13 N6 1_555 1_555
C56 C58 1_555 1_555
C61 C62 1_555 1_555
C67 O16 1_555 1_555
C69 O18 1_555 1_555

#END
