
#######################################################################
#
#                 Cambridge Crystallographic Data Centre
#                                CCDC 
#
#######################################################################
#
# If this CIF has been generated from an entry in the Cambridge 
# Structural Database, then it will include bibliographic, chemical, 
# crystal, experimental, refinement or atomic coordinate data resulting 
# from the CCDC's data processing and validation procedures.
#
#######################################################################

data_HUMRIS
_symmetry_cell_setting           orthorhombic
_symmetry_space_group_name_H-M   'P b c a'
_symmetry_Int_Tables_number      61
_space_group_name_Hall           '-P 2ac 2ab'
loop_
_symmetry_equiv_pos_site_id
_symmetry_equiv_pos_as_xyz
1 x,y,z
2 1/2-x,-y,1/2+z
3 -x,1/2+y,1/2-z
4 1/2+x,1/2-y,-z
5 -x,-y,-z
6 1/2+x,y,1/2-z
7 x,1/2-y,1/2+z
8 1/2-x,1/2+y,z
_cell_length_a                   13.2751(5)
_cell_length_b                   14.6212(5)
_cell_length_c                   15.5573(6)
_cell_angle_alpha                90
_cell_angle_beta                 90
_cell_angle_gamma                90
_cell_volume                     3019.64
loop_
_atom_site_label
_atom_site_type_symbol
_atom_site_fract_x
_atom_site_fract_y
_atom_site_fract_z
Ag1 Ag 0.23137(3) 0.13610(3) 0.40442(3)
O1 O -0.0867(3) 0.3030(3) 0.5663(2)
O2 O -0.3732(3) 0.4063(3) 0.7337(3)
O3 O -0.3454(3) 0.4129(3) 0.8742(3)
N1 N 0.1358(3) 0.1145(3) 0.5168(3)
N2 N -0.1948(3) 0.3111(3) 0.7155(2)
C1 C -0.1033(4) 0.2437(4) 0.8628(3)
H1 H -0.0724 0.2211 0.9121
C2 C 0.1250(4) 0.0322(4) 0.5532(4)
H2 H 0.1674 -0.0151 0.5361
C3 C 0.0537(4) 0.0152(4) 0.6148(3)
H3 H 0.0487 -0.0427 0.6393
C4 C -0.0104(4) 0.0837(4) 0.6404(3)
H4 H -0.0597 0.0730 0.6817
C5 C 0.0002(4) 0.1689(3) 0.6033(3)
C6 C 0.0737(4) 0.1814(3) 0.5413(3)
H5 H 0.0800 0.2386 0.5158
C7 C -0.0679(3) 0.2479(3) 0.6220(3)
C8 C -0.1096(3) 0.2604(3) 0.7105(3)
C9 C -0.0625(4) 0.2273(3) 0.7830(3)
H6 H -0.0032 0.1938 0.7780
C10 C -0.1897(4) 0.2935(4) 0.8687(3)
H7 H -0.2192 0.3051 0.9218
C11 C -0.2327(3) 0.3268(4) 0.7934(3)
C12 C -0.3250(4) 0.3862(4) 0.7959(4)
C13 C -0.4290(5) 0.4765(5) 0.8846(4)
H8 H -0.4369 0.4912 0.9444
H9 H -0.4155 0.5314 0.8528
H10 H -0.4898 0.4488 0.8636
F1 F 0.2993(7) -0.1117(5) 0.2946(4)
F2 F 0.2343(4) -0.1369(4) 0.4198(4)
F3 F 0.3928(5) -0.1494(4) 0.3996(4)
F4 F 0.3287(5) -0.0186(4) 0.4044(5)
B1 B 0.3150(7) -0.1039(5) 0.3797(6)
Ag1C Ag -0.26863(3) 0.36390(3) 0.59558(3)
O1C O 0.4133(3) 0.1970(3) 0.4337(2)
O2C O 0.1268(3) 0.0937(3) 0.2663(3)
N2C N 0.3052(3) 0.1889(3) 0.2845(2)
loop_
_geom_bond_atom_site_label_1
_geom_bond_atom_site_label_2
_geom_bond_site_symmetry_1
_geom_bond_site_symmetry_2
Ag1 N1 1_555 1_555
O1 C7 1_555 1_555
O2 C12 1_555 1_555
O3 C12 1_555 1_555
N1 C2 1_555 1_555
N2 C8 1_555 1_555
C1 H1 1_555 1_555
C2 H2 1_555 1_555
C3 C2 1_555 1_555
H3 C3 1_555 1_555
C4 C3 1_555 1_555
H4 C4 1_555 1_555
C5 C4 1_555 1_555
C6 N1 1_555 1_555
H5 C6 1_555 1_555
C7 C5 1_555 1_555
C8 C7 1_555 1_555
C9 C1 1_555 1_555
H6 C9 1_555 1_555
C10 C1 1_555 1_555
H7 C10 1_555 1_555
C11 N2 1_555 1_555
C12 C11 1_555 1_555
C13 O3 1_555 1_555
H8 C13 1_555 1_555
H9 C13 1_555 1_555
H10 C13 1_555 1_555
F1 B1 1_555 1_555
F2 B1 1_555 1_555
F3 B1 1_555 1_555
F4 Ag1 1_555 1_555
B1 F4 1_555 1_555
Ag1C O1 1_555 1_555
O1C Ag1 1_555 1_555
O2C Ag1 1_555 1_555
N2C Ag1 1_555 1_555
O2 Ag1C 1_555 1_555
N2 Ag1C 1_555 1_555
C5 C6 1_555 1_555
C8 C9 1_555 1_555
C10 C11 1_555 1_555

#END
