
#######################################################################
#
#                 Cambridge Crystallographic Data Centre
#                                CCDC 
#
#######################################################################
#
# If this CIF has been generated from an entry in the Cambridge 
# Structural Database, then it will include bibliographic, chemical, 
# crystal, experimental, refinement or atomic coordinate data resulting 
# from the CCDC's data processing and validation procedures.
#
#######################################################################

data_HUNCEA
_symmetry_cell_setting           rhombohedral
_symmetry_space_group_name_H-M   'R -3'
_symmetry_Int_Tables_number      148
_space_group_name_Hall           '-R 3'
loop_
_symmetry_equiv_pos_site_id
_symmetry_equiv_pos_as_xyz
1 x,y,z
2 -y,x-y,z
3 -x+y,-x,z
4 2/3+x,1/3+y,1/3+z
5 2/3-y,1/3+x-y,1/3+z
6 2/3-x+y,1/3-x,1/3+z
7 1/3+x,2/3+y,2/3+z
8 1/3-y,2/3+x-y,2/3+z
9 1/3-x+y,2/3-x,2/3+z
10 -x,-y,-z
11 y,-x+y,-z
12 x-y,x,-z
13 1/3-x,2/3-y,2/3-z
14 1/3+y,2/3-x+y,2/3-z
15 1/3+x-y,2/3+x,2/3-z
16 2/3-x,1/3-y,1/3-z
17 2/3+y,1/3-x+y,1/3-z
18 2/3+x-y,1/3+x,1/3-z
_cell_length_a                   29.935(4)
_cell_length_b                   29.935(4)
_cell_length_c                   11.194(2)
_cell_angle_alpha                90
_cell_angle_beta                 90
_cell_angle_gamma                120
_cell_volume                     8687.09
loop_
_atom_site_label
_atom_site_type_symbol
_atom_site_fract_x
_atom_site_fract_y
_atom_site_fract_z
Zn1 Zn -0.030837(16) 0.243511(17) 0.85398(3)
O1 O 0.03476(10) 0.24262(12) 0.8552(2)
O2 O 0.03696(11) 0.27680(11) 0.6781(2)
O3 O 0.19967(11) 0.26943(11) 1.0121(2)
O4 O 0.26252(10) 0.27746(10) 0.8899(2)
O5 O -0.01976(12) 0.31488(11) 0.8534(2)
H1 H 0.0124 0.3366 0.8538
H2 H -0.0337 0.3194 0.9153
N1 N 0.19837(13) 0.29806(13) 0.4770(2)
N2 N 0.23471(14) 0.34491(13) 0.3162(3)
N3 N 0.21375(14) 0.29265(13) 0.2892(3)
C1 C 0.05667(15) 0.26203(15) 0.7545(3)
C2 C 0.10859(14) 0.26769(14) 0.7324(3)
C3 C 0.12848(14) 0.27818(15) 0.6162(3)
H3 H 0.1091 0.2799 0.5533
C4 C 0.17746(15) 0.28594(15) 0.5968(3)
C5 C 0.20825(15) 0.28475(15) 0.6899(3)
H4 H 0.2414 0.2907 0.6751
C6 C 0.18770(14) 0.27434(14) 0.8054(3)
C7 C 0.13780(14) 0.26515(14) 0.8261(3)
H5 H 0.1240 0.2573 0.9027
C8 C 0.23856(17) 0.39412(17) 0.5003(3)
H6 H 0.2077 0.3926 0.5299
H7 H 0.2569 0.4240 0.4506
H8 H 0.2600 0.3962 0.5663
C9 C 0.22466(15) 0.34703(15) 0.4294(3)
C10 C 0.19192(16) 0.26515(16) 0.3858(3)
C11 C 0.16484(18) 0.20827(17) 0.3917(3)
C12 C 0.13456(19) 0.17966(19) 0.2939(4)
H9 H 0.1310 0.1968 0.2284
C13 C 0.1098(2) 0.1261(2) 0.2941(5)
H10 H 0.0900 0.1074 0.2290
C14 C 0.1150(2) 0.1007(2) 0.3919(5)
H11 H 0.0979 0.0648 0.3932
C15 C 0.1457(2) 0.1285(2) 0.4880(5)
H12 H 0.1496 0.1112 0.5525
C16 C 0.1706(2) 0.1821(2) 0.4885(4)
H13 H 0.1910 0.2005 0.5532
C17 C 0.21990(14) 0.27380(14) 0.9085(3)
Zn1J Zn 0.243511(17) 0.274348(23) 0.14602(3)
Zn1J_2 Zn 0.243511(17) 0.274348(23) 1.14602(3)
O3K O -0.06976(16) 0.19967(11) 0.9879(2)
N3K N -0.07890(19) 0.21375(14) 0.7108(3)
O6 O 0.0000 0.0000 0.848(3)
O7 O 0.1616(4) 0.1196(5) 1.0003(7)
H14 H 0.1539 0.1416 0.9744
H15 H 0.1360 0.0894 0.9914
O8? O 0.0544(9) 0.0891(9) 0.978(2)
H16? H 0.0726 0.0989 0.9197
H17? H 0.0213 0.0274 0.8758
loop_
_geom_bond_atom_site_label_1
_geom_bond_atom_site_label_2
_geom_bond_site_symmetry_1
_geom_bond_site_symmetry_2
Zn1 O1 1_555 1_555
O1 C1 1_555 1_555
O2 C1 1_555 1_555
O3 C17 1_555 1_555
O4 C17 1_555 1_555
O5 Zn1 1_555 1_555
H1 O5 1_555 1_555
H2 O5 1_555 1_555
N1 C4 1_555 1_555
N2 N3 1_555 1_555
N3 C10 1_555 1_555
C1 C2 1_555 1_555
C2 C3 1_555 1_555
C3 H3 1_555 1_555
C4 C3 1_555 1_555
C5 C4 1_555 1_555
H4 C5 1_555 1_555
C6 C5 1_555 1_555
C7 C2 1_555 1_555
H5 C7 1_555 1_555
C8 H6 1_555 1_555
H7 C8 1_555 1_555
H8 C8 1_555 1_555
C9 N1 1_555 1_555
C10 N1 1_555 1_555
C11 C10 1_555 1_555
C12 C11 1_555 1_555
H9 C12 1_555 1_555
C13 C12 1_555 1_555
H10 C13 1_555 1_555
C14 C13 1_555 1_555
H11 C14 1_555 1_555
C15 C14 1_555 1_555
H12 C15 1_555 1_555
C16 C11 1_555 1_555
H13 C16 1_555 1_555
C17 C6 1_555 1_555
O7 H14 1_555 1_555
H15 O7 1_555 1_555
Zn1J N3 1_555 1_555
Zn1J_2 O3 1_555 1_555
O3K Zn1 1_555 1_555
N3K Zn1 1_555 1_555
N2 C9 1_555 1_555
C6 C7 1_555 1_555
C8 C9 1_555 1_555
C15 C16 1_555 1_555

#END
