
#######################################################################
#
#                 Cambridge Crystallographic Data Centre
#                                CCDC 
#
#######################################################################
#
# If this CIF has been generated from an entry in the Cambridge 
# Structural Database, then it will include bibliographic, chemical, 
# crystal, experimental, refinement or atomic coordinate data resulting 
# from the CCDC's data processing and validation procedures.
#
#######################################################################

data_HUNFON
_symmetry_cell_setting           monoclinic
_symmetry_space_group_name_H-M   'P 21/n'
_symmetry_Int_Tables_number      14
_space_group_name_Hall           '-P 2yn'
loop_
_symmetry_equiv_pos_site_id
_symmetry_equiv_pos_as_xyz
1 x,y,z
2 1/2-x,1/2+y,1/2-z
3 -x,-y,-z
4 1/2+x,1/2-y,1/2+z
_cell_length_a                   13.1897(16)
_cell_length_b                   16.438(2)
_cell_length_c                   15.4725(19)
_cell_angle_alpha                90
_cell_angle_beta                 102.345(2)
_cell_angle_gamma                90
_cell_volume                     3277.06
loop_
_atom_site_label
_atom_site_type_symbol
_atom_site_fract_x
_atom_site_fract_y
_atom_site_fract_z
V1 V -0.65963(5) -0.16658(4) -0.14810(5)
V2 V -0.21802(5) -0.00420(4) 0.12255(5)
Zn1 Zn 0.0000 0.0000 0.0000
Zn2 Zn -0.50973(4) -0.19508(3) 0.07205(4)
V3 V -0.27440(6) -0.16026(5) 0.24685(5)
C1 C 0.3749(4) 0.0768(3) 0.4094(3)
H1 H 0.3653 0.0187 0.4152
H2 H 0.3144 0.1040 0.4219
C2 C -0.9021(3) 0.1354(3) 0.4729(3)
H3 H -0.8532 0.1645 0.5134
C3 C -0.7119(3) -0.2046(3) 0.1324(3)
H4 H -0.7354 -0.2137 0.0721
C4 C 0.4285(4) 0.3236(3) 0.5324(3)
H5 H 0.3892 0.3520 0.5657
C5 C -0.8870(4) 0.0532(3) 0.4642(3)
H6 H -0.8289 0.0281 0.4985
C6 C -1.0523(4) 0.1315(3) 0.3678(3)
H7 H -1.1094 0.1580 0.3338
C7 C -0.8297(4) -0.1854(3) 0.3327(3)
H8 H -0.7985 -0.2042 0.3918
H9 H -0.8898 -0.2190 0.3095
C8 C -1.0425(4) 0.0497(3) 0.3561(3)
H10 H -1.0929 0.0220 0.3154
C9 C -0.8623(5) -0.0960(3) 0.3354(4)
H11 H -0.8011 -0.0633 0.3579
H12 H -0.8916 -0.0779 0.2756
C10 C 0.1102(3) 0.0719(3) 0.1809(3)
H13 H 0.0440 0.0910 0.1817
C11 C 0.4222(4) 0.2400(3) 0.5305(3)
H14 H 0.3783 0.2134 0.5610
C12 C -0.7835(3) -0.2026(3) 0.1840(3)
H15 H -0.8535 -0.2090 0.1584
C13 C 0.5460(4) 0.3234(3) 0.4429(3)
H16 H 0.5880 0.3516 0.4119
C14 C -0.5804(4) -0.1818(3) 0.2499(3)
H17 H -0.5101 -0.1736 0.2735
C15 C 0.3014(4) 0.0159(3) 0.1809(3)
H18 H 0.3665 -0.0050 0.1790
C16 C 0.3829(4) 0.0956(3) 0.3150(3)
H19 H 0.3915 0.1538 0.3094
H20 H 0.4445 0.0694 0.3033
C17 C 0.2166(3) -0.0066(3) 0.1178(3)
H21 H 0.2261 -0.0435 0.0746
C18 C 0.1905(3) 0.0966(3) 0.2470(3)
H22 H 0.1788 0.1313 0.2913
C19 C -0.6476(4) -0.1802(4) 0.3060(3)
H23 H -0.6224 -0.1718 0.3662
C20 C 0.4732(4) 0.1042(3) 0.4787(3)
H24 H 0.5347 0.0818 0.4628
H25 H 0.4694 0.0833 0.5365
C21 C 0.5458(4) 0.2390(3) 0.4398(3)
H26 H 0.5887 0.2118 0.4089
C22 C -0.9410(4) -0.0817(3) 0.3926(4)
H27 H -1.0063 -0.1073 0.3652
H28 H -0.9164 -0.1066 0.4501
N1 N -0.6106(3) -0.1945(2) 0.1628(2)
N2 N 0.1211(3) 0.0213(2) 0.1147(2)
C23 C 0.4816(4) 0.1951(3) 0.4829(3)
N3 N 0.4883(3) 0.3663(2) 0.4889(2)
C24 C 0.2910(3) 0.0688(3) 0.2467(3)
C25 C -0.7526(4) -0.1911(3) 0.2738(3)
N4 N -0.9840(3) 0.1755(2) 0.4256(2)
C26 C -0.9585(4) 0.0076(3) 0.4043(3)
O1 O -0.6339(2) -0.19195(19) -0.0420(2)
O2 O -0.3768(2) -0.1862(2) 0.1706(2)
O3 O -0.6963(3) -0.2519(2) -0.2184(3)
O4 O -0.1130(2) 0.00119(17) 0.0795(2)
O5 O -0.2013(2) -0.08336(19) 0.2028(2)
O6 O -0.4092(2) -0.1777(2) -0.0183(2)
H29 H -0.3741 -0.1348 -0.0023
H30 H -0.3987 -0.2273 -0.0036
O7 O -0.3207(2) -0.02342(19) 0.0438(2)
O8 O -0.5225(2) -0.0637(2) 0.0766(2)
H31 H -0.5686 -0.0372 0.0407
H32 H -0.4634 -0.0513 0.0667
O9 O -0.5541(3) -0.1279(3) -0.1690(2)
O10 O -0.7629(3) -0.09212(19) -0.1699(2)
O11 O -0.3124(3) -0.1231(3) 0.3309(3)
V1B V -0.34037(5) 0.16658(4) 0.14810(5)
V2B V -0.78198(5) 0.00420(4) -0.12255(5)
Zn2B Zn -0.49027(4) 0.19508(3) -0.07205(4)
V3B V -0.72560(6) 0.16026(5) -0.24685(5)
C2B C -0.0979(3) -0.1354(3) -0.4729(3)
H3B H -0.1468 -0.1645 -0.5134
C3B C -0.2881(3) 0.2046(3) -0.1324(3)
H4B H -0.2646 0.2137 -0.0721
C5B C -0.1130(4) -0.0532(3) -0.4642(3)
H6B H -0.1711 -0.0281 -0.4985
C6B C 0.0523(4) -0.1315(3) -0.3678(3)
H7B H 0.1094 -0.1580 -0.3338
C7B C -0.1703(4) 0.1854(3) -0.3327(3)
H8B H -0.2015 0.2042 -0.3918
H9B H -0.1102 0.2190 -0.3095
C8B C 0.0425(4) -0.0497(3) -0.3561(3)
H10B H 0.0929 -0.0220 -0.3154
C9B C -0.1377(5) 0.0960(3) -0.3354(4)
H11B H -0.1989 0.0633 -0.3579
H12B H -0.1084 0.0779 -0.2756
C12B C -0.2165(3) 0.2026(3) -0.1840(3)
H15B H -0.1465 0.2090 -0.1584
C14B C -0.4196(4) 0.1818(3) -0.2499(3)
H17B H -0.4899 0.1736 -0.2735
C19B C -0.3524(4) 0.1802(4) -0.3060(3)
H23B H -0.3776 0.1718 -0.3662
C22B C -0.0590(4) 0.0817(3) -0.3926(4)
H27B H 0.0063 0.1073 -0.3652
H28B H -0.0836 0.1066 -0.4501
N1B N -0.3894(3) 0.1945(2) -0.1628(2)
C25B C -0.2474(4) 0.1911(3) -0.2738(3)
N4B N -0.0160(3) -0.1755(2) -0.4256(2)
C26B C -0.0415(4) -0.0076(3) -0.4043(3)
O1B O -0.3661(2) 0.19195(19) 0.0420(2)
O2B O -0.6232(2) 0.1862(2) -0.1706(2)
O3B O -0.3037(3) 0.2519(2) 0.2184(3)
O4B O -0.8870(2) -0.00119(17) -0.0795(2)
O5B O -0.7987(2) 0.08336(19) -0.2028(2)
O6B O -0.5908(2) 0.1777(2) 0.0183(2)
H29B H -0.6259 0.1348 0.0023
H30B H -0.6013 0.2273 0.0036
O7B O -0.6793(2) 0.02342(19) -0.0438(2)
O8B O -0.4775(2) 0.0637(2) -0.0766(2)
H31B H -0.4314 0.0372 -0.0407
H32B H -0.5366 0.0513 -0.0667
O9B O -0.4459(3) 0.1279(3) 0.1690(2)
O10B O -0.2371(3) 0.09212(19) 0.1699(2)
O11B O -0.6876(3) 0.1231(3) -0.3309(3)
C1B C -0.3749(4) -0.0768(3) -0.4094(3)
H1B H -0.3653 -0.0187 -0.4152
H2B H -0.3144 -0.1040 -0.4219
C4B C -0.4285(4) -0.3236(3) -0.5324(3)
H5B H -0.3892 -0.3520 -0.5657
C10B C -0.1102(3) -0.0719(3) -0.1809(3)
H13B H -0.0440 -0.0910 -0.1817
C11B C -0.4222(4) -0.2400(3) -0.5305(3)
H14B H -0.3783 -0.2134 -0.5610
C13B C -0.5460(4) -0.3234(3) -0.4429(3)
H16B H -0.5880 -0.3516 -0.4119
C15B C -0.3014(4) -0.0159(3) -0.1809(3)
H18B H -0.3665 0.0050 -0.1790
C16B C -0.3829(4) -0.0956(3) -0.3150(3)
H19B H -0.3915 -0.1538 -0.3094
H20B H -0.4445 -0.0694 -0.3033
C17B C -0.2166(3) 0.0066(3) -0.1178(3)
H21B H -0.2261 0.0435 -0.0746
C18B C -0.1905(3) -0.0966(3) -0.2470(3)
H22B H -0.1788 -0.1313 -0.2913
C20B C -0.4732(4) -0.1042(3) -0.4787(3)
H24B H -0.5347 -0.0818 -0.4628
H25B H -0.4694 -0.0833 -0.5365
C21B C -0.5458(4) -0.2390(3) -0.4398(3)
H26B H -0.5887 -0.2118 -0.4089
N2B N -0.1211(3) -0.0213(2) -0.1147(2)
C23B C -0.4816(4) -0.1951(3) -0.4829(3)
N3B N -0.4883(3) -0.3663(2) -0.4889(2)
C24B C -0.2910(3) -0.0688(3) -0.2467(3)
Zn1_2 Zn -1.0000 0.0000 0.0000
Zn1A Zn -0.5000 -0.5000 -0.5000
Zn1A_2 Zn 0.5000 0.5000 0.5000
Zn2A Zn -0.99027(4) 0.30492(3) 0.42795(4)
Zn2C Zn -0.00973(4) -0.30492(3) -0.42795(4)
V3A V -0.22560(6) 0.33974(5) 0.25315(5)
V3C V -0.77440(6) -0.33974(5) -0.25315(5)
N3A N 0.0117(3) -0.1337(2) 0.0111(2)
N3C N -0.0117(3) 0.1337(2) -0.0111(2)
N4A N -0.5160(3) -0.3245(2) 0.0744(2)
N4C N -0.4840(3) 0.3245(2) -0.0744(2)
O3A O -0.8037(3) 0.2481(2) -0.2816(3)
O3C O -0.1963(3) -0.2481(2) 0.2816(3)
O4B_2 O 0.1130(2) -0.00119(17) -0.0795(2)
O12 O -0.3331(6) 0.0466(4) 0.3652(5)
loop_
_geom_bond_atom_site_label_1
_geom_bond_atom_site_label_2
_geom_bond_site_symmetry_1
_geom_bond_site_symmetry_2
V1 O1 1_555 1_555
V2 O4 1_555 1_555
Zn1 N2 1_555 1_555
Zn2 N1 1_555 1_555
V3 O2 1_555 1_555
C1 H1 1_555 1_555
H2 C1 1_555 1_555
C2 H3 1_555 1_555
C3 H4 1_555 1_555
C4 H5 1_555 1_555
C5 C2 1_555 1_555
H6 C5 1_555 1_555
C6 H7 1_555 1_555
C7 H8 1_555 1_555
H9 C7 1_555 1_555
C8 C6 1_555 1_555
H10 C8 1_555 1_555
C9 C7 1_555 1_555
H11 C9 1_555 1_555
H12 C9 1_555 1_555
C10 H13 1_555 1_555
C11 C4 1_555 1_555
H14 C11 1_555 1_555
C12 C3 1_555 1_555
H15 C12 1_555 1_555
C13 H16 1_555 1_555
C14 H17 1_555 1_555
C15 H18 1_555 1_555
C16 C1 1_555 1_555
H19 C16 1_555 1_555
H20 C16 1_555 1_555
C17 C15 1_555 1_555
H21 C17 1_555 1_555
C18 C10 1_555 1_555
H22 C18 1_555 1_555
C19 C14 1_555 1_555
H23 C19 1_555 1_555
C20 C1 1_555 1_555
H24 C20 1_555 1_555
H25 C20 1_555 1_555
C21 C13 1_555 1_555
H26 C21 1_555 1_555
C22 C9 1_555 1_555
H27 C22 1_555 1_555
H28 C22 1_555 1_555
N1 C3 1_555 1_555
N2 C10 1_555 1_555
C23 C11 1_555 1_555
N3 C4 1_555 1_555
C24 C15 1_555 1_555
C25 C7 1_555 1_555
N4 C2 1_555 1_555
C26 C5 1_555 1_555
O1 Zn2 1_555 1_555
O2 Zn2 1_555 1_555
O3 V1 1_555 1_555
O4 Zn1 1_555 1_555
O5 V2 1_555 1_555
O6 Zn2 1_555 1_555
H29 O6 1_555 1_555
H30 O6 1_555 1_555
O7 V2 1_555 1_555
O8 Zn2 1_555 1_555
H31 O8 1_555 1_555
H32 O8 1_555 1_555
O9 V1 1_555 1_555
O10 V1 1_555 1_555
O11 V3 1_555 1_555
V1B O1B 1_555 1_555
V2B O10 1_555 1_555
Zn2B N1B 1_555 1_555
V3B O2B 1_555 1_555
C2B H3B 1_555 1_555
C3B H4B 1_555 1_555
C5B C2B 1_555 1_555
H6B C5B 1_555 1_555
C6B H7B 1_555 1_555
C7B H8B 1_555 1_555
H9B C7B 1_555 1_555
C8B C6B 1_555 1_555
H10B C8B 1_555 1_555
C9B C7B 1_555 1_555
H11B C9B 1_555 1_555
H12B C9B 1_555 1_555
C12B C3B 1_555 1_555
H15B C12B 1_555 1_555
C14B H17B 1_555 1_555
C19B C14B 1_555 1_555
H23B C19B 1_555 1_555
C22B C9B 1_555 1_555
H27B C22B 1_555 1_555
H28B C22B 1_555 1_555
N1B C3B 1_555 1_555
C25B C7B 1_555 1_555
N4B C2B 1_555 1_555
C26B C5B 1_555 1_555
O1B Zn2B 1_555 1_555
O2B Zn2B 1_555 1_555
O3B V1B 1_555 1_555
O4B V2B 1_555 1_555
O5B V2B 1_555 1_555
O6B Zn2B 1_555 1_555
H29B O6B 1_555 1_555
H30B O6B 1_555 1_555
O7B V2B 1_555 1_555
O8B Zn2B 1_555 1_555
H31B O8B 1_555 1_555
H32B O8B 1_555 1_555
O9B V1B 1_555 1_555
O10B V2 1_555 1_555
O11B V3B 1_555 1_555
C1B H1B 1_555 1_555
H2B C1B 1_555 1_555
C4B H5B 1_555 1_555
C10B H13B 1_555 1_555
C11B C4B 1_555 1_555
H14B C11B 1_555 1_555
C13B H16B 1_555 1_555
C15B H18B 1_555 1_555
C16B C1B 1_555 1_555
H19B C16B 1_555 1_555
H20B C16B 1_555 1_555
C17B C15B 1_555 1_555
H21B C17B 1_555 1_555
C18B C10B 1_555 1_555
H22B C18B 1_555 1_555
C20B C1B 1_555 1_555
H24B C20B 1_555 1_555
H25B C20B 1_555 1_555
C21B C13B 1_555 1_555
H26B C21B 1_555 1_555
N2B Zn1 1_555 1_555
C23B C11B 1_555 1_555
N3B C4B 1_555 1_555
C24B C15B 1_555 1_555
Zn1_2 O4B 1_555 1_555
Zn1A N3B 1_555 1_555
Zn1A_2 N3 1_555 1_555
Zn2A N4 1_555 1_555
Zn2C N4B 1_555 1_555
V3A O3B 1_555 1_555
V3C O3 1_555 1_555
N3A Zn1 1_555 1_555
N3C Zn1 1_555 1_555
N4A Zn2 1_555 1_555
N4C Zn2B 1_555 1_555
O3A V3B 1_555 1_555
O3C V3 1_555 1_555
O4B_2 Zn1 1_555 1_555
V3 O5 1_555 1_555
C6 N4 1_555 1_555
C8 C26 1_555 1_555
C12 C25 1_555 1_555
C13 N3 1_555 1_555
C14 N1 1_555 1_555
C16 C24 1_555 1_555
C17 N2 1_555 1_555
C18 C24 1_555 1_555
C19 C25 1_555 1_555
C20 C23 1_555 1_555
C21 C23 1_555 1_555
C22 C26 1_555 1_555
V1B O10B 1_555 1_555
V3B O5B 1_555 1_555
C6B N4B 1_555 1_555
C8B C26B 1_555 1_555
C12B C25B 1_555 1_555
C14B N1B 1_555 1_555
C19B C25B 1_555 1_555
C22B C26B 1_555 1_555
C10B N2B 1_555 1_555
C13B N3B 1_555 1_555
C16B C24B 1_555 1_555
C17B N2B 1_555 1_555
C18B C24B 1_555 1_555
C20B C23B 1_555 1_555
C21B C23B 1_555 1_555

#END
