
#######################################################################
#
#                 Cambridge Crystallographic Data Centre
#                                CCDC 
#
#######################################################################
#
# If this CIF has been generated from an entry in the Cambridge 
# Structural Database, then it will include bibliographic, chemical, 
# crystal, experimental, refinement or atomic coordinate data resulting 
# from the CCDC's data processing and validation procedures.
#
#######################################################################

data_HUNFIH
_symmetry_cell_setting           monoclinic
_symmetry_space_group_name_H-M   'P 21/n'
_symmetry_Int_Tables_number      14
_space_group_name_Hall           '-P 2yn'
loop_
_symmetry_equiv_pos_site_id
_symmetry_equiv_pos_as_xyz
1 x,y,z
2 1/2-x,1/2+y,1/2-z
3 -x,-y,-z
4 1/2+x,1/2-y,1/2+z
_cell_length_a                   13.081(3)
_cell_length_b                   16.379(4)
_cell_length_c                   15.407(4)
_cell_angle_alpha                90
_cell_angle_beta                 102.368(5)
_cell_angle_gamma                90
_cell_volume                     3224.4
loop_
_atom_site_label
_atom_site_type_symbol
_atom_site_fract_x
_atom_site_fract_y
_atom_site_fract_z
Ni1 Ni 0.48884(3) 0.30586(2) 0.57391(2)
Ni2 Ni 0.0000 0.5000 0.5000
V1 V 0.34094(4) 0.33234(3) 0.35453(3)
V2 V 0.27631(4) 0.65855(3) 0.25152(3)
V3 V 0.21851(4) 0.50397(3) 0.37800(3)
O1 O 0.11347(15) 0.49888(11) 0.42107(12)
O2 O 0.5917(2) 0.31690(17) 0.48587(18)
H1 H 0.559(3) 0.332(2) 0.436(2)
O3 O 0.20195(16) 0.58293(11) 0.29693(13)
O4 O 0.47952(19) 0.43386(13) 0.57782(16)
H2 H 0.522(3) 0.454(2) 0.576(2)
H3 H 0.428(3) 0.460(2) 0.539(2)
O5 O 0.32286(16) 0.52339(12) 0.45662(13)
O6 O 0.62118(17) 0.31387(12) 0.67173(13)
O7 O 0.3161(2) 0.61948(18) 0.16844(16)
O8 O 0.23726(18) 0.40738(12) 0.33093(13)
O9 O 0.3033(2) 0.24596(14) 0.28597(17)
O10 O 0.36682(16) 0.30945(12) 0.46192(13)
O11 O 0.44761(19) 0.36896(17) 0.33248(15)
N1 N 0.01124(19) 0.36893(14) 0.51236(15)
N2 N 0.38089(19) 0.02037(13) 0.88675(14)
N3 N 0.01578(19) 0.67877(14) 0.92433(15)
N4 N 0.38962(19) 0.30581(14) 0.66265(15)
C1 C 0.3926(2) 0.07092(17) 0.82090(18)
H4 H 0.4594 0.0896 0.8198
C2 C 0.0179(2) 0.19754(17) 0.51764(19)
C3 C 0.2471(2) 0.30951(17) 0.77491(19)
C4 C 0.4216(2) 0.3197(2) 0.7497(2)
H5 H 0.4925 0.3286 0.7728
C5 C -0.0545(3) 0.63502(19) 0.8679(2)
H6 H -0.1127 0.6617 0.8346
C6 C 0.2163(2) 0.29613(18) 0.6849(2)
H7 H 0.1458 0.2883 0.6595
C7 C 0.0765(2) 0.24181(17) 0.46991(19)
H8 H 0.1198 0.2149 0.4386
C8 C -0.0451(3) 0.55175(19) 0.8565(2)
H9 H -0.0965 0.5238 0.8164
C9 C -0.0463(2) 0.32597(17) 0.5585(2)
H10 H -0.0884 0.3543 0.5898
C10 C 0.2850(2) -0.00720(17) 0.88435(18)
H11 H 0.2755 -0.0437 0.9282
C11 C 0.2095(2) 0.06882(17) 0.75405(18)
C12 C 0.3104(2) 0.09623(18) 0.75519(19)
H12 H 0.3222 0.1318 0.7113
C13 C 0.0268(3) 0.10586(17) 0.5226(2)
H13 H 0.0303 0.0846 0.4645
H14 H -0.0352 0.0835 0.5387
C14 C 0.1988(2) 0.01517(18) 0.82060(19)
H15 H 0.1333 -0.0059 0.8224
C15 C 0.3529(3) 0.3213(2) 0.8066(2)
H16 H 0.3784 0.3304 0.8670
C16 C 0.0713(2) 0.32570(17) 0.46843(18)
H17 H 0.1114 0.3539 0.4353
C17 C 0.1151(2) 0.0948(2) 0.6865(2)
H18 H 0.0543 0.0661 0.6977
H19 H 0.1038 0.1527 0.6934
C18 C 0.1246(3) 0.07824(18) 0.5911(2)
H20 H 0.1353 0.0202 0.5839
H21 H 0.1854 0.1067 0.5798
C19 C 0.0975(2) 0.63795(18) 0.97196(19)
H22 H 0.1471 0.6668 1.0128
C20 C 0.0396(3) 0.51019(18) 0.9039(2)
C21 C 0.1115(2) 0.55524(19) 0.9633(2)
H23 H 0.1698 0.5297 0.9976
C22 C -0.0463(3) 0.24141(18) 0.5619(2)
H24 H -0.0890 0.2142 0.5936
C23 C 0.1695(3) 0.31666(18) 0.8332(2)
H25 H 0.2009 0.2982 0.8928
H26 H 0.1090 0.2827 0.8102
C24 C 0.2880(2) 0.29429(18) 0.63262(19)
H27 H 0.2643 0.2843 0.5722
C25 C 0.1361(3) 0.40553(19) 0.8356(2)
H28 H 0.1975 0.4386 0.8583
H29 H 0.1066 0.4234 0.7755
C26 C 0.0562(3) 0.42021(19) 0.8926(2)
H30 H -0.0097 0.3949 0.8648
H31 H 0.0804 0.3952 0.9504
H32 H 0.617(3) 0.348(2) 0.502(3)
Ni1B Ni -0.48884(3) 0.69414(2) 0.42609(2)
V1B V -0.34094(4) 0.66766(3) 0.64547(3)
V2B V -0.27631(4) 0.34145(3) 0.74848(3)
V3B V -0.21851(4) 0.49603(3) 0.62200(3)
O1B O -0.11347(15) 0.50112(11) 0.57893(12)
O2B O -0.5917(2) 0.68310(17) 0.51413(18)
H1B H -0.559(3) 0.668(2) 0.564(2)
O3B O -0.20195(16) 0.41707(11) 0.70307(13)
O4B O -0.47952(19) 0.56614(13) 0.42218(16)
H2B H -0.522(3) 0.546(2) 0.424(2)
H3B H -0.428(3) 0.540(2) 0.461(2)
O5B O -0.32286(16) 0.47661(12) 0.54338(13)
O6B O -0.62118(17) 0.68613(12) 0.32827(13)
O7B O -0.3161(2) 0.38052(18) 0.83156(16)
O8B O -0.23726(18) 0.59262(12) 0.66907(13)
O9B O -0.3033(2) 0.75404(14) 0.71403(17)
O10B O -0.36682(16) 0.69055(12) 0.53808(13)
O11B O -0.44761(19) 0.63104(17) 0.66752(15)
N1B N -0.01124(19) 0.63107(14) 0.48764(15)
N2B N -0.38089(19) 0.97963(13) 0.11325(14)
N3B N -0.01578(19) 0.32123(14) 0.07567(15)
N4B N -0.38962(19) 0.69419(14) 0.33735(15)
C1B C -0.3926(2) 0.92908(17) 0.17910(18)
H4B H -0.4594 0.9104 0.1802
C2B C -0.0179(2) 0.80246(17) 0.48236(19)
C3B C -0.2471(2) 0.69049(17) 0.22509(19)
C4B C -0.4216(2) 0.6803(2) 0.2503(2)
H5B H -0.4925 0.6714 0.2272
C5B C 0.0545(3) 0.36498(19) 0.1321(2)
H6B H 0.1127 0.3383 0.1654
C6B C -0.2163(2) 0.70387(18) 0.3151(2)
H7B H -0.1458 0.7117 0.3405
C7B C -0.0765(2) 0.75819(17) 0.53009(19)
H8B H -0.1198 0.7851 0.5614
C8B C 0.0451(3) 0.44825(19) 0.1435(2)
H9B H 0.0965 0.4762 0.1836
C9B C 0.0463(2) 0.67403(17) 0.4415(2)
H10B H 0.0884 0.6457 0.4102
C10B C -0.2850(2) 1.00720(17) 0.11565(18)
H11B H -0.2755 1.0437 0.0718
C11B C -0.2095(2) 0.93118(17) 0.24595(18)
C12B C -0.3104(2) 0.90377(18) 0.24481(19)
H12B H -0.3222 0.8682 0.2887
C13B C -0.0268(3) 0.89414(17) 0.4774(2)
H13B H -0.0303 0.9154 0.5355
H14B H 0.0352 0.9165 0.4613
C14B C -0.1988(2) 0.98483(18) 0.17940(19)
H15B H -0.1333 1.0059 0.1776
C15B C -0.3529(3) 0.6787(2) 0.1934(2)
H16B H -0.3784 0.6696 0.1330
C16B C -0.0713(2) 0.67430(17) 0.53157(18)
H17B H -0.1114 0.6461 0.5647
C17B C -0.1151(2) 0.9052(2) 0.3135(2)
H18B H -0.0543 0.9339 0.3023
H19B H -0.1038 0.8473 0.3066
C18B C -0.1246(3) 0.92176(18) 0.4089(2)
H20B H -0.1353 0.9798 0.4161
H21B H -0.1854 0.8933 0.4202
C19B C -0.0975(2) 0.36205(18) 0.02804(19)
H22B H -0.1471 0.3332 -0.0128
C20B C -0.0396(3) 0.48981(18) 0.0961(2)
C21B C -0.1115(2) 0.44476(19) 0.0367(2)
H23B H -0.1698 0.4703 0.0024
C22B C 0.0463(3) 0.75859(18) 0.4381(2)
H24B H 0.0890 0.7858 0.4064
C23B C -0.1695(3) 0.68334(18) 0.1668(2)
H25B H -0.2009 0.7018 0.1072
H26B H -0.1090 0.7173 0.1898
C24B C -0.2880(2) 0.70571(18) 0.36738(19)
H27B H -0.2643 0.7157 0.4278
C25B C -0.1361(3) 0.59447(19) 0.1644(2)
H28B H -0.1975 0.5614 0.1417
H29B H -0.1066 0.5766 0.2245
C26B C -0.0562(3) 0.57979(19) 0.1074(2)
H30B H 0.0097 0.6051 0.1352
H31B H -0.0804 0.6048 0.0496
H32B H -0.617(3) 0.652(2) 0.498(3)
Ni1A Ni 0.01116(3) 0.80586(2) 0.92609(2)
Ni1C Ni -0.01116(3) 0.19414(2) 0.07391(2)
Ni2A Ni -0.5000 1.0000 0.0000
Ni2A_2 Ni 0.5000 0.0000 1.0000
V2_2 V -0.72369(4) 0.65855(3) 0.25152(3)
V2A V 0.22369(4) 0.15855(3) 0.24848(3)
V2B_2 V 0.72369(4) 0.34145(3) 0.74848(3)
V2C V -0.22369(4) 0.84145(3) 0.75152(3)
O6_2 O -0.37882(17) 0.31387(12) 0.67173(13)
O6B_2 O 0.37882(17) 0.68613(12) 0.32827(13)
O9A O 0.1967(2) 0.74596(14) 0.21403(17)
O9C O -0.1967(2) 0.25404(14) 0.78597(17)
N2A N 0.11911(19) 0.52037(13) 0.61325(14)
N2C N -0.11911(19) 0.47963(13) 0.38675(14)
N3A N 0.48422(19) 0.17877(14) 0.57567(15)
N3C N -0.48422(19) 0.82123(14) 0.42433(15)
O12 O 0.3284(4) 0.4495(3) 0.1335(3)
loop_
_geom_bond_atom_site_label_1
_geom_bond_atom_site_label_2
_geom_bond_site_symmetry_1
_geom_bond_site_symmetry_2
Ni1 O2 1_555 1_555
Ni2 O1 1_555 1_555
V1 O8 1_555 1_555
V2 O3 1_555 1_555
V3 O1 1_555 1_555
O2 H1 1_555 1_555
O3 V3 1_555 1_555
O4 Ni1 1_555 1_555
H2 O4 1_555 1_555
H3 O4 1_555 1_555
O5 V3 1_555 1_555
O6 Ni1 1_555 1_555
O7 V2 1_555 1_555
O8 V3 1_555 1_555
O9 V1 1_555 1_555
O10 Ni1 1_555 1_555
O11 V1 1_555 1_555
N1 Ni2 1_555 1_555
N2 C1 1_555 1_555
N3 C5 1_555 1_555
N4 Ni1 1_555 1_555
C1 H4 1_555 1_555
C2 C7 1_555 1_555
C3 C6 1_555 1_555
C4 N4 1_555 1_555
H5 C4 1_555 1_555
C5 H6 1_555 1_555
C6 H7 1_555 1_555
C7 H8 1_555 1_555
C8 C5 1_555 1_555
H9 C8 1_555 1_555
C9 N1 1_555 1_555
H10 C9 1_555 1_555
C10 N2 1_555 1_555
H11 C10 1_555 1_555
C11 C12 1_555 1_555
C12 C1 1_555 1_555
H12 C12 1_555 1_555
C13 C2 1_555 1_555
H13 C13 1_555 1_555
H14 C13 1_555 1_555
C14 C10 1_555 1_555
H15 C14 1_555 1_555
C15 C3 1_555 1_555
H16 C15 1_555 1_555
C16 N1 1_555 1_555
H17 C16 1_555 1_555
C17 C11 1_555 1_555
H18 C17 1_555 1_555
H19 C17 1_555 1_555
C18 C13 1_555 1_555
H20 C18 1_555 1_555
H21 C18 1_555 1_555
C19 N3 1_555 1_555
H22 C19 1_555 1_555
C20 C8 1_555 1_555
C21 C19 1_555 1_555
H23 C21 1_555 1_555
C22 C2 1_555 1_555
H24 C22 1_555 1_555
C23 C3 1_555 1_555
H25 C23 1_555 1_555
H26 C23 1_555 1_555
C24 N4 1_555 1_555
H27 C24 1_555 1_555
C25 C23 1_555 1_555
H28 C25 1_555 1_555
H29 C25 1_555 1_555
C26 C20 1_555 1_555
H30 C26 1_555 1_555
H31 C26 1_555 1_555
H32 O2 1_555 1_555
Ni1B O2B 1_555 1_555
V1B O8B 1_555 1_555
V2B O3B 1_555 1_555
V3B O1B 1_555 1_555
O1B Ni2 1_555 1_555
O2B H1B 1_555 1_555
O3B V3B 1_555 1_555
O4B Ni1B 1_555 1_555
H2B O4B 1_555 1_555
H3B O4B 1_555 1_555
O5B V3B 1_555 1_555
O6B Ni1B 1_555 1_555
O7B V2B 1_555 1_555
O8B V3B 1_555 1_555
O9B V1B 1_555 1_555
O10B Ni1B 1_555 1_555
O11B V1B 1_555 1_555
N1B Ni2 1_555 1_555
N2B C1B 1_555 1_555
N3B C5B 1_555 1_555
N4B Ni1B 1_555 1_555
C1B H4B 1_555 1_555
C2B C7B 1_555 1_555
C3B C6B 1_555 1_555
C4B N4B 1_555 1_555
H5B C4B 1_555 1_555
C5B H6B 1_555 1_555
C6B H7B 1_555 1_555
C7B H8B 1_555 1_555
C8B C5B 1_555 1_555
H9B C8B 1_555 1_555
C9B N1B 1_555 1_555
H10B C9B 1_555 1_555
C10B N2B 1_555 1_555
H11B C10B 1_555 1_555
C11B C12B 1_555 1_555
C12B C1B 1_555 1_555
H12B C12B 1_555 1_555
C13B C2B 1_555 1_555
H13B C13B 1_555 1_555
H14B C13B 1_555 1_555
C14B C10B 1_555 1_555
H15B C14B 1_555 1_555
C15B C3B 1_555 1_555
H16B C15B 1_555 1_555
C16B N1B 1_555 1_555
H17B C16B 1_555 1_555
C17B C11B 1_555 1_555
H18B C17B 1_555 1_555
H19B C17B 1_555 1_555
C18B C13B 1_555 1_555
H20B C18B 1_555 1_555
H21B C18B 1_555 1_555
C19B N3B 1_555 1_555
H22B C19B 1_555 1_555
C20B C8B 1_555 1_555
C21B C19B 1_555 1_555
H23B C21B 1_555 1_555
C22B C2B 1_555 1_555
H24B C22B 1_555 1_555
C23B C3B 1_555 1_555
H25B C23B 1_555 1_555
H26B C23B 1_555 1_555
C24B N4B 1_555 1_555
H27B C24B 1_555 1_555
C25B C23B 1_555 1_555
H28B C25B 1_555 1_555
H29B C25B 1_555 1_555
C26B C20B 1_555 1_555
H30B C26B 1_555 1_555
H31B C26B 1_555 1_555
H32B O2B 1_555 1_555
Ni1A N3 1_555 1_555
Ni1C N3B 1_555 1_555
Ni2A N2B 1_555 1_555
Ni2A_2 N2 1_555 1_555
V2_2 O6B 1_555 1_555
V2A O9 1_555 1_555
V2B_2 O6 1_555 1_555
V2C O9B 1_555 1_555
O6_2 V2B 1_555 1_555
O6B_2 V2 1_555 1_555
O9A V2 1_555 1_555
O9C V2B 1_555 1_555
N2A Ni2 1_555 1_555
N2C Ni2 1_555 1_555
N3A Ni1 1_555 1_555
N3C Ni1B 1_555 1_555
V1 O10 1_555 1_555
C4 C15 1_555 1_555
C6 C24 1_555 1_555
C7 C16 1_555 1_555
C9 C22 1_555 1_555
C11 C14 1_555 1_555
C17 C18 1_555 1_555
C20 C21 1_555 1_555
C25 C26 1_555 1_555
V1B O10B 1_555 1_555
C4B C15B 1_555 1_555
C6B C24B 1_555 1_555
C7B C16B 1_555 1_555
C9B C22B 1_555 1_555
C11B C14B 1_555 1_555
C17B C18B 1_555 1_555
C20B C21B 1_555 1_555
C25B C26B 1_555 1_555

#END
