
#######################################################################
#
#                 Cambridge Crystallographic Data Centre
#                                CCDC 
#
#######################################################################
#
# If this CIF has been generated from an entry in the Cambridge 
# Structural Database, then it will include bibliographic, chemical, 
# crystal, experimental, refinement or atomic coordinate data resulting 
# from the CCDC's data processing and validation procedures.
#
#######################################################################

data_HUNFAZ
_symmetry_cell_setting           tetragonal
_symmetry_space_group_name_H-M   'I 41/a'
_symmetry_Int_Tables_number      88
_space_group_name_Hall           '-I 4ad'
loop_
_symmetry_equiv_pos_site_id
_symmetry_equiv_pos_as_xyz
1 x,y,z
2 1/2-x,-y,1/2+z
3 3/4-y,1/4+x,1/4+z
4 3/4+y,3/4-x,3/4+z
5 1/2+x,1/2+y,1/2+z
6 -x,1/2-y,z
7 1/4-y,3/4+x,3/4+z
8 1/4+y,1/4-x,1/4+z
9 -x,-y,-z
10 1/2+x,y,1/2-z
11 1/4+y,3/4-x,3/4-z
12 1/4-y,1/4+x,1/4-z
13 1/2-x,1/2-y,1/2-z
14 x,1/2+y,-z
15 3/4+y,1/4-x,1/4-z
16 3/4-y,3/4+x,3/4-z
_cell_length_a                   21.5654(11)
_cell_length_b                   21.5654(11)
_cell_length_c                   13.0149(8)
_cell_angle_alpha                90
_cell_angle_beta                 90
_cell_angle_gamma                90
_cell_volume                     6052.79
loop_
_atom_site_label
_atom_site_type_symbol
_atom_site_fract_x
_atom_site_fract_y
_atom_site_fract_z
Mn1 Mn 0.5000 1.0000 0.0000
V1 V 0.50188(3) 0.86005(3) 0.15698(5)
C1 C 0.9629(2) 1.02860(19) 0.2745(3)
H1 H 0.9823 0.9894 0.2656
C2 C 0.9363(2) 1.0569(2) 0.1903(3)
H2 H 0.9382 1.0369 0.1253
C3 C 0.90723(19) 1.1131(2) 0.1985(3)
C4 C 0.9079(2) 1.1401(2) 0.2944(4)
H3 H 0.8894 1.1796 0.3046
C5 C 0.9356(2) 1.1096(2) 0.3759(4)
H4 H 0.9354 1.1293 0.4412
C6 C 0.63757(18) 0.97798(19) 0.0643(3)
H5 H 0.6251 0.9357 0.0621
C7 C 0.69886(19) 0.99140(19) 0.0849(3)
H6 H 0.7275 0.9586 0.0961
C8 C 0.71883(18) 1.05210(19) 0.0893(3)
C9 C 0.67394(19) 1.0976(2) 0.0750(3)
H7 H 0.6848 1.1402 0.0801
C10 C 0.61379(19) 1.08077(19) 0.0533(3)
H8 H 0.5842 1.1126 0.0420
C11 C 0.78676(19) 1.0662(2) 0.1087(4)
H9 H 0.7980 1.0490 0.1767
H10 H 0.8116 1.0438 0.0565
C12 C 0.8758(2) 1.1432(2) 0.1080(4)
H11 H 0.8937 1.1263 0.0438
H12 H 0.8843 1.1883 0.1094
N1 N 0.96261(15) 1.05393(14) 0.3682(3)
N2 N 0.59493(15) 1.02180(15) 0.0474(2)
O1 O 0.50205(12) 0.92422(11) 0.0878(2)
O2 O 0.50474(18) 0.87821(17) 0.2772(2)
O3 O 0.43326(14) 0.81807(15) 0.1297(3)
C13 C 0.8057(2) 1.1332(2) 0.1066(4)
H13 H 0.7873 1.1544 0.1667
H14 H 0.7885 1.1527 0.0440
V1H V 0.49812(3) 1.13995(3) -0.15698(5)
C1H C 0.0371(2) 0.97140(19) -0.2745(3)
H1H H 0.0177 1.0106 -0.2656
C2H C 0.0637(2) 0.9431(2) -0.1903(3)
H2H H 0.0618 0.9631 -0.1253
C3H C 0.09277(19) 0.8869(2) -0.1985(3)
C4H C 0.0921(2) 0.8599(2) -0.2944(4)
H3H H 0.1106 0.8204 -0.3046
C5H C 0.0644(2) 0.8904(2) -0.3759(4)
H4H H 0.0646 0.8707 -0.4412
C6H C 0.36243(18) 1.02202(19) -0.0643(3)
H5H H 0.3749 1.0643 -0.0621
C7H C 0.30114(19) 1.00860(19) -0.0849(3)
H6H H 0.2725 1.0414 -0.0961
C8H C 0.28117(18) 0.94790(19) -0.0893(3)
C9H C 0.32606(19) 0.9024(2) -0.0750(3)
H7H H 0.3152 0.8598 -0.0801
C10H C 0.38621(19) 0.91923(19) -0.0533(3)
H8H H 0.4158 0.8874 -0.0420
C11H C 0.21324(19) 0.9338(2) -0.1087(4)
H9H H 0.2020 0.9510 -0.1767
H10H H 0.1884 0.9562 -0.0565
C12H C 0.1242(2) 0.8568(2) -0.1080(4)
H11H H 0.1063 0.8737 -0.0438
H12H H 0.1157 0.8117 -0.1094
N1H N 0.03739(15) 0.94607(14) -0.3682(3)
N2H N 0.40507(15) 0.97820(15) -0.0474(2)
O1H O 0.49795(12) 1.07578(11) -0.0878(2)
O2H O 0.49526(18) 1.12179(17) -0.2772(2)
O3H O 0.56674(14) 1.18193(15) -0.1297(3)
C13H C 0.1943(2) 0.8668(2) -0.1066(4)
H13H H 0.2127 0.8456 -0.1667
H14H H 0.2115 0.8473 -0.0440
Mn1A Mn 0.0000 1.0000 -0.5000
Mn1A_2 Mn 1.0000 1.0000 0.5000
V1C V 0.61005(3) 1.24812(3) -0.09302(5)
V1K V 0.38995(3) 0.75188(3) 0.09302(5)
N1A N 0.53739(15) 0.94607(14) -0.1318(3)
N1I N 0.46261(15) 1.05393(14) 0.1318(3)
O3F O 0.43193(15) 1.18326(14) -0.1203(3)
O3N O 0.56807(15) 0.81674(14) 0.1203(3)
loop_
_geom_bond_atom_site_label_1
_geom_bond_atom_site_label_2
_geom_bond_site_symmetry_1
_geom_bond_site_symmetry_2
Mn1 N2 1_555 1_555
V1 O1 1_555 1_555
C1 H1 1_555 1_555
C2 C1 1_555 1_555
H2 C2 1_555 1_555
C3 C2 1_555 1_555
C4 C3 1_555 1_555
H3 C4 1_555 1_555
C5 C4 1_555 1_555
H4 C5 1_555 1_555
C6 H5 1_555 1_555
C7 C6 1_555 1_555
H6 C7 1_555 1_555
C8 C7 1_555 1_555
C9 C8 1_555 1_555
H7 C9 1_555 1_555
C10 C9 1_555 1_555
H8 C10 1_555 1_555
C11 C8 1_555 1_555
H9 C11 1_555 1_555
H10 C11 1_555 1_555
C12 C3 1_555 1_555
H11 C12 1_555 1_555
H12 C12 1_555 1_555
N1 C1 1_555 1_555
N2 C6 1_555 1_555
O1 Mn1 1_555 1_555
O2 V1 1_555 1_555
O3 V1 1_555 1_555
C13 C11 1_555 1_555
H13 C13 1_555 1_555
H14 C13 1_555 1_555
V1H O1H 1_555 1_555
C1H H1H 1_555 1_555
C2H C1H 1_555 1_555
H2H C2H 1_555 1_555
C3H C2H 1_555 1_555
C4H C3H 1_555 1_555
H3H C4H 1_555 1_555
C5H C4H 1_555 1_555
H4H C5H 1_555 1_555
C6H H5H 1_555 1_555
C7H C6H 1_555 1_555
H6H C7H 1_555 1_555
C8H C7H 1_555 1_555
C9H C8H 1_555 1_555
H7H C9H 1_555 1_555
C10H C9H 1_555 1_555
H8H C10H 1_555 1_555
C11H C8H 1_555 1_555
H9H C11H 1_555 1_555
H10H C11H 1_555 1_555
C12H C3H 1_555 1_555
H11H C12H 1_555 1_555
H12H C12H 1_555 1_555
N1H C1H 1_555 1_555
N2H Mn1 1_555 1_555
O1H Mn1 1_555 1_555
O2H V1H 1_555 1_555
O3H V1H 1_555 1_555
C13H C11H 1_555 1_555
H13H C13H 1_555 1_555
H14H C13H 1_555 1_555
Mn1A N1H 1_555 1_555
Mn1A_2 N1 1_555 1_555
V1C O3H 1_555 1_555
V1K O3 1_555 1_555
N1A Mn1 1_555 1_555
N1I Mn1 1_555 1_555
O3F V1H 1_555 1_555
O3N V1 1_555 1_555
C5 N1 1_555 1_555
C10 N2 1_555 1_555
C12 C13 1_555 1_555
C5H N1H 1_555 1_555
C6H N2H 1_555 1_555
C10H N2H 1_555 1_555
C12H C13H 1_555 1_555

#END
