
#######################################################################
#
#                 Cambridge Crystallographic Data Centre
#                                CCDC 
#
#######################################################################
#
# If this CIF has been generated from an entry in the Cambridge 
# Structural Database, then it will include bibliographic, chemical, 
# crystal, experimental, refinement or atomic coordinate data resulting 
# from the CCDC's data processing and validation procedures.
#
#######################################################################

data_HUNGAA
_symmetry_cell_setting           triclinic
_symmetry_space_group_name_H-M   'P -1'
_symmetry_Int_Tables_number      2
_space_group_name_Hall           '-P 1'
loop_
_symmetry_equiv_pos_site_id
_symmetry_equiv_pos_as_xyz
1 x,y,z
2 -x,-y,-z
_cell_length_a                   6.0359(6)
_cell_length_b                   8.0803(8)
_cell_length_c                   16.5511(15)
_cell_angle_alpha                93.878(2)
_cell_angle_beta                 95.2730(10)
_cell_angle_gamma                102.285(2)
_cell_volume                     782.246
loop_
_atom_site_label
_atom_site_type_symbol
_atom_site_fract_x
_atom_site_fract_y
_atom_site_fract_z
Sr1 Sr 0.20131(6) 0.34703(5) 0.43517(2)
P1 P -0.23817(15) 0.47065(12) 0.33911(5)
P2 P 0.34660(16) 0.96006(13) 0.32961(6)
O1 O -0.0804(4) 0.3581(4) 0.31142(15)
O2 O -0.1354(4) 0.5730(4) 0.41861(15)
O3 O -0.4831(4) 0.3729(3) 0.33913(15)
O4 O 0.3933(5) 1.0812(4) 0.26034(15)
H1 H 0.4856 1.1728 0.2800
O5 O 0.5559(4) 0.8993(4) 0.35929(15)
H2 H 0.6560 0.9833 0.3827
O6 O 0.2256(4) 1.0365(4) 0.39331(16)
O7 O -0.2437(6) 0.5371(5) -0.1594(2)
O8 O 0.0880(5) 0.7229(4) -0.15774(17)
H3 H 0.0795 0.6835 -0.2052
O9 O 0.5679(4) 0.3366(3) 0.53191(15)
H4 H 0.6178 0.2502 0.5166
H5 H 0.5337 0.3294 0.5804
O10 O -0.1605(4) 0.1377(4) 0.47019(16)
H6 H -0.1266 0.0437 0.4802
H7 H -0.2087 0.1798 0.5118
N1 N -0.0954(5) 0.7862(4) 0.27280(18)
C1 C -0.2608(6) 0.6167(5) 0.2596(2)
H8 H -0.2401 0.5608 0.2080
H9 H -0.4143 0.6365 0.2550
C2 C 0.1489(2) 0.76949(18) 0.28125(8)
H10 H 0.1921 0.7438 0.2276
H11 H 0.1617 0.6747 0.3130
C3 C -0.1393(2) 0.90388(18) 0.20816(8)
H12 H -0.2908 0.9251 0.2110
H13 H -0.0308 1.0119 0.2207
C4 C -0.1220(2) 0.83639(18) 0.12211(8)
C5 C -0.3160(2) 0.74581(18) 0.07384(8)
H14 H -0.4557 0.7254 0.0951
C6 C -0.3041(2) 0.68552(18) -0.00591(8)
H15 H -0.4345 0.6237 -0.0376
C7 C -0.0955(2) 0.71769(18) -0.03837(8)
C8 C 0.0955(2) 0.80867(18) 0.00866(8)
H16 H 0.2345 0.8295 -0.0131
C9 C 0.0853(2) 0.87064(18) 0.08850(8)
H17 H 0.2158 0.9343 0.1194
C10 C -0.0943(2) 0.64884(18) -0.12452(8)
Sr1_2 Sr -0.79869(6) 0.34703(5) 0.43517(2)
Sr1_3 Sr 0.20131(6) 1.34703(5) 0.43517(2)
Sr1A Sr -0.20131(6) 0.65297(5) 0.56483(2)
Sr1A_2 Sr 0.79869(6) 0.65297(5) 0.56483(2)
O2A O 0.1354(4) 0.4270(4) 0.58139(15)
O3_2 O 0.5169(4) 0.3729(3) 0.33913(15)
O6_2 O 0.2256(4) 0.0365(4) 0.39331(16)
O9A O 0.4321(4) 0.6634(3) 0.46809(15)
loop_
_geom_bond_atom_site_label_1
_geom_bond_atom_site_label_2
_geom_bond_site_symmetry_1
_geom_bond_site_symmetry_2
Sr1 O1 1_555 1_555
P1 O1 1_555 1_555
P2 O4 1_555 1_555
O2 Sr1 1_555 1_555
O3 P1 1_555 1_555
O4 H1 1_555 1_555
O5 P2 1_555 1_555
H2 O5 1_555 1_555
O6 P2 1_555 1_555
O7 C10 1_555 1_555
O8 H3 1_555 1_555
O9 Sr1 1_555 1_555
H4 O9 1_555 1_555
H5 O9 1_555 1_555
O10 Sr1 1_555 1_555
H6 O10 1_555 1_555
H7 O10 1_555 1_555
N1 C1 1_555 1_555
C1 P1 1_555 1_555
H8 C1 1_555 1_555
H9 C1 1_555 1_555
C2 P2 1_555 1_555
H10 C2 1_555 1_555
H11 C2 1_555 1_555
C3 N1 1_555 1_555
H12 C3 1_555 1_555
H13 C3 1_555 1_555
C4 C3 1_555 1_555
C5 C4 1_555 1_555
H14 C5 1_555 1_555
C6 C5 1_555 1_555
H15 C6 1_555 1_555
C7 C6 1_555 1_555
C8 C7 1_555 1_555
H16 C8 1_555 1_555
C9 C4 1_555 1_555
H17 C9 1_555 1_555
C10 O8 1_555 1_555
Sr1_2 O3 1_555 1_555
Sr1_3 O6 1_555 1_555
Sr1A O2 1_555 1_555
Sr1A_2 O9 1_555 1_555
O2A Sr1 1_555 1_555
O3_2 Sr1 1_555 1_555
O6_2 Sr1 1_555 1_555
O9A Sr1 1_555 1_555
P1 O2 1_555 1_555
N1 C2 1_555 1_555
C7 C10 1_555 1_555
C8 C9 1_555 1_555
Sr1A O2A 1_555 1_555
Sr1A_2 O9A 1_555 1_555

#END
