
#######################################################################
#
#                 Cambridge Crystallographic Data Centre
#                                CCDC 
#
#######################################################################
#
# If this CIF has been generated from an entry in the Cambridge 
# Structural Database, then it will include bibliographic, chemical, 
# crystal, experimental, refinement or atomic coordinate data resulting 
# from the CCDC's data processing and validation procedures.
#
#######################################################################

data_HUNGEE
_symmetry_cell_setting           triclinic
_symmetry_space_group_name_H-M   'P -1'
_symmetry_Int_Tables_number      2
_space_group_name_Hall           '-P 1'
loop_
_symmetry_equiv_pos_site_id
_symmetry_equiv_pos_as_xyz
1 x,y,z
2 -x,-y,-z
_cell_length_a                   6.9927(4)
_cell_length_b                   8.0857(5)
_cell_length_c                   14.2010(9)
_cell_angle_alpha                101.0160(10)
_cell_angle_beta                 95.0910(10)
_cell_angle_gamma                101.3240(10)
_cell_volume                     766.12
loop_
_atom_site_label
_atom_site_type_symbol
_atom_site_fract_x
_atom_site_fract_y
_atom_site_fract_z
Ca1 Ca 0.58738(6) 0.73463(5) 0.38420(3)
P1 P 1.32416(8) 0.29289(7) 0.35862(4)
P2 P 1.07284(7) 0.72289(7) 0.32857(4)
O1 O 1.3057(3) 0.1352(2) 0.27178(12)
O2 O 1.4585(2) 0.4419(2) 0.33372(12)
O3 O 1.3767(2) 0.2449(2) 0.45220(11)
O4 O 1.0528(2) 0.8537(2) 0.26476(12)
H1 H 0.9376 0.8137 0.2343
O5 O 1.2663(2) 0.77408(19) 0.39362(11)
O6 O 0.8935(2) 0.6772(2) 0.37785(12)
O7 O 0.4511(3) 0.2455(3) -0.21660(12)
O8 O 0.2089(2) 0.2193(3) -0.12435(12)
O9 O 0.6784(2) 1.0450(2) 0.41710(12)
H2 H 0.5808 1.0863 0.4338
H3 H 0.7737 1.0803 0.4627
N1 N 0.9638(3) 0.3691(2) 0.27765(13)
C1 C 1.0771(3) 0.3348(3) 0.36592(15)
H4 H 0.9972 0.2364 0.3841
H5 H 1.0879 0.4335 0.4186
C2 C 1.0680(3) 0.5215(3) 0.24130(15)
H6 H 1.0003 0.5239 0.1791
H7 H 1.2014 0.5107 0.2327
C3 C 0.9006(4) 0.2060(3) 0.19859(17)
H8 H 1.0169 0.1701 0.1773
H9 H 0.8280 0.1147 0.2253
C4 C 0.7739(3) 0.2291(3) 0.11225(16)
C5 C 0.5919(4) 0.2679(4) 0.12132(18)
H10 H 0.5514 0.2898 0.1822
C6 C 0.4696(4) 0.2745(4) 0.04113(18)
H11 H 0.3466 0.2991 0.0482
C7 C 0.7143(4) 0.2131(4) -0.05893(18)
H12 H 0.7577 0.1969 -0.1194
C8 C 0.8363(4) 0.2054(4) 0.02205(18)
H13 H 0.9610 0.1841 0.0155
C9 C 0.5293(3) 0.2448(3) -0.05020(16)
C10 C 0.3923(3) 0.2382(3) -0.13853(16)
H14 H 1.240(5) 0.054(4) 0.277(2)
H15 H 0.858(5) 0.414(4) 0.301(2)
Ca1_2 Ca 1.58738(6) 0.73463(5) 0.38420(3)
Ca1A Ca 0.41262(6) 0.26537(5) -0.38420(3)
Ca1A_2 Ca 1.41262(6) 0.26537(5) 0.61580(3)
O2_2 O 0.4585(2) 0.4419(2) 0.33372(12)
O3A O 0.6233(2) 0.7551(2) 0.54780(11)
O5_2 O 0.2663(2) 0.77408(19) 0.39362(11)
O7A O 0.5489(3) 0.7545(3) 0.21660(12)
loop_
_geom_bond_atom_site_label_1
_geom_bond_atom_site_label_2
_geom_bond_site_symmetry_1
_geom_bond_site_symmetry_2
Ca1 O6 1_555 1_555
P1 O1 1_555 1_555
P2 O4 1_555 1_555
O1 H14 1_555 1_555
O2 P1 1_555 1_555
O3 P1 1_555 1_555
O4 H1 1_555 1_555
O5 P2 1_555 1_555
O6 P2 1_555 1_555
O7 C10 1_555 1_555
O8 C10 1_555 1_555
O9 Ca1 1_555 1_555
H2 O9 1_555 1_555
H3 O9 1_555 1_555
N1 C1 1_555 1_555
C1 P1 1_555 1_555
H4 C1 1_555 1_555
H5 C1 1_555 1_555
C2 P2 1_555 1_555
H6 C2 1_555 1_555
H7 C2 1_555 1_555
C3 N1 1_555 1_555
H8 C3 1_555 1_555
H9 C3 1_555 1_555
C4 C3 1_555 1_555
C5 C4 1_555 1_555
H10 C5 1_555 1_555
C6 C5 1_555 1_555
H11 C6 1_555 1_555
C7 H12 1_555 1_555
C8 C4 1_555 1_555
H13 C8 1_555 1_555
C9 C6 1_555 1_555
C10 C9 1_555 1_555
H15 N1 1_555 1_555
Ca1_2 O2 1_555 1_555
Ca1A O7 1_555 1_555
Ca1A_2 O3 1_555 1_555
O2_2 Ca1 1_555 1_555
O3A Ca1 1_555 1_555
O5_2 Ca1 1_555 1_555
O7A Ca1 1_555 1_555
O5 Ca1_2 1_555 1_555
N1 C2 1_555 1_555
C7 C8 1_555 1_555
C7 C9 1_555 1_555

#END
