
#######################################################################
#
#                 Cambridge Crystallographic Data Centre
#                                CCDC 
#
#######################################################################
#
# If this CIF has been generated from an entry in the Cambridge 
# Structural Database, then it will include bibliographic, chemical, 
# crystal, experimental, refinement or atomic coordinate data resulting 
# from the CCDC's data processing and validation procedures.
#
#######################################################################

data_HUNHAB
_symmetry_cell_setting           monoclinic
_symmetry_space_group_name_H-M   'P 21/m'
_symmetry_Int_Tables_number      11
_space_group_name_Hall           '-P 2yb'
loop_
_symmetry_equiv_pos_site_id
_symmetry_equiv_pos_as_xyz
1 x,y,z
2 -x,1/2+y,-z
3 -x,-y,-z
4 x,1/2-y,z
_cell_length_a                   7.6609(15)
_cell_length_b                   21.518(4)
_cell_length_c                   12.258(3)
_cell_angle_alpha                90
_cell_angle_beta                 98.82(3)
_cell_angle_gamma                90
_cell_volume                     1996.8
loop_
_atom_site_label
_atom_site_type_symbol
_atom_site_fract_x
_atom_site_fract_y
_atom_site_fract_z
O1 O 0.708(2) 0.6866(7) 1.1536(10)
O2 O 0.7384(8) 0.6657(3) 1.3254(5)
C1 C 0.6700(19) 0.6547(6) 1.2287(10)
C2 C 0.5680(14) 0.5462(5) 1.2688(8)
H1 H 0.6368 0.5483 1.3381
Ho1 Ho 0.08415(7) 0.2500 0.73279(4)
O3 O -0.2951(10) 0.3670(3) 0.5570(5)
O4 O 0.4266(10) 0.3868(4) 1.2844(6)
O5 O -0.0216(10) 0.6484(3) 0.6029(6)
O6 O -0.1234(9) 0.3243(3) 0.6976(6)
O7 O 0.0299(13) 0.2500 0.5356(7)
H2 H 0.052(14) 0.2178(5) 0.500(5)
O8 O -0.2131(11) 0.5890(3) 0.4932(6)
H3 H -0.2019 0.6149 0.4456
O9 O 0.5935(13) 0.4483(4) 1.4026(6)
H4 H 0.5925 0.4186 1.4443
C3 C -0.1837(12) 0.3707(4) 0.6413(8)
N1 N 0.1654(13) 0.4935(5) 0.9302(8)
C4 C -0.1409(13) 0.4865(4) 0.6174(8)
H5 H -0.2104 0.4840 0.5484
C5 C -0.1123(12) 0.4334(4) 0.6826(8)
C6 C -0.0955(13) 0.5996(4) 0.5815(8)
C7 C 0.0369(14) 0.5478(5) 0.7574(8)
H6 H 0.0892 0.5854 0.7814
N2 N 0.2504(14) 0.5430(5) 0.9569(7)
C8 C 0.4948(14) 0.4363(5) 1.3092(8)
C9 C 0.0610(13) 0.4955(5) 0.8239(8)
C10 C -0.0669(12) 0.5431(5) 0.6541(8)
C11 C 0.4760(14) 0.4918(5) 1.2349(8)
C12 C -0.0140(13) 0.4389(5) 0.7874(8)
H7 H 0.0017 0.4044 0.8336
C13 C 0.3700(14) 0.4890(5) 1.1324(8)
H8 H 0.3093 0.4526 1.1100
C14 C 0.3552(16) 0.5400(6) 1.0644(9)
C15 C 0.454(2) 0.5943(7) 1.0949(10)
H9 H 0.4504 0.6276 1.0462
C16 C 0.5559(17) 0.5975(6) 1.1981(9)
H2C H 0.052(14) 0.2822(5) 0.500(5)
O1B O 0.292(2) 0.3134(7) 0.8464(10)
O2B O 0.2616(8) 0.3343(3) 0.6746(5)
C1B C 0.3300(19) 0.3453(6) 0.7713(10)
C2B C 0.4320(14) 0.4538(5) 0.7312(8)
H1B H 0.3632 0.4517 0.6619
O3B O 1.2951(10) 0.6330(3) 1.4430(5)
O4B O 0.5734(10) 0.6132(4) 0.7156(6)
O5B O 1.0216(10) 0.3516(3) 1.3971(6)
O6B O 1.1234(9) 0.6757(3) 1.3024(6)
O8B O 1.2131(11) 0.4110(3) 1.5068(6)
H3B H 1.2019 0.3851 1.5544
O9B O 0.4065(13) 0.5517(4) 0.5974(6)
H4B H 0.4075 0.5814 0.5557
C3B C 1.1837(12) 0.6293(4) 1.3587(8)
N1B N 0.8346(13) 0.5065(5) 1.0698(8)
C4B C 1.1409(13) 0.5135(4) 1.3826(8)
H5B H 1.2104 0.5160 1.4516
C5B C 1.1123(12) 0.5666(4) 1.3174(8)
C6B C 1.0955(13) 0.4004(4) 1.4185(8)
C7B C 0.9631(14) 0.4522(5) 1.2426(8)
H6B H 0.9108 0.4146 1.2186
N2B N 0.7496(14) 0.4570(5) 1.0431(7)
C8B C 0.5052(14) 0.5637(5) 0.6908(8)
C9B C 0.9390(13) 0.5045(5) 1.1761(8)
C10B C 1.0669(12) 0.4569(5) 1.3459(8)
C11B C 0.5240(14) 0.5082(5) 0.7651(8)
C12B C 1.0140(13) 0.5611(5) 1.2126(8)
H7B H 0.9983 0.5956 1.1664
C13B C 0.6300(14) 0.5110(5) 0.8676(8)
H8B H 0.6907 0.5474 0.8900
C14B C 0.6448(16) 0.4600(6) 0.9356(9)
C15B C 0.546(2) 0.4057(7) 0.9051(10)
H9B H 0.5496 0.3724 0.9538
C16B C 0.4441(17) 0.4025(6) 0.8019(9)
O1A O 0.292(2) 0.1866(7) 0.8464(10)
O2A O 0.2616(8) 0.1657(3) 0.6746(5)
Ho1A Ho 0.91585(7) 0.7500 1.26721(4)
O6C O -0.1234(9) 0.1757(3) 0.6976(6)
N3 N 0.6162(15) 0.2500 0.4651(10)
H10 H 0.6657 0.2838 0.5003
C17 C 0.421(2) 0.2500 0.4696(14)
H11 H 0.3651 0.2828 0.4238
C18 C 0.652(2) 0.2500 0.3508(13)
H10C H 0.6657 0.2162 0.5003
H11C H 0.3651 0.2172 0.4238
H12? H 0.6657 0.2838 0.5003
H13? H 0.3710 0.2108 0.4434
H14? H 0.4015 0.2563 0.5443
H15? H 0.5757 0.2793 0.3080
H16? H 0.6313 0.2092 0.3198
H17? H 0.7730 0.2615 0.3499
loop_
_geom_bond_atom_site_label_1
_geom_bond_atom_site_label_2
_geom_bond_site_symmetry_1
_geom_bond_site_symmetry_2
O1 C1 1_555 1_555
O2 C1 1_555 1_555
C1 C16 1_555 1_555
C2 H1 1_555 1_555
Ho1 O6 1_555 1_555
O3 C3 1_555 1_555
O4 C8 1_555 1_555
O5 C6 1_555 1_555
O6 C3 1_555 1_555
O7 Ho1 1_555 1_555
H2 O7 1_555 1_555
O8 H3 1_555 1_555
O9 H4 1_555 1_555
C3 C5 1_555 1_555
N1 N2 1_555 1_555
C4 H5 1_555 1_555
C5 C4 1_555 1_555
C6 O8 1_555 1_555
C7 H6 1_555 1_555
N2 C14 1_555 1_555
C8 O9 1_555 1_555
C9 N1 1_555 1_555
C10 C4 1_555 1_555
C11 C2 1_555 1_555
C12 C5 1_555 1_555
H7 C12 1_555 1_555
C13 C11 1_555 1_555
H8 C13 1_555 1_555
C14 C13 1_555 1_555
C15 C14 1_555 1_555
H9 C15 1_555 1_555
C16 C2 1_555 1_555
N3 H10 1_555 1_555
C17 N3 1_555 1_555
H11 C17 1_555 1_555
C18 N3 1_555 1_555
H2C O7 1_555 1_555
O1B Ho1 1_555 1_555
O2B Ho1 1_555 1_555
C1B O1B 1_555 1_555
C2B H1B 1_555 1_555
O3B C3B 1_555 1_555
O4B C8B 1_555 1_555
O5B C6B 1_555 1_555
O6B C3B 1_555 1_555
O8B H3B 1_555 1_555
O9B H4B 1_555 1_555
C3B C5B 1_555 1_555
N1B N2B 1_555 1_555
C4B H5B 1_555 1_555
C5B C4B 1_555 1_555
C6B O8B 1_555 1_555
C7B H6B 1_555 1_555
N2B C14B 1_555 1_555
C8B O9B 1_555 1_555
C9B N1B 1_555 1_555
C10B C4B 1_555 1_555
C11B C2B 1_555 1_555
C12B C5B 1_555 1_555
H7B C12B 1_555 1_555
C13B C11B 1_555 1_555
H8B C13B 1_555 1_555
C14B C13B 1_555 1_555
C15B C14B 1_555 1_555
H9B C15B 1_555 1_555
C16B C1B 1_555 1_555
O1A Ho1 1_555 1_555
O2A Ho1 1_555 1_555
Ho1A O1 1_555 1_555
O6C Ho1 1_555 1_555
H10C N3 1_555 1_555
H11C C17 1_555 1_555
O2 Ho1A 1_555 1_555
C6 C10 1_555 1_555
C7 C9 1_555 1_555
C7 C10 1_555 1_555
C8 C11 1_555 1_555
C9 C12 1_555 1_555
C15 C16 1_555 1_555
O2B C1B 1_555 1_555
C2B C16B 1_555 1_555
O6B Ho1A 1_555 1_555
C6B C10B 1_555 1_555
C7B C9B 1_555 1_555
C7B C10B 1_555 1_555
C8B C11B 1_555 1_555
C9B C12B 1_555 1_555
C15B C16B 1_555 1_555

#END
