
#######################################################################
#
#                 Cambridge Crystallographic Data Centre
#                                CCDC 
#
#######################################################################
#
# If this CIF has been generated from an entry in the Cambridge 
# Structural Database, then it will include bibliographic, chemical, 
# crystal, experimental, refinement or atomic coordinate data resulting 
# from the CCDC's data processing and validation procedures.
#
#######################################################################

data_HUNMUA
_symmetry_cell_setting           triclinic
_symmetry_space_group_name_H-M   'P -1'
_symmetry_Int_Tables_number      2
_space_group_name_Hall           '-P 1'
loop_
_symmetry_equiv_pos_site_id
_symmetry_equiv_pos_as_xyz
1 x,y,z
2 -x,-y,-z
_cell_length_a                   7.6386(11)
_cell_length_b                   11.8187(17)
_cell_length_c                   12.0901(18)
_cell_angle_alpha                108.856(2)
_cell_angle_beta                 99.579(2)
_cell_angle_gamma                91.399(2)
_cell_volume                     1014.91
loop_
_atom_site_label
_atom_site_type_symbol
_atom_site_fract_x
_atom_site_fract_y
_atom_site_fract_z
Zn1 Zn 1.35508(4) 1.13219(3) 0.51124(3)
N1 N 0.8581(3) 0.64701(19) -0.00729(19)
N2 N 0.9356(3) 0.7934(2) -0.0772(2)
N3 N 0.8482(3) 0.6990(2) -0.1659(2)
H1 H 0.8244 0.6948 -0.2393
N4 N 0.5043(3) 0.28865(19) -0.3547(2)
N5 N 1.2183(3) 0.9961(2) 0.35002(19)
O1 O 0.5589(3) 1.13866(17) 0.42252(17)
O2 O 0.6508(3) 0.95389(17) 0.37386(17)
O3 O 1.1264(3) 1.21518(17) 0.52415(17)
O4 O 1.1921(3) 1.28951(19) 0.38916(17)
C1 C 0.6422(4) 1.0570(2) 0.3655(2)
C2 C 0.7464(4) 1.0800(2) 0.2773(3)
H2 H 0.8719 1.0795 0.3082
H3 H 0.7167 1.0124 0.2041
C3 C 0.7233(4) 1.1930(3) 0.2456(2)
C4 C 0.8044(4) 1.3046(3) 0.3218(3)
C5 C 0.7015(5) 1.3930(3) 0.1707(3)
H4 H 0.6978 1.4593 0.1451
C6 C 0.6279(4) 1.1854(3) 0.1348(3)
H5 H 0.5704 1.1122 0.0843
C7 C 0.7927(4) 1.4028(3) 0.2823(3)
H6 H 0.8478 1.4770 0.3324
C8 C 0.6168(5) 1.2851(4) 0.0981(3)
H7 H 0.5514 1.2784 0.0238
C9 C 0.9045(4) 1.3197(3) 0.4458(3)
H8 H 0.8320 1.2799 0.4832
H9 H 0.9188 1.4045 0.4920
C10 C 1.0868(4) 1.2713(2) 0.4517(2)
C11 C 1.2258(4) 1.0134(2) 0.2459(2)
H10 H 1.2950 1.0798 0.2472
C12 C 1.1372(4) 0.9385(2) 0.1389(2)
H11 H 1.1470 0.9542 0.0695
C13 C 1.0315(4) 0.8380(2) 0.1335(2)
C14 C 1.0213(4) 0.8204(2) 0.2397(2)
H12 H 0.9522 0.7549 0.2406
C15 C 1.1146(4) 0.9009(2) 0.3448(2)
H13 H 1.1048 0.8882 0.4156
C16 C 0.9391(4) 0.7587(2) 0.0166(2)
C17 C 0.8031(4) 0.6121(2) -0.1247(2)
C18 C 0.7032(4) 0.4989(2) -0.2030(2)
C19 C 0.6402(4) 0.4830(3) -0.3217(2)
H14 H 0.6637 0.5432 -0.3526
C20 C 0.5432(4) 0.3783(3) -0.3937(3)
H15 H 0.5026 0.3693 -0.4732
C21 C 0.5659(4) 0.3035(3) -0.2406(3)
H16 H 0.5404 0.2420 -0.2119
C22 C 0.6661(4) 0.4060(3) -0.1629(3)
H17 H 0.7079 0.4121 -0.0842
Zn1_2 Zn 0.35508(4) 0.13219(3) -0.48876(3)
Zn1_3 Zn 0.35508(4) 1.13219(3) 0.51124(3)
Zn1A Zn 0.64492(4) 0.86781(3) 0.48876(3)
N4_2 N 1.5043(3) 1.28865(19) 0.6453(2)
O1_2 O 1.5589(3) 1.13866(17) 0.42252(17)
O2A O 1.3492(3) 1.04611(17) 0.62614(17)
loop_
_geom_bond_atom_site_label_1
_geom_bond_atom_site_label_2
_geom_bond_site_symmetry_1
_geom_bond_site_symmetry_2
Zn1 N5 1_555 1_555
N1 C16 1_555 1_555
N2 N3 1_555 1_555
N3 H1 1_555 1_555
N4 C20 1_555 1_555
N5 C11 1_555 1_555
O1 C1 1_555 1_555
O2 C1 1_555 1_555
O3 Zn1 1_555 1_555
O4 C10 1_555 1_555
C1 C2 1_555 1_555
C2 H2 1_555 1_555
H3 C2 1_555 1_555
C3 C2 1_555 1_555
C4 C3 1_555 1_555
C5 H4 1_555 1_555
C6 C3 1_555 1_555
H5 C6 1_555 1_555
C7 C4 1_555 1_555
H6 C7 1_555 1_555
C8 C5 1_555 1_555
H7 C8 1_555 1_555
C9 C4 1_555 1_555
H8 C9 1_555 1_555
H9 C9 1_555 1_555
C10 O3 1_555 1_555
C11 H10 1_555 1_555
C12 C11 1_555 1_555
H11 C12 1_555 1_555
C13 C12 1_555 1_555
C14 C13 1_555 1_555
H12 C14 1_555 1_555
C15 N5 1_555 1_555
H13 C15 1_555 1_555
C16 N2 1_555 1_555
C17 N1 1_555 1_555
C18 C17 1_555 1_555
C19 C18 1_555 1_555
H14 C19 1_555 1_555
C20 C19 1_555 1_555
H15 C20 1_555 1_555
C21 N4 1_555 1_555
H16 C21 1_555 1_555
C22 C18 1_555 1_555
H17 C22 1_555 1_555
Zn1_2 N4 1_555 1_555
Zn1_3 O1 1_555 1_555
Zn1A O2 1_555 1_555
N4_2 Zn1 1_555 1_555
O1_2 Zn1 1_555 1_555
O2A Zn1 1_555 1_555
N3 C17 1_555 1_555
C5 C7 1_555 1_555
C6 C8 1_555 1_555
C9 C10 1_555 1_555
C13 C16 1_555 1_555
C14 C15 1_555 1_555
C21 C22 1_555 1_555

#END
