
#######################################################################
#
#                 Cambridge Crystallographic Data Centre
#                                CCDC 
#
#######################################################################
#
# If this CIF has been generated from an entry in the Cambridge 
# Structural Database, then it will include bibliographic, chemical, 
# crystal, experimental, refinement or atomic coordinate data resulting 
# from the CCDC's data processing and validation procedures.
#
#######################################################################

data_HUNMOU
_symmetry_cell_setting           monoclinic
_symmetry_space_group_name_H-M   'P 21/c'
_symmetry_Int_Tables_number      14
_space_group_name_Hall           '-P 2ybc'
loop_
_symmetry_equiv_pos_site_id
_symmetry_equiv_pos_as_xyz
1 x,y,z
2 -x,1/2+y,1/2-z
3 -x,-y,-z
4 x,1/2-y,1/2+z
_cell_length_a                   15.7423(2)
_cell_length_b                   13.4734(7)
_cell_length_c                   21.1957(5)
_cell_angle_alpha                90
_cell_angle_beta                 103.945(4)
_cell_angle_gamma                90
_cell_volume                     4363.16
loop_
_atom_site_label
_atom_site_type_symbol
_atom_site_fract_x
_atom_site_fract_y
_atom_site_fract_z
Zn1 Zn 0.41753(6) 0.46064(6) 0.18167(4)
Zn2 Zn 0.92469(6) 0.60640(6) 0.18421(4)
N1 N 0.3518(4) 0.3365(4) 0.1390(3)
N2 N 0.1656(4) 0.0255(5) 0.0747(3)
N3 N 0.1132(4) -0.0306(5) 0.0238(3)
N4 N -0.0109(4) -0.0579(4) -0.2225(3)
N5 N 0.5010(4) 0.4139(4) 0.2670(3)
N6 N 0.6944(4) 0.4086(4) 0.4969(3)
N7 N 0.7475(4) 0.3553(5) 0.5480(3)
N8 N 0.8782(4) 0.0207(4) 0.6310(3)
O1 O 1.0148(3) 0.6446(4) 0.1374(3)
O2 O 1.0295(3) 0.7536(4) 0.2154(3)
O3 O 1.2865(6) 0.4519(5) 0.2449(4)
O4 O 1.3470(5) 0.5673(5) 0.2047(3)
O5 O 0.8235(3) 0.6661(4) 0.2106(2)
O6 O 0.8037(3) 0.6999(4) 0.1076(3)
O7 O 0.5363(4) 0.6012(4) 0.1811(3)
O8 O 0.4710(4) 0.4937(4) 0.1098(3)
O9 O 0.1640(3) 0.0991(3) -0.0178(2)
O10 O 0.7077(3) 0.2578(3) 0.4621(2)
C1 C 1.0544(5) 0.7173(5) 0.1714(4)
C2 C 1.1362(5) 0.7555(6) 0.1522(4)
H1 H 1.1581 0.7040 0.1283
H2 H 1.1203 0.8121 0.1234
C3 C 1.2087(5) 0.7860(5) 0.2104(4)
C4 C 1.2297(5) 0.8863(5) 0.2196(4)
H3 H 1.2000 0.9328 0.1899
C5 C 1.2941(6) 0.9174(6) 0.2724(4)
H4 H 1.3076 0.9846 0.2776
C6 C 1.3374(6) 0.8519(7) 0.3162(5)
H5 H 1.3808 0.8733 0.3516
C7 C 1.3169(5) 0.7526(7) 0.3081(4)
H6 H 1.3473 0.7073 0.3384
C8 C 1.2523(5) 0.7182(5) 0.2564(5)
C9 C 1.2303(6) 0.6091(6) 0.2519(5)
H7 H 1.2244 0.5870 0.2942
H8 H 1.1737 0.6009 0.2217
C10 C 1.2931(6) 0.5436(6) 0.2312(3)
C11 C 0.7780(5) 0.7011(5) 0.1577(4)
C12 C 0.6909(4) 0.7465(6) 0.1609(3)
H9 H 0.6624 0.7017 0.1851
H10 H 0.7026 0.8077 0.1855
C13 C 0.6276(4) 0.7690(5) 0.0970(3)
C14 C 0.6213(5) 0.8653(6) 0.0748(4)
H11 H 0.6567 0.9140 0.0990
C15 C 0.5640(6) 0.8904(7) 0.0179(5)
H12 H 0.5609 0.9557 0.0033
C16 C 0.5114(6) 0.8202(8) -0.0175(4)
H13 H 0.4713 0.8383 -0.0556
C17 C 0.5167(5) 0.7224(6) 0.0025(4)
H14 H 0.4809 0.6749 -0.0226
C18 C 0.5759(4) 0.6946(5) 0.0603(3)
C19 C 0.5821(5) 0.5867(5) 0.0799(4)
H15 H 0.6428 0.5707 0.0995
H16 H 0.5634 0.5461 0.0412
C20 C 0.5261(5) 0.5600(6) 0.1283(5)
C21 C 0.3231(5) 0.3331(5) 0.0741(3)
H17 H 0.3386 0.3841 0.0494
C22 C 0.2716(5) 0.2569(5) 0.0427(3)
H18 H 0.2533 0.2561 -0.0024
C23 C 0.2477(4) 0.1819(5) 0.0789(3)
C24 C 0.2766(5) 0.1849(5) 0.1456(3)
H19 H 0.2617 0.1351 0.1714
C25 C 0.3275(5) 0.2625(6) 0.1726(3)
H20 H 0.3468 0.2642 0.2177
C26 C 0.1932(5) 0.1003(5) 0.0481(3)
C27 C 0.1142(5) 0.0159(5) -0.0291(4)
C28 C 0.0711(4) -0.0098(5) -0.0959(3)
C29 C 0.0826(5) 0.0482(5) -0.1467(3)
H21 H 0.1176 0.1046 -0.1392
C30 C 0.0411(5) 0.0202(5) -0.2087(4)
H22 H 0.0499 0.0585 -0.2430
C31 C -0.0209(5) -0.1141(6) -0.1719(4)
H23 H -0.0564 -0.1701 -0.1805
C32 C 0.0184(5) -0.0928(5) -0.1094(3)
H24 H 0.0100 -0.1334 -0.0760
C33 C 0.5314(5) 0.3225(5) 0.2818(4)
H25 H 0.5132 0.2731 0.2509
C34 C 0.5871(4) 0.2961(5) 0.3392(3)
H26 H 0.6059 0.2309 0.3474
C35 C 0.6150(4) 0.3709(5) 0.3854(3)
C36 C 0.5861(5) 0.4661(5) 0.3700(3)
H27 H 0.6048 0.5175 0.3994
C37 C 0.5299(5) 0.4849(5) 0.3114(3)
H28 H 0.5107 0.5497 0.3018
C38 C 0.6724(5) 0.3500(5) 0.4485(4)
C39 C 0.7530(5) 0.2679(5) 0.5248(4)
C40 C 0.7993(5) 0.1826(5) 0.5593(3)
C41 C 0.8443(5) 0.1931(6) 0.6236(4)
H29 H 0.8491 0.2549 0.6437
C42 C 0.8818(5) 0.1103(5) 0.6573(3)
H30 H 0.9110 0.1176 0.7007
C43 C 0.8382(6) 0.0120(6) 0.5681(4)
H31 H 0.8371 -0.0500 0.5486
C44 C 0.7989(6) 0.0899(6) 0.5309(4)
H32 H 0.7722 0.0807 0.4871
Zn1_2 Zn 1.41753(6) 0.46064(6) 0.18167(4)
Zn2C Zn -0.07531(6) -0.10640(6) -0.31579(4)
Zn2C_2 Zn 0.92469(6) -0.10640(6) 0.68421(4)
N4C N 0.9891(4) 0.5579(4) 0.2775(3)
N8C N 0.8782(4) 0.4793(4) 0.1310(3)
O4_2 O 0.3470(5) 0.5673(5) 0.2047(3)
O11 O 0.8654(8) 0.6519(8) 0.8016(6)
H33 H 0.8186 0.6189 0.7876
H34 H 0.8800 0.6734 0.7680
O12 O 0.9022(9) 0.5280(10) 0.9144(6)
H35 H 0.9197 0.5820 0.9340
H36 H 0.9245 0.4791 0.8988
O13 O 0.9640(8) 0.7142(9) 0.9833(6)
H37 H 0.9773 0.6966 1.0230
H38 H 0.9324 0.7612 0.9916
loop_
_geom_bond_atom_site_label_1
_geom_bond_atom_site_label_2
_geom_bond_site_symmetry_1
_geom_bond_site_symmetry_2
Zn1 N1 1_555 1_555
Zn2 O1 1_555 1_555
N1 C21 1_555 1_555
N2 N3 1_555 1_555
N3 C27 1_555 1_555
N4 C30 1_555 1_555
N5 Zn1 1_555 1_555
N6 N7 1_555 1_555
N7 C39 1_555 1_555
N8 C42 1_555 1_555
O1 C1 1_555 1_555
O2 Zn2 1_555 1_555
O3 C10 1_555 1_555
O4 C10 1_555 1_555
O5 Zn2 1_555 1_555
O6 Zn2 1_555 1_555
O7 C20 1_555 1_555
O8 Zn1 1_555 1_555
O9 C26 1_555 1_555
O10 C38 1_555 1_555
C1 O2 1_555 1_555
C2 C1 1_555 1_555
H1 C2 1_555 1_555
H2 C2 1_555 1_555
C3 C2 1_555 1_555
C4 C3 1_555 1_555
H3 C4 1_555 1_555
C5 C4 1_555 1_555
H4 C5 1_555 1_555
C6 C5 1_555 1_555
H5 C6 1_555 1_555
C7 C6 1_555 1_555
H6 C7 1_555 1_555
C8 C3 1_555 1_555
C9 C8 1_555 1_555
H7 C9 1_555 1_555
H8 C9 1_555 1_555
C10 C9 1_555 1_555
C11 O5 1_555 1_555
C12 C11 1_555 1_555
H9 C12 1_555 1_555
H10 C12 1_555 1_555
C13 C12 1_555 1_555
C14 C13 1_555 1_555
H11 C14 1_555 1_555
C15 C14 1_555 1_555
H12 C15 1_555 1_555
C16 C15 1_555 1_555
H13 C16 1_555 1_555
C17 C16 1_555 1_555
H14 C17 1_555 1_555
C18 C13 1_555 1_555
C19 C18 1_555 1_555
H15 C19 1_555 1_555
H16 C19 1_555 1_555
C20 O8 1_555 1_555
C21 H17 1_555 1_555
C22 C21 1_555 1_555
H18 C22 1_555 1_555
C23 C22 1_555 1_555
C24 C23 1_555 1_555
H19 C24 1_555 1_555
C25 N1 1_555 1_555
H20 C25 1_555 1_555
C26 N2 1_555 1_555
C27 O9 1_555 1_555
C28 C27 1_555 1_555
C29 C28 1_555 1_555
H21 C29 1_555 1_555
C30 C29 1_555 1_555
H22 C30 1_555 1_555
C31 N4 1_555 1_555
H23 C31 1_555 1_555
C32 C28 1_555 1_555
H24 C32 1_555 1_555
C33 N5 1_555 1_555
H25 C33 1_555 1_555
C34 C33 1_555 1_555
H26 C34 1_555 1_555
C35 C34 1_555 1_555
C36 C35 1_555 1_555
H27 C36 1_555 1_555
C37 N5 1_555 1_555
H28 C37 1_555 1_555
C38 N6 1_555 1_555
C39 O10 1_555 1_555
C40 C39 1_555 1_555
C41 C40 1_555 1_555
H29 C41 1_555 1_555
C42 C41 1_555 1_555
H30 C42 1_555 1_555
C43 N8 1_555 1_555
H31 C43 1_555 1_555
C44 C40 1_555 1_555
H32 C44 1_555 1_555
O11 H33 1_555 1_555
H34 O11 1_555 1_555
O12 H35 1_555 1_555
H36 O12 1_555 1_555
O13 H37 1_555 1_555
H38 O13 1_555 1_555
Zn1_2 O4 1_555 1_555
Zn2C N4 1_555 1_555
Zn2C_2 N8 1_555 1_555
N4C Zn2 1_555 1_555
N8C Zn2 1_555 1_555
O4_2 Zn1 1_555 1_555
O6 C11 1_555 1_555
C7 C8 1_555 1_555
C17 C18 1_555 1_555
C19 C20 1_555 1_555
C23 C26 1_555 1_555
C24 C25 1_555 1_555
C31 C32 1_555 1_555
C35 C38 1_555 1_555
C36 C37 1_555 1_555
C43 C44 1_555 1_555

#END
