
#######################################################################
#
#                 Cambridge Crystallographic Data Centre
#                                CCDC 
#
#######################################################################
#
# If this CIF has been generated from an entry in the Cambridge 
# Structural Database, then it will include bibliographic, chemical, 
# crystal, experimental, refinement or atomic coordinate data resulting 
# from the CCDC's data processing and validation procedures.
#
#######################################################################

data_HUNMIO
_symmetry_cell_setting           orthorhombic
_symmetry_space_group_name_H-M   'P b c a'
_symmetry_Int_Tables_number      61
_space_group_name_Hall           '-P 2ac 2ab'
loop_
_symmetry_equiv_pos_site_id
_symmetry_equiv_pos_as_xyz
1 x,y,z
2 1/2-x,-y,1/2+z
3 -x,1/2+y,1/2-z
4 1/2+x,1/2-y,-z
5 -x,-y,-z
6 1/2+x,y,1/2-z
7 x,1/2-y,1/2+z
8 1/2-x,1/2+y,z
_cell_length_a                   10.2970(3)
_cell_length_b                   19.0997(6)
_cell_length_c                   20.4505(7)
_cell_angle_alpha                90
_cell_angle_beta                 90
_cell_angle_gamma                90
_cell_volume                     4021.99
loop_
_atom_site_label
_atom_site_type_symbol
_atom_site_fract_x
_atom_site_fract_y
_atom_site_fract_z
Zn1 Zn 0.06260(2) 0.990504(12) 0.249049(10)
N1 N 0.16829(16) 1.02059(9) 0.32665(8)
N2 N 0.17236(16) 0.96223(9) 0.17219(8)
N3 N 0.31080(15) 1.03165(9) 0.40575(8)
N4 N 0.31917(15) 0.95810(9) 0.09461(8)
O1 O -0.05248(14) 0.90932(8) 0.24912(7)
O2 O 0.05828(16) 0.84974(8) 0.32375(8)
O3 O -0.04503(17) 0.62996(8) 0.32713(9)
O4 O 0.05818(14) 0.56922(8) 0.25102(7)
C1 C -0.0265(2) 0.85393(10) 0.28127(10)
C2 C -0.1048(2) 0.78985(11) 0.26067(10)
H1 H -0.1034 0.7551 0.2952
H2 H -0.1943 0.8030 0.2526
C3 C -0.04556(19) 0.75976(10) 0.19907(10)
C4 C -0.0991(2) 0.77801(11) 0.13869(11)
H3 H -0.1759 0.8036 0.1375
C5 C -0.0404(3) 0.75883(12) 0.08053(12)
H4 H -0.0786 0.7705 0.0408
C6 C 0.0743(3) 0.72255(12) 0.08170(12)
H5 H 0.1170 0.7121 0.0428
C7 C 0.1266(2) 0.70155(11) 0.14095(11)
H6 H 0.2033 0.6758 0.1413
C8 C 0.06669(19) 0.71809(10) 0.20025(10)
C9 C 0.1200(2) 0.68721(11) 0.26312(11)
H7 H 0.1191 0.7224 0.2973
H8 H 0.2090 0.6723 0.2565
C10 C 0.0373(2) 0.62483(10) 0.28379(10)
C11 C 0.18127(19) 0.89452(11) 0.14914(10)
H9 H 0.1325 0.8568 0.1642
C12 C 0.2711(2) 0.89138(11) 0.10170(10)
H10 H 0.2960 0.8519 0.0782
C13 C 0.2568(2) 0.99874(11) 0.13817(10)
H11 H 0.2715 1.0464 0.1435
C14 C 0.4125(2) 0.97986(11) 0.04707(10)
C15 C 0.5153(2) 0.93666(11) 0.03219(10)
H12 H 0.5256 0.8942 0.0539
C16 C 0.3968(2) 1.04312(11) 0.01528(10)
H13 H 0.3272 1.0721 0.0258
C17 C 0.2663(2) 0.99100(10) 0.35692(10)
H14 H 0.3006 0.9475 0.3460
C18 C 0.2357(2) 1.09127(11) 0.40584(11)
H15 H 0.2436 1.1293 0.4339
C19 C 0.1490(2) 1.08374(11) 0.35763(11)
H16 H 0.0854 1.1162 0.3467
C20 C 0.4085(2) 1.01563(11) 0.45252(10)
C21 C 0.4378(2) 0.94700(11) 0.46711(11)
H17 H 0.3960 0.9110 0.4449
C22 C 0.4712(2) 1.06879(11) 0.48556(11)
H18 H 0.4521 1.1153 0.4759
N1D N 0.83171(16) 0.97941(9) 0.67335(8)
N3D N 0.68920(15) 0.96835(9) 0.59425(8)
C17D C 0.7337(2) 1.00900(10) 0.64308(10)
H14D H 0.6994 1.0525 0.6540
C18D C 0.7643(2) 0.90873(11) 0.59416(11)
H15D H 0.7564 0.8707 0.5661
C19D C 0.8510(2) 0.91626(11) 0.64237(11)
H16D H 0.9146 0.8838 0.6533
C20D C 0.5915(2) 0.98437(11) 0.54748(10)
C21D C 0.5622(2) 1.05300(11) 0.53289(11)
H17D H 0.6040 1.0890 0.5551
C22D C 0.5288(2) 0.93121(11) 0.51444(11)
H18D H 0.5479 0.8847 0.5241
N2D N 0.82764(16) 1.03777(9) -0.17219(8)
N4D N 0.68083(15) 1.04190(9) -0.09461(8)
C11D C 0.81873(19) 1.10548(11) -0.14914(10)
H9D H 0.8675 1.1432 -0.1642
C12D C 0.7289(2) 1.10862(11) -0.10170(10)
H10D H 0.7040 1.1481 -0.0782
C13D C 0.7432(2) 1.00126(11) -0.13817(10)
H11D H 0.7285 0.9536 -0.1435
C14D C 0.5875(2) 1.02014(11) -0.04707(10)
C15D C 0.4847(2) 1.06334(11) -0.03219(10)
H12D H 0.4744 1.1058 -0.0539
C16D C 0.6032(2) 0.95688(11) -0.01528(10)
H13D H 0.6728 0.9279 -0.0258
Zn1D Zn 0.93740(2) 1.009496(12) -0.249049(10)
O1D O 1.05248(14) 1.09068(8) -0.24912(7)
O2D O 0.94172(16) 1.15026(8) -0.32375(8)
O3D O 1.04503(17) 1.37004(8) -0.32713(9)
O4D O 0.94182(14) 1.43078(8) -0.25102(7)
C1D C 1.0265(2) 1.14607(10) -0.28127(10)
C2D C 1.1048(2) 1.21015(11) -0.26067(10)
H1D H 1.1034 1.2449 -0.2952
H2D H 1.1943 1.1970 -0.2526
C3D C 1.04556(19) 1.24024(10) -0.19907(10)
C4D C 1.0991(2) 1.22199(11) -0.13869(11)
H3D H 1.1759 1.1964 -0.1375
C5D C 1.0404(3) 1.24117(12) -0.08053(12)
H4D H 1.0786 1.2295 -0.0408
C6D C 0.9257(3) 1.27745(12) -0.08170(12)
H5D H 0.8830 1.2879 -0.0428
C7D C 0.8734(2) 1.29845(11) -0.14095(11)
H6D H 0.7967 1.3242 -0.1413
C8D C 0.93331(19) 1.28191(10) -0.20025(10)
C9D C 0.8800(2) 1.31279(11) -0.26312(11)
H7D H 0.8809 1.2776 -0.2973
H8D H 0.7910 1.3277 -0.2565
C10D C 0.9627(2) 1.37517(10) -0.28379(10)
Zn1B Zn -0.06260(2) 0.490504(12) 0.250951(10)
Zn1D_2 Zn 0.93740(2) 1.009496(12) 0.750951(10)
Zn1F Zn 1.06260(2) 1.509496(12) -0.250951(10)
N1D_2 N 0.83171(16) 0.97941(9) -0.32665(8)
O4B O -0.05818(14) 1.06922(8) 0.24898(7)
O4F O 1.05818(14) 0.93078(8) -0.24898(7)
O5 O 0.5054(2) 0.75927(11) 0.58039(10)
H19 H 0.4851 0.7915 0.6072
H20 H 0.5219 0.7253 0.6060
loop_
_geom_bond_atom_site_label_1
_geom_bond_atom_site_label_2
_geom_bond_site_symmetry_1
_geom_bond_site_symmetry_2
Zn1 N1 1_555 1_555
N1 C17 1_555 1_555
N2 Zn1 1_555 1_555
N3 C17 1_555 1_555
N4 C12 1_555 1_555
O1 Zn1 1_555 1_555
O2 C1 1_555 1_555
O3 C10 1_555 1_555
O4 C10 1_555 1_555
C1 O1 1_555 1_555
C2 C1 1_555 1_555
H1 C2 1_555 1_555
H2 C2 1_555 1_555
C3 C2 1_555 1_555
C4 C3 1_555 1_555
H3 C4 1_555 1_555
C5 C4 1_555 1_555
H4 C5 1_555 1_555
C6 C5 1_555 1_555
H5 C6 1_555 1_555
C7 C6 1_555 1_555
H6 C7 1_555 1_555
C8 C3 1_555 1_555
C9 C8 1_555 1_555
H7 C9 1_555 1_555
H8 C9 1_555 1_555
C10 C9 1_555 1_555
C11 N2 1_555 1_555
H9 C11 1_555 1_555
C12 C11 1_555 1_555
H10 C12 1_555 1_555
C13 N2 1_555 1_555
H11 C13 1_555 1_555
C14 N4 1_555 1_555
C15 C14 1_555 1_555
H12 C15 1_555 1_555
C16 C14 1_555 1_555
H13 C16 1_555 1_555
C17 H14 1_555 1_555
C18 N3 1_555 1_555
H15 C18 1_555 1_555
C19 N1 1_555 1_555
H16 C19 1_555 1_555
C20 N3 1_555 1_555
C21 C20 1_555 1_555
H17 C21 1_555 1_555
C22 C20 1_555 1_555
H18 C22 1_555 1_555
O5 H19 1_555 1_555
H20 O5 1_555 1_555
N1D C17D 1_555 1_555
N3D C17D 1_555 1_555
C17D H14D 1_555 1_555
C18D N3D 1_555 1_555
H15D C18D 1_555 1_555
C19D N1D 1_555 1_555
H16D C19D 1_555 1_555
C20D N3D 1_555 1_555
C21D C22 1_555 1_555
H17D C21D 1_555 1_555
C22D C21 1_555 1_555
H18D C22D 1_555 1_555
N2D C11D 1_555 1_555
N4D C12D 1_555 1_555
C11D H9D 1_555 1_555
C12D C11D 1_555 1_555
H10D C12D 1_555 1_555
C13D N2D 1_555 1_555
H11D C13D 1_555 1_555
C14D N4D 1_555 1_555
C15D C16 1_555 1_555
H12D C15D 1_555 1_555
C16D C15 1_555 1_555
H13D C16D 1_555 1_555
Zn1D N2D 1_555 1_555
O1D Zn1D 1_555 1_555
O2D C1D 1_555 1_555
O3D C10D 1_555 1_555
O4D C10D 1_555 1_555
C1D O1D 1_555 1_555
C2D C1D 1_555 1_555
H1D C2D 1_555 1_555
H2D C2D 1_555 1_555
C3D C2D 1_555 1_555
C4D C3D 1_555 1_555
H3D C4D 1_555 1_555
C5D C4D 1_555 1_555
H4D C5D 1_555 1_555
C6D C5D 1_555 1_555
H5D C6D 1_555 1_555
C7D C6D 1_555 1_555
H6D C7D 1_555 1_555
C8D C3D 1_555 1_555
C9D C8D 1_555 1_555
H7D C9D 1_555 1_555
H8D C9D 1_555 1_555
C10D C9D 1_555 1_555
Zn1B O4 1_555 1_555
Zn1D_2 N1D 1_555 1_555
Zn1F O4D 1_555 1_555
N1D_2 Zn1D 1_555 1_555
O4B Zn1 1_555 1_555
O4F Zn1D 1_555 1_555
N4 C13 1_555 1_555
C7 C8 1_555 1_555
C18 C19 1_555 1_555
C18D C19D 1_555 1_555
C20D C21D 1_555 1_555
C20D C22D 1_555 1_555
N4D C13D 1_555 1_555
C14D C15D 1_555 1_555
C14D C16D 1_555 1_555
C7D C8D 1_555 1_555

#END
