
#######################################################################
#
#                 Cambridge Crystallographic Data Centre
#                                CCDC 
#
#######################################################################
#
# If this CIF has been generated from an entry in the Cambridge 
# Structural Database, then it will include bibliographic, chemical, 
# crystal, experimental, refinement or atomic coordinate data resulting 
# from the CCDC's data processing and validation procedures.
#
#######################################################################

data_HUNMEK
_symmetry_cell_setting           monoclinic
_symmetry_space_group_name_H-M   'C 2/c'
_symmetry_Int_Tables_number      15
_space_group_name_Hall           '-C 2yn'
loop_
_symmetry_equiv_pos_site_id
_symmetry_equiv_pos_as_xyz
1 x,y,z
2 -x,y,1/2-z
3 1/2+x,1/2+y,z
4 1/2-x,1/2+y,1/2-z
5 -x,-y,-z
6 x,-y,1/2+z
7 1/2-x,1/2-y,-z
8 1/2+x,1/2-y,1/2+z
_cell_length_a                   23.843(2)
_cell_length_b                   14.4772(9)
_cell_length_c                   12.4312(10)
_cell_angle_alpha                90
_cell_angle_beta                 106.735(10)
_cell_angle_gamma                90
_cell_volume                     4109.26
loop_
_atom_site_label
_atom_site_type_symbol
_atom_site_fract_x
_atom_site_fract_y
_atom_site_fract_z
U1 U 0.150922(8) 1.065009(12) 0.337276(16)
O1 O 0.10346(18) 1.1034(3) 0.2079(3)
O2 O 0.19877(18) 1.0254(3) 0.4647(3)
O3 O 0.27304(18) 0.6639(2) 0.1976(4)
O4 O 0.32777(18) 0.7278(2) 0.1061(4)
O5 O 0.08607(18) 1.1269(3) 0.4402(4)
O6 O 0.07155(18) 0.9842(3) 0.3886(4)
O7 O 0.13838(17) 0.9072(3) 0.2626(3)
O8 O 0.21396(17) 0.9829(3) 0.2431(4)
C1 C 0.2891(2) 0.7348(4) 0.1566(5)
C2 C 0.0599(3) 1.0527(4) 0.4397(5)
C3 C 0.0156(3) 1.0457(4) 0.5053(5)
H1 H 0.0355 1.0568 0.5841
H2 H -0.0133 1.0942 0.4801
C4 C 0.1848(2) 0.9084(4) 0.2323(4)
C5 C 0.2035(2) 0.8241(3) 0.1843(5)
H3 H 0.1763 0.8130 0.1107
H4 H 0.2009 0.7719 0.2316
C6 C 0.2649(2) 0.8279(4) 0.1727(5)
H5 H 0.2648 0.8668 0.1092
H6 H 0.2906 0.8563 0.2396
O5D O -0.08607(18) 0.8731(3) 0.5598(4)
O6D O -0.07155(18) 1.0158(3) 0.6114(4)
C2D C -0.0599(3) 0.9473(4) 0.5603(5)
C3D C -0.0156(3) 0.9543(4) 0.4947(5)
H1D H -0.0355 0.9432 0.4159
H2D H 0.0133 0.9058 0.5199
U1D U -0.150922(8) 0.934991(12) 0.662724(16)
O1D O -0.10346(18) 0.8966(3) 0.7921(3)
O2D O -0.19877(18) 0.9746(3) 0.5353(3)
O3D O -0.27304(18) 1.3361(2) 0.8024(4)
O4D O -0.32777(18) 1.2722(2) 0.8939(4)
O7D O -0.13838(17) 1.0928(3) 0.7374(3)
O8D O -0.21396(17) 1.0171(3) 0.7569(4)
C1D C -0.2891(2) 1.2652(4) 0.8434(5)
C4D C -0.1848(2) 1.0916(4) 0.7677(4)
C5D C -0.2035(2) 1.1759(3) 0.8157(5)
H3D H -0.1763 1.1870 0.8893
H4D H -0.2009 1.2281 0.7684
C6D C -0.2649(2) 1.1721(4) 0.8273(5)
H5D H -0.2648 1.1332 0.8908
H6D H -0.2906 1.1437 0.7604
U1C U 0.349078(8) 0.565009(12) 0.162724(16)
U1G U -0.349078(8) 1.434991(12) 0.837276(16)
O3C O 0.22696(18) 1.1639(2) 0.3024(4)
O3G O -0.22696(18) 0.8361(2) 0.6976(4)
O4C O 0.17223(18) 1.2278(2) 0.3939(4)
O4G O -0.17223(18) 0.7722(2) 0.6061(4)
O9 O 0.4300(3) 0.0612(3) 0.6868(5)
O10 O 0.4109(2) 0.1023(4) 0.8443(5)
C7 C 0.4391(3) 0.1120(5) 0.7663(6)
C8 C 0.4792(3) 0.1924(4) 0.7865(6)
H7 H 0.5021 0.1928 0.8648
H8 H 0.4561 0.2486 0.7721
O9A O 0.5700(3) 0.0612(3) 0.8132(5)
O10A O 0.5891(2) 0.1023(4) 0.6557(5)
C7A C 0.5609(3) 0.1120(5) 0.7337(6)
C8A C 0.5208(3) 0.1924(4) 0.7135(6)
H7A H 0.4979 0.1928 0.6352
H8A H 0.5439 0.2486 0.7279
O11 O 1.0000 0.1539(5) 0.7500
H9 H 0.9655 0.1321 0.7274
H9A H 1.0345 0.1321 0.7726
O12 O 0.3340(2) 0.0297(4) 0.3113(5)
H10 H 0.3548 0.0755 0.3419
H11 H 0.3486 -0.0197 0.3448
O13 O 0.3874(3) 0.1545(4) 0.4816(5)
H12 H 0.3920 0.2040 0.5199
H13 H 0.4062 0.1109 0.5220
O14 O 0.4794(5) 0.1979(8) 0.3743(9)
H14 H 0.4876 0.2500 0.4065
H15 H 0.5024 0.1571 0.4120
N1 N 0.3973(4) 0.1882(6) 0.0603(6)
C9 C 0.3594(6) 0.1328(7) 0.0869(10)
H16 H 0.3724 0.0765 0.1211
C10 C 0.3024(5) 0.1553(6) 0.0660(9)
H17 H 0.2770 0.1157 0.0878
C11 C 0.2818(3) 0.2368(5) 0.0125(6)
C12 C 0.3213(4) 0.2927(5) -0.0186(7)
H18 H 0.3092 0.3477 -0.0569
C13 C 0.3788(5) 0.2657(7) 0.0080(8)
H19 H 0.4056 0.3039 -0.0117
N1F N 0.1027(4) 0.3118(6) -0.0603(6)
C9F C 0.1406(6) 0.3672(7) -0.0869(10)
H16F H 0.1276 0.4235 -0.1211
C10F C 0.1976(5) 0.3447(6) -0.0660(9)
H17F H 0.2230 0.3843 -0.0878
C11F C 0.2182(3) 0.2632(5) -0.0125(6)
C12F C 0.1787(4) 0.2073(5) 0.0186(7)
H18F H 0.1908 0.1523 0.0569
C13F C 0.1212(5) 0.2343(7) -0.0080(8)
H19F H 0.0944 0.1961 0.0117
H20? H 0.9983 0.2119 0.7597
loop_
_geom_bond_atom_site_label_1
_geom_bond_atom_site_label_2
_geom_bond_site_symmetry_1
_geom_bond_site_symmetry_2
U1 O1 1_555 1_555
O2 U1 1_555 1_555
O3 C1 1_555 1_555
O4 C1 1_555 1_555
O5 U1 1_555 1_555
O6 U1 1_555 1_555
O7 U1 1_555 1_555
O8 U1 1_555 1_555
C1 C6 1_555 1_555
C2 O5 1_555 1_555
C3 C2 1_555 1_555
H1 C3 1_555 1_555
H2 C3 1_555 1_555
C4 O7 1_555 1_555
C5 C4 1_555 1_555
H3 C5 1_555 1_555
H4 C5 1_555 1_555
C6 C5 1_555 1_555
H5 C6 1_555 1_555
H6 C6 1_555 1_555
O9 C7 1_555 1_555
O10 C7 1_555 1_555
C7 C8 1_555 1_555
C8 H7 1_555 1_555
H8 C8 1_555 1_555
O11 H9 1_555 1_555
O12 H10 1_555 1_555
H11 O12 1_555 1_555
O13 H12 1_555 1_555
H13 O13 1_555 1_555
O14 H14 1_555 1_555
H15 O14 1_555 1_555
N1 C9 1_555 1_555
C9 H16 1_555 1_555
C10 C9 1_555 1_555
H17 C10 1_555 1_555
C11 C10 1_555 1_555
C12 C11 1_555 1_555
H18 C12 1_555 1_555
C13 N1 1_555 1_555
H19 C13 1_555 1_555
O5D C2D 1_555 1_555
O6D C2D 1_555 1_555
C2D C3D 1_555 1_555
C3D C3 1_555 1_555
H1D C3D 1_555 1_555
H2D C3D 1_555 1_555
U1D O5D 1_555 1_555
O1D U1D 1_555 1_555
O2D U1D 1_555 1_555
O3D C1D 1_555 1_555
O4D C1D 1_555 1_555
O7D U1D 1_555 1_555
O8D U1D 1_555 1_555
C1D C6D 1_555 1_555
C4D O7D 1_555 1_555
C5D C4D 1_555 1_555
H3D C5D 1_555 1_555
H4D C5D 1_555 1_555
C6D C5D 1_555 1_555
H5D C6D 1_555 1_555
H6D C6D 1_555 1_555
U1C O3 1_555 1_555
U1G O3D 1_555 1_555
O3C U1 1_555 1_555
O3G U1D 1_555 1_555
O4C U1 1_555 1_555
O4G U1D 1_555 1_555
O9A C7A 1_555 1_555
O10A C7A 1_555 1_555
C7A C8A 1_555 1_555
C8A C8 1_555 1_555
H7A C8A 1_555 1_555
H8A C8A 1_555 1_555
H9A O11 1_555 1_555
N1F C9F 1_555 1_555
C9F H16F 1_555 1_555
C10F C9F 1_555 1_555
H17F C10F 1_555 1_555
C11F C11 1_555 1_555
C12F C11F 1_555 1_555
H18F C12F 1_555 1_555
C13F N1F 1_555 1_555
H19F C13F 1_555 1_555
O4 U1C 1_555 1_555
O6 C2 1_555 1_555
O8 C4 1_555 1_555
C12 C13 1_555 1_555
O6D U1D 1_555 1_555
O4D U1G 1_555 1_555
O8D C4D 1_555 1_555
C10F C11F 1_555 1_555
C12F C13F 1_555 1_555

#END
