
#######################################################################
#
#                 Cambridge Crystallographic Data Centre
#                                CCDC 
#
#######################################################################
#
# If this CIF has been generated from an entry in the Cambridge 
# Structural Database, then it will include bibliographic, chemical, 
# crystal, experimental, refinement or atomic coordinate data resulting 
# from the CCDC's data processing and validation procedures.
#
#######################################################################

data_HUNZIZ
_symmetry_cell_setting           monoclinic
_symmetry_space_group_name_H-M   'P 21/c'
_symmetry_Int_Tables_number      14
_space_group_name_Hall           '-P 2ybc'
loop_
_symmetry_equiv_pos_site_id
_symmetry_equiv_pos_as_xyz
1 x,y,z
2 -x,1/2+y,1/2-z
3 -x,-y,-z
4 x,1/2-y,1/2+z
_cell_length_a                   10.1910(10)
_cell_length_b                   8.9060(10)
_cell_length_c                   18.086(2)
_cell_angle_alpha                90
_cell_angle_beta                 88.281(3)
_cell_angle_gamma                90
_cell_volume                     1640.77
loop_
_atom_site_label
_atom_site_type_symbol
_atom_site_fract_x
_atom_site_fract_y
_atom_site_fract_z
Ag1 Ag 0.569754(10) 0.199035(12) 0.326073(6)
P1 P 0.73046(3) 0.11807(3) 0.411143(17)
C1 C 0.88999(12) 0.12663(14) 0.36348(7)
C2 C 0.91725(15) 0.25029(18) 0.31761(9)
C3 C 1.04128(16) 0.2649(2) 0.28355(10)
C4 C 1.13609(14) 0.1548(2) 0.29297(9)
C5 C 1.10832(13) 0.03089(17) 0.33720(8)
C6 C 0.98637(13) 0.01770(15) 0.37351(8)
C7 C 0.75499(13) 0.22048(13) 0.49698(7)
C8 C 0.64722(14) 0.23978(15) 0.54596(8)
C9 C 0.66136(18) 0.31751(17) 0.61222(8)
C10 C 0.78189(19) 0.37855(18) 0.62938(9)
C11 C 0.88954(17) 0.36093(18) 0.58096(9)
C12 C 0.87631(15) 0.28180(16) 0.51478(8)
C13 C 0.71377(12) -0.07720(13) 0.43984(7)
C14 C 0.70574(14) -0.18574(14) 0.38391(7)
C15 C 0.69426(16) -0.33690(15) 0.40213(8)
C16 C 0.68743(18) -0.38100(15) 0.47591(9)
C17 C 0.6943(2) -0.27403(17) 0.53197(9)
C18 C 0.70747(16) -0.12220(15) 0.51399(7)
N1 N 0.50142(12) -0.03320(13) 0.25293(6)
O1 O 0.38327(12) -0.06230(16) 0.25422(8)
O2 O 0.57429(11) -0.12772(14) 0.21924(7)
H1 H 0.852(2) 0.324(3) 0.3092(15)
H2 H 1.059(3) 0.341(4) 0.2528(18)
H3 H 1.213(2) 0.156(3) 0.2647(14)
H4 H 1.171(3) -0.051(3) 0.3401(15)
H5 H 0.966(3) -0.065(3) 0.4026(14)
H6 H 0.563(3) 0.199(2) 0.5340(15)
H7 H 0.590(3) 0.330(3) 0.6412(15)
H8 H 0.799(2) 0.434(3) 0.6732(14)
H9 H 0.974(2) 0.403(3) 0.5927(14)
H10 H 0.957(3) 0.263(3) 0.4825(15)
H11 H 0.709(2) -0.156(3) 0.3325(12)
H12 H 0.693(2) -0.412(3) 0.3636(13)
H13 H 0.678(3) -0.483(4) 0.4868(17)
H14 H 0.691(3) -0.297(3) 0.5854(16)
H15 H 0.716(3) -0.045(3) 0.5474(15)
O1A O 0.61673(12) 0.43770(16) 0.24578(8)
O2A O 0.42571(11) 0.37228(14) 0.28076(7)
Ag1A Ag 0.430246(10) -0.300965(12) 0.173927(6)
loop_
_geom_bond_atom_site_label_1
_geom_bond_atom_site_label_2
_geom_bond_site_symmetry_1
_geom_bond_site_symmetry_2
Ag1 P1 1_555 1_555
P1 C1 1_555 1_555
C1 C2 1_555 1_555
C2 C3 1_555 1_555
C3 C4 1_555 1_555
C4 C5 1_555 1_555
C5 C6 1_555 1_555
C6 C1 1_555 1_555
C7 P1 1_555 1_555
C8 C7 1_555 1_555
C9 C8 1_555 1_555
C10 C9 1_555 1_555
C11 C10 1_555 1_555
C12 C7 1_555 1_555
C13 P1 1_555 1_555
C14 C13 1_555 1_555
C15 C14 1_555 1_555
C16 C15 1_555 1_555
C17 C16 1_555 1_555
C18 C13 1_555 1_555
N1 Ag1 1_555 1_555
O1 N1 1_555 1_555
O2 N1 1_555 1_555
H1 C2 1_555 1_555
H2 C3 1_555 1_555
H3 C4 1_555 1_555
H4 C5 1_555 1_555
H5 C6 1_555 1_555
H6 C8 1_555 1_555
H7 C9 1_555 1_555
H8 C10 1_555 1_555
H9 C11 1_555 1_555
H10 C12 1_555 1_555
H11 C14 1_555 1_555
H12 C15 1_555 1_555
H13 C16 1_555 1_555
H14 C17 1_555 1_555
H15 C18 1_555 1_555
O1A Ag1 1_555 1_555
O2A Ag1 1_555 1_555
Ag1A O1 1_555 1_555
C11 C12 1_555 1_555
C17 C18 1_555 1_555
O2 Ag1A 1_555 1_555

#END
