
#######################################################################
#
#                 Cambridge Crystallographic Data Centre
#                                CCDC 
#
#######################################################################
#
# If this CIF has been generated from an entry in the Cambridge 
# Structural Database, then it will include bibliographic, chemical, 
# crystal, experimental, refinement or atomic coordinate data resulting 
# from the CCDC's data processing and validation procedures.
#
#######################################################################

data_HUPCAW
_symmetry_cell_setting           monoclinic
_symmetry_space_group_name_H-M   'P 21/c'
_symmetry_Int_Tables_number      14
_space_group_name_Hall           '-P 2ybc'
loop_
_symmetry_equiv_pos_site_id
_symmetry_equiv_pos_as_xyz
1 x,y,z
2 -x,1/2+y,1/2-z
3 -x,-y,-z
4 x,1/2-y,1/2+z
_cell_length_a                   9.9390(10)
_cell_length_b                   9.2233(9)
_cell_length_c                   18.983(2)
_cell_angle_alpha                90
_cell_angle_beta                 90.064(2)
_cell_angle_gamma                90
_cell_volume                     1740.18
loop_
_atom_site_label
_atom_site_type_symbol
_atom_site_fract_x
_atom_site_fract_y
_atom_site_fract_z
Ag1 Ag 0.536624(16) 0.196044(16) 0.310428(8)
Sb1 Sb 0.713689(12) 0.122329(13) 0.407990(6)
C1 C 0.9040(2) 0.1326(2) 0.35752(10)
C2 C 0.9317(2) 0.2509(2) 0.31424(12)
C3 C 1.0554(2) 0.2604(3) 0.27991(13)
C4 C 1.1489(2) 0.1494(3) 0.28673(12)
C5 C 1.1217(2) 0.0312(2) 0.32908(11)
C6 C 0.9991(2) 0.0234(2) 0.36536(11)
C7 C 0.7603(2) 0.2278(2) 0.50432(10)
C8 C 0.6590(2) 0.2449(2) 0.55468(11)
C9 C 0.6851(3) 0.3175(2) 0.61722(12)
C10 C 0.8116(3) 0.3748(3) 0.62973(13)
C11 C 0.9129(3) 0.3590(3) 0.58055(14)
C12 C 0.8879(2) 0.2853(2) 0.51745(12)
C13 C 0.7100(2) -0.0977(2) 0.44216(10)
C14 C 0.7000(2) -0.2078(2) 0.39231(11)
C15 C 0.6917(2) -0.3518(2) 0.41291(12)
C16 C 0.6918(3) -0.3860(2) 0.48468(14)
C17 C 0.7024(3) -0.2774(3) 0.53441(12)
C18 C 0.7116(2) -0.1332(2) 0.51372(11)
N1 N 0.4974(2) -0.0230(2) 0.24899(10)
O1 O 0.3860(2) -0.0758(2) 0.24770(12)
O2 O 0.5919(2) -0.0978(2) 0.22597(10)
H1 H 0.871(3) 0.318(4) 0.3106(16)
H2 H 1.076(3) 0.343(4) 0.2513(17)
H3 H 1.230(3) 0.159(4) 0.2597(18)
H4 H 1.186(3) -0.044(4) 0.3376(17)
H5 H 0.987(3) -0.057(3) 0.3931(16)
H6 H 0.567(3) 0.212(3) 0.5437(13)
H7 H 0.605(3) 0.324(3) 0.6492(16)
H8 H 0.827(3) 0.430(4) 0.6676(18)
H9 H 0.993(3) 0.395(3) 0.5872(15)
H10 H 0.964(3) 0.282(3) 0.4874(15)
H11 H 0.695(3) -0.194(3) 0.3494(17)
H12 H 0.688(3) -0.439(3) 0.3774(14)
H13 H 0.679(3) -0.482(3) 0.5019(15)
H14 H 0.707(3) -0.310(4) 0.5837(17)
H15 H 0.714(3) -0.060(3) 0.5448(16)
O1A O 0.6140(2) 0.4242(2) 0.25230(12)
O2A O 0.4081(2) 0.4022(2) 0.27403(10)
Ag1A Ag 0.463376(16) -0.303956(16) 0.189572(8)
loop_
_geom_bond_atom_site_label_1
_geom_bond_atom_site_label_2
_geom_bond_site_symmetry_1
_geom_bond_site_symmetry_2
Ag1 Sb1 1_555 1_555
Sb1 C1 1_555 1_555
C1 C2 1_555 1_555
C2 C3 1_555 1_555
C3 C4 1_555 1_555
C4 C5 1_555 1_555
C5 C6 1_555 1_555
C6 C1 1_555 1_555
C7 Sb1 1_555 1_555
C8 C7 1_555 1_555
C9 C8 1_555 1_555
C10 C9 1_555 1_555
C11 C10 1_555 1_555
C12 C7 1_555 1_555
C13 Sb1 1_555 1_555
C14 C13 1_555 1_555
C15 C14 1_555 1_555
C16 C15 1_555 1_555
C17 C16 1_555 1_555
C18 C13 1_555 1_555
N1 Ag1 1_555 1_555
O1 N1 1_555 1_555
O2 N1 1_555 1_555
H1 C2 1_555 1_555
H2 C3 1_555 1_555
H3 C4 1_555 1_555
H4 C5 1_555 1_555
H5 C6 1_555 1_555
H6 C8 1_555 1_555
H7 C9 1_555 1_555
H8 C10 1_555 1_555
H9 C11 1_555 1_555
H10 C12 1_555 1_555
H11 C14 1_555 1_555
H12 C15 1_555 1_555
H13 C16 1_555 1_555
H14 C17 1_555 1_555
H15 C18 1_555 1_555
O1A Ag1 1_555 1_555
O2A Ag1 1_555 1_555
Ag1A O1 1_555 1_555
C11 C12 1_555 1_555
C17 C18 1_555 1_555
O2 Ag1A 1_555 1_555

#END
