
#######################################################################
#
#                 Cambridge Crystallographic Data Centre
#                                CCDC 
#
#######################################################################
#
# If this CIF has been generated from an entry in the Cambridge 
# Structural Database, then it will include bibliographic, chemical, 
# crystal, experimental, refinement or atomic coordinate data resulting 
# from the CCDC's data processing and validation procedures.
#
#######################################################################

data_HUPLAH
_symmetry_cell_setting           tetragonal
_symmetry_space_group_name_H-M   'I -4'
_symmetry_Int_Tables_number      82
_space_group_name_Hall           'I -4'
loop_
_symmetry_equiv_pos_site_id
_symmetry_equiv_pos_as_xyz
1 x,y,z
2 y,-x,-z
3 -x,-y,z
4 -y,x,-z
5 1/2+x,1/2+y,1/2+z
6 1/2+y,1/2-x,1/2-z
7 1/2-x,1/2-y,1/2+z
8 1/2-y,1/2+x,1/2-z
_cell_length_a                   19.4684(2)
_cell_length_b                   19.4684(2)
_cell_length_c                   12.3837(3)
_cell_angle_alpha                90
_cell_angle_beta                 90
_cell_angle_gamma                90
_cell_volume                     4693.65
loop_
_atom_site_label
_atom_site_type_symbol
_atom_site_fract_x
_atom_site_fract_y
_atom_site_fract_z
Gd1 Gd 1.0000 1.0000 0.0000
O1 O 0.8855(5) 0.9857(5) 0.0350(8)
Gd2 Gd 1.0000 0.5000 0.2500
O2 O 0.8834(5) 0.5077(5) 0.2228(9)
C1 C 0.6616(10) 0.8539(11) -0.1393(17)
H1 H 0.6693 0.8555 -0.2183
H2 H 0.6198 0.8809 -0.1227
C2 C 0.6427(8) 0.6377(9) -0.0384(15)
C3 C 0.6557(11) 0.6565(11) -0.1442(14)
C4 C 0.6422(8) 0.5643(9) 0.0026(18)
H3 H 0.6385 0.5322 -0.0591
H4 H 0.6019 0.5571 0.0501
C5 C 0.6301(8) 0.7596(9) 0.0051(16)
C6 C 0.6663(9) 0.7208(10) -0.1769(16)
C7 C 0.6511(9) 0.7752(11) -0.1009(15)
C8 C 0.6255(9) 0.6909(10) 0.0353(15)
C9 C 0.6108(9) 0.6777(10) 0.1586(16)
H5 H 0.5916 0.6315 0.1679
H6 H 0.5780 0.7118 0.1852
H7 H 0.6538 0.6814 0.1995
C10 C 0.8268(8) 0.5576(10) 0.0753(18)
H8 H 0.8690 0.5744 0.0473
C11 C 0.8279(8) 0.5196(11) 0.1729(14)
C12 C 0.7692(9) 0.5706(11) 0.021(2)
H9 H 0.7703 0.5938 -0.0463
N1 N 0.7081(7) 0.5496(8) 0.0655(14)
N2 N 1.0000 0.5000 0.4889(18)
O3 O 0.9453(5) 0.9904(5) -0.1855(9)
O4 O 1.0534(5) 0.4897(6) 0.4335(9)
C13 C 0.7637(8) 0.5043(8) 0.2170(17)
H10 H 0.7608 0.4879 0.2891
C14 C 0.7667(7) 0.9796(10) 0.0127(17)
H11 H 0.7594 1.0218 0.0493
C15 C 0.8340(9) 0.9508(9) 0.0016(16)
N3 N 0.7174(7) 0.8815(8) -0.0860(14)
C16 C 0.8391(9) 0.8815(11) -0.0532(16)
H12 H 0.8817 0.8579 -0.0579
C17 C 0.6696(13) 0.5978(11) -0.225(2)
H13 H 0.7193 0.5912 -0.2323
H14 H 0.6497 0.6095 -0.2950
H15 H 0.6486 0.5554 -0.1977
C18 C 0.6911(13) 0.7358(12) -0.2953(19)
H16 H 0.7154 0.6955 -0.3235
H17 H 0.7222 0.7754 -0.2950
H18 H 0.6513 0.7458 -0.3411
O5 O 1.0000 1.0000 -0.3372(11)
O6 O 1.0000 0.5000 0.583(2)
N4 N 1.0000 1.0000 -0.2376(17)
C19 C 0.6106(8) 0.8187(10) 0.0868(17)
H19 H 0.6297 0.8623 0.0613
H20 H 0.6295 0.8079 0.1582
H21 H 0.5605 0.8224 0.0917
C20 C 0.7827(9) 0.8551(10) -0.0940(19)
H22 H 0.7875 0.8134 -0.1331
C21 C 0.7043(8) 0.5127(9) 0.1570(14)
H23 H 0.6621 0.4931 0.1799
C22 C 0.7142(10) 0.9441(10) -0.0313(17)
H24 H 0.6699 0.9641 -0.0242
O4B O 0.9466(5) 0.5103(6) 0.4335(9)
O3B O 1.0547(5) 1.0096(5) -0.1855(9)
O1A O 0.9857(5) 1.1145(5) -0.0350(8)
O2A O 0.5077(5) 1.1166(5) -0.2228(9)
C1A C 0.8539(11) 1.3384(10) 0.1393(17)
H1A H 0.8555 1.3307 0.2183
H2A H 0.8809 1.3802 0.1227
C2A C 0.6377(9) 1.3573(8) 0.0384(15)
C3A C 0.6565(11) 1.3443(11) 0.1442(14)
C4A C 0.5643(9) 1.3578(8) -0.0026(18)
H3A H 0.5322 1.3615 0.0591
H4A H 0.5571 1.3981 -0.0501
C5A C 0.7596(9) 1.3699(8) -0.0051(16)
C6A C 0.7208(10) 1.3337(9) 0.1769(16)
C7A C 0.7752(11) 1.3489(9) 0.1009(15)
C8A C 0.6909(10) 1.3745(9) -0.0353(15)
C9A C 0.6777(10) 1.3892(9) -0.1586(16)
H5A H 0.6315 1.4084 -0.1679
H6A H 0.7118 1.4220 -0.1852
H7A H 0.6814 1.3462 -0.1995
C10A C 0.5576(10) 1.1732(8) -0.0753(18)
H8A H 0.5744 1.1310 -0.0473
C11A C 0.5196(11) 1.1721(8) -0.1729(14)
C12A C 0.5706(11) 1.2308(9) -0.021(2)
H9A H 0.5938 1.2297 0.0463
N1A N 0.5496(8) 1.2919(7) -0.0655(14)
O3A O 0.9904(5) 1.0547(5) 0.1855(9)
C13A C 0.5043(8) 1.2363(8) -0.2170(17)
H10A H 0.4879 1.2392 -0.2891
C14A C 0.9796(10) 1.2333(7) -0.0127(17)
H11A H 1.0218 1.2406 -0.0493
C15A C 0.9508(9) 1.1660(9) -0.0016(16)
N3A N 0.8815(8) 1.2826(7) 0.0860(14)
C16A C 0.8815(11) 1.1609(9) 0.0532(16)
H12A H 0.8579 1.1183 0.0579
C17A C 0.5978(11) 1.3304(13) 0.225(2)
H13A H 0.5912 1.2807 0.2323
H14A H 0.6095 1.3503 0.2950
H15A H 0.5554 1.3514 0.1977
C18A C 0.7358(12) 1.3089(13) 0.2953(19)
H16A H 0.6955 1.2846 0.3235
H17A H 0.7754 1.2778 0.2950
H18A H 0.7458 1.3487 0.3411
O5A O 1.0000 1.0000 0.3372(11)
N4A N 1.0000 1.0000 0.2376(17)
C19A C 0.8187(10) 1.3894(8) -0.0868(17)
H19A H 0.8623 1.3703 -0.0613
H20A H 0.8079 1.3705 -0.1582
H21A H 0.8224 1.4395 -0.0917
C20A C 0.8551(10) 1.2173(9) 0.0940(19)
H22A H 0.8134 1.2125 0.1331
C21A C 0.5127(9) 1.2957(8) -0.1570(14)
H23A H 0.4931 1.3379 -0.1799
C22A C 0.9441(10) 1.2858(10) 0.0313(17)
H24A H 0.9641 1.3301 0.0242
O3C O 1.0096(5) 0.9453(5) 0.1855(9)
O1B O 1.1145(5) 0.0143(5) 0.0350(8)
O2B O 1.1166(5) 0.4923(5) 0.2228(9)
C1B C 1.3384(10) 0.1461(11) -0.1393(17)
H1B H 1.3307 0.1445 -0.2183
H2B H 1.3802 0.1191 -0.1227
C2B C 1.3573(8) 0.3623(9) -0.0384(15)
C3B C 1.3443(11) 0.3435(11) -0.1442(14)
C4B C 1.3578(8) 0.4357(9) 0.0026(18)
H3B H 1.3615 0.4678 -0.0591
H4B H 1.3981 0.4429 0.0501
C5B C 1.3699(8) 0.2404(9) 0.0051(16)
C6B C 1.3337(9) 0.2792(10) -0.1769(16)
C7B C 1.3489(9) 0.2248(11) -0.1009(15)
C8B C 1.3745(9) 0.3091(10) 0.0353(15)
C9B C 1.3892(9) 0.3223(10) 0.1586(16)
H5B H 1.4084 0.3685 0.1679
H6B H 1.4220 0.2882 0.1852
H7B H 1.3462 0.3186 0.1995
C10B C 1.1732(8) 0.4424(10) 0.0753(18)
H8B H 1.1310 0.4256 0.0473
C11B C 1.1721(8) 0.4804(11) 0.1729(14)
C12B C 1.2308(9) 0.4294(11) 0.021(2)
H9B H 1.2297 0.4062 -0.0463
N1B N 1.2919(7) 0.4504(8) 0.0655(14)
C13B C 1.2363(8) 0.4957(8) 0.2170(17)
H10B H 1.2392 0.5121 0.2891
C14B C 1.2333(7) 0.0204(10) 0.0127(17)
H11B H 1.2406 -0.0218 0.0493
C15B C 1.1660(9) 0.0492(9) 0.0016(16)
N3B N 1.2826(7) 0.1185(8) -0.0860(14)
C16B C 1.1609(9) 0.1185(11) -0.0532(16)
H12B H 1.1183 0.1421 -0.0579
C17B C 1.3304(13) 0.4022(11) -0.225(2)
H13B H 1.2807 0.4088 -0.2323
H14B H 1.3503 0.3905 -0.2950
H15B H 1.3514 0.4446 -0.1977
C18B C 1.3089(13) 0.2642(12) -0.2953(19)
H16B H 1.2846 0.3045 -0.3235
H17B H 1.2778 0.2246 -0.2950
H18B H 1.3487 0.2542 -0.3411
C19B C 1.3894(8) 0.1813(10) 0.0868(17)
H19B H 1.3703 0.1377 0.0613
H20B H 1.3705 0.1921 0.1582
H21B H 1.4395 0.1776 0.0917
C20B C 1.2173(9) 0.1449(10) -0.0940(19)
H22B H 1.2125 0.1866 -0.1331
C21B C 1.2957(8) 0.4873(9) 0.1570(14)
H23B H 1.3379 0.5069 0.1799
C22B C 1.2858(10) 0.0559(10) -0.0313(17)
H24B H 1.3301 0.0359 -0.0242
O1C O 1.0143(5) 0.8855(5) -0.0350(8)
O2C O 1.4923(5) 0.8834(5) -0.2228(9)
C1C C 1.1461(11) 0.6616(10) 0.1393(17)
H1C H 1.1445 0.6693 0.2183
H2C H 1.1191 0.6198 0.1227
C2C C 1.3623(9) 0.6427(8) 0.0384(15)
C3C C 1.3435(11) 0.6557(11) 0.1442(14)
C4C C 1.4357(9) 0.6422(8) -0.0026(18)
H3C H 1.4678 0.6385 0.0591
H4C H 1.4429 0.6019 -0.0501
C5C C 1.2404(9) 0.6301(8) -0.0051(16)
C6C C 1.2792(10) 0.6663(9) 0.1769(16)
C7C C 1.2248(11) 0.6511(9) 0.1009(15)
C8C C 1.3091(10) 0.6255(9) -0.0353(15)
C9C C 1.3223(10) 0.6108(9) -0.1586(16)
H5C H 1.3685 0.5916 -0.1679
H6C H 1.2882 0.5780 -0.1852
H7C H 1.3186 0.6538 -0.1995
C10C C 1.4424(10) 0.8268(8) -0.0753(18)
H8C H 1.4256 0.8690 -0.0473
C11C C 1.4804(11) 0.8279(8) -0.1729(14)
C12C C 1.4294(11) 0.7692(9) -0.021(2)
H9C H 1.4062 0.7703 0.0463
N1C N 1.4504(8) 0.7081(7) -0.0655(14)
C13C C 1.4957(8) 0.7637(8) -0.2170(17)
H10C H 1.5121 0.7608 -0.2891
C14C C 1.0204(10) 0.7667(7) -0.0127(17)
H11C H 0.9782 0.7594 -0.0493
C15C C 1.0492(9) 0.8340(9) -0.0016(16)
N3C N 1.1185(8) 0.7174(7) 0.0860(14)
C16C C 1.1185(11) 0.8391(9) 0.0532(16)
H12C H 1.1421 0.8817 0.0579
C17C C 1.4022(11) 0.6696(13) 0.225(2)
H13C H 1.4088 0.7193 0.2323
H14C H 1.3905 0.6497 0.2950
H15C H 1.4446 0.6486 0.1977
C18C C 1.2642(12) 0.6911(13) 0.2953(19)
H16C H 1.3045 0.7154 0.3235
H17C H 1.2246 0.7222 0.2950
H18C H 1.2542 0.6513 0.3411
C19C C 1.1813(10) 0.6106(8) -0.0868(17)
H19C H 1.1377 0.6297 -0.0613
H20C H 1.1921 0.6295 -0.1582
H21C H 1.1776 0.5605 -0.0917
C20C C 1.1449(10) 0.7827(9) 0.0940(19)
H22C H 1.1866 0.7875 0.1331
C21C C 1.4873(9) 0.7043(8) -0.1570(14)
H23C H 1.5069 0.6621 -0.1799
C22C C 1.0559(10) 0.7142(10) 0.0313(17)
H24C H 1.0359 0.6699 0.0242
N2E N 1.0000 0.5000 0.0111(18)
O4E O 0.9897(6) 0.4466(5) 0.0665(9)
O6E O 1.0000 0.5000 -0.083(2)
O4G O 1.0103(6) 0.5534(5) 0.0665(9)
Gd1_2 Gd 1.0000 0.0000 0.0000
O1B_2 O 1.1145(5) 1.0143(5) 0.0350(8)
Gd2A Gd 0.5000 1.0000 -0.2500
Gd2A_2 Gd 1.5000 1.0000 -0.2500
O2E O 1.0077(5) 0.6166(5) 0.2772(9)
O2G O 0.9923(5) 0.3834(5) 0.2772(9)
loop_
_geom_bond_atom_site_label_1
_geom_bond_atom_site_label_2
_geom_bond_site_symmetry_1
_geom_bond_site_symmetry_2
Gd1 O1 1_555 1_555
O1 C15 1_555 1_555
Gd2 O2 1_555 1_555
O2 C11 1_555 1_555
C1 H1 1_555 1_555
H2 C1 1_555 1_555
C2 C3 1_555 1_555
C3 C6 1_555 1_555
C4 C2 1_555 1_555
H3 C4 1_555 1_555
H4 C4 1_555 1_555
C5 C7 1_555 1_555
C6 C7 1_555 1_555
C7 C1 1_555 1_555
C8 C2 1_555 1_555
C9 C8 1_555 1_555
H5 C9 1_555 1_555
H6 C9 1_555 1_555
H7 C9 1_555 1_555
C10 H8 1_555 1_555
C11 C10 1_555 1_555
C12 C10 1_555 1_555
H9 C12 1_555 1_555
N1 C4 1_555 1_555
N2 O4 1_555 1_555
O3 Gd1 1_555 1_555
O4 Gd2 1_555 1_555
C13 C11 1_555 1_555
H10 C13 1_555 1_555
C14 H11 1_555 1_555
C15 C14 1_555 1_555
N3 C1 1_555 1_555
C16 C15 1_555 1_555
H12 C16 1_555 1_555
C17 C3 1_555 1_555
H13 C17 1_555 1_555
H14 C17 1_555 1_555
H15 C17 1_555 1_555
C18 C6 1_555 1_555
H16 C18 1_555 1_555
H17 C18 1_555 1_555
H18 C18 1_555 1_555
O5 N4 1_555 1_555
O6 N2 1_555 1_555
N4 O3 1_555 1_555
C19 C5 1_555 1_555
H19 C19 1_555 1_555
H20 C19 1_555 1_555
H21 C19 1_555 1_555
C20 N3 1_555 1_555
H22 C20 1_555 1_555
C21 N1 1_555 1_555
H23 C21 1_555 1_555
C22 C14 1_555 1_555
H24 C22 1_555 1_555
O4B Gd2 1_555 1_555
O3B Gd1 1_555 1_555
O1A Gd1 1_555 1_555
O2A C11A 1_555 1_555
C1A H1A 1_555 1_555
H2A C1A 1_555 1_555
C2A C3A 1_555 1_555
C3A C6A 1_555 1_555
C4A C2A 1_555 1_555
H3A C4A 1_555 1_555
H4A C4A 1_555 1_555
C5A C7A 1_555 1_555
C6A C7A 1_555 1_555
C7A C1A 1_555 1_555
C8A C2A 1_555 1_555
C9A C8A 1_555 1_555
H5A C9A 1_555 1_555
H6A C9A 1_555 1_555
H7A C9A 1_555 1_555
C10A H8A 1_555 1_555
C11A C10A 1_555 1_555
C12A C10A 1_555 1_555
H9A C12A 1_555 1_555
N1A C4A 1_555 1_555
O3A Gd1 1_555 1_555
C13A C11A 1_555 1_555
H10A C13A 1_555 1_555
C14A H11A 1_555 1_555
C15A O1A 1_555 1_555
N3A C1A 1_555 1_555
C16A C15A 1_555 1_555
H12A C16A 1_555 1_555
C17A C3A 1_555 1_555
H13A C17A 1_555 1_555
H14A C17A 1_555 1_555
H15A C17A 1_555 1_555
C18A C6A 1_555 1_555
H16A C18A 1_555 1_555
H17A C18A 1_555 1_555
H18A C18A 1_555 1_555
O5A N4A 1_555 1_555
N4A O3A 1_555 1_555
C19A C5A 1_555 1_555
H19A C19A 1_555 1_555
H20A C19A 1_555 1_555
H21A C19A 1_555 1_555
C20A N3A 1_555 1_555
H22A C20A 1_555 1_555
C21A N1A 1_555 1_555
H23A C21A 1_555 1_555
C22A C14A 1_555 1_555
H24A C22A 1_555 1_555
O3C Gd1 1_555 1_555
O1B C15B 1_555 1_555
O2B Gd2 1_555 1_555
C1B H1B 1_555 1_555
H2B C1B 1_555 1_555
C2B C3B 1_555 1_555
C3B C6B 1_555 1_555
C4B C2B 1_555 1_555
H3B C4B 1_555 1_555
H4B C4B 1_555 1_555
C5B C7B 1_555 1_555
C6B C7B 1_555 1_555
C7B C1B 1_555 1_555
C8B C2B 1_555 1_555
C9B C8B 1_555 1_555
H5B C9B 1_555 1_555
H6B C9B 1_555 1_555
H7B C9B 1_555 1_555
C10B H8B 1_555 1_555
C11B O2B 1_555 1_555
C12B C10B 1_555 1_555
H9B C12B 1_555 1_555
N1B C4B 1_555 1_555
C13B C11B 1_555 1_555
H10B C13B 1_555 1_555
C14B H11B 1_555 1_555
C15B C14B 1_555 1_555
N3B C1B 1_555 1_555
C16B C15B 1_555 1_555
H12B C16B 1_555 1_555
C17B C3B 1_555 1_555
H13B C17B 1_555 1_555
H14B C17B 1_555 1_555
H15B C17B 1_555 1_555
C18B C6B 1_555 1_555
H16B C18B 1_555 1_555
H17B C18B 1_555 1_555
H18B C18B 1_555 1_555
C19B C5B 1_555 1_555
H19B C19B 1_555 1_555
H20B C19B 1_555 1_555
H21B C19B 1_555 1_555
C20B N3B 1_555 1_555
H22B C20B 1_555 1_555
C21B N1B 1_555 1_555
H23B C21B 1_555 1_555
C22B C14B 1_555 1_555
H24B C22B 1_555 1_555
O1C Gd1 1_555 1_555
O2C C11C 1_555 1_555
C1C H1C 1_555 1_555
H2C C1C 1_555 1_555
C2C C3C 1_555 1_555
C3C C6C 1_555 1_555
C4C C2C 1_555 1_555
H3C C4C 1_555 1_555
H4C C4C 1_555 1_555
C5C C7C 1_555 1_555
C6C C7C 1_555 1_555
C7C C1C 1_555 1_555
C8C C2C 1_555 1_555
C9C C8C 1_555 1_555
H5C C9C 1_555 1_555
H6C C9C 1_555 1_555
H7C C9C 1_555 1_555
C10C H8C 1_555 1_555
C11C C10C 1_555 1_555
C12C C10C 1_555 1_555
H9C C12C 1_555 1_555
N1C C4C 1_555 1_555
C13C C11C 1_555 1_555
H10C C13C 1_555 1_555
C14C H11C 1_555 1_555
C15C O1C 1_555 1_555
N3C C1C 1_555 1_555
C16C C15C 1_555 1_555
H12C C16C 1_555 1_555
C17C C3C 1_555 1_555
H13C C17C 1_555 1_555
H14C C17C 1_555 1_555
H15C C17C 1_555 1_555
C18C C6C 1_555 1_555
H16C C18C 1_555 1_555
H17C C18C 1_555 1_555
H18C C18C 1_555 1_555
C19C C5C 1_555 1_555
H19C C19C 1_555 1_555
H20C C19C 1_555 1_555
H21C C19C 1_555 1_555
C20C N3C 1_555 1_555
H22C C20C 1_555 1_555
C21C N1C 1_555 1_555
H23C C21C 1_555 1_555
C22C C14C 1_555 1_555
H24C C22C 1_555 1_555
N2E O4E 1_555 1_555
O4E Gd2 1_555 1_555
O6E N2E 1_555 1_555
O4G Gd2 1_555 1_555
Gd1_2 O1B 1_555 1_555
O1B_2 Gd1 1_555 1_555
Gd2A O2A 1_555 1_555
Gd2A_2 O2C 1_555 1_555
O2E Gd2 1_555 1_555
O2G Gd2 1_555 1_555
C5 C8 1_555 1_555
C12 N1 1_555 1_555
N2 O4B 1_555 1_555
C13 C21 1_555 1_555
N3 C22 1_555 1_555
C16 C20 1_555 1_555
N4 O3B 1_555 1_555
C5A C8A 1_555 1_555
C12A N1A 1_555 1_555
C13A C21A 1_555 1_555
C14A C15A 1_555 1_555
N3A C22A 1_555 1_555
C16A C20A 1_555 1_555
N4A O3C 1_555 1_555
C5B C8B 1_555 1_555
C10B C11B 1_555 1_555
C12B N1B 1_555 1_555
C13B C21B 1_555 1_555
N3B C22B 1_555 1_555
C16B C20B 1_555 1_555
C5C C8C 1_555 1_555
C12C N1C 1_555 1_555
C13C C21C 1_555 1_555
C14C C15C 1_555 1_555
N3C C22C 1_555 1_555
C16C C20C 1_555 1_555
N2E O4G 1_555 1_555

#END
