
#######################################################################
#
#                 Cambridge Crystallographic Data Centre
#                                CCDC 
#
#######################################################################
#
# If this CIF has been generated from an entry in the Cambridge 
# Structural Database, then it will include bibliographic, chemical, 
# crystal, experimental, refinement or atomic coordinate data resulting 
# from the CCDC's data processing and validation procedures.
#
#######################################################################

data_HUPMIQ
_symmetry_cell_setting           monoclinic
_symmetry_space_group_name_H-M   'P 21/c'
_symmetry_Int_Tables_number      14
_space_group_name_Hall           '-P 2ybc'
loop_
_symmetry_equiv_pos_site_id
_symmetry_equiv_pos_as_xyz
1 x,y,z
2 -x,1/2+y,1/2-z
3 -x,-y,-z
4 x,1/2-y,1/2+z
_cell_length_a                   6.9826(14)
_cell_length_b                   14.909(3)
_cell_length_c                   10.417(2)
_cell_angle_alpha                90
_cell_angle_beta                 99.30(3)
_cell_angle_gamma                90
_cell_volume                     1070.19
loop_
_atom_site_label
_atom_site_type_symbol
_atom_site_fract_x
_atom_site_fract_y
_atom_site_fract_z
Cd1 Cd 1.09837(2) 0.419420(9) 0.885556(13)
O1 O 0.8988(2) 0.34246(10) 0.70747(14)
O2 O 0.9189(2) 0.48880(10) 0.70522(13)
N1 N 0.6301(3) 0.57986(12) 0.24347(18)
H1 H 0.5419 0.5845 0.1887
H2 H 0.7467 0.5788 0.2476
C1 C 0.7421(3) 0.41798(13) 0.51757(19)
C2 C 0.7286(3) 0.49751(13) 0.44631(18)
H3 H 0.7863 0.5495 0.4838
C3 C 0.6293(3) 0.49936(14) 0.31959(19)
C4 C 0.5377(3) 0.42283(15) 0.2655(2)
H4 H 0.4691 0.4241 0.1812
C5 C 0.5484(3) 0.34416(16) 0.3374(2)
H5 H 0.4851 0.2930 0.3011
C6 C 0.6526(3) 0.34069(15) 0.46300(19)
H6 H 0.6620 0.2873 0.5098
C7 C 0.8586(3) 0.41576(12) 0.65194(19)
Cl1 Cl 1.22899(8) 0.28509(3) 1.01487(5)
Cl2 Cl 1.21971(7) 0.56519(3) 1.00010(5)
Cd1B Cd 0.90163(2) 0.580580(9) 0.114444(13)
Cd1B_2 Cd 0.90163(2) 0.580580(9) 1.114444(13)
N1B N 1.3699(3) 0.42014(12) 0.75653(18)
Cl2B Cl 0.78029(7) 0.43481(3) 0.99990(5)
N2 N 0.9857(3) 0.66845(12) 0.73207(18)
H7 H 0.9638 0.6106 0.7263
H8 H 0.9365 0.6853 0.8009
H9 H 1.1022 0.6776 0.7489
H10 H 0.9346 0.6972 0.6663
loop_
_geom_bond_atom_site_label_1
_geom_bond_atom_site_label_2
_geom_bond_site_symmetry_1
_geom_bond_site_symmetry_2
Cd1 O1 1_555 1_555
O1 C7 1_555 1_555
O2 Cd1 1_555 1_555
N1 H1 1_555 1_555
H2 N1 1_555 1_555
C1 C2 1_555 1_555
C2 H3 1_555 1_555
C3 N1 1_555 1_555
C4 C3 1_555 1_555
H4 C4 1_555 1_555
C5 C4 1_555 1_555
H5 C5 1_555 1_555
C6 C1 1_555 1_555
H6 C6 1_555 1_555
C7 O2 1_555 1_555
Cl1 Cd1 1_555 1_555
Cl2 Cd1 1_555 1_555
N2 H7 1_555 1_555
H8 N2 1_555 1_555
H9 N2 1_555 1_555
H10 N2 1_555 1_555
Cd1B N1 1_555 1_555
Cd1B_2 Cl2 1_555 1_555
N1B Cd1 1_555 1_555
Cl2B Cd1 1_555 1_555
C1 C7 1_555 1_555
C2 C3 1_555 1_555
C5 C6 1_555 1_555
Cd1B_2 Cl2B 1_555 1_555

#END
