
#######################################################################
#
#                 Cambridge Crystallographic Data Centre
#                                CCDC 
#
#######################################################################
#
# If this CIF has been generated from an entry in the Cambridge 
# Structural Database, then it will include bibliographic, chemical, 
# crystal, experimental, refinement or atomic coordinate data resulting 
# from the CCDC's data processing and validation procedures.
#
#######################################################################

data_HUPQEQ
_symmetry_cell_setting           rhombohedral
_symmetry_space_group_name_H-M   'R -3'
_symmetry_Int_Tables_number      148
_space_group_name_Hall           '-R 3'
loop_
_symmetry_equiv_pos_site_id
_symmetry_equiv_pos_as_xyz
1 x,y,z
2 -y,x-y,z
3 -x+y,-x,z
4 2/3+x,1/3+y,1/3+z
5 2/3-y,1/3+x-y,1/3+z
6 2/3-x+y,1/3-x,1/3+z
7 1/3+x,2/3+y,2/3+z
8 1/3-y,2/3+x-y,2/3+z
9 1/3-x+y,2/3-x,2/3+z
10 -x,-y,-z
11 y,-x+y,-z
12 x-y,x,-z
13 1/3-x,2/3-y,2/3-z
14 1/3+y,2/3-x+y,2/3-z
15 1/3+x-y,2/3+x,2/3-z
16 2/3-x,1/3-y,1/3-z
17 2/3+y,1/3-x+y,1/3-z
18 2/3+x-y,1/3+x,1/3-z
_cell_length_a                   29.706(2)
_cell_length_b                   29.706(2)
_cell_length_c                   7.8313(9)
_cell_angle_alpha                90
_cell_angle_beta                 90
_cell_angle_gamma                120
_cell_volume                     5984.84
loop_
_atom_site_label
_atom_site_type_symbol
_atom_site_fract_x
_atom_site_fract_y
_atom_site_fract_z
Zn1 Zn 0.4047(3) 0.7024(3) -0.2527(8)
Zn2 Zn 0.3333 0.6667 -0.0829(17)
O1 O 0.3333 0.6667 -0.3333
O2 O 0.3617(13) 0.6215(9) -0.020(3)
O3 O 0.4197(9) 0.6478(9) -0.154(3)
O4 O 0.3921(9) 0.3604(9) 0.072(3)
O5 O 0.4260(9) 0.3164(9) 0.284(3)
C1 C 0.3912(14) 0.6103(14) -0.083(4)
C2 C 0.4151(14) 0.5867(14) 0.039(4)
C3 C 0.4624(15) 0.5942(15) 0.024(5)
H1 H 0.4820 0.6138 -0.0683
C4 C 0.4851(14) 0.5761(13) 0.132(4)
H2 H 0.5198 0.5856 0.1158
C5 C 0.4595(14) 0.5460(14) 0.255(4)
C6 C 0.4082(13) 0.5349(14) 0.283(4)
H3 H 0.3868 0.5118 0.3664
C7 C 0.3918(14) 0.5625(14) 0.172(4)
H4 H 0.3614 0.5624 0.2003
C8 C 0.4831(14) 0.5266(14) 0.381(4)
C9 C 0.5121(14) 0.5522(14) 0.526(4)
C10 C 0.4668(13) 0.4720(14) 0.363(4)
C11 C 0.4338(14) 0.4430(13) 0.233(4)
H5 H 0.4480 0.4619 0.1269
H6 H 0.4008 0.4415 0.2514
C12 C 0.4234(14) 0.3924(14) 0.207(4)
C13 C 0.3723(13) 0.3828(14) -0.048(4)
H7 H 0.3959 0.3970 -0.1430
H8 H 0.3689 0.4098 0.0063
H9 H 0.3389 0.3564 -0.0889
C14 C 0.4411(14) 0.3673(13) 0.326(4)
C15 C 0.4729(13) 0.3936(14) 0.447(4)
H10 H 0.4862 0.3779 0.5178
C16 C 0.4446(13) 0.2900(13) 0.383(4)
H11 H 0.4292 0.2547 0.3441
H12 H 0.4356 0.2904 0.5004
H13 H 0.4817 0.3067 0.3719
O2I O 0.6383(13) 0.3785(9) 1.020(3)
O3I O 0.5803(9) 0.3522(9) 1.154(3)
O4I O 0.6079(9) 0.6396(9) 0.928(3)
O5I O 0.5740(9) 0.6836(9) 0.716(3)
C1I C 0.6088(14) 0.3897(14) 1.083(4)
C2I C 0.5849(14) 0.4133(14) 0.961(4)
C3I C 0.5376(15) 0.4058(15) 0.976(5)
H1I H 0.5180 0.3862 1.0683
C4I C 0.5149(14) 0.4239(13) 0.868(4)
H2I H 0.4802 0.4144 0.8842
C5I C 0.5405(14) 0.4540(14) 0.745(4)
C6I C 0.5918(13) 0.4651(14) 0.717(4)
H3I H 0.6132 0.4882 0.6336
C7I C 0.6082(14) 0.4375(14) 0.828(4)
H4I H 0.6386 0.4376 0.7997
C8I C 0.5169(14) 0.4734(14) 0.619(4)
C9I C 0.4879(14) 0.4478(14) 0.474(4)
C10I C 0.5332(13) 0.5280(14) 0.637(4)
C11I C 0.5662(14) 0.5570(13) 0.767(4)
H5I H 0.5520 0.5381 0.8731
H6I H 0.5992 0.5585 0.7486
C12I C 0.5766(14) 0.6076(14) 0.793(4)
C13I C 0.6277(13) 0.6172(14) 1.048(4)
H7I H 0.6041 0.6030 1.1430
H8I H 0.6311 0.5902 0.9937
H9I H 0.6611 0.6436 1.0889
C14I C 0.5589(14) 0.6327(13) 0.674(4)
C15I C 0.5271(13) 0.6064(14) 0.553(4)
H10I H 0.5138 0.6221 0.4822
C16I C 0.5554(13) 0.7100(13) 0.617(4)
H11I H 0.5708 0.7453 0.6559
H12I H 0.5644 0.7096 0.4996
H13I H 0.5183 0.6933 0.6281
Zn1A Zn 0.2976(3) 0.7023(4) -0.2527(8)
O2A O 0.3785(9) 0.7402(16) -0.020(3)
O3A O 0.3522(9) 0.7719(13) -0.154(3)
O4A O 0.6396(9) 1.0317(13) 0.072(3)
O5A O 0.6836(9) 1.1096(13) 0.284(3)
C1A C 0.3897(14) 0.7809(20) -0.083(4)
C2A C 0.4133(14) 0.8284(20) 0.039(4)
C3A C 0.4058(15) 0.8682(21) 0.024(5)
H1A H 0.3862 0.8682 -0.0683
C4A C 0.4239(13) 0.9090(19) 0.132(4)
H2A H 0.4144 0.9342 0.1158
C5A C 0.4540(14) 0.9135(20) 0.255(4)
C6A C 0.4651(14) 0.8733(19) 0.283(4)
H3A H 0.4882 0.8750 0.3664
C7A C 0.4375(14) 0.8293(20) 0.172(4)
H4A H 0.4376 0.7990 0.2003
C8A C 0.4734(14) 0.9565(20) 0.381(4)
C9A C 0.4478(14) 0.9599(20) 0.526(4)
C10A C 0.5280(14) 0.9948(19) 0.363(4)
C11A C 0.5570(13) 0.9908(19) 0.233(4)
H5A H 0.5381 0.9861 0.1269
H6A H 0.5585 0.9593 0.2514
C12A C 0.6076(14) 1.0310(20) 0.207(4)
C13A C 0.6172(14) 0.9895(19) -0.048(4)
H7A H 0.6030 0.9989 -0.1430
H8A H 0.5902 0.9591 0.0063
H9A H 0.6436 0.9825 -0.0889
C14A C 0.6327(13) 1.0738(19) 0.326(4)
C15A C 0.6064(14) 1.0793(19) 0.447(4)
H10A H 0.6221 1.1083 0.5178
C16A C 0.7100(13) 1.1546(18) 0.383(4)
H11A H 0.7453 1.1745 0.3441
H12A H 0.7096 1.1452 0.5004
H13A H 0.6933 1.1750 0.3719
O2J O 0.6215(9) 1.2598(16) 1.020(3)
O3J O 0.6478(9) 1.2281(13) 1.154(3)
O4J O 0.3604(9) 0.9683(13) 0.928(3)
O5J O 0.3164(9) 0.8904(13) 0.716(3)
C1J C 0.6103(14) 1.2191(20) 1.083(4)
C2J C 0.5867(14) 1.1716(20) 0.961(4)
C3J C 0.5942(15) 1.1318(21) 0.976(5)
H1J H 0.6138 1.1318 1.0683
C4J C 0.5761(13) 1.0910(19) 0.868(4)
H2J H 0.5856 1.0658 0.8842
C5J C 0.5460(14) 1.0865(20) 0.745(4)
C6J C 0.5349(14) 1.1267(19) 0.717(4)
H3J H 0.5118 1.1250 0.6336
C7J C 0.5625(14) 1.1707(20) 0.828(4)
H4J H 0.5624 1.2010 0.7997
C8J C 0.5266(14) 1.0435(20) 0.619(4)
C9J C 0.5522(14) 1.0401(20) 0.474(4)
C10J C 0.4720(14) 1.0052(19) 0.637(4)
C11J C 0.4430(13) 1.0092(19) 0.767(4)
H5J H 0.4619 1.0139 0.8731
H6J H 0.4415 1.0407 0.7486
C12J C 0.3924(14) 0.9690(20) 0.793(4)
C13J C 0.3828(14) 1.0105(19) 1.048(4)
H7J H 0.3970 1.0011 1.1430
H8J H 0.4098 1.0409 0.9937
H9J H 0.3564 1.0175 1.0889
C14J C 0.3673(13) 0.9262(19) 0.674(4)
C15J C 0.3936(14) 0.9207(19) 0.553(4)
H10J H 0.3779 0.8917 0.4822
C16J C 0.2900(13) 0.8454(18) 0.617(4)
H11J H 0.2547 0.8255 0.6559
H12J H 0.2904 0.8548 0.4996
H13J H 0.3067 0.8250 0.6281
Zn1B Zn 0.2977(4) 0.5953(3) -0.2527(8)
O2B O 0.2598(16) 0.6383(13) -0.020(3)
O3B O 0.2281(13) 0.5803(9) -0.154(3)
O4B O -0.0317(13) 0.6079(9) 0.072(3)
O5B O -0.1096(13) 0.5740(9) 0.284(3)
C1B C 0.2191(20) 0.6088(14) -0.083(4)
C2B C 0.1716(20) 0.5849(14) 0.039(4)
C3B C 0.1318(21) 0.5376(15) 0.024(5)
H1B H 0.1318 0.5180 -0.0683
C4B C 0.0910(19) 0.5149(14) 0.132(4)
H2B H 0.0658 0.4802 0.1158
C5B C 0.0865(20) 0.5405(14) 0.255(4)
C6B C 0.1267(19) 0.5918(13) 0.283(4)
H3B H 0.1250 0.6132 0.3664
C7B C 0.1707(20) 0.6082(14) 0.172(4)
H4B H 0.2010 0.6386 0.2003
C8B C 0.0435(20) 0.5169(14) 0.381(4)
C9B C 0.0401(20) 0.4879(14) 0.526(4)
C10B C 0.0052(19) 0.5332(13) 0.363(4)
C11B C 0.0092(19) 0.5662(14) 0.233(4)
H5B H 0.0139 0.5520 0.1269
H6B H 0.0407 0.5992 0.2514
C12B C -0.0310(20) 0.5766(14) 0.207(4)
C13B C 0.0105(19) 0.6277(13) -0.048(4)
H7B H 0.0011 0.6041 -0.1430
H8B H 0.0409 0.6311 0.0063
H9B H 0.0175 0.6611 -0.0889
C14B C -0.0738(19) 0.5589(14) 0.326(4)
C15B C -0.0793(19) 0.5271(13) 0.447(4)
H10B H -0.1083 0.5138 0.5178
C16B C -0.1546(18) 0.5554(13) 0.383(4)
H11B H -0.1745 0.5708 0.3441
H12B H -0.1452 0.5644 0.5004
H13B H -0.1750 0.5183 0.3719
O2K O -0.2598(16) 0.3617(13) 1.020(3)
O3K O -0.2281(13) 0.4197(9) 1.154(3)
O4K O 0.0317(13) 0.3921(9) 0.928(3)
O5K O 0.1096(13) 0.4260(9) 0.716(3)
C1K C -0.2191(20) 0.3912(14) 1.083(4)
C2K C -0.1716(20) 0.4151(14) 0.961(4)
C3K C -0.1318(21) 0.4624(15) 0.976(5)
H1K H -0.1318 0.4820 1.0683
C4K C -0.0910(19) 0.4851(14) 0.868(4)
H2K H -0.0658 0.5198 0.8842
C5K C -0.0865(20) 0.4595(14) 0.745(4)
C6K C -0.1267(19) 0.4082(13) 0.717(4)
H3K H -0.1250 0.3868 0.6336
C7K C -0.1707(20) 0.3918(14) 0.828(4)
H4K H -0.2010 0.3614 0.7997
C8K C -0.0435(20) 0.4831(14) 0.619(4)
C9K C -0.0401(20) 0.5121(14) 0.474(4)
C10K C -0.0052(19) 0.4668(13) 0.637(4)
C11K C -0.0092(19) 0.4338(14) 0.767(4)
H5K H -0.0139 0.4480 0.8731
H6K H -0.0407 0.4008 0.7486
C12K C 0.0310(20) 0.4234(14) 0.793(4)
C13K C -0.0105(19) 0.3723(13) 1.048(4)
H7K H -0.0011 0.3959 1.1430
H8K H -0.0409 0.3689 0.9937
H9K H -0.0175 0.3389 1.0889
C14K C 0.0738(19) 0.4411(14) 0.674(4)
C15K C 0.0793(19) 0.4729(13) 0.553(4)
H10K H 0.1083 0.4862 0.4822
C16K C 0.1546(18) 0.4446(13) 0.617(4)
H11K H 0.1745 0.4292 0.6559
H12K H 0.1452 0.4356 0.4996
H13K H 0.1750 0.4817 0.6281
Zn1I Zn 0.5953(3) 0.2976(3) 1.2527(8)
Zn2I Zn 0.6667 0.3333 1.0829(17)
Zn1J Zn 0.7024(3) 0.2977(4) 1.2527(8)
Zn1K Zn -0.2977(4) 0.4047(3) 1.2527(8)
Zn1F Zn -0.2620(3) 0.3691(3) 1.4140(8)
Zn1F_2 Zn 0.7380(3) 0.3691(3) 1.4140(8)
Zn1G Zn -0.3691(3) 0.3690(4) 1.4140(8)
Zn1G_2 Zn 0.6309(3) 0.3690(4) 1.4140(8)
Zn1H Zn 0.6310(4) 0.2620(3) 1.4140(8)
Zn1H_2 Zn 0.6310(4) 1.2620(3) 1.4140(8)
Zn1I_2 Zn 0.5953(3) 1.2976(3) 1.2527(8)
Zn1J_2 Zn -0.2976(3) 0.2977(4) 1.2527(8)
Zn1J_3 Zn 0.7024(3) 1.2977(4) 1.2527(8)
Zn1K_2 Zn 0.7023(4) 0.4047(3) 1.2527(8)
Zn1O Zn 0.2620(3) 0.6309(3) -0.4140(8)
Zn1P Zn 0.3691(3) 0.6310(4) -0.4140(8)
Zn1Q Zn 0.3690(4) 0.7380(3) -0.4140(8)
Zn2I_2 Zn -0.3333 0.3333 1.0829(17)
Zn2I_3 Zn 0.6667 1.3333 1.0829(17)
Zn2O Zn 0.3334 0.6666 -0.5838(17)
O1F O -0.3334 0.3334 1.3334
O1F_2 O 0.6666 0.3334 1.3334
O2I_2 O -0.3617(13) 0.3785(9) 1.020(3)
O2J_2 O 0.6215(9) 0.2598(16) 1.020(3)
O2K_2 O 0.7402(16) 0.3617(13) 1.020(3)
O3F O 0.7530(9) 0.3145(9) 1.513(3)
O3G O -0.3145(9) 0.4386(13) 1.513(3)
O3H O 0.5614(13) 0.2470(9) 1.513(3)
O3J_2 O 0.6478(9) 0.2281(13) 1.154(3)
O3O O 0.2470(9) 0.6855(9) -0.513(3)
O3P O 0.3145(9) 0.5614(13) -0.513(3)
O3Q O 0.4386(13) 0.7530(9) -0.513(3)
loop_
_geom_bond_atom_site_label_1
_geom_bond_atom_site_label_2
_geom_bond_site_symmetry_1
_geom_bond_site_symmetry_2
Zn1 Zn2 1_555 1_555
Zn2 O1 1_555 1_555
O1 Zn1 1_555 1_555
O2 Zn2 1_555 1_555
O3 Zn1 1_555 1_555
O4 C12 1_555 1_555
O5 C14 1_555 1_555
C1 O2 1_555 1_555
C2 C1 1_555 1_555
C3 C2 1_555 1_555
H1 C3 1_555 1_555
C4 C3 1_555 1_555
H2 C4 1_555 1_555
C5 C4 1_555 1_555
C6 C5 1_555 1_555
H3 C6 1_555 1_555
C7 C2 1_555 1_555
H4 C7 1_555 1_555
C8 C5 1_555 1_555
C9 C8 1_555 1_555
C10 C8 1_555 1_555
C11 C10 1_555 1_555
H5 C11 1_555 1_555
H6 C11 1_555 1_555
C12 C11 1_555 1_555
C13 O4 1_555 1_555
H7 C13 1_555 1_555
H8 C13 1_555 1_555
H9 C13 1_555 1_555
C14 C12 1_555 1_555
C15 C14 1_555 1_555
H10 C15 1_555 1_555
C16 O5 1_555 1_555
H11 C16 1_555 1_555
H12 C16 1_555 1_555
H13 C16 1_555 1_555
O2I C1I 1_555 1_555
O3I C1I 1_555 1_555
O4I C12I 1_555 1_555
O5I C14I 1_555 1_555
C1I C2I 1_555 1_555
C2I C3I 1_555 1_555
C3I H1I 1_555 1_555
C4I C3I 1_555 1_555
H2I C4I 1_555 1_555
C5I C4I 1_555 1_555
C6I C5I 1_555 1_555
H3I C6I 1_555 1_555
C7I C2I 1_555 1_555
H4I C7I 1_555 1_555
C8I C5I 1_555 1_555
C9I C10 1_555 1_555
C10I C9 1_555 1_555
C11I C10I 1_555 1_555
H5I C11I 1_555 1_555
H6I C11I 1_555 1_555
C12I C11I 1_555 1_555
C13I O4I 1_555 1_555
H7I C13I 1_555 1_555
H8I C13I 1_555 1_555
H9I C13I 1_555 1_555
C14I C12I 1_555 1_555
C15I C9 1_555 1_555
H10I C15I 1_555 1_555
C16I O5I 1_555 1_555
H11I C16I 1_555 1_555
H12I C16I 1_555 1_555
H13I C16I 1_555 1_555
Zn1A Zn2 1_555 1_555
O2A Zn1 1_555 1_555
O3A Zn1A 1_555 1_555
O4A C12A 1_555 1_555
O5A C14A 1_555 1_555
C1A O2A 1_555 1_555
C2A C1A 1_555 1_555
C3A C2A 1_555 1_555
H1A C3A 1_555 1_555
C4A C3A 1_555 1_555
H2A C4A 1_555 1_555
C5A C4A 1_555 1_555
C6A C5A 1_555 1_555
H3A C6A 1_555 1_555
C7A C2A 1_555 1_555
H4A C7A 1_555 1_555
C8A C5A 1_555 1_555
C9A C8A 1_555 1_555
C10A C8A 1_555 1_555
C11A C10A 1_555 1_555
H5A C11A 1_555 1_555
H6A C11A 1_555 1_555
C12A C11A 1_555 1_555
C13A O4A 1_555 1_555
H7A C13A 1_555 1_555
H8A C13A 1_555 1_555
H9A C13A 1_555 1_555
C14A C12A 1_555 1_555
C15A C14A 1_555 1_555
H10A C15A 1_555 1_555
C16A O5A 1_555 1_555
H11A C16A 1_555 1_555
H12A C16A 1_555 1_555
H13A C16A 1_555 1_555
O2J C1J 1_555 1_555
O3J C1J 1_555 1_555
O4J C12J 1_555 1_555
O5J C14J 1_555 1_555
C1J C2J 1_555 1_555
C2J C3J 1_555 1_555
C3J H1J 1_555 1_555
C4J C3J 1_555 1_555
H2J C4J 1_555 1_555
C5J C4J 1_555 1_555
C6J C5J 1_555 1_555
H3J C6J 1_555 1_555
C7J C2J 1_555 1_555
H4J C7J 1_555 1_555
C8J C5J 1_555 1_555
C9J C10A 1_555 1_555
C10J C9A 1_555 1_555
C11J C10J 1_555 1_555
H5J C11J 1_555 1_555
H6J C11J 1_555 1_555
C12J C11J 1_555 1_555
C13J O4J 1_555 1_555
H7J C13J 1_555 1_555
H8J C13J 1_555 1_555
H9J C13J 1_555 1_555
C14J C12J 1_555 1_555
C15J C9A 1_555 1_555
H10J C15J 1_555 1_555
C16J O5J 1_555 1_555
H11J C16J 1_555 1_555
H12J C16J 1_555 1_555
H13J C16J 1_555 1_555
Zn1B Zn2 1_555 1_555
O2B Zn2 1_555 1_555
O3B Zn1B 1_555 1_555
O4B C12B 1_555 1_555
O5B C14B 1_555 1_555
C1B O2B 1_555 1_555
C2B C1B 1_555 1_555
C3B C2B 1_555 1_555
H1B C3B 1_555 1_555
C4B C3B 1_555 1_555
H2B C4B 1_555 1_555
C5B C4B 1_555 1_555
C6B C5B 1_555 1_555
H3B C6B 1_555 1_555
C7B C2B 1_555 1_555
H4B C7B 1_555 1_555
C8B C5B 1_555 1_555
C9B C8B 1_555 1_555
C10B C8B 1_555 1_555
C11B C10B 1_555 1_555
H5B C11B 1_555 1_555
H6B C11B 1_555 1_555
C12B C11B 1_555 1_555
C13B O4B 1_555 1_555
H7B C13B 1_555 1_555
H8B C13B 1_555 1_555
H9B C13B 1_555 1_555
C14B C12B 1_555 1_555
C15B C14B 1_555 1_555
H10B C15B 1_555 1_555
C16B O5B 1_555 1_555
H11B C16B 1_555 1_555
H12B C16B 1_555 1_555
H13B C16B 1_555 1_555
O2K C1K 1_555 1_555
O3K C1K 1_555 1_555
O4K C12K 1_555 1_555
O5K C14K 1_555 1_555
C1K C2K 1_555 1_555
C2K C3K 1_555 1_555
C3K H1K 1_555 1_555
C4K C3K 1_555 1_555
H2K C4K 1_555 1_555
C5K C4K 1_555 1_555
C6K C5K 1_555 1_555
H3K C6K 1_555 1_555
C7K C2K 1_555 1_555
H4K C7K 1_555 1_555
C8K C5K 1_555 1_555
C9K C10B 1_555 1_555
C10K C9B 1_555 1_555
C11K C10K 1_555 1_555
H5K C11K 1_555 1_555
H6K C11K 1_555 1_555
C12K C11K 1_555 1_555
C13K O4K 1_555 1_555
H7K C13K 1_555 1_555
H8K C13K 1_555 1_555
H9K C13K 1_555 1_555
C14K C12K 1_555 1_555
C15K C9B 1_555 1_555
H10K C15K 1_555 1_555
C16K O5K 1_555 1_555
H11K C16K 1_555 1_555
H12K C16K 1_555 1_555
H13K C16K 1_555 1_555
Zn1I O3I 1_555 1_555
Zn2I O2I 1_555 1_555
Zn1J Zn2I 1_555 1_555
Zn1K O3K 1_555 1_555
Zn1F O3K 1_555 1_555
Zn1F_2 Zn1J 1_555 1_555
Zn1G Zn1K 1_555 1_555
Zn1G_2 O3I 1_555 1_555
Zn1H Zn1I 1_555 1_555
Zn1H_2 O3J 1_555 1_555
Zn1I_2 O2J 1_555 1_555
Zn1J_2 O2K 1_555 1_555
Zn1J_3 O3J 1_555 1_555
Zn1K_2 O2I 1_555 1_555
Zn1O O1 1_555 1_555
Zn1P Zn1 1_555 1_555
Zn1Q Zn1 1_555 1_555
Zn2I_2 O2K 1_555 1_555
Zn2I_3 O2J 1_555 1_555
Zn2O O1 1_555 1_555
O1F Zn1K 1_555 1_555
O1F_2 Zn1I 1_555 1_555
O2I_2 Zn1K 1_555 1_555
O2J_2 Zn1I 1_555 1_555
O2K_2 Zn2I 1_555 1_555
O3F Zn1J 1_555 1_555
O3G Zn1K 1_555 1_555
O3H Zn1I 1_555 1_555
O3J_2 Zn1J 1_555 1_555
O3O Zn1A 1_555 1_555
O3P Zn1B 1_555 1_555
O3Q Zn1 1_555 1_555
Zn2 O2A 1_555 1_555
O1 Zn1A 1_555 1_555
O1 Zn1B 1_555 1_555
O1 Zn1P 1_555 1_555
O1 Zn1Q 1_555 1_555
O2 Zn1B 1_555 1_555
O3 C1 1_555 1_555
O3 Zn1P 1_555 1_555
C6 C7 1_555 1_555
C15 C9I 1_555 1_555
C6I C7I 1_555 1_555
C8I C9I 1_555 1_555
C8I C10I 1_555 1_555
C14I C15I 1_555 1_555
Zn1A O2B 1_555 1_555
Zn1A Zn1O 1_555 1_555
Zn1A Zn1Q 1_555 1_555
O3A C1A 1_555 1_555
O3A Zn1Q 1_555 1_555
C6A C7A 1_555 1_555
C15A C9J 1_555 1_555
C6J C7J 1_555 1_555
C8J C9J 1_555 1_555
C8J C10J 1_555 1_555
C14J C15J 1_555 1_555
Zn1B Zn1O 1_555 1_555
Zn1B Zn1P 1_555 1_555
O3B C1B 1_555 1_555
O3B Zn1O 1_555 1_555
C6B C7B 1_555 1_555
C15B C9K 1_555 1_555
C6K C7K 1_555 1_555
C8K C9K 1_555 1_555
C8K C10K 1_555 1_555
C14K C15K 1_555 1_555
Zn1I Zn2I 1_555 1_555
Zn1I Zn1G_2 1_555 1_555
Zn2I Zn1K_2 1_555 1_555
Zn2I O1F_2 1_555 1_555
Zn2I O2J_2 1_555 1_555
Zn1J Zn1H 1_555 1_555
Zn1J O1F_2 1_555 1_555
Zn1J O2K_2 1_555 1_555
Zn1K Zn1F 1_555 1_555
Zn1K Zn2I_2 1_555 1_555
Zn1F Zn1J_2 1_555 1_555
Zn1F O1F 1_555 1_555
Zn1F_2 Zn1K_2 1_555 1_555
Zn1F_2 O1F_2 1_555 1_555
Zn1F_2 O3F 1_555 1_555
Zn1G O1F 1_555 1_555
Zn1G O3G 1_555 1_555
Zn1G_2 Zn1K_2 1_555 1_555
Zn1G_2 O1F_2 1_555 1_555
Zn1H O1F_2 1_555 1_555
Zn1H O3H 1_555 1_555
Zn1H O3J_2 1_555 1_555
Zn1H_2 Zn1I_2 1_555 1_555
Zn1H_2 Zn1J_3 1_555 1_555
Zn1I_2 Zn2I_3 1_555 1_555
Zn1J_2 Zn2I_2 1_555 1_555
Zn1J_2 O1F 1_555 1_555
Zn1J_3 Zn2I_3 1_555 1_555
Zn1K_2 O1F_2 1_555 1_555
Zn1O Zn2O 1_555 1_555
Zn1O O3O 1_555 1_555
Zn1P Zn2O 1_555 1_555
Zn1P O3P 1_555 1_555
Zn1Q Zn2O 1_555 1_555
Zn1Q O3Q 1_555 1_555
Zn2I_2 O1F 1_555 1_555
Zn2I_2 O2I_2 1_555 1_555

#END
