
#######################################################################
#
#                 Cambridge Crystallographic Data Centre
#                                CCDC 
#
#######################################################################
#
# If this CIF has been generated from an entry in the Cambridge 
# Structural Database, then it will include bibliographic, chemical, 
# crystal, experimental, refinement or atomic coordinate data resulting 
# from the CCDC's data processing and validation procedures.
#
#######################################################################

data_HUPRUF
_symmetry_cell_setting           orthorhombic
_symmetry_space_group_name_H-M   'P b c m'
_symmetry_Int_Tables_number      57
_space_group_name_Hall           '-P 2c 2b'
loop_
_symmetry_equiv_pos_site_id
_symmetry_equiv_pos_as_xyz
1 x,y,z
2 x,y,1/2-z
3 x,1/2-y,1/2+z
4 -x,1/2+y,z
5 -x,-y,-z
6 -x,-y,1/2+z
7 -x,1/2+y,1/2-z
8 x,1/2-y,-z
_cell_length_a                   6.3378(8)
_cell_length_b                   10.4165(14)
_cell_length_c                   6.6061(9)
_cell_angle_alpha                90
_cell_angle_beta                 90
_cell_angle_gamma                90
_cell_volume                     436.119
loop_
_atom_site_label
_atom_site_type_symbol
_atom_site_fract_x
_atom_site_fract_y
_atom_site_fract_z
Zn1 Zn 0.74969(9) 0.28023(5) 0.2500
O1 O 0.8982(6) 0.2500 0.0000
N1 N 0.6386(6) 0.4596(4) 0.2500
C1 C 0.4494(8) 0.5174(5) 0.2500
N2 N 0.7835(7) 0.5549(5) 0.2500
N3 N 0.2638(7) 0.4565(5) 0.2500
H1 H 0.1484 0.4999 0.2500
H2 H 0.2599 0.3740 0.2500
N4 N 0.6870(8) 0.6642(4) 0.2500
N5 N 0.4767(6) 0.6446(4) 0.2500
O1A O 0.8982(6) 0.2500 0.5000
N5C N 0.5233(6) 0.1446(4) 0.2500
Zn1B Zn 0.74969(9) 0.21977(5) -0.2500
Zn1C Zn 0.25031(9) 0.78023(5) 0.2500
loop_
_geom_bond_atom_site_label_1
_geom_bond_atom_site_label_2
_geom_bond_site_symmetry_1
_geom_bond_site_symmetry_2
Zn1 O1 1_555 1_555
O1 Zn1B 1_555 1_555
N1 Zn1 1_555 1_555
C1 N1 1_555 1_555
N2 N1 1_555 1_555
N3 C1 1_555 1_555
H1 N3 1_555 1_555
H2 N3 1_555 1_555
N4 N2 1_555 1_555
N5 C1 1_555 1_555
O1A Zn1 1_555 1_555
N5C Zn1 1_555 1_555
Zn1C N5 1_555 1_555
N4 N5 1_555 1_555

#END
