
#######################################################################
#
#                 Cambridge Crystallographic Data Centre
#                                CCDC 
#
#######################################################################
#
# If this CIF has been generated from an entry in the Cambridge 
# Structural Database, then it will include bibliographic, chemical, 
# crystal, experimental, refinement or atomic coordinate data resulting 
# from the CCDC's data processing and validation procedures.
#
#######################################################################

data_HUPSOC
_symmetry_cell_setting           triclinic
_symmetry_space_group_name_H-M   'P -1'
_symmetry_Int_Tables_number      2
_space_group_name_Hall           '-P 1'
loop_
_symmetry_equiv_pos_site_id
_symmetry_equiv_pos_as_xyz
1 x,y,z
2 -x,-y,-z
_cell_length_a                   8.4538(14)
_cell_length_b                   12.667(2)
_cell_length_c                   13.596(2)
_cell_angle_alpha                95.874(3)
_cell_angle_beta                 96.709(3)
_cell_angle_gamma                101.759(3)
_cell_volume                     1403.64
loop_
_atom_site_label
_atom_site_type_symbol
_atom_site_fract_x
_atom_site_fract_y
_atom_site_fract_z
Zn1 Zn 0.37435(7) 0.29330(5) 0.47086(4)
Cl1 Cl 0.3454(2) 0.34852(15) 0.77347(10)
Cl2 Cl -0.6961(3) 0.3690(2) 1.10794(12)
O1 O 0.2039(4) 0.3357(3) 0.5451(2)
O2 O 0.2232(4) 0.5164(3) 0.5616(2)
O3 O -0.6065(4) 0.3892(3) 1.3327(2)
O4 O -0.4708(5) 0.2621(3) 1.3652(3)
O5 O 0.5642(4) 0.4059(3) 0.5548(2)
H1 H 0.6254 0.4350 0.5151
H2 H 0.5376 0.4574 0.5906
N1 N 0.4088(6) 0.1650(4) 0.5500(4)
N2 N 0.1900(6) 0.1618(5) 0.3872(4)
N3 N -0.2004(8) 0.3833(6) 0.9096(4)
N4 N -0.1280(7) 0.3698(6) 0.9857(5)
C1 C 0.2995(8) 0.0665(5) 0.5097(5)
C2 C 0.5147(8) 0.1679(5) 0.6276(5)
H3 H 0.5872 0.2355 0.6527
C3 C 0.5297(10) 0.0766(7) 0.6778(6)
H4 H 0.6086 0.0811 0.7347
C4 C 0.4194(9) -0.0204(6) 0.6368(6)
H5 H 0.4220 -0.0839 0.6680
C5 C 0.3079(9) -0.0274(6) 0.5535(6)
C6 C 0.1899(10) -0.1282(6) 0.5100(6)
H6 H 0.1873 -0.1941 0.5380
C7 C 0.0867(10) -0.1229(6) 0.4296(7)
H7 H 0.0124 -0.1888 0.4011
C8 C 0.0760(9) -0.0309(6) 0.3827(6)
C9 C -0.0282(9) -0.0257(6) 0.3009(5)
H8 H -0.1030 -0.0900 0.2693
C10 C -0.0285(9) 0.0690(7) 0.2627(5)
H9 H -0.1042 0.0714 0.2060
C11 C 0.0839(8) 0.1627(6) 0.3078(5)
H10 H 0.0843 0.2291 0.2809
C12 C 0.1912(7) 0.0719(6) 0.4256(4)
C13 C 0.1840(6) 0.4244(5) 0.5872(3)
C14 C 0.0913(6) 0.4140(5) 0.6756(3)
C15 C 0.1543(7) 0.3786(5) 0.7626(4)
C16 C 0.0659(8) 0.3679(6) 0.8420(4)
H11 H 0.1096 0.3434 0.9009
C17 C -0.0873(8) 0.3932(6) 0.8350(4)
C18 C -0.1494(7) 0.4306(6) 0.7498(4)
H12 H -0.2535 0.4487 0.7450
C19 C -0.0587(6) 0.4416(6) 0.6714(4)
H13 H -0.1008 0.4686 0.6135
C20 C -0.2379(9) 0.3599(7) 1.0650(5)
C21 C -0.4007(10) 0.3708(6) 1.0496(5)
H14 H -0.4470 0.3845 0.9863
C22 C -0.4946(8) 0.3614(6) 1.1283(4)
C23 C -0.4230(7) 0.3405(5) 1.2202(4)
C24 C -0.2594(8) 0.3307(6) 1.2301(5)
H15 H -0.2092 0.3175 1.2925
C25 C -0.1714(9) 0.3394(7) 1.1530(5)
H16 H -0.0617 0.3309 1.1617
C26 C -0.5065(6) 0.3311(5) 1.3117(4)
Zn1_2 Zn -0.62565(7) 0.29330(5) 1.47086(4)
O3_2 O 0.3935(4) 0.3892(3) 0.3327(2)
O4_2 O 0.5292(5) 0.2621(3) 0.3652(3)
loop_
_geom_bond_atom_site_label_1
_geom_bond_atom_site_label_2
_geom_bond_site_symmetry_1
_geom_bond_site_symmetry_2
Zn1 O1 1_555 1_555
Cl1 C15 1_555 1_555
Cl2 C22 1_555 1_555
O1 C13 1_555 1_555
O2 C13 1_555 1_555
O3 C26 1_555 1_555
O4 C26 1_555 1_555
O5 Zn1 1_555 1_555
H1 O5 1_555 1_555
H2 O5 1_555 1_555
N1 Zn1 1_555 1_555
N2 Zn1 1_555 1_555
N3 N4 1_555 1_555
N4 C20 1_555 1_555
C1 N1 1_555 1_555
C2 N1 1_555 1_555
H3 C2 1_555 1_555
C3 C2 1_555 1_555
H4 C3 1_555 1_555
C4 C3 1_555 1_555
H5 C4 1_555 1_555
C5 C1 1_555 1_555
C6 C5 1_555 1_555
H6 C6 1_555 1_555
C7 C6 1_555 1_555
H7 C7 1_555 1_555
C8 C7 1_555 1_555
C9 C8 1_555 1_555
H8 C9 1_555 1_555
C10 C9 1_555 1_555
H9 C10 1_555 1_555
C11 N2 1_555 1_555
H10 C11 1_555 1_555
C12 N2 1_555 1_555
C13 C14 1_555 1_555
C14 C15 1_555 1_555
C15 C16 1_555 1_555
C16 H11 1_555 1_555
C17 N3 1_555 1_555
C18 C17 1_555 1_555
H12 C18 1_555 1_555
C19 C14 1_555 1_555
H13 C19 1_555 1_555
C20 C21 1_555 1_555
C21 H14 1_555 1_555
C22 C21 1_555 1_555
C23 C22 1_555 1_555
C24 C23 1_555 1_555
H15 C24 1_555 1_555
C25 C20 1_555 1_555
H16 C25 1_555 1_555
C26 C23 1_555 1_555
Zn1_2 O3 1_555 1_555
O3_2 Zn1 1_555 1_555
O4_2 Zn1 1_555 1_555
O4 Zn1_2 1_555 1_555
C1 C12 1_555 1_555
C4 C5 1_555 1_555
C8 C12 1_555 1_555
C10 C11 1_555 1_555
C16 C17 1_555 1_555
C18 C19 1_555 1_555
C24 C25 1_555 1_555

#END
