
#######################################################################
#
#                 Cambridge Crystallographic Data Centre
#                                CCDC 
#
#######################################################################
#
# If this CIF has been generated from an entry in the Cambridge 
# Structural Database, then it will include bibliographic, chemical, 
# crystal, experimental, refinement or atomic coordinate data resulting 
# from the CCDC's data processing and validation procedures.
#
#######################################################################

data_HUPTAP
_symmetry_cell_setting           triclinic
_symmetry_space_group_name_H-M   'P -1'
_symmetry_Int_Tables_number      2
_space_group_name_Hall           '-P 1'
loop_
_symmetry_equiv_pos_site_id
_symmetry_equiv_pos_as_xyz
1 x,y,z
2 -x,-y,-z
_cell_length_a                   10.0106(9)
_cell_length_b                   11.0553(10)
_cell_length_c                   15.1837(14)
_cell_angle_alpha                69.814(2)
_cell_angle_beta                 82.810(2)
_cell_angle_gamma                72.778(2)
_cell_volume                     1505.96
loop_
_atom_site_label
_atom_site_type_symbol
_atom_site_fract_x
_atom_site_fract_y
_atom_site_fract_z
Zn1 Zn 0.63229(6) 0.31148(5) 0.39795(4)
Cl1 Cl 0.1695(2) 0.4931(3) 0.30579(14)
Cl2 Cl 0.5491(3) -0.0344(2) 0.66740(14)
O1 O 0.4601(4) 0.3510(4) 0.3305(3)
O2 O 0.6051(5) 0.3760(5) 0.2076(3)
O3 O 0.5573(4) 0.2512(4) 0.5296(3)
O4 O 0.7505(5) 0.2622(5) 0.5749(3)
N1 N 0.7584(5) 0.6442(4) 0.3740(4)
N2 N 0.7060(4) 0.4712(4) 0.3642(3)
N3 N 0.9029(5) 0.9352(4) 0.4426(3)
N4 N 0.7804(5) 1.1450(4) 0.3928(3)
N5 N 0.0614(5) 0.4817(6) -0.0129(4)
N6 N 0.5052(7) 0.0570(6) 0.9841(4)
C1 C 0.7137(6) 0.5381(5) 0.4196(4)
H1 H 0.6903 0.5132 0.4833
C2 C 0.7496(6) 0.5437(6) 0.2760(4)
H2 H 0.7545 0.5225 0.2213
C3 C 0.7828(7) 0.6473(6) 0.2827(5)
H3 H 0.8165 0.7105 0.2344
C4 C 0.7773(7) 0.7373(6) 0.4190(6)
H4 H 0.7161 0.7330 0.4742
H5 H 0.7506 0.8281 0.3757
C5 C 0.9247(6) 0.7043(5) 0.4468(5)
H6 H 0.9850 0.7155 0.3910
H7 H 0.9538 0.6113 0.4860
C6 C 0.9420(7) 0.7928(5) 0.4999(5)
H8 H 0.8838 0.7798 0.5567
H9 H 1.0385 0.7667 0.5181
C7 C 0.7910(6) 1.0270(5) 0.4570(4)
H10 H 0.7273 1.0100 0.5068
C8 C 0.8945(7) 1.1268(6) 0.3343(5)
H11 H 0.9171 1.1923 0.2817
C9 C 0.9697(7) 0.9952(6) 0.3666(5)
H12 H 1.0524 0.9552 0.3401
C10 C 0.3660(6) 0.4089(5) 0.1823(4)
C11 C 0.2258(6) 0.4546(6) 0.2038(4)
C12 C 0.1262(7) 0.4794(7) 0.1409(4)
H13 H 0.0325 0.5116 0.1560
C13 C 0.1610(7) 0.4582(7) 0.0570(4)
C14 C 0.2998(8) 0.4134(10) 0.0327(5)
H14 H 0.3240 0.3988 -0.0247
C15 C 0.4015(7) 0.3904(8) 0.0931(5)
H15 H 0.4951 0.3625 0.0758
C16 C 0.4880(7) 0.3769(6) 0.2443(4)
C17 C 0.5940(6) 0.1840(6) 0.6913(4)
C18 C 0.5555(7) 0.0650(6) 0.7330(4)
C19 C 0.5244(8) 0.0176(7) 0.8275(5)
H16 H 0.4991 -0.0621 0.8540
C20 C 0.5327(8) 0.0961(8) 0.8829(4)
C21 C 0.5656(8) 0.2173(8) 0.8431(5)
H17 H 0.5656 0.2697 0.8797
C22 C 0.5980(7) 0.2587(7) 0.7492(4)
H18 H 0.6234 0.3383 0.7228
C23 C 0.6358(6) 0.2376(5) 0.5891(4)
Cl1A Cl -0.1695(2) 0.5069(3) -0.30579(14)
O1A O -0.4601(4) 0.6490(4) -0.3305(3)
O2A O -0.6051(5) 0.6240(5) -0.2076(3)
N5A N -0.0614(5) 0.5183(6) 0.0129(4)
C10A C -0.3660(6) 0.5911(5) -0.1823(4)
C11A C -0.2258(6) 0.5454(6) -0.2038(4)
C12A C -0.1262(7) 0.5206(7) -0.1409(4)
H13A H -0.0325 0.4884 -0.1560
C13A C -0.1610(7) 0.5418(7) -0.0570(4)
C14A C -0.2998(8) 0.5866(10) -0.0327(5)
H14A H -0.3240 0.6012 0.0247
C15A C -0.4015(7) 0.6096(8) -0.0931(5)
H15A H -0.4951 0.6375 -0.0758
C16A C -0.4880(7) 0.6231(6) -0.2443(4)
Cl2A Cl 0.4509(3) 0.0344(2) 1.33260(14)
O3A O 0.4427(4) -0.2512(4) 1.4704(3)
O4A O 0.2495(5) -0.2622(5) 1.4251(3)
N6A N 0.4948(7) -0.0570(6) 1.0159(4)
C17A C 0.4060(6) -0.1840(6) 1.3087(4)
C18A C 0.4445(7) -0.0650(6) 1.2670(4)
C19A C 0.4756(8) -0.0176(7) 1.1725(5)
H16A H 0.5009 0.0621 1.1460
C20A C 0.4673(8) -0.0961(8) 1.1171(4)
C21A C 0.4344(8) -0.2173(8) 1.1569(5)
H17A H 0.4344 -0.2697 1.1203
C22A C 0.4020(7) -0.2587(7) 1.2508(4)
H18A H 0.3766 -0.3383 1.2772
C23A C 0.3642(6) -0.2376(5) 1.4109(4)
Zn1A Zn -0.63229(6) 0.68852(5) -0.39795(4)
N1A N -0.7584(5) 0.3558(4) -0.3740(4)
N2A N -0.7060(4) 0.5288(4) -0.3642(3)
N3A N -0.9029(5) 0.0648(4) -0.4426(3)
N4A N -0.7804(5) -0.1450(4) -0.3928(3)
C1A C -0.7137(6) 0.4619(5) -0.4196(4)
H1A H -0.6903 0.4868 -0.4833
C2A C -0.7496(6) 0.4563(6) -0.2760(4)
H2A H -0.7545 0.4775 -0.2213
C3A C -0.7828(7) 0.3527(6) -0.2827(5)
H3A H -0.8165 0.2895 -0.2344
C4A C -0.7773(7) 0.2627(6) -0.4190(6)
H4A H -0.7161 0.2670 -0.4742
H5A H -0.7506 0.1719 -0.3757
C5A C -0.9247(6) 0.2957(5) -0.4468(5)
H6A H -0.9850 0.2845 -0.3910
H7A H -0.9538 0.3887 -0.4860
C6A C -0.9420(7) 0.2072(5) -0.4999(5)
H8A H -0.8838 0.2202 -0.5567
H9A H -1.0385 0.2333 -0.5181
C7A C -0.7910(6) -0.0270(5) -0.4570(4)
H10A H -0.7273 -0.0100 -0.5068
C8A C -0.8945(7) -0.1268(6) -0.3343(5)
H11A H -0.9171 -0.1923 -0.2817
C9A C -0.9697(7) 0.0048(6) -0.3666(5)
H12A H -1.0524 0.0448 -0.3401
Zn1_2 Zn 0.63229(6) 1.31148(5) 0.39795(4)
Zn1A_2 Zn -0.63229(6) -0.31148(5) -0.39795(4)
Zn1A_3 Zn 0.36771(6) -0.31148(5) 1.60205(4)
O3A_2 O -0.5573(4) 0.7488(4) -0.5296(3)
N4_2 N 0.7804(5) 0.1450(4) 0.3928(3)
N4A_2 N -0.7804(5) 0.8550(4) -0.3928(3)
N7 N 0.9658(10) 0.0696(9) 0.1029(8)
O5 O 0.9082(17) -0.1199(13) 0.1489(11)
C24 C 1.0773(15) 0.1350(16) 0.0828(16)
H19 H 1.1613 0.0721 0.1121
H20 H 1.0510 0.2087 0.1069
H21 H 1.0934 0.1675 0.0162
C25 C 0.9860(15) -0.0583(11) 0.1425(11)
H22 H 1.0730 -0.1058 0.1688
C26 C 0.8353(14) 0.1604(14) 0.0646(14)
H23 H 0.7595 0.1347 0.1048
H24 H 0.8259 0.1575 0.0033
H25 H 0.8332 0.2497 0.0601
loop_
_geom_bond_atom_site_label_1
_geom_bond_atom_site_label_2
_geom_bond_site_symmetry_1
_geom_bond_site_symmetry_2
Zn1 O1 1_555 1_555
Cl1 C11 1_555 1_555
Cl2 C18 1_555 1_555
O1 C16 1_555 1_555
O2 C16 1_555 1_555
O3 Zn1 1_555 1_555
O4 C23 1_555 1_555
N1 C1 1_555 1_555
N2 Zn1 1_555 1_555
N3 C6 1_555 1_555
N4 C7 1_555 1_555
N5 C13 1_555 1_555
N6 C20 1_555 1_555
C1 N2 1_555 1_555
H1 C1 1_555 1_555
C2 N2 1_555 1_555
H2 C2 1_555 1_555
C3 N1 1_555 1_555
H3 C3 1_555 1_555
C4 N1 1_555 1_555
H4 C4 1_555 1_555
H5 C4 1_555 1_555
C5 C4 1_555 1_555
H6 C5 1_555 1_555
H7 C5 1_555 1_555
C6 C5 1_555 1_555
H8 C6 1_555 1_555
H9 C6 1_555 1_555
C7 N3 1_555 1_555
H10 C7 1_555 1_555
C8 N4 1_555 1_555
H11 C8 1_555 1_555
C9 N3 1_555 1_555
H12 C9 1_555 1_555
C10 C11 1_555 1_555
C11 C12 1_555 1_555
C12 H13 1_555 1_555
C13 C12 1_555 1_555
C14 C13 1_555 1_555
H14 C14 1_555 1_555
C15 C10 1_555 1_555
H15 C15 1_555 1_555
C16 C10 1_555 1_555
C17 C18 1_555 1_555
C18 C19 1_555 1_555
C19 H16 1_555 1_555
C20 C19 1_555 1_555
C21 C20 1_555 1_555
H17 C21 1_555 1_555
C22 C17 1_555 1_555
H18 C22 1_555 1_555
C23 O3 1_555 1_555
N7 C24 1_555 1_555
O5 C25 1_555 1_555
C24 H19 1_555 1_555
H20 C24 1_555 1_555
H21 C24 1_555 1_555
C25 N7 1_555 1_555
H22 C25 1_555 1_555
C26 N7 1_555 1_555
H23 C26 1_555 1_555
H24 C26 1_555 1_555
H25 C26 1_555 1_555
Cl1A C11A 1_555 1_555
O1A C16A 1_555 1_555
O2A C16A 1_555 1_555
N5A N5 1_555 1_555
C10A C11A 1_555 1_555
C11A C12A 1_555 1_555
C12A H13A 1_555 1_555
C13A N5A 1_555 1_555
C14A C13A 1_555 1_555
H14A C14A 1_555 1_555
C15A C10A 1_555 1_555
H15A C15A 1_555 1_555
C16A C10A 1_555 1_555
Cl2A C18A 1_555 1_555
O3A C23A 1_555 1_555
O4A C23A 1_555 1_555
N6A N6 1_555 1_555
C17A C18A 1_555 1_555
C18A C19A 1_555 1_555
C19A H16A 1_555 1_555
C20A N6A 1_555 1_555
C21A C20A 1_555 1_555
H17A C21A 1_555 1_555
C22A C17A 1_555 1_555
H18A C22A 1_555 1_555
C23A C17A 1_555 1_555
Zn1A O1A 1_555 1_555
N1A C1A 1_555 1_555
N2A Zn1A 1_555 1_555
N3A C6A 1_555 1_555
N4A C7A 1_555 1_555
C1A N2A 1_555 1_555
H1A C1A 1_555 1_555
C2A N2A 1_555 1_555
H2A C2A 1_555 1_555
C3A N1A 1_555 1_555
H3A C3A 1_555 1_555
C4A N1A 1_555 1_555
H4A C4A 1_555 1_555
H5A C4A 1_555 1_555
C5A C4A 1_555 1_555
H6A C5A 1_555 1_555
H7A C5A 1_555 1_555
C6A C5A 1_555 1_555
H8A C6A 1_555 1_555
H9A C6A 1_555 1_555
C7A N3A 1_555 1_555
H10A C7A 1_555 1_555
C8A N4A 1_555 1_555
H11A C8A 1_555 1_555
C9A N3A 1_555 1_555
H12A C9A 1_555 1_555
Zn1_2 N4 1_555 1_555
Zn1A_2 N4A 1_555 1_555
Zn1A_3 O3A 1_555 1_555
O3A_2 Zn1A 1_555 1_555
N4_2 Zn1 1_555 1_555
N4A_2 Zn1A 1_555 1_555
C2 C3 1_555 1_555
C8 C9 1_555 1_555
C14 C15 1_555 1_555
C17 C23 1_555 1_555
C21 C22 1_555 1_555
C12A C13A 1_555 1_555
C14A C15A 1_555 1_555
C19A C20A 1_555 1_555
C21A C22A 1_555 1_555
C2A C3A 1_555 1_555
C8A C9A 1_555 1_555

#END
