
#######################################################################
#
#                 Cambridge Crystallographic Data Centre
#                                CCDC 
#
#######################################################################
#
# If this CIF has been generated from an entry in the Cambridge 
# Structural Database, then it will include bibliographic, chemical, 
# crystal, experimental, refinement or atomic coordinate data resulting 
# from the CCDC's data processing and validation procedures.
#
#######################################################################

data_HUPTUJ
_symmetry_cell_setting           triclinic
_symmetry_space_group_name_H-M   'P -1'
_symmetry_Int_Tables_number      2
_space_group_name_Hall           '-P 1'
loop_
_symmetry_equiv_pos_site_id
_symmetry_equiv_pos_as_xyz
1 x,y,z
2 -x,-y,-z
_cell_length_a                   8.077(3)
_cell_length_b                   14.163(5)
_cell_length_c                   15.576(5)
_cell_angle_alpha                100.808(4)
_cell_angle_beta                 98.332(4)
_cell_angle_gamma                100.953(4)
_cell_volume                     1687.94
loop_
_atom_site_label
_atom_site_type_symbol
_atom_site_fract_x
_atom_site_fract_y
_atom_site_fract_z
Dy1 Dy -0.24289(5) 0.28421(4) 1.35636(3)
C1 C 0.6956(11) 0.3751(7) 0.6379(5)
H1 H 0.8135 0.4103 0.6616
H2 H 0.6467 0.4099 0.5962
C2 C 0.5969(11) 0.3780(7) 0.7138(5)
C3 C 0.6508(12) 0.3486(9) 0.7890(6)
H3 H 0.7526 0.3268 0.7953
C4 C 0.5561(12) 0.3506(9) 0.8565(6)
H4 H 0.5968 0.3305 0.9074
C5 C 0.4067(10) 0.3809(7) 0.8507(5)
C6 C 0.3572(11) 0.4103(8) 0.7745(6)
H5 H 0.2552 0.4317 0.7676
C7 C 0.4491(12) 0.4098(8) 0.7083(6)
H6 H 0.4097 0.4317 0.6582
C8 C 0.3034(10) 0.3797(6) 0.9223(5)
C9 C 0.3762(11) 0.3847(7) 1.0092(5)
H7 H 0.4938 0.3893 1.0233
C10 C 0.2820(11) 0.3832(7) 1.0755(6)
H8 H 0.3360 0.3860 1.1331
C11 C 0.1078(11) 0.3774(7) 1.0573(5)
C12 C 0.0342(12) 0.3754(9) 0.9732(6)
H9 H -0.0824 0.3739 0.9599
C13 C 0.1316(11) 0.3755(8) 0.9060(6)
H10 H 0.0774 0.3726 0.8483
C14 C 0.0030(11) 0.3740(7) 1.1308(6)
H11 H -0.0775 0.4161 1.1243
H12 H 0.0802 0.4019 1.1875
C15 C 0.984(3) 0.1304(13) 0.7174(11)
H13 H 1.0152 0.1845 0.7684
H14 H 1.0759 0.0965 0.7145
H15 H 0.8822 0.0856 0.7224
C16 C 0.951(2) 0.1680(16) 0.6361(11)
H16 H 1.0513 0.2149 0.6308
H17 H 0.9208 0.1144 0.5837
C17 C 0.234(3) 0.094(2) 0.525(2)
H18 H 0.2236 0.0273 0.5323
H19 H 0.1410 0.0963 0.4797
H20 H 0.2285 0.1358 0.5801
C18 C 0.394(3) 0.1255(16) 0.4990(10)
H21 H 0.3763 0.1560 0.4487
H22 H 0.4429 0.0690 0.4810
C19 C 0.111(3) 0.0435(13) 1.1317(13)
H23 H -0.0001 -0.0006 1.1175
H24 H 0.1860 0.0217 1.1736
H25 H 0.1575 0.0444 1.0785
C20 C 0.0948(19) 0.1421(14) 1.1703(9)
H26 H 0.2078 0.1858 1.1878
H27 H 0.0451 0.1408 1.2233
C21 C -0.409(2) 0.1520(11) 1.0455(11)
H28 H -0.3659 0.0962 1.0592
H29 H -0.4842 0.1685 1.0867
C22 C -0.506(3) 0.1260(13) 0.9551(11)
H30 H -0.5339 0.1838 0.9386
H31 H -0.6095 0.0780 0.9514
H32 H -0.4377 0.0988 0.9154
N1 N -0.5702(9) 0.3382(6) 1.3218(5)
N2 N -0.344(2) 0.0765(9) 1.2985(8)
N3 N -0.1309(9) 0.4994(7) 1.3956(5)
O1 O 0.7532(7) 0.2534(4) 0.4940(3)
O2 O 0.8111(16) 0.2147(8) 0.6456(5)
O3 O 0.5108(19) 0.1952(8) 0.5724(7)
O4 O -0.1651(7) 0.2536(5) 1.2207(3)
O5 O -0.0138(12) 0.1800(6) 1.1070(5)
O6 O -0.2665(10) 0.2362(7) 1.0556(4)
O7 O -0.4708(7) 0.3364(5) 1.2670(4)
O8 O -0.5222(7) 0.3139(5) 1.3935(4)
O9 O -0.7083(8) 0.3600(6) 1.3061(4)
O10 O -0.4493(10) 0.1327(7) 1.2912(5)
O11 O -0.1967(12) 0.1165(6) 1.3376(5)
O12 O -0.3983(16) -0.0106(9) 1.2665(8)
O13 O -0.1989(7) 0.4536(5) 1.4481(4)
O14 O -0.1110(7) 0.4463(5) 1.3249(4)
O15 O -0.0889(8) 0.5886(6) 1.4104(4)
O16 O 0.0529(7) 0.3104(5) 1.4143(4)
H33 H 0.0770 0.3496 1.4731
H34 H 0.1170 0.3436 1.3771
P1 P 0.6960(4) 0.2559(2) 0.57966(17)
P2 P -0.1127(3) 0.2573(2) 1.13499(16)
Dy1_2 Dy 0.75711(5) 0.28421(4) 0.35636(3)
O1_2 O -0.2468(7) 0.2534(4) 1.4940(3)
loop_
_geom_bond_atom_site_label_1
_geom_bond_atom_site_label_2
_geom_bond_site_symmetry_1
_geom_bond_site_symmetry_2
Dy1 O4 1_555 1_555
C1 H1 1_555 1_555
H2 C1 1_555 1_555
C2 C1 1_555 1_555
C3 C2 1_555 1_555
H3 C3 1_555 1_555
C4 C3 1_555 1_555
H4 C4 1_555 1_555
C5 C4 1_555 1_555
C6 C5 1_555 1_555
H5 C6 1_555 1_555
C7 C2 1_555 1_555
H6 C7 1_555 1_555
C8 C5 1_555 1_555
C9 C8 1_555 1_555
H7 C9 1_555 1_555
C10 C9 1_555 1_555
H8 C10 1_555 1_555
C11 C10 1_555 1_555
C12 C11 1_555 1_555
H9 C12 1_555 1_555
C13 C8 1_555 1_555
H10 C13 1_555 1_555
C14 C11 1_555 1_555
H11 C14 1_555 1_555
H12 C14 1_555 1_555
C15 H13 1_555 1_555
H14 C15 1_555 1_555
H15 C15 1_555 1_555
C16 C15 1_555 1_555
H16 C16 1_555 1_555
H17 C16 1_555 1_555
C17 H18 1_555 1_555
H19 C17 1_555 1_555
H20 C17 1_555 1_555
C18 C17 1_555 1_555
H21 C18 1_555 1_555
H22 C18 1_555 1_555
C19 H23 1_555 1_555
H24 C19 1_555 1_555
H25 C19 1_555 1_555
C20 C19 1_555 1_555
H26 C20 1_555 1_555
H27 C20 1_555 1_555
C21 H28 1_555 1_555
H29 C21 1_555 1_555
C22 C21 1_555 1_555
H30 C22 1_555 1_555
H31 C22 1_555 1_555
H32 C22 1_555 1_555
N1 O7 1_555 1_555
N2 O10 1_555 1_555
N3 O13 1_555 1_555
O1 P1 1_555 1_555
O2 C16 1_555 1_555
O3 C18 1_555 1_555
O4 P2 1_555 1_555
O5 C20 1_555 1_555
O6 C21 1_555 1_555
O7 Dy1 1_555 1_555
O8 Dy1 1_555 1_555
O9 N1 1_555 1_555
O10 Dy1 1_555 1_555
O11 Dy1 1_555 1_555
O12 N2 1_555 1_555
O13 Dy1 1_555 1_555
O14 Dy1 1_555 1_555
O15 N3 1_555 1_555
O16 Dy1 1_555 1_555
H33 O16 1_555 1_555
H34 O16 1_555 1_555
P1 C1 1_555 1_555
P2 C14 1_555 1_555
Dy1_2 O1 1_555 1_555
O1_2 Dy1 1_555 1_555
C6 C7 1_555 1_555
C12 C13 1_555 1_555
N1 O8 1_555 1_555
N2 O11 1_555 1_555
N3 O14 1_555 1_555
O2 P1 1_555 1_555
O3 P1 1_555 1_555
O5 P2 1_555 1_555
O6 P2 1_555 1_555

#END
