
#######################################################################
#
#                 Cambridge Crystallographic Data Centre
#                                CCDC 
#
#######################################################################
#
# If this CIF has been generated from an entry in the Cambridge 
# Structural Database, then it will include bibliographic, chemical, 
# crystal, experimental, refinement or atomic coordinate data resulting 
# from the CCDC's data processing and validation procedures.
#
#######################################################################

data_HUPVAR
_symmetry_cell_setting           triclinic
_symmetry_space_group_name_H-M   'P -1'
_symmetry_Int_Tables_number      2
_space_group_name_Hall           '-P 1'
loop_
_symmetry_equiv_pos_site_id
_symmetry_equiv_pos_as_xyz
1 x,y,z
2 -x,-y,-z
_cell_length_a                   11.6611(4)
_cell_length_b                   12.5951(4)
_cell_length_c                   16.4372(5)
_cell_angle_alpha                102.697(2)
_cell_angle_beta                 101.434(2)
_cell_angle_gamma                101.039(2)
_cell_volume                     2237.57
loop_
_atom_site_label
_atom_site_type_symbol
_atom_site_fract_x
_atom_site_fract_y
_atom_site_fract_z
Eu1 Eu 0.911352(18) 0.766390(17) 0.729973(14)
C1 C 0.6805(10) 0.9990(9) 0.5231(5)
H1 H 0.6592 0.9184 0.5043
H2 H 0.7115 1.0286 0.4805
H3 H 0.6102 1.0252 0.5306
C2 C 0.7712(8) 1.0361(6) 0.6036(5)
H4 H 0.8328 0.9945 0.6004
H5 H 0.8094 1.1151 0.6143
C3 C 1.0764(12) 1.1763(10) 0.7919(10)
H6 H 1.0359 1.1237 0.7372
H7 H 1.1545 1.1636 0.8117
H8 H 1.0855 1.2514 0.7860
C4 C 1.0113(9) 1.1626(8) 0.8489(9)
H9 H 1.0337 1.2291 0.8971
H10 H 1.0236 1.0989 0.8706
C5 C 0.6870(4) 1.0125(4) 0.8266(3)
H11 H 0.6365 0.9365 0.8070
H12 H 0.7305 1.0240 0.8859
C6 C 0.6053(4) 1.0930(4) 0.8254(3)
C7 C 0.4996(5) 1.0688(4) 0.7629(4)
H13 H 0.4760 1.0004 0.7210
C8 C 0.4278(4) 1.1437(4) 0.7609(3)
H14 H 0.3576 1.1256 0.7171
C9 C 0.4584(4) 1.2451(4) 0.8229(3)
C10 C 0.5617(4) 1.2673(4) 0.8867(3)
H15 H 0.5835 1.3342 0.9302
C11 C 0.6350(4) 1.1922(4) 0.8881(3)
H16 H 0.7049 1.2096 0.9321
C12 C 0.3858(4) 1.3286(4) 0.8181(3)
C13 C 0.3366(4) 1.3457(4) 0.7387(3)
H17 H 0.3490 1.3034 0.6887
C14 C 0.3652(4) 1.3940(4) 0.8908(3)
H18 H 0.3976 1.3853 0.9447
C15 C 0.3642(11) 0.6793(11) 0.5921(7)
H19 H 0.3271 0.6036 0.5580
H20 H 0.3684 0.7284 0.5551
H21 H 0.3172 0.7017 0.6316
C16 C 0.4755(7) 0.6850(9) 0.6362(8)
H22 H 0.5128 0.7631 0.6668
H23 H 0.5212 0.6632 0.5948
C17 C 0.6086(7) 0.4276(5) 0.6441(4)
H24 H 0.6722 0.4631 0.6216
H25 H 0.5317 0.4250 0.6070
C18 C 0.6180(7) 0.3123(5) 0.6438(5)
H26 H 0.6971 0.3145 0.6760
H27 H 0.6045 0.2684 0.5855
H28 H 0.5585 0.2790 0.6696
C19 C 0.5981(5) 0.6384(4) 0.8598(3)
H29 H 0.5346 0.5773 0.8614
H30 H 0.6728 0.6335 0.8955
C20 C 0.5706(5) 0.7482(4) 0.8995(3)
C21 C 0.4601(5) 0.7691(4) 0.8725(4)
H31 H 0.4021 0.7163 0.8272
C22 C 0.4334(4) 0.8664(4) 0.9110(4)
H32 H 0.3580 0.8783 0.8904
C23 C 0.5150(4) 0.9471(4) 0.9793(3)
C24 C 0.6270(5) 0.9260(4) 1.0049(3)
H33 H 0.6858 0.9793 1.0495
C25 C 0.6536(5) 0.8291(4) 0.9667(3)
H34 H 0.7294 0.8174 0.9865
C26 C -0.1484(7) 1.4969(9) 0.9261(6)
H35 H -0.0900 1.5013 0.9777
H36 H -0.2281 1.4686 0.9319
H37 H -0.1416 1.5703 0.9170
C27 C -0.1270(6) 1.4240(6) 0.8552(5)
H38 H -0.1861 1.4193 0.8031
H39 H -0.1361 1.3493 0.8637
C28 C -0.0392(9) 1.3141(7) 0.5467(5)
H40 H 0.0337 1.2908 0.5631
H41 H -0.0497 1.3211 0.4889
H42 H -0.1067 1.2592 0.5497
C29 C -0.0317(7) 1.4199(6) 0.6039(4)
H43 H -0.1041 1.4450 0.5865
H44 H 0.0370 1.4754 0.6016
C30 C 0.1742(4) 1.5746(4) 0.7980(3)
C31 C 0.2478(4) 1.4888(4) 0.8059(3)
C32 C 0.2969(4) 1.4725(4) 0.8844(3)
H45 H 0.2840 1.5149 0.9342
C33 C 0.2700(4) 1.4244(4) 0.7332(3)
H46 H 0.2392 1.4346 0.6796
N1 N 1.0396(5) 0.8276(5) 0.9100(3)
N2 N 0.7715(4) 0.6813(4) 0.5493(3)
N3 N 1.1224(4) 0.8383(4) 0.6677(3)
O1 O 0.7186(4) 1.0196(3) 0.6735(2)
O2 O 0.8792(3) 1.1420(3) 0.7992(3)
O3 O 0.8611(3) 0.9357(3) 0.7651(2)
O4 O 0.7146(3) 0.6953(3) 0.7399(2)
O5 O 0.4897(3) 0.6212(3) 0.6961(2)
O6 O 0.6186(3) 0.4921(3) 0.7292(2)
O7 O -0.0563(3) 1.5972(2) 0.7555(2)
O8 O -0.0064(3) 1.4638(3) 0.8454(2)
O9 O -0.0184(3) 1.4088(3) 0.6914(2)
O10 O 0.9271(4) 0.7934(3) 0.8876(2)
O11 O 1.0914(3) 0.8441(4) 0.8523(3)
O12 O 1.0967(6) 0.8450(8) 0.9829(3)
O13 O 0.7868(4) 0.7800(4) 0.5913(3)
O14 O 0.7071(5) 0.6431(5) 0.4764(3)
O15 O 0.8241(4) 0.6220(3) 0.5877(2)
O16 O 1.0930(3) 0.7410(3) 0.6765(3)
O17 O 1.0495(4) 0.8979(3) 0.6794(3)
O18 O 1.2150(4) 0.8724(4) 0.6480(4)
P1 P 0.79328(11) 1.02324(10) 0.76411(9)
P2 P 0.61224(10) 0.61766(10) 0.75176(8)
P3 P 0.01453(10) 1.51434(10) 0.76996(8)
C15A C 0.6358(11) 1.3207(11) 1.4079(7)
H19A H 0.6729 1.3964 1.4420
H20A H 0.6316 1.2716 1.4449
H21A H 0.6828 1.2983 1.3684
C16A C 0.5245(7) 1.3150(9) 1.3638(8)
H22A H 0.4872 1.2369 1.3332
H23A H 0.4788 1.3368 1.4052
C17A C 0.3914(7) 1.5724(5) 1.3559(4)
H24A H 0.3278 1.5369 1.3784
H25A H 0.4683 1.5750 1.3930
C18A C 0.3820(7) 1.6877(5) 1.3562(5)
H26A H 0.3029 1.6855 1.3240
H27A H 0.3955 1.7316 1.4145
H28A H 0.4415 1.7210 1.3304
C19A C 0.4019(5) 1.3616(4) 1.1402(3)
H29A H 0.4654 1.4227 1.1386
H30A H 0.3272 1.3665 1.1045
C20A C 0.4294(5) 1.2518(4) 1.1005(3)
C21A C 0.5399(5) 1.2309(4) 1.1275(4)
H31A H 0.5979 1.2837 1.1728
C22A C 0.5666(4) 1.1336(4) 1.0890(4)
H32A H 0.6420 1.1217 1.1096
C23A C 0.4850(4) 1.0529(4) 1.0207(3)
C24A C 0.3730(5) 1.0740(4) 0.9951(3)
H33A H 0.3142 1.0207 0.9505
C25A C 0.3464(5) 1.1709(4) 1.0333(3)
H34A H 0.2706 1.1826 1.0135
O4A O 0.2854(3) 1.3047(3) 1.2601(2)
O5A O 0.5103(3) 1.3788(3) 1.3039(2)
O6A O 0.3814(3) 1.5079(3) 1.2708(2)
P2A P 0.38776(10) 1.38234(10) 1.24824(8)
Eu1A Eu 0.088648(18) 1.233610(17) 1.270027(14)
C1A C 0.3195(10) 1.0010(9) 1.4769(5)
H1A H 0.3408 1.0816 1.4957
H2A H 0.2885 0.9714 1.5195
H3A H 0.3898 0.9748 1.4694
C2A C 0.2288(8) 0.9639(6) 1.3964(5)
H4A H 0.1672 1.0055 1.3996
H5A H 0.1906 0.8849 1.3857
C3A C -0.0764(12) 0.8237(10) 1.2081(10)
H6A H -0.0359 0.8763 1.2628
H7A H -0.1545 0.8364 1.1883
H8A H -0.0855 0.7486 1.2140
C4A C -0.0113(9) 0.8374(8) 1.1511(9)
H9A H -0.0337 0.7709 1.1029
H10A H -0.0236 0.9011 1.1294
C5A C 0.3130(4) 0.9875(4) 1.1734(3)
H11A H 0.3635 1.0635 1.1930
H12A H 0.2695 0.9760 1.1141
C6A C 0.3947(4) 0.9070(4) 1.1746(3)
C7A C 0.5004(5) 0.9312(4) 1.2371(4)
H13A H 0.5240 0.9996 1.2790
C8A C 0.5722(4) 0.8563(4) 1.2391(3)
H14A H 0.6424 0.8744 1.2829
C9A C 0.5416(4) 0.7549(4) 1.1771(3)
C10A C 0.4383(4) 0.7327(4) 1.1133(3)
H15A H 0.4165 0.6658 1.0698
C11A C 0.3650(4) 0.8078(4) 1.1119(3)
H16A H 0.2951 0.7904 1.0679
C12A C 0.6142(4) 0.6714(4) 1.1819(3)
C13A C 0.6634(4) 0.6543(4) 1.2613(3)
H17A H 0.6510 0.6966 1.3113
C14A C 0.6348(4) 0.6060(4) 1.1092(3)
H18A H 0.6024 0.6147 1.0553
C26A C 1.1484(7) 0.5031(9) 1.0739(6)
H35A H 1.0900 0.4987 1.0223
H36A H 1.2281 0.5314 1.0681
H37A H 1.1416 0.4297 1.0830
C27A C 1.1270(6) 0.5760(6) 1.1448(5)
H38A H 1.1861 0.5807 1.1969
H39A H 1.1361 0.6507 1.1363
C28A C 1.0392(9) 0.6859(7) 1.4533(5)
H40A H 0.9663 0.7092 1.4369
H41A H 1.0497 0.6789 1.5111
H42A H 1.1067 0.7408 1.4503
C29A C 1.0317(7) 0.5801(6) 1.3961(4)
H43A H 1.1041 0.5550 1.4135
H44A H 0.9630 0.5246 1.3984
C30A C 0.8258(4) 0.4254(4) 1.2020(3)
C31A C 0.7522(4) 0.5112(4) 1.1941(3)
C32A C 0.7031(4) 0.5275(4) 1.1156(3)
H45A H 0.7160 0.4851 1.0658
C33A C 0.7300(4) 0.5756(4) 1.2668(3)
H46A H 0.7608 0.5654 1.3204
N1A N -0.0396(5) 1.1724(5) 1.0900(3)
N2A N 0.2285(4) 1.3187(4) 1.4507(3)
N3A N -0.1224(4) 1.1617(4) 1.3323(3)
O1A O 0.2814(4) 0.9804(3) 1.3265(2)
O2A O 0.1208(3) 0.8580(3) 1.2008(3)
O3A O 0.1389(3) 1.0643(3) 1.2349(2)
O7A O 1.0563(3) 0.4028(2) 1.2445(2)
O8A O 1.0064(3) 0.5362(3) 1.1546(2)
O9A O 1.0184(3) 0.5912(3) 1.3086(2)
O10A O 0.0729(4) 1.2066(3) 1.1124(2)
O11A O -0.0914(3) 1.1559(4) 1.1477(3)
O12A O -0.0967(6) 1.1550(8) 1.0171(3)
O13A O 0.2132(4) 1.2200(4) 1.4087(3)
O14A O 0.2929(5) 1.3569(5) 1.5236(3)
O15A O 0.1759(4) 1.3780(3) 1.4123(2)
O16A O -0.0930(3) 1.2590(3) 1.3235(3)
O17A O -0.0495(4) 1.1021(3) 1.3206(3)
O18A O -0.2150(4) 1.1276(4) 1.3520(4)
P1A P 0.20672(11) 0.97676(10) 1.23589(9)
P3A P 0.98547(10) 0.48566(10) 1.23004(8)
Eu1_2 Eu -0.088648(18) 1.766390(17) 0.729973(14)
Eu1A_2 Eu 1.088648(18) 0.233610(17) 1.270027(14)
O7_2 O 0.9437(3) 0.5972(2) 0.7555(2)
O7A_2 O 0.0563(3) 1.4028(2) 1.2445(2)
loop_
_geom_bond_atom_site_label_1
_geom_bond_atom_site_label_2
_geom_bond_site_symmetry_1
_geom_bond_site_symmetry_2
Eu1 O3 1_555 1_555
C1 H1 1_555 1_555
H2 C1 1_555 1_555
H3 C1 1_555 1_555
C2 C1 1_555 1_555
H4 C2 1_555 1_555
H5 C2 1_555 1_555
C3 H6 1_555 1_555
H7 C3 1_555 1_555
H8 C3 1_555 1_555
C4 C3 1_555 1_555
H9 C4 1_555 1_555
H10 C4 1_555 1_555
C5 H11 1_555 1_555
H12 C5 1_555 1_555
C6 C5 1_555 1_555
C7 C6 1_555 1_555
H13 C7 1_555 1_555
C8 C7 1_555 1_555
H14 C8 1_555 1_555
C9 C8 1_555 1_555
C10 C9 1_555 1_555
H15 C10 1_555 1_555
C11 C6 1_555 1_555
H16 C11 1_555 1_555
C12 C9 1_555 1_555
C13 C12 1_555 1_555
H17 C13 1_555 1_555
C14 C12 1_555 1_555
H18 C14 1_555 1_555
C15 H19 1_555 1_555
H20 C15 1_555 1_555
H21 C15 1_555 1_555
C16 C15 1_555 1_555
H22 C16 1_555 1_555
H23 C16 1_555 1_555
C17 H24 1_555 1_555
H25 C17 1_555 1_555
C18 C17 1_555 1_555
H26 C18 1_555 1_555
H27 C18 1_555 1_555
H28 C18 1_555 1_555
C19 H29 1_555 1_555
H30 C19 1_555 1_555
C20 C19 1_555 1_555
C21 C20 1_555 1_555
H31 C21 1_555 1_555
C22 C21 1_555 1_555
H32 C22 1_555 1_555
C23 C22 1_555 1_555
C24 C23 1_555 1_555
H33 C24 1_555 1_555
C25 C20 1_555 1_555
H34 C25 1_555 1_555
C26 H35 1_555 1_555
H36 C26 1_555 1_555
H37 C26 1_555 1_555
C27 C26 1_555 1_555
H38 C27 1_555 1_555
H39 C27 1_555 1_555
C28 H40 1_555 1_555
H41 C28 1_555 1_555
H42 C28 1_555 1_555
C29 C28 1_555 1_555
H43 C29 1_555 1_555
H44 C29 1_555 1_555
C30 C31 1_555 1_555
C31 C32 1_555 1_555
C32 C14 1_555 1_555
H45 C32 1_555 1_555
C33 C13 1_555 1_555
H46 C33 1_555 1_555
N1 O10 1_555 1_555
N2 O13 1_555 1_555
N3 O16 1_555 1_555
O1 C2 1_555 1_555
O2 C4 1_555 1_555
O3 P1 1_555 1_555
O4 Eu1 1_555 1_555
O5 C16 1_555 1_555
O6 C17 1_555 1_555
O7 P3 1_555 1_555
O8 C27 1_555 1_555
O9 C29 1_555 1_555
O10 Eu1 1_555 1_555
O11 Eu1 1_555 1_555
O12 N1 1_555 1_555
O13 Eu1 1_555 1_555
O14 N2 1_555 1_555
O15 Eu1 1_555 1_555
O16 Eu1 1_555 1_555
O17 Eu1 1_555 1_555
O18 N3 1_555 1_555
P1 C5 1_555 1_555
P2 C19 1_555 1_555
P3 C30 1_555 1_555
C15A H19A 1_555 1_555
H20A C15A 1_555 1_555
H21A C15A 1_555 1_555
C16A C15A 1_555 1_555
H22A C16A 1_555 1_555
H23A C16A 1_555 1_555
C17A H24A 1_555 1_555
H25A C17A 1_555 1_555
C18A C17A 1_555 1_555
H26A C18A 1_555 1_555
H27A C18A 1_555 1_555
H28A C18A 1_555 1_555
C19A H29A 1_555 1_555
H30A C19A 1_555 1_555
C20A C19A 1_555 1_555
C21A C20A 1_555 1_555
H31A C21A 1_555 1_555
C22A C21A 1_555 1_555
H32A C22A 1_555 1_555
C23A C23 1_555 1_555
C24A C23A 1_555 1_555
H33A C24A 1_555 1_555
C25A C20A 1_555 1_555
H34A C25A 1_555 1_555
O4A P2A 1_555 1_555
O5A C16A 1_555 1_555
O6A C17A 1_555 1_555
P2A C19A 1_555 1_555
Eu1A O4A 1_555 1_555
C1A H1A 1_555 1_555
H2A C1A 1_555 1_555
H3A C1A 1_555 1_555
C2A C1A 1_555 1_555
H4A C2A 1_555 1_555
H5A C2A 1_555 1_555
C3A H6A 1_555 1_555
H7A C3A 1_555 1_555
H8A C3A 1_555 1_555
C4A C3A 1_555 1_555
H9A C4A 1_555 1_555
H10A C4A 1_555 1_555
C5A H11A 1_555 1_555
H12A C5A 1_555 1_555
C6A C5A 1_555 1_555
C7A C6A 1_555 1_555
H13A C7A 1_555 1_555
C8A C7A 1_555 1_555
H14A C8A 1_555 1_555
C9A C8A 1_555 1_555
C10A C9A 1_555 1_555
H15A C10A 1_555 1_555
C11A C6A 1_555 1_555
H16A C11A 1_555 1_555
C12A C9A 1_555 1_555
C13A C12A 1_555 1_555
H17A C13A 1_555 1_555
C14A C12A 1_555 1_555
H18A C14A 1_555 1_555
C26A H35A 1_555 1_555
H36A C26A 1_555 1_555
H37A C26A 1_555 1_555
C27A C26A 1_555 1_555
H38A C27A 1_555 1_555
H39A C27A 1_555 1_555
C28A H40A 1_555 1_555
H41A C28A 1_555 1_555
H42A C28A 1_555 1_555
C29A C28A 1_555 1_555
H43A C29A 1_555 1_555
H44A C29A 1_555 1_555
C30A C31A 1_555 1_555
C31A C32A 1_555 1_555
C32A C14A 1_555 1_555
H45A C32A 1_555 1_555
C33A C13A 1_555 1_555
H46A C33A 1_555 1_555
N1A O10A 1_555 1_555
N2A O13A 1_555 1_555
N3A O16A 1_555 1_555
O1A C2A 1_555 1_555
O2A C4A 1_555 1_555
O3A Eu1A 1_555 1_555
O7A P3A 1_555 1_555
O8A C27A 1_555 1_555
O9A C29A 1_555 1_555
O10A Eu1A 1_555 1_555
O11A Eu1A 1_555 1_555
O12A N1A 1_555 1_555
O13A Eu1A 1_555 1_555
O14A N2A 1_555 1_555
O15A Eu1A 1_555 1_555
O16A Eu1A 1_555 1_555
O17A Eu1A 1_555 1_555
O18A N3A 1_555 1_555
P1A C5A 1_555 1_555
P3A C30A 1_555 1_555
Eu1_2 O7 1_555 1_555
Eu1A_2 O7A 1_555 1_555
O7_2 Eu1 1_555 1_555
O7A_2 Eu1A 1_555 1_555
C10 C11 1_555 1_555
C24 C25 1_555 1_555
C31 C33 1_555 1_555
N1 O11 1_555 1_555
N2 O15 1_555 1_555
N3 O17 1_555 1_555
O1 P1 1_555 1_555
O2 P1 1_555 1_555
O4 P2 1_555 1_555
O5 P2 1_555 1_555
O6 P2 1_555 1_555
O8 P3 1_555 1_555
O9 P3 1_555 1_555
C22A C23A 1_555 1_555
C24A C25A 1_555 1_555
O5A P2A 1_555 1_555
O6A P2A 1_555 1_555
C10A C11A 1_555 1_555
C31A C33A 1_555 1_555
N1A O11A 1_555 1_555
N2A O15A 1_555 1_555
N3A O17A 1_555 1_555
O1A P1A 1_555 1_555
O2A P1A 1_555 1_555
O3A P1A 1_555 1_555
O8A P3A 1_555 1_555
O9A P3A 1_555 1_555

#END
