
#######################################################################
#
#                 Cambridge Crystallographic Data Centre
#                                CCDC 
#
#######################################################################
#
# If this CIF has been generated from an entry in the Cambridge 
# Structural Database, then it will include bibliographic, chemical, 
# crystal, experimental, refinement or atomic coordinate data resulting 
# from the CCDC's data processing and validation procedures.
#
#######################################################################

data_HUPVOF
_symmetry_cell_setting           monoclinic
_symmetry_space_group_name_H-M   'P 21/c'
_symmetry_Int_Tables_number      14
_space_group_name_Hall           '-P 2ybc'
loop_
_symmetry_equiv_pos_site_id
_symmetry_equiv_pos_as_xyz
1 x,y,z
2 -x,1/2+y,1/2-z
3 -x,-y,-z
4 x,1/2-y,1/2+z
_cell_length_a                   12.6863(5)
_cell_length_b                   19.0520(7)
_cell_length_c                   18.5676(8)
_cell_angle_alpha                90
_cell_angle_beta                 91.8550(10)
_cell_angle_gamma                90
_cell_volume                     4485.43
loop_
_atom_site_label
_atom_site_type_symbol
_atom_site_fract_x
_atom_site_fract_y
_atom_site_fract_z
C1 C 1.2265(5) -0.4168(2) 0.5567(3)
C2 C 1.3312(4) -0.3984(2) 0.5419(3)
C3 C 1.3494(4) -0.3414(2) 0.4959(2)
C4 C 1.2641(4) -0.30199(19) 0.4692(2)
C5 C 1.1600(4) -0.3213(2) 0.4826(3)
C6 C 1.1407(4) -0.3808(2) 0.5254(3)
C7 C 1.2052(7) -0.4690(2) 0.6169(3)
H1 H 1.2548 -0.4590 0.6579
H2 H 1.1330 -0.4608 0.6336
C8 C 1.4232(5) -0.4395(3) 0.5737(3)
H3 H 1.4503 -0.4713 0.5372
H4 H 1.4000 -0.4668 0.6150
H5 H 1.4792 -0.4070 0.5896
C9 C 1.4624(4) -0.3212(3) 0.4794(3)
H6 H 1.5004 -0.3629 0.4633
H7 H 1.4976 -0.3023 0.5229
H8 H 1.4617 -0.2856 0.4413
C10 C 1.2827(5) -0.2342(2) 0.4278(2)
H9 H 1.3548 -0.2345 0.4090
H10 H 1.2320 -0.2312 0.3863
C11 C 1.0683(4) -0.2770(3) 0.4545(3)
H11 H 1.0442 -0.2464 0.4931
H12 H 1.0104 -0.3077 0.4381
H13 H 1.0911 -0.2482 0.4141
C12 C 1.0265(5) -0.4024(3) 0.5367(5)
H14 H 0.9918 -0.3665 0.5654
H15 H 1.0252 -0.4474 0.5622
H16 H 0.9893 -0.4071 0.4899
C13 C 1.2409(4) -0.5690(2) 0.5317(3)
H17 H 1.2496 -0.5360 0.4940
C14 C 1.2549(4) -0.6384(2) 0.5176(2)
H18 H 1.2733 -0.6529 0.4707
C15 C 1.2419(3) -0.68994(19) 0.5732(2)
C16 C 1.2133(3) -0.6625(2) 0.6416(2)
H19 H 1.2018 -0.6937 0.6804
C17 C 1.2025(4) -0.5927(2) 0.6516(2)
H20 H 1.1855 -0.5759 0.6980
C18 C 1.2372(4) -0.1098(2) 0.4468(2)
H21 H 1.2207 -0.1071 0.3966
C19 C 1.2275(3) -0.05096(19) 0.4877(2)
H22 H 1.2043 -0.0085 0.4656
C20 C 1.2516(3) -0.05219(18) 0.5631(2)
C21 C 1.2858(4) -0.1181(2) 0.5910(2)
H23 H 1.3019 -0.1227 0.6411
C22 C 1.2958(4) -0.1749(2) 0.5469(2)
H24 H 1.3217 -0.2177 0.5668
C23 C 1.5960(3) 0.1611(2) 0.2307(2)
C24 C 1.6602(3) 0.1087(2) 0.2014(2)
C25 C 1.7710(3) 0.1166(2) 0.2031(2)
C26 C 1.8155(3) 0.1765(2) 0.2366(2)
C27 C 1.7522(3) 0.2291(2) 0.2660(2)
C28 C 1.6421(3) 0.2221(2) 0.2620(2)
C29 C 1.4775(3) 0.1518(3) 0.2345(2)
H25 H 1.4418 0.1957 0.2190
H26 H 1.4542 0.1140 0.2011
C30 C 1.6134(4) 0.0424(2) 0.1669(3)
H27 H 1.6297 0.0413 0.1157
H28 H 1.5367 0.0425 0.1719
H29 H 1.6437 0.0010 0.1911
C31 C 1.8371(4) 0.0595(2) 0.1704(3)
H30 H 1.8114 0.0135 0.1857
H31 H 1.9109 0.0652 0.1867
H32 H 1.8319 0.0628 0.1177
C32 C 1.9352(3) 0.1861(2) 0.2394(2)
H33 H 1.9666 0.1549 0.2032
H34 H 1.9519 0.2351 0.2264
C33 C 1.7999(4) 0.2925(2) 0.3047(3)
H35 H 1.7699 0.3356 0.2837
H36 H 1.8765 0.2925 0.2995
H37 H 1.7839 0.2903 0.3560
C34 C 1.5748(4) 0.2792(2) 0.2940(2)
H38 H 1.5687 0.2709 0.3458
H39 H 1.5045 0.2786 0.2706
H40 H 1.6078 0.3250 0.2864
C35 C 1.3871(3) 0.1787(2) 0.3484(3)
H41 H 1.3620 0.2211 0.3270
C36 C 1.3631(3) 0.1643(2) 0.4172(2)
H42 H 1.3232 0.1974 0.4431
C37 C 1.3958(3) 0.1008(2) 0.4521(2)
C38 C 1.4580(4) 0.0551(2) 0.4090(2)
H43 H 1.4833 0.0120 0.4285
C39 C 1.4810(4) 0.0732(2) 0.3403(3)
H44 H 1.5229 0.0422 0.3133
C40 C 1.9628(4) 0.1093(2) 0.3465(2)
H45 H 1.9120 0.0780 0.3258
C41 C 2.0125(3) 0.0918(2) 0.4104(2)
H46 H 1.9961 0.0485 0.4328
C42 C 2.0890(3) 0.1377(2) 0.4442(2)
C43 C 2.1053(3) 0.2023(2) 0.4066(3)
H47 H 2.1527 0.2362 0.4268
C44 C 2.0546(3) 0.2160(2) 0.3429(3)
H48 H 2.0685 0.2589 0.3191
N1 N 1.2698(3) -0.17202(16) 0.47527(18)
N2 N 1.2152(4) -0.54528(17) 0.5974(2)
N3 N 1.4465(3) 0.13397(17) 0.3087(2)
N4 N 1.9842(3) 0.17023(17) 0.31179(19)
N5 N 1.4902(3) 0.12816(19) 0.6514(2)
N6 N 1.2633(3) 0.14994(19) 0.7733(2)
N7 N 1.0260(3) 0.13229(19) 0.6631(2)
O1 O 1.2412(2) -0.00013(14) 0.60511(15)
O2 O 1.2556(3) -0.75485(14) 0.56159(17)
O3 O 1.3717(2) 0.08549(15) 0.51616(16)
O4 O 2.1382(3) 0.12160(15) 0.50258(19)
O5 O 1.4278(2) 0.08119(15) 0.67335(17)
O6 O 1.4515(3) 0.18153(16) 0.62158(19)
O7 O 1.5868(3) 0.1204(2) 0.6588(3)
O8 O 1.2271(3) 0.09387(15) 0.74618(17)
O9 O 1.2945(3) 0.19693(14) 0.73028(16)
O10 O 1.2698(4) 0.1589(2) 0.83929(19)
O11 O 1.0843(3) 0.18572(16) 0.65885(19)
O12 O 1.0595(3) 0.07470(16) 0.64128(19)
O13 O 0.9365(3) 0.1373(2) 0.6889(2)
Pr1 Pr 1.25426(2) 0.12459(2) 0.60867(2)
O2_2 O 1.2556(3) 0.24515(14) 0.56159(17)
O4_2 O 1.1382(3) 0.12160(15) 0.50258(19)
Pr1_2 Pr 1.25426(2) -0.87541(2) 0.60867(2)
Pr1_3 Pr 2.25426(2) 0.12459(2) 0.60867(2)
O14 O 1.1485(6) -0.4979(4) 0.7954(5)
O15 O 1.3480(7) -0.4830(4) 0.7498(5)
loop_
_geom_bond_atom_site_label_1
_geom_bond_atom_site_label_2
_geom_bond_site_symmetry_1
_geom_bond_site_symmetry_2
C1 C2 1_555 1_555
C2 C3 1_555 1_555
C3 C4 1_555 1_555
C4 C5 1_555 1_555
C5 C6 1_555 1_555
C6 C1 1_555 1_555
C7 C1 1_555 1_555
H1 C7 1_555 1_555
H2 C7 1_555 1_555
C8 C2 1_555 1_555
H3 C8 1_555 1_555
H4 C8 1_555 1_555
H5 C8 1_555 1_555
C9 C3 1_555 1_555
H6 C9 1_555 1_555
H7 C9 1_555 1_555
H8 C9 1_555 1_555
C10 C4 1_555 1_555
H9 C10 1_555 1_555
H10 C10 1_555 1_555
C11 C5 1_555 1_555
H11 C11 1_555 1_555
H12 C11 1_555 1_555
H13 C11 1_555 1_555
C12 C6 1_555 1_555
H14 C12 1_555 1_555
H15 C12 1_555 1_555
H16 C12 1_555 1_555
C13 H17 1_555 1_555
C14 C13 1_555 1_555
H18 C14 1_555 1_555
C15 C14 1_555 1_555
C16 C15 1_555 1_555
H19 C16 1_555 1_555
C17 C16 1_555 1_555
H20 C17 1_555 1_555
C18 H21 1_555 1_555
C19 C18 1_555 1_555
H22 C19 1_555 1_555
C20 C19 1_555 1_555
C21 C20 1_555 1_555
H23 C21 1_555 1_555
C22 C21 1_555 1_555
H24 C22 1_555 1_555
C23 C24 1_555 1_555
C24 C25 1_555 1_555
C25 C26 1_555 1_555
C26 C27 1_555 1_555
C27 C28 1_555 1_555
C28 C23 1_555 1_555
C29 C23 1_555 1_555
H25 C29 1_555 1_555
H26 C29 1_555 1_555
C30 C24 1_555 1_555
H27 C30 1_555 1_555
H28 C30 1_555 1_555
H29 C30 1_555 1_555
C31 C25 1_555 1_555
H30 C31 1_555 1_555
H31 C31 1_555 1_555
H32 C31 1_555 1_555
C32 C26 1_555 1_555
H33 C32 1_555 1_555
H34 C32 1_555 1_555
C33 C27 1_555 1_555
H35 C33 1_555 1_555
H36 C33 1_555 1_555
H37 C33 1_555 1_555
C34 C28 1_555 1_555
H38 C34 1_555 1_555
H39 C34 1_555 1_555
H40 C34 1_555 1_555
C35 H41 1_555 1_555
C36 C35 1_555 1_555
H42 C36 1_555 1_555
C37 C36 1_555 1_555
C38 C37 1_555 1_555
H43 C38 1_555 1_555
C39 C38 1_555 1_555
H44 C39 1_555 1_555
C40 H45 1_555 1_555
C41 C40 1_555 1_555
H46 C41 1_555 1_555
C42 C41 1_555 1_555
C43 C42 1_555 1_555
H47 C43 1_555 1_555
C44 C43 1_555 1_555
H48 C44 1_555 1_555
N1 C10 1_555 1_555
N2 C7 1_555 1_555
N3 C29 1_555 1_555
N4 C32 1_555 1_555
N5 O5 1_555 1_555
N6 O8 1_555 1_555
N7 O11 1_555 1_555
O1 C20 1_555 1_555
O2 C15 1_555 1_555
O3 C37 1_555 1_555
O4 C42 1_555 1_555
O5 Pr1 1_555 1_555
O6 N5 1_555 1_555
O7 N5 1_555 1_555
O8 Pr1 1_555 1_555
O9 N6 1_555 1_555
O10 N6 1_555 1_555
O11 Pr1 1_555 1_555
O12 N7 1_555 1_555
O13 N7 1_555 1_555
Pr1 O1 1_555 1_555
O2_2 Pr1 1_555 1_555
O4_2 Pr1 1_555 1_555
Pr1_2 O2 1_555 1_555
Pr1_3 O4 1_555 1_555
C13 N2 1_555 1_555
C17 N2 1_555 1_555
C18 N1 1_555 1_555
C22 N1 1_555 1_555
C35 N3 1_555 1_555
C39 N3 1_555 1_555
C40 N4 1_555 1_555
C44 N4 1_555 1_555
O3 Pr1 1_555 1_555
O6 Pr1 1_555 1_555
O9 Pr1 1_555 1_555
O12 Pr1 1_555 1_555

#END
