
#######################################################################
#
#                 Cambridge Crystallographic Data Centre
#                                CCDC 
#
#######################################################################
#
# If this CIF has been generated from an entry in the Cambridge 
# Structural Database, then it will include bibliographic, chemical, 
# crystal, experimental, refinement or atomic coordinate data resulting 
# from the CCDC's data processing and validation procedures.
#
#######################################################################

data_HUPVIZ
_symmetry_cell_setting           triclinic
_symmetry_space_group_name_H-M   'P -1'
_symmetry_Int_Tables_number      2
_space_group_name_Hall           '-P 1'
loop_
_symmetry_equiv_pos_site_id
_symmetry_equiv_pos_as_xyz
1 x,y,z
2 -x,-y,-z
_cell_length_a                   8.1278(17)
_cell_length_b                   14.780(3)
_cell_length_c                   16.443(3)
_cell_angle_alpha                92.348(9)
_cell_angle_beta                 95.324(8)
_cell_angle_gamma                94.297(9)
_cell_volume                     1958.94
loop_
_atom_site_label
_atom_site_type_symbol
_atom_site_fract_x
_atom_site_fract_y
_atom_site_fract_z
Nd1 Nd 1.20204(3) 0.17973(2) 0.12198(2)
C1 C 1.383(2) 0.3454(12) 0.4614(9)
H1 H 1.4530 0.3983 0.4514
H2 H 1.4497 0.3009 0.4857
H3 H 1.3035 0.3619 0.4979
C2 C 1.3024(13) 0.3102(9) 0.3892(6)
H4 H 1.3830 0.2879 0.3549
H5 H 1.2491 0.3582 0.3611
C3 C 0.7730(18) 0.4014(8) 0.2869(9)
H6 H 0.7409 0.4080 0.3414
H7 H 0.6804 0.4106 0.2482
H8 H 0.8628 0.4456 0.2800
C4 C 0.8191(14) 0.3219(8) 0.2748(6)
H9 H 0.8865 0.3241 0.2291
H10 H 0.7204 0.2825 0.2571
C5 C 0.9501(6) 0.1029(3) 0.3598(3)
H11 H 0.8791 0.0743 0.3137
H12 H 1.0395 0.0642 0.3719
C6 C 0.8503(6) 0.1076(3) 0.4331(3)
C7 C 0.9211(7) 0.1121(4) 0.5105(3)
H13 H 1.0357 0.1127 0.5202
C8 C 0.8266(7) 0.1160(4) 0.5757(3)
H14 H 0.8803 0.1197 0.6283
C9 C 0.6575(6) 0.1148(3) 0.5668(3)
C10 C 0.5855(6) 0.1100(4) 0.4873(3)
H15 H 0.4708 0.1094 0.4778
C11 C 0.6794(6) 0.1060(4) 0.4212(3)
H16 H 0.6269 0.1023 0.3683
C12 C 0.5576(6) 0.1169(3) 0.6375(3)
C13 C 0.6213(8) 0.0938(5) 0.7134(3)
H17 H 0.7299 0.0775 0.7207
C14 C 0.5267(8) 0.0943(5) 0.7796(3)
H18 H 0.5729 0.0756 0.8294
C15 C 0.3730(7) 0.1204(3) 0.7751(3)
C16 C 0.3048(7) 0.1412(5) 0.6987(3)
H19 H 0.1955 0.1564 0.6923
C17 C 0.3958(7) 0.1398(4) 0.6316(3)
H20 H 0.3464 0.1548 0.5812
C18 C 0.2757(7) 0.1215(4) 0.8491(3)
H21 H 0.3151 0.0760 0.8855
H22 H 0.1603 0.1038 0.8313
C19 C 0.6326(19) 0.3577(8) 0.9865(8)
H23 H 0.5754 0.4045 0.9599
H24 H 0.7495 0.3683 0.9824
H25 H 0.6122 0.3583 1.0431
C20 C 0.576(2) 0.2729(10) 0.9488(10)
H26 H 0.6638 0.2510 0.9193
H27 H 0.5567 0.2310 0.9915
C21 C 0.091(3) 0.4232(14) 0.8789(14)
H28 H 0.0589 0.4379 0.9323
H29 H 0.0232 0.4529 0.8387
H30 H 0.2051 0.4434 0.8764
C22 C 0.0710(18) 0.3389(10) 0.8647(8)
H31 H -0.0108 0.3288 0.8177
H32 H 0.0197 0.3140 0.9107
N1 N 1.1345(5) -0.0213(3) 0.1005(3)
N2 N 1.5436(5) 0.1302(3) 0.1712(3)
N3 N 1.2642(12) 0.3755(4) 0.1408(4)
O1 O 1.0949(4) 0.2032(2) 0.24818(18)
O2 O 1.1771(6) 0.2360(3) 0.3996(2)
O3 O 0.9083(6) 0.2786(3) 0.3382(3)
O4 O 0.2271(4) 0.2181(2) 0.98602(18)
O5 O 0.4579(8) 0.2691(4) 0.9045(4)
O6 O 0.9080(4) 0.1582(2) 0.0734(2)
O7 O 0.1901(9) 0.2881(4) 0.8509(3)
H33 H 0.8461 0.2064 0.0654
H34 H 0.8581 0.1014 0.0624
O8 O 1.1113(5) 0.0219(2) 0.1666(2)
O9 O 1.1081(5) -0.1032(2) 0.0921(2)
O10 O 1.1862(4) 0.0253(2) 0.0447(2)
O11 O 1.4404(4) 0.1388(3) 0.2230(2)
O12 O 1.6864(4) 0.1125(3) 0.1908(2)
O13 O 1.4940(4) 0.1406(3) 0.0987(2)
O14 O 1.1200(7) 0.3407(3) 0.1173(3)
O15 O 1.2999(11) 0.4574(4) 0.1464(5)
O16 O 1.3751(6) 0.3224(3) 0.1599(3)
P1 P 1.03606(18) 0.20879(9) 0.33027(8)
P2 P 0.28719(18) 0.22648(9) 0.90500(8)
Nd1_2 Nd 0.20204(3) 0.17973(2) 1.12198(2)
O4_2 O 1.2271(4) 0.2181(2) -0.01398(18)
loop_
_geom_bond_atom_site_label_1
_geom_bond_atom_site_label_2
_geom_bond_site_symmetry_1
_geom_bond_site_symmetry_2
Nd1 O1 1_555 1_555
C1 H1 1_555 1_555
H2 C1 1_555 1_555
H3 C1 1_555 1_555
C2 C1 1_555 1_555
H4 C2 1_555 1_555
H5 C2 1_555 1_555
C3 H6 1_555 1_555
H7 C3 1_555 1_555
H8 C3 1_555 1_555
C4 C3 1_555 1_555
H9 C4 1_555 1_555
H10 C4 1_555 1_555
C5 H11 1_555 1_555
H12 C5 1_555 1_555
C6 C5 1_555 1_555
C7 C6 1_555 1_555
H13 C7 1_555 1_555
C8 C7 1_555 1_555
H14 C8 1_555 1_555
C9 C8 1_555 1_555
C10 C9 1_555 1_555
H15 C10 1_555 1_555
C11 C6 1_555 1_555
H16 C11 1_555 1_555
C12 C9 1_555 1_555
C13 C12 1_555 1_555
H17 C13 1_555 1_555
C14 C13 1_555 1_555
H18 C14 1_555 1_555
C15 C14 1_555 1_555
C16 C15 1_555 1_555
H19 C16 1_555 1_555
C17 C12 1_555 1_555
H20 C17 1_555 1_555
C18 C15 1_555 1_555
H21 C18 1_555 1_555
H22 C18 1_555 1_555
C19 H23 1_555 1_555
H24 C19 1_555 1_555
H25 C19 1_555 1_555
C20 C19 1_555 1_555
H26 C20 1_555 1_555
H27 C20 1_555 1_555
C21 H28 1_555 1_555
H29 C21 1_555 1_555
H30 C21 1_555 1_555
C22 C21 1_555 1_555
H31 C22 1_555 1_555
H32 C22 1_555 1_555
N1 O8 1_555 1_555
N2 O11 1_555 1_555
N3 O14 1_555 1_555
O1 P1 1_555 1_555
O2 C2 1_555 1_555
O3 C4 1_555 1_555
O4 P2 1_555 1_555
O5 C20 1_555 1_555
O6 Nd1 1_555 1_555
O7 C22 1_555 1_555
H33 O6 1_555 1_555
H34 O6 1_555 1_555
O8 Nd1 1_555 1_555
O9 N1 1_555 1_555
O10 Nd1 1_555 1_555
O11 Nd1 1_555 1_555
O12 N2 1_555 1_555
O13 Nd1 1_555 1_555
O14 Nd1 1_555 1_555
O15 N3 1_555 1_555
O16 Nd1 1_555 1_555
P1 C5 1_555 1_555
P2 C18 1_555 1_555
Nd1_2 O4 1_555 1_555
O4_2 Nd1 1_555 1_555
C10 C11 1_555 1_555
C16 C17 1_555 1_555
N1 O10 1_555 1_555
N2 O13 1_555 1_555
N3 O16 1_555 1_555
O2 P1 1_555 1_555
O3 P1 1_555 1_555
O5 P2 1_555 1_555
O7 P2 1_555 1_555

#END
