
#######################################################################
#
#                 Cambridge Crystallographic Data Centre
#                                CCDC 
#
#######################################################################
#
# If this CIF has been generated from an entry in the Cambridge 
# Structural Database, then it will include bibliographic, chemical, 
# crystal, experimental, refinement or atomic coordinate data resulting 
# from the CCDC's data processing and validation procedures.
#
#######################################################################

data_HUPYUN
_symmetry_cell_setting           monoclinic
_symmetry_space_group_name_H-M   'P 21/c'
_symmetry_Int_Tables_number      14
_space_group_name_Hall           '-P 2ybc'
loop_
_symmetry_equiv_pos_site_id
_symmetry_equiv_pos_as_xyz
1 x,y,z
2 -x,1/2+y,1/2-z
3 -x,-y,-z
4 x,1/2-y,1/2+z
_cell_length_a                   13.716(3)
_cell_length_b                   9.0035(18)
_cell_length_c                   21.062(2)
_cell_angle_alpha                90
_cell_angle_beta                 92.590(4)
_cell_angle_gamma                90
_cell_volume                     2598.33
loop_
_atom_site_label
_atom_site_type_symbol
_atom_site_fract_x
_atom_site_fract_y
_atom_site_fract_z
Zn1 Zn 0.5000 0.0000 0.5000
O1 O 0.00126(17) -0.7786(3) 0.55428(16)
O2 O 0.13224(16) -0.9113(3) 0.58684(12)
O3 O 0.63102(15) -0.3619(2) 0.06575(9)
O4 O 0.75559(16) -0.4665(3) 0.12138(10)
N1 N 0.46411(17) -0.1848(3) 0.44890(11)
N2 N 0.59038(17) 0.0670(3) 0.43086(11)
C1 C 0.3513(2) -0.3034(3) 0.52194(14)
C2 C 0.4023(2) -0.2980(3) 0.46491(14)
C3 C 0.3945(2) -0.4039(4) 0.41364(15)
H1 H 0.3565 -0.4894 0.4124
C4 C 0.4513(2) -0.3574(3) 0.36873(15)
H2 H 0.4613 -0.4055 0.3305
C5 C 0.4947(2) -0.2202(4) 0.38910(14)
C6 C 0.5598(2) -0.1357(3) 0.35436(13)
C7 C 0.6035(2) -0.0018(3) 0.37379(13)
C8 C 0.6678(2) 0.0866(4) 0.33592(14)
H3 H 0.6884 0.0633 0.2956
C9 C 0.6916(2) 0.2067(3) 0.36947(13)
H4 H 0.7318 0.2834 0.3568
C10 C 0.6438(2) 0.1973(3) 0.42964(13)
C11 C 0.2849(2) -0.4318(3) 0.53105(14)
C12 C 0.3186(2) -0.5774(3) 0.53452(14)
H5 H 0.3845 -0.5958 0.5293
C13 C 0.2573(2) -0.6958(4) 0.54550(14)
H6 H 0.2818 -0.7919 0.5489
C14 C 0.1579(2) -0.6683(4) 0.55130(15)
C15 C 0.1220(2) -0.5242(4) 0.54509(16)
H7 H 0.0556 -0.5061 0.5485
C16 C 0.1841(2) -0.4092(4) 0.53401(15)
H8 H 0.1589 -0.3140 0.5283
C17 C 0.0879(3) -0.7886(4) 0.56409(18)
C18 C 0.0677(3) -1.0316(5) 0.6000(3)
H9 H 0.1049 -1.1144 0.6164
H10 H 0.0325 -1.0605 0.5615
H11 H 0.0224 -1.0004 0.6307
C19 C 0.5883(2) -0.2006(3) 0.29199(14)
C20 C 0.5328(2) -0.1811(3) 0.23701(13)
H12 H 0.4755 -0.1262 0.2378
C21 C 0.5604(2) -0.2413(3) 0.18079(14)
H13 H 0.5213 -0.2263 0.1441
C22 C 0.6453(2) -0.3239(4) 0.17739(14)
C23 C 0.7027(3) -0.3434(5) 0.23164(17)
H14 H 0.7608 -0.3963 0.2303
C24 C 0.6738(3) -0.2835(5) 0.28908(18)
H15 H 0.7122 -0.2993 0.3260
C25 C 0.6747(2) -0.3827(4) 0.11575(14)
C26 C 0.7921(3) -0.5241(4) 0.06326(18)
H16 H 0.8500 -0.5812 0.0727
H17 H 0.8072 -0.4431 0.0357
H18 H 0.7434 -0.5862 0.0426
Zn1A Zn 0.5000 -0.5000 0.0000
Zn1A_2 Zn 0.5000 0.5000 1.0000
O1B O 0.99874(17) 0.7786(3) 0.44572(16)
O2B O 0.86776(16) 0.9113(3) 0.41316(12)
O3C O 0.63102(15) -0.1381(2) 0.56575(9)
O3A O 0.36898(15) 0.1381(2) 0.43425(9)
O3B O 0.36898(15) 0.3619(2) 0.93425(9)
O4B O 0.24441(16) 0.4665(3) 0.87862(10)
N1B N 0.53589(17) 0.1848(3) 0.55110(11)
N2B N 0.40962(17) -0.0670(3) 0.56914(11)
C1B C 0.6487(2) 0.3034(3) 0.47806(14)
C2B C 0.5977(2) 0.2980(3) 0.53509(14)
C3B C 0.6055(2) 0.4039(4) 0.58636(15)
H1B H 0.6435 0.4894 0.5876
C4B C 0.5487(2) 0.3574(3) 0.63127(15)
H2B H 0.5387 0.4055 0.6695
C5B C 0.5053(2) 0.2202(4) 0.61090(14)
C6B C 0.4402(2) 0.1357(3) 0.64564(13)
C7B C 0.3965(2) 0.0018(3) 0.62621(13)
C8B C 0.3322(2) -0.0866(4) 0.66408(14)
H3B H 0.3116 -0.0633 0.7044
C9B C 0.3084(2) -0.2067(3) 0.63053(13)
H4B H 0.2682 -0.2834 0.6432
C10B C 0.3562(2) -0.1973(3) 0.57036(13)
C11B C 0.7151(2) 0.4318(3) 0.46895(14)
C12B C 0.6814(2) 0.5774(3) 0.46548(14)
H5B H 0.6155 0.5958 0.4707
C13B C 0.7427(2) 0.6958(4) 0.45450(14)
H6B H 0.7182 0.7919 0.4511
C14B C 0.8421(2) 0.6683(4) 0.44870(15)
C15B C 0.8780(2) 0.5242(4) 0.45491(16)
H7B H 0.9444 0.5061 0.4515
C16B C 0.8159(2) 0.4092(4) 0.46599(15)
H8B H 0.8411 0.3140 0.4717
C17B C 0.9121(3) 0.7886(4) 0.43591(18)
C18B C 0.9323(3) 1.0316(5) 0.4000(3)
H9B H 0.8951 1.1144 0.3836
H10B H 0.9675 1.0605 0.4385
H11B H 0.9776 1.0004 0.3693
C19B C 0.4117(2) 0.2006(3) 0.70801(14)
C20B C 0.4672(2) 0.1811(3) 0.76299(13)
H12B H 0.5245 0.1262 0.7622
C21B C 0.4396(2) 0.2413(3) 0.81921(14)
H13B H 0.4787 0.2263 0.8559
C22B C 0.3547(2) 0.3239(4) 0.82261(14)
C23B C 0.2973(3) 0.3434(5) 0.76836(17)
H14B H 0.2392 0.3963 0.7697
C24B C 0.3262(3) 0.2835(5) 0.71092(18)
H15B H 0.2878 0.2993 0.6740
C25B C 0.3253(2) 0.3827(4) 0.88425(14)
C26B C 0.2079(3) 0.5241(4) 0.93674(18)
H16B H 0.1500 0.5812 0.9273
H17B H 0.1928 0.4431 0.9643
H18B H 0.2566 0.5862 0.9574
loop_
_geom_bond_atom_site_label_1
_geom_bond_atom_site_label_2
_geom_bond_site_symmetry_1
_geom_bond_site_symmetry_2
Zn1 N1 1_555 1_555
O1 C17 1_555 1_555
O2 C17 1_555 1_555
O3 C25 1_555 1_555
O4 C25 1_555 1_555
N1 C2 1_555 1_555
N2 Zn1 1_555 1_555
C1 C2 1_555 1_555
C2 C3 1_555 1_555
C3 H1 1_555 1_555
C4 C3 1_555 1_555
H2 C4 1_555 1_555
C5 N1 1_555 1_555
C6 C5 1_555 1_555
C7 N2 1_555 1_555
C8 C7 1_555 1_555
H3 C8 1_555 1_555
C9 C8 1_555 1_555
H4 C9 1_555 1_555
C10 N2 1_555 1_555
C11 C1 1_555 1_555
C12 C11 1_555 1_555
H5 C12 1_555 1_555
C13 C12 1_555 1_555
H6 C13 1_555 1_555
C14 C13 1_555 1_555
C15 C14 1_555 1_555
H7 C15 1_555 1_555
C16 C11 1_555 1_555
H8 C16 1_555 1_555
C17 C14 1_555 1_555
C18 O2 1_555 1_555
H9 C18 1_555 1_555
H10 C18 1_555 1_555
H11 C18 1_555 1_555
C19 C6 1_555 1_555
C20 C19 1_555 1_555
H12 C20 1_555 1_555
C21 C20 1_555 1_555
H13 C21 1_555 1_555
C22 C21 1_555 1_555
C23 C22 1_555 1_555
H14 C23 1_555 1_555
C24 C19 1_555 1_555
H15 C24 1_555 1_555
C25 C22 1_555 1_555
C26 O4 1_555 1_555
H16 C26 1_555 1_555
H17 C26 1_555 1_555
H18 C26 1_555 1_555
Zn1A O3 1_555 1_555
Zn1A_2 O3B 1_555 1_555
O1B C17B 1_555 1_555
O2B C17B 1_555 1_555
O3C Zn1 1_555 1_555
O3A Zn1 1_555 1_555
O3B C25B 1_555 1_555
O4B C25B 1_555 1_555
N1B Zn1 1_555 1_555
N2B Zn1 1_555 1_555
C1B C10 1_555 1_555
C2B N1B 1_555 1_555
C3B C2B 1_555 1_555
H1B C3B 1_555 1_555
C4B C3B 1_555 1_555
H2B C4B 1_555 1_555
C5B N1B 1_555 1_555
C6B C5B 1_555 1_555
C7B N2B 1_555 1_555
C8B C7B 1_555 1_555
H3B C8B 1_555 1_555
C9B C8B 1_555 1_555
H4B C9B 1_555 1_555
C10B C1 1_555 1_555
C11B C1B 1_555 1_555
C12B C11B 1_555 1_555
H5B C12B 1_555 1_555
C13B C12B 1_555 1_555
H6B C13B 1_555 1_555
C14B C13B 1_555 1_555
C15B C14B 1_555 1_555
H7B C15B 1_555 1_555
C16B C11B 1_555 1_555
H8B C16B 1_555 1_555
C17B C14B 1_555 1_555
C18B O2B 1_555 1_555
H9B C18B 1_555 1_555
H10B C18B 1_555 1_555
H11B C18B 1_555 1_555
C19B C6B 1_555 1_555
C20B C19B 1_555 1_555
H12B C20B 1_555 1_555
C21B C20B 1_555 1_555
H13B C21B 1_555 1_555
C22B C21B 1_555 1_555
C23B C22B 1_555 1_555
H14B C23B 1_555 1_555
C24B C19B 1_555 1_555
H15B C24B 1_555 1_555
C25B C22B 1_555 1_555
C26B O4B 1_555 1_555
H16B C26B 1_555 1_555
H17B C26B 1_555 1_555
H18B C26B 1_555 1_555
C4 C5 1_555 1_555
C6 C7 1_555 1_555
C9 C10 1_555 1_555
C15 C16 1_555 1_555
C23 C24 1_555 1_555
N2B C10B 1_555 1_555
C1B C2B 1_555 1_555
C4B C5B 1_555 1_555
C6B C7B 1_555 1_555
C9B C10B 1_555 1_555
C15B C16B 1_555 1_555
C23B C24B 1_555 1_555

#END
