
#######################################################################
#
#                 Cambridge Crystallographic Data Centre
#                                CCDC 
#
#######################################################################
#
# If this CIF has been generated from an entry in the Cambridge 
# Structural Database, then it will include bibliographic, chemical, 
# crystal, experimental, refinement or atomic coordinate data resulting 
# from the CCDC's data processing and validation procedures.
#
#######################################################################

data_HUPZOH
_symmetry_cell_setting           triclinic
_symmetry_space_group_name_H-M   'P -1'
_symmetry_Int_Tables_number      2
_space_group_name_Hall           '-P 1'
loop_
_symmetry_equiv_pos_site_id
_symmetry_equiv_pos_as_xyz
1 x,y,z
2 -x,-y,-z
_cell_length_a                   15.366(5)
_cell_length_b                   16.723(5)
_cell_length_c                   17.533(5)
_cell_angle_alpha                93.820(5)
_cell_angle_beta                 104.520(5)
_cell_angle_gamma                112.250(5)
_cell_volume                     3970.56
loop_
_atom_site_label
_atom_site_type_symbol
_atom_site_fract_x
_atom_site_fract_y
_atom_site_fract_z
P1 P 0.32459(6) 0.95420(6) 0.47833(5)
P2 P 0.31146(7) 0.80246(6) 0.35807(6)
P3 P 0.19581(6) 0.69201(6) 0.63290(6)
P4 P 0.17399(6) 0.54005(6) 0.50912(5)
Na1 Na 0.51180(9) 1.10988(8) 0.50820(8)
Na2 Na 0.25025(9) 0.74911(9) 0.49492(8)
Na3 Na 0.01288(9) 0.60994(8) 0.50703(8)
O1 O 0.47241(17) 1.23430(15) 0.48705(15)
O2 O 0.56818(16) 1.17265(15) 0.40306(14)
O3 O -0.02511(17) 0.73602(15) 0.49078(15)
O4 O 0.06900(17) 0.67667(16) 0.40215(15)
C1 C 0.2612(2) 0.9433(2) 0.3725(2)
C2 C 0.2647(2) 0.8808(2) 0.3185(2)
C3 C 0.2812(2) 1.0150(2) 0.5395(2)
C4 C 0.3472(3) 1.0622(2) 0.6150(2)
H1 H 0.4129 1.0668 0.6282
C5 C 0.3194(3) 1.1019(3) 0.6704(2)
H2 H 0.3657 1.1325 0.7210
C6 C 0.2245(4) 1.0976(3) 0.6528(3)
H3 H 0.2052 1.1246 0.6910
C7 C 0.1582(3) 1.0531(2) 0.5786(3)
H4 H 0.0930 1.0499 0.5658
C8 C 0.1857(3) 1.0136(2) 0.5231(2)
H5 H 0.1390 0.9844 0.4722
C9 C 0.2075(2) 0.9991(2) 0.34750(19)
C10 C 0.1089(2) 0.9628(2) 0.2996(2)
H6 H 0.0766 0.9015 0.2792
C11 C 0.0580(3) 1.0155(3) 0.2816(2)
H7 H -0.0089 0.9896 0.2495
C12 C 0.1030(3) 1.1050(3) 0.3096(2)
H8 H 0.0675 1.1406 0.2972
C13 C 0.2007(3) 1.1419(2) 0.3561(2)
H9 H 0.2328 1.2035 0.3751
C14 C 0.2519(2) 1.0902(2) 0.3752(2)
H10 H 0.3186 1.1167 0.4078
C15 C 0.2332(2) 0.8786(2) 0.2308(2)
C16 C 0.2694(2) 0.9550(2) 0.1989(2)
H11 H 0.3101 1.0093 0.2344
C17 C 0.2474(3) 0.9533(2) 0.1166(2)
H12 H 0.2719 1.0062 0.0966
C18 C 0.1897(2) 0.8748(3) 0.0641(2)
H13 H 0.1757 0.8731 0.0079
C19 C 0.1525(2) 0.7983(2) 0.0940(2)
H14 H 0.1120 0.7442 0.0582
C20 C 0.1743(2) 0.8006(2) 0.1764(2)
H15 H 0.1483 0.7476 0.1959
C21 C 0.3393(2) 0.7474(2) 0.2806(2)
C22 C 0.3768(3) 0.7833(3) 0.2201(2)
H16 H 0.3856 0.8418 0.2146
C23 C 0.4018(3) 0.7358(3) 0.1677(2)
H17 H 0.4256 0.7617 0.1264
C24 C 0.3926(3) 0.6523(3) 0.1747(3)
H18 H 0.4108 0.6207 0.1392
C25 C 0.3563(3) 0.6148(3) 0.2342(2)
H19 H 0.3500 0.5569 0.2401
C26 C 0.3293(3) 0.6611(2) 0.2854(2)
H20 H 0.3030 0.6335 0.3251
C27 C 0.2444(2) 0.6137(2) 0.6698(2)
C28 C 0.2434(2) 0.5510(2) 0.6129(2)
C29 C 0.1627(2) 0.7396(2) 0.7107(2)
C30 C 0.1576(2) 0.8215(2) 0.7031(2)
H21 H 0.1780 0.8504 0.6618
C31 C 0.1240(3) 0.8607(2) 0.7539(2)
H22 H 0.1205 0.9152 0.7465
C32 C 0.0955(3) 0.8212(3) 0.8155(2)
H23 H 0.0716 0.8480 0.8500
C33 C 0.1020(3) 0.7427(3) 0.8263(3)
H24 H 0.0844 0.7161 0.8695
C34 C 0.1340(2) 0.7021(2) 0.7743(2)
H25 H 0.1366 0.6473 0.7822
C35 C 0.2860(2) 0.6190(2) 0.7567(2)
C36 C 0.3449(2) 0.6998(2) 0.8081(2)
H26 H 0.3605 0.7522 0.7862
C37 C 0.3811(3) 0.7057(2) 0.8900(2)
H27 H 0.4206 0.7616 0.9233
C38 C 0.3602(3) 0.6309(3) 0.9232(2)
H28 H 0.3854 0.6347 0.9793
C39 C 0.3021(3) 0.5502(3) 0.8740(2)
H29 H 0.2876 0.4982 0.8964
C40 C 0.2649(2) 0.5444(2) 0.7924(2)
H30 H 0.2240 0.4884 0.7598
C41 C 0.2967(2) 0.4942(2) 0.63567(19)
C42 C 0.3968(2) 0.5285(2) 0.6773(2)
H31 H 0.4328 0.5904 0.6915
C43 C 0.4451(3) 0.4746(2) 0.6986(2)
H32 H 0.5136 0.4999 0.7263
C44 C 0.3946(3) 0.3845(2) 0.6799(2)
H33 H 0.4272 0.3476 0.6966
C45 C 0.2960(3) 0.3486(2) 0.6366(2)
H34 H 0.2608 0.2867 0.6221
C46 C 0.2483(2) 0.4025(2) 0.6142(2)
H35 H 0.1808 0.3767 0.5833
C47 C 0.2135(2) 0.4783(2) 0.4449(2)
C48 C 0.3085(3) 0.4810(2) 0.4577(2)
H36 H 0.3575 0.5118 0.5071
C49 C 0.3326(3) 0.4397(3) 0.3998(2)
H37 H 0.3977 0.4432 0.4099
C50 C 0.2626(3) 0.3935(3) 0.3277(3)
H38 H 0.2791 0.3654 0.2881
C51 C 0.1679(3) 0.3890(3) 0.3141(3)
H39 H 0.1191 0.3575 0.2648
C52 C 0.1440(3) 0.4295(2) 0.3712(2)
H40 H 0.0782 0.4245 0.3607
C53 C 0.4479(3) 1.2815(3) 0.5428(2)
H41 H 0.5084 1.3263 0.5805
H42 H 0.4106 1.2408 0.5724
H43 H 0.4078 1.3100 0.5140
C54 C 0.5294(3) 1.2894(2) 0.4439(3)
H44 H 0.5976 1.3236 0.4790
H45 H 0.5008 1.3311 0.4249
C55 C 0.5301(3) 1.2338(3) 0.3744(2)
H46 H 0.4623 1.2022 0.3377
H47 H 0.5716 1.2711 0.3446
C56 C 0.5647(3) 1.1131(2) 0.3382(2)
H48 H 0.4959 1.0772 0.3074
H49 H 0.5962 1.0749 0.3598
H50 H 0.5996 1.1466 0.3033
C57 C -0.0579(3) 0.7797(3) 0.5426(3)
H51 H -0.0010 0.8286 0.5799
H52 H -0.0926 0.7382 0.5730
H53 H -0.1026 0.8023 0.5107
C58 C 0.0328(3) 0.7931(3) 0.4491(3)
H54 H 0.1012 0.8254 0.4845
H55 H 0.0056 0.8365 0.4328
C59 C 0.0319(3) 0.7402(3) 0.3775(3)
H56 H -0.0362 0.7102 0.3409
H57 H 0.0734 0.7789 0.3484
C60 C 0.0594(3) 0.6175(3) 0.3345(2)
H58 H -0.0105 0.5837 0.3056
H59 H 0.0896 0.5774 0.3529
H60 H 0.0926 0.6511 0.2987
P1A P 0.67541(6) 1.04580(6) 0.52167(5)
P2A P 0.68854(7) 1.19754(6) 0.64193(6)
C1A C 0.7388(2) 1.0567(2) 0.6275(2)
C2A C 0.7353(2) 1.1192(2) 0.6815(2)
C3A C 0.7188(2) 0.9850(2) 0.4605(2)
C4A C 0.6528(3) 0.9378(2) 0.3850(2)
H1A H 0.5871 0.9332 0.3718
C5A C 0.6806(3) 0.8981(3) 0.3296(2)
H2A H 0.6343 0.8675 0.2790
C6A C 0.7755(4) 0.9024(3) 0.3472(3)
H3A H 0.7948 0.8754 0.3090
C7A C 0.8418(3) 0.9469(2) 0.4214(3)
H4A H 0.9070 0.9501 0.4342
C8A C 0.8143(3) 0.9864(2) 0.4769(2)
H5A H 0.8610 1.0156 0.5278
C9A C 0.7925(2) 1.0009(2) 0.65250(19)
C10A C 0.8911(2) 1.0372(2) 0.7004(2)
H6A H 0.9234 1.0985 0.7208
C11A C 0.9420(3) 0.9845(3) 0.7184(2)
H7A H 1.0089 1.0104 0.7505
C12A C 0.8970(3) 0.8950(3) 0.6904(2)
H8A H 0.9325 0.8594 0.7028
C13A C 0.7993(3) 0.8581(2) 0.6439(2)
H9A H 0.7672 0.7965 0.6249
C14A C 0.7481(2) 0.9098(2) 0.6248(2)
H10A H 0.6814 0.8833 0.5922
C15A C 0.7668(2) 1.1214(2) 0.7692(2)
C16A C 0.7306(2) 1.0450(2) 0.8011(2)
H11A H 0.6899 0.9907 0.7656
C17A C 0.7526(3) 1.0467(2) 0.8834(2)
H12A H 0.7281 0.9938 0.9034
C18A C 0.8103(2) 1.1252(3) 0.9359(2)
H13A H 0.8243 1.1269 0.9921
C19A C 0.8475(2) 1.2017(2) 0.9060(2)
H14A H 0.8880 1.2558 0.9418
C20A C 0.8257(2) 1.1994(2) 0.8236(2)
H15A H 0.8517 1.2524 0.8041
C21A C 0.6607(2) 1.2526(2) 0.7194(2)
C22A C 0.6232(3) 1.2167(3) 0.7799(2)
H16A H 0.6144 1.1582 0.7854
C23A C 0.5982(3) 1.2642(3) 0.8323(2)
H17A H 0.5744 1.2383 0.8736
C24A C 0.6074(3) 1.3477(3) 0.8253(3)
H18A H 0.5892 1.3793 0.8608
C25A C 0.6437(3) 1.3852(3) 0.7658(2)
H19A H 0.6500 1.4431 0.7599
C26A C 0.6707(3) 1.3389(2) 0.7146(2)
H20A H 0.6970 1.3665 0.6749
Na1A Na 0.48820(9) 0.89012(8) 0.49180(8)
Na2A Na 0.74975(9) 1.25089(9) 0.50508(8)
O1A O 0.52759(17) 0.76570(15) 0.51295(15)
O2A O 0.43182(16) 0.82735(15) 0.59694(14)
C53A C 0.5521(3) 0.7185(3) 0.4572(2)
H41A H 0.4916 0.6737 0.4195
H42A H 0.5894 0.7592 0.4276
H43A H 0.5922 0.6900 0.4860
C54A C 0.4706(3) 0.7106(2) 0.5561(3)
H44A H 0.4024 0.6764 0.5210
H45A H 0.4992 0.6689 0.5751
C55A C 0.4699(3) 0.7662(3) 0.6256(2)
H46A H 0.5377 0.7978 0.6623
H47A H 0.4284 0.7289 0.6554
C56A C 0.4353(3) 0.8869(2) 0.6618(2)
H48A H 0.5041 0.9228 0.6926
H49A H 0.4038 0.9251 0.6402
H50A H 0.4004 0.8534 0.6967
P3A P 0.80419(6) 1.30799(6) 0.36710(6)
P4A P 0.82601(6) 1.45995(6) 0.49088(5)
C27A C 0.7556(2) 1.3863(2) 0.3302(2)
C28A C 0.7566(2) 1.4490(2) 0.3871(2)
C29A C 0.8373(2) 1.2604(2) 0.2893(2)
C30A C 0.8424(2) 1.1785(2) 0.2969(2)
H21A H 0.8220 1.1496 0.3382
C31A C 0.8760(3) 1.1393(2) 0.2461(2)
H22A H 0.8795 1.0848 0.2535
C32A C 0.9045(3) 1.1788(3) 0.1845(2)
H23A H 0.9284 1.1520 0.1500
C33A C 0.8980(3) 1.2573(3) 0.1737(3)
H24A H 0.9156 1.2839 0.1305
C34A C 0.8660(2) 1.2979(2) 0.2257(2)
H25A H 0.8634 1.3527 0.2178
C35A C 0.7140(2) 1.3810(2) 0.2433(2)
C36A C 0.6551(2) 1.3002(2) 0.1919(2)
H26A H 0.6395 1.2478 0.2138
C37A C 0.6189(3) 1.2943(2) 0.1100(2)
H27A H 0.5794 1.2384 0.0767
C38A C 0.6398(3) 1.3691(3) 0.0768(2)
H28A H 0.6146 1.3653 0.0207
C39A C 0.6979(3) 1.4498(3) 0.1260(2)
H29A H 0.7124 1.5018 0.1036
C40A C 0.7351(2) 1.4556(2) 0.2076(2)
H30A H 0.7760 1.5116 0.2402
C41A C 0.7033(2) 1.5058(2) 0.36433(19)
C42A C 0.6032(2) 1.4715(2) 0.3227(2)
H31A H 0.5672 1.4096 0.3085
C43A C 0.5549(3) 1.5254(2) 0.3014(2)
H32A H 0.4864 1.5001 0.2737
C44A C 0.6054(3) 1.6155(2) 0.3201(2)
H33A H 0.5728 1.6524 0.3034
C45A C 0.7040(3) 1.6514(2) 0.3634(2)
H34A H 0.7392 1.7133 0.3779
C46A C 0.7517(2) 1.5975(2) 0.3858(2)
H35A H 0.8192 1.6233 0.4167
C47A C 0.7865(2) 1.5217(2) 0.5551(2)
C48A C 0.6915(3) 1.5190(2) 0.5423(2)
H36A H 0.6425 1.4882 0.4929
C49A C 0.6674(3) 1.5603(3) 0.6002(2)
H37A H 0.6023 1.5568 0.5901
C50A C 0.7374(3) 1.6065(3) 0.6723(3)
H38A H 0.7209 1.6346 0.7119
C51A C 0.8321(3) 1.6110(3) 0.6859(3)
H39A H 0.8809 1.6425 0.7352
C52A C 0.8560(3) 1.5705(2) 0.6288(2)
H40A H 0.9218 1.5755 0.6393
O3A O 1.02511(17) 1.26398(15) 0.50922(15)
O4A O 0.93100(17) 1.32333(16) 0.59785(15)
C57A C 1.0579(3) 1.2203(3) 0.4574(3)
H51A H 1.0010 1.1714 0.4201
H52A H 1.0926 1.2618 0.4270
H53A H 1.1026 1.1977 0.4893
C58A C 0.9672(3) 1.2069(3) 0.5509(3)
H54A H 0.8988 1.1746 0.5155
H55A H 0.9944 1.1635 0.5672
C59A C 0.9681(3) 1.2598(3) 0.6225(3)
H56A H 1.0362 1.2898 0.6591
H57A H 0.9266 1.2211 0.6516
C60A C 0.9406(3) 1.3825(3) 0.6655(2)
H58A H 1.0105 1.4163 0.6944
H59A H 0.9104 1.4226 0.6471
H60A H 0.9074 1.3489 0.7013
Na3A Na 0.98712(9) 1.39006(8) 0.49297(8)
Na3A_2 Na -0.01288(9) 0.39006(8) 0.49297(8)
P4A_2 P -0.17399(6) 0.45995(6) 0.49088(5)
Na3_2 Na 1.01288(9) 1.60994(8) 0.50703(8)
P4_2 P 1.17399(6) 1.54005(6) 0.50912(5)
Na4 Na 0.23047(9) 0.24150(8) 0.98757(8)
O5 O 0.12487(18) 0.30657(16) 1.00676(15)
O6 O 0.20877(18) 0.31963(16) 0.88275(15)
O7 O 0.3824(2) 0.34390(19) 1.0674(2)
O8 O 0.2636(2) 0.1902(3) 1.1091(2)
O9 O 0.10167(16) 0.10959(15) 0.90918(16)
O10 O 0.29875(17) 0.15300(17) 0.94015(16)
C61 C 0.1231(3) 0.3391(3) 1.0832(3)
H61 H 0.1791 0.3959 1.1056
H62 H 0.1274 0.2974 1.1192
H63 H 0.0615 0.3462 1.0776
C62 C 0.1151(3) 0.3633(3) 0.9513(2)
H64 H 0.1697 0.4223 0.9715
H65 H 0.0522 0.3695 0.9449
C63 C 0.1171(3) 0.3261(3) 0.8730(2)
H66 H 0.0624 0.2672 0.8527
H67 H 0.1087 0.3643 0.8336
C64 C 0.2173(4) 0.2898(3) 0.8078(3)
H68 H 0.1685 0.2293 0.7867
H69 H 0.2836 0.2921 0.8155
H70 H 0.2055 0.3277 0.7698
C65 C 0.4166(4) 0.4334(4) 1.0665(6)
H71 H 0.3736 0.4566 1.0838
H72 H 0.4165 0.4434 1.0120
H73 H 0.4838 0.4634 1.1029
C66 C 0.4081(3) 0.3192(4) 1.1479(3)
H74 H 0.4805 0.3445 1.1721
H75 H 0.3793 0.3419 1.1840
C67 C 0.3678(4) 0.2226(4) 1.1360(3)
H76 H 0.3918 0.1997 1.0958
H77 H 0.3893 0.2035 1.1870
C68 C 0.2196(4) 0.1671(3) 1.1669(3)
H78 H 0.2367 0.1216 1.1904
H79 H 0.1479 0.1445 1.1435
H80 H 0.2422 0.2187 1.2086
C69 C 0.0093(3) 0.0866(3) 0.9245(3)
H81 H -0.0383 0.0304 0.8905
H82 H -0.0148 0.1323 0.9126
H83 H 0.0174 0.0814 0.9810
C70 C 0.1394(3) 0.0447(2) 0.9210(3)
H84 H 0.0894 -0.0130 0.8896
H85 H 0.1556 0.0397 0.9783
C71 C 0.2295(3) 0.0700(3) 0.8946(3)
H86 H 0.2575 0.0257 0.9030
H87 H 0.2130 0.0733 0.8369
C72 C 0.3896(3) 0.1805(3) 0.9215(3)
H88 H 0.4212 0.1406 0.9375
H89 H 0.4331 0.2403 0.9504
H90 H 0.3771 0.1794 0.8637
C73 C -0.0481(3) 0.4701(2) 0.9922(3)
C74 C -0.1172(3) 0.4323(3) 0.9197(4)
H91 H -0.1826 0.3921 0.9139
C75 C -0.0853(4) 0.4566(3) 0.8575(4)
H92 H -0.1317 0.4307 0.8059
C76 C 0.0075(3) 0.5151(3) 0.8594(3)
H93 H 0.0221 0.5281 0.8110
C77 C -0.0780(4) 0.4460(3) 1.0686(4)
H94 H -0.1426 0.4058 1.0654
C73A C 0.0481(3) 0.5299(2) 1.0078(3)
C74A C 0.1172(3) 0.5677(3) 1.0803(4)
H91A H 0.1826 0.6079 1.0861
C75A C 0.0853(4) 0.5434(3) 1.1425(4)
H92A H 0.1317 0.5693 1.1941
C76A C -0.0075(3) 0.4849(3) 1.1406(3)
H93A H -0.0221 0.4719 1.1890
C77A C 0.0780(4) 0.5540(3) 0.9314(4)
H94A H 0.1426 0.5942 0.9346
C78 C 0.3799(3) 0.9198(3) 0.9300(3)
H95 H 0.3215 0.8730 0.9315
C79 C 0.3891(3) 0.9433(3) 0.8582(3)
H96 H 0.3375 0.9124 0.8101
C80 C 0.4731(3) 1.0116(3) 0.8554(3)
H97 H 0.4783 1.0275 0.8052
C81 C 0.5476(3) 1.0559(3) 0.9217(3)
H98 H 0.6048 1.1025 0.9179
C82 C 0.4578(2) 0.9653(2) 1.0033(3)
C82A C 0.5422(2) 1.0347(2) 0.9967(3)
C78A C 0.6201(3) 1.0802(3) 1.0700(3)
H95A H 0.6785 1.1270 1.0685
C79A C 0.6109(3) 1.0567(3) 1.1418(3)
H96A H 0.6625 1.0876 1.1899
C80A C 0.5269(3) 0.9884(3) 1.1446(3)
H97A H 0.5217 0.9725 1.1948
C81A C 0.4524(3) 0.9441(3) 1.0783(3)
H98A H 0.3952 0.8975 1.0821
loop_
_geom_bond_atom_site_label_1
_geom_bond_atom_site_label_2
_geom_bond_site_symmetry_1
_geom_bond_site_symmetry_2
P1 Na1 1_555 1_555
P2 Na2 1_555 1_555
P3 Na2 1_555 1_555
P4 Na3 1_555 1_555
Na1 O1 1_555 1_555
Na2 O4 1_555 1_555
Na3 P3 1_555 1_555
Na4 O5 1_555 1_555
O1 C53 1_555 1_555
O2 Na1 1_555 1_555
O3 Na3 1_555 1_555
O4 Na3 1_555 1_555
O5 C61 1_555 1_555
O6 Na4 1_555 1_555
O7 Na4 1_555 1_555
O8 Na4 1_555 1_555
O9 Na4 1_555 1_555
O10 Na4 1_555 1_555
C1 P1 1_555 1_555
C2 P2 1_555 1_555
C3 P1 1_555 1_555
C4 C3 1_555 1_555
H1 C4 1_555 1_555
C5 C4 1_555 1_555
H2 C5 1_555 1_555
C6 C5 1_555 1_555
H3 C6 1_555 1_555
C7 C6 1_555 1_555
H4 C7 1_555 1_555
C8 C3 1_555 1_555
H5 C8 1_555 1_555
C9 C1 1_555 1_555
C10 C9 1_555 1_555
H6 C10 1_555 1_555
C11 C10 1_555 1_555
H7 C11 1_555 1_555
C12 C11 1_555 1_555
H8 C12 1_555 1_555
C13 C12 1_555 1_555
H9 C13 1_555 1_555
C14 C9 1_555 1_555
H10 C14 1_555 1_555
C15 C2 1_555 1_555
C16 C15 1_555 1_555
H11 C16 1_555 1_555
C17 C16 1_555 1_555
H12 C17 1_555 1_555
C18 C17 1_555 1_555
H13 C18 1_555 1_555
C19 C18 1_555 1_555
H14 C19 1_555 1_555
C20 C15 1_555 1_555
H15 C20 1_555 1_555
C21 P2 1_555 1_555
C22 C21 1_555 1_555
H16 C22 1_555 1_555
C23 C22 1_555 1_555
H17 C23 1_555 1_555
C24 C23 1_555 1_555
H18 C24 1_555 1_555
C25 C24 1_555 1_555
H19 C25 1_555 1_555
C26 C21 1_555 1_555
H20 C26 1_555 1_555
C27 P3 1_555 1_555
C28 P4 1_555 1_555
C29 P3 1_555 1_555
C30 C29 1_555 1_555
H21 C30 1_555 1_555
C31 C30 1_555 1_555
H22 C31 1_555 1_555
C32 C31 1_555 1_555
H23 C32 1_555 1_555
C33 C32 1_555 1_555
H24 C33 1_555 1_555
C34 C29 1_555 1_555
H25 C34 1_555 1_555
C35 C27 1_555 1_555
C36 C35 1_555 1_555
H26 C36 1_555 1_555
C37 C36 1_555 1_555
H27 C37 1_555 1_555
C38 C37 1_555 1_555
H28 C38 1_555 1_555
C39 C38 1_555 1_555
H29 C39 1_555 1_555
C40 C35 1_555 1_555
H30 C40 1_555 1_555
C41 C28 1_555 1_555
C42 C41 1_555 1_555
H31 C42 1_555 1_555
C43 C42 1_555 1_555
H32 C43 1_555 1_555
C44 C43 1_555 1_555
H33 C44 1_555 1_555
C45 C44 1_555 1_555
H34 C45 1_555 1_555
C46 C41 1_555 1_555
H35 C46 1_555 1_555
C47 P4 1_555 1_555
C48 C47 1_555 1_555
H36 C48 1_555 1_555
C49 C48 1_555 1_555
H37 C49 1_555 1_555
C50 C49 1_555 1_555
H38 C50 1_555 1_555
C51 C50 1_555 1_555
H39 C51 1_555 1_555
C52 C47 1_555 1_555
H40 C52 1_555 1_555
C53 H41 1_555 1_555
H42 C53 1_555 1_555
H43 C53 1_555 1_555
C54 O1 1_555 1_555
H44 C54 1_555 1_555
H45 C54 1_555 1_555
C55 O2 1_555 1_555
H46 C55 1_555 1_555
H47 C55 1_555 1_555
C56 O2 1_555 1_555
H48 C56 1_555 1_555
H49 C56 1_555 1_555
H50 C56 1_555 1_555
C57 O3 1_555 1_555
H51 C57 1_555 1_555
H52 C57 1_555 1_555
H53 C57 1_555 1_555
C58 O3 1_555 1_555
H54 C58 1_555 1_555
H55 C58 1_555 1_555
C59 O4 1_555 1_555
H56 C59 1_555 1_555
H57 C59 1_555 1_555
C60 O4 1_555 1_555
H58 C60 1_555 1_555
H59 C60 1_555 1_555
H60 C60 1_555 1_555
C61 H61 1_555 1_555
H62 C61 1_555 1_555
H63 C61 1_555 1_555
C62 O5 1_555 1_555
H64 C62 1_555 1_555
H65 C62 1_555 1_555
C63 O6 1_555 1_555
H66 C63 1_555 1_555
H67 C63 1_555 1_555
C64 O6 1_555 1_555
H68 C64 1_555 1_555
H69 C64 1_555 1_555
H70 C64 1_555 1_555
C65 O7 1_555 1_555
H71 C65 1_555 1_555
H72 C65 1_555 1_555
H73 C65 1_555 1_555
C66 O7 1_555 1_555
H74 C66 1_555 1_555
H75 C66 1_555 1_555
C67 O8 1_555 1_555
H76 C67 1_555 1_555
H77 C67 1_555 1_555
C68 O8 1_555 1_555
H78 C68 1_555 1_555
H79 C68 1_555 1_555
H80 C68 1_555 1_555
C69 O9 1_555 1_555
H81 C69 1_555 1_555
H82 C69 1_555 1_555
H83 C69 1_555 1_555
C70 O9 1_555 1_555
H84 C70 1_555 1_555
H85 C70 1_555 1_555
C71 O10 1_555 1_555
H86 C71 1_555 1_555
H87 C71 1_555 1_555
C72 O10 1_555 1_555
H88 C72 1_555 1_555
H89 C72 1_555 1_555
H90 C72 1_555 1_555
C73 C74 1_555 1_555
C74 H91 1_555 1_555
C75 C74 1_555 1_555
H92 C75 1_555 1_555
C76 C75 1_555 1_555
H93 C76 1_555 1_555
C77 C73 1_555 1_555
H94 C77 1_555 1_555
C78 H95 1_555 1_555
C79 C78 1_555 1_555
H96 C79 1_555 1_555
C80 C79 1_555 1_555
H97 C80 1_555 1_555
C81 C80 1_555 1_555
H98 C81 1_555 1_555
C82 C78 1_555 1_555
C73A C73 1_555 1_555
C74A C73A 1_555 1_555
H91A C74A 1_555 1_555
C75A C74A 1_555 1_555
H92A C75A 1_555 1_555
C76A C77 1_555 1_555
H93A C76A 1_555 1_555
C77A C76 1_555 1_555
H94A C77A 1_555 1_555
C82A C81 1_555 1_555
C78A C82A 1_555 1_555
H95A C78A 1_555 1_555
C79A C78A 1_555 1_555
H96A C79A 1_555 1_555
C80A C79A 1_555 1_555
H97A C80A 1_555 1_555
C81A C82 1_555 1_555
H98A C81A 1_555 1_555
P1A Na1 1_555 1_555
P2A Na1 1_555 1_555
C1A P1A 1_555 1_555
C2A P2A 1_555 1_555
C3A P1A 1_555 1_555
C4A C3A 1_555 1_555
H1A C4A 1_555 1_555
C5A C4A 1_555 1_555
H2A C5A 1_555 1_555
C6A C5A 1_555 1_555
H3A C6A 1_555 1_555
C7A C6A 1_555 1_555
H4A C7A 1_555 1_555
C8A C3A 1_555 1_555
H5A C8A 1_555 1_555
C9A C1A 1_555 1_555
C10A C9A 1_555 1_555
H6A C10A 1_555 1_555
C11A C10A 1_555 1_555
H7A C11A 1_555 1_555
C12A C11A 1_555 1_555
H8A C12A 1_555 1_555
C13A C12A 1_555 1_555
H9A C13A 1_555 1_555
C14A C9A 1_555 1_555
H10A C14A 1_555 1_555
C15A C2A 1_555 1_555
C16A C15A 1_555 1_555
H11A C16A 1_555 1_555
C17A C16A 1_555 1_555
H12A C17A 1_555 1_555
C18A C17A 1_555 1_555
H13A C18A 1_555 1_555
C19A C18A 1_555 1_555
H14A C19A 1_555 1_555
C20A C15A 1_555 1_555
H15A C20A 1_555 1_555
C21A P2A 1_555 1_555
C22A C21A 1_555 1_555
H16A C22A 1_555 1_555
C23A C22A 1_555 1_555
H17A C23A 1_555 1_555
C24A C23A 1_555 1_555
H18A C24A 1_555 1_555
C25A C24A 1_555 1_555
H19A C25A 1_555 1_555
C26A C21A 1_555 1_555
H20A C26A 1_555 1_555
Na1A P1 1_555 1_555
Na2A O2 1_555 1_555
O1A Na1A 1_555 1_555
O2A Na2 1_555 1_555
C53A O1A 1_555 1_555
H41A C53A 1_555 1_555
H42A C53A 1_555 1_555
H43A C53A 1_555 1_555
C54A O1A 1_555 1_555
H44A C54A 1_555 1_555
H45A C54A 1_555 1_555
C55A O2A 1_555 1_555
H46A C55A 1_555 1_555
H47A C55A 1_555 1_555
C56A O2A 1_555 1_555
H48A C56A 1_555 1_555
H49A C56A 1_555 1_555
H50A C56A 1_555 1_555
P3A Na2A 1_555 1_555
P4A C28A 1_555 1_555
C27A P3A 1_555 1_555
C28A C27A 1_555 1_555
C29A P3A 1_555 1_555
C30A C29A 1_555 1_555
H21A C30A 1_555 1_555
C31A C30A 1_555 1_555
H22A C31A 1_555 1_555
C32A C31A 1_555 1_555
H23A C32A 1_555 1_555
C33A C32A 1_555 1_555
H24A C33A 1_555 1_555
C34A C29A 1_555 1_555
H25A C34A 1_555 1_555
C35A C27A 1_555 1_555
C36A C35A 1_555 1_555
H26A C36A 1_555 1_555
C37A C36A 1_555 1_555
H27A C37A 1_555 1_555
C38A C37A 1_555 1_555
H28A C38A 1_555 1_555
C39A C38A 1_555 1_555
H29A C39A 1_555 1_555
C40A C35A 1_555 1_555
H30A C40A 1_555 1_555
C41A C28A 1_555 1_555
C42A C41A 1_555 1_555
H31A C42A 1_555 1_555
C43A C42A 1_555 1_555
H32A C43A 1_555 1_555
C44A C43A 1_555 1_555
H33A C44A 1_555 1_555
C45A C44A 1_555 1_555
H34A C45A 1_555 1_555
C46A C41A 1_555 1_555
H35A C46A 1_555 1_555
C47A P4A 1_555 1_555
C48A C47A 1_555 1_555
H36A C48A 1_555 1_555
C49A C48A 1_555 1_555
H37A C49A 1_555 1_555
C50A C49A 1_555 1_555
H38A C50A 1_555 1_555
C51A C50A 1_555 1_555
H39A C51A 1_555 1_555
C52A C47A 1_555 1_555
H40A C52A 1_555 1_555
O3A C57A 1_555 1_555
O4A Na2A 1_555 1_555
C57A H51A 1_555 1_555
H52A C57A 1_555 1_555
H53A C57A 1_555 1_555
C58A O3A 1_555 1_555
H54A C58A 1_555 1_555
H55A C58A 1_555 1_555
C59A O4A 1_555 1_555
H56A C59A 1_555 1_555
H57A C59A 1_555 1_555
C60A O4A 1_555 1_555
H58A C60A 1_555 1_555
H59A C60A 1_555 1_555
H60A C60A 1_555 1_555
Na3A P3A 1_555 1_555
Na3A_2 P4 1_555 1_555
P4A_2 Na3 1_555 1_555
Na3_2 P4A 1_555 1_555
P4_2 Na3A 1_555 1_555
P2 Na1A 1_555 1_555
C1 C2 1_555 1_555
C7 C8 1_555 1_555
C13 C14 1_555 1_555
C19 C20 1_555 1_555
C25 C26 1_555 1_555
C27 C28 1_555 1_555
C33 C34 1_555 1_555
C39 C40 1_555 1_555
C45 C46 1_555 1_555
C51 C52 1_555 1_555
C54 C55 1_555 1_555
C58 C59 1_555 1_555
C62 C63 1_555 1_555
C66 C67 1_555 1_555
C70 C71 1_555 1_555
C82 C82A 1_555 1_555
C73A C77A 1_555 1_555
C75A C76A 1_555 1_555
C80A C81A 1_555 1_555
P1A Na1A 1_555 1_555
P2A Na2A 1_555 1_555
C1A C2A 1_555 1_555
C7A C8A 1_555 1_555
C13A C14A 1_555 1_555
C19A C20A 1_555 1_555
C25A C26A 1_555 1_555
Na1A O2A 1_555 1_555
C54A C55A 1_555 1_555
P4A Na3A 1_555 1_555
C33A C34A 1_555 1_555
C39A C40A 1_555 1_555
C45A C46A 1_555 1_555
C51A C52A 1_555 1_555
O3A Na3A 1_555 1_555
O4A Na3A 1_555 1_555
C58A C59A 1_555 1_555
Na3A_2 P4A_2 1_555 1_555
Na3_2 P4_2 1_555 1_555

#END
