
#######################################################################
#
#                 Cambridge Crystallographic Data Centre
#                                CCDC 
#
#######################################################################
#
# If this CIF has been generated from an entry in the Cambridge 
# Structural Database, then it will include bibliographic, chemical, 
# crystal, experimental, refinement or atomic coordinate data resulting 
# from the CCDC's data processing and validation procedures.
#
#######################################################################

data_HUQDII
_symmetry_cell_setting           orthorhombic
_symmetry_space_group_name_H-M   'P b c a'
_symmetry_Int_Tables_number      61
_space_group_name_Hall           '-P 2ac 2ab'
loop_
_symmetry_equiv_pos_site_id
_symmetry_equiv_pos_as_xyz
1 x,y,z
2 1/2-x,-y,1/2+z
3 -x,1/2+y,1/2-z
4 1/2+x,1/2-y,-z
5 -x,-y,-z
6 1/2+x,y,1/2-z
7 x,1/2-y,1/2+z
8 1/2-x,1/2+y,z
_cell_length_a                   9.3242(14)
_cell_length_b                   16.887(3)
_cell_length_c                   20.587(3)
_cell_angle_alpha                90
_cell_angle_beta                 90
_cell_angle_gamma                90
_cell_volume                     3241.58
loop_
_atom_site_label
_atom_site_type_symbol
_atom_site_fract_x
_atom_site_fract_y
_atom_site_fract_z
C1 C 0.4272(10) 0.2773(5) 0.2831(4)
H1 H 0.4967 0.3006 0.3133
H2 H 0.3665 0.2394 0.3065
H3 H 0.3672 0.3193 0.2646
C2 C 0.5047(9) 0.2358(5) 0.2302(4)
C3 C 0.5579(9) 0.1572(5) 0.2295(4)
C4 C 0.6139(9) 0.1459(5) 0.1678(4)
C5 C 0.6887(11) 0.0771(5) 0.1390(4)
H4 H 0.6258 0.0513 0.1073
H5 H 0.7135 0.0393 0.1734
H6 H 0.7765 0.0950 0.1173
C6 C 0.7028(11) 0.1747(5) 0.3726(4)
H7 H 0.6365 0.2068 0.3985
H8 H 0.7450 0.2075 0.3383
H9 H 0.7790 0.1541 0.4007
C7 C 0.6230(9) 0.1071(4) 0.3426(4)
C8 C 0.5601(9) 0.0990(5) 0.2825(4)
C9 C 0.5070(9) 0.0215(5) 0.2808(4)
C10 C 0.4231(10) -0.0181(5) 0.2279(4)
H10 H 0.4887 -0.0357 0.1936
H11 H 0.3537 0.0194 0.2098
H12 H 0.3722 -0.0640 0.2458
I1 I 0.38030(6) 0.36048(3) 0.01995(2)
I2 I 0.05876(6) 0.37770(3) 0.03982(2)
I3 I -0.24433(6) 0.38669(3) 0.05087(3)
N1 N 0.5266(8) 0.2701(4) 0.1727(3)
N2 N 0.5937(8) 0.2148(4) 0.1359(3)
H13 H 0.6211 0.2230 0.0956
N3 N 0.6070(8) 0.0373(4) 0.3732(3)
H14 H 0.6396 0.0274 0.4125
N4 N 0.5347(7) -0.0163(4) 0.3363(3)
Cu1 Cu 0.49021(12) 0.37505(6) 0.14021(5)
I3_2 I 0.75567(6) 0.38669(3) 0.05087(3)
N4B N 0.4653(7) 0.4837(4) 0.1637(3)
Cu1_2 Cu -0.50979(12) 0.37505(6) 0.14021(5)
Cu1B Cu 0.50979(12) -0.12495(6) 0.35979(5)
loop_
_geom_bond_atom_site_label_1
_geom_bond_atom_site_label_2
_geom_bond_site_symmetry_1
_geom_bond_site_symmetry_2
C1 H1 1_555 1_555
H2 C1 1_555 1_555
H3 C1 1_555 1_555
C2 C1 1_555 1_555
C3 C2 1_555 1_555
C4 C3 1_555 1_555
C5 C4 1_555 1_555
H4 C5 1_555 1_555
H5 C5 1_555 1_555
H6 C5 1_555 1_555
C6 H7 1_555 1_555
H8 C6 1_555 1_555
H9 C6 1_555 1_555
C7 C6 1_555 1_555
C8 C3 1_555 1_555
C9 C8 1_555 1_555
C10 C9 1_555 1_555
H10 C10 1_555 1_555
H11 C10 1_555 1_555
H12 C10 1_555 1_555
I1 I2 1_555 1_555
I2 I3 1_555 1_555
I3 Cu1_2 1_555 1_555
N1 C2 1_555 1_555
N2 C4 1_555 1_555
H13 N2 1_555 1_555
N3 C7 1_555 1_555
H14 N3 1_555 1_555
N4 C9 1_555 1_555
Cu1 I1 1_555 1_555
I3_2 Cu1 1_555 1_555
N4B Cu1 1_555 1_555
Cu1B N4 1_555 1_555
C7 C8 1_555 1_555
N1 N2 1_555 1_555
N1 Cu1 1_555 1_555
N3 N4 1_555 1_555

#END
