
#######################################################################
#
#                 Cambridge Crystallographic Data Centre
#                                CCDC 
#
#######################################################################
#
# If this CIF has been generated from an entry in the Cambridge 
# Structural Database, then it will include bibliographic, chemical, 
# crystal, experimental, refinement or atomic coordinate data resulting 
# from the CCDC's data processing and validation procedures.
#
#######################################################################

data_HUQKEJ
_symmetry_cell_setting           tetragonal
_symmetry_space_group_name_H-M   'I 41/a c d'
_symmetry_Int_Tables_number      142
_space_group_name_Hall           '-I 4bd 2c'
loop_
_symmetry_equiv_pos_site_id
_symmetry_equiv_pos_as_xyz
1 x,y,z
2 1/4-y,3/4+x,1/4+z
3 1/4+y,1/4-x,3/4+z
4 1/4+y,3/4+x,3/4-z
5 1/4-y,1/4-x,1/4-z
6 1/2+x,1/2+y,1/2+z
7 3/4-y,1/4+x,3/4+z
8 3/4+y,3/4-x,1/4+z
9 3/4+y,1/4+x,1/4-z
10 1/2+x,y,1/2-z
11 -x,y,1/2+z
12 1/2+x,-y,z
13 x,1/2+y,-z
14 1/2-x,1/2+y,z
15 x,1/2-y,1/2+z
16 1/4+y,1/4+x,1/4+z
17 -x,-y,-z
18 3/4+y,1/4-x,3/4-z
19 3/4-y,3/4+x,1/4-z
20 3/4-y,1/4-x,1/4+z
21 3/4+y,3/4+x,3/4+z
22 1/2-x,1/2-y,1/2-z
23 1/4+y,3/4-x,1/4-z
24 1/4-y,1/4+x,3/4-z
25 1/4-y,3/4-x,3/4+z
26 1/2-x,-y,1/2+z
27 x,-y,1/2-z
28 1/2-x,y,-z
29 -x,1/2-y,z
30 1/2+x,1/2-y,-z
31 -x,1/2+y,1/2-z
32 3/4-y,3/4-x,3/4-z
_cell_length_a                   19.2505(19)
_cell_length_b                   19.2505(19)
_cell_length_c                   26.438(4)
_cell_angle_alpha                90
_cell_angle_beta                 90
_cell_angle_gamma                90
_cell_volume                     9797.44
loop_
_atom_site_label
_atom_site_type_symbol
_atom_site_fract_x
_atom_site_fract_y
_atom_site_fract_z
Mn1 Mn 0.0000 0.0000 0.0000
O1 O -0.00752(10) 0.08865(9) 0.05195(6)
O2 O 0.03706(10) 0.06551(10) -0.06028(6)
N1 N 0.10955(12) -0.01606(12) 0.02963(8)
C1 C 0.15324(17) 0.03585(17) 0.04050(10)
H1 H 0.1392 0.0811 0.0338
C2 C 0.21845(17) 0.02540(17) 0.06130(10)
H2 H 0.2470 0.0633 0.0680
C3 C 0.24111(15) -0.04059(16) 0.07210(9)
C4 C 0.19513(17) -0.09360(18) 0.06114(11)
H3 H 0.2074 -0.1393 0.0683
C5 C 0.13193(17) -0.07999(17) 0.03988(10)
H4 H 0.1031 -0.1172 0.0322
C6 C 0.30997(16) -0.05561(18) 0.09626(9)
H5 H 0.3426 -0.0194 0.0870
H6 H 0.3277 -0.0992 0.0832
H12 H -0.0084 0.0781 0.0843
H13 H 0.0201 0.0645 -0.0910
H14 H 0.0509 0.1189 -0.0577
H15 H -0.0373 0.1210 0.0559
C6D C 0.30561(18) -0.05997(16) 0.15374(9)
C3D C 0.29059(16) 0.00889(15) 0.17790(9)
C2D C 0.22460(17) 0.03155(17) 0.18870(10)
C1D C 0.21415(17) 0.09676(17) 0.20950(10)
N1D N 0.26606(12) 0.14045(12) 0.22037(8)
C5D C 0.32999(17) 0.11807(17) 0.21012(10)
C4D C 0.34360(18) 0.05487(17) 0.18886(11)
H3D H 0.3893 0.0426 0.1817
H4D H 0.3672 0.1469 0.2178
H1D H 0.1689 0.1108 0.2162
H2D H 0.1867 0.0030 0.1820
H5D H 0.2694 -0.0926 0.1630
H6D H 0.3492 -0.0777 0.1668
O1P O 0.00752(10) -0.08865(9) -0.05195(6)
H12P H 0.0084 -0.0781 -0.0843
H15P H 0.0373 -0.1210 -0.0559
O2P O -0.03706(10) -0.06551(10) 0.06028(6)
H13P H -0.0201 -0.0645 0.0910
H14P H -0.0509 -0.1189 0.0577
N1P N -0.10955(12) 0.01606(12) -0.02963(8)
C1P C -0.15324(17) -0.03585(17) -0.04050(10)
H1P H -0.1392 -0.0811 -0.0338
C2P C -0.21845(17) -0.02540(17) -0.06130(10)
H2P H -0.2470 -0.0633 -0.0680
C3P C -0.24111(15) 0.04059(16) -0.07210(9)
C4P C -0.19513(17) 0.09360(18) -0.06114(11)
H3P H -0.2074 0.1393 -0.0683
C5P C -0.13193(17) 0.07999(17) -0.03988(10)
H4P H -0.1031 0.1172 -0.0322
C6P C -0.30997(16) 0.05561(18) -0.09626(9)
H5P H -0.3426 0.0194 -0.0870
H6P H -0.3277 0.0992 -0.0832
C6T C -0.30561(18) 0.05997(16) -0.15374(9)
C3T C -0.29059(16) -0.00889(15) -0.17790(9)
C2T C -0.22460(17) -0.03155(17) -0.18870(10)
C1T C -0.21415(17) -0.09676(17) -0.20950(10)
N1T N -0.26606(12) -0.14045(12) -0.22037(8)
C5T C -0.32999(17) -0.11807(17) -0.21012(10)
C4T C -0.34360(18) -0.05487(17) -0.18886(11)
H3T H -0.3893 -0.0426 -0.1817
H4T H -0.3672 -0.1469 -0.2178
H1T H -0.1689 -0.1108 -0.2162
H2T H -0.1867 -0.0030 -0.1820
H5T H -0.2694 0.0926 -0.1630
H6T H -0.3492 0.0777 -0.1668
Mn1D Mn 0.2500 0.2500 0.2500
O1D O 0.16135(9) 0.25752(10) 0.19805(6)
H12D H 0.1719 0.2584 0.1657
H15D H 0.1290 0.2873 0.1941
O1O O 0.33865(9) 0.24248(10) 0.30195(6)
H12O H 0.3281 0.2416 0.3343
H15O H 0.3710 0.2127 0.3059
O2D O 0.18449(10) 0.21294(10) 0.31028(6)
H13D H 0.1855 0.2299 0.3410
H14D H 0.1311 0.1991 0.3077
O2O O 0.31551(10) 0.28706(10) 0.18972(6)
H13O H 0.3145 0.2701 0.1590
H14O H 0.3689 0.3009 0.1923
Mn1T Mn -0.2500 -0.2500 -0.2500
N1O N 0.23394(12) 0.35955(12) 0.27963(8)
O3 O 0.00754(13) 0.07084(12) 0.15503(6)
O4 O 0.03203(12) -0.04072(11) 0.14785(6)
C7 C 0.02287(15) 0.01300(17) 0.17210(9)
C8 C 0.02781(14) 0.00567(14) 0.22779(9)
C8Z C 0.02781(14) -0.00567(14) 0.27221(9)
C7Z C 0.02287(15) -0.01300(17) 0.32790(9)
O3Z O 0.00754(13) -0.07084(12) 0.34497(6)
O4Z O 0.03203(12) 0.04072(11) 0.35215(6)
O5 O 0.5000 0.2500 0.1250
O6 O 0.05273(11) 0.16300(11) 0.30551(7)
H16 H 0.0300 0.2039 0.3268
H17 H 0.0458 0.1196 0.3255
O7 O -0.06856(15) 0.22315(18) 0.03779(10)
H8 H -0.0253 0.2302 0.0437
H9 H -0.0715 0.2343 0.0060
H7? H 0.4725 0.2333 0.1030
O8? O -0.0602(3) 0.2883(3) 0.03881(18)
H10? H -0.1034 0.2731 0.0559
H11? H -0.0739 0.3226 0.0114
loop_
_geom_bond_atom_site_label_1
_geom_bond_atom_site_label_2
_geom_bond_site_symmetry_1
_geom_bond_site_symmetry_2
Mn1 O1 1_555 1_555
O1 H12 1_555 1_555
O2 Mn1 1_555 1_555
N1 Mn1 1_555 1_555
C1 N1 1_555 1_555
H1 C1 1_555 1_555
C2 C1 1_555 1_555
H2 C2 1_555 1_555
C3 C2 1_555 1_555
C4 C3 1_555 1_555
H3 C4 1_555 1_555
C5 N1 1_555 1_555
H4 C5 1_555 1_555
C6 C3 1_555 1_555
H5 C6 1_555 1_555
H6 C6 1_555 1_555
O3 C7 1_555 1_555
O4 C7 1_555 1_555
C7 C8 1_555 1_555
C8 C8Z 1_555 1_555
O6 H16 1_555 1_555
O7 H8 1_555 1_555
H9 O7 1_555 1_555
H13 O2 1_555 1_555
H14 O2 1_555 1_555
H15 O1 1_555 1_555
H17 O6 1_555 1_555
C6D C6 1_555 1_555
C3D C6D 1_555 1_555
C2D C3D 1_555 1_555
C1D C2D 1_555 1_555
N1D C1D 1_555 1_555
C5D N1D 1_555 1_555
C4D C3D 1_555 1_555
H3D C4D 1_555 1_555
H4D C5D 1_555 1_555
H1D C1D 1_555 1_555
H2D C2D 1_555 1_555
H5D C6D 1_555 1_555
H6D C6D 1_555 1_555
C8Z C7Z 1_555 1_555
C7Z O3Z 1_555 1_555
O4Z C7Z 1_555 1_555
O1P Mn1 1_555 1_555
H12P O1P 1_555 1_555
H15P O1P 1_555 1_555
O2P Mn1 1_555 1_555
H13P O2P 1_555 1_555
H14P O2P 1_555 1_555
N1P Mn1 1_555 1_555
C1P N1P 1_555 1_555
H1P C1P 1_555 1_555
C2P C1P 1_555 1_555
H2P C2P 1_555 1_555
C3P C2P 1_555 1_555
C4P C3P 1_555 1_555
H3P C4P 1_555 1_555
C5P N1P 1_555 1_555
H4P C5P 1_555 1_555
C6P C3P 1_555 1_555
H5P C6P 1_555 1_555
H6P C6P 1_555 1_555
C6T C6P 1_555 1_555
C3T C6T 1_555 1_555
C2T C3T 1_555 1_555
C1T C2T 1_555 1_555
N1T C1T 1_555 1_555
C5T N1T 1_555 1_555
C4T C3T 1_555 1_555
H3T C4T 1_555 1_555
H4T C5T 1_555 1_555
H1T C1T 1_555 1_555
H2T C2T 1_555 1_555
H5T C6T 1_555 1_555
H6T C6T 1_555 1_555
Mn1D N1D 1_555 1_555
O1D Mn1D 1_555 1_555
H12D O1D 1_555 1_555
H15D O1D 1_555 1_555
O1O Mn1D 1_555 1_555
H12O O1O 1_555 1_555
H15O O1O 1_555 1_555
O2D Mn1D 1_555 1_555
H13D O2D 1_555 1_555
H14D O2D 1_555 1_555
O2O Mn1D 1_555 1_555
H13O O2O 1_555 1_555
H14O O2O 1_555 1_555
Mn1T N1T 1_555 1_555
N1O Mn1D 1_555 1_555
C4 C5 1_555 1_555
C5D C4D 1_555 1_555
C4P C5P 1_555 1_555
C5T C4T 1_555 1_555

#END
