
#######################################################################
#
#                 Cambridge Crystallographic Data Centre
#                                CCDC 
#
#######################################################################
#
# If this CIF has been generated from an entry in the Cambridge 
# Structural Database, then it will include bibliographic, chemical, 
# crystal, experimental, refinement or atomic coordinate data resulting 
# from the CCDC's data processing and validation procedures.
#
#######################################################################

data_HUQLEL
_symmetry_cell_setting           monoclinic
_symmetry_space_group_name_H-M   'P 21/c'
_symmetry_Int_Tables_number      14
_space_group_name_Hall           '-P 2ybc'
loop_
_symmetry_equiv_pos_site_id
_symmetry_equiv_pos_as_xyz
1 x,y,z
2 -x,1/2+y,1/2-z
3 -x,-y,-z
4 x,1/2-y,1/2+z
_cell_length_a                   19.5078(8)
_cell_length_b                   9.6382(2)
_cell_length_c                   22.4454(9)
_cell_angle_alpha                90
_cell_angle_beta                 115.464(5)
_cell_angle_gamma                90
_cell_volume                     3810.22
loop_
_atom_site_label
_atom_site_type_symbol
_atom_site_fract_x
_atom_site_fract_y
_atom_site_fract_z
Ru1 Ru 0.294592(15) 0.59237(3) 0.379376(13)
P1 P 0.31070(5) 0.58972(9) 0.28387(4)
C1 C 0.41053(19) 0.5739(3) 0.29981(16)
C2 C 0.4501(2) 0.4515(4) 0.32759(17)
H1 H 0.4239 0.3761 0.3358
C3 C 0.5266(2) 0.4384(4) 0.34334(17)
H2 H 0.5523 0.3536 0.3608
C4 C 0.5654(2) 0.5489(4) 0.33358(19)
H3 H 0.618 0.5406 0.3445
C5 C 0.5278(2) 0.6723(4) 0.3078(2)
H4 H 0.5549 0.7489 0.302
C6 C 0.4508(2) 0.6843(4) 0.29055(19)
H5 H 0.4253 0.7687 0.2722
C7 C 0.2602(2) 0.4631(3) 0.21892(16)
C8 C 0.2950(2) 0.3665(4) 0.19510(17)
H6 H 0.3487 0.3572 0.2155
C9 C 0.2516(2) 0.2834(4) 0.14157(17)
H7 H 0.2758 0.2179 0.1253
C10 C 0.1735(2) 0.2953(4) 0.11177(18)
H8 H 0.1442 0.2382 0.0751
C11 C 0.1379(2) 0.3897(4) 0.13493(17)
H9 H 0.0841 0.3973 0.1148
C12 C 0.1811(2) 0.4732(4) 0.18769(17)
H10 H 0.1564 0.5394 0.2032
C13 C 0.2768(2) 0.7420(3) 0.23003(16)
C14 C 0.2809(2) 0.7425(4) 0.16948(18)
H11 H 0.3093 0.6731 0.1599
C15 C 0.2433(2) 0.8444(4) 0.12321(19)
H12 H 0.2466 0.8457 0.0822
C16 C 0.2008(2) 0.9446(4) 0.13675(19)
H13 H 0.1733 1.0119 0.1043
C17 C 0.1987(2) 0.9464(4) 0.19661(19)
H14 H 0.1708 1.0168 0.2061
C18 C 0.2368(2) 0.8465(4) 0.24381(18)
H15 H 0.2355 0.8496 0.2856
C19 C 0.29562(19) 0.2531(3) 0.47032(16)
C20 C 0.3344(2) 0.1452(4) 0.51717(18)
N1 N 0.3621(2) 0.0612(3) 0.55598(16)
C21 C 0.2448(2) 0.3356(4) 0.48635(16)
N2 N 0.20530(19) 0.4008(3) 0.50080(15)
C22 C 0.30337(18) 0.2801(3) 0.41319(16)
C23 C 0.35770(19) 0.2030(3) 0.39548(16)
C24 C 0.43188(19) 0.1789(3) 0.44114(16)
H16 H 0.4482 0.2089 0.4855
C25 C 0.4824(2) 0.1116(3) 0.42267(17)
H17 H 0.5333 0.0964 0.4541
C26 C 0.4584(2) 0.0662(3) 0.35769(18)
H18 H 0.4931 0.021 0.3447
C27 C 0.3839(2) 0.0873(3) 0.31235(17)
H19 H 0.367 0.0537 0.2685
C28 C 0.3336(2) 0.1571(3) 0.33061(16)
H20 H 0.283 0.1737 0.299
C29 C 0.25667(18) 0.3921(3) 0.37126(15)
C30 C 0.1815(2) 0.3669(3) 0.33195(16)
C31 C 0.14873(19) 0.2306(4) 0.32084(17)
N3 N 0.12616(17) 0.1190(3) 0.31239(16)
C32 C 0.1370(2) 0.4908(3) 0.30625(17)
N4 N 0.17778(16) 0.6087(3) 0.32561(13)
N5 N 0.12768(17) 0.7131(3) 0.30061(15)
N6 N 0.06020(17) 0.6591(3) 0.26762(16)
N7 N 0.06379(17) 0.5176(3) 0.26985(15)
C33 C 0.3755(2) 0.5850(4) 0.48369(17)
H21 H 0.3863 0.5018 0.5088
C34 C 0.4137(2) 0.6323(4) 0.44699(18)
H22 H 0.4543 0.5871 0.4422
C35 C 0.3797(2) 0.7619(4) 0.41827(17)
H23 H 0.3948 0.8193 0.3915
C36 C 0.3211(2) 0.7899(4) 0.4360(2)
H24 H 0.2885 0.8684 0.4228
C37 C 0.3185(2) 0.6810(4) 0.47703(19)
H25 H 0.2842 0.674 0.4967
Na1 Na 0.05242(8) -0.08714(14) 0.30150(7)
C38 C 0.0353(4) 0.1493(7) 0.4169(4)
H26 H 0.0194 0.1487 0.3691
H27 H 0.0591 0.2386 0.4351
H28 H -0.0091 0.1354 0.4259
C39 C 0.0920(4) 0.0331(8) 0.4486(3)
H29 H 0.1408 0.0554 0.4471
H30 H 0.1015 0.0224 0.4954
O1 O 0.0616(2) -0.0939(4) 0.41330(17)
C40 C 0.0996(4) -0.2138(10) 0.4487(3)
H31 H 0.113 -0.2009 0.4962
H32 H 0.1472 -0.2273 0.4438
C41 C 0.0507(5) -0.3395(8) 0.4240(4)
H33 H 0.0067 -0.3316 0.4341
H34 H 0.08 -0.4223 0.4455
H35 H 0.0332 -0.3472 0.3761
N5_2 N 0.12768(17) -0.2869(3) 0.30061(15)
N6_2 N 0.06020(17) -0.3409(3) 0.26762(16)
N7A N -0.06379(17) 0.0176(3) 0.23015(15)
Na1_2 Na 0.05242(8) 0.91286(14) 0.30150(7)
Na1A Na -0.05242(8) 0.41286(14) 0.19850(7)
loop_
_geom_bond_atom_site_label_1
_geom_bond_atom_site_label_2
_geom_bond_site_symmetry_1
_geom_bond_site_symmetry_2
Ru1 P1 1_555 1_555
P1 C1 1_555 1_555
C1 C2 1_555 1_555
C2 H1 1_555 1_555
C3 C2 1_555 1_555
H2 C3 1_555 1_555
C4 C3 1_555 1_555
H3 C4 1_555 1_555
C5 C4 1_555 1_555
H4 C5 1_555 1_555
C6 C1 1_555 1_555
H5 C6 1_555 1_555
C7 P1 1_555 1_555
C8 C7 1_555 1_555
H6 C8 1_555 1_555
C9 C8 1_555 1_555
H7 C9 1_555 1_555
C10 C9 1_555 1_555
H8 C10 1_555 1_555
C11 C10 1_555 1_555
H9 C11 1_555 1_555
C12 C7 1_555 1_555
H10 C12 1_555 1_555
C13 P1 1_555 1_555
C14 C13 1_555 1_555
H11 C14 1_555 1_555
C15 C14 1_555 1_555
H12 C15 1_555 1_555
C16 C15 1_555 1_555
H13 C16 1_555 1_555
C17 C16 1_555 1_555
H14 C17 1_555 1_555
C18 C13 1_555 1_555
H15 C18 1_555 1_555
C19 C20 1_555 1_555
C20 N1 1_555 1_555
C21 C19 1_555 1_555
N2 C21 1_555 1_555
C22 C19 1_555 1_555
C23 C22 1_555 1_555
C24 C23 1_555 1_555
H16 C24 1_555 1_555
C25 C24 1_555 1_555
H17 C25 1_555 1_555
C26 C25 1_555 1_555
H18 C26 1_555 1_555
C27 C26 1_555 1_555
H19 C27 1_555 1_555
C28 C23 1_555 1_555
H20 C28 1_555 1_555
C29 Ru1 1_555 1_555
C30 C29 1_555 1_555
C31 C30 1_555 1_555
N3 C31 1_555 1_555
C32 C30 1_555 1_555
N4 Ru1 1_555 1_555
N5 N4 1_555 1_555
N6 N5 1_555 1_555
N7 C32 1_555 1_555
C33 Ru1 1_555 1_555
H21 C33 1_555 1_555
C34 Ru1 1_555 1_555
H22 C34 1_555 1_555
C35 Ru1 1_555 1_555
H23 C35 1_555 1_555
C36 Ru1 1_555 1_555
H24 C36 1_555 1_555
C37 Ru1 1_555 1_555
H25 C37 1_555 1_555
Na1 N3 1_555 1_555
C38 H26 1_555 1_555
H27 C38 1_555 1_555
H28 C38 1_555 1_555
C39 C38 1_555 1_555
H29 C39 1_555 1_555
H30 C39 1_555 1_555
O1 Na1 1_555 1_555
C40 O1 1_555 1_555
H31 C40 1_555 1_555
H32 C40 1_555 1_555
C41 C40 1_555 1_555
H33 C41 1_555 1_555
H34 C41 1_555 1_555
H35 C41 1_555 1_555
N5_2 Na1 1_555 1_555
N6_2 Na1 1_555 1_555
N7A Na1 1_555 1_555
Na1_2 N5 1_555 1_555
Na1A N7 1_555 1_555
C5 C6 1_555 1_555
C11 C12 1_555 1_555
C17 C18 1_555 1_555
C22 C29 1_555 1_555
C27 C28 1_555 1_555
C32 N4 1_555 1_555
N6 N7 1_555 1_555
N6 Na1_2 1_555 1_555
C33 C34 1_555 1_555
C33 C37 1_555 1_555
C34 C35 1_555 1_555
C35 C36 1_555 1_555
C36 C37 1_555 1_555
C39 O1 1_555 1_555
N5_2 N6_2 1_555 1_555

#END
