
#######################################################################
#
#                 Cambridge Crystallographic Data Centre
#                                CCDC 
#
#######################################################################
#
# If this CIF has been generated from an entry in the Cambridge 
# Structural Database, then it will include bibliographic, chemical, 
# crystal, experimental, refinement or atomic coordinate data resulting 
# from the CCDC's data processing and validation procedures.
#
#######################################################################

data_HUQMIP
_symmetry_cell_setting           monoclinic
_symmetry_space_group_name_H-M   'P 21/a'
_symmetry_Int_Tables_number      14
_space_group_name_Hall           '-P 2yab'
loop_
_symmetry_equiv_pos_site_id
_symmetry_equiv_pos_as_xyz
1 x,y,z
2 1/2-x,1/2+y,-z
3 -x,-y,-z
4 1/2+x,1/2-y,z
_cell_length_a                   5.1317(10)
_cell_length_b                   10.728(3)
_cell_length_c                   8.936(2)
_cell_angle_alpha                90
_cell_angle_beta                 96.72(2)
_cell_angle_gamma                90
_cell_volume                     488.573
loop_
_atom_site_label
_atom_site_type_symbol
_atom_site_fract_x
_atom_site_fract_y
_atom_site_fract_z
Ni1 Ni 1.0000 0.5000 1.0000
C1 C 0.7504(4) 0.4471(2) 0.6885(3)
O1 O 0.9217(4) 0.3711(2) 0.6665(2)
O2 O 0.7191(3) 0.4969(2) 0.8137(2)
C2 C 0.5667(4) 0.4852(3) 0.5567(3)
O3 O 0.8136(3) 0.6604(2) 1.0605(2)
H1 H 0.8802(68) 0.6746(32) 1.1468(42)
H2 H 0.8360(61) 0.7140(31) 1.0229(36)
O4 O 1.2491(3) 0.6055(2) 0.8837(2)
H3 H 1.1987(73) 0.6265(35) 0.7980(45)
H4 H 1.3778(62) 0.5747(30) 0.8617(32)
C2B C 0.4333(4) 0.5148(3) 0.4433(3)
C1B C 0.2496(4) 0.5529(2) 0.3115(3)
O1B O 0.0783(4) 0.6289(2) 0.3335(2)
O2B O 0.2809(3) 0.5031(2) 0.1863(2)
O3B O 1.1864(3) 0.3396(2) 0.9395(2)
H1B H 1.1198(68) 0.3254(32) 0.8532(42)
H2B H 1.1640(61) 0.2860(31) 0.9771(36)
O4B O 0.7509(3) 0.3945(2) 1.1163(2)
H3B H 0.8013(73) 0.3735(35) 1.2020(45)
H4B H 0.6222(62) 0.4253(30) 1.1383(32)
O2B_2 O 1.2809(3) 0.5031(2) 1.1863(2)
Ni1_2 Ni 0.0000 0.5000 0.0000
O5 O 1.0264(4) 0.6940(2) 0.6206(2)
H5 H 1.0326(60) 0.6720(33) 0.5372(42)
H6 H 0.8900(69) 0.7214(32) 0.6293(34)
loop_
_geom_bond_atom_site_label_1
_geom_bond_atom_site_label_2
_geom_bond_site_symmetry_1
_geom_bond_site_symmetry_2
Ni1 O2 1_555 1_555
C1 O1 1_555 1_555
O2 C1 1_555 1_555
C2 C1 1_555 1_555
O3 Ni1 1_555 1_555
H1 O3 1_555 1_555
H2 O3 1_555 1_555
O4 Ni1 1_555 1_555
H3 O4 1_555 1_555
H4 O4 1_555 1_555
O5 H5 1_555 1_555
H6 O5 1_555 1_555
C2B C2 1_555 1_555
C1B C2B 1_555 1_555
O1B C1B 1_555 1_555
O2B C1B 1_555 1_555
O3B Ni1 1_555 1_555
H1B O3B 1_555 1_555
H2B O3B 1_555 1_555
O4B Ni1 1_555 1_555
H3B O4B 1_555 1_555
H4B O4B 1_555 1_555
O2B_2 Ni1 1_555 1_555
Ni1_2 O2B 1_555 1_555

#END
