
#######################################################################
#
#                 Cambridge Crystallographic Data Centre
#                                CCDC 
#
#######################################################################
#
# If this CIF has been generated from an entry in the Cambridge 
# Structural Database, then it will include bibliographic, chemical, 
# crystal, experimental, refinement or atomic coordinate data resulting 
# from the CCDC's data processing and validation procedures.
#
#######################################################################

data_HUQMOV
_symmetry_cell_setting           monoclinic
_symmetry_space_group_name_H-M   'C 2/c'
_symmetry_Int_Tables_number      15
_space_group_name_Hall           '-C 2yn'
loop_
_symmetry_equiv_pos_site_id
_symmetry_equiv_pos_as_xyz
1 x,y,z
2 -x,y,1/2-z
3 1/2+x,1/2+y,z
4 1/2-x,1/2+y,1/2-z
5 -x,-y,-z
6 x,-y,1/2+z
7 1/2-x,1/2-y,-z
8 1/2+x,1/2-y,1/2+z
_cell_length_a                   13.1456(4)
_cell_length_b                   7.1786(2)
_cell_length_c                   7.5251(2)
_cell_angle_alpha                90
_cell_angle_beta                 122.241(1)
_cell_angle_gamma                90
_cell_volume                     600.629
loop_
_atom_site_label
_atom_site_type_symbol
_atom_site_fract_x
_atom_site_fract_y
_atom_site_fract_z
Ni1 Ni 0.2500 0.2500 0.0000
O1 O 0.3669(2) 0.2771(5) 0.3133(3)
O2 O 0.2713(2) 0.4848(3) 0.3932(3)
C1 C 0.3596(1) 0.3850(3) 0.4365(1)
C2 C 0.4610(2) 0.3828(4) 0.6586(1)
O3 O 0.3967(2) 0.1259(3) -0.0005(4)
C2A C 0.5390(2) 0.3828(4) 0.8414(1)
C1A C 0.6404(1) 0.3850(3) 1.0635(1)
O1A O 0.6331(2) 0.2771(5) 1.1867(3)
O2A O 0.7287(2) 0.4848(3) 1.1068(3)
O3F O 0.1033(2) 0.3741(3) 0.0005(4)
O1F O 0.1331(2) 0.2229(5) -0.3133(3)
O2C O 0.2287(2) -0.0152(3) 0.1068(3)
O2E O 0.2713(2) 0.5152(3) -0.1068(3)
Ni1C Ni 0.2500 0.7500 0.5000
Ni1A Ni 0.7500 0.2500 1.5000
Ni1B Ni 0.7500 0.7500 1.0000
loop_
_geom_bond_atom_site_label_1
_geom_bond_atom_site_label_2
_geom_bond_site_symmetry_1
_geom_bond_site_symmetry_2
Ni1 O1 1_555 1_555
O1 C1 1_555 1_555
O2 C1 1_555 1_555
C1 C2 1_555 1_555
C2 C2A 1_555 1_555
O3 Ni1 1_555 1_555
C2A C1A 1_555 1_555
C1A O1A 1_555 1_555
O1A Ni1A 1_555 1_555
O2A C1A 1_555 1_555
O3F Ni1 1_555 1_555
O1F Ni1 1_555 1_555
O2C Ni1 1_555 1_555
O2E Ni1 1_555 1_555
Ni1C O2 1_555 1_555
Ni1B O2A 1_555 1_555

#END
