
#######################################################################
#
#                 Cambridge Crystallographic Data Centre
#                                CCDC 
#
#######################################################################
#
# If this CIF has been generated from an entry in the Cambridge 
# Structural Database, then it will include bibliographic, chemical, 
# crystal, experimental, refinement or atomic coordinate data resulting 
# from the CCDC's data processing and validation procedures.
#
#######################################################################

data_HUQPAK
_symmetry_cell_setting           triclinic
_symmetry_space_group_name_H-M   'P -1'
_symmetry_Int_Tables_number      2
_space_group_name_Hall           '-P 1'
loop_
_symmetry_equiv_pos_site_id
_symmetry_equiv_pos_as_xyz
1 x,y,z
2 -x,-y,-z
_cell_length_a                   5.9711(2)
_cell_length_b                   9.5319(3)
_cell_length_c                   9.7794(3)
_cell_angle_alpha                99.883(2)
_cell_angle_beta                 100.807(2)
_cell_angle_gamma                105.9182(11)
_cell_volume                     510.897
loop_
_atom_site_label
_atom_site_type_symbol
_atom_site_fract_x
_atom_site_fract_y
_atom_site_fract_z
Na1 Na 0.2572(2) 0.33144(13) 0.43600(12)
Na2 Na 0.0016(2) 0.32414(13) 0.01212(12)
Cu1 Cu 0.0000 0.0000 0.5000
C1 C -0.1898(5) 0.3376(3) 0.5538(3)
C2 C -0.2920(5) 0.1783(3) 0.4595(3)
H1 H -0.4264 0.1754 0.3797
C3 C -0.3961(5) 0.0677(3) 0.5488(3)
H2 H -0.4591 0.1213 0.6223
O1 O 0.0340(3) 0.3914(2) 0.6074(2)
O2 O -0.3392(3) 0.4054(2) 0.5762(2)
O3 O -0.1184(3) 0.1338(2) 0.3989(2)
O4 O -0.2115(3) 0.0210(2) 0.6192(2)
O5 O 0.2749(4) 0.2528(2) 0.1861(2)
H3 H 0.255(6) 0.1710(16) 0.167(4)
H4 H 0.401(3) 0.285(3) 0.182(4)
O6 O -0.2173(4) 0.3382(3) 0.1968(2)
H5 H -0.163(6) 0.413(2) 0.247(3)
H6 H -0.184(7) 0.286(3) 0.237(3)
O8 O -0.2194(4) 0.0655(3) -0.1100(2)
H9 H -0.347(3) 0.062(4) -0.121(3)
H10 H -0.201(5) 0.056(4) -0.183(2)
O9 O 0.2538(4) 0.3129(3) -0.1475(2)
H11 H 0.178(6) 0.317(3) -0.214(2)
H12 H 0.243(7) 0.2332(19) -0.155(3)
O10 O 0.2550(4) 0.5709(3) 0.1238(2)
H13 H 0.380(3) 0.596(4) 0.116(3)
H14 H 0.271(5) 0.575(4) 0.2014(17)
C3A C -0.6039(5) -0.0677(3) 0.4512(3)
C2A C -0.7080(5) -0.1783(3) 0.5405(3)
C1A C -0.8102(5) -0.3376(3) 0.4462(3)
O1A O -1.0340(3) -0.3914(2) 0.3926(2)
O2A O -0.6608(3) -0.4054(2) 0.4238(2)
H1A H -0.5736 -0.1754 0.6203
O3A O -0.8816(3) -0.1338(2) 0.6011(2)
H2A H -0.5409 -0.1213 0.3777
O4A O -0.7885(3) -0.0210(2) 0.3808(2)
Na1A Na -1.2572(2) -0.33144(13) 0.56400(12)
O5A O -1.2749(4) -0.2528(2) 0.8139(2)
H3A H -1.255(6) -0.1710(16) 0.833(4)
H4A H -1.401(3) -0.285(3) 0.818(4)
Na2A Na -1.0016(2) -0.32414(13) 0.98788(12)
O10A O -0.2550(4) 0.4291(3) -0.1238(2)
H13A H -0.380(3) 0.404(4) -0.116(3)
H14A H -0.271(5) 0.425(4) -0.2014(17)
O6A O -0.7827(4) -0.3382(3) 0.8032(2)
H5A H -0.837(6) -0.413(2) 0.753(3)
H6A H -0.816(7) -0.286(3) 0.763(3)
O8A O -0.7806(4) -0.0655(3) 1.1100(2)
H9A H -0.653(3) -0.062(4) 1.121(3)
H10A H -0.799(5) -0.056(4) 1.183(2)
O9A O -1.2538(4) -0.3129(3) 1.1475(2)
H11A H -1.178(6) -0.317(3) 1.214(2)
H12A H -1.243(7) -0.2332(19) 1.155(3)
O2_2 O 0.6608(3) 0.4054(2) 0.5762(2)
O2A_2 O 0.3392(3) 0.5946(2) 0.4238(2)
O3A_2 O 0.1184(3) -0.1338(2) 0.6011(2)
O4A_2 O 0.2115(3) -0.0210(2) 0.3808(2)
Na1_2 Na -0.7428(2) 0.33144(13) 0.43600(12)
Na1A_2 Na -0.2572(2) 0.66856(13) 0.56400(12)
Na2A_2 Na -0.0016(2) 0.67586(13) -0.01212(12)
Na1_3 Na -0.7428(2) -0.66856(13) 0.43600(12)
Na1A_3 Na -0.2572(2) -0.33144(13) 0.56400(12)
Cu1_2 Cu -1.0000 0.0000 0.5000
O2_3 O -1.3392(3) -0.5946(2) 0.5762(2)
O2A_3 O -1.6608(3) -0.4054(2) 0.4238(2)
O10_2 O -0.7450(4) -0.4291(3) 1.1238(2)
O10A_2 O -1.2550(4) -0.5709(3) 0.8762(2)
H13_2 H -0.620(3) -0.404(4) 1.116(3)
H14_2 H -0.729(5) -0.425(4) 1.2014(17)
H13A_2 H -1.380(3) -0.596(4) 0.884(3)
H14A_2 H -1.271(5) -0.575(4) 0.7986(17)
O7 O -0.7008(4) 0.0372(2) -0.1425(2)
H7 H -0.764(6) 0.004(3) -0.092(3)
H8 H -0.763(6) -0.014(3) -0.2132(19)
loop_
_geom_bond_atom_site_label_1
_geom_bond_atom_site_label_2
_geom_bond_site_symmetry_1
_geom_bond_site_symmetry_2
Na1 O1 1_555 1_555
Na2 O5 1_555 1_555
Cu1 O3 1_555 1_555
C1 C2 1_555 1_555
C2 H1 1_555 1_555
C3 C2 1_555 1_555
H2 C3 1_555 1_555
O1 C1 1_555 1_555
O2 C1 1_555 1_555
O3 Na1 1_555 1_555
O4 Cu1 1_555 1_555
O5 Na1 1_555 1_555
H3 O5 1_555 1_555
H4 O5 1_555 1_555
O6 Na2 1_555 1_555
H5 O6 1_555 1_555
H6 O6 1_555 1_555
O7 H7 1_555 1_555
H8 O7 1_555 1_555
O8 Na2 1_555 1_555
H9 O8 1_555 1_555
H10 O8 1_555 1_555
O9 Na2 1_555 1_555
H11 O9 1_555 1_555
H12 O9 1_555 1_555
O10 Na2 1_555 1_555
H13 O10 1_555 1_555
H14 O10 1_555 1_555
C3A C3 1_555 1_555
C2A C3A 1_555 1_555
C1A C2A 1_555 1_555
O1A C1A 1_555 1_555
O2A C1A 1_555 1_555
H1A C2A 1_555 1_555
O3A C2A 1_555 1_555
H2A C3A 1_555 1_555
O4A C3A 1_555 1_555
Na1A O1A 1_555 1_555
O5A Na1A 1_555 1_555
H3A O5A 1_555 1_555
H4A O5A 1_555 1_555
Na2A O5A 1_555 1_555
O10A Na2 1_555 1_555
H13A O10A 1_555 1_555
H14A O10A 1_555 1_555
O6A Na2A 1_555 1_555
H5A O6A 1_555 1_555
H6A O6A 1_555 1_555
O8A Na2A 1_555 1_555
H9A O8A 1_555 1_555
H10A O8A 1_555 1_555
O9A Na2A 1_555 1_555
H11A O9A 1_555 1_555
H12A O9A 1_555 1_555
O2_2 Na1 1_555 1_555
O2A_2 Na1 1_555 1_555
O3A_2 Cu1 1_555 1_555
O4A_2 Cu1 1_555 1_555
Na1_2 O2 1_555 1_555
Na1A_2 O2 1_555 1_555
Na2A_2 O10 1_555 1_555
Na1_3 O2A 1_555 1_555
Na1A_3 O2A 1_555 1_555
Cu1_2 O3A 1_555 1_555
O2_3 Na1A 1_555 1_555
O2A_3 Na1A 1_555 1_555
O10_2 Na2A 1_555 1_555
O10A_2 Na2A 1_555 1_555
H13_2 O10_2 1_555 1_555
H14_2 O10_2 1_555 1_555
H13A_2 O10A_2 1_555 1_555
H14A_2 O10A_2 1_555 1_555
C2 O3 1_555 1_555
C3 O4 1_555 1_555
O3A Na1A 1_555 1_555
O4A Cu1_2 1_555 1_555
O10A Na2A_2 1_555 1_555
O3A_2 Na1A_3 1_555 1_555

#END
