
#######################################################################
#
#                 Cambridge Crystallographic Data Centre
#                                CCDC 
#
#######################################################################
#
# If this CIF has been generated from an entry in the Cambridge 
# Structural Database, then it will include bibliographic, chemical, 
# crystal, experimental, refinement or atomic coordinate data resulting 
# from the CCDC's data processing and validation procedures.
#
#######################################################################

data_HUQZUP
_symmetry_cell_setting           triclinic
_symmetry_space_group_name_H-M   'P -1'
_symmetry_Int_Tables_number      2
_space_group_name_Hall           '-P 1'
loop_
_symmetry_equiv_pos_site_id
_symmetry_equiv_pos_as_xyz
1 x,y,z
2 -x,-y,-z
_cell_length_a                   6.5037(3)
_cell_length_b                   6.8557(3)
_cell_length_c                   13.5359(6)
_cell_angle_alpha                96.816(3)
_cell_angle_beta                 91.235(2)
_cell_angle_gamma                94.297(3)
_cell_volume                     597.298
loop_
_atom_site_label
_atom_site_type_symbol
_atom_site_fract_x
_atom_site_fract_y
_atom_site_fract_z
Os1 Os 0.23712(3) 0.81026(3) 0.235518(14)
Cl1 Cl 0.0824(2) 0.8609(2) 0.39134(9)
Cl2 Cl 0.5204(2) 1.0227(2) 0.29626(10)
Cl3 Cl 0.0598(2) 1.0616(2) 0.18424(10)
Cl4 Cl -0.0309(2) 0.5788(2) 0.17453(10)
Cl5 Cl 0.4149(2) 0.54773(19) 0.28026(9)
Na1 Na 0.2526(3) 0.5537(3) 0.47486(17)
O1 O 0.4127(6) 0.2688(6) 0.5026(3)
H1 H 0.4069 0.1678 0.4533
H2 H 0.3763 0.2188 0.5588
O2 O 0.0471(6) 0.6359(6) 0.6111(3)
H3 H 0.0516 0.5862 0.6697
H4 H 0.0333 0.7658 0.6246
N1 N 0.3669(7) 0.7765(7) 0.0989(3)
N2 N 0.5694(7) 0.7439(7) 0.0854(3)
H5 H 0.6595 0.7342 0.1337
C1 C 0.6119(9) 0.7286(8) -0.0110(4)
H6 H 0.7417 0.7043 -0.0389
C2 C 0.4337(9) 0.7544(8) -0.0630(4)
H7 H 0.4160 0.7524 -0.1330
C3 C 0.2866(9) 0.7836(8) 0.0075(4)
H8 H 0.1472 0.8058 -0.0067
Na1A Na 0.7474(3) 0.4463(3) 0.52514(17)
Na1A_2 Na -0.2526(3) 0.4463(3) 0.52514(17)
O1A O 0.5873(6) 0.7312(6) 0.4974(3)
H1A H 0.5931 0.8322 0.5467
H2A H 0.6237 0.7812 0.4412
O2A O -0.0471(6) 0.3641(6) 0.3889(3)
H3A H -0.0516 0.4138 0.3303
H4A H -0.0333 0.2342 0.3754
loop_
_geom_bond_atom_site_label_1
_geom_bond_atom_site_label_2
_geom_bond_site_symmetry_1
_geom_bond_site_symmetry_2
Os1 Cl1 1_555 1_555
Cl1 Na1 1_555 1_555
Cl2 Os1 1_555 1_555
Cl3 Os1 1_555 1_555
Cl4 Os1 1_555 1_555
Cl5 Os1 1_555 1_555
Na1 Cl5 1_555 1_555
O1 Na1 1_555 1_555
H1 O1 1_555 1_555
H2 O1 1_555 1_555
O2 Na1 1_555 1_555
H3 O2 1_555 1_555
H4 O2 1_555 1_555
N1 Os1 1_555 1_555
N2 N1 1_555 1_555
H5 N2 1_555 1_555
C1 N2 1_555 1_555
H6 C1 1_555 1_555
C2 C1 1_555 1_555
H7 C2 1_555 1_555
C3 N1 1_555 1_555
H8 C3 1_555 1_555
Na1A O1 1_555 1_555
Na1A_2 O2 1_555 1_555
O1A Na1 1_555 1_555
H1A O1A 1_555 1_555
H2A O1A 1_555 1_555
O2A Na1 1_555 1_555
H3A O2A 1_555 1_555
H4A O2A 1_555 1_555
C2 C3 1_555 1_555
Na1A O1A 1_555 1_555
Na1A_2 O2A 1_555 1_555

#END
