
#######################################################################
#
#                 Cambridge Crystallographic Data Centre
#                                CCDC 
#
#######################################################################
#
# If this CIF has been generated from an entry in the Cambridge 
# Structural Database, then it will include bibliographic, chemical, 
# crystal, experimental, refinement or atomic coordinate data resulting 
# from the CCDC's data processing and validation procedures.
#
#######################################################################

data_HURDUT
_symmetry_cell_setting           orthorhombic
_symmetry_space_group_name_H-M   'P n m a'
_symmetry_Int_Tables_number      62
_space_group_name_Hall           '-P 2ac 2n'
loop_
_symmetry_equiv_pos_site_id
_symmetry_equiv_pos_as_xyz
1 x,y,z
2 1/2+x,y,1/2-z
3 x,1/2-y,z
4 1/2-x,1/2+y,1/2+z
5 -x,-y,-z
6 1/2-x,-y,1/2+z
7 -x,1/2+y,-z
8 1/2+x,1/2-y,1/2-z
_cell_length_a                   7.668(3)
_cell_length_b                   7.668(3)
_cell_length_c                   13.882(5)
_cell_angle_alpha                90
_cell_angle_beta                 90
_cell_angle_gamma                90
_cell_volume                     816.237
loop_
_atom_site_label
_atom_site_type_symbol
_atom_site_fract_x
_atom_site_fract_y
_atom_site_fract_z
Cd1 Cd 0.99358(9) 0.2500 0.32343(6)
O1 O 0.6757(10) 0.2500 0.3168(5)
O2 O 0.8802(9) 0.2500 0.4891(5)
O3 O 0.6429(12) 0.2500 0.6569(5)
O4 O 0.2876(11) 0.2500 0.5834(8)
O5 O 0.3099(10) 0.2500 0.3675(7)
C1 C 0.6124(12) 0.2500 0.4017(7)
C2 C 0.7157(12) 0.2500 0.4878(7)
C3 C 0.6003(12) 0.2500 0.5720(7)
C4 C 0.4164(13) 0.2500 0.5319(9)
C5 C 0.4294(14) 0.2500 0.4295(9)
N1 N 1.0026(7) -0.0343(11) 0.3244(5)
H1 H 0.9876 -0.0742 0.2647
H2 H 0.9182 -0.0753 0.3621
H3 H 1.1055 -0.0696 0.3466
N1B N 1.0026(7) 0.5343(11) 0.3244(5)
H1B H 0.9876 0.5742 0.2647
H2B H 0.9182 0.5753 0.3621
H3B H 1.1055 0.5696 0.3466
O1A O 1.1757(10) 0.2500 0.1832(5)
O5_2 O 1.3099(10) 0.2500 0.3675(7)
Cd1A Cd 0.49358(9) 0.2500 0.17657(6)
Cd1_2 Cd -0.00642(9) 0.2500 0.32343(6)
loop_
_geom_bond_atom_site_label_1
_geom_bond_atom_site_label_2
_geom_bond_site_symmetry_1
_geom_bond_site_symmetry_2
Cd1 O1 1_555 1_555
O1 C1 1_555 1_555
O2 Cd1 1_555 1_555
O3 C3 1_555 1_555
O4 C4 1_555 1_555
O5 C5 1_555 1_555
C1 C2 1_555 1_555
C2 O2 1_555 1_555
C3 C2 1_555 1_555
C4 C3 1_555 1_555
C5 C1 1_555 1_555
N1 Cd1 1_555 1_555
H1 N1 1_555 1_555
H2 N1 1_555 1_555
H3 N1 1_555 1_555
N1B Cd1 1_555 1_555
H1B N1B 1_555 1_555
H2B N1B 1_555 1_555
H3B N1B 1_555 1_555
O1A Cd1 1_555 1_555
O5_2 Cd1 1_555 1_555
Cd1A O1 1_555 1_555
Cd1_2 O5 1_555 1_555
C4 C5 1_555 1_555

#END
