
#######################################################################
#
#                 Cambridge Crystallographic Data Centre
#                                CCDC 
#
#######################################################################
#
# If this CIF has been generated from an entry in the Cambridge 
# Structural Database, then it will include bibliographic, chemical, 
# crystal, experimental, refinement or atomic coordinate data resulting 
# from the CCDC's data processing and validation procedures.
#
#######################################################################

data_HURFAB
_symmetry_cell_setting           orthorhombic
_symmetry_space_group_name_H-M   'P b c m'
_symmetry_Int_Tables_number      57
_space_group_name_Hall           '-P 2c 2b'
loop_
_symmetry_equiv_pos_site_id
_symmetry_equiv_pos_as_xyz
1 x,y,z
2 x,y,1/2-z
3 -x,1/2+y,z
4 x,1/2-y,1/2+z
5 -x,-y,-z
6 -x,-y,1/2+z
7 x,1/2-y,-z
8 -x,1/2+y,1/2-z
_cell_length_a                   8.890(4)
_cell_length_b                   6.243(4)
_cell_length_c                   14.452(5)
_cell_angle_alpha                90
_cell_angle_beta                 90
_cell_angle_gamma                90
_cell_volume                     802.09
loop_
_atom_site_label
_atom_site_type_symbol
_atom_site_fract_x
_atom_site_fract_y
_atom_site_fract_z
Ag1 Ag 1.03120(5) 0.7500 0.5000
C1 C 0.9921(3) 0.6114(5) 0.3001(2)
C2 C 0.8348(3) 0.5965(5) 0.33191(19)
C3 C 0.7370(5) 0.5801(7) 0.2500
O1 O 1.1029(2) 0.6240(4) 0.35408(15)
O2 O 0.7955(3) 0.5961(4) 0.41462(15)
O3 O 0.5979(4) 0.5562(8) 0.2500
Na1 Na 0.5857(3) 0.7500 0.5000
O4 O 0.4110(3) 0.5570(4) 0.40299(17)
H1 H 0.311(3) 0.596(7) 0.379(3)
H2 H 0.474(4) 0.546(7) 0.347(2)
C1A C 0.9921(3) 0.6114(5) 0.1999(2)
C2A C 0.8348(3) 0.5965(5) 0.16809(19)
O2A O 0.7955(3) 0.5961(4) 0.08538(15)
O1A O 1.1029(2) 0.6240(4) 0.14592(15)
O4B O 0.5890(3) 1.0570(4) 0.40299(17)
H1B H 0.689(3) 1.096(7) 0.379(3)
H2B H 0.526(4) 1.046(7) 0.347(2)
Ag1B Ag 0.96880(5) 0.2500 0.5000
Ag1B_2 Ag 0.96880(5) 1.2500 0.5000
O1F O 1.1029(2) 0.8760(4) 0.64592(15)
O2F O 0.7955(3) 0.9039(4) 0.58538(15)
O4D O 0.5890(3) 0.4430(4) 0.59701(17)
O4F O 0.4110(3) 0.9430(4) 0.59701(17)
Na1B Na 0.4143(3) 0.2500 0.5000
Ag1A Ag 1.03120(5) 0.7500 0.0000
Na1A Na 0.5857(3) 0.7500 0.0000
Na1B_2 Na 0.4143(3) 1.2500 0.5000
H1D H 0.689(3) 0.404(7) 0.621(3)
H2D H 0.526(4) 0.454(7) 0.653(2)
H1F H 0.311(3) 0.904(7) 0.621(3)
H2F H 0.474(4) 0.954(7) 0.653(2)
loop_
_geom_bond_atom_site_label_1
_geom_bond_atom_site_label_2
_geom_bond_site_symmetry_1
_geom_bond_site_symmetry_2
Ag1 O1 1_555 1_555
C1 C2 1_555 1_555
C2 C3 1_555 1_555
C3 O3 1_555 1_555
O1 C1 1_555 1_555
O2 Ag1 1_555 1_555
Na1 O2 1_555 1_555
O4 Na1 1_555 1_555
H1 O4 1_555 1_555
H2 O4 1_555 1_555
C1A C1 1_555 1_555
C2A C3 1_555 1_555
O2A C2A 1_555 1_555
O1A C1A 1_555 1_555
O4B Na1 1_555 1_555
H1B O4B 1_555 1_555
H2B O4B 1_555 1_555
Ag1B Ag1 1_555 1_555
Ag1B_2 Ag1 1_555 1_555
O1F Ag1 1_555 1_555
O2F Ag1 1_555 1_555
O4D Na1 1_555 1_555
O4F Na1 1_555 1_555
Na1B O4 1_555 1_555
Ag1A O2A 1_555 1_555
Na1A O2A 1_555 1_555
Na1B_2 O4B 1_555 1_555
H1D O4D 1_555 1_555
H2D O4D 1_555 1_555
H1F O4F 1_555 1_555
H2F O4F 1_555 1_555
C2 O2 1_555 1_555
Na1 O2F 1_555 1_555
C1A C2A 1_555 1_555
O1A Ag1A 1_555 1_555
O4D Na1B 1_555 1_555
O4F Na1B_2 1_555 1_555

#END
