
#######################################################################
#
#                 Cambridge Crystallographic Data Centre
#                                CCDC 
#
#######################################################################
#
# If this CIF has been generated from an entry in the Cambridge 
# Structural Database, then it will include bibliographic, chemical, 
# crystal, experimental, refinement or atomic coordinate data resulting 
# from the CCDC's data processing and validation procedures.
#
#######################################################################

data_HURGUX01
_symmetry_cell_setting           monoclinic
_symmetry_space_group_name_H-M   'P 21/c'
_symmetry_Int_Tables_number      14
_space_group_name_Hall           '-P 2ybc'
loop_
_symmetry_equiv_pos_site_id
_symmetry_equiv_pos_as_xyz
1 x,y,z
2 -x,1/2+y,1/2-z
3 -x,-y,-z
4 x,1/2-y,1/2+z
_cell_length_a                   11.378(5)
_cell_length_b                   19.106(9)
_cell_length_c                   12.234(4)
_cell_angle_alpha                90
_cell_angle_beta                 121.14(3)
_cell_angle_gamma                90
_cell_volume                     2276.3
loop_
_atom_site_label
_atom_site_type_symbol
_atom_site_fract_x
_atom_site_fract_y
_atom_site_fract_z
Ni1 Ni -0.5000 0.0000 -0.5000
Ni2 Ni -0.34470(7) -0.00515(3) -0.17067(7)
O1 O -0.5241(4) -0.0598(2) -0.1962(4)
O2 O -0.5299(4) 0.00737(17) -0.3438(4)
O3 O -0.6218(4) 0.0856(2) -0.5705(4)
O4 O -0.7259(4) 0.09087(19) -0.7847(4)
O5 O -1.3412(4) 0.4323(2) -0.9139(4)
O6 O -1.2228(4) 0.44051(19) -0.6992(4)
O7 O -0.4043(4) 0.08078(19) -0.1051(4)
N1 N -0.4662(5) 0.1958(2) -0.1317(5)
N2 N -0.1997(5) -0.0275(2) 0.0177(4)
H1 H -0.1490 -0.0650 0.0152
C1 C -0.5932(5) -0.0287(3) -0.3014(5)
C2 C -0.7474(5) -0.0290(3) -0.3709(6)
C3 C -0.8211(6) 0.0208(3) -0.4605(6)
H2 H -0.7769 0.0526 -0.4848
C4 C -0.9662(5) 0.0239(3) -0.5167(5)
C5 C -0.8136(6) -0.0779(3) -0.3336(6)
H3 H -0.7622 -0.1109 -0.2708
C6 C -1.0467(6) 0.0764(3) -0.6098(5)
H4 H -1.0031 0.1099 -0.6319
C7 C -0.7057(5) 0.1099(3) -0.6768(5)
C8 C -0.7945(5) 0.1694(3) -0.6786(5)
C9 C -0.7679(6) 0.2000(3) -0.5638(6)
H5 H -0.6943 0.1841 -0.4868
C10 C -0.8484(6) 0.2527(3) -0.5638(6)
H6 H -0.8300 0.2719 -0.4866
C11 C -1.0477(6) 0.3336(3) -0.6847(6)
H7 H -1.0343 0.3523 -0.6089
C12 C -1.1520(6) 0.3590(3) -0.7997(6)
C13 C -1.1745(6) 0.3292(3) -0.9130(6)
H8 H -1.2450 0.3465 -0.9906
C14 C -1.0952(6) 0.2751(3) -0.9131(6)
H9 H -1.1130 0.2559 -0.9900
C15 C -0.9862(6) 0.2484(3) -0.7959(6)
C16 C -0.9602(5) 0.2789(3) -0.6802(6)
C17 C -0.9012(6) 0.1933(3) -0.7911(6)
H10 H -0.9187 0.1728 -0.8670
C18 C -1.2481(6) 0.4159(3) -0.8051(6)
C19 C -0.4399(6) 0.1354(3) -0.1705(6)
H11 H -0.4487 0.1340 -0.2504
C20 C -0.4597(8) 0.2001(3) -0.0100(7)
H12 H -0.4348 0.1553 0.0313
H13 H -0.5479 0.2137 -0.0244
H14 H -0.3923 0.2343 0.0433
C21 C -0.5088(8) 0.2580(3) -0.2116(7)
H15 H -0.5007 0.2497 -0.2848
H16 H -0.4514 0.2967 -0.1636
H17 H -0.6026 0.2686 -0.2391
C22 C -0.2630(7) -0.0526(4) 0.0899(7)
H18 H -0.1922 -0.0651 0.1750
H19 H -0.3189 -0.0929 0.0480
H20 H -0.3189 -0.0162 0.0937
C23 C -0.0993(6) 0.0288(3) 0.0883(7)
H21 H -0.0332 0.0127 0.1726
H22 H -0.1463 0.0690 0.0942
H23 H -0.0531 0.0413 0.0439
Ni1A Ni -1.5000 0.5000 -1.0000
Ni1_2 Ni -1.5000 0.0000 -0.5000
Ni1A_2 Ni -1.5000 -0.5000 -1.0000
Ni2B Ni -1.65530(7) 0.00515(3) -0.82933(7)
Ni2B_2 Ni -0.65530(7) 0.00515(3) -0.82933(7)
Ni2C Ni -1.34470(7) 0.50515(3) -0.67067(7)
Ni2C_2 Ni -1.34470(7) -0.49485(3) -0.67067(7)
O1B O -1.4759(4) 0.0598(2) -0.8038(4)
O2B O -1.4701(4) -0.00737(17) -0.6562(4)
O2B_2 O -0.4701(4) -0.00737(17) -0.6562(4)
O3A O -1.3782(4) -0.4144(2) -0.9295(4)
O3B O -0.3782(4) -0.0856(2) -0.4295(4)
O4A O -1.2741(4) -0.40913(19) -0.7153(4)
O4B O -0.2741(4) -0.09087(19) -0.2153(4)
O4_2 O -1.7259(4) 0.09087(19) -0.7847(4)
O5A O -0.6588(4) -0.0677(2) -0.5861(4)
O5C O -0.3412(4) 0.0677(2) -0.4139(4)
O6A O -0.7772(4) -0.05949(19) -0.8008(4)
O6C O -0.2228(4) 0.05949(19) -0.1992(4)
O6A_2 O -1.7772(4) -0.05949(19) -0.8008(4)
O7B O -1.5957(4) -0.08078(19) -0.8949(4)
N1B N -1.5338(5) -0.1958(2) -0.8683(5)
N2B N -1.8003(5) 0.0275(2) -1.0177(4)
H1B H -1.8510 0.0650 -1.0152
C1B C -1.4068(5) 0.0287(3) -0.6986(5)
C2B C -1.2526(5) 0.0290(3) -0.6291(6)
C3B C -1.1789(6) -0.0208(3) -0.5395(6)
H2B H -1.2231 -0.0526 -0.5152
C4B C -1.0338(5) -0.0239(3) -0.4833(5)
C5B C -1.1864(6) 0.0779(3) -0.6664(6)
H3B H -1.2378 0.1109 -0.7292
C6B C -0.9533(6) -0.0764(3) -0.3902(5)
H4B H -0.9969 -0.1099 -0.3681
C7A C -1.2943(5) -0.3901(3) -0.8232(5)
C8A C -1.2055(5) -0.3306(3) -0.8214(5)
C9A C -1.2321(6) -0.3000(3) -0.9362(6)
H5A H -1.3057 -0.3159 -1.0132
C10A C -1.1516(6) -0.2473(3) -0.9362(6)
H6A H -1.1700 -0.2281 -1.0134
C11A C -0.9523(6) -0.1664(3) -0.8153(6)
H7A H -0.9657 -0.1477 -0.8911
C12A C -0.8480(6) -0.1410(3) -0.7003(6)
C13A C -0.8255(6) -0.1708(3) -0.5870(6)
H8A H -0.7550 -0.1535 -0.5094
C14A C -0.9048(6) -0.2249(3) -0.5869(6)
H9A H -0.8870 -0.2441 -0.5100
C15A C -1.0138(6) -0.2516(3) -0.7041(6)
C16A C -1.0398(5) -0.2211(3) -0.8198(6)
C17A C -1.0988(6) -0.3067(3) -0.7089(6)
H10A H -1.0813 -0.3272 -0.6330
C18A C -0.7519(6) -0.0841(3) -0.6949(6)
C19B C -1.5601(6) -0.1354(3) -0.8295(6)
H11B H -1.5513 -0.1340 -0.7496
C20B C -1.5403(8) -0.2001(3) -0.9900(7)
H12B H -1.5652 -0.1553 -1.0313
H13B H -1.4521 -0.2137 -0.9756
H14B H -1.6077 -0.2343 -1.0433
C21B C -1.4912(8) -0.2580(3) -0.7884(7)
H15B H -1.4993 -0.2497 -0.7152
H16B H -1.5486 -0.2967 -0.8364
H17B H -1.3974 -0.2686 -0.7609
C22B C -1.7370(7) 0.0526(4) -1.0899(7)
H18B H -1.8078 0.0651 -1.1750
H19B H -1.6811 0.0929 -1.0480
H20B H -1.6811 0.0162 -1.0937
C23B C -1.9007(6) -0.0288(3) -1.0883(7)
H21B H -1.9668 -0.0127 -1.1726
H22B H -1.8537 -0.0690 -1.0942
H23B H -1.9469 -0.0413 -1.0439
loop_
_geom_bond_atom_site_label_1
_geom_bond_atom_site_label_2
_geom_bond_site_symmetry_1
_geom_bond_site_symmetry_2
Ni1 O2 1_555 1_555
Ni2 O1 1_555 1_555
O1 C1 1_555 1_555
O2 Ni2 1_555 1_555
O3 Ni1 1_555 1_555
O4 C7 1_555 1_555
O5 C18 1_555 1_555
O6 C18 1_555 1_555
O7 Ni2 1_555 1_555
N1 C19 1_555 1_555
N2 Ni2 1_555 1_555
H1 N2 1_555 1_555
C1 O2 1_555 1_555
C2 C1 1_555 1_555
C3 C2 1_555 1_555
H2 C3 1_555 1_555
C4 C3 1_555 1_555
C5 C2 1_555 1_555
H3 C5 1_555 1_555
C6 C4 1_555 1_555
H4 C6 1_555 1_555
C7 O3 1_555 1_555
C8 C7 1_555 1_555
C9 C8 1_555 1_555
H5 C9 1_555 1_555
C10 C9 1_555 1_555
H6 C10 1_555 1_555
C11 H7 1_555 1_555
C12 C11 1_555 1_555
C13 C12 1_555 1_555
H8 C13 1_555 1_555
C14 C13 1_555 1_555
H9 C14 1_555 1_555
C15 C14 1_555 1_555
C16 C10 1_555 1_555
C17 C8 1_555 1_555
H10 C17 1_555 1_555
C18 C12 1_555 1_555
C19 O7 1_555 1_555
H11 C19 1_555 1_555
C20 N1 1_555 1_555
H12 C20 1_555 1_555
H13 C20 1_555 1_555
H14 C20 1_555 1_555
C21 N1 1_555 1_555
H15 C21 1_555 1_555
H16 C21 1_555 1_555
H17 C21 1_555 1_555
C22 N2 1_555 1_555
H18 C22 1_555 1_555
H19 C22 1_555 1_555
H20 C22 1_555 1_555
C23 N2 1_555 1_555
H21 C23 1_555 1_555
H22 C23 1_555 1_555
H23 C23 1_555 1_555
Ni1A O5 1_555 1_555
Ni1_2 O2B 1_555 1_555
Ni1A_2 O3A 1_555 1_555
Ni2B O1B 1_555 1_555
Ni2B_2 O4 1_555 1_555
Ni2C O6 1_555 1_555
Ni2C_2 O4A 1_555 1_555
O1B C1B 1_555 1_555
O2B Ni2B 1_555 1_555
O2B_2 Ni1 1_555 1_555
O3A C7A 1_555 1_555
O3B Ni1 1_555 1_555
O4A C7A 1_555 1_555
O4B Ni2 1_555 1_555
O4_2 Ni2B 1_555 1_555
O5A Ni1 1_555 1_555
O5C Ni1 1_555 1_555
O6A Ni2B_2 1_555 1_555
O6C Ni2 1_555 1_555
O6A_2 Ni2B 1_555 1_555
O7B Ni2B 1_555 1_555
N1B C19B 1_555 1_555
N2B Ni2B 1_555 1_555
H1B N2B 1_555 1_555
C1B O2B 1_555 1_555
C2B C1B 1_555 1_555
C3B C2B 1_555 1_555
H2B C3B 1_555 1_555
C4B C4 1_555 1_555
C5B C6 1_555 1_555
H3B C5B 1_555 1_555
C6B C5 1_555 1_555
H4B C6B 1_555 1_555
C7A C8A 1_555 1_555
C8A C9A 1_555 1_555
C9A H5A 1_555 1_555
C10A C9A 1_555 1_555
H6A C10A 1_555 1_555
C11A H7A 1_555 1_555
C12A C11A 1_555 1_555
C13A C12A 1_555 1_555
H8A C13A 1_555 1_555
C14A C13A 1_555 1_555
H9A C14A 1_555 1_555
C15A C14A 1_555 1_555
C16A C10A 1_555 1_555
C17A C8A 1_555 1_555
H10A C17A 1_555 1_555
C18A O5A 1_555 1_555
C19B O7B 1_555 1_555
H11B C19B 1_555 1_555
C20B N1B 1_555 1_555
H12B C20B 1_555 1_555
H13B C20B 1_555 1_555
H14B C20B 1_555 1_555
C21B N1B 1_555 1_555
H15B C21B 1_555 1_555
H16B C21B 1_555 1_555
H17B C21B 1_555 1_555
C22B N2B 1_555 1_555
H18B C22B 1_555 1_555
H19B C22B 1_555 1_555
H20B C22B 1_555 1_555
C23B N2B 1_555 1_555
H21B C23B 1_555 1_555
H22B C23B 1_555 1_555
H23B C23B 1_555 1_555
C11 C16 1_555 1_555
C15 C16 1_555 1_555
C15 C17 1_555 1_555
Ni2B_2 O2B_2 1_555 1_555
O6A C18A 1_555 1_555
C2B C5B 1_555 1_555
C3B C4B 1_555 1_555
C4B C6B 1_555 1_555
C11A C16A 1_555 1_555
C12A C18A 1_555 1_555
C15A C16A 1_555 1_555
C15A C17A 1_555 1_555

#END
