
#######################################################################
#
#                 Cambridge Crystallographic Data Centre
#                                CCDC 
#
#######################################################################
#
# If this CIF has been generated from an entry in the Cambridge 
# Structural Database, then it will include bibliographic, chemical, 
# crystal, experimental, refinement or atomic coordinate data resulting 
# from the CCDC's data processing and validation procedures.
#
#######################################################################

data_HURGUX
_symmetry_cell_setting           monoclinic
_symmetry_space_group_name_H-M   'P 21/n'
_symmetry_Int_Tables_number      14
_space_group_name_Hall           '-P 2yn'
loop_
_symmetry_equiv_pos_site_id
_symmetry_equiv_pos_as_xyz
1 x,y,z
2 1/2-x,1/2+y,1/2-z
3 -x,-y,-z
4 1/2+x,1/2-y,1/2+z
_cell_length_a                   11.3850(2)
_cell_length_b                   19.1250(5)
_cell_length_c                   11.6060(3)
_cell_angle_alpha                90
_cell_angle_beta                 115.6840(11)
_cell_angle_gamma                90
_cell_volume                     2277.39
loop_
_atom_site_label
_atom_site_type_symbol
_atom_site_fract_x
_atom_site_fract_y
_atom_site_fract_z
Ni1 Ni 0.5000 0.5000 0.5000
O1 O 0.5520(3) 0.58508(15) 0.4293(3)
C1 C 0.5274(4) 0.6099(2) 0.3204(4)
O2 O 0.4409(3) 0.59085(14) 0.2147(3)
Ni2 Ni 0.32649(5) 0.50494(3) 0.17084(4)
O3 O 0.3143(2) 0.49300(14) 0.3451(2)
C2 C 0.2090(4) 0.5292(2) 0.3014(4)
O4 O 0.1726(3) 0.55966(15) 0.1962(3)
C3 C 0.1229(4) 0.5292(2) 0.3705(4)
C4 C 0.1386(4) 0.4794(2) 0.4600(4)
C5 C 0.0514(4) 0.4756(2) 0.5178(4)
C6 C 0.0629(4) 0.4232(2) 0.6094(4)
C7 C 0.0193(4) 0.5781(2) 0.3340(4)
O5 O 1.0231(3) 0.94077(15) 0.3008(3)
C8 C 0.9416(4) 0.9163(2) 0.1950(4)
O6 O 0.9279(3) 0.93252(15) 0.0854(3)
C9 C 0.8530(4) 0.8584(2) 0.2008(4)
C10 C 0.8624(4) 0.8339(2) 0.3153(4)
C11 C 0.7805(4) 0.7788(2) 0.3197(4)
C12 C 0.7841(4) 0.7528(2) 0.4370(4)
C13 C 0.7038(4) 0.6999(2) 0.4359(4)
C14 C 0.6158(4) 0.6692(2) 0.3203(4)
C15 C 0.6100(4) 0.6935(2) 0.2070(4)
C16 C 0.6907(4) 0.7486(2) 0.2034(4)
C17 C 0.6830(4) 0.7753(2) 0.0869(4)
C18 C 0.7603(4) 0.8289(2) 0.0858(4)
O7 O 0.2016(3) 0.41909(15) 0.1061(3)
C19 C 0.2304(5) 0.3643(2) 0.1699(5)
N1 N 0.1660(4) 0.30454(19) 0.1321(4)
C20 C 0.2047(6) 0.2428(3) 0.2139(5)
C21 C 0.0513(5) 0.3003(3) 0.0102(5)
N2 N 0.2837(3) 0.52693(18) -0.0168(3)
C22 C 0.3126(5) 0.4709(3) -0.0875(4)
C23 C 0.1490(5) 0.5515(3) -0.0885(4)
H1 H 0.2081 0.4481 0.4841
H2 H 0.1294 0.3899 0.6330
H3 H 0.0096 0.6118 0.2731
H4 H 0.9240 0.8538 0.3915
H5 H 0.8416 0.7726 0.5147
H6 H 0.7070 0.6838 0.5125
H7 H 0.5506 0.6742 0.1301
H8 H 0.6240 0.7559 0.0101
H9 H 0.7524 0.8470 0.0081
H10 H 0.3022 0.3649 0.2503
H11 H 0.2101 0.2040 0.1645
H12 H 0.1394 0.2334 0.2432
H13 H 0.2879 0.2502 0.2864
H14 H 0.0657 0.2657 -0.0421
H15 H -0.0229 0.2866 0.0243
H16 H 0.0350 0.3450 -0.0313
H17 H 0.4037 0.4595 -0.0446
H18 H 0.2914 0.4862 -0.1734
H19 H 0.2617 0.4303 -0.0898
H20 H 0.1354 0.5910 -0.0448
H21 H 0.1341 0.5654 -0.1743
H22 H 0.0896 0.5146 -0.0930
H23 H 0.3348 0.5625 -0.0141
Ni1A Ni 1.0000 1.0000 0.0000
Ni1_2 Ni -0.5000 0.5000 0.5000
Ni1A_2 Ni 0.0000 0.0000 1.0000
O1B O 0.4480(3) 0.41492(15) 0.5707(3)
C1B C 0.4726(4) 0.3901(2) 0.6796(4)
O2B O 0.5591(3) 0.40915(14) 0.7853(3)
O2B_2 O -0.4409(3) 0.40915(14) 0.7853(3)
Ni2B Ni 0.67351(5) 0.49506(3) 0.82916(4)
Ni2A Ni 1.17351(5) 1.00494(3) 0.32916(4)
Ni2B_2 Ni -0.32649(5) 0.49506(3) 0.82916(4)
Ni2C Ni -0.17351(5) -0.00494(3) 0.67084(4)
O3B O -0.3143(2) 0.50700(14) 0.6549(2)
O3B_2 O 0.6857(2) 0.50700(14) 0.6549(2)
C2B C -0.2090(4) 0.4708(2) 0.6986(4)
O4B O -0.1726(3) 0.44034(15) 0.8038(3)
C3B C -0.1229(4) 0.4708(2) 0.6295(4)
C4B C -0.1386(4) 0.5206(2) 0.5400(4)
C5B C -0.0514(4) 0.5244(2) 0.4822(4)
C6B C -0.0629(4) 0.5768(2) 0.3906(4)
C7B C -0.0193(4) 0.4219(2) 0.6660(4)
O5B O -0.0231(3) 0.05923(15) 0.6992(3)
O5A O 0.4769(3) 0.44077(15) 0.1992(3)
O5C O -0.4769(3) 0.55923(15) 0.8008(3)
C8B C 0.0584(4) 0.0837(2) 0.8050(4)
O6B O 0.0721(3) 0.06748(15) 0.9146(3)
O6A O 0.5721(3) 0.43252(15) 0.4146(3)
O6C O 0.4279(3) 0.56748(15) 0.5854(3)
C9B C 0.1470(4) 0.1416(2) 0.7992(4)
C10B C 0.1376(4) 0.1661(2) 0.6847(4)
C11B C 0.2195(4) 0.2212(2) 0.6803(4)
C12B C 0.2159(4) 0.2472(2) 0.5630(4)
C13B C 0.2962(4) 0.3001(2) 0.5641(4)
C14B C 0.3842(4) 0.3308(2) 0.6797(4)
C15B C 0.3900(4) 0.3065(2) 0.7930(4)
C16B C 0.3093(4) 0.2514(2) 0.7966(4)
C17B C 0.3170(4) 0.2247(2) 0.9131(4)
C18B C 0.2397(4) 0.1711(2) 0.9142(4)
O7B O -0.2016(3) 0.58091(15) 0.8939(3)
C19B C -0.2304(5) 0.6357(2) 0.8301(5)
N1B N -0.1660(4) 0.69546(19) 0.8679(4)
C20B C -0.2047(6) 0.7572(3) 0.7861(5)
C21B C -0.0513(5) 0.6997(3) 0.9898(5)
N2B N -0.2837(3) 0.47307(18) 1.0168(3)
C22B C -0.3126(5) 0.5291(3) 1.0875(4)
C23B C -0.1490(5) 0.4485(3) 1.0885(4)
H1B H -0.2081 0.5519 0.5159
H2B H -0.1294 0.6101 0.3670
H3B H -0.0096 0.3882 0.7269
H4B H 0.0760 0.1462 0.6085
H5B H 0.1584 0.2274 0.4853
H6B H 0.2930 0.3162 0.4875
H7B H 0.4494 0.3258 0.8699
H8B H 0.3760 0.2441 0.9899
H9B H 0.2476 0.1530 0.9919
H10B H -0.3022 0.6351 0.7497
H11B H -0.2101 0.7960 0.8355
H12B H -0.1394 0.7666 0.7568
H13B H -0.2879 0.7498 0.7136
H14B H -0.0657 0.7343 1.0421
H15B H 0.0229 0.7134 0.9757
H16B H -0.0350 0.6550 1.0313
H17B H -0.4037 0.5405 1.0446
H18B H -0.2914 0.5138 1.1734
H19B H -0.2617 0.5697 1.0898
H20B H -0.1354 0.4090 1.0448
H21B H -0.1341 0.4346 1.1743
H22B H -0.0896 0.4854 1.0930
H23B H -0.3348 0.4375 1.0141
loop_
_geom_bond_atom_site_label_1
_geom_bond_atom_site_label_2
_geom_bond_site_symmetry_1
_geom_bond_site_symmetry_2
Ni1 O1 1_555 1_555
O1 C1 1_555 1_555
C1 O2 1_555 1_555
O2 Ni2 1_555 1_555
Ni2 O3 1_555 1_555
O3 Ni1 1_555 1_555
C2 O3 1_555 1_555
O4 Ni2 1_555 1_555
C3 C2 1_555 1_555
C4 C3 1_555 1_555
C5 C4 1_555 1_555
C6 C5 1_555 1_555
C7 C3 1_555 1_555
O5 C8 1_555 1_555
C8 O6 1_555 1_555
O6 Ni1A 1_555 1_555
C9 C8 1_555 1_555
C10 C9 1_555 1_555
C11 C10 1_555 1_555
C12 C11 1_555 1_555
C13 C12 1_555 1_555
C14 C1 1_555 1_555
C15 C14 1_555 1_555
C16 C11 1_555 1_555
C17 C16 1_555 1_555
C18 C9 1_555 1_555
O7 Ni2 1_555 1_555
C19 O7 1_555 1_555
N1 C19 1_555 1_555
C20 N1 1_555 1_555
C21 N1 1_555 1_555
N2 Ni2 1_555 1_555
C22 N2 1_555 1_555
C23 N2 1_555 1_555
H1 C4 1_555 1_555
H2 C6 1_555 1_555
H3 C7 1_555 1_555
H4 C10 1_555 1_555
H5 C12 1_555 1_555
H6 C13 1_555 1_555
H7 C15 1_555 1_555
H8 C17 1_555 1_555
H9 C18 1_555 1_555
H10 C19 1_555 1_555
H11 C20 1_555 1_555
H12 C20 1_555 1_555
H13 C20 1_555 1_555
H14 C21 1_555 1_555
H15 C21 1_555 1_555
H16 C21 1_555 1_555
H17 C22 1_555 1_555
H18 C22 1_555 1_555
H19 C22 1_555 1_555
H20 C23 1_555 1_555
H21 C23 1_555 1_555
H22 C23 1_555 1_555
H23 N2 1_555 1_555
Ni1_2 O3B 1_555 1_555
Ni1A_2 O6B 1_555 1_555
O1B Ni1 1_555 1_555
C1B O1B 1_555 1_555
O2B C1B 1_555 1_555
O2B_2 Ni2B_2 1_555 1_555
Ni2B O2B 1_555 1_555
Ni2A O5 1_555 1_555
Ni2B_2 O3B 1_555 1_555
Ni2C O5B 1_555 1_555
O3B C2B 1_555 1_555
O3B_2 Ni1 1_555 1_555
C2B O4B 1_555 1_555
O4B Ni2B_2 1_555 1_555
C3B C2B 1_555 1_555
C4B C3B 1_555 1_555
C5B C5 1_555 1_555
C6B C7 1_555 1_555
C7B C6 1_555 1_555
O5B C8B 1_555 1_555
O5A Ni2 1_555 1_555
O5C Ni2B_2 1_555 1_555
C8B O6B 1_555 1_555
O6A Ni1 1_555 1_555
O6C Ni1 1_555 1_555
C9B C8B 1_555 1_555
C10B C9B 1_555 1_555
C11B C10B 1_555 1_555
C12B C11B 1_555 1_555
C13B C12B 1_555 1_555
C14B C1B 1_555 1_555
C15B C14B 1_555 1_555
C16B C11B 1_555 1_555
C17B C16B 1_555 1_555
C18B C9B 1_555 1_555
O7B Ni2B_2 1_555 1_555
C19B O7B 1_555 1_555
N1B C19B 1_555 1_555
C20B N1B 1_555 1_555
C21B N1B 1_555 1_555
N2B Ni2B_2 1_555 1_555
C22B N2B 1_555 1_555
C23B N2B 1_555 1_555
H1B C4B 1_555 1_555
H2B C6B 1_555 1_555
H3B C7B 1_555 1_555
H4B C10B 1_555 1_555
H5B C12B 1_555 1_555
H6B C13B 1_555 1_555
H7B C15B 1_555 1_555
H8B C17B 1_555 1_555
H9B C18B 1_555 1_555
H10B C19B 1_555 1_555
H11B C20B 1_555 1_555
H12B C20B 1_555 1_555
H13B C20B 1_555 1_555
H14B C21B 1_555 1_555
H15B C21B 1_555 1_555
H16B C21B 1_555 1_555
H17B C22B 1_555 1_555
H18B C22B 1_555 1_555
H19B C22B 1_555 1_555
H20B C23B 1_555 1_555
H21B C23B 1_555 1_555
H22B C23B 1_555 1_555
H23B N2B 1_555 1_555
C2 O4 1_555 1_555
C13 C14 1_555 1_555
C15 C16 1_555 1_555
C17 C18 1_555 1_555
Ni2B O3B_2 1_555 1_555
C3B C7B 1_555 1_555
C4B C5B 1_555 1_555
C5B C6B 1_555 1_555
C13B C14B 1_555 1_555
C15B C16B 1_555 1_555
C17B C18B 1_555 1_555

#END
