
#######################################################################
#
#                 Cambridge Crystallographic Data Centre
#                                CCDC 
#
#######################################################################
#
# If this CIF has been generated from an entry in the Cambridge 
# Structural Database, then it will include bibliographic, chemical, 
# crystal, experimental, refinement or atomic coordinate data resulting 
# from the CCDC's data processing and validation procedures.
#
#######################################################################

data_HURHAE01
_symmetry_cell_setting           orthorhombic
_symmetry_space_group_name_H-M   'P 21 21 21'
_symmetry_Int_Tables_number      19
_space_group_name_Hall           'P 2ac 2ab'
loop_
_symmetry_equiv_pos_site_id
_symmetry_equiv_pos_as_xyz
1 x,y,z
2 1/2+x,1/2-y,-z
3 -x,1/2+y,1/2-z
4 1/2-x,-y,1/2+z
_cell_length_a                   5.88830(10)
_cell_length_b                   15.2307(3)
_cell_length_c                   21.6648(5)
_cell_angle_alpha                90
_cell_angle_beta                 90
_cell_angle_gamma                90
_cell_volume                     1942.96
loop_
_atom_site_label
_atom_site_type_symbol
_atom_site_fract_x
_atom_site_fract_y
_atom_site_fract_z
Cu1 Cu 0.82669(10) 0.45906(4) 0.34866(2)
O1 O 0.8266(7) 0.4226(2) 0.26257(13)
C1 C 0.6554(9) 0.4391(3) 0.2280(2)
O2 O 0.4551(6) 0.4483(3) 0.24638(15)
C2 C 0.7039(8) 0.4490(3) 0.16053(18)
C3 C 0.5338(8) 0.4413(3) 0.1168(2)
C4 C 0.5779(8) 0.4582(4) 0.0545(2)
C5 C 0.7934(8) 0.4808(3) 0.0359(2)
C6 C 0.8425(10) 0.5036(3) -0.03083(19)
O3 O 0.6730(7) 0.5001(2) -0.06630(13)
O4 O 1.0392(6) 0.5270(3) -0.04518(16)
C7 C 0.9645(10) 0.4887(5) 0.0795(2)
C8 C 0.9228(9) 0.4704(5) 0.1417(2)
O5 O 1.2019(5) 0.4495(2) 0.35201(14)
N1 N 0.8162(8) 0.5847(2) 0.31815(17)
C9 C 0.6418(11) 0.6378(3) 0.3332(3)
C10 C 0.6342(12) 0.7252(4) 0.3115(3)
C11 C 0.8100(13) 0.7568(4) 0.2779(3)
C12 C 0.9849(13) 0.7046(4) 0.2633(3)
C13 C 0.9821(10) 0.6156(4) 0.2832(3)
N2 N 0.7711(7) 0.3346(3) 0.37827(18)
C14 C 0.5930(10) 0.2879(4) 0.3582(3)
C15 C 0.5378(13) 0.2068(4) 0.3822(4)
C16 C 0.6699(18) 0.1724(4) 0.4270(4)
C17 C 0.8562(15) 0.2192(5) 0.4467(3)
C18 C 0.9021(12) 0.2992(4) 0.4224(3)
H1 H 0.3893 0.4232 0.1288
H2 H 0.4621 0.4560 0.0264
H3 H 1.1120 0.5043 0.0668
H4 H 1.0394 0.4732 0.1716
H5 H 0.5282 0.6168 0.3583
H6 H 0.5093 0.7608 0.3197
H7 H 0.8082 0.8156 0.2657
H8 H 1.1061 0.7248 0.2393
H9 H 1.0987 0.5766 0.2733
H10 H 0.5040 0.3122 0.3265
H11 H 0.4135 0.1744 0.3673
H12 H 0.6344 0.1176 0.4435
H13 H 0.9516 0.1980 0.4767
H14 H 1.0271 0.3307 0.4360
H15 H 1.2651 0.4539 0.3181
H16 H 1.2791 0.4494 0.3839
Cu1C Cu 0.67331(10) 0.54094(4) -0.15134(2)
O3C O 0.8270(7) 0.4999(2) 0.43370(13)
loop_
_geom_bond_atom_site_label_1
_geom_bond_atom_site_label_2
_geom_bond_site_symmetry_1
_geom_bond_site_symmetry_2
Cu1 O1 1_555 1_555
O1 C1 1_555 1_555
C1 O2 1_555 1_555
C2 C1 1_555 1_555
C3 C2 1_555 1_555
C4 C3 1_555 1_555
C5 C4 1_555 1_555
C6 C5 1_555 1_555
O3 C6 1_555 1_555
O4 C6 1_555 1_555
C7 C5 1_555 1_555
C8 C2 1_555 1_555
O5 Cu1 1_555 1_555
N1 Cu1 1_555 1_555
C9 N1 1_555 1_555
C10 C9 1_555 1_555
C11 C10 1_555 1_555
C12 C11 1_555 1_555
C13 N1 1_555 1_555
N2 Cu1 1_555 1_555
C14 N2 1_555 1_555
C15 C14 1_555 1_555
C16 C15 1_555 1_555
C17 C16 1_555 1_555
C18 N2 1_555 1_555
H1 C3 1_555 1_555
H2 C4 1_555 1_555
H3 C7 1_555 1_555
H4 C8 1_555 1_555
H5 C9 1_555 1_555
H6 C10 1_555 1_555
H7 C11 1_555 1_555
H8 C12 1_555 1_555
H9 C13 1_555 1_555
H10 C14 1_555 1_555
H11 C15 1_555 1_555
H12 C16 1_555 1_555
H13 C17 1_555 1_555
H14 C18 1_555 1_555
H15 O5 1_555 1_555
H16 O5 1_555 1_555
Cu1C O3 1_555 1_555
O3C Cu1 1_555 1_555
C7 C8 1_555 1_555
C12 C13 1_555 1_555
C17 C18 1_555 1_555

#END
