
#######################################################################
#
#                 Cambridge Crystallographic Data Centre
#                                CCDC 
#
#######################################################################
#
# If this CIF has been generated from an entry in the Cambridge 
# Structural Database, then it will include bibliographic, chemical, 
# crystal, experimental, refinement or atomic coordinate data resulting 
# from the CCDC's data processing and validation procedures.
#
#######################################################################

data_HURHEI
_symmetry_cell_setting           rhombohedral
_symmetry_space_group_name_H-M   'R -3 c'
_symmetry_Int_Tables_number      167
_space_group_name_Hall           '-R 3 2"c'
loop_
_symmetry_equiv_pos_site_id
_symmetry_equiv_pos_as_xyz
1 x,y,z
2 1/3+x,2/3+y,2/3+z
3 2/3+x,1/3+y,1/3+z
4 -y,x-y,z
5 1/3-y,2/3+x-y,2/3+z
6 2/3-y,1/3+x-y,1/3+z
7 -x+y,-x,z
8 1/3-x+y,2/3-x,2/3+z
9 2/3-x+y,1/3-x,1/3+z
10 x-y,-y,1/2-z
11 1/3+x-y,2/3-y,1/6-z
12 2/3+x-y,1/3-y,5/6-z
13 -x,-x+y,1/2-z
14 1/3-x,2/3-x+y,1/6-z
15 2/3-x,1/3-x+y,5/6-z
16 y,x,1/2-z
17 1/3+y,2/3+x,1/6-z
18 2/3+y,1/3+x,5/6-z
19 -x,-y,-z
20 2/3-x,1/3-y,1/3-z
21 1/3-x,2/3-y,2/3-z
22 y,-x+y,-z
23 2/3+y,1/3-x+y,1/3-z
24 1/3+y,2/3-x+y,2/3-z
25 x-y,x,-z
26 2/3+x-y,1/3+x,1/3-z
27 1/3+x-y,2/3+x,2/3-z
28 -x+y,y,1/2+z
29 2/3-x+y,1/3+y,5/6+z
30 1/3-x+y,2/3+y,1/6+z
31 x,x-y,1/2+z
32 2/3+x,1/3+x-y,5/6+z
33 1/3+x,2/3+x-y,1/6+z
34 -y,-x,1/2+z
35 2/3-y,1/3-x,5/6+z
36 1/3-y,2/3-x,1/6+z
_cell_length_a                   19.0438(5)
_cell_length_b                   19.0438(5)
_cell_length_c                   42.1236(13)
_cell_angle_alpha                90
_cell_angle_beta                 90
_cell_angle_gamma                120
_cell_volume                     13230.1
loop_
_atom_site_label
_atom_site_type_symbol
_atom_site_fract_x
_atom_site_fract_y
_atom_site_fract_z
O3 O 1.0036(2) 0.666700(10) 0.416700(10)
H10 H 0.9569 0.6270 0.4160
H10K H 0.9966 0.7063 0.4173
Cu1 Cu 1.3334 1.13223(3) 0.4166
O1 O 1.21642(22) 1.07319(15) 0.41044(6)
C1 C 1.1742(3) 1.1079(2) 0.41348(9)
O2 O 1.20161(23) 1.18184(17) 0.41595(7)
C2 C 1.0834(3) 1.0512(2) 0.41368(9)
C3 C 1.0320(3) 1.0829(2) 0.41351(9)
N1 N 1.31537(19) 1.13313(28) 0.46428(8)
C4 C 1.2592(3) 1.0653(4) 0.47852(11)
C5 C 1.2462(3) 1.0599(4) 0.51078(12)
C6 C 1.2924(3) 1.1264(4) 0.52936(11)
C7 C 1.3495(3) 1.1962(4) 0.51509(11)
C8 C 1.3595(3) 1.1974(4) 0.48210(10)
N2 N 1.3333(3) 1.0128 0.4167
C9 C 1.3943(4) 1.0074(3) 0.42942(11)
C10 C 1.3957(6) 0.9337(4) 0.42980(14)
C11 C 1.3333(4) 0.866604(7) 0.416701(7)
H1 H 1.0532 1.1380 0.4127
H2 H 1.2285 1.0203 0.4654
H3 H 1.2085 1.0122 0.5204
H4 H 1.2852 1.1251 0.5511
H5 H 1.3813 1.2432 0.5270
H6 H 1.3979 1.2448 0.4721
H7 H 1.4374 1.0543 0.4384
H8 H 1.4425 0.9315 0.4394
H9 H 1.3333 0.8162 0.4167
Cu1F Cu 0.79883(3) 0.6666 0.4166
Cu1C Cu 0.86777(3) 1.20117(3) 0.4166
Cu1K Cu 1.86784(3) 1.20110(3) 0.4167
Cu1Q Cu 1.79890(3) 1.6667 0.4167
O1F O 0.85677(27) 0.78358(22) 0.41044(6)
O1C O 0.92681(15) 1.14323(27) 0.41044(6)
O1N O 1.45025(22) 1.19010(27) 0.42289(6)
O1K O 1.80990(27) 1.26014(15) 0.42289(6)
O1Q O 1.73986(15) 1.54975(22) 0.42289(6)
O1Q_2 O 0.73986(15) 0.54975(22) 0.42289(6)
O1K_2 O 0.80990(27) 1.26014(15) 0.42289(6)
C1F C 0.9337(4) 0.8258(3) 0.41348(9)
C1C C 0.8921(2) 1.0663(4) 0.41348(9)
C1N C 1.4925(3) 1.2670(4) 0.41985(9)
C1K C 1.7330(4) 1.2254(2) 0.41985(9)
C1Q C 1.7746(2) 1.5075(3) 0.41985(9)
O2F O 0.98023(29) 0.79839(23) 0.41595(7)
O2C O 0.81816(17) 1.01977(29) 0.41595(7)
O2N O 1.46506(23) 1.31356(29) 0.41738(7)
O2K O 1.68644(29) 1.15149(17) 0.41738(7)
O2Q O 1.84851(17) 1.53494(23) 0.41738(7)
C2F C 0.9678(4) 0.9166(3) 0.41368(9)
C2C C 0.9488(2) 1.0322(4) 0.41368(9)
C2N C 1.5833(3) 1.3011(4) 0.41965(9)
C2K C 1.6989(4) 1.2821(2) 0.41965(9)
C2Q C 1.7179(2) 1.4167(3) 0.41965(9)
C3F C 1.0509(4) 0.9680(3) 0.41351(9)
C3C C 0.9171(2) 0.9491(4) 0.41351(9)
C3N C 1.6347(3) 1.3842(4) 0.41982(9)
C3K C 1.6158(4) 1.2504(2) 0.41982(9)
C3Q C 1.7496(2) 1.3653(3) 0.41982(9)
N1N N 1.35130(19) 1.15109(34) 0.36905(8)
N1F N 0.81776(34) 0.68463(19) 0.46428(8)
N1Q N 0.79980(28) 0.64870(19) 0.36905(8)
N1C N 0.86687(28) 1.18224(34) 0.46428(8)
N1K N 0.84891(34) 1.20020(28) 0.36905(8)
C4N C 1.4075(3) 1.1394(5) 0.35481(11)
C4F C 0.8061(5) 0.7408(3) 0.47852(11)
C4Q C 0.7320(4) 0.5925(3) 0.35481(11)
C4C C 0.9347(4) 1.1939(5) 0.47852(11)
C4K C 0.8606(5) 1.2680(4) 0.35481(11)
C5N C 1.4205(3) 1.1470(5) 0.32255(12)
C5F C 0.8137(5) 0.7538(3) 0.51078(12)
C5Q C 0.7266(4) 0.5795(3) 0.32255(12)
C5C C 0.9401(4) 1.1863(5) 0.51078(12)
C5K C 0.8530(5) 1.2734(4) 0.32255(12)
C6N C 1.3743(3) 1.1673(5) 0.30397(11)
C6F C 0.8340(5) 0.7076(3) 0.52936(11)
C6Q C 0.7931(4) 0.6257(3) 0.30397(11)
C6C C 0.8736(4) 1.1660(5) 0.52936(11)
C6K C 0.8327(5) 1.2069(4) 0.30397(11)
C7N C 1.3172(3) 1.1800(5) 0.31824(11)
C7F C 0.8467(5) 0.6505(3) 0.51509(11)
C7Q C 0.8629(4) 0.6828(3) 0.31824(11)
C7C C 0.8038(4) 1.1533(5) 0.51509(11)
C7K C 0.8200(5) 1.1371(4) 0.31824(11)
C8N C 1.3072(3) 1.1712(5) 0.35123(10)
C8F C 0.8379(5) 0.6405(3) 0.48210(10)
C8Q C 0.8641(4) 0.6928(3) 0.35123(10)
C8C C 0.8026(4) 1.1621(5) 0.48210(10)
C8K C 0.8288(5) 1.1359(4) 0.35123(10)
N2F N 0.6795(3) 0.6667(3) 0.4167
N2C N 0.9872 1.3205(3) 0.4167
C9N C 1.2724(4) 0.9464(5) 0.40391(11)
C9F C 0.6131(5) 0.6057(4) 0.42942(11)
C9Q C 0.6741(3) 0.7276(4) 0.40391(11)
C9C C 0.9926(3) 1.3869(5) 0.42942(11)
C9K C 1.0536(5) 1.3259(3) 0.40391(11)
C10N C 1.2710(6) 0.8713(7) 0.40353(14)
C10F C 0.5380(7) 0.6043(6) 0.42980(14)
C10Q C 0.6004(4) 0.7290(6) 0.40353(14)
C10C C 1.0663(4) 1.4620(7) 0.42980(14)
C10K C 1.1287(7) 1.3996(4) 0.40353(14)
C11F C 0.53330(40) 0.6667(4) 0.416701(7)
C11C C 1.133396(7) 1.46670(40) 0.416701(7)
H1C H 0.8620 0.9152 0.4127
H1F H 1.0848 0.9468 0.4127
H1N H 1.6135 1.4181 0.4206
H1Q H 1.8047 1.3865 0.4206
H1K H 1.5819 1.1953 0.4206
H2N H 1.4382 1.1251 0.3679
H2F H 0.7918 0.7715 0.4654
H2Q H 0.6870 0.5618 0.3679
H2C H 0.9797 1.2082 0.4654
H2K H 0.8749 1.3130 0.3679
H3N H 1.4582 1.1370 0.3129
H3F H 0.8037 0.7915 0.5204
H3Q H 0.6789 0.5418 0.3129
H3C H 0.9878 1.1963 0.5204
H3K H 0.8630 1.3211 0.3129
H4N H 1.3815 1.1732 0.2822
H4F H 0.8399 0.7148 0.5511
H4Q H 0.7918 0.6185 0.2822
H4C H 0.8749 1.1601 0.5511
H4K H 0.8268 1.2082 0.2822
H5N H 1.2854 1.1952 0.3063
H5F H 0.8619 0.6187 0.5270
H5Q H 0.9099 0.7146 0.3063
H5C H 0.7568 1.1381 0.5270
H5K H 0.8048 1.0901 0.3063
H6N H 1.2688 1.1802 0.3612
H6F H 0.8469 0.6021 0.4721
H6Q H 0.9115 0.7312 0.3612
H6C H 0.7552 1.1531 0.4721
H6K H 0.8198 1.0885 0.3612
H7N H 1.2293 0.9502 0.3949
H7F H 0.6169 0.5626 0.4384
H7Q H 0.7210 0.7707 0.3949
H7C H 0.9457 1.3831 0.4384
H7K H 1.0498 1.2790 0.3949
H8N H 1.2242 0.8223 0.3939
H8F H 0.4890 0.5575 0.4394
H8Q H 0.5982 0.7758 0.3939
H8C H 1.0685 1.5110 0.4394
H8K H 1.1777 1.4018 0.3939
H9F H 0.4829 0.6667 0.4167
H9C H 1.1838 1.5171 0.4167
N3? N 0.5178(5) 0.4285(6) 0.4842(2)
C12? C 0.5905(5) 0.4849(6) 0.4982(2)
C13? C 0.5958(5) 0.5511(6) 0.5143(2)
C14? C 0.5283(5) 0.5609(6) 0.5165(2)
C15? C 0.4556(5) 0.5044(6) 0.5025(2)
C16? C 0.4503(5) 0.4382(6) 0.4864(2)
H11? H 0.6391 0.4779 0.4967
H12? H 0.6481 0.5917 0.5244
H13? H 0.5321 0.6085 0.5281
H14? H 0.4070 0.5114 0.5040
H15? H 0.3980 0.3977 0.4763
loop_
_geom_bond_atom_site_label_1
_geom_bond_atom_site_label_2
_geom_bond_site_symmetry_1
_geom_bond_site_symmetry_2
Cu1 O1 1_555 1_555
O1 C1 1_555 1_555
C1 O2 1_555 1_555
C2 C1 1_555 1_555
C3 C2 1_555 1_555
N1 Cu1 1_555 1_555
C4 N1 1_555 1_555
C5 C4 1_555 1_555
C6 C5 1_555 1_555
C7 C6 1_555 1_555
C8 N1 1_555 1_555
N2 Cu1 1_555 1_555
C9 N2 1_555 1_555
C10 C9 1_555 1_555
C11 C10 1_555 1_555
O3 H10 1_555 1_555
H1 C3 1_555 1_555
H2 C4 1_555 1_555
H3 C5 1_555 1_555
H4 C6 1_555 1_555
H5 C7 1_555 1_555
H6 C8 1_555 1_555
H7 C9 1_555 1_555
H8 C10 1_555 1_555
H9 C11 1_555 1_555
Cu1F O1F 1_555 1_555
Cu1C O1C 1_555 1_555
Cu1K O1K 1_555 1_555
Cu1Q O1Q 1_555 1_555
O1F C1F 1_555 1_555
O1C C1C 1_555 1_555
O1N Cu1 1_555 1_555
O1K C1K 1_555 1_555
O1Q C1Q 1_555 1_555
O1Q_2 Cu1F 1_555 1_555
O1K_2 Cu1C 1_555 1_555
C1F O2F 1_555 1_555
C1C O2C 1_555 1_555
C1N O1N 1_555 1_555
C1K O2K 1_555 1_555
C1Q O2Q 1_555 1_555
O2N C1N 1_555 1_555
C2F C1F 1_555 1_555
C2C C3 1_555 1_555
C2N C1N 1_555 1_555
C2K C1K 1_555 1_555
C2Q C1Q 1_555 1_555
C3F C2 1_555 1_555
C3C C2F 1_555 1_555
C3N C2N 1_555 1_555
C3K C2N 1_555 1_555
C3Q C2K 1_555 1_555
N1N Cu1 1_555 1_555
N1F Cu1F 1_555 1_555
N1Q Cu1F 1_555 1_555
N1C Cu1C 1_555 1_555
N1K Cu1C 1_555 1_555
C4N N1N 1_555 1_555
C4F N1F 1_555 1_555
C4Q N1Q 1_555 1_555
C4C N1C 1_555 1_555
C4K N1K 1_555 1_555
C5N C4N 1_555 1_555
C5F C4F 1_555 1_555
C5Q C4Q 1_555 1_555
C5C C4C 1_555 1_555
C5K C4K 1_555 1_555
C6N C5N 1_555 1_555
C6F C5F 1_555 1_555
C6Q C5Q 1_555 1_555
C6C C5C 1_555 1_555
C6K C5K 1_555 1_555
C7N C6N 1_555 1_555
C7F C6F 1_555 1_555
C7Q C6Q 1_555 1_555
C7C C6C 1_555 1_555
C7K C6K 1_555 1_555
C8N N1N 1_555 1_555
C8F N1F 1_555 1_555
C8Q N1Q 1_555 1_555
C8C N1C 1_555 1_555
C8K N1K 1_555 1_555
N2F Cu1F 1_555 1_555
N2C Cu1C 1_555 1_555
C9N N2 1_555 1_555
C9F N2F 1_555 1_555
C9Q N2F 1_555 1_555
C9C N2C 1_555 1_555
C9K N2C 1_555 1_555
C10N C11 1_555 1_555
C10F C9F 1_555 1_555
C10Q C9Q 1_555 1_555
C10C C9C 1_555 1_555
C10K C9K 1_555 1_555
C11F C10F 1_555 1_555
C11C C10C 1_555 1_555
H1C C3C 1_555 1_555
H1F C3F 1_555 1_555
H1N C3N 1_555 1_555
H1Q C3Q 1_555 1_555
H1K C3K 1_555 1_555
H2N C4N 1_555 1_555
H2F C4F 1_555 1_555
H2Q C4Q 1_555 1_555
H2C C4C 1_555 1_555
H2K C4K 1_555 1_555
H3N C5N 1_555 1_555
H3F C5F 1_555 1_555
H3Q C5Q 1_555 1_555
H3C C5C 1_555 1_555
H3K C5K 1_555 1_555
H4N C6N 1_555 1_555
H4F C6F 1_555 1_555
H4Q C6Q 1_555 1_555
H4C C6C 1_555 1_555
H4K C6K 1_555 1_555
H5N C7N 1_555 1_555
H5F C7F 1_555 1_555
H5Q C7Q 1_555 1_555
H5C C7C 1_555 1_555
H5K C7K 1_555 1_555
H6N C8N 1_555 1_555
H6F C8F 1_555 1_555
H6Q C8Q 1_555 1_555
H6C C8C 1_555 1_555
H6K C8K 1_555 1_555
H7N C9N 1_555 1_555
H7F C9F 1_555 1_555
H7Q C9Q 1_555 1_555
H7C C9C 1_555 1_555
H7K C9K 1_555 1_555
H8N C10N 1_555 1_555
H8F C10F 1_555 1_555
H8Q C10Q 1_555 1_555
H8C C10C 1_555 1_555
H8K C10K 1_555 1_555
H9F C11F 1_555 1_555
H9C C11C 1_555 1_555
H10K O3 1_555 1_555
C7 C8 1_555 1_555
C1C C2C 1_555 1_555
C2F C3F 1_555 1_555
C2C C3C 1_555 1_555
C2K C3K 1_555 1_555
C2Q C3N 1_555 1_555
C2Q C3Q 1_555 1_555
C7N C8N 1_555 1_555
C7F C8F 1_555 1_555
C7Q C8Q 1_555 1_555
C7C C8C 1_555 1_555
C7K C8K 1_555 1_555
C9N C10N 1_555 1_555
C10Q C11F 1_555 1_555
C10K C11C 1_555 1_555

#END
