
#######################################################################
#
#                 Cambridge Crystallographic Data Centre
#                                CCDC 
#
#######################################################################
#
# If this CIF has been generated from an entry in the Cambridge 
# Structural Database, then it will include bibliographic, chemical, 
# crystal, experimental, refinement or atomic coordinate data resulting 
# from the CCDC's data processing and validation procedures.
#
#######################################################################

data_HURHAE
_symmetry_cell_setting           monoclinic
_symmetry_space_group_name_H-M   'C 2/c'
_symmetry_Int_Tables_number      15
_space_group_name_Hall           '-C 2yn'
loop_
_symmetry_equiv_pos_site_id
_symmetry_equiv_pos_as_xyz
1 x,y,z
2 1/2+x,1/2+y,z
3 -x,y,1/2-z
4 1/2-x,1/2+y,1/2-z
5 -x,-y,-z
6 1/2-x,1/2-y,-z
7 x,-y,1/2+z
8 1/2+x,1/2-y,1/2+z
_cell_length_a                   17.7075(3)
_cell_length_b                   5.87520(10)
_cell_length_c                   21.9234(4)
_cell_angle_alpha                90
_cell_angle_beta                 113.0973(8)
_cell_angle_gamma                90
_cell_volume                     2097.97
loop_
_atom_site_label
_atom_site_type_symbol
_atom_site_fract_x
_atom_site_fract_y
_atom_site_fract_z
Cu1 Cu 0.5000 0.68301(8) 0.7500
O1 O 0.41135(11) 0.6764(3) 0.66314(9)
C1 C 0.37542(16) 0.8508(5) 0.63002(13)
O2 O 0.39114(14) 1.0523(4) 0.64749(11)
C2 C 0.30943(15) 0.7989(4) 0.56286(12)
C3 C 0.27559(17) 0.5819(5) 0.54837(13)
C4 C 0.21634(17) 0.5329(5) 0.48588(13)
O3 O 0.500000(10) 0.3007(4) 0.750000(10)
N1 N 0.41477(14) 0.7064(4) 0.79098(11)
C5 C 0.4120(2) 0.8751(6) 0.83048(17)
C6 C 0.3553(2) 0.8805(7) 0.8600(2)
C7 C 0.3009(2) 0.7024(6) 0.8492(2)
C8 C 0.3024(2) 0.5307(6) 0.8069(2)
C9 C 0.3597(2) 0.5379(6) 0.77929(17)
H1 H 0.2938 0.4671 0.5813
H2 H 0.1926 0.3867 0.4752
H3 H 0.4650 0.2250 0.7208
H4 H 0.4495 0.9906 0.8380
H5 H 0.3536 1.0013 0.8876
H6 H 0.2639 0.6977 0.8705
H7 H 0.2653 0.4095 0.7967
H8 H 0.3630 0.4204 0.7523
Cu1E Cu 0.0000 0.81699(8) 0.2500
O1E O 0.08865(11) 0.8236(3) 0.33686(9)
O1B O 0.58865(11) 0.6764(3) 0.83686(9)
C1E C 0.12458(16) 0.6492(5) 0.36998(13)
O2E O 0.10886(14) 0.4477(4) 0.35251(11)
C2E C 0.19057(15) 0.7011(4) 0.43714(12)
C3E C 0.22441(17) 0.9181(5) 0.45163(13)
C4E C 0.28366(17) 0.9671(5) 0.51412(13)
N1B N 0.58523(14) 0.7064(4) 0.70902(11)
C5B C 0.5880(2) 0.8751(6) 0.66952(17)
C6B C 0.6447(2) 0.8805(7) 0.6400(2)
C7B C 0.6991(2) 0.7024(6) 0.6508(2)
C8B C 0.6976(2) 0.5307(6) 0.6931(2)
C9B C 0.6403(2) 0.5379(6) 0.72071(17)
H1E H 0.2062 1.0329 0.4187
H2E H 0.3074 1.1133 0.5248
H3B H 0.5350 0.2250 0.7792
H4B H 0.5505 0.9906 0.6620
H5B H 0.6464 1.0013 0.6124
H6B H 0.7361 0.6977 0.6295
H7B H 0.7347 0.4095 0.7033
H8B H 0.6370 0.4204 0.7477
loop_
_geom_bond_atom_site_label_1
_geom_bond_atom_site_label_2
_geom_bond_site_symmetry_1
_geom_bond_site_symmetry_2
Cu1 O1 1_555 1_555
O1 C1 1_555 1_555
C1 O2 1_555 1_555
C2 C1 1_555 1_555
C3 C2 1_555 1_555
C4 C3 1_555 1_555
O3 Cu1 1_555 1_555
N1 Cu1 1_555 1_555
C5 N1 1_555 1_555
C6 C5 1_555 1_555
C7 C6 1_555 1_555
C8 C7 1_555 1_555
C9 N1 1_555 1_555
H1 C3 1_555 1_555
H2 C4 1_555 1_555
H3 O3 1_555 1_555
H4 C5 1_555 1_555
H5 C6 1_555 1_555
H6 C7 1_555 1_555
H7 C8 1_555 1_555
H8 C9 1_555 1_555
Cu1E O1E 1_555 1_555
O1E C1E 1_555 1_555
O1B Cu1 1_555 1_555
C1E O2E 1_555 1_555
C2E C4 1_555 1_555
C3E C2E 1_555 1_555
C4E C2 1_555 1_555
N1B Cu1 1_555 1_555
C5B N1B 1_555 1_555
C6B C5B 1_555 1_555
C7B C6B 1_555 1_555
C8B C7B 1_555 1_555
C9B N1B 1_555 1_555
H1E C3E 1_555 1_555
H2E C4E 1_555 1_555
H3B O3 1_555 1_555
H4B C5B 1_555 1_555
H5B C6B 1_555 1_555
H6B C7B 1_555 1_555
H7B C8B 1_555 1_555
H8B C9B 1_555 1_555
C8 C9 1_555 1_555
C1E C2E 1_555 1_555
C3E C4E 1_555 1_555
C8B C9B 1_555 1_555

#END
