
#######################################################################
#
#                 Cambridge Crystallographic Data Centre
#                                CCDC 
#
#######################################################################
#
# If this CIF has been generated from an entry in the Cambridge 
# Structural Database, then it will include bibliographic, chemical, 
# crystal, experimental, refinement or atomic coordinate data resulting 
# from the CCDC's data processing and validation procedures.
#
#######################################################################

data_HURMIQ
_symmetry_cell_setting           triclinic
_symmetry_space_group_name_H-M   'P -1'
_symmetry_Int_Tables_number      2
_space_group_name_Hall           '-P 1'
loop_
_symmetry_equiv_pos_site_id
_symmetry_equiv_pos_as_xyz
1 x,y,z
2 -x,-y,-z
_cell_length_a                   7.812(3)
_cell_length_b                   12.549(3)
_cell_length_c                   7.154(3)
_cell_angle_alpha                104.81(3)
_cell_angle_beta                 115.20(3)
_cell_angle_gamma                87.72(2)
_cell_volume                     611.583
loop_
_atom_site_label
_atom_site_type_symbol
_atom_site_fract_x
_atom_site_fract_y
_atom_site_fract_z
Pb1 Pb 0.65809(4) -0.01565(2) 0.31784(4)
O1 O 0.4315(16) -0.1935(8) 0.1433(16)
H1 H 0.41(3) -0.244(8) 0.19(2)
H2 H 0.45(2) -0.230(9) 0.038(18)
S1 S 1.3640(3) -0.31685(18) 0.5476(4)
O2 O 0.9732(13) -0.1383(6) 0.4017(15)
O3 O 1.4846(12) -0.3275(7) 0.4391(16)
O4 O 1.4517(12) -0.3314(7) 0.7618(13)
N1 N 1.2690(13) -0.2014(6) 0.5464(16)
C1 C 1.0764(14) -0.2155(7) 0.4288(17)
C2 C 1.0075(13) -0.3351(7) 0.3290(15)
C3 C 0.8230(14) -0.3808(9) 0.196(2)
H3 H 0.7229 -0.3359 0.1576
C4 C 0.7913(17) -0.4959(9) 0.122(2)
H4 H 0.6687 -0.5275 0.0311
C5 C 0.9374(16) -0.5635(9) 0.180(2)
H5 H 0.9128 -0.6399 0.1278
C6 C 1.1248(15) -0.5172(7) 0.3183(17)
H6 H 1.2247 -0.5617 0.3609
C7 C 1.1539(12) -0.4032(7) 0.3880(14)
O5 O 0.3589(10) 0.0492(7) 0.3591(12)
O6 O 0.3577(10) 0.0533(8) 0.0573(12)
C8 C 0.2824(14) 0.0809(8) 0.1861(15)
C9 C 0.105(2) 0.1427(12) 0.135(3)
H7 H 0.1383 0.2202 0.1660
H8 H 0.0432 0.1319 0.2201
H9 H 0.0206 0.1153 -0.0142
N1A N 0.7310(13) 0.2014(6) 0.4536(16)
O5A O 0.6411(10) -0.0492(7) 0.6409(12)
O6A O 0.6423(10) -0.0533(8) -0.0573(12)
Pb1A Pb 1.34191(4) 0.01565(2) 0.68216(4)
Pb1A_2 Pb 0.34191(4) 0.01565(2) 0.68216(4)
Pb1A_3 Pb 0.34191(4) 0.01565(2) -0.31784(4)
loop_
_geom_bond_atom_site_label_1
_geom_bond_atom_site_label_2
_geom_bond_site_symmetry_1
_geom_bond_site_symmetry_2
Pb1 O1 1_555 1_555
O1 H1 1_555 1_555
H2 O1 1_555 1_555
S1 O3 1_555 1_555
O2 Pb1 1_555 1_555
O4 S1 1_555 1_555
N1 S1 1_555 1_555
C1 O2 1_555 1_555
C2 C1 1_555 1_555
C3 C2 1_555 1_555
H3 C3 1_555 1_555
C4 C3 1_555 1_555
H4 C4 1_555 1_555
C5 C4 1_555 1_555
H5 C5 1_555 1_555
C6 C5 1_555 1_555
H6 C6 1_555 1_555
C7 S1 1_555 1_555
O5 Pb1 1_555 1_555
O6 Pb1 1_555 1_555
C8 O5 1_555 1_555
C9 C8 1_555 1_555
H7 C9 1_555 1_555
H8 C9 1_555 1_555
H9 C9 1_555 1_555
N1A Pb1 1_555 1_555
O5A Pb1 1_555 1_555
O6A Pb1 1_555 1_555
Pb1A N1 1_555 1_555
Pb1A_2 O5 1_555 1_555
Pb1A_3 O6 1_555 1_555
N1 C1 1_555 1_555
C2 C7 1_555 1_555
C6 C7 1_555 1_555
O6 C8 1_555 1_555
O5A Pb1A_2 1_555 1_555
O6A Pb1A_3 1_555 1_555

#END
