
#######################################################################
#
#                 Cambridge Crystallographic Data Centre
#                                CCDC 
#
#######################################################################
#
# If this CIF has been generated from an entry in the Cambridge 
# Structural Database, then it will include bibliographic, chemical, 
# crystal, experimental, refinement or atomic coordinate data resulting 
# from the CCDC's data processing and validation procedures.
#
#######################################################################

data_HURNOX
_symmetry_cell_setting           orthorhombic
_symmetry_space_group_name_H-M   'P 21 21 21'
_symmetry_Int_Tables_number      19
_space_group_name_Hall           'P 2ac 2ab'
loop_
_symmetry_equiv_pos_site_id
_symmetry_equiv_pos_as_xyz
1 x,y,z
2 1/2-x,-y,1/2+z
3 1/2+x,1/2-y,-z
4 -x,1/2+y,1/2-z
_cell_length_a                   7.149(3)
_cell_length_b                   10.468(4)
_cell_length_c                   11.295(3)
_cell_angle_alpha                90
_cell_angle_beta                 90
_cell_angle_gamma                90
_cell_volume                     845.27
loop_
_atom_site_label
_atom_site_type_symbol
_atom_site_fract_x
_atom_site_fract_y
_atom_site_fract_z
Co1 Co 0.89317(13) 0.06414(8) 0.45811(8)
O2 O 1.0092(8) 0.0348(4) 0.2899(4)
O3 O 1.1852(7) -0.0364(4) 0.4346(4)
O4 O 1.4708(7) -0.2357(4) -0.0184(4)
O5 O 1.3579(7) -0.3736(4) 0.1152(4)
O6 O 0.8031(7) -0.1197(4) 0.4779(5)
N1 N 1.6848(9) -0.1112(5) 0.1359(5)
H1 H 1.805 -0.1369 0.1372
H2 H 1.6748 -0.0413 0.1818
C1 C 1.4579(10) -0.2805(6) 0.0844(6)
C2 C 1.1565(11) -0.0238(6) 0.3268(7)
C3 C 1.5648(10) -0.2136(6) 0.1842(6)
H3 H 1.6475 -0.2773 0.2203
C4 C 1.4358(11) -0.1665(6) 0.2794(6)
H4 H 1.5089 -0.1237 0.3399
H5 H 1.3744 -0.2391 0.316
C5 C 1.2884(11) -0.0752(7) 0.2334(6)
H6 H 1.3507 -0.0038 0.1955
H7 H 1.2153 -0.1188 0.1734
O4A O 1.0292(7) 0.2357(4) 0.4816(4)
O5C O 0.6421(7) 0.1264(4) 0.3848(4)
N1A N 0.8152(9) 0.1112(5) 0.6359(5)
Co1A Co 1.60683(13) -0.06414(8) -0.04189(8)
Co1C Co 1.10683(13) -0.43586(8) 0.04189(8)
H1A H 0.695 0.1369 0.6372
H2A H 0.8252 0.0413 0.6818
O1 O 1.4590(7) -0.1461(4) 0.5741(4)
loop_
_geom_bond_atom_site_label_1
_geom_bond_atom_site_label_2
_geom_bond_site_symmetry_1
_geom_bond_site_symmetry_2
Co1 O2 1_555 1_555
O2 C2 1_555 1_555
O3 Co1 1_555 1_555
O4 C1 1_555 1_555
O5 C1 1_555 1_555
O6 Co1 1_555 1_555
N1 H1 1_555 1_555
H2 N1 1_555 1_555
C1 C3 1_555 1_555
C2 O3 1_555 1_555
C3 N1 1_555 1_555
H3 C3 1_555 1_555
C4 C3 1_555 1_555
H4 C4 1_555 1_555
H5 C4 1_555 1_555
C5 C2 1_555 1_555
H6 C5 1_555 1_555
H7 C5 1_555 1_555
O4A Co1 1_555 1_555
O5C Co1 1_555 1_555
N1A Co1 1_555 1_555
Co1A O4 1_555 1_555
Co1C O5 1_555 1_555
H1A N1A 1_555 1_555
H2A N1A 1_555 1_555
N1 Co1A 1_555 1_555
C4 C5 1_555 1_555

#END
