
#######################################################################
#
#                 Cambridge Crystallographic Data Centre
#                                CCDC 
#
#######################################################################
#
# If this CIF has been generated from an entry in the Cambridge 
# Structural Database, then it will include bibliographic, chemical, 
# crystal, experimental, refinement or atomic coordinate data resulting 
# from the CCDC's data processing and validation procedures.
#
#######################################################################

data_HURQIV
_symmetry_cell_setting           orthorhombic
_symmetry_space_group_name_H-M   'P 21 21 21'
_symmetry_Int_Tables_number      19
_space_group_name_Hall           'P 2ac 2ab'
loop_
_symmetry_equiv_pos_site_id
_symmetry_equiv_pos_as_xyz
1 x,y,z
2 1/2-x,-y,1/2+z
3 1/2+x,1/2-y,-z
4 -x,1/2+y,1/2-z
_cell_length_a                   6.310(2)
_cell_length_b                   14.144(3)
_cell_length_c                   29.431(5)
_cell_angle_alpha                90
_cell_angle_beta                 90
_cell_angle_gamma                90
_cell_volume                     2626.68
loop_
_atom_site_label
_atom_site_type_symbol
_atom_site_fract_x
_atom_site_fract_y
_atom_site_fract_z
Ca1 Ca 0.4648(2) 0.67959(7) 0.19391(3)
O1 O 0.477(1) 0.5206(3) 0.2284(1)
O2 O 0.6225(7) 0.8090(2) 0.1559(1)
O3 O 0.8947(7) 0.4041(2) 0.6330(1)
O4 O 0.2090(7) 0.8017(3) 0.2052(1)
O5 O 0.1396(7) 0.6067(3) 0.1703(1)
O6 O 0.6381(6) 0.4216(2) 0.4012(1)
O7 O 0.8758(6) 0.7575(2) 0.3584(1)
O8 O 0.4956(6) 0.7246(2) 0.27355(9)
O9 O 0.8073(6) 0.6650(3) 0.22578(9)
C1 C 0.8856(8) 0.4150(3) 0.5097(1)
C2 C 0.9028(8) 0.3629(3) 0.5544(1)
C3 C 0.8385(9) 0.4219(3) 0.5938(1)
C4 C 0.6917(9) 0.4981(3) 0.5855(1)
C5 C 0.6041(7) 0.5154(3) 0.5446(1)
C6 C 0.4251(8) 0.5839(3) 0.5403(1)
C7 C 0.4549(9) 0.6526(3) 0.5014(1)
C8 C 0.5076(7) 0.6038(3) 0.4566(1)
C9 C 0.6966(7) 0.5371(3) 0.4628(1)
C10 C 0.6695(7) 0.4631(3) 0.5022(1)
C11 C 0.7766(7) 0.4946(3) 0.4178(1)
C12 C 0.8093(8) 0.5686(3) 0.3803(1)
C13 C 0.6187(8) 0.6341(3) 0.3743(1)
C14 C 0.5666(7) 0.6773(3) 0.4209(1)
C15 C 0.4140(9) 0.7580(3) 0.4102(1)
C16 C 0.4942(9) 0.7961(3) 0.3635(1)
C17 C 0.6651(8) 0.7270(3) 0.3465(1)
C18 C 0.4301(9) 0.5839(3) 0.3530(1)
C19 C 0.4976(9) 0.3875(3) 0.4935(1)
C20 C 0.6572(8) 0.7104(3) 0.2953(1)
C21 C 0.8490(8) 0.6721(4) 0.2725(1)
H1 H 0.9925 0.4622 0.5089
H2 H 0.9082 0.3711 0.4858
H3 H 0.8140 0.3087 0.5532
H4 H 1.0457 0.3436 0.5585
H5 H 0.6547 0.5382 0.6101
H6 H 0.2978 0.5495 0.5355
H7 H 0.4142 0.6188 0.5678
H8 H 0.3276 0.6876 0.4977
H9 H 0.5673 0.6945 0.5089
H10 H 0.3881 0.5687 0.4465
H11 H 0.8087 0.5769 0.4727
H12 H 0.9104 0.4663 0.4237
H13 H 0.9295 0.6059 0.3879
H14 H 0.8343 0.5366 0.3525
H15 H 0.6936 0.7061 0.4313
H16 H 0.2726 0.7356 0.4078
H17 H 0.4212 0.8058 0.4328
H18 H 0.3802 0.7987 0.3424
H19 H 0.5529 0.8574 0.3671
H20 H 0.3099 0.6243 0.3539
H21 H 0.4619 0.5684 0.3224
H22 H 0.4008 0.5277 0.3695
H23 H 0.3646 0.4176 0.4891
H24 H 0.5332 0.3521 0.4671
H25 H 0.4893 0.3463 0.5189
H26 H 0.8815 0.6114 0.2844
H27 H 0.9655 0.7134 0.2774
H28 H 0.7335 0.3696 0.4016
H29 H 0.8535 0.8207 0.3482
H30 H 0.5069 0.4575 0.2454
H31 H 0.3489 0.5422 0.2423
H32 H 0.7527 0.7973 0.1416
H33 H 0.5569 0.8495 0.1364
H34 H 0.1396 0.8420 0.2251
H35 H 0.1283 0.8352 0.1777
H36 H 0.1640 0.6255 0.1367
H37 H 0.0495 0.5527 0.1767
H38 H 0.9039 0.6577 0.2070
Ca1A Ca 1.0352(2) 0.32041(7) 0.69391(3)
O3A O 0.6053(7) 0.5959(2) 0.1330(1)
Cl1 Cl 1.0128(4) 0.91856(1) 0.28914(5)
Cl2 Cl 0.9574(3) 0.26034(9) 0.39631(4)
loop_
_geom_bond_atom_site_label_1
_geom_bond_atom_site_label_2
_geom_bond_site_symmetry_1
_geom_bond_site_symmetry_2
Ca1 O1 1_555 1_555
O1 H30 1_555 1_555
O2 Ca1 1_555 1_555
O3 C3 1_555 1_555
O4 Ca1 1_555 1_555
O5 Ca1 1_555 1_555
O6 C11 1_555 1_555
O7 C17 1_555 1_555
O8 Ca1 1_555 1_555
O9 Ca1 1_555 1_555
C1 C2 1_555 1_555
C2 C3 1_555 1_555
C3 C4 1_555 1_555
C4 C5 1_555 1_555
C5 C6 1_555 1_555
C6 C7 1_555 1_555
C7 C8 1_555 1_555
C8 C9 1_555 1_555
C9 C10 1_555 1_555
C10 C1 1_555 1_555
C11 C9 1_555 1_555
C12 C11 1_555 1_555
C13 C12 1_555 1_555
C14 C8 1_555 1_555
C15 C14 1_555 1_555
C16 C15 1_555 1_555
C17 C13 1_555 1_555
C18 C13 1_555 1_555
C19 C10 1_555 1_555
C20 O8 1_555 1_555
C21 O9 1_555 1_555
H1 C1 1_555 1_555
H2 C1 1_555 1_555
H3 C2 1_555 1_555
H4 C2 1_555 1_555
H5 C4 1_555 1_555
H6 C6 1_555 1_555
H7 C6 1_555 1_555
H8 C7 1_555 1_555
H9 C7 1_555 1_555
H10 C8 1_555 1_555
H11 C9 1_555 1_555
H12 C11 1_555 1_555
H13 C12 1_555 1_555
H14 C12 1_555 1_555
H15 C14 1_555 1_555
H16 C15 1_555 1_555
H17 C15 1_555 1_555
H18 C16 1_555 1_555
H19 C16 1_555 1_555
H20 C18 1_555 1_555
H21 C18 1_555 1_555
H22 C18 1_555 1_555
H23 C19 1_555 1_555
H24 C19 1_555 1_555
H25 C19 1_555 1_555
H26 C21 1_555 1_555
H27 C21 1_555 1_555
H28 O6 1_555 1_555
H29 O7 1_555 1_555
H31 O1 1_555 1_555
H32 O2 1_555 1_555
H33 O2 1_555 1_555
H34 O4 1_555 1_555
H35 O4 1_555 1_555
H36 O5 1_555 1_555
H37 O5 1_555 1_555
H38 O9 1_555 1_555
Ca1A O3 1_555 1_555
O3A Ca1 1_555 1_555
C5 C10 1_555 1_555
C13 C14 1_555 1_555
C16 C17 1_555 1_555
C17 C20 1_555 1_555
C20 C21 1_555 1_555

#END
