
#######################################################################
#
#                 Cambridge Crystallographic Data Centre
#                                CCDC 
#
#######################################################################
#
# If this CIF has been generated from an entry in the Cambridge 
# Structural Database, then it will include bibliographic, chemical, 
# crystal, experimental, refinement or atomic coordinate data resulting 
# from the CCDC's data processing and validation procedures.
#
#######################################################################

data_HURZUP
_symmetry_cell_setting           triclinic
_symmetry_space_group_name_H-M   'P -1'
_symmetry_Int_Tables_number      2
_space_group_name_Hall           '-P 1'
loop_
_symmetry_equiv_pos_site_id
_symmetry_equiv_pos_as_xyz
1 x,y,z
2 -x,-y,-z
_cell_length_a                   5.3279(10)
_cell_length_b                   8.9739(17)
_cell_length_c                   12.195(2)
_cell_angle_alpha                99.734(3)
_cell_angle_beta                 92.495(4)
_cell_angle_gamma                100.190(4)
_cell_volume                     563.986
loop_
_atom_site_label
_atom_site_type_symbol
_atom_site_fract_x
_atom_site_fract_y
_atom_site_fract_z
Cu1 Cu 0.5000 1.0000 0.5000
O1 O 0.3001(4) 0.8941(2) 0.36588(17)
O2 O 0.5852(5) 1.0203(3) 0.2725(2)
N1 N 0.6939(4) 0.8213(3) 0.49639(18)
N2 N -0.3402(9) 0.5813(6) -0.2040(3)
C1 C 0.8993(6) 0.8275(4) 0.5667(2)
C2 C 1.0204(5) 0.7063(3) 0.5704(2)
C3 C 0.9394(5) 0.5677(3) 0.4988(2)
C4 C 0.7315(6) 0.5622(4) 0.4239(3)
C5 C 0.6167(6) 0.6875(3) 0.4257(2)
C6 C 0.3881(6) 0.9305(4) 0.2763(3)
C7 C 0.2254(6) 0.8525(4) 0.1706(3)
C8 C 0.2956(10) 0.8816(7) 0.0725(4)
C9 C 0.1526(11) 0.8136(8) -0.0273(4)
C10 C -0.0661(8) 0.7126(5) -0.0238(3)
C11 C -0.1403(8) 0.6822(5) 0.0747(4)
C12 C 0.0071(8) 0.7531(5) 0.1726(3)
C13 C -0.2206(9) 0.6389(6) -0.1251(3)
H1 H 0.958(5) 0.922(3) 0.608(2)
H2 H 1.152(4) 0.717(3) 0.621(2)
H3 H 0.664(5) 0.478(3) 0.375(2)
H4 H 0.475(5) 0.687(3) 0.381(2)
H5 H 0.445(5) 0.936(5) 0.060(4)
H6 H 0.212(8) 0.833(5) -0.094(2)
H7 H -0.299(5) 0.621(4) 0.075(3)
H8 H -0.056(7) 0.727(4) 0.235(3)
C3A C 1.0606(5) 0.4323(3) 0.5012(2)
C2A C 0.9796(5) 0.2937(3) 0.4296(2)
C1A C 1.1007(6) 0.1725(4) 0.4333(2)
N1A N 1.3061(4) 0.1787(3) 0.50361(18)
C5A C 1.3833(6) 0.3125(3) 0.5743(2)
C4A C 1.2685(6) 0.4378(4) 0.5761(3)
H3A H 1.336(5) 0.522(3) 0.625(2)
H4A H 1.525(5) 0.313(3) 0.619(2)
H1A H 1.042(5) 0.078(3) 0.392(2)
H2A H 0.848(4) 0.283(3) 0.379(2)
O1A O 0.6999(4) 1.1059(2) 0.63412(17)
O2A O 0.4148(5) 0.9797(3) 0.7275(2)
N2A N 1.3402(9) 1.4187(6) 1.2040(3)
C6A C 0.6119(6) 1.0695(4) 0.7237(3)
C7A C 0.7746(6) 1.1475(4) 0.8294(3)
C8A C 0.7044(10) 1.1184(7) 0.9275(4)
C9A C 0.8474(11) 1.1864(8) 1.0273(4)
C10A C 1.0661(8) 1.2874(5) 1.0238(3)
C11A C 1.1403(8) 1.3178(5) 0.9253(4)
C12A C 0.9929(8) 1.2469(5) 0.8274(3)
C13A C 1.2206(9) 1.3611(6) 1.1251(3)
H5A H 0.555(5) 1.064(5) 0.940(4)
H6A H 0.788(8) 1.167(5) 1.094(2)
H7A H 1.299(5) 1.379(4) 0.925(3)
H8A H 1.056(7) 1.273(4) 0.765(3)
N1A_2 N 0.3061(4) 1.1787(3) 0.50361(18)
Cu1_2 Cu 1.5000 0.0000 0.5000
loop_
_geom_bond_atom_site_label_1
_geom_bond_atom_site_label_2
_geom_bond_site_symmetry_1
_geom_bond_site_symmetry_2
Cu1 O1 1_555 1_555
O1 C6 1_555 1_555
O2 C6 1_555 1_555
N1 Cu1 1_555 1_555
N2 C13 1_555 1_555
C1 N1 1_555 1_555
C2 C1 1_555 1_555
C3 C2 1_555 1_555
C4 C3 1_555 1_555
C5 N1 1_555 1_555
C6 C7 1_555 1_555
C7 C8 1_555 1_555
C8 C9 1_555 1_555
C9 C10 1_555 1_555
C10 C11 1_555 1_555
C11 C12 1_555 1_555
C12 C7 1_555 1_555
C13 C10 1_555 1_555
H1 C1 1_555 1_555
H2 C2 1_555 1_555
H3 C4 1_555 1_555
H4 C5 1_555 1_555
H5 C8 1_555 1_555
H6 C9 1_555 1_555
H7 C11 1_555 1_555
H8 C12 1_555 1_555
C3A C3 1_555 1_555
C2A C3A 1_555 1_555
C1A C2A 1_555 1_555
N1A C1A 1_555 1_555
C5A N1A 1_555 1_555
C4A C3A 1_555 1_555
H3A C4A 1_555 1_555
H4A C5A 1_555 1_555
H1A C1A 1_555 1_555
H2A C2A 1_555 1_555
O1A Cu1 1_555 1_555
O2A C6A 1_555 1_555
N2A C13A 1_555 1_555
C6A O1A 1_555 1_555
C7A C6A 1_555 1_555
C8A C7A 1_555 1_555
C9A C8A 1_555 1_555
C10A C9A 1_555 1_555
C11A C10A 1_555 1_555
C12A C7A 1_555 1_555
C13A C10A 1_555 1_555
H5A C8A 1_555 1_555
H6A C9A 1_555 1_555
H7A C11A 1_555 1_555
H8A C12A 1_555 1_555
N1A_2 Cu1 1_555 1_555
Cu1_2 N1A 1_555 1_555
C4 C5 1_555 1_555
C5A C4A 1_555 1_555
C11A C12A 1_555 1_555

#END
