
#######################################################################
#
#                 Cambridge Crystallographic Data Centre
#                                CCDC 
#
#######################################################################
#
# If this CIF has been generated from an entry in the Cambridge 
# Structural Database, then it will include bibliographic, chemical, 
# crystal, experimental, refinement or atomic coordinate data resulting 
# from the CCDC's data processing and validation procedures.
#
#######################################################################

data_HUSFUX
_symmetry_cell_setting           monoclinic
_symmetry_space_group_name_H-M   'P 21/n'
_symmetry_Int_Tables_number      14
_space_group_name_Hall           '-P 2yn'
loop_
_symmetry_equiv_pos_site_id
_symmetry_equiv_pos_as_xyz
1 x,y,z
2 1/2-x,1/2+y,1/2-z
3 -x,-y,-z
4 1/2+x,1/2-y,1/2+z
_cell_length_a                   8.5883(11)
_cell_length_b                   8.8382(8)
_cell_length_c                   10.0357(11)
_cell_angle_alpha                90
_cell_angle_beta                 91.114(12)
_cell_angle_gamma                90
_cell_volume                     761.617
loop_
_atom_site_label
_atom_site_type_symbol
_atom_site_fract_x
_atom_site_fract_y
_atom_site_fract_z
Cd1 Cd 0.00665(2) 0.68664(2) 0.63208(2)
N1 N 0.1321(3) 0.4580(3) 0.6462(3)
N2 N 0.1752(3) 0.3708(3) 0.5370(3)
N3 N 0.3300(4) 0.3099(3) 0.7111(3)
N4 N 0.3666(4) 0.1792(3) 0.5050(3)
H1 H 0.3366 0.1642 0.4238
H2 H 0.4425 0.1274 0.5386
N5 N -0.1875(4) 0.6931(3) 0.7852(3)
N6 N -0.2764(3) 0.5653(3) 0.7980(3)
N7 N -0.3365(3) 0.7276(3) 0.9622(3)
N8 N -0.4627(3) 0.4801(3) 0.9493(3)
C1 C 0.2932(4) 0.2860(4) 0.5810(3)
C2 C 0.2275(4) 0.4185(4) 0.7445(3)
H3 H 0.2245 0.4614 0.8290
C3 C -0.3618(4) 0.5918(4) 0.9033(3)
C4 C -0.2272(4) 0.7863(4) 0.8846(3)
H4 H -0.1833 0.8814 0.8980
Cd1B Cd -0.00665(2) 0.31336(2) 0.36792(2)
Cd1A Cd 0.49335(2) 0.18664(2) 0.86792(2)
Cd1C Cd -0.49335(2) 0.81336(2) 1.13208(2)
Cd1A_2 Cd -0.50665(2) 0.18664(2) 0.86792(2)
Cd1B_2 Cd -1.00665(2) 0.31336(2) 1.36792(2)
Cd1C_2 Cd -0.49335(2) 0.81336(2) 0.13208(2)
N1B N -0.1321(3) 0.5420(3) 0.3538(3)
N2B N -0.1752(3) 0.6292(3) 0.4630(3)
N3B N -0.3300(4) 0.6901(3) 0.2889(3)
N3A N 0.1700(4) 0.8099(3) 0.7889(3)
N3C N -0.1700(4) 0.1901(3) 0.2111(3)
N4B N -0.3666(4) 0.8208(3) 0.4950(3)
H1B H -0.3366 0.8358 0.5762
H2B H -0.4425 0.8726 0.4614
N5B N -0.8125(4) 0.3069(3) 1.2148(3)
N5B_2 N 0.1875(4) 0.3069(3) 0.2148(3)
N6B N -0.7236(3) 0.4347(3) 1.2020(3)
N7B N -0.6635(3) 0.2724(3) 1.0378(3)
N7C N 0.1635(3) 0.7724(3) 0.4622(3)
N7A N -0.1635(3) 0.2276(3) 0.5378(3)
N8B N -0.5373(3) 0.5199(3) 1.0507(3)
N8A N -0.0373(3) 0.9801(3) 0.5507(3)
N8C N 0.0373(3) 0.0199(3) 0.4493(3)
C1B C -0.2932(4) 0.7140(4) 0.4190(3)
C2B C -0.2275(4) 0.5815(4) 0.2555(3)
H3B H -0.2245 0.5386 0.1710
C3B C -0.6382(4) 0.4082(4) 1.0967(3)
C4B C -0.7728(4) 0.2137(4) 1.1154(3)
H4B H -0.8167 0.1186 1.1020
loop_
_geom_bond_atom_site_label_1
_geom_bond_atom_site_label_2
_geom_bond_site_symmetry_1
_geom_bond_site_symmetry_2
Cd1 N1 1_555 1_555
N1 N2 1_555 1_555
N2 C1 1_555 1_555
N3 C1 1_555 1_555
N4 H1 1_555 1_555
H2 N4 1_555 1_555
N5 Cd1 1_555 1_555
N6 N5 1_555 1_555
N7 C3 1_555 1_555
N8 C3 1_555 1_555
C1 N4 1_555 1_555
C2 N1 1_555 1_555
H3 C2 1_555 1_555
C3 N6 1_555 1_555
C4 N5 1_555 1_555
H4 C4 1_555 1_555
Cd1B N2 1_555 1_555
Cd1A N3 1_555 1_555
Cd1C N7 1_555 1_555
Cd1A_2 N8 1_555 1_555
Cd1B_2 N5B 1_555 1_555
Cd1C_2 N3B 1_555 1_555
N1B Cd1B 1_555 1_555
N2B Cd1 1_555 1_555
N3B C1B 1_555 1_555
N3A Cd1 1_555 1_555
N3C Cd1B 1_555 1_555
N4B H1B 1_555 1_555
H2B N4B 1_555 1_555
N5B N6B 1_555 1_555
N5B_2 Cd1B 1_555 1_555
N6B C3B 1_555 1_555
N7B Cd1A_2 1_555 1_555
N7C Cd1 1_555 1_555
N7A Cd1B 1_555 1_555
N8B N8 1_555 1_555
N8A Cd1 1_555 1_555
N8C Cd1B 1_555 1_555
C1B N2B 1_555 1_555
C2B N1B 1_555 1_555
H3B C2B 1_555 1_555
C3B N7B 1_555 1_555
C4B N5B 1_555 1_555
H4B C4B 1_555 1_555
N3 C2 1_555 1_555
N7 C4 1_555 1_555
Cd1C N8B 1_555 1_555
N1B N2B 1_555 1_555
N3B C2B 1_555 1_555
N4B C1B 1_555 1_555
N7B C4B 1_555 1_555
N8B C3B 1_555 1_555

#END
