
#######################################################################
#
#                 Cambridge Crystallographic Data Centre
#                                CCDC 
#
#######################################################################
#
# If this CIF has been generated from an entry in the Cambridge 
# Structural Database, then it will include bibliographic, chemical, 
# crystal, experimental, refinement or atomic coordinate data resulting 
# from the CCDC's data processing and validation procedures.
#
#######################################################################

data_HUSGAE
_symmetry_cell_setting           orthorhombic
_symmetry_space_group_name_H-M   'I b a m'
_symmetry_Int_Tables_number      72
_space_group_name_Hall           '-I 2 2c'
loop_
_symmetry_equiv_pos_site_id
_symmetry_equiv_pos_as_xyz
1 x,y,z
2 -x,-y,z
3 1/2-x,1/2+y,-z
4 1/2+x,1/2-y,-z
5 1/2+x,1/2+y,1/2+z
6 1/2-x,1/2-y,1/2+z
7 -x,y,1/2-z
8 x,-y,1/2-z
9 -x,-y,-z
10 x,y,-z
11 1/2+x,1/2-y,z
12 1/2-x,1/2+y,z
13 1/2-x,1/2-y,1/2-z
14 1/2+x,1/2+y,1/2-z
15 x,-y,1/2+z
16 -x,y,1/2+z
_cell_length_a                   7.9911(7)
_cell_length_b                   10.1983(8)
_cell_length_c                   20.4588(18)
_cell_angle_alpha                90
_cell_angle_beta                 90
_cell_angle_gamma                90
_cell_volume                     1667.3
loop_
_atom_site_label
_atom_site_type_symbol
_atom_site_fract_x
_atom_site_fract_y
_atom_site_fract_z
Cd1 Cd 0.0000 0.5000 0.2500
Cd2 Cd 0.5000 0.5000 0.5000
N1 N 0.3352(2) 0.42013(17) 0.41638(8)
N2 N 0.3824(3) 0.31637(17) 0.37725(8)
N3 N 0.1803(2) 0.43137(16) 0.32659(8)
N4 N 0.3000(2) 0.23765(16) 0.27336(8)
C1 C 0.2860(3) 0.32828(18) 0.32479(9)
C2 C 0.2170(3) 0.48486(19) 0.38440(9)
H1 H 0.1650 0.5598 0.4005
O1 O 0.3603(5) 0.7034(3) 0.5000
H2 H 0.4013 0.7511 0.4720
Cd1J Cd 0.5000 0.0000 0.2500
Cd1J_2 Cd -0.5000 1.0000 0.2500
Cd2D Cd 0.0000 0.0000 0.0000
Cd2_2 Cd -0.5000 0.5000 0.5000
Cd2D_2 Cd 0.0000 1.0000 0.0000
N1L N 0.1648(2) 0.07987(17) 0.08362(8)
N1A N -0.3352(2) 0.57987(17) 0.41638(8)
N1M N -0.1648(2) 0.92013(17) 0.08362(8)
N1A_2 N 0.6648(2) 0.57987(17) 0.41638(8)
N1H N 0.6648(2) 0.57987(17) 0.58362(8)
N1I N 0.3352(2) 0.42013(17) 0.58362(8)
N2L N 0.1176(3) 0.18363(17) 0.12275(8)
N2A N -0.3824(3) 0.68363(17) 0.37725(8)
N2M N -0.1176(3) 0.81637(17) 0.12275(8)
N3L N 0.3197(2) 0.06863(16) 0.17341(8)
N3A N -0.1803(2) 0.56863(16) 0.32659(8)
N3M N -0.3197(2) 0.93137(16) 0.17341(8)
N3F N -0.1803(2) 0.43137(16) 0.17341(8)
N3G N 0.1803(2) 0.56863(16) 0.17341(8)
N4L N 0.2000(2) 0.26235(16) 0.22664(8)
N4A N -0.3000(2) 0.76235(16) 0.27336(8)
N4M N -0.2000(2) 0.73765(16) 0.22664(8)
C1L C 0.2140(3) 0.17172(18) 0.17521(9)
C1A C -0.2860(3) 0.67172(18) 0.32479(9)
C1M C -0.2140(3) 0.82828(18) 0.17521(9)
C2L C 0.2830(3) 0.01514(19) 0.11560(9)
C2A C -0.2170(3) 0.51514(19) 0.38440(9)
C2M C -0.2830(3) 0.98486(19) 0.11560(9)
H1L H 0.3350 -0.0598 0.0995
H1A H -0.1650 0.4402 0.4005
H1M H -0.3350 1.0598 0.0995
O1A O 0.6397(5) 0.2966(3) 0.5000
H2I H 0.4013 0.7511 0.5280
H2A H 0.5987 0.2489 0.4720
H2H H 0.5987 0.2489 0.5280
loop_
_geom_bond_atom_site_label_1
_geom_bond_atom_site_label_2
_geom_bond_site_symmetry_1
_geom_bond_site_symmetry_2
Cd1 N3 1_555 1_555
Cd2 N1 1_555 1_555
N1 N2 1_555 1_555
N2 C1 1_555 1_555
N3 C1 1_555 1_555
N4 C1 1_555 1_555
C2 N1 1_555 1_555
H1 C2 1_555 1_555
O1 Cd2 1_555 1_555
H2 O1 1_555 1_555
Cd1J N3L 1_555 1_555
Cd1J_2 N3M 1_555 1_555
Cd2D N1L 1_555 1_555
Cd2_2 N1A 1_555 1_555
Cd2D_2 N1M 1_555 1_555
N1L N2L 1_555 1_555
N1A N2A 1_555 1_555
N1M N2M 1_555 1_555
N1A_2 Cd2 1_555 1_555
N1H Cd2 1_555 1_555
N1I Cd2 1_555 1_555
N2L C1L 1_555 1_555
N2A C1A 1_555 1_555
N2M C1M 1_555 1_555
N3L C1L 1_555 1_555
N3A Cd1 1_555 1_555
N3M C1M 1_555 1_555
N3F Cd1 1_555 1_555
N3G Cd1 1_555 1_555
N4L N4 1_555 1_555
N4A N4M 1_555 1_555
N4M C1M 1_555 1_555
C1L N4L 1_555 1_555
C1A N3A 1_555 1_555
C2L N1L 1_555 1_555
C2A N1A 1_555 1_555
C2M N1M 1_555 1_555
H1L C2L 1_555 1_555
H1A C2A 1_555 1_555
H1M C2M 1_555 1_555
O1A Cd2 1_555 1_555
H2I O1 1_555 1_555
H2A O1A 1_555 1_555
H2H O1A 1_555 1_555
N3 C2 1_555 1_555
N3L C2L 1_555 1_555
N3A C2A 1_555 1_555
N3M C2M 1_555 1_555
N4A C1A 1_555 1_555

#END
