
#######################################################################
#
#                 Cambridge Crystallographic Data Centre
#                                CCDC 
#
#######################################################################
#
# If this CIF has been generated from an entry in the Cambridge 
# Structural Database, then it will include bibliographic, chemical, 
# crystal, experimental, refinement or atomic coordinate data resulting 
# from the CCDC's data processing and validation procedures.
#
#######################################################################

data_HUSGEI
_symmetry_cell_setting           triclinic
_symmetry_space_group_name_H-M   'P -1'
_symmetry_Int_Tables_number      2
_space_group_name_Hall           '-P 1'
loop_
_symmetry_equiv_pos_site_id
_symmetry_equiv_pos_as_xyz
1 x,y,z
2 -x,-y,-z
_cell_length_a                   6.6021(3)
_cell_length_b                   6.6711(5)
_cell_length_c                   9.6337(3)
_cell_angle_alpha                70.08(3)
_cell_angle_beta                 71.84(2)
_cell_angle_gamma                87.15(3)
_cell_volume                     378.286
loop_
_atom_site_label
_atom_site_type_symbol
_atom_site_fract_x
_atom_site_fract_y
_atom_site_fract_z
Ag1 Ag 0.61511(7) 0.89496(7) 0.75589(5)
Cd1 Cd 0.5000 1.5000 0.5000
N1 N 0.7254(7) 1.2432(7) 0.4265(5)
N2 N 0.7278(7) 1.0301(7) 0.5122(5)
N3 N 0.8827(8) 1.0693(7) 0.2621(5)
N4 N 0.8373(7) 0.7150(7) 0.4495(5)
H1 H 0.7884 0.6325 0.5449
H2 H 0.8979 0.6619 0.3781
N5 N 0.2943(9) 1.6717(9) 0.0872(7)
N6 N 0.4988(7) 1.7499(7) -0.0002(5)
N7 N 0.4654(7) 1.6494(7) 0.2503(5)
N8 N 0.8077(7) 1.7898(8) 0.0714(6)
H3 H 0.8624 1.7706 0.1447
H4 H 0.8858 1.8442 -0.0242
C1 C 0.8181(8) 0.9349(8) 0.4107(6)
C2 C 0.8177(9) 1.2570(9) 0.2806(6)
H5 H 0.8367 1.3847 0.1976
C3 C 0.5962(8) 1.7338(8) 0.1066(6)
C4 C 0.2685(8) 1.6083(8) 0.2375(6)
H6 H 0.1440 1.5484 0.3185
Ag1A Ag 0.38489(7) 2.10504(7) 0.24411(5)
Ag1_2 Ag 0.61511(7) 1.89496(7) -0.24411(5)
Ag1A_2 Ag 0.38489(7) 1.10504(7) 1.24411(5)
Cd1_2 Cd 0.5000 0.5000 0.5000
Cd1_3 Cd 0.5000 2.5000 0.5000
N1A N 0.2746(7) 1.7568(7) 0.5735(5)
N2A N 0.2722(7) 1.9699(7) 0.4878(5)
N3A N 0.1173(8) 1.9307(7) 0.7379(5)
N4A N 0.1627(7) 2.2850(7) 0.5505(5)
N4_2 N 0.8373(7) 1.7150(7) 0.4495(5)
N4A_2 N 0.1627(7) 1.2850(7) 0.5505(5)
H1A H 0.2116 2.3675 0.4551
H1_2 H 0.7884 1.6325 0.5449
H1A_2 H 0.2116 1.3675 0.4551
H2A H 0.1021 2.3381 0.6219
H2_2 H 0.8979 1.6619 0.3781
H2A_2 H 0.1021 1.3381 0.6219
N5A N 0.7057(9) 1.3283(9) 0.9128(7)
N6A N 0.5012(7) 1.2501(7) 1.0002(5)
N6_2 N 0.4988(7) 0.7499(7) 0.9998(5)
N6A_2 N 0.5012(7) 2.2501(7) 0.0002(5)
N7A N 0.5346(7) 1.3506(7) 0.7497(5)
N8A N 0.1923(7) 1.2102(8) 0.9286(6)
H3A H 0.1376 1.2294 0.8553
H4A H 0.1142 1.1558 1.0242
C1A C 0.1819(8) 2.0651(8) 0.5893(6)
C2A C 0.1823(9) 1.7430(9) 0.7194(6)
H5A H 0.1633 1.6153 0.8024
C3A C 0.4038(8) 1.2662(8) 0.8934(6)
C4A C 0.7315(8) 1.3917(8) 0.7625(6)
H6A H 0.8560 1.4516 0.6815
loop_
_geom_bond_atom_site_label_1
_geom_bond_atom_site_label_2
_geom_bond_site_symmetry_1
_geom_bond_site_symmetry_2
Ag1 N2 1_555 1_555
Cd1 N1 1_555 1_555
N1 N2 1_555 1_555
N2 C1 1_555 1_555
N3 C1 1_555 1_555
N4 H1 1_555 1_555
H2 N4 1_555 1_555
N5 N6 1_555 1_555
N6 C3 1_555 1_555
N7 Cd1 1_555 1_555
N8 H3 1_555 1_555
H4 N8 1_555 1_555
C1 N4 1_555 1_555
C2 N1 1_555 1_555
H5 C2 1_555 1_555
C3 N7 1_555 1_555
C4 N5 1_555 1_555
H6 C4 1_555 1_555
Ag1A N2A 1_555 1_555
Ag1_2 N6 1_555 1_555
Ag1A_2 N6A 1_555 1_555
Cd1_2 N4 1_555 1_555
Cd1_3 N4A 1_555 1_555
N1A Cd1 1_555 1_555
N2A N1A 1_555 1_555
N3A C1A 1_555 1_555
N4A H1A 1_555 1_555
N4_2 Cd1 1_555 1_555
N4A_2 Cd1 1_555 1_555
H1_2 N4_2 1_555 1_555
H1A_2 N4A_2 1_555 1_555
H2A N4A 1_555 1_555
H2_2 N4_2 1_555 1_555
H2A_2 N4A_2 1_555 1_555
N5A N6A 1_555 1_555
N6A C3A 1_555 1_555
N6_2 Ag1 1_555 1_555
N6A_2 Ag1A 1_555 1_555
N7A Cd1 1_555 1_555
N8A H3A 1_555 1_555
H4A N8A 1_555 1_555
C1A N2A 1_555 1_555
C2A N1A 1_555 1_555
H5A C2A 1_555 1_555
C3A N7A 1_555 1_555
C4A N5A 1_555 1_555
H6A C4A 1_555 1_555
N3 C2 1_555 1_555
N7 C4 1_555 1_555
N8 C3 1_555 1_555
N3A C2A 1_555 1_555
N4A C1A 1_555 1_555
N7A C4A 1_555 1_555
N8A C3A 1_555 1_555

#END
