
#######################################################################
#
#                 Cambridge Crystallographic Data Centre
#                                CCDC 
#
#######################################################################
#
# If this CIF has been generated from an entry in the Cambridge 
# Structural Database, then it will include bibliographic, chemical, 
# crystal, experimental, refinement or atomic coordinate data resulting 
# from the CCDC's data processing and validation procedures.
#
#######################################################################

data_HUSHUY
_symmetry_cell_setting           monoclinic
_symmetry_space_group_name_H-M   'C 2/m'
_symmetry_Int_Tables_number      12
_space_group_name_Hall           '-C 2y'
loop_
_symmetry_equiv_pos_site_id
_symmetry_equiv_pos_as_xyz
1 x,y,z
2 1/2+x,1/2+y,z
3 x,-y,z
4 1/2+x,1/2-y,z
5 -x,-y,-z
6 1/2-x,1/2-y,-z
7 -x,y,-z
8 1/2-x,1/2+y,-z
_cell_length_a                   9.674(3)
_cell_length_b                   16.940(4)
_cell_length_c                   6.1570(10)
_cell_angle_alpha                90
_cell_angle_beta                 101.60(2)
_cell_angle_gamma                90
_cell_volume                     988.386
loop_
_atom_site_label
_atom_site_type_symbol
_atom_site_fract_x
_atom_site_fract_y
_atom_site_fract_z
Fe1 Fe 0.5000 0.67191(4) 0.0000
O1 O 0.3396(3) 0.68065(16) 0.1837(4)
O2 O 0.1387(3) 0.74500(16) 0.1902(4)
N1 N 0.4165(3) 0.57003(16) -0.2039(5)
C1 C 0.4542(5) 0.5000 -0.1122(8)
C2 C 0.2437(4) 0.7283(2) 0.1087(6)
C3 C 0.3360(4) 0.5695(2) -0.4090(6)
H1 H 0.3079 0.6173 -0.4787
C4 C 0.2943(6) 0.5000 -0.5184(10)
H2 H 0.2399 0.5000 -0.6613
C2E C 0.2563(4) 0.7717(2) -0.1087(6)
O1E O 0.1604(3) 0.81935(16) -0.1837(4)
O2E O 0.3613(3) 0.75500(16) -0.1902(4)
N1B N 0.4165(3) 0.42997(16) -0.2039(5)
C3B C 0.3360(4) 0.4305(2) -0.4090(6)
H1B H 0.3079 0.3827 -0.4787
C1D C 0.5458(5) 0.5000 0.1122(8)
N1D N 0.5835(3) 0.42997(16) 0.2039(5)
C3D C 0.6640(4) 0.4305(2) 0.4090(6)
H1D H 0.6921 0.3827 0.4787
C4D C 0.7057(6) 0.5000 0.5184(10)
C3F C 0.6640(4) 0.5695(2) 0.4090(6)
N1F N 0.5835(3) 0.57003(16) 0.2039(5)
H1F H 0.6921 0.6173 0.4787
H2D H 0.7601 0.5000 0.6613
O1F O 0.6604(3) 0.68065(16) -0.1837(4)
O2F O 0.8613(3) 0.74500(16) -0.1902(4)
C2F C 0.7563(4) 0.7283(2) -0.1087(6)
C2C C 0.7437(4) 0.7717(2) 0.1087(6)
O1C O 0.8396(3) 0.81935(16) 0.1837(4)
O2C O 0.6387(3) 0.75500(16) 0.1902(4)
Fe1E Fe 0.0000 0.82809(4) 0.0000
Fe1B Fe 0.5000 0.32809(4) 0.0000
Fe1C Fe 1.0000 0.82809(4) 0.0000
O1C_2 O -0.1604(3) 0.81935(16) 0.1837(4)
O2F_2 O -0.1387(3) 0.74500(16) -0.1902(4)
N1C N -0.0835(3) 0.92997(16) -0.2039(5)
N1E N 0.0835(3) 0.92997(16) 0.2039(5)
O3 O 1.0000 0.3388(7) 0.5000
O4? O 0.9153(15) 0.4530(10) 0.149(2)
O5? O 0.9586(14) 0.6199(10) 0.284(3)
loop_
_geom_bond_atom_site_label_1
_geom_bond_atom_site_label_2
_geom_bond_site_symmetry_1
_geom_bond_site_symmetry_2
Fe1 O1 1_555 1_555
O1 C2 1_555 1_555
O2 C2 1_555 1_555
N1 Fe1 1_555 1_555
C1 N1 1_555 1_555
C2 C2E 1_555 1_555
C3 N1 1_555 1_555
H1 C3 1_555 1_555
C4 C3 1_555 1_555
H2 C4 1_555 1_555
C2E O1E 1_555 1_555
O1E Fe1E 1_555 1_555
O2E Fe1 1_555 1_555
N1B C1 1_555 1_555
C3B C4 1_555 1_555
H1B C3B 1_555 1_555
C1D C1 1_555 1_555
N1D C1D 1_555 1_555
C3D N1D 1_555 1_555
H1D C3D 1_555 1_555
C4D C3D 1_555 1_555
C3F C4D 1_555 1_555
N1F Fe1 1_555 1_555
H1F C3F 1_555 1_555
H2D C4D 1_555 1_555
O1F Fe1 1_555 1_555
O2F C2F 1_555 1_555
C2F O1F 1_555 1_555
C2C C2F 1_555 1_555
O1C C2C 1_555 1_555
O2C Fe1 1_555 1_555
Fe1E O2 1_555 1_555
Fe1B N1B 1_555 1_555
Fe1C O2F 1_555 1_555
O1C_2 Fe1E 1_555 1_555
O2F_2 Fe1E 1_555 1_555
N1C Fe1E 1_555 1_555
N1E Fe1E 1_555 1_555
C2E O2E 1_555 1_555
N1B C3B 1_555 1_555
C1D N1F 1_555 1_555
N1D Fe1B 1_555 1_555
C3F N1F 1_555 1_555
C2C O2C 1_555 1_555
O1C Fe1C 1_555 1_555

#END
