
#######################################################################
#
#                 Cambridge Crystallographic Data Centre
#                                CCDC 
#
#######################################################################
#
# If this CIF has been generated from an entry in the Cambridge 
# Structural Database, then it will include bibliographic, chemical, 
# crystal, experimental, refinement or atomic coordinate data resulting 
# from the CCDC's data processing and validation procedures.
#
#######################################################################

data_HUSHAE
_symmetry_cell_setting           monoclinic
_symmetry_space_group_name_H-M   'C 2/c'
_symmetry_Int_Tables_number      15
_space_group_name_Hall           '-C 2yn'
loop_
_symmetry_equiv_pos_site_id
_symmetry_equiv_pos_as_xyz
1 x,y,z
2 x,-y,1/2+z
3 1/2+x,1/2+y,z
4 1/2+x,1/2-y,1/2+z
5 -x,-y,-z
6 -x,y,1/2-z
7 1/2-x,1/2-y,-z
8 1/2-x,1/2+y,1/2-z
_cell_length_a                   14.542(2)
_cell_length_b                   12.608(2)
_cell_length_c                   12.126(2)
_cell_angle_alpha                90
_cell_angle_beta                 103.460(10)
_cell_angle_gamma                90
_cell_volume                     2162.18
loop_
_atom_site_label
_atom_site_type_symbol
_atom_site_fract_x
_atom_site_fract_y
_atom_site_fract_z
W1 W 1.0000 0.266616(19) 1.2500
Mn1 Mn 0.76237(5) 0.48885(5) 1.44396(6)
N1 N 0.6955(3) 0.3273(3) 1.3773(3)
C1 C 0.6430(4) 0.3107(4) 1.2731(5)
H1 H 0.6264 0.3681 1.2243
C2 C 0.6127(4) 0.2104(4) 1.2358(5)
H2 H 0.5773 0.1990 1.1624
C3 C 0.6365(4) 0.1291(4) 1.3105(5)
H3 H 0.6147 0.0614 1.2877
N2 N 0.6900(3) 0.1424(3) 1.4152(3)
C4 C 0.7187(3) 0.2421(4) 1.4435(4)
O1 O 0.6522(3) 0.5128(3) 1.5423(3)
H4 H 0.614(3) 0.453(3) 1.550(6)
H5 H 0.603(3) 0.564(3) 1.514(6)
N3 N 0.8730(3) 0.4321(3) 1.3640(4)
C5 C 0.9169(3) 0.3751(4) 1.3229(4)
N4 N 1.1722(3) 0.0897(3) 1.3154(4)
C6 C 1.1133(3) 0.1515(4) 1.2878(4)
N5 N 0.8478(3) 0.3931(3) 1.0477(4)
C7 C 0.8982(3) 0.3469(4) 1.1161(4)
C8 C 1.0108(3) 0.1962(4) 1.0901(4)
N6 N 1.0147(3) 0.1597(4) 1.0045(4)
C4F C 0.7813(3) 0.2579(4) 1.5565(4)
N1F N 0.8045(3) 0.1727(3) 1.6227(3)
C1F C 0.8570(4) 0.1893(4) 1.7269(5)
H1F H 0.8736 0.1319 1.7757
C2F C 0.8873(4) 0.2896(4) 1.7642(5)
H2F H 0.9227 0.3010 1.8376
C3F C 0.8635(4) 0.3709(4) 1.6895(5)
H3F H 0.8853 0.4386 1.7123
N2F N 0.8100(3) 0.3576(3) 1.5848(3)
N3E N 1.1270(3) 0.4321(3) 1.1360(4)
C5E C 1.0831(3) 0.3751(4) 1.1771(4)
N4E N 0.8278(3) 0.0897(3) 1.1846(4)
C6E C 0.8867(3) 0.1515(4) 1.2122(4)
N5E N 1.1522(3) 0.3931(3) 1.4523(4)
C7E C 1.1018(3) 0.3469(4) 1.3839(4)
C8E C 0.9892(3) 0.1962(4) 1.4099(4)
N6E N 0.9853(3) 0.1597(4) 1.4955(4)
Mn1E Mn 1.23763(5) 0.48885(5) 1.05604(6)
O1E O 1.3478(3) 0.5128(3) 0.9577(3)
H4E H 1.386(3) 0.453(3) 0.950(6)
H5E H 1.397(3) 0.564(3) 0.986(6)
N4B N 0.6722(3) 0.5897(3) 1.3154(4)
N5A N 0.8478(3) 0.6069(3) 1.5477(4)
Mn1F Mn 0.73763(5) 0.01115(5) 1.55604(6)
Mn1B Mn 1.26237(5) -0.01115(5) 1.44396(6)
Mn1A Mn 0.76237(5) 0.51115(5) 0.94396(6)
Mn1G Mn 0.73763(5) -0.01115(5) 1.05604(6)
Mn1D Mn 1.23763(5) 0.51115(5) 1.55604(6)
N1E N 1.3045(3) 0.3273(3) 1.1227(3)
N2C N 1.1900(3) 0.3576(3) 0.9152(3)
N4G N 1.3278(3) 0.5897(3) 1.1846(4)
N5D N 1.1522(3) 0.6069(3) 0.9523(4)
loop_
_geom_bond_atom_site_label_1
_geom_bond_atom_site_label_2
_geom_bond_site_symmetry_1
_geom_bond_site_symmetry_2
W1 C5 1_555 1_555
Mn1 N1 1_555 1_555
N1 C1 1_555 1_555
C1 H1 1_555 1_555
C2 C1 1_555 1_555
H2 C2 1_555 1_555
C3 C2 1_555 1_555
H3 C3 1_555 1_555
N2 C3 1_555 1_555
C4 N1 1_555 1_555
O1 Mn1 1_555 1_555
H4 O1 1_555 1_555
H5 O1 1_555 1_555
N3 Mn1 1_555 1_555
C5 N3 1_555 1_555
N4 C6 1_555 1_555
C6 W1 1_555 1_555
N5 C7 1_555 1_555
C7 W1 1_555 1_555
C8 W1 1_555 1_555
N6 C8 1_555 1_555
C4F C4 1_555 1_555
N1F C4F 1_555 1_555
C1F N1F 1_555 1_555
H1F C1F 1_555 1_555
C2F C1F 1_555 1_555
H2F C2F 1_555 1_555
C3F C2F 1_555 1_555
H3F C3F 1_555 1_555
N2F Mn1 1_555 1_555
N3E C5E 1_555 1_555
C5E W1 1_555 1_555
N4E C6E 1_555 1_555
C6E W1 1_555 1_555
N5E C7E 1_555 1_555
C7E W1 1_555 1_555
C8E W1 1_555 1_555
N6E C8E 1_555 1_555
Mn1E N3E 1_555 1_555
O1E Mn1E 1_555 1_555
H4E O1E 1_555 1_555
H5E O1E 1_555 1_555
N4B Mn1 1_555 1_555
N5A Mn1 1_555 1_555
Mn1F N2 1_555 1_555
Mn1B N4 1_555 1_555
Mn1A N5 1_555 1_555
Mn1G N4E 1_555 1_555
Mn1D N5E 1_555 1_555
N1E Mn1E 1_555 1_555
N2C Mn1E 1_555 1_555
N4G Mn1E 1_555 1_555
N5D Mn1E 1_555 1_555
N2 C4 1_555 1_555
C4F N2F 1_555 1_555
N1F Mn1F 1_555 1_555
C3F N2F 1_555 1_555

#END
