
#######################################################################
#
#                 Cambridge Crystallographic Data Centre
#                                CCDC 
#
#######################################################################
#
# If this CIF has been generated from an entry in the Cambridge 
# Structural Database, then it will include bibliographic, chemical, 
# crystal, experimental, refinement or atomic coordinate data resulting 
# from the CCDC's data processing and validation procedures.
#
#######################################################################

data_HUSJUB
_symmetry_cell_setting           triclinic
_symmetry_space_group_name_H-M   'P -1'
_symmetry_Int_Tables_number      2
_space_group_name_Hall           '-P 1'
loop_
_symmetry_equiv_pos_site_id
_symmetry_equiv_pos_as_xyz
1 x,y,z
2 -x,-y,-z
_cell_length_a                   8.5387(2)
_cell_length_b                   9.2448(3)
_cell_length_c                   10.4427(3)
_cell_angle_alpha                111.759(2)
_cell_angle_beta                 96.228(2)
_cell_angle_gamma                100.746(2)
_cell_volume                     737.787
loop_
_atom_site_label
_atom_site_type_symbol
_atom_site_fract_x
_atom_site_fract_y
_atom_site_fract_z
C1 C 1.2397(6) 1.7262(6) 0.1632(5)
C2 C 1.3919(6) 1.8597(6) 0.2505(6)
C3 C 1.4888(7) 1.9221(7) 0.1595(7)
C4 C 1.4987(8) 1.8118(9) 0.3452(6)
C5 C 1.5829(7) 1.8043(7) 0.0794(6)
C6 C 1.5886(7) 1.6917(8) 0.2638(6)
C7 C 1.6905(6) 1.7599(6) 0.1781(5)
C8 C 1.7990(6) 1.6547(6) 0.1076(5)
C9 C 1.0518(8) 1.1876(8) 0.2111(7)
C10 C 0.9083(8) 1.3483(8) 0.3401(6)
C11 C 1.0527(8) 1.1013(8) 0.2944(7)
C12 C 0.9052(9) 1.2713(7) 0.4319(6)
C13 C 0.9807(6) 1.1468(6) 0.4120(5)
C14 C 0.9771(7) 1.0667(7) 0.5091(6)
N1 N 0.9837(5) 1.3108(5) 0.2319(4)
O1 O 1.1824(4) 1.6269(5) 0.2112(4)
O2 O 1.1802(4) 1.7261(5) 0.0500(4)
O3 O 1.8468(5) 1.5701(5) 0.1656(4)
O4 O 1.8422(5) 1.6677(5) 0.0015(4)
Cu1 Cu 1.00029(7) 1.43909(7) 0.09563(6)
H3 H 1.364(6) 1.939(6) 0.317(5)
H4 H 1.566(5) 2.024(6) 0.222(5)
H5 H 1.425(7) 1.960(7) 0.090(6)
H6 H 1.580(8) 1.911(8) 0.414(8)
H7 H 1.439(6) 1.793(6) 0.398(5)
H8 H 1.652(7) 1.845(7) 0.017(6)
H9 H 1.513(6) 1.710(6) 0.016(5)
H10 H 1.661(6) 1.690(6) 0.323(5)
H11 H 1.511(6) 1.594(6) 0.200(5)
H12 H 1.778(6) 1.862(6) 0.257(6)
H13 H 1.097(6) 1.147(6) 0.125(6)
H14 H 0.898(8) 1.461(8) 0.362(7)
H15 H 1.075(8) 0.971(9) 0.266(7)
H16 H 0.877(7) 1.312(7) 0.524(7)
H17 H 0.939(5) 1.110(6) 0.587(5)
C1A C 0.7603(6) 1.2738(6) -0.1632(5)
C2A C 0.6081(6) 1.1403(6) -0.2505(6)
C3A C 0.5112(7) 1.0779(7) -0.1595(7)
C4A C 0.5013(8) 1.1882(9) -0.3452(6)
C5A C 0.4171(7) 1.1957(7) -0.0794(6)
C6A C 0.4114(7) 1.3083(8) -0.2638(6)
C7A C 0.3095(6) 1.2401(6) -0.1781(5)
C8A C 0.2010(6) 1.3453(6) -0.1076(5)
C9A C 0.9482(8) 0.8124(8) 0.7889(7)
C10A C 1.0917(8) 0.6517(8) 0.6599(6)
C11A C 0.9473(8) 0.8987(8) 0.7056(7)
C12A C 1.0948(9) 0.7287(7) 0.5681(6)
C13A C 1.0193(6) 0.8532(6) 0.5880(5)
C14A C 1.0229(7) 0.9333(7) 0.4909(6)
N1A N 1.0163(5) 0.6892(5) 0.7681(4)
O1A O 0.8176(4) 1.3731(5) -0.2112(4)
O1A_2 O 0.8176(4) 0.3731(5) 0.7888(4)
O2A O 0.8198(4) 1.2739(5) -0.0500(4)
O2_2 O 1.1802(4) 0.7261(5) 1.0500(4)
O3A O 0.1532(5) 1.4299(5) -0.1656(4)
O3_2 O 0.8468(5) 1.5701(5) 0.1656(4)
O3A_2 O 1.1532(5) 0.4299(5) 0.8344(4)
O4A O 0.1578(5) 1.3323(5) -0.0015(4)
O4A_2 O 1.1578(5) 1.3323(5) -0.0015(4)
O4_2 O 0.8422(5) 0.6677(5) 1.0015(4)
Cu1A Cu 0.99971(7) 0.56091(7) 0.90437(6)
Cu1A_2 Cu 0.99971(7) 1.56091(7) -0.09563(6)
Cu1_2 Cu 2.00029(7) 1.43909(7) 0.09563(6)
Cu1A_3 Cu 1.99971(7) 1.56091(7) -0.09563(6)
Cu1A_4 Cu -0.00029(7) 1.56091(7) -0.09563(6)
Cu1_3 Cu 0.00029(7) 1.43909(7) 0.09563(6)
H3A H 0.636(6) 1.061(6) -0.317(5)
H4A H 0.434(5) 0.976(6) -0.222(5)
H5A H 0.575(7) 1.040(7) -0.090(6)
H6A H 0.420(8) 1.089(8) -0.414(8)
H7A H 0.561(6) 1.207(6) -0.398(5)
H8A H 0.348(7) 1.155(7) -0.017(6)
H9A H 0.487(6) 1.290(6) -0.016(5)
H10A H 0.339(6) 1.310(6) -0.323(5)
H11A H 0.489(6) 1.406(6) -0.200(5)
H12A H 0.222(6) 1.138(6) -0.257(6)
H13A H 0.903(6) 0.853(6) 0.875(6)
H14A H 1.102(8) 0.539(8) 0.638(7)
H15A H 0.925(8) 1.029(9) 0.734(7)
H16A H 1.123(7) 0.688(7) 0.476(7)
H17A H 1.061(5) 0.890(6) 0.413(5)
O5 O 0.441(2) 0.4339(19) 0.4289(17)
H1 H 0.3385 0.3759 0.4258
H2 H 0.4906 0.3629 0.3654
loop_
_geom_bond_atom_site_label_1
_geom_bond_atom_site_label_2
_geom_bond_site_symmetry_1
_geom_bond_site_symmetry_2
C1 C2 1_555 1_555
C2 C3 1_555 1_555
C3 C5 1_555 1_555
C4 C2 1_555 1_555
C5 C7 1_555 1_555
C6 C4 1_555 1_555
C7 C6 1_555 1_555
C8 C7 1_555 1_555
C9 C11 1_555 1_555
C10 C12 1_555 1_555
C11 C13 1_555 1_555
C12 C13 1_555 1_555
C13 C14 1_555 1_555
C14 H17 1_555 1_555
N1 C9 1_555 1_555
O1 C1 1_555 1_555
O2 C1 1_555 1_555
O3 C8 1_555 1_555
O4 C8 1_555 1_555
O5 H1 1_555 1_555
H2 O5 1_555 1_555
Cu1 N1 1_555 1_555
H3 C2 1_555 1_555
H4 C3 1_555 1_555
H5 C3 1_555 1_555
H6 C4 1_555 1_555
H7 C4 1_555 1_555
H8 C5 1_555 1_555
H9 C5 1_555 1_555
H10 C6 1_555 1_555
H11 C6 1_555 1_555
H12 C7 1_555 1_555
H13 C9 1_555 1_555
H14 C10 1_555 1_555
H15 C11 1_555 1_555
H16 C12 1_555 1_555
C1A C2A 1_555 1_555
C2A C3A 1_555 1_555
C3A C5A 1_555 1_555
C4A C2A 1_555 1_555
C5A C7A 1_555 1_555
C6A C4A 1_555 1_555
C7A C6A 1_555 1_555
C8A C7A 1_555 1_555
C9A C11A 1_555 1_555
C10A C12A 1_555 1_555
C11A C13A 1_555 1_555
C12A C13A 1_555 1_555
C13A C14A 1_555 1_555
C14A C14 1_555 1_555
N1A C9A 1_555 1_555
O1A C1A 1_555 1_555
O1A_2 Cu1A 1_555 1_555
O2A Cu1 1_555 1_555
O2_2 Cu1A 1_555 1_555
O3A C8A 1_555 1_555
O3_2 Cu1 1_555 1_555
O3A_2 Cu1A 1_555 1_555
O4A C8A 1_555 1_555
O4A_2 Cu1 1_555 1_555
O4_2 Cu1A 1_555 1_555
Cu1A N1A 1_555 1_555
Cu1A_2 O2 1_555 1_555
Cu1_2 O3 1_555 1_555
Cu1A_3 O4 1_555 1_555
Cu1A_4 O3A 1_555 1_555
Cu1_3 O4A 1_555 1_555
H3A C2A 1_555 1_555
H4A C3A 1_555 1_555
H5A C3A 1_555 1_555
H6A C4A 1_555 1_555
H7A C4A 1_555 1_555
H8A C5A 1_555 1_555
H9A C5A 1_555 1_555
H10A C6A 1_555 1_555
H11A C6A 1_555 1_555
H12A C7A 1_555 1_555
H13A C9A 1_555 1_555
H14A C10A 1_555 1_555
H15A C11A 1_555 1_555
H16A C12A 1_555 1_555
H17A C14A 1_555 1_555
C10 N1 1_555 1_555
O1 Cu1 1_555 1_555
C1A O2A 1_555 1_555
C10A N1A 1_555 1_555
O1A Cu1A_2 1_555 1_555

#END
