
#######################################################################
#
#                 Cambridge Crystallographic Data Centre
#                                CCDC 
#
#######################################################################
#
# If this CIF has been generated from an entry in the Cambridge 
# Structural Database, then it will include bibliographic, chemical, 
# crystal, experimental, refinement or atomic coordinate data resulting 
# from the CCDC's data processing and validation procedures.
#
#######################################################################

data_HUSPUH
_symmetry_cell_setting           orthorhombic
_symmetry_space_group_name_H-M   'P 21 21 21'
_symmetry_Int_Tables_number      19
_space_group_name_Hall           'P 2ac 2ab'
loop_
_symmetry_equiv_pos_site_id
_symmetry_equiv_pos_as_xyz
1 x,y,z
2 1/2-x,-y,1/2+z
3 -x,1/2+y,1/2-z
4 1/2+x,1/2-y,-z
_cell_length_a                   9.4050(4)
_cell_length_b                   11.7467(5)
_cell_length_c                   11.9594(5)
_cell_angle_alpha                90
_cell_angle_beta                 90
_cell_angle_gamma                90
_cell_volume                     1321.25
loop_
_atom_site_label
_atom_site_type_symbol
_atom_site_fract_x
_atom_site_fract_y
_atom_site_fract_z
Mo1 Mo 0.37015(4) 1.07414(3) -0.13496(3)
Mo2 Mo 0.37082(4) 1.09371(3) 0.16816(3)
O1 O 0.4197(3) 1.1188(2) 0.0147(2)
O2 O 0.5317(3) 1.0247(3) -0.1774(2)
O3 O 0.3555(4) 1.2043(2) -0.1971(2)
O4 O 0.2490(3) 0.9868(3) -0.2295(2)
O5 O 0.5331(3) 1.0575(3) 0.2204(2)
O6 O 0.3456(4) 1.2302(3) 0.2141(2)
N1 N 0.3361(4) 0.9040(3) -0.0295(3)
N2 N 0.3590(4) 0.9092(3) 0.0838(3)
N3 N 0.3179(4) 0.7332(3) 0.0397(3)
N4 N 0.6512(4) 0.3952(3) -0.0722(3)
N5 N 0.6486(4) 0.3943(3) 0.0427(3)
N6 N 0.4298(3) 0.3946(3) -0.0181(3)
C1 C 0.3112(6) 0.7974(4) -0.0533(4)
H1 H 0.2915 0.7698 -0.1245
C2 C 0.3480(5) 0.8054(4) 0.1222(3)
H2 H 0.3595 0.7848 0.1968
C3 C 0.5190(5) 0.3948(4) -0.1063(4)
H3 H 0.4906 0.3947 -0.1808
C4 C 0.5157(5) 0.3940(4) 0.0736(4)
H4 H 0.4842 0.3935 0.1473
C5 C 0.3051(8) 0.6092(4) 0.0556(4)
H5 H 0.2431 0.5957 0.1190
H6 H 0.3982 0.5796 0.0749
C6 C 0.2496(5) 0.5424(4) -0.0417(4)
H7 H 0.2973 0.5661 -0.1097
H8 H 0.1485 0.5562 -0.0506
C7 C 0.2759(4) 0.4157(4) -0.0211(4)
H9 H 0.2333 0.3930 0.0493
H10 H 0.2327 0.3712 -0.0804
Mo1C Mo 0.87015(4) 0.42586(3) 0.13496(3)
Mo2A Mo 0.12918(4) 0.90629(3) -0.33184(3)
Mo2C Mo 0.87082(4) 0.40629(3) -0.16816(3)
O4A O 0.2510(3) 1.0132(3) 0.2705(2)
N4C N 0.1512(4) 1.1048(3) 0.0722(3)
N5C N 0.1486(4) 1.1057(3) -0.0427(3)
loop_
_geom_bond_atom_site_label_1
_geom_bond_atom_site_label_2
_geom_bond_site_symmetry_1
_geom_bond_site_symmetry_2
Mo1 O1 1_555 1_555
Mo2 O1 1_555 1_555
O2 Mo1 1_555 1_555
O3 Mo1 1_555 1_555
O4 Mo1 1_555 1_555
O5 Mo2 1_555 1_555
O6 Mo2 1_555 1_555
N1 Mo1 1_555 1_555
N2 Mo2 1_555 1_555
N3 C1 1_555 1_555
N4 N5 1_555 1_555
N5 C4 1_555 1_555
N6 C3 1_555 1_555
C1 N1 1_555 1_555
H1 C1 1_555 1_555
C2 N2 1_555 1_555
H2 C2 1_555 1_555
C3 N4 1_555 1_555
H3 C3 1_555 1_555
C4 N6 1_555 1_555
H4 C4 1_555 1_555
C5 N3 1_555 1_555
H5 C5 1_555 1_555
H6 C5 1_555 1_555
C6 C5 1_555 1_555
H7 C6 1_555 1_555
H8 C6 1_555 1_555
C7 N6 1_555 1_555
H9 C7 1_555 1_555
H10 C7 1_555 1_555
Mo1C N5 1_555 1_555
Mo2A O4 1_555 1_555
Mo2C N4 1_555 1_555
O4A Mo2 1_555 1_555
N4C Mo2 1_555 1_555
N5C Mo1 1_555 1_555
N1 N2 1_555 1_555
N3 C2 1_555 1_555
C6 C7 1_555 1_555
N4C N5C 1_555 1_555

#END
