
#######################################################################
#
#                 Cambridge Crystallographic Data Centre
#                                CCDC 
#
#######################################################################
#
# If this CIF has been generated from an entry in the Cambridge 
# Structural Database, then it will include bibliographic, chemical, 
# crystal, experimental, refinement or atomic coordinate data resulting 
# from the CCDC's data processing and validation procedures.
#
#######################################################################

data_HUSPOB
_symmetry_cell_setting           orthorhombic
_symmetry_space_group_name_H-M   'P b c n'
_symmetry_Int_Tables_number      60
_space_group_name_Hall           '-P 2n 2ab'
loop_
_symmetry_equiv_pos_site_id
_symmetry_equiv_pos_as_xyz
1 x,y,z
2 1/2-x,1/2-y,1/2+z
3 1/2+x,1/2-y,-z
4 -x,y,1/2-z
5 -x,-y,-z
6 1/2+x,1/2+y,1/2-z
7 1/2-x,1/2+y,z
8 x,-y,1/2+z
_cell_length_a                   15.2779(16)
_cell_length_b                   12.6491(13)
_cell_length_c                   12.1712(11)
_cell_angle_alpha                90
_cell_angle_beta                 90
_cell_angle_gamma                90
_cell_volume                     2352.1
loop_
_atom_site_label
_atom_site_type_symbol
_atom_site_fract_x
_atom_site_fract_y
_atom_site_fract_z
Mo1 Mo 0.75313(8) 0.62643(6) 0.40570(8)
Mo2 Mo 0.65433(7) 0.74699(8) 0.65596(8)
O1 O 0.6847(5) 0.6635(5) 0.5293(6)
O2 O 0.8186(6) 0.6651(5) 0.2772(6)
O3 O 0.8322(6) 0.5497(6) 0.4657(6)
O4 O 0.6822(6) 0.5399(6) 0.3483(6)
O5 O 0.5791(6) 0.8295(6) 0.5954(6)
O6 O 0.5937(6) 0.6521(6) 0.7177(6)
N1 N 0.8223(7) 0.7789(8) 0.4824(10)
N2 N 0.7849(7) 0.8338(7) 0.5700(8)
N3 N 0.9130(7) 0.9020(7) 0.5353(8)
N4 N 0.6779(7) 0.7720(7) 0.3263(7)
N5 N 0.7127(7) 0.8282(7) 0.2345(8)
N6 N 0.5972(7) 0.9097(7) 0.2837(7)
C1 C 0.8973(9) 0.8235(9) 0.4604(10)
H1 H 0.9347 0.8046 0.4022
C2 C 0.8386(9) 0.9063(9) 0.5971(10)
H2 H 0.8283 0.9564 0.6526
C3 C 0.9952(9) 0.9683(9) 0.5482(9)
H3 H 1.0467 0.9214 0.5579
H4 H 0.9925 1.0105 0.6151
C4 C 0.6077(9) 0.8253(8) 0.3549(9)
H5 H 0.5706 0.8088 0.4140
C5 C 0.6652(9) 0.9074(8) 0.2113(10)
H6 H 0.6753 0.9560 0.1542
C6 C 0.5304(9) 0.9950(8) 0.2959(9)
H7 H 0.5594 1.0627 0.3043
H8 H 0.4985 0.9832 0.3651
Mo1D Mo 1.24687(8) 1.37357(6) 0.59430(8)
Mo1C Mo 0.24687(8) 0.62643(6) 0.09430(8)
Mo1A Mo 0.74687(8) 0.87357(6) 0.90570(8)
Mo2A Mo 0.84567(7) 0.75301(8) 0.15596(8)
Mo2D Mo 1.34567(7) 1.25301(8) 0.34404(8)
Mo2B Mo 0.15433(7) 0.75301(8) 0.34404(8)
O1D O 1.3153(5) 1.3365(5) 0.4707(6)
O1A O 0.8153(5) 0.8365(5) 0.0293(6)
O2A O 0.6814(6) 0.8349(5) 0.7772(6)
O2D O 1.1814(6) 1.3349(5) 0.7228(6)
O3D O 1.1678(6) 1.4503(6) 0.5343(6)
O4D O 1.3178(6) 1.4601(6) 0.6517(6)
O5A O 0.9209(6) 0.6705(6) 0.0954(6)
O6A O 0.9063(6) 0.8479(6) 0.2177(6)
N1D N 1.1777(7) 1.2211(8) 0.5176(10)
N2D N 1.2151(7) 1.1662(7) 0.4300(8)
N2A N 0.7151(7) 0.6662(7) 0.0700(8)
N3D N 1.0870(7) 1.0980(7) 0.4647(8)
N4C N 0.3221(7) 0.7720(7) 0.1737(7)
N4D N 1.3221(7) 1.2280(7) 0.6737(7)
N5C N 0.2873(7) 0.8282(7) 0.2655(8)
N5A N 0.7873(7) 0.6718(7) 0.7345(8)
N6C N 0.4028(7) 0.9097(7) 0.2163(7)
C1D C 1.1027(9) 1.1765(9) 0.5396(10)
H1D H 1.0653 1.1954 0.5978
C2D C 1.1614(9) 1.0937(9) 0.4029(10)
H2D H 1.1717 1.0436 0.3474
C3D C 1.0048(9) 1.0317(9) 0.4518(9)
H3D H 0.9533 1.0786 0.4421
H4D H 1.0075 0.9895 0.3849
C4C C 0.3923(9) 0.8253(8) 0.1451(9)
H5C H 0.4294 0.8088 0.0860
C5C C 0.3348(9) 0.9074(8) 0.2887(10)
H6C H 0.3247 0.9560 0.3458
C6C C 0.4696(9) 0.9950(8) 0.2041(9)
H7C H 0.4406 1.0627 0.1957
H8C H 0.5015 0.9832 0.1349
loop_
_geom_bond_atom_site_label_1
_geom_bond_atom_site_label_2
_geom_bond_site_symmetry_1
_geom_bond_site_symmetry_2
Mo1 O1 1_555 1_555
Mo2 O1 1_555 1_555
O2 Mo1 1_555 1_555
O3 Mo1 1_555 1_555
O4 Mo1 1_555 1_555
O5 Mo2 1_555 1_555
O6 Mo2 1_555 1_555
N1 Mo1 1_555 1_555
N2 Mo2 1_555 1_555
N3 C1 1_555 1_555
N4 Mo1 1_555 1_555
N5 N4 1_555 1_555
N6 C4 1_555 1_555
C1 N1 1_555 1_555
H1 C1 1_555 1_555
C2 N2 1_555 1_555
H2 C2 1_555 1_555
C3 N3 1_555 1_555
H3 C3 1_555 1_555
H4 C3 1_555 1_555
C4 N4 1_555 1_555
H5 C4 1_555 1_555
C5 N5 1_555 1_555
H6 C5 1_555 1_555
C6 N6 1_555 1_555
H7 C6 1_555 1_555
H8 C6 1_555 1_555
Mo1D O1D 1_555 1_555
Mo1C N4C 1_555 1_555
Mo1A O2A 1_555 1_555
Mo2A O2 1_555 1_555
Mo2D O1D 1_555 1_555
Mo2B N5C 1_555 1_555
O1A Mo2A 1_555 1_555
O2A Mo2 1_555 1_555
O2D Mo1D 1_555 1_555
O3D Mo1D 1_555 1_555
O4D Mo1D 1_555 1_555
O5A Mo2A 1_555 1_555
O6A Mo2A 1_555 1_555
N1D Mo1D 1_555 1_555
N2D Mo2D 1_555 1_555
N2A Mo2A 1_555 1_555
N3D C1D 1_555 1_555
N4C N5C 1_555 1_555
N4D Mo1D 1_555 1_555
N5C C5C 1_555 1_555
N5A Mo2 1_555 1_555
N6C C4C 1_555 1_555
C1D N1D 1_555 1_555
H1D C1D 1_555 1_555
C2D N2D 1_555 1_555
H2D C2D 1_555 1_555
C3D C3 1_555 1_555
H3D C3D 1_555 1_555
H4D C3D 1_555 1_555
C4C N4C 1_555 1_555
H5C C4C 1_555 1_555
C5C N6C 1_555 1_555
H6C C5C 1_555 1_555
C6C C6 1_555 1_555
H7C C6C 1_555 1_555
H8C C6C 1_555 1_555
N1 N2 1_555 1_555
N3 C2 1_555 1_555
N5 Mo2A 1_555 1_555
N6 C5 1_555 1_555
N1D N2D 1_555 1_555
N3D C2D 1_555 1_555
N3D C3D 1_555 1_555
N6C C6C 1_555 1_555

#END
