
#######################################################################
#
#                 Cambridge Crystallographic Data Centre
#                                CCDC 
#
#######################################################################
#
# If this CIF has been generated from an entry in the Cambridge 
# Structural Database, then it will include bibliographic, chemical, 
# crystal, experimental, refinement or atomic coordinate data resulting 
# from the CCDC's data processing and validation procedures.
#
#######################################################################

data_HUSQIW
_symmetry_cell_setting           orthorhombic
_symmetry_space_group_name_H-M   'C m m a'
_symmetry_Int_Tables_number      67
_space_group_name_Hall           '-C 2a 2'
loop_
_symmetry_equiv_pos_site_id
_symmetry_equiv_pos_as_xyz
1 x,y,z
2 -x,1/2-y,z
3 -x,1/2+y,-z
4 x,-y,-z
5 1/2+x,1/2+y,z
6 1/2-x,-y,z
7 1/2-x,y,-z
8 1/2+x,1/2-y,-z
9 -x,-y,-z
10 x,1/2+y,-z
11 x,1/2-y,z
12 -x,y,z
13 1/2-x,1/2-y,-z
14 1/2+x,y,-z
15 1/2+x,-y,z
16 1/2-x,1/2+y,z
_cell_length_a                   12.4256(9)
_cell_length_b                   16.6809(16)
_cell_length_c                   10.4993(10)
_cell_angle_alpha                90
_cell_angle_beta                 90
_cell_angle_gamma                90
_cell_volume                     2176.19
loop_
_atom_site_label
_atom_site_type_symbol
_atom_site_fract_x
_atom_site_fract_y
_atom_site_fract_z
Mo1 Mo 0.14763(2) 0.7500 0.36072(2)
O1 O 0.2500 0.7500 0.5000
O2 O 0.0000 0.7500 0.3044(3)
O3 O 0.19444(14) 0.66892(11) 0.27729(17)
N1 N 0.05539(17) 0.83569(12) 0.50615(19)
N2 N 0.0000 0.90011(16) 0.6754(3)
C1 C 0.0869(2) 0.87409(14) 0.6081(2)
H1 H 0.1590 0.8825 0.6316
C2 C 0.0000 0.93904(18) 0.8033(3)
C3 C 0.0000 0.8746(2) 0.9064(4)
H2 H 0.0639 0.8406 0.8975
C4 C 0.0000 0.91539(19) 1.0387(3)
H3 H 0.0000 0.8740 1.1063
C5 C 0.1009(2) 0.99128(16) 0.8152(2)
H4 H 0.1013 1.0323 0.7483
H5 H 0.1656 0.9582 0.8056
C6 C 0.1003(2) 0.96835(15) 1.0519(2)
H6 H 0.1654 0.9346 1.0430
Mo1A Mo -0.14763(2) 0.7500 0.36072(2)
Mo1F Mo 0.35237(2) 0.7500 0.63928(2)
Mo1C Mo 0.14763(2) 1.2500 1.63928(2)
Mo1B Mo -0.14763(2) 1.2500 1.63928(2)
O1A O -0.2500 0.7500 0.5000
O3J O 0.19444(14) 0.83108(11) 0.27729(17)
O3K O -0.19444(14) 0.66892(11) 0.27729(17)
O3A O -0.19444(14) 0.83108(11) 0.27729(17)
N1K N -0.05539(17) 0.83569(12) 0.50615(19)
N1C N 0.05539(17) 1.16431(12) 1.49385(19)
N1H N -0.05539(17) 1.16431(12) 1.49385(19)
N1J N 0.05539(17) 0.66431(12) 0.50615(19)
N1A N -0.05539(17) 0.66431(12) 0.50615(19)
N2C N 0.0000 1.09989(16) 1.3246(3)
C1K C -0.0869(2) 0.87409(14) 0.6081(2)
C1C C 0.0869(2) 1.12591(14) 1.3919(2)
C1H C -0.0869(2) 1.12591(14) 1.3919(2)
H1C H 0.1590 1.1175 1.3684
H1H H -0.1590 1.1175 1.3684
H1K H -0.1590 0.8825 0.6316
C2C C 0.0000 1.06096(18) 1.1967(3)
C3C C 0.0000 1.1254(2) 1.0936(4)
H2K H -0.0639 0.8406 0.8975
H2C H 0.0639 1.1594 1.1025
H2H H -0.0639 1.1594 1.1025
C4C C 0.0000 1.08461(19) 0.9613(3)
H3C H 0.0000 1.1260 0.8937
C5C C 0.1009(2) 1.00872(16) 1.1848(2)
C5K C -0.1009(2) 0.99128(16) 0.8152(2)
C5H C -0.1009(2) 1.00872(16) 1.1848(2)
H4K H -0.1013 1.0323 0.7483
H4H H -0.1013 0.9677 1.2517
H4C H 0.1013 0.9677 1.2517
H5K H -0.1656 0.9582 0.8056
H5H H -0.1656 1.0418 1.1944
H5C H 0.1656 1.0418 1.1944
C6C C 0.1003(2) 1.03165(15) 0.9481(2)
C6H C -0.1003(2) 1.03165(15) 0.9481(2)
C6K C -0.1003(2) 0.96835(15) 1.0519(2)
H6K H -0.1654 0.9346 1.0430
H6H H -0.1654 1.0654 0.9570
H6C H 0.1654 1.0654 0.9570
O4 O -0.2500 0.7500 1.0000
loop_
_geom_bond_atom_site_label_1
_geom_bond_atom_site_label_2
_geom_bond_site_symmetry_1
_geom_bond_site_symmetry_2
Mo1 O1 1_555 1_555
O1 Mo1F 1_555 1_555
O2 Mo1 1_555 1_555
O3 Mo1 1_555 1_555
N1 Mo1 1_555 1_555
N2 C1 1_555 1_555
C1 N1 1_555 1_555
H1 C1 1_555 1_555
C2 N2 1_555 1_555
C3 C2 1_555 1_555
H2 C3 1_555 1_555
C4 C3 1_555 1_555
H3 C4 1_555 1_555
C5 C2 1_555 1_555
H4 C5 1_555 1_555
H5 C5 1_555 1_555
C6 C4 1_555 1_555
H6 C6 1_555 1_555
Mo1A O2 1_555 1_555
Mo1C N1C 1_555 1_555
Mo1B N1H 1_555 1_555
O1A Mo1A 1_555 1_555
O3J Mo1 1_555 1_555
O3K Mo1A 1_555 1_555
O3A Mo1A 1_555 1_555
N1K N1 1_555 1_555
N1C N1H 1_555 1_555
N1H C1H 1_555 1_555
N1J Mo1 1_555 1_555
N1A Mo1A 1_555 1_555
N2C C1C 1_555 1_555
C1K N2 1_555 1_555
C1C N1C 1_555 1_555
C1H N2C 1_555 1_555
H1C C1C 1_555 1_555
H1H C1H 1_555 1_555
H1K C1K 1_555 1_555
C2C N2C 1_555 1_555
C3C C2C 1_555 1_555
H2K C3 1_555 1_555
H2C C3C 1_555 1_555
H2H C3C 1_555 1_555
C4C C3C 1_555 1_555
H3C C4C 1_555 1_555
C5C C6 1_555 1_555
C5K C2 1_555 1_555
C5H C2C 1_555 1_555
H4K C5K 1_555 1_555
H4H C5H 1_555 1_555
H4C C5C 1_555 1_555
H5K C5K 1_555 1_555
H5H C5H 1_555 1_555
H5C C5C 1_555 1_555
C6C C5 1_555 1_555
C6H C4C 1_555 1_555
C6K C4 1_555 1_555
H6K C6K 1_555 1_555
H6H C6H 1_555 1_555
H6C C6C 1_555 1_555
C6 C6C 1_555 1_555
Mo1A N1K 1_555 1_555
N1K C1K 1_555 1_555
N1J N1A 1_555 1_555
C2C C5C 1_555 1_555
C4C C6C 1_555 1_555
C5K C6H 1_555 1_555
C5H C6K 1_555 1_555
C6H C6K 1_555 1_555

#END
