
#######################################################################
#
#                 Cambridge Crystallographic Data Centre
#                                CCDC 
#
#######################################################################
#
# If this CIF has been generated from an entry in the Cambridge 
# Structural Database, then it will include bibliographic, chemical, 
# crystal, experimental, refinement or atomic coordinate data resulting 
# from the CCDC's data processing and validation procedures.
#
#######################################################################

data_HUSQAO
_symmetry_cell_setting           orthorhombic
_symmetry_space_group_name_H-M   'I b c a'
_symmetry_Int_Tables_number      73
_space_group_name_Hall           '-I 2b 2c'
loop_
_symmetry_equiv_pos_site_id
_symmetry_equiv_pos_as_xyz
1 x,y,z
2 1/2-x,-y,1/2+z
3 -x,1/2+y,1/2-z
4 1/2+x,1/2-y,-z
5 1/2+x,1/2+y,1/2+z
6 -x,1/2-y,z
7 1/2-x,y,-z
8 x,-y,1/2-z
9 -x,-y,-z
10 1/2+x,y,1/2-z
11 x,1/2-y,1/2+z
12 1/2-x,1/2+y,z
13 1/2-x,1/2-y,1/2-z
14 x,1/2+y,-z
15 1/2+x,-y,z
16 -x,y,1/2+z
_cell_length_a                   12.0221(7)
_cell_length_b                   13.0629(8)
_cell_length_c                   19.4476(16)
_cell_angle_alpha                90
_cell_angle_beta                 90
_cell_angle_gamma                90
_cell_volume                     3054.12
loop_
_atom_site_label
_atom_site_type_symbol
_atom_site_fract_x
_atom_site_fract_y
_atom_site_fract_z
Mo1 Mo 0.2500 0.12518(5) 0.5000
Mo2 Mo 0.0000 0.2500 0.57802(3)
O1 O 0.1891(4) 0.0457(3) 0.4408(2)
O2 O 0.1216(3) 0.1610(3) 0.55470(17)
O3 O -0.0668(4) 0.1671(4) 0.6321(2)
N1 N 0.3312(4) 0.2699(3) 0.5537(2)
N2 N 0.4152(4) 0.3240(3) 0.5227(2)
N3 N 0.3758(4) 0.3970(3) 0.6208(2)
C1 C 0.3091(5) 0.3144(4) 0.6122(3)
H1 H 0.2548 0.2924 0.6437
C2 C 0.4399(5) 0.4002(4) 0.5634(2)
H2 H 0.4943 0.4501 0.5543
C3 C 0.3768(5) 0.4715(4) 0.6782(3)
H3 H 0.3763 0.5414 0.6585
C4 C 0.2739(6) 0.4587(8) 0.7216(4)
H4 H 0.2732 0.3904 0.7424
H5 H 0.2074 0.4658 0.6929
C5 C 0.4792(5) 0.4600(6) 0.7210(3)
H6 H 0.5453 0.4691 0.6921
H7 H 0.4817 0.3910 0.7408
Mo1A Mo 0.2500 0.87482(5) 1.0000
Mo2C Mo 0.5000 0.2500 0.42198(3)
Mo2A Mo 0.5000 0.7500 1.07802(3)
O1F O 0.3109(4) 0.0457(3) 0.5592(2)
O2F O 0.3784(3) 0.1610(3) 0.44530(17)
O2E O -0.1216(3) 0.3390(3) 0.55470(17)
O3E O 0.0668(4) 0.3329(4) 0.6321(2)
N1G N 0.3312(4) 0.7301(3) 0.9463(2)
N1F N 0.1688(4) 0.2699(3) 0.4463(2)
N2G N 0.4152(4) 0.6760(3) 0.9773(2)
N2C N -0.0848(4) 0.1760(3) 0.4773(2)
N2F N 0.0848(4) 0.3240(3) 0.4773(2)
N3G N 0.3758(4) 0.6030(3) 0.8792(2)
C1G C 0.3091(5) 0.6856(4) 0.8878(3)
H1G H 0.2548 0.7076 0.8563
C2G C 0.4399(5) 0.5998(4) 0.9366(2)
H2G H 0.4943 0.5499 0.9457
C3G C 0.3768(5) 0.5285(4) 0.8218(3)
H3G H 0.3763 0.4586 0.8415
C4G C 0.2739(6) 0.5413(8) 0.7784(4)
H4G H 0.2732 0.6096 0.7576
H5G H 0.2074 0.5342 0.8071
C5G C 0.4792(5) 0.5400(6) 0.7790(3)
H6G H 0.5453 0.5309 0.8079
H7G H 0.4817 0.6090 0.7592
loop_
_geom_bond_atom_site_label_1
_geom_bond_atom_site_label_2
_geom_bond_site_symmetry_1
_geom_bond_site_symmetry_2
Mo1 O1 1_555 1_555
Mo2 O2 1_555 1_555
O2 Mo1 1_555 1_555
O3 Mo2 1_555 1_555
N1 Mo1 1_555 1_555
N2 N1 1_555 1_555
N3 C1 1_555 1_555
C1 N1 1_555 1_555
H1 C1 1_555 1_555
C2 N2 1_555 1_555
H2 C2 1_555 1_555
C3 N3 1_555 1_555
H3 C3 1_555 1_555
C4 C3 1_555 1_555
H4 C4 1_555 1_555
H5 C4 1_555 1_555
C5 C3 1_555 1_555
H6 C5 1_555 1_555
H7 C5 1_555 1_555
Mo1A N1G 1_555 1_555
Mo2C N2 1_555 1_555
Mo2A N2G 1_555 1_555
O1F Mo1 1_555 1_555
O2F Mo1 1_555 1_555
O2E Mo2 1_555 1_555
O3E Mo2 1_555 1_555
N1G N2G 1_555 1_555
N1F Mo1 1_555 1_555
N2G C2G 1_555 1_555
N2C Mo2 1_555 1_555
N2F Mo2 1_555 1_555
N3G C1G 1_555 1_555
C1G N1G 1_555 1_555
H1G C1G 1_555 1_555
C2G N3G 1_555 1_555
H2G C2G 1_555 1_555
C3G N3G 1_555 1_555
H3G C3G 1_555 1_555
C4G C4 1_555 1_555
H4G C4G 1_555 1_555
H5G C4G 1_555 1_555
C5G C5 1_555 1_555
H6G C5G 1_555 1_555
H7G C5G 1_555 1_555
N3 C2 1_555 1_555
Mo2C O2F 1_555 1_555
N1F N2F 1_555 1_555
C3G C4G 1_555 1_555
C3G C5G 1_555 1_555

#END
