
#######################################################################
#
#                 Cambridge Crystallographic Data Centre
#                                CCDC 
#
#######################################################################
#
# If this CIF has been generated from an entry in the Cambridge 
# Structural Database, then it will include bibliographic, chemical, 
# crystal, experimental, refinement or atomic coordinate data resulting 
# from the CCDC's data processing and validation procedures.
#
#######################################################################

data_HUSQOC
_symmetry_cell_setting           triclinic
_symmetry_space_group_name_H-M   'P -1'
_symmetry_Int_Tables_number      2
_space_group_name_Hall           '-P 1'
loop_
_symmetry_equiv_pos_site_id
_symmetry_equiv_pos_as_xyz
1 x,y,z
2 -x,-y,-z
_cell_length_a                   7.3804(8)
_cell_length_b                   7.5670(10)
_cell_length_c                   11.5827(14)
_cell_angle_alpha                85.928(12)
_cell_angle_beta                 86.074(10)
_cell_angle_gamma                89.873(11)
_cell_volume                     643.715
loop_
_atom_site_label
_atom_site_type_symbol
_atom_site_fract_x
_atom_site_fract_y
_atom_site_fract_z
Mo1 Mo 0.37002(3) 0.66569(3) 0.55075(2)
Mo2 Mo 0.13324(3) 0.36823(3) 0.416763(19)
O1 O 0.3870(3) 0.4403(3) 0.43412(17)
O2 O 0.1174(3) 0.6162(3) 0.51543(17)
O3 O 0.4180(3) 0.8286(3) 0.4463(2)
O4 O 0.3397(3) 0.7714(3) 0.6747(2)
O5 O 0.1127(3) 0.4735(3) 0.28268(18)
O6 O 0.1439(3) 0.1499(3) 0.3923(2)
N1 N 0.2778(3) 0.3959(3) 0.6705(2)
N2 N 0.1831(3) 0.2800(3) 0.6103(2)
N3 N 0.1638(3) 0.1811(3) 0.7915(2)
C1 C 0.2645(4) 0.3333(4) 0.7799(2)
H1 H 0.3167 0.3858 0.8409
C2 C 0.1186(4) 0.1535(4) 0.6836(2)
H2 H 0.0502 0.0568 0.6640
C3 C 0.1215(4) 0.0661(4) 0.9010(2)
C4 C -0.0406(4) -0.0563(4) 0.8851(2)
H3 H -0.0106 -0.1280 0.8182
C5 C -0.2145(4) 0.0510(4) 0.8637(2)
H4 H -0.1959 0.1277 0.7920
H5 H -0.3155 -0.0298 0.8549
C6 C -0.2600(4) 0.1636(4) 0.9662(3)
H6 H -0.3707 0.2337 0.9520
C7 C -0.1029(4) 0.2890(4) 0.9817(3)
H7 H -0.1334 0.3603 1.0477
H8 H -0.0820 0.3695 0.9120
C8 C 0.0697(4) 0.1815(4) 1.0030(2)
H9 H 0.1709 0.2639 1.0120
C9 C 0.2946(4) -0.0415(4) 0.9238(2)
H10 H 0.3276 -0.1119 0.8578
H11 H 0.3955 0.0391 0.9332
Mo1A Mo 0.62998(3) 0.33431(3) 0.44925(2)
Mo1A_2 Mo -0.37002(3) -0.66569(3) 1.44925(2)
Mo1A_3 Mo -0.37002(3) 0.33431(3) 0.44925(2)
Mo2A Mo 0.86676(3) 0.63177(3) 0.583237(19)
Mo2A_2 Mo -0.13324(3) 0.63177(3) 0.583237(19)
Mo2A_3 Mo -0.13324(3) -0.36823(3) 1.583237(19)
O1A O 0.6130(3) 0.5597(3) 0.56588(17)
O2A O -0.1174(3) 0.3838(3) 0.48457(17)
O2A_2 O 0.8826(3) 0.3838(3) 0.48457(17)
O2_2 O 1.1174(3) 0.6162(3) 0.51543(17)
O3A O 0.5820(3) 0.1714(3) 0.5537(2)
O4A O 0.6603(3) 0.2286(3) 0.3253(2)
O5A O 0.8873(3) 0.5265(3) 0.71732(18)
O6A O 0.8561(3) 0.8501(3) 0.6077(2)
N1A N -0.2778(3) -0.3959(3) 1.3295(2)
N1A_2 N 0.7222(3) 0.6041(3) 0.3295(2)
N2A N -0.1831(3) -0.2800(3) 1.3897(2)
N2A_2 N 0.8169(3) 0.7200(3) 0.3897(2)
N3A N -0.1638(3) -0.1811(3) 1.2085(2)
C1A C -0.2645(4) -0.3333(4) 1.2201(2)
H1A H -0.3167 -0.3858 1.1591
C2A C -0.1186(4) -0.1535(4) 1.3164(2)
H2A H -0.0502 -0.0568 1.3360
C3A C -0.1215(4) -0.0661(4) 1.0990(2)
C4A C 0.0406(4) 0.0563(4) 1.1149(2)
H3A H 0.0106 0.1280 1.1818
C5A C 0.2145(4) -0.0510(4) 1.1363(2)
H4A H 0.1959 -0.1277 1.2080
H5A H 0.3155 0.0298 1.1451
C6A C 0.2600(4) -0.1636(4) 1.0338(3)
H6A H 0.3707 -0.2337 1.0480
C7A C 0.1029(4) -0.2890(4) 1.0183(3)
H7A H 0.1334 -0.3603 0.9523
H8A H 0.0820 -0.3695 1.0880
C8A C -0.0697(4) -0.1815(4) 0.9970(2)
H9A H -0.1709 -0.2639 0.9880
C9A C -0.2946(4) 0.0415(4) 1.0762(2)
H10A H -0.3276 0.1119 1.1422
H11A H -0.3955 -0.0391 1.0668
O7 O 0.4407(6) 0.4103(6) 0.1235(4)
H12 H 0.3411 0.4338 0.1628
H13 H 0.5102 0.3594 0.1728
loop_
_geom_bond_atom_site_label_1
_geom_bond_atom_site_label_2
_geom_bond_site_symmetry_1
_geom_bond_site_symmetry_2
Mo1 O1 1_555 1_555
Mo2 O1 1_555 1_555
O1 Mo1A 1_555 1_555
O2 Mo1 1_555 1_555
O3 Mo1 1_555 1_555
O4 Mo1 1_555 1_555
O5 Mo2 1_555 1_555
O6 Mo2 1_555 1_555
N1 Mo1 1_555 1_555
N2 Mo2 1_555 1_555
N3 C1 1_555 1_555
C1 N1 1_555 1_555
H1 C1 1_555 1_555
C2 N2 1_555 1_555
H2 C2 1_555 1_555
C3 N3 1_555 1_555
C4 C3 1_555 1_555
H3 C4 1_555 1_555
C5 C4 1_555 1_555
H4 C5 1_555 1_555
H5 C5 1_555 1_555
C6 C5 1_555 1_555
H6 C6 1_555 1_555
C7 C6 1_555 1_555
H7 C7 1_555 1_555
H8 C7 1_555 1_555
C8 C3 1_555 1_555
H9 C8 1_555 1_555
C9 C3 1_555 1_555
H10 C9 1_555 1_555
H11 C9 1_555 1_555
O7 H12 1_555 1_555
H13 O7 1_555 1_555
Mo1A O1A 1_555 1_555
Mo1A_2 N1A 1_555 1_555
Mo1A_3 O2A 1_555 1_555
Mo2A O1A 1_555 1_555
Mo2A_2 O2 1_555 1_555
Mo2A_3 N2A 1_555 1_555
O1A Mo1 1_555 1_555
O2A Mo2 1_555 1_555
O2A_2 Mo1A 1_555 1_555
O2_2 Mo2A 1_555 1_555
O3A Mo1A 1_555 1_555
O4A Mo1A 1_555 1_555
O5A Mo2A 1_555 1_555
O6A Mo2A 1_555 1_555
N1A N2A 1_555 1_555
N1A_2 Mo1A 1_555 1_555
N2A C2A 1_555 1_555
N2A_2 Mo2A 1_555 1_555
N3A C1A 1_555 1_555
C1A N1A 1_555 1_555
H1A C1A 1_555 1_555
C2A N3A 1_555 1_555
H2A C2A 1_555 1_555
C3A N3A 1_555 1_555
C4A C8 1_555 1_555
H3A C4A 1_555 1_555
C5A C4A 1_555 1_555
H4A C5A 1_555 1_555
H5A C5A 1_555 1_555
C6A C9 1_555 1_555
H6A C6A 1_555 1_555
C7A C6A 1_555 1_555
H7A C7A 1_555 1_555
H8A C7A 1_555 1_555
C8A C4 1_555 1_555
H9A C8A 1_555 1_555
C9A C6 1_555 1_555
H10A C9A 1_555 1_555
H11A C9A 1_555 1_555
Mo2 O2 1_555 1_555
N1 N2 1_555 1_555
N3 C2 1_555 1_555
C7 C8 1_555 1_555
Mo2A O2A_2 1_555 1_555
Mo2A_2 O2A 1_555 1_555
N1A_2 N2A_2 1_555 1_555
C3A C4A 1_555 1_555
C3A C8A 1_555 1_555
C3A C9A 1_555 1_555
C5A C6A 1_555 1_555
C7A C8A 1_555 1_555

#END
