
#######################################################################
#
#                 Cambridge Crystallographic Data Centre
#                                CCDC 
#
#######################################################################
#
# If this CIF has been generated from an entry in the Cambridge 
# Structural Database, then it will include bibliographic, chemical, 
# crystal, experimental, refinement or atomic coordinate data resulting 
# from the CCDC's data processing and validation procedures.
#
#######################################################################

data_HUSQES
_symmetry_cell_setting           orthorhombic
_symmetry_space_group_name_H-M   'P n m a'
_symmetry_Int_Tables_number      62
_space_group_name_Hall           '-P 2ac 2n'
loop_
_symmetry_equiv_pos_site_id
_symmetry_equiv_pos_as_xyz
1 x,y,z
2 1/2-x,-y,1/2+z
3 1/2+x,1/2-y,1/2-z
4 -x,1/2+y,-z
5 -x,-y,-z
6 1/2+x,y,1/2-z
7 1/2-x,1/2+y,1/2+z
8 x,1/2-y,z
_cell_length_a                   15.1155(9)
_cell_length_b                   12.4471(7)
_cell_length_c                   12.4209(9)
_cell_angle_alpha                90
_cell_angle_beta                 90
_cell_angle_gamma                90
_cell_volume                     2336.92
loop_
_atom_site_label
_atom_site_type_symbol
_atom_site_fract_x
_atom_site_fract_y
_atom_site_fract_z
Mo1 Mo -0.060694(11) 0.397157(14) 0.086067(13)
O1 O -0.08802(13) 0.2500 0.12276(17)
O2 O -0.03059(11) 0.44287(14) 0.21130(13)
O3 O 0.0000 0.5000 0.0000
O4 O -0.16577(10) 0.44338(14) 0.06935(14)
N1 N 0.21165(15) 0.2500 0.0395(2)
N2 N 0.07644(11) 0.30574(16) 0.06862(14)
N3 N 0.42830(16) 0.2500 -0.2530(2)
N4 N 0.43252(11) 0.30533(16) -0.41946(14)
C1 C 0.15825(14) 0.33677(19) 0.05091(19)
H1 H 0.1770 0.4087 0.0467
C2 C 0.42996(15) 0.33648(19) -0.31864(17)
H2 H 0.4294 0.4084 -0.2955
C3 C 0.30823(18) 0.2500 0.0145(2)
C4 C 0.3195(2) 0.2500 -0.1079(2)
H3 H 0.2917 0.3130 -0.1386
C5 C 0.4188(2) 0.2500 -0.1335(2)
C6 C 0.46238(15) 0.1492(2) -0.08617(17)
H4 H 0.4352 0.0847 -0.1171
H5 H 0.5256 0.1485 -0.1037
C7 C 0.44985(14) 0.1497(2) 0.03604(18)
H6 H 0.4780 0.0849 0.0670
C8 C 0.35027(14) 0.1487(2) 0.06282(17)
H7 H 0.3224 0.0844 0.0324
H8 H 0.3417 0.1478 0.1410
C9 C 0.4926(2) 0.2500 0.0848(3)
H9 H 0.5562 0.2500 0.0697
H10 H 0.4844 0.2500 0.1630
Mo1G Mo -0.060694(11) 0.102843(14) 0.086067(13)
Mo1D Mo 0.060694(11) 0.602843(14) -0.086067(13)
Mo1E Mo 0.439306(11) 0.397157(14) -0.586067(13)
Mo1B Mo 0.439306(11) 0.102843(14) -0.586067(13)
O2G O -0.03059(11) 0.05713(14) 0.21130(13)
O3C O 0.0000 0.0000 0.0000
O4G O -0.16577(10) 0.05662(14) 0.06935(14)
N2G N 0.07644(11) 0.19426(16) 0.06862(14)
N4G N 0.43252(11) 0.19467(16) -0.41946(14)
N4E N -0.06748(11) 0.30533(16) -0.08054(14)
N4B N -0.06748(11) 0.19467(16) -0.08054(14)
C1G C 0.15825(14) 0.16323(19) 0.05091(19)
H1G H 0.1770 0.0913 0.0467
C2G C 0.42996(15) 0.16352(19) -0.31864(17)
H2G H 0.4294 0.0916 -0.2955
H3G H 0.2917 0.1870 -0.1386
C6G C 0.46238(15) 0.3508(2) -0.08617(17)
H4G H 0.4352 0.4153 -0.1171
H5G H 0.5256 0.3515 -0.1037
C7G C 0.44985(14) 0.3503(2) 0.03604(18)
H6G H 0.4780 0.4151 0.0670
C8G C 0.35027(14) 0.3513(2) 0.06282(17)
H7G H 0.3224 0.4156 0.0324
H8G H 0.3417 0.3522 0.1410
O5 O 0.72115(16) 0.2500 0.1140(2)
H11 H 0.7776 0.2500 0.1235
H12 H 0.7113 0.2500 0.0484
O6 O 0.34704(14) -0.0661(2) -0.2049(2)
H13 H 0.3983 -0.0712 -0.2253
H14 H 0.3303 -0.1265 -0.1773
O7 O 0.7008(3) 0.2500 -0.1022(3)
H15 H 0.7054 0.1947 -0.1469
H15G H 0.7054 0.3053 -0.1469
O8 O 0.20789(18) 0.0626(2) -0.2810(2)
H16 H 0.1806 0.0406 -0.2274
H17 H 0.2604 0.0312 -0.2777
loop_
_geom_bond_atom_site_label_1
_geom_bond_atom_site_label_2
_geom_bond_site_symmetry_1
_geom_bond_site_symmetry_2
Mo1 O1 1_555 1_555
O1 Mo1G 1_555 1_555
O2 Mo1 1_555 1_555
O3 Mo1 1_555 1_555
O4 Mo1 1_555 1_555
N1 C1 1_555 1_555
N2 Mo1 1_555 1_555
N3 C2 1_555 1_555
N4 C2 1_555 1_555
C1 N2 1_555 1_555
H1 C1 1_555 1_555
C2 H2 1_555 1_555
C3 N1 1_555 1_555
C4 C3 1_555 1_555
H3 C4 1_555 1_555
C5 N3 1_555 1_555
C6 C5 1_555 1_555
H4 C6 1_555 1_555
H5 C6 1_555 1_555
C7 C6 1_555 1_555
H6 C7 1_555 1_555
C8 C3 1_555 1_555
H7 C8 1_555 1_555
H8 C8 1_555 1_555
C9 C7 1_555 1_555
H9 C9 1_555 1_555
H10 C9 1_555 1_555
O5 H11 1_555 1_555
H12 O5 1_555 1_555
O6 H13 1_555 1_555
H14 O6 1_555 1_555
O7 H15 1_555 1_555
O8 H16 1_555 1_555
H17 O8 1_555 1_555
Mo1G O2G 1_555 1_555
Mo1D O3 1_555 1_555
Mo1E N4 1_555 1_555
Mo1B N4G 1_555 1_555
O3C Mo1G 1_555 1_555
O4G Mo1G 1_555 1_555
N2G N2 1_555 1_555
N4G N4 1_555 1_555
N4E Mo1 1_555 1_555
N4B Mo1G 1_555 1_555
C1G N1 1_555 1_555
H1G C1G 1_555 1_555
C2G N3 1_555 1_555
H2G C2G 1_555 1_555
H3G C4 1_555 1_555
C6G C5 1_555 1_555
H4G C6G 1_555 1_555
H5G C6G 1_555 1_555
C7G C9 1_555 1_555
H6G C7G 1_555 1_555
C8G C3 1_555 1_555
H7G C8G 1_555 1_555
H8G C8G 1_555 1_555
H15G O7 1_555 1_555
C4 C5 1_555 1_555
C7 C8 1_555 1_555
Mo1G N2G 1_555 1_555
N2G C1G 1_555 1_555
N4G C2G 1_555 1_555
N4E N4B 1_555 1_555
C6G C7G 1_555 1_555
C7G C8G 1_555 1_555

#END
