
#######################################################################
#
#                 Cambridge Crystallographic Data Centre
#                                CCDC 
#
#######################################################################
#
# If this CIF has been generated from an entry in the Cambridge 
# Structural Database, then it will include bibliographic, chemical, 
# crystal, experimental, refinement or atomic coordinate data resulting 
# from the CCDC's data processing and validation procedures.
#
#######################################################################

data_HUSQUI
_symmetry_cell_setting           tetragonal
_symmetry_space_group_name_H-M   'I 41/a'
_symmetry_Int_Tables_number      88
_space_group_name_Hall           '-I 4ad'
loop_
_symmetry_equiv_pos_site_id
_symmetry_equiv_pos_as_xyz
1 x,y,z
2 -x,1/2-y,z
3 3/4-y,1/4+x,1/4+z
4 1/4+y,1/4-x,1/4+z
5 1/2+x,1/2+y,1/2+z
6 1/2-x,-y,1/2+z
7 1/4-y,3/4+x,3/4+z
8 3/4+y,3/4-x,3/4+z
9 -x,-y,-z
10 x,1/2+y,-z
11 1/4+y,3/4-x,3/4-z
12 3/4-y,3/4+x,3/4-z
13 1/2-x,1/2-y,1/2-z
14 1/2+x,y,1/2-z
15 3/4+y,1/4-x,1/4-z
16 1/4-y,1/4+x,1/4-z
_cell_length_a                   19.5123(11)
_cell_length_b                   19.5123(11)
_cell_length_c                   11.9438(7)
_cell_angle_alpha                90
_cell_angle_beta                 90
_cell_angle_gamma                90
_cell_volume                     4547.36
loop_
_atom_site_label
_atom_site_type_symbol
_atom_site_fract_x
_atom_site_fract_y
_atom_site_fract_z
Mo1 Mo 0.324619(10) 0.029920(10) 0.251451(13)
O1 O 0.32326(9) -0.03178(9) 0.37477(12)
O2 O 0.34542(9) 0.10559(9) 0.31728(12)
O3 O 0.39842(9) 0.00155(10) 0.19044(12)
N1 N 0.21256(10) 0.03604(10) 0.32753(14)
N2 N 0.19274(10) -0.00792(11) 0.41308(15)
N3 N 0.10912(10) 0.06412(10) 0.38044(14)
N4 N -0.14657(11) 0.26808(12) 0.48929(15)
N5 N -0.20750(12) 0.29672(12) 0.46055(17)
N6 N -0.22950(12) 0.27148(12) 0.36591(17)
N7 N -0.18183(11) 0.22608(11) 0.33279(16)
H1 H -0.1835 0.2019 0.2717
C1 C 0.13089(13) 0.00996(12) 0.44301(16)
H2 H 0.1051 -0.0114 0.4996
C2 C 0.16196(12) 0.07795(12) 0.30988(16)
H3 H 0.1619 0.1130 0.2558
C3 C 0.04662(12) 0.10155(12) 0.38769(18)
C4 C 0.01575(13) 0.11112(14) 0.49130(17)
H4 H 0.0342 0.0908 0.5560
C5 C -0.04293(13) 0.15120(14) 0.49760(18)
H5 H -0.0644 0.1581 0.5671
C6 C -0.07021(12) 0.18127(13) 0.40139(18)
C7 C -0.03816(13) 0.17019(13) 0.29799(17)
H6 H -0.0562 0.1905 0.2330
C8 C 0.01962(13) 0.12978(13) 0.29054(18)
H7 H 0.0404 0.1215 0.2208
C9 C -0.13137(13) 0.22402(13) 0.40896(18)
Mo1C Mo 0.279920(10) -0.074619(10) 0.501451(13)
O1F O 0.28178(9) 0.07326(9) 0.12477(12)
N2F N 0.25792(11) -0.05726(10) 0.16308(15)
loop_
_geom_bond_atom_site_label_1
_geom_bond_atom_site_label_2
_geom_bond_site_symmetry_1
_geom_bond_site_symmetry_2
Mo1 O1 1_555 1_555
O1 Mo1C 1_555 1_555
O2 Mo1 1_555 1_555
O3 Mo1 1_555 1_555
N1 Mo1 1_555 1_555
N2 N1 1_555 1_555
N3 C1 1_555 1_555
N4 N5 1_555 1_555
N5 N6 1_555 1_555
N6 N7 1_555 1_555
N7 H1 1_555 1_555
C1 N2 1_555 1_555
H2 C1 1_555 1_555
C2 N1 1_555 1_555
H3 C2 1_555 1_555
C3 N3 1_555 1_555
C4 C3 1_555 1_555
H4 C4 1_555 1_555
C5 C4 1_555 1_555
H5 C5 1_555 1_555
C6 C5 1_555 1_555
C7 C6 1_555 1_555
H6 C7 1_555 1_555
C8 C3 1_555 1_555
H7 C8 1_555 1_555
C9 N4 1_555 1_555
Mo1C N2 1_555 1_555
O1F Mo1 1_555 1_555
N2F Mo1 1_555 1_555
N3 C2 1_555 1_555
N7 C9 1_555 1_555
C6 C9 1_555 1_555
C7 C8 1_555 1_555

#END
