
#######################################################################
#
#                 Cambridge Crystallographic Data Centre
#                                CCDC 
#
#######################################################################
#
# If this CIF has been generated from an entry in the Cambridge 
# Structural Database, then it will include bibliographic, chemical, 
# crystal, experimental, refinement or atomic coordinate data resulting 
# from the CCDC's data processing and validation procedures.
#
#######################################################################

data_HUTGUZ
_symmetry_cell_setting           monoclinic
_symmetry_space_group_name_H-M   'P 21/c'
_symmetry_Int_Tables_number      14
_space_group_name_Hall           '-P 2ybc'
loop_
_symmetry_equiv_pos_site_id
_symmetry_equiv_pos_as_xyz
1 x,y,z
2 -x,1/2+y,1/2-z
3 -x,-y,-z
4 x,1/2-y,1/2+z
_cell_length_a                   14.061(3)
_cell_length_b                   19.031(4)
_cell_length_c                   8.7505(18)
_cell_angle_alpha                90
_cell_angle_beta                 105.85(3)
_cell_angle_gamma                90
_cell_volume                     2252.56
loop_
_atom_site_label
_atom_site_type_symbol
_atom_site_fract_x
_atom_site_fract_y
_atom_site_fract_z
Ag1 Ag 0.42245(5) 1.00593(3) 0.78838(7)
Br1 Br 0.39891(6) 1.06493(4) 1.06904(10)
P1 P 0.30124(14) 0.92457(9) 0.6482(2)
N1 N 0.5080(5) 0.6072(3) 0.7671(8)
C1 C 0.5344(6) 0.7283(4) 0.8452(9)
H1 H 0.5710 0.7613 0.9178
N2 N 0.4325(5) 0.8203(3) 0.6996(8)
H2 H 0.4656 0.8485 0.7732
C2 C 0.5587(6) 0.6589(4) 0.8615(9)
H3 H 0.6143 0.6460 0.9439
C3 C 0.4312(6) 0.6287(4) 0.6503(10)
H4 H 0.3945 0.5943 0.5823
C4 C 0.4013(6) 0.6979(4) 0.6213(9)
H5 H 0.3460 0.7093 0.5368
C5 C 0.4546(5) 0.7506(4) 0.7196(9)
C6 C 0.3602(6) 0.8518(4) 0.5688(9)
H6 H 0.3104 0.8169 0.5173
H7 H 0.3920 0.8696 0.4899
C7 C 0.2232(5) 0.8805(4) 0.7556(9)
C8 C 0.1859(8) 0.8137(5) 0.7169(11)
H8 H 0.2016 0.7888 0.6343
C9 C 0.1249(8) 0.7834(5) 0.8008(12)
H9 H 0.0992 0.7381 0.7734
C10 C 0.1020(7) 0.8188(5) 0.9228(11)
H10 H 0.0593 0.7989 0.9769
C11 C 0.1431(6) 0.8847(5) 0.9644(10)
H11 H 0.1300 0.9085 1.0506
C12 C 0.2029(6) 0.9165(4) 0.8822(10)
H12 H 0.2293 0.9614 0.9111
C13 C 0.2151(5) 0.9615(3) 0.4716(9)
C14 C 0.1123(6) 0.9535(5) 0.4360(10)
H13 H 0.0842 0.9245 0.4989
C15 C 0.0527(7) 0.9891(6) 0.3070(11)
H14 H -0.0163 0.9838 0.2839
C16 C 0.0900(7) 1.0308(6) 0.2138(10)
H15 H 0.0475 1.0549 0.1282
C17 C 0.1936(7) 1.0383(5) 0.2453(10)
H16 H 0.2205 1.0667 0.1797
C18 C 0.2554(6) 1.0032(4) 0.3740(10)
H17 H 0.3244 1.0076 0.3952
Ag1B Ag 0.57755(5) 0.99407(3) 1.21162(7)
Ag1A Ag 0.57755(5) 0.50593(3) 0.71162(7)
Ag1C Ag 0.42245(5) 1.49407(3) 1.28838(7)
Br1B Br 0.60109(6) 0.93507(4) 0.93096(10)
P1B P 0.69876(14) 1.07543(9) 1.3518(2)
N1B N 0.4920(5) 1.3928(3) 1.2329(8)
N1A N 0.4920(5) 1.1072(3) 0.7329(8)
N1C N 0.5080(5) 0.8928(3) 1.2671(8)
C1B C 0.4656(6) 1.2717(4) 1.1548(9)
H1B H 0.4290 1.2387 1.0822
N2B N 0.5675(5) 1.1797(3) 1.3004(8)
H2B H 0.5344 1.1515 1.2268
C2B C 0.4413(6) 1.3411(4) 1.1385(9)
H3B H 0.3857 1.3540 1.0561
C3B C 0.5688(6) 1.3713(4) 1.3497(10)
H4B H 0.6055 1.4057 1.4177
C4B C 0.5987(6) 1.3021(4) 1.3787(9)
H5B H 0.6540 1.2907 1.4632
C5B C 0.5454(5) 1.2494(4) 1.2804(9)
C6B C 0.6398(6) 1.1482(4) 1.4312(9)
H6B H 0.6896 1.1831 1.4827
H7B H 0.6080 1.1304 1.5101
C7B C 0.7768(5) 1.1195(4) 1.2444(9)
C8B C 0.8141(8) 1.1863(5) 1.2831(11)
H8B H 0.7984 1.2112 1.3657
C9B C 0.8751(8) 1.2166(5) 1.1992(12)
H9B H 0.9008 1.2619 1.2266
C10B C 0.8980(7) 1.1812(5) 1.0772(11)
H10B H 0.9407 1.2011 1.0231
C11B C 0.8569(6) 1.1153(5) 1.0356(10)
H11B H 0.8700 1.0915 0.9494
C12B C 0.7971(6) 1.0835(4) 1.1178(10)
H12B H 0.7707 1.0386 1.0889
C13B C 0.7849(5) 1.0385(3) 1.5284(9)
C14B C 0.8877(6) 1.0465(5) 1.5640(10)
H13B H 0.9158 1.0755 1.5011
C15B C 0.9473(7) 1.0109(6) 1.6930(11)
H14B H 1.0163 1.0162 1.7161
C16B C 0.9100(7) 0.9692(6) 1.7862(10)
H15B H 0.9525 0.9451 1.8718
C17B C 0.8064(7) 0.9617(5) 1.7547(10)
H16B H 0.7795 0.9333 1.8203
C18B C 0.7446(6) 0.9968(4) 1.6260(10)
H17B H 0.6756 0.9924 1.6048
Cl1 Cl 0.1698(4) 0.3694(2) 0.1121(5)
Cl2 Cl 0.1099(3) 0.3408(3) 0.3920(4)
Cl3 Cl 0.2305(3) 0.24179(18) 0.2806(4)
C19 C 0.2021(8) 0.3294(6) 0.2951(13)
H18 H 0.2625 0.3530 0.3599
loop_
_geom_bond_atom_site_label_1
_geom_bond_atom_site_label_2
_geom_bond_site_symmetry_1
_geom_bond_site_symmetry_2
Ag1 Br1 1_555 1_555
Br1 Ag1B 1_555 1_555
P1 Ag1 1_555 1_555
N1 C2 1_555 1_555
C1 H1 1_555 1_555
Cl1 C19 1_555 1_555
N2 H2 1_555 1_555
C2 C1 1_555 1_555
H3 C2 1_555 1_555
Cl2 C19 1_555 1_555
C3 N1 1_555 1_555
H4 C3 1_555 1_555
Cl3 C19 1_555 1_555
C4 C3 1_555 1_555
H5 C4 1_555 1_555
C5 C1 1_555 1_555
C6 P1 1_555 1_555
H6 C6 1_555 1_555
H7 C6 1_555 1_555
C7 P1 1_555 1_555
C8 C7 1_555 1_555
H8 C8 1_555 1_555
C9 C8 1_555 1_555
H9 C9 1_555 1_555
C10 C9 1_555 1_555
H10 C10 1_555 1_555
C11 C10 1_555 1_555
H11 C11 1_555 1_555
C12 C7 1_555 1_555
H12 C12 1_555 1_555
C13 P1 1_555 1_555
C14 C13 1_555 1_555
H13 C14 1_555 1_555
C15 C14 1_555 1_555
H14 C15 1_555 1_555
C16 C15 1_555 1_555
H15 C16 1_555 1_555
C17 C16 1_555 1_555
H16 C17 1_555 1_555
C18 C13 1_555 1_555
H17 C18 1_555 1_555
C19 H18 1_555 1_555
Ag1B Br1B 1_555 1_555
Ag1A N1 1_555 1_555
Ag1C N1B 1_555 1_555
Br1B Ag1 1_555 1_555
P1B Ag1B 1_555 1_555
N1B C2B 1_555 1_555
N1A Ag1 1_555 1_555
N1C Ag1B 1_555 1_555
C1B H1B 1_555 1_555
N2B H2B 1_555 1_555
C2B C1B 1_555 1_555
H3B C2B 1_555 1_555
C3B N1B 1_555 1_555
H4B C3B 1_555 1_555
C4B C3B 1_555 1_555
H5B C4B 1_555 1_555
C5B C1B 1_555 1_555
C6B P1B 1_555 1_555
H6B C6B 1_555 1_555
H7B C6B 1_555 1_555
C7B P1B 1_555 1_555
C8B C7B 1_555 1_555
H8B C8B 1_555 1_555
C9B C8B 1_555 1_555
H9B C9B 1_555 1_555
C10B C9B 1_555 1_555
H10B C10B 1_555 1_555
C11B C10B 1_555 1_555
H11B C11B 1_555 1_555
C12B C7B 1_555 1_555
H12B C12B 1_555 1_555
C13B P1B 1_555 1_555
C14B C13B 1_555 1_555
H13B C14B 1_555 1_555
C15B C14B 1_555 1_555
H14B C15B 1_555 1_555
C16B C15B 1_555 1_555
H15B C16B 1_555 1_555
C17B C16B 1_555 1_555
H16B C17B 1_555 1_555
C18B C13B 1_555 1_555
H17B C18B 1_555 1_555
N2 C5 1_555 1_555
N2 C6 1_555 1_555
C4 C5 1_555 1_555
C11 C12 1_555 1_555
C17 C18 1_555 1_555
N2B C5B 1_555 1_555
N2B C6B 1_555 1_555
C4B C5B 1_555 1_555
C11B C12B 1_555 1_555
C17B C18B 1_555 1_555

#END
