
#######################################################################
#
#                 Cambridge Crystallographic Data Centre
#                                CCDC 
#
#######################################################################
#
# If this CIF has been generated from an entry in the Cambridge 
# Structural Database, then it will include bibliographic, chemical, 
# crystal, experimental, refinement or atomic coordinate data resulting 
# from the CCDC's data processing and validation procedures.
#
#######################################################################

data_HUTGOT
_symmetry_cell_setting           orthorhombic
_symmetry_space_group_name_H-M   'P n a 21'
_symmetry_Int_Tables_number      33
_space_group_name_Hall           'P 2c -2n'
loop_
_symmetry_equiv_pos_site_id
_symmetry_equiv_pos_as_xyz
1 x,y,z
2 -x,-y,1/2+z
3 1/2+x,1/2-y,z
4 1/2-x,1/2+y,1/2+z
_cell_length_a                   19.128(4)
_cell_length_b                   14.406(3)
_cell_length_c                   15.244(3)
_cell_angle_alpha                90
_cell_angle_beta                 90
_cell_angle_gamma                90
_cell_volume                     4200.61
loop_
_atom_site_label
_atom_site_type_symbol
_atom_site_fract_x
_atom_site_fract_y
_atom_site_fract_z
Ag1 Ag 0.62803(7) 0.83967(11) 0.4525(5)
Ag2 Ag 0.56144(7) 0.66733(13) 0.2940(5)
P1 P 0.5513(2) 0.9306(4) 0.5397(6)
P2 P 0.6379(3) 0.5678(5) 0.2144(7)
Cl1 Cl 0.5660(2) 0.6614(4) 0.4657(7)
Cl2 Cl 0.6227(2) 0.8427(4) 0.2802(6)
N1 N 0.2404(8) 0.7103(11) 0.4649(12)
N2 N 0.4431(9) 0.8137(12) 0.5132(12)
N3 N 0.9503(7) 0.7835(12) 0.2734(13)
N4 N 0.7478(8) 0.6836(12) 0.2405(14)
C1 C 0.3761(10) 0.7818(15) 0.4946(10)
C2 C 0.3187(10) 0.8404(14) 0.4905(8)
H1 H 0.3240 0.9048 0.4975
C3 C 0.2534(11) 0.8015(14) 0.4757(9)
H2 H 0.2151 0.8422 0.4729
C4 C 0.2961(11) 0.6573(15) 0.4692(13)
H3 H 0.2894 0.5932 0.4619
C5 C 0.3645(12) 0.6880(16) 0.4836(12)
H4 H 0.4019 0.6456 0.4857
C6 C 0.4555(10) 0.9114(13) 0.5135(17)
H5 H 0.4262 0.9416 0.5577
H6 H 0.4443 0.9378 0.4560
C7 C 0.5595(11) 0.912(2) 0.6574(19)
C8 C 0.6154(12) 0.8581(19) 0.6860(18)
H7 H 0.6460 0.8318 0.6447
C9 C 0.6260(11) 0.8425(17) 0.7740(17)
H8 H 0.6644 0.8075 0.7936
C10 C 0.5783(12) 0.8800(17) 0.8335(17)
H9 H 0.5873 0.8747 0.8939
C11 C 0.5222(11) 0.9218(17) 0.8077(18)
H10 H 0.4879 0.9388 0.8488
C12 C 0.5125(12) 0.9419(18) 0.7190(18)
H11 H 0.4731 0.9762 0.7014
C13 C 0.5594(11) 1.0576(16) 0.5286(12)
C14 C 0.6171(12) 1.0966(15) 0.5020(11)
H12 H 0.6540 1.0583 0.4833
C15 C 0.6265(12) 1.1902(15) 0.4999(12)
H13 H 0.6686 1.2169 0.4804
C16 C 0.5681(11) 1.2467(16) 0.5293(13)
H14 H 0.5729 1.3116 0.5289
C17 C 0.5100(12) 1.2113(15) 0.5561(14)
H15 H 0.4730 1.2494 0.5747
C18 C 0.5038(12) 1.1164(15) 0.5566(14)
H16 H 0.4618 1.0895 0.5761
C19 C 0.8129(10) 0.7136(15) 0.2502(17)
C20 C 0.8735(9) 0.6576(15) 0.2654(16)
H17 H 0.8671 0.5932 0.2705
C21 C 0.9387(10) 0.6908(16) 0.2730(18)
H18 H 0.9766 0.6495 0.2780
C22 C 0.8934(9) 0.8404(15) 0.2660(16)
H19 H 0.9017 0.9046 0.2679
C23 C 0.8274(11) 0.8135(15) 0.2565(19)
H20 H 0.7910 0.8573 0.2538
C24 C 0.7318(8) 0.5868(13) 0.2385(16)
H21 H 0.7434 0.5589 0.2953
H22 H 0.7603 0.5563 0.1934
C25 C 0.6301(14) 0.448(2) 0.2316(18)
C26 C 0.5750(13) 0.4096(18) 0.2777(16)
H23 H 0.5413 0.4502 0.3008
C27 C 0.5661(13) 0.3178(18) 0.2920(19)
H24 H 0.5273 0.2967 0.3240
C28 C 0.6137(12) 0.2558(19) 0.2599(19)
H25 H 0.6069 0.1921 0.2703
C29 C 0.6712(14) 0.2840(19) 0.2126(19)
H26 H 0.7042 0.2418 0.1902
C30 C 0.6773(15) 0.382(2) 0.2002(19)
H27 H 0.7161 0.4034 0.1683
C31 C 0.6309(10) 0.5787(15) 0.0992(19)
C32 C 0.5689(11) 0.5475(14) 0.0572(16)
H28 H 0.5345 0.5177 0.0910
C33 C 0.5573(11) 0.5595(14) -0.0311(15)
H29 H 0.5155 0.5377 -0.0561
C34 C 0.6066(9) 0.6032(14) -0.0842(18)
H30 H 0.5978 0.6108 -0.1445
C35 C 0.6686(10) 0.6357(14) -0.0481(17)
H31 H 0.7026 0.6655 -0.0827
C36 C 0.6786(13) 0.6222(14) 0.0425(16)
H32 H 0.7205 0.6441 0.0671
Ag1B Ag 0.12803(7) 0.66033(11) 0.4525(5)
Ag2B Ag 1.06144(7) 0.83267(13) 0.2940(5)
N1B N 0.7404(8) 0.7897(11) 0.4649(12)
N3B N 0.4503(7) 0.7165(12) 0.2734(13)
C37 C 0.725(3) 0.869(4) 0.998(4)
Cl3 Cl 0.677(3) 0.924(3) 1.080(3)
Cl4 Cl 0.791(3) 0.937(4) 0.951(5)
O1 O 0.603(2) 0.559(3) 0.647(3)
C38 C 0.674(3) 0.575(6) 0.671(5)
loop_
_geom_bond_atom_site_label_1
_geom_bond_atom_site_label_2
_geom_bond_site_symmetry_1
_geom_bond_site_symmetry_2
Ag1 P1 1_555 1_555
Ag2 P2 1_555 1_555
P1 C6 1_555 1_555
P2 C24 1_555 1_555
Cl1 Ag1 1_555 1_555
Cl2 Ag1 1_555 1_555
N1 C3 1_555 1_555
N2 C1 1_555 1_555
N3 C21 1_555 1_555
N4 C19 1_555 1_555
C1 C2 1_555 1_555
C2 H1 1_555 1_555
C3 C2 1_555 1_555
H2 C3 1_555 1_555
C4 N1 1_555 1_555
H3 C4 1_555 1_555
C5 C1 1_555 1_555
H4 C5 1_555 1_555
C6 N2 1_555 1_555
H5 C6 1_555 1_555
H6 C6 1_555 1_555
C7 P1 1_555 1_555
C8 C7 1_555 1_555
H7 C8 1_555 1_555
C9 C8 1_555 1_555
H8 C9 1_555 1_555
C10 C9 1_555 1_555
H9 C10 1_555 1_555
C11 C10 1_555 1_555
H10 C11 1_555 1_555
C12 C7 1_555 1_555
H11 C12 1_555 1_555
C13 P1 1_555 1_555
C14 C13 1_555 1_555
H12 C14 1_555 1_555
C15 C14 1_555 1_555
H13 C15 1_555 1_555
C16 C15 1_555 1_555
H14 C16 1_555 1_555
C17 C16 1_555 1_555
H15 C17 1_555 1_555
C18 C13 1_555 1_555
H16 C18 1_555 1_555
C19 C20 1_555 1_555
C20 H17 1_555 1_555
C21 C20 1_555 1_555
H18 C21 1_555 1_555
C22 N3 1_555 1_555
H19 C22 1_555 1_555
C23 C19 1_555 1_555
H20 C23 1_555 1_555
C24 N4 1_555 1_555
H21 C24 1_555 1_555
H22 C24 1_555 1_555
C25 P2 1_555 1_555
C26 C25 1_555 1_555
H23 C26 1_555 1_555
C27 C26 1_555 1_555
H24 C27 1_555 1_555
C28 C27 1_555 1_555
H25 C28 1_555 1_555
C29 C28 1_555 1_555
H26 C29 1_555 1_555
C30 C25 1_555 1_555
H27 C30 1_555 1_555
C31 P2 1_555 1_555
C32 C31 1_555 1_555
H28 C32 1_555 1_555
C33 C32 1_555 1_555
H29 C33 1_555 1_555
C34 C33 1_555 1_555
H30 C34 1_555 1_555
C35 C34 1_555 1_555
H31 C35 1_555 1_555
C36 C31 1_555 1_555
H32 C36 1_555 1_555
C37 Cl3 1_555 1_555
Cl4 C37 1_555 1_555
O1 C38 1_555 1_555
Ag1B N1 1_555 1_555
Ag2B N3 1_555 1_555
N1B Ag1 1_555 1_555
N3B Ag2 1_555 1_555
Ag2 Cl1 1_555 1_555
Ag2 Cl2 1_555 1_555
C4 C5 1_555 1_555
C11 C12 1_555 1_555
C17 C18 1_555 1_555
C22 C23 1_555 1_555
C29 C30 1_555 1_555
C35 C36 1_555 1_555

#END
