
#######################################################################
#
#                 Cambridge Crystallographic Data Centre
#                                CCDC 
#
#######################################################################
#
# If this CIF has been generated from an entry in the Cambridge 
# Structural Database, then it will include bibliographic, chemical, 
# crystal, experimental, refinement or atomic coordinate data resulting 
# from the CCDC's data processing and validation procedures.
#
#######################################################################

data_HUTHIO
_symmetry_cell_setting           triclinic
_symmetry_space_group_name_H-M   'P -1'
_symmetry_Int_Tables_number      2
_space_group_name_Hall           '-P 1'
loop_
_symmetry_equiv_pos_site_id
_symmetry_equiv_pos_as_xyz
1 x,y,z
2 -x,-y,-z
_cell_length_a                   8.7081(17)
_cell_length_b                   12.027(2)
_cell_length_c                   19.966(4)
_cell_angle_alpha                79.33(3)
_cell_angle_beta                 89.42(3)
_cell_angle_gamma                72.74(3)
_cell_volume                     1960.15
loop_
_atom_site_label
_atom_site_type_symbol
_atom_site_fract_x
_atom_site_fract_y
_atom_site_fract_z
C1 C 0.1228(6) -0.0346(5) 1.0642(3)
H1 H 0.0908 0.0475 1.0658
N1 N 0.2348(5) -0.0720(4) 1.0197(2)
P1 P -0.30131(17) -0.20550(12) 1.14995(7)
Ag1 Ag -0.33564(5) -0.05311(4) 1.05132(2)
C2 C 0.0513(6) -0.1049(5) 1.1071(3)
H2 H -0.0246 -0.0718 1.1380
N2 N 0.0252(5) -0.3023(4) 1.1450(2)
H3 H 0.0587 -0.3774 1.1411
C3 C 0.0907(6) -0.2261(5) 1.1053(3)
N3 N -0.5832(6) 0.1165(4) 1.0551(3)
C4 C 0.2073(7) -0.2656(5) 1.0586(3)
H4 H 0.2403 -0.3467 1.0547
N4 N -0.6950(10) 0.2417(6) 1.1354(4)
C5 C 0.2728(7) -0.1885(5) 1.0191(3)
H5 H 0.3517 -0.2193 0.9887
N5 N -0.8473(8) 0.4466(5) 1.1259(4)
C6 C -0.0963(6) -0.2685(5) 1.1934(3)
H6 H -0.0938 -0.3387 1.2287
H7 H -0.0726 -0.2087 1.2163
C7 C -0.3432(7) -0.3364(5) 1.1309(3)
C8 C -0.2807(9) -0.3800(5) 1.0745(4)
H9 H -0.2145 -0.3424 1.0465
C9 C -0.3124(11) -0.4781(7) 1.0575(5)
H10 H -0.2678 -0.5073 1.0183
C10 C -0.4080(11) -0.5329(6) 1.0973(5)
H11 H -0.4297 -0.6001 1.0858
C11 C -0.4725(9) -0.4904(6) 1.1539(4)
H12 H -0.5390 -0.5283 1.1815
C12 C -0.4414(8) -0.3929(5) 1.1711(3)
H13 H -0.4867 -0.3639 1.2103
C13 C -0.4343(6) -0.1638(4) 1.2180(3)
C14 C -0.5937(7) -0.0995(6) 1.1991(3)
H14 H -0.6268 -0.0757 1.1521
C15 C -0.7041(8) -0.0698(6) 1.2476(4)
H15 H -0.8127 -0.0260 1.2340
C16 C -0.6566(8) -0.1038(5) 1.3159(3)
H16 H -0.7330 -0.0836 1.3494
C17 C -0.5008(8) -0.1660(5) 1.3358(3)
H17 H -0.4691 -0.1887 1.3829
C18 C -0.3873(7) -0.1966(5) 1.2870(3)
H18 H -0.2786 -0.2396 1.3009
C19 C -0.6477(12) 0.1817(6) 1.0860(5)
C20 C -0.7831(12) 0.3547(7) 1.1223(5)
N1A N -0.2348(5) 0.0720(4) 0.9803(2)
Ag1A Ag 0.33564(5) 0.05311(4) 0.94868(2)
Ag1A_2 Ag -0.66436(5) 0.05311(4) 0.94868(2)
N3A N -0.4168(6) -0.1165(4) 0.9449(3)
P2 P 0.03416(18) 0.21497(12) 0.35287(7)
Ag2 Ag 0.11880(5) 0.05599(4) 0.44911(2)
N6 N 0.6774(5) 0.0773(4) 0.4820(2)
N7 N 0.2873(6) 0.3090(4) 0.3570(2)
H8 H 0.2627 0.3843 0.3600
N8 N 0.0055(6) -0.1117(4) 0.4426(2)
N9 N -0.0047(8) -0.2401(5) 0.3618(3)
N10 N 0.1845(9) -0.4309(5) 0.3510(3)
C21 C 0.5955(6) 0.0409(4) 0.4382(3)
H19 H 0.6284 -0.0414 0.4372
C22 C 0.4694(7) 0.1115(5) 0.3951(3)
H20 H 0.4215 0.0788 0.3642
C23 C 0.4115(7) 0.2325(5) 0.3968(3)
C24 C 0.4951(7) 0.2729(5) 0.4432(3)
H21 H 0.4608 0.3540 0.4472
C25 C 0.6244(7) 0.1958(5) 0.4821(3)
H22 H 0.6807 0.2266 0.5110
C26 C 0.1903(7) 0.2767(5) 0.3090(3)
H23 H 0.2615 0.2171 0.2853
H24 H 0.1368 0.3478 0.2742
C27 C -0.1095(7) 0.3450(5) 0.3767(3)
C28 C -0.0799(8) 0.3772(5) 0.4372(3)
H25 H 0.0158 0.3340 0.4642
C29 C -0.1903(10) 0.4730(6) 0.4590(4)
H26 H -0.1689 0.4960 0.5001
C30 C -0.3289(10) 0.5330(6) 0.4206(4)
H27 H -0.4057 0.5963 0.4361
C31 C -0.3590(9) 0.5030(6) 0.3602(4)
H28 H -0.4553 0.5465 0.3337
C32 C -0.2491(8) 0.4093(5) 0.3373(3)
H29 H -0.2694 0.3894 0.2950
C33 C -0.0688(6) 0.1815(5) 0.2837(3)
C34 C -0.0565(7) 0.2259(5) 0.2149(3)
H30 H 0.0106 0.2751 0.2021
C35 C -0.1424(8) 0.1986(6) 0.1641(3)
H31 H -0.1333 0.2292 0.1174
C36 C -0.2389(8) 0.1280(5) 0.1823(3)
H32 H -0.2976 0.1096 0.1483
C37 C -0.2510(8) 0.0833(6) 0.2506(4)
H33 H -0.3182 0.0342 0.2634
C38 C -0.1657(8) 0.1100(5) 0.3006(3)
H34 H -0.1746 0.0783 0.3472
C39 C 0.0076(6) -0.1762(5) 0.4061(3)
C40 C 0.1025(8) -0.3428(6) 0.3590(3)
Ag2A Ag 0.88120(5) -0.05599(4) 0.55089(2)
Ag2A_2 Ag -0.11880(5) -0.05599(4) 0.55089(2)
N6A N 0.3226(5) -0.0773(4) 0.5180(2)
N8A N -0.0055(6) 0.1117(4) 0.5574(2)
loop_
_geom_bond_atom_site_label_1
_geom_bond_atom_site_label_2
_geom_bond_site_symmetry_1
_geom_bond_site_symmetry_2
C1 H1 1_555 1_555
N1 C1 1_555 1_555
P1 Ag1 1_555 1_555
Ag1 N3 1_555 1_555
C2 C1 1_555 1_555
H2 C2 1_555 1_555
N2 H3 1_555 1_555
P2 Ag2 1_555 1_555
Ag2 N8 1_555 1_555
C3 C2 1_555 1_555
N3 C19 1_555 1_555
C4 C3 1_555 1_555
H4 C4 1_555 1_555
N4 C19 1_555 1_555
C5 N1 1_555 1_555
H5 C5 1_555 1_555
N5 C20 1_555 1_555
C6 P1 1_555 1_555
H6 C6 1_555 1_555
H7 C6 1_555 1_555
N6 C21 1_555 1_555
C7 P1 1_555 1_555
N7 H8 1_555 1_555
C8 C7 1_555 1_555
H9 C8 1_555 1_555
N8 C39 1_555 1_555
C9 C8 1_555 1_555
H10 C9 1_555 1_555
N9 C39 1_555 1_555
C10 C9 1_555 1_555
H11 C10 1_555 1_555
N10 C40 1_555 1_555
C11 C10 1_555 1_555
H12 C11 1_555 1_555
C12 C7 1_555 1_555
H13 C12 1_555 1_555
C13 P1 1_555 1_555
C14 C13 1_555 1_555
H14 C14 1_555 1_555
C15 C14 1_555 1_555
H15 C15 1_555 1_555
C16 C15 1_555 1_555
H16 C16 1_555 1_555
C17 C16 1_555 1_555
H17 C17 1_555 1_555
C18 C13 1_555 1_555
H18 C18 1_555 1_555
C20 N4 1_555 1_555
C21 H19 1_555 1_555
C22 C21 1_555 1_555
H20 C22 1_555 1_555
C23 N7 1_555 1_555
C24 C23 1_555 1_555
H21 C24 1_555 1_555
C25 N6 1_555 1_555
H22 C25 1_555 1_555
C26 P2 1_555 1_555
H23 C26 1_555 1_555
H24 C26 1_555 1_555
C27 P2 1_555 1_555
C28 C27 1_555 1_555
H25 C28 1_555 1_555
C29 C28 1_555 1_555
H26 C29 1_555 1_555
C30 C29 1_555 1_555
H27 C30 1_555 1_555
C31 C30 1_555 1_555
H28 C31 1_555 1_555
C32 C27 1_555 1_555
H29 C32 1_555 1_555
C33 P2 1_555 1_555
C34 C33 1_555 1_555
H30 C34 1_555 1_555
C35 C34 1_555 1_555
H31 C35 1_555 1_555
C36 C35 1_555 1_555
H32 C36 1_555 1_555
C37 C36 1_555 1_555
H33 C37 1_555 1_555
C38 C33 1_555 1_555
H34 C38 1_555 1_555
C40 N9 1_555 1_555
N1A Ag1 1_555 1_555
Ag1A N1 1_555 1_555
Ag1A_2 N3 1_555 1_555
Ag2A N6 1_555 1_555
Ag2A_2 N8 1_555 1_555
N3A Ag1 1_555 1_555
N6A Ag2 1_555 1_555
N8A Ag2 1_555 1_555
N2 C3 1_555 1_555
N2 C6 1_555 1_555
C4 C5 1_555 1_555
N7 C26 1_555 1_555
C11 C12 1_555 1_555
C17 C18 1_555 1_555
C22 C23 1_555 1_555
C24 C25 1_555 1_555
C31 C32 1_555 1_555
C37 C38 1_555 1_555
Ag1A_2 N3A 1_555 1_555
Ag2A_2 N8A 1_555 1_555

#END
