
#######################################################################
#
#                 Cambridge Crystallographic Data Centre
#                                CCDC 
#
#######################################################################
#
# If this CIF has been generated from an entry in the Cambridge 
# Structural Database, then it will include bibliographic, chemical, 
# crystal, experimental, refinement or atomic coordinate data resulting 
# from the CCDC's data processing and validation procedures.
#
#######################################################################

data_HUTQUJ
_symmetry_cell_setting           monoclinic
_symmetry_space_group_name_H-M   'C 2/c'
_symmetry_Int_Tables_number      15
_space_group_name_Hall           '-C 2yn'
loop_
_symmetry_equiv_pos_site_id
_symmetry_equiv_pos_as_xyz
1 x,y,z
2 -x,y,1/2-z
3 1/2+x,1/2+y,z
4 1/2-x,1/2+y,1/2-z
5 -x,-y,-z
6 x,-y,1/2+z
7 1/2-x,1/2-y,-z
8 1/2+x,1/2-y,1/2+z
_cell_length_a                   8.0219(14)
_cell_length_b                   10.4085(17)
_cell_length_c                   20.852(4)
_cell_angle_alpha                90
_cell_angle_beta                 99.617(2)
_cell_angle_gamma                90
_cell_volume                     1716.59
loop_
_atom_site_label
_atom_site_type_symbol
_atom_site_fract_x
_atom_site_fract_y
_atom_site_fract_z
Pr1 Pr 0.0000 0.95497(3) 0.2500
Ag1 Ag -0.5000 0.87737(5) 0.2500
C1 C -0.2010(5) 0.8273(4) 0.3690(2)
C2 C -0.0297(5) 0.8588(4) 0.4083(2)
C3 C 0.0068(5) 0.8396(4) 0.4750(2)
H1 H -0.0701 0.7996 0.4973
C4 C 0.1638(6) 0.8828(4) 0.5076(2)
C5 C 0.2738(5) 0.9396(5) 0.4721(2)
H2 H 0.3775 0.9706 0.4930
C6 C 0.2300(5) 0.9503(4) 0.4057(2)
C7 C 0.3463(5) 1.0113(4) 0.3640(2)
N1 N 0.0804(4) 0.9108(4) 0.37382(17)
O1 O -0.2248(4) 0.8701(3) 0.31026(15)
O2 O -0.3047(4) 0.7669(3) 0.39466(16)
O3 O 0.2025(4) 0.8685(3) 0.57264(15)
H3 H 0.2908 0.9067 0.5862
O4 O 0.4870(4) 1.0471(4) 0.39053(16)
O5 O 0.2887(4) 1.0211(3) 0.30347(14)
O6 O 0.0000 0.7130(6) 0.2500
H4 H 0.0544 0.6541 0.2343
O7 O 0.0590(4) 1.1582(3) 0.18796(16)
H5 H 0.0944 1.1376 0.1689
H6 H -0.0334 1.1719 0.1621
Ag1_2 Ag 0.5000 0.87737(5) 0.2500
Ag1B Ag 0.0000 1.37737(5) 0.2500
C1A C 0.2010(5) 0.8273(4) 0.1310(2)
C2A C 0.0297(5) 0.8588(4) 0.0917(2)
C3A C -0.0068(5) 0.8396(4) 0.0250(2)
H1A H 0.0701 0.7996 0.0027
C4A C -0.1638(6) 0.8828(4) -0.0076(2)
C5A C -0.2738(5) 0.9396(5) 0.0279(2)
H2A H -0.3775 0.9706 0.0070
C6A C -0.2300(5) 0.9503(4) 0.0943(2)
C7A C -0.3463(5) 1.0113(4) 0.1360(2)
N1A N -0.0804(4) 0.9108(4) 0.12618(17)
O1A O 0.2248(4) 0.8701(3) 0.18974(15)
O1A_2 O -0.7752(4) 0.8701(3) 0.18974(15)
O2A O 0.3047(4) 0.7669(3) 0.10534(16)
O3A O -0.2025(4) 0.8685(3) -0.07264(15)
H3A H -0.2908 0.9067 -0.0862
O4A O -0.4870(4) 1.0471(4) 0.10947(16)
O5A O -0.2887(4) 1.0211(3) 0.19653(14)
O5_2 O -0.7113(4) 1.0211(3) 0.30347(14)
H4A H -0.0544 0.6541 0.2657
O7A O -0.0590(4) 1.1582(3) 0.31204(16)
O7B O -0.4410(4) 0.6582(3) 0.18796(16)
O7C O -0.5590(4) 0.6582(3) 0.31204(16)
H5A H -0.0944 1.1376 0.3311
H5B H -0.4056 0.6376 0.1689
H5C H -0.5944 0.6376 0.3311
H6A H 0.0334 1.1719 0.3379
H6B H -0.5334 0.6719 0.1621
H6C H -0.4666 0.6719 0.3379
loop_
_geom_bond_atom_site_label_1
_geom_bond_atom_site_label_2
_geom_bond_site_symmetry_1
_geom_bond_site_symmetry_2
Pr1 N1 1_555 1_555
Ag1 O1 1_555 1_555
C1 C2 1_555 1_555
C2 C3 1_555 1_555
C3 H1 1_555 1_555
C4 C3 1_555 1_555
C5 C4 1_555 1_555
H2 C5 1_555 1_555
C6 C5 1_555 1_555
C7 C6 1_555 1_555
N1 C2 1_555 1_555
O1 Pr1 1_555 1_555
O2 C1 1_555 1_555
O3 C4 1_555 1_555
H3 O3 1_555 1_555
O4 C7 1_555 1_555
O5 Pr1 1_555 1_555
O6 Pr1 1_555 1_555
H4 O6 1_555 1_555
O7 Pr1 1_555 1_555
H5 O7 1_555 1_555
H6 O7 1_555 1_555
Ag1_2 O5 1_555 1_555
Ag1B O7 1_555 1_555
C1A C2A 1_555 1_555
C2A C3A 1_555 1_555
C3A H1A 1_555 1_555
C4A C3A 1_555 1_555
C5A C4A 1_555 1_555
H2A C5A 1_555 1_555
C6A C5A 1_555 1_555
C7A C6A 1_555 1_555
N1A Pr1 1_555 1_555
O1A Pr1 1_555 1_555
O1A_2 Ag1 1_555 1_555
O2A C1A 1_555 1_555
O3A C4A 1_555 1_555
H3A O3A 1_555 1_555
O4A C7A 1_555 1_555
O5A Pr1 1_555 1_555
O5_2 Ag1 1_555 1_555
H4A O6 1_555 1_555
O7A Pr1 1_555 1_555
O7B Ag1 1_555 1_555
O7C Ag1 1_555 1_555
H5A O7A 1_555 1_555
H5B O7B 1_555 1_555
H5C O7C 1_555 1_555
H6A O7A 1_555 1_555
H6B O7B 1_555 1_555
H6C O7C 1_555 1_555
Ag1 O5A 1_555 1_555
C1 O1 1_555 1_555
C6 N1 1_555 1_555
C7 O5 1_555 1_555
Ag1_2 O1A 1_555 1_555
Ag1B O7A 1_555 1_555
C1A O1A 1_555 1_555
C2A N1A 1_555 1_555
C6A N1A 1_555 1_555
C7A O5A 1_555 1_555

#END
