
#######################################################################
#
#                 Cambridge Crystallographic Data Centre
#                                CCDC 
#
#######################################################################
#
# If this CIF has been generated from an entry in the Cambridge 
# Structural Database, then it will include bibliographic, chemical, 
# crystal, experimental, refinement or atomic coordinate data resulting 
# from the CCDC's data processing and validation procedures.
#
#######################################################################

data_HUTQET
_symmetry_cell_setting           orthorhombic
_symmetry_space_group_name_H-M   'P n n a'
_symmetry_Int_Tables_number      52
_space_group_name_Hall           '-P 2a 2bc'
loop_
_symmetry_equiv_pos_site_id
_symmetry_equiv_pos_as_xyz
1 x,y,z
2 1/2-x,-y,z
3 1/2-x,1/2+y,1/2-z
4 x,1/2-y,1/2-z
5 -x,-y,-z
6 1/2+x,y,-z
7 1/2+x,1/2-y,1/2+z
8 -x,1/2+y,1/2+z
_cell_length_a                   8.2870(15)
_cell_length_b                   14.539(3)
_cell_length_c                   13.680(3)
_cell_angle_alpha                90
_cell_angle_beta                 90
_cell_angle_gamma                90
_cell_volume                     1648.23
loop_
_atom_site_label
_atom_site_type_symbol
_atom_site_fract_x
_atom_site_fract_y
_atom_site_fract_z
Tm1 Tm 0.02211(6) 0.2500 -0.2500
Ag1 Ag -0.2500 0.5000 -0.05121(8)
Ag2 Ag 0.44526(10) 0.49016(5) -0.17918(5)
O1 O -0.0530(6) 0.1407(4) -0.3765(4)
O2 O -0.0724(7) 0.0962(4) -0.5316(3)
O3 O 0.3201(6) 0.3365(3) -0.6853(3)
O4 O 0.4096(7) 0.4435(4) -0.3347(4)
O5 O 0.2157(8) 0.3663(4) -0.2545(3)
O6 O 0.7500 0.0000 -0.2733(7)
H1 H 0.6613 0.0029 -0.2422
N1 N 0.1361(7) 0.2753(4) -0.4128(4)
C1 C -0.0193(8) 0.1492(5) -0.4667(5)
C2 C 0.0921(9) 0.2284(5) -0.4932(6)
C3 C 0.1424(10) 0.2473(5) -0.5846(6)
H2 H 0.1049 0.2129 -0.6372
C4 C 0.2537(8) 0.3207(5) -0.5997(5)
C5 C 0.3001(9) 0.3701(5) -0.5157(5)
H3 H 0.3715 0.4192 -0.5213
C6 C 0.2405(8) 0.3463(5) -0.4259(5)
C7 C 0.2936(9) 0.3893(5) -0.3331(5)
Tm1E Tm 0.52211(6) 0.2500 -0.7500
Tm1E_2 Tm 0.52211(6) 0.2500 0.2500
Ag1B Ag -0.2500 0.0000 -0.44879(8)
Ag1B_2 Ag 0.7500 0.0000 -0.44879(8)
Ag2F Ag -0.05474(10) 0.00984(5) -0.67918(5)
Ag2B Ag 0.05474(10) -0.00984(5) -0.32082(5)
Ag2A Ag 0.05474(10) 0.50984(5) -0.17918(5)
Ag2C Ag 0.44526(10) 0.00984(5) -0.32082(5)
Ag2E Ag -0.05474(10) 0.49016(5) 0.17918(5)
Ag2B_2 Ag 1.05474(10) -0.00984(5) -0.32082(5)
O1C O -0.0530(6) 0.3593(4) -0.1235(4)
O1B O 0.5530(6) 0.6407(4) -0.1235(4)
O1B_2 O -0.4470(6) 0.6407(4) -0.1235(4)
O1A O 0.5530(6) -0.1407(4) -0.3765(4)
O2F O 0.4276(7) 0.4038(4) -0.0316(3)
O2C O -0.0724(7) 0.4038(4) 0.0316(3)
O2B O -0.4276(7) 0.5962(4) 0.0316(3)
O2E O 0.4276(7) 0.0962(4) -0.4684(3)
O3E O -0.1799(6) 0.3365(3) -0.3147(3)
O3F O -0.1799(6) 0.1635(3) -0.1853(3)
O3C O 0.3201(6) 0.1635(3) 0.1853(3)
O4C O 0.4096(7) 0.0565(4) -0.1653(4)
O5C O 0.2157(8) 0.1337(4) -0.2455(3)
O5B O 0.2843(8) -0.1337(4) -0.2455(3)
O5A O 0.2843(8) 0.6337(4) -0.2545(3)
O6B O 0.7500 0.5000 -0.2267(7)
O6B_2 O -0.2500 0.5000 -0.2267(7)
H1C H 0.6613 0.4971 -0.2578
H1B H 0.8387 0.5029 -0.2578
H1B_2 H -0.1613 0.5029 -0.2578
H1C_2 H -0.3387 0.4971 -0.2578
H1A H 0.8387 -0.0029 -0.2422
N1C N 0.1361(7) 0.2247(4) -0.0872(4)
C1C C -0.0193(8) 0.3508(5) -0.0333(5)
C2C C 0.0921(9) 0.2716(5) -0.0068(6)
C3C C 0.1424(10) 0.2527(5) 0.0846(6)
H2C H 0.1049 0.2871 0.1372
C4C C 0.2537(8) 0.1793(5) 0.0997(5)
C5C C 0.3001(9) 0.1299(5) 0.0157(5)
H3C H 0.3715 0.0808 0.0213
C6C C 0.2405(8) 0.1537(5) -0.0741(5)
C7C C 0.2936(9) 0.1107(5) -0.1669(5)
loop_
_geom_bond_atom_site_label_1
_geom_bond_atom_site_label_2
_geom_bond_site_symmetry_1
_geom_bond_site_symmetry_2
Tm1 O1 1_555 1_555
Ag1 O1C 1_555 1_555
Ag2 O4 1_555 1_555
O1 C1 1_555 1_555
O2 C1 1_555 1_555
O3 C4 1_555 1_555
O4 C7 1_555 1_555
O5 Tm1 1_555 1_555
O6 H1 1_555 1_555
N1 Tm1 1_555 1_555
C1 C2 1_555 1_555
C2 N1 1_555 1_555
C3 C2 1_555 1_555
H2 C3 1_555 1_555
C4 C3 1_555 1_555
C5 C4 1_555 1_555
H3 C5 1_555 1_555
C6 N1 1_555 1_555
C7 O5 1_555 1_555
Tm1E O3 1_555 1_555
Tm1E_2 O3C 1_555 1_555
Ag1B O1 1_555 1_555
Ag1B_2 O6 1_555 1_555
Ag2F O2 1_555 1_555
Ag2B O1 1_555 1_555
Ag2A O5 1_555 1_555
Ag2C O6 1_555 1_555
Ag2E O2C 1_555 1_555
Ag2B_2 O6 1_555 1_555
O1C Tm1 1_555 1_555
O1B Ag2 1_555 1_555
O1B_2 Ag1 1_555 1_555
O1A Ag1B_2 1_555 1_555
O2F Ag2 1_555 1_555
O2C Ag1 1_555 1_555
O2B Ag1 1_555 1_555
O2E Ag2C 1_555 1_555
O3E Tm1 1_555 1_555
O3F Tm1 1_555 1_555
O3C C4C 1_555 1_555
O4C Ag2C 1_555 1_555
O5C Tm1 1_555 1_555
O5B Ag2B 1_555 1_555
O5A Ag2 1_555 1_555
O6B Ag2 1_555 1_555
O6B_2 Ag1 1_555 1_555
H1C O6B 1_555 1_555
H1B O6B 1_555 1_555
H1B_2 O6B_2 1_555 1_555
H1C_2 O6B_2 1_555 1_555
H1A O6 1_555 1_555
N1C Tm1 1_555 1_555
C1C O1C 1_555 1_555
C2C N1C 1_555 1_555
C3C C2C 1_555 1_555
H2C C3C 1_555 1_555
C4C C3C 1_555 1_555
C5C C4C 1_555 1_555
H3C C5C 1_555 1_555
C6C N1C 1_555 1_555
C7C O4C 1_555 1_555
Ag2 O5 1_555 1_555
O2 Ag1B 1_555 1_555
C5 C6 1_555 1_555
C6 C7 1_555 1_555
Ag2B O5C 1_555 1_555
Ag2A O1C 1_555 1_555
Ag2A O5A 1_555 1_555
Ag2A O6B_2 1_555 1_555
Ag2C O1A 1_555 1_555
Ag2C O5C 1_555 1_555
Ag2C O5B 1_555 1_555
O2C C1C 1_555 1_555
O5C C7C 1_555 1_555
C1C C2C 1_555 1_555
C5C C6C 1_555 1_555
C6C C7C 1_555 1_555

#END
