
#######################################################################
#
#                 Cambridge Crystallographic Data Centre
#                                CCDC 
#
#######################################################################
#
# If this CIF has been generated from an entry in the Cambridge 
# Structural Database, then it will include bibliographic, chemical, 
# crystal, experimental, refinement or atomic coordinate data resulting 
# from the CCDC's data processing and validation procedures.
#
#######################################################################

data_HUTQIX
_symmetry_cell_setting           orthorhombic
_symmetry_space_group_name_H-M   'P n n a'
_symmetry_Int_Tables_number      52
_space_group_name_Hall           '-P 2a 2bc'
loop_
_symmetry_equiv_pos_site_id
_symmetry_equiv_pos_as_xyz
1 x,y,z
2 1/2-x,-y,z
3 1/2-x,1/2+y,1/2-z
4 x,1/2-y,1/2-z
5 -x,-y,-z
6 1/2+x,y,-z
7 1/2+x,1/2-y,1/2+z
8 -x,1/2+y,1/2+z
_cell_length_a                   8.296(3)
_cell_length_b                   14.545(5)
_cell_length_c                   13.647(5)
_cell_angle_alpha                90
_cell_angle_beta                 90
_cell_angle_gamma                90
_cell_volume                     1646.72
loop_
_atom_site_label
_atom_site_type_symbol
_atom_site_fract_x
_atom_site_fract_y
_atom_site_fract_z
Yb1 Yb 0.02114(4) 0.2500 0.2500
Ag1 Ag 0.44504(8) 0.49073(4) 0.32112(4)
Ag2 Ag -0.2500 0.5000 0.44869(6)
O1 O 0.2155(6) 0.3652(3) 0.2461(3)
O2 O 0.4077(6) 0.4430(3) 0.1663(3)
O3 O 0.3210(5) 0.3355(2) -0.1852(3)
O4 O -0.0731(6) 0.4032(3) 0.5320(3)
O5 O -0.0546(5) 0.1401(2) 0.1234(3)
O6 O 0.7500 0.0000 0.2269(5)
H1 H 0.6614 0.0027 0.2581
N1 N 0.1358(6) 0.2757(3) 0.0882(3)
C1 C 0.2914(8) 0.3883(4) 0.1683(4)
C2 C 0.2393(7) 0.3448(4) 0.0751(4)
C3 C 0.2995(7) 0.3695(4) -0.0157(4)
H2 H 0.3699 0.4190 -0.0213
C4 C 0.2541(7) 0.3198(4) -0.0992(4)
C5 C 0.1431(7) 0.2474(3) -0.0853(4)
H3 H 0.1059 0.2136 -0.1385
C6 C 0.0906(7) 0.2274(3) 0.0078(4)
C7 C -0.0207(7) 0.1495(4) 0.0333(4)
Yb1E Yb 0.52114(4) 0.2500 0.7500
Yb1E_2 Yb 0.52114(4) 0.2500 -0.2500
Ag1B Ag 0.05496(8) -0.00927(4) 0.17888(4)
Ag1A Ag 0.05496(8) 0.50927(4) 0.32112(4)
Ag1E Ag -0.05496(8) 0.49073(4) 0.67888(4)
Ag1C Ag 0.44504(8) 0.00927(4) 0.17888(4)
Ag1F Ag -0.05496(8) 0.00927(4) -0.17888(4)
Ag1B_2 Ag 1.05496(8) -0.00927(4) 0.17888(4)
Ag2B Ag -0.2500 0.0000 0.05131(6)
Ag2B_2 Ag 0.7500 0.0000 0.05131(6)
O1C O 0.2155(6) 0.1348(3) 0.2539(3)
O1A O 0.2845(6) 0.6348(3) 0.2461(3)
O1B O 0.2845(6) -0.1348(3) 0.2539(3)
O2C O 0.4077(6) 0.0570(3) 0.3337(3)
O3F O -0.1790(5) 0.1645(2) 0.3148(3)
O3E O -0.1790(5) 0.3355(2) 0.1852(3)
O3C O 0.3210(5) 0.1645(2) 0.6852(3)
O4A O -0.4269(6) 0.5968(3) 0.5320(3)
O4E O 0.4269(6) 0.4032(3) 0.4680(3)
O4C O -0.0731(6) 0.0968(3) -0.0320(3)
O4F O 0.4269(6) 0.0968(3) 0.0320(3)
O5C O -0.0546(5) 0.3599(2) 0.3766(3)
O5B O -0.4454(5) 0.6401(2) 0.3766(3)
O5B_2 O 0.5546(5) 0.6401(2) 0.3766(3)
O5A O 0.5546(5) -0.1401(2) 0.1234(3)
O6B O 0.7500 0.5000 0.2731(5)
O6B_2 O -0.2500 0.5000 0.2731(5)
H1C H -0.3386 0.4973 0.2419
H1C_2 H 0.6614 0.4973 0.2419
H1B H 0.8386 0.5027 0.2419
H1B_2 H -0.1614 0.5027 0.2419
H1A H 0.8386 -0.0027 0.2581
N1C N 0.1358(6) 0.2243(3) 0.4118(3)
C1C C 0.2914(8) 0.1117(4) 0.3317(4)
C2C C 0.2393(7) 0.1552(4) 0.4249(4)
C3C C 0.2995(7) 0.1305(4) 0.5157(4)
H2C H 0.3699 0.0810 0.5213
C4C C 0.2541(7) 0.1802(4) 0.5992(4)
C5C C 0.1431(7) 0.2526(3) 0.5853(4)
H3C H 0.1059 0.2864 0.6385
C6C C 0.0906(7) 0.2726(3) 0.4922(4)
C7C C -0.0207(7) 0.3505(4) 0.4667(4)
loop_
_geom_bond_atom_site_label_1
_geom_bond_atom_site_label_2
_geom_bond_site_symmetry_1
_geom_bond_site_symmetry_2
Yb1 O1 1_555 1_555
Ag1 O1 1_555 1_555
Ag2 O4 1_555 1_555
O1 C1 1_555 1_555
O2 Ag1 1_555 1_555
O3 C4 1_555 1_555
O4 Ag1E 1_555 1_555
O5 Yb1 1_555 1_555
O6 H1 1_555 1_555
N1 Yb1 1_555 1_555
C1 O2 1_555 1_555
C2 N1 1_555 1_555
C3 C2 1_555 1_555
H2 C3 1_555 1_555
C4 C3 1_555 1_555
C5 C4 1_555 1_555
H3 C5 1_555 1_555
C6 N1 1_555 1_555
C7 O5 1_555 1_555
Yb1E O3C 1_555 1_555
Yb1E_2 O3 1_555 1_555
Ag1B O5 1_555 1_555
Ag1A O1 1_555 1_555
Ag1C O6 1_555 1_555
Ag1F O4C 1_555 1_555
Ag1B_2 O6 1_555 1_555
Ag2B O5 1_555 1_555
Ag2B_2 O6 1_555 1_555
O1C Yb1 1_555 1_555
O1A Ag1 1_555 1_555
O1B Ag1B 1_555 1_555
O2C Ag1C 1_555 1_555
O3F Yb1 1_555 1_555
O3E Yb1 1_555 1_555
O3C C4C 1_555 1_555
O4A Ag2 1_555 1_555
O4E Ag1 1_555 1_555
O4C C7 1_555 1_555
O4F Ag1C 1_555 1_555
O5C Yb1 1_555 1_555
O5B Ag2 1_555 1_555
O5B_2 Ag1 1_555 1_555
O5A Ag1C 1_555 1_555
O6B Ag1 1_555 1_555
O6B_2 Ag2 1_555 1_555
H1C O6B_2 1_555 1_555
H1C_2 O6B 1_555 1_555
H1B O6B 1_555 1_555
H1B_2 O6B_2 1_555 1_555
H1A O6 1_555 1_555
N1C Yb1 1_555 1_555
C1C O1C 1_555 1_555
C2C N1C 1_555 1_555
C3C C2C 1_555 1_555
H2C C3C 1_555 1_555
C4C C3C 1_555 1_555
C5C C4C 1_555 1_555
H3C C5C 1_555 1_555
C6C N1C 1_555 1_555
C7C O4 1_555 1_555
Ag2 O5C 1_555 1_555
C1 C2 1_555 1_555
C5 C6 1_555 1_555
C6 C7 1_555 1_555
Ag1B O1C 1_555 1_555
Ag1A O1A 1_555 1_555
Ag1A O5C 1_555 1_555
Ag1A O6B_2 1_555 1_555
Ag1C O1C 1_555 1_555
Ag1C O1B 1_555 1_555
Ag2B O4C 1_555 1_555
Ag2B_2 O5A 1_555 1_555
O2C C1C 1_555 1_555
O5C C7C 1_555 1_555
C1C C2C 1_555 1_555
C5C C6C 1_555 1_555
C6C C7C 1_555 1_555

#END
