
#######################################################################
#
#                 Cambridge Crystallographic Data Centre
#                                CCDC 
#
#######################################################################
#
# If this CIF has been generated from an entry in the Cambridge 
# Structural Database, then it will include bibliographic, chemical, 
# crystal, experimental, refinement or atomic coordinate data resulting 
# from the CCDC's data processing and validation procedures.
#
#######################################################################

data_HUTQOD
_symmetry_cell_setting           orthorhombic
_symmetry_space_group_name_H-M   'P n n a'
_symmetry_Int_Tables_number      52
_space_group_name_Hall           '-P 2a 2bc'
loop_
_symmetry_equiv_pos_site_id
_symmetry_equiv_pos_as_xyz
1 x,y,z
2 1/2-x,-y,z
3 1/2-x,1/2+y,1/2-z
4 x,1/2-y,1/2-z
5 -x,-y,-z
6 1/2+x,y,-z
7 1/2+x,1/2-y,1/2+z
8 -x,1/2+y,1/2+z
_cell_length_a                   8.2603(12)
_cell_length_b                   14.530(2)
_cell_length_c                   13.796(2)
_cell_angle_alpha                90
_cell_angle_beta                 90
_cell_angle_gamma                90
_cell_volume                     1655.83
loop_
_atom_site_label
_atom_site_type_symbol
_atom_site_fract_x
_atom_site_fract_y
_atom_site_fract_z
Dy1 Dy 0.02603(4) 0.7500 0.2500
Ag1 Ag 0.44481(6) 0.98839(3) 0.18055(3)
Ag2 Ag -0.2500 0.5000 0.44892(5)
O1 O 0.2252(4) 0.8676(2) 0.2576(2)
O2 O 0.4141(5) 0.9458(3) 0.3394(3)
O3 O 0.3195(4) 0.8377(2) 0.6858(2)
O4 O -0.0697(5) 0.5970(3) 0.5322(2)
O5 O -0.0482(4) 0.6386(2) 0.3778(2)
O6 O 0.7500 1.0000 0.2257(4)
H1 H 0.7738 0.9517 0.2599
N1 N 0.1411(5) 0.7764(3) 0.4135(3)
C1 C 0.2999(6) 0.8910(3) 0.3351(4)
C2 C 0.2429(6) 0.8465(3) 0.4279(4)
C3 C 0.3011(6) 0.8721(3) 0.5176(4)
H2 H 0.3699 0.9225 0.5236
C4 C 0.2554(6) 0.8214(3) 0.6002(3)
C5 C 0.1436(6) 0.7482(3) 0.5852(3)
H3 H 0.1051 0.7143 0.6375
C6 C 0.0932(6) 0.7281(3) 0.4928(4)
C7 C -0.0163(6) 0.6491(3) 0.4667(4)
Dy1E Dy 0.52603(4) 0.7500 0.7500
Dy1E_2 Dy 0.52603(4) 0.7500 -0.2500
Ag1C Ag 0.44481(6) 0.51161(3) 0.31945(3)
Ag1A Ag 0.05519(6) 1.01161(3) 0.18055(3)
Ag1F Ag -0.05519(6) 0.51161(3) 0.68055(3)
Ag1B Ag 0.05519(6) 0.48839(3) 0.31945(3)
Ag1A_2 Ag 1.05519(6) 1.01161(3) 0.18055(3)
Ag1E Ag -0.05519(6) 0.98839(3) -0.18055(3)
Ag2B Ag 0.7500 1.0000 0.05108(5)
Ag2B_2 Ag -0.2500 1.0000 0.05108(5)
O1C O 0.2252(4) 0.6324(2) 0.2424(2)
O1A O 0.2748(4) 1.1324(2) 0.2576(2)
O1B O 0.2748(4) 0.3676(2) 0.2424(2)
O2C O 0.4141(5) 0.5542(3) 0.1606(3)
O3C O 0.3195(4) 0.6623(2) -0.1858(2)
O3E O -0.1805(4) 0.8377(2) 0.3142(2)
O3F O -0.1805(4) 0.6623(2) 0.1858(2)
O4C O -0.0697(5) 0.9030(3) -0.0322(2)
O4F O 0.4303(5) 0.9030(3) 0.0322(2)
O4A O -0.4303(5) 0.4030(3) 0.5322(2)
O4E O 0.4303(5) 0.5970(3) 0.4678(2)
O5C O -0.0482(4) 0.8614(2) 0.1222(2)
O5B O 0.5482(4) 1.1386(2) 0.1222(2)
O5A O -0.4518(4) 0.3614(2) 0.3778(2)
O5A_2 O 0.5482(4) 0.3614(2) 0.3778(2)
O6B O -0.2500 0.5000 0.2743(4)
O6B_2 O 0.7500 0.5000 0.2743(4)
H1A H 0.7262 1.0483 0.2599
H1C H -0.2262 0.5483 0.2401
H1B H -0.2738 0.4517 0.2401
H1C_2 H 0.7738 0.5483 0.2401
H1B_2 H 0.7262 0.4517 0.2401
N1C N 0.1411(5) 0.7236(3) 0.0865(3)
C1C C 0.2999(6) 0.6090(3) 0.1649(4)
C2C C 0.2429(6) 0.6535(3) 0.0721(4)
C3C C 0.3011(6) 0.6279(3) -0.0176(4)
H2C H 0.3699 0.5775 -0.0236
C4C C 0.2554(6) 0.6786(3) -0.1002(3)
C5C C 0.1436(6) 0.7518(3) -0.0852(3)
H3C H 0.1051 0.7857 -0.1375
C6C C 0.0932(6) 0.7719(3) 0.0072(4)
C7C C -0.0163(6) 0.8509(3) 0.0333(4)
loop_
_geom_bond_atom_site_label_1
_geom_bond_atom_site_label_2
_geom_bond_site_symmetry_1
_geom_bond_site_symmetry_2
Dy1 O1 1_555 1_555
Ag1 O1 1_555 1_555
Ag2 O4 1_555 1_555
O1 C1 1_555 1_555
O2 Ag1 1_555 1_555
O3 C4 1_555 1_555
O4 C7 1_555 1_555
O5 Dy1 1_555 1_555
O6 Ag1 1_555 1_555
H1 O6 1_555 1_555
N1 Dy1 1_555 1_555
C1 O2 1_555 1_555
C2 N1 1_555 1_555
C3 C2 1_555 1_555
H2 C3 1_555 1_555
C4 C3 1_555 1_555
C5 C4 1_555 1_555
H3 C5 1_555 1_555
C6 N1 1_555 1_555
C7 O5 1_555 1_555
Dy1E O3 1_555 1_555
Dy1E_2 O3C 1_555 1_555
Ag1C O1C 1_555 1_555
Ag1A O1 1_555 1_555
Ag1F O4 1_555 1_555
Ag1B O5 1_555 1_555
Ag1A_2 O6 1_555 1_555
Ag1E O4C 1_555 1_555
Ag2B O6 1_555 1_555
Ag2B_2 O4C 1_555 1_555
O1C Dy1 1_555 1_555
O1A Ag1 1_555 1_555
O1B Ag1C 1_555 1_555
O2C Ag1C 1_555 1_555
O3C C4C 1_555 1_555
O3E Dy1 1_555 1_555
O3F Dy1 1_555 1_555
O4C C7C 1_555 1_555
O4F Ag1 1_555 1_555
O4A Ag2 1_555 1_555
O4E Ag1C 1_555 1_555
O5C Dy1 1_555 1_555
O5B Ag1 1_555 1_555
O5A Ag2 1_555 1_555
O5A_2 Ag1C 1_555 1_555
O6B Ag2 1_555 1_555
O6B_2 Ag1C 1_555 1_555
H1A O6 1_555 1_555
H1C O6B 1_555 1_555
H1B O6B 1_555 1_555
H1C_2 O6B_2 1_555 1_555
H1B_2 O6B_2 1_555 1_555
N1C Dy1 1_555 1_555
C1C O1C 1_555 1_555
C2C N1C 1_555 1_555
C3C C2C 1_555 1_555
H2C C3C 1_555 1_555
C4C C3C 1_555 1_555
C5C C4C 1_555 1_555
H3C C5C 1_555 1_555
C6C N1C 1_555 1_555
C7C O5C 1_555 1_555
Ag2 O5 1_555 1_555
C1 C2 1_555 1_555
C5 C6 1_555 1_555
C6 C7 1_555 1_555
Ag1A O1A 1_555 1_555
Ag1A O5C 1_555 1_555
Ag1B O1C 1_555 1_555
Ag1B O1B 1_555 1_555
Ag1B O6B 1_555 1_555
Ag2B O5B 1_555 1_555
Ag2B_2 O5C 1_555 1_555
O2C C1C 1_555 1_555
C1C C2C 1_555 1_555
C5C C6C 1_555 1_555
C6C C7C 1_555 1_555

#END
