
#######################################################################
#
#                 Cambridge Crystallographic Data Centre
#                                CCDC 
#
#######################################################################
#
# If this CIF has been generated from an entry in the Cambridge 
# Structural Database, then it will include bibliographic, chemical, 
# crystal, experimental, refinement or atomic coordinate data resulting 
# from the CCDC's data processing and validation procedures.
#
#######################################################################

data_HUTRIY
_symmetry_cell_setting           monoclinic
_symmetry_space_group_name_H-M   'C 2/c'
_symmetry_Int_Tables_number      15
_space_group_name_Hall           '-C 2yn'
loop_
_symmetry_equiv_pos_site_id
_symmetry_equiv_pos_as_xyz
1 x,y,z
2 -x,y,1/2-z
3 1/2+x,1/2+y,z
4 1/2-x,1/2+y,1/2-z
5 -x,-y,-z
6 x,-y,1/2+z
7 1/2-x,1/2-y,-z
8 1/2+x,1/2-y,1/2+z
_cell_length_a                   8.0304(18)
_cell_length_b                   10.371(2)
_cell_length_c                   20.604(5)
_cell_angle_alpha                90
_cell_angle_beta                 99.676(4)
_cell_angle_gamma                90
_cell_volume                     1691.56
loop_
_atom_site_label
_atom_site_type_symbol
_atom_site_fract_x
_atom_site_fract_y
_atom_site_fract_z
Sm1 Sm 0.5000 0.54163(2) 0.2500
Ag1 Ag 1.0000 0.61792(4) 0.2500
C1 C 0.8440(4) 0.4849(3) 0.36281(16)
C2 C 0.7301(4) 0.5467(3) 0.40487(16)
C3 C 0.7742(4) 0.5585(3) 0.47214(16)
H1 H 0.8774 0.5270 0.4935
C4 C 0.6640(4) 0.6174(3) 0.50765(15)
C5 C 0.5079(4) 0.6599(3) 0.47506(16)
H2 H 0.4315 0.7002 0.4977
C6 C 0.4701(4) 0.6399(3) 0.40745(16)
C7 C 0.2991(5) 0.6700(3) 0.36768(17)
N1 N 0.5799(3) 0.5873(3) 0.37247(12)
O1 O 0.7838(3) 0.4734(2) 0.30189(11)
O2 O 0.9854(3) 0.4497(2) 0.38916(12)
O3 O 0.7041(3) 0.6329(3) 0.57353(11)
H3 H 0.8014 0.6086 0.5860
O4 O 0.1951(3) 0.7300(3) 0.39341(11)
O5 O 0.2762(3) 0.6261(2) 0.30874(11)
O6 O 0.4412(3) 0.3431(2) 0.31142(12)
H4 H 0.3600 0.3473 0.3327
H5 H 0.5357 0.3171 0.3323
O7 O 0.5000 0.7805(4) 0.2500
H6 H 0.5732 0.8249 0.2347
Ag1_2 Ag 0.0000 0.61792(4) 0.2500
Ag1B Ag 0.5000 0.11792(4) 0.2500
C1A C 0.1560(4) 0.4849(3) 0.13719(16)
C2A C 0.2699(4) 0.5467(3) 0.09513(16)
C3A C 0.2258(4) 0.5585(3) 0.02786(16)
H1A H 0.1226 0.5270 0.0065
C4A C 0.3360(4) 0.6174(3) -0.00765(15)
C5A C 0.4921(4) 0.6599(3) 0.02494(16)
H2A H 0.5685 0.7002 0.0023
C6A C 0.5299(4) 0.6399(3) 0.09255(16)
C7A C 0.7009(5) 0.6700(3) 0.13232(17)
N1A N 0.4201(3) 0.5873(3) 0.12753(12)
O1A O 0.2162(3) 0.4734(2) 0.19811(11)
O1A_2 O 1.2162(3) 0.4734(2) 0.19811(11)
O2A O 0.0146(3) 0.4497(2) 0.11084(12)
O3A O 0.2959(3) 0.6329(3) -0.07353(11)
H3A H 0.1986 0.6086 -0.0860
O4A O 0.8049(3) 0.7300(3) 0.10659(11)
O5A O 0.7238(3) 0.6261(2) 0.19126(11)
O5_2 O 1.2762(3) 0.6261(2) 0.30874(11)
O6A O 0.5588(3) 0.3431(2) 0.18858(12)
O6B O 0.9412(3) 0.8431(2) 0.31142(12)
O6C O 1.0588(3) 0.8431(2) 0.18858(12)
H4A H 0.6400 0.3473 0.1673
H4B H 0.8600 0.8473 0.3327
H4C H 1.1400 0.8473 0.1673
H5A H 0.4643 0.3171 0.1677
H5B H 1.0357 0.8171 0.3323
H5C H 0.9643 0.8171 0.1677
H6A H 0.4268 0.8249 0.2653
loop_
_geom_bond_atom_site_label_1
_geom_bond_atom_site_label_2
_geom_bond_site_symmetry_1
_geom_bond_site_symmetry_2
Sm1 N1 1_555 1_555
Ag1 O1 1_555 1_555
C1 C2 1_555 1_555
C2 C3 1_555 1_555
C3 H1 1_555 1_555
C4 C3 1_555 1_555
C5 C4 1_555 1_555
H2 C5 1_555 1_555
C6 C5 1_555 1_555
C7 C6 1_555 1_555
N1 C2 1_555 1_555
O1 Sm1 1_555 1_555
O2 C1 1_555 1_555
O3 C4 1_555 1_555
H3 O3 1_555 1_555
O4 C7 1_555 1_555
O5 Sm1 1_555 1_555
O6 Sm1 1_555 1_555
H4 O6 1_555 1_555
H5 O6 1_555 1_555
O7 Sm1 1_555 1_555
H6 O7 1_555 1_555
Ag1_2 O5 1_555 1_555
Ag1B O6 1_555 1_555
C1A C2A 1_555 1_555
C2A C3A 1_555 1_555
C3A H1A 1_555 1_555
C4A C3A 1_555 1_555
C5A C4A 1_555 1_555
H2A C5A 1_555 1_555
C6A C5A 1_555 1_555
C7A C6A 1_555 1_555
N1A Sm1 1_555 1_555
O1A Sm1 1_555 1_555
O1A_2 Ag1 1_555 1_555
O2A C1A 1_555 1_555
O3A C4A 1_555 1_555
H3A O3A 1_555 1_555
O4A C7A 1_555 1_555
O5A Sm1 1_555 1_555
O5_2 Ag1 1_555 1_555
O6A Sm1 1_555 1_555
O6B Ag1 1_555 1_555
O6C Ag1 1_555 1_555
H4A O6A 1_555 1_555
H4B O6B 1_555 1_555
H4C O6C 1_555 1_555
H5A O6A 1_555 1_555
H5B O6B 1_555 1_555
H5C O6C 1_555 1_555
H6A O7 1_555 1_555
Ag1 O5A 1_555 1_555
C1 O1 1_555 1_555
C6 N1 1_555 1_555
C7 O5 1_555 1_555
Ag1_2 O1A 1_555 1_555
Ag1B O6A 1_555 1_555
C1A O1A 1_555 1_555
C2A N1A 1_555 1_555
C6A N1A 1_555 1_555
C7A O5A 1_555 1_555

#END
