
#######################################################################
#
#                 Cambridge Crystallographic Data Centre
#                                CCDC 
#
#######################################################################
#
# If this CIF has been generated from an entry in the Cambridge 
# Structural Database, then it will include bibliographic, chemical, 
# crystal, experimental, refinement or atomic coordinate data resulting 
# from the CCDC's data processing and validation procedures.
#
#######################################################################

data_HUTREU01
_symmetry_cell_setting           monoclinic
_symmetry_space_group_name_H-M   'C 2/c'
_symmetry_Int_Tables_number      15
_space_group_name_Hall           '-C 2yn'
loop_
_symmetry_equiv_pos_site_id
_symmetry_equiv_pos_as_xyz
1 x,y,z
2 -x,y,1/2-z
3 1/2+x,1/2+y,z
4 1/2-x,1/2+y,1/2-z
5 -x,-y,-z
6 x,-y,1/2+z
7 1/2-x,1/2-y,-z
8 1/2+x,1/2-y,1/2+z
_cell_length_a                   8.0740(18)
_cell_length_b                   10.457(4)
_cell_length_c                   20.9154(15)
_cell_angle_alpha                90
_cell_angle_beta                 99.76(3)
_cell_angle_gamma                90
_cell_volume                     1740.32
loop_
_atom_site_label
_atom_site_type_symbol
_atom_site_fract_x
_atom_site_fract_y
_atom_site_fract_z
Nd1 Nd -0.5000 0.45628(3) 0.2500
Ag1 Ag 0.0000 0.37938(5) 0.2500
O1 O -0.7037(4) 0.3683(4) -0.07325(15)
H1 H -0.7998 0.3937 -0.0858
O2 O -0.9869(4) 0.5488(3) 0.10978(18)
O3 O -0.7870(4) 0.5226(3) 0.19698(16)
O4 O -0.2767(4) 0.3711(4) 0.19018(14)
O5 O -0.1951(4) 0.2670(4) 0.10580(15)
O6 O -0.5582(4) 0.6585(3) 0.31273(18)
O7 O -0.5000 0.2183(8) 0.2500
N1 N -0.5802(4) 0.4122(3) 0.12717(17)
C1 C -0.6642(5) 0.3829(5) -0.0079(2)
C2 C -0.7745(6) 0.4423(4) 0.0281(3)
H2 H -0.8768 0.4749 0.0074
C3 C -0.7294(6) 0.4516(4) 0.0943(2)
C4 C -0.4712(5) 0.3593(4) 0.0916(2)
C5 C -0.5067(6) 0.3401(4) 0.0252(2)
H3 H -0.4298 0.3006 0.0032
C6 C -0.8454(5) 0.5125(5) 0.1360(2)
C7 C -0.2994(6) 0.3279(4) 0.1324(2)
Ag1_2 Ag -1.0000 0.37938(5) 0.2500
O1A O -0.2963(4) 0.3683(4) 0.57325(15)
H1A H -0.2002 0.3937 0.5858
O2A O -0.0131(4) 0.5488(3) 0.39022(18)
O3A O -0.2130(4) 0.5226(3) 0.30302(16)
O4A O -0.7233(4) 0.3711(4) 0.30982(14)
O4A_2 O 0.2767(4) 0.3711(4) 0.30982(14)
O5A O -0.8049(4) 0.2670(4) 0.39420(15)
O6A O -0.4418(4) 0.6585(3) 0.18727(18)
N1A N -0.4198(4) 0.4122(3) 0.37283(17)
C1A C -0.3358(5) 0.3829(5) 0.5079(2)
C2A C -0.2255(6) 0.4423(4) 0.4719(3)
H2A H -0.1232 0.4749 0.4926
C3A C -0.2706(6) 0.4516(4) 0.4057(2)
C4A C -0.5288(5) 0.3593(4) 0.4084(2)
C5A C -0.4933(6) 0.3401(4) 0.4748(2)
H3A H -0.5702 0.3006 0.4968
C6A C -0.1546(5) 0.5125(5) 0.3640(2)
C7A C -0.7006(6) 0.3279(4) 0.3676(2)
loop_
_geom_bond_atom_site_label_1
_geom_bond_atom_site_label_2
_geom_bond_site_symmetry_1
_geom_bond_site_symmetry_2
Nd1 O3 1_555 1_555
Ag1 O4 1_555 1_555
O1 H1 1_555 1_555
O2 C6 1_555 1_555
O3 C6 1_555 1_555
O4 Nd1 1_555 1_555
O5 C7 1_555 1_555
O6 Nd1 1_555 1_555
O7 Nd1 1_555 1_555
N1 Nd1 1_555 1_555
C1 O1 1_555 1_555
C2 C1 1_555 1_555
H2 C2 1_555 1_555
C3 N1 1_555 1_555
C4 N1 1_555 1_555
C5 C1 1_555 1_555
H3 C5 1_555 1_555
C6 C3 1_555 1_555
C7 O4 1_555 1_555
Ag1_2 O4A 1_555 1_555
O1A H1A 1_555 1_555
O2A C6A 1_555 1_555
O3A Nd1 1_555 1_555
O4A Nd1 1_555 1_555
O4A_2 Ag1 1_555 1_555
O5A C7A 1_555 1_555
O6A Nd1 1_555 1_555
N1A Nd1 1_555 1_555
C1A O1A 1_555 1_555
C2A C1A 1_555 1_555
H2A C2A 1_555 1_555
C3A N1A 1_555 1_555
C4A N1A 1_555 1_555
C5A C1A 1_555 1_555
H3A C5A 1_555 1_555
C6A O3A 1_555 1_555
C7A O4A 1_555 1_555
C2 C3 1_555 1_555
C4 C5 1_555 1_555
C4 C7 1_555 1_555
C2A C3A 1_555 1_555
C3A C6A 1_555 1_555
C4A C5A 1_555 1_555
C4A C7A 1_555 1_555

#END
