
#######################################################################
#
#                 Cambridge Crystallographic Data Centre
#                                CCDC 
#
#######################################################################
#
# If this CIF has been generated from an entry in the Cambridge 
# Structural Database, then it will include bibliographic, chemical, 
# crystal, experimental, refinement or atomic coordinate data resulting 
# from the CCDC's data processing and validation procedures.
#
#######################################################################

data_HUTROE
_symmetry_cell_setting           monoclinic
_symmetry_space_group_name_H-M   'C 2/c'
_symmetry_Int_Tables_number      15
_space_group_name_Hall           '-C 2yn'
loop_
_symmetry_equiv_pos_site_id
_symmetry_equiv_pos_as_xyz
1 x,y,z
2 -x,y,1/2-z
3 1/2+x,1/2+y,z
4 1/2-x,1/2+y,1/2-z
5 -x,-y,-z
6 x,-y,1/2+z
7 1/2-x,1/2-y,-z
8 1/2+x,1/2-y,1/2+z
_cell_length_a                   8.0281(10)
_cell_length_b                   10.3800(14)
_cell_length_c                   20.589(3)
_cell_angle_alpha                90
_cell_angle_beta                 99.748(2)
_cell_angle_gamma                90
_cell_volume                     1690.94
loop_
_atom_site_label
_atom_site_type_symbol
_atom_site_fract_x
_atom_site_fract_y
_atom_site_fract_z
Eu1 Eu 0.5000 0.54041(3) 0.2500
Ag1 Ag 1.0000 0.61658(5) 0.2500
C1 C 0.8441(5) 0.4842(4) 0.3626(2)
C2 C 0.7289(5) 0.5458(4) 0.4049(2)
C3 C 0.7740(5) 0.5581(4) 0.4721(2)
H1 H 0.8776 0.5270 0.4934
C4 C 0.6645(5) 0.6170(4) 0.50778(19)
C5 C 0.5078(5) 0.6594(4) 0.4751(2)
H2 H 0.4314 0.6998 0.4977
C6 C 0.4701(5) 0.6390(4) 0.40740(19)
C7 C 0.2998(5) 0.6690(4) 0.3676(2)
N1 N 0.5795(4) 0.5869(3) 0.37184(15)
O1 O 0.7825(3) 0.4724(3) 0.30152(14)
O2 O 0.9854(4) 0.4488(3) 0.38870(15)
O3 O 0.7047(3) 0.6331(3) 0.57366(13)
H3 H 0.7947 0.5969 0.5872
O4 O 0.1942(3) 0.7282(3) 0.39309(14)
O5 O 0.2758(3) 0.6250(3) 0.30827(14)
O6 O 0.4414(4) 0.3433(3) 0.31095(15)
H4 H 0.5244 0.3070 0.3416
H5 H 0.3787 0.3483 0.3380
O7 O 0.5000 0.7776(5) 0.2500
H6 H 0.5732 0.8220 0.2347
Ag1_2 Ag 0.0000 0.61658(5) 0.2500
Ag1B Ag 0.5000 0.11658(5) 0.2500
C1A C 0.1559(5) 0.4842(4) 0.1374(2)
C2A C 0.2711(5) 0.5458(4) 0.0951(2)
C3A C 0.2260(5) 0.5581(4) 0.0279(2)
H1A H 0.1224 0.5270 0.0066
C4A C 0.3355(5) 0.6170(4) -0.00778(19)
C5A C 0.4922(5) 0.6594(4) 0.0249(2)
H2A H 0.5686 0.6998 0.0023
C6A C 0.5299(5) 0.6390(4) 0.09260(19)
C7A C 0.7002(5) 0.6690(4) 0.1324(2)
N1A N 0.4205(4) 0.5869(3) 0.12816(15)
O1A O 0.2175(3) 0.4724(3) 0.19848(14)
O1A_2 O 1.2175(3) 0.4724(3) 0.19848(14)
O2A O 0.0146(4) 0.4488(3) 0.11130(15)
O3A O 0.2953(3) 0.6331(3) -0.07366(13)
H3A H 0.2053 0.5969 -0.0872
O4A O 0.8058(3) 0.7282(3) 0.10691(14)
O5A O 0.7242(3) 0.6250(3) 0.19173(14)
O5_2 O 1.2758(3) 0.6250(3) 0.30827(14)
O6A O 0.5586(4) 0.3433(3) 0.18905(15)
O6B O 0.9414(4) 0.8433(3) 0.31095(15)
O6C O 1.0586(4) 0.8433(3) 0.18905(15)
H4A H 0.4756 0.3070 0.1584
H4B H 1.0244 0.8070 0.3416
H4C H 0.9756 0.8070 0.1584
H5A H 0.6213 0.3483 0.1620
H5B H 0.8787 0.8483 0.3380
H5C H 1.1213 0.8483 0.1620
H6A H 0.4268 0.8220 0.2653
loop_
_geom_bond_atom_site_label_1
_geom_bond_atom_site_label_2
_geom_bond_site_symmetry_1
_geom_bond_site_symmetry_2
Eu1 N1 1_555 1_555
Ag1 O1 1_555 1_555
C1 C2 1_555 1_555
C2 C3 1_555 1_555
C3 H1 1_555 1_555
C4 C3 1_555 1_555
C5 C4 1_555 1_555
H2 C5 1_555 1_555
C6 C5 1_555 1_555
C7 C6 1_555 1_555
N1 C2 1_555 1_555
O1 Eu1 1_555 1_555
O2 C1 1_555 1_555
O3 C4 1_555 1_555
H3 O3 1_555 1_555
O4 C7 1_555 1_555
O5 Eu1 1_555 1_555
O6 Eu1 1_555 1_555
H4 O6 1_555 1_555
H5 O6 1_555 1_555
O7 Eu1 1_555 1_555
H6 O7 1_555 1_555
Ag1_2 O5 1_555 1_555
Ag1B O6 1_555 1_555
C1A C2A 1_555 1_555
C2A C3A 1_555 1_555
C3A H1A 1_555 1_555
C4A C3A 1_555 1_555
C5A C4A 1_555 1_555
H2A C5A 1_555 1_555
C6A C5A 1_555 1_555
C7A C6A 1_555 1_555
N1A Eu1 1_555 1_555
O1A Eu1 1_555 1_555
O1A_2 Ag1 1_555 1_555
O2A C1A 1_555 1_555
O3A C4A 1_555 1_555
H3A O3A 1_555 1_555
O4A C7A 1_555 1_555
O5A Eu1 1_555 1_555
O5_2 Ag1 1_555 1_555
O6A Eu1 1_555 1_555
O6B Ag1 1_555 1_555
O6C Ag1 1_555 1_555
H4A O6A 1_555 1_555
H4B O6B 1_555 1_555
H4C O6C 1_555 1_555
H5A O6A 1_555 1_555
H5B O6B 1_555 1_555
H5C O6C 1_555 1_555
H6A O7 1_555 1_555
Ag1 O5A 1_555 1_555
C1 O1 1_555 1_555
C6 N1 1_555 1_555
C7 O5 1_555 1_555
Ag1_2 O1A 1_555 1_555
Ag1B O6A 1_555 1_555
C1A O1A 1_555 1_555
C2A N1A 1_555 1_555
C6A N1A 1_555 1_555
C7A O5A 1_555 1_555

#END
