
#######################################################################
#
#                 Cambridge Crystallographic Data Centre
#                                CCDC 
#
#######################################################################
#
# If this CIF has been generated from an entry in the Cambridge 
# Structural Database, then it will include bibliographic, chemical, 
# crystal, experimental, refinement or atomic coordinate data resulting 
# from the CCDC's data processing and validation procedures.
#
#######################################################################

data_HUTRUK
_symmetry_cell_setting           orthorhombic
_symmetry_space_group_name_H-M   'P n n a'
_symmetry_Int_Tables_number      52
_space_group_name_Hall           '-P 2a 2bc'
loop_
_symmetry_equiv_pos_site_id
_symmetry_equiv_pos_as_xyz
1 x,y,z
2 1/2-x,-y,z
3 1/2-x,1/2+y,1/2-z
4 x,1/2-y,1/2-z
5 -x,-y,-z
6 1/2+x,y,-z
7 1/2+x,1/2-y,1/2+z
8 -x,1/2+y,1/2+z
_cell_length_a                   8.2092(12)
_cell_length_b                   14.487(2)
_cell_length_c                   13.848(2)
_cell_angle_alpha                90
_cell_angle_beta                 90
_cell_angle_gamma                90
_cell_volume                     1646.9
loop_
_atom_site_label
_atom_site_type_symbol
_atom_site_fract_x
_atom_site_fract_y
_atom_site_fract_z
Gd1 Gd 0.02980(4) -0.2500 0.2500
Ag1 Ag 0.44445(6) -0.01290(3) 0.18162(3)
Ag2 Ag -0.2500 0.0000 0.05067(5)
O1 O 0.2319(4) -0.1312(2) 0.2595(2)
O2 O 0.4187(5) -0.0521(3) 0.3420(3)
O3 O 0.3183(4) -0.1610(2) 0.6862(2)
O4 O -0.0689(5) -0.4030(2) 0.5321(2)
O5 O -0.0432(4) -0.3626(2) 0.3781(2)
O6 O 0.7500 -0.5000 0.2762(4)
H1 H 0.7262 -0.5483 0.2419
N1 N 0.1448(5) -0.2232(3) 0.4145(3)
C1 C 0.3045(6) -0.1071(3) 0.3379(3)
C2 C 0.2463(6) -0.1531(3) 0.4295(3)
C3 C 0.3024(6) -0.1270(3) 0.5196(3)
H2 H 0.3709 -0.0762 0.5260
C4 C 0.2556(6) -0.1775(3) 0.6010(3)
C5 C 0.1455(6) -0.2510(3) 0.5852(3)
H3 H 0.1063 -0.2851 0.6372
C6 C 0.0966(6) -0.2719(3) 0.4931(3)
C7 C -0.0139(6) -0.3509(3) 0.4674(3)
Gd1E Gd 0.52980(4) -0.2500 -0.2500
Gd1E_2 Gd 0.52980(4) -0.2500 0.7500
Ag1A Ag 0.05555(6) 0.01290(3) 0.18162(3)
Ag1B Ag 0.05555(6) -0.51290(3) 0.31838(3)
Ag1C Ag 0.44445(6) -0.48710(3) 0.31838(3)
Ag1E Ag -0.05555(6) -0.01290(3) -0.18162(3)
Ag1F Ag -0.05555(6) -0.48710(3) 0.68162(3)
Ag1B_2 Ag 1.05555(6) -0.51290(3) 0.31838(3)
Ag2B Ag -0.2500 -0.5000 0.44933(5)
Ag2B_2 Ag 0.7500 -0.5000 0.44933(5)
O1C O 0.2319(4) -0.3688(2) 0.2405(2)
O1A O 0.2681(4) 0.1312(2) 0.2595(2)
O1B O 0.2681(4) -0.6312(2) 0.2405(2)
O2C O 0.4187(5) -0.4479(3) 0.1580(3)
O3F O -0.1817(4) -0.3390(2) 0.1862(2)
O3E O -0.1817(4) -0.1610(2) 0.3138(2)
O3C O 0.3183(4) -0.3390(2) -0.1862(2)
O4F O 0.4311(5) -0.0970(2) 0.0321(2)
O4E O 0.4311(5) -0.4030(2) 0.4679(2)
O4C O -0.0689(5) -0.0970(2) -0.0321(2)
O4B O -0.4311(5) 0.0970(2) -0.0321(2)
O5C O -0.0432(4) -0.1374(2) 0.1219(2)
O5B O 0.5432(4) 0.1374(2) 0.1219(2)
O5A O 0.5432(4) -0.6374(2) 0.3781(2)
O5B_2 O -0.4568(4) 0.1374(2) 0.1219(2)
O6B O -0.2500 0.0000 0.2238(4)
O6B_2 O 0.7500 0.0000 0.2238(4)
H1B H 0.7738 -0.0483 0.2581
H1B_2 H -0.2262 -0.0483 0.2581
H1C H -0.2738 0.0483 0.2581
H1C_2 H 0.7262 0.0483 0.2581
H1A H 0.7738 -0.4517 0.2419
N1C N 0.1448(5) -0.2768(3) 0.0855(3)
C1C C 0.3045(6) -0.3929(3) 0.1621(3)
C2C C 0.2463(6) -0.3469(3) 0.0705(3)
C3C C 0.3024(6) -0.3730(3) -0.0196(3)
H2C H 0.3709 -0.4238 -0.0260
C4C C 0.2556(6) -0.3225(3) -0.1010(3)
C5C C 0.1455(6) -0.2490(3) -0.0852(3)
H3C H 0.1063 -0.2149 -0.1372
C6C C 0.0966(6) -0.2281(3) 0.0069(3)
C7C C -0.0139(6) -0.1491(3) 0.0326(3)
loop_
_geom_bond_atom_site_label_1
_geom_bond_atom_site_label_2
_geom_bond_site_symmetry_1
_geom_bond_site_symmetry_2
Gd1 O1 1_555 1_555
Ag1 O1 1_555 1_555
Ag2 O4C 1_555 1_555
O1 C1 1_555 1_555
O2 Ag1 1_555 1_555
O3 C4 1_555 1_555
O4 C7 1_555 1_555
O5 Gd1 1_555 1_555
O6 H1 1_555 1_555
N1 Gd1 1_555 1_555
C1 O2 1_555 1_555
C2 N1 1_555 1_555
C3 C2 1_555 1_555
H2 C3 1_555 1_555
C4 C3 1_555 1_555
C5 C4 1_555 1_555
H3 C5 1_555 1_555
C6 N1 1_555 1_555
C7 O5 1_555 1_555
Gd1E O3C 1_555 1_555
Gd1E_2 O3 1_555 1_555
Ag1A O1 1_555 1_555
Ag1B O5 1_555 1_555
Ag1C O6 1_555 1_555
Ag1E O4C 1_555 1_555
Ag1F O4 1_555 1_555
Ag1B_2 O6 1_555 1_555
Ag2B O4 1_555 1_555
Ag2B_2 O6 1_555 1_555
O1C Gd1 1_555 1_555
O1A Ag1 1_555 1_555
O1B Ag1B 1_555 1_555
O2C Ag1C 1_555 1_555
O3F Gd1 1_555 1_555
O3E Gd1 1_555 1_555
O3C C4C 1_555 1_555
O4F Ag1 1_555 1_555
O4E Ag1C 1_555 1_555
O4C C7C 1_555 1_555
O4B Ag2 1_555 1_555
O5C Gd1 1_555 1_555
O5B Ag1 1_555 1_555
O5A Ag1C 1_555 1_555
O5B_2 Ag2 1_555 1_555
O6B Ag2 1_555 1_555
O6B_2 Ag1 1_555 1_555
H1B O6B_2 1_555 1_555
H1B_2 O6B 1_555 1_555
H1C O6B 1_555 1_555
H1C_2 O6B_2 1_555 1_555
H1A O6 1_555 1_555
N1C Gd1 1_555 1_555
C1C O1C 1_555 1_555
C2C N1C 1_555 1_555
C3C C2C 1_555 1_555
H2C C3C 1_555 1_555
C4C C3C 1_555 1_555
C5C C4C 1_555 1_555
H3C C5C 1_555 1_555
C6C N1C 1_555 1_555
C7C O5C 1_555 1_555
Ag2 O5C 1_555 1_555
O5 Ag2B 1_555 1_555
C1 C2 1_555 1_555
C5 C6 1_555 1_555
C6 C7 1_555 1_555
Ag1A O1A 1_555 1_555
Ag1A O5C 1_555 1_555
Ag1A O6B 1_555 1_555
Ag1B O1C 1_555 1_555
Ag1C O1C 1_555 1_555
Ag1C O1B 1_555 1_555
Ag2B_2 O5A 1_555 1_555
O2C C1C 1_555 1_555
C1C C2C 1_555 1_555
C5C C6C 1_555 1_555
C6C C7C 1_555 1_555

#END
