
#######################################################################
#
#                 Cambridge Crystallographic Data Centre
#                                CCDC 
#
#######################################################################
#
# If this CIF has been generated from an entry in the Cambridge 
# Structural Database, then it will include bibliographic, chemical, 
# crystal, experimental, refinement or atomic coordinate data resulting 
# from the CCDC's data processing and validation procedures.
#
#######################################################################

data_HUTSIY
_symmetry_cell_setting           orthorhombic
_symmetry_space_group_name_H-M   'P b c n'
_symmetry_Int_Tables_number      60
_space_group_name_Hall           '-P 2n 2ab'
loop_
_symmetry_equiv_pos_site_id
_symmetry_equiv_pos_as_xyz
1 x,y,z
2 1/2+x,1/2+y,1/2-z
3 x,-y,1/2+z
4 1/2-x,1/2+y,z
5 -x,-y,-z
6 1/2-x,1/2-y,1/2+z
7 -x,y,1/2-z
8 1/2+x,1/2-y,-z
_cell_length_a                   13.498(2)
_cell_length_b                   22.420(4)
_cell_length_c                   7.9943(13)
_cell_angle_alpha                90
_cell_angle_beta                 90
_cell_angle_gamma                90
_cell_volume                     2419.28
loop_
_atom_site_label
_atom_site_type_symbol
_atom_site_fract_x
_atom_site_fract_y
_atom_site_fract_z
N4 N 0.5000 0.3768(6) -0.7500
O3 O 0.5684(12) 0.3537(9) -0.819(2)
O4 O 0.467(2) 0.4025(8) -0.882(2)
O3F O 0.4316(12) 0.3537(9) -0.681(2)
O4F O 0.533(2) 0.4025(8) -0.618(2)
Ag1 Ag 0.93570(7) 0.38968(4) -0.49540(11)
S1 S 0.7935(2) 0.30641(12) -0.2926(4)
N1 N 0.7912(6) 0.4174(3) -0.3959(10)
N2 N 0.5512(7) 0.1768(4) -0.4434(11)
C1 C 0.7618(7) 0.4747(4) -0.3966(12)
H1 H 0.7989 0.5035 -0.4597
C2 C 0.6785(9) 0.4932(6) -0.3075(15)
H2 H 0.6558 0.5337 -0.3160
C3 C 0.6301(10) 0.4542(7) -0.2099(15)
H3 H 0.5738 0.4671 -0.1460
C4 C 0.6616(9) 0.3950(5) -0.2011(14)
H4 H 0.6290 0.3667 -0.1296
C5 C 0.7408(7) 0.3786(4) -0.2983(12)
C6 C 0.6926(7) 0.2589(4) -0.3500(11)
C7 C 0.6078(8) 0.2771(4) -0.4264(13)
H5 H 0.5972 0.3185 -0.4514
C8 C 0.5383(8) 0.2356(4) -0.4669(12)
H6 H 0.4769 0.2490 -0.5146
C9 C 0.6360(8) 0.1598(4) -0.3738(13)
H7 H 0.6466 0.1179 -0.3570
C10 C 0.7095(8) 0.1985(4) -0.3243(12)
H8 H 0.7697 0.1844 -0.2742
N3 N 1.0000 0.5037(5) -0.7500
O1 O 1.0000 0.4484(5) -0.7500
O2 O 0.9474(6) 0.5310(4) -0.6506(12)
O2F O 1.0526(6) 0.5310(4) -0.8494(12)
S1G S 1.2935(2) 0.19359(12) -0.7074(4)
N1G N 1.2912(6) 0.0826(3) -0.6041(10)
N2G N 1.0512(7) 0.3232(4) -0.5566(11)
C1G C 1.2618(7) 0.0253(4) -0.6034(12)
H1G H 1.2989 -0.0035 -0.5403
C2G C 1.1785(9) 0.0068(6) -0.6925(15)
H2G H 1.1558 -0.0337 -0.6840
C3G C 1.1301(10) 0.0458(7) -0.7901(15)
H3G H 1.0738 0.0329 -0.8540
C4G C 1.1616(9) 0.1050(5) -0.7989(14)
H4G H 1.1290 0.1333 -0.8704
C5G C 1.2408(7) 0.1214(4) -0.7017(12)
C6G C 1.1926(7) 0.2411(4) -0.6500(11)
C7G C 1.1078(8) 0.2229(4) -0.5736(13)
H5G H 1.0972 0.1815 -0.5486
C8G C 1.0383(8) 0.2644(4) -0.5331(12)
H6G H 0.9769 0.2510 -0.4854
C9G C 1.1360(8) 0.3402(4) -0.6262(13)
H7G H 1.1466 0.3821 -0.6430
C10G C 1.2095(8) 0.3015(4) -0.6757(12)
H8G H 1.2697 0.3156 -0.7258
Ag1G Ag 1.43570(7) 0.11032(4) -0.50460(11)
Ag1G_2 Ag 0.43570(7) 0.11032(4) -0.50460(11)
Ag1F Ag 1.06430(7) 0.38968(4) -1.00460(11)
N2_2 N 1.5512(7) 0.1768(4) -0.4434(11)
O1E O 1.5000 0.0516(5) -0.2500
loop_
_geom_bond_atom_site_label_1
_geom_bond_atom_site_label_2
_geom_bond_site_symmetry_1
_geom_bond_site_symmetry_2
Ag1 N1 1_555 1_555
S1 C5 1_555 1_555
N1 C1 1_555 1_555
N2 C8 1_555 1_555
C1 H1 1_555 1_555
C2 C1 1_555 1_555
H2 C2 1_555 1_555
C3 C2 1_555 1_555
H3 C3 1_555 1_555
C4 C3 1_555 1_555
H4 C4 1_555 1_555
C5 N1 1_555 1_555
C6 S1 1_555 1_555
C7 C6 1_555 1_555
H5 C7 1_555 1_555
C8 C7 1_555 1_555
H6 C8 1_555 1_555
C9 N2 1_555 1_555
H7 C9 1_555 1_555
C10 C6 1_555 1_555
H8 C10 1_555 1_555
N3 O1 1_555 1_555
O1 Ag1 1_555 1_555
O2 N3 1_555 1_555
N4 O3 1_555 1_555
O4 N4 1_555 1_555
O2F N3 1_555 1_555
O3F N4 1_555 1_555
O4F N4 1_555 1_555
S1G C5G 1_555 1_555
N1G C1G 1_555 1_555
N2G Ag1 1_555 1_555
C1G H1G 1_555 1_555
C2G C1G 1_555 1_555
H2G C2G 1_555 1_555
C3G C2G 1_555 1_555
H3G C3G 1_555 1_555
C4G C3G 1_555 1_555
H4G C4G 1_555 1_555
C5G N1G 1_555 1_555
C6G S1G 1_555 1_555
C7G C6G 1_555 1_555
H5G C7G 1_555 1_555
C8G N2G 1_555 1_555
H6G C8G 1_555 1_555
C9G N2G 1_555 1_555
H7G C9G 1_555 1_555
C10G C6G 1_555 1_555
H8G C10G 1_555 1_555
Ag1G N1G 1_555 1_555
Ag1G_2 N2 1_555 1_555
Ag1F O1 1_555 1_555
N2_2 Ag1G 1_555 1_555
O1E Ag1G 1_555 1_555
C4 C5 1_555 1_555
C9 C10 1_555 1_555
C4G C5G 1_555 1_555
C7G C8G 1_555 1_555
C9G C10G 1_555 1_555

#END
