
#######################################################################
#
#                 Cambridge Crystallographic Data Centre
#                                CCDC 
#
#######################################################################
#
# If this CIF has been generated from an entry in the Cambridge 
# Structural Database, then it will include bibliographic, chemical, 
# crystal, experimental, refinement or atomic coordinate data resulting 
# from the CCDC's data processing and validation procedures.
#
#######################################################################

data_HUTSUK
_symmetry_cell_setting           monoclinic
_symmetry_space_group_name_H-M   'C 2/c'
_symmetry_Int_Tables_number      15
_space_group_name_Hall           '-C 2yn'
loop_
_symmetry_equiv_pos_site_id
_symmetry_equiv_pos_as_xyz
1 x,y,z
2 1/2+x,1/2+y,z
3 x,-y,1/2+z
4 1/2+x,1/2-y,1/2+z
5 -x,-y,-z
6 1/2-x,1/2-y,-z
7 -x,y,1/2-z
8 1/2-x,1/2+y,1/2-z
_cell_length_a                   19.9448(15)
_cell_length_b                   7.9382(6)
_cell_length_c                   32.345(2)
_cell_angle_alpha                90
_cell_angle_beta                 97.043(2)
_cell_angle_gamma                90
_cell_volume                     5082.41
loop_
_atom_site_label
_atom_site_type_symbol
_atom_site_fract_x
_atom_site_fract_y
_atom_site_fract_z
Ag1 Ag 0.0000 0.0000 0.0000
Ag2 Ag 0.15885(2) 0.62222(6) 0.165942(13)
S1 S 0.06461(6) 0.77136(13) 0.07841(4)
S2 S 0.15781(8) 0.2356(2) 0.14441(4)
N1 N 0.02689(18) 0.2349(4) 0.03219(11)
N2 N 0.19260(19) 0.7806(5) 0.11335(12)
N3 N 0.06695(18) 0.4557(5) 0.16159(11)
N4 N 0.27433(19) 0.1452(5) 0.27232(13)
C1 C 0.0909(2) 0.2966(5) 0.03732(13)
H1 H 0.1270 0.2255 0.0305
C2 C 0.1063(2) 0.4565(5) 0.05179(13)
H2 H 0.1523 0.4953 0.0554
C3 C 0.0548(2) 0.5604(5) 0.06104(12)
C4 C -0.0114(2) 0.4973(5) 0.05698(13)
H3 H -0.0482 0.5657 0.0638
C5 C -0.0224(2) 0.3350(6) 0.04293(14)
H4 H -0.0675 0.2910 0.0407
C6 C 0.1536(2) 0.8098(5) 0.07762(16)
C7 C 0.1769(3) 0.8789(6) 0.04330(17)
H5 H 0.1470 0.8959 0.0181
C8 C 0.2438(3) 0.9235(7) 0.0455(2)
H6 H 0.2617 0.9719 0.0220
C9 C 0.2838(3) 0.8971(7) 0.0819(2)
H7 H 0.3305 0.9288 0.0846
C10 C 0.2572(3) 0.8250(7) 0.1149(2)
H8 H 0.2866 0.8058 0.1403
C11 C 0.0755(2) 0.2916(6) 0.15397(14)
C12 C 0.0227(3) 0.1774(7) 0.15087(17)
H9 H 0.0300 0.0609 0.1448
C13 C -0.0415(3) 0.2361(9) 0.15684(18)
H10 H -0.0791 0.1598 0.1554
C14 C -0.0500(3) 0.4006(9) 0.16467(18)
H11 H -0.0937 0.4429 0.1689
C15 C 0.0044(3) 0.5076(7) 0.16652(15)
H12 H -0.0026 0.6251 0.1716
C16 C 0.1999(2) 0.2002(6) 0.19485(14)
C17 C 0.2687(3) 0.1980(7) 0.19966(17)
H13 H 0.2929 0.2148 0.1761
C18 C 0.3031(2) 0.1715(8) 0.23835(18)
H14 H 0.3515 0.1722 0.2409
C19 C 0.2073(2) 0.1449(7) 0.26724(16)
H15 H 0.1846 0.1235 0.2912
C20 C 0.1683(2) 0.1730(7) 0.23000(16)
H16 H 0.1199 0.1737 0.2283
S1D S -0.06461(6) -0.77136(13) -0.07841(4)
N1D N -0.02689(18) -0.2349(4) -0.03219(11)
N2D N -0.19260(19) -0.7806(5) -0.11335(12)
C1D C -0.0909(2) -0.2966(5) -0.03732(13)
H1D H -0.1270 -0.2255 -0.0305
C2D C -0.1063(2) -0.4565(5) -0.05179(13)
H2D H -0.1523 -0.4953 -0.0554
C3D C -0.0548(2) -0.5604(5) -0.06104(12)
C4D C 0.0114(2) -0.4973(5) -0.05698(13)
H3D H 0.0482 -0.5657 -0.0638
C5D C 0.0224(2) -0.3350(6) -0.04293(14)
H4D H 0.0675 -0.2910 -0.0407
C6D C -0.1536(2) -0.8098(5) -0.07762(16)
C7D C -0.1769(3) -0.8789(6) -0.04330(17)
H5D H -0.1470 -0.8959 -0.0181
C8D C -0.2438(3) -0.9235(7) -0.0455(2)
H6D H -0.2617 -0.9719 -0.0220
C9D C -0.2838(3) -0.8971(7) -0.0819(2)
H7D H -0.3305 -0.9288 -0.0846
C10D C -0.2572(3) -0.8250(7) -0.1149(2)
H8D H -0.2866 -0.8058 -0.1403
Ag2D Ag -0.15885(2) -0.62222(6) -0.165942(13)
S2G S 0.34219(8) 0.7356(2) 0.35559(4)
N3G N 0.43305(18) 0.9557(5) 0.33841(11)
N4G N 0.22567(19) 0.6452(5) 0.22768(13)
C11G C 0.4245(2) 0.7916(6) 0.34603(14)
C12G C 0.4773(3) 0.6774(7) 0.34913(17)
H9G H 0.4700 0.5609 0.3552
C13G C 0.5415(3) 0.7361(9) 0.34316(18)
H10G H 0.5791 0.6598 0.3446
C14G C 0.5500(3) 0.9006(9) 0.33533(18)
H11G H 0.5937 0.9429 0.3311
C15G C 0.4956(3) 1.0076(7) 0.33348(15)
H12G H 0.5026 1.1251 0.3284
C16G C 0.3001(2) 0.7002(6) 0.30515(14)
C17G C 0.2313(3) 0.6980(7) 0.30034(17)
H13G H 0.2071 0.7148 0.3239
C18G C 0.1969(2) 0.6715(8) 0.26165(18)
H14G H 0.1485 0.6722 0.2591
C19G C 0.2927(2) 0.6449(7) 0.23276(16)
H15G H 0.3154 0.6235 0.2088
C20G C 0.3317(2) 0.6730(7) 0.27000(16)
H16G H 0.3801 0.6737 0.2717
Ag2G Ag 0.34115(2) 0.12222(6) 0.334058(13)
N3D N -0.06695(18) -0.4557(5) -0.16159(11)
N4C N -0.22567(19) -0.6452(5) -0.22768(13)
Ag2G_2 Ag 0.34115(2) 1.12222(6) 0.334058(13)
P1 P 0.5000 0.3751(3) 0.2500
F1 F 0.5000 0.5745(6) 0.2500
F2 F 0.5000 0.1744(6) 0.2500
F3 F 0.56125(17) 0.3743(5) 0.28633(11)
F4 F 0.44755(16) 0.3743(4) 0.28396(10)
F3F F 0.43875(17) 0.3743(5) 0.21367(11)
F4F F 0.55245(16) 0.3743(4) 0.21604(10)
P2 P 0.34068(7) 1.38786(17) 0.08042(5)
F5 F 0.3498(3) 1.2735(7) 0.04246(13)
F6 F 0.3290(2) 1.4933(5) 0.12027(13)
F7 F 0.3756(9) 1.528(2) 0.0613(5)
F8 F 0.2758(6) 1.472(3) 0.0561(5)
F9 F 0.2925(11) 1.2590(19) 0.0964(5)
F10 F 0.4010(9) 1.301(3) 0.1053(3)
F11? F 0.4108(9) 1.462(4) 0.0826(11)
F12? F 0.3140(17) 1.541(2) 0.0529(5)
F13? F 0.2669(7) 1.322(3) 0.0736(11)
F14? F 0.3545(13) 1.2318(15) 0.1061(5)
loop_
_geom_bond_atom_site_label_1
_geom_bond_atom_site_label_2
_geom_bond_site_symmetry_1
_geom_bond_site_symmetry_2
Ag1 N1 1_555 1_555
Ag2 N2 1_555 1_555
S1 C3 1_555 1_555
S2 C11 1_555 1_555
N1 C1 1_555 1_555
N2 C6 1_555 1_555
N3 Ag2 1_555 1_555
N4 C18 1_555 1_555
C1 H1 1_555 1_555
C2 C1 1_555 1_555
H2 C2 1_555 1_555
C3 C2 1_555 1_555
C4 C3 1_555 1_555
H3 C4 1_555 1_555
C5 N1 1_555 1_555
H4 C5 1_555 1_555
C6 S1 1_555 1_555
C7 C6 1_555 1_555
H5 C7 1_555 1_555
C8 C7 1_555 1_555
H6 C8 1_555 1_555
C9 C8 1_555 1_555
H7 C9 1_555 1_555
C10 N2 1_555 1_555
H8 C10 1_555 1_555
C11 N3 1_555 1_555
C12 C11 1_555 1_555
H9 C12 1_555 1_555
C13 C12 1_555 1_555
H10 C13 1_555 1_555
C14 C13 1_555 1_555
H11 C14 1_555 1_555
C15 N3 1_555 1_555
H12 C15 1_555 1_555
C16 S2 1_555 1_555
C17 C16 1_555 1_555
H13 C17 1_555 1_555
C18 C17 1_555 1_555
H14 C18 1_555 1_555
C19 N4 1_555 1_555
H15 C19 1_555 1_555
C20 C16 1_555 1_555
H16 C20 1_555 1_555
P1 F1 1_555 1_555
F2 P1 1_555 1_555
F3 P1 1_555 1_555
F4 P1 1_555 1_555
P2 F5 1_555 1_555
F6 P2 1_555 1_555
F7 P2 1_555 1_555
F8 P2 1_555 1_555
F9 P2 1_555 1_555
F10 P2 1_555 1_555
F3F P1 1_555 1_555
F4F P1 1_555 1_555
S1D C3D 1_555 1_555
N1D Ag1 1_555 1_555
N2D C6D 1_555 1_555
C1D N1D 1_555 1_555
H1D C1D 1_555 1_555
C2D C1D 1_555 1_555
H2D C2D 1_555 1_555
C3D C2D 1_555 1_555
C4D C3D 1_555 1_555
H3D C4D 1_555 1_555
C5D N1D 1_555 1_555
H4D C5D 1_555 1_555
C6D S1D 1_555 1_555
C7D C6D 1_555 1_555
H5D C7D 1_555 1_555
C8D C7D 1_555 1_555
H6D C8D 1_555 1_555
C9D C8D 1_555 1_555
H7D C9D 1_555 1_555
C10D N2D 1_555 1_555
H8D C10D 1_555 1_555
Ag2D N2D 1_555 1_555
S2G C11G 1_555 1_555
N3G C11G 1_555 1_555
N4G Ag2 1_555 1_555
C11G C12G 1_555 1_555
C12G H9G 1_555 1_555
C13G C12G 1_555 1_555
H10G C13G 1_555 1_555
C14G C13G 1_555 1_555
H11G C14G 1_555 1_555
C15G N3G 1_555 1_555
H12G C15G 1_555 1_555
C16G S2G 1_555 1_555
C17G C16G 1_555 1_555
H13G C17G 1_555 1_555
C18G N4G 1_555 1_555
H14G C18G 1_555 1_555
C19G N4G 1_555 1_555
H15G C19G 1_555 1_555
C20G C16G 1_555 1_555
H16G C20G 1_555 1_555
Ag2G N4 1_555 1_555
N3D Ag2D 1_555 1_555
N4C Ag2D 1_555 1_555
Ag2G_2 N3G 1_555 1_555
C4 C5 1_555 1_555
C9 C10 1_555 1_555
C14 C15 1_555 1_555
C19 C20 1_555 1_555
C4D C5D 1_555 1_555
C9D C10D 1_555 1_555
C14G C15G 1_555 1_555
C17G C18G 1_555 1_555
C19G C20G 1_555 1_555

#END
