
#######################################################################
#
#                 Cambridge Crystallographic Data Centre
#                                CCDC 
#
#######################################################################
#
# If this CIF has been generated from an entry in the Cambridge 
# Structural Database, then it will include bibliographic, chemical, 
# crystal, experimental, refinement or atomic coordinate data resulting 
# from the CCDC's data processing and validation procedures.
#
#######################################################################

data_HUTTEV
_symmetry_cell_setting           triclinic
_symmetry_space_group_name_H-M   'P -1'
_symmetry_Int_Tables_number      2
_space_group_name_Hall           '-P 1'
loop_
_symmetry_equiv_pos_site_id
_symmetry_equiv_pos_as_xyz
1 x,y,z
2 -x,-y,-z
_cell_length_a                   11.901(2)
_cell_length_b                   15.473(3)
_cell_length_c                   16.855(3)
_cell_angle_alpha                67.1127(13)
_cell_angle_beta                 71.4649(14)
_cell_angle_gamma                84.8140(16)
_cell_volume                     2709.11
loop_
_atom_site_label
_atom_site_type_symbol
_atom_site_fract_x
_atom_site_fract_y
_atom_site_fract_z
Ag1 Ag 0.02997(7) 0.23546(5) 0.25912(6)
Ag2 Ag -0.42694(8) 0.78906(6) 0.14275(6)
Ag3 Ag 0.51146(9) -0.31186(6) 0.35972(7)
S1 S -0.0530(2) 0.44049(17) 0.1365(2)
S2 S 0.1533(2) 0.04322(17) 0.3651(2)
S3 S 0.2091(2) 0.14870(17) 0.10511(19)
S4 S -0.1822(2) 0.29783(16) 0.40661(19)
N1 N -0.3145(8) 0.6717(6) 0.1410(6)
N2 N -0.0810(7) 0.2697(6) 0.1527(6)
N3 N 0.3946(7) -0.1991(6) 0.3609(6)
N4 N -0.0549(7) 0.0849(5) 0.3475(6)
N5 N 0.4631(7) -0.0888(5) 0.1238(6)
N6 N 0.2163(7) 0.2949(5) 0.1463(5)
N7 N -0.3896(8) 0.5632(6) 0.3725(6)
N8 N 0.0503(7) 0.3030(6) 0.3607(6)
C1 C -0.1587(8) 0.5273(6) 0.1347(6)
C2 C -0.1165(9) 0.6183(7) 0.1090(7)
H1 H -0.0354 0.6319 0.0894
C3 C -0.1959(9) 0.6880(7) 0.1130(7)
H2 H -0.1669 0.7486 0.0959
C4 C -0.3532(9) 0.5856(8) 0.1643(8)
H3 H -0.4346 0.5742 0.1823
C5 C -0.2803(8) 0.5109(7) 0.1638(7)
H4 H -0.3122 0.4509 0.1826
C6 C -0.1137(8) 0.3565(7) 0.1127(6)
C7 C -0.1786(9) 0.3782(8) 0.0513(7)
H5 H -0.1987 0.4396 0.0234
C8 C -0.2115(10) 0.3077(10) 0.0334(8)
H6 H -0.2557 0.3201 -0.0062
C9 C -0.1781(11) 0.2159(10) 0.0754(10)
H7 H -0.1998 0.1664 0.0645
C10 C -0.1137(11) 0.2017(8) 0.1320(9)
H8 H -0.0902 0.1411 0.1585
C11 C 0.2386(8) -0.0564(6) 0.3671(6)
C12 C 0.3359(9) -0.0642(7) 0.3960(7)
H9 H 0.3500 -0.0219 0.4189
C13 C 0.4125(9) -0.1354(8) 0.3909(7)
H10 H 0.4794 -0.1391 0.4091
C14 C 0.2992(9) -0.1912(7) 0.3341(7)
H11 H 0.2853 -0.2360 0.3138
C15 C 0.2196(8) -0.1210(6) 0.3345(7)
H12 H 0.1552 -0.1172 0.3134
C16 C 0.0058(8) 0.0099(6) 0.3815(6)
C17 C -0.0468(9) -0.0788(7) 0.4299(7)
H13 H -0.0030 -0.1298 0.4536
C18 C -0.1634(9) -0.0902(7) 0.4422(7)
H14 H -0.2001 -0.1496 0.4738
C19 C -0.2279(9) -0.0142(8) 0.4083(8)
H15 H -0.3080 -0.0213 0.4163
C20 C -0.1705(9) 0.0723(7) 0.3624(7)
H16 H -0.2139 0.1244 0.3407
C21 C 0.3163(8) 0.0615(6) 0.1091(6)
C22 C 0.2979(8) -0.0093(6) 0.0821(6)
H17 H 0.2366 -0.0065 0.0581
C23 C 0.3716(9) -0.0821(7) 0.0918(7)
H18 H 0.3579 -0.1301 0.0754
C24 C 0.4808(8) -0.0206(7) 0.1485(7)
H19 H 0.5446 -0.0239 0.1700
C25 C 0.4087(8) 0.0542(6) 0.1436(7)
H20 H 0.4220 0.0996 0.1634
C26 C 0.2839(8) 0.2474(6) 0.0977(6)
C27 C 0.3976(9) 0.2758(7) 0.0425(7)
H21 H 0.4418 0.2411 0.0097
C28 C 0.4449(10) 0.3569(8) 0.0366(8)
H22 H 0.5222 0.3777 0.0004
C29 C 0.3757(10) 0.4067(7) 0.0854(8)
H23 H 0.4053 0.4616 0.0831
C30 C 0.2635(9) 0.3740(7) 0.1368(8)
H24 H 0.2164 0.4095 0.1675
C31 C -0.2571(8) 0.4038(6) 0.3946(6)
C32 C -0.3796(8) 0.3981(7) 0.4132(7)
H25 H -0.4189 0.3405 0.4340
C33 C -0.4415(9) 0.4798(7) 0.4000(7)
H26 H -0.5229 0.4762 0.4109
C34 C -0.2707(9) 0.5685(7) 0.3549(8)
H27 H -0.2330 0.6266 0.3349
C35 C -0.2042(9) 0.4891(7) 0.3661(7)
H28 H -0.1227 0.4943 0.3539
C36 C -0.0462(8) 0.3229(6) 0.4165(7)
C37 C -0.0428(10) 0.3526(8) 0.4844(7)
H29 H -0.1119 0.3620 0.5251
C38 C 0.0693(12) 0.3676(9) 0.4884(9)
H30 H 0.0763 0.3895 0.5308
C39 C 0.1665(12) 0.3498(10) 0.4305(10)
H31 H 0.2414 0.3599 0.4321
C40 C 0.1548(10) 0.3172(8) 0.3696(8)
H32 H 0.2236 0.3038 0.3315
N5_2 N -0.5369(7) 0.9112(5) 0.1238(6)
N7_2 N 0.6104(8) -0.4368(6) 0.3725(6)
Ag2_2 Ag 0.57306(8) -0.21094(6) 0.14275(6)
Ag3_2 Ag -0.48854(9) 0.68814(6) 0.35972(7)
O1 O 0.7674(11) 0.9050(10) 0.1122(9)
O2 O 0.7377(11) 0.9661(10) 0.2283(11)
O3 O 0.7602(17) 0.8063(11) 0.2592(11)
C41 C 0.9395(18) 0.9071(19) 0.1666(17)
S5 S 0.7819(3) 0.8988(3) 0.1939(3)
F1 F 0.9962(10) 0.8553(10) 0.1263(10)
F2 F 0.9768(15) 0.9951(14) 0.1062(17)
F3 F 0.9730(13) 0.9002(19) 0.2327(13)
O4 O 0.6802(11) 0.4649(8) -0.2004(10)
O5 O 0.6660(12) 0.3904(11) -0.2940(12)
O6 O 0.6436(11) 0.3048(8) -0.1449(12)
C42 C 0.8474(12) 0.3605(14) -0.2444(10)
S6 S 0.6914(3) 0.3841(2) -0.2180(3)
F4 F 0.8718(9) 0.2862(10) -0.2634(9)
F5 F 0.9084(10) 0.4287(11) -0.3171(10)
F6 F 0.8917(11) 0.3555(15) -0.1865(10)
S7 S 0.5081(7) 0.2079(10) 0.3645(7)
O7 O 0.6454(9) 0.2523(11) 0.3167(15)
O8 O 0.5259(16) 0.0918(10) 0.378(3)
O9 O 0.4336(12) 0.2339(14) 0.4182(12)
C43 C 0.504(3) 0.208(3) 0.275(2)
F7 F 0.3806(9) 0.1772(10) 0.2973(12)
F8 F 0.5684(13) 0.1859(17) 0.2188(12)
F9 F 0.5008(17) 0.3258(13) 0.2428(17)
loop_
_geom_bond_atom_site_label_1
_geom_bond_atom_site_label_2
_geom_bond_site_symmetry_1
_geom_bond_site_symmetry_2
Ag1 N2 1_555 1_555
Ag2 N1 1_555 1_555
Ag3 N3 1_555 1_555
S1 C1 1_555 1_555
S2 C11 1_555 1_555
S3 C21 1_555 1_555
S4 C31 1_555 1_555
N1 C3 1_555 1_555
N2 C6 1_555 1_555
N3 C13 1_555 1_555
N4 Ag1 1_555 1_555
N5 C23 1_555 1_555
N6 Ag1 1_555 1_555
N7 C33 1_555 1_555
N8 Ag1 1_555 1_555
C1 C2 1_555 1_555
C2 H1 1_555 1_555
C3 C2 1_555 1_555
H2 C3 1_555 1_555
C4 N1 1_555 1_555
H3 C4 1_555 1_555
C5 C1 1_555 1_555
H4 C5 1_555 1_555
C6 S1 1_555 1_555
C7 C6 1_555 1_555
H5 C7 1_555 1_555
C8 C7 1_555 1_555
H6 C8 1_555 1_555
C9 C8 1_555 1_555
H7 C9 1_555 1_555
C10 N2 1_555 1_555
H8 C10 1_555 1_555
C11 C12 1_555 1_555
C12 H9 1_555 1_555
C13 C12 1_555 1_555
H10 C13 1_555 1_555
C14 N3 1_555 1_555
H11 C14 1_555 1_555
C15 C11 1_555 1_555
H12 C15 1_555 1_555
C16 S2 1_555 1_555
C17 C16 1_555 1_555
H13 C17 1_555 1_555
C18 C17 1_555 1_555
H14 C18 1_555 1_555
C19 C18 1_555 1_555
H15 C19 1_555 1_555
C20 N4 1_555 1_555
H16 C20 1_555 1_555
C21 C22 1_555 1_555
C22 H17 1_555 1_555
C23 C22 1_555 1_555
H18 C23 1_555 1_555
C24 N5 1_555 1_555
H19 C24 1_555 1_555
C25 C21 1_555 1_555
H20 C25 1_555 1_555
C26 S3 1_555 1_555
C27 C26 1_555 1_555
H21 C27 1_555 1_555
C28 C27 1_555 1_555
H22 C28 1_555 1_555
C29 C28 1_555 1_555
H23 C29 1_555 1_555
C30 N6 1_555 1_555
H24 C30 1_555 1_555
C31 C32 1_555 1_555
C32 H25 1_555 1_555
C33 C32 1_555 1_555
H26 C33 1_555 1_555
C34 N7 1_555 1_555
H27 C34 1_555 1_555
C35 C31 1_555 1_555
H28 C35 1_555 1_555
C36 S4 1_555 1_555
C37 C36 1_555 1_555
H29 C37 1_555 1_555
C38 C37 1_555 1_555
H30 C38 1_555 1_555
C39 C38 1_555 1_555
H31 C39 1_555 1_555
C40 N8 1_555 1_555
H32 C40 1_555 1_555
O1 S5 1_555 1_555
O2 S5 1_555 1_555
O3 S5 1_555 1_555
C41 S5 1_555 1_555
F1 C41 1_555 1_555
F2 C41 1_555 1_555
F3 C41 1_555 1_555
O4 S6 1_555 1_555
O5 S6 1_555 1_555
O6 S6 1_555 1_555
C42 S6 1_555 1_555
F4 C42 1_555 1_555
F5 C42 1_555 1_555
F6 C42 1_555 1_555
S7 O7 1_555 1_555
O8 S7 1_555 1_555
O9 S7 1_555 1_555
C43 S7 1_555 1_555
F7 C43 1_555 1_555
F8 C43 1_555 1_555
F9 C43 1_555 1_555
N5_2 Ag2 1_555 1_555
N7_2 Ag3 1_555 1_555
Ag2_2 N5 1_555 1_555
Ag3_2 N7 1_555 1_555
N4 C16 1_555 1_555
N6 C26 1_555 1_555
N8 C36 1_555 1_555
C4 C5 1_555 1_555
C9 C10 1_555 1_555
C14 C15 1_555 1_555
C19 C20 1_555 1_555
C24 C25 1_555 1_555
C29 C30 1_555 1_555
C34 C35 1_555 1_555
C39 C40 1_555 1_555

#END
