
#######################################################################
#
#                 Cambridge Crystallographic Data Centre
#                                CCDC 
#
#######################################################################
#
# If this CIF has been generated from an entry in the Cambridge 
# Structural Database, then it will include bibliographic, chemical, 
# crystal, experimental, refinement or atomic coordinate data resulting 
# from the CCDC's data processing and validation procedures.
#
#######################################################################

data_HUTTAR
_symmetry_cell_setting           monoclinic
_symmetry_space_group_name_H-M   'C 2/c'
_symmetry_Int_Tables_number      15
_space_group_name_Hall           '-C 2yn'
loop_
_symmetry_equiv_pos_site_id
_symmetry_equiv_pos_as_xyz
1 x,y,z
2 1/2+x,1/2+y,z
3 x,-y,1/2+z
4 1/2+x,1/2-y,1/2+z
5 -x,-y,-z
6 1/2-x,1/2-y,-z
7 -x,y,1/2-z
8 1/2-x,1/2+y,1/2-z
_cell_length_a                   15.894(6)
_cell_length_b                   9.9092(13)
_cell_length_c                   17.518(3)
_cell_angle_alpha                90
_cell_angle_beta                 97.8(2)
_cell_angle_gamma                90
_cell_volume                     2733.5
loop_
_atom_site_label
_atom_site_type_symbol
_atom_site_fract_x
_atom_site_fract_y
_atom_site_fract_z
Ag1 Ag 0.46469(2) 0.12536(4) 0.42083(2)
S1 S 0.28423(9) 0.31005(13) 0.34032(7)
N1 N 0.3263(2) 0.0936(4) 0.4304(2)
N2 N 0.4348(2) 0.1709(4) 0.1532(2)
C1 C 0.2626(3) 0.1706(4) 0.3979(2)
C2 C 0.1800(3) 0.1560(6) 0.4132(3)
H1 H 0.1371 0.2118 0.3896
C3 C 0.1627(3) 0.0581(6) 0.4637(3)
H2 H 0.1080 0.0473 0.4759
C4 C 0.2273(4) -0.0239(6) 0.4960(3)
H3 H 0.2167 -0.0929 0.5294
C5 C 0.3082(3) -0.0029(5) 0.4785(3)
H4 H 0.3519 -0.0582 0.5012
C6 C 0.3993(3) 0.0786(5) 0.1944(3)
H5 H 0.4077 -0.0121 0.1840
C7 C 0.3509(3) 0.1107(4) 0.2516(3)
H6 H 0.3267 0.0433 0.2785
C8 C 0.3392(3) 0.2452(4) 0.2681(2)
C9 C 0.3735(3) 0.3414(5) 0.2233(3)
H7 H 0.3652 0.4330 0.2313
C10 C 0.4196(3) 0.2992(5) 0.1674(3)
H8 H 0.4415 0.3644 0.1375
C11 C 0.5363(3) 0.2333(5) 0.5734(3)
C12 C 0.5804(4) 0.2849(6) 0.6495(3)
O1 O 0.4956(3) 0.1277(4) 0.5745(3)
O2 O 0.5445(3) 0.3006(5) 0.5175(2)
F1 F 0.5760(4) 0.2066(6) 0.7080(2)
F2 F 0.5450(6) 0.3955(6) 0.6684(4)
F3 F 0.6571(4) 0.3107(12) 0.6505(3)
N2F N 0.5652(2) 0.1709(4) 0.3468(2)
O1D O 0.5044(3) -0.1277(4) 0.4255(3)
Ag1F Ag 0.53531(2) 0.12536(4) 0.07917(2)
Ag1D Ag 0.53531(2) -0.12536(4) 0.57917(2)
loop_
_geom_bond_atom_site_label_1
_geom_bond_atom_site_label_2
_geom_bond_site_symmetry_1
_geom_bond_site_symmetry_2
Ag1 N1 1_555 1_555
S1 C1 1_555 1_555
N1 C1 1_555 1_555
N2 C6 1_555 1_555
C1 C2 1_555 1_555
C2 H1 1_555 1_555
C3 C2 1_555 1_555
H2 C3 1_555 1_555
C4 C3 1_555 1_555
H3 C4 1_555 1_555
C5 N1 1_555 1_555
H4 C5 1_555 1_555
C6 H5 1_555 1_555
C7 C6 1_555 1_555
H6 C7 1_555 1_555
C8 S1 1_555 1_555
C9 C8 1_555 1_555
H7 C9 1_555 1_555
C10 N2 1_555 1_555
H8 C10 1_555 1_555
C11 C12 1_555 1_555
C12 F1 1_555 1_555
O1 Ag1 1_555 1_555
O2 Ag1 1_555 1_555
F2 C12 1_555 1_555
F3 C12 1_555 1_555
N2F Ag1 1_555 1_555
O1D Ag1 1_555 1_555
Ag1F N2 1_555 1_555
Ag1D O1 1_555 1_555
C4 C5 1_555 1_555
C7 C8 1_555 1_555
C9 C10 1_555 1_555
C11 O1 1_555 1_555
C11 O2 1_555 1_555
O1D Ag1D 1_555 1_555

#END
