
#######################################################################
#
#                 Cambridge Crystallographic Data Centre
#                                CCDC 
#
#######################################################################
#
# If this CIF has been generated from an entry in the Cambridge 
# Structural Database, then it will include bibliographic, chemical, 
# crystal, experimental, refinement or atomic coordinate data resulting 
# from the CCDC's data processing and validation procedures.
#
#######################################################################

data_HUTTEW01
_symmetry_cell_setting           monoclinic
_symmetry_space_group_name_H-M   'P 21/c'
_symmetry_Int_Tables_number      14
_space_group_name_Hall           '-P 2ybc'
loop_
_symmetry_equiv_pos_site_id
_symmetry_equiv_pos_as_xyz
1 x,y,z
2 -x,1/2+y,1/2-z
3 -x,-y,-z
4 x,1/2-y,1/2+z
_cell_length_a                   26.1968(16)
_cell_length_b                   12.0037(7)
_cell_length_c                   13.5286(8)
_cell_angle_alpha                90
_cell_angle_beta                 93.5300(10)
_cell_angle_gamma                90
_cell_volume                     4246.11
loop_
_atom_site_label
_atom_site_type_symbol
_atom_site_fract_x
_atom_site_fract_y
_atom_site_fract_z
Zn1 Zn 0.267674(12) -0.13237(3) 0.90356(2)
Zn2 Zn 0.765450(12) 0.00904(2) 1.36065(2)
O1 O 0.29262(7) 0.00237(16) 0.98453(14)
O2 O 0.34249(8) -0.14401(17) 1.00289(16)
O3 O 0.68945(7) 0.06543(16) 1.21478(15)
O4 O 0.70115(7) 0.08860(17) 1.37650(15)
O5 O 0.19754(7) -0.07859(18) 0.86118(15)
O6 O 0.17835(7) -0.08160(17) 0.69835(15)
O7 O 0.23717(8) -0.21683(16) 1.02613(14)
H1 H 0.2119 -0.2594 1.0114
H2 H 0.2592 -0.2566 1.0587
O8 O -0.20537(7) -0.02790(16) 0.49188(14)
O9 O -0.16773(9) 0.13222(18) 0.53576(17)
N1 N 0.24495(9) -0.85043(18) 0.69137(17)
N2 N 0.27101(9) -0.28693(18) 0.83387(17)
F1 F 0.48468(7) 0.38014(15) 1.37914(15)
F2 F 0.46370(7) 0.36481(14) 1.22477(15)
F3 F 0.40561(6) 0.36601(14) 1.33048(15)
F4 F 0.45404(6) 0.22526(17) 1.49818(13)
F5 F 0.44660(7) 0.05909(17) 1.44141(13)
F6 F 0.38503(6) 0.17486(17) 1.41828(14)
F7 F -0.04054(7) -0.37216(15) 0.74734(17)
F8 F -0.01471(8) -0.38483(17) 0.89947(17)
F9 F -0.09498(7) -0.37358(16) 0.85999(16)
F10 F -0.04532(7) -0.2302(2) 1.02043(14)
F11 F -0.05153(8) -0.0642(2) 0.96284(14)
F12 F -0.11491(7) -0.1756(2) 0.94502(14)
C1 C 0.33185(11) -0.0457(3) 1.0238(2)
C2 C 0.36564(10) 0.0195(2) 1.0963(2)
C3 C 0.40163(11) -0.0334(2) 1.1583(2)
H3 H 0.4063 -0.1099 1.1530
C4 C 0.43085(11) 0.0264(2) 1.2284(2)
H4 H 0.4551 -0.0104 1.2695
C5 C 0.42449(10) 0.1409(2) 1.2384(2)
C6 C 0.38854(10) 0.1936(2) 1.1752(2)
H5 H 0.3836 0.2701 1.1802
C7 C 0.35994(10) 0.1330(2) 1.1045(2)
H6 H 0.3364 0.1698 1.0618
C8 C 0.45715(10) 0.2011(2) 1.3212(2)
C9 C 0.51462(10) 0.1722(2) 1.3166(2)
C10 C 0.54637(10) 0.1563(3) 1.4006(2)
H7 H 0.5332 0.1623 1.4627
C11 C 0.53543(10) 0.1657(2) 1.2257(2)
H8 H 0.5147 0.1778 1.1684
C12 C 0.45237(11) 0.3288(3) 1.3138(3)
C13 C 0.43598(11) 0.1654(3) 1.4206(2)
C14 C 0.67312(10) 0.0911(2) 1.2956(2)
C15 C 0.61831(10) 0.1234(2) 1.3022(2)
C16 C 0.58683(10) 0.1415(2) 1.2181(2)
H9 H 0.6002 0.1374 1.1561
C17 C 0.59753(11) 0.1313(3) 1.3934(2)
H10 H 0.6183 0.1196 1.4507
C18 C -0.17302(11) 0.0310(3) 0.5431(2)
C19 C 0.16717(11) -0.0915(2) 0.7874(2)
C20 C 0.11319(10) -0.1237(2) 0.8031(2)
C21 C 0.09676(11) -0.1356(3) 0.8972(2)
H11 H 0.1197 -0.1253 0.9516
C22 C 0.04635(11) -0.1627(3) 0.9119(2)
H12 H 0.0359 -0.1709 0.9759
C23 C 0.01154(10) -0.1777(2) 0.8319(2)
C24 C 0.02850(10) -0.1698(2) 0.7375(2)
H13 H 0.0058 -0.1825 0.6831
C25 C 0.07881(10) -0.1433(2) 0.7230(2)
H14 H 0.0897 -0.1386 0.6590
C26 C -0.04521(10) -0.2074(2) 0.8432(2)
C27 C -0.07965(10) -0.1488(2) 0.7624(2)
C28 C -0.11726(10) -0.2022(2) 0.7047(2)
H15 H -0.1230 -0.2779 0.7138
C29 C -0.14653(10) -0.1445(2) 0.6336(2)
H16 H -0.1711 -0.1827 0.5944
C30 C -0.14028(10) -0.0318(2) 0.6191(2)
C31 C -0.10283(11) 0.0226(3) 0.6776(2)
H17 H -0.0978 0.0987 0.6695
C32 C -0.07282(11) -0.0352(3) 0.7480(2)
H18 H -0.0477 0.0025 0.7863
C33 C -0.04906(12) -0.3351(3) 0.8374(3)
C34 C -0.06428(13) -0.1696(3) 0.9434(3)
C35 C 0.26427(11) -0.8226(2) 0.7822(2)
H19 H 0.2736 -0.8788 0.8270
C36 C 0.27071(11) -0.7136(2) 0.8109(2)
H20 H 0.2840 -0.6972 0.8746
C37 C 0.25767(10) -0.6281(2) 0.7461(2)
C38 C 0.23767(11) -0.6574(2) 0.6527(2)
H21 H 0.2283 -0.6025 0.6066
C39 C 0.23178(11) -0.7673(2) 0.6286(2)
H22 H 0.2180 -0.7854 0.5656
C40 C 0.26400(10) -0.5092(2) 0.7743(2)
C41 C 0.30032(12) -0.4741(2) 0.8446(3)
H23 H 0.3234 -0.5248 0.8740
C42 C 0.30252(12) -0.3640(3) 0.8716(3)
H24 H 0.3277 -0.3423 0.9193
C43 C 0.23735(13) -0.3203(3) 0.7629(2)
H25 H 0.2158 -0.2671 0.7325
C44 C 0.23236(13) -0.4288(2) 0.7314(2)
H26 H 0.2078 -0.4478 0.6817
Zn1B Zn 0.732326(12) 0.13237(3) 1.09644(2)
Zn2B Zn 0.234550(12) -0.00904(2) 0.63935(2)
Zn2_2 Zn -0.234550(12) 0.00904(2) 0.36065(2)
Zn2B_2 Zn 0.234550(12) -1.00904(2) 0.63935(2)
O3B O 0.31055(7) -0.06543(16) 0.78522(15)
O6B O 0.82165(7) 0.08160(17) 1.30165(15)
O8_2 O 0.79463(7) -0.02790(16) 1.49188(14)
N1B N 0.75505(9) -0.14957(18) 1.30863(17)
loop_
_geom_bond_atom_site_label_1
_geom_bond_atom_site_label_2
_geom_bond_site_symmetry_1
_geom_bond_site_symmetry_2
Zn1 O1 1_555 1_555
Zn2 O4 1_555 1_555
O1 C1 1_555 1_555
O2 Zn1 1_555 1_555
O3 C14 1_555 1_555
O4 C14 1_555 1_555
O5 Zn1 1_555 1_555
O6 C19 1_555 1_555
O7 Zn1 1_555 1_555
H1 O7 1_555 1_555
H2 O7 1_555 1_555
O8 C18 1_555 1_555
O9 C18 1_555 1_555
N1 C35 1_555 1_555
N2 Zn1 1_555 1_555
F1 C12 1_555 1_555
F2 C12 1_555 1_555
F3 C12 1_555 1_555
F4 C13 1_555 1_555
F5 C13 1_555 1_555
F6 C13 1_555 1_555
F7 C33 1_555 1_555
F8 C33 1_555 1_555
F9 C33 1_555 1_555
F10 C34 1_555 1_555
F11 C34 1_555 1_555
F12 C34 1_555 1_555
C1 O2 1_555 1_555
C2 C1 1_555 1_555
C3 C2 1_555 1_555
H3 C3 1_555 1_555
C4 C3 1_555 1_555
H4 C4 1_555 1_555
C5 C4 1_555 1_555
C6 C5 1_555 1_555
H5 C6 1_555 1_555
C7 C2 1_555 1_555
H6 C7 1_555 1_555
C8 C5 1_555 1_555
C9 C8 1_555 1_555
C10 C9 1_555 1_555
H7 C10 1_555 1_555
C11 C9 1_555 1_555
H8 C11 1_555 1_555
C12 C8 1_555 1_555
C13 C8 1_555 1_555
C14 C15 1_555 1_555
C15 C16 1_555 1_555
C16 C11 1_555 1_555
H9 C16 1_555 1_555
C17 C10 1_555 1_555
H10 C17 1_555 1_555
C18 C30 1_555 1_555
C19 O5 1_555 1_555
C20 C19 1_555 1_555
C21 C20 1_555 1_555
H11 C21 1_555 1_555
C22 C21 1_555 1_555
H12 C22 1_555 1_555
C23 C22 1_555 1_555
C24 C23 1_555 1_555
H13 C24 1_555 1_555
C25 C20 1_555 1_555
H14 C25 1_555 1_555
C26 C23 1_555 1_555
C27 C26 1_555 1_555
C28 C27 1_555 1_555
H15 C28 1_555 1_555
C29 C28 1_555 1_555
H16 C29 1_555 1_555
C30 C29 1_555 1_555
C31 C30 1_555 1_555
H17 C31 1_555 1_555
C32 C27 1_555 1_555
H18 C32 1_555 1_555
C33 C26 1_555 1_555
C34 C26 1_555 1_555
C35 H19 1_555 1_555
C36 C35 1_555 1_555
H20 C36 1_555 1_555
C37 C36 1_555 1_555
C38 C37 1_555 1_555
H21 C38 1_555 1_555
C39 N1 1_555 1_555
H22 C39 1_555 1_555
C40 C37 1_555 1_555
C41 C40 1_555 1_555
H23 C41 1_555 1_555
C42 N2 1_555 1_555
H24 C42 1_555 1_555
C43 N2 1_555 1_555
H25 C43 1_555 1_555
C44 C40 1_555 1_555
H26 C44 1_555 1_555
Zn1B O3 1_555 1_555
Zn2B O6 1_555 1_555
Zn2_2 O8 1_555 1_555
Zn2B_2 N1 1_555 1_555
O3B Zn1 1_555 1_555
O6B Zn2 1_555 1_555
O8_2 Zn2 1_555 1_555
N1B Zn2 1_555 1_555
C6 C7 1_555 1_555
C15 C17 1_555 1_555
C24 C25 1_555 1_555
C31 C32 1_555 1_555
C38 C39 1_555 1_555
C41 C42 1_555 1_555
C43 C44 1_555 1_555

#END
