
#######################################################################
#
#                 Cambridge Crystallographic Data Centre
#                                CCDC 
#
#######################################################################
#
# If this CIF has been generated from an entry in the Cambridge 
# Structural Database, then it will include bibliographic, chemical, 
# crystal, experimental, refinement or atomic coordinate data resulting 
# from the CCDC's data processing and validation procedures.
#
#######################################################################

data_HUTTUM
_symmetry_cell_setting           triclinic
_symmetry_space_group_name_H-M   'P -1'
_symmetry_Int_Tables_number      2
_space_group_name_Hall           '-P 1'
loop_
_symmetry_equiv_pos_site_id
_symmetry_equiv_pos_as_xyz
1 x,y,z
2 -x,-y,-z
_cell_length_a                   8.8564(12)
_cell_length_b                   12.527(2)
_cell_length_c                   14.169(2)
_cell_angle_alpha                81.870(2)
_cell_angle_beta                 73.992(2)
_cell_angle_gamma                80.204(2)
_cell_volume                     1481.55
loop_
_atom_site_label
_atom_site_type_symbol
_atom_site_fract_x
_atom_site_fract_y
_atom_site_fract_z
Co1 Co -0.02332(4) 0.64050(3) 0.37408(3)
F1 F 1.07068(18) 0.79825(14) -0.08302(11)
F2 F 0.95577(19) 0.68290(13) 0.02935(12)
F3 F 0.95157(19) 0.84642(14) 0.06130(12)
F4 F 0.88153(19) 0.99157(13) -0.10980(11)
F5 F 0.6388(2) 0.97873(12) -0.10244(12)
F6 F 0.7076(2) 0.98956(12) 0.02984(11)
O1 O 0.1142(2) 0.66278(14) 0.22262(13)
O2 O 0.1989(2) 0.70825(15) 0.34157(13)
O3 O 0.8837(2) 0.50729(14) -0.39281(13)
O4 O 0.9031(2) 0.66914(15) -0.48154(13)
N1 N -0.1954(3) 0.55002(17) 0.35836(16)
N2 N -0.1651(3) -0.20511(17) 0.34759(15)
C1 C 0.2186(3) 0.6974(2) 0.2513(2)
C2 C 0.3653(3) 0.7280(2) 0.17693(19)
C3 C 0.3760(3) 0.7362(2) 0.07659(19)
H1 H 0.2898 0.7217 0.0549
C4 C 0.5111(3) 0.7654(2) 0.0078(2)
H2 H 0.5154 0.7726 -0.0605
C5 C 0.6399(3) 0.7841(2) 0.03749(19)
C6 C 0.6283(3) 0.7775(2) 0.1381(2)
H3 H 0.7141 0.7923 0.1599
C7 C 0.4922(3) 0.7495(2) 0.2066(2)
H4 H 0.4861 0.7450 0.2750
C8 C 0.7870(3) 0.8198(2) -0.04173(19)
C9 C 0.9411(4) 0.7875(2) -0.0084(2)
C10 C 0.7543(4) 0.9460(2) -0.0563(2)
C11 C 0.8166(3) 0.7676(2) -0.13892(19)
C12 C 0.8073(3) 0.6572(2) -0.13310(19)
H5 H 0.7815 0.6169 -0.0702
C13 C 0.8347(3) 0.6051(2) -0.21700(19)
H6 H 0.8281 0.5294 -0.2110
C14 C 0.8718(3) 0.6620(2) -0.31007(19)
C15 C 0.8863(3) 0.7715(2) -0.3162(2)
H7 H 0.9153 0.8114 -0.3791
C16 C 0.8592(3) 0.8235(2) -0.2317(2)
H8 H 0.8700 0.8985 -0.2376
C17 C 0.8909(3) 0.6080(2) -0.4024(2)
C18 C -0.2673(3) 0.4821(2) 0.4330(2)
H9 H -0.2577 0.4861 0.4975
C19 C -0.3543(3) 0.4071(2) 0.4196(2)
H10 H -0.4030 0.3606 0.4745
C20 C -0.3715(3) 0.3987(2) 0.3267(2)
C21 C -0.2988(4) 0.4692(2) 0.2506(2)
H11 H -0.3078 0.4674 0.1856
C22 C -0.2126(4) 0.5427(2) 0.2692(2)
H12 H -0.1632 0.5904 0.2155
C23 C -0.4582(3) 0.3122(2) 0.3102(2)
H13 H -0.4751 0.3266 0.2431
H14 H -0.5633 0.3148 0.3584
C24 C -0.3641(3) 0.1993(2) 0.3217(2)
H15 H -0.3423 0.1874 0.3875
H16 H -0.2609 0.1966 0.2715
C25 C -0.4499(3) 0.1072(2) 0.3106(2)
H17 H -0.5535 0.1098 0.3603
H18 H -0.4701 0.1179 0.2443
C26 C -0.3539(3) -0.0027(2) 0.3237(2)
C27 C -0.4088(3) -0.0850(2) 0.3946(2)
H19 H -0.5128 -0.0739 0.4370
C28 C -0.3136(3) -0.1828(2) 0.4042(2)
H20 H -0.3552 -0.2376 0.4534
C29 C -0.1121(3) -0.1260(2) 0.27935(19)
H21 H -0.0073 -0.1390 0.2385
C30 C -0.2012(3) -0.0263(2) 0.2647(2)
H22 H -0.1576 0.0264 0.2140
Co1A Co 1.02332(4) 0.35950(3) -0.37408(3)
Co1_2 Co 0.97668(4) 0.64050(3) -0.62592(3)
Co1_3 Co -0.02332(4) -0.35950(3) 0.37408(3)
O3A O 0.1163(2) 0.49271(14) 0.39281(13)
O4_2 O -0.0969(2) 0.66914(15) 0.51846(13)
N2_2 N -0.1651(3) 0.79489(17) 0.34759(15)
O5 O 0.2151(4) 0.8516(2) 0.46903(19)
H23 H 0.218(5) 0.802(3) 0.430(3)
C31 C 0.1770(6) 0.9461(3) 0.4143(4)
H24 H 0.1897 1.0082 0.4451
H25 H 0.0667 0.9518 0.4112
H26 H 0.2473 0.9460 0.3474
loop_
_geom_bond_atom_site_label_1
_geom_bond_atom_site_label_2
_geom_bond_site_symmetry_1
_geom_bond_site_symmetry_2
Co1 O1 1_555 1_555
F1 C9 1_555 1_555
F2 C9 1_555 1_555
F3 C9 1_555 1_555
F4 C10 1_555 1_555
F5 C10 1_555 1_555
F6 C10 1_555 1_555
O1 C1 1_555 1_555
O2 Co1 1_555 1_555
O3 C17 1_555 1_555
O4 C17 1_555 1_555
N1 Co1 1_555 1_555
N2 C28 1_555 1_555
C1 O2 1_555 1_555
C2 C1 1_555 1_555
C3 C2 1_555 1_555
H1 C3 1_555 1_555
C4 C3 1_555 1_555
H2 C4 1_555 1_555
C5 C4 1_555 1_555
C6 C5 1_555 1_555
H3 C6 1_555 1_555
C7 C2 1_555 1_555
H4 C7 1_555 1_555
C8 C5 1_555 1_555
C9 C8 1_555 1_555
C10 C8 1_555 1_555
C11 C8 1_555 1_555
C12 C11 1_555 1_555
H5 C12 1_555 1_555
C13 C12 1_555 1_555
H6 C13 1_555 1_555
C14 C13 1_555 1_555
C15 C14 1_555 1_555
H7 C15 1_555 1_555
C16 C11 1_555 1_555
H8 C16 1_555 1_555
C17 C14 1_555 1_555
C18 N1 1_555 1_555
H9 C18 1_555 1_555
C19 C18 1_555 1_555
H10 C19 1_555 1_555
C20 C19 1_555 1_555
C21 C20 1_555 1_555
H11 C21 1_555 1_555
C22 N1 1_555 1_555
H12 C22 1_555 1_555
C23 C20 1_555 1_555
H13 C23 1_555 1_555
H14 C23 1_555 1_555
C24 C23 1_555 1_555
H15 C24 1_555 1_555
H16 C24 1_555 1_555
C25 C24 1_555 1_555
H17 C25 1_555 1_555
H18 C25 1_555 1_555
C26 C25 1_555 1_555
C27 C26 1_555 1_555
H19 C27 1_555 1_555
C28 C27 1_555 1_555
H20 C28 1_555 1_555
C29 N2 1_555 1_555
H21 C29 1_555 1_555
C30 C26 1_555 1_555
H22 C30 1_555 1_555
O5 H23 1_555 1_555
C31 O5 1_555 1_555
H24 C31 1_555 1_555
H25 C31 1_555 1_555
H26 C31 1_555 1_555
Co1A O3 1_555 1_555
Co1_2 O4 1_555 1_555
Co1_3 N2 1_555 1_555
O3A Co1 1_555 1_555
O4_2 Co1 1_555 1_555
N2_2 Co1 1_555 1_555
C6 C7 1_555 1_555
C15 C16 1_555 1_555
C21 C22 1_555 1_555
C29 C30 1_555 1_555

#END
