
#######################################################################
#
#                 Cambridge Crystallographic Data Centre
#                                CCDC 
#
#######################################################################
#
# If this CIF has been generated from an entry in the Cambridge 
# Structural Database, then it will include bibliographic, chemical, 
# crystal, experimental, refinement or atomic coordinate data resulting 
# from the CCDC's data processing and validation procedures.
#
#######################################################################

data_HUTTOG
_symmetry_cell_setting           monoclinic
_symmetry_space_group_name_H-M   'P 21/c'
_symmetry_Int_Tables_number      14
_space_group_name_Hall           '-P 2ybc'
loop_
_symmetry_equiv_pos_site_id
_symmetry_equiv_pos_as_xyz
1 x,y,z
2 -x,1/2+y,1/2-z
3 -x,-y,-z
4 x,1/2-y,1/2+z
_cell_length_a                   11.983(2)
_cell_length_b                   15.990(2)
_cell_length_c                   28.353(3)
_cell_angle_alpha                90
_cell_angle_beta                 104.736(5)
_cell_angle_gamma                90
_cell_volume                     5253.98
loop_
_atom_site_label
_atom_site_type_symbol
_atom_site_fract_x
_atom_site_fract_y
_atom_site_fract_z
Cd1 Cd 1.00058(3) 0.35089(2) 0.246164(12)
Cd2 Cd 0.97622(3) 0.59229(2) 0.253758(12)
F1 F 0.4813(3) 0.6055(2) 0.02150(12)
F2 F 0.4580(3) 0.7065(2) 0.06756(13)
F3 F 0.3172(3) 0.6673(2) 0.00767(12)
F4 F 0.1838(3) 0.5419(2) 0.02631(12)
F5 F 0.3296(3) 0.4816(2) 0.01007(12)
F6 F 0.2737(3) 0.4449(2) 0.07322(12)
F7 F 1.6066(3) 0.5520(2) 0.49779(11)
F8 F 1.7477(3) 0.6190(2) 0.48118(11)
F9 F 1.6809(3) 0.5091(2) 0.44038(11)
F10 F 1.4407(3) 0.6689(2) 0.47398(12)
F11 F 1.4636(3) 0.7610(2) 0.42232(12)
F12 F 1.5994(3) 0.7381(2) 0.48628(11)
O1 O 0.8469(3) 0.4848(2) 0.24195(13)
O2 O 0.8407(3) 0.3818(3) 0.18885(14)
O3 O 0.0812(3) 0.8044(2) 0.19708(14)
O4 O 0.1039(3) 0.6937(2) 0.24484(12)
O5 O 1.1580(3) 0.3775(3) 0.30986(14)
O6 O 1.1119(3) 0.4871(2) 0.26152(12)
O7 O 1.8992(3) 0.8134(3) 0.30520(14)
O8 O 1.8551(3) 0.6989(2) 0.25977(13)
O9 O 1.0104(3) 0.5712(2) 0.33470(13)
O10 O 0.9134(3) 0.6026(2) 0.17122(13)
N1 N 0.9922(4) 0.4996(3) 0.40124(16)
N2 N 0.8740(5) 0.6863(3) 0.10479(17)
C1 C 0.8009(4) 0.4473(4) 0.20260(18)
C2 C 0.6897(4) 0.4806(3) 0.17034(18)
C3 C 0.6437(4) 0.5564(3) 0.18028(18)
H1 H 0.6834 0.5883 0.2077
C4 C 0.5410(4) 0.5860(3) 0.15082(18)
H2 H 0.5112 0.6382 0.1580
C5 C 0.4805(4) 0.5395(3) 0.11037(17)
C6 C 0.5282(4) 0.4647(4) 0.09978(19)
H3 H 0.4899 0.4333 0.0719
C7 C 0.6313(5) 0.4356(4) 0.12951(19)
H4 H 0.6624 0.3842 0.1219
C8 C 0.3683(4) 0.5772(3) 0.07813(17)
C9 C 0.4061(5) 0.6395(4) 0.0436(2)
C10 C 0.2886(4) 0.5109(4) 0.04656(19)
C11 C 0.2975(4) 0.6194(3) 0.11014(17)
C12 C 0.2807(4) 0.5741(3) 0.15025(19)
H5 H 0.3111 0.5191 0.1562
C13 C 0.2204(4) 0.6085(3) 0.18114(18)
H6 H 0.2092 0.5770 0.2080
C14 C 0.1760(4) 0.6891(3) 0.17302(17)
C15 C 0.1895(5) 0.7330(3) 0.1324(2)
H7 H 0.1575 0.7875 0.1262
C16 C 0.2490(5) 0.6984(3) 0.10088(19)
H8 H 0.2564 0.7289 0.0731
C17 C 0.1166(4) 0.7313(3) 0.20763(18)
C18 C 1.1740(4) 0.4518(3) 0.29941(18)
C19 C 1.2721(4) 0.4994(3) 0.33267(18)
C20 C 1.3424(4) 0.4588(3) 0.37284(18)
H9 H 1.3265 0.4026 0.3797
C21 C 1.4365(4) 0.5005(3) 0.40326(18)
H10 H 1.4841 0.4726 0.4307
C22 C 1.4596(4) 0.5820(3) 0.39320(17)
C23 C 1.3867(4) 0.6226(3) 0.35359(18)
H11 H 1.4015 0.6793 0.3471
C24 C 1.2934(4) 0.5820(3) 0.32366(18)
H12 H 1.2441 0.6107 0.2970
C25 C 1.5645(4) 0.6321(3) 0.42331(17)
C26 C 1.6502(4) 0.5776(4) 0.46086(18)
C27 C 1.5177(5) 0.7004(4) 0.45162(19)
C28 C 1.6349(4) 0.6684(3) 0.38887(17)
C29 C 1.6491(4) 0.6158(3) 0.35139(17)
H13 H 1.6123 0.5628 0.3469
C30 C 1.7167(4) 0.6408(3) 0.32077(17)
H14 H 1.7257 0.6048 0.2953
C31 C 1.7712(4) 0.7183(3) 0.32731(17)
C32 C 1.7567(4) 0.7706(3) 0.36462(18)
H15 H 1.7932 0.8238 0.3691
C33 C 1.6891(4) 0.7453(3) 0.39535(18)
H16 H 1.6803 0.7811 0.4209
C34 C 1.8472(4) 0.7455(3) 0.29496(17)
C35 C 0.9561(5) 0.5228(3) 0.35531(19)
H17 H 0.8844 0.5013 0.3367
C36 C 0.9190(6) 0.4502(5) 0.4254(2)
H18 H 0.8459 0.4370 0.4018
H19 H 0.9036 0.4825 0.4524
H20 H 0.9588 0.3982 0.4380
C37 C 1.1039(6) 0.5290(5) 0.4316(2)
H21 H 1.1486 0.5541 0.4107
H22 H 1.1467 0.4816 0.4494
H23 H 1.0907 0.5708 0.4549
C38 C 0.8799(4) 0.6699(4) 0.15120(19)
H24 H 0.8570 0.7124 0.1702
C39 C 0.9102(10) 0.6234(5) 0.0747(3)
H25 H 0.9466 0.5766 0.0953
H26 H 0.9657 0.6481 0.0586
H27 H 0.8429 0.6031 0.0500
C40 C 0.8412(8) 0.7685(5) 0.0836(3)
H28 H 0.8471 0.8097 0.1097
H29 H 0.7615 0.7667 0.0635
H30 H 0.8928 0.7845 0.0633
Cd1A Cd -0.00058(3) 0.85089(2) 0.253836(12)
Cd1A_2 Cd 1.99942(3) 0.85089(2) 0.253836(12)
Cd2_2 Cd -0.02378(3) 0.59229(2) 0.253758(12)
Cd2_3 Cd 1.97622(3) 0.59229(2) 0.253758(12)
O3A O 0.9188(3) 0.3044(2) 0.30292(14)
O4_2 O 1.1039(3) 0.6937(2) 0.24484(12)
O7A O 1.1008(3) 0.3134(3) 0.19480(14)
O8_2 O 0.8551(3) 0.6989(2) 0.25977(13)
O11 O 0.9673(7) 0.2181(5) 0.0111(2)
N3 N 0.9397(5) 0.3104(4) 0.0677(2)
C41 C 0.9781(8) 0.2865(7) 0.0299(3)
H31 H 1.0182 0.3273 0.0162
C42 C 0.9540(7) 0.3959(5) 0.0861(3)
H32 H 0.9884 0.4302 0.0648
H33 H 1.0046 0.3961 0.1192
H34 H 0.8785 0.4190 0.0866
C43 C 0.8755(8) 0.2533(5) 0.0909(3)
H35 H 0.8152 0.2255 0.0659
H36 H 0.8399 0.2847 0.1130
H37 H 0.9281 0.2111 0.1096
O12 O 0.6565(5) 0.4258(4) 0.3279(2)
N4 N 0.5556(5) 0.3424(5) 0.2676(3)
C44 C 0.6494(6) 0.3810(4) 0.2922(3)
H38 H 0.7175 0.3734 0.2814
C45 C 0.4501(12) 0.3348(14) 0.2847(7)
H39 H 0.4594 0.3662 0.3151
H40 H 0.4360 0.2757 0.2904
H41 H 0.3845 0.3574 0.2599
C46 C 0.5584(7) 0.2879(7) 0.2271(3)
H42 H 0.6334 0.2930 0.2195
H43 H 0.4970 0.3040 0.1986
H44 H 0.5467 0.2299 0.2359
C47? C 0.4436(15) 0.379(2) 0.2665(13)
H45? H 0.4151 0.4099 0.2358
H46? H 0.4517 0.4178 0.2940
H47? H 0.3889 0.3349 0.2688
loop_
_geom_bond_atom_site_label_1
_geom_bond_atom_site_label_2
_geom_bond_site_symmetry_1
_geom_bond_site_symmetry_2
Cd1 O2 1_555 1_555
Cd2 O1 1_555 1_555
F1 C9 1_555 1_555
F2 C9 1_555 1_555
F3 C9 1_555 1_555
F4 C10 1_555 1_555
F5 C10 1_555 1_555
F6 C10 1_555 1_555
F7 C26 1_555 1_555
F8 C26 1_555 1_555
F9 C26 1_555 1_555
F10 C27 1_555 1_555
F11 C27 1_555 1_555
F12 C27 1_555 1_555
O1 C1 1_555 1_555
O2 C1 1_555 1_555
O3 C17 1_555 1_555
O4 C17 1_555 1_555
O5 Cd1 1_555 1_555
O6 Cd1 1_555 1_555
O7 C34 1_555 1_555
O8 C34 1_555 1_555
O9 Cd2 1_555 1_555
O10 Cd2 1_555 1_555
O11 C41 1_555 1_555
O12 C44 1_555 1_555
N1 C35 1_555 1_555
N2 C38 1_555 1_555
N3 C41 1_555 1_555
N4 C44 1_555 1_555
C1 C2 1_555 1_555
C2 C3 1_555 1_555
C3 H1 1_555 1_555
C4 C3 1_555 1_555
H2 C4 1_555 1_555
C5 C4 1_555 1_555
C6 C5 1_555 1_555
H3 C6 1_555 1_555
C7 C2 1_555 1_555
H4 C7 1_555 1_555
C8 C5 1_555 1_555
C9 C8 1_555 1_555
C10 C8 1_555 1_555
C11 C8 1_555 1_555
C12 C11 1_555 1_555
H5 C12 1_555 1_555
C13 C12 1_555 1_555
H6 C13 1_555 1_555
C14 C13 1_555 1_555
C15 C14 1_555 1_555
H7 C15 1_555 1_555
C16 C11 1_555 1_555
H8 C16 1_555 1_555
C17 C14 1_555 1_555
C18 O5 1_555 1_555
C19 C18 1_555 1_555
C20 C19 1_555 1_555
H9 C20 1_555 1_555
C21 C20 1_555 1_555
H10 C21 1_555 1_555
C22 C21 1_555 1_555
C23 C22 1_555 1_555
H11 C23 1_555 1_555
C24 C19 1_555 1_555
H12 C24 1_555 1_555
C25 C22 1_555 1_555
C26 C25 1_555 1_555
C27 C25 1_555 1_555
C28 C25 1_555 1_555
C29 C28 1_555 1_555
H13 C29 1_555 1_555
C30 C29 1_555 1_555
H14 C30 1_555 1_555
C31 C30 1_555 1_555
C32 C31 1_555 1_555
H15 C32 1_555 1_555
C33 C28 1_555 1_555
H16 C33 1_555 1_555
C34 C31 1_555 1_555
C35 O9 1_555 1_555
H17 C35 1_555 1_555
C36 N1 1_555 1_555
H18 C36 1_555 1_555
H19 C36 1_555 1_555
H20 C36 1_555 1_555
C37 N1 1_555 1_555
H21 C37 1_555 1_555
H22 C37 1_555 1_555
H23 C37 1_555 1_555
C38 O10 1_555 1_555
H24 C38 1_555 1_555
C39 N2 1_555 1_555
H25 C39 1_555 1_555
H26 C39 1_555 1_555
H27 C39 1_555 1_555
C40 N2 1_555 1_555
H28 C40 1_555 1_555
H29 C40 1_555 1_555
H30 C40 1_555 1_555
C41 H31 1_555 1_555
C42 N3 1_555 1_555
H32 C42 1_555 1_555
H33 C42 1_555 1_555
H34 C42 1_555 1_555
C43 N3 1_555 1_555
H35 C43 1_555 1_555
H36 C43 1_555 1_555
H37 C43 1_555 1_555
C44 H38 1_555 1_555
C45 N4 1_555 1_555
H39 C45 1_555 1_555
H40 C45 1_555 1_555
H41 C45 1_555 1_555
C46 N4 1_555 1_555
H42 C46 1_555 1_555
H43 C46 1_555 1_555
H44 C46 1_555 1_555
Cd1A O3 1_555 1_555
Cd1A_2 O7 1_555 1_555
Cd2_2 O4 1_555 1_555
Cd2_3 O8 1_555 1_555
O3A Cd1 1_555 1_555
O4_2 Cd2 1_555 1_555
O7A Cd1 1_555 1_555
O8_2 Cd2 1_555 1_555
Cd2 O6 1_555 1_555
O6 C18 1_555 1_555
C6 C7 1_555 1_555
C15 C16 1_555 1_555
C23 C24 1_555 1_555
C32 C33 1_555 1_555

#END
