
#######################################################################
#
#                 Cambridge Crystallographic Data Centre
#                                CCDC 
#
#######################################################################
#
# If this CIF has been generated from an entry in the Cambridge 
# Structural Database, then it will include bibliographic, chemical, 
# crystal, experimental, refinement or atomic coordinate data resulting 
# from the CCDC's data processing and validation procedures.
#
#######################################################################

data_HUTWUP
_symmetry_cell_setting           orthorhombic
_symmetry_space_group_name_H-M   'P n m a'
_symmetry_Int_Tables_number      62
_space_group_name_Hall           '-P 2ac 2n'
loop_
_symmetry_equiv_pos_site_id
_symmetry_equiv_pos_as_xyz
1 x,y,z
2 1/2-x,-y,1/2+z
3 1/2+x,1/2-y,1/2-z
4 -x,1/2+y,-z
5 -x,-y,-z
6 1/2+x,y,1/2-z
7 1/2-x,1/2+y,1/2+z
8 x,1/2-y,z
_cell_length_a                   7.9915(5)
_cell_length_b                   6.5796(4)
_cell_length_c                   12.0511(8)
_cell_angle_alpha                90
_cell_angle_beta                 90
_cell_angle_gamma                90
_cell_volume                     633.657
loop_
_atom_site_label
_atom_site_type_symbol
_atom_site_fract_x
_atom_site_fract_y
_atom_site_fract_z
C1 C 0.4054(6) 0.1446(7) 0.3435(4)
H1 H 0.3088 0.0754 0.3230
C2 C 0.6730(6) 0.1454(6) 0.4069(4)
H2 H 0.7675 0.0767 0.4318
N1 N 0.5417(5) 0.0389(5) 0.3724(3)
N2 N 0.4813(8) -0.2500 0.1081(5)
O1 O 0.6302(7) -0.2500 0.1399(4)
O2 O 0.3683(7) -0.2500 0.1814(4)
O3 O 0.4416(7) -0.2500 0.0091(4)
Cu1 Cu 0.55780(14) -0.2500 0.34406(7)
C1G C 0.4054(6) 0.3554(7) 0.3435(4)
H1G H 0.3088 0.4246 0.3230
C2G C 0.6730(6) 0.3546(6) 0.4069(4)
H2G H 0.7675 0.4233 0.4318
N1G N 0.5417(5) 0.4611(5) 0.3724(3)
N1G_2 N 0.5417(5) -0.5389(5) 0.3724(3)
O2B O 0.8683(7) -0.2500 0.3186(4)
Cu1B Cu 0.05780(14) -0.2500 0.15594(7)
Cu1_2 Cu 0.55780(14) 0.7500 0.34406(7)
loop_
_geom_bond_atom_site_label_1
_geom_bond_atom_site_label_2
_geom_bond_site_symmetry_1
_geom_bond_site_symmetry_2
C1 H1 1_555 1_555
C2 H2 1_555 1_555
N1 C1 1_555 1_555
N2 O1 1_555 1_555
O1 Cu1 1_555 1_555
O2 N2 1_555 1_555
O3 N2 1_555 1_555
Cu1 N1 1_555 1_555
C1G C1 1_555 1_555
H1G C1G 1_555 1_555
C2G C2 1_555 1_555
H2G C2G 1_555 1_555
N1G C1G 1_555 1_555
N1G_2 Cu1 1_555 1_555
O2B Cu1 1_555 1_555
Cu1B O2 1_555 1_555
Cu1_2 N1G 1_555 1_555
C2 N1 1_555 1_555
O2 Cu1 1_555 1_555
C2G N1G 1_555 1_555

#END
