
#######################################################################
#
#                 Cambridge Crystallographic Data Centre
#                                CCDC 
#
#######################################################################
#
# If this CIF has been generated from an entry in the Cambridge 
# Structural Database, then it will include bibliographic, chemical, 
# crystal, experimental, refinement or atomic coordinate data resulting 
# from the CCDC's data processing and validation procedures.
#
#######################################################################

data_HUTWOJ
_symmetry_cell_setting           monoclinic
_symmetry_space_group_name_H-M   'P 21/n'
_symmetry_Int_Tables_number      14
_space_group_name_Hall           '-P 2yn'
loop_
_symmetry_equiv_pos_site_id
_symmetry_equiv_pos_as_xyz
1 x,y,z
2 1/2-x,1/2+y,1/2-z
3 -x,-y,-z
4 1/2+x,1/2-y,1/2+z
_cell_length_a                   7.6851(10)
_cell_length_b                   13.4524(17)
_cell_length_c                   9.3010(13)
_cell_angle_alpha                90
_cell_angle_beta                 97.565(7)
_cell_angle_gamma                90
_cell_volume                     953.196
loop_
_atom_site_label
_atom_site_type_symbol
_atom_site_fract_x
_atom_site_fract_y
_atom_site_fract_z
C1 C 0.9268(6) 0.3116(3) 0.2289(5)
H1 H 0.9336 0.3491 0.3135
C2 C 0.8110(6) 0.1846(3) 0.0872(5)
H2 H 0.7330 0.1318 0.0696
C3 C 1.0317(5) 0.3366(3) 0.1248(5)
H3 H 1.1064 0.3911 0.1406
C4 C 0.9176(6) 0.2083(3) -0.0145(5)
H4 H 0.9122 0.1699 -0.0981
C5 C 0.8890(6) -0.0120(3) 0.3791(5)
H5 H 0.8143 -0.0227 0.2935
C6 C 1.0123(6) -0.0831(3) 0.4273(5)
H6 H 1.0161 -0.1412 0.3736
N1 N 0.8163(4) 0.2353(2) 0.2112(4)
N2 N 1.0288(4) 0.2848(2) 0.0023(4)
N3 N 0.8749(4) 0.0724(2) 0.4537(4)
O1 O 0.5033(5) 0.0523(3) 0.2346(5)
O2 O 0.2230(7) 0.1174(7) 0.2620(7)
O3 O 0.3767(9) 0.1791(5) 0.0998(11)
O4 O 0.2589(10) 0.0260(9) 0.0680(15)
Cl1 Cl 0.33685(13) 0.08851(8) 0.16242(13)
Cu1 Cu 0.70081(6) 0.18422(4) 0.37166(6)
C1C C 0.4268(6) 0.1884(3) 0.7289(5)
H1C H 0.4336 0.1509 0.8135
C2C C 0.3110(6) 0.3154(3) 0.5872(5)
H2C H 0.2330 0.3682 0.5696
C3C C 0.5317(5) 0.1634(3) 0.6248(5)
H3C H 0.6064 0.1089 0.6406
C4C C 0.4176(6) 0.2917(3) 0.4855(5)
H4C H 0.4122 0.3301 0.4019
C5B C 1.1110(6) 0.0120(3) 0.6209(5)
H5B H 1.1857 0.0227 0.7065
C6B C 0.9877(6) 0.0831(3) 0.5727(5)
H6B H 0.9839 0.1412 0.6264
N1C N 0.3163(4) 0.2647(2) 0.7112(4)
N2C N 0.5288(4) 0.2152(2) 0.5023(4)
N2_2 N 0.0288(4) 0.2848(2) 1.0023(4)
N3B N 1.1251(4) -0.0724(2) 0.5463(4)
N3C N 0.3749(4) 0.4276(2) 0.9537(4)
O1C O 0.0033(5) 0.4477(3) 0.7346(5)
O2C O -0.2770(7) 0.3826(7) 0.7620(7)
O3C O -0.1233(9) 0.3209(5) 0.5998(11)
O4C O -0.2411(10) 0.4740(9) 0.5680(15)
Cl1C Cl -0.16315(13) 0.41149(8) 0.66242(13)
Cu1C Cu 0.20081(6) 0.31578(4) 0.87166(6)
Cu1C_2 Cu 1.20081(6) 0.31578(4) -0.12834(6)
Cu1B Cu 1.29919(6) -0.18422(4) 0.62834(6)
loop_
_geom_bond_atom_site_label_1
_geom_bond_atom_site_label_2
_geom_bond_site_symmetry_1
_geom_bond_site_symmetry_2
C1 H1 1_555 1_555
C2 H2 1_555 1_555
C3 C1 1_555 1_555
H3 C3 1_555 1_555
C4 C2 1_555 1_555
H4 C4 1_555 1_555
C5 H5 1_555 1_555
C6 C5 1_555 1_555
H6 C6 1_555 1_555
N1 C1 1_555 1_555
N2 C3 1_555 1_555
N3 C5 1_555 1_555
O1 Cl1 1_555 1_555
O2 Cl1 1_555 1_555
O3 Cl1 1_555 1_555
O4 Cl1 1_555 1_555
Cu1 N1 1_555 1_555
C1C H1C 1_555 1_555
C2C H2C 1_555 1_555
C3C C1C 1_555 1_555
H3C C3C 1_555 1_555
C4C C2C 1_555 1_555
H4C C4C 1_555 1_555
C5B H5B 1_555 1_555
C6B N3 1_555 1_555
H6B C6B 1_555 1_555
N1C C1C 1_555 1_555
N2C Cu1 1_555 1_555
N2_2 Cu1C 1_555 1_555
N3B C6 1_555 1_555
N3C Cu1C 1_555 1_555
O1C Cl1C 1_555 1_555
O2C Cl1C 1_555 1_555
O3C Cl1C 1_555 1_555
O4C Cl1C 1_555 1_555
Cu1C N1C 1_555 1_555
Cu1C_2 N2 1_555 1_555
Cu1B N3B 1_555 1_555
C2 N1 1_555 1_555
C4 N2 1_555 1_555
N3 Cu1 1_555 1_555
O1 Cu1 1_555 1_555
C2C N1C 1_555 1_555
C3C N2C 1_555 1_555
C4C N2C 1_555 1_555
C5B C6B 1_555 1_555
C5B N3B 1_555 1_555
O1C Cu1C 1_555 1_555

#END
