
#######################################################################
#
#                 Cambridge Crystallographic Data Centre
#                                CCDC 
#
#######################################################################
#
# If this CIF has been generated from an entry in the Cambridge 
# Structural Database, then it will include bibliographic, chemical, 
# crystal, experimental, refinement or atomic coordinate data resulting 
# from the CCDC's data processing and validation procedures.
#
#######################################################################

data_HUTXIE
_symmetry_cell_setting           triclinic
_symmetry_space_group_name_H-M   'P -1'
_symmetry_Int_Tables_number      2
_space_group_name_Hall           '-P 1'
loop_
_symmetry_equiv_pos_site_id
_symmetry_equiv_pos_as_xyz
1 x,y,z
2 -x,-y,-z
_cell_length_a                   7.9239(6)
_cell_length_b                   9.9549(9)
_cell_length_c                   10.2041(9)
_cell_angle_alpha                98.014(6)
_cell_angle_beta                 110.367(5)
_cell_angle_gamma                108.134(5)
_cell_volume                     688.833
loop_
_atom_site_label
_atom_site_type_symbol
_atom_site_fract_x
_atom_site_fract_y
_atom_site_fract_z
C1 C 0.8050(11) 0.3287(9) 0.5540(8)
H1 H 0.8301 0.4176 0.5303
C2 C 0.8932(12) 0.2373(11) 0.5185(8)
H2 H 0.9721 0.2634 0.4692
C3 C 0.8624(14) 0.1073(11) 0.5570(9)
C4 C 0.7452(12) 0.0764(8) 0.6345(10)
H3 H 0.7244 -0.0071 0.6676
C5 C 0.6640(11) 0.1731(8) 0.6588(8)
H4 H 0.5844 0.1501 0.7081
C6 C 0.9450(14) -0.0168(13) 0.5271(10)
H5 H 0.9096 -0.1056 0.5501
C7 C 0.3358(10) 0.3325(8) 0.8260(8)
H6 H 0.3721 0.2525 0.8176
C8 C 0.2287(10) 0.3395(8) 0.9065(8)
H7 H 0.2013 0.2684 0.9547
C9 C 0.1627(10) 0.4510(9) 0.9156(7)
C10 C 0.2218(13) 0.5578(9) 0.8478(9)
H8 H 0.1845 0.6375 0.8531
C11 C 0.3333(12) 0.5472(9) 0.7738(8)
H9 H 0.3719 0.6212 0.7313
C12 C 0.0475(11) 0.4561(9) 1.0003(8)
H10 H 0.0408 0.3926 1.0588
N1 N 0.6851(8) 0.2943(6) 0.6211(6)
N2 N 0.3899(8) 0.4324(6) 0.7602(6)
Cl1 Cl 0.7141(3) 0.66170(18) 0.6366(2)
Cu1 Cu 0.53603(13) 0.41831(10) 0.63983(10)
C1A C 1.1950(11) -0.3287(9) 0.4460(8)
H1A H 1.1699 -0.4176 0.4697
C2A C 1.1068(12) -0.2373(11) 0.4815(8)
H2A H 1.0279 -0.2634 0.5308
C3A C 1.1376(14) -0.1073(11) 0.4430(9)
C4A C 1.2548(12) -0.0764(8) 0.3655(10)
H3A H 1.2756 0.0071 0.3324
C5A C 1.3360(11) -0.1731(8) 0.3412(8)
H4A H 1.4156 -0.1501 0.2919
C6A C 1.0550(14) 0.0168(13) 0.4729(10)
H5A H 1.0904 0.1056 0.4499
C7A C -0.3358(10) 0.6675(8) 1.1740(8)
H6A H -0.3721 0.7475 1.1824
C8A C -0.2287(10) 0.6605(8) 1.0935(8)
H7A H -0.2013 0.7316 1.0453
C9A C -0.1627(10) 0.5490(9) 1.0844(7)
C10A C -0.2218(13) 0.4422(9) 1.1522(9)
H8A H -0.1845 0.3625 1.1469
C11A C -0.3333(12) 0.4528(9) 1.2262(8)
H9A H -0.3719 0.3788 1.2687
C12A C -0.0475(11) 0.5439(9) 0.9997(8)
H10A H -0.0408 0.6074 0.9412
N1A N 1.3149(8) -0.2943(6) 0.3789(6)
N1A_2 N -0.6851(8) 0.7057(6) 1.3789(6)
N2A N -0.3899(8) 0.5676(6) 1.2398(6)
Cl1A Cl 0.2859(3) 0.33830(18) 0.3634(2)
Cl1_2 Cl -0.2859(3) 0.66170(18) 1.6366(2)
Cl1A_2 Cl -0.7141(3) 0.33830(18) 1.3634(2)
Cu1A Cu 1.46397(13) -0.41831(10) 0.36017(10)
Cu1A_2 Cu 0.46397(13) 0.58169(10) 0.36017(10)
Cu1A_3 Cu -0.53603(13) 0.58169(10) 1.36017(10)
Cu1_2 Cu -0.46397(13) 0.41831(10) 1.63983(10)
O1 O 0.453(5) 0.9495(13) 0.8978(16)
O2 O 1.051(4) 0.9358(13) 0.9334(13)
loop_
_geom_bond_atom_site_label_1
_geom_bond_atom_site_label_2
_geom_bond_site_symmetry_1
_geom_bond_site_symmetry_2
C1 H1 1_555 1_555
C2 C1 1_555 1_555
H2 C2 1_555 1_555
C3 C2 1_555 1_555
C4 C3 1_555 1_555
H3 C4 1_555 1_555
C5 C4 1_555 1_555
H4 C5 1_555 1_555
C6 C3 1_555 1_555
H5 C6 1_555 1_555
C7 H6 1_555 1_555
C8 C7 1_555 1_555
H7 C8 1_555 1_555
C9 C8 1_555 1_555
C10 C9 1_555 1_555
H8 C10 1_555 1_555
C11 C10 1_555 1_555
H9 C11 1_555 1_555
C12 C9 1_555 1_555
H10 C12 1_555 1_555
N1 C1 1_555 1_555
N2 C7 1_555 1_555
Cl1 Cu1 1_555 1_555
Cu1 N1 1_555 1_555
C1A H1A 1_555 1_555
C2A C1A 1_555 1_555
H2A C2A 1_555 1_555
C3A C2A 1_555 1_555
C4A C3A 1_555 1_555
H3A C4A 1_555 1_555
C5A C4A 1_555 1_555
H4A C5A 1_555 1_555
C6A C6 1_555 1_555
H5A C6A 1_555 1_555
C7A H6A 1_555 1_555
C8A C7A 1_555 1_555
H7A C8A 1_555 1_555
C9A C8A 1_555 1_555
C10A C9A 1_555 1_555
H8A C10A 1_555 1_555
C11A C10A 1_555 1_555
H9A C11A 1_555 1_555
C12A C12 1_555 1_555
H10A C12A 1_555 1_555
N1A C1A 1_555 1_555
N1A_2 Cu1A_3 1_555 1_555
N2A C7A 1_555 1_555
Cl1A Cu1 1_555 1_555
Cl1_2 Cu1A_3 1_555 1_555
Cl1A_2 Cu1A_3 1_555 1_555
Cu1A N1A 1_555 1_555
Cu1A_2 Cl1 1_555 1_555
Cu1A_3 N2A 1_555 1_555
Cu1_2 Cl1_2 1_555 1_555
C5 N1 1_555 1_555
C11 N2 1_555 1_555
N2 Cu1 1_555 1_555
C3A C6A 1_555 1_555
C5A N1A 1_555 1_555
C9A C12A 1_555 1_555
C11A N2A 1_555 1_555
Cl1A Cu1A_2 1_555 1_555
Cl1A_2 Cu1_2 1_555 1_555

#END
