
#######################################################################
#
#                 Cambridge Crystallographic Data Centre
#                                CCDC 
#
#######################################################################
#
# If this CIF has been generated from an entry in the Cambridge 
# Structural Database, then it will include bibliographic, chemical, 
# crystal, experimental, refinement or atomic coordinate data resulting 
# from the CCDC's data processing and validation procedures.
#
#######################################################################

data_HUTXEA
_symmetry_cell_setting           triclinic
_symmetry_space_group_name_H-M   'P -1'
_symmetry_Int_Tables_number      2
_space_group_name_Hall           '-P 1'
loop_
_symmetry_equiv_pos_site_id
_symmetry_equiv_pos_as_xyz
1 x,y,z
2 -x,-y,-z
_cell_length_a                   7.7849(4)
_cell_length_b                   9.8480(5)
_cell_length_c                   10.5585(6)
_cell_angle_alpha                107.136(2)
_cell_angle_beta                 109.811(3)
_cell_angle_gamma                96.066(2)
_cell_volume                     708.486
loop_
_atom_site_label
_atom_site_type_symbol
_atom_site_fract_x
_atom_site_fract_y
_atom_site_fract_z
O1 O 1.0683(3) 0.0096(3) 0.7649(3)
Cu1 Cu 1.0000 0.0000 1.0000
Cu2 Cu 0.90388(4) 0.25942(3) 0.65954(3)
C1 C 1.6809(4) -0.2055(3) 0.8039(3)
C2 C 1.6182(4) -0.0638(3) 0.8420(3)
C3 C 1.4345(4) -0.0537(3) 0.7857(3)
C4 C 1.3919(3) 0.0828(3) 0.8220(3)
C5 C 1.5347(4) 0.2023(3) 0.9172(3)
C6 C 1.7151(4) 0.1829(3) 0.9746(3)
C7 C 1.1901(4) 0.0965(3) 0.7588(3)
C8 C 1.1245(4) 0.4258(3) 0.9741(3)
C9 C 1.1617(4) 0.5228(3) 1.1082(3)
C10 C 0.9221(5) 0.5338(3) 0.5943(4)
C11 C 0.9760(5) 0.6343(3) 0.5408(3)
C12 C 0.4996(4) 0.1396(3) 0.5295(3)
C13 C 0.3350(4) 0.0354(3) 0.4620(3)
N1 N 1.7563(3) 0.0524(2) 0.9358(2)
N2 N 0.9610(3) 0.4007(2) 0.8629(2)
N3 N 0.9467(3) 0.3975(2) 0.5557(2)
N4 N 0.6687(3) 0.1068(2) 0.5691(2)
O2 O 1.8552(3) -0.1955(2) 0.8716(3)
O3 O 1.5665(3) -0.3169(2) 0.7146(3)
O5 O 1.1646(3) 0.1970(2) 0.7084(2)
H3 H 1.334(5) -0.139(4) 0.723(3)
H4 H 1.518(4) 0.307(3) 0.952(3)
H5 H 1.815(4) 0.259(3) 1.046(3)
H6 H 1.282(4) 0.543(3) 1.190(3)
H7 H 1.213(4) 0.370(3) 0.957(3)
H8 H 0.871(5) 0.558(4) 0.659(4)
H9 H 0.955(4) 0.727(4) 0.570(3)
H10 H 0.497(4) 0.238(4) 0.545(3)
H11 H 0.229(5) 0.059(3) 0.433(3)
O1A O 0.9317(3) -0.0096(3) 1.2351(3)
Cu1_2 Cu 2.0000 0.0000 1.0000
Cu1_3 Cu 0.0000 0.0000 1.0000
Cu2A Cu 1.09612(4) -0.25942(3) 1.34046(3)
Cu2A_2 Cu 1.09612(4) 0.74058(3) 1.34046(3)
Cu2A_3 Cu 1.09612(4) 0.74058(3) 0.34046(3)
Cu2A_4 Cu 0.09612(4) -0.25942(3) 0.34046(3)
C1A C 0.3191(4) 0.2055(3) 1.1961(3)
C2A C 0.3818(4) 0.0638(3) 1.1580(3)
C3A C 0.5655(4) 0.0537(3) 1.2143(3)
C4A C 0.6081(3) -0.0828(3) 1.1780(3)
C5A C 0.4653(4) -0.2023(3) 1.0828(3)
C6A C 0.2849(4) -0.1829(3) 1.0254(3)
C7A C 0.8099(4) -0.0965(3) 1.2412(3)
C8A C 0.8755(4) 0.5742(3) 1.0259(3)
C9A C 0.8383(4) 0.4772(3) 0.8918(3)
C10A C 1.0779(5) 0.4662(3) 0.4057(4)
C11A C 1.0240(5) 0.3657(3) 0.4592(3)
C12A C 0.5004(4) -0.1396(3) 0.4705(3)
C13A C 0.6650(4) -0.0354(3) 0.5380(3)
N1A N 0.2437(3) -0.0524(2) 1.0642(2)
N1_2 N 0.7563(3) 0.0524(2) 0.9358(2)
N1A_2 N 1.2437(3) -0.0524(2) 1.0642(2)
N2A N 1.0390(3) 0.5993(2) 1.1371(2)
N2A_2 N 1.0390(3) -0.4007(2) 1.1371(2)
N3A N 1.0533(3) 0.6025(2) 0.4443(2)
N3A_2 N 1.0533(3) -0.3975(2) 1.4443(2)
N4A N 0.3313(3) -0.1068(2) 0.4309(2)
N4A_2 N 1.3313(3) -0.1068(2) 1.4309(2)
O2A O 0.1448(3) 0.1955(2) 1.1284(3)
O2_2 O 0.8552(3) -0.1955(2) 0.8716(3)
O2A_2 O 1.1448(3) 0.1955(2) 1.1284(3)
O3A O 0.4335(3) 0.3169(2) 1.2854(3)
O5A O 0.8354(3) -0.1970(2) 1.2916(2)
H3A H 0.666(5) 0.139(4) 1.277(3)
H4A H 0.482(4) -0.307(3) 1.048(3)
H5A H 0.185(4) -0.259(3) 0.954(3)
H6A H 0.718(4) 0.457(3) 0.810(3)
H7A H 0.787(4) 0.630(3) 1.043(3)
H8A H 1.129(5) 0.442(4) 0.341(4)
H9A H 1.045(4) 0.273(4) 0.430(3)
H10A H 0.503(4) -0.238(4) 0.455(3)
H11A H 0.771(5) -0.059(3) 0.567(3)
O4 O 0.3885(4) 0.4913(4) 0.8092(3)
H1 H 0.3162 0.3827 0.7489
H2 H 0.4254 0.5415 0.7431
loop_
_geom_bond_atom_site_label_1
_geom_bond_atom_site_label_2
_geom_bond_site_symmetry_1
_geom_bond_site_symmetry_2
O1 Cu1 1_555 1_555
Cu1 O1A 1_555 1_555
Cu2 N2 1_555 1_555
C1 C2 1_555 1_555
C2 C3 1_555 1_555
C3 C4 1_555 1_555
C4 C5 1_555 1_555
C5 C6 1_555 1_555
C6 N1 1_555 1_555
C7 O1 1_555 1_555
C8 C9 1_555 1_555
C9 H6 1_555 1_555
C10 C11 1_555 1_555
C11 H9 1_555 1_555
C12 C13 1_555 1_555
C13 H11 1_555 1_555
N1 C2 1_555 1_555
N2 C8 1_555 1_555
N3 Cu2 1_555 1_555
N4 Cu2 1_555 1_555
O2 C1 1_555 1_555
O3 C1 1_555 1_555
O4 H1 1_555 1_555
H2 O4 1_555 1_555
O5 Cu2 1_555 1_555
H3 C3 1_555 1_555
H4 C5 1_555 1_555
H5 C6 1_555 1_555
H7 C8 1_555 1_555
H8 C10 1_555 1_555
H10 C12 1_555 1_555
O1A C7A 1_555 1_555
Cu1_2 N1 1_555 1_555
Cu1_3 N1A 1_555 1_555
Cu2A N2A_2 1_555 1_555
Cu2A_2 N2A 1_555 1_555
Cu2A_3 N3A 1_555 1_555
Cu2A_4 N4A 1_555 1_555
C1A C2A 1_555 1_555
C2A C3A 1_555 1_555
C3A C4A 1_555 1_555
C4A C5A 1_555 1_555
C5A C6A 1_555 1_555
C6A N1A 1_555 1_555
C7A C4A 1_555 1_555
C8A C9A 1_555 1_555
C9A N2 1_555 1_555
C10A C11A 1_555 1_555
C11A N3 1_555 1_555
C12A C13A 1_555 1_555
C13A N4 1_555 1_555
N1A C2A 1_555 1_555
N1_2 Cu1 1_555 1_555
N1A_2 Cu1 1_555 1_555
N2A C9 1_555 1_555
N3A C11 1_555 1_555
N3A_2 Cu2A 1_555 1_555
N4A C13 1_555 1_555
N4A_2 Cu2A 1_555 1_555
O2A Cu1_3 1_555 1_555
O2_2 Cu1 1_555 1_555
O2A_2 Cu1 1_555 1_555
O3A C1A 1_555 1_555
O5A Cu2A 1_555 1_555
H3A C3A 1_555 1_555
H4A C5A 1_555 1_555
H5A C6A 1_555 1_555
H6A C9A 1_555 1_555
H7A C8A 1_555 1_555
H8A C10A 1_555 1_555
H9A C11A 1_555 1_555
H10A C12A 1_555 1_555
H11A C13A 1_555 1_555
C4 C7 1_555 1_555
C7 O5 1_555 1_555
C10 N3 1_555 1_555
C12 N4 1_555 1_555
O2 Cu1_2 1_555 1_555
C1A O2A 1_555 1_555
C7A O5A 1_555 1_555
C8A N2A 1_555 1_555
C10A N3A 1_555 1_555
C12A N4A 1_555 1_555

#END
