
#######################################################################
#
#                 Cambridge Crystallographic Data Centre
#                                CCDC 
#
#######################################################################
#
# If this CIF has been generated from an entry in the Cambridge 
# Structural Database, then it will include bibliographic, chemical, 
# crystal, experimental, refinement or atomic coordinate data resulting 
# from the CCDC's data processing and validation procedures.
#
#######################################################################

data_HUTZEB
_symmetry_cell_setting           monoclinic
_symmetry_space_group_name_H-M   'P 21/c'
_symmetry_Int_Tables_number      14
_space_group_name_Hall           '-P 2ybc'
loop_
_symmetry_equiv_pos_site_id
_symmetry_equiv_pos_as_xyz
1 x,y,z
2 x,1/2-y,1/2+z
3 -x,-y,-z
4 -x,1/2+y,1/2-z
_cell_length_a                   8.7586(18)
_cell_length_b                   19.476(4)
_cell_length_c                   10.156(2)
_cell_angle_alpha                90
_cell_angle_beta                 100.22(3)
_cell_angle_gamma                90
_cell_volume                     1704.95
loop_
_atom_site_label
_atom_site_type_symbol
_atom_site_fract_x
_atom_site_fract_y
_atom_site_fract_z
Zn1 Zn 0.36270(4) 0.398186(19) 0.47505(4)
Na1 Na 0.10876(15) 0.53032(7) 0.39013(14)
O1 O -0.0101(3) 0.41885(13) 0.4300(3)
O2 O 0.1788(3) 0.34682(13) 0.4008(3)
O3 O -0.5276(3) 0.17247(14) 0.0915(3)
O4 O -0.3291(3) 0.10272(13) 0.0946(3)
O5 O 0.2300(3) 0.47773(15) 0.2326(3)
O6 O 0.4579(3) 0.43510(13) 0.3299(2)
O7 O -0.1324(3) 0.56557(16) 0.2499(3)
O8 O 0.3012(3) 0.47845(14) 0.5753(3)
H1 H 0.250(5) 0.468(2) 0.629(4)
H2 H 0.367(6) 0.508(3) 0.598(5)
C1 C 0.0374(4) 0.36469(17) 0.3887(3)
C2 C -0.0749(4) 0.31259(17) 0.3167(3)
C3 C -0.0203(4) 0.25885(18) 0.2470(4)
H3 H 0.0848 0.2560 0.2431
C4 C -0.1209(4) 0.21018(18) 0.1840(4)
H4 H -0.0835 0.1747 0.1372
C5 C -0.2784(4) 0.21337(17) 0.1895(3)
C6 C -0.3338(4) 0.26768(19) 0.2561(4)
H5 H -0.4393 0.2710 0.2580
C7 C -0.2329(4) 0.31679(18) 0.3194(4)
H6 H -0.2708 0.3529 0.3642
C8 C -0.3832(4) 0.15799(18) 0.1213(3)
C9 C 0.3666(4) 0.46504(18) 0.2320(3)
C10 C 0.4380(4) 0.48336(18) 0.1133(3)
C11 C 0.5735(4) 0.4532(2) 0.0911(4)
H7 H 0.6238 0.4214 0.1523
C12 C 0.3644(4) 0.5306(2) 0.0210(4)
H8 H 0.2729 0.5515 0.0346
C13 C -0.2653(6) 0.6816(2) -0.0201(5)
H9 H -0.3588 0.6905 0.0141
H10 H -0.2912 0.6635 -0.1092
H11 H -0.2082 0.7236 -0.0217
C14 C -0.0237(6) 0.6130(3) 0.0259(5)
H12 H 0.0289 0.5803 0.0888
H13 H 0.0398 0.6532 0.0254
H14 H -0.0432 0.5930 -0.0618
C15 C -0.2111(5) 0.6061(2) 0.1714(4)
H15 H -0.3070 0.6189 0.1907
N1 N -0.1717(4) 0.63236(18) 0.0648(3)
C12B C 0.6356(4) 0.4694(2) -0.0210(4)
C10B C 0.5620(4) 0.51664(18) -0.1133(3)
C9B C 0.6334(4) 0.53496(18) -0.2320(3)
O5B O 0.7700(3) 0.52227(15) -0.2326(3)
O6B O 0.5421(3) 0.56490(13) -0.3299(2)
C11B C 0.4265(4) 0.5468(2) -0.0911(4)
H7B H 0.3762 0.5786 -0.1523
H8B H 0.7271 0.4485 -0.0346
O1A O 0.9899(3) 0.08115(13) 0.9300(3)
O2A O 1.1788(3) 0.15318(13) 0.9008(3)
O3A O 0.4724(3) 0.32753(14) 0.5915(3)
O4A O 0.6709(3) 0.39728(13) 0.5946(3)
C1A C 1.0374(4) 0.13531(17) 0.8887(3)
C2A C 0.9251(4) 0.18741(17) 0.8167(3)
C3A C 0.9797(4) 0.24115(18) 0.7470(4)
H3A H 1.0848 0.2440 0.7431
C4A C 0.8791(4) 0.28982(18) 0.6840(4)
H4A H 0.9165 0.3253 0.6372
C5A C 0.7216(4) 0.28663(17) 0.6895(3)
C6A C 0.6662(4) 0.23232(19) 0.7561(4)
H5A H 0.5607 0.2290 0.7580
C7A C 0.7671(4) 0.18321(18) 0.8194(4)
H6A H 0.7292 0.1471 0.8642
C8A C 0.6168(4) 0.34201(18) 0.6213(3)
Zn1A Zn 1.36270(4) 0.101814(19) 0.97505(4)
Na1A Na 1.10876(15) -0.03032(7) 0.89013(14)
O8A O 1.3012(3) 0.02155(14) 1.0753(3)
H1A H 1.250(5) 0.032(2) 1.129(4)
H2A H 1.367(6) -0.008(3) 1.098(5)
O7A O 0.8676(3) -0.06557(16) 0.7499(3)
C13A C 0.7347(6) -0.1816(2) 0.4799(5)
H9A H 0.6412 -0.1905 0.5141
H10A H 0.7088 -0.1635 0.3908
H11A H 0.7918 -0.2236 0.4783
C14A C 0.9763(6) -0.1130(3) 0.5259(5)
H12A H 1.0289 -0.0803 0.5888
H13A H 1.0398 -0.1532 0.5254
H14A H 0.9568 -0.0930 0.4382
C15A C 0.7889(5) -0.1061(2) 0.6714(4)
H15A H 0.6930 -0.1189 0.6907
N1A N 0.8283(4) -0.13236(18) 0.5648(3)
O1B O 0.0101(3) 0.58115(13) 0.5700(3)
O4C O 0.3291(3) 0.60272(13) 0.4054(3)
Na1B Na -0.10876(15) 0.46968(7) 0.60987(14)
Zn1A_2 Zn -0.63730(4) 0.101814(19) -0.02495(4)
Na1C Na -0.10876(15) 0.03032(7) 0.10987(14)
Na1B_2 Na 0.89124(15) 0.46968(7) -0.39013(14)
Zn1B Zn 0.63730(4) 0.601814(19) -0.47505(4)
Na1C_2 Na 0.89124(15) 0.03032(7) 1.10987(14)
Na1B_3 Na 0.89124(15) 0.46968(7) 0.60987(14)
O3_2 O 1.4724(3) 0.17247(14) 1.0915(3)
O6A O 1.4579(3) 0.06490(13) 0.8299(2)
O1C O 1.0101(3) -0.08115(13) 1.0700(3)
O4B O 1.3291(3) -0.10272(13) 0.9054(3)
O5A O 1.2300(3) 0.02227(15) 0.7326(3)
loop_
_geom_bond_atom_site_label_1
_geom_bond_atom_site_label_2
_geom_bond_site_symmetry_1
_geom_bond_site_symmetry_2
Zn1 O2 1_555 1_555
Na1 O1 1_555 1_555
O1 C1 1_555 1_555
O2 C1 1_555 1_555
O3 C8 1_555 1_555
O4 C8 1_555 1_555
O5 Na1 1_555 1_555
O6 Zn1 1_555 1_555
O7 Na1 1_555 1_555
O8 Zn1 1_555 1_555
H1 O8 1_555 1_555
H2 O8 1_555 1_555
C1 C2 1_555 1_555
C2 C3 1_555 1_555
C3 H3 1_555 1_555
C4 C3 1_555 1_555
H4 C4 1_555 1_555
C5 C4 1_555 1_555
C6 C5 1_555 1_555
H5 C6 1_555 1_555
C7 C2 1_555 1_555
H6 C7 1_555 1_555
C8 C5 1_555 1_555
C9 O5 1_555 1_555
C10 C9 1_555 1_555
C11 C10 1_555 1_555
H7 C11 1_555 1_555
C12 C10 1_555 1_555
H8 C12 1_555 1_555
C13 H9 1_555 1_555
H10 C13 1_555 1_555
H11 C13 1_555 1_555
C14 H12 1_555 1_555
H13 C14 1_555 1_555
H14 C14 1_555 1_555
C15 O7 1_555 1_555
H15 C15 1_555 1_555
N1 C13 1_555 1_555
C12B C11 1_555 1_555
C10B C12B 1_555 1_555
C9B C10B 1_555 1_555
O5B C9B 1_555 1_555
O6B C9B 1_555 1_555
C11B C12 1_555 1_555
H7B C11B 1_555 1_555
H8B C12B 1_555 1_555
O1A C1A 1_555 1_555
O2A C1A 1_555 1_555
O3A Zn1 1_555 1_555
O4A Zn1 1_555 1_555
C1A C2A 1_555 1_555
C2A C3A 1_555 1_555
C3A H3A 1_555 1_555
C4A C3A 1_555 1_555
H4A C4A 1_555 1_555
C5A C4A 1_555 1_555
C6A C5A 1_555 1_555
H5A C6A 1_555 1_555
C7A C2A 1_555 1_555
H6A C7A 1_555 1_555
C8A O3A 1_555 1_555
Zn1A O2A 1_555 1_555
Na1A O1A 1_555 1_555
O8A Zn1A 1_555 1_555
H1A O8A 1_555 1_555
H2A O8A 1_555 1_555
O7A Na1A 1_555 1_555
C13A H9A 1_555 1_555
H10A C13A 1_555 1_555
H11A C13A 1_555 1_555
C14A H12A 1_555 1_555
H13A C14A 1_555 1_555
H14A C14A 1_555 1_555
C15A O7A 1_555 1_555
H15A C15A 1_555 1_555
N1A C13A 1_555 1_555
O1B Na1 1_555 1_555
O4C Na1 1_555 1_555
Na1B O1 1_555 1_555
Zn1A_2 O3 1_555 1_555
Na1C O4 1_555 1_555
Na1B_2 O5B 1_555 1_555
Zn1B O6B 1_555 1_555
Na1C_2 O1A 1_555 1_555
Na1B_3 O4A 1_555 1_555
O3_2 Zn1A 1_555 1_555
O6A Zn1A 1_555 1_555
O1C Na1A 1_555 1_555
O4B Na1A 1_555 1_555
O5A Na1A 1_555 1_555
Na1 O8 1_555 1_555
O4 Zn1A_2 1_555 1_555
O6 C9 1_555 1_555
C6 C7 1_555 1_555
C14 N1 1_555 1_555
C15 N1 1_555 1_555
C10B C11B 1_555 1_555
O4A C8A 1_555 1_555
C5A C8A 1_555 1_555
C6A C7A 1_555 1_555
Na1A O8A 1_555 1_555
C14A N1A 1_555 1_555
C15A N1A 1_555 1_555
O1B Na1B 1_555 1_555
Na1C_2 O1C 1_555 1_555

#END
