
#######################################################################
#
#                 Cambridge Crystallographic Data Centre
#                                CCDC 
#
#######################################################################
#
# If this CIF has been generated from an entry in the Cambridge 
# Structural Database, then it will include bibliographic, chemical, 
# crystal, experimental, refinement or atomic coordinate data resulting 
# from the CCDC's data processing and validation procedures.
#
#######################################################################

data_HUVBIK
_symmetry_cell_setting           monoclinic
_symmetry_space_group_name_H-M   'C 2/c'
_symmetry_Int_Tables_number      15
_space_group_name_Hall           '-C 2yn'
loop_
_symmetry_equiv_pos_site_id
_symmetry_equiv_pos_as_xyz
1 x,y,z
2 -x,y,1/2-z
3 1/2+x,1/2+y,z
4 1/2-x,1/2+y,1/2-z
5 -x,-y,-z
6 x,-y,1/2+z
7 1/2-x,1/2-y,-z
8 1/2+x,1/2-y,1/2+z
_cell_length_a                   24.5474(3)
_cell_length_b                   9.1914(2)
_cell_length_c                   12.2193(2)
_cell_angle_alpha                90
_cell_angle_beta                 113.8070(10)
_cell_angle_gamma                90
_cell_volume                     2522.39
loop_
_atom_site_label
_atom_site_type_symbol
_atom_site_fract_x
_atom_site_fract_y
_atom_site_fract_z
C1 C 0.0206(3) 0.8877(9) 0.0886(7)
C2 C 0.0209(3) 1.0359(9) 0.1182(7)
H1 H 0.0358 1.0629 0.2002
C3 C -0.0001(3) 0.8564(8) -0.0316(7)
H2 H 0.000 0.7582 -0.0559
C4 C 0.0840(5) 0.5493(12) 0.4864(9)
H3 H 0.1074 0.4734 0.5416
H4 H 0.0416 0.526 0.4578
H5 H 0.0918 0.6432 0.5279
C5 C 0.0956(7) 0.3737(12) 0.3080(10)
H6 H 0.1215 0.3095 0.3719
H7 H 0.1064 0.3671 0.2392
H8 H 0.054 0.3439 0.2837
C6 C 0.1843(5) 0.5843(16) 0.4315(13)
H9 H 0.1935 0.6769 0.4749
H10 H 0.2004 0.5852 0.3699
H11 H 0.2024 0.5043 0.4874
Au1 Au 0.056481(14) 0.73166(3) 0.22013(3)
P1 P 0.10468(10) 0.5593(2) 0.36171(19)
C1D C -0.0206(3) 1.1123(9) -0.0886(7)
C1A C -0.0206(3) 0.8877(9) 0.4114(7)
C2D C -0.0209(3) 0.9641(9) -0.1182(7)
H1D H -0.0358 0.9371 -0.2002
C3D C 0.0001(3) 1.1436(8) 0.0316(7)
H2D H 0.000 1.2418 0.0559
C4A C -0.0840(5) 0.5493(12) 0.0136(9)
H3A H -0.1074 0.4734 -0.0416
H4A H -0.0416 0.526 0.0422
H5A H -0.0918 0.6432 -0.0279
C5A C -0.0956(7) 0.3737(12) 0.1920(10)
H6A H -0.1215 0.3095 0.1281
H7A H -0.1064 0.3671 0.2608
H8A H -0.054 0.3439 0.2163
C6A C -0.1843(5) 0.5843(16) 0.0685(13)
H9A H -0.1935 0.6769 0.0251
H10A H -0.2004 0.5852 0.1301
H11A H -0.2024 0.5043 0.0126
Au1D Au -0.056481(14) 1.26834(3) -0.22013(3)
Au1A Au -0.056481(14) 0.73166(3) 0.27987(3)
P1A P -0.10468(10) 0.5593(2) 0.13829(19)
C7 C 0.1564(4) 1.0441(13) 0.5897(10)
H12 H 0.1168 1.0717 0.5889
Cl1 Cl 0.20248(19) 1.1958(4) 0.6300(5)
Cl2 Cl 0.18656(18) 0.9045(5) 0.6940(4)
Cl3 Cl 0.14599(16) 0.9852(4) 0.4494(3)
loop_
_geom_bond_atom_site_label_1
_geom_bond_atom_site_label_2
_geom_bond_site_symmetry_1
_geom_bond_site_symmetry_2
C1 C2 1_555 1_555
C2 H1 1_555 1_555
C3 C1 1_555 1_555
H2 C3 1_555 1_555
C4 H3 1_555 1_555
H4 C4 1_555 1_555
H5 C4 1_555 1_555
C5 H6 1_555 1_555
H7 C5 1_555 1_555
H8 C5 1_555 1_555
C6 H9 1_555 1_555
H10 C6 1_555 1_555
H11 C6 1_555 1_555
C7 H12 1_555 1_555
Au1 C1 1_555 1_555
P1 C4 1_555 1_555
Cl1 C7 1_555 1_555
Cl2 C7 1_555 1_555
Cl3 C7 1_555 1_555
C1D C2D 1_555 1_555
C1A Au1A 1_555 1_555
C2D C3 1_555 1_555
H1D C2D 1_555 1_555
C3D C2 1_555 1_555
H2D C3D 1_555 1_555
C4A H3A 1_555 1_555
H4A C4A 1_555 1_555
H5A C4A 1_555 1_555
C5A H6A 1_555 1_555
H7A C5A 1_555 1_555
H8A C5A 1_555 1_555
C6A H9A 1_555 1_555
H10A C6A 1_555 1_555
H11A C6A 1_555 1_555
Au1D C1D 1_555 1_555
Au1A Au1 1_555 1_555
P1A C4A 1_555 1_555
C5 P1 1_555 1_555
C6 P1 1_555 1_555
Au1 P1 1_555 1_555
C1D C3D 1_555 1_555
C5A P1A 1_555 1_555
C6A P1A 1_555 1_555
Au1A P1A 1_555 1_555

#END
