
#######################################################################
#
#                 Cambridge Crystallographic Data Centre
#                                CCDC 
#
#######################################################################
#
# If this CIF has been generated from an entry in the Cambridge 
# Structural Database, then it will include bibliographic, chemical, 
# crystal, experimental, refinement or atomic coordinate data resulting 
# from the CCDC's data processing and validation procedures.
#
#######################################################################

data_HUVFAF
_symmetry_cell_setting           orthorhombic
_symmetry_space_group_name_H-M   'F d d 2'
_symmetry_Int_Tables_number      43
_space_group_name_Hall           'F 2 -2d'
loop_
_symmetry_equiv_pos_site_id
_symmetry_equiv_pos_as_xyz
1 x,y,z
2 -x,-y,z
3 1/4-x,1/4+y,1/4+z
4 3/4+x,3/4-y,1/4+z
5 x,1/2+y,1/2+z
6 -x,1/2-y,1/2+z
7 1/4-x,3/4+y,3/4+z
8 3/4+x,1/4-y,3/4+z
9 1/2+x,y,1/2+z
10 1/2-x,-y,1/2+z
11 3/4-x,1/4+y,3/4+z
12 1/4+x,3/4-y,3/4+z
13 1/2+x,1/2+y,z
14 1/2-x,1/2-y,z
15 3/4-x,3/4+y,1/4+z
16 1/4+x,1/4-y,1/4+z
_cell_length_a                   38.962(8)
_cell_length_b                   11.545(2)
_cell_length_c                   30.889(6)
_cell_angle_alpha                90
_cell_angle_beta                 90
_cell_angle_gamma                90
_cell_volume                     13894.4
loop_
_atom_site_label
_atom_site_type_symbol
_atom_site_fract_x
_atom_site_fract_y
_atom_site_fract_z
Fe1 Fe 0.0000 0.0000 0.0053(1)
S1 S 0.0425(2) -0.0236(6) -0.1352(2)
S2 S 0.0675(2) 0.1092(6) 0.1229(2)
N1 N -0.0009(3) 0.1924(9) 0.0055(5)
N2 N 0.0345(3) -0.0083(10) -0.0523(4)
N3 N 0.0400(4) 0.0080(11) 0.0490(5)
C1 C -0.0281(4) 0.2540(10) 0.0182(6)
C2 C -0.0288(4) 0.3743(12) 0.0188(6)
C3 C 0.0005(4) 0.4368(11) 0.0049(5)
C4 C 0.0282(4) 0.3733(13) -0.0083(7)
C5 C 0.0260(5) 0.2560(13) -0.0091(7)
C6 C 0.0706(5) -0.0248(17) -0.0581(9)
C7 C 0.0809(6) -0.0341(21) -0.1043(9)
C8 C 0.0196(5) -0.0067(14) -0.0874(5)
C9 C 0.0511(4) 0.0487(13) 0.0797(6)
H1 H -0.0476(4) 0.2142(10) 0.0271(6)
H2 H -0.0483(4) 0.4133(12) 0.0283(6)
H3 H 0.0483(4) 0.4102(13) -0.0168(7)
H4 H 0.0446(5) 0.2158(13) -0.0205(7)
H5 H 0.0775(5) -0.0948(17) -0.0431(9)
H6 H 0.0827(5) 0.0397(17) -0.0450(9)
H7 H 0.0922(6) -0.1076(21) -0.1097(9)
H8 H 0.0966(6) 0.0280(21) -0.1119(9)
C8A C -0.0196(5) 0.0067(14) -0.0874(5)
S1A S -0.0425(2) 0.0236(6) -0.1352(2)
C7A C -0.0809(6) 0.0341(21) -0.1043(9)
C6A C -0.0706(5) 0.0248(17) -0.0581(9)
N2A N -0.0345(3) 0.0083(10) -0.0523(4)
H5A H -0.0775(5) 0.0948(17) -0.0431(9)
H6A H -0.0827(5) -0.0397(17) -0.0450(9)
H7A H -0.0922(6) 0.1076(21) -0.1097(9)
H8A H -0.0966(6) -0.0280(21) -0.1119(9)
C3A C -0.0005(4) 0.5632(11) 0.0049(5)
C2A C 0.0288(4) 0.6257(12) 0.0188(6)
C1A C 0.0281(4) 0.7460(10) 0.0182(6)
N1A N 0.0009(3) 0.8076(9) 0.0055(5)
C5A C -0.0260(5) 0.7440(13) -0.0091(7)
C4A C -0.0282(4) 0.6267(13) -0.0083(7)
H3A H -0.0483(4) 0.5898(13) -0.0168(7)
H4A H -0.0446(5) 0.7842(13) -0.0205(7)
H1A H 0.0476(4) 0.7858(10) 0.0271(6)
H2A H 0.0483(4) 0.5867(12) 0.0283(6)
S2A S -0.0675(2) -0.1092(6) 0.1229(2)
N3A N -0.0400(4) -0.0080(11) 0.0490(5)
C9A C -0.0511(4) -0.0487(13) 0.0797(6)
N1A_2 N 0.0009(3) -0.1924(9) 0.0055(5)
Fe1_2 Fe 0.0000 1.0000 0.0053(1)
Fe2 Fe 0.1024(1) 0.8164(2) 0.2675(1)
S3 S -0.0119(1) 0.8349(6) 0.3102(2)
S4 S -0.0051(1) 0.8230(6) 0.2013(2)
S5 S 0.1387(4) 0.7394(10) 0.4095(3)
S6 S 0.1826(2) 0.8859(7) 0.1550(2)
N4 N 0.0987(3) 0.6214(9) 0.2694(4)
N5 N 0.1044(3) 0.0109(9) 0.2680(4)
N6 N 0.0550(4) 0.8279(10) 0.3056(4)
N7 N 0.0599(4) 0.8184(9) 0.2196(4)
N8 N 0.1310(4) 0.8083(11) 0.3243(5)
N9 N 0.1391(4) 0.8139(11) 0.2197(5)
C10 C 0.0719(4) 0.5576(12) 0.2567(6)
C11 C 0.0716(4) 0.4405(10) 0.2545(6)
C12 C 0.1007(4) 0.3801(11) 0.2683(5)
C13 C 0.1283(4) 0.4472(13) 0.2817(5)
C14 C 0.1265(4) 0.5649(12) 0.2815(6)
C15 C 0.1021(3) 0.2521(10) 0.2674(5)
C16 C 0.0926(4) 0.1886(13) 0.2321(6)
C17 C 0.0942(4) 0.0692(12) 0.2336(5)
C18 C 0.1141(4) 0.0720(11) 0.3022(5)
C19 C 0.1138(5) 0.1873(13) 0.3038(5)
C20 C 0.0482(5) 0.8324(19) 0.3506(7)
C21 C 0.0113(7) 0.8265(26) 0.3599(9)
C22 C 0.0276(4) 0.8299(13) 0.2830(6)
C23 C 0.0302(4) 0.8251(13) 0.2366(6)
C24 C 0.0221(7) 0.8212(28) 0.1568(10)
C25 C 0.0589(5) 0.8029(16) 0.1726(6)
C26 C 0.1348(7) 0.7804(16) 0.3596(8)
C27 C 0.1562(4) 0.8429(13) 0.1927(5)
H9 H 0.0520(4) 0.5965(12) 0.2488(6)
H10 H 0.0525(4) 0.4011(10) 0.2441(6)
H11 H 0.1483(4) 0.4112(13) 0.2909(5)
H12 H 0.1456(4) 0.6072(12) 0.2902(6)
H13 H 0.0849(4) 0.2257(13) 0.2071(6)
H14 H 0.0879(4) 0.0277(12) 0.2090(5)
H15 H 0.1216(4) 0.0319(11) 0.3265(5)
H16 H 0.1212(5) 0.2254(13) 0.3287(5)
H17 H 0.0575(5) 0.9038(19) 0.3624(7)
H18 H 0.0598(5) 0.7683(19) 0.3648(7)
H19 H 0.0047(7) 0.8901(26) 0.3787(9)
H20 H 0.0060(7) 0.7544(26) 0.3746(9)
H21 H 0.0156(7) 0.7592(28) 0.1373(10)
H22 H 0.0204(7) 0.8940(28) 0.1412(10)
H23 H 0.0741(5) 0.8581(16) 0.1588(6)
H24 H 0.0665(5) 0.7255(16) 0.1652(6)
N4_2 N 0.0987(3) 1.6214(9) 0.2694(4)
N5_2 N 0.1044(3) 1.0109(9) 0.2680(4)
C10_2 C 0.0719(4) 1.5576(12) 0.2567(6)
C11_2 C 0.0716(4) 1.4405(10) 0.2545(6)
C12_2 C 0.1007(4) 1.3801(11) 0.2683(5)
C13_2 C 0.1283(4) 1.4472(13) 0.2817(5)
C14_2 C 0.1265(4) 1.5649(12) 0.2815(6)
C15_2 C 0.1021(3) 1.2521(10) 0.2674(5)
C16_2 C 0.0926(4) 1.1886(13) 0.2321(6)
C17_2 C 0.0942(4) 1.0692(12) 0.2336(5)
C18_2 C 0.1141(4) 1.0720(11) 0.3022(5)
C19_2 C 0.1138(5) 1.1873(13) 0.3038(5)
H9_2 H 0.0520(4) 1.5965(12) 0.2488(6)
H10_2 H 0.0525(4) 1.4011(10) 0.2441(6)
H11_2 H 0.1483(4) 1.4112(13) 0.2909(5)
H12_2 H 0.1456(4) 1.6072(12) 0.2902(6)
H13_2 H 0.0849(4) 1.2257(13) 0.2071(6)
H14_2 H 0.0879(4) 1.0277(12) 0.2090(5)
H15_2 H 0.1216(4) 1.0319(11) 0.3265(5)
H16_2 H 0.1212(5) 1.2254(13) 0.3287(5)
Fe2_2 Fe 0.1024(1) 1.8164(2) 0.2675(1)
S3_2 S -0.0119(1) 1.8349(6) 0.3102(2)
S4_2 S -0.0051(1) 1.8230(6) 0.2013(2)
N6_2 N 0.0550(4) 1.8279(10) 0.3056(4)
N7_2 N 0.0599(4) 1.8184(9) 0.2196(4)
C20_2 C 0.0482(5) 1.8324(19) 0.3506(7)
C21_2 C 0.0113(7) 1.8265(26) 0.3599(9)
C22_2 C 0.0276(4) 1.8299(13) 0.2830(6)
C23_2 C 0.0302(4) 1.8251(13) 0.2366(6)
C24_2 C 0.0221(7) 1.8212(28) 0.1568(10)
C25_2 C 0.0589(5) 1.8029(16) 0.1726(6)
H17_2 H 0.0575(5) 1.9038(19) 0.3624(7)
H18_2 H 0.0598(5) 1.7683(19) 0.3648(7)
H19_2 H 0.0047(7) 1.8901(26) 0.3787(9)
H20_2 H 0.0060(7) 1.7544(26) 0.3746(9)
H21_2 H 0.0156(7) 1.7592(28) 0.1373(10)
H22_2 H 0.0204(7) 1.8940(28) 0.1412(10)
H23_2 H 0.0741(5) 1.8581(16) 0.1588(6)
H24_2 H 0.0665(5) 1.7255(16) 0.1652(6)
S5_2 S 0.1387(4) 1.7394(10) 0.4095(3)
N8_2 N 0.1310(4) 1.8083(11) 0.3243(5)
C26_2 C 0.1348(7) 1.7804(16) 0.3596(8)
S6_2 S 0.1826(2) 1.8859(7) 0.1550(2)
N9_2 N 0.1391(4) 1.8139(11) 0.2197(5)
C27_2 C 0.1562(4) 1.8429(13) 0.1927(5)
Fe2_3 Fe 0.1024(1) -0.1836(2) 0.2675(1)
N5_3 N 0.1044(3) 2.0109(9) 0.2680(4)
loop_
_geom_bond_atom_site_label_1
_geom_bond_atom_site_label_2
_geom_bond_site_symmetry_1
_geom_bond_site_symmetry_2
Fe1 N1 1_555 1_555
Fe2 N4 1_555 1_555
S1 C7 1_555 1_555
S2 C9 1_555 1_555
S3 C21 1_555 1_555
S4 C23 1_555 1_555
S5 C26 1_555 1_555
S6 C27 1_555 1_555
N1 C1 1_555 1_555
N2 Fe1 1_555 1_555
N3 Fe1 1_555 1_555
N4 C10 1_555 1_555
N5 C17 1_555 1_555
N6 Fe2 1_555 1_555
N7 Fe2 1_555 1_555
N8 Fe2 1_555 1_555
N9 Fe2 1_555 1_555
C1 C2 1_555 1_555
C2 C3 1_555 1_555
C3 C4 1_555 1_555
C4 C5 1_555 1_555
C5 N1 1_555 1_555
C6 N2 1_555 1_555
C7 C6 1_555 1_555
C8 S1 1_555 1_555
C9 N3 1_555 1_555
C10 C11 1_555 1_555
C11 C12 1_555 1_555
C12 C13 1_555 1_555
C13 C14 1_555 1_555
C14 N4 1_555 1_555
C15 C12 1_555 1_555
C16 C15 1_555 1_555
C17 C16 1_555 1_555
C18 N5 1_555 1_555
C19 C15 1_555 1_555
C20 N6 1_555 1_555
C21 C20 1_555 1_555
C22 S3 1_555 1_555
C23 N7 1_555 1_555
C24 S4 1_555 1_555
C25 N7 1_555 1_555
C26 N8 1_555 1_555
C27 N9 1_555 1_555
H1 C1 1_555 1_555
H2 C2 1_555 1_555
H3 C4 1_555 1_555
H4 C5 1_555 1_555
H5 C6 1_555 1_555
H6 C6 1_555 1_555
H7 C7 1_555 1_555
H8 C7 1_555 1_555
H9 C10 1_555 1_555
H10 C11 1_555 1_555
H11 C13 1_555 1_555
H12 C14 1_555 1_555
H13 C16 1_555 1_555
H14 C17 1_555 1_555
H15 C18 1_555 1_555
H16 C19 1_555 1_555
H17 C20 1_555 1_555
H18 C20 1_555 1_555
H19 C21 1_555 1_555
H20 C21 1_555 1_555
H21 C24 1_555 1_555
H22 C24 1_555 1_555
H23 C25 1_555 1_555
H24 C25 1_555 1_555
C8A C8 1_555 1_555
S1A C8A 1_555 1_555
C7A S1A 1_555 1_555
C6A C7A 1_555 1_555
N2A Fe1 1_555 1_555
H5A C6A 1_555 1_555
H6A C6A 1_555 1_555
H7A C7A 1_555 1_555
H8A C7A 1_555 1_555
C3A C3 1_555 1_555
C2A C3A 1_555 1_555
C1A C2A 1_555 1_555
N1A C1A 1_555 1_555
C5A N1A 1_555 1_555
C4A C3A 1_555 1_555
H3A C4A 1_555 1_555
H4A C5A 1_555 1_555
H1A C1A 1_555 1_555
H2A C2A 1_555 1_555
S2A C9A 1_555 1_555
N3A Fe1 1_555 1_555
C9A N3A 1_555 1_555
N4_2 C10_2 1_555 1_555
N5_2 Fe2 1_555 1_555
C10_2 C11_2 1_555 1_555
C11_2 C12_2 1_555 1_555
C12_2 C13_2 1_555 1_555
C13_2 C14_2 1_555 1_555
C14_2 N4_2 1_555 1_555
C15_2 C12_2 1_555 1_555
C16_2 C15_2 1_555 1_555
C17_2 N5_2 1_555 1_555
C18_2 N5_2 1_555 1_555
C19_2 C15_2 1_555 1_555
H9_2 C10_2 1_555 1_555
H10_2 C11_2 1_555 1_555
H11_2 C13_2 1_555 1_555
H12_2 C14_2 1_555 1_555
H13_2 C16_2 1_555 1_555
H14_2 C17_2 1_555 1_555
H15_2 C18_2 1_555 1_555
H16_2 C19_2 1_555 1_555
Fe2_2 N4_2 1_555 1_555
S3_2 C21_2 1_555 1_555
S4_2 C23_2 1_555 1_555
N6_2 Fe2_2 1_555 1_555
N7_2 Fe2_2 1_555 1_555
C20_2 N6_2 1_555 1_555
C21_2 C20_2 1_555 1_555
C22_2 S3_2 1_555 1_555
C23_2 N7_2 1_555 1_555
C24_2 S4_2 1_555 1_555
C25_2 N7_2 1_555 1_555
H17_2 C20_2 1_555 1_555
H18_2 C20_2 1_555 1_555
H19_2 C21_2 1_555 1_555
H20_2 C21_2 1_555 1_555
H21_2 C24_2 1_555 1_555
H22_2 C24_2 1_555 1_555
H23_2 C25_2 1_555 1_555
H24_2 C25_2 1_555 1_555
S5_2 C26_2 1_555 1_555
N8_2 Fe2_2 1_555 1_555
C26_2 N8_2 1_555 1_555
S6_2 C27_2 1_555 1_555
N9_2 Fe2_2 1_555 1_555
C27_2 N9_2 1_555 1_555
N1A_2 Fe1 1_555 1_555
Fe2_3 N5 1_555 1_555
Fe1_2 N1A 1_555 1_555
N5_3 Fe2_2 1_555 1_555
N2 C8 1_555 1_555
N6 C22 1_555 1_555
C18 C19 1_555 1_555
C22 C23 1_555 1_555
C24 C25 1_555 1_555
C8A N2A 1_555 1_555
C6A N2A 1_555 1_555
C5A C4A 1_555 1_555
C16_2 C17_2 1_555 1_555
C18_2 C19_2 1_555 1_555
N6_2 C22_2 1_555 1_555
C22_2 C23_2 1_555 1_555
C24_2 C25_2 1_555 1_555

#END
