
#######################################################################
#
#                 Cambridge Crystallographic Data Centre
#                                CCDC 
#
#######################################################################
#
# If this CIF has been generated from an entry in the Cambridge 
# Structural Database, then it will include bibliographic, chemical, 
# crystal, experimental, refinement or atomic coordinate data resulting 
# from the CCDC's data processing and validation procedures.
#
#######################################################################

data_HUVJIR
_symmetry_cell_setting           monoclinic
_symmetry_space_group_name_H-M   'P 21/c'
_symmetry_Int_Tables_number      14
_space_group_name_Hall           '-P 2ybc'
loop_
_symmetry_equiv_pos_site_id
_symmetry_equiv_pos_as_xyz
1 x,y,z
2 x,1/2-y,1/2+z
3 -x,-y,-z
4 -x,1/2+y,1/2-z
_cell_length_a                   13.334(4)
_cell_length_b                   15.668(4)
_cell_length_c                   9.031(2)
_cell_angle_alpha                90
_cell_angle_beta                 106.232(5)
_cell_angle_gamma                90
_cell_volume                     1811.52
loop_
_atom_site_label
_atom_site_type_symbol
_atom_site_fract_x
_atom_site_fract_y
_atom_site_fract_z
Ag1 Ag 0.25200(2) 0.020946(14) 0.84984(2)
O1 O 0.3599(2) -0.09152(16) 1.0386(3)
O2 O 0.2280(2) -0.14430(18) 0.8808(3)
O3 O 0.3176(2) -0.21984(15) 1.0653(3)
N1 N 0.28172(17) 0.00551(12) 0.6131(2)
N2 N 0.1192(2) 0.22784(14) 0.6294(2)
N3 N 0.33882(19) 0.36806(13) 0.5004(2)
N4 N 0.25517(17) 0.15165(12) 0.5701(2)
N5 N 0.3027(2) -0.15356(18) 0.9951(3)
N6 N 0.0795(2) 0.05159(18) 0.8615(3)
C1 C 0.29236(19) 0.07295(16) 0.5292(3)
C2 C 0.3379(2) 0.06756(19) 0.4095(3)
H1 H 0.3453 0.1160 0.3540
C3 C 0.3718(2) -0.0102(2) 0.3738(3)
H2 H 0.4031 -0.0150 0.2942
C4 C 0.3594(2) -0.08058(19) 0.4563(3)
H3 H 0.3815 -0.1340 0.4333
C5 C 0.3134(2) -0.07063(17) 0.5743(3)
H4 H 0.3038 -0.1186 0.6293
C6 C 0.1471(2) 0.16156(15) 0.5532(3)
C7 C 0.0772(2) 0.10727(16) 0.4619(3)
H5 H 0.0993 0.0615 0.4134
C8 C -0.0260(2) 0.1217(2) 0.4436(3)
H6 H -0.0753 0.0851 0.3821
C9 C -0.0588(2) 0.1898(2) 0.5148(4)
H7 H -0.1295 0.2007 0.5000
C10 C 0.0149(3) 0.24019(19) 0.6067(3)
H8 H -0.0066 0.2855 0.6570
C11 C 0.2818(2) 0.29834(16) 0.4976(3)
H9 H 0.2125 0.2991 0.4380
C12 C 0.3193(2) 0.22456(15) 0.5782(3)
C13 C 0.4231(2) 0.22359(17) 0.6642(3)
H10 H 0.4516 0.1757 0.7215
C14 C 0.4829(2) 0.29459(19) 0.6632(3)
H11 H 0.5533 0.2946 0.7179
C15 C 0.4393(2) 0.36531(18) 0.5818(3)
H12 H 0.4808 0.4131 0.5831
C16 C -0.0038(3) 0.0676(2) 0.8495(3)
C17 C -0.1123(3) 0.0897(3) 0.8345(4)
H13 H -0.1251 0.0872 0.9339
H14 H -0.1575 0.0502 0.7659
H15 H -0.1260 0.1465 0.7937
N3A N 0.33882(19) 0.13194(13) 1.0004(2)
Ag1A Ag 0.25200(2) 0.479054(14) 0.34984(2)
loop_
_geom_bond_atom_site_label_1
_geom_bond_atom_site_label_2
_geom_bond_site_symmetry_1
_geom_bond_site_symmetry_2
Ag1 O1 1_555 1_555
O1 N5 1_555 1_555
O2 Ag1 1_555 1_555
O3 N5 1_555 1_555
N1 Ag1 1_555 1_555
N2 C6 1_555 1_555
N3 C11 1_555 1_555
N4 C1 1_555 1_555
N5 O2 1_555 1_555
N6 Ag1 1_555 1_555
C1 N1 1_555 1_555
C2 C1 1_555 1_555
H1 C2 1_555 1_555
C3 C2 1_555 1_555
H2 C3 1_555 1_555
C4 C3 1_555 1_555
H3 C4 1_555 1_555
C5 N1 1_555 1_555
H4 C5 1_555 1_555
C6 N4 1_555 1_555
C7 C6 1_555 1_555
H5 C7 1_555 1_555
C8 C7 1_555 1_555
H6 C8 1_555 1_555
C9 C8 1_555 1_555
H7 C9 1_555 1_555
C10 N2 1_555 1_555
H8 C10 1_555 1_555
C11 H9 1_555 1_555
C12 N4 1_555 1_555
C13 C12 1_555 1_555
H10 C13 1_555 1_555
C14 C13 1_555 1_555
H11 C14 1_555 1_555
C15 N3 1_555 1_555
H12 C15 1_555 1_555
C16 N6 1_555 1_555
C17 C16 1_555 1_555
H13 C17 1_555 1_555
H14 C17 1_555 1_555
H15 C17 1_555 1_555
N3A Ag1 1_555 1_555
Ag1A N3 1_555 1_555
C4 C5 1_555 1_555
C9 C10 1_555 1_555
C11 C12 1_555 1_555
C14 C15 1_555 1_555

#END
