
#######################################################################
#
#                 Cambridge Crystallographic Data Centre
#                                CCDC 
#
#######################################################################
#
# If this CIF has been generated from an entry in the Cambridge 
# Structural Database, then it will include bibliographic, chemical, 
# crystal, experimental, refinement or atomic coordinate data resulting 
# from the CCDC's data processing and validation procedures.
#
#######################################################################

data_HUVJUD
_symmetry_cell_setting           orthorhombic
_symmetry_space_group_name_H-M   'P b c a'
_symmetry_Int_Tables_number      61
_space_group_name_Hall           '-P 2ac 2ab'
loop_
_symmetry_equiv_pos_site_id
_symmetry_equiv_pos_as_xyz
1 x,y,z
2 1/2+x,y,1/2-z
3 x,1/2-y,1/2+z
4 1/2-x,1/2+y,z
5 -x,-y,-z
6 1/2-x,-y,1/2+z
7 -x,1/2+y,1/2-z
8 1/2+x,1/2-y,-z
_cell_length_a                   6.4389(14)
_cell_length_b                   23.574(5)
_cell_length_c                   25.400(5)
_cell_angle_alpha                90
_cell_angle_beta                 90
_cell_angle_gamma                90
_cell_volume                     3855.48
loop_
_atom_site_label
_atom_site_type_symbol
_atom_site_fract_x
_atom_site_fract_y
_atom_site_fract_z
Ag1 Ag 0.37123(6) 0.37271(2) 0.169191(13)
N1 N 0.2213(5) 0.40728(14) 0.09091(11)
N2 N -0.4008(5) 0.31434(15) 0.12204(14)
N3 N -0.1614(4) 0.41282(14) 0.25224(11)
N4 N -0.1170(5) 0.37570(13) 0.11163(13)
C1 C 0.0272(6) 0.39721(16) 0.07397(13)
C2 C -0.0328(7) 0.40601(19) 0.02258(14)
H1 H -0.1689 0.3988 0.0123
C3 C 0.1106(7) 0.4257(2) -0.01372(17)
H2 H 0.0753 0.4309 -0.0489
C4 C 0.3087(8) 0.4373(2) 0.00450(18)
H3 H 0.4090 0.4515 -0.0183
C5 C 0.3558(6) 0.4280(2) 0.05569(18)
H4 H 0.4896 0.4365 0.0671
C6 C -0.2114(6) 0.32365(15) 0.10185(13)
C7 C -0.1092(7) 0.28313(19) 0.0712(2)
H5 H 0.0244 0.2899 0.0588
C8 C -0.2090(11) 0.2333(2) 0.0598(2)
H6 H -0.1444 0.2059 0.0391
C9 C -0.4051(10) 0.2241(2) 0.0791(2)
H7 H -0.4768 0.1911 0.0709
C10 C -0.4920(9) 0.2641(2) 0.11032(19)
H8 H -0.6222 0.2566 0.1246
C11 C -0.1453(5) 0.38315(16) 0.20748(15)
H9 H -0.1325 0.3439 0.2095
C12 C -0.1468(5) 0.40845(16) 0.15833(14)
C13 C -0.1633(6) 0.46724(18) 0.15587(17)
H10 H -0.1629 0.4857 0.1235
C14 C -0.1803(7) 0.49759(18) 0.20178(18)
H11 H -0.1939 0.5369 0.2009
C15 C -0.1770(6) 0.46953(18) 0.24894(16)
H12 H -0.1858 0.4905 0.2799
N2_2 N 0.5992(5) 0.31434(15) 0.12204(14)
N3A N 0.3386(4) 0.41282(14) 0.24776(11)
Ag1_2 Ag -0.62877(6) 0.37271(2) 0.169191(13)
Ag1A Ag -0.12877(6) 0.37271(2) 0.330809(13)
P1 P 0.14164(19) 0.10204(6) 0.13175(5)
F1 F 0.1736(7) 0.1183(2) 0.07169(16)
F2 F 0.1066(7) 0.08725(17) 0.19167(16)
F3 F 0.1409(8) 0.16637(17) 0.1453(2)
F4 F -0.0987(6) 0.1028(3) 0.1225(2)
F5 F 0.1410(10) 0.0379(2) 0.1188(3)
F6 F 0.3823(6) 0.1007(4) 0.1391(3)
N5 N 0.2034(11) 0.2778(2) 0.2155(3)
C16 C 0.1946(14) 0.2393(3) 0.2416(3)
C17 C 0.192(2) 0.1902(4) 0.2774(4)
H13 H 0.2801 0.1608 0.2636
H14 H 0.0530 0.1761 0.2807
H15 H 0.2424 0.2015 0.3115
loop_
_geom_bond_atom_site_label_1
_geom_bond_atom_site_label_2
_geom_bond_site_symmetry_1
_geom_bond_site_symmetry_2
Ag1 N1 1_555 1_555
P1 F1 1_555 1_555
F2 P1 1_555 1_555
F3 P1 1_555 1_555
F4 P1 1_555 1_555
F5 P1 1_555 1_555
F6 P1 1_555 1_555
N1 C1 1_555 1_555
N2 C6 1_555 1_555
N3 C11 1_555 1_555
N4 C1 1_555 1_555
N5 C16 1_555 1_555
C1 C2 1_555 1_555
C2 H1 1_555 1_555
C3 C2 1_555 1_555
H2 C3 1_555 1_555
C4 C3 1_555 1_555
H3 C4 1_555 1_555
C5 N1 1_555 1_555
H4 C5 1_555 1_555
C6 N4 1_555 1_555
C7 C6 1_555 1_555
H5 C7 1_555 1_555
C8 C7 1_555 1_555
H6 C8 1_555 1_555
C9 C8 1_555 1_555
H7 C9 1_555 1_555
C10 N2 1_555 1_555
H8 C10 1_555 1_555
C11 H9 1_555 1_555
C12 N4 1_555 1_555
C13 C12 1_555 1_555
H10 C13 1_555 1_555
C14 C13 1_555 1_555
H11 C14 1_555 1_555
C15 N3 1_555 1_555
H12 C15 1_555 1_555
C16 C17 1_555 1_555
C17 H13 1_555 1_555
H14 C17 1_555 1_555
H15 C17 1_555 1_555
N2_2 Ag1 1_555 1_555
N3A Ag1 1_555 1_555
Ag1_2 N2 1_555 1_555
Ag1A N3 1_555 1_555
C4 C5 1_555 1_555
C9 C10 1_555 1_555
C11 C12 1_555 1_555
C14 C15 1_555 1_555

#END
