
#######################################################################
#
#                 Cambridge Crystallographic Data Centre
#                                CCDC 
#
#######################################################################
#
# If this CIF has been generated from an entry in the Cambridge 
# Structural Database, then it will include bibliographic, chemical, 
# crystal, experimental, refinement or atomic coordinate data resulting 
# from the CCDC's data processing and validation procedures.
#
#######################################################################

data_HUVJOX
_symmetry_cell_setting           monoclinic
_symmetry_space_group_name_H-M   'P 21/c'
_symmetry_Int_Tables_number      14
_space_group_name_Hall           '-P 2ybc'
loop_
_symmetry_equiv_pos_site_id
_symmetry_equiv_pos_as_xyz
1 x,y,z
2 x,1/2-y,1/2+z
3 -x,-y,-z
4 -x,1/2+y,1/2-z
_cell_length_a                   10.978(4)
_cell_length_b                   26.051(10)
_cell_length_c                   6.444(2)
_cell_angle_alpha                90
_cell_angle_beta                 100.546(7)
_cell_angle_gamma                90
_cell_volume                     1811.78
loop_
_atom_site_label
_atom_site_type_symbol
_atom_site_fract_x
_atom_site_fract_y
_atom_site_fract_z
Ag1 Ag 0.47018(13) 0.34059(5) 0.8335(2)
O1 O 0.3006(11) 0.4006(5) 0.8905(19)
O2 O 0.1246(13) 0.3431(5) 0.810(2)
O3 O 0.1667(12) 0.4037(5) 0.5513(17)
S1 S 0.1780(4) 0.39168(18) 0.7677(7)
F1 F 0.0927(14) 0.4342(6) 1.076(2)
F2 F -0.0336(12) 0.4349(6) 0.786(2)
F3 F 0.1241(13) 0.4857(5) 0.840(2)
N1 N 0.5580(12) 0.4076(5) 0.681(2)
N2 N 0.6788(13) 0.3339(6) 0.095(2)
N3 N 0.4263(13) 0.2432(5) 0.3438(19)
N4 N 0.6065(13) 0.3616(5) 0.396(2)
C1 C 0.6098(17) 0.4079(6) 0.515(3)
C2 C 0.6791(17) 0.4494(7) 0.464(3)
H1 H 0.7186 0.4478 0.3486
C3 C 0.6879(18) 0.4925(7) 0.588(3)
H2 H 0.7329 0.5207 0.5555
C4 C 0.6308(18) 0.4940(7) 0.757(3)
H3 H 0.6343 0.5228 0.8431
C5 C 0.5660(17) 0.4495(6) 0.796(3)
H4 H 0.5261 0.4498 0.9118
C6 C 0.7060(15) 0.3474(6) 0.295(3)
C7 C 0.8277(18) 0.3476(9) 0.406(3)
H5 H 0.8447 0.3567 0.5475
C8 C 0.9228(19) 0.3340(10) 0.302(4)
H6 H 1.0048 0.3341 0.3714
C9 C 0.892(2) 0.3205(10) 0.091(4)
H7 H 0.9533 0.3117 0.0148
C10 C 0.772(2) 0.3204(8) 0.000(3)
H8 H 0.7526 0.3101 -0.1401
C11 C 0.5161(15) 0.2771(7) 0.375(2)
H9 H 0.5977 0.2656 0.4009
C12 C 0.4924(14) 0.3331(6) 0.370(2)
C13 C 0.3816(16) 0.3475(7) 0.328(2)
H10 H 0.3638 0.3823 0.3123
C14 C 0.2848(16) 0.3121(7) 0.304(3)
H11 H 0.2031 0.3233 0.2843
C15 C 0.3108(15) 0.2602(6) 0.310(2)
H12 H 0.2458 0.2368 0.2892
C16 C 0.087(2) 0.4402(9) 0.871(4)
N2_2 N 0.6788(13) 0.3339(6) 1.095(2)
N3A N 0.4263(13) 0.2568(5) 0.8438(19)
Ag1_2 Ag 0.47018(13) 0.34059(5) -0.1665(2)
Ag1A Ag 0.47018(13) 0.15941(5) 0.3335(2)
loop_
_geom_bond_atom_site_label_1
_geom_bond_atom_site_label_2
_geom_bond_site_symmetry_1
_geom_bond_site_symmetry_2
Ag1 O1 1_555 1_555
O1 S1 1_555 1_555
O2 S1 1_555 1_555
O3 S1 1_555 1_555
S1 C16 1_555 1_555
F1 C16 1_555 1_555
F2 C16 1_555 1_555
F3 C16 1_555 1_555
N1 Ag1 1_555 1_555
N2 C6 1_555 1_555
N3 C11 1_555 1_555
N4 C1 1_555 1_555
C1 N1 1_555 1_555
C2 C1 1_555 1_555
H1 C2 1_555 1_555
C3 C2 1_555 1_555
H2 C3 1_555 1_555
C4 C3 1_555 1_555
H3 C4 1_555 1_555
C5 N1 1_555 1_555
H4 C5 1_555 1_555
C6 N4 1_555 1_555
C7 C6 1_555 1_555
H5 C7 1_555 1_555
C8 C7 1_555 1_555
H6 C8 1_555 1_555
C9 C8 1_555 1_555
H7 C9 1_555 1_555
C10 N2 1_555 1_555
H8 C10 1_555 1_555
C11 H9 1_555 1_555
C12 N4 1_555 1_555
C13 C12 1_555 1_555
H10 C13 1_555 1_555
C14 C13 1_555 1_555
H11 C14 1_555 1_555
C15 N3 1_555 1_555
H12 C15 1_555 1_555
N2_2 Ag1 1_555 1_555
N3A Ag1 1_555 1_555
Ag1_2 N2 1_555 1_555
Ag1A N3 1_555 1_555
C4 C5 1_555 1_555
C9 C10 1_555 1_555
C11 C12 1_555 1_555
C14 C15 1_555 1_555

#END
