
#######################################################################
#
#                 Cambridge Crystallographic Data Centre
#                                CCDC 
#
#######################################################################
#
# If this CIF has been generated from an entry in the Cambridge 
# Structural Database, then it will include bibliographic, chemical, 
# crystal, experimental, refinement or atomic coordinate data resulting 
# from the CCDC's data processing and validation procedures.
#
#######################################################################

data_HUVKAK
_symmetry_cell_setting           orthorhombic
_symmetry_space_group_name_H-M   'P b c a'
_symmetry_Int_Tables_number      61
_space_group_name_Hall           '-P 2ac 2ab'
loop_
_symmetry_equiv_pos_site_id
_symmetry_equiv_pos_as_xyz
1 x,y,z
2 1/2+x,y,1/2-z
3 x,1/2-y,1/2+z
4 1/2-x,1/2+y,z
5 -x,-y,-z
6 1/2-x,-y,1/2+z
7 -x,1/2+y,1/2-z
8 1/2+x,1/2-y,-z
_cell_length_a                   6.4275(12)
_cell_length_b                   23.160(5)
_cell_length_c                   24.887(5)
_cell_angle_alpha                90
_cell_angle_beta                 90
_cell_angle_gamma                90
_cell_volume                     3704.7
loop_
_atom_site_label
_atom_site_type_symbol
_atom_site_fract_x
_atom_site_fract_y
_atom_site_fract_z
Ag1 Ag 0.36738(10) 0.37404(4) 0.16644(2)
N1 N 0.2137(9) 0.4091(3) 0.0874(2)
N2 N -0.4041(10) 0.3136(3) 0.1216(2)
N3 N -0.1655(8) 0.4151(3) 0.2535(2)
N4 N -0.1213(9) 0.3768(3) 0.1099(2)
C1 C 0.0189(11) 0.3989(3) 0.0709(3)
C2 C -0.0407(12) 0.4077(3) 0.0188(3)
H1 H -0.1777 0.4011 0.0084
C3 C 0.1039(14) 0.4263(4) -0.0182(3)
H2 H 0.0672 0.4307 -0.0541
C4 C 0.2979(14) 0.4380(4) -0.0019(4)
H3 H 0.3969 0.4515 -0.0261
C5 C 0.3481(13) 0.4296(4) 0.0511(3)
H4 H 0.4822 0.4386 0.0624
C6 C -0.2148(11) 0.3230(4) 0.1014(3)
C7 C -0.1102(13) 0.2809(4) 0.0709(3)
H5 H 0.0222 0.2883 0.0575
C8 C -0.2017(18) 0.2304(4) 0.0615(4)
H6 H -0.1341 0.2022 0.0414
C9 C -0.396(2) 0.2204(4) 0.0817(4)
H7 H -0.4630 0.1854 0.0752
C10 C -0.4898(14) 0.2616(5) 0.1108(4)
H8 H -0.6218 0.2540 0.1244
C11 C -0.1479(10) 0.3851(3) 0.2069(3)
H9 H -0.1338 0.3452 0.2089
C12 C -0.1496(10) 0.4104(3) 0.1570(3)
C13 C -0.1717(11) 0.4692(4) 0.1554(3)
H10 H -0.1783 0.4879 0.1223
C14 C -0.1843(12) 0.5011(3) 0.2022(4)
H11 H -0.1933 0.5412 0.2012
C15 C -0.1829(11) 0.4723(5) 0.2498(3)
H12 H -0.1948 0.4936 0.2813
N2_2 N 0.5959(10) 0.3136(3) 0.1216(2)
N3A N 0.3345(8) 0.4151(3) 0.2465(2)
Ag1_2 Ag -0.63262(10) 0.37404(4) 0.16644(2)
Ag1A Ag -0.13262(10) 0.37404(4) 0.33356(2)
Cl1 Cl 0.1464(6) 0.09865(14) 0.12918(11)
O1 O 0.203(5) 0.0509(13) 0.1101(12)
O3 O 0.181(3) 0.1324(13) 0.0803(7)
O5 O -0.085(3) 0.0994(10) 0.1321(8)
O7 O 0.200(6) 0.113(2) 0.1765(14)
N5 N 0.1859(19) 0.2722(5) 0.2120(5)
C16 C 0.170(4) 0.2329(8) 0.2376(7)
C17 C 0.172(4) 0.1830(7) 0.2765(6)
H13 H 0.2985 0.1615 0.2723
H14 H 0.0551 0.1583 0.2693
H15 H 0.1628 0.1974 0.3126
O2? O 0.117(6) 0.0367(15) 0.1175(12)
O4? O 0.170(5) 0.1424(14) 0.1009(16)
O6? O 0.005(5) 0.1127(14) 0.1626(19)
O8? O 0.341(3) 0.1016(9) 0.1561(9)
loop_
_geom_bond_atom_site_label_1
_geom_bond_atom_site_label_2
_geom_bond_site_symmetry_1
_geom_bond_site_symmetry_2
Ag1 N1 1_555 1_555
Cl1 O1 1_555 1_555
O3 Cl1 1_555 1_555
O5 Cl1 1_555 1_555
O7 Cl1 1_555 1_555
N1 C1 1_555 1_555
N2 C6 1_555 1_555
N3 C11 1_555 1_555
N4 C1 1_555 1_555
N5 C16 1_555 1_555
C1 C2 1_555 1_555
C2 H1 1_555 1_555
C3 C2 1_555 1_555
H2 C3 1_555 1_555
C4 C3 1_555 1_555
H3 C4 1_555 1_555
C5 N1 1_555 1_555
H4 C5 1_555 1_555
C6 N4 1_555 1_555
C7 C6 1_555 1_555
H5 C7 1_555 1_555
C8 C7 1_555 1_555
H6 C8 1_555 1_555
C9 C8 1_555 1_555
H7 C9 1_555 1_555
C10 N2 1_555 1_555
H8 C10 1_555 1_555
C11 H9 1_555 1_555
C12 N4 1_555 1_555
C13 C12 1_555 1_555
H10 C13 1_555 1_555
C14 C13 1_555 1_555
H11 C14 1_555 1_555
C15 N3 1_555 1_555
H12 C15 1_555 1_555
C16 C17 1_555 1_555
C17 H13 1_555 1_555
H14 C17 1_555 1_555
H15 C17 1_555 1_555
N2_2 Ag1 1_555 1_555
N3A Ag1 1_555 1_555
Ag1_2 N2 1_555 1_555
Ag1A N3 1_555 1_555
C4 C5 1_555 1_555
C9 C10 1_555 1_555
C11 C12 1_555 1_555
C14 C15 1_555 1_555

#END
