
#######################################################################
#
#                 Cambridge Crystallographic Data Centre
#                                CCDC 
#
#######################################################################
#
# If this CIF has been generated from an entry in the Cambridge 
# Structural Database, then it will include bibliographic, chemical, 
# crystal, experimental, refinement or atomic coordinate data resulting 
# from the CCDC's data processing and validation procedures.
#
#######################################################################

data_HUVLUF
_symmetry_cell_setting           orthorhombic
_symmetry_space_group_name_H-M   'C m c m'
_symmetry_Int_Tables_number      63
_space_group_name_Hall           '-C 2n 2'
loop_
_symmetry_equiv_pos_site_id
_symmetry_equiv_pos_as_xyz
1 x,y,z
2 1/2+x,1/2+y,z
3 x,y,1/2-z
4 x,-y,1/2+z
5 -x,y,z
6 1/2+x,1/2+y,1/2-z
7 1/2+x,1/2-y,1/2+z
8 1/2-x,1/2+y,z
9 -x,-y,-z
10 1/2-x,1/2-y,-z
11 -x,-y,1/2+z
12 -x,y,1/2-z
13 x,-y,-z
14 1/2-x,1/2-y,1/2+z
15 1/2-x,1/2+y,1/2-z
16 1/2+x,1/2-y,-z
_cell_length_a                   11.527(2)
_cell_length_b                   9.9476(18)
_cell_length_c                   14.780(3)
_cell_angle_alpha                90
_cell_angle_beta                 90
_cell_angle_gamma                90
_cell_volume                     1694.76
loop_
_atom_site_label
_atom_site_type_symbol
_atom_site_fract_x
_atom_site_fract_y
_atom_site_fract_z
C1 C 0.0478(9) 0.3530(13) 0.2811(6)
N1 N 0.0000 0.3568(5) 0.3781(3)
C1B C 0.0478(9) 0.3530(13) 0.2189(6)
C1K C -0.0478(9) 0.3530(13) 0.2189(6)
C1D C -0.0478(9) 0.3530(13) 0.2811(6)
N1K N 0.0000 0.3568(5) 0.1219(3)
V1 V 0.35784(5) 0.23749(6) 0.36394(4)
Co1 Co 0.23440(6) 0.0000 0.5000
O1 O 0.3276(3) 0.1917(4) 0.2500
O2 O 0.5000 -0.3085(4) 0.6311(2)
O3 O 0.3573(2) 0.0992(3) 0.42641(17)
O4 O 0.2369(2) 0.1529(3) 0.59781(18)
O5 O 0.0965(2) 0.0976(2) 0.43676(18)
C2 C 0.0000 0.0556(5) 0.4635(3)
O5D O -0.0965(2) 0.0976(2) 0.43676(18)
C2H C 0.0000 -0.0556(5) 0.5365(3)
O5H O -0.0965(2) -0.0976(2) 0.56324(18)
O5L O 0.0965(2) -0.0976(2) 0.56324(18)
O3L O 0.3573(2) -0.0992(3) 0.57359(17)
O4L O 0.2369(2) -0.1529(3) 0.40219(18)
Co1D Co -0.23440(6) 0.0000 0.5000
V1L V 0.35784(5) -0.23749(6) 0.63606(4)
V1I V 0.14216(5) 0.26251(6) 0.63606(4)
V1G V 0.14216(5) -0.26251(6) 0.36394(4)
O4I O 0.2631(2) 0.3471(3) 0.40219(18)
O3D O -0.3573(2) 0.0992(3) 0.42641(17)
O3H O -0.3573(2) -0.0992(3) 0.57359(17)
O4D O -0.2369(2) 0.1529(3) 0.59781(18)
O1L O 0.3276(3) -0.1917(4) 0.7500
O2H O 0.5000 0.3085(4) 0.3689(2)
V1B V 0.35784(5) 0.23749(6) 0.13606(4)
O4H O -0.2369(2) -0.1529(3) 0.40219(18)
O4G O 0.2631(2) -0.3471(3) 0.59781(18)
O1I O 0.1724(3) 0.3083(4) 0.7500
O2A O 0.0000 0.1915(4) 0.6311(2)
O3I O 0.1427(2) 0.4008(3) 0.57359(17)
O1G O 0.1724(3) -0.3083(4) 0.2500
O2I O 0.0000 -0.1915(4) 0.3689(2)
O3G O 0.1427(2) -0.4008(3) 0.42641(17)
Co1G Co 0.26560(6) 0.5000 0.5000
V1D V -0.35784(5) 0.23749(6) 0.36394(4)
V1H V -0.35784(5) -0.23749(6) 0.63606(4)
V1O V -0.14216(5) 0.26251(6) 0.63606(4)
V1C V 0.35784(5) -0.23749(6) 0.86394(4)
V1H_2 V 0.64216(5) -0.23749(6) 0.63606(4)
loop_
_geom_bond_atom_site_label_1
_geom_bond_atom_site_label_2
_geom_bond_site_symmetry_1
_geom_bond_site_symmetry_2
V1 O1 1_555 1_555
Co1 O3 1_555 1_555
O1 V1B 1_555 1_555
O2 V1L 1_555 1_555
O3 V1 1_555 1_555
O4 Co1 1_555 1_555
O5 Co1 1_555 1_555
C1 N1 1_555 1_555
C2 O5 1_555 1_555
N1 C1D 1_555 1_555
O5D C2 1_555 1_555
C2H C2 1_555 1_555
O5H C2H 1_555 1_555
O5L Co1 1_555 1_555
C1B C1 1_555 1_555
C1K C1 1_555 1_555
C1D C1 1_555 1_555
N1K C1B 1_555 1_555
O3L Co1 1_555 1_555
O4L Co1 1_555 1_555
Co1D O5D 1_555 1_555
V1L O3L 1_555 1_555
V1I O4 1_555 1_555
V1G O4L 1_555 1_555
O4I V1 1_555 1_555
O3D Co1D 1_555 1_555
O3H Co1D 1_555 1_555
O4D Co1D 1_555 1_555
O1L V1L 1_555 1_555
O2H V1 1_555 1_555
O4H Co1D 1_555 1_555
O4G V1L 1_555 1_555
O1I V1I 1_555 1_555
O2A V1I 1_555 1_555
O3I V1I 1_555 1_555
O1G V1G 1_555 1_555
O2I V1G 1_555 1_555
O3G V1G 1_555 1_555
Co1G O4I 1_555 1_555
V1D O3D 1_555 1_555
V1H O3H 1_555 1_555
V1O O4D 1_555 1_555
V1C O1L 1_555 1_555
V1H_2 O2 1_555 1_555
C2H O5L 1_555 1_555
O5H Co1D 1_555 1_555
C1B C1K 1_555 1_555
C1B C1D 1_555 1_555
C1K C1D 1_555 1_555
C1K N1K 1_555 1_555
O2A V1O 1_555 1_555
O3I Co1G 1_555 1_555

#END
