
#######################################################################
#
#                 Cambridge Crystallographic Data Centre
#                                CCDC 
#
#######################################################################
#
# If this CIF has been generated from an entry in the Cambridge 
# Structural Database, then it will include bibliographic, chemical, 
# crystal, experimental, refinement or atomic coordinate data resulting 
# from the CCDC's data processing and validation procedures.
#
#######################################################################

data_HUVLUF01
_symmetry_cell_setting           orthorhombic
_symmetry_space_group_name_H-M   'C m c m'
_symmetry_Int_Tables_number      63
_space_group_name_Hall           '-C 2n 2'
loop_
_symmetry_equiv_pos_site_id
_symmetry_equiv_pos_as_xyz
1 x,y,z
2 1/2+x,1/2+y,z
3 x,y,1/2-z
4 x,-y,1/2+z
5 -x,y,z
6 1/2+x,1/2+y,1/2-z
7 1/2+x,1/2-y,1/2+z
8 1/2-x,1/2+y,z
9 -x,-y,-z
10 1/2-x,1/2-y,-z
11 -x,-y,1/2+z
12 -x,y,1/2-z
13 x,-y,-z
14 1/2-x,1/2-y,1/2+z
15 1/2-x,1/2+y,1/2-z
16 1/2+x,1/2-y,-z
_cell_length_a                   11.624(2)
_cell_length_b                   9.968(2)
_cell_length_c                   14.900(3)
_cell_angle_alpha                90
_cell_angle_beta                 90
_cell_angle_gamma                90
_cell_volume                     1726.43
loop_
_atom_site_label
_atom_site_type_symbol
_atom_site_fract_x
_atom_site_fract_y
_atom_site_fract_z
N1 N 0.5000 0.3562(4) 0.3770(3)
H1 H 0.5000 0.3594 0.4347
C2 C 0.4530(7) 0.3507(12) 0.2802(5)
H2 H 0.3964 0.3507 0.3244
C2B C 0.4530(7) 0.3507(12) 0.2198(5)
N1B N 0.5000 0.3562(4) 0.1230(3)
H1B H 0.5000 0.3594 0.0653
C2K C 0.5470(7) 0.3507(12) 0.2198(5)
C2D C 0.5470(7) 0.3507(12) 0.2802(5)
H2K H 0.6036 0.3507 0.1756
H2B H 0.3964 0.3507 0.1756
H2D H 0.6036 0.3507 0.3244
Co1 Co 0.26381(5) 0.0000 0.5000
V1 V 0.14101(4) 0.23807(5) 0.36329(3)
O1 O 0.1703(3) 0.1931(3) 0.2500
O2 O 0.0000 0.3100(3) 0.36877(19)
O3 O 0.14104(18) 0.0995(2) 0.42525(14)
O4 O 0.26368(18) 0.15406(19) 0.59888(16)
O5 O 0.40430(17) 0.09845(19) 0.43744(13)
C1 C 0.5000 0.0556(4) 0.4635(3)
O5D O 0.59570(17) 0.09845(19) 0.43744(13)
C1H C 0.5000 -0.0556(4) 0.5365(3)
O5H O 0.59570(17) -0.09845(19) 0.56256(13)
O5L O 0.40430(17) -0.09845(19) 0.56256(13)
O3L O 0.14104(18) -0.0995(2) 0.57475(14)
O4L O 0.26368(18) -0.15406(19) 0.40112(16)
Co1D Co 0.73619(5) 0.0000 0.5000
V1L V 0.14101(4) -0.23807(5) 0.63671(3)
V1I V 0.35899(4) 0.26193(5) 0.63671(3)
V1G V 0.35899(4) -0.26193(5) 0.36329(3)
O4I O 0.23632(18) 0.34594(19) 0.40112(16)
O3D O 0.85896(18) 0.0995(2) 0.42525(14)
O3H O 0.85896(18) -0.0995(2) 0.57475(14)
O4D O 0.73632(18) 0.15406(19) 0.59888(16)
O1L O 0.1703(3) -0.1931(3) 0.7500
O2L O 0.0000 -0.3100(3) 0.63123(19)
V1B V 0.14101(4) 0.23807(5) 0.13671(3)
V1D V -0.14101(4) 0.23807(5) 0.36329(3)
O4H O 0.73632(18) -0.15406(19) 0.40112(16)
O4G O 0.23632(18) -0.34594(19) 0.59888(16)
O1I O 0.3297(3) 0.3069(3) 0.7500
O2I O 0.5000 0.1900(3) 0.63123(19)
O3I O 0.35896(18) 0.4005(2) 0.57475(14)
O1G O 0.3297(3) -0.3069(3) 0.2500
O2A O 0.5000 -0.1900(3) 0.36877(19)
O3G O 0.35896(18) -0.4005(2) 0.42525(14)
Co1G Co 0.23619(5) 0.5000 0.5000
V1D_2 V 0.85899(4) 0.23807(5) 0.36329(3)
V1H V 0.85899(4) -0.23807(5) 0.63671(3)
V1O V 0.64101(4) 0.26193(5) 0.63671(3)
V1C V 0.14101(4) -0.23807(5) 0.86329(3)
V1H_2 V -0.14101(4) -0.23807(5) 0.63671(3)
loop_
_geom_bond_atom_site_label_1
_geom_bond_atom_site_label_2
_geom_bond_site_symmetry_1
_geom_bond_site_symmetry_2
Co1 O3 1_555 1_555
V1 O1 1_555 1_555
O1 V1B 1_555 1_555
O2 V1 1_555 1_555
O3 V1 1_555 1_555
O4 Co1 1_555 1_555
O5 Co1 1_555 1_555
C1 O5 1_555 1_555
N1 H1 1_555 1_555
C2 N1 1_555 1_555
H2 C2 1_555 1_555
O5D C1 1_555 1_555
C1H C1 1_555 1_555
O5H C1H 1_555 1_555
O5L Co1 1_555 1_555
C2B C2 1_555 1_555
N1B C2B 1_555 1_555
H1B N1B 1_555 1_555
C2K C2 1_555 1_555
C2D N1 1_555 1_555
H2K C2K 1_555 1_555
H2B C2B 1_555 1_555
H2D C2D 1_555 1_555
O3L Co1 1_555 1_555
O4L Co1 1_555 1_555
Co1D O5D 1_555 1_555
V1L O3L 1_555 1_555
V1I O4 1_555 1_555
V1G O4L 1_555 1_555
O4I V1 1_555 1_555
O3D Co1D 1_555 1_555
O3H Co1D 1_555 1_555
O4D Co1D 1_555 1_555
O1L V1L 1_555 1_555
O2L V1L 1_555 1_555
V1D O2 1_555 1_555
O4H Co1D 1_555 1_555
O4G V1L 1_555 1_555
O1I V1I 1_555 1_555
O2I V1I 1_555 1_555
O3I V1I 1_555 1_555
O1G V1G 1_555 1_555
O2A V1G 1_555 1_555
O3G V1G 1_555 1_555
Co1G O4I 1_555 1_555
V1D_2 O3D 1_555 1_555
V1H O3H 1_555 1_555
V1O O4D 1_555 1_555
V1C O1L 1_555 1_555
V1H_2 O2L 1_555 1_555
C2 C2D 1_555 1_555
C1H O5L 1_555 1_555
O5H Co1D 1_555 1_555
C2B C2K 1_555 1_555
C2B C2D 1_555 1_555
N1B C2K 1_555 1_555
C2K C2D 1_555 1_555
O2I V1O 1_555 1_555
O3I Co1G 1_555 1_555

#END
