
#######################################################################
#
#                 Cambridge Crystallographic Data Centre
#                                CCDC 
#
#######################################################################
#
# If this CIF has been generated from an entry in the Cambridge 
# Structural Database, then it will include bibliographic, chemical, 
# crystal, experimental, refinement or atomic coordinate data resulting 
# from the CCDC's data processing and validation procedures.
#
#######################################################################

data_HUVMUH
_symmetry_cell_setting           triclinic
_symmetry_space_group_name_H-M   'P -1'
_symmetry_Int_Tables_number      2
_space_group_name_Hall           '-P 1'
loop_
_symmetry_equiv_pos_site_id
_symmetry_equiv_pos_as_xyz
1 x,y,z
2 -x,-y,-z
_cell_length_a                   16.061(3)
_cell_length_b                   12.552(3)
_cell_length_c                   27.579(6)
_cell_angle_alpha                90.00
_cell_angle_beta                 101.881(4)
_cell_angle_gamma                90.00
_cell_volume                     5440.75
loop_
_atom_site_label
_atom_site_type_symbol
_atom_site_fract_x
_atom_site_fract_y
_atom_site_fract_z
Cr1 Cr 0.24984(9) -0.12049(9) 0.24915(5)
Cr2 Cr 0.74982(9) -0.62046(10) 0.25074(5)
K1 K -0.24933(15) -0.11439(19) 0.25161(9)
K2 K 0.24885(15) 0.38533(19) 0.24819(9)
Mn1 Mn 0.57468(7) -0.27122(9) 0.26927(5)
Mn2 Mn -0.07222(7) 0.03096(9) 0.23093(5)
Mn3 Mn 0.07223(7) -0.46911(9) 0.26909(5)
Mn4 Mn 0.42544(7) 0.22870(9) 0.23074(5)
O1 O 0.6414(3) -0.1721(4) 0.3109(2)
O2 O 0.5875(3) -0.1965(4) 0.2126(2)
O3 O 0.6356(4) -0.0698(5) 0.1495(2)
O4 O 0.7032(4) 0.0078(4) 0.3472(2)
O5 O -0.0817(4) -0.0427(4) 0.2891(2)
O6 O -0.1399(3) -0.0695(4) 0.1906(2)
O7 O -0.1329(4) -0.1629(4) 0.3543(2)
O8 O -0.2050(4) -0.2488(4) 0.1554(2)
O9 O 0.1398(3) -0.5690(4) 0.3093(2)
O10 O 0.0823(4) -0.5420(4) 0.2110(2)
O11 O 0.2046(4) -0.7497(4) 0.3447(2)
O12 O 0.1319(4) -0.6616(5) 0.1455(2)
O13 O 0.4124(3) 0.3038(4) 0.2875(2)
O14 O 0.3590(3) 0.3283(4) 0.1894(2)
O15 O 0.2962(4) 0.5073(4) 0.1527(2)
O16 O 0.3640(4) 0.4303(5) 0.3510(2)
N1 N 0.4490(5) -0.1896(5) 0.2747(3)
N2 N 0.0522(5) -0.0511(5) 0.2232(3)
N3 N 0.1976(5) -0.3688(5) 0.2581(3)
N4 N 0.3005(5) 0.1271(6) 0.2400(3)
N5 N 0.2398(8) -0.1161(8) 0.3647(4)
N6 N 0.2581(7) -0.1268(8) 0.1337(4)
N7 N -0.1987(5) 0.1311(6) 0.2420(3)
N8 N -0.0521(5) -0.5515(5) 0.2768(3)
N9 N 0.5508(5) 0.3103(5) 0.2255(3)
N10 N 0.7422(7) -0.6260(7) 0.3668(4)
N11 N 0.6993(5) -0.3730(6) 0.2598(3)
N12 N 0.7599(8) -0.6163(8) 0.1347(4)
N13 N 0.5666(4) -0.3646(5) 0.3256(3)
N14 N 0.5074(4) -0.3829(5) 0.2301(3)
N15 N -0.0042(4) 0.1456(5) 0.2684(3)
N16 N -0.0671(4) 0.1245(5) 0.1739(3)
N17 N 0.0668(4) -0.3757(5) 0.3265(3)
N18 N 0.0041(4) -0.3540(5) 0.2315(3)
N19 N 0.4328(4) 0.1350(5) 0.1743(3)
N20 N 0.4934(4) 0.1163(5) 0.2700(3)
C1 C 0.3806(5) -0.1639(6) 0.2671(3)
C2 C 0.1230(5) -0.0789(6) 0.2313(3)
C3 C 0.2175(5) -0.2820(6) 0.2525(3)
C4 C 0.2808(5) 0.0395(6) 0.2449(3)
C5 C 0.2456(6) -0.1153(7) 0.3234(4)
C6 C 0.2564(6) -0.1277(7) 0.1753(4)
C7 C -0.2181(5) 0.2177(7) 0.2471(3)
C8 C -0.1227(5) -0.5788(6) 0.2688(3)
C9 C 0.6196(5) 0.3351(6) 0.2333(3)
C10 C 0.7443(6) -0.6284(7) 0.3256(4)
C11 C 0.7184(5) -0.4598(6) 0.2551(3)
C12 C 0.7546(7) -0.6149(7) 0.1757(4)
C13 C 0.6246(6) -0.2387(7) 0.3905(3)
C14 C 0.6473(5) -0.1593(6) 0.3590(3)
C15 C 0.6819(5) -0.0618(6) 0.3804(3)
C16 C 0.6908(6) -0.0430(8) 0.4301(4)
H5 H 0.7107 0.0227 0.4432
C17 C 0.6697(8) -0.1237(9) 0.4618(4)
H6 H 0.6787 -0.1129 0.4959
C18 C 0.6355(8) -0.2187(8) 0.4410(4)
H7 H 0.6194 -0.2705 0.4613
C19 C 0.5875(6) -0.3404(7) 0.3711(4)
H8 H 0.5786 -0.3915 0.3939
C20 C 0.7270(7) 0.1138(7) 0.3646(4)
H9 H 0.6889 0.1383 0.3848
H10 H 0.7239 0.1606 0.3368
H11 H 0.7841 0.1130 0.3838
C21 C 0.4976(6) -0.3972(7) 0.1827(4)
H12 H 0.4690 -0.4580 0.1690
C22 C 0.5287(6) -0.3241(8) 0.1497(4)
C23 C 0.5124(8) -0.3510(10) 0.0986(4)
H13 H 0.4859 -0.4153 0.0881
C24 C 0.5348(9) -0.2846(12) 0.0651(4)
H14 H 0.5226 -0.3025 0.0316
C25 C 0.5767(7) -0.1874(10) 0.0807(4)
H15 H 0.5927 -0.1419 0.0576
C26 C 0.5938(6) -0.1605(8) 0.1302(4)
C27 C 0.5698(5) -0.2290(7) 0.1656(3)
C28 C 0.6441(7) 0.0158(8) 0.1157(4)
H16 H 0.6871 -0.0023 0.0976
H17 H 0.6600 0.0801 0.1341
H18 H 0.5908 0.0263 0.0930
C29 C 0.5329(6) -0.4731(6) 0.3095(4)
H19 H 0.5062 -0.5050 0.3345
H20 H 0.5786 -0.5193 0.3042
C30 C 0.4668(6) -0.4573(6) 0.2605(4)
H21 H 0.4536 -0.5247 0.2435
H22 H 0.4146 -0.4269 0.2670
C31 C 0.0042(6) 0.1615(7) 0.3154(4)
H23 H 0.0331 0.2226 0.3284
C32 C -0.0274(6) 0.0922(7) 0.3501(3)
C33 C -0.0128(7) 0.1241(9) 0.3999(4)
H24 H 0.0134 0.1891 0.4091
C34 C -0.0367(8) 0.0603(10) 0.4354(5)
H25 H -0.0260 0.0809 0.4685
C35 C -0.0777(7) -0.0364(9) 0.4203(4)
H26 H -0.0951 -0.0796 0.4438
C36 C -0.0928(6) -0.0689(7) 0.3719(3)
C37 C -0.0660(5) -0.0049(6) 0.3353(3)
C38 C -0.1424(8) -0.2426(9) 0.3899(4)
H27 H -0.0874 -0.2616 0.4090
H28 H -0.1692 -0.3045 0.3731
H29 H -0.1770 -0.2152 0.4116
C39 C -0.0928(6) 0.0981(7) 0.1281(4)
H30 H -0.0860 0.1486 0.1046
C40 C -0.1313(6) -0.0027(7) 0.1097(3)
C41 C -0.1493(7) -0.0209(9) 0.0578(4)
H31 H -0.1367 0.0315 0.0365
C42 C -0.1846(8) -0.1140(10) 0.0388(4)
H32 H -0.1963 -0.1248 0.0047
C43 C -0.2038(7) -0.1949(8) 0.0708(4)
H33 H -0.2276 -0.2588 0.0576
C44 C -0.1873(5) -0.1789(7) 0.1212(3)
C45 C -0.1512(5) -0.0801(6) 0.1422(3)
C46 C -0.2331(7) -0.3539(7) 0.1386(4)
H34 H -0.2868 -0.3491 0.1157
H35 H -0.2395 -0.3968 0.1665
H36 H -0.1919 -0.3861 0.1225
C47 C 0.0271(6) -0.4073(7) 0.1501(4)
C48 C 0.0134(7) -0.3786(9) 0.0989(4)
H37 H -0.0131 -0.3140 0.0891
C49 C 0.0367(8) -0.4392(11) 0.0648(4)
H38 H 0.0263 -0.4177 0.0318
C50 C 0.0775(7) -0.5373(9) 0.0794(4)
H39 H 0.0941 -0.5806 0.0557
C51 C 0.0931(6) -0.5695(8) 0.1277(4)
C52 C 0.0670(5) -0.5052(6) 0.1650(3)
C53 C 0.1429(7) -0.7427(8) 0.1101(4)
H40 H 0.0884 -0.7629 0.0910
H41 H 0.1702 -0.8038 0.1274
H42 H 0.1776 -0.7152 0.0885
C54 C -0.0037(6) -0.3371(7) 0.1853(4)
H43 H -0.0313 -0.2748 0.1726
C55 C 0.0917(6) -0.4012(7) 0.3720(4)
H44 H 0.0831 -0.3514 0.3954
C56 C 0.1329(6) -0.5027(7) 0.3908(4)
C57 C 0.1506(5) -0.5806(6) 0.3577(3)
C58 C 0.1877(5) -0.6787(7) 0.3788(3)
C59 C 0.2034(7) -0.6935(9) 0.4291(4)
H45 H 0.2270 -0.7574 0.4424
C60 C 0.1844(8) -0.6133(10) 0.4609(4)
H46 H 0.1959 -0.6241 0.4950
C61 C 0.1499(8) -0.5223(9) 0.4419(4)
H47 H 0.1367 -0.4702 0.4631
C62 C 0.2335(7) -0.8543(7) 0.3622(4)
H48 H 0.2896 -0.8492 0.3825
H49 H 0.2349 -0.8998 0.3344
H50 H 0.1953 -0.8835 0.3813
C63 C -0.0328(6) -0.2830(7) 0.2640(4)
H51 H -0.0839 -0.3145 0.2714
H52 H -0.0476 -0.2149 0.2479
C64 C 0.0327(6) -0.2676(6) 0.3111(4)
H53 H 0.0780 -0.2212 0.3053
H54 H 0.0070 -0.2362 0.3365
C65 C 0.4108(6) 0.1606(7) 0.1286(4)
H55 H 0.4177 0.1090 0.1056
C66 C 0.3762(6) 0.2618(7) 0.1093(3)
C67 C 0.3521(5) 0.3411(6) 0.1408(3)
C68 C 0.3191(6) 0.4384(6) 0.1190(3)
C69 C 0.3082(7) 0.4574(8) 0.0704(4)
H56 H 0.2868 0.5227 0.0577
C70 C 0.3293(9) 0.3774(10) 0.0380(4)
H57 H 0.3207 0.3891 0.0041
C71 C 0.3631(8) 0.2812(9) 0.0588(4)
H58 H 0.3772 0.2287 0.0381
C72 C 0.2724(7) 0.6141(7) 0.1352(4)
H59 H 0.3160 0.6433 0.1200
H60 H 0.2658 0.6581 0.1626
H61 H 0.2196 0.6116 0.1114
C73 C 0.5023(6) 0.1042(7) 0.3175(4)
H62 H 0.5308 0.0434 0.3313
C74 C 0.4721(6) 0.1762(8) 0.3509(4)
C75 C 0.4866(8) 0.1482(11) 0.4008(5)
H63 H 0.5104 0.0822 0.4109
C76 C 0.4663(9) 0.2163(12) 0.4348(5)
H64 H 0.4802 0.1992 0.4684
C77 C 0.4249(7) 0.3109(10) 0.4197(4)
H65 H 0.4093 0.3564 0.4430
C78 C 0.4065(5) 0.3377(7) 0.3700(3)
C79 C 0.4308(5) 0.2700(7) 0.3345(3)
C80 C 0.3568(7) 0.5166(8) 0.3844(4)
H66 H 0.3163 0.4981 0.4041
H67 H 0.3382 0.5797 0.3656
H68 H 0.4112 0.5295 0.4056
C81 C 0.4670(6) 0.0286(6) 0.1906(4)
H69 H 0.4932 -0.0035 0.1655
H70 H 0.4215 -0.0177 0.1963
C82 C 0.5333(6) 0.0438(6) 0.2389(4)
H71 H 0.5472 -0.0240 0.2555
H72 H 0.5850 0.0750 0.2322
C83 C 0.0336(6) 0.2168(7) 0.2358(4)
H73 H 0.0846 0.1849 0.2284
H74 H 0.0487 0.2849 0.2518
C84 C -0.0330(6) 0.2320(6) 0.1885(4)
H75 H -0.0779 0.2788 0.1943
H76 H -0.0075 0.2627 0.1627
Cr2_2 Cr -0.25018(9) 0.37954(10) 0.25074(5)
Cr2_3 Cr -0.25018(9) -0.62046(10) 0.25074(5)
Cr2_4 Cr 0.74982(9) 0.37954(10) 0.25074(5)
K1_2 K 0.75067(15) -0.11439(19) 0.25161(9)
K2_2 K 0.24885(15) -0.61467(19) 0.24819(9)
Mn1_2 Mn -0.42532(7) -0.27122(9) 0.26927(5)
Mn3_2 Mn 0.07223(7) 0.53089(9) 0.26909(5)
O1_2 O -0.3586(3) -0.1721(4) 0.3109(2)
O2_2 O -0.4125(3) -0.1965(4) 0.2126(2)
O3_2 O -0.3644(4) -0.0698(5) 0.1495(2)
O9_2 O 0.1398(3) 0.4310(4) 0.3093(2)
O10_2 O 0.0823(4) 0.4580(4) 0.2110(2)
O12_2 O 0.1319(4) 0.3384(5) 0.1455(2)
C7_2 C 0.7819(5) -0.7823(7) 0.2471(3)
C8_2 C 0.8773(5) -0.5788(6) 0.2688(3)
C9_2 C 0.6196(5) -0.6649(6) 0.2333(3)
O17 O 0.8779(17) 0.381(2) 0.4500(8)
H1 H 0.8341 0.3741 0.4289
C93 C 0.934(3) 0.449(3) 0.4322(13)
H89 H 0.9228 0.4460 0.3967
H90 H 0.9916 0.4270 0.4452
H91 H 0.9262 0.5206 0.4426
O18 O 0.8760(13) 0.1159(17) 0.9500(6)
H2 H 0.8320 0.1238 0.9292
C94 C 0.933(2) 0.053(3) 0.9302(10)
H92 H 0.9336 0.0767 0.8971
H93 H 0.9157 -0.0199 0.9294
H94 H 0.9892 0.0602 0.9504
O19 O 0.388(2) 0.897(2) 0.4526(10)
H3 H 0.3420 0.9184 0.4374
C95 C 0.416(3) 0.810(4) 0.4269(15)
H95 H 0.4742 0.7934 0.4413
H96 H 0.4114 0.8283 0.3926
H97 H 0.3810 0.7488 0.4293
O20 O 0.608(3) 0.398(3) 0.0503(14)
H4 H 0.6583 0.4127 0.0614
C96 C 0.585(4) 0.307(4) 0.076(2)
H98 H 0.6224 0.2489 0.0729
H99 H 0.5273 0.2866 0.0610
H100 H 0.5883 0.3238 0.1100
N21 N 0.4148(17) 1.0104(17) 0.0217(9)
C85 C 0.371(2) 0.936(3) 0.0254(11)
C86 C 0.3207(17) 0.8337(19) 0.0208(8)
H77 H 0.2668 0.8444 -0.0013
H78 H 0.3115 0.8130 0.0528
H79 H 0.3516 0.7787 0.0080
N22 N 0.5848(15) 0.5109(18) 0.4772(8)
C87 C 0.628(2) 0.437(3) 0.4732(10)
C88 C 0.6765(15) 0.3331(18) 0.4776(8)
H80 H 0.7362 0.3473 0.4817
H81 H 0.6576 0.2916 0.4481
H82 H 0.6662 0.2943 0.5058
N23 N 0.061(3) 0.739(3) 0.4735(13)
C89 C 0.110(4) 0.802(4) 0.4639(17)
C90 C 0.170(3) 0.894(3) 0.4619(13)
H83 H 0.1540 0.9289 0.4305
H84 H 0.2268 0.8674 0.4662
H85 H 0.1662 0.9433 0.4880
N24 N 0.947(2) 0.227(3) 0.0228(17)
C91 C 0.899(4) 0.290(4) 0.0322(16)
C92 C 0.839(3) 0.380(3) 0.0389(13)
H86 H 0.8674 0.4470 0.0375
H87 H 0.8234 0.3729 0.0705
H88 H 0.7890 0.3771 0.0131
loop_
_geom_bond_atom_site_label_1
_geom_bond_atom_site_label_2
_geom_bond_site_symmetry_1
_geom_bond_site_symmetry_2
Cr1 C1 1_555 1_555
Cr2 C10 1_555 1_555
K1 O5 1_555 1_555
K2 O13 1_555 1_555
Mn1 O1 1_555 1_555
Mn2 O5 1_555 1_555
Mn3 O9 1_555 1_555
Mn4 O13 1_555 1_555
O1 C14 1_555 1_555
O2 Mn1 1_555 1_555
O3 C26 1_555 1_555
O4 C15 1_555 1_555
O5 C37 1_555 1_555
O6 K1 1_555 1_555
O7 K1 1_555 1_555
O8 C44 1_555 1_555
O9 C57 1_555 1_555
O10 Mn3 1_555 1_555
O11 C58 1_555 1_555
O12 C51 1_555 1_555
O13 C79 1_555 1_555
O14 K2 1_555 1_555
O15 C68 1_555 1_555
O16 K2 1_555 1_555
O17 H1 1_555 1_555
O18 H2 1_555 1_555
O19 H3 1_555 1_555
O20 H4 1_555 1_555
N1 Mn1 1_555 1_555
N2 Mn2 1_555 1_555
N3 Mn3 1_555 1_555
N4 Mn4 1_555 1_555
N5 C5 1_555 1_555
N6 C6 1_555 1_555
N7 Mn2 1_555 1_555
N8 Mn3 1_555 1_555
N9 Mn4 1_555 1_555
N10 C10 1_555 1_555
N11 Mn1 1_555 1_555
N12 C12 1_555 1_555
N13 Mn1 1_555 1_555
N14 Mn1 1_555 1_555
N15 Mn2 1_555 1_555
N16 Mn2 1_555 1_555
N17 Mn3 1_555 1_555
N18 Mn3 1_555 1_555
N19 Mn4 1_555 1_555
N20 Mn4 1_555 1_555
N21 C85 1_555 1_555
N22 C87 1_555 1_555
N23 C89 1_555 1_555
N24 C91 1_555 1_555
C1 N1 1_555 1_555
C2 Cr1 1_555 1_555
C3 Cr1 1_555 1_555
C4 Cr1 1_555 1_555
C5 Cr1 1_555 1_555
C6 Cr1 1_555 1_555
C7 N7 1_555 1_555
C8 N8 1_555 1_555
C9 N9 1_555 1_555
C11 Cr2 1_555 1_555
C12 Cr2 1_555 1_555
C13 C14 1_555 1_555
C14 C15 1_555 1_555
C15 C16 1_555 1_555
C16 H5 1_555 1_555
C17 C16 1_555 1_555
H6 C17 1_555 1_555
C18 C13 1_555 1_555
H7 C18 1_555 1_555
C19 N13 1_555 1_555
H8 C19 1_555 1_555
C20 O4 1_555 1_555
H9 C20 1_555 1_555
H10 C20 1_555 1_555
H11 C20 1_555 1_555
C21 N14 1_555 1_555
H12 C21 1_555 1_555
C22 C21 1_555 1_555
C23 C22 1_555 1_555
H13 C23 1_555 1_555
C24 C23 1_555 1_555
H14 C24 1_555 1_555
C25 C24 1_555 1_555
H15 C25 1_555 1_555
C26 C25 1_555 1_555
C27 O2 1_555 1_555
C28 O3 1_555 1_555
H16 C28 1_555 1_555
H17 C28 1_555 1_555
H18 C28 1_555 1_555
C29 N13 1_555 1_555
H19 C29 1_555 1_555
H20 C29 1_555 1_555
C30 N14 1_555 1_555
H21 C30 1_555 1_555
H22 C30 1_555 1_555
C31 N15 1_555 1_555
H23 C31 1_555 1_555
C32 C31 1_555 1_555
C33 C32 1_555 1_555
H24 C33 1_555 1_555
C34 C33 1_555 1_555
H25 C34 1_555 1_555
C35 C34 1_555 1_555
H26 C35 1_555 1_555
C36 O7 1_555 1_555
C37 C32 1_555 1_555
C38 O7 1_555 1_555
H27 C38 1_555 1_555
H28 C38 1_555 1_555
H29 C38 1_555 1_555
C39 N16 1_555 1_555
H30 C39 1_555 1_555
C40 C39 1_555 1_555
C41 C40 1_555 1_555
H31 C41 1_555 1_555
C42 C41 1_555 1_555
H32 C42 1_555 1_555
C43 C42 1_555 1_555
H33 C43 1_555 1_555
C44 C43 1_555 1_555
C45 O6 1_555 1_555
C46 O8 1_555 1_555
H34 C46 1_555 1_555
H35 C46 1_555 1_555
H36 C46 1_555 1_555
C47 C48 1_555 1_555
C48 H37 1_555 1_555
C49 C48 1_555 1_555
H38 C49 1_555 1_555
C50 C49 1_555 1_555
H39 C50 1_555 1_555
C51 C50 1_555 1_555
C52 O10 1_555 1_555
C53 O12 1_555 1_555
H40 C53 1_555 1_555
H41 C53 1_555 1_555
H42 C53 1_555 1_555
C54 N18 1_555 1_555
H43 C54 1_555 1_555
C55 N17 1_555 1_555
H44 C55 1_555 1_555
C56 C55 1_555 1_555
C57 C56 1_555 1_555
C58 C57 1_555 1_555
C59 C58 1_555 1_555
H45 C59 1_555 1_555
C60 C59 1_555 1_555
H46 C60 1_555 1_555
C61 C56 1_555 1_555
H47 C61 1_555 1_555
C62 O11 1_555 1_555
H48 C62 1_555 1_555
H49 C62 1_555 1_555
H50 C62 1_555 1_555
C63 N18 1_555 1_555
H51 C63 1_555 1_555
H52 C63 1_555 1_555
C64 N17 1_555 1_555
H53 C64 1_555 1_555
H54 C64 1_555 1_555
C65 N19 1_555 1_555
H55 C65 1_555 1_555
C66 C65 1_555 1_555
C67 O14 1_555 1_555
C68 C67 1_555 1_555
C69 C68 1_555 1_555
H56 C69 1_555 1_555
C70 C69 1_555 1_555
H57 C70 1_555 1_555
C71 C66 1_555 1_555
H58 C71 1_555 1_555
C72 O15 1_555 1_555
H59 C72 1_555 1_555
H60 C72 1_555 1_555
H61 C72 1_555 1_555
C73 N20 1_555 1_555
H62 C73 1_555 1_555
C74 C73 1_555 1_555
C75 C74 1_555 1_555
H63 C75 1_555 1_555
C76 C75 1_555 1_555
H64 C76 1_555 1_555
C77 C76 1_555 1_555
H65 C77 1_555 1_555
C78 O16 1_555 1_555
C79 C74 1_555 1_555
C80 O16 1_555 1_555
H66 C80 1_555 1_555
H67 C80 1_555 1_555
H68 C80 1_555 1_555
C81 N19 1_555 1_555
H69 C81 1_555 1_555
H70 C81 1_555 1_555
C82 N20 1_555 1_555
H71 C82 1_555 1_555
H72 C82 1_555 1_555
C83 N15 1_555 1_555
H73 C83 1_555 1_555
H74 C83 1_555 1_555
C84 N16 1_555 1_555
H75 C84 1_555 1_555
H76 C84 1_555 1_555
C85 C86 1_555 1_555
C86 H77 1_555 1_555
H78 C86 1_555 1_555
H79 C86 1_555 1_555
C87 C88 1_555 1_555
C88 H80 1_555 1_555
H81 C88 1_555 1_555
H82 C88 1_555 1_555
C89 C90 1_555 1_555
C90 H83 1_555 1_555
H84 C90 1_555 1_555
H85 C90 1_555 1_555
C91 C92 1_555 1_555
C92 H86 1_555 1_555
H87 C92 1_555 1_555
H88 C92 1_555 1_555
C93 O17 1_555 1_555
H89 C93 1_555 1_555
H90 C93 1_555 1_555
H91 C93 1_555 1_555
C94 O18 1_555 1_555
H92 C94 1_555 1_555
H93 C94 1_555 1_555
H94 C94 1_555 1_555
C95 O19 1_555 1_555
H95 C95 1_555 1_555
H96 C95 1_555 1_555
H97 C95 1_555 1_555
C96 O20 1_555 1_555
H98 C96 1_555 1_555
H99 C96 1_555 1_555
H100 C96 1_555 1_555
Cr2_2 C7 1_555 1_555
Cr2_3 C8 1_555 1_555
Cr2_4 C9 1_555 1_555
K1_2 O1 1_555 1_555
K2_2 O9 1_555 1_555
Mn1_2 O1_2 1_555 1_555
Mn3_2 O9_2 1_555 1_555
O1_2 K1 1_555 1_555
O2_2 K1 1_555 1_555
O3_2 K1 1_555 1_555
O9_2 K2 1_555 1_555
O10_2 K2 1_555 1_555
O12_2 K2 1_555 1_555
C7_2 Cr2 1_555 1_555
C8_2 Cr2 1_555 1_555
C9_2 Cr2 1_555 1_555
Mn2 O6 1_555 1_555
Mn4 O14 1_555 1_555
O2 K1_2 1_555 1_555
O3 K1_2 1_555 1_555
O10 K2_2 1_555 1_555
O12 K2_2 1_555 1_555
N2 C2 1_555 1_555
N3 C3 1_555 1_555
N4 C4 1_555 1_555
N11 C11 1_555 1_555
C13 C19 1_555 1_555
C17 C18 1_555 1_555
C22 C27 1_555 1_555
C26 C27 1_555 1_555
C29 C30 1_555 1_555
C35 C36 1_555 1_555
C36 C37 1_555 1_555
C40 C45 1_555 1_555
C44 C45 1_555 1_555
C47 C52 1_555 1_555
C47 C54 1_555 1_555
C51 C52 1_555 1_555
C60 C61 1_555 1_555
C63 C64 1_555 1_555
C66 C67 1_555 1_555
C70 C71 1_555 1_555
C77 C78 1_555 1_555
C78 C79 1_555 1_555
C81 C82 1_555 1_555
C83 C84 1_555 1_555
Mn1_2 O2_2 1_555 1_555
Mn3_2 O10_2 1_555 1_555

#END
