
#######################################################################
#
#                 Cambridge Crystallographic Data Centre
#                                CCDC 
#
#######################################################################
#
# If this CIF has been generated from an entry in the Cambridge 
# Structural Database, then it will include bibliographic, chemical, 
# crystal, experimental, refinement or atomic coordinate data resulting 
# from the CCDC's data processing and validation procedures.
#
#######################################################################

data_HUVXAX
_symmetry_cell_setting           triclinic
_symmetry_space_group_name_H-M   'P -1'
_symmetry_Int_Tables_number      2
_space_group_name_Hall           '-P 1'
loop_
_symmetry_equiv_pos_site_id
_symmetry_equiv_pos_as_xyz
1 x,y,z
2 -x,-y,-z
_cell_length_a                   11.695(2)
_cell_length_b                   13.488(3)
_cell_length_c                   13.761(3)
_cell_angle_alpha                87.09(3)
_cell_angle_beta                 67.40(3)
_cell_angle_gamma                67.41(3)
_cell_volume                     1838.27
loop_
_atom_site_label
_atom_site_type_symbol
_atom_site_fract_x
_atom_site_fract_y
_atom_site_fract_z
Ho1 Ho 0.83054(2) 0.424746(18) 0.46275(2)
Ho2 Ho 0.50834(3) 0.760976(19) 0.63512(2)
N1 N 0.4087(5) 0.8077(4) 0.8353(4)
N2 N 0.5112(5) 0.9325(4) 0.6970(4)
O1 O 0.6638(4) 0.7891(3) 0.4790(3)
O2 O 0.7518(4) 0.6137(3) 0.4825(3)
O3 O 1.1061(4) 0.5797(3) 0.3981(4)
O4 O 1.0295(4) 0.4557(3) 0.3854(3)
O5 O 0.8556(4) 0.4326(4) 0.2835(4)
O6 O 0.6475(4) 0.4871(3) 0.3997(3)
O7 O 0.4947(5) 0.3971(3) 0.3100(4)
O8 O 0.3561(4) 0.5636(3) 0.3891(4)
O9 O 0.6496(4) 0.0894(3) 0.4101(4)
O10 O 0.7378(4) 0.1845(3) 0.2954(4)
O11 O 0.7977(4) 0.2617(3) 0.4531(4)
O12 O 1.0063(4) 0.2457(3) 0.3928(4)
O13 O 0.4716(4) 0.6900(3) 0.5003(3)
O14 O 0.6952(5) 0.7011(4) 0.6853(4)
C1 C 0.3564(7) 0.7498(6) 0.9028(6)
H1 H 0.3634 0.6844 0.8771
C2 C 0.2902(8) 0.7814(7) 1.0123(6)
H2 H 0.2529 0.7378 1.0567
C3 C 0.2802(8) 0.8715(7) 1.0528(6)
H3 H 0.2378 0.8912 1.1256
C4 C 0.3350(7) 0.9391(6) 0.9840(6)
C5 C 0.3265(8) 1.0403(7) 1.0206(6)
H4 H 0.2830 1.0646 1.0926
C6 C 0.3793(8) 1.0994(6) 0.9538(6)
H5 H 0.3741 1.1639 0.9801
C7 C 0.4454(6) 1.0672(5) 0.8408(6)
C8 C 0.5012(7) 1.1274(5) 0.7669(6)
H6 H 0.5004 1.1915 0.7897
C9 C 0.5571(7) 1.0931(5) 0.6612(6)
H7 H 0.5921 1.1339 0.6110
C10 C 0.5598(6) 0.9939(5) 0.6309(6)
H8 H 0.5988 0.9702 0.5589
C11 C 0.4544(6) 0.9677(5) 0.8024(5)
C12 C 0.3977(6) 0.9042(5) 0.8739(5)
C13 C 0.7513(5) 0.6970(4) 0.4356(5)
C14 C 0.8532(6) 0.6870(4) 0.3251(5)
C15 C 0.8127(6) 0.7540(5) 0.2540(5)
H9 H 0.7259 0.8075 0.2776
C16 C 0.8970(7) 0.7429(5) 0.1512(5)
H10 H 0.8674 0.7872 0.1044
C17 C 1.0284(7) 0.6648(6) 0.1159(5)
H11 H 1.0858 0.6554 0.0448
C18 C 1.0731(6) 0.6019(5) 0.1856(5)
H12 H 1.1625 0.5530 0.1624
C19 C 0.9859(6) 0.6105(4) 0.2909(5)
C20 C 1.0428(5) 0.5437(4) 0.3650(4)
C21 C 0.7297(6) 0.4763(4) 0.3050(5)
C22 C 0.6802(6) 0.5192(4) 0.2206(5)
C23 C 0.7644(7) 0.5467(5) 0.1311(5)
H13 H 0.8511 0.5349 0.1240
C24 C 0.7213(8) 0.5914(5) 0.0526(6)
H14 H 0.7782 0.6098 -0.0071
C25 C 0.5914(7) 0.6086(6) 0.0641(6)
H15 H 0.5616 0.6386 0.0115
C26 C 0.5065(7) 0.5818(5) 0.1519(5)
H16 H 0.4197 0.5944 0.1589
C27 C 0.5508(6) 0.5360(4) 0.2302(5)
C28 C 0.4587(6) 0.4974(5) 0.3190(5)
C29 C 0.7490(6) 0.1100(4) 0.3554(5)
C30 C 0.8821(6) 0.0440(4) 0.3599(5)
C31 C 0.9236(7) -0.0685(5) 0.3459(6)
H17 H 0.8663 -0.0974 0.3390
C32 C 1.0495(7) -0.1371(5) 0.3423(6)
H18 H 1.0761 -0.2115 0.3322
C33 C 1.1345(6) -0.0963(5) 0.3533(5)
H19 H 1.2186 -0.1429 0.3507
C34 C 1.0958(6) 0.0149(4) 0.3684(5)
H20 H 1.1544 0.0426 0.3748
C35 C 0.9670(6) 0.0855(4) 0.3739(5)
C36 C 0.9233(6) 0.2035(4) 0.4070(5)
O3A O 0.8939(4) 0.4203(3) 0.6019(4)
O8A O 0.6439(4) 0.4364(3) 0.6109(4)
O7A O 0.5053(5) 0.6029(3) 0.6900(4)
O9A O 0.3504(4) 0.9106(3) 0.5899(4)
O10A O 0.2622(4) 0.8155(3) 0.7046(4)
Ho1A Ho 1.16946(2) 0.575254(18) 0.53725(2)
Ho2A Ho 0.49166(3) 0.239024(19) 0.36488(2)
Ho1A_2 Ho 0.16946(2) 0.575254(18) 0.53725(2)
O15 O 0.2256(10) 0.2094(9) 0.2143(8)
O16 O 0.0459(9) 0.8164(12) 0.8870(7)
O17 O 0.0750(10) 0.3041(9) 0.1150(8)
loop_
_geom_bond_atom_site_label_1
_geom_bond_atom_site_label_2
_geom_bond_site_symmetry_1
_geom_bond_site_symmetry_2
Ho1 O2 1_555 1_555
Ho2 N1 1_555 1_555
N1 C1 1_555 1_555
N2 Ho2 1_555 1_555
O1 Ho2 1_555 1_555
O2 Ho2 1_555 1_555
O3 C20 1_555 1_555
O4 Ho1 1_555 1_555
O5 Ho1 1_555 1_555
O6 Ho1 1_555 1_555
O7 C28 1_555 1_555
O8 C28 1_555 1_555
O9 C29 1_555 1_555
O10 C29 1_555 1_555
O11 Ho1 1_555 1_555
O12 Ho1 1_555 1_555
O13 Ho2 1_555 1_555
O14 Ho2 1_555 1_555
C1 H1 1_555 1_555
C2 C1 1_555 1_555
H2 C2 1_555 1_555
C3 C2 1_555 1_555
H3 C3 1_555 1_555
C4 C3 1_555 1_555
C5 C4 1_555 1_555
H4 C5 1_555 1_555
C6 C5 1_555 1_555
H5 C6 1_555 1_555
C7 C6 1_555 1_555
C8 C7 1_555 1_555
H6 C8 1_555 1_555
C9 C8 1_555 1_555
H7 C9 1_555 1_555
C10 N2 1_555 1_555
H8 C10 1_555 1_555
C11 N2 1_555 1_555
C12 N1 1_555 1_555
C13 O1 1_555 1_555
C14 C13 1_555 1_555
C15 C14 1_555 1_555
H9 C15 1_555 1_555
C16 C15 1_555 1_555
H10 C16 1_555 1_555
C17 C16 1_555 1_555
H11 C17 1_555 1_555
C18 C17 1_555 1_555
H12 C18 1_555 1_555
C19 C14 1_555 1_555
C20 O4 1_555 1_555
C21 O5 1_555 1_555
C22 C21 1_555 1_555
C23 C22 1_555 1_555
H13 C23 1_555 1_555
C24 C23 1_555 1_555
H14 C24 1_555 1_555
C25 C24 1_555 1_555
H15 C25 1_555 1_555
C26 C25 1_555 1_555
H16 C26 1_555 1_555
C27 C22 1_555 1_555
C28 C27 1_555 1_555
C29 C30 1_555 1_555
C30 C31 1_555 1_555
C31 H17 1_555 1_555
C32 C31 1_555 1_555
H18 C32 1_555 1_555
C33 C32 1_555 1_555
H19 C33 1_555 1_555
C34 C33 1_555 1_555
H20 C34 1_555 1_555
C35 C30 1_555 1_555
C36 O11 1_555 1_555
O3A Ho1 1_555 1_555
O8A Ho1 1_555 1_555
O7A Ho2 1_555 1_555
O9A Ho2 1_555 1_555
O10A Ho2 1_555 1_555
Ho1A O3 1_555 1_555
Ho2A O7 1_555 1_555
Ho1A_2 O8 1_555 1_555
O2 C13 1_555 1_555
O6 C21 1_555 1_555
O9 Ho2A 1_555 1_555
O10 Ho2A 1_555 1_555
O12 C36 1_555 1_555
C4 C12 1_555 1_555
C7 C11 1_555 1_555
C9 C10 1_555 1_555
C11 C12 1_555 1_555
C18 C19 1_555 1_555
C19 C20 1_555 1_555
C26 C27 1_555 1_555
C34 C35 1_555 1_555
C35 C36 1_555 1_555

#END
