
#######################################################################
#
#                 Cambridge Crystallographic Data Centre
#                                CCDC 
#
#######################################################################
#
# If this CIF has been generated from an entry in the Cambridge 
# Structural Database, then it will include bibliographic, chemical, 
# crystal, experimental, refinement or atomic coordinate data resulting 
# from the CCDC's data processing and validation procedures.
#
#######################################################################

data_HUWBUX
_symmetry_cell_setting           triclinic
_symmetry_space_group_name_H-M   'P -1'
_symmetry_Int_Tables_number      2
_space_group_name_Hall           '-P 1'
loop_
_symmetry_equiv_pos_site_id
_symmetry_equiv_pos_as_xyz
1 x,y,z
2 -x,-y,-z
_cell_length_a                   8.3697(3)
_cell_length_b                   11.6210(4)
_cell_length_c                   13.5757(5)
_cell_angle_alpha                101.646(2)
_cell_angle_beta                 103.515(2)
_cell_angle_gamma                106.524(2)
_cell_volume                     1178.74
loop_
_atom_site_label
_atom_site_type_symbol
_atom_site_fract_x
_atom_site_fract_y
_atom_site_fract_z
Ag1 Ag 0.68332(3) 0.46155(2) 0.873395(16)
N1 N 0.8327(3) 0.3260(2) 0.94263(19)
N2 N 0.7865(3) 0.5221(2) 1.06381(18)
N3 N 0.8969(3) 0.5896(2) 1.27925(18)
N4 N 0.6000(3) 0.6373(2) 0.95264(19)
N5 N 1.2214(3) 0.4641(2) 1.26253(19)
N6 N 0.5527(3) 0.6946(2) 1.27262(19)
C1 C 0.8300(5) 0.2196(3) 0.8807(3)
C2 C 0.8705(5) 0.1264(3) 0.9186(3)
C3 C 0.9110(5) 0.1426(3) 1.0250(3)
C4 C 0.9125(4) 0.2503(3) 1.0910(3)
C5 C 0.8760(4) 0.3415(3) 1.0467(2)
C6 C 0.8735(3) 0.4597(3) 1.1136(2)
C7 C 0.9479(4) 0.5059(3) 1.2245(2)
C8 C 0.7908(4) 0.6394(3) 1.2282(2)
C9 C 0.7518(3) 0.6161(2) 1.1181(2)
C10 C 0.6765(4) 0.6916(3) 1.0570(2)
C11 C 0.6905(4) 0.8128(3) 1.1053(3)
C12 C 0.6171(5) 0.8782(3) 1.0445(3)
C13 C 0.5349(5) 0.8222(3) 0.9387(3)
C14 C 0.5304(5) 0.7026(3) 0.8957(3)
C15 C 1.0807(4) 0.4683(3) 1.2917(2)
C16 C 1.0542(5) 0.4416(3) 1.3826(2)
C17 C 1.1737(5) 0.4025(3) 1.4441(3)
C18 C 1.3146(5) 0.3932(3) 1.4127(3)
C19 C 1.3363(4) 0.4279(3) 1.3240(3)
C20 C 0.7261(4) 0.7182(3) 1.2992(2)
C21 C 0.8451(4) 0.8072(3) 1.3905(2)
C22 C 0.7829(5) 0.8778(3) 1.4560(3)
C23 C 0.6060(5) 0.8557(3) 1.4302(3)
C24 C 0.4964(4) 0.7627(3) 1.3400(2)
H1 H 0.939(5) 0.260(4) 1.165(3)
H2 H 0.936(5) 0.090(4) 1.054(3)
H3 H 0.862(5) 0.048(4) 0.868(3)
H4 H 0.799(5) 0.211(4) 0.807(3)
H5 H 0.758(4) 0.854(3) 1.177(3)
H6 H 0.626(6) 0.958(4) 1.078(4)
H7 H 0.488(5) 0.864(4) 0.895(3)
H8 H 0.477(5) 0.662(3) 0.820(3)
H9 H 1.425(5) 0.423(3) 1.302(3)
H10 H 0.958(5) 0.445(3) 1.399(3)
H11 H 1.394(5) 0.368(3) 1.450(3)
H12 H 0.369(4) 0.739(3) 1.320(2)
H13 H 0.561(5) 0.899(3) 1.472(3)
H14 H 1.155(5) 0.386(3) 1.506(3)
H15 H 0.852(5) 0.932(4) 1.514(3)
H16 H 0.964(5) 0.813(3) 1.407(3)
Ag1A Ag 1.31668(3) 0.53845(2) 1.126605(16)
Ag1A_2 Ag 0.31668(3) 0.53845(2) 1.126605(16)
N5A N 0.7786(3) 0.5359(2) 0.73747(19)
N6A N 0.4473(3) 0.3054(2) 0.72738(19)
Re1 Re 0.640970(18) 0.167359(14) 0.361133(10)
O1 O 0.7441(3) 0.1737(3) 0.4873(2)
O2 O 0.6461(4) 0.3138(3) 0.3549(3)
O3 O 0.7445(5) 0.1136(4) 0.2769(3)
O4 O 0.4264(4) 0.0720(3) 0.3249(2)
O5 O 0.0505(6) 0.0612(5) 0.2592(4)
H17 H -0.006(10) 0.111(7) 0.296(6)
H18 H 0.145(12) 0.103(14) 0.333(10)
loop_
_geom_bond_atom_site_label_1
_geom_bond_atom_site_label_2
_geom_bond_site_symmetry_1
_geom_bond_site_symmetry_2
Ag1 N1 1_555 1_555
Re1 O1 1_555 1_555
O2 Re1 1_555 1_555
O3 Re1 1_555 1_555
O4 Re1 1_555 1_555
O5 H17 1_555 1_555
N1 C1 1_555 1_555
N2 Ag1 1_555 1_555
N3 C7 1_555 1_555
N4 Ag1 1_555 1_555
N5 C15 1_555 1_555
N6 C20 1_555 1_555
C1 C2 1_555 1_555
C2 C3 1_555 1_555
C3 C4 1_555 1_555
C4 C5 1_555 1_555
C5 N1 1_555 1_555
C6 N2 1_555 1_555
C7 C6 1_555 1_555
C8 N3 1_555 1_555
C9 N2 1_555 1_555
C10 N4 1_555 1_555
C11 C10 1_555 1_555
C12 C11 1_555 1_555
C13 C12 1_555 1_555
C14 N4 1_555 1_555
C15 C7 1_555 1_555
C16 C15 1_555 1_555
C17 C16 1_555 1_555
C18 C17 1_555 1_555
C19 N5 1_555 1_555
C20 C8 1_555 1_555
C21 C20 1_555 1_555
C22 C21 1_555 1_555
C23 C22 1_555 1_555
C24 N6 1_555 1_555
H1 C4 1_555 1_555
H2 C3 1_555 1_555
H3 C2 1_555 1_555
H4 C1 1_555 1_555
H5 C11 1_555 1_555
H6 C12 1_555 1_555
H7 C13 1_555 1_555
H8 C14 1_555 1_555
H9 C19 1_555 1_555
H10 C16 1_555 1_555
H11 C18 1_555 1_555
H12 C24 1_555 1_555
H13 C23 1_555 1_555
H14 C17 1_555 1_555
H15 C22 1_555 1_555
H16 C21 1_555 1_555
H18 O5 1_555 1_555
Ag1A N5 1_555 1_555
Ag1A_2 N6 1_555 1_555
N5A Ag1 1_555 1_555
N6A Ag1 1_555 1_555
C5 C6 1_555 1_555
C8 C9 1_555 1_555
C9 C10 1_555 1_555
C13 C14 1_555 1_555
C18 C19 1_555 1_555
C23 C24 1_555 1_555

#END
