
#######################################################################
#
#                 Cambridge Crystallographic Data Centre
#                                CCDC 
#
#######################################################################
#
# If this CIF has been generated from an entry in the Cambridge 
# Structural Database, then it will include bibliographic, chemical, 
# crystal, experimental, refinement or atomic coordinate data resulting 
# from the CCDC's data processing and validation procedures.
#
#######################################################################

data_HUWCOR
_symmetry_cell_setting           triclinic
_symmetry_space_group_name_H-M   'P -1'
_symmetry_Int_Tables_number      2
_space_group_name_Hall           '-P 1'
loop_
_symmetry_equiv_pos_site_id
_symmetry_equiv_pos_as_xyz
1 x,y,z
2 -x,-y,-z
_cell_length_a                   10.2411(17)
_cell_length_b                   12.647(2)
_cell_length_c                   14.897(3)
_cell_angle_alpha                98.630(3)
_cell_angle_beta                 99.884(3)
_cell_angle_gamma                104.433(3)
_cell_volume                     1802.83
loop_
_atom_site_label
_atom_site_type_symbol
_atom_site_fract_x
_atom_site_fract_y
_atom_site_fract_z
Cu1 Cu -0.09147(8) 0.43937(6) 0.41585(5)
Cu2 Cu 0.06687(8) 0.58839(7) 0.08272(5)
Br1 Br 0.16153(6) 0.45485(6) 0.45086(4)
Br2 Br 0.08227(6) 0.38938(5) 0.06057(4)
P1 P -0.20415(17) 0.26163(14) 0.39887(12)
P2 P 0.27523(16) 0.70575(14) 0.10849(11)
N1 N -0.1074(5) 0.5367(4) 0.3185(3)
N2 N -0.0573(5) 0.5856(4) 0.1777(3)
C1 C -0.0378(7) 0.5373(5) 0.2501(4)
H1 H 0.0320 0.4998 0.2538
C2 C -0.2028(7) 0.5917(6) 0.3140(4)
H2 H -0.2515 0.5960 0.3626
C3 C -0.2324(7) 0.6424(6) 0.2411(5)
H3 H -0.3022 0.6798 0.2379
C4 C -0.1578(7) 0.6376(6) 0.1722(4)
H4 H -0.1775 0.6712 0.1205
C5 C -0.3928(7) 0.2245(5) 0.3888(4)
C6 C -0.4619(7) 0.3012(6) 0.3653(4)
H5 H -0.4113 0.3725 0.3587
C7 C -0.6046(7) 0.2739(7) 0.3514(5)
H6 H -0.6513 0.3267 0.3349
C8 C -0.6796(7) 0.1712(7) 0.3614(5)
H7 H -0.7775 0.1527 0.3503
C9 C -0.6125(7) 0.0957(6) 0.3873(5)
H8 H -0.6640 0.0256 0.3955
C10 C -0.4683(7) 0.1215(6) 0.4017(5)
H9 H -0.4221 0.0692 0.4201
C11 C -0.1424(6) 0.2054(5) 0.4986(4)
C12 C -0.1964(7) 0.2202(6) 0.5790(4)
H10 H -0.2682 0.2553 0.5799
C13 C -0.1446(7) 0.1834(6) 0.6561(5)
H11 H -0.1813 0.1935 0.7102
C14 C -0.0408(7) 0.1322(6) 0.6565(5)
H12 H -0.0087 0.1042 0.7092
C15 C 0.0163(8) 0.1219(6) 0.5788(5)
H13 H 0.0908 0.0897 0.5796
C16 C -0.0338(7) 0.1581(6) 0.5003(5)
H14 H 0.0062 0.1504 0.4476
C17 C -0.1851(6) 0.1656(5) 0.2997(4)
C18 C -0.1216(8) 0.2084(7) 0.2340(5)
H15 H -0.0829 0.2867 0.2428
C19 C -0.1127(10) 0.1395(7) 0.1547(6)
H16 H -0.0690 0.1709 0.1096
C20 C -0.1662(8) 0.0271(7) 0.1414(5)
H17 H -0.1606 -0.0200 0.0870
C21 C -0.2287(8) -0.0184(6) 0.2072(5)
H18 H -0.2660 -0.0969 0.1984
C22 C -0.2367(7) 0.0508(6) 0.2860(5)
H19 H -0.2785 0.0191 0.3316
C23 C 0.3863(6) 0.7083(5) 0.2189(4)
C24 C 0.3717(7) 0.6067(6) 0.2489(5)
H20 H 0.3099 0.5403 0.2101
C25 C 0.4461(7) 0.6022(6) 0.3341(5)
H21 H 0.4353 0.5329 0.3535
C26 C 0.5358(7) 0.6976(6) 0.3910(5)
H22 H 0.5868 0.6940 0.4494
C27 C 0.5520(7) 0.7985(6) 0.3635(5)
H23 H 0.6143 0.8643 0.4027
C28 C 0.4760(7) 0.8034(6) 0.2773(5)
H24 H 0.4863 0.8732 0.2587
C29 C 0.3734(6) 0.6755(5) 0.0210(4)
C30 C 0.4956(9) 0.6517(10) 0.0369(6)
H25 H 0.5366 0.6492 0.0985
C31 C 0.5622(10) 0.6312(11) -0.0333(6)
H26 H 0.6485 0.6152 -0.0199
C32 C 0.5053(8) 0.6336(6) -0.1221(5)
H27 H 0.5519 0.6201 -0.1707
C33 C 0.3808(8) 0.6555(6) -0.1411(5)
H28 H 0.3406 0.6575 -0.2030
C34 C 0.3130(7) 0.6748(6) -0.0701(4)
H29 H 0.2248 0.6876 -0.0838
C35 C 0.2880(7) 0.8525(5) 0.1087(4)
C36 C 0.4064(8) 0.9281(6) 0.0985(5)
H30 H 0.4837 0.9032 0.0880
C37 C 0.4119(9) 1.0395(6) 0.1035(5)
H31 H 0.4938 1.0911 0.0980
C38 C 0.3008(10) 1.0753(7) 0.1165(5)
H32 H 0.3052 1.1518 0.1195
C39 C 0.1808(8) 1.0013(7) 0.1252(5)
H33 H 0.1036 1.0268 0.1349
C40 C 0.1744(7) 0.8908(6) 0.1199(5)
H34 H 0.0912 0.8397 0.1239
Cu1A Cu 0.09147(8) 0.56063(6) 0.58415(5)
Br1A Br -0.16153(6) 0.54515(6) 0.54914(4)
Cu2A Cu -0.06687(8) 0.41161(7) -0.08272(5)
Br2A Br -0.08227(6) 0.61062(5) -0.06057(4)
loop_
_geom_bond_atom_site_label_1
_geom_bond_atom_site_label_2
_geom_bond_site_symmetry_1
_geom_bond_site_symmetry_2
Cu1 Br1 1_555 1_555
Cu2 Br2 1_555 1_555
Br1 Cu1A 1_555 1_555
Br2 Cu2A 1_555 1_555
P1 Cu1 1_555 1_555
P2 Cu2 1_555 1_555
N1 Cu1 1_555 1_555
N2 Cu2 1_555 1_555
C1 N1 1_555 1_555
H1 C1 1_555 1_555
C2 N1 1_555 1_555
H2 C2 1_555 1_555
C3 C2 1_555 1_555
H3 C3 1_555 1_555
C4 N2 1_555 1_555
H4 C4 1_555 1_555
C5 P1 1_555 1_555
C6 C5 1_555 1_555
H5 C6 1_555 1_555
C7 C6 1_555 1_555
H6 C7 1_555 1_555
C8 C7 1_555 1_555
H7 C8 1_555 1_555
C9 C8 1_555 1_555
H8 C9 1_555 1_555
C10 C5 1_555 1_555
H9 C10 1_555 1_555
C11 P1 1_555 1_555
C12 C11 1_555 1_555
H10 C12 1_555 1_555
C13 C12 1_555 1_555
H11 C13 1_555 1_555
C14 C13 1_555 1_555
H12 C14 1_555 1_555
C15 C14 1_555 1_555
H13 C15 1_555 1_555
C16 C11 1_555 1_555
H14 C16 1_555 1_555
C17 P1 1_555 1_555
C18 C17 1_555 1_555
H15 C18 1_555 1_555
C19 C18 1_555 1_555
H16 C19 1_555 1_555
C20 C19 1_555 1_555
H17 C20 1_555 1_555
C21 C20 1_555 1_555
H18 C21 1_555 1_555
C22 C17 1_555 1_555
H19 C22 1_555 1_555
C23 P2 1_555 1_555
C24 C23 1_555 1_555
H20 C24 1_555 1_555
C25 C24 1_555 1_555
H21 C25 1_555 1_555
C26 C25 1_555 1_555
H22 C26 1_555 1_555
C27 C26 1_555 1_555
H23 C27 1_555 1_555
C28 C23 1_555 1_555
H24 C28 1_555 1_555
C29 P2 1_555 1_555
C30 C29 1_555 1_555
H25 C30 1_555 1_555
C31 C30 1_555 1_555
H26 C31 1_555 1_555
C32 C31 1_555 1_555
H27 C32 1_555 1_555
C33 C32 1_555 1_555
H28 C33 1_555 1_555
C34 C29 1_555 1_555
H29 C34 1_555 1_555
C35 P2 1_555 1_555
C36 C35 1_555 1_555
H30 C36 1_555 1_555
C37 C36 1_555 1_555
H31 C37 1_555 1_555
C38 C37 1_555 1_555
H32 C38 1_555 1_555
C39 C38 1_555 1_555
H33 C39 1_555 1_555
C40 C35 1_555 1_555
H34 C40 1_555 1_555
Cu1A Br1A 1_555 1_555
Br1A Cu1 1_555 1_555
Cu2A Br2A 1_555 1_555
Br2A Cu2 1_555 1_555
N2 C1 1_555 1_555
C3 C4 1_555 1_555
C9 C10 1_555 1_555
C15 C16 1_555 1_555
C21 C22 1_555 1_555
C27 C28 1_555 1_555
C33 C34 1_555 1_555
C39 C40 1_555 1_555

#END
