
#######################################################################
#
#                 Cambridge Crystallographic Data Centre
#                                CCDC 
#
#######################################################################
#
# If this CIF has been generated from an entry in the Cambridge 
# Structural Database, then it will include bibliographic, chemical, 
# crystal, experimental, refinement or atomic coordinate data resulting 
# from the CCDC's data processing and validation procedures.
#
#######################################################################

data_HUWCUX
_symmetry_cell_setting           triclinic
_symmetry_space_group_name_H-M   'P -1'
_symmetry_Int_Tables_number      2
_space_group_name_Hall           '-P 1'
loop_
_symmetry_equiv_pos_site_id
_symmetry_equiv_pos_as_xyz
1 x,y,z
2 -x,-y,-z
_cell_length_a                   10.4465(13)
_cell_length_b                   12.1583(15)
_cell_length_c                   14.7891(18)
_cell_angle_alpha                95.289(2)
_cell_angle_beta                 103.401(2)
_cell_angle_gamma                101.887(2)
_cell_volume                     1768.64
loop_
_atom_site_label
_atom_site_type_symbol
_atom_site_fract_x
_atom_site_fract_y
_atom_site_fract_z
Br1 Br 0.85176(3) 0.56193(3) 0.54604(2)
Br2 Br 0.91127(3) 0.61173(2) -0.06835(2)
Cu1 Cu 0.89918(4) 0.44458(3) 0.41659(3)
Cu2 Cu 1.07396(4) 0.59443(3) 0.08101(3)
P1 P 0.78471(8) 0.26601(6) 0.40000(5)
P2 P 1.27660(8) 0.71033(6) 0.10960(5)
N1 N 0.8963(2) 0.5485(2) 0.31370(17)
N2 N 0.9567(2) 0.5994(2) 0.17631(17)
N3 N 0.7872(3) 0.6722(2) 0.22673(18)
C1 C 0.8635(3) 0.6613(3) 0.1680(2)
H1 H 0.8511 0.7008 0.1153
C2 C 0.9692(3) 0.5453(2) 0.2510(2)
H2 H 1.0350 0.5010 0.2603
C3 C 0.8085(3) 0.6146(3) 0.2985(2)
H3 H 0.7567 0.6210 0.3429
C4 C 0.8061(3) 0.1692(2) 0.30476(19)
C5 C 0.8842(4) 0.2135(3) 0.2469(3)
H4 H 0.9289 0.2918 0.2590
C6 C 0.8977(5) 0.1442(3) 0.1710(3)
H5 H 0.9505 0.1758 0.1313
C7 C 0.8361(4) 0.0318(3) 0.1533(2)
H6 H 0.8448 -0.0145 0.1008
C8 C 0.7605(4) -0.0153(3) 0.2116(2)
H7 H 0.7191 -0.0943 0.2005
C9 C 0.7461(3) 0.0541(3) 0.2864(2)
H8 H 0.6936 0.0219 0.3262
C10 C 0.6006(3) 0.2308(2) 0.3848(2)
C11 C 0.5272(3) 0.3079(3) 0.3498(2)
H9 H 0.5735 0.3795 0.3392
C12 C 0.3868(3) 0.2813(3) 0.3303(2)
H10 H 0.3376 0.3340 0.3055
C13 C 0.3191(3) 0.1790(3) 0.3469(2)
H11 H 0.2230 0.1609 0.3331
C14 C 0.3901(3) 0.1026(3) 0.3836(2)
H12 H 0.3431 0.0319 0.3952
C15 C 0.5298(3) 0.1287(3) 0.4035(2)
H13 H 0.5782 0.0764 0.4302
C16 C 0.8479(3) 0.2042(2) 0.5044(2)
C17 C 0.7947(3) 0.2161(3) 0.5824(2)
H14 H 0.7236 0.2543 0.5801
C18 C 0.8451(3) 0.1724(3) 0.6628(2)
H15 H 0.8075 0.1796 0.7150
C19 C 0.9501(3) 0.1185(3) 0.6673(2)
H16 H 0.9831 0.0870 0.7220
C20 C 1.0073(4) 0.1104(3) 0.5921(2)
H17 H 1.0815 0.0756 0.5961
C21 C 0.9564(3) 0.1531(3) 0.5107(2)
H18 H 0.9959 0.1472 0.4592
C22 C 1.3861(3) 0.7087(2) 0.2254(2)
C23 C 1.3702(3) 0.6063(3) 0.2621(2)
H19 H 1.3062 0.5407 0.2263
C24 C 1.4478(4) 0.5999(3) 0.3510(2)
H20 H 1.4351 0.5303 0.3757
C25 C 1.5425(3) 0.6934(3) 0.4031(2)
H21 H 1.5965 0.6882 0.4631
C26 C 1.5585(3) 0.7952(3) 0.3676(2)
H22 H 1.6233 0.8602 0.4036
C27 C 1.4807(3) 0.8031(3) 0.2799(2)
H23 H 1.4921 0.8738 0.2567
C28 C 1.3719(3) 0.6756(2) 0.0270(2)
C29 C 1.5029(3) 0.6604(3) 0.0514(2)
H24 H 1.5503 0.6695 0.1157
C30 C 1.5650(3) 0.6322(3) -0.0176(2)
H25 H 1.6538 0.6200 -0.0003
C31 C 1.4991(3) 0.6216(3) -0.1113(2)
H26 H 1.5430 0.6034 -0.1583
C32 C 1.3690(3) 0.6373(3) -0.1368(2)
H27 H 1.3237 0.6312 -0.2013
C33 C 1.3053(3) 0.6620(3) -0.0685(2)
H28 H 1.2146 0.6699 -0.0865
C34 C 1.2832(3) 0.8613(2) 0.10217(19)
C35 C 1.3991(3) 0.9369(3) 0.0939(2)
H29 H 1.4764 0.9099 0.0882
C36 C 1.4008(4) 1.0515(3) 0.0940(2)
H30 H 1.4803 1.1029 0.0898
C37 C 1.2892(4) 1.0909(3) 0.1003(2)
H31 H 1.2919 1.1695 0.1010
C38 C 1.1724(4) 1.0166(3) 0.1055(2)
H32 H 1.0941 1.0436 0.1081
C39 C 1.1705(3) 0.9019(3) 0.1070(2)
H33 H 1.0907 0.8510 0.1114
Cu1A Cu 1.10082(4) 0.55542(3) 0.58341(3)
Cu2A Cu 0.92604(4) 0.40557(3) -0.08101(3)
Br1A Br 1.14824(3) 0.43807(3) 0.45396(2)
Br2A Br 1.08873(3) 0.38827(2) 0.06835(2)
loop_
_geom_bond_atom_site_label_1
_geom_bond_atom_site_label_2
_geom_bond_site_symmetry_1
_geom_bond_site_symmetry_2
Br1 Cu1 1_555 1_555
Br2 Cu2 1_555 1_555
Cu1 P1 1_555 1_555
Cu2 P2 1_555 1_555
P1 C4 1_555 1_555
P2 C22 1_555 1_555
N1 Cu1 1_555 1_555
N2 Cu2 1_555 1_555
N3 C1 1_555 1_555
C1 N2 1_555 1_555
H1 C1 1_555 1_555
C2 N1 1_555 1_555
H2 C2 1_555 1_555
C3 N1 1_555 1_555
H3 C3 1_555 1_555
C4 C5 1_555 1_555
C5 H4 1_555 1_555
C6 C5 1_555 1_555
H5 C6 1_555 1_555
C7 C6 1_555 1_555
H6 C7 1_555 1_555
C8 C7 1_555 1_555
H7 C8 1_555 1_555
C9 C4 1_555 1_555
H8 C9 1_555 1_555
C10 P1 1_555 1_555
C11 C10 1_555 1_555
H9 C11 1_555 1_555
C12 C11 1_555 1_555
H10 C12 1_555 1_555
C13 C12 1_555 1_555
H11 C13 1_555 1_555
C14 C13 1_555 1_555
H12 C14 1_555 1_555
C15 C10 1_555 1_555
H13 C15 1_555 1_555
C16 P1 1_555 1_555
C17 C16 1_555 1_555
H14 C17 1_555 1_555
C18 C17 1_555 1_555
H15 C18 1_555 1_555
C19 C18 1_555 1_555
H16 C19 1_555 1_555
C20 C19 1_555 1_555
H17 C20 1_555 1_555
C21 C16 1_555 1_555
H18 C21 1_555 1_555
C22 C23 1_555 1_555
C23 H19 1_555 1_555
C24 C23 1_555 1_555
H20 C24 1_555 1_555
C25 C24 1_555 1_555
H21 C25 1_555 1_555
C26 C25 1_555 1_555
H22 C26 1_555 1_555
C27 C22 1_555 1_555
H23 C27 1_555 1_555
C28 P2 1_555 1_555
C29 C28 1_555 1_555
H24 C29 1_555 1_555
C30 C29 1_555 1_555
H25 C30 1_555 1_555
C31 C30 1_555 1_555
H26 C31 1_555 1_555
C32 C31 1_555 1_555
H27 C32 1_555 1_555
C33 C28 1_555 1_555
H28 C33 1_555 1_555
C34 P2 1_555 1_555
C35 C34 1_555 1_555
H29 C35 1_555 1_555
C36 C35 1_555 1_555
H30 C36 1_555 1_555
C37 C36 1_555 1_555
H31 C37 1_555 1_555
C38 C37 1_555 1_555
H32 C38 1_555 1_555
C39 C34 1_555 1_555
H33 C39 1_555 1_555
Cu1A Br1 1_555 1_555
Cu2A Br2 1_555 1_555
Br1A Cu1 1_555 1_555
Br2A Cu2 1_555 1_555
N2 C2 1_555 1_555
N3 C3 1_555 1_555
C8 C9 1_555 1_555
C14 C15 1_555 1_555
C20 C21 1_555 1_555
C26 C27 1_555 1_555
C32 C33 1_555 1_555
C38 C39 1_555 1_555
Cu1A Br1A 1_555 1_555
Cu2A Br2A 1_555 1_555

#END
