
#######################################################################
#
#                 Cambridge Crystallographic Data Centre
#                                CCDC 
#
#######################################################################
#
# If this CIF has been generated from an entry in the Cambridge 
# Structural Database, then it will include bibliographic, chemical, 
# crystal, experimental, refinement or atomic coordinate data resulting 
# from the CCDC's data processing and validation procedures.
#
#######################################################################

data_HUWCEI
_symmetry_cell_setting           triclinic
_symmetry_space_group_name_H-M   'P -1'
_symmetry_Int_Tables_number      2
_space_group_name_Hall           '-P 1'
loop_
_symmetry_equiv_pos_site_id
_symmetry_equiv_pos_as_xyz
1 x,y,z
2 -x,-y,-z
_cell_length_a                   6.3515(3)
_cell_length_b                   7.7186(3)
_cell_length_c                   14.2016(7)
_cell_angle_alpha                89.449(2)
_cell_angle_beta                 81.686(3)
_cell_angle_gamma                89.229(2)
_cell_volume                     688.829
loop_
_atom_site_label
_atom_site_type_symbol
_atom_site_fract_x
_atom_site_fract_y
_atom_site_fract_z
Ag1 Ag -0.28645(5) 0.20420(4) 0.24494(3)
Ag2 Ag -0.28902(5) 0.70655(4) 0.22577(3)
Re1 Re 0.18233(3) 0.500945(18) 0.333612(12)
Re2 Re -0.76265(2) 1.014250(18) 0.189340(12)
O1 O -0.0659(5) 0.4127(4) 0.3370(2)
O2 O 0.1684(5) 0.6424(4) 0.4265(2)
O3 O 0.3686(5) 0.3439(4) 0.3508(2)
O4 O 0.2574(5) 0.6129(4) 0.2277(2)
O5 O -0.5231(5) 0.9370(4) 0.1301(2)
O6 O -0.7772(5) 0.9848(4) 0.3103(2)
O7 O -0.7790(5) 1.2324(4) 0.1656(2)
O8 O -0.9714(5) 0.9143(4) 0.1454(2)
N1 N -0.2767(6) 0.3506(4) 0.1152(3)
N2 N -0.2610(5) 0.5305(4) 0.1084(3)
N3 N -0.2541(6) 0.4254(5) -0.0338(3)
N4 N -0.2711(5) 0.0206(4) 0.3591(3)
N5 N -0.2955(5) -0.1565(4) 0.3565(3)
N6 N -0.2571(6) -0.0840(5) 0.5005(3)
C1 C -0.2721(7) 0.2938(6) 0.0300(3)
H1 H -0.2801 0.1775 0.0144
C2 C -0.2487(6) 0.5697(6) 0.0182(3)
H2 H -0.2377 0.6816 -0.0067
C3 C -0.2481(6) 0.0593(5) 0.4462(3)
H3 H -0.2283 0.1706 0.4675
C4 C -0.2883(6) -0.2156(5) 0.4430(3)
H4 H -0.3027 -0.3312 0.4617
H5 H -0.2476 0.4187 -0.0944
H6 H -0.2455 -0.0905 0.5601
Ag1_2 Ag 0.71355(5) 0.20420(4) 0.24494(3)
Ag2_2 Ag -0.28902(5) -0.29345(4) 0.22577(3)
Ag2_3 Ag -1.28902(5) 0.70655(4) 0.22577(3)
O3_2 O -0.6314(5) 0.3439(4) 0.3508(2)
O8_2 O 0.0286(5) 0.9143(4) 0.1454(2)
N5_2 N -0.2955(5) 0.8435(4) 0.3565(3)
loop_
_geom_bond_atom_site_label_1
_geom_bond_atom_site_label_2
_geom_bond_site_symmetry_1
_geom_bond_site_symmetry_2
Ag1 O1 1_555 1_555
Ag2 O5 1_555 1_555
Re1 O1 1_555 1_555
Re2 O5 1_555 1_555
O2 Re1 1_555 1_555
O3 Re1 1_555 1_555
O4 Re1 1_555 1_555
O6 Re2 1_555 1_555
O7 Re2 1_555 1_555
O8 Re2 1_555 1_555
N1 Ag1 1_555 1_555
N2 Ag2 1_555 1_555
N3 C1 1_555 1_555
N4 Ag1 1_555 1_555
N5 N4 1_555 1_555
N6 C3 1_555 1_555
C1 N1 1_555 1_555
H1 C1 1_555 1_555
C2 N2 1_555 1_555
H2 C2 1_555 1_555
C3 N4 1_555 1_555
H3 C3 1_555 1_555
C4 N5 1_555 1_555
H4 C4 1_555 1_555
H5 N3 1_555 1_555
H6 N6 1_555 1_555
Ag1_2 O3 1_555 1_555
Ag2_2 N5 1_555 1_555
Ag2_3 O8 1_555 1_555
O3_2 Ag1 1_555 1_555
O8_2 Ag2 1_555 1_555
N5_2 Ag2 1_555 1_555
N1 N2 1_555 1_555
N3 C2 1_555 1_555
N6 C4 1_555 1_555

#END
