
#######################################################################
#
#                 Cambridge Crystallographic Data Centre
#                                CCDC 
#
#######################################################################
#
# If this CIF has been generated from an entry in the Cambridge 
# Structural Database, then it will include bibliographic, chemical, 
# crystal, experimental, refinement or atomic coordinate data resulting 
# from the CCDC's data processing and validation procedures.
#
#######################################################################

data_HUWCOS
_symmetry_cell_setting           monoclinic
_symmetry_space_group_name_H-M   'P 21/n'
_symmetry_Int_Tables_number      14
_space_group_name_Hall           '-P 2yn'
loop_
_symmetry_equiv_pos_site_id
_symmetry_equiv_pos_as_xyz
1 x,y,z
2 1/2-x,1/2+y,1/2-z
3 -x,-y,-z
4 1/2+x,1/2-y,1/2+z
_cell_length_a                   5.7889(3)
_cell_length_b                   12.2433(6)
_cell_length_c                   13.6640(6)
_cell_angle_alpha                90
_cell_angle_beta                 92.2874(18)
_cell_angle_gamma                90
_cell_volume                     967.668
loop_
_atom_site_label
_atom_site_type_symbol
_atom_site_fract_x
_atom_site_fract_y
_atom_site_fract_z
Ag1 Ag 0.02841(3) 0.256073(19) 0.203329(11)
O1 O -0.6246(3) 0.41159(18) 0.07060(13)
O2 O -0.3473(3) 0.36744(17) 0.18297(12)
N1 N -0.1136(4) 0.25526(19) 0.04497(14)
N2 N -0.2976(4) 0.25112(19) -0.14668(14)
C1 C -0.3105(4) 0.3078(2) 0.01910(15)
C2 C -0.4012(4) 0.3070(2) -0.07613(15)
C3 C -0.1031(4) 0.1982(2) -0.12183(17)
C4 C -0.0107(4) 0.2005(3) -0.02588(16)
C5 C -0.4281(4) 0.3652(2) 0.10008(16)
Re1 Re 0.529759(15) 0.046138(8) 0.198584(6)
O3 O 0.3734(4) 0.14308(17) 0.13184(16)
O4 O 0.3517(4) -0.0196(2) 0.27829(17)
O5 O 0.7502(4) 0.1110(2) 0.26282(18)
O6 O 0.6369(5) -0.04565(19) 0.1188(2)
H1 H -0.716 0.426 0.117
H2 H -0.540 0.347 -0.092
H3 H -0.025 0.158 -0.171
H4 H 0.131 0.162 -0.010
Ag1C Ag -0.47159(3) 0.243927(19) -0.296671(11)
Ag1A Ag 0.47159(3) -0.243927(19) 0.296671(11)
Ag1_2 Ag 1.02841(3) 0.256073(19) 0.203329(11)
N2C N 0.2024(4) 0.24888(19) 0.35332(14)
O4A O 0.1483(4) 0.4804(2) 0.22171(17)
O5_2 O -0.2498(4) 0.1110(2) 0.26282(18)
loop_
_geom_bond_atom_site_label_1
_geom_bond_atom_site_label_2
_geom_bond_site_symmetry_1
_geom_bond_site_symmetry_2
Ag1 O2 1_555 1_555
O1 C5 1_555 1_555
O2 C5 1_555 1_555
N1 Ag1 1_555 1_555
N2 C2 1_555 1_555
C1 N1 1_555 1_555
C2 C1 1_555 1_555
C3 N2 1_555 1_555
C4 N1 1_555 1_555
C5 C1 1_555 1_555
Re1 O3 1_555 1_555
O3 Ag1 1_555 1_555
O4 Re1 1_555 1_555
O5 Re1 1_555 1_555
O6 Re1 1_555 1_555
H1 O1 1_555 1_555
H2 C2 1_555 1_555
H3 C3 1_555 1_555
H4 C4 1_555 1_555
Ag1C N2 1_555 1_555
Ag1A O4 1_555 1_555
Ag1_2 O5 1_555 1_555
N2C Ag1 1_555 1_555
O4A Ag1 1_555 1_555
O5_2 Ag1 1_555 1_555
C3 C4 1_555 1_555

#END
