
#######################################################################
#
#                 Cambridge Crystallographic Data Centre
#                                CCDC 
#
#######################################################################
#
# If this CIF has been generated from an entry in the Cambridge 
# Structural Database, then it will include bibliographic, chemical, 
# crystal, experimental, refinement or atomic coordinate data resulting 
# from the CCDC's data processing and validation procedures.
#
#######################################################################

data_HUWDAF
_symmetry_cell_setting           orthorhombic
_symmetry_space_group_name_H-M   'P b c a'
_symmetry_Int_Tables_number      61
_space_group_name_Hall           '-P 2ac 2ab'
loop_
_symmetry_equiv_pos_site_id
_symmetry_equiv_pos_as_xyz
1 x,y,z
2 1/2-x,-y,1/2+z
3 1/2+x,1/2-y,-z
4 -x,1/2+y,1/2-z
5 -x,-y,-z
6 1/2+x,y,1/2-z
7 1/2-x,1/2+y,z
8 x,1/2-y,1/2+z
_cell_length_a                   11.3441(23)
_cell_length_b                   13.2000(26)
_cell_length_c                   15.3016(31)
_cell_angle_alpha                90
_cell_angle_beta                 90
_cell_angle_gamma                90
_cell_volume                     2291.29
loop_
_atom_site_label
_atom_site_type_symbol
_atom_site_fract_x
_atom_site_fract_y
_atom_site_fract_z
Ag1 Ag -0.245170(14) 0.115410(13) -0.438640(10)
N1 N -0.05670(13) 0.12371(13) -0.44040(10)
N2 N 0.56708(14) 0.10893(13) -0.44242(10)
C1 C 0.00485(18) 0.13046(17) -0.36590(12)
H1 H -0.0371 0.1359 -0.3124
C2 C 0.12506(17) 0.12991(16) -0.36345(11)
H2 H 0.1649 0.1348 -0.3090
C3 C 0.18957(17) 0.12223(15) -0.44098(11)
C4 C 0.12523(18) 0.11792(15) -0.51841(12)
H3 H 0.1650 0.1144 -0.5730
C5 C 0.00478(18) 0.11873(15) -0.51568(12)
H4 H -0.0375 0.1156 -0.5692
C6 C 0.50651(18) 0.13798(16) -0.51374(11)
H5 H 0.5488 0.1551 -0.5653
C7 C 0.38588(17) 0.14374(16) -0.51456(11)
H6 H 0.3465 0.1659 -0.5659
C8 C 0.32008(17) 0.11749(15) -0.44084(12)
C9 C 0.38487(17) 0.08577(16) -0.36790(11)
H7 H 0.3450 0.0663 -0.3160
C10 C 0.50533(18) 0.08265(17) -0.37109(11)
H8 H 0.5471 0.0610 -0.3206
Re1 Re -0.193040(8) 0.138590(7) -0.738720(5)
O1 O -0.24627(13) 0.13955(11) -0.63371(8)
O2 O -0.04067(14) 0.13378(13) -0.73524(8)
O3 O -0.23547(13) 0.24675(11) -0.79381(8)
O4 O -0.24402(13) 0.03298(12) -0.79435(8)
Ag1_2 Ag 0.754830(14) 0.115410(13) -0.438640(10)
Ag1G Ag -0.245170(14) 0.384590(13) -0.938640(10)
Ag1A Ag -0.254830(14) -0.115410(13) -0.938640(10)
N2_2 N -0.43292(14) 0.10893(13) -0.44242(10)
O3G O -0.23547(13) 0.25325(11) -0.29381(8)
O4A O -0.25598(13) -0.03298(12) -0.29435(8)
loop_
_geom_bond_atom_site_label_1
_geom_bond_atom_site_label_2
_geom_bond_site_symmetry_1
_geom_bond_site_symmetry_2
Ag1 N1 1_555 1_555
N1 C1 1_555 1_555
N2 C6 1_555 1_555
C1 H1 1_555 1_555
C2 C1 1_555 1_555
H2 C2 1_555 1_555
C3 C2 1_555 1_555
C4 C3 1_555 1_555
H3 C4 1_555 1_555
C5 N1 1_555 1_555
H4 C5 1_555 1_555
C6 H5 1_555 1_555
C7 C6 1_555 1_555
H6 C7 1_555 1_555
C8 C3 1_555 1_555
C9 C8 1_555 1_555
H7 C9 1_555 1_555
C10 N2 1_555 1_555
H8 C10 1_555 1_555
Re1 O1 1_555 1_555
O1 Ag1 1_555 1_555
O2 Re1 1_555 1_555
O3 Re1 1_555 1_555
O4 Re1 1_555 1_555
Ag1_2 N2 1_555 1_555
Ag1G O3 1_555 1_555
Ag1A O4 1_555 1_555
N2_2 Ag1 1_555 1_555
O3G Ag1 1_555 1_555
O4A Ag1 1_555 1_555
C4 C5 1_555 1_555
C7 C8 1_555 1_555
C9 C10 1_555 1_555

#END
