
#######################################################################
#
#                 Cambridge Crystallographic Data Centre
#                                CCDC 
#
#######################################################################
#
# If this CIF has been generated from an entry in the Cambridge 
# Structural Database, then it will include bibliographic, chemical, 
# crystal, experimental, refinement or atomic coordinate data resulting 
# from the CCDC's data processing and validation procedures.
#
#######################################################################

data_HUWKIT
_symmetry_cell_setting           triclinic
_symmetry_space_group_name_H-M   'P -1'
_symmetry_Int_Tables_number      2
_space_group_name_Hall           '-P 1'
loop_
_symmetry_equiv_pos_site_id
_symmetry_equiv_pos_as_xyz
1 x,y,z
2 -x,-y,-z
_cell_length_a                   8.8382(2)
_cell_length_b                   11.4766(4)
_cell_length_c                   15.4501(5)
_cell_angle_alpha                77.0489(12)
_cell_angle_beta                 88.4121(16)
_cell_angle_gamma                86.8440(17)
_cell_volume                     1524.77
loop_
_atom_site_label
_atom_site_type_symbol
_atom_site_fract_x
_atom_site_fract_y
_atom_site_fract_z
Zn1 Zn 0.99105(2) 0.526231(19) 0.253944(13)
O1 O 1.19447(15) 0.57712(13) 0.30152(9)
O2 O 1.22950(16) 0.45256(13) 0.21382(10)
N1 N 0.97123(17) 0.37791(13) 0.36299(10)
N2 N 0.83387(16) 0.59503(14) 0.33713(10)
N3 N 1.00450(17) 0.67569(14) 0.14347(10)
N4 N 0.86086(17) 0.47577(14) 0.15673(10)
C1 C 1.0465(2) 0.27127(19) 0.37274(16)
H1 H 1.0988 0.2530 0.3240
C2 C 1.0493(3) 0.1882(2) 0.45177(17)
H2 H 1.1021 0.1148 0.4563
C3 C 0.9736(3) 0.2145(2) 0.52400(15)
H3 H 0.9754 0.1596 0.5784
C4 C 0.8947(2) 0.32315(19) 0.51506(13)
H4 H 0.8423 0.3426 0.5633
C5 C 0.89410(19) 0.40335(16) 0.43320(11)
C6 C 0.81043(19) 0.52177(16) 0.41699(11)
C7 C 0.7138(3) 0.5569(2) 0.47956(14)
H5 H 0.6981 0.5057 0.5346
C8 C 0.6410(3) 0.6691(2) 0.45893(18)
H6 H 0.5766 0.6943 0.5005
C9 C 0.6636(3) 0.7431(2) 0.37744(17)
H7 H 0.6142 0.8183 0.3624
C10 C 0.7617(2) 0.70302(18) 0.31843(14)
H8 H 0.7785 0.7532 0.2632
C11 C 1.0860(2) 0.77168(18) 0.14081(14)
H9 H 1.1288 0.7809 0.1930
C12 C 1.1088(3) 0.85696(19) 0.06438(15)
H10 H 1.1662 0.9225 0.0646
C13 C 1.0449(3) 0.8429(2) -0.01227(15)
H11 H 1.0590 0.8993 -0.0650
C14 C 0.9599(2) 0.74558(19) -0.01122(13)
H12 H 0.9156 0.7358 -0.0628
C15 C 0.94155(19) 0.66229(16) 0.06836(11)
C16 C 0.85469(19) 0.55329(17) 0.07699(11)
C17 C 0.7709(2) 0.5305(2) 0.00847(13)
H13 H 0.7687 0.5838 -0.0466
C18 C 0.6912(2) 0.4282(2) 0.02299(15)
H14 H 0.6343 0.4119 -0.0223
C19 C 0.6959(2) 0.3503(2) 0.10446(16)
H15 H 0.6421 0.2809 0.1153
C20 C 0.7819(2) 0.37681(19) 0.16993(14)
H16 H 0.7852 0.3241 0.2253
C21 C 1.2817(2) 0.51891(17) 0.25947(12)
C22 C 1.4496(2) 0.5291(2) 0.26420(17)
H17 H 1.4929 0.4582 0.3025
H18 H 1.4693 0.5976 0.2874
H19 H 1.4939 0.5381 0.2058
Mn1 Mn 0.39431(3) 1.05981(3) 0.218389(17)
O3 O 0.39881(18) 1.23836(14) 0.24466(11)
N5 N 0.3730(2) 0.98523(18) 0.36035(12)
N6 N 0.3171(2) 0.94385(18) 0.51943(12)
N7 N 0.3835(2) 0.75686(19) 0.62606(13)
N8 N 0.4216(2) 0.88038(18) 0.18414(13)
N9 N 0.5617(4) 0.7771(2) 0.08409(14)
N10 N 0.5982(2) 0.85398(19) -0.07414(12)
N11 N 0.64683(18) 1.05066(17) 0.22799(14)
N12 N 0.9026(2) 0.9979(3) 0.2792(2)
N13 N 1.14244(18) 1.0689(2) 0.21714(13)
C23 C 0.3511(2) 0.96038(18) 0.43553(13)
C24 C 0.3554(2) 0.8423(2) 0.57373(13)
C25 C 0.4870(3) 0.83668(19) 0.13467(14)
C26 C 0.5778(3) 0.8234(2) -0.00024(15)
C27 C 0.7699(2) 1.0313(2) 0.24827(15)
C28 C 1.0264(2) 1.0400(2) 0.24286(14)
H20 H 0.460(3) 1.245(2) 0.2901(15)
H21 H 0.349(3) 1.3127(18) 0.2239(18)
N10A N 0.4018(2) 1.14602(19) 0.07414(12)
N13_2 N 0.14244(18) 1.0689(2) 0.21714(13)
Mn1A Mn 0.60569(3) 0.94019(3) -0.218389(17)
Mn1_2 Mn 1.39431(3) 1.05981(3) 0.218389(17)
loop_
_geom_bond_atom_site_label_1
_geom_bond_atom_site_label_2
_geom_bond_site_symmetry_1
_geom_bond_site_symmetry_2
Zn1 O1 1_555 1_555
Mn1 O3 1_555 1_555
O1 C21 1_555 1_555
O2 Zn1 1_555 1_555
O3 H20 1_555 1_555
N1 Zn1 1_555 1_555
N2 Zn1 1_555 1_555
N3 Zn1 1_555 1_555
N4 Zn1 1_555 1_555
N5 Mn1 1_555 1_555
N6 C23 1_555 1_555
N7 C24 1_555 1_555
N8 Mn1 1_555 1_555
N9 C25 1_555 1_555
N10 C26 1_555 1_555
N11 Mn1 1_555 1_555
N12 C27 1_555 1_555
N13 C28 1_555 1_555
C1 N1 1_555 1_555
H1 C1 1_555 1_555
C2 C1 1_555 1_555
H2 C2 1_555 1_555
C3 C2 1_555 1_555
H3 C3 1_555 1_555
C4 C3 1_555 1_555
H4 C4 1_555 1_555
C5 N1 1_555 1_555
C6 N2 1_555 1_555
C7 C6 1_555 1_555
H5 C7 1_555 1_555
C8 C7 1_555 1_555
H6 C8 1_555 1_555
C9 C8 1_555 1_555
H7 C9 1_555 1_555
C10 N2 1_555 1_555
H8 C10 1_555 1_555
C11 N3 1_555 1_555
H9 C11 1_555 1_555
C12 C11 1_555 1_555
H10 C12 1_555 1_555
C13 C12 1_555 1_555
H11 C13 1_555 1_555
C14 C13 1_555 1_555
H12 C14 1_555 1_555
C15 N3 1_555 1_555
C16 N4 1_555 1_555
C17 C16 1_555 1_555
H13 C17 1_555 1_555
C18 C17 1_555 1_555
H14 C18 1_555 1_555
C19 C18 1_555 1_555
H15 C19 1_555 1_555
C20 N4 1_555 1_555
H16 C20 1_555 1_555
C21 O2 1_555 1_555
C22 C21 1_555 1_555
H17 C22 1_555 1_555
H18 C22 1_555 1_555
H19 C22 1_555 1_555
C23 N5 1_555 1_555
C24 N6 1_555 1_555
C25 N8 1_555 1_555
C26 N9 1_555 1_555
C27 N11 1_555 1_555
C28 N12 1_555 1_555
H21 O3 1_555 1_555
N10A Mn1 1_555 1_555
N13_2 Mn1 1_555 1_555
Mn1A N10 1_555 1_555
Mn1_2 N13 1_555 1_555
C4 C5 1_555 1_555
C5 C6 1_555 1_555
C9 C10 1_555 1_555
C14 C15 1_555 1_555
C15 C16 1_555 1_555
C19 C20 1_555 1_555

#END
