
#######################################################################
#
#                 Cambridge Crystallographic Data Centre
#                                CCDC 
#
#######################################################################
#
# If this CIF has been generated from an entry in the Cambridge 
# Structural Database, then it will include bibliographic, chemical, 
# crystal, experimental, refinement or atomic coordinate data resulting 
# from the CCDC's data processing and validation procedures.
#
#######################################################################

data_HUWKEP
_symmetry_cell_setting           triclinic
_symmetry_space_group_name_H-M   'P -1'
_symmetry_Int_Tables_number      2
_space_group_name_Hall           '-P 1'
loop_
_symmetry_equiv_pos_site_id
_symmetry_equiv_pos_as_xyz
1 x,y,z
2 -x,-y,-z
_cell_length_a                   8.8593(2)
_cell_length_b                   11.5231(4)
_cell_length_c                   15.3168(6)
_cell_angle_alpha                77.2230(13)
_cell_angle_beta                 88.207(2)
_cell_angle_gamma                86.684(2)
_cell_volume                     1522.09
loop_
_atom_site_label
_atom_site_type_symbol
_atom_site_fract_x
_atom_site_fract_y
_atom_site_fract_z
Cu1 Cu 0.98737(3) 0.53435(2) 0.249499(17)
O1 O 1.18580(17) 0.56948(14) 0.29604(10)
O2 O 1.2611(2) 0.45451(16) 0.20378(12)
N1 N 0.9694(2) 0.39449(16) 0.35315(12)
N2 N 0.83014(19) 0.60761(16) 0.33758(12)
N3 N 1.0071(2) 0.67151(17) 0.14533(12)
N4 N 0.85787(19) 0.47981(17) 0.15928(12)
C1 C 1.0446(3) 0.2888(2) 0.35769(18)
H1 H 1.0950 0.2744 0.3066
C2 C 1.0501(3) 0.2015(2) 0.4344(2)
H2 H 1.1016 0.1287 0.4349
C3 C 0.9788(3) 0.2225(2) 0.51024(19)
H3 H 0.9837 0.1651 0.5635
C4 C 0.8996(3) 0.3300(2) 0.50698(16)
H4 H 0.8498 0.3455 0.5578
C5 C 0.8951(2) 0.41459(19) 0.42695(14)
C6 C 0.8108(2) 0.5321(2) 0.41639(15)
C7 C 0.7171(3) 0.5619(3) 0.48317(18)
H5 H 0.7038 0.5081 0.5375
C8 C 0.6438(3) 0.6738(3) 0.4671(2)
H6 H 0.5811 0.6960 0.5111
C9 C 0.6632(3) 0.7513(2) 0.3868(2)
H7 H 0.6144 0.8266 0.3752
C10 C 0.7575(3) 0.7151(2) 0.32329(17)
H8 H 0.7711 0.7675 0.2683
C11 C 1.0889(3) 0.7662(2) 0.14463(18)
H9 H 1.1339 0.7727 0.1973
C12 C 1.1086(3) 0.8540(2) 0.06877(19)
H10 H 1.1653 0.9191 0.0700
C13 C 1.0430(3) 0.8435(2) -0.00855(18)
H11 H 1.0562 0.9011 -0.0609
C14 C 0.9573(3) 0.7474(2) -0.00882(17)
H12 H 0.9111 0.7402 -0.0609
C15 C 0.9412(2) 0.6621(2) 0.06923(14)
C16 C 0.8534(2) 0.5545(2) 0.07748(15)
C17 C 0.7723(3) 0.5304(2) 0.00858(16)
H13 H 0.7711 0.5824 -0.0473
C18 C 0.6931(3) 0.4281(3) 0.02410(18)
H14 H 0.6379 0.4104 -0.0215
C19 C 0.6959(3) 0.3526(3) 0.10691(19)
H15 H 0.6428 0.2833 0.1183
C20 C 0.7792(3) 0.3814(2) 0.17317(17)
H16 H 0.7807 0.3305 0.2295
C21 C 1.2894(3) 0.5186(2) 0.25663(15)
C22 C 1.4505(3) 0.5382(3) 0.2751(2)
H17 H 1.4943 0.4677 0.3133
H18 H 1.4529 0.6039 0.3041
H19 H 1.5071 0.5557 0.2197
Mn1 Mn 0.39851(3) 1.06295(3) 0.21900(2)
O3 O 0.4076(2) 1.23824(17) 0.24759(14)
N5 N 0.3734(2) 0.9908(2) 0.36201(15)
N6 N 0.3065(3) 0.9471(2) 0.52113(15)
N7 N 0.3697(3) 0.7585(2) 0.62610(15)
N8 N 0.4201(3) 0.8830(2) 0.18586(16)
N9 N 0.5610(4) 0.7771(3) 0.08625(18)
N10 N 0.5937(3) 0.8512(2) -0.07381(16)
N11 N 0.6517(2) 1.0489(2) 0.22797(16)
N12 N 0.9084(3) 0.9966(3) 0.2787(2)
N13 N 1.1458(2) 1.0743(2) 0.21635(15)
C23 C 0.3459(2) 0.9652(2) 0.43714(17)
C24 C 0.3427(3) 0.8458(2) 0.57464(16)
C25 C 0.4857(3) 0.8380(2) 0.13678(18)
C26 C 0.5741(3) 0.8215(2) 0.00075(19)
C27 C 0.7748(3) 1.0298(2) 0.24729(18)
C28 C 1.0303(2) 1.0429(2) 0.24189(17)
H20 H 0.476(3) 1.238(3) 0.2919(17)
H21 H 0.366(3) 1.3149(18) 0.227(2)
N10A N 0.4063(3) 1.1488(2) 0.07381(16)
N13_2 N 0.1458(2) 1.0743(2) 0.21635(15)
Mn1A Mn 0.60149(3) 0.93705(3) -0.21900(2)
Mn1_2 Mn 1.39851(3) 1.06295(3) 0.21900(2)
loop_
_geom_bond_atom_site_label_1
_geom_bond_atom_site_label_2
_geom_bond_site_symmetry_1
_geom_bond_site_symmetry_2
Cu1 O1 1_555 1_555
Mn1 O3 1_555 1_555
O1 C21 1_555 1_555
O2 Cu1 1_555 1_555
O3 H20 1_555 1_555
N1 Cu1 1_555 1_555
N2 Cu1 1_555 1_555
N3 Cu1 1_555 1_555
N4 Cu1 1_555 1_555
N5 Mn1 1_555 1_555
N6 C23 1_555 1_555
N7 C24 1_555 1_555
N8 Mn1 1_555 1_555
N9 C25 1_555 1_555
N10 C26 1_555 1_555
N11 Mn1 1_555 1_555
N12 C27 1_555 1_555
N13 C28 1_555 1_555
C1 N1 1_555 1_555
H1 C1 1_555 1_555
C2 C1 1_555 1_555
H2 C2 1_555 1_555
C3 C2 1_555 1_555
H3 C3 1_555 1_555
C4 C3 1_555 1_555
H4 C4 1_555 1_555
C5 N1 1_555 1_555
C6 N2 1_555 1_555
C7 C6 1_555 1_555
H5 C7 1_555 1_555
C8 C7 1_555 1_555
H6 C8 1_555 1_555
C9 C8 1_555 1_555
H7 C9 1_555 1_555
C10 N2 1_555 1_555
H8 C10 1_555 1_555
C11 N3 1_555 1_555
H9 C11 1_555 1_555
C12 C11 1_555 1_555
H10 C12 1_555 1_555
C13 C12 1_555 1_555
H11 C13 1_555 1_555
C14 C13 1_555 1_555
H12 C14 1_555 1_555
C15 N3 1_555 1_555
C16 N4 1_555 1_555
C17 C16 1_555 1_555
H13 C17 1_555 1_555
C18 C17 1_555 1_555
H14 C18 1_555 1_555
C19 C18 1_555 1_555
H15 C19 1_555 1_555
C20 N4 1_555 1_555
H16 C20 1_555 1_555
C21 O2 1_555 1_555
C22 C21 1_555 1_555
H17 C22 1_555 1_555
H18 C22 1_555 1_555
H19 C22 1_555 1_555
C23 N5 1_555 1_555
C24 N6 1_555 1_555
C25 N8 1_555 1_555
C26 N9 1_555 1_555
C27 N11 1_555 1_555
C28 N12 1_555 1_555
H21 O3 1_555 1_555
N10A Mn1 1_555 1_555
N13_2 Mn1 1_555 1_555
Mn1A N10 1_555 1_555
Mn1_2 N13 1_555 1_555
C4 C5 1_555 1_555
C5 C6 1_555 1_555
C9 C10 1_555 1_555
C14 C15 1_555 1_555
C15 C16 1_555 1_555
C19 C20 1_555 1_555

#END
