
#######################################################################
#
#                 Cambridge Crystallographic Data Centre
#                                CCDC 
#
#######################################################################
#
# If this CIF has been generated from an entry in the Cambridge 
# Structural Database, then it will include bibliographic, chemical, 
# crystal, experimental, refinement or atomic coordinate data resulting 
# from the CCDC's data processing and validation procedures.
#
#######################################################################

data_HUWRUM
_symmetry_cell_setting           monoclinic
_symmetry_space_group_name_H-M   'C 2/c'
_symmetry_Int_Tables_number      15
_space_group_name_Hall           '-C 2yn'
loop_
_symmetry_equiv_pos_site_id
_symmetry_equiv_pos_as_xyz
1 x,y,z
2 1/2+x,1/2+y,z
3 -x,y,1/2-z
4 1/2-x,1/2+y,1/2-z
5 -x,-y,-z
6 1/2-x,1/2-y,-z
7 x,-y,1/2+z
8 1/2+x,1/2-y,1/2+z
_cell_length_a                   8.1560(16)
_cell_length_b                   18.639(4)
_cell_length_c                   11.807(2)
_cell_angle_alpha                90
_cell_angle_beta                 99.86(3)
_cell_angle_gamma                90
_cell_volume                     1768.38
loop_
_atom_site_label
_atom_site_type_symbol
_atom_site_fract_x
_atom_site_fract_y
_atom_site_fract_z
Cd1 Cd 1.0000 0.802061(15) 0.2500
N1 N 1.1913(3) 0.88832(13) 0.3378(2)
N2 N 0.8195(4) 0.70520(17) 0.2243(3)
N3 N 0.9324(3) 0.81149(15) 0.5002(2)
O1 O 0.8508(3) 0.83923(14) 0.4107(2)
O2 O 0.9018(5) 0.8277(2) 0.5949(2)
O3 O 1.0480(3) 0.77066(15) 0.4893(2)
C1 C 1.1509(4) 0.94883(18) 0.3867(3)
H1 H 1.0390 0.9612 0.3783
C2 C 1.2670(4) 0.99410(18) 0.4493(3)
H2 H 1.2324 1.0360 0.4809
C3 C 1.4354(3) 0.97695(13) 0.4651(2)
C4 C 1.4769(3) 0.91447(17) 0.4126(3)
H3 H 1.5878 0.9007 0.4191
C5 C 1.3528(4) 0.87274(17) 0.3507(3)
H4 H 1.3840 0.8313 0.3160
C6 C 0.9181(7) 0.6410(2) 0.2151(6)
H5 H 0.867(6) 0.599(2) 0.222(4)
H6 H 0.756(7) 0.708(3) 0.169(5)
H7 H 0.767(6) 0.701(2) 0.278(5)
H8 H 0.997(9) 0.640(4) 0.127(6)
C3D C 1.5646(3) 1.02305(13) 0.5349(2)
C2D C 1.7330(4) 1.00590(18) 0.5507(3)
C1D C 1.8491(4) 1.05117(18) 0.6133(3)
N1D N 1.8087(3) 1.11168(13) 0.6622(2)
C5D C 1.6472(4) 1.12726(17) 0.6493(3)
C4D C 1.5231(3) 1.08553(17) 0.5874(3)
H3D H 1.4122 1.0993 0.5809
H4D H 1.6160 1.1687 0.6840
H1D H 1.9610 1.0388 0.6217
H2D H 1.7676 0.9640 0.5191
C6B C 1.0819(7) 0.6410(2) 0.2849(6)
N2B N 1.1805(4) 0.70520(17) 0.2757(3)
H6B H 1.244(7) 0.708(3) 0.331(5)
H7B H 1.233(6) 0.701(2) 0.222(5)
H5B H 1.133(6) 0.599(2) 0.278(4)
H8B H 1.003(9) 0.640(4) 0.373(6)
N3B N 1.0676(3) 0.81149(15) -0.0002(2)
O1B O 1.1492(3) 0.83923(14) 0.0893(2)
O2B O 1.0982(5) 0.8277(2) -0.0949(2)
O3B O 0.9520(3) 0.77066(15) 0.0107(2)
N1B N 0.8087(3) 0.88832(13) 0.1622(2)
Cd1F Cd 2.0000 1.197939(15) 0.7500
loop_
_geom_bond_atom_site_label_1
_geom_bond_atom_site_label_2
_geom_bond_site_symmetry_1
_geom_bond_site_symmetry_2
Cd1 N1 1_555 1_555
N1 C1 1_555 1_555
N2 Cd1 1_555 1_555
N3 O1 1_555 1_555
O1 Cd1 1_555 1_555
O2 N3 1_555 1_555
O3 N3 1_555 1_555
C1 H1 1_555 1_555
C2 C1 1_555 1_555
H2 C2 1_555 1_555
C3 C2 1_555 1_555
C4 C3 1_555 1_555
H3 C4 1_555 1_555
C5 N1 1_555 1_555
H4 C5 1_555 1_555
C6 N2 1_555 1_555
H5 C6 1_555 1_555
H6 N2 1_555 1_555
H7 N2 1_555 1_555
H8 C6 1_555 1_555
C3D C3 1_555 1_555
C2D C3D 1_555 1_555
C1D C2D 1_555 1_555
N1D C1D 1_555 1_555
C5D N1D 1_555 1_555
C4D C3D 1_555 1_555
H3D C4D 1_555 1_555
H4D C5D 1_555 1_555
H1D C1D 1_555 1_555
H2D C2D 1_555 1_555
C6B C6 1_555 1_555
N2B Cd1 1_555 1_555
H6B N2B 1_555 1_555
H7B N2B 1_555 1_555
H5B C6B 1_555 1_555
H8B C6B 1_555 1_555
N3B O1B 1_555 1_555
O1B Cd1 1_555 1_555
O2B N3B 1_555 1_555
O3B N3B 1_555 1_555
N1B Cd1 1_555 1_555
Cd1F N1D 1_555 1_555
C4 C5 1_555 1_555
C5D C4D 1_555 1_555
C6B N2B 1_555 1_555

#END
