
#######################################################################
#
#                 Cambridge Crystallographic Data Centre
#                                CCDC 
#
#######################################################################
#
# If this CIF has been generated from an entry in the Cambridge 
# Structural Database, then it will include bibliographic, chemical, 
# crystal, experimental, refinement or atomic coordinate data resulting 
# from the CCDC's data processing and validation procedures.
#
#######################################################################

data_HUWVUR
_symmetry_cell_setting           monoclinic
_symmetry_space_group_name_H-M   'C 2/c'
_symmetry_Int_Tables_number      15
_space_group_name_Hall           '-C 2yn'
loop_
_symmetry_equiv_pos_site_id
_symmetry_equiv_pos_as_xyz
1 x,y,z
2 -x,y,1/2-z
3 1/2+x,1/2+y,z
4 1/2-x,1/2+y,1/2-z
5 -x,-y,-z
6 x,-y,1/2+z
7 1/2-x,1/2-y,-z
8 1/2+x,1/2-y,1/2+z
_cell_length_a                   27.736(2)
_cell_length_b                   8.4417(7)
_cell_length_c                   21.9823(18)
_cell_angle_alpha                90
_cell_angle_beta                 121.228(1)
_cell_angle_gamma                90
_cell_volume                     4401.18
loop_
_atom_site_label
_atom_site_type_symbol
_atom_site_fract_x
_atom_site_fract_y
_atom_site_fract_z
Cu1 Cu 0.49205(3) -0.32572(12) 0.46704(5)
I1 I 0.46349(2) -0.60375(6) 0.39808(3)
S1 S 0.40528(6) -0.1960(2) 0.41694(9)
S2 S 0.45742(8) 0.1927(2) 0.57360(10)
O1 O 0.30564(19) 0.1107(5) 0.5261(2)
O2 O 0.27601(18) -0.1476(6) 0.4306(3)
C1 C 0.2605(3) 0.0041(8) 0.5094(4)
H1 H 0.2326 0.0555 0.5159
H2 H 0.2744 -0.0866 0.5402
C2 C 0.2350(3) -0.0465(8) 0.4330(4)
H3 H 0.2005 -0.1031 0.4172
H4 H 0.2271 0.0443 0.4030
C3 C 0.2588(3) -0.2299(8) 0.3688(3)
C4 C 0.2054(3) -0.2215(8) 0.3089(4)
H5 H 0.1774 -0.1526 0.3079
C5 C 0.1926(3) -0.3139(10) 0.2502(4)
H6 H 0.1556 -0.3087 0.2084
C6 C 0.2321(3) -0.4121(9) 0.2513(4)
H7 H 0.2226 -0.4772 0.2107
C7 C 0.2863(3) -0.4180(9) 0.3111(4)
H8 H 0.3140 -0.4865 0.3113
C8 C 0.3006(2) -0.3268(8) 0.3701(3)
C9 C 0.3599(2) -0.3259(8) 0.4326(3)
H9 H 0.3747 -0.4318 0.4413
H10 H 0.3599 -0.2907 0.4741
C10 C 0.4032(3) -0.0002(11) 0.4553(4)
H11 H 0.4198 0.0787 0.4403
H12 H 0.3646 0.0290 0.4370
C11 C 0.4325(4) -0.0016(11) 0.5317(5)
H13 H 0.4644 -0.0712 0.5491
H14 H 0.4079 -0.0445 0.5460
C12 C 0.3961(3) 0.3065(8) 0.5558(4)
H15 H 0.4043 0.4173 0.5566
H16 H 0.3654 0.2813 0.5089
C13 C 0.3782(3) 0.2753(8) 0.6088(4)
C14 C 0.4060(4) 0.3501(10) 0.6744(5)
H17 H 0.4370 0.4198 0.6861
C15 C 0.3892(5) 0.3246(12) 0.7240(5)
H18 H 0.4083 0.3775 0.7692
C16 C 0.3454(4) 0.2242(10) 0.7074(5)
H19 H 0.3346 0.2053 0.7418
C17 C 0.3164(3) 0.1493(9) 0.6422(4)
H20 H 0.2854 0.0802 0.6310
C18 C 0.3329(3) 0.1757(8) 0.5928(4)
Cu1D Cu 0.50795(3) -0.67428(12) 0.53296(5)
Cu1D_2 Cu 0.50795(3) 0.32572(12) 0.53296(5)
I1D I 0.53651(2) -0.39625(6) 0.60192(3)
S2D S 0.54258(8) -0.1927(2) 0.42640(10)
N1 N 0.3968(7) -0.233(2) 0.6329(10)
C19 C 0.4407(8) -0.078(2) 0.7530(10)
H21 H 0.4279 0.0293 0.7427
H22 H 0.4811 -0.0808 0.7785
H23 H 0.4276 -0.1261 0.7815
C20 C 0.4177(8) -0.169(2) 0.6843(13)
loop_
_geom_bond_atom_site_label_1
_geom_bond_atom_site_label_2
_geom_bond_site_symmetry_1
_geom_bond_site_symmetry_2
Cu1 I1 1_555 1_555
I1 Cu1D 1_555 1_555
S1 Cu1 1_555 1_555
S2 C11 1_555 1_555
O1 C1 1_555 1_555
O2 C2 1_555 1_555
N1 C20 1_555 1_555
C1 H1 1_555 1_555
H2 C1 1_555 1_555
C2 C1 1_555 1_555
H3 C2 1_555 1_555
H4 C2 1_555 1_555
C3 O2 1_555 1_555
C4 C3 1_555 1_555
H5 C4 1_555 1_555
C5 C4 1_555 1_555
H6 C5 1_555 1_555
C6 C5 1_555 1_555
H7 C6 1_555 1_555
C7 C6 1_555 1_555
H8 C7 1_555 1_555
C8 C3 1_555 1_555
C9 S1 1_555 1_555
H9 C9 1_555 1_555
H10 C9 1_555 1_555
C10 S1 1_555 1_555
H11 C10 1_555 1_555
H12 C10 1_555 1_555
C11 C10 1_555 1_555
H13 C11 1_555 1_555
H14 C11 1_555 1_555
C12 S2 1_555 1_555
H15 C12 1_555 1_555
H16 C12 1_555 1_555
C13 C12 1_555 1_555
C14 C13 1_555 1_555
H17 C14 1_555 1_555
C15 C14 1_555 1_555
H18 C15 1_555 1_555
C16 C15 1_555 1_555
H19 C16 1_555 1_555
C17 C16 1_555 1_555
H20 C17 1_555 1_555
C18 O1 1_555 1_555
C19 H21 1_555 1_555
H22 C19 1_555 1_555
H23 C19 1_555 1_555
C20 C19 1_555 1_555
Cu1D I1D 1_555 1_555
Cu1D_2 S2 1_555 1_555
I1D Cu1 1_555 1_555
S2D Cu1 1_555 1_555
C7 C8 1_555 1_555
C8 C9 1_555 1_555
C13 C18 1_555 1_555
C17 C18 1_555 1_555

#END
