
#######################################################################
#
#                 Cambridge Crystallographic Data Centre
#                                CCDC 
#
#######################################################################
#
# If this CIF has been generated from an entry in the Cambridge 
# Structural Database, then it will include bibliographic, chemical, 
# crystal, experimental, refinement or atomic coordinate data resulting 
# from the CCDC's data processing and validation procedures.
#
#######################################################################

data_HUWWEC
_symmetry_cell_setting           monoclinic
_symmetry_space_group_name_H-M   'C 2/c'
_symmetry_Int_Tables_number      15
_space_group_name_Hall           '-C 2yn'
loop_
_symmetry_equiv_pos_site_id
_symmetry_equiv_pos_as_xyz
1 x,y,z
2 -x,y,1/2-z
3 1/2+x,1/2+y,z
4 1/2-x,1/2+y,1/2-z
5 -x,-y,-z
6 x,-y,1/2+z
7 1/2-x,1/2-y,-z
8 1/2+x,1/2-y,1/2+z
_cell_length_a                   24.3088(5)
_cell_length_b                   7.6438(5)
_cell_length_c                   11.7779(5)
_cell_angle_alpha                90
_cell_angle_beta                 111.780(5)
_cell_angle_gamma                90
_cell_volume                     2032.25
loop_
_atom_site_label
_atom_site_type_symbol
_atom_site_fract_x
_atom_site_fract_y
_atom_site_fract_z
C1 C 0.05632(8) 0.3524(2) 0.98045(17)
C2 C 0.09401(9) 0.5061(3) 1.04612(19)
C3 C 0.15933(8) 0.4628(2) 1.08260(17)
C4 C 0.18706(9) 0.3538(3) 1.18241(18)
C5 C 0.24668(9) 0.3138(3) 1.21720(18)
C6 C 0.28002(8) 0.3812(2) 1.15332(17)
C7 C 0.25213(9) 0.4874(3) 1.05236(18)
C8 C 0.19198(9) 0.5277(3) 1.01732(18)
C9 C 0.34471(8) 0.3364(3) 1.19127(18)
C10 C 0.38465(8) 0.3970(2) 1.31776(17)
Co1 Co 0.0000 0.14638(5) 0.7500
Co2 Co 0.0000 0.0000 1.0000
O1 O 0.04387(6) 0.34091(18) 0.86653(12)
O2 O 0.04074(6) 0.24356(17) 1.04310(11)
O3 O 0.04986(6) -0.04882(19) 0.88699(13)
O4 O 0.44135(6) 0.40143(18) 1.33881(11)
O6 O 0.36479(6) 0.43432(19) 1.39694(12)
H1 H 0.0839(11) 0.533(3) 1.112(2)
H2 H 0.0845(10) 0.609(3) 0.998(2)
H3 H 0.0796(15) -0.045(4) 0.942(3)
H4 H 0.0509(13) -0.151(4) 0.853(3)
H5 H 0.1638(10) 0.303(3) 1.227(2)
H6 H 0.2648(10) 0.239(3) 1.282(2)
H7 H 0.2740(11) 0.535(3) 1.005(2)
H8 H 0.1751(10) 0.601(3) 0.956(2)
H9 H 0.3477(11) 0.209(4) 1.192(2)
H10 H 0.3606(10) 0.375(3) 1.135(2)
C1A C -0.05632(8) 0.3524(2) 0.51955(17)
C2A C -0.09401(9) 0.5061(3) 0.45388(19)
C3A C -0.15933(8) 0.4628(2) 0.41740(17)
C4A C -0.18706(9) 0.3538(3) 0.31759(18)
C5A C -0.24668(9) 0.3138(3) 0.28280(18)
C6A C -0.28002(8) 0.3812(2) 0.34668(17)
C7A C -0.25213(9) 0.4874(3) 0.44764(18)
C8A C -0.19198(9) 0.5277(3) 0.48268(18)
C9A C -0.34471(8) 0.3364(3) 0.30873(18)
C10A C -0.38465(8) 0.3970(2) 0.18224(17)
Co1F Co 0.5000 0.35362(5) 1.2500
Co1F_2 Co -0.5000 0.35362(5) 0.2500
Co2C Co 0.5000 0.5000 1.5000
Co2A Co 0.0000 0.0000 0.5000
Co2B Co -0.5000 0.5000 0.0000
O1A O -0.04387(6) 0.34091(18) 0.63347(12)
O2A O -0.04074(6) 0.24356(17) 0.45690(11)
O2D O -0.04074(6) -0.24356(17) 0.95690(11)
O3A O -0.04986(6) -0.04882(19) 0.61301(13)
O3D O -0.04986(6) 0.04882(19) 1.11301(13)
O4A O -0.44135(6) 0.40143(18) 0.16119(11)
O4F O 0.05865(6) 0.09857(18) 0.66119(11)
O4G O -0.05865(6) 0.09857(18) 0.83881(11)
O4C O 0.05865(6) -0.09857(18) 1.16119(11)
O6A O -0.36479(6) 0.43432(19) 0.10306(12)
H1A H -0.0839(11) 0.533(3) 0.388(2)
H2A H -0.0845(10) 0.609(3) 0.502(2)
H3A H -0.0796(15) -0.045(4) 0.558(3)
H3D H -0.0796(15) 0.045(4) 1.058(3)
H4A H -0.0509(13) -0.151(4) 0.647(3)
H4D H -0.0509(13) 0.151(4) 1.147(3)
H5A H -0.1638(10) 0.303(3) 0.273(2)
H6A H -0.2648(10) 0.239(3) 0.218(2)
H7A H -0.2740(11) 0.535(3) 0.495(2)
H8A H -0.1751(10) 0.601(3) 0.544(2)
H9A H -0.3477(11) 0.209(4) 0.308(2)
H10A H -0.3606(10) 0.375(3) 0.365(2)
O5 O 0.06803(10) -0.3266(3) 0.78125(19)
O7? O 0.0195(4) -0.3273(10) 0.7468(7)
loop_
_geom_bond_atom_site_label_1
_geom_bond_atom_site_label_2
_geom_bond_site_symmetry_1
_geom_bond_site_symmetry_2
C1 C2 1_555 1_555
C2 C3 1_555 1_555
C3 C4 1_555 1_555
C4 C5 1_555 1_555
C5 C6 1_555 1_555
C6 C7 1_555 1_555
C7 C8 1_555 1_555
C8 C3 1_555 1_555
C9 C6 1_555 1_555
C10 C9 1_555 1_555
Co1 O1 1_555 1_555
Co2 O2 1_555 1_555
O1 C1 1_555 1_555
O2 C1 1_555 1_555
O3 Co1 1_555 1_555
O4 C10 1_555 1_555
O6 C10 1_555 1_555
H1 C2 1_555 1_555
H2 C2 1_555 1_555
H3 O3 1_555 1_555
H4 O3 1_555 1_555
H5 C4 1_555 1_555
H6 C5 1_555 1_555
H7 C7 1_555 1_555
H8 C8 1_555 1_555
H9 C9 1_555 1_555
H10 C9 1_555 1_555
C1A C2A 1_555 1_555
C2A C3A 1_555 1_555
C3A C4A 1_555 1_555
C4A C5A 1_555 1_555
C5A C6A 1_555 1_555
C6A C7A 1_555 1_555
C7A C8A 1_555 1_555
C8A C3A 1_555 1_555
C9A C6A 1_555 1_555
C10A C9A 1_555 1_555
Co1F O4 1_555 1_555
Co1F_2 O4A 1_555 1_555
Co2C O4 1_555 1_555
Co2A O2A 1_555 1_555
Co2B O4A 1_555 1_555
O1A Co1 1_555 1_555
O2A C1A 1_555 1_555
O2D Co2 1_555 1_555
O3A Co1 1_555 1_555
O3D Co2 1_555 1_555
O4A C10A 1_555 1_555
O4F Co1 1_555 1_555
O4G Co1 1_555 1_555
O4C Co2 1_555 1_555
O6A C10A 1_555 1_555
H1A C2A 1_555 1_555
H2A C2A 1_555 1_555
H3A O3A 1_555 1_555
H3D O3D 1_555 1_555
H4A O3A 1_555 1_555
H4D O3D 1_555 1_555
H5A C4A 1_555 1_555
H6A C5A 1_555 1_555
H7A C7A 1_555 1_555
H8A C8A 1_555 1_555
H9A C9A 1_555 1_555
H10A C9A 1_555 1_555
Co2 O3 1_555 1_555
Co2 O4G 1_555 1_555
C1A O1A 1_555 1_555
Co2A O3A 1_555 1_555
Co2A O4F 1_555 1_555

#END
