
#######################################################################
#
#                 Cambridge Crystallographic Data Centre
#                                CCDC 
#
#######################################################################
#
# If this CIF has been generated from an entry in the Cambridge 
# Structural Database, then it will include bibliographic, chemical, 
# crystal, experimental, refinement or atomic coordinate data resulting 
# from the CCDC's data processing and validation procedures.
#
#######################################################################

data_HUWWAY
_symmetry_cell_setting           triclinic
_symmetry_space_group_name_H-M   'P -1'
_symmetry_Int_Tables_number      2
_space_group_name_Hall           '-P 1'
loop_
_symmetry_equiv_pos_site_id
_symmetry_equiv_pos_as_xyz
1 x,y,z
2 -x,-y,-z
_cell_length_a                   6.7788(4)
_cell_length_b                   8.0678(5)
_cell_length_c                   16.6512(9)
_cell_angle_alpha                102.104(6)
_cell_angle_beta                 92.022(5)
_cell_angle_gamma                93.513(6)
_cell_volume                     887.654
loop_
_atom_site_label
_atom_site_type_symbol
_atom_site_fract_x
_atom_site_fract_y
_atom_site_fract_z
C1 C 0.3562(2) 0.03876(17) 0.84060(8)
C2 C 0.4326(2) 0.02109(17) 0.92313(8)
C3 C 0.6180(2) 0.09498(17) 0.95580(9)
C4 C 0.7574(2) 0.18846(18) 0.90888(8)
C5 C 0.3167(2) -0.07362(17) 0.96728(9)
C6 C 0.3922(2) 0.32572(17) 0.62910(8)
C7 C 0.4529(2) 0.41027(17) 0.56060(8)
C8 C 0.6459(2) 0.48008(17) 0.55816(8)
C9 C 0.8064(2) 0.45389(18) 0.61872(8)
C10 C 0.3086(2) 0.43011(17) 0.50232(9)
Co1 Co 0.24255(3) 0.03494(2) 0.694031(11)
Co2 Co 0.29758(3) 0.40226(2) 0.809518(11)
O1 O 0.41906(14) 0.16269(12) 0.80984(6)
O2 O 0.23237(15) -0.07313(12) 0.80010(6)
O4 O 0.79396(15) 0.34599(12) 0.93532(6)
O6 O 0.83705(15) 0.10037(13) 0.84924(6)
O7 O 0.42393(15) 0.41018(13) 0.70057(6)
O8 O 0.30826(15) 0.17699(12) 0.60895(6)
O9 O 0.81949(15) 0.30713(13) 0.63075(6)
O10 O 0.91889(16) 0.58128(13) 0.65328(7)
O11 O 0.53877(17) 0.55528(15) 0.87008(7)
O12 O 0.18940(17) 0.40057(14) 0.92239(7)
O13 O 0.13103(17) 0.59706(14) 0.79450(7)
O14 O 0.03391(17) -0.11530(15) 0.62001(7)
O15 O 0.05248(15) 0.22637(13) 0.74643(7)
O16 O 0.45756(17) -0.12374(14) 0.65525(7)
H1 H 0.193(3) -0.122(2) 0.9446(11)
H2 H 0.171(3) 0.384(2) 0.5063(11)
H7 H 0.622(4) 0.507(3) 0.8859(14)
H8 H 0.591(3) 0.616(3) 0.8440(14)
H9 H 0.073(4) 0.387(3) 0.9223(14)
H10 H 0.225(3) 0.478(3) 0.9564(15)
H11 H 0.073(3) 0.580(3) 0.7483(15)
H12 H 0.176(3) 0.691(3) 0.8029(14)
H13 H 0.005(3) -0.202(3) 0.6254(14)
H14 H -0.060(3) -0.079(3) 0.5994(14)
H15 H -0.018(3) 0.261(3) 0.7116(15)
H16 H -0.016(3) 0.192(3) 0.7795(15)
H17 H 0.530(3) -0.096(3) 0.6237(15)
H18 H 0.518(4) -0.158(3) 0.6880(16)
C1A C 0.6438(2) -0.03876(17) 1.15940(8)
C2A C 0.5674(2) -0.02109(17) 1.07687(8)
C3A C 0.3820(2) -0.09498(17) 1.04420(9)
C4A C 0.2426(2) -0.18846(18) 1.09112(8)
C5A C 0.6833(2) 0.07362(17) 1.03272(9)
C6A C 0.6078(2) 0.67428(17) 0.37090(8)
C7A C 0.5471(2) 0.58973(17) 0.43940(8)
C8A C 0.3541(2) 0.51992(17) 0.44184(8)
C9A C 0.1936(2) 0.54611(18) 0.38128(8)
C10A C 0.6914(2) 0.56989(17) 0.49768(9)
Co1A Co 0.75745(3) -0.03494(2) 1.305969(11)
Co1A_2 Co 0.75745(3) 0.96506(2) 0.305969(11)
Co2A Co 0.70242(3) -0.40226(2) 1.190482(11)
Co2A_2 Co 0.70242(3) 0.59774(2) 0.190482(11)
O1A O 0.58094(14) -0.16269(12) 1.19016(6)
O2A O 0.76763(15) 0.07313(12) 1.19990(6)
O4A O 0.20604(15) -0.34599(12) 1.06468(6)
O6A O 0.16295(15) -0.10037(13) 1.15076(6)
O7A O 0.57607(15) 0.58982(13) 0.29943(6)
O7A_2 O 0.57607(15) -0.41018(13) 1.29943(6)
O8A O 0.69174(15) 0.82301(12) 0.39105(6)
O8A_2 O 0.69174(15) -0.17699(12) 1.39105(6)
O9A O 0.18051(15) 0.69287(13) 0.36925(6)
O10A O 0.08111(16) 0.41872(13) 0.34672(7)
O11A O 0.46123(17) -0.55528(15) 1.12992(7)
O12A O 0.81060(17) -0.40057(14) 1.07761(7)
O13A O 0.86897(17) -0.59706(14) 1.20550(7)
O14A O 0.96609(17) 0.11530(15) 1.37999(7)
O15A O 0.94752(15) -0.22637(13) 1.25357(7)
O16A O 0.54244(17) 0.12374(14) 1.34475(7)
H1A H 0.807(3) 0.122(2) 1.0554(11)
H2A H 0.829(3) 0.616(2) 0.4937(11)
H7A H 0.378(4) -0.507(3) 1.1141(14)
H8A H 0.409(3) -0.616(3) 1.1560(14)
H9A H 0.927(4) -0.387(3) 1.0777(14)
H10A H 0.775(3) -0.478(3) 1.0436(15)
H11A H 0.927(3) -0.580(3) 1.2517(15)
H12A H 0.824(3) -0.691(3) 1.1971(14)
H13A H 0.995(3) 0.202(3) 1.3746(14)
H14A H 1.060(3) 0.079(3) 1.4006(14)
H15A H 1.018(3) -0.261(3) 1.2884(15)
H16A H 1.016(3) -0.192(3) 1.2205(15)
H17A H 0.470(3) 0.096(3) 1.3763(15)
H18A H 0.482(4) 0.158(3) 1.3120(16)
O3 O -0.28498(16) -0.01380(15) 0.55289(7)
H3 H -0.294(3) -0.050(3) 0.5052(15)
H4 H -0.268(3) 0.085(3) 0.5626(14)
O5 O 0.68850(17) -0.22043(15) 0.77706(7)
H5 H 0.764(4) -0.269(3) 0.7485(15)
H6 H 0.746(3) -0.132(3) 0.8013(15)
loop_
_geom_bond_atom_site_label_1
_geom_bond_atom_site_label_2
_geom_bond_site_symmetry_1
_geom_bond_site_symmetry_2
C1 C2 1_555 1_555
C2 C3 1_555 1_555
C3 C4 1_555 1_555
C4 O4 1_555 1_555
C5 C2 1_555 1_555
C6 C7 1_555 1_555
C7 C8 1_555 1_555
C8 C9 1_555 1_555
C9 O9 1_555 1_555
C10 C7 1_555 1_555
Co1 O1 1_555 1_555
Co2 O1 1_555 1_555
O1 C1 1_555 1_555
O2 C1 1_555 1_555
O3 H3 1_555 1_555
O5 H5 1_555 1_555
O6 C4 1_555 1_555
O7 C6 1_555 1_555
O8 C6 1_555 1_555
O10 C9 1_555 1_555
O11 Co2 1_555 1_555
O12 Co2 1_555 1_555
O13 Co2 1_555 1_555
O14 Co1 1_555 1_555
O15 Co1 1_555 1_555
O16 Co1 1_555 1_555
H1 C5 1_555 1_555
H2 C10 1_555 1_555
H4 O3 1_555 1_555
H6 O5 1_555 1_555
H7 O11 1_555 1_555
H8 O11 1_555 1_555
H9 O12 1_555 1_555
H10 O12 1_555 1_555
H11 O13 1_555 1_555
H12 O13 1_555 1_555
H13 O14 1_555 1_555
H14 O14 1_555 1_555
H15 O15 1_555 1_555
H16 O15 1_555 1_555
H17 O16 1_555 1_555
H18 O16 1_555 1_555
C1A C2A 1_555 1_555
C2A C3A 1_555 1_555
C3A C5 1_555 1_555
C4A C3A 1_555 1_555
C5A C3 1_555 1_555
C6A C7A 1_555 1_555
C7A C8A 1_555 1_555
C8A C10 1_555 1_555
C9A C8A 1_555 1_555
C10A C8 1_555 1_555
Co1A O1A 1_555 1_555
Co1A_2 O8A 1_555 1_555
Co2A O1A 1_555 1_555
Co2A_2 O7A 1_555 1_555
O1A C1A 1_555 1_555
O2A C1A 1_555 1_555
O4A C4A 1_555 1_555
O6A C4A 1_555 1_555
O7A C6A 1_555 1_555
O7A_2 Co2A 1_555 1_555
O8A C6A 1_555 1_555
O8A_2 Co1A 1_555 1_555
O9A C9A 1_555 1_555
O10A C9A 1_555 1_555
O11A Co2A 1_555 1_555
O12A Co2A 1_555 1_555
O13A Co2A 1_555 1_555
O14A Co1A 1_555 1_555
O15A Co1A 1_555 1_555
O16A Co1A 1_555 1_555
H1A C5A 1_555 1_555
H2A C10A 1_555 1_555
H7A O11A 1_555 1_555
H8A O11A 1_555 1_555
H9A O12A 1_555 1_555
H10A O12A 1_555 1_555
H11A O13A 1_555 1_555
H12A O13A 1_555 1_555
H13A O14A 1_555 1_555
H14A O14A 1_555 1_555
H15A O15A 1_555 1_555
H16A O15A 1_555 1_555
H17A O16A 1_555 1_555
H18A O16A 1_555 1_555
Co1 O2 1_555 1_555
Co1 O8 1_555 1_555
Co2 O7 1_555 1_555
Co2 O15 1_555 1_555
C2A C5A 1_555 1_555
C7A C10A 1_555 1_555
Co1A O2A 1_555 1_555
Co2A O15A 1_555 1_555

#END
