
#######################################################################
#
#                 Cambridge Crystallographic Data Centre
#                                CCDC 
#
#######################################################################
#
# If this CIF has been generated from an entry in the Cambridge 
# Structural Database, then it will include bibliographic, chemical, 
# crystal, experimental, refinement or atomic coordinate data resulting 
# from the CCDC's data processing and validation procedures.
#
#######################################################################

data_HUWYED
_symmetry_cell_setting           monoclinic
_symmetry_space_group_name_H-M   'P 21/n'
_symmetry_Int_Tables_number      14
_space_group_name_Hall           '-P 2yn'
loop_
_symmetry_equiv_pos_site_id
_symmetry_equiv_pos_as_xyz
1 x,y,z
2 1/2+x,1/2-y,1/2+z
3 -x,-y,-z
4 1/2-x,1/2+y,1/2-z
_cell_length_a                   23.241(6)
_cell_length_b                   18.081(3)
_cell_length_c                   34.189(7)
_cell_angle_alpha                90
_cell_angle_beta                 102.706(9)
_cell_angle_gamma                90
_cell_volume                     14015.1
loop_
_atom_site_label
_atom_site_type_symbol
_atom_site_fract_x
_atom_site_fract_y
_atom_site_fract_z
Cu1 Cu 0.577385(17) 1.10307(2) 0.350709(11)
Cu2 Cu 0.925108(16) 0.87215(2) 0.636479(11)
Cu3 Cu 0.568907(16) 0.62209(2) 0.361941(10)
Cu4 Cu 0.913340(16) 1.35653(2) 0.641260(10)
S1 S 0.64374(3) 1.19701(4) 0.374034(18)
S2 S 0.60640(3) 1.01077(4) 0.313852(18)
S3 S 0.86052(3) 0.96553(4) 0.608301(18)
S4 S 0.89076(3) 0.79273(4) 0.677778(19)
S5 S 0.63627(3) 0.71486(3) 0.387903(18)
S6 S 0.60193(3) 1.54387(3) 0.319240(18)
S7 S 0.84688(3) 1.44919(4) 0.614450(18)
S8 S 0.87577(3) 1.26306(4) 0.673660(18)
N1 N 0.93842(9) 1.35570(12) 0.58734(6)
C1 C 0.97808(12) 1.31024(15) 0.57820(8)
H1 H 0.9921 1.2719 0.5959
C2 C 1.00012(12) 1.31672(16) 0.54323(8)
H2 H 1.0279 1.2832 0.5381
C3 C 0.98031(12) 1.37264(15) 0.51686(8)
H3 H 0.9941 1.3771 0.4934
C4 C 0.93873(11) 1.42365(15) 0.52553(7)
C5 C 0.91790(12) 1.48549(15) 0.50060(8)
H4 H 0.9308 1.4926 0.4770
C6 C 0.87923(12) 1.53439(15) 0.51114(8)
H5 H 0.8670 1.5755 0.4951
C7 C 0.85762(11) 1.52293(14) 0.54626(8)
H6 H 0.8306 1.5561 0.5528
C8 C 0.87610(11) 1.46344(14) 0.57085(7)
C9 C 0.91807(11) 1.41311(14) 0.56139(7)
C10 C 0.78097(11) 1.39148(15) 0.59238(8)
H7 H 0.7939 1.3467 0.5813
H8 H 0.7612 1.3772 0.6134
C11 C 0.73781(11) 1.43191(14) 0.55989(7)
C12 C 0.69580(11) 1.47930(15) 0.56925(8)
H9 H 0.6936 1.4858 0.5959
C13 C 0.65711(11) 1.51709(15) 0.53918(8)
H10 H 0.6290 1.5485 0.5457
C14 C 0.66020(11) 1.50823(14) 0.49942(8)
H11 H 0.6339 1.5337 0.4795
C15 C 0.70230(11) 1.46147(14) 0.48882(7)
C16 C 0.74039(11) 1.42287(14) 0.51970(7)
H12 H 0.7680 1.3905 0.5132
C17 C 0.70778(11) 1.45378(13) 0.44617(7)
C18 C 0.76296(12) 1.44324(15) 0.43699(8)
H13 H 0.7965 1.4410 0.4576
C19 C 0.76823(12) 1.43612(17) 0.39752(8)
H14 H 0.8053 1.4297 0.3919
C20 C 0.71861(12) 1.43854(16) 0.36652(8)
H15 H 0.7224 1.4338 0.3401
C21 C 0.66306(11) 1.44802(14) 0.37472(7)
C22 C 0.65794(11) 1.45628(13) 0.41448(7)
H16 H 0.6209 1.4635 0.4200
C23 C 0.60900(11) 1.44980(14) 0.34096(7)
H17 H 0.5742 1.4377 0.3510
H18 H 0.6128 1.4138 0.3206
N2 N 0.48721(9) 1.61568(11) 0.32514(6)
C24 C 0.43926(12) 1.64795(15) 0.33207(8)
H19 H 0.4428 1.6764 0.3552
C25 C 0.38330(12) 1.64143(17) 0.30633(9)
H20 H 0.3507 1.6646 0.3126
C26 C 0.37735(12) 1.60073(16) 0.27203(9)
H21 H 0.3408 1.5970 0.2544
C27 C 0.42703(12) 1.56422(15) 0.26340(8)
C28 C 0.42453(13) 1.52070(16) 0.22870(8)
H22 H 0.3888 1.5150 0.2103
C29 C 0.47420(13) 1.48682(15) 0.22187(8)
H23 H 0.4720 1.4586 0.1988
C30 C 0.52855(12) 1.49458(14) 0.24964(7)
H24 H 0.5620 1.4714 0.2447
C31 C 0.53278(11) 1.53570(14) 0.28370(7)
C32 C 0.48192(11) 1.57297(14) 0.29137(7)
C33 C 0.92633(11) 0.91695(14) 0.55431(7)
N3 N 0.55093(9) 0.61504(11) 0.41771(6)
C34 C 0.51233(11) 0.56839(15) 0.42716(8)
H25 H 0.4969 0.5315 0.4089
C35 C 0.49347(12) 0.57170(16) 0.46349(8)
H26 H 0.4663 0.5376 0.4689
C36 C 0.51534(11) 0.62538(15) 0.49071(8)
H27 H 0.5039 0.6276 0.5151
C37 C 0.55577(11) 0.67791(14) 0.48155(7)
C38 C 0.57830(12) 0.73789(15) 0.50739(8)
H28 H 0.5672 0.7430 0.5318
C39 C 0.61601(12) 0.78800(15) 0.49666(8)
H29 H 0.6298 0.8275 0.5135
C40 C 0.63413(11) 0.78000(14) 0.46006(7)
H30 H 0.6605 0.8138 0.4533
C41 C 0.61329(11) 0.72307(14) 0.43428(7)
C42 C 0.57290(11) 0.67079(14) 0.44434(7)
C43 C 0.70330(11) 0.65592(15) 0.40364(8)
H31 H 0.6920 0.6091 0.4136
H32 H 0.7197 0.6457 0.3804
C44 C 0.75007(11) 0.69137(14) 0.43567(8)
C45 C 0.79198(11) 0.73941(15) 0.42608(8)
H33 H 0.7914 0.7502 0.3994
C46 C 0.83456(11) 0.77105(15) 0.45645(8)
H34 H 0.8632 0.8017 0.4499
C47 C 0.83478(11) 0.75738(14) 0.49647(8)
H35 H 0.8635 0.7790 0.5164
C48 C 0.79239(11) 0.71154(14) 0.50710(8)
C49 C 0.75117(11) 0.67741(14) 0.47609(7)
H36 H 0.7239 0.6447 0.4826
C50 C 0.78796(11) 0.70140(14) 0.54970(8)
C51 C 0.73313(11) 0.68925(15) 0.55914(8)
H37 H 0.6996 0.6867 0.5385
C52 C 0.72747(12) 0.68091(17) 0.59833(8)
H38 H 0.6905 0.6729 0.6039
C53 C 0.77723(12) 0.68454(16) 0.62938(8)
H39 H 0.7735 0.6792 0.6558
C54 C 0.83262(11) 0.69611(14) 0.62127(8)
C55 C 0.83777(11) 0.70459(14) 0.58164(8)
H40 H 0.8748 0.7125 0.5762
C56 C 0.88599(11) 0.69927(15) 0.65541(8)
H41 H 0.9213 0.6889 0.6457
H42 H 0.8827 0.6625 0.6755
N4 N 1.00592(9) 0.86559(12) 0.67415(6)
C57 C 1.05433(12) 0.89834(15) 0.66795(8)
H43 H 1.0513 0.9277 0.6453
C58 C 1.10955(12) 0.89068(16) 0.69394(9)
H44 H 1.1424 0.9139 0.6882
C59 C 1.11502(12) 0.84899(15) 0.72778(8)
H45 H 1.1515 0.8443 0.7455
C60 C 1.06475(11) 0.81277(14) 0.73586(7)
C61 C 1.06616(12) 0.76907(15) 0.77050(8)
H46 H 1.1015 0.7632 0.7893
C62 C 1.01640(12) 0.73569(15) 0.77661(8)
H47 H 1.0179 0.7079 0.7997
C63 C 0.96246(12) 0.74298(14) 0.74817(7)
H48 H 0.9289 0.7193 0.7525
C64 C 0.95928(11) 0.78478(14) 0.71414(7)
C65 C 1.01046(11) 0.82170(14) 0.70754(7)
N5 N 0.94541(9) 0.86133(11) 0.58158(6)
C66 C 0.98330(11) 0.81183(15) 0.57331(8)
H49 H 0.9969 0.7749 0.5920
C67 C 1.00387(12) 0.81262(16) 0.53757(9)
H50 H 1.0302 0.7767 0.5329
C68 C 0.98488(12) 0.86664(16) 0.50985(8)
H51 H 0.9978 0.8674 0.4860
C69 C 0.94545(11) 0.92150(15) 0.51760(8)
C70 C 0.92530(12) 0.98087(16) 0.49102(8)
H52 H 0.9377 0.9843 0.4670
C71 C 0.88793(12) 1.03301(16) 0.50021(8)
H53 H 0.8755 1.0720 0.4827
C72 C 0.86804(12) 1.02783(15) 0.53641(8)
H54 H 0.8420 1.0631 0.5423
C73 C 0.88682(11) 0.97127(14) 0.56297(7)
C74 C 0.79405(11) 0.90661(15) 0.59099(8)
H55 H 0.8062 0.8598 0.5815
H56 H 0.7764 0.8963 0.6136
C75 C 0.74823(11) 0.94153(14) 0.55794(8)
C76 C 0.70451(11) 0.98743(15) 0.56647(8)
H57 H 0.7037 0.9977 0.5930
C77 C 0.66215(11) 1.01795(15) 0.53568(8)
H58 H 0.6326 1.0477 0.5416
C78 C 0.66386(11) 1.00409(14) 0.49588(8)
H59 H 0.6351 1.0243 0.4754
C79 C 0.70836(11) 0.96000(14) 0.48636(7)
C80 C 0.74925(11) 0.92801(14) 0.51799(7)
H60 H 0.7780 0.8967 0.5122
C81 C 0.71312(11) 0.94822(14) 0.44395(7)
C82 C 0.76841(11) 0.94350(15) 0.43421(8)
H61 H 0.8023 0.9484 0.4544
C83 C 0.77387(12) 0.93177(16) 0.39513(8)
H62 H 0.8110 0.9296 0.3892
C84 C 0.72370(12) 0.92327(15) 0.36492(8)
H63 H 0.7273 0.9147 0.3387
C85 C 0.66785(11) 0.92755(14) 0.37346(8)
C86 C 0.66282(11) 0.94076(13) 0.41283(7)
H64 H 0.6256 0.9447 0.4185
C87 C 0.61371(11) 0.92114(14) 0.34027(7)
H65 H 0.5792 0.9114 0.3511
H66 H 0.6181 0.8813 0.3222
N6 N 0.49974(9) 1.10513(12) 0.30968(6)
C88 C 0.45674(12) 1.15258(15) 0.31011(8)
H67 H 0.4631 1.1897 0.3294
C89 C 0.40203(12) 1.14988(16) 0.28293(8)
H68 H 0.3730 1.1846 0.2843
C90 C 0.39162(12) 1.09589(16) 0.25441(8)
H69 H 0.3554 1.0935 0.2363
C91 C 0.43617(12) 1.04356(15) 0.25253(8)
C92 C 0.42963(13) 0.98685(16) 0.22342(8)
H70 H 0.3939 0.9815 0.2050
C93 C 0.47512(13) 0.93981(16) 0.22208(8)
H71 H 0.4703 0.9030 0.2026
C94 C 0.52936(12) 0.94665(15) 0.25006(7)
H72 H 0.5602 0.9147 0.2487
C95 C 0.53694(11) 0.99982(14) 0.27917(7)
C96 C 0.49058(11) 1.05031(14) 0.28090(7)
N7 N 0.98694(9) 1.35139(12) 0.68624(6)
C97 C 1.03351(11) 1.39498(15) 0.68903(8)
H73 H 1.0314 1.4336 0.6708
C98 C 1.08608(12) 1.38556(16) 0.71838(8)
H74 H 1.1179 1.4172 0.7191
C99 C 1.08998(12) 1.32988(16) 0.74558(8)
H75 H 1.1244 1.3236 0.7652
C100 C 1.04169(11) 1.28170(15) 0.74401(7)
C101 C 1.04188(12) 1.22335(15) 0.77174(8)
H76 H 1.0753 1.2150 0.7919
C102 C 0.99353(13) 1.17929(15) 0.76911(7)
H77 H 0.9942 1.1411 0.7874
C103 C 0.94293(12) 1.19142(15) 0.73897(7)
H78 H 0.9102 1.1611 0.7376
C104 C 0.94077(11) 1.24702(14) 0.71156(7)
C105 C 0.99015(11) 1.29444(14) 0.71345(7)
C106 C 0.87071(12) 1.17457(15) 0.64611(8)
H79 H 0.9074 1.1661 0.6372
H80 H 0.8635 1.1365 0.6646
N8 N 0.55695(9) 1.10226(12) 0.40591(6)
C107 C 0.51966(12) 1.05614(15) 0.41730(8)
H81 H 0.5051 1.0169 0.4004
C108 C 0.50071(12) 1.06295(16) 0.45339(8)
H82 H 0.4753 1.0281 0.4604
C109 C 0.52014(11) 1.12146(15) 0.47821(8)
H83 H 0.5082 1.1267 0.5023
C110 C 0.55870(11) 1.17404(15) 0.46674(7)
C111 C 0.57814(11) 1.23816(15) 0.48955(8)
H84 H 0.5663 1.2465 0.5134
C112 C 0.61423(12) 1.28804(15) 0.47674(8)
H85 H 0.6257 1.3308 0.4915
C113 C 0.63426(11) 1.27483(14) 0.44116(8)
H86 H 0.6595 1.3085 0.4330
C114 C 0.61681(11) 1.21284(14) 0.41861(7)
C115 C 0.57730(11) 1.16185(14) 0.43027(7)
C116 C 0.71078(11) 1.14070(15) 0.39398(8)
H87 H 0.6990 1.0945 0.4044
H88 H 0.7298 1.1289 0.3722
C117 C 0.75451(11) 1.17938(14) 0.42667(8)
C118 C 0.79805(12) 1.22577(16) 0.41818(8)
H89 H 0.8012 1.2326 0.3918
C119 C 0.83671(12) 1.26167(16) 0.44890(8)
H90 H 0.8659 1.2922 0.4430
C120 C 0.83237(11) 1.25265(15) 0.48847(8)
H91 H 0.8587 1.2769 0.5088
C121 C 0.78877(11) 1.20747(14) 0.49785(8)
C122 C 0.75065(11) 1.17025(14) 0.46657(8)
H92 H 0.7221 1.1387 0.4725
C123 C 0.78030(11) 1.19935(14) 0.53970(8)
C124 C 0.82837(11) 1.19374(14) 0.57266(8)
H93 H 0.8667 1.1978 0.5689
C125 C 0.81888(12) 1.18212(14) 0.61102(8)
C126 C 0.76177(12) 1.17946(15) 0.61724(8)
H94 H 0.7556 1.1726 0.6430
C127 C 0.71396(12) 1.18697(16) 0.58516(8)
H95 H 0.6758 1.1861 0.5893
C128 C 0.72345(11) 1.19587(15) 0.54678(8)
H96 H 0.6912 1.1996 0.5253
S6_2 S 0.60193(3) 0.54387(3) 0.319240(18)
N2_2 N 0.48721(9) 0.61568(11) 0.32514(6)
Cu3_2 Cu 0.568907(16) 1.62209(2) 0.361941(10)
P1 P 0.46978(3) 0.09516(4) 0.88581(2)
F1 F 0.46915(8) 0.02548(10) 0.91480(5)
F2 F 0.47091(7) 0.16450(9) 0.85692(5)
F3 F 0.52207(7) 0.05741(10) 0.86964(5)
F4 F 0.41740(8) 0.13200(11) 0.90207(6)
F5 F 0.51697(8) 0.13487(9) 0.92062(5)
F6 F 0.42223(8) 0.05547(9) 0.85106(5)
P2 P 0.53996(3) 0.15054(4) 0.61231(2)
F7 F 0.52973(7) 0.08785(9) 0.64323(5)
F8 F 0.55005(9) 0.21308(10) 0.58141(6)
F9 F 0.58426(8) 0.09610(10) 0.59642(6)
F10 F 0.49504(7) 0.20377(9) 0.62801(5)
F11 F 0.59382(7) 0.18319(9) 0.64507(5)
F12 F 0.48628(7) 0.11769(9) 0.57903(5)
P3 P 0.04198(4) 0.10761(4) 0.62338(2)
F13 F -0.00950(8) 0.05840(11) 0.63374(6)
F14 F 0.09196(11) 0.15726(13) 0.61201(8)
F15 F 0.08606(8) 0.07926(11) 0.66290(6)
F16 F -0.00327(11) 0.13592(11) 0.58373(5)
F17 F 0.06087(13) 0.03948(12) 0.59961(7)
F18 F 0.02311(8) 0.17532(10) 0.64759(5)
P4 P 0.96475(3) 0.14745(4) 0.88065(2)
F19 F 1.01421(7) 0.11018(9) 0.91538(4)
F20 F 0.91472(7) 0.18431(9) 0.84608(5)
F21 F 0.96411(7) 0.07498(8) 0.85347(5)
F22 F 0.96552(7) 0.22014(9) 0.90778(5)
F23 F 0.91430(7) 0.11220(10) 0.90028(5)
F24 F 1.01514(6) 0.18325(9) 0.86143(4)
C129 C 0.32072(14) 0.19141(18) 0.81405(9)
H97 H 0.2924 0.2306 0.8125
H98 H 0.3586 0.2084 0.8284
H99 H 0.3087 0.1499 0.8278
C130 C 0.32445(13) 0.16916(17) 0.77383(10)
N9 N 0.32673(12) 0.15192(16) 0.74206(9)
C131 C 0.17964(16) 0.20970(19) 0.70251(11)
H100 H 0.1408 0.2228 0.6879
H101 H 0.1995 0.1823 0.6854
H102 H 0.2015 0.2538 0.7115
C132 C 0.17518(13) 0.16431(18) 0.73707(10)
N10 N 0.17194(12) 0.12916(17) 0.76408(9)
C133 C 0.74693(15) 0.01576(19) 0.25961(11)
H103 H 0.7511 0.0232 0.2326
H104 H 0.7129 -0.0144 0.2595
H105 H 0.7815 -0.0085 0.2748
C134 C 0.73975(12) 0.08685(19) 0.27782(9)
N11 N 0.73490(11) 0.14244(16) 0.29199(8)
C135 C 0.63130(19) 0.0996(3) 0.11120(14)
H106 H 0.6096 0.1451 0.1065
H107 H 0.6054 0.0605 0.1154
H108 H 0.6474 0.0882 0.0884
C136 C 0.67889(18) 0.1074(2) 0.14642(13)
N12 N 0.71618(16) 0.11425(18) 0.17374(10)
C137 C 0.35838(19) 0.1587(2) 0.38486(12)
H109 H 0.3421 0.1698 0.4077
H110 H 0.3835 0.1985 0.3804
H111 H 0.3809 0.1138 0.3897
C138 C 0.31069(19) 0.1496(2) 0.34956(13)
N13 N 0.27344(16) 0.1408(2) 0.32187(11)
C139 C 0.18288(14) -0.05465(19) 0.18585(10)
H112 H 0.1753 -0.0636 0.2119
H113 H 0.1985 -0.0987 0.1764
H114 H 0.1468 -0.0411 0.1676
C140 C 0.22525(14) 0.0049(2) 0.18832(9)
N14 N 0.25767(13) 0.05261(19) 0.18985(9)
C141 C 0.25622(15) 0.2461(2) 0.23444(12)
H115 H 0.2404 0.2373 0.2064
H116 H 0.2612 0.1998 0.2485
H117 H 0.2937 0.2703 0.2378
C142 C 0.21611(16) 0.2926(2) 0.25036(11)
N15 N 0.18419(15) 0.3309(2) 0.26307(10)
C143 C 0.17453(15) 0.4602(2) 0.19063(13)
H118 H 0.1579 0.4423 0.1641
H119 H 0.1680 0.5126 0.1916
H120 H 0.1560 0.4357 0.2095
C144 C 0.23758(19) 0.4452(2) 0.20064(11)
N16 N 0.28724(16) 0.4306(2) 0.20881(10)
loop_
_geom_bond_atom_site_label_1
_geom_bond_atom_site_label_2
_geom_bond_site_symmetry_1
_geom_bond_site_symmetry_2
Cu1 S1 1_555 1_555
Cu2 S3 1_555 1_555
Cu3 S5 1_555 1_555
Cu4 S7 1_555 1_555
S1 C114 1_555 1_555
S2 Cu1 1_555 1_555
S3 C73 1_555 1_555
S4 Cu2 1_555 1_555
S5 C41 1_555 1_555
S6 C23 1_555 1_555
S7 C8 1_555 1_555
S8 Cu4 1_555 1_555
P1 F1 1_555 1_555
F2 P1 1_555 1_555
F3 P1 1_555 1_555
F4 P1 1_555 1_555
F5 P1 1_555 1_555
F6 P1 1_555 1_555
P2 F7 1_555 1_555
F8 P2 1_555 1_555
F9 P2 1_555 1_555
F10 P2 1_555 1_555
F11 P2 1_555 1_555
F12 P2 1_555 1_555
P3 F13 1_555 1_555
F14 P3 1_555 1_555
F15 P3 1_555 1_555
F16 P3 1_555 1_555
F17 P3 1_555 1_555
F18 P3 1_555 1_555
P4 F19 1_555 1_555
F20 P4 1_555 1_555
F21 P4 1_555 1_555
F22 P4 1_555 1_555
F23 P4 1_555 1_555
F24 P4 1_555 1_555
N1 Cu4 1_555 1_555
C1 N1 1_555 1_555
H1 C1 1_555 1_555
C2 C1 1_555 1_555
H2 C2 1_555 1_555
C3 C2 1_555 1_555
H3 C3 1_555 1_555
C4 C3 1_555 1_555
C5 C4 1_555 1_555
H4 C5 1_555 1_555
C6 C5 1_555 1_555
H5 C6 1_555 1_555
C7 C6 1_555 1_555
H6 C7 1_555 1_555
C8 C7 1_555 1_555
C9 N1 1_555 1_555
C10 S7 1_555 1_555
H7 C10 1_555 1_555
H8 C10 1_555 1_555
C11 C10 1_555 1_555
C12 C11 1_555 1_555
H9 C12 1_555 1_555
C13 C12 1_555 1_555
H10 C13 1_555 1_555
C14 C13 1_555 1_555
H11 C14 1_555 1_555
C15 C14 1_555 1_555
C16 C11 1_555 1_555
H12 C16 1_555 1_555
C17 C15 1_555 1_555
C18 C17 1_555 1_555
H13 C18 1_555 1_555
C19 C18 1_555 1_555
H14 C19 1_555 1_555
C20 C19 1_555 1_555
H15 C20 1_555 1_555
C21 C20 1_555 1_555
C22 C17 1_555 1_555
H16 C22 1_555 1_555
C23 C21 1_555 1_555
H17 C23 1_555 1_555
H18 C23 1_555 1_555
N2 C24 1_555 1_555
C24 H19 1_555 1_555
C25 C24 1_555 1_555
H20 C25 1_555 1_555
C26 C25 1_555 1_555
H21 C26 1_555 1_555
C27 C26 1_555 1_555
C28 C27 1_555 1_555
H22 C28 1_555 1_555
C29 C28 1_555 1_555
H23 C29 1_555 1_555
C30 C29 1_555 1_555
H24 C30 1_555 1_555
C31 S6 1_555 1_555
C32 N2 1_555 1_555
C33 N5 1_555 1_555
N3 Cu3 1_555 1_555
C34 N3 1_555 1_555
H25 C34 1_555 1_555
C35 C34 1_555 1_555
H26 C35 1_555 1_555
C36 C35 1_555 1_555
H27 C36 1_555 1_555
C37 C36 1_555 1_555
C38 C37 1_555 1_555
H28 C38 1_555 1_555
C39 C38 1_555 1_555
H29 C39 1_555 1_555
C40 C39 1_555 1_555
H30 C40 1_555 1_555
C41 C40 1_555 1_555
C42 N3 1_555 1_555
C43 S5 1_555 1_555
H31 C43 1_555 1_555
H32 C43 1_555 1_555
C44 C43 1_555 1_555
C45 C44 1_555 1_555
H33 C45 1_555 1_555
C46 C45 1_555 1_555
H34 C46 1_555 1_555
C47 C46 1_555 1_555
H35 C47 1_555 1_555
C48 C47 1_555 1_555
C49 C44 1_555 1_555
H36 C49 1_555 1_555
C50 C48 1_555 1_555
C51 C50 1_555 1_555
H37 C51 1_555 1_555
C52 C51 1_555 1_555
H38 C52 1_555 1_555
C53 C52 1_555 1_555
H39 C53 1_555 1_555
C54 C53 1_555 1_555
C55 C50 1_555 1_555
H40 C55 1_555 1_555
C56 S4 1_555 1_555
H41 C56 1_555 1_555
H42 C56 1_555 1_555
N4 Cu2 1_555 1_555
C57 N4 1_555 1_555
H43 C57 1_555 1_555
C58 C57 1_555 1_555
H44 C58 1_555 1_555
C59 C58 1_555 1_555
H45 C59 1_555 1_555
C60 C59 1_555 1_555
C61 C60 1_555 1_555
H46 C61 1_555 1_555
C62 C61 1_555 1_555
H47 C62 1_555 1_555
C63 C62 1_555 1_555
H48 C63 1_555 1_555
C64 S4 1_555 1_555
C65 N4 1_555 1_555
N5 Cu2 1_555 1_555
C66 N5 1_555 1_555
H49 C66 1_555 1_555
C67 C66 1_555 1_555
H50 C67 1_555 1_555
C68 C67 1_555 1_555
H51 C68 1_555 1_555
C69 C33 1_555 1_555
C70 C69 1_555 1_555
H52 C70 1_555 1_555
C71 C70 1_555 1_555
H53 C71 1_555 1_555
C72 C71 1_555 1_555
H54 C72 1_555 1_555
C73 C33 1_555 1_555
C74 S3 1_555 1_555
H55 C74 1_555 1_555
H56 C74 1_555 1_555
C75 C74 1_555 1_555
C76 C75 1_555 1_555
H57 C76 1_555 1_555
C77 C76 1_555 1_555
H58 C77 1_555 1_555
C78 C77 1_555 1_555
H59 C78 1_555 1_555
C79 C78 1_555 1_555
C80 C75 1_555 1_555
H60 C80 1_555 1_555
C81 C79 1_555 1_555
C82 C81 1_555 1_555
H61 C82 1_555 1_555
C83 C82 1_555 1_555
H62 C83 1_555 1_555
C84 C83 1_555 1_555
H63 C84 1_555 1_555
C85 C84 1_555 1_555
C86 C81 1_555 1_555
H64 C86 1_555 1_555
C87 S2 1_555 1_555
H65 C87 1_555 1_555
H66 C87 1_555 1_555
N6 Cu1 1_555 1_555
C88 N6 1_555 1_555
H67 C88 1_555 1_555
C89 C88 1_555 1_555
H68 C89 1_555 1_555
C90 C89 1_555 1_555
H69 C90 1_555 1_555
C91 C90 1_555 1_555
C92 C91 1_555 1_555
H70 C92 1_555 1_555
C93 C92 1_555 1_555
H71 C93 1_555 1_555
C94 C93 1_555 1_555
H72 C94 1_555 1_555
C95 S2 1_555 1_555
C96 N6 1_555 1_555
N7 Cu4 1_555 1_555
C97 N7 1_555 1_555
H73 C97 1_555 1_555
C98 C97 1_555 1_555
H74 C98 1_555 1_555
C99 C98 1_555 1_555
H75 C99 1_555 1_555
C100 C99 1_555 1_555
C101 C100 1_555 1_555
H76 C101 1_555 1_555
C102 C101 1_555 1_555
H77 C102 1_555 1_555
C103 C102 1_555 1_555
H78 C103 1_555 1_555
C104 S8 1_555 1_555
C105 N7 1_555 1_555
C106 S8 1_555 1_555
H79 C106 1_555 1_555
H80 C106 1_555 1_555
N8 Cu1 1_555 1_555
C107 N8 1_555 1_555
H81 C107 1_555 1_555
C108 C107 1_555 1_555
H82 C108 1_555 1_555
C109 C108 1_555 1_555
H83 C109 1_555 1_555
C110 C109 1_555 1_555
C111 C110 1_555 1_555
H84 C111 1_555 1_555
C112 C111 1_555 1_555
H85 C112 1_555 1_555
C113 C112 1_555 1_555
H86 C113 1_555 1_555
C114 C113 1_555 1_555
C115 N8 1_555 1_555
C116 S1 1_555 1_555
H87 C116 1_555 1_555
H88 C116 1_555 1_555
C117 C116 1_555 1_555
C118 C117 1_555 1_555
H89 C118 1_555 1_555
C119 C118 1_555 1_555
H90 C119 1_555 1_555
C120 C119 1_555 1_555
H91 C120 1_555 1_555
C121 C120 1_555 1_555
C122 C117 1_555 1_555
H92 C122 1_555 1_555
C123 C121 1_555 1_555
C124 C123 1_555 1_555
H93 C124 1_555 1_555
C125 C106 1_555 1_555
C126 C125 1_555 1_555
H94 C126 1_555 1_555
C127 C126 1_555 1_555
H95 C127 1_555 1_555
C128 C123 1_555 1_555
H96 C128 1_555 1_555
C129 H97 1_555 1_555
H98 C129 1_555 1_555
H99 C129 1_555 1_555
C130 C129 1_555 1_555
N9 C130 1_555 1_555
C131 H100 1_555 1_555
H101 C131 1_555 1_555
H102 C131 1_555 1_555
C132 C131 1_555 1_555
N10 C132 1_555 1_555
C133 H103 1_555 1_555
H104 C133 1_555 1_555
H105 C133 1_555 1_555
C134 C133 1_555 1_555
N11 C134 1_555 1_555
C135 H106 1_555 1_555
H107 C135 1_555 1_555
H108 C135 1_555 1_555
C136 C135 1_555 1_555
N12 C136 1_555 1_555
C137 H109 1_555 1_555
H110 C137 1_555 1_555
H111 C137 1_555 1_555
C138 C137 1_555 1_555
N13 C138 1_555 1_555
C139 H112 1_555 1_555
H113 C139 1_555 1_555
H114 C139 1_555 1_555
C140 C139 1_555 1_555
N14 C140 1_555 1_555
C141 H115 1_555 1_555
H116 C141 1_555 1_555
H117 C141 1_555 1_555
C142 C141 1_555 1_555
N15 C142 1_555 1_555
C143 H118 1_555 1_555
H119 C143 1_555 1_555
H120 C143 1_555 1_555
C144 C143 1_555 1_555
N16 C144 1_555 1_555
S6_2 Cu3 1_555 1_555
N2_2 Cu3 1_555 1_555
Cu3_2 S6 1_555 1_555
C4 C9 1_555 1_555
C8 C9 1_555 1_555
C15 C16 1_555 1_555
C21 C22 1_555 1_555
N2 Cu3_2 1_555 1_555
C27 C32 1_555 1_555
C30 C31 1_555 1_555
C31 C32 1_555 1_555
C37 C42 1_555 1_555
C41 C42 1_555 1_555
C48 C49 1_555 1_555
C54 C56 1_555 1_555
C54 C55 1_555 1_555
C60 C65 1_555 1_555
C63 C64 1_555 1_555
C64 C65 1_555 1_555
C68 C69 1_555 1_555
C72 C73 1_555 1_555
C79 C80 1_555 1_555
C85 C87 1_555 1_555
C85 C86 1_555 1_555
C91 C96 1_555 1_555
C94 C95 1_555 1_555
C95 C96 1_555 1_555
C100 C105 1_555 1_555
C103 C104 1_555 1_555
C104 C105 1_555 1_555
C110 C115 1_555 1_555
C114 C115 1_555 1_555
C121 C122 1_555 1_555
C124 C125 1_555 1_555
C127 C128 1_555 1_555

#END
