
#######################################################################
#
#                 Cambridge Crystallographic Data Centre
#                                CCDC 
#
#######################################################################
#
# If this CIF has been generated from an entry in the Cambridge 
# Structural Database, then it will include bibliographic, chemical, 
# crystal, experimental, refinement or atomic coordinate data resulting 
# from the CCDC's data processing and validation procedures.
#
#######################################################################

data_HUXDOU
_symmetry_cell_setting           triclinic
_symmetry_space_group_name_H-M   'P -1'
_symmetry_Int_Tables_number      2
_space_group_name_Hall           '-P 1'
loop_
_symmetry_equiv_pos_site_id
_symmetry_equiv_pos_as_xyz
1 x,y,z
2 -x,-y,-z
_cell_length_a                   8.161(2)
_cell_length_b                   10.797(2)
_cell_length_c                   15.335(3)
_cell_angle_alpha                105.34(3)
_cell_angle_beta                 93.90(3)
_cell_angle_gamma                107.15(3)
_cell_volume                     1229.42
loop_
_atom_site_label
_atom_site_type_symbol
_atom_site_fract_x
_atom_site_fract_y
_atom_site_fract_z
Cu1 Cu 0.70813(5) 0.03846(4) 0.31067(2)
Cu2 Cu 1.12254(4) 0.12006(4) 0.27155(2)
P1 P 0.86510(10) -0.18262(8) 0.21823(5)
O1 O 0.8952(3) 0.1422(2) 0.25948(14)
O2 O 0.7674(3) 0.2771(2) 0.20136(14)
O3 O 0.8612(3) -0.3034(2) 0.25984(15)
H1 H 0.8482 -0.2870 0.3071
O4 O 1.0402(3) -0.0727(2) 0.25500(14)
O5 O 0.7124(3) -0.1354(2) 0.2409(2)
O6 O 0.5858(3) -0.0462(2) 0.3982(2)
H2 H 0.4929 -0.0711 0.3933
H3 H 0.6161 -0.1002 0.4032
O7 O 0.4941(3) -0.0074(2) 0.1855(2)
O8 O 0.3579(3) 0.1021(2) 0.27603(15)
O9 O 1.2113(3) 0.1699(3) 0.4299(2)
O10 O 1.2172(4) 0.2143(3) 0.5754(2)
O11 O 0.9720(4) 0.1370(5) 0.4823(2)
N1 N 0.7152(3) 0.2222(3) 0.3813(2)
N2 N 1.2021(3) 0.3104(3) 0.2698(2)
N3 N 1.1314(4) 0.1727(3) 0.4948(2)
C1 C 1.3644(4) 0.3809(3) 0.2641(2)
H4 H 1.4523 0.3434 0.2692
C2 C 1.4052(4) 0.5076(3) 0.2509(2)
H5 H 1.5188 0.5553 0.2477
C3 C 1.2720(5) 0.5625(3) 0.2425(2)
H6 H 1.2952 0.6472 0.2330
C4 C 1.1054(4) 0.4892(3) 0.2484(2)
H7 H 1.0151 0.5241 0.2429
C5 C 1.0734(4) 0.3635(3) 0.2626(2)
C6 C 0.8935(4) 0.2732(3) 0.2683(2)
C7 C 0.8213(4) 0.3243(3) 0.3566(2)
C8 C 0.8449(4) 0.4583(3) 0.4021(2)
H8 H 0.9197 0.5280 0.3849
C9 C 0.7535(5) 0.4865(4) 0.4746(2)
H9 H 0.7678 0.5760 0.5069
C10 C 0.6424(4) 0.3815(4) 0.4981(2)
H10 H 0.5784 0.3987 0.5451
C11 C 0.6279(4) 0.2505(3) 0.4506(2)
H11 H 0.5550 0.1793 0.4672
C12 C 0.8430(4) -0.2606(3) 0.0966(2)
C13 C 0.8528(4) -0.1519(3) 0.0485(2)
H12 H 0.8341 -0.1929 -0.0166
H13 H 0.9652 -0.0837 0.0673
H14 H 0.7651 -0.1110 0.0646
C14 C 0.9889(5) -0.3217(4) 0.0763(2)
H15 H 0.9796 -0.3596 0.0113
H16 H 0.9790 -0.3917 0.1052
H17 H 1.0994 -0.2519 0.0996
C15 C 0.6667(5) -0.3721(4) 0.0636(2)
H18 H 0.5761 -0.3334 0.0771
H19 H 0.6599 -0.4399 0.0943
H20 H 0.6533 -0.4130 -0.0013
C16 C 0.7731(5) 0.2057(4) 0.1082(2)
H21 H 0.7425 0.1090 0.1000
H22 H 0.8890 0.2378 0.0936
C17 C 0.6450(5) 0.2332(4) 0.0471(2)
H23 H 0.5331 0.2091 0.0660
H24 H 0.6372 0.1802 -0.0151
H25 H 0.6829 0.3279 0.0513
N4 N 0.3791(3) 0.0453(3) 0.1941(2)
O12 O 0.2834(3) 0.0460(2) 0.1282(2)
Cu2_2 Cu 0.12254(4) 0.12006(4) 0.27155(2)
O8_2 O 1.3579(3) 0.1021(2) 0.27603(15)
O13 O 0.2471(3) -0.1415(2) 0.3752(2)
H26 H 0.2022 -0.1372 0.4166
H27 H 0.2091 -0.1093 0.3448
loop_
_geom_bond_atom_site_label_1
_geom_bond_atom_site_label_2
_geom_bond_site_symmetry_1
_geom_bond_site_symmetry_2
Cu1 O1 1_555 1_555
Cu2 O1 1_555 1_555
P1 O3 1_555 1_555
O1 C6 1_555 1_555
O2 C6 1_555 1_555
O3 H1 1_555 1_555
O4 Cu2 1_555 1_555
O5 Cu1 1_555 1_555
O6 Cu1 1_555 1_555
H2 O6 1_555 1_555
H3 O6 1_555 1_555
O7 Cu1 1_555 1_555
O8 N4 1_555 1_555
O9 Cu2 1_555 1_555
O10 N3 1_555 1_555
O11 N3 1_555 1_555
N1 Cu1 1_555 1_555
N2 Cu2 1_555 1_555
N3 O9 1_555 1_555
C1 N2 1_555 1_555
H4 C1 1_555 1_555
C2 C1 1_555 1_555
H5 C2 1_555 1_555
C3 C2 1_555 1_555
H6 C3 1_555 1_555
C4 C3 1_555 1_555
H7 C4 1_555 1_555
C5 N2 1_555 1_555
C6 C5 1_555 1_555
C7 N1 1_555 1_555
C8 C7 1_555 1_555
H8 C8 1_555 1_555
C9 C8 1_555 1_555
H9 C9 1_555 1_555
C10 C9 1_555 1_555
H10 C10 1_555 1_555
C11 N1 1_555 1_555
H11 C11 1_555 1_555
C12 P1 1_555 1_555
C13 C12 1_555 1_555
H12 C13 1_555 1_555
H13 C13 1_555 1_555
H14 C13 1_555 1_555
C14 C12 1_555 1_555
H15 C14 1_555 1_555
H16 C14 1_555 1_555
H17 C14 1_555 1_555
C15 C12 1_555 1_555
H18 C15 1_555 1_555
H19 C15 1_555 1_555
H20 C15 1_555 1_555
C16 O2 1_555 1_555
H21 C16 1_555 1_555
H22 C16 1_555 1_555
C17 C16 1_555 1_555
H23 C17 1_555 1_555
H24 C17 1_555 1_555
H25 C17 1_555 1_555
N4 O7 1_555 1_555
O12 N4 1_555 1_555
O13 H26 1_555 1_555
H27 O13 1_555 1_555
Cu2_2 O8 1_555 1_555
O8_2 Cu2 1_555 1_555
P1 O4 1_555 1_555
P1 O5 1_555 1_555
C4 C5 1_555 1_555
C6 C7 1_555 1_555
C10 C11 1_555 1_555

#END
