
#######################################################################
#
#                 Cambridge Crystallographic Data Centre
#                                CCDC 
#
#######################################################################
#
# If this CIF has been generated from an entry in the Cambridge 
# Structural Database, then it will include bibliographic, chemical, 
# crystal, experimental, refinement or atomic coordinate data resulting 
# from the CCDC's data processing and validation procedures.
#
#######################################################################

data_HUXDOT
_symmetry_cell_setting           orthorhombic
_symmetry_space_group_name_H-M   'P b c 21'
_symmetry_Int_Tables_number      29
_space_group_name_Hall           'P 2c -2b'
loop_
_symmetry_equiv_pos_site_id
_symmetry_equiv_pos_as_xyz
1 x,y,z
2 -x,-y,1/2+z
3 -x,1/2+y,z
4 x,1/2-y,1/2+z
_cell_length_a                   7.7880(13)
_cell_length_b                   14.259(2)
_cell_length_c                   36.544(6)
_cell_angle_alpha                90
_cell_angle_beta                 90
_cell_angle_gamma                90
_cell_volume                     4058.18
loop_
_atom_site_label
_atom_site_type_symbol
_atom_site_fract_x
_atom_site_fract_y
_atom_site_fract_z
Ag1 Ag 0.58710(19) 0.39392(8) 0.55853(4)
Ag2 Ag 0.92016(19) 0.11557(9) 0.64808(4)
Ag3 Ag 0.8786(3) 0.24363(11) 0.36938(6)
Ag4 Ag 0.4518(3) 0.68627(11) 0.31906(5)
N1 N 0.959(2) 0.0907(11) 0.8051(4)
N2 N 0.892(2) 0.1653(12) 0.8060(4)
N3 N 0.7754(16) 0.2953(9) 0.5971(4)
N4 N 0.7291(15) 0.2111(7) 0.6048(3)
N5 N 0.572(2) 0.3818(14) 0.4074(5)
N6 N 0.607(2) 0.3415(13) 0.3771(5)
N7 N 1.0992(18) -0.0842(10) 0.8708(4)
N8 N 1.033(2) 0.1060(11) 0.8677(5)
N9 N 0.854(2) 0.1808(11) 0.7038(4)
N10 N 0.744(2) 0.2711(10) 0.7685(4)
N11 N 1.0743(17) 0.4648(10) 0.6363(4)
N12 N 1.0321(18) 0.2665(9) 0.6303(4)
N13 N 0.4269(17) 0.0465(8) 0.5664(3)
N14 N 0.4781(19) 0.2471(11) 0.5697(5)
N15 N 0.668(2) 0.3274(14) 0.5017(4)
N16 N 0.792(2) 0.2798(11) 0.4330(4)
N17 N 0.423(2) 0.5291(11) 0.3203(5)
N18 N 0.473(2) 0.3416(11) 0.3198(5)
C1 C 1.004(3) 0.0562(16) 0.8400(6)
C2 C 1.038(2) -0.0474(15) 0.8415(6)
H1 H 1.0142 -0.0848 0.8212
C3 C 1.131(2) -0.0282(15) 0.9015(5)
H2 H 1.1756 -0.0524 0.9232
C4 C 1.093(3) 0.0654(15) 0.8972(6)
H3 H 1.1108 0.1038 0.9174
C5 C 0.842(2) 0.1939(13) 0.7689(5)
C6 C 0.900(3) 0.1499(15) 0.7407(6)
H4 H 0.9713 0.0982 0.7438
C7 C 0.744(3) 0.2552(13) 0.7032(5)
H5 H 0.6974 0.2741 0.6810
C8 C 0.699(3) 0.3037(18) 0.7349(6)
H6 H 0.6379 0.3594 0.7330
C9 C 0.9264(18) 0.3275(10) 0.6167(4)
C10 C 0.9494(18) 0.4242(10) 0.6170(5)
H7 H 0.8756 0.4617 0.6034
C11 C 1.197(3) 0.3999(12) 0.6513(6)
H8 H 1.2935 0.4222 0.6635
C12 C 1.173(2) 0.3090(12) 0.6477(6)
H9 H 1.2562 0.2696 0.6575
C13 C 0.5832(19) 0.1825(10) 0.5867(4)
C14 C 0.553(2) 0.0886(13) 0.5849(5)
H10 H 0.6268 0.0500 0.5980
C15 C 0.321(2) 0.1074(12) 0.5511(5)
H11 H 0.2233 0.0848 0.5394
C16 C 0.349(2) 0.2062(12) 0.5518(5)
H12 H 0.2731 0.2443 0.5390
C17 C 0.665(3) 0.3419(14) 0.4361(5)
C18 C 0.603(2) 0.3667(12) 0.4725(4)
H13 H 0.5160 0.4111 0.4750
C19 C 0.788(3) 0.2728(14) 0.4976(6)
H14 H 0.8353 0.2472 0.5187
C20 C 0.860(3) 0.2453(14) 0.4642(5)
H15 H 0.9534 0.2045 0.4636
C21 C 0.528(3) 0.3922(13) 0.3452(5)
C22 C 0.506(3) 0.4875(15) 0.3493(5)
H16 H 0.5445 0.5206 0.3697
C23 C 0.381(2) 0.4786(13) 0.2911(5)
H17 H 0.3376 0.5085 0.2704
C24 C 0.402(3) 0.3740(15) 0.2909(6)
H18 H 0.3672 0.3363 0.2715
N13B N 0.5731(17) 0.5465(8) 0.5664(3)
Ag1B Ag 0.41290(19) -0.10608(8) 0.55853(4)
Ag2B Ag 1.07984(19) 0.61557(9) 0.64808(4)
Ag4B Ag 0.5482(3) 0.18627(11) 0.31906(5)
N11B N 0.9257(17) -0.0352(10) 0.6363(4)
N2C N 0.892(2) 0.3347(12) 0.3060(4)
N8C N 1.033(2) 0.3940(11) 0.3677(5)
N7A N 0.9008(18) 0.0842(10) 0.3708(4)
N10A N 0.256(2) 0.7289(10) 0.2685(4)
N18B N 0.527(2) 0.8416(11) 0.3198(5)
Ag3C Ag 0.8786(3) 0.25637(11) 0.86938(6)
Ag3A Ag 1.1214(3) -0.24363(11) 0.86938(6)
Ag4A Ag 0.5482(3) 0.31373(11) 0.81906(5)
O1 O -0.033(2) 0.4354(16) 0.5222(7)
O2 O 0.235(3) 0.4213(13) 0.5453(5)
O3 O 0.195(4) 0.4909(18) 0.4894(5)
O4 O 0.108(2) 0.5646(9) 0.5414(5)
Cl1 Cl 0.1300(7) 0.4780(5) 0.52317(18)
O5 O 0.2655(19) 0.0898(9) 0.6468(4)
O6 O 0.3962(19) -0.0489(8) 0.6603(4)
O7 O 0.5238(17) 0.0876(12) 0.6756(5)
O8 O 0.279(2) 0.0409(13) 0.7061(4)
Cl2 Cl 0.3650(6) 0.0432(4) 0.67344(14)
O9 O 0.9516(18) 0.8922(14) 0.7443(5)
O10 O 0.790(2) 0.8342(13) 0.7898(4)
O11 O 0.674(3) 0.9384(13) 0.7486(6)
O12 O 0.736(3) 0.7895(12) 0.7314(5)
Cl3 Cl 0.7855(7) 0.8650(4) 0.75405(17)
O13 O 0.248(4) 0.199(3) 0.3918(9)
O14 O 0.237(3) 0.0730(14) 0.4291(8)
O15 O 0.4943(18) 0.1430(17) 0.4160(7)
O16 O 0.298(5) 0.217(2) 0.4524(9)
Cl4 Cl 0.3233(9) 0.1565(5) 0.4233(3)
loop_
_geom_bond_atom_site_label_1
_geom_bond_atom_site_label_2
_geom_bond_site_symmetry_1
_geom_bond_site_symmetry_2
Ag1 N3 1_555 1_555
Ag2 N4 1_555 1_555
Ag3 N6 1_555 1_555
Ag4 N17 1_555 1_555
N1 N2 1_555 1_555
N2 C5 1_555 1_555
N3 N4 1_555 1_555
N4 C13 1_555 1_555
N5 N6 1_555 1_555
N6 C21 1_555 1_555
N7 C2 1_555 1_555
N8 C1 1_555 1_555
N9 Ag2 1_555 1_555
N10 C5 1_555 1_555
N11 C10 1_555 1_555
N12 Ag2 1_555 1_555
N13 C14 1_555 1_555
N14 Ag1 1_555 1_555
N15 Ag1 1_555 1_555
N16 Ag3 1_555 1_555
N17 C22 1_555 1_555
N18 C21 1_555 1_555
C1 N1 1_555 1_555
C2 C1 1_555 1_555
H1 C2 1_555 1_555
C3 N7 1_555 1_555
H2 C3 1_555 1_555
C4 N8 1_555 1_555
H3 C4 1_555 1_555
C5 C6 1_555 1_555
C6 N9 1_555 1_555
H4 C6 1_555 1_555
C7 N9 1_555 1_555
H5 C7 1_555 1_555
C8 N10 1_555 1_555
H6 C8 1_555 1_555
C9 N3 1_555 1_555
C10 C9 1_555 1_555
H7 C10 1_555 1_555
C11 N11 1_555 1_555
H8 C11 1_555 1_555
C12 N12 1_555 1_555
H9 C12 1_555 1_555
C13 N14 1_555 1_555
C14 C13 1_555 1_555
H10 C14 1_555 1_555
C15 N13 1_555 1_555
H11 C15 1_555 1_555
C16 N14 1_555 1_555
H12 C16 1_555 1_555
C17 N5 1_555 1_555
C18 N15 1_555 1_555
H13 C18 1_555 1_555
C19 N15 1_555 1_555
H14 C19 1_555 1_555
C20 N16 1_555 1_555
H15 C20 1_555 1_555
C21 C22 1_555 1_555
C22 H16 1_555 1_555
C23 N17 1_555 1_555
H17 C23 1_555 1_555
C24 N18 1_555 1_555
H18 C24 1_555 1_555
O1 Cl1 1_555 1_555
O2 Cl1 1_555 1_555
O3 Cl1 1_555 1_555
O4 Cl1 1_555 1_555
O5 Cl2 1_555 1_555
O6 Cl2 1_555 1_555
O7 Cl2 1_555 1_555
O8 Cl2 1_555 1_555
O9 Cl3 1_555 1_555
O10 Cl3 1_555 1_555
O11 Cl3 1_555 1_555
O12 Cl3 1_555 1_555
O13 Cl4 1_555 1_555
O14 Cl4 1_555 1_555
O15 Cl4 1_555 1_555
O16 Cl4 1_555 1_555
N13B Ag1 1_555 1_555
Ag1B N13 1_555 1_555
Ag2B N11 1_555 1_555
Ag4B N18 1_555 1_555
N11B Ag2 1_555 1_555
N2C Ag3 1_555 1_555
N8C Ag3 1_555 1_555
N7A Ag3 1_555 1_555
N10A Ag4 1_555 1_555
N18B Ag4 1_555 1_555
Ag3C N2 1_555 1_555
Ag3A N7 1_555 1_555
Ag4A N10 1_555 1_555
N8 Ag3C 1_555 1_555
N12 C9 1_555 1_555
N16 C17 1_555 1_555
C3 C4 1_555 1_555
C7 C8 1_555 1_555
C11 C12 1_555 1_555
C15 C16 1_555 1_555
C17 C18 1_555 1_555
C19 C20 1_555 1_555
C23 C24 1_555 1_555

#END
