
#######################################################################
#
#                 Cambridge Crystallographic Data Centre
#                                CCDC 
#
#######################################################################
#
# If this CIF has been generated from an entry in the Cambridge 
# Structural Database, then it will include bibliographic, chemical, 
# crystal, experimental, refinement or atomic coordinate data resulting 
# from the CCDC's data processing and validation procedures.
#
#######################################################################

data_HUXDAF
_symmetry_cell_setting           monoclinic
_symmetry_space_group_name_H-M   'P 21/c'
_symmetry_Int_Tables_number      14
_space_group_name_Hall           '-P 2ybc'
loop_
_symmetry_equiv_pos_site_id
_symmetry_equiv_pos_as_xyz
1 x,y,z
2 x,1/2-y,1/2+z
3 -x,-y,-z
4 -x,1/2+y,1/2-z
_cell_length_a                   11.8840(10)
_cell_length_b                   9.5010(10)
_cell_length_c                   19.445(2)
_cell_angle_alpha                90
_cell_angle_beta                 105.11(2)
_cell_angle_gamma                90
_cell_volume                     2119.63
loop_
_atom_site_label
_atom_site_type_symbol
_atom_site_fract_x
_atom_site_fract_y
_atom_site_fract_z
Ag1 Ag 0.120844(19) 0.15829(2) 0.119706(10)
N1 N 0.08731(19) 0.1420(2) -0.05044(11)
N2 N 0.15365(19) 0.1017(2) 0.00700(11)
C1 C 0.0011(2) 0.2410(3) -0.04164(13)
N3 N -0.02504(19) 0.2528(2) 0.02060(11)
C2 C -0.1091(3) 0.3455(3) 0.02231(15)
H1 H -0.1312 0.3574 0.0644
C3 C -0.1640(3) 0.4242(3) -0.03688(16)
H2 H -0.2220 0.4872 -0.0331
N4 N -0.1372(2) 0.4130(3) -0.09889(13)
C4 C -0.0530(3) 0.3204(3) -0.10014(14)
H3 H -0.0302 0.3092 -0.1421
C5 C 0.2424(2) 0.0054(3) -0.00070(14)
N5 N 0.2942(2) -0.0605(3) 0.05969(12)
C6 C 0.3779(3) -0.1507(3) 0.05517(17)
H4 H 0.4170 -0.2000 0.0957
C7 C 0.4084(3) -0.1731(3) -0.00798(18)
H5 H 0.4661 -0.2389 -0.0086
N6 N 0.3586(2) -0.1045(3) -0.06783(13)
C8 C 0.2751(2) -0.0143(3) -0.06339(14)
H6 H 0.2376 0.0370 -0.1036
N7 N 0.10138(19) 0.3364(2) 0.21241(11)
N8 N 0.18884(19) 0.3993(2) 0.24905(11)
C9 C -0.0025(2) 0.3607(3) 0.23492(13)
N9 N -0.09138(18) 0.2788(2) 0.20245(11)
C10 C -0.1904(2) 0.2982(3) 0.22118(15)
H7 H -0.2548 0.2430 0.2001
C11 C -0.2006(2) 0.3985(3) 0.27138(14)
H8 H -0.2713 0.4082 0.2830
N10 N -0.11145(18) 0.4809(2) 0.30313(11)
C12 C -0.0118(2) 0.4622(3) 0.28435(13)
H9 H 0.0523 0.5182 0.3048
C13 C 0.2921(2) 0.3784(3) 0.22569(14)
N11 N 0.29148(19) 0.2972(2) 0.16966(12)
C14 C 0.3904(3) 0.2925(4) 0.15024(16)
H10 H 0.3947 0.2376 0.1114
C15 C 0.4869(3) 0.3673(4) 0.18629(19)
H11 H 0.5531 0.3646 0.1693
N12 N 0.4903(2) 0.4431(4) 0.24421(15)
C16 C 0.3906(3) 0.4473(3) 0.26358(16)
H12 H 0.3876 0.4983 0.3039
N10C N 0.11145(18) -0.0191(2) 0.19687(11)
Ag1C Ag -0.120844(19) 0.65829(2) 0.380294(10)
Cl1 Cl -0.30321(7) -0.39108(8) 0.09841(4)
O1 O -0.3173(2) -0.3241(2) 0.03083(12)
O2 O -0.1832(2) -0.3829(3) 0.13750(15)
O3 O -0.3315(2) -0.5361(2) 0.08708(13)
O4 O -0.3741(3) -0.3272(3) 0.13631(16)
loop_
_geom_bond_atom_site_label_1
_geom_bond_atom_site_label_2
_geom_bond_site_symmetry_1
_geom_bond_site_symmetry_2
Ag1 N2 1_555 1_555
N1 N2 1_555 1_555
N2 C5 1_555 1_555
C1 N1 1_555 1_555
N3 Ag1 1_555 1_555
C2 N3 1_555 1_555
H1 C2 1_555 1_555
C3 C2 1_555 1_555
H2 C3 1_555 1_555
N4 C3 1_555 1_555
C4 C1 1_555 1_555
H3 C4 1_555 1_555
C5 N5 1_555 1_555
N5 C6 1_555 1_555
C6 H4 1_555 1_555
C7 C6 1_555 1_555
H5 C7 1_555 1_555
N6 C7 1_555 1_555
C8 C5 1_555 1_555
H6 C8 1_555 1_555
N7 Ag1 1_555 1_555
N8 N7 1_555 1_555
C9 N7 1_555 1_555
N9 C9 1_555 1_555
C10 N9 1_555 1_555
H7 C10 1_555 1_555
C11 C10 1_555 1_555
H8 C11 1_555 1_555
N10 C11 1_555 1_555
C12 C9 1_555 1_555
H9 C12 1_555 1_555
C13 N8 1_555 1_555
N11 Ag1 1_555 1_555
C14 N11 1_555 1_555
H10 C14 1_555 1_555
C15 C14 1_555 1_555
H11 C15 1_555 1_555
N12 C15 1_555 1_555
C16 C13 1_555 1_555
H12 C16 1_555 1_555
Cl1 O1 1_555 1_555
O2 Cl1 1_555 1_555
O3 Cl1 1_555 1_555
O4 Cl1 1_555 1_555
N10C Ag1 1_555 1_555
Ag1C N10 1_555 1_555
C1 N3 1_555 1_555
N4 C4 1_555 1_555
N6 C8 1_555 1_555
N10 C12 1_555 1_555
C13 N11 1_555 1_555
N12 C16 1_555 1_555

#END
