
#######################################################################
#
#                 Cambridge Crystallographic Data Centre
#                                CCDC 
#
#######################################################################
#
# If this CIF has been generated from an entry in the Cambridge 
# Structural Database, then it will include bibliographic, chemical, 
# crystal, experimental, refinement or atomic coordinate data resulting 
# from the CCDC's data processing and validation procedures.
#
#######################################################################

data_HUXGOW
_symmetry_cell_setting           triclinic
_symmetry_space_group_name_H-M   'P -1'
_symmetry_Int_Tables_number      2
_space_group_name_Hall           '-P 1'
loop_
_symmetry_equiv_pos_site_id
_symmetry_equiv_pos_as_xyz
1 x,y,z
2 -x,-y,-z
_cell_length_a                   6.2379(9)
_cell_length_b                   8.8896(12)
_cell_length_c                   11.0494(15)
_cell_angle_alpha                102.296(2)
_cell_angle_beta                 104.790(2)
_cell_angle_gamma                104.353(2)
_cell_volume                     548.398
loop_
_atom_site_label
_atom_site_type_symbol
_atom_site_fract_x
_atom_site_fract_y
_atom_site_fract_z
Cu1 Cu 0.5000 0.0000 0.5000
Cu2 Cu 0.97614(7) -0.29506(5) 0.67831(4)
P1 P 0.51177(15) -0.23166(11) 0.66591(9)
P2 P 0.92919(15) 0.05995(11) 0.73117(9)
O1 O 0.4595(4) -0.2230(3) 0.5244(3)
O2 O 0.8449(5) -0.2947(3) 0.4586(3)
H1 H 0.9456 -0.2168 0.4415
H2 H 0.7068 -0.2834 0.4614
O3 O 0.6706(4) -0.3338(3) 0.6970(3)
O4 O 0.9158(5) -0.5292(3) 0.6502(3)
H3 H 0.7658 -0.5889 0.6016
H4 H 1.0271 -0.5682 0.6304
O5 O 0.2938(4) -0.2947(3) 0.7017(3)
O6 O 0.8368(4) 0.0626(3) 0.5892(3)
O7 O 1.0682(4) -0.0606(3) 0.7409(3)
O8 O 1.0678(5) 0.2236(3) 0.8274(3)
O9 O 0.5124(5) 0.0723(3) 0.7296(3)
H5 H 0.369(4) 0.039(5) 0.735(5)
C1 C 0.6618(6) -0.0222(4) 0.7696(4)
C2 C 0.7091(7) -0.0133(5) 0.9125(4)
H8 H 0.5643 -0.0580 0.9269
H9 H 0.7809 0.0981 0.9652
H10 H 0.8121 -0.0742 0.9360
P1A P 0.48823(15) 0.23166(11) 0.33409(9)
P2A P 0.07081(15) -0.05995(11) 0.26883(9)
O1A O 0.5405(4) 0.2230(3) 0.4756(3)
O3A O 0.3294(4) 0.3338(3) 0.3030(3)
O5A O 0.7062(4) 0.2947(3) 0.2983(3)
O6A O 0.1632(4) -0.0626(3) 0.4108(3)
O7A O -0.0682(4) 0.0606(3) 0.2591(3)
O8A O -0.0678(5) -0.2236(3) 0.1726(3)
O9A O 0.4876(5) -0.0723(3) 0.2704(3)
H5A H 0.631(4) -0.039(5) 0.265(5)
C1A C 0.3382(6) 0.0222(4) 0.2304(4)
C2A C 0.2909(7) 0.0133(5) 0.0875(4)
H8A H 0.4357 0.0580 0.0731
H9A H 0.2191 -0.0981 0.0348
H10A H 0.1879 0.0742 0.0640
Cu2A Cu 0.02386(7) 0.29506(5) 0.32169(4)
O2A O 0.1551(5) 0.2947(3) 0.5414(3)
H1A H 0.0544 0.2168 0.5585
H2A H 0.2932 0.2834 0.5386
O4A O 0.0842(5) 0.5292(3) 0.3498(3)
H3A H 0.2342 0.5889 0.3984
H4A H -0.0271 0.5682 0.3696
O5_2 O 1.2938(4) -0.2947(3) 0.7017(3)
Cu2_2 Cu -0.02386(7) -0.29506(5) 0.67831(4)
Cu2A_2 Cu 1.02386(7) 0.29506(5) 0.32169(4)
O5A_2 O -0.2938(4) 0.2947(3) 0.2983(3)
N1 N 0.6449(9) 0.3997(6) 1.0241(5)
H6 H 0.5126 0.2857 0.9968
H7 H 0.8128 0.3819 1.0557
C3 C 0.6241(9) 0.4687(6) 0.9096(5)
H11 H 0.766(10) 0.568(7) 0.939(6)
H12 H 0.655(10) 0.400(7) 0.837(6)
C4 C 0.6034(7) 0.5076(4) 1.1333(3)
H13 H 0.7256 0.6122 1.1655
H14 H 0.6109 0.4598 1.2048
C4A C 0.3966(7) 0.4924(4) 0.8667(3)
N1A N 0.3551(9) 0.6003(6) 0.9759(5)
H6A H 0.4874 0.7143 1.0032
H7A H 0.1872 0.6181 0.9443
C3A C 0.3759(9) 0.5313(6) 1.0904(5)
H11A H 0.234(10) 0.432(7) 1.061(6)
H12A H 0.345(10) 0.600(7) 1.163(6)
H13A H 0.2744 0.3878 0.8345
H14A H 0.3891 0.5402 0.7952
loop_
_geom_bond_atom_site_label_1
_geom_bond_atom_site_label_2
_geom_bond_site_symmetry_1
_geom_bond_site_symmetry_2
Cu1 O1 1_555 1_555
Cu2 O2 1_555 1_555
P1 O1 1_555 1_555
P2 O6 1_555 1_555
O2 H1 1_555 1_555
H2 O2 1_555 1_555
O3 Cu2 1_555 1_555
O4 Cu2 1_555 1_555
H3 O4 1_555 1_555
H4 O4 1_555 1_555
O5 P1 1_555 1_555
O6 Cu1 1_555 1_555
O7 Cu2 1_555 1_555
O8 P2 1_555 1_555
O9 Cu1 1_555 1_555
H5 O9 1_555 1_555
N1 H6 1_555 1_555
H7 N1 1_555 1_555
C1 P1 1_555 1_555
C2 C1 1_555 1_555
H8 C2 1_555 1_555
H9 C2 1_555 1_555
H10 C2 1_555 1_555
C3 N1 1_555 1_555
H11 C3 1_555 1_555
H12 C3 1_555 1_555
C4 N1 1_555 1_555
H13 C4 1_555 1_555
H14 C4 1_555 1_555
C4A C3 1_555 1_555
N1A C4A 1_555 1_555
H6A N1A 1_555 1_555
H7A N1A 1_555 1_555
C3A C4 1_555 1_555
H11A C3A 1_555 1_555
H12A C3A 1_555 1_555
H13A C4A 1_555 1_555
H14A C4A 1_555 1_555
P1A O1A 1_555 1_555
P2A O6A 1_555 1_555
O1A Cu1 1_555 1_555
O3A P1A 1_555 1_555
O5A P1A 1_555 1_555
O6A Cu1 1_555 1_555
O7A P2A 1_555 1_555
O8A P2A 1_555 1_555
O9A Cu1 1_555 1_555
H5A O9A 1_555 1_555
C1A P1A 1_555 1_555
C2A C1A 1_555 1_555
H8A C2A 1_555 1_555
H9A C2A 1_555 1_555
H10A C2A 1_555 1_555
Cu2A O3A 1_555 1_555
O2A Cu2A 1_555 1_555
H1A O2A 1_555 1_555
H2A O2A 1_555 1_555
O4A Cu2A 1_555 1_555
H3A O4A 1_555 1_555
H4A O4A 1_555 1_555
O5_2 Cu2 1_555 1_555
Cu2_2 O5 1_555 1_555
Cu2A_2 O5A 1_555 1_555
O5A_2 Cu2A 1_555 1_555
P1 O3 1_555 1_555
P2 C1 1_555 1_555
P2 O7 1_555 1_555
O9 C1 1_555 1_555
N1A C3A 1_555 1_555
P2A C1A 1_555 1_555
O7A Cu2A 1_555 1_555
O9A C1A 1_555 1_555

#END
