
#######################################################################
#
#                 Cambridge Crystallographic Data Centre
#                                CCDC 
#
#######################################################################
#
# If this CIF has been generated from an entry in the Cambridge 
# Structural Database, then it will include bibliographic, chemical, 
# crystal, experimental, refinement or atomic coordinate data resulting 
# from the CCDC's data processing and validation procedures.
#
#######################################################################

data_HUXHEN
_symmetry_cell_setting           triclinic
_symmetry_space_group_name_H-M   'P -1'
_symmetry_Int_Tables_number      2
_space_group_name_Hall           '-P 1'
loop_
_symmetry_equiv_pos_site_id
_symmetry_equiv_pos_as_xyz
1 x,y,z
2 -x,-y,-z
_cell_length_a                   7.3673(8)
_cell_length_b                   10.8514(5)
_cell_length_c                   14.722(2)
_cell_angle_alpha                108.477(3)
_cell_angle_beta                 93.848(1)
_cell_angle_gamma                103.8089(9)
_cell_volume                     1070.92
loop_
_atom_site_label
_atom_site_type_symbol
_atom_site_fract_x
_atom_site_fract_y
_atom_site_fract_z
Cu1 Cu 0.21518(4) 0.43173(3) 0.22785(2)
O1 O 0.0064(2) 0.2645(2) 0.1855(1)
O2 O -0.1741(2) 0.4023(2) 0.2325(1)
O3 O -0.5310(3) 0.3120(2) 0.2041(1)
O4 O 0.4258(3) 0.5990(2) 0.2725(1)
O5 O 0.1929(3) 0.6966(2) 0.2869(2)
O6 O 0.2601(3) 0.9524(2) 0.3493(2)
N1 N 0.2260(3) 0.4273(2) 0.3645(1)
N2 N 0.2101(3) 0.4250(2) 0.0876(1)
C1 C -0.1544(3) 0.2858(2) 0.1973(1)
C2 C -0.3246(3) 0.1675(2) 0.1668(2)
C3 C -0.5058(3) 0.1860(2) 0.1715(2)
C4 C -0.6642(4) 0.0762(3) 0.1435(2)
C5 C -0.6435(4) -0.0523(3) 0.1106(3)
C6 C -0.4666(5) -0.0734(3) 0.1054(3)
C7 C -0.3090(4) 0.0364(3) 0.1331(2)
C8 C 0.3644(3) 0.7035(2) 0.2965(2)
C9 C 0.5059(3) 0.8384(2) 0.3325(2)
C10 C 0.4440(4) 0.9556(3) 0.3582(2)
C11 C 0.5768(5) 1.0813(3) 0.3948(3)
C12 C 0.7642(5) 1.0907(3) 0.4048(3)
C13 C 0.8302(4) 0.9771(3) 0.3787(3)
C14 C 0.7003(4) 0.8516(2) 0.3424(2)
C15 C 0.2304(4) 0.3129(3) 0.3810(2)
C16 C 0.2445(4) 0.3042(3) 0.4719(2)
C17 C 0.2527(4) 0.4165(3) 0.5505(2)
C18 C 0.2480(5) 0.5344(3) 0.5344(2)
C19 C 0.2342(4) 0.5361(3) 0.4418(2)
C20 C 0.1592(4) 0.3059(3) 0.0143(2)
C21 C 0.1528(5) 0.2950(3) -0.0808(2)
C22 C 0.1987(5) 0.4096(3) -0.1055(2)
C23 C 0.2532(5) 0.5326(3) -0.0306(2)
C24 C 0.2567(5) 0.5364(3) 0.0628(2)
H1 H -0.431(4) 0.361(3) 0.212(2)
H2 H -0.794(4) 0.096(2) 0.144(2)
H3 H -0.734(4) -0.127(3) 0.094(2)
H4 H -0.456(4) -0.157(3) 0.082(2)
H5 H -0.216(4) 0.020(3) 0.126(2)
H6 H 0.207(4) 0.883(3) 0.333(2)
H7 H 0.533(4) 1.152(3) 0.411(2)
H8 H 0.851(4) 1.173(3) 0.430(2)
H9 H 0.958(4) 0.996(3) 0.389(2)
H10 H 0.746(4) 0.768(3) 0.324(2)
H11 H 0.213(4) 0.241(3) 0.324(2)
H12 H 0.247(4) 0.229(3) 0.471(2)
H13 H 0.261(4) 0.414(3) 0.609(2)
H14 H 0.251(4) 0.606(3) 0.579(2)
H15 H 0.227(4) 0.615(3) 0.429(2)
H16 H 0.138(4) 0.230(3) 0.034(2)
H17 H 0.118(4) 0.217(3) -0.122(2)
H18 H 0.203(4) 0.406(3) -0.165(2)
H19 H 0.290(4) 0.609(3) -0.046(2)
H20 H 0.289(4) 0.615(3) 0.110(2)
O3_2 O 0.4690(3) 0.3120(2) 0.2041(1)
Cu1_2 Cu -0.78482(4) 0.43173(3) 0.22785(2)
H1_2 H 0.569(4) 0.361(3) 0.212(2)
loop_
_geom_bond_atom_site_label_1
_geom_bond_atom_site_label_2
_geom_bond_site_symmetry_1
_geom_bond_site_symmetry_2
Cu1 O1 1_555 1_555
O1 C1 1_555 1_555
O2 C1 1_555 1_555
O3 C3 1_555 1_555
O4 Cu1 1_555 1_555
O5 C8 1_555 1_555
O6 C10 1_555 1_555
N1 Cu1 1_555 1_555
N2 Cu1 1_555 1_555
C1 C2 1_555 1_555
C2 C3 1_555 1_555
C3 C4 1_555 1_555
C4 C5 1_555 1_555
C5 C6 1_555 1_555
C6 C7 1_555 1_555
C7 C2 1_555 1_555
C8 O4 1_555 1_555
C9 C8 1_555 1_555
C10 C9 1_555 1_555
C11 C10 1_555 1_555
C12 C11 1_555 1_555
C13 C12 1_555 1_555
C14 C9 1_555 1_555
C15 N1 1_555 1_555
C16 C15 1_555 1_555
C17 C16 1_555 1_555
C18 C17 1_555 1_555
C19 N1 1_555 1_555
C20 N2 1_555 1_555
C21 C20 1_555 1_555
C22 C21 1_555 1_555
C23 C22 1_555 1_555
C24 N2 1_555 1_555
H1 O3 1_555 1_555
H2 C4 1_555 1_555
H3 C5 1_555 1_555
H4 C6 1_555 1_555
H5 C7 1_555 1_555
H6 O6 1_555 1_555
H7 C11 1_555 1_555
H8 C12 1_555 1_555
H9 C13 1_555 1_555
H10 C14 1_555 1_555
H11 C15 1_555 1_555
H12 C16 1_555 1_555
H13 C17 1_555 1_555
H14 C18 1_555 1_555
H15 C19 1_555 1_555
H16 C20 1_555 1_555
H17 C21 1_555 1_555
H18 C22 1_555 1_555
H19 C23 1_555 1_555
H20 C24 1_555 1_555
O3_2 Cu1 1_555 1_555
Cu1_2 O3 1_555 1_555
H1_2 O3_2 1_555 1_555
C13 C14 1_555 1_555
C18 C19 1_555 1_555
C23 C24 1_555 1_555

#END
