
#######################################################################
#
#                 Cambridge Crystallographic Data Centre
#                                CCDC 
#
#######################################################################
#
# If this CIF has been generated from an entry in the Cambridge 
# Structural Database, then it will include bibliographic, chemical, 
# crystal, experimental, refinement or atomic coordinate data resulting 
# from the CCDC's data processing and validation procedures.
#
#######################################################################

data_HUXMAO
_symmetry_cell_setting           monoclinic
_symmetry_space_group_name_H-M   'P 21/n'
_symmetry_Int_Tables_number      14
_space_group_name_Hall           '-P 2yn'
loop_
_symmetry_equiv_pos_site_id
_symmetry_equiv_pos_as_xyz
1 x,y,z
2 1/2+x,1/2-y,1/2+z
3 -x,-y,-z
4 1/2-x,1/2+y,1/2-z
_cell_length_a                   9.3674(19)
_cell_length_b                   16.994(3)
_cell_length_c                   13.956(3)
_cell_angle_alpha                90
_cell_angle_beta                 102.66(3)
_cell_angle_gamma                90
_cell_volume                     2167.64
loop_
_atom_site_label
_atom_site_type_symbol
_atom_site_fract_x
_atom_site_fract_y
_atom_site_fract_z
Mo1 Mo 0.33481(6) 0.03690(3) 0.78249(4)
Mo2 Mo 0.20502(6) 0.16338(3) 0.81701(4)
Mo3 Mo 0.15087(6) -0.13110(3) 0.63197(4)
O1 O 0.3477(5) -0.0092(3) 0.8920(3)
O2 O 0.2827(6) -0.0642(3) 0.7033(4)
O3 O 0.1417(5) 0.0754(3) 0.7278(3)
O4 O 0.4060(5) 0.1441(2) 0.8180(3)
O5 O 0.1576(5) 0.1361(3) 0.9227(3)
O6 O 0.2630(5) 0.2738(3) 0.8687(3)
O7 O 0.0005(6) -0.1394(3) 0.6831(4)
O8 O 0.0969(6) -0.0983(4) 0.5137(4)
C1 C 0.6343(8) 0.0369(4) 0.7144(5)
C2 C 0.7837(7) 0.0285(4) 0.7213(5)
H1 H 0.8240 0.0435 0.6688
C3 C 0.8725(8) -0.0015(4) 0.8047(5)
H2 H 0.9721 -0.0085 0.8086
C4 C 0.8114(8) -0.0211(4) 0.8825(6)
H3 H 0.8693 -0.0394 0.9410
C5 C 0.6613(8) -0.0131(4) 0.8718(5)
H4 H 0.6199 -0.0275 0.9240
C6 C 0.5315(7) 0.0675(4) 0.6274(4)
C7 C 0.5750(9) 0.0931(4) 0.5430(5)
H5 H 0.6735 0.0956 0.5411
C8 C 0.4670(9) 0.1146(5) 0.4618(5)
H6 H 0.4926 0.1326 0.4049
C9 C 0.3239(9) 0.1091(4) 0.4663(5)
H7 H 0.2511 0.1220 0.4118
C10 C 0.2867(8) 0.0842(4) 0.5518(4)
H8 H 0.1885 0.0796 0.5541
C11 C 0.0723(7) 0.2642(4) 0.6251(4)
C12 C 0.0601(8) 0.3098(4) 0.5419(4)
H9 H -0.0308 0.3273 0.5075
C13 C 0.1852(8) 0.3287(4) 0.5113(5)
H10 H 0.1806 0.3601 0.4562
C14 C 0.3173(8) 0.3008(4) 0.5628(5)
H11 H 0.4034 0.3143 0.5439
C15 C 0.3209(7) 0.2527(4) 0.6429(5)
H12 H 0.4101 0.2321 0.6759
C16 C -0.0519(7) 0.2509(4) 0.6734(4)
C17 C -0.1898(8) 0.2813(5) 0.6356(5)
H13 H -0.2115 0.3049 0.5740
C18 C -0.2940(8) 0.2760(5) 0.6911(6)
H14 H -0.3855 0.2990 0.6694
C19 C -0.2614(8) 0.2360(4) 0.7794(5)
H15 H -0.3310 0.2308 0.8173
C20 C -0.1261(8) 0.2047(4) 0.8096(5)
H16 H -0.1058 0.1766 0.8682
N1 N 0.5733(6) 0.0146(3) 0.7898(4)
N2 N 0.3916(6) 0.0663(3) 0.6327(3)
N3 N 0.2001(6) 0.2347(3) 0.6745(4)
N4 N -0.0194(6) 0.2120(3) 0.7591(4)
O6C O 0.2370(5) -0.2262(3) 0.6313(3)
Mo3C Mo 0.34913(6) 0.36890(3) 0.86803(4)
loop_
_geom_bond_atom_site_label_1
_geom_bond_atom_site_label_2
_geom_bond_site_symmetry_1
_geom_bond_site_symmetry_2
Mo1 Mo2 1_555 1_555
Mo2 O3 1_555 1_555
Mo3 O2 1_555 1_555
O1 Mo1 1_555 1_555
O2 Mo1 1_555 1_555
O3 Mo1 1_555 1_555
O4 Mo1 1_555 1_555
O5 Mo2 1_555 1_555
O6 Mo2 1_555 1_555
O7 Mo3 1_555 1_555
O8 Mo3 1_555 1_555
C1 C2 1_555 1_555
C2 H1 1_555 1_555
C3 C2 1_555 1_555
H2 C3 1_555 1_555
C4 C3 1_555 1_555
H3 C4 1_555 1_555
C5 C4 1_555 1_555
H4 C5 1_555 1_555
C6 C1 1_555 1_555
C7 C6 1_555 1_555
H5 C7 1_555 1_555
C8 C7 1_555 1_555
H6 C8 1_555 1_555
C9 C8 1_555 1_555
H7 C9 1_555 1_555
C10 C9 1_555 1_555
H8 C10 1_555 1_555
C11 C12 1_555 1_555
C12 H9 1_555 1_555
C13 C12 1_555 1_555
H10 C13 1_555 1_555
C14 C13 1_555 1_555
H11 C14 1_555 1_555
C15 C14 1_555 1_555
H12 C15 1_555 1_555
C16 C11 1_555 1_555
C17 C16 1_555 1_555
H13 C17 1_555 1_555
C18 C17 1_555 1_555
H14 C18 1_555 1_555
C19 C18 1_555 1_555
H15 C19 1_555 1_555
C20 C19 1_555 1_555
H16 C20 1_555 1_555
N1 Mo1 1_555 1_555
N2 Mo1 1_555 1_555
N3 Mo2 1_555 1_555
N4 Mo2 1_555 1_555
O6C Mo3 1_555 1_555
Mo3C O6 1_555 1_555
Mo2 O4 1_555 1_555
C1 N1 1_555 1_555
C5 N1 1_555 1_555
C6 N2 1_555 1_555
C10 N2 1_555 1_555
C11 N3 1_555 1_555
C15 N3 1_555 1_555
C16 N4 1_555 1_555
C20 N4 1_555 1_555

#END
