
#######################################################################
#
#                 Cambridge Crystallographic Data Centre
#                                CCDC 
#
#######################################################################
#
# If this CIF has been generated from an entry in the Cambridge 
# Structural Database, then it will include bibliographic, chemical, 
# crystal, experimental, refinement or atomic coordinate data resulting 
# from the CCDC's data processing and validation procedures.
#
#######################################################################

data_HUXPEW
_symmetry_cell_setting           monoclinic
_symmetry_space_group_name_H-M   'P 21/n'
_symmetry_Int_Tables_number      14
_space_group_name_Hall           '-P 2yn'
loop_
_symmetry_equiv_pos_site_id
_symmetry_equiv_pos_as_xyz
1 x,y,z
2 1/2-x,1/2+y,1/2-z
3 -x,-y,-z
4 1/2+x,1/2-y,1/2+z
_cell_length_a                   11.3497(15)
_cell_length_b                   17.238(2)
_cell_length_c                   14.8844(19)
_cell_angle_alpha                90
_cell_angle_beta                 110.148(2)
_cell_angle_gamma                90
_cell_volume                     2733.87
loop_
_atom_site_label
_atom_site_type_symbol
_atom_site_fract_x
_atom_site_fract_y
_atom_site_fract_z
K1 K 0.16341(3) 0.267337(19) 0.41152(2)
N1 N 0.33718(11) 0.26838(7) 0.59267(8)
Si1 Si 0.48020(3) 0.23836(2) 0.60257(3)
C1 C 0.54591(13) 0.15823(8) 0.69456(9)
C2 C 0.47068(13) 0.11893(8) 0.73709(10)
H1 H 0.3843 0.1320 0.7188
C3 C 0.51908(14) 0.06102(9) 0.80577(10)
H2 H 0.4657 0.0354 0.8333
C4 C 0.64486(15) 0.04095(9) 0.83366(10)
H3 H 0.6781 0.0020 0.8807
C5 C 0.72198(14) 0.07831(9) 0.79227(10)
H4 H 0.8081 0.0645 0.8106
C6 C 0.67292(13) 0.13603(8) 0.72390(10)
H5 H 0.7268 0.1611 0.6963
C7 C 0.47814(12) 0.19627(8) 0.48417(9)
C8 C 0.49753(14) 0.11819(9) 0.46848(10)
H6 H 0.5161 0.0829 0.5205
C9 C 0.49049(15) 0.09044(9) 0.37866(10)
H7 H 0.5036 0.0369 0.3702
C10 C 0.46437(14) 0.14089(9) 0.30175(10)
H8 H 0.4598 0.1223 0.2406
C11 C 0.44499(14) 0.21888(9) 0.31507(10)
H9 H 0.4270 0.2539 0.2628
C12 C 0.45180(14) 0.24583(8) 0.40466(10)
H10 H 0.4382 0.2994 0.4124
C13 C 0.60714(13) 0.31450(8) 0.63527(11)
H11 H 0.5807 0.3583 0.5909
H12 H 0.6846 0.2922 0.6311
H13 H 0.6222 0.3325 0.7007
Si2 Si 0.27309(3) 0.32170(2) 0.65657(3)
C14 C 0.31802(12) 0.42824(8) 0.66249(9)
C15 C 0.30170(13) 0.47803(8) 0.73174(10)
H14 H 0.2624 0.4588 0.7742
C16 C 0.34150(14) 0.55476(9) 0.74005(11)
H15 H 0.3297 0.5871 0.7879
C17 C 0.39847(14) 0.58420(9) 0.67847(11)
H16 H 0.4272 0.6364 0.6848
C18 C 0.41316(14) 0.53692(9) 0.60762(11)
H17 H 0.4504 0.5570 0.5643
C19 C 0.37329(13) 0.45993(8) 0.60008(10)
H18 H 0.3839 0.4282 0.5513
C20 C 0.09583(12) 0.32005(8) 0.59667(9)
C21 C 0.02734(14) 0.25325(8) 0.60120(10)
H19 H 0.0707 0.2100 0.6370
C22 C -0.10185(14) 0.24831(9) 0.55504(11)
H20 H -0.1453 0.2021 0.5592
C23 C -0.16706(13) 0.31120(9) 0.50288(10)
H21 H -0.2553 0.3083 0.4714
C24 C -0.10277(13) 0.37818(9) 0.49700(10)
H22 H -0.1470 0.4213 0.4615
C25 C 0.02704(13) 0.38236(8) 0.54326(10)
H23 H 0.0699 0.4286 0.5384
C26 C 0.30438(14) 0.29163(9) 0.78432(10)
H24 H 0.2830 0.2367 0.7863
H25 H 0.2530 0.3231 0.8116
H26 H 0.3934 0.2995 0.8216
O1 O 0.12419(12) 0.11587(7) 0.40035(8)
C27 C 0.1300(3) 0.09003(12) 0.49299(16)
H27 H 0.0446 0.0801 0.4941
H28 H 0.1708 0.1297 0.5420
C28 C 0.2054(2) 0.01675(12) 0.51214(13)
H29 H 0.1822 -0.0174 0.5568
H30 H 0.2965 0.0278 0.5388
C29 C 0.16963(18) -0.01901(10) 0.41392(12)
H31 H 0.0916 -0.0498 0.3988
H32 H 0.2375 -0.0527 0.4086
C30 C 0.15021(15) 0.05126(9) 0.34851(11)
H33 H 0.2265 0.0614 0.3325
H34 H 0.0790 0.0424 0.2883
K1C K 0.66341(3) 0.232663(19) 0.91152(2)
C1C C 0.04591(13) 0.34177(8) 0.19456(9)
C2C C -0.02932(13) 0.38107(8) 0.23709(10)
H1C H -0.1157 0.3680 0.2188
C3C C 0.01908(14) 0.43898(9) 0.30577(10)
H2C H -0.0343 0.4646 0.3333
C4C C 0.14486(15) 0.45905(9) 0.33366(10)
H3C H 0.1781 0.4980 0.3807
C5C C 0.22198(14) 0.42169(9) 0.29227(10)
H4C H 0.3081 0.4355 0.3106
C6C C 0.17292(13) 0.36397(8) 0.22390(10)
H5C H 0.2268 0.3389 0.1963
loop_
_geom_bond_atom_site_label_1
_geom_bond_atom_site_label_2
_geom_bond_site_symmetry_1
_geom_bond_site_symmetry_2
K1 N1 1_555 1_555
N1 Si1 1_555 1_555
Si1 C1 1_555 1_555
C1 C2 1_555 1_555
C2 H1 1_555 1_555
C3 C2 1_555 1_555
H2 C3 1_555 1_555
C4 C3 1_555 1_555
H3 C4 1_555 1_555
C5 C4 1_555 1_555
H4 C5 1_555 1_555
C6 C1 1_555 1_555
H5 C6 1_555 1_555
C7 K1 1_555 1_555
C8 C7 1_555 1_555
H6 C8 1_555 1_555
C9 C8 1_555 1_555
H7 C9 1_555 1_555
C10 C9 1_555 1_555
H8 C10 1_555 1_555
C11 C10 1_555 1_555
H9 C11 1_555 1_555
C12 K1 1_555 1_555
H10 C12 1_555 1_555
C13 Si1 1_555 1_555
H11 C13 1_555 1_555
H12 C13 1_555 1_555
H13 C13 1_555 1_555
Si2 N1 1_555 1_555
C14 Si2 1_555 1_555
C15 C14 1_555 1_555
H14 C15 1_555 1_555
C16 C15 1_555 1_555
H15 C16 1_555 1_555
C17 C16 1_555 1_555
H16 C17 1_555 1_555
C18 C17 1_555 1_555
H17 C18 1_555 1_555
C19 C14 1_555 1_555
H18 C19 1_555 1_555
C20 K1 1_555 1_555
C21 K1 1_555 1_555
H19 C21 1_555 1_555
C22 C21 1_555 1_555
H20 C22 1_555 1_555
C23 C22 1_555 1_555
H21 C23 1_555 1_555
C24 C23 1_555 1_555
H22 C24 1_555 1_555
C25 K1 1_555 1_555
H23 C25 1_555 1_555
C26 Si2 1_555 1_555
H24 C26 1_555 1_555
H25 C26 1_555 1_555
H26 C26 1_555 1_555
O1 K1 1_555 1_555
C27 O1 1_555 1_555
H27 C27 1_555 1_555
H28 C27 1_555 1_555
C28 C27 1_555 1_555
H29 C28 1_555 1_555
H30 C28 1_555 1_555
C29 C28 1_555 1_555
H31 C29 1_555 1_555
H32 C29 1_555 1_555
C30 O1 1_555 1_555
H33 C30 1_555 1_555
H34 C30 1_555 1_555
K1C C1 1_555 1_555
C1C K1 1_555 1_555
C2C K1 1_555 1_555
H1C C2C 1_555 1_555
C3C K1 1_555 1_555
H2C C3C 1_555 1_555
C4C K1 1_555 1_555
H3C C4C 1_555 1_555
C5C K1 1_555 1_555
H4C C5C 1_555 1_555
C6C K1 1_555 1_555
H5C C6C 1_555 1_555
Si1 C7 1_555 1_555
C2 K1C 1_555 1_555
C3 K1C 1_555 1_555
C4 K1C 1_555 1_555
C5 C6 1_555 1_555
C5 K1C 1_555 1_555
C6 K1C 1_555 1_555
C7 C12 1_555 1_555
C11 C12 1_555 1_555
Si2 C20 1_555 1_555
C18 C19 1_555 1_555
C20 C21 1_555 1_555
C20 C25 1_555 1_555
C24 C25 1_555 1_555
C29 C30 1_555 1_555
C1C C2C 1_555 1_555
C1C C6C 1_555 1_555
C2C C3C 1_555 1_555
C3C C4C 1_555 1_555
C4C C5C 1_555 1_555
C5C C6C 1_555 1_555

#END
