
#######################################################################
#
#                 Cambridge Crystallographic Data Centre
#                                CCDC 
#
#######################################################################
#
# If this CIF has been generated from an entry in the Cambridge 
# Structural Database, then it will include bibliographic, chemical, 
# crystal, experimental, refinement or atomic coordinate data resulting 
# from the CCDC's data processing and validation procedures.
#
#######################################################################

data_HUYGOX
_symmetry_cell_setting           triclinic
_symmetry_space_group_name_H-M   'P -1'
_symmetry_Int_Tables_number      2
_space_group_name_Hall           '-P 1'
loop_
_symmetry_equiv_pos_site_id
_symmetry_equiv_pos_as_xyz
1 x,y,z
2 -x,-y,-z
_cell_length_a                   8.9351(4)
_cell_length_b                   9.5011(4)
_cell_length_c                   9.9806(4)
_cell_angle_alpha                87.4510(10)
_cell_angle_beta                 85.6850(10)
_cell_angle_gamma                89.5510(10)
_cell_volume                     844.04
loop_
_atom_site_label
_atom_site_type_symbol
_atom_site_fract_x
_atom_site_fract_y
_atom_site_fract_z
Zn1 Zn 0.12454(2) 0.19225(2) 0.04729(2)
Zn2 Zn 0.17477(2) 0.66620(2) 0.43104(2)
P1 P 0.01291(5) 0.41628(5) 0.29284(5)
H1 H -0.0779 0.5182 0.2548
P2 P -0.02418(5) 0.10945(5) -0.21305(5)
H2 H 0.1006 0.0631 -0.2759
O1 O 0.13891(16) 0.48465(16) 0.36126(16)
O2 O 0.07500(17) 0.34655(17) 0.16714(15)
O3 O -0.07962(18) 0.31533(17) 0.38684(15)
O4 O 0.0216(2) 0.21350(17) -0.11300(17)
O5 O -0.1156(2) 0.17813(18) -0.31849(16)
O6 O -0.1039(2) -0.01712(18) -0.1473(2)
N1 N 0.34840(18) 0.21898(18) 0.00395(16)
C1 C 0.4325(2) 0.1459(2) -0.0887(2)
O7 O 0.3837(2) 0.0582(2) -0.16027(18)
C2 C 0.5951(2) 0.1886(2) -0.0876(2)
H3 H 0.6580 0.1093 -0.0633
H4 H 0.6330 0.2297 -0.1741
N2 N 0.58641(19) 0.2920(2) 0.01492(19)
C3 C 0.7165(2) 0.3610(3) 0.0612(3)
H5 H 0.8050 0.3339 0.0077
H6 H 0.7269 0.3332 0.1537
H7 H 0.7036 0.4613 0.0528
C4 C 0.4451(2) 0.3039(2) 0.06397(19)
N3 N 0.3975(2) 0.3868(2) 0.1600(2)
H8 H 0.4665 0.4445 0.2000
H9 H 0.2939 0.3892 0.1896
N4 N 0.39287(18) 0.70329(17) 0.46720(17)
C5 C 0.5216(2) 0.6606(2) 0.3976(2)
O8 O 0.5304(2) 0.5793(2) 0.3063(2)
C6 C 0.6547(2) 0.7328(2) 0.4487(2)
H10 H 0.7227 0.6654 0.4880
H11 H 0.7092 0.7888 0.3777
N5 N 0.58207(19) 0.8206(2) 0.54932(19)
C7 C 0.6662(3) 0.9067(3) 0.6352(3)
H12 H 0.7706 0.9056 0.6045
H13 H 0.6541 0.8693 0.7263
H14 H 0.6291 1.0018 0.6311
C8 C 0.4358(2) 0.7957(2) 0.55911(19)
N6 N 0.3373(2) 0.8533(2) 0.64521(19)
H15 H 0.3695 0.9183 0.7066
H16 H 0.2341 0.8300 0.6459
O6A O 0.1039(2) 0.01712(18) 0.1473(2)
O3A O 0.07962(18) 0.68467(17) 0.61316(15)
O5A O 0.1156(2) 0.82187(18) 0.31849(16)
Zn2A Zn -0.17477(2) 0.33380(2) 0.56896(2)
Zn2A_2 Zn -0.17477(2) 0.33380(2) -0.43104(2)
Zn1A Zn -0.12454(2) -0.19225(2) -0.04729(2)
loop_
_geom_bond_atom_site_label_1
_geom_bond_atom_site_label_2
_geom_bond_site_symmetry_1
_geom_bond_site_symmetry_2
Zn1 O2 1_555 1_555
Zn2 O1 1_555 1_555
P1 H1 1_555 1_555
P2 H2 1_555 1_555
O1 P1 1_555 1_555
O2 P1 1_555 1_555
O3 P1 1_555 1_555
O4 Zn1 1_555 1_555
O5 P2 1_555 1_555
O6 P2 1_555 1_555
N1 Zn1 1_555 1_555
C1 N1 1_555 1_555
O7 C1 1_555 1_555
C2 C1 1_555 1_555
H3 C2 1_555 1_555
H4 C2 1_555 1_555
N2 C2 1_555 1_555
C3 N2 1_555 1_555
H5 C3 1_555 1_555
H6 C3 1_555 1_555
H7 C3 1_555 1_555
C4 N1 1_555 1_555
N3 C4 1_555 1_555
H8 N3 1_555 1_555
H9 N3 1_555 1_555
N4 Zn2 1_555 1_555
C5 N4 1_555 1_555
O8 C5 1_555 1_555
C6 C5 1_555 1_555
H10 C6 1_555 1_555
H11 C6 1_555 1_555
N5 C6 1_555 1_555
C7 N5 1_555 1_555
H12 C7 1_555 1_555
H13 C7 1_555 1_555
H14 C7 1_555 1_555
C8 N4 1_555 1_555
N6 C8 1_555 1_555
H15 N6 1_555 1_555
H16 N6 1_555 1_555
O6A Zn1 1_555 1_555
O3A Zn2 1_555 1_555
O5A Zn2 1_555 1_555
Zn2A O3 1_555 1_555
Zn2A_2 O5 1_555 1_555
Zn1A O6 1_555 1_555
P2 O4 1_555 1_555
N2 C4 1_555 1_555
N5 C8 1_555 1_555

#END
