
#######################################################################
#
#                 Cambridge Crystallographic Data Centre
#                                CCDC 
#
#######################################################################
#
# If this CIF has been generated from an entry in the Cambridge 
# Structural Database, then it will include bibliographic, chemical, 
# crystal, experimental, refinement or atomic coordinate data resulting 
# from the CCDC's data processing and validation procedures.
#
#######################################################################

data_HUYHAK
_symmetry_cell_setting           triclinic
_symmetry_space_group_name_H-M   'P -1'
_symmetry_Int_Tables_number      2
_space_group_name_Hall           '-P 1'
loop_
_symmetry_equiv_pos_site_id
_symmetry_equiv_pos_as_xyz
1 x,y,z
2 -x,-y,-z
_cell_length_a                   10.7289(6)
_cell_length_b                   10.9051(6)
_cell_length_c                   13.9881(8)
_cell_angle_alpha                89.5080(10)
_cell_angle_beta                 74.9950(10)
_cell_angle_gamma                74.9320(10)
_cell_volume                     1523.42
loop_
_atom_site_label
_atom_site_type_symbol
_atom_site_fract_x
_atom_site_fract_y
_atom_site_fract_z
Zn1 Zn 0.35051(5) 0.05558(4) 0.30586(3)
Zn2 Zn 0.63435(5) 0.48394(4) 0.19717(3)
P1 P 0.53480(11) -0.22045(8) 0.21366(7)
H1 H 0.6631 -0.2238 0.1877
P2 P 0.45029(11) 0.30330(8) 0.28911(6)
H2 H 0.3223 0.3659 0.3141
O1 O 0.4583(3) 0.1710(2) 0.24848(17)
O2 O 0.5187(3) 0.3712(2) 0.20390(18)
O3 O 0.4976(3) 0.3037(2) 0.38130(17)
O4 O 0.5262(3) -0.3477(2) 0.25691(17)
O5 O 0.4678(3) -0.1165(2) 0.29683(17)
O6 O 0.4876(3) -0.1969(2) 0.12158(17)
N1 N 0.2426(3) 0.0596(3) 0.2085(2)
C1 C 0.1455(4) -0.0032(4) 0.2198(3)
O7 O 0.0852(3) -0.0364(3) 0.2984(2)
C2 C 0.1242(4) -0.0260(4) 0.1198(3)
H3 H 0.1387 -0.1159 0.1040
H4 H 0.0350 0.0198 0.1165
N2 N 0.2254(3) 0.0241(3) 0.0552(2)
C3 C 0.2541(5) 0.0153(4) -0.0521(3)
H5 H 0.1936 -0.0246 -0.0714
H6 H 0.3445 -0.0344 -0.0798
H7 H 0.2430 0.0991 -0.0761
C4 C 0.2872(4) 0.0732(3) 0.1093(2)
N3 N 0.3819(3) 0.1301(3) 0.0737(2)
H8 H 0.4079 0.1374 0.0109
H9 H 0.4179 0.1600 0.1132
N4 N 0.2794(3) 0.0853(3) 0.4521(2)
C5 C 0.1903(4) 0.1954(3) 0.4981(3)
O8 O 0.1405(3) 0.2868(2) 0.4563(2)
C6 C 0.1616(5) 0.1828(4) 0.6088(3)
H10 H 0.1859 0.2480 0.6411
H11 H 0.0679 0.1876 0.6381
N5 N 0.2453(4) 0.0590(3) 0.6152(2)
C7 C 0.2478(5) -0.0002(4) 0.7080(3)
H12 H 0.1919 0.0589 0.7621
H13 H 0.3380 -0.0243 0.7140
H14 H 0.2152 -0.0744 0.7093
C8 C 0.3099(4) 0.0065(3) 0.5242(3)
N6 N 0.3927(4) -0.1066(3) 0.5038(2)
H15 H 0.4092 -0.1537 0.5510
H16 H 0.4308 -0.1341 0.4431
N7 N 0.7097(3) 0.4835(3) 0.0521(2)
C9 C 0.8036(4) 0.5474(4) 0.0111(3)
O9 O 0.8462(3) 0.6129(3) 0.0573(2)
C10 C 0.8407(5) 0.5233(4) -0.1012(3)
H17 H 0.8196 0.6019 -0.1338
H18 H 0.9350 0.4804 -0.1273
N8 N 0.7579(4) 0.4428(3) -0.1125(2)
C11 C 0.7734(5) 0.3736(4) -0.2054(3)
H19 H 0.8267 0.4084 -0.2592
H20 H 0.6869 0.3815 -0.2161
H21 H 0.8168 0.2854 -0.2021
C12 C 0.6892(4) 0.4189(3) -0.0230(3)
N9 N 0.6096(3) 0.3448(3) -0.0060(2)
H22 H 0.5974 0.3060 -0.0548
H23 H 0.5691 0.3345 0.0539
N10 N 0.7490(3) 0.4257(3) 0.2891(2)
C13 C 0.8456(5) 0.3140(4) 0.2737(3)
O10 O 0.8974(4) 0.2511(3) 0.1947(2)
C14 C 0.8774(5) 0.2760(4) 0.3711(3)
H24 H 0.8622 0.1939 0.3887
H25 H 0.9690 0.2741 0.3691
N11 N 0.7816(4) 0.3788(3) 0.4388(2)
C15 C 0.7684(6) 0.3859(5) 0.5442(3)
H26 H 0.8299 0.3132 0.5607
H27 H 0.6785 0.3872 0.5796
H28 H 0.7881 0.4621 0.5622
C16 C 0.7146(4) 0.4614(3) 0.3883(3)
N12 N 0.6222(4) 0.5667(3) 0.4265(2)
H29 H 0.6014 0.5861 0.4891
H30 H 0.5827 0.6161 0.3888
Zn2_2 Zn 0.63435(5) -0.51606(4) 0.19717(3)
O4_2 O 0.5262(3) 0.6523(2) 0.25691(17)
O11 O 0.9666(3) 0.2430(3) -0.0157(2)
O13 O 0.0011(10) 0.5147(8) 0.3847(7)
O12? O 0.0353(10) 0.9481(7) 0.5001(6)
loop_
_geom_bond_atom_site_label_1
_geom_bond_atom_site_label_2
_geom_bond_site_symmetry_1
_geom_bond_site_symmetry_2
Zn1 O1 1_555 1_555
Zn2 O2 1_555 1_555
P1 H1 1_555 1_555
P2 H2 1_555 1_555
O1 P2 1_555 1_555
O2 P2 1_555 1_555
O3 P2 1_555 1_555
O4 P1 1_555 1_555
O5 Zn1 1_555 1_555
O6 P1 1_555 1_555
N1 Zn1 1_555 1_555
C1 N1 1_555 1_555
O7 C1 1_555 1_555
C2 C1 1_555 1_555
H3 C2 1_555 1_555
H4 C2 1_555 1_555
N2 C2 1_555 1_555
C3 N2 1_555 1_555
H5 C3 1_555 1_555
H6 C3 1_555 1_555
H7 C3 1_555 1_555
C4 N1 1_555 1_555
N3 C4 1_555 1_555
H8 N3 1_555 1_555
H9 N3 1_555 1_555
N4 Zn1 1_555 1_555
C5 N4 1_555 1_555
O8 C5 1_555 1_555
C6 C5 1_555 1_555
H10 C6 1_555 1_555
H11 C6 1_555 1_555
N5 C6 1_555 1_555
C7 N5 1_555 1_555
H12 C7 1_555 1_555
H13 C7 1_555 1_555
H14 C7 1_555 1_555
C8 N4 1_555 1_555
N6 C8 1_555 1_555
H15 N6 1_555 1_555
H16 N6 1_555 1_555
N7 Zn2 1_555 1_555
C9 N7 1_555 1_555
O9 C9 1_555 1_555
C10 C9 1_555 1_555
H17 C10 1_555 1_555
H18 C10 1_555 1_555
N8 C10 1_555 1_555
C11 N8 1_555 1_555
H19 C11 1_555 1_555
H20 C11 1_555 1_555
H21 C11 1_555 1_555
C12 N7 1_555 1_555
N9 C12 1_555 1_555
H22 N9 1_555 1_555
H23 N9 1_555 1_555
N10 Zn2 1_555 1_555
C13 N10 1_555 1_555
O10 C13 1_555 1_555
C14 C13 1_555 1_555
H24 C14 1_555 1_555
H25 C14 1_555 1_555
N11 C14 1_555 1_555
C15 N11 1_555 1_555
H26 C15 1_555 1_555
H27 C15 1_555 1_555
H28 C15 1_555 1_555
C16 N10 1_555 1_555
N12 C16 1_555 1_555
H29 N12 1_555 1_555
H30 N12 1_555 1_555
Zn2_2 O4 1_555 1_555
O4_2 Zn2 1_555 1_555
P1 O5 1_555 1_555
N2 C4 1_555 1_555
N5 C8 1_555 1_555
N8 C12 1_555 1_555
N11 C16 1_555 1_555

#END
