
#######################################################################
#
#                 Cambridge Crystallographic Data Centre
#                                CCDC 
#
#######################################################################
#
# If this CIF has been generated from an entry in the Cambridge 
# Structural Database, then it will include bibliographic, chemical, 
# crystal, experimental, refinement or atomic coordinate data resulting 
# from the CCDC's data processing and validation procedures.
#
#######################################################################

data_HUYKIV
_symmetry_cell_setting           cubic
_symmetry_space_group_name_H-M   'I 41 3 2'
_symmetry_Int_Tables_number      214
_space_group_name_Hall           'I 4bd 2c 3'
loop_
_symmetry_equiv_pos_site_id
_symmetry_equiv_pos_as_xyz
1 x,y,z
2 y,z,x
3 z,x,y
4 1/4-y,3/4+x,1/4+z
5 1/4-z,3/4+y,1/4+x
6 1/4-x,3/4+z,1/4+y
7 1/2-x,-y,1/2+z
8 -z,1/2+x,1/2-y
9 -x,1/2+y,1/2-z
10 1/2-y,-z,1/2+x
11 1/2-z,-x,1/2+y
12 1/4+y,1/4-x,3/4+z
13 1/4+z,1/4-y,3/4+x
14 1/4+x,1/4-z,3/4+y
15 -y,1/2+z,1/2-x
16 3/4-z,3/4-y,3/4-x
17 3/4-x,3/4-z,3/4-y
18 3/4-y,3/4-x,3/4-z
19 1/2+y,1/2-z,-x
20 3/4+y,1/4+x,1/4-z
21 3/4+z,1/4+y,1/4-x
22 3/4+x,1/4+z,1/4-y
23 1/2+x,1/2-y,-z
24 1/2+z,1/2-x,-y
25 1/2+x,1/2+y,1/2+z
26 1/2+y,1/2+z,1/2+x
27 1/2+z,1/2+x,1/2+y
28 3/4-y,1/4+x,3/4+z
29 3/4-z,1/4+y,3/4+x
30 3/4-x,1/4+z,3/4+y
31 -x,1/2-y,z
32 1/2-z,x,-y
33 1/2-x,y,-z
34 -y,1/2-z,x
35 -z,1/2-x,y
36 3/4+y,3/4-x,1/4+z
37 3/4+z,3/4-y,1/4+x
38 3/4+x,3/4-z,1/4+y
39 1/2-y,z,-x
40 1/4-z,1/4-y,1/4-x
41 1/4-x,1/4-z,1/4-y
42 1/4-y,1/4-x,1/4-z
43 y,-z,1/2-x
44 1/4+y,3/4+x,3/4-z
45 1/4+z,3/4+y,3/4-x
46 1/4+x,3/4+z,3/4-y
47 x,-y,1/2-z
48 z,-x,1/2-y
_cell_length_a                   28.718(2)
_cell_length_b                   28.718(2)
_cell_length_c                   28.718(2)
_cell_angle_alpha                90
_cell_angle_beta                 90
_cell_angle_gamma                90
_cell_volume                     23684.4
loop_
_atom_site_label
_atom_site_type_symbol
_atom_site_fract_x
_atom_site_fract_y
_atom_site_fract_z
C1 C 0.4652(4) 0.4251(4) 0.9013(4)
C2 C 0.5066(3) 0.4412(4) 0.9295(3)
C3 C 0.5200(3) 0.4162(4) 0.9673(4)
H1 H 0.5030 0.3900 0.9759
C4 C 0.3359(8) 0.4190(7) 0.8449(7)
H2 H 0.3142 0.3963 0.8315
N1 N 0.4193(2) 0.2941(3) 0.9239(4)
C5 C 0.4241(3) 0.3076(3) 0.9702(4)
C6 C 0.4348(4) 0.2746(5) 1.0040(3)
C7 C 0.4406(4) 0.2282(4) 0.9916(4)
C8 C 0.4357(3) 0.2147(2) 0.9453(5)
C9 C 0.4251(3) 0.2476(3) 0.9115(3)
O1 O 0.4483(3) 0.3864(3) 0.9117(3)
O2 O 0.4498(3) 0.4522(3) 0.8699(3)
O3 O 0.3841(3) 0.4025(3) 0.8332(3)
H3 H 0.4033 0.4182 0.8474
Ni1 Ni 0.40420(5) 0.34580(5) 0.8750
C10 C 0.3297(10) 0.4650(9) 0.8168(13)
C11 C 0.3672(17) 0.4868(19) 0.7841(17)
C2N C 0.5588(4) 0.4295(3) 0.9934(3)
C1N C 0.5749(4) 0.4013(4) 1.0348(4)
O1N O 0.6136(3) 0.4117(3) 1.0517(3)
O2N O 0.5478(3) 0.3699(3) 1.0502(3)
C3N C 0.5838(4) 0.4673(4) 0.9800(3)
C2J C 0.5705(3) 0.4934(3) 0.9412(4)
C1J C 0.5987(4) 0.5348(4) 0.9251(4)
O1J O 0.5883(3) 0.5517(3) 0.8864(3)
O2J O 0.6301(3) 0.5502(3) 0.9522(3)
C3J C 0.5327(4) 0.4800(3) 0.9162(4)
H1J H 0.5241 0.4970 0.8900
H1N H 0.6100 0.4759 0.9970
C4Q C 0.3310(7) 0.4141(8) 0.9051(7)
H2Q H 0.3537 0.4358 0.9185
O3Q O 0.3475(3) 0.3659(3) 0.9168(3)
H3Q H 0.3318 0.3467 0.9026
C10Q C 0.2850(9) 0.4203(10) 0.9332(13)
C11Q C 0.2632(19) 0.3828(17) 0.9659(17)
N1Q N 0.4559(3) 0.3307(2) 0.8261(4)
C5Q C 0.4424(3) 0.3259(3) 0.7798(4)
C6Q C 0.4754(5) 0.3152(4) 0.7460(3)
C7Q C 0.5218(4) 0.3094(4) 0.7584(4)
C8Q C 0.5353(2) 0.3143(3) 0.8047(5)
C9Q C 0.5024(3) 0.3249(3) 0.8385(3)
C1Q C 0.3249(4) 0.2848(4) 0.8487(4)
C2Q C 0.3088(4) 0.2434(3) 0.8205(3)
C3Q C 0.3338(4) 0.2300(3) 0.7827(4)
H1Q H 0.3600 0.2470 0.7741
O1Q O 0.3636(3) 0.3017(3) 0.8383(3)
O2Q O 0.2978(3) 0.3002(3) 0.8801(3)
C2D C 0.3205(3) 0.1912(4) 0.7566(3)
C1D C 0.3487(4) 0.1751(4) 0.7152(4)
O1D O 0.3383(3) 0.1364(3) 0.6983(3)
O2D O 0.3801(3) 0.2022(3) 0.6998(3)
C3D C 0.2827(4) 0.1662(4) 0.7700(3)
C2U C 0.2566(3) 0.1795(3) 0.8088(4)
C1U C 0.2152(4) 0.1513(4) 0.8249(4)
O1U O 0.1983(3) 0.1617(3) 0.8636(3)
O2U O 0.1998(3) 0.1199(3) 0.7978(3)
C3U C 0.2700(3) 0.2173(4) 0.8338(4)
H1U H 0.2530 0.2259 0.8600
H1D H 0.2741 0.1400 0.7530
Ni1N Ni 0.65420(5) 0.3750 1.09580(5)
Ni1J Ni 0.6250 0.59580(5) 0.84580(5)
N1N N 0.7059(3) 0.4239(4) 1.0807(2)
C5N C 0.6924(3) 0.4702(4) 1.0759(3)
C6N C 0.7254(5) 0.5040(3) 1.0652(4)
C7N C 0.7718(4) 0.4916(4) 1.0594(4)
C8N C 0.7853(2) 0.4453(5) 1.0643(3)
C9N C 0.7524(3) 0.4115(3) 1.0749(3)
N1M N 0.6693(2) 0.3261(4) 1.0441(3)
C5M C 0.6741(3) 0.2798(4) 1.0576(3)
C6M C 0.6848(4) 0.2460(3) 1.0246(5)
C7M C 0.6906(4) 0.2584(4) 0.9782(4)
C8M C 0.6857(3) 0.3047(5) 0.9647(2)
C9M C 0.6751(3) 0.3385(3) 0.9976(3)
C4N C 0.5810(7) 0.3449(7) 1.1641(8)
H2N H 0.6037 0.3315 1.1858
O3N O 0.5975(3) 0.3332(3) 1.1159(3)
H3N H 0.5818 0.3474 1.0967
C10N C 0.5350(9) 0.3168(13) 1.1703(10)
C11N C 0.5132(19) 0.2841(17) 1.1328(17)
C4M C 0.5859(8) 0.4051(7) 1.1690(7)
H2M H 0.5642 0.4185 1.1463
O3M O 0.6341(3) 0.4168(3) 1.1525(3)
H3M H 0.6533 0.4026 1.1682
C10M C 0.5797(10) 0.4332(13) 1.2150(9)
C11M C 0.6172(17) 0.4659(17) 1.2368(19)
N1J N 0.5761(4) 0.5807(2) 0.7941(3)
C5J C 0.5298(4) 0.5759(3) 0.8076(3)
C6J C 0.4960(3) 0.5652(4) 0.7746(5)
C7J C 0.5084(4) 0.5594(4) 0.7282(4)
C8J C 0.5547(5) 0.5643(3) 0.7147(2)
C9J C 0.5885(3) 0.5749(3) 0.7476(3)
N1T N 0.6739(4) 0.5441(3) 0.8307(2)
C5T C 0.7202(4) 0.5576(3) 0.8259(3)
C6T C 0.7540(3) 0.5246(5) 0.8152(4)
C7T C 0.7416(4) 0.4782(4) 0.8094(4)
C8T C 0.6953(5) 0.4647(2) 0.8143(3)
C9T C 0.6615(3) 0.4976(3) 0.8249(3)
C4J C 0.6551(7) 0.6641(8) 0.9190(7)
H2J H 0.6685 0.6858 0.8963
O3J O 0.6668(3) 0.6159(3) 0.9025(3)
H3J H 0.6526 0.5967 0.9182
C10J C 0.6832(13) 0.6703(10) 0.9650(9)
C11J C 0.7159(17) 0.6328(17) 0.9868(19)
C4T C 0.5949(7) 0.6690(7) 0.9141(8)
H2T H 0.5815 0.6463 0.9358
O3T O 0.5832(3) 0.6525(3) 0.8659(3)
H3T H 0.5974 0.6682 0.8467
C10T C 0.5668(13) 0.7150(9) 0.9203(10)
C11T C 0.5341(17) 0.7368(19) 0.8828(17)
Ni1D Ni 0.3750 0.09580(5) 0.65420(5)
Ni1I Ni 0.15420(5) 0.1250 0.90420(5)
O1M O 0.6983(3) 0.3383(3) 1.1364(3)
O1T O 0.6617(3) 0.6364(3) 0.8017(3)
loop_
_geom_bond_atom_site_label_1
_geom_bond_atom_site_label_2
_geom_bond_site_symmetry_1
_geom_bond_site_symmetry_2
C1 C2 1_555 1_555
C2 C3 1_555 1_555
C3 H1 1_555 1_555
C4 H2 1_555 1_555
N1 C5 1_555 1_555
C5 C6 1_555 1_555
C6 C7 1_555 1_555
C7 C8 1_555 1_555
C8 C9 1_555 1_555
C9 N1 1_555 1_555
O1 C1 1_555 1_555
O2 C1 1_555 1_555
O3 C4 1_555 1_555
H3 O3 1_555 1_555
Ni1 N1 1_555 1_555
C10 C4 1_555 1_555
C11 C10 1_555 1_555
C2N C3 1_555 1_555
C1N C2N 1_555 1_555
O1N C1N 1_555 1_555
O2N C1N 1_555 1_555
C3N C2N 1_555 1_555
C2J C3N 1_555 1_555
C1J C2J 1_555 1_555
O1J C1J 1_555 1_555
O2J C1J 1_555 1_555
C3J C2 1_555 1_555
H1J C3J 1_555 1_555
H1N C3N 1_555 1_555
C4Q C4 1_555 1_555
H2Q C4Q 1_555 1_555
O3Q Ni1 1_555 1_555
H3Q O3Q 1_555 1_555
C10Q C4Q 1_555 1_555
C11Q C10Q 1_555 1_555
N1Q Ni1 1_555 1_555
C5Q N1Q 1_555 1_555
C6Q C5Q 1_555 1_555
C7Q C6Q 1_555 1_555
C8Q C7Q 1_555 1_555
C9Q N1Q 1_555 1_555
C1Q C2Q 1_555 1_555
C2Q C3Q 1_555 1_555
C3Q H1Q 1_555 1_555
O1Q Ni1 1_555 1_555
O2Q C1Q 1_555 1_555
C2D C3Q 1_555 1_555
C1D C2D 1_555 1_555
O1D C1D 1_555 1_555
O2D C1D 1_555 1_555
C3D C2D 1_555 1_555
C2U C3D 1_555 1_555
C1U C2U 1_555 1_555
O1U C1U 1_555 1_555
O2U C1U 1_555 1_555
C3U C2Q 1_555 1_555
H1U C3U 1_555 1_555
H1D C3D 1_555 1_555
Ni1N O1N 1_555 1_555
Ni1J O1J 1_555 1_555
N1N Ni1N 1_555 1_555
C5N N1N 1_555 1_555
C6N C5N 1_555 1_555
C7N C6N 1_555 1_555
C8N C7N 1_555 1_555
C9N N1N 1_555 1_555
N1M Ni1N 1_555 1_555
C5M N1M 1_555 1_555
C6M C5M 1_555 1_555
C7M C6M 1_555 1_555
C8M C7M 1_555 1_555
C9M N1M 1_555 1_555
C4N H2N 1_555 1_555
O3N Ni1N 1_555 1_555
H3N O3N 1_555 1_555
C10N C4N 1_555 1_555
C11N C10N 1_555 1_555
C4M C4N 1_555 1_555
H2M C4M 1_555 1_555
O3M Ni1N 1_555 1_555
H3M O3M 1_555 1_555
C10M C4M 1_555 1_555
C11M C10M 1_555 1_555
N1J Ni1J 1_555 1_555
C5J N1J 1_555 1_555
C6J C5J 1_555 1_555
C7J C6J 1_555 1_555
C8J C7J 1_555 1_555
C9J N1J 1_555 1_555
N1T Ni1J 1_555 1_555
C5T N1T 1_555 1_555
C6T C5T 1_555 1_555
C7T C6T 1_555 1_555
C8T C7T 1_555 1_555
C9T N1T 1_555 1_555
C4J H2J 1_555 1_555
O3J Ni1J 1_555 1_555
H3J O3J 1_555 1_555
C10J C4J 1_555 1_555
C11J C10J 1_555 1_555
C4T C4J 1_555 1_555
H2T C4T 1_555 1_555
O3T Ni1J 1_555 1_555
H3T O3T 1_555 1_555
C10T C4T 1_555 1_555
C11T C10T 1_555 1_555
Ni1D O1D 1_555 1_555
Ni1I O1U 1_555 1_555
O1M Ni1N 1_555 1_555
O1T Ni1J 1_555 1_555
O1 Ni1 1_555 1_555
O3 Ni1 1_555 1_555
C2J C3J 1_555 1_555
C4Q O3Q 1_555 1_555
C8Q C9Q 1_555 1_555
C1Q O1Q 1_555 1_555
C2U C3U 1_555 1_555
C8N C9N 1_555 1_555
C8M C9M 1_555 1_555
C4N O3N 1_555 1_555
C4M O3M 1_555 1_555
C8J C9J 1_555 1_555
C8T C9T 1_555 1_555
C4J O3J 1_555 1_555
C4T O3T 1_555 1_555

#END
