
#######################################################################
#
#                 Cambridge Crystallographic Data Centre
#                                CCDC 
#
#######################################################################
#
# If this CIF has been generated from an entry in the Cambridge 
# Structural Database, then it will include bibliographic, chemical, 
# crystal, experimental, refinement or atomic coordinate data resulting 
# from the CCDC's data processing and validation procedures.
#
#######################################################################

data_HUYKOB
_symmetry_cell_setting           cubic
_symmetry_space_group_name_H-M   'I 41 3 2'
_symmetry_Int_Tables_number      214
_space_group_name_Hall           'I 4bd 2c 3'
loop_
_symmetry_equiv_pos_site_id
_symmetry_equiv_pos_as_xyz
1 x,y,z
2 y,z,x
3 z,x,y
4 1/4-y,3/4+x,1/4+z
5 1/4-z,3/4+y,1/4+x
6 1/4-x,3/4+z,1/4+y
7 1/2-x,-y,1/2+z
8 -z,1/2+x,1/2-y
9 -x,1/2+y,1/2-z
10 1/2-y,-z,1/2+x
11 1/2-z,-x,1/2+y
12 1/4+y,1/4-x,3/4+z
13 1/4+z,1/4-y,3/4+x
14 1/4+x,1/4-z,3/4+y
15 -y,1/2+z,1/2-x
16 3/4-z,3/4-y,3/4-x
17 3/4-x,3/4-z,3/4-y
18 3/4-y,3/4-x,3/4-z
19 1/2+y,1/2-z,-x
20 3/4+y,1/4+x,1/4-z
21 3/4+z,1/4+y,1/4-x
22 3/4+x,1/4+z,1/4-y
23 1/2+x,1/2-y,-z
24 1/2+z,1/2-x,-y
25 1/2+x,1/2+y,1/2+z
26 1/2+y,1/2+z,1/2+x
27 1/2+z,1/2+x,1/2+y
28 3/4-y,1/4+x,3/4+z
29 3/4-z,1/4+y,3/4+x
30 3/4-x,1/4+z,3/4+y
31 -x,1/2-y,z
32 1/2-z,x,-y
33 1/2-x,y,-z
34 -y,1/2-z,x
35 -z,1/2-x,y
36 3/4+y,3/4-x,1/4+z
37 3/4+z,3/4-y,1/4+x
38 3/4+x,3/4-z,1/4+y
39 1/2-y,z,-x
40 1/4-z,1/4-y,1/4-x
41 1/4-x,1/4-z,1/4-y
42 1/4-y,1/4-x,1/4-z
43 y,-z,1/2-x
44 1/4+y,3/4+x,3/4-z
45 1/4+z,3/4+y,3/4-x
46 1/4+x,3/4+z,3/4-y
47 x,-y,1/2-z
48 z,-x,1/2-y
_cell_length_a                   28.8037(18)
_cell_length_b                   28.8037(18)
_cell_length_c                   28.8037(18)
_cell_angle_alpha                90
_cell_angle_beta                 90
_cell_angle_gamma                90
_cell_volume                     23897.1
loop_
_atom_site_label
_atom_site_type_symbol
_atom_site_fract_x
_atom_site_fract_y
_atom_site_fract_z
C1 C 0.9650(3) 0.5735(3) 0.9015(3)
C2 C 1.0062(2) 0.5589(2) 0.9295(3)
C3 C 1.0196(3) 0.5839(2) 0.9678(3)
H1 H 1.0026 0.6098 0.9767
C4 C 0.8393(5) 0.5834(4) 0.8472(5)
H2 H 0.8169 0.6041 0.8320
C5 C 0.8349(13) 0.5354(10) 0.8251(11)
C6 C 0.8389(18) 0.532(2) 0.7717(13)
C7 C 0.8770(18) 0.532(2) 0.7352(18)
C8 C 0.9245(3) 0.6940(4) 0.9663(5)
H3 H 0.9211 0.6629 0.9743
C9 C 0.9342(4) 0.7264(6) 1.0030(5)
H4 H 0.9361 0.7171 1.0338
C10 C 0.9404(5) 0.7705(7) 0.9905(8)
H5 H 0.9480 0.7924 1.0129
C11 C 0.9360(4) 0.7832(5) 0.9479(8)
H6 H 0.9394 0.8144 0.9401
C12 C 0.9256(3) 0.7488(4) 0.9113(5)
H7 H 0.9230 0.7583 0.8806
N1 N 0.9201(2) 0.7053(3) 0.9217(3)
O1 O 0.94836(18) 0.6124(2) 0.91144(19)
O2 O 0.94951(18) 0.54710(18) 0.8699(2)
O3 O 0.8835(2) 0.59721(18) 0.8344(2)
H8 H 0.9026 0.5798 0.8463
Ni1 Ni 0.90407(3) 0.65407(3) 0.8750
C2R C 1.0589(2) 0.5705(3) 0.9938(2)
C1R C 1.0735(3) 0.5985(3) 1.0350(3)
O1R O 1.1124(2) 0.58856(19) 1.05164(18)
O2R O 1.04710(18) 0.6301(2) 1.05049(18)
C3R C 1.0839(2) 0.5322(3) 0.9804(3)
C2G C 1.0705(3) 0.5062(2) 0.9411(2)
C1G C 1.0985(3) 0.4650(3) 0.9265(3)
O1G O 1.08856(19) 0.44836(18) 0.8876(2)
O2G O 1.1301(2) 0.44951(18) 0.95290(18)
C3G C 1.0322(3) 0.5196(3) 0.9161(2)
H1G H 1.0233 0.5026 0.8902
H1R H 1.1098 0.5233 0.9974
C4QA C 0.8334(4) 0.5893(5) 0.9028(5)
H2QA H 0.8541 0.5669 0.9180
C5QA C 0.7854(10) 0.5849(13) 0.9249(11)
C6QA C 0.782(2) 0.5889(18) 0.9783(13)
C7QA C 0.782(2) 0.6270(18) 1.0148(18)
O3QA O 0.84721(18) 0.6335(2) 0.9156(2)
H8QA H 0.8298 0.6526 0.9037
C8QA C 0.9440(4) 0.6745(3) 0.7837(5)
H3QA H 0.9129 0.6711 0.7757
C9QA C 0.9764(6) 0.6842(4) 0.7470(5)
H4QA H 0.9671 0.6861 0.7162
C10QA C 1.0205(7) 0.6904(5) 0.7595(8)
H5QA H 1.0424 0.6980 0.7371
C11QA C 1.0332(5) 0.6860(4) 0.8021(8)
H6QA H 1.0644 0.6894 0.8099
C12QA C 0.9988(4) 0.6756(3) 0.8387(5)
H7QA H 1.0083 0.6730 0.8694
N1QA N 0.9553(3) 0.6701(2) 0.8283(3)
C1QA C 0.8235(3) 0.7150(3) 0.8485(3)
C2QA C 0.8089(2) 0.7562(2) 0.8205(3)
C3QA C 0.8339(2) 0.7696(3) 0.7822(3)
H1QA H 0.8598 0.7526 0.7733
O1QA O 0.8624(2) 0.69836(18) 0.83856(19)
O2QA O 0.79710(18) 0.69951(18) 0.8801(2)
C2BA C 0.8205(3) 0.8089(2) 0.7562(2)
C1BA C 0.8485(3) 0.8235(3) 0.7150(3)
O1BA O 0.83856(19) 0.8624(2) 0.69836(18)
O2BA O 0.8801(2) 0.79710(18) 0.69951(18)
C3BA C 0.7822(3) 0.8339(2) 0.7696(3)
C2KA C 0.7562(2) 0.8205(3) 0.8089(2)
C1KA C 0.7150(3) 0.8485(3) 0.8235(3)
O1KA O 0.69836(18) 0.83856(19) 0.8624(2)
O2KA O 0.69951(18) 0.8801(2) 0.79710(18)
C3KA C 0.7696(3) 0.7822(3) 0.8339(2)
H1KA H 0.7526 0.7733 0.8598
H1BA H 0.7733 0.8598 0.7526
Ni1R Ni 1.15407(3) 0.6250 1.09593(3)
Ni1G Ni 1.1250 0.40407(3) 0.84593(3)
C8R C 1.1940(4) 0.5337(5) 1.0755(3)
H3R H 1.1629 0.5257 1.0789
C9R C 1.2264(6) 0.4970(5) 1.0658(4)
H4R H 1.2171 0.4662 1.0639
C10R C 1.2705(7) 0.5095(8) 1.0596(5)
H5R H 1.2924 0.4871 1.0520
C11R C 1.2832(5) 0.5521(8) 1.0640(4)
H6R H 1.3144 0.5599 1.0606
C12R C 1.2488(4) 0.5887(5) 1.0744(3)
H7R H 1.2583 0.6194 1.0770
N1R N 1.2053(3) 0.5783(3) 1.0799(2)
C8SA C 1.1745(3) 0.7163(5) 1.0560(4)
H3SA H 1.1711 0.7243 1.0871
C9SA C 1.1842(4) 0.7530(5) 1.0236(6)
H4SA H 1.1861 0.7838 1.0329
C10SA C 1.1904(5) 0.7405(8) 0.9795(7)
H5SA H 1.1980 0.7629 0.9576
C11SA C 1.1860(4) 0.6979(8) 0.9668(5)
H6SA H 1.1894 0.6901 0.9356
C12SA C 1.1756(3) 0.6613(5) 1.0012(4)
H7SA H 1.1730 0.6306 0.9917
N1SA N 1.1701(2) 0.6717(3) 1.0447(3)
C4R C 1.0834(4) 0.6528(5) 1.1607(5)
H2R H 1.1041 0.6680 1.1831
C5R C 1.0354(10) 0.6749(11) 1.1651(13)
C6R C 1.032(2) 0.7283(13) 1.1611(18)
C7R C 1.032(2) 0.7648(18) 1.1230(18)
O3R O 1.09721(18) 0.6656(2) 1.1165(2)
H8R H 1.0798 0.6537 1.0974
C4SA C 1.0893(5) 0.5972(5) 1.1666(4)
H2SA H 1.0669 0.5820 1.1459
C5SA C 1.0849(13) 0.5751(11) 1.2146(10)
C6SA C 1.0889(18) 0.5217(13) 1.218(2)
C7SA C 1.1270(18) 0.4852(18) 1.218(2)
O3SA O 1.1335(2) 0.5844(2) 1.15279(18)
H8SA H 1.1526 0.5963 1.1702
C8G C 1.0337(5) 0.4245(3) 0.8060(4)
H3G H 1.0257 0.4211 0.8371
C9G C 0.9970(5) 0.4342(4) 0.7736(6)
H4G H 0.9662 0.4361 0.7829
C10G C 1.0095(8) 0.4404(5) 0.7295(7)
H5G H 0.9871 0.4480 0.7076
C11G C 1.0521(8) 0.4360(4) 0.7168(5)
H6G H 1.0599 0.4394 0.6856
C12G C 1.0887(5) 0.4256(3) 0.7512(4)
H7G H 1.1194 0.4230 0.7417
N1G N 1.0783(3) 0.4201(2) 0.7947(3)
C8RA C 1.2163(5) 0.4440(4) 0.8255(3)
H3RA H 1.2243 0.4129 0.8289
C9RA C 1.2530(5) 0.4764(6) 0.8158(4)
H4RA H 1.2838 0.4671 0.8139
C10RA C 1.2405(8) 0.5205(7) 0.8096(5)
H5RA H 1.2629 0.5424 0.8020
C11RA C 1.1979(8) 0.5332(5) 0.8140(4)
H6RA H 1.1901 0.5644 0.8106
C12RA C 1.1613(5) 0.4988(4) 0.8244(3)
H7RA H 1.1306 0.5083 0.8270
N1RA N 1.1717(3) 0.4553(3) 0.8299(2)
C4G C 1.1528(5) 0.3393(5) 0.9166(4)
H2G H 1.1680 0.3169 0.8959
C5G C 1.1749(11) 0.3349(13) 0.9646(10)
C6G C 1.2283(13) 0.3389(18) 0.968(2)
C7G C 1.2648(18) 0.3770(18) 0.968(2)
O3G O 1.1656(2) 0.3835(2) 0.90279(18)
H8G H 1.1537 0.4026 0.9202
C4RA C 1.0972(5) 0.3334(4) 0.9107(5)
H2RA H 1.0820 0.3541 0.9331
C5RA C 1.0751(11) 0.2854(10) 0.9151(13)
C6RA C 1.0217(13) 0.282(2) 0.9111(18)
C7RA C 0.9852(18) 0.282(2) 0.8730(18)
O3RA O 1.0844(2) 0.34721(18) 0.8665(2)
H8RA H 1.0963 0.3298 0.8474
Ni1B Ni 0.8750 0.90407(3) 0.65407(3)
Ni1A Ni 0.65407(3) 0.8750 0.90407(3)
O1SA O 1.19836(18) 0.66144(19) 1.1376(2)
O1RA O 1.16144(19) 0.3624(2) 0.80164(18)
C13 C 0.9198(15) 0.4461(16) 0.9388(14)
O4 O 0.9313(9) 0.4500(9) 0.8795(10)
loop_
_geom_bond_atom_site_label_1
_geom_bond_atom_site_label_2
_geom_bond_site_symmetry_1
_geom_bond_site_symmetry_2
C1 C2 1_555 1_555
C2 C3 1_555 1_555
C3 H1 1_555 1_555
C4 H2 1_555 1_555
C5 C4 1_555 1_555
C6 C5 1_555 1_555
C7 C6 1_555 1_555
C8 H3 1_555 1_555
C9 C8 1_555 1_555
H4 C9 1_555 1_555
C10 C9 1_555 1_555
H5 C10 1_555 1_555
C11 C10 1_555 1_555
H6 C11 1_555 1_555
C12 C11 1_555 1_555
H7 C12 1_555 1_555
C13 O4 1_555 1_555
N1 C8 1_555 1_555
O1 C1 1_555 1_555
O2 C1 1_555 1_555
O3 C4 1_555 1_555
H8 O3 1_555 1_555
Ni1 N1 1_555 1_555
C2R C3 1_555 1_555
C1R C2R 1_555 1_555
O1R C1R 1_555 1_555
O2R C1R 1_555 1_555
C3R C2R 1_555 1_555
C2G C3R 1_555 1_555
C1G C2G 1_555 1_555
O1G C1G 1_555 1_555
O2G C1G 1_555 1_555
C3G C2 1_555 1_555
H1G C3G 1_555 1_555
H1R C3R 1_555 1_555
C4QA C4 1_555 1_555
H2QA C4QA 1_555 1_555
C5QA C4QA 1_555 1_555
C6QA C5QA 1_555 1_555
C7QA C6QA 1_555 1_555
O3QA Ni1 1_555 1_555
H8QA O3QA 1_555 1_555
C8QA H3QA 1_555 1_555
C9QA C8QA 1_555 1_555
H4QA C9QA 1_555 1_555
C10QA C9QA 1_555 1_555
H5QA C10QA 1_555 1_555
C11QA C10QA 1_555 1_555
H6QA C11QA 1_555 1_555
C12QA C11QA 1_555 1_555
H7QA C12QA 1_555 1_555
N1QA Ni1 1_555 1_555
C1QA C2QA 1_555 1_555
C2QA C3QA 1_555 1_555
C3QA H1QA 1_555 1_555
O1QA Ni1 1_555 1_555
O2QA C1QA 1_555 1_555
C2BA C3QA 1_555 1_555
C1BA C2BA 1_555 1_555
O1BA C1BA 1_555 1_555
O2BA C1BA 1_555 1_555
C3BA C2BA 1_555 1_555
C2KA C3BA 1_555 1_555
C1KA C2KA 1_555 1_555
O1KA C1KA 1_555 1_555
O2KA C1KA 1_555 1_555
C3KA C2QA 1_555 1_555
H1KA C3KA 1_555 1_555
H1BA C3BA 1_555 1_555
Ni1R O1R 1_555 1_555
Ni1G O1G 1_555 1_555
C8R H3R 1_555 1_555
C9R C8R 1_555 1_555
H4R C9R 1_555 1_555
C10R C9R 1_555 1_555
H5R C10R 1_555 1_555
C11R C10R 1_555 1_555
H6R C11R 1_555 1_555
C12R C11R 1_555 1_555
H7R C12R 1_555 1_555
N1R Ni1R 1_555 1_555
C8SA H3SA 1_555 1_555
C9SA C8SA 1_555 1_555
H4SA C9SA 1_555 1_555
C10SA C9SA 1_555 1_555
H5SA C10SA 1_555 1_555
C11SA C10SA 1_555 1_555
H6SA C11SA 1_555 1_555
C12SA C11SA 1_555 1_555
H7SA C12SA 1_555 1_555
N1SA Ni1R 1_555 1_555
C4R H2R 1_555 1_555
C5R C4R 1_555 1_555
C6R C5R 1_555 1_555
C7R C6R 1_555 1_555
O3R Ni1R 1_555 1_555
H8R O3R 1_555 1_555
C4SA C4R 1_555 1_555
H2SA C4SA 1_555 1_555
C5SA C4SA 1_555 1_555
C6SA C5SA 1_555 1_555
C7SA C6SA 1_555 1_555
O3SA Ni1R 1_555 1_555
H8SA O3SA 1_555 1_555
C8G H3G 1_555 1_555
C9G C8G 1_555 1_555
H4G C9G 1_555 1_555
C10G C9G 1_555 1_555
H5G C10G 1_555 1_555
C11G C10G 1_555 1_555
H6G C11G 1_555 1_555
C12G C11G 1_555 1_555
H7G C12G 1_555 1_555
N1G Ni1G 1_555 1_555
C8RA H3RA 1_555 1_555
C9RA C8RA 1_555 1_555
H4RA C9RA 1_555 1_555
C10RA C9RA 1_555 1_555
H5RA C10RA 1_555 1_555
C11RA C10RA 1_555 1_555
H6RA C11RA 1_555 1_555
C12RA C11RA 1_555 1_555
H7RA C12RA 1_555 1_555
N1RA Ni1G 1_555 1_555
C4G H2G 1_555 1_555
C5G C4G 1_555 1_555
C6G C5G 1_555 1_555
C7G C6G 1_555 1_555
O3G Ni1G 1_555 1_555
H8G O3G 1_555 1_555
C4RA C4G 1_555 1_555
H2RA C4RA 1_555 1_555
C5RA C4RA 1_555 1_555
C6RA C5RA 1_555 1_555
C7RA C6RA 1_555 1_555
O3RA Ni1G 1_555 1_555
H8RA O3RA 1_555 1_555
Ni1B O1BA 1_555 1_555
Ni1A O1KA 1_555 1_555
O1SA Ni1R 1_555 1_555
O1RA Ni1G 1_555 1_555
C12 N1 1_555 1_555
O1 Ni1 1_555 1_555
O3 Ni1 1_555 1_555
C2G C3G 1_555 1_555
C4QA O3QA 1_555 1_555
C8QA N1QA 1_555 1_555
C12QA N1QA 1_555 1_555
C1QA O1QA 1_555 1_555
C2KA C3KA 1_555 1_555
C8R N1R 1_555 1_555
C12R N1R 1_555 1_555
C8SA N1SA 1_555 1_555
C12SA N1SA 1_555 1_555
C4R O3R 1_555 1_555
C4SA O3SA 1_555 1_555
C8G N1G 1_555 1_555
C12G N1G 1_555 1_555
C8RA N1RA 1_555 1_555
C12RA N1RA 1_555 1_555
C4G O3G 1_555 1_555
C4RA O3RA 1_555 1_555

#END
