
#######################################################################
#
#                 Cambridge Crystallographic Data Centre
#                                CCDC 
#
#######################################################################
#
# If this CIF has been generated from an entry in the Cambridge 
# Structural Database, then it will include bibliographic, chemical, 
# crystal, experimental, refinement or atomic coordinate data resulting 
# from the CCDC's data processing and validation procedures.
#
#######################################################################

data_HUYLAP
_symmetry_cell_setting           monoclinic
_symmetry_space_group_name_H-M   'P 21/c'
_symmetry_Int_Tables_number      14
_space_group_name_Hall           '-P 2ybc'
loop_
_symmetry_equiv_pos_site_id
_symmetry_equiv_pos_as_xyz
1 x,y,z
2 -x,1/2+y,1/2-z
3 -x,-y,-z
4 x,1/2-y,1/2+z
_cell_length_a                   13.7575(2)
_cell_length_b                   14.2492(2)
_cell_length_c                   10.3048(2)
_cell_angle_alpha                90
_cell_angle_beta                 109.2290(10)
_cell_angle_gamma                90
_cell_volume                     1907.38
loop_
_atom_site_label
_atom_site_type_symbol
_atom_site_fract_x
_atom_site_fract_y
_atom_site_fract_z
Co1 Co 0.250371(15) 0.239407(14) 0.781029(19)
C1 C 0.45577(11) 0.33037(11) 0.93883(15)
C2 C 0.54332(11) 0.33856(11) 1.07210(15)
C3 C 0.61378(12) 0.41151(11) 1.09567(15)
H1 H 0.6101 0.4538 1.0255
C4 C 0.55269(12) 0.27394(11) 1.17671(16)
H2 H 0.5070 0.2238 1.1618
C5 C 0.62873(13) 0.28354(12) 1.30176(16)
H3 H 0.6347 0.2391 1.3701
C6 C 0.68981(12) 0.42213(12) 1.22277(16)
H4 H 0.7360 0.4718 1.2374
C7 C 0.69718(11) 0.35904(11) 1.32786(15)
C8 C 0.77658(11) 0.36680(12) 1.47010(15)
H5 H 0.8176 0.3091 1.4875
C9 C 0.72485(11) 0.37464(11) 1.58114(15)
H6 H 0.6769 0.3220 1.5692
C10 C 0.80375(11) 0.36797(11) 1.72492(15)
C11 C 0.86878(12) 0.29016(12) 1.75705(16)
H7 H 0.8613 0.2431 1.6919
C12 C 0.81214(12) 0.43451(12) 1.82631(15)
H8 H 0.7678 0.4858 1.8078
C13 C 1.04115(11) 0.34393(11) 2.11824(15)
C14 C 0.95454(11) 0.35039(11) 1.98405(15)
C15 C 0.88621(12) 0.42525(12) 1.95528(16)
H9 H 0.8900 0.4696 2.0230
C16 C 0.94393(12) 0.28189(11) 1.88380(16)
H10 H 0.9878 0.2303 1.9025
O1 O 0.38308(9) 0.27550(8) 0.94021(11)
O3 O 0.45776(8) 0.37738(8) 0.83808(11)
O5 O 0.84433(9) 0.44294(9) 1.47693(12)
H15 H 0.8994(18) 0.4326(16) 1.539(2)
O6 O 0.66641(9) 0.45965(9) 1.55847(11)
H16 H 0.6295(17) 0.4623(16) 1.599(2)
O7 O 1.11772(8) 0.29478(8) 2.11723(11)
O8 O 1.03489(8) 0.38706(8) 2.22073(11)
O9 O 0.26649(11) 0.35441(9) 0.67058(13)
H17 H 0.3336(19) 0.3693(16) 0.707(2)
H18 H 0.2525(18) 0.3582(17) 0.593(3)
O10 O 0.33102(10) 0.15244(10) 0.68292(14)
H19 H 0.3425(18) 0.1735(18) 0.621(3)
H20 H 0.3791(18) 0.1188(16) 0.724(2)
O11 O 0.22226(10) 0.12636(9) 0.89532(11)
H21 H 0.2526(16) 0.0754(16) 0.906(2)
H22 H 0.1572(18) 0.1165(15) 0.849(2)
O12 O 0.16873(11) 0.32632(11) 0.87210(15)
H23 H 0.1504(18) 0.3160(17) 0.931(3)
H24 H 0.130(2) 0.3629(18) 0.823(3)
Co1C Co 1.250371(15) 0.260593(14) 2.281029(19)
O7C O 0.11772(8) 0.20522(8) 0.61723(11)
O2 O 0.52660(12) 0.50575(11) 0.68754(17)
H11 H 0.5185(19) 0.4733(19) 0.743(3)
H12 H 0.475(2) 0.520(2) 0.643(3)
O4 O -0.04417(11) -0.04126(10) 0.81393(14)
H13 H -0.0282(18) 0.0049(18) 0.777(2)
H14 H -0.085(2) -0.0232(19) 0.849(3)
loop_
_geom_bond_atom_site_label_1
_geom_bond_atom_site_label_2
_geom_bond_site_symmetry_1
_geom_bond_site_symmetry_2
Co1 O1 1_555 1_555
C1 C2 1_555 1_555
C2 C3 1_555 1_555
C3 H1 1_555 1_555
C4 C2 1_555 1_555
H2 C4 1_555 1_555
C5 C4 1_555 1_555
H3 C5 1_555 1_555
C6 C3 1_555 1_555
H4 C6 1_555 1_555
C7 C5 1_555 1_555
C8 C7 1_555 1_555
H5 C8 1_555 1_555
C9 C8 1_555 1_555
H6 C9 1_555 1_555
C10 C9 1_555 1_555
C11 C10 1_555 1_555
H7 C11 1_555 1_555
C12 C10 1_555 1_555
H8 C12 1_555 1_555
C13 C14 1_555 1_555
C14 C15 1_555 1_555
C15 C12 1_555 1_555
H9 C15 1_555 1_555
C16 C11 1_555 1_555
H10 C16 1_555 1_555
O1 C1 1_555 1_555
O2 H11 1_555 1_555
H12 O2 1_555 1_555
O3 C1 1_555 1_555
O4 H13 1_555 1_555
H14 O4 1_555 1_555
O5 C8 1_555 1_555
H15 O5 1_555 1_555
O6 C9 1_555 1_555
H16 O6 1_555 1_555
O7 C13 1_555 1_555
O8 C13 1_555 1_555
O9 Co1 1_555 1_555
H17 O9 1_555 1_555
H18 O9 1_555 1_555
O10 Co1 1_555 1_555
H19 O10 1_555 1_555
H20 O10 1_555 1_555
O11 Co1 1_555 1_555
H21 O11 1_555 1_555
H22 O11 1_555 1_555
O12 Co1 1_555 1_555
H23 O12 1_555 1_555
H24 O12 1_555 1_555
Co1C O7 1_555 1_555
O7C Co1 1_555 1_555
C6 C7 1_555 1_555
C14 C16 1_555 1_555

#END
