
#######################################################################
#
#                 Cambridge Crystallographic Data Centre
#                                CCDC 
#
#######################################################################
#
# If this CIF has been generated from an entry in the Cambridge 
# Structural Database, then it will include bibliographic, chemical, 
# crystal, experimental, refinement or atomic coordinate data resulting 
# from the CCDC's data processing and validation procedures.
#
#######################################################################

data_HUYLET
_symmetry_cell_setting           monoclinic
_symmetry_space_group_name_H-M   'P 21/c'
_symmetry_Int_Tables_number      14
_space_group_name_Hall           '-P 2ybc'
loop_
_symmetry_equiv_pos_site_id
_symmetry_equiv_pos_as_xyz
1 x,y,z
2 -x,1/2+y,1/2-z
3 -x,-y,-z
4 x,1/2-y,1/2+z
_cell_length_a                   13.7420(4)
_cell_length_b                   14.5235(4)
_cell_length_c                   10.3594(3)
_cell_angle_alpha                90
_cell_angle_beta                 109.0370(10)
_cell_angle_gamma                90
_cell_volume                     1954.47
loop_
_atom_site_label
_atom_site_type_symbol
_atom_site_fract_x
_atom_site_fract_y
_atom_site_fract_z
Mn1 Mn 0.252100(13) 0.237988(13) 0.782093(17)
C1 C 0.46167(9) 0.33239(9) 0.94052(12)
C2 C 0.54835(9) 0.34113(8) 1.07364(12)
C3 C 0.61775(10) 0.41360(9) 1.09833(13)
H1 H 0.6142 0.4555 1.0291
C4 C 0.55736(10) 0.27706(9) 1.17682(13)
H2 H 0.5122 0.2275 1.1612
C5 C 0.63281(10) 0.28666(9) 1.30189(12)
H3 H 0.6391 0.2425 1.3692
C6 C 0.69260(10) 0.42422(9) 1.22555(13)
H4 H 0.7380 0.4737 1.2412
C7 C 0.69987(9) 0.36154(9) 1.32912(12)
C8 C 0.77828(9) 0.36925(9) 1.47107(12)
H5 H 0.8197 0.3129 1.4890
C9 C 0.72472(9) 0.37673(9) 1.58035(12)
H6 H 0.6761 0.3254 1.5672
C10 C 0.80197(9) 0.36960(9) 1.72377(12)
C11 C 0.86614(10) 0.29256(9) 1.75665(13)
H7 H 0.8587 0.2461 1.6924
C12 C 0.81016(10) 0.43531(9) 1.82396(13)
H8 H 0.7663 0.4859 1.8049
C13 C 1.03712(9) 0.34551(9) 2.11601(12)
C14 C 0.95082(9) 0.35190(9) 1.98225(12)
C15 C 0.88349(10) 0.42604(9) 1.95277(13)
H9 H 0.8874 0.4699 2.0196
C16 C 0.94042(9) 0.28445(9) 1.88316(13)
H10 H 0.9839 0.2336 1.9024
O1 O 0.38915(7) 0.27880(7) 0.94177(9)
O3 O 0.46403(7) 0.37784(7) 0.83984(9)
O5 O 0.84556(7) 0.44467(7) 1.47884(10)
H15 H 0.8987(15) 0.4350(14) 1.539(2)
O6 O 0.66717(7) 0.46064(7) 1.55705(9)
H16 H 0.6297(14) 0.4629(13) 1.5955(19)
O7 O 1.11391(7) 0.29783(7) 2.11538(9)
O8 O 1.03020(7) 0.38752(7) 2.21786(9)
O9 O 0.27155(9) 0.35360(8) 0.66841(11)
H17 H 0.3362(16) 0.3702(14) 0.701(2)
H18 H 0.2523(15) 0.3601(14) 0.590(2)
O10 O 0.33491(9) 0.14687(8) 0.68013(12)
H19 H 0.3482(18) 0.1675(17) 0.616(3)
H20 H 0.3823(16) 0.1124(14) 0.722(2)
O11 O 0.21816(8) 0.12185(7) 0.89460(9)
H21 H 0.2489(14) 0.0728(14) 0.9082(19)
H22 H 0.1547(16) 0.1138(13) 0.849(2)
O12 O 0.16692(9) 0.32909(9) 0.87508(12)
H23 H 0.1475(14) 0.3183(14) 0.937(2)
H24 H 0.1296(17) 0.3665(16) 0.827(2)
Mn1C Mn 1.252100(13) 0.262012(13) 2.282093(17)
O7C O 0.11391(7) 0.20217(7) 0.61538(9)
O2 O 0.52641(9) 0.50387(9) 0.68657(14)
H11 H 0.5171(17) 0.4725(16) 0.741(2)
H12 H 0.474(2) 0.5159(18) 0.642(3)
O4 O -0.04430(9) -0.04007(8) 0.81314(12)
H13 H -0.0277(16) 0.0056(15) 0.772(2)
H14 H -0.0820(18) -0.0226(17) 0.847(3)
loop_
_geom_bond_atom_site_label_1
_geom_bond_atom_site_label_2
_geom_bond_site_symmetry_1
_geom_bond_site_symmetry_2
Mn1 O1 1_555 1_555
C1 C2 1_555 1_555
C2 C3 1_555 1_555
C3 H1 1_555 1_555
C4 C2 1_555 1_555
H2 C4 1_555 1_555
C5 C4 1_555 1_555
H3 C5 1_555 1_555
C6 C3 1_555 1_555
H4 C6 1_555 1_555
C7 C5 1_555 1_555
C8 C7 1_555 1_555
H5 C8 1_555 1_555
C9 C8 1_555 1_555
H6 C9 1_555 1_555
C10 C9 1_555 1_555
C11 C10 1_555 1_555
H7 C11 1_555 1_555
C12 C10 1_555 1_555
H8 C12 1_555 1_555
C13 C14 1_555 1_555
C14 C15 1_555 1_555
C15 C12 1_555 1_555
H9 C15 1_555 1_555
C16 C11 1_555 1_555
H10 C16 1_555 1_555
O1 C1 1_555 1_555
O2 H11 1_555 1_555
H12 O2 1_555 1_555
O3 C1 1_555 1_555
O4 H13 1_555 1_555
H14 O4 1_555 1_555
O5 C8 1_555 1_555
H15 O5 1_555 1_555
O6 C9 1_555 1_555
H16 O6 1_555 1_555
O7 C13 1_555 1_555
O8 C13 1_555 1_555
O9 Mn1 1_555 1_555
H17 O9 1_555 1_555
H18 O9 1_555 1_555
O10 Mn1 1_555 1_555
H19 O10 1_555 1_555
H20 O10 1_555 1_555
O11 Mn1 1_555 1_555
H21 O11 1_555 1_555
H22 O11 1_555 1_555
O12 Mn1 1_555 1_555
H23 O12 1_555 1_555
H24 O12 1_555 1_555
Mn1C O7 1_555 1_555
O7C Mn1 1_555 1_555
C6 C7 1_555 1_555
C14 C16 1_555 1_555

#END
