
#######################################################################
#
#                 Cambridge Crystallographic Data Centre
#                                CCDC 
#
#######################################################################
#
# If this CIF has been generated from an entry in the Cambridge 
# Structural Database, then it will include bibliographic, chemical, 
# crystal, experimental, refinement or atomic coordinate data resulting 
# from the CCDC's data processing and validation procedures.
#
#######################################################################

data_HUYQEY
_symmetry_cell_setting           monoclinic
_symmetry_space_group_name_H-M   'P 21'
_symmetry_Int_Tables_number      4
_space_group_name_Hall           'P 2yb'
loop_
_symmetry_equiv_pos_site_id
_symmetry_equiv_pos_as_xyz
1 x,y,z
2 -x,1/2+y,-z
_cell_length_a                   8.1582(12)
_cell_length_b                   8.3432(12)
_cell_length_c                   9.3162(13)
_cell_angle_alpha                90
_cell_angle_beta                 104.499(2)
_cell_angle_gamma                90
_cell_volume                     613.917
loop_
_atom_site_label
_atom_site_type_symbol
_atom_site_fract_x
_atom_site_fract_y
_atom_site_fract_z
Sb1 Sb 0.46997(8) 0.1451(2) 0.74528(8)
P1 P 0.6383(4) 0.4780(4) 0.9673(3)
P2 P 1.3641(4) 0.8069(4) 0.5332(3)
O1 O 0.5622(11) 0.3778(11) 0.8304(10)
O2 O 0.4986(10) 0.5534(11) 1.0291(9)
O3 O 0.7775(10) 0.3996(11) 1.0831(10)
O4 O 1.2295(11) 0.9019(12) 0.4301(10)
O5 O 1.4548(11) 0.8954(11) 0.6720(9)
O6 O 1.4957(10) 0.7281(11) 0.4655(9)
O7 O 0.7071(9) 0.0957(8) 0.7926(8)
H1 H 0.7201 -0.0013 0.7702
H2 H 0.7560 0.1568 0.7433
N1 N 0.8420(11) 0.6145(17) 0.7925(10)
N2 N 1.1555(11) 0.6700(17) 0.7019(10)
H5 H 1.2059 0.7445 0.7701
C1 C 0.7262(13) 0.648(4) 0.8914(10)
H6 H 0.6328 0.7127 0.8359
H7 H 0.7880 0.7131 0.9737
C2 C 1.0083(15) 0.5493(16) 0.8809(14)
H8 H 0.965(16) 0.419(16) 0.909(14)
H9 H 1.049(13) 0.661(19) 0.965(13)
C3 C 1.1263(15) 0.5187(15) 0.7848(15)
H10 H 1.0797 0.4354 0.7136
H11 H 1.2339 0.4809 0.8455
C4 C 0.9887(16) 0.7315(17) 0.6158(15)
H12 H 0.939(15) 0.681(16) 0.536(14)
H13 H 1.013(17) 0.818(17) 0.571(15)
C5 C 0.8709(17) 0.7626(15) 0.7155(16)
H14 H 0.924(16) 0.839(17) 0.799(15)
H15 H 0.781(19) 0.767(17) 0.685(16)
C6 C 1.2733(14) 0.631(4) 0.6048(13)
H16 H 1.2119 0.5680 0.5213
H17 H 1.3653 0.5659 0.6612
Sb1A Sb 0.53003(8) 0.6451(2) 1.25472(8)
Sb1_2 Sb 1.46997(8) 1.1451(2) 0.74528(8)
Sb1A_2 Sb 1.53003(8) 0.6451(2) 0.25472(8)
O2A O 0.5014(10) 0.0534(11) 0.9709(9)
O5_2 O 0.4548(11) -0.1046(11) 0.6720(9)
O6A O 0.5043(10) 0.2281(11) 0.5345(9)
O8 O 0.9813(14) 0.659(3) 0.2580(14)
H3 H 0.9118 0.6056 0.1920
H4 H 0.9270 0.7190 0.3036
loop_
_geom_bond_atom_site_label_1
_geom_bond_atom_site_label_2
_geom_bond_site_symmetry_1
_geom_bond_site_symmetry_2
Sb1 O1 1_555 1_555
P1 O1 1_555 1_555
P2 O4 1_555 1_555
O2 P1 1_555 1_555
O3 P1 1_555 1_555
O5 P2 1_555 1_555
O6 P2 1_555 1_555
O7 Sb1 1_555 1_555
H1 O7 1_555 1_555
H2 O7 1_555 1_555
O8 H3 1_555 1_555
H4 O8 1_555 1_555
N1 C1 1_555 1_555
N2 H5 1_555 1_555
C1 P1 1_555 1_555
H6 C1 1_555 1_555
H7 C1 1_555 1_555
C2 N1 1_555 1_555
H8 C2 1_555 1_555
H9 C2 1_555 1_555
C3 N2 1_555 1_555
H10 C3 1_555 1_555
H11 C3 1_555 1_555
C4 N2 1_555 1_555
H12 C4 1_555 1_555
H13 C4 1_555 1_555
C5 N1 1_555 1_555
H14 C5 1_555 1_555
H15 C5 1_555 1_555
C6 P2 1_555 1_555
H16 C6 1_555 1_555
H17 C6 1_555 1_555
Sb1A O2 1_555 1_555
Sb1_2 O5 1_555 1_555
Sb1A_2 O6 1_555 1_555
O2A Sb1 1_555 1_555
O5_2 Sb1 1_555 1_555
O6A Sb1 1_555 1_555
N2 C6 1_555 1_555
C2 C3 1_555 1_555
C4 C5 1_555 1_555

#END
