
#######################################################################
#
#                 Cambridge Crystallographic Data Centre
#                                CCDC 
#
#######################################################################
#
# If this CIF has been generated from an entry in the Cambridge 
# Structural Database, then it will include bibliographic, chemical, 
# crystal, experimental, refinement or atomic coordinate data resulting 
# from the CCDC's data processing and validation procedures.
#
#######################################################################

data_HUYQAU
_symmetry_cell_setting           orthorhombic
_symmetry_space_group_name_H-M   'P b c a'
_symmetry_Int_Tables_number      61
_space_group_name_Hall           '-P 2ac 2ab'
loop_
_symmetry_equiv_pos_site_id
_symmetry_equiv_pos_as_xyz
1 x,y,z
2 1/2-x,-y,1/2+z
3 -x,1/2+y,1/2-z
4 1/2+x,1/2-y,-z
5 -x,-y,-z
6 1/2+x,y,1/2-z
7 x,1/2-y,1/2+z
8 1/2-x,1/2+y,z
_cell_length_a                   8.9690(16)
_cell_length_b                   9.5389(17)
_cell_length_c                   15.173(3)
_cell_angle_alpha                90
_cell_angle_beta                 90
_cell_angle_gamma                90
_cell_volume                     1298.12
loop_
_atom_site_label
_atom_site_type_symbol
_atom_site_fract_x
_atom_site_fract_y
_atom_site_fract_z
Zn1 Zn 0.39688(4) 0.53703(3) 0.18117(2)
P1 P 0.12276(8) 0.73133(7) 0.20171(5)
O1 O 0.2478(3) 0.6676(3) 0.14757(15)
O2 O 0.0649(3) 0.6274(2) 0.26759(15)
O3 O 0.1666(3) 0.8692(2) 0.24445(15)
N1 N 0.0062(2) 0.9147(2) 0.07990(13)
C1 C -0.0264(3) 0.7792(3) 0.12591(18)
H3 H -0.1192 0.7878 0.1583
H4 H -0.0387 0.7055 0.0825
C2 C 0.1078(3) 0.8907(3) 0.00427(17)
H5 H 0.2017 0.8532 0.0255
H6 H 0.0639 0.8222 -0.0352
C3 C -0.1364(3) 0.9741(3) 0.04561(17)
H7 H -0.1836 0.9067 0.0068
H8 H -0.2036 0.9922 0.0944
Zn1D Zn -0.39688(4) 1.46297(3) -0.18117(2)
Zn1E Zn -0.10312(4) 0.53703(3) 0.31883(2)
Zn1G Zn 0.10312(4) 1.03703(3) 0.18117(2)
Zn1C Zn -0.10312(4) 0.96297(3) -0.18117(2)
Zn1A Zn 0.10312(4) 1.46297(3) -0.31883(2)
P1D P -0.12276(8) 1.26867(7) -0.20171(5)
O1D O -0.2478(3) 1.3324(3) -0.14757(15)
O2D O -0.0649(3) 1.3726(2) -0.26759(15)
O2E O 0.5649(3) 0.6274(2) 0.23241(15)
O2A O -0.5649(3) 1.3726(2) -0.23241(15)
O3D O -0.1666(3) 1.1308(2) -0.24445(15)
O3G O 0.3334(3) 0.3692(2) 0.24445(15)
O3C O -0.3334(3) 1.6308(2) -0.24445(15)
N1D N -0.0062(2) 1.0853(2) -0.07990(13)
N1G N 0.4938(2) 0.4147(2) 0.07990(13)
N1C N -0.4938(2) 1.5853(2) -0.07990(13)
C1D C 0.0264(3) 1.2208(3) -0.12591(18)
H3D H 0.1192 1.2122 -0.1583
H4D H 0.0387 1.2945 -0.0825
C2D C -0.1078(3) 1.1093(3) -0.00427(17)
H5D H -0.2017 1.1468 -0.0255
H6D H -0.0639 1.1778 0.0352
C3D C 0.1364(3) 1.0259(3) -0.04561(17)
H7D H 0.1836 1.0933 -0.0068
H8D H 0.2036 1.0078 -0.0944
O4 O 0.5192(6) 0.4180(5) 0.4140(4)
H1 H 0.4780 0.4698 0.4525
H2 H 0.4930 0.3333 0.4220
loop_
_geom_bond_atom_site_label_1
_geom_bond_atom_site_label_2
_geom_bond_site_symmetry_1
_geom_bond_site_symmetry_2
Zn1 O1 1_555 1_555
P1 O1 1_555 1_555
O2 P1 1_555 1_555
O3 P1 1_555 1_555
O4 H1 1_555 1_555
H2 O4 1_555 1_555
N1 C1 1_555 1_555
C1 P1 1_555 1_555
H3 C1 1_555 1_555
H4 C1 1_555 1_555
C2 N1 1_555 1_555
H5 C2 1_555 1_555
H6 C2 1_555 1_555
C3 N1 1_555 1_555
H7 C3 1_555 1_555
H8 C3 1_555 1_555
Zn1D O1D 1_555 1_555
Zn1E O2 1_555 1_555
Zn1G O3 1_555 1_555
Zn1C O3D 1_555 1_555
Zn1A O2D 1_555 1_555
P1D O1D 1_555 1_555
O2D P1D 1_555 1_555
O2E Zn1 1_555 1_555
O2A Zn1D 1_555 1_555
O3D P1D 1_555 1_555
O3G Zn1 1_555 1_555
O3C Zn1D 1_555 1_555
N1D Zn1C 1_555 1_555
N1G Zn1 1_555 1_555
N1C Zn1D 1_555 1_555
C1D P1D 1_555 1_555
H3D C1D 1_555 1_555
H4D C1D 1_555 1_555
C2D C3 1_555 1_555
H5D C2D 1_555 1_555
H6D C2D 1_555 1_555
C3D C2 1_555 1_555
H7D C3D 1_555 1_555
H8D C3D 1_555 1_555
N1 Zn1G 1_555 1_555
N1D C1D 1_555 1_555
N1D C2D 1_555 1_555
N1D C3D 1_555 1_555

#END
