
#######################################################################
#
#                 Cambridge Crystallographic Data Centre
#                                CCDC 
#
#######################################################################
#
# If this CIF has been generated from an entry in the Cambridge 
# Structural Database, then it will include bibliographic, chemical, 
# crystal, experimental, refinement or atomic coordinate data resulting 
# from the CCDC's data processing and validation procedures.
#
#######################################################################

data_HUYYAC
_symmetry_cell_setting           monoclinic
_symmetry_space_group_name_H-M   'P 21/c'
_symmetry_Int_Tables_number      14
_space_group_name_Hall           '-P 2ybc'
loop_
_symmetry_equiv_pos_site_id
_symmetry_equiv_pos_as_xyz
1 x,y,z
2 -x,1/2+y,1/2-z
3 -x,-y,-z
4 x,1/2-y,1/2+z
_cell_length_a                   18.221(4)
_cell_length_b                   11.985(2)
_cell_length_c                   22.525(9)
_cell_angle_alpha                90
_cell_angle_beta                 115.68(2)
_cell_angle_gamma                90
_cell_volume                     4433.12
loop_
_atom_site_label
_atom_site_type_symbol
_atom_site_fract_x
_atom_site_fract_y
_atom_site_fract_z
O1 O 0.5269(3) -0.4807(4) -0.2776(3)
C1 C 1.0384(4) -0.2886(6) -0.2653(4)
C2 C 1.0382(4) -0.3676(7) -0.3144(4)
H1 H 0.9925 -0.4120 -0.3363
C3 C 1.1063(5) -0.3793(7) -0.3300(4)
H2 H 1.1044 -0.4307 -0.3616
C4 C 0.0473(4) -0.1163(6) -0.4360(4)
Cu1 Cu 0.50491(5) -0.10074(7) -0.44235(5)
Cu2 Cu 0.50902(5) -0.32412(7) -0.24459(5)
O2 O 0.5144(3) -0.2727(4) -0.4461(3)
O3 O 0.5075(3) -0.2504(5) -0.3475(3)
O4 O 0.5039(3) -0.4287(4) -0.0489(2)
O5 O 0.5126(3) -0.4179(4) -0.1475(3)
O6 O 0.5104(3) -0.6695(4) -0.2890(3)
N1 N 0.3820(4) -0.1204(5) -0.4792(3)
N2 N 0.2544(4) -0.1367(5) -0.4855(3)
N3 N -0.3712(4) -0.0895(5) -0.3925(3)
N4 N -0.2389(3) -0.0871(5) -0.3760(3)
N5 N 0.6345(3) -0.2951(5) -0.1998(3)
N6 N 0.7629(4) -0.2749(5) -0.1907(3)
N7 N 1.3831(4) -0.3412(5) -0.2918(3)
N8 N 1.2505(4) -0.3307(5) -0.3092(3)
C5 C 0.5108(5) -0.3103(7) -0.3926(5)
H3 H 0.5106 -0.3873 -0.3875
C6 C 0.5099(5) -0.3739(7) -0.0971(4)
H4 H 0.5125 -0.2965 -0.0941
C7 C 0.5038(4) -0.5756(6) -0.2646(4)
H5 H 0.4805 -0.5759 -0.2351
C8 C 0.3323(4) -0.0972(7) -0.4492(4)
H6 H 0.3490 -0.0596 -0.4093
C9 C 0.3313(5) -0.1763(8) -0.5386(5)
H7 H 0.3475 -0.2016 -0.5701
C10 C 0.2540(5) -0.1871(8) -0.5419(4)
H8 H 0.2097 -0.2217 -0.5754
C11 C 0.1843(4) -0.1296(6) -0.4680(4)
C12 C 0.1205(4) -0.2084(7) -0.4935(4)
H9 H 0.1227 -0.2652 -0.5208
C13 C 0.1799(5) -0.0438(8) -0.4267(5)
H10 H 0.2211 0.0093 -0.4105
C14 C -0.3172(4) -0.1114(6) -0.4184(4)
H11 H -0.3324 -0.1398 -0.4606
C15 C -0.3224(5) -0.0478(7) -0.3282(4)
H12 H -0.3415 -0.0252 -0.2980
C16 C -0.2411(5) -0.0464(7) -0.3176(4)
H13 H -0.1967 -0.0231 -0.2796
C17 C -0.1673(4) -0.0960(6) -0.3904(4)
C18 C -0.0995(5) -0.0206(7) -0.3595(4)
H14 H -0.1003 0.0331 -0.3300
C19 C -0.0316(5) -0.0289(7) -0.3744(4)
H15 H 0.0117 0.0201 -0.3539
C20 C -0.0268(4) -0.1089(6) -0.4195(4)
C21 C -0.0944(5) -0.1851(8) -0.4490(5)
H16 H -0.0935 -0.2395 -0.4781
C22 C -0.1629(5) -0.1776(8) -0.4338(4)
H17 H -0.2056 -0.2279 -0.4532
C23 C 0.1131(5) -0.0373(8) -0.4095(5)
H18 H 0.1122 0.0183 -0.3810
C24 C 0.0530(5) -0.2019(7) -0.4780(4)
H19 H 0.0116 -0.2545 -0.4955
C25 C 0.6844(5) -0.3197(7) -0.2281(4)
H20 H 0.6693 -0.3604 -0.2667
C26 C 0.6805(5) -0.2333(7) -0.1423(4)
H21 H 0.6609 -0.2056 -0.1133
C27 C 0.7603(5) -0.2201(7) -0.1354(4)
H22 H 0.8029 -0.1831 -0.1016
C28 C 0.8330(4) -0.2793(6) -0.2086(4)
C29 C 0.8277(5) -0.3450(8) -0.2628(4)
H23 H 0.7813 -0.3872 -0.2865
C30 C 0.8941(5) -0.3462(7) -0.2812(4)
H24 H 0.8893 -0.3890 -0.3172
C31 C 0.9681(4) -0.2833(7) -0.2456(4)
C32 C 0.9721(5) -0.2190(7) -0.1901(4)
H25 H 1.0191 -0.1783 -0.1655
C33 C 0.9056(5) -0.2159(7) -0.1715(4)
H26 H 0.9097 -0.1732 -0.1357
C34 C 1.1100(5) -0.2183(7) -0.2341(4)
H27 H 1.1118 -0.1655 -0.2032
C35 C 1.3311(4) -0.3019(6) -0.2680(4)
H28 H 1.3470 -0.2612 -0.2292
C36 C 1.3350(5) -0.3965(7) -0.3507(4)
H29 H 1.3544 -0.4314 -0.3779
C37 C 1.2532(5) -0.3914(7) -0.3624(4)
H30 H 1.2091 -0.4218 -0.3981
C38 C 1.1771(4) -0.3116(6) -0.2969(4)
C39 C 1.1792(5) -0.2291(7) -0.2503(4)
H31 H 1.2242 -0.1827 -0.2305
Cu1_2 Cu -0.49509(5) -0.10074(7) -0.44235(5)
Cu1A Cu 0.49509(5) -0.60074(7) -0.05765(5)
Cu1C Cu 0.50491(5) -0.39926(7) 0.05765(5)
Cu2A Cu 0.49098(5) -0.82412(7) -0.25541(5)
Cu2_2 Cu 1.50902(5) -0.32412(7) -0.24459(5)
O4C O 0.5039(3) -0.0713(4) -0.5489(2)
O4A O 0.4961(3) 0.0713(4) -0.4511(2)
O6A O 0.4896(3) -0.1695(4) -0.2110(3)
N3_2 N 0.6288(4) -0.0895(5) -0.3925(3)
N7_2 N 0.3831(4) -0.3412(5) -0.2918(3)
O7 O 0.6382(9) -0.5820(11) -0.3480(8)
H32 H 0.6469 -0.5435 -0.3190
H33 H 0.5864 -0.6151 -0.3750
O8 O 0.3858(12) -0.6317(17) -0.4841(10)
H34 H 0.4178 -0.5788 -0.4662
H35 H 0.3428 -0.6178 -0.4788
O9 O 0.1337(6) -0.4637(7) -0.5723(5)
H36 H 0.2478 -0.5465 -0.5149
C40 C 0.2100(14) -0.5024(19) -0.5507(12)
O10 O 0.2605(13) -0.4985(19) -0.5896(11)
O11? O 0.0826(5) -0.5418(7) -0.4802(4)
C41? C 0.1354(17) -0.528(3) -0.5159(16)
loop_
_geom_bond_atom_site_label_1
_geom_bond_atom_site_label_2
_geom_bond_site_symmetry_1
_geom_bond_site_symmetry_2
O1 Cu2 1_555 1_555
C1 C2 1_555 1_555
C2 H1 1_555 1_555
C3 C2 1_555 1_555
H2 C3 1_555 1_555
C4 C20 1_555 1_555
Cu1 O2 1_555 1_555
Cu2 O3 1_555 1_555
O2 C5 1_555 1_555
O3 C5 1_555 1_555
O4 C6 1_555 1_555
O5 Cu2 1_555 1_555
O6 C7 1_555 1_555
N1 Cu1 1_555 1_555
N2 C8 1_555 1_555
N3 C14 1_555 1_555
N4 C14 1_555 1_555
N5 Cu2 1_555 1_555
N6 C25 1_555 1_555
N7 C35 1_555 1_555
N8 C35 1_555 1_555
C5 H3 1_555 1_555
C6 O5 1_555 1_555
H4 C6 1_555 1_555
C7 O1 1_555 1_555
H5 C7 1_555 1_555
C8 N1 1_555 1_555
H6 C8 1_555 1_555
C9 N1 1_555 1_555
H7 C9 1_555 1_555
C10 N2 1_555 1_555
H8 C10 1_555 1_555
C11 N2 1_555 1_555
C12 C11 1_555 1_555
H9 C12 1_555 1_555
C13 C11 1_555 1_555
H10 C13 1_555 1_555
C14 H11 1_555 1_555
C15 N3 1_555 1_555
H12 C15 1_555 1_555
C16 N4 1_555 1_555
H13 C16 1_555 1_555
C17 N4 1_555 1_555
C18 C17 1_555 1_555
H14 C18 1_555 1_555
C19 C18 1_555 1_555
H15 C19 1_555 1_555
C20 C19 1_555 1_555
C21 C20 1_555 1_555
H16 C21 1_555 1_555
C22 C17 1_555 1_555
H17 C22 1_555 1_555
C23 C4 1_555 1_555
H18 C23 1_555 1_555
C24 C4 1_555 1_555
H19 C24 1_555 1_555
C25 N5 1_555 1_555
H20 C25 1_555 1_555
C26 N5 1_555 1_555
H21 C26 1_555 1_555
C27 N6 1_555 1_555
H22 C27 1_555 1_555
C28 N6 1_555 1_555
C29 C28 1_555 1_555
H23 C29 1_555 1_555
C30 C29 1_555 1_555
H24 C30 1_555 1_555
C31 C1 1_555 1_555
C32 C31 1_555 1_555
H25 C32 1_555 1_555
C33 C28 1_555 1_555
H26 C33 1_555 1_555
C34 C1 1_555 1_555
H27 C34 1_555 1_555
C35 H28 1_555 1_555
C36 N7 1_555 1_555
H29 C36 1_555 1_555
C37 N8 1_555 1_555
H30 C37 1_555 1_555
C38 C3 1_555 1_555
C39 C34 1_555 1_555
H31 C39 1_555 1_555
O7 H32 1_555 1_555
H33 O7 1_555 1_555
O8 H34 1_555 1_555
H35 O8 1_555 1_555
O9 C40 1_555 1_555
H36 C40 1_555 1_555
C40 O10 1_555 1_555
Cu1_2 N3 1_555 1_555
Cu1A O4 1_555 1_555
Cu1C O4 1_555 1_555
Cu2A O6 1_555 1_555
Cu2_2 N7 1_555 1_555
O4C Cu1 1_555 1_555
O4A Cu1 1_555 1_555
O6A Cu2 1_555 1_555
N3_2 Cu1 1_555 1_555
N7_2 Cu2 1_555 1_555
N8 C38 1_555 1_555
C9 C10 1_555 1_555
C12 C24 1_555 1_555
C13 C23 1_555 1_555
C15 C16 1_555 1_555
C21 C22 1_555 1_555
C26 C27 1_555 1_555
C30 C31 1_555 1_555
C32 C33 1_555 1_555
C36 C37 1_555 1_555
C38 C39 1_555 1_555

#END
