
#######################################################################
#
#                 Cambridge Crystallographic Data Centre
#                                CCDC 
#
#######################################################################
#
# If this CIF has been generated from an entry in the Cambridge 
# Structural Database, then it will include bibliographic, chemical, 
# crystal, experimental, refinement or atomic coordinate data resulting 
# from the CCDC's data processing and validation procedures.
#
#######################################################################

data_HUZCEL
_symmetry_cell_setting           monoclinic
_symmetry_space_group_name_H-M   'P 21/m'
_symmetry_Int_Tables_number      11
_space_group_name_Hall           '-P 2yb'
loop_
_symmetry_equiv_pos_site_id
_symmetry_equiv_pos_as_xyz
1 x,y,z
2 -x,1/2+y,-z
3 -x,-y,-z
4 x,1/2-y,z
_cell_length_a                   7.9480(16)
_cell_length_b                   19.681(4)
_cell_length_c                   20.365(4)
_cell_angle_alpha                90
_cell_angle_beta                 100.02(3)
_cell_angle_gamma                90
_cell_volume                     3137
loop_
_atom_site_label
_atom_site_type_symbol
_atom_site_fract_x
_atom_site_fract_y
_atom_site_fract_z
I1 I 0.10069(14) 0.7500 0.22191(6)
I2 I 0.59910(15) 0.7500 0.22324(6)
I3 I 0.49276(12) 0.62908(5) 0.38728(5)
I4 I 0.32273(18) 0.7500 0.02575(7)
I5 I 0.01621(18) 0.7500 0.42578(7)
I6 I 0.38662(14) 0.54649(6) 0.16344(6)
I7 I 0.94018(14) 0.55713(6) 0.28326(7)
I8 I -0.15384(15) 0.62876(7) 0.06070(7)
Ag1 Ag 0.2987(3) 0.7500 0.35649(10)
Ag2 Ag 0.79087(19) 0.67015(9) 0.33464(8)
Ag3 Ag 0.25746(19) 0.61702(8) 0.26485(7)
Ag4 Ag 0.6775(3) 0.7500 0.08531(12)
Ag5 Ag 0.1930(2) 0.66196(9) 0.11403(8)
Ag6 Ag 0.7048(2) 0.61501(10) 0.17735(9)
I3C I 0.49276(12) 0.87092(5) 0.38728(5)
I5_2 I 1.01621(18) 0.7500 0.42578(7)
I6C I 0.38662(14) 0.95351(6) 0.16344(6)
I7_2 I -0.05982(14) 0.55713(6) 0.28326(7)
I7C I 0.94018(14) 0.94287(6) 0.28326(7)
I7C_2 I -0.05982(14) 0.94287(6) 0.28326(7)
I8C I -0.15384(15) 0.87124(7) 0.06070(7)
I8_2 I 0.84616(15) 0.62876(7) 0.06070(7)
I8C_2 I 0.84616(15) 0.87124(7) 0.06070(7)
Ag2C Ag 0.79087(19) 0.82985(9) 0.33464(8)
Ag2_2 Ag -0.20913(19) 0.67015(9) 0.33464(8)
Ag2C_2 Ag -0.20913(19) 0.82985(9) 0.33464(8)
Ag3C Ag 0.25746(19) 0.88298(8) 0.26485(7)
Ag3_2 Ag 1.25746(19) 0.61702(8) 0.26485(7)
Ag4_2 Ag -0.3225(3) 0.7500 0.08531(12)
Ag5C Ag 0.1930(2) 0.83804(9) 0.11403(8)
Ag6C Ag 0.7048(2) 0.88499(10) 0.17735(9)
Ag6_2 Ag -0.2952(2) 0.61501(10) 0.17735(9)
Ag6C_2 Ag -0.2952(2) 0.88499(10) 0.17735(9)
Ni1 Ni 0.2509(4) 0.7500 0.75354(13)
O1 O -0.003(2) 0.7500 0.7108(9)
O2 O 0.207(2) 0.6722(7) 0.8175(7)
O3 O 0.538(6) 0.7500 0.8060(12)
N1 N 0.3003(18) 0.6826(7) 0.6803(6)
C1 C 0.3347(18) 0.7132(8) 0.6252(7)
C2 C 0.372(2) 0.6741(9) 0.5727(8)
H1 H 0.4036 0.6952 0.5359
C3 C 0.362(3) 0.6052(10) 0.5752(9)
H2 H 0.3810 0.5800 0.5386
C4 C 0.326(3) 0.5726(11) 0.6291(11)
H3 H 0.3186 0.5255 0.6309
C5 C 0.299(3) 0.6158(8) 0.6845(9)
H4 H 0.2813 0.5956 0.7240
C6 C 0.081(6) 0.631(3) 0.824(2)
H5 H 0.0552 0.6069 0.7819
H6 H -0.0160 0.6604 0.8257
C7 C 0.077(3) 0.5746(15) 0.8810(14)
H7 H 0.0014 0.5854 0.9119
H8 H 0.0590 0.5286 0.8640
C8 C 0.258(3) 0.5913(14) 0.9058(14)
H9 H 0.3250 0.5503 0.9041
H10 H 0.2690 0.6041 0.9524
C9 C 0.345(4) 0.6510(14) 0.8677(14)
H11 H 0.3849 0.6880 0.8978
H12 H 0.4391 0.6336 0.8483
O2C O 0.207(2) 0.8278(7) 0.8175(7)
N1C N 0.3003(18) 0.8174(7) 0.6803(6)
C1C C 0.3347(18) 0.7868(8) 0.6252(7)
C2C C 0.372(2) 0.8259(9) 0.5727(8)
H1C H 0.4036 0.8048 0.5359
C3C C 0.362(3) 0.8948(10) 0.5752(9)
H2C H 0.3810 0.9200 0.5386
C4C C 0.326(3) 0.9274(11) 0.6291(11)
H3C H 0.3186 0.9745 0.6309
C5C C 0.299(3) 0.8842(8) 0.6845(9)
H4C H 0.2813 0.9044 0.7240
C6C C 0.081(6) 0.869(3) 0.824(2)
H5C H 0.0552 0.8931 0.7819
H6C H -0.0160 0.8396 0.8257
C7C C 0.077(3) 0.9254(15) 0.8810(14)
H7C H 0.0014 0.9146 0.9119
H8C H 0.0590 0.9714 0.8640
C8C C 0.258(3) 0.9087(14) 0.9058(14)
H9C H 0.3250 0.9497 0.9041
H10C H 0.2690 0.8959 0.9524
C9C C 0.345(4) 0.8490(14) 0.8677(14)
H11C H 0.3849 0.8120 0.8978
H12C H 0.4391 0.8664 0.8483
O4 O 0.788(3) 0.6404(10) 0.6925(9)
N2 N 0.808(2) 0.5884(10) 0.5941(9)
C10 C 0.776(3) 0.5902(14) 0.6572(14)
H13 H 0.7431 0.5498 0.6750
C11 C 0.857(4) 0.6499(13) 0.5645(12)
H14 H 0.8752 0.6407 0.5200
H15 H 0.9613 0.6668 0.5906
H16 H 0.7689 0.6833 0.5633
C12 C 0.804(4) 0.5272(11) 0.5555(13)
H17 H 0.8310 0.5377 0.5124
H18 H 0.6927 0.5072 0.5503
H19 H 0.8873 0.4958 0.5780
loop_
_geom_bond_atom_site_label_1
_geom_bond_atom_site_label_2
_geom_bond_site_symmetry_1
_geom_bond_site_symmetry_2
I1 Ag1 1_555 1_555
I2 Ag2 1_555 1_555
I3 Ag1 1_555 1_555
I4 Ag4 1_555 1_555
I5 Ag1 1_555 1_555
I6 Ag3 1_555 1_555
I7 Ag2 1_555 1_555
I8 Ag5 1_555 1_555
Ag1 Ag3 1_555 1_555
Ag2 I3 1_555 1_555
Ag3 I1 1_555 1_555
Ag4 I2 1_555 1_555
Ag5 I1 1_555 1_555
Ag6 I2 1_555 1_555
Ni1 O1 1_555 1_555
O2 Ni1 1_555 1_555
O3 Ni1 1_555 1_555
O4 C10 1_555 1_555
N1 Ni1 1_555 1_555
N2 C10 1_555 1_555
C1 N1 1_555 1_555
C2 C1 1_555 1_555
H1 C2 1_555 1_555
C3 C2 1_555 1_555
H2 C3 1_555 1_555
C4 C3 1_555 1_555
H3 C4 1_555 1_555
C5 N1 1_555 1_555
H4 C5 1_555 1_555
C6 O2 1_555 1_555
H5 C6 1_555 1_555
H6 C6 1_555 1_555
C7 C6 1_555 1_555
H7 C7 1_555 1_555
H8 C7 1_555 1_555
C8 C7 1_555 1_555
H9 C8 1_555 1_555
H10 C8 1_555 1_555
C9 O2 1_555 1_555
H11 C9 1_555 1_555
H12 C9 1_555 1_555
C10 H13 1_555 1_555
C11 N2 1_555 1_555
H14 C11 1_555 1_555
H15 C11 1_555 1_555
H16 C11 1_555 1_555
C12 N2 1_555 1_555
H17 C12 1_555 1_555
H18 C12 1_555 1_555
H19 C12 1_555 1_555
I3C Ag1 1_555 1_555
I5_2 Ag2 1_555 1_555
I6C Ag3C 1_555 1_555
I7_2 Ag3 1_555 1_555
I7C Ag2C 1_555 1_555
I7C_2 Ag2C_2 1_555 1_555
I8C Ag4_2 1_555 1_555
I8_2 Ag4 1_555 1_555
I8C_2 Ag4 1_555 1_555
Ag2C I2 1_555 1_555
Ag2_2 I5 1_555 1_555
Ag2C_2 I5 1_555 1_555
Ag3C I1 1_555 1_555
Ag3_2 I7 1_555 1_555
Ag4_2 I8 1_555 1_555
Ag5C I1 1_555 1_555
Ag6C I2 1_555 1_555
Ag6_2 I8 1_555 1_555
Ag6C_2 I7C_2 1_555 1_555
O2C Ni1 1_555 1_555
N1C Ni1 1_555 1_555
C1C C1 1_555 1_555
C2C C1C 1_555 1_555
H1C C2C 1_555 1_555
C3C C2C 1_555 1_555
H2C C3C 1_555 1_555
C4C C3C 1_555 1_555
H3C C4C 1_555 1_555
C5C N1C 1_555 1_555
H4C C5C 1_555 1_555
C6C O2C 1_555 1_555
H5C C6C 1_555 1_555
H6C C6C 1_555 1_555
C7C C6C 1_555 1_555
H7C C7C 1_555 1_555
H8C C7C 1_555 1_555
C8C C7C 1_555 1_555
H9C C8C 1_555 1_555
H10C C8C 1_555 1_555
C9C O2C 1_555 1_555
H11C C9C 1_555 1_555
H12C C9C 1_555 1_555
I3 Ag3 1_555 1_555
I4 Ag5 1_555 1_555
I4 Ag5C 1_555 1_555
I6 Ag5 1_555 1_555
I6 Ag6 1_555 1_555
I7 Ag6 1_555 1_555
Ag1 Ag3C 1_555 1_555
Ag2 Ag6 1_555 1_555
Ag2 Ag2C 1_555 1_555
Ag3 Ag5 1_555 1_555
Ag4 Ag6 1_555 1_555
Ag4 Ag6C 1_555 1_555
Ag6 I8_2 1_555 1_555
C4 C5 1_555 1_555
C8 C9 1_555 1_555
I3C Ag2C 1_555 1_555
I3C Ag3C 1_555 1_555
I5_2 Ag2C 1_555 1_555
I6C Ag5C 1_555 1_555
I6C Ag6C 1_555 1_555
I7_2 Ag2_2 1_555 1_555
I7_2 Ag6_2 1_555 1_555
I7C Ag6C 1_555 1_555
I7C_2 Ag3C 1_555 1_555
I8C Ag5C 1_555 1_555
I8C Ag6C_2 1_555 1_555
I8C_2 Ag6C 1_555 1_555
Ag2C Ag6C 1_555 1_555
Ag2_2 Ag2C_2 1_555 1_555
Ag2_2 Ag6_2 1_555 1_555
Ag2C_2 Ag6C_2 1_555 1_555
Ag3C Ag5C 1_555 1_555
Ag4_2 Ag6_2 1_555 1_555
Ag4_2 Ag6C_2 1_555 1_555
N1C C1C 1_555 1_555
C4C C5C 1_555 1_555
C8C C9C 1_555 1_555

#END
