
#######################################################################
#
#                 Cambridge Crystallographic Data Centre
#                                CCDC 
#
#######################################################################
#
# If this CIF has been generated from an entry in the Cambridge 
# Structural Database, then it will include bibliographic, chemical, 
# crystal, experimental, refinement or atomic coordinate data resulting 
# from the CCDC's data processing and validation procedures.
#
#######################################################################

data_HUZCIP
_symmetry_cell_setting           orthorhombic
_symmetry_space_group_name_H-M   'P 21 21 21'
_symmetry_Int_Tables_number      19
_space_group_name_Hall           'P 2ac 2ab'
loop_
_symmetry_equiv_pos_site_id
_symmetry_equiv_pos_as_xyz
1 x,y,z
2 1/2-x,-y,1/2+z
3 -x,1/2+y,1/2-z
4 1/2+x,1/2-y,-z
_cell_length_a                   13.681(3)
_cell_length_b                   14.016(3)
_cell_length_c                   23.383(5)
_cell_angle_alpha                90
_cell_angle_beta                 90
_cell_angle_gamma                90
_cell_volume                     4483.76
loop_
_atom_site_label
_atom_site_type_symbol
_atom_site_fract_x
_atom_site_fract_y
_atom_site_fract_z
I1 I 1.0009(2) 0.26944(14) 0.25330(10)
I2 I 1.0137(2) 0.51743(16) 0.36736(9)
I3 I 0.80733(17) 0.52895(17) 0.20648(10)
I4 I 1.16863(18) 0.52619(19) 0.18939(10)
I5 I 1.2620(2) 0.22213(19) 0.12122(10)
I6 I 0.6966(2) 0.2191(2) 0.16630(12)
I7 I 0.96202(18) 0.36160(16) 0.06119(10)
Ag1 Ag 0.9929(2) 0.4781(2) 0.24443(14)
Ag2 Ag 0.8581(3) 0.3394(2) 0.16313(13)
Ag3 Ag 1.1257(3) 0.1364(3) 0.19154(15)
Ag4 Ag 0.8589(3) 0.1246(3) 0.20219(14)
Ag5 Ag 1.1068(3) 0.3468(3) 0.14331(14)
I2B I 0.9863(2) 0.01743(16) 0.13264(9)
I3B I 1.19267(17) 0.02895(17) 0.29352(10)
I4B I 0.83137(18) 0.02619(19) 0.31061(10)
Ag1B Ag 1.0071(2) -0.0219(2) 0.25557(14)
Ag3B Ag 0.8743(3) 0.6364(3) 0.30846(15)
Ag4B Ag 1.1411(3) 0.6246(3) 0.29781(14)
Cu1 Cu 0.5278(3) 0.1471(3) 0.41543(16)
N1 N 0.4582(15) 0.0327(17) 0.4455(11)
N2 N 0.654(2) 0.0545(17) 0.4487(11)
N3 N 0.620(2) 0.259(2) 0.3966(11)
N4 N 0.5262(18) 0.2256(16) 0.4895(9)
N5 N 0.507(2) 0.1017(16) 0.3348(11)
N6 N 0.394(2) 0.234(2) 0.3831(11)
C1 C 0.367(3) 0.029(3) 0.4374(15)
H1 H 0.3322 0.0790 0.4209
C2 C 0.320(3) -0.055(3) 0.4547(16)
H2 H 0.2527 -0.0580 0.4513
C3 C 0.367(3) -0.130(3) 0.4755(14)
H3 H 0.3328 -0.1851 0.4856
C4 C 0.468(3) -0.124(3) 0.4819(16)
H4 H 0.5045 -0.1754 0.4955
C5 C 0.513(2) -0.035(2) 0.4661(13)
C6 C 0.614(2) -0.024(2) 0.4735(12)
C7 C 0.679(3) -0.082(3) 0.5034(16)
H5 H 0.6572 -0.1384 0.5203
C8 C 0.776(3) -0.055(2) 0.5076(15)
H6 H 0.8185 -0.0949 0.5274
C9 C 0.812(3) 0.026(3) 0.4845(16)
H7 H 0.8770 0.0433 0.4887
C10 C 0.746(3) 0.080(2) 0.4543(14)
H8 H 0.7672 0.1367 0.4374
C11 C 0.660(3) 0.265(3) 0.3498(16)
H9 H 0.6509 0.2171 0.3229
C12 C 0.716(3) 0.342(3) 0.3369(19)
H10 H 0.7444 0.3487 0.3009
C13 C 0.731(3) 0.411(3) 0.3784(17)
H11 H 0.7757 0.4604 0.3727
C14 C 0.681(3) 0.405(2) 0.4261(15)
H12 H 0.6853 0.4534 0.4533
C15 C 0.620(3) 0.324(2) 0.4359(15)
C16 C 0.577(2) 0.303(2) 0.4859(14)
C17 C 0.577(3) 0.353(3) 0.5339(15)
H13 H 0.6171 0.4070 0.5344
C18 C 0.528(3) 0.336(3) 0.5810(17)
H14 H 0.5306 0.3781 0.6117
C19 C 0.472(2) 0.255(2) 0.5839(14)
H15 H 0.4366 0.2366 0.6161
C20 C 0.474(3) 0.204(2) 0.5340(15)
H16 H 0.4348 0.1501 0.5317
C21 C 0.555(3) 0.035(3) 0.3188(18)
H17 H 0.6004 0.0091 0.3443
C22 C 0.547(3) -0.009(3) 0.2604(19)
H18 H 0.5785 -0.0664 0.2510
C23 C 0.491(4) 0.040(3) 0.2216(19)
H19 H 0.4882 0.0231 0.1832
C24 C 0.438(3) 0.119(3) 0.2440(16)
H20 H 0.3972 0.1540 0.2203
C25 C 0.448(3) 0.145(3) 0.3034(15)
C26 C 0.383(3) 0.219(3) 0.3285(14)
C27 C 0.316(3) 0.273(3) 0.2980(16)
H21 H 0.3082 0.2618 0.2590
C28 C 0.260(3) 0.341(3) 0.3240(16)
H22 H 0.2195 0.3821 0.3038
C29 C 0.270(4) 0.344(3) 0.3847(19)
H23 H 0.2284 0.3825 0.4064
C30 C 0.341(3) 0.290(3) 0.4108(19)
H24 H 0.3494 0.2949 0.4501
loop_
_geom_bond_atom_site_label_1
_geom_bond_atom_site_label_2
_geom_bond_site_symmetry_1
_geom_bond_site_symmetry_2
I1 Ag1 1_555 1_555
I2 Ag1 1_555 1_555
I3 Ag1 1_555 1_555
I4 Ag1 1_555 1_555
I5 Ag3 1_555 1_555
I6 Ag2 1_555 1_555
I7 Ag2 1_555 1_555
Ag1 Ag2 1_555 1_555
Ag2 I1 1_555 1_555
Ag3 I1 1_555 1_555
Ag4 I1 1_555 1_555
Ag5 I1 1_555 1_555
Cu1 N1 1_555 1_555
N1 C1 1_555 1_555
N2 Cu1 1_555 1_555
N3 Cu1 1_555 1_555
N4 Cu1 1_555 1_555
N5 Cu1 1_555 1_555
N6 Cu1 1_555 1_555
C1 H1 1_555 1_555
C2 C1 1_555 1_555
H2 C2 1_555 1_555
C3 C2 1_555 1_555
H3 C3 1_555 1_555
C4 C3 1_555 1_555
H4 C4 1_555 1_555
C5 N1 1_555 1_555
C6 N2 1_555 1_555
C7 C6 1_555 1_555
H5 C7 1_555 1_555
C8 C7 1_555 1_555
H6 C8 1_555 1_555
C9 C8 1_555 1_555
H7 C9 1_555 1_555
C10 N2 1_555 1_555
H8 C10 1_555 1_555
C11 N3 1_555 1_555
H9 C11 1_555 1_555
C12 C11 1_555 1_555
H10 C12 1_555 1_555
C13 C12 1_555 1_555
H11 C13 1_555 1_555
C14 C13 1_555 1_555
H12 C14 1_555 1_555
C15 N3 1_555 1_555
C16 N4 1_555 1_555
C17 C16 1_555 1_555
H13 C17 1_555 1_555
C18 C17 1_555 1_555
H14 C18 1_555 1_555
C19 C18 1_555 1_555
H15 C19 1_555 1_555
C20 N4 1_555 1_555
H16 C20 1_555 1_555
C21 N5 1_555 1_555
H17 C21 1_555 1_555
C22 C21 1_555 1_555
H18 C22 1_555 1_555
C23 C22 1_555 1_555
H19 C23 1_555 1_555
C24 C23 1_555 1_555
H20 C24 1_555 1_555
C25 N5 1_555 1_555
C26 N6 1_555 1_555
C27 C26 1_555 1_555
H21 C27 1_555 1_555
C28 C27 1_555 1_555
H22 C28 1_555 1_555
C29 C28 1_555 1_555
H23 C29 1_555 1_555
C30 N6 1_555 1_555
H24 C30 1_555 1_555
I2B Ag3 1_555 1_555
I3B Ag3 1_555 1_555
I4B Ag4 1_555 1_555
Ag1B Ag3 1_555 1_555
Ag3B I2 1_555 1_555
Ag4B I2 1_555 1_555
I3 Ag2 1_555 1_555
I3 Ag3B 1_555 1_555
I4 Ag5 1_555 1_555
I4 Ag4B 1_555 1_555
I5 Ag5 1_555 1_555
I6 Ag4 1_555 1_555
I7 Ag5 1_555 1_555
Ag1 Ag5 1_555 1_555
Ag1 Ag3B 1_555 1_555
Ag1 Ag4B 1_555 1_555
Ag2 Ag4 1_555 1_555
Ag3 Ag5 1_555 1_555
Ag4 I2B 1_555 1_555
Ag4 Ag1B 1_555 1_555
C4 C5 1_555 1_555
C5 C6 1_555 1_555
C9 C10 1_555 1_555
C14 C15 1_555 1_555
C15 C16 1_555 1_555
C19 C20 1_555 1_555
C24 C25 1_555 1_555
C25 C26 1_555 1_555
C29 C30 1_555 1_555
I2B Ag1B 1_555 1_555
I3B Ag1B 1_555 1_555
I4B Ag1B 1_555 1_555

#END
