
#######################################################################
#
#                 Cambridge Crystallographic Data Centre
#                                CCDC 
#
#######################################################################
#
# If this CIF has been generated from an entry in the Cambridge 
# Structural Database, then it will include bibliographic, chemical, 
# crystal, experimental, refinement or atomic coordinate data resulting 
# from the CCDC's data processing and validation procedures.
#
#######################################################################

data_HUZDUC
_symmetry_cell_setting           monoclinic
_symmetry_space_group_name_H-M   'P 21/c'
_symmetry_Int_Tables_number      14
_space_group_name_Hall           '-P 2ybc'
loop_
_symmetry_equiv_pos_site_id
_symmetry_equiv_pos_as_xyz
1 x,y,z
2 -x,1/2+y,1/2-z
3 -x,-y,-z
4 x,1/2-y,1/2+z
_cell_length_a                   11.382(4)
_cell_length_b                   22.063(7)
_cell_length_c                   13.442(4)
_cell_angle_alpha                90
_cell_angle_beta                 113.458(5)
_cell_angle_gamma                90
_cell_volume                     3096.59
loop_
_atom_site_label
_atom_site_type_symbol
_atom_site_fract_x
_atom_site_fract_y
_atom_site_fract_z
Si1 Si 0.5000 0.0000 0.0000
W1 W 0.24191(10) 0.01898(5) -0.25401(10)
W2 W 0.21128(10) -0.07929(5) -0.05848(9)
W3 W 0.22276(10) 0.07919(5) -0.01722(9)
W4 W 0.48070(12) 0.05889(5) 0.23797(10)
W5 W 0.46848(12) -0.09907(5) 0.19553(10)
W6 W 0.48643(12) -0.15799(4) -0.04369(9)
O1 O 0.356(3) 0.0029(13) -0.057(2)
O2 O 0.548(3) -0.0119(13) 0.135(2)
O3 O 0.557(3) -0.0557(14) -0.046(2)
O4 O 0.571(3) 0.0644(12) -0.015(2)
O5 O 0.335(3) 0.1438(13) -0.0085(19)
O6 O 0.071(2) -0.1161(10) -0.0929(18)
O7 O 0.314(2) 0.0710(11) 0.137(2)
O8 O 0.309(2) -0.1404(11) -0.0850(19)
O9 O 0.094(2) 0.1166(9) -0.0263(19)
O10 O 0.1191(18) 0.0280(8) -0.3713(16)
O11 O 0.4584(19) -0.1439(9) 0.2914(14)
O12 O 0.503(2) -0.1553(10) 0.1023(16)
O13 O 0.354(2) 0.0814(9) -0.262(2)
O14 O 0.194(3) 0.0717(9) -0.1622(17)
O15 O 0.184(3) -0.0467(9) -0.1964(18)
O16 O 0.484(2) -0.2331(8) -0.0654(19)
O17 O 0.299(2) -0.0974(12) 0.0899(16)
O18 O 0.4719(19) 0.0862(9) 0.3504(16)
O19 O 0.343(2) -0.0362(10) -0.296(3)
O20 O 0.167(2) -0.0035(8) -0.0222(16)
O21 O 0.527(2) 0.1283(13) 0.1822(19)
O22 O 0.436(2) -0.0249(10) 0.242(3)
Cu1 Cu -0.1544(3) -0.11026(14) -0.2312(3)
Cu2 Cu 0.5804(3) -0.21647(16) -0.3177(3)
Cu3 Cu -0.0397(4) 0.14198(15) -0.2994(4)
N1 N 0.402(2) -0.2113(10) -0.383(2)
N2 N 0.203(3) -0.2032(13) -0.517(2)
N3 N 0.204(2) -0.2354(10) -0.430(2)
N4 N -0.224(2) -0.0166(10) -0.3948(18)
N5 N -0.1752(18) -0.0275(9) -0.2841(18)
N6 N -0.134(2) 0.0696(10) -0.3134(18)
N7 N -0.069(2) -0.2901(9) -0.2262(17)
N8 N -0.146(2) -0.1962(9) -0.2279(17)
N9 N -0.249(2) -0.2357(9) -0.2638(19)
C1 C 0.327(3) -0.1902(12) -0.491(2)
H1 H 0.3596 -0.1706 -0.5359
C2 C 0.314(3) -0.2381(13) -0.353(2)
H2 H 0.3322 -0.2560 -0.2861
C3 C 0.081(3) -0.2580(12) -0.431(3)
H3 H 0.0434 -0.2864 -0.4900
H4 H 0.0971 -0.2797 -0.3635
C4 C -0.012(3) -0.2085(15) -0.442(2)
C5 C 0.030(3) -0.1494(12) -0.408(2)
H5 H 0.1172 -0.1407 -0.3780
C6 C -0.058(3) -0.1043(11) -0.420(2)
H6 H -0.0279 -0.0652 -0.3989
C7 C -0.185(2) -0.1140(10) -0.4609(18)
C8 C -0.227(3) -0.1724(14) -0.495(2)
H7 H -0.3148 -0.1805 -0.5218
C9 C -0.145(3) -0.2185(14) -0.489(3)
H8 H -0.1763 -0.2565 -0.5167
C10 C -0.281(3) -0.0647(11) -0.471(2)
H9 H -0.3525 -0.0815 -0.4584
H10 H -0.3138 -0.0484 -0.5442
C11 C -0.199(3) 0.0416(12) -0.411(3)
H11 H -0.2220 0.0598 -0.4788
C12 C -0.124(3) 0.0265(14) -0.244(2)
H12 H -0.0832 0.0329 -0.1700
C13 C -0.040(3) -0.2319(11) -0.210(3)
H13 H 0.0423 -0.2167 -0.1898
C14 C -0.199(2) -0.2904(10) -0.2591(18)
H14 H -0.2480 -0.3257 -0.2767
W1B W 0.75809(10) -0.01898(5) 0.25401(10)
W2B W 0.78872(10) 0.07929(5) 0.05848(9)
W3B W 0.77724(10) -0.07919(5) 0.01722(9)
W4B W 0.51930(12) -0.05889(5) -0.23797(10)
W5B W 0.53152(12) 0.09907(5) -0.19553(10)
W6B W 0.51357(12) 0.15799(4) 0.04369(9)
O1B O 0.644(3) -0.0029(13) 0.057(2)
O2B O 0.452(3) 0.0119(13) -0.135(2)
O3B O 0.443(3) 0.0557(14) 0.046(2)
O4B O 0.429(3) -0.0644(12) 0.015(2)
O5B O 0.665(3) -0.1438(13) 0.0085(19)
O6B O 0.929(2) 0.1161(10) 0.0929(18)
O7B O 0.686(2) -0.0710(11) -0.137(2)
O7B_2 O -0.314(2) -0.0710(11) -0.137(2)
O7_2 O 1.314(2) 0.0710(11) 0.137(2)
O8B O 0.691(2) 0.1404(11) 0.0850(19)
O9B O 0.906(2) -0.1166(9) 0.0263(19)
O10B O 0.8809(18) -0.0280(8) 0.3713(16)
O11B O 0.5416(19) 0.1439(9) -0.2914(14)
O12B O 0.497(2) 0.1553(10) -0.1023(16)
O13B O 0.646(2) -0.0814(9) 0.262(2)
O14B O 0.806(3) -0.0717(9) 0.1622(17)
O15B O 0.816(3) 0.0467(9) 0.1964(18)
O16B O 0.516(2) 0.2331(8) 0.0654(19)
O17B O 0.701(2) 0.0974(12) -0.0899(16)
O18B O 0.5281(19) -0.0862(9) -0.3504(16)
O19B O 0.657(2) 0.0362(10) 0.296(3)
O20B O 0.833(2) 0.0035(8) 0.0222(16)
O21B O 0.473(2) -0.1283(13) -0.1822(19)
O22B O 0.564(2) 0.0249(10) -0.242(3)
Cu1B Cu 1.1544(3) 0.11026(14) 0.2312(3)
Cu1B_2 Cu 0.1544(3) 0.11026(14) 0.2312(3)
Cu1_2 Cu 0.8456(3) -0.11026(14) -0.2312(3)
Cu2B Cu 0.4196(3) 0.21647(16) 0.3177(3)
Cu2_2 Cu -0.4196(3) -0.21647(16) -0.3177(3)
Cu2B_2 Cu 1.4196(3) 0.21647(16) 0.3177(3)
Cu3B Cu 1.0397(4) -0.14198(15) 0.2994(4)
Cu3A Cu 0.0397(4) -0.35802(15) -0.2006(4)
Cu3C Cu 0.9603(4) 0.35802(15) 0.2006(4)
N1B N 0.598(2) 0.2113(10) 0.383(2)
N2B N 0.797(3) 0.2032(13) 0.517(2)
N3B N 0.796(2) 0.2354(10) 0.430(2)
N4B N 1.224(2) 0.0166(10) 0.3948(18)
N5B N 1.1752(18) 0.0275(9) 0.2841(18)
N6B N 1.134(2) -0.0696(10) 0.3134(18)
N7B N 1.069(2) 0.2901(9) 0.2262(17)
N7A N 0.069(2) 0.2099(9) -0.2738(17)
N7C N 0.931(2) -0.2099(9) 0.2738(17)
N8B N 1.146(2) 0.1962(9) 0.2279(17)
N9B N 1.249(2) 0.2357(9) 0.2638(19)
N9_2 N 0.751(2) -0.2357(9) -0.2638(19)
N9B_2 N 0.249(2) 0.2357(9) 0.2638(19)
C1B C 0.673(3) 0.1902(12) 0.491(2)
H1B H 0.6404 0.1706 0.5359
C2B C 0.686(3) 0.2381(13) 0.353(2)
H2B H 0.6678 0.2560 0.2861
C3B C 0.919(3) 0.2580(12) 0.431(3)
H3B H 0.9566 0.2864 0.4900
H4B H 0.9029 0.2797 0.3635
C4B C 1.012(3) 0.2085(15) 0.442(2)
C5B C 0.970(3) 0.1494(12) 0.408(2)
H5B H 0.8828 0.1407 0.3780
C6B C 1.058(3) 0.1043(11) 0.420(2)
H6B H 1.0279 0.0652 0.3989
C7B C 1.185(2) 0.1140(10) 0.4609(18)
C8B C 1.227(3) 0.1724(14) 0.495(2)
H7B H 1.3148 0.1805 0.5218
C9B C 1.145(3) 0.2185(14) 0.489(3)
H8B H 1.1763 0.2565 0.5167
C10B C 1.281(3) 0.0647(11) 0.471(2)
H9B H 1.3525 0.0815 0.4584
H10B H 1.3138 0.0484 0.5442
C11B C 1.199(3) -0.0416(12) 0.411(3)
H11B H 1.2220 -0.0598 0.4788
C12B C 1.124(3) -0.0265(14) 0.244(2)
H12B H 1.0832 -0.0329 0.1700
C13B C 1.040(3) 0.2319(11) 0.210(3)
H13B H 0.9577 0.2167 0.1898
C14B C 1.199(2) 0.2904(10) 0.2591(18)
H14B H 1.2480 0.3257 0.2767
loop_
_geom_bond_atom_site_label_1
_geom_bond_atom_site_label_2
_geom_bond_site_symmetry_1
_geom_bond_site_symmetry_2
Si1 O1 1_555 1_555
W1 O1 1_555 1_555
W2 O1 1_555 1_555
W3 O1 1_555 1_555
W4 O2 1_555 1_555
W5 O2 1_555 1_555
W6 O3 1_555 1_555
O1 O2B 1_555 1_555
O2 Si1 1_555 1_555
O3 Si1 1_555 1_555
O4 Si1 1_555 1_555
O5 W3 1_555 1_555
O6 W2 1_555 1_555
O7 W3 1_555 1_555
O8 W2 1_555 1_555
O9 W3 1_555 1_555
O10 W1 1_555 1_555
O11 W5 1_555 1_555
O12 W5 1_555 1_555
O13 W1 1_555 1_555
O14 W1 1_555 1_555
O15 W1 1_555 1_555
O16 W6 1_555 1_555
O17 W2 1_555 1_555
O18 W4 1_555 1_555
O19 W1 1_555 1_555
O20 W2 1_555 1_555
O21 W4 1_555 1_555
O22 W4 1_555 1_555
Cu1 O6 1_555 1_555
Cu2 N1 1_555 1_555
Cu3 N6 1_555 1_555
N1 C1 1_555 1_555
N2 N3 1_555 1_555
N3 C2 1_555 1_555
N4 N5 1_555 1_555
N5 Cu1 1_555 1_555
N6 C11 1_555 1_555
N7 C13 1_555 1_555
N8 Cu1 1_555 1_555
N9 N8 1_555 1_555
C1 N2 1_555 1_555
H1 C1 1_555 1_555
C2 N1 1_555 1_555
H2 C2 1_555 1_555
C3 N3 1_555 1_555
H3 C3 1_555 1_555
H4 C3 1_555 1_555
C4 C3 1_555 1_555
C5 C4 1_555 1_555
H5 C5 1_555 1_555
C6 C5 1_555 1_555
H6 C6 1_555 1_555
C7 C6 1_555 1_555
C8 C7 1_555 1_555
H7 C8 1_555 1_555
C9 C4 1_555 1_555
H8 C9 1_555 1_555
C10 N4 1_555 1_555
H9 C10 1_555 1_555
H10 C10 1_555 1_555
C11 N4 1_555 1_555
H11 C11 1_555 1_555
C12 N5 1_555 1_555
H12 C12 1_555 1_555
C13 N8 1_555 1_555
H13 C13 1_555 1_555
C14 N7 1_555 1_555
H14 C14 1_555 1_555
W1B O2 1_555 1_555
W2B O4 1_555 1_555
W3B O3 1_555 1_555
W4B O3 1_555 1_555
W5B O4 1_555 1_555
W6B O4 1_555 1_555
O1B Si1 1_555 1_555
O2B Si1 1_555 1_555
O3B Si1 1_555 1_555
O4B Si1 1_555 1_555
O5B W6 1_555 1_555
O6B W2B 1_555 1_555
O7B W3B 1_555 1_555
O7B_2 Cu1 1_555 1_555
O7_2 Cu1B 1_555 1_555
O8B W2B 1_555 1_555
O9B W3B 1_555 1_555
O10B W1B 1_555 1_555
O11B W5B 1_555 1_555
O12B W5B 1_555 1_555
O13B W5 1_555 1_555
O14B W1B 1_555 1_555
O15B W1B 1_555 1_555
O16B W6B 1_555 1_555
O17B W2B 1_555 1_555
O18B W4B 1_555 1_555
O19B W4 1_555 1_555
O20B W2B 1_555 1_555
O21B W6 1_555 1_555
O22B W4B 1_555 1_555
Cu1B O6B 1_555 1_555
Cu1B_2 O7 1_555 1_555
Cu1_2 O7B 1_555 1_555
Cu2B N1B 1_555 1_555
Cu2_2 N9 1_555 1_555
Cu2B_2 N9B 1_555 1_555
Cu3B N6B 1_555 1_555
Cu3A N7 1_555 1_555
Cu3C N7B 1_555 1_555
N1B C1B 1_555 1_555
N2B N3B 1_555 1_555
N3B C2B 1_555 1_555
N4B N5B 1_555 1_555
N5B Cu1B 1_555 1_555
N6B C11B 1_555 1_555
N7B C13B 1_555 1_555
N7A Cu3 1_555 1_555
N7C Cu3B 1_555 1_555
N8B Cu1B 1_555 1_555
N9B N8B 1_555 1_555
N9_2 Cu2 1_555 1_555
N9B_2 Cu2B 1_555 1_555
C1B N2B 1_555 1_555
H1B C1B 1_555 1_555
C2B N1B 1_555 1_555
H2B C2B 1_555 1_555
C3B N3B 1_555 1_555
H3B C3B 1_555 1_555
H4B C3B 1_555 1_555
C4B C3B 1_555 1_555
C5B C4B 1_555 1_555
H5B C5B 1_555 1_555
C6B C5B 1_555 1_555
H6B C6B 1_555 1_555
C7B C6B 1_555 1_555
C8B C7B 1_555 1_555
H7B C8B 1_555 1_555
C9B C4B 1_555 1_555
H8B C9B 1_555 1_555
C10B N4B 1_555 1_555
H9B C10B 1_555 1_555
H10B C10B 1_555 1_555
C11B N4B 1_555 1_555
H11B C11B 1_555 1_555
C12B N5B 1_555 1_555
H12B C12B 1_555 1_555
C13B N8B 1_555 1_555
H13B C13B 1_555 1_555
C14B N7B 1_555 1_555
H14B C14B 1_555 1_555
W1 O2B 1_555 1_555
W2 O15 1_555 1_555
W2 O4B 1_555 1_555
W3 O14 1_555 1_555
W3 O20 1_555 1_555
W3 O3B 1_555 1_555
W4 O7 1_555 1_555
W4 O3B 1_555 1_555
W5 O17 1_555 1_555
W5 O22 1_555 1_555
W5 O4B 1_555 1_555
W6 O8 1_555 1_555
W6 O12 1_555 1_555
W6 O4B 1_555 1_555
O1 O3B 1_555 1_555
O1 O4B 1_555 1_555
O2 O1B 1_555 1_555
O3 O1B 1_555 1_555
O4 O1B 1_555 1_555
O5 W6B 1_555 1_555
O13 W5B 1_555 1_555
O19 W4B 1_555 1_555
O21 W6B 1_555 1_555
N6 C12 1_555 1_555
N9 C14 1_555 1_555
C7 C10 1_555 1_555
C8 C9 1_555 1_555
W1B O1B 1_555 1_555
W1B O13B 1_555 1_555
W1B O19B 1_555 1_555
W2B O1B 1_555 1_555
W2B O15B 1_555 1_555
W3B O1B 1_555 1_555
W3B O5B 1_555 1_555
W3B O14B 1_555 1_555
W3B O20B 1_555 1_555
W4B O2B 1_555 1_555
W4B O7B 1_555 1_555
W4B O21B 1_555 1_555
W5B O2B 1_555 1_555
W5B O17B 1_555 1_555
W5B O22B 1_555 1_555
W6B O3B 1_555 1_555
W6B O8B 1_555 1_555
W6B O12B 1_555 1_555
N6B C12B 1_555 1_555
N9B C14B 1_555 1_555
C7B C10B 1_555 1_555
C8B C9B 1_555 1_555

#END
