
#######################################################################
#
#                 Cambridge Crystallographic Data Centre
#                                CCDC 
#
#######################################################################
#
# If this CIF has been generated from an entry in the Cambridge 
# Structural Database, then it will include bibliographic, chemical, 
# crystal, experimental, refinement or atomic coordinate data resulting 
# from the CCDC's data processing and validation procedures.
#
#######################################################################

data_HUZDOW
_symmetry_cell_setting           triclinic
_symmetry_space_group_name_H-M   'P -1'
_symmetry_Int_Tables_number      2
_space_group_name_Hall           '-P 1'
loop_
_symmetry_equiv_pos_site_id
_symmetry_equiv_pos_as_xyz
1 x,y,z
2 -x,-y,-z
_cell_length_a                   13.9881(8)
_cell_length_b                   14.3592(8)
_cell_length_c                   15.3319(9)
_cell_angle_alpha                76.415(1)
_cell_angle_beta                 62.953(1)
_cell_angle_gamma                72.604(1)
_cell_volume                     2599.49
loop_
_atom_site_label
_atom_site_type_symbol
_atom_site_fract_x
_atom_site_fract_y
_atom_site_fract_z
O2 O 0.6474(14) 0.3481(12) 0.7187(12)
P1 P 0.5000 0.0000 0.5000
W1 W 0.60080(4) -0.24411(4) 0.58164(4)
W2 W 0.36664(4) -0.09522(4) 0.75007(4)
W3 W 0.26446(4) 0.14906(4) 0.66761(3)
W4 W 0.36807(4) 0.04793(4) 0.33900(4)
W5 W 0.47087(4) -0.19851(4) 0.41928(4)
W6 W 0.23876(4) -0.05081(4) 0.58827(4)
O1 O 0.3875(10) 0.0040(9) 0.5897(9)
O3 O 0.5531(11) -0.1027(10) 0.4721(10)
O4 O 0.4820(10) 0.0695(9) 0.4147(9)
O5 O 0.5737(10) 0.0366(9) 0.5280(9)
O6 O 0.2554(9) 0.0187(8) 0.4608(7)
O7 O 0.2007(11) 0.0739(7) 0.6323(10)
O8 O 0.2789(9) -0.1103(8) 0.6928(8)
O9 O 0.4880(7) -0.0638(8) 0.7522(9)
O10 O 0.6620(7) -0.1760(9) 0.6283(9)
O11 O 0.4281(9) -0.0903(8) 0.3382(7)
O12 O 0.3298(9) -0.1629(7) 0.5219(7)
O13 O 0.5208(8) -0.2661(9) 0.5198(6)
O14 O 0.2966(10) 0.0392(6) 0.7533(9)
O15 O 0.4562(8) -0.2936(7) 0.3829(6)
O16 O 0.4669(7) -0.2090(9) 0.6914(9)
O17 O 0.1530(7) 0.2210(7) 0.7440(6)
O18 O 0.3063(7) -0.1422(6) 0.8674(5)
O19 O 0.3059(7) 0.0720(7) 0.2625(7)
O20 O 0.3813(7) 0.1942(9) 0.6633(6)
O21 O 0.1126(6) -0.0726(6) 0.6309(6)
O22 O 0.6459(7) -0.3600(6) 0.6209(7)
O23 O 0.7154(7) -0.2271(8) 0.4564(6)
Cu1 Cu 0.43800(14) -0.10014(12) 0.95101(13)
Cu2 Cu -0.54874(14) 0.49704(19) 1.41633(13)
Cu3 Cu -0.07708(16) -0.04591(12) 0.62501(13)
C1 C -0.3713(12) 0.3958(14) 1.2627(11)
H1 H -0.3894 0.3356 1.2936
C2 C -0.3676(10) 0.5454(12) 1.2287(10)
H2 H -0.3879 0.6121 1.2354
C3 C -0.2084(13) 0.3403(12) 1.1020(11)
H3 H -0.2042 0.3671 1.0364
H4 H -0.2339 0.2799 1.1201
C4 C -0.0950(11) 0.3178(10) 1.1003(9)
C5 C -0.0651(13) 0.2452(11) 1.1626(11)
H5 H -0.1161 0.2096 1.2091
C6 C 0.0371(15) 0.2228(10) 1.1593(10)
H6 H 0.0556 0.1708 1.2021
C7 C 0.1173(11) 0.2771(9) 1.0917(8)
C8 C 0.0839(10) 0.3533(9) 1.0295(8)
H7 H 0.1335 0.3907 0.9837
C9 C -0.0201(11) 0.3743(10) 1.0343(9)
H8 H -0.0411 0.4268 0.9931
C10 C 0.2330(12) 0.2514(11) 1.0838(10)
H9 H 0.2636 0.3095 1.0585
H10 H 0.2328 0.2277 1.1485
C11 C 0.3294(11) 0.0796(10) 1.0420(9)
H11 H 0.3149 0.0486 1.1058
C12 C 0.3814(10) 0.1107(9) 0.8867(9)
H12 H 0.4123 0.1012 0.8206
C13 C 0.4987(10) -0.3103(10) 1.0267(9)
H13 H 0.4674 -0.2993 1.0925
C14 C 0.5478(10) -0.2853(9) 0.8721(9)
H14 H 0.5600 -0.2567 0.8080
C15 C 0.6432(9) -0.4581(8) 0.8321(8)
H15 H 0.6328 -0.4382 0.7714
H16 H 0.6167 -0.5179 0.8636
C16 C 0.7644(9) -0.4778(8) 0.8085(7)
C17 C 0.8165(9) -0.5682(8) 0.8408(8)
H17 H 0.7774 -0.6172 0.8751
C18 C 0.9262(9) -0.5859(8) 0.8224(8)
H18 H 0.9601 -0.6464 0.8453
C19 C 0.9874(9) -0.5132(8) 0.7692(8)
C20 C 0.9369(10) -0.4249(9) 0.7329(8)
H19 H 0.9765 -0.3767 0.6961
C21 C 0.8264(9) -0.4084(8) 0.7516(8)
H20 H 0.7934 -0.3496 0.7255
C22 C 1.1028(9) -0.5354(10) 0.7637(9)
H21 H 1.0998 -0.5087 0.8177
H22 H 1.1286 -0.6061 0.7730
C23 C 1.2655(10) -0.5403(10) 0.6002(10)
H23 H 1.2826 -0.6075 0.5968
C24 C 1.2684(11) -0.3914(11) 0.5672(10)
H24 H 1.2886 -0.3323 0.5348
C25 C -0.2332(12) 0.1049(10) 0.7593(11)
H25 H -0.2875 0.1143 0.7371
C26 C -0.0819(10) 0.0543(9) 0.7704(9)
H26 H -0.0097 0.0238 0.7609
C27 C -0.1264(11) 0.1496(9) 0.9066(9)
H27 H -0.1958 0.1768 0.9583
H28 H -0.0874 0.2021 0.8726
C28 C -0.0596(10) 0.0711(9) 0.9533(8)
C29 C -0.0959(11) -0.0155(10) 1.0025(9)
H29 H -0.1599 -0.0254 1.0051
C30 C 0.0343(12) 0.0869(10) 0.9523(9)
H30 H 0.0564 0.1455 0.9211
C31 C 0.0953(12) -0.1875(11) 0.4995(11)
H31 H 0.1460 -0.1755 0.5166
C32 C -0.0537(10) -0.1836(9) 0.4962(9)
H32 H -0.1276 -0.1700 0.5082
C33 C 0.0206(11) -0.3124(10) 0.3818(9)
H33 H 0.0867 -0.3201 0.3210
H34 H -0.0421 -0.2849 0.3650
C34 C 0.0099(10) -0.4110(9) 0.4414(9)
C35 C 0.1017(9) -0.4776(10) 0.4483(9)
H35 H 0.1706 -0.4626 0.4137
C36 C -0.0908(10) -0.4337(10) 0.4934(10)
H36 H -0.1529 -0.3889 0.4896
N1 N -0.4213(9) 0.4795(10) 1.2991(9)
N2 N -0.2878(9) 0.4106(11) 1.1718(8)
N3 N -0.2856(9) 0.5093(10) 1.1511(8)
N4 N 0.3003(9) 0.1760(8) 1.0180(7)
N5 N 0.3334(10) 0.1968(8) 0.9185(8)
N6 N 0.3817(9) 0.0346(8) 0.9619(7)
N7 N 0.4960(9) -0.2366(8) 0.9518(8)
N8 N 0.5789(7) -0.3798(7) 0.8982(6)
N9 N 0.5493(10) -0.3976(8) 0.9973(7)
N10 N 1.1831(7) -0.4961(7) 0.6712(6)
N11 N 1.1824(9) -0.3992(8) 0.6526(9)
N12 N 1.3226(8) -0.4780(9) 0.5330(8)
N13 N -0.1328(8) 0.0429(8) 0.7197(8)
N14 N -0.1497(8) 0.1155(7) 0.8362(7)
N15 N -0.2477(9) 0.1495(9) 0.8295(9)
N16 N -0.0109(9) -0.1434(8) 0.5367(8)
N17 N 0.1222(9) -0.2489(9) 0.4373(10)
N18 N 0.0258(8) -0.2454(8) 0.4368(7)
W1A W 0.39920(4) 0.24411(4) 0.41836(4)
W2A W 0.63336(4) 0.09522(4) 0.24993(4)
W3A W 0.73554(4) -0.14906(4) 0.33239(3)
W4A W 0.63193(4) -0.04793(4) 0.66100(4)
W5A W 0.52913(4) 0.19851(4) 0.58072(4)
W6A W 0.76124(4) 0.05081(4) 0.41173(4)
O1A O 0.6125(10) -0.0040(9) 0.4103(9)
O3A O 0.4469(11) 0.1027(10) 0.5279(10)
O4A O 0.5180(10) -0.0695(9) 0.5853(9)
O5A O 0.4263(10) -0.0366(9) 0.4720(9)
O6A O 0.7446(9) -0.0187(8) 0.5392(7)
O7A O 0.7993(11) -0.0739(7) 0.3677(10)
O8A O 0.7211(9) 0.1103(8) 0.3072(8)
O9A O 0.5120(7) 0.0638(8) 0.2478(9)
O10A O 0.3380(7) 0.1760(9) 0.3717(9)
O11A O 0.5719(9) 0.0903(8) 0.6618(7)
O12A O 0.6702(9) 0.1629(7) 0.4781(7)
O13A O 0.4792(8) 0.2661(9) 0.4802(6)
O14A O 0.7034(10) -0.0392(6) 0.2467(9)
O15A O 0.5438(8) 0.2936(7) 0.6171(6)
O16A O 0.5331(7) 0.2090(9) 0.3086(9)
O17A O 0.8470(7) -0.2210(7) 0.2560(6)
O18A O 0.6937(7) 0.1422(6) 0.1326(5)
O19A O 0.6941(7) -0.0720(7) 0.7375(7)
O20A O 0.6187(7) -0.1942(9) 0.3367(6)
O21A O 0.8874(6) 0.0726(6) 0.3691(6)
O22A O 0.3541(7) 0.3600(6) 0.3791(7)
O23A O 0.2846(7) 0.2271(8) 0.5436(6)
Cu1A Cu 0.56200(14) 0.10014(12) 0.04899(13)
Cu2A Cu 1.54874(14) -0.49704(19) -0.41633(13)
Cu2_2 Cu 1.45126(14) -0.50296(19) 0.41633(13)
Cu2A_2 Cu -0.45126(14) 0.50296(19) 0.58367(13)
Cu3A Cu 1.07708(16) 0.04591(12) 0.37499(13)
Cu3A_2 Cu 0.07708(16) 0.04591(12) 1.37499(13)
Cu3A_3 Cu 0.07708(16) -0.95409(12) 0.37499(13)
C1A C 1.3713(12) -0.3958(14) -0.2627(11)
H1A H 1.3894 -0.3356 -0.2936
C2A C 1.3676(10) -0.5454(12) -0.2287(10)
H2A H 1.3879 -0.6121 -0.2354
C3A C 1.2084(13) -0.3403(12) -0.1020(11)
H3A H 1.2042 -0.3671 -0.0364
H4A H 1.2339 -0.2799 -0.1201
C4A C 1.0950(11) -0.3178(10) -0.1003(9)
C5A C 1.0651(13) -0.2452(11) -0.1626(11)
H5A H 1.1161 -0.2096 -0.2091
C6A C 0.9629(15) -0.2228(10) -0.1593(10)
H6A H 0.9444 -0.1708 -0.2021
C7A C 0.8827(11) -0.2771(9) -0.0917(8)
C8A C 0.9161(10) -0.3533(9) -0.0295(8)
H7A H 0.8665 -0.3907 0.0163
C9A C 1.0201(11) -0.3743(10) -0.0343(9)
H8A H 1.0411 -0.4268 0.0069
C10A C 0.7670(12) -0.2514(11) -0.0838(10)
H9A H 0.7364 -0.3095 -0.0585
H10A H 0.7672 -0.2277 -0.1485
C11A C 0.6706(11) -0.0796(10) -0.0420(9)
H11A H 0.6851 -0.0486 -0.1058
C12A C 0.6186(10) -0.1107(9) 0.1133(9)
H12A H 0.5877 -0.1012 0.1794
C13A C 0.5013(10) 0.3103(10) -0.0267(9)
H13A H 0.5326 0.2993 -0.0925
C14A C 0.4522(10) 0.2853(9) 0.1279(9)
H14A H 0.4400 0.2567 0.1920
C15A C 0.3568(9) 0.4581(8) 0.1679(8)
H15A H 0.3672 0.4382 0.2286
H16A H 0.3833 0.5179 0.1364
C16A C 0.2356(9) 0.4778(8) 0.1915(7)
C17A C 0.1835(9) 0.5682(8) 0.1592(8)
H17A H 0.2226 0.6172 0.1249
C18A C 0.0738(9) 0.5859(8) 0.1776(8)
H18A H 0.0399 0.6464 0.1547
C19A C 0.0126(9) 0.5132(8) 0.2308(8)
C20A C 0.0631(10) 0.4249(9) 0.2671(8)
H19A H 0.0235 0.3767 0.3039
C21A C 0.1736(9) 0.4084(8) 0.2484(8)
H20A H 0.2066 0.3496 0.2745
C22A C -0.1028(9) 0.5354(10) 0.2363(9)
H21A H -0.0998 0.5087 0.1823
H22A H -0.1286 0.6061 0.2270
C23A C -0.2655(10) 0.5403(10) 0.3998(10)
H23A H -0.2826 0.6075 0.4032
C24A C -0.2684(11) 0.3914(11) 0.4328(10)
H24A H -0.2886 0.3323 0.4652
C25A C 0.2332(12) -0.1049(10) 1.2407(11)
H25A H 0.2875 -0.1143 1.2629
C26A C 0.0819(10) -0.0543(9) 1.2296(9)
H26A H 0.0097 -0.0238 1.2391
C27A C 0.1264(11) -0.1496(9) 1.0934(9)
H27A H 0.1958 -0.1768 1.0417
H28A H 0.0874 -0.2021 1.1274
C28A C 0.0596(10) -0.0711(9) 1.0467(8)
C29A C 0.0959(11) 0.0155(10) 0.9975(9)
H29A H 0.1599 0.0254 0.9949
C30A C -0.0343(12) -0.0869(10) 1.0477(9)
H30A H -0.0564 -0.1455 1.0789
C31A C -0.0953(12) -0.8125(11) 0.5005(11)
H31A H -0.1460 -0.8245 0.4834
C32A C 0.0537(10) -0.8164(9) 0.5038(9)
H32A H 0.1276 -0.8300 0.4918
C33A C -0.0206(11) -0.6876(10) 0.6182(9)
H33A H -0.0867 -0.6799 0.6790
H34A H 0.0421 -0.7151 0.6350
C34A C -0.0099(10) -0.5890(9) 0.5586(9)
C35A C -0.1017(9) -0.5224(10) 0.5517(9)
H35A H -0.1706 -0.5374 0.5863
C36A C 0.0908(10) -0.5663(10) 0.5066(10)
H36A H 0.1529 -0.6111 0.5104
N1A N 1.4213(9) -0.4795(10) -0.2991(9)
N2A N 1.2878(9) -0.4106(11) -0.1718(8)
N3A N 1.2856(9) -0.5093(10) -0.1511(8)
N4A N 0.6997(9) -0.1760(8) -0.0180(7)
N5A N 0.6666(10) -0.1968(8) 0.0815(8)
N6A N 0.6183(9) -0.0346(8) 0.0381(7)
N7A N 0.5040(9) 0.2366(8) 0.0482(8)
N8A N 0.4211(7) 0.3798(7) 0.1018(6)
N9A N 0.4507(10) 0.3976(8) 0.0027(7)
N10A N -0.1831(7) 0.4961(7) 0.3288(6)
N11A N -0.1824(9) 0.3992(8) 0.3474(9)
N12A N -0.3226(8) 0.4780(9) 0.4670(8)
N12_2 N -0.6774(8) 0.5220(9) 1.5330(8)
N12A_2 N 1.6774(8) -0.5220(9) -0.5330(8)
N13A N 0.1328(8) -0.0429(8) 1.2803(8)
N13A_2 N 1.1328(8) -0.0429(8) 0.2803(8)
N14A N 0.1497(8) -0.1155(7) 1.1638(7)
N15A N 0.2477(9) -0.1495(9) 1.1705(9)
N16A N 0.0109(9) -0.8566(8) 0.4633(8)
N16A_2 N 1.0109(9) 0.1434(8) 0.4633(8)
N17A N -0.1222(9) -0.7511(9) 0.5627(10)
N18A N -0.0258(8) -0.7546(8) 0.5632(7)
loop_
_geom_bond_atom_site_label_1
_geom_bond_atom_site_label_2
_geom_bond_site_symmetry_1
_geom_bond_site_symmetry_2
P1 O1 1_555 1_555
W1 O3 1_555 1_555
W2 O1 1_555 1_555
W3 O1 1_555 1_555
W4 O4 1_555 1_555
W5 O3 1_555 1_555
W6 O1 1_555 1_555
O1 O3A 1_555 1_555
O3 P1 1_555 1_555
O4 P1 1_555 1_555
O5 P1 1_555 1_555
O6 W4 1_555 1_555
O7 W3 1_555 1_555
O8 W2 1_555 1_555
O9 W2 1_555 1_555
O10 W1 1_555 1_555
O11 W4 1_555 1_555
O12 W5 1_555 1_555
O13 W1 1_555 1_555
O14 W2 1_555 1_555
O15 W5 1_555 1_555
O16 W1 1_555 1_555
O17 W3 1_555 1_555
O18 W2 1_555 1_555
O19 W4 1_555 1_555
O20 W3 1_555 1_555
O21 W6 1_555 1_555
O22 W1 1_555 1_555
O23 W1 1_555 1_555
Cu1 O9 1_555 1_555
Cu2 N1 1_555 1_555
Cu3 O21 1_555 1_555
C1 H1 1_555 1_555
C2 H2 1_555 1_555
C3 H3 1_555 1_555
H4 C3 1_555 1_555
C4 C3 1_555 1_555
C5 C4 1_555 1_555
H5 C5 1_555 1_555
C6 C5 1_555 1_555
H6 C6 1_555 1_555
C7 C6 1_555 1_555
C8 C7 1_555 1_555
H7 C8 1_555 1_555
C9 C4 1_555 1_555
H8 C9 1_555 1_555
C10 C7 1_555 1_555
H9 C10 1_555 1_555
H10 C10 1_555 1_555
C11 H11 1_555 1_555
C12 H12 1_555 1_555
C13 H13 1_555 1_555
C14 H14 1_555 1_555
C15 H15 1_555 1_555
H16 C15 1_555 1_555
C16 C15 1_555 1_555
C17 C16 1_555 1_555
H17 C17 1_555 1_555
C18 C17 1_555 1_555
H18 C18 1_555 1_555
C19 C18 1_555 1_555
C20 C19 1_555 1_555
H19 C20 1_555 1_555
C21 C16 1_555 1_555
H20 C21 1_555 1_555
C22 C19 1_555 1_555
H21 C22 1_555 1_555
H22 C22 1_555 1_555
C23 H23 1_555 1_555
C24 H24 1_555 1_555
C25 H25 1_555 1_555
C26 H26 1_555 1_555
C27 H27 1_555 1_555
H28 C27 1_555 1_555
C28 C27 1_555 1_555
C29 C28 1_555 1_555
H29 C29 1_555 1_555
C30 C28 1_555 1_555
H30 C30 1_555 1_555
C31 H31 1_555 1_555
C32 H32 1_555 1_555
C33 H33 1_555 1_555
H34 C33 1_555 1_555
C34 C33 1_555 1_555
C35 C34 1_555 1_555
H35 C35 1_555 1_555
C36 C34 1_555 1_555
H36 C36 1_555 1_555
N1 C1 1_555 1_555
N2 C1 1_555 1_555
N3 C2 1_555 1_555
N4 C10 1_555 1_555
N5 C12 1_555 1_555
N6 Cu1 1_555 1_555
N7 Cu1 1_555 1_555
N8 C14 1_555 1_555
N9 C13 1_555 1_555
N10 C22 1_555 1_555
N11 C24 1_555 1_555
N12 C23 1_555 1_555
N13 Cu3 1_555 1_555
N14 C26 1_555 1_555
N15 C25 1_555 1_555
N16 Cu3 1_555 1_555
N17 C31 1_555 1_555
N18 C32 1_555 1_555
W1A O4 1_555 1_555
W2A O4 1_555 1_555
W3A O3 1_555 1_555
W4A O5 1_555 1_555
W5A O5 1_555 1_555
W6A O5 1_555 1_555
O1A P1 1_555 1_555
O3A P1 1_555 1_555
O4A P1 1_555 1_555
O5A P1 1_555 1_555
O6A W4A 1_555 1_555
O7A W3A 1_555 1_555
O8A W2A 1_555 1_555
O9A W4 1_555 1_555
O10A W4 1_555 1_555
O11A W4A 1_555 1_555
O12A W5A 1_555 1_555
O13A W1A 1_555 1_555
O14A W2A 1_555 1_555
O15A W5A 1_555 1_555
O16A W1A 1_555 1_555
O17A W3A 1_555 1_555
O18A W2A 1_555 1_555
O19A W4A 1_555 1_555
O20A W5 1_555 1_555
O21A W6A 1_555 1_555
O22A W1A 1_555 1_555
O23A W3 1_555 1_555
Cu1A O9A 1_555 1_555
Cu2A N1A 1_555 1_555
Cu2_2 N12 1_555 1_555
Cu2A_2 N12A 1_555 1_555
Cu3A O21A 1_555 1_555
Cu3A_2 N13A 1_555 1_555
Cu3A_3 N16A 1_555 1_555
C1A H1A 1_555 1_555
C2A H2A 1_555 1_555
C3A H3A 1_555 1_555
H4A C3A 1_555 1_555
C4A C3A 1_555 1_555
C5A C4A 1_555 1_555
H5A C5A 1_555 1_555
C6A C5A 1_555 1_555
H6A C6A 1_555 1_555
C7A C6A 1_555 1_555
C8A C7A 1_555 1_555
H7A C8A 1_555 1_555
C9A C4A 1_555 1_555
H8A C9A 1_555 1_555
C10A C7A 1_555 1_555
H9A C10A 1_555 1_555
H10A C10A 1_555 1_555
C11A H11A 1_555 1_555
C12A H12A 1_555 1_555
C13A H13A 1_555 1_555
C14A H14A 1_555 1_555
C15A H15A 1_555 1_555
H16A C15A 1_555 1_555
C16A C15A 1_555 1_555
C17A C16A 1_555 1_555
H17A C17A 1_555 1_555
C18A C17A 1_555 1_555
H18A C18A 1_555 1_555
C19A C18A 1_555 1_555
C20A C19A 1_555 1_555
H19A C20A 1_555 1_555
C21A C16A 1_555 1_555
H20A C21A 1_555 1_555
C22A C19A 1_555 1_555
H21A C22A 1_555 1_555
H22A C22A 1_555 1_555
C23A H23A 1_555 1_555
C24A H24A 1_555 1_555
C25A H25A 1_555 1_555
C26A H26A 1_555 1_555
C27A H27A 1_555 1_555
H28A C27A 1_555 1_555
C28A C27A 1_555 1_555
C29A C30 1_555 1_555
H29A C29A 1_555 1_555
C30A C29 1_555 1_555
H30A C30A 1_555 1_555
C31A H31A 1_555 1_555
C32A H32A 1_555 1_555
C33A H33A 1_555 1_555
H34A C33A 1_555 1_555
C34A C33A 1_555 1_555
C35A C36 1_555 1_555
H35A C35A 1_555 1_555
C36A C35 1_555 1_555
H36A C36A 1_555 1_555
N1A C1A 1_555 1_555
N2A C1A 1_555 1_555
N3A C2A 1_555 1_555
N4A C10A 1_555 1_555
N5A C12A 1_555 1_555
N6A Cu1A 1_555 1_555
N7A Cu1A 1_555 1_555
N8A C14A 1_555 1_555
N9A C13A 1_555 1_555
N10A C22A 1_555 1_555
N11A C24A 1_555 1_555
N12A C23A 1_555 1_555
N12_2 Cu2 1_555 1_555
N12A_2 Cu2A 1_555 1_555
N13A C25A 1_555 1_555
N13A_2 Cu3A 1_555 1_555
N14A C26A 1_555 1_555
N15A C25A 1_555 1_555
N16A C31A 1_555 1_555
N16A_2 Cu3A 1_555 1_555
N17A C31A 1_555 1_555
N18A C32A 1_555 1_555
W1 O4A 1_555 1_555
W2 O16 1_555 1_555
W2 O4A 1_555 1_555
W3 O14 1_555 1_555
W3 O3A 1_555 1_555
W4 O5A 1_555 1_555
W5 O11 1_555 1_555
W5 O13 1_555 1_555
W5 O5A 1_555 1_555
W6 O6 1_555 1_555
W6 O7 1_555 1_555
W6 O8 1_555 1_555
W6 O12 1_555 1_555
W6 O5A 1_555 1_555
O1 O4A 1_555 1_555
O1 O5A 1_555 1_555
O3 O1A 1_555 1_555
O3 O4A 1_555 1_555
O3 O5A 1_555 1_555
O4 O1A 1_555 1_555
O4 O3A 1_555 1_555
O4 O5A 1_555 1_555
O5 O1A 1_555 1_555
O5 O3A 1_555 1_555
O5 O4A 1_555 1_555
O9 W4A 1_555 1_555
O10 W4A 1_555 1_555
O20 W5A 1_555 1_555
O23 W3A 1_555 1_555
C2 N1 1_555 1_555
C3 N2 1_555 1_555
C8 C9 1_555 1_555
C11 N4 1_555 1_555
C11 N6 1_555 1_555
C12 N6 1_555 1_555
C13 N7 1_555 1_555
C14 N7 1_555 1_555
C15 N8 1_555 1_555
C20 C21 1_555 1_555
C23 N10 1_555 1_555
C24 N12 1_555 1_555
C25 N13 1_555 1_555
C26 N13 1_555 1_555
C27 N14 1_555 1_555
C31 N16 1_555 1_555
C32 N16 1_555 1_555
C33 N18 1_555 1_555
N2 N3 1_555 1_555
N4 N5 1_555 1_555
N8 N9 1_555 1_555
N10 N11 1_555 1_555
N14 N15 1_555 1_555
N17 N18 1_555 1_555
W1A O3A 1_555 1_555
W1A O10A 1_555 1_555
W1A O23A 1_555 1_555
W2A O1A 1_555 1_555
W2A O9A 1_555 1_555
W2A O16A 1_555 1_555
W3A O1A 1_555 1_555
W3A O14A 1_555 1_555
W3A O20A 1_555 1_555
W4A O4A 1_555 1_555
W5A O3A 1_555 1_555
W5A O11A 1_555 1_555
W5A O13A 1_555 1_555
W6A O1A 1_555 1_555
W6A O6A 1_555 1_555
W6A O7A 1_555 1_555
W6A O8A 1_555 1_555
W6A O12A 1_555 1_555
C2A N1A 1_555 1_555
C3A N2A 1_555 1_555
C8A C9A 1_555 1_555
C11A N4A 1_555 1_555
C11A N6A 1_555 1_555
C12A N6A 1_555 1_555
C13A N7A 1_555 1_555
C14A N7A 1_555 1_555
C15A N8A 1_555 1_555
C20A C21A 1_555 1_555
C23A N10A 1_555 1_555
C24A N12A 1_555 1_555
C26A N13A 1_555 1_555
C27A N14A 1_555 1_555
C28A C29A 1_555 1_555
C28A C30A 1_555 1_555
C32A N16A 1_555 1_555
C33A N18A 1_555 1_555
C34A C35A 1_555 1_555
C34A C36A 1_555 1_555
N2A N3A 1_555 1_555
N4A N5A 1_555 1_555
N8A N9A 1_555 1_555
N10A N11A 1_555 1_555
N14A N15A 1_555 1_555
N17A N18A 1_555 1_555

#END
