
#######################################################################
#
#                 Cambridge Crystallographic Data Centre
#                                CCDC 
#
#######################################################################
#
# If this CIF has been generated from an entry in the Cambridge 
# Structural Database, then it will include bibliographic, chemical, 
# crystal, experimental, refinement or atomic coordinate data resulting 
# from the CCDC's data processing and validation procedures.
#
#######################################################################

data_HUZDIQ
_symmetry_cell_setting           triclinic
_symmetry_space_group_name_H-M   'P -1'
_symmetry_Int_Tables_number      2
_space_group_name_Hall           '-P 1'
loop_
_symmetry_equiv_pos_site_id
_symmetry_equiv_pos_as_xyz
1 x,y,z
2 -x,-y,-z
_cell_length_a                   13.9986(16)
_cell_length_b                   14.3641(17)
_cell_length_c                   15.346(2)
_cell_angle_alpha                88.164(2)
_cell_angle_beta                 62.988(2)
_cell_angle_gamma                72.394(2)
_cell_volume                     2600.1
loop_
_atom_site_label
_atom_site_type_symbol
_atom_site_fract_x
_atom_site_fract_y
_atom_site_fract_z
O3 O 1.3708(10) 0.8496(8) 0.2807(8)
P1 P 1.0000 -0.5000 1.5000
Mo1 Mo 0.88231(4) -0.40392(3) 1.75162(3)
Mo2 Mo 1.10957(4) -0.30032(3) 1.41937(3)
Mo3 Mo 1.17297(4) -0.44790(3) 1.58850(3)
Mo4 Mo 1.06939(3) -0.64929(3) 1.66728(3)
Mo5 Mo 0.81636(3) -0.25400(3) 1.58278(3)
Mo6 Mo 1.29503(3) -0.54814(3) 1.33782(3)
O1 O 1.0220(5) -0.5021(4) 1.5899(4)
O2 O 0.9745(5) -0.3976(4) 1.4723(4)
O4 O 1.1050(5) -0.5705(4) 1.4129(4)
O5 O 0.8980(5) -0.5375(4) 1.5277(4)
O6 O 1.2845(5) -0.5169(3) 1.4615(3)
O7 O 1.0277(3) -0.3882(3) 1.6950(4)
O8 O 0.9506(3) -0.5383(3) 1.7537(4)
O9 O 0.7574(4) -0.4347(3) 1.7541(4)
O10 O 1.1681(4) -0.5719(3) 1.6331(4)
O11 O 1.2360(5) -0.4087(3) 1.3375(3)
O12 O 1.1578(4) -0.2051(3) 1.3836(3)
O13 O 1.1054(3) -0.7203(3) 1.7433(3)
O14 O 1.1475(5) -0.3355(3) 1.5229(3)
O15 O 0.8403(5) -0.2895(4) 1.6929(4)
O16 O 0.8256(4) -0.3565(3) 1.8685(3)
O17 O 0.7311(4) -0.1377(3) 1.6227(3)
O18 O 0.7082(5) -0.3245(4) 1.6285(4)
O19 O 0.9579(4) -0.2338(4) 1.5223(3)
O20 O 0.9570(4) -0.6948(4) 1.6627(3)
O21 O 1.1738(3) -0.7285(4) 1.5427(3)
O22 O 1.2555(3) -0.4244(3) 1.6310(3)
O23 O 1.4332(3) -0.5725(3) 1.2620(3)
Cu1 Cu 0.12924(9) 0.00512(9) 1.41875(6)
Cu2 Cu 0.61372(7) -0.40227(5) 1.94628(6)
Cu3 Cu 1.45366(8) -0.45433(6) 1.62437(6)
N1 N 0.1437(4) -0.0195(4) 1.5336(3)
N2 N 0.1667(5) -0.1011(3) 1.6521(4)
N3 N 0.1469(4) -0.0041(3) 1.6712(3)
N4 N 0.4559(5) -0.1056(4) 1.9975(3)
N5 N 0.5230(4) -0.1224(3) 1.8982(3)
N6 N 0.5530(4) -0.2657(3) 1.9491(4)
N7 N 0.6592(4) -0.5371(3) 1.9570(3)
N8 N 0.7517(5) -0.6988(4) 1.9162(4)
N9 N 0.6827(4) -0.6768(3) 2.0148(3)
N10 N 1.1127(5) -0.9101(4) 2.1753(4)
N11 N 1.1334(5) -1.0068(4) 2.1532(4)
N12 N 0.1216(5) 0.0232(5) 1.2999(4)
N13 N 1.4146(5) -0.5429(4) 1.7185(4)
N14 N 1.4181(5) -0.6482(4) 1.8285(4)
N15 N 1.3126(4) -0.6143(3) 1.8352(3)
N16 N 1.4749(4) -0.3572(3) 1.5383(4)
N17 N 1.4383(5) -0.2503(4) 1.4393(5)
N18 N 1.5369(4) -0.2562(3) 1.4369(3)
C1 C 0.1642(6) -0.1064(5) 1.5682(5)
H1 H 0.1757 -0.1652 1.5355
C2 C 0.1329(5) 0.0428(4) 1.6009(4)
H2 H 0.1176 0.1102 1.5990
C3 C 0.1342(5) 0.0355(4) 1.7631(4)
H3 H 0.0832 0.0091 1.8168
H4 H 0.0987 0.1063 1.7724
C4 C 0.2433(5) 0.0141(4) 1.7704(4)
C5 C 0.3304(5) -0.0740(4) 1.7344(4)
H5 H 0.3280 -0.1219 1.6968
C6 C 0.4219(5) -0.0925(4) 1.7536(4)
H6 H 0.4809 -0.1519 1.7278
C7 C 0.4254(4) -0.0219(4) 1.8115(4)
C8 C 0.3412(5) 0.0677(4) 1.8440(4)
H7 H 0.3446 0.1164 1.8800
C9 C 0.2514(5) 0.0858(4) 1.8231(4)
H8 H 0.1954 0.1471 1.8448
C10 C 0.5228(5) -0.0430(4) 1.8362(4)
H9 H 0.5940 -0.0612 1.7757
H10 H 0.5162 0.0161 1.8704
C11 C 0.5791(5) -0.2163(4) 1.8710(4)
H11 H 0.6299 -0.2446 1.8064
C12 C 0.4786(6) -0.1930(5) 2.0240(4)
H12 H 0.4461 -0.2047 2.0895
C13 C 0.7342(5) -0.6129(4) 1.8847(4)
H13 H 0.7701 -0.6043 1.8185
C14 C 0.6290(5) -0.5818(4) 2.0379(4)
H14 H 0.5775 -0.5504 2.1014
C15 C 0.6845(6) -0.7524(5) 2.0812(5)
H15 H 0.6800 -0.8109 2.0555
H16 H 0.6193 -0.7283 2.1456
C16 C 0.7916(5) -0.7778(4) 2.0906(4)
C17 C 0.8868(5) -0.8530(4) 2.0279(4)
H17 H 0.8840 -0.8898 1.9809
C18 C 0.9868(6) -0.8742(4) 2.0343(4)
H18 H 1.0498 -0.9264 1.9930
C19 C 0.9930(6) -0.8173(4) 2.1025(4)
C20 C 0.8978(7) -0.7434(5) 2.1647(5)
H19 H 0.9004 -0.7058 2.2113
C21 C 0.7980(7) -0.7238(5) 2.1596(5)
H20 H 0.7341 -0.6735 2.2030
C22 C 1.1025(7) -0.8384(6) 2.1069(5)
H21 H 1.1654 -0.8637 2.0415
H22 H 1.1071 -0.7776 2.1277
C23 C 0.1034(7) 0.1074(6) 1.2641(5)
H23 H 0.0869 0.1688 1.2954
C24 C 0.1399(6) -0.0455(6) 1.2292(5)
H24 H 0.1554 -0.1125 1.2348
C25 C 1.4750(6) -0.6038(5) 1.7590(5)
H25 H 1.5511 -0.6126 1.7382
C26 C 1.3132(6) -0.5536(4) 1.7692(4)
H26 H 1.2509 -0.5224 1.7592
C27 C 1.2200(6) -0.6494(4) 1.9044(4)
H27 H 1.2152 -0.7014 1.8693
H28 H 1.2381 -0.6774 1.9556
C28 C 1.1070(5) -0.5704(4) 1.9517(4)
C29 C 1.0131(6) -0.5864(4) 1.9530(4)
H29 H 1.0218 -0.6448 1.9214
C30 C 1.0913(6) -0.4829(4) 1.9998(5)
H30 H 1.1531 -0.4713 2.0000
C31 C 1.5585(5) -0.3185(4) 1.4955(4)
H31 H 1.6219 -0.3333 1.5055
C32 C 1.4045(6) -0.3128(5) 1.4995(6)
H32 H 1.3380 -0.3260 1.5148
C33 C 1.5986(5) -0.1896(4) 1.3816(4)
H33 H 1.6778 -0.2172 1.3660
H34 H 1.5946 -0.1825 1.3202
C34 C 1.5481(4) -0.0905(4) 1.4417(4)
C35 C 1.5971(5) -0.0666(4) 1.4945(5)
H35 H 1.6626 -0.1117 1.4912
C36 C 1.4493(5) -0.0223(4) 1.4485(5)
H36 H 1.4146 -0.0373 1.4141
Mo1A Mo 1.11769(4) -0.59608(3) 1.24838(3)
Mo2A Mo 0.89043(4) -0.69968(3) 1.58063(3)
Mo3A Mo 0.82703(4) -0.55210(3) 1.41150(3)
Mo4A Mo 0.93061(3) -0.35071(3) 1.33272(3)
Mo5A Mo 1.18364(3) -0.74600(3) 1.41722(3)
Mo6A Mo 0.70497(3) -0.45186(3) 1.66218(3)
O1A O 0.9780(5) -0.4979(4) 1.4101(4)
O2A O 1.0255(5) -0.6024(4) 1.5277(4)
O4A O 0.8950(5) -0.4295(4) 1.5871(4)
O5A O 1.1020(5) -0.4625(4) 1.4723(4)
O6A O 0.7155(5) -0.4831(3) 1.5385(3)
O7A O 0.9723(3) -0.6118(3) 1.3050(4)
O8A O 1.0494(3) -0.4617(3) 1.2463(4)
O9A O 1.2426(4) -0.5653(3) 1.2459(4)
O10A O 0.8319(4) -0.4281(3) 1.3669(4)
O11A O 0.7640(5) -0.5913(3) 1.6625(3)
O12A O 0.8422(4) -0.7949(3) 1.6164(3)
O13A O 0.8946(3) -0.2797(3) 1.2567(3)
O14A O 0.8525(5) -0.6645(3) 1.4771(3)
O15A O 1.1597(5) -0.7105(4) 1.3071(4)
O16A O 1.1744(4) -0.6435(3) 1.1315(3)
O17A O 1.2689(4) -0.8623(3) 1.3773(3)
O18A O 1.2918(5) -0.6755(4) 1.3715(4)
O19A O 1.0421(4) -0.7662(4) 1.4777(3)
O20A O 1.0430(4) -0.3052(4) 1.3373(3)
O21A O 0.8262(3) -0.2715(4) 1.4573(3)
O22A O 0.7445(3) -0.5756(3) 1.3690(3)
O22A_2 O 0.7445(3) -0.5756(3) 2.3690(3)
O23A O 0.5668(3) -0.4275(3) 1.7380(3)
Cu1_2 Cu 1.12924(9) -0.99488(9) 2.41875(6)
Cu1A Cu 0.87076(9) -0.00512(9) 0.58125(6)
Cu1A_2 Cu 1.87076(9) -1.00512(9) 1.58125(6)
Cu2A Cu 1.38628(7) -0.59773(5) 1.05372(6)
Cu3A Cu 0.54634(8) -0.54567(6) 1.37563(6)
Cu3A_2 Cu 1.54634(8) 0.45433(6) 1.37563(6)
Cu3A_3 Cu 0.54634(8) -0.54567(6) 2.37563(6)
N1A N 1.8563(4) -0.9805(4) 1.4664(3)
N1A_2 N 0.8563(4) 0.0195(4) 0.4664(3)
N2A N 1.8333(5) -0.8989(3) 1.3479(4)
N3A N 1.8531(4) -0.9959(3) 1.3288(3)
N4A N 1.5441(5) -0.8944(4) 1.0025(3)
N5A N 1.4770(4) -0.8776(3) 1.1018(3)
N6A N 1.4470(4) -0.7343(3) 1.0509(4)
N7A N 1.3408(4) -0.4629(3) 1.0430(3)
N8A N 1.2483(5) -0.3012(4) 1.0838(4)
N9A N 1.3173(4) -0.3232(3) 0.9852(3)
N10_2 N 0.1127(5) 0.0899(4) 1.1753(4)
N10A N 0.8873(5) -0.0899(4) 0.8247(4)
N11_2 N 0.1334(5) -0.0068(4) 1.1532(4)
N11A N 0.8666(5) 0.0068(4) 0.8468(4)
N12_2 N 1.1216(5) -0.9768(5) 2.2999(4)
N12A N 0.8784(5) -0.0232(5) 0.7001(4)
N13A N 0.5854(5) -0.4571(4) 1.2815(4)
N13A_2 N 0.5854(5) -0.4571(4) 2.2815(4)
N14A N 0.5819(5) -0.3518(4) 2.1715(4)
N15A N 0.6874(4) -0.3857(3) 2.1648(3)
N16A N 0.5251(4) -0.6428(3) 1.4617(4)
N16A_2 N 1.5251(4) 0.3572(3) 1.4617(4)
N16A_3 N 0.5251(4) -0.6428(3) 2.4617(4)
N17A N 1.5617(5) 0.2503(4) 1.5607(5)
N18A N 1.4631(4) 0.2562(3) 1.5631(3)
C1A C 1.8358(6) -0.8936(5) 1.4318(5)
H1A H 1.8243 -0.8348 1.4645
C2A C 1.8671(5) -1.0428(4) 1.3991(4)
H2A H 1.8824 -1.1102 1.4010
C3A C 1.8658(5) -1.0355(4) 1.2369(4)
H3A H 1.9168 -1.0091 1.1832
H4A H 1.9013 -1.1063 1.2276
C4A C 1.7567(5) -1.0141(4) 1.2296(4)
C5A C 1.6696(5) -0.9260(4) 1.2656(4)
H5A H 1.6720 -0.8781 1.3032
C6A C 1.5781(5) -0.9075(4) 1.2464(4)
H6A H 1.5191 -0.8481 1.2722
C7A C 1.5746(4) -0.9781(4) 1.1885(4)
C8A C 1.6588(5) -1.0677(4) 1.1560(4)
H7A H 1.6554 -1.1164 1.1200
C9A C 1.7486(5) -1.0858(4) 1.1769(4)
H8A H 1.8046 -1.1471 1.1552
C10A C 1.4772(5) -0.9570(4) 1.1638(4)
H9A H 1.4060 -0.9388 1.2243
H10A H 1.4838 -1.0161 1.1296
C11A C 1.4209(5) -0.7837(4) 1.1290(4)
H11A H 1.3701 -0.7554 1.1936
C12A C 1.5214(6) -0.8070(5) 0.9760(4)
H12A H 1.5539 -0.7953 0.9105
C13A C 1.2658(5) -0.3871(4) 1.1153(4)
H13A H 1.2299 -0.3957 1.1815
C14A C 1.3710(5) -0.4182(4) 0.9621(4)
H14A H 1.4225 -0.4496 0.8986
C15A C 1.3155(6) -0.2476(5) 0.9188(5)
H15A H 1.3200 -0.1891 0.9445
H16A H 1.3807 -0.2717 0.8544
C16A C 1.2084(5) -0.2222(4) 0.9094(4)
C17A C 1.1132(5) -0.1470(4) 0.9721(4)
H17A H 1.1160 -0.1102 1.0191
C18A C 1.0132(6) -0.1258(4) 0.9657(4)
H18A H 0.9502 -0.0736 1.0070
C19A C 1.0070(6) -0.1827(4) 0.8975(4)
C20A C 1.1022(7) -0.2566(5) 0.8353(5)
H19A H 1.0996 -0.2942 0.7887
C21A C 1.2020(7) -0.2762(5) 0.8404(5)
H20A H 1.2659 -0.3265 0.7970
C22A C 0.8975(7) -0.1616(6) 0.8931(5)
H21A H 0.8346 -0.1363 0.9585
H22A H 0.8929 -0.2224 0.8723
C23_2 C 1.1034(7) -0.8926(6) 2.2641(5)
C23A C 0.8966(7) -0.1074(6) 0.7359(5)
H23_2 H 1.0869 -0.8312 2.2954
H23A H 0.9131 -0.1688 0.7046
C24_2 C 1.1399(6) -1.0455(6) 2.2292(5)
C24A C 0.8601(6) 0.0455(6) 0.7708(5)
H24_2 H 1.1554 -1.1125 2.2348
H24A H 0.8446 0.1125 0.7652
C25A C 0.5250(6) -0.3962(5) 2.2410(5)
H25A H 0.4489 -0.3874 2.2618
C26A C 0.6868(6) -0.4464(4) 2.2308(4)
H26A H 0.7491 -0.4776 2.2408
C27A C 0.7800(6) -0.3506(4) 2.0956(4)
H27A H 0.7848 -0.2986 2.1307
H28A H 0.7619 -0.3226 2.0444
C28A C 0.8930(5) -0.4296(4) 2.0483(4)
C29A C 0.9869(6) -0.4136(4) 2.0470(4)
H29A H 0.9782 -0.3552 2.0786
C30A C 0.9087(6) -0.5171(4) 2.0002(5)
H30A H 0.8469 -0.5287 2.0000
C31A C 1.4415(5) 0.3185(4) 1.5045(4)
H31A H 1.3781 0.3333 1.4945
C32A C 1.5955(6) 0.3128(5) 1.5005(6)
H32A H 1.6620 0.3260 1.4852
C33A C 1.4014(5) 0.1896(4) 1.6184(4)
H33A H 1.3222 0.2172 1.6340
H34A H 1.4054 0.1825 1.6798
C34A C 1.4519(4) 0.0905(4) 1.5583(4)
C35A C 1.4029(5) 0.0666(4) 1.5055(5)
H35A H 1.3374 0.1117 1.5088
C36A C 1.5507(5) 0.0223(4) 1.5515(5)
H36A H 1.5854 0.0373 1.5859
loop_
_geom_bond_atom_site_label_1
_geom_bond_atom_site_label_2
_geom_bond_site_symmetry_1
_geom_bond_site_symmetry_2
P1 O1 1_555 1_555
Mo1 O1 1_555 1_555
Mo2 O2 1_555 1_555
Mo3 O1 1_555 1_555
Mo4 O1 1_555 1_555
Mo5 O2 1_555 1_555
Mo6 O4 1_555 1_555
O1 O2A 1_555 1_555
O2 P1 1_555 1_555
O4 P1 1_555 1_555
O5 P1 1_555 1_555
O6 Mo3 1_555 1_555
O7 Mo1 1_555 1_555
O8 Mo1 1_555 1_555
O9 Mo1 1_555 1_555
O10 Mo3 1_555 1_555
O11 Mo2 1_555 1_555
O12 Mo2 1_555 1_555
O13 Mo4 1_555 1_555
O14 Mo2 1_555 1_555
O15 Mo1 1_555 1_555
O16 Mo1 1_555 1_555
O17 Mo5 1_555 1_555
O18 Mo5 1_555 1_555
O19 Mo2 1_555 1_555
O20 Mo4 1_555 1_555
O21 Mo4 1_555 1_555
O22 Mo3 1_555 1_555
O23 Mo6 1_555 1_555
Cu1 N1 1_555 1_555
Cu2 O9 1_555 1_555
Cu3 O22 1_555 1_555
N1 C1 1_555 1_555
N2 N3 1_555 1_555
N3 C2 1_555 1_555
N4 N5 1_555 1_555
N5 C10 1_555 1_555
N6 Cu2 1_555 1_555
N7 Cu2 1_555 1_555
N8 N9 1_555 1_555
N9 C14 1_555 1_555
N10 N11 1_555 1_555
N11 C24_2 1_555 1_555
N12 Cu1 1_555 1_555
N13 Cu3 1_555 1_555
N14 N15 1_555 1_555
N15 C26 1_555 1_555
N16 Cu3 1_555 1_555
N17 N18 1_555 1_555
N18 C31 1_555 1_555
C1 N2 1_555 1_555
H1 C1 1_555 1_555
C2 N1 1_555 1_555
H2 C2 1_555 1_555
C3 N3 1_555 1_555
H3 C3 1_555 1_555
H4 C3 1_555 1_555
C4 C3 1_555 1_555
C5 C4 1_555 1_555
H5 C5 1_555 1_555
C6 C5 1_555 1_555
H6 C6 1_555 1_555
C7 C6 1_555 1_555
C8 C7 1_555 1_555
H7 C8 1_555 1_555
C9 C4 1_555 1_555
H8 C9 1_555 1_555
C10 C7 1_555 1_555
H9 C10 1_555 1_555
H10 C10 1_555 1_555
C11 N5 1_555 1_555
H11 C11 1_555 1_555
C12 N4 1_555 1_555
H12 C12 1_555 1_555
C13 N7 1_555 1_555
H13 C13 1_555 1_555
C14 N7 1_555 1_555
H14 C14 1_555 1_555
C15 N9 1_555 1_555
H15 C15 1_555 1_555
H16 C15 1_555 1_555
C16 C15 1_555 1_555
C17 C16 1_555 1_555
H17 C17 1_555 1_555
C18 C17 1_555 1_555
H18 C18 1_555 1_555
C19 C18 1_555 1_555
C20 C19 1_555 1_555
H19 C20 1_555 1_555
C21 C16 1_555 1_555
H20 C21 1_555 1_555
C22 N10 1_555 1_555
H21 C22 1_555 1_555
H22 C22 1_555 1_555
C23 N12 1_555 1_555
H23 C23 1_555 1_555
C24 N12 1_555 1_555
H24 C24 1_555 1_555
C25 N13 1_555 1_555
H25 C25 1_555 1_555
C26 N13 1_555 1_555
H26 C26 1_555 1_555
C27 N15 1_555 1_555
H27 C27 1_555 1_555
H28 C27 1_555 1_555
C28 C27 1_555 1_555
C29 C28 1_555 1_555
H29 C29 1_555 1_555
C30 C28 1_555 1_555
H30 C30 1_555 1_555
C31 N16 1_555 1_555
H31 C31 1_555 1_555
C32 N16 1_555 1_555
H32 C32 1_555 1_555
C33 N18 1_555 1_555
H33 C33 1_555 1_555
H34 C33 1_555 1_555
C34 C33 1_555 1_555
C35 C34 1_555 1_555
H35 C35 1_555 1_555
C36 C34 1_555 1_555
H36 C36 1_555 1_555
Mo1A O4 1_555 1_555
Mo2A O5 1_555 1_555
Mo3A O5 1_555 1_555
Mo4A O2 1_555 1_555
Mo5A O4 1_555 1_555
Mo6A O5 1_555 1_555
O1A P1 1_555 1_555
O2A P1 1_555 1_555
O4A P1 1_555 1_555
O5A P1 1_555 1_555
O6A Mo3A 1_555 1_555
O7A Mo1A 1_555 1_555
O8A Mo1A 1_555 1_555
O9A Mo6 1_555 1_555
O10A Mo3A 1_555 1_555
O11A Mo2A 1_555 1_555
O12A Mo2A 1_555 1_555
O13A Mo4A 1_555 1_555
O14A Mo2A 1_555 1_555
O15A Mo1A 1_555 1_555
O16A Mo1A 1_555 1_555
O17A Mo5A 1_555 1_555
O18A Mo6 1_555 1_555
O19A Mo2A 1_555 1_555
O20A Mo2 1_555 1_555
O21A Mo5 1_555 1_555
O22A Mo3A 1_555 1_555
O22A_2 Cu3A_3 1_555 1_555
O23A Mo6A 1_555 1_555
Cu1_2 N12_2 1_555 1_555
Cu1A N1A_2 1_555 1_555
Cu1A_2 N1A 1_555 1_555
Cu2A O9A 1_555 1_555
Cu3A O22A 1_555 1_555
Cu3A_2 N16A_2 1_555 1_555
Cu3A_3 N13A_2 1_555 1_555
N1A C1A 1_555 1_555
N2A N3A 1_555 1_555
N3A C2A 1_555 1_555
N4A N5A 1_555 1_555
N5A C10A 1_555 1_555
N6A Cu2A 1_555 1_555
N7A Cu2A 1_555 1_555
N8A N9A 1_555 1_555
N9A C14A 1_555 1_555
N10_2 C23 1_555 1_555
N10A N11A 1_555 1_555
N11_2 C24 1_555 1_555
N11A C24A 1_555 1_555
N12_2 C23_2 1_555 1_555
N12A Cu1A 1_555 1_555
N13A Cu3A 1_555 1_555
N13A_2 C25A 1_555 1_555
N14A N15A 1_555 1_555
N15A C26A 1_555 1_555
N16A Cu3A 1_555 1_555
N16A_2 C31A 1_555 1_555
N16A_3 Cu3A_3 1_555 1_555
N17A N18A 1_555 1_555
N18A C31A 1_555 1_555
C1A N2A 1_555 1_555
H1A C1A 1_555 1_555
C2A N1A 1_555 1_555
H2A C2A 1_555 1_555
C3A N3A 1_555 1_555
H3A C3A 1_555 1_555
H4A C3A 1_555 1_555
C4A C3A 1_555 1_555
C5A C4A 1_555 1_555
H5A C5A 1_555 1_555
C6A C5A 1_555 1_555
H6A C6A 1_555 1_555
C7A C6A 1_555 1_555
C8A C7A 1_555 1_555
H7A C8A 1_555 1_555
C9A C4A 1_555 1_555
H8A C9A 1_555 1_555
C10A C7A 1_555 1_555
H9A C10A 1_555 1_555
H10A C10A 1_555 1_555
C11A N5A 1_555 1_555
H11A C11A 1_555 1_555
C12A N4A 1_555 1_555
H12A C12A 1_555 1_555
C13A N7A 1_555 1_555
H13A C13A 1_555 1_555
C14A N7A 1_555 1_555
H14A C14A 1_555 1_555
C15A N9A 1_555 1_555
H15A C15A 1_555 1_555
H16A C15A 1_555 1_555
C16A C15A 1_555 1_555
C17A C16A 1_555 1_555
H17A C17A 1_555 1_555
C18A C17A 1_555 1_555
H18A C18A 1_555 1_555
C19A C18A 1_555 1_555
C20A C19A 1_555 1_555
H19A C20A 1_555 1_555
C21A C16A 1_555 1_555
H20A C21A 1_555 1_555
C22A N10A 1_555 1_555
H21A C22A 1_555 1_555
H22A C22A 1_555 1_555
C23_2 N10 1_555 1_555
C23A N10A 1_555 1_555
H23_2 C23_2 1_555 1_555
H23A C23A 1_555 1_555
C24_2 N12_2 1_555 1_555
C24A N12A 1_555 1_555
H24_2 C24_2 1_555 1_555
H24A C24A 1_555 1_555
C25A N14A 1_555 1_555
H25A C25A 1_555 1_555
C26A N13A_2 1_555 1_555
H26A C26A 1_555 1_555
C27A N15A 1_555 1_555
H27A C27A 1_555 1_555
H28A C27A 1_555 1_555
C28A C27A 1_555 1_555
C29A C30 1_555 1_555
H29A C29A 1_555 1_555
C30A C29 1_555 1_555
H30A C30A 1_555 1_555
C31A H31A 1_555 1_555
C32A N16A_2 1_555 1_555
H32A C32A 1_555 1_555
C33A N18A 1_555 1_555
H33A C33A 1_555 1_555
H34A C33A 1_555 1_555
C34A C33A 1_555 1_555
C35A C36 1_555 1_555
H35A C35A 1_555 1_555
C36A C35 1_555 1_555
H36A C36A 1_555 1_555
Mo1 O4A 1_555 1_555
Mo2 O5A 1_555 1_555
Mo3 O7 1_555 1_555
Mo3 O14 1_555 1_555
Mo3 O5A 1_555 1_555
Mo4 O8 1_555 1_555
Mo4 O10 1_555 1_555
Mo4 O2A 1_555 1_555
Mo5 O15 1_555 1_555
Mo5 O19 1_555 1_555
Mo5 O4A 1_555 1_555
Mo6 O6 1_555 1_555
Mo6 O11 1_555 1_555
Mo6 O5A 1_555 1_555
O1 O4A 1_555 1_555
O1 O5A 1_555 1_555
O2 O1A 1_555 1_555
O2 O4A 1_555 1_555
O2 O5A 1_555 1_555
O4 O1A 1_555 1_555
O4 O2A 1_555 1_555
O4 O5A 1_555 1_555
O5 O1A 1_555 1_555
O5 O2A 1_555 1_555
O5 O4A 1_555 1_555
O9 Mo6A 1_555 1_555
O18 Mo6A 1_555 1_555
O20 Mo2A 1_555 1_555
O21 Mo5A 1_555 1_555
N6 C11 1_555 1_555
N6 C12 1_555 1_555
N8 C13 1_555 1_555
N14 C25 1_555 1_555
N17 C32 1_555 1_555
C8 C9 1_555 1_555
C19 C22 1_555 1_555
C20 C21 1_555 1_555
Mo1A O1A 1_555 1_555
Mo1A O9A 1_555 1_555
Mo2A O2A 1_555 1_555
Mo3A O1A 1_555 1_555
Mo3A O7A 1_555 1_555
Mo3A O14A 1_555 1_555
Mo4A O1A 1_555 1_555
Mo4A O8A 1_555 1_555
Mo4A O10A 1_555 1_555
Mo4A O20A 1_555 1_555
Mo4A O21A 1_555 1_555
Mo5A O2A 1_555 1_555
Mo5A O15A 1_555 1_555
Mo5A O18A 1_555 1_555
Mo5A O19A 1_555 1_555
Mo6A O4A 1_555 1_555
Mo6A O6A 1_555 1_555
Mo6A O11A 1_555 1_555
N6A C11A 1_555 1_555
N6A C12A 1_555 1_555
N8A C13A 1_555 1_555
N10_2 N11_2 1_555 1_555
N12A C23A 1_555 1_555
N17A C32A 1_555 1_555
C8A C9A 1_555 1_555
C19A C22A 1_555 1_555
C20A C21A 1_555 1_555
C28A C29A 1_555 1_555
C28A C30A 1_555 1_555
C34A C35A 1_555 1_555
C34A C36A 1_555 1_555

#END
