
#######################################################################
#
#                 Cambridge Crystallographic Data Centre
#                                CCDC 
#
#######################################################################
#
# If this CIF has been generated from an entry in the Cambridge 
# Structural Database, then it will include bibliographic, chemical, 
# crystal, experimental, refinement or atomic coordinate data resulting 
# from the CCDC's data processing and validation procedures.
#
#######################################################################

data_HUZFOY
_symmetry_cell_setting           rhombohedral
_symmetry_space_group_name_H-M   'R 3 2'
_symmetry_Int_Tables_number      155
_space_group_name_Hall           'R 3 2"'
loop_
_symmetry_equiv_pos_site_id
_symmetry_equiv_pos_as_xyz
1 x,y,z
2 -y,x-y,z
3 -x+y,-x,z
4 y,x,-z
5 -x,-x+y,-z
6 x-y,-y,-z
7 2/3+x,1/3+y,1/3+z
8 2/3-y,1/3+x-y,1/3+z
9 2/3-x+y,1/3-x,1/3+z
10 2/3+y,1/3+x,1/3-z
11 2/3-x,1/3-x+y,1/3-z
12 2/3+x-y,1/3-y,1/3-z
13 1/3+x,2/3+y,2/3+z
14 1/3-y,2/3+x-y,2/3+z
15 1/3-x+y,2/3-x,2/3+z
16 1/3+y,2/3+x,2/3-z
17 1/3-x,2/3-x+y,2/3-z
18 1/3+x-y,2/3-y,2/3-z
_cell_length_a                   21.545(2)
_cell_length_b                   21.545(2)
_cell_length_c                   19.137(3)
_cell_angle_alpha                90
_cell_angle_beta                 90
_cell_angle_gamma                120
_cell_volume                     7693.03
loop_
_atom_site_label
_atom_site_type_symbol
_atom_site_fract_x
_atom_site_fract_y
_atom_site_fract_z
C1 C 0.1081(4) 0.1026(4) 0.1251(3)
H1 H 0.0691 0.0898 0.1545
C2 C 0.1751(3) 0.1023(3) 0.0419(3)
C3 C 0.2032(4) 0.0879(3) -0.0175(4)
H2 H 0.1745 0.0497 -0.0468
C4 C 0.2754(4) 0.1324(6) -0.0315(4)
H3 H 0.2958 0.1232 -0.0700
C5 C 0.3183(4) 0.1913(5) 0.0117(5)
H4 H 0.3664 0.2205 0.0006
C6 C 0.2919(4) 0.2069(5) 0.0683(5)
H5 H 0.3211 0.2460 0.0965
C7 C 0.2187(4) 0.1623(4) 0.0838(4)
C8 C 0.1938(4) 0.2102(4) 0.1919(4)
C9 C 0.1700(4) 0.1859(5) 0.2600(4)
H6 H 0.1415 0.1371 0.2689
C10 C 0.1893(5) 0.2346(4) 0.3132(4)
H7 H 0.1717 0.2179 0.3577
C11 C 0.2336(4) 0.3071(4) 0.3039(4)
C12 C 0.2546(4) 0.3295(4) 0.2349(4)
H8 H 0.2831 0.3783 0.2262
C13 C 0.2350(4) 0.2831(4) 0.1798(4)
H9 H 0.2493 0.3003 0.1347
Cd1 Cd 0.0000 0.0000 0.0000
N1 N 0.1060(3) 0.0666(2) 0.0681(2)
N2 N 0.1752(3) 0.1614(3) 0.1356(3)
C1Q C 0.3388(6) 0.5641(4) 0.5416(3)
C1A C -0.1026(4) 0.0055(6) 0.1251(3)
C1O C -0.5641(4) -0.2252(4) 0.5416(3)
C1B C -0.0055(6) -0.1081(4) 0.1251(3)
C1P C 0.2252(4) -0.3388(6) 0.5416(3)
H1Q H 0.3126 0.5769 0.5122
H1A H -0.0898 -0.0207 0.1545
H1O H -0.5769 -0.2642 0.5122
H1B H 0.0207 -0.0691 0.1545
H1P H 0.2642 -0.3126 0.5122
C2Q C 0.4061(4) 0.5644(3) 0.6248(3)
C2A C -0.1023(3) 0.0728(4) 0.0419(3)
C2O C -0.5644(3) -0.1582(3) 0.6248(3)
C2B C -0.0728(4) -0.1751(3) 0.0419(3)
C2P C 0.1582(3) -0.4061(4) 0.6248(3)
C3Q C 0.4486(5) 0.5788(3) 0.6842(4)
C3A C -0.0879(3) 0.1153(5) -0.0175(4)
C3O C -0.5788(3) -0.1301(4) 0.6842(4)
C3B C -0.1153(5) -0.2032(4) -0.0175(4)
C3P C 0.1301(4) -0.4486(5) 0.6842(4)
H2Q H 0.4581 0.6170 0.7135
H2A H -0.0497 0.1248 -0.0468
H2O H -0.6170 -0.1588 0.7135
H2B H -0.1248 -0.1745 -0.0468
H2P H 0.1588 -0.4581 0.7135
C4Q C 0.4763(7) 0.5343(6) 0.6982(4)
C4A C -0.1324(6) 0.1430(7) -0.0315(4)
C4O C -0.5343(6) -0.0579(4) 0.6982(4)
C4B C -0.1430(7) -0.2754(4) -0.0315(4)
C4P C 0.0579(4) -0.4763(7) 0.6982(4)
H3Q H 0.5059 0.5435 0.7367
H3A H -0.1232 0.1726 -0.0700
H3O H -0.5435 -0.0375 0.7367
H3B H -0.1726 -0.2958 -0.0700
H3P H 0.0375 -0.5059 0.7367
C5Q C 0.4603(6) 0.4754(5) 0.6550(5)
C5A C -0.1913(5) 0.1270(6) 0.0117(5)
C5O C -0.4754(5) -0.0150(4) 0.6550(5)
C5B C -0.1270(6) -0.3183(4) 0.0117(5)
C5P C 0.0150(4) -0.4603(6) 0.6550(5)
H4Q H 0.4792 0.4462 0.6661
H4A H -0.2205 0.1459 0.0006
H4O H -0.4462 0.0331 0.6661
H4B H -0.1459 -0.3664 0.0006
H4P H -0.0331 -0.4792 0.6661
C6Q C 0.4183(6) 0.4598(5) 0.5984(5)
C6A C -0.2069(5) 0.0850(6) 0.0683(5)
C6O C -0.4598(5) -0.0414(4) 0.5984(5)
C6B C -0.0850(6) -0.2919(4) 0.0683(5)
C6P C 0.0414(4) -0.4183(6) 0.5984(5)
H5Q H 0.4084 0.4207 0.5702
H5A H -0.2460 0.0751 0.0965
H5O H -0.4207 -0.0122 0.5702
H5B H -0.0751 -0.3211 0.0965
H5P H 0.0122 -0.4084 0.5702
C7Q C 0.3897(6) 0.5044(4) 0.5829(4)
C7A C -0.1623(4) 0.0564(6) 0.0838(4)
C7O C -0.5044(4) -0.1146(4) 0.5829(4)
C7B C -0.0564(6) -0.2187(4) 0.0838(4)
C7P C 0.1146(4) -0.3897(6) 0.5829(4)
C8Q C 0.3169(6) 0.4565(4) 0.4748(4)
C8A C -0.2102(4) -0.0164(6) 0.1919(4)
C8O C -0.4565(4) -0.1395(4) 0.4748(4)
C8B C 0.0164(6) -0.1938(4) 0.1919(4)
C8P C 0.1395(4) -0.3169(6) 0.4748(4)
C9Q C 0.3174(6) 0.4808(5) 0.4067(4)
C9A C -0.1859(5) -0.0159(6) 0.2600(4)
C9O C -0.4808(5) -0.1633(4) 0.4067(4)
C9B C 0.0159(6) -0.1700(4) 0.2600(4)
C9P C 0.1633(4) -0.3174(6) 0.4067(4)
H6Q H 0.3377 0.5296 0.3978
H6A H -0.1371 0.0044 0.2689
H6O H -0.5296 -0.1918 0.3978
H6B H -0.0044 -0.1415 0.2689
H6P H 0.1918 -0.3377 0.3978
C10Q C 0.2880(6) 0.4321(4) 0.3535(4)
C10A C -0.2346(4) -0.0453(6) 0.3132(4)
C10O C -0.4321(4) -0.1440(5) 0.3535(4)
C10B C 0.0453(6) -0.1893(5) 0.3132(4)
C10P C 0.1440(5) -0.2880(6) 0.3535(4)
H7Q H 0.2871 0.4488 0.3090
H7A H -0.2179 -0.0462 0.3577
H7O H -0.4488 -0.1616 0.3090
H7B H 0.0462 -0.1717 0.3577
H7P H 0.1616 -0.2871 0.3090
C11Q C 0.2598(6) 0.3596(4) 0.3628(4)
C11A C -0.3071(4) -0.0735(6) 0.3039(4)
C11O C -0.3596(4) -0.0997(4) 0.3628(4)
C11B C 0.0735(6) -0.2336(4) 0.3039(4)
C11P C 0.0997(4) -0.2598(6) 0.3628(4)
C12Q C 0.2584(6) 0.3372(4) 0.4318(4)
C12A C -0.3295(4) -0.0749(6) 0.2349(4)
C12O C -0.3372(4) -0.0787(4) 0.4318(4)
C12B C 0.0749(6) -0.2546(4) 0.2349(4)
C12P C 0.0787(4) -0.2584(6) 0.4318(4)
H8Q H 0.2381 0.2884 0.4405
H8A H -0.3783 -0.0952 0.2262
H8O H -0.2884 -0.0502 0.4405
H8B H 0.0952 -0.2831 0.2262
H8P H 0.0502 -0.2381 0.4405
C13Q C 0.2852(6) 0.3836(4) 0.4869(4)
C13A C -0.2831(4) -0.0481(6) 0.1798(4)
C13O C -0.3836(4) -0.0983(4) 0.4869(4)
C13B C 0.0481(6) -0.2350(4) 0.1798(4)
C13P C 0.0983(4) -0.2852(6) 0.4869(4)
H9Q H 0.2823 0.3664 0.5320
H9A H -0.3003 -0.0510 0.1347
H9O H -0.3664 -0.0840 0.5320
H9B H 0.0510 -0.2493 0.1347
H9P H 0.0840 -0.2823 0.5320
Cd1L Cd 0.3333 0.6667 0.6667
Cd1L_2 Cd -0.6667 -0.3333 0.6667
Cd1L_3 Cd 0.3333 -0.3333 0.6667
N1Q N 0.3727(4) 0.6001(2) 0.5986(2)
N1A N -0.0666(2) 0.0394(4) 0.0681(2)
N1O N -0.6001(2) -0.2273(3) 0.5986(2)
N1B N -0.0394(4) -0.1060(3) 0.0681(2)
N1P N 0.2273(3) -0.3727(4) 0.5986(2)
N1C N 0.0666(2) 0.1060(3) -0.0681(2)
N1D N -0.1060(3) -0.0394(4) -0.0681(2)
N1E N 0.0394(4) -0.0666(2) -0.0681(2)
N2Q N 0.3471(4) 0.5053(3) 0.5311(3)
N2A N -0.1614(3) 0.0138(4) 0.1356(3)
N2O N -0.5053(3) -0.1581(3) 0.5311(3)
N2B N -0.0138(4) -0.1752(3) 0.1356(3)
N2P N 0.1581(3) -0.3471(4) 0.5311(3)
Cl1 Cl 0.0000 0.0000 0.2972(6)
O1 O 0.0649(7) 0.0091(8) 0.2667(9)
O2 O 0.0000 0.0000 0.3724(8)
O1A O -0.0091(8) 0.0558(11) 0.2667(9)
O1B O -0.0558(11) -0.0649(7) 0.2667(9)
Cl2? Cl 0.0000 0.0000 0.3280(12)
O3? O -0.0662(9) -0.0082(14) 0.3531(13)
O4? O 0.0000 0.0000 0.2532(13)
loop_
_geom_bond_atom_site_label_1
_geom_bond_atom_site_label_2
_geom_bond_site_symmetry_1
_geom_bond_site_symmetry_2
C1 H1 1_555 1_555
C2 C3 1_555 1_555
C3 H2 1_555 1_555
C4 C3 1_555 1_555
H3 C4 1_555 1_555
C5 C4 1_555 1_555
H4 C5 1_555 1_555
C6 C5 1_555 1_555
H5 C6 1_555 1_555
C7 C2 1_555 1_555
C8 C9 1_555 1_555
C9 H6 1_555 1_555
C10 C9 1_555 1_555
H7 C10 1_555 1_555
C11 C10 1_555 1_555
C12 C11 1_555 1_555
H8 C12 1_555 1_555
C13 C8 1_555 1_555
H9 C13 1_555 1_555
Cd1 N1 1_555 1_555
Cl1 O1 1_555 1_555
N1 C1 1_555 1_555
N2 C1 1_555 1_555
O2 Cl1 1_555 1_555
C1Q H1Q 1_555 1_555
C1A H1A 1_555 1_555
C1O H1O 1_555 1_555
C1B H1B 1_555 1_555
C1P H1P 1_555 1_555
C2Q C3Q 1_555 1_555
C2A C3A 1_555 1_555
C2O C3O 1_555 1_555
C2B C3B 1_555 1_555
C2P C3P 1_555 1_555
C3Q H2Q 1_555 1_555
C3A H2A 1_555 1_555
C3O H2O 1_555 1_555
C3B H2B 1_555 1_555
C3P H2P 1_555 1_555
C4Q C3Q 1_555 1_555
C4A C3A 1_555 1_555
C4O C3O 1_555 1_555
C4B C3B 1_555 1_555
C4P C3P 1_555 1_555
H3Q C4Q 1_555 1_555
H3A C4A 1_555 1_555
H3O C4O 1_555 1_555
H3B C4B 1_555 1_555
H3P C4P 1_555 1_555
C5Q C4Q 1_555 1_555
C5A C4A 1_555 1_555
C5O C4O 1_555 1_555
C5B C4B 1_555 1_555
C5P C4P 1_555 1_555
H4Q C5Q 1_555 1_555
H4A C5A 1_555 1_555
H4O C5O 1_555 1_555
H4B C5B 1_555 1_555
H4P C5P 1_555 1_555
C6Q C5Q 1_555 1_555
C6A C5A 1_555 1_555
C6O C5O 1_555 1_555
C6B C5B 1_555 1_555
C6P C5P 1_555 1_555
H5Q C6Q 1_555 1_555
H5A C6A 1_555 1_555
H5O C6O 1_555 1_555
H5B C6B 1_555 1_555
H5P C6P 1_555 1_555
C7Q C2Q 1_555 1_555
C7A C2A 1_555 1_555
C7O C2O 1_555 1_555
C7B C2B 1_555 1_555
C7P C2P 1_555 1_555
C8Q C9Q 1_555 1_555
C8A C9A 1_555 1_555
C8O C9O 1_555 1_555
C8B C9B 1_555 1_555
C8P C9P 1_555 1_555
C9Q H6Q 1_555 1_555
C9A H6A 1_555 1_555
C9O H6O 1_555 1_555
C9B H6B 1_555 1_555
C9P H6P 1_555 1_555
C10Q C9Q 1_555 1_555
C10A C9A 1_555 1_555
C10O C9O 1_555 1_555
C10B C9B 1_555 1_555
C10P C9P 1_555 1_555
H7Q C10Q 1_555 1_555
H7A C10A 1_555 1_555
H7O C10O 1_555 1_555
H7B C10B 1_555 1_555
H7P C10P 1_555 1_555
C11Q C11 1_555 1_555
C11A C10A 1_555 1_555
C11O C10O 1_555 1_555
C11B C10B 1_555 1_555
C11P C10P 1_555 1_555
C12Q C11Q 1_555 1_555
C12A C11A 1_555 1_555
C12O C11O 1_555 1_555
C12B C11B 1_555 1_555
C12P C11P 1_555 1_555
H8Q C12Q 1_555 1_555
H8A C12A 1_555 1_555
H8O C12O 1_555 1_555
H8B C12B 1_555 1_555
H8P C12P 1_555 1_555
C13Q C8Q 1_555 1_555
C13A C8A 1_555 1_555
C13O C8O 1_555 1_555
C13B C8B 1_555 1_555
C13P C8P 1_555 1_555
H9Q C13Q 1_555 1_555
H9A C13A 1_555 1_555
H9O C13O 1_555 1_555
H9B C13B 1_555 1_555
H9P C13P 1_555 1_555
Cd1L N1Q 1_555 1_555
Cd1L_2 N1O 1_555 1_555
Cd1L_3 N1P 1_555 1_555
N1Q C1Q 1_555 1_555
N1A Cd1 1_555 1_555
N1O C1O 1_555 1_555
N1B Cd1 1_555 1_555
N1P C1P 1_555 1_555
N1C Cd1 1_555 1_555
N1D Cd1 1_555 1_555
N1E Cd1 1_555 1_555
N2Q C1Q 1_555 1_555
N2A C1A 1_555 1_555
N2O C1O 1_555 1_555
N2B C1B 1_555 1_555
N2P C1P 1_555 1_555
O1A Cl1 1_555 1_555
O1B Cl1 1_555 1_555
C2 N1 1_555 1_555
C6 C7 1_555 1_555
C7 N2 1_555 1_555
C8 N2 1_555 1_555
C12 C13 1_555 1_555
C1A N1A 1_555 1_555
C1B N1B 1_555 1_555
C2Q N1Q 1_555 1_555
C2A N1A 1_555 1_555
C2O N1O 1_555 1_555
C2B N1B 1_555 1_555
C2P N1P 1_555 1_555
C6Q C7Q 1_555 1_555
C6A C7A 1_555 1_555
C6O C7O 1_555 1_555
C6B C7B 1_555 1_555
C6P C7P 1_555 1_555
C7Q N2Q 1_555 1_555
C7A N2A 1_555 1_555
C7O N2O 1_555 1_555
C7B N2B 1_555 1_555
C7P N2P 1_555 1_555
C8Q N2Q 1_555 1_555
C8A N2A 1_555 1_555
C8O N2O 1_555 1_555
C8B N2B 1_555 1_555
C8P N2P 1_555 1_555
C10Q C11Q 1_555 1_555
C11A C11O 1_555 1_555
C11B C11P 1_555 1_555
C12Q C13Q 1_555 1_555
C12A C13A 1_555 1_555
C12O C13O 1_555 1_555
C12B C13B 1_555 1_555
C12P C13P 1_555 1_555

#END
