
#######################################################################
#
#                 Cambridge Crystallographic Data Centre
#                                CCDC 
#
#######################################################################
#
# If this CIF has been generated from an entry in the Cambridge 
# Structural Database, then it will include bibliographic, chemical, 
# crystal, experimental, refinement or atomic coordinate data resulting 
# from the CCDC's data processing and validation procedures.
#
#######################################################################

data_HUZFIS
_symmetry_cell_setting           monoclinic
_symmetry_space_group_name_H-M   'C 2/c'
_symmetry_Int_Tables_number      15
_space_group_name_Hall           '-C 2yn'
loop_
_symmetry_equiv_pos_site_id
_symmetry_equiv_pos_as_xyz
1 x,y,z
2 -x,y,1/2-z
3 1/2+x,1/2+y,z
4 1/2-x,1/2+y,1/2-z
5 -x,-y,-z
6 x,-y,1/2+z
7 1/2-x,1/2-y,-z
8 1/2+x,1/2-y,1/2+z
_cell_length_a                   21.844(4)
_cell_length_b                   14.217(3)
_cell_length_c                   26.213(5)
_cell_angle_alpha                90
_cell_angle_beta                 113.38(3)
_cell_angle_gamma                90
_cell_volume                     7472.21
loop_
_atom_site_label
_atom_site_type_symbol
_atom_site_fract_x
_atom_site_fract_y
_atom_site_fract_z
Cd1 Cd 0.5000 0.32960(2) 0.7500
C1 C 0.88280(16) 0.5337(2) 0.82569(14)
C2 C 1.12419(17) 0.5175(3) 0.82956(14)
H1 H 1.1673 0.5071 0.8321
C3 C 0.93857(16) 0.6745(2) 0.80957(13)
H2 H 0.9033 0.7150 0.8051
C4 C 0.58263(17) 0.5655(2) 0.80124(14)
H3 H 0.5767 0.5458 0.7657
C5 C 1.09823(16) 0.6067(2) 0.81909(13)
H4 H 1.1231 0.6566 0.8144
C6 C 0.44511(17) 0.4908(2) 0.95005(14)
H5 H 0.4086 0.4848 0.9163
C7 C 1.03332(16) 0.6203(2) 0.81564(13)
C8 C 0.62533(18) 0.6379(2) 0.82716(15)
H6 H 0.6491 0.6672 0.8090
C9 C 0.61926(16) 0.3103(2) 0.90374(14)
H7 H 0.5780 0.2808 0.8925
C10 C 0.63385(19) 0.6686(3) 0.88033(16)
H8 H 0.6630 0.7181 0.8965
C11 C 0.54844(16) 0.5224(2) 0.83017(13)
C12 C 0.99761(16) 0.5438(2) 0.82359(13)
C13 C 0.55810(16) 0.5533(2) 0.88341(14)
C14 C 0.65833(17) 0.3245(3) 0.95925(14)
H9 H 0.6424 0.3055 0.9857
C15 C 0.85394(16) 0.5731(2) 0.85911(14)
H10 H 0.8718 0.6274 0.8793
C16 C 0.85821(17) 0.4523(2) 0.79587(14)
H11 H 0.8780 0.4273 0.7733
C17 C 0.66219(15) 0.3745(2) 0.79202(13)
H12 H 0.6572 0.3801 0.7552
C18 C 0.64389(16) 0.3417(2) 0.86501(14)
C19 C 0.56408(17) 0.5082(2) 1.00058(13)
H13 H 0.6066 0.5137 1.0007
C20 C 0.50874(17) 0.4990(2) 0.95093(13)
C21 C 0.77398(16) 0.4484(2) 0.83258(14)
C22 C 0.74683(17) 0.3970(3) 0.93926(14)
H14 H 0.7888 0.4244 0.9507
C23 C 0.70640(16) 0.3844(2) 0.88333(14)
C24 C 0.48589(16) 0.4359(2) 0.85726(13)
H15 H 0.4557 0.3905 0.8582
C25 C 0.80370(16) 0.4082(2) 0.79981(14)
H16 H 0.7872 0.3524 0.7808
C26 C 0.60023(19) 0.6275(3) 0.90950(15)
H17 H 0.6055 0.6484 0.9446
C27 C 1.02331(17) 0.4531(2) 0.83416(15)
H18 H 0.9990 0.4030 0.8394
C28 C 0.72142(18) 0.3668(3) 0.97705(15)
H19 H 0.7466 0.3746 1.0149
C29 C 1.08725(18) 0.4417(3) 0.83651(16)
H20 H 1.1063 0.3821 0.8429
C32 C 0.79856(16) 0.5312(2) 0.86217(14)
H23 H 0.7779 0.5578 0.8837
N1 N 0.61660(13) 0.33649(19) 0.80680(11)
N2 N 0.50248(13) 0.44761(19) 0.81468(11)
N3 N 0.99433(13) 0.70232(19) 0.80624(11)
N4 N 0.93726(13) 0.58182(19) 0.82011(11)
N5 N 0.51693(13) 0.49603(19) 0.89961(11)
N6 N 0.71692(13) 0.4045(2) 0.83551(11)
Cd1B Cd 1.0000 0.82960(2) 0.7500
Cd1D Cd 0.5000 0.67040(2) 1.2500
Cd1B_2 Cd 0.0000 0.82960(2) 0.7500
C1A C 0.11720(16) 0.5337(2) 0.67431(14)
C2A C -0.12419(17) 0.5175(3) 0.67044(14)
H1A H -0.1673 0.5071 0.6679
C3A C 0.06143(16) 0.6745(2) 0.69043(13)
H2A H 0.0967 0.7150 0.6949
C4D C 0.41737(17) 0.4345(2) 1.19876(14)
H3D H 0.4233 0.4542 1.2343
C5A C -0.09823(16) 0.6067(2) 0.68091(13)
H4A H -0.1231 0.6566 0.6856
C6D C 0.55489(17) 0.5092(2) 1.04995(14)
H5D H 0.5914 0.5152 1.0837
C7A C -0.03332(16) 0.6203(2) 0.68436(13)
C8D C 0.37467(18) 0.3621(2) 1.17284(15)
H6D H 0.3509 0.3328 1.1910
C9A C 0.38074(16) 0.3103(2) 0.59626(14)
H7A H 0.4220 0.2808 0.6075
C10D C 0.36615(19) 0.3314(3) 1.11967(16)
H8D H 0.3370 0.2819 1.1035
C11D C 0.45156(16) 0.4776(2) 1.16983(13)
C12A C 0.00239(16) 0.5438(2) 0.67641(13)
C13D C 0.44190(16) 0.4467(2) 1.11659(14)
C14A C 0.34167(17) 0.3245(3) 0.54075(14)
H9A H 0.3576 0.3055 0.5143
C15A C 0.14606(16) 0.5731(2) 0.64089(14)
H10A H 0.1282 0.6274 0.6207
C16A C 0.14179(17) 0.4523(2) 0.70413(14)
H11A H 0.1220 0.4273 0.7267
C17A C 0.33781(15) 0.3745(2) 0.70798(13)
H12A H 0.3428 0.3801 0.7448
C18A C 0.35611(16) 0.3417(2) 0.63499(14)
C19D C 0.43592(17) 0.4918(2) 0.99942(13)
H13D H 0.3934 0.4863 0.9993
C20D C 0.49126(17) 0.5010(2) 1.04907(13)
C21A C 0.22602(16) 0.4484(2) 0.66742(14)
C22A C 0.25317(17) 0.3970(3) 0.56074(14)
H14A H 0.2112 0.4244 0.5493
C23A C 0.29360(16) 0.3844(2) 0.61667(14)
C24D C 0.51411(16) 0.5641(2) 1.14274(13)
H15D H 0.5443 0.6095 1.1418
C25A C 0.19630(16) 0.4082(2) 0.70019(14)
H16A H 0.2128 0.3524 0.7192
C26D C 0.39977(19) 0.3725(3) 1.09050(15)
H17D H 0.3945 0.3516 1.0554
C27A C -0.02331(17) 0.4531(2) 0.66584(15)
H18A H 0.0010 0.4030 0.6606
C28A C 0.27858(18) 0.3668(3) 0.52295(15)
H19A H 0.2534 0.3746 0.4851
C29A C -0.08725(18) 0.4417(3) 0.66349(16)
H20A H -0.1063 0.3821 0.6571
C32A C 0.20144(16) 0.5312(2) 0.63783(14)
H23A H 0.2221 0.5578 0.6163
N1A N 0.38340(13) 0.33649(19) 0.69320(11)
N2D N 0.49752(13) 0.55239(19) 1.18532(11)
N2A N 0.49752(13) 0.44761(19) 0.68532(11)
N3A N 0.00567(13) 0.70232(19) 0.69376(11)
N3B N 0.49433(13) 0.20232(19) 0.80624(11)
N3C N 0.50567(13) 0.20232(19) 0.69376(11)
N4A N 0.06274(13) 0.58182(19) 0.67989(11)
N5D N 0.48307(13) 0.50397(19) 1.10039(11)
N6A N 0.28308(13) 0.4045(2) 0.66449(11)
C30 C 0.8107(2) 0.1249(3) 0.83075(17)
H21 H 0.8092 0.0573 0.8375
Cl2 Cl 0.79533(6) 0.18632(8) 0.88260(4)
Cl3 Cl 0.88988(5) 0.15253(9) 0.83202(5)
Cl4 Cl 0.74908(6) 0.15106(8) 0.76523(4)
C31 C 0.5062(2) 0.1469(3) 0.99922(18)
H22 H 0.4648 0.1159 0.9962
Cl5 Cl 0.54124(7) 0.08278(10) 0.96028(5)
Cl6 Cl 0.48732(7) 0.26100(9) 0.97266(7)
Cl7 Cl 0.56102(7) 0.14835(11) 1.06883(5)
O1 O 0.77728(15) 0.6801(2) 0.17793(13)
O2 O 0.66454(15) 0.6656(3) 0.16415(14)
O3 O 0.71040(15) 0.5687(2) 0.11586(16)
O4 O 0.6947(2) 0.7285(3) 0.09550(17)
Cl1 Cl 0.71142(4) 0.65984(6) 0.13845(4)
O5 O 0.6414(3) -0.1509(4) 1.0048(2)
C33 C 0.6916(3) -0.1212(4) 0.9871(2)
H24 H 0.6742 -0.0725 0.9597
H25 H 0.7056 -0.1735 0.9713
H26 H 0.7290 -0.0973 1.0184
H27 H 0.660(5) -0.205(4) 1.023(4)
loop_
_geom_bond_atom_site_label_1
_geom_bond_atom_site_label_2
_geom_bond_site_symmetry_1
_geom_bond_site_symmetry_2
Cd1 N1 1_555 1_555
C1 C15 1_555 1_555
C2 H1 1_555 1_555
C3 H2 1_555 1_555
C4 H3 1_555 1_555
C5 C2 1_555 1_555
H4 C5 1_555 1_555
C6 H5 1_555 1_555
C7 C5 1_555 1_555
C8 C4 1_555 1_555
H6 C8 1_555 1_555
C9 H7 1_555 1_555
C10 C8 1_555 1_555
H8 C10 1_555 1_555
C11 C4 1_555 1_555
C12 C7 1_555 1_555
C13 C11 1_555 1_555
C14 C9 1_555 1_555
H9 C14 1_555 1_555
C15 H10 1_555 1_555
C16 C1 1_555 1_555
H11 C16 1_555 1_555
C17 H12 1_555 1_555
C18 C9 1_555 1_555
C19 H13 1_555 1_555
C20 C6 1_555 1_555
C21 C25 1_555 1_555
C22 H14 1_555 1_555
C23 C18 1_555 1_555
C24 H15 1_555 1_555
C25 C16 1_555 1_555
H16 C25 1_555 1_555
C26 C10 1_555 1_555
H17 C26 1_555 1_555
C27 C12 1_555 1_555
H18 C27 1_555 1_555
C28 C14 1_555 1_555
H19 C28 1_555 1_555
C29 C2 1_555 1_555
H20 C29 1_555 1_555
C30 H21 1_555 1_555
C31 H22 1_555 1_555
C32 C15 1_555 1_555
H23 C32 1_555 1_555
N1 C17 1_555 1_555
N2 Cd1 1_555 1_555
N3 C3 1_555 1_555
N4 C1 1_555 1_555
N5 C13 1_555 1_555
N6 C17 1_555 1_555
O1 Cl1 1_555 1_555
O2 Cl1 1_555 1_555
O3 Cl1 1_555 1_555
O4 Cl1 1_555 1_555
Cl2 C30 1_555 1_555
Cl3 C30 1_555 1_555
Cl4 C30 1_555 1_555
Cl5 C31 1_555 1_555
Cl6 C31 1_555 1_555
Cl7 C31 1_555 1_555
O5 C33 1_555 1_555
C33 H24 1_555 1_555
H25 C33 1_555 1_555
H26 C33 1_555 1_555
H27 O5 1_555 1_555
Cd1B N3 1_555 1_555
Cd1D N2D 1_555 1_555
Cd1B_2 N3A 1_555 1_555
C1A C15A 1_555 1_555
C2A H1A 1_555 1_555
C3A H2A 1_555 1_555
C4D H3D 1_555 1_555
C5A C2A 1_555 1_555
H4A C5A 1_555 1_555
C6D C19 1_555 1_555
H5D C6D 1_555 1_555
C7A C5A 1_555 1_555
C8D C4D 1_555 1_555
H6D C8D 1_555 1_555
C9A H7A 1_555 1_555
C10D C8D 1_555 1_555
H8D C10D 1_555 1_555
C11D C4D 1_555 1_555
C12A C7A 1_555 1_555
C13D C11D 1_555 1_555
C14A C9A 1_555 1_555
H9A C14A 1_555 1_555
C15A H10A 1_555 1_555
C16A C1A 1_555 1_555
H11A C16A 1_555 1_555
C17A H12A 1_555 1_555
C18A C9A 1_555 1_555
C19D C6 1_555 1_555
H13D C19D 1_555 1_555
C20D C6D 1_555 1_555
C21A C25A 1_555 1_555
C22A H14A 1_555 1_555
C23A C18A 1_555 1_555
C24D H15D 1_555 1_555
C25A C16A 1_555 1_555
H16A C25A 1_555 1_555
C26D C10D 1_555 1_555
H17D C26D 1_555 1_555
C27A C12A 1_555 1_555
H18A C27A 1_555 1_555
C28A C14A 1_555 1_555
H19A C28A 1_555 1_555
C29A C2A 1_555 1_555
H20A C29A 1_555 1_555
C32A C15A 1_555 1_555
H23A C32A 1_555 1_555
N1A Cd1 1_555 1_555
N2D C11D 1_555 1_555
N2A Cd1 1_555 1_555
N3A C3A 1_555 1_555
N3B Cd1 1_555 1_555
N3C Cd1 1_555 1_555
N4A C1A 1_555 1_555
N5D C13D 1_555 1_555
N6A C17A 1_555 1_555
C3 N4 1_555 1_555
C7 N3 1_555 1_555
C11 N2 1_555 1_555
C12 N4 1_555 1_555
C13 C26 1_555 1_555
C18 N1 1_555 1_555
C19 C20 1_555 1_555
C20 N5 1_555 1_555
C21 C32 1_555 1_555
C21 N6 1_555 1_555
C22 C23 1_555 1_555
C22 C28 1_555 1_555
C23 N6 1_555 1_555
C24 N2 1_555 1_555
C24 N5 1_555 1_555
C27 C29 1_555 1_555
C3A N4A 1_555 1_555
C7A N3A 1_555 1_555
C12A N4A 1_555 1_555
C13D C26D 1_555 1_555
C17A N1A 1_555 1_555
C18A N1A 1_555 1_555
C19D C20D 1_555 1_555
C20D N5D 1_555 1_555
C21A C32A 1_555 1_555
C21A N6A 1_555 1_555
C22A C23A 1_555 1_555
C22A C28A 1_555 1_555
C23A N6A 1_555 1_555
C24D N2D 1_555 1_555
C24D N5D 1_555 1_555
C27A C29A 1_555 1_555

#END
