
#######################################################################
#
#                 Cambridge Crystallographic Data Centre
#                                CCDC 
#
#######################################################################
#
# If this CIF has been generated from an entry in the Cambridge 
# Structural Database, then it will include bibliographic, chemical, 
# crystal, experimental, refinement or atomic coordinate data resulting 
# from the CCDC's data processing and validation procedures.
#
#######################################################################

data_HUZGAL
_symmetry_cell_setting           monoclinic
_symmetry_space_group_name_H-M   'P 21/c'
_symmetry_Int_Tables_number      14
_space_group_name_Hall           '-P 2ybc'
loop_
_symmetry_equiv_pos_site_id
_symmetry_equiv_pos_as_xyz
1 x,y,z
2 -x,1/2+y,1/2-z
3 -x,-y,-z
4 x,1/2-y,1/2+z
_cell_length_a                   14.2375(18)
_cell_length_b                   27.810(3)
_cell_length_c                   7.6786(9)
_cell_angle_alpha                90
_cell_angle_beta                 100.399(2)
_cell_angle_gamma                90
_cell_volume                     2990.36
loop_
_atom_site_label
_atom_site_type_symbol
_atom_site_fract_x
_atom_site_fract_y
_atom_site_fract_z
Cd1 Cd 0.59952(4) 0.540142(19) 0.96434(8)
Cd2 Cd 0.40676(4) 0.78171(2) 0.95756(10)
C1 C 0.6390(7) 0.6988(3) 1.1279(13)
H1 H 0.5880 0.6811 1.0671
C2 C 0.7200(8) 0.6768(3) 1.2191(13)
H2 H 0.7249 0.6435 1.2165
C3 C 0.7939(7) 0.7032(4) 1.3142(14)
H3 H 0.8464 0.6869 1.3767
C4 C 0.7933(7) 0.7515(4) 1.3202(13)
H4 H 0.8432 0.7687 1.3870
C5 C 0.7132(6) 0.7749(3) 1.2204(12)
C6 C 0.6378(6) 0.7487(3) 1.1316(11)
C7 C 0.6030(6) 0.8239(3) 1.0858(11)
C8 C 0.5559(6) 0.8690(3) 1.0172(13)
H5 H 0.5479 0.8896 1.1154
H6 H 0.5957 0.8859 0.9470
C9 C 0.1206(7) 0.7876(3) 0.7703(16)
H7 H 0.1409 0.7577 0.8170
C10 C 0.0270(8) 0.7956(5) 0.6902(19)
H8 H -0.0162 0.7703 0.6843
C11 C -0.0055(8) 0.8392(5) 0.6187(16)
H9 H -0.0686 0.8422 0.5615
C12 C 0.0540(8) 0.8783(4) 0.6306(14)
H10 H 0.0317 0.9083 0.5879
C13 C 0.1494(7) 0.8714(3) 0.7093(12)
C14 C 0.1835(6) 0.8264(3) 0.7778(12)
C15 C 0.3019(6) 0.8756(3) 0.8227(11)
C16 C 0.3971(6) 0.8970(3) 0.8786(13)
H11 H 0.4119 0.9180 0.7863
H12 H 0.3983 0.9160 0.9849
C17 C 0.3601(5) 0.6889(3) 0.8621(13)
C18 C 0.2954(5) 0.6461(3) 0.8095(10)
C19 C 0.3196(5) 0.5987(3) 0.8521(10)
C20 C 0.2463(5) 0.5644(3) 0.8241(10)
H13 H 0.2603 0.5322 0.8498
C21 C 0.1533(5) 0.5781(3) 0.7582(11)
C22 C 0.1304(6) 0.6247(3) 0.7083(12)
H14 H 0.0681 0.6337 0.6613
C23 C 0.2042(6) 0.6574(3) 0.7312(11)
H15 H 0.1913 0.6887 0.6913
C24 C 0.4190(5) 0.5826(3) 0.9186(10)
C25 C -0.0065(6) 0.5497(4) 0.6663(14)
C26 C -0.0825(7) 0.5419(3) 0.7537(13)
H16 H -0.0709 0.5356 0.8746
C27 C -0.1756(5) 0.5436(3) 0.6611(11)
C28 C -0.1937(5) 0.5481(3) 0.4776(10)
C29 C -0.1187(6) 0.5574(3) 0.3921(11)
H17 H -0.1308 0.5628 0.2705
C30 C -0.2510(6) 0.5387(3) 0.7738(11)
C31 C -0.2929(5) 0.5404(3) 0.3696(11)
C32 C -0.0259(7) 0.5590(4) 0.4832(13)
H18 H 0.0238 0.5661 0.4236
N1 N 0.5682(5) 0.7807(2) 1.0435(10)
N2 N 0.2793(5) 0.8301(2) 0.8428(9)
N3 N 0.6890(5) 0.8223(2) 1.1908(9)
H19 H 0.7230 0.8466 1.2323
N4 N 0.2255(5) 0.9017(3) 0.7413(9)
H20 H 0.2253 0.9318 0.7150
O1 O 0.3744(4) 0.71903(19) 0.7474(8)
O2 O 0.3858(5) 0.6974(2) 1.0241(9)
O3 O 0.4873(4) 0.60974(18) 0.9084(8)
O4 O 0.4350(4) 0.54099(18) 0.9817(8)
O5 O 0.0860(4) 0.5437(2) 0.7617(9)
O6 O -0.2659(4) 0.4992(2) 0.8370(8)
O7 O -0.2937(3) 0.57708(19) 0.8058(7)
O8 O -0.3532(4) 0.5204(2) 0.4376(7)
O9 O -0.3037(4) 0.5549(2) 0.2129(7)
O10 O 0.5246(4) 0.5219(2) 0.6828(8)
N5 N 0.4661(6) 0.8596(3) 0.9122(17)
H21 H 0.470(4) 0.508(4) 0.661(14)
H22 H 0.5579(18) 0.512(5) 0.609(5)
H23 H 0.4868(11) 0.8692(10) 0.8284(16)
Cd1B Cd 0.40048(4) 0.459858(19) 1.03566(8)
Cd1_2 Cd -0.40048(4) 0.540142(19) 0.96434(8)
Cd1_3 Cd -0.40048(4) 0.540142(19) -0.03566(8)
Cd2C Cd 0.40676(4) 0.71829(2) 0.45756(10)
O1C O 0.3744(4) 0.78097(19) 1.2474(8)
O4B O 0.5650(4) 0.45901(18) 1.0183(8)
O6_2 O 0.7341(4) 0.4992(2) 0.8370(8)
O7_2 O 0.7063(3) 0.57708(19) 0.8058(7)
O9_2 O 0.6963(4) 0.5549(2) 1.2129(7)
loop_
_geom_bond_atom_site_label_1
_geom_bond_atom_site_label_2
_geom_bond_site_symmetry_1
_geom_bond_site_symmetry_2
Cd1 O3 1_555 1_555
Cd2 N1 1_555 1_555
C1 H1 1_555 1_555
C2 C1 1_555 1_555
H2 C2 1_555 1_555
C3 C2 1_555 1_555
H3 C3 1_555 1_555
C4 C3 1_555 1_555
H4 C4 1_555 1_555
C5 C4 1_555 1_555
C6 C1 1_555 1_555
C7 C8 1_555 1_555
C8 H5 1_555 1_555
H6 C8 1_555 1_555
C9 H7 1_555 1_555
C10 C9 1_555 1_555
H8 C10 1_555 1_555
C11 C10 1_555 1_555
H9 C11 1_555 1_555
C12 C11 1_555 1_555
H10 C12 1_555 1_555
C13 C12 1_555 1_555
C14 C9 1_555 1_555
C15 C16 1_555 1_555
C16 H11 1_555 1_555
H12 C16 1_555 1_555
C17 C18 1_555 1_555
C18 C19 1_555 1_555
C19 C20 1_555 1_555
C20 H13 1_555 1_555
C21 C20 1_555 1_555
C22 C21 1_555 1_555
H14 C22 1_555 1_555
C23 C18 1_555 1_555
H15 C23 1_555 1_555
C24 C19 1_555 1_555
C25 C26 1_555 1_555
C26 H16 1_555 1_555
C27 C26 1_555 1_555
C28 C27 1_555 1_555
C29 C28 1_555 1_555
H17 C29 1_555 1_555
C30 C27 1_555 1_555
C31 C28 1_555 1_555
C32 C25 1_555 1_555
H18 C32 1_555 1_555
N1 C6 1_555 1_555
N2 Cd2 1_555 1_555
N3 C5 1_555 1_555
H19 N3 1_555 1_555
N4 C13 1_555 1_555
H20 N4 1_555 1_555
O1 Cd2 1_555 1_555
O2 Cd2 1_555 1_555
O3 C24 1_555 1_555
O4 Cd1 1_555 1_555
O5 C21 1_555 1_555
O6 C30 1_555 1_555
O7 C30 1_555 1_555
O8 C31 1_555 1_555
O9 C31 1_555 1_555
O10 Cd1 1_555 1_555
N5 Cd2 1_555 1_555
H21 O10 1_555 1_555
H22 O10 1_555 1_555
H23 N5 1_555 1_555
Cd1B O4 1_555 1_555
Cd1_2 O6 1_555 1_555
Cd1_3 O9 1_555 1_555
Cd2C O1 1_555 1_555
O1C Cd2 1_555 1_555
O4B Cd1 1_555 1_555
O6_2 Cd1 1_555 1_555
O7_2 Cd1 1_555 1_555
O9_2 Cd1 1_555 1_555
C5 C6 1_555 1_555
C7 N1 1_555 1_555
C7 N3 1_555 1_555
C8 N5 1_555 1_555
C13 C14 1_555 1_555
C14 N2 1_555 1_555
C15 N2 1_555 1_555
C15 N4 1_555 1_555
C16 N5 1_555 1_555
C17 O1 1_555 1_555
C17 O2 1_555 1_555
C22 C23 1_555 1_555
C24 O4 1_555 1_555
C25 O5 1_555 1_555
C29 C32 1_555 1_555
O7 Cd1_2 1_555 1_555
Cd1B O4B 1_555 1_555

#END
