
#######################################################################
#
#                 Cambridge Crystallographic Data Centre
#                                CCDC 
#
#######################################################################
#
# If this CIF has been generated from an entry in the Cambridge 
# Structural Database, then it will include bibliographic, chemical, 
# crystal, experimental, refinement or atomic coordinate data resulting 
# from the CCDC's data processing and validation procedures.
#
#######################################################################

data_HUZHIU
_symmetry_cell_setting           monoclinic
_symmetry_space_group_name_H-M   'C 2/c'
_symmetry_Int_Tables_number      15
_space_group_name_Hall           '-C 2yn'
loop_
_symmetry_equiv_pos_site_id
_symmetry_equiv_pos_as_xyz
1 x,y,z
2 -x,y,1/2-z
3 1/2+x,1/2+y,z
4 1/2-x,1/2+y,1/2-z
5 -x,-y,-z
6 x,-y,1/2+z
7 1/2-x,1/2-y,-z
8 1/2+x,1/2-y,1/2+z
_cell_length_a                   21.1344(8)
_cell_length_b                   7.7398(3)
_cell_length_c                   15.9084(5)
_cell_angle_alpha                90
_cell_angle_beta                 117.625(2)
_cell_angle_gamma                90
_cell_volume                     2305.58
loop_
_atom_site_label
_atom_site_type_symbol
_atom_site_fract_x
_atom_site_fract_y
_atom_site_fract_z
Co1 Co 0.140564(17) 0.74410(4) 0.154577(19)
O1 O 0.13872(10) 0.7811(2) 0.27394(11)
O2 O 0.15332(10) 0.5131(2) 0.65767(11)
O3 O 0.13376(10) 0.4025(2) 0.52143(11)
O4 O 0.17978(11) 1.0500(2) 0.30770(12)
N1 N 0.05264(11) 0.8873(3) 0.06027(13)
N2 N 0.22847(12) 1.1342(3) 0.65289(14)
C1 C 0.16914(12) 0.8857(3) 0.42692(14)
C2 C 0.15280(13) 0.7280(3) 0.45311(15)
C3 C 0.16241(12) 0.7029(3) 0.54493(15)
C4 C 0.18800(13) 0.8375(3) 0.61020(16)
C5 C 0.20475(12) 0.9951(3) 0.58433(14)
C6 C 0.19492(13) 1.0202(3) 0.49289(15)
C7 C 0.16261(13) 0.9124(3) 0.32931(15)
C8 C 0.14851(13) 0.5304(3) 0.57474(15)
C9 C 0.02904(17) 1.0168(4) 0.09276(19)
C10 C 0.02310(16) 0.8716(4) -0.03336(18)
H1 H 0.1934(12) 0.824(3) 0.6702(16)
H2 H 0.2048(12) 1.129(3) 0.4755(15)
H3 H 0.1367(13) 0.634(3) 0.4111(17)
H4 H 0.2503(15) 1.222(4) 0.640(2)
H5 H 0.2566(14) 1.095(3) 0.7060(18)
H6 H 0.0416(17) 0.781(4) -0.054(2)
H7 H 0.0524(17) 1.039(4) 0.158(2)
Co1E Co 0.140564(17) 0.25590(4) -0.345423(19)
Co1E_2 Co 0.140564(17) 0.25590(4) 0.654577(19)
Co1E_3 Co 0.140564(17) 1.25590(4) 0.654577(19)
Co1D Co -0.140564(17) 1.25590(4) -0.154577(19)
Co1_2 Co 0.140564(17) -0.25590(4) 0.154577(19)
O1E O 0.13872(10) 0.2189(2) -0.22606(11)
O2E O 0.15332(10) 0.4869(2) 0.15767(11)
O2_2 O 0.15332(10) 0.5131(2) -0.34233(11)
O3E O 0.13376(10) 0.5975(2) 0.02143(11)
O3_2 O 0.13376(10) 0.4025(2) -0.47857(11)
O4E O 0.17978(11) -0.0500(2) -0.19230(12)
N1D N -0.05264(11) 1.1127(3) -0.06027(13)
N1E N 0.05264(11) 0.1127(3) -0.43973(13)
N2E N 0.22847(12) -0.1342(3) 0.15289(14)
N2E_2 N 0.22847(12) 0.8658(3) 0.15289(14)
N2_2 N 0.22847(12) 0.1342(3) -0.34711(14)
C1E C 0.16914(12) 0.1143(3) -0.07308(14)
C2E C 0.15280(13) 0.2720(3) -0.04689(15)
C3E C 0.16241(12) 0.2971(3) 0.04493(15)
C4E C 0.18800(13) 0.1625(3) 0.11020(16)
C5E C 0.20475(12) 0.0049(3) 0.08433(14)
C6E C 0.19492(13) -0.0202(3) -0.00711(15)
C7E C 0.16261(13) 0.0876(3) -0.17069(15)
C8E C 0.14851(13) 0.4696(3) 0.07474(15)
C9D C -0.02904(17) 0.9832(4) -0.09276(19)
C10D C -0.02310(16) 1.1284(4) 0.03336(18)
H1E H 0.1934(12) 0.176(3) 0.1702(16)
H2E H 0.2048(12) -0.129(3) -0.0245(15)
H3E H 0.1367(13) 0.366(3) -0.0889(17)
H4E H 0.2503(15) -0.222(4) 0.140(2)
H4E_2 H 0.2503(15) 0.778(4) 0.140(2)
H4_2 H 0.2503(15) 0.222(4) -0.360(2)
H5E H 0.2566(14) -0.095(3) 0.2060(18)
H5E_2 H 0.2566(14) 0.905(3) 0.2060(18)
H5_2 H 0.2566(14) 0.095(3) -0.2940(18)
H6D H -0.0416(17) 1.219(4) 0.054(2)
H7D H -0.0524(17) 0.961(4) -0.158(2)
loop_
_geom_bond_atom_site_label_1
_geom_bond_atom_site_label_2
_geom_bond_site_symmetry_1
_geom_bond_site_symmetry_2
Co1 O1 1_555 1_555
O1 C7 1_555 1_555
O2 C8 1_555 1_555
O3 C8 1_555 1_555
O4 C7 1_555 1_555
N1 Co1 1_555 1_555
N2 C5 1_555 1_555
C1 C2 1_555 1_555
C2 C3 1_555 1_555
C3 C4 1_555 1_555
C4 C5 1_555 1_555
C5 C6 1_555 1_555
C6 C1 1_555 1_555
C7 C1 1_555 1_555
C8 C3 1_555 1_555
C9 N1 1_555 1_555
C10 N1 1_555 1_555
H1 C4 1_555 1_555
H2 C6 1_555 1_555
H3 C2 1_555 1_555
H4 N2 1_555 1_555
H5 N2 1_555 1_555
H6 C10 1_555 1_555
H7 C9 1_555 1_555
Co1E O1E 1_555 1_555
Co1E_2 O2 1_555 1_555
Co1E_3 N2 1_555 1_555
Co1D N1D 1_555 1_555
Co1_2 N2E 1_555 1_555
O1E C7E 1_555 1_555
O2E Co1 1_555 1_555
O2_2 Co1E 1_555 1_555
O3E Co1 1_555 1_555
O3_2 Co1E 1_555 1_555
O4E C7E 1_555 1_555
N1D C9D 1_555 1_555
N1E Co1E 1_555 1_555
N2E C5E 1_555 1_555
N2E_2 Co1 1_555 1_555
N2_2 Co1E 1_555 1_555
C1E C2E 1_555 1_555
C2E C3E 1_555 1_555
C3E C4E 1_555 1_555
C4E C5E 1_555 1_555
C5E C6E 1_555 1_555
C6E C1E 1_555 1_555
C7E C1E 1_555 1_555
C8E O2E 1_555 1_555
C9D C10 1_555 1_555
C10D C9 1_555 1_555
H1E C4E 1_555 1_555
H2E C6E 1_555 1_555
H3E C2E 1_555 1_555
H4E N2E 1_555 1_555
H4E_2 N2E_2 1_555 1_555
H4_2 N2_2 1_555 1_555
H5E N2E 1_555 1_555
H5E_2 N2E_2 1_555 1_555
H5_2 N2_2 1_555 1_555
H6D C10D 1_555 1_555
H7D C9D 1_555 1_555
O3 Co1E_2 1_555 1_555
O3E C8E 1_555 1_555
N1D C10D 1_555 1_555
C3E C8E 1_555 1_555

#END
