
#######################################################################
#
#                 Cambridge Crystallographic Data Centre
#                                CCDC 
#
#######################################################################
#
# If this CIF has been generated from an entry in the Cambridge 
# Structural Database, then it will include bibliographic, chemical, 
# crystal, experimental, refinement or atomic coordinate data resulting 
# from the CCDC's data processing and validation procedures.
#
#######################################################################

data_HUZHUG
_symmetry_cell_setting           triclinic
_symmetry_space_group_name_H-M   'P -1'
_symmetry_Int_Tables_number      2
_space_group_name_Hall           '-P 1'
loop_
_symmetry_equiv_pos_site_id
_symmetry_equiv_pos_as_xyz
1 x,y,z
2 -x,-y,-z
_cell_length_a                   7.8195(9)
_cell_length_b                   11.1897(12)
_cell_length_c                   14.7172(16)
_cell_angle_alpha                72.772(2)
_cell_angle_beta                 77.226(2)
_cell_angle_gamma                71.839(2)
_cell_volume                     1156.85
loop_
_atom_site_label
_atom_site_type_symbol
_atom_site_fract_x
_atom_site_fract_y
_atom_site_fract_z
H1 H -0.833(6) 0.893(5) 0.306(5)
H2 H -0.722(13) 0.812(10) 0.366(2)
O11 O -0.7358(6) 0.8317(5) 0.3070(4)
H3 H 0.37(3) 0.49(2) -0.427(3)
H4 H 0.424(10) 0.442(8) -0.301(3)
H5 H -0.463(8) -0.121(5) 0.093(2)
H6 H -0.567(5) -0.103(6) 0.192(4)
Ni1 Ni -0.41095(7) 0.08670(5) 0.13744(4)
Ni2 Ni 0.14545(7) 0.62786(5) -0.35404(4)
O1 O -0.3468(4) 0.0007(3) 0.2694(2)
O2 O 0.3056(4) 0.1628(3) 0.1684(2)
O3 O -0.4625(5) -0.0929(3) 0.1478(3)
O4 O 0.4382(4) 0.1794(3) 0.0198(2)
O5 O 0.0632(4) 0.5228(3) -0.2232(2)
O6 O -0.6705(4) -0.2901(3) 0.6749(2)
O7 O 0.3782(5) 0.4666(4) -0.3601(3)
O8 O -0.7105(4) -0.2592(3) 0.5260(2)
O9 O -0.2390(5) 0.5540(3) -0.1983(2)
O10 O -0.0759(4) 0.0062(3) 0.2923(2)
N1 N -0.1677(5) 0.0286(4) 0.0559(3)
N2 N -0.3678(5) 0.2675(4) 0.1376(3)
N3 N -0.9503(5) 0.5535(4) -0.4395(3)
N4 N -0.0647(5) -0.2027(4) 0.6525(3)
C1 C -0.0676(6) 0.4126(4) -0.0750(3)
C2 C -0.2252(6) 0.3883(4) -0.0134(3)
H7 H -0.3387 0.4294 -0.0331
C3 C -0.2117(5) 0.3034(4) 0.0766(3)
C4 C -0.0424(6) 0.2448(4) 0.1076(3)
H8 H -0.0336 0.1909 0.1690
C5 C 0.1135(5) 0.2675(4) 0.0462(3)
C6 C 0.1022(6) 0.3511(4) -0.0449(3)
H9 H 0.2071 0.3657 -0.0854
C7 C 0.2942(5) 0.1997(4) 0.0802(3)
C8 C -0.0848(6) 0.5053(4) -0.1732(3)
C9 C -0.2665(6) -0.0908(4) 0.4246(3)
C10 C -0.4218(6) -0.1351(4) 0.4552(3)
H10 H -0.4986 -0.1241 0.4116
C11 C -0.4618(6) -0.1957(4) 0.5511(3)
C12 C -0.3488(5) -0.2117(4) 0.6166(3)
H11 H -0.3789 -0.2498 0.6813
C13 C -0.1898(6) -0.1707(4) 0.5855(3)
C14 C -0.1489(6) -0.1102(4) 0.4896(3)
H12 H -0.0432 -0.0825 0.4686
C15 C -0.2240(6) -0.0218(4) 0.3206(3)
C16 C -0.6241(6) -0.2500(4) 0.5857(3)
C17 C -0.1408(6) 0.0897(4) -0.0369(3)
H13 H -0.2372 0.1529 -0.0644
C18 C -0.8495(6) 0.5401(5) -0.5234(3)
H14 H -0.7431 0.5670 -0.5416
C19 C -1.1010(6) 0.5129(5) -0.4161(3)
H15 H -1.1742 0.5205 -0.3579
C20 C -0.0255(6) -0.0618(4) 0.0930(3)
H16 H -0.0393 -0.1061 0.1574
H17 H -0.361(7) 0.250(5) 0.204(4)
H18 H -0.010(7) -0.140(5) 0.638(4)
H19 H -0.461(7) 0.325(5) 0.123(3)
H20 H -0.115(7) -0.224(5) 0.708(4)
H3_2 H -0.63(3) 0.49(2) -0.427(3)
H4_2 H -0.576(10) 0.442(8) -0.301(3)
H5_2 H 0.537(8) -0.121(5) 0.093(2)
H6_2 H 0.433(5) -0.103(6) 0.192(4)
Ni1A Ni 0.41095(7) -0.08670(5) -0.13744(4)
Ni1_2 Ni 0.58905(7) 0.08670(5) 0.13744(4)
Ni1_3 Ni -1.41095(7) 0.08670(5) 0.13744(4)
Ni1_4 Ni -0.41095(7) 1.08670(5) -0.86256(4)
Ni2_2 Ni -0.85455(7) -0.37214(5) 0.64596(4)
Ni2_3 Ni 0.14545(7) -0.37214(5) 0.64596(4)
Ni2_4 Ni -0.85455(7) 0.62786(5) -0.35404(4)
Ni2A Ni -1.14545(7) 0.37214(5) -0.64596(4)
O1_2 O 0.6532(4) 0.0007(3) 0.2694(2)
O1_3 O -0.3468(4) 1.0007(3) -0.7306(2)
O2_2 O -0.6944(4) 0.1628(3) 0.1684(2)
O3_2 O 0.5375(5) -0.0929(3) 0.1478(3)
O4_2 O -0.5618(4) 0.1794(3) 0.0198(2)
O5_2 O -0.9368(4) 0.5228(3) -0.2232(2)
O6_2 O 0.3295(4) 0.7099(3) -0.3251(2)
O6_3 O -0.6705(4) 0.7099(3) -0.3251(2)
O7_2 O -0.6218(5) 0.4666(4) -0.3601(3)
O8_2 O 0.2895(4) 0.7408(3) -0.4740(2)
O8_3 O -0.7105(4) 0.7408(3) -0.4740(2)
O9_2 O -1.2390(5) 0.5540(3) -0.1983(2)
O10_2 O -0.0759(4) 1.0062(3) -0.7077(2)
N1A N 0.1677(5) -0.0286(4) -0.0559(3)
N1_2 N 0.8323(5) 0.0286(4) 0.0559(3)
N2_2 N -1.3678(5) 0.2675(4) 0.1376(3)
N2_3 N 0.6322(5) 0.2675(4) 0.1376(3)
N3_2 N 0.0497(5) 0.5535(4) -0.4395(3)
N3A N -1.0497(5) 0.4465(4) -0.5605(3)
N4_2 N -0.0647(5) 0.7973(4) -0.3475(3)
N4_3 N -1.0647(5) 0.7973(4) -0.3475(3)
C1_2 C -1.0676(6) 0.4126(4) -0.0750(3)
C2_2 C -1.2252(6) 0.3883(4) -0.0134(3)
H7_2 H -1.3387 0.4294 -0.0331
C3_2 C -1.2117(5) 0.3034(4) 0.0766(3)
C4_2 C -1.0424(6) 0.2448(4) 0.1076(3)
H8_2 H -1.0336 0.1909 0.1690
C5_2 C -0.8865(5) 0.2675(4) 0.0462(3)
C6_2 C -0.8978(6) 0.3511(4) -0.0449(3)
H9_2 H -0.7929 0.3657 -0.0854
C7_2 C -0.7058(5) 0.1997(4) 0.0802(3)
C8_2 C -1.0848(6) 0.5053(4) -0.1732(3)
C9_2 C -0.2665(6) 0.9092(4) -0.5754(3)
C10_2 C -0.4218(6) 0.8649(4) -0.5448(3)
H10_2 H -0.4986 0.8759 -0.5884
C11_2 C -0.4618(6) 0.8043(4) -0.4489(3)
C12_2 C -0.3488(5) 0.7883(4) -0.3834(3)
H11_2 H -0.3789 0.7502 -0.3187
C13_2 C -0.1898(6) 0.8293(4) -0.4145(3)
C14_2 C -0.1489(6) 0.8898(4) -0.5104(3)
H12_2 H -0.0432 0.9175 -0.5314
C15_2 C -0.2240(6) 0.9782(4) -0.6794(3)
C16_2 C -0.6241(6) 0.7500(4) -0.4143(3)
C17A C 0.1408(6) -0.0897(4) 0.0369(3)
H13A H 0.2372 -0.1529 0.0644
C18A C -1.1505(6) 0.4599(5) -0.4766(3)
H14A H -1.2569 0.4330 -0.4584
C19A C -0.8990(6) 0.4871(5) -0.5839(3)
H15A H -0.8258 0.4795 -0.6421
C20A C 0.0255(6) 0.0618(4) -0.0930(3)
H16A H 0.0393 0.1061 -0.1574
H17_2 H -1.361(7) 0.250(5) 0.204(4)
H17_3 H 0.639(7) 0.250(5) 0.204(4)
H18_2 H -0.010(7) 0.860(5) -0.362(4)
H18_3 H -1.010(7) 0.860(5) -0.362(4)
H19_2 H -1.461(7) 0.325(5) 0.123(3)
H19_3 H 0.539(7) 0.325(5) 0.123(3)
H20_2 H -0.115(7) 0.776(5) -0.292(4)
H20_3 H -1.115(7) 0.776(5) -0.292(4)
O12 O -0.4146(7) 0.3791(5) 0.7855(4)
O13 O -0.8006(9) -0.7213(6) 0.7225(5)
loop_
_geom_bond_atom_site_label_1
_geom_bond_atom_site_label_2
_geom_bond_site_symmetry_1
_geom_bond_site_symmetry_2
H1 O11 1_555 1_555
H2 O11 1_555 1_555
H3 O7 1_555 1_555
H4 O7 1_555 1_555
H5 O3 1_555 1_555
H6 O3 1_555 1_555
Ni1 O1 1_555 1_555
Ni2 O5 1_555 1_555
O1 C15 1_555 1_555
O2 C7 1_555 1_555
O3 Ni1 1_555 1_555
O4 C7 1_555 1_555
O5 C8 1_555 1_555
O6 C16 1_555 1_555
O7 Ni2 1_555 1_555
O8 C16 1_555 1_555
O9 C8 1_555 1_555
O10 C15 1_555 1_555
N1 Ni1 1_555 1_555
N2 Ni1 1_555 1_555
N3 C18 1_555 1_555
N4 C13 1_555 1_555
C1 C2 1_555 1_555
C2 H7 1_555 1_555
C3 N2 1_555 1_555
C4 C3 1_555 1_555
H8 C4 1_555 1_555
C5 C4 1_555 1_555
C6 C1 1_555 1_555
H9 C6 1_555 1_555
C7 C5 1_555 1_555
C8 C1 1_555 1_555
C9 C10 1_555 1_555
C10 H10 1_555 1_555
C11 C10 1_555 1_555
C12 C11 1_555 1_555
H11 C12 1_555 1_555
C13 C12 1_555 1_555
C14 C9 1_555 1_555
H12 C14 1_555 1_555
C15 C9 1_555 1_555
C16 C11 1_555 1_555
C17 N1 1_555 1_555
H13 C17 1_555 1_555
C18 H14 1_555 1_555
C19 N3 1_555 1_555
H15 C19 1_555 1_555
C20 N1 1_555 1_555
H16 C20 1_555 1_555
H17 N2 1_555 1_555
H18 N4 1_555 1_555
H19 N2 1_555 1_555
H20 N4 1_555 1_555
H3_2 O7_2 1_555 1_555
H4_2 O7_2 1_555 1_555
H5_2 O3_2 1_555 1_555
H6_2 O3_2 1_555 1_555
Ni1A N1A 1_555 1_555
Ni1_2 O2 1_555 1_555
Ni1_3 N2_2 1_555 1_555
Ni1_4 O1_3 1_555 1_555
Ni2_2 O6 1_555 1_555
Ni2_3 N4 1_555 1_555
Ni2_4 N3 1_555 1_555
Ni2A N3A 1_555 1_555
O1_2 Ni1_2 1_555 1_555
O1_3 C15_2 1_555 1_555
O2_2 Ni1 1_555 1_555
O3_2 Ni1_2 1_555 1_555
O4_2 Ni1 1_555 1_555
O5_2 Ni2_4 1_555 1_555
O6_2 Ni2 1_555 1_555
O6_3 Ni2_4 1_555 1_555
O7_2 Ni2_4 1_555 1_555
O8_2 Ni2 1_555 1_555
O8_3 Ni2_4 1_555 1_555
O9_2 C8_2 1_555 1_555
O10_2 C15_2 1_555 1_555
N1A C17A 1_555 1_555
N1_2 Ni1_2 1_555 1_555
N2_2 C3_2 1_555 1_555
N2_3 Ni1_2 1_555 1_555
N3_2 Ni2 1_555 1_555
N3A C18A 1_555 1_555
N4_2 Ni2 1_555 1_555
N4_3 Ni2_4 1_555 1_555
C1_2 C2_2 1_555 1_555
C2_2 H7_2 1_555 1_555
C3_2 C2_2 1_555 1_555
C4_2 C3_2 1_555 1_555
H8_2 C4_2 1_555 1_555
C5_2 C4_2 1_555 1_555
C6_2 C1_2 1_555 1_555
H9_2 C6_2 1_555 1_555
C7_2 O2_2 1_555 1_555
C8_2 O5_2 1_555 1_555
C9_2 C10_2 1_555 1_555
C10_2 H10_2 1_555 1_555
C11_2 C10_2 1_555 1_555
C12_2 C11_2 1_555 1_555
H11_2 C12_2 1_555 1_555
C13_2 N4_2 1_555 1_555
C14_2 C9_2 1_555 1_555
H12_2 C14_2 1_555 1_555
C15_2 C9_2 1_555 1_555
C16_2 O6_3 1_555 1_555
C17A C20 1_555 1_555
H13A C17A 1_555 1_555
C18A C19 1_555 1_555
H14A C18A 1_555 1_555
C19A C18 1_555 1_555
H15A C19A 1_555 1_555
C20A C17 1_555 1_555
H16A C20A 1_555 1_555
H17_2 N2_2 1_555 1_555
H17_3 N2_3 1_555 1_555
H18_2 N4_2 1_555 1_555
H18_3 N4_3 1_555 1_555
H19_2 N2_2 1_555 1_555
H19_3 N2_3 1_555 1_555
H20_2 N4_2 1_555 1_555
H20_3 N4_3 1_555 1_555
O4 Ni1_2 1_555 1_555
O8 Ni2_2 1_555 1_555
C2 C3 1_555 1_555
C5 C6 1_555 1_555
C13 C14 1_555 1_555
O4_2 C7_2 1_555 1_555
O8_3 C16_2 1_555 1_555
N1A C20A 1_555 1_555
N3A C19A 1_555 1_555
C1_2 C8_2 1_555 1_555
C5_2 C6_2 1_555 1_555
C5_2 C7_2 1_555 1_555
C11_2 C16_2 1_555 1_555
C12_2 C13_2 1_555 1_555
C13_2 C14_2 1_555 1_555

#END
