
#######################################################################
#
#                 Cambridge Crystallographic Data Centre
#                                CCDC 
#
#######################################################################
#
# If this CIF has been generated from an entry in the Cambridge 
# Structural Database, then it will include bibliographic, chemical, 
# crystal, experimental, refinement or atomic coordinate data resulting 
# from the CCDC's data processing and validation procedures.
#
#######################################################################

data_HUZJUI01
_symmetry_cell_setting           monoclinic
_symmetry_space_group_name_H-M   'P 21/n'
_symmetry_Int_Tables_number      14
_space_group_name_Hall           '-P 2yn'
loop_
_symmetry_equiv_pos_site_id
_symmetry_equiv_pos_as_xyz
1 x,y,z
2 1/2-x,1/2+y,1/2-z
3 -x,-y,-z
4 1/2+x,1/2-y,1/2+z
_cell_length_a                   10.7198(18)
_cell_length_b                   6.5947(11)
_cell_length_c                   13.771(2)
_cell_angle_alpha                90
_cell_angle_beta                 105.104(3)
_cell_angle_gamma                90
_cell_volume                     939.894
loop_
_atom_site_label
_atom_site_type_symbol
_atom_site_fract_x
_atom_site_fract_y
_atom_site_fract_z
In1 In 0.07659(2) -0.54968(4) -0.28633(2)
P1 P 0.10698(9) -1.05810(15) -0.32934(8)
H1 H 0.0638 -1.0756 -0.4009
O1 O 0.2489(3) -1.0592(5) -0.3224(2)
O2 O 0.0562(3) -0.8638(5) -0.2993(3)
O3 O 0.0627(3) -0.2328(4) -0.2767(2)
O4 O 0.1551(2) -0.5289(4) -0.4187(2)
O5 O 0.0972(2) -0.4729(4) -0.5838(2)
N1 N 0.5507(3) -0.0710(5) -0.3182(3)
C1 C 0.6325(5) 0.0769(9) -0.3250(4)
H2 H 0.640(4) 0.184(7) -0.279(3)
C2 C 0.5460(6) -0.2329(8) -0.3768(4)
H3 H 0.476(5) -0.342(9) -0.376(4)
C3 C 0.7100(6) 0.0644(11) -0.3904(5)
H4 H 0.770(6) 0.165(10) -0.387(5)
C4 C 0.7034(6) -0.1000(10) -0.4519(5)
H5 H 0.756(5) -0.108(8) -0.499(4)
C5 C 0.6209(7) -0.2511(10) -0.4439(4)
H6 H 0.599(7) -0.370(11) -0.490(5)
C6 C 0.0733(4) -0.5014(5) -0.5006(3)
In1A In 0.42341(2) -1.04968(4) -0.21367(2)
In1A_2 In 0.42341(2) -0.04968(4) -0.21367(2)
In1B In -0.07659(2) -0.45032(4) -0.71367(2)
In1_2 In 0.07659(2) 0.45032(4) -0.28633(2)
In1_3 In 0.07659(2) -1.54968(4) -0.28633(2)
P1_2 P 0.10698(9) -0.05810(15) -0.32934(8)
H1_2 H 0.0638 -0.0756 -0.4009
O1A O 0.2511(3) -0.5592(5) -0.1776(2)
O1_2 O 0.2489(3) -0.0592(5) -0.3224(2)
O2A O 0.4438(3) -0.3638(5) -0.2007(3)
O2_2 O 0.0562(3) 0.1362(5) -0.2993(3)
O3A O 0.4373(3) 0.2672(4) -0.2233(2)
O3_2 O 0.0627(3) -1.2328(4) -0.2767(2)
O4A O 0.3449(2) -0.0289(4) -0.0813(2)
O4B O -0.1551(2) -0.4711(4) -0.5813(2)
O5C O 0.5972(2) -0.0271(4) -0.0838(2)
O5B O -0.0972(2) -0.5271(4) -0.4162(2)
N1A N -0.0507(3) -0.5710(5) -0.1818(3)
C1A C -0.1325(5) -0.4231(9) -0.1750(4)
H2A H -0.140(4) -0.316(7) -0.221(3)
C2A C -0.0460(6) -0.7329(8) -0.1232(4)
H3A H 0.024(5) -0.842(9) -0.124(4)
C3A C -0.2100(6) -0.4356(11) -0.1096(5)
H4A H -0.270(6) -0.335(10) -0.113(5)
C4A C -0.2034(6) -0.6000(10) -0.0481(5)
H5A H -0.256(5) -0.608(8) -0.001(4)
C5A C -0.1209(7) -0.7511(10) -0.0561(4)
H6A H -0.099(7) -0.870(11) -0.010(5)
C6B C -0.0733(4) -0.4986(5) -0.4994(3)
loop_
_geom_bond_atom_site_label_1
_geom_bond_atom_site_label_2
_geom_bond_site_symmetry_1
_geom_bond_site_symmetry_2
In1 O2 1_555 1_555
P1 H1 1_555 1_555
O1 P1 1_555 1_555
O2 P1 1_555 1_555
O3 In1 1_555 1_555
O4 In1 1_555 1_555
O5 C6 1_555 1_555
N1 C1 1_555 1_555
C1 H2 1_555 1_555
C2 N1 1_555 1_555
H3 C2 1_555 1_555
C3 C1 1_555 1_555
H4 C3 1_555 1_555
C4 C3 1_555 1_555
H5 C4 1_555 1_555
C5 C2 1_555 1_555
H6 C5 1_555 1_555
C6 O4 1_555 1_555
In1A O1 1_555 1_555
In1A_2 N1 1_555 1_555
In1B O5 1_555 1_555
In1_2 O2_2 1_555 1_555
In1_3 O3_2 1_555 1_555
P1_2 O3 1_555 1_555
H1_2 P1_2 1_555 1_555
O1A In1 1_555 1_555
O1_2 In1A_2 1_555 1_555
O2A In1A_2 1_555 1_555
O2_2 P1_2 1_555 1_555
O3A In1A_2 1_555 1_555
O3_2 P1 1_555 1_555
O4A In1A_2 1_555 1_555
O4B In1B 1_555 1_555
O5C In1A_2 1_555 1_555
O5B In1 1_555 1_555
N1A In1 1_555 1_555
C1A N1A 1_555 1_555
H2A C1A 1_555 1_555
C2A N1A 1_555 1_555
H3A C2A 1_555 1_555
C3A C1A 1_555 1_555
H4A C3A 1_555 1_555
C4A C3A 1_555 1_555
H5A C4A 1_555 1_555
C5A C2A 1_555 1_555
H6A C5A 1_555 1_555
C6B C6 1_555 1_555
C4 C5 1_555 1_555
P1_2 O1_2 1_555 1_555
O4B C6B 1_555 1_555
O5B C6B 1_555 1_555
C4A C5A 1_555 1_555

#END
