
#######################################################################
#
#                 Cambridge Crystallographic Data Centre
#                                CCDC 
#
#######################################################################
#
# If this CIF has been generated from an entry in the Cambridge 
# Structural Database, then it will include bibliographic, chemical, 
# crystal, experimental, refinement or atomic coordinate data resulting 
# from the CCDC's data processing and validation procedures.
#
#######################################################################

data_HUZJAO
_symmetry_cell_setting           monoclinic
_symmetry_space_group_name_H-M   'C 2/c'
_symmetry_Int_Tables_number      15
_space_group_name_Hall           '-C 2yn'
loop_
_symmetry_equiv_pos_site_id
_symmetry_equiv_pos_as_xyz
1 x,y,z
2 -x,y,1/2-z
3 1/2+x,1/2+y,z
4 1/2-x,1/2+y,1/2-z
5 -x,-y,-z
6 x,-y,1/2+z
7 1/2-x,1/2-y,-z
8 1/2+x,1/2-y,1/2+z
_cell_length_a                   21.096(8)
_cell_length_b                   7.845(3)
_cell_length_c                   15.635(6)
_cell_angle_alpha                90
_cell_angle_beta                 116.381(16)
_cell_angle_gamma                90
_cell_volume                     2318.09
loop_
_atom_site_label
_atom_site_type_symbol
_atom_site_fract_x
_atom_site_fract_y
_atom_site_fract_z
Ni1 Ni 0.13398(3) 0.73008(6) 0.14469(3)
O1 O 0.13588(15) 0.7797(3) 0.26815(18)
O2 O 0.16770(16) 0.5214(3) 0.67128(18)
O3 O 0.12297(17) 0.4211(3) 0.52656(18)
O4 O 0.17525(19) 1.0478(4) 0.30102(19)
N1 N 0.05357(18) 0.8911(4) 0.0599(2)
N2 N 0.2202(2) 1.1466(5) 0.6470(3)
C1 C 0.1671(2) 0.8865(5) 0.4238(2)
C2 C 0.1532(2) 0.7298(5) 0.4543(3)
C3 C 0.1645(2) 0.7099(5) 0.5488(3)
C4 C 0.1891(2) 0.8455(5) 0.6120(3)
C5 C 0.2012(2) 1.0036(5) 0.5812(3)
C6 C 0.1903(2) 1.0218(5) 0.4878(3)
C7 C 0.1587(2) 0.9102(5) 0.3229(3)
C8 C 0.1507(2) 0.5420(5) 0.5833(3)
C9 C 0.0315(3) 1.0225(6) 0.0940(3)
C10 C 0.0215(3) 0.8711(6) -0.0342(3)
H1 H 0.1979(17) 0.831(4) 0.672(2)
H2 H 0.2012(19) 1.125(5) 0.471(2)
H3 H 0.1377(19) 0.639(4) 0.414(2)
H4 H 0.243(2) 1.220(5) 0.633(3)
H5 H 0.247(2) 1.113(5) 0.700(3)
H6 H 0.035(2) 0.774(5) -0.061(3)
H7 H 0.058(2) 1.039(6) 0.162(3)
Ni1E Ni 0.13398(3) 0.26992(6) -0.35531(3)
Ni1E_2 Ni 0.13398(3) 0.26992(6) 0.64469(3)
Ni1E_3 Ni 0.13398(3) 1.26992(6) 0.64469(3)
Ni1D Ni -0.13398(3) 1.26992(6) -0.14469(3)
Ni1_2 Ni 0.13398(3) -0.26992(6) 0.14469(3)
O1E O 0.13588(15) 0.2203(3) -0.23185(18)
O2E O 0.16770(16) 0.4786(3) 0.17128(18)
O2_2 O 0.16770(16) 0.5214(3) -0.32872(18)
O3E O 0.12297(17) 0.5789(3) 0.02656(18)
O3_2 O 0.12297(17) 0.4211(3) -0.47344(18)
O4E O 0.17525(19) -0.0478(4) -0.19898(19)
N1D N -0.05357(18) 1.1089(4) -0.0599(2)
N1E N 0.05357(18) 0.1089(4) -0.4401(2)
N2E N 0.2202(2) -0.1466(5) 0.1470(3)
N2E_2 N 0.2202(2) 0.8534(5) 0.1470(3)
N2_2 N 0.2202(2) 0.1466(5) -0.3530(3)
C1E C 0.1671(2) 0.1135(5) -0.0762(2)
C2E C 0.1532(2) 0.2702(5) -0.0457(3)
C3E C 0.1645(2) 0.2901(5) 0.0488(3)
C4E C 0.1891(2) 0.1545(5) 0.1120(3)
C5E C 0.2012(2) -0.0036(5) 0.0812(3)
C6E C 0.1903(2) -0.0218(5) -0.0122(3)
C7E C 0.1587(2) 0.0898(5) -0.1771(3)
C8E C 0.1507(2) 0.4580(5) 0.0833(3)
C9D C -0.0315(3) 0.9775(6) -0.0940(3)
C10D C -0.0215(3) 1.1289(6) 0.0342(3)
H1E H 0.1979(17) 0.169(4) 0.172(2)
H2E H 0.2012(19) -0.125(5) -0.029(2)
H3E H 0.1377(19) 0.361(4) -0.086(2)
H4E H 0.243(2) -0.220(5) 0.133(3)
H4E_2 H 0.243(2) 0.780(5) 0.133(3)
H4_2 H 0.243(2) 0.220(5) -0.367(3)
H5E H 0.247(2) -0.113(5) 0.200(3)
H5E_2 H 0.247(2) 0.887(5) 0.200(3)
H5_2 H 0.247(2) 0.113(5) -0.300(3)
H6D H -0.035(2) 1.226(5) 0.061(3)
H7D H -0.058(2) 0.961(6) -0.162(3)
loop_
_geom_bond_atom_site_label_1
_geom_bond_atom_site_label_2
_geom_bond_site_symmetry_1
_geom_bond_site_symmetry_2
Ni1 O1 1_555 1_555
O1 C7 1_555 1_555
O2 C8 1_555 1_555
O3 C8 1_555 1_555
O4 C7 1_555 1_555
N1 Ni1 1_555 1_555
N2 C5 1_555 1_555
C1 C2 1_555 1_555
C2 C3 1_555 1_555
C3 C4 1_555 1_555
C4 C5 1_555 1_555
C5 C6 1_555 1_555
C6 C1 1_555 1_555
C7 C1 1_555 1_555
C8 C3 1_555 1_555
C9 N1 1_555 1_555
C10 N1 1_555 1_555
H1 C4 1_555 1_555
H2 C6 1_555 1_555
H3 C2 1_555 1_555
H4 N2 1_555 1_555
H5 N2 1_555 1_555
H6 C10 1_555 1_555
H7 C9 1_555 1_555
Ni1E O1E 1_555 1_555
Ni1E_2 O2 1_555 1_555
Ni1E_3 N2 1_555 1_555
Ni1D N1D 1_555 1_555
Ni1_2 N2E 1_555 1_555
O1E C7E 1_555 1_555
O2E Ni1 1_555 1_555
O2_2 Ni1E 1_555 1_555
O3E Ni1 1_555 1_555
O3_2 Ni1E 1_555 1_555
O4E C7E 1_555 1_555
N1D C9D 1_555 1_555
N1E Ni1E 1_555 1_555
N2E C5E 1_555 1_555
N2E_2 Ni1 1_555 1_555
N2_2 Ni1E 1_555 1_555
C1E C2E 1_555 1_555
C2E C3E 1_555 1_555
C3E C4E 1_555 1_555
C4E C5E 1_555 1_555
C5E C6E 1_555 1_555
C6E C1E 1_555 1_555
C7E C1E 1_555 1_555
C8E O2E 1_555 1_555
C9D C10 1_555 1_555
C10D C9 1_555 1_555
H1E C4E 1_555 1_555
H2E C6E 1_555 1_555
H3E C2E 1_555 1_555
H4E N2E 1_555 1_555
H4E_2 N2E_2 1_555 1_555
H4_2 N2_2 1_555 1_555
H5E N2E 1_555 1_555
H5E_2 N2E_2 1_555 1_555
H5_2 N2_2 1_555 1_555
H6D C10D 1_555 1_555
H7D C9D 1_555 1_555
O3 Ni1E_2 1_555 1_555
O3E C8E 1_555 1_555
N1D C10D 1_555 1_555
C3E C8E 1_555 1_555

#END
