
#######################################################################
#
#                 Cambridge Crystallographic Data Centre
#                                CCDC 
#
#######################################################################
#
# If this CIF has been generated from an entry in the Cambridge 
# Structural Database, then it will include bibliographic, chemical, 
# crystal, experimental, refinement or atomic coordinate data resulting 
# from the CCDC's data processing and validation procedures.
#
#######################################################################

data_HUZJOC
_symmetry_cell_setting           monoclinic
_symmetry_space_group_name_H-M   'P 21/c'
_symmetry_Int_Tables_number      14
_space_group_name_Hall           '-P 2ybc'
loop_
_symmetry_equiv_pos_site_id
_symmetry_equiv_pos_as_xyz
1 x,y,z
2 -x,1/2+y,1/2-z
3 -x,-y,-z
4 x,1/2-y,1/2+z
_cell_length_a                   5.1808(1)
_cell_length_b                   11.5689(3)
_cell_length_c                   16.5956(5)
_cell_angle_alpha                90
_cell_angle_beta                 92.362(2)
_cell_angle_gamma                90
_cell_volume                     993.831
loop_
_atom_site_label
_atom_site_type_symbol
_atom_site_fract_x
_atom_site_fract_y
_atom_site_fract_z
Ni1 Ni 0.24608(10) 0.46108(4) 0.46155(3)
Ni2 Ni 0.17758(11) 0.70949(5) 0.42123(3)
O1 O -0.0554(6) 0.5711(3) 0.4342(2)
O2 O 0.4143(7) 0.6176(3) 0.5017(2)
O3 O 0.4224(6) 0.4785(3) 0.35317(19)
O4 O 0.9185(6) 0.8204(3) 0.09982(18)
O5 O 0.3698(6) 0.6652(3) 0.32147(18)
O6 O 1.0216(7) 0.6902(3) 0.00772(19)
O7 O 0.4794(8) 0.8476(4) 0.4396(3)
N1 N 1.0463(8) 0.3130(3) 0.1636(3)
C1 C 0.6405(8) 0.5489(3) 0.2425(3)
C2 C 0.7020(8) 0.6394(4) 0.1910(2)
H1 H 0.6235 0.7111 0.1964
C3 C 0.8799(8) 0.6225(4) 0.1319(3)
C4 C 0.9966(8) 0.5150(4) 0.1240(3)
H2 H 1.1143 0.5034 0.0840
C5 C 0.9386(8) 0.4250(4) 0.1754(3)
C6 C 0.7611(8) 0.4426(4) 0.2339(3)
H3 H 0.7214 0.3822 0.2683
C7 C 0.4593(8) 0.5647(4) 0.3102(3)
C8 C 0.9451(8) 0.7196(4) 0.0756(3)
H4 H 0.348(9) 0.622(4) 0.531(3)
H5 H -0.124(9) 0.547(4) 0.399(3)
H6 H 1.038(8) 0.276(4) 0.202(3)
H7 H 1.222(10) 0.320(4) 0.150(3)
Ni1B Ni -0.24608(10) 0.53892(4) 0.53845(3)
Ni1B_2 Ni 0.75392(10) 0.53892(4) 0.53845(3)
Ni1A Ni 0.75392(10) 0.96108(4) 0.03845(3)
Ni2C Ni 1.17758(11) 0.79051(5) -0.07877(3)
Ni2A Ni 0.82242(11) 0.20949(5) 0.07877(3)
O1B O 0.0554(6) 0.4289(3) 0.5658(2)
O2B O 0.5857(7) 0.3824(3) 0.4983(2)
O4A O 0.0815(6) 0.3204(3) 0.40018(18)
O6C O 0.0216(7) 0.8098(3) 0.50772(19)
N1A N -0.0463(8) 0.8130(3) 0.3364(3)
H4B H 0.652(9) 0.378(4) 0.469(3)
H5B H 0.124(9) 0.453(4) 0.601(3)
H6A H -0.038(8) 0.776(4) 0.298(3)
H7A H -0.222(10) 0.820(4) 0.350(3)
loop_
_geom_bond_atom_site_label_1
_geom_bond_atom_site_label_2
_geom_bond_site_symmetry_1
_geom_bond_site_symmetry_2
Ni1 O1 1_555 1_555
Ni2 O1 1_555 1_555
O1 H5 1_555 1_555
O2 Ni1 1_555 1_555
O3 Ni1 1_555 1_555
O4 C8 1_555 1_555
O5 Ni2 1_555 1_555
O6 C8 1_555 1_555
O7 Ni2 1_555 1_555
N1 C5 1_555 1_555
C1 C2 1_555 1_555
C2 H1 1_555 1_555
C3 C2 1_555 1_555
C4 C3 1_555 1_555
H2 C4 1_555 1_555
C5 C4 1_555 1_555
C6 C1 1_555 1_555
H3 C6 1_555 1_555
C7 O3 1_555 1_555
C8 C3 1_555 1_555
H4 O2 1_555 1_555
H6 N1 1_555 1_555
H7 N1 1_555 1_555
Ni1B O1 1_555 1_555
Ni1B_2 O2 1_555 1_555
Ni1A O4 1_555 1_555
Ni2C O6 1_555 1_555
Ni2A N1 1_555 1_555
O1B Ni1 1_555 1_555
O2B Ni1 1_555 1_555
O4A Ni1 1_555 1_555
O6C Ni2 1_555 1_555
N1A Ni2 1_555 1_555
H4B O2B 1_555 1_555
H5B O1B 1_555 1_555
H6A N1A 1_555 1_555
H7A N1A 1_555 1_555
Ni2 O2 1_555 1_555
O5 C7 1_555 1_555
C1 C7 1_555 1_555
C5 C6 1_555 1_555
Ni1B O1B 1_555 1_555
Ni1B_2 O2B 1_555 1_555

#END
