
#######################################################################
#
#                 Cambridge Crystallographic Data Centre
#                                CCDC 
#
#######################################################################
#
# If this CIF has been generated from an entry in the Cambridge 
# Structural Database, then it will include bibliographic, chemical, 
# crystal, experimental, refinement or atomic coordinate data resulting 
# from the CCDC's data processing and validation procedures.
#
#######################################################################

data_HUZJUI
_symmetry_cell_setting           monoclinic
_symmetry_space_group_name_H-M   'P 21/c'
_symmetry_Int_Tables_number      14
_space_group_name_Hall           '-P 2ybc'
loop_
_symmetry_equiv_pos_site_id
_symmetry_equiv_pos_as_xyz
1 x,y,z
2 -x,1/2+y,1/2-z
3 -x,-y,-z
4 x,1/2-y,1/2+z
_cell_length_a                   8.9931(18)
_cell_length_b                   9.2163(18)
_cell_length_c                   11.988(2)
_cell_angle_alpha                90
_cell_angle_beta                 96.907(3)
_cell_angle_gamma                90
_cell_volume                     986.392
loop_
_atom_site_label
_atom_site_type_symbol
_atom_site_fract_x
_atom_site_fract_y
_atom_site_fract_z
In1 In 0.09874(4) 0.23415(4) 0.60503(3)
P1 P 0.03078(15) 0.40673(14) 0.84721(11)
H1 H -0.0670 0.3596 0.8462
O1 O 0.1079(7) 0.3473(7) 0.7534(5)
O2 O 0.0075(6) 0.5650(5) 0.8230(5)
O3 O 0.1194(5) 0.3815(7) 0.9583(4)
O4 O -0.1053(4) 0.3519(4) 0.5390(4)
O5 O -0.1837(4) 0.5671(5) 0.4698(4)
N1 N 0.3353(5) 0.1712(6) 0.6628(4)
C1 C -0.0840(6) 0.4772(6) 0.5027(5)
C2 C 0.4392(8) 0.1765(10) 0.5938(7)
H2 H 0.4103 0.1978 0.5185
C3 C 0.3769(9) 0.1355(10) 0.7696(6)
H3 H 0.3047 0.1306 0.8189
C4 C 0.5240(11) 0.1056(13) 0.8091(8)
H4 H 0.5499 0.0785 0.8836
C5 C 0.6313(10) 0.1159(11) 0.7384(9)
H5 H 0.7314 0.0989 0.7645
C6 C 0.5895(9) 0.1516(13) 0.6292(9)
H6 H 0.6604 0.1592 0.5791
In1A In -0.09874(4) -0.26585(4) 0.89497(3)
In1A_2 In -0.09874(4) 0.73415(4) 0.89497(3)
In1C In 0.09874(4) 0.26585(4) 1.10503(3)
In1B In -0.09874(4) 0.76585(4) 0.39497(3)
In1B_2 In -0.09874(4) -0.23415(4) 0.39497(3)
P1A P -0.03078(15) -0.09327(14) 0.65279(11)
H1A H 0.0670 -0.1404 0.6538
O1A O -0.1079(7) -0.1527(7) 0.7466(5)
O2A O -0.0075(6) 0.0650(5) 0.6770(5)
O2_2 O 0.0075(6) -0.4350(5) 0.8230(5)
O3A O -0.1194(5) -0.1185(7) 0.5417(4)
O3C O 0.1194(5) 0.1185(7) 0.4583(4)
O3B O -0.1194(5) -0.3815(7) 1.0417(4)
O4B O 0.1053(4) 0.6481(4) 0.4610(4)
O4A O 0.1053(4) -0.1481(4) 0.9610(4)
O5B O 0.1837(4) 0.4329(5) 0.5302(4)
O5C O -0.1837(4) -0.0671(5) 0.9698(4)
N1A N -0.3353(5) -0.3288(6) 0.8372(4)
C1B C 0.0840(6) 0.5228(6) 0.4973(5)
C2A C -0.4392(8) -0.3235(10) 0.9062(7)
H2A H -0.4103 -0.3022 0.9815
C3A C -0.3769(9) -0.3645(10) 0.7304(6)
H3A H -0.3047 -0.3694 0.6811
C4A C -0.5240(11) -0.3944(13) 0.6909(8)
H4A H -0.5499 -0.4215 0.6164
C5A C -0.6313(10) -0.3841(11) 0.7616(9)
H5A H -0.7314 -0.4011 0.7355
C6A C -0.5895(9) -0.3484(13) 0.8708(9)
H6A H -0.6604 -0.3408 0.9209
loop_
_geom_bond_atom_site_label_1
_geom_bond_atom_site_label_2
_geom_bond_site_symmetry_1
_geom_bond_site_symmetry_2
In1 O1 1_555 1_555
P1 H1 1_555 1_555
O1 P1 1_555 1_555
O2 P1 1_555 1_555
O3 P1 1_555 1_555
O4 In1 1_555 1_555
O5 C1 1_555 1_555
N1 In1 1_555 1_555
C1 O4 1_555 1_555
C2 N1 1_555 1_555
H2 C2 1_555 1_555
C3 N1 1_555 1_555
H3 C3 1_555 1_555
C4 C3 1_555 1_555
H4 C4 1_555 1_555
C5 C4 1_555 1_555
H5 C5 1_555 1_555
C6 C2 1_555 1_555
H6 C6 1_555 1_555
In1A O1A 1_555 1_555
In1A_2 O2 1_555 1_555
In1C O3 1_555 1_555
In1B O5 1_555 1_555
In1B_2 O3A 1_555 1_555
P1A H1A 1_555 1_555
O1A P1A 1_555 1_555
O2A In1 1_555 1_555
O2_2 In1A 1_555 1_555
O3A P1A 1_555 1_555
O3C In1 1_555 1_555
O3B In1A 1_555 1_555
O4B In1B 1_555 1_555
O4A In1A 1_555 1_555
O5B In1 1_555 1_555
O5C In1A 1_555 1_555
N1A In1A 1_555 1_555
C1B C1 1_555 1_555
C2A N1A 1_555 1_555
H2A C2A 1_555 1_555
C3A N1A 1_555 1_555
H3A C3A 1_555 1_555
C4A C3A 1_555 1_555
H4A C4A 1_555 1_555
C5A C4A 1_555 1_555
H5A C5A 1_555 1_555
C6A C2A 1_555 1_555
H6A C6A 1_555 1_555
C5 C6 1_555 1_555
P1A O2A 1_555 1_555
O4B C1B 1_555 1_555
O5B C1B 1_555 1_555
C5A C6A 1_555 1_555

#END
