
#######################################################################
#
#                 Cambridge Crystallographic Data Centre
#                                CCDC 
#
#######################################################################
#
# If this CIF has been generated from an entry in the Cambridge 
# Structural Database, then it will include bibliographic, chemical, 
# crystal, experimental, refinement or atomic coordinate data resulting 
# from the CCDC's data processing and validation procedures.
#
#######################################################################

data_HUZJIW
_symmetry_cell_setting           monoclinic
_symmetry_space_group_name_H-M   'P 21/c'
_symmetry_Int_Tables_number      14
_space_group_name_Hall           '-P 2ybc'
loop_
_symmetry_equiv_pos_site_id
_symmetry_equiv_pos_as_xyz
1 x,y,z
2 -x,1/2+y,1/2-z
3 -x,-y,-z
4 x,1/2-y,1/2+z
_cell_length_a                   5.2642(12)
_cell_length_b                   11.727(3)
_cell_length_c                   16.330(4)
_cell_angle_alpha                90
_cell_angle_beta                 93.399(4)
_cell_angle_gamma                90
_cell_volume                     1006.33
loop_
_atom_site_label
_atom_site_type_symbol
_atom_site_fract_x
_atom_site_fract_y
_atom_site_fract_z
Co1 Co 0.24379(8) 0.45869(4) 0.46131(3)
Co2 Co 0.17397(9) 0.70801(4) 0.41836(3)
O1 O -0.0571(5) 0.5703(2) 0.43079(17)
O2 O 0.4155(5) 0.6172(2) 0.50387(18)
O3 O 0.4017(5) 0.4805(2) 0.34679(16)
O4 O 0.9307(6) 0.8176(2) 0.10101(17)
O5 O 0.3736(6) 0.6668(2) 0.31853(17)
O6 O 1.0379(7) 0.6901(2) 0.00826(18)
O7 O 0.4863(9) 0.8506(5) 0.4405(3)
N1 N 1.0501(6) 0.3176(3) 0.1694(2)
C1 C 0.6366(6) 0.5501(3) 0.2397(2)
C2 C 0.7018(7) 0.6394(3) 0.1887(2)
H1 H 0.6233 0.7101 0.1924
C3 C 0.8852(7) 0.6220(3) 0.1320(2)
C4 C 1.0024(7) 0.5160(3) 0.1261(2)
H2 H 1.1235 0.5047 0.0877
C5 C 0.9389(6) 0.4274(3) 0.1774(2)
C6 C 0.7558(7) 0.4447(3) 0.2338(2)
H3 H 0.7121 0.3852 0.2679
C7 C 0.4530(7) 0.5665(3) 0.3061(2)
C8 C 0.9563(7) 0.7179(3) 0.0763(2)
H4 H 0.371(9) 0.629(4) 0.538(3)
H5 H -0.117(9) 0.551(4) 0.395(3)
H6 H 1.052(8) 0.280(4) 0.213(3)
H7 H 1.216(9) 0.326(4) 0.162(3)
Co1B Co -0.24379(8) 0.54131(4) 0.53869(3)
Co1B_2 Co 0.75621(8) 0.54131(4) 0.53869(3)
Co1A Co 0.75621(8) 0.95869(4) 0.03869(3)
Co2C Co 1.17397(9) 0.79199(4) -0.08164(3)
Co2A Co 0.82603(9) 0.20801(4) 0.08164(3)
O1B O 0.0571(5) 0.4297(2) 0.56921(17)
O2B O 0.5845(5) 0.3828(2) 0.49613(18)
O4A O 0.0693(6) 0.3176(2) 0.39899(17)
O6C O 0.0379(7) 0.8099(2) 0.50826(18)
N1A N -0.0501(6) 0.8176(3) 0.3306(2)
H4B H 0.629(9) 0.371(4) 0.462(3)
H5B H 0.117(9) 0.449(4) 0.605(3)
H6A H -0.052(8) 0.780(4) 0.287(3)
H7A H -0.216(9) 0.826(4) 0.338(3)
loop_
_geom_bond_atom_site_label_1
_geom_bond_atom_site_label_2
_geom_bond_site_symmetry_1
_geom_bond_site_symmetry_2
Co1 O1 1_555 1_555
Co2 O1 1_555 1_555
O1 H5 1_555 1_555
O2 Co1 1_555 1_555
O3 Co1 1_555 1_555
O4 C8 1_555 1_555
O5 Co2 1_555 1_555
O6 C8 1_555 1_555
O7 Co2 1_555 1_555
N1 C5 1_555 1_555
C1 C2 1_555 1_555
C2 H1 1_555 1_555
C3 C2 1_555 1_555
C4 C3 1_555 1_555
H2 C4 1_555 1_555
C5 C4 1_555 1_555
C6 C1 1_555 1_555
H3 C6 1_555 1_555
C7 O3 1_555 1_555
C8 C3 1_555 1_555
H4 O2 1_555 1_555
H6 N1 1_555 1_555
H7 N1 1_555 1_555
Co1B O1 1_555 1_555
Co1B_2 O2 1_555 1_555
Co1A O4 1_555 1_555
Co2C O6 1_555 1_555
Co2A N1 1_555 1_555
O1B Co1 1_555 1_555
O2B Co1 1_555 1_555
O4A Co1 1_555 1_555
O6C Co2 1_555 1_555
N1A Co2 1_555 1_555
H4B O2B 1_555 1_555
H5B O1B 1_555 1_555
H6A N1A 1_555 1_555
H7A N1A 1_555 1_555
Co2 O2 1_555 1_555
O5 C7 1_555 1_555
C1 C7 1_555 1_555
C5 C6 1_555 1_555
Co1B O1B 1_555 1_555
Co1B_2 O2B 1_555 1_555

#END
