
#######################################################################
#
#                 Cambridge Crystallographic Data Centre
#                                CCDC 
#
#######################################################################
#
# If this CIF has been generated from an entry in the Cambridge 
# Structural Database, then it will include bibliographic, chemical, 
# crystal, experimental, refinement or atomic coordinate data resulting 
# from the CCDC's data processing and validation procedures.
#
#######################################################################

data_HUZKET
_symmetry_cell_setting           triclinic
_symmetry_space_group_name_H-M   'P -1'
_symmetry_Int_Tables_number      2
_space_group_name_Hall           '-P 1'
loop_
_symmetry_equiv_pos_site_id
_symmetry_equiv_pos_as_xyz
1 x,y,z
2 -x,-y,-z
_cell_length_a                   6.564(3)
_cell_length_b                   9.346(5)
_cell_length_c                   17.980(9)
_cell_angle_alpha                100.366(9)
_cell_angle_beta                 93.170(9)
_cell_angle_gamma                104.108(9)
_cell_volume                     1046.59
loop_
_atom_site_label
_atom_site_type_symbol
_atom_site_fract_x
_atom_site_fract_y
_atom_site_fract_z
In1 In 0.41246(16) 0.04229(12) 0.34741(6)
In2 In 0.76337(16) 0.66097(12) 0.23184(6)
P1 P 0.2812(7) -0.2690(5) 0.2086(3)
H1 H 0.2992 -0.2729 0.1546
P2 P -0.1009(6) -0.0245(5) 0.3678(2)
H2 H -0.1301 -0.0236 0.4207
P3 P 0.5063(6) 0.3842(4) 0.3140(2)
H3 H 0.3821 0.4090 0.2923
O1 O 0.4784(19) 0.2143(13) 0.2856(7)
O2 O 0.1206(16) 0.0787(12) 0.3716(8)
O3 O -0.2692(19) 0.0363(15) 0.3326(7)
O4 O 0.287(3) -0.1088(13) 0.2417(7)
O5 O 0.5377(19) 0.1679(12) 0.4678(7)
O6 O 0.6140(17) 0.1318(12) 0.5816(6)
O7 O 0.6983(18) 0.4677(13) 0.2794(6)
O8 O 0.4454(18) -0.3369(15) 0.2390(8)
O9 O 0.067(2) -0.3756(16) 0.2114(8)
O10 O 0.7881(19) 0.8205(14) 0.1534(7)
O11 O 0.6840(18) 0.5190(13) 0.1170(7)
O12 O -0.108(2) -0.1859(13) 0.3339(7)
O13 O 0.511(2) 0.4241(13) 0.3983(7)
O14 O 0.769(2) 0.5333(15) 0.0000(7)
O15 O 0.796(3) 0.8351(17) 0.0308(8)
C3 C 0.740(3) 0.5893(19) 0.0627(11)
C4 C 0.776(3) 0.763(2) 0.0818(10)
C9 C 0.546(2) 0.0842(16) 0.5124(8)
In1_2 In 1.41246(16) 0.04229(12) 0.34741(6)
In1_3 In -0.58754(16) 0.04229(12) 0.34741(6)
In1A In 0.58754(16) -0.04229(12) 0.65259(6)
In1_4 In 0.41246(16) 1.04229(12) 0.34741(6)
In2_2 In 0.76337(16) -0.33903(12) 0.23184(6)
In2_3 In -0.23663(16) -0.33903(12) 0.23184(6)
In2_4 In -0.23663(16) 0.66097(12) 0.23184(6)
In2_5 In 1.76337(16) 0.66097(12) 0.23184(6)
P1_2 P 0.2812(7) 0.7310(5) 0.2086(3)
H1_2 H 0.2992 0.7271 0.1546
P2_2 P 0.8991(6) -0.0245(5) 0.3678(2)
H2_2 H 0.8699 -0.0236 0.4207
P3_2 P 1.5063(6) 0.3842(4) 0.3140(2)
H3_2 H 1.3821 0.4090 0.2923
O1_2 O 1.4784(19) 0.2143(13) 0.2856(7)
O2_2 O 1.1206(16) 0.0787(12) 0.3716(8)
O3_2 O 0.7308(19) 0.0363(15) 0.3326(7)
O3_3 O 1.7308(19) 0.0363(15) 0.3326(7)
O4_2 O 0.287(3) 0.8912(13) 0.2417(7)
O4_3 O 1.287(3) -0.1088(13) 0.2417(7)
O5A O 0.4623(19) -0.1679(12) 0.5322(7)
O5_2 O 1.5377(19) 0.1679(12) 0.4678(7)
O6A O 0.3860(17) -0.1318(12) 0.4184(6)
O6A_2 O 1.3860(17) -0.1318(12) 0.4184(6)
O7_2 O 1.6983(18) 0.4677(13) 0.2794(6)
O7_3 O 0.6983(18) -0.5323(13) 0.2794(6)
O8_2 O 0.4454(18) 0.6631(15) 0.2390(8)
O9_2 O 0.067(2) 0.6244(16) 0.2114(8)
O9_3 O 1.067(2) 0.6244(16) 0.2114(8)
O9_4 O 1.067(2) -0.3756(16) 0.2114(8)
O10_2 O 0.7881(19) -0.1795(14) 0.1534(7)
O11_2 O 0.6840(18) -0.4810(13) 0.1170(7)
O12_2 O 0.892(2) -0.1859(13) 0.3339(7)
O12_3 O 0.892(2) 0.8141(13) 0.3339(7)
O13_2 O 1.511(2) 0.4241(13) 0.3983(7)
O14_2 O 0.769(2) -0.4667(15) 0.0000(7)
O15_2 O 0.796(3) -0.1649(17) 0.0308(8)
C3_2 C 0.740(3) -0.4107(19) 0.0627(11)
C4_2 C 0.776(3) -0.237(2) 0.0818(10)
C9A C 0.454(2) -0.0842(16) 0.4876(8)
N1 N 0.754(3) 0.1163(17) 0.1781(8)
H4 H 0.6753 0.1069 0.2171
H5 H 0.7735 0.0252 0.1591
N2 N 0.974(3) 0.3124(18) 0.0894(8)
H6 H 1.0573 0.3342 0.0526
H7 H 0.9450 0.3979 0.1122
C5 C 0.637(3) 0.165(2) 0.1179(11)
H14 H 0.5930 0.2535 0.1402
H15 H 0.5113 0.0855 0.0969
C6 C 1.087(3) 0.257(2) 0.1447(10)
H16 H 1.2167 0.3327 0.1656
H17 H 1.1249 0.1675 0.1196
C7 C 0.774(3) 0.200(2) 0.0546(10)
H18 H 0.8041 0.1093 0.0278
H19 H 0.7007 0.2411 0.0185
C8 C 0.960(3) 0.2204(19) 0.2068(9)
H20 H 1.0358 0.1757 0.2401
H21 H 0.9392 0.3124 0.2363
C1 C 0.196(3) 0.483(2) 0.4795(10)
H8 H 0.2858 0.4355 0.4477
H9 H 0.2876 0.5623 0.5181
C2 C 0.067(3) 0.373(2) 0.5160(13)
H10 H 0.1567 0.3310 0.5459
H11 H -0.0216 0.2916 0.4778
N3 N 0.071(3) 0.551(2) 0.4324(10)
H12 H -0.0111 0.4794 0.3950
H13 H 0.1565 0.6193 0.4110
C1A C -0.196(3) 0.517(2) 0.5205(10)
H8A H -0.2858 0.5645 0.5523
H9A H -0.2876 0.4377 0.4819
C2A C -0.067(3) 0.627(2) 0.4840(13)
H10A H -0.1567 0.6690 0.4541
H11A H 0.0216 0.7084 0.5222
N3A N -0.071(3) 0.449(2) 0.5676(10)
H12A H 0.0111 0.5206 0.6050
H13A H -0.1565 0.3807 0.5890
loop_
_geom_bond_atom_site_label_1
_geom_bond_atom_site_label_2
_geom_bond_site_symmetry_1
_geom_bond_site_symmetry_2
In1 O1 1_555 1_555
In2 O7 1_555 1_555
P1 H1 1_555 1_555
P2 H2 1_555 1_555
P3 H3 1_555 1_555
O1 P3 1_555 1_555
O2 In1 1_555 1_555
O3 P2 1_555 1_555
O4 In1 1_555 1_555
O5 In1 1_555 1_555
O6 C9 1_555 1_555
O7 P3 1_555 1_555
O8 P1 1_555 1_555
O9 P1 1_555 1_555
O10 In2 1_555 1_555
O11 In2 1_555 1_555
O12 P2 1_555 1_555
O13 P3 1_555 1_555
O14 C3 1_555 1_555
O15 C4 1_555 1_555
N1 H4 1_555 1_555
H5 N1 1_555 1_555
N2 H6 1_555 1_555
H7 N2 1_555 1_555
C1 H8 1_555 1_555
H9 C1 1_555 1_555
C2 C1 1_555 1_555
H10 C2 1_555 1_555
H11 C2 1_555 1_555
C3 O11 1_555 1_555
N3 C1 1_555 1_555
H12 N3 1_555 1_555
H13 N3 1_555 1_555
C4 O10 1_555 1_555
C5 N1 1_555 1_555
H14 C5 1_555 1_555
H15 C5 1_555 1_555
C6 N2 1_555 1_555
H16 C6 1_555 1_555
H17 C6 1_555 1_555
C7 N2 1_555 1_555
H18 C7 1_555 1_555
H19 C7 1_555 1_555
C8 N1 1_555 1_555
H20 C8 1_555 1_555
H21 C8 1_555 1_555
C9 O5 1_555 1_555
In1_2 O1_2 1_555 1_555
In1_3 O3 1_555 1_555
In1A O6 1_555 1_555
In1_4 O4_2 1_555 1_555
In2_2 O8 1_555 1_555
In2_3 O9 1_555 1_555
In2_4 O9_2 1_555 1_555
In2_5 O7_2 1_555 1_555
P1_2 H1_2 1_555 1_555
P2_2 H2_2 1_555 1_555
P3_2 H3_2 1_555 1_555
O1_2 P3_2 1_555 1_555
O2_2 In1_2 1_555 1_555
O3_2 In1 1_555 1_555
O3_3 In1_2 1_555 1_555
O4_2 P1_2 1_555 1_555
O4_3 In1_2 1_555 1_555
O5A In1A 1_555 1_555
O5_2 In1_2 1_555 1_555
O6A In1 1_555 1_555
O6A_2 In1_2 1_555 1_555
O7_2 P3_2 1_555 1_555
O7_3 In2_2 1_555 1_555
O8_2 In2 1_555 1_555
O9_2 P1_2 1_555 1_555
O9_3 In2 1_555 1_555
O9_4 In2_2 1_555 1_555
O10_2 In2_2 1_555 1_555
O11_2 In2_2 1_555 1_555
O12_2 In2_2 1_555 1_555
O12_3 In2 1_555 1_555
O13_2 P3_2 1_555 1_555
O14_2 C3_2 1_555 1_555
O15_2 C4_2 1_555 1_555
C1A H8A 1_555 1_555
H9A C1A 1_555 1_555
C2A N3 1_555 1_555
H10A C2A 1_555 1_555
H11A C2A 1_555 1_555
C3_2 O11_2 1_555 1_555
N3A C2 1_555 1_555
H12A N3A 1_555 1_555
H13A N3A 1_555 1_555
C4_2 O10_2 1_555 1_555
C9A C9 1_555 1_555
P1 O4 1_555 1_555
P2 O2 1_555 1_555
O12 In2_3 1_555 1_555
C3 C4 1_555 1_555
C5 C7 1_555 1_555
C6 C8 1_555 1_555
P1_2 O8_2 1_555 1_555
P2_2 O2_2 1_555 1_555
P2_2 O3_2 1_555 1_555
P2_2 O12_2 1_555 1_555
O5A C9A 1_555 1_555
O6A C9A 1_555 1_555
C1A C2A 1_555 1_555
C1A N3A 1_555 1_555
C3_2 C4_2 1_555 1_555

#END
