
#######################################################################
#
#                 Cambridge Crystallographic Data Centre
#                                CCDC 
#
#######################################################################
#
# If this CIF has been generated from an entry in the Cambridge 
# Structural Database, then it will include bibliographic, chemical, 
# crystal, experimental, refinement or atomic coordinate data resulting 
# from the CCDC's data processing and validation procedures.
#
#######################################################################

data_HUZLEU
_symmetry_cell_setting           monoclinic
_symmetry_space_group_name_H-M   'P 21/c'
_symmetry_Int_Tables_number      14
_space_group_name_Hall           '-P 2ybc'
loop_
_symmetry_equiv_pos_site_id
_symmetry_equiv_pos_as_xyz
1 x,y,z
2 -x,1/2+y,1/2-z
3 -x,-y,-z
4 x,1/2-y,1/2+z
_cell_length_a                   6.4726(7)
_cell_length_b                   11.0804(11)
_cell_length_c                   14.3110(15)
_cell_angle_alpha                90
_cell_angle_beta                 100.316(2)
_cell_angle_gamma                90
_cell_volume                     1009.78
loop_
_atom_site_label
_atom_site_type_symbol
_atom_site_fract_x
_atom_site_fract_y
_atom_site_fract_z
In1 In 0.45034(4) 0.08995(2) 0.185965(16)
P1 P -0.06363(14) 0.13271(8) 0.15085(6)
O1 O 0.1248(4) 0.0522(3) 0.1804(2)
O2 O -0.2130(5) 0.0962(3) 0.2141(2)
O3 O 0.3409(5) 0.0938(2) 0.03005(19)
O4 O 0.5313(5) -0.2198(2) 0.36370(18)
O5 O 0.5451(5) -0.2925(2) 0.18635(18)
O6 O 0.4830(5) -0.0311(2) 0.31291(18)
O7 O 0.4955(5) -0.1016(2) 0.13591(19)
O8 O -0.1571(5) 0.1125(3) 0.0523(2)
O9 O 0.0018(5) 0.2576(2) 0.1688(2)
C1 C 0.5083(6) -0.1407(3) 0.3003(2)
C2 C 0.5163(6) -0.1832(3) 0.1985(2)
In1_2 In 1.45034(4) 0.08995(2) 0.185965(16)
In1_3 In -0.54966(4) 0.08995(2) 0.185965(16)
In1A In 0.54966(4) -0.41005(2) 0.314035(16)
In1A_2 In 0.54966(4) 0.58995(2) 0.314035(16)
P1_2 P 0.93637(14) 0.13271(8) 0.15085(6)
O1_2 O 1.1248(4) 0.0522(3) 0.1804(2)
O2_2 O 0.7870(5) 0.0962(3) 0.2141(2)
O2_3 O 1.7870(5) 0.0962(3) 0.2141(2)
O3_2 O 1.3409(5) 0.0938(2) 0.03005(19)
O4A O 0.4687(5) 0.2802(2) 0.13630(18)
O4A_2 O 1.4687(5) 0.2802(2) 0.13630(18)
O5A O 0.4549(5) 0.2075(2) 0.31365(18)
O5A_2 O 1.4549(5) 0.2075(2) 0.31365(18)
O6A O 0.5170(5) 0.4689(2) 0.18709(18)
O6_2 O 1.4830(5) -0.0311(2) 0.31291(18)
O7A O 0.5045(5) 0.3984(2) 0.36409(19)
O7_2 O 1.4955(5) -0.1016(2) 0.13591(19)
O8_2 O 0.8429(5) 0.1125(3) 0.0523(2)
O9_2 O 1.0018(5) 0.2576(2) 0.1688(2)
C1A C 0.4917(6) 0.3593(3) 0.1997(2)
C2A C 0.4837(6) 0.3168(3) 0.3015(2)
O10 O 0.9819(7) 0.3048(3) 0.3586(2)
C3 C 1.0228(6) 0.1294(3) 0.4889(3)
C4 C 0.8119(8) 0.0747(4) 0.4924(4)
N1 N 1.1612(8) 0.0418(5) 0.4491(4)
C3B C 0.9772(6) -0.1294(3) 0.5111(3)
C4B C 1.1881(8) -0.0747(4) 0.5076(4)
N1B N 0.8388(8) -0.0418(5) 0.5509(4)
loop_
_geom_bond_atom_site_label_1
_geom_bond_atom_site_label_2
_geom_bond_site_symmetry_1
_geom_bond_site_symmetry_2
In1 O1 1_555 1_555
P1 O1 1_555 1_555
O2 P1 1_555 1_555
O3 In1 1_555 1_555
O4 C1 1_555 1_555
O5 C2 1_555 1_555
O6 In1 1_555 1_555
O7 In1 1_555 1_555
O8 P1 1_555 1_555
O9 P1 1_555 1_555
C1 O6 1_555 1_555
C2 O7 1_555 1_555
C3 C4 1_555 1_555
C4 N1B 1_555 1_555
N1 C3 1_555 1_555
In1_2 O1_2 1_555 1_555
In1_3 O2 1_555 1_555
In1A O4 1_555 1_555
In1A_2 O6A 1_555 1_555
P1_2 O1_2 1_555 1_555
O2_2 In1 1_555 1_555
O2_3 In1_2 1_555 1_555
O3_2 In1_2 1_555 1_555
O4A In1 1_555 1_555
O4A_2 In1_2 1_555 1_555
O5A In1 1_555 1_555
O5A_2 In1_2 1_555 1_555
O6A C1A 1_555 1_555
O6_2 In1_2 1_555 1_555
O7A In1A_2 1_555 1_555
O7_2 In1_2 1_555 1_555
O8_2 P1_2 1_555 1_555
O9_2 P1_2 1_555 1_555
C1A O4A 1_555 1_555
C2A O5A 1_555 1_555
C3B C4B 1_555 1_555
C4B N1 1_555 1_555
N1B C3B 1_555 1_555
O5 In1A 1_555 1_555
C1 C2 1_555 1_555
P1_2 O2_2 1_555 1_555
O7A C2A 1_555 1_555
C1A C2A 1_555 1_555

#END
