
#######################################################################
#
#                 Cambridge Crystallographic Data Centre
#                                CCDC 
#
#######################################################################
#
# If this CIF has been generated from an entry in the Cambridge 
# Structural Database, then it will include bibliographic, chemical, 
# crystal, experimental, refinement or atomic coordinate data resulting 
# from the CCDC's data processing and validation procedures.
#
#######################################################################

data_HUZLAQ
_symmetry_cell_setting           monoclinic
_symmetry_space_group_name_H-M   'P 21/c'
_symmetry_Int_Tables_number      14
_space_group_name_Hall           '-P 2ybc'
loop_
_symmetry_equiv_pos_site_id
_symmetry_equiv_pos_as_xyz
1 x,y,z
2 -x,1/2+y,1/2-z
3 -x,-y,-z
4 x,1/2-y,1/2+z
_cell_length_a                   6.4779(14)
_cell_length_b                   11.067(2)
_cell_length_c                   14.317(3)
_cell_angle_alpha                90
_cell_angle_beta                 100.302(3)
_cell_angle_gamma                90
_cell_volume                     1009.85
loop_
_atom_site_label
_atom_site_type_symbol
_atom_site_fract_x
_atom_site_fract_y
_atom_site_fract_z
H1 H 0.077(6) 0.381(4) 0.514(3)
H2 H 0.232(7) 0.476(3) 0.494(3)
In1 In 0.04966(3) 0.410044(18) 0.314027(15)
S1 S -0.43667(12) 0.36750(7) 0.34911(6)
O1 O -0.2865(4) 0.40370(19) 0.28588(17)
O2 O -0.6234(3) 0.4477(2) 0.31976(17)
O3 O 0.1596(4) 0.40589(19) 0.46938(16)
O4 O 0.0316(4) 0.22003(19) 0.36379(16)
O5 O -0.0161(4) 0.03090(19) 0.31309(15)
O6 O 0.0450(4) 0.29270(18) 0.18617(15)
O7 O -0.0049(4) 0.10192(17) 0.13605(16)
O8 O -0.3431(4) 0.3872(2) 0.44788(17)
O9 O -0.5016(4) 0.2420(2) 0.33146(17)
C1 C 0.0160(5) 0.1828(3) 0.1982(2)
C2 C 0.0090(5) 0.1406(3) 0.3001(2)
H1_2 H 1.077(6) 0.381(4) 0.514(3)
H2_2 H 1.232(7) 0.476(3) 0.494(3)
In1_2 In 1.04966(3) 0.410044(18) 0.314027(15)
In1_3 In -0.95034(3) 0.410044(18) 0.314027(15)
In1A In -0.04966(3) -0.089956(18) 0.185973(15)
In1A_2 In -0.04966(3) 0.910044(18) 0.185973(15)
S1_2 S 0.56333(12) 0.36750(7) 0.34911(6)
O1_2 O 0.7135(4) 0.40370(19) 0.28588(17)
O2_2 O 0.3766(3) 0.4477(2) 0.31976(17)
O2_3 O 1.3766(3) 0.4477(2) 0.31976(17)
O3_2 O 1.1596(4) 0.40589(19) 0.46938(16)
O4A O -0.0316(4) 0.72003(19) 0.13621(16)
O4_2 O 1.0316(4) 0.22003(19) 0.36379(16)
O5A O 0.0161(4) 0.53090(19) 0.18691(15)
O5A_2 O 1.0161(4) 0.53090(19) 0.18691(15)
O6A O -0.0450(4) 0.79270(18) 0.31383(15)
O6_2 O 1.0450(4) 0.29270(18) 0.18617(15)
O7A O 0.0049(4) 0.60192(17) 0.36395(16)
O7A_2 O 1.0049(4) 0.60192(17) 0.36395(16)
O8_2 O 0.6569(4) 0.3872(2) 0.44788(17)
O9_2 O 0.4984(4) 0.2420(2) 0.33146(17)
C1A C -0.0160(5) 0.6828(3) 0.3018(2)
C2A C -0.0090(5) 0.6406(3) 0.1999(2)
N1 N 0.4775(5) 0.1280(3) 0.5112(2)
H3 H 0.4949 0.1943 0.5481
H4 H 0.4162 0.1507 0.4524
C3 C 0.3396(6) 0.0415(4) 0.5493(3)
H5 H 0.2032 0.0782 0.5481
H6 H 0.3992 0.0230 0.6148
C4 C 0.6864(6) 0.0734(3) 0.5075(3)
H7 H 0.7591 0.0565 0.5714
H8 H 0.7705 0.1301 0.4787
N1B N 0.5225(5) -0.1280(3) 0.4888(2)
H3B H 0.5051 -0.1943 0.4519
H4B H 0.5838 -0.1507 0.5476
C3B C 0.6604(6) -0.0415(4) 0.4507(3)
H5B H 0.7968 -0.0782 0.4519
H6B H 0.6008 -0.0230 0.3852
C4B C 0.3136(6) -0.0734(3) 0.4925(3)
H7B H 0.2409 -0.0565 0.4286
H8B H 0.2295 -0.1301 0.5213
O10 O 0.5185(6) 0.3042(3) 0.6413(2)
H9 H 0.544(9) 0.375(2) 0.625(4)
H10 H 0.506(11) 0.302(7) 0.6990(15)
loop_
_geom_bond_atom_site_label_1
_geom_bond_atom_site_label_2
_geom_bond_site_symmetry_1
_geom_bond_site_symmetry_2
H1 O3 1_555 1_555
H2 O3 1_555 1_555
In1 O1 1_555 1_555
S1 O1 1_555 1_555
O2 S1 1_555 1_555
O3 In1 1_555 1_555
O4 In1 1_555 1_555
O5 C2 1_555 1_555
O6 In1 1_555 1_555
O7 C1 1_555 1_555
O8 S1 1_555 1_555
O9 S1 1_555 1_555
C1 O6 1_555 1_555
C2 O4 1_555 1_555
N1 H3 1_555 1_555
H4 N1 1_555 1_555
C3 N1 1_555 1_555
H5 C3 1_555 1_555
H6 C3 1_555 1_555
C4 N1 1_555 1_555
H7 C4 1_555 1_555
H8 C4 1_555 1_555
O10 H9 1_555 1_555
H10 O10 1_555 1_555
H1_2 O3_2 1_555 1_555
H2_2 O3_2 1_555 1_555
In1_2 O1_2 1_555 1_555
In1_3 O2 1_555 1_555
In1A O5 1_555 1_555
In1A_2 O4A 1_555 1_555
S1_2 O1_2 1_555 1_555
O2_2 In1 1_555 1_555
O2_3 In1_2 1_555 1_555
O3_2 In1_2 1_555 1_555
O4A C2A 1_555 1_555
O4_2 In1_2 1_555 1_555
O5A In1 1_555 1_555
O5A_2 In1_2 1_555 1_555
O6A In1A_2 1_555 1_555
O6_2 In1_2 1_555 1_555
O7A In1 1_555 1_555
O7A_2 In1_2 1_555 1_555
O8_2 S1_2 1_555 1_555
O9_2 S1_2 1_555 1_555
C1A O6A 1_555 1_555
C2A O5A 1_555 1_555
N1B H3B 1_555 1_555
H4B N1B 1_555 1_555
C3B C4 1_555 1_555
H5B C3B 1_555 1_555
H6B C3B 1_555 1_555
C4B C3 1_555 1_555
H7B C4B 1_555 1_555
H8B C4B 1_555 1_555
O7 In1A 1_555 1_555
C1 C2 1_555 1_555
S1_2 O2_2 1_555 1_555
O7A C1A 1_555 1_555
C1A C2A 1_555 1_555
N1B C3B 1_555 1_555
N1B C4B 1_555 1_555

#END
