
#######################################################################
#
#                 Cambridge Crystallographic Data Centre
#                                CCDC 
#
#######################################################################
#
# If this CIF has been generated from an entry in the Cambridge 
# Structural Database, then it will include bibliographic, chemical, 
# crystal, experimental, refinement or atomic coordinate data resulting 
# from the CCDC's data processing and validation procedures.
#
#######################################################################

data_HUZPAU
_symmetry_cell_setting           triclinic
_symmetry_space_group_name_H-M   'P -1'
_symmetry_Int_Tables_number      2
_space_group_name_Hall           '-P 1'
loop_
_symmetry_equiv_pos_site_id
_symmetry_equiv_pos_as_xyz
1 x,y,z
2 -x,-y,-z
_cell_length_a                   8.7610(18)
_cell_length_b                   9.999(2)
_cell_length_c                   11.646(2)
_cell_angle_alpha                89.80(3)
_cell_angle_beta                 84.81(3)
_cell_angle_gamma                68.48(3)
_cell_volume                     944.709
loop_
_atom_site_label
_atom_site_type_symbol
_atom_site_fract_x
_atom_site_fract_y
_atom_site_fract_z
N1 N -0.3178(4) -0.2263(3) 1.2815(2)
C1 C -0.3002(4) -0.1577(4) 1.1860(3)
C2 C -0.1932(5) -0.3484(4) 1.3011(3)
C3 C -0.0542(5) -0.4065(5) 1.2270(4)
Co1 Co 0.45978(6) -0.16306(5) 0.39855(4)
O1 O 0.3819(3) 0.0330(2) 0.32899(18)
O2 O 0.3959(3) 0.1682(2) 0.47517(18)
O3 O 0.4878(3) 0.6181(2) 0.39108(19)
O4 O 0.3516(3) 0.7492(2) 0.2568(2)
N2 N 0.2541(4) -0.1269(3) 0.5296(2)
N3 N -0.2493(4) 0.0043(3) 0.9865(2)
C4 C 0.3898(4) 0.3913(3) 0.3294(3)
N4 N -0.1856(4) 0.0319(3) 0.8820(2)
C5 C 0.4108(4) 0.6302(4) 0.3029(3)
C6 C 0.3867(4) 0.1471(3) 0.3704(3)
C7 C 0.3813(4) 0.2649(3) 0.2885(3)
C8 C 0.3927(4) 0.4991(3) 0.2555(3)
C9 C 0.3852(5) 0.4798(4) 0.1386(3)
C10 C 0.0450(4) -0.0923(4) 0.7315(3)
C11 C -0.1469(4) -0.1279(4) 1.0034(3)
C12 C 0.1553(5) 0.0029(4) 0.5715(3)
C13 C 0.0479(5) 0.0245(4) 0.6709(3)
C14 C -0.0541(4) -0.0828(4) 0.8428(3)
C15 C -0.1626(4) -0.2072(4) 1.1064(3)
N5 N -0.0245(4) -0.1862(3) 0.9170(2)
C16 C 0.3762(5) 0.2460(4) 0.1709(3)
C17 C 0.3787(5) 0.3537(4) 0.0965(3)
C18 C 0.2447(5) -0.2392(4) 0.5881(3)
C19 C -0.0387(5) -0.3352(4) 1.1276(3)
C20 C 0.1442(5) -0.2275(4) 0.6886(3)
H1 H 0.1570 0.0794 0.5256
H2 H 0.3952 0.4106 0.4076
H3 H 0.3869 0.5562 0.0903
H4 H 0.3825 0.1587 0.1432
H5 H -0.3796 -0.0783 1.1754
H6 H -0.2112 -0.3954 1.3742
H7 H -0.2421 0.1238 0.8414
H8 H 0.3739 0.3417 0.0162
H9 H -0.0122 0.1188 0.6889
H10 H 0.3124 -0.3333 0.5609
H11 H 0.0258 -0.4943 1.2426
H12 H 0.1454 -0.3104 0.7383
H13 H 0.0519 -0.3738 1.0736
N1A N 1.3178(4) 0.2263(3) -0.2815(2)
N1_2 N 0.6822(4) -0.2263(3) 0.2815(2)
N1A_2 N 0.3178(4) 0.2263(3) 0.7185(2)
C1A C 1.3002(4) 0.1577(4) -0.1860(3)
C2A C 1.1932(5) 0.3484(4) -0.3011(3)
C3A C 1.0542(5) 0.4065(5) -0.2270(4)
Co1A Co 0.54022(6) 0.16306(5) 0.60145(4)
Co1_2 Co -0.54022(6) -0.16306(5) 1.39855(4)
Co1_3 Co 0.45978(6) 0.83694(5) 0.39855(4)
Co1A_2 Co 0.54022(6) -0.83694(5) 0.60145(4)
Co1A_3 Co 1.54022(6) 0.16306(5) -0.39855(4)
O1A O 0.6181(3) -0.0330(2) 0.67101(18)
O2A O 0.6041(3) -0.1682(2) 0.52483(18)
O3A O 0.5122(3) -0.6181(2) 0.60892(19)
O3_2 O 0.4878(3) -0.3819(2) 0.39108(19)
O3A_2 O 0.5122(3) 0.3819(2) 0.60892(19)
O4A O 0.6484(3) -0.7492(2) 0.7432(2)
O4_2 O 0.3516(3) -0.2508(2) 0.2568(2)
O4A_2 O 0.6484(3) 0.2508(2) 0.7432(2)
N2A N 0.7459(4) 0.1269(3) 0.4704(2)
N3A N 1.2493(4) -0.0043(3) 0.0135(2)
C4A C 0.6102(4) -0.3913(3) 0.6706(3)
N4A N 1.1856(4) -0.0319(3) 0.1180(2)
C5A C 0.5892(4) -0.6302(4) 0.6971(3)
C6A C 0.6133(4) -0.1471(3) 0.6296(3)
C7A C 0.6187(4) -0.2649(3) 0.7115(3)
C8A C 0.6073(4) -0.4991(3) 0.7445(3)
C9A C 0.6148(5) -0.4798(4) 0.8614(3)
C10A C 0.9550(4) 0.0923(4) 0.2685(3)
C11A C 1.1469(4) 0.1279(4) -0.0034(3)
C12A C 0.8447(5) -0.0029(4) 0.4285(3)
C13A C 0.9521(5) -0.0245(4) 0.3291(3)
C14A C 1.0541(4) 0.0828(4) 0.1572(3)
C15A C 1.1626(4) 0.2072(4) -0.1064(3)
N5A N 1.0245(4) 0.1862(3) 0.0830(2)
C16A C 0.6238(5) -0.2460(4) 0.8291(3)
C17A C 0.6213(5) -0.3537(4) 0.9035(3)
C18A C 0.7553(5) 0.2392(4) 0.4119(3)
C19A C 1.0387(5) 0.3352(4) -0.1276(3)
C20A C 0.8558(5) 0.2275(4) 0.3114(3)
H1A H 0.8430 -0.0794 0.4744
H2A H 0.6048 -0.4106 0.5924
H3A H 0.6131 -0.5562 0.9097
H4A H 0.6175 -0.1587 0.8568
H5A H 1.3796 0.0783 -0.1754
H6A H 1.2112 0.3954 -0.3742
H7A H 1.2421 -0.1238 0.1586
H8A H 0.6261 -0.3417 0.9838
H9A H 1.0122 -0.1188 0.3111
H10A H 0.6876 0.3333 0.4391
H11A H 0.9742 0.4943 -0.2426
H12A H 0.8546 0.3104 0.2617
H13A H 0.9481 0.3738 -0.0736
loop_
_geom_bond_atom_site_label_1
_geom_bond_atom_site_label_2
_geom_bond_site_symmetry_1
_geom_bond_site_symmetry_2
N1 C1 1_555 1_555
C1 C15 1_555 1_555
C2 N1 1_555 1_555
C3 C2 1_555 1_555
Co1 O1 1_555 1_555
O1 C6 1_555 1_555
O2 C6 1_555 1_555
O3 C5 1_555 1_555
O4 C5 1_555 1_555
N2 Co1 1_555 1_555
N3 N4 1_555 1_555
C4 C7 1_555 1_555
N4 C14 1_555 1_555
C5 C8 1_555 1_555
C6 C7 1_555 1_555
C7 C16 1_555 1_555
C8 C4 1_555 1_555
C9 C8 1_555 1_555
C10 C13 1_555 1_555
C11 N3 1_555 1_555
C12 N2 1_555 1_555
C13 C12 1_555 1_555
C14 C10 1_555 1_555
C15 C11 1_555 1_555
N5 C11 1_555 1_555
C16 C17 1_555 1_555
C17 C9 1_555 1_555
C18 N2 1_555 1_555
C19 C3 1_555 1_555
C20 C10 1_555 1_555
H1 C12 1_555 1_555
H2 C4 1_555 1_555
H3 C9 1_555 1_555
H4 C16 1_555 1_555
H5 C1 1_555 1_555
H6 C2 1_555 1_555
H7 N4 1_555 1_555
H8 C17 1_555 1_555
H9 C13 1_555 1_555
H10 C18 1_555 1_555
H11 C3 1_555 1_555
H12 C20 1_555 1_555
H13 C19 1_555 1_555
N1A C1A 1_555 1_555
N1_2 Co1 1_555 1_555
N1A_2 Co1A 1_555 1_555
C1A C15A 1_555 1_555
C2A N1A 1_555 1_555
C3A C2A 1_555 1_555
Co1A O2 1_555 1_555
Co1_2 N1 1_555 1_555
Co1_3 O3 1_555 1_555
Co1A_2 O3A 1_555 1_555
Co1A_3 N1A 1_555 1_555
O1A Co1A 1_555 1_555
O2A Co1 1_555 1_555
O3A C5A 1_555 1_555
O3_2 Co1 1_555 1_555
O3A_2 Co1A 1_555 1_555
O4A Co1A_2 1_555 1_555
O4_2 Co1 1_555 1_555
O4A_2 Co1A 1_555 1_555
N2A Co1A 1_555 1_555
N3A N4A 1_555 1_555
C4A C7A 1_555 1_555
N4A C14A 1_555 1_555
C5A O4A 1_555 1_555
C6A O1A 1_555 1_555
C7A C6A 1_555 1_555
C8A C4A 1_555 1_555
C9A C8A 1_555 1_555
C10A C13A 1_555 1_555
C11A N3A 1_555 1_555
C12A N2A 1_555 1_555
C13A C12A 1_555 1_555
C14A C10A 1_555 1_555
C15A C11A 1_555 1_555
N5A C11A 1_555 1_555
C16A C7A 1_555 1_555
C17A C9A 1_555 1_555
C18A N2A 1_555 1_555
C19A C3A 1_555 1_555
C20A C10A 1_555 1_555
H1A C12A 1_555 1_555
H2A C4A 1_555 1_555
H3A C9A 1_555 1_555
H4A C16A 1_555 1_555
H5A C1A 1_555 1_555
H6A C2A 1_555 1_555
H7A N4A 1_555 1_555
H8A C17A 1_555 1_555
H9A C13A 1_555 1_555
H10A C18A 1_555 1_555
H11A C3A 1_555 1_555
H12A C20A 1_555 1_555
H13A C19A 1_555 1_555
O4 Co1_3 1_555 1_555
C14 N5 1_555 1_555
C15 C19 1_555 1_555
C18 C20 1_555 1_555
O2A C6A 1_555 1_555
C5A C8A 1_555 1_555
C14A N5A 1_555 1_555
C15A C19A 1_555 1_555
C16A C17A 1_555 1_555
C18A C20A 1_555 1_555

#END
