
#######################################################################
#
#                 Cambridge Crystallographic Data Centre
#                                CCDC 
#
#######################################################################
#
# If this CIF has been generated from an entry in the Cambridge 
# Structural Database, then it will include bibliographic, chemical, 
# crystal, experimental, refinement or atomic coordinate data resulting 
# from the CCDC's data processing and validation procedures.
#
#######################################################################

data_HUZPIC
_symmetry_cell_setting           triclinic
_symmetry_space_group_name_H-M   'P -1'
_symmetry_Int_Tables_number      2
_space_group_name_Hall           '-P 1'
loop_
_symmetry_equiv_pos_site_id
_symmetry_equiv_pos_as_xyz
1 x,y,z
2 -x,-y,-z
_cell_length_a                   11.269(2)
_cell_length_b                   11.987(2)
_cell_length_c                   12.723(3)
_cell_angle_alpha                112.95(3)
_cell_angle_beta                 90.96(3)
_cell_angle_gamma                102.69(3)
_cell_volume                     1533.88
loop_
_atom_site_label
_atom_site_type_symbol
_atom_site_fract_x
_atom_site_fract_y
_atom_site_fract_z
O1 O 0.5232(3) -0.0466(3) 0.2138(3)
C1 C 0.4965(4) 0.0549(4) 0.2701(4)
C2 C 0.5541(4) 0.1227(4) 0.3938(4)
N1 N 0.5794(3) 0.7124(3) 1.0906(3)
C3 C 0.6204(4) 0.7285(4) 1.1951(4)
H1 H 0.5891 0.7806 1.2576
C4 C 0.6224(5) 0.6343(4) 1.0020(4)
H2 H 0.5923 0.6194 0.9280
Co1 Co 1.46530(6) -0.18511(5) 1.05438(5)
Co2 Co 0.93090(6) 0.01205(6) 0.69135(5)
O2 O 1.3996(3) -0.3167(3) 0.8865(2)
O3 O 1.0565(3) 0.1183(3) 0.6297(3)
H3 H 1.1076 0.0799 0.6004
O4 O 1.6001(3) -0.0968(3) 0.9856(3)
H4 H 1.5735 -0.1057 0.9217
O5 O 1.3171(3) -0.2604(3) 1.1207(3)
H5 H 1.2957 -0.2039 1.1718
C5 C 0.6837(4) 0.1311(4) 0.5510(3)
O6 O 0.8059(3) 0.1259(3) 0.7038(2)
O7 O 0.8014(3) -0.1156(3) 0.7272(3)
H6 H 0.7350 -0.0979 0.7282
O8 O 1.0424(3) -0.1113(3) 0.6596(3)
N2 N 1.0089(3) 0.1214(3) 0.8654(3)
O9 O 0.7974(3) -0.0209(3) 0.5325(3)
O10 O 1.1737(3) -0.6213(3) 0.3797(3)
N3 N 1.2169(4) -0.5872(3) 0.4790(3)
O11 O 1.3236(3) -0.1518(3) 0.9425(2)
C6 C 1.1927(4) -0.2371(4) 0.7203(4)
H7 H 1.1852 -0.1611 0.7753
O12 O 0.4296(3) 0.1043(3) 0.2327(2)
O13 O 1.0122(3) -0.2477(3) 0.4757(3)
C7 C 1.2732(4) -0.4180(4) 0.6686(4)
H8 H 1.3214 -0.4636 0.6864
C8 C 1.3335(4) -0.2534(4) 0.8669(4)
N4 N 0.9321(4) 0.5697(4) 1.2272(4)
N5 N 0.5825(4) 0.4254(4) 0.6434(3)
N6 N 0.8672(3) 0.4303(3) 1.0547(3)
C9 C 0.6682(4) 0.2483(4) 0.6187(3)
H9 H 0.7064 0.2917 0.6936
C10 C 0.5944(4) 0.2986(4) 0.5717(4)
C11 C 0.6282(4) 0.0700(4) 0.4398(4)
H10 H 0.6403 -0.0081 0.3944
C12 C 1.2092(4) -0.4632(4) 0.5616(3)
C13 C 0.7548(4) 0.5952(4) 1.1243(4)
C14 C 1.2646(4) -0.3031(4) 0.7497(3)
C15 C 0.9624(4) 0.4068(4) 1.1027(4)
C16 C 0.8502(4) 0.5343(4) 1.1357(4)
C17 C 1.0849(4) 0.2548(4) 1.0986(4)
H11 H 1.1090 0.2980 1.1770
O14 O 1.2643(3) -0.6509(3) 0.5124(3)
O15 O 0.5355(4) 0.4795(3) 0.5980(3)
C18 C 0.7673(4) 0.0745(4) 0.5979(4)
C19 C 1.1314(4) -0.2822(4) 0.6103(4)
C20 C 1.0553(4) -0.2085(4) 0.5785(4)
C21 C 1.0094(4) 0.2954(4) 1.0432(4)
C22 C 0.9738(4) 0.2245(4) 0.9269(4)
H12 H 0.9217 0.2509 0.8893
N7 N 1.0052(4) 0.4896(3) 1.2084(3)
C23 C 0.7070(4) 0.6718(4) 1.2159(4)
H13 H 0.7326 0.6853 1.2906
C24 C 0.5376(4) 0.2385(4) 0.4609(4)
H14 H 0.4889 0.2757 0.4319
C25 C 1.1404(4) -0.3973(4) 0.5293(4)
H15 H 1.1010 -0.4292 0.4551
C26 C 0.7087(4) 0.5752(4) 1.0149(4)
H16 H 0.7364 0.5217 0.9506
C27 C 1.1245(5) 0.1495(5) 1.0366(4)
H17 H 1.1781 0.1223 1.0720
O16 O 0.6237(5) 0.4712(4) 0.7437(3)
C28 C 1.0833(5) 0.0849(5) 0.9211(4)
H18 H 1.1085 0.0126 0.8803
H19 H 1.266(5) -0.304(5) 1.075(5)
H20 H 1.629(5) -0.027(4) 1.018(4)
H21 H 1.028(5) 0.147(5) 0.590(5)
H22 H 0.801(6) -0.181(5) 0.697(5)
H23 H 0.946(5) 0.624(5) 1.287(5)
O1_2 O 1.5232(3) -0.0466(3) 1.2138(3)
N1_2 N 1.5794(3) -0.2876(3) 1.0906(3)
Co1_2 Co 0.46530(6) -0.18511(5) 0.05438(5)
Co1_3 Co 0.46530(6) 0.81489(5) 1.05438(5)
loop_
_geom_bond_atom_site_label_1
_geom_bond_atom_site_label_2
_geom_bond_site_symmetry_1
_geom_bond_site_symmetry_2
O1 C1 1_555 1_555
C1 C2 1_555 1_555
C2 C11 1_555 1_555
N1 C3 1_555 1_555
C3 H1 1_555 1_555
C4 N1 1_555 1_555
H2 C4 1_555 1_555
Co1 O2 1_555 1_555
Co2 O3 1_555 1_555
O2 C8 1_555 1_555
O3 H3 1_555 1_555
O4 Co1 1_555 1_555
H4 O4 1_555 1_555
O5 Co1 1_555 1_555
H5 O5 1_555 1_555
C5 C9 1_555 1_555
O6 Co2 1_555 1_555
O7 Co2 1_555 1_555
H6 O7 1_555 1_555
O8 Co2 1_555 1_555
N2 Co2 1_555 1_555
O9 Co2 1_555 1_555
O10 N3 1_555 1_555
N3 C12 1_555 1_555
O11 Co1 1_555 1_555
C6 H7 1_555 1_555
O12 C1 1_555 1_555
O13 C20 1_555 1_555
C7 H8 1_555 1_555
C8 O11 1_555 1_555
N4 C16 1_555 1_555
N5 C10 1_555 1_555
N6 C15 1_555 1_555
C9 H9 1_555 1_555
C10 C9 1_555 1_555
C11 C5 1_555 1_555
H10 C11 1_555 1_555
C12 C7 1_555 1_555
C13 C16 1_555 1_555
C14 C6 1_555 1_555
C15 C21 1_555 1_555
C16 N6 1_555 1_555
C17 H11 1_555 1_555
O14 N3 1_555 1_555
O15 N5 1_555 1_555
C18 C5 1_555 1_555
C19 C6 1_555 1_555
C20 O8 1_555 1_555
C21 C17 1_555 1_555
C22 N2 1_555 1_555
H12 C22 1_555 1_555
N7 N4 1_555 1_555
C23 C3 1_555 1_555
H13 C23 1_555 1_555
C24 C2 1_555 1_555
H14 C24 1_555 1_555
C25 C12 1_555 1_555
H15 C25 1_555 1_555
C26 C4 1_555 1_555
H16 C26 1_555 1_555
C27 C17 1_555 1_555
H17 C27 1_555 1_555
O16 N5 1_555 1_555
C28 N2 1_555 1_555
H18 C28 1_555 1_555
H19 O5 1_555 1_555
H20 O4 1_555 1_555
H21 O3 1_555 1_555
H22 O7 1_555 1_555
H23 N4 1_555 1_555
O1_2 Co1 1_555 1_555
N1_2 Co1 1_555 1_555
Co1_2 O1 1_555 1_555
Co1_3 N1 1_555 1_555
O6 C18 1_555 1_555
O9 C18 1_555 1_555
C7 C14 1_555 1_555
C8 C14 1_555 1_555
C10 C24 1_555 1_555
C13 C23 1_555 1_555
C13 C26 1_555 1_555
C15 N7 1_555 1_555
C19 C20 1_555 1_555
C19 C25 1_555 1_555
C21 C22 1_555 1_555
C27 C28 1_555 1_555

#END
