
#######################################################################
#
#                 Cambridge Crystallographic Data Centre
#                                CCDC 
#
#######################################################################
#
# If this CIF has been generated from an entry in the Cambridge 
# Structural Database, then it will include bibliographic, chemical, 
# crystal, experimental, refinement or atomic coordinate data resulting 
# from the CCDC's data processing and validation procedures.
#
#######################################################################

data_HUZPOI
_symmetry_cell_setting           triclinic
_symmetry_space_group_name_H-M   'P -1'
_symmetry_Int_Tables_number      2
_space_group_name_Hall           '-P 1'
loop_
_symmetry_equiv_pos_site_id
_symmetry_equiv_pos_as_xyz
1 x,y,z
2 -x,-y,-z
_cell_length_a                   10.018(2)
_cell_length_b                   10.386(2)
_cell_length_c                   10.667(2)
_cell_angle_alpha                104.04(3)
_cell_angle_beta                 100.69(3)
_cell_angle_gamma                107.10(3)
_cell_volume                     988.851
loop_
_atom_site_label
_atom_site_type_symbol
_atom_site_fract_x
_atom_site_fract_y
_atom_site_fract_z
C1 C 0.3189(5) 0.3309(6) 0.5437(5)
C2 C 0.1861(5) 0.2592(5) 0.5807(5)
C3 C 0.0616(6) 0.2923(6) 0.5537(6)
H1 H 0.0620 0.3642 0.5160
C4 C -0.0616(6) 0.2213(6) 0.5816(5)
C5 C -0.1958(5) 0.2614(7) 0.5519(5)
C6 C -0.0635(6) 0.1172(6) 0.6408(5)
H2 H -0.1477 0.0674 0.6585
C7 C 0.0605(6) 0.0882(6) 0.6730(5)
C8 C 0.1862(6) 0.1554(6) 0.6428(5)
H3 H 0.2685 0.1320 0.6635
C9 C 0.6221(7) 0.4648(7) 0.8367(6)
H4 H 0.5235 0.4104 0.8060
C10 C 0.6850(7) 0.5231(7) 0.9723(7)
H5 H 0.6290 0.5114 1.0319
C11 C 0.8315(7) 0.5990(7) 1.0196(6)
H6 H 0.8768 0.6366 1.1115
C12 C 0.9096(6) 0.6184(6) 0.9285(6)
C13 C 0.8361(6) 0.5611(6) 0.7926(6)
H7 H 0.8880 0.5787 0.7309
C14 C 1.0673(6) 0.6901(7) 0.9653(6)
C15 C 1.2790(6) 0.7544(6) 0.9459(6)
C16 C 1.4015(6) 0.7721(6) 0.8897(6)
C17 C 1.3697(6) 0.7110(6) 0.7518(6)
H8 H 1.2727 0.6612 0.7040
C18 C 1.5460(6) 0.8423(7) 0.9623(6)
H9 H 1.5726 0.8840 1.0551
C19 C 1.6482(6) 0.8482(7) 0.8931(6)
H10 H 1.7462 0.8938 0.9393
C20 C 1.6075(6) 0.7875(6) 0.7559(6)
H11 H 1.6793 0.7942 0.7111
Co1 Co 0.61335(7) 0.38001(8) 0.52969(8)
N1 N 0.0623(6) -0.0178(5) 0.7419(5)
N2 N 0.6965(5) 0.4829(5) 0.7463(5)
N3 N 1.1428(5) 0.6795(5) 0.8742(5)
N4 N 1.1475(5) 0.7685(6) 1.0893(5)
N5 N 1.2827(5) 0.8090(6) 1.0749(5)
N6 N 1.4676(5) 0.7187(5) 0.6838(5)
O1 O 0.4206(4) 0.2848(4) 0.5595(4)
O2 O 0.3194(5) 0.4287(4) 0.4967(5)
O3 O -0.1788(4) 0.3760(4) 0.5288(4)
O4 O -0.3162(4) 0.1805(5) 0.5508(5)
O5 O -0.0491(6) -0.0819(6) 0.7618(6)
O6 O 0.1757(5) -0.0375(6) 0.7739(6)
H12 H 1.3606 0.8629 1.1412
C1A C 0.6811(5) 0.6691(6) 0.4563(5)
C2A C 0.8139(5) 0.7408(5) 0.4193(5)
C3A C 0.9384(6) 0.7077(6) 0.4463(6)
H1A H 0.9380 0.6358 0.4840
C4A C 1.0616(6) 0.7787(6) 0.4184(5)
C5A C 1.1958(5) 0.7386(7) 0.4481(5)
C6A C 1.0635(6) 0.8828(6) 0.3592(5)
H2A H 1.1477 0.9326 0.3415
C7A C 0.9395(6) 0.9118(6) 0.3270(5)
C8A C 0.8138(6) 0.8446(6) 0.3572(5)
H3A H 0.7315 0.8680 0.3365
C9A C 0.3779(7) 0.5352(7) 0.1633(6)
H4A H 0.4765 0.5896 0.1940
C10A C 0.3150(7) 0.4769(7) 0.0277(7)
H5A H 0.3710 0.4886 -0.0319
C11A C 0.1685(7) 0.4010(7) -0.0196(6)
H6A H 0.1232 0.3634 -0.1115
C12A C 0.0904(6) 0.3816(6) 0.0715(6)
C13A C 0.1639(6) 0.4389(6) 0.2074(6)
H7A H 0.1120 0.4213 0.2691
C14A C -0.0673(6) 0.3099(7) 0.0347(6)
C15A C -0.2790(6) 0.2456(6) 0.0541(6)
C16A C -0.4015(6) 0.2279(6) 0.1103(6)
C17A C -0.3697(6) 0.2890(6) 0.2482(6)
H8A H -0.2727 0.3388 0.2960
C18A C -0.5460(6) 0.1577(7) 0.0377(6)
H9A H -0.5726 0.1160 -0.0551
C19A C -0.6482(6) 0.1518(7) 0.1069(6)
H10A H -0.7462 0.1062 0.0607
C20A C -0.6075(6) 0.2125(6) 0.2441(6)
H11A H -0.6793 0.2058 0.2889
Co1A Co 0.38665(7) 0.61999(8) 0.47031(8)
Co1_2 Co -0.38665(7) 0.38001(8) 0.52969(8)
Co1A_2 Co 1.38665(7) 0.61999(8) 0.47031(8)
N1A N 0.9377(6) 1.0178(5) 0.2581(5)
N2A N 0.3035(5) 0.5171(5) 0.2537(5)
N3A N -0.1428(5) 0.3205(5) 0.1258(5)
N4A N -0.1475(5) 0.2315(6) -0.0893(5)
N5A N -0.2827(5) 0.1910(6) -0.0749(5)
N6A N -0.4676(5) 0.2813(5) 0.3162(5)
N6_2 N 0.4676(5) 0.7187(5) 0.6838(5)
N6A_2 N 0.5324(5) 0.2813(5) 0.3162(5)
O1A O 0.5794(4) 0.7152(4) 0.4405(4)
O2A O 0.6806(5) 0.5713(4) 0.5033(5)
O3A O 1.1788(4) 0.6240(4) 0.4712(4)
O3_2 O 0.8212(4) 0.3760(4) 0.5288(4)
O3A_2 O 0.1788(4) 0.6240(4) 0.4712(4)
O4A O 1.3162(4) 0.8195(5) 0.4492(5)
O4_2 O 0.6838(4) 0.1805(5) 0.5508(5)
O4A_2 O 0.3162(4) 0.8195(5) 0.4492(5)
O5A O 1.0491(6) 1.0819(6) 0.2382(6)
O6A O 0.8243(5) 1.0375(6) 0.2261(6)
H12A H -0.3606 0.1371 -0.1412
O7 O 0.4955(5) 0.0582(5) 0.6919(5)
H13 H 0.5509 0.0944 0.6508
H14 H 0.4445 -0.0095 0.6236
loop_
_geom_bond_atom_site_label_1
_geom_bond_atom_site_label_2
_geom_bond_site_symmetry_1
_geom_bond_site_symmetry_2
C1 C2 1_555 1_555
C2 C3 1_555 1_555
C3 H1 1_555 1_555
C4 C3 1_555 1_555
C5 C4 1_555 1_555
C6 C4 1_555 1_555
H2 C6 1_555 1_555
C7 C6 1_555 1_555
C8 C2 1_555 1_555
H3 C8 1_555 1_555
C9 H4 1_555 1_555
C10 C9 1_555 1_555
H5 C10 1_555 1_555
C11 C10 1_555 1_555
H6 C11 1_555 1_555
C12 C11 1_555 1_555
C13 C12 1_555 1_555
H7 C13 1_555 1_555
C14 C12 1_555 1_555
C15 C16 1_555 1_555
C16 C17 1_555 1_555
C17 H8 1_555 1_555
C18 C16 1_555 1_555
H9 C18 1_555 1_555
C19 C18 1_555 1_555
H10 C19 1_555 1_555
C20 C19 1_555 1_555
H11 C20 1_555 1_555
Co1 N2 1_555 1_555
N1 C7 1_555 1_555
N2 C9 1_555 1_555
N3 C14 1_555 1_555
N4 C14 1_555 1_555
N5 C15 1_555 1_555
N6 C17 1_555 1_555
O1 C1 1_555 1_555
O2 C1 1_555 1_555
O3 C5 1_555 1_555
O4 C5 1_555 1_555
O5 N1 1_555 1_555
O6 N1 1_555 1_555
O7 H13 1_555 1_555
H12 N5 1_555 1_555
H14 O7 1_555 1_555
C1A C2A 1_555 1_555
C2A C3A 1_555 1_555
C3A H1A 1_555 1_555
C4A C3A 1_555 1_555
C5A C4A 1_555 1_555
C6A C4A 1_555 1_555
H2A C6A 1_555 1_555
C7A C6A 1_555 1_555
C8A C2A 1_555 1_555
H3A C8A 1_555 1_555
C9A H4A 1_555 1_555
C10A C9A 1_555 1_555
H5A C10A 1_555 1_555
C11A C10A 1_555 1_555
H6A C11A 1_555 1_555
C12A C11A 1_555 1_555
C13A C12A 1_555 1_555
H7A C13A 1_555 1_555
C14A C12A 1_555 1_555
C15A C16A 1_555 1_555
C16A C17A 1_555 1_555
C17A H8A 1_555 1_555
C18A C16A 1_555 1_555
H9A C18A 1_555 1_555
C19A C18A 1_555 1_555
H10A C19A 1_555 1_555
C20A C19A 1_555 1_555
H11A C20A 1_555 1_555
Co1A O2 1_555 1_555
Co1_2 O3 1_555 1_555
Co1A_2 N6 1_555 1_555
N1A C7A 1_555 1_555
N2A C9A 1_555 1_555
N3A C14A 1_555 1_555
N4A C14A 1_555 1_555
N5A C15A 1_555 1_555
N6A C17A 1_555 1_555
N6_2 Co1A 1_555 1_555
N6A_2 Co1 1_555 1_555
O1A C1A 1_555 1_555
O2A Co1 1_555 1_555
O3A C5A 1_555 1_555
O3_2 Co1 1_555 1_555
O3A_2 Co1A 1_555 1_555
O4A C5A 1_555 1_555
O4_2 Co1 1_555 1_555
O4A_2 Co1A 1_555 1_555
O5A N1A 1_555 1_555
O6A N1A 1_555 1_555
H12A N5A 1_555 1_555
C7 C8 1_555 1_555
C13 N2 1_555 1_555
C15 N3 1_555 1_555
C20 N6 1_555 1_555
Co1 O1 1_555 1_555
N4 N5 1_555 1_555
O4 Co1_2 1_555 1_555
C1A O2A 1_555 1_555
C7A C8A 1_555 1_555
C13A N2A 1_555 1_555
C15A N3A 1_555 1_555
C20A N6A 1_555 1_555
Co1A N2A 1_555 1_555
Co1A O1A 1_555 1_555
Co1_2 N6A 1_555 1_555
Co1A_2 O3A 1_555 1_555
Co1A_2 O4A 1_555 1_555
N4A N5A 1_555 1_555

#END
