
#######################################################################
#
#                 Cambridge Crystallographic Data Centre
#                                CCDC 
#
#######################################################################
#
# If this CIF has been generated from an entry in the Cambridge 
# Structural Database, then it will include bibliographic, chemical, 
# crystal, experimental, refinement or atomic coordinate data resulting 
# from the CCDC's data processing and validation procedures.
#
#######################################################################

data_HUZQAV
_symmetry_cell_setting           triclinic
_symmetry_space_group_name_H-M   'P -1'
_symmetry_Int_Tables_number      2
_space_group_name_Hall           '-P 1'
loop_
_symmetry_equiv_pos_site_id
_symmetry_equiv_pos_as_xyz
1 x,y,z
2 -x,-y,-z
_cell_length_a                   8.2110(16)
_cell_length_b                   9.1210(18)
_cell_length_c                   11.388(2)
_cell_angle_alpha                84.10(3)
_cell_angle_beta                 73.24(3)
_cell_angle_gamma                78.46(3)
_cell_volume                     799.213
loop_
_atom_site_label
_atom_site_type_symbol
_atom_site_fract_x
_atom_site_fract_y
_atom_site_fract_z
Co1 Co 0.5000 0.5000 0.5000
O1 O 0.5411(4) 0.2687(4) 0.2766(3)
C1 C 0.1822(8) 1.2155(7) -0.1139(5)
H1 H 0.2279 1.2553 -0.1923
O2 O 0.5092(4) 0.5087(3) 0.3171(3)
O3 O 0.5578(4) 0.7193(3) 0.4649(3)
N1 N 0.0779(5) 0.9255(4) 0.2893(4)
N2 N -0.1773(5) 1.0622(4) 0.3073(4)
C2 C 0.0187(8) 1.2807(7) -0.0494(6)
H2 H -0.0456 1.3595 -0.0844
N3 N 0.2277(5) 0.5895(4) 0.5392(3)
C3 C 0.0053(6) 0.7750(5) 0.4856(4)
N4 N -0.1965(5) 0.9726(4) 0.4111(4)
C4 C -0.0594(6) 0.6285(6) 0.6717(5)
H3 H -0.1371 0.6011 0.7439
C5 C 0.1735(6) 0.6959(5) 0.4628(4)
H4 H 0.2530 0.7186 0.3898
C6 C -0.0463(8) 1.2257(7) 0.0681(5)
H5 H -0.1539 1.2701 0.1157
C7 C 0.5067(5) 0.4557(5) 0.1202(4)
C8 C 0.5182(5) 0.4060(5) 0.2477(4)
C9 C -0.0137(6) 1.0330(5) 0.2363(5)
C10 C 0.0484(6) 1.1048(5) 0.1148(4)
C11 C -0.0391(6) 0.8920(5) 0.3960(4)
C12 C -0.1138(6) 0.7406(6) 0.5937(5)
H6 H -0.2274 0.7919 0.6130
C13 C 0.5156(7) 0.3496(5) 0.0374(4)
C14 C 0.4912(6) 0.6056(5) 0.0814(4)
C15 C 0.1108(7) 0.5568(6) 0.6425(5)
H7 H 0.1456 0.4826 0.6970
N5 N 0.2770(6) 1.1017(5) -0.0721(4)
C16 C 0.2116(7) 1.0477(6) 0.0416(5)
H8 H 0.2787 0.9679 0.0734
H9 H 0.5174 0.7753 0.4084
H10 H 0.4889 0.6722 0.1435
H11 H 0.5318 0.2572 0.0632
H12 H 0.5523 0.7549 0.5256
H13 H -0.2705 1.1305 0.2960
Co1_2 Co 0.5000 0.5000 -0.5000
O1A O 0.4589(4) 0.7313(4) -0.2766(3)
C1A C 0.8178(8) -0.2155(7) 1.1139(5)
H1A H 0.7721 -0.2553 1.1923
O2A O 0.4908(4) 0.4913(3) -0.3171(3)
O2A_2 O 0.4908(4) 0.4913(3) 0.6829(3)
O3A O 0.4422(4) 0.2807(3) 0.5351(3)
N1A N 0.9221(5) 0.0745(4) 0.7107(4)
N2A N 1.1773(5) -0.0622(4) 0.6927(4)
C2A C 0.9813(8) -0.2807(7) 1.0494(6)
H2A H 1.0456 -0.3595 1.0844
N3A N 0.7723(5) 0.4105(4) 0.4608(3)
C3A C 0.9947(6) 0.2250(5) 0.5144(4)
N4A N 1.1965(5) 0.0274(4) 0.5889(4)
C4A C 1.0594(6) 0.3715(6) 0.3283(5)
H3A H 1.1371 0.3989 0.2561
C5A C 0.8265(6) 0.3041(5) 0.5372(4)
H4A H 0.7470 0.2814 0.6102
C6A C 1.0463(8) -0.2257(7) 0.9319(5)
H5A H 1.1539 -0.2701 0.8843
C7A C 0.4933(5) 0.5443(5) -0.1202(4)
C8A C 0.4818(5) 0.5940(5) -0.2477(4)
C9A C 1.0137(6) -0.0330(5) 0.7637(5)
C10A C 0.9516(6) -0.1048(5) 0.8852(4)
C11A C 1.0391(6) 0.1080(5) 0.6040(4)
C12A C 1.1138(6) 0.2594(6) 0.4063(5)
H6A H 1.2274 0.2081 0.3870
C13A C 0.4844(7) 0.6504(5) -0.0374(4)
C14A C 0.5088(6) 0.3944(5) -0.0814(4)
C15A C 0.8892(7) 0.4432(6) 0.3575(5)
H7A H 0.8544 0.5174 0.3030
N5A N 0.7230(6) -0.1017(5) 1.0721(4)
C16A C 0.7884(7) -0.0477(6) 0.9584(5)
H8A H 0.7213 0.0321 0.9266
H9A H 0.4826 0.2247 0.5916
H10A H 0.5111 0.3278 -0.1435
H11A H 0.4682 0.7428 -0.0632
H12A H 0.4477 0.2451 0.4744
H13A H 1.2705 -0.1305 0.7040
O4 O 0.5569(5) 0.0743(4) 0.7043(4)
H14 H 0.6599 0.0742 0.7056
H15 H 0.4745 0.0822 0.7700
loop_
_geom_bond_atom_site_label_1
_geom_bond_atom_site_label_2
_geom_bond_site_symmetry_1
_geom_bond_site_symmetry_2
Co1 O2 1_555 1_555
O1 C8 1_555 1_555
C1 H1 1_555 1_555
O2 C8 1_555 1_555
O3 Co1 1_555 1_555
N1 C9 1_555 1_555
N2 N4 1_555 1_555
C2 C1 1_555 1_555
H2 C2 1_555 1_555
N3 Co1 1_555 1_555
C3 C5 1_555 1_555
N4 C11 1_555 1_555
C4 H3 1_555 1_555
C5 N3 1_555 1_555
H4 C5 1_555 1_555
C6 C2 1_555 1_555
H5 C6 1_555 1_555
C7 C8 1_555 1_555
C9 N2 1_555 1_555
C10 C6 1_555 1_555
C11 N1 1_555 1_555
C12 C3 1_555 1_555
H6 C12 1_555 1_555
C13 C7 1_555 1_555
C14 C7 1_555 1_555
C15 N3 1_555 1_555
H7 C15 1_555 1_555
N5 C1 1_555 1_555
C16 C10 1_555 1_555
H8 C16 1_555 1_555
O4 H14 1_555 1_555
H9 O3 1_555 1_555
H10 C14 1_555 1_555
H11 C13 1_555 1_555
H12 O3 1_555 1_555
H13 N2 1_555 1_555
H15 O4 1_555 1_555
Co1_2 O2A 1_555 1_555
O1A C8A 1_555 1_555
C1A H1A 1_555 1_555
O2A C8A 1_555 1_555
O2A_2 Co1 1_555 1_555
O3A Co1 1_555 1_555
N1A C9A 1_555 1_555
N2A N4A 1_555 1_555
C2A C1A 1_555 1_555
H2A C2A 1_555 1_555
N3A Co1 1_555 1_555
C3A C5A 1_555 1_555
N4A C11A 1_555 1_555
C4A H3A 1_555 1_555
C5A N3A 1_555 1_555
H4A C5A 1_555 1_555
C6A C2A 1_555 1_555
H5A C6A 1_555 1_555
C7A C8A 1_555 1_555
C9A N2A 1_555 1_555
C10A C6A 1_555 1_555
C11A N1A 1_555 1_555
C12A C3A 1_555 1_555
H6A C12A 1_555 1_555
C13A C14 1_555 1_555
C14A C13 1_555 1_555
C15A N3A 1_555 1_555
H7A C15A 1_555 1_555
N5A C1A 1_555 1_555
C16A C10A 1_555 1_555
H8A C16A 1_555 1_555
H9A O3A 1_555 1_555
H10A C14A 1_555 1_555
H11A C13A 1_555 1_555
H12A O3A 1_555 1_555
H13A N2A 1_555 1_555
C3 C11 1_555 1_555
C4 C12 1_555 1_555
C4 C15 1_555 1_555
C9 C10 1_555 1_555
N5 C16 1_555 1_555
C3A C11A 1_555 1_555
C4A C12A 1_555 1_555
C4A C15A 1_555 1_555
C7A C13A 1_555 1_555
C7A C14A 1_555 1_555
C9A C10A 1_555 1_555
N5A C16A 1_555 1_555

#END
