
#######################################################################
#
#                 Cambridge Crystallographic Data Centre
#                                CCDC 
#
#######################################################################
#
# If this CIF has been generated from an entry in the Cambridge 
# Structural Database, then it will include bibliographic, chemical, 
# crystal, experimental, refinement or atomic coordinate data resulting 
# from the CCDC's data processing and validation procedures.
#
#######################################################################

data_HUZQOJ
_symmetry_cell_setting           tetragonal
_symmetry_space_group_name_H-M   'P -4'
_symmetry_Int_Tables_number      81
_space_group_name_Hall           'P -4'
loop_
_symmetry_equiv_pos_site_id
_symmetry_equiv_pos_as_xyz
1 x,y,z
2 -x,-y,z
3 y,-x,-z
4 -y,x,-z
_cell_length_a                   10.0509(4)
_cell_length_b                   10.0509(4)
_cell_length_c                   12.3120(11)
_cell_angle_alpha                90
_cell_angle_beta                 90
_cell_angle_gamma                90
_cell_volume                     1243.77
loop_
_atom_site_label
_atom_site_type_symbol
_atom_site_fract_x
_atom_site_fract_y
_atom_site_fract_z
Cu1 Cu 0.63856(7) 1.48136(6) 0.42148(6)
Cu2 Cu 0.5000 1.0000 0.27120(8)
S1 S 0.57277(13) 1.26902(12) 0.41725(13)
N1 N 0.4042(5) 1.1565(4) 0.2707(4)
N2 N 0.3478(5) 1.3660(5) 0.3227(4)
C1 C 0.4347(6) 1.2661(5) 0.3322(5)
C2 C 0.2846(6) 1.1873(5) 0.2195(6)
C3 C 0.2497(6) 1.3189(6) 0.2531(5)
C4 C 0.2032(8) 1.1167(7) 0.1510(6)
C5 C 0.0866(8) 1.1753(8) 0.1154(7)
C6 C 0.1336(7) 1.3786(7) 0.2152(7)
C8 C 0.0535(8) 1.3076(8) 0.1467(7)
Cu1A Cu 0.36144(7) 0.51864(6) 0.42148(6)
Cu1B Cu 0.48136(6) 1.36144(7) 0.57852(6)
Cu1C Cu 0.51864(6) 0.63856(7) 0.57852(6)
Cu1A_2 Cu 0.36144(7) 1.51864(6) 0.42148(6)
Cu1_2 Cu 0.63856(7) 0.48136(6) 0.42148(6)
Cu1C_2 Cu 0.51864(6) 1.63856(7) 0.57852(6)
Cu2B Cu 1.0000 1.5000 0.72880(8)
Cu2_2 Cu 0.5000 2.0000 0.27120(8)
S1A S 0.42723(13) 0.73098(12) 0.41725(13)
S1C S 0.73098(12) 1.57277(13) 0.58275(13)
S1A_2 S 0.42723(13) 1.73098(12) 0.41725(13)
S1B S 0.26902(12) 0.42723(13) 0.58275(13)
S1B_2 S 0.26902(12) 1.42723(13) 0.58275(13)
S1C_2 S 0.73098(12) 0.57277(13) 0.58275(13)
N1A N 0.5958(5) 0.8435(4) 0.2707(4)
N1C N 0.8435(4) 1.4042(5) 0.7293(4)
N1A_2 N 0.5958(5) 1.8435(4) 0.2707(4)
N1B N 1.1565(4) 1.5958(5) 0.7293(4)
N2A N 0.6522(5) 0.6340(5) 0.3227(4)
N2C N 0.6340(5) 1.3478(5) 0.6773(4)
N2A_2 N 0.6522(5) 1.6340(5) 0.3227(4)
N2_2 N 0.3478(5) 0.3660(5) 0.3227(4)
N2B N 0.3660(5) 0.6522(5) 0.6773(4)
C1A C 0.5653(6) 0.7339(5) 0.3322(5)
C1C C 0.7339(5) 1.4347(6) 0.6678(5)
C1A_2 C 0.5653(6) 1.7339(5) 0.3322(5)
C2A C 0.7154(6) 0.8127(5) 0.2195(6)
C2C C 0.8127(5) 1.2846(6) 0.7805(6)
C2A_2 C 0.7154(6) 1.8127(5) 0.2195(6)
C3A C 0.7503(6) 0.6811(6) 0.2531(5)
C3C C 0.6811(6) 1.2497(6) 0.7469(5)
C3A_2 C 0.7503(6) 1.6811(6) 0.2531(5)
C4A C 0.7968(8) 0.8833(7) 0.1510(6)
C4C C 0.8833(7) 1.2032(8) 0.8490(6)
C4A_2 C 0.7968(8) 1.8833(7) 0.1510(6)
C5A C 0.9134(8) 0.8247(8) 0.1154(7)
C5C C 0.8247(8) 1.0866(8) 0.8846(7)
C5A_2 C 0.9134(8) 1.8247(8) 0.1154(7)
C6A C 0.8664(7) 0.6214(7) 0.2152(7)
C6C C 0.6214(7) 1.1336(7) 0.7848(7)
C6A_2 C 0.8664(7) 1.6214(7) 0.2152(7)
C8A C 0.9465(8) 0.6924(8) 0.1467(7)
C8C C 0.6924(8) 1.0535(8) 0.8533(7)
C8A_2 C 0.9465(8) 1.6924(8) 0.1467(7)
N3 N 1.0000 1.0000 0.5000
C7 C 0.9704(12) 1.1129(9) 0.4259(9)
C9 C 0.9332(12) 1.2423(11) 0.4815(12)
C7A C 1.0296(12) 0.8871(9) 0.4259(9)
C7B C 1.1129(9) 1.0296(12) 0.5741(9)
C7C C 0.8871(9) 0.9704(12) 0.5741(9)
C9A C 1.0668(12) 0.7577(11) 0.4815(12)
C9B C 1.2423(11) 1.0668(12) 0.5185(12)
C9C C 0.7577(11) 0.9332(12) 0.5185(12)
N4 N 0.5000 1.5000 0.0000
C10 C 0.653(2) 1.319(2) 0.0894(16)
C11 C 0.567(2) 1.408(3) 0.065(2)
C10A C 0.347(2) 1.681(2) 0.0894(16)
C10B C 0.319(2) 1.347(2) -0.0894(16)
C10C C 0.681(2) 1.653(2) -0.0894(16)
C11A C 0.433(2) 1.592(3) 0.065(2)
C11B C 0.408(3) 1.433(2) -0.065(2)
C11C C 0.592(3) 1.567(2) -0.065(2)
loop_
_geom_bond_atom_site_label_1
_geom_bond_atom_site_label_2
_geom_bond_site_symmetry_1
_geom_bond_site_symmetry_2
Cu1 S1 1_555 1_555
Cu2 N1 1_555 1_555
S1 C1 1_555 1_555
N1 C1 1_555 1_555
N2 C1 1_555 1_555
N3 C7 1_555 1_555
N4 C11 1_555 1_555
C2 N1 1_555 1_555
C3 N2 1_555 1_555
C4 C2 1_555 1_555
C5 C4 1_555 1_555
C6 C3 1_555 1_555
C7 C9 1_555 1_555
C8 C5 1_555 1_555
C10 C11 1_555 1_555
Cu1A S1A 1_555 1_555
Cu1B S1 1_555 1_555
Cu1C S1A 1_555 1_555
Cu1A_2 N2 1_555 1_555
Cu1_2 S1C_2 1_555 1_555
Cu1C_2 S1C 1_555 1_555
Cu2B N1C 1_555 1_555
Cu2_2 N1A_2 1_555 1_555
S1A C1A 1_555 1_555
S1C Cu1 1_555 1_555
S1A_2 Cu1A_2 1_555 1_555
S1B Cu1A 1_555 1_555
S1B_2 Cu1B 1_555 1_555
S1C_2 Cu1C 1_555 1_555
N1A Cu2 1_555 1_555
N1C C1C 1_555 1_555
N1A_2 C1A_2 1_555 1_555
N1B Cu2B 1_555 1_555
N2A Cu1_2 1_555 1_555
N2C Cu1B 1_555 1_555
N2A_2 Cu1 1_555 1_555
N2_2 Cu1A 1_555 1_555
N2B Cu1C 1_555 1_555
C1A N1A 1_555 1_555
C1C S1C 1_555 1_555
C1A_2 S1A_2 1_555 1_555
C2A N1A 1_555 1_555
C2C N1C 1_555 1_555
C2A_2 N1A_2 1_555 1_555
C3A N2A 1_555 1_555
C3C N2C 1_555 1_555
C3A_2 N2A_2 1_555 1_555
C4A C2A 1_555 1_555
C4C C2C 1_555 1_555
C4A_2 C2A_2 1_555 1_555
C5A C4A 1_555 1_555
C5C C4C 1_555 1_555
C5A_2 C4A_2 1_555 1_555
C6A C3A 1_555 1_555
C6C C3C 1_555 1_555
C6A_2 C3A_2 1_555 1_555
C7A N3 1_555 1_555
C7B N3 1_555 1_555
C7C N3 1_555 1_555
C8A C5A 1_555 1_555
C8C C5C 1_555 1_555
C8A_2 C5A_2 1_555 1_555
C9A C7A 1_555 1_555
C9B C7B 1_555 1_555
C9C C7C 1_555 1_555
C10A C11A 1_555 1_555
C10B C11B 1_555 1_555
C10C C11C 1_555 1_555
C11A N4 1_555 1_555
C11B N4 1_555 1_555
C11C N4 1_555 1_555
C2 C3 1_555 1_555
C6 C8 1_555 1_555
Cu1A_2 S1B_2 1_555 1_555
Cu1C_2 S1A_2 1_555 1_555
N2A C1A 1_555 1_555
N2C C1C 1_555 1_555
N2A_2 C1A_2 1_555 1_555
C2A C3A 1_555 1_555
C2C C3C 1_555 1_555
C2A_2 C3A_2 1_555 1_555
C6A C8A 1_555 1_555
C6C C8C 1_555 1_555
C6A_2 C8A_2 1_555 1_555

#END
