
#######################################################################
#
#                 Cambridge Crystallographic Data Centre
#                                CCDC 
#
#######################################################################
#
# If this CIF has been generated from an entry in the Cambridge 
# Structural Database, then it will include bibliographic, chemical, 
# crystal, experimental, refinement or atomic coordinate data resulting 
# from the CCDC's data processing and validation procedures.
#
#######################################################################

data_HUZRIE
_symmetry_cell_setting           monoclinic
_symmetry_space_group_name_H-M   'C 2/c'
_symmetry_Int_Tables_number      15
_space_group_name_Hall           '-C 2yn'
loop_
_symmetry_equiv_pos_site_id
_symmetry_equiv_pos_as_xyz
1 x,y,z
2 -x,y,1/2-z
3 1/2+x,1/2+y,z
4 1/2-x,1/2+y,1/2-z
5 -x,-y,-z
6 x,-y,1/2+z
7 1/2-x,1/2-y,-z
8 1/2+x,1/2-y,1/2+z
_cell_length_a                   21.020(3)
_cell_length_b                   6.5819(9)
_cell_length_c                   17.413(2)
_cell_angle_alpha                90
_cell_angle_beta                 120.462(3)
_cell_angle_gamma                90
_cell_volume                     2076.57
loop_
_atom_site_label
_atom_site_type_symbol
_atom_site_fract_x
_atom_site_fract_y
_atom_site_fract_z
Zn1 Zn 0.0000 0.03664(6) 0.2500
S1 S -0.04892(4) -0.17574(10) 0.31298(4)
S2 S -0.09996(4) -0.11095(11) 0.44161(5)
O1 O -0.07218(10) 0.1764(3) 0.35582(12)
N1 N -0.08246(11) 0.2340(3) 0.16772(13)
C1 C -0.07512(13) -0.0208(4) 0.37225(16)
C2 C -0.09552(17) 0.3277(4) 0.3980(2)
H1 H -0.0684 0.4562 0.4059
H2 H -0.0837 0.2789 0.4575
C3 C -0.17694(19) 0.3655(5) 0.3416(2)
H3 H -0.1919 0.4671 0.3706
H4 H -0.2037 0.2385 0.3345
H5 H -0.1884 0.4155 0.2830
C4 C -0.15159(14) 0.2048(4) 0.14960(16)
H6 H -0.1627 0.0844 0.1706
C5 C -0.20763(14) 0.3426(4) 0.10157(17)
H7 H -0.2562 0.3154 0.0897
C6 C -0.19288(13) 0.5209(4) 0.07062(16)
C7 C -0.12060(13) 0.5508(4) 0.09059(16)
H8 H -0.1077 0.6710 0.0715
C8 C -0.06784(14) 0.4059(4) 0.13810(16)
H9 H -0.0189 0.4286 0.1505
C9 C -0.25303(14) 0.6642(4) 0.01860(16)
H10 H -0.3001 0.6328 0.0106
Zn1F Zn -0.5000 1.46336(6) -0.2500
S1A S 0.04892(4) -0.17574(10) 0.18702(4)
S2A S 0.09996(4) -0.11095(11) 0.05839(5)
O1A O 0.07218(10) 0.1764(3) 0.14418(12)
N1F N -0.41754(11) 1.2660(3) -0.16772(13)
N1A N 0.08246(11) 0.2340(3) 0.33228(13)
C1A C 0.07512(13) -0.0208(4) 0.12775(16)
C2A C 0.09552(17) 0.3277(4) 0.1020(2)
H1A H 0.0684 0.4562 0.0941
H2A H 0.0837 0.2789 0.0425
C3A C 0.17694(19) 0.3655(5) 0.1584(2)
H3A H 0.1919 0.4671 0.1294
H4A H 0.2037 0.2385 0.1655
H5A H 0.1884 0.4155 0.2170
C4F C -0.34841(14) 1.2952(4) -0.14960(16)
H6F H -0.3373 1.4156 -0.1706
C5F C -0.29237(14) 1.1574(4) -0.10157(17)
H7F H -0.2438 1.1846 -0.0897
C6F C -0.30712(13) 0.9791(4) -0.07062(16)
C7F C -0.37940(13) 0.9492(4) -0.09059(16)
H8F H -0.3923 0.8290 -0.0715
C8F C -0.43216(14) 1.0941(4) -0.13810(16)
H9F H -0.4811 1.0714 -0.1505
C9F C -0.24697(14) 0.8358(4) -0.01860(16)
H10F H -0.1999 0.8672 -0.0106
loop_
_geom_bond_atom_site_label_1
_geom_bond_atom_site_label_2
_geom_bond_site_symmetry_1
_geom_bond_site_symmetry_2
Zn1 S1 1_555 1_555
S1 C1 1_555 1_555
S2 C1 1_555 1_555
O1 C1 1_555 1_555
N1 Zn1 1_555 1_555
C2 O1 1_555 1_555
H1 C2 1_555 1_555
H2 C2 1_555 1_555
C3 C2 1_555 1_555
H3 C3 1_555 1_555
H4 C3 1_555 1_555
H5 C3 1_555 1_555
C4 N1 1_555 1_555
H6 C4 1_555 1_555
C5 C4 1_555 1_555
H7 C5 1_555 1_555
C6 C5 1_555 1_555
C7 C6 1_555 1_555
H8 C7 1_555 1_555
C8 N1 1_555 1_555
H9 C8 1_555 1_555
C9 C6 1_555 1_555
H10 C9 1_555 1_555
Zn1F N1F 1_555 1_555
S1A Zn1 1_555 1_555
S2A C1A 1_555 1_555
O1A C1A 1_555 1_555
N1F C4F 1_555 1_555
N1A Zn1 1_555 1_555
C1A S1A 1_555 1_555
C2A O1A 1_555 1_555
H1A C2A 1_555 1_555
H2A C2A 1_555 1_555
C3A C2A 1_555 1_555
H3A C3A 1_555 1_555
H4A C3A 1_555 1_555
H5A C3A 1_555 1_555
C4F H6F 1_555 1_555
C5F C4F 1_555 1_555
H7F C5F 1_555 1_555
C6F C5F 1_555 1_555
C7F C6F 1_555 1_555
H8F C7F 1_555 1_555
C8F N1F 1_555 1_555
H9F C8F 1_555 1_555
C9F C9 1_555 1_555
H10F C9F 1_555 1_555
C7 C8 1_555 1_555
C6F C9F 1_555 1_555
C7F C8F 1_555 1_555

#END
