
#######################################################################
#
#                 Cambridge Crystallographic Data Centre
#                                CCDC 
#
#######################################################################
#
# If this CIF has been generated from an entry in the Cambridge 
# Structural Database, then it will include bibliographic, chemical, 
# crystal, experimental, refinement or atomic coordinate data resulting 
# from the CCDC's data processing and validation procedures.
#
#######################################################################

data_HUZROK
_symmetry_cell_setting           monoclinic
_symmetry_space_group_name_H-M   'C 2/c'
_symmetry_Int_Tables_number      15
_space_group_name_Hall           '-C 2yn'
loop_
_symmetry_equiv_pos_site_id
_symmetry_equiv_pos_as_xyz
1 x,y,z
2 -x,y,1/2-z
3 1/2+x,1/2+y,z
4 1/2-x,1/2+y,1/2-z
5 -x,-y,-z
6 x,-y,1/2+z
7 1/2-x,1/2-y,-z
8 1/2+x,1/2-y,1/2+z
_cell_length_a                   16.6563(15)
_cell_length_b                   9.6575(8)
_cell_length_c                   16.2426(14)
_cell_angle_alpha                90
_cell_angle_beta                 95.210(2)
_cell_angle_gamma                90
_cell_volume                     2601.96
loop_
_atom_site_label
_atom_site_type_symbol
_atom_site_fract_x
_atom_site_fract_y
_atom_site_fract_z
Zn1 Zn 0.0000 0.14727(3) 0.2500
S1 S 0.08840(3) 0.24706(6) 0.16670(3)
S2 S 0.08220(4) 0.53603(6) 0.10387(4)
O1 O -0.03932(9) 0.39520(16) 0.15586(10)
N1 N -0.07050(11) 0.01388(18) 0.17538(11)
C1 C 0.03800(13) 0.3999(2) 0.14145(12)
C2 C -0.08806(14) 0.5201(2) 0.14269(16)
H1 H -0.0859 0.5539 0.0854
H2 H -0.0672 0.5939 0.1812
C3 C -0.17336(14) 0.4845(3) 0.15777(15)
H3 H -0.2050 0.5712 0.1584
H4 H -0.1733 0.4415 0.2131
C4 C -0.21476(16) 0.3875(3) 0.09435(17)
H5 H -0.1871 0.2966 0.0982
H6 H -0.2097 0.4252 0.0384
C5 C -0.30341(19) 0.3666(3) 0.1057(2)
H7 H -0.3272 0.3030 0.0632
H8 H -0.3314 0.4559 0.1007
H9 H -0.3089 0.3274 0.1606
C6 C -0.03646(14) -0.0648(2) 0.12005(14)
H10 H 0.0205 -0.0622 0.1192
C7 C -0.08053(14) -0.1492(2) 0.06429(14)
H11 H -0.0538 -0.2027 0.0260
C8 C -0.16380(13) -0.1562(2) 0.06392(12)
C9 C -0.19912(13) -0.0749(2) 0.12206(13)
H12 H -0.2558 -0.0764 0.1248
C10 C -0.15106(14) 0.0070(2) 0.17523(13)
H13 H -0.1762 0.0620 0.2141
C11 C -0.20985(12) -0.2465(2) 0.00503(12)
H14 H -0.1805 -0.3045 -0.0287
Zn1F Zn -0.5000 -0.64727(3) -0.2500
S1A S -0.08840(3) 0.24706(6) 0.33330(3)
S2A S -0.08220(4) 0.53603(6) 0.39613(4)
O1A O 0.03932(9) 0.39520(16) 0.34414(10)
N1F N -0.42950(11) -0.51388(18) -0.17538(11)
N1A N 0.07050(11) 0.01388(18) 0.32462(11)
C1A C -0.03800(13) 0.3999(2) 0.35855(12)
C2A C 0.08806(14) 0.5201(2) 0.35731(16)
H1A H 0.0859 0.5539 0.4146
H2A H 0.0672 0.5939 0.3188
C3A C 0.17336(14) 0.4845(3) 0.34223(15)
H3A H 0.2050 0.5712 0.3416
H4A H 0.1733 0.4415 0.2869
C4A C 0.21476(16) 0.3875(3) 0.40565(17)
H5A H 0.1871 0.2966 0.4018
H6A H 0.2097 0.4252 0.4616
C5A C 0.30341(19) 0.3666(3) 0.3943(2)
H7A H 0.3272 0.3030 0.4368
H8A H 0.3314 0.4559 0.3993
H9A H 0.3089 0.3274 0.3394
C6F C -0.46354(14) -0.4352(2) -0.12005(14)
H10F H -0.5205 -0.4378 -0.1192
C7F C -0.41947(14) -0.3508(2) -0.06429(14)
H11F H -0.4462 -0.2973 -0.0260
C8F C -0.33620(13) -0.3438(2) -0.06392(12)
C9F C -0.30088(13) -0.4251(2) -0.12206(13)
H12F H -0.2442 -0.4236 -0.1248
C10F C -0.34894(14) -0.5070(2) -0.17523(13)
H13F H -0.3238 -0.5620 -0.2141
C11F C -0.29015(12) -0.2535(2) -0.00503(12)
H14F H -0.3195 -0.1955 0.0287
loop_
_geom_bond_atom_site_label_1
_geom_bond_atom_site_label_2
_geom_bond_site_symmetry_1
_geom_bond_site_symmetry_2
Zn1 S1 1_555 1_555
S1 C1 1_555 1_555
S2 C1 1_555 1_555
O1 C1 1_555 1_555
N1 Zn1 1_555 1_555
C2 O1 1_555 1_555
H1 C2 1_555 1_555
H2 C2 1_555 1_555
C3 C2 1_555 1_555
H3 C3 1_555 1_555
H4 C3 1_555 1_555
C4 C3 1_555 1_555
H5 C4 1_555 1_555
H6 C4 1_555 1_555
C5 C4 1_555 1_555
H7 C5 1_555 1_555
H8 C5 1_555 1_555
H9 C5 1_555 1_555
C6 N1 1_555 1_555
H10 C6 1_555 1_555
C7 C6 1_555 1_555
H11 C7 1_555 1_555
C8 C7 1_555 1_555
C9 C8 1_555 1_555
H12 C9 1_555 1_555
C10 N1 1_555 1_555
H13 C10 1_555 1_555
C11 C8 1_555 1_555
H14 C11 1_555 1_555
Zn1F N1F 1_555 1_555
S1A Zn1 1_555 1_555
S2A C1A 1_555 1_555
O1A C1A 1_555 1_555
N1F C6F 1_555 1_555
N1A Zn1 1_555 1_555
C1A S1A 1_555 1_555
C2A O1A 1_555 1_555
H1A C2A 1_555 1_555
H2A C2A 1_555 1_555
C3A C2A 1_555 1_555
H3A C3A 1_555 1_555
H4A C3A 1_555 1_555
C4A C3A 1_555 1_555
H5A C4A 1_555 1_555
H6A C4A 1_555 1_555
C5A C4A 1_555 1_555
H7A C5A 1_555 1_555
H8A C5A 1_555 1_555
H9A C5A 1_555 1_555
C6F H10F 1_555 1_555
C7F C6F 1_555 1_555
H11F C7F 1_555 1_555
C8F C7F 1_555 1_555
C9F C8F 1_555 1_555
H12F C9F 1_555 1_555
C10F N1F 1_555 1_555
H13F C10F 1_555 1_555
C11F C11 1_555 1_555
H14F C11F 1_555 1_555
C9 C10 1_555 1_555
C8F C11F 1_555 1_555
C9F C10F 1_555 1_555

#END
