
#######################################################################
#
#                 Cambridge Crystallographic Data Centre
#                                CCDC 
#
#######################################################################
#
# If this CIF has been generated from an entry in the Cambridge 
# Structural Database, then it will include bibliographic, chemical, 
# crystal, experimental, refinement or atomic coordinate data resulting 
# from the CCDC's data processing and validation procedures.
#
#######################################################################

data_HUZYUX
_symmetry_cell_setting           monoclinic
_symmetry_space_group_name_H-M   'C 2/c'
_symmetry_Int_Tables_number      15
_space_group_name_Hall           '-C 2yn'
loop_
_symmetry_equiv_pos_site_id
_symmetry_equiv_pos_as_xyz
1 x,y,z
2 -x,y,1/2-z
3 1/2+x,1/2+y,z
4 1/2-x,1/2+y,1/2-z
5 -x,-y,-z
6 x,-y,1/2+z
7 1/2-x,1/2-y,-z
8 1/2+x,1/2-y,1/2+z
_cell_length_a                   31.181(2)
_cell_length_b                   13.417(5)
_cell_length_c                   13.370(2)
_cell_angle_alpha                90
_cell_angle_beta                 113.276(9)
_cell_angle_gamma                90
_cell_volume                     5138.18
loop_
_atom_site_label
_atom_site_type_symbol
_atom_site_fract_x
_atom_site_fract_y
_atom_site_fract_z
Zn1 Zn 0.625168(15) 0.26071(3) 0.12296(3)
Zn2 Zn 0.626928(14) 0.66971(3) 0.19121(3)
Cl1 Cl 0.67511(3) 0.21222(8) 0.29036(8)
Cl2 Cl 0.58180(6) 0.12867(9) 0.03214(11)
O1 O 0.58066(8) 0.35795(17) 0.1378(2)
O2 O 0.62833(8) 0.49014(18) 0.1689(2)
O3 O 0.68377(9) 0.82945(18) 0.2474(2)
C1 C 0.71700(13) 0.8142(3) 0.1999(3)
H1 H 0.7439 0.7763 0.2513
H2 H 0.7286 0.8796 0.1869
O4 O 0.57689(8) 0.67056(19) -0.0222(2)
N1 N 0.67489(10) 0.6604(2) 0.1043(2)
N2 N 0.56150(10) 0.6148(2) 0.1638(2)
N3 N 0.58452(10) 0.8098(2) 0.1485(2)
C2 C 0.65151(13) 0.6152(3) -0.0058(3)
H3 H 0.6431 0.5453 0.0021
H4 H 0.6737 0.6141 -0.0421
C3 C 0.54631(13) 0.7552(3) -0.0464(3)
H5 H 0.5168 0.7363 -0.0402
H6 H 0.5389 0.7775 -0.122
C4 C 0.50631(12) 0.4826(3) 0.1280(3)
H7 H 0.4998 0.4132 0.1228
C5 C 0.47135(13) 0.5514(3) 0.1130(3)
H8 H 0.4403 0.5296 0.0961
C6 C 0.59046(12) 0.4503(3) 0.1541(3)
C7 C 0.71217(13) 0.5912(3) 0.1727(3)
H9 H 0.7407 0.603 0.1588
H10 H 0.702 0.5217 0.1514
C8 C 0.56934(14) 0.8393(3) 0.0317(3)
H11 H 0.5969 0.8627 0.019
H12 H 0.5472 0.8956 0.0164
C9 C 0.69598(13) 0.7583(3) 0.0944(3)
H13 H 0.6715 0.8003 0.0407
H14 H 0.7205 0.7464 0.0662
C10 C 0.54281(13) 0.7877(3) 0.1718(3)
H15 H 0.5168 0.8311 0.126
H16 H 0.5498 0.8037 0.2489
C11 C 0.48167(12) 0.6517(3) 0.1226(3)
H17 H 0.4578 0.6998 0.1103
C12 C 0.52786(12) 0.6813(3) 0.1508(3)
C13 C 0.60811(12) 0.6710(3) -0.0768(3)
H18 H 0.6161 0.7403 -0.0881
H19 H 0.5934 0.6382 -0.1486
C14 C 0.65572(12) 0.9172(3) 0.2109(3)
H20 H 0.6511 0.933 0.135
H21 H 0.6712 0.9748 0.2577
C15 C 0.55110(12) 0.5170(3) 0.1507(3)
C16 C 0.60964(13) 0.8960(3) 0.2178(3)
H22 H 0.615 0.8818 0.2945
H23 H 0.5897 0.956 0.1949
C17 C 0.72367(12) 0.6038(3) 0.2923(3)
C18 C 0.76800(13) 0.5865(3) 0.3704(3)
H24 H 0.7928 0.5696 0.3493
N4 N 0.68864(10) 0.6321(2) 0.3199(2)
C19 C 0.69627(13) 0.6419(3) 0.4253(3)
C20 C 0.77586(14) 0.5941(3) 0.4790(3)
H25 H 0.8059 0.5807 0.5337
C21 C 0.73923(13) 0.6217(3) 0.5075(3)
H26 H 0.7436 0.6265 0.5817
C22 C 0.65547(13) 0.6788(3) 0.4487(3)
O6 O 0.61950(9) 0.7017(2) 0.3699(2)
O7 O 0.66296(9) 0.6825(2) 0.5495(2)
Zn1E Zn 0.625168(15) 0.73929(3) 0.62296(3)
O7E O 0.66296(9) 0.3175(2) 0.0495(2)
O5 O 0.6319(2) 0.9385(4) -0.0925(4)
H27 H 0.6347 0.9952 -0.0434
H28 H 0.6017 0.9289 -0.1377
loop_
_geom_bond_atom_site_label_1
_geom_bond_atom_site_label_2
_geom_bond_site_symmetry_1
_geom_bond_site_symmetry_2
Zn1 Cl1 1_555 1_555
Zn2 O2 1_555 1_555
Cl2 Zn1 1_555 1_555
O1 Zn1 1_555 1_555
O2 C6 1_555 1_555
O3 Zn2 1_555 1_555
C1 O3 1_555 1_555
H1 C1 1_555 1_555
H2 C1 1_555 1_555
O4 Zn2 1_555 1_555
N1 Zn2 1_555 1_555
N2 Zn2 1_555 1_555
N3 Zn2 1_555 1_555
C2 N1 1_555 1_555
H3 C2 1_555 1_555
H4 C2 1_555 1_555
C3 O4 1_555 1_555
H5 C3 1_555 1_555
H6 C3 1_555 1_555
C4 H7 1_555 1_555
C5 C4 1_555 1_555
H8 C5 1_555 1_555
C6 O1 1_555 1_555
C7 N1 1_555 1_555
H9 C7 1_555 1_555
H10 C7 1_555 1_555
C8 N3 1_555 1_555
H11 C8 1_555 1_555
H12 C8 1_555 1_555
C9 C1 1_555 1_555
H13 C9 1_555 1_555
H14 C9 1_555 1_555
C10 N3 1_555 1_555
H15 C10 1_555 1_555
H16 C10 1_555 1_555
C11 C5 1_555 1_555
H17 C11 1_555 1_555
C12 N2 1_555 1_555
C13 O4 1_555 1_555
H18 C13 1_555 1_555
H19 C13 1_555 1_555
C14 O3 1_555 1_555
H20 C14 1_555 1_555
H21 C14 1_555 1_555
C15 N2 1_555 1_555
C16 N3 1_555 1_555
H22 C16 1_555 1_555
H23 C16 1_555 1_555
O5 H27 1_555 1_555
C17 C7 1_555 1_555
C18 C17 1_555 1_555
H24 C18 1_555 1_555
N4 Zn2 1_555 1_555
C19 N4 1_555 1_555
C20 C18 1_555 1_555
H25 C20 1_555 1_555
C21 C19 1_555 1_555
H26 C21 1_555 1_555
C22 C19 1_555 1_555
O6 Zn2 1_555 1_555
O7 C22 1_555 1_555
H28 O5 1_555 1_555
Zn1E O7 1_555 1_555
O7E Zn1 1_555 1_555
N1 C9 1_555 1_555
C2 C13 1_555 1_555
C3 C8 1_555 1_555
C4 C15 1_555 1_555
C6 C15 1_555 1_555
C10 C12 1_555 1_555
C11 C12 1_555 1_555
C14 C16 1_555 1_555
C17 N4 1_555 1_555
C20 C21 1_555 1_555
C22 O6 1_555 1_555

#END
