
#######################################################################
#
#                 Cambridge Crystallographic Data Centre
#                                CCDC 
#
#######################################################################
#
# If this CIF has been generated from an entry in the Cambridge 
# Structural Database, then it will include bibliographic, chemical, 
# crystal, experimental, refinement or atomic coordinate data resulting 
# from the CCDC's data processing and validation procedures.
#
#######################################################################

data_HXTPSN
_symmetry_cell_setting           orthorhombic
_symmetry_space_group_name_H-M   'P 21 21 21'
_symmetry_Int_Tables_number      19
_space_group_name_Hall           'P 2ac 2ab'
loop_
_symmetry_equiv_pos_site_id
_symmetry_equiv_pos_as_xyz
1 x,y,z
2 1/2-x,-y,1/2+z
3 1/2+x,1/2-y,-z
4 -x,1/2+y,1/2-z
_cell_length_a                   18.053(8)
_cell_length_b                   10.382(5)
_cell_length_c                   8.303(1)
_cell_angle_alpha                90
_cell_angle_beta                 90
_cell_angle_gamma                90
_cell_volume                     1556.2
loop_
_atom_site_label
_atom_site_type_symbol
_atom_site_fract_x
_atom_site_fract_y
_atom_site_fract_z
Sn1 Sn 0.24688 -0.00129 0.18862
O1 O 0.21560 0.04890 0.43650
C1 C 0.26040 0.19800 0.13500
C2 C 0.32130 0.23730 0.04600
C3 C 0.32880 0.36900 0.00500
C4 C 0.27990 0.45300 0.05500
C5 C 0.21810 0.42300 0.13800
C6 C 0.20810 0.29100 0.18000
C7 C 0.34120 -0.10950 0.26200
C8 C 0.33700 -0.24100 0.26700
C9 C 0.40070 -0.31400 0.31500
C10 C 0.46410 -0.25000 0.35200
C11 C 0.46910 -0.12000 0.34300
C12 C 0.40720 -0.05200 0.29500
C13 C 0.14460 -0.10330 0.15000
C14 C 0.07970 -0.06000 0.22000
C15 C 0.01160 -0.12500 0.19000
C16 C 0.01380 -0.23100 0.09200
C17 C 0.07700 -0.27800 0.02600
C18 C 0.14360 -0.21300 0.05200
O1A O 0.28440 -0.04890 -0.06350
Sn1A Sn 0.25312 0.00129 0.68862
loop_
_geom_bond_atom_site_label_1
_geom_bond_atom_site_label_2
_geom_bond_site_symmetry_1
_geom_bond_site_symmetry_2
Sn1 O1 1_555 1_555
O1 Sn1A 1_555 1_555
C1 Sn1 1_555 1_555
C2 C1 1_555 1_555
C3 C2 1_555 1_555
C4 C3 1_555 1_555
C5 C4 1_555 1_555
C6 C1 1_555 1_555
C7 Sn1 1_555 1_555
C8 C7 1_555 1_555
C9 C8 1_555 1_555
C10 C9 1_555 1_555
C11 C10 1_555 1_555
C12 C7 1_555 1_555
C13 Sn1 1_555 1_555
C14 C13 1_555 1_555
C15 C14 1_555 1_555
C16 C15 1_555 1_555
C17 C16 1_555 1_555
C18 C13 1_555 1_555
O1A Sn1 1_555 1_555
C5 C6 1_555 1_555
C11 C12 1_555 1_555
C17 C18 1_555 1_555

#END
