
#######################################################################
#
#                 Cambridge Crystallographic Data Centre
#                                CCDC 
#
#######################################################################
#
# If this CIF has been generated from an entry in the Cambridge 
# Structural Database, then it will include bibliographic, chemical, 
# crystal, experimental, refinement or atomic coordinate data resulting 
# from the CCDC's data processing and validation procedures.
#
#######################################################################

data_HXTPSN03
_symmetry_cell_setting           orthorhombic
_symmetry_space_group_name_H-M   'P 21 21 21'
_symmetry_Int_Tables_number      19
_space_group_name_Hall           'P 2ac 2ab'
loop_
_symmetry_equiv_pos_site_id
_symmetry_equiv_pos_as_xyz
1 x,y,z
2 1/2-x,-y,1/2+z
3 1/2+x,1/2-y,-z
4 -x,1/2+y,1/2-z
_cell_length_a                   8.2705(2)
_cell_length_b                   10.2202(2)
_cell_length_c                   17.6775(3)
_cell_angle_alpha                90
_cell_angle_beta                 90
_cell_angle_gamma                90
_cell_volume                     1494.21
loop_
_atom_site_label
_atom_site_type_symbol
_atom_site_fract_x
_atom_site_fract_y
_atom_site_fract_z
Sn1 Sn 0.433485(16) 0.747385(14) 0.003532(7)
O1 O 0.68055(19) 0.80133(14) 0.03450(9)
H1 H 0.6782 0.8662 0.0632
C1 C 0.5091(3) 0.6330(2) -0.09052(13)
C2 C 0.5556(4) 0.6880(3) -0.15894(13)
H2 H 0.563(4) 0.775(2) -0.1622(14)
C3 C 0.6016(4) 0.6106(3) -0.21952(15)
H3 H 0.634(4) 0.649(3) -0.2663(16)
C4 C 0.6001(4) 0.4752(3) -0.21255(16)
H4 H 0.630(4) 0.426(3) -0.2513(17)
C5 C 0.5519(4) 0.4185(2) -0.14574(15)
H5 H 0.546(4) 0.330(3) -0.1384(14)
C6 C 0.5065(3) 0.4964(2) -0.08503(15)
H6 H 0.484(3) 0.455(2) -0.0401(14)
C7 C 0.3728(3) 0.9489(2) -0.01102(13)
C8 C 0.4177(3) 1.0440(2) 0.04097(16)
H7 H 0.469(4) 1.026(3) 0.0828(15)
C9 C 0.3708(4) 1.1739(2) 0.0319(2)
H8 H 0.403(3) 1.239(3) 0.0698(14)
C10 C 0.2801(4) 1.2094(2) -0.0300(2)
H9 H 0.243(4) 1.297(3) -0.0371(18)
C11 C 0.2360(4) 1.1171(3) -0.08255(17)
H10 H 0.186(3) 1.143(2) -0.1207(15)
C12 C 0.2816(3) 0.9865(2) -0.07311(14)
H11 H 0.249(3) 0.929(2) -0.1114(14)
C13 C 0.3948(3) 0.6453(2) 0.10764(13)
C14 C 0.2950(3) 0.5352(2) 0.11012(15)
H12 H 0.238(3) 0.509(2) 0.0671(14)
C15 C 0.2649(4) 0.4705(2) 0.17753(17)
H13 H 0.208(4) 0.398(3) 0.1762(17)
C16 C 0.3325(4) 0.5148(3) 0.24386(16)
H14 H 0.305(4) 0.479(3) 0.2955(16)
C17 C 0.4353(4) 0.6230(3) 0.24276(15)
H15 H 0.483(4) 0.654(2) 0.2845(15)
C18 C 0.4649(4) 0.6862(3) 0.17470(14)
H16 H 0.529(3) 0.755(2) 0.1759(13)
Sn1B Sn 0.933485(16) 0.752615(14) -0.003532(7)
O1B O 0.18055(19) 0.69867(14) -0.03450(9)
loop_
_geom_bond_atom_site_label_1
_geom_bond_atom_site_label_2
_geom_bond_site_symmetry_1
_geom_bond_site_symmetry_2
Sn1 O1 1_555 1_555
O1 H1 1_555 1_555
C1 Sn1 1_555 1_555
C2 C1 1_555 1_555
H2 C2 1_555 1_555
C3 C2 1_555 1_555
H3 C3 1_555 1_555
C4 C3 1_555 1_555
H4 C4 1_555 1_555
C5 C4 1_555 1_555
H5 C5 1_555 1_555
C6 C1 1_555 1_555
H6 C6 1_555 1_555
C7 Sn1 1_555 1_555
C8 C7 1_555 1_555
H7 C8 1_555 1_555
C9 C8 1_555 1_555
H8 C9 1_555 1_555
C10 C9 1_555 1_555
H9 C10 1_555 1_555
C11 C10 1_555 1_555
H10 C11 1_555 1_555
C12 C7 1_555 1_555
H11 C12 1_555 1_555
C13 Sn1 1_555 1_555
C14 C13 1_555 1_555
H12 C14 1_555 1_555
C15 C14 1_555 1_555
H13 C15 1_555 1_555
C16 C15 1_555 1_555
H14 C16 1_555 1_555
C17 C16 1_555 1_555
H15 C17 1_555 1_555
C18 C13 1_555 1_555
H16 C18 1_555 1_555
Sn1B O1 1_555 1_555
O1B Sn1 1_555 1_555
C5 C6 1_555 1_555
C11 C12 1_555 1_555
C17 C18 1_555 1_555

#END
