
#######################################################################
#
#                 Cambridge Crystallographic Data Centre
#                                CCDC 
#
#######################################################################
#
# If this CIF has been generated from an entry in the Cambridge 
# Structural Database, then it will include bibliographic, chemical, 
# crystal, experimental, refinement or atomic coordinate data resulting 
# from the CCDC's data processing and validation procedures.
#
#######################################################################

data_HXTPPB
_symmetry_cell_setting           orthorhombic
_symmetry_space_group_name_H-M   'P 21 21 21'
_symmetry_Int_Tables_number      19
_space_group_name_Hall           'P 2ac 2ab'
loop_
_symmetry_equiv_pos_site_id
_symmetry_equiv_pos_as_xyz
1 x,y,z
2 1/2-x,-y,1/2+z
3 1/2+x,1/2-y,-z
4 -x,1/2+y,1/2-z
_cell_length_a                   17.635(9)
_cell_length_b                   10.247(6)
_cell_length_c                   8.728(4)
_cell_angle_alpha                90
_cell_angle_beta                 90
_cell_angle_gamma                90
_cell_volume                     1577.2
loop_
_atom_site_label
_atom_site_type_symbol
_atom_site_fract_x
_atom_site_fract_y
_atom_site_fract_z
Pb1 Pb 0.24624 -0.00060 0.17012
O1 O 0.20700 0.06600 0.41800
C1 C 0.26400 0.20200 0.11300
C2 C 0.32500 0.23600 0.01400
C3 C 0.33800 0.36300 -0.02900
C4 C 0.29400 0.45400 0.02200
C5 C 0.23500 0.43300 0.12000
C6 C 0.22100 0.30300 0.15500
C7 C 0.34400 -0.11100 0.25600
C8 C 0.33900 -0.24600 0.26400
C9 C 0.40100 -0.32200 0.31300
C10 C 0.46300 -0.25500 0.35800
C11 C 0.46900 -0.12500 0.34900
C12 C 0.40800 -0.05200 0.29400
C13 C 0.13900 -0.10300 0.13100
C14 C 0.07300 -0.07000 0.19800
C15 C 0.00400 -0.13300 0.17600
C16 C 0.00800 -0.24300 0.07700
C17 C 0.07200 -0.27600 0.01500
C18 C 0.14000 -0.21000 0.03900
O1A O 0.29300 -0.06600 -0.08200
Pb1A Pb 0.25376 0.00060 0.67012
loop_
_geom_bond_atom_site_label_1
_geom_bond_atom_site_label_2
_geom_bond_site_symmetry_1
_geom_bond_site_symmetry_2
Pb1 O1 1_555 1_555
O1 Pb1A 1_555 1_555
C1 Pb1 1_555 1_555
C2 C1 1_555 1_555
C3 C2 1_555 1_555
C4 C3 1_555 1_555
C5 C4 1_555 1_555
C6 C1 1_555 1_555
C7 Pb1 1_555 1_555
C8 C7 1_555 1_555
C9 C8 1_555 1_555
C10 C9 1_555 1_555
C11 C10 1_555 1_555
C12 C7 1_555 1_555
C13 Pb1 1_555 1_555
C14 C13 1_555 1_555
C15 C14 1_555 1_555
C16 C15 1_555 1_555
C17 C16 1_555 1_555
C18 C13 1_555 1_555
O1A Pb1 1_555 1_555
C5 C6 1_555 1_555
C11 C12 1_555 1_555
C17 C18 1_555 1_555

#END
