
#######################################################################
#
#                 Cambridge Crystallographic Data Centre
#                                CCDC 
#
#######################################################################
#
# If this CIF has been generated from an entry in the Cambridge 
# Structural Database, then it will include bibliographic, chemical, 
# crystal, experimental, refinement or atomic coordinate data resulting 
# from the CCDC's data processing and validation procedures.
#
#######################################################################

data_IBAGOI
_symmetry_cell_setting           triclinic
_symmetry_space_group_name_H-M   'P -1'
_symmetry_Int_Tables_number      2
_space_group_name_Hall           '-P 1'
loop_
_symmetry_equiv_pos_site_id
_symmetry_equiv_pos_as_xyz
1 x,y,z
2 -x,-y,-z
_cell_length_a                   7.0641(6)
_cell_length_b                   9.8410(8)
_cell_length_c                   10.4885(9)
_cell_angle_alpha                72.079(2)
_cell_angle_beta                 73.176(2)
_cell_angle_gamma                74.6290(10)
_cell_volume                     651.548
loop_
_atom_site_label
_atom_site_type_symbol
_atom_site_fract_x
_atom_site_fract_y
_atom_site_fract_z
Cu1 Cu 0.10427(7) 0.42673(4) 0.14656(4)
O1 O 0.1953(4) 0.2350(3) 0.1123(3)
O2 O 0.4257(4) 0.2709(3) -0.0882(3)
O3 O 0.2224(4) 0.5169(3) -0.0461(3)
O4 O 0.4054(5) 0.3711(3) 0.2497(3)
O5 O 0.4395(5) 0.1411(3) 0.3524(3)
O6 O 0.6602(4) 0.2181(3) 0.1696(3)
N1 N 0.0017(4) 0.6098(3) 0.2110(3)
N2 N -0.0634(4) 0.3462(3) 0.3314(3)
N3 N 0.5009(5) 0.2408(3) 0.2587(3)
C1 C 0.0352(6) 0.7454(4) 0.1388(4)
H1 H 0.1229 0.7575 0.0526
C2 C -0.0585(6) 0.8655(4) 0.1909(4)
H2 H -0.0356 0.9575 0.1392
C3 C -0.1847(6) 0.8490(4) 0.3184(4)
H3 H -0.2498 0.9297 0.3535
C4 C -0.2149(5) 0.7113(4) 0.3950(4)
H4 H -0.2956 0.6974 0.4837
C5 C -0.1223(5) 0.5940(4) 0.3368(3)
C6 C -0.1554(5) 0.4428(4) 0.4075(4)
C7 C -0.2716(5) 0.4044(4) 0.5383(4)
H5 H -0.3309 0.4731 0.5896
C8 C -0.2989(6) 0.2613(4) 0.5927(4)
H6 H -0.3764 0.2322 0.6809
C9 C -0.2078(6) 0.1633(4) 0.5121(4)
H7 H -0.2263 0.0674 0.5451
C10 C -0.0902(6) 0.2077(4) 0.3834(4)
H8 H -0.0274 0.1405 0.3309
C11 C 0.3448(5) 0.1909(4) 0.0195(4)
C12 C 0.4181(6) 0.0290(4) 0.0528(4)
H9 H 0.4642 0.0001 0.1376
H10 H 0.3044 -0.0170 0.0701
H11 H 0.2723 0.4527 -0.0926
H12 H 0.2840 0.5878 -0.0872
O3A O -0.2224(4) 0.4831(3) 0.0461(3)
Cu1A Cu -0.10427(7) 0.57327(4) -0.14656(4)
C12A C 0.5819(6) -0.0290(4) -0.0528(4)
C11A C 0.6552(5) -0.1909(4) -0.0195(4)
H9A H 0.5358 -0.0001 -0.1376
H10A H 0.6956 0.0170 -0.0701
O1A O -0.1953(4) 0.7650(3) -0.1123(3)
O4A O -0.4054(5) 0.6289(3) -0.2497(3)
N1A N -0.0017(4) 0.3902(3) -0.2110(3)
N2A N 0.0634(4) 0.6538(3) -0.3314(3)
O1A_2 O 0.8047(4) -0.2350(3) -0.1123(3)
O2A O 0.5743(4) -0.2709(3) 0.0882(3)
C1A C -0.0352(6) 0.2546(4) -0.1388(4)
C5A C 0.1223(5) 0.4060(4) -0.3368(3)
C6A C 0.1554(5) 0.5572(4) -0.4075(4)
C10A C 0.0902(6) 0.7923(4) -0.3834(4)
N3A N -0.5009(5) 0.7592(3) -0.2587(3)
O5A O -0.4395(5) 0.8589(3) -0.3524(3)
O6A O -0.6602(4) 0.7819(3) -0.1696(3)
C9A C 0.2078(6) 0.8367(4) -0.5121(4)
H8A H 0.0274 0.8595 -0.3309
C7A C 0.2716(5) 0.5956(4) -0.5383(4)
C4A C 0.2149(5) 0.2887(4) -0.3950(4)
H1A H -0.1229 0.2425 -0.0526
C2A C 0.0585(6) 0.1345(4) -0.1909(4)
Cu1A_2 Cu 0.89573(7) -0.42673(4) -0.14656(4)
C8A C 0.2989(6) 0.7387(4) -0.5927(4)
H7A H 0.2263 0.9326 -0.5451
H5A H 0.3309 0.5269 -0.5896
C3A C 0.1847(6) 0.1510(4) -0.3184(4)
H4A H 0.2956 0.3026 -0.4837
H2A H 0.0356 0.0425 -0.1392
H11A H -0.2723 0.5473 0.0926
H12A H -0.2840 0.4122 0.0872
H6A H 0.3764 0.7678 -0.6809
H3A H 0.2498 0.0703 -0.3535
loop_
_geom_bond_atom_site_label_1
_geom_bond_atom_site_label_2
_geom_bond_site_symmetry_1
_geom_bond_site_symmetry_2
Cu1 O1 1_555 1_555
O1 C11 1_555 1_555
O2 C11 1_555 1_555
O3 Cu1 1_555 1_555
O4 Cu1 1_555 1_555
O5 N3 1_555 1_555
O6 N3 1_555 1_555
N1 Cu1 1_555 1_555
N2 Cu1 1_555 1_555
N3 O4 1_555 1_555
C1 N1 1_555 1_555
H1 C1 1_555 1_555
C2 C1 1_555 1_555
H2 C2 1_555 1_555
C3 C2 1_555 1_555
H3 C3 1_555 1_555
C4 C3 1_555 1_555
H4 C4 1_555 1_555
C5 N1 1_555 1_555
C6 N2 1_555 1_555
C7 C6 1_555 1_555
H5 C7 1_555 1_555
C8 C7 1_555 1_555
H6 C8 1_555 1_555
C9 C8 1_555 1_555
H7 C9 1_555 1_555
C10 N2 1_555 1_555
H8 C10 1_555 1_555
C11 C12 1_555 1_555
C12 H9 1_555 1_555
H10 C12 1_555 1_555
H11 O3 1_555 1_555
H12 O3 1_555 1_555
O3A Cu1 1_555 1_555
Cu1A O3 1_555 1_555
C12A C12 1_555 1_555
C11A C12A 1_555 1_555
H9A C12A 1_555 1_555
H10A C12A 1_555 1_555
O1A Cu1A 1_555 1_555
O4A Cu1A 1_555 1_555
N1A Cu1A 1_555 1_555
N2A Cu1A 1_555 1_555
O1A_2 C11A 1_555 1_555
O2A C11A 1_555 1_555
C1A N1A 1_555 1_555
C5A N1A 1_555 1_555
C6A N2A 1_555 1_555
C10A N2A 1_555 1_555
N3A O4A 1_555 1_555
O5A N3A 1_555 1_555
O6A N3A 1_555 1_555
C9A C10A 1_555 1_555
H8A C10A 1_555 1_555
C7A C6A 1_555 1_555
C4A C5A 1_555 1_555
H1A C1A 1_555 1_555
C2A C1A 1_555 1_555
Cu1A_2 O1A_2 1_555 1_555
C8A C9A 1_555 1_555
H7A C9A 1_555 1_555
H5A C7A 1_555 1_555
C3A C4A 1_555 1_555
H4A C4A 1_555 1_555
H2A C2A 1_555 1_555
H11A O3A 1_555 1_555
H12A O3A 1_555 1_555
H6A C8A 1_555 1_555
H3A C3A 1_555 1_555
C4 C5 1_555 1_555
C5 C6 1_555 1_555
C9 C10 1_555 1_555
O3A Cu1A 1_555 1_555
C5A C6A 1_555 1_555
C7A C8A 1_555 1_555
C2A C3A 1_555 1_555

#END
