
#######################################################################
#
#                 Cambridge Crystallographic Data Centre
#                                CCDC 
#
#######################################################################
#
# If this CIF has been generated from an entry in the Cambridge 
# Structural Database, then it will include bibliographic, chemical, 
# crystal, experimental, refinement or atomic coordinate data resulting 
# from the CCDC's data processing and validation procedures.
#
#######################################################################

data_IBAHUQ
_symmetry_cell_setting           monoclinic
_symmetry_space_group_name_H-M   'P 21/c'
_symmetry_Int_Tables_number      14
_space_group_name_Hall           '-P 2ybc'
loop_
_symmetry_equiv_pos_site_id
_symmetry_equiv_pos_as_xyz
1 x,y,z
2 -x,1/2+y,1/2-z
3 -x,-y,-z
4 x,1/2-y,1/2+z
_cell_length_a                   9.3725(15)
_cell_length_b                   9.1324(15)
_cell_length_c                   19.663(3)
_cell_angle_alpha                90
_cell_angle_beta                 100.290(5)
_cell_angle_gamma                90
_cell_volume                     1655.95
loop_
_atom_site_label
_atom_site_type_symbol
_atom_site_fract_x
_atom_site_fract_y
_atom_site_fract_z
C1 C -0.1008(3) 0.1261(3) 0.40939(14)
C2 C -0.2120(3) 0.2001(4) 0.43534(14)
H1 H -0.2172 0.3017 0.4327
C3 C -0.3122(4) 0.1245(5) 0.4644(2)
H2 H -0.3847 0.1759 0.4809
C4 C -0.3079(4) -0.0247(5) 0.46975(18)
H3 H -0.3783 -0.0744 0.4886
C5 C -0.1995(4) -0.1003(4) 0.44718(17)
H4 H -0.1949 -0.2015 0.4522
C6 C -0.0946(3) -0.0277(3) 0.41652(13)
C7 C 0.0190(4) -0.1145(3) 0.39599(16)
H5 H 0.0207 -0.2140 0.4063
C8 C 0.2304(3) -0.1642(3) 0.34811(16)
H6 H 0.1991 -0.2653 0.3489
H7 H 0.3191 -0.1527 0.3817
C9 C 0.2562(3) -0.1244(2) 0.27740(17)
H8 H 0.3421 -0.1743 0.2682
H9 H 0.1743 -0.1557 0.2431
C10 C 0.2564(3) 0.0852(3) 0.19947(15)
H10 H 0.2481 0.1911 0.1980
H11 H 0.1670 0.0448 0.1739
C11 C 0.3809(3) 0.0393(4) 0.16514(17)
H12 H 0.3850 -0.0668 0.1636
H13 H 0.3642 0.0751 0.1179
C12 C 0.5420(3) 0.0394(3) 0.26984(19)
H14 H 0.6339 0.0767 0.2942
H15 H 0.5480 -0.0666 0.2689
C13 C 0.4231(3) 0.0843(3) 0.30730(16)
H16 H 0.4429 0.0438 0.3536
H17 H 0.4234 0.1902 0.3115
C14 C 0.1210(2) 0.4394(2) 0.28058(13)
Cu1 Cu 0.12345(3) 0.12834(3) 0.325659(15)
N1 N 0.1173(2) -0.0658(2) 0.36492(11)
N2 N 0.2755(2) 0.0357(2) 0.27237(11)
N3 N 0.1608(3) 0.3235(2) 0.29520(15)
O1 O -0.0086(2) 0.20436(19) 0.38196(10)
O2 O 0.5160(2) 0.0942(3) 0.20087(15)
O3 O 0.0827(2) 0.56123(18) 0.26560(11)
Cu1A Cu -0.12345(3) 0.62834(3) 0.174341(15)
O3A O -0.0827(2) 0.06123(18) 0.23440(11)
O4 O 0.0772(5) 0.4703(4) 0.4467(2)
O5 O 0.3624(8) 0.4692(14) 0.4553(4)
loop_
_geom_bond_atom_site_label_1
_geom_bond_atom_site_label_2
_geom_bond_site_symmetry_1
_geom_bond_site_symmetry_2
C1 C2 1_555 1_555
C2 H1 1_555 1_555
C3 C2 1_555 1_555
H2 C3 1_555 1_555
C4 C3 1_555 1_555
H3 C4 1_555 1_555
C5 C4 1_555 1_555
H4 C5 1_555 1_555
C6 C1 1_555 1_555
C7 C6 1_555 1_555
H5 C7 1_555 1_555
C8 H6 1_555 1_555
H7 C8 1_555 1_555
C9 C8 1_555 1_555
H8 C9 1_555 1_555
H9 C9 1_555 1_555
C10 H10 1_555 1_555
H11 C10 1_555 1_555
C11 C10 1_555 1_555
H12 C11 1_555 1_555
H13 C11 1_555 1_555
C12 H14 1_555 1_555
H15 C12 1_555 1_555
C13 C12 1_555 1_555
H16 C13 1_555 1_555
H17 C13 1_555 1_555
C14 N3 1_555 1_555
Cu1 N1 1_555 1_555
N1 C7 1_555 1_555
N2 C9 1_555 1_555
N3 Cu1 1_555 1_555
O1 C1 1_555 1_555
O2 C11 1_555 1_555
O3 C14 1_555 1_555
Cu1A O3 1_555 1_555
O3A Cu1 1_555 1_555
C5 C6 1_555 1_555
C8 N1 1_555 1_555
C10 N2 1_555 1_555
C12 O2 1_555 1_555
C13 N2 1_555 1_555
Cu1 N2 1_555 1_555
Cu1 O1 1_555 1_555

#END
