
#######################################################################
#
#                 Cambridge Crystallographic Data Centre
#                                CCDC 
#
#######################################################################
#
# If this CIF has been generated from an entry in the Cambridge 
# Structural Database, then it will include bibliographic, chemical, 
# crystal, experimental, refinement or atomic coordinate data resulting 
# from the CCDC's data processing and validation procedures.
#
#######################################################################

data_IBAKIG
_symmetry_cell_setting           monoclinic
_symmetry_space_group_name_H-M   'C 2/c'
_symmetry_Int_Tables_number      15
_space_group_name_Hall           '-C 2yn'
loop_
_symmetry_equiv_pos_site_id
_symmetry_equiv_pos_as_xyz
1 x,y,z
2 1/2+x,1/2+y,z
3 x,-y,1/2+z
4 1/2+x,1/2-y,1/2+z
5 -x,-y,-z
6 1/2-x,1/2-y,-z
7 -x,y,1/2-z
8 1/2-x,1/2+y,1/2-z
_cell_length_a                   19.1425(6)
_cell_length_b                   13.6967(6)
_cell_length_c                   15.6090(7)
_cell_angle_alpha                90
_cell_angle_beta                 122.534(2)
_cell_angle_gamma                90
_cell_volume                     3450.28
loop_
_atom_site_label
_atom_site_type_symbol
_atom_site_fract_x
_atom_site_fract_y
_atom_site_fract_z
Ni1 Ni 0.5000 0.30374(5) 1.2500
N1 N 0.5000 0.1461(4) 1.2500
N2 N 0.5000 -0.5432(4) 1.2500
O1 O 0.53995(17) 0.2996(2) 1.1530(2)
O2 O 0.43695(19) 0.2251(3) 1.0170(2)
O3 O 0.7442(2) 0.2810(3) 1.3237(3)
O4 O 0.8533(2) 0.3534(3) 1.3398(3)
O5 O 0.37733(19) 0.3065(2) 1.1289(2)
C1 C 0.5640(3) 0.0947(4) 1.2616(4)
H1 H 0.6093 0.1282 1.2692
C2 C 0.5655(5) -0.0058(4) 1.2626(5)
H2 H 0.6118 -0.0382 1.2719
C3 C 0.5000 -0.0592(6) 1.2500
C4 C 0.4666(8) -0.1680(10) 1.2158(11)
C5 C 0.4670(11) -0.2315(10) 1.2135(11)
C6 C 0.5000 -0.3397(6) 1.2500
C7 C 0.5582(5) -0.3912(4) 1.2437(5)
H3 H 0.5987 -0.3585 1.2392
C8 C 0.5566(3) -0.4925(4) 1.2441(4)
H4 H 0.5969 -0.5264 1.2401
C9 C 0.5120(3) 0.2470(3) 1.0752(3)
C10 C 0.5758(3) 0.2027(3) 1.0587(3)
C11 C 0.6493(3) 0.2516(3) 1.0860(3)
C12 C 0.7090(3) 0.2023(4) 1.0787(4)
H5 H 0.7581 0.2341 1.0973
C13 C 0.6974(3) 0.1065(4) 1.0441(4)
H6 H 0.7384 0.0745 1.0399
C14 C 0.6251(3) 0.0599(4) 1.0165(4)
H7 H 0.6166 -0.0042 0.9932
C15 C 0.5640(3) 0.1076(3) 1.0229(4)
H8 H 0.5148 0.0755 1.0031
C16 C 0.7736(3) 0.3383(3) 1.2927(3)
C17 C 0.7226(3) 0.3989(3) 1.1995(3)
C18 C 0.6592(3) 0.3587(3) 1.1072(3)
C19 C 0.6083(3) 0.4212(4) 1.0287(4)
H9 H 0.5655 0.3952 0.9677
C20 C 0.6190(4) 0.5206(4) 1.0377(4)
H10 H 0.5831 0.5611 0.9837
C21 C 0.6830(4) 0.5604(4) 1.1270(4)
H11 H 0.6914 0.6276 1.1331
C22 C 0.7343(3) 0.4996(4) 1.2070(4)
H12 H 0.7775 0.5264 1.2671
C2F C 0.4345(5) -0.0058(4) 1.2374(5)
C1F C 0.4360(3) 0.0947(4) 1.2384(4)
H1F H 0.3907 0.1282 1.2308
H2F H 0.3882 -0.0382 1.2281
C4F C 0.5334(8) -0.1680(10) 1.2842(11)
C5F C 0.5330(11) -0.2315(10) 1.2865(11)
C8F C 0.4434(3) -0.4925(4) 1.2559(4)
C7F C 0.4418(5) -0.3912(4) 1.2563(5)
H3F H 0.4013 -0.3585 1.2608
H4F H 0.4031 -0.5264 1.2599
O1F O 0.46005(17) 0.2996(2) 1.3470(2)
O2F O 0.56305(19) 0.2251(3) 1.4830(2)
O3F O 0.2558(2) 0.2810(3) 1.1763(3)
O4F O 0.1467(2) 0.3534(3) 1.1602(3)
C9F C 0.4880(3) 0.2470(3) 1.4248(3)
C10F C 0.4242(3) 0.2027(3) 1.4413(3)
C11F C 0.3507(3) 0.2516(3) 1.4140(3)
C12F C 0.2910(3) 0.2023(4) 1.4213(4)
H5F H 0.2419 0.2341 1.4027
C13F C 0.3026(3) 0.1065(4) 1.4559(4)
H6F H 0.2616 0.0745 1.4601
C14F C 0.3749(3) 0.0599(4) 1.4835(4)
H7F H 0.3834 -0.0042 1.5068
C15F C 0.4360(3) 0.1076(3) 1.4771(4)
H8F H 0.4852 0.0755 1.4969
C16F C 0.2264(3) 0.3383(3) 1.2073(3)
C17F C 0.2774(3) 0.3989(3) 1.3005(3)
C18F C 0.3408(3) 0.3587(3) 1.3928(3)
C19F C 0.3917(3) 0.4212(4) 1.4713(4)
H9F H 0.4345 0.3952 1.5323
C20F C 0.3810(4) 0.5206(4) 1.4623(4)
H10F H 0.4169 0.5611 1.5163
C21F C 0.3170(4) 0.5604(4) 1.3730(4)
H11F H 0.3086 0.6276 1.3669
C22F C 0.2657(3) 0.4996(4) 1.2930(4)
H12F H 0.2225 0.5264 1.2329
O5F O 0.62267(19) 0.3065(2) 1.3711(2)
N2_2 N 0.5000 0.4568(4) 1.2500
Ni1_2 Ni 0.5000 -0.69626(5) 1.2500
loop_
_geom_bond_atom_site_label_1
_geom_bond_atom_site_label_2
_geom_bond_site_symmetry_1
_geom_bond_site_symmetry_2
Ni1 N1 1_555 1_555
N1 C1 1_555 1_555
N2 C8 1_555 1_555
O1 Ni1 1_555 1_555
O2 C9 1_555 1_555
O3 C16 1_555 1_555
O4 C16 1_555 1_555
O5 Ni1 1_555 1_555
C1 H1 1_555 1_555
C2 C1 1_555 1_555
H2 C2 1_555 1_555
C3 C2 1_555 1_555
C4 C3 1_555 1_555
C5 C4 1_555 1_555
C6 C5 1_555 1_555
C7 C6 1_555 1_555
H3 C7 1_555 1_555
C8 C7 1_555 1_555
H4 C8 1_555 1_555
C9 O1 1_555 1_555
C10 C9 1_555 1_555
C11 C10 1_555 1_555
C12 C11 1_555 1_555
H5 C12 1_555 1_555
C13 C12 1_555 1_555
H6 C13 1_555 1_555
C14 C13 1_555 1_555
H7 C14 1_555 1_555
C15 C10 1_555 1_555
H8 C15 1_555 1_555
C16 C17 1_555 1_555
C17 C18 1_555 1_555
C18 C11 1_555 1_555
C19 C18 1_555 1_555
H9 C19 1_555 1_555
C20 C19 1_555 1_555
H10 C20 1_555 1_555
C21 C20 1_555 1_555
H11 C21 1_555 1_555
C22 C17 1_555 1_555
H12 C22 1_555 1_555
C2F C3 1_555 1_555
C1F N1 1_555 1_555
H1F C1F 1_555 1_555
H2F C2F 1_555 1_555
C4F C3 1_555 1_555
C5F C4 1_555 1_555
C8F N2 1_555 1_555
C7F C6 1_555 1_555
H3F C7F 1_555 1_555
H4F C8F 1_555 1_555
O1F Ni1 1_555 1_555
O2F C9F 1_555 1_555
O3F C16F 1_555 1_555
O4F C16F 1_555 1_555
C9F O1F 1_555 1_555
C10F C9F 1_555 1_555
C11F C10F 1_555 1_555
C12F C11F 1_555 1_555
H5F C12F 1_555 1_555
C13F C12F 1_555 1_555
H6F C13F 1_555 1_555
C14F C13F 1_555 1_555
H7F C14F 1_555 1_555
C15F C10F 1_555 1_555
H8F C15F 1_555 1_555
C16F C17F 1_555 1_555
C17F C18F 1_555 1_555
C18F C11F 1_555 1_555
C19F C18F 1_555 1_555
H9F C19F 1_555 1_555
C20F C19F 1_555 1_555
H10F C20F 1_555 1_555
C21F C20F 1_555 1_555
H11F C21F 1_555 1_555
C22F C17F 1_555 1_555
H12F C22F 1_555 1_555
O5F Ni1 1_555 1_555
N2_2 Ni1 1_555 1_555
Ni1_2 N2 1_555 1_555
C4 C4F 1_555 1_555
C5 C4F 1_555 1_555
C5 C5F 1_555 1_555
C6 C5F 1_555 1_555
C14 C15 1_555 1_555
C21 C22 1_555 1_555
C2F C1F 1_555 1_555
C4F C5F 1_555 1_555
C8F C7F 1_555 1_555
C14F C15F 1_555 1_555
C21F C22F 1_555 1_555

#END
