
#######################################################################
#
#                 Cambridge Crystallographic Data Centre
#                                CCDC 
#
#######################################################################
#
# If this CIF has been generated from an entry in the Cambridge 
# Structural Database, then it will include bibliographic, chemical, 
# crystal, experimental, refinement or atomic coordinate data resulting 
# from the CCDC's data processing and validation procedures.
#
#######################################################################

data_IBAKIH
_symmetry_cell_setting           monoclinic
_symmetry_space_group_name_H-M   'P 21'
_symmetry_Int_Tables_number      4
_space_group_name_Hall           'P 2yb'
loop_
_symmetry_equiv_pos_site_id
_symmetry_equiv_pos_as_xyz
1 x,y,z
2 -x,1/2+y,-z
_cell_length_a                   9.478(4)
_cell_length_b                   20.230(9)
_cell_length_c                   10.652(5)
_cell_angle_alpha                90
_cell_angle_beta                 96.111(9)
_cell_angle_gamma                90
_cell_volume                     2030.81
loop_
_atom_site_label
_atom_site_type_symbol
_atom_site_fract_x
_atom_site_fract_y
_atom_site_fract_z
As1 As 0.95702(4) 0.667170(15) 0.41458(3)
As2 As 0.98817(4) 0.423612(15) 0.66055(3)
Mn1 Mn 1.10657(5) 0.57940(2) 0.66028(4)
Mn2 Mn 0.85756(5) 0.51071(2) 0.40385(4)
Mn3 Mn 1.11434(6) 0.79448(3) 0.54648(5)
S1 S 1.03094(10) 0.75344(4) 0.32303(7)
S2 S 0.75517(10) 0.63211(5) 0.33773(8)
S3 S 0.97075(10) 0.69625(4) 0.61341(7)
S4 S 1.09691(9) 0.58143(4) 0.41208(7)
S5 S 1.20028(10) 0.46452(5) 0.72080(8)
S6 S 0.86424(8) 0.51952(4) 0.64302(6)
S7 S 0.99686(9) 0.40278(4) 0.45099(7)
N1 N 0.8172(3) 0.48342(14) 0.1965(2)
N2 N 0.6262(3) 0.48165(13) 0.3681(2)
N3 N 1.2376(3) 0.79765(15) 0.7389(3)
N4 N 1.3415(3) 0.79793(16) 0.5125(3)
N5 N 1.1412(3) 0.61511(14) 0.8623(2)
N6 N 1.3328(3) 0.61871(13) 0.6911(2)
C1 C 0.9135(4) 0.4814(2) 0.1150(3)
H1 H 1.0090 0.4851 0.1450
C2 C 0.8756(5) 0.4738(2) -0.0143(3)
H2 H 0.9457 0.4716 -0.0689
C3 C 0.7385(4) 0.4696(2) -0.0603(3)
H3 H 0.7132 0.4656 -0.1467
C4 C 0.6348(4) 0.47133(19) 0.0223(3)
C5 C 0.4849(4) 0.46692(19) -0.0154(3)
H4 H 0.4533 0.4633 -0.1008
C6 C 0.3890(4) 0.4679(2) 0.0686(3)
H5 H 0.2929 0.4660 0.0400
C7 C 0.4317(4) 0.47172(18) 0.2010(3)
C8 C 0.3366(4) 0.4689(2) 0.2939(4)
H6 H 0.2395 0.4651 0.2709
C9 C 0.3887(4) 0.4718(2) 0.4174(3)
H7 H 0.3270 0.4692 0.4796
C10 C 1.1875(5) 0.7979(2) 0.8482(3)
H8 H 1.0897 0.7957 0.8493
C11 C 1.2726(5) 0.8012(2) 0.9648(4)
H9 H 1.2331 0.8023 1.0410
C12 C 1.4179(5) 0.8026(2) 0.9603(4)
H10 H 1.4775 0.8034 1.0355
C13 C 1.4766(4) 0.80286(19) 0.8484(4)
C14 C 1.6258(5) 0.8050(2) 0.8355(5)
H11 H 1.6894 0.8054 0.9082
C15 C 1.6760(5) 0.8064(2) 0.7260(5)
H12 H 1.7736 0.8096 0.7239
C16 C 1.5870(4) 0.8033(2) 0.6096(5)
C17 C 1.6316(5) 0.8041(3) 0.4931(5)
H13 H 1.7283 0.8064 0.4853
C18 C 1.5385(5) 0.8015(3) 0.3876(5)
H14 H 1.5698 0.8019 0.3078
C19 C 1.0443(4) 0.61827(19) 0.9429(3)
H15 H 0.9493 0.6124 0.9130
C20 C 1.0798(5) 0.6300(2) 1.0702(3)
H16 H 1.0090 0.6332 1.1239
C21 C 1.2168(5) 0.6369(2) 1.1165(3)
H17 H 1.2411 0.6428 1.2027
C22 C 1.3216(4) 0.63508(17) 1.0348(3)
C23 C 1.4706(4) 0.64414(19) 1.0740(3)
H18 H 1.5001 0.6508 1.1591
C24 C 1.5668(4) 0.64329(19) 0.9924(3)
H19 H 1.6622 0.6477 1.0219
C25 C 1.5260(4) 0.63565(19) 0.8579(3)
C26 C 1.6189(4) 0.6373(2) 0.7650(4)
H20 H 1.7157 0.6422 0.7886
C27 C 1.5712(4) 0.6320(2) 0.6414(4)
H21 H 1.6336 0.6347 0.5800
C28 C 0.5318(4) 0.47859(19) 0.4514(3)
H22 H 0.5641 0.4812 0.5368
C29 C 0.5767(3) 0.47748(16) 0.2422(3)
C30 C 0.6800(3) 0.47799(16) 0.1532(3)
C31 C 1.3932(5) 0.7982(3) 0.4025(4)
H23 H 1.3294 0.7960 0.3300
C32 C 1.4370(4) 0.80081(19) 0.6171(4)
C33 C 1.3807(4) 0.80125(18) 0.7365(4)
C34 C 1.4265(4) 0.62252(17) 0.6078(3)
H24 H 1.3942 0.6187 0.5226
C35 C 1.3830(3) 0.62579(15) 0.8168(3)
C36 C 1.2796(4) 0.62503(16) 0.9059(3)
Mn3A Mn 0.88566(6) 0.29448(3) 0.45352(5)
S7A S 1.00314(9) 0.90278(4) 0.54901(7)
O1 O 0.7455(4) 0.81683(19) 0.1427(3)
H25 H 0.7774(19) 0.7824(4) 0.1824(13)
H26 H 0.8160(9) 0.8291(9) 0.1038(13)
loop_
_geom_bond_atom_site_label_1
_geom_bond_atom_site_label_2
_geom_bond_site_symmetry_1
_geom_bond_site_symmetry_2
As1 S1 1_555 1_555
As2 S5 1_555 1_555
Mn1 S3 1_555 1_555
Mn2 S2 1_555 1_555
Mn3 S1 1_555 1_555
S2 As1 1_555 1_555
S3 As1 1_555 1_555
S4 As1 1_555 1_555
S5 Mn1 1_555 1_555
S6 As2 1_555 1_555
S7 As2 1_555 1_555
N1 Mn2 1_555 1_555
N2 Mn2 1_555 1_555
N3 Mn3 1_555 1_555
N4 Mn3 1_555 1_555
N5 Mn1 1_555 1_555
N6 Mn1 1_555 1_555
C1 N1 1_555 1_555
H1 C1 1_555 1_555
C2 C1 1_555 1_555
H2 C2 1_555 1_555
C3 C2 1_555 1_555
H3 C3 1_555 1_555
C4 C3 1_555 1_555
C5 C4 1_555 1_555
H4 C5 1_555 1_555
C6 C5 1_555 1_555
H5 C6 1_555 1_555
C7 C6 1_555 1_555
C8 C7 1_555 1_555
H6 C8 1_555 1_555
C9 C8 1_555 1_555
H7 C9 1_555 1_555
C10 N3 1_555 1_555
H8 C10 1_555 1_555
C11 C10 1_555 1_555
H9 C11 1_555 1_555
C12 C11 1_555 1_555
H10 C12 1_555 1_555
C13 C12 1_555 1_555
C14 C13 1_555 1_555
H11 C14 1_555 1_555
C15 C14 1_555 1_555
H12 C15 1_555 1_555
C16 C15 1_555 1_555
C17 C16 1_555 1_555
H13 C17 1_555 1_555
C18 C17 1_555 1_555
H14 C18 1_555 1_555
C19 N5 1_555 1_555
H15 C19 1_555 1_555
C20 C19 1_555 1_555
H16 C20 1_555 1_555
C21 C20 1_555 1_555
H17 C21 1_555 1_555
C22 C21 1_555 1_555
C23 C22 1_555 1_555
H18 C23 1_555 1_555
C24 C23 1_555 1_555
H19 C24 1_555 1_555
C25 C24 1_555 1_555
C26 C25 1_555 1_555
H20 C26 1_555 1_555
C27 C26 1_555 1_555
H21 C27 1_555 1_555
C28 N2 1_555 1_555
H22 C28 1_555 1_555
C29 N2 1_555 1_555
C30 N1 1_555 1_555
C31 N4 1_555 1_555
H23 C31 1_555 1_555
C32 N4 1_555 1_555
C33 N3 1_555 1_555
C34 N6 1_555 1_555
H24 C34 1_555 1_555
C35 N6 1_555 1_555
C36 N5 1_555 1_555
O1 H25 1_555 1_555
H26 O1 1_555 1_555
Mn3A S7 1_555 1_555
S7A Mn3 1_555 1_555
Mn1 S4 1_555 1_555
Mn1 S6 1_555 1_555
Mn2 S4 1_555 1_555
Mn2 S6 1_555 1_555
Mn2 S7 1_555 1_555
Mn3 S3 1_555 1_555
C4 C30 1_555 1_555
C7 C29 1_555 1_555
C9 C28 1_555 1_555
C13 C33 1_555 1_555
C16 C32 1_555 1_555
C18 C31 1_555 1_555
C22 C36 1_555 1_555
C25 C35 1_555 1_555
C27 C34 1_555 1_555
C29 C30 1_555 1_555
C32 C33 1_555 1_555
C35 C36 1_555 1_555

#END
