
#######################################################################
#
#                 Cambridge Crystallographic Data Centre
#                                CCDC 
#
#######################################################################
#
# If this CIF has been generated from an entry in the Cambridge 
# Structural Database, then it will include bibliographic, chemical, 
# crystal, experimental, refinement or atomic coordinate data resulting 
# from the CCDC's data processing and validation procedures.
#
#######################################################################

data_IBAKEC
_symmetry_cell_setting           monoclinic
_symmetry_space_group_name_H-M   'C 2/c'
_symmetry_Int_Tables_number      15
_space_group_name_Hall           '-C 2yn'
loop_
_symmetry_equiv_pos_site_id
_symmetry_equiv_pos_as_xyz
1 x,y,z
2 1/2+x,1/2+y,z
3 x,-y,1/2+z
4 1/2+x,1/2-y,1/2+z
5 -x,-y,-z
6 1/2-x,1/2-y,-z
7 -x,y,1/2-z
8 1/2-x,1/2+y,1/2-z
_cell_length_a                   19.2129(13)
_cell_length_b                   13.7929(10)
_cell_length_c                   15.4638(11)
_cell_angle_alpha                90
_cell_angle_beta                 122.447(2)
_cell_angle_gamma                90
_cell_volume                     3458.2
loop_
_atom_site_label
_atom_site_type_symbol
_atom_site_fract_x
_atom_site_fract_y
_atom_site_fract_z
Co1 Co 0.5000 0.30791(6) 0.7500
N1 N 0.5000 0.1481(4) 0.7500
N2 N 0.5000 -0.5360(4) 0.7500
O1 O 0.53644(18) 0.3035(2) 0.6479(2)
O2 O 0.4341(2) 0.2277(3) 0.5132(3)
O3 O 0.7425(2) 0.2774(3) 0.8195(3)
O4 O 0.8506(2) 0.3529(3) 0.8386(3)
O5 O 0.6253(2) 0.3093(3) 0.8718(3)
C1 C 0.4383(4) 0.0964(4) 0.7424(4)
C2 C 0.4376(5) -0.0032(5) 0.7427(5)
C3 C 0.5000 -0.0570(6) 0.7500
C4 C 0.5265(7) -0.1628(8) 0.7550(12)
C5 C 0.4743(7) -0.2269(8) 0.7512(10)
C6 C 0.5000 -0.3317(6) 0.7500
C7 C 0.5576(6) -0.3854(5) 0.7470(6)
C8 C 0.5564(4) -0.4845(4) 0.7461(5)
C9 C 0.5092(3) 0.2497(3) 0.5713(4)
C10 C 0.5721(3) 0.2053(3) 0.5531(3)
C11 C 0.6458(3) 0.2541(4) 0.5819(3)
C12 C 0.7049(3) 0.2039(4) 0.5740(4)
C13 C 0.6929(4) 0.1102(5) 0.5394(4)
C14 C 0.6201(4) 0.0635(4) 0.5098(4)
C15 C 0.5605(3) 0.1114(4) 0.5173(4)
C16 C 0.7713(3) 0.3361(4) 0.7900(4)
C17 C 0.7208(3) 0.3977(3) 0.6980(4)
C18 C 0.6565(3) 0.3594(3) 0.6050(4)
C19 C 0.6065(4) 0.4231(4) 0.5270(5)
C20 C 0.6175(4) 0.5213(4) 0.5376(5)
C21 C 0.6822(4) 0.5584(4) 0.6277(5)
C22 C 0.7335(3) 0.4974(4) 0.7072(5)
H1 H 0.396(3) 0.132(4) 0.733(4)
H2 H 0.399(3) -0.028(4) 0.733(4)
H3 H 0.589(3) -0.366(4) 0.742(4)
H4 H 0.591(3) -0.520(4) 0.748(4)
H5 H 0.753(3) 0.239(4) 0.594(4)
H6 H 0.734(3) 0.077(4) 0.537(4)
H7 H 0.608(3) -0.001(4) 0.480(4)
H8 H 0.508(3) 0.082(3) 0.495(3)
H9 H 0.565(3) 0.398(4) 0.467(4)
H10 H 0.579(4) 0.560(4) 0.480(5)
H11 H 0.693(3) 0.628(4) 0.641(4)
H12 H 0.772(3) 0.523(3) 0.769(4)
H13 H 0.660(5) 0.291(5) 0.862(6)
H14 H 0.621(4) 0.276(4) 0.913(5)
C2F C 0.5624(5) -0.0032(5) 0.7573(5)
C1F C 0.5617(4) 0.0964(4) 0.7576(4)
H1F H 0.604(3) 0.132(4) 0.767(4)
H2F H 0.601(3) -0.028(4) 0.767(4)
C4F C 0.4735(7) -0.1628(8) 0.7450(12)
C5F C 0.5257(7) -0.2269(8) 0.7488(10)
C8F C 0.4436(4) -0.4845(4) 0.7539(5)
C7F C 0.4424(6) -0.3854(5) 0.7530(6)
H3F H 0.411(3) -0.366(4) 0.758(4)
H4F H 0.409(3) -0.520(4) 0.752(4)
O1F O 0.46356(18) 0.3035(2) 0.8521(2)
O2F O 0.5659(2) 0.2277(3) 0.9868(3)
O3F O 0.2575(2) 0.2774(3) 0.6805(3)
O4F O 0.1494(2) 0.3529(3) 0.6614(3)
C9F C 0.4908(3) 0.2497(3) 0.9287(4)
C10F C 0.4279(3) 0.2053(3) 0.9469(3)
C11F C 0.3542(3) 0.2541(4) 0.9181(3)
C12F C 0.2951(3) 0.2039(4) 0.9260(4)
C13F C 0.3071(4) 0.1102(5) 0.9606(4)
C14F C 0.3799(4) 0.0635(4) 0.9902(4)
C15F C 0.4395(3) 0.1114(4) 0.9827(4)
C16F C 0.2287(3) 0.3361(4) 0.7100(4)
C17F C 0.2792(3) 0.3977(3) 0.8020(4)
C18F C 0.3435(3) 0.3594(3) 0.8950(4)
C19F C 0.3935(4) 0.4231(4) 0.9730(5)
C20F C 0.3825(4) 0.5213(4) 0.9624(5)
C21F C 0.3178(4) 0.5584(4) 0.8723(5)
C22F C 0.2665(3) 0.4974(4) 0.7928(5)
H5F H 0.247(3) 0.239(4) 0.906(4)
H6F H 0.266(3) 0.077(4) 0.963(4)
H7F H 0.392(3) -0.001(4) 1.020(4)
H8F H 0.492(3) 0.082(3) 1.005(3)
H9F H 0.435(3) 0.398(4) 1.033(4)
H10F H 0.421(4) 0.560(4) 1.020(5)
H11F H 0.307(3) 0.628(4) 0.859(4)
H12F H 0.228(3) 0.523(3) 0.731(4)
O5F O 0.3747(2) 0.3093(3) 0.6282(3)
H13F H 0.340(5) 0.291(5) 0.638(6)
H14F H 0.379(4) 0.276(4) 0.587(5)
N2_2 N 0.5000 0.4640(4) 0.7500
Co1_2 Co 0.5000 -0.69209(6) 0.7500
loop_
_geom_bond_atom_site_label_1
_geom_bond_atom_site_label_2
_geom_bond_site_symmetry_1
_geom_bond_site_symmetry_2
Co1 N1 1_555 1_555
N1 C1 1_555 1_555
N2 C8 1_555 1_555
O1 Co1 1_555 1_555
O2 C9 1_555 1_555
O3 C16 1_555 1_555
O4 C16 1_555 1_555
O5 Co1 1_555 1_555
C1 C2 1_555 1_555
C2 C3 1_555 1_555
C3 C4 1_555 1_555
C4 C5 1_555 1_555
C5 C6 1_555 1_555
C6 C7 1_555 1_555
C7 C8 1_555 1_555
C8 H4 1_555 1_555
C9 O1 1_555 1_555
C10 C9 1_555 1_555
C11 C10 1_555 1_555
C12 C11 1_555 1_555
C13 C12 1_555 1_555
C14 C13 1_555 1_555
C15 C10 1_555 1_555
C16 C17 1_555 1_555
C17 C18 1_555 1_555
C18 C11 1_555 1_555
C19 C18 1_555 1_555
C20 C19 1_555 1_555
C21 C20 1_555 1_555
C22 C17 1_555 1_555
H1 C1 1_555 1_555
H2 C2 1_555 1_555
H3 C7 1_555 1_555
H5 C12 1_555 1_555
H6 C13 1_555 1_555
H7 C14 1_555 1_555
H8 C15 1_555 1_555
H9 C19 1_555 1_555
H10 C20 1_555 1_555
H11 C21 1_555 1_555
H12 C22 1_555 1_555
H13 O5 1_555 1_555
H14 O5 1_555 1_555
C2F C3 1_555 1_555
C1F N1 1_555 1_555
H1F C1F 1_555 1_555
H2F C2F 1_555 1_555
C4F C3 1_555 1_555
C5F C4 1_555 1_555
C8F N2 1_555 1_555
C7F C6 1_555 1_555
H3F C7F 1_555 1_555
H4F C8F 1_555 1_555
O1F Co1 1_555 1_555
O2F C9F 1_555 1_555
O3F C16F 1_555 1_555
O4F C16F 1_555 1_555
C9F O1F 1_555 1_555
C10F C9F 1_555 1_555
C11F C10F 1_555 1_555
C12F C11F 1_555 1_555
C13F C12F 1_555 1_555
C14F C13F 1_555 1_555
C15F C10F 1_555 1_555
C16F C17F 1_555 1_555
C17F C18F 1_555 1_555
C18F C11F 1_555 1_555
C19F C18F 1_555 1_555
C20F C19F 1_555 1_555
C21F C20F 1_555 1_555
C22F C17F 1_555 1_555
H5F C12F 1_555 1_555
H6F C13F 1_555 1_555
H7F C14F 1_555 1_555
H8F C15F 1_555 1_555
H9F C19F 1_555 1_555
H10F C20F 1_555 1_555
H11F C21F 1_555 1_555
H12F C22F 1_555 1_555
O5F Co1 1_555 1_555
H13F O5F 1_555 1_555
H14F O5F 1_555 1_555
N2_2 Co1 1_555 1_555
Co1_2 N2 1_555 1_555
C4 C4F 1_555 1_555
C5 C4F 1_555 1_555
C5 C5F 1_555 1_555
C6 C5F 1_555 1_555
C14 C15 1_555 1_555
C21 C22 1_555 1_555
C2F C1F 1_555 1_555
C4F C5F 1_555 1_555
C8F C7F 1_555 1_555
C14F C15F 1_555 1_555
C21F C22F 1_555 1_555

#END
