
#######################################################################
#
#                 Cambridge Crystallographic Data Centre
#                                CCDC 
#
#######################################################################
#
# If this CIF has been generated from an entry in the Cambridge 
# Structural Database, then it will include bibliographic, chemical, 
# crystal, experimental, refinement or atomic coordinate data resulting 
# from the CCDC's data processing and validation procedures.
#
#######################################################################

data_IBAREJ
_symmetry_cell_setting           triclinic
_symmetry_space_group_name_H-M   'P -1'
_symmetry_Int_Tables_number      2
_space_group_name_Hall           '-P 1'
loop_
_symmetry_equiv_pos_site_id
_symmetry_equiv_pos_as_xyz
1 x,y,z
2 -x,-y,-z
_cell_length_a                   13.5053(9)
_cell_length_b                   13.5734(9)
_cell_length_c                   14.712(1)
_cell_angle_alpha                71.145(2)
_cell_angle_beta                 75.085(2)
_cell_angle_gamma                70.030(1)
_cell_volume                     2365.73
loop_
_atom_site_label
_atom_site_type_symbol
_atom_site_fract_x
_atom_site_fract_y
_atom_site_fract_z
Bi1 Bi 0.433200(10) -0.072770(11) -0.083380(9)
Bi2 Bi 0.351300(9) 0.145470(10) -0.542330(9)
O1 O 0.4629(2) 0.0921(3) -0.0661(3)
O2 O 0.3908(4) 0.2611(3) -0.0610(4)
O3 O 0.3219(2) -0.1433(2) 0.0579(2)
O4 O 0.2385(3) -0.1081(3) 0.1991(2)
O5 O 0.4492(2) -0.2523(2) -0.0918(2)
O6 O 0.3519(3) -0.3634(3) -0.0686(3)
O7 O 0.4462(2) 0.0400(2) -0.24701(19)
O8 O 0.4672(2) 0.0257(2) -0.39794(19)
O9 O 0.2428(2) 0.1945(2) -0.4038(2)
O10 O 0.2239(3) 0.2996(3) -0.3087(2)
O11 O 0.4906(2) 0.2330(2) -0.5772(2)
O12 O 0.5447(3) 0.3687(3) -0.6885(3)
O13 O 0.3904(2) 0.1796(2) -0.71338(18)
O14 O 0.3592(2) 0.1362(3) -0.8340(2)
O15 O 0.2470(2) 0.0128(2) -0.4874(2)
O16 O 0.0795(2) 0.0068(2) -0.4281(2)
N1 N 0.2642(2) 0.0672(2) -0.0467(2)
N2 N 0.3010(2) -0.0736(2) -0.1730(2)
N3 N 0.2821(2) 0.3445(2) -0.5701(2)
N4 N 0.1876(2) 0.2074(2) -0.6187(2)
C1 C 0.2821(3) 0.1759(3) -0.0897(3)
H1 H 0.2239 0.2286 -0.0616
H2 H 0.2818 0.1965 -0.1592
C2 C 0.3870(4) 0.1782(4) -0.0723(4)
C3 C 0.2431(4) 0.0428(4) 0.0615(3)
H3 H 0.1684 0.0766 0.0829
H4 H 0.2855 0.0742 0.0822
C4 C 0.2693(3) -0.0781(4) 0.1096(3)
C5 C 0.1722(3) 0.0571(3) -0.0807(3)
H5 H 0.1467 -0.0019 -0.0323
C6 C 0.2080(3) 0.0275(3) -0.1774(2)
H6 H 0.2322 0.0872 -0.2259
C7 C 0.2710(3) -0.1761(3) -0.1274(3)
H7 H 0.2430 -0.1918 -0.1740
H8 H 0.2145 -0.1667 -0.0721
C8 C 0.3635(3) -0.2716(3) -0.0935(3)
C9 C 0.3603(3) -0.0736(3) -0.2730(2)
H9 H 0.3098 -0.0532 -0.3169
H10 H 0.4056 -0.1464 -0.2738
C10 C 0.4288(3) 0.0042(3) -0.3090(3)
C11 C 0.1143(3) 0.0168(3) -0.2103(3)
H11 H 0.1382 -0.0004 -0.2728
H12 H 0.0887 -0.0420 -0.1636
C12 C 0.0236(3) 0.1219(4) -0.2189(3)
H13 H 0.0481 0.1802 -0.2677
H14 H -0.0351 0.1136 -0.2396
C13 C -0.0145(3) 0.1503(4) -0.1231(4)
H15 H -0.0431 0.0941 -0.0753
H16 H -0.0712 0.2180 -0.1299
C14 C 0.0777(3) 0.1618(4) -0.0878(3)
H17 H 0.0524 0.1769 -0.0244
H18 H 0.1018 0.2224 -0.1327
C15 C 0.2810(3) 0.3643(3) -0.4770(3)
H19 H 0.2331 0.4356 -0.4742
H20 H 0.3521 0.3643 -0.4745
C16 C 0.2462(3) 0.2809(3) -0.3894(3)
C17 C 0.3604(3) 0.3914(3) -0.6483(3)
H21 H 0.3500 0.4652 -0.6467
H22 H 0.3474 0.3941 -0.7111
C18 C 0.4744(3) 0.3260(3) -0.6375(3)
C19 C 0.1697(3) 0.3860(3) -0.5925(3)
H23 H 0.1213 0.3693 -0.5310
C20 C 0.1567(3) 0.3282(3) -0.6606(3)
H24 H 0.2062 0.3439 -0.7215
C21 C 0.1029(3) 0.1668(3) -0.5443(3)
H25 H 0.0489 0.1667 -0.5767
H26 H 0.0691 0.2159 -0.5026
C22 C 0.1466(3) 0.0523(3) -0.4816(3)
C23 C 0.2199(3) 0.1536(3) -0.6993(3)
H27 H 0.1689 0.1893 -0.7439
H28 H 0.2189 0.0786 -0.6729
C24 C 0.3315(3) 0.1576(3) -0.7548(3)
C25 C 0.0431(3) 0.3734(3) -0.6854(3)
H29 H 0.0379 0.3388 -0.7317
H30 H -0.0076 0.3565 -0.6269
C26 C 0.0148(4) 0.4962(4) -0.7288(4)
H31 H 0.0632 0.5133 -0.7891
H32 H -0.0573 0.5227 -0.7434
C27 C 0.0227(4) 0.5507(4) -0.6577(4)
H33 H -0.0273 0.5353 -0.5981
H34 H 0.0044 0.6287 -0.6851
C28 C 0.1362(4) 0.5092(3) -0.6352(4)
H35 H 0.1408 0.5445 -0.5893
H36 H 0.1852 0.5282 -0.6946
Bi1A Bi 0.566800(10) 0.072770(11) 0.083380(9)
O1A O 0.5371(2) -0.0921(3) 0.0661(3)
O8A O 0.5328(2) -0.0257(2) -0.60206(19)
Bi2A Bi 0.648700(9) -0.145470(10) -0.457670(9)
Bi1A_2 Bi 0.566800(10) 0.072770(11) -0.916620(9)
O14A O 0.6408(2) -0.1362(3) -0.1660(2)
Cs1 Cs 0.51776(3) 0.42500(3) -0.11969(2)
Cs2 Cs 0.38788(3) -0.17113(3) -0.59865(3)
O17 O 0.1413(3) -0.0928(3) -0.6140(3)
H37 H 0.078(5) -0.057(5) -0.592(5)
H38 H 0.146(5) -0.070(5) -0.671(5)
O18 O 0.1902(4) -0.3188(4) -0.5273(4)
H39 H 0.224(2) -0.345(7) -0.4827(17)
O19 O 0.2862(5) 0.4412(5) -0.2476(5)
H40 H 0.252(8) 0.385(8) -0.260(7)
H41 H 0.268(8) 0.505(8) -0.314(7)
O20 O 0.1918(4) 0.3668(4) -0.9381(4)
H42 H 0.142(6) 0.340(6) -0.935(6)
H43 H 0.193(7) 0.394(7) -0.996(6)
O21 O 0.0823(5) 0.8082(4) -0.2966(4)
O22 O 0.7333(5) 0.3489(5) -0.6455(5)
O23 O 0.6789(5) 0.3263(4) -0.2896(4)
O24 O 0.0140(5) 0.2774(5) -0.8887(4)
O25 O 0.3561(3) 0.4157(3) 0.1198(3)
O26 O 0.5179(10) -0.3990(10) -0.6249(9)
O28 O 0.1908(6) 0.5571(7) -0.0888(7)
O27? O 0.5069(10) -0.4246(9) -0.5601(10)
O29? O 0.1508(13) 0.5986(13) -0.0083(15)
loop_
_geom_bond_atom_site_label_1
_geom_bond_atom_site_label_2
_geom_bond_site_symmetry_1
_geom_bond_site_symmetry_2
Bi1 O1 1_555 1_555
Bi2 O8 1_555 1_555
O1 C2 1_555 1_555
O2 C2 1_555 1_555
O3 Bi1 1_555 1_555
O4 C4 1_555 1_555
O5 Bi1 1_555 1_555
O6 C8 1_555 1_555
O7 Bi1 1_555 1_555
O8 C10 1_555 1_555
O9 Bi2 1_555 1_555
O10 C16 1_555 1_555
O11 Bi2 1_555 1_555
O12 C18 1_555 1_555
O13 Bi2 1_555 1_555
O14 C24 1_555 1_555
O15 Bi2 1_555 1_555
O16 C22 1_555 1_555
O17 H37 1_555 1_555
O18 H39 1_555 1_555
O19 H40 1_555 1_555
O20 H42 1_555 1_555
N1 Bi1 1_555 1_555
N2 Bi1 1_555 1_555
N3 Bi2 1_555 1_555
N4 Bi2 1_555 1_555
C1 N1 1_555 1_555
H1 C1 1_555 1_555
H2 C1 1_555 1_555
C2 C1 1_555 1_555
C3 N1 1_555 1_555
H3 C3 1_555 1_555
H4 C3 1_555 1_555
C4 O3 1_555 1_555
C5 N1 1_555 1_555
H5 C5 1_555 1_555
C6 N2 1_555 1_555
H6 C6 1_555 1_555
C7 N2 1_555 1_555
H7 C7 1_555 1_555
H8 C7 1_555 1_555
C8 O5 1_555 1_555
C9 N2 1_555 1_555
H9 C9 1_555 1_555
H10 C9 1_555 1_555
C10 O7 1_555 1_555
C11 C6 1_555 1_555
H11 C11 1_555 1_555
H12 C11 1_555 1_555
C12 C11 1_555 1_555
H13 C12 1_555 1_555
H14 C12 1_555 1_555
C13 C12 1_555 1_555
H15 C13 1_555 1_555
H16 C13 1_555 1_555
C14 C5 1_555 1_555
H17 C14 1_555 1_555
H18 C14 1_555 1_555
C15 N3 1_555 1_555
H19 C15 1_555 1_555
H20 C15 1_555 1_555
C16 O9 1_555 1_555
C17 N3 1_555 1_555
H21 C17 1_555 1_555
H22 C17 1_555 1_555
C18 O11 1_555 1_555
C19 N3 1_555 1_555
H23 C19 1_555 1_555
C20 N4 1_555 1_555
H24 C20 1_555 1_555
C21 N4 1_555 1_555
H25 C21 1_555 1_555
H26 C21 1_555 1_555
C22 O15 1_555 1_555
C23 N4 1_555 1_555
H27 C23 1_555 1_555
H28 C23 1_555 1_555
C24 O13 1_555 1_555
C25 C20 1_555 1_555
H29 C25 1_555 1_555
H30 C25 1_555 1_555
C26 C25 1_555 1_555
H31 C26 1_555 1_555
H32 C26 1_555 1_555
C27 C26 1_555 1_555
H33 C27 1_555 1_555
H34 C27 1_555 1_555
C28 C19 1_555 1_555
H35 C28 1_555 1_555
H36 C28 1_555 1_555
H38 O17 1_555 1_555
H41 O19 1_555 1_555
H43 O20 1_555 1_555
Bi1A O1 1_555 1_555
O1A Bi1 1_555 1_555
O8A Bi2 1_555 1_555
Bi2A O8 1_555 1_555
Bi1A_2 O14 1_555 1_555
O14A Bi1 1_555 1_555
C3 C4 1_555 1_555
C5 C6 1_555 1_555
C7 C8 1_555 1_555
C9 C10 1_555 1_555
C13 C14 1_555 1_555
C15 C16 1_555 1_555
C17 C18 1_555 1_555
C19 C20 1_555 1_555
C21 C22 1_555 1_555
C23 C24 1_555 1_555
C27 C28 1_555 1_555
Bi1A O1A 1_555 1_555
O8A Bi2A 1_555 1_555

#END
