
#######################################################################
#
#                 Cambridge Crystallographic Data Centre
#                                CCDC 
#
#######################################################################
#
# If this CIF has been generated from an entry in the Cambridge 
# Structural Database, then it will include bibliographic, chemical, 
# crystal, experimental, refinement or atomic coordinate data resulting 
# from the CCDC's data processing and validation procedures.
#
#######################################################################

data_IBEDUP
_symmetry_cell_setting           monoclinic
_symmetry_space_group_name_H-M   'P 21/c'
_symmetry_Int_Tables_number      14
_space_group_name_Hall           '-P 2ybc'
loop_
_symmetry_equiv_pos_site_id
_symmetry_equiv_pos_as_xyz
1 x,y,z
2 -x,1/2+y,1/2-z
3 -x,-y,-z
4 x,1/2-y,1/2+z
_cell_length_a                   8.3789(5)
_cell_length_b                   10.1872(6)
_cell_length_c                   6.6709(5)
_cell_angle_alpha                90
_cell_angle_beta                 106.63(1)
_cell_angle_gamma                90
_cell_volume                     545.595
loop_
_atom_site_label
_atom_site_type_symbol
_atom_site_fract_x
_atom_site_fract_y
_atom_site_fract_z
Li1 Li 0.0874(3) 0.2915(3) 0.7396(4)
N1 N 0.4813(1) 0.5454(1) 0.7462(2)
N2 N 0.3227(1) 0.5177(1) 0.7396(2)
N3 N 0.3144(1) 0.3914(1) 0.7542(2)
N4 N 0.4634(1) 0.3344(1) 0.7694(2)
N5 N 0.7295(1) 0.4051(1) 0.7749(2)
N6 N 0.8254(1) 0.5056(1) 0.7665(2)
C1 C 0.5671(2) 0.4322(1) 0.7644(2)
O1 O 0.7743(1) 0.6217(1) 0.7561(2)
O2 O 0.9727(1) 0.4814(1) 0.7690(2)
O3 O -0.0344(1) 0.2858(1) 0.4338(2)
H1 H 0.508(3) 0.621(2) 0.740(3)
H2 H -0.124(3) 0.238(2) 0.407(3)
H3 H -0.064(3) 0.360(3) 0.391(4)
O1A O 0.2257(1) 0.1217(1) 0.7439(2)
O2_2 O -0.0273(1) 0.4814(1) 0.7690(2)
O3C O -0.0344(1) 0.2142(1) 0.9338(2)
Li1A Li 0.9126(3) 0.7915(3) 0.7604(4)
Li1_2 Li 1.0874(3) 0.2915(3) 0.7396(4)
Li1C Li 0.0874(3) 0.2085(3) 0.2396(4)
H2C H -0.124(3) 0.262(2) 0.907(3)
H3C H -0.064(3) 0.140(3) 0.891(4)
loop_
_geom_bond_atom_site_label_1
_geom_bond_atom_site_label_2
_geom_bond_site_symmetry_1
_geom_bond_site_symmetry_2
Li1 N3 1_555 1_555
N1 N2 1_555 1_555
N2 N3 1_555 1_555
N3 N4 1_555 1_555
N4 C1 1_555 1_555
N5 N6 1_555 1_555
N6 O1 1_555 1_555
C1 N1 1_555 1_555
O1 Li1A 1_555 1_555
O2 N6 1_555 1_555
O3 Li1 1_555 1_555
H1 N1 1_555 1_555
H2 O3 1_555 1_555
H3 O3 1_555 1_555
O1A Li1 1_555 1_555
O2_2 Li1 1_555 1_555
O3C Li1 1_555 1_555
Li1_2 O2 1_555 1_555
Li1C O3 1_555 1_555
H2C O3C 1_555 1_555
H3C O3C 1_555 1_555
N5 C1 1_555 1_555

#END
