
#######################################################################
#
#                 Cambridge Crystallographic Data Centre
#                                CCDC 
#
#######################################################################
#
# If this CIF has been generated from an entry in the Cambridge 
# Structural Database, then it will include bibliographic, chemical, 
# crystal, experimental, refinement or atomic coordinate data resulting 
# from the CCDC's data processing and validation procedures.
#
#######################################################################

data_IBEJUV
_symmetry_cell_setting           triclinic
_symmetry_space_group_name_H-M   'P -1'
_symmetry_Int_Tables_number      2
_space_group_name_Hall           '-P 1'
loop_
_symmetry_equiv_pos_site_id
_symmetry_equiv_pos_as_xyz
1 x,y,z
2 -x,-y,-z
_cell_length_a                   12.010(3)
_cell_length_b                   14.654(2)
_cell_length_c                   19.456(2)
_cell_angle_alpha                77.18(1)
_cell_angle_beta                 80.09(2)
_cell_angle_gamma                81.48(1)
_cell_volume                     3267.35
loop_
_atom_site_label
_atom_site_type_symbol
_atom_site_fract_x
_atom_site_fract_y
_atom_site_fract_z
Cu1 Cu -0.43397(12) -0.01858(8) 0.90313(6)
O1 O -0.4666(6) 0.0999(4) 0.9342(3)
C1 C -0.4950(10) 0.2673(7) 0.9177(5)
F1 F -0.4290(6) 0.2483(4) 0.9692(3)
F2 F -0.4394(6) 0.3218(4) 0.8633(3)
F3 F -0.5869(6) 0.3153(4) 0.9419(3)
C2 C -0.5155(9) 0.1774(6) 0.8989(5)
C3 C -0.5833(9) 0.1798(6) 0.8498(5)
C4 C -0.6281(9) 0.2714(6) 0.8115(5)
N1 N -0.6522(9) 0.3467(6) 0.7810(4)
C5 C -0.6129(9) 0.0994(6) 0.8303(5)
N2 N -0.6973(8) 0.1050(5) 0.7893(5)
O2 O -0.7664(8) 0.1781(5) 0.7771(5)
C6 C -0.6986(11) 0.0192(7) 0.7689(5)
C7 C -0.8164(11) -0.0064(9) 0.7822(10)
H1 H -0.8615 0.0375 0.7505
H2 H -0.8487 -0.0043 0.8306
H3 H -0.8154 -0.0688 0.7741
C8 C -0.6650(15) 0.0301(10) 0.6926(7)
H4 H -0.7220 0.0719 0.6685
H5 H -0.6572 -0.0302 0.6795
H6 H -0.5936 0.0559 0.6792
C9 C -0.6148(9) -0.0490(6) 0.8175(6)
C10 C -0.6822(13) -0.1109(9) 0.8775(8)
H7 H -0.6314 -0.1518 0.9071
H8 H -0.7238 -0.1482 0.8583
H9 H -0.7345 -0.0724 0.9054
C11 C -0.5313(13) -0.1051(9) 0.7714(7)
H10 H -0.4797 -0.1469 0.7999
H11 H -0.4893 -0.0631 0.7344
H12 H -0.5717 -0.1412 0.7504
N3 N -0.5624(7) 0.0141(5) 0.8470(4)
O3 O -0.4062(6) -0.1523(4) 0.8999(3)
C12 C -0.3093(14) -0.2901(7) 0.8791(7)
F4 F -0.2366(9) -0.3578(5) 0.9118(6)
F5 F -0.3994(10) -0.3346(5) 0.9022(6)
F6 F -0.2818(11) -0.2885(5) 0.8169(4)
C13 C -0.3113(10) -0.2022(7) 0.9049(5)
C14 C -0.2193(11) -0.1777(7) 0.9273(5)
H13 H -0.145(7) -0.227(5) 0.917(4)
C15 C -0.2245(10) -0.0999(7) 0.9517(5)
C16 C -0.1223(13) -0.0751(8) 0.9763(7)
F7 F -0.0986(7) 0.0090(5) 0.9534(5)
F8 F -0.0294(7) -0.1332(6) 0.9598(4)
F9 F -0.1331(7) -0.0901(5) 1.0469(4)
O4 O -0.3055(6) -0.0381(4) 0.9598(3)
Cu2 Cu -0.01573(12) 0.14122(8) 0.53772(7)
O5 O -0.0326(6) 0.0218(4) 0.6031(3)
C17 C -0.0673(11) -0.0860(7) 0.7094(5)
F10 F -0.0463(6) -0.0753(4) 0.7715(3)
F11 F -0.1532(7) -0.1384(4) 0.7238(4)
F12 F 0.0216(7) -0.1356(4) 0.6809(4)
C18 C -0.0984(9) 0.0127(6) 0.6577(5)
C19 C -0.1894(9) 0.0673(6) 0.6830(5)
C20 C -0.2544(9) 0.0452(7) 0.7495(5)
N4 N -0.3009(9) 0.0208(6) 0.8059(5)
C21 C -0.2227(9) 0.1564(7) 0.6351(5)
N5 N -0.3245(8) 0.2094(6) 0.6529(5)
O6 O -0.3936(9) 0.1900(7) 0.7073(5)
C22 C -0.3520(11) 0.2884(9) 0.5966(6)
C23 C -0.4442(15) 0.2499(12) 0.5660(10)
H14 H -0.5148 0.2525 0.5976
H15 H -0.4194 0.1858 0.5615
H16 H -0.4548 0.2877 0.5200
C24 C -0.4042(15) 0.3695(9) 0.6177(9)
H17 H -0.4751 0.3573 0.6475
H18 H -0.4183 0.4172 0.5765
H19 H -0.3559 0.3910 0.6438
C25 C -0.2386(10) 0.2878(7) 0.5476(6)
C26 C -0.2510(12) 0.2961(10) 0.4708(7)
H20 H -0.1770 0.2942 0.4426
H21 H -0.2952 0.3547 0.4545
H22 H -0.2886 0.2448 0.4663
C27 C -0.1723(11) 0.3638(7) 0.5565(7)
H23 H -0.1004 0.3616 0.5261
H24 H -0.1598 0.3535 0.6052
H25 H -0.2148 0.4244 0.5439
N6 N -0.1696(7) 0.1938(5) 0.5735(4)
O7 O 0.1340(7) 0.0793(4) 0.5073(4)
C28 C 0.3310(12) 0.0667(9) 0.4673(7)
F13 F 0.3457(8) 0.0097(10) 0.5139(5)
F14 F 0.3419(8) 0.0081(7) 0.4194(6)
F15 F 0.4064(8) 0.1055(7) 0.4352(8)
C29 C 0.2081(10) 0.1168(8) 0.4607(5)
C30 C 0.1961(10) 0.2066(8) 0.4166(6)
H26 H 0.257(6) 0.214(4) 0.391(3)
C31 C 0.0967(9) 0.2599(7) 0.4165(5)
C32 C 0.0849(14) 0.3508(8) 0.3602(6)
F16 F 0.0436(8) 0.4215(5) 0.3884(4)
F17 F 0.1770(9) 0.3728(7) 0.3226(6)
F18 F 0.0201(10) 0.3474(5) 0.3169(4)
O8 O 0.0075(6) 0.2433(5) 0.4541(3)
Cu3 Cu -0.77801(13) 0.47331(8) 0.74214(6)
O9 O 0.2367(6) 0.4490(4) 0.6490(3)
C33 C 0.2449(9) 0.3692(7) 0.5559(6)
F19 F 0.1671(6) 0.3916(5) 0.5106(3)
F20 F 0.2932(6) 0.2841(4) 0.5534(3)
F21 F 0.3281(5) 0.4255(4) 0.5249(3)
C34 C 0.2000(9) 0.3861(6) 0.6288(5)
C35 C 0.1165(9) 0.3303(6) 0.6698(6)
C36 C 0.0843(9) 0.2602(7) 0.6393(6)
N7 N 0.0615(9) 0.2054(6) 0.6117(5)
C37 C 0.0617(9) 0.3493(7) 0.7395(6)
N8 N -0.0296(8) 0.2981(6) 0.7733(5)
O10 O -0.0670(7) 0.2388(6) 0.7488(4)
C38 C -0.0862(10) 0.3437(8) 0.8313(6)
C39 C -0.1306(12) 0.2655(8) 0.8951(6)
H27 H -0.0670 0.2256 0.9135
H28 H -0.1764 0.2284 0.8788
H29 H -0.1755 0.2945 0.9320
C40 C -0.1933(11) 0.4042(9) 0.8007(7)
H30 H -0.1687 0.4534 0.7619
H31 H -0.2411 0.4316 0.8376
H32 H -0.2352 0.3646 0.7842
C41 C 0.0041(11) 0.3970(7) 0.8428(6)
C42 C 0.0787(10) 0.3403(8) 0.8971(5)
H33 H 0.1042 0.2792 0.8862
H34 H 0.0356 0.3335 0.9440
H35 H 0.1434 0.3727 0.8954
C43 C -0.0431(13) 0.4915(7) 0.8626(7)
H36 H -0.0918 0.5261 0.8291
H37 H 0.0186 0.5268 0.8618
H38 H -0.0859 0.4812 0.9096
N9 N 0.0844(8) 0.4088(5) 0.7726(4)
O11 O -0.6574(7) 0.5530(4) 0.6964(3)
C44 C -0.5071(12) 0.6368(9) 0.6774(8)
F22 F -0.5206(11) 0.7177(6) 0.6689(7)
F23 F -0.4702(8) 0.6136(6) 0.6259(4)
F24 F -0.4256(11) 0.6388(16) 0.7104(6)
C45 C -0.6087(10) 0.5920(7) 0.7293(5)
C46 C -0.6235(11) 0.6027(8) 0.7981(6)
H39 H -0.538(8) 0.619(5) 0.815(4)
C47 C -0.7198(13) 0.5655(7) 0.8398(5)
C48 C -0.762(2) 0.5831(11) 0.9158(8)
F25 F -0.6666(12) 0.6115(10) 0.9363(5)
F26 F -0.7758(14) 0.5178(7) 0.9642(4)
F27 F -0.8141(18) 0.6556(7) 0.9219(6)
O12 O -0.7889(8) 0.5242(4) 0.8240(4)
O9_2 O -0.7633(6) 0.4490(4) 0.6490(3)
N9_2 N -0.9156(8) 0.4088(5) 0.7726(4)
Cu3_2 Cu 0.22199(13) 0.47331(8) 0.74214(6)
loop_
_geom_bond_atom_site_label_1
_geom_bond_atom_site_label_2
_geom_bond_site_symmetry_1
_geom_bond_site_symmetry_2
Cu1 O1 1_555 1_555
O1 C2 1_555 1_555
C1 F1 1_555 1_555
F2 C1 1_555 1_555
F3 C1 1_555 1_555
C2 C1 1_555 1_555
C3 C2 1_555 1_555
C4 C3 1_555 1_555
N1 C4 1_555 1_555
C5 C3 1_555 1_555
N2 C5 1_555 1_555
O2 N2 1_555 1_555
C6 N2 1_555 1_555
C7 C6 1_555 1_555
H1 C7 1_555 1_555
H2 C7 1_555 1_555
H3 C7 1_555 1_555
C8 C6 1_555 1_555
H4 C8 1_555 1_555
H5 C8 1_555 1_555
H6 C8 1_555 1_555
C9 C6 1_555 1_555
C10 C9 1_555 1_555
H7 C10 1_555 1_555
H8 C10 1_555 1_555
H9 C10 1_555 1_555
C11 C9 1_555 1_555
H10 C11 1_555 1_555
H11 C11 1_555 1_555
H12 C11 1_555 1_555
N3 Cu1 1_555 1_555
O3 Cu1 1_555 1_555
C12 F4 1_555 1_555
F5 C12 1_555 1_555
F6 C12 1_555 1_555
C13 O3 1_555 1_555
C14 C13 1_555 1_555
H13 C14 1_555 1_555
C15 C14 1_555 1_555
C16 C15 1_555 1_555
F7 C16 1_555 1_555
F8 C16 1_555 1_555
F9 C16 1_555 1_555
O4 Cu1 1_555 1_555
Cu2 O5 1_555 1_555
O5 C18 1_555 1_555
C17 F10 1_555 1_555
F11 C17 1_555 1_555
F12 C17 1_555 1_555
C18 C17 1_555 1_555
C19 C18 1_555 1_555
C20 C19 1_555 1_555
N4 Cu1 1_555 1_555
C21 C19 1_555 1_555
N5 C21 1_555 1_555
O6 N5 1_555 1_555
C22 N5 1_555 1_555
C23 C22 1_555 1_555
H14 C23 1_555 1_555
H15 C23 1_555 1_555
H16 C23 1_555 1_555
C24 C22 1_555 1_555
H17 C24 1_555 1_555
H18 C24 1_555 1_555
H19 C24 1_555 1_555
C25 C22 1_555 1_555
C26 C25 1_555 1_555
H20 C26 1_555 1_555
H21 C26 1_555 1_555
H22 C26 1_555 1_555
C27 C25 1_555 1_555
H23 C27 1_555 1_555
H24 C27 1_555 1_555
H25 C27 1_555 1_555
N6 Cu2 1_555 1_555
O7 Cu2 1_555 1_555
C28 F13 1_555 1_555
F14 C28 1_555 1_555
F15 C28 1_555 1_555
C29 O7 1_555 1_555
C30 C29 1_555 1_555
H26 C30 1_555 1_555
C31 C30 1_555 1_555
C32 C31 1_555 1_555
F16 C32 1_555 1_555
F17 C32 1_555 1_555
F18 C32 1_555 1_555
O8 Cu2 1_555 1_555
Cu3 N1 1_555 1_555
O9 C34 1_555 1_555
C33 F19 1_555 1_555
F20 C33 1_555 1_555
F21 C33 1_555 1_555
C34 C33 1_555 1_555
C35 C34 1_555 1_555
C36 C35 1_555 1_555
N7 Cu2 1_555 1_555
C37 C35 1_555 1_555
N8 C37 1_555 1_555
O10 N8 1_555 1_555
C38 N8 1_555 1_555
C39 C38 1_555 1_555
H27 C39 1_555 1_555
H28 C39 1_555 1_555
H29 C39 1_555 1_555
C40 C38 1_555 1_555
H30 C40 1_555 1_555
H31 C40 1_555 1_555
H32 C40 1_555 1_555
C41 C38 1_555 1_555
C42 C41 1_555 1_555
H33 C42 1_555 1_555
H34 C42 1_555 1_555
H35 C42 1_555 1_555
C43 C41 1_555 1_555
H36 C43 1_555 1_555
H37 C43 1_555 1_555
H38 C43 1_555 1_555
N9 C37 1_555 1_555
O11 Cu3 1_555 1_555
C44 F22 1_555 1_555
F23 C44 1_555 1_555
F24 C44 1_555 1_555
C45 O11 1_555 1_555
C46 C45 1_555 1_555
H39 C46 1_555 1_555
C47 C46 1_555 1_555
C48 C47 1_555 1_555
F25 C48 1_555 1_555
F26 C48 1_555 1_555
F27 C48 1_555 1_555
O12 Cu3 1_555 1_555
O9_2 Cu3 1_555 1_555
N9_2 Cu3 1_555 1_555
Cu3_2 O9 1_555 1_555
C5 N3 1_555 1_555
C9 N3 1_555 1_555
C12 C13 1_555 1_555
C15 O4 1_555 1_555
C20 N4 1_555 1_555
C21 N6 1_555 1_555
C25 N6 1_555 1_555
C28 C29 1_555 1_555
C31 O8 1_555 1_555
C36 N7 1_555 1_555
C41 N9 1_555 1_555
N9 Cu3_2 1_555 1_555
C44 C45 1_555 1_555
C47 O12 1_555 1_555

#END
