
#######################################################################
#
#                 Cambridge Crystallographic Data Centre
#                                CCDC 
#
#######################################################################
#
# If this CIF has been generated from an entry in the Cambridge 
# Structural Database, then it will include bibliographic, chemical, 
# crystal, experimental, refinement or atomic coordinate data resulting 
# from the CCDC's data processing and validation procedures.
#
#######################################################################

data_IBEKIL
_symmetry_cell_setting           monoclinic
_symmetry_space_group_name_H-M   'C 2/c'
_symmetry_Int_Tables_number      15
_space_group_name_Hall           '-C 2yn'
loop_
_symmetry_equiv_pos_site_id
_symmetry_equiv_pos_as_xyz
1 x,y,z
2 -x,y,1/2-z
3 1/2+x,1/2+y,z
4 1/2-x,1/2+y,1/2-z
5 -x,-y,-z
6 x,-y,1/2+z
7 1/2-x,1/2-y,-z
8 1/2+x,1/2-y,1/2+z
_cell_length_a                   24.763(2)
_cell_length_b                   12.4316(11)
_cell_length_c                   13.7532(12)
_cell_angle_alpha                90
_cell_angle_beta                 99.8850(10)
_cell_angle_gamma                90
_cell_volume                     4170.98
loop_
_atom_site_label
_atom_site_type_symbol
_atom_site_fract_x
_atom_site_fract_y
_atom_site_fract_z
Co1 Co 0.653477(16) 0.17358(3) 0.13226(3)
O1 O 0.65720(8) -0.12294(18) -0.21972(15)
O2 O 0.73839(10) 0.2018(2) 0.1609(2)
O3 O 0.69622(11) 0.1227(2) -0.13618(18)
C1 C 0.63694(17) 0.5268(3) 0.1400(4)
H1 H 0.6600 0.5861 0.1420
C2 C 0.53691(15) 0.0687(3) 0.1200(3)
H2 H 0.5547 0.0031 0.1174
O4 O 0.65511(12) 0.19412(19) -0.01860(18)
O5 O 0.74741(10) -0.1117(2) -0.1632(2)
N1 N 0.56630(11) 0.1585(2) 0.1228(2)
N2 N 0.66719(11) 0.0157(2) 0.08565(19)
N3 N 0.62736(11) 0.3361(2) 0.1384(2)
C3 C 0.67616(13) 0.1171(3) -0.0590(2)
C4 C 0.53941(12) 0.2533(3) 0.1249(2)
N4 N 0.40176(12) 0.3702(3) 0.1141(2)
C5 C 0.48261(13) 0.2600(3) 0.1222(2)
C6 C 0.57242(13) 0.3495(3) 0.1309(2)
C7 C 0.68685(12) -0.0896(3) -0.0496(2)
C8 C 0.69839(12) -0.1066(2) -0.1540(2)
C9 C 0.68702(14) -0.1812(3) 0.0084(3)
H3 H 0.6935 -0.2482 -0.0173
C10 C 0.48847(14) 0.4584(3) 0.1225(3)
C11 C 0.45706(13) 0.3656(3) 0.1202(3)
C12 C 0.65848(14) 0.4238(3) 0.1423(3)
H4 H 0.6962 0.4156 0.1468
C13 C 0.67761(16) -0.1730(3) 0.1034(3)
H5 H 0.6776 -0.2341 0.1425
C14 C 0.54771(14) 0.4518(3) 0.1293(3)
N5 N 0.46499(14) 0.5584(3) 0.1170(3)
C15 C 0.67695(11) 0.0088(2) -0.0079(2)
C16 C 0.41112(17) 0.5603(4) 0.1109(4)
H6 H 0.3937 0.6267 0.1079
C17 C 0.66814(15) -0.0726(3) 0.1405(3)
H7 H 0.6623 -0.0668 0.2053
C18 C 0.48051(15) 0.0685(3) 0.1206(3)
H8 H 0.4616 0.0038 0.1200
C19 C 0.45351(14) 0.1640(3) 0.1222(3)
H9 H 0.4161 0.1650 0.1233
C20 C 0.58177(16) 0.5416(3) 0.1347(4)
H10 H 0.5672 0.6105 0.1347
C21 C 0.37926(16) 0.4680(4) 0.1088(4)
C22 C 0.31770(18) 0.4767(5) 0.0958(5)
H11 H 0.3073 0.5512 0.0931
H12 H 0.3051 0.4427 0.1504
H13 H 0.3015 0.4419 0.0355
H16 H 0.761(2) 0.258(5) 0.153(4)
H17 H 0.744(3) 0.182(5) 0.218(5)
Co1E Co 0.653477(16) -0.17358(3) -0.36774(3)
O1E O 0.65720(8) 0.12294(18) 0.28028(15)
O6 O 0.4901(4) 0.7894(5) 0.1189(6)
H14 H 0.5192 0.7938 0.1760
H15 H 0.4553 0.7876 0.1412
O7 O 0.5801(6) 0.8059(10) 0.2603(9)
loop_
_geom_bond_atom_site_label_1
_geom_bond_atom_site_label_2
_geom_bond_site_symmetry_1
_geom_bond_site_symmetry_2
Co1 O2 1_555 1_555
O1 C8 1_555 1_555
O2 H16 1_555 1_555
O3 C3 1_555 1_555
C1 H1 1_555 1_555
C2 H2 1_555 1_555
O4 Co1 1_555 1_555
O5 C8 1_555 1_555
N1 Co1 1_555 1_555
N2 Co1 1_555 1_555
N3 Co1 1_555 1_555
C3 O4 1_555 1_555
C4 N1 1_555 1_555
N4 C11 1_555 1_555
C5 C4 1_555 1_555
C6 N3 1_555 1_555
C7 C8 1_555 1_555
C9 C7 1_555 1_555
H3 C9 1_555 1_555
C10 C11 1_555 1_555
C11 C5 1_555 1_555
C12 C1 1_555 1_555
H4 C12 1_555 1_555
C13 C9 1_555 1_555
H5 C13 1_555 1_555
C14 C6 1_555 1_555
N5 C10 1_555 1_555
C15 N2 1_555 1_555
C16 N5 1_555 1_555
H6 C16 1_555 1_555
C17 N2 1_555 1_555
H7 C17 1_555 1_555
C18 C2 1_555 1_555
H8 C18 1_555 1_555
C19 C5 1_555 1_555
H9 C19 1_555 1_555
C20 C1 1_555 1_555
H10 C20 1_555 1_555
C21 N4 1_555 1_555
C22 C21 1_555 1_555
H11 C22 1_555 1_555
H12 C22 1_555 1_555
H13 C22 1_555 1_555
O6 H14 1_555 1_555
H15 O6 1_555 1_555
H17 O2 1_555 1_555
Co1E O1 1_555 1_555
O1E Co1 1_555 1_555
C2 N1 1_555 1_555
N3 C12 1_555 1_555
C3 C15 1_555 1_555
C4 C6 1_555 1_555
C7 C15 1_555 1_555
C10 C14 1_555 1_555
C13 C17 1_555 1_555
C14 C20 1_555 1_555
C16 C21 1_555 1_555
C18 C19 1_555 1_555

#END
