
#######################################################################
#
#                 Cambridge Crystallographic Data Centre
#                                CCDC 
#
#######################################################################
#
# If this CIF has been generated from an entry in the Cambridge 
# Structural Database, then it will include bibliographic, chemical, 
# crystal, experimental, refinement or atomic coordinate data resulting 
# from the CCDC's data processing and validation procedures.
#
#######################################################################

data_IBEKEH
_symmetry_cell_setting           orthorhombic
_symmetry_space_group_name_H-M   'P c a 21'
_symmetry_Int_Tables_number      29
_space_group_name_Hall           'P 2c -2ac'
loop_
_symmetry_equiv_pos_site_id
_symmetry_equiv_pos_as_xyz
1 x,y,z
2 -x,-y,1/2+z
3 1/2+x,-y,z
4 1/2-x,y,1/2+z
_cell_length_a                   17.473(4)
_cell_length_b                   11.447(2)
_cell_length_c                   17.509(4)
_cell_angle_alpha                90
_cell_angle_beta                 90
_cell_angle_gamma                90
_cell_volume                     3502.04
loop_
_atom_site_label
_atom_site_type_symbol
_atom_site_fract_x
_atom_site_fract_y
_atom_site_fract_z
V1 V 0.99624(4) 0.61361(5) 0.46493(4)
V2 V 1.09831(4) 0.39448(5) 0.37393(4)
V3 V 1.09560(4) 0.10966(5) 0.38654(4)
V4 V 0.98811(4) 0.89903(5) 0.46275(4)
Co1 Co 0.95567(3) 0.59106(4) 0.67166(4)
Co2 Co 0.80512(3) 0.92515(5) 0.38233(4)
O1 O 0.9177(2) 0.5985(3) 0.4157(2)
O2 O 0.97711(19) 0.5924(3) 0.55548(19)
O3 O 0.96157(18) 0.7782(3) 0.6752(2)
O4 O 1.06278(19) 0.4061(3) 0.28677(19)
O5 O 1.06704(18) 0.5111(3) 0.43402(19)
O6 O 1.19087(17) 0.4001(3) 0.3688(2)
O7 O 1.07206(18) 0.2559(2) 0.4135(2)
O8 O 1.0603(2) 0.0818(3) 0.3024(2)
O9 O 1.05861(15) 1.0109(3) 0.45720(19)
O10 O 1.18914(16) 0.0931(3) 0.3820(3)
O11 O 0.81110(18) 0.7469(3) 0.3530(2)
O12 O 0.79755(19) 0.8767(4) 0.4998(2)
O13 O 0.92262(16) 0.9161(3) 0.39555(18)
O14 O 0.94467(19) 0.9066(3) 0.5456(2)
O15 O 1.03295(18) 0.7595(2) 0.4528(2)
N1 N 0.9528(2) 0.3999(3) 0.6720(3)
N2 N 0.8360(2) 0.6130(3) 0.6425(2)
N3 N 1.0766(2) 0.5949(3) 0.6887(2)
N4 N 0.81080(19) 0.9754(3) 0.2651(2)
N5 N 0.8024(2) 1.1065(3) 0.4097(3)
C1 C 0.9411(3) 0.3396(4) 0.7367(3)
H1 H 0.9354 0.3811 0.7820
C2 C 0.9371(3) 0.2182(5) 0.7396(4)
H2 H 0.9287 0.1797 0.7856
C3 C 0.9460(3) 0.1566(4) 0.6726(4)
H3 H 0.9427 0.0755 0.6724
C4 C 0.9596(4) 0.2165(5) 0.6064(4)
H4 H 0.9673 0.1763 0.5609
C5 C 0.9619(3) 0.3365(5) 0.6075(3)
H5 H 0.9701 0.3758 0.5618
C6 C 0.7910(2) 0.6826(4) 0.6834(3)
H6 H 0.8103 0.7159 0.7279
C7 C 0.7163(3) 0.7074(5) 0.6622(3)
H7 H 0.6859 0.7560 0.6922
C8 C 0.6878(3) 0.6588(5) 0.5961(3)
H8 H 0.6380 0.6747 0.5803
C9 C 0.7338(3) 0.5867(5) 0.5539(3)
H9 H 0.7160 0.5526 0.5091
C10 C 0.8078(3) 0.5658(5) 0.5794(3)
H10 H 0.8390 0.5164 0.5509
C11 C 0.7465(3) 0.9922(4) 0.2256(3)
H11 H 0.6997 0.9878 0.2507
C12 C 0.7477(3) 1.0158(5) 0.1484(3)
H12 H 0.7022 1.0286 0.1221
C13 C 0.8162(3) 1.0203(5) 0.1105(3)
H13 H 0.8176 1.0338 0.0582
C14 C 0.8827(3) 1.0048(5) 0.1509(3)
H14 H 0.9300 1.0087 0.1267
C15 C 0.8780(2) 0.9834(4) 0.2278(3)
H15 H 0.9231 0.9740 0.2554
C16 C 1.1105(3) 0.5323(5) 0.7438(3)
H16 H 1.0805 0.4830 0.7735
C17 C 1.1878(3) 0.5378(5) 0.7584(4)
H17 H 1.2098 0.4929 0.7968
C18 C 1.2317(3) 0.6118(5) 0.7144(4)
H18 H 1.2841 0.6178 0.7231
C19 C 1.1976(3) 0.6769(5) 0.6576(4)
H19 H 1.2264 0.7273 0.6275
C20 C 1.1198(3) 0.6654(5) 0.6463(3)
H20 H 1.0967 0.7087 0.6077
C21 C 0.7377(2) 1.1646(4) 0.4243(3)
H21 H 0.6926 1.1218 0.4279
C22 C 0.7333(3) 1.2841(5) 0.4343(3)
H22 H 0.6869 1.3200 0.4455
C23 C 0.7998(3) 1.3491(4) 0.4273(3)
H23 H 0.7990 1.4299 0.4327
C24 C 0.8670(3) 1.2912(5) 0.4122(4)
H24 H 0.9127 1.3323 0.4078
C25 C 0.8659(2) 1.1723(4) 0.4036(3)
H25 H 0.9119 1.1348 0.3930
V3_2 V 1.09560(4) 1.10966(5) 0.38654(4)
Co1A Co 1.04433(3) 0.40894(4) 0.17166(4)
Co2B Co 1.30512(3) 0.07485(5) 0.38233(4)
O4A O 0.93722(19) 0.5939(3) 0.78677(19)
O9_2 O 1.05861(15) 0.0109(3) 0.45720(19)
O10B O 0.68914(16) 0.9069(3) 0.3820(3)
loop_
_geom_bond_atom_site_label_1
_geom_bond_atom_site_label_2
_geom_bond_site_symmetry_1
_geom_bond_site_symmetry_2
V1 O1 1_555 1_555
V2 O4 1_555 1_555
V3 O7 1_555 1_555
V4 O9 1_555 1_555
Co1 O2 1_555 1_555
Co2 O11 1_555 1_555
O2 V1 1_555 1_555
O3 Co1 1_555 1_555
O4 Co1A 1_555 1_555
O5 V1 1_555 1_555
O6 V2 1_555 1_555
O7 V2 1_555 1_555
O8 V3 1_555 1_555
O9 V3_2 1_555 1_555
O10 V3 1_555 1_555
O12 Co2 1_555 1_555
O13 V4 1_555 1_555
O14 V4 1_555 1_555
O15 V1 1_555 1_555
N1 Co1 1_555 1_555
N2 Co1 1_555 1_555
N3 Co1 1_555 1_555
N4 Co2 1_555 1_555
N5 Co2 1_555 1_555
C1 N1 1_555 1_555
H1 C1 1_555 1_555
C2 C1 1_555 1_555
H2 C2 1_555 1_555
C3 C2 1_555 1_555
H3 C3 1_555 1_555
C4 C3 1_555 1_555
H4 C4 1_555 1_555
C5 N1 1_555 1_555
H5 C5 1_555 1_555
C6 N2 1_555 1_555
H6 C6 1_555 1_555
C7 C6 1_555 1_555
H7 C7 1_555 1_555
C8 C7 1_555 1_555
H8 C8 1_555 1_555
C9 C8 1_555 1_555
H9 C9 1_555 1_555
C10 N2 1_555 1_555
H10 C10 1_555 1_555
C11 N4 1_555 1_555
H11 C11 1_555 1_555
C12 C11 1_555 1_555
H12 C12 1_555 1_555
C13 C12 1_555 1_555
H13 C13 1_555 1_555
C14 C13 1_555 1_555
H14 C14 1_555 1_555
C15 N4 1_555 1_555
H15 C15 1_555 1_555
C16 N3 1_555 1_555
H16 C16 1_555 1_555
C17 C16 1_555 1_555
H17 C17 1_555 1_555
C18 C17 1_555 1_555
H18 C18 1_555 1_555
C19 C18 1_555 1_555
H19 C19 1_555 1_555
C20 N3 1_555 1_555
H20 C20 1_555 1_555
C21 N5 1_555 1_555
H21 C21 1_555 1_555
C22 C21 1_555 1_555
H22 C22 1_555 1_555
C23 C22 1_555 1_555
H23 C23 1_555 1_555
C24 C23 1_555 1_555
H24 C24 1_555 1_555
C25 N5 1_555 1_555
H25 C25 1_555 1_555
Co2B O10 1_555 1_555
O4A Co1 1_555 1_555
O9_2 V3 1_555 1_555
O10B Co2 1_555 1_555
V2 O5 1_555 1_555
V4 O15 1_555 1_555
Co2 O13 1_555 1_555
C4 C5 1_555 1_555
C9 C10 1_555 1_555
C14 C15 1_555 1_555
C19 C20 1_555 1_555
C24 C25 1_555 1_555

#END
