
#######################################################################
#
#                 Cambridge Crystallographic Data Centre
#                                CCDC 
#
#######################################################################
#
# If this CIF has been generated from an entry in the Cambridge 
# Structural Database, then it will include bibliographic, chemical, 
# crystal, experimental, refinement or atomic coordinate data resulting 
# from the CCDC's data processing and validation procedures.
#
#######################################################################

data_IBELIL
_symmetry_cell_setting           monoclinic
_symmetry_space_group_name_H-M   'P 21/c'
_symmetry_Int_Tables_number      14
_space_group_name_Hall           '-P 2ybc'
loop_
_symmetry_equiv_pos_site_id
_symmetry_equiv_pos_as_xyz
1 x,y,z
2 x,1/2-y,1/2+z
3 -x,-y,-z
4 -x,1/2+y,1/2-z
_cell_length_a                   17.560(2)
_cell_length_b                   16.463(2)
_cell_length_c                   16.112(2)
_cell_angle_alpha                90
_cell_angle_beta                 103.279(2)
_cell_angle_gamma                90
_cell_volume                     4533.29
loop_
_atom_site_label
_atom_site_type_symbol
_atom_site_fract_x
_atom_site_fract_y
_atom_site_fract_z
Cu1 Cu -0.09640(6) 0.19679(6) 0.34758(7)
O1 O -0.1724(3) 0.1404(3) 0.2609(3)
C1 C -0.2217(7) 0.0753(7) 0.1320(7)
F1 F -0.2825(4) 0.0500(5) 0.1574(4)
F2 F -0.2402(5) 0.1381(4) 0.0847(4)
F3 F -0.2055(4) 0.0169(4) 0.0841(4)
C2 C -0.1536(6) 0.0933(5) 0.2079(5)
C3 C -0.0818(6) 0.0615(5) 0.2118(6)
H1 H -0.071(4) 0.029(4) 0.173(4)
C4 C -0.0189(6) 0.0748(5) 0.2793(6)
C5 C 0.0613(6) 0.0358(7) 0.2785(7)
F4 F 0.0553(4) -0.0241(4) 0.2222(4)
F5 F 0.0923(3) 0.0036(4) 0.3538(4)
F6 F 0.1095(3) 0.0896(4) 0.2620(4)
O2 O -0.0160(3) 0.1172(3) 0.3434(4)
O3 O -0.1723(3) 0.2821(3) 0.3451(3)
C6 C -0.2245(7) 0.4094(6) 0.3553(7)
F7 F -0.2068(3) 0.4822(3) 0.3920(4)
F8 F -0.2453(4) 0.4194(3) 0.2730(4)
F9 F -0.2861(4) 0.3842(3) 0.3812(4)
C7 C -0.1572(6) 0.3507(5) 0.3816(5)
C8 C -0.0891(6) 0.3743(5) 0.4359(5)
H2 H -0.0857 0.4264 0.4588
C9 C -0.0243(6) 0.3228(6) 0.4582(5)
C10 C 0.0492(8) 0.3542(7) 0.5146(7)
F10 F 0.0909(4) 0.3047(4) 0.5619(5)
F11 F 0.0366(4) 0.4159(5) 0.5620(5)
F12 F 0.0914(4) 0.3911(5) 0.4701(5)
O4 O -0.0198(3) 0.2502(4) 0.4357(3)
Cu2 Cu -0.34141(6) -0.13239(6) 0.34775(6)
O5 O -0.4512(4) -0.1651(4) 0.3734(4)
C11 C -0.5709(7) -0.2317(8) 0.3393(9)
F13 F -0.5844(4) -0.2085(5) 0.4096(6)
F14 F -0.6380(4) -0.2289(5) 0.2836(6)
F15 F -0.5507(4) -0.3052(5) 0.3469(5)
C12 C -0.5080(6) -0.1782(6) 0.3123(7)
C13 C -0.5180(6) -0.1533(6) 0.2281(7)
H3 H -0.5645 -0.1658 0.1894
C14 C -0.4608(7) -0.1102(6) 0.1998(6)
C15 C -0.4820(11) -0.0834(12) 0.1065(9)
F16 F -0.5488(6) -0.1000(8) 0.0655(5)
F17 F -0.4829(7) -0.0040(8) 0.1044(6)
F18 F -0.4324(6) -0.0993(8) 0.0655(5)
O6 O -0.3935(4) -0.0897(4) 0.2387(4)
O7 O -0.3396(3) -0.2394(4) 0.2915(3)
C16 C -0.3544(8) -0.3801(7) 0.2722(8)
F19 F -0.4150(5) -0.3656(4) 0.2117(5)
F20 F -0.2977(5) -0.3982(4) 0.2385(5)
F21 F -0.3694(4) -0.4430(4) 0.3140(5)
C17 C -0.3339(5) -0.3044(6) 0.3303(6)
C18 C -0.3112(6) -0.3157(7) 0.4173(7)
H4 H -0.323(4) -0.368(4) 0.445(4)
C19 C -0.2880(6) -0.2498(7) 0.4723(6)
C20 C -0.2623(13) -0.2686(9) 0.5658(8)
F22 F -0.1921(7) -0.2350(6) 0.5968(5)
F23 F -0.3070(9) -0.2360(7) 0.6093(5)
F24 F -0.2548(5) -0.3429(5) 0.5886(4)
O8 O -0.2868(4) -0.1770(4) 0.4548(4)
O9 O -0.1432(3) 0.1065(3) 0.4552(3)
N1 N -0.2085(4) 0.0693(4) 0.4416(4)
C21 C -0.2789(5) 0.0989(5) 0.4711(6)
C22 C -0.2622(7) 0.0723(12) 0.5657(7)
H5 H -0.2571 0.0143 0.5692
H6 H -0.3046 0.0891 0.5902
H7 H -0.2145 0.0971 0.5965
C23 C -0.2864(10) 0.1898(8) 0.4626(13)
H8 H -0.296(5) 0.181(5) 0.396(5)
H9 H -0.244(7) 0.209(8) 0.498(8)
H10 H -0.331(5) 0.201(5) 0.475(5)
C24 C -0.3426(6) 0.0459(6) 0.4164(7)
C25 C -0.3762(7) 0.0955(8) 0.3278(8)
H11 H -0.4173 0.0647 0.2918
H12 H -0.3347 0.1039 0.2989
H13 H -0.3963 0.1471 0.3404
C26 C -0.4084(9) 0.0173(10) 0.4494(14)
H14 H -0.444(7) 0.026(7) 0.389(7)
H15 H -0.426(5) 0.061(5) 0.465(5)
N2 N -0.2979(4) -0.0233(4) 0.3899(4)
C27 C -0.2259(5) -0.0047(5) 0.4018(5)
C28 C -0.1645(5) -0.0537(4) 0.3761(5)
C29 C -0.1823(6) -0.0932(5) 0.2975(5)
H16 H -0.230(4) -0.091(4) 0.270(4)
C30 C -0.1270(6) -0.1402(6) 0.2741(6)
H17 H -0.136(4) -0.161(4) 0.231(4)
C31 C -0.0552(5) -0.1489(5) 0.3267(6)
C32 C 0.0034(6) -0.1962(6) 0.2983(6)
N3 N 0.0490(5) -0.2341(5) 0.2734(5)
C33 C -0.0373(6) -0.1123(6) 0.4044(7)
H18 H 0.004(4) -0.120(4) 0.434(4)
C34 C -0.0924(5) -0.0635(5) 0.4291(6)
H19 H -0.084(4) -0.045(4) 0.479(5)
N3C N -0.0490(5) 0.2659(5) 0.2266(5)
Cu1C Cu 0.09640(6) -0.30321(6) 0.15242(7)
loop_
_geom_bond_atom_site_label_1
_geom_bond_atom_site_label_2
_geom_bond_site_symmetry_1
_geom_bond_site_symmetry_2
Cu1 O1 1_555 1_555
O1 C2 1_555 1_555
C1 F1 1_555 1_555
F2 C1 1_555 1_555
F3 C1 1_555 1_555
C2 C1 1_555 1_555
C3 C2 1_555 1_555
H1 C3 1_555 1_555
C4 C3 1_555 1_555
C5 C4 1_555 1_555
F4 C5 1_555 1_555
F5 C5 1_555 1_555
F6 C5 1_555 1_555
O2 Cu1 1_555 1_555
O3 Cu1 1_555 1_555
C6 F7 1_555 1_555
F8 C6 1_555 1_555
F9 C6 1_555 1_555
C7 O3 1_555 1_555
C8 C7 1_555 1_555
H2 C8 1_555 1_555
C9 C8 1_555 1_555
C10 C9 1_555 1_555
F10 C10 1_555 1_555
F11 C10 1_555 1_555
F12 C10 1_555 1_555
O4 Cu1 1_555 1_555
Cu2 O5 1_555 1_555
O5 C12 1_555 1_555
C11 F13 1_555 1_555
F14 C11 1_555 1_555
F15 C11 1_555 1_555
C12 C11 1_555 1_555
C13 C12 1_555 1_555
H3 C13 1_555 1_555
C14 C13 1_555 1_555
C15 C14 1_555 1_555
F16 C15 1_555 1_555
F17 C15 1_555 1_555
F18 C15 1_555 1_555
O6 Cu2 1_555 1_555
O7 Cu2 1_555 1_555
C16 F19 1_555 1_555
F20 C16 1_555 1_555
F21 C16 1_555 1_555
C17 O7 1_555 1_555
C18 C17 1_555 1_555
H4 C18 1_555 1_555
C19 C18 1_555 1_555
C20 C19 1_555 1_555
F22 C20 1_555 1_555
F23 C20 1_555 1_555
F24 C20 1_555 1_555
O8 Cu2 1_555 1_555
O9 Cu1 1_555 1_555
N1 O9 1_555 1_555
C21 N1 1_555 1_555
C22 C21 1_555 1_555
H5 C22 1_555 1_555
H6 C22 1_555 1_555
H7 C22 1_555 1_555
C23 C21 1_555 1_555
H8 C23 1_555 1_555
H9 C23 1_555 1_555
H10 C23 1_555 1_555
C24 C21 1_555 1_555
C25 C24 1_555 1_555
H11 C25 1_555 1_555
H12 C25 1_555 1_555
H13 C25 1_555 1_555
C26 C24 1_555 1_555
H14 C26 1_555 1_555
H15 C26 1_555 1_555
N2 Cu2 1_555 1_555
C27 N1 1_555 1_555
C28 C27 1_555 1_555
C29 C28 1_555 1_555
H16 C29 1_555 1_555
C30 C29 1_555 1_555
H17 C30 1_555 1_555
C31 C30 1_555 1_555
C32 C31 1_555 1_555
N3 C32 1_555 1_555
C33 C31 1_555 1_555
H18 C33 1_555 1_555
C34 C28 1_555 1_555
H19 C34 1_555 1_555
N3C Cu1 1_555 1_555
Cu1C N3 1_555 1_555
C4 O2 1_555 1_555
C6 C7 1_555 1_555
C9 O4 1_555 1_555
C14 O6 1_555 1_555
C16 C17 1_555 1_555
C19 O8 1_555 1_555
C24 N2 1_555 1_555
N2 C27 1_555 1_555
C33 C34 1_555 1_555

#END
