
#######################################################################
#
#                 Cambridge Crystallographic Data Centre
#                                CCDC 
#
#######################################################################
#
# If this CIF has been generated from an entry in the Cambridge 
# Structural Database, then it will include bibliographic, chemical, 
# crystal, experimental, refinement or atomic coordinate data resulting 
# from the CCDC's data processing and validation procedures.
#
#######################################################################

data_IBELEI
_symmetry_cell_setting           monoclinic
_symmetry_space_group_name_H-M   'P 21/n'
_symmetry_Int_Tables_number      14
_space_group_name_Hall           '-P 2yn'
loop_
_symmetry_equiv_pos_site_id
_symmetry_equiv_pos_as_xyz
1 x,y,z
2 1/2-x,1/2+y,1/2-z
3 -x,-y,-z
4 1/2+x,1/2-y,1/2+z
_cell_length_a                   11.6350(6)
_cell_length_b                   19.6230(11)
_cell_length_c                   14.7216(8)
_cell_angle_alpha                90
_cell_angle_beta                 106.6860(10)
_cell_angle_gamma                90
_cell_volume                     3219.61
loop_
_atom_site_label
_atom_site_type_symbol
_atom_site_fract_x
_atom_site_fract_y
_atom_site_fract_z
O24 O 0.3252(14) 0.7780(12) 0.6870(13)
H11 H 0.3618 0.8158 0.7161
H12 H 0.3671 0.7470 0.6645
O26 O 0.601(2) 0.0135(11) 0.1627(17)
O27 O 0.372(2) 0.7629(14) 0.891(2)
W1 W 0.78132(6) 0.98891(3) 0.77389(4)
W2 W 1.05943(6) 1.07335(3) 0.79681(5)
W3 W 1.01223(7) 1.17933(3) 0.97819(5)
W4 W 0.72259(6) 0.91744(4) 0.97576(5)
W5 W 1.05285(6) 0.89386(3) 0.82192(5)
W6 W 0.73290(6) 1.09605(3) 0.95064(5)
Cu1 Cu 0.9736(2) 0.74340(12) 0.65913(16)
P1 P 1.0000 1.0000 1.0000
O1 O 1.0191(11) 1.2641(5) 0.9696(9)
N1 N 0.8358(13) 0.7530(7) 0.7128(12)
N2 N 1.0338(13) 0.6798(8) 0.7696(12)
O2 O 1.0754(12) 0.8424(7) 0.7370(11)
O3 O 0.5854(15) 0.8758(9) 0.9662(15)
O4 O 0.8443(14) 1.1639(11) 0.9372(9)
O5 O 1.0065(12) 1.1693(10) 1.1023(10)
O6 O 0.8950(17) 0.8043(9) 0.5509(11)
H1 H 0.9381 0.8299 0.5217
H2 H 0.8143 0.8059 0.5313
C1 C 0.7567(16) 0.7070(11) 0.8363(14)
O7 O 0.7211(18) 1.0643(7) 0.8272(11)
O8 O 0.8962(12) 1.0520(6) 0.7481(14)
O9 O 1.0210(14) 1.1538(8) 0.8564(9)
C2 C 0.7435(19) 0.7950(10) 0.6833(16)
H3 H 0.7033 0.7836 0.6185
H4 H 0.7741 0.8405 0.6841
C3 C 0.9550(16) 0.6692(8) 0.8167(13)
O10 O 0.6795(14) 0.9818(7) 0.6653(9)
O11 O 1.0893(12) 1.1071(7) 0.7019(10)
O12 O 0.6065(12) 1.1447(7) 0.9291(9)
O13 O 0.8897(12) 0.9180(6) 0.7619(15)
O14 O 1.1750(14) 1.1567(9) 1.0229(10)
O15 O 1.0979(13) 0.9806(6) 0.7877(16)
C4 C 0.8427(16) 0.7114(9) 0.7873(14)
C5 C 0.6510(16) 0.7952(13) 0.737(2)
H5 H 0.5838 0.8257 0.7196
C6 C 0.887(3) 0.6137(11) 0.9496(19)
O16 O 0.6748(19) 1.0103(6) 0.9772(11)
O17 O 0.7142(17) 0.9323(7) 0.8452(11)
C7 C 0.660(2) 0.7519(13) 0.8095(19)
H6 H 0.6036 0.7525 0.8456
O18 O 1.2175(16) 1.0784(9) 0.8870(11)
O19 O 1.2030(14) 0.8914(11) 0.9155(11)
N3 N 0.901(3) 0.5777(9) 1.0128(14)
N4 N 0.6975(19) 0.6569(12) 0.9569(15)
H7 H 0.7102 0.6270 1.0051
H8 H 0.6304 0.6824 0.9410
C8 C 1.080(3) 0.5886(14) 0.917(2)
H9 H 1.0989 0.5549 0.9664
C9 C 1.135(2) 0.6430(12) 0.794(2)
H10 H 1.1933 0.6465 0.7597
O20 O 0.9415(17) 1.0681(9) 1.0194(13)
O21 O 0.8648(19) 1.0010(10) 0.9476(16)
O22 O 1.0663(18) 1.0590(10) 0.9622(13)
O23 O 0.981(2) 0.9908(11) 0.8942(15)
C10 C 0.773(2) 0.6610(19) 0.914(2)
C11 C 0.974(2) 0.6245(12) 0.8921(17)
C12 C 1.159(3) 0.5990(18) 0.865(2)
H13 H 1.2309 0.5746 0.8794
O25 O 1.1092(16) 0.7290(9) 0.6080(13)
H14 H 1.1701 0.7590 0.6201
H15 H 1.1089 0.6930 0.5700
W1B W 1.21868(6) 1.01109(3) 1.22611(4)
W2B W 0.94057(6) 0.92665(3) 1.20319(5)
W3B W 0.98777(7) 0.82067(3) 1.02181(5)
W4B W 1.27741(6) 1.08256(4) 1.02424(5)
W5B W 0.94715(6) 1.10614(3) 1.17808(5)
W6B W 1.26710(6) 0.90395(3) 1.04936(5)
Cu1B Cu 1.0264(2) 1.25660(12) 1.34087(16)
Cu1A Cu 0.5264(2) 1.24340(12) 0.84087(16)
Cu1C Cu 1.4736(2) 0.75660(12) 1.15913(16)
O1B O 0.9809(11) 0.7359(5) 1.0304(9)
N1B N 1.1642(13) 1.2470(7) 1.2872(12)
N2B N 0.9662(13) 1.3202(8) 1.2304(12)
O2B O 0.9246(12) 1.1576(7) 1.2630(11)
O3B O 1.4146(15) 1.1242(9) 1.0338(15)
O4B O 1.1557(14) 0.8361(11) 1.0628(9)
O5B O 0.9935(12) 0.8307(10) 0.8977(10)
O6B O 1.1050(17) 1.1957(9) 1.4491(11)
H1B H 1.0619 1.1701 1.4783
H2B H 1.1857 1.1941 1.4687
C1B C 1.2433(16) 1.2930(11) 1.1637(14)
O7B O 1.2789(18) 0.9357(7) 1.1728(11)
O8B O 1.1038(12) 0.9480(6) 1.2519(14)
O9B O 0.9790(14) 0.8462(8) 1.1436(9)
C2B C 1.2565(19) 1.2050(10) 1.3167(16)
H3B H 1.2967 1.2164 1.3815
H4B H 1.2259 1.1595 1.3159
C3B C 1.0450(16) 1.3308(8) 1.1833(13)
O10B O 1.3205(14) 1.0182(7) 1.3347(9)
O11B O 0.9107(12) 0.8929(7) 1.2981(10)
O12B O 1.3935(12) 0.8553(7) 1.0709(9)
O12A O 0.8935(12) 0.6447(7) 0.5709(9)
O12C O 1.1065(12) 1.3553(7) 1.4291(9)
O13B O 1.1103(12) 1.0820(6) 1.2381(15)
O14B O 0.8250(14) 0.8433(9) 0.9771(10)
O15B O 0.9021(13) 1.0194(6) 1.2123(16)
C4B C 1.1573(16) 1.2886(9) 1.2127(14)
C5B C 1.3490(16) 1.2048(13) 1.263(2)
H5B H 1.4162 1.1743 1.2804
C6B C 1.113(3) 1.3863(11) 1.0504(19)
O16B O 1.3252(19) 0.9897(6) 1.0228(11)
O17B O 1.2858(17) 1.0677(7) 1.1548(11)
C7B C 1.340(2) 1.2481(13) 1.1905(19)
H6B H 1.3964 1.2475 1.1544
O18B O 0.7825(16) 0.9216(9) 1.1130(11)
O19B O 0.7970(14) 1.1086(11) 1.0845(11)
N3B N 1.099(3) 1.4223(9) 0.9872(14)
N4B N 1.3025(19) 1.3431(12) 1.0431(15)
H7B H 1.2898 1.3730 0.9949
H8B H 1.3696 1.3176 1.0590
C8B C 0.920(3) 1.4114(14) 1.083(2)
H9B H 0.9011 1.4451 1.0336
C9B C 0.865(2) 1.3570(12) 1.206(2)
H10B H 0.8067 1.3535 1.2403
O20B O 1.0585(17) 0.9319(9) 0.9806(13)
O21B O 1.1352(19) 0.9990(10) 1.0524(16)
O22B O 0.9337(18) 0.9410(10) 1.0378(13)
O23B O 1.019(2) 1.0092(11) 1.1058(15)
C10B C 1.227(2) 1.3390(19) 1.086(2)
C11B C 1.026(2) 1.3755(12) 1.1079(17)
C12B C 0.841(3) 1.4010(18) 1.135(2)
H13B H 0.7691 1.4254 1.1206
O25B O 0.8908(16) 1.2710(9) 1.3920(13)
H14B H 0.8299 1.2410 1.3799
H15B H 0.8911 1.3070 1.4300
loop_
_geom_bond_atom_site_label_1
_geom_bond_atom_site_label_2
_geom_bond_site_symmetry_1
_geom_bond_site_symmetry_2
W1 O7 1_555 1_555
W2 O8 1_555 1_555
W3 O1 1_555 1_555
W4 O3 1_555 1_555
W5 O2 1_555 1_555
W6 O4 1_555 1_555
Cu1 N1 1_555 1_555
P1 O20 1_555 1_555
N1 C2 1_555 1_555
N2 Cu1 1_555 1_555
O2 Cu1 1_555 1_555
O4 W3 1_555 1_555
O5 W3 1_555 1_555
O6 Cu1 1_555 1_555
H1 O6 1_555 1_555
H2 O6 1_555 1_555
C1 C4 1_555 1_555
O7 W6 1_555 1_555
O8 W1 1_555 1_555
O9 W2 1_555 1_555
C2 H3 1_555 1_555
H4 C2 1_555 1_555
C3 N2 1_555 1_555
O10 W1 1_555 1_555
O11 W2 1_555 1_555
O12 W6 1_555 1_555
O13 W1 1_555 1_555
O14 W3 1_555 1_555
O15 W2 1_555 1_555
C4 N1 1_555 1_555
C5 C2 1_555 1_555
H5 C5 1_555 1_555
C6 N3 1_555 1_555
O16 W4 1_555 1_555
O17 W1 1_555 1_555
C7 C1 1_555 1_555
H6 C7 1_555 1_555
O18 W2 1_555 1_555
O19 W5 1_555 1_555
N4 H7 1_555 1_555
H8 N4 1_555 1_555
C8 H9 1_555 1_555
C9 N2 1_555 1_555
H10 C9 1_555 1_555
O20 W3 1_555 1_555
O21 W1 1_555 1_555
O22 W2 1_555 1_555
O23 W1 1_555 1_555
C10 C1 1_555 1_555
O24 H11 1_555 1_555
H12 O24 1_555 1_555
C11 C3 1_555 1_555
C12 C8 1_555 1_555
H13 C12 1_555 1_555
O25 Cu1 1_555 1_555
H14 O25 1_555 1_555
H15 O25 1_555 1_555
W1B O7B 1_555 1_555
W2B O8B 1_555 1_555
W3B O1B 1_555 1_555
W4B O14 1_555 1_555
W5B O5 1_555 1_555
W6B O19 1_555 1_555
Cu1B N1B 1_555 1_555
Cu1A O12 1_555 1_555
Cu1C O12B 1_555 1_555
N1B C2B 1_555 1_555
N2B Cu1B 1_555 1_555
O2B W5B 1_555 1_555
O3B W4B 1_555 1_555
O4B W3B 1_555 1_555
O5B W5 1_555 1_555
O6B Cu1B 1_555 1_555
H1B O6B 1_555 1_555
H2B O6B 1_555 1_555
C1B C4B 1_555 1_555
O7B W6B 1_555 1_555
O8B W1B 1_555 1_555
O9B W2B 1_555 1_555
C2B H3B 1_555 1_555
H4B C2B 1_555 1_555
C3B N2B 1_555 1_555
O10B W1B 1_555 1_555
O11B W2B 1_555 1_555
O12B W6B 1_555 1_555
O12A Cu1 1_555 1_555
O12C Cu1B 1_555 1_555
O13B W1B 1_555 1_555
O14B W4 1_555 1_555
O15B W2B 1_555 1_555
C4B N1B 1_555 1_555
C5B C2B 1_555 1_555
H5B C5B 1_555 1_555
C6B N3B 1_555 1_555
O16B W4B 1_555 1_555
O17B W1B 1_555 1_555
C7B C1B 1_555 1_555
H6B C7B 1_555 1_555
O18B W4 1_555 1_555
O19B W6 1_555 1_555
N4B H7B 1_555 1_555
H8B N4B 1_555 1_555
C8B H9B 1_555 1_555
C9B N2B 1_555 1_555
H10B C9B 1_555 1_555
O20B W5 1_555 1_555
O21B P1 1_555 1_555
O22B W4 1_555 1_555
O23B P1 1_555 1_555
C10B C1B 1_555 1_555
C11B C3B 1_555 1_555
C12B C8B 1_555 1_555
H13B C12B 1_555 1_555
O25B Cu1B 1_555 1_555
H14B O25B 1_555 1_555
H15B O25B 1_555 1_555
W2 O23 1_555 1_555
W3 O9 1_555 1_555
W3 O22 1_555 1_555
W4 O17 1_555 1_555
W4 O21 1_555 1_555
W5 O13 1_555 1_555
W5 O15 1_555 1_555
W5 O23 1_555 1_555
W6 O16 1_555 1_555
W6 O20 1_555 1_555
W6 O21 1_555 1_555
P1 O21 1_555 1_555
P1 O22 1_555 1_555
P1 O23 1_555 1_555
P1 O20B 1_555 1_555
P1 O22B 1_555 1_555
C3 C4 1_555 1_555
C5 C7 1_555 1_555
C6 C10 1_555 1_555
C6 C11 1_555 1_555
O18 W4B 1_555 1_555
N4 C10 1_555 1_555
C8 C11 1_555 1_555
C9 C12 1_555 1_555
O20 O21 1_555 1_555
O20 W5B 1_555 1_555
O20 O23B 1_555 1_555
O21 O23 1_555 1_555
O21 O22B 1_555 1_555
O22 O23 1_555 1_555
O22 W4B 1_555 1_555
O22 O21B 1_555 1_555
O23 O20B 1_555 1_555
W1B O21B 1_555 1_555
W1B O23B 1_555 1_555
W2B O18B 1_555 1_555
W2B O22B 1_555 1_555
W2B O23B 1_555 1_555
W3B O5B 1_555 1_555
W3B O9B 1_555 1_555
W3B O14B 1_555 1_555
W3B O20B 1_555 1_555
W3B O22B 1_555 1_555
W4B O17B 1_555 1_555
W4B O21B 1_555 1_555
W5B O13B 1_555 1_555
W5B O15B 1_555 1_555
W5B O19B 1_555 1_555
W5B O23B 1_555 1_555
W6B O4B 1_555 1_555
W6B O16B 1_555 1_555
W6B O20B 1_555 1_555
W6B O21B 1_555 1_555
Cu1B O2B 1_555 1_555
C3B C4B 1_555 1_555
C5B C7B 1_555 1_555
C6B C10B 1_555 1_555
C6B C11B 1_555 1_555
N4B C10B 1_555 1_555
C8B C11B 1_555 1_555
C9B C12B 1_555 1_555
O20B O21B 1_555 1_555
O21B O23B 1_555 1_555
O22B O23B 1_555 1_555

#END
