
#######################################################################
#
#                 Cambridge Crystallographic Data Centre
#                                CCDC 
#
#######################################################################
#
# If this CIF has been generated from an entry in the Cambridge 
# Structural Database, then it will include bibliographic, chemical, 
# crystal, experimental, refinement or atomic coordinate data resulting 
# from the CCDC's data processing and validation procedures.
#
#######################################################################

data_IBERUE
_symmetry_cell_setting           monoclinic
_symmetry_space_group_name_H-M   'C 2/c'
_symmetry_Int_Tables_number      15
_space_group_name_Hall           '-C 2yn'
loop_
_symmetry_equiv_pos_site_id
_symmetry_equiv_pos_as_xyz
1 x,y,z
2 -x,y,1/2-z
3 1/2+x,1/2+y,z
4 1/2-x,1/2+y,1/2-z
5 -x,-y,-z
6 x,-y,1/2+z
7 1/2-x,1/2-y,-z
8 1/2+x,1/2-y,1/2+z
_cell_length_a                   17.160(7)
_cell_length_b                   13.169(6)
_cell_length_c                   17.463(8)
_cell_angle_alpha                90
_cell_angle_beta                 103.938(8)
_cell_angle_gamma                90
_cell_volume                     3830.1
loop_
_atom_site_label
_atom_site_type_symbol
_atom_site_fract_x
_atom_site_fract_y
_atom_site_fract_z
Cu1 Cu 0.0000 0.96515(2) 0.2500
Cu2 Cu -0.5000 0.5000 0.0000
C1 C -0.32021(10) 0.63424(14) 0.19939(11)
C2 C -0.39921(11) 0.58417(14) 0.20022(11)
C3 C -0.24819(10) 0.61472(14) 0.25905(10)
C4 C -0.24935(11) 0.75512(17) 0.13692(12)
C5 C -0.17780(10) 0.67274(14) 0.25768(11)
C6 C -0.11038(11) 0.81178(15) 0.19310(12)
C7 C -0.24293(13) 0.53937(17) 0.31793(13)
C8 C -0.31938(11) 0.70177(16) 0.13989(11)
C9 C -0.18043(11) 0.74394(15) 0.19608(11)
C10 C -0.10397(13) 0.5790(2) 0.37216(14)
H1 H -0.0566 0.5671 0.4101
C11 C -0.10593(12) 0.65219(17) 0.31590(13)
C12 C -0.17236(15) 0.5223(2) 0.37298(16)
C14 C -0.65287(18) 0.5783(3) 0.00924(18)
H2 H -0.6365 0.6148 0.0588
H3 H -0.7106 0.5686 -0.0026
C15 C -0.63001(18) 0.6376(2) -0.05617(18)
H4 H -0.6544 0.6071 -0.1068
H5 H -0.6491 0.7070 -0.0564
O2 O -0.08118(8) 0.86279(11) 0.25490(9)
O3 O -0.41429(8) 0.56754(11) 0.26665(8)
O4 O -0.44683(9) 0.56283(15) 0.13636(9)
O5 O -0.08801(10) 0.81723(15) 0.13082(9)
N1 N -0.61174(16) 0.4794(2) 0.01510(16)
N2 N -0.54236(14) 0.63650(17) -0.04280(13)
H11 H -0.2500(16) 0.803(2) 0.0934(16)
H12 H -0.2855(17) 0.508(2) 0.3218(15)
H13 H -0.0576(17) 0.688(3) 0.3141(17)
H14 H -0.3696(16) 0.710(2) 0.1032(15)
H18 H -0.165(2) 0.465(3) 0.411(2)
H19 H -0.530(3) 0.691(5) -0.001(3)
H20 H -0.637(4) 0.447(5) -0.016(3)
H21 H -0.523(2) 0.644(3) -0.081(2)
H22 H -0.616(3) 0.471(4) 0.066(3)
Cu1B Cu -0.5000 0.46515(2) 0.2500
Cu1B_2 Cu 0.5000 0.46515(2) 0.2500
Cu2A Cu 0.5000 0.5000 0.5000
C1A C 0.32021(10) 0.63424(14) 0.30061(11)
C2A C 0.39921(11) 0.58417(14) 0.29978(11)
C3A C 0.24819(10) 0.61472(14) 0.24095(10)
C4A C 0.24935(11) 0.75512(17) 0.36308(12)
C5A C 0.17780(10) 0.67274(14) 0.24232(11)
C6A C 0.11038(11) 0.81178(15) 0.30690(12)
C7A C 0.24293(13) 0.53937(17) 0.18207(13)
C8A C 0.31938(11) 0.70177(16) 0.36011(11)
C9A C 0.18043(11) 0.74394(15) 0.30392(11)
C10A C 0.10397(13) 0.5790(2) 0.12784(14)
H1A H 0.0566 0.5671 0.0899
C11A C 0.10593(12) 0.65219(17) 0.18410(13)
C12A C 0.17236(15) 0.5223(2) 0.12702(16)
C14D C -0.34713(18) 0.4217(3) -0.00924(18)
H2D H -0.3635 0.3852 -0.0588
H3D H -0.2894 0.4314 0.0026
C15D C -0.36999(18) 0.3624(2) 0.05617(18)
H4D H -0.3456 0.3929 0.1068
H5D H -0.3509 0.2930 0.0564
O2A O 0.08118(8) 0.86279(11) 0.24510(9)
O3A O 0.41429(8) 0.56754(11) 0.23335(8)
O3B O 0.08571(8) 1.06754(11) 0.26665(8)
O3C O -0.08571(8) 1.06754(11) 0.23335(8)
O4A O 0.44683(9) 0.56283(15) 0.36364(9)
O4D O -0.55317(9) 0.43717(15) -0.13636(9)
O5A O 0.08801(10) 0.81723(15) 0.36918(9)
N1D N -0.38826(16) 0.5206(2) -0.01510(16)
N2D N -0.45764(14) 0.36350(17) 0.04280(13)
H11A H 0.2500(16) 0.803(2) 0.4066(16)
H12A H 0.2855(17) 0.508(2) 0.1782(15)
H13A H 0.0576(17) 0.688(3) 0.1859(17)
H14A H 0.3696(16) 0.710(2) 0.3968(15)
H18A H 0.165(2) 0.465(3) 0.089(2)
H19D H -0.470(3) 0.309(5) 0.001(3)
H20D H -0.363(4) 0.553(5) 0.016(3)
H21D H -0.477(2) 0.356(3) 0.081(2)
H22D H -0.384(3) 0.529(4) -0.066(3)
O1 O 0.00947(15) 0.6814(2) -0.06096(14)
C13 C 0.05298(16) 0.6565(2) -0.10356(15)
N3 N 0.0929(2) 0.5691(2) -0.10175(19)
N4 N 0.0712(3) 0.7130(2) -0.16038(18)
H6 H 0.0515 0.7725 -0.1727
C16 C 0.1320(3) 0.5588(3) -0.1641(2)
H7 H 0.1048 0.5098 -0.2029
H8 H 0.1876 0.5385 -0.1446
C17 C 0.1256(3) 0.6661(4) -0.1982(2)
H9 H 0.1772 0.7001 -0.1856
H10 H 0.1048 0.6652 -0.2550
H15 H 0.0868(18) 0.522(3) -0.0755(17)
O6 O -0.10129(15) 0.63642(17) 0.03016(12)
H16 H -0.098(2) 0.6876(19) 0.0593(19)
H17 H -0.0656(17) 0.644(3) 0.0042(19)
loop_
_geom_bond_atom_site_label_1
_geom_bond_atom_site_label_2
_geom_bond_site_symmetry_1
_geom_bond_site_symmetry_2
Cu1 O2 1_555 1_555
Cu2 O4 1_555 1_555
C1 C2 1_555 1_555
C2 O3 1_555 1_555
C3 C1 1_555 1_555
C4 C8 1_555 1_555
C5 C3 1_555 1_555
C6 C9 1_555 1_555
C7 C3 1_555 1_555
C8 C1 1_555 1_555
C9 C4 1_555 1_555
C10 H1 1_555 1_555
C11 C5 1_555 1_555
O1 C13 1_555 1_555
C12 C7 1_555 1_555
C13 N3 1_555 1_555
C14 H2 1_555 1_555
H3 C14 1_555 1_555
C15 C14 1_555 1_555
H4 C15 1_555 1_555
H5 C15 1_555 1_555
O2 C6 1_555 1_555
O3 Cu1B 1_555 1_555
O4 C2 1_555 1_555
O5 C6 1_555 1_555
N1 Cu2 1_555 1_555
N2 Cu2 1_555 1_555
O6 H16 1_555 1_555
N3 C16 1_555 1_555
N4 C13 1_555 1_555
H6 N4 1_555 1_555
C16 H7 1_555 1_555
H8 C16 1_555 1_555
C17 N4 1_555 1_555
H9 C17 1_555 1_555
H10 C17 1_555 1_555
H11 C4 1_555 1_555
H12 C7 1_555 1_555
H13 C11 1_555 1_555
H14 C8 1_555 1_555
H15 N3 1_555 1_555
H17 O6 1_555 1_555
H18 C12 1_555 1_555
H19 N2 1_555 1_555
H20 N1 1_555 1_555
H21 N2 1_555 1_555
H22 N1 1_555 1_555
Cu1B_2 O3A 1_555 1_555
Cu2A O4A 1_555 1_555
C1A C2A 1_555 1_555
C2A O3A 1_555 1_555
C3A C1A 1_555 1_555
C4A C8A 1_555 1_555
C5A C3A 1_555 1_555
C6A C9A 1_555 1_555
C7A C3A 1_555 1_555
C8A C1A 1_555 1_555
C9A C4A 1_555 1_555
C10A H1A 1_555 1_555
C11A C5A 1_555 1_555
C12A C7A 1_555 1_555
C14D H2D 1_555 1_555
H3D C14D 1_555 1_555
C15D C14D 1_555 1_555
H4D C15D 1_555 1_555
H5D C15D 1_555 1_555
O2A Cu1 1_555 1_555
O3B Cu1 1_555 1_555
O3C Cu1 1_555 1_555
O4A C2A 1_555 1_555
O4D Cu2 1_555 1_555
O5A C6A 1_555 1_555
N1D Cu2 1_555 1_555
N2D Cu2 1_555 1_555
H11A C4A 1_555 1_555
H12A C7A 1_555 1_555
H13A C11A 1_555 1_555
H14A C8A 1_555 1_555
H18A C12A 1_555 1_555
H19D N2D 1_555 1_555
H20D N1D 1_555 1_555
H21D N2D 1_555 1_555
H22D N1D 1_555 1_555
C5 C9 1_555 1_555
C10 C11 1_555 1_555
C10 C12 1_555 1_555
C14 N1 1_555 1_555
C15 N2 1_555 1_555
C16 C17 1_555 1_555
C5A C9A 1_555 1_555
C6A O2A 1_555 1_555
C10A C11A 1_555 1_555
C10A C12A 1_555 1_555
C14D N1D 1_555 1_555
C15D N2D 1_555 1_555

#END
