
#######################################################################
#
#                 Cambridge Crystallographic Data Centre
#                                CCDC 
#
#######################################################################
#
# If this CIF has been generated from an entry in the Cambridge 
# Structural Database, then it will include bibliographic, chemical, 
# crystal, experimental, refinement or atomic coordinate data resulting 
# from the CCDC's data processing and validation procedures.
#
#######################################################################

data_IBESEO
_symmetry_cell_setting           monoclinic
_symmetry_space_group_name_H-M   'P 21/n'
_symmetry_Int_Tables_number      14
_space_group_name_Hall           '-P 2yn'
loop_
_symmetry_equiv_pos_site_id
_symmetry_equiv_pos_as_xyz
1 x,y,z
2 1/2+x,1/2-y,1/2+z
3 -x,-y,-z
4 1/2-x,1/2+y,1/2-z
_cell_length_a                   12.444(4)
_cell_length_b                   8.089(2)
_cell_length_c                   22.371(7)
_cell_angle_alpha                90
_cell_angle_beta                 91.041(7)
_cell_angle_gamma                90
_cell_volume                     2251.48
loop_
_atom_site_label
_atom_site_type_symbol
_atom_site_fract_x
_atom_site_fract_y
_atom_site_fract_z
Bi1 Bi 0.789664(15) 0.46490(2) 0.256122(10)
O1 O 0.9605(3) 0.4041(4) 0.27591(17)
O2 O 0.8736(3) 0.1685(4) 0.26713(18)
O3 O 0.8086(3) 0.6709(4) 0.32359(15)
O4 O 0.8011(3) 0.4297(5) 0.36845(18)
O5 O 0.8641(3) 0.6853(4) 0.21116(15)
O6 O 0.8767(3) 0.4678(5) 0.15335(19)
C1 C 0.9605(4) 0.2442(6) 0.2781(2)
C2 C 0.8122(4) 0.5825(8) 0.3713(3)
C3 C 0.8979(4) 0.6155(7) 0.1633(2)
C4 C 1.0584(4) 0.1549(6) 0.2942(2)
C5 C 1.0536(4) -0.0160(6) 0.3042(3)
H1 H 0.9888 -0.0722 0.2994
C6 C 1.1462(5) -0.1012(7) 0.3214(3)
C7 C 1.2406(5) -0.0166(7) 0.3262(3)
H2 H 1.3032 -0.0745 0.3358
C8 C 1.2467(5) 0.1533(7) 0.3173(3)
H3 H 1.3116 0.2090 0.3223
C9 C 1.1548(4) 0.2367(7) 0.3008(2)
H4 H 1.1578 0.3501 0.2941
C10 C 1.1394(6) -0.2867(8) 0.3353(3)
H5 H 1.1678 -0.3487 0.3026
H6 H 1.0657 -0.3171 0.3410
H7 H 1.1804 -0.3104 0.3711
C11 C 0.8348(4) 0.6685(7) 0.4295(2)
C12 C 0.8259(4) 0.8397(8) 0.4337(3)
H8 H 0.8069 0.8998 0.3996
C13 C 0.8444(5) 0.9231(7) 0.4867(3)
C14 C 0.8768(5) 0.8300(9) 0.5347(3)
H9 H 0.8931 0.8844 0.5704
C15 C 0.8866(5) 0.6613(9) 0.5334(3)
H10 H 0.9083 0.6031 0.5674
C16 C 0.8635(5) 0.5795(8) 0.4801(3)
H11 H 0.8672 0.4648 0.4785
C17 C 0.8312(7) 1.1031(10) 0.4917(3)
H12 H 0.7671 1.1271 0.5133
H13 H 0.8255 1.1505 0.4524
H14 H 0.8923 1.1493 0.5125
C18 C 0.9633(4) 0.7144(7) 0.1228(2)
C19 C 0.9802(4) 0.8783(7) 0.1322(2)
H15 H 0.9484 0.9279 0.1650
C20 C 1.0432(4) 0.9761(7) 0.0951(3)
C21 C 1.0895(5) 0.8982(9) 0.0475(3)
H16 H 1.1325 0.9591 0.0220
C22 C 1.0742(5) 0.7341(10) 0.0365(3)
H17 H 1.1076 0.6848 0.0042
C23 C 1.0097(5) 0.6402(8) 0.0728(3)
H18 H 0.9972 0.5293 0.0643
C24 C 1.0589(6) 1.1559(9) 0.1070(3)
H19 H 1.1339 1.1824 0.1049
H20 H 1.0333 1.1820 0.1461
H21 H 1.0195 1.2190 0.0776
Bi1C Bi 0.710336(15) -0.03510(2) 0.243878(10)
Bi1C_2 Bi 0.710336(15) 0.96490(2) 0.243878(10)
O2C O 0.6264(3) 0.6685(4) 0.23287(18)
O3C O 0.6914(3) 0.1709(4) 0.17641(15)
O5C O 0.6359(3) 0.1853(4) 0.28884(15)
loop_
_geom_bond_atom_site_label_1
_geom_bond_atom_site_label_2
_geom_bond_site_symmetry_1
_geom_bond_site_symmetry_2
Bi1 O1 1_555 1_555
O1 C1 1_555 1_555
O2 Bi1 1_555 1_555
O3 Bi1 1_555 1_555
O4 Bi1 1_555 1_555
O5 Bi1 1_555 1_555
O6 Bi1 1_555 1_555
C1 O2 1_555 1_555
C2 O3 1_555 1_555
C3 O5 1_555 1_555
C4 C1 1_555 1_555
C5 C4 1_555 1_555
H1 C5 1_555 1_555
C6 C5 1_555 1_555
C7 C6 1_555 1_555
H2 C7 1_555 1_555
C8 C7 1_555 1_555
H3 C8 1_555 1_555
C9 C4 1_555 1_555
H4 C9 1_555 1_555
C10 C6 1_555 1_555
H5 C10 1_555 1_555
H6 C10 1_555 1_555
H7 C10 1_555 1_555
C11 C2 1_555 1_555
C12 C11 1_555 1_555
H8 C12 1_555 1_555
C13 C12 1_555 1_555
C14 C13 1_555 1_555
H9 C14 1_555 1_555
C15 C14 1_555 1_555
H10 C15 1_555 1_555
C16 C11 1_555 1_555
H11 C16 1_555 1_555
C17 C13 1_555 1_555
H12 C17 1_555 1_555
H13 C17 1_555 1_555
H14 C17 1_555 1_555
C18 C3 1_555 1_555
C19 C18 1_555 1_555
H15 C19 1_555 1_555
C20 C19 1_555 1_555
C21 C20 1_555 1_555
H16 C21 1_555 1_555
C22 C21 1_555 1_555
H17 C22 1_555 1_555
C23 C18 1_555 1_555
H18 C23 1_555 1_555
C24 C20 1_555 1_555
H19 C24 1_555 1_555
H20 C24 1_555 1_555
H21 C24 1_555 1_555
Bi1C O2 1_555 1_555
Bi1C_2 O3 1_555 1_555
O2C Bi1 1_555 1_555
O3C Bi1 1_555 1_555
O5C Bi1 1_555 1_555
O4 C2 1_555 1_555
O5 Bi1C_2 1_555 1_555
O6 C3 1_555 1_555
C8 C9 1_555 1_555
C15 C16 1_555 1_555
C22 C23 1_555 1_555
Bi1C O3C 1_555 1_555
Bi1C O5C 1_555 1_555
Bi1C_2 O2C 1_555 1_555

#END
