
#######################################################################
#
#                 Cambridge Crystallographic Data Centre
#                                CCDC 
#
#######################################################################
#
# If this CIF has been generated from an entry in the Cambridge 
# Structural Database, then it will include bibliographic, chemical, 
# crystal, experimental, refinement or atomic coordinate data resulting 
# from the CCDC's data processing and validation procedures.
#
#######################################################################

data_IBESAL
_symmetry_cell_setting           triclinic
_symmetry_space_group_name_H-M   'P -1'
_symmetry_Int_Tables_number      2
_space_group_name_Hall           '-P 1'
loop_
_symmetry_equiv_pos_site_id
_symmetry_equiv_pos_as_xyz
1 x,y,z
2 -x,-y,-z
_cell_length_a                   16.169(3)
_cell_length_b                   16.406(3)
_cell_length_c                   19.632(4)
_cell_angle_alpha                70.06(3)
_cell_angle_beta                 77.98(3)
_cell_angle_gamma                87.13(3)
_cell_volume                     4786.97
loop_
_atom_site_label
_atom_site_type_symbol
_atom_site_fract_x
_atom_site_fract_y
_atom_site_fract_z
Dy1 Dy 1.06156(8) 0.20842(7) 0.47337(6)
O45 O 1.0803(10) 0.0808(9) 0.4400(8)
O46 O 1.0942(10) 0.2697(10) 0.5586(9)
O47 O 1.1586(12) 0.1197(11) 0.5397(11)
O48 O 1.0504(11) 0.2648(12) 0.3484(9)
O49 O 0.9370(10) 0.1884(10) 0.4157(8)
O50 O 0.2873(14) -0.0856(15) 0.3380(11)
O51 O 0.3677(16) -0.0642(15) 0.4041(14)
O52 O 0.9655(11) 0.1312(10) 0.5705(9)
O53 O 0.9766(12) -0.0065(12) 0.6453(9)
O54 O 0.9709(12) 0.3210(11) 0.4704(9)
O55 O 0.9772(11) 0.3833(11) 0.5523(11)
N1 N 0.8699(7) 0.3126(7) 0.1630(6)
C1 C 0.9487(7) 0.3416(7) 0.1587(6)
H1 H 0.9800 0.3785 0.1128
C2 C 0.9829(8) 0.3178(8) 0.2202(6)
H2 H 1.0380 0.3381 0.2172
C3 C 0.9382(9) 0.2651(8) 0.2858(6)
C4 C 0.8593(8) 0.2361(8) 0.2901(6)
H3 H 0.8281 0.1992 0.3360
C5 C 0.8252(7) 0.2599(8) 0.2286(6)
H4 H 0.7701 0.2396 0.2316
C6 C 0.9810(19) 0.2373(17) 0.3546(13)
N2 N 0.5438(8) 0.0491(8) 0.1554(7)
C7 C 0.5593(9) 0.0394(9) 0.2229(8)
H5 H 0.6130 0.0557 0.2272
C8 C 0.4982(10) 0.0064(10) 0.2843(7)
H6 H 0.5090 -0.0004 0.3316
C9 C 0.4216(10) -0.0168(10) 0.2782(8)
C10 C 0.4060(9) -0.0071(9) 0.2107(8)
H7 H 0.3523 -0.0234 0.2064
C11 C 0.4672(9) 0.0258(8) 0.1493(7)
H8 H 0.4563 0.0327 0.1019
C12 C 0.355(3) -0.0624(19) 0.3477(19)
C13 C 0.7755(8) 0.2723(7) 0.0920(6)
C14 C 0.8070(7) 0.1945(8) 0.0877(7)
H9 H 0.8656 0.1836 0.0854
C15 C 0.7537(8) 0.1326(7) 0.0866(7)
H10 H 0.7755 0.0787 0.0836
C16 C 0.6691(8) 0.1483(8) 0.0900(7)
C17 C 0.6376(8) 0.2260(8) 0.0943(8)
H11 H 0.5790 0.2370 0.0966
C18 C 0.6908(8) 0.2880(7) 0.0954(7)
H12 H 0.6691 0.3418 0.0984
C19 C 0.8365(14) 0.3454(15) 0.0912(10)
H13 H 0.8840 0.3575 0.0480
H14 H 0.8052 0.3996 0.0879
C20 C 0.6085(14) 0.0801(15) 0.0888(11)
H15 H 0.5809 0.1053 0.0459
H16 H 0.6417 0.0302 0.0817
N3 N 0.9092(8) 0.1433(7) 0.8268(6)
C21 C 0.9297(9) 0.0613(7) 0.8320(6)
H17 H 0.9324 0.0194 0.8789
C22 C 0.9463(9) 0.0385(7) 0.7711(7)
H18 H 0.9607 -0.0194 0.7748
C23 C 0.9424(10) 0.0977(8) 0.7049(6)
C24 C 0.9220(10) 0.1797(8) 0.6996(6)
H19 H 0.9192 0.2216 0.6528
C25 C 0.9054(9) 0.2025(7) 0.7606(6)
H20 H 0.8909 0.2605 0.7568
C26 C 0.9614(16) 0.0721(17) 0.6347(16)
C27 C 1.3623(19) 0.5755(16) 0.0968(12)
H21 H 1.3572 0.5505 0.0585
H22 H 1.4197 0.6015 0.0850
O56 O 1.1873(15) 0.2823(15) 0.4055(13)
O57 O 1.2983(19) 0.3156(18) 0.4434(15)
C28 C 1.258(2) 0.316(2) 0.3949(14)
N4 N 1.3434(18) 0.4968(17) 0.1836(12)
C29 C 1.3483(19) 0.5157(17) 0.2440(14)
H25 H 1.3726 0.5695 0.2389
C30 C 1.3192(17) 0.4584(17) 0.3116(12)
H26 H 1.3227 0.4717 0.3544
C31 C 1.2850(16) 0.3823(15) 0.3188(12)
C32 C 1.2800(16) 0.3635(14) 0.2584(13)
H27 H 1.2558 0.3097 0.2635
C33 C 1.3092(16) 0.4208(16) 0.1908(12)
H28 H 1.3056 0.4075 0.1481
C40 C 1.1752(13) 0.7639(12) 0.1081(9)
C41 C 1.2535(14) 0.7829(12) 0.1068(11)
H33 H 1.2673 0.8373 0.1092
C42 C 1.3169(14) 0.7224(15) 0.1016(12)
H34 H 1.3741 0.7362 0.0988
C43 C 1.2954(15) 0.6429(14) 0.1007(11)
C44 C 1.2103(15) 0.6253(13) 0.1026(12)
H35 H 1.1934 0.5702 0.1038
C45 C 1.1542(15) 0.6876(13) 0.1027(13)
H36 H 1.0980 0.6783 0.0989
C46 C 0.8910(17) 0.1638(13) 0.8966(9)
H37 H 0.9439 0.1832 0.9051
H38 H 0.8692 0.1111 0.9389
N6 N 0.7343(8) 0.5268(9) 0.4407(8)
C47 C 0.7772(9) 0.5467(8) 0.4849(8)
H39 H 0.7606 0.5942 0.5015
C48 C 0.8435(10) 0.4992(9) 0.5056(8)
H40 H 0.8738 0.5132 0.5369
C49 C 0.8669(9) 0.4321(9) 0.4822(8)
C50 C 0.8241(10) 0.4123(9) 0.4380(9)
H41 H 0.8406 0.3647 0.4214
C51 C 0.7577(9) 0.4597(10) 0.4173(8)
H42 H 0.7274 0.4456 0.3860
C52 C 0.9449(18) 0.3733(16) 0.5014(13)
C53 C 0.5794(15) 0.5373(14) 0.4602(12)
C54 C 0.5347(18) 0.4833(16) 0.4361(14)
H43 H 0.5579 0.4725 0.3915
C55 C 0.5386(16) 0.5516(17) 0.5242(14)
H44 H 0.5656 0.5894 0.5407
C56 C 0.6635(13) 0.5825(13) 0.4179(10)
H45 H 0.6670 0.5965 0.3642
H46 H 0.6675 0.6376 0.4274
Dy1A Dy 0.93844(8) 0.79158(7) 0.52663(6)
Dy1A_2 Dy -0.06156(8) 0.79158(7) 0.52663(6)
O45A O 0.9197(10) 0.9192(9) 0.5600(8)
O45A_2 O -0.0803(10) 0.9192(9) 0.5600(8)
O46A O 0.9058(10) 0.7303(10) 0.4414(9)
O46A_2 O -0.0942(10) 0.7303(10) 0.4414(9)
O47A O 0.8414(12) 0.8803(11) 0.4603(11)
O47A_2 O -0.1586(12) 0.8803(11) 0.4603(11)
O48A O 0.9496(11) 0.7352(12) 0.6516(9)
O48A_2 O -0.0504(11) 0.7352(12) 0.6516(9)
O49A O 1.0630(10) 0.8116(10) 0.5843(8)
O49A_2 O 0.0630(10) 0.8116(10) 0.5843(8)
O52A O 1.0345(11) 0.8688(10) 0.4295(9)
O52A_2 O 0.0345(11) 0.8688(10) 0.4295(9)
O53A O 1.0234(12) 1.0065(12) 0.3547(9)
O53A_2 O 0.0234(12) 1.0065(12) 0.3547(9)
O54A O 1.0291(12) 0.6790(11) 0.5296(9)
O54A_2 O 0.0291(12) 0.6790(11) 0.5296(9)
O55A O 0.0228(11) 0.6167(11) 0.4477(11)
O55A_2 O 1.0228(11) 0.6167(11) 0.4477(11)
C1A C 1.0513(7) 0.6584(7) 0.8413(6)
C2A C 1.0171(8) 0.6822(8) 0.7798(6)
H2A H 0.9620 0.6619 0.7828
C3A C 1.0618(9) 0.7349(8) 0.7142(6)
C3A_2 C 0.0618(9) 0.7349(8) 0.7142(6)
C4A C 1.1407(8) 0.7639(8) 0.7099(6)
H3A H 1.1719 0.8008 0.6640
C5A C 1.1748(7) 0.7401(8) 0.7714(6)
C6A C 1.0190(19) 0.7627(17) 0.6454(13)
C6A_2 C 0.0190(19) 0.7627(17) 0.6454(13)
N3A N 1.0908(8) 0.8567(7) 0.1732(6)
C21A C 1.0703(9) 0.9387(7) 0.1680(6)
H17A H 1.0676 0.9806 0.1211
C22A C 1.0537(9) 0.9615(7) 0.2289(7)
H18A H 1.0393 1.0194 0.2252
C23A C 1.0576(10) 0.9023(8) 0.2951(6)
C23A_2 C 0.0576(10) 0.9023(8) 0.2951(6)
C24A C 1.0780(10) 0.8203(8) 0.3004(6)
H19A H 1.0808 0.7784 0.3472
C25A C 1.0946(9) 0.7975(7) 0.2394(6)
H20A H 1.1091 0.7395 0.2432
C26A C 1.0386(16) 0.9279(17) 0.3653(16)
C26A_2 C 0.0386(16) 0.9279(17) 0.3653(16)
C27A C 0.6377(19) 0.4245(16) 0.9032(12)
H21A H 0.6428 0.4495 0.9415
H22A H 0.5803 0.3985 0.9150
O56A O 0.8127(15) 0.7177(15) 0.5945(13)
O56A_2 O -0.1873(15) 0.7177(15) 0.5945(13)
O57A O 0.7017(19) 0.6844(18) 0.5566(15)
O57A_2 O -0.2983(19) 0.6844(18) 0.5566(15)
C28A C 0.742(2) 0.684(2) 0.6051(14)
C28A_2 C -0.258(2) 0.684(2) 0.6051(14)
N4A N 0.6566(18) 0.5032(17) 0.8164(12)
C29A C 0.6517(19) 0.4843(17) 0.7560(14)
H25A H 0.6274 0.4305 0.7611
C30A C 0.6808(17) 0.5416(17) 0.6884(12)
H26A H 0.6773 0.5283 0.6456
C31A C 0.7150(16) 0.6177(15) 0.6812(12)
C31A_2 C -0.2850(16) 0.6177(15) 0.6812(12)
C32A C 0.7200(16) 0.6365(14) 0.7416(13)
H27A H 0.7442 0.6903 0.7365
C33A C 0.6908(16) 0.5792(16) 0.8092(12)
H28A H 0.6944 0.5925 0.8519
C40A C 0.8248(13) 0.2361(12) 0.8919(9)
C41A C 0.7465(14) 0.2171(12) 0.8932(11)
H33A H 0.7327 0.1627 0.8908
C42A C 0.6831(14) 0.2776(15) 0.8984(12)
H34A H 0.6259 0.2638 0.9012
C43A C 0.7046(15) 0.3571(14) 0.8993(11)
C44A C 0.7897(15) 0.3747(13) 0.8974(12)
H35A H 0.8066 0.4298 0.8962
C45A C 0.8458(15) 0.3124(13) 0.8973(13)
H36A H 0.9020 0.3217 0.9011
C46A C 1.1090(17) 0.8362(13) 0.1034(9)
H37A H 1.0561 0.8168 0.0949
H38A H 1.1308 0.8889 0.0611
N6A N 0.2657(8) 0.4732(9) 0.5593(8)
C47A C 0.2228(9) 0.4533(8) 0.5151(8)
C47A_2 C 1.2228(9) 0.4533(8) 0.5151(8)
H39A H 0.2394 0.4058 0.4985
C48A C 0.1565(10) 0.5008(9) 0.4944(8)
C48A_2 C 1.1565(10) 0.5008(9) 0.4944(8)
H40A H 0.1262 0.4868 0.4631
H40A_2 H 1.1262 0.4868 0.4631
C49A C 0.1331(9) 0.5679(9) 0.5178(8)
C49A_2 C 1.1331(9) 0.5679(9) 0.5178(8)
C50A C 0.1759(10) 0.5877(9) 0.5620(9)
C50A_2 C 1.1759(10) 0.5877(9) 0.5620(9)
H41A H 0.1594 0.6353 0.5786
H41A_2 H 1.1594 0.6353 0.5786
C51A C 0.2423(9) 0.5403(10) 0.5827(8)
C51A_2 C 1.2423(9) 0.5403(10) 0.5827(8)
H42A H 0.2726 0.5544 0.6140
C52A C 0.0551(18) 0.6267(16) 0.4986(13)
C52A_2 C 1.0551(18) 0.6267(16) 0.4986(13)
C53A C 0.4206(15) 0.4627(14) 0.5398(12)
C54A C 0.4653(18) 0.5167(16) 0.5639(14)
H43A H 0.4421 0.5275 0.6085
C55A C 0.4614(16) 0.4484(17) 0.4758(14)
H44A H 0.4344 0.4106 0.4593
C56A C 0.3365(13) 0.4175(13) 0.5821(10)
H45A H 0.3330 0.4035 0.6358
H46A H 0.3325 0.3624 0.5726
O58 O 0.535(3) 0.733(3) 0.630(3)
C34 C 0.599(4) 0.689(4) 0.640(3)
O60 O 0.8225(16) 0.0492(15) 0.4741(13)
O62 O 0.2025(18) -0.1985(17) 0.4508(14)
O63 O 1.2486(19) 0.2128(17) 0.5984(15)
O65 O 0.709(2) 0.861(2) 0.6952(17)
O66 O 0.765(2) 0.027(2) 0.2904(19)
O69 O 0.948(3) 0.497(3) 0.709(2)
O71 O 0.316(4) -0.241(3) 0.553(3)
O72 O 0.704(4) 0.306(4) 0.675(4)
O73 O 0.424(5) 0.721(4) 0.717(4)
Mo1 Mo 0.43687(14) 0.37138(15) 0.77633(11)
Mo2 Mo 0.32901(13) 0.18218(12) 0.78457(10)
Mo3 Mo 0.45212(12) 0.16934(11) 0.91827(11)
Mo4 Mo 0.25266(13) 0.49143(11) 0.78885(10)
Mo5 Mo 0.14777(13) 0.31117(12) 0.77585(10)
V6 V 0.14091(12) 0.10770(11) 0.91616(11)
Mo7 Mo 0.26992(12) 0.07386(10) 1.05033(10)
Mo8 Mo 0.37327(11) 0.25114(10) 1.06255(9)
Mo9 Mo 0.38049(12) 0.45725(11) 0.92011(10)
Mo10 Mo 0.18978(13) 0.38166(11) 1.05339(10)
Mo11 Mo 0.06778(12) 0.39466(11) 0.92163(10)
Mo12 Mo 0.08195(11) 0.19590(10) 1.06200(10)
P1 P 0.2603(3) 0.2828(3) 0.9195(3)
O1 O 0.1822(12) 0.3053(11) 0.9694(9)
O2 O 0.2324(11) 0.2409(12) 0.8691(11)
O3 O 0.3367(16) 0.2559(16) 0.8678(15)
O4 O 0.3097(13) 0.3668(13) 0.8712(11)
O5 O 0.3154(12) 0.2211(10) 0.9669(10)
O6 O 0.2861(19) 0.3257(15) 0.9685(16)
O7 O 0.2097(19) 0.1973(19) 0.9654(18)
O8 O 0.2041(18) 0.3414(16) 0.8674(16)
O9 O 0.0747(10) 0.1421(9) 0.9914(9)
O10 O 0.2419(10) 0.2565(10) 0.7438(10)
O11 O 0.3561(12) 0.4515(12) 0.7445(9)
O12 O 0.4494(11) 0.4334(11) 0.8434(9)
O13 O 0.1531(10) 0.4795(9) 0.8517(9)
O14 O 0.0287(11) 0.2895(8) 0.9976(8)
O15 O 0.1132(11) 0.4289(8) 0.9926(8)
O16 O 0.2036(10) 0.4167(11) 0.7480(8)
O17 O 0.3758(10) 0.0774(8) 0.9903(7)
O18 O 0.0694(10) 0.3486(9) 0.8470(8)
O19 O 0.3911(10) 0.2897(9) 0.7486(9)
O20 O 0.4559(10) 0.2106(8) 0.9957(9)
O21 O 0.4107(10) 0.3674(8) 0.9907(8)
O22 O 0.2108(10) 0.0506(10) 0.9883(8)
O23 O 0.2429(9) 0.1061(8) 0.8442(8)
O24 O 0.2458(12) 0.5839(8) 0.7251(7)
O25 O 0.2734(10) 0.4565(8) 0.9897(8)
O26 O 0.4011(10) 0.1409(9) 0.8484(9)
O27 O 0.1646(8) 0.1215(9) 1.0896(8)
O28 O 0.3632(12) 0.1418(10) 0.7185(9)
O29 O 0.3100(9) 0.5180(11) 0.8486(7)
O30 O 0.2775(9) 0.3070(9) 1.0903(9)
O31 O 0.4808(10) 0.2762(10) 0.8470(8)
O32 O 0.1053(10) 0.1957(10) 0.8412(9)
O33 O 0.0931(11) 0.3263(10) 0.7130(8)
O34 O 0.4279(9) 0.2420(10) 1.1257(7)
O35 O 0.5402(9) 0.1153(8) 0.9167(8)
O36 O 0.1210(10) 0.2741(8) 1.0968(8)
O37 O -0.0167(8) 0.4521(9) 0.9192(8)
O38 O 0.2682(8) -0.0219(7) 1.1144(7)
O39 O 0.4329(9) 0.5372(8) 0.9254(9)
O40 O 0.3216(9) 0.1438(8) 1.0956(8)
O41 O 0.0899(8) 0.0232(8) 0.9173(8)
O42 O 0.5201(9) 0.4060(9) 0.7132(8)
O43 O 0.1601(8) 0.4221(8) 1.1196(7)
O44 O 0.0000(8) 0.1531(8) 1.1268(7)
V1? V 0.43687(14) 0.37138(15) 0.77633(11)
V2? V 0.32901(13) 0.18218(12) 0.78457(10)
V3? V 0.45212(12) 0.16934(11) 0.91827(11)
V4? V 0.25266(13) 0.49143(11) 0.78885(10)
V5? V 0.14777(13) 0.31117(12) 0.77585(10)
Mo6? Mo 0.14091(12) 0.10770(11) 0.91616(11)
H23? H 0.5812 0.3957 0.9183
H24? H 0.6443 0.4480 0.9420
O59? O 0.653(4) 0.703(4) 0.583(3)
N5? N 0.641(4) 0.493(3) 0.837(3)
C35? C 0.657(4) 0.484(3) 0.768(3)
H29? H 0.6784 0.4308 0.7624
C36? C 0.642(4) 0.552(4) 0.706(3)
H30? H 0.6537 0.5458 0.6589
C37? C 0.611(3) 0.630(3) 0.714(2)
C38? C 0.595(3) 0.639(3) 0.784(3)
H31? H 0.5734 0.6920 0.7892
C39? C 0.609(3) 0.571(3) 0.845(3)
H32? H 0.5980 0.5770 0.8927
O61? O 0.804(2) -0.1448(19) 0.7471(16)
O64? O 1.166(5) 0.145(4) 0.677(4)
O67? O 0.840(3) -0.004(2) 0.260(2)
O68? O 0.700(3) 0.060(2) 0.315(2)
O70? O 0.874(2) 0.431(2) 0.701(2)
O74? O 0.664(4) 0.331(4) 0.625(4)
loop_
_geom_bond_atom_site_label_1
_geom_bond_atom_site_label_2
_geom_bond_site_symmetry_1
_geom_bond_site_symmetry_2
Mo1 O3 1_555 1_555
Mo2 O2 1_555 1_555
Mo3 O3 1_555 1_555
Mo4 O4 1_555 1_555
Mo5 O2 1_555 1_555
V6 O2 1_555 1_555
Mo7 O5 1_555 1_555
Mo8 O5 1_555 1_555
Mo9 O4 1_555 1_555
Mo10 O1 1_555 1_555
Mo11 O1 1_555 1_555
Mo12 O1 1_555 1_555
P1 O1 1_555 1_555
O1 O6 1_555 1_555
O2 P1 1_555 1_555
O3 Mo2 1_555 1_555
O4 Mo1 1_555 1_555
O5 Mo3 1_555 1_555
O6 Mo8 1_555 1_555
O7 V6 1_555 1_555
O8 Mo4 1_555 1_555
O9 V6 1_555 1_555
O10 Mo2 1_555 1_555
O11 Mo1 1_555 1_555
O12 Mo1 1_555 1_555
O13 Mo4 1_555 1_555
O14 Mo11 1_555 1_555
O15 Mo10 1_555 1_555
O16 Mo4 1_555 1_555
O17 Mo3 1_555 1_555
O18 Mo5 1_555 1_555
O19 Mo1 1_555 1_555
O20 Mo3 1_555 1_555
O21 Mo8 1_555 1_555
O22 V6 1_555 1_555
O23 Mo2 1_555 1_555
O24 Mo4 1_555 1_555
O25 Mo9 1_555 1_555
O26 Mo2 1_555 1_555
O27 Mo7 1_555 1_555
O28 Mo2 1_555 1_555
O29 Mo4 1_555 1_555
O30 Mo8 1_555 1_555
O31 Mo1 1_555 1_555
O32 Mo5 1_555 1_555
O33 Mo5 1_555 1_555
O34 Mo8 1_555 1_555
O35 Mo3 1_555 1_555
O36 Mo10 1_555 1_555
O37 Mo11 1_555 1_555
O38 Mo7 1_555 1_555
O39 Mo9 1_555 1_555
O40 Mo7 1_555 1_555
O41 V6 1_555 1_555
O42 Mo1 1_555 1_555
O43 Mo10 1_555 1_555
O44 Mo12 1_555 1_555
Dy1 O45 1_555 1_555
O46 Dy1 1_555 1_555
O47 Dy1 1_555 1_555
O48 Dy1 1_555 1_555
O49 Dy1 1_555 1_555
O50 C12 1_555 1_555
O51 C12 1_555 1_555
O52 Dy1 1_555 1_555
O53 C26 1_555 1_555
O54 Dy1 1_555 1_555
O55 C52 1_555 1_555
N1 C1 1_555 1_555
C1 H1 1_555 1_555
C2 C1 1_555 1_555
H2 C2 1_555 1_555
C3 C2 1_555 1_555
C4 C3 1_555 1_555
H3 C4 1_555 1_555
C5 N1 1_555 1_555
H4 C5 1_555 1_555
C6 O48 1_555 1_555
N2 C7 1_555 1_555
C7 H5 1_555 1_555
C8 C7 1_555 1_555
H6 C8 1_555 1_555
C9 C8 1_555 1_555
C10 C9 1_555 1_555
H7 C10 1_555 1_555
C11 N2 1_555 1_555
H8 C11 1_555 1_555
C12 C9 1_555 1_555
C13 C14 1_555 1_555
C14 H9 1_555 1_555
C15 C14 1_555 1_555
H10 C15 1_555 1_555
C16 C15 1_555 1_555
C17 C16 1_555 1_555
H11 C17 1_555 1_555
C18 C13 1_555 1_555
H12 C18 1_555 1_555
C19 N1 1_555 1_555
H13 C19 1_555 1_555
H14 C19 1_555 1_555
C20 N2 1_555 1_555
H15 C20 1_555 1_555
H16 C20 1_555 1_555
N3 C21 1_555 1_555
C21 H17 1_555 1_555
C22 C21 1_555 1_555
H18 C22 1_555 1_555
C23 C22 1_555 1_555
C24 C23 1_555 1_555
H19 C24 1_555 1_555
C25 N3 1_555 1_555
H20 C25 1_555 1_555
C26 O52 1_555 1_555
C27 H21 1_555 1_555
H22 C27 1_555 1_555
O56 Dy1 1_555 1_555
O57 C28 1_555 1_555
C28 O56 1_555 1_555
N4 C27 1_555 1_555
C29 N4 1_555 1_555
H25 C29 1_555 1_555
C30 C29 1_555 1_555
H26 C30 1_555 1_555
C31 C28 1_555 1_555
C32 C31 1_555 1_555
H27 C32 1_555 1_555
C33 N4 1_555 1_555
H28 C33 1_555 1_555
O58 C34 1_555 1_555
C40 C41 1_555 1_555
C41 H33 1_555 1_555
C42 C41 1_555 1_555
H34 C42 1_555 1_555
C43 C27 1_555 1_555
C44 C43 1_555 1_555
H35 C44 1_555 1_555
C45 C40 1_555 1_555
H36 C45 1_555 1_555
C46 N3 1_555 1_555
H37 C46 1_555 1_555
H38 C46 1_555 1_555
N6 C47 1_555 1_555
C47 H39 1_555 1_555
C48 C47 1_555 1_555
H40 C48 1_555 1_555
C49 C48 1_555 1_555
C50 C49 1_555 1_555
H41 C50 1_555 1_555
C51 N6 1_555 1_555
H42 C51 1_555 1_555
C52 O54 1_555 1_555
C53 C54 1_555 1_555
C54 H43 1_555 1_555
C55 C53 1_555 1_555
H44 C55 1_555 1_555
C56 N6 1_555 1_555
H45 C56 1_555 1_555
H46 C56 1_555 1_555
Dy1A O45A 1_555 1_555
Dy1A_2 O45A_2 1_555 1_555
O46A Dy1A 1_555 1_555
O46A_2 Dy1A_2 1_555 1_555
O47A Dy1A 1_555 1_555
O47A_2 Dy1A_2 1_555 1_555
O48A Dy1A 1_555 1_555
O48A_2 Dy1A_2 1_555 1_555
O49A Dy1A 1_555 1_555
O49A_2 Dy1A_2 1_555 1_555
O52A Dy1A 1_555 1_555
O52A_2 Dy1A_2 1_555 1_555
O53A C26A 1_555 1_555
O53A_2 C26A_2 1_555 1_555
O54A Dy1A 1_555 1_555
O54A_2 Dy1A_2 1_555 1_555
O55A C52A 1_555 1_555
O55A_2 C52A_2 1_555 1_555
C1A C2A 1_555 1_555
C2A H2A 1_555 1_555
C3A C2A 1_555 1_555
C3A_2 C6A_2 1_555 1_555
C4A C3A 1_555 1_555
H3A C4A 1_555 1_555
C5A C4A 1_555 1_555
C6A O48A 1_555 1_555
C6A_2 O48A_2 1_555 1_555
N3A C21A 1_555 1_555
C21A H17A 1_555 1_555
C22A C21A 1_555 1_555
H18A C22A 1_555 1_555
C23A C22A 1_555 1_555
C23A_2 C26A_2 1_555 1_555
C24A C23A 1_555 1_555
H19A C24A 1_555 1_555
C25A N3A 1_555 1_555
H20A C25A 1_555 1_555
C26A O52A 1_555 1_555
C26A_2 O52A_2 1_555 1_555
C27A H21A 1_555 1_555
H22A C27A 1_555 1_555
O56A Dy1A 1_555 1_555
O56A_2 Dy1A_2 1_555 1_555
O57A C28A 1_555 1_555
O57A_2 C28A_2 1_555 1_555
C28A O56A 1_555 1_555
C28A_2 O56A_2 1_555 1_555
N4A C27A 1_555 1_555
C29A N4A 1_555 1_555
H25A C29A 1_555 1_555
C30A C29A 1_555 1_555
H26A C30A 1_555 1_555
C31A C28A 1_555 1_555
C31A_2 C28A_2 1_555 1_555
C32A C31A 1_555 1_555
H27A C32A 1_555 1_555
C33A N4A 1_555 1_555
H28A C33A 1_555 1_555
C40A C46 1_555 1_555
C41A C40A 1_555 1_555
H33A C41A 1_555 1_555
C42A C41A 1_555 1_555
H34A C42A 1_555 1_555
C43A C27A 1_555 1_555
C44A C43A 1_555 1_555
H35A C44A 1_555 1_555
C45A C40A 1_555 1_555
H36A C45A 1_555 1_555
C46A C40 1_555 1_555
H37A C46A 1_555 1_555
H38A C46A 1_555 1_555
N6A C47A 1_555 1_555
C47A H39A 1_555 1_555
C47A_2 C48A_2 1_555 1_555
C48A C47A 1_555 1_555
C48A_2 H40A_2 1_555 1_555
H40A C48A 1_555 1_555
C49A C48A 1_555 1_555
C49A_2 C48A_2 1_555 1_555
C50A C49A 1_555 1_555
C50A_2 C49A_2 1_555 1_555
H41A C50A 1_555 1_555
H41A_2 C50A_2 1_555 1_555
C51A N6A 1_555 1_555
C51A_2 C50A_2 1_555 1_555
H42A C51A 1_555 1_555
C52A O54A_2 1_555 1_555
C52A_2 O54A 1_555 1_555
C53A C54A 1_555 1_555
C54A C55 1_555 1_555
H43A C54A 1_555 1_555
C55A C54 1_555 1_555
H44A C55A 1_555 1_555
C56A N6A 1_555 1_555
H45A C56A 1_555 1_555
H46A C56A 1_555 1_555
Mo2 O19 1_555 1_555
Mo3 O26 1_555 1_555
Mo3 O31 1_555 1_555
Mo4 O11 1_555 1_555
Mo5 O8 1_555 1_555
Mo5 O10 1_555 1_555
Mo5 O16 1_555 1_555
V6 O23 1_555 1_555
V6 O32 1_555 1_555
Mo7 O7 1_555 1_555
Mo7 O17 1_555 1_555
Mo7 O22 1_555 1_555
Mo8 O20 1_555 1_555
Mo8 O40 1_555 1_555
Mo9 O6 1_555 1_555
Mo9 O12 1_555 1_555
Mo9 O21 1_555 1_555
Mo9 O29 1_555 1_555
Mo10 O6 1_555 1_555
Mo10 O25 1_555 1_555
Mo10 O30 1_555 1_555
Mo11 O8 1_555 1_555
Mo11 O13 1_555 1_555
Mo11 O15 1_555 1_555
Mo11 O18 1_555 1_555
Mo12 O7 1_555 1_555
Mo12 O9 1_555 1_555
Mo12 O14 1_555 1_555
Mo12 O27 1_555 1_555
Mo12 O36 1_555 1_555
P1 O3 1_555 1_555
P1 O4 1_555 1_555
P1 O5 1_555 1_555
P1 O6 1_555 1_555
P1 O7 1_555 1_555
P1 O8 1_555 1_555
O1 O7 1_555 1_555
O1 O8 1_555 1_555
O2 O3 1_555 1_555
O2 O7 1_555 1_555
O2 O8 1_555 1_555
O3 O4 1_555 1_555
O3 O5 1_555 1_555
O4 O6 1_555 1_555
O4 O8 1_555 1_555
O5 O6 1_555 1_555
O5 O7 1_555 1_555
O49 C6 1_555 1_555
C3 C6 1_555 1_555
C4 C5 1_555 1_555
C10 C11 1_555 1_555
C13 C19 1_555 1_555
C16 C20 1_555 1_555
C17 C18 1_555 1_555
C23 C26 1_555 1_555
C24 C25 1_555 1_555
C30 C31 1_555 1_555
C32 C33 1_555 1_555
C42 C43 1_555 1_555
C44 C45 1_555 1_555
C49 C52 1_555 1_555
C50 C51 1_555 1_555
C53 C56 1_555 1_555
O49A C6A 1_555 1_555
O49A_2 C6A_2 1_555 1_555
C3A C6A 1_555 1_555
N3A C46A 1_555 1_555
C23A C26A 1_555 1_555
C24A C25A 1_555 1_555
C30A C31A 1_555 1_555
C32A C33A 1_555 1_555
C42A C43A 1_555 1_555
C44A C45A 1_555 1_555
C49A C52A 1_555 1_555
C49A_2 C52A_2 1_555 1_555
C50A C51A 1_555 1_555
C53A C55A 1_555 1_555
C53A C56A 1_555 1_555

#END
