
#######################################################################
#
#                 Cambridge Crystallographic Data Centre
#                                CCDC 
#
#######################################################################
#
# If this CIF has been generated from an entry in the Cambridge 
# Structural Database, then it will include bibliographic, chemical, 
# crystal, experimental, refinement or atomic coordinate data resulting 
# from the CCDC's data processing and validation procedures.
#
#######################################################################

data_IBETAM
_symmetry_cell_setting           triclinic
_symmetry_space_group_name_H-M   'P -1'
_symmetry_Int_Tables_number      2
_space_group_name_Hall           '-P 1'
loop_
_symmetry_equiv_pos_site_id
_symmetry_equiv_pos_as_xyz
1 x,y,z
2 -x,-y,-z
_cell_length_a                   6.9947(10)
_cell_length_b                   13.810(2)
_cell_length_c                   14.377(2)
_cell_angle_alpha                117.688(2)
_cell_angle_beta                 97.350(2)
_cell_angle_gamma                98.045(2)
_cell_volume                     1187.79
loop_
_atom_site_label
_atom_site_type_symbol
_atom_site_fract_x
_atom_site_fract_y
_atom_site_fract_z
Cd1 Cd 0.64703(8) 0.41286(5) 0.01720(4)
Cd2 Cd 1.09970(8) 0.60281(5) 0.21481(4)
P1 P 1.1198(3) 0.36266(16) -0.01604(14)
O1 O 0.9932(7) 0.4285(4) 0.0586(3)
O2 O 1.0052(7) 0.2993(4) -0.1327(3)
N1 N 1.0254(10) 0.2249(6) 0.0713(5)
H1 H 0.9947 0.2868 0.1208
C1 C 1.1773(12) 0.2620(7) 0.0249(6)
H2 H 1.3011 0.2945 0.0767
H3 H 1.1932 0.1967 -0.0367
C2 C 0.8406(13) 0.1542(8) -0.0118(7)
H4 H 0.8718 0.0891 -0.0669
H5 H 0.7898 0.1951 -0.0443
C3 C 1.0980(14) 0.1651(8) 0.1277(7)
H6 H 1.2108 0.2133 0.1850
H7 H 1.1391 0.1012 0.0767
C4 C 0.9384(17) 0.1247(9) 0.1705(8)
H8 H 0.9043 0.1887 0.2256
H9 H 0.9861 0.0824 0.2021
O3 O 1.3199(7) 0.4340(4) 0.0010(4)
O4 O 0.6066(8) 0.3352(5) -0.1798(4)
O5 O 0.6222(8) 0.3695(5) 0.1495(4)
O6 O 0.7745(8) 0.5476(5) 0.2207(4)
C5 C 0.7132(11) 0.4783(7) 0.3408(5)
O7 O 0.7648(11) 0.0547(6) 0.0860(6)
C6 C 0.7040(11) 0.4643(7) 0.2314(6)
C7 C 0.6514(11) 0.3853(8) 0.3533(6)
H10 H 0.5927 0.3139 0.2905
C8 C 0.6731(11) 0.3935(8) 0.4538(6)
H11 H 0.6282 0.3294 0.4618
C9 C 0.7960(12) 0.5819(7) 0.4316(6)
H12 H 0.8386 0.6465 0.4238
C10 C 0.8165(12) 0.5917(8) 0.5327(6)
H13 H 0.8676 0.6636 0.5961
C11 C 0.7610(11) 0.4964(7) 0.5434(6)
C12 C 0.8025(13) 0.5091(9) 0.6554(7)
O8 O 0.8935(11) 0.6011(6) 0.7321(4)
O9 O 0.5037(8) 0.2276(5) -0.1133(4)
C13 C 0.5142(11) 0.2422(7) -0.1928(6)
C14 C 0.4136(12) 0.1504(7) -0.3033(6)
C15 C 0.3795(12) 0.1690(7) -0.3897(6)
H14 H 0.4196 0.2437 -0.3785
C16 C 0.3504(13) 0.0407(8) -0.3212(6)
H15 H 0.3688 0.0269 -0.2615
C17 C 0.2874(13) 0.0811(8) -0.4923(6)
H16 H 0.2605 0.0947 -0.5518
C18 C 0.6884(16) 0.1168(10) 0.0365(9)
H17 H 0.5714 0.0697 -0.0181
H18 H 0.6534 0.1817 0.0898
O10 O 0.7464(9) 0.4188(6) 0.6579(5)
C19 C 0.2340(12) -0.0263(7) -0.5086(6)
C20 C 0.1458(12) -0.1260(8) -0.6185(6)
C21 C 0.2623(13) -0.0460(8) -0.4232(6)
H19 H 0.2213 -0.1210 -0.4352
O11 O 0.1144(10) -0.2203(5) -0.6317(4)
O12 O 0.1153(9) -0.1008(5) -0.6954(4)
H20 H 0.0659 -0.1608 -0.7549
Cd1_2 Cd 1.64703(8) 0.41286(5) 0.01720(4)
Cd1A Cd 1.35297(8) 0.58714(5) -0.01720(4)
Cd2A Cd 0.90030(8) 0.39719(5) -0.21481(4)
Cd2A_2 Cd 0.90030(8) 0.39719(5) 0.78519(4)
Cd2_2 Cd 0.09970(8) -0.39719(5) -0.78519(4)
O2A O 0.9948(7) 0.7007(4) 0.1327(3)
O3_2 O 0.3199(7) 0.4340(4) 0.0010(4)
O3A O 0.6801(7) 0.5660(4) -0.0010(4)
O4A O 1.3934(8) 0.6648(5) 0.1798(4)
O10A O 1.2536(9) 0.5812(6) 0.3421(5)
O11_2 O 1.1144(10) 0.7797(5) 0.3683(4)
loop_
_geom_bond_atom_site_label_1
_geom_bond_atom_site_label_2
_geom_bond_site_symmetry_1
_geom_bond_site_symmetry_2
Cd1 O1 1_555 1_555
Cd2 O1 1_555 1_555
P1 O1 1_555 1_555
O2 P1 1_555 1_555
N1 H1 1_555 1_555
C1 P1 1_555 1_555
H2 C1 1_555 1_555
H3 C1 1_555 1_555
C2 N1 1_555 1_555
H4 C2 1_555 1_555
H5 C2 1_555 1_555
C3 N1 1_555 1_555
H6 C3 1_555 1_555
H7 C3 1_555 1_555
C4 C3 1_555 1_555
H8 C4 1_555 1_555
H9 C4 1_555 1_555
O3 P1 1_555 1_555
O4 Cd1 1_555 1_555
O5 Cd1 1_555 1_555
O6 Cd1 1_555 1_555
C5 C6 1_555 1_555
O7 C4 1_555 1_555
C6 O5 1_555 1_555
C7 C5 1_555 1_555
H10 C7 1_555 1_555
C8 C7 1_555 1_555
H11 C8 1_555 1_555
C9 C5 1_555 1_555
H12 C9 1_555 1_555
C10 C9 1_555 1_555
H13 C10 1_555 1_555
C11 C8 1_555 1_555
C12 C11 1_555 1_555
O8 C12 1_555 1_555
O9 Cd1 1_555 1_555
C13 O4 1_555 1_555
C14 C13 1_555 1_555
C15 C14 1_555 1_555
H14 C15 1_555 1_555
C16 C14 1_555 1_555
H15 C16 1_555 1_555
C17 C15 1_555 1_555
H16 C17 1_555 1_555
C18 C2 1_555 1_555
H17 C18 1_555 1_555
H18 C18 1_555 1_555
O10 C12 1_555 1_555
C19 C17 1_555 1_555
C20 C19 1_555 1_555
C21 C16 1_555 1_555
H19 C21 1_555 1_555
O11 C20 1_555 1_555
O12 C20 1_555 1_555
H20 O12 1_555 1_555
Cd1_2 O3 1_555 1_555
Cd1A O3 1_555 1_555
Cd2A O2 1_555 1_555
Cd2A_2 O10 1_555 1_555
Cd2_2 O11 1_555 1_555
O2A Cd2 1_555 1_555
O3_2 Cd1 1_555 1_555
O3A Cd1 1_555 1_555
O4A Cd2 1_555 1_555
O10A Cd2 1_555 1_555
O11_2 Cd2 1_555 1_555
Cd2 O6 1_555 1_555
N1 C1 1_555 1_555
O4 Cd2A 1_555 1_555
O6 C6 1_555 1_555
O7 C18 1_555 1_555
C10 C11 1_555 1_555
O9 C13 1_555 1_555
C19 C21 1_555 1_555
Cd1A O4A 1_555 1_555

#END
