
#######################################################################
#
#                 Cambridge Crystallographic Data Centre
#                                CCDC 
#
#######################################################################
#
# If this CIF has been generated from an entry in the Cambridge 
# Structural Database, then it will include bibliographic, chemical, 
# crystal, experimental, refinement or atomic coordinate data resulting 
# from the CCDC's data processing and validation procedures.
#
#######################################################################

data_IBEVIW
_symmetry_cell_setting           monoclinic
_symmetry_space_group_name_H-M   'P 21/c'
_symmetry_Int_Tables_number      14
_space_group_name_Hall           '-P 2ybc'
loop_
_symmetry_equiv_pos_site_id
_symmetry_equiv_pos_as_xyz
1 x,y,z
2 -x,1/2+y,1/2-z
3 -x,-y,-z
4 x,1/2-y,1/2+z
_cell_length_a                   13.1304(9)
_cell_length_b                   21.7015(14)
_cell_length_c                   17.4075(11)
_cell_angle_alpha                90
_cell_angle_beta                 100.0460(10)
_cell_angle_gamma                90
_cell_volume                     4884.21
loop_
_atom_site_label
_atom_site_type_symbol
_atom_site_fract_x
_atom_site_fract_y
_atom_site_fract_z
Mo1 Mo 0.39070(6) 0.38020(3) 1.07328(5)
Mo2 Mo 0.14874(6) 0.32246(4) 0.94769(5)
Mo3 Mo 0.00904(7) 0.29008(4) 1.50761(6)
Mo4 Mo 0.15294(7) 0.40022(4) 1.60423(5)
Mo5 Mo 0.40479(7) 0.38850(4) 1.59459(5)
Mo6 Mo 0.52853(7) 0.26263(4) 1.12569(5)
As1 As 0.23262(7) 0.32784(4) 1.43150(6)
As2 As 0.24787(8) 0.25098(4) 1.13215(6)
Cu1 Cu 0.40972(10) 0.42500(6) 1.39720(7)
Cu2 Cu 0.46486(10) 0.45706(6) 0.91682(8)
O1 O 0.4419(5) 0.4392(3) 1.0192(4)
O2 O 0.3416(5) 0.4211(3) 1.1421(4)
O3 O 0.3390(7) 0.3412(4) 1.2897(5)
H1 H 0.3733 0.3344 1.2541
O4 O 0.2729(5) 0.3619(3) 1.0031(4)
O5 O 0.1620(5) 0.3423(3) 0.8548(4)
O6 O 0.0630(5) 0.3749(3) 0.9713(5)
O7 O 0.0518(5) 0.2554(3) 0.9223(4)
O8 O -0.0715(6) 0.2379(3) 1.5397(5)
O9 O -0.0726(5) 0.3416(3) 1.4560(4)
O10 O 0.0578(5) 0.3324(3) 1.6042(4)
O11 O 0.0715(6) 0.4549(3) 1.5599(4)
O12 O 0.1666(6) 0.4163(3) 1.7016(4)
O13 O 0.2797(6) 0.4337(3) 1.5817(4)
O14 O 0.4482(5) 0.3975(3) 1.6924(4)
O15 O 0.4801(6) 0.4385(3) 1.5532(4)
O16 O 0.4665(5) 0.3114(3) 1.5817(3)
O17 O 0.6477(5) 0.2588(3) 1.1007(4)
O18 O 0.5506(7) 0.2441(3) 1.2219(4)
O19 O 0.5169(5) 0.3523(3) 1.1331(4)
O20 O 0.4501(5) 0.2976(3) 1.0049(4)
H2 H 0.3947 0.2704 0.9778
H3 H 0.4988 0.3097 0.9701
O21 O 0.3398(5) 0.3707(3) 1.4609(3)
O22 O 0.2639(5) 0.2535(3) 1.4450(4)
O23 O 0.1427(5) 0.3513(3) 1.4852(4)
O24 O 0.2731(5) 0.1762(3) 1.1235(4)
O25 O 0.1500(5) 0.2739(3) 1.0612(4)
O26 O 0.3571(5) 0.2911(3) 1.1288(4)
O27 O 0.3648(7) 0.3750(3) 0.8293(5)
H4 H 0.3077 0.3669 0.8452
H5 H 0.3489 0.3889 0.7823
N1 N 0.3135(7) 0.4981(4) 1.3842(5)
N2 N 0.4577(6) 0.4678(3) 1.3103(4)
N3 N 0.5431(7) 0.3795(4) 1.3957(5)
N4 N 0.3961(6) 0.5808(3) 1.0789(5)
N5 N 0.5034(6) 0.5134(3) 1.1823(5)
N6 N 0.6664(6) 0.4972(4) 1.1212(5)
C1 C 0.2099(11) 0.2657(5) 1.2341(8)
H6 H 0.1354 0.2568 1.2311
H7 H 0.2492 0.2371 1.2726
C2 C 0.2308(9) 0.3294(7) 1.2609(8)
H8 H 0.2078 0.3575 1.2157
C3 C 0.1735(8) 0.3473(5) 1.3258(6)
H9 H 0.1624 0.3924 1.3227
H10 H 0.1043 0.3277 1.3145
C4 C 0.2538(8) 0.5154(5) 1.4352(6)
H11 H 0.2385 0.4867 1.4728
C5 C 0.2138(9) 0.5751(5) 1.4340(6)
H12 H 0.1723 0.5866 1.4713
C6 C 0.2338(8) 0.6176(5) 1.3793(6)
H13 H 0.2071 0.6584 1.3784
C7 C 0.2942(8) 0.5985(4) 1.3259(6)
H14 H 0.3119 0.6266 1.2885
C8 C 0.3282(7) 0.5387(4) 1.3276(5)
C9 C 0.3984(7) 0.5148(4) 1.2756(5)
C10 C 0.5419(8) 0.4448(4) 1.2848(5)
C11 C 0.5844(8) 0.3896(4) 1.3295(6)
C12 C 0.6596(7) 0.3518(4) 1.3111(5)
H15 H 0.6844 0.3575 1.2635
C13 C 0.7002(8) 0.3047(4) 1.3625(6)
H16 H 0.7512 0.2772 1.3498
C14 C 0.6643(9) 0.2994(5) 1.4310(7)
H17 H 0.6964 0.2717 1.4701
C15 C 0.5810(10) 0.3347(6) 1.4433(7)
H18 H 0.5500 0.3264 1.4876
C16 C 0.3434(9) 0.6131(5) 1.0188(6)
H19 H 0.3767 0.6228 0.9761
C17 C 0.2421(8) 0.6331(5) 1.0167(6)
H20 H 0.2077 0.6573 0.9746
C18 C 0.1937(8) 0.6169(5) 1.0766(6)
H21 H 0.1238 0.6284 1.0758
C19 C 0.2472(8) 0.5829(5) 1.1400(6)
H22 H 0.2136 0.5712 1.1818
C20 C 0.3480(7) 0.5671(4) 1.1406(5)
C21 C 0.4153(7) 0.5323(4) 1.2025(5)
C22 C 0.5728(7) 0.4752(4) 1.2234(5)
C23 C 0.6714(7) 0.4743(4) 1.1950(6)
C24 C 0.7653(8) 0.4582(4) 1.2384(6)
H23 H 0.7694 0.4445 1.2907
C25 C 0.8546(8) 0.4621(5) 1.2054(7)
H24 H 0.9196 0.4503 1.2347
C26 C 0.8479(8) 0.4832(5) 1.1295(7)
H25 H 0.9074 0.4853 1.1054
C27 C 0.7525(8) 0.5011(4) 1.0904(6)
H26 H 0.7475 0.5170 1.0390
Mo2C Mo 0.14874(6) 0.17754(4) 1.44769(5)
Mo3C Mo 0.00904(7) 0.20992(4) 1.00761(6)
Mo4C Mo 0.15294(7) 0.09978(4) 1.10423(5)
Mo5C Mo 0.40479(7) 0.11150(4) 1.09459(5)
Mo6C Mo 0.52853(7) 0.23737(4) 1.62569(5)
Cu2B Cu 0.53514(10) 0.54294(6) 1.08318(8)
O7C O 0.0518(5) 0.2446(3) 1.4223(4)
O16C O 0.4665(5) 0.1886(3) 1.0817(3)
O22C O 0.2639(5) 0.2465(3) 0.9450(4)
O24C O 0.2731(5) 0.3238(3) 1.6235(4)
O25C O 0.1500(5) 0.2261(3) 1.5612(4)
N4B N 0.6039(6) 0.4192(3) 0.9211(5)
N5B N 0.4966(6) 0.4866(3) 0.8177(5)
N6B N 0.3336(6) 0.5028(4) 0.8788(5)
loop_
_geom_bond_atom_site_label_1
_geom_bond_atom_site_label_2
_geom_bond_site_symmetry_1
_geom_bond_site_symmetry_2
Mo1 O1 1_555 1_555
Mo2 O4 1_555 1_555
Mo3 O8 1_555 1_555
Mo4 O10 1_555 1_555
Mo5 O13 1_555 1_555
Mo6 O17 1_555 1_555
As1 O21 1_555 1_555
As2 O24 1_555 1_555
Cu1 O3 1_555 1_555
Cu2 O1 1_555 1_555
O2 Mo1 1_555 1_555
O3 H1 1_555 1_555
O4 Mo1 1_555 1_555
O5 Mo2 1_555 1_555
O6 Mo2 1_555 1_555
O7 Mo2 1_555 1_555
O9 Mo3 1_555 1_555
O10 Mo3 1_555 1_555
O11 Mo4 1_555 1_555
O12 Mo4 1_555 1_555
O13 Mo4 1_555 1_555
O14 Mo5 1_555 1_555
O15 Mo5 1_555 1_555
O16 Mo5 1_555 1_555
O18 Mo6 1_555 1_555
O19 Mo1 1_555 1_555
O20 Mo1 1_555 1_555
H2 O20 1_555 1_555
H3 O20 1_555 1_555
O21 Mo5 1_555 1_555
O22 As1 1_555 1_555
O23 Mo3 1_555 1_555
O24 Mo4C 1_555 1_555
O25 Mo2 1_555 1_555
O26 Mo1 1_555 1_555
O27 Cu2 1_555 1_555
H4 O27 1_555 1_555
H5 O27 1_555 1_555
N1 Cu1 1_555 1_555
N2 Cu1 1_555 1_555
N3 Cu1 1_555 1_555
N4 C16 1_555 1_555
N5 C21 1_555 1_555
N6 C23 1_555 1_555
C1 As2 1_555 1_555
H6 C1 1_555 1_555
H7 C1 1_555 1_555
C2 O3 1_555 1_555
H8 C2 1_555 1_555
C3 As1 1_555 1_555
H9 C3 1_555 1_555
H10 C3 1_555 1_555
C4 N1 1_555 1_555
H11 C4 1_555 1_555
C5 C4 1_555 1_555
H12 C5 1_555 1_555
C6 C5 1_555 1_555
H13 C6 1_555 1_555
C7 C6 1_555 1_555
H14 C7 1_555 1_555
C8 N1 1_555 1_555
C9 N2 1_555 1_555
C10 N2 1_555 1_555
C11 N3 1_555 1_555
C12 C11 1_555 1_555
H15 C12 1_555 1_555
C13 C12 1_555 1_555
H16 C13 1_555 1_555
C14 C13 1_555 1_555
H17 C14 1_555 1_555
C15 N3 1_555 1_555
H18 C15 1_555 1_555
C16 H19 1_555 1_555
C17 C16 1_555 1_555
H20 C17 1_555 1_555
C18 C17 1_555 1_555
H21 C18 1_555 1_555
C19 C18 1_555 1_555
H22 C19 1_555 1_555
C20 N4 1_555 1_555
C21 C9 1_555 1_555
C22 N5 1_555 1_555
C23 C22 1_555 1_555
C24 C23 1_555 1_555
H23 C24 1_555 1_555
C25 C24 1_555 1_555
H24 C25 1_555 1_555
C26 C25 1_555 1_555
H25 C26 1_555 1_555
C27 N6 1_555 1_555
H26 C27 1_555 1_555
Mo2C O22 1_555 1_555
Mo3C O7 1_555 1_555
Mo5C O24 1_555 1_555
Mo6C O16 1_555 1_555
Cu2B Cu2 1_555 1_555
O7C Mo3 1_555 1_555
O16C Mo6 1_555 1_555
O22C Mo2 1_555 1_555
O24C Mo4 1_555 1_555
O25C Mo3 1_555 1_555
N4B Cu2 1_555 1_555
N5B Cu2 1_555 1_555
N6B Cu2 1_555 1_555
Mo4 O23 1_555 1_555
Mo5 O24C 1_555 1_555
Mo6 O19 1_555 1_555
Mo6 O20 1_555 1_555
Mo6 O26 1_555 1_555
As1 O23 1_555 1_555
As2 O25 1_555 1_555
As2 O26 1_555 1_555
Cu1 O21 1_555 1_555
O25 Mo3C 1_555 1_555
N4 Cu2B 1_555 1_555
N5 Cu2B 1_555 1_555
N6 Cu2B 1_555 1_555
C1 C2 1_555 1_555
C2 C3 1_555 1_555
C7 C8 1_555 1_555
C8 C9 1_555 1_555
C10 C11 1_555 1_555
C10 C22 1_555 1_555
C14 C15 1_555 1_555
C19 C20 1_555 1_555
C20 C21 1_555 1_555
C26 C27 1_555 1_555
Mo2C O7C 1_555 1_555
Mo2C O25C 1_555 1_555
Mo5C O16C 1_555 1_555

#END
