
#######################################################################
#
#                 Cambridge Crystallographic Data Centre
#                                CCDC 
#
#######################################################################
#
# If this CIF has been generated from an entry in the Cambridge 
# Structural Database, then it will include bibliographic, chemical, 
# crystal, experimental, refinement or atomic coordinate data resulting 
# from the CCDC's data processing and validation procedures.
#
#######################################################################

data_IBEWAN
_symmetry_cell_setting           orthorhombic
_symmetry_space_group_name_H-M   'P b c m'
_symmetry_Int_Tables_number      57
_space_group_name_Hall           '-P 2c 2b'
loop_
_symmetry_equiv_pos_site_id
_symmetry_equiv_pos_as_xyz
1 x,y,z
2 -x,-y,1/2+z
3 x,1/2-y,-z
4 -x,1/2+y,1/2-z
5 -x,-y,-z
6 x,y,1/2-z
7 -x,1/2+y,z
8 x,1/2-y,1/2+z
_cell_length_a                   3.9289(5)
_cell_length_b                   13.8504(16)
_cell_length_c                   13.3660(15)
_cell_angle_alpha                90
_cell_angle_beta                 90
_cell_angle_gamma                90
_cell_volume                     727.335
loop_
_atom_site_label
_atom_site_type_symbol
_atom_site_fract_x
_atom_site_fract_y
_atom_site_fract_z
Mo1 Mo 0.3385(1) 0.3291(1) 0.8867(1)
O1 O 0.7751(9) 0.3155(2) 0.8787(3)
O2 O 0.2807(8) 0.4409(2) 0.9362(2)
O3 O 0.2592(12) 0.3676(3) 0.7500
O4 O 0.2618(13) 0.2500 1.0000
N1 N 0.2523(10) 0.1824(2) 0.8014(3)
C1 C 0.1494(12) 0.0971(3) 0.8304(4)
N2 N 0.0819(14) 0.0423(4) 0.7500
H1 H 0.1264 0.0774 0.8966
H2 H 0.0097 -0.0163 0.7500
O1_2 O -0.2249(9) 0.3155(2) 0.8787(3)
Mo1_2 Mo 1.3385(1) 0.3291(1) 0.8867(1)
Mo1E Mo 0.3385(1) 0.3291(1) 0.6133(1)
Mo1B Mo 0.3385(1) 0.1709(1) 1.1133(1)
N1E N 0.2523(10) 0.1824(2) 0.6986(3)
C1E C 0.1494(12) 0.0971(3) 0.6696(4)
Mo1_3 Mo -0.6615(1) 0.3291(1) 0.8867(1)
H1E H 0.1264 0.0774 0.6034
O1_3 O -1.2249(9) 0.3155(2) 0.8787(3)
O2_2 O -0.7193(8) 0.4409(2) 0.9362(2)
O3_2 O -0.7408(12) 0.3676(3) 0.7500
O4_2 O -0.7382(13) 0.2500 1.0000
N1_2 N -0.7477(10) 0.1824(2) 0.8014(3)
loop_
_geom_bond_atom_site_label_1
_geom_bond_atom_site_label_2
_geom_bond_site_symmetry_1
_geom_bond_site_symmetry_2
Mo1 O1 1_555 1_555
O1 Mo1_2 1_555 1_555
O2 Mo1 1_555 1_555
O3 Mo1 1_555 1_555
O4 Mo1 1_555 1_555
N1 Mo1 1_555 1_555
C1 N1 1_555 1_555
N2 C1 1_555 1_555
H1 C1 1_555 1_555
H2 N2 1_555 1_555
O1_2 Mo1 1_555 1_555
Mo1E O3 1_555 1_555
Mo1B O4 1_555 1_555
N1E N1 1_555 1_555
C1E N2 1_555 1_555
Mo1_3 O1_2 1_555 1_555
H1E C1E 1_555 1_555
O1_3 Mo1_3 1_555 1_555
O2_2 Mo1_3 1_555 1_555
O3_2 Mo1_3 1_555 1_555
O4_2 Mo1_3 1_555 1_555
N1_2 Mo1_3 1_555 1_555
Mo1E N1E 1_555 1_555
N1E C1E 1_555 1_555

#END
