
#######################################################################
#
#                 Cambridge Crystallographic Data Centre
#                                CCDC 
#
#######################################################################
#
# If this CIF has been generated from an entry in the Cambridge 
# Structural Database, then it will include bibliographic, chemical, 
# crystal, experimental, refinement or atomic coordinate data resulting 
# from the CCDC's data processing and validation procedures.
#
#######################################################################

data_IBEYIY
_symmetry_cell_setting           monoclinic
_symmetry_space_group_name_H-M   'P 21/c'
_symmetry_Int_Tables_number      14
_space_group_name_Hall           '-P 2ybc'
loop_
_symmetry_equiv_pos_site_id
_symmetry_equiv_pos_as_xyz
1 x,y,z
2 x,1/2-y,1/2+z
3 -x,-y,-z
4 -x,1/2+y,1/2-z
_cell_length_a                   15.990(6)
_cell_length_b                   7.578(3)
_cell_length_c                   17.294(6)
_cell_angle_alpha                90
_cell_angle_beta                 115.649(5)
_cell_angle_gamma                90
_cell_volume                     1889.06
loop_
_atom_site_label
_atom_site_type_symbol
_atom_site_fract_x
_atom_site_fract_y
_atom_site_fract_z
Er1 Er 0.50370(3) 0.20030(6) 0.39463(3)
O1 O 0.3717(4) 0.0721(10) 0.3884(4)
O2 O 0.3855(4) -0.0105(10) 0.5175(4)
O3 O -0.4079(5) -0.0459(10) 0.1393(4)
O4 O -0.3886(4) -0.2169(10) 0.2493(4)
O5 O 0.6139(4) 0.2777(10) 0.3405(4)
O6 O 0.6239(5) 0.4114(11) 0.4571(4)
C1 C 0.3369(6) 0.0276(13) 0.4399(6)
C2 C 0.2350(6) 0.0193(14) 0.4073(6)
C3 C 0.1771(6) 0.0482(15) 0.3223(6)
H1 H 0.2024 0.0731 0.2842
C4 C 0.0806(6) 0.0409(14) 0.2919(6)
H2 H 0.0429 0.0624 0.2342
C5 C 0.0401(6) 0.0017(14) 0.3472(6)
C6 C 0.0993(6) -0.0249(14) 0.4334(6)
H3 H 0.0743 -0.0507 0.4716
C7 C 0.1948(6) -0.0137(14) 0.4636(6)
H4 H 0.2326 -0.0282 0.5219
C8 C -0.0627(6) -0.0158(13) 0.3152(6)
C9 C -0.1241(6) 0.0655(14) 0.2400(6)
H5 H -0.1009 0.1363 0.2098
C10 C -0.2193(6) 0.0433(13) 0.2089(6)
H6 H -0.2592 0.0997 0.1587
C11 C -0.2552(6) -0.0634(13) 0.2530(6)
C12 C -0.1949(6) -0.1408(13) 0.3300(6)
H7 H -0.2184 -0.2076 0.3612
C13 C -0.1005(6) -0.1188(14) 0.3602(6)
H8 H -0.0609 -0.1730 0.4113
C14 C -0.3558(6) -0.1069(14) 0.2137(6)
C15 C 0.6605(7) 0.3717(14) 0.4091(6)
C16 C 0.7579(6) 0.4218(14) 0.4313(6)
C17 C 0.8024(7) 0.3615(14) 0.3836(6)
H9 H 0.7686 0.3014 0.3326
C18 C 0.8972(7) 0.3888(15) 0.4103(7)
H10 H 0.9265 0.3432 0.3784
C19 C 0.9481(6) 0.4850(13) 0.4851(6)
C20 C 0.9028(7) 0.5473(15) 0.5318(6)
H11 H 0.9360 0.6098 0.5821
C21 C 0.8080(7) 0.5180(15) 0.5047(6)
H12 H 0.7785 0.5634 0.5363
O7 O 0.5123(4) 0.2793(9) 0.5290(4)
O8 O 0.4945(4) -0.0577(9) 0.3146(4)
C19B C 1.0519(6) 0.5150(13) 0.5149(6)
C18B C 1.1028(7) 0.6112(15) 0.5897(7)
C17B C 1.1976(7) 0.6385(14) 0.6164(6)
C16B C 1.2421(6) 0.5782(14) 0.5687(6)
C15B C 1.3395(7) 0.6283(14) 0.5909(6)
O5B O 1.3861(4) 0.7223(10) 0.6595(4)
O6B O 1.3761(5) 0.5886(11) 0.5429(4)
C21B C 1.1920(7) 0.4820(15) 0.4953(6)
C20B C 1.0972(7) 0.4527(15) 0.4682(6)
H11B H 1.0640 0.3902 0.4179
H12B H 1.2215 0.4366 0.4637
H9B H 1.2314 0.6986 0.6674
H10B H 1.0735 0.6568 0.6216
O1B O 0.6283(4) -0.0721(10) 0.6116(4)
O2B O 0.6145(4) 0.0105(10) 0.4825(4)
O3B O 1.4079(5) 0.0459(10) 0.8607(4)
O4B O 1.3886(4) 0.2169(10) 0.7507(4)
C1B C 0.6631(6) -0.0276(13) 0.5601(6)
C2B C 0.7650(6) -0.0193(14) 0.5927(6)
C3B C 0.8229(6) -0.0482(15) 0.6777(6)
H1B H 0.7976 -0.0731 0.7158
C4B C 0.9194(6) -0.0409(14) 0.7081(6)
H2B H 0.9571 -0.0624 0.7658
C5B C 0.9599(6) -0.0017(14) 0.6528(6)
C6B C 0.9007(6) 0.0249(14) 0.5666(6)
H3B H 0.9257 0.0507 0.5284
C7B C 0.8052(6) 0.0137(14) 0.5364(6)
H4B H 0.7674 0.0282 0.4781
C8B C 1.0627(6) 0.0158(13) 0.6848(6)
C9B C 1.1241(6) -0.0655(14) 0.7600(6)
H5B H 1.1009 -0.1363 0.7902
C10B C 1.2193(6) -0.0433(13) 0.7911(6)
H6B H 1.2592 -0.0997 0.8413
C11B C 1.2552(6) 0.0634(13) 0.7470(6)
C12B C 1.1949(6) 0.1408(13) 0.6700(6)
H7B H 1.2184 0.2076 0.6388
C13B C 1.1005(6) 0.1188(14) 0.6398(6)
H8B H 1.0609 0.1730 0.5887
C14B C 1.3558(6) 0.1069(14) 0.7863(6)
Er1B Er 0.49630(3) -0.20030(6) 0.60537(3)
O7B O 0.4877(4) -0.2793(9) 0.4710(4)
O8B O 0.5055(4) 0.0577(9) 0.6854(4)
O3C O 0.4079(5) 0.4541(10) 0.3607(4)
O4C O 0.3886(4) 0.2831(10) 0.2507(4)
Er1C Er -0.50370(3) -0.29970(6) 0.10537(3)
Er1B_2 Er 1.49630(3) 0.79970(6) 0.60537(3)
Er1A Er 1.50370(3) 0.29970(6) 0.89463(3)
O3A O 0.5921(5) -0.4541(10) 0.6393(4)
O4A O 0.6114(4) -0.2831(10) 0.7493(4)
O5B_2 O 0.3861(4) -0.2777(10) 0.6595(4)
O6B_2 O 0.3761(5) -0.4114(11) 0.5429(4)
loop_
_geom_bond_atom_site_label_1
_geom_bond_atom_site_label_2
_geom_bond_site_symmetry_1
_geom_bond_site_symmetry_2
Er1 O1 1_555 1_555
O1 C1 1_555 1_555
O2 C1 1_555 1_555
O3 C14 1_555 1_555
O4 C14 1_555 1_555
O5 Er1 1_555 1_555
O6 Er1 1_555 1_555
C1 C2 1_555 1_555
C2 C3 1_555 1_555
C3 H1 1_555 1_555
C4 C3 1_555 1_555
H2 C4 1_555 1_555
C5 C4 1_555 1_555
C6 C5 1_555 1_555
H3 C6 1_555 1_555
C7 C2 1_555 1_555
H4 C7 1_555 1_555
C8 C5 1_555 1_555
C9 C8 1_555 1_555
H5 C9 1_555 1_555
C10 C9 1_555 1_555
H6 C10 1_555 1_555
C11 C10 1_555 1_555
C12 C11 1_555 1_555
H7 C12 1_555 1_555
C13 C8 1_555 1_555
H8 C13 1_555 1_555
C14 C11 1_555 1_555
C15 O5 1_555 1_555
C16 C15 1_555 1_555
C17 C16 1_555 1_555
H9 C17 1_555 1_555
C18 C17 1_555 1_555
H10 C18 1_555 1_555
C19 C18 1_555 1_555
C20 C19 1_555 1_555
H11 C20 1_555 1_555
C21 C16 1_555 1_555
H12 C21 1_555 1_555
O7 Er1 1_555 1_555
O8 Er1 1_555 1_555
C19B C19 1_555 1_555
C18B C19B 1_555 1_555
C17B C18B 1_555 1_555
C16B C17B 1_555 1_555
C15B C16B 1_555 1_555
O5B C15B 1_555 1_555
O6B C15B 1_555 1_555
C21B C16B 1_555 1_555
C20B C19B 1_555 1_555
H11B C20B 1_555 1_555
H12B C21B 1_555 1_555
H9B C17B 1_555 1_555
H10B C18B 1_555 1_555
O1B C1B 1_555 1_555
O2B Er1 1_555 1_555
O3B C14B 1_555 1_555
O4B C14B 1_555 1_555
C1B O2B 1_555 1_555
C2B C1B 1_555 1_555
C3B C2B 1_555 1_555
H1B C3B 1_555 1_555
C4B C3B 1_555 1_555
H2B C4B 1_555 1_555
C5B C4B 1_555 1_555
C6B C5B 1_555 1_555
H3B C6B 1_555 1_555
C7B C2B 1_555 1_555
H4B C7B 1_555 1_555
C8B C5B 1_555 1_555
C9B C8B 1_555 1_555
H5B C9B 1_555 1_555
C10B C9B 1_555 1_555
H6B C10B 1_555 1_555
C11B C10B 1_555 1_555
C12B C11B 1_555 1_555
H7B C12B 1_555 1_555
C13B C8B 1_555 1_555
H8B C13B 1_555 1_555
C14B C11B 1_555 1_555
Er1B O2 1_555 1_555
O7B Er1B 1_555 1_555
O8B Er1B 1_555 1_555
O3C Er1 1_555 1_555
O4C Er1 1_555 1_555
Er1C O3 1_555 1_555
Er1B_2 O5B 1_555 1_555
Er1A O3B 1_555 1_555
O3A Er1B 1_555 1_555
O4A Er1B 1_555 1_555
O5B_2 Er1B 1_555 1_555
O6B_2 Er1B 1_555 1_555
O4 Er1C 1_555 1_555
O6 C15 1_555 1_555
C6 C7 1_555 1_555
C12 C13 1_555 1_555
C20 C21 1_555 1_555
O6B Er1B_2 1_555 1_555
C21B C20B 1_555 1_555
O1B Er1B 1_555 1_555
O4B Er1A 1_555 1_555
C6B C7B 1_555 1_555
C12B C13B 1_555 1_555

#END
