
#######################################################################
#
#                 Cambridge Crystallographic Data Centre
#                                CCDC 
#
#######################################################################
#
# If this CIF has been generated from an entry in the Cambridge 
# Structural Database, then it will include bibliographic, chemical, 
# crystal, experimental, refinement or atomic coordinate data resulting 
# from the CCDC's data processing and validation procedures.
#
#######################################################################

data_IBICAZ
_symmetry_cell_setting           hexagonal
_symmetry_space_group_name_H-M   'P 61'
_symmetry_Int_Tables_number      169
_space_group_name_Hall           'P 61'
loop_
_symmetry_equiv_pos_site_id
_symmetry_equiv_pos_as_xyz
1 x,y,z
2 x-y,x,1/6+z
3 -y,x-y,1/3+z
4 -x,-y,1/2+z
5 -x+y,-x,2/3+z
6 y,-x+y,5/6+z
_cell_length_a                   17.691(2)
_cell_length_b                   17.691(2)
_cell_length_c                   10.5617(12)
_cell_angle_alpha                90
_cell_angle_beta                 90
_cell_angle_gamma                120
_cell_volume                     2862.66
loop_
_atom_site_label
_atom_site_type_symbol
_atom_site_fract_x
_atom_site_fract_y
_atom_site_fract_z
Zn1 Zn 0.45961(2) 0.53061(2) 0.11764(4)
Cl1 Cl 0.54491(9) 0.67598(7) 0.11882(12)
O1 O 0.48509(14) 0.51151(15) 0.3120(2)
O2 O 0.56639(18) 0.47247(19) 0.4235(2)
N1 N 0.48480(18) 0.1549(2) -0.0109(2)
N2 N 0.49753(16) 0.43686(15) 0.0968(2)
H1 H 0.5311 0.4499 0.0260
C1 C 0.5029(2) 0.2207(3) -0.0925(3)
H2 H 0.5321 0.2243 -0.1674
C2 C 0.4413(2) 0.1506(2) 0.0946(3)
H3 H 0.4275 0.1048 0.1503
C3 C 0.4158(2) 0.2101(2) 0.1257(3)
H4 H 0.3855 0.2041 0.2005
C4 C 0.4356(2) 0.2791(2) 0.0446(3)
C5 C 0.4795(2) 0.2829(3) -0.0680(3)
H5 H 0.4928 0.3273 -0.1261
C6 C 0.4167(2) 0.3509(2) 0.0770(3)
H6 H 0.3829 0.3564 0.0092
H7 H 0.3816 0.3351 0.1534
C7 C 0.53190(18) 0.47780(19) 0.3231(3)
C8 C 0.54949(18) 0.4361(2) 0.2062(3)
H8 H 0.5294 0.3750 0.2269
C9 C 0.6474(2) 0.4804(3) 0.1800(3)
H9 H 0.6756 0.4810 0.2602
C10 C 0.6858(3) 0.5741(3) 0.1390(5)
H10 H 0.7458 0.5969 0.1155
H11 H 0.6824 0.6078 0.2076
H12 H 0.6538 0.5772 0.0677
C11 C 0.6707(3) 0.4297(4) 0.0845(4)
H13 H 0.6476 0.4310 0.0028
H14 H 0.6461 0.3702 0.1121
H15 H 0.7330 0.4561 0.0790
Zn1C Zn 0.54039(2) 0.46939(2) 0.61764(4)
Zn1E Zn 0.53061(2) 0.07100(3) -0.04903(4)
O2C O 0.43361(18) 0.52753(19) -0.0765(2)
N1A N 0.32990(27) 0.48480(18) 0.1558(2)
O3 O 0.3259(7) 0.2705(6) 0.3866(7)
O4 O 0.1533(15) 0.2143(8) 0.518(2)
loop_
_geom_bond_atom_site_label_1
_geom_bond_atom_site_label_2
_geom_bond_site_symmetry_1
_geom_bond_site_symmetry_2
Zn1 Cl1 1_555 1_555
O1 Zn1 1_555 1_555
O2 C7 1_555 1_555
N1 C1 1_555 1_555
N2 Zn1 1_555 1_555
H1 N2 1_555 1_555
C1 H2 1_555 1_555
C2 N1 1_555 1_555
H3 C2 1_555 1_555
C3 C2 1_555 1_555
H4 C3 1_555 1_555
C4 C3 1_555 1_555
C5 C1 1_555 1_555
H5 C5 1_555 1_555
C6 N2 1_555 1_555
H6 C6 1_555 1_555
H7 C6 1_555 1_555
C7 O1 1_555 1_555
C8 N2 1_555 1_555
H8 C8 1_555 1_555
C9 C8 1_555 1_555
H9 C9 1_555 1_555
C10 C9 1_555 1_555
H10 C10 1_555 1_555
H11 C10 1_555 1_555
H12 C10 1_555 1_555
C11 C9 1_555 1_555
H13 C11 1_555 1_555
H14 C11 1_555 1_555
H15 C11 1_555 1_555
Zn1C O2 1_555 1_555
Zn1E N1 1_555 1_555
O2C Zn1 1_555 1_555
N1A Zn1 1_555 1_555
C4 C5 1_555 1_555
C4 C6 1_555 1_555
C7 C8 1_555 1_555

#END
