
#######################################################################
#
#                 Cambridge Crystallographic Data Centre
#                                CCDC 
#
#######################################################################
#
# If this CIF has been generated from an entry in the Cambridge 
# Structural Database, then it will include bibliographic, chemical, 
# crystal, experimental, refinement or atomic coordinate data resulting 
# from the CCDC's data processing and validation procedures.
#
#######################################################################

data_IBICIH
_symmetry_cell_setting           hexagonal
_symmetry_space_group_name_H-M   'P 65'
_symmetry_Int_Tables_number      170
_space_group_name_Hall           'P 65'
loop_
_symmetry_equiv_pos_site_id
_symmetry_equiv_pos_as_xyz
1 x,y,z
2 x-y,x,5/6+z
3 -y,x-y,2/3+z
4 -x,-y,1/2+z
5 -x+y,-x,1/3+z
6 y,-x+y,1/6+z
_cell_length_a                   17.703(2)
_cell_length_b                   17.703(2)
_cell_length_c                   10.585(5)
_cell_angle_alpha                90
_cell_angle_beta                 90
_cell_angle_gamma                120
_cell_volume                     2872.87
loop_
_atom_site_label
_atom_site_type_symbol
_atom_site_fract_x
_atom_site_fract_y
_atom_site_fract_z
Zn1 Zn 0.45986(3) 0.53095(3) 0.98054(5)
Cl1 Cl 0.54560(11) 0.67676(9) 0.97990(15)
O1 O 0.5662(2) 0.4725(3) 0.6747(3)
O2 O 0.4851(2) 0.5118(2) 0.7863(3)
N1 N 0.4848(2) 0.1545(3) 1.1090(3)
N2 N 0.4974(2) 0.4368(2) 1.0016(3)
H1 H 0.5310 0.4497 1.0723
C1 C 0.5319(3) 0.4781(3) 0.7752(4)
C2 C 0.4170(3) 0.3515(3) 1.0213(4)
H2 H 0.3818 0.3359 0.9451
H3 H 0.3833 0.3571 1.0892
C3 C 0.4353(3) 0.2792(3) 1.0532(4)
C4 C 0.4802(5) 0.2837(3) 1.1669(4)
H4 H 0.4935 0.3281 1.2249
C5 C 0.4162(3) 0.2106(3) 0.9726(5)
H5 H 0.3865 0.2047 0.8975
C6 C 0.4416(3) 0.1507(3) 1.0045(4)
H6 H 0.4275 0.1048 0.9490
C7 C 0.5038(4) 0.2218(4) 1.1903(4)
H7 H 0.5340 0.2260 1.2643
C8 C 0.5499(3) 0.4363(3) 0.8915(4)
H8 H 0.5298 0.3752 0.8706
C9 C 0.6477(3) 0.4805(3) 0.9187(4)
H9 H 0.6759 0.4811 0.8387
C10 C 0.6703(4) 0.4285(5) 1.0126(5)
H10 H 0.6430 0.4251 1.0924
H11 H 0.7324 0.4573 1.0236
H12 H 0.6496 0.3708 0.9804
C11 C 0.6855(4) 0.5744(4) 0.9580(6)
H13 H 0.6537 0.5777 1.0292
H14 H 0.6811 0.6073 0.8890
H15 H 0.7456 0.5981 0.9807
Zn1C Zn 0.54014(3) 0.46905(3) 0.48054(5)
Zn1E Zn 0.53095(3) 0.07109(4) 1.14721(5)
O1C O 0.4338(2) 0.5275(3) 1.1747(3)
N1A N 0.3303(4) 0.4848(2) 0.9423(3)
O3 O 0.3259(7) 0.2715(7) 0.7131(8)
O4 O 0.2155(10) 0.0590(17) 0.750(2)
loop_
_geom_bond_atom_site_label_1
_geom_bond_atom_site_label_2
_geom_bond_site_symmetry_1
_geom_bond_site_symmetry_2
Zn1 Cl1 1_555 1_555
O1 C1 1_555 1_555
O2 Zn1 1_555 1_555
N1 C6 1_555 1_555
N2 Zn1 1_555 1_555
H1 N2 1_555 1_555
C1 O2 1_555 1_555
C2 N2 1_555 1_555
H2 C2 1_555 1_555
H3 C2 1_555 1_555
C3 C2 1_555 1_555
C4 C3 1_555 1_555
H4 C4 1_555 1_555
C5 C3 1_555 1_555
H5 C5 1_555 1_555
C6 C5 1_555 1_555
H6 C6 1_555 1_555
C7 N1 1_555 1_555
H7 C7 1_555 1_555
C8 N2 1_555 1_555
H8 C8 1_555 1_555
C9 C8 1_555 1_555
H9 C9 1_555 1_555
C10 C9 1_555 1_555
H10 C10 1_555 1_555
H11 C10 1_555 1_555
H12 C10 1_555 1_555
C11 C9 1_555 1_555
H13 C11 1_555 1_555
H14 C11 1_555 1_555
H15 C11 1_555 1_555
Zn1C O1 1_555 1_555
Zn1E N1 1_555 1_555
O1C Zn1 1_555 1_555
N1A Zn1 1_555 1_555
C1 C8 1_555 1_555
C4 C7 1_555 1_555

#END
