
#######################################################################
#
#                 Cambridge Crystallographic Data Centre
#                                CCDC 
#
#######################################################################
#
# If this CIF has been generated from an entry in the Cambridge 
# Structural Database, then it will include bibliographic, chemical, 
# crystal, experimental, refinement or atomic coordinate data resulting 
# from the CCDC's data processing and validation procedures.
#
#######################################################################

data_IBICON
_symmetry_cell_setting           hexagonal
_symmetry_space_group_name_H-M   'P 65'
_symmetry_Int_Tables_number      170
_space_group_name_Hall           'P 65'
loop_
_symmetry_equiv_pos_site_id
_symmetry_equiv_pos_as_xyz
1 x,y,z
2 x-y,x,5/6+z
3 -y,x-y,2/3+z
4 -x,-y,1/2+z
5 -x+y,-x,1/3+z
6 y,-x+y,1/6+z
_cell_length_a                   17.7786(7)
_cell_length_b                   17.7786(7)
_cell_length_c                   10.4868(18)
_cell_angle_alpha                90
_cell_angle_beta                 90
_cell_angle_gamma                120
_cell_volume                     2870.57
loop_
_atom_site_label
_atom_site_type_symbol
_atom_site_fract_x
_atom_site_fract_y
_atom_site_fract_z
Br1 Br 1.13126(7) 0.45179(9) 0.08769(13)
Zn1 Zn 1.07043(4) 0.54262(5) 0.07724(6)
O1 O 1.0263(3) 0.5151(3) -0.1180(4)
N1 N 0.6725(3) 0.5178(4) 0.2038(5)
N2 N 0.9406(3) 0.5066(4) 0.0969(4)
H1 H 0.9204 0.4741 0.1690
C1 C 0.7221(5) 0.5036(5) 0.2862(7)
H2 H 0.6980 0.4769 0.3637
C2 C 0.7088(5) 0.5595(5) 0.0980(7)
H3 H 0.6764 0.5730 0.0427
C3 C 0.7946(4) 0.5847(5) 0.0649(7)
H4 H 0.8180 0.6126 -0.0122
C4 C 0.8433(5) 0.5674(5) 0.1484(7)
C5 C 0.8049(5) 0.5260(5) 0.2612(7)
H5 H 0.8364 0.5137 0.3201
C6 C 0.9337(4) 0.5868(5) 0.1151(7)
H6 H 0.9520 0.6208 0.0373
H7 H 0.9731 0.6217 0.1825
C7 C 0.9473(4) 0.4691(4) -0.1288(6)
C8 C 0.8870(4) 0.4519(4) -0.0124(6)
H8 H 0.8467 0.4723 -0.0354
C9 C 0.8317(5) 0.3544(5) 0.0177(7)
H9 H 0.8037 0.3254 -0.0623
C10 C 0.8889(6) 0.3176(6) 0.0587(9)
H10 H 0.9196 0.3463 0.1351
H11 H 0.9299 0.3269 -0.0077
H12 H 0.8534 0.2565 0.0746
C11 C 0.7592(6) 0.3346(7) 0.1121(8)
H13 H 0.7260 0.2731 0.1265
H14 H 0.7220 0.3545 0.0782
H15 H 0.7838 0.3637 0.1912
O3 O 0.9079(3) 0.4299(4) -0.2280(4)
Zn1C Zn 0.92957(4) 0.45738(5) -0.42276(6)
Zn1E Zn 0.54262(5) 0.47219(6) 0.24391(6)
N1A N 1.1547(5) 0.6725(3) 0.0371(5)
O3C O 1.0921(3) 0.5701(4) 0.2720(4)
O2 O 0.0523(5) 0.3127(5) 0.3061(8)
O4 O 0.136(3) 0.206(3) 0.340(3)
loop_
_geom_bond_atom_site_label_1
_geom_bond_atom_site_label_2
_geom_bond_site_symmetry_1
_geom_bond_site_symmetry_2
Br1 Zn1 1_555 1_555
Zn1 O1 1_555 1_555
O1 C7 1_555 1_555
N1 C1 1_555 1_555
N2 Zn1 1_555 1_555
H1 N2 1_555 1_555
C1 H2 1_555 1_555
C2 N1 1_555 1_555
H3 C2 1_555 1_555
C3 C2 1_555 1_555
H4 C3 1_555 1_555
C4 C3 1_555 1_555
C5 C1 1_555 1_555
H5 C5 1_555 1_555
C6 N2 1_555 1_555
H6 C6 1_555 1_555
H7 C6 1_555 1_555
C7 C8 1_555 1_555
C8 N2 1_555 1_555
H8 C8 1_555 1_555
C9 C8 1_555 1_555
H9 C9 1_555 1_555
C10 C9 1_555 1_555
H10 C10 1_555 1_555
H11 C10 1_555 1_555
H12 C10 1_555 1_555
C11 C9 1_555 1_555
H13 C11 1_555 1_555
H14 C11 1_555 1_555
H15 C11 1_555 1_555
O3 C7 1_555 1_555
Zn1C O3 1_555 1_555
Zn1E N1 1_555 1_555
N1A Zn1 1_555 1_555
O3C Zn1 1_555 1_555
C4 C5 1_555 1_555
C4 C6 1_555 1_555

#END
