
#######################################################################
#
#                 Cambridge Crystallographic Data Centre
#                                CCDC 
#
#######################################################################
#
# If this CIF has been generated from an entry in the Cambridge 
# Structural Database, then it will include bibliographic, chemical, 
# crystal, experimental, refinement or atomic coordinate data resulting 
# from the CCDC's data processing and validation procedures.
#
#######################################################################

data_IBICED
_symmetry_cell_setting           hexagonal
_symmetry_space_group_name_H-M   'P 61'
_symmetry_Int_Tables_number      169
_space_group_name_Hall           'P 61'
loop_
_symmetry_equiv_pos_site_id
_symmetry_equiv_pos_as_xyz
1 x,y,z
2 x-y,x,1/6+z
3 -y,x-y,1/3+z
4 -x,-y,1/2+z
5 -x+y,-x,2/3+z
6 y,-x+y,5/6+z
_cell_length_a                   17.768(2)
_cell_length_b                   17.768(2)
_cell_length_c                   10.4796(11)
_cell_angle_alpha                90
_cell_angle_beta                 90
_cell_angle_gamma                120
_cell_volume                     2865.18
loop_
_atom_site_label
_atom_site_type_symbol
_atom_site_fract_x
_atom_site_fract_y
_atom_site_fract_z
Br1 Br 0.67968(7) 0.13151(7) 0.25161(13)
Zn1 Zn 0.52779(5) 0.07072(4) 0.26285(6)
O1 O 0.5117(3) 0.0273(3) 0.4589(4)
O2 O 0.4793(4) -0.0927(3) 0.5677(4)
N1 N 0.4331(3) -0.0595(3) 0.2435(4)
H1 H 0.4451 -0.0796 0.1708
N2 N 0.1548(4) -0.3267(3) 0.1361(5)
C1 C 0.4790(4) -0.0532(4) 0.4690(6)
C2 C 0.4356(5) -0.1133(4) 0.3529(6)
H2 H 0.3752 -0.1539 0.3767
C3 C 0.4780(5) -0.1676(4) 0.3220(6)
H3 H 0.4792 -0.1958 0.4018
C4 C 0.5713(6) -0.1119(5) 0.2800(10)
H4 H 0.5915 -0.1480 0.2428
H5 H 0.6067 -0.0817 0.3524
H6 H 0.5750 -0.0704 0.2179
C5 C 0.4246(7) -0.2408(5) 0.2261(8)
H7 H 0.4318 -0.2167 0.1421
H8 H 0.3643 -0.2693 0.2495
H9 H 0.4444 -0.2822 0.2270
C6 C 0.1488(5) -0.2913(4) 0.2432(7)
H10 H 0.1027 -0.3241 0.2982
C7 C 0.2192(6) -0.2791(5) 0.0538(7)
H11 H 0.2232 -0.3044 -0.0217
C8 C 0.2103(5) -0.2050(4) 0.2767(7)
H12 H 0.2062 -0.1817 0.3542
C9 C 0.2762(5) -0.1561(4) 0.1932(7)
C10 C 0.2793(6) -0.1940(5) 0.0786(7)
H13 H 0.3222 -0.1615 0.0189
C11 C 0.3462(4) -0.0670(4) 0.2266(7)
H14 H 0.3306 -0.0492 0.3051
H15 H 0.3503 -0.0273 0.1599
Zn1C Zn 0.47221(5) -0.07072(4) 0.76285(6)
Zn1E Zn 0.07072(4) -0.45707(6) 0.09618(6)
O2C O 0.5207(4) 0.0927(3) 0.0677(4)
N2A N 0.4815(5) 0.1548(4) 0.3028(5)
O3 O 0.3107(6) 0.2622(6) 0.6983(10)
O4 O 0.190(2) 0.048(3) 0.649(5)
loop_
_geom_bond_atom_site_label_1
_geom_bond_atom_site_label_2
_geom_bond_site_symmetry_1
_geom_bond_site_symmetry_2
Br1 Zn1 1_555 1_555
Zn1 O1 1_555 1_555
O1 C1 1_555 1_555
O2 C1 1_555 1_555
N1 Zn1 1_555 1_555
H1 N1 1_555 1_555
N2 C6 1_555 1_555
C1 C2 1_555 1_555
C2 N1 1_555 1_555
H2 C2 1_555 1_555
C3 C2 1_555 1_555
H3 C3 1_555 1_555
C4 C3 1_555 1_555
H4 C4 1_555 1_555
H5 C4 1_555 1_555
H6 C4 1_555 1_555
C5 C3 1_555 1_555
H7 C5 1_555 1_555
H8 C5 1_555 1_555
H9 C5 1_555 1_555
C6 H10 1_555 1_555
C7 N2 1_555 1_555
H11 C7 1_555 1_555
C8 C6 1_555 1_555
H12 C8 1_555 1_555
C9 C8 1_555 1_555
C10 C7 1_555 1_555
H13 C10 1_555 1_555
C11 N1 1_555 1_555
H14 C11 1_555 1_555
H15 C11 1_555 1_555
Zn1C O2 1_555 1_555
Zn1E N2 1_555 1_555
O2C Zn1 1_555 1_555
N2A Zn1 1_555 1_555
C9 C10 1_555 1_555
C9 C11 1_555 1_555

#END
