
#######################################################################
#
#                 Cambridge Crystallographic Data Centre
#                                CCDC 
#
#######################################################################
#
# If this CIF has been generated from an entry in the Cambridge 
# Structural Database, then it will include bibliographic, chemical, 
# crystal, experimental, refinement or atomic coordinate data resulting 
# from the CCDC's data processing and validation procedures.
#
#######################################################################

data_IBIDAA
_symmetry_cell_setting           hexagonal
_symmetry_space_group_name_H-M   'P 61'
_symmetry_Int_Tables_number      169
_space_group_name_Hall           'P 61'
loop_
_symmetry_equiv_pos_site_id
_symmetry_equiv_pos_as_xyz
1 x,y,z
2 x-y,x,1/6+z
3 -y,x-y,1/3+z
4 -x,-y,1/2+z
5 -x+y,-x,2/3+z
6 y,-x+y,5/6+z
_cell_length_a                   17.8590(10)
_cell_length_b                   17.8590(10)
_cell_length_c                   10.5031(12)
_cell_angle_alpha                90
_cell_angle_beta                 90
_cell_angle_gamma                120
_cell_volume                     2901.1
loop_
_atom_site_label
_atom_site_type_symbol
_atom_site_fract_x
_atom_site_fract_y
_atom_site_fract_z
Br1 Br 0.54637(8) 0.67742(6) 0.43001(12)
C1 C 0.6631(6) 0.4233(6) 0.4087(8)
H1 H 0.6365 0.4207 0.3282
H2 H 0.6397 0.3660 0.4426
H3 H 0.7244 0.4485 0.3974
C2 C 0.6453(4) 0.4782(5) 0.5007(5)
H4 H 0.6756 0.4814 0.5800
C3 C 0.6786(6) 0.5679(8) 0.4572(11)
H5 H 0.7403 0.5962 0.4487
H6 H 0.6638 0.5984 0.5182
H7 H 0.6534 0.5675 0.3763
C4 C 0.5483(3) 0.4351(4) 0.5335(4)
H8 H 0.5285 0.3752 0.5584
C5 C 0.4152(4) 0.3482(4) 0.4037(6)
H9 H 0.3799 0.3519 0.3367
H10 H 0.3818 0.3328 0.4818
C6 C 0.4348(4) 0.2770(4) 0.3709(5)
C7 C 0.4739(6) 0.2787(4) 0.2574(6)
H11 H 0.4843 0.3213 0.1978
C8 C 0.4157(4) 0.2100(4) 0.4537(6)
H12 H 0.3873 0.2055 0.5300
C9 C 0.4395(4) 0.1496(5) 0.4219(6)
H13 H 0.4255 0.1040 0.4776
C10 C 0.4977(5) 0.2189(6) 0.2310(6)
H14 H 0.5253 0.2224 0.1543
C11 C 0.5330(3) 0.4804(4) 0.6465(5)
N1 N 0.4929(3) 0.4334(3) 0.4201(3)
H15 H 0.5255 0.4457 0.3482
N2 N 0.4823(3) 0.1542(3) 0.3131(4)
O1 O 0.5725(3) 0.4826(4) 0.7451(4)
O2 O 0.4830(3) 0.5092(3) 0.6360(3)
Zn1 Zn 0.45615(4) 0.52621(4) 0.44051(5)
N2A N 0.3281(4) 0.4823(3) 0.4798(4)
O1C O 0.4275(3) 0.5174(4) 0.2451(4)
Zn1C Zn 0.54385(4) 0.47379(4) 0.94051(5)
Zn1E Zn 0.52621(4) 0.07006(6) 0.27384(5)
loop_
_geom_bond_atom_site_label_1
_geom_bond_atom_site_label_2
_geom_bond_site_symmetry_1
_geom_bond_site_symmetry_2
Br1 Zn1 1_555 1_555
C1 H1 1_555 1_555
H2 C1 1_555 1_555
H3 C1 1_555 1_555
C2 C1 1_555 1_555
H4 C2 1_555 1_555
C3 C2 1_555 1_555
H5 C3 1_555 1_555
H6 C3 1_555 1_555
H7 C3 1_555 1_555
C4 C2 1_555 1_555
H8 C4 1_555 1_555
C5 H9 1_555 1_555
H10 C5 1_555 1_555
C6 C5 1_555 1_555
C7 C6 1_555 1_555
H11 C7 1_555 1_555
C8 C6 1_555 1_555
H12 C8 1_555 1_555
C9 C8 1_555 1_555
H13 C9 1_555 1_555
C10 C7 1_555 1_555
H14 C10 1_555 1_555
C11 C4 1_555 1_555
N1 C4 1_555 1_555
H15 N1 1_555 1_555
N2 C9 1_555 1_555
O1 C11 1_555 1_555
O2 C11 1_555 1_555
Zn1 N1 1_555 1_555
N2A Zn1 1_555 1_555
O1C Zn1 1_555 1_555
Zn1C O1 1_555 1_555
Zn1E N2 1_555 1_555
C5 N1 1_555 1_555
C10 N2 1_555 1_555
O2 Zn1 1_555 1_555

#END
