
#######################################################################
#
#                 Cambridge Crystallographic Data Centre
#                                CCDC 
#
#######################################################################
#
# If this CIF has been generated from an entry in the Cambridge 
# Structural Database, then it will include bibliographic, chemical, 
# crystal, experimental, refinement or atomic coordinate data resulting 
# from the CCDC's data processing and validation procedures.
#
#######################################################################

data_IBIDEE
_symmetry_cell_setting           triclinic
_symmetry_space_group_name_H-M   'P -1'
_symmetry_Int_Tables_number      2
_space_group_name_Hall           '-P 1'
loop_
_symmetry_equiv_pos_site_id
_symmetry_equiv_pos_as_xyz
1 x,y,z
2 -x,-y,-z
_cell_length_a                   10.4540(17)
_cell_length_b                   12.914(2)
_cell_length_c                   15.172(2)
_cell_angle_alpha                65.459(2)
_cell_angle_beta                 73.521(2)
_cell_angle_gamma                73.497(2)
_cell_volume                     1753.95
loop_
_atom_site_label
_atom_site_type_symbol
_atom_site_fract_x
_atom_site_fract_y
_atom_site_fract_z
O1 O 0.1830(2) -0.01336(17) 0.14639(16)
H1 H 0.1196 -0.0033 0.1108
H2 H 0.2305 -0.0974 0.1687
O2 O -0.0344(2) 0.17199(18) 0.38631(15)
H3 H 0.0000 0.2191 0.4032
H4 H -0.1146 0.2276 0.3708
O3 O 0.1102(2) 0.22713(17) 0.14312(16)
H5 H 0.0958 0.2310 0.0825
H6 H 0.0993 0.2995 0.1365
O4 O 0.1685(2) -0.13908(18) 0.37479(17)
H7 H 0.2442 -0.1865 0.3998
H8 H 0.0980 -0.1750 0.4185
O5 O 0.1891(3) 0.0075(2) 0.46420(18)
H9 H 0.1400 -0.0579 0.5177
H10 H 0.1732 0.0612 0.4970
Ca1 Ca 0.14249(5) 0.06692(5) 0.29308(4)
C1 C 0.1353(3) 0.2780(2) 0.5352(2)
C2 C 0.2327(3) 0.3399(2) 0.62275(19)
C3 C 0.2574(3) 0.4200(2) 0.50928(19)
C4 C 0.4681(3) 0.3185(2) 0.5564(2)
C5 C 0.1962(3) 0.4042(2) 0.3620(2)
H13 H 0.1201 0.3800 0.3550
H14 H 0.1807 0.4891 0.3337
C6 C 0.4851(3) 0.4645(2) 0.38779(19)
H15 H 0.4337 0.5434 0.3612
H16 H 0.5691 0.4706 0.4003
C7 C 0.3214(3) 0.2811(2) 0.2662(2)
C8 C 0.4293(3) 0.4243(2) 0.25337(19)
H17 H 0.3941 0.5065 0.2160
C9 C 0.5178(3) 0.3600(2) 0.1839(2)
H18 H 0.5412 0.4142 0.1153
C10 C 0.6432(3) 0.3418(2) 0.2970(2)
C11 C 0.4611(3) 0.2182(2) 0.1297(2)
H19 H 0.3755 0.2066 0.1242
H20 H 0.5052 0.2625 0.0634
C12 C 0.7588(3) 0.2414(2) 0.1794(2)
H21 H 0.7686 0.2840 0.1080
H22 H 0.8384 0.2438 0.1999
C13 C 0.4986(3) 0.0059(2) 0.21982(19)
C14 C 0.6942(3) 0.0870(2) 0.1438(2)
H23 H 0.7296 0.1199 0.0720
C15 C 0.7342(3) -0.0473(2) 0.18549(19)
H24 H 0.7774 -0.0786 0.1322
C16 C 0.8418(3) 0.0301(2) 0.25314(19)
C17 C 0.5912(3) -0.2033(2) 0.2683(2)
H25 H 0.4963 -0.2040 0.2721
H26 H 0.6473 -0.2346 0.2179
C18 C 0.0840(3) 0.1807(2) 0.7154(2)
H27 H 0.0523 0.2132 0.7676
H28 H 0.0040 0.1687 0.7020
C19 C 0.1651(3) 0.4031(2) 0.6947(2)
H29 H 0.2238 0.4518 0.6906
H30 H 0.1495 0.3468 0.7613
H31 H 0.0790 0.4509 0.6778
C20 C 0.1913(3) 0.5473(2) 0.4856(2)
H32 H 0.0934 0.5544 0.5053
H33 H 0.2147 0.5895 0.4152
H34 H 0.2237 0.5791 0.5212
N1 N 0.1473(2) 0.26497(19) 0.62635(16)
N2 N 0.1973(2) 0.36661(18) 0.46597(16)
N3 N 0.3705(2) 0.27823(19) 0.63708(16)
N4 N 0.4057(2) 0.40240(19) 0.48153(16)
N5 N 0.3203(2) 0.35906(19) 0.30654(16)
N6 N 0.4313(2) 0.28517(19) 0.19171(17)
N7 N 0.5208(2) 0.41359(19) 0.31333(17)
N8 N 0.6374(2) 0.29947(18) 0.22894(16)
N9 N 0.5476(2) 0.10646(18) 0.16600(16)
N10 N 0.6064(2) -0.08403(19) 0.23802(16)
N11 N 0.7563(2) 0.12134(19) 0.20026(17)
N12 N 0.8281(2) -0.06971(18) 0.24880(16)
O7 O 0.07331(19) 0.22300(16) 0.51717(14)
O8 O 0.23691(19) 0.22032(16) 0.29243(14)
O9 O 0.37852(18) -0.00184(16) 0.24532(15)
O10 O 0.59100(19) 0.28955(17) 0.55256(15)
O11 O 0.7396(2) 0.32420(18) 0.33423(15)
O12 O 0.92074(18) 0.03586(16) 0.29735(14)
O1A O -0.1830(2) 0.01336(17) 0.85361(16)
H1A H -0.1196 0.0033 0.8892
H2A H -0.2305 0.0974 0.8313
O2A O 0.0344(2) -0.17199(18) 0.61369(15)
H3A H 0.0000 -0.2191 0.5968
H4A H 0.1146 -0.2276 0.6292
O3A O -0.1102(2) -0.22713(17) 0.85688(16)
H5A H -0.0958 -0.2310 0.9175
H6A H -0.0993 -0.2995 0.8635
O4A O -0.1685(2) 0.13908(18) 0.62521(17)
H7A H -0.2442 0.1865 0.6002
H8A H -0.0980 0.1750 0.5815
O5A O -0.1891(3) -0.0075(2) 0.53580(18)
H9A H -0.1400 0.0579 0.4823
H10A H -0.1732 -0.0612 0.5030
Ca1A Ca -0.14249(5) -0.06692(5) 0.70692(4)
Ca1_2 Ca 1.14249(5) 0.06692(5) 0.29308(4)
Ca1A_2 Ca 0.85751(5) -0.06692(5) 0.70692(4)
C1A C 0.8647(3) -0.2780(2) 0.4648(2)
C2A C 0.7673(3) -0.3399(2) 0.37725(19)
C3A C 0.7426(3) -0.4200(2) 0.49072(19)
C4A C 0.5319(3) -0.3185(2) 0.4436(2)
C5A C 0.8038(3) -0.4042(2) 0.6380(2)
H13A H 0.8799 -0.3800 0.6450
H14A H 0.8193 -0.4891 0.6663
C6A C 0.5149(3) -0.4645(2) 0.61221(19)
H15A H 0.5663 -0.5434 0.6388
H16A H 0.4309 -0.4706 0.5997
C7A C 0.6786(3) -0.2811(2) 0.7338(2)
C8A C 0.5707(3) -0.4243(2) 0.74663(19)
H17A H 0.6059 -0.5065 0.7840
C9A C 0.4822(3) -0.3600(2) 0.8161(2)
H18A H 0.4588 -0.4142 0.8847
C10A C 0.3568(3) -0.3418(2) 0.7030(2)
C11A C 0.5389(3) -0.2182(2) 0.8703(2)
H19A H 0.6245 -0.2066 0.8758
H20A H 0.4948 -0.2625 0.9366
C12A C 0.2412(3) -0.2414(2) 0.8206(2)
H21A H 0.2314 -0.2840 0.8920
H22A H 0.1616 -0.2438 0.8001
C13A C 0.5014(3) -0.0059(2) 0.78018(19)
C14A C 0.3058(3) -0.0870(2) 0.8562(2)
H23A H 0.2704 -0.1199 0.9280
C15A C 0.2658(3) 0.0473(2) 0.81451(19)
H24A H 0.2226 0.0786 0.8678
C16A C 0.1582(3) -0.0301(2) 0.74686(19)
C17A C 0.4088(3) 0.2033(2) 0.7317(2)
H25A H 0.5037 0.2040 0.7279
H26A H 0.3527 0.2346 0.7821
C18A C 0.9160(3) -0.1807(2) 0.2846(2)
H27A H 0.9477 -0.2132 0.2324
H28A H 0.9960 -0.1687 0.2980
C19A C 0.8349(3) -0.4031(2) 0.3053(2)
H29A H 0.7762 -0.4518 0.3094
H30A H 0.8505 -0.3468 0.2387
H31A H 0.9210 -0.4509 0.3222
C20A C 0.8087(3) -0.5473(2) 0.5144(2)
H32A H 0.9066 -0.5544 0.4947
H33A H 0.7853 -0.5895 0.5848
H34A H 0.7763 -0.5791 0.4788
N1A N 0.8527(2) -0.26497(19) 0.37365(16)
N2A N 0.8027(2) -0.36661(18) 0.53403(16)
N3A N 0.6295(2) -0.27823(19) 0.36292(16)
N4A N 0.5943(2) -0.40240(19) 0.51847(16)
N5A N 0.6797(2) -0.35906(19) 0.69346(16)
N6A N 0.5687(2) -0.28517(19) 0.80829(17)
N7A N 0.4792(2) -0.41359(19) 0.68667(17)
N8A N 0.3626(2) -0.29947(18) 0.77106(16)
N9A N 0.4524(2) -0.10646(18) 0.83400(16)
N10A N 0.3936(2) 0.08403(19) 0.76198(16)
N11A N 0.2437(2) -0.12134(19) 0.79974(17)
N12A N 0.1719(2) 0.06971(18) 0.75120(16)
O7A O 0.92669(19) -0.22300(16) 0.48283(14)
O8A O 0.76309(19) -0.22032(16) 0.70757(14)
O8A_2 O -0.23691(19) -0.22032(16) 0.70757(14)
O9A O 0.62148(18) 0.00184(16) 0.75468(15)
O9A_2 O -0.37852(18) 0.00184(16) 0.75468(15)
O10A O 0.40900(19) -0.28955(17) 0.44744(15)
O11A O 0.2604(2) -0.32420(18) 0.66577(15)
O12A O 0.07926(18) -0.03586(16) 0.70265(14)
O12_2 O -0.07926(18) 0.03586(16) 0.29735(14)
O6 O 0.0615(3) 0.2442(2) -0.03469(19)
H11 H 0.0182 0.1811 -0.0241
H12 H 0.0074 0.3221 -0.0704
Cl1 Cl 0.0000 0.0000 0.0000
Cl2 Cl 0.30093(10) 0.72325(7) 0.20965(7)
Cl3 Cl 0.08051(10) 0.48580(7) 0.13129(7)
loop_
_geom_bond_atom_site_label_1
_geom_bond_atom_site_label_2
_geom_bond_site_symmetry_1
_geom_bond_site_symmetry_2
O1 H1 1_555 1_555
H2 O1 1_555 1_555
O2 H3 1_555 1_555
H4 O2 1_555 1_555
O3 H5 1_555 1_555
H6 O3 1_555 1_555
O4 H7 1_555 1_555
H8 O4 1_555 1_555
O5 H9 1_555 1_555
H10 O5 1_555 1_555
O6 H11 1_555 1_555
H12 O6 1_555 1_555
Ca1 O1 1_555 1_555
C1 N1 1_555 1_555
C2 C3 1_555 1_555
C3 C20 1_555 1_555
C4 N3 1_555 1_555
C5 H13 1_555 1_555
H14 C5 1_555 1_555
C6 H15 1_555 1_555
H16 C6 1_555 1_555
C7 N5 1_555 1_555
C8 H17 1_555 1_555
C9 C8 1_555 1_555
H18 C9 1_555 1_555
C10 N7 1_555 1_555
C11 H19 1_555 1_555
H20 C11 1_555 1_555
C12 H21 1_555 1_555
H22 C12 1_555 1_555
C13 N9 1_555 1_555
C14 H23 1_555 1_555
C15 C14 1_555 1_555
H24 C15 1_555 1_555
C16 N11 1_555 1_555
C17 H25 1_555 1_555
H26 C17 1_555 1_555
C18 H27 1_555 1_555
H28 C18 1_555 1_555
C19 C2 1_555 1_555
H29 C19 1_555 1_555
H30 C19 1_555 1_555
H31 C19 1_555 1_555
C20 H32 1_555 1_555
H33 C20 1_555 1_555
H34 C20 1_555 1_555
N1 C2 1_555 1_555
N2 C1 1_555 1_555
N3 C2 1_555 1_555
N4 C3 1_555 1_555
N5 C5 1_555 1_555
N6 C7 1_555 1_555
N7 C6 1_555 1_555
N8 C9 1_555 1_555
N9 C11 1_555 1_555
N10 C13 1_555 1_555
N11 C12 1_555 1_555
N12 C15 1_555 1_555
O7 C1 1_555 1_555
O8 Ca1 1_555 1_555
O9 Ca1 1_555 1_555
O10 C4 1_555 1_555
O11 C10 1_555 1_555
O12 C16 1_555 1_555
O1A H1A 1_555 1_555
H2A O1A 1_555 1_555
O2A H3A 1_555 1_555
H4A O2A 1_555 1_555
O3A H5A 1_555 1_555
H6A O3A 1_555 1_555
O4A H7A 1_555 1_555
H8A O4A 1_555 1_555
O5A H9A 1_555 1_555
H10A O5A 1_555 1_555
Ca1A O1A 1_555 1_555
Ca1_2 O12 1_555 1_555
Ca1A_2 O8A 1_555 1_555
C1A N1A 1_555 1_555
C2A C3A 1_555 1_555
C3A C20A 1_555 1_555
C4A N3A 1_555 1_555
C5A H13A 1_555 1_555
H14A C5A 1_555 1_555
C6A H15A 1_555 1_555
H16A C6A 1_555 1_555
C7A N5A 1_555 1_555
C8A H17A 1_555 1_555
C9A C8A 1_555 1_555
H18A C9A 1_555 1_555
C10A N7A 1_555 1_555
C11A H19A 1_555 1_555
H20A C11A 1_555 1_555
C12A H21A 1_555 1_555
H22A C12A 1_555 1_555
C13A N9A 1_555 1_555
C14A H23A 1_555 1_555
C15A C14A 1_555 1_555
H24A C15A 1_555 1_555
C16A N11A 1_555 1_555
C17A N3 1_555 1_555
H25A C17A 1_555 1_555
H26A C17A 1_555 1_555
C18A N12 1_555 1_555
H27A C18A 1_555 1_555
H28A C18A 1_555 1_555
C19A C2A 1_555 1_555
H29A C19A 1_555 1_555
H30A C19A 1_555 1_555
H31A C19A 1_555 1_555
C20A H32A 1_555 1_555
H33A C20A 1_555 1_555
H34A C20A 1_555 1_555
N1A C2A 1_555 1_555
N2A C1A 1_555 1_555
N3A C17 1_555 1_555
N4A C3A 1_555 1_555
N5A C5A 1_555 1_555
N6A C7A 1_555 1_555
N7A C6A 1_555 1_555
N8A C9A 1_555 1_555
N9A C11A 1_555 1_555
N10A C13A 1_555 1_555
N11A C12A 1_555 1_555
N12A C18 1_555 1_555
O7A C1A 1_555 1_555
O8A C7A 1_555 1_555
O8A_2 Ca1A 1_555 1_555
O9A Ca1A_2 1_555 1_555
O9A_2 Ca1A 1_555 1_555
O10A C4A 1_555 1_555
O11A C10A 1_555 1_555
O12A Ca1A 1_555 1_555
O12_2 Ca1 1_555 1_555
O2 Ca1 1_555 1_555
O3 Ca1 1_555 1_555
O4 Ca1 1_555 1_555
O5 Ca1 1_555 1_555
C3 N2 1_555 1_555
C4 N4 1_555 1_555
C5 N2 1_555 1_555
C6 N4 1_555 1_555
C7 O8 1_555 1_555
C8 N5 1_555 1_555
C8 N7 1_555 1_555
C9 N6 1_555 1_555
C10 N8 1_555 1_555
C11 N6 1_555 1_555
C12 N8 1_555 1_555
C13 O9 1_555 1_555
C14 N9 1_555 1_555
C14 N11 1_555 1_555
C15 N10 1_555 1_555
C16 N12 1_555 1_555
C17 N10 1_555 1_555
C18 N1 1_555 1_555
O2A Ca1A 1_555 1_555
O3A Ca1A 1_555 1_555
O4A Ca1A 1_555 1_555
O5A Ca1A 1_555 1_555
C2A N3A 1_555 1_555
C3A N2A 1_555 1_555
C4A N4A 1_555 1_555
C5A N2A 1_555 1_555
C6A N4A 1_555 1_555
C8A N5A 1_555 1_555
C8A N7A 1_555 1_555
C9A N6A 1_555 1_555
C10A N8A 1_555 1_555
C11A N6A 1_555 1_555
C12A N8A 1_555 1_555
C13A O9A 1_555 1_555
C14A N9A 1_555 1_555
C14A N11A 1_555 1_555
C15A N10A 1_555 1_555
C15A N12A 1_555 1_555
C16A N12A 1_555 1_555
C16A O12A 1_555 1_555
C17A N10A 1_555 1_555
C18A N1A 1_555 1_555

#END
