
#######################################################################
#
#                 Cambridge Crystallographic Data Centre
#                                CCDC 
#
#######################################################################
#
# If this CIF has been generated from an entry in the Cambridge 
# Structural Database, then it will include bibliographic, chemical, 
# crystal, experimental, refinement or atomic coordinate data resulting 
# from the CCDC's data processing and validation procedures.
#
#######################################################################

data_IBIFAC
_symmetry_cell_setting           orthorhombic
_symmetry_space_group_name_H-M   'F d d d'
_symmetry_Int_Tables_number      70
_space_group_name_Hall           '-F 2uv 2vw'
loop_
_symmetry_equiv_pos_site_id
_symmetry_equiv_pos_as_xyz
1 x,y,z
2 1/4-x,1/4-y,z
3 x,1/4-y,1/4-z
4 1/4-x,y,1/4-z
5 x,1/2+y,1/2+z
6 1/4-x,3/4-y,1/2+z
7 x,3/4-y,3/4-z
8 1/4-x,1/2+y,3/4-z
9 1/2+x,y,1/2+z
10 3/4-x,1/4-y,1/2+z
11 1/2+x,1/4-y,3/4-z
12 3/4-x,y,3/4-z
13 1/2+x,1/2+y,z
14 3/4-x,3/4-y,z
15 1/2+x,3/4-y,1/4-z
16 3/4-x,1/2+y,1/4-z
17 -x,-y,-z
18 3/4+x,3/4+y,-z
19 -x,3/4+y,3/4+z
20 3/4+x,-y,3/4+z
21 -x,1/2-y,1/2-z
22 3/4+x,1/4+y,1/2-z
23 -x,1/4+y,1/4+z
24 3/4+x,1/2-y,1/4+z
25 1/2-x,-y,1/2-z
26 1/4+x,3/4+y,1/2-z
27 1/2-x,3/4+y,1/4+z
28 1/4+x,-y,1/4+z
29 1/2-x,1/2-y,-z
30 1/4+x,1/4+y,-z
31 1/2-x,1/4+y,3/4+z
32 1/4+x,1/2-y,3/4+z
_cell_length_a                   22.947(5)
_cell_length_b                   31.395(6)
_cell_length_c                   32.718(7)
_cell_angle_alpha                90
_cell_angle_beta                 90
_cell_angle_gamma                90
_cell_volume                     23570.7
loop_
_atom_site_label
_atom_site_type_symbol
_atom_site_fract_x
_atom_site_fract_y
_atom_site_fract_z
Cl1 Cl 0.2874(2) 0.38539(14) 0.13018(14)
O1 O 0.56680(16) 0.07403(10) 0.12372(10)
O2 O 0.6250 0.1250 0.0532(2)
O3 O 0.4520(4) 0.1250 0.1250
Na1 Na 0.53704(13) 0.12501(8) 0.07969(10)
C1 C 0.45324(18) -0.00902(12) 0.12016(11)
C2 C 0.36186(18) -0.03151(13) 0.14251(11)
H1 H 0.3557 -0.0607 0.1531
C3 C 0.36265(16) -0.03144(13) 0.09529(11)
H2 H 0.3575 -0.0604 0.0839
C4 C 0.28423(17) 0.00976(13) 0.11904(11)
C5 C 0.44244(16) -0.01161(12) 0.04451(11)
H3 H 0.4327 -0.0381 0.0302
H4 H 0.4850 -0.0096 0.0458
C6 C 0.28936(17) -0.00361(15) 0.04408(11)
H5 H 0.2948 -0.0319 0.0319
H6 H 0.2473 0.0014 0.0463
C7 C 0.44915(15) 0.06233(11) 0.01996(10)
C8 C 0.36898(15) 0.02395(13) -0.00546(10)
C9 C 0.37244(16) 0.06839(13) -0.02765(10)
C10 C 0.28542(17) 0.06474(14) 0.01031(11)
C11 C 0.44801(18) 0.12929(12) -0.01840(12)
H7 H 0.4892 0.1291 -0.0104
H8 H 0.4465 0.1322 -0.0482
C12 C 0.2944(2) 0.12910(14) -0.03230(12)
H9 H 0.3052 0.1317 -0.0612
H10 H 0.2517 0.1284 -0.0308
C13 C 0.44856(17) 0.19161(12) 0.02693(11)
C14 C 0.37048(18) 0.18736(13) -0.01817(11)
H11 H 0.3765 0.1932 -0.0476
C15 C 0.36581(18) 0.22896(14) 0.00670(11)
H12 H 0.3641 0.2541 -0.0115
C16 C 0.2818(2) 0.18803(16) 0.01789(12)
C17 C 0.44009(19) -0.01455(13) 0.19479(12)
H13 H 0.4827 -0.0130 0.1941
H14 H 0.4295 -0.0412 0.2086
C18 C 0.2870(2) -0.00467(15) 0.19323(11)
H15 H 0.2453 0.0010 0.1904
H16 H 0.2913 -0.0331 0.2052
C19 C 0.36855(18) -0.01494(13) -0.03331(13)
H17 H 0.4053 -0.0167 -0.0479
H18 H 0.3369 -0.0124 -0.0528
H19 H 0.3632 -0.0404 -0.0170
C20 C 0.3811(2) 0.06645(16) -0.07384(12)
H20 H 0.4183 0.0532 -0.0799
H21 H 0.3805 0.0951 -0.0850
H22 H 0.3500 0.0499 -0.0860
N1 N 0.41869(14) -0.01614(10) 0.15333(9)
N2 N 0.41971(13) -0.01389(10) 0.08578(9)
N3 N 0.31366(14) -0.00471(12) 0.15250(9)
N4 N 0.31439(13) -0.00374(11) 0.08503(9)
N5 N 0.42027(13) 0.02419(10) 0.02093(8)
N6 N 0.42235(13) 0.08873(10) -0.00723(8)
N7 N 0.31378(13) 0.02762(11) 0.01708(9)
N8 N 0.31708(14) 0.08856(11) -0.01657(9)
N9 N 0.42037(14) 0.16616(10) -0.00032(9)
N10 N 0.41838(15) 0.02074(10) 0.21871(9)
N11 N 0.31500(15) 0.16661(12) -0.01076(10)
N12 N 0.31183(16) 0.02624(12) 0.22087(9)
O4 O 0.50503(12) -0.00017(9) 0.12060(8)
O5 O 0.49331(11) 0.07053(8) 0.03976(8)
O6 O 0.49500(12) 0.18322(8) 0.04436(8)
O7 O 0.23956(13) 0.03064(10) 0.11885(8)
O8 O 0.23774(13) 0.07473(12) 0.02411(9)
O9 O 0.23338(14) 0.17783(12) 0.02929(10)
O1B O 0.56680(16) 0.17597(10) 0.12628(10)
O2B O 0.6250 0.1250 0.1968(2)
Na1B Na 0.53704(13) 0.12499(8) 0.17031(10)
Na1A Na 0.71296(13) 0.12499(8) 0.07969(10)
C1B C 0.45324(18) 0.25902(12) 0.12984(11)
C2B C 0.36186(18) 0.28151(13) 0.10749(11)
H1B H 0.3557 0.3107 0.0969
C3B C 0.36265(16) 0.28144(13) 0.15471(11)
H2B H 0.3575 0.3104 0.1661
C4B C 0.28423(17) 0.24024(13) 0.13096(11)
C5B C 0.44244(16) 0.26161(12) 0.20549(11)
H3B H 0.4327 0.2881 0.2198
H4B H 0.4850 0.2596 0.2042
C6B C 0.28936(17) 0.25361(15) 0.20592(11)
H5B H 0.2948 0.2819 0.2181
H6B H 0.2473 0.2486 0.2037
C7B C 0.44915(15) 0.18767(11) 0.23004(10)
C8B C 0.36898(15) 0.22605(13) 0.25546(10)
C9B C 0.37244(16) 0.18161(13) 0.27765(10)
C10B C 0.28542(17) 0.18526(14) 0.23969(11)
C11B C 0.44801(18) 0.12071(12) 0.26840(12)
H7B H 0.4892 0.1209 0.2604
H8B H 0.4465 0.1178 0.2982
C12B C 0.2944(2) 0.12090(14) 0.28230(12)
H9B H 0.3052 0.1183 0.3112
H10B H 0.2517 0.1216 0.2808
C13B C 0.44856(17) 0.05839(12) 0.22307(11)
C14B C 0.37048(18) 0.06264(13) 0.26817(11)
H11B H 0.3765 0.0568 0.2976
C15B C 0.36581(18) 0.02104(14) 0.24330(11)
H12B H 0.3641 -0.0041 0.2615
C16B C 0.2818(2) 0.06197(16) 0.23211(12)
C17B C 0.44009(19) 0.26455(13) 0.05521(12)
H13B H 0.4827 0.2630 0.0559
H14B H 0.4295 0.2912 0.0414
C18B C 0.2870(2) 0.25467(15) 0.05677(11)
H15B H 0.2453 0.2490 0.0596
H16B H 0.2913 0.2831 0.0448
C19B C 0.36855(18) 0.26494(13) 0.28331(13)
H17B H 0.4053 0.2667 0.2979
H18B H 0.3369 0.2624 0.3028
H19B H 0.3632 0.2904 0.2670
C20B C 0.3811(2) 0.18355(16) 0.32384(12)
H20B H 0.4183 0.1968 0.3299
H21B H 0.3805 0.1549 0.3350
H22B H 0.3500 0.2001 0.3360
N1B N 0.41869(14) 0.26614(10) 0.09667(9)
N2B N 0.41971(13) 0.26389(10) 0.16422(9)
N3B N 0.31366(14) 0.25471(12) 0.09750(9)
N4B N 0.31439(13) 0.25374(11) 0.16497(9)
N5B N 0.42027(13) 0.22581(10) 0.22907(8)
N6B N 0.42235(13) 0.16127(10) 0.25723(8)
N7B N 0.31378(13) 0.22238(11) 0.23292(9)
N8B N 0.31708(14) 0.16144(11) 0.26657(9)
N9B N 0.42037(14) 0.08384(10) 0.25032(9)
N10B N 0.41838(15) 0.22926(10) 0.03129(9)
N11B N 0.31500(15) 0.08339(12) 0.26076(10)
N12B N 0.31183(16) 0.22376(12) 0.02913(9)
O4B O 0.50503(12) 0.25017(9) 0.12940(8)
O5B O 0.49331(11) 0.17947(8) 0.21024(8)
O6B O 0.49500(12) 0.06678(8) 0.20564(8)
O7B O 0.23956(13) 0.21936(10) 0.13115(8)
O8B O 0.23774(13) 0.17527(12) 0.22589(9)
O9B O 0.23338(14) 0.07217(12) 0.22071(10)
loop_
_geom_bond_atom_site_label_1
_geom_bond_atom_site_label_2
_geom_bond_site_symmetry_1
_geom_bond_site_symmetry_2
O1 Na1 1_555 1_555
O2 Na1 1_555 1_555
O3 Na1 1_555 1_555
Na1 O5 1_555 1_555
C1 N1 1_555 1_555
C2 H1 1_555 1_555
C3 C2 1_555 1_555
H2 C3 1_555 1_555
C4 N3 1_555 1_555
C5 H3 1_555 1_555
H4 C5 1_555 1_555
C6 H5 1_555 1_555
H6 C6 1_555 1_555
C7 N5 1_555 1_555
C8 C9 1_555 1_555
C9 C20 1_555 1_555
C10 N7 1_555 1_555
C11 H7 1_555 1_555
H8 C11 1_555 1_555
C12 H9 1_555 1_555
H10 C12 1_555 1_555
C13 N9 1_555 1_555
C14 H11 1_555 1_555
C15 C14 1_555 1_555
H12 C15 1_555 1_555
C16 N11 1_555 1_555
C17 H13 1_555 1_555
H14 C17 1_555 1_555
C18 H15 1_555 1_555
H16 C18 1_555 1_555
C19 C8 1_555 1_555
H17 C19 1_555 1_555
H18 C19 1_555 1_555
H19 C19 1_555 1_555
C20 H20 1_555 1_555
H21 C20 1_555 1_555
H22 C20 1_555 1_555
N1 C2 1_555 1_555
N2 C1 1_555 1_555
N3 C2 1_555 1_555
N4 C3 1_555 1_555
N5 C5 1_555 1_555
N6 C7 1_555 1_555
N7 C6 1_555 1_555
N8 C9 1_555 1_555
N9 C11 1_555 1_555
N10 C17 1_555 1_555
N11 C12 1_555 1_555
N12 C18 1_555 1_555
O4 C1 1_555 1_555
O5 C7 1_555 1_555
O6 Na1 1_555 1_555
O7 C4 1_555 1_555
O8 C10 1_555 1_555
O9 C16 1_555 1_555
O1B Na1 1_555 1_555
O2B Na1B 1_555 1_555
Na1B O1 1_555 1_555
Na1A O2 1_555 1_555
C1B N1B 1_555 1_555
C2B H1B 1_555 1_555
C3B C2B 1_555 1_555
H2B C3B 1_555 1_555
C4B N3B 1_555 1_555
C5B H3B 1_555 1_555
H4B C5B 1_555 1_555
C6B H5B 1_555 1_555
H6B C6B 1_555 1_555
C7B N5B 1_555 1_555
C8B C9B 1_555 1_555
C9B C20B 1_555 1_555
C10B N7B 1_555 1_555
C11B H7B 1_555 1_555
H8B C11B 1_555 1_555
C12B H9B 1_555 1_555
H10B C12B 1_555 1_555
C13B N10 1_555 1_555
C14B H11B 1_555 1_555
C15B N10 1_555 1_555
H12B C15B 1_555 1_555
C16B N12 1_555 1_555
C17B H13B 1_555 1_555
H14B C17B 1_555 1_555
C18B H15B 1_555 1_555
H16B C18B 1_555 1_555
C19B C8B 1_555 1_555
H17B C19B 1_555 1_555
H18B C19B 1_555 1_555
H19B C19B 1_555 1_555
C20B H20B 1_555 1_555
H21B C20B 1_555 1_555
H22B C20B 1_555 1_555
N1B C2B 1_555 1_555
N2B C1B 1_555 1_555
N3B C2B 1_555 1_555
N4B C3B 1_555 1_555
N5B C5B 1_555 1_555
N6B C7B 1_555 1_555
N7B C6B 1_555 1_555
N8B C9B 1_555 1_555
N9B C11B 1_555 1_555
N10B C13 1_555 1_555
N11B C12B 1_555 1_555
N12B C15 1_555 1_555
O4B C1B 1_555 1_555
O5B Na1B 1_555 1_555
O6B Na1B 1_555 1_555
O7B C4B 1_555 1_555
O8B C10B 1_555 1_555
O9B C16B 1_555 1_555
O3 Na1B 1_555 1_555
C3 N2 1_555 1_555
C4 N4 1_555 1_555
C5 N2 1_555 1_555
C6 N4 1_555 1_555
C8 N5 1_555 1_555
C8 N7 1_555 1_555
C9 N6 1_555 1_555
C10 N8 1_555 1_555
C11 N6 1_555 1_555
C12 N8 1_555 1_555
C13 O6 1_555 1_555
C14 N9 1_555 1_555
C14 N11 1_555 1_555
C15 N10B 1_555 1_555
C16 N12B 1_555 1_555
C17 N1 1_555 1_555
C18 N3 1_555 1_555
N12 C15B 1_555 1_555
O1B Na1B 1_555 1_555
C3B N2B 1_555 1_555
C4B N4B 1_555 1_555
C5B N2B 1_555 1_555
C6B N4B 1_555 1_555
C7B O5B 1_555 1_555
C8B N5B 1_555 1_555
C8B N7B 1_555 1_555
C9B N6B 1_555 1_555
C10B N8B 1_555 1_555
C11B N6B 1_555 1_555
C12B N8B 1_555 1_555
C13B N9B 1_555 1_555
C13B O6B 1_555 1_555
C14B C15B 1_555 1_555
C14B N9B 1_555 1_555
C14B N11B 1_555 1_555
C16B N11B 1_555 1_555
C17B N1B 1_555 1_555
C17B N10B 1_555 1_555
C18B N3B 1_555 1_555
C18B N12B 1_555 1_555

#END
