
#######################################################################
#
#                 Cambridge Crystallographic Data Centre
#                                CCDC 
#
#######################################################################
#
# If this CIF has been generated from an entry in the Cambridge 
# Structural Database, then it will include bibliographic, chemical, 
# crystal, experimental, refinement or atomic coordinate data resulting 
# from the CCDC's data processing and validation procedures.
#
#######################################################################

data_IBIFEG
_symmetry_cell_setting           orthorhombic
_symmetry_space_group_name_H-M   'F d d d'
_symmetry_Int_Tables_number      70
_space_group_name_Hall           '-F 2uv 2vw'
loop_
_symmetry_equiv_pos_site_id
_symmetry_equiv_pos_as_xyz
1 x,y,z
2 1/4-x,1/4-y,z
3 x,1/4-y,1/4-z
4 1/4-x,y,1/4-z
5 x,1/2+y,1/2+z
6 1/4-x,3/4-y,1/2+z
7 x,3/4-y,3/4-z
8 1/4-x,1/2+y,3/4-z
9 1/2+x,y,1/2+z
10 3/4-x,1/4-y,1/2+z
11 1/2+x,1/4-y,3/4-z
12 3/4-x,y,3/4-z
13 1/2+x,1/2+y,z
14 3/4-x,3/4-y,z
15 1/2+x,3/4-y,1/4-z
16 3/4-x,1/2+y,1/4-z
17 -x,-y,-z
18 3/4+x,3/4+y,-z
19 -x,3/4+y,3/4+z
20 3/4+x,-y,3/4+z
21 -x,1/2-y,1/2-z
22 3/4+x,1/4+y,1/2-z
23 -x,1/4+y,1/4+z
24 3/4+x,1/2-y,1/4+z
25 1/2-x,-y,1/2-z
26 1/4+x,3/4+y,1/2-z
27 1/2-x,3/4+y,1/4+z
28 1/4+x,-y,1/4+z
29 1/2-x,1/2-y,-z
30 1/4+x,1/4+y,-z
31 1/2-x,1/4+y,3/4+z
32 1/4+x,1/2-y,3/4+z
_cell_length_a                   23.0629(16)
_cell_length_b                   31.7424(16)
_cell_length_c                   32.528(3)
_cell_angle_alpha                90
_cell_angle_beta                 90
_cell_angle_gamma                90
_cell_volume                     23812.8
loop_
_atom_site_label
_atom_site_type_symbol
_atom_site_fract_x
_atom_site_fract_y
_atom_site_fract_z
Br1 Br 0.1250 0.6250 0.46130(5)
Br2 Br 0.1250 0.6250 0.29743(7)
O4 O -0.03480(18) 0.86702(14) 0.63047(12)
O1 O 0.31629(17) 0.92582(13) 0.37400(12)
O2 O 0.3750 0.8750 0.3060(4)
O3 O 0.2026(4) 0.8750 0.3750
Na1 Na 0.28753(15) 0.87567(9) 0.32973(13)
C1 C 0.1996(2) 0.81021(15) 0.27719(13)
C2 C 0.1177(2) 0.77314(17) 0.25526(14)
H1 H 0.1160 0.7485 0.2367
C3 C 0.1223(2) 0.81511(18) 0.23116(14)
H2 H 0.1287 0.8101 0.2015
C4 C 0.0350(2) 0.81394(17) 0.26644(14)
C5 C 0.1993(2) 0.87272(14) 0.23280(15)
H3 H 0.1990 0.8701 0.2028
H4 H 0.2399 0.8729 0.2417
C6 C 0.0482(3) 0.87338(17) 0.21726(17)
H5 H 0.0603 0.8713 0.1885
H6 H 0.0057 0.8740 0.2177
C7 C 0.19986(19) 0.93891(14) 0.27150(13)
C8 C 0.12431(18) 0.93236(16) 0.22293(14)
C9 C 0.11967(17) 0.97673(16) 0.24523(13)
C10 C 0.0367(2) 0.93532(17) 0.26049(14)
C11 C 0.19222(19) 1.01141(15) 0.29537(14)
H7 H 0.1820 1.0375 0.2809
H8 H 0.2346 1.0097 0.2964
C12 C 0.0405(2) 1.00263(18) 0.29532(13)
H9 H -0.0013 0.9973 0.2977
H10 H 0.0454 1.0308 0.2834
C13 C 0.2036(2) 1.00823(14) 0.37104(13)
C14 C 0.11331(18) 1.02997(15) 0.34682(13)
H11 H 0.1075 1.0587 0.3357
C15 C 0.1125(2) 1.02964(15) 0.39428(14)
H12 H 0.1061 1.0583 0.4055
C16 C 0.0354(2) 0.98815(17) 0.36994(13)
C17 C 0.1906(2) 0.73770(15) 0.30361(14)
H13 H 0.2331 0.7387 0.3042
H14 H 0.1793 0.7117 0.2894
C18 C 0.0386(2) 0.74816(18) 0.30557(14)
H15 H -0.0029 0.7540 0.3086
H16 H 0.0425 0.7201 0.2934
C19 C 0.1327(2) 0.9335(2) 0.17680(15)
H17 H 0.1696 0.9465 0.1705
H18 H 0.1016 0.9497 0.1643
H19 H 0.1320 0.9050 0.1660
C20 C 0.11882(19) 1.01451(18) 0.21675(16)
H20 H 0.0842 1.0136 0.1999
H21 H 0.1528 1.0139 0.1992
H22 H 0.1189 1.0402 0.2329
N1 N 0.16977(17) 0.77297(12) 0.28044(11)
N2 N 0.17160(17) 0.83614(13) 0.24994(11)
N3 N 0.06363(16) 0.77883(14) 0.27790(11)
N4 N 0.06734(18) 0.83581(15) 0.23863(12)
N5 N 0.17345(15) 0.91247(12) 0.24373(10)
N6 N 0.17085(15) 0.97633(12) 0.27204(10)
N7 N 0.06905(17) 0.91218(14) 0.23336(11)
N8 N 0.06485(16) 0.97231(13) 0.26788(11)
N9 N 0.17016(15) 1.01390(12) 0.33721(11)
N10 N 0.16950(16) 0.73586(12) 0.34550(11)
N11 N 0.06574(16) 1.00233(13) 0.33617(11)
N12 N 0.06511(16) 0.74814(13) 0.34559(11)
O6 O 0.24510(14) 0.81802(10) 0.29480(10)
O7 O 0.24318(13) 0.93083(10) 0.29120(10)
O8 O 0.25535(15) 0.99972(11) 0.37135(10)
O9 O -0.01438(16) 0.82357(14) 0.27754(13)
O10 O -0.01109(15) 0.92582(13) 0.27387(11)
O11 O -0.00766(15) 0.96706(13) 0.36972(9)
O1F O 0.31629(17) 0.82418(13) 0.37600(12)
O2F O 0.3750 0.8750 0.4440(4)
Na1F Na 0.28753(15) 0.87433(9) 0.42027(13)
Na1M Na 0.46247(15) 0.87433(9) 0.32973(13)
C1F C 0.1996(2) 0.93979(15) 0.47281(13)
C2F C 0.1177(2) 0.97686(17) 0.49474(14)
H1F H 0.1160 1.0015 0.5133
C3F C 0.1223(2) 0.93489(18) 0.51884(14)
H2F H 0.1287 0.9399 0.5485
C4F C 0.0350(2) 0.93606(17) 0.48356(14)
C5F C 0.1993(2) 0.87728(14) 0.51720(15)
H3F H 0.1990 0.8799 0.5472
H4F H 0.2399 0.8771 0.5083
C6F C 0.0482(3) 0.87662(17) 0.53274(17)
H5F H 0.0603 0.8787 0.5615
H6F H 0.0057 0.8760 0.5323
C7F C 0.19986(19) 0.81109(14) 0.47850(13)
C8F C 0.12431(18) 0.81764(16) 0.52707(14)
C9F C 0.11967(17) 0.77327(16) 0.50477(13)
C10F C 0.0367(2) 0.81468(17) 0.48951(14)
C11F C 0.19222(19) 0.73859(15) 0.45463(14)
H7F H 0.1820 0.7125 0.4691
H8F H 0.2346 0.7403 0.4536
C12F C 0.0405(2) 0.74737(18) 0.45468(13)
H9F H -0.0013 0.7527 0.4523
H10F H 0.0454 0.7192 0.4666
C13F C 0.2036(2) 0.74177(14) 0.37896(13)
C14F C 0.11331(18) 0.72003(15) 0.40318(13)
H11F H 0.1075 0.6913 0.4143
C15F C 0.1125(2) 0.72036(15) 0.35572(14)
H12F H 0.1061 0.6917 0.3445
C16F C 0.0354(2) 0.76185(17) 0.38006(13)
C17F C 0.1906(2) 1.01230(15) 0.44639(14)
H13F H 0.2331 1.0113 0.4458
H14F H 0.1793 1.0383 0.4606
C18F C 0.0386(2) 1.00184(18) 0.44443(14)
H15F H -0.0029 0.9960 0.4414
H16F H 0.0425 1.0299 0.4566
C19F C 0.1327(2) 0.8165(2) 0.57320(15)
H17F H 0.1696 0.8035 0.5795
H18F H 0.1016 0.8003 0.5857
H19F H 0.1320 0.8450 0.5840
C20F C 0.11882(19) 0.73549(18) 0.53325(16)
H20F H 0.0842 0.7364 0.5501
H21F H 0.1528 0.7361 0.5508
H22F H 0.1189 0.7098 0.5171
N1F N 0.16977(17) 0.97703(12) 0.46956(11)
N2F N 0.17160(17) 0.91386(13) 0.50006(11)
N3F N 0.06363(16) 0.97117(14) 0.47210(11)
N4F N 0.06734(18) 0.91419(15) 0.51137(12)
N5F N 0.17345(15) 0.83753(12) 0.50627(10)
N6F N 0.17085(15) 0.77367(12) 0.47796(10)
N7F N 0.06905(17) 0.83782(14) 0.51664(11)
N8F N 0.06485(16) 0.77769(13) 0.48212(11)
N9F N 0.17016(15) 0.73610(12) 0.41279(11)
N10F N 0.16950(16) 1.01414(12) 0.40450(11)
N11F N 0.06574(16) 0.74767(13) 0.41383(11)
N12F N 0.06511(16) 1.00186(13) 0.40441(11)
O6F O 0.24510(14) 0.93198(10) 0.45520(10)
O7F O 0.24318(13) 0.81917(10) 0.45880(10)
O8F O 0.25535(15) 0.75028(11) 0.37865(10)
O9F O -0.01438(16) 0.92643(14) 0.47246(13)
O10F O -0.01109(15) 0.82418(13) 0.47613(11)
O11F O -0.00766(15) 0.78294(13) 0.38028(9)
O5? O 0.1161(14) 0.6447(12) 0.2643(6)
Br3? Br 0.03269(10) 0.92610(7) 0.63199(6)
Br4? Br 0.06600(15) 0.92924(8) 0.62889(7)
loop_
_geom_bond_atom_site_label_1
_geom_bond_atom_site_label_2
_geom_bond_site_symmetry_1
_geom_bond_site_symmetry_2
O1 Na1 1_555 1_555
O2 Na1 1_555 1_555
O3 Na1 1_555 1_555
Na1 O6 1_555 1_555
C1 N1 1_555 1_555
C2 H1 1_555 1_555
C3 C2 1_555 1_555
H2 C3 1_555 1_555
C4 N3 1_555 1_555
C5 H3 1_555 1_555
H4 C5 1_555 1_555
C6 H5 1_555 1_555
H6 C6 1_555 1_555
C7 N5 1_555 1_555
C8 C9 1_555 1_555
C9 C20 1_555 1_555
C10 N7 1_555 1_555
C11 H7 1_555 1_555
H8 C11 1_555 1_555
C12 H9 1_555 1_555
H10 C12 1_555 1_555
C13 N9 1_555 1_555
C14 H11 1_555 1_555
C15 C14 1_555 1_555
H12 C15 1_555 1_555
C16 N11 1_555 1_555
C17 H13 1_555 1_555
H14 C17 1_555 1_555
C18 H15 1_555 1_555
H16 C18 1_555 1_555
C19 C8 1_555 1_555
H17 C19 1_555 1_555
H18 C19 1_555 1_555
H19 C19 1_555 1_555
C20 H20 1_555 1_555
H21 C20 1_555 1_555
H22 C20 1_555 1_555
N1 C2 1_555 1_555
N2 C1 1_555 1_555
N3 C2 1_555 1_555
N4 C3 1_555 1_555
N5 C5 1_555 1_555
N6 C7 1_555 1_555
N7 C6 1_555 1_555
N8 C9 1_555 1_555
N9 C11 1_555 1_555
N10 C17 1_555 1_555
N11 C12 1_555 1_555
N12 C18 1_555 1_555
O6 C1 1_555 1_555
O7 Na1 1_555 1_555
O8 C13 1_555 1_555
O9 C4 1_555 1_555
O10 C10 1_555 1_555
O11 C16 1_555 1_555
O1F Na1 1_555 1_555
O2F Na1F 1_555 1_555
Na1F O1 1_555 1_555
Na1M O2 1_555 1_555
C1F N1F 1_555 1_555
C2F H1F 1_555 1_555
C3F C2F 1_555 1_555
H2F C3F 1_555 1_555
C4F N3F 1_555 1_555
C5F H3F 1_555 1_555
H4F C5F 1_555 1_555
C6F H5F 1_555 1_555
H6F C6F 1_555 1_555
C7F N5F 1_555 1_555
C8F C9F 1_555 1_555
C9F C20F 1_555 1_555
C10F N7F 1_555 1_555
C11F H7F 1_555 1_555
H8F C11F 1_555 1_555
C12F H9F 1_555 1_555
H10F C12F 1_555 1_555
C13F N10 1_555 1_555
C14F H11F 1_555 1_555
C15F N10 1_555 1_555
H12F C15F 1_555 1_555
C16F N12 1_555 1_555
C17F H13F 1_555 1_555
H14F C17F 1_555 1_555
C18F H15F 1_555 1_555
H16F C18F 1_555 1_555
C19F C8F 1_555 1_555
H17F C19F 1_555 1_555
H18F C19F 1_555 1_555
H19F C19F 1_555 1_555
C20F H20F 1_555 1_555
H21F C20F 1_555 1_555
H22F C20F 1_555 1_555
N1F C2F 1_555 1_555
N2F C1F 1_555 1_555
N3F C2F 1_555 1_555
N4F C3F 1_555 1_555
N5F C5F 1_555 1_555
N6F C7F 1_555 1_555
N7F C6F 1_555 1_555
N8F C9F 1_555 1_555
N9F C11F 1_555 1_555
N10F C13 1_555 1_555
N11F C12F 1_555 1_555
N12F C15 1_555 1_555
O6F Na1F 1_555 1_555
O7F Na1F 1_555 1_555
O8F C13F 1_555 1_555
O9F C4F 1_555 1_555
O10F C10F 1_555 1_555
O11F C16F 1_555 1_555
O3 Na1F 1_555 1_555
Na1 Na1F 1_555 1_555
C3 N2 1_555 1_555
C4 N4 1_555 1_555
C5 N2 1_555 1_555
C6 N4 1_555 1_555
C7 O7 1_555 1_555
C8 N5 1_555 1_555
C8 N7 1_555 1_555
C9 N6 1_555 1_555
C10 N8 1_555 1_555
C11 N6 1_555 1_555
C12 N8 1_555 1_555
C14 N9 1_555 1_555
C14 N11 1_555 1_555
C15 N10F 1_555 1_555
C16 N12F 1_555 1_555
C17 N1 1_555 1_555
C18 N3 1_555 1_555
N12 C15F 1_555 1_555
O1F Na1F 1_555 1_555
C1F O6F 1_555 1_555
C3F N2F 1_555 1_555
C4F N4F 1_555 1_555
C5F N2F 1_555 1_555
C6F N4F 1_555 1_555
C7F O7F 1_555 1_555
C8F N5F 1_555 1_555
C8F N7F 1_555 1_555
C9F N6F 1_555 1_555
C10F N8F 1_555 1_555
C11F N6F 1_555 1_555
C12F N8F 1_555 1_555
C13F N9F 1_555 1_555
C14F C15F 1_555 1_555
C14F N9F 1_555 1_555
C14F N11F 1_555 1_555
C16F N11F 1_555 1_555
C17F N1F 1_555 1_555
C17F N10F 1_555 1_555
C18F N3F 1_555 1_555
C18F N12F 1_555 1_555

#END
