
#######################################################################
#
#                 Cambridge Crystallographic Data Centre
#                                CCDC 
#
#######################################################################
#
# If this CIF has been generated from an entry in the Cambridge 
# Structural Database, then it will include bibliographic, chemical, 
# crystal, experimental, refinement or atomic coordinate data resulting 
# from the CCDC's data processing and validation procedures.
#
#######################################################################

data_IBIGOR
_symmetry_cell_setting           monoclinic
_symmetry_space_group_name_H-M   'C 2/c'
_symmetry_Int_Tables_number      15
_space_group_name_Hall           '-C 2yn'
loop_
_symmetry_equiv_pos_site_id
_symmetry_equiv_pos_as_xyz
1 x,y,z
2 -x,y,1/2-z
3 1/2+x,1/2+y,z
4 1/2-x,1/2+y,1/2-z
5 -x,-y,-z
6 x,-y,1/2+z
7 1/2-x,1/2-y,-z
8 1/2+x,1/2-y,1/2+z
_cell_length_a                   39.53(4)
_cell_length_b                   17.169(16)
_cell_length_c                   35.34(2)
_cell_angle_alpha                90
_cell_angle_beta                 108.405(16)
_cell_angle_gamma                90
_cell_volume                     22758.1
loop_
_atom_site_label
_atom_site_type_symbol
_atom_site_fract_x
_atom_site_fract_y
_atom_site_fract_z
In1 In 0.58421(3) 0.09091(6) 0.08482(3)
In2 In 0.64730(3) 0.26677(6) 0.12122(3)
In3 In 0.64419(3) 0.07965(6) 0.19247(3)
In4 In 0.56163(3) 0.23792(6) 0.15756(3)
In5 In 0.71608(3) 0.43048(6) 0.16617(3)
In6 In 0.71170(3) 0.26242(6) 0.23697(3)
In7 In 0.63052(3) 0.41905(6) 0.20291(3)
In8 In 0.70576(3) 0.08545(6) 0.30359(3)
In9 In 0.62513(3) 0.23051(6) 0.27292(3)
In10 In 0.54606(3) 0.38245(6) 0.23425(3)
S1 S 0.55350(14) 0.0198(3) 0.02254(16)
S2 S 0.62027(11) 0.1860(2) 0.06357(12)
S3 S 0.61845(12) -0.0004(2) 0.13455(14)
S4 S 0.53485(10) 0.1509(2) 0.10282(13)
S5 S 0.68546(10) 0.3607(2) 0.10451(12)
S6 S 0.68318(10) 0.1804(2) 0.17668(12)
S7 S 0.60074(10) 0.3383(2) 0.14155(12)
S8 S 0.68154(13) 0.0011(2) 0.24553(13)
S9 S 0.59677(10) 0.1502(2) 0.21268(13)
S10 S 0.51538(10) 0.3068(2) 0.17443(13)
S11 S 0.75254(10) 0.3491(2) 0.22023(14)
S12 S 0.67234(10) 0.5080(2) 0.18832(12)
S13 S 0.74626(11) 0.1823(3) 0.29132(14)
S14 S 0.66519(10) 0.3313(2) 0.25855(12)
S15 S 0.58516(10) 0.4859(2) 0.22201(13)
S16 S 0.75507(11) 0.5115(2) 0.14060(12)
S17 S 0.65741(11) 0.1427(2) 0.32563(13)
S18 S 0.57870(11) 0.2984(2) 0.29104(13)
S19 S 0.5000 0.4579(3) 0.2500
In1C In 0.91579(3) -0.40909(6) 0.41518(3)
In1C_2 In 0.91579(3) 0.59091(6) 0.41518(3)
In1A In 0.41579(3) 0.09091(6) 0.41518(3)
In2C In 0.85270(3) -0.23323(6) 0.37878(3)
In3C In 0.85581(3) 0.57965(6) 0.30753(3)
In3C_2 In 0.85581(3) -0.42035(6) 0.30753(3)
In4A In 0.43837(3) 0.23792(6) 0.34244(3)
In4C In 0.93837(3) -0.26208(6) 0.34244(3)
In4C_2 In 0.93837(3) 0.73792(6) 0.34244(3)
In5C In 0.78392(3) -0.06952(6) 0.33383(3)
In6C In 0.78830(3) -0.23758(6) 0.26303(3)
In6C_2 In 0.78830(3) 0.76242(6) 0.26303(3)
In7C In 0.86948(3) -0.08095(6) 0.29709(3)
In7A In 0.36948(3) 0.41905(6) 0.29709(3)
In8C In 0.79424(3) 0.58545(6) 0.19641(3)
In9C In 0.87487(3) 0.73051(6) 0.22708(3)
In9A In 0.37487(3) 0.23051(6) 0.22708(3)
In9C_2 In 0.87487(3) -0.26949(6) 0.22708(3)
In10A In 0.45394(3) 0.38245(6) 0.26575(3)
S1C S 0.94650(14) -0.4802(3) 0.47746(16)
S2C S 0.87973(11) -0.3140(2) 0.43643(12)
S3C S 0.88155(12) 0.4996(2) 0.36545(14)
S3C_2 S 0.88155(12) -0.5004(2) 0.36545(14)
S4A S 0.46515(10) 0.1509(2) 0.39718(13)
S4C S 0.96515(10) -0.3491(2) 0.39718(13)
S5C S 0.81454(10) -0.1393(2) 0.39549(12)
S6C S 0.81682(10) -0.3196(2) 0.32332(12)
S6C_2 S 0.81682(10) 0.6804(2) 0.32332(12)
S7C S 0.89926(10) -0.1617(2) 0.35845(12)
S7A S 0.39926(10) 0.3383(2) 0.35845(12)
S8C S 0.81846(13) 0.5011(2) 0.25447(13)
S9C S 0.90323(10) 0.6502(2) 0.28732(13)
S9A S 0.40323(10) 0.1502(2) 0.28732(13)
S10A S 0.48462(10) 0.3068(2) 0.32557(13)
S11C S 0.74746(10) -0.1509(2) 0.27977(14)
S12C S 0.82766(10) 0.0080(2) 0.31168(12)
S13C S 0.75374(11) 0.6823(3) 0.20868(14)
S13C_2 S 0.75374(11) -0.3177(3) 0.20868(14)
S14C S 0.83481(10) -0.1687(2) 0.24145(12)
S14C_2 S 0.83481(10) 0.8313(2) 0.24145(12)
S15A S 0.41484(10) 0.4859(2) 0.27799(13)
S15C S 0.91484(10) -0.0141(2) 0.27799(13)
S16C S 0.74493(11) 0.0115(2) 0.35940(12)
S17C S 0.84259(11) 0.6427(2) 0.17437(13)
S18A S 0.42130(11) 0.2984(2) 0.20896(13)
S18C S 0.92130(11) 0.7984(2) 0.20896(13)
Ni1 Ni 0.70121(5) 0.50170(12) 0.45305(6)
N1 N 0.7350(3) 0.5711(7) 0.4330(4)
N2 N 0.6950(3) 0.6084(7) 0.4783(4)
N3 N 0.6576(3) 0.5198(7) 0.4018(4)
N4 N 0.6618(3) 0.4440(7) 0.4690(4)
N5 N 0.7134(3) 0.4022(7) 0.4251(4)
N6 N 0.7427(3) 0.4552(7) 0.5001(4)
C1 C 0.7574(4) 0.5526(11) 0.4142(5)
H1 H 0.7630 0.4997 0.4125
C2 C 0.7734(5) 0.6071(11) 0.3966(6)
H2 H 0.7888 0.5902 0.3827
C3 C 0.7672(5) 0.6855(10) 0.3989(5)
H3 H 0.7775 0.7227 0.3863
C4 C 0.7446(4) 0.7073(10) 0.4211(5)
C5 C 0.7303(4) 0.6486(10) 0.4381(5)
C6 C 0.6757(5) 0.6264(10) 0.5018(5)
H4 H 0.6667 0.5860 0.5139
C7 C 0.6682(5) 0.7029(11) 0.5091(5)
H5 H 0.6539 0.7131 0.5254
C8 C 0.6810(4) 0.7625(11) 0.4932(5)
H6 H 0.6761 0.8142 0.4985
C9 C 0.7017(5) 0.7468(10) 0.4691(5)
C10 C 0.7073(4) 0.6679(9) 0.4624(5)
C11 C 0.7373(5) 0.7884(10) 0.4270(5)
H7 H 0.7469 0.8279 0.4151
C12 C 0.7166(5) 0.8069(10) 0.4497(5)
H8 H 0.7118 0.8596 0.4531
C13 C 0.6563(5) 0.5589(11) 0.3688(6)
H9 H 0.6752 0.5924 0.3693
C14 C 0.6280(5) 0.5521(10) 0.3335(6)
H10 H 0.6286 0.5792 0.3106
C15 C 0.5996(4) 0.5065(9) 0.3322(5)
H11 H 0.5804 0.5029 0.3085
C16 C 0.5985(4) 0.4642(10) 0.3662(5)
C17 C 0.6298(4) 0.4739(9) 0.4001(5)
C18 C 0.6628(4) 0.4084(9) 0.5040(5)
H12 H 0.6829 0.4168 0.5264
C19 C 0.6365(5) 0.3615(9) 0.5086(5)
H13 H 0.6390 0.3376 0.5332
C20 C 0.6056(5) 0.3495(9) 0.4756(6)
H14 H 0.5873 0.3166 0.4779
C21 C 0.6024(5) 0.3876(10) 0.4390(5)
C22 C 0.6312(4) 0.4344(8) 0.4372(5)
C23 C 0.5707(4) 0.4156(10) 0.3692(5)
H15 H 0.5504 0.4092 0.3468
C24 C 0.5724(4) 0.3784(10) 0.4030(6)
H16 H 0.5536 0.3453 0.4034
C25 C 0.7011(4) 0.3761(10) 0.3879(5)
H17 H 0.6818 0.4036 0.3705
C26 C 0.7134(5) 0.3131(11) 0.3720(5)
H18 H 0.7034 0.2991 0.3451
C27 C 0.7404(5) 0.2728(10) 0.3966(6)
H19 H 0.7493 0.2289 0.3870
C28 C 0.7556(4) 0.2953(9) 0.4369(6)
C29 C 0.7417(4) 0.3620(9) 0.4506(5)
C30 C 0.7565(4) 0.4832(10) 0.5367(5)
H20 H 0.7459 0.5271 0.5442
C31 C 0.7866(5) 0.4493(12) 0.5649(5)
H21 H 0.7960 0.4700 0.5908
C32 C 0.8015(4) 0.3866(12) 0.5538(5)
H22 H 0.8221 0.3647 0.5719
C33 C 0.7872(4) 0.3531(10) 0.5164(5)
C34 C 0.7569(4) 0.3900(9) 0.4899(5)
C35 C 0.7873(5) 0.2573(11) 0.4666(6)
H23 H 0.7974 0.2134 0.4585
C36 C 0.8017(5) 0.2831(10) 0.5038(6)
H24 H 0.8209 0.2564 0.5217
Ni2 Ni 0.56294(5) 0.71023(12) 0.09205(7)
N7 N 0.5961(4) 0.7816(8) 0.0710(4)
N8 N 0.6058(4) 0.7195(8) 0.1431(4)
N9 N 0.5365(4) 0.8029(7) 0.1085(4)
N10 N 0.5312(3) 0.6486(7) 0.1211(4)
N11 N 0.5237(3) 0.6998(7) 0.0362(4)
N12 N 0.5790(3) 0.6086(7) 0.0711(4)
C37 C 0.5914(5) 0.8116(9) 0.0360(5)
H25 H 0.5696 0.8032 0.0158
C38 C 0.6172(5) 0.8552(11) 0.0274(6)
H26 H 0.6136 0.8726 0.0012
C39 C 0.6489(5) 0.8741(10) 0.0572(6)
H27 H 0.6659 0.9060 0.0514
C40 C 0.6551(4) 0.8456(10) 0.0956(6)
C41 C 0.6272(4) 0.7977(9) 0.1009(6)
C42 C 0.6104(5) 0.6881(11) 0.1789(6)
H28 H 0.5930 0.6533 0.1816
C43 C 0.6399(5) 0.7036(11) 0.2132(6)
H29 H 0.6420 0.6793 0.2377
C44 C 0.6652(5) 0.7551(11) 0.2097(6)
H30 H 0.6842 0.7701 0.2322
C45 C 0.6624(4) 0.7842(10) 0.1725(6)
C46 C 0.6322(4) 0.7664(10) 0.1393(5)
C47 C 0.6847(5) 0.8615(11) 0.1282(7)
H31 H 0.7029 0.8929 0.1244
C48 C 0.6887(5) 0.8342(11) 0.1651(7)
H32 H 0.7090 0.8480 0.1863
C49 C 0.5388(6) 0.8771(11) 0.1025(8)
H33 H 0.5554 0.8946 0.0904
C50 C 0.5174(6) 0.9319(15) 0.1137(7)
H34 H 0.5209 0.9854 0.1106
C51 C 0.4922(7) 0.9087(13) 0.1286(9)
H35 H 0.4774 0.9458 0.1350
C52 C 0.4875(4) 0.8316(10) 0.1347(6)
C53 C 0.5101(5) 0.7795(10) 0.1241(6)
C54 C 0.5299(4) 0.5724(10) 0.1268(5)
H36 H 0.5451 0.5388 0.1187
C55 C 0.5065(5) 0.5426(11) 0.1446(5)
H37 H 0.5073 0.4892 0.1506
C56 C 0.4825(6) 0.5885(11) 0.1535(6)
H38 H 0.4654 0.5670 0.1640
C57 C 0.4832(5) 0.6685(10) 0.1470(5)
C58 C 0.5084(4) 0.6968(9) 0.1302(5)
C59 C 0.4620(5) 0.8010(11) 0.1514(6)
H39 H 0.4469 0.8356 0.1590
C60 C 0.4587(5) 0.7259(12) 0.1565(5)
H40 H 0.4406 0.7080 0.1663
C61 C 0.4959(4) 0.7470(11) 0.0195(6)
H41 H 0.4924 0.7917 0.0333
C62 C 0.4721(5) 0.7298(12) -0.0183(6)
H42 H 0.4527 0.7632 -0.0295
C63 C 0.4762(5) 0.6691(12) -0.0382(6)
H43 H 0.4596 0.6588 -0.0633
C64 C 0.5047(5) 0.6192(10) -0.0227(6)
C65 C 0.5283(4) 0.6365(10) 0.0148(5)
C66 C 0.6070(4) 0.5642(10) 0.0886(6)
H44 H 0.6229 0.5802 0.1133
C67 C 0.6141(5) 0.4923(10) 0.0715(7)
H45 H 0.6330 0.4595 0.0853
C68 C 0.5920(6) 0.4740(11) 0.0338(7)
H46 H 0.5970 0.4298 0.0208
C69 C 0.5624(5) 0.5200(10) 0.0147(6)
C70 C 0.5581(4) 0.5878(9) 0.0345(5)
C71 C 0.5109(6) 0.5538(14) -0.0425(6)
H47 H 0.4960 0.5428 -0.0684
C72 C 0.5376(6) 0.5071(12) -0.0252(7)
H48 H 0.5408 0.4628 -0.0393
N13 N 1.3500(5) -0.2504(9) 0.1430(5)
N14 N 1.3829(4) -0.3045(10) 0.0921(5)
C73 C 1.3343(6) -0.2243(15) 0.1679(7)
H49 H 1.3249 -0.2613 0.1814
C74 C 1.3303(7) -0.1452(16) 0.1763(8)
H50 H 1.3185 -0.1296 0.1943
C75 C 1.3446(7) -0.0923(14) 0.1567(9)
H51 H 1.3437 -0.0389 0.1620
C76 C 1.3605(5) -0.1173(13) 0.1289(7)
C77 C 1.3633(6) -0.1967(13) 0.1229(7)
C78 C 1.4012(5) -0.3323(16) 0.0666(7)
H52 H 1.4036 -0.3863 0.0637
C79 C 1.4159(6) -0.281(2) 0.0454(8)
H53 H 1.4291 -0.3015 0.0298
C80 C 1.4119(6) -0.199(2) 0.0463(7)
H54 H 1.4202 -0.1649 0.0304
C81 C 1.3941(5) -0.1732(14) 0.0735(7)
C82 C 1.3804(5) -0.2255(14) 0.0955(6)
C83 C 1.3748(6) -0.0647(13) 0.1079(8)
H55 H 1.3729 -0.0110 0.1120
C84 C 1.3915(6) -0.0890(14) 0.0816(8)
H56 H 1.4014 -0.0522 0.0684
O1 O 0.3696(4) 0.2519(10) 0.1136(5)
O2 O 0.1918(3) 0.1398(8) 0.1056(4)
N15? N 0.0324(8) 0.1650(16) 0.2478(7)
N16? N -0.0500(9) 0.458(2) 0.2592(11)
C85? C 0.7541(7) -0.0177(13) 0.2003(7)
C86? C 0.7663(4) 0.0453(9) 0.2292(4)
C87? C 0.7822(6) 0.1101(12) 0.2139(7)
C88? C 0.6654(16) 0.949(4) 0.5239(19)
C89? C 0.5436(5) 0.7829(19) -0.0524(7)
C90? C 0.5456(12) 0.881(3) -0.0498(14)
C91? C 0.0000 0.2050(19) 0.2500
C92? C 0.0000 0.2875(18) 0.2500
C93? C -0.0645(17) 0.302(4) 0.2557(19)
C94? C 0.5906(9) 0.8629(19) -0.0867(11)
C95? C -0.0887(18) 0.421(4) 0.279(2)
C96? C -0.0693(18) 0.507(4) 0.215(2)
C97? C -0.0331(10) 0.3223(19) 0.2533(8)
C98? C 0.0610(7) 0.212(3) 0.2471(8)
C99? C 0.5235(6) 0.1843(13) 0.2939(7)
C100? C 0.4782(11) 0.101(2) 0.1516(12)
loop_
_geom_bond_atom_site_label_1
_geom_bond_atom_site_label_2
_geom_bond_site_symmetry_1
_geom_bond_site_symmetry_2
In1 S1 1_555 1_555
In2 S2 1_555 1_555
In3 S3 1_555 1_555
In4 S4 1_555 1_555
In5 S5 1_555 1_555
In6 S6 1_555 1_555
In7 S7 1_555 1_555
In8 S8 1_555 1_555
In9 S9 1_555 1_555
In10 S10 1_555 1_555
S2 In1 1_555 1_555
S3 In1 1_555 1_555
S4 In1 1_555 1_555
S5 In2 1_555 1_555
S6 In2 1_555 1_555
S7 In2 1_555 1_555
S8 In3 1_555 1_555
S9 In3 1_555 1_555
S10 In4 1_555 1_555
S11 In5 1_555 1_555
S12 In5 1_555 1_555
S13 In6 1_555 1_555
S14 In6 1_555 1_555
S15 In7 1_555 1_555
S16 In5 1_555 1_555
S17 In8 1_555 1_555
S18 In9 1_555 1_555
S19 In10 1_555 1_555
Ni1 N1 1_555 1_555
N1 C1 1_555 1_555
N2 Ni1 1_555 1_555
N3 Ni1 1_555 1_555
N4 Ni1 1_555 1_555
N5 Ni1 1_555 1_555
N6 Ni1 1_555 1_555
C1 H1 1_555 1_555
C2 C1 1_555 1_555
H2 C2 1_555 1_555
C3 C2 1_555 1_555
H3 C3 1_555 1_555
C4 C3 1_555 1_555
C5 N1 1_555 1_555
C6 N2 1_555 1_555
H4 C6 1_555 1_555
C7 C6 1_555 1_555
H5 C7 1_555 1_555
C8 C7 1_555 1_555
H6 C8 1_555 1_555
C9 C8 1_555 1_555
C10 N2 1_555 1_555
C11 C4 1_555 1_555
H7 C11 1_555 1_555
C12 C9 1_555 1_555
H8 C12 1_555 1_555
C13 N3 1_555 1_555
H9 C13 1_555 1_555
C14 C13 1_555 1_555
H10 C14 1_555 1_555
C15 C14 1_555 1_555
H11 C15 1_555 1_555
C16 C15 1_555 1_555
C17 N3 1_555 1_555
C18 N4 1_555 1_555
H12 C18 1_555 1_555
C19 C18 1_555 1_555
H13 C19 1_555 1_555
C20 C19 1_555 1_555
H14 C20 1_555 1_555
C21 C20 1_555 1_555
C22 N4 1_555 1_555
C23 C16 1_555 1_555
H15 C23 1_555 1_555
C24 C21 1_555 1_555
H16 C24 1_555 1_555
C25 N5 1_555 1_555
H17 C25 1_555 1_555
C26 C25 1_555 1_555
H18 C26 1_555 1_555
C27 C26 1_555 1_555
H19 C27 1_555 1_555
C28 C27 1_555 1_555
C29 N5 1_555 1_555
C30 N6 1_555 1_555
H20 C30 1_555 1_555
C31 C30 1_555 1_555
H21 C31 1_555 1_555
C32 C31 1_555 1_555
H22 C32 1_555 1_555
C33 C32 1_555 1_555
C34 N6 1_555 1_555
C35 C28 1_555 1_555
H23 C35 1_555 1_555
C36 C33 1_555 1_555
H24 C36 1_555 1_555
Ni2 N7 1_555 1_555
N7 C37 1_555 1_555
N8 Ni2 1_555 1_555
N9 Ni2 1_555 1_555
N10 Ni2 1_555 1_555
N11 Ni2 1_555 1_555
N12 Ni2 1_555 1_555
C37 H25 1_555 1_555
C38 C37 1_555 1_555
H26 C38 1_555 1_555
C39 C38 1_555 1_555
H27 C39 1_555 1_555
C40 C39 1_555 1_555
C41 N7 1_555 1_555
C42 N8 1_555 1_555
H28 C42 1_555 1_555
C43 C42 1_555 1_555
H29 C43 1_555 1_555
C44 C43 1_555 1_555
H30 C44 1_555 1_555
C45 C44 1_555 1_555
C46 N8 1_555 1_555
C47 C40 1_555 1_555
H31 C47 1_555 1_555
C48 C45 1_555 1_555
H32 C48 1_555 1_555
C49 N9 1_555 1_555
H33 C49 1_555 1_555
C50 C49 1_555 1_555
H34 C50 1_555 1_555
C51 C50 1_555 1_555
H35 C51 1_555 1_555
C52 C51 1_555 1_555
C53 N9 1_555 1_555
C54 N10 1_555 1_555
H36 C54 1_555 1_555
C55 C54 1_555 1_555
H37 C55 1_555 1_555
C56 C55 1_555 1_555
H38 C56 1_555 1_555
C57 C56 1_555 1_555
C58 N10 1_555 1_555
C59 C52 1_555 1_555
H39 C59 1_555 1_555
C60 C57 1_555 1_555
H40 C60 1_555 1_555
C61 N11 1_555 1_555
H41 C61 1_555 1_555
C62 C61 1_555 1_555
H42 C62 1_555 1_555
C63 C62 1_555 1_555
H43 C63 1_555 1_555
C64 C63 1_555 1_555
C65 N11 1_555 1_555
C66 N12 1_555 1_555
H44 C66 1_555 1_555
C67 C66 1_555 1_555
H45 C67 1_555 1_555
C68 C67 1_555 1_555
H46 C68 1_555 1_555
C69 C68 1_555 1_555
C70 N12 1_555 1_555
C71 C64 1_555 1_555
H47 C71 1_555 1_555
C72 C69 1_555 1_555
H48 C72 1_555 1_555
N13 C73 1_555 1_555
N14 C78 1_555 1_555
C73 H49 1_555 1_555
C74 C73 1_555 1_555
H50 C74 1_555 1_555
C75 C74 1_555 1_555
H51 C75 1_555 1_555
C76 C75 1_555 1_555
C77 N13 1_555 1_555
C78 H52 1_555 1_555
C79 C78 1_555 1_555
H53 C79 1_555 1_555
C80 C79 1_555 1_555
H54 C80 1_555 1_555
C81 C80 1_555 1_555
C82 N14 1_555 1_555
C83 C76 1_555 1_555
H55 C83 1_555 1_555
C84 C81 1_555 1_555
H56 C84 1_555 1_555
In1C S1C 1_555 1_555
In1C_2 S3C 1_555 1_555
In1A S4A 1_555 1_555
In2C S2C 1_555 1_555
In3C S3C 1_555 1_555
In3C_2 S3C_2 1_555 1_555
In4A S4A 1_555 1_555
In4C S4C 1_555 1_555
In4C_2 S9C 1_555 1_555
In5C S5C 1_555 1_555
In6C S6C 1_555 1_555
In6C_2 S6C_2 1_555 1_555
In7C S7C 1_555 1_555
In7A S7A 1_555 1_555
In8C S16 1_555 1_555
In9C S9C 1_555 1_555
In9A S9A 1_555 1_555
In9C_2 S14C 1_555 1_555
In10A S19 1_555 1_555
S2C In1C 1_555 1_555
S3C_2 In1C 1_555 1_555
S4C In1C 1_555 1_555
S5C In2C 1_555 1_555
S6C In2C 1_555 1_555
S6C_2 In3C 1_555 1_555
S7C In2C 1_555 1_555
S7A In4A 1_555 1_555
S8C In3C 1_555 1_555
S9C In3C 1_555 1_555
S9A In4A 1_555 1_555
S10A In4A 1_555 1_555
S11C In5C 1_555 1_555
S12C In5C 1_555 1_555
S13C In6C_2 1_555 1_555
S13C_2 In6C 1_555 1_555
S14C In6C 1_555 1_555
S14C_2 In6C_2 1_555 1_555
S15A In7A 1_555 1_555
S15C In7C 1_555 1_555
S16C In8 1_555 1_555
S17C In8C 1_555 1_555
S18A In9A 1_555 1_555
S18C In9C 1_555 1_555
In3 S6 1_555 1_555
In4 S7 1_555 1_555
In4 S9 1_555 1_555
In6 S11 1_555 1_555
In7 S12 1_555 1_555
In7 S14 1_555 1_555
In8 S13 1_555 1_555
In9 S14 1_555 1_555
In9 S17 1_555 1_555
In10 S15 1_555 1_555
In10 S18 1_555 1_555
C4 C5 1_555 1_555
C5 C10 1_555 1_555
C9 C10 1_555 1_555
C11 C12 1_555 1_555
C16 C17 1_555 1_555
C17 C22 1_555 1_555
C21 C22 1_555 1_555
C23 C24 1_555 1_555
C28 C29 1_555 1_555
C29 C34 1_555 1_555
C33 C34 1_555 1_555
C35 C36 1_555 1_555
C40 C41 1_555 1_555
C41 C46 1_555 1_555
C45 C46 1_555 1_555
C47 C48 1_555 1_555
C52 C53 1_555 1_555
C53 C58 1_555 1_555
C57 C58 1_555 1_555
C59 C60 1_555 1_555
C64 C65 1_555 1_555
C65 C70 1_555 1_555
C69 C70 1_555 1_555
C71 C72 1_555 1_555
C76 C77 1_555 1_555
C77 C82 1_555 1_555
C81 C82 1_555 1_555
C83 C84 1_555 1_555
In3C_2 S6C 1_555 1_555
In4C S7C 1_555 1_555
In5C S16C 1_555 1_555
In6C S11C 1_555 1_555
In7C S12C 1_555 1_555
In7C S14C 1_555 1_555
In8C S8C 1_555 1_555
In8C S13C 1_555 1_555
In9C S14C_2 1_555 1_555
In9C S17C 1_555 1_555
In10A S10A 1_555 1_555
In10A S15A 1_555 1_555
In10A S18A 1_555 1_555

#END
