
#######################################################################
#
#                 Cambridge Crystallographic Data Centre
#                                CCDC 
#
#######################################################################
#
# If this CIF has been generated from an entry in the Cambridge 
# Structural Database, then it will include bibliographic, chemical, 
# crystal, experimental, refinement or atomic coordinate data resulting 
# from the CCDC's data processing and validation procedures.
#
#######################################################################

data_IBIGOP
_symmetry_cell_setting           monoclinic
_symmetry_space_group_name_H-M   'P 21/c'
_symmetry_Int_Tables_number      14
_space_group_name_Hall           '-P 2ybc'
loop_
_symmetry_equiv_pos_site_id
_symmetry_equiv_pos_as_xyz
1 x,y,z
2 -x,1/2+y,1/2-z
3 -x,-y,-z
4 x,1/2-y,1/2+z
_cell_length_a                   7.089(2)
_cell_length_b                   19.090(4)
_cell_length_c                   9.682(4)
_cell_angle_alpha                90
_cell_angle_beta                 104.61(2)
_cell_angle_gamma                90
_cell_volume                     1267.89
loop_
_atom_site_label
_atom_site_type_symbol
_atom_site_fract_x
_atom_site_fract_y
_atom_site_fract_z
Mn1 Mn 0.21004(4) 0.014785(17) 0.13519(3)
N1 N -0.0864(3) 0.05865(10) 0.04202(19)
N2 N -0.1495(3) 0.11345(10) 0.0697(2)
N3 N -0.2074(5) 0.16575(14) 0.0986(4)
N4 N 0.5030(3) -0.04103(12) 0.18635(19)
N5 N 0.5847(3) -0.05990(9) 0.10120(17)
N6 N 0.6669(3) -0.07979(12) 0.0186(2)
N7 N 0.1519(3) -0.04589(9) 0.31968(18)
C1 C 0.0730(4) -0.11031(12) 0.2843(3)
H1 H 0.028(4) -0.1207(14) 0.184(3)
C2 C 0.0552(4) -0.15970(14) 0.3817(3)
H2 H 0.004(5) -0.1986(17) 0.351(4)
C3 C 0.1191(4) -0.14395(13) 0.5253(3)
H3 H 0.118(5) -0.1786(15) 0.597(3)
C4 C 0.1954(3) -0.07916(12) 0.5645(2)
H4 H 0.234(4) -0.0654(14) 0.659(3)
C5 C 0.2119(3) -0.03080(10) 0.4583(2)
N8 N 0.2963(3) 0.03266(9) 0.50584(18)
H5 H 0.348(4) 0.0311(13) 0.588(3)
C6 C 0.3238(3) 0.09453(10) 0.4403(2)
C7 C 0.4007(3) 0.15052(12) 0.5314(2)
H6 H 0.435(4) 0.1439(13) 0.626(3)
C8 C 0.4286(4) 0.21378(13) 0.4751(3)
H7 H 0.484(4) 0.2499(15) 0.531(3)
C9 C 0.3752(5) 0.22169(14) 0.3281(3)
H8 H 0.379(5) 0.2645(16) 0.278(3)
C10 C 0.3043(4) 0.16498(13) 0.2460(2)
H9 H 0.265(4) 0.1686(15) 0.139(3)
N9 N 0.2813(3) 0.10057(9) 0.29842(18)
N1B N 0.0864(3) -0.05865(10) -0.04202(19)
N6B N 0.3331(3) 0.07979(12) -0.0186(2)
Mn1B Mn -0.21004(4) -0.014785(17) -0.13519(3)
Mn1B_2 Mn 0.78996(4) -0.014785(17) -0.13519(3)
loop_
_geom_bond_atom_site_label_1
_geom_bond_atom_site_label_2
_geom_bond_site_symmetry_1
_geom_bond_site_symmetry_2
Mn1 N1 1_555 1_555
N1 N2 1_555 1_555
N2 N3 1_555 1_555
N4 Mn1 1_555 1_555
N5 N4 1_555 1_555
N6 N5 1_555 1_555
N7 Mn1 1_555 1_555
C1 N7 1_555 1_555
H1 C1 1_555 1_555
C2 C1 1_555 1_555
H2 C2 1_555 1_555
C3 C2 1_555 1_555
H3 C3 1_555 1_555
C4 C3 1_555 1_555
H4 C4 1_555 1_555
C5 N7 1_555 1_555
N8 C5 1_555 1_555
H5 N8 1_555 1_555
C6 N8 1_555 1_555
C7 C6 1_555 1_555
H6 C7 1_555 1_555
C8 C7 1_555 1_555
H7 C8 1_555 1_555
C9 C8 1_555 1_555
H8 C9 1_555 1_555
C10 C9 1_555 1_555
H9 C10 1_555 1_555
N9 Mn1 1_555 1_555
N1B Mn1 1_555 1_555
N6B Mn1 1_555 1_555
Mn1B N1 1_555 1_555
Mn1B_2 N6 1_555 1_555
C4 C5 1_555 1_555
C6 N9 1_555 1_555
C10 N9 1_555 1_555
N1B Mn1B 1_555 1_555

#END
