
#######################################################################
#
#                 Cambridge Crystallographic Data Centre
#                                CCDC 
#
#######################################################################
#
# If this CIF has been generated from an entry in the Cambridge 
# Structural Database, then it will include bibliographic, chemical, 
# crystal, experimental, refinement or atomic coordinate data resulting 
# from the CCDC's data processing and validation procedures.
#
#######################################################################

data_IBIGOP01
_symmetry_cell_setting           monoclinic
_symmetry_space_group_name_H-M   'P 21/c'
_symmetry_Int_Tables_number      14
_space_group_name_Hall           '-P 2ybc'
loop_
_symmetry_equiv_pos_site_id
_symmetry_equiv_pos_as_xyz
1 x,y,z
2 -x,1/2+y,1/2-z
3 -x,-y,-z
4 x,1/2-y,1/2+z
_cell_length_a                   7.0864(2)
_cell_length_b                   19.0976(7)
_cell_length_c                   9.6982(5)
_cell_angle_alpha                90
_cell_angle_beta                 104.7191(13)
_cell_angle_gamma                90
_cell_volume                     1269.42
loop_
_atom_site_label
_atom_site_type_symbol
_atom_site_fract_x
_atom_site_fract_y
_atom_site_fract_z
Mn1 Mn 0.21001(7) 0.48527(3) 0.63518(5)
N1 N 0.2815(4) 0.39975(15) 0.7987(3)
N2 N 0.1521(4) 0.54588(14) 0.8195(3)
C1 C 0.3244(4) 0.40557(18) 0.9417(4)
N3 N 0.0870(4) 0.55849(16) 0.4582(3)
N4 N 0.2967(4) 0.46732(14) 1.0051(3)
H1 H 0.3427 0.4661 1.0961
C2 C 0.0740(5) 0.61018(19) 0.7861(4)
H2 H 0.0289 0.6212 0.6899
C3 C 0.2129(4) 0.53109(17) 0.9587(3)
C4 C 0.1185(5) 0.6432(2) 1.0248(4)
H3 H 0.1075 0.6758 1.0937
C5 C 0.1954(5) 0.5793(2) 1.0635(4)
H4 H 0.2366 0.5673 1.1595
C6 C 0.4004(5) 0.34971(18) 1.0301(4)
H5 H 0.4324 0.3558 1.1285
C7 C 0.3753(6) 0.2788(2) 0.8277(4)
H6 H 0.3879 0.2358 0.7860
N5 N 0.1490(4) 0.61349(19) 0.4312(3)
C8 C 0.4284(5) 0.2868(2) 0.9757(4)
H7 H 0.4817 0.2498 1.0351
C9 C 0.3050(6) 0.3354(2) 0.7468(4)
H8 H 0.2702 0.3297 0.6484
C10 C 0.0562(5) 0.6597(2) 0.8816(4)
H9 H 0.0038 0.7035 0.8519
N6 N 0.2079(6) 0.6660(2) 0.4032(5)
N7 N 0.5846(4) 0.56000(15) 0.6014(3)
N8 N 0.5011(4) 0.54083(17) 0.6868(3)
N9 N 0.6677(4) 0.57987(17) 0.5189(3)
Mn1B Mn -0.21001(7) 0.51473(3) 0.36482(5)
Mn1_2 Mn -0.78999(7) 0.48527(3) 0.63518(5)
Mn1B_2 Mn 0.78999(7) 0.51473(3) 0.36482(5)
N1B N -0.2815(4) 0.60025(15) 0.2013(3)
N2B N -0.1521(4) 0.45412(14) 0.1805(3)
C1B C -0.3244(4) 0.59443(18) 0.0583(4)
N3B N -0.0870(4) 0.44151(16) 0.5418(3)
N4B N -0.2967(4) 0.53268(14) -0.0051(3)
H1B H -0.3427 0.5339 -0.0961
C2B C -0.0740(5) 0.38982(19) 0.2139(4)
H2B H -0.0289 0.3788 0.3101
C3B C -0.2129(4) 0.46891(17) 0.0413(3)
C4B C -0.1185(5) 0.3568(2) -0.0248(4)
H3B H -0.1075 0.3242 -0.0937
C5B C -0.1954(5) 0.4207(2) -0.0635(4)
H4B H -0.2366 0.4327 -0.1595
C6B C -0.4004(5) 0.65029(18) -0.0301(4)
H5B H -0.4324 0.6442 -0.1285
C7B C -0.3753(6) 0.7212(2) 0.1723(4)
H6B H -0.3879 0.7642 0.2140
N5B N -0.1490(4) 0.38651(19) 0.5688(3)
C8B C -0.4284(5) 0.7132(2) 0.0243(4)
H7B H -0.4817 0.7502 -0.0351
C9B C -0.3050(6) 0.6646(2) 0.2532(4)
H8B H -0.2702 0.6703 0.3516
C10B C -0.0562(5) 0.3403(2) 0.1184(4)
H9B H -0.0038 0.2965 0.1481
N6B N -0.2079(6) 0.3340(2) 0.5968(5)
N7B N -0.5846(4) 0.44000(15) 0.3986(3)
N8B N -0.5011(4) 0.45917(17) 0.3132(3)
N9B N -0.6677(4) 0.42013(17) 0.4811(3)
N9_2 N -0.3323(4) 0.57987(17) 0.5189(3)
N9B_2 N 0.3323(4) 0.42013(17) 0.4811(3)
loop_
_geom_bond_atom_site_label_1
_geom_bond_atom_site_label_2
_geom_bond_site_symmetry_1
_geom_bond_site_symmetry_2
Mn1 N1 1_555 1_555
N1 C1 1_555 1_555
N2 Mn1 1_555 1_555
C1 N4 1_555 1_555
N3 Mn1 1_555 1_555
N4 H1 1_555 1_555
C2 N2 1_555 1_555
H2 C2 1_555 1_555
C3 N2 1_555 1_555
C4 H3 1_555 1_555
C5 C3 1_555 1_555
H4 C5 1_555 1_555
C6 C1 1_555 1_555
H5 C6 1_555 1_555
C7 H6 1_555 1_555
N5 N3 1_555 1_555
C8 C6 1_555 1_555
H7 C8 1_555 1_555
C9 N1 1_555 1_555
H8 C9 1_555 1_555
C10 C2 1_555 1_555
H9 C10 1_555 1_555
N6 N5 1_555 1_555
N7 N8 1_555 1_555
N8 Mn1 1_555 1_555
N9 N7 1_555 1_555
Mn1B N3 1_555 1_555
Mn1_2 N9B 1_555 1_555
Mn1B_2 N9 1_555 1_555
N1B Mn1B 1_555 1_555
N2B Mn1B 1_555 1_555
C1B N1B 1_555 1_555
N3B Mn1 1_555 1_555
N4B C1B 1_555 1_555
H1B N4B 1_555 1_555
C2B N2B 1_555 1_555
H2B C2B 1_555 1_555
C3B N2B 1_555 1_555
C4B H3B 1_555 1_555
C5B C3B 1_555 1_555
H4B C5B 1_555 1_555
C6B C1B 1_555 1_555
H5B C6B 1_555 1_555
C7B H6B 1_555 1_555
N5B N3B 1_555 1_555
C8B C6B 1_555 1_555
H7B C8B 1_555 1_555
C9B N1B 1_555 1_555
H8B C9B 1_555 1_555
C10B C2B 1_555 1_555
H9B C10B 1_555 1_555
N6B N5B 1_555 1_555
N7B N8B 1_555 1_555
N8B Mn1B 1_555 1_555
N9B N7B 1_555 1_555
N9_2 Mn1B 1_555 1_555
N9B_2 Mn1 1_555 1_555
N4 C3 1_555 1_555
C4 C5 1_555 1_555
C4 C10 1_555 1_555
C7 C8 1_555 1_555
C7 C9 1_555 1_555
Mn1B N3B 1_555 1_555
N4B C3B 1_555 1_555
C4B C5B 1_555 1_555
C4B C10B 1_555 1_555
C7B C8B 1_555 1_555
C7B C9B 1_555 1_555

#END
