
#######################################################################
#
#                 Cambridge Crystallographic Data Centre
#                                CCDC 
#
#######################################################################
#
# If this CIF has been generated from an entry in the Cambridge 
# Structural Database, then it will include bibliographic, chemical, 
# crystal, experimental, refinement or atomic coordinate data resulting 
# from the CCDC's data processing and validation procedures.
#
#######################################################################

data_IBIHAE
_symmetry_cell_setting           triclinic
_symmetry_space_group_name_H-M   'P 1'
_symmetry_Int_Tables_number      1
_space_group_name_Hall           'P 1'
loop_
_symmetry_equiv_pos_site_id
_symmetry_equiv_pos_as_xyz
1 x,y,z
_cell_length_a                   11.8680(6)
_cell_length_b                   16.1506(8)
_cell_length_c                   28.9425(18)
_cell_angle_alpha                80.757(4)
_cell_angle_beta                 87.066(4)
_cell_angle_gamma                80.195(4)
_cell_volume                     5393.93
loop_
_atom_site_label
_atom_site_type_symbol
_atom_site_fract_x
_atom_site_fract_y
_atom_site_fract_z
Fe1 Fe 0.3766(3) 0.6680(3) 0.18899(17)
N1 N 0.3401(17) 0.5944(11) 0.1461(7)
N2 N 0.4124(19) 0.7364(15) 0.1282(9)
N3 N 0.337(2) 0.6031(17) 0.2508(9)
C1 C 0.3147(17) 0.5204(15) 0.1522(10)
H1 H 0.3068 0.4981 0.1841
C2 C 0.2966(19) 0.4666(16) 0.1236(8)
H2 H 0.2842 0.4106 0.1342
C3 C 0.298(3) 0.5013(17) 0.0783(10)
H3 H 0.2767 0.4731 0.0550
C4 C 0.3307(16) 0.5771(13) 0.0675(8)
C5 C 0.3507(17) 0.6187(14) 0.1023(7)
C6 C 0.458(3) 0.806(2) 0.1219(11)
H4 H 0.4705 0.8334 0.1472
C7 C 0.488(3) 0.8389(17) 0.0758(10)
H5 H 0.5410 0.8767 0.0725
C8 C 0.449(3) 0.822(2) 0.0338(12)
H6 H 0.4554 0.8553 0.0044
C9 C 0.393(2) 0.7399(15) 0.0426(9)
C10 C 0.3848(15) 0.7057(12) 0.0903(7)
C11 C 0.337(2) 0.6230(18) 0.0190(9)
H7 H 0.3230 0.5954 -0.0059
C12 C 0.3621(18) 0.7017(17) 0.0089(8)
H8 H 0.3580 0.7301 -0.0221
N4 N 0.5353(10) 0.6105(10) 0.1959(6)
C13 C 0.5809(14) 0.5408(11) 0.1744(6)
H9 H 0.5344 0.5180 0.1561
C14 C 0.6953(15) 0.5047(11) 0.1801(7)
H10 H 0.7261 0.4575 0.1655
C15 C 0.7641(11) 0.5383(12) 0.2072(7)
H11 H 0.8415 0.5139 0.2110
C16 C 0.7185(13) 0.6081(12) 0.2287(7)
C17 C 0.6041(13) 0.6442(9) 0.2231(6)
N5 N 0.4368(14) 0.7438(11) 0.2271(6)
C18 C 0.3848(11) 0.8232(11) 0.2368(7)
H12 H 0.3077 0.8433 0.2295
C19 C 0.4468(15) 0.8728(10) 0.2573(7)
H13 H 0.4116 0.9265 0.2638
C20 C 0.5608(15) 0.8431(11) 0.2680(7)
H14 H 0.6027 0.8766 0.2819
C21 C 0.6128(11) 0.7637(12) 0.2583(7)
C22 C 0.5508(14) 0.7141(10) 0.2379(7)
C23 C 0.7290(17) 0.7324(13) 0.2660(7)
H15 H 0.7786 0.7684 0.2726
C24 C 0.7700(19) 0.6462(15) 0.2638(9)
H16 H 0.8273 0.6144 0.2836
C25 C 0.391(3) 0.515(2) 0.2712(11)
H17 H 0.4588 0.4863 0.2590
C26 C 0.336(2) 0.4813(16) 0.3066(9)
H18 H 0.3641 0.4251 0.3200
C27 C 0.235(3) 0.524(2) 0.3270(11)
H19 H 0.2034 0.4965 0.3544
C28 C 0.183(3) 0.6040(19) 0.3086(10)
C29 C 0.225(2) 0.6381(17) 0.2700(9)
N6 N 0.2195(11) 0.7295(10) 0.1974(6)
C30 C 0.1630(12) 0.8009(11) 0.1693(5)
H20 H 0.1937 0.8195 0.1396
C31 C 0.0610(12) 0.8449(9) 0.1851(5)
H21 H 0.0228 0.8931 0.1661
C32 C 0.0156(11) 0.8174(10) 0.2290(5)
H22 H -0.0534 0.8471 0.2397
C33 C 0.0721(14) 0.7460(11) 0.2571(5)
C34 C 0.1741(14) 0.7021(10) 0.2413(6)
C35 C 0.089(3) 0.633(2) 0.3200(13)
H23 H 0.0546 0.5987 0.3438
C36 C 0.022(2) 0.711(2) 0.3036(11)
H24 H -0.0438 0.7370 0.3188
Fe2 Fe 0.6154(3) 0.5003(3) 0.88191(14)
N7 N 0.4557(16) 0.5600(13) 0.8814(8)
N8 N 0.5585(17) 0.4248(13) 0.8454(8)
N9 N 0.6615(11) 0.5703(9) 0.8257(6)
N10 N 0.7735(13) 0.4370(10) 0.8762(6)
C37 C 0.4018(17) 0.6259(13) 0.8959(7)
H25 H 0.4415 0.6496 0.9164
C38 C 0.2934(16) 0.6672(12) 0.8856(7)
H26 H 0.2621 0.7167 0.8980
C39 C 0.235(2) 0.6346(17) 0.8578(10)
H27 H 0.1638 0.6648 0.8471
C40 C 0.2786(19) 0.5515(17) 0.8431(9)
C41 C 0.3941(17) 0.5232(12) 0.8542(8)
C42 C 0.6121(16) 0.3559(12) 0.8274(7)
H28 H 0.6908 0.3393 0.8327
C43 C 0.5615(17) 0.3081(13) 0.8022(7)
H29 H 0.6053 0.2594 0.7925
C44 C 0.4415(17) 0.3306(14) 0.7898(8)
H30 H 0.4024 0.2967 0.7749
C45 C 0.3877(18) 0.4142(18) 0.8036(10)
C46 C 0.4457(16) 0.4505(11) 0.8343(7)
C47 C 0.208(2) 0.5104(17) 0.8200(9)
H31 H 0.1274 0.5163 0.8232
C48 C 0.277(2) 0.4592(18) 0.7914(11)
H32 H 0.2490 0.4545 0.7623
C49 C 0.6004(17) 0.6366(12) 0.7990(6)
H33 H 0.5288 0.6601 0.8107
C50 C 0.6379(17) 0.6746(14) 0.7532(7)
H34 H 0.5913 0.7221 0.7368
C51 C 0.7453(16) 0.6408(14) 0.7321(8)
H35 H 0.7702 0.6605 0.7016
C52 C 0.8103(16) 0.5723(12) 0.7640(7)
C53 C 0.7639(16) 0.5378(12) 0.8092(7)
C54 C 0.821(2) 0.3644(19) 0.9062(10)
H36 H 0.7847 0.3469 0.9349
C55 C 0.919(3) 0.321(2) 0.8930(12)
H37 H 0.9521 0.2711 0.9122
C56 C 0.971(2) 0.3467(17) 0.8530(10)
H38 H 1.0397 0.3131 0.8455
C57 C 0.9316(18) 0.4206(15) 0.8201(8)
C58 C 0.8245(14) 0.4634(10) 0.8358(7)
C59 C 0.9180(14) 0.5228(12) 0.7448(7)
H39 H 0.9484 0.5378 0.7146
C60 C 0.967(2) 0.4545(15) 0.7755(9)
H40 H 1.0358 0.4253 0.7647
N11 N 0.6623(19) 0.5777(15) 0.9205(8)
C61 C 0.6890(19) 0.6533(14) 0.9103(8)
H41 H 0.6933 0.6793 0.8789
C62 C 0.713(3) 0.699(2) 0.9491(10)
H42 H 0.7383 0.7513 0.9411
C63 C 0.701(2) 0.6684(16) 0.9944(10)
H43 H 0.7054 0.7027 1.0173
N12 N 0.5882(18) 0.4281(14) 0.9417(9)
C64 C 0.546(3) 0.3570(19) 0.9499(10)
H44 H 0.5252 0.3339 0.9244
C65 C 0.530(2) 0.3139(16) 0.9958(8)
H45 H 0.5085 0.2596 1.0007
C66 C 0.546(3) 0.3542(16) 1.0333(8)
H46 H 0.5291 0.3293 1.0640
C67 C 0.6789(16) 0.5783(10) 1.0083(7)
C68 C 0.6536(15) 0.5399(11) 0.9713(5)
C69 C 0.6070(16) 0.4654(11) 0.9801(6)
C70 C 0.5858(16) 0.4292(10) 1.0259(7)
C71 C 0.6111(16) 0.4676(13) 1.0630(5)
H47 H 0.5968 0.4431 1.0940
C72 C 0.6577(17) 0.5421(13) 1.0541(5)
H48 H 0.6748 0.5680 1.0792
N13 N 0.710(4) 0.028(3) 0.5520(18)
C73 C 0.732(3) 0.122(2) 0.5326(10)
C74 C 0.869(3) 0.015(2) 0.5663(13)
N14 N -0.0213(14) 0.5384(8) -0.0124(6)
C75 C -0.0342(15) 0.5607(10) -0.0605(6)
H49 H -0.0460 0.5197 -0.0786
C76 C -0.0295(16) 0.6436(11) -0.0818(4)
H50 H -0.0382 0.6586 -0.1143
C77 C -0.0120(14) 0.7042(8) -0.0550(5)
H51 H -0.0089 0.7602 -0.0694
C78 C 0.0009(15) 0.6819(9) -0.0069(5)
C79 C -0.0038(15) 0.5991(10) 0.0144(4)
C80 C 0.0053(18) 0.4858(11) 0.1373(7)
H52 H -0.0002 0.4318 0.1542
C81 C 0.0232(18) 0.5509(15) 0.1608(5)
H53 H 0.0298 0.5408 0.1935
C82 C 0.031(2) 0.6308(13) 0.1359(8)
H54 H 0.0435 0.6748 0.1518
C83 C 0.022(2) 0.6457(10) 0.0875(8)
C84 C 0.0038(18) 0.5806(13) 0.0640(5)
N15 N -0.0044(16) 0.5007(11) 0.0889(7)
C85 C 0.0272(19) 0.7419(15) 0.0221(7)
H55 H 0.0397 0.7963 0.0080
C86 C 0.0333(18) 0.7216(16) 0.0654(10)
H56 H 0.0469 0.7626 0.0832
In11 In -0.24359(15) 0.96555(13) 0.89509(7)
S20 S -0.2189(5) 0.8459(5) 0.8490(3)
S21 S -0.0847(5) 0.9559(5) 0.9476(3)
S22 S -0.4134(6) 0.9498(6) 0.9436(3)
S23 S -0.2771(5) 1.1032(5) 0.8440(3)
In12 In -0.57753(15) 0.96146(14) 0.89439(7)
S24 S -0.5392(6) 0.8418(5) 0.8505(3)
In13 In -0.70386(15) 0.86098(13) 0.79980(7)
S25 S -0.7326(6) 0.9989(5) 0.7462(3)
In14 In -1.10466(16) 1.11822(14) 0.79831(8)
S26 S -1.0772(7) 1.0042(6) 0.7472(3)
S27 S -0.9383(5) 1.1082(5) 0.8469(3)
In15 In -0.89896(18) 1.01018(16) 0.69655(8)
S28 S -0.8814(7) 0.9003(6) 0.6498(3)
In16 In -0.91094(14) 0.96794(12) 0.90038(7)
S29 S -0.8812(5) 0.8536(5) 0.8495(3)
In17 In -0.76527(15) 1.11739(12) 0.79602(8)
S30 S -0.5981(6) 1.0993(5) 0.8411(3)
S31 S -0.7450(5) 0.9496(5) 0.9477(3)
In18 In -0.84635(19) 0.76583(16) 0.71000(9)
S32 S -0.6684(6) 0.7499(5) 0.7514(3)
S33 S -0.9367(10) 1.1424(8) 0.6461(3)
In19 In -1.04948(15) 0.86093(14) 0.80045(7)
In20 In -0.9625(2) 1.25168(17) 0.69934(9)
S34 S -1.1441(7) 1.2534(6) 0.7482(4)
S35 S -1.0125(8) 1.3880(8) 0.6450(4)
S36 S -0.8015(6) 1.2535(6) 0.7453(4)
S37 S -0.8343(10) 0.6553(7) 0.6614(4)
S38 S -1.0141(7) 0.7438(6) 0.7568(3)
S21_2 S -1.0847(5) 0.9559(5) 0.9476(3)
S20_2 S -1.2189(5) 0.8459(5) 0.8490(3)
S23_2 S -1.2771(5) 1.1032(5) 0.8440(3)
In11_2 In -1.24359(15) 0.96555(13) 0.89509(7)
In1 In 1.56943(16) 0.20614(13) 0.17649(7)
S1 S 1.4074(6) 0.2132(5) 0.1232(2)
S2 S 1.7375(6) 0.2170(6) 0.1226(3)
S3 S 1.5317(7) 0.3199(5) 0.2237(3)
S4 S 1.5869(8) 0.0685(6) 0.2273(3)
In2 In 1.23435(16) 0.20398(14) 0.17466(8)
In3 In 1.90452(15) 0.20108(12) 0.17087(7)
In4 In 1.69412(16) 0.30771(13) 0.27035(7)
In5 In 1.75810(17) 0.05242(13) 0.27440(8)
S5 S 1.0742(6) 0.2087(5) 0.1218(2)
S6 S 1.2095(7) 0.3158(6) 0.2217(3)
S7 S 1.2673(7) 0.0654(7) 0.2251(3)
S8 S 1.8716(6) 0.3147(5) 0.2196(2)
S9 S 1.9306(6) 0.0591(4) 0.2200(3)
S10 S 1.6577(8) 0.4161(6) 0.3191(3)
S11 S 1.7178(6) 0.1658(5) 0.3239(3)
S12 S 1.7852(8) -0.0858(5) 0.3203(3)
In6 In 2.04077(16) 0.30723(13) 0.26988(7)
In7 In 2.09837(16) 0.05147(14) 0.27325(8)
In8 In 1.8361(2) 0.40303(19) 0.36017(9)
In9 In 1.89061(17) 0.15871(17) 0.37461(8)
In10 In 1.9556(2) -0.08203(18) 0.37012(10)
S13 S 2.0040(8) 0.4301(7) 0.3086(4)
S14 S 2.0635(6) 0.1702(6) 0.3221(3)
S15 S 2.1256(8) -0.0811(6) 0.3247(3)
S16 S 1.7962(10) 0.5402(7) 0.3972(4)
S17 S 1.8597(8) 0.2807(8) 0.4175(3)
S18 S 1.9009(8) 0.0207(6) 0.4232(3)
S19 S 1.9555(11) -0.2196(7) 0.4228(4)
S5_2 S 2.0742(6) 0.2087(5) 0.1218(2)
In2_2 In 2.23435(16) 0.20398(14) 0.17466(8)
S6_2 S 2.2095(7) 0.3158(6) 0.2217(3)
S7_2 S 2.2673(7) 0.0654(7) 0.2251(3)
Fe3? Fe 0.5890(4) -0.3487(3) 0.56282(18)
Fe4? Fe 0.4957(7) 0.0828(8) 0.5347(3)
N16? N 0.4798(10) -0.4142(10) 0.5365(5)
N17? N 0.6129(16) -0.3003(16) 0.4964(8)
N18? N 0.3365(12) 0.0951(11) 0.5199(5)
N19? N 0.545(3) 0.236(2) 0.4614(10)
N20? N 0.4583(13) 0.1561(12) 0.5868(6)
N21? N 0.4911(12) -0.0246(10) 0.5783(5)
C87? C 0.599(2) -0.4982(15) 0.6315(9)
C88? C 0.6491(16) -0.5239(14) 0.5915(6)
C89? C 0.486(3) -0.413(2) 0.3772(14)
C90? C 0.4024(19) -0.2815(15) 0.3963(7)
C91? C 0.711(3) -0.257(3) 0.4468(14)
C92? C 0.658(3) -0.245(2) 0.4010(11)
C93? C 0.749(3) -0.611(2) 0.5235(12)
C94? C 0.642(3) -0.625(3) 0.6759(13)
C95? C 0.109(2) 0.114(2) 0.4859(10)
C96? C 0.257(3) -0.010(3) 0.4170(14)
C97? C 0.6134(17) -0.0485(17) 0.4242(8)
C98? C 0.522(3) 0.315(2) 0.4322(11)
C99? C 0.381(2) 0.1664(18) 0.6125(9)
C100? C 0.912(4) -0.349(4) 0.6276(19)
C101? C 0.847(3) 0.104(3) 0.5445(14)
C102? C 0.560(3) -0.092(2) 0.5042(12)
C103? C 0.318(3) 0.065(2) 0.4839(10)
N22? N 0.536(3) -0.422(2) 0.6251(11)
N23? N 0.897(7) -0.279(5) 0.611(3)
N24? N 0.645(4) -0.4840(16) 0.5335(11)
loop_
_geom_bond_atom_site_label_1
_geom_bond_atom_site_label_2
_geom_bond_site_symmetry_1
_geom_bond_site_symmetry_2
In1 S1 1_555 1_555
S1 In2 1_555 1_555
S2 In1 1_555 1_555
S3 In1 1_555 1_555
S4 In1 1_555 1_555
In2 S5 1_555 1_555
In3 S2 1_555 1_555
In4 S3 1_555 1_555
In5 S4 1_555 1_555
S6 In2 1_555 1_555
S7 In2 1_555 1_555
S8 In3 1_555 1_555
S9 In3 1_555 1_555
S10 In4 1_555 1_555
S11 In4 1_555 1_555
S12 In5 1_555 1_555
In6 S8 1_555 1_555
In7 S9 1_555 1_555
In8 S10 1_555 1_555
In9 S11 1_555 1_555
In10 S12 1_555 1_555
S13 In6 1_555 1_555
S14 In6 1_555 1_555
S15 In7 1_555 1_555
S16 In8 1_555 1_555
S17 In8 1_555 1_555
S18 In9 1_555 1_555
S19 In10 1_555 1_555
Fe1 N1 1_555 1_555
N1 C1 1_555 1_555
N2 Fe1 1_555 1_555
N3 Fe1 1_555 1_555
C1 H1 1_555 1_555
C2 C1 1_555 1_555
H2 C2 1_555 1_555
C3 C2 1_555 1_555
H3 C3 1_555 1_555
C4 C3 1_555 1_555
C5 N1 1_555 1_555
C6 N2 1_555 1_555
H4 C6 1_555 1_555
C7 C6 1_555 1_555
H5 C7 1_555 1_555
C8 C7 1_555 1_555
H6 C8 1_555 1_555
C9 C8 1_555 1_555
C10 N2 1_555 1_555
C11 C4 1_555 1_555
H7 C11 1_555 1_555
C12 C9 1_555 1_555
H8 C12 1_555 1_555
N4 Fe1 1_555 1_555
C13 N4 1_555 1_555
H9 C13 1_555 1_555
C14 C13 1_555 1_555
H10 C14 1_555 1_555
C15 C14 1_555 1_555
H11 C15 1_555 1_555
C16 C15 1_555 1_555
C17 N4 1_555 1_555
N5 Fe1 1_555 1_555
C18 N5 1_555 1_555
H12 C18 1_555 1_555
C19 C18 1_555 1_555
H13 C19 1_555 1_555
C20 C19 1_555 1_555
H14 C20 1_555 1_555
C21 C20 1_555 1_555
C22 C17 1_555 1_555
C23 C21 1_555 1_555
H15 C23 1_555 1_555
C24 C16 1_555 1_555
H16 C24 1_555 1_555
C25 N3 1_555 1_555
H17 C25 1_555 1_555
C26 C25 1_555 1_555
H18 C26 1_555 1_555
C27 C26 1_555 1_555
H19 C27 1_555 1_555
C28 C27 1_555 1_555
C29 N3 1_555 1_555
N6 Fe1 1_555 1_555
C30 N6 1_555 1_555
H20 C30 1_555 1_555
C31 C30 1_555 1_555
H21 C31 1_555 1_555
C32 C31 1_555 1_555
H22 C32 1_555 1_555
C33 C32 1_555 1_555
C34 C29 1_555 1_555
C35 C28 1_555 1_555
H23 C35 1_555 1_555
C36 C33 1_555 1_555
H24 C36 1_555 1_555
Fe2 N7 1_555 1_555
N7 C37 1_555 1_555
N8 Fe2 1_555 1_555
N9 Fe2 1_555 1_555
N10 Fe2 1_555 1_555
C37 H25 1_555 1_555
C38 C37 1_555 1_555
H26 C38 1_555 1_555
C39 C38 1_555 1_555
H27 C39 1_555 1_555
C40 C39 1_555 1_555
C41 N7 1_555 1_555
C42 N8 1_555 1_555
H28 C42 1_555 1_555
C43 C42 1_555 1_555
H29 C43 1_555 1_555
C44 C43 1_555 1_555
H30 C44 1_555 1_555
C45 C44 1_555 1_555
C46 N8 1_555 1_555
C47 C40 1_555 1_555
H31 C47 1_555 1_555
C48 C45 1_555 1_555
H32 C48 1_555 1_555
C49 N9 1_555 1_555
H33 C49 1_555 1_555
C50 C49 1_555 1_555
H34 C50 1_555 1_555
C51 C50 1_555 1_555
H35 C51 1_555 1_555
C52 C51 1_555 1_555
C53 N9 1_555 1_555
C54 N10 1_555 1_555
H36 C54 1_555 1_555
C55 C54 1_555 1_555
H37 C55 1_555 1_555
C56 C55 1_555 1_555
H38 C56 1_555 1_555
C57 C56 1_555 1_555
C58 N10 1_555 1_555
C59 C52 1_555 1_555
H39 C59 1_555 1_555
C60 C57 1_555 1_555
H40 C60 1_555 1_555
N11 Fe2 1_555 1_555
C61 N11 1_555 1_555
H41 C61 1_555 1_555
C62 C61 1_555 1_555
H42 C62 1_555 1_555
C63 C62 1_555 1_555
H43 C63 1_555 1_555
N12 Fe2 1_555 1_555
C64 N12 1_555 1_555
H44 C64 1_555 1_555
C65 C64 1_555 1_555
H45 C65 1_555 1_555
C66 C65 1_555 1_555
H46 C66 1_555 1_555
C67 C63 1_555 1_555
C68 N11 1_555 1_555
C69 N12 1_555 1_555
C70 C66 1_555 1_555
C71 C70 1_555 1_555
H47 C71 1_555 1_555
C72 C67 1_555 1_555
H48 C72 1_555 1_555
N13 C73 1_555 1_555
C74 N13 1_555 1_555
N14 C75 1_555 1_555
C75 H49 1_555 1_555
C76 C75 1_555 1_555
H50 C76 1_555 1_555
C77 C76 1_555 1_555
H51 C77 1_555 1_555
C78 C77 1_555 1_555
C79 N14 1_555 1_555
C80 H52 1_555 1_555
C81 C80 1_555 1_555
H53 C81 1_555 1_555
C82 C81 1_555 1_555
H54 C82 1_555 1_555
C83 C82 1_555 1_555
C84 C79 1_555 1_555
N15 C80 1_555 1_555
C85 C78 1_555 1_555
H55 C85 1_555 1_555
C86 C83 1_555 1_555
H56 C86 1_555 1_555
In11 S20 1_555 1_555
S21 In11 1_555 1_555
S22 In11 1_555 1_555
S23 In11 1_555 1_555
In12 S22 1_555 1_555
S24 In12 1_555 1_555
In13 S24 1_555 1_555
S25 In13 1_555 1_555
In14 S26 1_555 1_555
S26 In15 1_555 1_555
S27 In14 1_555 1_555
In15 S25 1_555 1_555
S28 In15 1_555 1_555
In16 S27 1_555 1_555
S29 In13 1_555 1_555
In17 S25 1_555 1_555
S30 In12 1_555 1_555
S31 In12 1_555 1_555
In18 S28 1_555 1_555
S32 In13 1_555 1_555
S33 In15 1_555 1_555
In19 S26 1_555 1_555
In20 S33 1_555 1_555
S34 In14 1_555 1_555
S35 In20 1_555 1_555
S36 In17 1_555 1_555
S37 In18 1_555 1_555
S38 In18 1_555 1_555
S5_2 In3 1_555 1_555
In2_2 S5_2 1_555 1_555
S6_2 In6 1_555 1_555
S7_2 In7 1_555 1_555
S21_2 In16 1_555 1_555
S20_2 In19 1_555 1_555
S23_2 In14 1_555 1_555
In11_2 S21_2 1_555 1_555
In4 S8 1_555 1_555
In5 S9 1_555 1_555
In5 S11 1_555 1_555
In7 S14 1_555 1_555
In8 S13 1_555 1_555
In9 S14 1_555 1_555
In9 S17 1_555 1_555
In10 S15 1_555 1_555
In10 S18 1_555 1_555
C4 C5 1_555 1_555
C5 C10 1_555 1_555
C9 C10 1_555 1_555
C11 C12 1_555 1_555
C16 C17 1_555 1_555
N5 C22 1_555 1_555
C21 C22 1_555 1_555
C23 C24 1_555 1_555
C28 C29 1_555 1_555
N6 C34 1_555 1_555
C33 C34 1_555 1_555
C35 C36 1_555 1_555
C40 C41 1_555 1_555
C41 C46 1_555 1_555
C45 C46 1_555 1_555
C47 C48 1_555 1_555
C52 C53 1_555 1_555
C53 C58 1_555 1_555
C57 C58 1_555 1_555
C59 C60 1_555 1_555
C67 C68 1_555 1_555
C68 C69 1_555 1_555
C69 C70 1_555 1_555
C71 C72 1_555 1_555
C78 C79 1_555 1_555
C83 C84 1_555 1_555
C84 N15 1_555 1_555
C85 C86 1_555 1_555
S27 In17 1_555 1_555
In16 S29 1_555 1_555
In16 S31 1_555 1_555
S29 In19 1_555 1_555
In17 S30 1_555 1_555
In18 S32 1_555 1_555
In19 S38 1_555 1_555
In20 S34 1_555 1_555
In20 S36 1_555 1_555
In2_2 S6_2 1_555 1_555
In2_2 S7_2 1_555 1_555
S20_2 In11_2 1_555 1_555
S23_2 In11_2 1_555 1_555

#END
