
#######################################################################
#
#                 Cambridge Crystallographic Data Centre
#                                CCDC 
#
#######################################################################
#
# If this CIF has been generated from an entry in the Cambridge 
# Structural Database, then it will include bibliographic, chemical, 
# crystal, experimental, refinement or atomic coordinate data resulting 
# from the CCDC's data processing and validation procedures.
#
#######################################################################

data_IBIHOR
_symmetry_cell_setting           monoclinic
_symmetry_space_group_name_H-M   'P 21'
_symmetry_Int_Tables_number      4
_space_group_name_Hall           'P 2yb'
loop_
_symmetry_equiv_pos_site_id
_symmetry_equiv_pos_as_xyz
1 x,y,z
2 -x,1/2+y,-z
_cell_length_a                   4.0535(1)
_cell_length_b                   19.3293(7)
_cell_length_c                   7.3828(2)
_cell_angle_alpha                90
_cell_angle_beta                 92.357(5)
_cell_angle_gamma                90
_cell_volume                     577.963
loop_
_atom_site_label
_atom_site_type_symbol
_atom_site_fract_x
_atom_site_fract_y
_atom_site_fract_z
Cu1 Cu 0.2429(1) 0.7326 0.56235(6)
Br1 Br -0.3742(1) 0.76615(4) 0.34579(5)
N1 N 0.2238(9) 0.8184(2) 0.7105(4)
C1 C 0.331(1) 0.8815(3) 0.6633(6)
C2 C 0.311(1) 0.9377(3) 0.7742(6)
C3 C 0.176(1) 0.9299(3) 0.9426(6)
C4 C 0.064(1) 0.8653(2) 0.9920(6)
C5 C 0.086(1) 0.8099(2) 0.8732(5)
C6 C -0.030(1) 0.7378(2) 0.9163(5)
N2 N 0.0257(9) 0.6937(2) 0.7621(4)
C7 C -0.058(1) 0.6286(2) 0.7610(5)
O1 O -0.1926(8) 0.5957(2) 0.8878(4)
C8 C 0.016(1) 0.5904(2) 0.5858(5)
C9 C 0.164(1) 0.5193(2) 0.6220(6)
O2 O 0.2373(8) 0.6334(2) 0.4882(4)
H1 H 0.4238 0.8872 0.5482
H2 H 0.3883 0.9816 0.7366
H3 H 0.1603 0.9682 1.0224
H4 H -0.0272 0.8587 1.1072
H5 H -0.2591 0.7387 0.9394
H6 H 0.0898 0.7207 1.0201
H7 H -0.1829 0.5825 0.5165
H8 H 0.2060 0.4974 0.5100
H9 H 0.3646 0.5239 0.6919
H10 H 0.0130 0.4921 0.6866
Br1_2 Br 0.6258(1) 0.76615(4) 0.34579(5)
Cu1_2 Cu -0.7571(1) 0.7326 0.56235(6)
O3 O 0.3061(8) 0.5909(2) 0.1516(4)
loop_
_geom_bond_atom_site_label_1
_geom_bond_atom_site_label_2
_geom_bond_site_symmetry_1
_geom_bond_site_symmetry_2
Cu1 Br1 1_555 1_555
Br1 Cu1_2 1_555 1_555
N1 Cu1 1_555 1_555
C1 N1 1_555 1_555
C2 C1 1_555 1_555
C3 C2 1_555 1_555
C4 C3 1_555 1_555
C5 N1 1_555 1_555
C6 C5 1_555 1_555
N2 Cu1 1_555 1_555
C7 N2 1_555 1_555
O1 C7 1_555 1_555
C8 C7 1_555 1_555
C9 C8 1_555 1_555
O2 Cu1 1_555 1_555
H1 C1 1_555 1_555
H2 C2 1_555 1_555
H3 C3 1_555 1_555
H4 C4 1_555 1_555
H5 C6 1_555 1_555
H6 C6 1_555 1_555
H7 C8 1_555 1_555
H8 C9 1_555 1_555
H9 C9 1_555 1_555
H10 C9 1_555 1_555
Br1_2 Cu1 1_555 1_555
C4 C5 1_555 1_555
C6 N2 1_555 1_555
C8 O2 1_555 1_555

#END
