
#######################################################################
#
#                 Cambridge Crystallographic Data Centre
#                                CCDC 
#
#######################################################################
#
# If this CIF has been generated from an entry in the Cambridge 
# Structural Database, then it will include bibliographic, chemical, 
# crystal, experimental, refinement or atomic coordinate data resulting 
# from the CCDC's data processing and validation procedures.
#
#######################################################################

data_IBIHIL
_symmetry_cell_setting           monoclinic
_symmetry_space_group_name_H-M   'P 21'
_symmetry_Int_Tables_number      4
_space_group_name_Hall           'P 2yb'
loop_
_symmetry_equiv_pos_site_id
_symmetry_equiv_pos_as_xyz
1 x,y,z
2 -x,1/2+y,-z
_cell_length_a                   4.0185(1)
_cell_length_b                   19.4997(6)
_cell_length_c                   7.2382(3)
_cell_angle_alpha                90
_cell_angle_beta                 92.118(5)
_cell_angle_gamma                90
_cell_volume                     566.795
loop_
_atom_site_label
_atom_site_type_symbol
_atom_site_fract_x
_atom_site_fract_y
_atom_site_fract_z
Cu1 Cu 0.24829(4) 0.1984 0.56092(2)
Cl1 Cl -0.3906(1) 0.23225(3) 0.35426(6)
N1 N 0.2214(4) 0.28233(8) 0.7154(2)
C1 C 0.3279(5) 0.3453(1) 0.6687(3)
C2 C 0.2998(5) 0.4008(1) 0.7837(3)
C3 C 0.1607(6) 0.3914(1) 0.9541(3)
C4 C 0.0491(5) 0.3269(1) 1.0027(3)
C5 C 0.0810(4) 0.2730(1) 0.8795(2)
C6 C -0.0339(4) 0.2012(1) 0.9220(2)
N2 N 0.0221(4) 0.15860(9) 0.7623(2)
C7 C -0.0608(4) 0.0935(1) 0.7574(2)
O1 O -0.1936(3) 0.05991(7) 0.8837(2)
C8 C 0.0191(4) 0.0574(1) 0.5766(2)
C9 C 0.1701(5) -0.0130(1) 0.6087(3)
O2 O 0.2400(3) 0.10123(7) 0.4790(2)
H1 H 0.2697 0.0880 0.3676
H4 H 0.4258 0.3514 0.5524
H5 H 0.3743 0.4448 0.7471
H6 H 0.1420 0.4288 1.0369
H7 H -0.0480 0.3197 1.1188
H8 H -0.2643 0.2016 0.9471
H9 H 0.0892 0.1838 1.0264
H10 H -0.1810 0.0497 0.5056
H11 H 0.2153 -0.0334 0.4932
H12 H 0.3714 -0.0087 0.6809
H13 H 0.0182 -0.0410 0.6723
Cl1_2 Cl 0.6094(1) 0.23225(3) 0.35426(6)
Cu1_2 Cu -0.75171(4) 0.1984 0.56092(2)
O3 O 0.3189(4) 0.05464(8) 0.1469(2)
H2 H 0.4765 0.0620 0.0799
H3 H 0.1439 0.0510 0.0805
loop_
_geom_bond_atom_site_label_1
_geom_bond_atom_site_label_2
_geom_bond_site_symmetry_1
_geom_bond_site_symmetry_2
Cu1 Cl1 1_555 1_555
Cl1 Cu1_2 1_555 1_555
N1 Cu1 1_555 1_555
C1 N1 1_555 1_555
C2 C1 1_555 1_555
C3 C2 1_555 1_555
C4 C3 1_555 1_555
C5 N1 1_555 1_555
C6 C5 1_555 1_555
N2 Cu1 1_555 1_555
C7 N2 1_555 1_555
O1 C7 1_555 1_555
C8 C7 1_555 1_555
C9 C8 1_555 1_555
O2 Cu1 1_555 1_555
O3 H2 1_555 1_555
H1 O2 1_555 1_555
H3 O3 1_555 1_555
H4 C1 1_555 1_555
H5 C2 1_555 1_555
H6 C3 1_555 1_555
H7 C4 1_555 1_555
H8 C6 1_555 1_555
H9 C6 1_555 1_555
H10 C8 1_555 1_555
H11 C9 1_555 1_555
H12 C9 1_555 1_555
H13 C9 1_555 1_555
Cl1_2 Cu1 1_555 1_555
C4 C5 1_555 1_555
C6 N2 1_555 1_555
C8 O2 1_555 1_555

#END
