
#######################################################################
#
#                 Cambridge Crystallographic Data Centre
#                                CCDC 
#
#######################################################################
#
# If this CIF has been generated from an entry in the Cambridge 
# Structural Database, then it will include bibliographic, chemical, 
# crystal, experimental, refinement or atomic coordinate data resulting 
# from the CCDC's data processing and validation procedures.
#
#######################################################################

data_IBIHEI
_symmetry_cell_setting           monoclinic
_symmetry_space_group_name_H-M   'C 2/c'
_symmetry_Int_Tables_number      15
_space_group_name_Hall           '-C 2yn'
loop_
_symmetry_equiv_pos_site_id
_symmetry_equiv_pos_as_xyz
1 x,y,z
2 -x,y,1/2-z
3 1/2+x,1/2+y,z
4 1/2-x,1/2+y,1/2-z
5 -x,-y,-z
6 x,-y,1/2+z
7 1/2-x,1/2-y,-z
8 1/2+x,1/2-y,1/2+z
_cell_length_a                   29.9641(16)
_cell_length_b                   18.4435(8)
_cell_length_c                   41.506(2)
_cell_angle_alpha                90
_cell_angle_beta                 108.3060(10)
_cell_angle_gamma                90
_cell_volume                     21777.2
loop_
_atom_site_label
_atom_site_type_symbol
_atom_site_fract_x
_atom_site_fract_y
_atom_site_fract_z
Ni2 Ni 0.54746(4) 0.30162(7) -0.05415(3)
N7 N 0.5186(2) 0.1991(4) -0.05237(18)
N8 N 0.5588(3) 0.2518(5) -0.0965(2)
N9 N 0.6122(3) 0.2720(4) -0.02023(18)
N10 N 0.5876(3) 0.3943(4) -0.0562(2)
N11 N 0.5247(3) 0.3455(4) -0.0150(2)
N12 N 0.4861(3) 0.3543(5) -0.0827(2)
C37 C 0.5014(3) 0.1721(5) -0.0287(2)
H25 H 0.4983 0.2029 -0.0118
C38 C 0.4878(4) 0.0982(5) -0.0285(3)
H26 H 0.4765 0.0807 -0.0115
C39 C 0.4916(3) 0.0537(6) -0.0537(3)
H27 H 0.4817 0.0058 -0.0545
C40 C 0.5103(3) 0.0799(6) -0.0785(3)
C41 C 0.5236(3) 0.1540(5) -0.0767(2)
C42 C 0.5794(4) 0.2792(7) -0.1181(3)
H28 H 0.5897 0.3270 -0.1157
C43 C 0.5859(4) 0.2364(8) -0.1449(3)
H29 H 0.5996 0.2568 -0.1600
C44 C 0.5722(4) 0.1671(8) -0.1484(3)
H30 H 0.5769 0.1391 -0.1657
C45 C 0.5509(3) 0.1366(6) -0.1262(3)
C46 C 0.5449(3) 0.1827(5) -0.1004(3)
C47 C 0.5174(4) 0.0359(6) -0.1049(3)
H31 H 0.5086 -0.0127 -0.1064
C48 C 0.5363(4) 0.0633(6) -0.1273(3)
H32 H 0.5401 0.0333 -0.1442
C49 C 0.6246(3) 0.2109(5) -0.0026(2)
H33 H 0.6018 0.1753 -0.0048
C50 C 0.6700(4) 0.1973(5) 0.0192(2)
H34 H 0.6770 0.1538 0.0310
C51 C 0.7036(3) 0.2491(6) 0.0228(2)
H35 H 0.7340 0.2412 0.0371
C52 C 0.6922(3) 0.3146(6) 0.0047(2)
C53 C 0.6457(3) 0.3235(5) -0.0166(2)
C54 C 0.5751(4) 0.4537(6) -0.0744(3)
H36 H 0.5445 0.4581 -0.0889
C55 C 0.6070(5) 0.5106(7) -0.0722(4)
H37 H 0.5973 0.5520 -0.0854
C56 C 0.6514(4) 0.5060(6) -0.0514(3)
H38 H 0.6720 0.5444 -0.0502
C57 C 0.6672(4) 0.4443(6) -0.0314(3)
C58 C 0.6332(3) 0.3897(5) -0.0354(2)
C59 C 0.7253(4) 0.3717(6) 0.0070(3)
H39 H 0.7563 0.3654 0.0205
C60 C 0.7127(4) 0.4337(7) -0.0097(3)
H40 H 0.7347 0.4707 -0.0069
C61 C 0.5432(4) 0.3378(6) 0.0187(2)
H41 H 0.5701 0.3098 0.0275
C62 C 0.5224(5) 0.3715(6) 0.0411(3)
H42 H 0.5357 0.3664 0.0645
C63 C 0.4826(5) 0.4117(7) 0.0280(4)
H43 H 0.4685 0.4329 0.0428
C64 C 0.4621(5) 0.4219(6) -0.0071(4)
C65 C 0.4849(4) 0.3867(5) -0.0276(3)
C66 C 0.4680(4) 0.3591(6) -0.1156(3)
H44 H 0.4805 0.3310 -0.1293
C67 C 0.4291(5) 0.4066(8) -0.1312(4)
H45 H 0.4187 0.4129 -0.1546
C68 C 0.4080(5) 0.4419(8) -0.1118(5)
H46 H 0.3812 0.4694 -0.1219
C69 C 0.4258(4) 0.4374(6) -0.0774(4)
C70 C 0.4649(4) 0.3928(6) -0.0636(3)
C71 C 0.4206(5) 0.4667(7) -0.0217(5)
H47 H 0.4062 0.4915 -0.0081
C72 C 0.4044(5) 0.4705(8) -0.0550(5)
H48 H 0.3770 0.4968 -0.0646
In1 In 0.51641(2) 0.23066(4) 0.112746(17)
In2 In 0.64786(2) 0.26323(4) 0.155330(16)
In3 In 0.59933(2) 0.10716(3) 0.083815(16)
In4 In 0.57958(2) 0.08816(4) 0.177984(16)
In5 In 0.78610(2) 0.28633(4) 0.196974(16)
In6 In 0.73913(2) 0.13156(3) 0.129959(16)
In7 In 0.72240(2) 0.11922(4) 0.223185(16)
In8 In 0.68743(2) -0.02130(3) 0.066972(16)
In9 In 0.67472(2) -0.04259(3) 0.154472(16)
In10 In 0.65670(2) -0.04747(4) 0.244080(16)
S1 S 0.44236(9) 0.30238(14) 0.09145(7)
S2 S 0.57486(9) 0.32789(14) 0.13351(7)
S3 S 0.52413(8) 0.16787(13) 0.06310(6)
S4 S 0.50581(9) 0.15207(14) 0.15699(7)
S5 S 0.70946(9) 0.34846(13) 0.18183(6)
S6 S 0.66329(8) 0.19921(12) 0.10698(6)
S7 S 0.64380(8) 0.17996(13) 0.20157(6)
S8 S 0.61220(8) 0.03747(13) 0.03843(6)
S9 S 0.59847(8) 0.02291(12) 0.13096(6)
S10 S 0.57614(8) -0.00094(14) 0.21922(6)
S11 S 0.80169(9) 0.21772(14) 0.15110(6)
S12 S 0.78566(9) 0.20619(14) 0.24410(6)
S13 S 0.75314(8) 0.06553(13) 0.08424(6)
S14 S 0.73897(8) 0.04860(12) 0.17726(6)
S15 S 0.71638(9) 0.04492(14) 0.26940(6)
S16 S 0.71073(10) -0.09383(14) 0.02462(6)
S17 S 0.69068(10) -0.11078(12) 0.11051(6)
S18 S 0.67600(8) -0.12258(12) 0.20106(6)
S19 S 0.64957(9) -0.12675(13) 0.28961(6)
In5C In 0.71390(2) -0.21367(4) 0.303026(16)
S19C S 0.85043(9) 0.37325(13) 0.21039(6)
Ni1 Ni 0.28386(4) 0.14409(6) 0.10404(3)
N1 N 0.2711(3) 0.0350(4) 0.0989(2)
N2 N 0.3317(3) 0.1152(4) 0.07869(19)
N3 N 0.3375(3) 0.1270(4) 0.14987(19)
N4 N 0.3092(3) 0.2494(4) 0.11539(19)
N5 N 0.2285(3) 0.1685(4) 0.12308(19)
N6 N 0.2305(3) 0.1703(4) 0.05901(18)
C1 C 0.2416(4) -0.0052(6) 0.1095(3)
H1 H 0.2200 0.0181 0.1178
C2 C 0.2418(4) -0.0814(7) 0.1087(3)
H2 H 0.2211 -0.1077 0.1169
C3 C 0.2722(4) -0.1161(6) 0.0960(3)
H3 H 0.2726 -0.1666 0.0959
C4 C 0.3029(3) -0.0782(5) 0.0832(2)
C5 C 0.3006(3) -0.0021(5) 0.0853(2)
C6 C 0.3622(3) 0.1558(6) 0.0694(2)
H4 H 0.3627 0.2055 0.0731
C7 C 0.3933(3) 0.1261(6) 0.0542(3)
H5 H 0.4141 0.1562 0.0480
C8 C 0.3938(3) 0.0539(5) 0.0485(3)
H6 H 0.4142 0.0348 0.0377
C9 C 0.3636(3) 0.0082(5) 0.0586(2)
C10 C 0.3324(3) 0.0424(4) 0.0738(2)
C11 C 0.3346(3) -0.1082(6) 0.0676(3)
H7 H 0.3355 -0.1583 0.0654
C12 C 0.3627(4) -0.0682(6) 0.0561(3)
H8 H 0.3826 -0.0909 0.0460
C13 C 0.3530(4) 0.0635(6) 0.1662(2)
H9 H 0.3362 0.0213 0.1581
C14 C 0.3927(4) 0.0592(6) 0.1942(3)
H10 H 0.4027 0.0147 0.2045
C15 C 0.4167(4) 0.1204(7) 0.2065(3)
H11 H 0.4428 0.1179 0.2259
C16 C 0.4033(4) 0.1873(6) 0.1906(3)
C17 C 0.3629(3) 0.1867(5) 0.1619(2)
C18 C 0.2938(3) 0.3108(6) 0.1002(3)
H12 H 0.2681 0.3087 0.0805
C19 C 0.3126(4) 0.3792(6) 0.1108(3)
H13 H 0.2992 0.4209 0.0991
C20 C 0.3513(4) 0.3827(6) 0.1389(3)
H14 H 0.3653 0.4272 0.1464
C21 C 0.3702(4) 0.3191(6) 0.1566(3)
C22 C 0.3471(3) 0.2539(5) 0.1439(2)
C23 C 0.4262(4) 0.2538(7) 0.2022(4)
H15 H 0.4527 0.2548 0.2213
C24 C 0.4101(4) 0.3141(8) 0.1860(3)
H16 H 0.4260 0.3568 0.1944
C25 C 0.2296(4) 0.1684(5) 0.1552(2)
H17 H 0.2557 0.1495 0.1717
C26 C 0.1920(4) 0.1964(6) 0.1647(3)
H18 H 0.1936 0.1973 0.1875
C27 C 0.1529(4) 0.2223(5) 0.1403(3)
H19 H 0.1277 0.2405 0.1464
C28 C 0.1508(3) 0.2213(5) 0.1060(2)
C29 C 0.1897(3) 0.1938(5) 0.0984(2)
C30 C 0.2321(4) 0.1673(5) 0.0270(2)
H20 H 0.2596 0.1523 0.0231
C31 C 0.1932(3) 0.1862(6) -0.0004(2)
H21 H 0.1951 0.1829 -0.0223
C32 C 0.1523(4) 0.2096(5) 0.0042(3)
H22 H 0.1264 0.2218 -0.0142
C33 C 0.1504(3) 0.2147(5) 0.0381(2)
C34 C 0.1905(3) 0.1931(5) 0.0641(2)
C35 C 0.1107(3) 0.2454(6) 0.0789(3)
H23 H 0.0845 0.2635 0.0837
C36 C 0.1105(4) 0.2419(6) 0.0462(3)
H24 H 0.0841 0.2574 0.0289
loop_
_geom_bond_atom_site_label_1
_geom_bond_atom_site_label_2
_geom_bond_site_symmetry_1
_geom_bond_site_symmetry_2
Ni1 N1 1_555 1_555
N1 C1 1_555 1_555
N2 Ni1 1_555 1_555
N3 Ni1 1_555 1_555
N4 Ni1 1_555 1_555
N5 Ni1 1_555 1_555
N6 Ni1 1_555 1_555
C1 H1 1_555 1_555
C2 C1 1_555 1_555
H2 C2 1_555 1_555
C3 C2 1_555 1_555
H3 C3 1_555 1_555
C4 C3 1_555 1_555
C5 N1 1_555 1_555
C6 N2 1_555 1_555
H4 C6 1_555 1_555
C7 C6 1_555 1_555
H5 C7 1_555 1_555
C8 C7 1_555 1_555
H6 C8 1_555 1_555
C9 C8 1_555 1_555
C10 N2 1_555 1_555
C11 C4 1_555 1_555
H7 C11 1_555 1_555
C12 C9 1_555 1_555
H8 C12 1_555 1_555
C13 N3 1_555 1_555
H9 C13 1_555 1_555
C14 C13 1_555 1_555
H10 C14 1_555 1_555
C15 C14 1_555 1_555
H11 C15 1_555 1_555
C16 C15 1_555 1_555
C17 N3 1_555 1_555
C18 N4 1_555 1_555
H12 C18 1_555 1_555
C19 C18 1_555 1_555
H13 C19 1_555 1_555
C20 C19 1_555 1_555
H14 C20 1_555 1_555
C21 C20 1_555 1_555
C22 N4 1_555 1_555
C23 C16 1_555 1_555
H15 C23 1_555 1_555
C24 C21 1_555 1_555
H16 C24 1_555 1_555
C25 N5 1_555 1_555
H17 C25 1_555 1_555
C26 C25 1_555 1_555
H18 C26 1_555 1_555
C27 C26 1_555 1_555
H19 C27 1_555 1_555
C28 C27 1_555 1_555
C29 N5 1_555 1_555
C30 N6 1_555 1_555
H20 C30 1_555 1_555
C31 C30 1_555 1_555
H21 C31 1_555 1_555
C32 C31 1_555 1_555
H22 C32 1_555 1_555
C33 C32 1_555 1_555
C34 N6 1_555 1_555
C35 C28 1_555 1_555
H23 C35 1_555 1_555
C36 C33 1_555 1_555
H24 C36 1_555 1_555
Ni2 N7 1_555 1_555
N7 C37 1_555 1_555
N8 Ni2 1_555 1_555
N9 Ni2 1_555 1_555
N10 Ni2 1_555 1_555
N11 Ni2 1_555 1_555
N12 Ni2 1_555 1_555
C37 H25 1_555 1_555
C38 C37 1_555 1_555
H26 C38 1_555 1_555
C39 C38 1_555 1_555
H27 C39 1_555 1_555
C40 C39 1_555 1_555
C41 N7 1_555 1_555
C42 N8 1_555 1_555
H28 C42 1_555 1_555
C43 C42 1_555 1_555
H29 C43 1_555 1_555
C44 C43 1_555 1_555
H30 C44 1_555 1_555
C45 C44 1_555 1_555
C46 N8 1_555 1_555
C47 C40 1_555 1_555
H31 C47 1_555 1_555
C48 C45 1_555 1_555
H32 C48 1_555 1_555
C49 N9 1_555 1_555
H33 C49 1_555 1_555
C50 C49 1_555 1_555
H34 C50 1_555 1_555
C51 C50 1_555 1_555
H35 C51 1_555 1_555
C52 C51 1_555 1_555
C53 N9 1_555 1_555
C54 N10 1_555 1_555
H36 C54 1_555 1_555
C55 C54 1_555 1_555
H37 C55 1_555 1_555
C56 C55 1_555 1_555
H38 C56 1_555 1_555
C57 C56 1_555 1_555
C58 N10 1_555 1_555
C59 C52 1_555 1_555
H39 C59 1_555 1_555
C60 C57 1_555 1_555
H40 C60 1_555 1_555
C61 N11 1_555 1_555
H41 C61 1_555 1_555
C62 C61 1_555 1_555
H42 C62 1_555 1_555
C63 C62 1_555 1_555
H43 C63 1_555 1_555
C64 C63 1_555 1_555
C65 N11 1_555 1_555
C66 N12 1_555 1_555
H44 C66 1_555 1_555
C67 C66 1_555 1_555
H45 C67 1_555 1_555
C68 C67 1_555 1_555
H46 C68 1_555 1_555
C69 C68 1_555 1_555
C70 N12 1_555 1_555
C71 C64 1_555 1_555
H47 C71 1_555 1_555
C72 C69 1_555 1_555
H48 C72 1_555 1_555
In1 S1 1_555 1_555
In2 S2 1_555 1_555
In3 S3 1_555 1_555
In4 S4 1_555 1_555
In5 S5 1_555 1_555
In6 S6 1_555 1_555
In7 S7 1_555 1_555
In8 S8 1_555 1_555
In9 S9 1_555 1_555
In10 S10 1_555 1_555
S2 In1 1_555 1_555
S3 In1 1_555 1_555
S4 In1 1_555 1_555
S5 In2 1_555 1_555
S6 In2 1_555 1_555
S7 In2 1_555 1_555
S8 In3 1_555 1_555
S9 In3 1_555 1_555
S10 In4 1_555 1_555
S11 In5 1_555 1_555
S12 In5 1_555 1_555
S13 In6 1_555 1_555
S14 In6 1_555 1_555
S15 In7 1_555 1_555
S16 In8 1_555 1_555
S17 In8 1_555 1_555
S18 In9 1_555 1_555
S19 In10 1_555 1_555
In5C S19 1_555 1_555
S19C In5 1_555 1_555
C4 C5 1_555 1_555
C5 C10 1_555 1_555
C9 C10 1_555 1_555
C11 C12 1_555 1_555
C16 C17 1_555 1_555
C17 C22 1_555 1_555
C21 C22 1_555 1_555
C23 C24 1_555 1_555
C28 C29 1_555 1_555
C29 C34 1_555 1_555
C33 C34 1_555 1_555
C35 C36 1_555 1_555
C40 C41 1_555 1_555
C41 C46 1_555 1_555
C45 C46 1_555 1_555
C47 C48 1_555 1_555
C52 C53 1_555 1_555
C53 C58 1_555 1_555
C57 C58 1_555 1_555
C59 C60 1_555 1_555
C64 C65 1_555 1_555
C65 C70 1_555 1_555
C69 C70 1_555 1_555
C71 C72 1_555 1_555
In3 S6 1_555 1_555
In4 S7 1_555 1_555
In4 S9 1_555 1_555
In6 S11 1_555 1_555
In7 S12 1_555 1_555
In7 S14 1_555 1_555
In8 S13 1_555 1_555
In9 S14 1_555 1_555
In9 S17 1_555 1_555
In10 S15 1_555 1_555
In10 S18 1_555 1_555

#END
