
#######################################################################
#
#                 Cambridge Crystallographic Data Centre
#                                CCDC 
#
#######################################################################
#
# If this CIF has been generated from an entry in the Cambridge 
# Structural Database, then it will include bibliographic, chemical, 
# crystal, experimental, refinement or atomic coordinate data resulting 
# from the CCDC's data processing and validation procedures.
#
#######################################################################

data_IBIMOW
_symmetry_cell_setting           monoclinic
_symmetry_space_group_name_H-M   'P 21/n'
_symmetry_Int_Tables_number      14
_space_group_name_Hall           '-P 2yn'
loop_
_symmetry_equiv_pos_site_id
_symmetry_equiv_pos_as_xyz
1 x,y,z
2 1/2-x,1/2+y,1/2-z
3 -x,-y,-z
4 1/2+x,1/2-y,1/2+z
_cell_length_a                   8.8280(4)
_cell_length_b                   9.2669(3)
_cell_length_c                   23.8138(9)
_cell_angle_alpha                90
_cell_angle_beta                 91.6407(13)
_cell_angle_gamma                90
_cell_volume                     1947.37
loop_
_atom_site_label
_atom_site_type_symbol
_atom_site_fract_x
_atom_site_fract_y
_atom_site_fract_z
Cd1 Cd 0.21985(2) 0.32416(2) 0.094147(8)
O1 O 0.2726(3) 0.1987(3) 0.18090(10)
O2 O 0.4213(3) 0.1689(3) 0.11021(11)
O3 O 0.2357(3) 0.5411(3) 0.03855(9)
O4 O 0.3747(3) 0.5209(2) 0.11416(9)
N1 N -0.2101(3) 0.3532(2) 0.17994(9)
N2 N -0.0176(3) 0.3523(3) 0.12377(9)
N3 N -0.3337(3) 0.2987(3) 0.51408(10)
N4 N -0.4414(3) 0.3636(3) 0.43376(10)
C1 C -0.2934(3) 0.3501(3) 0.23148(11)
C2 C -0.4280(3) 0.4233(3) 0.23362(12)
H1 H -0.4682 0.4713 0.2012
C3 C -0.5049(3) 0.4265(3) 0.28350(12)
H2 H -0.5971 0.4788 0.2854
C4 C -0.4496(3) 0.3556(3) 0.32981(12)
C5 C -0.3160(4) 0.2780(3) 0.32677(12)
H3 H -0.2777 0.2272 0.3588
C6 C -0.2381(3) 0.2744(3) 0.27710(12)
H4 H -0.1473 0.2201 0.2747
C7 C -0.0597(3) 0.3346(3) 0.17597(11)
H5 H 0.0072 0.3119 0.2067
C8 C -0.1480(3) 0.3844(3) 0.09343(12)
H6 H -0.1534 0.4031 0.0542
C9 C -0.2662(4) 0.3855(3) 0.12720(12)
H7 H -0.3688 0.4049 0.1167
C10 C -0.5395(4) 0.3592(5) 0.38335(13)
H8 H -0.6049 0.2725 0.3847
H9 H -0.6061 0.4452 0.3827
C11 C -0.4347(4) 0.2650(4) 0.47466(12)
H10 H -0.4956 0.1806 0.4752
C12 C -0.2716(4) 0.4264(4) 0.49725(13)
H11 H -0.1947 0.4781 0.5174
C13 C -0.3356(5) 0.4674(4) 0.44813(14)
H12 H -0.3125 0.5516 0.4273
C14 C 0.3879(4) 0.1442(4) 0.15965(17)
C15 C 0.4864(5) 0.0473(4) 0.19546(18)
H13 H 0.4464 -0.0513 0.1938
H14 H 0.4874 0.0816 0.2344
H15 H 0.5898 0.0483 0.1815
C16 C 0.3413(4) 0.5844(3) 0.06924(13)
C17 C 0.4299(5) 0.7163(4) 0.05376(17)
H16 H 0.3825 0.7617 0.0205
H17 H 0.5341 0.6886 0.0456
H18 H 0.4310 0.7848 0.0851
N3C N 0.1663(3) 0.2013(3) 0.01408(10)
Cd1C Cd -0.28015(2) 0.17584(2) 0.594147(8)
H19 H 0.3256 -0.3504 0.1815
H20 H 0.2578 -0.3112 0.2412
O5 O 0.3283(3) -0.2783(3) 0.20863(10)
loop_
_geom_bond_atom_site_label_1
_geom_bond_atom_site_label_2
_geom_bond_site_symmetry_1
_geom_bond_site_symmetry_2
Cd1 O1 1_555 1_555
O1 C14 1_555 1_555
O2 Cd1 1_555 1_555
O3 Cd1 1_555 1_555
O4 Cd1 1_555 1_555
N1 C1 1_555 1_555
N2 Cd1 1_555 1_555
N3 C11 1_555 1_555
N4 C10 1_555 1_555
C1 C2 1_555 1_555
C2 H1 1_555 1_555
C3 C2 1_555 1_555
H2 C3 1_555 1_555
C4 C3 1_555 1_555
C5 C4 1_555 1_555
H3 C5 1_555 1_555
C6 C1 1_555 1_555
H4 C6 1_555 1_555
C7 N1 1_555 1_555
H5 C7 1_555 1_555
C8 N2 1_555 1_555
H6 C8 1_555 1_555
C9 N1 1_555 1_555
H7 C9 1_555 1_555
C10 C4 1_555 1_555
H8 C10 1_555 1_555
H9 C10 1_555 1_555
C11 N4 1_555 1_555
H10 C11 1_555 1_555
C12 N3 1_555 1_555
H11 C12 1_555 1_555
C13 N4 1_555 1_555
H12 C13 1_555 1_555
C14 O2 1_555 1_555
C15 C14 1_555 1_555
H13 C15 1_555 1_555
H14 C15 1_555 1_555
H15 C15 1_555 1_555
C16 O3 1_555 1_555
C17 C16 1_555 1_555
H16 C17 1_555 1_555
H17 C17 1_555 1_555
H18 C17 1_555 1_555
H19 O5 1_555 1_555
H20 O5 1_555 1_555
N3C Cd1 1_555 1_555
Cd1C N3 1_555 1_555
O4 C16 1_555 1_555
N2 C7 1_555 1_555
C5 C6 1_555 1_555
C8 C9 1_555 1_555
C12 C13 1_555 1_555

#END
