
#######################################################################
#
#                 Cambridge Crystallographic Data Centre
#                                CCDC 
#
#######################################################################
#
# If this CIF has been generated from an entry in the Cambridge 
# Structural Database, then it will include bibliographic, chemical, 
# crystal, experimental, refinement or atomic coordinate data resulting 
# from the CCDC's data processing and validation procedures.
#
#######################################################################

data_IBIMAI
_symmetry_cell_setting           monoclinic
_symmetry_space_group_name_H-M   'C 2/c'
_symmetry_Int_Tables_number      15
_space_group_name_Hall           '-C 2yn'
loop_
_symmetry_equiv_pos_site_id
_symmetry_equiv_pos_as_xyz
1 x,y,z
2 1/2+x,1/2+y,z
3 -x,y,1/2-z
4 1/2-x,1/2+y,1/2-z
5 -x,-y,-z
6 1/2-x,1/2-y,-z
7 x,-y,1/2+z
8 1/2+x,1/2-y,1/2+z
_cell_length_a                   19.5212(13)
_cell_length_b                   13.7568(11)
_cell_length_c                   26.832(2)
_cell_angle_alpha                90
_cell_angle_beta                 111.705(3)
_cell_angle_gamma                90
_cell_volume                     6694.83
loop_
_atom_site_label
_atom_site_type_symbol
_atom_site_fract_x
_atom_site_fract_y
_atom_site_fract_z
Cd1 Cd 0.72681(2) 0.31328(3) 0.176212(15)
S1 S 0.68245(7) 0.56068(10) 0.14178(5)
O1 O 0.7491(3) 0.1434(3) 0.20159(17)
H1 H 0.768(3) 0.129(5) 0.2332(11)
H2 H 0.765(3) 0.096(3) 0.191(3)
O2 O 0.6973(2) 0.4614(3) 0.12674(16)
O3 O 0.7294(2) 0.5785(3) 0.19737(16)
O4 O 0.6047(2) 0.5686(3) 0.13490(19)
O5 O 0.6988(2) 0.6309(3) 0.10621(16)
N1 N 0.9376(2) 0.4316(3) 0.29225(16)
N2 N 0.8383(2) 0.3468(3) 0.24548(18)
N3 N 1.1384(2) 0.8067(3) 0.30597(16)
N4 N 1.1715(2) 0.8357(3) 0.23722(17)
N5 N 0.5200(2) 0.1694(3) 0.07145(17)
N6 N 0.6152(2) 0.2644(3) 0.11287(18)
N7 N 0.3327(3) -0.2118(3) 0.05630(18)
N8 N 0.2923(2) -0.2192(3) 0.12196(18)
C1 C 0.9867(3) 0.5128(4) 0.3090(2)
C2 C 0.9576(3) 0.6069(4) 0.3014(2)
H3 H 0.9058 0.6168 0.2874
C3 C 1.0054(3) 0.6855(4) 0.3144(2)
H4 H 0.9863 0.7497 0.3073
C4 C 1.0821(3) 0.6709(4) 0.3382(2)
C5 C 1.1087(3) 0.5778(4) 0.3468(2)
H5 H 1.1604 0.5675 0.3631
C6 C 1.0615(3) 0.4978(4) 0.3320(2)
H6 H 1.0808 0.4337 0.3377
C7 C 0.8679(3) 0.4344(4) 0.2558(2)
H7 H 0.8431 0.4923 0.2396
C8 C 0.8922(3) 0.2838(4) 0.2785(2)
H8 H 0.8873 0.2153 0.2806
C9 C 0.9526(3) 0.3364(4) 0.3071(2)
H9 H 0.9972 0.3118 0.3327
C10 C 1.1337(3) 0.7571(4) 0.3531(2)
H10 H 1.1164 0.8040 0.3739
H11 H 1.1835 0.7348 0.3764
C11 C 1.1793(3) 0.7766(4) 0.2780(2)
H12 H 1.2098 0.7204 0.2864
C12 C 1.1236(3) 0.9075(4) 0.2400(2)
H13 H 1.1074 0.9607 0.2159
C13 C 1.1031(3) 0.8906(4) 0.2822(2)
H14 H 1.0707 0.9290 0.2932
C14 C 0.4779(3) 0.0833(4) 0.0541(2)
C15 C 0.4025(3) 0.0914(4) 0.0265(2)
H15 H 0.3800 0.1536 0.0179
C16 C 0.3599(3) 0.0065(4) 0.0114(2)
H16 H 0.3081 0.0116 -0.0069
C17 C 0.3923(3) -0.0842(4) 0.0228(2)
C18 C 0.4685(3) -0.0904(4) 0.0493(2)
H17 H 0.4914 -0.1524 0.0566
C19 C 0.5109(3) -0.0078(4) 0.0652(2)
H18 H 0.5627 -0.0131 0.0838
C20 C 0.5936(3) 0.1751(4) 0.0982(2)
H19 H 0.6259 0.1208 0.1056
C21 C 0.5530(3) 0.3207(4) 0.0945(2)
H20 H 0.5515 0.3892 0.0986
C22 C 0.4932(3) 0.2625(4) 0.0691(2)
H21 H 0.4432 0.2824 0.0531
C23 C 0.3452(3) -0.1746(4) 0.0087(2)
H22 H 0.2973 -0.1595 -0.0201
H23 H 0.3700 -0.2251 -0.0049
C24 C 0.2857(3) -0.1752(4) 0.0772(2)
H24 H 0.2520 -0.1239 0.0616
C25 C 0.3482(3) -0.2850(4) 0.1312(2)
H25 H 0.3663 -0.3268 0.1615
C26 C 0.3738(3) -0.2817(4) 0.0910(2)
H26 H 0.4123 -0.3199 0.0874
N1A N 0.4376(2) -0.0684(3) 0.29225(16)
N2A N 0.3383(2) -0.1532(3) 0.24548(18)
N3A N 0.6384(2) 0.3067(3) 0.30597(16)
N4A N 0.6715(2) 0.3357(3) 0.23722(17)
C1A C 0.4867(3) 0.0128(4) 0.3090(2)
C2A C 0.4576(3) 0.1069(4) 0.3014(2)
H3A H 0.4058 0.1168 0.2874
C3A C 0.5054(3) 0.1855(4) 0.3144(2)
H4A H 0.4863 0.2497 0.3073
C4A C 0.5821(3) 0.1709(4) 0.3382(2)
C5A C 0.6087(3) 0.0778(4) 0.3468(2)
H5A H 0.6604 0.0675 0.3631
C6A C 0.5615(3) -0.0022(4) 0.3320(2)
H6A H 0.5808 -0.0663 0.3377
C7A C 0.3679(3) -0.0656(4) 0.2558(2)
H7A H 0.3431 -0.0077 0.2396
C8A C 0.3922(3) -0.2162(4) 0.2785(2)
H8A H 0.3873 -0.2847 0.2806
C9A C 0.4526(3) -0.1636(4) 0.3071(2)
H9A H 0.4972 -0.1882 0.3327
C10A C 0.6337(3) 0.2571(4) 0.3531(2)
H10A H 0.6164 0.3040 0.3739
H11A H 0.6835 0.2348 0.3764
C11A C 0.6793(3) 0.2766(4) 0.2780(2)
H12A H 0.7098 0.2204 0.2864
C12A C 0.6236(3) 0.4075(4) 0.2400(2)
H13A H 0.6074 0.4607 0.2159
C13A C 0.6031(3) 0.3906(4) 0.2822(2)
H14A H 0.5707 0.4290 0.2932
N5A N 1.0200(2) 0.6694(3) 0.07145(17)
N6A N 1.1152(2) 0.7644(3) 0.11287(18)
N7A N 0.8327(3) 0.2882(3) 0.05630(18)
N8A N 0.7923(2) 0.2808(3) 0.12196(18)
C14A C 0.9779(3) 0.5833(4) 0.0541(2)
C15A C 0.9025(3) 0.5914(4) 0.0265(2)
H15A H 0.8800 0.6536 0.0179
C16A C 0.8599(3) 0.5065(4) 0.0114(2)
H16A H 0.8081 0.5116 -0.0069
C17A C 0.8923(3) 0.4158(4) 0.0228(2)
C18A C 0.9685(3) 0.4096(4) 0.0493(2)
H17A H 0.9914 0.3476 0.0566
C19A C 1.0109(3) 0.4922(4) 0.0652(2)
H18A H 1.0627 0.4869 0.0838
C20A C 1.0936(3) 0.6751(4) 0.0982(2)
H19A H 1.1259 0.6208 0.1056
C21A C 1.0530(3) 0.8207(4) 0.0945(2)
H20A H 1.0515 0.8892 0.0986
C22A C 0.9932(3) 0.7625(4) 0.0691(2)
H21A H 0.9432 0.7824 0.0531
C23A C 0.8452(3) 0.3254(4) 0.0087(2)
H22A H 0.7973 0.3405 -0.0201
H23A H 0.8700 0.2749 -0.0049
C24A C 0.7857(3) 0.3248(4) 0.0772(2)
H24A H 0.7520 0.3761 0.0616
C25A C 0.8482(3) 0.2150(4) 0.1312(2)
H25A H 0.8663 0.1732 0.1615
C26A C 0.8738(3) 0.2183(4) 0.0910(2)
H26A H 0.9123 0.1801 0.0874
Cd1A Cd 0.22681(2) -0.18672(3) 0.176212(15)
O1A O 0.2491(3) -0.3566(3) 0.20159(17)
H1A H 0.268(3) -0.371(5) 0.2332(11)
H2A H 0.265(3) -0.404(3) 0.191(3)
S1A S 0.18245(7) 0.06068(10) 0.14178(5)
O2A O 0.1973(2) -0.0386(3) 0.12674(16)
O3A O 0.2294(2) 0.0785(3) 0.19737(16)
O4A O 0.1047(2) 0.0686(3) 0.13490(19)
O5A O 0.1988(2) 0.1309(3) 0.10621(16)
Cd1A_2 Cd 1.22681(2) 0.81328(3) 0.176212(15)
N4_2 N 0.1715(2) -0.1643(3) 0.23722(17)
N6A_2 N 0.1152(2) -0.2356(3) 0.11287(18)
O6 O 0.5093(3) 0.6477(5) 0.0427(2)
O7 O 0.3726(3) 0.5617(4) -0.01173(17)
O8 O 0.3064(2) 0.3161(3) -0.00099(17)
H27 H 0.2915 0.3042 -0.0397
H28 H 0.3157 0.2559 0.0094
O9 O 0.3420(2) 0.4745(3) 0.06961(18)
H29 H 0.3545 0.5175 0.0441
H30 H 0.3341 0.4212 0.0511
O10 O 0.4755(2) 0.5319(3) 0.15179(17)
O11 O 0.5000 0.6159(5) 0.2500
O12 O 0.7655(3) 0.5074(3) 0.37701(18)
H31 H 0.7789 0.4454 0.3736
H32 H 0.7292 0.4994 0.3894
O13 O 0.8396(3) 0.3257(3) 0.3834(2)
loop_
_geom_bond_atom_site_label_1
_geom_bond_atom_site_label_2
_geom_bond_site_symmetry_1
_geom_bond_site_symmetry_2
Cd1 O1 1_555 1_555
S1 O2 1_555 1_555
O1 H1 1_555 1_555
H2 O1 1_555 1_555
O2 Cd1 1_555 1_555
O3 S1 1_555 1_555
O4 S1 1_555 1_555
O5 S1 1_555 1_555
N1 C1 1_555 1_555
N2 Cd1 1_555 1_555
N3 C10 1_555 1_555
N4 C11 1_555 1_555
N5 C14 1_555 1_555
N6 Cd1 1_555 1_555
N7 C23 1_555 1_555
N8 C24 1_555 1_555
C1 C2 1_555 1_555
C2 H3 1_555 1_555
C3 C2 1_555 1_555
H4 C3 1_555 1_555
C4 C3 1_555 1_555
C5 C4 1_555 1_555
H5 C5 1_555 1_555
C6 C1 1_555 1_555
H6 C6 1_555 1_555
C7 N1 1_555 1_555
H7 C7 1_555 1_555
C8 N2 1_555 1_555
H8 C8 1_555 1_555
C9 N1 1_555 1_555
H9 C9 1_555 1_555
C10 C4 1_555 1_555
H10 C10 1_555 1_555
H11 C10 1_555 1_555
C11 N3 1_555 1_555
H12 C11 1_555 1_555
C12 N4 1_555 1_555
H13 C12 1_555 1_555
C13 N3 1_555 1_555
H14 C13 1_555 1_555
C14 C15 1_555 1_555
C15 H15 1_555 1_555
C16 C15 1_555 1_555
H16 C16 1_555 1_555
C17 C16 1_555 1_555
C18 C17 1_555 1_555
H17 C18 1_555 1_555
C19 C14 1_555 1_555
H18 C19 1_555 1_555
C20 N5 1_555 1_555
H19 C20 1_555 1_555
C21 N6 1_555 1_555
H20 C21 1_555 1_555
C22 N5 1_555 1_555
H21 C22 1_555 1_555
C23 C17 1_555 1_555
H22 C23 1_555 1_555
H23 C23 1_555 1_555
C24 N7 1_555 1_555
H24 C24 1_555 1_555
C25 N8 1_555 1_555
H25 C25 1_555 1_555
C26 N7 1_555 1_555
H26 C26 1_555 1_555
O8 H27 1_555 1_555
H28 O8 1_555 1_555
O9 H29 1_555 1_555
H30 O9 1_555 1_555
O12 H31 1_555 1_555
H32 O12 1_555 1_555
N1A C1A 1_555 1_555
N2A C7A 1_555 1_555
N3A C10A 1_555 1_555
N4A Cd1 1_555 1_555
C1A C2A 1_555 1_555
C2A H3A 1_555 1_555
C3A C2A 1_555 1_555
H4A C3A 1_555 1_555
C4A C3A 1_555 1_555
C5A C4A 1_555 1_555
H5A C5A 1_555 1_555
C6A C1A 1_555 1_555
H6A C6A 1_555 1_555
C7A N1A 1_555 1_555
H7A C7A 1_555 1_555
C8A N2A 1_555 1_555
H8A C8A 1_555 1_555
C9A N1A 1_555 1_555
H9A C9A 1_555 1_555
C10A C4A 1_555 1_555
H10A C10A 1_555 1_555
H11A C10A 1_555 1_555
C11A N3A 1_555 1_555
H12A C11A 1_555 1_555
C12A N4A 1_555 1_555
H13A C12A 1_555 1_555
C13A N3A 1_555 1_555
H14A C13A 1_555 1_555
N5A C14A 1_555 1_555
N6A C20A 1_555 1_555
N7A C23A 1_555 1_555
N8A Cd1 1_555 1_555
C14A C15A 1_555 1_555
C15A H15A 1_555 1_555
C16A C15A 1_555 1_555
H16A C16A 1_555 1_555
C17A C16A 1_555 1_555
C18A C17A 1_555 1_555
H17A C18A 1_555 1_555
C19A C14A 1_555 1_555
H18A C19A 1_555 1_555
C20A N5A 1_555 1_555
H19A C20A 1_555 1_555
C21A N6A 1_555 1_555
H20A C21A 1_555 1_555
C22A N5A 1_555 1_555
H21A C22A 1_555 1_555
C23A C17A 1_555 1_555
H22A C23A 1_555 1_555
H23A C23A 1_555 1_555
C24A N7A 1_555 1_555
H24A C24A 1_555 1_555
C25A N8A 1_555 1_555
H25A C25A 1_555 1_555
C26A N7A 1_555 1_555
H26A C26A 1_555 1_555
Cd1A N8 1_555 1_555
O1A Cd1A 1_555 1_555
H1A O1A 1_555 1_555
H2A O1A 1_555 1_555
S1A O2A 1_555 1_555
O2A Cd1A 1_555 1_555
O3A S1A 1_555 1_555
O4A S1A 1_555 1_555
O5A S1A 1_555 1_555
Cd1A_2 N4 1_555 1_555
N4_2 Cd1A 1_555 1_555
N6A_2 Cd1A 1_555 1_555
N2 C7 1_555 1_555
N6 C20 1_555 1_555
C5 C6 1_555 1_555
C8 C9 1_555 1_555
C12 C13 1_555 1_555
C18 C19 1_555 1_555
C21 C22 1_555 1_555
C25 C26 1_555 1_555
N2A Cd1A 1_555 1_555
N4A C11A 1_555 1_555
C5A C6A 1_555 1_555
C8A C9A 1_555 1_555
C12A C13A 1_555 1_555
N6A Cd1A_2 1_555 1_555
N8A C24A 1_555 1_555
C18A C19A 1_555 1_555
C21A C22A 1_555 1_555
C25A C26A 1_555 1_555

#END
