
#######################################################################
#
#                 Cambridge Crystallographic Data Centre
#                                CCDC 
#
#######################################################################
#
# If this CIF has been generated from an entry in the Cambridge 
# Structural Database, then it will include bibliographic, chemical, 
# crystal, experimental, refinement or atomic coordinate data resulting 
# from the CCDC's data processing and validation procedures.
#
#######################################################################

data_IBIMUC
_symmetry_cell_setting           monoclinic
_symmetry_space_group_name_H-M   'C 2/c'
_symmetry_Int_Tables_number      15
_space_group_name_Hall           '-C 2yn'
loop_
_symmetry_equiv_pos_site_id
_symmetry_equiv_pos_as_xyz
1 x,y,z
2 1/2+x,1/2+y,z
3 -x,y,1/2-z
4 1/2-x,1/2+y,1/2-z
5 -x,-y,-z
6 1/2-x,1/2-y,-z
7 x,-y,1/2+z
8 1/2+x,1/2-y,1/2+z
_cell_length_a                   19.26(2)
_cell_length_b                   14.45(2)
_cell_length_c                   26.80(6)
_cell_angle_alpha                90
_cell_angle_beta                 111.39(11)
_cell_angle_gamma                90
_cell_volume                     6944.87
loop_
_atom_site_label
_atom_site_type_symbol
_atom_site_fract_x
_atom_site_fract_y
_atom_site_fract_z
Mn1 Mn 0.23143(2) 0.27180(4) 0.682021(18)
S1 S 0.18275(4) 0.50722(6) 0.64798(4)
O1 O 0.25666(15) 0.1225(2) 0.70426(11)
H1 H 0.256(2) 0.083(3) 0.6808(17)
H2 H 0.265(2) 0.095(3) 0.7340(18)
O2 O 0.20706(14) 0.41067(18) 0.65383(11)
O3 O 0.10164(14) 0.5107(2) 0.63280(13)
O4 O 0.20253(13) 0.5489(2) 0.60517(11)
O5 O 0.2212(2) 0.5534(3) 0.69866(13)
N1 N 0.02609(14) 0.1417(2) 0.57218(10)
N2 N 0.12431(14) 0.2277(2) 0.61681(11)
N3 N -0.16734(15) -0.2209(2) 0.55883(11)
N4 N -0.20331(14) -0.2424(2) 0.62735(11)
N5 N 0.43711(13) 0.3965(2) 0.79161(10)
N6 N 0.33921(15) 0.3098(2) 0.74823(11)
N7 N 0.63548(15) 0.7616(2) 0.80807(11)
N8 N 0.67294(14) 0.7858(2) 0.74074(11)
C1 C -0.02011(17) 0.0614(2) 0.55532(12)
C2 C 0.01181(18) -0.0261(3) 0.56554(12)
H3 H 0.0642 -0.0331 0.5827
C3 C -0.03397(19) -0.1028(3) 0.55035(13)
H4 H -0.0125 -0.1628 0.5573
C4 C -0.11059(19) -0.0941(3) 0.52518(13)
C5 C -0.14154(19) -0.0075(3) 0.51486(14)
H5 H -0.1940 -0.0010 0.4976
C6 C -0.09642(18) 0.0717(3) 0.52957(13)
H6 H -0.1180 0.1316 0.5220
C7 C 0.09926(17) 0.1431(3) 0.60421(13)
H7 H 0.1289 0.0891 0.6161
C8 C 0.06425(19) 0.2842(3) 0.59132(15)
H8 H 0.0651 0.3499 0.5927
C9 C 0.00324(19) 0.2319(3) 0.56386(15)
H9 H -0.0453 0.2537 0.5431
C10 C -0.1614(2) -0.1783(3) 0.51087(14)
H10 H -0.2116 -0.1595 0.4862
H11 H -0.1415 -0.2242 0.4921
C11 C -0.21250(17) -0.1923(3) 0.58446(13)
H12 H -0.2466 -0.1422 0.5729
C12 C -0.14942(18) -0.3056(3) 0.62914(15)
H13 H -0.1309 -0.3517 0.6560
C13 C -0.12612(19) -0.2941(3) 0.58781(15)
H14 H -0.0892 -0.3288 0.5803
C14 C 0.48458(16) 0.4771(2) 0.80770(12)
C15 C 0.45294(16) 0.5640(3) 0.79948(12)
H15 H 0.4003 0.5706 0.7841
C16 C 0.49817(18) 0.6419(3) 0.81378(12)
H16 H 0.4765 0.7019 0.8073
C17 C 0.57598(18) 0.6320(3) 0.83777(12)
C18 C 0.60656(17) 0.5442(3) 0.84622(13)
H17 H 0.6591 0.5371 0.8625
C19 C 0.56136(16) 0.4659(3) 0.83120(12)
H18 H 0.5828 0.4058 0.8370
C20 C 0.36605(16) 0.3946(3) 0.75594(12)
H19 H 0.3389 0.4478 0.7386
C21 C 0.3962(2) 0.2549(3) 0.78133(16)
H20 H 0.3936 0.1896 0.7847
C22 C 0.4562(2) 0.3079(3) 0.80818(16)
H21 H 0.5024 0.2873 0.8336
C23 C 0.6263(2) 0.7160(3) 0.85416(14)
H22 H 0.6049 0.7606 0.8727
H23 H 0.6758 0.6967 0.8798
C24 C 0.67844(17) 0.7312(3) 0.78149(14)
H24 H 0.7088 0.6774 0.7909
C25 C 0.6230(2) 0.8545(3) 0.74115(15)
H25 H 0.6072 0.9040 0.7162
C26 C 0.6004(2) 0.8398(3) 0.78254(16)
H26 H 0.5665 0.8769 0.7921
N1A N 0.52609(14) 0.6417(2) 0.57218(10)
N2A N 0.62431(14) 0.7277(2) 0.61681(11)
N3A N 0.33266(15) 0.2791(2) 0.55883(11)
N4A N 0.29669(14) 0.2576(2) 0.62735(11)
C1A C 0.47989(17) 0.5614(2) 0.55532(12)
C2A C 0.51181(18) 0.4739(3) 0.56554(12)
H3A H 0.5642 0.4669 0.5827
C3A C 0.46603(19) 0.3972(3) 0.55035(13)
H4A H 0.4875 0.3372 0.5573
C4A C 0.38941(19) 0.4059(3) 0.52518(13)
C5A C 0.35846(19) 0.4925(3) 0.51486(14)
H5A H 0.3060 0.4990 0.4976
C6A C 0.40358(18) 0.5717(3) 0.52957(13)
H6A H 0.3820 0.6316 0.5220
C7A C 0.59926(17) 0.6431(3) 0.60421(13)
H7A H 0.6289 0.5891 0.6161
C8A C 0.56425(19) 0.7842(3) 0.59132(15)
H8A H 0.5651 0.8499 0.5927
C9A C 0.50324(19) 0.7319(3) 0.56386(15)
H9A H 0.4547 0.7537 0.5431
C10A C 0.3386(2) 0.3217(3) 0.51087(14)
H10A H 0.2884 0.3405 0.4862
H11A H 0.3585 0.2758 0.4921
C11A C 0.28750(17) 0.3077(3) 0.58446(13)
H12A H 0.2534 0.3578 0.5729
C12A C 0.35058(18) 0.1944(3) 0.62914(15)
H13A H 0.3691 0.1483 0.6560
C13A C 0.37388(19) 0.2059(3) 0.58781(15)
H14A H 0.4108 0.1712 0.5803
N5A N -0.06289(13) -0.1035(2) 0.79161(10)
N6A N -0.16079(15) -0.1902(2) 0.74823(11)
N7A N 0.13548(15) 0.2616(2) 0.80807(11)
N8A N 0.17294(14) 0.2858(2) 0.74074(11)
C14A C -0.01542(16) -0.0229(2) 0.80770(12)
C15A C -0.04706(16) 0.0640(3) 0.79948(12)
H15A H -0.0997 0.0706 0.7841
C16A C -0.00183(18) 0.1419(3) 0.81378(12)
H16A H -0.0235 0.2019 0.8073
C17A C 0.07598(18) 0.1320(3) 0.83777(12)
C18A C 0.10656(17) 0.0442(3) 0.84622(13)
H17A H 0.1591 0.0371 0.8625
C19A C 0.06136(16) -0.0341(3) 0.83120(12)
H18A H 0.0828 -0.0942 0.8370
C20A C -0.13395(16) -0.1054(3) 0.75594(12)
H19A H -0.1611 -0.0522 0.7386
C21A C -0.1038(2) -0.2451(3) 0.78133(16)
H20A H -0.1064 -0.3104 0.7847
C22A C -0.0438(2) -0.1921(3) 0.80818(16)
H21A H 0.0024 -0.2127 0.8336
C23A C 0.1263(2) 0.2160(3) 0.85416(14)
H22A H 0.1049 0.2606 0.8727
H23A H 0.1758 0.1967 0.8798
C24A C 0.17844(17) 0.2312(3) 0.78149(14)
H24A H 0.2088 0.1774 0.7909
C25A C 0.1230(2) 0.3545(3) 0.74115(15)
H25A H 0.1072 0.4040 0.7162
C26A C 0.1004(2) 0.3398(3) 0.78254(16)
H26A H 0.0665 0.3769 0.7921
Mn1A Mn 0.73143(2) 0.77180(4) 0.682021(18)
O1A O 0.75666(15) 0.6225(2) 0.70426(11)
H1A H 0.756(2) 0.583(3) 0.6808(17)
H2A H 0.765(2) 0.595(3) 0.7340(18)
S1A S 0.68275(4) 1.00722(6) 0.64798(4)
O2A O 0.70706(14) 0.91067(18) 0.65383(11)
O3A O 0.60164(14) 1.0107(2) 0.63280(13)
O4A O 0.70253(13) 1.0489(2) 0.60517(11)
O5A O 0.7212(2) 1.0534(3) 0.69866(13)
Mn1A_2 Mn -0.26857(2) -0.22820(4) 0.682021(18)
N4_2 N 0.79669(14) 0.7576(2) 0.62735(11)
N6A_2 N 0.83921(15) 0.8098(2) 0.74823(11)
O6 O 0.0000 0.4144(4) 0.2500
O7 O 0.2466(3) 0.0138(4) 0.13211(19)
H27 H 0.2957 0.0452 0.1446
H28 H 0.2244 0.0610 0.1380
O8 O 0.34159(18) 0.0461(3) 0.07399(16)
H29 H 0.3834 0.0369 0.0917
H30 H 0.3264 0.1104 0.0493
O9 O 0.1499(2) 0.5515(3) 0.00947(13)
O10 O 0.0069(2) 0.4133(4) 0.03841(17)
O11 O 0.47635(16) 0.0032(3) 0.15637(14)
O12 O 0.1672(2) 0.1599(4) 0.12732(18)
O13 O 0.1973(4) 0.2879(4) -0.0177(2)
O14 O 0.1331(3) 0.2981(4) 0.0581(2)
O15? O 0.1714(6) 0.3215(9) 0.0191(5)
loop_
_geom_bond_atom_site_label_1
_geom_bond_atom_site_label_2
_geom_bond_site_symmetry_1
_geom_bond_site_symmetry_2
Mn1 O1 1_555 1_555
S1 O2 1_555 1_555
O1 H1 1_555 1_555
H2 O1 1_555 1_555
O2 Mn1 1_555 1_555
O3 S1 1_555 1_555
O4 S1 1_555 1_555
O5 S1 1_555 1_555
N1 C1 1_555 1_555
N2 Mn1 1_555 1_555
N3 C10 1_555 1_555
N4 C11 1_555 1_555
N5 C14 1_555 1_555
N6 Mn1 1_555 1_555
N7 C23 1_555 1_555
N8 C24 1_555 1_555
C1 C2 1_555 1_555
C2 H3 1_555 1_555
C3 C2 1_555 1_555
H4 C3 1_555 1_555
C4 C3 1_555 1_555
C5 C4 1_555 1_555
H5 C5 1_555 1_555
C6 C1 1_555 1_555
H6 C6 1_555 1_555
C7 N1 1_555 1_555
H7 C7 1_555 1_555
C8 N2 1_555 1_555
H8 C8 1_555 1_555
C9 N1 1_555 1_555
H9 C9 1_555 1_555
C10 C4 1_555 1_555
H10 C10 1_555 1_555
H11 C10 1_555 1_555
C11 N3 1_555 1_555
H12 C11 1_555 1_555
C12 N4 1_555 1_555
H13 C12 1_555 1_555
C13 N3 1_555 1_555
H14 C13 1_555 1_555
C14 C15 1_555 1_555
C15 H15 1_555 1_555
C16 C15 1_555 1_555
H16 C16 1_555 1_555
C17 C16 1_555 1_555
C18 C17 1_555 1_555
H17 C18 1_555 1_555
C19 C14 1_555 1_555
H18 C19 1_555 1_555
C20 N5 1_555 1_555
H19 C20 1_555 1_555
C21 N6 1_555 1_555
H20 C21 1_555 1_555
C22 N5 1_555 1_555
H21 C22 1_555 1_555
C23 C17 1_555 1_555
H22 C23 1_555 1_555
H23 C23 1_555 1_555
C24 N7 1_555 1_555
H24 C24 1_555 1_555
C25 N8 1_555 1_555
H25 C25 1_555 1_555
C26 N7 1_555 1_555
H26 C26 1_555 1_555
O7 H27 1_555 1_555
H28 O7 1_555 1_555
O8 H29 1_555 1_555
H30 O8 1_555 1_555
N1A C1A 1_555 1_555
N2A C7A 1_555 1_555
N3A C10A 1_555 1_555
N4A Mn1 1_555 1_555
C1A C2A 1_555 1_555
C2A H3A 1_555 1_555
C3A C2A 1_555 1_555
H4A C3A 1_555 1_555
C4A C3A 1_555 1_555
C5A C4A 1_555 1_555
H5A C5A 1_555 1_555
C6A C1A 1_555 1_555
H6A C6A 1_555 1_555
C7A N1A 1_555 1_555
H7A C7A 1_555 1_555
C8A N2A 1_555 1_555
H8A C8A 1_555 1_555
C9A N1A 1_555 1_555
H9A C9A 1_555 1_555
C10A C4A 1_555 1_555
H10A C10A 1_555 1_555
H11A C10A 1_555 1_555
C11A N3A 1_555 1_555
H12A C11A 1_555 1_555
C12A N4A 1_555 1_555
H13A C12A 1_555 1_555
C13A N3A 1_555 1_555
H14A C13A 1_555 1_555
N5A C14A 1_555 1_555
N6A C20A 1_555 1_555
N7A C23A 1_555 1_555
N8A Mn1 1_555 1_555
C14A C15A 1_555 1_555
C15A H15A 1_555 1_555
C16A C15A 1_555 1_555
H16A C16A 1_555 1_555
C17A C16A 1_555 1_555
C18A C17A 1_555 1_555
H17A C18A 1_555 1_555
C19A C14A 1_555 1_555
H18A C19A 1_555 1_555
C20A N5A 1_555 1_555
H19A C20A 1_555 1_555
C21A N6A 1_555 1_555
H20A C21A 1_555 1_555
C22A N5A 1_555 1_555
H21A C22A 1_555 1_555
C23A C17A 1_555 1_555
H22A C23A 1_555 1_555
H23A C23A 1_555 1_555
C24A N7A 1_555 1_555
H24A C24A 1_555 1_555
C25A N8A 1_555 1_555
H25A C25A 1_555 1_555
C26A N7A 1_555 1_555
H26A C26A 1_555 1_555
Mn1A N8 1_555 1_555
O1A Mn1A 1_555 1_555
H1A O1A 1_555 1_555
H2A O1A 1_555 1_555
S1A O2A 1_555 1_555
O2A Mn1A 1_555 1_555
O3A S1A 1_555 1_555
O4A S1A 1_555 1_555
O5A S1A 1_555 1_555
Mn1A_2 N4 1_555 1_555
N4_2 Mn1A 1_555 1_555
N6A_2 Mn1A 1_555 1_555
N2 C7 1_555 1_555
N6 C20 1_555 1_555
C5 C6 1_555 1_555
C8 C9 1_555 1_555
C12 C13 1_555 1_555
C18 C19 1_555 1_555
C21 C22 1_555 1_555
C25 C26 1_555 1_555
N2A Mn1A 1_555 1_555
N4A C11A 1_555 1_555
C5A C6A 1_555 1_555
C8A C9A 1_555 1_555
C12A C13A 1_555 1_555
N6A Mn1A_2 1_555 1_555
N8A C24A 1_555 1_555
C18A C19A 1_555 1_555
C21A C22A 1_555 1_555
C25A C26A 1_555 1_555

#END
