
#######################################################################
#
#                 Cambridge Crystallographic Data Centre
#                                CCDC 
#
#######################################################################
#
# If this CIF has been generated from an entry in the Cambridge 
# Structural Database, then it will include bibliographic, chemical, 
# crystal, experimental, refinement or atomic coordinate data resulting 
# from the CCDC's data processing and validation procedures.
#
#######################################################################

data_IBIMAJ
_symmetry_cell_setting           monoclinic
_symmetry_space_group_name_H-M   'P 21/c'
_symmetry_Int_Tables_number      14
_space_group_name_Hall           '-P 2ybc'
loop_
_symmetry_equiv_pos_site_id
_symmetry_equiv_pos_as_xyz
1 x,y,z
2 -x,1/2+y,1/2-z
3 -x,-y,-z
4 x,1/2-y,1/2+z
_cell_length_a                   11.2639(2)
_cell_length_b                   20.9739(3)
_cell_length_c                   20.1237(3)
_cell_angle_alpha                90
_cell_angle_beta                 103.742(2)
_cell_angle_gamma                90
_cell_volume                     4618.09
loop_
_atom_site_label
_atom_site_type_symbol
_atom_site_fract_x
_atom_site_fract_y
_atom_site_fract_z
Mo1 Mo 0.04115(4) 0.732891(18) 0.52350(2)
Nd1 Nd 0.27108(3) 0.836472(14) 0.314625(14)
O1 O 0.2440(5) 0.9334(2) 0.2461(2)
O2 O 0.4265(4) 0.8169(3) 0.2512(2)
O3 O 0.4408(4) 0.7808(2) 0.3924(2)
O4 O 0.2310(5) 0.7209(2) 0.2992(2)
O5 O 0.0504(4) 0.8446(2) 0.2871(2)
N1 N 0.2196(4) 0.9338(2) 0.3891(2)
N2 N 0.4488(4) 0.9187(2) 0.3683(2)
N3 N 0.1987(5) 0.7941(2) 0.4197(2)
N4 N 0.1708(7) 0.8656(3) 0.5954(3)
N5 N -0.1559(6) 0.7790(3) 0.6123(3)
N6 N 0.1704(5) 0.6936(3) 0.6841(2)
N7 N -0.1081(9) 0.6035(3) 0.5494(4)
N8 N 0.2557(8) 0.6260(4) 0.5191(4)
N9 N -0.0626(6) 0.6658(3) 0.3722(3)
N10 N -0.1367(5) 0.8397(3) 0.4271(3)
N11 N 0.2167(9) 1.0003(3) 0.1597(4)
N12 N 0.4647(6) 0.7597(4) 0.1619(3)
N13 N 0.5424(4) 0.6915(3) 0.4331(3)
N14 N 0.1486(9) 0.6259(3) 0.2626(5)
C1 C 0.1100(6) 0.9410(3) 0.4021(3)
H1 H 0.0547 0.9061 0.3932
C2 C 0.0719(7) 0.9971(3) 0.4281(3)
H2 H -0.0084 1.0003 0.4351
C3 C 0.1509(7) 1.0474(3) 0.4433(3)
H3 H 0.1260 1.0860 0.4606
C4 C 0.2696(7) 1.0412(3) 0.4330(3)
C5 C 0.3003(6) 0.9833(3) 0.4052(2)
C6 C 0.4209(5) 0.9748(2) 0.3942(3)
C7 C 0.5086(6) 1.0241(3) 0.4131(3)
C8 C 0.4738(7) 1.0820(3) 0.4427(4)
H4 H 0.5328 1.1147 0.4565
C9 C 0.3612(8) 1.0906(3) 0.4511(4)
H5 H 0.3406 1.1298 0.4692
C10 C 0.6270(6) 1.0133(3) 0.4034(3)
H6 H 0.6875 1.0458 0.4143
C11 C 0.6542(6) 0.9563(3) 0.3784(3)
H7 H 0.7340 0.9481 0.3723
C12 C 0.5622(6) 0.9094(3) 0.3616(3)
H8 H 0.5820 0.8695 0.3448
C13 C 0.1474(5) 0.7726(2) 0.4573(3)
C14 C 0.1264(6) 0.8190(3) 0.5706(3)
C15 C -0.0887(5) 0.7631(3) 0.5814(3)
C16 C 0.1262(5) 0.7076(3) 0.6284(3)
C17 C -0.0561(7) 0.6479(3) 0.5401(3)
C18 C 0.1808(6) 0.6627(3) 0.5215(3)
C19 C -0.0275(6) 0.6886(3) 0.4247(3)
C20 C -0.0772(5) 0.8026(2) 0.4616(3)
C21 C 0.1975(11) 0.9493(3) 0.1891(4)
H9 H 0.1397 0.9206 0.1628
C22 C 0.3021(16) 1.0468(8) 0.2012(9)
H10 H 0.2675 1.0629 0.2382
H11 H 0.3150 1.0824 0.1721
H12 H 0.3804 1.0259 0.2207
C23 C 0.1779(13) 1.0185(5) 0.0907(5)
H13 H 0.0960 1.0014 0.0715
H14 H 0.2349 1.0017 0.0651
H15 H 0.1758 1.0651 0.0875
C24 C 0.4409(7) 0.8054(5) 0.1954(4)
H16 H 0.4311 0.8430 0.1685
C25 C 0.4665(13) 0.6967(6) 0.1978(7)
H17 H 0.4375 0.7026 0.2396
H18 H 0.5502 0.6801 0.2096
H19 H 0.4131 0.6665 0.1675
C26 C 0.4786(8) 0.7532(5) 0.0945(3)
H20 H 0.4908 0.7953 0.0761
H21 H 0.4051 0.7335 0.0660
H22 H 0.5497 0.7262 0.0946
C27 C 0.4447(5) 0.7265(3) 0.4165(3)
H23 H 0.3707 0.7091 0.4236
C28 C 0.6584(7) 0.7153(6) 0.4242(6)
H24 H 0.6445 0.7533 0.3951
H25 H 0.6981 0.6823 0.4025
H26 H 0.7110 0.7262 0.4689
C29 C 0.5405(7) 0.6277(4) 0.4604(5)
H27 H 0.4607 0.6196 0.4702
H28 H 0.6047 0.6238 0.5027
H29 H 0.5550 0.5966 0.4268
C30 C 0.1462(8) 0.6869(3) 0.2676(4)
H30 H 0.0730 0.7079 0.2451
C31 C 0.2645(15) 0.5930(10) 0.2776(12)
H31 H 0.3304 0.6236 0.2780
H32 H 0.2642 0.5606 0.2424
H33 H 0.2775 0.5724 0.3224
C32 C 0.0467(11) 0.5890(6) 0.2244(6)
H34 H 0.0319 0.5527 0.2521
H35 H 0.0656 0.5732 0.1822
H36 H -0.0264 0.6159 0.2129
C33 C -0.0364(6) 0.8130(3) 0.2866(4)
H37 H -0.0223 0.7764 0.3151
N15 N -0.1480(7) 0.8213(5) 0.2525(4)
C34 C -0.2389(12) 0.7744(7) 0.2589(8)
H38 H -0.2004 0.7409 0.2907
H39 H -0.2741 0.7555 0.2140
H40 H -0.3036 0.7950 0.2762
C35 C -0.1758(16) 0.8779(6) 0.2101(9)
H41 H -0.1143 0.9108 0.2272
H42 H -0.2568 0.8939 0.2117
H43 H -0.1750 0.8672 0.1628
Nd1C Nd 0.27108(3) 0.663528(14) 0.814625(14)
N6C N 0.1704(5) 0.8064(3) 0.1841(2)
O6 O 0.2885(13) 0.5004(7) 0.4363(7)
O7 O 0.4993(13) 0.5449(7) 0.6087(7)
C36? C -0.0399(17) 0.8627(14) 0.2499(15)
C37? C -0.240(4) 0.867(2) 0.1843(17)
C38? C -0.237(2) 0.7989(13) 0.2572(16)
H44? H -0.0288 0.8953 0.2193
H45? H -0.3111 0.8845 0.1984
H46? H -0.2667 0.8305 0.1535
H47? H -0.2046 0.8996 0.1604
H48? H -0.1952 0.7583 0.2704
H49? H -0.3023 0.7929 0.2158
H50? H -0.2725 0.8142 0.2943
N16? N -0.1502(14) 0.8455(11) 0.2440(10)
O8? O 0.367(3) 0.4902(14) 0.4175(15)
loop_
_geom_bond_atom_site_label_1
_geom_bond_atom_site_label_2
_geom_bond_site_symmetry_1
_geom_bond_site_symmetry_2
Mo1 C13 1_555 1_555
Nd1 O1 1_555 1_555
O1 C21 1_555 1_555
O2 Nd1 1_555 1_555
O3 Nd1 1_555 1_555
O4 Nd1 1_555 1_555
O5 Nd1 1_555 1_555
N1 Nd1 1_555 1_555
N2 Nd1 1_555 1_555
N3 Nd1 1_555 1_555
N4 C14 1_555 1_555
N5 C15 1_555 1_555
N6 C16 1_555 1_555
N7 C17 1_555 1_555
N8 C18 1_555 1_555
N9 C19 1_555 1_555
N10 C20 1_555 1_555
N11 C21 1_555 1_555
N12 C24 1_555 1_555
N13 C27 1_555 1_555
N14 C30 1_555 1_555
C1 N1 1_555 1_555
H1 C1 1_555 1_555
C2 C1 1_555 1_555
H2 C2 1_555 1_555
C3 C2 1_555 1_555
H3 C3 1_555 1_555
C4 C3 1_555 1_555
C5 N1 1_555 1_555
C6 N2 1_555 1_555
C7 C6 1_555 1_555
C8 C7 1_555 1_555
H4 C8 1_555 1_555
C9 C4 1_555 1_555
H5 C9 1_555 1_555
C10 C7 1_555 1_555
H6 C10 1_555 1_555
C11 C10 1_555 1_555
H7 C11 1_555 1_555
C12 N2 1_555 1_555
H8 C12 1_555 1_555
C13 N3 1_555 1_555
C14 Mo1 1_555 1_555
C15 Mo1 1_555 1_555
C16 Mo1 1_555 1_555
C17 Mo1 1_555 1_555
C18 Mo1 1_555 1_555
C19 Mo1 1_555 1_555
C20 Mo1 1_555 1_555
C21 H9 1_555 1_555
C22 N11 1_555 1_555
H10 C22 1_555 1_555
H11 C22 1_555 1_555
H12 C22 1_555 1_555
C23 N11 1_555 1_555
H13 C23 1_555 1_555
H14 C23 1_555 1_555
H15 C23 1_555 1_555
C24 O2 1_555 1_555
H16 C24 1_555 1_555
C25 N12 1_555 1_555
H17 C25 1_555 1_555
H18 C25 1_555 1_555
H19 C25 1_555 1_555
C26 N12 1_555 1_555
H20 C26 1_555 1_555
H21 C26 1_555 1_555
H22 C26 1_555 1_555
C27 O3 1_555 1_555
H23 C27 1_555 1_555
C28 N13 1_555 1_555
H24 C28 1_555 1_555
H25 C28 1_555 1_555
H26 C28 1_555 1_555
C29 N13 1_555 1_555
H27 C29 1_555 1_555
H28 C29 1_555 1_555
H29 C29 1_555 1_555
C30 O4 1_555 1_555
H30 C30 1_555 1_555
C31 N14 1_555 1_555
H31 C31 1_555 1_555
H32 C31 1_555 1_555
H33 C31 1_555 1_555
C32 N14 1_555 1_555
H34 C32 1_555 1_555
H35 C32 1_555 1_555
H36 C32 1_555 1_555
C33 O5 1_555 1_555
H37 C33 1_555 1_555
N15 C33 1_555 1_555
C34 N15 1_555 1_555
H38 C34 1_555 1_555
H39 C34 1_555 1_555
H40 C34 1_555 1_555
C35 N15 1_555 1_555
H41 C35 1_555 1_555
H42 C35 1_555 1_555
H43 C35 1_555 1_555
Nd1C N6 1_555 1_555
N6C Nd1 1_555 1_555
C4 C5 1_555 1_555
C5 C6 1_555 1_555
C8 C9 1_555 1_555
C11 C12 1_555 1_555

#END
