
#######################################################################
#
#                 Cambridge Crystallographic Data Centre
#                                CCDC 
#
#######################################################################
#
# If this CIF has been generated from an entry in the Cambridge 
# Structural Database, then it will include bibliographic, chemical, 
# crystal, experimental, refinement or atomic coordinate data resulting 
# from the CCDC's data processing and validation procedures.
#
#######################################################################

data_IBINEN
_symmetry_cell_setting           triclinic
_symmetry_space_group_name_H-M   'P -1'
_symmetry_Int_Tables_number      2
_space_group_name_Hall           '-P 1'
loop_
_symmetry_equiv_pos_site_id
_symmetry_equiv_pos_as_xyz
1 x,y,z
2 -x,-y,-z
_cell_length_a                   14.8166(3)
_cell_length_b                   18.2768(4)
_cell_length_c                   24.8929(6)
_cell_angle_alpha                69.9171(5)
_cell_angle_beta                 75.1473(7)
_cell_angle_gamma                88.2844(9)
_cell_volume                     6107.05
loop_
_atom_site_label
_atom_site_type_symbol
_atom_site_fract_x
_atom_site_fract_y
_atom_site_fract_z
Zn1 Zn 0.20905(5) 0.30903(4) 0.86655(3)
Zn2 Zn 0.22793(5) 0.30426(4) 0.36889(3)
N1 N -0.0163(3) 0.2699(3) 1.0120(2)
N2 N 0.0903(3) 0.2687(3) 0.9325(2)
N3 N -0.2026(3) 0.4501(3) 1.1918(2)
N4 N -0.1957(3) 0.5788(3) 1.1693(2)
N5 N 0.2784(4) 0.2226(3) 0.7299(2)
N6 N 0.2198(4) 0.2526(3) 0.8099(2)
N7 N 0.4349(3) 0.2460(3) 0.4585(2)
N8 N 0.3293(3) 0.2591(3) 0.4086(2)
N9 N 0.2934(4) 0.2344(3) 1.2224(2)
N10 N 0.2415(3) 0.2559(3) 1.3071(2)
N11 N 0.4250(3) 0.2715(3) 0.94795(19)
N12 N 0.3166(3) 0.2790(3) 0.9007(2)
N13 N -0.0087(3) 0.2810(3) 0.5051(2)
N14 N 0.1041(3) 0.2772(3) 0.4298(2)
N15 N -0.2374(3) 0.4556(3) 0.6822(2)
N16 N -0.2539(3) 0.5822(3) 0.6620(2)
C1 C -0.0674(4) 0.2957(3) 1.0583(2)
C2 C -0.0738(4) 0.3757(4) 1.0470(3)
H1 H -0.0423 0.4123 1.0095
C3 C -0.1258(4) 0.4009(3) 1.0903(3)
H2 H -0.1315 0.4553 1.0823
C4 C -0.1705(4) 0.3488(4) 1.1458(3)
C5 C -0.1628(4) 0.2683(4) 1.1578(3)
H3 H -0.1927 0.2321 1.1958
C6 C -0.1114(4) 0.2417(4) 1.1139(3)
H4 H -0.1061 0.1873 1.1215
C7 C 0.0574(4) 0.3081(4) 0.9681(3)
H5 H 0.0830 0.3577 0.9631
C8 C 0.0345(5) 0.2032(4) 0.9538(4)
H6 H 0.0389 0.1643 0.9361
C9 C -0.0304(6) 0.2009(4) 1.0054(4)
H7 H -0.0754 0.1595 1.0309
C10 C -0.2330(4) 0.3749(4) 1.1934(3)
H8 H -0.2975 0.3773 1.1886
H9 H -0.2347 0.3356 1.2327
C11 C -0.2415(4) 0.5187(4) 1.1662(3)
H10 H -0.2926 0.5227 1.1491
C12 C -0.1293(7) 0.5479(4) 1.1959(5)
H11 H -0.0859 0.5767 1.2044
C13 C -0.1326(7) 0.4677(4) 1.2096(5)
H12 H -0.0921 0.4324 1.2281
C14 C 0.3315(4) 0.2326(4) 0.6706(3)
C15 C 0.3364(5) 0.3035(4) 0.6251(3)
H13 H 0.3038 0.3459 0.6328
C16 C 0.3888(5) 0.3119(4) 0.5688(3)
H14 H 0.3928 0.3606 0.5376
C17 C 0.4353(4) 0.2509(4) 0.5572(3)
C18 C 0.4293(5) 0.1801(4) 0.6027(3)
H15 H 0.4617 0.1377 0.5947
C19 C 0.3771(5) 0.1701(3) 0.6593(3)
H16 H 0.3724 0.1211 0.6902
C20 C 0.2688(5) 0.2818(4) 0.7529(3)
H17 H 0.2927 0.3344 0.7319
C21 C 0.1975(5) 0.1755(4) 0.8224(3)
H18 H 0.1623 0.1404 0.8596
C22 C 0.2341(5) 0.1572(4) 0.7725(3)
H19 H 0.2292 0.1075 0.7688
C23 C 0.4915(4) 0.2630(5) 0.4943(3)
H20 H 0.5178 0.3177 0.4750
H21 H 0.5445 0.2287 0.4955
C24 C 0.3694(4) 0.2912(4) 0.4379(2)
H22 H 0.3539 0.3394 0.4435
C25 C 0.3715(4) 0.1897(4) 0.4108(3)
H23 H 0.3572 0.1534 0.3941
C26 C 0.4386(4) 0.1832(4) 0.4422(3)
H24 H 0.4793 0.1420 0.4504
C27 C 0.3410(4) 0.2487(3) 1.1617(3)
C28 C 0.3877(4) 0.1893(4) 1.1463(3)
H25 H 0.3880 0.1398 1.1757
C29 C 0.4336(4) 0.2028(4) 1.0881(3)
H26 H 0.4651 0.1620 1.0771
C30 C 0.4343(4) 0.2761(4) 1.0451(3)
C31 C 0.3870(5) 0.3337(4) 1.0610(3)
H27 H 0.3867 0.3832 1.0314
C32 C 0.3401(5) 0.3219(4) 1.1185(3)
H28 H 0.3075 0.3625 1.1291
C33 C 0.2875(4) 0.2899(4) 1.2495(3)
H29 H 0.3117 0.3426 1.2308
C34 C 0.2172(5) 0.1796(4) 1.3164(3)
H30 H 0.1833 0.1425 1.3529
C35 C 0.2501(5) 0.1663(4) 1.2639(3)
H31 H 0.2438 0.1184 1.2577
C36 C 0.4843(4) 0.2919(4) 0.9800(3)
H32 H 0.5052 0.3479 0.9606
H33 H 0.5407 0.2614 0.9776
C37 C 0.3612(4) 0.3148(3) 0.9267(2)
H34 H 0.3481 0.3649 0.9293
C38 C 0.3568(4) 0.2076(3) 0.9084(3)
H35 H 0.3398 0.1677 0.8957
C39 C 0.4248(4) 0.2044(3) 0.9372(3)
H36 H 0.4643 0.1628 0.9475
C40 C -0.0603(4) 0.3067(4) 0.5516(3)
C41 C -0.0984(4) 0.2527(4) 0.6076(3)
H37 H -0.0939 0.1984 0.6147
C42 C -0.1433(4) 0.2790(4) 0.6535(3)
H38 H -0.1694 0.2422 0.6920
C43 C -0.1506(4) 0.3584(4) 0.6437(3)
C44 C -0.1162(4) 0.4101(4) 0.5863(3)
H39 H -0.1249 0.4642 0.5782
C45 C -0.0698(4) 0.3856(4) 0.5406(3)
H40 H -0.0447 0.4225 0.5020
C46 C 0.0702(4) 0.3172(4) 0.4646(3)
H41 H 0.0978 0.3652 0.4616
C47 C 0.0447(5) 0.2146(4) 0.4475(3)
H42 H 0.0498 0.1762 0.4293
C48 C -0.0251(5) 0.2147(4) 0.4962(3)
H43 H -0.0745 0.1759 0.5189
C49 C -0.1906(5) 0.3836(4) 0.6965(3)
H44 H -0.2356 0.3417 0.7272
H45 H -0.1393 0.3901 0.7137
C50 C -0.1938(4) 0.5270(3) 0.6685(3)
H46 H -0.1291 0.5358 0.6641
C51 C -0.3393(4) 0.5447(3) 0.6725(2)
H47 H -0.3966 0.5691 0.6710
C52 C -0.3282(4) 0.4678(4) 0.6854(3)
H48 H -0.3764 0.4287 0.6951
N4A N 0.1957(3) 0.4212(3) 0.8307(2)
N10_2 N 0.2415(3) 0.2559(3) 0.3071(2)
N16A N 0.2539(3) 0.4178(3) 0.3380(2)
Zn1A Zn -0.20905(5) 0.69097(4) 1.13345(3)
Zn2_2 Zn 0.22793(5) 0.30426(4) 1.36889(3)
Zn2A Zn -0.22793(5) 0.69574(4) 0.63111(3)
Zn3 Zn 0.78425(7) 0.19940(5) 0.38266(4)
Zn4 Zn 1.21917(9) -0.19017(6) 0.11797(4)
N17 N 1.0131(5) 0.2294(4) 0.2413(3)
N18 N 0.9031(5) 0.2293(4) 0.3203(3)
N19 N 1.2010(10) 0.0521(8) 0.0629(6)
N20 N 1.1954(10) -0.0714(10) 0.0831(6)
N21 N 0.7170(4) 0.2751(4) 0.5235(3)
N22 N 0.7742(5) 0.2526(4) 0.4411(3)
N23 N 0.5682(6) 0.2396(5) 0.7968(3)
N24 N 0.6773(6) 0.2292(5) 0.8429(3)
N25 N 0.7124(4) 0.2638(3) 0.0248(3)
N26 N 0.7684(6) 0.2391(4) -0.0564(3)
N27 N 0.5730(5) 0.2438(5) 0.2965(3)
N28 N 0.6759(4) 0.2352(4) 0.3466(3)
N29 N 0.9877(5) -0.2201(4) 0.2582(3)
N30 N 1.0989(6) -0.2204(4) 0.1797(3)
N31 N 0.7874(5) -0.0370(4) 0.4349(3)
N32 N 0.8098(15) 0.086(2) 0.4153(14)
C53 C 1.0662(5) 0.2029(5) 0.1944(4)
C54 C 1.0748(7) 0.1248(5) 0.2066(4)
H49 H 1.0516 0.0894 0.2460
C55 C 1.1182(7) 0.0969(6) 0.1607(4)
H50 H 1.1183 0.0426 0.1669
C56 C 1.1617(6) 0.1533(5) 0.1050(4)
C57 C 1.1533(5) 0.2301(5) 0.0967(4)
H51 H 1.1827 0.2671 0.0589
C58 C 1.1048(5) 0.2567(5) 0.1397(4)
H52 H 1.0980 0.3109 0.1320
C59 C 0.9322(6) 0.1944(5) 0.2814(4)
H53 H 0.9004 0.1501 0.2813
C60 C 0.9692(5) 0.2941(4) 0.3011(4)
H54 H 0.9662 0.3327 0.3190
C61 C 1.0347(5) 0.2923(4) 0.2550(3)
H55 H 1.0878 0.3282 0.2347
C62 C 1.2163(9) 0.1284(6) 0.0557(4)
H56 H 1.2013 0.1614 0.0186
H57 H 1.2837 0.1386 0.0508
C63 C 1.2224(12) -0.0141(12) 0.0875(8)
H58 H 1.2638 -0.0197 0.1119
C64 C 1.1344(11) -0.0400(11) 0.0473(7)
H59 H 1.0976 -0.0690 0.0345
C65 C 1.1365(11) 0.0340(11) 0.0347(8)
H60 H 1.1020 0.0698 0.0113
C66 C 0.6680(5) 0.2630(5) 0.5840(3)
C67 C 0.6139(6) 0.3205(5) 0.5969(4)
H61 H 0.6118 0.3687 0.5666
C68 C 0.5614(6) 0.3066(5) 0.6561(4)
H62 H 0.5242 0.3459 0.6657
C69 C 0.5641(6) 0.2359(5) 0.6999(4)
C70 C 0.6172(5) 0.1779(5) 0.6852(4)
H63 H 0.6174 0.1286 0.7149
C71 C 0.6709(5) 0.1922(5) 0.6262(3)
H64 H 0.7083 0.1532 0.6162
C72 C 0.7315(5) 0.2220(4) 0.4976(3)
H65 H 0.7130 0.1681 0.5175
C73 C 0.7874(6) 0.3319(5) 0.4294(4)
H66 H 0.8172 0.3693 0.3919
C74 C 0.7514(6) 0.3480(5) 0.4799(4)
H67 H 0.7497 0.3975 0.4846
C75 C 0.5082(6) 0.2219(6) 0.7624(4)
H68 H 0.4546 0.2556 0.7622
H69 H 0.4832 0.1669 0.7814
C76 C 0.6355(8) 0.1945(6) 0.8177(4)
H70 H 0.6496 0.1450 0.8142
C77 C 0.6339(8) 0.2981(6) 0.8395(4)
H71 H 0.6492 0.3344 0.8558
C78 C 0.5691(7) 0.3071(6) 0.8109(4)
H72 H 0.5311 0.3501 0.8018
C79 C 0.6634(5) 0.2544(4) 0.0854(3)
C80 C 0.6572(5) 0.1821(4) 0.1280(3)
H73 H 0.6865 0.1398 0.1182
C81 C 0.6069(5) 0.1716(5) 0.1863(4)
H74 H 0.5996 0.1213 0.2160
C82 C 0.5673(6) 0.2353(6) 0.2008(4)
C83 C 0.5725(7) 0.3073(6) 0.1569(5)
H75 H 0.5427 0.3498 0.1662
C84 C 0.6228(6) 0.3175(5) 0.0975(4)
H76 H 0.6281 0.3669 0.0669
C85 C 0.7195(6) 0.2128(4) -0.0020(3)
H77 H 0.6914 0.1612 0.0169
C86 C 0.7941(7) 0.3151(5) -0.0664(4)
H78 H 0.8303 0.3508 -0.1029
C87 C 0.7604(6) 0.3312(4) -0.0170(4)
H79 H 0.7680 0.3794 -0.0117
C88 C 0.5129(6) 0.2236(7) 0.2631(4)
H80 H 0.4589 0.2568 0.2626
H81 H 0.4885 0.1684 0.2834
C89 C 0.6361(6) 0.1989(6) 0.3214(5)
H82 H 0.6493 0.1481 0.3206
C90 C 0.6348(6) 0.3035(5) 0.3408(3)
H83 H 0.6484 0.3402 0.3574
C91 C 0.5733(6) 0.3127(5) 0.3094(3)
H84 H 0.5372 0.3564 0.2980
C92 C 0.9325(6) -0.1926(5) 0.3046(3)
C93 C 0.9217(7) -0.1156(5) 0.2926(4)
H85 H 0.9431 -0.0800 0.2532
C94 C 0.8790(8) -0.0884(5) 0.3384(4)
H86 H 0.8779 -0.0340 0.3314
C95 C 0.8378(8) -0.1426(5) 0.3948(4)
C96 C 0.8479(6) -0.2202(4) 0.4040(3)
H87 H 0.8209 -0.2571 0.4423
C97 C 0.8957(5) -0.2470(4) 0.3600(4)
H88 H 0.9031 -0.3011 0.3675
C98 C 1.0587(7) -0.1803(5) 0.2140(3)
H89 H 1.0789 -0.1284 0.2075
C99 C 1.0448(6) -0.2953(4) 0.2071(4)
H90 H 1.0562 -0.3390 0.1946
C100 C 0.9773(5) -0.2919(4) 0.2521(4)
H91 H 0.9297 -0.3317 0.2763
C101 C 0.7845(14) -0.1169(6) 0.4447(5)
H92 H 0.8085 -0.1435 0.4797
H93 H 0.7181 -0.1357 0.4550
C102 C 0.7536(11) 0.0297(10) 0.4220(6)
H94 H 0.6917 0.0372 0.4177
C103 C 0.8787(11) 0.0551(10) 0.4382(7)
H95 H 0.9239 0.0830 0.4461
C104 C 0.8758(11) -0.0171(10) 0.4482(8)
H96 H 0.9204 -0.0524 0.4616
N24A N 1.3227(6) -0.2292(5) 0.1571(3)
N26A N 1.2316(6) -0.2391(4) 0.0564(3)
Zn4A Zn 0.78083(9) 0.19017(6) 0.88203(4)
Zn4A_2 Zn 0.78083(9) 0.19017(6) -0.11797(4)
O1 O 0.6732(4) 0.5169(3) 0.0542(2)
O2 O 0.8058(4) 0.5824(3) 0.0139(3)
O3 O 0.7562(4) 0.5136(3) -0.0288(3)
N33 N 0.7447(4) 0.5374(3) 0.0148(3)
O4 O 0.7155(5) 0.5179(4) 0.4859(4)
O5 O 0.7538(4) 0.5764(4) 0.5364(2)
O6 O 0.8558(5) 0.5658(4) 0.4635(3)
N34 N 0.7749(4) 0.5529(3) 0.4951(3)
O7 O 0.2298(4) 0.5497(3) 0.1918(2)
O8 O 0.0880(4) 0.5232(4) 0.2014(2)
O9 O 0.1883(5) 0.4376(3) 0.1981(4)
N35 N 0.1688(4) 0.5039(3) 0.1969(2)
O10 O 0.188(3) -0.028(3) 0.2923(14)
O11 O 0.2989(14) -0.0035(14) 0.2162(13)
O12 O 0.1901(13) -0.0807(11) 0.2299(8)
N36 N 0.2314(7) -0.0458(5) 0.2515(4)
O13 O 0.4132(12) -0.0812(8) 0.4855(8)
O14 O 0.3656(15) -0.0419(10) 0.4146(8)
O15 O 0.4738(12) 0.0122(13) 0.4215(10)
N37 N 0.4126(9) -0.0359(8) 0.4419(7)
O16 O 0.5730(8) 0.4765(5) 0.2701(6)
O17 O 0.5382(6) 0.5503(7) 0.1926(4)
O18 O 0.5719(18) 0.6004(10) 0.2526(11)
N38 N 0.5594(7) 0.5428(5) 0.2392(5)
O19 O 0.7303(6) 0.0167(4) 0.2287(4)
O20 O 0.7804(8) 0.0844(4) 0.2761(5)
O21 O 0.8631(9) 0.0592(7) 0.2136(6)
N39 N 0.7827(8) 0.0518(7) 0.2437(5)
O22 O 0.8309(10) 0.0367(9) 0.1043(5)
O23 O 0.7552(10) -0.0461(8) 0.0561(7)
O24 O 0.9052(9) -0.0230(8) 0.0563(6)
N40 N 0.8171(9) 0.0008(8) 0.0637(6)
O25 O 0.1782(15) -0.0630(8) 0.4571(12)
O26 O 0.0798(13) 0.0236(12) 0.4497(14)
O27 O 0.2217(13) 0.0529(9) 0.4387(7)
N41 N 0.1586(11) 0.0003(9) 0.4483(8)
O28 O 0.4029(4) 0.4713(5) 0.1648(3)
O29 O 0.0533(6) 0.4979(6) 0.0945(3)
O30 O 0.5507(12) -0.0207(5) 0.2067(4)
O31 O 0.8322(4) 0.5488(3) 0.3525(2)
O32 O 0.9812(3) 0.4618(3) 0.3228(2)
O33 O 0.4282(4) 0.5277(3) 0.0394(3)
O34 O 0.6595(9) -0.0164(9) 0.1128(6)
O35 O 0.485(3) 0.495(3) 0.4564(19)
O36 O 0.9338(10) 0.0042(10) 0.1585(8)
O37 O 0.4199(12) 0.0367(11) 0.2753(9)
O38? O 0.2746(15) -0.0582(13) 0.2085(6)
O39? O 0.1500(11) -0.0755(11) 0.2759(10)
O40? O 0.2659(11) -0.0170(7) 0.2782(5)
O41? O 1.4500(7) -0.0480(6) 0.0586(5)
O42? O 1.4234(7) -0.0943(5) -0.0043(6)
O43? O 1.4120(7) 0.0270(6) -0.0200(4)
O44? O 0.5485(9) 0.4718(7) 0.3341(8)
O45? O 0.651(3) 0.4911(13) 0.3482(17)
O46? O 0.594(3) 0.5832(12) 0.2681(12)
O47? O 0.6626(11) 0.0253(9) 0.3075(6)
O48? O 0.9943(9) -0.0344(7) 0.0705(6)
O49? O 0.7985(9) 0.0598(7) 0.0690(8)
O50? O 0.5781(8) 0.0414(6) 0.0764(5)
O51? O 0.1689(9) -0.0588(8) 0.4048(5)
O52? O 0.0299(11) 0.0455(7) 0.4238(7)
O53? O 0.5334(10) -0.0218(11) 0.4550(6)
O54? O 0.353(5) 0.016(4) 0.3971(18)
O55? O 0.5448(8) 0.4776(9) 0.2041(6)
O56? O 0.466(3) 0.475(3) 0.4459(17)
O57? O 0.474(3) 0.0193(13) 0.2916(11)
O58? O 0.663(2) 0.527(2) 0.341(2)
N42? N 1.4279(6) -0.0391(6) 0.0121(5)
N43? N 0.6080(7) 0.5263(7) 0.3096(6)
N44? N 0.7304(10) 0.0431(9) 0.2658(6)
N45? N 0.7525(14) -0.0404(17) -0.0665(9)
N46? N 0.7339(11) 0.0772(9) -0.0882(6)
N47? N 0.7659(16) 0.0866(8) 0.4129(6)
C105? C 0.816(4) 0.027(2) -0.0822(17)
H97? H 0.8806 0.0355 -0.0867
C106? C 0.6483(12) 0.0419(9) -0.0746(7)
H98? H 0.5902 0.0657 -0.0725
C107? C 0.6634(15) -0.0379(10) -0.0641(7)
H99? H 0.6197 -0.0794 -0.0571
C108? C 0.8217(12) 0.0306(10) 0.4180(7)
H100? H 0.8874 0.0409 0.4091
C109? C 0.6704(16) 0.0463(11) 0.4210(8)
H101? H 0.6132 0.0706 0.4187
C110? C 0.6847(13) -0.0324(9) 0.4322(7)
H102? H 0.6418 -0.0732 0.4370
loop_
_geom_bond_atom_site_label_1
_geom_bond_atom_site_label_2
_geom_bond_site_symmetry_1
_geom_bond_site_symmetry_2
Zn1 N2 1_555 1_555
Zn2 N8 1_555 1_555
N1 C1 1_555 1_555
N2 C7 1_555 1_555
N3 C10 1_555 1_555
N4 C11 1_555 1_555
N5 C14 1_555 1_555
N6 Zn1 1_555 1_555
N7 C23 1_555 1_555
N8 C24 1_555 1_555
N9 C27 1_555 1_555
N10 C33 1_555 1_555
N11 C36 1_555 1_555
N12 Zn1 1_555 1_555
N13 C40 1_555 1_555
N14 Zn2 1_555 1_555
N15 C49 1_555 1_555
N16 C50 1_555 1_555
C1 C2 1_555 1_555
C2 H1 1_555 1_555
C3 C2 1_555 1_555
H2 C3 1_555 1_555
C4 C3 1_555 1_555
C5 C4 1_555 1_555
H3 C5 1_555 1_555
C6 C1 1_555 1_555
H4 C6 1_555 1_555
C7 N1 1_555 1_555
H5 C7 1_555 1_555
C8 N2 1_555 1_555
H6 C8 1_555 1_555
C9 N1 1_555 1_555
H7 C9 1_555 1_555
C10 C4 1_555 1_555
H8 C10 1_555 1_555
H9 C10 1_555 1_555
C11 N3 1_555 1_555
H10 C11 1_555 1_555
C12 N4 1_555 1_555
H11 C12 1_555 1_555
C13 N3 1_555 1_555
H12 C13 1_555 1_555
C14 C15 1_555 1_555
C15 H13 1_555 1_555
C16 C15 1_555 1_555
H14 C16 1_555 1_555
C17 C16 1_555 1_555
C18 C17 1_555 1_555
H15 C18 1_555 1_555
C19 C14 1_555 1_555
H16 C19 1_555 1_555
C20 N5 1_555 1_555
H17 C20 1_555 1_555
C21 N6 1_555 1_555
H18 C21 1_555 1_555
C22 N5 1_555 1_555
H19 C22 1_555 1_555
C23 C17 1_555 1_555
H20 C23 1_555 1_555
H21 C23 1_555 1_555
C24 N7 1_555 1_555
H22 C24 1_555 1_555
C25 N8 1_555 1_555
H23 C25 1_555 1_555
C26 N7 1_555 1_555
H24 C26 1_555 1_555
C27 C28 1_555 1_555
C28 H25 1_555 1_555
C29 C28 1_555 1_555
H26 C29 1_555 1_555
C30 C29 1_555 1_555
C31 C30 1_555 1_555
H27 C31 1_555 1_555
C32 C27 1_555 1_555
H28 C32 1_555 1_555
C33 N9 1_555 1_555
H29 C33 1_555 1_555
C34 N10 1_555 1_555
H30 C34 1_555 1_555
C35 N9 1_555 1_555
H31 C35 1_555 1_555
C36 C30 1_555 1_555
H32 C36 1_555 1_555
H33 C36 1_555 1_555
C37 N11 1_555 1_555
H34 C37 1_555 1_555
C38 N12 1_555 1_555
H35 C38 1_555 1_555
C39 N11 1_555 1_555
H36 C39 1_555 1_555
C40 C41 1_555 1_555
C41 H37 1_555 1_555
C42 C41 1_555 1_555
H38 C42 1_555 1_555
C43 C42 1_555 1_555
C44 C43 1_555 1_555
H39 C44 1_555 1_555
C45 C40 1_555 1_555
H40 C45 1_555 1_555
C46 N13 1_555 1_555
H41 C46 1_555 1_555
C47 N14 1_555 1_555
H42 C47 1_555 1_555
C48 N13 1_555 1_555
H43 C48 1_555 1_555
C49 C43 1_555 1_555
H44 C49 1_555 1_555
H45 C49 1_555 1_555
C50 N15 1_555 1_555
H46 C50 1_555 1_555
C51 N16 1_555 1_555
H47 C51 1_555 1_555
C52 N15 1_555 1_555
H48 C52 1_555 1_555
Zn3 N18 1_555 1_555
Zn4 N20 1_555 1_555
N17 C53 1_555 1_555
N18 C59 1_555 1_555
N19 C62 1_555 1_555
N20 C63 1_555 1_555
N21 C66 1_555 1_555
N22 Zn3 1_555 1_555
N23 C75 1_555 1_555
N24 C76 1_555 1_555
N25 C79 1_555 1_555
N26 C85 1_555 1_555
N27 C88 1_555 1_555
N28 Zn3 1_555 1_555
N29 C92 1_555 1_555
N30 Zn4 1_555 1_555
N31 C101 1_555 1_555
N32 Zn3 1_555 1_555
C53 C54 1_555 1_555
C54 H49 1_555 1_555
C55 C54 1_555 1_555
H50 C55 1_555 1_555
C56 C55 1_555 1_555
C57 C56 1_555 1_555
H51 C57 1_555 1_555
C58 C53 1_555 1_555
H52 C58 1_555 1_555
C59 N17 1_555 1_555
H53 C59 1_555 1_555
C60 N18 1_555 1_555
H54 C60 1_555 1_555
C61 N17 1_555 1_555
H55 C61 1_555 1_555
C62 C56 1_555 1_555
H56 C62 1_555 1_555
H57 C62 1_555 1_555
C63 N19 1_555 1_555
H58 C63 1_555 1_555
C64 N20 1_555 1_555
H59 C64 1_555 1_555
C65 N19 1_555 1_555
H60 C65 1_555 1_555
C66 C67 1_555 1_555
C67 H61 1_555 1_555
C68 C67 1_555 1_555
H62 C68 1_555 1_555
C69 C68 1_555 1_555
C70 C69 1_555 1_555
H63 C70 1_555 1_555
C71 C66 1_555 1_555
H64 C71 1_555 1_555
C72 N21 1_555 1_555
H65 C72 1_555 1_555
C73 N22 1_555 1_555
H66 C73 1_555 1_555
C74 N21 1_555 1_555
H67 C74 1_555 1_555
C75 C69 1_555 1_555
H68 C75 1_555 1_555
H69 C75 1_555 1_555
C76 N23 1_555 1_555
H70 C76 1_555 1_555
C77 N24 1_555 1_555
H71 C77 1_555 1_555
C78 N23 1_555 1_555
H72 C78 1_555 1_555
C79 C80 1_555 1_555
C80 H73 1_555 1_555
C81 C80 1_555 1_555
H74 C81 1_555 1_555
C82 C81 1_555 1_555
C83 C82 1_555 1_555
H75 C83 1_555 1_555
C84 C79 1_555 1_555
H76 C84 1_555 1_555
C85 N25 1_555 1_555
H77 C85 1_555 1_555
C86 N26 1_555 1_555
H78 C86 1_555 1_555
C87 N25 1_555 1_555
H79 C87 1_555 1_555
C88 C82 1_555 1_555
H80 C88 1_555 1_555
H81 C88 1_555 1_555
C89 N27 1_555 1_555
H82 C89 1_555 1_555
C90 N28 1_555 1_555
H83 C90 1_555 1_555
C91 N27 1_555 1_555
H84 C91 1_555 1_555
C92 C93 1_555 1_555
C93 H85 1_555 1_555
C94 C93 1_555 1_555
H86 C94 1_555 1_555
C95 C94 1_555 1_555
C96 C95 1_555 1_555
H87 C96 1_555 1_555
C97 C92 1_555 1_555
H88 C97 1_555 1_555
C98 N29 1_555 1_555
H89 C98 1_555 1_555
C99 N30 1_555 1_555
H90 C99 1_555 1_555
C100 N29 1_555 1_555
H91 C100 1_555 1_555
C101 C95 1_555 1_555
H92 C101 1_555 1_555
H93 C101 1_555 1_555
C102 N31 1_555 1_555
H94 C102 1_555 1_555
C103 N32 1_555 1_555
H95 C103 1_555 1_555
C104 N31 1_555 1_555
H96 C104 1_555 1_555
O1 N33 1_555 1_555
O2 N33 1_555 1_555
O3 N33 1_555 1_555
O4 N34 1_555 1_555
O5 N34 1_555 1_555
O6 N34 1_555 1_555
O7 N35 1_555 1_555
O8 N35 1_555 1_555
O9 N35 1_555 1_555
O10 N36 1_555 1_555
O11 N36 1_555 1_555
O12 N36 1_555 1_555
O13 N37 1_555 1_555
O14 N37 1_555 1_555
O15 N37 1_555 1_555
O16 N38 1_555 1_555
O17 N38 1_555 1_555
O18 N38 1_555 1_555
O19 N39 1_555 1_555
O20 N39 1_555 1_555
O21 N39 1_555 1_555
O22 N40 1_555 1_555
O23 N40 1_555 1_555
O24 N40 1_555 1_555
O25 N41 1_555 1_555
O26 N41 1_555 1_555
O27 N41 1_555 1_555
N4A Zn1 1_555 1_555
N10_2 Zn2 1_555 1_555
N16A Zn2 1_555 1_555
Zn1A N4 1_555 1_555
Zn2_2 N10 1_555 1_555
Zn2A N16 1_555 1_555
N24A Zn4 1_555 1_555
N26A Zn4 1_555 1_555
Zn4A N24 1_555 1_555
Zn4A_2 N26 1_555 1_555
N6 C20 1_555 1_555
N12 C37 1_555 1_555
N14 C46 1_555 1_555
C5 C6 1_555 1_555
C8 C9 1_555 1_555
C12 C13 1_555 1_555
C18 C19 1_555 1_555
C21 C22 1_555 1_555
C25 C26 1_555 1_555
C31 C32 1_555 1_555
C34 C35 1_555 1_555
C38 C39 1_555 1_555
C44 C45 1_555 1_555
C47 C48 1_555 1_555
C51 C52 1_555 1_555
N22 C72 1_555 1_555
N28 C89 1_555 1_555
N30 C98 1_555 1_555
N32 C102 1_555 1_555
C57 C58 1_555 1_555
C60 C61 1_555 1_555
C64 C65 1_555 1_555
C70 C71 1_555 1_555
C73 C74 1_555 1_555
C77 C78 1_555 1_555
C83 C84 1_555 1_555
C86 C87 1_555 1_555
C90 C91 1_555 1_555
C96 C97 1_555 1_555
C99 C100 1_555 1_555
C103 C104 1_555 1_555

#END
