
#######################################################################
#
#                 Cambridge Crystallographic Data Centre
#                                CCDC 
#
#######################################################################
#
# If this CIF has been generated from an entry in the Cambridge 
# Structural Database, then it will include bibliographic, chemical, 
# crystal, experimental, refinement or atomic coordinate data resulting 
# from the CCDC's data processing and validation procedures.
#
#######################################################################

data_IBIROC01
_symmetry_cell_setting           monoclinic
_symmetry_space_group_name_H-M   'P 21/c'
_symmetry_Int_Tables_number      14
_space_group_name_Hall           '-P 2ybc'
loop_
_symmetry_equiv_pos_site_id
_symmetry_equiv_pos_as_xyz
1 x,y,z
2 -x,1/2+y,1/2-z
3 -x,-y,-z
4 x,1/2-y,1/2+z
_cell_length_a                   15.9109(6)
_cell_length_b                   10.9478(4)
_cell_length_c                   10.5695(5)
_cell_angle_alpha                90
_cell_angle_beta                 92.8860(10)
_cell_angle_gamma                90
_cell_volume                     1838.76
loop_
_atom_site_label
_atom_site_type_symbol
_atom_site_fract_x
_atom_site_fract_y
_atom_site_fract_z
Sm1 Sm 0.56089(3) 0.39143(4) 0.37965(4)
O1 O 0.6999(4) 0.3827(6) 0.2742(6)
O2 O 0.6784(4) 0.2472(6) 0.4214(6)
O3 O 1.4098(4) 0.3954(6) 0.3293(6)
O4 O 1.3457(4) 0.5006(7) 0.4798(7)
O5 O 1.0586(5) 0.1202(8) 0.3212(11)
O6 O 0.5051(4) 0.6041(5) 0.4149(5)
O7 O 0.5554(4) 0.5215(5) 0.1944(5)
O8 O 0.4486(4) 0.7675(6) 0.3177(6)
O9 O 0.4968(4) 0.6812(5) 0.0944(6)
C1 C 0.7254(6) 0.2948(9) 0.3434(10)
C2 C 0.8124(6) 0.2474(10) 0.3325(11)
C3 C 0.8696(7) 0.3085(12) 0.2619(13)
H3 H 0.8526 0.3767 0.2147
C4 C 0.9521(8) 0.2687(12) 0.2608(14)
H4 H 0.9909 0.3125 0.2157
C5 C 0.9770(7) 0.1667(12) 0.3248(14)
C6 C 0.9205(8) 0.1000(12) 0.3868(15)
H5 H 0.9372 0.0276 0.4266
C7 C 0.8395(7) 0.1384(12) 0.3911(13)
H6 H 0.8013 0.0915 0.4337
C8 C 1.3463(6) 0.4195(10) 0.3943(9)
C9 C 1.2690(6) 0.3455(10) 0.3693(10)
C10 C 1.1959(7) 0.3746(12) 0.4287(13)
H7 H 1.1948 0.4431 0.4806
C11 C 1.1244(8) 0.3032(13) 0.4118(14)
H8 H 1.0755 0.3243 0.4512
C12 C 1.1259(7) 0.2012(12) 0.3368(14)
C13 C 1.1969(7) 0.1697(11) 0.2770(12)
H9 H 1.1975 0.1009 0.2253
C14 C 1.2686(7) 0.2426(10) 0.2948(11)
H10 H 1.3173 0.2209 0.2552
C15 C 0.4872(5) 0.6688(8) 0.3183(8)
C16 C 0.5155(6) 0.6198(7) 0.1899(8)
Sm1_2 Sm 1.56089(3) 0.39143(4) 0.37965(4)
Sm1B Sm 1.43911(3) 0.60857(4) 0.62035(4)
Sm1B_2 Sm 0.43911(3) 0.60857(4) 0.62035(4)
Sm1A Sm 0.43911(3) 0.89143(4) 0.12035(4)
O3_2 O 0.4098(4) 0.3954(6) 0.3293(6)
O4B O 0.6543(4) 0.4994(7) 0.5202(7)
O6B O 0.4949(4) 0.3959(5) 0.5851(5)
O8A O 0.5514(4) 0.2675(6) 0.1823(6)
O9A O 0.5032(4) 0.1812(5) 0.4056(6)
Na1 Na -0.3662(3) 0.4006(3) 0.0571(4)
O10 O -0.3668(6) 0.5784(8) -0.0620(8)
H1 H -0.3707 0.5611 -0.1405
H2 H -0.4087 0.6222 -0.0442
loop_
_geom_bond_atom_site_label_1
_geom_bond_atom_site_label_2
_geom_bond_site_symmetry_1
_geom_bond_site_symmetry_2
Sm1 O1 1_555 1_555
O1 C1 1_555 1_555
O2 Sm1 1_555 1_555
O3 C8 1_555 1_555
O4 C8 1_555 1_555
O5 C5 1_555 1_555
O6 Sm1 1_555 1_555
O7 Sm1 1_555 1_555
O8 C15 1_555 1_555
O9 C16 1_555 1_555
O10 H1 1_555 1_555
H2 O10 1_555 1_555
C1 O2 1_555 1_555
C2 C1 1_555 1_555
C3 C2 1_555 1_555
H3 C3 1_555 1_555
C4 C3 1_555 1_555
H4 C4 1_555 1_555
C5 C4 1_555 1_555
C6 C5 1_555 1_555
H5 C6 1_555 1_555
C7 C2 1_555 1_555
H6 C7 1_555 1_555
C8 C9 1_555 1_555
C9 C10 1_555 1_555
C10 H7 1_555 1_555
C11 C10 1_555 1_555
H8 C11 1_555 1_555
C12 O5 1_555 1_555
C13 C12 1_555 1_555
H9 C13 1_555 1_555
C14 C9 1_555 1_555
H10 C14 1_555 1_555
C15 O6 1_555 1_555
C16 O7 1_555 1_555
Sm1_2 O3 1_555 1_555
Sm1B O4 1_555 1_555
Sm1B_2 O6 1_555 1_555
Sm1A O8 1_555 1_555
O3_2 Sm1 1_555 1_555
O4B Sm1 1_555 1_555
O6B Sm1 1_555 1_555
O8A Sm1 1_555 1_555
O9A Sm1 1_555 1_555
O9 Sm1A 1_555 1_555
C6 C7 1_555 1_555
C11 C12 1_555 1_555
C13 C14 1_555 1_555
C15 C16 1_555 1_555
Sm1B_2 O6B 1_555 1_555

#END
