
#######################################################################
#
#                 Cambridge Crystallographic Data Centre
#                                CCDC 
#
#######################################################################
#
# If this CIF has been generated from an entry in the Cambridge 
# Structural Database, then it will include bibliographic, chemical, 
# crystal, experimental, refinement or atomic coordinate data resulting 
# from the CCDC's data processing and validation procedures.
#
#######################################################################

data_IBIRIW
_symmetry_cell_setting           monoclinic
_symmetry_space_group_name_H-M   'P 21/c'
_symmetry_Int_Tables_number      14
_space_group_name_Hall           '-P 2ybc'
loop_
_symmetry_equiv_pos_site_id
_symmetry_equiv_pos_as_xyz
1 x,y,z
2 -x,1/2+y,1/2-z
3 -x,-y,-z
4 x,1/2-y,1/2+z
_cell_length_a                   15.940(3)
_cell_length_b                   10.9813(19)
_cell_length_c                   10.5913(19)
_cell_angle_alpha                90
_cell_angle_beta                 93.273(2)
_cell_angle_gamma                90
_cell_volume                     1850.9
loop_
_atom_site_label
_atom_site_type_symbol
_atom_site_fract_x
_atom_site_fract_y
_atom_site_fract_z
Nd1 Nd 0.937699(12) 0.109917(18) 0.118461(17)
Na1 Na 0.86514(13) 0.09870(16) 0.44116(17)
O1 O 0.81903(18) 0.2567(3) 0.0770(3)
O2 O 0.79834(19) 0.1194(3) 0.2240(3)
O3 O 0.4404(2) 0.3807(4) 0.1822(7)
O4 O 0.15548(19) -0.0032(3) 0.0284(3)
O5 O 0.09108(19) 0.1036(3) 0.1741(3)
O6 O 0.99167(19) -0.1042(2) 0.0854(3)
O7 O 1.05195(18) -0.2651(3) 0.1823(3)
O8 O 0.94400(18) -0.0210(3) 0.3053(2)
O9 O 1.00400(19) -0.1800(3) 0.4057(2)
O10 O 0.8672(3) -0.0760(4) 0.5595(4)
H1 H 0.8549 -0.1479 0.5353
H2 H 0.8992 -0.0813 0.6262
C1 C 0.6857(3) 0.2563(4) 0.1687(4)
C2 C 0.6593(3) 0.3634(6) 0.1106(7)
H3 H 0.6973 0.4094 0.0674
C3 C 0.5773(4) 0.4032(6) 0.1154(8)
H4 H 0.5602 0.4758 0.0766
C4 C 0.5219(3) 0.3345(5) 0.1777(7)
C5 C 0.5466(4) 0.2319(6) 0.2424(8)
H5 H 0.5087 0.1890 0.2891
C6 C 0.6294(3) 0.1925(6) 0.2373(7)
H6 H 0.6468 0.1225 0.2807
C7 C 0.7724(3) 0.2084(4) 0.1569(4)
C8 C 0.2312(3) 0.1552(4) 0.1333(4)
C9 C 0.2314(3) 0.2581(5) 0.2086(5)
H7 H 0.1832 0.2783 0.2493
C10 C 0.3020(3) 0.3319(5) 0.2249(5)
H8 H 0.3009 0.4016 0.2747
C11 C 0.3736(3) 0.3001(5) 0.1661(6)
C12 C 0.3747(4) 0.1982(7) 0.0898(8)
H9 H 0.4230 0.1783 0.0489
C13 C 0.3038(4) 0.1258(6) 0.0742(7)
H10 H 0.3049 0.0567 0.0236
C14 C 0.1535(3) 0.0797(4) 0.1110(4)
C15 C 1.0118(2) -0.1677(4) 0.1814(3)
C16 C 0.9842(3) -0.1182(3) 0.3096(4)
Nd1B Nd 0.062301(12) -0.109917(18) -0.118461(17)
Nd1_2 Nd -0.062301(12) 0.109917(18) 0.118461(17)
Nd1A Nd 1.062301(12) -0.390083(18) 0.381539(17)
Nd1B_2 Nd 1.062301(12) -0.109917(18) -0.118461(17)
Nd1C Nd -0.062301(12) 0.390083(18) -0.381539(17)
Na1B Na 0.13486(13) -0.09870(16) -0.44116(17)
Na1_2 Na -0.13486(13) 0.09870(16) -0.55884(17)
Na1A Na 0.13486(13) -0.40130(16) 0.05884(17)
Na1A_2 Na 1.13486(13) -0.40130(16) 0.05884(17)
Na1B_2 Na 1.13486(13) -0.09870(16) 0.55884(17)
Na1C Na -0.13486(13) 0.40130(16) -0.05884(17)
Na1C_2 Na 0.86514(13) 0.40130(16) -0.05884(17)
O1B O 0.18097(18) -0.2567(3) -0.0770(3)
O1A O 0.18097(18) -0.2433(3) -0.5770(3)
O1C O 0.81903(18) 0.2433(3) 0.5770(3)
O2B O 0.20166(19) -0.1194(3) -0.2240(3)
O3B O 0.5596(2) -0.3807(4) -0.1822(7)
O4B O 0.84452(19) 0.0032(3) -0.0284(3)
O5B O 0.90892(19) -0.1036(3) -0.1741(3)
O5_2 O 1.09108(19) 0.1036(3) 0.1741(3)
O5B_2 O -0.09108(19) -0.1036(3) -0.1741(3)
O6B O 0.00833(19) 0.1042(2) -0.0854(3)
O6_2 O -0.00833(19) -0.1042(2) 0.0854(3)
O6B_2 O 1.00833(19) 0.1042(2) -0.0854(3)
O7B O -0.05195(18) 0.2651(3) -0.1823(3)
O7A O 0.94805(18) 0.2349(3) 0.3177(3)
O7C O 0.05195(18) -0.2349(3) -0.3177(3)
O8B O 0.05600(18) 0.0210(3) -0.3053(2)
O9B O -0.00400(19) 0.1800(3) -0.4057(2)
O9_2 O 0.00400(19) -0.1800(3) -0.5943(2)
O9A O 0.99600(19) 0.3200(3) 0.0943(2)
O9B_2 O 0.99600(19) 0.1800(3) 0.5943(2)
O9C O 0.00400(19) -0.3200(3) -0.0943(2)
O10B O 0.1328(3) 0.0760(4) -0.5595(4)
H1B H 0.1451 0.1479 -0.5353
H2B H 0.1008 0.0813 -0.6262
C1B C 0.3143(3) -0.2563(4) -0.1687(4)
C2B C 0.3407(3) -0.3634(6) -0.1106(7)
H3B H 0.3027 -0.4094 -0.0674
C3B C 0.4227(4) -0.4032(6) -0.1154(8)
H4B H 0.4398 -0.4758 -0.0766
C4B C 0.4781(3) -0.3345(5) -0.1777(7)
C5B C 0.4534(4) -0.2319(6) -0.2424(8)
H5B H 0.4913 -0.1890 -0.2891
C6B C 0.3706(3) -0.1925(6) -0.2373(7)
H6B H 0.3532 -0.1225 -0.2807
C7B C 0.2276(3) -0.2084(4) -0.1569(4)
C8B C 0.7688(3) -0.1552(4) -0.1333(4)
C9B C 0.7686(3) -0.2581(5) -0.2086(5)
H7B H 0.8168 -0.2783 -0.2493
C10B C 0.6980(3) -0.3319(5) -0.2249(5)
H8B H 0.6991 -0.4016 -0.2747
C11B C 0.6264(3) -0.3001(5) -0.1661(6)
C12B C 0.6253(4) -0.1982(7) -0.0898(8)
H9B H 0.5770 -0.1783 -0.0489
C13B C 0.6962(4) -0.1258(6) -0.0742(7)
H10B H 0.6951 -0.0567 -0.0236
C14B C 0.8465(3) -0.0797(4) -0.1110(4)
C15B C -0.0118(2) 0.1677(4) -0.1814(3)
C16B C 0.0158(3) 0.1182(3) -0.3096(4)
loop_
_geom_bond_atom_site_label_1
_geom_bond_atom_site_label_2
_geom_bond_site_symmetry_1
_geom_bond_site_symmetry_2
Nd1 O1 1_555 1_555
Na1 O2 1_555 1_555
O1 C7 1_555 1_555
O2 Nd1 1_555 1_555
O3 C4 1_555 1_555
O4 C14 1_555 1_555
O5 C14 1_555 1_555
O6 Nd1 1_555 1_555
O7 C15 1_555 1_555
O8 Nd1 1_555 1_555
O9 C16 1_555 1_555
O10 Na1 1_555 1_555
H1 O10 1_555 1_555
H2 O10 1_555 1_555
C1 C2 1_555 1_555
C2 H3 1_555 1_555
C3 C2 1_555 1_555
H4 C3 1_555 1_555
C4 C3 1_555 1_555
C5 C4 1_555 1_555
H5 C5 1_555 1_555
C6 C1 1_555 1_555
H6 C6 1_555 1_555
C7 O2 1_555 1_555
C8 C9 1_555 1_555
C9 H7 1_555 1_555
C10 C9 1_555 1_555
H8 C10 1_555 1_555
C11 O3 1_555 1_555
C12 C11 1_555 1_555
H9 C12 1_555 1_555
C13 C8 1_555 1_555
H10 C13 1_555 1_555
C14 C8 1_555 1_555
C15 O6 1_555 1_555
C16 O8 1_555 1_555
Nd1B O4 1_555 1_555
Nd1_2 O5 1_555 1_555
Nd1A O7 1_555 1_555
Nd1B_2 O6 1_555 1_555
Nd1C O7B 1_555 1_555
Na1B O1A 1_555 1_555
Na1_2 O9B 1_555 1_555
Na1A O1B 1_555 1_555
Na1A_2 O7 1_555 1_555
Na1B_2 O9 1_555 1_555
Na1C O7B 1_555 1_555
Na1C_2 O1 1_555 1_555
O1B Nd1B 1_555 1_555
O1C Na1 1_555 1_555
O2B Nd1B 1_555 1_555
O3B C4B 1_555 1_555
O4B Nd1 1_555 1_555
O5B Nd1B_2 1_555 1_555
O5_2 Nd1 1_555 1_555
O5B_2 Nd1B 1_555 1_555
O6B Nd1B 1_555 1_555
O6_2 Nd1B 1_555 1_555
O6B_2 Nd1 1_555 1_555
O7B C15B 1_555 1_555
O7A Nd1 1_555 1_555
O7C Nd1B 1_555 1_555
O8B Nd1B 1_555 1_555
O9B Nd1C 1_555 1_555
O9_2 Na1B 1_555 1_555
O9A Nd1 1_555 1_555
O9B_2 Na1 1_555 1_555
O9C Nd1B 1_555 1_555
O10B Na1B 1_555 1_555
H1B O10B 1_555 1_555
H2B O10B 1_555 1_555
C1B C2B 1_555 1_555
C2B H3B 1_555 1_555
C3B C2B 1_555 1_555
H4B C3B 1_555 1_555
C4B C3B 1_555 1_555
C5B C4B 1_555 1_555
H5B C5B 1_555 1_555
C6B C1B 1_555 1_555
H6B C6B 1_555 1_555
C7B O1B 1_555 1_555
C8B C9B 1_555 1_555
C9B H7B 1_555 1_555
C10B C9B 1_555 1_555
H8B C10B 1_555 1_555
C11B O3B 1_555 1_555
C12B C11B 1_555 1_555
H9B C12B 1_555 1_555
C13B C8B 1_555 1_555
H10B C13B 1_555 1_555
C14B O4B 1_555 1_555
C15B O6B 1_555 1_555
C16B O8B 1_555 1_555
Na1 O8 1_555 1_555
Na1 O7A 1_555 1_555
O9 Nd1A 1_555 1_555
C1 C7 1_555 1_555
C5 C6 1_555 1_555
C10 C11 1_555 1_555
C12 C13 1_555 1_555
C15 C16 1_555 1_555
Nd1_2 O6B 1_555 1_555
Nd1_2 O6_2 1_555 1_555
Nd1B_2 O6B_2 1_555 1_555
Na1B O2B 1_555 1_555
Na1B O7C 1_555 1_555
Na1B O8B 1_555 1_555
Na1A O9C 1_555 1_555
Na1C_2 O9A 1_555 1_555
O2B C7B 1_555 1_555
O5B C14B 1_555 1_555
O9B C16B 1_555 1_555
C1B C7B 1_555 1_555
C5B C6B 1_555 1_555
C8B C14B 1_555 1_555
C10B C11B 1_555 1_555
C12B C13B 1_555 1_555
C15B C16B 1_555 1_555

#END
