
#######################################################################
#
#                 Cambridge Crystallographic Data Centre
#                                CCDC 
#
#######################################################################
#
# If this CIF has been generated from an entry in the Cambridge 
# Structural Database, then it will include bibliographic, chemical, 
# crystal, experimental, refinement or atomic coordinate data resulting 
# from the CCDC's data processing and validation procedures.
#
#######################################################################

data_IBIROC
_symmetry_cell_setting           monoclinic
_symmetry_space_group_name_H-M   'P 21/c'
_symmetry_Int_Tables_number      14
_space_group_name_Hall           '-P 2ybc'
loop_
_symmetry_equiv_pos_site_id
_symmetry_equiv_pos_as_xyz
1 x,y,z
2 -x,1/2+y,1/2-z
3 -x,-y,-z
4 x,1/2-y,1/2+z
_cell_length_a                   15.903(5)
_cell_length_b                   10.933(3)
_cell_length_c                   10.540(3)
_cell_angle_alpha                90
_cell_angle_beta                 92.789(4)
_cell_angle_gamma                90
_cell_volume                     1830.39
loop_
_atom_site_label
_atom_site_type_symbol
_atom_site_fract_x
_atom_site_fract_y
_atom_site_fract_z
Sm1 Sm -0.060906(11) 0.108515(16) 0.120222(16)
Na1 Na -0.13389(13) 0.40131(15) -0.05739(17)
O1 O -0.19969(19) 0.1172(3) 0.2255(3)
O2 O -0.17819(18) 0.2539(3) 0.0770(3)
O3 O -0.5585(2) 0.3793(4) 0.1780(7)
O4 O -0.84577(19) 0.0003(3) 0.0207(3)
O5 O -0.90945(19) 0.1034(3) 0.1716(3)
O6 O -0.00333(19) 0.3183(3) 0.0940(2)
O7 O 0.05522(18) 0.4789(3) 0.1942(2)
O8 O -0.05115(19) 0.2323(3) 0.3177(2)
O9 O 0.0055(2) 0.3956(2) 0.4148(3)
O10 O -0.1323(3) 0.5763(4) 0.0621(3)
H1 H -0.1591 0.6259 0.1073
H2 H -0.0938 0.6163 0.0274
C1 C -0.3128(3) 0.2534(4) 0.1679(4)
C2 C -0.3705(3) 0.1906(5) 0.2360(7)
H3 H -0.3540 0.1203 0.2802
C3 C -0.4531(4) 0.2309(6) 0.2395(8)
H4 H -0.4917 0.1875 0.2854
C4 C -0.4773(3) 0.3340(5) 0.1755(6)
C5 C -0.4209(4) 0.4021(6) 0.1138(8)
H5 H -0.4374 0.4753 0.0751
C6 C -0.3380(3) 0.3613(6) 0.1088(6)
H6 H -0.2993 0.4070 0.0653
C7 C -0.2258(3) 0.2056(4) 0.1571(4)
C8 C -0.7685(3) 0.1552(4) 0.1296(4)
C9 C -0.7688(3) 0.2584(5) 0.2049(5)
H7 H -0.8175 0.2797 0.2450
C10 C -0.6976(3) 0.3308(5) 0.2216(6)
H8 H -0.6987 0.4005 0.2721
C11 C -0.6259(3) 0.2992(5) 0.1635(6)
C12 C -0.6246(4) 0.1968(7) 0.0868(8)
H9 H -0.5759 0.1763 0.0460
C13 C -0.6956(4) 0.1252(6) 0.0710(7)
H10 H -0.6944 0.0558 0.0202
C14 C -0.8468(3) 0.0811(4) 0.1061(4)
C15 C 0.0158(2) 0.3803(3) 0.1905(4)
C16 C -0.0127(2) 0.3310(4) 0.3195(3)
Sm1B Sm -0.939094(11) -0.108515(16) -0.120222(16)
Sm1_2 Sm -1.060906(11) 0.108515(16) 0.120222(16)
Sm1A Sm 0.060906(11) 0.608515(16) 0.379778(16)
Sm1C Sm -0.060906(11) 0.391485(16) 0.620222(16)
Na1C Na -0.13389(13) 0.09869(15) 0.44261(17)
Na1B Na 0.13389(13) 0.59869(15) 0.05739(17)
O1C O -0.19969(19) 0.3828(3) -0.2745(3)
O4B O -0.15423(19) -0.0003(3) -0.0207(3)
O5_2 O 0.09055(19) 0.1034(3) 0.1716(3)
O7A O -0.05522(18) -0.0211(3) 0.3058(2)
O7B O -0.05522(18) 0.5211(3) -0.1942(2)
O8C O -0.05115(19) 0.2677(3) -0.1823(2)
O9C O 0.0055(2) 0.1044(2) -0.0852(3)
O9A O -0.0055(2) -0.1044(2) 0.0852(3)
loop_
_geom_bond_atom_site_label_1
_geom_bond_atom_site_label_2
_geom_bond_site_symmetry_1
_geom_bond_site_symmetry_2
Sm1 O1 1_555 1_555
Na1 O2 1_555 1_555
O1 C7 1_555 1_555
O2 Sm1 1_555 1_555
O3 C4 1_555 1_555
O4 C14 1_555 1_555
O5 C14 1_555 1_555
O6 Sm1 1_555 1_555
O7 C15 1_555 1_555
O8 Sm1 1_555 1_555
O9 C16 1_555 1_555
O10 Na1 1_555 1_555
H1 O10 1_555 1_555
H2 O10 1_555 1_555
C1 C2 1_555 1_555
C2 H3 1_555 1_555
C3 C2 1_555 1_555
H4 C3 1_555 1_555
C4 C3 1_555 1_555
C5 C4 1_555 1_555
H5 C5 1_555 1_555
C6 C1 1_555 1_555
H6 C6 1_555 1_555
C7 O2 1_555 1_555
C8 C9 1_555 1_555
C9 H7 1_555 1_555
C10 C9 1_555 1_555
H8 C10 1_555 1_555
C11 O3 1_555 1_555
C12 C11 1_555 1_555
H9 C12 1_555 1_555
C13 C8 1_555 1_555
H10 C13 1_555 1_555
C14 C8 1_555 1_555
C15 O6 1_555 1_555
C16 O8 1_555 1_555
Sm1B O4 1_555 1_555
Sm1_2 O5 1_555 1_555
Sm1A O7 1_555 1_555
Sm1C O9 1_555 1_555
Na1C O1 1_555 1_555
Na1B O7 1_555 1_555
O1C Na1 1_555 1_555
O4B Sm1 1_555 1_555
O5_2 Sm1 1_555 1_555
O7A Sm1 1_555 1_555
O7B Na1 1_555 1_555
O8C Na1 1_555 1_555
O9C Sm1 1_555 1_555
O9A Sm1 1_555 1_555
Na1 O6 1_555 1_555
O8 Na1C 1_555 1_555
O9 Sm1A 1_555 1_555
C1 C7 1_555 1_555
C5 C6 1_555 1_555
C10 C11 1_555 1_555
C12 C13 1_555 1_555
C15 C16 1_555 1_555
Na1C O7A 1_555 1_555

#END
