
#######################################################################
#
#                 Cambridge Crystallographic Data Centre
#                                CCDC 
#
#######################################################################
#
# If this CIF has been generated from an entry in the Cambridge 
# Structural Database, then it will include bibliographic, chemical, 
# crystal, experimental, refinement or atomic coordinate data resulting 
# from the CCDC's data processing and validation procedures.
#
#######################################################################

data_IBISAP
_symmetry_cell_setting           monoclinic
_symmetry_space_group_name_H-M   'P 21/n'
_symmetry_Int_Tables_number      14
_space_group_name_Hall           '-P 2yn'
loop_
_symmetry_equiv_pos_site_id
_symmetry_equiv_pos_as_xyz
1 x,y,z
2 1/2-x,1/2+y,1/2-z
3 -x,-y,-z
4 1/2+x,1/2-y,1/2+z
_cell_length_a                   10.409(2)
_cell_length_b                   15.419(3)
_cell_length_c                   11.375(2)
_cell_angle_alpha                90
_cell_angle_beta                 100.85(3)
_cell_angle_gamma                90
_cell_volume                     1793.01
loop_
_atom_site_label
_atom_site_type_symbol
_atom_site_fract_x
_atom_site_fract_y
_atom_site_fract_z
C1 C 0.4226(2) -0.05156(16) 0.2803(2)
H1 H 0.4342 -0.0861 0.3486
C2 C 0.3065(3) -0.05881(17) 0.1974(2)
H2 H 0.2425 -0.0977 0.2109
C3 C 0.2859(3) -0.00881(17) 0.0955(2)
H3 H 0.2081 -0.0132 0.0401
C4 C 0.3843(2) 0.04911(15) 0.0765(2)
C5 C 0.3740(3) 0.10451(17) -0.0262(2)
H4 H 0.2998 0.1013 -0.0861
C6 C 0.4697(3) 0.16119(17) -0.0375(2)
H5 H 0.4610 0.1957 -0.1057
C7 C 0.5840(3) 0.16901(15) 0.0534(2)
C8 C 0.6839(3) 0.22973(19) 0.0511(3)
H6 H 0.6779 0.2685 -0.0123
C9 C 0.7900(3) 0.2317(2) 0.1424(3)
H7 H 0.8566 0.2718 0.1414
C10 C 0.7976(3) 0.17324(17) 0.2369(3)
H8 H 0.8712 0.1742 0.2976
C11 C 0.5994(2) 0.11388(14) 0.1534(2)
C12 C 0.4979(2) 0.05280(14) 0.16521(19)
C13 C 0.7340(2) 0.41295(14) 0.90720(19)
C14 C 0.7590(2) 0.34923(14) 0.81250(19)
C15 C 0.8778(2) 0.30542(14) 0.8217(2)
H9 H 0.9459 0.3173 0.8851
C16 C 0.8947(2) 0.24379(14) 0.7361(2)
H10 H 0.9741 0.2149 0.7429
C17 C 0.7938(2) 0.22520(14) 0.64046(19)
C18 C 0.8063(2) 0.15324(14) 0.5524(2)
C19 C 0.6761(2) 0.27054(15) 0.6299(2)
H11 H 0.6084 0.2593 0.5658
C20 C 0.6597(2) 0.33242(15) 0.7148(2)
H12 H 0.5814 0.3629 0.7063
Co1 Co 0.69403(3) 0.022861(19) 0.38354(3)
Co2 Co 1.0000 0.0000 0.5000
N1 N 0.51776(19) 0.00284(11) 0.26601(16)
N2 N 0.70376(19) 0.11631(12) 0.24334(18)
N3 N 0.86186(19) -0.02690(13) 0.34508(17)
N4 N 0.9018(2) -0.03010(15) 0.25229(18)
N5 N 0.9421(3) -0.0348(2) 0.1654(2)
O1 O 0.82834(16) 0.43211(10) 0.99056(14)
O2 O 0.61933(16) 0.44010(12) 0.89687(14)
O3 O 0.69881(16) 0.12498(11) 0.49308(15)
O4 O 0.91697(16) 0.12611(11) 0.54360(15)
C1B C 1.5774(2) 0.05156(16) 0.7197(2)
H1B H 1.5658 0.0861 0.6514
C2B C 1.6935(3) 0.05881(17) 0.8026(2)
H2B H 1.7575 0.0977 0.7891
C3B C 1.7141(3) 0.00881(17) 0.9045(2)
H3B H 1.7919 0.0132 0.9599
C4B C 1.6157(2) -0.04911(15) 0.9235(2)
C5B C 1.6260(3) -0.10451(17) 1.0262(2)
H4B H 1.7002 -0.1013 1.0861
C6B C 1.5303(3) -0.16119(17) 1.0375(2)
H5B H 1.5390 -0.1957 1.1057
C7B C 1.4160(3) -0.16901(15) 0.9466(2)
C8B C 1.3161(3) -0.22973(19) 0.9489(3)
H6B H 1.3221 -0.2685 1.0123
C9B C 1.2100(3) -0.2317(2) 0.8576(3)
H7B H 1.1434 -0.2718 0.8586
C10B C 1.2024(3) -0.17324(17) 0.7631(3)
H8B H 1.1288 -0.1742 0.7024
C11B C 1.4006(2) -0.11388(14) 0.8466(2)
C12B C 1.5021(2) -0.05280(14) 0.83479(19)
C13B C 1.2660(2) -0.41295(14) 0.09280(19)
C14B C 1.2410(2) -0.34923(14) 0.18750(19)
C15B C 1.1222(2) -0.30542(14) 0.1783(2)
H9B H 1.0541 -0.3173 0.1149
C16B C 1.1053(2) -0.24379(14) 0.2639(2)
H10B H 1.0259 -0.2149 0.2571
C17B C 1.2062(2) -0.22520(14) 0.35954(19)
C18B C 1.1937(2) -0.15324(14) 0.4476(2)
C19B C 1.3239(2) -0.27054(15) 0.3701(2)
H11B H 1.3916 -0.2593 0.4342
C20B C 1.3403(2) -0.33242(15) 0.2852(2)
H12B H 1.4186 -0.3629 0.2937
Co1B Co 1.30597(3) -0.022861(19) 0.61646(3)
Co1A Co 0.80597(3) 0.522861(19) 1.11646(3)
Co1C Co 1.19403(3) -0.522861(19) -0.11646(3)
Co2A Co 0.5000 0.5000 1.0000
Co2A_2 Co 1.5000 -0.5000 0.0000
N1B N 1.48224(19) -0.00284(11) 0.73399(16)
N2B N 1.29624(19) -0.11631(12) 0.75666(18)
N3B N 1.13814(19) 0.02690(13) 0.65492(17)
N4B N 1.0982(2) 0.03010(15) 0.74771(18)
N5B N 1.0579(3) 0.0348(2) 0.8346(2)
O1B O 1.17166(16) -0.43211(10) 0.00944(14)
O1A O 0.67166(16) -0.06789(10) 0.50944(14)
O1C O 1.32834(16) 0.06789(10) 0.49056(14)
O2B O 1.38067(16) -0.44010(12) 0.10313(14)
O2C O 1.11933(16) 0.05990(12) 0.39687(14)
O2A O 0.88067(16) -0.05990(12) 0.60313(14)
O3B O 1.30119(16) -0.12498(11) 0.50692(15)
O4B O 1.08303(16) -0.12611(11) 0.45640(15)
loop_
_geom_bond_atom_site_label_1
_geom_bond_atom_site_label_2
_geom_bond_site_symmetry_1
_geom_bond_site_symmetry_2
C1 H1 1_555 1_555
C2 C1 1_555 1_555
H2 C2 1_555 1_555
C3 C2 1_555 1_555
H3 C3 1_555 1_555
C4 C3 1_555 1_555
C5 C4 1_555 1_555
H4 C5 1_555 1_555
C6 C5 1_555 1_555
H5 C6 1_555 1_555
C7 C6 1_555 1_555
C8 C7 1_555 1_555
H6 C8 1_555 1_555
C9 C8 1_555 1_555
H7 C9 1_555 1_555
C10 C9 1_555 1_555
H8 C10 1_555 1_555
C11 C7 1_555 1_555
C12 C4 1_555 1_555
C13 C14 1_555 1_555
C14 C15 1_555 1_555
C15 H9 1_555 1_555
C16 C15 1_555 1_555
H10 C16 1_555 1_555
C17 C16 1_555 1_555
C18 C17 1_555 1_555
C19 C17 1_555 1_555
H11 C19 1_555 1_555
C20 C14 1_555 1_555
H12 C20 1_555 1_555
Co1 N1 1_555 1_555
Co2 N3 1_555 1_555
N1 C1 1_555 1_555
N2 C10 1_555 1_555
N3 Co1 1_555 1_555
N4 N3 1_555 1_555
N5 N4 1_555 1_555
O1 C13 1_555 1_555
O2 C13 1_555 1_555
O3 C18 1_555 1_555
O4 C18 1_555 1_555
C1B H1B 1_555 1_555
C2B C1B 1_555 1_555
H2B C2B 1_555 1_555
C3B C2B 1_555 1_555
H3B C3B 1_555 1_555
C4B C3B 1_555 1_555
C5B C4B 1_555 1_555
H4B C5B 1_555 1_555
C6B C5B 1_555 1_555
H5B C6B 1_555 1_555
C7B C6B 1_555 1_555
C8B C7B 1_555 1_555
H6B C8B 1_555 1_555
C9B C8B 1_555 1_555
H7B C9B 1_555 1_555
C10B C9B 1_555 1_555
H8B C10B 1_555 1_555
C11B C7B 1_555 1_555
C12B C4B 1_555 1_555
C13B C14B 1_555 1_555
C14B C15B 1_555 1_555
C15B H9B 1_555 1_555
C16B C15B 1_555 1_555
H10B C16B 1_555 1_555
C17B C16B 1_555 1_555
C18B C17B 1_555 1_555
C19B C17B 1_555 1_555
H11B C19B 1_555 1_555
C20B C14B 1_555 1_555
H12B C20B 1_555 1_555
Co1B N1B 1_555 1_555
Co1A O1 1_555 1_555
Co1C O1B 1_555 1_555
Co2A O2 1_555 1_555
Co2A_2 O2B 1_555 1_555
N1B C1B 1_555 1_555
N2B C10B 1_555 1_555
N3B Co2 1_555 1_555
N4B N3B 1_555 1_555
N5B N4B 1_555 1_555
O1B C13B 1_555 1_555
O1A Co1 1_555 1_555
O1C Co1B 1_555 1_555
O2B C13B 1_555 1_555
O2C Co2 1_555 1_555
O2A Co2 1_555 1_555
O3B C18B 1_555 1_555
O4B Co2 1_555 1_555
C11 C12 1_555 1_555
C11 N2 1_555 1_555
C12 N1 1_555 1_555
C19 C20 1_555 1_555
Co1 N2 1_555 1_555
Co1 O3 1_555 1_555
Co2 O4 1_555 1_555
C11B C12B 1_555 1_555
C11B N2B 1_555 1_555
C12B N1B 1_555 1_555
C18B O4B 1_555 1_555
C19B C20B 1_555 1_555
Co1B N2B 1_555 1_555
Co1B N3B 1_555 1_555
Co1B O3B 1_555 1_555

#END
