
#######################################################################
#
#                 Cambridge Crystallographic Data Centre
#                                CCDC 
#
#######################################################################
#
# If this CIF has been generated from an entry in the Cambridge 
# Structural Database, then it will include bibliographic, chemical, 
# crystal, experimental, refinement or atomic coordinate data resulting 
# from the CCDC's data processing and validation procedures.
#
#######################################################################

data_IBISUJ
_symmetry_cell_setting           triclinic
_symmetry_space_group_name_H-M   'P -1'
_symmetry_Int_Tables_number      2
_space_group_name_Hall           '-P 1'
loop_
_symmetry_equiv_pos_site_id
_symmetry_equiv_pos_as_xyz
1 x,y,z
2 -x,-y,-z
_cell_length_a                   9.0312(8)
_cell_length_b                   11.3671(10)
_cell_length_c                   12.1622(11)
_cell_angle_alpha                117.3780(10)
_cell_angle_beta                 92.0570(10)
_cell_angle_gamma                101.6630(10)
_cell_volume                     1073.83
loop_
_atom_site_label
_atom_site_type_symbol
_atom_site_fract_x
_atom_site_fract_y
_atom_site_fract_z
Eu1 Eu 0.146029(15) 0.407282(14) 0.495228(13)
S1 S 0.54894(8) 0.45710(8) 0.63747(7)
S2 S -0.09046(9) 0.30255(8) 0.20705(7)
O1 O 0.0018(2) 0.2640(2) 0.2812(2)
O2 O -0.1616(3) 0.4120(2) 0.2847(2)
O3 O -0.0117(3) 0.3266(3) 0.1163(2)
O4 O 0.3976(2) 0.4702(3) 0.6067(2)
O5 O 0.6692(2) 0.5709(2) 0.64785(19)
O6 O 0.5762(3) 0.3254(2) 0.5575(2)
O7 O 0.1000(2) 0.5863(2) 0.47435(19)
H1 H 0.1690 0.6458 0.4567
N1 N 0.0934(3) 0.2794(3) 0.6283(2)
N2 N 0.2201(3) 0.1737(3) 0.4148(2)
C1 C 0.2822(5) 0.1214(4) 0.3113(4)
H2 H 0.2845 0.1620 0.2600
C2 C 0.3448(5) 0.0082(4) 0.2752(4)
H3 H 0.3871 -0.0251 0.2014
C3 C 0.3431(5) -0.0528(4) 0.3491(4)
H4 H 0.3842 -0.1281 0.3264
C4 C 0.2784(4) -0.0006(3) 0.4595(3)
C5 C 0.2178(4) 0.1128(3) 0.4886(3)
C6 C 0.1493(4) 0.1680(3) 0.6010(3)
C7 C 0.1417(4) 0.1055(4) 0.6785(3)
C8 C 0.2044(5) -0.0103(4) 0.6450(4)
H5 H 0.1993 -0.0517 0.6958
C9 C 0.2709(4) -0.0604(4) 0.5409(4)
H6 H 0.3125 -0.1349 0.5216
C10 C 0.0278(4) 0.3285(4) 0.7306(3)
H7 H -0.0113 0.4043 0.7496
C11 C 0.0147(5) 0.2714(4) 0.8117(4)
H8 H -0.0329 0.3085 0.8822
C12 C 0.0720(5) 0.1620(4) 0.7864(4)
H9 H 0.0655 0.1243 0.8401
C13 C -0.3901(4) 0.1777(3) 0.1112(3)
H10 H -0.4068 0.2643 0.1572
C14 C -0.2178(4) 0.0271(3) 0.0537(3)
H11 H -0.1193 0.0158 0.0603
C15 C -0.5134(4) 0.0661(3) 0.0330(3)
C16 C -0.2461(3) 0.1583(3) 0.1193(3)
C17 C -0.3362(4) -0.0827(3) -0.0193(3)
H12 H -0.3183 -0.1694 -0.0607
C18 C 0.5521(3) 0.4742(3) 0.7902(3)
C19 C 0.4305(3) 0.4970(3) 0.8520(3)
H13 H 0.3445 0.5060 0.8150
C20 C 0.6837(4) 0.4599(4) 0.8434(3)
H14 H 0.7666 0.4454 0.8000
C21 C 0.4338(3) 0.5072(3) 0.9731(3)
C22 C 0.6895(4) 0.4672(4) 0.9585(3)
H15 H 0.7756 0.4552 0.9923
Eu1A Eu -1.146029(15) -0.407282(14) -0.495228(13)
Eu1A_2 Eu -0.146029(15) 0.592718(14) 0.504772(13)
Eu1A_3 Eu 0.853971(15) 0.592718(14) 0.504772(13)
Eu1A_4 Eu 0.853971(15) 0.592718(14) 1.504772(13)
Eu1_2 Eu 0.146029(15) 0.407282(14) 1.495228(13)
Eu1_3 Eu -0.853971(15) -0.592718(14) -0.504772(13)
S1A S 0.45106(8) 0.54290(8) 1.36253(7)
S2A S -0.90954(9) -0.30255(8) -0.20705(7)
O1A O -1.0018(2) -0.2640(2) -0.2812(2)
O2A O -0.8384(3) -0.4120(2) -0.2847(2)
O2A_2 O 0.1616(3) 0.5880(2) 0.7153(2)
O2_2 O -1.1616(3) -0.5880(2) -0.7153(2)
O3A O -0.9883(3) -0.3266(3) -0.1163(2)
O4A O 0.6024(2) 0.5298(3) 1.3933(2)
O4A_2 O -1.3976(2) -0.4702(3) -0.6067(2)
O5A O 0.3308(2) 0.4291(2) 1.35215(19)
O5A_2 O 0.3308(2) 0.4291(2) 0.35215(19)
O5_2 O -1.3308(2) -0.4291(2) -0.35215(19)
O6A O 0.4238(3) 0.6746(2) 1.4425(2)
O7A O -0.1000(2) 0.4137(2) 0.52565(19)
O7A_2 O -1.1000(2) -0.5863(2) -0.47435(19)
O7_2 O -0.9000(2) -0.4137(2) -0.52565(19)
H1A H -0.1690 0.3542 0.5433
H1A_2 H -1.1690 -0.6458 -0.4567
H1_2 H -0.8310 -0.3542 -0.5433
N1A N -1.0934(3) -0.2794(3) -0.6283(2)
N2A N -1.2201(3) -0.1737(3) -0.4148(2)
C1A C -1.2822(5) -0.1214(4) -0.3113(4)
H2A H -1.2845 -0.1620 -0.2600
C2A C -1.3448(5) -0.0082(4) -0.2752(4)
H3A H -1.3871 0.0251 -0.2014
C3A C -1.3431(5) 0.0528(4) -0.3491(4)
H4A H -1.3842 0.1281 -0.3264
C4A C -1.2784(4) 0.0006(3) -0.4595(3)
C5A C -1.2178(4) -0.1128(3) -0.4886(3)
C6A C -1.1493(4) -0.1680(3) -0.6010(3)
C7A C -1.1417(4) -0.1055(4) -0.6785(3)
C8A C -1.2044(5) 0.0103(4) -0.6450(4)
H5A H -1.1993 0.0517 -0.6958
C9A C -1.2709(4) 0.0604(4) -0.5409(4)
H6A H -1.3125 0.1349 -0.5216
C10A C -1.0278(4) -0.3285(4) -0.7306(3)
H7A H -0.9887 -0.4043 -0.7496
C11A C -1.0147(5) -0.2714(4) -0.8117(4)
H8A H -0.9671 -0.3085 -0.8822
C12A C -1.0720(5) -0.1620(4) -0.7864(4)
H9A H -1.0655 -0.1243 -0.8401
C13A C -0.6099(4) -0.1777(3) -0.1112(3)
H10A H -0.5932 -0.2643 -0.1572
C14A C -0.7822(4) -0.0271(3) -0.0537(3)
H11A H -0.8807 -0.0158 -0.0603
C15A C -0.4866(4) -0.0661(3) -0.0330(3)
C16A C -0.7539(3) -0.1583(3) -0.1193(3)
C17A C -0.6638(4) 0.0827(3) 0.0193(3)
H12A H -0.6817 0.1694 0.0607
C18A C 0.4479(3) 0.5258(3) 1.2098(3)
C19A C 0.5695(3) 0.5030(3) 1.1480(3)
H13A H 0.6555 0.4940 1.1850
C20A C 0.3163(4) 0.5401(4) 1.1566(3)
H14A H 0.2334 0.5546 1.2000
C21A C 0.5662(3) 0.4928(3) 1.0269(3)
C22A C 0.3105(4) 0.5328(4) 1.0415(3)
H15A H 0.2244 0.5448 1.0077
loop_
_geom_bond_atom_site_label_1
_geom_bond_atom_site_label_2
_geom_bond_site_symmetry_1
_geom_bond_site_symmetry_2
Eu1 O1 1_555 1_555
S1 O4 1_555 1_555
S2 O1 1_555 1_555
O2 S2 1_555 1_555
O3 S2 1_555 1_555
O4 Eu1 1_555 1_555
O5 S1 1_555 1_555
O6 S1 1_555 1_555
O7 Eu1 1_555 1_555
H1 O7 1_555 1_555
N1 Eu1 1_555 1_555
N2 Eu1 1_555 1_555
C1 N2 1_555 1_555
H2 C1 1_555 1_555
C2 C1 1_555 1_555
H3 C2 1_555 1_555
C3 C2 1_555 1_555
H4 C3 1_555 1_555
C4 C3 1_555 1_555
C5 N2 1_555 1_555
C6 N1 1_555 1_555
C7 C6 1_555 1_555
C8 C7 1_555 1_555
H5 C8 1_555 1_555
C9 C4 1_555 1_555
H6 C9 1_555 1_555
C10 N1 1_555 1_555
H7 C10 1_555 1_555
C11 C10 1_555 1_555
H8 C11 1_555 1_555
C12 C7 1_555 1_555
H9 C12 1_555 1_555
C13 H10 1_555 1_555
C14 H11 1_555 1_555
C15 C13 1_555 1_555
C16 S2 1_555 1_555
C17 C14 1_555 1_555
H12 C17 1_555 1_555
C18 S1 1_555 1_555
C19 C18 1_555 1_555
H13 C19 1_555 1_555
C20 C18 1_555 1_555
H14 C20 1_555 1_555
C21 C19 1_555 1_555
C22 C20 1_555 1_555
H15 C22 1_555 1_555
Eu1A O1A 1_555 1_555
Eu1A_2 O2 1_555 1_555
Eu1A_3 O5 1_555 1_555
Eu1A_4 O4A 1_555 1_555
Eu1_2 O5A 1_555 1_555
Eu1_3 O2A 1_555 1_555
S1A O4A 1_555 1_555
S2A O1A 1_555 1_555
O2A S2A 1_555 1_555
O2A_2 Eu1 1_555 1_555
O2_2 Eu1A 1_555 1_555
O3A S2A 1_555 1_555
O4A_2 Eu1A 1_555 1_555
O5A S1A 1_555 1_555
O5A_2 Eu1 1_555 1_555
O5_2 Eu1A 1_555 1_555
O6A S1A 1_555 1_555
O7A Eu1 1_555 1_555
O7A_2 Eu1A 1_555 1_555
O7_2 Eu1A 1_555 1_555
H1A O7A 1_555 1_555
H1A_2 O7A_2 1_555 1_555
H1_2 O7_2 1_555 1_555
N1A Eu1A 1_555 1_555
N2A Eu1A 1_555 1_555
C1A N2A 1_555 1_555
H2A C1A 1_555 1_555
C2A C1A 1_555 1_555
H3A C2A 1_555 1_555
C3A C2A 1_555 1_555
H4A C3A 1_555 1_555
C4A C3A 1_555 1_555
C5A N2A 1_555 1_555
C6A N1A 1_555 1_555
C7A C6A 1_555 1_555
C8A C7A 1_555 1_555
H5A C8A 1_555 1_555
C9A C4A 1_555 1_555
H6A C9A 1_555 1_555
C10A N1A 1_555 1_555
H7A C10A 1_555 1_555
C11A C10A 1_555 1_555
H8A C11A 1_555 1_555
C12A C7A 1_555 1_555
H9A C12A 1_555 1_555
C13A H10A 1_555 1_555
C14A H11A 1_555 1_555
C15A C15 1_555 1_555
C16A S2A 1_555 1_555
C17A C15 1_555 1_555
H12A C17A 1_555 1_555
C18A S1A 1_555 1_555
C19A C18A 1_555 1_555
H13A C19A 1_555 1_555
C20A C18A 1_555 1_555
H14A C20A 1_555 1_555
C21A C21 1_555 1_555
C22A C21 1_555 1_555
H15A C22A 1_555 1_555
O7 Eu1A_2 1_555 1_555
C4 C5 1_555 1_555
C5 C6 1_555 1_555
C8 C9 1_555 1_555
C11 C12 1_555 1_555
C13 C16 1_555 1_555
C14 C16 1_555 1_555
C17 C15A 1_555 1_555
C22 C21A 1_555 1_555
Eu1A_2 O7A 1_555 1_555
Eu1_3 O7A_2 1_555 1_555
Eu1_3 O7_2 1_555 1_555
C4A C5A 1_555 1_555
C5A C6A 1_555 1_555
C8A C9A 1_555 1_555
C11A C12A 1_555 1_555
C13A C15A 1_555 1_555
C13A C16A 1_555 1_555
C14A C16A 1_555 1_555
C14A C17A 1_555 1_555
C19A C21A 1_555 1_555
C20A C22A 1_555 1_555

#END
