
#######################################################################
#
#                 Cambridge Crystallographic Data Centre
#                                CCDC 
#
#######################################################################
#
# If this CIF has been generated from an entry in the Cambridge 
# Structural Database, then it will include bibliographic, chemical, 
# crystal, experimental, refinement or atomic coordinate data resulting 
# from the CCDC's data processing and validation procedures.
#
#######################################################################

data_IBISIX
_symmetry_cell_setting           triclinic
_symmetry_space_group_name_H-M   'P -1'
_symmetry_Int_Tables_number      2
_space_group_name_Hall           '-P 1'
loop_
_symmetry_equiv_pos_site_id
_symmetry_equiv_pos_as_xyz
1 x,y,z
2 -x,-y,-z
_cell_length_a                   10.3014(12)
_cell_length_b                   10.5244(12)
_cell_length_c                   18.915(2)
_cell_angle_alpha                75.457(2)
_cell_angle_beta                 82.8670(10)
_cell_angle_gamma                83.3300(10)
_cell_volume                     1961.9
loop_
_atom_site_label
_atom_site_type_symbol
_atom_site_fract_x
_atom_site_fract_y
_atom_site_fract_z
Eu1 Eu 0.333808(16) 0.734116(16) 0.261544(9)
S1 S 0.00568(9) 0.71932(9) 0.37192(5)
S2 S 0.55319(8) 0.43835(8) 0.22553(4)
S3 S 0.18702(10) 1.07020(9) 0.17315(5)
O1 O 0.4839(3) 0.3241(3) 0.25824(14)
O2 O 0.6905(2) 0.4243(3) 0.23716(13)
O3 O 0.4884(2) 0.5567(2) 0.24731(12)
O4 O 0.0120(4) 0.5850(3) 0.41143(17)
O5 O -0.1103(3) 0.7625(3) 0.33372(19)
O6 O 0.1231(2) 0.7522(3) 0.32089(15)
O7 O 0.2595(3) 0.9480(3) 0.20742(15)
O8 O 0.5365(3) 0.8288(3) 0.22548(16)
H1 H 0.6056 0.7832 0.2340
H2 H 0.5538 0.9031 0.2250
O9 O 0.2733(4) 1.1655(3) 0.13259(17)
O10 O 0.0906(3) 1.1142(3) 0.22645(18)
N1 N 0.1930(3) 0.5846(3) 0.21815(18)
N2 N 0.3476(3) 0.7543(3) 0.12082(17)
N3 N 0.3510(3) 0.5872(3) 0.39172(15)
N4 N 0.3542(3) 0.8542(3) 0.36291(16)
C1 C 0.3494(4) 0.4578(4) 0.4068(2)
H3 H 0.3592 0.4172 0.3679
C2 C 0.3390(3) 0.6451(4) 0.44945(19)
C3 C 0.3238(4) 0.5727(4) 0.5228(2)
C4 C 0.3207(4) 0.4362(5) 0.5356(2)
H4 H 0.3097 0.3847 0.5833
C5 C 0.3341(4) 0.3792(4) 0.4775(2)
H5 H 0.3329 0.2884 0.4852
C6 C 0.3156(4) 0.6394(5) 0.5808(2)
H6 H 0.3049 0.5912 0.6293
C7 C 0.3232(4) 0.7695(5) 0.5666(2)
H7 H 0.3188 0.8101 0.6054
C8 C 0.3380(4) 0.8472(4) 0.4929(2)
C9 C 0.3438(3) 0.7854(4) 0.43397(19)
C10 C 0.3620(4) 0.9828(4) 0.3492(2)
H8 H 0.3688 1.0303 0.3005
C11 C 0.3605(4) 1.0515(4) 0.4036(3)
H9 H 0.3689 1.1417 0.3912
C12 C 0.3465(4) 0.9838(5) 0.4749(3)
H10 H 0.3426 1.0282 0.5120
C13 C 0.0014(3) 0.8170(4) 0.4364(2)
C14 C 0.0153(4) 0.9481(4) 0.4117(2)
H11 H 0.0282 0.9850 0.3615
C15 C 0.0102(4) 1.0291(4) 0.46188(19)
C16 C 0.0246(4) 1.1658(4) 0.4390(2)
H12 H 0.0385 1.2048 0.3891
C17 C -0.0186(4) 0.7580(4) 0.5119(2)
H13 H -0.0276 0.6681 0.5281
C18 C 0.6434(4) 0.5854(4) 0.0092(2)
H14 H 0.7059 0.6371 -0.0206
C19 C 0.5471(3) 0.5397(3) -0.02148(19)
C20 C 0.6446(4) 0.5531(4) 0.0837(2)
H15 H 0.7073 0.5841 0.1049
C21 C 0.5502(4) 0.4722(3) 0.12905(18)
C22 C 0.4575(4) 0.4258(3) 0.1003(2)
H16 H 0.3972 0.3722 0.1308
C23 C 0.4303(5) 0.8256(4) 0.0723(2)
H17 H 0.4977 0.8578 0.0893
C24 C 0.4215(5) 0.8554(5) -0.0040(2)
H18 H 0.4836 0.9033 -0.0367
C25 C 0.3204(6) 0.8124(5) -0.0287(3)
H19 H 0.3106 0.8338 -0.0787
C26 C 0.2321(5) 0.7370(4) 0.0203(2)
C27 C 0.1235(5) 0.6867(5) -0.0023(3)
H20 H 0.1078 0.7099 -0.0515
C28 C 0.0461(5) 0.6079(5) 0.0461(3)
H21 H -0.0256 0.5803 0.0305
C29 C 0.0696(4) 0.5644(4) 0.1213(3)
C30 C 0.2513(4) 0.7062(4) 0.0951(2)
C31 C 0.1692(4) 0.6176(4) 0.1464(2)
C32 C 0.0248(5) 0.4341(5) 0.2435(3)
H22 H -0.0202 0.3698 0.2774
C33 C 0.1219(4) 0.4953(4) 0.2641(3)
H23 H 0.1380 0.4723 0.3132
C34 C -0.0019(5) 0.4715(5) 0.1720(3)
H24 H -0.0684 0.4347 0.1570
C35 C -0.0057(4) 0.9444(4) 0.1378(2)
H25 H -0.0241 0.9132 0.1882
C36 C 0.0971(4) 1.0261(4) 0.1100(2)
C37 C 0.1257(4) 1.0732(4) 0.0364(2)
H26 H 0.1939 1.1270 0.0191
C38 C -0.0780(4) 0.9114(4) 0.0905(2)
H27 H -0.1453 0.8566 0.1087
C39 C 0.0515(4) 1.0401(3) -0.0140(2)
Eu1A Eu -0.333808(16) 1.265884(16) -0.261544(9)
Eu1A_2 Eu -0.333808(16) 1.265884(16) 0.738456(9)
Eu1A_3 Eu 0.666192(16) 0.265884(16) -0.261544(9)
S1A S -0.00568(9) 1.28068(9) 0.62808(5)
S2A S 0.44681(8) 0.56165(8) -0.22553(4)
S3A S -0.18702(10) 0.92980(9) -0.17315(5)
O1A O 0.5161(3) 0.6759(3) -0.25824(14)
O2A O 0.3095(2) 0.5757(3) -0.23716(13)
O3A O 0.5116(2) 0.4433(2) -0.24731(12)
O3A_2 O -0.4884(2) 1.4433(2) -0.24731(12)
O4A O -0.0120(4) 1.4150(3) 0.58857(17)
O5A O 0.1103(3) 1.2375(3) 0.66628(19)
O6A O -0.1231(2) 1.2478(3) 0.67911(15)
O6A_2 O -0.1231(2) 1.2478(3) -0.32089(15)
O7A O -0.2595(3) 1.0520(3) -0.20742(15)
O8A O -0.5365(3) 1.1712(3) -0.22548(16)
H1A H -0.6056 1.2168 -0.2340
H2A H -0.5538 1.0969 -0.2250
O9A O -0.2733(4) 0.8345(3) -0.13259(17)
O10A O -0.0906(3) 0.8858(3) -0.22645(18)
N1A N -0.1930(3) 1.4154(3) -0.21815(18)
N2A N -0.3476(3) 1.2457(3) -0.12082(17)
N3A N -0.3510(3) 1.4128(3) -0.39172(15)
N4A N -0.3542(3) 1.1458(3) -0.36291(16)
C1A C -0.3494(4) 1.5422(4) -0.4068(2)
H3A H -0.3592 1.5828 -0.3679
C2A C -0.3390(3) 1.3549(4) -0.44945(19)
C3A C -0.3238(4) 1.4273(4) -0.5228(2)
C4A C -0.3207(4) 1.5638(5) -0.5356(2)
H4A H -0.3097 1.6153 -0.5833
C5A C -0.3341(4) 1.6208(4) -0.4775(2)
H5A H -0.3329 1.7116 -0.4852
C6A C -0.3156(4) 1.3606(5) -0.5808(2)
H6A H -0.3049 1.4088 -0.6293
C7A C -0.3232(4) 1.2305(5) -0.5666(2)
H7A H -0.3188 1.1899 -0.6054
C8A C -0.3380(4) 1.1528(4) -0.4929(2)
C9A C -0.3438(3) 1.2146(4) -0.43397(19)
C10A C -0.3620(4) 1.0172(4) -0.3492(2)
H8A H -0.3688 0.9697 -0.3005
C11A C -0.3605(4) 0.9485(4) -0.4036(3)
H9A H -0.3689 0.8583 -0.3912
C12A C -0.3465(4) 1.0162(5) -0.4749(3)
H10A H -0.3426 0.9718 -0.5120
C13A C -0.0014(3) 1.1830(4) 0.5636(2)
C14A C -0.0153(4) 1.0519(4) 0.5883(2)
H11A H -0.0282 1.0150 0.6385
C15A C -0.0102(4) 0.9709(4) 0.53812(19)
C16A C -0.0246(4) 0.8342(4) 0.5610(2)
H12A H -0.0385 0.7952 0.6109
C17A C 0.0186(4) 1.2420(4) 0.4881(2)
H13A H 0.0276 1.3319 0.4719
C18A C 0.3566(4) 0.4146(4) -0.0092(2)
H14A H 0.2941 0.3629 0.0206
C19A C 0.4529(3) 0.4603(3) 0.02148(19)
C20A C 0.3554(4) 0.4469(4) -0.0837(2)
H15A H 0.2927 0.4159 -0.1049
C21A C 0.4498(4) 0.5278(3) -0.12905(18)
C22A C 0.5425(4) 0.5742(3) -0.1003(2)
H16A H 0.6028 0.6278 -0.1308
C23A C -0.4303(5) 1.1744(4) -0.0723(2)
H17A H -0.4977 1.1422 -0.0893
C24A C -0.4215(5) 1.1446(5) 0.0040(2)
H18A H -0.4836 1.0967 0.0367
C25A C -0.3204(6) 1.1876(5) 0.0287(3)
H19A H -0.3106 1.1662 0.0787
C26A C -0.2321(5) 1.2630(4) -0.0203(2)
C27A C -0.1235(5) 1.3133(5) 0.0023(3)
H20A H -0.1078 1.2901 0.0515
C28A C -0.0461(5) 1.3921(5) -0.0461(3)
H21A H 0.0256 1.4197 -0.0305
C29A C -0.0696(4) 1.4356(4) -0.1213(3)
C30A C -0.2513(4) 1.2938(4) -0.0951(2)
C31A C -0.1692(4) 1.3824(4) -0.1464(2)
C32A C -0.0248(5) 1.5659(5) -0.2435(3)
H22A H 0.0202 1.6302 -0.2774
C33A C -0.1219(4) 1.5047(4) -0.2641(3)
H23A H -0.1380 1.5277 -0.3132
C34A C 0.0019(5) 1.5285(5) -0.1720(3)
H24A H 0.0684 1.5653 -0.1570
C35A C 0.0057(4) 1.0556(4) -0.1378(2)
H25A H 0.0241 1.0868 -0.1882
C36A C -0.0971(4) 0.9739(4) -0.1100(2)
C37A C -0.1257(4) 0.9268(4) -0.0364(2)
H26A H -0.1939 0.8730 -0.0191
C38A C 0.0780(4) 1.0886(4) -0.0905(2)
H27A H 0.1453 1.1434 -0.1087
C39A C -0.0515(4) 0.9599(3) 0.0140(2)
O11 O 0.7660(3) 0.6857(3) 0.23106(18)
H28 H 0.8028 0.7035 0.2647
H29 H 0.7556 0.6053 0.2504
O12 O 0.5931(6) 0.0772(4) 0.2130(4)
H30 H 0.6533 0.0930 0.2357
H31 H 0.5388 0.1452 0.2052
O13 O 0.8186(5) 0.1746(6) 0.2219(5)
H32 H 0.7920 0.2540 0.2223
H33 H 0.9019 0.1671 0.2205
O14 O 0.3270(8) 0.0747(11) 0.6373(8)
H34 H 0.2534 0.1161 0.6409
H35 H 0.3236 0.0109 0.6721
loop_
_geom_bond_atom_site_label_1
_geom_bond_atom_site_label_2
_geom_bond_site_symmetry_1
_geom_bond_site_symmetry_2
Eu1 O3 1_555 1_555
S1 O4 1_555 1_555
S2 O1 1_555 1_555
S3 O7 1_555 1_555
O2 S2 1_555 1_555
O3 S2 1_555 1_555
O5 S1 1_555 1_555
O6 Eu1 1_555 1_555
O7 Eu1 1_555 1_555
O8 Eu1 1_555 1_555
H1 O8 1_555 1_555
H2 O8 1_555 1_555
O9 S3 1_555 1_555
O10 S3 1_555 1_555
N1 Eu1 1_555 1_555
N2 Eu1 1_555 1_555
N3 Eu1 1_555 1_555
N4 Eu1 1_555 1_555
C1 N3 1_555 1_555
H3 C1 1_555 1_555
C2 N3 1_555 1_555
C3 C2 1_555 1_555
C4 C3 1_555 1_555
H4 C4 1_555 1_555
C5 C1 1_555 1_555
H5 C5 1_555 1_555
C6 C3 1_555 1_555
H6 C6 1_555 1_555
C7 C6 1_555 1_555
H7 C7 1_555 1_555
C8 C7 1_555 1_555
C9 N4 1_555 1_555
C10 N4 1_555 1_555
H8 C10 1_555 1_555
C11 C10 1_555 1_555
H9 C11 1_555 1_555
C12 C8 1_555 1_555
H10 C12 1_555 1_555
C13 S1 1_555 1_555
C14 C13 1_555 1_555
H11 C14 1_555 1_555
C15 C14 1_555 1_555
C16 C15 1_555 1_555
H12 C16 1_555 1_555
C17 C13 1_555 1_555
H13 C17 1_555 1_555
C18 H14 1_555 1_555
C19 C18 1_555 1_555
C20 C18 1_555 1_555
H15 C20 1_555 1_555
C21 S2 1_555 1_555
C22 C21 1_555 1_555
H16 C22 1_555 1_555
C23 N2 1_555 1_555
H17 C23 1_555 1_555
C24 C23 1_555 1_555
H18 C24 1_555 1_555
C25 C24 1_555 1_555
H19 C25 1_555 1_555
C26 C25 1_555 1_555
C27 C26 1_555 1_555
H20 C27 1_555 1_555
C28 C27 1_555 1_555
H21 C28 1_555 1_555
C29 C28 1_555 1_555
C30 N2 1_555 1_555
C31 N1 1_555 1_555
C32 H22 1_555 1_555
C33 N1 1_555 1_555
H23 C33 1_555 1_555
C34 C29 1_555 1_555
H24 C34 1_555 1_555
C35 H25 1_555 1_555
C36 S3 1_555 1_555
C37 C36 1_555 1_555
H26 C37 1_555 1_555
C38 C35 1_555 1_555
H27 C38 1_555 1_555
C39 C37 1_555 1_555
O11 H28 1_555 1_555
H29 O11 1_555 1_555
O12 H30 1_555 1_555
H31 O12 1_555 1_555
O13 H32 1_555 1_555
H33 O13 1_555 1_555
O14 H34 1_555 1_555
H35 O14 1_555 1_555
Eu1A O3A_2 1_555 1_555
Eu1A_2 O6A 1_555 1_555
Eu1A_3 O3A 1_555 1_555
S1A O4A 1_555 1_555
S2A O1A 1_555 1_555
S3A O7A 1_555 1_555
O2A S2A 1_555 1_555
O3A S2A 1_555 1_555
O5A S1A 1_555 1_555
O6A S1A 1_555 1_555
O6A_2 Eu1A 1_555 1_555
O7A Eu1A 1_555 1_555
O8A Eu1A 1_555 1_555
H1A O8A 1_555 1_555
H2A O8A 1_555 1_555
O9A S3A 1_555 1_555
O10A S3A 1_555 1_555
N1A Eu1A 1_555 1_555
N2A Eu1A 1_555 1_555
N3A Eu1A 1_555 1_555
N4A Eu1A 1_555 1_555
C1A N3A 1_555 1_555
H3A C1A 1_555 1_555
C2A N3A 1_555 1_555
C3A C2A 1_555 1_555
C4A C3A 1_555 1_555
H4A C4A 1_555 1_555
C5A C1A 1_555 1_555
H5A C5A 1_555 1_555
C6A C3A 1_555 1_555
H6A C6A 1_555 1_555
C7A C6A 1_555 1_555
H7A C7A 1_555 1_555
C8A C7A 1_555 1_555
C9A N4A 1_555 1_555
C10A N4A 1_555 1_555
H8A C10A 1_555 1_555
C11A C10A 1_555 1_555
H9A C11A 1_555 1_555
C12A C8A 1_555 1_555
H10A C12A 1_555 1_555
C13A S1A 1_555 1_555
C14A C13A 1_555 1_555
H11A C14A 1_555 1_555
C15A C15 1_555 1_555
C16A C17 1_555 1_555
H12A C16A 1_555 1_555
C17A C16 1_555 1_555
H13A C17A 1_555 1_555
C18A H14A 1_555 1_555
C19A C19 1_555 1_555
C20A C18A 1_555 1_555
H15A C20A 1_555 1_555
C21A S2A 1_555 1_555
C22A C19 1_555 1_555
H16A C22A 1_555 1_555
C23A N2A 1_555 1_555
H17A C23A 1_555 1_555
C24A C23A 1_555 1_555
H18A C24A 1_555 1_555
C25A C24A 1_555 1_555
H19A C25A 1_555 1_555
C26A C25A 1_555 1_555
C27A C26A 1_555 1_555
H20A C27A 1_555 1_555
C28A C27A 1_555 1_555
H21A C28A 1_555 1_555
C29A C28A 1_555 1_555
C30A N2A 1_555 1_555
C31A N1A 1_555 1_555
C32A H22A 1_555 1_555
C33A N1A 1_555 1_555
H23A C33A 1_555 1_555
C34A C29A 1_555 1_555
H24A C34A 1_555 1_555
C35A H25A 1_555 1_555
C36A S3A 1_555 1_555
C37A C36A 1_555 1_555
H26A C37A 1_555 1_555
C38A C39 1_555 1_555
H27A C38A 1_555 1_555
C39A C38 1_555 1_555
S1 O6 1_555 1_555
C2 C9 1_555 1_555
C4 C5 1_555 1_555
C8 C9 1_555 1_555
C11 C12 1_555 1_555
C20 C21 1_555 1_555
C22 C19A 1_555 1_555
C26 C30 1_555 1_555
C29 C31 1_555 1_555
C30 C31 1_555 1_555
C32 C33 1_555 1_555
C32 C34 1_555 1_555
C35 C36 1_555 1_555
C39 C39A 1_555 1_555
C2A C9A 1_555 1_555
C4A C5A 1_555 1_555
C8A C9A 1_555 1_555
C11A C12A 1_555 1_555
C13A C17A 1_555 1_555
C14A C15A 1_555 1_555
C15A C16A 1_555 1_555
C18A C19A 1_555 1_555
C20A C21A 1_555 1_555
C21A C22A 1_555 1_555
C26A C30A 1_555 1_555
C29A C31A 1_555 1_555
C30A C31A 1_555 1_555
C32A C33A 1_555 1_555
C32A C34A 1_555 1_555
C35A C36A 1_555 1_555
C35A C38A 1_555 1_555
C37A C39A 1_555 1_555

#END
