
#######################################################################
#
#                 Cambridge Crystallographic Data Centre
#                                CCDC 
#
#######################################################################
#
# If this CIF has been generated from an entry in the Cambridge 
# Structural Database, then it will include bibliographic, chemical, 
# crystal, experimental, refinement or atomic coordinate data resulting 
# from the CCDC's data processing and validation procedures.
#
#######################################################################

data_IBITOE
_symmetry_cell_setting           monoclinic
_symmetry_space_group_name_H-M   'P 21/c'
_symmetry_Int_Tables_number      14
_space_group_name_Hall           '-P 2ybc'
loop_
_symmetry_equiv_pos_site_id
_symmetry_equiv_pos_as_xyz
1 x,y,z
2 -x,1/2+y,1/2-z
3 -x,-y,-z
4 x,1/2-y,1/2+z
_cell_length_a                   11.838(2)
_cell_length_b                   13.791(3)
_cell_length_c                   17.374(4)
_cell_angle_alpha                90
_cell_angle_beta                 94.02(3)
_cell_angle_gamma                90
_cell_volume                     2829.46
loop_
_atom_site_label
_atom_site_type_symbol
_atom_site_fract_x
_atom_site_fract_y
_atom_site_fract_z
O3 O -0.1511(4) -0.1573(4) 0.3624(3)
C5 C -0.0393(4) -0.0365(4) 0.4271(3)
C8 C -0.0917(5) -0.0852(4) 0.3555(4)
C12 C 0.0250(4) 0.0487(3) 0.4317(3)
C13 C -0.0617(4) -0.0819(4) 0.4948(3)
H11 H -0.1042 -0.1387 0.4914
O5 O -0.0752(5) -0.0520(4) 0.2885(3)
O8 O 0.1232(5) 0.1803(4) 0.3818(3)
C21 C 0.0631(5) 0.1117(5) 0.3656(3)
O11 O 0.0344(5) 0.0904(5) 0.2970(3)
O3B O 0.1511(4) 0.1573(4) 0.6376(3)
C5B C 0.0393(4) 0.0365(4) 0.5729(3)
C8B C 0.0917(5) 0.0852(4) 0.6445(4)
C12B C -0.0250(4) -0.0487(3) 0.5683(3)
C13B C 0.0617(4) 0.0819(4) 0.5052(3)
H11B H 0.1042 0.1387 0.5086
O5B O 0.0752(5) 0.0520(4) 0.7115(3)
O8B O -0.1232(5) -0.1803(4) 0.6182(3)
C21B C -0.0631(5) -0.1117(5) 0.6344(3)
O11B O -0.0344(5) -0.0904(5) 0.7030(3)
O9 O 0.2077(6) 0.0255(7) 0.1132(6)
O10 O 0.3313(9) 0.1950(8) 0.1180(6)
Zn1 Zn 0.35777(4) 0.37107(4) 1.37371(3)
S1 S 0.5428(2) 0.4618(2) 1.50998(16)
N1 N 0.4813(4) 0.2443(3) 0.8687(3)
N2 N 0.7795(3) -0.0317(3) 1.1269(3)
O1 O 0.2518(3) 0.2820(3) 1.2891(2)
H1 H 0.2120 0.2450 1.3123
O2 O 0.2818(4) 0.2909(4) 1.4635(3)
H2 H 0.3131 0.3054 1.5055
N3 N 0.6342(3) 0.3314(3) 0.8872(2)
N4 N 0.8853(3) 0.0967(3) 1.1304(3)
C1 C 0.7619(4) 0.3642(3) 1.0041(3)
N5 N 0.5838(3) 0.4644(3) 1.2141(3)
C2 C 0.7384(5) 0.3794(4) 0.9177(3)
H3 H 0.7325 0.4484 0.9072
H4 H 0.8018 0.3546 0.8912
O4 O 0.4512(4) 0.4479(3) 1.4558(3)
N6 N 0.9542(4) 0.0224(4) 1.1119(3)
C3 C 0.8266(4) 0.2857(4) 1.0315(3)
C4 C 0.7833(4) 0.0631(4) 1.1392(3)
H5 H 0.7222 0.1006 1.1523
N7 N 0.4990(4) 0.4380(4) 1.1604(3)
N8 N 0.6022(5) 0.3425(4) 0.8120(3)
N9 N 0.4376(3) 0.4332(3) 1.2801(3)
C6 C 0.5446(4) 0.4611(4) 1.2841(3)
H6 H 0.5869 0.4764 1.3297
C7 C 0.7193(4) 0.4329(4) 1.0556(3)
C9 C 0.9322(5) 0.1957(4) 1.1389(4)
H7 H 0.9548 0.2069 1.1929
H8 H 0.9996 0.1999 1.1104
C10 C 0.8862(4) -0.0530(4) 1.1105(4)
H9 H 0.9096 -0.1154 1.0992
C11 C 0.5629(4) 0.2721(4) 0.9200(3)
H10 H 0.5695 0.2530 0.9714
C14 C 0.6974(4) 0.4905(4) 1.1910(3)
H12 H 0.6939 0.5541 1.1669
H13 H 0.7491 0.4945 1.2367
C15 C 0.8054(4) 0.3379(4) 1.1641(3)
C16 C 0.8504(4) 0.2755(4) 1.1108(3)
C17 C 0.4143(4) 0.4201(5) 1.2036(3)
H14 H 0.3437 0.3998 1.1830
C18 C 0.5088(5) 0.2901(4) 0.8040(3)
H15 H 0.4654 0.2852 0.7575
O6 O 0.5497(7) 0.3513(15) 1.5841(7)
O7 O 0.6433(7) 0.4451(8) 1.4701(7)
C19 C 0.8240(6) 0.3222(5) 1.2494(4)
H16 H 0.8955 0.3496 1.2675
H17 H 0.7644 0.3531 1.2750
H18 H 0.8239 0.2540 1.2602
C20 C 0.8676(5) 0.2134(4) 0.9751(4)
H19 H 0.9467 0.2009 0.9871
H20 H 0.8257 0.1541 0.9785
H21 H 0.8567 0.2390 0.9238
C22 C 0.6511(4) 0.5183(4) 1.0250(4)
H22 H 0.6016 0.5395 1.0632
H23 H 0.6070 0.4998 0.9789
H24 H 0.7013 0.5702 1.0135
C23 C 0.7431(4) 0.4182(4) 1.1353(3)
Zn1B Zn 0.64223(4) 0.62893(4) 1.62629(3)
Zn1A Zn 0.64223(4) -0.12893(4) 1.12629(3)
Zn1A_2 Zn 0.64223(4) 0.87107(4) 2.12629(3)
Zn1C Zn 0.35777(4) 0.12893(4) 0.87371(3)
Zn1C_2 Zn 0.35777(4) 1.12893(4) 1.87371(3)
S1B S 0.4572(2) 0.5382(2) 1.49002(16)
N1B N 0.5187(4) 0.7557(3) 2.1313(3)
N1A N 0.5187(4) 0.7443(3) 1.6313(3)
N1C N 0.4813(4) 0.2557(3) 1.3687(3)
N2B N 0.2205(3) 1.0317(3) 1.8731(3)
N2A N 0.2205(3) 0.4683(3) 1.3731(3)
N2C N 0.7795(3) 0.5317(3) 1.6269(3)
O1B O 0.7482(3) 0.7180(3) 1.7109(2)
H1B H 0.7880 0.7550 1.6877
O2B O 0.7182(4) 0.7091(4) 1.5365(3)
H2B H 0.6869 0.6946 1.4945
N3B N 0.3658(3) 0.6686(3) 2.1128(2)
N4B N 0.1147(3) 0.9033(3) 1.8696(3)
C1B C 0.2381(4) 0.6358(3) 1.9959(3)
N5B N 0.4162(3) 0.5356(3) 1.7859(3)
C2B C 0.2616(5) 0.6206(4) 2.0823(3)
H3B H 0.2675 0.5516 2.0928
H4B H 0.1982 0.6454 2.1088
O4B O 0.5488(4) 0.5521(3) 1.5442(3)
N6B N 0.0458(4) 0.9776(4) 1.8881(3)
C3B C 0.1734(4) 0.7143(4) 1.9685(3)
C4B C 0.2167(4) 0.9369(4) 1.8608(3)
H5B H 0.2778 0.8994 1.8477
N7B N 0.5010(4) 0.5620(4) 1.8396(3)
N8B N 0.3978(5) 0.6575(4) 2.1880(3)
N9B N 0.5624(3) 0.5668(3) 1.7199(3)
C6B C 0.4554(4) 0.5389(4) 1.7159(3)
H6B H 0.4131 0.5236 1.6703
C7B C 0.2807(4) 0.5671(4) 1.9444(3)
C9B C 0.0678(5) 0.8043(4) 1.8611(4)
H7B H 0.0452 0.7931 1.8071
H8B H 0.0004 0.8001 1.8896
C10B C 0.1138(4) 1.0530(4) 1.8895(4)
H9B H 0.0904 1.1154 1.9008
C11B C 0.4371(4) 0.7279(4) 2.0800(3)
H10B H 0.4305 0.7470 2.0286
C14B C 0.3026(4) 0.5095(4) 1.8090(3)
H12B H 0.3061 0.4459 1.8331
H13B H 0.2509 0.5055 1.7633
C15B C 0.1946(4) 0.6621(4) 1.8359(3)
C16B C 0.1496(4) 0.7245(4) 1.8892(3)
C17B C 0.5857(4) 0.5799(5) 1.7964(3)
H14B H 0.6563 0.6002 1.8170
C18B C 0.4912(5) 0.7099(4) 2.1960(3)
H15B H 0.5346 0.7148 2.2425
O6B O 0.4503(7) 0.6487(15) 1.4159(7)
O7B O 0.3567(7) 0.5549(8) 1.5299(7)
C19B C 0.1760(6) 0.6778(5) 1.7506(4)
H16B H 0.1045 0.6504 1.7325
H17B H 0.2356 0.6469 1.7250
H18B H 0.1761 0.7460 1.7398
C20B C 0.1324(5) 0.7866(4) 2.0249(4)
H19B H 0.0533 0.7991 2.0129
H20B H 0.1743 0.8459 2.0215
H21B H 0.1433 0.7610 2.0762
C22B C 0.3489(4) 0.4817(4) 1.9750(4)
H22B H 0.3984 0.4605 1.9368
H23B H 0.3930 0.5002 2.0211
H24B H 0.2987 0.4298 1.9865
C23B C 0.2569(4) 0.5818(4) 1.8647(3)
loop_
_geom_bond_atom_site_label_1
_geom_bond_atom_site_label_2
_geom_bond_site_symmetry_1
_geom_bond_site_symmetry_2
Zn1 O1 1_555 1_555
S1 O4 1_555 1_555
N1 C11 1_555 1_555
N2 C4 1_555 1_555
O1 H1 1_555 1_555
O2 Zn1 1_555 1_555
H2 O2 1_555 1_555
N3 C2 1_555 1_555
N4 N6 1_555 1_555
C1 C2 1_555 1_555
O3 C8 1_555 1_555
N5 N7 1_555 1_555
C2 H3 1_555 1_555
H4 C2 1_555 1_555
O4 Zn1 1_555 1_555
N6 C10 1_555 1_555
C3 C1 1_555 1_555
C4 N4 1_555 1_555
H5 C4 1_555 1_555
C5 C8 1_555 1_555
N7 C17 1_555 1_555
N8 N3 1_555 1_555
N9 Zn1 1_555 1_555
C6 N5 1_555 1_555
H6 C6 1_555 1_555
C7 C1 1_555 1_555
C8 O5 1_555 1_555
C9 N4 1_555 1_555
H7 C9 1_555 1_555
H8 C9 1_555 1_555
C10 N2 1_555 1_555
H9 C10 1_555 1_555
C11 N3 1_555 1_555
H10 C11 1_555 1_555
C12 C5 1_555 1_555
C13 C5 1_555 1_555
H11 C13 1_555 1_555
C14 N5 1_555 1_555
H12 C14 1_555 1_555
H13 C14 1_555 1_555
C15 C16 1_555 1_555
C16 C3 1_555 1_555
C17 N9 1_555 1_555
H14 C17 1_555 1_555
C18 N1 1_555 1_555
H15 C18 1_555 1_555
O6 S1 1_555 1_555
O7 S1 1_555 1_555
C19 C15 1_555 1_555
H16 C19 1_555 1_555
H17 C19 1_555 1_555
H18 C19 1_555 1_555
C20 C3 1_555 1_555
H19 C20 1_555 1_555
H20 C20 1_555 1_555
H21 C20 1_555 1_555
O8 C21 1_555 1_555
C21 C12 1_555 1_555
C22 C7 1_555 1_555
H22 C22 1_555 1_555
H23 C22 1_555 1_555
H24 C22 1_555 1_555
C23 C7 1_555 1_555
O11 C21 1_555 1_555
Zn1B N1A 1_555 1_555
Zn1A N2 1_555 1_555
Zn1A_2 N1B 1_555 1_555
Zn1C N1 1_555 1_555
Zn1C_2 N2B 1_555 1_555
S1B S1 1_555 1_555
N1B C11B 1_555 1_555
N1C Zn1 1_555 1_555
N2B C4B 1_555 1_555
N2A Zn1 1_555 1_555
N2C Zn1B 1_555 1_555
O1B Zn1B 1_555 1_555
H1B O1B 1_555 1_555
O2B Zn1B 1_555 1_555
H2B O2B 1_555 1_555
N3B C2B 1_555 1_555
N4B N6B 1_555 1_555
C1B C2B 1_555 1_555
O3B C8B 1_555 1_555
N5B N7B 1_555 1_555
C2B H3B 1_555 1_555
H4B C2B 1_555 1_555
O4B S1 1_555 1_555
N6B C10B 1_555 1_555
C3B C1B 1_555 1_555
C4B N4B 1_555 1_555
H5B C4B 1_555 1_555
C5B C8B 1_555 1_555
N7B C17B 1_555 1_555
N8B N3B 1_555 1_555
N9B Zn1B 1_555 1_555
C6B N5B 1_555 1_555
H6B C6B 1_555 1_555
C7B C1B 1_555 1_555
C8B O5B 1_555 1_555
C9B N4B 1_555 1_555
H7B C9B 1_555 1_555
H8B C9B 1_555 1_555
C10B N2B 1_555 1_555
H9B C10B 1_555 1_555
C11B N3B 1_555 1_555
H10B C11B 1_555 1_555
C12B C13 1_555 1_555
C13B C12 1_555 1_555
H11B C13B 1_555 1_555
C14B N5B 1_555 1_555
H12B C14B 1_555 1_555
H13B C14B 1_555 1_555
C15B C16B 1_555 1_555
C16B C3B 1_555 1_555
C17B N9B 1_555 1_555
H14B C17B 1_555 1_555
C18B N1B 1_555 1_555
H15B C18B 1_555 1_555
O6B S1B 1_555 1_555
O7B S1B 1_555 1_555
C19B C15B 1_555 1_555
H16B C19B 1_555 1_555
H17B C19B 1_555 1_555
H18B C19B 1_555 1_555
C20B C3B 1_555 1_555
H19B C20B 1_555 1_555
H20B C20B 1_555 1_555
H21B C20B 1_555 1_555
O8B C21B 1_555 1_555
C21B C12B 1_555 1_555
C22B C7B 1_555 1_555
H22B C22B 1_555 1_555
H23B C22B 1_555 1_555
H24B C22B 1_555 1_555
C23B C7B 1_555 1_555
O11B C21B 1_555 1_555
O4 S1B 1_555 1_555
N8 C18 1_555 1_555
N9 C6 1_555 1_555
C9 C16 1_555 1_555
C14 C23 1_555 1_555
C15 C23 1_555 1_555
Zn1B O4B 1_555 1_555
S1B O4B 1_555 1_555
C5B C12B 1_555 1_555
C5B C13B 1_555 1_555
N8B C18B 1_555 1_555
N9B C6B 1_555 1_555
C9B C16B 1_555 1_555
C14B C23B 1_555 1_555
C15B C23B 1_555 1_555

#END
