
#######################################################################
#
#                 Cambridge Crystallographic Data Centre
#                                CCDC 
#
#######################################################################
#
# If this CIF has been generated from an entry in the Cambridge 
# Structural Database, then it will include bibliographic, chemical, 
# crystal, experimental, refinement or atomic coordinate data resulting 
# from the CCDC's data processing and validation procedures.
#
#######################################################################

data_IBITAQ
_symmetry_cell_setting           hexagonal
_symmetry_space_group_name_H-M   'P 65 2 2'
_symmetry_Int_Tables_number      179
_space_group_name_Hall           "P 65 2' (0,0,1)"
loop_
_symmetry_equiv_pos_site_id
_symmetry_equiv_pos_as_xyz
1 x,y,z
2 x-y,x,5/6+z
3 -y,x-y,2/3+z
4 -x,-y,1/2+z
5 -x+y,-x,1/3+z
6 y,-x+y,1/6+z
7 -y,-x,1/6-z
8 x-y,-y,-z
9 x,x-y,5/6-z
10 y,x,2/3-z
11 -x+y,y,1/2-z
12 -x,-x+y,1/3-z
_cell_length_a                   9.5908(2)
_cell_length_b                   9.5908(2)
_cell_length_c                   63.890(3)
_cell_angle_alpha                90
_cell_angle_beta                 90
_cell_angle_gamma                120
_cell_volume                     5089.48
loop_
_atom_site_label
_atom_site_type_symbol
_atom_site_fract_x
_atom_site_fract_y
_atom_site_fract_z
C1 C 0.082(3) 0.211(2) 0.0581(3)
C2 C 0.374(3) 0.729(2) 0.0325(3)
H1 H 0.3323 0.6180 0.0333
C3 C 0.450(2) 0.967(2) 0.0479(3)
H2 H 0.4660 1.0302 0.0597
C4 C 0.473(2) 0.961(2) 0.0101(3)
C5 C -0.233(3) -0.478(2) 0.0536(4)
C6 C -0.079(3) -0.548(3) 0.0262(4)
H3 H -0.0960 -0.6381 0.0337
C7 C 0.414(3) 0.798(2) 0.0133(4)
H4 H 0.4009 0.7331 0.0018
C8 C 0.161(2) 0.133(2) 0.0506(3)
H5 H 0.2717 0.1827 0.0522
C9 C -0.135(3) -0.447(3) 0.0345(4)
C10 C 0.175(3) 0.376(3) 0.0671(3)
C11 C 0.490(2) 1.043(2) 0.0287(3)
H6 H 0.5298 1.1539 0.0282
C12 C -0.107(2) -0.320(3) 0.0211(4)
C13 C -0.033(3) -0.289(3) 0.0020(3)
H7 H -0.0175 -0.1999 -0.0057
C14 C 0.019(3) -0.393(4) -0.0060(5)
H8 H 0.0641 -0.3806 -0.0193
C15 C -0.001(3) -0.514(4) 0.0077(5)
H9 H 0.0418 -0.5781 0.0037
C16 C 0.083(2) -0.013(3) 0.0409(3)
H10 H 0.1388 -0.0620 0.0361
C17 C -0.082(2) -0.086(2) 0.0385(3)
C18 C -0.164(2) -0.012(3) 0.0460(3)
H11 H -0.2738 -0.0575 0.0437
C19 C -0.078(2) 0.136(3) 0.0573(3)
H12 H -0.1329 0.1801 0.0641
Cd1 Cd 0.31049(11) 0.68951(11) 0.0833
Cd2 Cd -0.45512(13) -0.54488(13) 0.0833
N1 N 0.389(2) 0.8095(19) 0.0505(3)
O1 O -0.1817(19) -0.3857(19) 0.0685(2)
O2 O -0.369(2) -0.603(2) 0.0534(3)
O3 O -0.1754(17) -0.2265(17) 0.0274(2)
O4 O 0.3254(19) 0.451(2) 0.0689(3)
O5 O 0.097(2) 0.445(2) 0.0725(2)
O6 O 0.1699(10) 0.8301(10) 0.0833
C1F C 0.789(2) 0.918(3) 0.1086(3)
C2G C 0.645(4) 1.271(2) -0.0325(3)
H1G H 0.7143 1.3820 -0.0333
C3G C 0.483(3) 1.033(2) -0.0479(3)
H2G H 0.4358 0.9698 -0.0597
C4G C 0.512(3) 1.039(2) -0.0101(3)
C5F C 1.478(2) 1.233(3) 0.1131(4)
C6F C 1.548(3) 1.079(3) 0.1405(4)
H3F H 1.6381 1.0960 0.1330
C7G C 0.616(4) 1.202(2) -0.0133(4)
H4G H 0.6678 1.2669 -0.0018
C8F C 0.867(2) 0.839(2) 0.1161(3)
H5F H 0.8173 0.7283 0.1145
C9F C 1.447(3) 1.135(3) 0.1322(4)
C10F C 0.624(3) 0.825(3) 0.0996(3)
C11G C 0.447(3) 0.957(2) -0.0287(3)
H6G H 0.3759 0.8461 -0.0282
C12F C 1.320(3) 1.107(2) 0.1456(4)
C13F C 1.289(3) 1.033(3) 0.1647(3)
H7F H 1.1999 1.0175 0.1724
C14F C 1.393(4) 0.981(3) 0.1727(5)
H8F H 1.3806 0.9359 0.1860
C15F C 1.514(4) 1.001(3) 0.1590(5)
H9F H 1.5781 0.9582 0.1630
C16F C 1.013(3) 0.917(2) 0.1258(3)
H10F H 1.0620 0.8612 0.1306
C17F C 1.086(2) 1.082(2) 0.1282(3)
C18F C 1.012(3) 1.164(2) 0.1207(3)
H11F H 1.0575 1.2738 0.1230
C19F C 0.864(3) 1.078(2) 0.1094(3)
H12F H 0.8199 1.1329 0.1026
Cd1A Cd 0.62098(16) 1.31049(11) -0.0834
Cd2_2 Cd 1.54488(13) 1.45512(13) 0.0833
Cd2_3 Cd 0.54488(13) 0.45512(13) 0.0833
N1G N 0.5795(28) 1.1905(19) -0.0505(3)
N1F N 0.1905(19) 0.611(2) 0.1162(3)
N1A N 0.5795(28) 1.389(2) -0.1162(3)
O1F O 1.3857(19) 1.1817(19) 0.0982(2)
O1F_2 O -0.6143(19) -0.8183(19) 0.0982(2)
O1_2 O 1.8183(19) 1.6143(19) 0.0685(2)
O2F O 1.603(2) 1.369(2) 0.1133(3)
O2F_2 O -0.397(2) -0.631(2) 0.1133(3)
O2_2 O 1.631(2) 1.397(2) 0.0534(3)
O3F O 1.2265(17) 1.1754(17) 0.1393(2)
O4F O 0.549(2) 0.6746(19) 0.0978(3)
O4_2 O -0.6746(19) -0.549(2) 0.0689(3)
O4F_2 O -0.451(2) -0.3254(19) 0.0978(3)
O4G O 0.8744(28) 1.549(2) -0.0689(3)
O4A O 0.8744(28) 1.3254(19) -0.0978(3)
O4F_3 O 1.549(2) 1.6746(19) 0.0978(3)
O4_3 O 1.3254(19) 1.451(2) 0.0689(3)
O5F O 0.555(2) 0.903(2) 0.0942(2)
O5G O 0.652(3) 1.555(2) -0.0725(2)
O5A O 0.652(3) 1.097(2) -0.0942(2)
O6A O 0.3398(14) 1.1699(10) -0.0834
loop_
_geom_bond_atom_site_label_1
_geom_bond_atom_site_label_2
_geom_bond_site_symmetry_1
_geom_bond_site_symmetry_2
C1 C8 1_555 1_555
C2 H1 1_555 1_555
C3 H2 1_555 1_555
C4 C7 1_555 1_555
C5 C9 1_555 1_555
C6 H3 1_555 1_555
C7 C2 1_555 1_555
H4 C7 1_555 1_555
C8 H5 1_555 1_555
C9 C6 1_555 1_555
C10 C1 1_555 1_555
C11 C3 1_555 1_555
H6 C11 1_555 1_555
C12 C9 1_555 1_555
C13 C12 1_555 1_555
H7 C13 1_555 1_555
C14 C13 1_555 1_555
H8 C14 1_555 1_555
C15 C6 1_555 1_555
H9 C15 1_555 1_555
C16 C8 1_555 1_555
H10 C16 1_555 1_555
C17 C16 1_555 1_555
C18 C17 1_555 1_555
H11 C18 1_555 1_555
C19 C1 1_555 1_555
H12 C19 1_555 1_555
Cd1 N1 1_555 1_555
Cd2 O1 1_555 1_555
N1 C2 1_555 1_555
O1 C5 1_555 1_555
O2 C5 1_555 1_555
O3 C12 1_555 1_555
O4 C10 1_555 1_555
O5 C10 1_555 1_555
O6 Cd1 1_555 1_555
C1F C8F 1_555 1_555
C2G H1G 1_555 1_555
C3G H2G 1_555 1_555
C4G C4 1_555 1_555
C5F C9F 1_555 1_555
C6F H3F 1_555 1_555
C7G C2G 1_555 1_555
H4G C7G 1_555 1_555
C8F H5F 1_555 1_555
C9F C6F 1_555 1_555
C10F C1F 1_555 1_555
C11G C3G 1_555 1_555
H6G C11G 1_555 1_555
C12F C9F 1_555 1_555
C13F C12F 1_555 1_555
H7F C13F 1_555 1_555
C14F C13F 1_555 1_555
H8F C14F 1_555 1_555
C15F C6F 1_555 1_555
H9F C15F 1_555 1_555
C16F C8F 1_555 1_555
H10F C16F 1_555 1_555
C17F C16F 1_555 1_555
C18F C17F 1_555 1_555
H11F C18F 1_555 1_555
C19F C1F 1_555 1_555
H12F C19F 1_555 1_555
Cd1A N1G 1_555 1_555
Cd2_2 O1F 1_555 1_555
Cd2_3 O4 1_555 1_555
N1G C2G 1_555 1_555
N1F Cd1 1_555 1_555
N1A Cd1A 1_555 1_555
O1F C5F 1_555 1_555
O1F_2 Cd2 1_555 1_555
O1_2 Cd2_2 1_555 1_555
O2F C5F 1_555 1_555
O2F_2 Cd2 1_555 1_555
O2_2 Cd2_2 1_555 1_555
O3F C12F 1_555 1_555
O4F Cd1 1_555 1_555
O4_2 Cd2 1_555 1_555
O4F_2 Cd2 1_555 1_555
O4G Cd1A 1_555 1_555
O4A Cd1A 1_555 1_555
O4F_3 Cd2_2 1_555 1_555
O4_3 Cd2_2 1_555 1_555
O5F Cd1 1_555 1_555
O5G Cd1A 1_555 1_555
O5A Cd1A 1_555 1_555
O6A Cd1A 1_555 1_555
C3 N1 1_555 1_555
C4 C11 1_555 1_555
C14 C15 1_555 1_555
C17 O3 1_555 1_555
C18 C19 1_555 1_555
Cd1 O4 1_555 1_555
Cd1 O5 1_555 1_555
Cd2 O2 1_555 1_555
C3G N1G 1_555 1_555
C4G C7G 1_555 1_555
C4G C11G 1_555 1_555
C10F O4F 1_555 1_555
C10F O5F 1_555 1_555
C14F C15F 1_555 1_555
C17F O3F 1_555 1_555
C18F C19F 1_555 1_555
Cd2_2 O2F 1_555 1_555
Cd2_3 O4F 1_555 1_555

#END
