
#######################################################################
#
#                 Cambridge Crystallographic Data Centre
#                                CCDC 
#
#######################################################################
#
# If this CIF has been generated from an entry in the Cambridge 
# Structural Database, then it will include bibliographic, chemical, 
# crystal, experimental, refinement or atomic coordinate data resulting 
# from the CCDC's data processing and validation procedures.
#
#######################################################################

data_IBITOC
_symmetry_cell_setting           monoclinic
_symmetry_space_group_name_H-M   'I 2/a'
_symmetry_Int_Tables_number      15
_space_group_name_Hall           '-I 2ya'
loop_
_symmetry_equiv_pos_site_id
_symmetry_equiv_pos_as_xyz
1 x,y,z
2 1/2+x,1/2+y,1/2+z
3 1/2+x,-y,z
4 x,1/2-y,1/2+z
5 -x,-y,-z
6 1/2-x,1/2-y,1/2-z
7 1/2-x,y,-z
8 -x,1/2+y,1/2-z
_cell_length_a                   11.8389(9)
_cell_length_b                   13.3768(10)
_cell_length_c                   28.5215(21)
_cell_angle_alpha                90
_cell_angle_beta                 98.209(1)
_cell_angle_gamma                90
_cell_volume                     4470.57
loop_
_atom_site_label
_atom_site_type_symbol
_atom_site_fract_x
_atom_site_fract_y
_atom_site_fract_z
Cu1 Cu 0.54934(2) 0.248459(15) 0.571513(9)
Cu2 Cu 0.2500 0.2500 0.2500
N1 N 0.50329(16) 0.23505(13) 0.48914(6)
N2 N 0.44142(14) 0.36467(13) 0.57917(6)
N3 N 0.66615(14) 0.13629(12) 0.58661(6)
N4 N 0.26318(14) 0.39903(14) 0.25150(6)
O1 O 0.31139(15) 0.24479(10) 0.31977(6)
O2 O 0.49881(17) 0.23888(13) 0.31383(6)
O3 O 0.16857(11) 0.65479(10) 0.55768(5)
O4 O 0.19114(14) 0.62945(12) 0.63550(5)
O5 O 0.92571(12) -0.15309(11) 0.57752(5)
O6 O 0.96551(13) -0.11437(12) 0.65459(5)
O7 O 0.42916(18) 0.23732(14) 0.22193(7)
H1 H 0.4729 0.2449 0.2524
H2 H 0.4394 0.2906 0.2009
C1 C 0.3946(2) 0.22975(19) 0.46846(8)
H3 H 0.3376 0.2236 0.4881
C2 C 0.3609(2) 0.23276(18) 0.41976(9)
H4 H 0.2833 0.2294 0.4071
C3 C 0.4437(2) 0.24073(14) 0.39034(8)
C4 C 0.5570(2) 0.24734(15) 0.41129(8)
H5 H 0.6158 0.2538 0.3925
C5 C 0.58203(19) 0.24426(15) 0.46016(8)
H6 H 0.6590 0.2489 0.4738
C6 C 0.4166(2) 0.24153(15) 0.33658(8)
C7 C 0.41991(19) 0.43549(15) 0.54565(8)
H7 H 0.4563 0.4307 0.5185
C8 C 0.34716(18) 0.51479(15) 0.54910(8)
H8 H 0.3336 0.5619 0.5245
C9 C 0.29400(17) 0.52457(15) 0.58938(7)
C10 C 0.31830(19) 0.45257(16) 0.62461(8)
H9 H 0.2857 0.4572 0.6527
C11 C 0.39076(19) 0.37404(16) 0.61807(8)
H10 H 0.4050 0.3253 0.6419
C12 C 0.21187(17) 0.60928(15) 0.59575(7)
C13 C 0.67862(19) 0.06639(16) 0.55399(8)
H11 H 0.6316 0.0695 0.5245
C14 C 0.7575(2) -0.00982(17) 0.56183(8)
H12 H 0.7646 -0.0564 0.5377
C15 C 0.82651(17) -0.01783(15) 0.60531(7)
C16 C 0.81208(18) 0.05240(16) 0.63925(7)
H13 H 0.8559 0.0491 0.6694
C17 C 0.73225(18) 0.12829(16) 0.62865(7)
H14 H 0.7243 0.1762 0.6521
C18 C 0.91423(17) -0.10183(15) 0.61436(7)
C19 C 0.17255(19) 0.45711(16) 0.23606(8)
H15 H 0.1041 0.4260 0.2230
C20 C 0.1754(2) 0.55991(16) 0.23849(8)
H16 H 0.1098 0.5974 0.2275
C21 C 0.2762(2) 0.60807(16) 0.25732(7)
C22 C 0.37019(19) 0.54817(16) 0.27308(7)
H17 H 0.4398 0.5775 0.2860
C23 C 0.36062(19) 0.44535(16) 0.26959(7)
H18 H 0.4250 0.4061 0.2803
C24 C 0.2875(2) 0.71735(16) 0.26066(8)
H19 H 0.3528 0.7431 0.2794
C24E C 0.2125(2) 0.78265(16) 0.23934(8)
C21E C 0.2238(2) 0.89193(16) 0.24268(7)
C20E C 0.3246(2) 0.94009(16) 0.26151(8)
C19E C 0.32745(19) 1.04289(16) 0.26394(8)
N4E N 0.23682(14) 1.10097(14) 0.24850(6)
C23E C 0.13938(19) 1.05465(16) 0.23041(7)
C22E C 0.12981(19) 0.95183(16) 0.22692(7)
H17E H 0.0602 0.9225 0.2140
H18E H 0.0750 1.0939 0.2197
H15E H 0.3959 1.0740 0.2770
H16E H 0.3902 0.9026 0.2725
H19E H 0.1472 0.7569 0.2206
N1E N -0.00329(16) 0.26495(13) 0.01086(6)
O1E O 0.18861(15) 0.25521(10) 0.18023(6)
O2E O 0.00119(17) 0.26112(13) 0.18617(6)
C1E C 0.1054(2) 0.27025(19) 0.03154(8)
H3E H 0.1624 0.2764 0.0119
C2E C 0.1391(2) 0.26724(18) 0.08024(9)
H4E H 0.2167 0.2706 0.0929
C3E C 0.0563(2) 0.25927(14) 0.10966(8)
C4E C -0.0570(2) 0.25266(15) 0.08871(8)
H5E H -0.1158 0.2462 0.1075
C5E C -0.08203(19) 0.25574(15) 0.03984(8)
H6E H -0.1590 0.2511 0.0262
C6E C 0.0834(2) 0.25847(15) 0.16342(8)
O7E O 0.07084(18) 0.26268(14) 0.27807(7)
H1E H 0.0271 0.2551 0.2476
H2E H 0.0606 0.2094 0.2991
Cu1E Cu -0.04934(2) 0.251541(15) -0.071513(9)
N2B N 0.94142(14) 0.63533(13) 0.57917(6)
O3B O 0.66857(11) 0.34521(10) 0.55768(5)
O4B O 0.69114(14) 0.37055(12) 0.63550(5)
C7B C 0.91991(19) 0.56451(15) 0.54565(8)
H7B H 0.9563 0.5693 0.5185
C8B C 0.84716(18) 0.48521(15) 0.54910(8)
H8B H 0.8336 0.4381 0.5245
C9B C 0.79400(17) 0.47543(15) 0.58938(7)
C10B C 0.81830(19) 0.54743(16) 0.62461(8)
H9B H 0.7857 0.5428 0.6527
C11B C 0.89076(19) 0.62596(16) 0.61807(8)
H10B H 0.9050 0.6747 0.6419
C12B C 0.71187(17) 0.39072(15) 0.59575(7)
N3B N 0.16615(14) -0.13629(12) 0.58661(6)
O5B O 0.42571(12) 0.15309(11) 0.57752(5)
O6B O 0.46551(13) 0.11437(12) 0.65459(5)
C13B C 0.17862(19) -0.06639(16) 0.55399(8)
H11B H 0.1316 -0.0695 0.5245
C14B C 0.2575(2) 0.00982(17) 0.56183(8)
H12B H 0.2646 0.0564 0.5377
C15B C 0.32651(17) 0.01783(15) 0.60531(7)
C16B C 0.31208(18) -0.05240(16) 0.63925(7)
H13B H 0.3559 -0.0491 0.6694
C17B C 0.23225(18) -0.12829(16) 0.62865(7)
H14B H 0.2243 -0.1762 0.6521
C18B C 0.41423(17) 0.10183(15) 0.61436(7)
N4E_2 N 0.23682(14) 0.10097(14) 0.24850(6)
Cu1B Cu 0.04934(2) 0.751541(15) 0.571513(9)
Cu1B_2 Cu 1.04934(2) -0.248459(15) 0.571513(9)
Cu2_2 Cu 0.2500 1.2500 0.2500
N2E N 0.05858(14) 0.13533(13) -0.07917(6)
N3E N -0.16615(14) 0.36371(12) -0.08661(6)
O3G O -0.16857(11) 0.15479(10) -0.05768(5)
O5G O 0.07429(12) 0.34691(11) -0.07752(5)
Cu1B_3 Cu 1.04934(2) 0.751541(15) 0.571513(9)
Cu1B_4 Cu 0.04934(2) -0.248459(15) 0.571513(9)
loop_
_geom_bond_atom_site_label_1
_geom_bond_atom_site_label_2
_geom_bond_site_symmetry_1
_geom_bond_site_symmetry_2
Cu1 N1 1_555 1_555
Cu2 N4 1_555 1_555
N1 C1 1_555 1_555
N2 Cu1 1_555 1_555
N3 Cu1 1_555 1_555
N4 C19 1_555 1_555
O1 Cu2 1_555 1_555
O2 C6 1_555 1_555
O3 C12 1_555 1_555
O4 C12 1_555 1_555
O5 C18 1_555 1_555
O6 C18 1_555 1_555
O7 Cu2 1_555 1_555
H1 O7 1_555 1_555
H2 O7 1_555 1_555
C1 H3 1_555 1_555
C2 C1 1_555 1_555
H4 C2 1_555 1_555
C3 C2 1_555 1_555
C4 C3 1_555 1_555
H5 C4 1_555 1_555
C5 N1 1_555 1_555
H6 C5 1_555 1_555
C6 O1 1_555 1_555
C7 N2 1_555 1_555
H7 C7 1_555 1_555
C8 C7 1_555 1_555
H8 C8 1_555 1_555
C9 C8 1_555 1_555
C10 C9 1_555 1_555
H9 C10 1_555 1_555
C11 N2 1_555 1_555
H10 C11 1_555 1_555
C12 C9 1_555 1_555
C13 N3 1_555 1_555
H11 C13 1_555 1_555
C14 C13 1_555 1_555
H12 C14 1_555 1_555
C15 C14 1_555 1_555
C16 C15 1_555 1_555
H13 C16 1_555 1_555
C17 N3 1_555 1_555
H14 C17 1_555 1_555
C18 C15 1_555 1_555
C19 H15 1_555 1_555
C20 C19 1_555 1_555
H16 C20 1_555 1_555
C21 C20 1_555 1_555
C22 C21 1_555 1_555
H17 C22 1_555 1_555
C23 N4 1_555 1_555
H18 C23 1_555 1_555
C24 C21 1_555 1_555
H19 C24 1_555 1_555
C24E C24 1_555 1_555
C21E C24E 1_555 1_555
C20E C21E 1_555 1_555
C19E C20E 1_555 1_555
N4E C19E 1_555 1_555
C23E N4E 1_555 1_555
C22E C21E 1_555 1_555
H17E C22E 1_555 1_555
H18E C23E 1_555 1_555
H15E C19E 1_555 1_555
H16E C20E 1_555 1_555
H19E C24E 1_555 1_555
N1E C1E 1_555 1_555
O1E Cu2 1_555 1_555
O2E C6E 1_555 1_555
C1E H3E 1_555 1_555
C2E C1E 1_555 1_555
H4E C2E 1_555 1_555
C3E C2E 1_555 1_555
C4E C3E 1_555 1_555
H5E C4E 1_555 1_555
C5E N1E 1_555 1_555
H6E C5E 1_555 1_555
C6E O1E 1_555 1_555
O7E Cu2 1_555 1_555
H1E O7E 1_555 1_555
H2E O7E 1_555 1_555
Cu1E N1E 1_555 1_555
N2B C7B 1_555 1_555
O3B Cu1 1_555 1_555
O4B C12B 1_555 1_555
C7B H7B 1_555 1_555
C8B C7B 1_555 1_555
H8B C8B 1_555 1_555
C9B C8B 1_555 1_555
C10B C9B 1_555 1_555
H9B C10B 1_555 1_555
C11B N2B 1_555 1_555
H10B C11B 1_555 1_555
C12B O3B 1_555 1_555
N3B C13B 1_555 1_555
O5B Cu1 1_555 1_555
O6B C18B 1_555 1_555
C13B H11B 1_555 1_555
C14B C13B 1_555 1_555
H12B C14B 1_555 1_555
C15B C14B 1_555 1_555
C16B C15B 1_555 1_555
H13B C16B 1_555 1_555
C17B N3B 1_555 1_555
H14B C17B 1_555 1_555
C18B O5B 1_555 1_555
N4E_2 Cu2 1_555 1_555
Cu1B O3 1_555 1_555
Cu1B_2 O5 1_555 1_555
Cu2_2 N4E 1_555 1_555
N2E Cu1E 1_555 1_555
N3E Cu1E 1_555 1_555
O3G Cu1E 1_555 1_555
O5G Cu1E 1_555 1_555
Cu1B_3 N2B 1_555 1_555
Cu1B_4 N3B 1_555 1_555
C3 C6 1_555 1_555
C4 C5 1_555 1_555
C10 C11 1_555 1_555
C16 C17 1_555 1_555
C22 C23 1_555 1_555
C23E C22E 1_555 1_555
C3E C6E 1_555 1_555
C4E C5E 1_555 1_555
C9B C12B 1_555 1_555
C10B C11B 1_555 1_555
C15B C18B 1_555 1_555
C16B C17B 1_555 1_555

#END
