
#######################################################################
#
#                 Cambridge Crystallographic Data Centre
#                                CCDC 
#
#######################################################################
#
# If this CIF has been generated from an entry in the Cambridge 
# Structural Database, then it will include bibliographic, chemical, 
# crystal, experimental, refinement or atomic coordinate data resulting 
# from the CCDC's data processing and validation procedures.
#
#######################################################################

data_IBIVOF
_symmetry_cell_setting           monoclinic
_symmetry_space_group_name_H-M   'P 21/n'
_symmetry_Int_Tables_number      14
_space_group_name_Hall           '-P 2yn'
loop_
_symmetry_equiv_pos_site_id
_symmetry_equiv_pos_as_xyz
1 x,y,z
2 1/2+x,1/2-y,1/2+z
3 -x,-y,-z
4 1/2-x,1/2+y,1/2-z
_cell_length_a                   7.4250(5)
_cell_length_b                   13.9423(9)
_cell_length_c                   11.9924(8)
_cell_angle_alpha                90
_cell_angle_beta                 93.279(1)
_cell_angle_gamma                90
_cell_volume                     1239.44
loop_
_atom_site_label
_atom_site_type_symbol
_atom_site_fract_x
_atom_site_fract_y
_atom_site_fract_z
Cd1 Cd -0.43073(5) 0.15921(3) 0.32369(3)
O1 O -0.5359(6) 0.0305(3) 0.1942(3)
O2 O -0.6327(6) 0.2157(3) 0.1888(3)
O3 O -0.7830(6) 0.2896(3) -0.0060(3)
O4 O -0.9368(6) 0.1701(3) -0.1591(3)
O5 O -0.9183(6) -0.0234(3) -0.1262(3)
O6 O -0.6828(7) -0.0928(3) 0.0369(4)
O7 O -0.1887(8) 0.1851(4) 0.2261(5)
H1 H -0.1109 0.2343 0.2243
H2 H -0.1472 0.1378 0.1831
N1 N -0.3208(6) 0.0124(3) 0.4065(3)
N2 N -0.3679(6) -0.1028(3) 0.5466(4)
C1 C -0.6372(7) 0.0603(4) 0.1143(4)
C2 C -0.6817(7) 0.1617(4) 0.1092(4)
C3 C -0.7685(6) 0.2006(4) 0.0079(4)
C4 C -0.8498(7) 0.1361(4) -0.0767(4)
C5 C -0.8353(7) 0.0323(4) -0.0632(4)
C6 C -0.7137(8) -0.0070(4) 0.0301(4)
C7 C -0.1718(8) -0.0340(4) 0.3807(5)
H5 H -0.1043 -0.0099 0.3240
C8 C -0.1145(9) -0.1166(5) 0.4351(5)
H6 H -0.0114 -0.1492 0.4160
C9 C -0.2180(9) -0.1479(4) 0.5189(5)
H7 H -0.1824 -0.2029 0.5581
C10 C -0.4136(7) -0.0249(4) 0.4865(4)
C10B C -0.5864(7) 0.0249(4) 0.5135(4)
N1B N -0.6792(6) -0.0124(3) 0.5935(3)
C7B C -0.8282(8) 0.0340(4) 0.6193(5)
H5B H -0.8957 0.0099 0.6760
C8B C -0.8855(9) 0.1166(5) 0.5649(5)
H6B H -0.9886 0.1492 0.5840
C9B C -0.7820(9) 0.1479(4) 0.4811(5)
N2B N -0.6321(6) 0.1028(3) 0.4534(4)
H7B H -0.8176 0.2029 0.4419
O1A O -0.0359(6) 0.4695(3) 0.6942(3)
O2A O -0.1327(6) 0.2843(3) 0.6888(3)
O3A O -0.2830(6) 0.2104(3) 0.4940(3)
O4A O -0.4368(6) 0.3299(3) 0.3409(3)
O5A O -0.4183(6) 0.5234(3) 0.3738(3)
O6A O -0.1828(7) 0.5928(3) 0.5369(4)
C1A C -0.1372(7) 0.4397(4) 0.6143(4)
C2A C -0.1817(7) 0.3383(4) 0.6092(4)
C3A C -0.2685(6) 0.2994(4) 0.5079(4)
C4A C -0.3498(7) 0.3639(4) 0.4233(4)
C5A C -0.3353(7) 0.4677(4) 0.4368(4)
C6A C -0.2137(8) 0.5070(4) 0.5301(4)
Cd1A Cd 0.06927(5) 0.34079(3) 0.82369(3)
O7A O 0.3113(8) 0.3149(4) 0.7261(5)
H1A H 0.3891 0.2657 0.7243
H2A H 0.3528 0.3622 0.6831
Cd1A_2 Cd -0.93073(5) 0.34079(3) -0.17631(3)
Cd1B Cd -0.56927(5) -0.15921(3) 0.67631(3)
O3_2 O 0.2170(6) 0.2896(3) 0.9940(3)
O4_2 O 0.0632(6) 0.1701(3) 0.8409(3)
N1A N 0.1792(6) 0.4876(3) 0.9065(3)
N2C N -0.1321(6) 0.3972(3) 0.9534(4)
O8 O 0.0436(7) 0.3298(4) 0.2316(6)
H3 H 0.1505 0.3056 0.2124
H4 H 0.0650 0.3632 0.2953
loop_
_geom_bond_atom_site_label_1
_geom_bond_atom_site_label_2
_geom_bond_site_symmetry_1
_geom_bond_site_symmetry_2
Cd1 O1 1_555 1_555
O1 C1 1_555 1_555
O2 Cd1 1_555 1_555
O3 C3 1_555 1_555
O4 C4 1_555 1_555
O5 C5 1_555 1_555
O6 C6 1_555 1_555
O7 Cd1 1_555 1_555
H1 O7 1_555 1_555
H2 O7 1_555 1_555
O8 H3 1_555 1_555
H4 O8 1_555 1_555
N1 Cd1 1_555 1_555
N2 C9 1_555 1_555
C1 C2 1_555 1_555
C2 O2 1_555 1_555
C3 C2 1_555 1_555
C4 C3 1_555 1_555
C5 C4 1_555 1_555
C6 C1 1_555 1_555
C7 N1 1_555 1_555
H5 C7 1_555 1_555
C8 C7 1_555 1_555
H6 C8 1_555 1_555
C9 C8 1_555 1_555
H7 C9 1_555 1_555
C10 N1 1_555 1_555
C10B C10 1_555 1_555
N1B C10B 1_555 1_555
C7B N1B 1_555 1_555
H5B C7B 1_555 1_555
C8B C7B 1_555 1_555
H6B C8B 1_555 1_555
C9B C8B 1_555 1_555
N2B Cd1 1_555 1_555
H7B C9B 1_555 1_555
O1A C1A 1_555 1_555
O2A C2A 1_555 1_555
O3A Cd1 1_555 1_555
O4A Cd1 1_555 1_555
O5A C5A 1_555 1_555
O6A C6A 1_555 1_555
C1A C2A 1_555 1_555
C2A C3A 1_555 1_555
C3A O3A 1_555 1_555
C4A O4A 1_555 1_555
C5A C4A 1_555 1_555
C6A C1A 1_555 1_555
Cd1A O1A 1_555 1_555
O7A Cd1A 1_555 1_555
H1A O7A 1_555 1_555
H2A O7A 1_555 1_555
Cd1A_2 O3 1_555 1_555
Cd1B N2 1_555 1_555
O3_2 Cd1A 1_555 1_555
O4_2 Cd1A 1_555 1_555
N1A Cd1A 1_555 1_555
N2C Cd1A 1_555 1_555
O4 Cd1A_2 1_555 1_555
N2 C10 1_555 1_555
C5 C6 1_555 1_555
C10B N2B 1_555 1_555
N1B Cd1B 1_555 1_555
C9B N2B 1_555 1_555
O2A Cd1A 1_555 1_555
C3A C4A 1_555 1_555
C5A C6A 1_555 1_555

#END
