
#######################################################################
#
#                 Cambridge Crystallographic Data Centre
#                                CCDC 
#
#######################################################################
#
# If this CIF has been generated from an entry in the Cambridge 
# Structural Database, then it will include bibliographic, chemical, 
# crystal, experimental, refinement or atomic coordinate data resulting 
# from the CCDC's data processing and validation procedures.
#
#######################################################################

data_IBIVIZ
_symmetry_cell_setting           monoclinic
_symmetry_space_group_name_H-M   'P 21/n'
_symmetry_Int_Tables_number      14
_space_group_name_Hall           '-P 2yn'
loop_
_symmetry_equiv_pos_site_id
_symmetry_equiv_pos_as_xyz
1 x,y,z
2 1/2+x,1/2-y,1/2+z
3 -x,-y,-z
4 1/2-x,1/2+y,1/2-z
_cell_length_a                   8.3746(6)
_cell_length_b                   13.6660(9)
_cell_length_c                   11.3170(8)
_cell_angle_alpha                90
_cell_angle_beta                 94.469(1)
_cell_angle_gamma                90
_cell_volume                     1291.26
loop_
_atom_site_label
_atom_site_type_symbol
_atom_site_fract_x
_atom_site_fract_y
_atom_site_fract_z
Mn1 Mn -0.41102(4) 0.16303(2) 0.33590(3)
O1 O -0.50202(18) 0.02963(12) 0.19507(14)
O2 O -0.5926(2) 0.21644(11) 0.20093(15)
O3 O -0.7730(2) 0.29097(11) 0.01032(14)
O4 O -0.9285(2) 0.17163(11) -0.14138(15)
O5 O -0.9032(2) -0.02598(11) -0.11501(15)
O6 O -0.6621(2) -0.09776(11) 0.03919(15)
O7 O -0.2110(2) 0.17989(13) 0.23588(18)
H1 H -0.1109 0.2343 0.2243
H2 H -0.1472 0.1378 0.1831
N1 N -0.32455(19) 0.01547(12) 0.42094(14)
N2 N -0.3983(2) -0.11012(12) 0.55008(15)
C1 C -0.6107(2) 0.05782(15) 0.12276(18)
C2 C -0.6539(3) 0.16139(14) 0.12159(18)
C3 C -0.7550(2) 0.20059(14) 0.02364(17)
C4 C -0.8391(2) 0.13541(15) -0.06002(17)
C5 C -0.8213(2) 0.02864(15) -0.04929(17)
C6 C -0.6955(3) -0.01101(14) 0.03846(18)
C7 C -0.1879(3) -0.03227(16) 0.4062(2)
H7 H -0.1154 -0.0055 0.3570
C8 C -0.1518(3) -0.11979(18) 0.4617(2)
H8 H -0.0571 -0.1528 0.4506
C9 C -0.2609(3) -0.15648(15) 0.5341(2)
H9 H -0.2389 -0.2153 0.5733
C10 C -0.4232(2) -0.02599(13) 0.49192(16)
C10B C -0.5768(2) 0.02599(13) 0.50808(16)
N1B N -0.67545(19) -0.01547(12) 0.57906(14)
C7B C -0.8121(3) 0.03227(16) 0.5938(2)
H7B H -0.8846 0.0055 0.6430
C8B C -0.8482(3) 0.11979(18) 0.5383(2)
H8B H -0.9429 0.1528 0.5494
C9B C -0.7391(3) 0.15648(15) 0.4659(2)
N2B N -0.6017(2) 0.11012(12) 0.44992(15)
H9B H -0.7611 0.2153 0.4267
O1A O -0.00202(18) 0.47037(12) 0.69507(14)
O2A O -0.0926(2) 0.28356(11) 0.70093(15)
O3A O -0.2730(2) 0.20903(11) 0.51032(14)
O4A O -0.4285(2) 0.32837(11) 0.35862(15)
O5A O -0.4032(2) 0.52598(11) 0.38499(15)
O6A O -0.1621(2) 0.59776(11) 0.53919(15)
C1A C -0.1107(2) 0.44218(15) 0.62276(18)
C2A C -0.1539(3) 0.33861(14) 0.62159(18)
C3A C -0.2550(2) 0.29941(14) 0.52364(17)
C4A C -0.3391(2) 0.36459(15) 0.43998(17)
C5A C -0.3213(2) 0.47136(15) 0.45071(17)
C6A C -0.1955(3) 0.51101(14) 0.53846(18)
Mn1A Mn 0.08898(4) 0.33697(2) 0.83590(3)
O7A O 0.2890(2) 0.32011(13) 0.73588(18)
H1A H 0.3891 0.2657 0.7243
H2A H 0.3528 0.3622 0.6831
Mn1A_2 Mn -0.91102(4) 0.33697(2) -0.16410(3)
Mn1B Mn -0.58898(4) -0.16303(2) 0.66410(3)
O3_2 O 0.2270(2) 0.29097(11) 1.01032(14)
O4_2 O 0.0715(2) 0.17163(11) 0.85862(15)
N1A N 0.17545(19) 0.48453(12) 0.92094(14)
N2C N -0.1017(2) 0.38988(12) 0.94992(15)
O8 O 0.0114(3) 0.31751(16) 0.2383(2)
H3 H 0.1505 0.3056 0.2124
H4 H 0.0650 0.3632 0.2953
O9 O 0.3309(2) 0.44082(16) 0.19767(18)
H5 H 0.3964 0.4242 0.2574
H6 H 0.3020 0.3787 0.1612
loop_
_geom_bond_atom_site_label_1
_geom_bond_atom_site_label_2
_geom_bond_site_symmetry_1
_geom_bond_site_symmetry_2
Mn1 O1 1_555 1_555
O1 C1 1_555 1_555
O2 Mn1 1_555 1_555
O3 C3 1_555 1_555
O4 C4 1_555 1_555
O5 C5 1_555 1_555
O6 C6 1_555 1_555
O7 Mn1 1_555 1_555
H1 O7 1_555 1_555
H2 O7 1_555 1_555
O8 H3 1_555 1_555
H4 O8 1_555 1_555
O9 H5 1_555 1_555
H6 O9 1_555 1_555
N1 Mn1 1_555 1_555
N2 C9 1_555 1_555
C1 C2 1_555 1_555
C2 O2 1_555 1_555
C3 C2 1_555 1_555
C4 C3 1_555 1_555
C5 C4 1_555 1_555
C6 C1 1_555 1_555
C7 N1 1_555 1_555
H7 C7 1_555 1_555
C8 C7 1_555 1_555
H8 C8 1_555 1_555
C9 C8 1_555 1_555
H9 C9 1_555 1_555
C10 N1 1_555 1_555
C10B C10 1_555 1_555
N1B C10B 1_555 1_555
C7B N1B 1_555 1_555
H7B C7B 1_555 1_555
C8B C7B 1_555 1_555
H8B C8B 1_555 1_555
C9B C8B 1_555 1_555
N2B Mn1 1_555 1_555
H9B C9B 1_555 1_555
O1A C1A 1_555 1_555
O2A C2A 1_555 1_555
O3A Mn1 1_555 1_555
O4A Mn1 1_555 1_555
O5A C5A 1_555 1_555
O6A C6A 1_555 1_555
C1A C2A 1_555 1_555
C2A C3A 1_555 1_555
C3A O3A 1_555 1_555
C4A O4A 1_555 1_555
C5A C4A 1_555 1_555
C6A C1A 1_555 1_555
Mn1A O1A 1_555 1_555
O7A Mn1A 1_555 1_555
H1A O7A 1_555 1_555
H2A O7A 1_555 1_555
Mn1A_2 O3 1_555 1_555
Mn1B N2 1_555 1_555
O3_2 Mn1A 1_555 1_555
O4_2 Mn1A 1_555 1_555
N1A Mn1A 1_555 1_555
N2C Mn1A 1_555 1_555
O4 Mn1A_2 1_555 1_555
N2 C10 1_555 1_555
C5 C6 1_555 1_555
C10B N2B 1_555 1_555
N1B Mn1B 1_555 1_555
C9B N2B 1_555 1_555
O2A Mn1A 1_555 1_555
C3A C4A 1_555 1_555
C5A C6A 1_555 1_555

#END
