
#######################################################################
#
#                 Cambridge Crystallographic Data Centre
#                                CCDC 
#
#######################################################################
#
# If this CIF has been generated from an entry in the Cambridge 
# Structural Database, then it will include bibliographic, chemical, 
# crystal, experimental, refinement or atomic coordinate data resulting 
# from the CCDC's data processing and validation procedures.
#
#######################################################################

data_IBIVAS
_symmetry_cell_setting           triclinic
_symmetry_space_group_name_H-M   'P -1'
_symmetry_Int_Tables_number      2
_space_group_name_Hall           '-P 1'
loop_
_symmetry_equiv_pos_site_id
_symmetry_equiv_pos_as_xyz
1 x,y,z
2 -x,-y,-z
_cell_length_a                   14.737(3)
_cell_length_b                   15.662(3)
_cell_length_c                   18.542(4)
_cell_angle_alpha                111.63(3)
_cell_angle_beta                 99.45(3)
_cell_angle_gamma                99.40(3)
_cell_volume                     3805.62
loop_
_atom_site_label
_atom_site_type_symbol
_atom_site_fract_x
_atom_site_fract_y
_atom_site_fract_z
C1 C 1.89911(13) 0.13595(14) 0.20214(13)
H1 H 1.9040 0.1256 0.1487
H2 H 1.9527 0.1226 0.2292
H3 H 1.8979 0.2007 0.2305
C2 C 1.70839(19) 0.29415(13) 0.09596(12)
H4 H 1.7104 0.3455 0.0819
C3 C 1.70632(14) -0.03323(12) 0.33488(9)
H5 H 1.7197 -0.0933 0.3280
H6 H 1.6427 -0.0346 0.3409
H7 H 1.7500 0.0157 0.3818
C4 C 1.42515(11) 0.62464(11) 0.39296(11)
H8 H 1.4287 0.6467 0.4498
H9 H 1.4307 0.6790 0.3792
C5 C 1.73451(15) 0.06754(11) 0.06496(9)
H10 H 1.6868 0.0249 0.0167
H11 H 1.7962 0.0699 0.0529
C6 C 1.56780(13) -0.07215(14) 0.05188(10)
H12 H 1.5332 -0.0249 0.0529
H13 H 1.5264 -0.1266 0.0513
H14 H 1.5919 -0.0902 0.0048
C7 C 1.34028(13) 0.60446(12) 0.23157(10)
H15 H 1.3964 0.6481 0.2700
H16 H 1.2989 0.6390 0.2154
H17 H 1.3576 0.5636 0.1857
C8 C 1.14197(11) 0.38319(10) 0.37860(9)
H18 H 1.1552 0.4212 0.4356
H19 H 1.0742 0.3695 0.3565
C9 C 1.05618(12) 0.36059(11) 0.21649(10)
H20 H 1.0515 0.3043 0.2265
H21 H 1.0488 0.3441 0.1602
H22 H 1.0073 0.3908 0.2339
C10 C 1.18294(12) 0.16929(10) 0.38038(9)
H23 H 1.1767 0.1205 0.3978
C11 C 1.33363(14) 0.50259(13) 0.46063(10)
H24 H 1.3079 0.5409 0.5020
H25 H 1.4005 0.5293 0.4719
H26 H 1.3234 0.4395 0.4586
O1 O 0.53505(15) 0.61278(13) 0.14595(9)
O2 O 0.63507(12) 0.52620(9) 0.10738(8)
C12 C 1.32411(13) -0.11202(15) 0.16564(14)
H27 H 1.2589 -0.1371 0.1470
C13 C 1.55985(11) -0.13213(10) 0.18401(11)
H28 H 1.5496 -0.1865 0.1338
H29 H 1.5751 -0.1524 0.2271
C14 C 0.94992(12) 0.55774(11) 0.12066(10)
H30 H 0.8899 0.5563 0.0943
C15 C 1.68585(12) 0.20799(10) 0.15463(9)
H31 H 1.6690 0.1825 0.1900
C16 C 1.99997(13) -0.05993(11) 0.39645(9)
H32 H 2.0362 -0.0754 0.4337
C17 C 1.15345(11) 0.46967(10) 0.14369(9)
H33 H 1.1998 0.4937 0.1199
H34 H 1.1258 0.4031 0.1098
C18 C 1.80812(11) 0.07076(9) 0.19887(9)
C19 C 1.64436(12) 0.56519(12) 0.38349(9)
H35 H 1.7098 0.5767 0.4007
C20 C 1.73106(11) 0.03178(9) 0.13044(8)
C21 C 0.59647(16) 0.59656(14) 0.11464(9)
C22 C 0.57128(11) 0.64041(9) -0.00023(8)
H36 H 0.5091 0.6065 -0.0109
C23 C 0.63758(11) 0.65052(9) 0.06733(8)
C24 C 1.28980(10) 0.54561(9) 0.26870(9)
C25 C 1.33114(10) 0.55541(10) 0.34654(9)
C26 C 1.45620(10) -0.01496(10) 0.22343(9)
H37 H 1.5036 0.0402 0.2535
C27 C 1.08584(10) 0.64297(9) 0.50175(7)
H38 H 1.0250 0.6062 0.4913
C28 C 1.50284(11) 0.49923(11) 0.31479(10)
H39 H 1.4486 0.4581 0.2766
C29 C 1.88037(12) 0.09014(11) 0.33990(10)
H40 H 1.9263 0.1404 0.3376
H41 H 1.8565 0.1169 0.3870
C30 C 1.92359(10) -0.06780(10) 0.28854(8)
H42 H 1.8945 -0.0873 0.2347
C31 C 1.28479(11) 0.49947(10) 0.38054(9)
C32 C 1.32385(9) 0.71071(10) 0.65094(8)
C33 C 1.64327(9) -0.05629(9) 0.19100(8)
O3 O 1.11008(8) -0.17365(7) 0.04077(9)
H43 H 1.1127 -0.2257 0.0403
C34 C 1.15257(10) 0.42795(9) 0.26205(9)
C35 C 1.65002(10) -0.03200(10) 0.12580(9)
C36 C 1.01142(9) -0.08336(8) 0.00806(7)
C37 C 1.71680(10) -0.01313(9) 0.26142(8)
C38 C 1.12751(10) 0.59356(10) 0.61268(8)
C39 C 1.79899(10) 0.04914(9) 0.26538(9)
C40 C 1.40979(11) 0.14928(9) 0.57609(8)
O4 O 1.10063(9) 0.62683(9) 0.67234(6)
C41 C 0.75545(10) 0.74431(9) 0.03416(7)
H44 H 0.8172 0.7797 0.0459
C42 C 1.02547(10) 0.68517(10) 0.38672(8)
O5 O 1.09362(8) -0.02196(7) 0.18783(6)
C43 C 1.08031(11) 0.60237(9) 0.20747(8)
H45 H 1.1300 0.6361 0.2527
C44 C 1.20190(10) 0.48067(9) 0.22672(8)
C45 C 1.10453(9) 0.69247(9) 0.45434(7)
O6 O 1.12119(8) 0.82191(8) 0.23270(6)
H46 H 1.1179 0.8737 0.2328
O7 O 0.94987(9) 0.62283(8) 0.36469(6)
C46 C 1.19513(10) 0.43881(9) 0.33934(8)
C47 C 1.15626(9) 0.64739(9) 0.56438(7)
C48 C 1.26638(9) 0.75533(8) 0.53604(7)
H47 H 1.3266 0.7940 0.5480
C49 C 1.22080(10) 0.25034(9) 0.31636(8)
H48 H 1.2452 0.2722 0.2814
C50 C 0.80264(12) 0.71623(10) 0.15969(8)
C51 C 1.22530(9) 0.80176(9) 0.42246(7)
C52 C 1.42894(9) 0.01807(8) 0.45103(7)
C53 C 1.06243(8) 0.00373(9) 0.06840(7)
C54 C 0.52536(10) 0.67025(9) -0.12427(7)
C55 C 0.72356(9) 0.77437(8) -0.09043(7)
O8 O 1.32731(8) 0.14508(8) 0.53390(6)
H49 H 1.3046 0.1868 0.5606
C56 C 1.52821(9) 0.05503(8) 0.58107(7)
H50 H 1.5477 0.0929 0.6357
C57 C 1.12717(10) 0.01242(8) 0.14524(7)
O9 O 1.41319(8) 0.19998(7) 0.26295(6)
H51 H 1.3985 0.2052 0.2204
C58 C 0.73024(10) 0.70309(9) 0.08552(7)
O10 O 0.95877(8) -0.24563(7) -0.01704(7)
C59 C 0.59738(10) 0.68072(8) -0.05184(7)
C60 C 1.02321(9) -0.17589(9) 0.01010(7)
O11 O 0.53693(8) 0.72703(7) -0.15510(6)
C61 C 1.45632(9) 0.07354(8) 0.53363(7)
O12 O 1.44483(8) 0.20609(8) 0.64530(6)
C62 C 1.24708(9) 0.70469(9) 0.58280(7)
O13 O 1.24872(8) 0.76507(7) 0.36075(6)
C63 C 1.19632(9) 0.74854(8) 0.47156(6)
C64 C 0.69095(9) 0.73394(8) -0.03390(7)
C65 C 0.94901(9) -0.08631(8) -0.05927(7)
H52 H 0.9144 -0.1447 -0.0988
C66 C 1.35503(10) 0.03332(8) 0.39214(7)
O14 O 1.12681(8) 0.50076(7) 0.57682(6)
H53 H 1.1035 0.4720 0.6011
O15 O 0.73174(7) 0.86692(6) -0.06368(5)
H54 H 0.7509 0.8866 -0.0951
O16 O 0.74160(8) 0.72702(7) -0.15156(6)
O17 O 1.27174(7) -0.01937(6) 0.36753(5)
O18 O 1.22699(7) 0.89249(6) 0.45646(5)
H55 H 1.2485 0.9199 0.4306
O19 O 1.30514(7) 0.64464(6) 0.67324(5)
O20 O 0.88906(7) 0.74451(7) 0.16169(5)
O21 O 1.21402(6) 0.05887(6) 0.16109(5)
O22 O 0.45069(7) 0.60051(6) -0.15087(5)
O23 O 1.04345(7) 0.74527(6) 0.35744(5)
O24 O 1.38425(6) 0.09446(6) 0.36719(5)
Cu1 Cu 1.301470(11) 0.082450(10) 0.265610(8)
Cu2 Cu 0.978030(11) 0.751060(10) 0.257326(8)
Cu3 Cu 1.634420(11) 0.386750(10) 0.241040(8)
N1 N 0.99916(9) 0.62815(8) 0.19205(6)
N2 N 1.23136(8) 0.17174(7) 0.32416(6)
N3 N 1.36302(8) -0.01977(9) 0.21062(7)
N4 N 1.96796(8) -0.11959(8) 0.31846(6)
N5 N 1.59128(8) 0.48670(8) 0.31788(7)
N6 N 1.07904(9) 0.52188(8) 0.14878(7)
N7 N 1.68152(10) 0.29300(8) 0.16097(7)
N8 N 1.50497(9) 0.57925(8) 0.37465(7)
N9 N 1.17075(8) 0.29366(8) 0.36507(7)
N10 N 1.92628(9) 0.01519(8) 0.34542(7)
N11 N 1.47134(8) -0.09950(9) 0.18732(7)
N12 N 0.99542(11) 0.49157(10) 0.09232(8)
N13 N 1.71665(11) 0.16310(8) 0.09253(7)
N14 N 1.59519(10) 0.62279(10) 0.42005(9)
N15 N 1.14579(11) 0.24245(9) 0.40774(8)
N16 N 1.38630(11) -0.16456(12) 0.14986(12)
N17 N 1.97635(12) 0.02171(10) 0.41617(8)
N18 N 1.73129(18) 0.21852(12) 0.05422(10)
O25 O 1.39430(9) 0.77997(9) 0.68192(7)
O27 O 0.77507(10) 0.69838(10) 0.21299(6)
C1_2 C 0.89911(13) 1.13595(14) 0.20214(13)
H1_2 H 0.9040 1.1256 0.1487
H2_2 H 0.9527 1.1226 0.2292
H3_2 H 0.8979 1.2007 0.2305
C2_2 C 0.70839(19) 1.29415(13) 0.09596(12)
H4_2 H 0.7104 1.3455 0.0819
C3_2 C 0.70632(14) 0.96677(12) 0.33488(9)
H5_2 H 0.7197 0.9067 0.3280
H6_2 H 0.6427 0.9654 0.3409
H7_2 H 0.7500 1.0157 0.3818
C4A C 0.57485(11) -0.62464(11) -0.39296(11)
H8A H 0.5713 -0.6467 -0.4498
H9A H 0.5693 -0.6790 -0.3792
C5_2 C 0.73451(15) 1.06754(11) 0.06496(9)
H10_2 H 0.6868 1.0249 0.0167
H11_2 H 0.7962 1.0699 0.0529
C6_2 C 0.56780(13) 0.92785(14) 0.05188(10)
H12_2 H 0.5332 0.9751 0.0529
H13_2 H 0.5264 0.8734 0.0513
H14_2 H 0.5919 0.9098 0.0048
C7A C 0.65972(13) -0.60446(12) -0.23157(10)
H15A H 0.6036 -0.6481 -0.2700
H16A H 0.7011 -0.6390 -0.2154
H17A H 0.6424 -0.5636 -0.1857
C8A C 0.85803(11) -0.38319(10) -0.37860(9)
H18A H 0.8448 -0.4212 -0.4356
H19A H 0.9258 -0.3695 -0.3565
C9A C 0.94382(12) -0.36059(11) -0.21649(10)
H20A H 0.9485 -0.3043 -0.2265
H21A H 0.9512 -0.3441 -0.1602
H22A H 0.9927 -0.3908 -0.2339
C10A C 0.81706(12) -0.16929(10) -0.38038(9)
H23A H 0.8233 -0.1205 -0.3978
C11A C 0.66637(14) -0.50259(13) -0.46063(10)
H24A H 0.6921 -0.5409 -0.5020
H25A H 0.5995 -0.5293 -0.4719
H26A H 0.6766 -0.4395 -0.4586
O1A O 1.46495(15) 0.38722(13) -0.14595(9)
O2A O 1.36493(12) 0.47380(9) -0.10738(8)
C12_2 C 0.32411(13) 0.88798(15) 0.16564(14)
H27_2 H 0.2589 0.8629 0.1470
C13_2 C 0.55985(11) 0.86787(10) 0.18401(11)
H28_2 H 0.5496 0.8135 0.1338
H29_2 H 0.5751 0.8476 0.2271
C14A C 1.05008(12) -0.55774(11) -0.12066(10)
H30A H 1.1101 -0.5563 -0.0943
C15_2 C 0.68585(12) 1.20799(10) 0.15463(9)
H31_2 H 0.6690 1.1825 0.1900
C16_2 C 0.99997(13) 0.94007(11) 0.39645(9)
H32_2 H 1.0362 0.9246 0.4337
C17A C 0.84655(11) -0.46967(10) -0.14369(9)
H33A H 0.8002 -0.4937 -0.1199
H34A H 0.8742 -0.4031 -0.1098
C18_2 C 0.80812(11) 1.07076(9) 0.19887(9)
C19A C 0.35564(12) -0.56519(12) -0.38349(9)
H35A H 0.2902 -0.5767 -0.4007
C20_2 C 0.73106(11) 1.03178(9) 0.13044(8)
C21A C 1.40353(16) 0.40344(14) -0.11464(9)
C22A C 1.42872(11) 0.35959(9) 0.00023(8)
H36A H 1.4909 0.3935 0.0109
C23A C 1.36242(11) 0.34948(9) -0.06733(8)
C24A C 0.71020(10) -0.54561(9) -0.26870(9)
C25A C 0.66886(10) -0.55541(10) -0.34654(9)
C26_2 C 0.45620(10) 0.98504(10) 0.22343(9)
H37_2 H 0.5036 1.0402 0.2535
C27A C 1.91416(10) 0.35703(9) 0.49825(7)
H38A H 1.9750 0.3938 0.5087
C28A C 0.49716(11) -0.49923(11) -0.31479(10)
H39A H 0.5514 -0.4581 -0.2766
C29_2 C 0.88037(12) 1.09014(11) 0.33990(10)
H40_2 H 0.9263 1.1404 0.3376
H41_2 H 0.8565 1.1169 0.3870
C30_2 C 0.92359(10) 0.93220(10) 0.28854(8)
H42_2 H 0.8945 0.9127 0.2347
C31A C 0.71521(11) -0.49947(10) -0.38054(9)
C32A C 1.67615(9) 0.28929(10) 0.34906(8)
C33_2 C 0.64327(9) 0.94371(9) 0.19100(8)
O3A O 0.88992(8) 0.17365(7) -0.04077(9)
H43A H 0.8873 0.2257 -0.0403
C34A C 0.84743(10) -0.42795(9) -0.26205(9)
C35_2 C 0.65002(10) 0.96800(10) 0.12580(9)
C36A C 0.98858(9) 0.08336(8) -0.00806(7)
C37_2 C 0.71680(10) 0.98687(9) 0.26142(8)
C38A C 1.87249(10) 0.40644(10) 0.38732(8)
C39_2 C 0.79899(10) 1.04914(9) 0.26538(9)
C40A C 1.59021(11) -0.14928(9) 0.42391(8)
O4A O 1.89937(9) 0.37317(9) 0.32766(6)
C41A C 1.24455(10) 0.25569(9) -0.03416(7)
H44A H 1.1828 0.2203 -0.0459
C42A C 1.97453(10) 0.31483(10) 0.61328(8)
O5A O 0.90638(8) 0.02196(7) -0.18783(6)
C43A C 0.91969(11) -0.60237(9) -0.20747(8)
H45A H 0.8700 -0.6361 -0.2527
C44A C 0.79810(10) -0.48067(9) -0.22672(8)
C45A C 1.89547(9) 0.30753(9) 0.54566(7)
O6_2 O 2.12119(8) -0.17809(8) 0.23270(6)
H46_2 H 2.1179 -0.1263 0.2328
O7A O 2.05013(9) 0.37717(8) 0.63531(6)
C46A C 0.80487(10) -0.43881(9) -0.33934(8)
C47A C 1.84374(9) 0.35261(9) 0.43562(7)
C48A C 1.73362(9) 0.24467(8) 0.46396(7)
H47A H 1.6734 0.2060 0.4520
C49A C 0.77920(10) -0.25034(9) -0.31636(8)
H48A H 0.7548 -0.2722 -0.2814
C50A C 1.19736(12) 0.28377(10) -0.15969(8)
C51A C 1.77470(9) 0.19824(9) 0.57754(7)
C52A C 1.57106(9) -0.01807(8) 0.54897(7)
C53A C 0.93757(8) -0.00373(9) -0.06840(7)
C54A C 1.47464(10) 0.32975(9) 0.12427(7)
C55A C 1.27644(9) 0.22563(8) 0.09043(7)
O8A O 1.67269(8) -0.14508(8) 0.46610(6)
H49A H 1.6954 -0.1868 0.4394
C56A C 1.47179(9) -0.05503(8) 0.41893(7)
H50A H 1.4523 -0.0929 0.3643
C57A C 0.87283(10) -0.01242(8) -0.14524(7)
O9A O 0.58681(8) -0.19998(7) -0.26295(6)
H51A H 0.6015 -0.2052 -0.2204
C58A C 1.26976(10) 0.29691(9) -0.08552(7)
O10A O 1.04123(8) 0.24563(7) 0.01704(7)
C59A C 1.40262(10) 0.31928(8) 0.05184(7)
C60A C 0.97679(9) 0.17589(9) -0.01010(7)
O11A O 1.46307(8) 0.27297(7) 0.15510(6)
C61A C 1.54368(9) -0.07354(8) 0.46637(7)
O12A O 1.55517(8) -0.20609(8) 0.35470(6)
C62A C 1.75292(9) 0.29531(9) 0.41720(7)
O13A O 1.75128(8) 0.23493(7) 0.63925(6)
C63A C 1.80368(9) 0.25146(8) 0.52844(6)
C64A C 1.30905(9) 0.26606(8) 0.03390(7)
C65A C 1.05099(9) 0.08631(8) 0.05927(7)
H52A H 1.0856 0.1447 0.0988
C66A C 1.64497(10) -0.03332(8) 0.60786(7)
O14A O 1.87319(8) 0.49924(7) 0.42318(6)
H53A H 1.8965 0.5280 0.3989
O15A O 1.26826(7) 0.13308(6) 0.06368(5)
H54A H 1.2491 0.1134 0.0951
O16A O 1.25840(8) 0.27298(7) 0.15156(6)
O17A O 1.72826(7) 0.01937(6) 0.63247(5)
O18A O 1.77301(7) 0.10751(6) 0.54354(5)
H55A H 1.7515 0.0801 0.5694
O19A O 1.69486(7) 0.35536(6) 0.32676(5)
O19_2 O 0.30514(7) -0.35536(6) -0.32676(5)
O20A O 1.11094(7) 0.25549(7) -0.16169(5)
O20_2 O 1.88906(7) -0.25549(7) 0.16169(5)
O21A O 0.78598(6) -0.05887(6) -0.16109(5)
O22A O 1.54931(7) 0.39949(6) 0.15087(5)
O22_2 O 0.45069(7) -0.39949(6) -0.15087(5)
O23A O 1.95655(7) 0.25473(6) 0.64256(5)
O23_2 O 2.04345(7) -0.25473(6) 0.35744(5)
O24A O 1.61575(6) -0.09446(6) 0.63281(5)
O24A_2 O 0.61575(6) -0.09446(6) -0.36719(5)
Cu1A Cu 0.698530(11) -0.082450(10) -0.265610(8)
Cu1A_2 Cu 1.698530(11) -0.082450(10) 0.734390(8)
Cu1_2 Cu 0.301470(11) 1.082450(10) 0.265610(8)
Cu2_2 Cu 1.978030(11) -0.248940(10) 0.257326(8)
Cu2A Cu 2.021970(11) 0.248940(10) 0.742674(8)
Cu2A_2 Cu 1.021970(11) 0.248940(10) -0.257326(8)
Cu2A_3 Cu 1.021970(11) -0.751060(10) -0.257326(8)
Cu3A Cu 0.365580(11) -0.386750(10) -0.241040(8)
Cu3A_2 Cu 1.365580(11) 0.613250(10) 0.758960(8)
Cu3A_3 Cu 0.365580(11) 0.613250(10) -0.241040(8)
Cu3_2 Cu 0.634420(11) 1.386750(10) 0.241040(8)
N1A N 1.00084(9) -0.62815(8) -0.19205(6)
N1_2 N 1.99916(9) -0.37185(8) 0.19205(6)
N2A N 0.76864(8) -0.17174(7) -0.32416(6)
N3_2 N 0.36302(8) 0.98023(9) 0.21062(7)
N3A N 0.63698(8) 0.01977(9) -0.21062(7)
N4_2 N 0.96796(8) 0.88041(8) 0.31846(6)
N5A N 0.40872(8) -0.48670(8) -0.31788(7)
N6A N 0.92096(9) -0.52188(8) -0.14878(7)
N7_2 N 0.68152(10) 1.29300(8) 0.16097(7)
N7A N 0.31848(10) -0.29300(8) -0.16097(7)
N8A N 0.49503(9) -0.57925(8) -0.37465(7)
N9A N 0.82925(8) -0.29366(8) -0.36507(7)
N10_2 N 0.92628(9) 1.01519(8) 0.34542(7)
N11_2 N 0.47134(8) 0.90050(9) 0.18732(7)
N12A N 1.00458(11) -0.49157(10) -0.09232(8)
N13_2 N 0.71665(11) 1.16310(8) 0.09253(7)
N14A N 0.40481(10) -0.62279(10) -0.42005(9)
N15A N 0.85421(11) -0.24245(9) -0.40774(8)
N16_2 N 0.38630(11) 0.83544(12) 0.14986(12)
N17_2 N 0.97635(12) 1.02171(10) 0.41617(8)
N18_2 N 0.73129(18) 1.21852(12) 0.05422(10)
O25A O 1.60570(9) 0.22003(9) 0.31808(7)
O27A O 1.22493(10) 0.30162(10) -0.21299(6)
O26 O 0.87471(10) 0.33106(8) 0.94663(7)
H56 H 0.8276(3) 0.3379(4) 0.9179(3)
H57 H 0.8661(5) 0.3418(7) 0.99301(17)
O28 O 0.21439(11) 0.24200(11) 0.61668(9)
H58 H 0.1763(2) 0.2779(3) 0.6191(7)
H59 H 0.2622(3) 0.2671(8) 0.6575(3)
O29 O 0.2983(2) 0.61432(16) 0.04615(13)
H62 H 0.2752(7) 0.5598(3) 0.0068(4)
H63 H 0.3388(3) 0.6464(3) 0.0324(3)
O30 O 0.23149(8) 0.48939(8) -0.24418(6)
H60 H 0.2371(8) 0.4439(2) -0.2310(2)
H61 H 0.2576(3) 0.4878(5) -0.28186(18)
loop_
_geom_bond_atom_site_label_1
_geom_bond_atom_site_label_2
_geom_bond_site_symmetry_1
_geom_bond_site_symmetry_2
C1 H1 1_555 1_555
H2 C1 1_555 1_555
H3 C1 1_555 1_555
C2 H4 1_555 1_555
C3 H5 1_555 1_555
H6 C3 1_555 1_555
H7 C3 1_555 1_555
C4 H8 1_555 1_555
H9 C4 1_555 1_555
C5 H10 1_555 1_555
H11 C5 1_555 1_555
C6 H12 1_555 1_555
H13 C6 1_555 1_555
H14 C6 1_555 1_555
C7 H15 1_555 1_555
H16 C7 1_555 1_555
H17 C7 1_555 1_555
C8 H18 1_555 1_555
H19 C8 1_555 1_555
C9 H20 1_555 1_555
H21 C9 1_555 1_555
H22 C9 1_555 1_555
C10 H23 1_555 1_555
C11 H24 1_555 1_555
H25 C11 1_555 1_555
H26 C11 1_555 1_555
O1 C21 1_555 1_555
O2 C21 1_555 1_555
C12 H27 1_555 1_555
C13 H28 1_555 1_555
H29 C13 1_555 1_555
C14 H30 1_555 1_555
C15 H31 1_555 1_555
C16 H32 1_555 1_555
C17 H33 1_555 1_555
H34 C17 1_555 1_555
C18 C1 1_555 1_555
C19 H35 1_555 1_555
C20 C5 1_555 1_555
C21 C23 1_555 1_555
C22 H36 1_555 1_555
C23 C22 1_555 1_555
C24 C7 1_555 1_555
C25 C4 1_555 1_555
C26 H37 1_555 1_555
C27 H38 1_555 1_555
C28 H39 1_555 1_555
C29 H40 1_555 1_555
H41 C29 1_555 1_555
C30 H42 1_555 1_555
C31 C11 1_555 1_555
C32 C62 1_555 1_555
C33 C13 1_555 1_555
O3 H43 1_555 1_555
C34 C9 1_555 1_555
C35 C6 1_555 1_555
C36 C53 1_555 1_555
C37 C3 1_555 1_555
C38 O4 1_555 1_555
C39 C18 1_555 1_555
C40 O8 1_555 1_555
C41 H44 1_555 1_555
C42 C45 1_555 1_555
O5 C57 1_555 1_555
C43 H45 1_555 1_555
C44 C17 1_555 1_555
C45 C27 1_555 1_555
O6 H46 1_555 1_555
O7 C42 1_555 1_555
C46 C8 1_555 1_555
C47 C27 1_555 1_555
C48 H47 1_555 1_555
C49 H48 1_555 1_555
C50 C58 1_555 1_555
C51 O13 1_555 1_555
C52 C61 1_555 1_555
C53 C57 1_555 1_555
C54 C59 1_555 1_555
C55 C64 1_555 1_555
O8 H49 1_555 1_555
C56 H50 1_555 1_555
C57 O21 1_555 1_555
O9 H51 1_555 1_555
C58 C23 1_555 1_555
O10 C60 1_555 1_555
C59 C22 1_555 1_555
C60 O3 1_555 1_555
O11 C54 1_555 1_555
C61 C40 1_555 1_555
O12 C40 1_555 1_555
C62 C47 1_555 1_555
C63 C45 1_555 1_555
C64 C41 1_555 1_555
C65 C36 1_555 1_555
H52 C65 1_555 1_555
C66 C52 1_555 1_555
O14 C38 1_555 1_555
H53 O14 1_555 1_555
O15 C55 1_555 1_555
H54 O15 1_555 1_555
O16 C55 1_555 1_555
O17 C66 1_555 1_555
O18 C51 1_555 1_555
H55 O18 1_555 1_555
O19 C32 1_555 1_555
O20 C50 1_555 1_555
O21 Cu1 1_555 1_555
O22 C54 1_555 1_555
O23 C42 1_555 1_555
O24 C66 1_555 1_555
Cu1 O9 1_555 1_555
Cu2 O6 1_555 1_555
Cu3 N5 1_555 1_555
N1 C14 1_555 1_555
N2 C10 1_555 1_555
N3 C12 1_555 1_555
N4 C16 1_555 1_555
N5 C19 1_555 1_555
N6 C17 1_555 1_555
N7 C2 1_555 1_555
N8 C4 1_555 1_555
N9 C8 1_555 1_555
N10 C29 1_555 1_555
N11 C13 1_555 1_555
N12 C14 1_555 1_555
N13 C5 1_555 1_555
N14 C19 1_555 1_555
N15 C10 1_555 1_555
N16 C12 1_555 1_555
N17 C16 1_555 1_555
N18 C2 1_555 1_555
O25 C32 1_555 1_555
O26 H56 1_555 1_555
O27 C50 1_555 1_555
O28 H58 1_555 1_555
O29 H62 1_555 1_555
O30 H60 1_555 1_555
H57 O26 1_555 1_555
H59 O28 1_555 1_555
H61 O30 1_555 1_555
H63 O29 1_555 1_555
C1_2 H1_2 1_555 1_555
H2_2 C1_2 1_555 1_555
H3_2 C1_2 1_555 1_555
C2_2 H4_2 1_555 1_555
C3_2 H5_2 1_555 1_555
H6_2 C3_2 1_555 1_555
H7_2 C3_2 1_555 1_555
C4A H8A 1_555 1_555
H9A C4A 1_555 1_555
C5_2 H10_2 1_555 1_555
H11_2 C5_2 1_555 1_555
C6_2 H12_2 1_555 1_555
H13_2 C6_2 1_555 1_555
H14_2 C6_2 1_555 1_555
C7A H15A 1_555 1_555
H16A C7A 1_555 1_555
H17A C7A 1_555 1_555
C8A H18A 1_555 1_555
H19A C8A 1_555 1_555
C9A H20A 1_555 1_555
H21A C9A 1_555 1_555
H22A C9A 1_555 1_555
C10A H23A 1_555 1_555
C11A H24A 1_555 1_555
H25A C11A 1_555 1_555
H26A C11A 1_555 1_555
O1A C21A 1_555 1_555
O2A C21A 1_555 1_555
C12_2 H27_2 1_555 1_555
C13_2 H28_2 1_555 1_555
H29_2 C13_2 1_555 1_555
C14A H30A 1_555 1_555
C15_2 H31_2 1_555 1_555
C16_2 H32_2 1_555 1_555
C17A H33A 1_555 1_555
H34A C17A 1_555 1_555
C18_2 C1_2 1_555 1_555
C19A H35A 1_555 1_555
C20_2 C5_2 1_555 1_555
C21A C23A 1_555 1_555
C22A H36A 1_555 1_555
C23A C22A 1_555 1_555
C24A C7A 1_555 1_555
C25A C4A 1_555 1_555
C26_2 H37_2 1_555 1_555
C27A H38A 1_555 1_555
C28A H39A 1_555 1_555
C29_2 H40_2 1_555 1_555
H41_2 C29_2 1_555 1_555
C30_2 H42_2 1_555 1_555
C31A C11A 1_555 1_555
C32A C62A 1_555 1_555
C33_2 C13_2 1_555 1_555
O3A H43A 1_555 1_555
C34A C9A 1_555 1_555
C35_2 C6_2 1_555 1_555
C36A C53A 1_555 1_555
C37_2 C3_2 1_555 1_555
C38A O4A 1_555 1_555
C39_2 C18_2 1_555 1_555
C40A O8A 1_555 1_555
C41A H44A 1_555 1_555
C42A C45A 1_555 1_555
O5A C57A 1_555 1_555
C43A H45A 1_555 1_555
C44A C17A 1_555 1_555
C45A C27A 1_555 1_555
O6_2 H46_2 1_555 1_555
O7A C42A 1_555 1_555
C46A C8A 1_555 1_555
C47A C27A 1_555 1_555
C48A H47A 1_555 1_555
C49A H48A 1_555 1_555
C50A C58A 1_555 1_555
C51A O13A 1_555 1_555
C52A C56 1_555 1_555
C53A C65 1_555 1_555
C54A C59A 1_555 1_555
C55A C64A 1_555 1_555
O8A H49A 1_555 1_555
C56A C52 1_555 1_555
H50A C56A 1_555 1_555
C57A C53A 1_555 1_555
O9A H51A 1_555 1_555
C58A C23A 1_555 1_555
O10A C60A 1_555 1_555
C59A C22A 1_555 1_555
C60A O3A 1_555 1_555
O11A C54A 1_555 1_555
C61A C40A 1_555 1_555
O12A C40A 1_555 1_555
C62A C47A 1_555 1_555
C63A C45A 1_555 1_555
C64A C41A 1_555 1_555
C65A C53 1_555 1_555
H52A C65A 1_555 1_555
C66A C52A 1_555 1_555
O14A C38A 1_555 1_555
H53A O14A 1_555 1_555
O15A C55A 1_555 1_555
H54A O15A 1_555 1_555
O16A C55A 1_555 1_555
O17A C66A 1_555 1_555
O18A C51A 1_555 1_555
H55A O18A 1_555 1_555
O19A Cu3 1_555 1_555
O19_2 Cu3A 1_555 1_555
O20A C50A 1_555 1_555
O20_2 Cu2_2 1_555 1_555
O21A C57A 1_555 1_555
O22A Cu3 1_555 1_555
O22_2 Cu3A 1_555 1_555
O23A C42A 1_555 1_555
O23_2 Cu2_2 1_555 1_555
O24A C66A 1_555 1_555
O24A_2 Cu1A 1_555 1_555
Cu1A O9A 1_555 1_555
Cu1A_2 O24A 1_555 1_555
Cu1_2 N3_2 1_555 1_555
Cu2_2 N4 1_555 1_555
Cu2A O23A 1_555 1_555
Cu2A_2 O20A 1_555 1_555
Cu2A_3 N1A 1_555 1_555
Cu3A N5A 1_555 1_555
Cu3A_2 O19 1_555 1_555
Cu3A_3 O22 1_555 1_555
Cu3_2 N7_2 1_555 1_555
N1A C14A 1_555 1_555
N1_2 Cu2_2 1_555 1_555
N2A C10A 1_555 1_555
N3_2 C12_2 1_555 1_555
N3A Cu1A 1_555 1_555
N4_2 Cu2 1_555 1_555
N5A C19A 1_555 1_555
N6A C17A 1_555 1_555
N7_2 C2_2 1_555 1_555
N7A Cu3A 1_555 1_555
N8A C4A 1_555 1_555
N9A C8A 1_555 1_555
N10_2 C29_2 1_555 1_555
N11_2 C13_2 1_555 1_555
N12A C14A 1_555 1_555
N13_2 C5_2 1_555 1_555
N14A C19A 1_555 1_555
N15A C10A 1_555 1_555
N16_2 C12_2 1_555 1_555
N17_2 C16_2 1_555 1_555
N18_2 C2_2 1_555 1_555
O25A C32A 1_555 1_555
O27A C50A 1_555 1_555
C15 N7 1_555 1_555
C15 N13 1_555 1_555
C18 C20 1_555 1_555
C20 C35 1_555 1_555
C24 C25 1_555 1_555
C24 C44 1_555 1_555
C25 C31 1_555 1_555
C26 N3 1_555 1_555
C26 N11 1_555 1_555
C28 N5 1_555 1_555
C28 N8 1_555 1_555
C29 C39 1_555 1_555
C30 N4 1_555 1_555
C30 N10 1_555 1_555
C31 C46 1_555 1_555
C33 C35 1_555 1_555
C33 C37 1_555 1_555
C34 C44 1_555 1_555
C34 C46 1_555 1_555
C36 C60 1_555 1_555
C37 C39 1_555 1_555
C38 C47 1_555 1_555
C41 C58 1_555 1_555
C43 N1 1_555 1_555
C43 N6 1_555 1_555
C48 C62 1_555 1_555
C48 C63 1_555 1_555
C49 N2 1_555 1_555
C49 N9 1_555 1_555
C51 C63 1_555 1_555
C56 C61 1_555 1_555
C59 C64 1_555 1_555
O20 Cu2 1_555 1_555
O23 Cu2 1_555 1_555
O24 Cu1 1_555 1_555
Cu1 N2 1_555 1_555
Cu1 N3 1_555 1_555
Cu2 N1 1_555 1_555
Cu3 N7 1_555 1_555
N6 N12 1_555 1_555
N8 N14 1_555 1_555
N9 N15 1_555 1_555
N10 N17 1_555 1_555
N11 N16 1_555 1_555
N13 N18 1_555 1_555
C15_2 N7_2 1_555 1_555
C15_2 N13_2 1_555 1_555
C16_2 N4_2 1_555 1_555
C18_2 C20_2 1_555 1_555
C20_2 C35_2 1_555 1_555
C24A C25A 1_555 1_555
C24A C44A 1_555 1_555
C25A C31A 1_555 1_555
C26_2 N3_2 1_555 1_555
C26_2 N11_2 1_555 1_555
C28A N5A 1_555 1_555
C28A N8A 1_555 1_555
C29_2 C39_2 1_555 1_555
C30_2 N4_2 1_555 1_555
C30_2 N10_2 1_555 1_555
C31A C46A 1_555 1_555
C32A O19A 1_555 1_555
C33_2 C35_2 1_555 1_555
C33_2 C37_2 1_555 1_555
C34A C44A 1_555 1_555
C34A C46A 1_555 1_555
C36A C60A 1_555 1_555
C36A C65A 1_555 1_555
C37_2 C39_2 1_555 1_555
C38A C47A 1_555 1_555
C41A C58A 1_555 1_555
C43A N1A 1_555 1_555
C43A N6A 1_555 1_555
O6_2 Cu2_2 1_555 1_555
C48A C62A 1_555 1_555
C48A C63A 1_555 1_555
C49A N2A 1_555 1_555
C49A N9A 1_555 1_555
C51A C63A 1_555 1_555
C52A C61A 1_555 1_555
C54A O22A 1_555 1_555
C56A C61A 1_555 1_555
C59A C64A 1_555 1_555
O21A Cu1A 1_555 1_555
Cu1A N2A 1_555 1_555
N6A N12A 1_555 1_555
N8A N14A 1_555 1_555
N9A N15A 1_555 1_555
N10_2 N17_2 1_555 1_555
N11_2 N16_2 1_555 1_555
N13_2 N18_2 1_555 1_555

#END
