
#######################################################################
#
#                 Cambridge Crystallographic Data Centre
#                                CCDC 
#
#######################################################################
#
# If this CIF has been generated from an entry in the Cambridge 
# Structural Database, then it will include bibliographic, chemical, 
# crystal, experimental, refinement or atomic coordinate data resulting 
# from the CCDC's data processing and validation procedures.
#
#######################################################################

data_IBIWEW
_symmetry_cell_setting           triclinic
_symmetry_space_group_name_H-M   'P -1'
_symmetry_Int_Tables_number      2
_space_group_name_Hall           '-P 1'
loop_
_symmetry_equiv_pos_site_id
_symmetry_equiv_pos_as_xyz
1 x,y,z
2 -x,-y,-z
_cell_length_a                   13.9240(2)
_cell_length_b                   18.4535(2)
_cell_length_c                   18.6823(2)
_cell_angle_alpha                107.9840(10)
_cell_angle_beta                 90.5190(10)
_cell_angle_gamma                97.4510(10)
_cell_volume                     4521.13
loop_
_atom_site_label
_atom_site_type_symbol
_atom_site_fract_x
_atom_site_fract_y
_atom_site_fract_z
Hg1 Hg 0.778153(17) 0.781817(14) 0.460079(13)
Hg2 Hg 0.465498(16) 0.641234(13) 0.247371(13)
Na1 Na 0.75937(19) 0.33200(14) 0.22936(14)
Na2 Na 0.7749(3) 1.0625(3) 0.20616(19)
N1 N 0.7130(4) 0.7954(3) 0.5666(3)
C1 C 0.6261(5) 0.8177(3) 0.5722(3)
S1 S 0.58206(15) 0.82801(11) 0.65926(9)
C2 C 0.6857(6) 0.8031(4) 0.6877(4)
H1 H 0.6976 0.8004 0.7358
C3 C 0.7490(5) 0.7875(4) 0.6323(4)
C4 C 0.8479(6) 0.7650(5) 0.6378(4)
H2 H 0.8687 0.7778 0.6899
H3 H 0.8928 0.7921 0.6131
H4 H 0.8453 0.7106 0.6140
N2 N 0.6187(3) 0.8202(3) 0.4460(3)
C5 C 0.5750(4) 0.8332(3) 0.5117(3)
C6 C 0.4854(5) 0.8615(4) 0.5211(4)
H5 H 0.4569 0.8715 0.5673
C7 C 0.4404(5) 0.8741(4) 0.4608(4)
H6 H 0.3811 0.8929 0.4663
C8 C 0.4838(4) 0.8588(3) 0.3914(3)
C9 C 0.5747(4) 0.8329(3) 0.3878(3)
N3 N 0.6085(3) 0.7467(3) 0.2677(2)
C10 C 0.6603(4) 0.7283(3) 0.2053(3)
C11 C 0.7343(4) 0.7800(3) 0.1914(3)
H7 H 0.7689 0.7661 0.1480
C12 C 0.7547(4) 0.8519(3) 0.2432(3)
H8 H 0.8039 0.8871 0.2348
C13 C 0.7036(4) 0.8729(3) 0.3076(3)
C14 C 0.6302(4) 0.8170(3) 0.3174(3)
N4 N 0.5606(3) 0.6011(3) 0.1614(3)
C15 C 0.6361(4) 0.6505(3) 0.1542(3)
S2 S 0.70443(11) 0.61021(8) 0.08107(8)
C16 C 0.6282(5) 0.5254(3) 0.0602(3)
H9 H 0.6364 0.4814 0.0212
C17 C 0.5545(4) 0.5297(3) 0.1071(3)
C18 C 0.4734(5) 0.4674(3) 0.1053(3)
H10 H 0.4775 0.4236 0.0620
H11 H 0.4125 0.4857 0.1027
H12 H 0.4783 0.4528 0.1502
N5 N 0.8738(3) 0.7826(3) 0.3716(3)
C19 C 0.8669(4) 0.7204(3) 0.3123(3)
S3 S 0.94693(11) 0.72917(9) 0.24620(9)
C20 C 0.9921(5) 0.8202(4) 0.3030(4)
H13 H 1.0422 0.8520 0.2906
C21 C 0.9452(4) 0.8396(4) 0.3680(4)
C22 C 0.9655(5) 0.9116(4) 0.4318(4)
H14 H 0.9071 0.9346 0.4428
H15 H 1.0141 0.9466 0.4187
H16 H 0.9885 0.9004 0.4753
N6 N 0.7279(3) 0.6588(3) 0.3543(2)
C23 C 0.7970(4) 0.6513(3) 0.3034(3)
C24 C 0.7992(4) 0.5833(3) 0.2452(3)
H17 H 0.8470 0.5798 0.2102
C25 C 0.7295(4) 0.5208(3) 0.2396(3)
H18 H 0.7298 0.4750 0.2008
C26 C 0.6591(4) 0.5272(3) 0.2926(3)
C27 C 0.6603(4) 0.5978(3) 0.3482(3)
N7 N 0.5034(3) 0.6340(3) 0.3740(3)
C28 C 0.4297(4) 0.6527(3) 0.4193(3)
C29 C 0.4304(4) 0.6506(4) 0.4920(3)
H19 H 0.3781 0.6634 0.5216
C30 C 0.5104(4) 0.6293(4) 0.5206(3)
H20 H 0.5120 0.6273 0.5697
C31 C 0.5879(4) 0.6108(3) 0.4760(3)
C32 C 0.5810(4) 0.6135(3) 0.4015(3)
N8 N 0.3465(4) 0.6754(3) 0.3127(3)
S4 S 0.24846(11) 0.70588(11) 0.42924(9)
C33 C 0.3486(4) 0.6755(4) 0.3835(3)
C34 C 0.2030(5) 0.7171(5) 0.3491(4)
H21 H 0.1440 0.7344 0.3452
C35 C 0.2631(5) 0.6976(4) 0.2915(4)
C36 C 0.2447(5) 0.6974(5) 0.2123(4)
H22 H 0.2887 0.7374 0.2025
H23 H 0.1792 0.7062 0.2058
H24 H 0.2543 0.6485 0.1778
C37 C 0.4379(4) 0.8718(4) 0.3248(4)
H25 H 0.4308 0.8250 0.2822
H26 H 0.3742 0.8868 0.3363
O1 O 0.4990(3) 0.9311(2) 0.3077(2)
C38 C 0.4604(5) 0.9483(4) 0.2448(4)
H27 H 0.4008 0.9703 0.2577
H28 H 0.4458 0.9016 0.2025
C39 C 0.5328(5) 1.0038(4) 0.2241(4)
H29 H 0.5019 1.0233 0.1884
H30 H 0.5532 1.0470 0.2688
O2 O 0.6166(4) 0.9721(3) 0.1917(3)
C40 C 0.6016(8) 0.9200(6) 0.1170(5)
H31 H 0.6416 0.8795 0.1112
H32 H 0.5343 0.8964 0.1089
C41 C 0.6239(8) 0.9564(6) 0.0628(5)
H33 H 0.5829 0.9961 0.0674
H34 H 0.6114 0.9193 0.0129
O3 O 0.7263(5) 0.9909(4) 0.0725(3)
C42 C 0.7969(9) 0.9424(5) 0.0367(5)
H35 H 0.7881 0.9285 -0.0176
H36 H 0.7889 0.8955 0.0506
C43 C 0.8964(7) 0.9858(5) 0.0622(5)
H37 H 0.9455 0.9536 0.0413
H38 H 0.9062 1.0311 0.0458
O4 O 0.9022(5) 1.0073(3) 0.1418(3)
C44 C 0.9981(7) 1.0316(5) 0.1747(5)
H39 H 1.0234 1.0809 0.1688
H40 H 1.0403 0.9944 0.1504
C45 C 0.9936(7) 1.0386(5) 0.2564(5)
H41 H 0.9724 0.9885 0.2619
H42 H 1.0575 1.0574 0.2812
O5 O 0.9278(4) 1.0901(3) 0.2902(3)
C46 C 0.9232(6) 1.1034(5) 0.3698(4)
H43 H 0.9327 1.1584 0.3957
H44 H 0.9751 1.0816 0.3871
C47 C 0.8274(5) 1.0684(3) 0.3898(4)
H45 H 0.8292 1.0736 0.4431
H46 H 0.7759 1.0950 0.3794
O6 O 0.8095(3) 0.9904(2) 0.3472(2)
C48 C 0.7231(4) 0.9519(3) 0.3647(3)
H47 H 0.6696 0.9803 0.3631
H48 H 0.7298 0.9478 0.4150
C49 C 0.5846(4) 0.4595(3) 0.2908(3)
H49 H 0.5920 0.4460 0.3366
H50 H 0.5199 0.4731 0.2881
O7 O 0.5968(3) 0.3962(2) 0.2276(2)
C50 C 0.5206(5) 0.3326(4) 0.2188(4)
H51 H 0.4578 0.3492 0.2159
H52 H 0.5230 0.3138 0.2618
C51 C 0.5347(5) 0.2699(4) 0.1479(4)
H53 H 0.4898 0.2240 0.1445
H54 H 0.5215 0.2860 0.1044
O8 O 0.6312(4) 0.2533(3) 0.1478(3)
C52 C 0.6438(6) 0.1784(4) 0.1010(4)
H55 H 0.6034 0.1646 0.0549
H56 H 0.6252 0.1410 0.1268
C53 C 0.7473(6) 0.1790(4) 0.0831(4)
H57 H 0.7579 0.1281 0.0521
H58 H 0.7646 0.2147 0.0550
O9 O 0.8067(4) 0.2016(3) 0.1513(3)
C54 C 0.9092(6) 0.2171(4) 0.1403(4)
H59 H 0.9191 0.2488 0.1075
H60 H 0.9343 0.1692 0.1167
C55 C 0.9608(5) 0.2571(4) 0.2138(4)
H61 H 0.9460 0.2278 0.2484
H62 H 1.0303 0.2625 0.2080
O10 O 0.9302(3) 0.3315(3) 0.2429(3)
C56 C 0.9730(5) 0.3758(4) 0.3155(4)
H63 H 1.0424 0.3889 0.3126
H64 H 0.9624 0.3468 0.3507
C57 C 0.9257(5) 0.4479(4) 0.3412(4)
H65 H 0.9546 0.4800 0.3900
H66 H 0.9374 0.4765 0.3058
O11 O 0.8233(3) 0.4303(2) 0.3468(2)
C58 C 0.7981(5) 0.4212(4) 0.4181(3)
H67 H 0.8490 0.3994 0.4366
H68 H 0.7388 0.3853 0.4110
C59 C 0.7838(5) 0.4956(4) 0.4763(3)
H69 H 0.7808 0.4890 0.5258
H70 H 0.8374 0.5352 0.4775
O12 O 0.6947(3) 0.5170(2) 0.4562(2)
C60 C 0.6776(4) 0.5892(3) 0.5049(3)
H71 H 0.7327 0.6279 0.5068
H72 H 0.6689 0.5864 0.5555
Cl1 Cl 0.70542(12) 0.21698(9) 0.33310(9)
O13 O 0.6588(5) 0.2739(3) 0.3141(4)
O14 O 0.6810(6) 0.1446(3) 0.2761(3)
O15 O 0.8072(4) 0.2392(3) 0.3393(4)
O16 O 0.6737(5) 0.2102(3) 0.4020(3)
N12 N 0.8084(6) 0.3768(4) 0.1192(4)
C67 C 0.8254(6) 0.3752(4) 0.0597(4)
C68 C 0.8459(8) 0.3708(7) -0.0176(5)
H82 H 0.8255 0.3193 -0.0501
H83 H 0.9143 0.3842 -0.0210
H84 H 0.8114 0.4059 -0.0327
O14_2 O 0.6810(6) 1.1446(3) 0.2761(3)
Na2_2 Na 0.7749(3) 0.0625(3) 0.20616(19)
Cl2 Cl 0.98774(14) 0.78969(12) 0.08031(12)
O17 O 0.9350(9) 0.7173(5) 0.0453(8)
O18 O 1.0608(4) 0.7806(4) 0.1300(3)
O19 O 1.0300(5) 0.8275(6) 0.0300(4)
O20 O 0.9247(6) 0.8380(5) 0.1234(6)
Cl3 Cl 0.44135(11) 0.71860(8) 0.07393(8)
O21 O 0.3941(4) 0.6410(3) 0.0593(3)
O22 O 0.4637(3) 0.7495(3) 0.1536(2)
O23 O 0.5295(4) 0.7177(3) 0.0353(3)
O24 O 0.3788(4) 0.7635(3) 0.0515(3)
Cl4 Cl 0.29205(13) 0.46532(10) 0.29424(9)
O25 O 0.3610(5) 0.4785(4) 0.3554(3)
O26 O 0.2551(5) 0.3877(3) 0.2635(4)
O27 O 0.3427(5) 0.4918(4) 0.2388(3)
O28 O 0.2152(5) 0.5089(4) 0.3224(4)
Cl5 Cl 0.77460(11) 0.00500(9) 0.60977(9)
O29 O 0.8238(16) -0.0539(10) 0.5650(10)
O30 O 0.8114(9) 0.0376(7) 0.6838(5)
O31 O 0.7920(8) 0.0708(8) 0.5767(8)
O32 O 0.6749(7) -0.0176(8) 0.6020(10)
Cl6 Cl 0.99050(11) 0.67173(10) 0.45314(10)
O37 O 0.8896(3) 0.6746(3) 0.4678(3)
O38 O 0.9973(4) 0.6352(3) 0.3737(3)
O39 O 1.0414(4) 0.7478(3) 0.4726(3)
O40 O 1.0291(4) 0.6261(4) 0.4924(3)
N9 N 0.3504(11) 1.0336(13) 0.1136(12)
C61 C 0.2998(10) 0.9868(13) 0.1246(7)
C62 C 0.2388(7) 0.9147(7) 0.1300(5)
H73 H 0.2240 0.9214 0.1815
H74 H 0.2741 0.8718 0.1121
H75 H 0.1797 0.9052 0.0997
N10 N 0.1984(7) 0.1975(4) 0.1477(4)
C63 C 0.2300(6) 0.2378(4) 0.1156(4)
C64 C 0.2676(6) 0.2890(5) 0.0744(5)
H76 H 0.2175 0.2925 0.0405
H77 H 0.3211 0.2694 0.0462
H78 H 0.2893 0.3391 0.1091
N11 N 0.7973(6) 0.5253(4) 0.9331(5)
C65 C 0.8512(8) 0.5438(8) 0.8971(7)
C66 C 0.9209(15) 0.5584(12) 0.8430(12)
H79 H 0.8876 0.5704 0.8038
H80 H 0.9515 0.5134 0.8214
H81 H 0.9693 0.6009 0.8684
O33? O 0.6860(12) -0.0124(10) 0.5667(10)
O34? O 0.7488(12) -0.0215(8) 0.6760(6)
O35? O 0.8119(8) 0.0807(5) 0.6335(10)
O36? O 0.8399(17) -0.0456(11) 0.5705(14)
loop_
_geom_bond_atom_site_label_1
_geom_bond_atom_site_label_2
_geom_bond_site_symmetry_1
_geom_bond_site_symmetry_2
Hg1 N1 1_555 1_555
Hg2 N3 1_555 1_555
Na1 O7 1_555 1_555
Na2 O2 1_555 1_555
N1 C1 1_555 1_555
C1 S1 1_555 1_555
S1 C2 1_555 1_555
C2 H1 1_555 1_555
C3 N1 1_555 1_555
C4 C3 1_555 1_555
H2 C4 1_555 1_555
H3 C4 1_555 1_555
H4 C4 1_555 1_555
N2 Hg1 1_555 1_555
C5 C1 1_555 1_555
C6 C5 1_555 1_555
H5 C6 1_555 1_555
C7 C6 1_555 1_555
H6 C7 1_555 1_555
C8 C7 1_555 1_555
C9 N2 1_555 1_555
N3 C10 1_555 1_555
C10 C11 1_555 1_555
C11 H7 1_555 1_555
C12 C11 1_555 1_555
H8 C12 1_555 1_555
C13 C12 1_555 1_555
C14 C9 1_555 1_555
N4 Hg2 1_555 1_555
C15 C10 1_555 1_555
S2 C15 1_555 1_555
C16 S2 1_555 1_555
H9 C16 1_555 1_555
C17 N4 1_555 1_555
C18 C17 1_555 1_555
H10 C18 1_555 1_555
H11 C18 1_555 1_555
H12 C18 1_555 1_555
N5 Hg1 1_555 1_555
C19 N5 1_555 1_555
S3 C19 1_555 1_555
C20 S3 1_555 1_555
H13 C20 1_555 1_555
C21 N5 1_555 1_555
C22 C21 1_555 1_555
H14 C22 1_555 1_555
H15 C22 1_555 1_555
H16 C22 1_555 1_555
N6 Hg1 1_555 1_555
C23 C19 1_555 1_555
C24 C23 1_555 1_555
H17 C24 1_555 1_555
C25 C24 1_555 1_555
H18 C25 1_555 1_555
C26 C25 1_555 1_555
C27 N6 1_555 1_555
N7 Hg2 1_555 1_555
C28 N7 1_555 1_555
C29 C28 1_555 1_555
H19 C29 1_555 1_555
C30 C29 1_555 1_555
H20 C30 1_555 1_555
C31 C30 1_555 1_555
C32 C27 1_555 1_555
N8 Hg2 1_555 1_555
S4 C33 1_555 1_555
C33 C28 1_555 1_555
C34 S4 1_555 1_555
H21 C34 1_555 1_555
C35 N8 1_555 1_555
C36 C35 1_555 1_555
H22 C36 1_555 1_555
H23 C36 1_555 1_555
H24 C36 1_555 1_555
C37 C8 1_555 1_555
H25 C37 1_555 1_555
H26 C37 1_555 1_555
O1 C37 1_555 1_555
C38 O1 1_555 1_555
H27 C38 1_555 1_555
H28 C38 1_555 1_555
C39 C38 1_555 1_555
H29 C39 1_555 1_555
H30 C39 1_555 1_555
O2 C39 1_555 1_555
C40 O2 1_555 1_555
H31 C40 1_555 1_555
H32 C40 1_555 1_555
C41 C40 1_555 1_555
H33 C41 1_555 1_555
H34 C41 1_555 1_555
O3 Na2 1_555 1_555
C42 O3 1_555 1_555
H35 C42 1_555 1_555
H36 C42 1_555 1_555
C43 C42 1_555 1_555
H37 C43 1_555 1_555
H38 C43 1_555 1_555
O4 Na2 1_555 1_555
C44 O4 1_555 1_555
H39 C44 1_555 1_555
H40 C44 1_555 1_555
C45 C44 1_555 1_555
H41 C45 1_555 1_555
H42 C45 1_555 1_555
O5 Na2 1_555 1_555
C46 O5 1_555 1_555
H43 C46 1_555 1_555
H44 C46 1_555 1_555
C47 C46 1_555 1_555
H45 C47 1_555 1_555
H46 C47 1_555 1_555
O6 C47 1_555 1_555
C48 C13 1_555 1_555
H47 C48 1_555 1_555
H48 C48 1_555 1_555
C49 C26 1_555 1_555
H49 C49 1_555 1_555
H50 C49 1_555 1_555
O7 C49 1_555 1_555
C50 O7 1_555 1_555
H51 C50 1_555 1_555
H52 C50 1_555 1_555
C51 C50 1_555 1_555
H53 C51 1_555 1_555
H54 C51 1_555 1_555
O8 Na1 1_555 1_555
C52 O8 1_555 1_555
H55 C52 1_555 1_555
H56 C52 1_555 1_555
C53 C52 1_555 1_555
H57 C53 1_555 1_555
H58 C53 1_555 1_555
O9 Na1 1_555 1_555
C54 O9 1_555 1_555
H59 C54 1_555 1_555
H60 C54 1_555 1_555
C55 C54 1_555 1_555
H61 C55 1_555 1_555
H62 C55 1_555 1_555
O10 Na1 1_555 1_555
C56 O10 1_555 1_555
H63 C56 1_555 1_555
H64 C56 1_555 1_555
C57 C56 1_555 1_555
H65 C57 1_555 1_555
H66 C57 1_555 1_555
O11 Na1 1_555 1_555
C58 O11 1_555 1_555
H67 C58 1_555 1_555
H68 C58 1_555 1_555
C59 C58 1_555 1_555
H69 C59 1_555 1_555
H70 C59 1_555 1_555
O12 C59 1_555 1_555
C60 C31 1_555 1_555
H71 C60 1_555 1_555
H72 C60 1_555 1_555
Cl1 O13 1_555 1_555
O13 Na1 1_555 1_555
O14 Cl1 1_555 1_555
O15 Cl1 1_555 1_555
O16 Cl1 1_555 1_555
Cl2 O17 1_555 1_555
O18 Cl2 1_555 1_555
O19 Cl2 1_555 1_555
O20 Cl2 1_555 1_555
Cl3 O21 1_555 1_555
O22 Cl3 1_555 1_555
O23 Cl3 1_555 1_555
O24 Cl3 1_555 1_555
Cl4 O25 1_555 1_555
O26 Cl4 1_555 1_555
O27 Cl4 1_555 1_555
O28 Cl4 1_555 1_555
Cl5 O29 1_555 1_555
O30 Cl5 1_555 1_555
O31 Cl5 1_555 1_555
O32 Cl5 1_555 1_555
Cl6 O37 1_555 1_555
O38 Cl6 1_555 1_555
O39 Cl6 1_555 1_555
O40 Cl6 1_555 1_555
N9 C61 1_555 1_555
C61 C62 1_555 1_555
C62 H73 1_555 1_555
H74 C62 1_555 1_555
H75 C62 1_555 1_555
N10 C63 1_555 1_555
C63 C64 1_555 1_555
C64 H76 1_555 1_555
H77 C64 1_555 1_555
H78 C64 1_555 1_555
N11 C65 1_555 1_555
C65 C66 1_555 1_555
C66 H79 1_555 1_555
H80 C66 1_555 1_555
H81 C66 1_555 1_555
N12 Na1 1_555 1_555
C67 N12 1_555 1_555
C68 C67 1_555 1_555
H82 C68 1_555 1_555
H83 C68 1_555 1_555
H84 C68 1_555 1_555
O14_2 Na2 1_555 1_555
Na2_2 O14 1_555 1_555
C2 C3 1_555 1_555
N2 C5 1_555 1_555
C8 C9 1_555 1_555
N3 C14 1_555 1_555
C13 C14 1_555 1_555
N4 C15 1_555 1_555
C16 C17 1_555 1_555
C20 C21 1_555 1_555
N6 C23 1_555 1_555
C26 C27 1_555 1_555
N7 C32 1_555 1_555
C31 C32 1_555 1_555
N8 C33 1_555 1_555
C34 C35 1_555 1_555
C41 O3 1_555 1_555
C43 O4 1_555 1_555
C45 O5 1_555 1_555
O6 C48 1_555 1_555
C51 O8 1_555 1_555
C53 O9 1_555 1_555
C55 O10 1_555 1_555
C57 O11 1_555 1_555
O12 C60 1_555 1_555

#END
