
#######################################################################
#
#                 Cambridge Crystallographic Data Centre
#                                CCDC 
#
#######################################################################
#
# If this CIF has been generated from an entry in the Cambridge 
# Structural Database, then it will include bibliographic, chemical, 
# crystal, experimental, refinement or atomic coordinate data resulting 
# from the CCDC's data processing and validation procedures.
#
#######################################################################

data_IBIYEZ
_symmetry_cell_setting           triclinic
_symmetry_space_group_name_H-M   'P -1'
_symmetry_Int_Tables_number      2
_space_group_name_Hall           '-P 1'
loop_
_symmetry_equiv_pos_site_id
_symmetry_equiv_pos_as_xyz
1 x,y,z
2 -x,-y,-z
_cell_length_a                   9.8233(5)
_cell_length_b                   13.2039(7)
_cell_length_c                   15.9391(8)
_cell_angle_alpha                113.8630(10)
_cell_angle_beta                 96.3080(10)
_cell_angle_gamma                92.6770(10)
_cell_volume                     1869.74
loop_
_atom_site_label
_atom_site_type_symbol
_atom_site_fract_x
_atom_site_fract_y
_atom_site_fract_z
La1 La 0.22666(2) 0.500512(17) 0.495510(14)
S1 S 0.14038(11) 0.30484(10) 0.16473(7)
S2 S 0.71623(11) 0.63588(11) 0.26486(7)
S3 S 0.31309(10) 0.88008(8) 0.58521(7)
O1 O 0.0874(3) 0.3586(2) 0.34823(17)
O2 O -0.1328(3) 0.3824(2) 0.3651(2)
O3 O 0.8388(3) 0.6312(2) 0.43235(19)
O4 O 1.0584(3) 0.6037(2) 0.4471(2)
O5 O 0.3915(3) 0.6675(2) 0.53676(19)
O6 O 0.6070(3) 0.6343(2) 0.55914(19)
O7 O 0.3148(3) 0.5140(3) 0.34616(19)
H1 H 0.2473 0.4981 0.3032
H2 H 0.3510 0.5797 0.3609
O8 O 0.4002(3) 0.5329(3) 0.6460(2)
H3 H 0.3683 0.4959 0.6737
H4 H 0.4091 0.6015 0.6828
C1 C -0.0397(4) 0.3357(3) 0.3207(2)
C2 C -0.0871(4) 0.2439(3) 0.2258(3)
C3 C -0.2079(4) 0.1788(3) 0.2143(3)
H5 H -0.2569 0.1940 0.2641
C4 C -0.2575(5) 0.0918(4) 0.1306(3)
H6 H -0.3376 0.0473 0.1242
C5 C -0.1859(5) 0.0719(4) 0.0561(3)
H7 H -0.2191 0.0141 -0.0009
C6 C -0.0673(4) 0.1361(4) 0.0654(3)
H8 H -0.0213 0.1217 0.0144
C7 C -0.0142(4) 0.2227(3) 0.1500(3)
C8 C 0.1692(4) 0.2890(4) 0.0494(3)
H9 H 0.1838 0.2129 0.0111
H10 H 0.0921 0.3107 0.0191
C9 C 0.2979(4) 0.3671(4) 0.0682(3)
C10 C 0.2854(4) 0.4806(4) 0.0931(3)
C11 C 0.1461(5) 0.5233(5) 0.0951(4)
H11 H 0.1359 0.5618 0.0553
H12 H 0.1374 0.5735 0.1573
H13 H 0.0759 0.4619 0.0740
C12 C 0.4063(4) 0.5547(3) 0.1170(3)
C13 C 0.3974(5) 0.6787(4) 0.1467(4)
H14 H 0.3041 0.6949 0.1540
H15 H 0.4266 0.7003 0.1002
H16 H 0.4559 0.7192 0.2045
C14 C 0.5346(4) 0.5139(3) 0.1151(3)
C15 C 0.6621(5) 0.5937(4) 0.1412(3)
H17 H 0.6424 0.6580 0.1287
H18 H 0.7339 0.5579 0.1060
C16 C 0.5463(4) 0.4005(4) 0.0924(3)
C17 C 0.6883(5) 0.3598(5) 0.0961(4)
H19 H 0.7575 0.4217 0.1164
H20 H 0.7004 0.3067 0.0356
H21 H 0.6966 0.3251 0.1388
C18 C 0.4276(5) 0.3271(4) 0.0692(3)
C19 C 0.4380(6) 0.2048(4) 0.0469(5)
H22 H 0.5301 0.1947 0.0671
H23 H 0.4158 0.1621 -0.0187
H24 H 0.3748 0.1804 0.0783
C20 C 0.8869(4) 0.6980(3) 0.2819(3)
C21 C 0.9225(5) 0.7522(4) 0.2274(3)
H25 H 0.8566 0.7539 0.1816
C22 C 1.0529(5) 0.8032(4) 0.2399(4)
H26 H 1.0749 0.8389 0.2027
C23 C 1.1508(5) 0.8011(4) 0.3078(4)
H27 H 1.2390 0.8363 0.3174
C24 C 1.1171(4) 0.7464(4) 0.3614(3)
H28 H 1.1844 0.7441 0.4062
C25 C 0.9857(4) 0.6946(3) 0.3507(3)
C26 C 0.9588(4) 0.6391(3) 0.4139(3)
C27 C 0.5124(4) 0.6969(3) 0.5768(3)
C28 C 0.5458(4) 0.8125(3) 0.6523(2)
C29 C 0.6663(4) 0.8311(3) 0.7137(3)
H29 H 0.7220 0.7736 0.7052
C30 C 0.7048(4) 0.9336(4) 0.7873(3)
H30 H 0.7856 0.9447 0.8275
C31 C 0.6229(5) 1.0186(4) 0.8003(3)
H31 H 0.6477 1.0872 0.8501
C32 C 0.5041(4) 1.0028(3) 0.7399(3)
H32 H 0.4502 1.0615 0.7491
C33 C 0.4631(4) 0.9008(3) 0.6654(3)
C34 C 0.2392(4) 1.0132(3) 0.6305(3)
H33 H 0.2119 1.0279 0.6907
H34 H 0.3061 1.0733 0.6370
C35 C 0.1147(4) 1.0042(3) 0.5614(3)
C36 C 0.1285(4) 1.0472(3) 0.4955(3)
C37 C 0.2679(4) 1.0941(4) 0.4871(3)
H35 H 0.2746 1.0755 0.4231
H36 H 0.3393 1.0629 0.5123
H37 H 0.2779 1.1736 0.5208
C38 C -0.0116(4) 0.9557(3) 0.5658(3)
C39 C -0.0250(5) 0.9038(4) 0.6325(3)
H38 H -0.0871 0.8370 0.6033
H39 H -0.0602 0.9550 0.6859
H40 H 0.0636 0.8861 0.6513
La1A La -0.22666(2) 0.499488(17) 0.504490(14)
La1_2 La -0.77334(2) 0.500512(17) 0.495510(14)
La1_3 La -0.77334(2) 1.500512(17) 0.495510(14)
La1_4 La 1.22666(2) 0.500512(17) 0.495510(14)
La1A_2 La -1.22666(2) 0.499488(17) 0.504490(14)
La1A_3 La -0.22666(2) 1.499488(17) 0.504490(14)
La1A_4 La 0.77334(2) 0.499488(17) 0.504490(14)
S1A S -0.14038(11) 0.69516(10) 0.83527(7)
S2A S -0.71623(11) 0.36412(11) 0.73514(7)
S3A S -0.31309(10) 1.11992(8) 0.41479(7)
O1A O -0.0874(3) 0.6414(2) 0.65177(17)
O2A O 0.1328(3) 0.6176(2) 0.6349(2)
O3A O -0.8388(3) 0.3688(2) 0.56765(19)
O3_2 O -0.1612(3) 0.6312(2) 0.43235(19)
O3A_2 O 0.1612(3) 0.3688(2) 0.56765(19)
O4A O -1.0584(3) 0.3963(2) 0.5529(2)
O4_2 O 0.0584(3) 0.6037(2) 0.4471(2)
O4A_2 O -0.0584(3) 0.3963(2) 0.5529(2)
O5A O -0.3915(3) 1.3325(2) 0.46324(19)
O5A_2 O -0.3915(3) 0.3325(2) 0.46324(19)
O6A O -0.6070(3) 1.3657(2) 0.44086(19)
O6_2 O -0.3930(3) 0.6343(2) 0.55914(19)
O6A_2 O 0.3930(3) 0.3657(2) 0.44086(19)
O7A O -0.3148(3) 0.4860(3) 0.65384(19)
H1A H -0.2473 0.5019 0.6968
H2A H -0.3510 0.4203 0.6391
O8A O -0.4002(3) 0.4671(3) 0.3540(2)
H3A H -0.3683 0.5041 0.3263
H4A H -0.4091 0.3985 0.3172
C1A C 0.0397(4) 0.6643(3) 0.6793(2)
C2A C 0.0871(4) 0.7561(3) 0.7742(3)
C3A C 0.2079(4) 0.8212(3) 0.7857(3)
H5A H 0.2569 0.8060 0.7359
C4A C 0.2575(5) 0.9082(4) 0.8694(3)
H6A H 0.3376 0.9527 0.8758
C5A C 0.1859(5) 0.9281(4) 0.9439(3)
H7A H 0.2191 0.9859 1.0009
C6A C 0.0673(4) 0.8639(4) 0.9346(3)
H8A H 0.0213 0.8783 0.9856
C7A C 0.0142(4) 0.7773(3) 0.8500(3)
C8A C -0.1692(4) 0.7110(4) 0.9506(3)
H9A H -0.1838 0.7871 0.9889
H10A H -0.0921 0.6893 0.9809
C9A C -0.2979(4) 0.6329(4) 0.9318(3)
C10A C -0.2854(4) 0.5194(4) 0.9069(3)
C11A C -0.1461(5) 0.4767(5) 0.9049(4)
H11A H -0.1359 0.4382 0.9447
H12A H -0.1374 0.4265 0.8427
H13A H -0.0759 0.5381 0.9260
C12A C -0.4063(4) 0.4453(3) 0.8830(3)
C13A C -0.3974(5) 0.3213(4) 0.8533(4)
H14A H -0.3041 0.3051 0.8460
H15A H -0.4266 0.2997 0.8998
H16A H -0.4559 0.2808 0.7955
C14A C -0.5346(4) 0.4861(3) 0.8849(3)
C15A C -0.6621(5) 0.4063(4) 0.8588(3)
H17A H -0.6424 0.3420 0.8713
H18A H -0.7339 0.4421 0.8940
C16A C -0.5463(4) 0.5995(4) 0.9076(3)
C17A C -0.6883(5) 0.6402(5) 0.9039(4)
H19A H -0.7575 0.5783 0.8836
H20A H -0.7004 0.6933 0.9644
H21A H -0.6966 0.6749 0.8612
C18A C -0.4276(5) 0.6729(4) 0.9308(3)
C19A C -0.4380(6) 0.7952(4) 0.9531(5)
H22A H -0.5301 0.8053 0.9329
H23A H -0.4158 0.8379 1.0187
H24A H -0.3748 0.8196 0.9217
C20A C -0.8869(4) 0.3020(3) 0.7181(3)
C21A C -0.9225(5) 0.2478(4) 0.7726(3)
H25A H -0.8566 0.2461 0.8184
C22A C -1.0529(5) 0.1968(4) 0.7601(4)
H26A H -1.0749 0.1611 0.7973
C23A C -1.1508(5) 0.1989(4) 0.6922(4)
H27A H -1.2390 0.1637 0.6826
C24A C -1.1171(4) 0.2536(4) 0.6386(3)
H28A H -1.1844 0.2559 0.5938
C25A C -0.9857(4) 0.3054(3) 0.6493(3)
C26A C -0.9588(4) 0.3609(3) 0.5861(3)
C27A C -0.5124(4) 1.3031(3) 0.4232(3)
C28A C -0.5458(4) 1.1875(3) 0.3477(2)
C29A C -0.6663(4) 1.1689(3) 0.2863(3)
H29A H -0.7220 1.2264 0.2948
C30A C -0.7048(4) 1.0664(4) 0.2127(3)
H30A H -0.7856 1.0553 0.1725
C31A C -0.6229(5) 0.9814(4) 0.1997(3)
H31A H -0.6477 0.9128 0.1499
C32A C -0.5041(4) 0.9972(3) 0.2601(3)
H32A H -0.4502 0.9385 0.2509
C33A C -0.4631(4) 1.0992(3) 0.3346(3)
C34A C -0.2392(4) 0.9868(3) 0.3695(3)
H33A H -0.2119 0.9721 0.3093
H34A H -0.3061 0.9267 0.3630
C35A C -0.1147(4) 0.9958(3) 0.4386(3)
C36A C -0.1285(4) 0.9528(3) 0.5045(3)
C37A C -0.2679(4) 0.9059(4) 0.5129(3)
H35A H -0.2746 0.9245 0.5769
H36A H -0.3393 0.9371 0.4877
H37A H -0.2779 0.8264 0.4792
C38A C 0.0116(4) 1.0443(3) 0.4342(3)
C39A C 0.0250(5) 1.0962(4) 0.3675(3)
H38A H 0.0871 1.1630 0.3967
H39A H 0.0602 1.0450 0.3141
H40A H -0.0636 1.1139 0.3487
O9 O 0.4437(11) 0.7255(9) 0.3730(7)
loop_
_geom_bond_atom_site_label_1
_geom_bond_atom_site_label_2
_geom_bond_site_symmetry_1
_geom_bond_site_symmetry_2
La1 O1 1_555 1_555
S1 C7 1_555 1_555
S2 C15 1_555 1_555
S3 C33 1_555 1_555
O1 C1 1_555 1_555
O2 C1 1_555 1_555
O3 C26 1_555 1_555
O4 C26 1_555 1_555
O5 La1 1_555 1_555
O6 C27 1_555 1_555
O7 La1 1_555 1_555
H1 O7 1_555 1_555
H2 O7 1_555 1_555
O8 La1 1_555 1_555
H3 O8 1_555 1_555
H4 O8 1_555 1_555
C1 C2 1_555 1_555
C2 C3 1_555 1_555
C3 H5 1_555 1_555
C4 C3 1_555 1_555
H6 C4 1_555 1_555
C5 C4 1_555 1_555
H7 C5 1_555 1_555
C6 C5 1_555 1_555
H8 C6 1_555 1_555
C7 C2 1_555 1_555
C8 S1 1_555 1_555
H9 C8 1_555 1_555
H10 C8 1_555 1_555
C9 C8 1_555 1_555
C10 C9 1_555 1_555
C11 C10 1_555 1_555
H11 C11 1_555 1_555
H12 C11 1_555 1_555
H13 C11 1_555 1_555
C12 C10 1_555 1_555
C13 C12 1_555 1_555
H14 C13 1_555 1_555
H15 C13 1_555 1_555
H16 C13 1_555 1_555
C14 C12 1_555 1_555
C15 C14 1_555 1_555
H17 C15 1_555 1_555
H18 C15 1_555 1_555
C16 C14 1_555 1_555
C17 C16 1_555 1_555
H19 C17 1_555 1_555
H20 C17 1_555 1_555
H21 C17 1_555 1_555
C18 C9 1_555 1_555
C19 C18 1_555 1_555
H22 C19 1_555 1_555
H23 C19 1_555 1_555
H24 C19 1_555 1_555
C20 S2 1_555 1_555
C21 C20 1_555 1_555
H25 C21 1_555 1_555
C22 C21 1_555 1_555
H26 C22 1_555 1_555
C23 C22 1_555 1_555
H27 C23 1_555 1_555
C24 C23 1_555 1_555
H28 C24 1_555 1_555
C25 C20 1_555 1_555
C26 C25 1_555 1_555
C27 O5 1_555 1_555
C28 C27 1_555 1_555
C29 C28 1_555 1_555
H29 C29 1_555 1_555
C30 C29 1_555 1_555
H30 C30 1_555 1_555
C31 C30 1_555 1_555
H31 C31 1_555 1_555
C32 C31 1_555 1_555
H32 C32 1_555 1_555
C33 C28 1_555 1_555
C34 S3 1_555 1_555
H33 C34 1_555 1_555
H34 C34 1_555 1_555
C35 C34 1_555 1_555
C36 C35 1_555 1_555
C37 C36 1_555 1_555
H35 C37 1_555 1_555
H36 C37 1_555 1_555
H37 C37 1_555 1_555
C38 C35 1_555 1_555
C39 C38 1_555 1_555
H38 C39 1_555 1_555
H39 C39 1_555 1_555
H40 C39 1_555 1_555
La1A O2 1_555 1_555
La1_2 O3A 1_555 1_555
La1_3 O6A 1_555 1_555
La1_4 O4 1_555 1_555
La1A_2 O4A 1_555 1_555
La1A_3 O5A 1_555 1_555
La1A_4 O3 1_555 1_555
S1A C7A 1_555 1_555
S2A C15A 1_555 1_555
S3A C33A 1_555 1_555
O1A La1A 1_555 1_555
O2A La1 1_555 1_555
O3A C26A 1_555 1_555
O3_2 La1A 1_555 1_555
O3A_2 La1 1_555 1_555
O4A C26A 1_555 1_555
O4_2 La1 1_555 1_555
O4A_2 La1A 1_555 1_555
O5A C27A 1_555 1_555
O5A_2 La1A 1_555 1_555
O6A C27A 1_555 1_555
O6_2 La1A 1_555 1_555
O6A_2 La1 1_555 1_555
O7A La1A 1_555 1_555
H1A O7A 1_555 1_555
H2A O7A 1_555 1_555
O8A La1A 1_555 1_555
H3A O8A 1_555 1_555
H4A O8A 1_555 1_555
C1A O1A 1_555 1_555
C2A C1A 1_555 1_555
C3A C2A 1_555 1_555
H5A C3A 1_555 1_555
C4A C3A 1_555 1_555
H6A C4A 1_555 1_555
C5A C4A 1_555 1_555
H7A C5A 1_555 1_555
C6A C5A 1_555 1_555
H8A C6A 1_555 1_555
C7A C2A 1_555 1_555
C8A S1A 1_555 1_555
H9A C8A 1_555 1_555
H10A C8A 1_555 1_555
C9A C8A 1_555 1_555
C10A C9A 1_555 1_555
C11A C10A 1_555 1_555
H11A C11A 1_555 1_555
H12A C11A 1_555 1_555
H13A C11A 1_555 1_555
C12A C10A 1_555 1_555
C13A C12A 1_555 1_555
H14A C13A 1_555 1_555
H15A C13A 1_555 1_555
H16A C13A 1_555 1_555
C14A C12A 1_555 1_555
C15A C14A 1_555 1_555
H17A C15A 1_555 1_555
H18A C15A 1_555 1_555
C16A C14A 1_555 1_555
C17A C16A 1_555 1_555
H19A C17A 1_555 1_555
H20A C17A 1_555 1_555
H21A C17A 1_555 1_555
C18A C9A 1_555 1_555
C19A C18A 1_555 1_555
H22A C19A 1_555 1_555
H23A C19A 1_555 1_555
H24A C19A 1_555 1_555
C20A S2A 1_555 1_555
C21A C20A 1_555 1_555
H25A C21A 1_555 1_555
C22A C21A 1_555 1_555
H26A C22A 1_555 1_555
C23A C22A 1_555 1_555
H27A C23A 1_555 1_555
C24A C23A 1_555 1_555
H28A C24A 1_555 1_555
C25A C20A 1_555 1_555
C26A C25A 1_555 1_555
C27A C28A 1_555 1_555
C28A C29A 1_555 1_555
C29A H29A 1_555 1_555
C30A C29A 1_555 1_555
H30A C30A 1_555 1_555
C31A C30A 1_555 1_555
H31A C31A 1_555 1_555
C32A C31A 1_555 1_555
H32A C32A 1_555 1_555
C33A C28A 1_555 1_555
C34A S3A 1_555 1_555
H33A C34A 1_555 1_555
H34A C34A 1_555 1_555
C35A C34A 1_555 1_555
C36A C38 1_555 1_555
C37A C36A 1_555 1_555
H35A C37A 1_555 1_555
H36A C37A 1_555 1_555
H37A C37A 1_555 1_555
C38A C36 1_555 1_555
C39A C38A 1_555 1_555
H38A C39A 1_555 1_555
H39A C39A 1_555 1_555
H40A C39A 1_555 1_555
O6 La1A_4 1_555 1_555
C6 C7 1_555 1_555
C16 C18 1_555 1_555
C24 C25 1_555 1_555
C32 C33 1_555 1_555
O2A C1A 1_555 1_555
C6A C7A 1_555 1_555
C16A C18A 1_555 1_555
C24A C25A 1_555 1_555
C32A C33A 1_555 1_555
C35A C36A 1_555 1_555
C35A C38A 1_555 1_555

#END
