
#######################################################################
#
#                 Cambridge Crystallographic Data Centre
#                                CCDC 
#
#######################################################################
#
# If this CIF has been generated from an entry in the Cambridge 
# Structural Database, then it will include bibliographic, chemical, 
# crystal, experimental, refinement or atomic coordinate data resulting 
# from the CCDC's data processing and validation procedures.
#
#######################################################################

data_IBIYID
_symmetry_cell_setting           triclinic
_symmetry_space_group_name_H-M   'P -1'
_symmetry_Int_Tables_number      2
_space_group_name_Hall           '-P 1'
loop_
_symmetry_equiv_pos_site_id
_symmetry_equiv_pos_as_xyz
1 x,y,z
2 -x,-y,-z
_cell_length_a                   12.668(2)
_cell_length_b                   14.585(3)
_cell_length_c                   17.323(3)
_cell_angle_alpha                113.754(2)
_cell_angle_beta                 109.044(2)
_cell_angle_gamma                90.263(2)
_cell_volume                     2734.72
loop_
_atom_site_label
_atom_site_type_symbol
_atom_site_fract_x
_atom_site_fract_y
_atom_site_fract_z
La1 La 0.817283(15) 0.954903(13) 0.955284(12)
S1 S 0.88072(9) 1.31958(7) 1.18477(6)
S2 S 0.74813(8) 1.51803(7) 1.61738(6)
S3 S 0.71321(9) 0.75130(8) 1.11386(6)
C1 C 0.9278(3) 1.1695(2) 1.0215(2)
C3 C 0.9790(3) 1.2771(2) 1.0572(2)
C5 C 1.0402(3) 1.3022(3) 1.0143(2)
H5 H 1.0538 1.2509 0.9667
C7 C 1.0819(3) 1.4010(3) 1.0399(3)
H9 H 1.1201 1.4169 1.0081
C8 C 1.0668(3) 1.4767(3) 1.1133(3)
H10 H 1.0958 1.5439 1.1318
C9 C 1.0087(3) 1.4528(3) 1.1591(3)
H11 H 1.0013 1.5041 1.2098
C10 C 0.9612(3) 1.3541(2) 1.1313(2)
C11 C 0.9204(3) 1.4299(3) 1.2927(2)
H12 H 1.0017 1.4419 1.3237
H13 H 0.8987 1.4894 1.2833
C12 C 0.8610(3) 1.4111(3) 1.3494(2)
C13 C 0.9155(3) 1.3698(3) 1.4088(2)
C14 C 1.0293(3) 1.3348(3) 1.4106(3)
H14 H 1.0347 1.3149 1.3522
H15 H 1.0355 1.2782 1.4259
H16 H 1.0892 1.3894 1.4550
C15 C 0.8670(3) 1.3615(3) 1.4681(2)
C16 C 0.9293(4) 1.3250(3) 1.5372(3)
H17 H 1.0084 1.3322 1.5463
H18 H 0.9005 1.2550 1.5165
H19 H 0.9191 1.3646 1.5932
C17 C 0.7591(3) 1.3896(3) 1.4621(2)
C18 C 0.7101(3) 1.3880(3) 1.5299(2)
H20 H 0.7424 1.3412 1.5546
H21 H 0.6286 1.3683 1.5025
C19 C 0.7023(3) 1.4261(3) 1.3992(2)
C20 C 0.5839(4) 1.4526(4) 1.3922(3)
H22 H 0.5643 1.4917 1.3578
H23 H 0.5829 1.4914 1.4517
H24 H 0.5303 1.3913 1.3628
C21 C 0.7530(3) 1.4382(3) 1.3435(2)
C22 C 0.6957(4) 1.4852(5) 1.2782(3)
H25 H 0.6151 1.4698 1.2594
H26 H 0.7177 1.4576 1.2263
H27 H 0.7186 1.5574 1.3082
C23 C 0.6948(3) 1.5148(2) 1.6988(2)
C24 C 0.6483(3) 1.4238(3) 1.6919(3)
H28 H 0.6451 1.3633 1.6435
C25 C 0.6068(4) 1.4223(3) 1.7559(3)
H29 H 0.5752 1.3609 1.7498
C26 C 0.6118(3) 1.5103(3) 1.8284(3)
H30 H 0.5841 1.5091 1.8716
C27 C 0.6583(3) 1.6006(3) 1.8362(2)
H31 H 0.6619 1.6603 1.8855
C28 C 0.6998(3) 1.6054(2) 1.7730(2)
C29 C 0.7463(3) 1.7069(3) 1.7864(2)
C30 C 0.8468(3) 0.9420(3) 1.1264(2)
C31 C 0.8483(3) 0.9398(3) 1.2125(2)
C32 C 0.9073(4) 1.0224(3) 1.2921(3)
H32 H 0.9431 1.0770 1.2903
C33 C 0.9142(6) 1.0259(4) 1.3735(3)
H33 H 0.9563 1.0816 1.4266
C34 C 0.8595(5) 0.9475(4) 1.3774(3)
H34 H 0.8622 0.9512 1.4329
C35 C 0.8006(4) 0.8633(4) 1.2993(3)
H35 H 0.7658 0.8095 1.3027
C36 C 0.7924(3) 0.8575(3) 1.2147(2)
C37 C 0.6505(4) 0.6736(3) 1.1540(3)
H36 H 0.7094 0.6507 1.1910
H37 H 0.6081 0.7130 1.1900
C38 C 0.5735(3) 0.5843(3) 1.0722(3)
C39 C 0.4592(3) 0.5905(3) 1.0357(3)
C40 C 0.4124(5) 0.6885(4) 1.0729(4)
H38 H 0.3590 0.6980 1.0237
H39 H 0.4733 0.7447 1.1062
H40 H 0.3755 0.6845 1.1121
C41 C 0.6149(3) 0.4946(3) 1.0357(3)
C42 C 0.7395(3) 0.4893(4) 1.0694(4)
H41 H 0.7642 0.4599 1.0190
H42 H 0.7528 0.4483 1.1022
H43 H 0.7809 0.5565 1.1086
C43 C 0.5862(5) 0.9176(4) 0.7608(3)
H44 H 0.5970 0.8501 0.7402
C44 C 0.4720(7) 1.0399(6) 0.7367(6)
H45 H 0.5358 1.0860 0.7864
H46 H 0.4076 1.0435 0.7549
H47 H 0.4553 1.0581 0.6870
C45 C 0.4127(8) 0.8660(6) 0.6283(5)
H48 H 0.4219 0.7991 0.6240
H49 H 0.4206 0.8712 0.5768
H50 H 0.3389 0.8789 0.6297
C46 C 0.6001(4) 1.0797(4) 1.0151(4)
H51 H 0.5591 1.0850 0.9621
C47 C 0.6589(6) 1.1450(5) 1.1734(4)
H52 H 0.7374 1.1502 1.1806
H53 H 0.6351 1.0825 1.1735
H54 H 0.6483 1.2010 1.2224
C48 C 0.5173(5) 1.2206(4) 1.0908(5)
H55 H 0.4662 1.2031 1.0303
H56 H 0.5601 1.2867 1.1148
H57 H 0.4751 1.2209 1.1279
N1 N 0.4974(4) 0.9394(3) 0.7096(3)
N3 N 0.5933(3) 1.1471(3) 1.0897(3)
O1 O 0.98849(19) 1.09956(16) 1.00310(16)
O3 O 0.8260(2) 1.14805(18) 1.00679(19)
O5 O 0.7950(3) 1.7132(2) 1.73663(19)
O6 O 0.7325(2) 1.78393(18) 1.84900(16)
O7 O 0.8960(2) 1.01912(18) 1.13001(16)
O8 O 0.7960(2) 0.86744(17) 1.05316(16)
O9 O 0.6539(3) 0.9760(2) 0.8310(2)
O10 O 0.6559(3) 1.0095(2) 1.0080(3)
O11 O 0.8783(2) 0.91345(19) 0.81896(16)
H58 H 0.9497 0.9206 0.8333
H59 H 0.8602 0.8496 0.7884
La1A La 0.182717(15) 0.045097(13) 1.044716(12)
La1_2 La -0.182717(15) -0.045097(13) 0.955284(12)
La1_3 La 0.817283(15) 1.954903(13) 1.955284(12)
La1A_2 La 0.182717(15) -0.954903(13) 0.044716(12)
La1A_3 La 1.182717(15) 1.045097(13) 1.044716(12)
S1A S 0.11928(9) -0.31958(7) 0.81523(6)
S2A S 0.25187(8) -0.51803(7) 0.38262(6)
S3A S 0.28679(9) 0.24870(8) 0.88614(6)
C1A C 0.0722(3) -0.1695(2) 0.9785(2)
C3A C 0.0210(3) -0.2771(2) 0.9428(2)
C5A C -0.0402(3) -0.3022(3) 0.9857(2)
H5A H -0.0538 -0.2509 1.0333
C7A C -0.0819(3) -0.4010(3) 0.9601(3)
H9A H -0.1201 -0.4169 0.9919
C8A C -0.0668(3) -0.4767(3) 0.8867(3)
H10A H -0.0958 -0.5439 0.8682
C9A C -0.0087(3) -0.4528(3) 0.8409(3)
H11A H -0.0013 -0.5041 0.7902
C10A C 0.0388(3) -0.3541(2) 0.8687(2)
C11A C 0.0796(3) -0.4299(3) 0.7073(2)
H12A H -0.0017 -0.4419 0.6763
H13A H 0.1013 -0.4894 0.7167
C12A C 0.1390(3) -0.4111(3) 0.6506(2)
C13A C 0.0845(3) -0.3698(3) 0.5912(2)
C14A C -0.0293(3) -0.3348(3) 0.5894(3)
H14A H -0.0347 -0.3149 0.6478
H15A H -0.0355 -0.2782 0.5741
H16A H -0.0892 -0.3894 0.5450
C15A C 0.1330(3) -0.3615(3) 0.5319(2)
C16A C 0.0707(4) -0.3250(3) 0.4628(3)
H17A H -0.0084 -0.3322 0.4537
H18A H 0.0995 -0.2550 0.4835
H19A H 0.0809 -0.3646 0.4068
C17A C 0.2409(3) -0.3896(3) 0.5379(2)
C18A C 0.2899(3) -0.3880(3) 0.4701(2)
H20A H 0.2576 -0.3412 0.4454
H21A H 0.3714 -0.3683 0.4975
C19A C 0.2977(3) -0.4261(3) 0.6008(2)
C20A C 0.4161(4) -0.4526(4) 0.6078(3)
H22A H 0.4357 -0.4917 0.6422
H23A H 0.4171 -0.4914 0.5483
H24A H 0.4697 -0.3913 0.6372
C21A C 0.2470(3) -0.4382(3) 0.6565(2)
C22A C 0.3043(4) -0.4852(5) 0.7218(3)
H25A H 0.3849 -0.4698 0.7406
H26A H 0.2823 -0.4576 0.7737
H27A H 0.2814 -0.5574 0.6918
C23A C 0.3052(3) -0.5148(2) 0.3012(2)
C24A C 0.3517(3) -0.4238(3) 0.3081(3)
H28A H 0.3549 -0.3633 0.3565
C25A C 0.3932(4) -0.4223(3) 0.2441(3)
H29A H 0.4248 -0.3609 0.2502
C26A C 0.3882(3) -0.5103(3) 0.1716(3)
H30A H 0.4159 -0.5091 0.1284
C27A C 0.3417(3) -0.6006(3) 0.1638(2)
H31A H 0.3381 -0.6603 0.1145
C28A C 0.3002(3) -0.6054(2) 0.2270(2)
C29A C 0.2537(3) -0.7069(3) 0.2136(2)
C30A C 0.1532(3) 0.0580(3) 0.8736(2)
C31A C 0.1517(3) 0.0602(3) 0.7875(2)
C32A C 0.0927(4) -0.0224(3) 0.7079(3)
H32A H 0.0569 -0.0770 0.7097
C33A C 0.0858(6) -0.0259(4) 0.6265(3)
H33A H 0.0437 -0.0816 0.5734
C34A C 0.1405(5) 0.0525(4) 0.6226(3)
H34A H 0.1378 0.0488 0.5671
C35A C 0.1994(4) 0.1367(4) 0.7007(3)
H35A H 0.2342 0.1905 0.6973
C36A C 0.2076(3) 0.1425(3) 0.7853(2)
C37A C 0.3495(4) 0.3264(3) 0.8460(3)
H36A H 0.2906 0.3493 0.8090
H37A H 0.3919 0.2870 0.8100
C38A C 0.4265(3) 0.4157(3) 0.9278(3)
C39A C 0.5408(3) 0.4095(3) 0.9643(3)
C40A C 0.5876(5) 0.3115(4) 0.9271(4)
H38A H 0.6410 0.3020 0.9763
H39A H 0.5267 0.2553 0.8938
H40A H 0.6245 0.3155 0.8879
C41A C 0.3851(3) 0.5054(3) 0.9643(3)
C42A C 0.2605(3) 0.5107(4) 0.9306(4)
H41A H 0.2358 0.5401 0.9810
H42A H 0.2472 0.5517 0.8978
H43A H 0.2191 0.4435 0.8914
C43A C 0.4138(5) 0.0824(4) 1.2392(3)
H44A H 0.4030 0.1499 1.2598
C44A C 0.5280(7) -0.0399(6) 1.2633(6)
H45A H 0.4642 -0.0860 1.2136
H46A H 0.5924 -0.0435 1.2451
H47A H 0.5447 -0.0581 1.3130
C45A C 0.5873(8) 0.1340(6) 1.3717(5)
H48A H 0.5781 0.2009 1.3760
H49A H 0.5794 0.1288 1.4232
H50A H 0.6611 0.1211 1.3703
C46A C 0.3999(4) -0.0797(4) 0.9849(4)
H51A H 0.4409 -0.0850 1.0379
C47A C 0.3411(6) -0.1450(5) 0.8266(4)
H52A H 0.2626 -0.1502 0.8194
H53A H 0.3649 -0.0825 0.8265
H54A H 0.3517 -0.2010 0.7776
C48A C 0.4827(5) -0.2206(4) 0.9092(5)
H55A H 0.5338 -0.2031 0.9697
H56A H 0.4399 -0.2867 0.8852
H57A H 0.5249 -0.2209 0.8721
N1A N 0.5026(4) 0.0606(3) 1.2904(3)
N3A N 0.4067(3) -0.1471(3) 0.9103(3)
O1A O 0.01151(19) -0.09956(16) 0.99690(16)
O1_2 O -0.01151(19) 0.09956(16) 1.00310(16)
O1A_2 O 1.01151(19) 0.90044(16) 0.99690(16)
O3A O 0.1740(2) -0.14805(18) 0.99321(19)
O5A O 0.2050(3) -0.7132(2) 0.26337(19)
O6A O 0.2675(2) -0.78393(18) 0.15100(16)
O6_2 O 0.7325(2) 0.78393(18) 0.84900(16)
O6A_2 O 0.2675(2) 0.21607(18) 1.15100(16)
O7A O 0.1040(2) -0.01912(18) 0.86999(16)
O8A O 0.2040(2) 0.13256(17) 0.94684(16)
O9A O 0.3461(3) 0.0240(2) 1.1690(2)
O10A O 0.3441(3) -0.0095(2) 0.9920(3)
O11A O 0.1217(2) 0.08655(19) 1.18104(16)
H58A H 0.0503 0.0794 1.1667
H59A H 0.1398 0.1504 1.2116
C2 C 0.270(2) 0.8370(10) 0.3476(15)
H1 H 0.3387 0.8501 0.3426
C4 C 0.0860(15) 0.7836(12) 0.2779(11)
H2 H 0.0958 0.7223 0.2856
H3 H 0.0309 0.7682 0.2192
H4 H 0.0605 0.8298 0.3235
C6 C 0.1862(19) 0.8358(18) 0.2116(11)
H6 H 0.2596 0.8596 0.2160
H7 H 0.1355 0.8821 0.2017
H8 H 0.1580 0.7699 0.1619
N2 N 0.1934(7) 0.8302(7) 0.2860(6)
O2 O 0.2813(13) 0.8308(9) 0.4206(7)
O4 O 0.6742(7) 0.8085(10) 0.5091(7)
loop_
_geom_bond_atom_site_label_1
_geom_bond_atom_site_label_2
_geom_bond_site_symmetry_1
_geom_bond_site_symmetry_2
La1 O1 1_555 1_555
S1 C10 1_555 1_555
S2 C18 1_555 1_555
S3 C36 1_555 1_555
C1 C3 1_555 1_555
C2 H1 1_555 1_555
C3 C5 1_555 1_555
C4 H2 1_555 1_555
H3 C4 1_555 1_555
H4 C4 1_555 1_555
C5 H5 1_555 1_555
C6 H6 1_555 1_555
H7 C6 1_555 1_555
H8 C6 1_555 1_555
C7 C5 1_555 1_555
H9 C7 1_555 1_555
C8 C7 1_555 1_555
H10 C8 1_555 1_555
C9 C8 1_555 1_555
H11 C9 1_555 1_555
C10 C3 1_555 1_555
C11 S1 1_555 1_555
H12 C11 1_555 1_555
H13 C11 1_555 1_555
C12 C11 1_555 1_555
C13 C12 1_555 1_555
C14 C13 1_555 1_555
H14 C14 1_555 1_555
H15 C14 1_555 1_555
H16 C14 1_555 1_555
C15 C13 1_555 1_555
C16 C15 1_555 1_555
H17 C16 1_555 1_555
H18 C16 1_555 1_555
H19 C16 1_555 1_555
C17 C15 1_555 1_555
C18 C17 1_555 1_555
H20 C18 1_555 1_555
H21 C18 1_555 1_555
C19 C17 1_555 1_555
C20 C19 1_555 1_555
H22 C20 1_555 1_555
H23 C20 1_555 1_555
H24 C20 1_555 1_555
C21 C12 1_555 1_555
C22 C21 1_555 1_555
H25 C22 1_555 1_555
H26 C22 1_555 1_555
H27 C22 1_555 1_555
C23 S2 1_555 1_555
C24 C23 1_555 1_555
H28 C24 1_555 1_555
C25 C24 1_555 1_555
H29 C25 1_555 1_555
C26 C25 1_555 1_555
H30 C26 1_555 1_555
C27 C26 1_555 1_555
H31 C27 1_555 1_555
C28 C23 1_555 1_555
C29 C28 1_555 1_555
C30 C31 1_555 1_555
C31 C32 1_555 1_555
C32 H32 1_555 1_555
C33 C32 1_555 1_555
H33 C33 1_555 1_555
C34 C33 1_555 1_555
H34 C34 1_555 1_555
C35 C34 1_555 1_555
H35 C35 1_555 1_555
C36 C31 1_555 1_555
C37 S3 1_555 1_555
H36 C37 1_555 1_555
H37 C37 1_555 1_555
C38 C37 1_555 1_555
C39 C38 1_555 1_555
C40 C39 1_555 1_555
H38 C40 1_555 1_555
H39 C40 1_555 1_555
H40 C40 1_555 1_555
C41 C38 1_555 1_555
C42 C41 1_555 1_555
H41 C42 1_555 1_555
H42 C42 1_555 1_555
H43 C42 1_555 1_555
C43 H44 1_555 1_555
C44 H45 1_555 1_555
H46 C44 1_555 1_555
H47 C44 1_555 1_555
C45 H48 1_555 1_555
H49 C45 1_555 1_555
H50 C45 1_555 1_555
C46 H51 1_555 1_555
C47 H52 1_555 1_555
H53 C47 1_555 1_555
H54 C47 1_555 1_555
C48 H55 1_555 1_555
H56 C48 1_555 1_555
H57 C48 1_555 1_555
N1 C43 1_555 1_555
N2 C2 1_555 1_555
N3 C46 1_555 1_555
O1 C1 1_555 1_555
O2 C2 1_555 1_555
O3 La1 1_555 1_555
O5 C29 1_555 1_555
O6 C29 1_555 1_555
O7 La1 1_555 1_555
O8 La1 1_555 1_555
O9 La1 1_555 1_555
O10 La1 1_555 1_555
O11 La1 1_555 1_555
H58 O11 1_555 1_555
H59 O11 1_555 1_555
La1A O1A 1_555 1_555
La1_2 O1A 1_555 1_555
La1_3 O6 1_555 1_555
La1A_2 O6A 1_555 1_555
La1A_3 O1 1_555 1_555
S1A C10A 1_555 1_555
S2A C18A 1_555 1_555
S3A C36A 1_555 1_555
C1A C3A 1_555 1_555
C3A C5A 1_555 1_555
C5A H5A 1_555 1_555
C7A C5A 1_555 1_555
H9A C7A 1_555 1_555
C8A C7A 1_555 1_555
H10A C8A 1_555 1_555
C9A C8A 1_555 1_555
H11A C9A 1_555 1_555
C10A C3A 1_555 1_555
C11A S1A 1_555 1_555
H12A C11A 1_555 1_555
H13A C11A 1_555 1_555
C12A C11A 1_555 1_555
C13A C12A 1_555 1_555
C14A C13A 1_555 1_555
H14A C14A 1_555 1_555
H15A C14A 1_555 1_555
H16A C14A 1_555 1_555
C15A C13A 1_555 1_555
C16A C15A 1_555 1_555
H17A C16A 1_555 1_555
H18A C16A 1_555 1_555
H19A C16A 1_555 1_555
C17A C15A 1_555 1_555
C18A C17A 1_555 1_555
H20A C18A 1_555 1_555
H21A C18A 1_555 1_555
C19A C17A 1_555 1_555
C20A C19A 1_555 1_555
H22A C20A 1_555 1_555
H23A C20A 1_555 1_555
H24A C20A 1_555 1_555
C21A C12A 1_555 1_555
C22A C21A 1_555 1_555
H25A C22A 1_555 1_555
H26A C22A 1_555 1_555
H27A C22A 1_555 1_555
C23A S2A 1_555 1_555
C24A C23A 1_555 1_555
H28A C24A 1_555 1_555
C25A C24A 1_555 1_555
H29A C25A 1_555 1_555
C26A C25A 1_555 1_555
H30A C26A 1_555 1_555
C27A C26A 1_555 1_555
H31A C27A 1_555 1_555
C28A C23A 1_555 1_555
C29A C28A 1_555 1_555
C30A C31A 1_555 1_555
C31A C32A 1_555 1_555
C32A H32A 1_555 1_555
C33A C32A 1_555 1_555
H33A C33A 1_555 1_555
C34A C33A 1_555 1_555
H34A C34A 1_555 1_555
C35A C34A 1_555 1_555
H35A C35A 1_555 1_555
C36A C31A 1_555 1_555
C37A S3A 1_555 1_555
H36A C37A 1_555 1_555
H37A C37A 1_555 1_555
C38A C37A 1_555 1_555
C39A C41 1_555 1_555
C40A C39A 1_555 1_555
H38A C40A 1_555 1_555
H39A C40A 1_555 1_555
H40A C40A 1_555 1_555
C41A C39 1_555 1_555
C42A C41A 1_555 1_555
H41A C42A 1_555 1_555
H42A C42A 1_555 1_555
H43A C42A 1_555 1_555
C43A H44A 1_555 1_555
C44A H45A 1_555 1_555
H46A C44A 1_555 1_555
H47A C44A 1_555 1_555
C45A H48A 1_555 1_555
H49A C45A 1_555 1_555
H50A C45A 1_555 1_555
C46A H51A 1_555 1_555
C47A H52A 1_555 1_555
H53A C47A 1_555 1_555
H54A C47A 1_555 1_555
C48A H55A 1_555 1_555
H56A C48A 1_555 1_555
H57A C48A 1_555 1_555
N1A C43A 1_555 1_555
N3A C46A 1_555 1_555
O1A C1A 1_555 1_555
O1_2 La1A 1_555 1_555
O1A_2 La1 1_555 1_555
O3A La1A 1_555 1_555
O5A C29A 1_555 1_555
O6A C29A 1_555 1_555
O6_2 La1 1_555 1_555
O6A_2 La1A 1_555 1_555
O7A La1A 1_555 1_555
O8A La1A 1_555 1_555
O9A La1A 1_555 1_555
O10A La1A 1_555 1_555
O11A La1A 1_555 1_555
H58A O11A 1_555 1_555
H59A O11A 1_555 1_555
C1 O3 1_555 1_555
C4 N2 1_555 1_555
C6 N2 1_555 1_555
C9 C10 1_555 1_555
C19 C21 1_555 1_555
C27 C28 1_555 1_555
C30 O7 1_555 1_555
C30 O8 1_555 1_555
C35 C36 1_555 1_555
C43 O9 1_555 1_555
C44 N1 1_555 1_555
C45 N1 1_555 1_555
C46 O10 1_555 1_555
C47 N3 1_555 1_555
C48 N3 1_555 1_555
La1_2 O1_2 1_555 1_555
La1A_3 O1A_2 1_555 1_555
C1A O3A 1_555 1_555
C9A C10A 1_555 1_555
C19A C21A 1_555 1_555
C27A C28A 1_555 1_555
C30A O7A 1_555 1_555
C30A O8A 1_555 1_555
C35A C36A 1_555 1_555
C38A C39A 1_555 1_555
C38A C41A 1_555 1_555
C43A O9A 1_555 1_555
C44A N1A 1_555 1_555
C45A N1A 1_555 1_555
C46A O10A 1_555 1_555
C47A N3A 1_555 1_555
C48A N3A 1_555 1_555

#END
