
#######################################################################
#
#                 Cambridge Crystallographic Data Centre
#                                CCDC 
#
#######################################################################
#
# If this CIF has been generated from an entry in the Cambridge 
# Structural Database, then it will include bibliographic, chemical, 
# crystal, experimental, refinement or atomic coordinate data resulting 
# from the CCDC's data processing and validation procedures.
#
#######################################################################

data_IBIYAU
_symmetry_cell_setting           monoclinic
_symmetry_space_group_name_H-M   'P 21/c'
_symmetry_Int_Tables_number      14
_space_group_name_Hall           '-P 2ybc'
loop_
_symmetry_equiv_pos_site_id
_symmetry_equiv_pos_as_xyz
1 x,y,z
2 x,1/2-y,1/2+z
3 -x,-y,-z
4 -x,1/2+y,1/2-z
_cell_length_a                   9.922(2)
_cell_length_b                   20.738(3)
_cell_length_c                   18.849(3)
_cell_angle_alpha                90
_cell_angle_beta                 103.20(1)
_cell_angle_gamma                90
_cell_volume                     3775.94
loop_
_atom_site_label
_atom_site_type_symbol
_atom_site_fract_x
_atom_site_fract_y
_atom_site_fract_z
Tb1 Tb 0.23046(3) 0.235690(10) 0.48255(2)
O1 O 0.3352(5) 0.3467(2) 0.4768(3)
O2 O 0.2938(5) 0.2940(2) 0.3781(2)
O3 O 0.3638(7) 0.3925(3) 0.3786(3)
O4 O 0.0902(5) 0.1928(2) 0.3652(2)
O5 O 0.2989(6) 0.1573(2) 0.3985(3)
O6 O 0.1725(8) 0.1296(3) 0.2923(3)
O7 O 0.4815(4) 0.2113(2) 0.5193(3)
O8 O 0.3469(4) 0.1408(2) 0.5514(2)
O9 O 0.5671(4) 0.1205(3) 0.5681(3)
O10 O 0.0595(4) 0.1765(2) 0.5158(2)
O11 O -0.3011(4) 0.0734(2) 0.4406(3)
O12 O 0.2939(4) 0.2702(2) 0.6035(2)
O13 O 0.5586(4) 0.2564(2) 0.8095(2)
O14 O 0.0485(5) 0.1916(2) 0.9574(2)
O15 O -0.2468(6) 0.0475(2) 0.9301(3)
N1 N 0.3318(6) 0.3462(3) 0.4099(3)
N2 N 0.1868(8) 0.1590(3) 0.3497(3)
N3 N 0.4675(6) 0.1567(3) 0.5470(3)
N4 N -0.0378(5) 0.1755(2) 0.6920(3)
N5 N -0.1555(6) 0.1609(3) 0.5298(3)
N6 N 0.3317(5) 0.2236(3) 0.7139(3)
N7 N -0.1127(7) 0.1387(3) 0.8770(3)
C1 C -0.1644(6) 0.2061(3) 0.6512(3)
C2 C -0.1619(6) 0.2194(3) 0.5721(3)
C3 C -0.0492(6) 0.1435(3) 0.5033(3)
C4 C -0.0595(6) 0.0847(3) 0.4565(3)
C5 C 0.0637(6) 0.0609(3) 0.4427(4)
C6 C 0.0661(8) 0.0087(3) 0.3975(4)
C7 C -0.0545(8) -0.0219(3) 0.3654(4)
C8 C -0.1785(8) -0.0008(3) 0.3787(4)
C9 C -0.1822(7) 0.0514(3) 0.4247(4)
C10 C -0.4283(7) 0.0415(4) 0.4074(5)
C11 C 0.0820(6) 0.2186(3) 0.7060(3)
C12 C 0.2091(6) 0.1828(3) 0.6969(3)
C13 C 0.3674(5) 0.2642(3) 0.6674(3)
C14 C 0.4976(6) 0.3026(3) 0.6913(3)
C15 C 0.5307(7) 0.3447(3) 0.6407(4)
C16 C 0.6474(8) 0.3828(4) 0.6570(5)
C17 C 0.7345(8) 0.3788(4) 0.7246(5)
C18 C 0.7056(7) 0.3379(4) 0.7766(4)
C19 C 0.5877(6) 0.3000(3) 0.7603(3)
C20 C 0.6290(7) 0.2612(4) 0.8849(3)
C21 C -0.0544(7) 0.1399(3) 0.7568(3)
C22 C -0.1059(7) 0.1785(3) 0.8133(4)
C23 C -0.0374(7) 0.1470(3) 0.9435(4)
C24 C -0.0559(7) 0.1024(3) 1.0027(4)
C25 C 0.0342(8) 0.1096(4) 1.0695(4)
C26 C 0.0302(10) 0.0696(5) 1.1281(4)
C27 C -0.0683(12) 0.0221(4) 1.1181(6)
C28 C -0.1609(10) 0.0128(4) 1.0528(6)
C29 C -0.1563(8) 0.0536(3) 0.9951(4)
C30 C -0.3524(9) 0.0000(4) 0.9210(6)
H1 H -0.2403(6) 0.1784(3) 0.6521(3)
H2 H -0.1764(6) 0.2458(3) 0.6741(3)
H3 H -0.0830(6) 0.2451(3) 0.5712(3)
H4 H -0.2435(6) 0.2424(3) 0.5500(3)
H5 H -0.225(5) 0.142(3) 0.520(3)
H6 H 0.1485(6) 0.0813(3) 0.4651(4)
H7 H 0.1516(8) -0.0059(3) 0.3887(4)
H8 H -0.0530(8) -0.0575(3) 0.3339(4)
H9 H -0.2621(8) -0.0221(3) 0.3562(4)
H10 H -0.5006(7) 0.0574(4) 0.4280(5)
H11 H -0.4500(7) 0.0496(4) 0.3564(5)
H12 H -0.4183(7) -0.0036(4) 0.4158(5)
H13 H 0.0647(6) 0.2536(3) 0.6727(3)
H14 H 0.0970(6) 0.2347(3) 0.7544(3)
H15 H 0.1951(6) 0.1685(3) 0.6479(3)
H16 H 0.2232(6) 0.1466(3) 0.7286(3)
H17 H 0.379(5) 0.220(3) 0.753(3)
H18 H 0.4712(7) 0.3474(3) 0.5935(4)
H19 H 0.6673(8) 0.4116(4) 0.6215(5)
H20 H 0.8158(8) 0.4045(4) 0.7357(5)
H21 H 0.7662(7) 0.3357(4) 0.8235(4)
H22 H 0.5994(7) 0.2273(4) 0.9116(3)
H23 H 0.7260(7) 0.2580(4) 0.8892(3)
H24 H 0.6081(7) 0.3015(4) 0.9038(3)
H25 H -0.1183(7) 0.1059(3) 0.7409(3)
H26 H 0.0332(7) 0.1223(3) 0.7796(3)
H27 H -0.1958(7) 0.1945(3) 0.7922(4)
H28 H -0.0447(7) 0.2136(3) 0.8287(4)
H29 H -0.172(8) 0.106(4) 0.874(4)
H30 H 0.1013(8) 0.1430(4) 1.0758(4)
H31 H 0.0938(10) 0.0750(5) 1.1737(4)
H32 H -0.0726(12) -0.0053(4) 1.1579(6)
H33 H -0.2271(10) -0.0210(4) 1.0472(6)
H34 H -0.3125(9) -0.0416(4) 0.9307(6)
H35 H -0.4056(9) 0.0017(4) 0.8723(6)
H36 H -0.4104(9) 0.0085(4) 0.9536(6)
O14A O 0.0485(5) 0.3084(2) 0.4574(2)
Tb1A Tb 0.23046(3) 0.264310(10) 0.98255(2)
O17 O 0.576(2) 0.4078(11) 0.2618(11)
O16? O 0.649(5) 0.464(3) 0.254(3)
loop_
_geom_bond_atom_site_label_1
_geom_bond_atom_site_label_2
_geom_bond_site_symmetry_1
_geom_bond_site_symmetry_2
Tb1 O1 1_555 1_555
O1 N1 1_555 1_555
O2 Tb1 1_555 1_555
O3 N1 1_555 1_555
O4 Tb1 1_555 1_555
O5 Tb1 1_555 1_555
O6 N2 1_555 1_555
O7 Tb1 1_555 1_555
O8 Tb1 1_555 1_555
O9 N3 1_555 1_555
O10 Tb1 1_555 1_555
O11 C9 1_555 1_555
O12 Tb1 1_555 1_555
O13 C19 1_555 1_555
O14 C23 1_555 1_555
O15 C29 1_555 1_555
N1 O2 1_555 1_555
N2 O4 1_555 1_555
N3 O7 1_555 1_555
N4 C1 1_555 1_555
N5 C2 1_555 1_555
N6 C12 1_555 1_555
N7 C22 1_555 1_555
C1 C2 1_555 1_555
C2 H3 1_555 1_555
C3 O10 1_555 1_555
C4 C3 1_555 1_555
C5 C4 1_555 1_555
C6 C5 1_555 1_555
C7 C6 1_555 1_555
C8 C7 1_555 1_555
C9 C4 1_555 1_555
C10 O11 1_555 1_555
C11 N4 1_555 1_555
C12 C11 1_555 1_555
C13 O12 1_555 1_555
C14 C13 1_555 1_555
C15 C14 1_555 1_555
C16 C15 1_555 1_555
C17 C16 1_555 1_555
C18 C17 1_555 1_555
C19 C14 1_555 1_555
C20 O13 1_555 1_555
C21 N4 1_555 1_555
C22 C21 1_555 1_555
C23 N7 1_555 1_555
C24 C23 1_555 1_555
C25 C24 1_555 1_555
C26 C25 1_555 1_555
C27 C26 1_555 1_555
C28 C27 1_555 1_555
C29 C24 1_555 1_555
C30 O15 1_555 1_555
H1 C1 1_555 1_555
H2 C1 1_555 1_555
H4 C2 1_555 1_555
H5 N5 1_555 1_555
H6 C5 1_555 1_555
H7 C6 1_555 1_555
H8 C7 1_555 1_555
H9 C8 1_555 1_555
H10 C10 1_555 1_555
H11 C10 1_555 1_555
H12 C10 1_555 1_555
H13 C11 1_555 1_555
H14 C11 1_555 1_555
H15 C12 1_555 1_555
H16 C12 1_555 1_555
H17 N6 1_555 1_555
H18 C15 1_555 1_555
H19 C16 1_555 1_555
H20 C17 1_555 1_555
H21 C18 1_555 1_555
H22 C20 1_555 1_555
H23 C20 1_555 1_555
H24 C20 1_555 1_555
H25 C21 1_555 1_555
H26 C21 1_555 1_555
H27 C22 1_555 1_555
H28 C22 1_555 1_555
H29 N7 1_555 1_555
H30 C25 1_555 1_555
H31 C26 1_555 1_555
H32 C27 1_555 1_555
H33 C28 1_555 1_555
H34 C30 1_555 1_555
H35 C30 1_555 1_555
H36 C30 1_555 1_555
O14A Tb1 1_555 1_555
Tb1A O14 1_555 1_555
O5 N2 1_555 1_555
O8 N3 1_555 1_555
N5 C3 1_555 1_555
N6 C13 1_555 1_555
C8 C9 1_555 1_555
C18 C19 1_555 1_555
C28 C29 1_555 1_555

#END
