
#######################################################################
#
#                 Cambridge Crystallographic Data Centre
#                                CCDC 
#
#######################################################################
#
# If this CIF has been generated from an entry in the Cambridge 
# Structural Database, then it will include bibliographic, chemical, 
# crystal, experimental, refinement or atomic coordinate data resulting 
# from the CCDC's data processing and validation procedures.
#
#######################################################################

data_IBIYAV
_symmetry_cell_setting           monoclinic
_symmetry_space_group_name_H-M   'P 21/c'
_symmetry_Int_Tables_number      14
_space_group_name_Hall           '-P 2ybc'
loop_
_symmetry_equiv_pos_site_id
_symmetry_equiv_pos_as_xyz
1 x,y,z
2 -x,1/2+y,1/2-z
3 -x,-y,-z
4 x,1/2-y,1/2+z
_cell_length_a                   13.036(3)
_cell_length_b                   34.721(6)
_cell_length_c                   23.393(5)
_cell_angle_alpha                90
_cell_angle_beta                 92.699(4)
_cell_angle_gamma                90
_cell_volume                     10576.5
loop_
_atom_site_label
_atom_site_type_symbol
_atom_site_fract_x
_atom_site_fract_y
_atom_site_fract_z
O1 O 0.2007(4) 0.20791(13) 0.2073(2)
O2 O 0.3422(5) 0.23920(15) 0.2298(3)
O3 O 0.9144(6) 0.25053(15) 0.3314(3)
O4 O 1.0603(5) 0.22624(15) 0.3057(3)
O5 O 0.2318(4) 0.12460(14) 0.2223(2)
O6 O 0.3853(4) 0.09897(14) 0.2187(3)
O7 O 1.0060(6) 0.09124(19) 0.2736(4)
O8 O 1.1106(5) 0.11322(16) 0.3353(3)
O9 O 0.2507(4) 0.17807(13) 0.3203(2)
O10 O 0.3706(4) 0.13564(14) 0.3449(2)
O11 O -0.0491(5) 0.19627(18) 0.1848(3)
O12 O 0.0254(5) 0.14423(15) 0.1581(2)
O13 O 0.5518(7) 0.2094(3) 0.2024(4)
O14 O 0.4829(6) 0.2087(2) 0.3287(3)
O15 O 0.5642(6) 0.1368(2) 0.2688(4)
O16 O -0.0876(7) 0.1677(3) 0.3124(5)
O17 O 0.3733(6) 0.1701(2) 0.1403(3)
La1 La 0.39594(4) 0.170029(12) 0.24692(2)
La2 La 0.08232(4) 0.164557(12) 0.26036(2)
S1 S 0.38170(18) 0.31407(6) 0.23152(10)
S2 S 0.87353(17) 0.32699(5) 0.31422(11)
S3 S 0.43198(16) 0.02350(5) 0.21412(9)
S4 S 0.9371(2) 0.01180(6) 0.28312(14)
S5 S 0.4004(2) 0.10116(6) 0.44856(9)
S6 S -0.0238(2) 0.10625(6) 0.05730(10)
C1 C 0.2507(7) 0.2393(2) 0.2134(3)
C2 C 0.5524(17) 0.2394(5) 0.3626(13)
C3 C 0.2006(7) 0.2775(2) 0.1991(3)
C4 C 0.6254(19) 0.2696(8) 0.3801(11)
C5 C 0.0980(7) 0.2768(2) 0.1791(3)
H1 H 0.0652 0.2532 0.1744
C6 C 0.5867(14) 0.1098(6) 0.3105(9)
C7 C 0.0439(7) 0.3099(2) 0.1662(4)
H2 H -0.0239 0.3088 0.1519
C8 C 0.715(2) 0.0754(13) 0.264(2)
C9 C 0.0927(7) 0.3445(2) 0.1748(4)
H3 H 0.0575 0.3673 0.1666
C10 C 0.668(3) 0.0586(6) 0.3599(8)
C11 C 0.1952(7) 0.3459(2) 0.1957(4)
H4 H 0.2263 0.3697 0.2023
C12 C 0.2974(13) 0.1686(4) 0.1070(6)
C13 C 0.2515(6) 0.3122(2) 0.2069(3)
C14 C 0.1953(15) 0.1843(7) 0.0197(8)
C15 C 0.4112(7) 0.3657(2) 0.2295(4)
H5 H 0.3994 0.3757 0.1911
H6 H 0.3683 0.3797 0.2550
C16 C 0.351(2) 0.2173(8) 0.0448(13)
C17 C 0.5242(7) 0.3697(2) 0.2487(4)
C18 C 0.5527(7) 0.3759(2) 0.3048(4)
C19 C 0.4729(7) 0.3769(2) 0.3492(4)
H7 H 0.4936 0.3949 0.3787
H8 H 0.4661 0.3517 0.3655
H9 H 0.4083 0.3848 0.3316
C20 C 0.6562(7) 0.3793(2) 0.3214(4)
C21 C 0.6880(7) 0.3856(3) 0.3839(4)
H10 H 0.7612 0.3885 0.3878
H11 H 0.6675 0.3638 0.4059
H12 H 0.6555 0.4084 0.3975
C22 C 0.7309(7) 0.3767(2) 0.2802(5)
C23 C 0.8446(6) 0.3773(2) 0.2990(4)
H13 H 0.8566 0.3931 0.3329
H14 H 0.8859 0.3870 0.2687
C24 C 0.7033(7) 0.3696(2) 0.2235(4)
C25 C 0.7858(8) 0.3651(3) 0.1772(5)
H15 H 0.7756 0.3411 0.1575
H16 H 0.8533 0.3656 0.1955
H17 H 0.7790 0.3860 0.1503
C26 C 0.5981(8) 0.3660(2) 0.2068(4)
C27 C 0.5660(8) 0.3570(3) 0.1441(4)
H18 H 0.4942 0.3624 0.1375
H19 H 0.5786 0.3303 0.1365
H20 H 0.6052 0.3726 0.1192
C28 C 1.0066(6) 0.3260(2) 0.3319(3)
C29 C 1.0627(7) 0.3595(2) 0.3433(4)
H21 H 1.0289 0.3831 0.3417
C30 C 1.1672(7) 0.3588(3) 0.3568(4)
H22 H 1.2031 0.3816 0.3636
C31 C 1.2177(8) 0.3237(3) 0.3603(4)
H23 H 1.2871 0.3224 0.3714
C32 C 1.1624(7) 0.2905(3) 0.3467(4)
H24 H 1.1968 0.2670 0.3461
C33 C 1.0584(6) 0.2911(2) 0.3341(3)
C34 C 1.0062(9) 0.2531(2) 0.3234(4)
C35 C 0.2908(7) 0.0960(2) 0.2113(3)
C36 C 0.2440(6) 0.05918(19) 0.1907(3)
C37 C 0.1426(6) 0.0589(2) 0.1691(3)
H25 H 0.1061 0.0819 0.1678
C38 C 0.0952(6) 0.0264(2) 0.1499(3)
H26 H 0.0277 0.0274 0.1352
C39 C 0.1465(6) -0.0077(2) 0.1522(3)
H27 H 0.1134 -0.0302 0.1401
C40 C 0.2485(7) -0.0090(2) 0.1727(3)
H28 H 0.2829 -0.0325 0.1745
C41 C 0.2995(6) 0.02461(19) 0.1908(3)
C42 C 0.4643(6) -0.02755(18) 0.2102(3)
H29 H 0.4258 -0.0422 0.2373
H30 H 0.4484 -0.0374 0.1721
C43 C 0.5781(6) -0.03061(19) 0.2248(4)
C44 C 0.6099(6) -0.03706(19) 0.2819(4)
C45 C 0.5336(7) -0.0394(2) 0.3291(4)
H31 H 0.4840 -0.0592 0.3200
H32 H 0.4990 -0.0151 0.3322
H33 H 0.5695 -0.0453 0.3648
C46 C 0.7150(7) -0.0411(2) 0.2970(4)
C47 C 0.7530(7) -0.0466(3) 0.3602(3)
H34 H 0.8244 -0.0399 0.3644
H35 H 0.7441 -0.0730 0.3711
H36 H 0.7141 -0.0303 0.3843
C48 C 0.7870(6) -0.0375(2) 0.2542(4)
C49 C 0.9019(6) -0.0384(2) 0.2712(4)
H37 H 0.9407 -0.0494 0.2408
H38 H 0.9148 -0.0534 0.3057
C50 C 0.7560(7) -0.0304(2) 0.1978(4)
C51 C 0.8345(7) -0.0246(2) 0.1510(4)
H39 H 0.8053 -0.0081 0.1215
H40 H 0.8513 -0.0491 0.1348
H41 H 0.8957 -0.0129 0.1676
C52 C 0.6506(7) -0.0263(2) 0.1836(3)
C53 C 0.6155(7) -0.0180(2) 0.1222(3)
H42 H 0.5433 -0.0125 0.1203
H43 H 0.6286 -0.0401 0.0989
H44 H 0.6524 0.0037 0.1085
C54 C 1.0674(6) 0.0107(2) 0.3071(4)
C55 C 1.1253(7) -0.0233(2) 0.3112(4)
H45 H 1.0940 -0.0466 0.3017
C56 C 1.2268(7) -0.0230(2) 0.3291(3)
H46 H 1.2635 -0.0459 0.3310
C57 C 1.2749(7) 0.0110(3) 0.3443(3)
H47 H 1.3437 0.0112 0.3567
C58 C 1.2201(7) 0.0448(2) 0.3408(3)
H48 H 1.2523 0.0677 0.3520
C59 C 1.1186(7) 0.0458(2) 0.3211(3)
C60 C 1.0716(8) 0.0847(3) 0.3152(4)
C61 C 0.2973(7) 0.1572(2) 0.3586(3)
C62 C 0.2703(7) 0.1620(2) 0.4192(3)
C63 C 0.1983(8) 0.1895(2) 0.4315(4)
H49 H 0.1671 0.2034 0.4014
C64 C 0.1705(10) 0.1974(3) 0.4870(5)
H50 H 0.1216 0.2160 0.4944
C65 C 0.2183(11) 0.1764(3) 0.5308(5)
H51 H 0.2017 0.1812 0.5683
C66 C 0.2918(9) 0.1479(3) 0.5197(4)
H52 H 0.3244 0.1346 0.5499
C67 C 0.3157(7) 0.1395(2) 0.4638(3)
C68 C 0.4096(9) 0.0756(2) 0.5169(4)
H53 H 0.4521 0.0900 0.5445
H54 H 0.3419 0.0726 0.5319
C69 C 0.4561(11) 0.0369(3) 0.5068(4)
C70 C 0.3932(11) 0.0050(4) 0.4968(4)
C71 C 0.2783(10) 0.0103(3) 0.4911(4)
H55 H 0.2509 -0.0049 0.4597
H56 H 0.2627 0.0369 0.4842
H57 H 0.2483 0.0022 0.5258
C72 C 0.5633(12) 0.0319(3) 0.5105(4)
C73 C 0.6353(9) 0.0663(3) 0.5205(4)
H58 H 0.6940 0.0635 0.4976
H59 H 0.6575 0.0675 0.5602
H60 H 0.5996 0.0897 0.5100
C74 C -0.0247(7) 0.1736(2) 0.1464(4)
C75 C -0.0551(7) 0.1821(2) 0.0853(4)
C76 C -0.0827(8) 0.2202(3) 0.0714(5)
H61 H -0.0889 0.2381 0.1006
C77 C -0.1010(10) 0.2317(3) 0.0144(5)
H62 H -0.1175 0.2572 0.0059
C78 C -0.0945(9) 0.2055(3) -0.0285(5)
H63 H -0.1042 0.2130 -0.0665
C79 C -0.0737(8) 0.1678(2) -0.0151(4)
H64 H -0.0722 0.1499 -0.0446
C80 C -0.0543(7) 0.1552(2) 0.0419(4)
C81 C -0.0329(9) 0.0824(2) -0.0131(4)
H65 H -0.1005 0.0865 -0.0311
H66 H 0.0178 0.0931 -0.0377
C82 C -0.0137(10) 0.0397(2) -0.0042(3)
C83 C -0.1001(9) 0.0152(3) -0.0031(3)
C84 C -0.0852(10) -0.0251(3) -0.0003(3)
C85 C -0.1773(8) -0.0523(3) -0.0052(4)
H67 H -0.2370 -0.0395 0.0080
H68 H -0.1633 -0.0748 0.0177
H69 H -0.1895 -0.0598 -0.0445
C86 C -0.2097(9) 0.0315(3) -0.0052(4)
H70 H -0.2509 0.0169 0.0201
H71 H -0.2388 0.0298 -0.0435
H72 H -0.2079 0.0580 0.0067
N1 N 0.6582(11) 0.0876(4) 0.3169(10)
N2 N 0.2844(10) 0.1856(5) 0.0594(6)
O1B O -0.2007(4) -0.20791(13) -0.2073(2)
O2B O -0.3422(5) -0.23920(15) -0.2298(3)
O3B O -0.9144(6) -0.25053(15) -0.3314(3)
O4B O -1.0603(5) -0.22624(15) -0.3057(3)
O4_2 O 0.0603(5) 0.22624(15) 0.3057(3)
O4B_2 O -0.0603(5) -0.22624(15) -0.3057(3)
O5B O -0.2318(4) -0.12460(14) -0.2223(2)
O6B O -0.3853(4) -0.09897(14) -0.2187(3)
O7B O -1.0060(6) -0.09124(19) -0.2736(4)
O7_2 O 0.0060(6) 0.09124(19) 0.2736(4)
O7B_2 O -0.0060(6) -0.09124(19) -0.2736(4)
O8B O -1.1106(5) -0.11322(16) -0.3353(3)
O8_2 O 0.1106(5) 0.11322(16) 0.3353(3)
O8B_2 O -0.1106(5) -0.11322(16) -0.3353(3)
O9B O 0.7493(4) -0.17807(13) 0.6797(2)
O9B_2 O -0.2507(4) -0.17807(13) -0.3203(2)
O10B O 0.6294(4) -0.13564(14) 0.6551(2)
O10B_2 O -0.3706(4) -0.13564(14) -0.3449(2)
O11B O 0.0491(5) -0.19627(18) -0.1848(3)
O12B O -0.0254(5) -0.14423(15) -0.1581(2)
O13B O -0.5518(7) -0.2094(3) -0.2024(4)
O14B O -0.4829(6) -0.2087(2) -0.3287(3)
O15B O -0.5642(6) -0.1368(2) -0.2688(4)
O16B O 0.0876(7) -0.1677(3) -0.3124(5)
O17B O -0.3733(6) -0.1701(2) -0.1403(3)
La1B La -0.39594(4) -0.170029(12) -0.24692(2)
La1B_2 La 0.60406(4) -0.170029(12) 0.75308(2)
La2B La -0.08232(4) -0.164557(12) -0.26036(2)
La2_2 La 1.08232(4) 0.164557(12) 0.26036(2)
La2B_2 La -1.08232(4) -0.164557(12) -0.26036(2)
La2B_3 La 0.91768(4) -0.164557(12) 0.73964(2)
S1B S -0.38170(18) -0.31407(6) -0.23152(10)
S2B S -0.87353(17) -0.32699(5) -0.31422(11)
S3B S -0.43198(16) -0.02350(5) -0.21412(9)
S4B S -0.9371(2) -0.01180(6) -0.28312(14)
S5B S 0.5996(2) -0.10116(6) 0.55144(9)
S6B S 0.0238(2) -0.10625(6) -0.05730(10)
C1B C -0.2507(7) -0.2393(2) -0.2134(3)
C2B C -0.5524(17) -0.2394(5) -0.3626(13)
C3B C -0.2006(7) -0.2775(2) -0.1991(3)
C4B C -0.6254(19) -0.2696(8) -0.3801(11)
C5B C -0.0980(7) -0.2768(2) -0.1791(3)
H1B H -0.0652 -0.2532 -0.1744
C6B C -0.5867(14) -0.1098(6) -0.3105(9)
C7B C -0.0439(7) -0.3099(2) -0.1662(4)
H2B H 0.0239 -0.3088 -0.1519
C8B C -0.715(2) -0.0754(13) -0.264(2)
C9B C -0.0927(7) -0.3445(2) -0.1748(4)
H3B H -0.0575 -0.3673 -0.1666
C10B C -0.668(3) -0.0586(6) -0.3599(8)
C11B C -0.1952(7) -0.3459(2) -0.1957(4)
H4B H -0.2263 -0.3697 -0.2023
C12B C -0.2974(13) -0.1686(4) -0.1070(6)
C13B C -0.2515(6) -0.3122(2) -0.2069(3)
C14B C -0.1953(15) -0.1843(7) -0.0197(8)
C15B C -0.4112(7) -0.3657(2) -0.2295(4)
H5B H -0.3994 -0.3757 -0.1911
H6B H -0.3683 -0.3797 -0.2550
C16B C -0.351(2) -0.2173(8) -0.0448(13)
C17B C -0.5242(7) -0.3697(2) -0.2487(4)
C18B C -0.5527(7) -0.3759(2) -0.3048(4)
C19B C -0.4729(7) -0.3769(2) -0.3492(4)
H7B H -0.4936 -0.3949 -0.3787
H8B H -0.4661 -0.3517 -0.3655
H9B H -0.4083 -0.3848 -0.3316
C20B C -0.6562(7) -0.3793(2) -0.3214(4)
C21B C -0.6880(7) -0.3856(3) -0.3839(4)
H10B H -0.7612 -0.3885 -0.3878
H11B H -0.6675 -0.3638 -0.4059
H12B H -0.6555 -0.4084 -0.3975
C22B C -0.7309(7) -0.3767(2) -0.2802(5)
C23B C -0.8446(6) -0.3773(2) -0.2990(4)
H13B H -0.8566 -0.3931 -0.3329
H14B H -0.8859 -0.3870 -0.2687
C24B C -0.7033(7) -0.3696(2) -0.2235(4)
C25B C -0.7858(8) -0.3651(3) -0.1772(5)
H15B H -0.7756 -0.3411 -0.1575
H16B H -0.8533 -0.3656 -0.1955
H17B H -0.7790 -0.3860 -0.1503
C26B C -0.5981(8) -0.3660(2) -0.2068(4)
C27B C -0.5660(8) -0.3570(3) -0.1441(4)
H18B H -0.4942 -0.3624 -0.1375
H19B H -0.5786 -0.3303 -0.1365
H20B H -0.6052 -0.3726 -0.1192
C28B C -1.0066(6) -0.3260(2) -0.3319(3)
C29B C -1.0627(7) -0.3595(2) -0.3433(4)
H21B H -1.0289 -0.3831 -0.3417
C30B C -1.1672(7) -0.3588(3) -0.3568(4)
H22B H -1.2031 -0.3816 -0.3636
C31B C -1.2177(8) -0.3237(3) -0.3603(4)
H23B H -1.2871 -0.3224 -0.3714
C32B C -1.1624(7) -0.2905(3) -0.3467(4)
H24B H -1.1968 -0.2670 -0.3461
C33B C -1.0584(6) -0.2911(2) -0.3341(3)
C34B C -1.0062(9) -0.2531(2) -0.3234(4)
C35B C -0.2908(7) -0.0960(2) -0.2113(3)
C36B C -0.2440(6) -0.05918(19) -0.1907(3)
C37B C -0.1426(6) -0.0589(2) -0.1691(3)
H25B H -0.1061 -0.0819 -0.1678
C38B C -0.0952(6) -0.0264(2) -0.1499(3)
H26B H -0.0277 -0.0274 -0.1352
C39B C -0.1465(6) 0.0077(2) -0.1522(3)
H27B H -0.1134 0.0302 -0.1401
C40B C -0.2485(7) 0.0090(2) -0.1727(3)
H28B H -0.2829 0.0325 -0.1745
C41B C -0.2995(6) -0.02461(19) -0.1908(3)
C42B C -0.4643(6) 0.02755(18) -0.2102(3)
H29B H -0.4258 0.0422 -0.2373
H30B H -0.4484 0.0374 -0.1721
C43B C -0.5781(6) 0.03061(19) -0.2248(4)
C44B C -0.6099(6) 0.03706(19) -0.2819(4)
C45B C -0.5336(7) 0.0394(2) -0.3291(4)
H31B H -0.4840 0.0592 -0.3200
H32B H -0.4990 0.0151 -0.3322
H33B H -0.5695 0.0453 -0.3648
C46B C -0.7150(7) 0.0411(2) -0.2970(4)
C47B C -0.7530(7) 0.0466(3) -0.3602(3)
H34B H -0.8244 0.0399 -0.3644
H35B H -0.7441 0.0730 -0.3711
H36B H -0.7141 0.0303 -0.3843
C48B C -0.7870(6) 0.0375(2) -0.2542(4)
C49B C -0.9019(6) 0.0384(2) -0.2712(4)
H37B H -0.9407 0.0494 -0.2408
H38B H -0.9148 0.0534 -0.3057
C50B C -0.7560(7) 0.0304(2) -0.1978(4)
C51B C -0.8345(7) 0.0246(2) -0.1510(4)
H39B H -0.8053 0.0081 -0.1215
H40B H -0.8513 0.0491 -0.1348
H41B H -0.8957 0.0129 -0.1676
C52B C -0.6506(7) 0.0263(2) -0.1836(3)
C53B C -0.6155(7) 0.0180(2) -0.1222(3)
H42B H -0.5433 0.0125 -0.1203
H43B H -0.6286 0.0401 -0.0989
H44B H -0.6524 -0.0037 -0.1085
C54B C -1.0674(6) -0.0107(2) -0.3071(4)
C55B C -1.1253(7) 0.0233(2) -0.3112(4)
H45B H -1.0940 0.0466 -0.3017
C56B C -1.2268(7) 0.0230(2) -0.3291(3)
H46B H -1.2635 0.0459 -0.3310
C57B C -1.2749(7) -0.0110(3) -0.3443(3)
H47B H -1.3437 -0.0112 -0.3567
C58B C -1.2201(7) -0.0448(2) -0.3408(3)
H48B H -1.2523 -0.0677 -0.3520
C59B C -1.1186(7) -0.0458(2) -0.3211(3)
C60B C -1.0716(8) -0.0847(3) -0.3152(4)
C61B C 0.7027(7) -0.1572(2) 0.6414(3)
C61B_2 C -0.2973(7) -0.1572(2) -0.3586(3)
C62B C 0.7297(7) -0.1620(2) 0.5808(3)
C63B C 0.8017(8) -0.1895(2) 0.5685(4)
H49B H 0.8329 -0.2034 0.5986
C64B C 0.8295(10) -0.1974(3) 0.5130(5)
H50B H 0.8784 -0.2160 0.5056
C65B C 0.7817(11) -0.1764(3) 0.4692(5)
H51B H 0.7983 -0.1812 0.4317
C66B C 0.7082(9) -0.1479(3) 0.4803(4)
H52B H 0.6756 -0.1346 0.4501
C67B C 0.6843(7) -0.1395(2) 0.5362(3)
C68B C 0.5904(9) -0.0756(2) 0.4831(4)
H53B H 0.5479 -0.0900 0.4555
H54B H 0.6581 -0.0726 0.4681
C69B C 0.5439(11) -0.0369(3) 0.4932(4)
C70B C 0.6068(11) -0.0050(4) 0.5032(4)
C71B C 0.7217(10) -0.0103(3) 0.5089(4)
H55B H 0.7491 0.0049 0.5403
H56B H 0.7373 -0.0369 0.5158
H57B H 0.7517 -0.0022 0.4742
C72B C 0.4367(12) -0.0319(3) 0.4895(4)
C73B C 0.3647(9) -0.0663(3) 0.4795(4)
H58B H 0.3060 -0.0635 0.5024
H59B H 0.3425 -0.0675 0.4398
H60B H 0.4004 -0.0897 0.4900
C74B C 0.0247(7) -0.1736(2) -0.1464(4)
C75B C 0.0551(7) -0.1821(2) -0.0853(4)
C76B C 0.0827(8) -0.2202(3) -0.0714(5)
H61B H 0.0889 -0.2381 -0.1006
C77B C 0.1010(10) -0.2317(3) -0.0144(5)
H62B H 0.1175 -0.2572 -0.0059
C78B C 0.0945(9) -0.2055(3) 0.0285(5)
H63B H 0.1042 -0.2130 0.0665
C79B C 0.0737(8) -0.1678(2) 0.0151(4)
H64B H 0.0722 -0.1499 0.0446
C80B C 0.0543(7) -0.1552(2) -0.0419(4)
C81B C 0.0329(9) -0.0824(2) 0.0131(4)
H65B H 0.1005 -0.0865 0.0311
H66B H -0.0178 -0.0931 0.0377
C82B C 0.0137(10) -0.0397(2) 0.0042(3)
C83B C 0.1001(9) -0.0152(3) 0.0031(3)
C84B C 0.0852(10) 0.0251(3) 0.0003(3)
C85B C 0.1773(8) 0.0523(3) 0.0052(4)
H67B H 0.2370 0.0395 -0.0080
H68B H 0.1633 0.0748 -0.0177
H69B H 0.1895 0.0598 0.0445
C86B C 0.2097(9) -0.0315(3) 0.0052(4)
H70B H 0.2509 -0.0169 -0.0201
H71B H 0.2388 -0.0298 0.0435
H72B H 0.2079 -0.0580 -0.0067
N1B N -0.6582(11) -0.0876(4) -0.3169(10)
N2B N -0.2844(10) -0.1856(5) -0.0594(6)
loop_
_geom_bond_atom_site_label_1
_geom_bond_atom_site_label_2
_geom_bond_site_symmetry_1
_geom_bond_site_symmetry_2
O1 La1 1_555 1_555
O2 La1 1_555 1_555
O3 C34 1_555 1_555
O4 C34 1_555 1_555
O5 La1 1_555 1_555
O6 La1 1_555 1_555
O7 C60 1_555 1_555
O8 C60 1_555 1_555
O9 La1 1_555 1_555
O10 La1 1_555 1_555
O11 La2 1_555 1_555
O12 La2 1_555 1_555
O13 La1 1_555 1_555
O14 La1 1_555 1_555
O15 La1 1_555 1_555
O16 La2 1_555 1_555
O17 La1 1_555 1_555
La2 O1 1_555 1_555
S1 C13 1_555 1_555
S2 C23 1_555 1_555
S3 C41 1_555 1_555
S4 C49 1_555 1_555
S5 C67 1_555 1_555
S6 C80 1_555 1_555
C1 O1 1_555 1_555
C2 O14 1_555 1_555
C3 C1 1_555 1_555
C4 C2 1_555 1_555
C5 C3 1_555 1_555
H1 C5 1_555 1_555
C6 O15 1_555 1_555
C7 C5 1_555 1_555
H2 C7 1_555 1_555
C8 N1 1_555 1_555
C9 C7 1_555 1_555
H3 C9 1_555 1_555
C10 N1 1_555 1_555
C11 C9 1_555 1_555
H4 C11 1_555 1_555
C12 O17 1_555 1_555
C13 C3 1_555 1_555
C14 N2 1_555 1_555
C15 S1 1_555 1_555
H5 C15 1_555 1_555
H6 C15 1_555 1_555
C16 N2 1_555 1_555
C17 C15 1_555 1_555
C18 C17 1_555 1_555
C19 C18 1_555 1_555
H7 C19 1_555 1_555
H8 C19 1_555 1_555
H9 C19 1_555 1_555
C20 C18 1_555 1_555
C21 C20 1_555 1_555
H10 C21 1_555 1_555
H11 C21 1_555 1_555
H12 C21 1_555 1_555
C22 C20 1_555 1_555
C23 C22 1_555 1_555
H13 C23 1_555 1_555
H14 C23 1_555 1_555
C24 C22 1_555 1_555
C25 C24 1_555 1_555
H15 C25 1_555 1_555
H16 C25 1_555 1_555
H17 C25 1_555 1_555
C26 C17 1_555 1_555
C27 C26 1_555 1_555
H18 C27 1_555 1_555
H19 C27 1_555 1_555
H20 C27 1_555 1_555
C28 S2 1_555 1_555
C29 C28 1_555 1_555
H21 C29 1_555 1_555
C30 C29 1_555 1_555
H22 C30 1_555 1_555
C31 C30 1_555 1_555
H23 C31 1_555 1_555
C32 C31 1_555 1_555
H24 C32 1_555 1_555
C33 C28 1_555 1_555
C34 C33 1_555 1_555
C35 O5 1_555 1_555
C36 C35 1_555 1_555
C37 C36 1_555 1_555
H25 C37 1_555 1_555
C38 C37 1_555 1_555
H26 C38 1_555 1_555
C39 C38 1_555 1_555
H27 C39 1_555 1_555
C40 C39 1_555 1_555
H28 C40 1_555 1_555
C41 C36 1_555 1_555
C42 S3 1_555 1_555
H29 C42 1_555 1_555
H30 C42 1_555 1_555
C43 C42 1_555 1_555
C44 C43 1_555 1_555
C45 C44 1_555 1_555
H31 C45 1_555 1_555
H32 C45 1_555 1_555
H33 C45 1_555 1_555
C46 C44 1_555 1_555
C47 C46 1_555 1_555
H34 C47 1_555 1_555
H35 C47 1_555 1_555
H36 C47 1_555 1_555
C48 C46 1_555 1_555
C49 C48 1_555 1_555
H37 C49 1_555 1_555
H38 C49 1_555 1_555
C50 C48 1_555 1_555
C51 C50 1_555 1_555
H39 C51 1_555 1_555
H40 C51 1_555 1_555
H41 C51 1_555 1_555
C52 C43 1_555 1_555
C53 C52 1_555 1_555
H42 C53 1_555 1_555
H43 C53 1_555 1_555
H44 C53 1_555 1_555
C54 S4 1_555 1_555
C55 C54 1_555 1_555
H45 C55 1_555 1_555
C56 C55 1_555 1_555
H46 C56 1_555 1_555
C57 C56 1_555 1_555
H47 C57 1_555 1_555
C58 C57 1_555 1_555
H48 C58 1_555 1_555
C59 C54 1_555 1_555
C60 C59 1_555 1_555
C61 O9 1_555 1_555
C62 C61 1_555 1_555
C63 C62 1_555 1_555
H49 C63 1_555 1_555
C64 C63 1_555 1_555
H50 C64 1_555 1_555
C65 C64 1_555 1_555
H51 C65 1_555 1_555
C66 C65 1_555 1_555
H52 C66 1_555 1_555
C67 C62 1_555 1_555
C68 S5 1_555 1_555
H53 C68 1_555 1_555
H54 C68 1_555 1_555
C69 C68 1_555 1_555
C70 C69 1_555 1_555
C71 C70 1_555 1_555
H55 C71 1_555 1_555
H56 C71 1_555 1_555
H57 C71 1_555 1_555
C72 C69 1_555 1_555
C73 C72 1_555 1_555
H58 C73 1_555 1_555
H59 C73 1_555 1_555
H60 C73 1_555 1_555
C74 O11 1_555 1_555
C75 C74 1_555 1_555
C76 C75 1_555 1_555
H61 C76 1_555 1_555
C77 C76 1_555 1_555
H62 C77 1_555 1_555
C78 C77 1_555 1_555
H63 C78 1_555 1_555
C79 C78 1_555 1_555
H64 C79 1_555 1_555
C80 C75 1_555 1_555
C81 S6 1_555 1_555
H65 C81 1_555 1_555
H66 C81 1_555 1_555
C82 C81 1_555 1_555
C83 C82 1_555 1_555
C84 C83 1_555 1_555
C85 C84 1_555 1_555
H67 C85 1_555 1_555
H68 C85 1_555 1_555
H69 C85 1_555 1_555
C86 C83 1_555 1_555
H70 C86 1_555 1_555
H71 C86 1_555 1_555
H72 C86 1_555 1_555
N1 C6 1_555 1_555
N2 C12 1_555 1_555
O1B La1B 1_555 1_555
O2B La1B 1_555 1_555
O3B C34B 1_555 1_555
O4B La2B_2 1_555 1_555
O4_2 La2 1_555 1_555
O4B_2 La2B 1_555 1_555
O5B La1B 1_555 1_555
O6B La1B 1_555 1_555
O7B La2B_2 1_555 1_555
O7_2 La2 1_555 1_555
O7B_2 La2B 1_555 1_555
O8B La2B_2 1_555 1_555
O8_2 La2 1_555 1_555
O8B_2 La2B 1_555 1_555
O9B La1B_2 1_555 1_555
O9B_2 La1B 1_555 1_555
O10B La1B_2 1_555 1_555
O10B_2 La1B 1_555 1_555
O11B La2B 1_555 1_555
O12B La2B 1_555 1_555
O13B La1B 1_555 1_555
O14B La1B 1_555 1_555
O15B La1B 1_555 1_555
O16B La2B 1_555 1_555
O17B La1B 1_555 1_555
La2B O1B 1_555 1_555
La2_2 O4 1_555 1_555
La2B_3 O9B 1_555 1_555
S1B C13B 1_555 1_555
S2B C23B 1_555 1_555
S3B C41B 1_555 1_555
S4B C49B 1_555 1_555
S5B C67B 1_555 1_555
S6B C80B 1_555 1_555
C1B O1B 1_555 1_555
C2B O14B 1_555 1_555
C3B C1B 1_555 1_555
C4B C2B 1_555 1_555
C5B C3B 1_555 1_555
H1B C5B 1_555 1_555
C6B O15B 1_555 1_555
C7B C5B 1_555 1_555
H2B C7B 1_555 1_555
C8B N1B 1_555 1_555
C9B C7B 1_555 1_555
H3B C9B 1_555 1_555
C10B N1B 1_555 1_555
C11B C9B 1_555 1_555
H4B C11B 1_555 1_555
C12B O17B 1_555 1_555
C13B C3B 1_555 1_555
C14B N2B 1_555 1_555
C15B S1B 1_555 1_555
H5B C15B 1_555 1_555
H6B C15B 1_555 1_555
C16B N2B 1_555 1_555
C17B C15B 1_555 1_555
C18B C17B 1_555 1_555
C19B C18B 1_555 1_555
H7B C19B 1_555 1_555
H8B C19B 1_555 1_555
H9B C19B 1_555 1_555
C20B C18B 1_555 1_555
C21B C20B 1_555 1_555
H10B C21B 1_555 1_555
H11B C21B 1_555 1_555
H12B C21B 1_555 1_555
C22B C20B 1_555 1_555
C23B C22B 1_555 1_555
H13B C23B 1_555 1_555
H14B C23B 1_555 1_555
C24B C22B 1_555 1_555
C25B C24B 1_555 1_555
H15B C25B 1_555 1_555
H16B C25B 1_555 1_555
H17B C25B 1_555 1_555
C26B C17B 1_555 1_555
C27B C26B 1_555 1_555
H18B C27B 1_555 1_555
H19B C27B 1_555 1_555
H20B C27B 1_555 1_555
C28B S2B 1_555 1_555
C29B C28B 1_555 1_555
H21B C29B 1_555 1_555
C30B C29B 1_555 1_555
H22B C30B 1_555 1_555
C31B C30B 1_555 1_555
H23B C31B 1_555 1_555
C32B C31B 1_555 1_555
H24B C32B 1_555 1_555
C33B C28B 1_555 1_555
C34B O4B 1_555 1_555
C35B O5B 1_555 1_555
C36B C35B 1_555 1_555
C37B C36B 1_555 1_555
H25B C37B 1_555 1_555
C38B C37B 1_555 1_555
H26B C38B 1_555 1_555
C39B C38B 1_555 1_555
H27B C39B 1_555 1_555
C40B C39B 1_555 1_555
H28B C40B 1_555 1_555
C41B C36B 1_555 1_555
C42B S3B 1_555 1_555
H29B C42B 1_555 1_555
H30B C42B 1_555 1_555
C43B C42B 1_555 1_555
C44B C43B 1_555 1_555
C45B C44B 1_555 1_555
H31B C45B 1_555 1_555
H32B C45B 1_555 1_555
H33B C45B 1_555 1_555
C46B C44B 1_555 1_555
C47B C46B 1_555 1_555
H34B C47B 1_555 1_555
H35B C47B 1_555 1_555
H36B C47B 1_555 1_555
C48B C46B 1_555 1_555
C49B C48B 1_555 1_555
H37B C49B 1_555 1_555
H38B C49B 1_555 1_555
C50B C48B 1_555 1_555
C51B C50B 1_555 1_555
H39B C51B 1_555 1_555
H40B C51B 1_555 1_555
H41B C51B 1_555 1_555
C52B C43B 1_555 1_555
C53B C52B 1_555 1_555
H42B C53B 1_555 1_555
H43B C53B 1_555 1_555
H44B C53B 1_555 1_555
C54B S4B 1_555 1_555
C55B C54B 1_555 1_555
H45B C55B 1_555 1_555
C56B C55B 1_555 1_555
H46B C56B 1_555 1_555
C57B C56B 1_555 1_555
H47B C57B 1_555 1_555
C58B C57B 1_555 1_555
H48B C58B 1_555 1_555
C59B C54B 1_555 1_555
C60B O7B 1_555 1_555
C61B O9B 1_555 1_555
C61B_2 O9B_2 1_555 1_555
C62B C61B 1_555 1_555
C63B C62B 1_555 1_555
H49B C63B 1_555 1_555
C64B C63B 1_555 1_555
H50B C64B 1_555 1_555
C65B C64B 1_555 1_555
H51B C65B 1_555 1_555
C66B C65B 1_555 1_555
H52B C66B 1_555 1_555
C67B C62B 1_555 1_555
C68B S5B 1_555 1_555
H53B C68B 1_555 1_555
H54B C68B 1_555 1_555
C69B C68B 1_555 1_555
C70B C72 1_555 1_555
C71B C70B 1_555 1_555
H55B C71B 1_555 1_555
H56B C71B 1_555 1_555
H57B C71B 1_555 1_555
C72B C70 1_555 1_555
C73B C72B 1_555 1_555
H58B C73B 1_555 1_555
H59B C73B 1_555 1_555
H60B C73B 1_555 1_555
C74B O11B 1_555 1_555
C75B C74B 1_555 1_555
C76B C75B 1_555 1_555
H61B C76B 1_555 1_555
C77B C76B 1_555 1_555
H62B C77B 1_555 1_555
C78B C77B 1_555 1_555
H63B C78B 1_555 1_555
C79B C78B 1_555 1_555
H64B C79B 1_555 1_555
C80B C75B 1_555 1_555
C81B S6B 1_555 1_555
H65B C81B 1_555 1_555
H66B C81B 1_555 1_555
C82B C84 1_555 1_555
C83B C82B 1_555 1_555
C84B C82 1_555 1_555
C85B C84B 1_555 1_555
H67B C85B 1_555 1_555
H68B C85B 1_555 1_555
H69B C85B 1_555 1_555
C86B C83B 1_555 1_555
H70B C86B 1_555 1_555
H71B C86B 1_555 1_555
H72B C86B 1_555 1_555
N1B C6B 1_555 1_555
N2B C12B 1_555 1_555
O2 C1 1_555 1_555
O5 La2 1_555 1_555
O6 C35 1_555 1_555
O7 La2_2 1_555 1_555
O8 La2_2 1_555 1_555
O9 La2 1_555 1_555
O10 C61 1_555 1_555
O12 C74 1_555 1_555
C11 C13 1_555 1_555
C24 C26 1_555 1_555
C32 C33 1_555 1_555
C40 C41 1_555 1_555
C50 C52 1_555 1_555
C58 C59 1_555 1_555
C66 C67 1_555 1_555
C79 C80 1_555 1_555
O2B C1B 1_555 1_555
O5B La2B 1_555 1_555
O6B C35B 1_555 1_555
O8B C60B 1_555 1_555
O9B_2 La2B 1_555 1_555
O10B C61B 1_555 1_555
O10B_2 C61B_2 1_555 1_555
O12B C74B 1_555 1_555
C11B C13B 1_555 1_555
C24B C26B 1_555 1_555
C32B C33B 1_555 1_555
C33B C34B 1_555 1_555
C40B C41B 1_555 1_555
C50B C52B 1_555 1_555
C58B C59B 1_555 1_555
C59B C60B 1_555 1_555
C66B C67B 1_555 1_555
C69B C70B 1_555 1_555
C69B C72B 1_555 1_555
C79B C80B 1_555 1_555
C81B C82B 1_555 1_555
C83B C84B 1_555 1_555

#END
