
#######################################################################
#
#                 Cambridge Crystallographic Data Centre
#                                CCDC 
#
#######################################################################
#
# If this CIF has been generated from an entry in the Cambridge 
# Structural Database, then it will include bibliographic, chemical, 
# crystal, experimental, refinement or atomic coordinate data resulting 
# from the CCDC's data processing and validation procedures.
#
#######################################################################

data_IBIYUO
_symmetry_cell_setting           tetragonal
_symmetry_space_group_name_H-M   'I 41/a c d'
_symmetry_Int_Tables_number      142
_space_group_name_Hall           '-I 4bd 2c'
loop_
_symmetry_equiv_pos_site_id
_symmetry_equiv_pos_as_xyz
1 x,y,z
2 1/2+x,1/2+y,1/2+z
3 1/4-y,3/4+x,1/4+z
4 1/4+y,3/4-x,1/4-z
5 1/2+x,y,1/2-z
6 x,1/2+y,-z
7 1/4+y,1/4-x,3/4+z
8 1/4-y,1/4+x,3/4-z
9 -x,y,1/2+z
10 1/2-x,1/2+y,z
11 3/4+y,3/4+x,3/4+z
12 1/4+y,1/4+x,1/4+z
13 1/2+x,-y,z
14 x,1/2-y,1/2+z
15 3/4-y,1/4-x,1/4+z
16 3/4+y,1/4+x,1/4-z
17 -x,-y,-z
18 1/2-x,1/2-y,1/2-z
19 3/4+y,1/4-x,3/4-z
20 3/4-y,1/4+x,3/4+z
21 1/2-x,-y,1/2+z
22 -x,1/2-y,z
23 3/4-y,3/4+x,1/4-z
24 3/4+y,3/4-x,1/4+z
25 x,-y,1/2-z
26 1/2+x,1/2-y,-z
27 1/4-y,1/4-x,1/4-z
28 3/4-y,3/4-x,3/4-z
29 1/2-x,y,-z
30 -x,1/2+y,1/2-z
31 1/4+y,3/4+x,3/4-z
32 1/4-y,3/4-x,3/4+z
_cell_length_a                   24.803(2)
_cell_length_b                   24.803(2)
_cell_length_c                   28.412(3)
_cell_angle_alpha                90
_cell_angle_beta                 90
_cell_angle_gamma                90
_cell_volume                     17478.7
loop_
_atom_site_label
_atom_site_type_symbol
_atom_site_fract_x
_atom_site_fract_y
_atom_site_fract_z
W1 W 0.0000 0.2500 0.1250
Cu1 Cu 0.07677(12) 0.32677(12) 0.1250
Cu2 Cu -0.07678(13) 0.32678(13) 0.1250
S1 S -0.0002(3) 0.3239(3) 0.0803(2)
N1 N 0.1397(8) 0.3323(8) 0.0784(8)
N2 N -0.0773(9) 0.3913(8) 0.1709(8)
C1 C 0.1342(11) 0.3167(10) 0.0338(10)
C2 C 0.1781(11) 0.3184(12) 0.0043(11)
C3 C 0.2268(10) 0.3340(9) 0.0156(11)
C4 C 0.2306(11) 0.3517(11) 0.0632(10)
C5 C 0.1878(10) 0.3495(11) 0.0906(12)
C6 C -0.0665(13) 0.4417(11) 0.1564(10)
C7 C -0.0633(13) 0.4836(10) 0.1844(10)
C8 C -0.0727(10) 0.4770(10) 0.2329(9)
C9 C -0.0828(12) 0.4242(10) 0.2463(11)
C10 C -0.0864(12) 0.3846(11) 0.2152(11)
H1 H 0.1003(11) 0.3031(10) 0.0238(10)
H2 H 0.1720(11) 0.3076(12) -0.0273(11)
H3 H 0.2643(11) 0.3647(11) 0.0743(10)
H4 H 0.1923(10) 0.3603(11) 0.1225(12)
H5 H -0.0614(13) 0.4470(11) 0.1236(10)
H6 H -0.0547(13) 0.5184(10) 0.1725(10)
H7 H -0.0879(12) 0.4168(10) 0.2788(11)
H8 H -0.0953(12) 0.3494(11) 0.2260(11)
C3BA C 0.2732(10) 0.3340(9) -0.0156(11)
C2BA C 0.3219(11) 0.3184(12) -0.0043(11)
C1BA C 0.3658(11) 0.3167(10) -0.0338(10)
N1BA N 0.3603(8) 0.3323(8) -0.0784(8)
C5BA C 0.3122(10) 0.3495(11) -0.0906(12)
C4BA C 0.2694(11) 0.3517(11) -0.0632(10)
H3BA H 0.2357(11) 0.3647(11) -0.0743(10)
H4BA H 0.3077(10) 0.3603(11) -0.1225(12)
H1BA H 0.3997(11) 0.3031(10) -0.0238(10)
H2BA H 0.3280(11) 0.3076(12) 0.0273(11)
C8X C -0.0727(10) 0.5230(10) 0.2671(9)
C7X C -0.0633(13) 0.5164(10) 0.3156(10)
C6X C -0.0665(13) 0.5583(11) 0.3436(10)
N2X N -0.0773(9) 0.6087(8) 0.3291(8)
C10X C -0.0864(12) 0.6154(11) 0.2848(11)
C9X C -0.0828(12) 0.5758(10) 0.2537(11)
H7X H -0.0879(12) 0.5832(10) 0.2212(11)
H8X H -0.0953(12) 0.6506(11) 0.2740(11)
H5X H -0.0614(13) 0.5530(11) 0.3764(10)
H6X H -0.0547(13) 0.4816(10) 0.3275(10)
S1O S 0.0739(3) 0.2498(3) 0.1697(2)
S1U S 0.0002(3) 0.1761(3) 0.0803(2)
S1Z S -0.0739(3) 0.2502(3) 0.1697(2)
Cu1U Cu -0.07677(12) 0.17323(12) 0.1250
Cu2O Cu 0.07678(13) 0.17322(13) 0.1250
N1O N 0.0823(8) 0.3897(8) 0.1716(8)
C1O C 0.0667(10) 0.3842(11) 0.2162(10)
C2O C 0.0684(12) 0.4281(11) 0.2457(11)
C3O C 0.0840(9) 0.4768(10) 0.2344(11)
C4O C 0.1017(11) 0.4806(11) 0.1868(10)
C5O C 0.0995(11) 0.4378(10) 0.1594(12)
H1O H 0.0531(10) 0.3503(11) 0.2262(10)
H2O H 0.0576(12) 0.4220(11) 0.2773(11)
H3O H 0.1147(11) 0.5143(11) 0.1757(10)
H4O H 0.1103(11) 0.4423(10) 0.1275(12)
C3W C 0.0840(9) 0.5232(10) 0.2656(11)
C2W C 0.0684(12) 0.5719(11) 0.2543(11)
C1W C 0.0667(10) 0.6158(11) 0.2838(10)
N1W N 0.0823(8) 0.6103(8) 0.3284(8)
C5W C 0.0995(11) 0.5622(10) 0.3406(12)
C4W C 0.1017(11) 0.5194(11) 0.3132(10)
H3W H 0.1147(11) 0.4857(11) 0.3243(10)
H4W H 0.1103(11) 0.5577(10) 0.3725(12)
H1W H 0.0531(10) 0.6497(11) 0.2738(10)
H2W H 0.0576(12) 0.5780(11) 0.2227(11)
N2Z N -0.1413(8) 0.3273(9) 0.0791(8)
C6Z C -0.1917(11) 0.3165(13) 0.0936(10)
C7Z C -0.2336(10) 0.3133(13) 0.0656(10)
C8Z C -0.2270(10) 0.3227(10) 0.0171(9)
C9Z C -0.1742(10) 0.3328(12) 0.0037(11)
C10Z C -0.1346(11) 0.3364(12) 0.0348(11)
H5Z H -0.1970(11) 0.3114(13) 0.1264(10)
H6Z H -0.2684(10) 0.3047(13) 0.0775(10)
H7Z H -0.1668(10) 0.3379(12) -0.0288(11)
H8Z H -0.0994(11) 0.3453(12) 0.0240(11)
C8F C -0.2730(10) 0.3227(10) -0.0171(9)
C7F C -0.2664(10) 0.3133(13) -0.0656(10)
C6F C -0.3083(11) 0.3165(13) -0.0936(10)
N2F N -0.3587(8) 0.3273(9) -0.0791(8)
C10F C -0.3654(11) 0.3364(12) -0.0348(11)
C9F C -0.3258(10) 0.3328(12) -0.0037(11)
H7F H -0.3332(10) 0.3379(12) 0.0288(11)
H8F H -0.4006(11) 0.3453(12) -0.0240(11)
H5F H -0.3030(11) 0.3114(13) -0.1264(10)
H6F H -0.2316(10) 0.3047(13) -0.0775(10)
Cu1S Cu 0.42323(12) 0.32677(12) -0.1250
Cu2B Cu -0.07678(13) 0.67322(13) 0.3750
N1U N -0.1397(8) 0.1677(8) 0.0784(8)
N1Z N -0.0823(8) 0.1103(8) 0.1716(8)
N2O N 0.1413(8) 0.1727(9) 0.0791(8)
N2U N 0.0773(9) 0.1087(8) 0.1709(8)
Cu1W Cu 0.07677(12) 0.67323(12) 0.3750
Cu2F Cu -0.42322(13) 0.32678(13) -0.1250
W2 W 0.5000 0.2500 0.1250
I1 I 0.33892(7) 0.13411(7) 0.15176(7)
Cu3 Cu 0.42986(13) 0.16700(12) 0.11801(12)
S2 S 0.4269(3) 0.2489(3) 0.0791(2)
N3 N 0.4517(9) 0.1054(8) 0.0718(8)
C11 C 0.4862(10) 0.1159(11) 0.0366(9)
C12 C 0.5053(12) 0.0740(9) 0.0086(7)
C13 C 0.491(1) 0.0214(11) 0.0145(11)
C14 C 0.473(2) 0.009(2) 0.066(2)
C15 C 0.457(2) 0.057(2) 0.091(2)
C13P C 0.509(1) -0.0214(11) -0.0145(11)
C12P C 0.4947(12) -0.0740(9) -0.0086(7)
C11P C 0.5138(10) -0.1159(11) -0.0366(9)
N3P N 0.5483(9) -0.1054(8) -0.0718(8)
C15P C 0.543(2) -0.057(2) -0.091(2)
C14P C 0.527(2) -0.009(2) -0.066(2)
S2C S 0.4989(3) 0.3231(3) 0.1709(2)
S2U S 0.5731(3) 0.2511(3) 0.0791(2)
S2V S 0.5011(3) 0.1769(3) 0.1709(2)
Cu3C Cu 0.41700(12) 0.32014(13) 0.13199(12)
Cu3U Cu 0.57014(13) 0.33300(12) 0.11801(12)
Cu3V Cu 0.58300(12) 0.17986(13) 0.13199(12)
I1C I 0.38411(7) 0.41108(7) 0.09824(7)
N3C N 0.3554(8) 0.2983(9) 0.1782(8)
C11C C 0.3659(11) 0.2638(10) 0.2134(9)
C12C C 0.3240(9) 0.2447(12) 0.2414(7)
C13C C 0.2714(11) 0.259(1) 0.2355(11)
C14C C 0.259(2) 0.277(2) 0.184(2)
C15C C 0.307(2) 0.293(2) 0.159(2)
C13B C 0.2286(11) 0.241(1) 0.2645(11)
C12B C 0.1760(9) 0.2553(12) 0.2586(7)
C11B C 0.1341(11) 0.2362(10) 0.2866(9)
N3B N 0.1446(8) 0.2017(9) 0.3218(8)
C15B C 0.193(2) 0.207(2) 0.341(2)
C14B C 0.241(2) 0.223(2) 0.316(2)
I1U I 0.66108(7) 0.36589(7) 0.15176(7)
I1V I 0.61589(7) 0.08892(7) 0.09824(7)
Cu3P Cu 0.57014(13) -0.16700(12) -0.11801(12)
N3U N 0.5483(9) 0.3946(8) 0.0718(8)
N3V N 0.6446(8) 0.2017(9) 0.1782(8)
Cu3B Cu 0.08300(12) 0.17986(13) 0.36801(12)
I2 I 0.3399(2) -0.0262(2) -0.0080(2)
I3 I 0.3137(3) 0.0345(3) 0.0690(3)
C16? C 0.436(2) 0.020(2) 0.032(2)
C17? C 0.425(2) 0.060(2) 0.066(2)
loop_
_geom_bond_atom_site_label_1
_geom_bond_atom_site_label_2
_geom_bond_site_symmetry_1
_geom_bond_site_symmetry_2
W1 S1 1_555 1_555
W2 S2 1_555 1_555
I1 Cu3 1_555 1_555
I2 I3 1_555 1_555
Cu1 S1 1_555 1_555
Cu2 S1 1_555 1_555
Cu3 S2 1_555 1_555
S2 Cu3C 1_555 1_555
N1 Cu1 1_555 1_555
N2 Cu2 1_555 1_555
N3 Cu3 1_555 1_555
C1 N1 1_555 1_555
C2 C1 1_555 1_555
C3 C2 1_555 1_555
C4 C3 1_555 1_555
C5 N1 1_555 1_555
C6 N2 1_555 1_555
C7 C6 1_555 1_555
C8 C7 1_555 1_555
C9 C8 1_555 1_555
C10 N2 1_555 1_555
C11 N3 1_555 1_555
C12 C11 1_555 1_555
C13 C12 1_555 1_555
C14 C13 1_555 1_555
C15 N3 1_555 1_555
H1 C1 1_555 1_555
H2 C2 1_555 1_555
H3 C4 1_555 1_555
H4 C5 1_555 1_555
H5 C6 1_555 1_555
H6 C7 1_555 1_555
H7 C9 1_555 1_555
H8 C10 1_555 1_555
C3BA C3 1_555 1_555
C2BA C3BA 1_555 1_555
C1BA C2BA 1_555 1_555
N1BA C1BA 1_555 1_555
C5BA N1BA 1_555 1_555
C4BA C3BA 1_555 1_555
H3BA C4BA 1_555 1_555
H4BA C5BA 1_555 1_555
H1BA C1BA 1_555 1_555
H2BA C2BA 1_555 1_555
C8X C8 1_555 1_555
C7X C8X 1_555 1_555
C6X C7X 1_555 1_555
N2X C6X 1_555 1_555
C10X N2X 1_555 1_555
C9X C8X 1_555 1_555
H7X C9X 1_555 1_555
H8X C10X 1_555 1_555
H5X C6X 1_555 1_555
H6X C7X 1_555 1_555
C13P C13 1_555 1_555
C12P C13P 1_555 1_555
C11P C12P 1_555 1_555
N3P C11P 1_555 1_555
C15P N3P 1_555 1_555
C14P C13P 1_555 1_555
S1O W1 1_555 1_555
S1U W1 1_555 1_555
S1Z W1 1_555 1_555
Cu1U S1U 1_555 1_555
Cu2O S1O 1_555 1_555
N1O Cu1 1_555 1_555
C1O N1O 1_555 1_555
C2O C1O 1_555 1_555
C3O C2O 1_555 1_555
C4O C3O 1_555 1_555
C5O N1O 1_555 1_555
H1O C1O 1_555 1_555
H2O C2O 1_555 1_555
H3O C4O 1_555 1_555
H4O C5O 1_555 1_555
C3W C3O 1_555 1_555
C2W C3W 1_555 1_555
C1W C2W 1_555 1_555
N1W C1W 1_555 1_555
C5W N1W 1_555 1_555
C4W C3W 1_555 1_555
H3W C4W 1_555 1_555
H4W C5W 1_555 1_555
H1W C1W 1_555 1_555
H2W C2W 1_555 1_555
N2Z Cu2 1_555 1_555
C6Z N2Z 1_555 1_555
C7Z C6Z 1_555 1_555
C8Z C7Z 1_555 1_555
C9Z C8Z 1_555 1_555
C10Z N2Z 1_555 1_555
H5Z C6Z 1_555 1_555
H6Z C7Z 1_555 1_555
H7Z C9Z 1_555 1_555
H8Z C10Z 1_555 1_555
C8F C8Z 1_555 1_555
C7F C8F 1_555 1_555
C6F C7F 1_555 1_555
N2F C6F 1_555 1_555
C10F N2F 1_555 1_555
C9F C8F 1_555 1_555
H7F C9F 1_555 1_555
H8F C10F 1_555 1_555
H5F C6F 1_555 1_555
H6F C7F 1_555 1_555
S2C W2 1_555 1_555
S2U W2 1_555 1_555
S2V W2 1_555 1_555
Cu3C S2C 1_555 1_555
Cu3U S2C 1_555 1_555
Cu3V S2U 1_555 1_555
I1C Cu3C 1_555 1_555
N3C Cu3C 1_555 1_555
C11C N3C 1_555 1_555
C12C C11C 1_555 1_555
C13C C12C 1_555 1_555
C14C C13C 1_555 1_555
C15C N3C 1_555 1_555
C13B C13C 1_555 1_555
C12B C13B 1_555 1_555
C11B C12B 1_555 1_555
N3B C11B 1_555 1_555
C15B N3B 1_555 1_555
C14B C13B 1_555 1_555
I1U Cu3U 1_555 1_555
I1V Cu3V 1_555 1_555
Cu1S N1BA 1_555 1_555
Cu2B N2X 1_555 1_555
Cu3P N3P 1_555 1_555
N1U Cu1U 1_555 1_555
N1Z Cu1U 1_555 1_555
N2O Cu2O 1_555 1_555
N2U Cu2O 1_555 1_555
Cu1W N1W 1_555 1_555
Cu2F N2F 1_555 1_555
N3U Cu3U 1_555 1_555
N3V Cu3V 1_555 1_555
Cu3B N3B 1_555 1_555
Cu1 S1O 1_555 1_555
Cu2 S1Z 1_555 1_555
Cu3 S2V 1_555 1_555
C4 C5 1_555 1_555
C9 C10 1_555 1_555
C14 C15 1_555 1_555
C5BA C4BA 1_555 1_555
C10X C9X 1_555 1_555
C15P C14P 1_555 1_555
S1U Cu2O 1_555 1_555
S1Z Cu1U 1_555 1_555
C4O C5O 1_555 1_555
C5W C4W 1_555 1_555
C9Z C10Z 1_555 1_555
C10F C9F 1_555 1_555
S2U Cu3U 1_555 1_555
S2V Cu3V 1_555 1_555
C14C C15C 1_555 1_555
C15B C14B 1_555 1_555

#END
