
#######################################################################
#
#                 Cambridge Crystallographic Data Centre
#                                CCDC 
#
#######################################################################
#
# If this CIF has been generated from an entry in the Cambridge 
# Structural Database, then it will include bibliographic, chemical, 
# crystal, experimental, refinement or atomic coordinate data resulting 
# from the CCDC's data processing and validation procedures.
#
#######################################################################

data_IBOBOQ
_symmetry_cell_setting           triclinic
_symmetry_space_group_name_H-M   'P -1'
_symmetry_Int_Tables_number      2
_space_group_name_Hall           '-P 1'
loop_
_symmetry_equiv_pos_site_id
_symmetry_equiv_pos_as_xyz
1 x,y,z
2 -x,-y,-z
_cell_length_a                   7.4073(6)
_cell_length_b                   9.8470(8)
_cell_length_c                   11.9043(10)
_cell_angle_alpha                110.756(2)
_cell_angle_beta                 97.6260(10)
_cell_angle_gamma                103.771(2)
_cell_volume                     765.748
loop_
_atom_site_label
_atom_site_type_symbol
_atom_site_fract_x
_atom_site_fract_y
_atom_site_fract_z
Cu1 Cu -0.11473(4) 0.10147(3) 0.31405(2)
Cu2 Cu -0.23798(4) -0.00003(3) 0.51957(3)
N1 N -0.0385(3) 0.1623(2) 0.49717(19)
N2 N 0.0593(3) 0.2875(3) 0.5758(2)
N3 N 0.1576(5) 0.4006(3) 0.6481(3)
N4 N -0.2803(3) -0.0753(2) 0.33458(19)
N5 N -0.4202(3) -0.1741(3) 0.2596(2)
N6 N -0.5491(4) -0.2679(4) 0.1884(3)
N7 N 0.1433(4) -0.0531(3) 0.3046(2)
N8 N 0.0708(3) -0.1809(3) 0.2254(2)
N9 N 0.0019(5) -0.2968(3) 0.1439(3)
N10 N -0.5274(4) 0.1583(3) 0.4992(2)
N11 N -0.4678(3) 0.1858(2) 0.41932(19)
N12 N -0.4005(4) 0.2171(3) 0.3469(3)
N13 N 0.0551(3) 0.2902(2) 0.31049(19)
N14 N 0.0110(3) 0.3363(2) 0.2182(2)
C1 C -0.1813(4) 0.2746(3) 0.1403(3)
H1 H -0.194(4) 0.324(3) 0.082(3)
H2 H -0.260(4) 0.291(3) 0.193(3)
C2 C 0.1599(4) 0.4484(3) 0.2215(3)
H3 H 0.147(5) 0.493(4) 0.175(3)
C3 C 0.3054(4) 0.4751(3) 0.3169(3)
H4 H 0.421(6) 0.545(5) 0.339(4)
C4 C 0.2351(4) 0.3745(3) 0.3694(3)
H5 H 0.281(4) 0.359(3) 0.430(3)
N15 N -0.2123(3) 0.0193(2) 0.13065(19)
N16 N -0.2244(3) 0.1120(2) 0.07039(18)
C5 C -0.2796(4) 0.0314(4) -0.0524(2)
H6 H -0.288(5) 0.086(4) -0.100(3)
C6 C -0.3032(4) -0.1178(4) -0.0739(3)
H7 H -0.339(5) -0.188(4) -0.142(4)
C7 C -0.2592(4) -0.1206(3) 0.0423(2)
H8 H -0.262(4) -0.201(4) 0.062(3)
Cu2A Cu 0.23798(4) 0.00003(3) 0.48043(3)
Cu1A Cu 0.11473(4) -0.10147(3) 0.68595(2)
Cu2A_2 Cu -0.76202(4) 0.00003(3) 0.48043(3)
N1A N 0.0385(3) -0.1623(2) 0.50283(19)
N7A N -0.1433(4) 0.0531(3) 0.6954(2)
N10A N -0.4726(4) -0.1583(3) 0.5008(2)
loop_
_geom_bond_atom_site_label_1
_geom_bond_atom_site_label_2
_geom_bond_site_symmetry_1
_geom_bond_site_symmetry_2
Cu1 N1 1_555 1_555
Cu2 N1 1_555 1_555
N1 N2 1_555 1_555
N2 N3 1_555 1_555
N4 Cu1 1_555 1_555
N5 N4 1_555 1_555
N6 N5 1_555 1_555
N7 Cu1 1_555 1_555
N8 N7 1_555 1_555
N9 N8 1_555 1_555
N10 Cu2 1_555 1_555
N11 N10 1_555 1_555
N12 Cu1 1_555 1_555
N13 Cu1 1_555 1_555
N14 N13 1_555 1_555
C1 N14 1_555 1_555
H1 C1 1_555 1_555
H2 C1 1_555 1_555
C2 N14 1_555 1_555
H3 C2 1_555 1_555
C3 C2 1_555 1_555
H4 C3 1_555 1_555
C4 N13 1_555 1_555
H5 C4 1_555 1_555
N15 Cu1 1_555 1_555
N16 C1 1_555 1_555
C5 N16 1_555 1_555
H6 C5 1_555 1_555
C6 C5 1_555 1_555
H7 C6 1_555 1_555
C7 N15 1_555 1_555
H8 C7 1_555 1_555
Cu2A N1 1_555 1_555
Cu1A N1A 1_555 1_555
Cu2A_2 N10 1_555 1_555
N1A Cu2 1_555 1_555
N7A Cu2 1_555 1_555
N10A Cu2 1_555 1_555
Cu2 N4 1_555 1_555
N7 Cu2A 1_555 1_555
N11 N12 1_555 1_555
C3 C4 1_555 1_555
N15 N16 1_555 1_555
C6 C7 1_555 1_555
Cu2A N1A 1_555 1_555
Cu1A N7A 1_555 1_555
Cu2A_2 N10A 1_555 1_555

#END
