
#######################################################################
#
#                 Cambridge Crystallographic Data Centre
#                                CCDC 
#
#######################################################################
#
# If this CIF has been generated from an entry in the Cambridge 
# Structural Database, then it will include bibliographic, chemical, 
# crystal, experimental, refinement or atomic coordinate data resulting 
# from the CCDC's data processing and validation procedures.
#
#######################################################################

data_IBODUY
_symmetry_cell_setting           monoclinic
_symmetry_space_group_name_H-M   'P 21'
_symmetry_Int_Tables_number      4
_space_group_name_Hall           'P 2yb'
loop_
_symmetry_equiv_pos_site_id
_symmetry_equiv_pos_as_xyz
1 x,y,z
2 -x,1/2+y,-z
_cell_length_a                   15.098(3)
_cell_length_b                   28.257(6)
_cell_length_c                   16.887(3)
_cell_angle_alpha                90
_cell_angle_beta                 102.185(3)
_cell_angle_gamma                90
_cell_volume                     7042.1
loop_
_atom_site_label
_atom_site_type_symbol
_atom_site_fract_x
_atom_site_fract_y
_atom_site_fract_z
Gd1 Gd 0.03332(3) 0.7113(2) 0.76646(3)
Gd2 Gd -0.35364(3) 0.6965(2) 0.10692(3)
Cu1 Cu 0.03018(9) 0.8463(2) 0.73940(10)
Cu2 Cu 0.26524(9) 0.7499(2) 0.72457(9)
Cu3 Cu 0.17650(9) 0.5990(2) 0.75829(10)
Cu4 Cu -0.10308(9) 0.6039(2) 0.81890(9)
Cu5 Cu -0.19186(9) 0.7583(2) 0.81679(9)
Cu6 Cu -0.13458(9) 0.7341(2) 0.03747(9)
Cu7 Cu -0.37164(9) 0.8306(2) 0.05366(9)
Cu8 Cu -0.59132(9) 0.7412(2) 0.12825(9)
Cu9 Cu -0.49340(11) 0.5886(2) 0.15046(13)
Cu10 Cu -0.21931(10) 0.5829(2) 0.08025(10)
O1 O 0.1388(5) 0.8742(4) 0.7204(6)
O2 O 0.0979(5) 0.7887(4) 0.7594(5)
O3 O 0.3483(5) 0.6994(4) 0.7187(5)
O4 O 0.1833(5) 0.7013(4) 0.7419(4)
O5 O 0.1260(6) 0.5419(4) 0.7887(8)
O6 O 0.0715(5) 0.6297(4) 0.7803(5)
O7 O -0.2191(5) 0.6185(4) 0.8392(5)
O8 O -0.0808(5) 0.6719(4) 0.8257(5)
O9 O -0.2130(5) 0.8236(4) 0.7925(5)
O10 O -0.0791(5) 0.7687(4) 0.7849(5)
O11 O -0.1297(5) 0.7998(4) 0.0069(5)
O12 O -0.2603(5) 0.7480(4) 0.0367(4)
O13 O -0.4716(5) 0.8614(4) 0.0846(6)
O14 O -0.4211(5) 0.7742(4) 0.0898(5)
O15 O -0.6712(6) 0.6942(4) 0.1530(6)
O16 O -0.5066(5) 0.6916(4) 0.1297(4)
O17 O -0.4345(6) 0.5282(4) 0.1525(7)
O18 O -0.3867(5) 0.6142(4) 0.1242(5)
O19 O -0.1029(5) 0.5935(4) 0.0552(5)
O20 O -0.2277(5) 0.6502(4) 0.0819(5)
O21 O -0.3344(6) 0.6869(5) 0.2536(5)
O22 O -0.2335(5) 0.7323(4) 0.2132(5)
O23 O -0.0817(8) 0.6791(4) 0.6520(5)
O24 O 0.0081(6) 0.7348(4) 0.6225(5)
O25 O 0.5780(4) 0.6757(4) 0.9764(4)
O26 O 0.5162(5) 0.6086(4) 0.9276(6)
O27 O 0.1709(5) 0.7826(4) 0.9724(6)
O28 O 0.0962(4) 0.7246(3) 0.9033(4)
O34 O -0.1774(8) 0.6028(5) 0.6774(6)
O35 O -0.0204(10) 0.8357(5) 0.5929(8)
O47 O -0.3107(5) 0.5722(4) -0.0596(5)
O51 O -0.0734(5) 0.7533(4) 0.1807(5)
N1 N 0.3344(7) 0.8042(4) 0.6975(7)
H1 H 0.3909 0.8040 0.7311
H2 H 0.3420 0.8007 0.6452
N2 N 0.1844(6) 0.7969(4) 0.7411(6)
N3 N 0.2958(6) 0.5745(5) 0.7421(7)
H3 H 0.3218 0.5561 0.7858
H4 H 0.2865 0.5558 0.6965
N4 N 0.2272(7) 0.6593(4) 0.7422(6)
N5 N -0.1041(9) 0.5324(5) 0.8285(10)
H5 H -0.1231 0.5239 0.8748
H6 H -0.1439 0.5198 0.7848
N6 N 0.0156(7) 0.5938(4) 0.7992(7)
N7 N -0.3033(6) 0.7387(5) 0.8552(6)
H7 H -0.2961 0.7443 0.9099
H8 H -0.3528 0.7555 0.8283
N8 N -0.1620(6) 0.6940(4) 0.8336(5)
N9 N -0.0497(6) 0.9049(4) 0.7364(8)
H9 H -0.0281 0.9235 0.7811
H10 H -0.0481 0.9224 0.6908
N10 N -0.0749(6) 0.8155(4) 0.7625(6)
N11 N -0.3149(7) 0.8826(5) 0.0018(7)
H11 H -0.3415 0.8844 -0.0524
H12 H -0.3233 0.9111 0.0256
N12 N -0.2723(6) 0.7949(4) 0.0310(6)
N13 N -0.6712(6) 0.7976(4) 0.1172(6)
H13 H -0.7118 0.7966 0.0682
H14 H -0.7035 0.7976 0.1577
N14 N -0.5073(5) 0.7853(4) 0.1060(5)
N15 N -0.6167(11) 0.5687(7) 0.1572(14)
H15 H -0.6441 0.5542 0.1096
H16 H -0.6134 0.5471 0.1985
N16 N -0.5476(7) 0.6493(5) 0.1462(7)
N17 N -0.2174(8) 0.5121(5) 0.0929(8)
H17 H -0.2228 0.4981 0.0429
H18 H -0.1628 0.5029 0.1246
N18 N -0.3280(7) 0.5767(5) 0.1193(6)
N19 N -0.0116(5) 0.7115(4) 0.0241(5)
H19 H -0.0019 0.7210 -0.0255
H20 H 0.0328 0.7248 0.0637
N20 N -0.1514(6) 0.6689(4) 0.0615(6)
C1 C 0.1969(8) 0.8407(6) 0.7227(7)
C2 C 0.2909(8) 0.8512(5) 0.7048(8)
H21 H 0.3280 0.8687 0.7518
C3 C 0.2798(9) 0.8826(5) 0.6279(8)
H22 H 0.2411 0.8661 0.5815
H23 H 0.2496 0.9126 0.6369
C4 C 0.3731(7) 0.8936(5) 0.6079(7)
C5 C 0.4409(8) 0.9140(6) 0.6603(8)
H24 H 0.4329 0.9209 0.7134
C6 C 0.5218(8) 0.9254(6) 0.6402(9)
H25 H 0.5681 0.9413 0.6775
C7 C 0.5341(9) 0.9123(6) 0.5601(9)
H26 H 0.5896 0.9191 0.5444
C8 C 0.4686(8) 0.8913(6) 0.5099(8)
H27 H 0.4759 0.8839 0.4567
C9 C 0.3883(8) 0.8797(5) 0.5329(7)
H28 H 0.3433 0.8621 0.4970
C10 C 0.3072(9) 0.6611(5) 0.7302(7)
C11 C 0.3581(7) 0.6136(5) 0.7331(8)
H29 H 0.4066 0.6140 0.7835
C12 C 0.4053(9) 0.6085(6) 0.6629(7)
H30 H 0.3596 0.6084 0.6114
H31 H 0.4461 0.6358 0.6621
C13 C 0.4590(6) 0.5637(6) 0.6697(10)
C14 C 0.5288(9) 0.5542(4) 0.7267(10)
H32 H 0.5478 0.5777 0.7669
C15 C 0.5786(11) 0.5119(5) 0.7338(11)
H33 H 0.6295 0.5060 0.7763
C16 C 0.5444(12) 0.4778(6) 0.6692(10)
H34 H 0.5751 0.4484 0.6703
C17 C 0.4750(12) 0.4852(7) 0.6106(11)
H35 H 0.4541 0.4625 0.5694
C18 C 0.4331(11) 0.5296(6) 0.6131(11)
H36 H 0.3820 0.5363 0.5711
C19 C 0.0504(10) 0.5515(6) 0.8034(11)
C20 C -0.0133(13) 0.5140(5) 0.8314(13)
H37 H 0.0139 0.5036 0.8879
C21 C -0.0195(12) 0.4682(7) 0.7697(13)
H38 H 0.0424 0.4599 0.7635
H39 H -0.0438 0.4407 0.7947
C22 C -0.0723(13) 0.4758(8) 0.6953(13)
C23 C -0.1564(13) 0.4612(8) 0.6734(12)
H40 H -0.1839 0.4494 0.7150
C24 C -0.2091(14) 0.4615(9) 0.5953(15)
H41 H -0.2699 0.4503 0.5837
C25 C -0.1651(17) 0.4800(9) 0.5314(14)
H42 H -0.1960 0.4814 0.4763
C26 C -0.0802(17) 0.4946(9) 0.5553(15)
H43 H -0.0505 0.5068 0.5153
C27 C -0.0313(14) 0.4932(9) 0.6360(15)
H44 H 0.0296 0.5041 0.6493
C28 C -0.2257(7) 0.6644(5) 0.8389(6)
C29 C -0.3164(7) 0.6872(5) 0.8379(8)
H45 H -0.3414 0.6728 0.8827
C30 C -0.3854(9) 0.6763(6) 0.7551(9)
H46 H -0.3714 0.6450 0.7346
H47 H -0.4479 0.6752 0.7646
C31 C -0.3797(8) 0.7137(5) 0.6924(7)
C32 C -0.4476(11) 0.7456(7) 0.6734(10)
H48 H -0.4983 0.7433 0.6982
C33 C -0.4445(10) 0.7834(8) 0.6159(12)
H49 H -0.4931 0.8052 0.6009
C34 C -0.3657(12) 0.7863(7) 0.5832(9)
H50 H -0.3598 0.8111 0.5468
C35 C -0.2988(13) 0.7539(8) 0.6036(10)
H51 H -0.2466 0.7566 0.5810
C36 C -0.3039(10) 0.7159(6) 0.6577(8)
H52 H -0.2572 0.6928 0.6697
C37 C -0.1419(9) 0.8405(5) 0.7683(9)
C38 C -0.1406(10) 0.8911(6) 0.7358(10)
H53 H -0.1666 0.9130 0.7715
C39 C -0.2027(11) 0.8906(7) 0.6511(13)
H54 H -0.1867 0.8628 0.6215
H55 H -0.2658 0.8861 0.6576
C40 C -0.2003(5) 0.9324(8) 0.6010(12)
C41 C -0.1823(8) 0.9336(8) 0.5285(12)
H56 H -0.1726 0.9044 0.5038
C42 C -0.1766(10) 0.9748(8) 0.4857(11)
H57 H -0.1634 0.9736 0.4332
C43 C -0.1913(10) 1.0205(8) 0.5224(12)
H58 H -0.1879 1.0495 0.4946
C44 C -0.2094(11) 1.0196(8) 0.5952(12)
H59 H -0.2194 1.0482 0.6216
C45 C -0.2137(9) 0.9752(8) 0.6341(11)
H60 H -0.2269 0.9754 0.6866
C46 C -0.2049(8) 0.8199(5) 0.0142(8)
C47 C -0.2159(9) 0.8726(6) 0.0120(9)
H61 H -0.1951 0.8851 -0.0365
C48 C -0.1576(10) 0.8970(6) 0.0906(11)
H62 H -0.0989 0.8803 0.1069
H63 H -0.1449 0.9302 0.0782
C49 C -0.2077(12) 0.8959(7) 0.1613(13)
C50 C -0.2499(12) 0.9373(6) 0.1823(11)
H64 H -0.2479 0.9661 0.1537
C51 C -0.2949(19) 0.9344(11) 0.2468(15)
H65 H -0.3236 0.9623 0.2604
C52 C -0.3012(17) 0.8919(7) 0.2945(12)
H66 H -0.3300 0.8926 0.3394
C53 C -0.2621(13) 0.8487(9) 0.2713(13)
H67 H -0.2691 0.8191 0.2962
C54 C -0.2141(13) 0.8530(7) 0.2106(12)
H68 H -0.1819 0.8259 0.1992
C55 C -0.5249(8) 0.8271(5) 0.1012(7)
C56 C -0.6175(7) 0.8405(6) 0.1221(9)
H69 H -0.6493 0.8627 0.0793
C57 C -0.6056(11) 0.8660(6) 0.2043(9)
H70 H -0.5600 0.8914 0.2062
H71 H -0.6637 0.8813 0.2074
C58 C -0.5775(12) 0.8360(7) 0.2763(9)
C59 C -0.4967(11) 0.8165(7) 0.2966(10)
H72 H -0.4520 0.8245 0.2669
C60 C -0.4747(12) 0.7840(8) 0.3611(11)
H73 H -0.4160 0.7706 0.3776
C61 C -0.5495(14) 0.7726(8) 0.4008(11)
H74 H -0.5387 0.7514 0.4455
C62 C -0.6323(13) 0.7910(8) 0.3762(11)
H75 H -0.6803 0.7817 0.4012
C63 C -0.6474(12) 0.8241(7) 0.3133(10)
H76 H -0.7054 0.8383 0.2962
C64 C -0.6275(10) 0.6545(6) 0.1573(10)
C65 C -0.6738(10) 0.6109(6) 0.1726(13)
H77 H -0.7332 0.6094 0.1330
C66 C -0.6918(10) 0.6075(7) 0.2560(11)
H78 H -0.7320 0.5801 0.2582
H79 H -0.7244 0.6363 0.2670
C67 C -0.6071(11) 0.6021(8) 0.3217(10)
C68 C -0.5679(12) 0.5615(7) 0.3463(10)
H80 H -0.5985 0.5340 0.3223
C69 C -0.4893(12) 0.5536(7) 0.4016(11)
H81 H -0.4655 0.5229 0.4160
C70 C -0.4448(12) 0.5976(7) 0.4370(10)
H82 H -0.3897 0.5960 0.4763
C71 C -0.4809(12) 0.6388(7) 0.4145(11)
H83 H -0.4519 0.6670 0.4372
C72 C -0.5629(12) 0.6413(7) 0.3563(11)
H84 H -0.5883 0.6716 0.3408
C73 C -0.3574(10) 0.5355(6) 0.1324(9)
C74 C -0.2949(11) 0.4948(6) 0.1320(12)
H85 H -0.3291 0.4700 0.0957
C75 C -0.2584(13) 0.4727(7) 0.2099(12)
H86 H -0.2210 0.4452 0.2010
H87 H -0.3094 0.4606 0.2325
C76 C -0.2029(18) 0.5042(7) 0.2702(12)
C77 C -0.1161(18) 0.5088(8) 0.2838(13)
H88 H -0.0826 0.4889 0.2556
C78 C -0.0684(16) 0.5425(9) 0.3390(15)
H89 H -0.0045 0.5461 0.3494
C79 C -0.1273(19) 0.5710(8) 0.3784(13)
H90 H -0.0996 0.5943 0.4161
C80 C -0.2153(19) 0.5668(9) 0.3655(14)
H91 H -0.2509 0.5861 0.3927
C81 C -0.2544(15) 0.5319(9) 0.3091(14)
H92 H -0.3183 0.5277 0.2978
C82 C -0.0914(8) 0.6406(5) 0.0490(7)
C83 C -0.0066(7) 0.6601(5) 0.0301(7)
H93 H -0.0026 0.6479 -0.0246
C84 C 0.0778(7) 0.6430(6) 0.0895(7)
H94 H 0.0760 0.6081 0.0933
H95 H 0.1321 0.6518 0.0687
C85 C 0.0851(8) 0.6635(6) 0.1709(9)
C86 C 0.1370(8) 0.7060(7) 0.1990(8)
H96 H 0.1692 0.7210 0.1634
C87 C 0.1419(10) 0.7257(9) 0.2756(11)
H97 H 0.1748 0.7539 0.2921
C88 C 0.0947(12) 0.7009(8) 0.3275(11)
H98 H 0.0991 0.7127 0.3809
C89 C 0.0431(13) 0.6611(8) 0.3051(9)
H99 H 0.0127 0.6466 0.3425
C90 C 0.0358(11) 0.6432(7) 0.2326(12)
H100 H -0.0020 0.6163 0.2180
C91 C -0.2611(7) 0.7093(6) 0.2684(7)
C92 C -0.2079(7) 0.7098(5) 0.3545(6)
C93 C -0.2361(10) 0.6789(6) 0.4125(8)
H101 H -0.2858 0.6580 0.3964
C94 C -0.1308(8) 0.7366(5) 0.3750(7)
H102 H -0.1115 0.7561 0.3360
C95 C -0.1893(9) 0.6806(7) 0.4917(8)
H103 H -0.2113 0.6634 0.5318
C96 C -0.0817(8) 0.7344(5) 0.4543(7)
H104 H -0.0270 0.7519 0.4694
C97 C -0.1120(7) 0.7065(5) 0.5134(6)
C98 C -0.0568(7) 0.7068(6) 0.6001(7)
C99 C 0.5106(7) 0.6518(5) 0.9492(6)
C100 C 0.4201(7) 0.6751(5) 0.9399(7)
C101 C 0.3415(8) 0.6484(5) 0.9401(7)
H105 H 0.3440 0.6148 0.9411
C102 C 0.4124(7) 0.7247(5) 0.9352(6)
H106 H 0.4645 0.7431 0.9331
C103 C 0.3337(6) 0.7467(5) 0.9335(6)
H107 H 0.3310 0.7802 0.9320
C104 C 0.2588(7) 0.6721(5) 0.9386(7)
H108 H 0.2061 0.6543 0.9410
C105 C 0.2535(7) 0.7198(5) 0.9340(6)
C106 C 0.1687(6) 0.7443(5) 0.9365(6)
C107 C -0.265(2) 0.5860(12) 0.6229(19)
H109 H -0.2654 0.5937 0.5676
H110 H -0.2709 0.5524 0.6282
H111 H -0.3157 0.6015 0.6385
O25_2 O -0.4220(4) 0.6757(4) -0.0236(4)
Gd2_2 Gd 0.64636(3) 0.6965(2) 1.10692(3)
O29 O 0.6023(15) 0.5966(12) 1.3004(17)
O30 O 0.2873(18) 0.5150(10) 0.9922(17)
O31 O 0.8086(19) 0.4467(11) 0.8835(18)
O32 O 0.1317(19) 0.8193(11) 0.4291(18)
O33 O 0.0400(11) 0.8316(7) 1.2703(14)
O36 O 0.9985(14) 0.5124(8) 1.0353(16)
O37 O 0.0552(10) 0.9245(6) 0.9025(9)
O38 O 0.1508(9) 0.8517(7) 1.1549(12)
O39 O 0.5077(9) 0.8110(6) 0.8257(11)
O40 O 0.2137(14) 0.6591(8) 0.5265(10)
O41 O 0.6785(12) 0.4765(6) 0.9354(10)
O42 O 0.1751(10) 0.7498(8) 0.5603(9)
O43 O 0.5173(10) 0.9473(6) 0.9088(11)
O44 O 0.2366(9) 0.8752(6) 0.9335(9)
O45 O 0.4915(11) 0.9553(6) 1.0702(12)
O46 O 0.0341(8) 0.8410(5) 0.9909(8)
O48 O -0.3505(6) 0.8791(4) 0.8238(7)
O49 O 0.4021(7) 0.5324(4) 0.8895(6)
O50 O 0.1117(17) 0.5972(6) 0.6044(10)
O52 O 0.4090(10) 0.8671(6) 0.8978(9)
O53 O -0.2990(10) 0.9743(6) 0.8160(10)
loop_
_geom_bond_atom_site_label_1
_geom_bond_atom_site_label_2
_geom_bond_site_symmetry_1
_geom_bond_site_symmetry_2
Gd1 O2 1_555 1_555
Gd2 O12 1_555 1_555
Cu1 O1 1_555 1_555
Cu2 O3 1_555 1_555
Cu3 O5 1_555 1_555
Cu4 O7 1_555 1_555
Cu5 O9 1_555 1_555
Cu6 O11 1_555 1_555
Cu7 O13 1_555 1_555
Cu8 O15 1_555 1_555
Cu9 O17 1_555 1_555
Cu10 O19 1_555 1_555
O1 C1 1_555 1_555
O2 Cu1 1_555 1_555
O3 C10 1_555 1_555
O4 Gd1 1_555 1_555
O5 C19 1_555 1_555
O6 Gd1 1_555 1_555
O7 C28 1_555 1_555
O8 Gd1 1_555 1_555
O9 C37 1_555 1_555
O10 Gd1 1_555 1_555
O11 C46 1_555 1_555
O12 Cu6 1_555 1_555
O13 C55 1_555 1_555
O14 Gd2 1_555 1_555
O15 C64 1_555 1_555
O16 Gd2 1_555 1_555
O17 C73 1_555 1_555
O18 Gd2 1_555 1_555
O19 C82 1_555 1_555
O20 Gd2 1_555 1_555
O21 Gd2 1_555 1_555
O22 Gd2 1_555 1_555
O23 Gd1 1_555 1_555
O24 Gd1 1_555 1_555
O25 C99 1_555 1_555
O26 C99 1_555 1_555
O27 C106 1_555 1_555
O28 Gd1 1_555 1_555
O34 Cu4 1_555 1_555
O35 Cu1 1_555 1_555
O47 Cu10 1_555 1_555
O51 Cu6 1_555 1_555
N1 Cu2 1_555 1_555
H1 N1 1_555 1_555
H2 N1 1_555 1_555
N2 Cu2 1_555 1_555
N3 Cu3 1_555 1_555
H3 N3 1_555 1_555
H4 N3 1_555 1_555
N4 Cu3 1_555 1_555
N5 Cu4 1_555 1_555
H5 N5 1_555 1_555
H6 N5 1_555 1_555
N6 Cu4 1_555 1_555
N7 Cu5 1_555 1_555
H7 N7 1_555 1_555
H8 N7 1_555 1_555
N8 Cu5 1_555 1_555
N9 Cu1 1_555 1_555
H9 N9 1_555 1_555
H10 N9 1_555 1_555
N10 Cu1 1_555 1_555
N11 Cu7 1_555 1_555
H11 N11 1_555 1_555
H12 N11 1_555 1_555
N12 Cu7 1_555 1_555
N13 Cu8 1_555 1_555
H13 N13 1_555 1_555
H14 N13 1_555 1_555
N14 Cu8 1_555 1_555
N15 Cu9 1_555 1_555
H15 N15 1_555 1_555
H16 N15 1_555 1_555
N16 Cu9 1_555 1_555
N17 Cu10 1_555 1_555
H17 N17 1_555 1_555
H18 N17 1_555 1_555
N18 Cu10 1_555 1_555
N19 Cu6 1_555 1_555
H19 N19 1_555 1_555
H20 N19 1_555 1_555
N20 Cu6 1_555 1_555
C1 N2 1_555 1_555
C2 N1 1_555 1_555
H21 C2 1_555 1_555
C3 C2 1_555 1_555
H22 C3 1_555 1_555
H23 C3 1_555 1_555
C4 C3 1_555 1_555
C5 C4 1_555 1_555
H24 C5 1_555 1_555
C6 C5 1_555 1_555
H25 C6 1_555 1_555
C7 C6 1_555 1_555
H26 C7 1_555 1_555
C8 C7 1_555 1_555
H27 C8 1_555 1_555
C9 C4 1_555 1_555
H28 C9 1_555 1_555
C10 N4 1_555 1_555
C11 N3 1_555 1_555
H29 C11 1_555 1_555
C12 C11 1_555 1_555
H30 C12 1_555 1_555
H31 C12 1_555 1_555
C13 C12 1_555 1_555
C14 C13 1_555 1_555
H32 C14 1_555 1_555
C15 C14 1_555 1_555
H33 C15 1_555 1_555
C16 C15 1_555 1_555
H34 C16 1_555 1_555
C17 C16 1_555 1_555
H35 C17 1_555 1_555
C18 C13 1_555 1_555
H36 C18 1_555 1_555
C19 N6 1_555 1_555
C20 N5 1_555 1_555
H37 C20 1_555 1_555
C21 C20 1_555 1_555
H38 C21 1_555 1_555
H39 C21 1_555 1_555
C22 C21 1_555 1_555
C23 C22 1_555 1_555
H40 C23 1_555 1_555
C24 C23 1_555 1_555
H41 C24 1_555 1_555
C25 C24 1_555 1_555
H42 C25 1_555 1_555
C26 C25 1_555 1_555
H43 C26 1_555 1_555
C27 C22 1_555 1_555
H44 C27 1_555 1_555
C28 N8 1_555 1_555
C29 N7 1_555 1_555
H45 C29 1_555 1_555
C30 C29 1_555 1_555
H46 C30 1_555 1_555
H47 C30 1_555 1_555
C31 C30 1_555 1_555
C32 C31 1_555 1_555
H48 C32 1_555 1_555
C33 C32 1_555 1_555
H49 C33 1_555 1_555
C34 C33 1_555 1_555
H50 C34 1_555 1_555
C35 C34 1_555 1_555
H51 C35 1_555 1_555
C36 C31 1_555 1_555
H52 C36 1_555 1_555
C37 N10 1_555 1_555
C38 N9 1_555 1_555
H53 C38 1_555 1_555
C39 C38 1_555 1_555
H54 C39 1_555 1_555
H55 C39 1_555 1_555
C40 C39 1_555 1_555
C41 C40 1_555 1_555
H56 C41 1_555 1_555
C42 C41 1_555 1_555
H57 C42 1_555 1_555
C43 C42 1_555 1_555
H58 C43 1_555 1_555
C44 C43 1_555 1_555
H59 C44 1_555 1_555
C45 C40 1_555 1_555
H60 C45 1_555 1_555
C46 N12 1_555 1_555
C47 N11 1_555 1_555
H61 C47 1_555 1_555
C48 C47 1_555 1_555
H62 C48 1_555 1_555
H63 C48 1_555 1_555
C49 C48 1_555 1_555
C50 C49 1_555 1_555
H64 C50 1_555 1_555
C51 C50 1_555 1_555
H65 C51 1_555 1_555
C52 C51 1_555 1_555
H66 C52 1_555 1_555
C53 C52 1_555 1_555
H67 C53 1_555 1_555
C54 C49 1_555 1_555
H68 C54 1_555 1_555
C55 N14 1_555 1_555
C56 N13 1_555 1_555
H69 C56 1_555 1_555
C57 C56 1_555 1_555
H70 C57 1_555 1_555
H71 C57 1_555 1_555
C58 C57 1_555 1_555
C59 C58 1_555 1_555
H72 C59 1_555 1_555
C60 C59 1_555 1_555
H73 C60 1_555 1_555
C61 C60 1_555 1_555
H74 C61 1_555 1_555
C62 C61 1_555 1_555
H75 C62 1_555 1_555
C63 C58 1_555 1_555
H76 C63 1_555 1_555
C64 N16 1_555 1_555
C65 N15 1_555 1_555
H77 C65 1_555 1_555
C66 C65 1_555 1_555
H78 C66 1_555 1_555
H79 C66 1_555 1_555
C67 C66 1_555 1_555
C68 C67 1_555 1_555
H80 C68 1_555 1_555
C69 C68 1_555 1_555
H81 C69 1_555 1_555
C70 C69 1_555 1_555
H82 C70 1_555 1_555
C71 C70 1_555 1_555
H83 C71 1_555 1_555
C72 C67 1_555 1_555
H84 C72 1_555 1_555
C73 N18 1_555 1_555
C74 N17 1_555 1_555
H85 C74 1_555 1_555
C75 C74 1_555 1_555
H86 C75 1_555 1_555
H87 C75 1_555 1_555
C76 C75 1_555 1_555
C77 C76 1_555 1_555
H88 C77 1_555 1_555
C78 C77 1_555 1_555
H89 C78 1_555 1_555
C79 C78 1_555 1_555
H90 C79 1_555 1_555
C80 C79 1_555 1_555
H91 C80 1_555 1_555
C81 C76 1_555 1_555
H92 C81 1_555 1_555
C82 N20 1_555 1_555
C83 N19 1_555 1_555
H93 C83 1_555 1_555
C84 C83 1_555 1_555
H94 C84 1_555 1_555
H95 C84 1_555 1_555
C85 C84 1_555 1_555
C86 C85 1_555 1_555
H96 C86 1_555 1_555
C87 C86 1_555 1_555
H97 C87 1_555 1_555
C88 C87 1_555 1_555
H98 C88 1_555 1_555
C89 C88 1_555 1_555
H99 C89 1_555 1_555
C90 C85 1_555 1_555
H100 C90 1_555 1_555
C91 O21 1_555 1_555
C92 C91 1_555 1_555
C93 C92 1_555 1_555
H101 C93 1_555 1_555
C94 C92 1_555 1_555
H102 C94 1_555 1_555
C95 C93 1_555 1_555
H103 C95 1_555 1_555
C96 C94 1_555 1_555
H104 C96 1_555 1_555
C97 C95 1_555 1_555
C98 O23 1_555 1_555
C99 C100 1_555 1_555
C100 C101 1_555 1_555
C101 H105 1_555 1_555
C102 C100 1_555 1_555
H106 C102 1_555 1_555
C103 C102 1_555 1_555
H107 C103 1_555 1_555
C104 C101 1_555 1_555
H108 C104 1_555 1_555
C105 C103 1_555 1_555
C106 O28 1_555 1_555
C107 O34 1_555 1_555
H109 C107 1_555 1_555
H110 C107 1_555 1_555
H111 C107 1_555 1_555
O25_2 Gd2 1_555 1_555
Gd2_2 O25 1_555 1_555
Cu2 O4 1_555 1_555
Cu3 O6 1_555 1_555
Cu4 O8 1_555 1_555
Cu5 O10 1_555 1_555
Cu7 O14 1_555 1_555
Cu8 O16 1_555 1_555
Cu9 O18 1_555 1_555
Cu10 O20 1_555 1_555
O2 N2 1_555 1_555
O4 N4 1_555 1_555
O6 N6 1_555 1_555
O8 N8 1_555 1_555
O10 N10 1_555 1_555
O12 N12 1_555 1_555
O14 N14 1_555 1_555
O16 N16 1_555 1_555
O18 N18 1_555 1_555
O20 N20 1_555 1_555
O22 C91 1_555 1_555
O24 C98 1_555 1_555
C1 C2 1_555 1_555
C8 C9 1_555 1_555
C10 C11 1_555 1_555
C17 C18 1_555 1_555
C19 C20 1_555 1_555
C26 C27 1_555 1_555
C28 C29 1_555 1_555
C35 C36 1_555 1_555
C37 C38 1_555 1_555
C44 C45 1_555 1_555
C46 C47 1_555 1_555
C53 C54 1_555 1_555
C55 C56 1_555 1_555
C62 C63 1_555 1_555
C64 C65 1_555 1_555
C71 C72 1_555 1_555
C73 C74 1_555 1_555
C80 C81 1_555 1_555
C82 C83 1_555 1_555
C89 C90 1_555 1_555
C96 C97 1_555 1_555
C97 C98 1_555 1_555
C104 C105 1_555 1_555
C105 C106 1_555 1_555

#END
