
#######################################################################
#
#                 Cambridge Crystallographic Data Centre
#                                CCDC 
#
#######################################################################
#
# If this CIF has been generated from an entry in the Cambridge 
# Structural Database, then it will include bibliographic, chemical, 
# crystal, experimental, refinement or atomic coordinate data resulting 
# from the CCDC's data processing and validation procedures.
#
#######################################################################

data_IBODAE
_symmetry_cell_setting           monoclinic
_symmetry_space_group_name_H-M   'P 21'
_symmetry_Int_Tables_number      4
_space_group_name_Hall           'P 2yb'
loop_
_symmetry_equiv_pos_site_id
_symmetry_equiv_pos_as_xyz
1 x,y,z
2 -x,1/2+y,-z
_cell_length_a                   11.1367(4)
_cell_length_b                   17.3310(6)
_cell_length_c                   11.6826(4)
_cell_angle_alpha                90
_cell_angle_beta                 111.239(2)
_cell_angle_gamma                90
_cell_volume                     2101.7
loop_
_atom_site_label
_atom_site_type_symbol
_atom_site_fract_x
_atom_site_fract_y
_atom_site_fract_z
Co1 Co -0.29215(4) 0.43601(2) -0.56776(3)
O1 O -0.2656(2) 0.31870(14) -0.5429(2)
H1 H -0.288(4) 0.281(2) -0.588(3)
H2 H -0.201(3) 0.302(2) -0.488(3)
O2 O -0.3056(2) 0.55730(14) -0.57497(19)
H3 H -0.294(4) 0.585(2) -0.508(3)
H4 H -0.354(4) 0.589(2) -0.634(3)
N1 N -0.1902(2) 0.44849(16) -0.3698(2)
N2 N -0.1113(2) 0.44635(16) 0.3931(2)
N3 N -0.4756(2) 0.42601(16) -0.5375(2)
N4 N -0.3962(2) 0.42847(18) 0.2333(2)
C1 C -0.0791(3) 0.4873(2) -0.3250(3)
H5 H -0.0417 0.5051 -0.3815
C2 C -0.0154(4) 0.5032(2) -0.2028(3)
H6 H 0.0636 0.5308 -0.1772
C3 C -0.0657(3) 0.4792(2) -0.1172(3)
C4 C -0.1776(3) 0.4364(3) -0.1612(3)
H7 H -0.2146 0.4165 -0.1057
C5 C -0.2357(3) 0.4224(2) -0.2849(3)
H8 H -0.3124 0.3925 -0.3120
C6 C 0.0012(3) 0.4989(2) 0.0173(3)
H9 H -0.0634 0.5010 0.0573
H10 H 0.0411 0.5506 0.0245
C7 C 0.1050(3) 0.4397(2) 0.0838(3)
H11 H 0.1697 0.4379 0.0440
H12 H 0.0650 0.3880 0.0759
C8 C 0.0801(3) 0.45479(19) 0.2889(3)
C9 C 0.1729(3) 0.4589(2) 0.2207(3)
H13 H 0.2444 0.4219 0.2579
H14 H 0.2102 0.5113 0.2291
C10 C 0.0317(3) 0.5201(2) 0.3242(3)
H15 H 0.0636 0.5695 0.3143
C11 C -0.0639(3) 0.5138(2) 0.3743(3)
H16 H -0.0969 0.5597 0.3962
C12 C -0.0593(3) 0.3822(2) 0.3645(3)
H17 H -0.0889 0.3333 0.3799
C13 C 0.0347(3) 0.3847(2) 0.3139(3)
H18 H 0.0688 0.3380 0.2960
C14 C -0.5373(3) 0.4892(2) -0.5209(3)
H19 H -0.5163 0.5375 -0.5473
C15 C -0.6298(3) 0.4878(2) -0.4674(3)
H20 H -0.6698 0.5344 -0.4568
C16 C -0.6638(3) 0.41818(19) -0.4295(3)
C17 C -0.6076(3) 0.3520(2) -0.4546(3)
H21 H -0.6333 0.3027 -0.4363
C18 C -0.5141(3) 0.3578(2) -0.5063(3)
H22 H -0.4753 0.3118 -0.5205
C19 C -0.7520(3) 0.4148(2) -0.3584(3)
H23 H -0.8184 0.3748 -0.3944
H24 H -0.7964 0.4650 -0.3651
C20 C -0.6781(3) 0.3962(2) -0.2216(3)
H25 H -0.7383 0.3991 -0.1769
H26 H -0.6449 0.3427 -0.2144
C21 C -0.5659(3) 0.4510(2) -0.1618(3)
H27 H -0.4985 0.4416 -0.1969
H28 H -0.5964 0.5048 -0.1816
C22 C -0.5078(3) 0.4419(2) -0.0245(2)
C23 C -0.4119(3) 0.3888(2) 0.0319(3)
H29 H -0.3825 0.3555 -0.0171
C24 C -0.3584(3) 0.3835(2) 0.1578(3)
H30 H -0.2921 0.3467 0.1934
C25 C -0.4931(3) 0.47763(19) 0.1784(3)
H31 H -0.5248 0.5080 0.2290
C26 C -0.5494(3) 0.4866(2) 0.0532(3)
H32 H -0.6165 0.5233 0.0197
N2_2 N -0.1113(2) 0.44635(16) -0.6069(2)
N4_2 N -0.3962(2) 0.42847(18) -0.7667(2)
Co1_2 Co -0.29215(4) 0.43601(2) 0.43224(3)
N5 N 0.2889(3) 0.15016(18) 0.3830(3)
N6 N -0.0659(3) 0.25831(17) -0.3588(3)
C27 C 0.4116(4) 0.2018(2) 0.2700(4)
H33 H 0.4937 0.2092 0.2642
C28 C 0.4010(4) 0.1632(2) 0.3696(3)
H34 H 0.4775 0.1451 0.4317
C29 C 0.1837(4) 0.1776(2) 0.2962(3)
H35 H 0.1028 0.1695 0.3044
C30 C 0.1863(3) 0.2177(2) 0.1941(3)
H36 H 0.1087 0.2370 0.1351
C31 C 0.3022(3) 0.2293(2) 0.1790(3)
C32 C 0.3144(3) 0.2690(2) 0.0683(3)
H37 H 0.3768 0.3120 0.0961
H38 H 0.2300 0.2910 0.0170
C33 C 0.3595(3) 0.2128(2) -0.0088(3)
H39 H 0.4376 0.1856 0.0454
H40 H 0.3833 0.2423 -0.0700
C34 C 0.2564(3) 0.1526(2) -0.0763(3)
H41 H 0.2952 0.1134 -0.1140
H42 H 0.2269 0.1261 -0.0161
C35 C 0.1430(3) 0.1883(2) -0.1740(3)
C36 C 0.0306(3) 0.2066(2) -0.1557(3)
H43 H 0.0220 0.1954 -0.0795
C37 C -0.0706(4) 0.2419(2) -0.2503(3)
H44 H -0.1467 0.2546 -0.2355
C38 C 0.0427(4) 0.2396(2) -0.3770(3)
H45 H 0.0470 0.2498 -0.4553
C39 C 0.1479(3) 0.2065(2) -0.2889(3)
H46 H 0.2236 0.1962 -0.3059
Cl1 Cl 0.40736(8) 0.68655(5) 0.23944(8)
O3 O 0.5394(2) 0.66847(17) 0.2554(3)
O4 O 0.3912(3) 0.6764(2) 0.3533(3)
O5 O 0.3808(3) 0.76500(16) 0.2014(3)
O6 O 0.3211(3) 0.6371(2) 0.1499(3)
Cl2 Cl 0.19963(9) 0.65343(5) -0.29002(10)
O7 O 0.1242(5) 0.7166(3) -0.2781(4)
O8 O 0.2480(3) 0.6093(2) -0.1806(3)
O9 O 0.1124(6) 0.6071(3) -0.3827(4)
O10 O 0.2967(4) 0.6805(3) -0.3261(6)
O11 O -0.1339(3) 0.2645(3) 0.0365(3)
H47 H -0.192(5) 0.236(4) -0.019(4)
H48 H -0.133(8) 0.252(5) 0.110(2)
loop_
_geom_bond_atom_site_label_1
_geom_bond_atom_site_label_2
_geom_bond_site_symmetry_1
_geom_bond_site_symmetry_2
Co1 O1 1_555 1_555
O1 H1 1_555 1_555
H2 O1 1_555 1_555
O2 Co1 1_555 1_555
H3 O2 1_555 1_555
H4 O2 1_555 1_555
N1 Co1 1_555 1_555
N2 C11 1_555 1_555
N3 Co1 1_555 1_555
N4 C24 1_555 1_555
C1 N1 1_555 1_555
H5 C1 1_555 1_555
C2 C1 1_555 1_555
H6 C2 1_555 1_555
C3 C2 1_555 1_555
C4 C3 1_555 1_555
H7 C4 1_555 1_555
C5 N1 1_555 1_555
H8 C5 1_555 1_555
C6 C3 1_555 1_555
H9 C6 1_555 1_555
H10 C6 1_555 1_555
C7 C6 1_555 1_555
H11 C7 1_555 1_555
H12 C7 1_555 1_555
C8 C9 1_555 1_555
C9 C7 1_555 1_555
H13 C9 1_555 1_555
H14 C9 1_555 1_555
C10 C8 1_555 1_555
H15 C10 1_555 1_555
C11 C10 1_555 1_555
H16 C11 1_555 1_555
C12 N2 1_555 1_555
H17 C12 1_555 1_555
C13 C8 1_555 1_555
H18 C13 1_555 1_555
C14 N3 1_555 1_555
H19 C14 1_555 1_555
C15 C14 1_555 1_555
H20 C15 1_555 1_555
C16 C15 1_555 1_555
C17 C16 1_555 1_555
H21 C17 1_555 1_555
C18 N3 1_555 1_555
H22 C18 1_555 1_555
C19 C16 1_555 1_555
H23 C19 1_555 1_555
H24 C19 1_555 1_555
C20 C19 1_555 1_555
H25 C20 1_555 1_555
H26 C20 1_555 1_555
C21 C20 1_555 1_555
H27 C21 1_555 1_555
H28 C21 1_555 1_555
C22 C21 1_555 1_555
C23 C22 1_555 1_555
H29 C23 1_555 1_555
C24 C23 1_555 1_555
H30 C24 1_555 1_555
C25 N4 1_555 1_555
H31 C25 1_555 1_555
C26 C22 1_555 1_555
H32 C26 1_555 1_555
N5 C28 1_555 1_555
N6 C37 1_555 1_555
C27 H33 1_555 1_555
C28 C27 1_555 1_555
H34 C28 1_555 1_555
C29 N5 1_555 1_555
H35 C29 1_555 1_555
C30 C29 1_555 1_555
H36 C30 1_555 1_555
C31 C27 1_555 1_555
C32 C31 1_555 1_555
H37 C32 1_555 1_555
H38 C32 1_555 1_555
C33 C32 1_555 1_555
H39 C33 1_555 1_555
H40 C33 1_555 1_555
C34 C33 1_555 1_555
H41 C34 1_555 1_555
H42 C34 1_555 1_555
C35 C34 1_555 1_555
C36 C35 1_555 1_555
H43 C36 1_555 1_555
C37 C36 1_555 1_555
H44 C37 1_555 1_555
C38 N6 1_555 1_555
H45 C38 1_555 1_555
C39 C35 1_555 1_555
H46 C39 1_555 1_555
Cl1 O3 1_555 1_555
O4 Cl1 1_555 1_555
O5 Cl1 1_555 1_555
O6 Cl1 1_555 1_555
Cl2 O7 1_555 1_555
O8 Cl2 1_555 1_555
O9 Cl2 1_555 1_555
O10 Cl2 1_555 1_555
O11 H47 1_555 1_555
H48 O11 1_555 1_555
N2_2 Co1 1_555 1_555
N4_2 Co1 1_555 1_555
Co1_2 N2 1_555 1_555
N4 Co1_2 1_555 1_555
C4 C5 1_555 1_555
C12 C13 1_555 1_555
C17 C18 1_555 1_555
C25 C26 1_555 1_555
C30 C31 1_555 1_555
C38 C39 1_555 1_555

#END
