
#######################################################################
#
#                 Cambridge Crystallographic Data Centre
#                                CCDC 
#
#######################################################################
#
# If this CIF has been generated from an entry in the Cambridge 
# Structural Database, then it will include bibliographic, chemical, 
# crystal, experimental, refinement or atomic coordinate data resulting 
# from the CCDC's data processing and validation procedures.
#
#######################################################################

data_IBOREW
_symmetry_cell_setting           triclinic
_symmetry_space_group_name_H-M   'P -1'
_symmetry_Int_Tables_number      2
_space_group_name_Hall           '-P 1'
loop_
_symmetry_equiv_pos_site_id
_symmetry_equiv_pos_as_xyz
1 x,y,z
2 -x,-y,-z
_cell_length_a                   13.498(4)
_cell_length_b                   14.399(4)
_cell_length_c                   22.399(6)
_cell_angle_alpha                87.071(5)
_cell_angle_beta                 89.106(5)
_cell_angle_gamma                62.939(4)
_cell_volume                     3871.61
loop_
_atom_site_label
_atom_site_type_symbol
_atom_site_fract_x
_atom_site_fract_y
_atom_site_fract_z
Sb1 Sb 0.90303(5) -0.25257(5) 0.36991(3)
F1 F 0.9433(5) -0.3654(5) 0.4241(3)
F2 F 0.8615(6) -0.1408(5) 0.3144(3)
F3 F 1.0459(5) -0.2634(6) 0.3725(3)
F4 F 0.9441(5) -0.3439(5) 0.3080(3)
F5 F 0.7585(4) -0.2392(5) 0.3662(3)
F6 F 0.8578(6) -0.1623(6) 0.4316(3)
Ag1 Ag 0.56231(5) -0.24778(5) 0.40494(3)
Ag2 Ag 0.59508(5) -0.40453(5) 0.12560(3)
P1 P 0.55332(18) -0.17454(18) 0.50206(11)
C1 C 0.5444(7) -0.0446(6) 0.4983(4)
H1 H 0.6128 -0.0412 0.4933
P2 P 0.41559(18) -0.13734(18) 0.32960(11)
C2 C 0.3899(7) -0.2043(7) 0.2709(4)
H2 H 0.3524 -0.2448 0.2813
P3 P 0.40768(19) -0.27943(19) 0.15828(11)
C3 C 0.4184(7) -0.2018(7) 0.2154(4)
H3 H 0.4476 -0.1547 0.2041
P4 P 0.63182(18) -0.42397(18) 0.36659(10)
C4 C 0.6615(7) -0.4239(7) 0.2877(4)
H4 H 0.6314 -0.4569 0.2631
P5 P 0.73890(18) -0.38435(19) 0.18282(10)
C5 C 0.7191(8) -0.3838(7) 0.2617(4)
H5 H 0.7526 -0.3527 0.2853
P6 P 0.63981(18) -0.46597(19) 0.02531(11)
C6 C 0.5399(7) -0.4942(7) -0.0139(4)
H6 H 0.5462 -0.5008 -0.0560
C7 C 0.6707(7) -0.2477(7) 0.5525(4)
C8 C 0.7698(7) -0.3210(8) 0.5276(5)
H7 H 0.7744 -0.3291 0.4857
C9 C 0.8600(8) -0.3812(8) 0.5636(5)
H8 H 0.9256 -0.4336 0.5469
C10 C 0.8552(8) -0.3658(8) 0.6229(5)
H9 H 0.9179 -0.4073 0.6477
C11 C 0.7613(8) -0.2911(8) 0.6473(5)
H10 H 0.7602 -0.2791 0.6887
C12 C 0.6682(8) -0.2331(7) 0.6125(4)
H11 H 0.6023 -0.1830 0.6301
C13 C 0.4304(7) -0.1632(7) 0.5404(4)
C14 C 0.3801(8) -0.2228(7) 0.5212(4)
H12 H 0.4117 -0.2674 0.4889
C15 C 0.2858(8) -0.2180(9) 0.5481(5)
H13 H 0.2533 -0.2592 0.5342
C16 C 0.2385(7) -0.1555(8) 0.5941(5)
H14 H 0.1726 -0.1516 0.6120
C17 C 0.2880(8) -0.0971(7) 0.6148(4)
H15 H 0.2556 -0.0537 0.6474
C18 C 0.3830(7) -0.1006(7) 0.5890(4)
H16 H 0.4162 -0.0608 0.6042
C19 C 0.2849(7) -0.0737(7) 0.3677(4)
C20 C 0.2697(7) 0.0077(8) 0.4021(4)
H17 H 0.3237 0.0330 0.4013
C21 C 0.1767(8) 0.0540(8) 0.4384(5)
H18 H 0.1667 0.1114 0.4612
C22 C 0.1004(8) 0.0169(8) 0.4410(5)
H19 H 0.0379 0.0468 0.4665
C23 C 0.1146(8) -0.0638(9) 0.4067(5)
H20 H 0.0598 -0.0881 0.4079
C24 C 0.2033(8) -0.1102(8) 0.3712(5)
H21 H 0.2113 -0.1672 0.3486
C25 C 0.4352(7) -0.0339(7) 0.2920(4)
C26 C 0.3493(8) 0.0494(8) 0.2609(4)
H22 H 0.2768 0.0542 0.2599
C27 C 0.3706(10) 0.1242(9) 0.2318(5)
H23 H 0.3123 0.1810 0.2105
C28 C 0.4741(10) 0.1186(10) 0.2330(5)
H24 H 0.4875 0.1716 0.2131
C29 C 0.5602(10) 0.0347(10) 0.2636(5)
H25 H 0.6325 0.0305 0.2643
C30 C 0.5418(8) -0.0401(8) 0.2920(5)
H26 H 0.6013 -0.0976 0.3121
C31 C 0.3191(7) -0.3327(7) 0.1874(4)
C32 C 0.3239(8) -0.1812(8) 0.1020(4)
C33 C 0.3603(9) -0.4422(8) 0.1961(4)
H27 H 0.4354 -0.4870 0.1865
C34 C 0.2632(13) -0.0730(11) 0.1130(7)
H28 H 0.2719 -0.0476 0.1499
C35 C 0.2941(9) -0.4844(9) 0.2180(5)
H29 H 0.3231 -0.5580 0.2233
C36 C 0.1930(18) -0.0066(12) 0.0703(8)
H30 H 0.1485 0.0646 0.0786
C37 C 0.1831(10) -0.4192(10) 0.2327(5)
H31 H 0.1369 -0.4490 0.2472
C38 C 0.1852(17) -0.0404(14) 0.0155(7)
H32 H 0.1385 0.0083 -0.0145
C39 C 0.1406(9) -0.3121(10) 0.2262(5)
H33 H 0.0661 -0.2686 0.2375
C40 C 0.2426(12) -0.1412(11) 0.0035(6)
H34 H 0.2353 -0.1652 -0.0341
C41 C 0.2056(7) -0.2680(9) 0.2035(5)
H35 H 0.1752 -0.1943 0.1984
C42 C 0.3126(11) -0.2097(9) 0.0472(5)
H36 H 0.3551 -0.2808 0.0382
C43 C 0.7547(7) -0.5331(7) 0.4001(4)
C44 C 0.8311(7) -0.6153(7) 0.3695(4)
H37 H 0.8228 -0.6178 0.3277
C45 C 0.9194(7) -0.6936(7) 0.3998(5)
H38 H 0.9730 -0.7497 0.3784
C46 C 0.9320(7) -0.6926(8) 0.4602(5)
H39 H 0.9927 -0.7482 0.4808
C47 C 0.8553(7) -0.6100(8) 0.4906(4)
H40 H 0.8630 -0.6077 0.5325
C48 C 0.7669(7) -0.5302(7) 0.4600(4)
H41 H 0.7142 -0.4730 0.4810
C49 C 0.4160(7) -0.3957(8) 0.3842(4)
H42 H 0.4005 -0.3272 0.3944
C50 C 0.3300(8) -0.4249(8) 0.3847(5)
H43 H 0.2564 -0.3766 0.3948
C51 C 0.4566(9) -0.5935(8) 0.3550(5)
H44 H 0.4691 -0.6610 0.3444
C52 C 0.5467(8) -0.5683(7) 0.3541(4)
H45 H 0.6195 -0.6183 0.3440
C53 C 0.5245(7) -0.4665(7) 0.3688(4)
C54 C 0.8856(7) -0.4777(8) 0.1759(4)
C55 C 0.9536(8) -0.4618(9) 0.1333(5)
H46 H 0.9260 -0.3980 0.1099
C56 C 1.0598(9) -0.5375(10) 0.1251(6)
H47 H 1.1045 -0.5258 0.0955
C57 C 1.1028(10) -0.6284(12) 0.1579(6)
H48 H 1.1774 -0.6795 0.1525
C58 C 1.0369(10) -0.6451(11) 0.1989(6)
H49 H 1.0662 -0.7088 0.2225
C59 C 0.9281(8) -0.5717(9) 0.2072(5)
H50 H 0.8826 -0.5868 0.2349
C60 C 0.7337(7) -0.2581(8) 0.1610(4)
C61 C 0.6580(9) -0.1952(9) 0.1182(5)
H51 H 0.6069 -0.2154 0.1014
C62 C 0.7214(11) -0.0679(9) 0.1272(5)
H52 H 0.7156 -0.0009 0.1164
C63 C 0.7939(11) -0.1280(10) 0.1699(5)
H53 H 0.8411 -0.1043 0.1878
C64 C 0.8009(9) -0.2223(9) 0.1880(5)
H54 H 0.8515 -0.2635 0.2189
C65 C 0.7737(7) -0.5744(7) 0.0086(4)
C66 C 0.8475(8) -0.6273(8) 0.0552(5)
H55 H 0.8268 -0.6091 0.0953
C67 C 0.9531(9) -0.7081(9) 0.0427(6)
H56 H 1.0038 -0.7445 0.0745
C68 C 0.9837(9) -0.7347(9) -0.0148(5)
H57 H 1.0566 -0.7866 -0.0233
C69 C 0.9092(9) -0.6865(9) -0.0592(5)
H58 H 0.9283 -0.7092 -0.0987
C70 C 0.8049(8) -0.6044(8) -0.0490(5)
H59 H 0.7555 -0.5692 -0.0816
C71 C 0.3541(8) -0.5240(8) 0.3704(5)
H60 H 0.2963 -0.5443 0.3715
C72 C 0.6578(9) -0.1007(9) 0.0998(5)
H61 H 0.6115 -0.0597 0.0674
C73 C 0.6387(7) -0.3566(7) -0.0172(4)
C74 C 0.7279(8) -0.3327(8) -0.0117(5)
H62 H 0.7926 -0.3802 0.0100
C75 C 0.7235(10) -0.2413(10) -0.0374(5)
H63 H 0.7841 -0.2260 -0.0321
C76 C 0.6348(10) -0.1743(9) -0.0695(5)
H64 H 0.6322 -0.1117 -0.0869
C77 C 0.5457(10) -0.1973(9) -0.0773(6)
H65 H 0.4830 -0.1509 -0.1008
C78 C 0.5491(8) -0.2870(9) -0.0510(5)
H66 H 0.4878 -0.3014 -0.0564
C1A C 0.4556(7) 0.0446(6) 0.5017(4)
C6A C 0.4601(7) -0.5058(7) 0.0139(4)
P1A P 0.44668(18) 0.17454(18) 0.49794(11)
H1A H 0.3872 0.0412 0.5067
P6A P 0.36019(18) -0.53403(19) -0.02531(11)
H6A H 0.4538 -0.4992 0.0560
Ag1A Ag 0.43769(5) 0.24778(5) 0.59506(3)
C7A C 0.3293(7) 0.2477(7) 0.4475(4)
C13A C 0.5696(7) 0.1632(7) 0.4596(4)
Ag2A Ag 0.40492(5) -0.59547(5) -0.12560(3)
C65A C 0.2263(7) -0.4256(7) -0.0086(4)
C73A C 0.3613(7) -0.6434(7) 0.0172(4)
C14A C 0.6199(8) 0.2228(7) 0.4788(4)
C18A C 0.6170(7) 0.1006(7) 0.4110(4)
C8A C 0.2302(7) 0.3210(8) 0.4724(5)
C12A C 0.3318(8) 0.2331(7) 0.3875(4)
C17A C 0.7120(8) 0.0971(7) 0.3852(4)
H16A H 0.5838 0.0608 0.3958
H12A H 0.5883 0.2674 0.5111
C15A C 0.7142(8) 0.2180(9) 0.4519(5)
H7A H 0.2256 0.3291 0.5143
C9A C 0.1400(8) 0.3812(8) 0.4364(5)
C11A C 0.2387(8) 0.2911(8) 0.3527(5)
H11A H 0.3977 0.1830 0.3699
C16A C 0.7615(7) 0.1555(8) 0.4059(5)
H15A H 0.7444 0.0537 0.3526
H13A H 0.7467 0.2592 0.4658
H8A H 0.0744 0.4336 0.4531
C10A C 0.1448(8) 0.3658(8) 0.3771(5)
H10A H 0.2398 0.2791 0.3113
H14A H 0.8274 0.1516 0.3880
H9A H 0.0821 0.4073 0.3523
C74A C 0.2721(8) -0.6673(8) 0.0117(5)
C78A C 0.4509(8) -0.7130(9) 0.0510(5)
C66A C 0.1525(8) -0.3727(8) -0.0552(5)
C70A C 0.1951(8) -0.3956(8) 0.0490(5)
H62A H 0.2074 -0.6198 -0.0100
C75A C 0.2765(10) -0.7587(10) 0.0374(5)
C77A C 0.4543(10) -0.8027(9) 0.0773(6)
H66A H 0.5122 -0.6986 0.0564
C69A C 0.0908(9) -0.3135(9) 0.0592(5)
H59A H 0.2445 -0.4308 0.0816
H55A H 0.1732 -0.3909 -0.0953
C67A C 0.0469(9) -0.2919(9) -0.0427(6)
C76A C 0.3652(10) -0.8257(9) 0.0695(5)
H65A H 0.5170 -0.8491 0.1008
H63A H 0.2159 -0.7740 0.0321
C68A C 0.0163(9) -0.2653(9) 0.0148(5)
H58A H 0.0717 -0.2908 0.0987
H56A H -0.0038 -0.2555 -0.0745
H64A H 0.3678 -0.8883 0.0869
H57A H -0.0566 -0.2134 0.0233
P3A P 0.59232(19) -0.72057(19) -0.15828(11)
P5A P 0.26110(18) -0.61565(19) -0.18282(10)
C3A C 0.5816(7) -0.7982(7) -0.2154(4)
C31A C 0.6809(7) -0.6673(7) -0.1874(4)
C32A C 0.6761(8) -0.8188(8) -0.1020(4)
C5A C 0.2809(8) -0.6162(7) -0.2617(4)
C54A C 0.1144(7) -0.5223(8) -0.1759(4)
C60A C 0.2663(7) -0.7419(8) -0.1610(4)
C2A C 0.6101(7) -0.7957(7) -0.2709(4)
H3A H 0.5524 -0.8453 -0.2041
C33A C 0.6397(9) -0.5578(8) -0.1961(4)
C41A C 0.7944(7) -0.7320(9) -0.2035(5)
C34A C 0.7368(13) -0.9270(11) -0.1130(7)
C42A C 0.6874(11) -0.7903(9) -0.0472(5)
C4A C 0.3385(7) -0.5761(7) -0.2877(4)
H5A H 0.2474 -0.6473 -0.2853
C55A C 0.0464(8) -0.5382(9) -0.1333(5)
C59A C 0.0719(8) -0.4283(9) -0.2072(5)
C61A C 0.3420(9) -0.8048(9) -0.1182(5)
C64A C 0.1991(9) -0.7777(9) -0.1880(5)
C40A C 0.7574(12) -0.8588(11) -0.0035(6)
H36A H 0.6449 -0.7192 -0.0382
H28A H 0.7281 -0.9524 -0.1499
C36A C 0.8070(18) -0.9934(12) -0.0703(8)
C39A C 0.8594(9) -0.6879(10) -0.2262(5)
H35A H 0.8248 -0.8057 -0.1984
H27A H 0.5646 -0.5130 -0.1865
C35A C 0.7059(9) -0.5156(9) -0.2180(5)
H46A H 0.0740 -0.6020 -0.1099
C56A C -0.0598(9) -0.4625(10) -0.1251(6)
C58A C -0.0369(10) -0.3549(11) -0.1989(6)
H50A H 0.1174 -0.4132 -0.2349
H51A H 0.3931 -0.7846 -0.1014
C72A C 0.3422(9) -0.8993(9) -0.0998(5)
C63A C 0.2061(11) -0.8720(10) -0.1699(5)
H54A H 0.1485 -0.7365 -0.2189
C38A C 0.8148(17) -0.9596(14) -0.0155(7)
H34A H 0.7647 -0.8348 0.0341
H30A H 0.8515 -1.0646 -0.0786
H47A H -0.1045 -0.4742 -0.0955
C57A C -0.1028(10) -0.3716(12) -0.1579(6)
H49A H -0.0662 -0.2912 -0.2225
C62A C 0.2786(11) -0.9321(9) -0.1272(5)
H53A H 0.1589 -0.8957 -0.1878
H61A H 0.3885 -0.9403 -0.0674
H32A H 0.8615 -1.0083 0.0145
H52A H 0.2844 -0.9991 -0.1164
H48A H -0.1774 -0.3205 -0.1525
C37A C 0.8169(10) -0.5808(10) -0.2327(5)
H33A H 0.9339 -0.7314 -0.2375
H29A H 0.6769 -0.4420 -0.2233
H31A H 0.8631 -0.5510 -0.2472
P2A P 0.58441(18) -0.86266(18) -0.32960(11)
H2A H 0.6476 -0.7552 -0.2813
Ag1A_2 Ag 0.43769(5) -0.75222(5) -0.40494(3)
C19A C 0.7151(7) -0.9263(7) -0.3677(4)
C25A C 0.5648(7) -0.9661(7) -0.2920(4)
P1A_2 P 0.44668(18) -0.82546(18) -0.50206(11)
P4A P 0.36818(18) -0.57603(18) -0.36659(10)
C20A C 0.7303(7) -1.0077(8) -0.4021(4)
C24A C 0.7967(8) -0.8898(8) -0.3712(5)
C26A C 0.6507(8) -1.0494(8) -0.2609(4)
C30A C 0.4582(8) -0.9599(8) -0.2920(5)
H4A H 0.3686 -0.5431 -0.2631
C43A C 0.2453(7) -0.4669(7) -0.4001(4)
C53A C 0.4755(7) -0.5335(7) -0.3688(4)
C29A C 0.4398(10) -1.0347(10) -0.2636(5)
H26A H 0.3987 -0.9024 -0.3121
H22A H 0.7232 -1.0542 -0.2599
C27A C 0.6294(10) -1.1242(9) -0.2318(5)
C23A C 0.8854(8) -0.9362(9) -0.4067(5)
H21A H 0.7887 -0.8328 -0.3486
H17A H 0.6763 -1.0330 -0.4013
C21A C 0.8233(8) -1.0540(8) -0.4384(5)
H18A H 0.8333 -1.1114 -0.4612
C22A C 0.8996(8) -1.0169(8) -0.4410(5)
H20A H 0.9402 -0.9119 -0.4079
H19A H 0.9621 -1.0468 -0.4665
C28A C 0.5259(10) -1.1186(10) -0.2330(5)
H25A H 0.3675 -1.0305 -0.2643
H23A H 0.6877 -1.1810 -0.2105
H24A H 0.5125 -1.1716 -0.2131
C49A C 0.5840(7) -0.6043(8) -0.3842(4)
C52A C 0.4533(8) -0.4317(7) -0.3541(4)
C44A C 0.1689(7) -0.3847(7) -0.3695(4)
C48A C 0.2331(7) -0.4698(7) -0.4600(4)
C51A C 0.5434(9) -0.4065(8) -0.3550(5)
H45A H 0.3805 -0.3817 -0.3440
H42A H 0.5995 -0.6728 -0.3944
C50A C 0.6700(8) -0.5751(8) -0.3847(5)
H37A H 0.1772 -0.3822 -0.3277
C45A C 0.0806(7) -0.3064(7) -0.3998(5)
C47A C 0.1447(7) -0.3900(8) -0.4906(4)
H41A H 0.2858 -0.5270 -0.4810
H43A H 0.7436 -0.6234 -0.3948
C71A C 0.6459(8) -0.4760(8) -0.3704(5)
H44A H 0.5309 -0.3390 -0.3444
H38A H 0.0270 -0.2503 -0.3784
C46A C 0.0680(7) -0.3074(8) -0.4602(5)
H40A H 0.1370 -0.3923 -0.5325
H39A H 0.0073 -0.2518 -0.4808
H60A H 0.7037 -0.4557 -0.3715
Sb2 Sb 0.69358(6) -0.72795(6) 0.18671(3)
F7 F 0.8441(5) -0.7678(6) 0.1743(3)
F8 F 0.6654(7) -0.6929(7) 0.1056(4)
F9 F 0.6664(6) -0.5896(5) 0.1948(4)
F10 F 0.7181(8) -0.7561(7) 0.2663(4)
F11 F 0.7187(7) -0.8633(6) 0.1738(5)
F12 F 0.5418(6) -0.6864(6) 0.1977(4)
N1 N 0.0318(10) -0.9304(10) 0.2584(6)
C79 C -0.0389(11) -0.9832(12) 0.2672(8)
H67 H -0.0710 -0.9856 0.2287
H68 H -0.0988 -0.9446 0.2949
H69 H 0.0061 -1.0544 0.2837
O1 O 0.0214(10) -0.8628(9) 0.2897(5)
O2 O 0.1009(10) -0.9643(13) 0.2223(7)
loop_
_geom_bond_atom_site_label_1
_geom_bond_atom_site_label_2
_geom_bond_site_symmetry_1
_geom_bond_site_symmetry_2
Sb1 F1 1_555 1_555
Ag1 P1 1_555 1_555
Ag2 P3 1_555 1_555
P1 C1 1_555 1_555
C1 H1 1_555 1_555
P2 Ag1 1_555 1_555
C2 P2 1_555 1_555
H2 C2 1_555 1_555
P3 C3 1_555 1_555
C3 C2 1_555 1_555
H3 C3 1_555 1_555
P4 Ag1 1_555 1_555
C4 P4 1_555 1_555
H4 C4 1_555 1_555
P5 Ag2 1_555 1_555
C5 C4 1_555 1_555
H5 C5 1_555 1_555
P6 Ag2 1_555 1_555
C6 P6 1_555 1_555
H6 C6 1_555 1_555
C7 P1 1_555 1_555
C8 C7 1_555 1_555
H7 C8 1_555 1_555
C9 C8 1_555 1_555
H8 C9 1_555 1_555
C10 C9 1_555 1_555
H9 C10 1_555 1_555
C11 C10 1_555 1_555
H10 C11 1_555 1_555
C12 C7 1_555 1_555
H11 C12 1_555 1_555
C13 P1 1_555 1_555
C14 C13 1_555 1_555
H12 C14 1_555 1_555
C15 C14 1_555 1_555
H13 C15 1_555 1_555
C16 C15 1_555 1_555
H14 C16 1_555 1_555
C17 C16 1_555 1_555
H15 C17 1_555 1_555
C18 C13 1_555 1_555
H16 C18 1_555 1_555
C19 P2 1_555 1_555
C20 C19 1_555 1_555
H17 C20 1_555 1_555
C21 C20 1_555 1_555
H18 C21 1_555 1_555
C22 C21 1_555 1_555
H19 C22 1_555 1_555
C23 C22 1_555 1_555
H20 C23 1_555 1_555
C24 C19 1_555 1_555
H21 C24 1_555 1_555
C25 P2 1_555 1_555
C26 C25 1_555 1_555
H22 C26 1_555 1_555
C27 C26 1_555 1_555
H23 C27 1_555 1_555
C28 C27 1_555 1_555
H24 C28 1_555 1_555
C29 C28 1_555 1_555
H25 C29 1_555 1_555
C30 C25 1_555 1_555
H26 C30 1_555 1_555
C31 P3 1_555 1_555
C32 P3 1_555 1_555
C33 C31 1_555 1_555
H27 C33 1_555 1_555
C34 C32 1_555 1_555
H28 C34 1_555 1_555
C35 C33 1_555 1_555
H29 C35 1_555 1_555
C36 C34 1_555 1_555
H30 C36 1_555 1_555
C37 C35 1_555 1_555
H31 C37 1_555 1_555
C38 C36 1_555 1_555
H32 C38 1_555 1_555
C39 C37 1_555 1_555
H33 C39 1_555 1_555
C40 C38 1_555 1_555
H34 C40 1_555 1_555
C41 C31 1_555 1_555
H35 C41 1_555 1_555
C42 C32 1_555 1_555
H36 C42 1_555 1_555
C43 P4 1_555 1_555
C44 C43 1_555 1_555
H37 C44 1_555 1_555
C45 C44 1_555 1_555
H38 C45 1_555 1_555
C46 C45 1_555 1_555
H39 C46 1_555 1_555
C47 C46 1_555 1_555
H40 C47 1_555 1_555
C48 C43 1_555 1_555
H41 C48 1_555 1_555
C49 H42 1_555 1_555
C50 C49 1_555 1_555
H43 C50 1_555 1_555
C51 H44 1_555 1_555
C52 C51 1_555 1_555
H45 C52 1_555 1_555
C53 P4 1_555 1_555
C54 P5 1_555 1_555
C55 C54 1_555 1_555
H46 C55 1_555 1_555
C56 C55 1_555 1_555
H47 C56 1_555 1_555
C57 C56 1_555 1_555
H48 C57 1_555 1_555
C58 C57 1_555 1_555
H49 C58 1_555 1_555
C59 C54 1_555 1_555
H50 C59 1_555 1_555
C60 P5 1_555 1_555
C61 C60 1_555 1_555
H51 C61 1_555 1_555
C62 H52 1_555 1_555
C63 C62 1_555 1_555
H53 C63 1_555 1_555
C64 C60 1_555 1_555
H54 C64 1_555 1_555
C65 P6 1_555 1_555
C66 C65 1_555 1_555
H55 C66 1_555 1_555
C67 C66 1_555 1_555
H56 C67 1_555 1_555
C68 C67 1_555 1_555
H57 C68 1_555 1_555
C69 C68 1_555 1_555
H58 C69 1_555 1_555
C70 C65 1_555 1_555
H59 C70 1_555 1_555
C71 C50 1_555 1_555
H60 C71 1_555 1_555
C72 C61 1_555 1_555
H61 C72 1_555 1_555
C73 P6 1_555 1_555
C74 C73 1_555 1_555
H62 C74 1_555 1_555
C75 C74 1_555 1_555
H63 C75 1_555 1_555
C76 C75 1_555 1_555
H64 C76 1_555 1_555
C77 C76 1_555 1_555
H65 C77 1_555 1_555
C78 C73 1_555 1_555
H66 C78 1_555 1_555
F2 Sb1 1_555 1_555
F3 Sb1 1_555 1_555
F4 Sb1 1_555 1_555
F5 Sb1 1_555 1_555
F6 Sb1 1_555 1_555
Sb2 F7 1_555 1_555
F8 Sb2 1_555 1_555
F9 Sb2 1_555 1_555
F10 Sb2 1_555 1_555
F11 Sb2 1_555 1_555
F12 Sb2 1_555 1_555
N1 C79 1_555 1_555
C79 H67 1_555 1_555
H68 C79 1_555 1_555
H69 C79 1_555 1_555
O1 N1 1_555 1_555
O2 N1 1_555 1_555
C1A C1 1_555 1_555
C6A C6 1_555 1_555
P1A C1A 1_555 1_555
H1A C1A 1_555 1_555
P6A C6A 1_555 1_555
H6A C6A 1_555 1_555
Ag1A P1A 1_555 1_555
C7A P1A 1_555 1_555
C13A P1A 1_555 1_555
Ag2A P6A 1_555 1_555
C65A P6A 1_555 1_555
C73A P6A 1_555 1_555
C14A C13A 1_555 1_555
C18A C13A 1_555 1_555
C8A C7A 1_555 1_555
C12A C7A 1_555 1_555
C17A C18A 1_555 1_555
H16A C18A 1_555 1_555
H12A C14A 1_555 1_555
C15A C14A 1_555 1_555
H7A C8A 1_555 1_555
C9A C8A 1_555 1_555
C11A C12A 1_555 1_555
H11A C12A 1_555 1_555
C16A C17A 1_555 1_555
H15A C17A 1_555 1_555
H13A C15A 1_555 1_555
H8A C9A 1_555 1_555
C10A C9A 1_555 1_555
H10A C11A 1_555 1_555
H14A C16A 1_555 1_555
H9A C10A 1_555 1_555
C74A C73A 1_555 1_555
C78A C73A 1_555 1_555
C66A C65A 1_555 1_555
C70A C65A 1_555 1_555
H62A C74A 1_555 1_555
C75A C74A 1_555 1_555
C77A C78A 1_555 1_555
H66A C78A 1_555 1_555
C69A C70A 1_555 1_555
H59A C70A 1_555 1_555
H55A C66A 1_555 1_555
C67A C66A 1_555 1_555
C76A C75A 1_555 1_555
H65A C77A 1_555 1_555
H63A C75A 1_555 1_555
C68A C69A 1_555 1_555
H58A C69A 1_555 1_555
H56A C67A 1_555 1_555
H64A C76A 1_555 1_555
H57A C68A 1_555 1_555
P3A Ag2A 1_555 1_555
P5A Ag2A 1_555 1_555
C3A P3A 1_555 1_555
C31A P3A 1_555 1_555
C32A P3A 1_555 1_555
C5A P5A 1_555 1_555
C54A P5A 1_555 1_555
C60A P5A 1_555 1_555
C2A C3A 1_555 1_555
H3A C3A 1_555 1_555
C33A C31A 1_555 1_555
C41A C31A 1_555 1_555
C34A C32A 1_555 1_555
C42A C32A 1_555 1_555
C4A C5A 1_555 1_555
H5A C5A 1_555 1_555
C55A C54A 1_555 1_555
C59A C54A 1_555 1_555
C61A C60A 1_555 1_555
C64A C60A 1_555 1_555
C40A C42A 1_555 1_555
H36A C42A 1_555 1_555
H28A C34A 1_555 1_555
C36A C34A 1_555 1_555
C39A C41A 1_555 1_555
H35A C41A 1_555 1_555
H27A C33A 1_555 1_555
C35A C33A 1_555 1_555
H46A C55A 1_555 1_555
C56A C55A 1_555 1_555
C58A C59A 1_555 1_555
H50A C59A 1_555 1_555
H51A C61A 1_555 1_555
C72A C61A 1_555 1_555
C63A C64A 1_555 1_555
H54A C64A 1_555 1_555
C38A C40A 1_555 1_555
H34A C40A 1_555 1_555
H30A C36A 1_555 1_555
H47A C56A 1_555 1_555
C57A C56A 1_555 1_555
H49A C58A 1_555 1_555
C62A C72A 1_555 1_555
H53A C63A 1_555 1_555
H61A C72A 1_555 1_555
H32A C38A 1_555 1_555
H52A C62A 1_555 1_555
H48A C57A 1_555 1_555
C37A C39A 1_555 1_555
H33A C39A 1_555 1_555
H29A C35A 1_555 1_555
H31A C37A 1_555 1_555
P2A C2A 1_555 1_555
H2A C2A 1_555 1_555
Ag1A_2 P2A 1_555 1_555
C19A P2A 1_555 1_555
C25A P2A 1_555 1_555
P1A_2 Ag1A_2 1_555 1_555
P4A C4A 1_555 1_555
C20A C19A 1_555 1_555
C24A C19A 1_555 1_555
C26A C25A 1_555 1_555
C30A C25A 1_555 1_555
H4A C4A 1_555 1_555
C43A P4A 1_555 1_555
C53A P4A 1_555 1_555
C29A C30A 1_555 1_555
H26A C30A 1_555 1_555
H22A C26A 1_555 1_555
C27A C26A 1_555 1_555
C23A C24A 1_555 1_555
H21A C24A 1_555 1_555
H17A C20A 1_555 1_555
C21A C20A 1_555 1_555
H18A C21A 1_555 1_555
C22A C23A 1_555 1_555
H20A C23A 1_555 1_555
H19A C22A 1_555 1_555
C28A C29A 1_555 1_555
H25A C29A 1_555 1_555
H23A C27A 1_555 1_555
H24A C28A 1_555 1_555
C49A C53A 1_555 1_555
C52A C53A 1_555 1_555
C44A C43A 1_555 1_555
C48A C43A 1_555 1_555
C51A C52A 1_555 1_555
H45A C52A 1_555 1_555
H42A C49A 1_555 1_555
C50A C49A 1_555 1_555
H37A C44A 1_555 1_555
C45A C44A 1_555 1_555
C47A C48A 1_555 1_555
H41A C48A 1_555 1_555
H43A C50A 1_555 1_555
C71A C51A 1_555 1_555
H44A C51A 1_555 1_555
H38A C45A 1_555 1_555
C46A C45A 1_555 1_555
H40A C47A 1_555 1_555
H39A C46A 1_555 1_555
H60A C71A 1_555 1_555
P5 C5 1_555 1_555
C11 C12 1_555 1_555
C17 C18 1_555 1_555
C23 C24 1_555 1_555
C29 C30 1_555 1_555
C39 C41 1_555 1_555
C40 C42 1_555 1_555
C47 C48 1_555 1_555
C49 C53 1_555 1_555
C51 C71 1_555 1_555
C52 C53 1_555 1_555
C58 C59 1_555 1_555
C62 C72 1_555 1_555
C63 C64 1_555 1_555
C69 C70 1_555 1_555
C77 C78 1_555 1_555
C15A C16A 1_555 1_555
C11A C10A 1_555 1_555
C77A C76A 1_555 1_555
C67A C68A 1_555 1_555
C36A C38A 1_555 1_555
C35A C37A 1_555 1_555
C58A C57A 1_555 1_555
C63A C62A 1_555 1_555
Ag1A_2 P4A 1_555 1_555
C27A C28A 1_555 1_555
C21A C22A 1_555 1_555
C50A C71A 1_555 1_555
C47A C46A 1_555 1_555

#END
