
#######################################################################
#
#                 Cambridge Crystallographic Data Centre
#                                CCDC 
#
#######################################################################
#
# If this CIF has been generated from an entry in the Cambridge 
# Structural Database, then it will include bibliographic, chemical, 
# crystal, experimental, refinement or atomic coordinate data resulting 
# from the CCDC's data processing and validation procedures.
#
#######################################################################

data_IBOSUN
_symmetry_cell_setting           monoclinic
_symmetry_space_group_name_H-M   'P 21/c'
_symmetry_Int_Tables_number      14
_space_group_name_Hall           '-P 2ybc'
loop_
_symmetry_equiv_pos_site_id
_symmetry_equiv_pos_as_xyz
1 x,y,z
2 x,1/2-y,1/2+z
3 -x,-y,-z
4 -x,1/2+y,1/2-z
_cell_length_a                   5.1971(6)
_cell_length_b                   7.6972(9)
_cell_length_c                   17.336(2)
_cell_angle_alpha                90.00
_cell_angle_beta                 90.618(2)
_cell_angle_gamma                90.00
_cell_volume                     693.454
loop_
_atom_site_label
_atom_site_type_symbol
_atom_site_fract_x
_atom_site_fract_y
_atom_site_fract_z
Zn1 Zn -0.3134(2) -0.36421(11) 0.41980(5)
P1 P -0.8172(4) -0.2623(3) 0.50949(12)
O1 O -0.6697(11) -0.3129(8) 0.4393(3)
O2 O -0.7918(12) -0.3941(7) 0.5745(3)
O3 O -1.0968(10) -0.2247(7) 0.4881(3)
O4 O -0.7065(11) -0.0912(7) 0.5472(4)
H1 H -0.7158(11) -0.0095(7) 0.5152(4)
N1 N -0.2536(14) -0.3079(9) 0.3096(4)
N2 N -0.0788(16) -0.2197(11) 0.2012(4)
H2 H 0.0282(16) -0.1693(11) 0.1692(4)
C1 C -0.2934(20) -0.3090(14) 0.1818(6)
H3 H -0.3556(20) -0.3301(14) 0.1309(6)
C2 C -0.0585(18) -0.2220(12) 0.2794(5)
H4 H 0.0767(18) -0.1693(12) 0.3084(5)
C3 C -0.4013(19) -0.3616(12) 0.2462(6)
H5 H -0.5564(19) -0.4264(12) 0.2490(6)
O2B O -0.2082(12) -0.6059(7) 0.4255(3)
O3_2 O -0.0968(10) -0.2247(7) 0.4881(3)
Zn1_2 Zn -1.3134(2) -0.36421(11) 0.41980(5)
Zn1B Zn -0.6866(2) -0.63579(11) 0.58020(5)
loop_
_geom_bond_atom_site_label_1
_geom_bond_atom_site_label_2
_geom_bond_site_symmetry_1
_geom_bond_site_symmetry_2
Zn1 O1 1_555 1_555
P1 O1 1_555 1_555
O2 P1 1_555 1_555
O3 P1 1_555 1_555
O4 P1 1_555 1_555
H1 O4 1_555 1_555
N1 Zn1 1_555 1_555
N2 H2 1_555 1_555
C1 N2 1_555 1_555
H3 C1 1_555 1_555
C2 N1 1_555 1_555
H4 C2 1_555 1_555
C3 N1 1_555 1_555
H5 C3 1_555 1_555
O2B Zn1 1_555 1_555
O3_2 Zn1 1_555 1_555
Zn1_2 O3 1_555 1_555
Zn1B O2 1_555 1_555
N2 C2 1_555 1_555
C1 C3 1_555 1_555

#END
