
#######################################################################
#
#                 Cambridge Crystallographic Data Centre
#                                CCDC 
#
#######################################################################
#
# If this CIF has been generated from an entry in the Cambridge 
# Structural Database, then it will include bibliographic, chemical, 
# crystal, experimental, refinement or atomic coordinate data resulting 
# from the CCDC's data processing and validation procedures.
#
#######################################################################

data_IBOVEB01
_symmetry_cell_setting           monoclinic
_symmetry_space_group_name_H-M   'P 21/n'
_symmetry_Int_Tables_number      14
_space_group_name_Hall           '-P 2yn'
loop_
_symmetry_equiv_pos_site_id
_symmetry_equiv_pos_as_xyz
1 x,y,z
2 1/2-x,1/2+y,1/2-z
3 -x,-y,-z
4 1/2+x,1/2-y,1/2+z
_cell_length_a                   6.9274(4)
_cell_length_b                   10.2564(5)
_cell_length_c                   14.1303(7)
_cell_angle_alpha                90
_cell_angle_beta                 99.021(2)
_cell_angle_gamma                90
_cell_volume                     991.542
loop_
_atom_site_label
_atom_site_type_symbol
_atom_site_fract_x
_atom_site_fract_y
_atom_site_fract_z
Ni1 Ni 0.70253(3) 0.23173(2) 0.845017(15)
N1 N 0.9265(2) 0.15172(14) 0.94331(10)
H1 H 0.8760 0.1116 0.9905
H2 H 0.9922 0.0921 0.9141
C1 C 1.0610(3) 0.2563(2) 0.98402(15)
H3 H 1.1867 0.2194 1.0108
H4 H 1.0081 0.3007 1.0349
C2 C 0.1188(3) -0.11610(18) 0.80076(13)
N2 N 0.8401(2) 0.16717(16) 0.73316(11)
C3 C 0.9413(3) 0.14721(17) 0.67785(13)
N3 N 0.5319(2) 0.06191(17) 0.84492(12)
N4 N 0.0089(2) -0.17646(16) 0.74944(11)
C4 C 0.3893(3) 0.00751(18) 0.85136(12)
N5 N 0.2293(2) -0.04986(17) 0.86822(11)
C5 C 1.0856(3) 0.3519(2) 0.90498(16)
H5 H 1.1618 0.4264 0.9315
H6 H 1.1539 0.3104 0.8582
N6 N 1.0662(3) 0.1131(2) 0.62319(15)
N7 N 1.0875(2) 0.19900(17) 0.46374(12)
C6 C 1.0680(3) 0.16290(18) 0.53842(14)
N8 N 0.8896(2) 0.39501(15) 0.85865(11)
H7 H 0.8964 0.4289 0.8005
H8 H 0.8435 0.4567 0.8945
Ni1A Ni -0.20253(3) -0.26827(2) 0.654983(15)
Ni1C Ni 1.20253(3) 0.26827(2) 0.345017(15)
N4A N 0.4911(2) 0.32354(16) 0.75056(11)
N7C N 0.5875(2) 0.30100(17) 0.96374(12)
loop_
_geom_bond_atom_site_label_1
_geom_bond_atom_site_label_2
_geom_bond_site_symmetry_1
_geom_bond_site_symmetry_2
Ni1 N1 1_555 1_555
N1 H1 1_555 1_555
H2 N1 1_555 1_555
C1 N1 1_555 1_555
H3 C1 1_555 1_555
H4 C1 1_555 1_555
C2 N4 1_555 1_555
N2 Ni1 1_555 1_555
C3 N2 1_555 1_555
N3 Ni1 1_555 1_555
N4 Ni1A 1_555 1_555
C4 N3 1_555 1_555
N5 C2 1_555 1_555
C5 C1 1_555 1_555
H5 C5 1_555 1_555
H6 C5 1_555 1_555
N6 C3 1_555 1_555
N7 C6 1_555 1_555
C6 N6 1_555 1_555
N8 Ni1 1_555 1_555
H7 N8 1_555 1_555
H8 N8 1_555 1_555
Ni1C N7 1_555 1_555
N4A Ni1 1_555 1_555
N7C Ni1 1_555 1_555
C4 N5 1_555 1_555
C5 N8 1_555 1_555

#END
