
#######################################################################
#
#                 Cambridge Crystallographic Data Centre
#                                CCDC 
#
#######################################################################
#
# If this CIF has been generated from an entry in the Cambridge 
# Structural Database, then it will include bibliographic, chemical, 
# crystal, experimental, refinement or atomic coordinate data resulting 
# from the CCDC's data processing and validation procedures.
#
#######################################################################

data_IBOVEB
_symmetry_cell_setting           monoclinic
_symmetry_space_group_name_H-M   'P 21/n'
_symmetry_Int_Tables_number      14
_space_group_name_Hall           '-P 2yn'
loop_
_symmetry_equiv_pos_site_id
_symmetry_equiv_pos_as_xyz
1 x,y,z
2 1/2+x,1/2-y,1/2+z
3 -x,-y,-z
4 1/2-x,1/2+y,1/2-z
_cell_length_a                   6.9430(11)
_cell_length_b                   10.4153(17)
_cell_length_c                   14.132(2)
_cell_angle_alpha                90
_cell_angle_beta                 98.381(3)
_cell_angle_gamma                90
_cell_volume                     1011.02
loop_
_atom_site_label
_atom_site_type_symbol
_atom_site_fract_x
_atom_site_fract_y
_atom_site_fract_z
Ni1 Ni 0.19653(16) 0.22860(11) 0.84336(8)
N1 N 0.0239(13) 0.0617(8) 0.8422(6)
N2 N -0.2717(13) -0.0533(8) 0.8666(6)
N3 N -0.4891(12) -0.1786(8) 0.7485(6)
N4 N 0.0848(11) 0.2953(8) 0.9618(6)
N5 N 0.0419(18) 0.3917(10) 1.1162(8)
N6 N -0.1690(12) 0.3345(8) 1.2304(6)
N7 N 0.4168(10) 0.1455(7) 0.9387(5)
H1 H 0.3659 0.1063 0.9861
H2 H 0.4798 0.0863 0.9084
H3 H 0.3931 0.4197 0.7987
H4 H 0.3359 0.4488 0.8918
H5 H 0.6792 0.2081 1.0024
H6 H 0.5051 0.2863 1.0333
H7 H 0.6464 0.4184 0.9332
H8 H 0.6477 0.3089 0.8569
N8 N 0.3844(11) 0.3883(7) 0.8569(6)
C1 C -0.1180(17) 0.0040(9) 0.8481(7)
C2 C -0.3804(17) -0.1191(10) 0.8000(7)
C3 C 0.0597(15) 0.3349(11) 1.0359(10)
C4 C -0.0743(17) 0.3568(9) 1.1740(8)
C5 C 0.5529(16) 0.2460(13) 0.9784(8)
C6 C 0.5739(18) 0.3454(12) 0.9044(9)
N3C N -0.0109(12) 0.3214(8) 0.7515(6)
N6A N 0.3310(12) 0.1655(8) 0.7304(6)
Ni1C Ni -0.69653(16) -0.27140(11) 0.65664(8)
Ni1A Ni -0.30347(16) 0.27140(11) 1.34336(8)
loop_
_geom_bond_atom_site_label_1
_geom_bond_atom_site_label_2
_geom_bond_site_symmetry_1
_geom_bond_site_symmetry_2
Ni1 N1 1_555 1_555
N1 C1 1_555 1_555
N2 C1 1_555 1_555
N3 C2 1_555 1_555
N4 Ni1 1_555 1_555
N5 C3 1_555 1_555
N6 C4 1_555 1_555
N7 Ni1 1_555 1_555
H1 N7 1_555 1_555
H2 N7 1_555 1_555
H3 N8 1_555 1_555
H4 N8 1_555 1_555
H5 C5 1_555 1_555
H6 C5 1_555 1_555
H7 C6 1_555 1_555
H8 C6 1_555 1_555
N8 Ni1 1_555 1_555
C2 N2 1_555 1_555
C3 N4 1_555 1_555
C4 N5 1_555 1_555
C5 N7 1_555 1_555
C6 N8 1_555 1_555
N3C Ni1 1_555 1_555
N6A Ni1 1_555 1_555
Ni1C N3 1_555 1_555
Ni1A N6 1_555 1_555
C5 C6 1_555 1_555

#END
