
#######################################################################
#
#                 Cambridge Crystallographic Data Centre
#                                CCDC 
#
#######################################################################
#
# If this CIF has been generated from an entry in the Cambridge 
# Structural Database, then it will include bibliographic, chemical, 
# crystal, experimental, refinement or atomic coordinate data resulting 
# from the CCDC's data processing and validation procedures.
#
#######################################################################

data_IBOWIH
_symmetry_cell_setting           trigonal
_symmetry_space_group_name_H-M   'P 31 2 1'
_symmetry_Int_Tables_number      152
_space_group_name_Hall           'P 31 2"'
loop_
_symmetry_equiv_pos_site_id
_symmetry_equiv_pos_as_xyz
1 x,y,z
2 -y,x-y,1/3+z
3 -x+y,-x,2/3+z
4 y,x,-z
5 x-y,-y,2/3-z
6 -x,-x+y,1/3-z
_cell_length_a                   13.37139(6)
_cell_length_b                   13.37139(6)
_cell_length_c                   41.4227(2)
_cell_angle_alpha                90
_cell_angle_beta                 90
_cell_angle_gamma                120
_cell_volume                     6413.9
loop_
_atom_site_label
_atom_site_type_symbol
_atom_site_fract_x
_atom_site_fract_y
_atom_site_fract_z
Zn1 Zn 0.64164(3) 0.30738(3) 0.749501(7)
N1 N 0.69894(19) 0.21626(19) 0.77836(5)
H1 H 0.7756(4) 0.251(2) 0.7750(7)
H2 H 0.661(2) 0.1413(7) 0.7726(7)
C1 C 0.6700(2) 0.2146(2) 0.81292(5)
H3 H 0.6441 0.1360 0.8220
C2 C 0.5718(2) 0.2419(2) 0.81614(6)
O1 O 0.54416(16) 0.28391(17) 0.79316(4)
N2 N 0.5235(2) 0.2211(2) 0.84523(5)
H4 H 0.538(4) 0.184(3) 0.8611(7)
C3 C 0.4439(2) 0.2512(2) 0.85822(6)
C4 C 0.3992(4) 0.2079(4) 0.88840(8)
H5 H 0.4199 0.1578 0.8990
C5 C 0.3243(3) 0.2370(3) 0.90337(8)
H6 H 0.2936 0.2065 0.9241
C6 C 0.2944(2) 0.3101(2) 0.88818(6)
C7 C 0.3392(3) 0.3542(3) 0.85827(7)
H7 H 0.3194 0.4052 0.8479
C8 C 0.4135(3) 0.3244(3) 0.84313(7)
H8 H 0.4434 0.3545 0.8223
N3 N 0.2150(2) 0.33655(19) 0.90390(5)
H9 H 0.1558(18) 0.2732(16) 0.9128(7)
C9 C 0.2332(2) 0.4435(2) 0.90786(6)
O2 O 0.32302(16) 0.53182(16) 0.89979(4)
C10 C 0.1319(2) 0.4526(2) 0.92200(6)
H10 H 0.0871 0.3878 0.9375
N4 N 0.18097(18) 0.5642(2) 0.93880(5)
H11 H 0.131(2) 0.590(3) 0.9407(8)
H12 H 0.206(3) 0.563(3) 0.9589(3)
C11 C 0.7753(2) 0.3041(3) 0.83186(6)
H13 H 0.8003 0.3821 0.8232
H14 H 0.7536 0.3029 0.8548
C12 C 0.8742(3) 0.2805(3) 0.82981(6)
C13 C 0.9735(3) 0.3538(4) 0.81274(8)
H15 H 0.9796 0.4193 0.8020
C14 C 1.0639(4) 0.3312(5) 0.81148(11)
H16 H 1.1323 0.3822 0.8000
C15 C 1.0559(4) 0.2368(5) 0.82643(12)
H17 H 1.1182 0.2219 0.8252
C16 C 0.9576(4) 0.1628(4) 0.84341(11)
H18 H 0.9523 0.0973 0.8540
C17 C 0.8670(3) 0.1845(3) 0.84501(8)
H19 H 0.7991 0.1332 0.8566
C18 C 0.0543(2) 0.4471(2) 0.89392(6)
H20 H 0.1006 0.5105 0.8786
H21 H 0.0262 0.3732 0.8823
C19 C -0.0474(2) 0.4569(2) 0.90499(6)
C20 C -0.1489(3) 0.3593(3) 0.91434(6)
H22 H -0.1536 0.2860 0.9138
C21 C -0.2437(3) 0.3673(3) 0.92441(7)
H23 H -0.3133 0.2995 0.9302
C22 C -0.2366(3) 0.4742(3) 0.92596(8)
H24 H -0.3016 0.4796 0.9327
C23 C -0.1358(3) 0.5723(3) 0.91771(8)
H25 H -0.1301 0.6458 0.9195
C24 C -0.0412(3) 0.5636(3) 0.90666(7)
H26 H 0.0276 0.6313 0.9003
N5 N 0.51581(17) 0.15758(19) 0.72351(5)
H27 H 0.469(2) 0.177(3) 0.7132(7)
H28 H 0.473(2) 0.1001(19) 0.7374(6)
C25 C 0.57025(19) 0.1168(2) 0.69971(5)
H29 H 0.5716 0.0490 0.7094
C26 C 0.6959(2) 0.2119(2) 0.69441(5)
O3 O 0.73721(15) 0.30568(15) 0.70845(4)
N6 N 0.75893(18) 0.18397(19) 0.67536(5)
H30 H 0.725(3) 0.1102(10) 0.6686(9)
C27 C 0.8811(2) 0.2511(2) 0.67104(6)
C28 C 0.9406(3) 0.1919(3) 0.66885(15)
H31 H 0.9001 0.1100 0.6703
C29 C 0.9405(3) 0.3685(3) 0.66890(9)
H32 H 0.9002 0.4101 0.6705
C30 C 0.4997(2) 0.0754(2) 0.66810(6)
H33 H 0.4883 0.1381 0.6595
H34 H 0.5439 0.0588 0.6519
C31 C 0.3829(2) -0.0318(2) 0.67301(6)
C32 C 0.2824(2) -0.0328(3) 0.66384(7)
H35 H 0.2866 0.0356 0.6557
C33 C 0.1748(3) -0.1341(3) 0.66660(8)
H36 H 0.1065 -0.1340 0.6603
C34 C 0.1680(3) -0.2329(3) 0.67836(8)
H37 H 0.0949 -0.3014 0.6801
C35 C 0.2669(3) -0.2339(3) 0.68778(7)
H38 H 0.2617 -0.3029 0.6958
C36 C 0.3739(3) -0.1337(3) 0.68538(6)
H39 H 0.4415 -0.1342 0.6922
Zn1D Zn 1.33426(4) 0.69262(3) 0.917166(7)
Zn1D_2 Zn 0.33426(4) 0.69262(3) 0.917166(7)
Zn1E Zn 1.35836(3) 0.66574(4) 0.583832(7)
N1D N 1.48268(27) 0.78374(19) 0.88831(5)
H1D H 1.5246(20) 0.749(2) 0.8917(7)
H2D H 1.5197(21) 0.8587(7) 0.8941(7)
C1D C 1.4554(3) 0.7854(2) 0.85375(5)
H3D H 1.5081 0.8640 0.8447
C2D C 1.3299(3) 0.7581(2) 0.85053(6)
O1D O 1.26025(23) 0.71609(17) 0.87351(4)
N2D N 1.3024(3) 0.7789(2) 0.82144(5)
H4D H 1.354(5) 0.816(3) 0.8056(7)
C3D C 1.1927(3) 0.7488(2) 0.80845(6)
C4D C 1.1913(6) 0.7921(4) 0.77827(8)
H5D H 1.2621 0.8422 0.7677
C5D C 1.0873(4) 0.7630(3) 0.76330(8)
H6D H 1.0871 0.7935 0.7426
C6D C 0.9843(3) 0.6899(2) 0.77849(6)
C7D C 0.9850(4) 0.6458(3) 0.80840(7)
H7D H 0.9142 0.5948 0.8188
C8D C 1.0891(4) 0.6756(3) 0.82354(7)
H8D H 1.0889 0.6455 0.8444
N3D N 0.87845(28) 0.66345(19) 0.76277(5)
H9D H 0.8826(24) 0.7268(16) 0.7539(7)
C9D C 0.7897(3) 0.5565(2) 0.75881(6)
O2D O 0.79120(23) 0.46818(16) 0.76688(4)
O2_2 O 1.32302(16) 0.53182(16) 0.89979(4)
C10D C 0.6793(3) 0.5474(2) 0.74467(6)
H10D H 0.6993 0.6122 0.7292
N4D N 0.61677(27) 0.4358(2) 0.72787(5)
N4_2 N 1.18097(18) 0.5642(2) 0.93880(5)
H11D H 0.541(4) 0.410(3) 0.7260(8)
H11_2 H 1.131(2) 0.590(3) 0.9407(8)
H12D H 0.643(4) 0.437(3) 0.7078(3)
H12_2 H 1.206(3) 0.563(3) 0.9589(3)
C11D C 1.4712(4) 0.6959(3) 0.83481(6)
H13D H 1.4182 0.6179 0.8435
H14D H 1.4507 0.6971 0.8119
C12D C 1.5937(4) 0.7195(3) 0.83686(6)
C13D C 1.6197(5) 0.6462(4) 0.85393(8)
H15D H 1.5603 0.5807 0.8647
C14D C 1.7327(6) 0.6688(5) 0.85519(11)
H16D H 1.7501 0.6178 0.8667
C15D C 1.8191(6) 0.7632(5) 0.84024(12)
H17D H 1.8963 0.7781 0.8415
C16D C 1.7948(6) 0.8372(4) 0.82326(11)
H18D H 1.8550 0.9027 0.8127
C17D C 1.6825(4) 0.8155(3) 0.82166(8)
H19D H 1.6659 0.8668 0.8101
C18D C 0.6072(3) 0.5529(2) 0.77275(6)
H20D H 0.5901 0.4895 0.7881
H21D H 0.6530 0.6268 0.7844
C19D C 0.4957(3) 0.5431(2) 0.76168(6)
C20D C 0.4918(4) 0.6407(3) 0.75233(6)
H22D H 0.5604 0.7140 0.7529
C21D C 0.3890(4) 0.6327(3) 0.74226(7)
H23D H 0.3872 0.7005 0.7365
C22D C 0.2892(4) 0.5258(3) 0.74071(8)
H24D H 0.2188 0.5204 0.7340
C23D C 0.2919(4) 0.4277(3) 0.74896(8)
H25D H 0.2241 0.3542 0.7472
C24D C 0.3952(4) 0.4364(3) 0.76001(7)
H26D H 0.3963 0.3687 0.7664
N5E N 1.48419(17) 0.64177(25) 0.60982(5)
N5D N 1.35823(25) 0.84242(19) 0.94316(5)
H27E H 1.531(2) 0.708(4) 0.6201(7)
H27D H 1.292(4) 0.823(3) 0.9535(7)
H28E H 1.527(2) 0.6271(28) 0.5959(6)
H28D H 1.3729(28) 0.8999(19) 0.9293(6)
C25E C 1.42975(19) 0.54655(28) 0.63362(5)
H29E H 1.4284 0.4774 0.6239
C26E C 1.3041(2) 0.5160(3) 0.63892(5)
O3E O 1.26279(15) 0.56847(21) 0.62488(4)
O3D O 1.43153(21) 0.69432(15) 0.95822(4)
N6E N 1.24107(18) 0.42504(26) 0.65797(5)
H30E H 1.275(3) 0.3852(32) 0.6647(9)
C27E C 1.1189(2) 0.3700(3) 0.66229(6)
C28E C 1.0594(3) 0.2513(4) 0.66448(15)
H31E H 1.0999 0.2099 0.6630
C29E C 1.0595(3) 0.4280(4) 0.66443(9)
H32E H 1.0998 0.5099 0.6628
C30E C 1.5003(2) 0.5757(3) 0.66523(6)
H33E H 1.5117 0.6498 0.6738
H34E H 1.4561 0.5149 0.6814
C31E C 1.6171(2) 0.5853(3) 0.66032(6)
C32E C 1.7176(2) 0.6848(4) 0.66949(7)
H35E H 1.7134 0.7490 0.6776
C33E C 1.8252(3) 0.6911(4) 0.66673(8)
H36E H 1.8935 0.7595 0.6730
C34E C 1.8320(3) 0.5991(4) 0.65497(8)
H37E H 1.9051 0.6037 0.6532
C35E C 1.7331(3) 0.4992(4) 0.64555(7)
H38E H 1.7383 0.4354 0.6375
C36E C 1.6261(3) 0.4924(4) 0.64795(6)
H39E H 1.5585 0.4243 0.6411
Br1 Br 0.65339(3) -0.08879(3) 0.647562(8)
Br2 Br 0.51844(3) -0.06362(2) 0.770465(7)
O4 O 0.7296(3) -0.0639(3) 0.72608(7)
O5 O 0.0279(3) 0.1333(2) 0.92965(8)
O6 O 0.0897(9) -0.0480(9) 0.9319(2)
C37 C 0.136(2) -0.080(2) 0.9058(4)
H40 H 0.0979 -0.1652 0.9049
H41 H 0.2195 -0.0497 0.9097
C38 C 0.122(2) -0.036(2) 0.8740(4)
H42 H 0.1579 -0.0585 0.8570
H43 H 0.1585 0.0481 0.8748
H44 H 0.0393 -0.0695 0.8693
C39? C 0.143(2) -0.099(3) 0.8924(7)
C40? C 0.131(7) -0.087(10) 0.8569(7)
H45? H 0.1371 -0.1742 0.8970
H46? H 0.2198 -0.0372 0.8997
H47? H 0.1911 -0.0955 0.8455
H48? H 0.1407 -0.0113 0.8523
H49? H 0.0550 -0.1477 0.8497
O7? O 0.056(2) -0.091(3) 0.9098(7)
loop_
_geom_bond_atom_site_label_1
_geom_bond_atom_site_label_2
_geom_bond_site_symmetry_1
_geom_bond_site_symmetry_2
Zn1 N1 1_555 1_555
N1 H1 1_555 1_555
H2 N1 1_555 1_555
C1 N1 1_555 1_555
H3 C1 1_555 1_555
C2 C1 1_555 1_555
O1 Zn1 1_555 1_555
N2 C2 1_555 1_555
H4 N2 1_555 1_555
C3 N2 1_555 1_555
C4 C3 1_555 1_555
H5 C4 1_555 1_555
C5 C4 1_555 1_555
H6 C5 1_555 1_555
C6 C5 1_555 1_555
C7 C6 1_555 1_555
H7 C7 1_555 1_555
C8 C3 1_555 1_555
H8 C8 1_555 1_555
N3 C6 1_555 1_555
H9 N3 1_555 1_555
C9 N3 1_555 1_555
O2 C9 1_555 1_555
C10 C9 1_555 1_555
H10 C10 1_555 1_555
N4 C10 1_555 1_555
H11 N4 1_555 1_555
H12 N4 1_555 1_555
C11 C1 1_555 1_555
H13 C11 1_555 1_555
H14 C11 1_555 1_555
C12 C11 1_555 1_555
C13 C12 1_555 1_555
H15 C13 1_555 1_555
C14 C13 1_555 1_555
H16 C14 1_555 1_555
C15 C14 1_555 1_555
H17 C15 1_555 1_555
C16 C15 1_555 1_555
H18 C16 1_555 1_555
C17 C12 1_555 1_555
H19 C17 1_555 1_555
C18 C10 1_555 1_555
H20 C18 1_555 1_555
H21 C18 1_555 1_555
C19 C18 1_555 1_555
C20 C19 1_555 1_555
H22 C20 1_555 1_555
C21 C20 1_555 1_555
H23 C21 1_555 1_555
C22 C21 1_555 1_555
H24 C22 1_555 1_555
C23 C22 1_555 1_555
H25 C23 1_555 1_555
C24 C19 1_555 1_555
H26 C24 1_555 1_555
N5 Zn1 1_555 1_555
H27 N5 1_555 1_555
H28 N5 1_555 1_555
C25 N5 1_555 1_555
H29 C25 1_555 1_555
C26 C25 1_555 1_555
O3 Zn1 1_555 1_555
N6 C26 1_555 1_555
H30 N6 1_555 1_555
C27 N6 1_555 1_555
C28 C27 1_555 1_555
H31 C28 1_555 1_555
C29 C27 1_555 1_555
H32 C29 1_555 1_555
C30 C25 1_555 1_555
H33 C30 1_555 1_555
H34 C30 1_555 1_555
C31 C30 1_555 1_555
C32 C31 1_555 1_555
H35 C32 1_555 1_555
C33 C32 1_555 1_555
H36 C33 1_555 1_555
C34 C33 1_555 1_555
H37 C34 1_555 1_555
C35 C34 1_555 1_555
H38 C35 1_555 1_555
C36 C31 1_555 1_555
H39 C36 1_555 1_555
O6 C37 1_555 1_555
C37 H40 1_555 1_555
H41 C37 1_555 1_555
C38 C37 1_555 1_555
H42 C38 1_555 1_555
H43 C38 1_555 1_555
H44 C38 1_555 1_555
Zn1D N1D 1_555 1_555
Zn1D_2 O2 1_555 1_555
Zn1E N5E 1_555 1_555
N1D H1D 1_555 1_555
H2D N1D 1_555 1_555
C1D N1D 1_555 1_555
H3D C1D 1_555 1_555
C2D C1D 1_555 1_555
O1D Zn1D 1_555 1_555
N2D C2D 1_555 1_555
H4D N2D 1_555 1_555
C3D N2D 1_555 1_555
C4D C3D 1_555 1_555
H5D C4D 1_555 1_555
C5D C4D 1_555 1_555
H6D C5D 1_555 1_555
C6D C5D 1_555 1_555
C7D C6D 1_555 1_555
H7D C7D 1_555 1_555
C8D C3D 1_555 1_555
H8D C8D 1_555 1_555
N3D C6D 1_555 1_555
H9D N3D 1_555 1_555
C9D N3D 1_555 1_555
O2D Zn1 1_555 1_555
O2_2 Zn1D 1_555 1_555
C10D C9D 1_555 1_555
H10D C10D 1_555 1_555
N4D Zn1 1_555 1_555
N4_2 Zn1D 1_555 1_555
H11D N4D 1_555 1_555
H11_2 N4_2 1_555 1_555
H12D N4D 1_555 1_555
H12_2 N4_2 1_555 1_555
C11D C1D 1_555 1_555
H13D C11D 1_555 1_555
H14D C11D 1_555 1_555
C12D C11D 1_555 1_555
C13D C12D 1_555 1_555
H15D C13D 1_555 1_555
C14D C13D 1_555 1_555
H16D C14D 1_555 1_555
C15D C14D 1_555 1_555
H17D C15D 1_555 1_555
C16D C15D 1_555 1_555
H18D C16D 1_555 1_555
C17D C12D 1_555 1_555
H19D C17D 1_555 1_555
C18D C10D 1_555 1_555
H20D C18D 1_555 1_555
H21D C18D 1_555 1_555
C19D C18D 1_555 1_555
C20D C19D 1_555 1_555
H22D C20D 1_555 1_555
C21D C20D 1_555 1_555
H23D C21D 1_555 1_555
C22D C21D 1_555 1_555
H24D C22D 1_555 1_555
C23D C22D 1_555 1_555
H25D C23D 1_555 1_555
C24D C19D 1_555 1_555
H26D C24D 1_555 1_555
N5E H27E 1_555 1_555
N5D Zn1D 1_555 1_555
H27D N5D 1_555 1_555
H28E N5E 1_555 1_555
H28D N5D 1_555 1_555
C25E N5E 1_555 1_555
H29E C25E 1_555 1_555
C26E C25E 1_555 1_555
O3E Zn1E 1_555 1_555
O3D Zn1D 1_555 1_555
N6E C26E 1_555 1_555
H30E N6E 1_555 1_555
C27E N6E 1_555 1_555
C28E C28 1_555 1_555
H31E C28E 1_555 1_555
C29E C29 1_555 1_555
H32E C29E 1_555 1_555
C30E C25E 1_555 1_555
H33E C30E 1_555 1_555
H34E C30E 1_555 1_555
C31E C30E 1_555 1_555
C32E C31E 1_555 1_555
H35E C32E 1_555 1_555
C33E C32E 1_555 1_555
H36E C33E 1_555 1_555
C34E C33E 1_555 1_555
H37E C34E 1_555 1_555
C35E C34E 1_555 1_555
H38E C35E 1_555 1_555
C36E C31E 1_555 1_555
H39E C36E 1_555 1_555
C2 O1 1_555 1_555
C7 C8 1_555 1_555
N4 Zn1D_2 1_555 1_555
C16 C17 1_555 1_555
C23 C24 1_555 1_555
C26 O3 1_555 1_555
C35 C36 1_555 1_555
C2D O1D 1_555 1_555
C7D C8D 1_555 1_555
C9D O2D 1_555 1_555
C10D N4D 1_555 1_555
C16D C17D 1_555 1_555
C23D C24D 1_555 1_555
C26E O3E 1_555 1_555
C27E C28E 1_555 1_555
C27E C29E 1_555 1_555
C35E C36E 1_555 1_555

#END
