
#######################################################################
#
#                 Cambridge Crystallographic Data Centre
#                                CCDC 
#
#######################################################################
#
# If this CIF has been generated from an entry in the Cambridge 
# Structural Database, then it will include bibliographic, chemical, 
# crystal, experimental, refinement or atomic coordinate data resulting 
# from the CCDC's data processing and validation procedures.
#
#######################################################################

data_IBOWUT
_symmetry_cell_setting           monoclinic
_symmetry_space_group_name_H-M   'C 2'
_symmetry_Int_Tables_number      5
_space_group_name_Hall           'C 2y'
loop_
_symmetry_equiv_pos_site_id
_symmetry_equiv_pos_as_xyz
1 x,y,z
2 -x,y,-z
3 1/2+x,1/2+y,z
4 1/2-x,1/2+y,-z
_cell_length_a                   39.030(2)
_cell_length_b                   11.8817(2)
_cell_length_c                   27.6330(13)
_cell_angle_alpha                90
_cell_angle_beta                 123.780(7)
_cell_angle_gamma                90
_cell_volume                     10651.2
loop_
_atom_site_label
_atom_site_type_symbol
_atom_site_fract_x
_atom_site_fract_y
_atom_site_fract_z
Br2 Br 0.755356(18) 0.85194(5) 0.78792(2)
Br3 Br 0.800695(18) 0.36004(5) 0.76053(3)
Br4 Br 0.848533(16) 0.78910(5) 0.32141(2)
Br5 Br 0.94887(2) 0.57203(9) 0.67986(3)
Br6 Br 0.59256(4) 0.28112(14) 0.08249(6)
Br7 Br 0.90688(4) 0.76721(13) 0.80360(5)
Zn1 Zn 0.257857(17) 0.67563(5) -0.14009(2)
Zn2 Zn 0.48711(2) 0.78284(9) 0.29769(3)
Zn3 Zn 0.775178(18) 0.67062(5) 0.66509(2)
Br1 Br 0.4490(2) 0.6278(7) 0.2925(3)
N1 N 0.20286(11) 0.5788(3) -0.19882(15)
C1 C 0.18125(14) 0.5480(4) -0.17059(17)
H1 H 0.1509 0.5477 -0.2007
C2 C 0.19078(13) 0.6373(4) -0.12482(18)
O1 O 0.22350(10) 0.6907(3) -0.10129(13)
N2 N 0.16312(12) 0.6486(3) -0.11237(16)
C3 C 0.16499(15) 0.7163(4) -0.0677(2)
C4 C 0.13410(17) 0.6989(5) -0.0581(2)
H2 H 0.1136 0.6433 -0.0796
C5 C 0.13355(17) 0.7634(5) -0.0170(2)
H3 H 0.1125 0.7511 -0.0102
C6 C 0.16261(13) 0.8445(4) 0.01413(18)
C7 C 0.19444(14) 0.8599(5) 0.0059(2)
H4 H 0.2152 0.9148 0.0279
C8 C 0.19561(15) 0.7940(5) -0.0350(2)
H5 H 0.2176 0.8028 -0.0402
N3 N 0.15937(12) 0.9084(3) 0.05469(16)
C9 C 0.18022(14) 1.0011(4) 0.08366(18)
O2 O 0.20777(10) 1.0439(3) 0.07981(13)
C10 C 0.16702(14) 1.0560(4) 0.1208(2)
H6 H 0.1587 0.9958 0.1377
N4 N 0.20331(13) 1.1157(3) 0.16856(16)
C11 C 0.19477(16) 0.4272(4) -0.1440(2)
H7 H 0.2240 0.4168 -0.1316
C12 C 0.16896(19) 0.3390(5) -0.1904(3)
H8 H 0.1778 0.2636 -0.1735
H9 H 0.1726 0.3472 -0.2226
H10 H 0.1398 0.3494 -0.2051
C13 C 0.19340(19) 0.4066(5) -0.0904(2)
H11 H 0.2024 0.3296 -0.0764
H12 H 0.1652 0.4172 -0.1008
H13 H 0.2118 0.4600 -0.0596
C14 C 0.13037(17) 1.1392(5) 0.0853(3)
H14 H 0.1418 1.2129 0.0830
C15 C 0.0983(2) 1.1010(8) 0.0240(3)
H15 H 0.0761 1.1568 0.0049
H16 H 0.0869 1.0284 0.0253
H17 H 0.1111 1.0929 0.0021
C16 C 0.11135(18) 1.1569(7) 0.1204(3)
H18 H 0.0882 1.2094 0.0996
H19 H 0.1322 1.1879 0.1587
H20 H 0.1015 1.0846 0.1253
N5 N 0.24164(12) 0.8348(3) -0.18514(15)
C17 C 0.26031(15) 0.9300(4) -0.1441(2)
H21 H 0.2663 0.9930 -0.1622
C18 C 0.29972(16) 0.8875(4) -0.09121(19)
O3 O 0.30164(10) 0.7890(3) -0.07429(12)
N6 N 0.33138(13) 0.9580(3) -0.06311(17)
C19 C 0.36894(16) 0.9349(4) -0.0095(2)
C20 C 0.40411(17) 0.9969(5) 0.0053(2)
H22 H 0.4025 1.0515 -0.0211
C21 C 0.44084(17) 0.9793(6) 0.0575(2)
H23 H 0.4644 1.0223 0.0672
C22 C 0.44396(18) 0.8992(5) 0.0964(2)
C23 C 0.40950(18) 0.8395(6) 0.0829(2)
H24 H 0.4113 0.7859 0.1097
C24 C 0.37265(18) 0.8572(6) 0.0309(2)
H25 H 0.3491 0.8155 0.0223
N7 N 0.48348(15) 0.8776(5) 0.1485(2)
C25 C 0.49047(17) 0.8333(5) 0.1975(2)
O4 O 0.46278(11) 0.8195(4) 0.20657(15)
C26 C 0.53470(17) 0.7952(8) 0.2415(3)
H26 H 0.5543 0.8510 0.2426
N8 N 0.54118(14) 0.7886(7) 0.3000(2)
C27 C 0.23125(18) 0.9712(5) -0.1265(2)
H27 H 0.2246 0.9063 -0.1101
C28 C 0.1913(3) 1.0154(9) -0.1797(4)
H28 H 0.1784 0.9560 -0.2093
H29 H 0.1974 1.0802 -0.1957
H30 H 0.1726 1.0383 -0.1685
C29 C 0.2507(2) 1.0650(7) -0.0809(3)
H31 H 0.2772 1.0391 -0.0471
H32 H 0.2322 1.0843 -0.0686
H33 H 0.2552 1.1315 -0.0977
C30 C 0.5433(3) 0.6763(9) 0.2266(4)
H34 H 0.5696 0.6494 0.2621
C31 C 0.5513(3) 0.6888(10) 0.1780(4)
H35 H 0.5575 0.6149 0.1690
H36 H 0.5747 0.7395 0.1911
H37 H 0.5267 0.7199 0.1430
C32 C 0.5105(4) 0.5868(10) 0.2123(6)
H38 H 0.5069 0.5813 0.2446
H39 H 0.5194 0.5139 0.2066
H40 H 0.4843 0.6082 0.1767
N9 N 0.4618(3) 0.9385(10) 0.2994(3)
C33 C 0.4714(2) 0.9611(9) 0.3580(3)
H41 H 0.4709 1.0443 0.3630
C34 C 0.51609(17) 0.9193(5) 0.3984(2)
O5 O 0.52650(11) 0.8314(3) 0.38878(15)
N10 N 0.54022(14) 0.9870(4) 0.4448(2)
C35 C 0.58263(15) 0.9732(5) 0.4879(2)
C36 C 0.59982(17) 1.0479(5) 0.5330(3)
H42 H 0.5830 1.1035 0.5345
C37 C 0.64107(16) 1.0439(5) 0.5763(2)
H43 H 0.6525 1.0980 0.6067
C38 C 0.66602(14) 0.9630(4) 0.5761(2)
C39 C 0.64865(18) 0.8863(5) 0.5305(2)
H44 H 0.6655 0.8302 0.5292
C40 C 0.60777(19) 0.8908(6) 0.4878(3)
H45 H 0.5962 0.8366 0.4574
N11 N 0.70866(12) 0.9671(4) 0.62069(17)
C41 C 0.73785(15) 0.8893(4) 0.63548(19)
O6 O 0.72971(9) 0.7939(3) 0.61164(12)
C42 C 0.78113(15) 0.9224(4) 0.6810(2)
H46 H 0.7807 0.9809 0.7067
N12 N 0.80282(12) 0.8215(3) 0.71640(16)
C43 C 0.4415(3) 0.9079(10) 0.3676(4)
H47 H 0.4341 0.8343 0.3466
C44 C 0.4011(3) 0.9719(14) 0.3407(5)
H48 H 0.3913 0.9938 0.3008
H49 H 0.4055 1.0395 0.3638
H50 H 0.3805 0.9237 0.3401
C45 C 0.4572(4) 0.8792(15) 0.4298(6)
H51 H 0.4829 0.8366 0.4472
H52 H 0.4366 0.8336 0.4306
H53 H 0.4622 0.9487 0.4519
C46 C 0.80402(17) 0.9708(5) 0.6541(2)
H54 H 0.8107 0.9075 0.6369
C47 C 0.7782(2) 1.0575(6) 0.6067(3)
H55 H 0.7937 1.0854 0.5910
H56 H 0.7717 1.1205 0.6233
H57 H 0.7525 1.0225 0.5755
C48 C 0.8440(2) 1.0258(6) 0.7018(4)
H58 H 0.8586 1.0561 0.6850
H59 H 0.8614 0.9696 0.7315
H60 H 0.8379 1.0870 0.7196
N13 N 0.83122(13) 0.5748(3) 0.70785(16)
C49 C 0.84442(12) 0.5500(4) 0.66733(18)
H61 H 0.8752 0.5473 0.6894
C50 C 0.82770(14) 0.6432(4) 0.62232(18)
O7 O 0.79428(10) 0.6898(3) 0.60607(13)
N14 N 0.84933(12) 0.6644(4) 0.59995(16)
C51 C 0.83720(15) 0.7295(4) 0.54925(18)
C52 C 0.86462(19) 0.7325(6) 0.5330(3)
H62 H 0.8902 0.6942 0.5558
C53 C 0.85527(19) 0.7910(6) 0.4834(2)
H63 H 0.8744 0.7922 0.4723
C54 C 0.81842(14) 0.8469(4) 0.45057(18)
C55 C 0.79096(16) 0.8429(6) 0.4666(2)
H64 H 0.7650 0.8796 0.4434
C56 C 0.80090(17) 0.7850(6) 0.5168(2)
H65 H 0.7820 0.7846 0.5283
N15 N 0.81046(13) 0.9049(3) 0.39989(17)
C57 C 0.78845(15) 0.9979(4) 0.37653(18)
O8 O 0.76670(10) 1.0405(3) 0.39262(13)
C58 C 0.79285(15) 1.0542(4) 0.33134(19)
H66 H 0.7975 0.9956 0.3096
N16 N 0.75303(13) 1.1131(3) 0.29049(15)
C59 C 0.82557(16) 0.4338(4) 0.6375(2)
H67 H 0.7980 0.4266 0.6317
C60 C 0.85314(19) 0.3409(5) 0.6786(3)
H68 H 0.8570 0.3512 0.7165
H69 H 0.8800 0.3440 0.6834
H70 H 0.8403 0.2677 0.6624
C61 C 0.8195(2) 0.4210(6) 0.5786(3)
H71 H 0.8021 0.4822 0.5529
H72 H 0.8063 0.3485 0.5614
H73 H 0.8464 0.4239 0.5835
C62 C 0.82936(16) 1.1411(5) 0.3591(3)
H74 H 0.8200 1.2117 0.3681
C63 C 0.8670(2) 1.0968(7) 0.4155(3)
H75 H 0.8888 1.1538 0.4321
H76 H 0.8769 1.0280 0.4075
H77 H 0.8596 1.0801 0.4433
C64 C 0.83956(19) 1.1678(7) 0.3165(3)
H78 H 0.8149 1.1964 0.2807
H79 H 0.8493 1.0997 0.3078
H80 H 0.8612 1.2252 0.3327
Zn1C Zn 0.242143(17) 1.17563(5) 0.14009(2)
Zn3C Zn 0.724822(18) 1.17062(5) 0.33491(2)
O2C O 0.29223(10) 0.5439(3) -0.07981(13)
N4C N 0.29669(13) 0.6157(3) -0.16856(16)
O8C O 0.73330(10) 0.5405(3) 0.60738(13)
N16C N 0.74697(13) 0.6131(3) 0.70951(15)
Br8? Br 0.4609(8) 0.5961(19) 0.3034(9)
C65? C 0.4732(3) 0.9708(13) 0.3545(5)
C66? C 0.4467(4) 0.9706(13) 0.3788(6)
C67? C 0.4035(4) 1.013(2) 0.3360(9)
C68? C 0.4435(6) 0.8505(15) 0.3967(10)
H81? H 0.4763 1.0494 0.3445
H82? H 0.4600 1.0198 0.4141
H83? H 0.4045 1.0903 0.3251
H84? H 0.3878 1.0098 0.3540
H85? H 0.3900 0.9649 0.3012
H86? H 0.4712 0.8201 0.4237
H87? H 0.4286 0.8026 0.3620
H88? H 0.4285 0.8524 0.4158
N17? N 0.4518(4) 0.9010(16) 0.3015(6)
loop_
_geom_bond_atom_site_label_1
_geom_bond_atom_site_label_2
_geom_bond_site_symmetry_1
_geom_bond_site_symmetry_2
Zn1 N1 1_555 1_555
Zn2 Br1 1_555 1_555
Zn3 O6 1_555 1_555
N1 C1 1_555 1_555
C1 H1 1_555 1_555
C2 C1 1_555 1_555
O1 Zn1 1_555 1_555
N2 C2 1_555 1_555
C3 N2 1_555 1_555
C4 C3 1_555 1_555
H2 C4 1_555 1_555
C5 C4 1_555 1_555
H3 C5 1_555 1_555
C6 C5 1_555 1_555
C7 C6 1_555 1_555
H4 C7 1_555 1_555
C8 C3 1_555 1_555
H5 C8 1_555 1_555
N3 C6 1_555 1_555
C9 N3 1_555 1_555
O2 C9 1_555 1_555
C10 C9 1_555 1_555
H6 C10 1_555 1_555
N4 C10 1_555 1_555
C11 C1 1_555 1_555
H7 C11 1_555 1_555
C12 C11 1_555 1_555
H8 C12 1_555 1_555
H9 C12 1_555 1_555
H10 C12 1_555 1_555
C13 C11 1_555 1_555
H11 C13 1_555 1_555
H12 C13 1_555 1_555
H13 C13 1_555 1_555
C14 C10 1_555 1_555
H14 C14 1_555 1_555
C15 C14 1_555 1_555
H15 C15 1_555 1_555
H16 C15 1_555 1_555
H17 C15 1_555 1_555
C16 C14 1_555 1_555
H18 C16 1_555 1_555
H19 C16 1_555 1_555
H20 C16 1_555 1_555
N5 Zn1 1_555 1_555
C17 N5 1_555 1_555
H21 C17 1_555 1_555
C18 C17 1_555 1_555
O3 Zn1 1_555 1_555
N6 C18 1_555 1_555
C19 N6 1_555 1_555
C20 C19 1_555 1_555
H22 C20 1_555 1_555
C21 C20 1_555 1_555
H23 C21 1_555 1_555
C22 C21 1_555 1_555
C23 C22 1_555 1_555
H24 C23 1_555 1_555
C24 C19 1_555 1_555
H25 C24 1_555 1_555
N7 C22 1_555 1_555
C25 N7 1_555 1_555
O4 Zn2 1_555 1_555
C26 C25 1_555 1_555
H26 C26 1_555 1_555
N8 Zn2 1_555 1_555
C27 C17 1_555 1_555
H27 C27 1_555 1_555
C28 C27 1_555 1_555
H28 C28 1_555 1_555
H29 C28 1_555 1_555
H30 C28 1_555 1_555
C29 C27 1_555 1_555
H31 C29 1_555 1_555
H32 C29 1_555 1_555
H33 C29 1_555 1_555
C30 C26 1_555 1_555
H34 C30 1_555 1_555
C31 C30 1_555 1_555
H35 C31 1_555 1_555
H36 C31 1_555 1_555
H37 C31 1_555 1_555
C32 C30 1_555 1_555
H38 C32 1_555 1_555
H39 C32 1_555 1_555
H40 C32 1_555 1_555
N9 Zn2 1_555 1_555
C33 N9 1_555 1_555
H41 C33 1_555 1_555
C34 C33 1_555 1_555
O5 Zn2 1_555 1_555
N10 C34 1_555 1_555
C35 N10 1_555 1_555
C36 C35 1_555 1_555
H42 C36 1_555 1_555
C37 C36 1_555 1_555
H43 C37 1_555 1_555
C38 C37 1_555 1_555
C39 C38 1_555 1_555
H44 C39 1_555 1_555
C40 C35 1_555 1_555
H45 C40 1_555 1_555
N11 C38 1_555 1_555
C41 N11 1_555 1_555
O6 C41 1_555 1_555
C42 C41 1_555 1_555
H46 C42 1_555 1_555
N12 Zn3 1_555 1_555
C43 C33 1_555 1_555
H47 C43 1_555 1_555
C44 C43 1_555 1_555
H48 C44 1_555 1_555
H49 C44 1_555 1_555
H50 C44 1_555 1_555
C45 C43 1_555 1_555
H51 C45 1_555 1_555
H52 C45 1_555 1_555
H53 C45 1_555 1_555
C46 C42 1_555 1_555
H54 C46 1_555 1_555
C47 C46 1_555 1_555
H55 C47 1_555 1_555
H56 C47 1_555 1_555
H57 C47 1_555 1_555
C48 C46 1_555 1_555
H58 C48 1_555 1_555
H59 C48 1_555 1_555
H60 C48 1_555 1_555
N13 Zn3 1_555 1_555
C49 N13 1_555 1_555
H61 C49 1_555 1_555
C50 C49 1_555 1_555
O7 Zn3 1_555 1_555
N14 C50 1_555 1_555
C51 N14 1_555 1_555
C52 C51 1_555 1_555
H62 C52 1_555 1_555
C53 C52 1_555 1_555
H63 C53 1_555 1_555
C54 C53 1_555 1_555
C55 C54 1_555 1_555
H64 C55 1_555 1_555
C56 C51 1_555 1_555
H65 C56 1_555 1_555
N15 C54 1_555 1_555
C57 N15 1_555 1_555
O8 C57 1_555 1_555
C58 C57 1_555 1_555
H66 C58 1_555 1_555
N16 C58 1_555 1_555
C59 C49 1_555 1_555
H67 C59 1_555 1_555
C60 C59 1_555 1_555
H68 C60 1_555 1_555
H69 C60 1_555 1_555
H70 C60 1_555 1_555
C61 C59 1_555 1_555
H71 C61 1_555 1_555
H72 C61 1_555 1_555
H73 C61 1_555 1_555
C62 C58 1_555 1_555
H74 C62 1_555 1_555
C63 C62 1_555 1_555
H75 C63 1_555 1_555
H76 C63 1_555 1_555
H77 C63 1_555 1_555
C64 C62 1_555 1_555
H78 C64 1_555 1_555
H79 C64 1_555 1_555
H80 C64 1_555 1_555
Zn1C O2 1_555 1_555
Zn3C O8 1_555 1_555
O2C Zn1 1_555 1_555
N4C Zn1 1_555 1_555
O8C Zn3 1_555 1_555
N16C Zn3 1_555 1_555
C2 O1 1_555 1_555
C7 C8 1_555 1_555
N4 Zn1C 1_555 1_555
C18 O3 1_555 1_555
C23 C24 1_555 1_555
C25 O4 1_555 1_555
C26 N8 1_555 1_555
C34 O5 1_555 1_555
C39 C40 1_555 1_555
C42 N12 1_555 1_555
C50 O7 1_555 1_555
C55 C56 1_555 1_555
N16 Zn3C 1_555 1_555

#END
