
#######################################################################
#
#                 Cambridge Crystallographic Data Centre
#                                CCDC 
#
#######################################################################
#
# If this CIF has been generated from an entry in the Cambridge 
# Structural Database, then it will include bibliographic, chemical, 
# crystal, experimental, refinement or atomic coordinate data resulting 
# from the CCDC's data processing and validation procedures.
#
#######################################################################

data_IBOXIH
_symmetry_cell_setting           monoclinic
_symmetry_space_group_name_H-M   'P 21/n'
_symmetry_Int_Tables_number      14
_space_group_name_Hall           '-P 2yn'
loop_
_symmetry_equiv_pos_site_id
_symmetry_equiv_pos_as_xyz
1 x,y,z
2 1/2+x,1/2-y,1/2+z
3 -x,-y,-z
4 1/2-x,1/2+y,1/2-z
_cell_length_a                   8.830(3)
_cell_length_b                   10.585(3)
_cell_length_c                   20.891(6)
_cell_angle_alpha                90
_cell_angle_beta                 98.429(4)
_cell_angle_gamma                90
_cell_volume                     1931.5
loop_
_atom_site_label
_atom_site_type_symbol
_atom_site_fract_x
_atom_site_fract_y
_atom_site_fract_z
Er1 Er 0.214863(13) 0.460771(12) 0.017522(6)
N1 N 0.0555(4) 0.8373(4) 0.28470(16)
O1 O 0.3818(2) 0.6018(2) -0.01829(10)
O2 O 0.6121(2) 0.6817(2) 0.01797(12)
O3 O 0.0478(2) 0.6298(2) -0.01057(10)
O4 O -0.1423(2) 0.7301(2) -0.06811(12)
O5 O 0.1242(3) 0.5303(2) 0.11054(11)
O6 O -0.1248(3) 0.5791(3) 0.08923(11)
C1 C 0.4699(3) 0.6815(3) 0.01446(14)
C2 C 0.3939(3) 0.7803(3) 0.05070(16)
C3 C 0.4347(4) 0.7937(4) 0.11657(17)
H1 H 0.5144 0.7455 0.1382
C4 C 0.3578(5) 0.8785(4) 0.1508(2)
H2 H 0.3846 0.8867 0.1954
C5 C 0.2413(6) 0.9504(4) 0.1182(3)
H3 H 0.1888 1.0068 0.1411
C6 C 0.2015(5) 0.9400(4) 0.0523(2)
H4 H 0.1244 0.9913 0.0312
C7 C 0.2752(4) 0.8534(3) 0.01656(18)
C8 C 0.2391(4) 0.8458(3) -0.05463(18)
C9 C 0.3396(4) 0.9024(4) -0.0923(2)
H5 H 0.4256 0.9448 -0.0719
C10 C 0.3133(5) 0.8962(5) -0.1589(2)
H6 H 0.3824 0.9330 -0.1829
C11 C 0.1848(5) 0.8358(5) -0.1902(2)
H7 H 0.1666 0.8320 -0.2351
C12 C 0.0833(4) 0.7810(4) -0.15382(18)
H8 H -0.0038 0.7409 -0.1748
C13 C 0.1088(3) 0.7847(3) -0.08695(16)
C14 C -0.0014(3) 0.7136(3) -0.05276(15)
C15 C -0.0584(6) 0.8508(5) 0.2353(2)
H9 H -0.1259 0.9179 0.2364
C16 C -0.0807(5) 0.7701(4) 0.18255(18)
H10 H -0.1631 0.7813 0.1498
C17 C 0.0223(4) 0.6724(3) 0.17969(15)
C18 C 0.1412(4) 0.6583(4) 0.23019(17)
H11 H 0.2129 0.5941 0.2295
C19 C 0.1514(5) 0.7420(4) 0.28197(18)
H12 H 0.2296 0.7304 0.3164
C20 C 0.0057(4) 0.5858(3) 0.12152(14)
O7 O 0.4233(3) 0.4675(2) 0.10123(11)
H13 H 0.4245 0.4391 0.1394
H14 H 0.5030 0.4442 0.0861
O2B O 0.3879(2) 0.3183(2) -0.01797(12)
O3B O -0.0478(2) 0.3702(2) 0.01057(10)
O4B O 0.1423(2) 0.2699(2) 0.06811(12)
O6B O 0.1248(3) 0.4209(3) -0.08923(11)
Er1B Er 0.785137(13) 0.539229(12) -0.017522(6)
Er1B_2 Er -0.214863(13) 0.539229(12) -0.017522(6)
loop_
_geom_bond_atom_site_label_1
_geom_bond_atom_site_label_2
_geom_bond_site_symmetry_1
_geom_bond_site_symmetry_2
Er1 O1 1_555 1_555
N1 C15 1_555 1_555
O1 C1 1_555 1_555
O2 C1 1_555 1_555
O3 Er1 1_555 1_555
O4 C14 1_555 1_555
O5 Er1 1_555 1_555
O6 C20 1_555 1_555
C1 C2 1_555 1_555
C2 C3 1_555 1_555
C3 H1 1_555 1_555
C4 C3 1_555 1_555
H2 C4 1_555 1_555
C5 C4 1_555 1_555
H3 C5 1_555 1_555
C6 C5 1_555 1_555
H4 C6 1_555 1_555
C7 C2 1_555 1_555
C8 C7 1_555 1_555
C9 C8 1_555 1_555
H5 C9 1_555 1_555
C10 C9 1_555 1_555
H6 C10 1_555 1_555
C11 C10 1_555 1_555
H7 C11 1_555 1_555
C12 C11 1_555 1_555
H8 C12 1_555 1_555
C13 C8 1_555 1_555
C14 O3 1_555 1_555
C15 H9 1_555 1_555
C16 C15 1_555 1_555
H10 C16 1_555 1_555
C17 C16 1_555 1_555
C18 C17 1_555 1_555
H11 C18 1_555 1_555
C19 N1 1_555 1_555
H12 C19 1_555 1_555
C20 O5 1_555 1_555
O7 Er1 1_555 1_555
H13 O7 1_555 1_555
H14 O7 1_555 1_555
O2B Er1 1_555 1_555
O3B Er1 1_555 1_555
O4B Er1 1_555 1_555
O6B Er1 1_555 1_555
Er1B O2 1_555 1_555
Er1B_2 O3 1_555 1_555
O4 Er1B_2 1_555 1_555
O6 Er1B_2 1_555 1_555
C6 C7 1_555 1_555
C12 C13 1_555 1_555
C13 C14 1_555 1_555
C17 C20 1_555 1_555
C18 C19 1_555 1_555
O3B Er1B_2 1_555 1_555

#END
