
#######################################################################
#
#                 Cambridge Crystallographic Data Centre
#                                CCDC 
#
#######################################################################
#
# If this CIF has been generated from an entry in the Cambridge 
# Structural Database, then it will include bibliographic, chemical, 
# crystal, experimental, refinement or atomic coordinate data resulting 
# from the CCDC's data processing and validation procedures.
#
#######################################################################

data_IBOYOP
_symmetry_cell_setting           monoclinic
_symmetry_space_group_name_H-M   'P 21/c'
_symmetry_Int_Tables_number      14
_space_group_name_Hall           '-P 2ybc'
loop_
_symmetry_equiv_pos_site_id
_symmetry_equiv_pos_as_xyz
1 x,y,z
2 -x,1/2+y,1/2-z
3 -x,-y,-z
4 x,1/2-y,1/2+z
_cell_length_a                   15.144(2)
_cell_length_b                   30.066(5)
_cell_length_c                   21.804(3)
_cell_angle_alpha                90
_cell_angle_beta                 120.455(7)
_cell_angle_gamma                90
_cell_volume                     8558.03
loop_
_atom_site_label
_atom_site_type_symbol
_atom_site_fract_x
_atom_site_fract_y
_atom_site_fract_z
La1 La 0.63088(3) 0.535072(11) 0.061658(19)
La2 La 0.86266(3) 0.467730(11) -0.561300(19)
Cu1 Cu 0.47562(6) 0.53986(3) -0.13482(4)
Cu2 Cu 0.75343(6) 0.49793(3) 0.24690(4)
Cu3 Cu 0.98210(6) 0.53639(2) 0.36545(4)
O1 O 0.7134(4) 0.47754(17) -0.5394(3)
O2 O 0.8612(3) 0.50568(16) -0.4566(2)
O3 O 0.5207(4) 0.58968(15) 0.0727(3)
O4 O 0.5408(4) 0.59446(16) 0.1822(3)
O5 O 0.5194(4) 0.60226(14) -0.1193(2)
O6 O 0.6396(4) 0.60192(15) -0.0043(3)
O7 O 0.7898(3) 0.56169(14) 0.2716(2)
O8 O 0.7627(4) 0.57840(15) 0.1647(2)
O9 O 0.2865(4) 0.56585(14) -0.2276(3)
O10 O 0.2660(3) 0.57550(15) -0.3351(2)
O11 O 1.0254(4) 0.59914(14) 0.3799(2)
O12 O 1.1494(4) 0.59926(15) 0.4951(3)
O13 O 0.9746(4) 0.41022(15) -0.5675(3)
O14 O 0.9676(4) 0.40314(16) -0.6712(3)
O15 O 0.7841(4) 0.52748(16) 0.0418(2)
O16 O 0.6367(4) 0.49778(17) -0.0417(3)
O17 O 0.4578(3) 0.53731(14) -0.0522(2)
H1 H 0.4059 0.5056 -0.0481
O18 O 0.6159(3) 0.51243(14) 0.1705(2)
H2 H 0.5903 0.5365 0.1785
O19 O 0.8854(3) 0.48567(14) 0.3291(2)
O20 O 0.9655(3) 0.53574(13) 0.4485(2)
H3 H 0.9308 0.5592 0.4429
O21 O 0.7802(4) 0.4793(2) 0.1453(3)
H4 H 0.7696 0.4472 0.1444
H5 H 0.7409 0.4649 0.1192
O22 O 0.7403(4) 0.53205(17) -0.6316(3)
H6 H 0.7005 0.5130 -0.6557
H7 H 0.7441 0.5417 -0.6555
N1 N 0.5202(4) 0.53667(19) -0.2073(3)
N2 N 0.4810(7) 0.8954(2) 0.0650(5)
N3 N 0.6716(6) 0.9017(2) -0.0846(5)
N4 N 0.8427(11) 0.8707(4) 0.3091(10)
N5 N 0.3212(7) 0.8736(2) -0.2225(6)
N6 N 1.2002(7) 0.8968(2) 0.3988(5)
N7 N 1.0084(7) 0.1045(3) -0.5578(5)
N8 N 0.9773(4) 0.46857(18) -0.2910(3)
C1 C 0.4719(6) 0.5130(3) -0.2643(4)
H8 H 0.4098 0.4990 -0.2744
C2 C 0.5072(7) 0.5071(4) -0.3117(5)
H9 H 0.4698 0.4886 -0.3521
C3 C 0.5948(5) 0.5276(2) -0.3012(4)
C4 C 0.6419(7) 0.5555(3) -0.2421(5)
H10 H 0.7010 0.5719 -0.2327
C5 C 0.6028(7) 0.5593(3) -0.1969(5)
H11 H 0.6358 0.5787 -0.1572
C6 C 0.6371(5) 0.5207(2) -0.3487(4)
C7 C 0.5971(7) 0.4879(3) -0.4013(5)
H12 H 0.5413 0.4702 -0.4073
C8 C 0.6376(6) 0.4808(3) -0.4448(5)
H13 H 0.6087 0.4589 -0.4811
C9 C 0.7204(5) 0.5059(2) -0.4353(4)
C10 C 0.7585(6) 0.5386(3) -0.3844(4)
H14 H 0.8142 0.5564 -0.3783
C11 C 0.7170(6) 0.5458(3) -0.3421(4)
H15 H 0.7443 0.5688 -0.3074
C12 C 0.7667(5) 0.4959(2) -0.4808(3)
C13 C 0.4475(7) 0.8757(3) 0.1051(7)
H16 H 0.4160 0.8936 0.1246
C14 C 0.4569(7) 0.8305(3) 0.1191(7)
H17 H 0.4347 0.8183 0.1492
C15 C 0.4987(6) 0.8029(3) 0.0893(5)
C16 C 0.5325(8) 0.8237(3) 0.0498(6)
H18 H 0.5622 0.8067 0.0282
C17 C 0.5243(9) 0.8691(3) 0.0406(6)
H19 H 0.5523 0.8821 0.0145
C18 C 0.5053(6) 0.7542(3) 0.0999(5)
C19 C 0.5187(7) 0.7341(3) 0.1618(6)
H20 H 0.5247 0.7524 0.1993
C20 C 0.5236(6) 0.6878(2) 0.1705(5)
H21 H 0.5341 0.6748 0.2134
C21 C 0.5127(5) 0.6615(2) 0.1149(4)
C22 C 0.5000(6) 0.6804(3) 0.0537(5)
H22 H 0.4954 0.6620 0.0167
C23 C 0.4940(6) 0.7266(3) 0.0454(5)
H23 H 0.4820 0.7393 0.0019
C24 C 0.5253(5) 0.6108(2) 0.1264(4)
C25 C 0.5845(8) 0.8811(3) -0.1300(7)
H24 H 0.5301 0.8984 -0.1656
C26 C 0.5696(8) 0.8354(3) -0.1278(6)
H25 H 0.5058 0.8220 -0.1603
C27 C 0.6504(6) 0.8098(2) -0.0767(5)
C28 C 0.7379(6) 0.8320(2) -0.0276(4)
H26 H 0.7928 0.8163 0.0105
C29 C 0.7444(6) 0.8771(2) -0.0348(5)
H27 H 0.8060 0.8916 -0.0013
C30 C 0.6396(6) 0.7606(2) -0.0738(4)
C31 C 0.6898(7) 0.7379(3) -0.0112(5)
H28 H 0.7353 0.7534 0.0313
C32 C 0.6754(7) 0.6923(3) -0.0082(4)
H29 H 0.7120 0.6770 0.0359
C33 C 0.6086(5) 0.6694(2) -0.0688(4)
C34 C 0.5580(6) 0.6913(2) -0.1331(4)
H30 H 0.5134 0.6756 -0.1755
C35 C 0.5732(6) 0.7370(2) -0.1351(4)
H31 H 0.5375 0.7523 -0.1792
C36 C 0.5893(5) 0.6202(2) -0.0623(4)
C37 C 0.8502(13) 0.8517(4) 0.2570(12)
H32 H 0.8676 0.8702 0.2293
C38 C 0.8347(11) 0.8074(3) 0.2402(10)
H33 H 0.8404 0.7958 0.2018
C39 C 0.8096(8) 0.7786(3) 0.2821(7)
C40 C 0.8016(11) 0.7984(4) 0.3364(9)
H34 H 0.7846 0.7812 0.3655
C41 C 0.8190(13) 0.8438(5) 0.3476(11)
H35 H 0.8137 0.8567 0.3854
C42 C 0.7967(6) 0.7298(3) 0.2680(6)
C43 C 0.7818(7) 0.7137(3) 0.2052(5)
H36 H 0.7744 0.7340 0.1695
C44 C 0.7772(7) 0.6683(2) 0.1915(5)
H37 H 0.7678 0.6581 0.1473
C45 C 0.7861(5) 0.6380(2) 0.2414(4)
C46 C 0.7961(6) 0.6537(3) 0.3053(4)
H38 H 0.7993 0.6334 0.3397
C47 C 0.8014(7) 0.6992(3) 0.3176(5)
H39 H 0.8084 0.7097 0.3609
C48 C 0.7783(5) 0.5902(2) 0.2246(3)
C49 C 0.2970(10) 0.8491(3) -0.1820(7)
H40 H 0.2896 0.8632 -0.1459
C50 C 0.2821(9) 0.8025(3) -0.1917(6)
H41 H 0.2624 0.7860 -0.1634
C51 C 0.2959(6) 0.7808(3) -0.2420(5)
C52 C 0.3207(7) 0.8076(3) -0.2829(6)
H42 H 0.3317 0.7945 -0.3181
C53 C 0.3297(8) 0.8536(3) -0.2732(6)
H43 H 0.3423 0.8712 -0.3042
C54 C 0.2889(6) 0.7317(3) -0.2514(5)
C55 C 0.3085(7) 0.7039(3) -0.1949(5)
H44 H 0.3237 0.7166 -0.1507
C56 C 0.3062(6) 0.6578(3) -0.2017(4)
H45 H 0.3198 0.6393 -0.1626
C57 C 0.2839(5) 0.6392(2) -0.2659(4)
C58 C 0.2619(6) 0.6667(2) -0.3224(5)
H46 H 0.2443 0.6541 -0.3672
C59 C 0.2652(6) 0.7128(2) -0.3148(5)
H47 H 0.2509 0.7312 -0.3542
C60 C 0.2785(5) 0.5899(2) -0.2771(3)
C61 C 1.1375(10) 0.8715(3) 0.3436(6)
H48 H 1.1034 0.8848 0.2977
C62 C 1.1193(11) 0.8267(3) 0.3494(6)
H49 H 1.0730 0.8105 0.3078
C63 C 1.1669(6) 0.8054(3) 0.4139(5)
C64 C 1.2346(6) 0.8314(2) 0.4693(5)
H50 H 1.2737 0.8184 0.5151
C65 C 1.2482(7) 0.8759(3) 0.4610(5)
H51 H 1.2944 0.8925 0.5019
C66 C 1.1499(6) 0.7569(2) 0.4186(4)
C67 C 1.0719(6) 0.7343(2) 0.3637(4)
H52 H 1.0273 0.7499 0.3212
C68 C 1.0551(5) 0.6894(2) 0.3674(4)
H53 H 1.0006 0.6748 0.3275
C69 C 1.1173(5) 0.6657(2) 0.4290(4)
C70 C 1.1999(7) 0.6874(3) 0.4848(4)
H54 H 1.2456 0.6714 0.5266
C71 C 1.2159(7) 0.7323(3) 0.4796(4)
H55 H 1.2728 0.7467 0.5181
C72 C 1.0971(5) 0.6180(2) 0.4362(4)
C73 C 0.9531(9) 0.1305(3) -0.5404(6)
H56 H 0.9141 0.1169 -0.5225
C74 C 0.9499(8) 0.1769(3) -0.5472(6)
H57 H 0.9110 0.1945 -0.5331
C75 C 1.0048(6) 0.1965(3) -0.5751(6)
C76 C 1.0593(8) 0.1689(3) -0.5947(7)
H58 H 1.0966 0.1816 -0.6147
C77 C 1.0609(8) 0.1242(3) -0.5862(8)
H59 H 1.0992 0.1062 -0.6003
C78 C 1.0043(6) 0.2459(2) -0.5831(5)
C79 C 0.9996(6) 0.2737(3) -0.5345(5)
H60 H 1.0003 0.2613 -0.4942
C80 C 0.9938(6) 0.3192(2) -0.5437(4)
H61 H 0.9907 0.3377 -0.5095
C81 C 0.9923(5) 0.3383(2) -0.6018(4)
C82 C 1.0002(7) 0.3104(3) -0.6495(5)
H62 H 1.0021 0.3229 -0.6888
C83 C 1.0052(7) 0.2646(3) -0.6408(6)
H63 H 1.0093 0.2461 -0.6745
C84 C 0.9776(5) 0.3877(2) -0.6160(4)
C85 C 0.9329(9) 0.4372(3) -0.2761(6)
H64 H 0.9256 0.4092 -0.2986
C86 C 0.8951(9) 0.4407(3) -0.2301(6)
H65 H 0.8616 0.4161 -0.2233
C87 C 0.9057(6) 0.4785(2) -0.1956(4)
C88 C 0.9514(8) 0.5135(3) -0.2097(5)
H66 H 0.9609 0.5411 -0.1859
C89 C 0.9838(7) 0.5084(3) -0.2586(5)
H67 H 1.0112 0.5334 -0.2699
C90 C 0.8622(5) 0.4846(2) -0.1482(4)
C91 C 0.9054(6) 0.5147(3) -0.0924(4)
H68 H 0.9637 0.5313 -0.0841
C92 C 0.8651(5) 0.5208(2) -0.0488(4)
H69 H 0.8970 0.5408 -0.0098
C93 C 0.7776(5) 0.4977(2) -0.0621(4)
C94 C 0.7325(6) 0.4677(2) -0.1175(4)
H70 H 0.6732 0.4517 -0.1262
C95 C 0.7749(6) 0.4614(3) -0.1604(4)
H71 H 0.7439 0.4409 -0.1988
C96 C 0.7319(5) 0.5078(2) -0.0173(4)
La1B La 0.36912(3) 0.464928(11) -0.061658(19)
La2B La 0.13734(3) 0.532270(11) -0.438700(19)
La2B_2 La 1.13734(3) 0.532270(11) 0.561300(19)
La2_2 La 0.86266(3) 0.467730(11) 0.438700(19)
Cu1B Cu 0.52438(6) 0.46014(3) 0.13482(4)
Cu2B Cu 0.24657(6) 0.50207(3) -0.24690(4)
Cu3B Cu 1.01790(6) 0.46361(2) -0.36545(4)
O2B O 1.1388(3) 0.49432(16) 0.4566(2)
O9B O 0.7135(4) 0.43415(14) 0.2276(3)
O10B O 0.7340(3) 0.42450(15) -0.6649(2)
O12B O 0.8506(4) 0.40074(15) -0.4951(3)
O17B O 0.5422(3) 0.46269(14) 0.0522(2)
H1B H 0.5941 0.4944 0.0481
O18B O 0.3841(3) 0.48757(14) -0.1705(2)
H2B H 0.4097 0.4635 -0.1785
O19_2 O 0.8854(3) 0.48567(14) -0.6709(2)
O20_2 O 0.9655(3) 0.53574(13) -0.5515(2)
O20B O 1.0345(3) 0.46426(13) -0.4485(2)
H3_2 H 0.9308 0.5592 -0.5571
H3B H 1.0692 0.4408 -0.4429
N8B N 1.0227(4) 0.53143(18) 0.2910(3)
loop_
_geom_bond_atom_site_label_1
_geom_bond_atom_site_label_2
_geom_bond_site_symmetry_1
_geom_bond_site_symmetry_2
La1 O3 1_555 1_555
La2 O1 1_555 1_555
Cu1 O5 1_555 1_555
Cu2 O7 1_555 1_555
Cu3 O7 1_555 1_555
O1 C12 1_555 1_555
O2 La2 1_555 1_555
O3 C24 1_555 1_555
O4 C24 1_555 1_555
O5 C36 1_555 1_555
O6 La1 1_555 1_555
O7 C48 1_555 1_555
O8 La1 1_555 1_555
O9 Cu1 1_555 1_555
O10 C60 1_555 1_555
O11 Cu3 1_555 1_555
O12 C72 1_555 1_555
O13 La2 1_555 1_555
O14 C84 1_555 1_555
O15 La1 1_555 1_555
O16 La1 1_555 1_555
O17 La1 1_555 1_555
H1 O17 1_555 1_555
O18 La1 1_555 1_555
H2 O18 1_555 1_555
O19 Cu2 1_555 1_555
O20 Cu3 1_555 1_555
H3 O20 1_555 1_555
O21 La1 1_555 1_555
H4 O21 1_555 1_555
H5 O21 1_555 1_555
O22 La2 1_555 1_555
H6 O22 1_555 1_555
H7 O22 1_555 1_555
N1 Cu1 1_555 1_555
N2 C13 1_555 1_555
N3 C25 1_555 1_555
N4 C37 1_555 1_555
N5 C49 1_555 1_555
N6 C61 1_555 1_555
N7 C73 1_555 1_555
N8 C85 1_555 1_555
C1 N1 1_555 1_555
H8 C1 1_555 1_555
C2 C1 1_555 1_555
H9 C2 1_555 1_555
C3 C2 1_555 1_555
C4 C3 1_555 1_555
H10 C4 1_555 1_555
C5 N1 1_555 1_555
H11 C5 1_555 1_555
C6 C3 1_555 1_555
C7 C6 1_555 1_555
H12 C7 1_555 1_555
C8 C7 1_555 1_555
H13 C8 1_555 1_555
C9 C8 1_555 1_555
C10 C9 1_555 1_555
H14 C10 1_555 1_555
C11 C6 1_555 1_555
H15 C11 1_555 1_555
C12 O2 1_555 1_555
C13 H16 1_555 1_555
C14 C13 1_555 1_555
H17 C14 1_555 1_555
C15 C14 1_555 1_555
C16 C15 1_555 1_555
H18 C16 1_555 1_555
C17 N2 1_555 1_555
H19 C17 1_555 1_555
C18 C15 1_555 1_555
C19 C18 1_555 1_555
H20 C19 1_555 1_555
C20 C19 1_555 1_555
H21 C20 1_555 1_555
C21 C20 1_555 1_555
C22 C21 1_555 1_555
H22 C22 1_555 1_555
C23 C18 1_555 1_555
H23 C23 1_555 1_555
C24 C21 1_555 1_555
C25 H24 1_555 1_555
C26 C25 1_555 1_555
H25 C26 1_555 1_555
C27 C26 1_555 1_555
C28 C27 1_555 1_555
H26 C28 1_555 1_555
C29 N3 1_555 1_555
H27 C29 1_555 1_555
C30 C27 1_555 1_555
C31 C30 1_555 1_555
H28 C31 1_555 1_555
C32 C31 1_555 1_555
H29 C32 1_555 1_555
C33 C32 1_555 1_555
C34 C33 1_555 1_555
H30 C34 1_555 1_555
C35 C30 1_555 1_555
H31 C35 1_555 1_555
C36 O6 1_555 1_555
C37 H32 1_555 1_555
C38 C37 1_555 1_555
H33 C38 1_555 1_555
C39 C38 1_555 1_555
C40 C39 1_555 1_555
H34 C40 1_555 1_555
C41 N4 1_555 1_555
H35 C41 1_555 1_555
C42 C39 1_555 1_555
C43 C42 1_555 1_555
H36 C43 1_555 1_555
C44 C43 1_555 1_555
H37 C44 1_555 1_555
C45 C44 1_555 1_555
C46 C45 1_555 1_555
H38 C46 1_555 1_555
C47 C42 1_555 1_555
H39 C47 1_555 1_555
C48 O8 1_555 1_555
C49 H40 1_555 1_555
C50 C49 1_555 1_555
H41 C50 1_555 1_555
C51 C50 1_555 1_555
C52 C51 1_555 1_555
H42 C52 1_555 1_555
C53 N5 1_555 1_555
H43 C53 1_555 1_555
C54 C51 1_555 1_555
C55 C54 1_555 1_555
H44 C55 1_555 1_555
C56 C55 1_555 1_555
H45 C56 1_555 1_555
C57 C56 1_555 1_555
C58 C57 1_555 1_555
H46 C58 1_555 1_555
C59 C54 1_555 1_555
H47 C59 1_555 1_555
C60 O9 1_555 1_555
C61 H48 1_555 1_555
C62 C61 1_555 1_555
H49 C62 1_555 1_555
C63 C62 1_555 1_555
C64 C63 1_555 1_555
H50 C64 1_555 1_555
C65 N6 1_555 1_555
H51 C65 1_555 1_555
C66 C63 1_555 1_555
C67 C66 1_555 1_555
H52 C67 1_555 1_555
C68 C67 1_555 1_555
H53 C68 1_555 1_555
C69 C68 1_555 1_555
C70 C69 1_555 1_555
H54 C70 1_555 1_555
C71 C66 1_555 1_555
H55 C71 1_555 1_555
C72 O11 1_555 1_555
C73 H56 1_555 1_555
C74 C73 1_555 1_555
H57 C74 1_555 1_555
C75 C74 1_555 1_555
C76 C75 1_555 1_555
H58 C76 1_555 1_555
C77 N7 1_555 1_555
H59 C77 1_555 1_555
C78 C75 1_555 1_555
C79 C78 1_555 1_555
H60 C79 1_555 1_555
C80 C79 1_555 1_555
H61 C80 1_555 1_555
C81 C80 1_555 1_555
C82 C81 1_555 1_555
H62 C82 1_555 1_555
C83 C78 1_555 1_555
H63 C83 1_555 1_555
C84 O13 1_555 1_555
C85 H64 1_555 1_555
C86 C85 1_555 1_555
H65 C86 1_555 1_555
C87 C86 1_555 1_555
C88 C87 1_555 1_555
H66 C88 1_555 1_555
C89 N8 1_555 1_555
H67 C89 1_555 1_555
C90 C87 1_555 1_555
C91 C90 1_555 1_555
H68 C91 1_555 1_555
C92 C91 1_555 1_555
H69 C92 1_555 1_555
C93 C92 1_555 1_555
C94 C93 1_555 1_555
H70 C94 1_555 1_555
C95 C90 1_555 1_555
H71 C95 1_555 1_555
C96 O15 1_555 1_555
La1B O17 1_555 1_555
La2B O10 1_555 1_555
La2B_2 O12 1_555 1_555
La2_2 O19 1_555 1_555
Cu1B O18 1_555 1_555
Cu2B O9 1_555 1_555
Cu3B O2 1_555 1_555
O2B Cu3 1_555 1_555
O9B Cu2 1_555 1_555
O10B La2 1_555 1_555
O12B La2 1_555 1_555
O17B La1 1_555 1_555
H1B O17B 1_555 1_555
O18B Cu1 1_555 1_555
H2B O18B 1_555 1_555
O19_2 La2 1_555 1_555
O20_2 La2 1_555 1_555
O20B La2 1_555 1_555
H3_2 O20_2 1_555 1_555
H3B O20B 1_555 1_555
N8B Cu3 1_555 1_555
Cu1 O16 1_555 1_555
Cu1 O17 1_555 1_555
Cu2 O18 1_555 1_555
Cu2 O21 1_555 1_555
Cu3 O19 1_555 1_555
O16 C96 1_555 1_555
O20 La2B_2 1_555 1_555
O20 La2_2 1_555 1_555
N8 Cu3B 1_555 1_555
C4 C5 1_555 1_555
C9 C12 1_555 1_555
C10 C11 1_555 1_555
C16 C17 1_555 1_555
C22 C23 1_555 1_555
C28 C29 1_555 1_555
C33 C36 1_555 1_555
C34 C35 1_555 1_555
C40 C41 1_555 1_555
C45 C48 1_555 1_555
C46 C47 1_555 1_555
C52 C53 1_555 1_555
C57 C60 1_555 1_555
C58 C59 1_555 1_555
C64 C65 1_555 1_555
C69 C72 1_555 1_555
C70 C71 1_555 1_555
C76 C77 1_555 1_555
C81 C84 1_555 1_555
C82 C83 1_555 1_555
C88 C89 1_555 1_555
C93 C96 1_555 1_555
C94 C95 1_555 1_555
La1B O17B 1_555 1_555
La1B O18B 1_555 1_555
La2B_2 O2B 1_555 1_555
Cu1B O9B 1_555 1_555
Cu1B O17B 1_555 1_555
Cu2B O18B 1_555 1_555
Cu3B O20B 1_555 1_555

#END
