
#######################################################################
#
#                 Cambridge Crystallographic Data Centre
#                                CCDC 
#
#######################################################################
#
# If this CIF has been generated from an entry in the Cambridge 
# Structural Database, then it will include bibliographic, chemical, 
# crystal, experimental, refinement or atomic coordinate data resulting 
# from the CCDC's data processing and validation procedures.
#
#######################################################################

data_IBOYII
_symmetry_cell_setting           triclinic
_symmetry_space_group_name_H-M   'P -1'
_symmetry_Int_Tables_number      2
_space_group_name_Hall           '-P 1'
loop_
_symmetry_equiv_pos_site_id
_symmetry_equiv_pos_as_xyz
1 x,y,z
2 -x,-y,-z
_cell_length_a                   8.699(2)
_cell_length_b                   10.322(2)
_cell_length_c                   29.362(6)
_cell_angle_alpha                80.17(3)
_cell_angle_beta                 87.28(3)
_cell_angle_gamma                81.95(3)
_cell_volume                     2571.39
loop_
_atom_site_label
_atom_site_type_symbol
_atom_site_fract_x
_atom_site_fract_y
_atom_site_fract_z
Cd1 Cd 0.70219(5) 0.76137(4) 0.593470(14)
O1 O 0.6002(6) 0.9513(4) 0.61845(17)
O2 O 0.5357(8) 1.0810(7) 0.5516(2)
O3 O 0.5321(7) 1.1551(6) 0.6666(2)
O4 O 1.0224(5) 1.3114(4) 0.61085(17)
O5 O 0.8295(5) 1.5477(4) 0.58991(14)
O6 O 0.7795(7) 1.5069(5) 0.51944(17)
O7 O 0.6537(9) 0.7621(6) 0.5152(2)
H1 H 0.580(8) 0.804(7) 0.498(3)
H2 H 0.660(10) 0.6795(19) 0.515(3)
N1 N 0.9361(6) 0.8425(5) 0.57098(18)
N2 N 0.7769(7) 0.6988(5) 0.67538(18)
N3 N 0.4708(6) 0.6725(5) 0.6125(2)
C1 C 0.5436(7) 1.0583(6) 0.5942(2)
C2 C 0.4749(9) 1.1672(7) 0.6208(3)
H3 H 0.4958 1.2517 0.6032
H4 H 0.3631 1.1684 0.6229
C3 C 0.6825(9) 1.1777(6) 0.6718(3)
C4 C 0.7424(13) 1.1416(8) 0.7162(3)
H5 H 0.6811 1.1045 0.7404
C5 C 0.8935(13) 1.1609(9) 0.7245(3)
H6 H 0.9325 1.1358 0.7541
C6 C 0.9852(10) 1.2166(8) 0.6892(3)
H7 H 1.0864 1.2284 0.6946
C7 C 0.9222(8) 1.2564(6) 0.6440(2)
C8 C 0.7718(8) 1.2362(6) 0.6351(2)
H8 H 0.7320 1.2610 0.6056
C9 C 0.9641(8) 1.3531(6) 0.5647(2)
H9 H 0.9156 1.2817 0.5563
H10 H 1.0514 1.3668 0.5435
C10 C 0.8461(8) 1.4803(6) 0.5580(2)
C11 C 0.9758(9) 0.9492(6) 0.5852(3)
H11 H 0.9091 0.9913 0.6055
C12 C 1.1124(9) 0.9992(7) 0.5709(4)
H12 H 1.1367 1.0735 0.5816
C13 C 1.2114(10) 0.9395(8) 0.5411(3)
H13 H 1.3036 0.9724 0.5311
C14 C 1.1724(10) 0.8291(8) 0.5261(3)
H14 H 1.2377 0.7850 0.5060
C15 C 1.0322(9) 0.7861(8) 0.5420(2)
H15 H 1.0046 0.7128 0.5314
C16 C 0.8230(10) 0.5759(7) 0.6945(2)
H16 H 0.8080 0.5078 0.6788
C17 C 0.8942(12) 0.5425(8) 0.7379(3)
H17 H 0.9271 0.4542 0.7499
C18 C 0.9143(11) 0.6391(8) 0.7619(2)
H18 H 0.9634 0.6185 0.7902
C19 C 0.8603(10) 0.7697(8) 0.7436(2)
H19 H 0.8680 0.8383 0.7599
C20 C 0.7936(9) 0.7954(7) 0.6999(2)
H20 H 0.7594 0.8829 0.6871
C21 C 0.3660(9) 0.7210(8) 0.6421(3)
H21 H 0.3896 0.7893 0.6563
C22 C 0.2242(9) 0.6754(9) 0.6527(3)
H22 H 0.1528 0.7138 0.6727
C23 C 0.1918(9) 0.5699(8) 0.6323(3)
H23 H 0.0995 0.5344 0.6396
C24 C 0.2961(9) 0.5193(8) 0.6019(4)
H24 H 0.2752 0.4507 0.5873
C25 C 0.4350(9) 0.5725(7) 0.5931(3)
H25 H 0.5069 0.5367 0.5726
O5_2 O 0.8295(5) 0.5477(4) 0.58991(14)
Cd1_2 Cd 0.70219(5) 1.76137(4) 0.593470(14)
Cd2 Cd 0.20364(5) 0.35302(4) -0.093121(14)
O8 O 0.1042(6) 0.5679(4) -0.12091(17)
O9 O 0.0399(7) 0.6210(6) -0.05125(18)
O10 O 0.0305(7) 0.8255(5) -0.16411(18)
O11 O 0.5237(5) 0.9166(5) -0.11024(17)
O12 O 0.3301(6) 1.1346(4) -0.08977(17)
O13 O 0.2793(7) 1.0289(6) -0.01841(19)
O14 O 0.1476(9) 0.2811(6) -0.01556(19)
H26 H 0.078(9) 0.312(7) 0.003(3)
H27 H 0.164(11) 0.1972(14) -0.009(3)
N4 N 0.4373(6) 0.4114(5) -0.07018(18)
N5 N 0.2856(7) 0.3711(6) -0.17354(18)
N6 N -0.0254(6) 0.2780(6) -0.1140(2)
C26 C 0.3456(7) 1.0372(6) -0.0578(2)
C27 C 0.4632(8) 0.9177(6) -0.0638(2)
H28 H 0.5493 0.9142 -0.0436
H29 H 0.4148 0.8381 -0.0539
C28 C 0.4233(8) 0.8974(6) -0.1433(2)
C29 C 0.4872(11) 0.9045(8) -0.1879(3)
H30 H 0.5898 0.9194 -0.1939
C30 C 0.3926(13) 0.8888(10) -0.2238(3)
H31 H 0.4322 0.8975 -0.2540
C31 C 0.2409(13) 0.8604(9) -0.2148(3)
H32 H 0.1801 0.8484 -0.2386
C32 C 0.1832(9) 0.8507(6) -0.1702(2)
C33 C 0.2736(8) 0.8682(6) -0.1335(2)
H33 H 0.2333 0.8602 -0.1034
C34 C -0.0247(8) 0.7849(7) -0.1176(3)
H34 H -0.1365 0.7873 -0.1179
H35 H -0.0032 0.8487 -0.0988
C35 C 0.0470(7) 0.6454(6) -0.0946(2)
C36 C 0.4755(8) 0.5327(7) -0.0815(3)
H36 H 0.4089 0.5973 -0.0997
C37 C 0.6125(10) 0.5660(7) -0.0670(3)
H37 H 0.6359 0.6521 -0.0756
C38 C 0.7147(9) 0.4724(8) -0.0398(3)
H38 H 0.8063 0.4943 -0.0299
C39 C 0.6762(9) 0.3465(8) -0.0281(3)
H39 H 0.7406 0.2801 -0.0099
C40 C 0.5370(9) 0.3210(7) -0.0443(2)
H40 H 0.5118 0.2352 -0.0367
C41 C 0.3313(10) 0.4819(8) -0.1969(2)
H41 H 0.3213 0.5559 -0.1823
C42 C 0.3926(12) 0.4943(10) -0.2415(3)
H42 H 0.4221 0.5744 -0.2563
C43 C 0.4091(13) 0.3853(11) -0.2636(3)
H43 H 0.4537 0.3889 -0.2932
C44 C 0.3585(13) 0.2731(10) -0.2410(3)
H44 H 0.3616 0.2001 -0.2559
C45 C 0.3019(10) 0.2660(8) -0.1958(3)
H45 H 0.2742 0.1859 -0.1803
C46 C -0.1245(10) 0.3539(9) -0.1431(3)
H46 H -0.1024 0.4388 -0.1551
C47 C -0.2595(11) 0.3163(12) -0.1572(3)
H47 H -0.3222 0.3725 -0.1791
C48 C -0.2974(11) 0.1957(11) -0.1383(4)
H48 H -0.3887 0.1681 -0.1459
C49 C -0.1972(11) 0.1150(9) -0.1074(5)
H49 H -0.2181 0.0299 -0.0951
C50 C -0.0637(10) 0.1598(8) -0.0943(4)
H50 H -0.0011 0.1069 -0.0716
O12_2 O 0.3301(6) 0.1346(4) -0.08977(17)
Cd2_2 Cd 0.20364(5) 1.35302(4) -0.093121(14)
loop_
_geom_bond_atom_site_label_1
_geom_bond_atom_site_label_2
_geom_bond_site_symmetry_1
_geom_bond_site_symmetry_2
Cd1 O1 1_555 1_555
O1 C1 1_555 1_555
O2 C1 1_555 1_555
O3 C2 1_555 1_555
O4 C7 1_555 1_555
O5 C10 1_555 1_555
O6 C10 1_555 1_555
O7 Cd1 1_555 1_555
H1 O7 1_555 1_555
H2 O7 1_555 1_555
N1 Cd1 1_555 1_555
N2 Cd1 1_555 1_555
N3 Cd1 1_555 1_555
C1 C2 1_555 1_555
C2 H3 1_555 1_555
H4 C2 1_555 1_555
C3 O3 1_555 1_555
C4 C3 1_555 1_555
H5 C4 1_555 1_555
C5 C4 1_555 1_555
H6 C5 1_555 1_555
C6 C5 1_555 1_555
H7 C6 1_555 1_555
C7 C6 1_555 1_555
C8 C3 1_555 1_555
H8 C8 1_555 1_555
C9 O4 1_555 1_555
H9 C9 1_555 1_555
H10 C9 1_555 1_555
C10 C9 1_555 1_555
C11 N1 1_555 1_555
H11 C11 1_555 1_555
C12 C11 1_555 1_555
H12 C12 1_555 1_555
C13 C12 1_555 1_555
H13 C13 1_555 1_555
C14 C13 1_555 1_555
H14 C14 1_555 1_555
C15 N1 1_555 1_555
H15 C15 1_555 1_555
C16 N2 1_555 1_555
H16 C16 1_555 1_555
C17 C16 1_555 1_555
H17 C17 1_555 1_555
C18 C17 1_555 1_555
H18 C18 1_555 1_555
C19 C18 1_555 1_555
H19 C19 1_555 1_555
C20 N2 1_555 1_555
H20 C20 1_555 1_555
C21 N3 1_555 1_555
H21 C21 1_555 1_555
C22 C21 1_555 1_555
H22 C22 1_555 1_555
C23 C22 1_555 1_555
H23 C23 1_555 1_555
C24 C23 1_555 1_555
H24 C24 1_555 1_555
C25 N3 1_555 1_555
H25 C25 1_555 1_555
Cd2 O8 1_555 1_555
O8 C35 1_555 1_555
O9 C35 1_555 1_555
O10 C32 1_555 1_555
O11 C27 1_555 1_555
O12 C26 1_555 1_555
O13 C26 1_555 1_555
O14 Cd2 1_555 1_555
H26 O14 1_555 1_555
H27 O14 1_555 1_555
N4 Cd2 1_555 1_555
N5 Cd2 1_555 1_555
N6 Cd2 1_555 1_555
C26 C27 1_555 1_555
C27 H28 1_555 1_555
H29 C27 1_555 1_555
C28 O11 1_555 1_555
C29 C28 1_555 1_555
H30 C29 1_555 1_555
C30 C29 1_555 1_555
H31 C30 1_555 1_555
C31 C30 1_555 1_555
H32 C31 1_555 1_555
C32 C31 1_555 1_555
C33 C28 1_555 1_555
H33 C33 1_555 1_555
C34 O10 1_555 1_555
H34 C34 1_555 1_555
H35 C34 1_555 1_555
C35 C34 1_555 1_555
C36 N4 1_555 1_555
H36 C36 1_555 1_555
C37 C36 1_555 1_555
H37 C37 1_555 1_555
C38 C37 1_555 1_555
H38 C38 1_555 1_555
C39 C38 1_555 1_555
H39 C39 1_555 1_555
C40 N4 1_555 1_555
H40 C40 1_555 1_555
C41 N5 1_555 1_555
H41 C41 1_555 1_555
C42 C41 1_555 1_555
H42 C42 1_555 1_555
C43 C42 1_555 1_555
H43 C43 1_555 1_555
C44 C43 1_555 1_555
H44 C44 1_555 1_555
C45 N5 1_555 1_555
H45 C45 1_555 1_555
C46 N6 1_555 1_555
H46 C46 1_555 1_555
C47 C46 1_555 1_555
H47 C47 1_555 1_555
C48 C47 1_555 1_555
H48 C48 1_555 1_555
C49 C48 1_555 1_555
H49 C49 1_555 1_555
C50 N6 1_555 1_555
H50 C50 1_555 1_555
O5_2 Cd1 1_555 1_555
Cd1_2 O5 1_555 1_555
O12_2 Cd2 1_555 1_555
Cd2_2 O12 1_555 1_555
C7 C8 1_555 1_555
C14 C15 1_555 1_555
C19 C20 1_555 1_555
C24 C25 1_555 1_555
C32 C33 1_555 1_555
C39 C40 1_555 1_555
C44 C45 1_555 1_555
C49 C50 1_555 1_555

#END
