
#######################################################################
#
#                 Cambridge Crystallographic Data Centre
#                                CCDC 
#
#######################################################################
#
# If this CIF has been generated from an entry in the Cambridge 
# Structural Database, then it will include bibliographic, chemical, 
# crystal, experimental, refinement or atomic coordinate data resulting 
# from the CCDC's data processing and validation procedures.
#
#######################################################################

data_IBOYIJ
_symmetry_cell_setting           monoclinic
_symmetry_space_group_name_H-M   'P 21/c'
_symmetry_Int_Tables_number      14
_space_group_name_Hall           '-P 2ybc'
loop_
_symmetry_equiv_pos_site_id
_symmetry_equiv_pos_as_xyz
1 x,y,z
2 -x,1/2+y,1/2-z
3 -x,-y,-z
4 x,1/2-y,1/2+z
_cell_length_a                   15.211(3)
_cell_length_b                   29.834(6)
_cell_length_c                   21.305(8)
_cell_angle_alpha                90
_cell_angle_beta                 120.04(2)
_cell_angle_gamma                90
_cell_volume                     8369.63
loop_
_atom_site_label
_atom_site_type_symbol
_atom_site_fract_x
_atom_site_fract_y
_atom_site_fract_z
Gd1 Gd 0.377779(19) -0.535912(8) 0.939445(13)
Gd2 Gd 0.132170(18) -0.468560(8) 1.559900(12)
Cu1 Cu 0.52870(5) -0.54099(2) 1.13503(3)
Cu2 Cu 0.24679(5) -0.497579(19) 0.75444(3)
Cu3 Cu 0.01869(5) -0.535734(19) 0.63459(3)
O1 O 0.2789(3) -0.47436(12) 1.54115(19)
O2 O 0.1358(3) -0.50571(12) 1.4583(2)
O3 O 0.4831(3) -0.58765(12) 0.9263(2)
O4 O 0.4600(3) -0.59259(12) 0.8146(2)
O5 O 0.4865(3) -0.60366(12) 1.11886(19)
O6 O 0.3700(3) -0.60273(12) 1.0008(2)
O7 O 0.2112(3) -0.56165(11) 0.72943(19)
O8 O 0.2541(3) -0.58057(12) 0.84193(19)
O9 O 0.7136(3) -0.56599(11) 1.22894(19)
O10 O 0.7458(3) -0.57519(11) 1.34202(19)
O11 O -0.0232(3) -0.59852(11) 0.61958(19)
O12 O -0.1453(3) -0.59790(12) 0.5030(2)
O13 O 0.0269(3) -0.41174(11) 1.5663(2)
O14 O 0.0334(3) -0.40432(12) 1.6727(2)
O15 O 0.2253(3) -0.53367(12) 0.95710(19)
O16 O 0.3674(3) -0.50055(12) 1.03870(19)
O17 O 0.5428(3) -0.53612(11) 1.04859(18)
H1 H 0.5780 -0.5672 1.0505
O18 O 0.3846(3) -0.51251(11) 0.83088(18)
H2 H 0.4100 -0.5310 0.8109
O19 O 0.1152(3) -0.48551(11) 0.66992(17)
H3 H 0.1063 -0.4523 0.6807
O20 O 0.0327(3) -0.53431(11) 0.54917(18)
H4 H 0.0572 -0.5641 0.5329
O21 O 0.2292(3) -0.48289(12) 0.8580(2)
H5 H 0.2360 -0.4585 0.8718
H6 H 0.1603 -0.5007 0.8382
O22 O 0.2484(3) -0.53020(12) 1.62721(19)
H7 H 0.2713 -0.5443 1.5973
H8 H 0.2430 -0.5496 1.6496
N1 N 0.4840(3) -0.53872(13) 1.2093(2)
N2 N 0.5175(5) -0.89582(17) 0.9304(3)
N3 N 0.3285(4) -0.90476(16) 1.0810(3)
N4 N 0.1476(5) -0.8724(2) 0.6757(5)
N5 N 0.6776(4) -0.87609(16) 1.2223(3)
N6 N -0.2100(4) -0.89704(15) 0.5966(3)
N7 N -0.0036(5) -0.10335(19) 1.5618(4)
N8 N 0.0205(3) -0.46987(14) 1.2881(2)
C1 C 0.5332(4) -0.51517(19) 1.2702(3)
H9 H 0.5943 -0.5015 1.2812
C2 C 0.4973(4) -0.5100(2) 1.3176(3)
H10 H 0.5353 -0.4937 1.3601
C3 C 0.4062(4) -0.52870(17) 1.3034(3)
C4 C 0.3581(4) -0.55508(18) 1.2413(3)
H11 H 0.2980 -0.5698 1.2298
C5 C 0.3988(4) -0.55954(17) 1.1967(3)
H12 H 0.3656 -0.5779 1.1562
C6 C 0.3626(4) -0.52094(17) 1.3505(3)
C7 C 0.3992(5) -0.4874(2) 1.4026(3)
H13 H 0.4531 -0.4697 1.4084
C8 C 0.3572(5) -0.4797(2) 1.4461(3)
H14 H 0.3844 -0.4577 1.4818
C9 C 0.2752(4) -0.50445(18) 1.4368(3)
C10 C 0.2373(4) -0.53814(18) 1.3850(3)
H15 H 0.1816 -0.5549 1.3782
C11 C 0.2812(5) -0.5466(2) 1.3427(3)
H16 H 0.2565 -0.5699 1.3091
C12 C 0.2278(4) -0.49442(16) 1.4819(3)
C13 C 0.5490(5) -0.8761(2) 0.8896(4)
H17 H 0.5780 -0.8938 0.8688
C14 C 0.5407(5) -0.83016(18) 0.8757(4)
H18 H 0.5629 -0.8178 0.8460
C15 C 0.4988(5) -0.80319(19) 0.9068(3)
C16 C 0.4642(6) -0.8241(2) 0.9483(4)
H19 H 0.4338 -0.8076 0.9693
C17 C 0.4751(6) -0.8700(2) 0.9579(4)
H20 H 0.4508 -0.8836 0.9855
C18 C 0.4933(4) -0.75325(18) 0.8974(3)
C19 C 0.4780(5) -0.73365(19) 0.8335(3)
H21 H 0.4705 -0.7517 0.7955
C20 C 0.4739(5) -0.68726(19) 0.8253(3)
H22 H 0.4625 -0.6744 0.7819
C21 C 0.4871(4) -0.66027(16) 0.8823(3)
C22 C 0.5032(5) -0.67950(19) 0.9461(3)
H23 H 0.5125 -0.6613 0.9843
C23 C 0.5063(5) -0.72564(19) 0.9542(3)
H24 H 0.5171 -0.7382 0.9975
C24 C 0.4759(4) -0.60922(15) 0.8721(3)
C25 C 0.4149(5) -0.8841(2) 1.1265(4)
H25 H 0.4684 -0.9008 1.1616
C26 C 0.4277(5) -0.8379(2) 1.1237(4)
H26 H 0.4897 -0.8248 1.1556
C27 C 0.3496(5) -0.81158(18) 1.0738(3)
C28 C 0.2608(5) -0.83336(19) 1.0260(3)
H27 H 0.2058 -0.8172 0.9907
C29 C 0.2536(5) -0.87943(19) 1.0308(3)
H28 H 0.1936 -0.8934 0.9973
C30 C 0.3622(4) -0.76217(17) 1.0716(3)
C31 C 0.3082(5) -0.73819(19) 1.0081(3)
H29 H 0.2604 -0.7528 0.9662
C32 C 0.3250(5) -0.69259(19) 1.0061(3)
H30 H 0.2877 -0.6770 0.9627
C33 C 0.3957(4) -0.67001(17) 1.0671(3)
C34 C 0.4448(5) -0.69264(18) 1.1315(3)
H31 H 0.4889 -0.6775 1.1739
C35 C 0.4286(5) -0.73876(18) 1.1336(3)
H32 H 0.4631 -0.7540 1.1775
C36 C 0.4172(4) -0.62146(16) 1.0607(3)
C37 C 0.1377(6) -0.8533(2) 0.7270(6)
H33 H 0.1151 -0.8712 0.7518
C38 C 0.1573(6) -0.8085(2) 0.7471(5)
H34 H 0.1500 -0.7977 0.7852
C39 C 0.1883(5) -0.78016(19) 0.7106(4)
C40 C 0.1982(6) -0.7996(2) 0.6557(4)
H35 H 0.2191 -0.7826 0.6290
C41 C 0.1764(7) -0.8451(2) 0.6401(5)
H36 H 0.1828 -0.8572 0.6023
C42 C 0.2039(4) -0.73131(18) 0.7276(3)
C43 C 0.2205(5) -0.7156(2) 0.7936(4)
H37 H 0.2265 -0.7360 0.8285
C44 C 0.2283(5) -0.67034(19) 0.8089(3)
H38 H 0.2397 -0.6607 0.8539
C45 C 0.2194(4) -0.63915(17) 0.7579(3)
C46 C 0.2061(5) -0.65447(18) 0.6926(3)
H39 H 0.2025 -0.6340 0.6584
C47 C 0.1984(5) -0.69971(19) 0.6776(3)
H40 H 0.1893 -0.7092 0.6331
C48 C 0.2293(4) -0.59046(17) 0.7786(3)
C49 C 0.7015(6) -0.8503(2) 1.1820(4)
H41 H 0.7090 -0.8640 1.1458
C50 C 0.7166(6) -0.80399(19) 1.1912(4)
H42 H 0.7348 -0.7878 1.1622
C51 C 0.7038(4) -0.78250(18) 1.2441(3)
C52 C 0.6796(5) -0.80953(19) 1.2861(3)
H43 H 0.6709 -0.7971 1.3226
C53 C 0.6677(5) -0.8551(2) 1.2733(4)
H44 H 0.6517 -0.8723 1.3026
C54 C 0.7137(4) -0.73339(18) 1.2542(3)
C55 C 0.6897(5) -0.70480(18) 1.1959(3)
H45 H 0.6705 -0.7171 1.1507
C56 C 0.6932(5) -0.65827(18) 1.2036(3)
H46 H 0.6775 -0.6399 1.1642
C57 C 0.7205(4) -0.63993(17) 1.2710(3)
C58 C 0.7447(4) -0.66783(18) 1.3294(3)
H47 H 0.7629 -0.6557 1.3745
C59 C 0.7417(5) -0.71384(18) 1.3205(3)
H48 H 0.7590 -0.7323 1.3603
C60 C 0.7267(4) -0.59008(17) 1.2820(3)
C61 C -0.1482(6) -0.8722(2) 0.6532(4)
H49 H -0.1156 -0.8858 0.6986
C62 C -0.1293(5) -0.8271(2) 0.6487(3)
H50 H -0.0855 -0.8113 0.6905
C63 C -0.1748(4) -0.80539(17) 0.5825(3)
C64 C -0.2391(5) -0.83163(19) 0.5229(3)
H51 H -0.2724 -0.8191 0.4767
C65 C -0.2536(5) -0.8761(2) 0.5329(3)
H52 H -0.2970 -0.8927 0.4920
C66 C -0.1564(4) -0.75678(17) 0.5777(3)
C67 C -0.0699(4) -0.73560(18) 0.6327(3)
H53 H -0.0232 -0.7523 0.6724
C68 C -0.0521(4) -0.69023(17) 0.6293(3)
H54 H 0.0051 -0.6769 0.6672
C69 C -0.1186(4) -0.66486(16) 0.5699(3)
C70 C -0.2053(4) -0.68535(18) 0.5162(3)
H55 H -0.2520 -0.6686 0.4767
C71 C -0.2242(5) -0.73026(18) 0.5202(3)
H56 H -0.2835 -0.7430 0.4834
C72 C -0.0952(4) -0.61639(17) 0.5629(3)
C73 C 0.0485(6) -0.1301(2) 1.5433(4)
H57 H 0.0877 -0.1168 1.5261
C74 C 0.0496(6) -0.1762(2) 1.5479(4)
H58 H 0.0873 -0.1931 1.5331
C75 C -0.0060(5) -0.1967(2) 1.5749(4)
C76 C -0.0601(6) -0.1693(2) 1.5944(5)
H59 H -0.0982 -0.1815 1.6133
C77 C -0.0589(6) -0.1236(2) 1.5861(5)
H60 H -0.0983 -0.1059 1.5985
C78 C -0.0062(5) -0.24628(19) 1.5821(4)
C79 C -0.0026(5) -0.27420(19) 1.5309(3)
H61 H -0.0036 -0.2618 1.4905
C80 C 0.0026(4) -0.32039(18) 1.5399(3)
H62 H 0.0047 -0.3386 1.5054
C81 C 0.0042(4) -0.33933(17) 1.5997(3)
C82 C -0.0026(5) -0.31189(19) 1.6492(3)
H63 H -0.0029 -0.3245 1.6890
C83 C -0.0089(5) -0.26556(19) 1.6401(4)
H64 H -0.0151 -0.2476 1.6733
C84 C 0.0221(4) -0.38899(15) 1.6149(3)
C85 C 0.0686(5) -0.4370(2) 1.2758(3)
H65 H 0.0767 -0.4099 1.2996
C86 C 0.1071(5) -0.4407(2) 1.2294(4)
H66 H 0.1399 -0.4164 1.2226
C87 C 0.0969(4) -0.48054(18) 1.1937(3)
C88 C 0.0459(4) -0.51466(19) 1.2055(3)
H67 H 0.0354 -0.5418 1.1813
C89 C 0.0094(4) -0.50878(18) 1.2528(3)
H68 H -0.0239 -0.5324 1.2606
C90 C 0.1401(4) -0.48644(17) 1.1458(3)
C91 C 0.0957(4) -0.51609(19) 1.0878(3)
H69 H 0.0372 -0.5316 1.0781
C92 C 0.1379(4) -0.52249(18) 1.0441(3)
H70 H 0.1060 -0.5413 1.0040
C93 C 0.2275(4) -0.50078(17) 1.0598(3)
C94 C 0.2730(4) -0.47075(18) 1.1174(3)
H71 H 0.3321 -0.4557 1.1274
C95 C 0.2283(4) -0.46379(18) 1.1598(3)
H72 H 0.2573 -0.4434 1.1978
C96 C 0.2754(4) -0.51191(17) 1.0153(3)
Gd1B Gd 0.622221(19) -0.464088(8) 1.060555(13)
Gd2B Gd 0.867830(18) -0.531440(8) 1.440100(12)
Gd2B_2 Gd -0.132170(18) -0.531440(8) 0.440100(12)
Gd2_2 Gd 0.132170(18) -0.468560(8) 0.559900(12)
Cu1B Cu 0.47130(5) -0.45901(2) 0.86497(3)
Cu2B Cu 0.75321(5) -0.502421(19) 1.24556(3)
Cu3B Cu -0.01869(5) -0.464266(19) 1.36541(3)
O2B O -0.1358(3) -0.49429(12) 0.5417(2)
O9B O 0.2864(3) -0.43401(11) 0.77106(19)
O10B O 0.2542(3) -0.42481(11) 1.65798(19)
O12B O 0.1453(3) -0.40210(12) 1.4970(2)
O17B O 0.4572(3) -0.46388(11) 0.95141(18)
H1B H 0.4220 -0.4328 0.9495
O18B O 0.6154(3) -0.48749(11) 1.16912(18)
H2B H 0.5900 -0.4690 1.1891
O19_2 O 0.1152(3) -0.48551(11) 1.66992(17)
H3_2 H 0.1063 -0.4523 1.6807
O20_2 O 0.0327(3) -0.53431(11) 1.54917(18)
O20B O -0.0327(3) -0.46569(11) 1.45083(18)
H4_2 H 0.0572 -0.5641 1.5329
H4B H -0.0572 -0.4359 1.4671
N8B N -0.0205(3) -0.53013(14) 0.7119(2)
loop_
_geom_bond_atom_site_label_1
_geom_bond_atom_site_label_2
_geom_bond_site_symmetry_1
_geom_bond_site_symmetry_2
Gd1 O3 1_555 1_555
Gd2 O1 1_555 1_555
Cu1 O5 1_555 1_555
Cu2 O7 1_555 1_555
Cu3 O7 1_555 1_555
O1 C12 1_555 1_555
O2 Gd2 1_555 1_555
O3 C24 1_555 1_555
O4 C24 1_555 1_555
O5 C36 1_555 1_555
O6 Gd1 1_555 1_555
O7 C48 1_555 1_555
O8 Gd1 1_555 1_555
O9 Cu1 1_555 1_555
O10 C60 1_555 1_555
O11 Cu3 1_555 1_555
O12 C72 1_555 1_555
O13 Gd2 1_555 1_555
O14 C84 1_555 1_555
O15 Gd1 1_555 1_555
O16 Gd1 1_555 1_555
O17 Gd1 1_555 1_555
H1 O17 1_555 1_555
O18 Gd1 1_555 1_555
H2 O18 1_555 1_555
O19 Cu2 1_555 1_555
H3 O19 1_555 1_555
O20 Cu3 1_555 1_555
H4 O20 1_555 1_555
O21 Gd1 1_555 1_555
H5 O21 1_555 1_555
H6 O21 1_555 1_555
O22 Gd2 1_555 1_555
H7 O22 1_555 1_555
H8 O22 1_555 1_555
N1 Cu1 1_555 1_555
N2 C13 1_555 1_555
N3 C25 1_555 1_555
N4 C37 1_555 1_555
N5 C49 1_555 1_555
N6 C61 1_555 1_555
N7 C73 1_555 1_555
N8 C85 1_555 1_555
C1 N1 1_555 1_555
H9 C1 1_555 1_555
C2 C1 1_555 1_555
H10 C2 1_555 1_555
C3 C2 1_555 1_555
C4 C3 1_555 1_555
H11 C4 1_555 1_555
C5 N1 1_555 1_555
H12 C5 1_555 1_555
C6 C3 1_555 1_555
C7 C6 1_555 1_555
H13 C7 1_555 1_555
C8 C7 1_555 1_555
H14 C8 1_555 1_555
C9 C8 1_555 1_555
C10 C9 1_555 1_555
H15 C10 1_555 1_555
C11 C6 1_555 1_555
H16 C11 1_555 1_555
C12 O2 1_555 1_555
C13 H17 1_555 1_555
C14 C13 1_555 1_555
H18 C14 1_555 1_555
C15 C14 1_555 1_555
C16 C15 1_555 1_555
H19 C16 1_555 1_555
C17 N2 1_555 1_555
H20 C17 1_555 1_555
C18 C15 1_555 1_555
C19 C18 1_555 1_555
H21 C19 1_555 1_555
C20 C19 1_555 1_555
H22 C20 1_555 1_555
C21 C20 1_555 1_555
C22 C21 1_555 1_555
H23 C22 1_555 1_555
C23 C18 1_555 1_555
H24 C23 1_555 1_555
C24 C21 1_555 1_555
C25 H25 1_555 1_555
C26 C25 1_555 1_555
H26 C26 1_555 1_555
C27 C26 1_555 1_555
C28 C27 1_555 1_555
H27 C28 1_555 1_555
C29 N3 1_555 1_555
H28 C29 1_555 1_555
C30 C27 1_555 1_555
C31 C30 1_555 1_555
H29 C31 1_555 1_555
C32 C31 1_555 1_555
H30 C32 1_555 1_555
C33 C32 1_555 1_555
C34 C33 1_555 1_555
H31 C34 1_555 1_555
C35 C30 1_555 1_555
H32 C35 1_555 1_555
C36 O6 1_555 1_555
C37 H33 1_555 1_555
C38 C37 1_555 1_555
H34 C38 1_555 1_555
C39 C38 1_555 1_555
C40 C39 1_555 1_555
H35 C40 1_555 1_555
C41 N4 1_555 1_555
H36 C41 1_555 1_555
C42 C39 1_555 1_555
C43 C42 1_555 1_555
H37 C43 1_555 1_555
C44 C43 1_555 1_555
H38 C44 1_555 1_555
C45 C44 1_555 1_555
C46 C45 1_555 1_555
H39 C46 1_555 1_555
C47 C42 1_555 1_555
H40 C47 1_555 1_555
C48 O8 1_555 1_555
C49 H41 1_555 1_555
C50 C49 1_555 1_555
H42 C50 1_555 1_555
C51 C50 1_555 1_555
C52 C51 1_555 1_555
H43 C52 1_555 1_555
C53 N5 1_555 1_555
H44 C53 1_555 1_555
C54 C51 1_555 1_555
C55 C54 1_555 1_555
H45 C55 1_555 1_555
C56 C55 1_555 1_555
H46 C56 1_555 1_555
C57 C56 1_555 1_555
C58 C57 1_555 1_555
H47 C58 1_555 1_555
C59 C54 1_555 1_555
H48 C59 1_555 1_555
C60 O9 1_555 1_555
C61 H49 1_555 1_555
C62 C61 1_555 1_555
H50 C62 1_555 1_555
C63 C62 1_555 1_555
C64 C63 1_555 1_555
H51 C64 1_555 1_555
C65 N6 1_555 1_555
H52 C65 1_555 1_555
C66 C63 1_555 1_555
C67 C66 1_555 1_555
H53 C67 1_555 1_555
C68 C67 1_555 1_555
H54 C68 1_555 1_555
C69 C68 1_555 1_555
C70 C69 1_555 1_555
H55 C70 1_555 1_555
C71 C66 1_555 1_555
H56 C71 1_555 1_555
C72 O11 1_555 1_555
C73 H57 1_555 1_555
C74 C73 1_555 1_555
H58 C74 1_555 1_555
C75 C74 1_555 1_555
C76 C75 1_555 1_555
H59 C76 1_555 1_555
C77 N7 1_555 1_555
H60 C77 1_555 1_555
C78 C75 1_555 1_555
C79 C78 1_555 1_555
H61 C79 1_555 1_555
C80 C79 1_555 1_555
H62 C80 1_555 1_555
C81 C80 1_555 1_555
C82 C81 1_555 1_555
H63 C82 1_555 1_555
C83 C78 1_555 1_555
H64 C83 1_555 1_555
C84 O13 1_555 1_555
C85 H65 1_555 1_555
C86 C85 1_555 1_555
H66 C86 1_555 1_555
C87 C86 1_555 1_555
C88 C87 1_555 1_555
H67 C88 1_555 1_555
C89 N8 1_555 1_555
H68 C89 1_555 1_555
C90 C87 1_555 1_555
C91 C90 1_555 1_555
H69 C91 1_555 1_555
C92 C91 1_555 1_555
H70 C92 1_555 1_555
C93 C92 1_555 1_555
C94 C93 1_555 1_555
H71 C94 1_555 1_555
C95 C90 1_555 1_555
H72 C95 1_555 1_555
C96 O15 1_555 1_555
Gd1B O17 1_555 1_555
Gd2B O10 1_555 1_555
Gd2B_2 O12 1_555 1_555
Gd2_2 O19 1_555 1_555
Cu1B O18 1_555 1_555
Cu2B O9 1_555 1_555
Cu3B O2 1_555 1_555
O2B Cu3 1_555 1_555
O9B Cu2 1_555 1_555
O10B Gd2 1_555 1_555
O12B Gd2 1_555 1_555
O17B Gd1 1_555 1_555
H1B O17B 1_555 1_555
O18B Cu1 1_555 1_555
H2B O18B 1_555 1_555
O19_2 Gd2 1_555 1_555
H3_2 O19_2 1_555 1_555
O20_2 Gd2 1_555 1_555
O20B Gd2 1_555 1_555
H4_2 O20_2 1_555 1_555
H4B O20B 1_555 1_555
N8B Cu3 1_555 1_555
Cu1 O16 1_555 1_555
Cu1 O17 1_555 1_555
Cu2 O18 1_555 1_555
Cu2 O21 1_555 1_555
Cu3 O19 1_555 1_555
O16 C96 1_555 1_555
O20 Gd2B_2 1_555 1_555
O20 Gd2_2 1_555 1_555
N8 Cu3B 1_555 1_555
C4 C5 1_555 1_555
C9 C12 1_555 1_555
C10 C11 1_555 1_555
C16 C17 1_555 1_555
C22 C23 1_555 1_555
C28 C29 1_555 1_555
C33 C36 1_555 1_555
C34 C35 1_555 1_555
C40 C41 1_555 1_555
C45 C48 1_555 1_555
C46 C47 1_555 1_555
C52 C53 1_555 1_555
C57 C60 1_555 1_555
C58 C59 1_555 1_555
C64 C65 1_555 1_555
C69 C72 1_555 1_555
C70 C71 1_555 1_555
C76 C77 1_555 1_555
C81 C84 1_555 1_555
C82 C83 1_555 1_555
C88 C89 1_555 1_555
C93 C96 1_555 1_555
C94 C95 1_555 1_555
Gd1B O17B 1_555 1_555
Gd1B O18B 1_555 1_555
Gd2B_2 O2B 1_555 1_555
Cu1B O9B 1_555 1_555
Cu1B O17B 1_555 1_555
Cu2B O18B 1_555 1_555
Cu3B O20B 1_555 1_555

#END
