
#######################################################################
#
#                 Cambridge Crystallographic Data Centre
#                                CCDC 
#
#######################################################################
#
# If this CIF has been generated from an entry in the Cambridge 
# Structural Database, then it will include bibliographic, chemical, 
# crystal, experimental, refinement or atomic coordinate data resulting 
# from the CCDC's data processing and validation procedures.
#
#######################################################################

data_IBOYUV
_symmetry_cell_setting           monoclinic
_symmetry_space_group_name_H-M   'P 21/c'
_symmetry_Int_Tables_number      14
_space_group_name_Hall           '-P 2ybc'
loop_
_symmetry_equiv_pos_site_id
_symmetry_equiv_pos_as_xyz
1 x,y,z
2 -x,1/2+y,1/2-z
3 -x,-y,-z
4 x,1/2-y,1/2+z
_cell_length_a                   15.166(2)
_cell_length_b                   29.955(4)
_cell_length_c                   21.596(2)
_cell_angle_alpha                90
_cell_angle_beta                 120.309(7)
_cell_angle_gamma                90
_cell_volume                     8470
loop_
_atom_site_label
_atom_site_type_symbol
_atom_site_fract_x
_atom_site_fract_y
_atom_site_fract_z
Pr1 Pr 0.373423(19) 0.464298(8) 0.938794(12)
Pr2 Pr 0.135420(18) 0.531740(8) 1.560710(12)
Cu1 Cu 0.52682(4) 0.459370(17) 1.13500(3)
Cu2 Cu 0.24606(4) 0.502483(17) 0.75416(3)
Cu3 Cu 0.01764(4) 0.464026(17) 0.63467(3)
O1 O 0.2835(3) 0.52322(11) 1.54007(17)
O2 O 0.1383(2) 0.49391(11) 1.45714(17)
O3 O 0.4817(3) 0.41100(10) 0.92631(18)
O4 O 0.4578(3) 0.40646(11) 0.8155(2)
O5 O 0.4838(3) 0.39677(10) 1.11905(17)
O6 O 0.3646(3) 0.39729(11) 1.00259(18)
O7 O 0.2104(2) 0.43839(10) 0.72878(17)
O8 O 0.2433(3) 0.42051(10) 0.83773(17)
O9 O 0.7138(3) 0.43413(10) 1.22781(17)
O10 O 0.7383(2) 0.42490(10) 1.33767(17)
O11 O -0.0255(3) 0.40116(10) 0.61983(17)
O12 O -0.1490(3) 0.40140(11) 0.50419(17)
O13 O 0.0258(3) 0.58921(11) 1.56634(18)
O14 O 0.0324(3) 0.59658(11) 1.67095(18)
O15 O 0.2205(3) 0.46962(11) 0.95813(16)
O16 O 0.3651(3) 0.50079(11) 1.04034(17)
O17 O 0.5434(2) 0.46308(10) 1.05119(16)
H1 H 0.5494 0.4439 1.0336
O18 O 0.3842(2) 0.48753(10) 0.82975(15)
H2 H 0.4151 0.4640 0.8213
O19 O 0.1146(2) 0.51435(10) 0.67037(15)
H3 H 0.0961 0.5373 0.6813
O20 O 0.0330(2) 0.46463(9) 0.55069(15)
H4 H 0.0599 0.4403 0.5372
O21 O 0.2230(3) 0.51857(11) 0.85511(17)
H5 H 0.2399 0.5422 0.8733
H6 H 0.1675 0.5132 0.8597
O22 O 0.2538(3) 0.46725(11) 1.62989(18)
H7 H 0.3057 0.4518 1.6288
H8 H 0.2774 0.4920 1.6519
N1 N 0.4824(3) 0.46220(12) 1.2078(2)
N2 N 0.3301(4) 0.09655(14) 1.0821(3)
N3 N 0.5202(4) 0.10412(16) 0.9318(3)
N4 N -0.2055(4) 0.10359(15) 0.6005(3)
N5 N 0.6799(4) 0.12512(15) 1.2237(3)
N6 N -0.0060(5) 0.89606(18) 1.5583(4)
N7 N 0.1516(6) 0.1291(2) 0.6800(5)
N8 N 0.0215(3) 0.53069(12) 1.2894(2)
C1 C 0.5308(4) 0.48591(18) 1.2675(3)
H9 H 0.5925 0.5003 1.2780
C2 C 0.4969(4) 0.4909(2) 1.3155(3)
H10 H 0.5362 0.5077 1.3582
C3 C 0.4057(4) 0.47162(15) 1.3020(2)
C4 C 0.3577(4) 0.44532(17) 1.2409(3)
H11 H 0.2966 0.4300 1.2298
C5 C 0.3972(4) 0.44097(16) 1.1958(3)
H12 H 0.3628 0.4223 1.1548
C6 C 0.3627(4) 0.47893(17) 1.3496(3)
C7 C 0.4007(5) 0.51210(19) 1.4005(3)
H13 H 0.4554 0.5302 1.4056
C8 C 0.3600(4) 0.51954(19) 1.4448(3)
H14 H 0.3881 0.5419 1.4809
C9 C 0.2784(4) 0.49401(16) 1.4357(2)
C10 C 0.2403(4) 0.46096(18) 1.3849(3)
H15 H 0.1840 0.4435 1.3786
C11 C 0.2830(4) 0.45285(18) 1.3430(3)
H16 H 0.2576 0.4291 1.3092
C12 C 0.2317(4) 0.50465(15) 1.4808(2)
C13 C 0.4764(6) 0.1299(2) 0.9592(4)
H17 H 0.4517 0.1164 0.9873
C14 C 0.4658(5) 0.1757(2) 0.9482(4)
H18 H 0.4344 0.1928 0.9689
C15 C 0.4998(4) 0.19664(17) 0.9077(3)
C16 C 0.5398(4) 0.16947(17) 0.8763(3)
H19 H 0.5602 0.1817 0.8449
C17 C 0.5499(5) 0.12382(18) 0.8911(4)
H20 H 0.5801 0.1059 0.8705
C18 C 0.4945(4) 0.24608(17) 0.8984(3)
C19 C 0.4785(4) 0.26587(17) 0.8348(3)
H21 H 0.4708 0.2474 0.7966
C20 C 0.4738(4) 0.31185(17) 0.8265(3)
H22 H 0.4623 0.3247 0.7828
C21 C 0.4857(4) 0.33888(16) 0.8818(3)
C22 C 0.5024(4) 0.31994(17) 0.9459(3)
H23 H 0.5111 0.3385 0.9842
C23 C 0.5062(4) 0.27410(17) 0.9534(3)
H24 H 0.5170 0.2614 0.9970
C24 C 0.4750(4) 0.38985(15) 0.8724(3)
C25 C 0.4167(5) 0.1178(2) 1.1275(4)
H25 H 0.4715 0.1007 1.1633
C26 C 0.4307(5) 0.16296(18) 1.1250(3)
H26 H 0.4947 0.1761 1.1573
C27 C 0.3511(4) 0.18929(16) 1.0752(3)
C28 C 0.2626(4) 0.16727(16) 1.0271(3)
H27 H 0.2069 0.1835 0.9904
C29 C 0.2554(4) 0.12148(17) 1.0326(3)
H28 H 0.1936 0.1071 0.9991
C30 C 0.3625(4) 0.23856(15) 1.0730(3)
C31 C 0.4271(4) 0.26201(17) 1.1345(3)
H29 H 0.4616 0.2468 1.1792
C32 C 0.4424(4) 0.30799(16) 1.1321(3)
H30 H 0.4866 0.3238 1.1749
C33 C 0.3936(4) 0.33014(15) 1.0677(2)
C34 C 0.3276(4) 0.30699(17) 1.0065(3)
H31 H 0.2927 0.3223 0.9620
C35 C 0.3113(4) 0.26127(18) 1.0091(3)
H32 H 0.2646 0.2458 0.9666
C36 C 0.4151(4) 0.37881(15) 1.0620(2)
C37 C 0.1430(7) 0.1476(2) 0.7327(5)
H33 H 0.1236 0.1287 0.7592
C38 C 0.1604(6) 0.1925(2) 0.7520(5)
H34 H 0.1534 0.2037 0.7904
C39 C 0.1887(5) 0.22083(19) 0.7130(4)
C40 C 0.1978(6) 0.2017(2) 0.6572(4)
H35 H 0.2162 0.2195 0.6291
C41 C 0.1796(7) 0.1564(3) 0.6439(5)
H36 H 0.1875 0.1438 0.6066
C42 C 0.2024(4) 0.27001(17) 0.7284(4)
C43 C 0.1986(4) 0.30096(17) 0.6793(3)
H37 H 0.1915 0.2910 0.6353
C44 C 0.2050(4) 0.34611(16) 0.6937(3)
H38 H 0.2012 0.3668 0.6591
C45 C 0.2168(4) 0.36166(15) 0.7575(3)
C46 C 0.2240(5) 0.33062(17) 0.8080(3)
H39 H 0.2334 0.3405 0.8527
C47 C 0.2175(5) 0.28555(18) 0.7929(3)
H40 H 0.2236 0.2647 0.8280
C48 C 0.2239(3) 0.40980(14) 0.7764(2)
C49 C 0.7046(5) 0.1509(2) 1.1844(4)
H41 H 0.7131 0.1370 1.1482
C50 C 0.7188(5) 0.19650(19) 1.1931(3)
H42 H 0.7382 0.2130 1.1642
C51 C 0.7047(4) 0.21808(17) 1.2440(3)
C52 C 0.6801(4) 0.19158(18) 1.2857(3)
H43 H 0.6712 0.2046 1.3223
C53 C 0.6687(5) 0.14636(18) 1.2737(3)
H44 H 0.6517 0.1290 1.3030
C54 C 0.7118(4) 0.26770(16) 1.2529(3)
C55 C 0.7379(4) 0.28715(17) 1.3184(3)
H45 H 0.7537 0.2687 1.3585
C56 C 0.7410(4) 0.33290(16) 1.3260(3)
H46 H 0.7595 0.3455 1.3713
C57 C 0.7178(4) 0.36075(15) 1.2687(3)
C58 C 0.6932(4) 0.34153(17) 1.2032(3)
H47 H 0.6781 0.3601 1.1634
C59 C 0.6904(5) 0.29567(17) 1.1954(3)
H48 H 0.6739 0.2831 1.1504
C60 C 0.7229(3) 0.40993(15) 1.2789(2)
C61 C -0.2503(5) 0.12375(18) 0.5368(3)
H49 H -0.2937 0.1065 0.4955
C62 C -0.2369(5) 0.16868(17) 0.5275(3)
H50 H -0.2730 0.1815 0.4809
C63 C -0.1714(4) 0.19467(17) 0.5855(3)
C64 C -0.1265(5) 0.1734(2) 0.6510(3)
H51 H -0.0830 0.1899 0.6932
C65 C -0.1435(6) 0.12840(19) 0.6565(3)
H52 H -0.1091 0.1148 0.7026
C66 C -0.1534(4) 0.24322(16) 0.5802(3)
C67 C -0.2213(4) 0.26877(17) 0.5207(3)
H53 H -0.2805 0.2551 0.4828
C68 C -0.2036(4) 0.31361(17) 0.5162(3)
H54 H -0.2505 0.3302 0.4752
C69 C -0.1183(4) 0.33477(15) 0.5709(2)
C70 C -0.0537(4) 0.31013(16) 0.6313(3)
H55 H 0.0031 0.3243 0.6705
C71 C -0.0708(4) 0.26513(16) 0.6353(3)
H56 H -0.0246 0.2489 0.6770
C72 C -0.0970(4) 0.38310(15) 0.5637(2)
C73 C 0.0494(5) 0.8693(2) 1.5415(4)
H57 H 0.0903 0.8825 1.5247
C74 C 0.0501(5) 0.8233(2) 1.5475(4)
H58 H 0.0889 0.8056 1.5334
C75 C -0.0051(5) 0.80384(19) 1.5736(3)
C76 C -0.0600(5) 0.8306(2) 1.5917(4)
H59 H -0.0986 0.8178 1.6107
C77 C -0.0614(6) 0.8768(2) 1.5831(4)
H60 H -0.1023 0.8947 1.5950
C78 C -0.0047(4) 0.75416(17) 1.5815(3)
C79 C -0.0007(4) 0.72615(17) 1.5320(3)
H61 H -0.0017 0.7385 1.4911
C80 C 0.0047(4) 0.68013(16) 1.5415(3)
H62 H 0.0076 0.6614 1.5071
C81 C 0.0059(4) 0.66147(16) 1.5999(3)
C82 C -0.0029(4) 0.68904(17) 1.6485(3)
H63 H -0.0047 0.6764 1.6881
C83 C -0.0089(4) 0.73486(17) 1.6391(3)
H64 H -0.0160 0.7534 1.6720
C84 C 0.0215(4) 0.61176(15) 1.6151(3)
C85 C 0.0153(4) 0.49114(18) 1.2571(3)
H65 H -0.0139 0.4664 1.2678
C86 C 0.0497(4) 0.48515(17) 1.2093(3)
H66 H 0.0418 0.4571 1.1866
C87 C 0.0957(4) 0.52046(16) 1.1947(2)
C88 C 0.1022(5) 0.55986(18) 1.2276(3)
H67 H 0.1322 0.5850 1.2187
C89 C 0.0654(5) 0.56347(18) 1.2741(3)
H68 H 0.0720 0.5915 1.2966
C90 C 0.1388(4) 0.51449(16) 1.1472(2)
C91 C 0.0945(4) 0.48495(17) 1.0902(3)
H69 H 0.0348 0.4690 1.0808
C92 C 0.1359(4) 0.47839(17) 1.0467(3)
H70 H 0.1035 0.4586 1.0070
C93 C 0.2236(4) 0.50026(15) 1.0604(2)
C94 C 0.2706(4) 0.53042(16) 1.1177(3)
H71 H 0.3313 0.5456 1.1275
C95 C 0.2265(4) 0.53771(16) 1.1602(3)
H72 H 0.2564 0.5587 1.1983
C96 C 0.2721(4) 0.49028(15) 1.0170(3)
Pr1B Pr 0.626577(19) 0.535702(8) 1.061206(12)
Pr2B Pr 0.864580(18) 0.468260(8) 1.439290(12)
Pr2B_2 Pr -0.135420(18) 0.468260(8) 0.439290(12)
Pr2_2 Pr 0.135420(18) 0.531740(8) 0.560710(12)
Cu1B Cu 0.47318(4) 0.540630(17) 0.86500(3)
Cu2B Cu 0.75394(4) 0.497517(17) 1.24584(3)
Cu3B Cu -0.01764(4) 0.535974(17) 1.36533(3)
O2B O -0.1383(2) 0.50609(11) 0.54286(17)
O9B O 0.2862(3) 0.56587(10) 0.77219(17)
O10B O 0.2617(2) 0.57510(10) 1.66233(17)
O12B O 0.1490(3) 0.59860(11) 1.49581(17)
O17B O 0.4566(2) 0.53692(10) 0.94881(16)
H1B H 0.4506 0.5561 0.9664
O18B O 0.6158(2) 0.51247(10) 1.17025(15)
H2B H 0.5849 0.5360 1.1787
O19_2 O 0.1146(2) 0.51435(10) 1.67037(15)
H3_2 H 0.0961 0.5373 1.6813
O20B O -0.0330(2) 0.53537(9) 1.44931(15)
O20_2 O 0.0330(2) 0.46463(9) 1.55069(15)
H4B H -0.0599 0.5597 1.4628
H4_2 H 0.0599 0.4403 1.5372
N8B N -0.0215(3) 0.46931(12) 0.7106(2)
loop_
_geom_bond_atom_site_label_1
_geom_bond_atom_site_label_2
_geom_bond_site_symmetry_1
_geom_bond_site_symmetry_2
Pr1 O3 1_555 1_555
Pr2 O1 1_555 1_555
Cu1 O5 1_555 1_555
Cu2 O7 1_555 1_555
Cu3 O7 1_555 1_555
O1 C12 1_555 1_555
O2 Pr2 1_555 1_555
O3 C24 1_555 1_555
O4 C24 1_555 1_555
O5 C36 1_555 1_555
O6 Pr1 1_555 1_555
O7 C48 1_555 1_555
O8 Pr1 1_555 1_555
O9 Cu1 1_555 1_555
O10 C60 1_555 1_555
O11 Cu3 1_555 1_555
O12 C72 1_555 1_555
O13 Pr2 1_555 1_555
O14 C84 1_555 1_555
O15 Pr1 1_555 1_555
O16 Pr1 1_555 1_555
O17 Pr1 1_555 1_555
H1 O17 1_555 1_555
O18 Pr1 1_555 1_555
H2 O18 1_555 1_555
O19 Cu2 1_555 1_555
H3 O19 1_555 1_555
O20 Cu3 1_555 1_555
H4 O20 1_555 1_555
O21 Pr1 1_555 1_555
H5 O21 1_555 1_555
H6 O21 1_555 1_555
O22 Pr2 1_555 1_555
H7 O22 1_555 1_555
H8 O22 1_555 1_555
N1 Cu1 1_555 1_555
N2 C25 1_555 1_555
N3 C13 1_555 1_555
N4 C61 1_555 1_555
N5 C49 1_555 1_555
N6 C73 1_555 1_555
N7 C37 1_555 1_555
N8 C85 1_555 1_555
C1 N1 1_555 1_555
H9 C1 1_555 1_555
C2 C1 1_555 1_555
H10 C2 1_555 1_555
C3 C2 1_555 1_555
C4 C3 1_555 1_555
H11 C4 1_555 1_555
C5 N1 1_555 1_555
H12 C5 1_555 1_555
C6 C3 1_555 1_555
C7 C6 1_555 1_555
H13 C7 1_555 1_555
C8 C7 1_555 1_555
H14 C8 1_555 1_555
C9 C8 1_555 1_555
C10 C9 1_555 1_555
H15 C10 1_555 1_555
C11 C6 1_555 1_555
H16 C11 1_555 1_555
C12 O2 1_555 1_555
C13 H17 1_555 1_555
C14 C13 1_555 1_555
H18 C14 1_555 1_555
C15 C14 1_555 1_555
C16 C15 1_555 1_555
H19 C16 1_555 1_555
C17 N3 1_555 1_555
H20 C17 1_555 1_555
C18 C15 1_555 1_555
C19 C18 1_555 1_555
H21 C19 1_555 1_555
C20 C19 1_555 1_555
H22 C20 1_555 1_555
C21 C20 1_555 1_555
C22 C21 1_555 1_555
H23 C22 1_555 1_555
C23 C18 1_555 1_555
H24 C23 1_555 1_555
C24 C21 1_555 1_555
C25 H25 1_555 1_555
C26 C25 1_555 1_555
H26 C26 1_555 1_555
C27 C26 1_555 1_555
C28 C27 1_555 1_555
H27 C28 1_555 1_555
C29 N2 1_555 1_555
H28 C29 1_555 1_555
C30 C27 1_555 1_555
C31 C30 1_555 1_555
H29 C31 1_555 1_555
C32 C31 1_555 1_555
H30 C32 1_555 1_555
C33 C32 1_555 1_555
C34 C33 1_555 1_555
H31 C34 1_555 1_555
C35 C30 1_555 1_555
H32 C35 1_555 1_555
C36 O6 1_555 1_555
C37 H33 1_555 1_555
C38 C37 1_555 1_555
H34 C38 1_555 1_555
C39 C38 1_555 1_555
C40 C39 1_555 1_555
H35 C40 1_555 1_555
C41 N7 1_555 1_555
H36 C41 1_555 1_555
C42 C39 1_555 1_555
C43 C42 1_555 1_555
H37 C43 1_555 1_555
C44 C43 1_555 1_555
H38 C44 1_555 1_555
C45 C44 1_555 1_555
C46 C45 1_555 1_555
H39 C46 1_555 1_555
C47 C42 1_555 1_555
H40 C47 1_555 1_555
C48 O8 1_555 1_555
C49 H41 1_555 1_555
C50 C49 1_555 1_555
H42 C50 1_555 1_555
C51 C50 1_555 1_555
C52 C51 1_555 1_555
H43 C52 1_555 1_555
C53 N5 1_555 1_555
H44 C53 1_555 1_555
C54 C51 1_555 1_555
C55 C54 1_555 1_555
H45 C55 1_555 1_555
C56 C55 1_555 1_555
H46 C56 1_555 1_555
C57 C56 1_555 1_555
C58 C57 1_555 1_555
H47 C58 1_555 1_555
C59 C54 1_555 1_555
H48 C59 1_555 1_555
C60 O9 1_555 1_555
C61 H49 1_555 1_555
C62 C61 1_555 1_555
H50 C62 1_555 1_555
C63 C62 1_555 1_555
C64 C63 1_555 1_555
H51 C64 1_555 1_555
C65 N4 1_555 1_555
H52 C65 1_555 1_555
C66 C63 1_555 1_555
C67 C66 1_555 1_555
H53 C67 1_555 1_555
C68 C67 1_555 1_555
H54 C68 1_555 1_555
C69 C68 1_555 1_555
C70 C69 1_555 1_555
H55 C70 1_555 1_555
C71 C66 1_555 1_555
H56 C71 1_555 1_555
C72 O11 1_555 1_555
C73 H57 1_555 1_555
C74 C73 1_555 1_555
H58 C74 1_555 1_555
C75 C74 1_555 1_555
C76 C75 1_555 1_555
H59 C76 1_555 1_555
C77 N6 1_555 1_555
H60 C77 1_555 1_555
C78 C75 1_555 1_555
C79 C78 1_555 1_555
H61 C79 1_555 1_555
C80 C79 1_555 1_555
H62 C80 1_555 1_555
C81 C80 1_555 1_555
C82 C81 1_555 1_555
H63 C82 1_555 1_555
C83 C78 1_555 1_555
H64 C83 1_555 1_555
C84 O13 1_555 1_555
C85 H65 1_555 1_555
C86 C85 1_555 1_555
H66 C86 1_555 1_555
C87 C86 1_555 1_555
C88 C87 1_555 1_555
H67 C88 1_555 1_555
C89 N8 1_555 1_555
H68 C89 1_555 1_555
C90 C87 1_555 1_555
C91 C90 1_555 1_555
H69 C91 1_555 1_555
C92 C91 1_555 1_555
H70 C92 1_555 1_555
C93 C92 1_555 1_555
C94 C93 1_555 1_555
H71 C94 1_555 1_555
C95 C90 1_555 1_555
H72 C95 1_555 1_555
C96 O15 1_555 1_555
Pr1B O17 1_555 1_555
Pr2B O10 1_555 1_555
Pr2B_2 O12 1_555 1_555
Pr2_2 O19 1_555 1_555
Cu1B O18 1_555 1_555
Cu2B O9 1_555 1_555
Cu3B O2 1_555 1_555
O2B Cu3 1_555 1_555
O9B Cu2 1_555 1_555
O10B Pr2 1_555 1_555
O12B Pr2 1_555 1_555
O17B Pr1 1_555 1_555
H1B O17B 1_555 1_555
O18B Cu1 1_555 1_555
H2B O18B 1_555 1_555
O19_2 Pr2 1_555 1_555
H3_2 O19_2 1_555 1_555
O20B Pr2 1_555 1_555
O20_2 Pr2 1_555 1_555
H4B O20B 1_555 1_555
H4_2 O20_2 1_555 1_555
N8B Cu3 1_555 1_555
Cu1 O16 1_555 1_555
Cu1 O17 1_555 1_555
Cu2 O18 1_555 1_555
Cu2 O21 1_555 1_555
Cu3 O19 1_555 1_555
O16 C96 1_555 1_555
O20 Pr2B_2 1_555 1_555
O20 Pr2_2 1_555 1_555
N8 Cu3B 1_555 1_555
C4 C5 1_555 1_555
C9 C12 1_555 1_555
C10 C11 1_555 1_555
C16 C17 1_555 1_555
C22 C23 1_555 1_555
C28 C29 1_555 1_555
C33 C36 1_555 1_555
C34 C35 1_555 1_555
C40 C41 1_555 1_555
C45 C48 1_555 1_555
C46 C47 1_555 1_555
C52 C53 1_555 1_555
C57 C60 1_555 1_555
C58 C59 1_555 1_555
C64 C65 1_555 1_555
C69 C72 1_555 1_555
C70 C71 1_555 1_555
C76 C77 1_555 1_555
C81 C84 1_555 1_555
C82 C83 1_555 1_555
C88 C89 1_555 1_555
C93 C96 1_555 1_555
C94 C95 1_555 1_555
Pr1B O17B 1_555 1_555
Pr1B O18B 1_555 1_555
Pr2B_2 O2B 1_555 1_555
Cu1B O9B 1_555 1_555
Cu1B O17B 1_555 1_555
Cu2B O18B 1_555 1_555
Cu3B O20B 1_555 1_555

#END
