
#######################################################################
#
#                 Cambridge Crystallographic Data Centre
#                                CCDC 
#
#######################################################################
#
# If this CIF has been generated from an entry in the Cambridge 
# Structural Database, then it will include bibliographic, chemical, 
# crystal, experimental, refinement or atomic coordinate data resulting 
# from the CCDC's data processing and validation procedures.
#
#######################################################################

data_IBOYEF
_symmetry_cell_setting           monoclinic
_symmetry_space_group_name_H-M   'P 21/c'
_symmetry_Int_Tables_number      14
_space_group_name_Hall           '-P 2ybc'
loop_
_symmetry_equiv_pos_site_id
_symmetry_equiv_pos_as_xyz
1 x,y,z
2 -x,1/2+y,1/2-z
3 -x,-y,-z
4 x,1/2-y,1/2+z
_cell_length_a                   15.2175(19)
_cell_length_b                   29.825(3)
_cell_length_c                   21.3743(18)
_cell_angle_alpha                90
_cell_angle_beta                 120.124(6)
_cell_angle_gamma                90
_cell_volume                     8390.78
loop_
_atom_site_label
_atom_site_type_symbol
_atom_site_fract_x
_atom_site_fract_y
_atom_site_fract_z
Eu1 Eu 0.377293(14) -0.535999(6) 0.939319(10)
Eu2 Eu 0.132740(13) -0.468570(6) 1.560000(10)
Cu1 Cu 0.52868(3) -0.541090(16) 1.13501(2)
Cu2 Cu 0.24666(3) -0.497507(15) 0.75453(2)
Cu3 Cu 0.01838(3) -0.535763(15) 0.63458(2)
O1 O 0.2797(2) -0.47485(10) 1.54097(15)
O2 O 0.13604(19) -0.50590(10) 1.45800(14)
O3 O 0.4835(2) -0.58793(9) 0.92643(15)
O4 O 0.4590(2) -0.59272(10) 0.81433(17)
O5 O 0.4863(2) -0.60369(9) 1.11909(14)
O6 O 0.3694(2) -0.60293(9) 1.00127(15)
O7 O 0.21079(19) -0.56139(9) 0.72894(14)
O8 O 0.2529(2) -0.58050(9) 0.84165(14)
O9 O 0.7132(2) -0.56581(9) 1.22853(14)
O10 O 0.74456(19) -0.57493(9) 1.34142(14)
O11 O -0.0239(2) -0.59883(9) 0.61990(14)
O12 O -0.1466(2) -0.59778(10) 0.50323(15)
O13 O 0.0266(2) -0.41180(9) 1.56612(15)
O14 O 0.0336(2) -0.40415(10) 1.67215(16)
O15 O 0.2252(2) -0.53335(9) 0.95718(14)
O16 O 0.3668(2) -0.50046(10) 1.03870(15)
O17 O 0.54342(19) -0.53609(9) 1.04938(13)
H1 H 0.5716 -0.5573 1.0453
O18 O 0.38490(18) -0.51262(9) 0.83109(13)
H2 H 0.4103 -0.5311 0.8111
O19 O 0.11528(19) -0.48529(9) 0.66970(13)
H3 H 0.0955 -0.4654 0.6736
O20 O 0.03235(19) -0.53432(10) 0.54930(13)
H4 H 0.0495 -0.5535 0.5476
O21 O 0.2281(2) -0.48285(9) 0.85745(15)
H5 H 0.2349 -0.4584 0.8713
H6 H 0.1772 -0.4945 0.8609
O22 O 0.2490(2) -0.53081(9) 1.62806(15)
H7 H 0.2691 -0.5427 1.6029
H8 H 0.2527 -0.5495 1.6591
N1 N 0.4839(2) -0.53874(11) 1.20873(17)
N2 N 0.5184(3) -0.89637(14) 0.9306(2)
N3 N 0.3288(3) -0.90477(12) 1.0804(2)
N4 N 0.1480(4) -0.87210(16) 0.6752(4)
N5 N 0.6782(3) -0.87590(13) 1.2230(2)
N6 N -0.2087(3) -0.89712(12) 0.5973(2)
N7 N -0.0046(4) -0.10321(15) 1.5614(3)
N8 N 0.0209(2) -0.46959(11) 1.28857(18)
C1 C 0.5330(3) -0.51498(15) 1.2696(2)
H9 H 0.5941 -0.5013 1.2806
C2 C 0.4979(3) -0.50992(16) 1.3178(2)
H10 H 0.5359 -0.4936 1.3603
C3 C 0.4064(3) -0.52902(13) 1.3031(2)
C4 C 0.3574(3) -0.55523(15) 1.2407(2)
H11 H 0.2973 -0.5699 1.2292
C5 C 0.3987(3) -0.55949(14) 1.1966(2)
H12 H 0.3655 -0.5779 1.1560
C6 C 0.3621(3) -0.52121(14) 1.3499(2)
C7 C 0.3995(4) -0.48740(17) 1.4021(3)
H13 H 0.4534 -0.4697 1.4079
C8 C 0.3580(4) -0.47964(17) 1.4459(3)
H14 H 0.3852 -0.4576 1.4816
C9 C 0.2760(3) -0.50500(14) 1.4366(2)
C10 C 0.2381(3) -0.53867(15) 1.3852(2)
H15 H 0.1824 -0.5554 1.3784
C11 C 0.2817(3) -0.54689(16) 1.3433(2)
H16 H 0.2570 -0.5702 1.3097
C12 C 0.2285(3) -0.49491(13) 1.4813(2)
C13 C 0.5503(4) -0.87616(16) 0.8899(3)
H17 H 0.5793 -0.8939 0.8691
C14 C 0.5400(3) -0.83049(15) 0.8753(3)
H18 H 0.5621 -0.8181 0.8456
C15 C 0.4988(3) -0.80299(15) 0.9065(2)
C16 C 0.4650(4) -0.82387(17) 0.9486(3)
H19 H 0.4346 -0.8074 0.9696
C17 C 0.4756(5) -0.87002(18) 0.9579(3)
H20 H 0.4513 -0.8836 0.9855
C18 C 0.4939(3) -0.75357(14) 0.8974(3)
C19 C 0.4775(3) -0.73372(15) 0.8333(3)
H21 H 0.4700 -0.7518 0.7953
C20 C 0.4729(3) -0.68774(15) 0.8248(2)
H22 H 0.4615 -0.6749 0.7815
C21 C 0.4865(3) -0.66005(13) 0.8819(2)
C22 C 0.5029(3) -0.67938(15) 0.9459(3)
H23 H 0.5122 -0.6612 0.9841
C23 C 0.5069(3) -0.72577(15) 0.9535(2)
H24 H 0.5177 -0.7383 0.9968
C24 C 0.4760(3) -0.60934(13) 0.8725(2)
C25 C 0.4154(4) -0.88393(16) 1.1263(3)
H25 H 0.4689 -0.9006 1.1614
C26 C 0.4295(3) -0.83802(15) 1.1242(3)
H26 H 0.4915 -0.8249 1.1561
C27 C 0.3501(3) -0.81165(14) 1.0743(2)
C28 C 0.2617(3) -0.83340(15) 1.0263(2)
H27 H 0.2068 -0.8172 0.9910
C29 C 0.2541(3) -0.87933(15) 1.0312(2)
H28 H 0.1941 -0.8933 0.9977
C30 C 0.3620(3) -0.76233(14) 1.0720(2)
C31 C 0.3086(4) -0.73824(16) 1.0084(2)
H29 H 0.2608 -0.7528 0.9665
C32 C 0.3260(4) -0.69309(16) 1.0065(2)
H30 H 0.2887 -0.6776 0.9631
C33 C 0.3949(3) -0.66983(13) 1.0668(2)
C34 C 0.4448(3) -0.69286(14) 1.1319(2)
H31 H 0.4889 -0.6777 1.1743
C35 C 0.4292(3) -0.73884(14) 1.1339(2)
H32 H 0.4637 -0.7540 1.1778
C36 C 0.4175(3) -0.62145(13) 1.0611(2)
C37 C 0.1375(5) -0.85311(19) 0.7269(4)
H33 H 0.1149 -0.8710 0.7517
C38 C 0.1570(4) -0.80852(18) 0.7466(4)
H34 H 0.1497 -0.7977 0.7847
C39 C 0.1882(3) -0.78019(16) 0.7096(3)
C40 C 0.1987(4) -0.79921(18) 0.6549(3)
H35 H 0.2196 -0.7822 0.6282
C41 C 0.1764(5) -0.84495(19) 0.6395(4)
H36 H 0.1827 -0.8571 0.6017
C42 C 0.2036(3) -0.73123(14) 0.7272(3)
C43 C 0.2208(4) -0.71594(16) 0.7932(3)
H37 H 0.2268 -0.7363 0.8281
C44 C 0.2284(4) -0.67058(15) 0.8087(3)
H38 H 0.2398 -0.6609 0.8537
C45 C 0.2190(3) -0.63922(14) 0.7579(2)
C46 C 0.2054(3) -0.65419(14) 0.6917(2)
H39 H 0.2018 -0.6337 0.6575
C47 C 0.1981(3) -0.69963(15) 0.6768(3)
H40 H 0.1890 -0.7092 0.6323
C48 C 0.2285(3) -0.59041(13) 0.7781(2)
C49 C 0.7028(4) -0.85026(16) 1.1830(3)
H41 H 0.7103 -0.8640 1.1468
C50 C 0.7174(4) -0.80393(16) 1.1920(3)
H42 H 0.7356 -0.7877 1.1630
C51 C 0.7054(3) -0.78241(14) 1.2445(3)
C52 C 0.6803(3) -0.80933(15) 1.2865(3)
H43 H 0.6716 -0.7968 1.3230
C53 C 0.6673(4) -0.85495(16) 1.2737(3)
H44 H 0.6513 -0.8721 1.3030
C54 C 0.7137(3) -0.73292(14) 1.2543(2)
C55 C 0.6909(3) -0.70454(15) 1.1960(3)
H45 H 0.6717 -0.7169 1.1508
C56 C 0.6935(3) -0.65864(14) 1.2041(2)
H46 H 0.6778 -0.6402 1.1647
C57 C 0.7199(3) -0.63961(13) 1.2708(2)
C58 C 0.7450(3) -0.66756(14) 1.3290(2)
H47 H 0.7632 -0.6555 1.3741
C59 C 0.7419(3) -0.71378(15) 1.3213(2)
H48 H 0.7592 -0.7322 1.3611
C60 C 0.7261(3) -0.59021(13) 1.2809(2)
C61 C -0.1477(4) -0.87226(16) 0.6546(3)
H49 H -0.1151 -0.8859 0.7000
C62 C -0.1289(4) -0.82700(16) 0.6491(3)
H50 H -0.0851 -0.8112 0.6909
C63 C -0.1744(3) -0.80516(14) 0.5831(2)
C64 C -0.2380(3) -0.83173(16) 0.5239(2)
H51 H -0.2713 -0.8192 0.4777
C65 C -0.2536(4) -0.87648(16) 0.5325(3)
H52 H -0.2970 -0.8931 0.4917
C66 C -0.1557(3) -0.75668(13) 0.5781(2)
C67 C -0.0702(3) -0.73575(14) 0.6332(2)
H53 H -0.0235 -0.7524 0.6729
C68 C -0.0525(3) -0.69023(14) 0.6294(2)
H54 H 0.0047 -0.6769 0.6673
C69 C -0.1190(3) -0.66482(13) 0.5699(2)
C70 C -0.2057(3) -0.68528(14) 0.5157(2)
H55 H -0.2524 -0.6685 0.4761
C71 C -0.2244(3) -0.73050(15) 0.5197(2)
H56 H -0.2837 -0.7432 0.4829
C72 C -0.0957(3) -0.61663(13) 0.5630(2)
C73 C 0.0496(4) -0.12996(19) 1.5431(3)
H57 H 0.0888 -0.1167 1.5259
C74 C 0.0503(4) -0.17639(17) 1.5485(3)
H58 H 0.0880 -0.1933 1.5337
C75 C -0.0062(3) -0.19641(15) 1.5746(3)
C76 C -0.0602(4) -0.16890(17) 1.5940(3)
H59 H -0.0983 -0.1811 1.6129
C77 C -0.0592(4) -0.12320(18) 1.5858(4)
H60 H -0.0986 -0.1055 1.5982
C78 C -0.0066(3) -0.24619(15) 1.5814(3)
C79 C -0.0028(3) -0.27423(15) 1.5310(3)
H61 H -0.0038 -0.2619 1.4906
C80 C 0.0028(3) -0.32035(15) 1.5401(2)
H62 H 0.0049 -0.3386 1.5056
C81 C 0.0041(3) -0.33894(14) 1.5999(2)
C82 C -0.0036(3) -0.31150(15) 1.6491(2)
H63 H -0.0039 -0.3241 1.6889
C83 C -0.0089(3) -0.26550(15) 1.6399(3)
H64 H -0.0151 -0.2475 1.6731
C84 C 0.0222(3) -0.38879(13) 1.6149(2)
C85 C 0.0677(4) -0.43667(16) 1.2753(3)
H65 H 0.0758 -0.4096 1.2991
C86 C 0.1064(4) -0.44054(16) 1.2291(3)
H66 H 0.1392 -0.4162 1.2223
C87 C 0.0969(3) -0.48044(15) 1.1935(2)
C88 C 0.0467(3) -0.51483(15) 1.2064(2)
H67 H 0.0362 -0.5420 1.1822
C89 C 0.0108(3) -0.50855(15) 1.2539(2)
H68 H -0.0225 -0.5322 1.2617
C90 C 0.1405(3) -0.48636(14) 1.1463(2)
C91 C 0.0955(3) -0.51587(15) 1.0879(2)
H69 H 0.0369 -0.5314 1.0782
C92 C 0.1378(3) -0.52249(15) 1.0447(2)
H70 H 0.1059 -0.5413 1.0046
C93 C 0.2271(3) -0.50045(13) 1.0598(2)
C94 C 0.2719(3) -0.47077(14) 1.1173(2)
H71 H 0.3310 -0.4557 1.1273
C95 C 0.2286(3) -0.46368(14) 1.1602(2)
H72 H 0.2577 -0.4433 1.1982
C96 C 0.2746(3) -0.51190(14) 1.0157(2)
Eu1B Eu 0.622707(14) -0.464001(6) 1.060681(10)
Eu2B Eu 0.867260(13) -0.531430(6) 1.440000(10)
Eu2B_2 Eu -0.132740(13) -0.531430(6) 0.440000(10)
Eu2_2 Eu 0.132740(13) -0.468570(6) 0.560000(10)
Cu1B Cu 0.47132(3) -0.458910(16) 0.86499(2)
Cu2B Cu 0.75334(3) -0.502493(15) 1.24547(2)
Cu3B Cu -0.01838(3) -0.464237(15) 1.36542(2)
O2B O -0.13604(19) -0.49410(10) 0.54200(14)
O9B O 0.2868(2) -0.43419(9) 0.77147(14)
O10B O 0.25544(19) -0.42507(9) 1.65858(14)
O12B O 0.1466(2) -0.40222(10) 1.49677(15)
O17B O 0.45658(19) -0.46391(9) 0.95062(13)
H1B H 0.4284 -0.4427 0.9547
O18B O 0.61510(18) -0.48738(9) 1.16891(13)
H2B H 0.5897 -0.4689 1.1889
O19_2 O 0.11528(19) -0.48529(9) 1.66970(13)
H3_2 H 0.0955 -0.4654 1.6736
O20B O -0.03235(19) -0.46568(10) 1.45070(13)
O20_2 O 0.03235(19) -0.53432(10) 1.54930(13)
H4B H -0.0495 -0.4465 1.4524
H4_2 H 0.0495 -0.5535 1.5476
N8B N -0.0209(2) -0.53041(11) 0.71143(18)
loop_
_geom_bond_atom_site_label_1
_geom_bond_atom_site_label_2
_geom_bond_site_symmetry_1
_geom_bond_site_symmetry_2
Eu1 O3 1_555 1_555
Eu2 O1 1_555 1_555
Cu1 O5 1_555 1_555
Cu2 O7 1_555 1_555
Cu3 O7 1_555 1_555
O1 C12 1_555 1_555
O2 Eu2 1_555 1_555
O3 C24 1_555 1_555
O4 C24 1_555 1_555
O5 C36 1_555 1_555
O6 Eu1 1_555 1_555
O7 C48 1_555 1_555
O8 Eu1 1_555 1_555
O9 Cu1 1_555 1_555
O10 C60 1_555 1_555
O11 Cu3 1_555 1_555
O12 C72 1_555 1_555
O13 Eu2 1_555 1_555
O14 C84 1_555 1_555
O15 Eu1 1_555 1_555
O16 Eu1 1_555 1_555
O17 Eu1 1_555 1_555
H1 O17 1_555 1_555
O18 Eu1 1_555 1_555
H2 O18 1_555 1_555
O19 Cu2 1_555 1_555
H3 O19 1_555 1_555
O20 Cu3 1_555 1_555
H4 O20 1_555 1_555
O21 Eu1 1_555 1_555
H5 O21 1_555 1_555
H6 O21 1_555 1_555
O22 Eu2 1_555 1_555
H7 O22 1_555 1_555
H8 O22 1_555 1_555
N1 Cu1 1_555 1_555
N2 C13 1_555 1_555
N3 C25 1_555 1_555
N4 C37 1_555 1_555
N5 C49 1_555 1_555
N6 C61 1_555 1_555
N7 C73 1_555 1_555
N8 C85 1_555 1_555
C1 N1 1_555 1_555
H9 C1 1_555 1_555
C2 C1 1_555 1_555
H10 C2 1_555 1_555
C3 C2 1_555 1_555
C4 C3 1_555 1_555
H11 C4 1_555 1_555
C5 N1 1_555 1_555
H12 C5 1_555 1_555
C6 C3 1_555 1_555
C7 C6 1_555 1_555
H13 C7 1_555 1_555
C8 C7 1_555 1_555
H14 C8 1_555 1_555
C9 C8 1_555 1_555
C10 C9 1_555 1_555
H15 C10 1_555 1_555
C11 C6 1_555 1_555
H16 C11 1_555 1_555
C12 O2 1_555 1_555
C13 H17 1_555 1_555
C14 C13 1_555 1_555
H18 C14 1_555 1_555
C15 C14 1_555 1_555
C16 C15 1_555 1_555
H19 C16 1_555 1_555
C17 N2 1_555 1_555
H20 C17 1_555 1_555
C18 C15 1_555 1_555
C19 C18 1_555 1_555
H21 C19 1_555 1_555
C20 C19 1_555 1_555
H22 C20 1_555 1_555
C21 C20 1_555 1_555
C22 C21 1_555 1_555
H23 C22 1_555 1_555
C23 C18 1_555 1_555
H24 C23 1_555 1_555
C24 C21 1_555 1_555
C25 H25 1_555 1_555
C26 C25 1_555 1_555
H26 C26 1_555 1_555
C27 C26 1_555 1_555
C28 C27 1_555 1_555
H27 C28 1_555 1_555
C29 N3 1_555 1_555
H28 C29 1_555 1_555
C30 C27 1_555 1_555
C31 C30 1_555 1_555
H29 C31 1_555 1_555
C32 C31 1_555 1_555
H30 C32 1_555 1_555
C33 C32 1_555 1_555
C34 C33 1_555 1_555
H31 C34 1_555 1_555
C35 C30 1_555 1_555
H32 C35 1_555 1_555
C36 O6 1_555 1_555
C37 H33 1_555 1_555
C38 C37 1_555 1_555
H34 C38 1_555 1_555
C39 C38 1_555 1_555
C40 C39 1_555 1_555
H35 C40 1_555 1_555
C41 N4 1_555 1_555
H36 C41 1_555 1_555
C42 C39 1_555 1_555
C43 C42 1_555 1_555
H37 C43 1_555 1_555
C44 C43 1_555 1_555
H38 C44 1_555 1_555
C45 C44 1_555 1_555
C46 C45 1_555 1_555
H39 C46 1_555 1_555
C47 C42 1_555 1_555
H40 C47 1_555 1_555
C48 O8 1_555 1_555
C49 H41 1_555 1_555
C50 C49 1_555 1_555
H42 C50 1_555 1_555
C51 C50 1_555 1_555
C52 C51 1_555 1_555
H43 C52 1_555 1_555
C53 N5 1_555 1_555
H44 C53 1_555 1_555
C54 C51 1_555 1_555
C55 C54 1_555 1_555
H45 C55 1_555 1_555
C56 C55 1_555 1_555
H46 C56 1_555 1_555
C57 C56 1_555 1_555
C58 C57 1_555 1_555
H47 C58 1_555 1_555
C59 C54 1_555 1_555
H48 C59 1_555 1_555
C60 O9 1_555 1_555
C61 H49 1_555 1_555
C62 C61 1_555 1_555
H50 C62 1_555 1_555
C63 C62 1_555 1_555
C64 C63 1_555 1_555
H51 C64 1_555 1_555
C65 N6 1_555 1_555
H52 C65 1_555 1_555
C66 C63 1_555 1_555
C67 C66 1_555 1_555
H53 C67 1_555 1_555
C68 C67 1_555 1_555
H54 C68 1_555 1_555
C69 C68 1_555 1_555
C70 C69 1_555 1_555
H55 C70 1_555 1_555
C71 C66 1_555 1_555
H56 C71 1_555 1_555
C72 O11 1_555 1_555
C73 H57 1_555 1_555
C74 C73 1_555 1_555
H58 C74 1_555 1_555
C75 C74 1_555 1_555
C76 C75 1_555 1_555
H59 C76 1_555 1_555
C77 N7 1_555 1_555
H60 C77 1_555 1_555
C78 C75 1_555 1_555
C79 C78 1_555 1_555
H61 C79 1_555 1_555
C80 C79 1_555 1_555
H62 C80 1_555 1_555
C81 C80 1_555 1_555
C82 C81 1_555 1_555
H63 C82 1_555 1_555
C83 C78 1_555 1_555
H64 C83 1_555 1_555
C84 O13 1_555 1_555
C85 H65 1_555 1_555
C86 C85 1_555 1_555
H66 C86 1_555 1_555
C87 C86 1_555 1_555
C88 C87 1_555 1_555
H67 C88 1_555 1_555
C89 N8 1_555 1_555
H68 C89 1_555 1_555
C90 C87 1_555 1_555
C91 C90 1_555 1_555
H69 C91 1_555 1_555
C92 C91 1_555 1_555
H70 C92 1_555 1_555
C93 C92 1_555 1_555
C94 C93 1_555 1_555
H71 C94 1_555 1_555
C95 C90 1_555 1_555
H72 C95 1_555 1_555
C96 O15 1_555 1_555
Eu1B O17 1_555 1_555
Eu2B O10 1_555 1_555
Eu2B_2 O12 1_555 1_555
Eu2_2 O19 1_555 1_555
Cu1B O18 1_555 1_555
Cu2B O9 1_555 1_555
Cu3B O2 1_555 1_555
O2B Cu3 1_555 1_555
O9B Cu2 1_555 1_555
O10B Eu2 1_555 1_555
O12B Eu2 1_555 1_555
O17B Eu1 1_555 1_555
H1B O17B 1_555 1_555
O18B Cu1 1_555 1_555
H2B O18B 1_555 1_555
O19_2 Eu2 1_555 1_555
H3_2 O19_2 1_555 1_555
O20B Eu2 1_555 1_555
O20_2 Eu2 1_555 1_555
H4B O20B 1_555 1_555
H4_2 O20_2 1_555 1_555
N8B Cu3 1_555 1_555
Cu1 O16 1_555 1_555
Cu1 O17 1_555 1_555
Cu2 O18 1_555 1_555
Cu2 O21 1_555 1_555
Cu3 O19 1_555 1_555
O16 C96 1_555 1_555
O20 Eu2B_2 1_555 1_555
O20 Eu2_2 1_555 1_555
N8 Cu3B 1_555 1_555
C4 C5 1_555 1_555
C9 C12 1_555 1_555
C10 C11 1_555 1_555
C16 C17 1_555 1_555
C22 C23 1_555 1_555
C28 C29 1_555 1_555
C33 C36 1_555 1_555
C34 C35 1_555 1_555
C40 C41 1_555 1_555
C45 C48 1_555 1_555
C46 C47 1_555 1_555
C52 C53 1_555 1_555
C57 C60 1_555 1_555
C58 C59 1_555 1_555
C64 C65 1_555 1_555
C69 C72 1_555 1_555
C70 C71 1_555 1_555
C76 C77 1_555 1_555
C81 C84 1_555 1_555
C82 C83 1_555 1_555
C88 C89 1_555 1_555
C93 C96 1_555 1_555
C94 C95 1_555 1_555
Eu1B O17B 1_555 1_555
Eu1B O18B 1_555 1_555
Eu2B_2 O2B 1_555 1_555
Cu1B O9B 1_555 1_555
Cu1B O17B 1_555 1_555
Cu2B O18B 1_555 1_555
Cu3B O20B 1_555 1_555

#END
