
#######################################################################
#
#                 Cambridge Crystallographic Data Centre
#                                CCDC 
#
#######################################################################
#
# If this CIF has been generated from an entry in the Cambridge 
# Structural Database, then it will include bibliographic, chemical, 
# crystal, experimental, refinement or atomic coordinate data resulting 
# from the CCDC's data processing and validation procedures.
#
#######################################################################

data_IBOZUW01
_symmetry_cell_setting           monoclinic
_symmetry_space_group_name_H-M   'P 21/n'
_symmetry_Int_Tables_number      14
_space_group_name_Hall           '-P 2yn'
loop_
_symmetry_equiv_pos_site_id
_symmetry_equiv_pos_as_xyz
1 x,y,z
2 1/2-x,1/2+y,1/2-z
3 -x,-y,-z
4 1/2+x,1/2-y,1/2+z
_cell_length_a                   11.800(7)
_cell_length_b                   15.682(9)
_cell_length_c                   19.755(11)
_cell_angle_alpha                90
_cell_angle_beta                 96.844(9)
_cell_angle_gamma                90
_cell_volume                     3629.57
loop_
_atom_site_label
_atom_site_type_symbol
_atom_site_fract_x
_atom_site_fract_y
_atom_site_fract_z
C1 C 0.2207(5) 0.8116(3) 0.6743(3)
H1 H 0.1817 0.7798 0.7038
C2 C 0.2810(5) 0.7793(4) 0.6256(3)
H2 H 0.2901 0.7220 0.6154
C3 C 0.2907(5) 0.9178(3) 0.6238(3)
H3 H 0.3091 0.9728 0.6114
C4 C 0.3919(6) 0.8446(4) 0.5360(3)
H4 H 0.4534 0.8036 0.5451
H5 H 0.4258 0.9001 0.5304
C5 C 0.3197(7) 0.8205(5) 0.4711(3)
H6 H 0.3697 0.8116 0.4362
H7 H 0.2830 0.7665 0.4784
C6 C 0.2299(6) 0.8825(5) 0.4445(4)
H8 H 0.1717 0.8527 0.4146
H9 H 0.1941 0.9052 0.4824
C7 C 0.2759(6) 0.9574(5) 0.4048(4)
H10 H 0.3161 0.9357 0.3684
H11 H 0.3287 0.9913 0.4351
C8 C 0.1522(6) 1.0895(4) 0.3968(3)
H12 H 0.1945 1.1236 0.4290
C9 C 0.0518(5) 1.1089(4) 0.3609(3)
H13 H 0.0126 1.1600 0.3640
C10 C 0.0961(5) 0.9841(4) 0.3293(3)
H14 H 0.0954 0.9320 0.3069
N1 N 0.2269(4) 0.8995(3) 0.6725(2)
N2 N 0.3254(4) 0.8472(3) 0.5947(2)
N3 N 0.1800(4) 1.0098(3) 0.3765(3)
N4 N 0.0153(4) 1.0413(3) 0.3187(2)
C11 C 0.1150(6) 1.1032(4) 0.5967(3)
H15 H 0.1092 1.0584 0.5655
C12 C 0.0905(6) 1.1855(4) 0.5815(3)
H16 H 0.0664 1.2075 0.5385
C13 C 0.1452(4) 1.1739(3) 0.6894(3)
H17 H 0.1655 1.1883 0.7349
C14 C 0.0870(5) 1.3220(4) 0.6511(3)
H18 H 0.0894 1.3519 0.6083
H19 H 0.1477 1.3445 0.6836
C15 C -0.0281(5) 1.3394(4) 0.6772(3)
H20 H -0.0445 1.3999 0.6728
H21 H -0.0872 1.3093 0.6483
C16 C -0.0340(5) 1.3135(4) 0.7498(3)
H22 H 0.0349 1.3329 0.7771
H23 H -0.0349 1.2517 0.7520
C17 C -0.1365(5) 1.3474(4) 0.7815(3)
H24 H -0.1276 1.3337 0.8298
H25 H -0.1390 1.4090 0.7772
C18 C -0.2841(5) 1.2304(4) 0.7555(3)
H26 H -0.2473 1.1866 0.7811
C19 C -0.3861(5) 1.2261(4) 0.7178(3)
H27 H -0.4316 1.1775 0.7121
C20 C -0.3256(4) 1.3537(3) 0.7099(2)
H28 H -0.3210 1.4111 0.6987
N5 N 0.1500(4) 1.0958(3) 0.6652(2)
N6 N 0.1075(4) 1.2302(3) 0.6406(2)
N7 N -0.2444(3) 1.3116(3) 0.7494(2)
N8 N -0.4133(3) 1.3040(2) 0.68877(19)
Mo1 Mo -0.40239(3) 1.42080(2) 0.528405(19)
Mo2 Mo -0.58149(3) 1.33684(3) 0.629952(19)
Mo3 Mo -0.66727(3) 1.32431(3) 0.46962(2)
Mo4 Mo -0.45828(3) 1.56652(2) 0.638631(19)
O1 O -0.4951(3) 1.32374(19) 0.53985(15)
O2 O -0.4066(3) 1.54429(19) 0.53491(15)
O3 O -0.6981(3) 1.3625(2) 0.56000(15)
O4 O -0.5529(3) 1.5777(2) 0.69834(16)
O5 O -0.3835(3) 1.4103(2) 0.44190(15)
O6 O -0.5723(3) 1.32313(19) 0.39482(15)
O7 O -0.4876(3) 1.44865(19) 0.61458(14)
O8 O -0.3296(3) 1.5520(2) 0.68676(17)
O9 O -0.2732(3) 1.3946(2) 0.56946(17)
O10 O -0.6733(3) 1.2162(2) 0.47990(17)
O11 O -0.6320(3) 1.3876(2) 0.69817(15)
O12 O -0.6075(3) 1.2310(2) 0.64268(18)
O13 O -0.7955(3) 1.3499(3) 0.42720(18)
C21 C 0.3935(5) 1.0651(5) 0.7747(3)
H29 H 0.4125 1.0689 0.7304
C22 C 0.4580(5) 1.0942(5) 0.8307(3)
H30 H 0.5281 1.1218 0.8324
C23 C 0.3044(4) 1.0371(3) 0.8589(3)
H31 H 0.2491 1.0181 0.8852
C24 C 0.4287(5) 1.0997(4) 0.9565(3)
H32 H 0.3675 1.1346 0.9701
H33 H 0.4977 1.1338 0.9613
C25 C 0.4461(5) 1.0230(4) 1.0038(3)
H34 H 0.4475 1.0420 1.0507
H35 H 0.3823 0.9842 0.9941
N9 N 0.2967(3) 1.0295(3) 0.7923(2)
N10 N 0.4006(4) 1.0752(3) 0.8840(2)
Co1 Co 0.14776(6) 0.98849(4) 0.73164(3)
C21B C 0.6065(5) 0.9349(5) 1.2253(3)
H29B H 0.5875 0.9311 1.2696
C22B C 0.5420(5) 0.9058(5) 1.1693(3)
H30B H 0.4719 0.8782 1.1676
C23B C 0.6956(4) 0.9629(3) 1.1411(3)
H31B H 0.7509 0.9819 1.1148
C24B C 0.5713(5) 0.9003(4) 1.0435(3)
H32B H 0.6325 0.8654 1.0299
H33B H 0.5023 0.8662 1.0387
C25B C 0.5539(5) 0.9770(4) 0.9962(3)
H34B H 0.5525 0.9580 0.9493
H35B H 0.6177 1.0158 1.0059
N9B N 0.7033(3) 0.9705(3) 1.2077(2)
N10B N 0.5994(4) 0.9248(3) 1.1160(2)
C1B C -1.2207(5) 2.1884(3) 0.3257(3)
H1B H -1.1817 2.2202 0.2962
C2B C -1.2810(5) 2.2207(4) 0.3744(3)
H2B H -1.2901 2.2780 0.3846
C3B C -1.2907(5) 2.0822(3) 0.3762(3)
H3B H -1.3091 2.0272 0.3886
C4B C -1.3919(6) 2.1554(4) 0.4640(3)
H4B H -1.4534 2.1964 0.4549
H5B H -1.4258 2.0999 0.4696
C5B C -1.3197(7) 2.1795(5) 0.5289(3)
H6B H -1.3697 2.1884 0.5638
H7B H -1.2830 2.2335 0.5216
C6B C -1.2299(6) 2.1175(5) 0.5555(4)
H8B H -1.1717 2.1473 0.5854
H9B H -1.1941 2.0948 0.5176
C7B C -1.2759(6) 2.0426(5) 0.5952(4)
H10B H -1.3161 2.0643 0.6316
H11B H -1.3287 2.0087 0.5649
C8B C -1.1522(6) 1.9105(4) 0.6032(3)
H12B H -1.1945 1.8764 0.5710
C9B C -1.0518(5) 1.8911(4) 0.6391(3)
H13B H -1.0126 1.8400 0.6360
C10B C -1.0961(5) 2.0159(4) 0.6707(3)
H14B H -1.0954 2.0680 0.6931
N1B N -1.2269(4) 2.1005(3) 0.3275(2)
N2B N -1.3254(4) 2.1528(3) 0.4053(2)
N3B N -1.1800(4) 1.9902(3) 0.6235(3)
N4B N -1.0153(4) 1.9587(3) 0.6813(2)
C11B C -1.1150(6) 1.8968(4) 0.4033(3)
H15B H -1.1092 1.9416 0.4345
C12B C -1.0905(6) 1.8145(4) 0.4185(3)
H16B H -1.0664 1.7925 0.4615
C13B C -1.1452(4) 1.8261(3) 0.3106(3)
H17B H -1.1655 1.8117 0.2651
C14B C -1.0870(5) 1.6780(4) 0.3489(3)
H18B H -1.0894 1.6481 0.3917
H19B H -1.1477 1.6555 0.3164
C15B C -0.9719(5) 1.6606(4) 0.3228(3)
H20B H -0.9555 1.6001 0.3272
H21B H -0.9128 1.6907 0.3517
C16B C -0.9660(5) 1.6865(4) 0.2502(3)
H22B H -1.0349 1.6671 0.2229
H23B H -0.9651 1.7483 0.2480
C17B C -0.8635(5) 1.6526(4) 0.2185(3)
H24B H -0.8724 1.6663 0.1702
H25B H -0.8610 1.5910 0.2228
C18B C -0.7159(5) 1.7696(4) 0.2445(3)
H26B H -0.7527 1.8134 0.2189
C19B C -0.6139(5) 1.7739(4) 0.2822(3)
H27B H -0.5684 1.8225 0.2879
C20B C -0.6744(4) 1.6463(3) 0.2901(2)
H28B H -0.6790 1.5889 0.3013
N5B N -1.1500(4) 1.9042(3) 0.3348(2)
N6B N -1.1075(4) 1.7698(3) 0.3594(2)
N7B N -0.7556(3) 1.6884(3) 0.2506(2)
N8B N -0.5867(3) 1.6960(2) 0.31123(19)
Mo1B Mo -0.59761(3) 1.57920(2) 0.471595(19)
Mo2B Mo -0.41851(3) 1.66316(3) 0.370048(19)
Mo3B Mo -0.33273(3) 1.67569(3) 0.53038(2)
Mo4B Mo -0.54172(3) 1.43348(2) 0.361369(19)
O1B O -0.5049(3) 1.67626(19) 0.46015(15)
O2B O -0.5934(3) 1.45571(19) 0.46509(15)
O3B O -0.3019(3) 1.6375(2) 0.44000(15)
O4B O -0.4471(3) 1.4223(2) 0.30166(16)
O5B O -0.6165(3) 1.5897(2) 0.55810(15)
O6B O -0.4277(3) 1.67687(19) 0.60518(15)
O7B O -0.5124(3) 1.55135(19) 0.38542(14)
O8B O -0.6704(3) 1.4480(2) 0.31324(17)
O9B O -0.7268(3) 1.6054(2) 0.43054(17)
O10B O -0.3267(3) 1.7838(2) 0.52010(17)
O11B O -0.3680(3) 1.6124(2) 0.30183(15)
O12B O -0.3925(3) 1.7690(2) 0.35732(18)
O13B O -0.2045(3) 1.6501(3) 0.57280(18)
Co1B Co -1.14776(6) 2.01151(4) 0.26836(3)
N4_2 N -0.9847(4) 2.0413(3) 0.3187(2)
N4B_2 N -0.0153(4) 0.9587(3) 0.6813(2)
O4A O 0.0529(3) 1.0777(2) 0.80166(16)
O4C O -1.0529(3) 1.9223(2) 0.19834(16)
O11A O 0.1320(3) 0.8876(2) 0.80183(15)
O11C O -1.1320(3) 2.1124(2) 0.19817(15)
N9B_2 N -1.2967(3) 1.9705(3) 0.2077(2)
Co1_2 Co -0.85224(6) 1.98849(4) 0.73164(3)
Co1A Co -0.64776(6) 1.48849(4) 0.76836(3)
Co1B_2 Co -0.14776(6) 1.01151(4) 0.26836(3)
Co1B_3 Co 0.85224(6) 1.01151(4) 1.26836(3)
Co1C Co -0.35224(6) 1.51151(4) 0.23164(3)
O14 O 0.0829(5) 0.5789(3) 0.9330(3)
H36 H 0.0842 0.6059 0.8958
H37 H 0.0919 0.6054 0.9708
loop_
_geom_bond_atom_site_label_1
_geom_bond_atom_site_label_2
_geom_bond_site_symmetry_1
_geom_bond_site_symmetry_2
C1 H1 1_555 1_555
C2 C1 1_555 1_555
H2 C2 1_555 1_555
C3 H3 1_555 1_555
C4 H4 1_555 1_555
H5 C4 1_555 1_555
C5 C4 1_555 1_555
H6 C5 1_555 1_555
H7 C5 1_555 1_555
C6 C5 1_555 1_555
H8 C6 1_555 1_555
H9 C6 1_555 1_555
C7 C6 1_555 1_555
H10 C7 1_555 1_555
H11 C7 1_555 1_555
C8 H12 1_555 1_555
C9 C8 1_555 1_555
H13 C9 1_555 1_555
C10 H14 1_555 1_555
N1 C1 1_555 1_555
N2 C2 1_555 1_555
N3 C7 1_555 1_555
N4 C9 1_555 1_555
C11 H15 1_555 1_555
C12 C11 1_555 1_555
H16 C12 1_555 1_555
C13 H17 1_555 1_555
C14 H18 1_555 1_555
H19 C14 1_555 1_555
C15 C14 1_555 1_555
H20 C15 1_555 1_555
H21 C15 1_555 1_555
C16 C15 1_555 1_555
H22 C16 1_555 1_555
H23 C16 1_555 1_555
C17 C16 1_555 1_555
H24 C17 1_555 1_555
H25 C17 1_555 1_555
C18 H26 1_555 1_555
C19 C18 1_555 1_555
H27 C19 1_555 1_555
C20 H28 1_555 1_555
N5 C11 1_555 1_555
N6 C12 1_555 1_555
N7 C17 1_555 1_555
N8 C19 1_555 1_555
Mo1 O1 1_555 1_555
Mo2 N8 1_555 1_555
Mo3 O1 1_555 1_555
Mo4 O2 1_555 1_555
O1 Mo2 1_555 1_555
O2 Mo1 1_555 1_555
O3 Mo2 1_555 1_555
O4 Mo4 1_555 1_555
O5 Mo1 1_555 1_555
O6 Mo3 1_555 1_555
O7 Mo1 1_555 1_555
O8 Mo4 1_555 1_555
O9 Mo1 1_555 1_555
O10 Mo3 1_555 1_555
O11 Mo2 1_555 1_555
O12 Mo2 1_555 1_555
O13 Mo3 1_555 1_555
C21 H29 1_555 1_555
C22 C21 1_555 1_555
H30 C22 1_555 1_555
C23 H31 1_555 1_555
C24 H32 1_555 1_555
H33 C24 1_555 1_555
C25 C24 1_555 1_555
H34 C25 1_555 1_555
H35 C25 1_555 1_555
N9 C21 1_555 1_555
N10 C22 1_555 1_555
Co1 N1 1_555 1_555
O14 H36 1_555 1_555
H37 O14 1_555 1_555
C21B H29B 1_555 1_555
C22B C21B 1_555 1_555
H30B C22B 1_555 1_555
C23B H31B 1_555 1_555
C24B H32B 1_555 1_555
H33B C24B 1_555 1_555
C25B C25 1_555 1_555
H34B C25B 1_555 1_555
H35B C25B 1_555 1_555
N9B C21B 1_555 1_555
N10B C22B 1_555 1_555
C1B H1B 1_555 1_555
C2B C1B 1_555 1_555
H2B C2B 1_555 1_555
C3B H3B 1_555 1_555
C4B H4B 1_555 1_555
H5B C4B 1_555 1_555
C5B C4B 1_555 1_555
H6B C5B 1_555 1_555
H7B C5B 1_555 1_555
C6B C5B 1_555 1_555
H8B C6B 1_555 1_555
H9B C6B 1_555 1_555
C7B C6B 1_555 1_555
H10B C7B 1_555 1_555
H11B C7B 1_555 1_555
C8B H12B 1_555 1_555
C9B C8B 1_555 1_555
H13B C9B 1_555 1_555
C10B H14B 1_555 1_555
N1B C1B 1_555 1_555
N2B C2B 1_555 1_555
N3B C7B 1_555 1_555
N4B C9B 1_555 1_555
C11B H15B 1_555 1_555
C12B C11B 1_555 1_555
H16B C12B 1_555 1_555
C13B H17B 1_555 1_555
C14B H18B 1_555 1_555
H19B C14B 1_555 1_555
C15B C14B 1_555 1_555
H20B C15B 1_555 1_555
H21B C15B 1_555 1_555
C16B C15B 1_555 1_555
H22B C16B 1_555 1_555
H23B C16B 1_555 1_555
C17B C16B 1_555 1_555
H24B C17B 1_555 1_555
H25B C17B 1_555 1_555
C18B H26B 1_555 1_555
C19B C18B 1_555 1_555
H27B C19B 1_555 1_555
C20B H28B 1_555 1_555
N5B C11B 1_555 1_555
N6B C12B 1_555 1_555
N7B C17B 1_555 1_555
N8B C19B 1_555 1_555
Mo1B O2 1_555 1_555
Mo2B N8B 1_555 1_555
Mo3B O2 1_555 1_555
Mo4B O5 1_555 1_555
O1B Mo1B 1_555 1_555
O2B Mo1 1_555 1_555
O3B Mo2B 1_555 1_555
O4B Mo4B 1_555 1_555
O5B Mo4 1_555 1_555
O6B Mo4 1_555 1_555
O7B Mo1B 1_555 1_555
O8B Mo4B 1_555 1_555
O9B Mo1B 1_555 1_555
O10B Mo3B 1_555 1_555
O11B Mo2B 1_555 1_555
O12B Mo2B 1_555 1_555
O13B Mo3B 1_555 1_555
Co1B N1B 1_555 1_555
N4_2 Co1B 1_555 1_555
N4B_2 Co1 1_555 1_555
O4A Co1 1_555 1_555
O4C Co1B 1_555 1_555
O11A Co1 1_555 1_555
O11C Co1B 1_555 1_555
N9B_2 Co1B 1_555 1_555
Co1_2 N4B 1_555 1_555
Co1A O4 1_555 1_555
Co1B_2 N4 1_555 1_555
Co1B_3 N9B 1_555 1_555
Co1C O4B 1_555 1_555
C3 N1 1_555 1_555
C3 N2 1_555 1_555
C4 N2 1_555 1_555
C8 N3 1_555 1_555
C10 N3 1_555 1_555
C10 N4 1_555 1_555
C13 N5 1_555 1_555
C13 N6 1_555 1_555
C14 N6 1_555 1_555
C18 N7 1_555 1_555
C20 N7 1_555 1_555
C20 N8 1_555 1_555
N5 Co1 1_555 1_555
Mo2 O7 1_555 1_555
Mo3 O3 1_555 1_555
Mo3 O2B 1_555 1_555
Mo4 O7 1_555 1_555
O6 Mo4B 1_555 1_555
O11 Co1A 1_555 1_555
C23 N9 1_555 1_555
C23 N10 1_555 1_555
C24 N10 1_555 1_555
N9 Co1 1_555 1_555
C23B N9B 1_555 1_555
C23B N10B 1_555 1_555
C24B C25B 1_555 1_555
C24B N10B 1_555 1_555
C3B N1B 1_555 1_555
C3B N2B 1_555 1_555
C4B N2B 1_555 1_555
C8B N3B 1_555 1_555
C10B N3B 1_555 1_555
C10B N4B 1_555 1_555
C13B N5B 1_555 1_555
C13B N6B 1_555 1_555
C14B N6B 1_555 1_555
C18B N7B 1_555 1_555
C20B N7B 1_555 1_555
C20B N8B 1_555 1_555
N5B Co1B 1_555 1_555
Mo1B O2B 1_555 1_555
Mo1B O5B 1_555 1_555
Mo2B O1B 1_555 1_555
Mo2B O7B 1_555 1_555
Mo3B O1B 1_555 1_555
Mo3B O3B 1_555 1_555
Mo3B O6B 1_555 1_555
Mo4B O2B 1_555 1_555
Mo4B O7B 1_555 1_555
O11B Co1C 1_555 1_555

#END
