
#######################################################################
#
#                 Cambridge Crystallographic Data Centre
#                                CCDC 
#
#######################################################################
#
# If this CIF has been generated from an entry in the Cambridge 
# Structural Database, then it will include bibliographic, chemical, 
# crystal, experimental, refinement or atomic coordinate data resulting 
# from the CCDC's data processing and validation procedures.
#
#######################################################################

data_IBOZAC
_symmetry_cell_setting           monoclinic
_symmetry_space_group_name_H-M   'P 21/c'
_symmetry_Int_Tables_number      14
_space_group_name_Hall           '-P 2ybc'
loop_
_symmetry_equiv_pos_site_id
_symmetry_equiv_pos_as_xyz
1 x,y,z
2 -x,1/2+y,1/2-z
3 -x,-y,-z
4 x,1/2-y,1/2+z
_cell_length_a                   15.2027(19)
_cell_length_b                   29.845(4)
_cell_length_c                   21.4094(18)
_cell_angle_alpha                90
_cell_angle_beta                 120.174(6)
_cell_angle_gamma                90
_cell_volume                     8397.76
loop_
_atom_site_label
_atom_site_type_symbol
_atom_site_fract_x
_atom_site_fract_y
_atom_site_fract_z
Sm1 Sm 0.376650(17) -0.536010(7) 0.939228(12)
Sm2 Sm 0.133380(17) -0.468560(7) 1.560170(12)
Cu1 Cu 0.52849(4) -0.541040(18) 1.13514(3)
Cu2 Cu 0.24630(4) -0.497503(18) 0.75439(3)
Cu3 Cu 0.01810(4) -0.535758(18) 0.63459(3)
O1 O 0.2805(3) -0.47531(12) 1.54084(17)
O2 O 0.1363(3) -0.50608(12) 1.45767(17)
O3 O 0.4832(3) -0.58801(11) 0.92625(19)
O4 O 0.4585(3) -0.59284(12) 0.8144(2)
O5 O 0.4862(3) -0.60356(11) 1.11897(17)
O6 O 0.3691(3) -0.60280(11) 1.00178(18)
O7 O 0.2107(2) -0.56163(11) 0.72900(17)
O8 O 0.2509(3) -0.58040(11) 0.84046(17)
O9 O 0.7137(3) -0.56603(11) 1.22822(17)
O10 O 0.7432(2) -0.57508(11) 1.34046(17)
O11 O -0.0239(3) -0.59849(11) 0.61979(17)
O12 O -0.1471(3) -0.59814(11) 0.50338(18)
O13 O 0.0265(3) -0.41149(11) 1.56611(17)
O14 O 0.0333(3) -0.40394(12) 1.67200(19)
O15 O 0.2244(3) -0.53272(12) 0.95767(17)
O16 O 0.3666(3) -0.50034(12) 1.03928(18)
O17 O 0.5436(2) -0.53629(10) 1.04999(16)
H1 H 0.5444 -0.5561 1.0293
O18 O 0.3846(2) -0.51245(10) 0.83076(16)
H2 H 0.4100 -0.5309 0.8108
O19 O 0.1150(2) -0.48553(10) 0.67024(16)
H3 H 0.0905 -0.4562 0.6588
O20 O 0.0324(2) -0.53460(10) 0.54945(16)
H4 H 0.0516 -0.5612 0.5320
O21 O 0.2263(3) -0.48280(11) 0.85655(17)
H5 H 0.2331 -0.4584 0.8704
H6 H 0.1660 -0.4863 0.8629
O22 O 0.2504(3) -0.53124(11) 1.62853(18)
H7 H 0.2706 -0.5431 1.6034
H8 H 0.2424 -0.5545 1.6486
N1 N 0.4837(3) -0.53872(13) 1.2087(2)
N2 N 0.5189(4) -0.89598(16) 0.9306(3)
N3 N 0.3298(4) -0.90477(15) 1.0807(3)
N4 N 0.1481(5) -0.87169(19) 0.6754(4)
N5 N 0.6797(4) -0.87561(16) 1.2238(3)
N6 N -0.2084(4) -0.89691(15) 0.5976(3)
N7 N -0.0045(5) -0.10334(17) 1.5609(3)
N8 N 0.0214(3) -0.46974(13) 1.2886(2)
C1 C 0.5332(4) -0.51514(18) 1.2693(3)
H9 H 0.5943 -0.5015 1.2803
C2 C 0.4982(4) -0.50968(18) 1.3176(3)
H10 H 0.5362 -0.4934 1.3601
C3 C 0.4064(4) -0.52895(16) 1.3032(3)
C4 C 0.3566(4) -0.55486(18) 1.2405(3)
H11 H 0.2965 -0.5696 1.2290
C5 C 0.3981(4) -0.55934(18) 1.1963(3)
H12 H 0.3649 -0.5777 1.1557
C6 C 0.3625(4) -0.52114(17) 1.3500(3)
C7 C 0.3996(5) -0.48766(19) 1.4021(3)
H13 H 0.4535 -0.4700 1.4079
C8 C 0.3582(4) -0.4801(2) 1.4453(3)
H14 H 0.3854 -0.4581 1.4810
C9 C 0.2767(4) -0.50537(16) 1.4363(3)
C10 C 0.2390(4) -0.53891(18) 1.3854(3)
H15 H 0.1833 -0.5556 1.3786
C11 C 0.2826(4) -0.54735(19) 1.3434(3)
H16 H 0.2579 -0.5706 1.3098
C12 C 0.2292(4) -0.49508(16) 1.4814(3)
C13 C 0.5499(4) -0.87617(19) 0.8895(4)
H17 H 0.5789 -0.8939 0.8687
C14 C 0.5400(4) -0.83023(18) 0.8752(3)
H18 H 0.5621 -0.8178 0.8455
C15 C 0.4993(4) -0.80317(18) 0.9069(3)
C16 C 0.4651(5) -0.8242(2) 0.9484(4)
H19 H 0.4347 -0.8077 0.9694
C17 C 0.4763(6) -0.8700(2) 0.9582(4)
H20 H 0.4520 -0.8836 0.9858
C18 C 0.4931(4) -0.75362(18) 0.8973(3)
C19 C 0.4775(4) -0.73375(19) 0.8330(3)
H21 H 0.4700 -0.7518 0.7950
C20 C 0.4726(4) -0.68756(17) 0.8247(3)
H22 H 0.4611 -0.6747 0.7814
C21 C 0.4862(4) -0.66042(16) 0.8817(3)
C22 C 0.5032(4) -0.67956(17) 0.9458(3)
H23 H 0.5125 -0.6613 0.9840
C23 C 0.5063(4) -0.72562(18) 0.9532(3)
H24 H 0.5171 -0.7381 0.9965
C24 C 0.4754(3) -0.60917(15) 0.8722(3)
C25 C 0.4169(5) -0.8835(2) 1.1263(3)
H25 H 0.4704 -0.9002 1.1614
C26 C 0.4302(4) -0.83790(19) 1.1244(3)
H26 H 0.4922 -0.8248 1.1563
C27 C 0.3506(4) -0.81141(16) 1.0741(3)
C28 C 0.2622(4) -0.83342(18) 1.0262(3)
H27 H 0.2073 -0.8173 0.9909
C29 C 0.2547(4) -0.87925(18) 1.0314(3)
H28 H 0.1947 -0.8932 0.9979
C30 C 0.3628(4) -0.76229(16) 1.0722(3)
C31 C 0.3098(4) -0.73860(18) 1.0085(3)
H29 H 0.2620 -0.7532 0.9666
C32 C 0.3262(4) -0.69342(18) 1.0062(3)
H30 H 0.2889 -0.6779 0.9628
C33 C 0.3951(4) -0.67024(16) 1.0674(3)
C34 C 0.4444(4) -0.69298(17) 1.1318(3)
H31 H 0.4885 -0.6779 1.1742
C35 C 0.4288(4) -0.73861(17) 1.1344(3)
H32 H 0.4633 -0.7538 1.1783
C36 C 0.4176(4) -0.62156(15) 1.0613(3)
C37 C 0.1374(6) -0.8533(2) 0.7273(5)
H33 H 0.1148 -0.8712 0.7521
C38 C 0.1564(5) -0.8082(2) 0.7458(5)
H34 H 0.1491 -0.7974 0.7839
C39 C 0.1881(4) -0.77983(18) 0.7098(4)
C40 C 0.1989(6) -0.7992(2) 0.6555(4)
H35 H 0.2198 -0.7822 0.6288
C41 C 0.1772(6) -0.8446(2) 0.6396(5)
H36 H 0.1836 -0.8567 0.6018
C42 C 0.2033(4) -0.73114(17) 0.7268(3)
C43 C 0.2195(5) -0.71550(18) 0.7924(3)
H37 H 0.2255 -0.7359 0.8273
C44 C 0.2273(5) -0.67011(18) 0.8081(3)
H38 H 0.2387 -0.6604 0.8531
C45 C 0.2187(3) -0.63912(16) 0.7576(3)
C46 C 0.2059(4) -0.65421(17) 0.6920(3)
H39 H 0.2023 -0.6338 0.6578
C47 C 0.1983(4) -0.69931(18) 0.6772(3)
H40 H 0.1892 -0.7088 0.6327
C48 C 0.2279(3) -0.59069(15) 0.7778(2)
C49 C 0.7044(5) -0.85001(19) 1.1832(4)
H41 H 0.7119 -0.8637 1.1470
C50 C 0.7184(5) -0.80394(19) 1.1925(4)
H42 H 0.7366 -0.7877 1.1635
C51 C 0.7053(4) -0.78242(17) 1.2448(3)
C52 C 0.6801(4) -0.80883(18) 1.2864(3)
H43 H 0.6714 -0.7964 1.3229
C53 C 0.6682(4) -0.85487(18) 1.2743(3)
H44 H 0.6522 -0.8721 1.3036
C54 C 0.7136(4) -0.73287(17) 1.2542(3)
C55 C 0.6911(4) -0.70486(17) 1.1961(3)
H45 H 0.6719 -0.7172 1.1509
C56 C 0.6935(4) -0.65852(17) 1.2040(3)
H46 H 0.6778 -0.6401 1.1646
C57 C 0.7201(4) -0.63979(16) 1.2704(3)
C58 C 0.7444(4) -0.66761(16) 1.3285(3)
H47 H 0.7626 -0.6555 1.3736
C59 C 0.7419(4) -0.71372(17) 1.3205(3)
H48 H 0.7592 -0.7321 1.3603
C60 C 0.7253(3) -0.59011(16) 1.2804(3)
C61 C -0.1473(5) -0.87211(19) 0.6546(3)
H49 H -0.1147 -0.8857 0.7000
C62 C -0.1287(5) -0.82714(19) 0.6493(3)
H50 H -0.0849 -0.8113 0.6911
C63 C -0.1739(4) -0.80531(17) 0.5834(3)
C64 C -0.2376(4) -0.83127(18) 0.5252(3)
H51 H -0.2709 -0.8187 0.4790
C65 C -0.2529(4) -0.87678(19) 0.5332(3)
H52 H -0.2963 -0.8934 0.4923
C66 C -0.1557(4) -0.75693(16) 0.5784(3)
C67 C -0.0699(4) -0.73509(18) 0.6335(3)
H53 H -0.0232 -0.7517 0.6732
C68 C -0.0525(4) -0.69008(17) 0.6301(3)
H54 H 0.0047 -0.6767 0.6680
C69 C -0.1191(4) -0.66485(15) 0.5701(3)
C70 C -0.2057(4) -0.68564(17) 0.5161(3)
H55 H -0.2524 -0.6689 0.4765
C71 C -0.2246(4) -0.73062(18) 0.5200(3)
H56 H -0.2839 -0.7433 0.4832
C72 C -0.0967(3) -0.61647(16) 0.5630(3)
C73 C 0.0505(5) -0.1302(2) 1.5435(4)
H57 H 0.0897 -0.1169 1.5263
C74 C 0.0508(5) -0.1761(2) 1.5481(4)
H58 H 0.0885 -0.1930 1.5333
C75 C -0.0055(4) -0.19668(19) 1.5747(3)
C76 C -0.0611(5) -0.1694(2) 1.5930(4)
H59 H -0.0992 -0.1816 1.6119
C77 C -0.0596(6) -0.1232(2) 1.5850(4)
H60 H -0.0990 -0.1055 1.5974
C78 C -0.0066(4) -0.24590(17) 1.5816(3)
C79 C -0.0016(4) -0.27426(18) 1.5314(3)
H61 H -0.0026 -0.2619 1.4910
C80 C 0.0031(4) -0.32014(17) 1.5406(3)
H62 H 0.0052 -0.3384 1.5061
C81 C 0.0047(4) -0.33910(17) 1.5999(3)
C82 C -0.0035(4) -0.31131(17) 1.6489(3)
H63 H -0.0038 -0.3239 1.6887
C83 C -0.0099(5) -0.26546(19) 1.6397(3)
H64 H -0.0161 -0.2475 1.6729
C84 C 0.0218(4) -0.38847(16) 1.6150(3)
C85 C 0.0668(5) -0.43634(19) 1.2747(3)
H65 H 0.0749 -0.4092 1.2985
C86 C 0.1050(5) -0.44045(19) 1.2289(3)
H66 H 0.1378 -0.4162 1.2221
C87 C 0.0965(4) -0.48020(17) 1.1936(3)
C88 C 0.0477(4) -0.51504(18) 1.2071(3)
H67 H 0.0372 -0.5422 1.1829
C89 C 0.0120(4) -0.50872(18) 1.2544(3)
H68 H -0.0213 -0.5323 1.2622
C90 C 0.1403(4) -0.48649(17) 1.1466(3)
C91 C 0.0951(4) -0.51579(18) 1.0881(3)
H69 H 0.0365 -0.5313 1.0784
C92 C 0.1376(4) -0.52258(18) 1.0448(3)
H70 H 0.1057 -0.5414 1.0047
C93 C 0.2266(4) -0.50024(16) 1.0596(3)
C94 C 0.2717(4) -0.47043(17) 1.1177(3)
H71 H 0.3308 -0.4553 1.1277
C95 C 0.2284(4) -0.46339(17) 1.1604(3)
H72 H 0.2574 -0.4430 1.1984
C96 C 0.2744(4) -0.51145(16) 1.0161(3)
Sm1B Sm 0.623350(17) -0.463990(7) 1.060772(12)
Sm2B Sm 0.866620(17) -0.531440(7) 1.439830(12)
Sm2B_2 Sm -0.133380(17) -0.531440(7) 0.439830(12)
Sm2_2 Sm 0.133380(17) -0.468560(7) 0.560170(12)
Cu1B Cu 0.47151(4) -0.458960(18) 0.86486(3)
Cu2B Cu 0.75370(4) -0.502497(18) 1.24561(3)
Cu3B Cu -0.01810(4) -0.464242(18) 1.36541(3)
O2B O -0.1363(3) -0.49392(12) 0.54233(17)
O9B O 0.2863(3) -0.43397(11) 0.77178(17)
O10B O 0.2568(2) -0.42492(11) 1.65954(17)
O12B O 0.1471(3) -0.40186(11) 1.49662(18)
O17B O 0.4564(2) -0.46371(10) 0.95001(16)
H1B H 0.4556 -0.4439 0.9707
O18B O 0.6154(2) -0.48755(10) 1.16924(16)
H2B H 0.5900 -0.4691 1.1892
O19_2 O 0.1150(2) -0.48553(10) 1.67024(16)
H3_2 H 0.0905 -0.4562 1.6588
O20B O -0.0324(2) -0.46540(10) 1.45055(16)
O20_2 O 0.0324(2) -0.53460(10) 1.54945(16)
H4B H -0.0516 -0.4388 1.4680
H4_2 H 0.0516 -0.5612 1.5320
N8B N -0.0214(3) -0.53026(13) 0.7114(2)
loop_
_geom_bond_atom_site_label_1
_geom_bond_atom_site_label_2
_geom_bond_site_symmetry_1
_geom_bond_site_symmetry_2
Sm1 O3 1_555 1_555
Sm2 O1 1_555 1_555
Cu1 O5 1_555 1_555
Cu2 O7 1_555 1_555
Cu3 O7 1_555 1_555
O1 C12 1_555 1_555
O2 Sm2 1_555 1_555
O3 C24 1_555 1_555
O4 C24 1_555 1_555
O5 C36 1_555 1_555
O6 Sm1 1_555 1_555
O7 C48 1_555 1_555
O8 Sm1 1_555 1_555
O9 Cu1 1_555 1_555
O10 C60 1_555 1_555
O11 Cu3 1_555 1_555
O12 C72 1_555 1_555
O13 Sm2 1_555 1_555
O14 C84 1_555 1_555
O15 Sm1 1_555 1_555
O16 Sm1 1_555 1_555
O17 Sm1 1_555 1_555
H1 O17 1_555 1_555
O18 Sm1 1_555 1_555
H2 O18 1_555 1_555
O19 Cu2 1_555 1_555
H3 O19 1_555 1_555
O20 Cu3 1_555 1_555
H4 O20 1_555 1_555
O21 Sm1 1_555 1_555
H5 O21 1_555 1_555
H6 O21 1_555 1_555
O22 Sm2 1_555 1_555
H7 O22 1_555 1_555
H8 O22 1_555 1_555
N1 Cu1 1_555 1_555
N2 C13 1_555 1_555
N3 C25 1_555 1_555
N4 C37 1_555 1_555
N5 C49 1_555 1_555
N6 C61 1_555 1_555
N7 C73 1_555 1_555
N8 C85 1_555 1_555
C1 N1 1_555 1_555
H9 C1 1_555 1_555
C2 C1 1_555 1_555
H10 C2 1_555 1_555
C3 C2 1_555 1_555
C4 C3 1_555 1_555
H11 C4 1_555 1_555
C5 N1 1_555 1_555
H12 C5 1_555 1_555
C6 C3 1_555 1_555
C7 C6 1_555 1_555
H13 C7 1_555 1_555
C8 C7 1_555 1_555
H14 C8 1_555 1_555
C9 C8 1_555 1_555
C10 C9 1_555 1_555
H15 C10 1_555 1_555
C11 C6 1_555 1_555
H16 C11 1_555 1_555
C12 O2 1_555 1_555
C13 H17 1_555 1_555
C14 C13 1_555 1_555
H18 C14 1_555 1_555
C15 C14 1_555 1_555
C16 C15 1_555 1_555
H19 C16 1_555 1_555
C17 N2 1_555 1_555
H20 C17 1_555 1_555
C18 C15 1_555 1_555
C19 C18 1_555 1_555
H21 C19 1_555 1_555
C20 C19 1_555 1_555
H22 C20 1_555 1_555
C21 C20 1_555 1_555
C22 C21 1_555 1_555
H23 C22 1_555 1_555
C23 C18 1_555 1_555
H24 C23 1_555 1_555
C24 C21 1_555 1_555
C25 H25 1_555 1_555
C26 C25 1_555 1_555
H26 C26 1_555 1_555
C27 C26 1_555 1_555
C28 C27 1_555 1_555
H27 C28 1_555 1_555
C29 N3 1_555 1_555
H28 C29 1_555 1_555
C30 C27 1_555 1_555
C31 C30 1_555 1_555
H29 C31 1_555 1_555
C32 C31 1_555 1_555
H30 C32 1_555 1_555
C33 C32 1_555 1_555
C34 C33 1_555 1_555
H31 C34 1_555 1_555
C35 C30 1_555 1_555
H32 C35 1_555 1_555
C36 O6 1_555 1_555
C37 H33 1_555 1_555
C38 C37 1_555 1_555
H34 C38 1_555 1_555
C39 C38 1_555 1_555
C40 C39 1_555 1_555
H35 C40 1_555 1_555
C41 N4 1_555 1_555
H36 C41 1_555 1_555
C42 C39 1_555 1_555
C43 C42 1_555 1_555
H37 C43 1_555 1_555
C44 C43 1_555 1_555
H38 C44 1_555 1_555
C45 C44 1_555 1_555
C46 C45 1_555 1_555
H39 C46 1_555 1_555
C47 C42 1_555 1_555
H40 C47 1_555 1_555
C48 O8 1_555 1_555
C49 H41 1_555 1_555
C50 C49 1_555 1_555
H42 C50 1_555 1_555
C51 C50 1_555 1_555
C52 C51 1_555 1_555
H43 C52 1_555 1_555
C53 N5 1_555 1_555
H44 C53 1_555 1_555
C54 C51 1_555 1_555
C55 C54 1_555 1_555
H45 C55 1_555 1_555
C56 C55 1_555 1_555
H46 C56 1_555 1_555
C57 C56 1_555 1_555
C58 C57 1_555 1_555
H47 C58 1_555 1_555
C59 C54 1_555 1_555
H48 C59 1_555 1_555
C60 O9 1_555 1_555
C61 H49 1_555 1_555
C62 C61 1_555 1_555
H50 C62 1_555 1_555
C63 C62 1_555 1_555
C64 C63 1_555 1_555
H51 C64 1_555 1_555
C65 N6 1_555 1_555
H52 C65 1_555 1_555
C66 C63 1_555 1_555
C67 C66 1_555 1_555
H53 C67 1_555 1_555
C68 C67 1_555 1_555
H54 C68 1_555 1_555
C69 C68 1_555 1_555
C70 C69 1_555 1_555
H55 C70 1_555 1_555
C71 C66 1_555 1_555
H56 C71 1_555 1_555
C72 O11 1_555 1_555
C73 H57 1_555 1_555
C74 C73 1_555 1_555
H58 C74 1_555 1_555
C75 C74 1_555 1_555
C76 C75 1_555 1_555
H59 C76 1_555 1_555
C77 N7 1_555 1_555
H60 C77 1_555 1_555
C78 C75 1_555 1_555
C79 C78 1_555 1_555
H61 C79 1_555 1_555
C80 C79 1_555 1_555
H62 C80 1_555 1_555
C81 C80 1_555 1_555
C82 C81 1_555 1_555
H63 C82 1_555 1_555
C83 C78 1_555 1_555
H64 C83 1_555 1_555
C84 O13 1_555 1_555
C85 H65 1_555 1_555
C86 C85 1_555 1_555
H66 C86 1_555 1_555
C87 C86 1_555 1_555
C88 C87 1_555 1_555
H67 C88 1_555 1_555
C89 N8 1_555 1_555
H68 C89 1_555 1_555
C90 C87 1_555 1_555
C91 C90 1_555 1_555
H69 C91 1_555 1_555
C92 C91 1_555 1_555
H70 C92 1_555 1_555
C93 C92 1_555 1_555
C94 C93 1_555 1_555
H71 C94 1_555 1_555
C95 C90 1_555 1_555
H72 C95 1_555 1_555
C96 O15 1_555 1_555
Sm1B O17 1_555 1_555
Sm2B O10 1_555 1_555
Sm2B_2 O12 1_555 1_555
Sm2_2 O19 1_555 1_555
Cu1B O18 1_555 1_555
Cu2B O9 1_555 1_555
Cu3B O2 1_555 1_555
O2B Cu3 1_555 1_555
O9B Cu2 1_555 1_555
O10B Sm2 1_555 1_555
O12B Sm2 1_555 1_555
O17B Sm1 1_555 1_555
H1B O17B 1_555 1_555
O18B Cu1 1_555 1_555
H2B O18B 1_555 1_555
O19_2 Sm2 1_555 1_555
H3_2 O19_2 1_555 1_555
O20B Sm2 1_555 1_555
O20_2 Sm2 1_555 1_555
H4B O20B 1_555 1_555
H4_2 O20_2 1_555 1_555
N8B Cu3 1_555 1_555
Cu1 O16 1_555 1_555
Cu1 O17 1_555 1_555
Cu2 O18 1_555 1_555
Cu2 O21 1_555 1_555
Cu3 O19 1_555 1_555
O16 C96 1_555 1_555
O20 Sm2B_2 1_555 1_555
O20 Sm2_2 1_555 1_555
N8 Cu3B 1_555 1_555
C4 C5 1_555 1_555
C9 C12 1_555 1_555
C10 C11 1_555 1_555
C16 C17 1_555 1_555
C22 C23 1_555 1_555
C28 C29 1_555 1_555
C33 C36 1_555 1_555
C34 C35 1_555 1_555
C40 C41 1_555 1_555
C45 C48 1_555 1_555
C46 C47 1_555 1_555
C52 C53 1_555 1_555
C57 C60 1_555 1_555
C58 C59 1_555 1_555
C64 C65 1_555 1_555
C69 C72 1_555 1_555
C70 C71 1_555 1_555
C76 C77 1_555 1_555
C81 C84 1_555 1_555
C82 C83 1_555 1_555
C88 C89 1_555 1_555
C93 C96 1_555 1_555
C94 C95 1_555 1_555
Sm1B O17B 1_555 1_555
Sm1B O18B 1_555 1_555
Sm2B_2 O2B 1_555 1_555
Cu1B O9B 1_555 1_555
Cu1B O17B 1_555 1_555
Cu2B O18B 1_555 1_555
Cu3B O20B 1_555 1_555

#END
