
#######################################################################
#
#                 Cambridge Crystallographic Data Centre
#                                CCDC 
#
#######################################################################
#
# If this CIF has been generated from an entry in the Cambridge 
# Structural Database, then it will include bibliographic, chemical, 
# crystal, experimental, refinement or atomic coordinate data resulting 
# from the CCDC's data processing and validation procedures.
#
#######################################################################

data_IBOZUW
_symmetry_cell_setting           monoclinic
_symmetry_space_group_name_H-M   'P 21/n'
_symmetry_Int_Tables_number      14
_space_group_name_Hall           '-P 2yn'
loop_
_symmetry_equiv_pos_site_id
_symmetry_equiv_pos_as_xyz
1 x,y,z
2 1/2-x,1/2+y,1/2-z
3 -x,-y,-z
4 1/2+x,1/2-y,1/2+z
_cell_length_a                   11.7854(6)
_cell_length_b                   15.6884(8)
_cell_length_c                   19.6861(11)
_cell_angle_alpha                90
_cell_angle_beta                 96.816(5)
_cell_angle_gamma                90
_cell_volume                     3614.12
loop_
_atom_site_label
_atom_site_type_symbol
_atom_site_fract_x
_atom_site_fract_y
_atom_site_fract_z
Co1 Co 0.35161(7) -0.01205(5) 0.76856(4)
Mo1 Mo 1.08177(4) 0.33692(3) 0.86982(2)
Mo2 Mo 0.90216(4) 0.42093(3) 0.97152(2)
Mo3 Mo 0.95831(4) 0.56636(3) 0.86096(2)
Mo4 Mo 1.16742(4) 0.32461(3) 1.03048(3)
C1 C 0.8258(5) 0.3541(4) 0.7900(3)
H1 H 0.8208 0.4113 0.8017
C2 C 0.8866(6) 0.2260(4) 0.7825(4)
H2 H 0.9321 0.1775 0.7887
C3 C 0.7844(6) 0.2300(4) 0.7449(4)
H3 H 0.7474 0.1857 0.7198
C4 C 0.6372(5) 0.3462(5) 0.7188(3)
H4 H 0.6396 0.4077 0.7234
H5 H 0.6282 0.3328 0.6703
C5 C 0.5333(6) 0.3121(5) 0.7504(4)
H6 H 0.5336 0.2504 0.7481
H7 H 0.4643 0.3320 0.7231
C6 C 0.5293(6) 0.3385(4) 0.8233(4)
H8 H 0.5893 0.3090 0.8521
H9 H 0.5446 0.3992 0.8274
C7 C 0.4137(6) 0.3195(4) 0.8494(4)
H10 H 0.3529 0.3421 0.8168
H11 H 0.4109 0.3493 0.8924
C8 C 0.4101(6) 0.1852(5) 0.9197(3)
H12 H 0.4346 0.2074 0.9628
C9 C 0.3851(7) 0.1027(5) 0.9038(4)
H13 H 0.3907 0.0580 0.9351
C10 C 0.3548(5) 0.1728(4) 0.8103(3)
H14 H 0.3347 0.1873 0.7647
C11 C 0.5953(6) 0.0152(5) 0.8297(3)
H15 H 0.5936 0.0674 0.8072
C12 C 0.5516(7) -0.1100(4) 0.8612(4)
H16 H 0.5131 -0.1613 0.8645
C13 C 0.6532(7) -0.0892(5) 0.8963(4)
H17 H 0.6963 -0.1231 0.9284
C14 C 0.7770(7) 0.0425(5) 0.9049(5)
H18 H 0.8178 0.0638 0.8685
H19 H 0.8295 0.0085 0.9356
C15 C 0.7318(7) 0.1184(5) 0.9447(5)
H20 H 0.6733 0.1481 0.9149
H21 H 0.6965 0.0963 0.9832
C16 C 0.8218(8) 0.1794(5) 0.9702(4)
H22 H 0.7863 0.2342 0.9765
H23 H 0.8726 0.1866 0.9353
C17 C 0.8923(7) 0.1558(5) 1.0358(4)
H24 H 0.9261 0.1001 1.0306
H25 H 0.9542 0.1965 1.0450
C18 C 0.7826(6) 0.2224(4) 1.1252(4)
H26 H 0.7920 0.2798 1.1153
C19 C 0.7903(6) 0.0818(4) 1.1236(3)
H27 H 0.8074 0.0267 1.1107
C20 C 0.7219(6) 0.1885(4) 1.1734(4)
H28 H 0.6822 0.2201 1.2028
C21 C 0.1955(5) 0.0363(4) 0.6418(3)
H29 H 0.2510 0.0174 0.6155
C22 C 0.1053(7) 0.0639(5) 0.7257(4)
H30 H 0.0855 0.0676 0.7699
C23 C 0.0410(6) 0.0931(5) 0.6686(4)
H31 H -0.0294 0.1205 0.6666
C24 C 0.0706(6) 0.0998(4) 0.5438(3)
H32 H 0.1321 0.1347 0.5304
H33 H 0.0016 0.1340 0.5390
C25 C 0.0533(6) 0.0230(5) 0.4959(4)
H34 H 0.0512 0.0422 0.4490
H35 H 0.1175 -0.0156 0.5054
N1 N 0.9137(4) 0.3042(3) 0.8105(2)
N2 N 0.7445(4) 0.3112(3) 0.7500(3)
N3 N 0.3922(5) 0.2289(3) 0.8599(3)
N4 N 0.3503(5) 0.0945(3) 0.8350(3)
N5 N 0.5144(4) -0.0419(3) 0.8194(3)
N6 N 0.6811(5) -0.0100(4) 0.8763(3)
N7 N 0.8268(5) 0.1536(3) 1.0943(3)
N8 N 0.7279(4) 0.1005(3) 1.1723(3)
N9 N 0.2023(4) 0.0284(3) 0.7083(3)
N10 N 0.0983(4) 0.0749(3) 0.6164(3)
O1 O 1.1079(3) 0.2315(2) 0.8575(2)
O2 O 1.1322(3) 0.3875(2) 0.8015(2)
O3 O 0.9871(3) 0.4487(2) 0.88480(18)
O4 O 0.9954(3) 0.3244(2) 0.96010(18)
O5 O 1.1986(3) 0.3633(2) 0.93979(18)
O6 O 1.1731(4) 0.2167(2) 1.0200(2)
O7 O 1.2959(3) 0.3502(3) 1.0731(2)
O8 O 1.0730(3) 0.3236(2) 1.10503(19)
O9 O 1.0936(3) 0.4551(2) 1.03523(18)
O10 O 0.7730(3) 0.3948(2) 0.9300(2)
O11 O 0.8834(3) 0.4112(2) 1.05798(19)
O12 O 0.4468(3) 0.0780(2) 0.69913(19)
O13 O 0.8293(3) 0.5516(2) 0.8130(2)
Co1A Co 1.14839(7) -0.51205(5) 0.73144(4)
Co1B Co 0.64839(7) 0.01205(5) 1.23144(4)
Co1A_2 Co 1.14839(7) 0.48795(5) 0.73144(4)
Co1B_2 Co -0.35161(7) 0.01205(5) 0.23144(4)
Mo1A Mo 0.41823(4) -0.16308(3) 0.63018(2)
Mo2A Mo 0.59784(4) -0.07907(3) 0.52848(2)
Mo2B Mo 1.09784(4) 0.57907(3) 1.02848(2)
Mo2C Mo 0.40216(4) 0.07907(3) 0.47152(2)
Mo3A Mo 0.54169(4) 0.06636(3) 0.63904(2)
Mo3B Mo 1.04169(4) 0.43364(3) 1.13904(2)
Mo3C Mo 0.45831(4) -0.06636(3) 0.36096(2)
Mo4A Mo 0.33258(4) -0.17539(3) 0.46952(3)
C1A C 0.6742(5) -0.1459(4) 0.7100(3)
H1A H 0.6792 -0.0887 0.6983
C2A C 0.6134(6) -0.2740(4) 0.7175(4)
H2A H 0.5679 -0.3225 0.7113
C3A C 0.7156(6) -0.2700(4) 0.7551(4)
H3A H 0.7526 -0.3143 0.7802
C4A C 0.8628(5) -0.1538(5) 0.7812(3)
H4A H 0.8604 -0.0923 0.7766
H5A H 0.8718 -0.1672 0.8297
C5A C 0.9667(6) -0.1879(5) 0.7496(4)
H6A H 0.9664 -0.2496 0.7519
H7A H 1.0357 -0.1680 0.7769
C6A C 0.9707(6) -0.1615(4) 0.6767(4)
H8A H 0.9107 -0.1910 0.6479
H9A H 0.9554 -0.1008 0.6726
C7A C 1.0863(6) -0.1805(4) 0.6506(4)
H10A H 1.1471 -0.1579 0.6832
H11A H 1.0891 -0.1507 0.6076
C8A C 1.0899(6) -0.3148(5) 0.5803(3)
H12A H 1.0654 -0.2926 0.5372
C9A C 1.1149(7) -0.3973(5) 0.5962(4)
H13A H 1.1093 -0.4420 0.5649
C10A C 1.1452(5) -0.3272(4) 0.6897(3)
H14A H 1.1653 -0.3127 0.7353
C11B C 0.4047(6) -0.0152(5) 1.1703(3)
H15B H 0.4064 -0.0674 1.1928
C12B C 0.4484(7) 0.1100(4) 1.1388(4)
H16B H 0.4869 0.1613 1.1355
C13B C 0.3468(7) 0.0892(5) 1.1037(4)
H17B H 0.3037 0.1231 1.0716
C14B C 0.2230(7) -0.0425(5) 1.0951(5)
H18B H 0.1822 -0.0638 1.1315
H19B H 0.1705 -0.0085 1.0644
C15B C 0.2682(7) -0.1184(5) 1.0553(5)
H20B H 0.3267 -0.1481 1.0851
H21B H 0.3035 -0.0963 1.0168
C16B C 0.1782(8) -0.1794(5) 1.0298(4)
H22B H 0.2137 -0.2342 1.0235
H23B H 0.1274 -0.1866 1.0647
C17B C 0.1077(7) -0.1558(5) 0.9642(4)
H24B H 0.0739 -0.1001 0.9694
H25B H 0.0458 -0.1965 0.9550
C18B C 0.2174(6) -0.2224(4) 0.8748(4)
H26B H 0.2080 -0.2798 0.8847
C19B C 0.2097(6) -0.0818(4) 0.8764(3)
H27B H 0.1926 -0.0267 0.8893
C20B C 0.2781(6) -0.1885(4) 0.8266(4)
H28B H 0.3178 -0.2201 0.7972
C21B C -0.1955(5) -0.0363(4) 0.3582(3)
H29B H -0.2510 -0.0174 0.3845
C22B C -0.1053(7) -0.0639(5) 0.2743(4)
H30B H -0.0855 -0.0676 0.2301
C23B C -0.0410(6) -0.0931(5) 0.3314(4)
H31B H 0.0294 -0.1205 0.3334
C24B C -0.0706(6) -0.0998(4) 0.4562(3)
H32B H -0.1321 -0.1347 0.4696
H33B H -0.0016 -0.1340 0.4610
C25B C -0.0533(6) -0.0230(5) 0.5041(4)
H34B H -0.0512 -0.0422 0.5510
H35B H -0.1175 0.0156 0.4946
N1A N 0.5863(4) -0.1958(3) 0.6895(2)
N2A N 0.7555(4) -0.1888(3) 0.7500(3)
N3A N 1.1078(5) -0.2711(3) 0.6401(3)
N4A N 1.1497(5) -0.4055(3) 0.6650(3)
N5B N 0.4856(4) 0.0419(3) 1.1806(3)
N5A N 0.9856(4) -0.5419(3) 0.6806(3)
N6B N 0.3189(5) 0.0100(4) 1.1237(3)
N7B N 0.1732(5) -0.1536(3) 0.9057(3)
N8B N 0.2721(4) -0.1005(3) 0.8277(3)
N8C N 1.2279(4) -0.6005(3) 0.6723(3)
N9B N -0.2023(4) -0.0284(3) 0.2917(3)
N9A N 1.2977(4) -0.4716(3) 0.7917(3)
N10B N -0.0983(4) -0.0749(3) 0.3836(3)
O1A O 0.3921(3) -0.2685(2) 0.6425(2)
O2A O 0.3678(3) -0.1125(2) 0.6985(2)
O2_2 O 1.1322(3) -0.6125(2) 0.8015(2)
O3A O 0.5129(3) -0.0513(2) 0.61520(18)
O4A O 0.5046(3) -0.1756(2) 0.53990(18)
O5A O 0.3014(3) -0.1367(2) 0.56021(18)
O6A O 0.3269(4) -0.2833(2) 0.4800(2)
O7A O 0.2041(3) -0.1498(3) 0.4269(2)
O8A O 0.4270(3) -0.1764(2) 0.39497(19)
O8B O 0.9270(3) 0.6764(2) 0.89497(19)
O8C O 0.5730(3) 0.1764(2) 0.60503(19)
O9A O 0.4064(3) -0.0449(2) 0.46477(18)
O9B O 0.9064(3) 0.5449(2) 0.96477(18)
O9C O 0.5936(3) 0.0449(2) 0.53523(18)
O10A O 0.7270(3) -0.1052(2) 0.5700(2)
O11B O 1.1166(3) 0.5888(2) 0.94202(19)
O11A O 0.6166(3) -0.0888(2) 0.44202(19)
O11C O 0.3834(3) 0.0888(2) 0.55798(19)
O12A O 1.0532(3) 0.5780(2) 0.80087(19)
O12A_2 O 1.0532(3) -0.4220(2) 0.80087(19)
O13A O 0.6707(3) 0.0516(2) 0.6870(2)
O14 O 0.5844(6) 0.4199(3) 0.4334(3)
loop_
_geom_bond_atom_site_label_1
_geom_bond_atom_site_label_2
_geom_bond_site_symmetry_1
_geom_bond_site_symmetry_2
Co1 N4 1_555 1_555
Mo1 N1 1_555 1_555
Mo2 O3 1_555 1_555
Mo3 O3 1_555 1_555
Mo4 O4 1_555 1_555
C1 H1 1_555 1_555
C2 H2 1_555 1_555
C3 C2 1_555 1_555
H3 C3 1_555 1_555
C4 H4 1_555 1_555
H5 C4 1_555 1_555
C5 C4 1_555 1_555
H6 C5 1_555 1_555
H7 C5 1_555 1_555
C6 C5 1_555 1_555
H8 C6 1_555 1_555
H9 C6 1_555 1_555
C7 C6 1_555 1_555
H10 C7 1_555 1_555
H11 C7 1_555 1_555
C8 H12 1_555 1_555
C9 C8 1_555 1_555
H13 C9 1_555 1_555
C10 H14 1_555 1_555
C11 H15 1_555 1_555
C12 H16 1_555 1_555
C13 C12 1_555 1_555
H17 C13 1_555 1_555
C14 H18 1_555 1_555
H19 C14 1_555 1_555
C15 C14 1_555 1_555
H20 C15 1_555 1_555
H21 C15 1_555 1_555
C16 C15 1_555 1_555
H22 C16 1_555 1_555
H23 C16 1_555 1_555
C17 C16 1_555 1_555
H24 C17 1_555 1_555
H25 C17 1_555 1_555
C18 H26 1_555 1_555
C19 H27 1_555 1_555
C20 C18 1_555 1_555
H28 C20 1_555 1_555
C21 H29 1_555 1_555
C22 H30 1_555 1_555
C23 C22 1_555 1_555
H31 C23 1_555 1_555
C24 H32 1_555 1_555
H33 C24 1_555 1_555
C25 C24 1_555 1_555
H34 C25 1_555 1_555
H35 C25 1_555 1_555
N1 C1 1_555 1_555
N2 C1 1_555 1_555
N3 C7 1_555 1_555
N4 C9 1_555 1_555
N5 Co1 1_555 1_555
N6 C11 1_555 1_555
N7 C17 1_555 1_555
N8 C19 1_555 1_555
N9 Co1 1_555 1_555
N10 C21 1_555 1_555
O1 Mo1 1_555 1_555
O2 Mo1 1_555 1_555
O3 Mo1 1_555 1_555
O4 Mo1 1_555 1_555
O5 Mo1 1_555 1_555
O6 Mo4 1_555 1_555
O7 Mo4 1_555 1_555
O8 Mo4 1_555 1_555
O9 Mo2 1_555 1_555
O10 Mo2 1_555 1_555
O11 Mo2 1_555 1_555
O12 Co1 1_555 1_555
O13 Mo3 1_555 1_555
Co1A N4A 1_555 1_555
Co1B N8 1_555 1_555
Co1A_2 O2 1_555 1_555
Co1B_2 N9B 1_555 1_555
Mo1A N1A 1_555 1_555
Mo2A O3A 1_555 1_555
Mo2B O9 1_555 1_555
Mo2C O9A 1_555 1_555
Mo3A O12 1_555 1_555
Mo3B O8 1_555 1_555
Mo3C O8A 1_555 1_555
Mo4A O4A 1_555 1_555
C1A H1A 1_555 1_555
C2A H2A 1_555 1_555
C3A C2A 1_555 1_555
H3A C3A 1_555 1_555
C4A H4A 1_555 1_555
H5A C4A 1_555 1_555
C5A C4A 1_555 1_555
H6A C5A 1_555 1_555
H7A C5A 1_555 1_555
C6A C5A 1_555 1_555
H8A C6A 1_555 1_555
H9A C6A 1_555 1_555
C7A C6A 1_555 1_555
H10A C7A 1_555 1_555
H11A C7A 1_555 1_555
C8A H12A 1_555 1_555
C9A C8A 1_555 1_555
H13A C9A 1_555 1_555
C10A H14A 1_555 1_555
C11B H15B 1_555 1_555
C12B H16B 1_555 1_555
C13B C12B 1_555 1_555
H17B C13B 1_555 1_555
C14B H18B 1_555 1_555
H19B C14B 1_555 1_555
C15B C14B 1_555 1_555
H20B C15B 1_555 1_555
H21B C15B 1_555 1_555
C16B C15B 1_555 1_555
H22B C16B 1_555 1_555
H23B C16B 1_555 1_555
C17B C16B 1_555 1_555
H24B C17B 1_555 1_555
H25B C17B 1_555 1_555
C18B H26B 1_555 1_555
C19B H27B 1_555 1_555
C20B C18B 1_555 1_555
H28B C20B 1_555 1_555
C21B H29B 1_555 1_555
C22B H30B 1_555 1_555
C23B C22B 1_555 1_555
H31B C23B 1_555 1_555
C24B H32B 1_555 1_555
H33B C24B 1_555 1_555
C25B C25 1_555 1_555
H34B C25B 1_555 1_555
H35B C25B 1_555 1_555
N1A C1A 1_555 1_555
N2A C1A 1_555 1_555
N3A C7A 1_555 1_555
N4A C9A 1_555 1_555
N5B Co1B 1_555 1_555
N5A Co1A 1_555 1_555
N6B C11B 1_555 1_555
N7B C17B 1_555 1_555
N8B Co1 1_555 1_555
N8C Co1A 1_555 1_555
N9B C21B 1_555 1_555
N9A Co1A 1_555 1_555
N10B C21B 1_555 1_555
O1A Mo1A 1_555 1_555
O2A Co1 1_555 1_555
O2_2 Co1A 1_555 1_555
O3A Mo1A 1_555 1_555
O4A Mo1A 1_555 1_555
O5A Mo1A 1_555 1_555
O6A Mo4A 1_555 1_555
O7A Mo4A 1_555 1_555
O8A Mo4A 1_555 1_555
O8B Mo3 1_555 1_555
O8C Mo3A 1_555 1_555
O9A Mo2A 1_555 1_555
O9B Mo2 1_555 1_555
O9C Mo2A 1_555 1_555
O10A Mo2A 1_555 1_555
O11B Mo3 1_555 1_555
O11A Mo2A 1_555 1_555
O11C Mo2C 1_555 1_555
O12A Mo3 1_555 1_555
O12A_2 Co1A 1_555 1_555
O13A Mo3A 1_555 1_555
Mo2 O4 1_555 1_555
Mo3 O9B 1_555 1_555
Mo4 O5 1_555 1_555
Mo4 O9 1_555 1_555
C2 N1 1_555 1_555
C3 N2 1_555 1_555
C4 N2 1_555 1_555
C8 N3 1_555 1_555
C10 N3 1_555 1_555
C10 N4 1_555 1_555
C11 N5 1_555 1_555
C12 N5 1_555 1_555
C13 N6 1_555 1_555
C14 N6 1_555 1_555
C18 N7 1_555 1_555
C19 N7 1_555 1_555
C20 N8 1_555 1_555
C21 N9 1_555 1_555
C22 N9 1_555 1_555
C23 N10 1_555 1_555
C24 N10 1_555 1_555
O9 Mo3B 1_555 1_555
O11 Mo3B 1_555 1_555
Co1A_2 O12A 1_555 1_555
Mo1A O2A 1_555 1_555
Mo2A O4A 1_555 1_555
Mo2B O9B 1_555 1_555
Mo2B O11B 1_555 1_555
Mo2C O9C 1_555 1_555
Mo3A O3A 1_555 1_555
Mo3A O9C 1_555 1_555
Mo3A O11C 1_555 1_555
Mo3C O9A 1_555 1_555
Mo3C O11A 1_555 1_555
Mo4A O5A 1_555 1_555
Mo4A O9A 1_555 1_555
C2A N1A 1_555 1_555
C3A N2A 1_555 1_555
C4A N2A 1_555 1_555
C8A N3A 1_555 1_555
C10A N3A 1_555 1_555
C10A N4A 1_555 1_555
C11B N5B 1_555 1_555
C12B N5B 1_555 1_555
C13B N6B 1_555 1_555
C14B N6B 1_555 1_555
C18B N7B 1_555 1_555
C19B N7B 1_555 1_555
C19B N8B 1_555 1_555
C20B N8B 1_555 1_555
C22B N9B 1_555 1_555
C23B N10B 1_555 1_555
C24B C25B 1_555 1_555
C24B N10B 1_555 1_555

#END
