
#######################################################################
#
#                 Cambridge Crystallographic Data Centre
#                                CCDC 
#
#######################################################################
#
# If this CIF has been generated from an entry in the Cambridge 
# Structural Database, then it will include bibliographic, chemical, 
# crystal, experimental, refinement or atomic coordinate data resulting 
# from the CCDC's data processing and validation procedures.
#
#######################################################################

data_IBOZEG
_symmetry_cell_setting           orthorhombic
_symmetry_space_group_name_H-M   'P 21 21 2'
_symmetry_Int_Tables_number      18
_space_group_name_Hall           'P 2 2ab'
loop_
_symmetry_equiv_pos_site_id
_symmetry_equiv_pos_as_xyz
1 x,y,z
2 -x,-y,z
3 1/2-x,1/2+y,-z
4 1/2+x,1/2-y,-z
_cell_length_a                   22.708(5)
_cell_length_b                   10.553(2)
_cell_length_c                   19.758(4)
_cell_angle_alpha                90
_cell_angle_beta                 90
_cell_angle_gamma                90
_cell_volume                     4734.76
loop_
_atom_site_label
_atom_site_type_symbol
_atom_site_fract_x
_atom_site_fract_y
_atom_site_fract_z
Cu1 Cu 0.22300(4) 0.65734(11) 0.28153(5)
N1 N 0.1627(3) 0.7179(8) 0.3498(4)
N2 N -0.0055(7) 1.3645(8) 0.8241(5)
N3 N 0.1752(3) 0.7606(6) 0.2013(3)
N4 N 0.2173(4) 1.0992(8) -0.2157(5)
O1 O 0.1746(3) 0.5017(7) 0.2632(4)
O2 O 0.2125(4) 0.3578(9) 0.3321(4)
O3 O 0.0365(2) 0.8647(6) 0.4784(3)
O4 O -0.0275(3) 1.1508(10) 0.6475(4)
O5 O 0.0698(2) 0.9646(5) 0.0736(4)
O6 O 0.0774(3) 0.9831(6) -0.0971(3)
C1 C 0.1769(4) 0.7919(17) 0.3962(6)
H1 H 0.2165 0.8141 0.3987
C2 C 0.1384(5) 0.8473(19) 0.4468(6)
H2 H 0.1525 0.8966 0.4822
C3 C 0.0814(3) 0.8227(10) 0.4389(4)
C4 C 0.0654(4) 0.7375(11) 0.3844(6)
H3 H 0.0263 0.7135 0.3786
C5 C 0.1064(3) 0.6938(9) 0.3429(5)
H4 H 0.0946 0.6432 0.3068
C6 C 0.0541(4) 0.9622(11) 0.5227(5)
H5 H 0.0664 1.0357 0.4968
H6 H 0.0874 0.9340 0.5496
C7 C 0.0000 1.0000 -0.0129(5)
C8 C 0.0312(4) 0.8948(9) 0.0276(4)
H7 H 0.0029 0.8440 0.0525
H8 H 0.0537 0.8400 -0.0021
C9 C 0.1386(4) 0.9549(10) 0.1637(5)
H9 H 0.1368 1.0427 0.1668
C10 C 0.0000 1.0000 0.5718(5)
C11 C 0.1238(3) 1.0260(9) -0.1308(4)
C12 C 0.0452(4) 1.0750(9) -0.0568(4)
H10 H 0.0249 1.1345 -0.0860
H11 H 0.0721 1.1219 -0.0280
C13 C 0.1046(3) 0.8949(8) 0.1158(4)
C14 C 0.1099(4) 0.7633(8) 0.1105(4)
H12 H 0.0902 0.7175 0.0773
C15 C -0.0172(5) 1.2245(11) 0.7040(6)
C16 C 0.1225(4) 0.3124(10) 0.2780(6)
C17 C 0.0801(4) 0.3521(12) 0.2340(5)
H13 H 0.0822 0.4322 0.2145
C18 C 0.1448(3) 0.7069(8) 0.1558(4)
H14 H 0.1471 0.6190 0.1537
C19 C 0.1518(5) 0.9408(12) -0.1694(6)
H15 H 0.1423 0.8552 -0.1680
O7 O 0.2870(3) 0.7179(10) 0.3405(4)
C20 C 0.1979(5) 0.9888(10) -0.2137(6)
H16 H 0.2147 0.9310 -0.2435
C21 C 0.0392(5) 1.2573(11) 0.7293(6)
H17 H 0.0734 1.2347 0.7064
C22 C 0.0239(5) 0.162(2) 0.2460(8)
H18 H -0.0083 0.1130 0.2332
C23 C 0.0206(3) 1.1082(8) 0.6085(4)
H19 H 0.0533 1.0852 0.6376
H20 H 0.0335 1.1740 0.5776
C24 C 0.1735(4) 0.8935(8) 0.2052(4)
H21 H 0.1966 0.9368 0.2364
C25 C 0.1879(4) 1.1758(11) -0.1748(5)
H22 H 0.1997 1.2602 -0.1742
C26 C 0.0650(7) 0.1245(10) 0.2953(8)
H23 H 0.0587 0.0493 0.3187
C27 C 0.3604(8) 0.901(2) 0.3940(7)
H24 H 0.3718 0.9826 0.3767
H25 H 0.3947 0.8494 0.3998
H26 H 0.3410 0.9120 0.4368
C28 C 0.1137(6) 0.1948(9) 0.3100(5)
H27 H 0.1412 0.1650 0.3411
C29 C 0.1758(4) 0.3950(9) 0.2974(6)
O8 O 0.3002(4) 0.8924(10) 0.2872(6)
C30 C 0.0411(8) 1.3241(10) 0.7890(7)
H28 H 0.0781 1.3427 0.8065
C31 C 0.0361(7) 0.2757(15) 0.2194(7)
H29 H 0.0102 0.3043 0.1864
C32 C -0.0548(8) 1.3165(13) 0.8019(5)
H30 H -0.0859 1.3205 0.8323
C33 C 0.3102(4) 0.8252(15) 0.3347(7)
C34 C -0.0677(7) 1.2627(13) 0.7428(7)
H31 H -0.1062 1.2508 0.7279
C35 C 0.1429(4) 1.1442(8) -0.1340(5)
H32 H 0.1250 1.2062 -0.1076
Cu1A Cu -0.22300(4) 1.34266(11) 0.28153(5)
Cu1B Cu 0.27700(4) 1.15734(11) -0.28153(5)
Cu1C Cu -0.27700(4) 0.84266(11) -0.28153(5)
N1A N -0.1627(3) 1.2821(8) 0.3498(4)
N2A N 0.0055(7) 0.6355(8) 0.8241(5)
N3A N -0.1752(3) 1.2394(6) 0.2013(3)
N4A N -0.2173(4) 0.9008(8) -0.2157(5)
N4B N 0.2827(4) 0.5992(8) 0.2157(5)
N4C N -0.2827(4) 1.4008(8) 0.2157(5)
O1A O -0.1746(3) 1.4983(7) 0.2632(4)
O2A O -0.2125(4) 1.6422(9) 0.3321(4)
O3A O -0.0365(2) 1.1353(6) 0.4784(3)
O4A O 0.0275(3) 0.8492(10) 0.6475(4)
O5A O -0.0698(2) 1.0354(5) 0.0736(4)
O6A O -0.0774(3) 1.0169(6) -0.0971(3)
C1A C -0.1769(4) 1.2081(17) 0.3962(6)
H1A H -0.2165 1.1859 0.3987
C2A C -0.1384(5) 1.1527(19) 0.4468(6)
H2A H -0.1525 1.1034 0.4822
C3A C -0.0814(3) 1.1773(10) 0.4389(4)
C4A C -0.0654(4) 1.2625(11) 0.3844(6)
H3A H -0.0263 1.2865 0.3786
C5A C -0.1064(3) 1.3062(9) 0.3429(5)
H4A H -0.0946 1.3568 0.3068
C6A C -0.0541(4) 1.0378(11) 0.5227(5)
H5A H -0.0664 0.9643 0.4968
H6A H -0.0874 1.0660 0.5496
C8A C -0.0312(4) 1.1052(9) 0.0276(4)
H7A H -0.0029 1.1560 0.0525
H8A H -0.0537 1.1600 -0.0021
C9A C -0.1386(4) 1.0451(10) 0.1637(5)
H9A H -0.1368 0.9573 0.1668
C11A C -0.1238(3) 0.9740(9) -0.1308(4)
C12A C -0.0452(4) 0.9250(9) -0.0568(4)
H10A H -0.0249 0.8655 -0.0860
H11A H -0.0721 0.8781 -0.0280
C13A C -0.1046(3) 1.1051(8) 0.1158(4)
C14A C -0.1099(4) 1.2367(8) 0.1105(4)
H12A H -0.0902 1.2825 0.0773
C15A C 0.0172(5) 0.7755(11) 0.7040(6)
C16A C -0.1225(4) 1.6876(10) 0.2780(6)
C17A C -0.0801(4) 1.6479(12) 0.2340(5)
H13A H -0.0822 1.5678 0.2145
C18A C -0.1448(3) 1.2931(8) 0.1558(4)
H14A H -0.1471 1.3810 0.1537
C19A C -0.1518(5) 1.0592(12) -0.1694(6)
H15A H -0.1423 1.1448 -0.1680
O7A O -0.2870(3) 1.2821(10) 0.3405(4)
C20A C -0.1979(5) 1.0112(10) -0.2137(6)
H16A H -0.2147 1.0690 -0.2435
C21A C -0.0392(5) 0.7427(11) 0.7293(6)
H17A H -0.0734 0.7653 0.7064
C22A C -0.0239(5) 1.838(2) 0.2460(8)
H18A H 0.0083 1.8870 0.2332
C23A C -0.0206(3) 0.8918(8) 0.6085(4)
H19A H -0.0533 0.9148 0.6376
H20A H -0.0335 0.8260 0.5776
C24A C -0.1735(4) 1.1065(8) 0.2052(4)
H21A H -0.1966 1.0632 0.2364
C25A C -0.1879(4) 0.8242(11) -0.1748(5)
H22A H -0.1997 0.7398 -0.1742
C26A C -0.0650(7) 1.8755(10) 0.2953(8)
H23A H -0.0587 1.9507 0.3187
C27A C -0.3604(8) 1.099(2) 0.3940(7)
H24A H -0.3718 1.0174 0.3767
H25A H -0.3947 1.1506 0.3998
H26A H -0.3410 1.0880 0.4368
C28A C -0.1137(6) 1.8052(9) 0.3100(5)
H27A H -0.1412 1.8350 0.3411
C29A C -0.1758(4) 1.6050(9) 0.2974(6)
O8A O -0.3002(4) 1.1076(10) 0.2872(6)
C30A C -0.0411(8) 0.6759(10) 0.7890(7)
H28A H -0.0781 0.6573 0.8065
C31A C -0.0361(7) 1.7243(15) 0.2194(7)
H29A H -0.0102 1.6957 0.1864
C32A C 0.0548(8) 0.6835(13) 0.8019(5)
H30A H 0.0859 0.6795 0.8323
C33A C -0.3102(4) 1.1748(15) 0.3347(7)
C34A C 0.0677(7) 0.7373(13) 0.7428(7)
H31A H 0.1062 0.7492 0.7279
C35A C -0.1429(4) 0.8558(8) -0.1340(5)
H32A H -0.1250 0.7938 -0.1076
loop_
_geom_bond_atom_site_label_1
_geom_bond_atom_site_label_2
_geom_bond_site_symmetry_1
_geom_bond_site_symmetry_2
Cu1 N1 1_555 1_555
N1 C1 1_555 1_555
N2 C30 1_555 1_555
N3 Cu1 1_555 1_555
N4 C20 1_555 1_555
O1 Cu1 1_555 1_555
O2 C29 1_555 1_555
O3 C3 1_555 1_555
O4 C15 1_555 1_555
O5 C8 1_555 1_555
O6 C11 1_555 1_555
C1 H1 1_555 1_555
C2 C1 1_555 1_555
H2 C2 1_555 1_555
C3 C2 1_555 1_555
C4 C3 1_555 1_555
H3 C4 1_555 1_555
C5 N1 1_555 1_555
H4 C5 1_555 1_555
C6 O3 1_555 1_555
H5 C6 1_555 1_555
H6 C6 1_555 1_555
C7 C8 1_555 1_555
C8 H7 1_555 1_555
H8 C8 1_555 1_555
C9 H9 1_555 1_555
C10 C6 1_555 1_555
C11 C19 1_555 1_555
C12 O6 1_555 1_555
H10 C12 1_555 1_555
H11 C12 1_555 1_555
C13 O5 1_555 1_555
C14 C13 1_555 1_555
H12 C14 1_555 1_555
C15 C21 1_555 1_555
C16 C17 1_555 1_555
C17 H13 1_555 1_555
C18 N3 1_555 1_555
H14 C18 1_555 1_555
C19 H15 1_555 1_555
O7 Cu1 1_555 1_555
C20 C19 1_555 1_555
H16 C20 1_555 1_555
C21 H17 1_555 1_555
C22 H18 1_555 1_555
C23 O4 1_555 1_555
H19 C23 1_555 1_555
H20 C23 1_555 1_555
C24 N3 1_555 1_555
H21 C24 1_555 1_555
C25 N4 1_555 1_555
H22 C25 1_555 1_555
C26 C22 1_555 1_555
H23 C26 1_555 1_555
C27 H24 1_555 1_555
H25 C27 1_555 1_555
H26 C27 1_555 1_555
C28 C16 1_555 1_555
H27 C28 1_555 1_555
C29 O1 1_555 1_555
O8 C33 1_555 1_555
C30 C21 1_555 1_555
H28 C30 1_555 1_555
C31 C17 1_555 1_555
H29 C31 1_555 1_555
C32 N2 1_555 1_555
H30 C32 1_555 1_555
C33 O7 1_555 1_555
C34 C15 1_555 1_555
H31 C34 1_555 1_555
C35 C11 1_555 1_555
H32 C35 1_555 1_555
Cu1A N1A 1_555 1_555
Cu1B N4 1_555 1_555
Cu1C N4A 1_555 1_555
N1A C1A 1_555 1_555
N2A C30A 1_555 1_555
N3A Cu1A 1_555 1_555
N4A C20A 1_555 1_555
N4B Cu1 1_555 1_555
N4C Cu1A 1_555 1_555
O1A Cu1A 1_555 1_555
O2A C29A 1_555 1_555
O3A C3A 1_555 1_555
O4A C15A 1_555 1_555
O5A C8A 1_555 1_555
O6A C11A 1_555 1_555
C1A H1A 1_555 1_555
C2A C1A 1_555 1_555
H2A C2A 1_555 1_555
C3A C2A 1_555 1_555
C4A C3A 1_555 1_555
H3A C4A 1_555 1_555
C5A N1A 1_555 1_555
H4A C5A 1_555 1_555
C6A C10 1_555 1_555
H5A C6A 1_555 1_555
H6A C6A 1_555 1_555
C8A C7 1_555 1_555
H7A C8A 1_555 1_555
H8A C8A 1_555 1_555
C9A H9A 1_555 1_555
C11A C19A 1_555 1_555
C12A C7 1_555 1_555
H10A C12A 1_555 1_555
H11A C12A 1_555 1_555
C13A O5A 1_555 1_555
C14A C13A 1_555 1_555
H12A C14A 1_555 1_555
C15A C21A 1_555 1_555
C16A C17A 1_555 1_555
C17A H13A 1_555 1_555
C18A N3A 1_555 1_555
H14A C18A 1_555 1_555
C19A H15A 1_555 1_555
O7A Cu1A 1_555 1_555
C20A C19A 1_555 1_555
H16A C20A 1_555 1_555
C21A H17A 1_555 1_555
C22A H18A 1_555 1_555
C23A C10 1_555 1_555
H19A C23A 1_555 1_555
H20A C23A 1_555 1_555
C24A N3A 1_555 1_555
H21A C24A 1_555 1_555
C25A N4A 1_555 1_555
H22A C25A 1_555 1_555
C26A C22A 1_555 1_555
H23A C26A 1_555 1_555
C27A H24A 1_555 1_555
H25A C27A 1_555 1_555
H26A C27A 1_555 1_555
C28A C16A 1_555 1_555
H27A C28A 1_555 1_555
C29A O1A 1_555 1_555
O8A C33A 1_555 1_555
C30A C21A 1_555 1_555
H28A C30A 1_555 1_555
C31A C17A 1_555 1_555
H29A C31A 1_555 1_555
C32A N2A 1_555 1_555
H30A C32A 1_555 1_555
C33A O7A 1_555 1_555
C34A C15A 1_555 1_555
H31A C34A 1_555 1_555
C35A C11A 1_555 1_555
H32A C35A 1_555 1_555
C4 C5 1_555 1_555
C7 C12 1_555 1_555
C9 C13 1_555 1_555
C9 C24 1_555 1_555
C10 C23 1_555 1_555
C14 C18 1_555 1_555
C16 C29 1_555 1_555
C22 C31 1_555 1_555
C25 C35 1_555 1_555
C26 C28 1_555 1_555
C27 C33 1_555 1_555
C32 C34 1_555 1_555
O3A C6A 1_555 1_555
O4A C23A 1_555 1_555
O6A C12A 1_555 1_555
C4A C5A 1_555 1_555
C9A C13A 1_555 1_555
C9A C24A 1_555 1_555
C14A C18A 1_555 1_555
C16A C29A 1_555 1_555
C22A C31A 1_555 1_555
C25A C35A 1_555 1_555
C26A C28A 1_555 1_555
C27A C33A 1_555 1_555
C32A C34A 1_555 1_555

#END
