
#######################################################################
#
#                 Cambridge Crystallographic Data Centre
#                                CCDC 
#
#######################################################################
#
# If this CIF has been generated from an entry in the Cambridge 
# Structural Database, then it will include bibliographic, chemical, 
# crystal, experimental, refinement or atomic coordinate data resulting 
# from the CCDC's data processing and validation procedures.
#
#######################################################################

data_IBUBOY
_symmetry_cell_setting           monoclinic
_symmetry_space_group_name_H-M   'P 21/c'
_symmetry_Int_Tables_number      14
_space_group_name_Hall           '-P 2ybc'
loop_
_symmetry_equiv_pos_site_id
_symmetry_equiv_pos_as_xyz
1 x,y,z
2 -x,1/2+y,1/2-z
3 -x,-y,-z
4 x,1/2-y,1/2+z
_cell_length_a                   9.1584(9)
_cell_length_b                   9.6660(9)
_cell_length_c                   11.1105(11)
_cell_angle_alpha                90
_cell_angle_beta                 103.353(2)
_cell_angle_gamma                90
_cell_volume                     956.968
loop_
_atom_site_label
_atom_site_type_symbol
_atom_site_fract_x
_atom_site_fract_y
_atom_site_fract_z
U1 U 0.720939(12) 0.320688(11) 0.876889(10)
O1 O 0.9561(3) 0.3294(2) 1.0270(2)
O2 O 0.6207(3) 0.3681(3) 0.9887(2)
O3 O 0.8221(3) 0.2673(2) 0.7680(2)
C1 C 0.8733(3) 0.0392(3) 1.0762(3)
H1 H 0.9479 0.1022 1.1110
O4 O 1.1615(3) 0.4544(2) 1.1086(2)
C2 C 0.6608(3) -0.0205(3) 0.9323(3)
O5 O 0.5387(3) 0.1495(2) 0.7934(2)
O6 O 0.4383(3) -0.0609(2) 0.7804(2)
N1 N 0.7626(3) 0.0772(3) 0.9802(3)
N2 N 0.7763(4) -0.1914(3) 1.0771(3)
C3 C 0.6684(4) -0.1537(3) 0.9789(3)
H2 H 0.5973 -0.2185 0.9414
C4 C 0.5374(3) 0.0260(3) 0.8267(3)
C5 C 0.8768(4) -0.0948(4) 1.1240(3)
H3 H 0.9532 -0.1175 1.1920
C6 C 1.0342(4) 0.4383(3) 1.0396(3)
U1B U 1.279061(12) 0.679312(11) 1.123111(10)
U1A U 0.279061(12) -0.179312(11) 0.623111(10)
U1A_2 U 0.279061(12) 0.820688(11) 0.623111(10)
O1B O 1.0439(3) 0.6706(2) 0.9730(2)
O2B O 1.3793(3) 0.6319(3) 1.0113(2)
O3B O 1.1779(3) 0.7327(2) 1.2320(2)
C1A C 0.1267(3) 0.5392(3) 0.4238(3)
H1A H 0.0521 0.6022 0.3890
O4B O 0.8385(3) 0.5456(2) 0.8914(2)
C2A C 0.3392(3) 0.4795(3) 0.5677(3)
O5A O 0.4613(3) 0.6495(2) 0.7066(2)
O5B O 1.4613(3) 0.8505(2) 1.2066(2)
O6A O 0.5617(3) 0.4391(2) 0.7196(2)
O6C O 1.4383(3) 0.5609(2) 1.2804(2)
N1A N 0.2374(3) 0.5772(3) 0.5198(3)
N1B N 1.2374(3) 0.9228(3) 1.0198(3)
N2A N 0.2237(4) 0.3086(3) 0.4229(3)
C3A C 0.3316(4) 0.3463(3) 0.5211(3)
H2A H 0.4027 0.2815 0.5586
C4A C 0.4626(3) 0.5260(3) 0.6733(3)
C5A C 0.1232(4) 0.4052(4) 0.3760(3)
H3A H 0.0468 0.3825 0.3080
C6B C 0.9658(4) 0.5617(3) 0.9604(3)
O7 O 0.8173(4) 0.5458(3) 1.2050(3)
H4 H 0.789(6) 0.616(7) 1.173(6)
H5 H 0.760(6) 0.489(6) 1.162(5)
loop_
_geom_bond_atom_site_label_1
_geom_bond_atom_site_label_2
_geom_bond_site_symmetry_1
_geom_bond_site_symmetry_2
U1 O1 1_555 1_555
O1 C6 1_555 1_555
O2 U1 1_555 1_555
O3 U1 1_555 1_555
C1 H1 1_555 1_555
O4 C6 1_555 1_555
C2 N1 1_555 1_555
O5 U1 1_555 1_555
O6 C4 1_555 1_555
N1 U1 1_555 1_555
N2 C3 1_555 1_555
C3 C2 1_555 1_555
H2 C3 1_555 1_555
C4 C2 1_555 1_555
C5 C1 1_555 1_555
H3 C5 1_555 1_555
C6 C6B 1_555 1_555
O7 H4 1_555 1_555
H5 O7 1_555 1_555
U1B O4 1_555 1_555
U1A O6 1_555 1_555
U1A_2 O5A 1_555 1_555
O1B U1B 1_555 1_555
O2B U1B 1_555 1_555
O3B U1B 1_555 1_555
C1A H1A 1_555 1_555
O4B U1 1_555 1_555
C2A N1A 1_555 1_555
O5A C4A 1_555 1_555
O5B U1B 1_555 1_555
O6A U1 1_555 1_555
O6C U1B 1_555 1_555
N1A U1A_2 1_555 1_555
N1B U1B 1_555 1_555
N2A C3A 1_555 1_555
C3A C2A 1_555 1_555
H2A C3A 1_555 1_555
C4A C2A 1_555 1_555
C5A C1A 1_555 1_555
H3A C5A 1_555 1_555
C6B O1B 1_555 1_555
C1 N1 1_555 1_555
O5 C4 1_555 1_555
N2 C5 1_555 1_555
C1A N1A 1_555 1_555
O4B C6B 1_555 1_555
O6A C4A 1_555 1_555
N2A C5A 1_555 1_555

#END
