
#######################################################################
#
#                 Cambridge Crystallographic Data Centre
#                                CCDC 
#
#######################################################################
#
# If this CIF has been generated from an entry in the Cambridge 
# Structural Database, then it will include bibliographic, chemical, 
# crystal, experimental, refinement or atomic coordinate data resulting 
# from the CCDC's data processing and validation procedures.
#
#######################################################################

data_IBUBIS
_symmetry_cell_setting           triclinic
_symmetry_space_group_name_H-M   'P -1'
_symmetry_Int_Tables_number      2
_space_group_name_Hall           '-P 1'
loop_
_symmetry_equiv_pos_site_id
_symmetry_equiv_pos_as_xyz
1 x,y,z
2 -x,-y,-z
_cell_length_a                   6.2890(17)
_cell_length_b                   7.949(2)
_cell_length_c                   8.347(2)
_cell_angle_alpha                79.554(4)
_cell_angle_beta                 87.819(4)
_cell_angle_gamma                79.199(4)
_cell_volume                     403.088
loop_
_atom_site_label
_atom_site_type_symbol
_atom_site_fract_x
_atom_site_fract_y
_atom_site_fract_z
C1 C 0.9700(10) 0.7344(8) 0.0084(7)
C2 C 0.6664(10) 0.6307(8) 0.1119(8)
H1 H 0.5328 0.6025 0.0954
C3 C 1.0569(10) 0.7128(8) 0.1612(7)
H2 H 1.1911 0.7417 0.1742
C4 C 1.0920(10) 0.7923(8) -0.1436(7)
C5 C 0.7472(10) 0.5999(8) 0.2709(7)
H3 H 0.6713 0.5485 0.3582
C6 C 0.9425(10) 0.6478(8) 0.2947(7)
H4 H 0.9957 0.6362 0.3993
N1 N 0.7738(8) 0.6986(7) -0.0159(6)
O1 O 1.2887(7) 0.7985(6) -0.1304(5)
O2 O 1.5835(7) 1.0520(6) -0.2057(5)
O3 O 1.6157(7) 0.6628(6) -0.3621(5)
O4 O 1.7004(7) 1.0041(6) -0.5407(5)
O5 O 0.9879(7) 0.8297(6) -0.2758(5)
U1 U 1.59573(3) 0.86301(3) -0.29239(3)
O4A O 1.2996(7) 0.9959(6) -0.4593(5)
O5_2 O 1.9879(7) 0.8297(6) -0.2758(5)
U1A U 1.40427(3) 1.13699(3) -0.70761(3)
U1_2 U 0.59573(3) 0.86301(3) -0.29239(3)
loop_
_geom_bond_atom_site_label_1
_geom_bond_atom_site_label_2
_geom_bond_site_symmetry_1
_geom_bond_site_symmetry_2
C1 C3 1_555 1_555
C2 H1 1_555 1_555
C3 H2 1_555 1_555
C4 C1 1_555 1_555
C5 C2 1_555 1_555
H3 C5 1_555 1_555
C6 C3 1_555 1_555
H4 C6 1_555 1_555
N1 C1 1_555 1_555
O1 C4 1_555 1_555
O2 U1 1_555 1_555
O3 U1 1_555 1_555
O4 U1 1_555 1_555
O5 C4 1_555 1_555
U1 O1 1_555 1_555
O4A U1 1_555 1_555
O5_2 U1 1_555 1_555
U1A O4 1_555 1_555
U1_2 O5 1_555 1_555
C2 N1 1_555 1_555
C5 C6 1_555 1_555
O4A U1A 1_555 1_555

#END
