
#######################################################################
#
#                 Cambridge Crystallographic Data Centre
#                                CCDC 
#
#######################################################################
#
# If this CIF has been generated from an entry in the Cambridge 
# Structural Database, then it will include bibliographic, chemical, 
# crystal, experimental, refinement or atomic coordinate data resulting 
# from the CCDC's data processing and validation procedures.
#
#######################################################################

data_IBUBAK
_symmetry_cell_setting           monoclinic
_symmetry_space_group_name_H-M   'P 21/c'
_symmetry_Int_Tables_number      14
_space_group_name_Hall           '-P 2ybc'
loop_
_symmetry_equiv_pos_site_id
_symmetry_equiv_pos_as_xyz
1 x,y,z
2 -x,1/2+y,1/2-z
3 -x,-y,-z
4 x,1/2-y,1/2+z
_cell_length_a                   10.4417(3)
_cell_length_b                   7.8434(3)
_cell_length_c                   12.2703(4)
_cell_angle_alpha                90
_cell_angle_beta                 111.1640(10)
_cell_angle_gamma                90
_cell_volume                     937.137
loop_
_atom_site_label
_atom_site_type_symbol
_atom_site_fract_x
_atom_site_fract_y
_atom_site_fract_z
O1 O 0.5469(3) 0.7003(3) 0.9659(3)
O2 O 0.6723(3) 0.8301(4) 1.2118(3)
O3 O 0.3641(2) 0.5386(4) 0.8713(2)
O4 O 0.8472(3) 0.6219(4) 1.0538(3)
C1 C 0.4743(3) 0.5686(5) 0.9530(3)
O5 O 0.9029(2) 0.6018(3) 1.3084(2)
U1 U 0.760241(12) 0.723719(18) 1.133716(11)
N1 N 1.2456(3) 0.4974(4) 1.4843(3)
O6 O 1.0457(3) 0.4039(4) 1.2895(2)
C2 C 1.0185(3) 0.5288(5) 1.3414(3)
C3 C 1.1294(3) 0.5933(5) 1.4482(3)
C4 C 1.1151(4) 0.7404(5) 1.5033(4)
H1 H 1.0337 0.8024 1.4759
C5 C 1.2240(5) 0.7949(5) 1.6007(4)
H2 H 1.2177 0.8946 1.6395
C6 C 1.3426(4) 0.6970(5) 1.6388(4)
H3 H 1.4170 0.7298 1.7043
C7 C 1.3495(4) 0.5510(5) 1.5791(3)
H4 H 1.4298 0.4868 1.6056
O1B O 0.4531(3) 0.2997(3) 1.0341(3)
O2B O 0.3277(3) 0.1699(4) 0.7882(3)
O3B O 0.6359(2) 0.4614(4) 1.1287(2)
O4B O 0.1528(3) 0.3781(4) 0.9462(3)
C1B C 0.5257(3) 0.4314(5) 1.0470(3)
O5A O 1.0971(2) 1.1018(3) 1.1916(2)
O5B O 0.0971(2) 0.3982(3) 0.6916(2)
U1B U 0.239759(12) 0.276281(18) 0.866284(11)
U1A U 1.239759(12) 0.223719(18) 1.366284(11)
U1A_2 U 1.239759(12) 1.223719(18) 1.366284(11)
N1A N 0.7544(3) 0.9974(4) 1.0157(3)
O6A O 0.9543(3) 0.9039(4) 1.2105(2)
O6C O 0.0457(3) 0.0961(4) 0.7895(2)
C2A C 0.9815(3) 1.0288(5) 1.1586(3)
C3A C 0.8706(3) 1.0933(5) 1.0518(3)
C4A C 0.8849(4) 1.2404(5) 0.9967(4)
H1A H 0.9663 1.3024 1.0241
C5A C 0.7760(5) 1.2949(5) 0.8993(4)
H2A H 0.7823 1.3946 0.8605
C6A C 0.6574(4) 1.1970(5) 0.8612(4)
H3A H 0.5830 1.2298 0.7957
C7A C 0.6505(4) 1.0510(5) 0.9209(3)
H4A H 0.5702 0.9868 0.8944
loop_
_geom_bond_atom_site_label_1
_geom_bond_atom_site_label_2
_geom_bond_site_symmetry_1
_geom_bond_site_symmetry_2
O1 C1 1_555 1_555
O2 U1 1_555 1_555
O3 C1 1_555 1_555
O4 U1 1_555 1_555
C1 C1B 1_555 1_555
O5 U1 1_555 1_555
U1 O1 1_555 1_555
N1 C3 1_555 1_555
O6 C2 1_555 1_555
C2 O5 1_555 1_555
C3 C2 1_555 1_555
C4 C3 1_555 1_555
H1 C4 1_555 1_555
C5 C4 1_555 1_555
H2 C5 1_555 1_555
C6 C5 1_555 1_555
H3 C6 1_555 1_555
C7 N1 1_555 1_555
H4 C7 1_555 1_555
O1B C1B 1_555 1_555
O2B U1B 1_555 1_555
O3B U1 1_555 1_555
O4B U1B 1_555 1_555
C1B O3B 1_555 1_555
O5A U1A_2 1_555 1_555
O5B U1B 1_555 1_555
U1B O3 1_555 1_555
U1A O6 1_555 1_555
N1A C3A 1_555 1_555
O6A U1 1_555 1_555
O6C U1B 1_555 1_555
C2A O5A 1_555 1_555
C3A C2A 1_555 1_555
C4A C3A 1_555 1_555
H1A C4A 1_555 1_555
C5A C4A 1_555 1_555
H2A C5A 1_555 1_555
C6A C5A 1_555 1_555
H3A C6A 1_555 1_555
C7A N1A 1_555 1_555
H4A C7A 1_555 1_555
C6 C7 1_555 1_555
O1B U1B 1_555 1_555
O6A C2A 1_555 1_555
C6A C7A 1_555 1_555

#END
