
#######################################################################
#
#                 Cambridge Crystallographic Data Centre
#                                CCDC 
#
#######################################################################
#
# If this CIF has been generated from an entry in the Cambridge 
# Structural Database, then it will include bibliographic, chemical, 
# crystal, experimental, refinement or atomic coordinate data resulting 
# from the CCDC's data processing and validation procedures.
#
#######################################################################

data_IBUHUK
_symmetry_cell_setting           monoclinic
_symmetry_space_group_name_H-M   'C 2'
_symmetry_Int_Tables_number      5
_space_group_name_Hall           'C 2y'
loop_
_symmetry_equiv_pos_site_id
_symmetry_equiv_pos_as_xyz
1 x,y,z
2 -x,y,-z
3 1/2+x,1/2+y,z
4 1/2-x,1/2+y,-z
_cell_length_a                   24.412(7)
_cell_length_b                   11.263(2)
_cell_length_c                   19.406(5)
_cell_angle_alpha                90
_cell_angle_beta                 127.749(5)
_cell_angle_gamma                90
_cell_volume                     4218.96
loop_
_atom_site_label
_atom_site_type_symbol
_atom_site_fract_x
_atom_site_fract_y
_atom_site_fract_z
As1 As 0.86225(14) 0.8161(3) 0.16654(18)
As2 As 0.68885(12) 0.8365(2) 0.35460(15)
Se1 Se 0.84296(12) 0.7705(2) 0.27563(14)
Se2 Se 0.80089(13) 0.9377(2) 0.29715(16)
Se3 Se 0.68440(13) 0.9176(3) 0.23283(15)
Se4 Se 0.56689(13) 0.8770(3) 0.27290(19)
Se5 Se 0.51759(19) 0.7077(4) 0.1876(2)
Se6 Se 0.52814(17) 0.5606(3) 0.2803(2)
Se7 Se 0.93730(19) 1.0950(3) 0.2853(2)
Se8 Se 0.84210(16) 1.0241(3) 0.15257(19)
Se9 Se 0.76621(13) 0.7711(3) 0.03212(14)
Se10 Se 0.72501(13) 0.9838(2) 0.45206(15)
Se6B Se 1.02814(17) 1.0606(3) 0.2803(2)
Se7B Se 0.43730(19) 0.5950(3) 0.2853(2)
Ni1 Ni 1.0000 0.4753(3) 0.5000
N1 N 0.9260(10) 0.3527(15) 0.4706(10)
N2 N 0.9426(7) 0.4714(13) 0.3630(9)
N3 N 1.0579(8) 0.6202(17) 0.5029(10)
C1 C 0.9164(10) 0.2945(15) 0.5209(12)
H1 H 0.9480 0.3067 0.5808
C2 C 0.8614(11) 0.2147(19) 0.4901(14)
H2 H 0.8584 0.1722 0.5288
C3 C 0.8132(11) 0.2016(19) 0.4035(14)
H3 H 0.7755 0.1518 0.3818
C4 C 0.8194(9) 0.2599(18) 0.3483(13)
C5 C 0.7700(9) 0.2464(17) 0.2507(15)
H4 H 0.7334 0.1929 0.2255
C6 C 0.7784(12) 0.3089(18) 0.2019(13)
H5 H 0.7448 0.3044 0.1418
C7 C 0.8358(9) 0.3835(19) 0.2356(12)
C8 C 0.8456(10) 0.4494(19) 0.1812(15)
H6 H 0.8124 0.4478 0.1209
C9 C 0.9060(13) 0.516(2) 0.2201(14)
H7 H 0.9151 0.5538 0.1853
C10 C 0.9531(10) 0.5275(19) 0.3109(16)
H8 H 0.9923 0.5746 0.3356
C11 C 0.8885(12) 0.3966(16) 0.3269(13)
C12 C 0.8783(10) 0.3379(17) 0.3851(13)
C13 C 1.1092(9) 0.6228(19) 0.5036(12)
H9 H 1.1305 0.5501 0.5121
C14 C 1.1373(11) 0.715(2) 0.4939(12)
H10 H 1.1721 0.7068 0.4878
C15 C 1.1105(11) 0.825(2) 0.4937(14)
H11 H 1.1309 0.8945 0.4927
C16 C 1.0290(10) 0.7277(19) 0.4992(12)
C17 C 1.0547(10) 0.8333(18) 0.4948(13)
C18 C 1.0265(12) 0.9373(18) 0.4965(12)
H12 H 1.0433 1.0092 0.4930
N1A N 1.0740(10) 0.3527(15) 0.5294(10)
N2A N 1.0574(7) 0.4714(13) 0.6370(9)
N3A N 0.9421(8) 0.6202(17) 0.4971(10)
C1A C 1.0836(10) 0.2945(15) 0.4791(12)
H1A H 1.0520 0.3067 0.4192
C2A C 1.1386(11) 0.2147(19) 0.5099(14)
H2A H 1.1416 0.1722 0.4712
C3A C 1.1868(11) 0.2016(19) 0.5965(14)
H3A H 1.2245 0.1518 0.6182
C4A C 1.1806(9) 0.2599(18) 0.6517(13)
C5A C 1.2300(9) 0.2464(17) 0.7493(15)
H4A H 1.2666 0.1929 0.7745
C6A C 1.2216(12) 0.3089(18) 0.7981(13)
H5A H 1.2552 0.3044 0.8582
C7A C 1.1642(9) 0.3835(19) 0.7644(12)
C8A C 1.1544(10) 0.4494(19) 0.8188(15)
H6A H 1.1876 0.4478 0.8791
C9A C 1.0940(13) 0.516(2) 0.7799(14)
H7A H 1.0849 0.5538 0.8147
C10A C 1.0469(10) 0.5275(19) 0.6891(16)
H8A H 1.0077 0.5746 0.6644
C11A C 1.1115(12) 0.3966(16) 0.6731(13)
C12A C 1.1217(10) 0.3379(17) 0.6149(13)
C13A C 0.8908(9) 0.6228(19) 0.4964(12)
H9A H 0.8695 0.5501 0.4879
C14A C 0.8627(11) 0.715(2) 0.5061(12)
H10A H 0.8279 0.7068 0.5122
C15A C 0.8895(11) 0.825(2) 0.5063(14)
H11A H 0.8691 0.8945 0.5073
C16A C 0.9710(10) 0.7277(19) 0.5008(12)
C17A C 0.9453(10) 0.8333(18) 0.5052(13)
C18A C 0.9735(12) 0.9373(18) 0.5035(12)
H12A H 0.9567 1.0092 0.5070
Ni2 Ni 0.5000 0.2816(3) 0.0000
N4 N 0.5735(8) 0.4144(14) 0.0335(10)
N5 N 0.5557(10) 0.2871(15) 0.1338(10)
N6 N 0.5598(7) 0.1410(12) 0.0075(9)
C19 C 0.5833(12) 0.476(2) -0.0145(13)
H13 H 0.5540 0.4596 -0.0739
C20 C 0.6316(14) 0.561(2) 0.0124(16)
H14 H 0.6361 0.5991 -0.0265
C21 C 0.6733(12) 0.589(2) 0.0985(17)
H15 H 0.7078 0.6464 0.1201
C22 C 0.6636(9) 0.5309(17) 0.1552(12)
C23 C 0.7040(11) 0.5502(18) 0.2483(14)
H16 H 0.7368 0.6105 0.2740
C24 C 0.6961(11) 0.488(2) 0.2956(12)
H17 H 0.7235 0.5062 0.3547
C25 C 0.6495(10) 0.395(2) 0.2660(13)
C26 C 0.6394(13) 0.323(2) 0.3140(16)
H18 H 0.6663 0.3357 0.3739
C27 C 0.5910(11) 0.2338(17) 0.2776(11)
H19 H 0.5863 0.1839 0.3119
C28 C 0.5478(11) 0.220(3) 0.1842(16)
H20 H 0.5131 0.1628 0.1580
C29 C 0.6056(8) 0.3777(16) 0.1747(11)
C30 C 0.6125(9) 0.4431(15) 0.1193(11)
C31 C 0.6159(10) 0.142(2) 0.0115(13)
H21 H 0.6331 0.2147 0.0097
C32 C 0.6502(11) 0.0381(19) 0.0183(13)
H22 H 0.6919 0.0414 0.0266
C33 C 0.6210(10) -0.068(2) 0.0126(13)
H23 H 0.6404 -0.1380 0.0107
C34 C 0.5322(10) 0.036(2) 0.0047(13)
C35 C 0.5626(10) -0.074(2) 0.0096(13)
C36 C 0.5292(10) -0.180(2) 0.0038(13)
H24 H 0.5484 -0.2521 0.0054
N4A N 0.4265(8) 0.4144(14) -0.0335(10)
N5A N 0.4443(10) 0.2871(15) -0.1338(10)
N6A N 0.4402(7) 0.1410(12) -0.0075(9)
C19A C 0.4167(12) 0.476(2) 0.0145(13)
H13A H 0.4460 0.4596 0.0739
C20A C 0.3684(14) 0.561(2) -0.0124(16)
H14A H 0.3639 0.5991 0.0265
C21A C 0.3267(12) 0.589(2) -0.0985(17)
H15A H 0.2922 0.6464 -0.1201
C22A C 0.3364(9) 0.5309(17) -0.1552(12)
C23A C 0.2960(11) 0.5502(18) -0.2483(14)
H16A H 0.2632 0.6105 -0.2740
C24A C 0.3039(11) 0.488(2) -0.2956(12)
H17A H 0.2765 0.5062 -0.3547
C25A C 0.3505(10) 0.395(2) -0.2660(13)
C26A C 0.3606(13) 0.323(2) -0.3140(16)
H18A H 0.3337 0.3357 -0.3739
C27A C 0.4090(11) 0.2338(17) -0.2776(11)
H19A H 0.4137 0.1839 -0.3119
C28A C 0.4522(11) 0.220(3) -0.1842(16)
H20A H 0.4869 0.1628 -0.1580
C29A C 0.3944(8) 0.3777(16) -0.1747(11)
C30A C 0.3875(9) 0.4431(15) -0.1193(11)
C31A C 0.3841(10) 0.142(2) -0.0115(13)
H21A H 0.3669 0.2147 -0.0097
C32A C 0.3498(11) 0.0381(19) -0.0183(13)
H22A H 0.3081 0.0414 -0.0266
C33A C 0.3790(10) -0.068(2) -0.0126(13)
H23A H 0.3596 -0.1380 -0.0107
C34A C 0.4678(10) 0.036(2) -0.0047(13)
C35A C 0.4374(10) -0.074(2) -0.0096(13)
C36A C 0.4708(10) -0.180(2) -0.0038(13)
H24A H 0.4516 -0.2521 -0.0054
loop_
_geom_bond_atom_site_label_1
_geom_bond_atom_site_label_2
_geom_bond_site_symmetry_1
_geom_bond_site_symmetry_2
As1 Se1 1_555 1_555
As2 Se3 1_555 1_555
Se1 Se2 1_555 1_555
Se2 Se3 1_555 1_555
Se4 As2 1_555 1_555
Se5 Se4 1_555 1_555
Se6 Se5 1_555 1_555
Se7 Se8 1_555 1_555
Se8 As1 1_555 1_555
Se9 As1 1_555 1_555
Se10 As2 1_555 1_555
Ni1 N1 1_555 1_555
Ni2 N4 1_555 1_555
N1 C1 1_555 1_555
N2 Ni1 1_555 1_555
N3 Ni1 1_555 1_555
N4 C19 1_555 1_555
N5 Ni2 1_555 1_555
N6 Ni2 1_555 1_555
C1 H1 1_555 1_555
C2 C1 1_555 1_555
H2 C2 1_555 1_555
C3 C2 1_555 1_555
H3 C3 1_555 1_555
C4 C3 1_555 1_555
C5 C4 1_555 1_555
H4 C5 1_555 1_555
C6 C5 1_555 1_555
H5 C6 1_555 1_555
C7 C6 1_555 1_555
C8 C7 1_555 1_555
H6 C8 1_555 1_555
C9 C8 1_555 1_555
H7 C9 1_555 1_555
C10 N2 1_555 1_555
H8 C10 1_555 1_555
C11 N2 1_555 1_555
C12 N1 1_555 1_555
C13 N3 1_555 1_555
H9 C13 1_555 1_555
C14 C13 1_555 1_555
H10 C14 1_555 1_555
C15 C14 1_555 1_555
H11 C15 1_555 1_555
C16 N3 1_555 1_555
C17 C15 1_555 1_555
C18 C17 1_555 1_555
H12 C18 1_555 1_555
C19 H13 1_555 1_555
C20 C19 1_555 1_555
H14 C20 1_555 1_555
C21 C20 1_555 1_555
H15 C21 1_555 1_555
C22 C21 1_555 1_555
C23 C22 1_555 1_555
H16 C23 1_555 1_555
C24 C23 1_555 1_555
H17 C24 1_555 1_555
C25 C24 1_555 1_555
C26 C25 1_555 1_555
H18 C26 1_555 1_555
C27 C26 1_555 1_555
H19 C27 1_555 1_555
C28 N5 1_555 1_555
H20 C28 1_555 1_555
C29 N5 1_555 1_555
C30 N4 1_555 1_555
C31 N6 1_555 1_555
H21 C31 1_555 1_555
C32 C31 1_555 1_555
H22 C32 1_555 1_555
C33 C32 1_555 1_555
H23 C33 1_555 1_555
C34 N6 1_555 1_555
C35 C33 1_555 1_555
C36 C35 1_555 1_555
H24 C36 1_555 1_555
Se6B Se7 1_555 1_555
Se7B Se6 1_555 1_555
N1A Ni1 1_555 1_555
N2A Ni1 1_555 1_555
N3A Ni1 1_555 1_555
N4A Ni2 1_555 1_555
N5A Ni2 1_555 1_555
N6A Ni2 1_555 1_555
C1A N1A 1_555 1_555
H1A C1A 1_555 1_555
C2A C1A 1_555 1_555
H2A C2A 1_555 1_555
C3A C2A 1_555 1_555
H3A C3A 1_555 1_555
C4A C3A 1_555 1_555
C5A C4A 1_555 1_555
H4A C5A 1_555 1_555
C6A C5A 1_555 1_555
H5A C6A 1_555 1_555
C7A C6A 1_555 1_555
C8A C7A 1_555 1_555
H6A C8A 1_555 1_555
C9A C8A 1_555 1_555
H7A C9A 1_555 1_555
C10A N2A 1_555 1_555
H8A C10A 1_555 1_555
C11A N2A 1_555 1_555
C12A N1A 1_555 1_555
C13A N3A 1_555 1_555
H9A C13A 1_555 1_555
C14A C13A 1_555 1_555
H10A C14A 1_555 1_555
C15A C14A 1_555 1_555
H11A C15A 1_555 1_555
C16A C16 1_555 1_555
C17A C15A 1_555 1_555
C18A C18 1_555 1_555
H12A C18A 1_555 1_555
C19A N4A 1_555 1_555
H13A C19A 1_555 1_555
C20A C19A 1_555 1_555
H14A C20A 1_555 1_555
C21A C20A 1_555 1_555
H15A C21A 1_555 1_555
C22A C21A 1_555 1_555
C23A C22A 1_555 1_555
H16A C23A 1_555 1_555
C24A C23A 1_555 1_555
H17A C24A 1_555 1_555
C25A C24A 1_555 1_555
C26A C25A 1_555 1_555
H18A C26A 1_555 1_555
C27A C26A 1_555 1_555
H19A C27A 1_555 1_555
C28A N5A 1_555 1_555
H20A C28A 1_555 1_555
C29A N5A 1_555 1_555
C30A N4A 1_555 1_555
C31A N6A 1_555 1_555
H21A C31A 1_555 1_555
C32A C31A 1_555 1_555
H22A C32A 1_555 1_555
C33A C32A 1_555 1_555
H23A C33A 1_555 1_555
C34A C34 1_555 1_555
C35A C33A 1_555 1_555
C36A C36 1_555 1_555
H24A C36A 1_555 1_555
C4 C12 1_555 1_555
C7 C11 1_555 1_555
C9 C10 1_555 1_555
C11 C12 1_555 1_555
C16 C17 1_555 1_555
C22 C30 1_555 1_555
C25 C29 1_555 1_555
C27 C28 1_555 1_555
C29 C30 1_555 1_555
C34 C35 1_555 1_555
N3A C16A 1_555 1_555
N6A C34A 1_555 1_555
C4A C12A 1_555 1_555
C7A C11A 1_555 1_555
C9A C10A 1_555 1_555
C11A C12A 1_555 1_555
C16A C17A 1_555 1_555
C17A C18A 1_555 1_555
C22A C30A 1_555 1_555
C25A C29A 1_555 1_555
C27A C28A 1_555 1_555
C29A C30A 1_555 1_555
C34A C35A 1_555 1_555
C35A C36A 1_555 1_555

#END
