
#######################################################################
#
#                 Cambridge Crystallographic Data Centre
#                                CCDC 
#
#######################################################################
#
# If this CIF has been generated from an entry in the Cambridge 
# Structural Database, then it will include bibliographic, chemical, 
# crystal, experimental, refinement or atomic coordinate data resulting 
# from the CCDC's data processing and validation procedures.
#
#######################################################################

data_IBUKAS
_symmetry_cell_setting           monoclinic
_symmetry_space_group_name_H-M   'P 21/c'
_symmetry_Int_Tables_number      14
_space_group_name_Hall           '-P 2ybc'
loop_
_symmetry_equiv_pos_site_id
_symmetry_equiv_pos_as_xyz
1 x,y,z
2 x,1/2-y,1/2+z
3 -x,-y,-z
4 -x,1/2+y,1/2-z
_cell_length_a                   16.9553(18)
_cell_length_b                   7.8694(8)
_cell_length_c                   22.512(2)
_cell_angle_alpha                90
_cell_angle_beta                 106.335(2)
_cell_angle_gamma                90
_cell_volume                     2882.48
loop_
_atom_site_label
_atom_site_type_symbol
_atom_site_fract_x
_atom_site_fract_y
_atom_site_fract_z
Cu1 Cu 0.22819(4) 0.41585(8) 0.11960(3)
Cu2 Cu 0.22614(5) 0.58522(9) 0.25830(3)
O1 O 0.2920(3) 0.4965(6) 0.20366(18)
C1 C 0.3759(4) 0.4953(7) 0.2222(2)
C2 C 0.4206(4) 0.5319(7) 0.1800(2)
C3 C 0.5065(3) 0.5283(7) 0.2000(3)
H1 H 0.5356 0.5490 0.1713
C4 C 0.5504(4) 0.4946(7) 0.2618(3)
C5 C 0.6432(4) 0.4956(11) 0.2822(3)
H2 H 0.6626 0.6105 0.2834
H3 H 0.6635 0.4308 0.2536
H4 H 0.6624 0.4463 0.3227
C6 C 0.5042(4) 0.4625(7) 0.3031(3)
H5 H 0.5316 0.4423 0.3444
C7 C 0.4185(4) 0.4595(7) 0.2846(3)
C8 C 0.3777(4) 0.5779(7) 0.1134(3)
H6 H 0.3473 0.6826 0.1126
H7 H 0.4188 0.5983 0.0917
N1 N 0.3199(3) 0.4426(6) 0.0800(2)
C9 C 0.2819(4) 0.4964(8) 0.0139(2)
H8 H 0.2720 0.3963 -0.0123
H9 H 0.3204 0.5683 0.0009
C10 C 0.2010(4) 0.5926(7) 0.0046(3)
O2 O 0.1686(3) 0.5879(5) 0.04944(19)
O3 O 0.1715(3) 0.6615(6) -0.04643(19)
C11 C 0.3605(4) 0.2737(7) 0.0813(3)
H10 H 0.4009 0.2579 0.1211
H11 H 0.3888 0.2696 0.0494
C12 C 0.2968(4) 0.1317(7) 0.0707(2)
O4 O 0.2290(3) 0.1700(5) 0.08440(18)
O5 O 0.3118(3) -0.0089(6) 0.0524(2)
C13 C 0.3727(4) 0.4111(7) 0.3306(3)
H12 H 0.4121 0.3882 0.3703
H13 H 0.3422 0.3073 0.3168
N2 N 0.3134(3) 0.5489(6) 0.3388(2)
C14 C 0.3555(4) 0.7138(8) 0.3584(3)
H14 H 0.3988 0.7293 0.3385
H15 H 0.3803 0.7132 0.4028
C15 C 0.2941(4) 0.8606(7) 0.3410(3)
O6 O 0.2288(3) 0.8285(6) 0.29696(19)
O7 O 0.3098(3) 0.9990(6) 0.3676(2)
C16 C 0.2715(5) 0.4897(9) 0.3855(3)
H16 H 0.2617 0.5866 0.4091
H17 H 0.3074 0.4117 0.4141
C17 C 0.1902(6) 0.4017(10) 0.3555(4)
O8 O 0.1570(4) 0.4286(10) 0.2985(3)
O9 O 0.1593(5) 0.3095(9) 0.3890(3)
O10 O 0.1287(3) 0.3825(5) 0.14366(19)
O11 O 0.1326(3) 0.6371(6) 0.1900(2)
C18 C 0.0911(4) 0.5229(9) 0.1532(3)
O12 O 0.0173(3) 0.5475(7) 0.1246(2)
K1 K 0.0000 0.5000 0.0000
K2 K -0.0261(2) 0.3808(3) 0.34799(12)
K3 K 0.11895(9) 0.49914(19) -0.15771(7)
Na1 Na 0.0000 1.0000 0.0000
O13 O 0.0200(3) 0.6611(7) 0.4145(3)
H18 H 0.0765 0.6945 0.4192
H19 H -0.0173 0.7563 0.4019
O14 O -0.1142(3) 0.4018(5) 0.4220(2)
H20 H -0.1583 0.4844 0.4096
H21 H -0.1350 0.2931 0.4314
O15 O -0.0894(3) 0.7832(6) 0.01700(19)
H22 H -0.1430 0.7879 -0.0131
H23 H -0.0956 0.7879 0.0585
O16 O -0.0013(9) 0.3195(19) 0.2530(6)
H24 H -0.0065 0.1983 0.2450
H25 H 0.0540 0.3540 0.2540
O18 O -0.1299(3) 0.5838(7) 0.2808(2)
H28 H -0.1149 0.7012 0.2913
H29 H -0.1847 0.5633 0.2845
O1B O -0.2920(3) 0.5035(6) -0.20366(18)
C1B C -0.3759(4) 0.5047(7) -0.2222(2)
C2B C -0.4206(4) 0.4681(7) -0.1800(2)
C3B C -0.5065(3) 0.4717(7) -0.2000(3)
H1B H -0.5356 0.4510 -0.1713
C4B C -0.5504(4) 0.5054(7) -0.2618(3)
C5B C -0.6432(4) 0.5044(11) -0.2822(3)
H2B H -0.6626 0.3895 -0.2834
H3B H -0.6635 0.5692 -0.2536
H4B H -0.6624 0.5537 -0.3227
C6B C -0.5042(4) 0.5375(7) -0.3031(3)
H5B H -0.5316 0.5577 -0.3444
C7B C -0.4185(4) 0.5405(7) -0.2846(3)
C8B C -0.3777(4) 0.4221(7) -0.1134(3)
H6B H -0.3473 0.3174 -0.1126
H7B H -0.4188 0.4017 -0.0917
N1B N -0.3199(3) 0.5574(6) -0.0800(2)
C9B C -0.2819(4) 0.5036(8) -0.0139(2)
H8B H -0.2720 0.6037 0.0123
H9B H -0.3204 0.4317 -0.0009
C10B C -0.2010(4) 0.4074(7) -0.0046(3)
O2B O -0.1686(3) 0.4121(5) -0.04944(19)
O3B O -0.1715(3) 0.3385(6) 0.04643(19)
C11B C -0.3605(4) 0.7263(7) -0.0813(3)
H10B H -0.4009 0.7421 -0.1211
H11B H -0.3888 0.7304 -0.0494
C12B C -0.2968(4) 0.8683(7) -0.0707(2)
O4B O -0.2290(3) 0.8300(5) -0.08440(18)
O5B O -0.3118(3) 1.0089(6) -0.0524(2)
C13B C -0.3727(4) 0.5889(7) -0.3306(3)
H12B H -0.4121 0.6118 -0.3703
H13B H -0.3422 0.6927 -0.3168
N2B N -0.3134(3) 0.4511(6) -0.3388(2)
C14B C -0.3555(4) 0.2862(8) -0.3584(3)
H14B H -0.3988 0.2707 -0.3385
H15B H -0.3803 0.2868 -0.4028
C15B C -0.2941(4) 0.1394(7) -0.3410(3)
O6B O -0.2288(3) 0.1715(6) -0.29696(19)
O7B O -0.3098(3) 0.0010(6) -0.3676(2)
C16B C -0.2715(5) 0.5103(9) -0.3855(3)
H16B H -0.2617 0.4134 -0.4091
H17B H -0.3074 0.5883 -0.4141
C17B C -0.1902(6) 0.5983(10) -0.3555(4)
O8B O -0.1570(4) 0.5714(10) -0.2985(3)
O9B O -0.1593(5) 0.6905(9) -0.3890(3)
O10B O -0.1287(3) 0.6175(5) -0.14366(19)
O11B O -0.1326(3) 0.3629(6) -0.1900(2)
C18B C -0.0911(4) 0.4771(9) -0.1532(3)
O12B O -0.0173(3) 0.4525(7) -0.1246(2)
O15B O 0.0894(3) 0.2168(6) -0.01700(19)
H22B H 0.1430 0.2121 0.0131
H23B H 0.0956 0.2121 -0.0585
Cu1B Cu -0.22819(4) 0.58415(8) -0.11960(3)
Cu2B Cu -0.22614(5) 0.41478(9) -0.25830(3)
K2B K 0.0261(2) 0.6192(3) -0.34799(12)
K3B K -0.11895(9) 0.50086(19) 0.15771(7)
O16B O 0.0013(9) 0.6805(19) -0.2530(6)
H24B H 0.0065 0.8017 -0.2450
H25B H -0.0540 0.6460 -0.2540
O18B O 0.1299(3) 0.4162(7) -0.2808(2)
H28B H 0.1149 0.2988 -0.2913
H29B H 0.1847 0.4367 -0.2845
O13C O -0.0200(3) 1.1611(7) 0.0855(3)
H18C H -0.0765 1.1945 0.0808
H19C H 0.0173 1.2563 0.0981
O14C O 0.1142(3) 0.9018(5) 0.0780(2)
H20C H 0.1583 0.9844 0.0904
H21C H 0.1350 0.7931 0.0686
K3A K 0.11895(9) 1.00086(19) 0.34229(7)
K3A_2 K 0.11895(9) 0.00086(19) 0.34229(7)
K2C K 0.0261(2) 0.8808(3) 0.15201(12)
O11C O -0.1326(3) 0.1371(6) 0.3100(2)
O12C O -0.0173(3) 0.0475(7) 0.3754(2)
O6A O 0.2288(3) 0.6715(6) -0.20304(19)
O7A O 0.3098(3) 0.5010(6) -0.1324(2)
O9A O 0.1593(5) 0.1905(9) -0.1110(3)
K2A K -0.0261(2) 0.1192(3) -0.15201(12)
O13A O 0.0200(3) 0.8389(7) -0.0855(3)
O14A O -0.1142(3) 1.0982(5) -0.0780(2)
O15B_2 O 0.0894(3) 1.2168(6) -0.01700(19)
Na1A Na 0.0000 0.5000 0.5000
K3C K -0.11895(9) -0.00086(19) -0.34229(7)
K3C_2 K -0.11895(9) 0.99914(19) -0.34229(7)
Na1_2 Na 0.0000 0.0000 0.0000
O11A O 0.1326(3) 0.8629(6) -0.3100(2)
O12A O 0.0173(3) 0.9525(7) -0.3754(2)
O13B O -0.0200(3) 0.3389(7) -0.4145(3)
O14B O 0.1142(3) 0.5982(5) -0.4220(2)
O6C O -0.2288(3) 0.3285(6) 0.20304(19)
O7C O -0.3098(3) 0.4990(6) 0.1324(2)
O9C O -0.1593(5) 0.8095(9) 0.1110(3)
H18A H 0.0765 0.8055 -0.0808
H19A H -0.0173 0.7437 -0.0981
H20A H -0.1583 1.0156 -0.0904
H21A H -0.1350 1.2069 -0.0686
H22B_2 H 0.1430 1.2121 0.0131
H23B_2 H 0.0956 1.2121 -0.0585
H18B H -0.0765 0.3055 -0.4192
H19B H 0.0173 0.2437 -0.4019
H20B H 0.1583 0.5156 -0.4096
H21B H 0.1350 0.7069 -0.4314
O20 O 0.4494(4) 1.1095(10) 0.4599(3)
O21 O 0.4497(4) -0.1151(10) 0.0181(3)
O17? O 0.0253(9) 0.755(2) 0.2679(8)
H26? H -0.0298 0.7495 0.2725
H27? H 0.0508 0.6434 0.2758
O19? O 0.7732(15) 0.415(3) 0.3146(10)
loop_
_geom_bond_atom_site_label_1
_geom_bond_atom_site_label_2
_geom_bond_site_symmetry_1
_geom_bond_site_symmetry_2
Cu1 O1 1_555 1_555
Cu2 O1 1_555 1_555
O1 C1 1_555 1_555
C1 C2 1_555 1_555
C2 C3 1_555 1_555
C3 H1 1_555 1_555
C4 C3 1_555 1_555
C5 C4 1_555 1_555
H2 C5 1_555 1_555
H3 C5 1_555 1_555
H4 C5 1_555 1_555
C6 C4 1_555 1_555
H5 C6 1_555 1_555
C7 C1 1_555 1_555
C8 C2 1_555 1_555
H6 C8 1_555 1_555
H7 C8 1_555 1_555
N1 Cu1 1_555 1_555
C9 N1 1_555 1_555
H8 C9 1_555 1_555
H9 C9 1_555 1_555
C10 C9 1_555 1_555
O2 Cu1 1_555 1_555
O3 C10 1_555 1_555
C11 N1 1_555 1_555
H10 C11 1_555 1_555
H11 C11 1_555 1_555
C12 C11 1_555 1_555
O4 Cu1 1_555 1_555
O5 C12 1_555 1_555
C13 C7 1_555 1_555
H12 C13 1_555 1_555
H13 C13 1_555 1_555
N2 Cu2 1_555 1_555
C14 N2 1_555 1_555
H14 C14 1_555 1_555
H15 C14 1_555 1_555
C15 C14 1_555 1_555
O6 Cu2 1_555 1_555
O7 C15 1_555 1_555
C16 N2 1_555 1_555
H16 C16 1_555 1_555
H17 C16 1_555 1_555
C17 C16 1_555 1_555
O8 Cu2 1_555 1_555
O9 C17 1_555 1_555
O10 Cu1 1_555 1_555
O11 Cu2 1_555 1_555
C18 O10 1_555 1_555
O12 C18 1_555 1_555
K1 O2 1_555 1_555
K2 O9 1_555 1_555
K3 O3 1_555 1_555
Na1 O15 1_555 1_555
O13 K2 1_555 1_555
H18 O13 1_555 1_555
H19 O13 1_555 1_555
O14 K2 1_555 1_555
H20 O14 1_555 1_555
H21 O14 1_555 1_555
O15 K1 1_555 1_555
H22 O15 1_555 1_555
H23 O15 1_555 1_555
O16 K2 1_555 1_555
H24 O16 1_555 1_555
H25 O16 1_555 1_555
O18 K2 1_555 1_555
H28 O18 1_555 1_555
H29 O18 1_555 1_555
O1B C1B 1_555 1_555
C1B C2B 1_555 1_555
C2B C3B 1_555 1_555
C3B H1B 1_555 1_555
C4B C3B 1_555 1_555
C5B C4B 1_555 1_555
H2B C5B 1_555 1_555
H3B C5B 1_555 1_555
H4B C5B 1_555 1_555
C6B C4B 1_555 1_555
H5B C6B 1_555 1_555
C7B C1B 1_555 1_555
C8B C2B 1_555 1_555
H6B C8B 1_555 1_555
H7B C8B 1_555 1_555
N1B C8B 1_555 1_555
C9B N1B 1_555 1_555
H8B C9B 1_555 1_555
H9B C9B 1_555 1_555
C10B C9B 1_555 1_555
O2B K1 1_555 1_555
O3B C10B 1_555 1_555
C11B N1B 1_555 1_555
H10B C11B 1_555 1_555
H11B C11B 1_555 1_555
C12B C11B 1_555 1_555
O4B C12B 1_555 1_555
O5B C12B 1_555 1_555
C13B C7B 1_555 1_555
H12B C13B 1_555 1_555
H13B C13B 1_555 1_555
N2B C13B 1_555 1_555
C14B N2B 1_555 1_555
H14B C14B 1_555 1_555
H15B C14B 1_555 1_555
C15B C14B 1_555 1_555
O6B C15B 1_555 1_555
O7B C15B 1_555 1_555
C16B N2B 1_555 1_555
H16B C16B 1_555 1_555
H17B C16B 1_555 1_555
C17B C16B 1_555 1_555
O8B C17B 1_555 1_555
O9B C17B 1_555 1_555
O10B C18B 1_555 1_555
O11B C18B 1_555 1_555
C18B O12B 1_555 1_555
O12B K1 1_555 1_555
O15B K1 1_555 1_555
H22B O15B 1_555 1_555
H23B O15B 1_555 1_555
Cu1B O1B 1_555 1_555
Cu2B O1B 1_555 1_555
K2B O9B 1_555 1_555
K3B O12 1_555 1_555
O16B K3 1_555 1_555
H24B O16B 1_555 1_555
H25B O16B 1_555 1_555
O18B K3 1_555 1_555
H28B O18B 1_555 1_555
H29B O18B 1_555 1_555
O13C Na1 1_555 1_555
H18C O13C 1_555 1_555
H19C O13C 1_555 1_555
O14C Na1 1_555 1_555
H20C O14C 1_555 1_555
H21C O14C 1_555 1_555
K3A O6 1_555 1_555
K3A_2 O9 1_555 1_555
K2C O11 1_555 1_555
O11C K2 1_555 1_555
O12C K2 1_555 1_555
O6A K3 1_555 1_555
O7A K3 1_555 1_555
O9A K3 1_555 1_555
K2A O11B 1_555 1_555
O13A Na1 1_555 1_555
O14A Na1 1_555 1_555
O15B_2 Na1 1_555 1_555
Na1A O13 1_555 1_555
K3C O6B 1_555 1_555
K3C_2 O9B 1_555 1_555
Na1_2 O15B 1_555 1_555
O11A K2B 1_555 1_555
O12A K2B 1_555 1_555
O13B K2B 1_555 1_555
O14B K2B 1_555 1_555
O6C K3B 1_555 1_555
O7C K3B 1_555 1_555
O9C K3B 1_555 1_555
H18A O13A 1_555 1_555
H19A O13A 1_555 1_555
H20A O14A 1_555 1_555
H21A O14A 1_555 1_555
H22B_2 O15B_2 1_555 1_555
H23B_2 O15B_2 1_555 1_555
H18B O13B 1_555 1_555
H19B O13B 1_555 1_555
H20B O14B 1_555 1_555
H21B O14B 1_555 1_555
C6 C7 1_555 1_555
C8 N1 1_555 1_555
C10 O2 1_555 1_555
C12 O4 1_555 1_555
C13 N2 1_555 1_555
C15 O6 1_555 1_555
O7 K3A 1_555 1_555
C17 O8 1_555 1_555
O11 C18 1_555 1_555
O12 K1 1_555 1_555
O12 K2C 1_555 1_555
K3 O12B 1_555 1_555
O14 Na1A 1_555 1_555
O16 K3B 1_555 1_555
O18 K3B 1_555 1_555
C6B C7B 1_555 1_555
N1B Cu1B 1_555 1_555
C10B O2B 1_555 1_555
O2B Cu1B 1_555 1_555
O3B K3B 1_555 1_555
O4B Cu1B 1_555 1_555
N2B Cu2B 1_555 1_555
O6B Cu2B 1_555 1_555
O7B K3C 1_555 1_555
O8B Cu2B 1_555 1_555
O10B Cu1B 1_555 1_555
O11B Cu2B 1_555 1_555
O12B K2A 1_555 1_555
K2B O16B 1_555 1_555
K2B O18B 1_555 1_555
O13C K2C 1_555 1_555
O14C K2C 1_555 1_555
K3A_2 O12C 1_555 1_555
K2C O9C 1_555 1_555
O9A K2A 1_555 1_555
K3C_2 O12A 1_555 1_555

#END
