
#######################################################################
#
#                 Cambridge Crystallographic Data Centre
#                                CCDC 
#
#######################################################################
#
# If this CIF has been generated from an entry in the Cambridge 
# Structural Database, then it will include bibliographic, chemical, 
# crystal, experimental, refinement or atomic coordinate data resulting 
# from the CCDC's data processing and validation procedures.
#
#######################################################################

data_IBUSAZ
_symmetry_cell_setting           orthorhombic
_symmetry_space_group_name_H-M   'P 21 c n'
_symmetry_Int_Tables_number      33
_space_group_name_Hall           'P -2n 2a'
loop_
_symmetry_equiv_pos_site_id
_symmetry_equiv_pos_as_xyz
1 x,y,z
2 1/2+x,-y,-z
3 x,1/2-y,1/2+z
4 1/2+x,1/2+y,1/2-z
_cell_length_a                   9.938(2)
_cell_length_b                   14.520(4)
_cell_length_c                   16.155(3)
_cell_angle_alpha                90
_cell_angle_beta                 90
_cell_angle_gamma                90
_cell_volume                     2331.16
loop_
_atom_site_label
_atom_site_type_symbol
_atom_site_fract_x
_atom_site_fract_y
_atom_site_fract_z
Cu1 Cu -0.2395(2) -0.37956(8) -0.17812(6)
N1 N -0.0726(8) -0.3398(5) -0.1128(4)
C1 C -0.127(1) -0.2644(8) -0.0566(7)
C2 C -0.239(1) -0.2135(6) -0.0962(5)
N2 N -0.3459(8) -0.2782(6) -0.1241(4)
C3 C -0.423(1) -0.2272(7) -0.1877(7)
C4 C -0.532(1) -0.2829(9) -0.2306(7)
C5 C -0.510(1) -0.380(1) -0.2534(9)
N3 N -0.3733(9) -0.4064(6) -0.2715(5)
C6 C -0.356(1) -0.5067(7) -0.2839(6)
C7 C -0.207(1) -0.5285(6) -0.2825(6)
C8 C -0.316(1) -0.3637(8) -0.3451(8)
C9 C -0.166(1) -0.3797(8) -0.3449(8)
N4 N -0.1359(8) -0.4404(5) -0.2717(4)
C10 C 0.009(1) -0.4531(8) -0.2595(6)
C11 C 0.083(1) -0.3695(8) -0.2309(7)
C12 C 0.017(1) -0.3007(7) -0.1755(6)
C13 C -0.0069(9) -0.4091(6) -0.0600(5)
C14 C 0.116(1) -0.3764(6) -0.0094(6)
C15 C 0.166(1) -0.4460(7) 0.0473(5)
N5 N 0.2023(9) -0.5008(6) 0.0912(4)
C16 C -0.433(1) -0.3062(8) -0.0551(6)
H1 H -0.0559 -0.2220 -0.0442
H2 H -0.1590 -0.2919 -0.0063
H3 H -0.2055 -0.1802 -0.1431
H4 H -0.2769 -0.1711 -0.0569
H5 H -0.3613 -0.2058 -0.2290
H6 H -0.4653 -0.1753 -0.1614
H7 H -0.5529 -0.2510 -0.2811
H8 H -0.6091 -0.2820 -0.1948
H9 H -0.5631 -0.3930 -0.3016
H10 H -0.5404 -0.4176 -0.2081
H11 H -0.3931 -0.5243 -0.3364
H12 H -0.4004 -0.5396 -0.2404
H13 H -0.1807 -0.5569 -0.3336
H14 H -0.1870 -0.5692 -0.2373
H15 H -0.3551 -0.3906 -0.3937
H16 H -0.3343 -0.2987 -0.3444
H17 H -0.1395 -0.4096 -0.3952
H18 H -0.1197 -0.3221 -0.3397
H19 H 0.0477 -0.4723 -0.3112
H20 H 0.0219 -0.5007 -0.2189
H21 H 0.1614 -0.3909 -0.2023
H22 H 0.1095 -0.3368 -0.2799
H23 H 0.0865 -0.2669 -0.1475
H24 H -0.0345 -0.2594 -0.2093
H25 H 0.0225 -0.4585 -0.0951
H26 H -0.0730 -0.4317 -0.0217
H27 H 0.1867 -0.3605 -0.0469
H28 H 0.0900 -0.3231 0.0220
H29 H -0.4795 -0.2532 -0.0337
H30 H -0.4980 -0.3504 -0.0745
H31 H -0.3797 -0.3334 -0.0121
Cu1A Cu 0.2605(2) -0.62044(8) 0.17812(6)
N5A N -0.2977(9) -0.4992(6) -0.0912(4)
Cl1 Cl 0.2989(3) -0.9139(2) 0.3437(1)
O1 O 0.2933(8) -0.9389(4) 0.2592(3)
O2 O 0.3300(8) -0.9915(4) 0.3916(4)
O3 O 0.1745(8) -0.8785(6) 0.3694(5)
O4 O 0.3990(9) -0.8478(6) 0.3554(5)
Cl2 Cl 0.2534(4) -0.3725(2) 0.5213(1)
O5 O 0.270(2) -0.333(1) 0.4431(7)
O6 O 0.324(2) -0.319(1) 0.578(1)
O7 O 0.301(3) -0.4619(9) 0.522(1)
O8 O 0.118(1) -0.370(2) 0.542(1)
O9? O 0.174(3) 0.550(1) 0.532(2)
O10? O 0.388(1) 0.600(2) 0.520(2)
O11? O 0.222(3) 0.670(2) 0.4461(8)
O12? O 0.232(3) 0.690(1) 0.5849(9)
loop_
_geom_bond_atom_site_label_1
_geom_bond_atom_site_label_2
_geom_bond_site_symmetry_1
_geom_bond_site_symmetry_2
Cu1 N1 1_555 1_555
N1 C1 1_555 1_555
C1 C2 1_555 1_555
C2 N2 1_555 1_555
N2 Cu1 1_555 1_555
C3 N2 1_555 1_555
C4 C3 1_555 1_555
C5 C4 1_555 1_555
N3 Cu1 1_555 1_555
C6 N3 1_555 1_555
C7 C6 1_555 1_555
C8 N3 1_555 1_555
C9 C8 1_555 1_555
N4 Cu1 1_555 1_555
C10 N4 1_555 1_555
C11 C10 1_555 1_555
C12 N1 1_555 1_555
C13 N1 1_555 1_555
C14 C13 1_555 1_555
C15 C14 1_555 1_555
N5 C15 1_555 1_555
C16 N2 1_555 1_555
H1 C1 1_555 1_555
H2 C1 1_555 1_555
H3 C2 1_555 1_555
H4 C2 1_555 1_555
H5 C3 1_555 1_555
H6 C3 1_555 1_555
H7 C4 1_555 1_555
H8 C4 1_555 1_555
H9 C5 1_555 1_555
H10 C5 1_555 1_555
H11 C6 1_555 1_555
H12 C6 1_555 1_555
H13 C7 1_555 1_555
H14 C7 1_555 1_555
H15 C8 1_555 1_555
H16 C8 1_555 1_555
H17 C9 1_555 1_555
H18 C9 1_555 1_555
H19 C10 1_555 1_555
H20 C10 1_555 1_555
H21 C11 1_555 1_555
H22 C11 1_555 1_555
H23 C12 1_555 1_555
H24 C12 1_555 1_555
H25 C13 1_555 1_555
H26 C13 1_555 1_555
H27 C14 1_555 1_555
H28 C14 1_555 1_555
H29 C16 1_555 1_555
H30 C16 1_555 1_555
H31 C16 1_555 1_555
Cl1 O1 1_555 1_555
O2 Cl1 1_555 1_555
O3 Cl1 1_555 1_555
O4 Cl1 1_555 1_555
Cl2 O5 1_555 1_555
O6 Cl2 1_555 1_555
O7 Cl2 1_555 1_555
O8 Cl2 1_555 1_555
Cu1A N5 1_555 1_555
N5A Cu1 1_555 1_555
C5 N3 1_555 1_555
C7 N4 1_555 1_555
C9 N4 1_555 1_555
C11 C12 1_555 1_555

#END
