
#######################################################################
#
#                 Cambridge Crystallographic Data Centre
#                                CCDC 
#
#######################################################################
#
# If this CIF has been generated from an entry in the Cambridge 
# Structural Database, then it will include bibliographic, chemical, 
# crystal, experimental, refinement or atomic coordinate data resulting 
# from the CCDC's data processing and validation procedures.
#
#######################################################################

data_IBUSII
_symmetry_cell_setting           monoclinic
_symmetry_space_group_name_H-M   'P 21/n'
_symmetry_Int_Tables_number      14
_space_group_name_Hall           '-P 2yn'
loop_
_symmetry_equiv_pos_site_id
_symmetry_equiv_pos_as_xyz
1 x,y,z
2 1/2-x,1/2+y,1/2-z
3 -x,-y,-z
4 1/2+x,1/2-y,1/2+z
_cell_length_a                   7.6800(15)
_cell_length_b                   17.620(4)
_cell_length_c                   10.462(2)
_cell_angle_alpha                90
_cell_angle_beta                 110.72(3)
_cell_angle_gamma                90
_cell_volume                     1324.17
loop_
_atom_site_label
_atom_site_type_symbol
_atom_site_fract_x
_atom_site_fract_y
_atom_site_fract_z
Cu1 Cu 0.36683(11) 0.01135(4) 0.60598(7)
N1 N 0.5775(7) -0.0454(3) 0.7499(5)
C1 C 0.6516(8) -0.0075(4) 0.8721(5)
C2 C 0.7986(9) -0.0397(4) 0.9771(6)
H1 H 0.8458 -0.0156 1.0637
C3 C 0.8759(10) -0.1067(4) 0.9553(6)
H2 H 0.9786 -0.1282 1.0264
C4 C 0.8042(9) -0.1431(4) 0.8300(6)
C5 C 0.6518(9) -0.1102(3) 0.7302(6)
H3 H 0.5989 -0.1351 0.6446
C6 C 0.8850(11) -0.2161(4) 0.7995(8)
H4 H 0.8144 -0.2321 0.7056
H5 H 0.8776 -0.2556 0.8633
H6 H 1.0155 -0.2080 0.8096
N2 N 0.4178(7) 0.0846(3) 0.7670(5)
C7 C 0.5640(9) 0.0642(4) 0.8807(6)
C8 C 0.6152(9) 0.1107(4) 0.9961(6)
H7 H 0.7175 0.0973 1.0756
C9 C 0.5154(10) 0.1767(4) 0.9934(7)
H8 H 0.5522 0.2095 1.0704
C10 C 0.3624(10) 0.1952(4) 0.8791(6)
C11 C 0.3192(10) 0.1470(4) 0.7657(6)
H9 H 0.2166 0.1591 0.6856
C12 C 0.2439(11) 0.2644(4) 0.8756(7)
H10 H 0.2944 0.2915 0.9628
H11 H 0.1159 0.2485 0.8606
H12 H 0.2447 0.2980 0.8012
N3 N 0.3608(8) -0.0661(3) 0.4674(5)
N4 N 0.2322(8) -0.0898(3) 0.3761(5)
N5 N 0.1139(10) -0.1142(4) 0.2843(7)
N6 N 0.1708(8) 0.0794(3) 0.4874(5)
N7 N 0.0312(8) 0.0630(3) 0.3959(5)
N8 N -0.1072(9) 0.0528(3) 0.3080(6)
N3B N 0.6392(8) 0.0661(3) 0.5326(5)
Cu1B Cu 0.63317(11) -0.01135(4) 0.39402(7)
loop_
_geom_bond_atom_site_label_1
_geom_bond_atom_site_label_2
_geom_bond_site_symmetry_1
_geom_bond_site_symmetry_2
Cu1 N1 1_555 1_555
N1 C1 1_555 1_555
C1 C2 1_555 1_555
C2 H1 1_555 1_555
C3 C2 1_555 1_555
H2 C3 1_555 1_555
C4 C3 1_555 1_555
C5 N1 1_555 1_555
H3 C5 1_555 1_555
C6 C4 1_555 1_555
H4 C6 1_555 1_555
H5 C6 1_555 1_555
H6 C6 1_555 1_555
N2 Cu1 1_555 1_555
C7 C1 1_555 1_555
C8 C7 1_555 1_555
H7 C8 1_555 1_555
C9 C8 1_555 1_555
H8 C9 1_555 1_555
C10 C9 1_555 1_555
C11 N2 1_555 1_555
H9 C11 1_555 1_555
C12 C10 1_555 1_555
H10 C12 1_555 1_555
H11 C12 1_555 1_555
H12 C12 1_555 1_555
N3 Cu1 1_555 1_555
N4 N3 1_555 1_555
N5 N4 1_555 1_555
N6 Cu1 1_555 1_555
N7 N6 1_555 1_555
N8 N7 1_555 1_555
N3B Cu1 1_555 1_555
Cu1B N3 1_555 1_555
C4 C5 1_555 1_555
N2 C7 1_555 1_555
C10 C11 1_555 1_555
N3B Cu1B 1_555 1_555

#END
