
#######################################################################
#
#                 Cambridge Crystallographic Data Centre
#                                CCDC 
#
#######################################################################
#
# If this CIF has been generated from an entry in the Cambridge 
# Structural Database, then it will include bibliographic, chemical, 
# crystal, experimental, refinement or atomic coordinate data resulting 
# from the CCDC's data processing and validation procedures.
#
#######################################################################

data_IBUSEE
_symmetry_cell_setting           monoclinic
_symmetry_space_group_name_H-M   'P 21/c'
_symmetry_Int_Tables_number      14
_space_group_name_Hall           '-P 2ybc'
loop_
_symmetry_equiv_pos_site_id
_symmetry_equiv_pos_as_xyz
1 x,y,z
2 -x,1/2+y,1/2-z
3 -x,-y,-z
4 x,1/2-y,1/2+z
_cell_length_a                   9.0470(9)
_cell_length_b                   10.9230(12)
_cell_length_c                   17.0520(16)
_cell_angle_alpha                90
_cell_angle_beta                 118.985(8)
_cell_angle_gamma                90
_cell_volume                     1474.02
loop_
_atom_site_label
_atom_site_type_symbol
_atom_site_fract_x
_atom_site_fract_y
_atom_site_fract_z
Cu1 Cu -0.40399(6) 0.18197(5) 0.21278(3)
N1 N -0.2929(4) 0.0515(3) 0.1758(2)
C1 C -0.3014(5) 0.0720(4) 0.0952(3)
C2 C -0.2100(5) 0.0010(4) 0.0664(3)
H1 H -0.2161 0.0165 0.0101
C3 C -0.1098(5) -0.0928(4) 0.1206(3)
H2 H -0.0442 -0.1405 0.1023
C4 C -0.1048(5) -0.1176(4) 0.2019(3)
C5 C -0.1980(5) -0.0421(4) 0.2268(3)
H3 H -0.1948 -0.0570 0.2825
C6 C -0.0019(6) -0.2207(4) 0.2615(3)
H4 H 0.0549 -0.2644 0.2334
H5 H -0.0762 -0.2774 0.2706
H6 H 0.0829 -0.1878 0.3195
N2 N -0.4822(4) 0.2358(3) 0.0863(2)
C7 C -0.4150(5) 0.1732(4) 0.0432(3)
C8 C -0.4519(5) 0.2042(4) -0.0433(3)
H7 H -0.4027 0.1597 -0.0727
C9 C -0.5605(5) 0.2999(4) -0.0863(3)
H8 H -0.5842 0.3229 -0.1450
C10 C -0.6357(5) 0.3632(4) -0.0436(3)
C11 C -0.5915(5) 0.3279(4) 0.0431(3)
H9 H -0.6403 0.3705 0.0735
C12 C -0.7602(5) 0.4652(4) -0.0885(3)
H10 H -0.7969 0.4977 -0.0471
H11 H -0.8583 0.4339 -0.1424
H12 H -0.7065 0.5306 -0.1051
N3 N -0.2736(4) 0.1350(4) 0.3386(2)
C13 C -0.1688(6) 0.1612(4) 0.4110(3)
S1 S -0.02539(15) 0.19937(12) 0.51147(8)
N4 N -0.4315(5) 0.3508(4) 0.2476(2)
C14 C -0.3799(5) 0.4456(4) 0.2800(3)
S2 S -0.30504(13) 0.57736(10) 0.32847(7)
S2A S -0.69496(13) 0.07736(10) 0.17153(7)
Cu1A Cu -0.59601(6) 0.68197(5) 0.28722(3)
loop_
_geom_bond_atom_site_label_1
_geom_bond_atom_site_label_2
_geom_bond_site_symmetry_1
_geom_bond_site_symmetry_2
Cu1 N1 1_555 1_555
N1 C1 1_555 1_555
C1 C2 1_555 1_555
C2 H1 1_555 1_555
C3 C2 1_555 1_555
H2 C3 1_555 1_555
C4 C3 1_555 1_555
C5 N1 1_555 1_555
H3 C5 1_555 1_555
C6 C4 1_555 1_555
H4 C6 1_555 1_555
H5 C6 1_555 1_555
H6 C6 1_555 1_555
N2 Cu1 1_555 1_555
C7 C1 1_555 1_555
C8 C7 1_555 1_555
H7 C8 1_555 1_555
C9 C8 1_555 1_555
H8 C9 1_555 1_555
C10 C9 1_555 1_555
C11 N2 1_555 1_555
H9 C11 1_555 1_555
C12 C10 1_555 1_555
H10 C12 1_555 1_555
H11 C12 1_555 1_555
H12 C12 1_555 1_555
N3 Cu1 1_555 1_555
C13 N3 1_555 1_555
S1 C13 1_555 1_555
N4 Cu1 1_555 1_555
C14 N4 1_555 1_555
S2 C14 1_555 1_555
S2A Cu1 1_555 1_555
Cu1A S2 1_555 1_555
C4 C5 1_555 1_555
N2 C7 1_555 1_555
C10 C11 1_555 1_555

#END
