
#######################################################################
#
#                 Cambridge Crystallographic Data Centre
#                                CCDC 
#
#######################################################################
#
# If this CIF has been generated from an entry in the Cambridge 
# Structural Database, then it will include bibliographic, chemical, 
# crystal, experimental, refinement or atomic coordinate data resulting 
# from the CCDC's data processing and validation procedures.
#
#######################################################################

data_IBUVOR01
_symmetry_cell_setting           orthorhombic
_symmetry_space_group_name_H-M   'C 2 2 2'
_symmetry_Int_Tables_number      21
_space_group_name_Hall           'C 2 2'
loop_
_symmetry_equiv_pos_site_id
_symmetry_equiv_pos_as_xyz
1 x,y,z
2 -x,-y,z
3 x,-y,-z
4 -x,y,-z
5 1/2+x,1/2+y,z
6 1/2-x,1/2-y,z
7 1/2+x,1/2-y,-z
8 1/2-x,1/2+y,-z
_cell_length_a                   12.631
_cell_length_b                   14.540
_cell_length_c                   25.6933(10)
_cell_angle_alpha                90
_cell_angle_beta                 90
_cell_angle_gamma                90
_cell_volume                     4718.7
loop_
_atom_site_label
_atom_site_type_symbol
_atom_site_fract_x
_atom_site_fract_y
_atom_site_fract_z
Br1 Br 0.09431(3) 0.21799(3) 0.422153(16)
Zn1 Zn 0.2500 0.2500 0.46956(2)
N1 N 0.2297(3) 0.3531(2) 0.52275(13)
C1 C 0.3112(4) 0.4067(3) 0.53778(17)
H1 H 0.3770 0.4009 0.5201
C2 C 0.1393(4) 0.3609(3) 0.54876(18)
H2 H 0.0818 0.3227 0.5388
O1 O 0.1063(2) 0.52656(18) 0.67689(10)
C3 C 0.2071(3) 0.4785(3) 0.60409(16)
C4 C 0.3029(3) 0.4698(3) 0.57798(18)
H3 H 0.3619 0.5066 0.5876
C5 C 0.1242(3) 0.4215(3) 0.58940(17)
H4 H 0.0581 0.4241 0.6070
C6 C 0.1964(3) 0.5488(3) 0.64647(16)
H5 H 0.2607 0.5488 0.6685
H6 H 0.1881 0.6109 0.6311
C7 C 0.0907(4) 0.7306(3) 0.76115(18)
H7 H 0.1145 0.7926 0.7623
C9 C 0.0818(3) 0.5850(3) 0.71732(16)
C10 C 0.0189(3) 0.5483(3) 0.75710(16)
C14 C 0.1185(4) 0.6747(3) 0.71936(18)
H11 H 0.1624 0.6980 0.6924
C18 C -0.0050(4) 0.6060(3) 0.79896(18)
H15 H -0.0458 0.5824 0.8270
C24 C 0.0290(4) 0.6967(3) 0.8007(2)
H20 H 0.0098 0.7350 0.8292
Br1E Br 0.40569(3) 0.28201(3) 0.422153(16)
Zn1A Zn -0.2500 0.7500 0.46956(2)
N1A N -0.2297(3) 0.6469(2) 0.52275(13)
N1E N 0.2703(3) 0.1469(2) 0.52275(13)
C1A C -0.3112(4) 0.5933(3) 0.53778(17)
H1A H -0.3770 0.5991 0.5201
C2A C -0.1393(4) 0.6391(3) 0.54876(18)
H2A H -0.0818 0.6773 0.5388
O1A O -0.1063(2) 0.47344(18) 0.67689(10)
C3A C -0.2071(3) 0.5215(3) 0.60409(16)
C4A C -0.3029(3) 0.5302(3) 0.57798(18)
H3A H -0.3619 0.4934 0.5876
C5A C -0.1242(3) 0.5785(3) 0.58940(17)
H4A H -0.0581 0.5759 0.6070
C6A C -0.1964(3) 0.4512(3) 0.64647(16)
H5A H -0.2607 0.4512 0.6685
H6A H -0.1881 0.3891 0.6311
C7A C -0.0907(4) 0.2694(3) 0.76115(18)
H7A H -0.1145 0.2074 0.7623
C9A C -0.0818(3) 0.4150(3) 0.71732(16)
C10A C -0.0189(3) 0.4517(3) 0.75710(16)
C14A C -0.1185(4) 0.3253(3) 0.71936(18)
H11A H -0.1624 0.3020 0.6924
C18A C 0.0050(4) 0.3940(3) 0.79896(18)
H15A H 0.0458 0.4176 0.8270
C24A C -0.0290(4) 0.3033(3) 0.8007(2)
H20A H -0.0098 0.2650 0.8292
Zn2 Zn 0.2500 0.2500 0.01301(3)
Br2 Br 0.40332(6) 0.22118(4) 0.06201(2)
N2 N 0.2669(3) 0.3575(3) -0.03861(15)
C8 C 0.2652(4) 0.3680(3) -0.26999(16)
H8 H 0.2018 0.3330 -0.2718
C11 C 0.4508(3) 0.4716(3) -0.26478(16)
C12 C 0.4353(3) 0.4061(3) -0.30362(17)
H9 H 0.4892 0.3966 -0.3289
C13 C 0.2783(3) 0.4325(3) -0.23064(17)
H10 H 0.2239 0.4414 -0.2056
C15 C 0.1893(4) 0.4160(3) -0.04926(19)
H12 H 0.1244 0.4107 -0.0309
C16 C 0.3574(4) 0.3647(3) -0.0649(2)
H13 H 0.4134 0.3231 -0.0573
C17 C 0.3434(4) 0.3544(3) -0.30628(18)
H14 H 0.3345 0.3100 -0.3330
C19 C 0.3728(4) 0.4313(3) -0.10350(19)
H16 H 0.4377 0.4341 -0.1221
C20 C 0.3708(3) 0.4837(3) -0.22784(16)
O2 O 0.3895(2) 0.54956(18) -0.19013(10)
C21 C 0.2924(3) 0.4929(3) -0.11409(17)
C22 C 0.1999(4) 0.4849(3) -0.08633(18)
H17 H 0.1433 0.5265 -0.0925
C23 C 0.3072(4) 0.5684(3) -0.15420(18)
H18 H 0.2401 0.5767 -0.1735
H19 H 0.3230 0.6268 -0.1360
Zn2A Zn 0.7500 0.7500 0.01301(3)
Br2E Br 0.09668(6) 0.27882(4) 0.06201(2)
N2A N 0.7331(3) 0.6425(3) -0.03861(15)
N2E N 0.2331(3) 0.1425(3) -0.03861(15)
C8A C 0.7348(4) 0.6320(3) -0.26999(16)
H8A H 0.7982 0.6670 -0.2718
C11A C 0.5492(3) 0.5284(3) -0.26478(16)
C12A C 0.5647(3) 0.5939(3) -0.30362(17)
H9A H 0.5108 0.6034 -0.3289
C13A C 0.7217(3) 0.5675(3) -0.23064(17)
H10A H 0.7761 0.5586 -0.2056
C15A C 0.8107(4) 0.5840(3) -0.04926(19)
H12A H 0.8756 0.5893 -0.0309
C16A C 0.6426(4) 0.6353(3) -0.0649(2)
H13A H 0.5866 0.6769 -0.0573
C17A C 0.6566(4) 0.6456(3) -0.30628(18)
H14A H 0.6655 0.6900 -0.3330
C19A C 0.6272(4) 0.5687(3) -0.10350(19)
H16A H 0.5623 0.5659 -0.1221
C20A C 0.6292(3) 0.5163(3) -0.22784(16)
O2A O 0.6105(2) 0.45044(18) -0.19013(10)
C21A C 0.7076(3) 0.5071(3) -0.11409(17)
C22A C 0.8001(4) 0.5151(3) -0.08633(18)
H17A H 0.8567 0.4735 -0.0925
C23A C 0.6928(4) 0.4316(3) -0.15420(18)
H18A H 0.7599 0.4233 -0.1735
H19A H 0.6770 0.3732 -0.1360
loop_
_geom_bond_atom_site_label_1
_geom_bond_atom_site_label_2
_geom_bond_site_symmetry_1
_geom_bond_site_symmetry_2
Br1 Zn1 1_555 1_555
Zn1 N1 1_555 1_555
Zn2 Br2 1_555 1_555
N1 C1 1_555 1_555
C1 H1 1_555 1_555
C2 N1 1_555 1_555
H2 C2 1_555 1_555
O1 C6 1_555 1_555
C3 C4 1_555 1_555
C4 C1 1_555 1_555
H3 C4 1_555 1_555
C5 C2 1_555 1_555
H4 C5 1_555 1_555
C6 C3 1_555 1_555
H5 C6 1_555 1_555
H6 C6 1_555 1_555
N2 Zn2 1_555 1_555
C7 H7 1_555 1_555
C8 H8 1_555 1_555
C9 O1 1_555 1_555
C10 C9 1_555 1_555
C11 C12 1_555 1_555
C12 H9 1_555 1_555
C13 C8 1_555 1_555
H10 C13 1_555 1_555
C14 C7 1_555 1_555
H11 C14 1_555 1_555
C15 N2 1_555 1_555
H12 C15 1_555 1_555
C16 N2 1_555 1_555
H13 C16 1_555 1_555
C17 C8 1_555 1_555
H14 C17 1_555 1_555
C18 C10 1_555 1_555
H15 C18 1_555 1_555
C19 C16 1_555 1_555
H16 C19 1_555 1_555
C20 C11 1_555 1_555
O2 C20 1_555 1_555
C21 C19 1_555 1_555
C22 C15 1_555 1_555
H17 C22 1_555 1_555
C23 O2 1_555 1_555
H18 C23 1_555 1_555
H19 C23 1_555 1_555
C24 C7 1_555 1_555
H20 C24 1_555 1_555
Br1E Zn1 1_555 1_555
Zn1A N1A 1_555 1_555
Zn2A N2A 1_555 1_555
Br2E Zn2 1_555 1_555
N1A C1A 1_555 1_555
N1E Zn1 1_555 1_555
C1A H1A 1_555 1_555
C2A N1A 1_555 1_555
H2A C2A 1_555 1_555
O1A C6A 1_555 1_555
C3A C4A 1_555 1_555
C4A C1A 1_555 1_555
H3A C4A 1_555 1_555
C5A C2A 1_555 1_555
H4A C5A 1_555 1_555
C6A C3A 1_555 1_555
H5A C6A 1_555 1_555
H6A C6A 1_555 1_555
N2A C15A 1_555 1_555
N2E Zn2 1_555 1_555
C7A H7A 1_555 1_555
C8A H8A 1_555 1_555
C9A O1A 1_555 1_555
C10A C10 1_555 1_555
C11A C11 1_555 1_555
C12A C11A 1_555 1_555
H9A C12A 1_555 1_555
C13A C8A 1_555 1_555
H10A C13A 1_555 1_555
C14A C7A 1_555 1_555
H11A C14A 1_555 1_555
C15A H12A 1_555 1_555
C16A N2A 1_555 1_555
H13A C16A 1_555 1_555
C17A C8A 1_555 1_555
H14A C17A 1_555 1_555
C18A C10A 1_555 1_555
H15A C18A 1_555 1_555
C19A C16A 1_555 1_555
H16A C19A 1_555 1_555
C20A C11A 1_555 1_555
O2A C20A 1_555 1_555
C21A C19A 1_555 1_555
C22A C15A 1_555 1_555
H17A C22A 1_555 1_555
C23A O2A 1_555 1_555
H18A C23A 1_555 1_555
H19A C23A 1_555 1_555
C24A C7A 1_555 1_555
H20A C24A 1_555 1_555
C3 C5 1_555 1_555
C9 C14 1_555 1_555
C12 C17 1_555 1_555
C13 C20 1_555 1_555
C18 C24 1_555 1_555
C21 C22 1_555 1_555
C21 C23 1_555 1_555
C3A C5A 1_555 1_555
C9A C10A 1_555 1_555
C9A C14A 1_555 1_555
C12A C17A 1_555 1_555
C13A C20A 1_555 1_555
C18A C24A 1_555 1_555
C21A C22A 1_555 1_555
C21A C23A 1_555 1_555

#END
