
#######################################################################
#
#                 Cambridge Crystallographic Data Centre
#                                CCDC 
#
#######################################################################
#
# If this CIF has been generated from an entry in the Cambridge 
# Structural Database, then it will include bibliographic, chemical, 
# crystal, experimental, refinement or atomic coordinate data resulting 
# from the CCDC's data processing and validation procedures.
#
#######################################################################

data_IBUVUX
_symmetry_cell_setting           monoclinic
_symmetry_space_group_name_H-M   'P 21/c'
_symmetry_Int_Tables_number      14
_space_group_name_Hall           '-P 2ybc'
loop_
_symmetry_equiv_pos_site_id
_symmetry_equiv_pos_as_xyz
1 x,y,z
2 -x,1/2+y,1/2-z
3 -x,-y,-z
4 x,1/2-y,1/2+z
_cell_length_a                   14.6304(6)
_cell_length_b                   13.1288(5)
_cell_length_c                   29.4893(9)
_cell_angle_alpha                90
_cell_angle_beta                 117.899(2)
_cell_angle_gamma                90
_cell_volume                     5005.95
loop_
_atom_site_label
_atom_site_type_symbol
_atom_site_fract_x
_atom_site_fract_y
_atom_site_fract_z
Co1 Co 0.16349(6) -0.83354(6) -0.18010(3)
S1 S 0.1590(3) -1.18326(17) -0.13090(12)
S2 S 0.23118(19) -0.48235(16) -0.20533(14)
O1 O 0.6865(3) -0.9882(3) -0.10624(19)
O2 O 0.7138(4) -1.2099(4) -0.08373(17)
O3 O 0.1052(3) -1.0354(3) -0.41340(16)
O4 O 0.2555(3) -1.1680(3) -0.34806(15)
N1 N 0.1464(4) -0.9836(4) -0.1648(2)
N2 N 0.1889(4) -0.6847(4) -0.19559(19)
N3 N 0.3302(4) -0.8632(4) -0.15407(19)
N4 N 0.7875(4) -1.2040(4) 0.09786(19)
N5 N 0.1119(4) -0.8799(4) -0.25871(18)
N6 N -0.0070(4) -1.2915(4) -0.30385(19)
C1 C 0.1515(5) -1.0663(6) -0.1509(3)
C2 C 0.2056(5) -0.5996(5) -0.2002(3)
C3 C 0.8062(5) -1.0787(5) -0.1224(3)
C4 C 0.7879(5) -0.9986(5) -0.0963(3)
C5 C 0.8674(5) -0.9358(6) -0.0639(3)
H1 H 0.8549 -0.8837 -0.0462
C6 C 0.9649(6) -0.9508(6) -0.0582(3)
H2 H 1.0183 -0.9082 -0.0365
C7 C 0.9850(6) -1.0257(7) -0.0833(4)
H3 H 1.0517 -1.0346 -0.0789
C8 C 0.9061(6) -1.0897(6) -0.1157(3)
H4 H 0.9203 -1.1409 -0.1333
C9 C 0.6584(5) -0.8968(5) -0.0914(3)
H5 H 0.6853 -0.8396 -0.1023
H6 H 0.6884 -0.8946 -0.0543
C10 C 0.5430(5) -0.8883(5) -0.1147(3)
C11 C 0.4752(5) -0.9660(5) -0.1411(3)
H7 H 0.4998 -1.0279 -0.1463
C12 C 0.3705(5) -0.9506(5) -0.1595(3)
H8 H 0.3257 -1.0039 -0.1766
C13 C 0.3980(5) -0.7887(5) -0.1293(2)
H9 H 0.3725 -0.7266 -0.1249
C14 C 0.5011(5) -0.7989(5) -0.1104(3)
H10 H 0.5442 -0.7439 -0.0941
C15 C 0.7238(5) -1.1492(5) -0.1557(2)
C16 C 0.6782(6) -1.2163(5) -0.1357(3)
C17 C 0.6046(6) -1.2873(6) -0.1664(3)
H11 H 0.5754 -1.3325 -0.1525
C18 C 0.5758(7) -1.2887(7) -0.2192(3)
H12 H 0.5266 -1.3352 -0.2407
C19 C 0.6191(7) -1.2230(7) -0.2387(3)
H13 H 0.5995 -1.2250 -0.2736
C20 C 0.6908(6) -1.1539(6) -0.2084(3)
H14 H 0.7185 -1.1089 -0.2230
C21 C 0.6826(7) -1.2826(6) -0.0599(3)
H15 H 0.7088 -1.3489 -0.0626
H16 H 0.6076 -1.2861 -0.0765
C22 C 0.7229(6) -1.2549(5) -0.0045(3)
C23 C 0.7520(7) -1.3276(5) 0.0325(3)
H17 H 0.7509 -1.3959 0.0240
C24 C 0.7830(6) -1.3000(5) 0.0821(3)
H18 H 0.8022 -1.3514 0.1066
C25 C 0.7599(7) -1.1345(6) 0.0617(3)
H19 H 0.7618 -1.0666 0.0711
C26 C 0.7282(7) -1.1564(6) 0.0107(3)
H20 H 0.7105 -1.1039 -0.0131
C27 C 0.1875(5) -1.1281(4) -0.4521(2)
C28 C 0.0942(5) -1.1018(5) -0.4515(2)
C29 C 0.0012(5) -1.1386(5) -0.4882(2)
H21 H -0.0595 -1.1232 -0.4868
C30 C -0.0020(6) -1.1989(6) -0.5276(3)
H22 H -0.0650 -1.2245 -0.5523
C31 C 0.0855(6) -1.2210(5) -0.5305(3)
H23 H 0.0824 -1.2592 -0.5578
C32 C 0.1788(6) -1.1865(5) -0.4930(3)
H24 H 0.2385 -1.2031 -0.4951
C33 C 0.0193(5) -1.0246(5) -0.4044(2)
H25 H -0.0078 -1.0912 -0.4028
H26 H -0.0348 -0.9866 -0.4322
C34 C 0.0528(4) -0.9690(4) -0.3542(2)
C35 C -0.0121(5) -0.9675(5) -0.3324(2)
H27 H -0.0781 -0.9952 -0.3498
C36 C 0.0204(5) -0.9255(5) -0.2852(3)
H28 H -0.0236 -0.9287 -0.2705
C37 C 0.1714(5) -0.8763(5) -0.2815(2)
H29 H 0.2347 -0.8429 -0.2645
C38 C 0.1454(5) -0.9192(5) -0.3289(2)
H30 H 0.1898 -0.9142 -0.3433
C39 C 0.2910(4) -1.0951(4) -0.4110(2)
C40 C 0.3231(5) -1.1147(5) -0.3590(2)
C41 C 0.4194(5) -1.0850(5) -0.3223(3)
H31 H 0.4394 -1.0964 -0.2878
C42 C 0.4871(5) -1.0382(5) -0.3365(3)
H32 H 0.5517 -1.0168 -0.3116
C43 C 0.4586(6) -1.0236(5) -0.3872(4)
H33 H 0.5049 -0.9948 -0.3968
C44 C 0.3607(5) -1.0517(5) -0.4242(3)
H34 H 0.3418 -1.0410 -0.4587
C45 C 0.2731(5) -1.1754(5) -0.2966(2)
H35 H 0.2870 -1.1086 -0.2808
H36 H 0.3321 -1.2190 -0.2769
C46 C 0.1770(4) -1.2197(5) -0.2981(2)
C47 C 0.1244(5) -1.2973(6) -0.3302(3)
H37 H 0.1492 -1.3268 -0.3510
C48 C 0.0332(5) -1.3323(5) -0.3318(3)
H38 H -0.0010 -1.3867 -0.3533
C49 C 0.0468(5) -1.2193(5) -0.2715(2)
H39 H 0.0219 -1.1922 -0.2503
C50 C 0.1384(5) -1.1814(5) -0.2674(2)
H40 H 0.1737 -1.1302 -0.2439
N4B N 0.2125(4) -0.7960(4) -0.09786(19)
Co1B Co 0.83651(6) -1.16646(6) 0.18010(3)
N6A N 0.0070(4) -0.7915(4) -0.19615(19)
Co1A Co -0.16349(6) -1.33354(6) -0.31990(3)
loop_
_geom_bond_atom_site_label_1
_geom_bond_atom_site_label_2
_geom_bond_site_symmetry_1
_geom_bond_site_symmetry_2
Co1 N1 1_555 1_555
S1 C1 1_555 1_555
S2 C2 1_555 1_555
O1 C4 1_555 1_555
O2 C16 1_555 1_555
O3 C28 1_555 1_555
O4 C40 1_555 1_555
N1 C1 1_555 1_555
N2 Co1 1_555 1_555
N3 Co1 1_555 1_555
N4 C24 1_555 1_555
N5 Co1 1_555 1_555
N6 C48 1_555 1_555
C2 N2 1_555 1_555
C3 C4 1_555 1_555
C4 C5 1_555 1_555
C5 H1 1_555 1_555
C6 C5 1_555 1_555
H2 C6 1_555 1_555
C7 C6 1_555 1_555
H3 C7 1_555 1_555
C8 C3 1_555 1_555
H4 C8 1_555 1_555
C9 O1 1_555 1_555
H5 C9 1_555 1_555
H6 C9 1_555 1_555
C10 C9 1_555 1_555
C11 C10 1_555 1_555
H7 C11 1_555 1_555
C12 N3 1_555 1_555
H8 C12 1_555 1_555
C13 N3 1_555 1_555
H9 C13 1_555 1_555
C14 C10 1_555 1_555
H10 C14 1_555 1_555
C15 C3 1_555 1_555
C16 C15 1_555 1_555
C17 C16 1_555 1_555
H11 C17 1_555 1_555
C18 C17 1_555 1_555
H12 C18 1_555 1_555
C19 C18 1_555 1_555
H13 C19 1_555 1_555
C20 C15 1_555 1_555
H14 C20 1_555 1_555
C21 O2 1_555 1_555
H15 C21 1_555 1_555
H16 C21 1_555 1_555
C22 C21 1_555 1_555
C23 C22 1_555 1_555
H17 C23 1_555 1_555
C24 C23 1_555 1_555
H18 C24 1_555 1_555
C25 N4 1_555 1_555
H19 C25 1_555 1_555
C26 C22 1_555 1_555
H20 C26 1_555 1_555
C27 C28 1_555 1_555
C28 C29 1_555 1_555
C29 H21 1_555 1_555
C30 C29 1_555 1_555
H22 C30 1_555 1_555
C31 C30 1_555 1_555
H23 C31 1_555 1_555
C32 C27 1_555 1_555
H24 C32 1_555 1_555
C33 O3 1_555 1_555
H25 C33 1_555 1_555
H26 C33 1_555 1_555
C34 C33 1_555 1_555
C35 C34 1_555 1_555
H27 C35 1_555 1_555
C36 N5 1_555 1_555
H28 C36 1_555 1_555
C37 N5 1_555 1_555
H29 C37 1_555 1_555
C38 C34 1_555 1_555
H30 C38 1_555 1_555
C39 C27 1_555 1_555
C40 C39 1_555 1_555
C41 C40 1_555 1_555
H31 C41 1_555 1_555
C42 C41 1_555 1_555
H32 C42 1_555 1_555
C43 C42 1_555 1_555
H33 C43 1_555 1_555
C44 C39 1_555 1_555
H34 C44 1_555 1_555
C45 O4 1_555 1_555
H35 C45 1_555 1_555
H36 C45 1_555 1_555
C46 C45 1_555 1_555
C47 C46 1_555 1_555
H37 C47 1_555 1_555
C48 C47 1_555 1_555
H38 C48 1_555 1_555
C49 N6 1_555 1_555
H39 C49 1_555 1_555
C50 C46 1_555 1_555
H40 C50 1_555 1_555
N4B Co1 1_555 1_555
Co1B N4 1_555 1_555
N6A Co1 1_555 1_555
Co1A N6 1_555 1_555
C7 C8 1_555 1_555
C11 C12 1_555 1_555
C13 C14 1_555 1_555
C19 C20 1_555 1_555
C25 C26 1_555 1_555
C31 C32 1_555 1_555
C35 C36 1_555 1_555
C37 C38 1_555 1_555
C43 C44 1_555 1_555
C49 C50 1_555 1_555

#END
