
#######################################################################
#
#                 Cambridge Crystallographic Data Centre
#                                CCDC 
#
#######################################################################
#
# If this CIF has been generated from an entry in the Cambridge 
# Structural Database, then it will include bibliographic, chemical, 
# crystal, experimental, refinement or atomic coordinate data resulting 
# from the CCDC's data processing and validation procedures.
#
#######################################################################

data_IBUVIL
_symmetry_cell_setting           monoclinic
_symmetry_space_group_name_H-M   'C 2/c'
_symmetry_Int_Tables_number      15
_space_group_name_Hall           '-C 2yn'
loop_
_symmetry_equiv_pos_site_id
_symmetry_equiv_pos_as_xyz
1 x,y,z
2 1/2+x,1/2+y,z
3 -x,y,1/2-z
4 1/2-x,1/2+y,1/2-z
5 -x,-y,-z
6 1/2-x,1/2-y,-z
7 x,-y,1/2+z
8 1/2+x,1/2-y,1/2+z
_cell_length_a                   17.3634(14)
_cell_length_b                   15.3255(12)
_cell_length_c                   17.4535(14)
_cell_angle_alpha                90
_cell_angle_beta                 98.280(2)
_cell_angle_gamma                90
_cell_volume                     4596.01
loop_
_atom_site_label
_atom_site_type_symbol
_atom_site_fract_x
_atom_site_fract_y
_atom_site_fract_z
Zn1 Zn 0.12369(4) 0.60118(4) 0.39536(4)
Cl1 Cl 0.21338(10) 0.61362(11) 0.49875(9)
Cl2 Cl 0.13037(10) 0.49521(10) 0.31024(9)
N1 N 0.0173(3) 0.5969(3) 0.4320(3)
N2 N -0.3786(3) 0.2189(3) 0.3385(3)
O1 O -0.2649(2) 0.6376(3) 0.4321(2)
O2 O -0.3411(3) 0.5306(2) 0.2798(2)
C1 C -0.3420(3) 0.6325(4) 0.4400(3)
C2 C -0.3689(4) 0.6104(4) 0.5086(3)
H1 H -0.3338 0.5971 0.5525
C3 C -0.4476(4) 0.6081(5) 0.5113(4)
H2 H -0.4656 0.5935 0.5573
C4 C -0.5000(4) 0.6271(5) 0.4471(4)
H3 H -0.5532 0.6248 0.4491
C5 C -0.4725(4) 0.6500(4) 0.3789(3)
H4 H -0.5081 0.6631 0.3354
C6 C -0.3942(3) 0.6538(3) 0.3738(3)
C7 C -0.2095(3) 0.6212(4) 0.4988(3)
H5 H -0.2226 0.5677 0.5236
H6 H -0.2100 0.6687 0.5355
C8 C -0.1305(3) 0.6134(3) 0.4746(3)
C9 C -0.0657(4) 0.6448(4) 0.5208(4)
H7 H -0.0706 0.6726 0.5672
C10 C 0.0061(4) 0.6351(4) 0.4983(4)
H8 H 0.0493 0.6561 0.5309
C11 C -0.0459(4) 0.5648(4) 0.3878(3)
H9 H -0.0393 0.5365 0.3421
C12 C -0.1196(3) 0.5714(4) 0.4062(3)
H10 H -0.1617 0.5482 0.3737
C13 C -0.3408(3) 0.6142(3) 0.2519(3)
C14 C -0.3179(3) 0.6363(4) 0.1816(3)
H11 H -0.3003 0.5933 0.1507
C15 C -0.3212(3) 0.7221(4) 0.1576(3)
H12 H -0.3062 0.7370 0.1102
C16 C -0.3466(4) 0.7852(4) 0.2032(4)
H13 H -0.3491 0.8429 0.1866
C17 C -0.3686(4) 0.7640(4) 0.2740(4)
H14 H -0.3850 0.8078 0.3048
C18 C -0.3666(3) 0.6778(4) 0.2997(3)
C19 C -0.3423(4) 0.4613(4) 0.2268(4)
H15 H -0.2926 0.4578 0.2076
H16 H -0.3826 0.4710 0.1831
C20 C -0.3577(4) 0.3776(4) 0.2667(3)
C21 C -0.3636(4) 0.3739(4) 0.3441(4)
H17 H -0.3613 0.4247 0.3735
C22 C -0.3733(4) 0.2938(4) 0.3778(3)
H18 H -0.3762 0.2921 0.4306
C23 C -0.3736(4) 0.2239(4) 0.2636(4)
H19 H -0.3772 0.1725 0.2349
C24 C -0.3634(5) 0.3009(4) 0.2259(4)
H20 H -0.3605 0.3010 0.1731
N2A N 0.1214(3) 0.7189(3) 0.3385(3)
Zn1A Zn -0.37631(4) 0.10118(4) 0.39536(4)
loop_
_geom_bond_atom_site_label_1
_geom_bond_atom_site_label_2
_geom_bond_site_symmetry_1
_geom_bond_site_symmetry_2
Zn1 Cl1 1_555 1_555
Cl2 Zn1 1_555 1_555
N1 Zn1 1_555 1_555
N2 C22 1_555 1_555
O1 C1 1_555 1_555
O2 C13 1_555 1_555
C1 C2 1_555 1_555
C2 H1 1_555 1_555
C3 C2 1_555 1_555
H2 C3 1_555 1_555
C4 C3 1_555 1_555
H3 C4 1_555 1_555
C5 C4 1_555 1_555
H4 C5 1_555 1_555
C6 C1 1_555 1_555
C7 O1 1_555 1_555
H5 C7 1_555 1_555
H6 C7 1_555 1_555
C8 C7 1_555 1_555
C9 C8 1_555 1_555
H7 C9 1_555 1_555
C10 N1 1_555 1_555
H8 C10 1_555 1_555
C11 N1 1_555 1_555
H9 C11 1_555 1_555
C12 C8 1_555 1_555
H10 C12 1_555 1_555
C13 C14 1_555 1_555
C14 H11 1_555 1_555
C15 C14 1_555 1_555
H12 C15 1_555 1_555
C16 C15 1_555 1_555
H13 C16 1_555 1_555
C17 C16 1_555 1_555
H14 C17 1_555 1_555
C18 C6 1_555 1_555
C19 O2 1_555 1_555
H15 C19 1_555 1_555
H16 C19 1_555 1_555
C20 C19 1_555 1_555
C21 C20 1_555 1_555
H17 C21 1_555 1_555
C22 C21 1_555 1_555
H18 C22 1_555 1_555
C23 N2 1_555 1_555
H19 C23 1_555 1_555
C24 C20 1_555 1_555
H20 C24 1_555 1_555
N2A Zn1 1_555 1_555
Zn1A N2 1_555 1_555
C5 C6 1_555 1_555
C9 C10 1_555 1_555
C11 C12 1_555 1_555
C13 C18 1_555 1_555
C17 C18 1_555 1_555
C23 C24 1_555 1_555

#END
