
#######################################################################
#
#                 Cambridge Crystallographic Data Centre
#                                CCDC 
#
#######################################################################
#
# If this CIF has been generated from an entry in the Cambridge 
# Structural Database, then it will include bibliographic, chemical, 
# crystal, experimental, refinement or atomic coordinate data resulting 
# from the CCDC's data processing and validation procedures.
#
#######################################################################

data_IBUWUZ
_symmetry_cell_setting           triclinic
_symmetry_space_group_name_H-M   'P -1'
_symmetry_Int_Tables_number      2
_space_group_name_Hall           '-P 1'
loop_
_symmetry_equiv_pos_site_id
_symmetry_equiv_pos_as_xyz
1 x,y,z
2 -x,-y,-z
_cell_length_a                   14.362(2)
_cell_length_b                   14.580(2)
_cell_length_c                   15.887(2)
_cell_angle_alpha                86.106(2)
_cell_angle_beta                 80.269(2)
_cell_angle_gamma                87.555(2)
_cell_volume                     3269.63
loop_
_atom_site_label
_atom_site_type_symbol
_atom_site_fract_x
_atom_site_fract_y
_atom_site_fract_z
Cd1 Cd 0.598260(19) 0.304147(18) -0.915146(19)
Cd2 Cd 0.737825(19) 1.03148(2) -1.38282(2)
S1 S 0.79323(10) 0.44322(8) -1.46126(8)
S2 S -0.01708(9) 0.33841(12) -0.85784(10)
C1 C 0.6450(3) 0.3458(3) -1.2383(3)
H1 H 0.5837 0.3276 -1.2178
C2 C 0.6715(3) 0.3721(3) -1.3251(3)
H2 H 0.6282 0.3710 -1.3624
C3 C 0.7620(3) 0.3995(3) -1.3544(3)
C4 C 0.8283(3) 0.3998(3) -1.3003(3)
H3 H 0.8896 0.4182 -1.3209
C5 C 0.8009(3) 0.3717(3) -1.2146(3)
H4 H 0.8451 0.3698 -1.1779
C6 C 0.7092(3) 0.3466(3) -1.1829(3)
C7 C 0.6796(4) 0.3211(3) -1.0884(3)
C8 C 0.7813(3) 0.5636(3) -1.4500(3)
C9 C 0.6909(4) 0.6038(3) -1.4428(3)
H5 H 0.6392 0.5690 -1.4466
C10 C 0.6798(3) 0.6963(3) -1.4299(3)
H6 H 0.6203 0.7248 -1.4271
C11 C 0.7558(3) 0.7470(3) -1.4213(3)
C12 C 0.8450(3) 0.7056(3) -1.4294(3)
H7 H 0.8967 0.7403 -1.4252
C13 C 0.8584(4) 0.6128(3) -1.4439(3)
H8 H 0.9184 0.5849 -1.4493
C14 C 0.7424(3) 0.8487(3) -1.4065(3)
C15 C 0.4043(3) 0.2991(4) -0.8770(3)
C16 C 0.2976(3) 0.3031(3) -0.8634(3)
C17 C 0.2510(3) 0.3837(4) -0.8394(4)
H9 H 0.2851 0.4327 -0.8274
C18 C 0.1537(4) 0.3927(4) -0.8329(4)
H10 H 0.1221 0.4469 -0.8152
C19 C 0.1051(3) 0.3219(3) -0.8525(3)
C20 C 0.1493(4) 0.2402(4) -0.8765(4)
H11 H 0.1148 0.1925 -0.8904
C21 C 0.2471(3) 0.2301(3) -0.8798(4)
H12 H 0.2779 0.1742 -0.8930
C22 C -0.0795(3) 0.2694(3) -0.7731(3)
C23 C -0.1371(4) 0.2045(4) -0.7913(4)
H13 H -0.1409 0.1943 -0.8478
C24 C -0.1895(4) 0.1543(4) -0.7248(4)
H14 H -0.2293 0.1101 -0.7370
C25 C -0.1848(3) 0.1677(3) -0.6416(3)
C26 C -0.1280(4) 0.2352(4) -0.6244(4)
H15 H -0.1257 0.2467 -0.5679
C27 C -0.0743(4) 0.2863(4) -0.6905(4)
H16 H -0.0352 0.3314 -0.6788
C28 C -0.2401(3) 0.1100(4) -0.5687(4)
C29 C 0.5937(3) 0.5284(3) -0.9080(3)
H17 H 0.5292 0.5194 -0.9033
C30 C 0.6235(3) 0.6165(3) -0.9033(3)
H18 H 0.5796 0.6652 -0.8952
C31 C 0.7185(3) 0.6319(3) -0.9105(2)
C32 C 0.7805(3) 0.5574(3) -0.9259(3)
H19 H 0.8455 0.5651 -0.9337
C33 C 0.7450(3) 0.4718(3) -0.9294(3)
H20 H 0.7878 0.4225 -0.9397
C34 C 0.7524(3) 0.7238(2) -0.9012(2)
C35 C 0.7604(3) 0.8705(3) -0.8943(3)
C36 C 0.8495(3) 0.8330(3) -0.8866(3)
C37 C 0.9349(3) 0.8731(3) -0.8686(3)
C38 C 0.9347(4) 0.9579(3) -0.8346(4)
H21 H 0.8787 0.9928 -0.8237
C39 C 1.0171(4) 0.9909(4) -0.8168(4)
H22 H 1.0146 1.0492 -0.7961
C40 C 1.0989(4) 0.8635(4) -0.8557(4)
H23 H 1.1549 0.8282 -0.8605
C41 C 1.0215(3) 0.8260(3) -0.8793(4)
H24 H 1.0274 0.7688 -0.9025
C42 C 0.7266(3) 0.9674(2) -0.8985(3)
C43 C 0.6436(3) 0.9971(3) -0.8509(3)
H25 H 0.6073 0.9556 -0.8133
C44 C 0.6132(3) 1.0877(3) -0.8583(3)
H26 H 0.5557 1.1047 -0.8258
C45 C 0.7423(3) 1.1246(3) -0.9537(3)
H27 H 0.7773 1.1686 -0.9892
C46 C 0.7785(3) 1.0346(3) -0.9509(3)
H28 H 0.8364 1.0194 -0.9836
C47 C 0.8979(3) 1.1763(3) -1.3729(4)
H29 H 0.8447 1.2155 -1.3684
C48 C 0.9832(3) 1.2125(3) -1.3664(4)
H30 H 0.9862 1.2743 -1.3565
C49 C 1.0637(3) 1.1577(3) -1.3743(3)
C50 C 1.0531(3) 1.0672(3) -1.3907(4)
H31 H 1.1056 1.0273 -1.3992
C51 C 0.9651(3) 1.0362(3) -1.3944(4)
H32 H 0.9598 0.9745 -1.4038
C52 C 1.1543(3) 1.1943(3) -1.3650(3)
C53 C 1.2606(3) 1.2851(3) -1.3424(2)
C54 C 1.3052(3) 1.2009(3) -1.3579(3)
C55 C 1.4031(3) 1.1648(3) -1.3598(2)
C56 C 1.4559(3) 1.1827(3) -1.2972(3)
H33 H 1.4306 1.2200 -1.2532
C57 C 1.5458(3) 1.1447(3) -1.3008(3)
H34 H 1.5800 1.1567 -1.2582
C58 C 1.5357(3) 1.0766(4) -1.4235(3)
H35 H 1.5630 1.0406 -1.4679
C59 C 1.4455(3) 1.1117(4) -1.4232(3)
H36 H 1.4131 1.0991 -1.4669
C60 C 1.2987(3) 1.3742(3) -1.3308(3)
C61 C 1.2413(4) 1.4436(4) -1.2968(4)
H37 H 1.1770 1.4341 -1.2796
C62 C 1.2775(5) 1.5283(4) -1.2877(4)
H38 H 1.2355 1.5743 -1.2655
C63 C 1.4231(4) 1.4806(4) -1.3434(5)
H39 H 1.4870 1.4924 -1.3595
C64 C 1.3935(4) 1.3951(3) -1.3577(4)
H40 H 1.4360 1.3522 -1.3848
N1 N 0.6530(2) 0.4554(2) -0.9191(2)
N2 N 0.7012(2) 0.8017(2) -0.9030(2)
N3 N 0.8423(2) 0.7402(2) -0.8912(2)
H41 H 0.893(2) 0.704(3) -0.888(3)
N4 N 0.6600(2) 1.1512(2) -0.9080(2)
N5 N 1.0990(3) 0.9459(3) -0.8269(3)
N6 N 0.8875(2) 1.0891(2) -1.3854(2)
N7 N 1.1661(2) 1.2794(2) -1.3471(2)
N8 N 1.2364(2) 1.1442(2) -1.3726(2)
H42 H 1.239(3) 1.0843(10) -1.383(3)
N9 N 1.3661(4) 1.5478(3) -1.3080(3)
N10 N 1.5859(2) 1.0918(2) -1.3625(2)
O1 O 0.5929(3) 0.3113(3) -1.0605(2)
O2 O 0.6141(3) 0.2939(2) -0.7730(2)
H43 H 0.6051 0.3456 -0.7499
H44 H 0.6411 0.2603 -0.7520
O3 O 0.7335(2) 1.0334(3) -1.2388(2)
H45 H 0.7732 1.0499 -1.2113
H46 H 0.6955 1.0084 -1.1995
O4 O 0.7425(3) 0.3145(2) -1.0429(2)
O6 O 0.6620(2) 0.8852(2) -1.3973(2)
O7 O 0.8148(2) 0.8927(2) -1.4061(3)
O10 O 0.7227(3) 0.4161(2) -1.5080(2)
O12 O 0.8912(3) 0.4202(3) -1.4899(3)
O15 O 0.4465(2) 0.2226(3) -0.8919(3)
O17 O 0.4471(2) 0.3700(3) -0.8775(3)
O18 O -0.2526(7) 0.0316(5) -0.5523(7)
O20 O -0.2578(10) 0.1563(9) -0.4993(7)
O22 O -0.0399(9) 0.4328(6) -0.8253(7)
O24 O -0.0370(12) 0.3236(9) -0.9400(7)
Cd1_2 Cd 0.598260(19) 1.304147(18) -0.915146(19)
Cd2_2 Cd 1.737825(19) 1.03148(2) -1.38282(2)
Cd2_3 Cd -0.262175(19) 0.03148(2) -0.38282(2)
N4_2 N 0.6600(2) 0.1512(2) -0.9080(2)
N10_2 N 0.5859(2) 1.0918(2) -1.3625(2)
O20_2 O 0.7422(10) 1.1563(9) -1.4993(7)
O5 O 0.5368(3) 0.1597(3) -0.6484(3)
H47 H 0.4769 0.1545 -0.6488
H48 H 0.5514 0.1626 -0.7101
O8 O 0.5999(3) 0.9786(4) -1.1094(3)
H49 H 0.5771 0.9468 -1.0635
H50 H 0.5972 1.0333 -1.0991
O9 O 0.5066(4) 0.8573(4) -0.9273(4)
H51 H 0.4718 0.8110 -0.9157
H52 H 0.5280 0.8420 -0.8825
O11 O 0.5755(4) 0.2878(4) -1.5212(4)
H53 H 0.5775 0.2503 -1.5645
H54 H 0.5870 0.3431 -1.5502
O13 O 0.0012(4) 0.6096(4) -0.8944(5)
O16 O 0.0450(8) 1.4473(9) -1.3520(8)
H55 H 0.0522 1.4704 -1.4019
H56 H 0.0570 1.4844 -1.3175
O14? O -0.0307(8) 0.6187(9) -0.8104(9)
O19? O -0.2826(5) 0.0427(4) -0.6004(5)
O21? O -0.2401(9) 0.1243(8) -0.4954(6)
O23? O -0.0450(11) 0.4332(6) -0.8578(8)
O25? O -0.0302(13) 0.2872(9) -0.9322(7)
loop_
_geom_bond_atom_site_label_1
_geom_bond_atom_site_label_2
_geom_bond_site_symmetry_1
_geom_bond_site_symmetry_2
Cd1 N1 1_555 1_555
Cd2 N6 1_555 1_555
S1 C3 1_555 1_555
S2 C19 1_555 1_555
C1 H1 1_555 1_555
C2 C1 1_555 1_555
H2 C2 1_555 1_555
C3 C2 1_555 1_555
C4 C3 1_555 1_555
H3 C4 1_555 1_555
C5 C4 1_555 1_555
H4 C5 1_555 1_555
C6 C1 1_555 1_555
C7 C6 1_555 1_555
C8 S1 1_555 1_555
C9 C8 1_555 1_555
H5 C9 1_555 1_555
C10 C9 1_555 1_555
H6 C10 1_555 1_555
C11 C10 1_555 1_555
C12 C11 1_555 1_555
H7 C12 1_555 1_555
C13 C8 1_555 1_555
H8 C13 1_555 1_555
C14 C11 1_555 1_555
C15 C16 1_555 1_555
C16 C17 1_555 1_555
C17 H9 1_555 1_555
C18 C17 1_555 1_555
H10 C18 1_555 1_555
C19 C18 1_555 1_555
C20 C19 1_555 1_555
H11 C20 1_555 1_555
C21 C16 1_555 1_555
H12 C21 1_555 1_555
C22 S2 1_555 1_555
C23 C22 1_555 1_555
H13 C23 1_555 1_555
C24 C23 1_555 1_555
H14 C24 1_555 1_555
C25 C24 1_555 1_555
C26 C25 1_555 1_555
H15 C26 1_555 1_555
C27 C22 1_555 1_555
H16 C27 1_555 1_555
C28 C25 1_555 1_555
C29 H17 1_555 1_555
C30 C29 1_555 1_555
H18 C30 1_555 1_555
C31 C30 1_555 1_555
C32 C31 1_555 1_555
H19 C32 1_555 1_555
C33 C32 1_555 1_555
H20 C33 1_555 1_555
C34 C31 1_555 1_555
C35 C36 1_555 1_555
C36 C37 1_555 1_555
C37 C38 1_555 1_555
C38 H21 1_555 1_555
C39 C38 1_555 1_555
H22 C39 1_555 1_555
C40 H23 1_555 1_555
C41 C37 1_555 1_555
H24 C41 1_555 1_555
C42 C35 1_555 1_555
C43 C42 1_555 1_555
H25 C43 1_555 1_555
C44 C43 1_555 1_555
H26 C44 1_555 1_555
C45 H27 1_555 1_555
C46 C42 1_555 1_555
H28 C46 1_555 1_555
C47 H29 1_555 1_555
C48 C47 1_555 1_555
H30 C48 1_555 1_555
C49 C48 1_555 1_555
C50 C49 1_555 1_555
H31 C50 1_555 1_555
C51 C50 1_555 1_555
H32 C51 1_555 1_555
C52 C49 1_555 1_555
C53 C54 1_555 1_555
C54 C55 1_555 1_555
C55 C56 1_555 1_555
C56 H33 1_555 1_555
C57 C56 1_555 1_555
H34 C57 1_555 1_555
C58 H35 1_555 1_555
C59 C55 1_555 1_555
H36 C59 1_555 1_555
C60 C53 1_555 1_555
C61 C60 1_555 1_555
H37 C61 1_555 1_555
C62 C61 1_555 1_555
H38 C62 1_555 1_555
C63 H39 1_555 1_555
C64 C60 1_555 1_555
H40 C64 1_555 1_555
N1 C29 1_555 1_555
N2 C34 1_555 1_555
N3 C34 1_555 1_555
H41 N3 1_555 1_555
N4 C44 1_555 1_555
N5 C39 1_555 1_555
N6 C47 1_555 1_555
N7 C52 1_555 1_555
N8 C52 1_555 1_555
H42 N8 1_555 1_555
N9 C62 1_555 1_555
N10 C57 1_555 1_555
O1 Cd1 1_555 1_555
O2 Cd1 1_555 1_555
H43 O2 1_555 1_555
H44 O2 1_555 1_555
O3 Cd2 1_555 1_555
H45 O3 1_555 1_555
H46 O3 1_555 1_555
O4 C7 1_555 1_555
O5 H47 1_555 1_555
H48 O5 1_555 1_555
O6 Cd2 1_555 1_555
O7 Cd2 1_555 1_555
O8 H49 1_555 1_555
H50 O8 1_555 1_555
O9 H51 1_555 1_555
H52 O9 1_555 1_555
O10 S1 1_555 1_555
O11 H53 1_555 1_555
H54 O11 1_555 1_555
O12 S1 1_555 1_555
O15 Cd1 1_555 1_555
O16 H55 1_555 1_555
H56 O16 1_555 1_555
O17 Cd1 1_555 1_555
O18 C28 1_555 1_555
O20 C28 1_555 1_555
O22 S2 1_555 1_555
O24 S2 1_555 1_555
Cd1_2 N4 1_555 1_555
Cd2_2 N10 1_555 1_555
Cd2_3 O20 1_555 1_555
N4_2 Cd1 1_555 1_555
N10_2 Cd2 1_555 1_555
O20_2 Cd2 1_555 1_555
C5 C6 1_555 1_555
C7 O1 1_555 1_555
C12 C13 1_555 1_555
C14 O6 1_555 1_555
C14 O7 1_555 1_555
C15 O15 1_555 1_555
C15 O17 1_555 1_555
C20 C21 1_555 1_555
C26 C27 1_555 1_555
C33 N1 1_555 1_555
C35 N2 1_555 1_555
C36 N3 1_555 1_555
C40 C41 1_555 1_555
C40 N5 1_555 1_555
C45 C46 1_555 1_555
C45 N4 1_555 1_555
C51 N6 1_555 1_555
C53 N7 1_555 1_555
C54 N8 1_555 1_555
C58 C59 1_555 1_555
C58 N10 1_555 1_555
C63 C64 1_555 1_555
C63 N9 1_555 1_555

#END
