
#######################################################################
#
#                 Cambridge Crystallographic Data Centre
#                                CCDC 
#
#######################################################################
#
# If this CIF has been generated from an entry in the Cambridge 
# Structural Database, then it will include bibliographic, chemical, 
# crystal, experimental, refinement or atomic coordinate data resulting 
# from the CCDC's data processing and validation procedures.
#
#######################################################################

data_IBUWEI
_symmetry_cell_setting           orthorhombic
_symmetry_space_group_name_H-M   'P c a 21'
_symmetry_Int_Tables_number      29
_space_group_name_Hall           'P 2c -2ac'
loop_
_symmetry_equiv_pos_site_id
_symmetry_equiv_pos_as_xyz
1 x,y,z
2 -x,-y,1/2+z
3 1/2-x,y,1/2+z
4 1/2+x,-y,z
_cell_length_a                   7.5946(3)
_cell_length_b                   11.4371(3)
_cell_length_c                   29.6290(2)
_cell_angle_alpha                90
_cell_angle_beta                 90
_cell_angle_gamma                90
_cell_volume                     2573.58
loop_
_atom_site_label
_atom_site_type_symbol
_atom_site_fract_x
_atom_site_fract_y
_atom_site_fract_z
Cd1 Cd 0.35670(7) 0.20589(4) 0.46159(3)
O1 O 0.7306(11) 0.3310(6) 0.6808(2)
O2 O 1.0073(8) 0.0447(4) 0.75507(19)
N1 N 0.6366(10) 0.2310(6) 0.4312(2)
N2 N 0.8181(11) 0.4024(6) 0.4120(3)
N3 N 0.8043(10) 0.5977(6) 0.4427(2)
N4 N 0.4220(9) 0.0131(5) 0.4788(2)
N5 N 0.5588(9) -0.1750(5) 0.4933(2)
N6 N 0.4174(13) -0.3409(7) 0.5327(4)
N7 N 0.4424(9) 0.2744(5) 0.5320(2)
N8 N 0.7846(9) -0.1514(5) 0.8942(2)
C1 C 0.7184(11) 0.3147(7) 0.4238(3)
C2 C 0.8058(11) 0.5038(6) 0.4307(3)
C3 C 0.4794(10) -0.0762(7) 0.4869(3)
C4 C 0.4813(12) -0.2613(7) 0.5150(3)
C5 C 0.5789(12) 0.3908(8) 0.6664(3)
H1 H 0.5998 0.4762 0.6674
H2 H 0.4791 0.3723 0.6866
C6 C 0.5352(15) 0.3540(9) 0.6185(4)
C7 C 0.5958(11) 0.2474(7) 0.6020(3)
H3 H 0.6695 0.1991 0.6199
C8 C 0.5474(11) 0.2125(7) 0.5590(3)
H4 H 0.5915 0.1401 0.5481
C9 C 0.3880(12) 0.3797(6) 0.5485(3)
H5 H 0.3157 0.4278 0.5301
C10 C 0.4341(11) 0.4195(6) 0.5913(3)
H6 H 0.3937 0.4937 0.6013
C11 C 0.9412(12) 0.2785(6) 0.7357(3)
C12 C 0.7946(14) 0.3486(8) 0.7237(3)
C13 C 0.7210(12) 0.4268(7) 0.7542(3)
H7 H 0.6245 0.4746 0.7455
C14 C 0.7902(12) 0.4341(7) 0.7973(3)
H8 H 0.7431 0.4888 0.8181
C15 C 0.9255(16) 0.3631(11) 0.8100(4)
H9 H 0.9667 0.3648 0.8402
C16 C 1.0027(12) 0.2890(8) 0.7791(3)
H10 H 1.1015 0.2438 0.7881
C17 C 1.0250(9) 0.1979(6) 0.7020(3)
C18 C 1.0634(11) 0.0804(6) 0.7137(3)
C19 C 1.1518(11) 0.0099(6) 0.6827(3)
H11 H 1.1793 -0.0685 0.6906
C20 C 1.2003(11) 0.0514(7) 0.6409(3)
H12 H 1.2626 0.0024 0.6205
C21 C 1.1580(12) 0.1639(7) 0.6288(3)
H13 H 1.1863 0.1917 0.5994
C22 C 1.0737(11) 0.2373(6) 0.6594(3)
H14 H 1.0489 0.3158 0.6510
C23 C 1.0230(13) -0.0758(7) 0.7655(3)
H15 H 1.1486 -0.0989 0.7655
H16 H 0.9606 -0.1231 0.7426
C24 C 0.9436(11) -0.0971(7) 0.8116(3)
C25 C 0.8678(12) -0.0125(6) 0.8381(3)
H17 H 0.8669 0.0667 0.8284
C26 C 0.7937(11) -0.0423(6) 0.8786(3)
H18 H 0.7458 0.0184 0.8967
C27 C 0.8641(12) -0.2334(7) 0.8683(3)
H19 H 0.8658 -0.3116 0.8791
C28 C 0.9421(12) -0.2109(7) 0.8276(3)
H20 H 0.9943 -0.2722 0.8106
N3C N 0.3043(10) 0.4023(6) 0.4427(2)
N5C N 0.0588(9) 0.1750(5) 0.4933(2)
N8A N 0.2154(9) 0.1514(5) 0.3942(2)
Cd1C Cd 0.85670(7) 0.79411(4) 0.46159(3)
Cd1C_2 Cd 0.85670(7) -0.20589(4) 0.46159(3)
Cd1A Cd 0.64330(7) -0.20589(4) 0.96159(3)
loop_
_geom_bond_atom_site_label_1
_geom_bond_atom_site_label_2
_geom_bond_site_symmetry_1
_geom_bond_site_symmetry_2
Cd1 N1 1_555 1_555
O1 C5 1_555 1_555
O2 C18 1_555 1_555
N1 C1 1_555 1_555
N2 C1 1_555 1_555
N3 C2 1_555 1_555
N4 Cd1 1_555 1_555
N5 C3 1_555 1_555
N6 C4 1_555 1_555
N7 Cd1 1_555 1_555
N8 C26 1_555 1_555
C2 N2 1_555 1_555
C3 N4 1_555 1_555
C4 N5 1_555 1_555
C5 H1 1_555 1_555
H2 C5 1_555 1_555
C6 C5 1_555 1_555
C7 C6 1_555 1_555
H3 C7 1_555 1_555
C8 N7 1_555 1_555
H4 C8 1_555 1_555
C9 N7 1_555 1_555
H5 C9 1_555 1_555
C10 C6 1_555 1_555
H6 C10 1_555 1_555
C11 C12 1_555 1_555
C12 O1 1_555 1_555
C13 C12 1_555 1_555
H7 C13 1_555 1_555
C14 C13 1_555 1_555
H8 C14 1_555 1_555
C15 C14 1_555 1_555
H9 C15 1_555 1_555
C16 C11 1_555 1_555
H10 C16 1_555 1_555
C17 C11 1_555 1_555
C18 C17 1_555 1_555
C19 C18 1_555 1_555
H11 C19 1_555 1_555
C20 C19 1_555 1_555
H12 C20 1_555 1_555
C21 C20 1_555 1_555
H13 C21 1_555 1_555
C22 C17 1_555 1_555
H14 C22 1_555 1_555
C23 O2 1_555 1_555
H15 C23 1_555 1_555
H16 C23 1_555 1_555
C24 C23 1_555 1_555
C25 C24 1_555 1_555
H17 C25 1_555 1_555
C26 C25 1_555 1_555
H18 C26 1_555 1_555
C27 N8 1_555 1_555
H19 C27 1_555 1_555
C28 C24 1_555 1_555
H20 C28 1_555 1_555
N3C Cd1 1_555 1_555
N5C Cd1 1_555 1_555
N8A Cd1 1_555 1_555
Cd1C N3 1_555 1_555
Cd1C_2 N5 1_555 1_555
Cd1A N8 1_555 1_555
C7 C8 1_555 1_555
C9 C10 1_555 1_555
C15 C16 1_555 1_555
C21 C22 1_555 1_555
C27 C28 1_555 1_555

#END
