
#######################################################################
#
#                 Cambridge Crystallographic Data Centre
#                                CCDC 
#
#######################################################################
#
# If this CIF has been generated from an entry in the Cambridge 
# Structural Database, then it will include bibliographic, chemical, 
# crystal, experimental, refinement or atomic coordinate data resulting 
# from the CCDC's data processing and validation procedures.
#
#######################################################################

data_IBUWAE
_symmetry_cell_setting           orthorhombic
_symmetry_space_group_name_H-M   'P c a 21'
_symmetry_Int_Tables_number      29
_space_group_name_Hall           'P 2c -2ac'
loop_
_symmetry_equiv_pos_site_id
_symmetry_equiv_pos_as_xyz
1 x,y,z
2 -x,-y,1/2+z
3 1/2-x,y,1/2+z
4 1/2+x,-y,z
_cell_length_a                   10.124
_cell_length_b                   26.6879(13)
_cell_length_c                   17.050
_cell_angle_alpha                90
_cell_angle_beta                 90
_cell_angle_gamma                90
_cell_volume                     4606.71
loop_
_atom_site_label
_atom_site_type_symbol
_atom_site_fract_x
_atom_site_fract_y
_atom_site_fract_z
Cd1 Cd 0.76842(4) 0.253569(13) 0.23205(6)
S1 S 1.1939(3) 0.32239(11) 0.1922(2)
O1 O 0.7560(4) 0.42909(15) -0.0938(3)
N1 N 0.9504(6) 0.30271(19) 0.2645(3)
C1 C 1.0507(6) 0.3112(2) 0.2362(6)
S2 S 0.3906(3) 0.15271(10) 0.27971(17)
O2 O 0.7227(4) 0.58727(15) -0.0728(3)
N2 N 0.5839(6) 0.2070(2) 0.2002(3)
C2 C 0.4996(7) 0.1859(2) 0.2306(6)
O3 O 1.2354(4) 0.08581(14) 0.0364(3)
N3 N 0.7207(5) 0.30832(18) 0.1253(3)
O4 O 1.2351(4) -0.07445(15) 0.0521(3)
N4 N 0.3791(5) 0.69954(18) -0.1852(3)
N5 N 0.9097(6) 0.20483(19) 0.1494(3)
N6 N 1.1816(6) -0.19725(18) -0.1640(3)
C3 C 0.8164(5) 0.5050(2) -0.1526(3)
C4 C 0.7535(6) 0.4591(2) -0.1600(4)
C5 C 0.6930(6) 0.4444(2) -0.2302(4)
H1 H 0.6503 0.4136 -0.2344
C6 C 0.6988(7) 0.4775(3) -0.2937(4)
H2 H 0.6594 0.4683 -0.3408
C7 C 0.7607(6) 0.5228(3) -0.2885(4)
H3 H 0.7633 0.5442 -0.3316
C8 C 0.8201(6) 0.5369(2) -0.2176(4)
H4 H 0.8624 0.5677 -0.2137
C9 C 0.6641(6) 0.3891(2) -0.0898(4)
H5 H 0.6785 0.3659 -0.1328
H6 H 0.5746 0.4019 -0.0934
C10 C 0.6837(6) 0.3626(2) -0.0125(3)
C11 C 0.5978(6) 0.3242(2) 0.0084(4)
H7 H 0.5268 0.3159 -0.0237
C12 C 0.6202(7) 0.2982(2) 0.0786(4)
H8 H 0.5620 0.2728 0.0929
C13 C 0.7849(6) 0.3742(2) 0.0393(4)
H9 H 0.8411 0.4010 0.0288
C14 C 0.8014(7) 0.3466(2) 0.1051(4)
H10 H 0.8717 0.3543 0.1381
C15 C 0.8752(5) 0.5210(2) -0.0756(3)
C16 C 0.8270(5) 0.56250(19) -0.0374(3)
C17 C 0.8794(5) 0.5781(2) 0.0351(3)
H11 H 0.8458 0.6060 0.0610
C18 C 0.9835(5) 0.5503(2) 0.0669(4)
H12 H 1.0186 0.5595 0.1152
C19 C 1.0341(7) 0.5102(3) 0.0288(4)
H13 H 1.1046 0.4926 0.0504
C20 C 0.9800(6) 0.4952(2) -0.0432(4)
H14 H 1.0149 0.4676 -0.0693
C21 C 0.6731(6) 0.6308(2) -0.0369(4)
H15 H 0.7438 0.6548 -0.0285
H16 H 0.6341 0.6227 0.0135
C22 C 0.5691(5) 0.65292(19) -0.0913(3)
C23 C 0.5384(6) 0.6350(2) -0.1637(4)
H17 H 0.5816 0.6069 -0.1832
C24 C 0.4441(6) 0.6584(2) -0.2077(4)
H18 H 0.4237 0.6448 -0.2565
C25 C 0.4075(7) 0.7165(3) -0.1129(4)
H19 H 0.3629 0.7447 -0.0946
C26 C 0.4998(6) 0.6942(2) -0.0647(4)
H20 H 0.5153 0.7069 -0.0147
C27 C 1.3706(5) 0.0148(2) 0.0365(3)
C28 C 1.3314(6) 0.0591(2) -0.0016(4)
C29 C 1.3875(6) 0.0724(2) -0.0729(3)
H21 H 1.3588 0.1011 -0.0988
C30 C 1.4859(6) 0.0432(2) -0.1055(4)
H22 H 1.5238 0.0523 -0.1531
C31 C 1.5278(7) 0.0004(2) -0.0672(4)
H23 H 1.5958 -0.0187 -0.0885
C32 C 1.4694(7) -0.0142(3) 0.0025(4)
H24 H 1.4965 -0.0436 0.0269
C33 C 1.1875(7) 0.1296(2) -0.0012(4)
H25 H 1.1453 0.1208 -0.0504
H26 H 1.2602 0.1522 -0.0124
C34 C 1.0896(6) 0.1547(2) 0.0524(4)
C35 C 1.1005(14) 0.1517(5) 0.1319(5)
H27 H 1.1671 0.1329 0.1553
C36 C 1.0080(13) 0.1778(5) 0.1770(5)
H28 H 1.0166 0.1759 0.2312
C37 C 0.9060(7) 0.2075(3) 0.0723(4)
H29 H 0.8401 0.2268 0.0493
C38 C 0.9922(7) 0.1837(3) 0.0247(4)
H30 H 0.9837 0.1877 -0.0292
C39 C 1.3099(6) -0.0004(2) 0.1117(3)
C40 C 1.2387(6) -0.0453(2) 0.1187(4)
C41 C 1.1779(7) -0.0584(2) 0.1884(4)
H31 H 1.1311 -0.0883 0.1924
C42 C 1.1878(7) -0.0264(2) 0.2523(3)
H32 H 1.1460 -0.0348 0.2990
C43 C 1.2574(6) 0.0170(2) 0.2476(4)
H33 H 1.2648 0.0376 0.2914
C44 C 1.3171(6) 0.0307(2) 0.1780(3)
H34 H 1.3628 0.0608 0.1750
C45 C 1.1480(5) -0.1161(2) 0.0517(3)
H35 H 1.0580 -0.1047 0.0598
H36 H 1.1708 -0.1388 0.0939
C46 C 1.1579(6) -0.1426(2) -0.0248(3)
C47 C 1.2411(8) -0.1274(2) -0.0825(4)
H37 H 1.2926 -0.0988 -0.0766
C48 C 1.2469(7) -0.1563(2) -0.1518(4)
H38 H 1.3021 -0.1451 -0.1917
C49 C 1.0963(7) -0.2111(2) -0.1067(4)
H39 H 1.0453 -0.2397 -0.1143
C50 C 1.0816(6) -0.1850(2) -0.0383(4)
H40 H 1.0209 -0.1956 -0.0009
N4A N 0.6209(5) 0.30046(18) 0.3148(3)
N6A N 0.8184(6) 0.19725(18) 0.3360(3)
Cd1A Cd 0.23158(4) 0.746431(13) -0.26795(6)
Cd1A_2 Cd 1.23158(4) -0.253569(13) -0.26795(6)
O5 O 0.3284(7) 0.2546(2) 0.0247(5)
O6 O 0.2405(7) 0.2443(3) 0.3652(5)
loop_
_geom_bond_atom_site_label_1
_geom_bond_atom_site_label_2
_geom_bond_site_symmetry_1
_geom_bond_site_symmetry_2
Cd1 N1 1_555 1_555
S1 C1 1_555 1_555
O1 C4 1_555 1_555
N1 C1 1_555 1_555
S2 C2 1_555 1_555
O2 C16 1_555 1_555
N2 Cd1 1_555 1_555
C2 N2 1_555 1_555
O3 C28 1_555 1_555
N3 Cd1 1_555 1_555
O4 C40 1_555 1_555
N4 C24 1_555 1_555
N5 Cd1 1_555 1_555
N6 C48 1_555 1_555
C3 C4 1_555 1_555
C4 C5 1_555 1_555
C5 H1 1_555 1_555
C6 C5 1_555 1_555
H2 C6 1_555 1_555
C7 C6 1_555 1_555
H3 C7 1_555 1_555
C8 C3 1_555 1_555
H4 C8 1_555 1_555
C9 O1 1_555 1_555
H5 C9 1_555 1_555
H6 C9 1_555 1_555
C10 C9 1_555 1_555
C11 C10 1_555 1_555
H7 C11 1_555 1_555
C12 N3 1_555 1_555
H8 C12 1_555 1_555
C13 C10 1_555 1_555
H9 C13 1_555 1_555
C14 N3 1_555 1_555
H10 C14 1_555 1_555
C15 C3 1_555 1_555
C16 C15 1_555 1_555
C17 C16 1_555 1_555
H11 C17 1_555 1_555
C18 C17 1_555 1_555
H12 C18 1_555 1_555
C19 C18 1_555 1_555
H13 C19 1_555 1_555
C20 C15 1_555 1_555
H14 C20 1_555 1_555
C21 O2 1_555 1_555
H15 C21 1_555 1_555
H16 C21 1_555 1_555
C22 C21 1_555 1_555
C23 C22 1_555 1_555
H17 C23 1_555 1_555
C24 C23 1_555 1_555
H18 C24 1_555 1_555
C25 N4 1_555 1_555
H19 C25 1_555 1_555
C26 C22 1_555 1_555
H20 C26 1_555 1_555
C27 C28 1_555 1_555
C28 C29 1_555 1_555
C29 H21 1_555 1_555
C30 C29 1_555 1_555
H22 C30 1_555 1_555
C31 C30 1_555 1_555
H23 C31 1_555 1_555
C32 C27 1_555 1_555
H24 C32 1_555 1_555
C33 O3 1_555 1_555
H25 C33 1_555 1_555
H26 C33 1_555 1_555
C34 C33 1_555 1_555
C35 C34 1_555 1_555
H27 C35 1_555 1_555
C36 N5 1_555 1_555
H28 C36 1_555 1_555
C37 N5 1_555 1_555
H29 C37 1_555 1_555
C38 C34 1_555 1_555
H30 C38 1_555 1_555
C39 C27 1_555 1_555
C40 C39 1_555 1_555
C41 C40 1_555 1_555
H31 C41 1_555 1_555
C42 C41 1_555 1_555
H32 C42 1_555 1_555
C43 C42 1_555 1_555
H33 C43 1_555 1_555
C44 C39 1_555 1_555
H34 C44 1_555 1_555
C45 O4 1_555 1_555
H35 C45 1_555 1_555
H36 C45 1_555 1_555
C46 C45 1_555 1_555
C47 C46 1_555 1_555
H37 C47 1_555 1_555
C48 C47 1_555 1_555
H38 C48 1_555 1_555
C49 N6 1_555 1_555
H39 C49 1_555 1_555
C50 C46 1_555 1_555
H40 C50 1_555 1_555
N4A Cd1 1_555 1_555
N6A Cd1 1_555 1_555
Cd1A N4 1_555 1_555
Cd1A_2 N6 1_555 1_555
C7 C8 1_555 1_555
C11 C12 1_555 1_555
C13 C14 1_555 1_555
C19 C20 1_555 1_555
C25 C26 1_555 1_555
C31 C32 1_555 1_555
C35 C36 1_555 1_555
C37 C38 1_555 1_555
C43 C44 1_555 1_555
C49 C50 1_555 1_555

#END
