
#######################################################################
#
#                 Cambridge Crystallographic Data Centre
#                                CCDC 
#
#######################################################################
#
# If this CIF has been generated from an entry in the Cambridge 
# Structural Database, then it will include bibliographic, chemical, 
# crystal, experimental, refinement or atomic coordinate data resulting 
# from the CCDC's data processing and validation procedures.
#
#######################################################################

data_IBUWAF
_symmetry_cell_setting           triclinic
_symmetry_space_group_name_H-M   'P -1'
_symmetry_Int_Tables_number      2
_space_group_name_Hall           '-P 1'
loop_
_symmetry_equiv_pos_site_id
_symmetry_equiv_pos_as_xyz
1 x,y,z
2 -x,-y,-z
_cell_length_a                   7.3001(10)
_cell_length_b                   9.2759(12)
_cell_length_c                   11.6302(15)
_cell_angle_alpha                83.1550(10)
_cell_angle_beta                 87.769(2)
_cell_angle_gamma                88.654(2)
_cell_volume                     781.192
loop_
_atom_site_label
_atom_site_type_symbol
_atom_site_fract_x
_atom_site_fract_y
_atom_site_fract_z
Cd1 Cd 0.24877(4) 0.42105(3) 0.49383(2)
Cl1 Cl -0.04354(12) 0.47092(9) 0.35728(7)
Cl2 Cl 0.43842(12) 0.62048(9) 0.37492(7)
N1 N 0.1891(4) 0.1825(3) 0.5684(2)
N2 N 0.3752(4) 0.2540(3) 0.3667(2)
N3 N 0.4713(4) 0.3110(3) 0.2701(2)
H1 H 0.4970 0.4014 0.2677
N4 N 0.6939(4) 0.3156(3) -0.0184(2)
N5 N 0.8472(4) 0.6823(4) -0.0302(3)
O1 O 0.5048(4) 0.1187(3) 0.1652(2)
O2 O 0.9140(4) 0.7153(3) -0.1278(3)
O3 O 0.8387(5) 0.7650(3) 0.0448(3)
C1 C 0.1098(6) 0.1460(4) 0.6724(3)
H2 H 0.0726 0.2196 0.7163
C2 C 0.0804(6) 0.0043(4) 0.7181(3)
H3 H 0.0248 -0.0175 0.7912
C3 C 0.1349(5) -0.1034(4) 0.6532(3)
H4 H 0.1160 -0.2001 0.6818
C4 C 0.2177(5) -0.0686(4) 0.5456(3)
H5 H 0.2541 -0.1412 0.5004
C5 C 0.2459(4) 0.0753(3) 0.5056(3)
C6 C 0.3410(5) 0.1198(4) 0.3928(3)
H6 H 0.3747 0.0521 0.3426
C7 C 0.5336(5) 0.2452(4) 0.1755(3)
C8 C 0.6357(5) 0.3482(4) 0.0918(3)
C9 C 0.6865(5) 0.4874(4) 0.1018(3)
H7 H 0.6662 0.5374 0.1660
C10 C 0.7746(5) 0.5395(4) -0.0032(3)
C11 C 0.7766(5) 0.4322(4) -0.0753(3)
H8 H 0.8266 0.4392 -0.1505
C12 C 0.6710(7) 0.1779(5) -0.0674(4)
H9 H 0.7135 0.1887 -0.1471
H10 H 0.5437 0.1532 -0.0625
H11 H 0.7408 0.1022 -0.0245
Cd1A Cd -0.24877(4) 0.57895(3) 0.50617(2)
Cd1A_2 Cd 0.75123(4) 0.57895(3) 0.50617(2)
Cl1A Cl 0.04354(12) 0.52908(9) 0.64272(7)
Cl2A Cl 0.56158(12) 0.37952(9) 0.62508(7)
loop_
_geom_bond_atom_site_label_1
_geom_bond_atom_site_label_2
_geom_bond_site_symmetry_1
_geom_bond_site_symmetry_2
Cd1 Cl1 1_555 1_555
Cl1 Cd1A 1_555 1_555
Cl2 Cd1 1_555 1_555
N1 Cd1 1_555 1_555
N2 Cd1 1_555 1_555
N3 N2 1_555 1_555
H1 N3 1_555 1_555
N4 C8 1_555 1_555
N5 O2 1_555 1_555
O1 C7 1_555 1_555
O3 N5 1_555 1_555
C1 N1 1_555 1_555
H2 C1 1_555 1_555
C2 C1 1_555 1_555
H3 C2 1_555 1_555
C3 C2 1_555 1_555
H4 C3 1_555 1_555
C4 C3 1_555 1_555
H5 C4 1_555 1_555
C5 N1 1_555 1_555
C6 N2 1_555 1_555
H6 C6 1_555 1_555
C7 N3 1_555 1_555
C8 C7 1_555 1_555
C9 C8 1_555 1_555
H7 C9 1_555 1_555
C10 N5 1_555 1_555
C11 N4 1_555 1_555
H8 C11 1_555 1_555
C12 N4 1_555 1_555
H9 C12 1_555 1_555
H10 C12 1_555 1_555
H11 C12 1_555 1_555
Cd1A Cl1A 1_555 1_555
Cd1A_2 Cl2 1_555 1_555
Cl1A Cd1 1_555 1_555
Cl2A Cd1 1_555 1_555
C4 C5 1_555 1_555
C5 C6 1_555 1_555
C9 C10 1_555 1_555
C10 C11 1_555 1_555
Cd1A_2 Cl2A 1_555 1_555

#END
