
#######################################################################
#
#                 Cambridge Crystallographic Data Centre
#                                CCDC 
#
#######################################################################
#
# If this CIF has been generated from an entry in the Cambridge 
# Structural Database, then it will include bibliographic, chemical, 
# crystal, experimental, refinement or atomic coordinate data resulting 
# from the CCDC's data processing and validation procedures.
#
#######################################################################

data_IBUXIO
_symmetry_cell_setting           monoclinic
_symmetry_space_group_name_H-M   'P 21/c'
_symmetry_Int_Tables_number      14
_space_group_name_Hall           '-P 2ybc'
loop_
_symmetry_equiv_pos_site_id
_symmetry_equiv_pos_as_xyz
1 x,y,z
2 -x,1/2+y,1/2-z
3 -x,-y,-z
4 x,1/2-y,1/2+z
_cell_length_a                   11.5434(8)
_cell_length_b                   16.3088(12)
_cell_length_c                   12.8836(10)
_cell_angle_alpha                90
_cell_angle_beta                 106.192(4)
_cell_angle_gamma                90
_cell_volume                     2329.24
loop_
_atom_site_label
_atom_site_type_symbol
_atom_site_fract_x
_atom_site_fract_y
_atom_site_fract_z
Cd1 Cd 0.20201(8) 0.06274(6) 0.22911(8)
S1 S -0.3051(3) 0.3498(2) -0.2652(2)
C1 C -0.1453(14) 0.1870(9) -0.0365(12)
H1 H -0.1670 0.1555 0.0153
C2 C -0.2327(13) 0.2354(9) -0.1079(11)
H2 H -0.3121 0.2358 -0.1047
C3 C -0.1976(13) 0.2827(8) -0.1836(10)
C4 C -0.0799(15) 0.2830(10) -0.1915(12)
H3 H -0.0580 0.3147 -0.2430
C5 C 0.0040(14) 0.2340(10) -0.1194(11)
H4 H 0.0835 0.2333 -0.1227
C6 C -0.0281(14) 0.1857(8) -0.0421(12)
C7 C -0.4089(13) 0.2849(8) -0.3561(10)
C8 C -0.3650(15) 0.2169(10) -0.3979(13)
H5 H -0.2838 0.2027 -0.3751
C9 C -0.4492(15) 0.1702(9) -0.4769(12)
H6 H -0.4241 0.1231 -0.5050
C10 C -0.5664(14) 0.1941(8) -0.5118(11)
C11 C -0.6086(13) 0.2648(8) -0.4715(12)
H7 H -0.6881 0.2818 -0.4989
C12 C -0.5295(14) 0.3080(9) -0.3907(12)
H8 H -0.5566 0.3527 -0.3592
C13 C 0.0637(14) 0.1375(9) 0.0402(13)
C14 C -0.6551(13) 0.1441(9) -0.5990(12)
C15 C 0.4383(15) -0.0409(10) 0.2513(15)
H9 H 0.4555 -0.0374 0.3261
C16 C 0.453(2) -0.0709(11) 0.0925(17)
H10 H 0.4805 -0.0914 0.0364
C17 C 0.3545(16) -0.0241(10) 0.0822(14)
H11 H 0.3009 -0.0073 0.0176
C18 C 0.6116(16) -0.1333(9) 0.2492(15)
H12 H 0.6095 -0.1825 0.2063
H13 H 0.6094 -0.1501 0.3208
C19 C 0.7257(18) -0.0884(12) 0.2574(19)
H14 H 0.7260 -0.0375 0.2963
H15 H 0.7312 -0.0751 0.1855
C20 C 0.8368(16) -0.1414(11) 0.3175(17)
H16 H 0.8277 -0.1584 0.3869
H17 H 0.8398 -0.1903 0.2755
C21 C 0.9850(17) -0.0478(10) 0.2635(16)
H18 H 0.9381 -0.0360 0.1938
C22 C 1.134(2) -0.0532(12) 0.4074(19)
H19 H 1.2093 -0.0453 0.4558
C23 C 1.043(2) -0.1001(12) 0.4258(17)
H20 H 1.0454 -0.1292 0.4884
N1 N 0.3475(11) -0.0055(7) 0.1841(11)
N2 N 0.5039(12) -0.0829(8) 0.1994(11)
N3 N 0.9496(13) -0.0957(9) 0.3342(12)
N4 N 1.0949(12) -0.0199(7) 0.3067(11)
O1 O 0.0354(12) 0.1145(11) 0.1210(11)
O2 O 0.1636(12) 0.1250(11) 0.0261(15)
O3 O -0.6448(15) 0.0674(7) -0.5901(13)
O4 O -0.7286(13) 0.1787(8) -0.6729(11)
O5 O -0.2457(11) 0.3994(6) -0.3269(8)
O6 O -0.3706(12) 0.3897(7) -0.1994(9)
Cd1_2 Cd 1.20201(8) 0.06274(6) 0.22911(8)
Cd1_3 Cd -0.79799(8) 0.06274(6) -0.77089(8)
C14_2 C 0.3449(13) 0.1441(9) 0.4010(12)
N4_2 N 0.0949(12) -0.0199(7) 0.3067(11)
O3_2 O 0.3552(15) 0.0674(7) 0.4099(13)
O4_2 O 0.2714(13) 0.1787(8) 0.3271(11)
loop_
_geom_bond_atom_site_label_1
_geom_bond_atom_site_label_2
_geom_bond_site_symmetry_1
_geom_bond_site_symmetry_2
Cd1 N1 1_555 1_555
S1 C3 1_555 1_555
C1 H1 1_555 1_555
C2 C1 1_555 1_555
H2 C2 1_555 1_555
C3 C2 1_555 1_555
C4 C3 1_555 1_555
H3 C4 1_555 1_555
C5 C4 1_555 1_555
H4 C5 1_555 1_555
C6 C1 1_555 1_555
C7 S1 1_555 1_555
C8 C7 1_555 1_555
H5 C8 1_555 1_555
C9 C8 1_555 1_555
H6 C9 1_555 1_555
C10 C9 1_555 1_555
C11 C10 1_555 1_555
H7 C11 1_555 1_555
C12 C7 1_555 1_555
H8 C12 1_555 1_555
C13 C6 1_555 1_555
C14 C10 1_555 1_555
C15 H9 1_555 1_555
C16 H10 1_555 1_555
C17 C16 1_555 1_555
H11 C17 1_555 1_555
C18 H12 1_555 1_555
H13 C18 1_555 1_555
C19 C18 1_555 1_555
H14 C19 1_555 1_555
H15 C19 1_555 1_555
C20 C19 1_555 1_555
H16 C20 1_555 1_555
H17 C20 1_555 1_555
C21 H18 1_555 1_555
C22 H19 1_555 1_555
C23 C22 1_555 1_555
H20 C23 1_555 1_555
N1 C15 1_555 1_555
N2 C15 1_555 1_555
N3 C20 1_555 1_555
N4 C21 1_555 1_555
O1 Cd1 1_555 1_555
O2 Cd1 1_555 1_555
O3 C14 1_555 1_555
O4 C14 1_555 1_555
O5 S1 1_555 1_555
O6 S1 1_555 1_555
Cd1_2 N4 1_555 1_555
Cd1_3 O3 1_555 1_555
C14_2 O3_2 1_555 1_555
N4_2 Cd1 1_555 1_555
O3_2 Cd1 1_555 1_555
O4_2 Cd1 1_555 1_555
C5 C6 1_555 1_555
C11 C12 1_555 1_555
C13 O1 1_555 1_555
C13 O2 1_555 1_555
C16 N2 1_555 1_555
C17 N1 1_555 1_555
C18 N2 1_555 1_555
C21 N3 1_555 1_555
C22 N4 1_555 1_555
C23 N3 1_555 1_555
O4 Cd1_3 1_555 1_555
C14_2 O4_2 1_555 1_555

#END
