
#######################################################################
#
#                 Cambridge Crystallographic Data Centre
#                                CCDC 
#
#######################################################################
#
# If this CIF has been generated from an entry in the Cambridge 
# Structural Database, then it will include bibliographic, chemical, 
# crystal, experimental, refinement or atomic coordinate data resulting 
# from the CCDC's data processing and validation procedures.
#
#######################################################################

data_IBUXOU
_symmetry_cell_setting           monoclinic
_symmetry_space_group_name_H-M   'P 21/c'
_symmetry_Int_Tables_number      14
_space_group_name_Hall           '-P 2ybc'
loop_
_symmetry_equiv_pos_site_id
_symmetry_equiv_pos_as_xyz
1 x,y,z
2 -x,1/2+y,1/2-z
3 -x,-y,-z
4 x,1/2-y,1/2+z
_cell_length_a                   10.17650(10)
_cell_length_b                   16.0472(2)
_cell_length_c                   20.1566(2)
_cell_angle_alpha                90
_cell_angle_beta                 95.6190(10)
_cell_angle_gamma                90
_cell_volume                     3275.84
loop_
_atom_site_label
_atom_site_type_symbol
_atom_site_fract_x
_atom_site_fract_y
_atom_site_fract_z
Zn1 Zn 0.39457(3) -0.65471(2) -0.444467(19)
C1 C -0.1063(3) -0.69902(18) -0.42970(14)
H1 H -0.1123 -0.6584 -0.4628
C2 C 0.0174(2) -0.72821(17) -0.40445(14)
C3 C 0.0250(3) -0.78882(18) -0.35530(15)
H2 H 0.1071 -0.8087 -0.3379
C4 C -0.0878(3) -0.8199(2) -0.33207(17)
H3 H -0.0814 -0.8605 -0.2990
C5 C -0.2108(3) -0.79120(18) -0.35746(16)
H4 H -0.2869 -0.8129 -0.3420
C6 C -0.2199(3) -0.72937(17) -0.40646(14)
C7 C -0.3500(3) -0.68965(18) -0.43013(15)
C8 C 0.1385(3) -0.6910(2) -0.42902(18)
C9 C 0.1335(3) -0.29573(18) -0.83837(15)
C10 C 0.2646(3) -0.2877(2) -0.81238(18)
H5 H 0.3094 -0.3337 -0.7934
C11 C 0.3289(3) -0.2124(2) -0.81443(19)
H6 H 0.4165 -0.2076 -0.7968
C12 C 0.2634(3) -0.14420(18) -0.84262(16)
C13 C 0.1337(3) -0.15073(19) -0.86806(18)
H7 H 0.0892 -0.1044 -0.8867
C14 C 0.0695(3) -0.2263(2) -0.86584(17)
H8 H -0.0183 -0.2305 -0.8832
C15 C 0.3232(3) -0.0158(2) -0.89988(16)
H9 H 0.2727 -0.0270 -0.9399
C16 C 0.4542(4) 0.0431(2) -0.8255(2)
H10 H 0.5123 0.0814 -0.8040
C17 C 0.4160(4) -0.0289(2) -0.7986(2)
H11 H 0.4419 -0.0490 -0.7560
C18 C 0.1171(3) -0.43222(18) -0.78633(14)
C19 C 0.1034(4) -0.4173(2) -0.71996(16)
H12 H 0.0603 -0.3695 -0.7075
C20 C 0.1539(4) -0.4734(2) -0.67187(16)
H13 H 0.1431 -0.4640 -0.6272
C21 C 0.2199(3) -0.54291(17) -0.69038(14)
C22 C 0.2344(3) -0.55880(19) -0.75625(14)
H14 H 0.2789 -0.6062 -0.7684
C23 C 0.1816(3) -0.5032(2) -0.80427(15)
H15 H 0.1897 -0.5137 -0.8490
C24 C 0.2934(5) -0.6843(2) -0.64644(18)
H16 H 0.2727 -0.7162 -0.6846
C25 C 0.3455(5) -0.7114(3) -0.58731(19)
H17 H 0.3684 -0.7664 -0.5774
C26 C 0.3161(3) -0.5806(2) -0.57713(15)
H18 H 0.3130 -0.5273 -0.5593
C27 C -0.0265(3) -0.40070(19) -0.88694(15)
C28 C -0.1227(3) -0.4565(2) -0.87173(17)
H19 H -0.1230 -0.4758 -0.8283
C29 C -0.2181(3) -0.4839(2) -0.92008(18)
H20 H -0.2824 -0.5212 -0.9090
C30 C -0.2184(3) -0.4560(2) -0.98501(16)
C31 C -0.1209(3) -0.4029(2) -1.00118(16)
H21 H -0.1194 -0.3853 -1.0450
C32 C -0.0246(4) -0.3754(2) -0.95292(16)
H22 H 0.0415 -0.3398 -0.9646
C33 C -0.3638(4) -0.5587(3) -1.0495(2)
H23 H -0.3356 -0.6076 -1.0277
C34 C -0.4567(4) -0.5510(3) -1.1016(2)
H24 H -0.5035 -0.5955 -1.1219
C35 C -0.3890(4) -0.4295(3) -1.07948(17)
H25 H -0.3774 -0.3720 -1.0802
N1 N 0.0681(3) -0.37336(16) -0.83620(13)
N2 N 0.2760(2) -0.59949(15) -0.63997(12)
N3 N 0.3607(3) -0.64627(16) -0.54301(13)
N4 N 0.3315(3) -0.06617(16) -0.84649(13)
N5 N 0.3956(3) 0.05142(15) -0.88839(14)
N6 N -0.3203(3) -0.48094(18) -1.03550(14)
N7 N -0.4736(3) -0.4698(2) -1.12087(17)
O1 O 0.1280(2) -0.6299(2) -0.4655(2)
O2 O 0.24963(18) -0.72412(13) -0.41085(11)
O3 O -0.45360(18) -0.72489(13) -0.41324(11)
O4 O -0.35187(19) -0.62443(14) -0.46253(12)
Zn1C Zn 0.39457(3) 0.15471(2) -0.944467(19)
Zn1_2 Zn -0.60543(3) -0.65471(2) -0.444467(19)
N5C N 0.3956(3) -0.55142(15) -0.38839(14)
O3_2 O 0.54640(18) -0.72489(13) -0.41324(11)
O5 O 0.5968(7) -0.2614(5) -0.2081(3)
O6? O 0.0248(9) 0.0006(5) -0.0284(4)
loop_
_geom_bond_atom_site_label_1
_geom_bond_atom_site_label_2
_geom_bond_site_symmetry_1
_geom_bond_site_symmetry_2
Zn1 N3 1_555 1_555
C1 H1 1_555 1_555
C2 C1 1_555 1_555
C3 C2 1_555 1_555
H2 C3 1_555 1_555
C4 C3 1_555 1_555
H3 C4 1_555 1_555
C5 C4 1_555 1_555
H4 C5 1_555 1_555
C6 C1 1_555 1_555
C7 C6 1_555 1_555
C8 C2 1_555 1_555
C9 C10 1_555 1_555
C10 H5 1_555 1_555
C11 C10 1_555 1_555
H6 C11 1_555 1_555
C12 C11 1_555 1_555
C13 C12 1_555 1_555
H7 C13 1_555 1_555
C14 C9 1_555 1_555
H8 C14 1_555 1_555
C15 H9 1_555 1_555
C16 H10 1_555 1_555
C17 C16 1_555 1_555
H11 C17 1_555 1_555
C18 C19 1_555 1_555
C19 H12 1_555 1_555
C20 C19 1_555 1_555
H13 C20 1_555 1_555
C21 C20 1_555 1_555
C22 C21 1_555 1_555
H14 C22 1_555 1_555
C23 C18 1_555 1_555
H15 C23 1_555 1_555
C24 H16 1_555 1_555
C25 C24 1_555 1_555
H17 C25 1_555 1_555
C26 H18 1_555 1_555
C27 C28 1_555 1_555
C28 H19 1_555 1_555
C29 C28 1_555 1_555
H20 C29 1_555 1_555
C30 C29 1_555 1_555
C31 C30 1_555 1_555
H21 C31 1_555 1_555
C32 C27 1_555 1_555
H22 C32 1_555 1_555
C33 H23 1_555 1_555
C34 C33 1_555 1_555
H24 C34 1_555 1_555
C35 H25 1_555 1_555
N1 C9 1_555 1_555
N2 C21 1_555 1_555
N3 C25 1_555 1_555
N4 C12 1_555 1_555
N5 C15 1_555 1_555
N6 C30 1_555 1_555
N7 C34 1_555 1_555
O1 C8 1_555 1_555
O2 Zn1 1_555 1_555
O3 C7 1_555 1_555
O4 C7 1_555 1_555
Zn1C N5 1_555 1_555
Zn1_2 O3 1_555 1_555
N5C Zn1 1_555 1_555
O3_2 Zn1 1_555 1_555
C5 C6 1_555 1_555
C8 O2 1_555 1_555
C13 C14 1_555 1_555
C15 N4 1_555 1_555
C16 N5 1_555 1_555
C17 N4 1_555 1_555
C18 N1 1_555 1_555
C22 C23 1_555 1_555
C24 N2 1_555 1_555
C26 N2 1_555 1_555
C26 N3 1_555 1_555
C27 N1 1_555 1_555
C31 C32 1_555 1_555
C33 N6 1_555 1_555
C35 N6 1_555 1_555
C35 N7 1_555 1_555

#END
