
#######################################################################
#
#                 Cambridge Crystallographic Data Centre
#                                CCDC 
#
#######################################################################
#
# If this CIF has been generated from an entry in the Cambridge 
# Structural Database, then it will include bibliographic, chemical, 
# crystal, experimental, refinement or atomic coordinate data resulting 
# from the CCDC's data processing and validation procedures.
#
#######################################################################

data_IBUXEK
_symmetry_cell_setting           monoclinic
_symmetry_space_group_name_H-M   'P 21/c'
_symmetry_Int_Tables_number      14
_space_group_name_Hall           '-P 2ybc'
loop_
_symmetry_equiv_pos_site_id
_symmetry_equiv_pos_as_xyz
1 x,y,z
2 -x,1/2+y,1/2-z
3 -x,-y,-z
4 x,1/2-y,1/2+z
_cell_length_a                   11.8037(4)
_cell_length_b                   16.6966(6)
_cell_length_c                   12.9072(4)
_cell_angle_alpha                90
_cell_angle_beta                 106.7260(10)
_cell_angle_gamma                90
_cell_volume                     2436.15
loop_
_atom_site_label
_atom_site_type_symbol
_atom_site_fract_x
_atom_site_fract_y
_atom_site_fract_z
Cd1 Cd 0.20547(2) 0.075147(15) 0.732297(19)
S1 S 0.69252(8) 0.35171(5) 1.24309(6)
C1 C 0.4359(3) 0.2008(2) 0.9908(3)
C2 C 0.3987(3) 0.2695(2) 1.0298(3)
H1 H 0.3212 0.2870 1.0009
C3 C 0.4752(3) 0.3129(2) 1.1114(3)
H2 H 0.4487 0.3577 1.1402
C4 C 0.5931(3) 0.2885(2) 1.1503(2)
C5 C 0.6325(3) 0.2192(2) 1.1114(3)
H3 H 0.7111 0.2032 1.1376
C6 C 0.5526(3) 0.1741(2) 1.0326(3)
H4 H 0.5766 0.1266 1.0079
C7 C 0.3523(3) 0.1516(2) 0.9046(3)
C8 C 0.7996(3) 0.2879(2) 1.3249(2)
C9 C 0.9156(3) 0.2906(2) 1.3197(3)
H5 H 0.9363 0.3233 1.2696
C10 C 1.0002(3) 0.2434(2) 1.3913(3)
H6 H 1.0781 0.2444 1.3889
C11 C 0.9690(3) 0.1945(2) 1.4666(3)
C12 C 0.8516(3) 0.1913(2) 1.4681(3)
H7 H 0.8303 0.1582 1.5173
C13 C 0.7664(3) 0.2372(2) 1.3966(3)
H8 H 0.6877 0.2342 1.3964
C14 C 1.0613(3) 0.1481(2) 1.5488(3)
C15 C 0.0024(4) -0.0441(3) 0.7605(4)
H9 H -0.0452 -0.0305 0.6919
C16 C 0.1469(4) -0.0466(3) 0.9071(4)
H10 H 0.2193 -0.0366 0.9578
C17 C 0.0656(4) -0.0997(3) 0.9176(4)
H11 H 0.0694 -0.1305 0.9785
C18 C -0.1250(4) -0.1562(3) 0.7951(4)
H12 H -0.0947 -0.2105 0.8036
H13 H -0.1692 -0.1490 0.7197
C19 C -0.2083(4) -0.1461(3) 0.8634(4)
H14 H -0.1627 -0.1285 0.9348
H15 H -0.2413 -0.1981 0.8715
C20 C -0.3100(4) -0.0876(3) 0.8208(4)
H16 H -0.3415 -0.0717 0.8793
H17 H -0.2812 -0.0400 0.7935
C21 C -0.4044(4) -0.1247(3) 0.7337(5)
H18 H -0.4305 -0.1730 0.7618
H19 H -0.3712 -0.1406 0.6762
C22 C -0.5696(4) -0.0313(2) 0.7413(3)
H20 H -0.5465 -0.0269 0.8163
C23 C -0.6658(4) -0.0174(3) 0.5745(3)
H21 H -0.7226 -0.0016 0.5116
C24 C -0.5711(5) -0.0639(3) 0.5789(4)
H22 H -0.5508 -0.0858 0.5205
N1 N 0.1046(3) -0.0095(2) 0.8083(3)
N2 N -0.0246(3) -0.1005(2) 0.8216(3)
N3 N -0.5105(3) -0.07261(19) 0.6860(3)
N4 N -0.6648(3) 0.00269(19) 0.6773(2)
O1 O 0.2744(3) 0.1878(2) 0.8324(2)
O2 O 0.3643(3) 0.07710(17) 0.9078(3)
O3 O 1.0339(3) 0.1234(2) 1.6297(2)
O4 O 1.1596(3) 0.1383(2) 1.5365(4)
O5 O 0.7491(3) 0.40219(18) 1.1824(2)
O6 O 0.6283(2) 0.38805(17) 1.3099(2)
Cd1_2 Cd -0.79453(2) 0.075147(15) 0.732297(19)
Cd1_3 Cd 1.20547(2) 0.075147(15) 1.732297(19)
C14_2 C 0.0613(3) 0.1481(2) 0.5488(3)
N4_2 N 0.3352(3) 0.00269(19) 0.6773(2)
O3_2 O 0.0339(3) 0.1234(2) 0.6297(2)
O4_2 O 0.1596(3) 0.1383(2) 0.5365(4)
loop_
_geom_bond_atom_site_label_1
_geom_bond_atom_site_label_2
_geom_bond_site_symmetry_1
_geom_bond_site_symmetry_2
Cd1 N1 1_555 1_555
S1 C4 1_555 1_555
C1 C2 1_555 1_555
C2 H1 1_555 1_555
C3 C2 1_555 1_555
H2 C3 1_555 1_555
C4 C3 1_555 1_555
C5 C4 1_555 1_555
H3 C5 1_555 1_555
C6 C1 1_555 1_555
H4 C6 1_555 1_555
C7 C1 1_555 1_555
C8 S1 1_555 1_555
C9 C8 1_555 1_555
H5 C9 1_555 1_555
C10 C9 1_555 1_555
H6 C10 1_555 1_555
C11 C10 1_555 1_555
C12 C11 1_555 1_555
H7 C12 1_555 1_555
C13 C8 1_555 1_555
H8 C13 1_555 1_555
C14 C11 1_555 1_555
C15 H9 1_555 1_555
C16 H10 1_555 1_555
C17 C16 1_555 1_555
H11 C17 1_555 1_555
C18 H12 1_555 1_555
H13 C18 1_555 1_555
C19 C18 1_555 1_555
H14 C19 1_555 1_555
H15 C19 1_555 1_555
C20 C19 1_555 1_555
H16 C20 1_555 1_555
H17 C20 1_555 1_555
C21 C20 1_555 1_555
H18 C21 1_555 1_555
H19 C21 1_555 1_555
C22 H20 1_555 1_555
C23 H21 1_555 1_555
C24 C23 1_555 1_555
H22 C24 1_555 1_555
N1 C15 1_555 1_555
N2 C15 1_555 1_555
N3 C21 1_555 1_555
N4 C22 1_555 1_555
O1 Cd1 1_555 1_555
O2 Cd1 1_555 1_555
O3 C14 1_555 1_555
O4 C14 1_555 1_555
O5 S1 1_555 1_555
O6 S1 1_555 1_555
Cd1_2 N4 1_555 1_555
Cd1_3 O3 1_555 1_555
C14_2 O3_2 1_555 1_555
N4_2 Cd1 1_555 1_555
O3_2 Cd1 1_555 1_555
O4_2 Cd1 1_555 1_555
C5 C6 1_555 1_555
C7 O1 1_555 1_555
C7 O2 1_555 1_555
C12 C13 1_555 1_555
C16 N1 1_555 1_555
C17 N2 1_555 1_555
C18 N2 1_555 1_555
C22 N3 1_555 1_555
C23 N4 1_555 1_555
C24 N3 1_555 1_555
O4 Cd1_3 1_555 1_555
C14_2 O4_2 1_555 1_555

#END
