
#######################################################################
#
#                 Cambridge Crystallographic Data Centre
#                                CCDC 
#
#######################################################################
#
# If this CIF has been generated from an entry in the Cambridge 
# Structural Database, then it will include bibliographic, chemical, 
# crystal, experimental, refinement or atomic coordinate data resulting 
# from the CCDC's data processing and validation procedures.
#
#######################################################################

data_IBUXAG
_symmetry_cell_setting           monoclinic
_symmetry_space_group_name_H-M   'C 2/c'
_symmetry_Int_Tables_number      15
_space_group_name_Hall           '-C 2yn'
loop_
_symmetry_equiv_pos_site_id
_symmetry_equiv_pos_as_xyz
1 x,y,z
2 -x,y,1/2-z
3 1/2+x,1/2+y,z
4 1/2-x,1/2+y,1/2-z
5 -x,-y,-z
6 x,-y,1/2+z
7 1/2-x,1/2-y,-z
8 1/2+x,1/2-y,1/2+z
_cell_length_a                   24.122(3)
_cell_length_b                   12.7390(14)
_cell_length_c                   20.106(2)
_cell_angle_alpha                90
_cell_angle_beta                 108.8320(10)
_cell_angle_gamma                90
_cell_volume                     5847.64
loop_
_atom_site_label
_atom_site_type_symbol
_atom_site_fract_x
_atom_site_fract_y
_atom_site_fract_z
Zn1 Zn 0.074849(11) 0.74905(2) 0.495849(13)
S1 S 0.12749(4) 0.60281(6) 0.92321(3)
C1 C 0.07938(13) 0.6268(3) 0.71332(15)
H1 H 0.0446 0.6220 0.6759
C2 C 0.07872(14) 0.6127(3) 0.78145(16)
H2 H 0.0437 0.5982 0.7896
C3 C 0.12962(12) 0.6200(2) 0.83646(13)
C4 C 0.18143(13) 0.6389(3) 0.82402(15)
H3 H 0.2162 0.6430 0.8615
C5 C 0.18211(12) 0.6519(3) 0.75629(14)
H4 H 0.2175 0.6633 0.7483
C6 C 0.13108(11) 0.64805(19) 0.70037(13)
C7 C 0.13062(13) 0.6706(2) 0.62673(13)
C8 C 0.12348(13) 0.7322(2) 0.95370(14)
C9 C 0.17145(15) 0.7751(3) 1.0010(2)
H5 H 0.2062 0.7372 1.0175
C10 C 0.16806(13) 0.8762(3) 1.02442(18)
H6 H 0.2008 0.9057 1.0573
C11 C 0.11781(10) 0.9339(2) 1.00057(12)
C12 C 0.06922(12) 0.8876(2) 0.95464(18)
H7 H 0.0342 0.9247 0.9392
C13 C 0.07176(14) 0.7869(3) 0.93110(19)
H8 H 0.0385 0.7560 0.9000
C14 C 0.11671(11) 1.0458(2) 1.02368(12)
C15 C -0.03946(11) 0.6355(2) 0.44462(13)
H9 H -0.0211 0.5915 0.4821
C16 C -0.09461(10) 0.6093(2) 0.40137(12)
H10 H -0.1131 0.5493 0.4101
C17 C -0.12249(10) 0.67339(19) 0.34458(12)
C18 C -0.09424(12) 0.7644(2) 0.33681(14)
H11 H -0.1122 0.8112 0.3008
C19 C -0.03921(11) 0.7856(2) 0.38269(14)
H12 H -0.0208 0.8474 0.3768
C20 C -0.18054(10) 0.6436(2) 0.29624(12)
C21 C -0.20273(10) 0.6454(2) 0.22370(13)
C22 C -0.17462(10) 0.6651(2) 0.17037(12)
C23 C -0.11487(11) 0.6545(2) 0.18598(13)
H13 H -0.0920 0.6336 0.2308
C24 C -0.08900(11) 0.6746(2) 0.13591(13)
H14 H -0.0485 0.6684 0.1484
C25 C -0.17629(13) 0.7050(3) 0.05397(15)
H15 H -0.1984 0.7189 0.0076
C26 C -0.20550(12) 0.6880(3) 0.10165(15)
H16 H -0.2462 0.6920 0.0873
C27 C -0.26888(10) 0.5884(2) 0.26855(13)
C28 C -0.32411(11) 0.5476(2) 0.27531(14)
C29 C -0.32225(13) 0.4943(3) 0.33588(16)
H17 H -0.2869 0.4840 0.3716
C30 C -0.37353(15) 0.4570(3) 0.34214(18)
H18 H -0.3716 0.4201 0.3827
C31 C -0.42708(12) 0.5209(3) 0.23646(18)
H19 H -0.4632 0.5302 0.2019
C32 C -0.37799(11) 0.5613(2) 0.22415(16)
H20 H -0.3811 0.5967 0.1826
N1 N -0.01104(9) 0.72149(17) 0.43516(10)
N2 N -0.11867(9) 0.70255(18) 0.07044(10)
N3 N -0.25943(9) 0.61105(18) 0.20772(11)
N4 N -0.22214(9) 0.60724(18) 0.32378(11)
N5 N -0.42582(11) 0.4698(2) 0.29433(16)
O1 O 0.07932(8) 0.68292(16) 0.58240(9)
O2 O 0.17652(9) 0.67797(18) 0.61377(11)
O3 O 0.15834(9) 1.08235(18) 1.07037(12)
O4 O 0.07199(8) 1.09873(15) 0.98965(10)
O5 O 0.07281(11) 0.55107(16) 0.91783(11)
O6 O 0.18221(11) 0.55810(18) 0.96470(10)
H21 H -0.2805(12) 0.602(3) 0.1628(7)
Zn1A Zn -0.074849(11) 0.74905(2) 0.004151(13)
Zn1E Zn 0.074849(11) 1.25095(2) 0.995849(13)
N2A N 0.11867(9) 0.70255(18) 0.42956(10)
O4E O 0.07199(8) 0.90127(15) 0.48965(10)
loop_
_geom_bond_atom_site_label_1
_geom_bond_atom_site_label_2
_geom_bond_site_symmetry_1
_geom_bond_site_symmetry_2
Zn1 N1 1_555 1_555
S1 C3 1_555 1_555
C1 H1 1_555 1_555
C2 C1 1_555 1_555
H2 C2 1_555 1_555
C3 C2 1_555 1_555
C4 C3 1_555 1_555
H3 C4 1_555 1_555
C5 C4 1_555 1_555
H4 C5 1_555 1_555
C6 C1 1_555 1_555
C7 C6 1_555 1_555
C8 S1 1_555 1_555
C9 C8 1_555 1_555
H5 C9 1_555 1_555
C10 C9 1_555 1_555
H6 C10 1_555 1_555
C11 C10 1_555 1_555
C12 C11 1_555 1_555
H7 C12 1_555 1_555
C13 C8 1_555 1_555
H8 C13 1_555 1_555
C14 C11 1_555 1_555
C15 H9 1_555 1_555
C16 C15 1_555 1_555
H10 C16 1_555 1_555
C17 C16 1_555 1_555
C18 C17 1_555 1_555
H11 C18 1_555 1_555
C19 C18 1_555 1_555
H12 C19 1_555 1_555
C20 C17 1_555 1_555
C21 C20 1_555 1_555
C22 C21 1_555 1_555
C23 C22 1_555 1_555
H13 C23 1_555 1_555
C24 C23 1_555 1_555
H14 C24 1_555 1_555
C25 H15 1_555 1_555
C26 C22 1_555 1_555
H16 C26 1_555 1_555
C27 C28 1_555 1_555
C28 C29 1_555 1_555
C29 H17 1_555 1_555
C30 C29 1_555 1_555
H18 C30 1_555 1_555
C31 H19 1_555 1_555
C32 C28 1_555 1_555
H20 C32 1_555 1_555
N1 C15 1_555 1_555
N2 C24 1_555 1_555
N3 C21 1_555 1_555
N4 C20 1_555 1_555
N5 C30 1_555 1_555
O1 Zn1 1_555 1_555
O2 C7 1_555 1_555
O3 C14 1_555 1_555
O4 C14 1_555 1_555
O5 S1 1_555 1_555
O6 S1 1_555 1_555
H21 N3 1_555 1_555
Zn1A N2 1_555 1_555
Zn1E O4 1_555 1_555
N2A Zn1 1_555 1_555
O4E Zn1 1_555 1_555
C5 C6 1_555 1_555
C7 O1 1_555 1_555
C12 C13 1_555 1_555
C19 N1 1_555 1_555
C25 C26 1_555 1_555
C25 N2 1_555 1_555
C27 N3 1_555 1_555
C27 N4 1_555 1_555
C31 C32 1_555 1_555
C31 N5 1_555 1_555

#END
