
#######################################################################
#
#                 Cambridge Crystallographic Data Centre
#                                CCDC 
#
#######################################################################
#
# If this CIF has been generated from an entry in the Cambridge 
# Structural Database, then it will include bibliographic, chemical, 
# crystal, experimental, refinement or atomic coordinate data resulting 
# from the CCDC's data processing and validation procedures.
#
#######################################################################

data_IBUYUB
_symmetry_cell_setting           monoclinic
_symmetry_space_group_name_H-M   'P 21/n'
_symmetry_Int_Tables_number      14
_space_group_name_Hall           '-P 2yn'
loop_
_symmetry_equiv_pos_site_id
_symmetry_equiv_pos_as_xyz
1 x,y,z
2 1/2-x,1/2+y,1/2-z
3 -x,-y,-z
4 1/2+x,1/2-y,1/2+z
_cell_length_a                   12.891(4)
_cell_length_b                   13.631(4)
_cell_length_c                   19.268(6)
_cell_angle_alpha                90
_cell_angle_beta                 102.985(4)
_cell_angle_gamma                90
_cell_volume                     3299.14
loop_
_atom_site_label
_atom_site_type_symbol
_atom_site_fract_x
_atom_site_fract_y
_atom_site_fract_z
O19 O -0.4304(8) -0.0259(6) 0.1448(5)
O24 O -0.5360(10) -0.5564(7) 0.0914(6)
O25 O -0.3657(11) -0.5402(8) -0.0104(5)
O26 O -0.2225(8) -0.5025(7) 0.1265(5)
C1 C -0.3629(13) 0.2601(10) 0.0817(8)
H1 H -0.3509 0.2723 0.0366
C2 C -0.3845(13) 0.1632(9) 0.1001(9)
H2 H -0.3820 0.1107 0.0697
C3 C -0.4094(13) 0.1504(10) 0.1650(7)
C4 C -0.3990(16) 0.2246(11) 0.2109(8)
H3 H -0.4074 0.2149 0.2571
C5 C -0.3753(17) 0.3170(12) 0.1882(9)
H4 H -0.3710 0.3693 0.2198
C6 C -0.3945(17) -0.3126(11) 0.0748(11)
H5 H -0.3733 -0.3228 0.0323
C7 C -0.4113(17) -0.2147(10) 0.0970(10)
H6 H -0.3974 -0.1616 0.0701
C8 C -0.4472(14) -0.1990(10) 0.1568(8)
C9 C -0.4678(15) -0.2769(11) 0.1928(8)
H7 H -0.4976 -0.2689 0.2321
C10 C -0.4444(16) -0.3715(12) 0.1714(9)
H8 H -0.4547 -0.4247 0.1993
C11 C -0.4610(13) -0.1011(10) 0.1810(7)
C12 C -0.4380(12) 0.0545(11) 0.1856(6)
C13 C -0.8812(15) -0.5020(14) 0.1251(9)
H9 H -0.9388 -0.4599 0.1217
C14 C -0.8003(17) -0.4819(11) 0.0857(9)
H10 H -0.8075 -0.4299 0.0537
C15 C -0.7139(15) -0.5411(10) 0.0968(8)
C16 C -0.7059(14) -0.6189(10) 0.1405(8)
H11 H -0.6468 -0.6600 0.1473
C17 C -0.7893(17) -0.6371(12) 0.1760(8)
H12 H -0.7851 -0.6899 0.2070
C18 C -0.6237(15) -0.5142(12) 0.0600(9)
Cu1 Cu -0.38179(19) -0.52659(12) 0.09595(10)
N1 N -0.3592(12) 0.3339(8) 0.1263(7)
N2 N -0.4088(11) -0.3879(9) 0.1140(7)
N3 N -0.4908(11) -0.0714(8) 0.2373(6)
N4 N -0.4764(11) 0.0307(8) 0.2393(6)
N5 N -0.8727(13) -0.5785(10) 0.1646(7)
H13 H -0.9355 -0.5929 0.1848
O19B O -0.5696(8) 0.0259(6) -0.1448(5)
O24B O -0.4640(10) -0.4436(7) -0.0914(6)
O25B O -0.6343(11) -0.4598(8) 0.0104(5)
O26B O -0.7775(8) -0.4975(7) -0.1265(5)
C1B C -0.6371(13) -0.2601(10) -0.0817(8)
H1B H -0.6491 -0.2723 -0.0366
C2B C -0.6155(13) -0.1632(9) -0.1001(9)
H2B H -0.6180 -0.1107 -0.0697
C3B C -0.5906(13) -0.1504(10) -0.1650(7)
C4B C -0.6010(16) -0.2246(11) -0.2109(8)
H3B H -0.5926 -0.2149 -0.2571
C5B C -0.6247(17) -0.3170(12) -0.1882(9)
H4B H -0.6290 -0.3693 -0.2198
C6B C -0.6055(17) 0.3126(11) -0.0748(11)
H5B H -0.6267 0.3228 -0.0323
C7B C -0.5887(17) 0.2147(10) -0.0970(10)
H6B H -0.6026 0.1616 -0.0701
C8B C -0.5528(14) 0.1990(10) -0.1568(8)
C9B C -0.5322(15) 0.2769(11) -0.1928(8)
H7B H -0.5024 0.2689 -0.2321
C10B C -0.5556(16) 0.3715(12) -0.1714(9)
H8B H -0.5453 0.4247 -0.1993
C11B C -0.5390(13) 0.1011(10) -0.1810(7)
C12B C -0.5620(12) -0.0545(11) -0.1856(6)
C13B C -0.1188(15) -0.4980(14) -0.1251(9)
H9B H -0.0612 -0.5401 -0.1217
C14B C -0.1997(17) -0.5181(11) -0.0857(9)
H10B H -0.1925 -0.5701 -0.0537
C15B C -0.2861(15) -0.4589(10) -0.0968(8)
C16B C -0.2941(14) -0.3811(10) -0.1405(8)
H11B H -0.3532 -0.3400 -0.1473
C17B C -0.2107(17) -0.3629(12) -0.1760(8)
H12B H -0.2149 -0.3101 -0.2070
C18B C -0.3763(15) -0.4858(12) -0.0600(9)
Cu1B Cu -0.61821(19) 0.52659(12) -0.09595(10)
Cu1_2 Cu -0.38179(19) 0.47341(12) 0.09595(10)
Cu1B_2 Cu -0.61821(19) -0.47341(12) -0.09595(10)
N1_2 N -0.3592(12) -0.6661(8) 0.1263(7)
N1B N -0.6408(12) -0.3339(8) -0.1263(7)
N2B N -0.5912(11) 0.3879(9) -0.1140(7)
N2B_2 N -0.5912(11) -0.6121(9) -0.1140(7)
N3B N -0.5092(11) 0.0714(8) -0.2373(6)
N4B N -0.5236(11) -0.0307(8) -0.2393(6)
N5B N -0.1273(13) -0.4215(10) -0.1646(7)
H13B H -0.0645 -0.4071 -0.1848
Si1 Si 0.0000 0.0000 -1.0000
W1 W 0.19617(6) -0.15640(4) -0.89956(3)
W2 W 0.26835(6) 0.07091(5) -0.96167(3)
W3 W 0.12990(6) 0.06494(5) -0.82456(3)
W4 W -0.07418(6) -0.22771(5) -0.93685(3)
W5 W 0.06576(6) -0.22166(5) -1.07446(3)
W6 W -0.13950(5) -0.00591(5) -0.86333(3)
O1 O 0.1729(12) -0.0672(7) -0.8294(5)
O2 O -0.1099(10) -0.3355(7) -0.9070(5)
O3 O 0.0976(9) -0.3287(6) -1.1099(5)
O4 O -0.2040(9) -0.0067(8) -0.7980(5)
O5 O 0.2303(11) 0.1056(6) -0.8761(5)
O6 O 0.2882(9) -0.2246(7) -0.8528(5)
O7 O 0.2829(12) -0.0617(7) -0.9328(6)
O8 O 0.1919(10) 0.0938(7) -0.7428(5)
O9 O 0.2019(10) 0.1891(7) -1.0025(5)
O10 O -0.1070(10) -0.1433(7) -0.8676(5)
O11 O 0.0528(10) 0.1818(7) -0.8587(7)
O12 O 0.2541(10) 0.0254(7) -1.0580(5)
O13 O 0.0691(10) -0.2201(11) -0.8895(5)
O14 O -0.0266(10) -0.2679(10) -1.0188(6)
O15 O 0.3930(10) 0.1057(8) -0.9449(6)
O16 O 0.0007(10) 0.0128(8) -0.8112(7)
O17 O 0.1739(10) -0.2149(10) -0.9911(5)
O18 O 0.1436(10) -0.1320(8) -1.1162(7)
O20 O 0.0329(14) -0.1173(11) -0.9810(8)
O21 O -0.1175(15) 0.0019(13) -1.0562(8)
O22 O -0.0158(15) 0.0542(11) -0.9235(8)
O23 O 0.0900(15) 0.0568(11) -1.0262(8)
W1B W -0.19617(6) 0.15640(4) -1.10044(3)
W2B W -0.26835(6) -0.07091(5) -1.03833(3)
W3B W -0.12990(6) -0.06494(5) -1.17544(3)
W4B W 0.07418(6) 0.22771(5) -1.06315(3)
W5B W -0.06576(6) 0.22166(5) -0.92554(3)
W6B W 0.13950(5) 0.00591(5) -1.13667(3)
O1B O -0.1729(12) 0.0672(7) -1.1706(5)
O2B O 0.1099(10) 0.3355(7) -1.0930(5)
O3B O -0.0976(9) 0.3287(6) -0.8901(5)
O4B O 0.2040(9) 0.0067(8) -1.2020(5)
O5B O -0.2303(11) -0.1056(6) -1.1239(5)
O6B O -0.2882(9) 0.2246(7) -1.1472(5)
O7B O -0.2829(12) 0.0617(7) -1.0672(6)
O8B O -0.1919(10) -0.0938(7) -1.2572(5)
O9B O -0.2019(10) -0.1891(7) -0.9975(5)
O10B O 0.1070(10) 0.1433(7) -1.1324(5)
O11B O -0.0528(10) -0.1818(7) -1.1413(7)
O12B O -0.2541(10) -0.0254(7) -0.9420(5)
O13B O -0.0691(10) 0.2201(11) -1.1105(5)
O14B O 0.0266(10) 0.2679(10) -0.9812(6)
O15B O -0.3930(10) -0.1057(8) -1.0551(6)
O16B O -0.0007(10) -0.0128(8) -1.1888(7)
O17B O -0.1739(10) 0.2149(10) -1.0089(5)
O18B O -0.1436(10) 0.1320(8) -0.8838(7)
O20B O -0.0329(14) 0.1173(11) -1.0190(8)
O21B O 0.1175(15) -0.0019(13) -0.9438(8)
O22B O 0.0158(15) -0.0542(11) -1.0765(8)
O23B O -0.0900(15) -0.0568(11) -0.9738(8)
loop_
_geom_bond_atom_site_label_1
_geom_bond_atom_site_label_2
_geom_bond_site_symmetry_1
_geom_bond_site_symmetry_2
Si1 O20 1_555 1_555
W1 O1 1_555 1_555
W2 O5 1_555 1_555
W3 O1 1_555 1_555
W4 O2 1_555 1_555
W5 O3 1_555 1_555
W6 O4 1_555 1_555
O5 W3 1_555 1_555
O6 W1 1_555 1_555
O7 W1 1_555 1_555
O8 W3 1_555 1_555
O9 W2 1_555 1_555
O10 W4 1_555 1_555
O11 W3 1_555 1_555
O12 W2 1_555 1_555
O13 W1 1_555 1_555
O14 W4 1_555 1_555
O15 W2 1_555 1_555
O16 W3 1_555 1_555
O17 W1 1_555 1_555
O18 W5 1_555 1_555
O19 C11 1_555 1_555
O20 W1 1_555 1_555
O21 Si1 1_555 1_555
O22 Si1 1_555 1_555
O23 Si1 1_555 1_555
O24 C18 1_555 1_555
O25 Cu1 1_555 1_555
O26 Cu1 1_555 1_555
C1 H1 1_555 1_555
C2 C1 1_555 1_555
H2 C2 1_555 1_555
C3 C2 1_555 1_555
C4 C3 1_555 1_555
H3 C4 1_555 1_555
C5 C4 1_555 1_555
H4 C5 1_555 1_555
C6 H5 1_555 1_555
C7 C6 1_555 1_555
H6 C7 1_555 1_555
C8 C7 1_555 1_555
C9 C8 1_555 1_555
H7 C9 1_555 1_555
C10 C9 1_555 1_555
H8 C10 1_555 1_555
C11 C8 1_555 1_555
C12 O19 1_555 1_555
C13 H9 1_555 1_555
C14 C13 1_555 1_555
H10 C14 1_555 1_555
C15 C14 1_555 1_555
C16 C15 1_555 1_555
H11 C16 1_555 1_555
C17 C16 1_555 1_555
H12 C17 1_555 1_555
C18 C15 1_555 1_555
Cu1 O24 1_555 1_555
N1 C1 1_555 1_555
N2 C6 1_555 1_555
N3 C11 1_555 1_555
N4 C12 1_555 1_555
N5 C13 1_555 1_555
H13 N5 1_555 1_555
W1B O21 1_555 1_555
W2B O21 1_555 1_555
W3B O1B 1_555 1_555
W4B O9 1_555 1_555
W5B O11 1_555 1_555
W6B O12 1_555 1_555
O1B W1B 1_555 1_555
O2B W4B 1_555 1_555
O3B W5B 1_555 1_555
O4B W6B 1_555 1_555
O5B W2B 1_555 1_555
O6B W1B 1_555 1_555
O7B W1B 1_555 1_555
O8B W3B 1_555 1_555
O9B W4 1_555 1_555
O10B W4B 1_555 1_555
O11B W5 1_555 1_555
O12B W6 1_555 1_555
O13B W1B 1_555 1_555
O14B W4B 1_555 1_555
O15B W2B 1_555 1_555
O16B W3B 1_555 1_555
O17B W1B 1_555 1_555
O18B W6 1_555 1_555
O19B C11B 1_555 1_555
O20B Si1 1_555 1_555
O21B Si1 1_555 1_555
O22B Si1 1_555 1_555
O23B Si1 1_555 1_555
O24B C18B 1_555 1_555
O25B C18 1_555 1_555
O26B Cu1B_2 1_555 1_555
C1B H1B 1_555 1_555
C2B C1B 1_555 1_555
H2B C2B 1_555 1_555
C3B C2B 1_555 1_555
C4B C3B 1_555 1_555
H3B C4B 1_555 1_555
C5B C4B 1_555 1_555
H4B C5B 1_555 1_555
C6B H5B 1_555 1_555
C7B C6B 1_555 1_555
H6B C7B 1_555 1_555
C8B C7B 1_555 1_555
C9B C8B 1_555 1_555
H7B C9B 1_555 1_555
C10B C9B 1_555 1_555
H8B C10B 1_555 1_555
C11B C8B 1_555 1_555
C12B O19B 1_555 1_555
C13B H9B 1_555 1_555
C14B C13B 1_555 1_555
H10B C14B 1_555 1_555
C15B C14B 1_555 1_555
C16B C15B 1_555 1_555
H11B C16B 1_555 1_555
C17B C16B 1_555 1_555
H12B C17B 1_555 1_555
C18B O25 1_555 1_555
Cu1B N2B 1_555 1_555
Cu1_2 N1 1_555 1_555
Cu1B_2 O24B 1_555 1_555
N1_2 Cu1 1_555 1_555
N1B C1B 1_555 1_555
N2B C6B 1_555 1_555
N2B_2 Cu1B_2 1_555 1_555
N3B C11B 1_555 1_555
N4B C12B 1_555 1_555
N5B C13B 1_555 1_555
H13B N5B 1_555 1_555
W1 O21B 1_555 1_555
W2 O7 1_555 1_555
W2 O23 1_555 1_555
W2 O21B 1_555 1_555
W3 O22 1_555 1_555
W4 O13 1_555 1_555
W4 O20 1_555 1_555
W5 O14 1_555 1_555
W5 O17 1_555 1_555
W5 O20 1_555 1_555
W5 O22B 1_555 1_555
W6 O10 1_555 1_555
W6 O16 1_555 1_555
W6 O22 1_555 1_555
O18 W6B 1_555 1_555
O21 O23B 1_555 1_555
O22 W5B 1_555 1_555
O23 O21B 1_555 1_555
C3 C12 1_555 1_555
C5 N1 1_555 1_555
C10 N2 1_555 1_555
C17 N5 1_555 1_555
Cu1 N2 1_555 1_555
N3 N4 1_555 1_555
W1B O20B 1_555 1_555
W2B O7B 1_555 1_555
W2B O9B 1_555 1_555
W2B O12B 1_555 1_555
W2B O23B 1_555 1_555
W3B O5B 1_555 1_555
W3B O11B 1_555 1_555
W3B O22B 1_555 1_555
W4B O13B 1_555 1_555
W4B O20B 1_555 1_555
W5B O14B 1_555 1_555
W5B O17B 1_555 1_555
W5B O18B 1_555 1_555
W5B O20B 1_555 1_555
W6B O10B 1_555 1_555
W6B O16B 1_555 1_555
W6B O22B 1_555 1_555
O25B Cu1B_2 1_555 1_555
C3B C12B 1_555 1_555
C5B N1B 1_555 1_555
C10B N2B 1_555 1_555
C15B C18B 1_555 1_555
C17B N5B 1_555 1_555
Cu1B_2 N1B 1_555 1_555
N3B N4B 1_555 1_555

#END
