
#######################################################################
#
#                 Cambridge Crystallographic Data Centre
#                                CCDC 
#
#######################################################################
#
# If this CIF has been generated from an entry in the Cambridge 
# Structural Database, then it will include bibliographic, chemical, 
# crystal, experimental, refinement or atomic coordinate data resulting 
# from the CCDC's data processing and validation procedures.
#
#######################################################################

data_IBUYEL
_symmetry_cell_setting           monoclinic
_symmetry_space_group_name_H-M   'P 21/c'
_symmetry_Int_Tables_number      14
_space_group_name_Hall           '-P 2ybc'
loop_
_symmetry_equiv_pos_site_id
_symmetry_equiv_pos_as_xyz
1 x,y,z
2 -x,1/2+y,1/2-z
3 -x,-y,-z
4 x,1/2-y,1/2+z
_cell_length_a                   11.3128(8)
_cell_length_b                   29.2377(18)
_cell_length_c                   10.1543(5)
_cell_angle_alpha                90
_cell_angle_beta                 109.132(6)
_cell_angle_gamma                90
_cell_volume                     3173.13
loop_
_atom_site_label
_atom_site_type_symbol
_atom_site_fract_x
_atom_site_fract_y
_atom_site_fract_z
Mn1 Mn 0.89731(4) 0.524202(16) 0.63699(4)
C1 C 0.5224(3) 0.21700(10) 0.6897(3)
C2 C 0.5709(3) 0.21361(10) 0.5810(3)
H1 H 0.5468 0.2344 0.5077
C3 C 0.6543(3) 0.17965(11) 0.5819(3)
H2 H 0.6884 0.1782 0.5102
C4 C 0.6887(3) 0.14759(10) 0.6869(3)
C5 C 0.6404(3) 0.15041(10) 0.7938(3)
H3 H 0.6630 0.1289 0.8652
C6 C 0.5581(3) 0.18514(10) 0.7960(3)
H4 H 0.5265 0.1871 0.8697
C7 C 0.7853(3) 0.09425(11) 0.5616(3)
H5 H 0.7382 0.1022 0.4708
C8 C 0.8786(3) 0.06358(12) 0.6004(3)
H6 H 0.9068 0.0464 0.5396
C9 C 0.8588(3) 0.09069(10) 0.7874(3)
H7 H 0.8693 0.0962 0.8808
C10 C 0.3323(3) 0.24659(11) 0.7301(3)
C11 C 0.2706(3) 0.20472(11) 0.7059(3)
H8 H 0.2969 0.1821 0.6574
C12 C 0.1707(3) 0.19619(11) 0.7526(3)
H9 H 0.1307 0.1679 0.7363
C13 C 0.1866(3) 0.27152(12) 0.8428(3)
H10 H 0.1572 0.2943 0.8879
C14 C 0.1310(3) 0.22963(13) 0.8232(3)
C15 C 0.2866(3) 0.28048(11) 0.7961(3)
H11 H 0.3232 0.3093 0.8092
C16 C -0.1085(4) 0.22648(17) 0.9811(4)
H12 H -0.1724 0.2385 1.0094
C17 C 0.0248(3) 0.18091(14) 0.9503(4)
H13 H 0.0740 0.1552 0.9535
C18 C -0.0493(3) 0.25011(14) 0.9033(4)
H14 H -0.0633 0.2801 0.8718
C19 C 0.4761(3) 0.29817(11) 0.6608(3)
C20 C 0.6006(3) 0.31085(11) 0.7085(3)
H15 H 0.6596 0.2909 0.7650
C21 C 0.6388(3) 0.35246(11) 0.6736(3)
H16 H 0.7232 0.3601 0.7049
C22 C 0.5515(3) 0.38294(10) 0.5920(2)
C23 C 0.4261(3) 0.37142(11) 0.5457(2)
H17 H 0.3670 0.3920 0.4922
C24 C 0.3889(3) 0.32898(10) 0.5797(2)
H18 H 0.3046 0.3211 0.5477
C25 C 0.5416(3) 0.44904(11) 0.4299(3)
H19 H 0.4653 0.4431 0.3613
C26 C 0.6228(3) 0.48284(11) 0.4295(3)
H20 H 0.6115 0.5042 0.3584
C27 C 0.7020(3) 0.44650(11) 0.6172(3)
H21 H 0.7563 0.4373 0.7036
C28 C 0.8137(3) 0.56523(10) 0.2070(2)
C29 C 0.7031(3) 0.58821(10) 0.1844(3)
H22 H 0.6777 0.5959 0.2599
C30 C 0.6289(3) 0.60018(11) 0.0516(3)
H23 H 0.5542 0.6158 0.0377
C31 C 0.6665(3) 0.58868(10) -0.0603(3)
H24 H 0.6185 0.5977 -0.1497
C32 C 0.7746(3) 0.56400(10) -0.0410(2)
C33 C 0.8493(2) 0.55244(9) 0.0933(2)
H25 H 0.9231 0.5362 0.1072
C34 C 0.8940(3) 0.55262(10) 0.3529(2)
C35 C 0.8125(3) 0.54938(11) -0.1637(3)
N1 N 0.4398(2) 0.25376(9) 0.6907(2)
N2 N 0.5940(2) 0.42529(8) 0.5515(2)
N3 N 0.7237(2) 0.48123(9) 0.5482(2)
N4 N 0.0347(3) 0.21956(11) 0.8828(3)
N5 N -0.0616(3) 0.18305(13) 1.0115(3)
N6 N 0.7728(2) 0.11155(8) 0.6812(2)
N7 N 0.9266(2) 0.06140(8) 0.74411(19)
O1 O 0.77844(17) 0.57355(7) -0.27281(16)
O2 O 0.87581(17) 0.51343(7) -0.15360(15)
O3 O 1.00013(18) 0.53602(7) 0.37154(15)
O4 O 0.85010(17) 0.56104(7) 0.44853(15)
Mn1A Mn 1.10269(4) 0.024202(16) 0.86301(4)
Mn1_2 Mn 0.89731(4) 0.524202(16) -0.36301(4)
Mn1B Mn 1.10269(4) 0.475798(16) 0.36301(4)
N7A N 1.0734(2) 0.56140(8) 0.75589(19)
O1_2 O 0.77844(17) 0.57355(7) 0.72719(16)
O2_2 O 0.87581(17) 0.51343(7) 0.84640(15)
O3B O 0.99987(18) 0.46398(7) 0.62846(15)
O5 O 0.9422(3) 0.35988(11) 0.7688(3)
H26 H 0.900(3) 0.3700(15) 0.679(2)
H27 H 1.000(3) 0.3460(14) 0.743(4)
loop_
_geom_bond_atom_site_label_1
_geom_bond_atom_site_label_2
_geom_bond_site_symmetry_1
_geom_bond_site_symmetry_2
Mn1 N3 1_555 1_555
C1 C2 1_555 1_555
C2 H1 1_555 1_555
C3 C2 1_555 1_555
H2 C3 1_555 1_555
C4 C3 1_555 1_555
C5 C4 1_555 1_555
H3 C5 1_555 1_555
C6 C1 1_555 1_555
H4 C6 1_555 1_555
C7 H5 1_555 1_555
C8 C7 1_555 1_555
H6 C8 1_555 1_555
C9 H7 1_555 1_555
C10 C11 1_555 1_555
C11 H8 1_555 1_555
C12 C11 1_555 1_555
H9 C12 1_555 1_555
C13 H10 1_555 1_555
C14 C12 1_555 1_555
C15 C10 1_555 1_555
H11 C15 1_555 1_555
C16 H12 1_555 1_555
C17 H13 1_555 1_555
C18 C16 1_555 1_555
H14 C18 1_555 1_555
C19 C20 1_555 1_555
C20 H15 1_555 1_555
C21 C20 1_555 1_555
H16 C21 1_555 1_555
C22 C21 1_555 1_555
C23 C22 1_555 1_555
H17 C23 1_555 1_555
C24 C19 1_555 1_555
H18 C24 1_555 1_555
C25 H19 1_555 1_555
C26 C25 1_555 1_555
H20 C26 1_555 1_555
C27 H21 1_555 1_555
C28 C29 1_555 1_555
C29 H22 1_555 1_555
C30 C29 1_555 1_555
H23 C30 1_555 1_555
C31 C30 1_555 1_555
H24 C31 1_555 1_555
C32 C31 1_555 1_555
C33 C28 1_555 1_555
H25 C33 1_555 1_555
C34 C28 1_555 1_555
C35 C32 1_555 1_555
N1 C1 1_555 1_555
N2 C22 1_555 1_555
N3 C26 1_555 1_555
N4 C14 1_555 1_555
N5 C16 1_555 1_555
N6 C4 1_555 1_555
N7 C8 1_555 1_555
O1 C35 1_555 1_555
O2 C35 1_555 1_555
O3 C34 1_555 1_555
O4 Mn1 1_555 1_555
O5 H26 1_555 1_555
H27 O5 1_555 1_555
Mn1A N7 1_555 1_555
Mn1_2 O1 1_555 1_555
Mn1B O3 1_555 1_555
N7A Mn1 1_555 1_555
O1_2 Mn1 1_555 1_555
O2_2 Mn1 1_555 1_555
O3B Mn1 1_555 1_555
C5 C6 1_555 1_555
C7 N6 1_555 1_555
C9 N6 1_555 1_555
C9 N7 1_555 1_555
C10 N1 1_555 1_555
C13 C14 1_555 1_555
C13 C15 1_555 1_555
C17 N4 1_555 1_555
C17 N5 1_555 1_555
C18 N4 1_555 1_555
C19 N1 1_555 1_555
C23 C24 1_555 1_555
C25 N2 1_555 1_555
C27 N2 1_555 1_555
C27 N3 1_555 1_555
C32 C33 1_555 1_555
C34 O4 1_555 1_555
O2 Mn1_2 1_555 1_555

#END
