
#######################################################################
#
#                 Cambridge Crystallographic Data Centre
#                                CCDC 
#
#######################################################################
#
# If this CIF has been generated from an entry in the Cambridge 
# Structural Database, then it will include bibliographic, chemical, 
# crystal, experimental, refinement or atomic coordinate data resulting 
# from the CCDC's data processing and validation procedures.
#
#######################################################################

data_IBUZAI
_symmetry_cell_setting           triclinic
_symmetry_space_group_name_H-M   'P -1'
_symmetry_Int_Tables_number      2
_space_group_name_Hall           '-P 1'
loop_
_symmetry_equiv_pos_site_id
_symmetry_equiv_pos_as_xyz
1 x,y,z
2 -x,-y,-z
_cell_length_a                   11.861(4)
_cell_length_b                   13.626(4)
_cell_length_c                   17.618(6)
_cell_angle_alpha                106.194(5)
_cell_angle_beta                 97.216(5)
_cell_angle_gamma                91.492(5)
_cell_volume                     2707.17
loop_
_atom_site_label
_atom_site_type_symbol
_atom_site_fract_x
_atom_site_fract_y
_atom_site_fract_z
Cu1 Cu 0.0872(3) -0.3088(2) 0.88563(16)
Cu2 Cu 0.5318(2) -0.44560(19) 0.61623(16)
O23 O 0.5749(12) -0.9094(10) 0.7089(8)
O24 O 0.1936(12) -0.4633(9) 0.5069(8)
O25 O 0.1489(14) -0.7766(11) 0.9710(8)
C1 C 0.0545(18) -1.0949(16) 0.8910(13)
H1 H 0.0059 -1.1207 0.8433
C2 C 0.0874(18) -0.9907(16) 0.9150(13)
H2 H 0.0649 -0.9496 0.8823
C3 C 0.1532(19) -0.9499(17) 0.9869(13)
C4 C 0.182(2) -1.0141(16) 1.0297(13)
H3 H 0.2256 -0.9887 1.0797
C5 C 0.150(2) -1.1176(17) 1.0019(14)
H4 H 0.1725 -1.1597 1.0336
C6 C 0.187(2) -0.8429(16) 1.0097(13)
C7 C 0.2011(19) -0.6874(16) 1.0112(13)
C8 C 0.1697(18) -0.5929(15) 0.9894(12)
C9 C 0.0750(18) -0.5959(16) 0.9360(12)
H5 H 0.0234 -0.6527 0.9175
C10 C 0.0616(19) -0.5141(18) 0.9126(13)
H6 H 0.0031 -0.5207 0.8708
C11 C 0.207(2) -0.4189(18) 0.9928(14)
H7 H 0.2533 -0.3585 1.0126
C12 C 0.238(2) -0.4982(18) 1.0222(16)
H8 H 0.2996 -0.4914 1.0618
C13 C 0.024(2) -0.5261(16) 0.2667(14)
H9 H -0.0338 -0.4880 0.2518
C14 C 0.0865(19) -0.4910(15) 0.3421(13)
H10 H 0.0721 -0.4296 0.3778
C15 C 0.1692(18) -0.5499(15) 0.3619(12)
C16 C 0.1951(17) -0.6419(15) 0.3102(12)
H11 H 0.2538 -0.6802 0.3241
C17 C 0.127(2) -0.6720(15) 0.2369(13)
H12 H 0.1383 -0.7349 0.2017
C18 C 0.2380(19) -0.5134(15) 0.4430(13)
C19 C 0.2801(18) -0.4497(14) 0.5653(12)
C20 C 0.163(2) -0.277(2) 0.7385(17)
H13 H 0.1252 -0.2168 0.7517
C21 C 0.177(2) -0.3143(17) 0.6628(15)
H14 H 0.1390 -0.2904 0.6226
C22 C 0.257(2) -0.3977(19) 0.6465(15)
C23 C 0.301(2) -0.4378(19) 0.7074(15)
H15 H 0.3505 -0.4905 0.6984
C24 C 0.265(2) -0.391(2) 0.7917(16)
H16 H 0.2918 -0.4161 0.8341
C25 C 0.5048(18) -1.2345(16) 0.6244(13)
H17 H 0.4765 -1.2648 0.5710
C26 C 0.5244(18) -1.1296(15) 0.6494(13)
H18 H 0.5084 -1.0914 0.6135
C27 C 0.5675(19) -1.0814(15) 0.7275(13)
C28 C 0.5858(18) -1.1463(16) 0.7769(13)
H19 H 0.6151 -1.1194 0.8305
C29 C 0.5602(18) -1.2491(16) 0.7453(13)
H20 H 0.5699 -1.2897 0.7799
C30 C 0.599(2) -0.9713(18) 0.7553(15)
C31 C 0.5045(19) -0.6462(16) 0.6372(14)
H21 H 0.4451 -0.6526 0.5960
C32 C 0.535(2) -0.730(2) 0.6608(16)
H22 H 0.4997 -0.7933 0.6303
C33 C 0.611(2) -0.7305(17) 0.7248(15)
C34 C 0.664(2) -0.6323(17) 0.7646(14)
H23 H 0.7144 -0.6212 0.8113
C35 C 0.637(2) -0.5530(16) 0.7321(14)
H24 H 0.6794 -0.4911 0.7551
C36 C 0.625(2) -0.8166(17) 0.7541(13)
N1 N 0.6620(17) -0.9207(14) 0.8249(11)
N2 N 0.6792(19) -0.8206(13) 0.8241(12)
N3 N 0.5580(15) -0.5565(13) 0.6719(9)
N4 N 0.5235(14) -1.2947(12) 0.6708(10)
N5 N 0.199(2) -0.3191(16) 0.8018(13)
N6 N 0.3727(15) -0.4841(12) 0.5438(10)
N7 N 0.3524(16) -0.5291(11) 0.4609(9)
N8 N 0.0470(17) -0.6154(14) 0.2138(11)
N9 N 0.1196(16) -0.4192(13) 0.9394(10)
N10 N 0.2772(18) -0.6968(14) 1.0706(12)
N11 N 0.2667(17) -0.7967(15) 1.0733(11)
N12 N 0.0878(15) -1.1587(12) 0.9317(10)
Cu1A Cu -0.0872(3) -0.6912(2) 0.11437(16)
Cu1_2 Cu 0.0872(3) -1.3088(2) 0.88563(16)
Cu1_3 Cu 0.0872(3) 0.6912(2) 0.88563(16)
Cu2A Cu -0.5318(2) -0.55440(19) 0.38377(16)
Cu2_2 Cu 0.5318(2) -1.44560(19) 0.61623(16)
Cu2A_2 Cu 0.4682(2) -0.55440(19) 0.38377(16)
Cu2_3 Cu -0.4682(2) -0.44560(19) 0.61623(16)
Cu2_4 Cu 0.5318(2) 0.55440(19) 0.61623(16)
O23_2 O 0.5749(12) 0.0906(10) 0.7089(8)
O24A O -0.1936(12) -0.5367(9) 0.4931(8)
O25_2 O 0.1489(14) 0.2234(11) 0.9710(8)
C1_2 C 0.0545(18) -0.0949(16) 0.8910(13)
H1_2 H 0.0059 -0.1207 0.8433
C2_2 C 0.0874(18) 0.0093(16) 0.9150(13)
H2_2 H 0.0649 0.0504 0.8823
C3_2 C 0.1532(19) 0.0501(17) 0.9869(13)
C4_2 C 0.182(2) -0.0141(16) 1.0297(13)
H3_2 H 0.2256 0.0113 1.0797
C5_2 C 0.150(2) -0.1176(17) 1.0019(14)
H4_2 H 0.1725 -0.1597 1.0336
C6_2 C 0.187(2) 0.1571(16) 1.0097(13)
C7_2 C 0.2011(19) 0.3126(16) 1.0112(13)
C8_2 C 0.1697(18) 0.4071(15) 0.9894(12)
C9_2 C 0.0750(18) 0.4041(16) 0.9360(12)
H5_2 H 0.0234 0.3473 0.9175
C10_2 C 0.0616(19) 0.4859(18) 0.9126(13)
H6_2 H 0.0031 0.4793 0.8708
C11_2 C 0.207(2) 0.5811(18) 0.9928(14)
H7_2 H 0.2533 0.6415 1.0126
C12_2 C 0.238(2) 0.5018(18) 1.0222(16)
H8_2 H 0.2996 0.5086 1.0618
C13A C -0.024(2) -0.4739(16) 0.7333(14)
H9A H 0.0338 -0.5120 0.7482
C14A C -0.0865(19) -0.5090(15) 0.6579(13)
H10A H -0.0721 -0.5704 0.6222
C15A C -0.1692(18) -0.4501(15) 0.6381(12)
C16A C -0.1951(17) -0.3581(15) 0.6898(12)
H11A H -0.2538 -0.3198 0.6759
C17A C -0.127(2) -0.3280(15) 0.7631(13)
H12A H -0.1383 -0.2651 0.7983
C18A C -0.2380(19) -0.4866(15) 0.5570(13)
C19A C -0.2801(18) -0.5503(14) 0.4347(12)
C20A C -0.163(2) -0.723(2) 0.2615(17)
H13A H -0.1252 -0.7832 0.2483
C21A C -0.177(2) -0.6857(17) 0.3372(15)
H14A H -0.1390 -0.7096 0.3774
C22A C -0.257(2) -0.6023(19) 0.3535(15)
C23A C -0.301(2) -0.5622(19) 0.2926(15)
H15A H -0.3505 -0.5095 0.3016
C24A C -0.265(2) -0.609(2) 0.2083(16)
H16A H -0.2918 -0.5839 0.1659
C25_2 C 0.5048(18) -0.2345(16) 0.6244(13)
H17_2 H 0.4765 -0.2648 0.5710
C26_2 C 0.5244(18) -0.1296(15) 0.6494(13)
H18_2 H 0.5084 -0.0914 0.6135
C27_2 C 0.5675(19) -0.0814(15) 0.7275(13)
C28_2 C 0.5858(18) -0.1463(16) 0.7769(13)
H19_2 H 0.6151 -0.1194 0.8305
C29_2 C 0.5602(18) -0.2491(16) 0.7453(13)
H20_2 H 0.5699 -0.2897 0.7799
C30_2 C 0.599(2) 0.0287(18) 0.7553(15)
C31_2 C 0.5045(19) 0.3538(16) 0.6372(14)
H21_2 H 0.4451 0.3474 0.5960
C32_2 C 0.535(2) 0.270(2) 0.6608(16)
H22_2 H 0.4997 0.2067 0.6303
C33_2 C 0.611(2) 0.2695(17) 0.7248(15)
C34_2 C 0.664(2) 0.3677(17) 0.7646(14)
H23_2 H 0.7144 0.3788 0.8113
C35_2 C 0.637(2) 0.4470(16) 0.7321(14)
H24_2 H 0.6794 0.5089 0.7551
C36_2 C 0.625(2) 0.1834(17) 0.7541(13)
N1_2 N 0.6620(17) 0.0793(14) 0.8249(11)
N2_2 N 0.6792(19) 0.1794(13) 0.8241(12)
N3_2 N 0.5580(15) 0.4435(13) 0.6719(9)
N3A N -0.5580(15) -0.4435(13) 0.3281(9)
N4_2 N 0.5235(14) -0.2947(12) 0.6708(10)
N4A N -0.5235(14) -0.7053(12) 0.3292(10)
N5A N -0.199(2) -0.6809(16) 0.1982(13)
N6A N -0.3727(15) -0.5159(12) 0.4562(10)
N7A N -0.3524(16) -0.4709(11) 0.5391(9)
N7A_2 N 0.6476(16) -0.4709(11) 0.5391(9)
N7_2 N -0.6476(16) -0.5291(11) 0.4609(9)
N8A N -0.0470(17) -0.3846(14) 0.7862(11)
N9_2 N 0.1196(16) 0.5808(13) 0.9394(10)
N9A N -0.1196(16) -0.5808(13) 0.0606(10)
N10_2 N 0.2772(18) 0.3032(14) 1.0706(12)
N11_2 N 0.2667(17) 0.2033(15) 1.0733(11)
N12_2 N 0.0878(15) -0.1587(12) 0.9317(10)
N12A N -0.0878(15) -0.8413(12) 0.0683(10)
O26 O 0.503(2) 0.2177(18) 0.9760(15)
O27 O 0.456(3) 0.403(2) 0.9138(18)
Si1 Si 0.0000 0.0000 0.5000
W1 W 0.19504(10) -0.19435(7) 0.47811(6)
W2 W 0.19219(11) -0.01422(9) 0.66616(7)
W3 W 0.29321(10) 0.05995(9) 0.50921(6)
W4 W 0.10031(9) 0.08504(9) 0.34721(7)
W5 W -0.10130(9) -0.25538(7) 0.46100(6)
W6 W 0.01085(9) -0.17432(7) 0.31047(6)
O1 O 0.0123(16) -0.2584(13) 0.2196(10)
O2 O -0.0767(14) -0.2527(11) 0.3586(9)
O3 O 0.1380(12) -0.2029(12) 0.3671(9)
O4 O 0.2799(15) -0.0246(11) 0.7406(9)
O5 O 0.2361(17) 0.1942(14) 0.5483(11)
O6 O 0.2879(13) -0.2907(12) 0.4674(10)
O7 O 0.0969(16) 0.2087(13) 0.4244(11)
O8 O 0.4329(12) 0.0922(10) 0.5144(9)
O9 O 0.0588(19) -0.0825(15) 0.6862(13)
O10 O 0.1473(16) 0.1222(12) 0.2733(9)
O11 O 0.2394(15) 0.0654(13) 0.4061(9)
O12 O 0.0564(12) -0.2696(10) 0.4833(9)
O13 O 0.0940(19) -0.0649(15) 0.2932(13)
O14 O 0.2052(18) -0.1418(14) 0.5894(12)
O15 O -0.1412(17) -0.3796(14) 0.4419(11)
O16 O 0.126(2) 0.1094(16) 0.7043(13)
O17 O 0.2839(17) 0.0528(13) 0.6134(11)
O18 O 0.2828(18) -0.0780(15) 0.4761(12)
O19 O -0.005(2) 0.1039(19) 0.5403(15)
O20 O -0.084(2) -0.0873(17) 0.5122(14)
O21 O -0.008(2) -0.0200(18) 0.4012(15)
O22 O 0.133(2) -0.0354(19) 0.5223(15)
W1A W -0.19504(10) 0.19435(7) 0.52189(6)
W2A W -0.19219(11) 0.01422(9) 0.33384(7)
W3A W -0.29321(10) -0.05995(9) 0.49079(6)
W4A W -0.10031(9) -0.08504(9) 0.65279(7)
W5A W 0.10130(9) 0.25538(7) 0.53900(6)
W6A W -0.01085(9) 0.17432(7) 0.68953(6)
O1A O -0.0123(16) 0.2584(13) 0.7804(10)
O2A O 0.0767(14) 0.2527(11) 0.6414(9)
O3A O -0.1380(12) 0.2029(12) 0.6329(9)
O4A O -0.2799(15) 0.0246(11) 0.2594(9)
O5A O -0.2361(17) -0.1942(14) 0.4517(11)
O6A O -0.2879(13) 0.2907(12) 0.5326(10)
O7A O -0.0969(16) -0.2087(13) 0.5756(11)
O8A O -0.4329(12) -0.0922(10) 0.4856(9)
O9A O -0.0588(19) 0.0825(15) 0.3138(13)
O10A O -0.1473(16) -0.1222(12) 0.7267(9)
O11A O -0.2394(15) -0.0654(13) 0.5939(9)
O12A O -0.0564(12) 0.2696(10) 0.5167(9)
O13A O -0.0940(19) 0.0649(15) 0.7068(13)
O14A O -0.2052(18) 0.1418(14) 0.4106(12)
O15A O 0.1412(17) 0.3796(14) 0.5581(11)
O16A O -0.126(2) -0.1094(16) 0.2957(13)
O17A O -0.2839(17) -0.0528(13) 0.3866(11)
O18A O -0.2828(18) 0.0780(15) 0.5239(12)
O19A O 0.005(2) -0.1039(19) 0.4597(15)
O20A O 0.084(2) 0.0873(17) 0.4878(14)
O21A O 0.008(2) 0.0200(18) 0.5988(15)
O22A O -0.133(2) 0.0354(19) 0.4777(15)
O28? O 0.455(3) 0.119(2) 0.9432(18)
loop_
_geom_bond_atom_site_label_1
_geom_bond_atom_site_label_2
_geom_bond_site_symmetry_1
_geom_bond_site_symmetry_2
Si1 O19 1_555 1_555
W1 O3 1_555 1_555
W2 O4 1_555 1_555
W3 O5 1_555 1_555
W4 O7 1_555 1_555
W5 O2 1_555 1_555
W6 O1 1_555 1_555
Cu1 N5 1_555 1_555
Cu2 N3 1_555 1_555
O2 W6 1_555 1_555
O3 W6 1_555 1_555
O5 W5A 1_555 1_555
O6 W1 1_555 1_555
O7 W5A 1_555 1_555
O8 W3 1_555 1_555
O9 W2 1_555 1_555
O10 W4 1_555 1_555
O11 W3 1_555 1_555
O12 W1 1_555 1_555
O13 W4 1_555 1_555
O14 W1 1_555 1_555
O15 W5 1_555 1_555
O16 W2 1_555 1_555
O17 W2 1_555 1_555
O18 W1 1_555 1_555
O19 O20A 1_555 1_555
O20 Si1 1_555 1_555
O21 Si1 1_555 1_555
O22 Si1 1_555 1_555
O23 C30 1_555 1_555
O24 C18 1_555 1_555
O25 C6 1_555 1_555
C1 H1 1_555 1_555
C2 C1 1_555 1_555
H2 C2 1_555 1_555
C3 C2 1_555 1_555
C4 C3 1_555 1_555
H3 C4 1_555 1_555
C5 C4 1_555 1_555
H4 C5 1_555 1_555
C6 C3 1_555 1_555
C7 O25 1_555 1_555
C8 C7 1_555 1_555
C9 C8 1_555 1_555
H5 C9 1_555 1_555
C10 C9 1_555 1_555
H6 C10 1_555 1_555
C11 H7 1_555 1_555
C12 C8 1_555 1_555
H8 C12 1_555 1_555
C13 H9 1_555 1_555
C14 C13 1_555 1_555
H10 C14 1_555 1_555
C15 C14 1_555 1_555
C16 C15 1_555 1_555
H11 C16 1_555 1_555
C17 C16 1_555 1_555
H12 C17 1_555 1_555
C18 C15 1_555 1_555
C19 O24 1_555 1_555
C20 H13 1_555 1_555
C21 C20 1_555 1_555
H14 C21 1_555 1_555
C22 C19 1_555 1_555
C23 C22 1_555 1_555
H15 C23 1_555 1_555
C24 C23 1_555 1_555
H16 C24 1_555 1_555
C25 H17 1_555 1_555
C26 C25 1_555 1_555
H18 C26 1_555 1_555
C27 C26 1_555 1_555
C28 C27 1_555 1_555
H19 C28 1_555 1_555
C29 C28 1_555 1_555
H20 C29 1_555 1_555
C30 C27 1_555 1_555
C31 H21 1_555 1_555
C32 C31 1_555 1_555
H22 C32 1_555 1_555
C33 C32 1_555 1_555
C34 C33 1_555 1_555
H23 C34 1_555 1_555
C35 C34 1_555 1_555
H24 C35 1_555 1_555
C36 O23 1_555 1_555
N1 C30 1_555 1_555
N2 C36 1_555 1_555
N3 C31 1_555 1_555
N4 C25 1_555 1_555
N5 C20 1_555 1_555
N6 Cu2 1_555 1_555
N7 C18 1_555 1_555
N8 C13 1_555 1_555
N9 Cu1 1_555 1_555
N10 C7 1_555 1_555
N11 C6 1_555 1_555
N12 C1 1_555 1_555
W1A O3A 1_555 1_555
W2A O4A 1_555 1_555
W3A O5A 1_555 1_555
W4A O9 1_555 1_555
W5A O2A 1_555 1_555
W6A O16 1_555 1_555
Cu1A N8 1_555 1_555
Cu1_2 N12 1_555 1_555
Cu1_3 N9_2 1_555 1_555
Cu2A N3A 1_555 1_555
Cu2_2 N4 1_555 1_555
Cu2A_2 N7 1_555 1_555
Cu2_3 N7A 1_555 1_555
Cu2_4 N3_2 1_555 1_555
O1A W6A 1_555 1_555
O2A W6A 1_555 1_555
O3A W6A 1_555 1_555
O5A W5 1_555 1_555
O6A W1A 1_555 1_555
O7A W5 1_555 1_555
O8A W3A 1_555 1_555
O9A W4 1_555 1_555
O10A W4A 1_555 1_555
O11A W3A 1_555 1_555
O12A W1A 1_555 1_555
O13A W4A 1_555 1_555
O14A W1A 1_555 1_555
O15A W5A 1_555 1_555
O16A W6 1_555 1_555
O17A W2A 1_555 1_555
O18A W1A 1_555 1_555
O19A Si1 1_555 1_555
O20A Si1 1_555 1_555
O21A Si1 1_555 1_555
O22A Si1 1_555 1_555
O23_2 C30_2 1_555 1_555
O24A C18A 1_555 1_555
O25_2 C6_2 1_555 1_555
C1_2 H1_2 1_555 1_555
C2_2 C1_2 1_555 1_555
H2_2 C2_2 1_555 1_555
C3_2 C2_2 1_555 1_555
C4_2 C3_2 1_555 1_555
H3_2 C4_2 1_555 1_555
C5_2 C4_2 1_555 1_555
H4_2 C5_2 1_555 1_555
C6_2 C3_2 1_555 1_555
C7_2 O25_2 1_555 1_555
C8_2 C7_2 1_555 1_555
C9_2 C8_2 1_555 1_555
H5_2 C9_2 1_555 1_555
C10_2 C9_2 1_555 1_555
H6_2 C10_2 1_555 1_555
C11_2 H7_2 1_555 1_555
C12_2 C8_2 1_555 1_555
H8_2 C12_2 1_555 1_555
C13A H9A 1_555 1_555
C14A C13A 1_555 1_555
H10A C14A 1_555 1_555
C15A C14A 1_555 1_555
C16A C15A 1_555 1_555
H11A C16A 1_555 1_555
C17A C16A 1_555 1_555
H12A C17A 1_555 1_555
C18A C15A 1_555 1_555
C19A O24A 1_555 1_555
C20A H13A 1_555 1_555
C21A C20A 1_555 1_555
H14A C21A 1_555 1_555
C22A C19A 1_555 1_555
C23A C22A 1_555 1_555
H15A C23A 1_555 1_555
C24A C23A 1_555 1_555
H16A C24A 1_555 1_555
C25_2 H17_2 1_555 1_555
C26_2 C25_2 1_555 1_555
H18_2 C26_2 1_555 1_555
C27_2 C26_2 1_555 1_555
C28_2 C27_2 1_555 1_555
H19_2 C28_2 1_555 1_555
C29_2 C28_2 1_555 1_555
H20_2 C29_2 1_555 1_555
C30_2 C27_2 1_555 1_555
C31_2 H21_2 1_555 1_555
C32_2 C31_2 1_555 1_555
H22_2 C32_2 1_555 1_555
C33_2 C32_2 1_555 1_555
C34_2 C33_2 1_555 1_555
H23_2 C34_2 1_555 1_555
C35_2 C34_2 1_555 1_555
H24_2 C35_2 1_555 1_555
C36_2 O23_2 1_555 1_555
N1_2 C30_2 1_555 1_555
N2_2 C36_2 1_555 1_555
N3_2 C31_2 1_555 1_555
N4_2 Cu2 1_555 1_555
N4A Cu2A 1_555 1_555
N5A Cu1A 1_555 1_555
N6A Cu2A 1_555 1_555
N7A C18A 1_555 1_555
N7A_2 Cu2 1_555 1_555
N7_2 Cu2A 1_555 1_555
N8A Cu1 1_555 1_555
N9_2 C10_2 1_555 1_555
N9A Cu1A 1_555 1_555
N10_2 C7_2 1_555 1_555
N11_2 C6_2 1_555 1_555
N12_2 Cu1 1_555 1_555
N12A Cu1A 1_555 1_555
W1 O22 1_555 1_555
W2 O14 1_555 1_555
W3 O17 1_555 1_555
W3 O18 1_555 1_555
W3 O22 1_555 1_555
W4 O11 1_555 1_555
W4 O21 1_555 1_555
W5 O12 1_555 1_555
W5 O20 1_555 1_555
W6 O13 1_555 1_555
W6 O21 1_555 1_555
O19 O21A 1_555 1_555
O20 O19A 1_555 1_555
O21 O19A 1_555 1_555
C5 N12 1_555 1_555
C10 N9 1_555 1_555
C11 C12 1_555 1_555
C11 N9 1_555 1_555
C17 N8 1_555 1_555
C19 N6 1_555 1_555
C21 C22 1_555 1_555
C24 N5 1_555 1_555
C29 N4 1_555 1_555
C33 C36 1_555 1_555
C35 N3 1_555 1_555
N1 N2 1_555 1_555
N6 N7 1_555 1_555
N10 N11 1_555 1_555
W1A O22A 1_555 1_555
W2A O9A 1_555 1_555
W2A O14A 1_555 1_555
W2A O16A 1_555 1_555
W3A O17A 1_555 1_555
W3A O18A 1_555 1_555
W3A O22A 1_555 1_555
W4A O7A 1_555 1_555
W4A O11A 1_555 1_555
W4A O21A 1_555 1_555
W5A O12A 1_555 1_555
W5A O20A 1_555 1_555
W6A O13A 1_555 1_555
W6A O21A 1_555 1_555
C1_2 N12_2 1_555 1_555
C5_2 N12_2 1_555 1_555
C11_2 C12_2 1_555 1_555
C11_2 N9_2 1_555 1_555
C13A N8A 1_555 1_555
C17A N8A 1_555 1_555
C19A N6A 1_555 1_555
C20A N5A 1_555 1_555
C21A C22A 1_555 1_555
C24A N5A 1_555 1_555
C25_2 N4_2 1_555 1_555
C29_2 N4_2 1_555 1_555
C33_2 C36_2 1_555 1_555
C35_2 N3_2 1_555 1_555
N1_2 N2_2 1_555 1_555
N6A N7A 1_555 1_555
N10_2 N11_2 1_555 1_555

#END
