
#######################################################################
#
#                 Cambridge Crystallographic Data Centre
#                                CCDC 
#
#######################################################################
#
# If this CIF has been generated from an entry in the Cambridge 
# Structural Database, then it will include bibliographic, chemical, 
# crystal, experimental, refinement or atomic coordinate data resulting 
# from the CCDC's data processing and validation procedures.
#
#######################################################################

data_ICABUL
_symmetry_cell_setting           monoclinic
_symmetry_space_group_name_H-M   'P 21/c'
_symmetry_Int_Tables_number      14
_space_group_name_Hall           '-P 2ybc'
loop_
_symmetry_equiv_pos_site_id
_symmetry_equiv_pos_as_xyz
1 x,y,z
2 -x,1/2+y,1/2-z
3 -x,-y,-z
4 x,1/2-y,1/2+z
_cell_length_a                   5.6098(3)
_cell_length_b                   13.2503(8)
_cell_length_c                   14.2590(9)
_cell_angle_alpha                90
_cell_angle_beta                 91.884(4)
_cell_angle_gamma                90
_cell_volume                     1059.32
loop_
_atom_site_label
_atom_site_type_symbol
_atom_site_fract_x
_atom_site_fract_y
_atom_site_fract_z
Cu1 Cu 0.51118(6) 0.15402(2) 0.35531(2)
S1 S -0.24949(10) 0.04400(5) 0.26406(5)
N1 N 0.1955(4) 0.12418(15) 0.31980(14)
N2 N 0.7432(3) 0.23167(14) 0.42993(13)
C1 C 0.0120(4) 0.09184(17) 0.29627(16)
C2 C 0.8426(4) 0.19356(17) 0.51010(16)
C3 C 1.0317(4) 0.24111(19) 0.55645(17)
H1 H 1.0974 0.2131 0.6129
C4 C 1.1256(4) 0.32913(18) 0.52116(17)
C5 C 1.0236(4) 0.36733(18) 0.43903(17)
H2 H 1.0833 0.4279 0.4130
C6 C 0.8340(4) 0.31737(17) 0.39451(17)
C7 C 0.7374(5) 0.0968(2) 0.54502(18)
H3 H 0.5696 0.1077 0.5593
H4 H 0.8255 0.0750 0.6019
H5 H 0.7485 0.0447 0.4966
C8 C 1.3357(5) 0.3812(2) 0.56949(18)
H6 H 1.3440 0.3619 0.6359
H7 H 1.3160 0.4545 0.5643
H8 H 1.4831 0.3609 0.5397
C9 C 0.7202(5) 0.35406(19) 0.30415(18)
H9 H 0.7445 0.3041 0.2547
H10 H 0.7928 0.4183 0.2865
H11 H 0.5489 0.3638 0.3122
Cu1_2 Cu -0.48882(6) 0.15402(2) 0.35531(2)
S1_2 S 0.75051(10) 0.04400(5) 0.26406(5)
loop_
_geom_bond_atom_site_label_1
_geom_bond_atom_site_label_2
_geom_bond_site_symmetry_1
_geom_bond_site_symmetry_2
Cu1 N1 1_555 1_555
S1 C1 1_555 1_555
N1 C1 1_555 1_555
N2 Cu1 1_555 1_555
C2 N2 1_555 1_555
C3 C2 1_555 1_555
H1 C3 1_555 1_555
C4 C3 1_555 1_555
C5 C4 1_555 1_555
H2 C5 1_555 1_555
C6 N2 1_555 1_555
C7 C2 1_555 1_555
H3 C7 1_555 1_555
H4 C7 1_555 1_555
H5 C7 1_555 1_555
C8 C4 1_555 1_555
H6 C8 1_555 1_555
H7 C8 1_555 1_555
H8 C8 1_555 1_555
C9 C6 1_555 1_555
H9 C9 1_555 1_555
H10 C9 1_555 1_555
H11 C9 1_555 1_555
Cu1_2 S1 1_555 1_555
S1_2 Cu1 1_555 1_555
C5 C6 1_555 1_555

#END
