
#######################################################################
#
#                 Cambridge Crystallographic Data Centre
#                                CCDC 
#
#######################################################################
#
# If this CIF has been generated from an entry in the Cambridge 
# Structural Database, then it will include bibliographic, chemical, 
# crystal, experimental, refinement or atomic coordinate data resulting 
# from the CCDC's data processing and validation procedures.
#
#######################################################################

data_ICACIA
_symmetry_cell_setting           monoclinic
_symmetry_space_group_name_H-M   'P 21/n'
_symmetry_Int_Tables_number      14
_space_group_name_Hall           '-P 2yn'
loop_
_symmetry_equiv_pos_site_id
_symmetry_equiv_pos_as_xyz
1 x,y,z
2 1/2-x,1/2+y,1/2-z
3 -x,-y,-z
4 1/2+x,1/2-y,1/2+z
_cell_length_a                   15.3390(2)
_cell_length_b                   5.85820(10)
_cell_length_c                   18.4560(2)
_cell_angle_alpha                90
_cell_angle_beta                 112.7790(3)
_cell_angle_gamma                90
_cell_volume                     1529.09
loop_
_atom_site_label
_atom_site_type_symbol
_atom_site_fract_x
_atom_site_fract_y
_atom_site_fract_z
Cu1 Cu 0.435110(15) 0.34726(4) 0.197273(13)
S1 S 0.36984(3) 0.09813(7) 0.09293(2)
N1 N 0.41489(10) -0.3372(2) 0.16204(8)
N2 N 0.57674(9) 0.2689(2) 0.26155(7)
N3 N 0.38122(9) 0.2822(2) 0.28316(7)
C1 C 0.39661(11) -0.1572(3) 0.13407(9)
C2 C 0.63056(12) 0.3993(3) 0.32214(9)
H1 H 0.6035 0.5338 0.3333
C3 C 0.72367(12) 0.3481(3) 0.36944(10)
H2 H 0.7584 0.4452 0.4121
C4 C 0.76598(11) 0.1545(3) 0.35418(9)
C5 C 0.70916(11) 0.0160(3) 0.29242(9)
H3 H 0.7340 -0.1212 0.2807
C6 C 0.61686(11) 0.0781(3) 0.24833(9)
H4 H 0.5799 -0.0191 0.2065
C7 C 0.86954(12) 0.1024(3) 0.39886(10)
H5 H 0.8966 0.2175 0.4409
H6 H 0.9028 0.1168 0.3626
C8 C 0.88807(12) -0.1344(3) 0.43556(11)
H7 H 0.8642 -0.1422 0.4777
H8 H 0.9562 -0.1647 0.4573
H9 H 0.8557 -0.2487 0.3953
C9 C 0.39723(11) 0.4354(3) 0.34112(9)
H10 H 0.4234 0.5790 0.3366
C10 C 0.37750(12) 0.3946(3) 0.40701(10)
H11 H 0.3907 0.5082 0.4466
C11 C 0.33837(11) 0.1869(3) 0.41530(9)
C12 C 0.31890(11) 0.0309(3) 0.35418(9)
H12 H 0.2902 -0.1113 0.3562
C13 C 0.34159(11) 0.0841(3) 0.29024(9)
H13 H 0.3283 -0.0257 0.2495
C14 C 0.32128(12) 0.1303(3) 0.48819(10)
H14 H 0.2743 0.0054 0.4765
H15 H 0.2948 0.2656 0.5046
C15 C 0.41232(12) 0.0576(3) 0.55518(10)
H16 H 0.4358 -0.0838 0.5408
H17 H 0.3998 0.0320 0.6027
H18 H 0.4600 0.1780 0.5651
Cu1_2 Cu 0.435110(15) -0.65274(4) 0.197273(13)
N1_2 N 0.41489(10) 0.6628(2) 0.16204(8)
loop_
_geom_bond_atom_site_label_1
_geom_bond_atom_site_label_2
_geom_bond_site_symmetry_1
_geom_bond_site_symmetry_2
Cu1 S1 1_555 1_555
S1 C1 1_555 1_555
N1 C1 1_555 1_555
N2 Cu1 1_555 1_555
N3 Cu1 1_555 1_555
C2 N2 1_555 1_555
H1 C2 1_555 1_555
C3 C2 1_555 1_555
H2 C3 1_555 1_555
C4 C3 1_555 1_555
C5 C4 1_555 1_555
H3 C5 1_555 1_555
C6 N2 1_555 1_555
H4 C6 1_555 1_555
C7 C4 1_555 1_555
H5 C7 1_555 1_555
H6 C7 1_555 1_555
C8 C7 1_555 1_555
H7 C8 1_555 1_555
H8 C8 1_555 1_555
H9 C8 1_555 1_555
C9 N3 1_555 1_555
H10 C9 1_555 1_555
C10 C9 1_555 1_555
H11 C10 1_555 1_555
C11 C10 1_555 1_555
C12 C11 1_555 1_555
H12 C12 1_555 1_555
C13 N3 1_555 1_555
H13 C13 1_555 1_555
C14 C11 1_555 1_555
H14 C14 1_555 1_555
H15 C14 1_555 1_555
C15 C14 1_555 1_555
H16 C15 1_555 1_555
H17 C15 1_555 1_555
H18 C15 1_555 1_555
Cu1_2 N1 1_555 1_555
N1_2 Cu1 1_555 1_555
C5 C6 1_555 1_555
C12 C13 1_555 1_555

#END
