
#######################################################################
#
#                 Cambridge Crystallographic Data Centre
#                                CCDC 
#
#######################################################################
#
# If this CIF has been generated from an entry in the Cambridge 
# Structural Database, then it will include bibliographic, chemical, 
# crystal, experimental, refinement or atomic coordinate data resulting 
# from the CCDC's data processing and validation procedures.
#
#######################################################################

data_ICACUM
_symmetry_cell_setting           monoclinic
_symmetry_space_group_name_H-M   'P 21/c'
_symmetry_Int_Tables_number      14
_space_group_name_Hall           '-P 2ybc'
loop_
_symmetry_equiv_pos_site_id
_symmetry_equiv_pos_as_xyz
1 x,y,z
2 -x,1/2+y,1/2-z
3 -x,-y,-z
4 x,1/2-y,1/2+z
_cell_length_a                   12.6385(2)
_cell_length_b                   10.6785(2)
_cell_length_c                   15.1085(2)
_cell_angle_alpha                90
_cell_angle_beta                 102.9720(10)
_cell_angle_gamma                90
_cell_volume                     1987.01
loop_
_atom_site_label
_atom_site_type_symbol
_atom_site_fract_x
_atom_site_fract_y
_atom_site_fract_z
Cu1 Cu 0.428390(15) 0.801223(17) 0.221079(13)
S1 S 0.59002(3) 0.87495(3) 0.19342(2)
N1 N 0.57809(9) 1.12546(11) 0.24835(8)
N2 N 0.31256(9) 0.84089(11) 0.10048(8)
N3 N 0.37301(9) 0.91110(10) 0.31337(8)
C1 C 0.58170(10) 1.02227(13) 0.22586(9)
C2 C 0.33538(11) 0.90567(13) 0.03140(9)
H1 H 0.4047 0.9442 0.0399
C3 C 0.26361(11) 0.91978(12) -0.05200(9)
H2 H 0.2842 0.9676 -0.0984
C4 C 0.16182(11) 0.86434(12) -0.06789(9)
C5 C 0.13720(12) 0.79942(13) 0.00517(10)
H3 H 0.0679 0.7614 -0.0011
C6 C 0.21281(12) 0.79018(13) 0.08626(10)
H4 H 0.1934 0.7456 0.1347
C7 C 0.07998(11) 0.87018(13) -0.15907(9)
C8 C -0.02325(12) 0.93658(18) -0.14652(11)
H5 H -0.0553 0.8892 -0.1035
H6 H -0.0755 0.9418 -0.2051
H7 H -0.0049 1.0212 -0.1229
C9 C 0.05428(15) 0.73506(16) -0.19314(12)
H8 H 0.1208 0.6949 -0.2021
H9 H 0.0001 0.7366 -0.2508
H10 H 0.0256 0.6878 -0.1481
C10 C 0.12478(12) 0.94150(14) -0.23051(9)
H11 H 0.1402 1.0283 -0.2106
H12 H 0.0710 0.9406 -0.2884
H13 H 0.1918 0.9013 -0.2383
C11 C 0.32770(12) 1.02245(13) 0.28787(9)
H14 H 0.3253 1.0501 0.2277
C12 C 0.28435(11) 1.09939(13) 0.34397(9)
H15 H 0.2519 1.1767 0.3215
C13 C 0.28786(10) 1.06451(13) 0.43339(9)
C14 C 0.33776(11) 0.94987(14) 0.46054(9)
H16 H 0.3445 0.9217 0.5212
C15 C 0.37732(11) 0.87733(13) 0.39965(10)
H17 H 0.4094 0.7990 0.4200
C16 C 0.24414(11) 1.14926(14) 0.49855(9)
C17 C 0.19336(14) 1.07240(16) 0.56365(11)
H18 H 0.1352 1.0198 0.5287
H19 H 0.1633 1.1290 0.6028
H20 H 0.2490 1.0192 0.6012
C18 C 0.33963(13) 1.22614(16) 0.55343(11)
H21 H 0.3940 1.1694 0.5889
H22 H 0.3131 1.2830 0.5946
H23 H 0.3726 1.2750 0.5118
C19 C 0.15915(14) 1.24094(18) 0.44683(11)
H24 H 0.1928 1.2957 0.4089
H25 H 0.1307 1.2918 0.4903
H26 H 0.0996 1.1940 0.4082
Cu1A Cu 0.571610(15) 1.301223(17) 0.278921(13)
N1A N 0.42191(9) 0.62546(11) 0.25165(8)
loop_
_geom_bond_atom_site_label_1
_geom_bond_atom_site_label_2
_geom_bond_site_symmetry_1
_geom_bond_site_symmetry_2
Cu1 S1 1_555 1_555
S1 C1 1_555 1_555
N1 C1 1_555 1_555
N2 Cu1 1_555 1_555
N3 Cu1 1_555 1_555
C2 N2 1_555 1_555
H1 C2 1_555 1_555
C3 C2 1_555 1_555
H2 C3 1_555 1_555
C4 C3 1_555 1_555
C5 C4 1_555 1_555
H3 C5 1_555 1_555
C6 N2 1_555 1_555
H4 C6 1_555 1_555
C7 C4 1_555 1_555
C8 C7 1_555 1_555
H5 C8 1_555 1_555
H6 C8 1_555 1_555
H7 C8 1_555 1_555
C9 C7 1_555 1_555
H8 C9 1_555 1_555
H9 C9 1_555 1_555
H10 C9 1_555 1_555
C10 C7 1_555 1_555
H11 C10 1_555 1_555
H12 C10 1_555 1_555
H13 C10 1_555 1_555
C11 N3 1_555 1_555
H14 C11 1_555 1_555
C12 C11 1_555 1_555
H15 C12 1_555 1_555
C13 C12 1_555 1_555
C14 C13 1_555 1_555
H16 C14 1_555 1_555
C15 N3 1_555 1_555
H17 C15 1_555 1_555
C16 C13 1_555 1_555
C17 C16 1_555 1_555
H18 C17 1_555 1_555
H19 C17 1_555 1_555
H20 C17 1_555 1_555
C18 C16 1_555 1_555
H21 C18 1_555 1_555
H22 C18 1_555 1_555
H23 C18 1_555 1_555
C19 C16 1_555 1_555
H24 C19 1_555 1_555
H25 C19 1_555 1_555
H26 C19 1_555 1_555
Cu1A N1 1_555 1_555
N1A Cu1 1_555 1_555
C5 C6 1_555 1_555
C14 C15 1_555 1_555

#END
