
#######################################################################
#
#                 Cambridge Crystallographic Data Centre
#                                CCDC 
#
#######################################################################
#
# If this CIF has been generated from an entry in the Cambridge 
# Structural Database, then it will include bibliographic, chemical, 
# crystal, experimental, refinement or atomic coordinate data resulting 
# from the CCDC's data processing and validation procedures.
#
#######################################################################

data_ICACEW
_symmetry_cell_setting           monoclinic
_symmetry_space_group_name_H-M   'P 21/c'
_symmetry_Int_Tables_number      14
_space_group_name_Hall           '-P 2ybc'
loop_
_symmetry_equiv_pos_site_id
_symmetry_equiv_pos_as_xyz
1 x,y,z
2 -x,1/2+y,1/2-z
3 -x,-y,-z
4 x,1/2-y,1/2+z
_cell_length_a                   11.7388(3)
_cell_length_b                   13.0673(3)
_cell_length_c                   12.6949(3)
_cell_angle_alpha                90
_cell_angle_beta                 112.1240(10)
_cell_angle_gamma                90
_cell_volume                     1803.95
loop_
_atom_site_label
_atom_site_type_symbol
_atom_site_fract_x
_atom_site_fract_y
_atom_site_fract_z
Cu1 Cu 0.50104(3) 0.01783(2) 0.12032(3)
Cu2 Cu -0.01678(3) 0.04233(2) 0.09013(3)
S1 S 0.61133(4) -0.10929(4) 0.07245(4)
S2 S 0.11407(4) -0.10247(4) 0.10245(4)
N1 N 0.84578(16) -0.02401(14) 0.11713(15)
N2 N 0.35599(17) -0.04021(14) 0.13693(15)
N3 N 0.60509(16) 0.13586(13) 0.22325(15)
N4 N 0.08626(15) 0.14740(13) 0.21279(14)
C1 C 0.74873(18) -0.05852(16) 0.09831(17)
C2 C 0.25616(18) -0.06464(15) 0.12305(16)
C3 C 0.5334(2) 0.19079(16) 0.28085(19)
H1 H 0.4555 0.2159 0.2228
H2 H 0.5809 0.2510 0.3217
C4 C 0.50449(19) 0.12280(17) 0.36472(19)
H3 H 0.4509 0.0657 0.3233
H4 H 0.4595 0.1630 0.4028
C5 C 0.6224(2) 0.07959(18) 0.45423(18)
H5 H 0.6714 0.1357 0.5027
H6 H 0.6016 0.0303 0.5034
C6 C 0.6970(2) 0.02621(17) 0.39459(18)
H7 H 0.7762 0.0025 0.4519
H8 H 0.6514 -0.0345 0.3531
C7 C 0.72151(19) 0.09803(16) 0.31182(18)
H9 H 0.7704 0.1571 0.3540
H10 H 0.7704 0.0618 0.2746
C8 C 0.6374(2) 0.20854(18) 0.1506(2)
H11 H 0.6891 0.2631 0.1978
H12 H 0.5622 0.2384 0.0951
H13 H 0.6825 0.1727 0.1106
C9 C 0.0088(2) 0.22944(17) 0.23285(18)
H14 H 0.0598 0.2715 0.2986
H15 H -0.0576 0.1977 0.2520
C10 C -0.0480(2) 0.29804(17) 0.12977(19)
H16 H -0.0963 0.3528 0.1475
H17 H -0.1046 0.2574 0.0656
C11 C 0.0514(2) 0.34606(17) 0.09533(19)
H18 H 0.0994 0.3959 0.1540
H19 H 0.0125 0.3833 0.0226
C12 C 0.1374(2) 0.26379(17) 0.08190(18)
H20 H 0.0924 0.2213 0.0144
H21 H 0.2070 0.2969 0.0692
C13 C 0.18671(19) 0.19594(16) 0.18607(18)
H22 H 0.2391 0.1419 0.1731
H23 H 0.2386 0.2373 0.2520
C14 C 0.1420(2) 0.08893(17) 0.31885(19)
H24 H 0.1938 0.0344 0.3079
H25 H 0.0770 0.0587 0.3396
H26 H 0.1923 0.1347 0.3797
Cu2B Cu 0.01678(3) -0.04233(2) -0.09013(3)
Cu2_2 Cu 0.98322(3) 0.04233(2) 0.09013(3)
S2B S -0.11407(4) 0.10247(4) -0.10245(4)
N1_2 N -0.15422(16) -0.02401(14) 0.11713(15)
loop_
_geom_bond_atom_site_label_1
_geom_bond_atom_site_label_2
_geom_bond_site_symmetry_1
_geom_bond_site_symmetry_2
Cu1 S1 1_555 1_555
Cu2 S2 1_555 1_555
S1 C1 1_555 1_555
S2 C2 1_555 1_555
N1 C1 1_555 1_555
N2 Cu1 1_555 1_555
N3 Cu1 1_555 1_555
N4 Cu2 1_555 1_555
C2 N2 1_555 1_555
C3 N3 1_555 1_555
H1 C3 1_555 1_555
H2 C3 1_555 1_555
C4 C3 1_555 1_555
H3 C4 1_555 1_555
H4 C4 1_555 1_555
C5 C4 1_555 1_555
H5 C5 1_555 1_555
H6 C5 1_555 1_555
C6 C5 1_555 1_555
H7 C6 1_555 1_555
H8 C6 1_555 1_555
C7 N3 1_555 1_555
H9 C7 1_555 1_555
H10 C7 1_555 1_555
C8 N3 1_555 1_555
H11 C8 1_555 1_555
H12 C8 1_555 1_555
H13 C8 1_555 1_555
C9 N4 1_555 1_555
H14 C9 1_555 1_555
H15 C9 1_555 1_555
C10 C9 1_555 1_555
H16 C10 1_555 1_555
H17 C10 1_555 1_555
C11 C10 1_555 1_555
H18 C11 1_555 1_555
H19 C11 1_555 1_555
C12 C11 1_555 1_555
H20 C12 1_555 1_555
H21 C12 1_555 1_555
C13 N4 1_555 1_555
H22 C13 1_555 1_555
H23 C13 1_555 1_555
C14 N4 1_555 1_555
H24 C14 1_555 1_555
H25 C14 1_555 1_555
H26 C14 1_555 1_555
Cu2B S2 1_555 1_555
Cu2_2 N1 1_555 1_555
S2B Cu2 1_555 1_555
N1_2 Cu2 1_555 1_555
C6 C7 1_555 1_555
C12 C13 1_555 1_555
Cu2B S2B 1_555 1_555

#END
