
#######################################################################
#
#                 Cambridge Crystallographic Data Centre
#                                CCDC 
#
#######################################################################
#
# If this CIF has been generated from an entry in the Cambridge 
# Structural Database, then it will include bibliographic, chemical, 
# crystal, experimental, refinement or atomic coordinate data resulting 
# from the CCDC's data processing and validation procedures.
#
#######################################################################

data_ICACAQ
_symmetry_cell_setting           monoclinic
_symmetry_space_group_name_H-M   'P c'
_symmetry_Int_Tables_number      7
_space_group_name_Hall           'P -2yc'
loop_
_symmetry_equiv_pos_site_id
_symmetry_equiv_pos_as_xyz
1 x,y,z
2 x,-y,1/2+z
_cell_length_a                   9.3876(10)
_cell_length_b                   10.2213(11)
_cell_length_c                   19.640(2)
_cell_angle_alpha                90
_cell_angle_beta                 103.161(2)
_cell_angle_gamma                90
_cell_volume                     1835.03
loop_
_atom_site_label
_atom_site_type_symbol
_atom_site_fract_x
_atom_site_fract_y
_atom_site_fract_z
Ag1 Ag -0.17225(2) -0.19089(4) 0.101330(17)
S1 S -0.34958(15) -0.16018(12) 0.18588(7)
S2 S 0.01890(15) -0.01114(14) 0.09152(8)
S3 S 0.66147(15) -0.18357(12) -0.02914(7)
S4 S -0.09590(16) 0.56369(12) 0.11148(7)
C1 C -0.1885(6) 0.3294(4) 0.1566(3)
H1 H -0.0915 0.3122 0.1851
H2 H -0.1893 0.3015 0.1093
C2 C -0.2976(5) 0.2474(5) 0.1839(3)
H3 H -0.3961 0.2691 0.1587
H4 H -0.2897 0.2666 0.2330
C3 C -0.2695(5) 0.1024(5) 0.1751(3)
H5 H -0.2580 0.0875 0.1279
H6 H -0.1782 0.0786 0.2070
C4 C -0.3890(5) 0.0145(5) 0.1884(3)
H7 H -0.4782 0.0331 0.1538
H8 H -0.4068 0.0355 0.2340
C5 C 0.1425(7) -0.0386(6) 0.0341(3)
H9 H 0.0869 -0.0321 -0.0139
H10 H 0.2146 0.0310 0.0416
C6 C 0.2207(9) -0.1657(6) 0.0428(4)
H11 H 0.1505 -0.2363 0.0304
H12 H 0.2709 -0.1768 0.0914
C7 C 0.3346(7) -0.1732(6) -0.0044(3)
H13 H 0.2835 -0.1665 -0.0531
H14 H 0.4013 -0.0997 0.0062
C8 C 0.4188(7) -0.2957(6) 0.0062(3)
H15 H 0.3507 -0.3684 -0.0014
H16 H 0.4729 -0.2993 0.0545
C9 C 0.5260(7) -0.3138(6) -0.0408(4)
H17 H 0.4724 -0.3156 -0.0892
H18 H 0.5755 -0.3971 -0.0303
C10 C -0.2154(5) 0.4737(5) 0.1560(3)
H19 H -0.2002 0.5048 0.2038
H20 H -0.3165 0.4909 0.1329
C11 C -0.2442(6) -0.1876(4) 0.2727(3)
C12 C -0.3128(7) -0.2251(6) 0.3243(3)
H21 H -0.4135 -0.2383 0.3142
C13 C -0.2287(9) -0.2432(8) 0.3927(4)
H22 H -0.2753 -0.2662 0.4280
C14 C -0.0836(8) -0.2284(6) 0.4082(3)
H23 H -0.0297 -0.2428 0.4535
C15 C -0.0145(7) -0.1917(5) 0.3566(3)
H24 H 0.0864 -0.1802 0.3672
C16 C -0.0937(6) -0.1719(5) 0.2897(3)
H25 H -0.0457 -0.1475 0.2551
C17 C 0.1472(5) 0.0094(4) 0.1724(3)
C18 C 0.1966(7) 0.1346(6) 0.1939(4)
H26 H 0.1653 0.2067 0.1655
C19 C 0.2938(9) 0.1502(8) 0.2586(5)
H27 H 0.3266 0.2336 0.2734
C20 C 0.3409(7) 0.0475(8) 0.3000(4)
H28 H 0.4048 0.0599 0.3432
C21 C 0.2947(6) -0.0751(6) 0.2784(3)
H29 H 0.3287 -0.1465 0.3069
C22 C 0.1999(6) -0.0946(5) 0.2161(3)
H30 H 0.1697 -0.1791 0.2025
C23 C 0.0804(5) 0.5416(4) 0.1671(3)
C24 C 0.1081(7) 0.5607(5) 0.2386(3)
H31 H 0.0319 0.5811 0.2598
C25 C 0.2486(9) 0.5493(6) 0.2782(4)
H32 H 0.2657 0.5616 0.3263
C26 C 0.3623(9) 0.5210(7) 0.2494(6)
H33 H 0.4569 0.5145 0.2769
C27 C 0.3339(8) 0.5017(8) 0.1771(6)
H34 H 0.4110 0.4825 0.1563
C28 C 0.1946(7) 0.5103(6) 0.1360(3)
H35 H 0.1771 0.4955 0.0881
C29 C 0.7866(6) -0.2382(5) -0.0782(2)
C30 C 0.8508(7) -0.1441(5) -0.1128(3)
H36 H 0.8211 -0.0573 -0.1128
C31 C 0.9583(8) -0.1785(6) -0.1473(3)
H37 H 1.0007 -0.1146 -0.1699
C32 C 1.0026(8) -0.3046(6) -0.1483(4)
H38 H 1.0762 -0.3270 -0.1708
C33 C 0.9384(9) -0.3981(6) -0.1160(4)
H39 H 0.9669 -0.4849 -0.1179
C34 C 0.8332(8) -0.3675(5) -0.0808(3)
H40 H 0.7923 -0.4330 -0.0584
S2_2 S -0.98110(15) -0.01114(14) 0.09152(8)
S3_2 S -0.33853(15) -0.18357(12) -0.02914(7)
C5_2 C -0.8575(7) -0.0386(6) 0.0341(3)
H9_2 H -0.9131 -0.0321 -0.0139
H10_2 H -0.7854 0.0310 0.0416
C6_2 C -0.7793(9) -0.1657(6) 0.0428(4)
H11_2 H -0.8495 -0.2363 0.0304
H12_2 H -0.7291 -0.1768 0.0914
C7_2 C -0.6654(7) -0.1732(6) -0.0044(3)
H13_2 H -0.7165 -0.1665 -0.0531
H14_2 H -0.5987 -0.0997 0.0062
C8_2 C -0.5812(7) -0.2957(6) 0.0062(3)
H15_2 H -0.6493 -0.3684 -0.0014
H16_2 H -0.5271 -0.2993 0.0545
C9_2 C -0.4740(7) -0.3138(6) -0.0408(4)
H17_2 H -0.5276 -0.3156 -0.0892
H18_2 H -0.4245 -0.3971 -0.0303
C17_2 C -0.8528(5) 0.0094(4) 0.1724(3)
C18_2 C -0.8034(7) 0.1346(6) 0.1939(4)
H26_2 H -0.8347 0.2067 0.1655
C19_2 C -0.7062(9) 0.1502(8) 0.2586(5)
H27_2 H -0.6734 0.2336 0.2734
C20_2 C -0.6591(7) 0.0475(8) 0.3000(4)
H28_2 H -0.5952 0.0599 0.3432
C21_2 C -0.7053(6) -0.0751(6) 0.2784(3)
H29_2 H -0.6713 -0.1465 0.3069
C22_2 C -0.8001(6) -0.0946(5) 0.2161(3)
H30_2 H -0.8303 -0.1791 0.2025
C29_2 C -0.2134(6) -0.2382(5) -0.0782(2)
C30_2 C -0.1492(7) -0.1441(5) -0.1128(3)
H36_2 H -0.1789 -0.0573 -0.1128
C31_2 C -0.0417(8) -0.1785(6) -0.1473(3)
H37_2 H 0.0007 -0.1146 -0.1699
C32_2 C 0.0026(8) -0.3046(6) -0.1483(4)
H38_2 H 0.0762 -0.3270 -0.1708
C33_2 C -0.0616(9) -0.3981(6) -0.1160(4)
H39_2 H -0.0331 -0.4849 -0.1179
C34_2 C -0.1668(8) -0.3675(5) -0.0808(3)
H40_2 H -0.2077 -0.4330 -0.0584
S1_2 S -0.34958(15) -1.16018(12) 0.18588(7)
S4_2 S -0.09590(16) -0.43631(12) 0.11148(7)
C1_2 C -0.1885(6) -0.6706(4) 0.1566(3)
H1_2 H -0.0915 -0.6878 0.1851
H2_2 H -0.1893 -0.6985 0.1093
C2_2 C -0.2976(5) -0.7526(5) 0.1839(3)
H3_2 H -0.3961 -0.7309 0.1587
H4_2 H -0.2897 -0.7334 0.2330
C3_2 C -0.2695(5) -0.8976(5) 0.1751(3)
H5_2 H -0.2580 -0.9125 0.1279
H6_2 H -0.1782 -0.9214 0.2070
C4_2 C -0.3890(5) -0.9855(5) 0.1884(3)
H7_2 H -0.4782 -0.9669 0.1538
H8_2 H -0.4068 -0.9645 0.2340
C10_2 C -0.2154(5) -0.5263(5) 0.1560(3)
H19_2 H -0.2002 -0.4952 0.2038
H20_2 H -0.3165 -0.5091 0.1329
C11_2 C -0.2442(6) -1.1876(4) 0.2727(3)
C12_2 C -0.3128(7) -1.2251(6) 0.3243(3)
H21_2 H -0.4135 -1.2383 0.3142
C13_2 C -0.2287(9) -1.2432(8) 0.3927(4)
H22_2 H -0.2753 -1.2662 0.4280
C14_2 C -0.0836(8) -1.2284(6) 0.4082(3)
H23_2 H -0.0297 -1.2428 0.4535
C15_2 C -0.0145(7) -1.1917(5) 0.3566(3)
H24_2 H 0.0864 -1.1802 0.3672
C16_2 C -0.0937(6) -1.1719(5) 0.2897(3)
H25_2 H -0.0457 -1.1475 0.2551
C23_2 C 0.0804(5) -0.4584(4) 0.1671(3)
C24_2 C 0.1081(7) -0.4393(5) 0.2386(3)
H31_2 H 0.0319 -0.4189 0.2598
C25_2 C 0.2486(9) -0.4507(6) 0.2782(4)
H32_2 H 0.2657 -0.4384 0.3263
C26_2 C 0.3623(9) -0.4790(7) 0.2494(6)
H33_2 H 0.4569 -0.4855 0.2769
C27_2 C 0.3339(8) -0.4983(8) 0.1771(6)
H34_2 H 0.4110 -0.5175 0.1563
C28_2 C 0.1946(7) -0.4897(6) 0.1360(3)
H35_2 H 0.1771 -0.5045 0.0881
Ag1_2 Ag -0.17225(2) -1.19089(4) 0.101330(17)
Ag1_3 Ag -1.17225(2) -0.19089(4) 0.101330(17)
Ag1_4 Ag 0.82775(2) -0.19089(4) 0.101330(17)
Ag1_5 Ag -0.17225(2) 0.80911(4) 0.101330(17)
S1_3 S 0.65042(15) -0.16018(12) 0.18588(7)
S2_3 S 1.01890(15) -0.01114(14) 0.09152(8)
S4_3 S 0.90410(16) -0.43631(12) 0.11148(7)
P1 P -0.59254(18) -0.71400(16) 0.99063(8)
F1 F -0.5117(6) -0.6002(5) 1.0371(3)
F2 F -0.7314(5) -0.6245(6) 0.9679(3)
F3 F -0.6383(8) -0.7709(6) 1.0564(2)
F4 F -0.6742(7) -0.8298(5) 0.9455(3)
F5 F -0.4540(7) -0.8032(5) 1.0122(3)
F6 F -0.5396(7) -0.6642(6) 0.9245(3)
loop_
_geom_bond_atom_site_label_1
_geom_bond_atom_site_label_2
_geom_bond_site_symmetry_1
_geom_bond_site_symmetry_2
Ag1 S1 1_555 1_555
S1 C4 1_555 1_555
S2 Ag1 1_555 1_555
S3 C9 1_555 1_555
S4 C10 1_555 1_555
C1 H1 1_555 1_555
H2 C1 1_555 1_555
C2 C1 1_555 1_555
H3 C2 1_555 1_555
H4 C2 1_555 1_555
C3 C2 1_555 1_555
H5 C3 1_555 1_555
H6 C3 1_555 1_555
C4 C3 1_555 1_555
H7 C4 1_555 1_555
H8 C4 1_555 1_555
C5 S2 1_555 1_555
H9 C5 1_555 1_555
H10 C5 1_555 1_555
C6 C5 1_555 1_555
H11 C6 1_555 1_555
H12 C6 1_555 1_555
C7 C6 1_555 1_555
H13 C7 1_555 1_555
H14 C7 1_555 1_555
C8 C7 1_555 1_555
H15 C8 1_555 1_555
H16 C8 1_555 1_555
C9 C8 1_555 1_555
H17 C9 1_555 1_555
H18 C9 1_555 1_555
C10 C1 1_555 1_555
H19 C10 1_555 1_555
H20 C10 1_555 1_555
C11 S1 1_555 1_555
C12 C11 1_555 1_555
H21 C12 1_555 1_555
C13 C12 1_555 1_555
H22 C13 1_555 1_555
C14 C13 1_555 1_555
H23 C14 1_555 1_555
C15 C14 1_555 1_555
H24 C15 1_555 1_555
C16 C11 1_555 1_555
H25 C16 1_555 1_555
C17 S2 1_555 1_555
C18 C17 1_555 1_555
H26 C18 1_555 1_555
C19 C18 1_555 1_555
H27 C19 1_555 1_555
C20 C19 1_555 1_555
H28 C20 1_555 1_555
C21 C20 1_555 1_555
H29 C21 1_555 1_555
C22 C17 1_555 1_555
H30 C22 1_555 1_555
C23 S4 1_555 1_555
C24 C23 1_555 1_555
H31 C24 1_555 1_555
C25 C24 1_555 1_555
H32 C25 1_555 1_555
C26 C25 1_555 1_555
H33 C26 1_555 1_555
C27 C26 1_555 1_555
H34 C27 1_555 1_555
C28 C23 1_555 1_555
H35 C28 1_555 1_555
C29 S3 1_555 1_555
C30 C29 1_555 1_555
H36 C30 1_555 1_555
C31 C30 1_555 1_555
H37 C31 1_555 1_555
C32 C31 1_555 1_555
H38 C32 1_555 1_555
C33 C32 1_555 1_555
H39 C33 1_555 1_555
C34 C29 1_555 1_555
H40 C34 1_555 1_555
P1 F1 1_555 1_555
F2 P1 1_555 1_555
F3 P1 1_555 1_555
F4 P1 1_555 1_555
F5 P1 1_555 1_555
F6 P1 1_555 1_555
S2_2 C5_2 1_555 1_555
S3_2 Ag1 1_555 1_555
C5_2 H9_2 1_555 1_555
H10_2 C5_2 1_555 1_555
C6_2 C5_2 1_555 1_555
H11_2 C6_2 1_555 1_555
H12_2 C6_2 1_555 1_555
C7_2 C6_2 1_555 1_555
H13_2 C7_2 1_555 1_555
H14_2 C7_2 1_555 1_555
C8_2 C7_2 1_555 1_555
H15_2 C8_2 1_555 1_555
H16_2 C8_2 1_555 1_555
C9_2 S3_2 1_555 1_555
H17_2 C9_2 1_555 1_555
H18_2 C9_2 1_555 1_555
C17_2 S2_2 1_555 1_555
C18_2 C17_2 1_555 1_555
H26_2 C18_2 1_555 1_555
C19_2 C18_2 1_555 1_555
H27_2 C19_2 1_555 1_555
C20_2 C19_2 1_555 1_555
H28_2 C20_2 1_555 1_555
C21_2 C20_2 1_555 1_555
H29_2 C21_2 1_555 1_555
C22_2 C17_2 1_555 1_555
H30_2 C22_2 1_555 1_555
C29_2 S3_2 1_555 1_555
C30_2 C29_2 1_555 1_555
H36_2 C30_2 1_555 1_555
C31_2 C30_2 1_555 1_555
H37_2 C31_2 1_555 1_555
C32_2 C31_2 1_555 1_555
H38_2 C32_2 1_555 1_555
C33_2 C32_2 1_555 1_555
H39_2 C33_2 1_555 1_555
C34_2 C29_2 1_555 1_555
H40_2 C34_2 1_555 1_555
S1_2 C4_2 1_555 1_555
S4_2 Ag1 1_555 1_555
C1_2 H1_2 1_555 1_555
H2_2 C1_2 1_555 1_555
C2_2 C1_2 1_555 1_555
H3_2 C2_2 1_555 1_555
H4_2 C2_2 1_555 1_555
C3_2 C2_2 1_555 1_555
H5_2 C3_2 1_555 1_555
H6_2 C3_2 1_555 1_555
C4_2 C3_2 1_555 1_555
H7_2 C4_2 1_555 1_555
H8_2 C4_2 1_555 1_555
C10_2 S4_2 1_555 1_555
H19_2 C10_2 1_555 1_555
H20_2 C10_2 1_555 1_555
C11_2 S1_2 1_555 1_555
C12_2 C11_2 1_555 1_555
H21_2 C12_2 1_555 1_555
C13_2 C12_2 1_555 1_555
H22_2 C13_2 1_555 1_555
C14_2 C13_2 1_555 1_555
H23_2 C14_2 1_555 1_555
C15_2 C14_2 1_555 1_555
H24_2 C15_2 1_555 1_555
C16_2 C11_2 1_555 1_555
H25_2 C16_2 1_555 1_555
C23_2 S4_2 1_555 1_555
C24_2 C23_2 1_555 1_555
H31_2 C24_2 1_555 1_555
C25_2 C24_2 1_555 1_555
H32_2 C25_2 1_555 1_555
C26_2 C25_2 1_555 1_555
H33_2 C26_2 1_555 1_555
C27_2 C26_2 1_555 1_555
H34_2 C27_2 1_555 1_555
C28_2 C23_2 1_555 1_555
H35_2 C28_2 1_555 1_555
Ag1_2 S1_2 1_555 1_555
Ag1_3 S2_2 1_555 1_555
Ag1_4 S3 1_555 1_555
Ag1_5 S4 1_555 1_555
S1_3 Ag1_4 1_555 1_555
S2_3 Ag1_4 1_555 1_555
S4_3 Ag1_4 1_555 1_555
C15 C16 1_555 1_555
C21 C22 1_555 1_555
C27 C28 1_555 1_555
C33 C34 1_555 1_555
C8_2 C9_2 1_555 1_555
C21_2 C22_2 1_555 1_555
C33_2 C34_2 1_555 1_555
C1_2 C10_2 1_555 1_555
C15_2 C16_2 1_555 1_555
C27_2 C28_2 1_555 1_555

#END
