
#######################################################################
#
#                 Cambridge Crystallographic Data Centre
#                                CCDC 
#
#######################################################################
#
# If this CIF has been generated from an entry in the Cambridge 
# Structural Database, then it will include bibliographic, chemical, 
# crystal, experimental, refinement or atomic coordinate data resulting 
# from the CCDC's data processing and validation procedures.
#
#######################################################################

data_ICADEX
_symmetry_cell_setting           orthorhombic
_symmetry_space_group_name_H-M   'P b c a'
_symmetry_Int_Tables_number      61
_space_group_name_Hall           '-P 2ac 2ab'
loop_
_symmetry_equiv_pos_site_id
_symmetry_equiv_pos_as_xyz
1 x,y,z
2 1/2-x,-y,1/2+z
3 -x,1/2+y,1/2-z
4 1/2+x,1/2-y,-z
5 -x,-y,-z
6 1/2+x,y,1/2-z
7 x,1/2-y,1/2+z
8 1/2-x,1/2+y,z
_cell_length_a                   6.81330(10)
_cell_length_b                   10.6817(2)
_cell_length_c                   23.2105(4)
_cell_angle_alpha                90
_cell_angle_beta                 90
_cell_angle_gamma                90
_cell_volume                     1689.21
loop_
_atom_site_label
_atom_site_type_symbol
_atom_site_fract_x
_atom_site_fract_y
_atom_site_fract_z
Cu1 Cu 0.10924(3) 0.89009(2) 0.300361(9)
S1 S -0.05868(5) 0.94660(3) 0.214702(15)
O1 O 0.10290(17) 0.82904(11) 0.47135(5)
N1 N -0.0793(2) 1.20932(13) 0.20414(5)
N2 N 0.01770(19) 0.99108(11) 0.37468(5)
C1 C -0.0704(2) 1.10144(15) 0.20959(7)
C2 C 0.1820(2) 1.01435(14) 0.41527(6)
H1 H 0.1370 1.0698 0.4468
H2 H 0.2906 1.0569 0.3948
C3 C 0.2546(3) 0.89151(15) 0.44018(7)
H3 H 0.3011 0.8368 0.4086
H4 H 0.3668 0.9078 0.4662
C4 C -0.0603(3) 0.80564(16) 0.43421(7)
H5 H -0.1664 0.7649 0.4565
H6 H -0.0196 0.7473 0.4033
C5 C -0.1384(2) 0.92534(15) 0.40730(7)
H7 H -0.2484 0.9050 0.3811
H8 H -0.1892 0.9811 0.4379
C6 C -0.0602(3) 1.11304(14) 0.35490(7)
H9 H -0.1740 1.0991 0.3299
H10 H 0.0418 1.1578 0.3334
H11 H -0.0998 1.1631 0.3883
Cu1B Cu -0.10924(3) 1.39009(2) 0.199639(9)
Cu1E Cu -0.39076(3) 0.89009(2) 0.199639(9)
S1E S 0.44132(5) 0.94660(3) 0.285298(15)
N1B N 0.0793(2) 0.70932(13) 0.29586(5)
loop_
_geom_bond_atom_site_label_1
_geom_bond_atom_site_label_2
_geom_bond_site_symmetry_1
_geom_bond_site_symmetry_2
Cu1 S1 1_555 1_555
S1 C1 1_555 1_555
O1 C3 1_555 1_555
N1 C1 1_555 1_555
N2 Cu1 1_555 1_555
C2 N2 1_555 1_555
H1 C2 1_555 1_555
H2 C2 1_555 1_555
C3 C2 1_555 1_555
H3 C3 1_555 1_555
H4 C3 1_555 1_555
C4 O1 1_555 1_555
H5 C4 1_555 1_555
H6 C4 1_555 1_555
C5 N2 1_555 1_555
H7 C5 1_555 1_555
H8 C5 1_555 1_555
C6 N2 1_555 1_555
H9 C6 1_555 1_555
H10 C6 1_555 1_555
H11 C6 1_555 1_555
Cu1B N1 1_555 1_555
Cu1E S1 1_555 1_555
S1E Cu1 1_555 1_555
N1B Cu1 1_555 1_555
C4 C5 1_555 1_555

#END
