
#######################################################################
#
#                 Cambridge Crystallographic Data Centre
#                                CCDC 
#
#######################################################################
#
# If this CIF has been generated from an entry in the Cambridge 
# Structural Database, then it will include bibliographic, chemical, 
# crystal, experimental, refinement or atomic coordinate data resulting 
# from the CCDC's data processing and validation procedures.
#
#######################################################################

data_ICADIB
_symmetry_cell_setting           orthorhombic
_symmetry_space_group_name_H-M   'P n m a'
_symmetry_Int_Tables_number      62
_space_group_name_Hall           '-P 2ac 2n'
loop_
_symmetry_equiv_pos_site_id
_symmetry_equiv_pos_as_xyz
1 x,y,z
2 1/2-x,-y,1/2+z
3 -x,1/2+y,-z
4 1/2+x,1/2-y,1/2-z
5 -x,-y,-z
6 1/2+x,y,1/2-z
7 x,1/2-y,z
8 1/2-x,1/2+y,1/2+z
_cell_length_a                   11.5188(4)
_cell_length_b                   17.8699(6)
_cell_length_c                   5.6997(2)
_cell_angle_alpha                90
_cell_angle_beta                 90
_cell_angle_gamma                90
_cell_volume                     1173.23
loop_
_atom_site_label
_atom_site_type_symbol
_atom_site_fract_x
_atom_site_fract_y
_atom_site_fract_z
Cu1 Cu 0.33040(2) 0.7500 0.11392(5)
S1 S 0.15711(4) 0.7500 0.86742(8)
O1 O 0.40005(8) 0.53272(6) 0.28082(18)
N1 N 0.27825(15) 0.7500 0.4375(3)
N2 N 0.42722(10) 0.65827(6) -0.0263(2)
H1 H 0.4611 0.6754 -0.1643
C1 C 0.22901(17) 0.7500 0.6156(3)
C2 C 0.52362(12) 0.63148(8) 0.1247(2)
H2 H 0.5734 0.6742 0.1709
H3 H 0.5719 0.5952 0.0370
C3 C 0.47368(13) 0.59459(8) 0.3409(3)
H4 H 0.5378 0.5767 0.4419
H5 H 0.4284 0.6319 0.4312
C4 C 0.30829(13) 0.55729(8) 0.1303(3)
H6 H 0.2597 0.5942 0.2146
H7 H 0.2586 0.5141 0.0888
C5 C 0.35546(12) 0.59243(8) -0.0914(3)
H8 H 0.4033 0.5556 -0.1782
H9 H 0.2906 0.6083 -0.1941
Cu1_2 Cu 0.33040(2) 0.7500 1.11392(5)
S1_2 S 0.15711(4) 0.7500 -0.13258(8)
O1F O 0.40005(8) 0.96728(6) 0.28082(18)
N2F N 0.42722(10) 0.84173(6) -0.0263(2)
H1F H 0.4611 0.8246 -0.1643
C2F C 0.52362(12) 0.86852(8) 0.1247(2)
H2F H 0.5734 0.8258 0.1709
H3F H 0.5719 0.9048 0.0370
C3F C 0.47368(13) 0.90541(8) 0.3409(3)
H4F H 0.5378 0.9233 0.4419
H5F H 0.4284 0.8681 0.4312
C4F C 0.30829(13) 0.94271(8) 0.1303(3)
H6F H 0.2597 0.9058 0.2146
H7F H 0.2586 0.9859 0.0888
C5F C 0.35546(12) 0.90757(8) -0.0914(3)
H8F H 0.4033 0.9444 -0.1782
H9F H 0.2906 0.8917 -0.1941
loop_
_geom_bond_atom_site_label_1
_geom_bond_atom_site_label_2
_geom_bond_site_symmetry_1
_geom_bond_site_symmetry_2
Cu1 N1 1_555 1_555
S1 C1 1_555 1_555
O1 C3 1_555 1_555
N1 C1 1_555 1_555
N2 Cu1 1_555 1_555
H1 N2 1_555 1_555
C2 N2 1_555 1_555
H2 C2 1_555 1_555
H3 C2 1_555 1_555
C3 C2 1_555 1_555
H4 C3 1_555 1_555
H5 C3 1_555 1_555
C4 O1 1_555 1_555
H6 C4 1_555 1_555
H7 C4 1_555 1_555
C5 N2 1_555 1_555
H8 C5 1_555 1_555
H9 C5 1_555 1_555
Cu1_2 S1 1_555 1_555
S1_2 Cu1 1_555 1_555
O1F C3F 1_555 1_555
N2F Cu1 1_555 1_555
H1F N2F 1_555 1_555
C2F N2F 1_555 1_555
H2F C2F 1_555 1_555
H3F C2F 1_555 1_555
C3F C2F 1_555 1_555
H4F C3F 1_555 1_555
H5F C3F 1_555 1_555
C4F O1F 1_555 1_555
H6F C4F 1_555 1_555
H7F C4F 1_555 1_555
C5F N2F 1_555 1_555
H8F C5F 1_555 1_555
H9F C5F 1_555 1_555
C4 C5 1_555 1_555
C4F C5F 1_555 1_555

#END
