
#######################################################################
#
#                 Cambridge Crystallographic Data Centre
#                                CCDC 
#
#######################################################################
#
# If this CIF has been generated from an entry in the Cambridge 
# Structural Database, then it will include bibliographic, chemical, 
# crystal, experimental, refinement or atomic coordinate data resulting 
# from the CCDC's data processing and validation procedures.
#
#######################################################################

data_ICAGUQ
_symmetry_cell_setting           monoclinic
_symmetry_space_group_name_H-M   'P 21/c'
_symmetry_Int_Tables_number      14
_space_group_name_Hall           '-P 2ybc'
loop_
_symmetry_equiv_pos_site_id
_symmetry_equiv_pos_as_xyz
1 x,y,z
2 -x,1/2+y,1/2-z
3 -x,-y,-z
4 x,1/2-y,1/2+z
_cell_length_a                   11.3620(3)
_cell_length_b                   15.3393(4)
_cell_length_c                   7.5356(2)
_cell_angle_alpha                90
_cell_angle_beta                 90.0090(10)
_cell_angle_gamma                90
_cell_volume                     1313.34
loop_
_atom_site_label
_atom_site_type_symbol
_atom_site_fract_x
_atom_site_fract_y
_atom_site_fract_z
Mn1 Mn -0.072903(18) 0.626741(13) 0.20765(3)
C1 C 0.19393(13) 0.63594(9) 0.11787(19)
C2 C 0.29122(12) 0.63423(9) -0.01800(19)
C3 C 0.26910(13) 0.65136(10) -0.19584(19)
H1 H 0.1935 0.6666 -0.2314
C4 C 0.35794(13) 0.64602(10) -0.32085(19)
H2 H 0.3416 0.6577 -0.4394
C5 C 0.47213(13) 0.62318(8) -0.26986(19)
C6 C 0.49459(13) 0.60792(10) -0.0903(2)
H3 H 0.5704 0.5936 -0.0539
C7 C 0.40541(13) 0.61389(10) 0.03400(19)
H4 H 0.4219 0.6042 0.1533
C8 C 0.56887(12) 0.61747(9) -0.40070(19)
C9 C 0.57048(13) 0.66832(10) -0.5545(2)
H5 H 0.5070 0.7042 -0.5815
C10 C 0.66645(13) 0.66517(11) -0.6659(2)
H6 H 0.6659 0.7001 -0.7669
C11 C 0.75707(14) 0.56358(10) -0.4923(2)
H7 H 0.8203 0.5265 -0.4711
C12 C 0.66499(13) 0.56324(10) -0.3738(2)
H8 H 0.6672 0.5266 -0.2755
O1 O 0.08879(9) 0.63525(7) 0.05865(14)
O2 O 0.22107(10) 0.63615(8) 0.27762(15)
O3 O -0.04763(12) 0.48620(8) 0.21377(16)
H9 H -0.0631(19) 0.4522(14) 0.133(3)
H10 H -0.042(2) 0.4618(15) 0.299(3)
O4 O 0.02968(10) 0.62228(7) 0.46573(14)
H11 H 0.0076(17) 0.6626(11) 0.531(2)
H12 H 0.0948(14) 0.6335(12) 0.419(3)
N1 N 0.76061(11) 0.61444(8) -0.63663(17)
N2 N -0.08326(12) 0.77249(9) 0.23054(17)
N3 N -0.12495(11) 0.81622(8) 0.34242(15)
N4 N -0.16681(12) 0.86079(9) 0.45103(18)
N1_2 N -0.23939(11) 0.61444(8) 0.36337(17)
N4C N -0.16681(12) 0.63921(9) -0.04897(18)
Mn1_2 Mn 0.927097(18) 0.626741(13) -0.79235(3)
Mn1C Mn -0.072903(18) 0.873259(13) 0.70765(3)
loop_
_geom_bond_atom_site_label_1
_geom_bond_atom_site_label_2
_geom_bond_site_symmetry_1
_geom_bond_site_symmetry_2
Mn1 O1 1_555 1_555
C1 C2 1_555 1_555
C2 C3 1_555 1_555
C3 H1 1_555 1_555
C4 C3 1_555 1_555
H2 C4 1_555 1_555
C5 C4 1_555 1_555
C6 C5 1_555 1_555
H3 C6 1_555 1_555
C7 C2 1_555 1_555
H4 C7 1_555 1_555
C8 C5 1_555 1_555
C9 C8 1_555 1_555
H5 C9 1_555 1_555
C10 C9 1_555 1_555
H6 C10 1_555 1_555
C11 H7 1_555 1_555
C12 C8 1_555 1_555
H8 C12 1_555 1_555
O1 C1 1_555 1_555
O2 C1 1_555 1_555
O3 Mn1 1_555 1_555
H9 O3 1_555 1_555
H10 O3 1_555 1_555
O4 Mn1 1_555 1_555
H11 O4 1_555 1_555
H12 O4 1_555 1_555
N1 C10 1_555 1_555
N2 Mn1 1_555 1_555
N3 N2 1_555 1_555
N4 N3 1_555 1_555
N1_2 Mn1 1_555 1_555
N4C Mn1 1_555 1_555
Mn1_2 N1 1_555 1_555
Mn1C N4 1_555 1_555
C6 C7 1_555 1_555
C11 N1 1_555 1_555
C11 C12 1_555 1_555

#END
