
#######################################################################
#
#                 Cambridge Crystallographic Data Centre
#                                CCDC 
#
#######################################################################
#
# If this CIF has been generated from an entry in the Cambridge 
# Structural Database, then it will include bibliographic, chemical, 
# crystal, experimental, refinement or atomic coordinate data resulting 
# from the CCDC's data processing and validation procedures.
#
#######################################################################

data_ICAGEZ
_symmetry_cell_setting           orthorhombic
_symmetry_space_group_name_H-M   'P b c a'
_symmetry_Int_Tables_number      61
_space_group_name_Hall           '-P 2ac 2ab'
loop_
_symmetry_equiv_pos_site_id
_symmetry_equiv_pos_as_xyz
1 x,y,z
2 1/2+x,y,1/2-z
3 x,1/2-y,1/2+z
4 1/2-x,1/2+y,z
5 -x,-y,-z
6 1/2-x,-y,1/2+z
7 -x,1/2+y,1/2-z
8 1/2+x,1/2-y,-z
_cell_length_a                   20.694(4)
_cell_length_b                   7.627(2)
_cell_length_c                   24.512(5)
_cell_angle_alpha                90
_cell_angle_beta                 90
_cell_angle_gamma                90
_cell_volume                     3868.81
loop_
_atom_site_label
_atom_site_type_symbol
_atom_site_fract_x
_atom_site_fract_y
_atom_site_fract_z
Mn1 Mn 0.04575(2) 0.68414(6) 0.36978(2)
O1 O 0.05631(11) 0.9178(3) 0.42015(9)
O2 O 0.02666(10) 1.1936(3) 0.43272(9)
O3 O -0.00214(10) 1.1865(3) 0.30273(9)
O4 O 0.02378(11) 1.4638(3) 0.31840(10)
O5 O 0.23849(13) 1.4143(4) 0.22643(11)
O6 O 0.32409(12) 1.3149(5) 0.26614(12)
O7 O 0.34920(10) 1.1817(3) 0.35451(10)
O8 O 0.30283(11) 1.0585(4) 0.42575(10)
C1 C 0.11781(14) 1.1432(4) 0.37717(13)
C2 C 0.10398(15) 1.2495(4) 0.33258(13)
C3 C 0.15403(15) 1.3059(4) 0.29960(13)
H1 H 0.1441 1.3738 0.2692
C4 C 0.21831(15) 1.2665(4) 0.30958(13)
C5 C 0.23319(14) 1.1695(4) 0.35743(13)
C6 C 0.18174(15) 1.1064(4) 0.38863(13)
H2 H 0.1910 1.0361 0.4186
C7 C 0.06289(14) 1.0783(4) 0.41219(13)
C8 C 0.03646(14) 1.3031(4) 0.31764(12)
C9 C 0.26234(16) 1.3378(5) 0.26437(14)
C10 C 0.29954(15) 1.1322(4) 0.38091(14)
O9 O 0.03175(13) 0.8414(4) 0.29920(12)
O10 O 0.06821(14) 0.5302(4) 0.44244(11)
N1 N -0.39727(13) 0.6723(4) 0.43176(13)
H3 H -0.4385 0.6739 0.4364
N2 N -0.06167(12) 0.6791(4) 0.38963(12)
C11 C -0.35880(17) 0.6819(6) 0.47493(16)
H4 H -0.3766 0.6911 0.5097
C12 C -0.29308(17) 0.6786(6) 0.46864(16)
H5 H -0.2664 0.6838 0.4991
C13 C -0.37365(18) 0.6603(6) 0.38179(17)
H6 H -0.4017 0.6537 0.3522
C14 C -0.30822(17) 0.6576(6) 0.37325(16)
H7 H -0.2921 0.6492 0.3379
C15 C -0.26617(15) 0.6673(4) 0.41690(14)
C16 C -0.19496(15) 0.6678(4) 0.40823(13)
C17 C -0.15149(17) 0.7119(5) 0.44919(15)
H8 H -0.1665 0.7386 0.4840
C18 C -0.08639(17) 0.7159(5) 0.43834(15)
H9 H -0.0583 0.7458 0.4664
C19 C -0.16910(17) 0.6274(5) 0.35808(16)
H10 H -0.1960 0.5957 0.3293
C20 C -0.10302(17) 0.6339(6) 0.35058(16)
H11 H -0.0866 0.6052 0.3164
H12 H 0.0283(19) 0.809(5) 0.2690(17)
H13 H 0.021(2) 0.955(6) 0.2957(18)
H14 H 0.057(3) 0.416(9) 0.438(2)
H15 H 0.102(3) 0.527(7) 0.442(2)
H16 H 0.336(3) 1.261(8) 0.296(3)
O4_2 O 0.02378(11) 0.4638(3) 0.31840(10)
O7C O 0.15080(10) 0.6817(3) 0.35451(10)
Mn1_2 Mn 0.04575(2) 1.68414(6) 0.36978(2)
Mn1C Mn 0.45425(2) 1.18414(6) 0.36978(2)
loop_
_geom_bond_atom_site_label_1
_geom_bond_atom_site_label_2
_geom_bond_site_symmetry_1
_geom_bond_site_symmetry_2
Mn1 O1 1_555 1_555
O1 C7 1_555 1_555
O2 C7 1_555 1_555
O3 C8 1_555 1_555
O4 C8 1_555 1_555
O5 C9 1_555 1_555
O6 C9 1_555 1_555
O7 C10 1_555 1_555
O8 C10 1_555 1_555
C1 C2 1_555 1_555
C2 C3 1_555 1_555
C3 H1 1_555 1_555
C4 C3 1_555 1_555
C5 C4 1_555 1_555
C6 C1 1_555 1_555
H2 C6 1_555 1_555
C7 C1 1_555 1_555
C8 C2 1_555 1_555
C9 C4 1_555 1_555
C10 C5 1_555 1_555
O9 Mn1 1_555 1_555
O10 Mn1 1_555 1_555
N1 H3 1_555 1_555
N2 Mn1 1_555 1_555
C11 N1 1_555 1_555
H4 C11 1_555 1_555
C12 C11 1_555 1_555
H5 C12 1_555 1_555
C13 N1 1_555 1_555
H6 C13 1_555 1_555
C14 C13 1_555 1_555
H7 C14 1_555 1_555
C15 C12 1_555 1_555
C16 C15 1_555 1_555
C17 C16 1_555 1_555
H8 C17 1_555 1_555
C18 N2 1_555 1_555
H9 C18 1_555 1_555
C19 C16 1_555 1_555
H10 C19 1_555 1_555
C20 N2 1_555 1_555
H11 C20 1_555 1_555
H12 O9 1_555 1_555
H13 O9 1_555 1_555
H14 O10 1_555 1_555
H15 O10 1_555 1_555
H16 O6 1_555 1_555
O4_2 Mn1 1_555 1_555
O7C Mn1 1_555 1_555
Mn1_2 O4 1_555 1_555
Mn1C O7 1_555 1_555
C5 C6 1_555 1_555
C14 C15 1_555 1_555
C17 C18 1_555 1_555
C19 C20 1_555 1_555

#END
