
#######################################################################
#
#                 Cambridge Crystallographic Data Centre
#                                CCDC 
#
#######################################################################
#
# If this CIF has been generated from an entry in the Cambridge 
# Structural Database, then it will include bibliographic, chemical, 
# crystal, experimental, refinement or atomic coordinate data resulting 
# from the CCDC's data processing and validation procedures.
#
#######################################################################

data_ICAKED
_symmetry_cell_setting           monoclinic
_symmetry_space_group_name_H-M   'P 21/a'
_symmetry_Int_Tables_number      14
_space_group_name_Hall           '-P 2yab'
loop_
_symmetry_equiv_pos_site_id
_symmetry_equiv_pos_as_xyz
1 x,y,z
2 1/2+x,1/2-y,z
3 -x,-y,-z
4 1/2-x,1/2+y,-z
_cell_length_a                   8.2320(2)
_cell_length_b                   19.3486(5)
_cell_length_c                   12.9429(3)
_cell_angle_alpha                90
_cell_angle_beta                 96.38(7)
_cell_angle_gamma                90
_cell_volume                     2048.75
loop_
_atom_site_label
_atom_site_type_symbol
_atom_site_fract_x
_atom_site_fract_y
_atom_site_fract_z
Mn1 Mn 0.16672(4) 0.06846(2) -0.17323(2)
N1 N -0.0716(2) 0.0190(1) -0.1334(1)
N2 N -0.1997(2) -0.0382(1) -0.0018(1)
C1 C -0.0748(3) -0.0053(1) -0.0372(1)
C2 C -0.3330(3) -0.0472(1) -0.0701(2)
C3 C -0.3404(3) -0.0242(2) -0.1706(2)
C4 C -0.2066(3) 0.0091(2) -0.1997(2)
O1 O 0.2378(2) 0.3827(1) 0.0343(1)
O2 O 0.3044(2) 0.2700(1) 0.0586(1)
N3 N 0.0846(3) 0.1711(1) -0.1255(2)
N4 N -0.0867(3) 0.3861(1) -0.1689(2)
C5 C 0.0967(3) 0.2286(1) -0.1045(2)
C6 C 0.1128(3) 0.2985(1) -0.0784(2)
C7 C 0.0042(3) 0.3466(1) -0.1294(2)
C8 C 0.2232(3) 0.3221(1) 0.0080(2)
C9 C 0.4144(4) 0.2880(2) 0.1510(2)
C10 C 0.4557(4) 0.2228(2) 0.2086(2)
O3 O -0.3124(3) 0.0995(1) -0.6258(1)
O4 O -0.3124(3) 0.0939(2) -0.4520(1)
N5 N 0.0749(3) 0.0826(1) -0.3336(2)
N6 N 0.1159(4) 0.1100(2) -0.6644(2)
C11 C 0.0119(3) 0.0891(2) -0.4163(2)
C12 C -0.0633(3) 0.0960(2) -0.5173(2)
C13 C 0.0359(4) 0.1036(2) -0.5991(2)
C14 C -0.2361(4) 0.0967(2) -0.5390(2)
C15 C -0.4894(4) 0.1028(3) -0.4616(3)
C16 C -0.5289(6) 0.1767(4) -0.4535(5)
O5 O 0.2580(2) -0.03352(9) -0.1995(1)
H1 H 0.2555 -0.0698 -0.1485
H2 H 0.2480 -0.0587 -0.2670
H3 H -0.4250 -0.0702 -0.0480
H4 H -0.4353 -0.0313 -0.2183
H5 H -0.2093 0.0259 -0.2688
H6 H 0.3619 0.3191 0.1933
H7 H 0.5109 0.3088 0.1313
H8 H 0.5275 0.2326 0.2695
H9 H 0.3585 0.2022 0.2276
H10 H 0.5075 0.1919 0.1656
H11 H -0.5358 0.0857 -0.5270
H12 H -0.5329 0.0781 -0.4075
H13 H -0.6442 0.1824 -0.4598
H14 H -0.4855 0.2014 -0.5076
H15 H -0.4826 0.1939 -0.3881
C1B C 0.0748(3) 0.0053(1) 0.0372(1)
N1B N 0.0716(2) -0.0190(1) 0.1334(1)
C4B C 0.2066(3) -0.0091(2) 0.1997(2)
C3B C 0.3404(3) 0.0242(2) 0.1706(2)
C2B C 0.3330(3) 0.0472(1) 0.0701(2)
N2B N 0.1997(2) 0.0382(1) 0.0018(1)
H3B H 0.4250 0.0702 0.0480
H4B H 0.4353 0.0313 0.2183
H5B H 0.2093 -0.0259 0.2688
O1A O 0.7378(2) 0.1173(1) 0.0343(1)
O2A O 0.8044(2) 0.2300(1) 0.0586(1)
N3A N 0.5846(3) 0.3289(1) -0.1255(2)
N4A N 0.4133(3) 0.1139(1) -0.1689(2)
C5A C 0.5967(3) 0.2714(1) -0.1045(2)
C6A C 0.6128(3) 0.2015(1) -0.0784(2)
C7A C 0.5042(3) 0.1534(1) -0.1294(2)
C8A C 0.7232(3) 0.1779(1) 0.0080(2)
C9A C 0.9144(4) 0.2120(2) 0.1510(2)
C10A C 0.9557(4) 0.2772(2) 0.2086(2)
H6A H 0.8619 0.1809 0.1933
H7A H 1.0109 0.1912 0.1313
H8A H 1.0275 0.2674 0.2695
H9A H 0.8585 0.2978 0.2276
H10A H 1.0075 0.3081 0.1656
Mn1B Mn -0.16672(4) -0.06846(2) 0.17323(2)
O3B O 0.3124(3) -0.0995(1) 0.6258(1)
O4B O 0.3124(3) -0.0939(2) 0.4520(1)
N5B N -0.0749(3) -0.0826(1) 0.3336(2)
N6B N -0.1159(4) -0.1100(2) 0.6644(2)
C11B C -0.0119(3) -0.0891(2) 0.4163(2)
C12B C 0.0633(3) -0.0960(2) 0.5173(2)
C13B C -0.0359(4) -0.1036(2) 0.5991(2)
C14B C 0.2361(4) -0.0967(2) 0.5390(2)
C15B C 0.4894(4) -0.1028(3) 0.4616(3)
C16B C 0.5289(6) -0.1767(4) 0.4535(5)
H11B H 0.5358 -0.0857 0.5270
H12B H 0.5329 -0.0781 0.4075
H13B H 0.6442 -0.1824 0.4598
H14B H 0.4855 -0.2014 0.5076
H15B H 0.4826 -0.1939 0.3881
O5B O -0.2580(2) 0.03352(9) 0.1995(1)
H1B H -0.2555 0.0698 0.1485
H2B H -0.2480 0.0587 0.2670
Mn1A Mn -0.33328(4) 0.43154(2) -0.17323(2)
Mn1A_2 Mn 0.66672(4) 0.43154(2) -0.17323(2)
N3B N -0.0846(3) -0.1711(1) 0.1255(2)
N4C N -0.4133(3) -0.1139(1) 0.1689(2)
loop_
_geom_bond_atom_site_label_1
_geom_bond_atom_site_label_2
_geom_bond_site_symmetry_1
_geom_bond_site_symmetry_2
Mn1 N1 1_555 1_555
N1 C1 1_555 1_555
N2 C1 1_555 1_555
C1 C1B 1_555 1_555
C2 N2 1_555 1_555
C3 C2 1_555 1_555
C4 N1 1_555 1_555
O1 C8 1_555 1_555
O2 C8 1_555 1_555
N3 Mn1 1_555 1_555
N4 C7 1_555 1_555
C5 N3 1_555 1_555
C6 C5 1_555 1_555
C7 C6 1_555 1_555
C8 C6 1_555 1_555
C9 O2 1_555 1_555
C10 C9 1_555 1_555
O3 C14 1_555 1_555
O4 C14 1_555 1_555
N5 Mn1 1_555 1_555
N6 C13 1_555 1_555
C11 N5 1_555 1_555
C12 C11 1_555 1_555
C13 C12 1_555 1_555
C14 C12 1_555 1_555
C15 O4 1_555 1_555
C16 C15 1_555 1_555
O5 Mn1 1_555 1_555
H1 O5 1_555 1_555
H2 O5 1_555 1_555
H3 C2 1_555 1_555
H4 C3 1_555 1_555
H5 C4 1_555 1_555
H6 C9 1_555 1_555
H7 C9 1_555 1_555
H8 C10 1_555 1_555
H9 C10 1_555 1_555
H10 C10 1_555 1_555
H11 C15 1_555 1_555
H12 C15 1_555 1_555
H13 C16 1_555 1_555
H14 C16 1_555 1_555
H15 C16 1_555 1_555
C1B N1B 1_555 1_555
N1B C4B 1_555 1_555
C4B C3B 1_555 1_555
C3B C2B 1_555 1_555
C2B N2B 1_555 1_555
N2B Mn1 1_555 1_555
H3B C2B 1_555 1_555
H4B C3B 1_555 1_555
H5B C4B 1_555 1_555
O1A C8A 1_555 1_555
O2A C8A 1_555 1_555
N3A C5A 1_555 1_555
N4A Mn1 1_555 1_555
C5A C6A 1_555 1_555
C6A C7A 1_555 1_555
C7A N4A 1_555 1_555
C8A C6A 1_555 1_555
C9A O2A 1_555 1_555
C10A C9A 1_555 1_555
H6A C9A 1_555 1_555
H7A C9A 1_555 1_555
H8A C10A 1_555 1_555
H9A C10A 1_555 1_555
H10A C10A 1_555 1_555
Mn1B N2 1_555 1_555
O3B C14B 1_555 1_555
O4B C14B 1_555 1_555
N5B Mn1B 1_555 1_555
N6B C13B 1_555 1_555
C11B N5B 1_555 1_555
C12B C11B 1_555 1_555
C13B C12B 1_555 1_555
C14B C12B 1_555 1_555
C15B O4B 1_555 1_555
C16B C15B 1_555 1_555
H11B C15B 1_555 1_555
H12B C15B 1_555 1_555
H13B C16B 1_555 1_555
H14B C16B 1_555 1_555
H15B C16B 1_555 1_555
O5B Mn1B 1_555 1_555
H1B O5B 1_555 1_555
H2B O5B 1_555 1_555
Mn1A N4 1_555 1_555
Mn1A_2 N3A 1_555 1_555
N3B Mn1B 1_555 1_555
N4C Mn1B 1_555 1_555
C3 C4 1_555 1_555
C1B N2B 1_555 1_555
N1B Mn1B 1_555 1_555

#END
