
#######################################################################
#
#                 Cambridge Crystallographic Data Centre
#                                CCDC 
#
#######################################################################
#
# If this CIF has been generated from an entry in the Cambridge 
# Structural Database, then it will include bibliographic, chemical, 
# crystal, experimental, refinement or atomic coordinate data resulting 
# from the CCDC's data processing and validation procedures.
#
#######################################################################

data_ICAKIH
_symmetry_cell_setting           monoclinic
_symmetry_space_group_name_H-M   'P 21/a'
_symmetry_Int_Tables_number      14
_space_group_name_Hall           '-P 2yab'
loop_
_symmetry_equiv_pos_site_id
_symmetry_equiv_pos_as_xyz
1 x,y,z
2 1/2+x,1/2-y,z
3 -x,-y,-z
4 1/2-x,1/2+y,-z
_cell_length_a                   8.1772(2)
_cell_length_b                   19.0699(5)
_cell_length_c                   12.7165(4)
_cell_angle_alpha                90
_cell_angle_beta                 96.9(1)
_cell_angle_gamma                90
_cell_volume                     1968.63
loop_
_atom_site_label
_atom_site_type_symbol
_atom_site_fract_x
_atom_site_fract_y
_atom_site_fract_z
Co1 Co 0.15494(3) 0.06707(2) -0.16648(2)
N1 N -0.0741(2) 0.0207(1) -0.1346(1)
N2 N -0.2009(2) -0.0383(1) -0.0008(1)
C1 C -0.0759(2) -0.0047(1) -0.0376(2)
C2 C -0.3376(3) -0.0458(1) -0.0699(2)
C3 C -0.3469(3) -0.0215(1) -0.1714(2)
C4 C -0.2120(3) 0.0122(1) -0.2021(2)
O1 O 0.2239(2) 0.38290(9) 0.0316(1)
O2 O 0.2919(2) 0.26868(9) 0.0588(1)
N3 N 0.0702(2) 0.1663(1) -0.1242(2)
N4 N -0.1119(2) 0.3850(1) -0.1689(2)
C5 C 0.0799(3) 0.2254(1) -0.1059(2)
C6 C 0.0950(3) 0.2968(1) -0.0810(2)
C7 C -0.0174(3) 0.3449(1) -0.1313(2)
C8 C 0.2084(3) 0.3211(1) 0.0064(2)
C9 C 0.4035(3) 0.2880(2) 0.1529(2)
C10 C 0.4490(4) 0.2219(2) 0.2126(2)
O3 O -0.3112(2) 0.0964(1) -0.6270(1)
O4 O -0.3124(2) 0.0923(1) -0.4496(2)
N5 N 0.0771(2) 0.0833(1) -0.3250(2)
N6 N 0.1187(3) 0.1090(2) -0.6633(2)
C11 C 0.0147(3) 0.0893(1) -0.4098(2)
C12 C -0.0613(3) 0.0949(2) -0.5141(2)
C13 C 0.0391(3) 0.1020(2) -0.5967(2)
C14 C -0.2351(3) 0.0948(2) -0.5373(2)
C15 C -0.4900(4) 0.1029(3) -0.4611(3)
C16 C -0.5287(5) 0.1775(3) -0.4525(4)
O5 O 0.2477(2) -0.02992(8) -0.1972(1)
H1 H 0.2510 -0.0648 -0.1468
H2 H 0.2521 -0.0515 -0.2655
H3 H -0.4303 -0.0689 -0.0475
H4 H -0.4444 -0.0274 -0.2195
H5 H -0.2162 0.0298 -0.2722
H6 H 0.3497 0.3192 0.1957
H7 H 0.4992 0.3098 0.1327
H8 H 0.5216 0.2327 0.2745
H9 H 0.3524 0.2004 0.2321
H10 H 0.5019 0.1909 0.1691
H11 H -0.5361 0.0860 -0.5286
H12 H -0.5354 0.0775 -0.4072
H13 H -0.6449 0.1838 -0.4600
H14 H -0.4836 0.2031 -0.5062
H15 H -0.4829 0.1946 -0.3848
C1B C 0.0759(2) 0.0047(1) 0.0376(2)
N1B N 0.0741(2) -0.0207(1) 0.1346(1)
C4B C 0.2120(3) -0.0122(1) 0.2021(2)
C3B C 0.3469(3) 0.0215(1) 0.1714(2)
C2B C 0.3376(3) 0.0458(1) 0.0699(2)
N2B N 0.2009(2) 0.0383(1) 0.0008(1)
H3B H 0.4303 0.0689 0.0475
H4B H 0.4444 0.0274 0.2195
H5B H 0.2162 -0.0298 0.2722
O1A O 0.7239(2) 0.11710(9) 0.0316(1)
O2A O 0.7919(2) 0.23132(9) 0.0588(1)
N3A N 0.5702(2) 0.3337(1) -0.1242(2)
N4A N 0.3881(2) 0.1150(1) -0.1689(2)
C5A C 0.5799(3) 0.2746(1) -0.1059(2)
C6A C 0.5950(3) 0.2032(1) -0.0810(2)
C7A C 0.4826(3) 0.1551(1) -0.1313(2)
C8A C 0.7084(3) 0.1789(1) 0.0064(2)
C9A C 0.9035(3) 0.2120(2) 0.1529(2)
C10A C 0.9490(4) 0.2781(2) 0.2126(2)
H6A H 0.8497 0.1808 0.1957
H7A H 0.9992 0.1902 0.1327
H8A H 1.0216 0.2673 0.2745
H9A H 0.8524 0.2996 0.2321
H10A H 1.0019 0.3091 0.1691
Co1B Co -0.15494(3) -0.06707(2) 0.16648(2)
O3B O 0.3112(2) -0.0964(1) 0.6270(1)
O4B O 0.3124(2) -0.0923(1) 0.4496(2)
N5B N -0.0771(2) -0.0833(1) 0.3250(2)
N6B N -0.1187(3) -0.1090(2) 0.6633(2)
C11B C -0.0147(3) -0.0893(1) 0.4098(2)
C12B C 0.0613(3) -0.0949(2) 0.5141(2)
C13B C -0.0391(3) -0.1020(2) 0.5967(2)
C14B C 0.2351(3) -0.0948(2) 0.5373(2)
C15B C 0.4900(4) -0.1029(3) 0.4611(3)
C16B C 0.5287(5) -0.1775(3) 0.4525(4)
H11B H 0.5361 -0.0860 0.5286
H12B H 0.5354 -0.0775 0.4072
H13B H 0.6449 -0.1838 0.4600
H14B H 0.4836 -0.2031 0.5062
H15B H 0.4829 -0.1946 0.3848
O5B O -0.2477(2) 0.02992(8) 0.1972(1)
H1B H -0.2510 0.0648 0.1468
H2B H -0.2521 0.0515 0.2655
Co1A Co -0.34506(3) 0.43293(2) -0.16648(2)
Co1A_2 Co 0.65494(3) 0.43293(2) -0.16648(2)
N3B N -0.0702(2) -0.1663(1) 0.1242(2)
N4C N -0.3881(2) -0.1150(1) 0.1689(2)
loop_
_geom_bond_atom_site_label_1
_geom_bond_atom_site_label_2
_geom_bond_site_symmetry_1
_geom_bond_site_symmetry_2
Co1 N1 1_555 1_555
N1 C1 1_555 1_555
N2 C1 1_555 1_555
C1 C1B 1_555 1_555
C2 N2 1_555 1_555
C3 C2 1_555 1_555
C4 N1 1_555 1_555
O1 C8 1_555 1_555
O2 C8 1_555 1_555
N3 Co1 1_555 1_555
N4 C7 1_555 1_555
C5 N3 1_555 1_555
C6 C5 1_555 1_555
C7 C6 1_555 1_555
C8 C6 1_555 1_555
C9 O2 1_555 1_555
C10 C9 1_555 1_555
O3 C14 1_555 1_555
O4 C14 1_555 1_555
N5 Co1 1_555 1_555
N6 C13 1_555 1_555
C11 N5 1_555 1_555
C12 C11 1_555 1_555
C13 C12 1_555 1_555
C14 C12 1_555 1_555
C15 O4 1_555 1_555
C16 C15 1_555 1_555
O5 Co1 1_555 1_555
H1 O5 1_555 1_555
H2 O5 1_555 1_555
H3 C2 1_555 1_555
H4 C3 1_555 1_555
H5 C4 1_555 1_555
H6 C9 1_555 1_555
H7 C9 1_555 1_555
H8 C10 1_555 1_555
H9 C10 1_555 1_555
H10 C10 1_555 1_555
H11 C15 1_555 1_555
H12 C15 1_555 1_555
H13 C16 1_555 1_555
H14 C16 1_555 1_555
H15 C16 1_555 1_555
C1B N1B 1_555 1_555
N1B C4B 1_555 1_555
C4B C3B 1_555 1_555
C3B C2B 1_555 1_555
C2B N2B 1_555 1_555
N2B Co1 1_555 1_555
H3B C2B 1_555 1_555
H4B C3B 1_555 1_555
H5B C4B 1_555 1_555
O1A C8A 1_555 1_555
O2A C8A 1_555 1_555
N3A C5A 1_555 1_555
N4A Co1 1_555 1_555
C5A C6A 1_555 1_555
C6A C7A 1_555 1_555
C7A N4A 1_555 1_555
C8A C6A 1_555 1_555
C9A O2A 1_555 1_555
C10A C9A 1_555 1_555
H6A C9A 1_555 1_555
H7A C9A 1_555 1_555
H8A C10A 1_555 1_555
H9A C10A 1_555 1_555
H10A C10A 1_555 1_555
Co1B N2 1_555 1_555
O3B C14B 1_555 1_555
O4B C14B 1_555 1_555
N5B Co1B 1_555 1_555
N6B C13B 1_555 1_555
C11B N5B 1_555 1_555
C12B C11B 1_555 1_555
C13B C12B 1_555 1_555
C14B C12B 1_555 1_555
C15B O4B 1_555 1_555
C16B C15B 1_555 1_555
H11B C15B 1_555 1_555
H12B C15B 1_555 1_555
H13B C16B 1_555 1_555
H14B C16B 1_555 1_555
H15B C16B 1_555 1_555
O5B Co1B 1_555 1_555
H1B O5B 1_555 1_555
H2B O5B 1_555 1_555
Co1A N4 1_555 1_555
Co1A_2 N3A 1_555 1_555
N3B Co1B 1_555 1_555
N4C Co1B 1_555 1_555
C3 C4 1_555 1_555
C1B N2B 1_555 1_555
N1B Co1B 1_555 1_555

#END
