
#######################################################################
#
#                 Cambridge Crystallographic Data Centre
#                                CCDC 
#
#######################################################################
#
# If this CIF has been generated from an entry in the Cambridge 
# Structural Database, then it will include bibliographic, chemical, 
# crystal, experimental, refinement or atomic coordinate data resulting 
# from the CCDC's data processing and validation procedures.
#
#######################################################################

data_ICAMAC
_symmetry_cell_setting           orthorhombic
_symmetry_space_group_name_H-M   'A b a 2'
_symmetry_Int_Tables_number      41
_space_group_name_Hall           'A 2 -2ab'
loop_
_symmetry_equiv_pos_site_id
_symmetry_equiv_pos_as_xyz
1 x,y,z
2 -x,-y,z
3 1/2-x,1/2+y,z
4 1/2+x,1/2-y,z
5 x,1/2+y,1/2+z
6 -x,1/2-y,1/2+z
7 1/2-x,y,1/2+z
8 1/2+x,-y,1/2+z
_cell_length_a                   14.687(5)
_cell_length_b                   18.524(5)
_cell_length_c                   16.622(5)
_cell_angle_alpha                90
_cell_angle_beta                 90
_cell_angle_gamma                90
_cell_volume                     4522.21
loop_
_atom_site_label
_atom_site_type_symbol
_atom_site_fract_x
_atom_site_fract_y
_atom_site_fract_z
Zn1 Zn 0.60108(3) 0.82950(3) 0.87759(6)
O1 O 0.6279(2) 0.9619(2) 0.8704(4)
O2 O 0.8915(2) 1.2267(2) 0.8981(3)
N1 N 0.4897(3) 0.8392(2) 0.9536(3)
N2 N -0.0324(3) 0.8402(2) 1.2706(3)
C1 C 0.1032(3) 0.8339(3) 1.1542(4)
C2 C 1.0000 1.0000 1.0374(5)
H1 H 0.9836 0.9588 1.0724
O3 O 0.7088(2) 0.8773(2) 0.9248(3)
O4 O 0.7928(3) 1.1953(3) 0.8049(3)
C3 C 0.9187(3) 1.0203(3) 0.9864(3)
C4 C 0.8475(3) 0.9725(3) 0.9717(4)
H2 H 0.8486 0.9257 0.9952
C5 C 0.8429(3) 1.1086(3) 0.8991(3)
C6 C 0.2590(4) 0.8533(3) 1.1081(4)
H3 H 0.2666 0.8832 1.1541
C7 C 0.1796(4) 0.8236(3) 1.0991(3)
H4 H 0.1705 0.7933 1.0538
C8 C 0.0305(4) 0.7857(4) 1.1526(4)
H5 H 0.0258 0.7506 1.1110
C9 C 0.0314(4) 0.8879(3) 1.2667(4)
H6 H 0.0310 0.9255 1.3056
C10 C 0.1003(3) 0.8884(4) 1.2101(4)
H7 H 0.1447 0.9257 1.2099
C11 C 0.8396(3) 1.1817(3) 0.8645(5)
C12 C 0.7737(3) 0.9929(3) 0.9220(3)
C13 C 0.3464(3) 0.7919(3) 0.9954(3)
H8 H 0.3000 0.7567 0.9886
C14 C 0.3381(4) 0.8458(3) 1.0552(4)
C15 C 0.6956(3) 0.9411(3) 0.9031(4)
C16 C 0.7736(3) 1.0596(2) 0.8857(4)
H9 H 0.7250 1.0722 0.8507
C17 C -0.0350(3) 0.7896(4) 1.2128(4)
H10 H -0.0832 0.7554 1.2131
C18 C 0.9147(3) 1.0872(3) 0.9497(3)
H11 H 0.9629 1.1204 0.9592
C19 C 0.4092(5) 0.8948(5) 1.0603(5)
H12 H 0.4077 0.9311 1.1006
C20 C 0.4814(4) 0.8920(4) 1.0083(5)
H13 H 0.5268 0.9284 1.0111
C21 C 0.4209(4) 0.7911(3) 0.9483(4)
H14 H 0.4254 0.7542 0.9088
Zn1A Zn 1.39892(3) 1.17050(3) 0.87759(6)
Zn1B Zn 0.89892(3) 1.32950(3) 0.87759(6)
Zn1C Zn 1.10108(3) 0.67050(3) 0.87759(6)
Zn1F Zn -0.10108(3) 0.82950(3) 1.37759(6)
Zn1G Zn 2.10108(3) 1.17050(3) 1.37759(6)
O1A O 1.3721(2) 1.0381(2) 0.8704(4)
O2A O 1.1085(2) 0.7733(2) 0.8981(3)
O2B O 0.6085(2) 0.7267(2) 0.8981(3)
O2C O 1.3915(2) 1.2733(2) 0.8981(3)
N1A N 1.5103(3) 1.1608(2) 0.9536(3)
N2A N 2.0324(3) 1.1598(2) 1.2706(3)
N2F N 0.5324(3) 0.8402(2) 0.7706(3)
N2G N 1.4676(3) 1.1598(2) 0.7706(3)
C1A C 1.8968(3) 1.1661(3) 1.1542(4)
H1A H 1.0164 1.0412 1.0724
O3A O 1.2912(2) 1.1227(2) 0.9248(3)
O4A O 1.2072(3) 0.8047(3) 0.8049(3)
C3A C 1.0813(3) 0.9797(3) 0.9864(3)
C4A C 1.1525(3) 1.0275(3) 0.9717(4)
H2A H 1.1514 1.0743 0.9952
C5A C 1.1571(3) 0.8914(3) 0.8991(3)
C6A C 1.7410(4) 1.1467(3) 1.1081(4)
H3A H 1.7334 1.1168 1.1541
C7A C 1.8204(4) 1.1764(3) 1.0991(3)
H4A H 1.8295 1.2067 1.0538
C8A C 1.9695(4) 1.2143(4) 1.1526(4)
H5A H 1.9742 1.2494 1.1110
C9A C 1.9686(4) 1.1121(3) 1.2667(4)
H6A H 1.9690 1.0745 1.3056
C10A C 1.8997(3) 1.1116(4) 1.2101(4)
H7A H 1.8553 1.0743 1.2099
C11A C 1.1604(3) 0.8183(3) 0.8645(5)
C12A C 1.2263(3) 1.0071(3) 0.9220(3)
C13A C 1.6536(3) 1.2081(3) 0.9954(3)
H8A H 1.7000 1.2433 0.9886
C14A C 1.6619(4) 1.1542(3) 1.0552(4)
C15A C 1.3044(3) 1.0589(3) 0.9031(4)
C16A C 1.2264(3) 0.9404(2) 0.8857(4)
H9A H 1.2750 0.9278 0.8507
C17A C 2.0350(3) 1.2104(4) 1.2128(4)
H10A H 2.0832 1.2446 1.2131
C18A C 1.0853(3) 0.9128(3) 0.9497(3)
H11A H 1.0371 0.8796 0.9592
C19A C 1.5908(5) 1.1052(5) 1.0603(5)
H12A H 1.5923 1.0689 1.1006
C20A C 1.5186(4) 1.1080(4) 1.0083(5)
H13A H 1.4732 1.0716 1.0111
C21A C 1.5791(4) 1.2089(3) 0.9483(4)
H14A H 1.5746 1.2458 0.9088
loop_
_geom_bond_atom_site_label_1
_geom_bond_atom_site_label_2
_geom_bond_site_symmetry_1
_geom_bond_site_symmetry_2
Zn1 O1 1_555 1_555
O1 C15 1_555 1_555
O2 C11 1_555 1_555
N1 Zn1 1_555 1_555
N2 C9 1_555 1_555
C1 C7 1_555 1_555
C2 H1 1_555 1_555
O3 Zn1 1_555 1_555
O4 C11 1_555 1_555
C3 C2 1_555 1_555
C4 C3 1_555 1_555
H2 C4 1_555 1_555
C5 C11 1_555 1_555
C6 H3 1_555 1_555
C7 C6 1_555 1_555
H4 C7 1_555 1_555
C8 C1 1_555 1_555
H5 C8 1_555 1_555
C9 H6 1_555 1_555
C10 C1 1_555 1_555
H7 C10 1_555 1_555
C12 C4 1_555 1_555
C13 H8 1_555 1_555
C14 C6 1_555 1_555
C15 O3 1_555 1_555
C16 C5 1_555 1_555
H9 C16 1_555 1_555
C17 N2 1_555 1_555
H10 C17 1_555 1_555
C18 C3 1_555 1_555
H11 C18 1_555 1_555
C19 C14 1_555 1_555
H12 C19 1_555 1_555
C20 N1 1_555 1_555
H13 C20 1_555 1_555
C21 N1 1_555 1_555
H14 C21 1_555 1_555
Zn1A O1A 1_555 1_555
Zn1B O2 1_555 1_555
Zn1C O2A 1_555 1_555
Zn1F N2 1_555 1_555
Zn1G N2A 1_555 1_555
O1A C15A 1_555 1_555
O2A C11A 1_555 1_555
O2B Zn1 1_555 1_555
O2C Zn1A 1_555 1_555
N1A Zn1A 1_555 1_555
N2A C9A 1_555 1_555
N2F Zn1 1_555 1_555
N2G Zn1A 1_555 1_555
C1A C7A 1_555 1_555
H1A C2 1_555 1_555
O3A Zn1A 1_555 1_555
O4A C11A 1_555 1_555
C3A C2 1_555 1_555
C4A C3A 1_555 1_555
H2A C4A 1_555 1_555
C5A C11A 1_555 1_555
C6A H3A 1_555 1_555
C7A C6A 1_555 1_555
H4A C7A 1_555 1_555
C8A C1A 1_555 1_555
H5A C8A 1_555 1_555
C9A H6A 1_555 1_555
C10A C1A 1_555 1_555
H7A C10A 1_555 1_555
C12A C4A 1_555 1_555
C13A H8A 1_555 1_555
C14A C6A 1_555 1_555
C15A O3A 1_555 1_555
C16A C5A 1_555 1_555
H9A C16A 1_555 1_555
C17A N2A 1_555 1_555
H10A C17A 1_555 1_555
C18A C3A 1_555 1_555
H11A C18A 1_555 1_555
C19A C14A 1_555 1_555
H12A C19A 1_555 1_555
C20A N1A 1_555 1_555
H13A C20A 1_555 1_555
C21A N1A 1_555 1_555
H14A C21A 1_555 1_555
C5 C18 1_555 1_555
C8 C17 1_555 1_555
C9 C10 1_555 1_555
C12 C15 1_555 1_555
C12 C16 1_555 1_555
C13 C14 1_555 1_555
C13 C21 1_555 1_555
C19 C20 1_555 1_555
C5A C18A 1_555 1_555
C8A C17A 1_555 1_555
C9A C10A 1_555 1_555
C12A C15A 1_555 1_555
C12A C16A 1_555 1_555
C13A C14A 1_555 1_555
C13A C21A 1_555 1_555
C19A C20A 1_555 1_555

#END
