
#######################################################################
#
#                 Cambridge Crystallographic Data Centre
#                                CCDC 
#
#######################################################################
#
# If this CIF has been generated from an entry in the Cambridge 
# Structural Database, then it will include bibliographic, chemical, 
# crystal, experimental, refinement or atomic coordinate data resulting 
# from the CCDC's data processing and validation procedures.
#
#######################################################################

data_ICATUD
_symmetry_cell_setting           monoclinic
_symmetry_space_group_name_H-M   'C 2/c'
_symmetry_Int_Tables_number      15
_space_group_name_Hall           '-C 2yn'
loop_
_symmetry_equiv_pos_site_id
_symmetry_equiv_pos_as_xyz
1 x,y,z
2 -x,y,1/2-z
3 1/2+x,1/2+y,z
4 1/2-x,1/2+y,1/2-z
5 -x,-y,-z
6 x,-y,1/2+z
7 1/2-x,1/2-y,-z
8 1/2+x,1/2-y,1/2+z
_cell_length_a                   19.6382(19)
_cell_length_b                   17.2833(12)
_cell_length_c                   5.2217(4)
_cell_angle_alpha                90
_cell_angle_beta                 92.183(8)
_cell_angle_gamma                90
_cell_volume                     1771.03
loop_
_atom_site_label
_atom_site_type_symbol
_atom_site_fract_x
_atom_site_fract_y
_atom_site_fract_z
Mn1 Mn 1.0000 0.94118(5) 0.2500
Zn1 Zn 0.84117(3) 0.93743(3) 0.44763(10)
O1 O 0.93666(18) 0.96138(18) 0.5801(6)
O2 O 0.71604(18) 0.61327(18) 0.2804(6)
O3 O 0.8641(2) 0.83244(18) 0.3006(7)
O4 O 0.94573(19) 0.85189(18) 0.0220(6)
C1 C 0.8187(2) 0.7009(2) 0.0747(9)
H1 H 0.7963 0.7210 0.2137
C2 C 0.8745(2) 0.7393(2) -0.0187(8)
C3 C 0.8969(2) 0.8134(2) 0.1088(9)
C4 C 0.9081(3) 0.7075(3) -0.2233(9)
H2 H 0.9442 0.7344 -0.2921
C5 C 0.8318(2) 0.6000(3) -0.2362(8)
H3 H 0.8173 0.5534 -0.3085
C6 C 0.8890(3) 0.6368(3) -0.3265(9)
C7 C 0.7962(2) 0.6326(2) -0.0384(8)
C8 C 0.9306(3) 0.5992(3) -0.5312(10)
H4 H 0.9776 0.5972 -0.4741
H5 H 0.9263 0.6289 -0.6863
H6 H 0.9142 0.5476 -0.5630
O5 O 0.70630(18) 0.54055(17) -0.0720(6)
C9 C 0.7357(2) 0.5932(2) 0.0630(8)
H7 H 0.956(3) 0.932(3) 0.665(9)
Mn1D Mn 1.0000 1.05882(5) 0.7500
Mn1D_2 Mn 1.0000 1.05882(5) -0.2500
Zn1E Zn 0.84117(3) 1.06257(3) -0.05237(10)
Zn1F Zn 0.65883(3) 0.56257(3) 0.55237(10)
Zn1C Zn 0.65883(3) 0.43743(3) 0.05237(10)
Zn1F_2 Zn 0.65883(3) 0.56257(3) -0.44763(10)
Zn1G Zn 1.34117(3) 0.56257(3) -0.05237(10)
Zn1A Zn 1.15883(3) 0.93743(3) 0.05237(10)
Zn1B Zn 1.34117(3) 0.43743(3) 0.44763(10)
Zn1G_2 Zn 1.34117(3) 0.56257(3) 0.94763(10)
O1E O 0.93666(18) 1.03862(18) 0.0801(6)
O1D O 1.06334(18) 1.03862(18) 0.4199(6)
O1A O 1.06334(18) 0.96138(18) -0.0801(6)
O2A O 1.28396(18) 0.61327(18) 0.2196(6)
O2F O 0.78396(18) 0.88673(18) 0.7196(6)
O2C O 0.78396(18) 1.11327(18) 0.2196(6)
O3A O 1.1359(2) 0.83244(18) 0.1994(7)
O3E O 0.8641(2) 1.16756(18) -0.1994(7)
O4A O 1.05427(19) 0.85189(18) 0.4780(6)
C1A C 1.1813(2) 0.7009(2) 0.4253(9)
H1A H 1.2037 0.7210 0.2863
C2A C 1.1255(2) 0.7393(2) 0.5187(8)
C3A C 1.1031(2) 0.8134(2) 0.3912(9)
C4A C 1.0919(3) 0.7075(3) 0.7233(9)
H2A H 1.0558 0.7344 0.7921
C5A C 1.1682(2) 0.6000(3) 0.7362(8)
H3A H 1.1827 0.5534 0.8085
C6A C 1.1110(3) 0.6368(3) 0.8265(9)
C7A C 1.2038(2) 0.6326(2) 0.5384(8)
C8A C 1.0694(3) 0.5992(3) 1.0312(10)
H4A H 1.0224 0.5972 0.9741
H5A H 1.0737 0.6289 1.1863
H6A H 1.0858 0.5476 1.0630
O5A O 1.29370(18) 0.54055(17) 0.5720(6)
O5C O 0.79370(18) 1.04055(17) 0.5720(6)
O5F O 0.79370(18) 0.95945(17) 0.0720(6)
O5C_2 O 0.79370(18) 1.04055(17) -0.4280(6)
C9A C 1.2643(2) 0.5932(2) 0.4370(8)
H7E H 0.956(3) 1.068(3) 0.165(9)
H7D H 1.044(3) 1.068(3) 0.335(9)
H7A H 1.044(3) 0.932(3) -0.165(9)
loop_
_geom_bond_atom_site_label_1
_geom_bond_atom_site_label_2
_geom_bond_site_symmetry_1
_geom_bond_site_symmetry_2
Mn1 O1 1_555 1_555
Zn1 O1 1_555 1_555
O1 H7 1_555 1_555
O2 C9 1_555 1_555
O3 Zn1 1_555 1_555
O4 Mn1 1_555 1_555
C1 H1 1_555 1_555
C2 C1 1_555 1_555
C3 O3 1_555 1_555
C4 C2 1_555 1_555
H2 C4 1_555 1_555
C5 H3 1_555 1_555
C6 C4 1_555 1_555
C7 C1 1_555 1_555
C8 C6 1_555 1_555
H4 C8 1_555 1_555
H5 C8 1_555 1_555
H6 C8 1_555 1_555
O5 C9 1_555 1_555
C9 C7 1_555 1_555
Mn1D O1 1_555 1_555
Mn1D_2 O1E 1_555 1_555
Zn1E O1E 1_555 1_555
Zn1F O2 1_555 1_555
Zn1C O5 1_555 1_555
Zn1F_2 O5 1_555 1_555
Zn1G O2A 1_555 1_555
Zn1A O1A 1_555 1_555
Zn1B O5A 1_555 1_555
Zn1G_2 O5A 1_555 1_555
O1E Mn1 1_555 1_555
O1D Mn1 1_555 1_555
O1A Mn1 1_555 1_555
O2A C9A 1_555 1_555
O2F Zn1 1_555 1_555
O2C Zn1E 1_555 1_555
O3A Zn1A 1_555 1_555
O3E Zn1E 1_555 1_555
O4A Mn1 1_555 1_555
C1A H1A 1_555 1_555
C2A C1A 1_555 1_555
C3A O3A 1_555 1_555
C4A C2A 1_555 1_555
H2A C4A 1_555 1_555
C5A H3A 1_555 1_555
C6A C4A 1_555 1_555
C7A C1A 1_555 1_555
C8A C6A 1_555 1_555
H4A C8A 1_555 1_555
H5A C8A 1_555 1_555
H6A C8A 1_555 1_555
O5A C9A 1_555 1_555
O5C Zn1 1_555 1_555
O5F Zn1 1_555 1_555
O5C_2 Zn1E 1_555 1_555
C9A C7A 1_555 1_555
H7E O1E 1_555 1_555
H7D O1D 1_555 1_555
H7A O1A 1_555 1_555
O4 C3 1_555 1_555
C2 C3 1_555 1_555
C5 C6 1_555 1_555
C5 C7 1_555 1_555
Mn1D O1D 1_555 1_555
Mn1D_2 O1A 1_555 1_555
Zn1E O5F 1_555 1_555
O4A C3A 1_555 1_555
C2A C3A 1_555 1_555
C5A C6A 1_555 1_555
C5A C7A 1_555 1_555

#END
