
#######################################################################
#
#                 Cambridge Crystallographic Data Centre
#                                CCDC 
#
#######################################################################
#
# If this CIF has been generated from an entry in the Cambridge 
# Structural Database, then it will include bibliographic, chemical, 
# crystal, experimental, refinement or atomic coordinate data resulting 
# from the CCDC's data processing and validation procedures.
#
#######################################################################

data_ICAVUF
_symmetry_cell_setting           triclinic
_symmetry_space_group_name_H-M   'P -1'
_symmetry_Int_Tables_number      2
_space_group_name_Hall           '-P 1'
loop_
_symmetry_equiv_pos_site_id
_symmetry_equiv_pos_as_xyz
1 x,y,z
2 -x,-y,-z
_cell_length_a                   13.3015(5)
_cell_length_b                   15.1095(6)
_cell_length_c                   15.6882(6)
_cell_angle_alpha                100.837(3)
_cell_angle_beta                 100.171(3)
_cell_angle_gamma                108.559(3)
_cell_volume                     2839.5
loop_
_atom_site_label
_atom_site_type_symbol
_atom_site_fract_x
_atom_site_fract_y
_atom_site_fract_z
Tb1 Tb 0.409880(11) 0.285102(9) 0.332110(9)
Zn1 Zn 0.05588(3) 0.37392(2) 0.01728(2)
Zn2 Zn -0.08279(3) 0.24606(2) -0.16906(2)
Zn3 Zn 0.68268(3) -0.00374(2) 0.68465(2)
Zn4 Zn 0.70854(3) 0.48541(2) 0.35862(2)
Zn5 Zn 0.12571(3) 0.44647(2) -0.16333(2)
O1 O 0.00132(17) 0.16472(15) -0.14409(13)
O2 O 0.74535(18) 0.47068(16) 0.48011(14)
O3 O 0.00757(18) 0.38781(15) -0.10881(14)
O4 O 0.04625(17) 0.23827(14) 0.00205(13)
O5 O 0.69622(18) 0.38343(16) 0.25653(14)
O6 O 0.26802(18) 0.51505(16) -0.07954(14)
O7 O 0.75620(19) 0.13602(15) 0.69536(14)
O8 O 0.90250(17) 0.25941(17) 0.70705(14)
O9 O 0.21304(16) 0.39891(15) -0.01150(15)
C1 C 0.8152(2) 0.1928(2) 0.65957(19)
C2 C 0.0948(2) 0.1033(2) -0.04003(19)
C3 C 0.0744(2) 0.0171(2) -0.10175(19)
H1 H 0.0324 0.0047 -0.1597
O10 O 0.51913(18) 0.29431(17) 0.23088(15)
C4 C 0.5203(2) 0.1353(2) -0.0191(2)
C5 C 0.3989(2) 0.4861(2) 0.1292(2)
H2 H 0.3452 0.4301 0.1316
C6 C 0.6110(2) 0.2588(2) 0.12126(19)
O11 O 0.2390(2) 0.04865(16) 0.39569(16)
C7 C 0.5189(2) 0.1837(2) 0.0653(2)
H3 H 0.4548 0.1653 0.0844
C8 C 0.0446(2) 0.1745(2) -0.06240(19)
C9 C 0.8582(3) 0.2455(3) 0.5254(2)
H4 H 0.9304 0.2776 0.5590
C10 C 0.6169(2) 0.1663(2) -0.0464(2)
H5 H 0.6191 0.1360 -0.1030
C11 C 0.1591(2) 0.1226(2) 0.04626(19)
H6 H 0.1753 0.1814 0.0874
C12 C 0.4689(2) 0.6045(2) 0.0501(2)
H7 H 0.4598 0.6286 0.0001
C13 C 0.6078(2) 0.3152(2) 0.20981(19)
C14 C 0.1156(2) -0.0515(2) -0.07871(19)
C15 C 0.2819(2) 0.4754(2) -0.0166(2)
C16 C 0.5739(2) 0.6148(2) 0.1935(2)
H8 H 0.6363 0.6461 0.2408
O12 O 0.0631(3) 0.5213(2) -0.2378(2)
C17 C 0.7824(2) 0.1897(2) 0.56279(19)
C18 C 0.3864(2) 0.5228(2) 0.0552(2)
C19 C 0.7068(2) 0.2864(2) 0.09307(19)
H9 H 0.7695 0.3354 0.1311
C20 C 0.5645(2) 0.6505(2) 0.1185(2)
C21 C 0.4924(2) 0.5335(2) 0.1999(2)
C22 C 0.6751(2) 0.1394(2) 0.51203(19)
H10 H 0.6252 0.0974 0.5344
O13 O 0.57950(18) 0.35947(16) 0.43147(14)
O14 O 0.3180(2) 0.20829(16) 0.42588(16)
O15 O 0.4022(2) 0.40926(18) 0.46167(16)
C23 C 0.1990(2) 0.0544(2) 0.07092(18)
O16 O 0.22726(19) 0.30344(18) 0.2976(2)
C24 C 0.7094(2) 0.2412(2) 0.00855(19)
C25 C 0.1766(2) -0.0321(2) 0.00827(19)
H11 H 0.2032 -0.0779 0.0251
C26 C 0.6644(2) 0.4065(2) 0.49255(19)
C27 C 0.5240(3) 0.1111(2) 0.37917(19)
C28 C 0.6432(2) 0.1524(2) 0.42807(19)
C29 C 0.6721(2) 0.3900(2) 0.58379(18)
C30 C 0.7548(2) 0.4560(2) 0.65604(19)
H12 H 0.8058 0.5099 0.6474
C31 C 0.5953(2) 0.3106(2) 0.5975(2)
H13 H 0.5376 0.2687 0.5495
C32 C 0.2583(3) 0.1338(2) 0.4400(2)
C33 C 0.7189(3) 0.2094(3) 0.3920(2)
H14 H 0.6963 0.2178 0.3355
C34 C 0.6556(3) 0.7371(3) 0.1127(3)
H15 H 0.6600 0.7937 0.1555
H16 H 0.7239 0.7271 0.1258
H17 H 0.6412 0.7459 0.0534
C35 C 0.4206(3) 0.0525(3) -0.0791(3)
H18 H 0.4228 -0.0072 -0.0677
H19 H 0.4198 0.0507 -0.1407
H20 H 0.3557 0.0614 -0.0669
C36 C 0.0928(3) -0.1452(2) -0.1466(2)
H21 H 0.0570 -0.1432 -0.2046
H22 H 0.1607 -0.1540 -0.1492
H23 H 0.0463 -0.1981 -0.1293
C37 C 0.8287(3) 0.2545(3) 0.4392(2)
C38 C 0.9126(4) 0.3146(5) 0.3991(3)
H24 H 0.9822 0.3095 0.4204
H25 H 0.8896 0.2916 0.3349
H26 H 0.9192 0.3811 0.4166
C39 C 0.8128(2) 0.2752(2) -0.02196(19)
O17 O 0.89641(16) 0.33930(15) 0.03254(13)
O18 O 0.80529(16) 0.23461(15) -0.10253(13)
C40 C 0.2593(2) 0.0725(2) 0.16628(19)
O19 O 0.27491(18) 0.00166(14) 0.19030(13)
O20 O 0.28764(17) 0.15542(14) 0.21765(13)
O21 O 0.48273(19) 0.16026(16) 0.33953(16)
C41 C 0.5041(3) 0.4964(2) 0.2809(2)
O22 O 0.59389(19) 0.53907(16) 0.34267(15)
O23 O 0.42713(19) 0.42644(16) 0.28639(16)
C42 C 0.2050(3) 0.1428(2) 0.5159(2)
C43 C 0.1997(3) 0.2303(2) 0.5564(2)
H27 H 0.2267 0.2842 0.5349
C44 C 0.1609(3) 0.0627(2) 0.5464(2)
H28 H 0.1625 0.0036 0.5176
C45 C 0.1538(2) 0.2373(2) 0.6290(2)
C46 C 0.1143(3) 0.0677(3) 0.6187(2)
C47 C 0.1534(2) 0.3332(2) 0.6774(2)
C48 C 0.1123(3) 0.1568(2) 0.6603(2)
H29 H 0.0828 0.1623 0.7097
C49 C 0.0700(5) -0.0205(3) 0.6526(3)
H30 H 0.0516 -0.0778 0.6052
H31 H 0.0057 -0.0200 0.6720
H32 H 0.1247 -0.0196 0.7020
O24 O 0.14087(18) 0.33918(16) 0.75512(14)
O25 O 0.16450(18) 0.40043(15) 0.63852(15)
O26 O 0.46814(19) 0.02729(17) 0.38133(16)
C50 C 0.6028(3) 0.2922(2) 0.6818(2)
C51 C 0.7612(2) 0.4412(2) 0.74108(19)
C52 C 0.8410(2) 0.5190(2) 0.8197(2)
C53 C 0.6884(3) 0.3581(2) 0.7529(2)
H33 H 0.6968 0.3462 0.8092
C54 C 0.5209(3) 0.2045(2) 0.6951(3)
H34 H 0.4484 0.2047 0.6758
H35 H 0.5359 0.2055 0.7575
H36 H 0.5260 0.1472 0.6606
O27 O 0.87496(17) 0.49607(16) 0.89070(13)
O28 O 0.8712(2) 0.60440(16) 0.81597(16)
H37 H 0.115(2) 0.558(2) -0.260(2)
H38 H 0.046(3) 0.567(2) -0.204(2)
H39 H 0.342(2) 0.418(3) 0.457(2)
H40 H 0.419(3) 0.403(3) 0.5131(13)
H41 H 0.1698(17) 0.263(2) 0.302(3)
H42 H 0.211(2) 0.334(3) 0.261(2)
H43 H -0.027(3) 0.411(2) -0.109(2)
Zn1_2 Zn 1.05588(3) 0.37392(2) 0.01728(2)
Zn1A Zn 0.94412(3) 0.62608(2) 0.98272(2)
Zn2_2 Zn 0.91721(3) 0.24606(2) 0.83094(2)
Zn2_3 Zn 0.91721(3) 0.24606(2) -0.16906(2)
Zn3A Zn 0.31732(3) 0.00374(2) 0.31535(2)
Zn4A Zn 0.29146(3) 0.51459(2) 0.64138(2)
Zn5_2 Zn 0.12571(3) 0.44647(2) 0.83667(2)
O8_2 O -0.09750(17) 0.25941(17) -0.29295(14)
O11A O 0.7610(2) -0.04865(16) 0.60431(16)
O17_2 O -0.10359(16) 0.33930(15) 0.03254(13)
O18_2 O -0.19471(16) 0.23461(15) -0.10253(13)
O19A O 0.72509(18) -0.00166(14) 0.80970(13)
O21A O 0.51727(19) -0.16026(16) 0.66047(16)
O24_2 O 0.14087(18) 0.33918(16) -0.24488(14)
O25A O 0.83550(18) 0.59957(15) 0.36148(15)
O26A O 0.53186(19) -0.02729(17) 0.61867(16)
O27A O 0.12504(17) 0.50393(16) 0.10930(13)
O28A O 0.1288(2) 0.39560(16) 0.18403(16)
loop_
_geom_bond_atom_site_label_1
_geom_bond_atom_site_label_2
_geom_bond_site_symmetry_1
_geom_bond_site_symmetry_2
Tb1 O10 1_555 1_555
Zn1 O3 1_555 1_555
Zn2 O1 1_555 1_555
Zn3 O7 1_555 1_555
Zn4 O2 1_555 1_555
Zn5 O3 1_555 1_555
O1 C8 1_555 1_555
O2 C26 1_555 1_555
O3 Zn2 1_555 1_555
O4 Zn1 1_555 1_555
O5 Zn4 1_555 1_555
O6 Zn5 1_555 1_555
O7 C1 1_555 1_555
O8 C1 1_555 1_555
O9 Zn1 1_555 1_555
C1 C17 1_555 1_555
C2 C3 1_555 1_555
C3 H1 1_555 1_555
O10 C13 1_555 1_555
C4 C7 1_555 1_555
C5 H2 1_555 1_555
C6 C7 1_555 1_555
O11 C32 1_555 1_555
C7 H3 1_555 1_555
C8 O4 1_555 1_555
C9 H4 1_555 1_555
C10 C4 1_555 1_555
H5 C10 1_555 1_555
C11 C2 1_555 1_555
H6 C11 1_555 1_555
C12 H7 1_555 1_555
C13 O5 1_555 1_555
C14 C3 1_555 1_555
C15 O6 1_555 1_555
C16 H8 1_555 1_555
O12 Zn5 1_555 1_555
C17 C9 1_555 1_555
C18 C5 1_555 1_555
C19 C6 1_555 1_555
H9 C19 1_555 1_555
C20 C12 1_555 1_555
C21 C5 1_555 1_555
C22 C17 1_555 1_555
H10 C22 1_555 1_555
O13 Tb1 1_555 1_555
O14 Tb1 1_555 1_555
O15 Tb1 1_555 1_555
C23 C11 1_555 1_555
O16 Tb1 1_555 1_555
C24 C10 1_555 1_555
C25 C14 1_555 1_555
H11 C25 1_555 1_555
C26 O13 1_555 1_555
C27 C28 1_555 1_555
C28 C22 1_555 1_555
C29 C26 1_555 1_555
C30 C29 1_555 1_555
H12 C30 1_555 1_555
C31 C29 1_555 1_555
H13 C31 1_555 1_555
C32 O14 1_555 1_555
C33 C28 1_555 1_555
H14 C33 1_555 1_555
C34 C20 1_555 1_555
H15 C34 1_555 1_555
H16 C34 1_555 1_555
H17 C34 1_555 1_555
C35 C4 1_555 1_555
H18 C35 1_555 1_555
H19 C35 1_555 1_555
H20 C35 1_555 1_555
C36 C14 1_555 1_555
H21 C36 1_555 1_555
H22 C36 1_555 1_555
H23 C36 1_555 1_555
C37 C9 1_555 1_555
C38 C37 1_555 1_555
H24 C38 1_555 1_555
H25 C38 1_555 1_555
H26 C38 1_555 1_555
C39 C24 1_555 1_555
O17 C39 1_555 1_555
O18 C39 1_555 1_555
C40 C23 1_555 1_555
O19 C40 1_555 1_555
O20 Tb1 1_555 1_555
O21 Tb1 1_555 1_555
C41 C21 1_555 1_555
O22 Zn4 1_555 1_555
O23 Tb1 1_555 1_555
C42 C32 1_555 1_555
C43 C42 1_555 1_555
H27 C43 1_555 1_555
C44 C42 1_555 1_555
H28 C44 1_555 1_555
C45 C43 1_555 1_555
C46 C44 1_555 1_555
C47 C45 1_555 1_555
C48 C45 1_555 1_555
H29 C48 1_555 1_555
C49 C46 1_555 1_555
H30 C49 1_555 1_555
H31 C49 1_555 1_555
H32 C49 1_555 1_555
O24 C47 1_555 1_555
O25 C47 1_555 1_555
O26 C27 1_555 1_555
C50 C31 1_555 1_555
C51 C30 1_555 1_555
C52 C51 1_555 1_555
C53 C50 1_555 1_555
H33 C53 1_555 1_555
C54 C50 1_555 1_555
H34 C54 1_555 1_555
H35 C54 1_555 1_555
H36 C54 1_555 1_555
O27 C52 1_555 1_555
O28 C52 1_555 1_555
H37 O12 1_555 1_555
H38 O12 1_555 1_555
H39 O15 1_555 1_555
H40 O15 1_555 1_555
H41 O16 1_555 1_555
H42 O16 1_555 1_555
H43 O3 1_555 1_555
Zn1_2 O17 1_555 1_555
Zn1A O27 1_555 1_555
Zn2_2 O8 1_555 1_555
Zn2_3 O18 1_555 1_555
Zn3A O11 1_555 1_555
Zn4A O25 1_555 1_555
Zn5_2 O24 1_555 1_555
O8_2 Zn2 1_555 1_555
O11A Zn3 1_555 1_555
O17_2 Zn1 1_555 1_555
O18_2 Zn2 1_555 1_555
O19A Zn3 1_555 1_555
O21A Zn3 1_555 1_555
O24_2 Zn5 1_555 1_555
O25A Zn4 1_555 1_555
O26A Zn3 1_555 1_555
O27A Zn1 1_555 1_555
O28A Zn1 1_555 1_555
O9 C15 1_555 1_555
C2 C8 1_555 1_555
C6 C13 1_555 1_555
C12 C18 1_555 1_555
C15 C18 1_555 1_555
C16 C20 1_555 1_555
C16 C21 1_555 1_555
C19 C24 1_555 1_555
C23 C25 1_555 1_555
C27 O21 1_555 1_555
C33 C37 1_555 1_555
C40 O20 1_555 1_555
O19 Zn3A 1_555 1_555
O21 Zn3A 1_555 1_555
C41 O22 1_555 1_555
C41 O23 1_555 1_555
C46 C48 1_555 1_555
O26 Zn3A 1_555 1_555
C51 C53 1_555 1_555
O28 Zn1A 1_555 1_555

#END
