
#######################################################################
#
#                 Cambridge Crystallographic Data Centre
#                                CCDC 
#
#######################################################################
#
# If this CIF has been generated from an entry in the Cambridge 
# Structural Database, then it will include bibliographic, chemical, 
# crystal, experimental, refinement or atomic coordinate data resulting 
# from the CCDC's data processing and validation procedures.
#
#######################################################################

data_ICAVAL
_symmetry_cell_setting           monoclinic
_symmetry_space_group_name_H-M   'C 2/c'
_symmetry_Int_Tables_number      15
_space_group_name_Hall           '-C 2yn'
loop_
_symmetry_equiv_pos_site_id
_symmetry_equiv_pos_as_xyz
1 x,y,z
2 -x,y,1/2-z
3 1/2+x,1/2+y,z
4 1/2-x,1/2+y,1/2-z
5 -x,-y,-z
6 x,-y,1/2+z
7 1/2-x,1/2-y,-z
8 1/2+x,1/2-y,1/2+z
_cell_length_a                   19.862(2)
_cell_length_b                   17.2802(18)
_cell_length_c                   5.2868(6)
_cell_angle_alpha                90
_cell_angle_beta                 90.724(11)
_cell_angle_gamma                90
_cell_volume                     1814.39
loop_
_atom_site_label
_atom_site_type_symbol
_atom_site_fract_x
_atom_site_fract_y
_atom_site_fract_z
O1 O 0.44709(18) 0.64808(19) 0.5219(7)
O2 O 0.36679(19) 0.66761(19) 0.7971(7)
C1 C 0.3987(2) 0.6864(2) 0.6056(8)
C2 C 0.3753(2) 0.7594(2) 0.4777(9)
C3 C 0.3202(2) 0.7978(2) 0.5719(9)
H1 H 0.2978 0.7780 0.7112
C4 C 0.3334(2) 0.8979(3) 0.2618(9)
H2 H 0.3188 0.9441 0.1898
C5 C 0.4309(3) 0.8989(3) -0.0332(11)
H3 H 0.4293 0.8673 -0.1825
H4 H 0.4768 0.9041 0.0239
H5 H 0.4128 0.9492 -0.0712
C6 C 0.2979(2) 0.8661(3) 0.4594(8)
C7 C 0.3903(2) 0.8619(3) 0.1696(9)
C8 C 0.4094(2) 0.7910(3) 0.2744(9)
H6 H 0.4456 0.7643 0.2068
O3 O 0.43704(16) 0.53784(19) 1.0850(6)
Mn1 Mn 0.5000 0.55829(5) 0.7500
Mn2 Mn 0.33985(3) 0.56274(4) 0.94680(12)
H7 H 0.437(4) 0.568(4) 1.178(14)
O4 O 0.20867(17) 0.95857(19) 0.4260(6)
C9 C 0.2371(2) 0.9051(2) 0.5624(9)
O5 O 0.21712(17) 0.88538(18) 0.7709(6)
O1A O 0.55291(18) 0.64808(19) 0.9781(7)
O2A O 0.63321(19) 0.66761(19) 0.7029(7)
C1A C 0.6013(2) 0.6864(2) 0.8944(8)
C2A C 0.6247(2) 0.7594(2) 1.0223(9)
C3A C 0.6798(2) 0.7978(2) 0.9281(9)
H1A H 0.7022 0.7780 0.7888
C4A C 0.6666(2) 0.8979(3) 1.2382(9)
H2A H 0.6812 0.9441 1.3102
C5A C 0.5691(3) 0.8989(3) 1.5332(11)
H3A H 0.5707 0.8673 1.6825
H4A H 0.5232 0.9041 1.4761
H5A H 0.5872 0.9492 1.5712
C6A C 0.7021(2) 0.8661(3) 1.0406(8)
C7A C 0.6097(2) 0.8619(3) 1.3304(9)
C8A C 0.5906(2) 0.7910(3) 1.2256(9)
H6A H 0.5544 0.7643 1.2932
O3A O 0.56296(16) 0.53784(19) 0.4150(6)
O3D O 0.56296(16) 0.46216(19) 0.9150(6)
O3E O 0.43704(16) 0.46216(19) 0.5850(6)
Mn1D Mn 0.5000 0.44171(5) 1.2500
Mn1D_2 Mn 0.5000 0.44171(5) 0.2500
Mn2A Mn 0.66015(3) 0.56274(4) 0.55320(12)
Mn2C Mn 0.16015(3) 1.06274(4) 0.55320(12)
Mn2F Mn 0.16015(3) 0.93726(4) 0.05320(12)
Mn2F_2 Mn 0.16015(3) 0.93726(4) 1.05320(12)
Mn2B Mn 0.83985(3) 1.06274(4) 0.94680(12)
Mn2G Mn 0.83985(3) 0.93726(4) 1.44680(12)
Mn2G_2 Mn 0.83985(3) 0.93726(4) 0.44680(12)
H7A H 0.563(4) 0.568(4) 0.322(14)
H7D H 0.563(4) 0.432(4) 0.822(14)
H7E H 0.437(4) 0.432(4) 0.678(14)
O4A O 0.79133(17) 0.95857(19) 1.0740(6)
O4C O 0.29133(17) 0.45857(19) 1.0740(6)
O4F O 0.29133(17) 0.54143(19) 0.5740(6)
O4B O 0.70867(17) 0.45857(19) 0.4260(6)
O4G O 0.70867(17) 0.54143(19) 0.9260(6)
C9A C 0.7629(2) 0.9051(2) 0.9376(9)
O5A O 0.78288(17) 0.88538(18) 0.7291(6)
O5F O 0.28288(17) 0.61462(18) 1.2291(6)
O5G O 0.71712(17) 0.61462(18) 0.2709(6)
loop_
_geom_bond_atom_site_label_1
_geom_bond_atom_site_label_2
_geom_bond_site_symmetry_1
_geom_bond_site_symmetry_2
O1 C1 1_555 1_555
O2 C1 1_555 1_555
C1 C2 1_555 1_555
C2 C3 1_555 1_555
C3 H1 1_555 1_555
C4 H2 1_555 1_555
C5 H3 1_555 1_555
H4 C5 1_555 1_555
H5 C5 1_555 1_555
C6 C3 1_555 1_555
C7 C4 1_555 1_555
C8 C2 1_555 1_555
H6 C8 1_555 1_555
O3 Mn1 1_555 1_555
Mn1 O1 1_555 1_555
Mn2 O2 1_555 1_555
H7 O3 1_555 1_555
O4 C9 1_555 1_555
C9 C6 1_555 1_555
O5 C9 1_555 1_555
O1A Mn1 1_555 1_555
O2A C1A 1_555 1_555
C1A O1A 1_555 1_555
C2A C1A 1_555 1_555
C3A C2A 1_555 1_555
H1A C3A 1_555 1_555
C4A H2A 1_555 1_555
C5A H3A 1_555 1_555
H4A C5A 1_555 1_555
H5A C5A 1_555 1_555
C6A C3A 1_555 1_555
C7A C4A 1_555 1_555
C8A C2A 1_555 1_555
H6A C8A 1_555 1_555
O3A Mn1 1_555 1_555
O3D Mn1 1_555 1_555
O3E Mn1 1_555 1_555
Mn1D O3 1_555 1_555
Mn1D_2 O3A 1_555 1_555
Mn2A O2A 1_555 1_555
Mn2C O4 1_555 1_555
Mn2F O4 1_555 1_555
Mn2F_2 O5 1_555 1_555
Mn2B O4A 1_555 1_555
Mn2G O4A 1_555 1_555
Mn2G_2 O5A 1_555 1_555
H7A O3A 1_555 1_555
H7D O3D 1_555 1_555
H7E O3E 1_555 1_555
O4A C9A 1_555 1_555
O4C Mn2 1_555 1_555
O4F Mn2 1_555 1_555
O4B Mn2A 1_555 1_555
O4G Mn2A 1_555 1_555
C9A C6A 1_555 1_555
O5A C9A 1_555 1_555
O5F Mn2 1_555 1_555
O5G Mn2A 1_555 1_555
C4 C6 1_555 1_555
C5 C7 1_555 1_555
C7 C8 1_555 1_555
O3 Mn2 1_555 1_555
C4A C6A 1_555 1_555
C5A C7A 1_555 1_555
C7A C8A 1_555 1_555
O3A Mn2A 1_555 1_555
O3D Mn1D 1_555 1_555
O3E Mn1D_2 1_555 1_555

#END
