
#######################################################################
#
#                 Cambridge Crystallographic Data Centre
#                                CCDC 
#
#######################################################################
#
# If this CIF has been generated from an entry in the Cambridge 
# Structural Database, then it will include bibliographic, chemical, 
# crystal, experimental, refinement or atomic coordinate data resulting 
# from the CCDC's data processing and validation procedures.
#
#######################################################################

data_ICAVIT
_symmetry_cell_setting           triclinic
_symmetry_space_group_name_H-M   'P -1'
_symmetry_Int_Tables_number      2
_space_group_name_Hall           '-P 1'
loop_
_symmetry_equiv_pos_site_id
_symmetry_equiv_pos_as_xyz
1 x,y,z
2 -x,-y,-z
_cell_length_a                   13.2812(11)
_cell_length_b                   15.1611(13)
_cell_length_c                   15.6701(9)
_cell_angle_alpha                100.758(6)
_cell_angle_beta                 100.424(6)
_cell_angle_gamma                108.033(8)
_cell_volume                     2849.71
loop_
_atom_site_label
_atom_site_type_symbol
_atom_site_fract_x
_atom_site_fract_y
_atom_site_fract_z
Eu1 Eu 0.909676(16) 0.785023(14) 0.331746(13)
Zn1 Zn 1.21078(4) 0.98232(4) 0.35926(3)
Zn2 Zn 0.81526(4) 0.50356(3) 0.31606(3)
Zn3 Zn 1.41792(4) 0.74741(3) 0.82997(3)
Zn4 Zn 0.55730(4) 0.87436(3) 0.01650(3)
Zn5 Zn 0.62549(4) 0.94862(3) -0.16291(3)
O1 O 1.1964(2) 0.8816(2) 0.2566(2)
O2 O 1.0187(3) 0.7938(2) 0.2297(2)
O3 O 1.3979(2) 0.8396(2) 0.0328(2)
O4 O 1.3071(2) 0.7359(2) -0.10226(19)
O5 O 1.0820(2) 0.8589(2) 0.4321(2)
O6 O 1.2483(3) 0.9664(2) 0.4811(2)
O7 O 1.3739(2) 0.9947(2) 0.8928(2)
O8 O 1.3699(3) 1.1027(2) 0.8176(2)
O9 O 0.8168(3) 0.7084(2) 0.4256(2)
O10 O 0.7375(3) 0.5500(2) 0.3966(2)
O11 O 0.6621(2) 0.9024(2) 0.6342(2)
O12 O 0.6414(2) 0.8447(2) 0.7528(2)
O13 O 1.2587(3) 0.6356(2) 0.69567(19)
O14 O 1.4027(2) 0.7579(2) 0.7052(2)
O15 O 0.9662(3) 0.5259(2) 0.3816(2)
O16 O 0.9830(2) 0.6588(2) 0.3391(2)
O17 O 0.7858(2) 0.6533(2) 0.21779(19)
O18 O 0.7740(2) 0.5009(2) 0.19072(19)
O19 O 0.7679(2) 1.0166(2) -0.0791(2)
O20 O 0.7147(2) 0.8998(2) -0.0119(2)
O21 O 0.9291(3) 0.9293(2) 0.2879(2)
O22 O 1.0970(3) 1.0383(2) 0.3427(2)
O23 O 1.5076(2) 0.88816(18) 0.89001(18)
H1 H 1.4634 0.9182 0.8899
O25 O 0.9026(3) 0.9091(2) 0.4634(2)
H4 H 0.8585 0.9388 0.4560
H5 H 0.9195 0.9118 0.5189
O26 O 0.7257(3) 0.8055(2) 0.2944(3)
H6 H 0.7096 0.8065 0.2398
H7 H 0.7101 0.7550 0.3135
O27 O 0.5638(3) 1.0289(3) -0.2299(3)
H8 H 0.5178 1.0502 -0.2105
H9 H 0.5429 1.0111 -0.2868
C1 C 1.1076(4) 0.8140(3) 0.2087(3)
C2 C 1.1125(3) 0.7581(3) 0.1206(3)
C3 C 1.0200(4) 0.6836(3) 0.0642(3)
H10 H 0.9556 0.6654 0.0828
C4 C 1.0231(4) 0.6364(3) -0.0195(3)
C5 C 0.9245(4) 0.5544(3) -0.0799(4)
H11 H 0.9178 0.4977 -0.0591
H12 H 0.9328 0.5431 -0.1401
H13 H 0.8600 0.5702 -0.0790
C6 C 1.1200(3) 0.6673(3) -0.0466(3)
H14 H 1.1227 0.6371 -0.1031
C7 C 1.2116(3) 0.7417(3) 0.0085(3)
C8 C 1.3146(3) 0.7759(3) -0.0211(3)
C9 C 1.2082(3) 0.7861(3) 0.0934(3)
H15 H 1.2703 0.8347 0.1319
C10 C 1.1670(3) 0.9049(3) 0.4940(3)
C11 C 1.1733(3) 0.8886(3) 0.5847(3)
C12 C 1.0976(4) 0.8100(3) 0.5985(3)
H16 H 1.0408 0.7682 0.5501
C13 C 1.1035(4) 0.7914(3) 0.6825(3)
C14 C 1.0217(4) 0.7050(3) 0.6968(4)
H17 H 0.9507 0.7104 0.6856
H18 H 1.0432 0.7016 0.7576
H19 H 1.0191 0.6480 0.6563
C15 C 1.1882(4) 0.8578(3) 0.7544(3)
H20 H 1.1964 0.8465 0.8111
C16 C 1.3398(3) 1.0174(3) 0.8218(3)
C17 C 1.2597(3) 0.9397(3) 0.7420(3)
C18 C 1.2540(3) 0.9546(3) 0.6578(3)
H21 H 1.3041 1.0088 0.6498
C19 C 0.7567(4) 0.6345(3) 0.4402(3)
C20 C 0.7025(4) 0.6450(3) 0.5154(3)
C21 C 0.6600(4) 0.5656(3) 0.5478(3)
H22 H 0.6627 0.5067 0.5206
C22 C 0.6135(4) 0.5730(3) 0.6201(3)
C23 C 0.5700(6) 0.4866(4) 0.6554(4)
H23 H 0.5473 0.4291 0.6077
H24 H 0.5084 0.4900 0.6782
H25 H 0.6263 0.4857 0.7028
C24 C 0.6128(4) 0.6620(3) 0.6602(3)
H26 H 0.5847 0.6688 0.7103
C25 C 0.6526(3) 0.8370(3) 0.6752(3)
C26 C 0.6524(4) 0.7408(3) 0.6279(3)
C27 C 0.6978(3) 0.7321(3) 0.5550(3)
H27 H 0.7249 0.7851 0.5329
C28 C 1.3161(4) 0.6912(3) 0.6586(3)
C29 C 1.2828(3) 0.6852(3) 0.5612(3)
C30 C 1.3573(4) 0.7355(4) 0.5210(3)
H28 H 1.4300 0.7661 0.5539
C31 C 1.3289(4) 0.7426(4) 0.4334(3)
C32 C 1.4114(5) 0.7947(6) 0.3899(5)
H29 H 1.4802 0.7880 0.4120
H30 H 1.3868 0.7682 0.3260
H31 H 1.4203 0.8616 0.4038
C33 C 1.2180(4) 0.7002(4) 0.3886(3)
H32 H 1.1948 0.7073 0.3315
C34 C 1.0230(4) 0.6091(3) 0.3790(3)
C35 C 1.1416(3) 0.6480(3) 0.4266(3)
C36 C 1.1746(3) 0.6374(3) 0.5118(3)
H33 H 1.1247 0.5983 0.5359
C37 C 0.5952(3) 0.6036(3) -0.0407(3)
C38 C 0.6596(3) 0.6223(3) 0.0450(3)
H34 H 0.6768 0.6811 0.0858
C39 C 0.6991(3) 0.5534(3) 0.0706(3)
C40 C 0.7583(3) 0.5713(3) 0.1658(3)
C41 C 0.6752(3) 0.4673(3) 0.0081(3)
H35 H 0.7011 0.4211 0.0251
C42 C 0.6137(3) 0.4484(3) -0.0789(3)
C43 C 0.5889(5) 0.3541(3) -0.1467(3)
H36 H 0.5420 0.3520 -0.2020
H37 H 0.5528 0.3018 -0.1237
H38 H 0.6560 0.3488 -0.1573
C44 C 0.5731(3) 0.5170(3) -0.1026(3)
H39 H 0.5306 0.5049 -0.1605
C45 C 0.7824(3) 0.9758(3) -0.0166(3)
C46 C 0.8868(3) 1.0228(3) 0.0553(3)
C47 C 0.9688(3) 1.1039(3) 0.0503(3)
H40 H 0.9589 1.1279 0.0002
C48 C 1.0652(3) 1.1501(3) 0.1183(3)
C49 C 1.1549(4) 1.2360(4) 0.1126(4)
H41 H 1.1662 1.2899 0.1612
H42 H 1.2213 1.2223 0.1165
H43 H 1.1348 1.2507 0.0564
C50 C 1.0750(3) 1.1141(3) 0.1935(3)
H44 H 1.1377 1.1446 0.2407
C51 C 0.9940(3) 1.0338(3) 0.2003(3)
C52 C 1.0066(4) 0.9973(3) 0.2820(3)
C53 C 0.9007(3) 0.9869(3) 0.1296(3)
H45 H 0.8477 0.9312 0.1323
C54 C 0.5457(3) 0.6754(3) -0.0631(3)
O28 O 0.5029(2) 0.6661(2) -0.14493(19)
O29 O 0.5490(2) 0.73947(19) 0.00129(19)
Zn1A Zn 0.78922(4) 1.01768(4) 0.64074(3)
Zn2A Zn 1.18474(4) 0.49644(3) 0.68394(3)
Zn3_2 Zn 1.41792(4) 0.74741(3) -0.17003(3)
Zn3_3 Zn 0.41792(4) 0.74741(3) -0.17003(3)
Zn4_2 Zn 1.55730(4) 0.87436(3) 0.01650(3)
Zn4A Zn 1.44270(4) 1.12564(3) 0.98350(3)
Zn4_3 Zn 1.55730(4) 0.87436(3) 1.01650(3)
Zn5_2 Zn 0.62549(4) 0.94862(3) 0.83709(3)
Zn5_3 Zn 1.62549(4) 0.94862(3) 0.83709(3)
O3_2 O 0.3979(2) 0.8396(2) 0.0328(2)
O4_2 O 1.3071(2) 0.7359(2) 0.89774(19)
O7A O 0.6261(2) 1.0053(2) 0.1072(2)
O8A O 0.6301(3) 0.8973(2) 0.1824(2)
O11A O 1.3379(2) 1.0976(2) 0.3658(2)
O12_2 O 0.6414(2) 0.8447(2) -0.2472(2)
O13A O 0.7413(3) 0.3644(2) 0.30433(19)
O23_2 O 0.5076(2) 0.88816(18) -0.10999(18)
H1_2 H 0.4634 0.9182 -0.1101
O28_2 O 1.5029(2) 0.6661(2) 0.85507(19)
O24 O 0.4772(7) 0.9790(6) 0.5934(6)
H2 H 0.5125 0.9412 0.5868
H3 H 0.4180 0.9562 0.5521
loop_
_geom_bond_atom_site_label_1
_geom_bond_atom_site_label_2
_geom_bond_site_symmetry_1
_geom_bond_site_symmetry_2
Eu1 O2 1_555 1_555
Zn1 O1 1_555 1_555
Zn2 O10 1_555 1_555
Zn3 O13 1_555 1_555
Zn4 O20 1_555 1_555
Zn5 O19 1_555 1_555
O1 C1 1_555 1_555
O2 C1 1_555 1_555
O3 C8 1_555 1_555
O4 C8 1_555 1_555
O5 Eu1 1_555 1_555
O6 Zn1 1_555 1_555
O7 C16 1_555 1_555
O8 C16 1_555 1_555
O9 Eu1 1_555 1_555
O10 C19 1_555 1_555
O11 C25 1_555 1_555
O12 C25 1_555 1_555
O13 C28 1_555 1_555
O14 Zn3 1_555 1_555
O15 Zn2 1_555 1_555
O16 Eu1 1_555 1_555
O17 Eu1 1_555 1_555
O18 Zn2 1_555 1_555
O19 C45 1_555 1_555
O20 C45 1_555 1_555
O21 Eu1 1_555 1_555
O22 Zn1 1_555 1_555
O23 Zn3 1_555 1_555
H1 O23 1_555 1_555
O24 H2 1_555 1_555
H3 O24 1_555 1_555
O25 Eu1 1_555 1_555
H4 O25 1_555 1_555
H5 O25 1_555 1_555
O26 Eu1 1_555 1_555
H6 O26 1_555 1_555
H7 O26 1_555 1_555
O27 Zn5 1_555 1_555
H8 O27 1_555 1_555
H9 O27 1_555 1_555
C1 C2 1_555 1_555
C2 C3 1_555 1_555
C3 H10 1_555 1_555
C4 C3 1_555 1_555
C5 C4 1_555 1_555
H11 C5 1_555 1_555
H12 C5 1_555 1_555
H13 C5 1_555 1_555
C6 C4 1_555 1_555
H14 C6 1_555 1_555
C7 C6 1_555 1_555
C8 C7 1_555 1_555
C9 C2 1_555 1_555
H15 C9 1_555 1_555
C10 O5 1_555 1_555
C11 C10 1_555 1_555
C12 C11 1_555 1_555
H16 C12 1_555 1_555
C13 C12 1_555 1_555
C14 C13 1_555 1_555
H17 C14 1_555 1_555
H18 C14 1_555 1_555
H19 C14 1_555 1_555
C15 C13 1_555 1_555
H20 C15 1_555 1_555
C16 C17 1_555 1_555
C17 C15 1_555 1_555
C18 C11 1_555 1_555
H21 C18 1_555 1_555
C19 O9 1_555 1_555
C20 C19 1_555 1_555
C21 C20 1_555 1_555
H22 C21 1_555 1_555
C22 C21 1_555 1_555
C23 C22 1_555 1_555
H23 C23 1_555 1_555
H24 C23 1_555 1_555
H25 C23 1_555 1_555
C24 C22 1_555 1_555
H26 C24 1_555 1_555
C25 C26 1_555 1_555
C26 C24 1_555 1_555
C27 C20 1_555 1_555
H27 C27 1_555 1_555
C28 O14 1_555 1_555
C29 C28 1_555 1_555
C30 C29 1_555 1_555
H28 C30 1_555 1_555
C31 C30 1_555 1_555
C32 C31 1_555 1_555
H29 C32 1_555 1_555
H30 C32 1_555 1_555
H31 C32 1_555 1_555
C33 C31 1_555 1_555
H32 C33 1_555 1_555
C34 O15 1_555 1_555
C35 C33 1_555 1_555
C36 C29 1_555 1_555
H33 C36 1_555 1_555
C37 C38 1_555 1_555
C38 H34 1_555 1_555
C39 C38 1_555 1_555
C40 O17 1_555 1_555
C41 C39 1_555 1_555
H35 C41 1_555 1_555
C42 C41 1_555 1_555
C43 C42 1_555 1_555
H36 C43 1_555 1_555
H37 C43 1_555 1_555
H38 C43 1_555 1_555
C44 C37 1_555 1_555
H39 C44 1_555 1_555
C45 C46 1_555 1_555
C46 C47 1_555 1_555
C47 H40 1_555 1_555
C48 C47 1_555 1_555
C49 C48 1_555 1_555
H41 C49 1_555 1_555
H42 C49 1_555 1_555
H43 C49 1_555 1_555
C50 C48 1_555 1_555
H44 C50 1_555 1_555
C51 C50 1_555 1_555
C52 O21 1_555 1_555
C53 C46 1_555 1_555
H45 C53 1_555 1_555
C54 C37 1_555 1_555
O28 C54 1_555 1_555
O29 Zn4 1_555 1_555
Zn1A O11 1_555 1_555
Zn2A O13 1_555 1_555
Zn3_2 O4 1_555 1_555
Zn3_3 O28 1_555 1_555
Zn4_2 O3 1_555 1_555
Zn4A O7 1_555 1_555
Zn4_3 O23 1_555 1_555
Zn5_2 O12 1_555 1_555
Zn5_3 O23 1_555 1_555
O3_2 Zn4 1_555 1_555
O4_2 Zn3 1_555 1_555
O7A Zn4 1_555 1_555
O8A Zn4 1_555 1_555
O11A Zn1 1_555 1_555
O12_2 Zn5 1_555 1_555
O13A Zn2 1_555 1_555
O23_2 Zn4 1_555 1_555
H1_2 O23_2 1_555 1_555
O28_2 Zn3 1_555 1_555
Zn5 O23_2 1_555 1_555
O6 C10 1_555 1_555
O8 Zn4A 1_555 1_555
O16 C34 1_555 1_555
O18 C40 1_555 1_555
O22 C52 1_555 1_555
C7 C9 1_555 1_555
C17 C18 1_555 1_555
C26 C27 1_555 1_555
C34 C35 1_555 1_555
C35 C36 1_555 1_555
C39 C40 1_555 1_555
C42 C44 1_555 1_555
C51 C52 1_555 1_555
C51 C53 1_555 1_555
C54 O29 1_555 1_555
Zn3_3 O23_2 1_555 1_555

#END
