
#######################################################################
#
#                 Cambridge Crystallographic Data Centre
#                                CCDC 
#
#######################################################################
#
# If this CIF has been generated from an entry in the Cambridge 
# Structural Database, then it will include bibliographic, chemical, 
# crystal, experimental, refinement or atomic coordinate data resulting 
# from the CCDC's data processing and validation procedures.
#
#######################################################################

data_ICAWAM
_symmetry_cell_setting           monoclinic
_symmetry_space_group_name_H-M   'P 21/c'
_symmetry_Int_Tables_number      14
_space_group_name_Hall           '-P 2ybc'
loop_
_symmetry_equiv_pos_site_id
_symmetry_equiv_pos_as_xyz
1 x,y,z
2 -x,1/2+y,1/2-z
3 -x,-y,-z
4 x,1/2-y,1/2+z
_cell_length_a                   4.5796(2)
_cell_length_b                   12.1184(5)
_cell_length_c                   15.2298(6)
_cell_angle_alpha                90
_cell_angle_beta                 94.195(4)
_cell_angle_gamma                90
_cell_volume                     842.95
loop_
_atom_site_label
_atom_site_type_symbol
_atom_site_fract_x
_atom_site_fract_y
_atom_site_fract_z
Zn1 Zn 0.31510(7) 0.12929(2) 0.491698(18)
O1 O -0.0356(4) 0.22269(15) 0.49040(11)
C1 C -0.2056(6) 0.2494(2) 0.42459(17)
C2 C 0.0956(6) 0.4151(2) 0.39282(17)
H1 H 0.1852 0.4089 0.4494
C3 C 0.0506(6) 0.5053(2) 0.25398(18)
H2 H 0.1100 0.5598 0.2161
C4 C -0.2502(6) 0.3466(2) 0.27933(17)
H3 H -0.3974 0.2974 0.2604
C5 C 0.1751(6) 0.5011(2) 0.33895(18)
C6 C -0.1153(6) 0.3381(2) 0.36372(16)
C7 C 0.3917(7) 0.5873(2) 0.3737(2)
H4 H 0.2991 0.6584 0.3718
H5 H 0.5559 0.5884 0.3379
H6 H 0.4580 0.5699 0.4333
O2 O -0.4536(4) 0.20735(16) 0.40825(12)
C8 C -0.3009(5) 0.4387(2) 0.13204(17)
C9 C -0.1638(5) 0.4293(2) 0.22334(16)
O3 O -0.5261(4) 0.38075(14) 0.11183(12)
O4 O -0.1857(4) 0.50221(15) 0.07901(13)
Zn1_2 Zn -0.68490(7) 0.12929(2) 0.491698(18)
Zn1A Zn -0.31510(7) 0.62929(2) 0.008302(18)
Zn1C Zn -0.68490(7) 0.37071(2) -0.008302(18)
O2_2 O 0.5464(4) 0.20735(16) 0.40825(12)
O3C O 0.4739(4) 0.11925(14) 0.61183(12)
O4A O 0.1857(4) 0.00221(15) 0.42099(13)
loop_
_geom_bond_atom_site_label_1
_geom_bond_atom_site_label_2
_geom_bond_site_symmetry_1
_geom_bond_site_symmetry_2
Zn1 O1 1_555 1_555
O1 C1 1_555 1_555
C1 C6 1_555 1_555
C2 H1 1_555 1_555
C3 H2 1_555 1_555
C4 H3 1_555 1_555
C5 C2 1_555 1_555
C6 C2 1_555 1_555
C7 C5 1_555 1_555
H4 C7 1_555 1_555
H5 C7 1_555 1_555
H6 C7 1_555 1_555
O2 C1 1_555 1_555
C8 C9 1_555 1_555
C9 C3 1_555 1_555
O3 C8 1_555 1_555
O4 C8 1_555 1_555
Zn1_2 O2 1_555 1_555
Zn1A O4 1_555 1_555
Zn1C O3 1_555 1_555
O2_2 Zn1 1_555 1_555
O3C Zn1 1_555 1_555
O4A Zn1 1_555 1_555
C3 C5 1_555 1_555
C4 C6 1_555 1_555
C4 C9 1_555 1_555

#END
