
#######################################################################
#
#                 Cambridge Crystallographic Data Centre
#                                CCDC 
#
#######################################################################
#
# If this CIF has been generated from an entry in the Cambridge 
# Structural Database, then it will include bibliographic, chemical, 
# crystal, experimental, refinement or atomic coordinate data resulting 
# from the CCDC's data processing and validation procedures.
#
#######################################################################

data_ICECEA
_symmetry_cell_setting           orthorhombic
_symmetry_space_group_name_H-M   'I m m m'
_symmetry_Int_Tables_number      71
_space_group_name_Hall           '-I 2 2'
loop_
_symmetry_equiv_pos_site_id
_symmetry_equiv_pos_as_xyz
1 x,y,z
2 -x,-y,z
3 x,-y,-z
4 -x,y,-z
5 1/2+x,1/2+y,1/2+z
6 1/2-x,1/2-y,1/2+z
7 1/2+x,1/2-y,1/2-z
8 1/2-x,1/2+y,1/2-z
9 -x,-y,-z
10 x,y,-z
11 -x,y,z
12 x,-y,z
13 1/2-x,1/2-y,1/2-z
14 1/2+x,1/2+y,1/2-z
15 1/2-x,1/2+y,1/2+z
16 1/2+x,1/2-y,1/2+z
_cell_length_a                   8.440(2)
_cell_length_b                   7.1808(12)
_cell_length_c                   13.845(2)
_cell_angle_alpha                90
_cell_angle_beta                 90
_cell_angle_gamma                90
_cell_volume                     839.089
loop_
_atom_site_label
_atom_site_type_symbol
_atom_site_fract_x
_atom_site_fract_y
_atom_site_fract_z
Co1 Co -0.30550(10) 1.0000 1.0000
C1 C -0.2926(4) 0.5951(5) 0.9169(3)
N1 N -0.2924(5) 0.6950(6) 1.0000
N2 N -0.2995(17) 0.6702(17) 0.8269(10)
H1 H -0.3043 0.7891 0.8198
H2 H -0.2992 0.5989 0.7770
N3 N -0.5000 1.0000 0.9035(5)
N4 N -0.5000 0.9476(12) 0.8210(7)
N5 N -0.5000 0.902(2) 0.7406(9)
N6 N -0.1383(6) 1.0000 0.8837(3)
N7 N 0.0000 1.0000 0.8865(4)
Co1A Co -0.69450(10) 1.0000 1.0000
Co1_2 Co -0.30550(10) 0.0000 1.0000
Co1A_2 Co 0.30550(10) 1.0000 1.0000
C1K C -0.2926(4) 0.4049(5) 0.9169(3)
C1B C -0.2926(4) 0.4049(5) 1.0831(3)
C1I C -0.2926(4) 0.5951(5) 1.0831(3)
N1B N -0.2924(5) 0.3050(6) 1.0000
N1B_2 N -0.2924(5) 1.3050(6) 1.0000
N2I N -0.2995(17) 0.6702(17) 1.1731(10)
N2B N -0.2995(17) 0.3298(17) 1.1731(10)
N2K N -0.2995(17) 0.3298(17) 0.8269(10)
H1I H -0.3043 0.7891 1.1802
H1B H -0.3043 0.2109 1.1802
H1K H -0.3043 0.2109 0.8198
H2I H -0.2992 0.5989 1.2230
H2B H -0.2992 0.4011 1.2230
H2K H -0.2992 0.4011 0.7770
N3B N -0.5000 1.0000 1.0965(5)
N4A N -0.5000 1.0524(12) 0.8210(7)
N5A N -0.5000 1.098(2) 0.7406(9)
N6A N 0.1383(6) 1.0000 0.8837(3)
N6B N -0.1383(6) 1.0000 1.1163(3)
loop_
_geom_bond_atom_site_label_1
_geom_bond_atom_site_label_2
_geom_bond_site_symmetry_1
_geom_bond_site_symmetry_2
Co1 N1 1_555 1_555
C1 N1 1_555 1_555
N1 C1I 1_555 1_555
N2 C1 1_555 1_555
H1 N2 1_555 1_555
H2 N2 1_555 1_555
N3 Co1 1_555 1_555
N4 N3 1_555 1_555
N5 N4 1_555 1_555
N6 Co1 1_555 1_555
N7 N6 1_555 1_555
Co1A N3 1_555 1_555
Co1_2 N1B 1_555 1_555
Co1A_2 N6A 1_555 1_555
C1K C1 1_555 1_555
C1B C1I 1_555 1_555
C1I N2I 1_555 1_555
N1B C1K 1_555 1_555
N1B_2 Co1 1_555 1_555
N2I H1I 1_555 1_555
N2B C1B 1_555 1_555
N2K C1K 1_555 1_555
H1B N2B 1_555 1_555
H1K N2K 1_555 1_555
H2I N2I 1_555 1_555
H2B N2B 1_555 1_555
H2K N2K 1_555 1_555
N3B Co1 1_555 1_555
N4A N3 1_555 1_555
N5A N4 1_555 1_555
N6A N7 1_555 1_555
N6B Co1 1_555 1_555
N4 N4A 1_555 1_555
N5 N4A 1_555 1_555
N5 N5A 1_555 1_555
Co1A N3B 1_555 1_555
C1B N1B 1_555 1_555
N4A N5A 1_555 1_555

#END
