
#######################################################################
#
#                 Cambridge Crystallographic Data Centre
#                                CCDC 
#
#######################################################################
#
# If this CIF has been generated from an entry in the Cambridge 
# Structural Database, then it will include bibliographic, chemical, 
# crystal, experimental, refinement or atomic coordinate data resulting 
# from the CCDC's data processing and validation procedures.
#
#######################################################################

data_ICEDOL
_symmetry_cell_setting           orthorhombic
_symmetry_space_group_name_H-M   'P b c a'
_symmetry_Int_Tables_number      61
_space_group_name_Hall           '-P 2ac 2ab'
loop_
_symmetry_equiv_pos_site_id
_symmetry_equiv_pos_as_xyz
1 x,y,z
2 1/2-x,-y,1/2+z
3 1/2+x,1/2-y,-z
4 -x,1/2+y,1/2-z
5 -x,-y,-z
6 1/2+x,y,1/2-z
7 1/2-x,1/2+y,z
8 x,1/2-y,1/2+z
_cell_length_a                   15.507(3)
_cell_length_b                   7.0840(14)
_cell_length_c                   20.918(4)
_cell_angle_alpha                90
_cell_angle_beta                 90
_cell_angle_gamma                90
_cell_volume                     2297.88
loop_
_atom_site_label
_atom_site_type_symbol
_atom_site_fract_x
_atom_site_fract_y
_atom_site_fract_z
Cu1 Cu 0.439600(19) 0.12267(5) 0.337520(14)
O1 O 0.47129(14) -0.1337(3) 0.16496(8)
N1 N 0.47942(13) 0.0077(3) 0.60070(10)
O2 O 0.19623(12) 0.2537(3) 0.39497(9)
O3 O 0.49885(12) -0.0097(3) 0.26143(8)
N2 N 0.34330(14) 0.0861(3) 0.28072(10)
N3 N 0.34587(14) 0.2262(3) 0.39257(10)
C1 C 0.42696(17) -0.0777(4) 0.55797(13)
H1 H 0.4192 -0.2104 0.5609
C2 C 0.26505(17) 0.1210(3) 0.30346(12)
C3 C 0.35660(16) 0.0067(4) 0.22384(11)
C4 C 0.38401(17) 0.0192(4) 0.51022(12)
H2 H 0.3480 -0.0462 0.4809
C5 C 0.39433(16) 0.2162(4) 0.50571(12)
C6 C 0.20444(17) 0.0032(4) 0.20649(13)
H3 H 0.1560 -0.0225 0.1801
C7 C 0.44438(16) 0.3044(4) 0.55231(13)
H4 H 0.4498 0.4380 0.5527
C8 C 0.48591(17) 0.1974(4) 0.59784(12)
H5 H 0.5207 0.2601 0.6286
C9 C 0.28754(17) -0.0322(4) 0.18381(12)
H6 H 0.2965 -0.0816 0.1421
C10 C 0.35392(18) 0.3303(4) 0.45253(12)
H7 H 0.2959 0.3723 0.4663
H8 H 0.3893 0.4445 0.4450
C11 C 0.26586(16) 0.2075(3) 0.36989(11)
C12 C 0.45020(16) -0.0492(4) 0.21470(12)
C13 C 0.19238(17) 0.0766(4) 0.26800(13)
H9 H 0.1362 0.0952 0.2849
Cu1C Cu 0.560400(19) -0.37733(5) 0.162480(14)
Cu1D Cu 0.560400(19) -0.12267(5) 0.662480(14)
O1C O 0.52871(14) 0.3663(3) 0.33504(8)
N1D N 0.52058(13) -0.0077(3) 0.39930(10)
loop_
_geom_bond_atom_site_label_1
_geom_bond_atom_site_label_2
_geom_bond_site_symmetry_1
_geom_bond_site_symmetry_2
Cu1 O3 1_555 1_555
O1 C12 1_555 1_555
N1 C1 1_555 1_555
O2 C11 1_555 1_555
O3 C12 1_555 1_555
N2 Cu1 1_555 1_555
N3 Cu1 1_555 1_555
C1 H1 1_555 1_555
C2 N2 1_555 1_555
C3 N2 1_555 1_555
C4 C1 1_555 1_555
H2 C4 1_555 1_555
C5 C4 1_555 1_555
C6 H3 1_555 1_555
C7 C5 1_555 1_555
H4 C7 1_555 1_555
C8 N1 1_555 1_555
H5 C8 1_555 1_555
C9 C3 1_555 1_555
H6 C9 1_555 1_555
C10 N3 1_555 1_555
H7 C10 1_555 1_555
H8 C10 1_555 1_555
C11 N3 1_555 1_555
C12 C3 1_555 1_555
C13 C2 1_555 1_555
H9 C13 1_555 1_555
Cu1C O1 1_555 1_555
Cu1D N1 1_555 1_555
O1C Cu1 1_555 1_555
N1D Cu1 1_555 1_555
C2 C11 1_555 1_555
C5 C10 1_555 1_555
C6 C9 1_555 1_555
C6 C13 1_555 1_555
C7 C8 1_555 1_555

#END
