
#######################################################################
#
#                 Cambridge Crystallographic Data Centre
#                                CCDC 
#
#######################################################################
#
# If this CIF has been generated from an entry in the Cambridge 
# Structural Database, then it will include bibliographic, chemical, 
# crystal, experimental, refinement or atomic coordinate data resulting 
# from the CCDC's data processing and validation procedures.
#
#######################################################################

data_ICEJUW
_symmetry_cell_setting           monoclinic
_symmetry_space_group_name_H-M   'P 21/c'
_symmetry_Int_Tables_number      14
_space_group_name_Hall           '-P 2ybc'
loop_
_symmetry_equiv_pos_site_id
_symmetry_equiv_pos_as_xyz
1 x,y,z
2 x,1/2-y,1/2+z
3 -x,-y,-z
4 -x,1/2+y,1/2-z
_cell_length_a                   11.1605(11)
_cell_length_b                   10.4522(10)
_cell_length_c                   26.816(3)
_cell_angle_alpha                90
_cell_angle_beta                 91.311(2)
_cell_angle_gamma                90
_cell_volume                     3127.32
loop_
_atom_site_label
_atom_site_type_symbol
_atom_site_fract_x
_atom_site_fract_y
_atom_site_fract_z
Ba1 Ba -0.47333(3) 0.13069(4) 0.189440(14)
Ba2 Ba 0.20565(4) 0.28655(4) 0.107188(15)
Ti1 Ti -0.19257(9) 0.11260(11) 0.12989(4)
O1 O -0.2200(3) 0.2027(4) 0.18937(15)
O2 O -0.0463(3) 0.2251(4) 0.13441(15)
O3 O 0.0465(4) 0.3756(5) 0.17743(16)
O4 O -0.4201(4) 0.3997(5) 0.19658(18)
O5 O -0.3309(4) 0.5283(5) 0.25087(18)
O6 O -0.1275(4) 0.1081(5) 0.30154(19)
O7 O 0.0134(4) 0.1242(5) 0.24580(17)
O8 O -0.3158(4) 0.2045(4) 0.09977(15)
O9 O -0.1580(4) 0.0847(4) 0.05784(15)
O10 O -0.2262(4) 0.1117(5) -0.01949(17)
O11 O -0.6480(4) 0.2048(5) 0.02851(16)
O12 O -0.5718(4) 0.1883(5) 0.10260(17)
O13 O -0.2702(5) 0.5351(6) 0.0309(3)
O14 O -0.1474(5) 0.3722(6) 0.0368(3)
O15 O -0.2922(3) -0.0189(4) 0.15213(14)
O16 O -0.0743(4) -0.0310(4) 0.13769(16)
O17 O -0.0634(4) -0.2416(4) 0.13992(17)
O18 O -0.4122(4) -0.0737(5) 0.24509(16)
O19 O -0.3223(4) -0.2105(4) 0.29576(16)
O20 O -0.2965(4) -0.1908(5) 0.06417(17)
O21 O -0.4779(5) -0.2446(7) 0.08588(19)
C1 C -0.1508(5) 0.3088(6) 0.2018(2)
C2 C -0.0379(5) 0.3055(6) 0.1701(2)
C3 C -0.2136(5) 0.4354(6) 0.1875(2)
H1 H -0.1586 0.5056 0.1940
H2 H -0.2323 0.4346 0.1520
C4 C -0.3263(6) 0.4592(6) 0.2151(2)
C5 C -0.1158(5) 0.3020(6) 0.2570(2)
H3 H -0.0550 0.3656 0.2650
H4 H -0.1851 0.3188 0.2772
C6 C -0.0679(6) 0.1699(6) 0.2677(2)
C7 C -0.3390(5) 0.1991(6) 0.0482(2)
C8 C -0.2342(6) 0.1293(6) 0.0248(2)
C9 C -0.4509(5) 0.1194(6) 0.0365(2)
H5 H -0.4605 0.1113 0.0006
H6 H -0.4393 0.0342 0.0501
C10 C -0.5641(5) 0.1745(6) 0.0569(2)
C11 C -0.3547(6) 0.3323(6) 0.0273(3)
H7 H -0.3777 0.3261 -0.0077
H8 H -0.4196 0.3741 0.0444
C12 C -0.2463(7) 0.4125(7) 0.0322(3)
C13 C -0.2428(5) -0.1375(6) 0.1666(2)
C14 C -0.1158(5) -0.1434(7) 0.1453(2)
C15 C -0.2200(5) -0.1488(6) 0.2235(2)
H9 H -0.1777 -0.2286 0.2297
H10 H -0.1663 -0.0801 0.2335
C16 C -0.3258(5) -0.1453(6) 0.2572(2)
C17 C -0.3243(6) -0.2456(6) 0.1482(2)
H11 H -0.2794 -0.3251 0.1492
H12 H -0.3904 -0.2541 0.1708
C18 C -0.3738(6) -0.2267(7) 0.0966(2)
O22 O -0.6058(5) -0.0853(6) 0.1511(2)
O23 O -0.4055(5) 0.1946(6) 0.28643(18)
O24 O 0.0752(6) 0.4678(7) 0.0644(3)
O25 O 0.3285(7) 0.5214(8) 0.1163(3)
O26 O 0.0904(5) 0.1136(6) 0.0418(2)
O27 O 0.1747(4) 0.0547(6) 0.15831(18)
H13 H -0.477(6) 0.413(10) 0.216(3)
H14 H -0.092(8) 0.038(5) 0.307(4)
H15 H -0.197(3) 0.557(11) 0.032(4)
H16 H -0.331(8) -0.184(11) 0.0358(18)
H17 H -0.6811(19) -0.074(10) 0.147(3)
H18 H -0.579(7) -0.122(10) 0.125(2)
H19 H -0.406(10) 0.263(5) 0.303(3)
H20 H -0.373(9) 0.135(6) 0.303(3)
H21 H 0.118(6) 0.533(6) 0.072(4)
H22 H 0.002(2) 0.488(8) 0.065(4)
H23 H 0.398(4) 0.489(8) 0.114(4)
H24 H 0.328(8) 0.597(4) 0.105(4)
H25 H 0.026(4) 0.093(9) 0.056(3)
H26 H 0.076(8) 0.171(8) 0.020(3)
H27 H 0.179(7) 0.064(11) 0.1898(7)
H28 H 0.105(4) 0.030(10) 0.150(3)
O5C O -0.6691(4) 0.0283(5) 0.24913(18)
O19C O -0.6777(4) 0.2895(4) 0.20424(16)
O11_2 O 0.3520(4) 0.2048(5) 0.02851(16)
O12_2 O 0.4282(4) 0.1883(5) 0.10260(17)
O19C_2 O 0.3223(4) 0.2895(4) 0.20424(16)
Ba1C Ba -0.52667(3) 0.63069(4) 0.310560(14)
Ba2_2 Ba -0.79435(4) 0.28655(4) 0.107188(15)
Ba1C_2 Ba -0.52667(3) -0.36931(4) 0.310560(14)
Ba2C Ba -0.20565(4) -0.21345(4) 0.392812(15)
O28 O 0.0742(7) 0.3183(7) -0.0347(3)
H29 H 0.077(10) 0.318(9) -0.0029(5)
H30 H 0.101(10) 0.247(5) -0.045(3)
O29 O 0.1840(7) 0.7342(8) 0.1007(3)
H31 H 0.198(8) 0.773(9) 0.074(2)
H32 H 0.116(5) 0.757(10) 0.112(3)
loop_
_geom_bond_atom_site_label_1
_geom_bond_atom_site_label_2
_geom_bond_site_symmetry_1
_geom_bond_site_symmetry_2
Ba1 O1 1_555 1_555
Ba2 O2 1_555 1_555
Ti1 O1 1_555 1_555
O1 C1 1_555 1_555
O2 Ti1 1_555 1_555
O3 Ba2 1_555 1_555
O4 Ba1 1_555 1_555
O5 C4 1_555 1_555
O6 C6 1_555 1_555
O7 C6 1_555 1_555
O8 Ba1 1_555 1_555
O9 Ti1 1_555 1_555
O10 C8 1_555 1_555
O11 C10 1_555 1_555
O12 Ba1 1_555 1_555
O13 C12 1_555 1_555
O14 C12 1_555 1_555
O15 Ba1 1_555 1_555
O16 Ti1 1_555 1_555
O17 C14 1_555 1_555
O18 Ba1 1_555 1_555
O19 C16 1_555 1_555
O20 C18 1_555 1_555
O21 C18 1_555 1_555
C1 C2 1_555 1_555
C2 O2 1_555 1_555
C3 C1 1_555 1_555
H1 C3 1_555 1_555
H2 C3 1_555 1_555
C4 O4 1_555 1_555
C5 C1 1_555 1_555
H3 C5 1_555 1_555
H4 C5 1_555 1_555
C6 C5 1_555 1_555
C7 O8 1_555 1_555
C8 O9 1_555 1_555
C9 C7 1_555 1_555
H5 C9 1_555 1_555
H6 C9 1_555 1_555
C10 O12 1_555 1_555
C11 C7 1_555 1_555
H7 C11 1_555 1_555
H8 C11 1_555 1_555
C12 C11 1_555 1_555
C13 O15 1_555 1_555
C14 O16 1_555 1_555
C15 C13 1_555 1_555
H9 C15 1_555 1_555
H10 C15 1_555 1_555
C16 O18 1_555 1_555
C17 C13 1_555 1_555
H11 C17 1_555 1_555
H12 C17 1_555 1_555
C18 C17 1_555 1_555
O22 Ba1 1_555 1_555
O23 Ba1 1_555 1_555
O24 Ba2 1_555 1_555
O25 Ba2 1_555 1_555
O26 Ba2 1_555 1_555
O27 Ba2 1_555 1_555
O28 H29 1_555 1_555
O29 H31 1_555 1_555
H13 O4 1_555 1_555
H14 O6 1_555 1_555
H15 O13 1_555 1_555
H16 O20 1_555 1_555
H17 O22 1_555 1_555
H18 O22 1_555 1_555
H19 O23 1_555 1_555
H20 O23 1_555 1_555
H21 O24 1_555 1_555
H22 O24 1_555 1_555
H23 O25 1_555 1_555
H24 O25 1_555 1_555
H25 O26 1_555 1_555
H26 O26 1_555 1_555
H27 O27 1_555 1_555
H28 O27 1_555 1_555
H30 O28 1_555 1_555
H32 O29 1_555 1_555
O5C Ba1 1_555 1_555
O19C Ba1 1_555 1_555
O11_2 Ba2 1_555 1_555
O12_2 Ba2 1_555 1_555
O19C_2 Ba2 1_555 1_555
Ba1C O5 1_555 1_555
Ba2_2 O11 1_555 1_555
Ba1C_2 O19 1_555 1_555
Ba2C O19 1_555 1_555
Ti1 O8 1_555 1_555
Ti1 O15 1_555 1_555
O3 C2 1_555 1_555
O12 Ba2_2 1_555 1_555
C3 C4 1_555 1_555
C7 C8 1_555 1_555
C9 C10 1_555 1_555
C13 C14 1_555 1_555
C15 C16 1_555 1_555
O19C Ba2_2 1_555 1_555

#END
