
#######################################################################
#
#                 Cambridge Crystallographic Data Centre
#                                CCDC 
#
#######################################################################
#
# If this CIF has been generated from an entry in the Cambridge 
# Structural Database, then it will include bibliographic, chemical, 
# crystal, experimental, refinement or atomic coordinate data resulting 
# from the CCDC's data processing and validation procedures.
#
#######################################################################

data_ICEKAD
_symmetry_cell_setting           trigonal
_symmetry_space_group_name_H-M   'P -3'
_symmetry_Int_Tables_number      147
_space_group_name_Hall           '-P 3'
loop_
_symmetry_equiv_pos_site_id
_symmetry_equiv_pos_as_xyz
1 x,y,z
2 -y,x-y,z
3 -x+y,-x,z
4 -x,-y,-z
5 y,-x+y,-z
6 x-y,x,-z
_cell_length_a                   14.7993(6)
_cell_length_b                   14.7993(6)
_cell_length_c                   9.4457(4)
_cell_angle_alpha                90
_cell_angle_beta                 90
_cell_angle_gamma                120
_cell_volume                     1791.63
loop_
_atom_site_label
_atom_site_type_symbol
_atom_site_fract_x
_atom_site_fract_y
_atom_site_fract_z
Ba2 Ba 0.0000 0.0000 0.0000
O9 O 0.1491(7) 0.0880(13) 0.2175(14)
O10 O 0.2212(9) 0.1346(17) -0.0708(11)
O9A O -0.0880(13) 0.0611(15) 0.2175(14)
O9B O -0.0611(15) -0.1491(7) 0.2175(14)
O9C O -0.1491(7) -0.0880(13) -0.2175(14)
O9D O 0.0880(13) -0.0611(15) -0.2175(14)
O9E O 0.0611(15) 0.1491(7) -0.2175(14)
O10A O -0.1346(17) 0.0866(19) -0.0708(11)
O10B O -0.0866(19) -0.2212(9) -0.0708(11)
O10C O -0.2212(9) -0.1346(17) 0.0708(11)
O10D O 0.1346(17) -0.0866(19) 0.0708(11)
O10E O 0.0866(19) 0.2212(9) 0.0708(11)
N1 N 0.3952(3) 0.0500(3) -0.1085(3)
H6 H 0.3385(16) -0.0036(17) -0.134(4)
H7 H 0.390(3) 0.1040(17) -0.120(4)
H8 H 0.405(3) 0.044(3) -0.0212(13)
H9 H 0.4453(19) 0.055(3) -0.157(3)
Ba1 Ba 0.6667 0.3333 0.68441(3)
Ti1 Ti 0.6667 0.3333 0.30585(9)
O1 O 0.55643(15) 0.23276(15) 0.4144(2)
O2 O 0.54514(17) 0.29291(18) 0.1724(2)
O3 O 0.3727(2) 0.2037(2) 0.1524(3)
O4 O 0.5000(2) -0.0086(2) 0.3695(3)
O5 O 0.4582(3) 0.0338(3) 0.1696(3)
O6 O 0.2856(3) 0.1321(3) 0.6505(4)
O7 O 0.4525(2) 0.2210(3) 0.6953(3)
O8 O 0.6142(2) 0.1888(2) 0.9041(3)
C1 C 0.4515(2) 0.1922(2) 0.3718(3)
C2 C 0.4533(2) 0.2296(2) 0.2190(3)
C3 C 0.3954(2) 0.0729(2) 0.3793(3)
H1 H 0.3885 0.0513 0.4776
H2 H 0.3259 0.0442 0.3399
C4 C 0.4541(3) 0.0303(2) 0.2992(4)
C5 C 0.3966(2) 0.2354(3) 0.4638(3)
H3 H 0.4390 0.3109 0.4667
H4 H 0.3304 0.2179 0.4205
C6 C 0.3770(3) 0.1934(3) 0.6150(4)
H5 H 0.5000 0.0000 0.5000
H10 H 0.636(4) 0.150(3) 0.869(4)
H11 H 0.634(4) 0.202(4) 0.9901(19)
O4C O 0.5000(2) 0.0086(2) 0.6305(3)
C4C C 0.5459(3) -0.0303(2) 0.7008(4)
O5C O 0.5418(3) -0.0338(3) 0.8304(3)
C3C C 0.6046(2) -0.0729(2) 0.6207(3)
C1C C 0.5485(2) -0.1922(2) 0.6282(3)
O1C O 0.44357(15) -0.23276(15) 0.5856(2)
C2C C 0.5467(2) -0.2296(2) 0.7810(3)
O2C O 0.45486(17) -0.29291(18) 0.8276(2)
O3C O 0.6273(2) -0.2037(2) 0.8476(3)
C5C C 0.6034(2) -0.2354(3) 0.5362(3)
H3C H 0.5610 -0.3109 0.5333
H4C H 0.6696 -0.2179 0.5795
C6C C 0.6230(3) -0.1934(3) 0.3850(4)
O6C O 0.7144(3) -0.1321(3) 0.3495(4)
O7C O 0.5475(2) -0.2210(3) 0.3047(3)
H1C H 0.6115 -0.0513 0.5224
H2C H 0.6741 -0.0442 0.6601
O1A O 0.76724(15) 0.32367(21) 0.4144(2)
O2A O 0.70709(18) 0.25223(25) 0.1724(2)
O3A O 0.7963(2) 0.1690(3) 0.1524(3)
O4A O 1.0086(2) 0.5086(3) 0.3695(3)
O5A O 0.9662(3) 0.4244(4) 0.1696(3)
O6A O 0.8679(3) 0.1535(4) 0.6505(4)
O7A O 0.7790(3) 0.2315(4) 0.6953(3)
C1A C 0.8078(2) 0.2593(3) 0.3718(3)
C2A C 0.7704(2) 0.2237(3) 0.2190(3)
C3A C 0.9271(2) 0.3225(3) 0.3793(3)
H1A H 0.9487 0.3372 0.4776
H2A H 0.9558 0.2817 0.3399
C4A C 0.9697(2) 0.4238(4) 0.2992(4)
C5A C 0.7646(3) 0.1612(4) 0.4638(3)
H3A H 0.6891 0.1281 0.4667
H4A H 0.7821 0.1125 0.4205
C6A C 0.8066(3) 0.1836(4) 0.6150(4)
H5A H 1.0000 0.5000 0.5000
O4D O 0.9914(2) 0.4914(3) 0.6305(3)
C4D C 1.0303(2) 0.5762(4) 0.7008(4)
O5D O 1.0338(3) 0.5756(4) 0.8304(3)
C3D C 1.0729(2) 0.6775(3) 0.6207(3)
C1D C 1.1922(2) 0.7407(3) 0.6282(3)
O1D O 1.23276(15) 0.67633(21) 0.5856(2)
C2D C 1.2296(2) 0.7763(3) 0.7810(3)
O2D O 1.29291(18) 0.74777(25) 0.8276(2)
O3D O 1.2037(2) 0.8310(3) 0.8476(3)
C5D C 1.2354(3) 0.8388(4) 0.5362(3)
H3D H 1.3109 0.8719 0.5333
H4D H 1.2179 0.8875 0.5795
C6D C 1.1934(3) 0.8164(4) 0.3850(4)
O6D O 1.1321(3) 0.8465(4) 0.3495(4)
O7D O 1.2210(3) 0.7685(4) 0.3047(3)
H1D H 1.0513 0.6628 0.5224
H2D H 1.0442 0.7183 0.6601
O1B O 0.67633(21) 0.44357(15) 0.4144(2)
O2B O 0.74777(25) 0.45486(17) 0.1724(2)
O3B O 0.8310(3) 0.6273(2) 0.1524(3)
O4B O 0.4914(3) 0.5000(2) 0.3695(3)
O5B O 0.5756(4) 0.5418(3) 0.1696(3)
O6B O 0.8465(4) 0.7144(3) 0.6505(4)
O7B O 0.7685(4) 0.5475(2) 0.6953(3)
C1B C 0.7407(3) 0.5485(2) 0.3718(3)
C2B C 0.7763(3) 0.5467(2) 0.2190(3)
C3B C 0.6775(3) 0.6046(2) 0.3793(3)
H1B H 0.6628 0.6115 0.4776
H2B H 0.7183 0.6741 0.3399
C4B C 0.5762(4) 0.5459(3) 0.2992(4)
C5B C 0.8388(4) 0.6034(2) 0.4638(3)
H3B H 0.8719 0.5610 0.4667
H4B H 0.8875 0.6696 0.4205
C6B C 0.8164(4) 0.6230(3) 0.6150(4)
H5B H 0.5000 0.5000 0.5000
O4E O 0.5086(3) 0.5000(2) 0.6305(3)
C4E C 0.4238(4) 0.4541(3) 0.7008(4)
O5E O 0.4244(4) 0.4582(3) 0.8304(3)
C3E C 0.3225(3) 0.3954(2) 0.6207(3)
C1E C 0.2593(3) 0.4515(2) 0.6282(3)
O1E O 0.32367(21) 0.55643(15) 0.5856(2)
C2E C 0.2237(3) 0.4533(2) 0.7810(3)
O2E O 0.25223(25) 0.54514(17) 0.8276(2)
O3E O 0.1690(3) 0.3727(2) 0.8476(3)
C5E C 0.1612(4) 0.3966(2) 0.5362(3)
H3E H 0.1281 0.4390 0.5333
H4E H 0.1125 0.3304 0.5795
C6E C 0.1836(4) 0.3770(3) 0.3850(4)
O6E O 0.1535(4) 0.2856(3) 0.3495(4)
O7E O 0.2315(4) 0.4525(2) 0.3047(3)
H1E H 0.3372 0.3885 0.5224
H2E H 0.2817 0.3259 0.6601
O8A O 0.8112(2) 0.4254(3) 0.9041(3)
H10A H 0.850(3) 0.486(5) 0.869(4)
H11A H 0.798(4) 0.432(6) 0.9901(19)
O8B O 0.5746(3) 0.3858(2) 0.9041(3)
H10B H 0.514(5) 0.364(4) 0.869(4)
H11B H 0.568(6) 0.366(4) 0.9901(19)
Ba1C Ba 0.3333 -0.3333 0.31559(3)
Ti1C Ti 0.3333 -0.3333 0.69415(9)
O8C O 0.3858(2) -0.1888(2) 0.0959(3)
H10C H 0.364(4) -0.150(3) 0.131(4)
H11C H 0.366(4) -0.202(4) 0.0099(19)
O8D O 0.1888(2) -0.4254(3) 0.0959(3)
H10D H 0.150(3) -0.486(5) 0.131(4)
H11D H 0.202(4) -0.432(6) 0.0099(19)
O8E O 0.4254(3) -0.3858(2) 0.0959(3)
H10E H 0.486(5) -0.364(4) 0.131(4)
H11E H 0.432(6) -0.366(4) 0.0099(19)
Ba1C_2 Ba 1.3333 0.6667 0.31559(3)
Ti1C_2 Ti 1.3333 0.6667 0.69415(9)
Ba1C_3 Ba 0.3333 0.6667 0.31559(3)
Ti1C_3 Ti 0.3333 0.6667 0.69415(9)
O1D_2 O 0.23276(15) -0.32367(21) 0.5856(2)
O1E_2 O 0.32367(21) -0.44357(15) 0.5856(2)
O7D_2 O 0.2210(3) -0.2315(4) 0.3047(3)
O7E_2 O 0.2315(4) -0.5475(2) 0.3047(3)
O2D_2 O 0.29291(18) -0.25223(25) 0.8276(2)
O2E_2 O 0.25223(25) -0.45486(17) 0.8276(2)
N2? N 0.1159(13) 0.0013(12) 0.501(3)
loop_
_geom_bond_atom_site_label_1
_geom_bond_atom_site_label_2
_geom_bond_site_symmetry_1
_geom_bond_site_symmetry_2
Ba1 O1 1_555 1_555
Ba2 O9 1_555 1_555
Ti1 O1 1_555 1_555
O1 C1 1_555 1_555
O2 Ti1 1_555 1_555
O3 C2 1_555 1_555
O4 C4 1_555 1_555
O5 C4 1_555 1_555
O6 C6 1_555 1_555
O7 Ba1 1_555 1_555
O8 Ba1 1_555 1_555
O10 Ba2 1_555 1_555
C1 C2 1_555 1_555
C2 O2 1_555 1_555
C3 C1 1_555 1_555
H1 C3 1_555 1_555
H2 C3 1_555 1_555
C4 C3 1_555 1_555
C5 C1 1_555 1_555
H3 C5 1_555 1_555
H4 C5 1_555 1_555
C6 O7 1_555 1_555
N1 H6 1_555 1_555
H5 O4 1_555 1_555
H7 N1 1_555 1_555
H8 N1 1_555 1_555
H9 N1 1_555 1_555
H10 O8 1_555 1_555
H11 O8 1_555 1_555
O4C H5 1_555 1_555
C4C O4C 1_555 1_555
O5C C4C 1_555 1_555
C3C C4C 1_555 1_555
C1C C3C 1_555 1_555
O1C C1C 1_555 1_555
C2C C1C 1_555 1_555
O2C C2C 1_555 1_555
O3C C2C 1_555 1_555
C5C C1C 1_555 1_555
H3C C5C 1_555 1_555
H4C C5C 1_555 1_555
C6C C5C 1_555 1_555
O6C C6C 1_555 1_555
O7C C6C 1_555 1_555
H1C C3C 1_555 1_555
H2C C3C 1_555 1_555
O9A Ba2 1_555 1_555
O9B Ba2 1_555 1_555
O9C Ba2 1_555 1_555
O9D Ba2 1_555 1_555
O9E Ba2 1_555 1_555
O10A Ba2 1_555 1_555
O10B Ba2 1_555 1_555
O10C Ba2 1_555 1_555
O10D Ba2 1_555 1_555
O10E Ba2 1_555 1_555
O1A Ba1 1_555 1_555
O2A Ti1 1_555 1_555
O3A C2A 1_555 1_555
O4A C4A 1_555 1_555
O5A C4A 1_555 1_555
O6A C6A 1_555 1_555
O7A Ba1 1_555 1_555
C1A O1A 1_555 1_555
C2A O2A 1_555 1_555
C3A C1A 1_555 1_555
H1A C3A 1_555 1_555
H2A C3A 1_555 1_555
C4A C3A 1_555 1_555
C5A C1A 1_555 1_555
H3A C5A 1_555 1_555
H4A C5A 1_555 1_555
C6A O7A 1_555 1_555
H5A O4A 1_555 1_555
O4D H5A 1_555 1_555
C4D O4D 1_555 1_555
O5D C4D 1_555 1_555
C3D C4D 1_555 1_555
C1D C3D 1_555 1_555
O1D C1D 1_555 1_555
C2D C1D 1_555 1_555
O2D C2D 1_555 1_555
O3D C2D 1_555 1_555
C5D C1D 1_555 1_555
H3D C5D 1_555 1_555
H4D C5D 1_555 1_555
C6D C5D 1_555 1_555
O6D C6D 1_555 1_555
O7D C6D 1_555 1_555
H1D C3D 1_555 1_555
H2D C3D 1_555 1_555
O1B Ba1 1_555 1_555
O2B Ti1 1_555 1_555
O3B C2B 1_555 1_555
O4B C4B 1_555 1_555
O5B C4B 1_555 1_555
O6B C6B 1_555 1_555
O7B Ba1 1_555 1_555
C1B O1B 1_555 1_555
C2B O2B 1_555 1_555
C3B C1B 1_555 1_555
H1B C3B 1_555 1_555
H2B C3B 1_555 1_555
C4B C3B 1_555 1_555
C5B C1B 1_555 1_555
H3B C5B 1_555 1_555
H4B C5B 1_555 1_555
C6B O7B 1_555 1_555
H5B O4B 1_555 1_555
O4E H5B 1_555 1_555
C4E O4E 1_555 1_555
O5E C4E 1_555 1_555
C3E C4E 1_555 1_555
C1E C3E 1_555 1_555
O1E C1E 1_555 1_555
C2E C1E 1_555 1_555
O2E C2E 1_555 1_555
O3E C2E 1_555 1_555
C5E C1E 1_555 1_555
H3E C5E 1_555 1_555
H4E C5E 1_555 1_555
C6E C5E 1_555 1_555
O6E C6E 1_555 1_555
O7E C6E 1_555 1_555
H1E C3E 1_555 1_555
H2E C3E 1_555 1_555
O8A Ba1 1_555 1_555
H10A O8A 1_555 1_555
H11A O8A 1_555 1_555
O8B Ba1 1_555 1_555
H10B O8B 1_555 1_555
H11B O8B 1_555 1_555
Ba1C O1C 1_555 1_555
Ti1C O1C 1_555 1_555
O8C Ba1C 1_555 1_555
H10C O8C 1_555 1_555
H11C O8C 1_555 1_555
O8D Ba1C 1_555 1_555
H10D O8D 1_555 1_555
H11D O8D 1_555 1_555
O8E Ba1C 1_555 1_555
H10E O8E 1_555 1_555
H11E O8E 1_555 1_555
Ba1C_2 O1D 1_555 1_555
Ti1C_2 O1D 1_555 1_555
Ba1C_3 O1E 1_555 1_555
Ti1C_3 O1E 1_555 1_555
O1D_2 Ba1C 1_555 1_555
O1E_2 Ba1C 1_555 1_555
O7D_2 Ba1C 1_555 1_555
O7E_2 Ba1C 1_555 1_555
O2D_2 Ti1C 1_555 1_555
O2E_2 Ti1C 1_555 1_555
Ti1 O1A 1_555 1_555
Ti1 O1B 1_555 1_555
C5 C6 1_555 1_555
O2C Ti1C 1_555 1_555
O7C Ba1C 1_555 1_555
C1A C2A 1_555 1_555
C5A C6A 1_555 1_555
O2D Ti1C_2 1_555 1_555
O7D Ba1C_2 1_555 1_555
C1B C2B 1_555 1_555
C5B C6B 1_555 1_555
O2E Ti1C_3 1_555 1_555
O7E Ba1C_3 1_555 1_555
Ti1C O1D_2 1_555 1_555
Ti1C O1E_2 1_555 1_555

#END
