
#######################################################################
#
#                 Cambridge Crystallographic Data Centre
#                                CCDC 
#
#######################################################################
#
# If this CIF has been generated from an entry in the Cambridge 
# Structural Database, then it will include bibliographic, chemical, 
# crystal, experimental, refinement or atomic coordinate data resulting 
# from the CCDC's data processing and validation procedures.
#
#######################################################################

data_ICEMAF
_symmetry_cell_setting           monoclinic
_symmetry_space_group_name_H-M   'C c'
_symmetry_Int_Tables_number      9
_space_group_name_Hall           'C -2yc'
loop_
_symmetry_equiv_pos_site_id
_symmetry_equiv_pos_as_xyz
1 x,y,z
2 x,-y,1/2+z
3 1/2+x,1/2+y,z
4 1/2+x,1/2-y,1/2+z
_cell_length_a                   7.3337(3)
_cell_length_b                   20.6470(8)
_cell_length_c                   17.7821(5)
_cell_angle_alpha                90
_cell_angle_beta                 101.279(2)
_cell_angle_gamma                90
_cell_volume                     2640.54
loop_
_atom_site_label
_atom_site_type_symbol
_atom_site_fract_x
_atom_site_fract_y
_atom_site_fract_z
Zn1 Zn 0.14913(9) 0.73085(4) 0.91047(5)
Zn2 Zn 0.69168(10) 0.77982(4) 0.85509(6)
C1 C 0.0960(11) 0.9116(3) 0.8753(5)
C2 C 0.0052(13) 0.9668(4) 0.8906(5)
H1 H -0.1240 0.9674 0.8818
C3 C 0.1040(15) 1.0215(4) 0.9190(6)
H2 H 0.0418 1.0577 0.9322
C4 C 0.2944(15) 1.0221(4) 0.9276(6)
H3 H 0.3616 1.0592 0.9448
C5 C 0.3845(12) 0.9671(4) 0.9104(5)
H4 H 0.5131 0.9677 0.9156
C6 C 0.2878(12) 0.9114(4) 0.8856(5)
C7 C 0.3976(11) 0.8515(4) 0.8710(5)
C8 C -0.0318(12) 0.8565(4) 0.8454(6)
C9 C -0.2408(12) 0.6600(4) 1.0510(5)
C10 C -0.1005(14) 0.6288(4) 1.1037(6)
H5 H 0.0211 0.6285 1.0957
C11 C -0.1426(16) 0.5985(5) 1.1671(6)
H6 H -0.0489 0.5793 1.2029
C12 C -0.3197(17) 0.5968(5) 1.1772(6)
H7 H -0.3473 0.5745 1.2190
C13 C -0.4613(15) 0.6272(5) 1.1272(5)
H8 H -0.5817 0.6272 1.1366
C14 C -0.4222(12) 0.6583(4) 1.0621(4)
C15 C -0.1914(11) 0.6937(4) 0.9826(5)
C16 C -0.5846(12) 0.6851(4) 1.0053(5)
C17 C 0.0914(14) 0.7142(4) 0.7373(6)
H9 H 0.1010 0.7591 0.7372
C18 C 0.0821(17) 0.6822(5) 0.6705(6)
H10 H 0.0829 0.7053 0.6257
C19 C 0.0712(17) 0.6151(5) 0.6681(7)
C20 C 0.0582(17) 0.5855(5) 0.7362(7)
H11 H 0.0424 0.5409 0.7375
C21 C 0.0683(14) 0.6209(5) 0.8021(6)
H12 H 0.0612 0.5991 0.8472
C22 C 0.081(2) 0.5771(6) 0.5952(8)
H13 H -0.0253 0.5481 0.5842
H14 H 0.0707 0.6072 0.5527
C23 C 0.255(2) 0.5382(7) 0.5999(8)
H15 H 0.2332 0.5046 0.5610
H16 H 0.2834 0.5170 0.6495
C24 C 0.427(2) 0.5794(6) 0.5890(8)
H17 H 0.5259 0.5500 0.5829
H18 H 0.3927 0.6037 0.5416
C25 C 0.5012(17) 0.6258(5) 0.6519(6)
C26 C 0.5136(17) 0.6110(4) 0.7304(6)
H19 H 0.4847 0.5695 0.7449
C27 C 0.5677(13) 0.6572(4) 0.7848(5)
H20 H 0.5679 0.6468 0.8357
C28 C 0.6181(16) 0.7300(5) 0.6955(6)
H21 H 0.6577 0.7706 0.6829
C29 C 0.5595(17) 0.6864(6) 0.6375(6)
H22 H 0.5596 0.6986 0.5871
N1 N 0.0874(9) 0.6840(3) 0.8045(4)
N2 N 0.6209(10) 0.7169(3) 0.7687(4)
O1 O 0.5630(8) 0.8607(3) 0.8665(4)
O2 O 0.3177(8) 0.7982(3) 0.8580(3)
O3 O -0.0404(8) 0.8087(3) 0.8897(4)
O4 O -0.1324(9) 0.8598(3) 0.7817(4)
O5 O -0.0421(8) 0.6819(3) 0.9639(4)
O6 O -0.3110(8) 0.7326(3) 0.9496(4)
O7 O -0.6615(9) 0.7373(3) 1.0188(4)
O8 O -0.6406(8) 0.6549(3) 0.9460(4)
O7_2 O 0.3385(9) 0.7373(3) 1.0188(4)
O8_2 O 0.3594(8) 0.6549(3) 0.9460(4)
O3_2 O 0.9596(8) 0.8087(3) 0.8897(4)
O6_2 O 0.6890(8) 0.7326(3) 0.9496(4)
Zn2_2 Zn -0.30832(10) 0.77982(4) 0.85509(6)
Zn1_2 Zn -0.85087(9) 0.73085(4) 0.91047(5)
loop_
_geom_bond_atom_site_label_1
_geom_bond_atom_site_label_2
_geom_bond_site_symmetry_1
_geom_bond_site_symmetry_2
Zn1 N1 1_555 1_555
Zn2 N2 1_555 1_555
C1 C2 1_555 1_555
C2 H1 1_555 1_555
C3 C2 1_555 1_555
H2 C3 1_555 1_555
C4 C3 1_555 1_555
H3 C4 1_555 1_555
C5 C4 1_555 1_555
H4 C5 1_555 1_555
C6 C1 1_555 1_555
C7 C6 1_555 1_555
C8 C1 1_555 1_555
C9 C10 1_555 1_555
C10 H5 1_555 1_555
C11 C10 1_555 1_555
H6 C11 1_555 1_555
C12 C11 1_555 1_555
H7 C12 1_555 1_555
C13 C12 1_555 1_555
H8 C13 1_555 1_555
C14 C9 1_555 1_555
C15 C9 1_555 1_555
C16 C14 1_555 1_555
C17 H9 1_555 1_555
C18 C17 1_555 1_555
H10 C18 1_555 1_555
C19 C18 1_555 1_555
C20 C19 1_555 1_555
H11 C20 1_555 1_555
C21 C20 1_555 1_555
H12 C21 1_555 1_555
C22 C19 1_555 1_555
H13 C22 1_555 1_555
H14 C22 1_555 1_555
C23 C22 1_555 1_555
H15 C23 1_555 1_555
H16 C23 1_555 1_555
C24 C23 1_555 1_555
H17 C24 1_555 1_555
H18 C24 1_555 1_555
C25 C24 1_555 1_555
C26 C25 1_555 1_555
H19 C26 1_555 1_555
C27 C26 1_555 1_555
H20 C27 1_555 1_555
C28 H21 1_555 1_555
C29 C25 1_555 1_555
H22 C29 1_555 1_555
N1 C17 1_555 1_555
N2 C27 1_555 1_555
O1 Zn2 1_555 1_555
O2 Zn1 1_555 1_555
O3 Zn1 1_555 1_555
O4 C8 1_555 1_555
O5 Zn1 1_555 1_555
O6 C15 1_555 1_555
O7 C16 1_555 1_555
O8 C16 1_555 1_555
O7_2 Zn1 1_555 1_555
O8_2 Zn1 1_555 1_555
O3_2 Zn2 1_555 1_555
O6_2 Zn2 1_555 1_555
Zn2_2 O3 1_555 1_555
Zn1_2 O7 1_555 1_555
C5 C6 1_555 1_555
C7 O1 1_555 1_555
C7 O2 1_555 1_555
C8 O3 1_555 1_555
C13 C14 1_555 1_555
C15 O5 1_555 1_555
C21 N1 1_555 1_555
C28 N2 1_555 1_555
C28 C29 1_555 1_555
O6 Zn2_2 1_555 1_555
O8 Zn1_2 1_555 1_555

#END
