
#######################################################################
#
#                 Cambridge Crystallographic Data Centre
#                                CCDC 
#
#######################################################################
#
# If this CIF has been generated from an entry in the Cambridge 
# Structural Database, then it will include bibliographic, chemical, 
# crystal, experimental, refinement or atomic coordinate data resulting 
# from the CCDC's data processing and validation procedures.
#
#######################################################################

data_ICEMOU
_symmetry_cell_setting           triclinic
_symmetry_space_group_name_H-M   'P -1'
_symmetry_Int_Tables_number      2
_space_group_name_Hall           '-P 1'
loop_
_symmetry_equiv_pos_site_id
_symmetry_equiv_pos_as_xyz
1 x,y,z
2 -x,-y,-z
_cell_length_a                   9.722(3)
_cell_length_b                   13.912(5)
_cell_length_c                   14.084(4)
_cell_angle_alpha                61.886(8)
_cell_angle_beta                 75.831(13)
_cell_angle_gamma                89.921(16)
_cell_volume                     1614.5
loop_
_atom_site_label
_atom_site_type_symbol
_atom_site_fract_x
_atom_site_fract_y
_atom_site_fract_z
Dy1 Dy 0.247075(16) 1.001095(12) 0.003366(12)
O1 O 0.3858(3) 0.9129(2) -0.0881(2)
O2 O 0.1173(3) 0.8188(2) 0.0782(2)
O3 O 0.0779(3) 0.9687(3) 0.1714(2)
O4 O 0.4213(3) 1.1487(2) -0.1539(2)
O5 O 0.5998(3) 0.9557(2) -0.0789(2)
C1 C 0.5159(4) 0.9036(3) -0.0999(3)
O6 O -0.1206(3) 0.9745(2) 0.1198(2)
O7 O 0.2913(3) 0.8218(2) 0.1513(2)
O8 O 0.1493(3) 1.1721(2) -0.0345(3)
C2 C -0.0547(4) 0.9657(3) 0.1898(3)
C3 C 0.5784(4) 0.8259(3) -0.1403(3)
C4 C 0.1550(4) 0.6475(3) 0.2206(3)
C5 C 0.1911(4) 0.7688(3) 0.1454(3)
C6 C -0.1404(4) 0.9479(3) 0.3021(3)
C7 C -0.2886(4) 0.9263(3) 0.3332(3)
H1 H -0.3341 0.9291 0.2812
C8 C 0.2204(4) 0.5931(3) 0.3051(3)
H2 H 0.2923 0.6317 0.3116
C9 C 0.7240(5) 0.8355(4) -0.1832(4)
H3 H 0.7844 0.8918 -0.1905
C10 C 0.4884(4) 0.7403(3) -0.1264(3)
H4 H 0.3901 0.7355 -0.0981
C11 C 0.4483(5) 0.5656(4) -0.1332(4)
C12 C -0.3715(5) 0.9003(4) 0.4407(3)
C13 C 0.5430(5) 0.6614(3) -0.1540(3)
C14 C 0.1800(5) 0.4806(3) 0.3811(4)
N1 N 0.3695(5) 0.3112(3) 0.6506(3)
C15 C -0.2994(5) 0.9003(5) 0.5143(4)
H5 H -0.3515 0.8841 0.5861
C16 C -0.5292(5) 0.8687(4) 0.4748(4)
C17 C -0.0733(5) 0.9459(5) 0.3796(4)
H6 H 0.0259 0.9597 0.3604
C18 C 0.2468(5) 0.4212(3) 0.4743(3)
C19 C 0.6897(5) 0.6740(4) -0.2000(4)
H7 H 0.7284 0.6235 -0.2211
C20 C 0.0525(5) 0.5894(4) 0.2075(4)
H8 H 0.0111 0.6245 0.1488
C21 C 0.0118(5) 0.4776(4) 0.2833(4)
H9 H -0.0577 0.4386 0.2749
C22 C 0.0719(5) 0.4242(3) 0.3694(4)
H10 H 0.0409 0.3503 0.4205
C23 C -0.1530(5) 0.9236(5) 0.4841(4)
H11 H -0.1078 0.9243 0.5349
N2 N 0.2701(6) 0.3794(4) -0.0884(4)
C24 C 0.3945(6) 0.4217(4) 0.4548(4)
H12 H 0.4548 0.4593 0.3823
C25 C 0.7798(5) 0.7603(4) -0.2153(5)
H13 H 0.8776 0.7676 -0.2470
C26 C -0.6040(5) 0.8752(5) 0.3992(4)
H14 H -0.5554 0.9045 0.3237
C27 C 0.4115(8) 0.3878(4) -0.1180(5)
H15 H 0.4519 0.3302 -0.1253
C28 C 0.1642(6) 0.3631(5) 0.5827(4)
H16 H 0.0651 0.3594 0.5991
C29 C -0.6141(6) 0.8269(5) 0.5836(4)
H17 H -0.5730 0.8207 0.6390
C30 C 0.5051(6) 0.4759(4) -0.1391(4)
H18 H 0.6035 0.4748 -0.1569
C31 C 0.2285(7) 0.3101(5) 0.6672(4)
H19 H 0.1701 0.2712 0.7403
C32 C 0.4500(6) 0.3655(4) 0.5452(5)
H20 H 0.5486 0.3657 0.5313
C33 C -0.7487(6) 0.8389(5) 0.4349(5)
H21 H -0.7933 0.8428 0.3820
C34 C 0.2178(7) 0.4634(5) -0.0807(6)
H22 H 0.1188 0.4597 -0.0585
N3 N -0.8286(5) 0.7987(5) 0.5401(5)
C35 C -0.7606(6) 0.7939(6) 0.6115(5)
H23 H -0.8134 0.7667 0.6858
C36 C 0.2992(6) 0.5571(4) -0.1031(6)
H24 H 0.2545 0.6144 -0.0981
H25 H 0.1825 1.2281 -0.0336
H26 H 0.0725 1.1903 -0.0548
H27 H 0.4015 1.1901 -0.2154
H28 H 0.5091 1.1646 -0.1645
Dy1A Dy 0.752925(16) 0.998905(12) -0.003366(12)
Dy1A_2 Dy -0.247075(16) 0.998905(12) -0.003366(12)
O5A O 0.4002(3) 1.0443(2) 0.0789(2)
O6A O 0.1206(3) 1.0255(2) -0.1198(2)
O9 O 0.1188(7) 0.7730(5) -0.1140(5)
H29 H 0.1253 0.7550 -0.0487
H30 H 0.0805 0.7161 -0.1104
loop_
_geom_bond_atom_site_label_1
_geom_bond_atom_site_label_2
_geom_bond_site_symmetry_1
_geom_bond_site_symmetry_2
Dy1 O1 1_555 1_555
O1 C1 1_555 1_555
O2 Dy1 1_555 1_555
O3 Dy1 1_555 1_555
O4 Dy1 1_555 1_555
O5 C1 1_555 1_555
C1 C3 1_555 1_555
O6 C2 1_555 1_555
O7 Dy1 1_555 1_555
O8 Dy1 1_555 1_555
C2 O3 1_555 1_555
C3 C9 1_555 1_555
C4 C5 1_555 1_555
C5 O2 1_555 1_555
C6 C2 1_555 1_555
C7 C6 1_555 1_555
H1 C7 1_555 1_555
C8 C4 1_555 1_555
H2 C8 1_555 1_555
C9 H3 1_555 1_555
C10 C3 1_555 1_555
H4 C10 1_555 1_555
C11 C13 1_555 1_555
C12 C7 1_555 1_555
C13 C10 1_555 1_555
C14 C8 1_555 1_555
N1 C31 1_555 1_555
C15 C12 1_555 1_555
H5 C15 1_555 1_555
C16 C12 1_555 1_555
C17 C6 1_555 1_555
H6 C17 1_555 1_555
C18 C14 1_555 1_555
C19 C13 1_555 1_555
H7 C19 1_555 1_555
C20 C4 1_555 1_555
H8 C20 1_555 1_555
C21 C20 1_555 1_555
H9 C21 1_555 1_555
C22 C14 1_555 1_555
H10 C22 1_555 1_555
C23 C15 1_555 1_555
H11 C23 1_555 1_555
N2 C27 1_555 1_555
C24 C18 1_555 1_555
H12 C24 1_555 1_555
C25 C9 1_555 1_555
H13 C25 1_555 1_555
C26 C16 1_555 1_555
H14 C26 1_555 1_555
C27 H15 1_555 1_555
C28 C18 1_555 1_555
H16 C28 1_555 1_555
C29 C16 1_555 1_555
H17 C29 1_555 1_555
C30 C11 1_555 1_555
H18 C30 1_555 1_555
C31 C28 1_555 1_555
H19 C31 1_555 1_555
C32 N1 1_555 1_555
H20 C32 1_555 1_555
C33 C26 1_555 1_555
H21 C33 1_555 1_555
C34 N2 1_555 1_555
H22 C34 1_555 1_555
N3 C33 1_555 1_555
C35 C29 1_555 1_555
H23 C35 1_555 1_555
C36 C11 1_555 1_555
H24 C36 1_555 1_555
O9 H29 1_555 1_555
H25 O8 1_555 1_555
H26 O8 1_555 1_555
H27 O4 1_555 1_555
H28 O4 1_555 1_555
H30 O9 1_555 1_555
Dy1A O5 1_555 1_555
Dy1A_2 O6 1_555 1_555
O5A Dy1 1_555 1_555
O6A Dy1 1_555 1_555
O7 C5 1_555 1_555
C17 C23 1_555 1_555
C19 C25 1_555 1_555
C21 C22 1_555 1_555
C24 C32 1_555 1_555
C27 C30 1_555 1_555
C34 C36 1_555 1_555
N3 C35 1_555 1_555

#END
