
#######################################################################
#
#                 Cambridge Crystallographic Data Centre
#                                CCDC 
#
#######################################################################
#
# If this CIF has been generated from an entry in the Cambridge 
# Structural Database, then it will include bibliographic, chemical, 
# crystal, experimental, refinement or atomic coordinate data resulting 
# from the CCDC's data processing and validation procedures.
#
#######################################################################

data_ICEMUA
_symmetry_cell_setting           triclinic
_symmetry_space_group_name_H-M   'P -1'
_symmetry_Int_Tables_number      2
_space_group_name_Hall           '-P 1'
loop_
_symmetry_equiv_pos_site_id
_symmetry_equiv_pos_as_xyz
1 x,y,z
2 -x,-y,-z
_cell_length_a                   9.7129(10)
_cell_length_b                   13.9954(14)
_cell_length_c                   14.1054(19)
_cell_angle_alpha                118.142(3)
_cell_angle_beta                 104.301(4)
_cell_angle_gamma                90.156(1)
_cell_volume                     1622.33
loop_
_atom_site_label
_atom_site_type_symbol
_atom_site_fract_x
_atom_site_fract_y
_atom_site_fract_z
Eu1 Eu 0.751683(15) 0.497474(11) 0.002004(12)
O1 O 0.8843(3) 0.6822(2) 0.0808(2)
O2 O 0.6164(3) 0.5879(2) -0.0925(2)
O3 O 0.5749(3) 0.3479(2) -0.1585(2)
O4 O 0.4057(3) 0.5465(2) -0.0780(2)
O5 O 0.9197(3) 0.5309(2) 0.1742(2)
O6 O 0.8515(3) 0.3257(2) -0.0358(2)
O7 O 1.1179(3) 0.5267(2) 0.1219(2)
O8 O 0.7069(3) 0.6786(2) 0.1496(2)
C1 C 1.0538(4) 0.5350(3) 0.1923(3)
C2 C 0.4874(4) 0.5971(3) -0.1017(3)
C3 C 0.8434(4) 0.8522(3) 0.2203(3)
C4 C 0.8084(4) 0.7318(3) 0.1464(3)
C5 C 1.2903(4) 0.5756(3) 0.3359(3)
H1 H 1.3354 0.5736 0.2841
C6 C 0.4234(4) 0.6754(3) -0.1401(3)
C7 C 1.1413(4) 0.5533(3) 0.3052(3)
C8 C 0.7779(4) 0.9071(3) 0.3052(3)
H2 H 0.7058 0.8687 0.3119
C9 C 0.2780(4) 0.6657(4) -0.1822(4)
H3 H 0.2179 0.6096 -0.1891
C10 C 0.5509(5) 0.9349(3) -0.1340(3)
C11 C 0.8184(4) 1.0183(3) 0.3803(3)
C12 C 1.3733(4) 0.6007(3) 0.4428(3)
C13 C 0.5114(4) 0.7596(3) -0.1279(3)
H4 H 0.6102 0.7641 -0.1009
C14 C 0.4570(4) 0.8390(3) -0.1549(3)
N1 N 0.6263(5) 1.1871(3) 0.6470(3)
C15 C 0.7495(5) 1.0771(3) 0.4719(3)
C16 C 1.5324(4) 0.6317(3) 0.4756(3)
C17 C 0.9884(5) 1.0227(3) 0.2837(4)
H5 H 1.0586 1.0615 0.2757
C18 C 1.3040(5) 0.6006(5) 0.5173(4)
H6 H 1.3573 0.6168 0.5889
C19 C 0.9470(4) 0.9116(3) 0.2091(3)
H7 H 0.9892 0.8767 0.1511
C20 C 0.3089(5) 0.8260(4) -0.1990(4)
H8 H 0.2690 0.8769 -0.2184
C21 C 0.9259(5) 1.0755(3) 0.3691(4)
H9 H 0.9554 1.1496 0.4196
N2 N 0.7269(6) 1.1203(3) -0.0903(4)
C22 C 1.0744(5) 0.5548(4) 0.3815(4)
H10 H 0.9749 0.5411 0.3626
C23 C 0.6035(5) 1.0768(4) 0.4519(4)
H11 H 0.5433 1.0392 0.3791
C24 C 0.2205(5) 0.7405(4) -0.2145(4)
H12 H 0.1223 0.7322 -0.2466
C25 C 0.5847(7) 1.1127(4) -0.1172(4)
H13 H 0.5429 1.1705 -0.1222
C26 C 1.1578(5) 0.5769(5) 0.4869(4)
H14 H 1.1134 0.5757 0.5378
C27 C 1.6052(5) 0.6230(4) 0.3987(4)
H15 H 1.5560 0.5923 0.3232
C28 C 0.4962(6) 1.0244(4) -0.1381(4)
H16 H 0.3975 1.0248 -0.1553
C29 C 0.7662(6) 1.1877(4) 0.6648(4)
H17 H 0.8241 1.2255 0.7383
C30 C 0.7002(5) 0.9423(4) -0.1071(5)
H18 H 0.7451 0.8848 -0.1041
C31 C 0.8320(6) 1.1355(4) 0.5806(4)
H19 H 0.9315 1.1402 0.5978
C32 C 1.6153(5) 0.6738(5) 0.5855(4)
H20 H 1.5737 0.6808 0.6408
C33 C 0.5469(6) 1.1331(4) 0.5413(4)
H21 H 0.4482 1.1330 0.5263
C34 C 1.7623(6) 0.7057(6) 0.6121(5)
H22 H 1.8160 0.7327 0.6862
N3 N 1.8307(5) 0.7002(4) 0.5399(5)
C35 C 1.7499(5) 0.6599(5) 0.4346(5)
H23 H 1.7941 0.6565 0.3819
C36 C 0.7807(7) 1.0357(5) -0.0850(6)
H24 H 0.8800 1.0394 -0.0650
H25 H 0.4871 0.3419 -0.1623
H26 H 0.5866 0.2998 -0.2201
H27 H 0.9326 0.3170 -0.0519
H28 H 0.8159 0.2664 -0.0464
Eu1A Eu 0.248317(15) 0.502526(11) -0.002004(12)
Eu1A_2 Eu 1.248317(15) 0.502526(11) -0.002004(12)
O4A O 0.5943(3) 0.4535(2) 0.0780(2)
O7A O 0.8821(3) 0.4733(2) -0.1219(2)
O9 O 0.1229(6) 0.2723(5) 0.1143(5)
H29 H 0.1675 0.3337 0.1331
H30 H 0.0541 0.2865 0.1457
loop_
_geom_bond_atom_site_label_1
_geom_bond_atom_site_label_2
_geom_bond_site_symmetry_1
_geom_bond_site_symmetry_2
Eu1 O1 1_555 1_555
O1 C4 1_555 1_555
O2 Eu1 1_555 1_555
O3 Eu1 1_555 1_555
O4 C2 1_555 1_555
O5 Eu1 1_555 1_555
O6 Eu1 1_555 1_555
O7 C1 1_555 1_555
O8 Eu1 1_555 1_555
C1 O5 1_555 1_555
C2 O2 1_555 1_555
C3 C4 1_555 1_555
C4 O8 1_555 1_555
C5 H1 1_555 1_555
C6 C2 1_555 1_555
C7 C1 1_555 1_555
C8 C3 1_555 1_555
H2 C8 1_555 1_555
C9 C6 1_555 1_555
H3 C9 1_555 1_555
C10 C14 1_555 1_555
C11 C8 1_555 1_555
C12 C5 1_555 1_555
C13 C6 1_555 1_555
H4 C13 1_555 1_555
C14 C13 1_555 1_555
N1 C29 1_555 1_555
C15 C11 1_555 1_555
C16 C12 1_555 1_555
C17 H5 1_555 1_555
C18 C12 1_555 1_555
H6 C18 1_555 1_555
C19 C3 1_555 1_555
H7 C19 1_555 1_555
C20 C14 1_555 1_555
H8 C20 1_555 1_555
C21 C11 1_555 1_555
H9 C21 1_555 1_555
N2 C25 1_555 1_555
C22 C7 1_555 1_555
H10 C22 1_555 1_555
C23 C15 1_555 1_555
H11 C23 1_555 1_555
C24 C9 1_555 1_555
H12 C24 1_555 1_555
C25 H13 1_555 1_555
C26 C18 1_555 1_555
H14 C26 1_555 1_555
C27 C16 1_555 1_555
H15 C27 1_555 1_555
C28 C10 1_555 1_555
H16 C28 1_555 1_555
C29 H17 1_555 1_555
C30 C10 1_555 1_555
H18 C30 1_555 1_555
C31 C15 1_555 1_555
H19 C31 1_555 1_555
C32 C16 1_555 1_555
H20 C32 1_555 1_555
C33 N1 1_555 1_555
H21 C33 1_555 1_555
C34 C32 1_555 1_555
H22 C34 1_555 1_555
N3 C34 1_555 1_555
C35 C27 1_555 1_555
H23 C35 1_555 1_555
C36 N2 1_555 1_555
H24 C36 1_555 1_555
O9 H29 1_555 1_555
H25 O3 1_555 1_555
H26 O3 1_555 1_555
H27 O6 1_555 1_555
H28 O6 1_555 1_555
H30 O9 1_555 1_555
Eu1A O4 1_555 1_555
Eu1A_2 O7 1_555 1_555
O4A Eu1 1_555 1_555
O7A Eu1 1_555 1_555
C5 C7 1_555 1_555
C17 C19 1_555 1_555
C17 C21 1_555 1_555
C20 C24 1_555 1_555
C22 C26 1_555 1_555
C23 C33 1_555 1_555
C25 C28 1_555 1_555
C29 C31 1_555 1_555
C30 C36 1_555 1_555
N3 C35 1_555 1_555

#END
