
#######################################################################
#
#                 Cambridge Crystallographic Data Centre
#                                CCDC 
#
#######################################################################
#
# If this CIF has been generated from an entry in the Cambridge 
# Structural Database, then it will include bibliographic, chemical, 
# crystal, experimental, refinement or atomic coordinate data resulting 
# from the CCDC's data processing and validation procedures.
#
#######################################################################

data_ICEMEK
_symmetry_cell_setting           monoclinic
_symmetry_space_group_name_H-M   'P 21/n'
_symmetry_Int_Tables_number      14
_space_group_name_Hall           '-P 2yn'
loop_
_symmetry_equiv_pos_site_id
_symmetry_equiv_pos_as_xyz
1 x,y,z
2 1/2-x,1/2+y,1/2-z
3 -x,-y,-z
4 1/2+x,1/2-y,1/2+z
_cell_length_a                   13.1375(7)
_cell_length_b                   13.0730(6)
_cell_length_c                   19.7262(10)
_cell_angle_alpha                90
_cell_angle_beta                 96.577(3)
_cell_angle_gamma                90
_cell_volume                     3365.61
loop_
_atom_site_label
_atom_site_type_symbol
_atom_site_fract_x
_atom_site_fract_y
_atom_site_fract_z
Fe1 Fe -0.08805(6) 0.49449(6) 0.35327(4)
Na1 Na 0.06261(15) -0.01639(15) 0.34475(11)
S1 S 0.05537(11) 0.55453(10) 0.41735(7)
S2 S -0.05692(10) 0.44858(10) 0.24563(7)
N1 N -0.1339(3) 0.3854(4) 0.3841(2)
N2 N -0.1637(3) 0.5983(4) 0.3522(2)
N3 N 0.3566(4) 0.2251(4) 0.5065(2)
N4 N -0.0606(4) 0.8205(4) 0.0664(2)
O1 O -0.1836(3) 0.3209(3) 0.4052(2)
O2 O -0.2224(3) 0.6647(3) 0.3580(2)
O3 O 0.4403(3) 0.2485(3) 0.5382(2)
O4 O 0.3261(3) 0.1364(3) 0.5004(2)
O5 O 0.2791(3) 0.1633(3) 0.36069(19)
H1 H 0.2725 0.1052 0.3426
O6 O 0.1187(3) 0.1359(3) 0.38538(18)
O7 O 0.0380(3) 0.8672(3) 0.2589(2)
O8 O -0.1097(3) 0.9091(3) 0.1979(2)
H2 H -0.0943 0.9690 0.2107
O9 O -0.0045(3) 0.8927(3) 0.0835(2)
O10 O -0.1202(3) 0.8162(3) 0.0135(2)
O11 O 0.2614(3) -0.0170(3) 0.29620(19)
O12 O 0.2026(3) -0.1035(3) 0.4211(2)
O13 O -0.0044(4) -0.1329(4) 0.4217(3)
O14 O -0.1172(3) 0.0172(3) 0.3621(2)
O15 O -0.0627(3) 0.1027(3) 0.24312(18)
O16 O 0.1513(3) 0.1368(4) 0.2163(2)
C1 C 0.1431(4) 0.4567(4) 0.4384(3)
C2 C 0.2315(4) 0.4786(4) 0.4841(3)
H3 H 0.2413 0.5460 0.5016
C3 C 0.3035(4) 0.4048(4) 0.5038(3)
H4 H 0.3620 0.4209 0.5349
C4 C 0.2897(4) 0.3069(4) 0.4778(3)
C5 C 0.2076(4) 0.2836(4) 0.4292(3)
C6 C 0.1356(4) 0.3575(4) 0.4116(3)
H5 H 0.0781 0.3408 0.3798
C7 C 0.1963(4) 0.1848(4) 0.3916(3)
C8 C -0.0491(4) 0.5600(4) 0.1960(3)
C9 C -0.0599(4) 0.5503(4) 0.1245(3)
H6 H -0.0640 0.4839 0.1048
C10 C -0.0646(4) 0.6340(4) 0.0825(3)
H7 H -0.0730 0.6259 0.0343
C11 C -0.0568(4) 0.7315(4) 0.1117(3)
C12 C -0.0411(4) 0.7443(4) 0.1821(3)
C13 C -0.0359(4) 0.6585(4) 0.2236(3)
H8 H -0.0232 0.6666 0.2717
C14 C -0.0323(4) 0.8475(4) 0.2167(3)
C15 C 0.3006(5) -0.1109(5) 0.3250(3)
H9 H 0.3707 -0.1224 0.3130
H10 H 0.2568 -0.1684 0.3065
C16 C 0.3022(5) -0.1069(6) 0.4001(3)
H11 H 0.3386 -0.1678 0.4204
H12 H 0.3409 -0.0455 0.4176
C17 C 0.1663(5) -0.1937(6) 0.4408(4)
H13 H 0.2179 -0.2267 0.4743
H14 H 0.1532 -0.2396 0.4008
C18 C 0.0681(4) -0.1775(5) 0.4725(3)
H15 H 0.0421 -0.2436 0.4879
H16 H 0.0804 -0.1314 0.5124
C19 C -0.0986(5) -0.1207(5) 0.4401(4)
H17 H -0.0933 -0.0846 0.4845
H18 H -0.1286 -0.1890 0.4467
C20 C -0.1681(5) -0.0633(5) 0.3905(4)
H19 H -0.1971 -0.1100 0.3538
H20 H -0.2255 -0.0356 0.4134
C21 C -0.1838(4) 0.0848(4) 0.3231(3)
H21 H -0.2263 0.1223 0.3532
H22 H -0.2299 0.0461 0.2891
C22 C -0.1207(4) 0.1586(4) 0.2876(3)
H23 H -0.1658 0.2084 0.2611
H24 H -0.0739 0.1967 0.3216
C23 C -0.0224(5) 0.1669(5) 0.1934(3)
H25 H -0.0016 0.2335 0.2145
H26 H -0.0765 0.1798 0.1551
C24 C 0.0664(4) 0.1190(5) 0.1669(3)
H27 H 0.0549 0.0447 0.1602
H28 H 0.0782 0.1499 0.1227
C25 C 0.2437(5) 0.0935(6) 0.1981(3)
H29 H 0.3022 0.1358 0.2180
H30 H 0.2424 0.0956 0.1479
C26 C 0.2606(5) -0.0161(5) 0.2223(3)
H31 H 0.2050 -0.0605 0.2007
H32 H 0.3267 -0.0420 0.2096
Na1_2 Na 0.06261(15) 0.98361(15) 0.34475(11)
O7_2 O 0.0380(3) -0.1328(3) 0.2589(2)
loop_
_geom_bond_atom_site_label_1
_geom_bond_atom_site_label_2
_geom_bond_site_symmetry_1
_geom_bond_site_symmetry_2
Fe1 S1 1_555 1_555
Na1 O6 1_555 1_555
S1 C1 1_555 1_555
S2 Fe1 1_555 1_555
N1 Fe1 1_555 1_555
N2 Fe1 1_555 1_555
N3 O3 1_555 1_555
N4 O9 1_555 1_555
O1 N1 1_555 1_555
O2 N2 1_555 1_555
O4 N3 1_555 1_555
O5 H1 1_555 1_555
O6 C7 1_555 1_555
O7 C14 1_555 1_555
O8 H2 1_555 1_555
O10 N4 1_555 1_555
O11 Na1 1_555 1_555
O12 Na1 1_555 1_555
O13 Na1 1_555 1_555
O14 Na1 1_555 1_555
O15 Na1 1_555 1_555
O16 C24 1_555 1_555
C1 C2 1_555 1_555
C2 H3 1_555 1_555
C3 C2 1_555 1_555
H4 C3 1_555 1_555
C4 N3 1_555 1_555
C5 C4 1_555 1_555
C6 C1 1_555 1_555
H5 C6 1_555 1_555
C7 O5 1_555 1_555
C8 S2 1_555 1_555
C9 C8 1_555 1_555
H6 C9 1_555 1_555
C10 C9 1_555 1_555
H7 C10 1_555 1_555
C11 N4 1_555 1_555
C12 C11 1_555 1_555
C13 C8 1_555 1_555
H8 C13 1_555 1_555
C14 O8 1_555 1_555
C15 O11 1_555 1_555
H9 C15 1_555 1_555
H10 C15 1_555 1_555
C16 O12 1_555 1_555
H11 C16 1_555 1_555
H12 C16 1_555 1_555
C17 O12 1_555 1_555
H13 C17 1_555 1_555
H14 C17 1_555 1_555
C18 O13 1_555 1_555
H15 C18 1_555 1_555
H16 C18 1_555 1_555
C19 O13 1_555 1_555
H17 C19 1_555 1_555
H18 C19 1_555 1_555
C20 O14 1_555 1_555
H19 C20 1_555 1_555
H20 C20 1_555 1_555
C21 O14 1_555 1_555
H21 C21 1_555 1_555
H22 C21 1_555 1_555
C22 O15 1_555 1_555
H23 C22 1_555 1_555
H24 C22 1_555 1_555
C23 O15 1_555 1_555
H25 C23 1_555 1_555
H26 C23 1_555 1_555
C24 C23 1_555 1_555
H27 C24 1_555 1_555
H28 C24 1_555 1_555
C25 O16 1_555 1_555
H29 C25 1_555 1_555
H30 C25 1_555 1_555
C26 O11 1_555 1_555
H31 C26 1_555 1_555
H32 C26 1_555 1_555
Na1_2 O7 1_555 1_555
O7_2 Na1 1_555 1_555
C3 C4 1_555 1_555
C5 C6 1_555 1_555
C5 C7 1_555 1_555
C10 C11 1_555 1_555
C12 C13 1_555 1_555
C12 C14 1_555 1_555
C15 C16 1_555 1_555
C17 C18 1_555 1_555
C19 C20 1_555 1_555
C21 C22 1_555 1_555
C25 C26 1_555 1_555

#END
