
#######################################################################
#
#                 Cambridge Crystallographic Data Centre
#                                CCDC 
#
#######################################################################
#
# If this CIF has been generated from an entry in the Cambridge 
# Structural Database, then it will include bibliographic, chemical, 
# crystal, experimental, refinement or atomic coordinate data resulting 
# from the CCDC's data processing and validation procedures.
#
#######################################################################

data_ICENAH01
_symmetry_cell_setting           triclinic
_symmetry_space_group_name_H-M   'P -1'
_symmetry_Int_Tables_number      2
_space_group_name_Hall           '-P 1'
loop_
_symmetry_equiv_pos_site_id
_symmetry_equiv_pos_as_xyz
1 x,y,z
2 -x,-y,-z
_cell_length_a                   9.7198(8)
_cell_length_b                   14.0196(12)
_cell_length_c                   14.1030(11)
_cell_angle_alpha                118.0850(10)
_cell_angle_beta                 104.4210(10)
_cell_angle_gamma                90.1180(10)
_cell_volume                     1625.99
loop_
_atom_site_label
_atom_site_type_symbol
_atom_site_fract_x
_atom_site_fract_y
_atom_site_fract_z
Sm1 Sm 0.751818(16) -0.003128(11) 0.501943(12)
N1 N 0.2719(4) -0.6200(3) 0.5899(3)
N2 N 0.6254(4) 0.6872(2) 1.1464(3)
N3 N 0.1678(4) -0.2021(3) -0.0397(3)
C1 C 0.2182(5) -0.5350(3) 0.5856(4)
H1 H 0.1190 -0.5378 0.5666
C2 C 0.3006(4) -0.4414(3) 0.6077(4)
H2 H 0.2564 -0.3837 0.6049
C3 C 0.4479(4) -0.4349(3) 0.6337(3)
C4 C 0.5038(5) -0.5245(3) 0.6373(3)
H3 H 0.6024 -0.5252 0.6538
C5 C 0.4135(6) -0.6128(3) 0.6163(3)
H4 H 0.4548 -0.6707 0.6211
C6 C 0.5425(4) -0.3389(2) 0.6553(3)
C7 C 0.4862(3) -0.2608(2) 0.6274(2)
H5 H 0.3875 -0.2662 0.5995
C8 C 0.5756(3) -0.1754(2) 0.6408(2)
C9 C 0.7223(3) -0.1658(3) 0.6834(3)
H6 H 0.7825 -0.1094 0.6911
C10 C 0.7792(4) -0.2406(3) 0.7146(3)
H7 H 0.8776 -0.2331 0.7457
C11 C 0.6901(4) -0.3265(3) 0.6996(3)
H8 H 0.7297 -0.3770 0.7196
C12 C 0.5127(3) -0.0979(2) 0.6023(2)
C13 C 0.7651(5) 0.6872(3) 1.1640(3)
H9 H 0.8228 0.7252 1.2376
C14 C 0.8322(4) 0.6346(3) 1.0808(3)
H10 H 0.9315 0.6384 1.0984
C15 C 0.7487(4) 0.5766(2) 0.9714(3)
C16 C 0.6019(4) 0.5767(3) 0.9513(3)
H11 H 0.5417 0.5391 0.8784
C17 C 0.5459(5) 0.6327(3) 1.0395(3)
H12 H 0.4472 0.6328 1.0241
C18 C 0.8170(4) 0.5176(3) 0.8792(3)
C19 C 0.7769(3) 0.4066(2) 0.8046(2)
H13 H 0.7050 0.3682 0.8112
C20 C 0.8429(3) 0.3523(2) 0.7201(2)
C21 C 0.9469(4) 0.4110(3) 0.7083(3)
H14 H 0.9887 0.3762 0.6502
C22 C 0.9884(4) 0.5216(3) 0.7833(3)
H15 H 1.0590 0.5604 0.7759
C23 C 0.9252(4) 0.5744(3) 0.8690(3)
H16 H 0.9551 0.6482 0.9199
C24 C 0.8079(3) 0.2314(2) 0.6461(2)
C25 C 0.2490(4) -0.1604(4) 0.0651(4)
H17 H 0.2053 -0.1554 0.1186
C26 C 0.3944(4) -0.1239(3) 0.1006(3)
H18 H 0.4443 -0.0934 0.1761
C27 C 0.4657(3) -0.1326(3) 0.0239(3)
C28 C 0.3818(4) -0.1756(4) -0.0861(3)
H19 H 0.4228 -0.1830 -0.1418
C29 C 0.2361(5) -0.2074(4) -0.1121(4)
H20 H 0.1821 -0.2346 -0.1862
C30 C 0.6243(3) -0.1014(3) 0.0568(3)
C31 C 0.7087(3) -0.0763(2) 0.1635(3)
H21 H 0.6645 -0.0748 0.2155
C32 C 0.8574(3) -0.0534(2) 0.1940(2)
C33 C 0.9231(4) -0.0525(3) 0.1181(3)
H22 H 1.0224 -0.0365 0.1378
C34 C 0.8401(4) -0.0755(4) 0.0122(3)
H23 H 0.8841 -0.0745 -0.0389
C35 C 0.6934(4) -0.0999(3) -0.0176(3)
H24 H 0.6394 -0.1156 -0.0890
C36 C 0.9466(3) -0.0355(2) 0.3063(2)
O1 O 0.5925(2) -0.04728(17) 0.57806(18)
O2 O 0.3826(2) -0.08781(17) 0.59440(18)
O3 O 0.7063(2) 0.17872(16) 0.64953(18)
O4 O 0.8848(2) 0.18279(16) 0.58170(18)
O5 O 0.8838(2) -0.02747(17) 0.37731(17)
O6 O 1.0796(2) -0.03127(18) 0.32345(17)
O7 O 0.8526(2) -0.17459(17) 0.4656(2)
H25 H 0.820(3) -0.2367(14) 0.452(3)
H26 H 0.930(2) -0.180(3) 0.449(3)
O8 O 0.5750(2) -0.15372(18) 0.34057(18)
H27 H 0.577(3) -0.207(2) 0.2783(16)
H28 H 0.4881(15) -0.155(3) 0.341(3)
Sm1A Sm 0.248182(16) 0.003128(11) 0.498057(12)
Sm1A_2 Sm 1.248182(16) 0.003128(11) 0.498057(12)
O2A O 0.6174(2) 0.08781(17) 0.40560(18)
O6A O 0.9204(2) 0.03127(18) 0.67655(17)
O9 O 0.8750(5) 0.2249(4) 0.3815(4)
H29 H 0.8373 0.1959 0.4127
H30 H 0.9655 0.2233 0.4028
loop_
_geom_bond_atom_site_label_1
_geom_bond_atom_site_label_2
_geom_bond_site_symmetry_1
_geom_bond_site_symmetry_2
Sm1 O1 1_555 1_555
N1 C1 1_555 1_555
N2 C13 1_555 1_555
N3 C25 1_555 1_555
C1 H1 1_555 1_555
C2 C1 1_555 1_555
H2 C2 1_555 1_555
C3 C2 1_555 1_555
C4 C3 1_555 1_555
H3 C4 1_555 1_555
C5 N1 1_555 1_555
H4 C5 1_555 1_555
C6 C3 1_555 1_555
C7 C6 1_555 1_555
H5 C7 1_555 1_555
C8 C7 1_555 1_555
C9 C8 1_555 1_555
H6 C9 1_555 1_555
C10 C9 1_555 1_555
H7 C10 1_555 1_555
C11 C6 1_555 1_555
H8 C11 1_555 1_555
C12 C8 1_555 1_555
C13 H9 1_555 1_555
C14 C13 1_555 1_555
H10 C14 1_555 1_555
C15 C14 1_555 1_555
C16 C15 1_555 1_555
H11 C16 1_555 1_555
C17 N2 1_555 1_555
H12 C17 1_555 1_555
C18 C15 1_555 1_555
C19 C18 1_555 1_555
H13 C19 1_555 1_555
C20 C19 1_555 1_555
C21 C20 1_555 1_555
H14 C21 1_555 1_555
C22 C21 1_555 1_555
H15 C22 1_555 1_555
C23 C18 1_555 1_555
H16 C23 1_555 1_555
C24 C20 1_555 1_555
C25 H17 1_555 1_555
C26 C25 1_555 1_555
H18 C26 1_555 1_555
C27 C26 1_555 1_555
C28 C27 1_555 1_555
H19 C28 1_555 1_555
C29 N3 1_555 1_555
H20 C29 1_555 1_555
C30 C27 1_555 1_555
C31 C30 1_555 1_555
H21 C31 1_555 1_555
C32 C31 1_555 1_555
C33 C32 1_555 1_555
H22 C33 1_555 1_555
C34 C33 1_555 1_555
H23 C34 1_555 1_555
C35 C30 1_555 1_555
H24 C35 1_555 1_555
C36 C32 1_555 1_555
O1 C12 1_555 1_555
O2 C12 1_555 1_555
O3 Sm1 1_555 1_555
O4 Sm1 1_555 1_555
O5 Sm1 1_555 1_555
O6 C36 1_555 1_555
O7 Sm1 1_555 1_555
H25 O7 1_555 1_555
H26 O7 1_555 1_555
O8 Sm1 1_555 1_555
H27 O8 1_555 1_555
H28 O8 1_555 1_555
O9 H29 1_555 1_555
H30 O9 1_555 1_555
Sm1A O2 1_555 1_555
Sm1A_2 O6 1_555 1_555
O2A Sm1 1_555 1_555
O6A Sm1 1_555 1_555
C4 C5 1_555 1_555
C10 C11 1_555 1_555
C16 C17 1_555 1_555
C22 C23 1_555 1_555
C24 O3 1_555 1_555
C24 O4 1_555 1_555
C28 C29 1_555 1_555
C34 C35 1_555 1_555
C36 O5 1_555 1_555

#END
