
#######################################################################
#
#                 Cambridge Crystallographic Data Centre
#                                CCDC 
#
#######################################################################
#
# If this CIF has been generated from an entry in the Cambridge 
# Structural Database, then it will include bibliographic, chemical, 
# crystal, experimental, refinement or atomic coordinate data resulting 
# from the CCDC's data processing and validation procedures.
#
#######################################################################

data_ICENEL
_symmetry_cell_setting           triclinic
_symmetry_space_group_name_H-M   'P -1'
_symmetry_Int_Tables_number      2
_space_group_name_Hall           '-P 1'
loop_
_symmetry_equiv_pos_site_id
_symmetry_equiv_pos_as_xyz
1 x,y,z
2 -x,-y,-z
_cell_length_a                   9.709(4)
_cell_length_b                   13.930(6)
_cell_length_c                   14.055(5)
_cell_angle_alpha                61.967(8)
_cell_angle_beta                 75.734(15)
_cell_angle_gamma                89.960(17)
_cell_volume                     1611.34
loop_
_atom_site_label
_atom_site_type_symbol
_atom_site_fract_x
_atom_site_fract_y
_atom_site_fract_z
Tb1 Tb 0.75260(3) -0.00164(2) 0.49698(2)
O1 O 0.8837(4) 0.1805(3) 0.4213(3)
O2 O 0.6153(4) 0.0881(3) 0.5887(3)
O3 O 0.9216(4) 0.0313(3) 0.3278(3)
O4 O 0.4018(4) 0.0449(3) 0.5795(3)
O5 O 1.1203(4) 0.0258(3) 0.3788(3)
O6 O 0.5784(4) -0.1497(3) 0.6553(3)
C1 C 0.4850(6) 0.0966(4) 0.5999(4)
C2 C 1.0556(6) 0.0342(4) 0.3095(5)
C3 C 0.4231(6) 0.1747(4) 0.6402(5)
O7 O 0.7088(4) 0.1783(3) 0.3491(3)
O8 O 0.8509(4) -0.1738(3) 0.5357(3)
C4 C 1.1422(6) 0.0524(4) 0.1963(5)
C5 C 0.8433(6) 0.3522(4) 0.2790(5)
C6 C 1.2892(6) 0.0736(4) 0.1661(5)
H1 H 1.3338 0.0698 0.2190
C7 C 0.8062(6) 0.2310(4) 0.3550(5)
C8 C 0.5518(7) 0.4353(5) 0.6333(5)
C9 C 0.7779(6) 0.4063(4) 0.1944(5)
H2 H 0.7066 0.3674 0.1875
C10 C 1.3735(6) 0.1003(5) 0.0595(5)
C11 C 0.2760(6) 0.1649(5) 0.6836(5)
H3 H 0.2153 0.1087 0.6911
C12 C 1.5306(6) 0.1307(5) 0.0252(5)
C13 C 0.5139(6) 0.2596(4) 0.6265(5)
H4 H 0.6125 0.2640 0.5988
N1 N 0.6298(7) 0.6887(4) -0.1510(5)
C14 C 1.3037(7) 0.1011(6) -0.0164(5)
H5 H 1.3566 0.1171 -0.0882
C15 C 0.8168(6) 0.5174(5) 0.1197(5)
C16 C 0.4588(7) 0.3388(5) 0.6540(5)
C17 C 0.3103(6) 0.3268(5) 0.6998(6)
H6 H 0.2710 0.3778 0.7200
C18 C 0.7507(7) 0.5777(5) 0.0264(5)
C19 C 1.1545(7) 0.0778(6) 0.0153(6)
H7 H 1.1092 0.0792 -0.0363
C20 C 0.9274(6) 0.5761(5) 0.1309(5)
H8 H 0.9567 0.6504 0.0807
C21 C 1.0735(6) 0.0529(5) 0.1204(5)
H9 H 0.9743 0.0367 0.1406
C22 C 0.9484(6) 0.4106(4) 0.2914(5)
H10 H 0.9903 0.3751 0.3497
N2 N 0.7286(7) 0.6215(5) 0.5896(5)
C23 C 0.9900(7) 0.5216(5) 0.2166(5)
H11 H 1.0612 0.5598 0.2244
N3 N 1.8295(6) 0.2018(6) -0.0389(6)
C24 C 0.2215(7) 0.2400(5) 0.7153(6)
H12 H 0.1235 0.2322 0.7477
C25 C 0.7006(8) 0.4411(5) 0.6047(7)
H13 H 0.7457 0.3841 0.5996
C26 C 0.5883(9) 0.6121(6) 0.6183(6)
H14 H 0.5464 0.6693 0.6255
C27 C 1.6130(7) 0.1736(6) -0.0848(6)
H15 H 1.5710 0.1810 -0.1402
C28 C 0.6048(7) 0.5766(5) 0.0474(6)
H16 H 0.5442 0.5381 0.1200
C29 C 0.5507(8) 0.6354(5) -0.0443(7)
H17 H 0.4523 0.6376 -0.0299
C30 C 0.7708(8) 0.6873(6) -0.1667(6)
H18 H 0.8296 0.7240 -0.2400
C31 C 1.7612(8) 0.2059(7) -0.1124(7)
H19 H 1.8150 0.2317 -0.1864
C32 C 1.6032(6) 0.1235(5) 0.1008(6)
H20 H 1.5541 0.0941 0.1764
C33 C 0.4975(8) 0.5243(5) 0.6386(6)
H21 H 0.3989 0.5253 0.6561
C34 C 0.8345(8) 0.6358(6) -0.0827(5)
H22 H 0.9338 0.6399 -0.0991
C35 C 0.7798(9) 0.5363(6) 0.5841(7)
H23 H 0.8791 0.5395 0.5645
C36 C 1.7485(7) 0.1597(6) 0.0648(7)
H24 H 1.7926 0.1537 0.1187
H25 H 0.4746 -0.1604 0.6583
H26 H 0.5791 -0.2014 0.7114
H27 H 0.9166 -0.1872 0.5571
H28 H 0.8171 -0.2259 0.5245
Tb1A Tb 0.24740(3) 0.00164(2) 0.50302(2)
Tb1A_2 Tb 1.24740(3) 0.00164(2) 0.50302(2)
O4A O 0.5982(4) -0.0449(3) 0.4205(3)
O5A O 0.8797(4) -0.0258(3) 0.6212(3)
O9 O 0.1185(7) 0.7713(5) 0.3868(6)
H29 H 0.1553 0.7981 0.4198
H30 H 0.1274 0.8219 0.3204
loop_
_geom_bond_atom_site_label_1
_geom_bond_atom_site_label_2
_geom_bond_site_symmetry_1
_geom_bond_site_symmetry_2
Tb1 O1 1_555 1_555
O1 C7 1_555 1_555
O2 Tb1 1_555 1_555
O3 Tb1 1_555 1_555
O4 C1 1_555 1_555
O5 C2 1_555 1_555
O6 Tb1 1_555 1_555
C1 O2 1_555 1_555
C2 O3 1_555 1_555
C3 C1 1_555 1_555
O7 Tb1 1_555 1_555
O8 Tb1 1_555 1_555
C4 C2 1_555 1_555
C5 C7 1_555 1_555
C6 C4 1_555 1_555
H1 C6 1_555 1_555
C7 O7 1_555 1_555
C8 C16 1_555 1_555
C9 C5 1_555 1_555
H2 C9 1_555 1_555
C10 C6 1_555 1_555
C11 C3 1_555 1_555
H3 C11 1_555 1_555
C12 C10 1_555 1_555
C13 C3 1_555 1_555
H4 C13 1_555 1_555
N1 C29 1_555 1_555
C14 C10 1_555 1_555
H5 C14 1_555 1_555
C15 C9 1_555 1_555
C16 C13 1_555 1_555
C17 C16 1_555 1_555
H6 C17 1_555 1_555
C18 C15 1_555 1_555
C19 C14 1_555 1_555
H7 C19 1_555 1_555
C20 C15 1_555 1_555
H8 C20 1_555 1_555
C21 C4 1_555 1_555
H9 C21 1_555 1_555
C22 C5 1_555 1_555
H10 C22 1_555 1_555
N2 C26 1_555 1_555
C23 C20 1_555 1_555
H11 C23 1_555 1_555
N3 C31 1_555 1_555
C24 C11 1_555 1_555
H12 C24 1_555 1_555
C25 C8 1_555 1_555
H13 C25 1_555 1_555
C26 H14 1_555 1_555
C27 C12 1_555 1_555
H15 C27 1_555 1_555
C28 C18 1_555 1_555
H16 C28 1_555 1_555
C29 C28 1_555 1_555
H17 C29 1_555 1_555
C30 N1 1_555 1_555
H18 C30 1_555 1_555
C31 C27 1_555 1_555
H19 C31 1_555 1_555
C32 C12 1_555 1_555
H20 C32 1_555 1_555
C33 C8 1_555 1_555
H21 C33 1_555 1_555
C34 C18 1_555 1_555
H22 C34 1_555 1_555
C35 N2 1_555 1_555
H23 C35 1_555 1_555
C36 N3 1_555 1_555
H24 C36 1_555 1_555
O9 H29 1_555 1_555
H25 O6 1_555 1_555
H26 O6 1_555 1_555
H27 O8 1_555 1_555
H28 O8 1_555 1_555
H30 O9 1_555 1_555
Tb1A O4 1_555 1_555
Tb1A_2 O5 1_555 1_555
O4A Tb1 1_555 1_555
O5A Tb1 1_555 1_555
C17 C24 1_555 1_555
C19 C21 1_555 1_555
C22 C23 1_555 1_555
C25 C35 1_555 1_555
C26 C33 1_555 1_555
C30 C34 1_555 1_555
C32 C36 1_555 1_555

#END
