
#######################################################################
#
#                 Cambridge Crystallographic Data Centre
#                                CCDC 
#
#######################################################################
#
# If this CIF has been generated from an entry in the Cambridge 
# Structural Database, then it will include bibliographic, chemical, 
# crystal, experimental, refinement or atomic coordinate data resulting 
# from the CCDC's data processing and validation procedures.
#
#######################################################################

data_ICENEL01
_symmetry_cell_setting           triclinic
_symmetry_space_group_name_H-M   'P -1'
_symmetry_Int_Tables_number      2
_space_group_name_Hall           '-P 1'
loop_
_symmetry_equiv_pos_site_id
_symmetry_equiv_pos_as_xyz
1 x,y,z
2 -x,-y,-z
_cell_length_a                   9.7093(10)
_cell_length_b                   13.9463(14)
_cell_length_c                   14.0767(14)
_cell_angle_alpha                118.086(2)
_cell_angle_beta                 104.170(2)
_cell_angle_gamma                90.036(2)
_cell_volume                     1615.45
loop_
_atom_site_label
_atom_site_type_symbol
_atom_site_fract_x
_atom_site_fract_y
_atom_site_fract_z
Tb1 Tb 0.747618(18) 1.001657(14) 0.497225(14)
O1 O 0.7929(3) 0.8222(2) 0.3497(2)
O2 O 0.6165(3) 0.8185(2) 0.4213(2)
O3 O 0.8841(3) 0.9122(2) 0.5894(2)
O4 O 1.0974(3) 0.9546(2) 0.5787(2)
O5 O 0.5790(3) 0.9691(2) 0.3274(2)
O6 O 0.3805(3) 0.9742(2) 0.3792(2)
O7 O 0.6491(3) 1.1719(2) 0.5345(3)
H1 H 0.570(2) 1.180(3) 0.549(3)
H2 H 0.683(4) 1.2332(17) 0.545(3)
O8 O 0.9216(3) 1.1498(2) 0.6556(2)
H3 H 1.0092(15) 1.150(3) 0.658(3)
H4 H 0.919(4) 1.201(2) 0.7190(17)
N1 N 0.8725(5) 0.3118(3) -0.1489(3)
N2 N 0.7725(5) 0.3785(3) 0.5892(4)
N3 N -0.3300(5) 0.7985(4) -0.0405(4)
C1 C 0.6915(4) 0.7692(3) 0.3546(3)
C2 C 0.6568(4) 0.6478(3) 0.2803(3)
C3 C 0.5530(4) 0.5894(3) 0.2922(4)
H5 H 0.5109 0.6246 0.3504
C4 C 0.5119(5) 0.4781(3) 0.2174(4)
H6 H 0.4421 0.4393 0.2258
C5 C 0.5732(5) 0.4250(3) 0.1312(4)
H7 H 0.5430 0.3510 0.0805
C6 C 0.6808(4) 0.4816(3) 0.1193(3)
C7 C 0.7210(4) 0.5931(3) 0.1944(3)
H8 H 0.7922 0.6317 0.1871
C8 C 0.7492(5) 0.4226(3) 0.0273(3)
C9 C 0.6655(6) 0.3645(4) -0.0819(4)
H9 H 0.5662 0.3604 -0.0992
C10 C 0.7337(6) 0.3120(4) -0.1654(4)
H10 H 0.6762 0.2739 -0.2390
C11 C 0.9518(6) 0.3662(4) -0.0438(4)
H11 H 1.0507 0.3671 -0.0293
C12 C 0.8949(5) 0.4223(4) 0.0464(4)
H12 H 0.9551 0.4593 0.1191
C13 C 1.0152(4) 0.9035(3) 0.6012(3)
C14 C 1.0770(4) 0.8252(3) 0.6399(3)
C15 C 1.2235(4) 0.8356(3) 0.6839(3)
H13 H 1.2835 0.8926 0.6921
C16 C 1.2802(5) 0.7609(4) 0.7156(4)
H14 H 1.3783 0.7684 0.7472
C17 C 1.1893(5) 0.6740(4) 0.7000(4)
H15 H 1.2282 0.6234 0.7207
C18 C 1.0431(4) 0.6614(3) 0.6546(3)
C19 C 0.9876(4) 0.7398(3) 0.6270(3)
H16 H 0.8890 0.7348 0.5995
C20 C 0.9489(5) 0.5649(3) 0.6336(3)
C21 C 0.8013(6) 0.5565(4) 0.6047(5)
H17 H 0.7565 0.6137 0.6002
C22 C 0.7202(6) 0.4632(4) 0.5824(5)
H18 H 0.6210 0.4597 0.5609
C23 C 0.9150(7) 0.3872(4) 0.6182(4)
H19 H 0.9569 0.3300 0.6250
C24 C 1.0043(6) 0.4759(4) 0.6388(4)
H20 H 1.1030 0.4756 0.6564
C25 C 0.4454(4) 0.9651(3) 0.3090(3)
C26 C 0.3583(4) 0.9469(3) 0.1963(3)
C27 C 0.4263(5) 0.9470(4) 0.1201(4)
H21 H 0.5256 0.9622 0.1400
C28 C 0.3453(5) 0.9243(5) 0.0150(4)
H22 H 0.3903 0.9259 -0.0356
C29 C 0.1974(5) 0.8992(4) -0.0162(4)
H23 H 0.1447 0.8816 -0.0884
C30 C 0.1266(4) 0.9000(3) 0.0590(3)
C31 C 0.2100(4) 0.9251(3) 0.1652(3)
H24 H 0.1649 0.9273 0.2173
C32 C -0.0308(4) 0.8685(3) 0.0253(4)
C33 C -0.1044(5) 0.8755(4) 0.1014(4)
H25 H -0.0555 0.9044 0.1768
C34 C -0.2486(5) 0.8397(4) 0.0652(5)
H26 H -0.2933 0.8444 0.1184
C35 C -0.2606(6) 0.7944(5) -0.1125(5)
H27 H -0.3134 0.7685 -0.1866
C36 C -0.1148(5) 0.8260(5) -0.0846(4)
H28 H -0.0728 0.8188 -0.1399
Tb1A Tb 1.252382(18) 0.998343(14) 0.502775(14)
Tb1A_2 Tb 0.252382(18) 0.998343(14) 0.502775(14)
O4A O 0.9026(3) 1.0454(2) 0.4213(2)
O6A O 0.6195(3) 1.0258(2) 0.6208(2)
O9 O 0.6201(6) 0.7721(4) 0.6139(4)
loop_
_geom_bond_atom_site_label_1
_geom_bond_atom_site_label_2
_geom_bond_site_symmetry_1
_geom_bond_site_symmetry_2
Tb1 O1 1_555 1_555
O1 C1 1_555 1_555
O2 Tb1 1_555 1_555
O3 Tb1 1_555 1_555
O4 C13 1_555 1_555
O5 Tb1 1_555 1_555
O6 C25 1_555 1_555
O7 Tb1 1_555 1_555
H1 O7 1_555 1_555
H2 O7 1_555 1_555
O8 Tb1 1_555 1_555
H3 O8 1_555 1_555
H4 O8 1_555 1_555
N1 C10 1_555 1_555
N2 C22 1_555 1_555
N3 C34 1_555 1_555
C1 O2 1_555 1_555
C2 C1 1_555 1_555
C3 C2 1_555 1_555
H5 C3 1_555 1_555
C4 C3 1_555 1_555
H6 C4 1_555 1_555
C5 C4 1_555 1_555
H7 C5 1_555 1_555
C6 C5 1_555 1_555
C7 C2 1_555 1_555
H8 C7 1_555 1_555
C8 C6 1_555 1_555
C9 C8 1_555 1_555
H9 C9 1_555 1_555
C10 C9 1_555 1_555
H10 C10 1_555 1_555
C11 N1 1_555 1_555
H11 C11 1_555 1_555
C12 C8 1_555 1_555
H12 C12 1_555 1_555
C13 O3 1_555 1_555
C14 C13 1_555 1_555
C15 C14 1_555 1_555
H13 C15 1_555 1_555
C16 C15 1_555 1_555
H14 C16 1_555 1_555
C17 C16 1_555 1_555
H15 C17 1_555 1_555
C18 C17 1_555 1_555
C19 C14 1_555 1_555
H16 C19 1_555 1_555
C20 C18 1_555 1_555
C21 C20 1_555 1_555
H17 C21 1_555 1_555
C22 C21 1_555 1_555
H18 C22 1_555 1_555
C23 N2 1_555 1_555
H19 C23 1_555 1_555
C24 C20 1_555 1_555
H20 C24 1_555 1_555
C25 O5 1_555 1_555
C26 C25 1_555 1_555
C27 C26 1_555 1_555
H21 C27 1_555 1_555
C28 C27 1_555 1_555
H22 C28 1_555 1_555
C29 C28 1_555 1_555
H23 C29 1_555 1_555
C30 C29 1_555 1_555
C31 C26 1_555 1_555
H24 C31 1_555 1_555
C32 C30 1_555 1_555
C33 C32 1_555 1_555
H25 C33 1_555 1_555
C34 C33 1_555 1_555
H26 C34 1_555 1_555
C35 N3 1_555 1_555
H27 C35 1_555 1_555
C36 C32 1_555 1_555
H28 C36 1_555 1_555
Tb1A O4 1_555 1_555
Tb1A_2 O6 1_555 1_555
O4A Tb1 1_555 1_555
O6A Tb1 1_555 1_555
C6 C7 1_555 1_555
C11 C12 1_555 1_555
C18 C19 1_555 1_555
C23 C24 1_555 1_555
C30 C31 1_555 1_555
C35 C36 1_555 1_555

#END
