
#######################################################################
#
#                 Cambridge Crystallographic Data Centre
#                                CCDC 
#
#######################################################################
#
# If this CIF has been generated from an entry in the Cambridge 
# Structural Database, then it will include bibliographic, chemical, 
# crystal, experimental, refinement or atomic coordinate data resulting 
# from the CCDC's data processing and validation procedures.
#
#######################################################################

data_ICENOV
_symmetry_cell_setting           monoclinic
_symmetry_space_group_name_H-M   'P 21/c'
_symmetry_Int_Tables_number      14
_space_group_name_Hall           '-P 2ybc'
loop_
_symmetry_equiv_pos_site_id
_symmetry_equiv_pos_as_xyz
1 x,y,z
2 -x,1/2+y,1/2-z
3 -x,-y,-z
4 x,1/2-y,1/2+z
_cell_length_a                   11.544(3)
_cell_length_b                   16.129(4)
_cell_length_c                   21.181(6)
_cell_angle_alpha                90
_cell_angle_beta                 98.848(5)
_cell_angle_gamma                90
_cell_volume                     3896.83
loop_
_atom_site_label
_atom_site_type_symbol
_atom_site_fract_x
_atom_site_fract_y
_atom_site_fract_z
Cu1 Cu 0.0000 0.0000 0.0000
O1 O -0.1339(4) 0.0682(3) 0.0031(2)
N1 N -0.5586(4) 0.1004(3) 0.1126(3)
C1 C -0.1995(5) 0.2059(4) 0.0003(3)
Cu2 Cu -0.45988(7) -0.00303(4) 0.11026(4)
C2 C -0.3103(5) 0.1824(3) 0.0134(2)
O2 O -0.0110(4) 0.1640(3) -0.0200(3)
N2 N -1.2118(6) 0.2149(4) 0.2863(4)
O3 O -0.3422(4) 0.0638(3) 0.0739(2)
C3 C -0.3915(5) 0.2437(4) 0.0217(3)
H1 H -0.4654 0.2292 0.0303
N3 N 0.0439(5) 0.0129(3) 0.0974(3)
N4 N 0.3811(4) 0.3850(3) 0.3928(2)
O4 O -0.3988(4) 0.0593(3) -0.0320(2)
C4 C -0.3614(6) 0.3267(4) 0.0170(3)
O5 O -0.6447(5) 0.5051(3) 0.2717(2)
C5 C -0.2538(7) 0.3503(4) 0.0034(3)
H2 H -0.2353 0.4060 -0.0001
O6 O -0.4699(4) 0.4580(3) 0.31511(19)
C6 C -0.1735(6) 0.2891(4) -0.0049(3)
H3 H -0.1003 0.3043 -0.0142
O7 O -0.6364(5) 0.6207(3) 0.1675(3)
H4 H -0.6884 0.6561 0.1770
C7 C -0.5192(6) 0.4515(4) 0.2025(3)
C8 C -0.5831(6) 0.4846(4) 0.1463(3)
O8 O -0.7795(5) 0.5325(4) 0.1302(3)
O9 O -0.4459(5) 0.3873(3) 0.0230(2)
C9 C -0.5572(6) 0.4613(4) 0.0878(3)
H5 H -0.6004 0.4827 0.0507
C10 C -0.4664(6) 0.4055(4) 0.0839(3)
C11 C -0.4020(6) 0.3718(4) 0.1385(3)
H6 H -0.3415 0.3345 0.1359
C12 C -0.4308(6) 0.3955(4) 0.1973(3)
H7 H -0.3890 0.3728 0.2343
C13 C -0.1071(5) 0.1441(4) -0.0065(3)
C14 C -0.3517(5) 0.0936(3) 0.0182(3)
C15 C -0.5481(6) 0.4733(4) 0.2665(3)
C16 C -0.6788(7) 0.5481(4) 0.1483(3)
C17 C -0.6464(7) 0.1186(5) 0.0656(4)
H8 H -0.6580 0.0852 0.0294
C18 C -0.7209(7) 0.1860(5) 0.0689(4)
H9 H -0.7807 0.1968 0.0352
C19 C -0.7063(7) 0.2365(4) 0.1220(4)
C20 C -0.6143(7) 0.2170(5) 0.1699(4)
H10 H -0.6005 0.2499 0.2063
C21 C -0.5433(6) 0.1496(5) 0.1642(4)
H11 H -0.4827 0.1380 0.1973
C22 C -1.2154(7) 0.1998(5) 0.2238(4)
H12 H -1.2682 0.1603 0.2047
C23 C -1.1452(6) 0.2396(5) 0.1864(4)
H13 H -1.1529 0.2285 0.1428
C24 C -1.0634(6) 0.2962(4) 0.2144(4)
C25 C -1.0589(7) 0.3108(5) 0.2789(4)
H14 H -1.0056 0.3488 0.2998
C26 C -1.1330(9) 0.2693(6) 0.3116(4)
H15 H -1.1278 0.2801 0.3551
C27 C -0.7922(7) 0.3050(5) 0.1291(5)
H16 H -0.7523 0.3506 0.1532
H17 H -0.8266 0.3255 0.0873
C28 C -0.8861(7) 0.2709(5) 0.1635(5)
H18 H -0.8497 0.2486 0.2043
H19 H -0.9250 0.2255 0.1387
C29 C -0.9787(7) 0.3351(5) 0.1754(5)
H20 H -0.9406 0.3825 0.1980
H21 H -1.0208 0.3544 0.1349
C30 C 0.1545(6) 0.0000(4) 0.1272(3)
H22 H 0.2114 -0.0146 0.1025
C31 C 0.1868(6) 0.0071(4) 0.1914(4)
H23 H 0.2647 -0.0007 0.2094
C32 C 0.1031(6) 0.0261(4) 0.2308(3)
C33 C -0.0100(6) 0.0366(4) 0.2001(3)
H24 H -0.0693 0.0476 0.2241
C34 C -0.0371(6) 0.0311(4) 0.1345(3)
H25 H -0.1141 0.0402 0.1153
C35 C 0.4434(6) 0.3177(4) 0.3828(3)
H26 H 0.5207 0.3245 0.3761
C36 C 0.3980(7) 0.2388(4) 0.3818(4)
H27 H 0.4442 0.1934 0.3751
C37 C 0.2832(7) 0.2277(4) 0.3908(3)
C38 C 0.2201(7) 0.2971(5) 0.4014(3)
H28 H 0.1428 0.2921 0.4083
C39 C 0.2715(6) 0.3743(4) 0.4019(3)
H29 H 0.2272 0.4206 0.4088
C40 C 0.1375(8) 0.0360(4) 0.3016(3)
H30 H 0.1943 -0.0061 0.3179
H31 H 0.0692 0.0295 0.3228
C41 C 0.1903(8) 0.1219(5) 0.3152(4)
H32 H 0.1326 0.1629 0.2979
H33 H 0.2569 0.1275 0.2927
C42 C 0.2304(9) 0.1411(5) 0.3858(3)
H34 H 0.1642 0.1384 0.4089
H35 H 0.2883 0.1008 0.4041
O1B O 0.1339(4) -0.0682(3) -0.0031(2)
N1B N 0.5586(4) -0.1004(3) -0.1126(3)
C1B C 0.1995(5) -0.2059(4) -0.0003(3)
Cu2B Cu 0.45988(7) 0.00303(4) -0.11026(4)
Cu2A Cu 0.45988(7) 0.49697(4) 0.38974(4)
Cu2B_2 Cu -0.54012(7) 0.00303(4) -0.11026(4)
Cu2A_2 Cu -0.54012(7) 0.49697(4) 0.38974(4)
Cu2_2 Cu 0.54012(7) -0.00303(4) 0.11026(4)
Cu2C Cu 0.54012(7) -0.49697(4) -0.38974(4)
Cu2C_2 Cu -0.45988(7) -0.49697(4) -0.38974(4)
C2B C 0.3103(5) -0.1824(3) -0.0134(2)
O2B O 0.0110(4) -0.1640(3) 0.0200(3)
N2B N 1.2118(6) -0.2149(4) -0.2863(4)
O3B O 0.3422(4) -0.0638(3) -0.0739(2)
C3B C 0.3915(5) -0.2437(4) -0.0217(3)
H1B H 0.4654 -0.2292 -0.0303
N3B N -0.0439(5) -0.0129(3) -0.0974(3)
N4B N -0.3811(4) -0.3850(3) -0.3928(2)
N4A N -0.3811(4) -0.1150(3) 0.1072(2)
N4C N 0.3811(4) 0.1150(3) -0.1072(2)
O4B O 0.3988(4) -0.0593(3) 0.0320(2)
O4B_2 O -0.6012(4) -0.0593(3) 0.0320(2)
O4_2 O 0.6012(4) 0.0593(3) -0.0320(2)
C4B C 0.3614(6) -0.3267(4) -0.0170(3)
O5B O 0.6447(5) -0.5051(3) -0.2717(2)
C5B C 0.2538(7) -0.3503(4) -0.0034(3)
H2B H 0.2353 -0.4060 0.0001
O6B O 0.4699(4) -0.4580(3) -0.31511(19)
O6A O -0.5301(4) -0.0420(3) 0.18489(19)
O6C O 0.5301(4) 0.0420(3) -0.18489(19)
C6B C 0.1735(6) -0.2891(4) 0.0049(3)
H3B H 0.1003 -0.3043 0.0142
O7B O 0.6364(5) -0.6207(3) -0.1675(3)
H4B H 0.6884 -0.6561 -0.1770
C7B C 0.5192(6) -0.4515(4) -0.2025(3)
C8B C 0.5831(6) -0.4846(4) -0.1463(3)
O8B O 0.7795(5) -0.5325(4) -0.1302(3)
O9B O 0.4459(5) -0.3873(3) -0.0230(2)
C9B C 0.5572(6) -0.4613(4) -0.0878(3)
H5B H 0.6004 -0.4827 -0.0507
C10B C 0.4664(6) -0.4055(4) -0.0839(3)
C11B C 0.4020(6) -0.3718(4) -0.1385(3)
H6B H 0.3415 -0.3345 -0.1359
C12B C 0.4308(6) -0.3955(4) -0.1973(3)
H7B H 0.3890 -0.3728 -0.2343
C13B C 0.1071(5) -0.1441(4) 0.0065(3)
C14B C 0.3517(5) -0.0936(3) -0.0182(3)
C15B C 0.5481(6) -0.4733(4) -0.2665(3)
C16B C 0.6788(7) -0.5481(4) -0.1483(3)
C17B C 0.6464(7) -0.1186(5) -0.0656(4)
H8B H 0.6580 -0.0852 -0.0294
C18B C 0.7209(7) -0.1860(5) -0.0689(4)
H9B H 0.7807 -0.1968 -0.0352
C19B C 0.7063(7) -0.2365(4) -0.1220(4)
C20B C 0.6143(7) -0.2170(5) -0.1699(4)
H10B H 0.6005 -0.2499 -0.2063
C21B C 0.5433(6) -0.1496(5) -0.1642(4)
H11B H 0.4827 -0.1380 -0.1973
C22B C 1.2154(7) -0.1998(5) -0.2238(4)
H12B H 1.2682 -0.1603 -0.2047
C23B C 1.1452(6) -0.2396(5) -0.1864(4)
H13B H 1.1529 -0.2285 -0.1428
C24B C 1.0634(6) -0.2962(4) -0.2144(4)
C25B C 1.0589(7) -0.3108(5) -0.2789(4)
H14B H 1.0056 -0.3488 -0.2998
C26B C 1.1330(9) -0.2693(6) -0.3116(4)
H15B H 1.1278 -0.2801 -0.3551
C27B C 0.7922(7) -0.3050(5) -0.1291(5)
H16B H 0.7523 -0.3506 -0.1532
H17B H 0.8266 -0.3255 -0.0873
C28B C 0.8861(7) -0.2709(5) -0.1635(5)
H18B H 0.8497 -0.2486 -0.2043
H19B H 0.9250 -0.2255 -0.1387
C29B C 0.9787(7) -0.3351(5) -0.1754(5)
H20B H 0.9406 -0.3825 -0.1980
H21B H 1.0208 -0.3544 -0.1349
C30B C -0.1545(6) 0.0000(4) -0.1272(3)
H22B H -0.2114 0.0146 -0.1025
C31B C -0.1868(6) -0.0071(4) -0.1914(4)
H23B H -0.2647 0.0007 -0.2094
C32B C -0.1031(6) -0.0261(4) -0.2308(3)
C33B C 0.0100(6) -0.0366(4) -0.2001(3)
H24B H 0.0693 -0.0476 -0.2241
C34B C 0.0371(6) -0.0311(4) -0.1345(3)
H25B H 0.1141 -0.0402 -0.1153
C35B C -0.4434(6) -0.3177(4) -0.3828(3)
H26B H -0.5207 -0.3245 -0.3761
C36B C -0.3980(7) -0.2388(4) -0.3818(4)
H27B H -0.4442 -0.1934 -0.3751
C37B C -0.2832(7) -0.2277(4) -0.3908(3)
C38B C -0.2201(7) -0.2971(5) -0.4014(3)
H28B H -0.1428 -0.2921 -0.4083
C39B C -0.2715(6) -0.3743(4) -0.4019(3)
H29B H -0.2272 -0.4206 -0.4088
C40B C -0.1375(8) -0.0360(4) -0.3016(3)
H30B H -0.1943 0.0061 -0.3179
H31B H -0.0692 -0.0295 -0.3228
C41B C -0.1903(8) -0.1219(5) -0.3152(4)
H32B H -0.1326 -0.1629 -0.2979
H33B H -0.2569 -0.1275 -0.2927
C42B C -0.2304(9) -0.1411(5) -0.3858(3)
H34B H -0.1642 -0.1384 -0.4089
H35B H -0.2883 -0.1008 -0.4041
loop_
_geom_bond_atom_site_label_1
_geom_bond_atom_site_label_2
_geom_bond_site_symmetry_1
_geom_bond_site_symmetry_2
Cu1 O1 1_555 1_555
O1 C13 1_555 1_555
N1 Cu2 1_555 1_555
C1 C2 1_555 1_555
Cu2 O3 1_555 1_555
C2 C3 1_555 1_555
O2 C13 1_555 1_555
N2 C22 1_555 1_555
O3 C14 1_555 1_555
C3 H1 1_555 1_555
N3 Cu1 1_555 1_555
N4 C35 1_555 1_555
O4 C14 1_555 1_555
C4 C3 1_555 1_555
O5 C15 1_555 1_555
C5 C4 1_555 1_555
H2 C5 1_555 1_555
O6 C15 1_555 1_555
C6 C1 1_555 1_555
H3 C6 1_555 1_555
O7 H4 1_555 1_555
C7 C8 1_555 1_555
C8 C9 1_555 1_555
O8 C16 1_555 1_555
O9 C4 1_555 1_555
C9 H5 1_555 1_555
C10 O9 1_555 1_555
C11 C10 1_555 1_555
H6 C11 1_555 1_555
C12 C7 1_555 1_555
H7 C12 1_555 1_555
C13 C1 1_555 1_555
C14 C2 1_555 1_555
C15 C7 1_555 1_555
C16 O7 1_555 1_555
C17 N1 1_555 1_555
H8 C17 1_555 1_555
C18 C17 1_555 1_555
H9 C18 1_555 1_555
C19 C18 1_555 1_555
C20 C19 1_555 1_555
H10 C20 1_555 1_555
C21 N1 1_555 1_555
H11 C21 1_555 1_555
C22 H12 1_555 1_555
C23 C22 1_555 1_555
H13 C23 1_555 1_555
C24 C23 1_555 1_555
C25 C24 1_555 1_555
H14 C25 1_555 1_555
C26 N2 1_555 1_555
H15 C26 1_555 1_555
C27 C19 1_555 1_555
H16 C27 1_555 1_555
H17 C27 1_555 1_555
C28 C27 1_555 1_555
H18 C28 1_555 1_555
H19 C28 1_555 1_555
C29 C24 1_555 1_555
H20 C29 1_555 1_555
H21 C29 1_555 1_555
C30 N3 1_555 1_555
H22 C30 1_555 1_555
C31 C30 1_555 1_555
H23 C31 1_555 1_555
C32 C31 1_555 1_555
C33 C32 1_555 1_555
H24 C33 1_555 1_555
C34 N3 1_555 1_555
H25 C34 1_555 1_555
C35 H26 1_555 1_555
C36 C35 1_555 1_555
H27 C36 1_555 1_555
C37 C36 1_555 1_555
C38 C37 1_555 1_555
H28 C38 1_555 1_555
C39 N4 1_555 1_555
H29 C39 1_555 1_555
C40 C32 1_555 1_555
H30 C40 1_555 1_555
H31 C40 1_555 1_555
C41 C40 1_555 1_555
H32 C41 1_555 1_555
H33 C41 1_555 1_555
C42 C37 1_555 1_555
H34 C42 1_555 1_555
H35 C42 1_555 1_555
O1B Cu1 1_555 1_555
N1B Cu2B 1_555 1_555
C1B C2B 1_555 1_555
Cu2B O3B 1_555 1_555
Cu2A N4 1_555 1_555
Cu2B_2 O4 1_555 1_555
Cu2A_2 O6 1_555 1_555
Cu2_2 O4B 1_555 1_555
Cu2C O6B 1_555 1_555
Cu2C_2 N4B 1_555 1_555
C2B C3B 1_555 1_555
O2B C13B 1_555 1_555
N2B C22B 1_555 1_555
O3B C14B 1_555 1_555
C3B H1B 1_555 1_555
N3B Cu1 1_555 1_555
N4B C35B 1_555 1_555
N4A Cu2 1_555 1_555
N4C Cu2B 1_555 1_555
O4B C14B 1_555 1_555
O4B_2 Cu2 1_555 1_555
O4_2 Cu2B 1_555 1_555
C4B C3B 1_555 1_555
O5B C15B 1_555 1_555
C5B C4B 1_555 1_555
H2B C5B 1_555 1_555
O6B C15B 1_555 1_555
O6A Cu2 1_555 1_555
O6C Cu2B 1_555 1_555
C6B C1B 1_555 1_555
H3B C6B 1_555 1_555
O7B H4B 1_555 1_555
C7B C8B 1_555 1_555
C8B C9B 1_555 1_555
O8B C16B 1_555 1_555
O9B C4B 1_555 1_555
C9B H5B 1_555 1_555
C10B O9B 1_555 1_555
C11B C10B 1_555 1_555
H6B C11B 1_555 1_555
C12B C7B 1_555 1_555
H7B C12B 1_555 1_555
C13B O1B 1_555 1_555
C14B C2B 1_555 1_555
C15B C7B 1_555 1_555
C16B O7B 1_555 1_555
C17B N1B 1_555 1_555
H8B C17B 1_555 1_555
C18B C17B 1_555 1_555
H9B C18B 1_555 1_555
C19B C18B 1_555 1_555
C20B C19B 1_555 1_555
H10B C20B 1_555 1_555
C21B N1B 1_555 1_555
H11B C21B 1_555 1_555
C22B H12B 1_555 1_555
C23B C22B 1_555 1_555
H13B C23B 1_555 1_555
C24B C23B 1_555 1_555
C25B C24B 1_555 1_555
H14B C25B 1_555 1_555
C26B N2B 1_555 1_555
H15B C26B 1_555 1_555
C27B C19B 1_555 1_555
H16B C27B 1_555 1_555
H17B C27B 1_555 1_555
C28B C27B 1_555 1_555
H18B C28B 1_555 1_555
H19B C28B 1_555 1_555
C29B C24B 1_555 1_555
H20B C29B 1_555 1_555
H21B C29B 1_555 1_555
C30B N3B 1_555 1_555
H22B C30B 1_555 1_555
C31B C30B 1_555 1_555
H23B C31B 1_555 1_555
C32B C31B 1_555 1_555
C33B C32B 1_555 1_555
H24B C33B 1_555 1_555
C34B N3B 1_555 1_555
H25B C34B 1_555 1_555
C35B H26B 1_555 1_555
C36B C35B 1_555 1_555
H27B C36B 1_555 1_555
C37B C36B 1_555 1_555
C38B C37B 1_555 1_555
H28B C38B 1_555 1_555
C39B N4B 1_555 1_555
H29B C39B 1_555 1_555
C40B C32B 1_555 1_555
H30B C40B 1_555 1_555
H31B C40B 1_555 1_555
C41B C40B 1_555 1_555
H32B C41B 1_555 1_555
H33B C41B 1_555 1_555
C42B C37B 1_555 1_555
H34B C42B 1_555 1_555
H35B C42B 1_555 1_555
C5 C6 1_555 1_555
C8 C16 1_555 1_555
C9 C10 1_555 1_555
C11 C12 1_555 1_555
C20 C21 1_555 1_555
C25 C26 1_555 1_555
C28 C29 1_555 1_555
C33 C34 1_555 1_555
C38 C39 1_555 1_555
C41 C42 1_555 1_555
C1B C13B 1_555 1_555
C5B C6B 1_555 1_555
C8B C16B 1_555 1_555
C9B C10B 1_555 1_555
C11B C12B 1_555 1_555
C20B C21B 1_555 1_555
C25B C26B 1_555 1_555
C28B C29B 1_555 1_555
C33B C34B 1_555 1_555
C38B C39B 1_555 1_555
C41B C42B 1_555 1_555

#END
