
#######################################################################
#
#                 Cambridge Crystallographic Data Centre
#                                CCDC 
#
#######################################################################
#
# If this CIF has been generated from an entry in the Cambridge 
# Structural Database, then it will include bibliographic, chemical, 
# crystal, experimental, refinement or atomic coordinate data resulting 
# from the CCDC's data processing and validation procedures.
#
#######################################################################

data_ICENIP
_symmetry_cell_setting           monoclinic
_symmetry_space_group_name_H-M   'P 21/c'
_symmetry_Int_Tables_number      14
_space_group_name_Hall           '-P 2ybc'
loop_
_symmetry_equiv_pos_site_id
_symmetry_equiv_pos_as_xyz
1 x,y,z
2 -x,1/2+y,1/2-z
3 -x,-y,-z
4 x,1/2-y,1/2+z
_cell_length_a                   10.971(2)
_cell_length_b                   20.776(4)
_cell_length_c                   14.332(3)
_cell_angle_alpha                90
_cell_angle_beta                 109.25(3)
_cell_angle_gamma                90
_cell_volume                     3084.1
loop_
_atom_site_label
_atom_site_type_symbol
_atom_site_fract_x
_atom_site_fract_y
_atom_site_fract_z
Mn1 Mn 0.23873(3) 0.375069(16) 0.15663(2)
O1 O 0.40783(15) 0.39132(9) 0.11385(13)
O2 O 0.53545(16) 0.46161(9) 0.21810(13)
O3 O 1.05499(15) 0.39092(9) 0.17469(14)
O4 O 0.96546(17) 0.29862(9) 0.19715(14)
O5 O 0.74981(18) 0.24121(9) 0.15676(14)
H1 H 0.8172 0.2619 0.1732
O6 O 0.5877(2) 0.22527(10) 0.21131(18)
O7 O 0.75660(18) 0.51725(8) 0.26293(15)
H2 H 0.6880 0.4978 0.2499
O8 O 0.95606(18) 0.50487(10) 0.36167(15)
O9 O 0.28879(17) 0.46576(9) 0.22932(15)
H3 H 0.3743 0.4774 0.2388
H4 H 0.2681 0.4807 0.2774
N1 N 0.13050(18) 0.38156(9) -0.00719(14)
N2 N 0.20328(18) 0.27590(9) 0.09716(16)
N3 N 0.3330(2) 0.30701(11) 0.28153(17)
C1 C 0.5110(2) 0.42134(11) 0.14845(17)
C2 C 0.9602(2) 0.35536(12) 0.16571(17)
C3 C 0.6832(2) 0.25582(12) 0.21493(19)
C4 C 0.8501(2) 0.48186(13) 0.32158(18)
C5 C 0.6123(2) 0.41058(10) 0.10085(16)
C6 C 0.5837(2) 0.42379(12) 0.00118(17)
H11 H 0.5011 0.4375 -0.0357
C7 C 0.6762(2) 0.41677(13) -0.04412(18)
H12 H 0.6564 0.4256 -0.1111
C8 C 0.7985(2) 0.39646(12) 0.01135(17)
H13 H 0.8617 0.3926 -0.0185
C9 C 0.8285(2) 0.38178(10) 0.11056(16)
C10 C 0.7353(2) 0.38830(10) 0.15718(15)
C11 C 0.7335(2) 0.30840(12) 0.28895(17)
C12 C 0.7636(2) 0.36994(11) 0.26344(16)
C13 C 0.8193(2) 0.41377(12) 0.34005(17)
C14 C 0.8443(3) 0.39611(15) 0.43798(19)
H14 H 0.8852 0.4249 0.4882
C15 C 0.8089(3) 0.33637(16) 0.4611(2)
H15 H 0.8230 0.3254 0.5267
C16 C 0.7529(3) 0.29292(14) 0.3874(2)
H16 H 0.7277 0.2528 0.4033
C17 C 0.0919(2) 0.43694(12) -0.05525(19)
H17 H 0.1158 0.4752 -0.0203
C18 C 0.0187(3) 0.44038(15) -0.1534(2)
H18 H -0.0079 0.4798 -0.1841
C19 C -0.0136(4) 0.38424(17) -0.2043(2)
H19 H -0.0624 0.3849 -0.2710
C20 C 0.0257(3) 0.32664(16) -0.1571(2)
H20 H 0.0043 0.2881 -0.1917
C21 C 0.0976(2) 0.32647(12) -0.05759(18)
C22 C 0.1413(2) 0.26668(12) 0.0009(2)
C23 C 0.1204(3) 0.20526(14) -0.0394(3)
H21 H 0.0779 0.1989 -0.1065
C24 C 0.1645(4) 0.15436(16) 0.0235(3)
H22 H 0.1516 0.1127 -0.0017
C25 C 0.2273(3) 0.16336(15) 0.1224(3)
H23 H 0.2566 0.1285 0.1645
C26 C 0.2461(2) 0.22602(13) 0.1582(2)
C27 C 0.3136(3) 0.24376(14) 0.2627(2)
C28 C 0.3538(4) 0.19868(18) 0.3376(3)
H24 H 0.3385 0.1551 0.3242
C29 C 0.4169(4) 0.2195(2) 0.4326(3)
H25 H 0.4434 0.1899 0.4841
C30 C 0.4404(4) 0.2834(2) 0.4512(3)
H26 H 0.4851 0.2978 0.5147
C31 C 0.3967(3) 0.32602(18) 0.3739(2)
H27 H 0.4120 0.3697 0.3863
Mn1_2 Mn 1.23873(3) 0.375069(16) 0.15663(2)
O3_2 O 0.05499(15) 0.39092(9) 0.17469(14)
O10 O 0.5807(3) 0.09597(14) 0.1553(3)
H5 H 0.6348 0.0978 0.1244
H6 H 0.5458 0.1326 0.1540
O11 O 0.2211(2) 0.50996(13) 0.38144(16)
H7 H 0.1441 0.5040 0.3805
H8 H 0.2664 0.4983 0.4394
O12 O 0.3954(3) 0.00745(18) 0.0650(2)
H9 H 0.4135 -0.0045 0.1248
H10 H 0.4080 0.0475 0.0760
loop_
_geom_bond_atom_site_label_1
_geom_bond_atom_site_label_2
_geom_bond_site_symmetry_1
_geom_bond_site_symmetry_2
Mn1 O1 1_555 1_555
O1 C1 1_555 1_555
O2 C1 1_555 1_555
O3 C2 1_555 1_555
O4 C2 1_555 1_555
O5 H1 1_555 1_555
O6 C3 1_555 1_555
O7 H2 1_555 1_555
O8 C4 1_555 1_555
O9 Mn1 1_555 1_555
H3 O9 1_555 1_555
H4 O9 1_555 1_555
O10 H5 1_555 1_555
H6 O10 1_555 1_555
O11 H7 1_555 1_555
H8 O11 1_555 1_555
O12 H9 1_555 1_555
H10 O12 1_555 1_555
N1 Mn1 1_555 1_555
N2 Mn1 1_555 1_555
N3 Mn1 1_555 1_555
C1 C5 1_555 1_555
C2 C9 1_555 1_555
C3 O5 1_555 1_555
C4 O7 1_555 1_555
C5 C6 1_555 1_555
C6 H11 1_555 1_555
C7 C6 1_555 1_555
H12 C7 1_555 1_555
C8 C7 1_555 1_555
H13 C8 1_555 1_555
C9 C8 1_555 1_555
C10 C5 1_555 1_555
C11 C3 1_555 1_555
C12 C10 1_555 1_555
C13 C4 1_555 1_555
C14 C13 1_555 1_555
H14 C14 1_555 1_555
C15 C14 1_555 1_555
H15 C15 1_555 1_555
C16 C11 1_555 1_555
H16 C16 1_555 1_555
C17 N1 1_555 1_555
H17 C17 1_555 1_555
C18 C17 1_555 1_555
H18 C18 1_555 1_555
C19 C18 1_555 1_555
H19 C19 1_555 1_555
C20 C19 1_555 1_555
H20 C20 1_555 1_555
C21 N1 1_555 1_555
C22 N2 1_555 1_555
C23 C22 1_555 1_555
H21 C23 1_555 1_555
C24 C23 1_555 1_555
H22 C24 1_555 1_555
C25 C24 1_555 1_555
H23 C25 1_555 1_555
C26 N2 1_555 1_555
C27 N3 1_555 1_555
C28 C27 1_555 1_555
H24 C28 1_555 1_555
C29 C28 1_555 1_555
H25 C29 1_555 1_555
C30 C29 1_555 1_555
H26 C30 1_555 1_555
C31 N3 1_555 1_555
H27 C31 1_555 1_555
Mn1_2 O3 1_555 1_555
O3_2 Mn1 1_555 1_555
C9 C10 1_555 1_555
C11 C12 1_555 1_555
C12 C13 1_555 1_555
C15 C16 1_555 1_555
C20 C21 1_555 1_555
C21 C22 1_555 1_555
C25 C26 1_555 1_555
C26 C27 1_555 1_555
C30 C31 1_555 1_555

#END
