
#######################################################################
#
#                 Cambridge Crystallographic Data Centre
#                                CCDC 
#
#######################################################################
#
# If this CIF has been generated from an entry in the Cambridge 
# Structural Database, then it will include bibliographic, chemical, 
# crystal, experimental, refinement or atomic coordinate data resulting 
# from the CCDC's data processing and validation procedures.
#
#######################################################################

data_ICENUB
_symmetry_cell_setting           monoclinic
_symmetry_space_group_name_H-M   'P 2/n'
_symmetry_Int_Tables_number      13
_space_group_name_Hall           '-P 2yac'
loop_
_symmetry_equiv_pos_site_id
_symmetry_equiv_pos_as_xyz
1 x,y,z
2 1/2-x,y,1/2-z
3 -x,-y,-z
4 1/2+x,-y,1/2+z
_cell_length_a                   7.1866(11)
_cell_length_b                   14.144(2)
_cell_length_c                   14.407(2)
_cell_angle_alpha                90
_cell_angle_beta                 101.427(2)
_cell_angle_gamma                90
_cell_volume                     1435.4
loop_
_atom_site_label
_atom_site_type_symbol
_atom_site_fract_x
_atom_site_fract_y
_atom_site_fract_z
Zn1 Zn 1.2500 0.26467(3) 0.2500
O1 O 0.5625(4) 0.07562(17) -0.11954(18)
O2 O 1.0899(4) 0.32933(15) 0.32511(17)
O3 O 1.3645(4) 0.39949(18) 0.38151(19)
N1 N 1.0528(4) 0.17808(16) 0.17326(19)
N2 N 0.7657(4) 0.14169(18) 0.09645(19)
C1 C 0.8759(5) 0.2058(2) 0.1478(2)
H1 H 0.8322 0.2642 0.1640
C2 C 1.0540(5) 0.0899(2) 0.1351(2)
H2 H 1.1603 0.0512 0.1407
C3 C 0.8794(5) 0.0673(2) 0.0883(3)
H3 H 0.8433 0.0111 0.0563
C4 C 0.5630(5) 0.1530(3) 0.0570(3)
H4 H 0.5021 0.1820 0.1042
H5 H 0.5066 0.0911 0.0424
C5 C 0.5260(5) 0.2129(2) -0.0317(3)
H6 H 0.4008 0.2409 -0.0384
H7 H 0.6176 0.2641 -0.0239
C6 C 0.5365(5) 0.1605(3) -0.1214(3)
C7 C 0.5127(5) 0.2150(2) -0.2122(3)
C8 C 0.5087(5) 0.3128(3) -0.2151(3)
H8 H 0.5144 0.3472 -0.1596
C9 C 0.4960(6) 0.3593(3) -0.3003(4)
H9 H 0.4945 0.4251 -0.3020
C10 C 0.4857(5) 0.3087(4) -0.3825(3)
H10 H 0.4780 0.3403 -0.4398
C11 C 0.4868(5) 0.2125(4) -0.3807(3)
H11 H 0.4774 0.1786 -0.4367
C12 C 0.5017(5) 0.1651(3) -0.2958(3)
H12 H 0.5043 0.0994 -0.2948
C13 C 1.1923(6) 0.3898(2) 0.3768(3)
C14 C 1.0912(5) 0.4487(2) 0.4398(2)
C15 C 1.1955(5) 0.5007(2) 0.5133(3)
H13 H 1.3273 0.5013 0.5227
C16 C 0.8956(5) 0.4483(2) 0.4273(2)
H14 H 0.8244 0.4132 0.3782
Zn1B Zn 0.7500 0.73533(3) 0.7500
O1A O 1.9375(4) 0.07562(17) 0.61954(18)
O2B O 0.9101(4) 0.67067(15) 0.67489(17)
O2A O 1.4101(4) 0.32933(15) 0.17489(17)
O3B O 0.6355(4) 0.60051(18) 0.61849(19)
N1A N 1.4472(4) 0.17808(16) 0.32674(19)
N2A N 1.7343(4) 0.14169(18) 0.40355(19)
C1A C 1.6241(5) 0.2058(2) 0.3522(2)
H1A H 1.6678 0.2642 0.3360
C2A C 1.4460(5) 0.0899(2) 0.3649(2)
H2A H 1.3397 0.0512 0.3593
C3A C 1.6206(5) 0.0673(2) 0.4117(3)
H3A H 1.6567 0.0111 0.4437
C4A C 1.9370(5) 0.1530(3) 0.4430(3)
H4A H 1.9979 0.1820 0.3958
H5A H 1.9934 0.0911 0.4576
C5A C 1.9740(5) 0.2129(2) 0.5317(3)
H6A H 2.0992 0.2409 0.5384
H7A H 1.8824 0.2641 0.5239
C6A C 1.9635(5) 0.1605(3) 0.6214(3)
C7A C 1.9873(5) 0.2150(2) 0.7122(3)
C8A C 1.9913(5) 0.3128(3) 0.7151(3)
H8A H 1.9856 0.3472 0.6596
C9A C 2.0040(6) 0.3593(3) 0.8003(4)
H9A H 2.0055 0.4251 0.8020
C10A C 2.0143(5) 0.3087(4) 0.8825(3)
H10A H 2.0220 0.3403 0.9398
C11A C 2.0132(5) 0.2125(4) 0.8807(3)
H11A H 2.0226 0.1786 0.9367
C12A C 1.9983(5) 0.1651(3) 0.7958(3)
H12A H 1.9957 0.0994 0.7948
C13B C 0.8077(6) 0.6102(2) 0.6232(3)
C14B C 0.9088(5) 0.5513(2) 0.5602(2)
C15B C 0.8045(5) 0.4993(2) 0.4867(3)
H13B H 0.6727 0.4987 0.4773
C16B C 1.1044(5) 0.5517(2) 0.5727(2)
H14B H 1.1756 0.5868 0.6218
loop_
_geom_bond_atom_site_label_1
_geom_bond_atom_site_label_2
_geom_bond_site_symmetry_1
_geom_bond_site_symmetry_2
Zn1 O2 1_555 1_555
O1 C6 1_555 1_555
O2 C13 1_555 1_555
O3 C13 1_555 1_555
N1 Zn1 1_555 1_555
N2 C1 1_555 1_555
C1 N1 1_555 1_555
H1 C1 1_555 1_555
C2 N1 1_555 1_555
H2 C2 1_555 1_555
C3 N2 1_555 1_555
H3 C3 1_555 1_555
C4 N2 1_555 1_555
H4 C4 1_555 1_555
H5 C4 1_555 1_555
C5 C4 1_555 1_555
H6 C5 1_555 1_555
H7 C5 1_555 1_555
C6 C5 1_555 1_555
C7 C6 1_555 1_555
C8 C7 1_555 1_555
H8 C8 1_555 1_555
C9 C8 1_555 1_555
H9 C9 1_555 1_555
C10 C9 1_555 1_555
H10 C10 1_555 1_555
C11 C10 1_555 1_555
H11 C11 1_555 1_555
C12 C7 1_555 1_555
H12 C12 1_555 1_555
C13 C14 1_555 1_555
C14 C15 1_555 1_555
C15 H13 1_555 1_555
C16 C14 1_555 1_555
H14 C16 1_555 1_555
Zn1B O2B 1_555 1_555
O1A C6A 1_555 1_555
O2B C13B 1_555 1_555
O2A Zn1 1_555 1_555
O3B C13B 1_555 1_555
N1A Zn1 1_555 1_555
N2A C1A 1_555 1_555
C1A N1A 1_555 1_555
H1A C1A 1_555 1_555
C2A N1A 1_555 1_555
H2A C2A 1_555 1_555
C3A N2A 1_555 1_555
H3A C3A 1_555 1_555
C4A N2A 1_555 1_555
H4A C4A 1_555 1_555
H5A C4A 1_555 1_555
C5A C4A 1_555 1_555
H6A C5A 1_555 1_555
H7A C5A 1_555 1_555
C6A C5A 1_555 1_555
C7A C6A 1_555 1_555
C8A C7A 1_555 1_555
H8A C8A 1_555 1_555
C9A C8A 1_555 1_555
H9A C9A 1_555 1_555
C10A C9A 1_555 1_555
H10A C10A 1_555 1_555
C11A C10A 1_555 1_555
H11A C11A 1_555 1_555
C12A C7A 1_555 1_555
H12A C12A 1_555 1_555
C13B C14B 1_555 1_555
C14B C15B 1_555 1_555
C15B C16 1_555 1_555
H13B C15B 1_555 1_555
C16B C15 1_555 1_555
H14B C16B 1_555 1_555
C2 C3 1_555 1_555
C11 C12 1_555 1_555
C2A C3A 1_555 1_555
C11A C12A 1_555 1_555
C14B C16B 1_555 1_555

#END
