
#######################################################################
#
#                 Cambridge Crystallographic Data Centre
#                                CCDC 
#
#######################################################################
#
# If this CIF has been generated from an entry in the Cambridge 
# Structural Database, then it will include bibliographic, chemical, 
# crystal, experimental, refinement or atomic coordinate data resulting 
# from the CCDC's data processing and validation procedures.
#
#######################################################################

data_ICEPAJ
_symmetry_cell_setting           triclinic
_symmetry_space_group_name_H-M   'P -1'
_symmetry_Int_Tables_number      2
_space_group_name_Hall           '-P 1'
loop_
_symmetry_equiv_pos_site_id
_symmetry_equiv_pos_as_xyz
1 x,y,z
2 -x,-y,-z
_cell_length_a                   9.4300(17)
_cell_length_b                   12.148(2)
_cell_length_c                   13.721(2)
_cell_angle_alpha                109.620(2)
_cell_angle_beta                 94.351(2)
_cell_angle_gamma                94.830(2)
_cell_volume                     1466.19
loop_
_atom_site_label
_atom_site_type_symbol
_atom_site_fract_x
_atom_site_fract_y
_atom_site_fract_z
Cu1 Cu 0.0000 0.5000 0.0000
Cu2 Cu 0.0000 0.5000 0.5000
O1 O -0.16395(17) 0.48984(14) 0.07886(11)
O2 O -0.10712(18) 0.35652(15) 0.15007(12)
O3 O -0.10745(17) 0.49872(14) 0.36785(11)
O4 O -0.2465(2) 0.37489(18) 0.41585(14)
O5 O 0.1269(3) -0.08366(18) 0.02893(16)
O6 O 0.3389(2) 0.95075(18) 0.43373(15)
N1 N 0.1136(2) 0.60840(17) 0.12922(14)
N2 N 0.2068(2) 0.69517(17) 0.29135(14)
N3 N 0.0941(2) 0.36074(19) 0.42304(15)
N4 N 0.1287(2) 0.19622(19) 0.30264(16)
C1 C 0.2732(3) 0.7529(2) 0.23392(19)
H1 H 0.3446 0.8164 0.2585
C2 C 0.2143(3) 0.6994(2) 0.13472(19)
H2 H 0.2383 0.7208 0.0785
C3 C 0.1123(3) 0.6096(2) 0.22546(17)
H3 H 0.0530 0.5574 0.2451
C4 C 0.2395(3) 0.7156(2) 0.40292(17)
H4 H 0.3427 0.7284 0.4196
H5 H 0.2054 0.6447 0.4158
C5 C 0.1764(3) 0.8181(2) 0.47642(18)
H6 H 0.0776 0.8161 0.4497
H7 H 0.1760 0.8076 0.5435
C6 C 0.2540(3) 0.9379(2) 0.49264(19)
C7 C 0.2288(3) 1.0410(2) 0.58295(19)
C8 C 0.1160(3) 1.0398(3) 0.6417(2)
H8 H 0.0507 0.9726 0.6246
C9 C 0.1003(4) 1.1382(3) 0.7259(2)
H9 H 0.0231 1.1373 0.7641
C10 C 0.1967(4) 1.2369(3) 0.7535(2)
H10 H 0.1860 1.3023 0.8108
C11 C 0.3101(4) 1.2392(3) 0.6962(2)
H11 H 0.3759 1.3062 0.7146
C12 C 0.3259(3) 1.1420(2) 0.6115(2)
H12 H 0.4025 1.1440 0.5730
C13 C -0.1870(2) 0.42650(19) 0.13447(16)
C14 C -0.3275(2) 0.43620(19) 0.18006(17)
C15 C -0.4475(3) 0.4413(2) 0.11655(19)
H13 H -0.4363 0.4450 0.0509
C16 C -0.5821(3) 0.4410(3) 0.1485(2)
H14 H -0.6610 0.4438 0.1047
C17 C -0.5992(3) 0.4365(3) 0.2459(2)
H15 H -0.6899 0.4362 0.2681
C18 C -0.4820(3) 0.4325(2) 0.3103(2)
H16 H -0.4948 0.4297 0.3760
C19 C -0.3447(2) 0.4325(2) 0.27957(17)
C20 C -0.2246(3) 0.4329(2) 0.35860(17)
C21 C 0.2170(4) 0.2062(3) 0.3892(2)
H17 H 0.2800 0.1536 0.3960
C22 C 0.1951(4) 0.3068(3) 0.4626(2)
H18 H 0.2411 0.3358 0.5301
C23 C 0.0567(3) 0.2898(2) 0.32641(19)
H19 H -0.0116 0.3033 0.2805
C24 C 0.1122(3) 0.0972(3) 0.2042(2)
H20 H 0.0154 0.0882 0.1709
H21 H 0.1260 0.0256 0.2186
C25 C 0.2159(3) 0.1124(2) 0.13080(19)
H22 H 0.3124 0.1296 0.1662
H23 H 0.1953 0.1787 0.1099
C26 C 0.2068(3) 0.0036(2) 0.0356(2)
C27 C 0.2958(3) 0.0042(2) -0.04904(19)
C28 C 0.3759(3) 0.1065(2) -0.0479(2)
H24 H 0.3764 0.1762 0.0077
C29 C 0.4545(3) 0.1042(3) -0.1292(2)
H25 H 0.5075 0.1727 -0.1281
C30 C 0.4552(3) 0.0019(3) -0.2117(2)
H26 H 0.5082 0.0013 -0.2663
C31 C 0.3766(3) -0.1008(3) -0.2134(2)
H27 H 0.3772 -0.1705 -0.2689
C32 C 0.2975(3) -0.0987(2) -0.1319(2)
H28 H 0.2448 -0.1675 -0.1331
O7 O 0.0939(2) 0.3086(2) 0.01980(16)
H29 H 0.0340 0.3175 0.0644
H30 H 0.0879 0.2415 -0.0278
Cu2_2 Cu 0.0000 0.5000 -0.5000
O1A O 0.16395(17) 0.51016(14) -0.07886(11)
O2A O 0.10712(18) 0.64348(15) -0.15007(12)
O3A O 0.10745(17) 0.50128(14) -0.36785(11)
O3A_2 O 0.10745(17) 0.50128(14) 0.63215(11)
O4A O 0.2465(2) 0.62511(18) -0.41585(14)
O4A_2 O 0.2465(2) 0.62511(18) 0.58415(14)
O5A O -0.1269(3) 1.08366(18) 0.97107(16)
O6A O -0.3389(2) 0.04925(18) -0.43373(15)
N1A N -0.1136(2) 0.39160(17) -0.12922(14)
N2A N -0.2068(2) 0.30483(17) -0.29135(14)
N3A N -0.0941(2) 0.63926(19) 0.57696(15)
N4A N -0.1287(2) 0.80378(19) 0.69736(16)
C1A C -0.2732(3) 0.2471(2) -0.23392(19)
H1A H -0.3446 0.1836 -0.2585
C2A C -0.2143(3) 0.3006(2) -0.13472(19)
H2A H -0.2383 0.2792 -0.0785
C3A C -0.1123(3) 0.3904(2) -0.22546(17)
H3A H -0.0530 0.4426 -0.2451
C4A C -0.2395(3) 0.2844(2) -0.40292(17)
H4A H -0.3427 0.2716 -0.4196
H5A H -0.2054 0.3553 -0.4158
C5A C -0.1764(3) 0.1819(2) -0.47642(18)
H6A H -0.0776 0.1839 -0.4497
H7A H -0.1760 0.1924 -0.5435
C6A C -0.2540(3) 0.0621(2) -0.49264(19)
C7A C -0.2288(3) -0.0410(2) -0.58295(19)
C8A C -0.1160(3) -0.0398(3) -0.6417(2)
H8A H -0.0507 0.0274 -0.6246
C9A C -0.1003(4) -0.1382(3) -0.7259(2)
H9A H -0.0231 -0.1373 -0.7641
C10A C -0.1967(4) -0.2369(3) -0.7535(2)
H10A H -0.1860 -0.3023 -0.8108
C11A C -0.3101(4) -0.2392(3) -0.6962(2)
H11A H -0.3759 -0.3062 -0.7146
C12A C -0.3259(3) -0.1420(2) -0.6115(2)
H12A H -0.4025 -0.1440 -0.5730
C13A C 0.1870(2) 0.57350(19) -0.13447(16)
C14A C 0.3275(2) 0.56380(19) -0.18006(17)
C15A C 0.4475(3) 0.5587(2) -0.11655(19)
H13A H 0.4363 0.5550 -0.0509
C16A C 0.5821(3) 0.5590(3) -0.1485(2)
H14A H 0.6610 0.5562 -0.1047
C17A C 0.5992(3) 0.5635(3) -0.2459(2)
H15A H 0.6899 0.5638 -0.2681
C18A C 0.4820(3) 0.5675(2) -0.3103(2)
H16A H 0.4948 0.5703 -0.3760
C19A C 0.3447(2) 0.5675(2) -0.27957(17)
C20A C 0.2246(3) 0.5671(2) -0.35860(17)
C21A C -0.2170(4) 0.7938(3) 0.6108(2)
H17A H -0.2800 0.8464 0.6040
C22A C -0.1951(4) 0.6932(3) 0.5374(2)
H18A H -0.2411 0.6642 0.4699
C23A C -0.0567(3) 0.7102(2) 0.67359(19)
H19A H 0.0116 0.6967 0.7195
C24A C -0.1122(3) 0.9028(3) 0.7958(2)
H20A H -0.0154 0.9118 0.8291
H21A H -0.1260 0.9744 0.7814
C25A C -0.2159(3) 0.8876(2) 0.86920(19)
H22A H -0.3124 0.8704 0.8338
H23A H -0.1953 0.8213 0.8901
C26A C -0.2068(3) 0.9964(2) 0.9644(2)
C27A C -0.2958(3) 0.9958(2) 1.04904(19)
C28A C -0.3759(3) 0.8935(2) 1.0479(2)
H24A H -0.3764 0.8238 0.9923
C29A C -0.4545(3) 0.8958(3) 1.1292(2)
H25A H -0.5075 0.8273 1.1281
C30A C -0.4552(3) 0.9981(3) 1.2117(2)
H26A H -0.5082 0.9987 1.2663
C31A C -0.3766(3) 1.1008(3) 1.2134(2)
H27A H -0.3772 1.1705 1.2689
C32A C -0.2975(3) 1.0987(2) 1.1319(2)
H28A H -0.2448 1.1675 1.1331
O7A O -0.0939(2) 0.6914(2) -0.01980(16)
H29A H -0.0340 0.6825 -0.0644
H30A H -0.0879 0.7585 0.0278
loop_
_geom_bond_atom_site_label_1
_geom_bond_atom_site_label_2
_geom_bond_site_symmetry_1
_geom_bond_site_symmetry_2
Cu1 O1 1_555 1_555
Cu2 O3 1_555 1_555
O1 C13 1_555 1_555
O2 C13 1_555 1_555
O3 C20 1_555 1_555
O4 Cu2 1_555 1_555
O5 C26 1_555 1_555
O6 C6 1_555 1_555
N1 Cu1 1_555 1_555
N2 C1 1_555 1_555
N3 Cu2 1_555 1_555
N4 C21 1_555 1_555
C1 H1 1_555 1_555
C2 N1 1_555 1_555
H2 C2 1_555 1_555
C3 N1 1_555 1_555
H3 C3 1_555 1_555
C4 N2 1_555 1_555
H4 C4 1_555 1_555
H5 C4 1_555 1_555
C5 C4 1_555 1_555
H6 C5 1_555 1_555
H7 C5 1_555 1_555
C6 C5 1_555 1_555
C7 C6 1_555 1_555
C8 C7 1_555 1_555
H8 C8 1_555 1_555
C9 C8 1_555 1_555
H9 C9 1_555 1_555
C10 C9 1_555 1_555
H10 C10 1_555 1_555
C11 C10 1_555 1_555
H11 C11 1_555 1_555
C12 C7 1_555 1_555
H12 C12 1_555 1_555
C13 C14 1_555 1_555
C14 C15 1_555 1_555
C15 H13 1_555 1_555
C16 C15 1_555 1_555
H14 C16 1_555 1_555
C17 C16 1_555 1_555
H15 C17 1_555 1_555
C18 C17 1_555 1_555
H16 C18 1_555 1_555
C19 C14 1_555 1_555
C20 O4 1_555 1_555
C21 H17 1_555 1_555
C22 N3 1_555 1_555
H18 C22 1_555 1_555
C23 N3 1_555 1_555
H19 C23 1_555 1_555
C24 N4 1_555 1_555
H20 C24 1_555 1_555
H21 C24 1_555 1_555
C25 C24 1_555 1_555
H22 C25 1_555 1_555
H23 C25 1_555 1_555
C26 C25 1_555 1_555
C27 C26 1_555 1_555
C28 C27 1_555 1_555
H24 C28 1_555 1_555
C29 C28 1_555 1_555
H25 C29 1_555 1_555
C30 C29 1_555 1_555
H26 C30 1_555 1_555
C31 C30 1_555 1_555
H27 C31 1_555 1_555
C32 C27 1_555 1_555
H28 C32 1_555 1_555
O7 Cu1 1_555 1_555
H29 O7 1_555 1_555
H30 O7 1_555 1_555
Cu2_2 O3A 1_555 1_555
O1A Cu1 1_555 1_555
O2A C13A 1_555 1_555
O3A C20A 1_555 1_555
O3A_2 Cu2 1_555 1_555
O4A Cu2_2 1_555 1_555
O4A_2 Cu2 1_555 1_555
O5A C26A 1_555 1_555
O6A C6A 1_555 1_555
N1A Cu1 1_555 1_555
N2A C1A 1_555 1_555
N3A Cu2 1_555 1_555
N4A C21A 1_555 1_555
C1A H1A 1_555 1_555
C2A N1A 1_555 1_555
H2A C2A 1_555 1_555
C3A N1A 1_555 1_555
H3A C3A 1_555 1_555
C4A N2A 1_555 1_555
H4A C4A 1_555 1_555
H5A C4A 1_555 1_555
C5A C4A 1_555 1_555
H6A C5A 1_555 1_555
H7A C5A 1_555 1_555
C6A C5A 1_555 1_555
C7A C6A 1_555 1_555
C8A C7A 1_555 1_555
H8A C8A 1_555 1_555
C9A C8A 1_555 1_555
H9A C9A 1_555 1_555
C10A C9A 1_555 1_555
H10A C10A 1_555 1_555
C11A C10A 1_555 1_555
H11A C11A 1_555 1_555
C12A C7A 1_555 1_555
H12A C12A 1_555 1_555
C13A O1A 1_555 1_555
C14A C13A 1_555 1_555
C15A C14A 1_555 1_555
H13A C15A 1_555 1_555
C16A C15A 1_555 1_555
H14A C16A 1_555 1_555
C17A C16A 1_555 1_555
H15A C17A 1_555 1_555
C18A C17A 1_555 1_555
H16A C18A 1_555 1_555
C19A C14A 1_555 1_555
C20A O4A 1_555 1_555
C21A H17A 1_555 1_555
C22A N3A 1_555 1_555
H18A C22A 1_555 1_555
C23A N3A 1_555 1_555
H19A C23A 1_555 1_555
C24A N4A 1_555 1_555
H20A C24A 1_555 1_555
H21A C24A 1_555 1_555
C25A C24A 1_555 1_555
H22A C25A 1_555 1_555
H23A C25A 1_555 1_555
C26A C25A 1_555 1_555
C27A C26A 1_555 1_555
C28A C27A 1_555 1_555
H24A C28A 1_555 1_555
C29A C28A 1_555 1_555
H25A C29A 1_555 1_555
C30A C29A 1_555 1_555
H26A C30A 1_555 1_555
C31A C30A 1_555 1_555
H27A C31A 1_555 1_555
C32A C27A 1_555 1_555
H28A C32A 1_555 1_555
O7A Cu1 1_555 1_555
H29A O7A 1_555 1_555
H30A O7A 1_555 1_555
N2 C3 1_555 1_555
N4 C23 1_555 1_555
C1 C2 1_555 1_555
C11 C12 1_555 1_555
C18 C19 1_555 1_555
C19 C20 1_555 1_555
C21 C22 1_555 1_555
C31 C32 1_555 1_555
N2A C3A 1_555 1_555
N4A C23A 1_555 1_555
C1A C2A 1_555 1_555
C11A C12A 1_555 1_555
C18A C19A 1_555 1_555
C19A C20A 1_555 1_555
C21A C22A 1_555 1_555
C31A C32A 1_555 1_555

#END
