
#######################################################################
#
#                 Cambridge Crystallographic Data Centre
#                                CCDC 
#
#######################################################################
#
# If this CIF has been generated from an entry in the Cambridge 
# Structural Database, then it will include bibliographic, chemical, 
# crystal, experimental, refinement or atomic coordinate data resulting 
# from the CCDC's data processing and validation procedures.
#
#######################################################################

data_ICEPIR
_symmetry_cell_setting           rhombohedral
_symmetry_space_group_name_H-M   'R -3'
_symmetry_Int_Tables_number      148
_space_group_name_Hall           '-R 3'
loop_
_symmetry_equiv_pos_site_id
_symmetry_equiv_pos_as_xyz
1 x,y,z
2 -y,x-y,z
3 -x+y,-x,z
4 2/3+x,1/3+y,1/3+z
5 2/3-y,1/3+x-y,1/3+z
6 2/3-x+y,1/3-x,1/3+z
7 1/3+x,2/3+y,2/3+z
8 1/3-y,2/3+x-y,2/3+z
9 1/3-x+y,2/3-x,2/3+z
10 -x,-y,-z
11 y,-x+y,-z
12 x-y,x,-z
13 1/3-x,2/3-y,2/3-z
14 1/3+y,2/3-x+y,2/3-z
15 1/3+x-y,2/3+x,2/3-z
16 2/3-x,1/3-y,1/3-z
17 2/3+y,1/3-x+y,1/3-z
18 2/3+x-y,1/3+x,1/3-z
_cell_length_a                   11.3427(3)
_cell_length_b                   11.3427(3)
_cell_length_c                   41.5662(18)
_cell_angle_alpha                90
_cell_angle_beta                 90
_cell_angle_gamma                120
_cell_volume                     4631.31
loop_
_atom_site_label
_atom_site_type_symbol
_atom_site_fract_x
_atom_site_fract_y
_atom_site_fract_z
O5 O 0.0690(9) 0.3465(10) 0.0918(3)
H6 H -0.0147 0.3063 0.0867
H7 H 0.0777 0.2804 0.0985
N1 N 0.3333 0.6667 0.09735(17)
C9 C 0.3333 0.6667 0.0639(2)
C10 C 0.4648(13) 0.693(2) 0.1113(4)
H11 H 0.5319 0.7875 0.1083
H12 H 0.4943 0.6373 0.1007
H13 H 0.4535 0.6725 0.1338
C10A C 0.307(2) 0.7718(24) 0.1113(4)
C10B C 0.2282(24) 0.5352(13) 0.1113(4)
H11A H 0.2125 0.7444 0.1083
H11B H 0.2556 0.4681 0.1083
H12A H 0.3627 0.8570 0.1007
H12B H 0.1430 0.5057 0.1007
H13A H 0.3275 0.7810 0.1338
H13B H 0.2190 0.5465 0.1338
Mg1 Mg 0.0000 0.0000 0.12817(2)
Mg2 Mg 0.3333 0.1667 0.1667
O1 O 0.14996(13) 0.14172(13) 0.09903(3)
O2 O 0.35563(14) 0.20351(17) 0.11866(3)
O3 O 0.14374(11) -0.01467(11) 0.15907(3)
O4 O 0.03971(14) -0.23470(13) 0.17228(4)
C1 C 0.27659(19) 0.20268(19) 0.09757(4)
C2 C 0.3424(2) 0.2864(2) 0.06769(4)
C3 C 0.2666(2) 0.2826(3) 0.04158(5)
H1 H 0.1729 0.2242 0.0416
C4 C 0.3286(2) 0.3650(3) 0.01507(5)
H2 H 0.2754 0.3604 -0.0024
C5 C 0.4669(2) 0.4536(2) 0.01406(5)
C6 C 0.5427(2) 0.4549(4) 0.04021(6)
H3 H 0.6365 0.5128 0.0401
C7 C 0.4816(2) 0.3715(3) 0.06662(6)
H4 H 0.5350 0.3730 0.0838
C8 C 0.13496(19) -0.11739(19) 0.17270(5)
H5 H 0.2105 -0.1026 0.1847
Mg1I Mg 1.0000 1.0000 -0.12817(2)
Mg1I_2 Mg -1.0000 0.0000 -0.12817(2)
Mg1I_3 Mg 0.0000 -1.0000 -0.12817(2)
Mg1O Mg 0.6667 0.3333 0.20516(2)
Mg2I Mg 0.6667 0.8333 -0.1667
Mg2A Mg -0.1667 0.1666 0.1667
Mg2J Mg -0.8333 -0.1666 -0.1667
Mg2B Mg -0.1666 -0.3333 0.1667
Mg2K Mg 0.1666 -0.6667 -0.1667
Mg2Q Mg 0.8333 0.6666 0.1666
Mg2P Mg 0.8334 0.1667 0.1666
Mg2K_2 Mg 1.1666 1.3333 -0.1667
O1I O 0.85004(13) 0.85828(13) -0.09903(3)
O1A O -0.14172(13) 0.00824(18) 0.09903(3)
O1J O -0.85828(13) -0.00824(18) -0.09903(3)
O1B O -0.00824(18) -0.14996(13) 0.09903(3)
O1K O 0.00824(18) -0.85004(13) -0.09903(3)
O1J_2 O 1.14172(13) 0.99176(18) -0.09903(3)
O1K_2 O 1.00824(18) 1.14996(13) -0.09903(3)
O2I O 0.64437(14) 0.79649(17) -0.11866(3)
O2A O -0.20351(17) 0.15212(22) 0.11866(3)
O2J O -0.79649(17) -0.15212(22) -0.11866(3)
O2B O -0.15212(22) -0.35563(14) 0.11866(3)
O2K O 0.15212(22) -0.64437(14) -0.11866(3)
O2O O 0.31104(14) 0.12982(17) 0.21467(3)
O2F O 0.68896(14) 0.87018(17) -0.21467(3)
O2P O -0.12982(17) 0.18121(22) 0.21467(3)
O2G O -0.87018(17) -0.18121(22) -0.21467(3)
O2Q O -0.18121(22) -0.31104(14) 0.21467(3)
O2H O 0.18121(22) -0.68896(14) -0.21467(3)
O3A O 0.01467(11) 0.15841(16) 0.15907(3)
O3B O -0.15841(16) -0.14374(11) 0.15907(3)
O3O O 0.52293(11) 0.34800(11) 0.17426(3)
O3P O 0.65200(11) 0.17492(16) 0.17426(3)
O3I O 0.85626(11) 1.01467(11) -0.15907(3)
O3J O 0.98533(11) 0.84159(16) -0.15907(3)
O3K O 1.15841(16) 1.14374(11) -0.15907(3)
O3F O 0.47707(11) 0.65200(11) -0.17426(3)
O3P_2 O -0.34800(11) 0.17492(16) 0.17426(3)
O3J_2 O -1.01467(11) -0.15841(16) -0.15907(3)
O3G O -0.65200(11) -0.17492(16) -0.17426(3)
O3Q O -0.17492(16) -0.52293(11) 0.17426(3)
O3K_2 O 0.15841(16) -0.85626(11) -0.15907(3)
O3H O 0.17492(16) -0.47707(11) -0.17426(3)
O4A O 0.23470(13) 0.27441(19) 0.17228(4)
O4B O -0.27441(19) -0.03971(14) 0.17228(4)
O4O O 0.62696(14) 0.56803(13) 0.16105(4)
O4P O 0.43197(13) 0.05892(19) 0.16105(4)
O4I O 0.96029(14) 1.23470(13) -0.17228(4)
O4J O 0.76530(13) 0.72559(19) -0.17228(4)
O4G O 0.56803(13) 0.94108(19) -0.16105(4)
O4Q O -0.05892(19) 0.37304(14) 0.16105(4)
O4K O -0.72559(19) 0.03971(14) -0.17228(4)
O4H O -0.94108(19) -0.37304(14) -0.16105(4)
O4O_2 O -0.37304(14) -0.43197(13) 0.16105(4)
O4I_2 O -0.03971(14) -0.76530(13) -0.17228(4)
O4F O 0.37304(14) -0.56803(13) -0.16105(4)
C1I C 0.72341(19) 0.79732(19) -0.09757(4)
C1A C -0.20268(19) 0.07391(27) 0.09757(4)
C1J C -0.79732(19) -0.07391(27) -0.09757(4)
C1B C -0.07391(27) -0.27659(19) 0.09757(4)
C1K C 0.07391(27) -0.72341(19) -0.09757(4)
C2I C 0.6576(2) 0.7136(2) -0.06769(4)
C2A C -0.2864(2) 0.0560(3) 0.06769(4)
C2J C -0.7136(2) -0.0560(3) -0.06769(4)
C2B C -0.0560(3) -0.3424(2) 0.06769(4)
C2K C 0.0560(3) -0.6576(2) -0.06769(4)
C3I C 0.7334(2) 0.7174(3) -0.04158(5)
C3A C -0.2826(3) -0.0160(4) 0.04158(5)
C3J C -0.7174(3) 0.0160(4) -0.04158(5)
C3B C 0.0160(4) -0.2666(2) 0.04158(5)
C3K C -0.0160(4) -0.7334(2) -0.04158(5)
H1I H 0.8271 0.7758 -0.0416
H1A H -0.2242 -0.0513 0.0416
H1J H -0.7758 0.0513 -0.0416
H1B H 0.0513 -0.1729 0.0416
H1K H -0.0513 -0.8271 -0.0416
C4I C 0.6714(2) 0.6350(3) -0.01507(5)
C4A C -0.3650(3) -0.0364(4) 0.01507(5)
C4J C -0.6350(3) 0.0364(4) -0.01507(5)
C4B C 0.0364(4) -0.3286(2) 0.01507(5)
C4K C -0.0364(4) -0.6714(2) -0.01507(5)
H2I H 0.7246 0.6396 0.0024
H2A H -0.3604 -0.0850 -0.0024
H2J H -0.6396 0.0850 0.0024
H2B H 0.0850 -0.2754 -0.0024
H2K H -0.0850 -0.7246 0.0024
C5I C 0.5331(2) 0.5464(2) -0.01406(5)
C5A C -0.4536(2) 0.0133(3) 0.01406(5)
C5J C -0.5464(2) -0.0133(3) -0.01406(5)
C5B C -0.0133(3) -0.4669(2) 0.01406(5)
C5K C 0.0133(3) -0.5331(2) -0.01406(5)
C6I C 0.4573(2) 0.5451(4) -0.04021(6)
C6A C -0.4549(4) 0.0878(4) 0.04021(6)
C6J C -0.5451(4) -0.0878(4) -0.04021(6)
C6B C -0.0878(4) -0.5427(2) 0.04021(6)
C6K C 0.0878(4) -0.4573(2) -0.04021(6)
H3I H 0.3635 0.4872 -0.0401
H3A H -0.5128 0.1237 0.0401
H3J H -0.4872 -0.1237 -0.0401
H3B H -0.1237 -0.6365 0.0401
H3K H 0.1237 -0.3635 -0.0401
C7I C 0.5184(2) 0.6285(3) -0.06662(6)
C7A C -0.3715(3) 0.1101(4) 0.06662(6)
C7J C -0.6285(3) -0.1101(4) -0.06662(6)
C7B C -0.1101(4) -0.4816(2) 0.06662(6)
C7K C 0.1101(4) -0.5184(2) -0.06662(6)
H4I H 0.4650 0.6270 -0.0838
H4A H -0.3730 0.1620 0.0838
H4J H -0.6270 -0.1620 -0.0838
H4B H -0.1620 -0.5350 0.0838
H4K H 0.1620 -0.4650 -0.0838
C8A C 0.11739(19) 0.25235(27) 0.17270(5)
C8B C -0.25235(27) -0.13496(19) 0.17270(5)
C8O C 0.53171(19) 0.45072(19) 0.16063(5)
C8P C 0.54928(19) 0.08098(27) 0.16063(5)
C8I C 0.86504(19) 1.11739(19) -0.17270(5)
H5A H 0.1026 0.3131 0.1847
H5B H -0.3131 -0.2105 0.1847
H5O H 0.4562 0.4359 0.1486
H5P H 0.5641 0.0202 0.1486
H5I H 0.7895 1.1026 -0.1847
H8? H 0.2499 0.6589 0.0562
H9? H 0.3411 0.5910 0.0562
H10? H 0.4090 0.7501 0.0562
N2? N 0.3333 0.6667 0.09735(17)
H14? H 0.3028 0.5830 0.1054
H15? H 0.2843 0.7023 0.1054
C11? C 0.3333 0.6667 0.0639(2)
H16? H 0.3150 0.7357 0.0562
H17? H 0.2643 0.5793 0.0562
H18? H 0.4207 0.6850 0.0562
C12? C 0.4813(19) 0.761(6) 0.1033(14)
H19? H 0.5210 0.7113 0.1124
H20? H 0.4924 0.8314 0.1179
H21? H 0.5257 0.8013 0.0833
loop_
_geom_bond_atom_site_label_1
_geom_bond_atom_site_label_2
_geom_bond_site_symmetry_1
_geom_bond_site_symmetry_2
Mg1 O1 1_555 1_555
Mg2 O2 1_555 1_555
O1 C1 1_555 1_555
O2 C1 1_555 1_555
O3 Mg1 1_555 1_555
O4 C8 1_555 1_555
C1 C2 1_555 1_555
C2 C3 1_555 1_555
C3 H1 1_555 1_555
C4 C3 1_555 1_555
H2 C4 1_555 1_555
C5 C4 1_555 1_555
C6 C5 1_555 1_555
H3 C6 1_555 1_555
C7 C2 1_555 1_555
H4 C7 1_555 1_555
C8 O3 1_555 1_555
H5 C8 1_555 1_555
O5 H6 1_555 1_555
H7 O5 1_555 1_555
N1 C9 1_555 1_555
C10 N1 1_555 1_555
H11 C10 1_555 1_555
H12 C10 1_555 1_555
H13 C10 1_555 1_555
Mg1I O1I 1_555 1_555
Mg1I_2 O1J 1_555 1_555
Mg1I_3 O1K 1_555 1_555
Mg1O O3O 1_555 1_555
Mg2I O2I 1_555 1_555
Mg2A O2A 1_555 1_555
Mg2J O2J 1_555 1_555
Mg2B O4 1_555 1_555
Mg2K O2K 1_555 1_555
Mg2Q O4O 1_555 1_555
Mg2P O3P 1_555 1_555
Mg2K_2 O3K 1_555 1_555
O1I C1I 1_555 1_555
O1A Mg1 1_555 1_555
O1J C1J 1_555 1_555
O1B Mg1 1_555 1_555
O1K C1K 1_555 1_555
O1J_2 Mg1I 1_555 1_555
O1K_2 Mg1I 1_555 1_555
O2I C1I 1_555 1_555
O2A C1A 1_555 1_555
O2J C1J 1_555 1_555
O2B Mg2B 1_555 1_555
O2K C1K 1_555 1_555
O2O Mg2 1_555 1_555
O2F Mg2I 1_555 1_555
O2P Mg2A 1_555 1_555
O2G Mg2J 1_555 1_555
O2Q Mg2B 1_555 1_555
O2H Mg2K 1_555 1_555
O3A Mg1 1_555 1_555
O3B Mg1 1_555 1_555
O3O Mg2 1_555 1_555
O3P Mg1O 1_555 1_555
O3I Mg1I 1_555 1_555
O3J Mg1I 1_555 1_555
O3K Mg1I 1_555 1_555
O3F Mg2I 1_555 1_555
O3P_2 Mg2A 1_555 1_555
O3J_2 Mg1I_2 1_555 1_555
O3G Mg2J 1_555 1_555
O3Q Mg2B 1_555 1_555
O3K_2 Mg1I_3 1_555 1_555
O3H Mg2K 1_555 1_555
O4A Mg2 1_555 1_555
O4B Mg2A 1_555 1_555
O4O C8O 1_555 1_555
O4P Mg2 1_555 1_555
O4I Mg2K_2 1_555 1_555
O4J Mg2I 1_555 1_555
O4G Mg2I 1_555 1_555
O4Q Mg2A 1_555 1_555
O4K Mg2J 1_555 1_555
O4H Mg2J 1_555 1_555
O4O_2 Mg2B 1_555 1_555
O4I_2 Mg2K 1_555 1_555
O4F Mg2K 1_555 1_555
C1I C2I 1_555 1_555
C1A O1A 1_555 1_555
C1J C2J 1_555 1_555
C1B O1B 1_555 1_555
C1K C2K 1_555 1_555
C2I C3I 1_555 1_555
C2A C1A 1_555 1_555
C2J C3J 1_555 1_555
C2B C1B 1_555 1_555
C2K C3K 1_555 1_555
C3I H1I 1_555 1_555
C3A C2A 1_555 1_555
C3J H1J 1_555 1_555
C3B C2B 1_555 1_555
C3K H1K 1_555 1_555
H1A C3A 1_555 1_555
H1B C3B 1_555 1_555
C4I C3I 1_555 1_555
C4A C3A 1_555 1_555
C4J C3J 1_555 1_555
C4B C3B 1_555 1_555
C4K C3K 1_555 1_555
H2I C4I 1_555 1_555
H2A C4A 1_555 1_555
H2J C4J 1_555 1_555
H2B C4B 1_555 1_555
H2K C4K 1_555 1_555
C5I C5 1_555 1_555
C5A C4A 1_555 1_555
C5J C4J 1_555 1_555
C5B C4B 1_555 1_555
C5K C4K 1_555 1_555
C6I C5I 1_555 1_555
C6A C5A 1_555 1_555
C6J C5J 1_555 1_555
C6B C5B 1_555 1_555
C6K C5K 1_555 1_555
H3I C6I 1_555 1_555
H3A C6A 1_555 1_555
H3J C6J 1_555 1_555
H3B C6B 1_555 1_555
H3K C6K 1_555 1_555
C7I C2I 1_555 1_555
C7A C2A 1_555 1_555
C7J C2J 1_555 1_555
C7B C2B 1_555 1_555
C7K C2K 1_555 1_555
H4I C7I 1_555 1_555
H4A C7A 1_555 1_555
H4J C7J 1_555 1_555
H4B C7B 1_555 1_555
H4K C7K 1_555 1_555
C8A O3A 1_555 1_555
C8B O3B 1_555 1_555
C8O O3O 1_555 1_555
C8P O3P 1_555 1_555
C8I O3I 1_555 1_555
H5A C8A 1_555 1_555
H5B C8B 1_555 1_555
H5O C8O 1_555 1_555
H5P C8P 1_555 1_555
H5I C8I 1_555 1_555
C10A N1 1_555 1_555
C10B N1 1_555 1_555
H11A C10A 1_555 1_555
H11B C10B 1_555 1_555
H12A C10A 1_555 1_555
H12B C10B 1_555 1_555
H13A C10A 1_555 1_555
H13B C10B 1_555 1_555
Mg2 O3 1_555 1_555
C6 C7 1_555 1_555
Mg2I O3I 1_555 1_555
Mg2A O3A 1_555 1_555
Mg2J O3J_2 1_555 1_555
Mg2B O3B 1_555 1_555
Mg2K O3K_2 1_555 1_555
O2B C1B 1_555 1_555
O4A C8A 1_555 1_555
O4B C8B 1_555 1_555
O4P C8P 1_555 1_555
O4I C8I 1_555 1_555
C4I C5I 1_555 1_555
C5A C5J 1_555 1_555
C5B C5K 1_555 1_555
C6I C7I 1_555 1_555
C6A C7A 1_555 1_555
C6J C7J 1_555 1_555
C6B C7B 1_555 1_555
C6K C7K 1_555 1_555

#END
