
#######################################################################
#
#                 Cambridge Crystallographic Data Centre
#                                CCDC 
#
#######################################################################
#
# If this CIF has been generated from an entry in the Cambridge 
# Structural Database, then it will include bibliographic, chemical, 
# crystal, experimental, refinement or atomic coordinate data resulting 
# from the CCDC's data processing and validation procedures.
#
#######################################################################

data_ICEPEM
_symmetry_cell_setting           triclinic
_symmetry_space_group_name_H-M   'P -1'
_symmetry_Int_Tables_number      2
_space_group_name_Hall           '-P 1'
loop_
_symmetry_equiv_pos_site_id
_symmetry_equiv_pos_as_xyz
1 x,y,z
2 -x,-y,-z
_cell_length_a                   7.495(8)
_cell_length_b                   9.668(11)
_cell_length_c                   11.102(12)
_cell_angle_alpha                113.484(13)
_cell_angle_beta                 109.727(10)
_cell_angle_gamma                90.000(13)
_cell_volume                     686.053
loop_
_atom_site_label
_atom_site_type_symbol
_atom_site_fract_x
_atom_site_fract_y
_atom_site_fract_z
Ni1 Ni 0.5000 0.5000 0.0000
Ni2 Ni 1.12880(9) 0.35927(7) 0.28412(7)
C1 C 1.0507(8) 0.6611(6) 0.3405(6)
C2 C 0.8639(8) 0.5489(6) 0.2355(5)
C3 C 1.1593(9) 0.6987(7) 0.2611(6)
H1 H 1.2654 0.7795 0.3299
H2 H 1.0741 0.7400 0.2007
C4 C 1.2405(8) 0.5711(7) 0.1696(6)
C5 C 1.0029(8) 0.8087(6) 0.4374(6)
H3 H 1.1214 0.8769 0.5045
H4 H 0.9299 0.8590 0.3808
C6 C 0.8881(8) 0.7809(6) 0.5183(6)
C7 C 0.9194(9) 0.1209(7) -0.0051(6)
H5 H 0.8592 0.2026 -0.0133
C8 C 0.8660(9) -0.0207(7) -0.1222(6)
H6 H 0.7712 -0.0302 -0.2060
N1 N 1.0543(7) 0.1419(5) 0.1179(5)
O1 O 1.1697(5) 0.5894(4) 0.4223(4)
O2 O 0.8616(5) 0.4102(4) 0.2109(4)
O3 O 0.7306(6) 0.6061(5) 0.1809(4)
O4 O 1.2180(6) 0.4366(5) 0.1620(5)
O5 O 1.3246(6) 0.6091(5) 0.1059(4)
O6 O 0.9596(6) 0.6996(5) 0.5840(4)
O7 O 0.7413(7) 0.8381(6) 0.5203(5)
O8 O 0.4619(7) 0.3035(5) 0.0294(5)
O9 O 1.4042(6) 0.3370(6) 0.3819(5)
H7 H 1.08(2) 0.607(16) 0.496(15)
N1A N 0.9457(7) -0.1419(5) -0.1179(5)
C7A C 1.0806(9) -0.1209(7) 0.0051(6)
H5A H 1.1408 -0.2026 0.0133
C8A C 1.1340(9) 0.0207(7) 0.1222(6)
H6A H 1.2288 0.0302 0.2060
C1A C -0.0507(8) 0.3389(6) -0.3405(6)
C2A C 0.1361(8) 0.4511(6) -0.2355(5)
C3A C -0.1593(9) 0.3013(7) -0.2611(6)
H1A H -0.2654 0.2205 -0.3299
H2A H -0.0741 0.2600 -0.2007
C4A C -0.2405(8) 0.4289(7) -0.1696(6)
C5A C -0.0029(8) 0.1913(6) -0.4374(6)
H3A H -0.1214 0.1231 -0.5045
H4A H 0.0701 0.1410 -0.3808
C6A C 0.1119(8) 0.2191(6) -0.5183(6)
O1A O -0.1697(5) 0.4106(4) -0.4223(4)
O2A O 0.1384(5) 0.5898(4) -0.2109(4)
O3A O 0.2694(6) 0.3939(5) -0.1809(4)
O4A O -0.2180(6) 0.5634(5) -0.1620(5)
O5A O -0.3246(6) 0.3909(5) -0.1059(4)
O6A O 0.0404(6) 0.3004(5) -0.5840(4)
O7A O 0.2587(7) 0.1619(6) -0.5203(5)
H7A H -0.08(2) 0.393(16) -0.496(15)
O8A O 0.5381(7) 0.6965(5) -0.0294(5)
Ni2A Ni -0.12880(9) 0.64073(7) -0.28412(7)
O9A O -0.4042(6) 0.6630(6) -0.3819(5)
O5_2 O 0.3246(6) 0.6091(5) 0.1059(4)
O5A_2 O 0.6754(6) 0.3909(5) -0.1059(4)
O6A_2 O 1.0404(6) 0.3004(5) 0.4160(4)
Ni1_2 Ni 1.5000 0.5000 0.0000
Ni2A_2 Ni 0.87120(9) 0.64073(7) 0.71588(7)
Ni2A_3 Ni 0.87120(9) -0.35927(7) -0.28412(7)
Ni1_3 Ni -0.5000 0.5000 0.0000
Ni2_2 Ni 0.12880(9) 0.35927(7) -0.71588(7)
N1A_2 N -0.0543(7) 0.8581(5) -0.1179(5)
O6_2 O -0.0404(6) 0.6996(5) -0.4160(4)
O10 O 0.6222(12) 0.1746(11) 0.2327(10)
O11 O 0.4318(10) 0.0744(7) 0.7134(8)
loop_
_geom_bond_atom_site_label_1
_geom_bond_atom_site_label_2
_geom_bond_site_symmetry_1
_geom_bond_site_symmetry_2
Ni1 O3 1_555 1_555
Ni2 N1 1_555 1_555
C1 C2 1_555 1_555
C2 O2 1_555 1_555
C3 C1 1_555 1_555
H1 C3 1_555 1_555
H2 C3 1_555 1_555
C4 C3 1_555 1_555
C5 C1 1_555 1_555
H3 C5 1_555 1_555
H4 C5 1_555 1_555
C6 C5 1_555 1_555
C7 H5 1_555 1_555
C8 C7 1_555 1_555
H6 C8 1_555 1_555
N1 C7 1_555 1_555
O1 Ni2 1_555 1_555
O2 Ni2 1_555 1_555
O3 C2 1_555 1_555
O4 Ni2 1_555 1_555
O5 C4 1_555 1_555
O6 C6 1_555 1_555
O7 C6 1_555 1_555
O8 Ni1 1_555 1_555
O9 Ni2 1_555 1_555
H7 O1 1_555 1_555
N1A C8 1_555 1_555
C7A N1A 1_555 1_555
H5A C7A 1_555 1_555
C8A N1 1_555 1_555
H6A C8A 1_555 1_555
C1A C2A 1_555 1_555
C2A O2A 1_555 1_555
C3A C1A 1_555 1_555
H1A C3A 1_555 1_555
H2A C3A 1_555 1_555
C4A C3A 1_555 1_555
C5A C1A 1_555 1_555
H3A C5A 1_555 1_555
H4A C5A 1_555 1_555
C6A C5A 1_555 1_555
O1A C1A 1_555 1_555
O2A Ni2A 1_555 1_555
O3A Ni1 1_555 1_555
O4A C4A 1_555 1_555
O5A C4A 1_555 1_555
O6A C6A 1_555 1_555
O7A C6A 1_555 1_555
H7A O1A 1_555 1_555
O8A Ni1 1_555 1_555
Ni2A O1A 1_555 1_555
O9A Ni2A 1_555 1_555
O5_2 Ni1 1_555 1_555
O5A_2 Ni1 1_555 1_555
O6A_2 Ni2 1_555 1_555
Ni1_2 O5 1_555 1_555
Ni2A_2 O6 1_555 1_555
Ni2A_3 N1A 1_555 1_555
Ni1_3 O5A 1_555 1_555
Ni2_2 O6A 1_555 1_555
N1A_2 Ni2A 1_555 1_555
O6_2 Ni2A 1_555 1_555
C1 O1 1_555 1_555
C4 O4 1_555 1_555
C7A C8A 1_555 1_555
C2A O3A 1_555 1_555
O4A Ni2A 1_555 1_555

#END
