
#######################################################################
#
#                 Cambridge Crystallographic Data Centre
#                                CCDC 
#
#######################################################################
#
# If this CIF has been generated from an entry in the Cambridge 
# Structural Database, then it will include bibliographic, chemical, 
# crystal, experimental, refinement or atomic coordinate data resulting 
# from the CCDC's data processing and validation procedures.
#
#######################################################################

data_ICEQUE
_symmetry_cell_setting           monoclinic
_symmetry_space_group_name_H-M   'C 2/c'
_symmetry_Int_Tables_number      15
_space_group_name_Hall           '-C 2yn'
loop_
_symmetry_equiv_pos_site_id
_symmetry_equiv_pos_as_xyz
1 x,y,z
2 -x,y,1/2-z
3 1/2+x,1/2+y,z
4 1/2-x,1/2+y,1/2-z
5 -x,-y,-z
6 x,-y,1/2+z
7 1/2-x,1/2-y,-z
8 1/2+x,1/2-y,1/2+z
_cell_length_a                   35.840(5)
_cell_length_b                   8.169(5)
_cell_length_c                   14.980(5)
_cell_angle_alpha                90
_cell_angle_beta                 104.466(5)
_cell_angle_gamma                90
_cell_volume                     4246.75
loop_
_atom_site_label
_atom_site_type_symbol
_atom_site_fract_x
_atom_site_fract_y
_atom_site_fract_z
I1 I 0.84583(2) 1.29633(9) 0.87186(6)
I2 I 0.75368(2) 1.00168(9) 1.03135(6)
Hg1 Hg 0.802444(13) 1.09101(5) 0.93694(3)
Hg2 Hg 1.0000 -0.33679(7) 1.2500
N1 N 0.8549(3) 0.8753(10) 1.0025(7)
C1 C 0.8484(3) 0.7518(13) 1.0503(9)
N2 N 0.8763(2) 0.6368(10) 1.0603(7)
I3 I 0.95157(3) -0.43189(13) 1.34525(8)
N3 N 0.9687(3) -0.0965(11) 1.1647(7)
C2 C 0.8781(3) 0.4851(11) 1.1045(7)
N4 N 0.7916(3) 0.1030(10) 1.3009(7)
N5 N 0.9079(2) 0.3884(10) 1.1014(6)
N6 N 0.8494(2) 0.4532(10) 1.1416(6)
N7 N 0.8787(2) 0.1919(10) 1.1827(6)
C3 C 0.7916(3) 0.3489(13) 1.2328(7)
H1 H 0.7851 0.4550 1.2123
C4 C 0.7729(3) 0.2528(14) 1.2792(8)
H2 H 0.7503 0.2819 1.2950
C5 C 0.8874(3) 0.8382(15) 0.9743(9)
H3 H 0.8983 0.9050 0.9373
C6 C 0.8212(3) 0.1139(13) 1.2661(9)
H4 H 0.8396 0.0316 1.2711
C7 C 0.9018(3) 0.6877(13) 1.0085(9)
H5 H 0.9233 0.6331 0.9993
C8 C 0.8516(3) 0.3053(12) 1.1800(7)
N8 N 0.8227(2) 0.2584(10) 1.2215(6)
C9 C 0.9058(3) 0.2446(13) 1.1405(8)
N9 N 0.9350(2) 0.1306(10) 1.1388(7)
C10 C 0.9651(3) 0.1510(15) 1.0981(9)
H6 H 0.9704 0.2425 1.0665
C11 C 0.9389(3) -0.0205(13) 1.1769(8)
H7 H 0.9220 -0.0646 1.2084
C12 C 0.9854(4) 0.0101(17) 1.1138(10)
H8 H 1.0073 -0.0123 1.0934
H9 H 0.8273 0.7422 1.0753
I1A I 1.15417(2) 1.29633(9) 1.62814(6)
I2A I 1.24632(2) 1.00168(9) 1.46865(6)
Hg1A Hg 1.197556(13) 1.09101(5) 1.56306(3)
Hg1E Hg 0.802444(13) -0.09101(5) 1.43694(3)
Hg1D Hg 1.197556(13) -0.09101(5) 1.06306(3)
N1A N 1.1451(3) 0.8753(10) 1.4975(7)
C1A C 1.1516(3) 0.7518(13) 1.4497(9)
N2A N 1.1237(2) 0.6368(10) 1.4397(7)
I3A I 1.04843(3) -0.43189(13) 1.15475(8)
N3A N 1.0313(3) -0.0965(11) 1.3353(7)
C2A C 1.1219(3) 0.4851(11) 1.3955(7)
N4A N 1.2084(3) 0.1030(10) 1.1991(7)
N4E N 0.7916(3) 0.8970(10) 0.8009(7)
N4D N 1.2084(3) 0.8970(10) 1.6991(7)
N5A N 1.0921(2) 0.3884(10) 1.3986(6)
N6A N 1.1506(2) 0.4532(10) 1.3584(6)
N7A N 1.1213(2) 0.1919(10) 1.3173(6)
C3A C 1.2084(3) 0.3489(13) 1.2672(7)
H1A H 1.2149 0.4550 1.2877
C4A C 1.2271(3) 0.2528(14) 1.2208(8)
H2A H 1.2497 0.2819 1.2050
C5A C 1.1126(3) 0.8382(15) 1.5257(9)
H3A H 1.1017 0.9050 1.5627
C6A C 1.1788(3) 0.1139(13) 1.2339(9)
H4A H 1.1604 0.0316 1.2289
C7A C 1.0982(3) 0.6877(13) 1.4915(9)
H5A H 1.0767 0.6331 1.5007
C8A C 1.1484(3) 0.3053(12) 1.3200(7)
N8A N 1.1773(2) 0.2584(10) 1.2785(6)
C9A C 1.0942(3) 0.2446(13) 1.3595(8)
N9A N 1.0650(2) 0.1306(10) 1.3612(7)
C10A C 1.0349(3) 0.1510(15) 1.4019(9)
H6A H 1.0296 0.2425 1.4335
C11A C 1.0611(3) -0.0205(13) 1.3231(8)
H7A H 1.0780 -0.0646 1.2916
C12A C 1.0146(4) 0.0101(17) 1.3862(10)
H8A H 0.9927 -0.0123 1.4066
H9A H 1.1727 0.7422 1.4247
loop_
_geom_bond_atom_site_label_1
_geom_bond_atom_site_label_2
_geom_bond_site_symmetry_1
_geom_bond_site_symmetry_2
I1 Hg1 1_555 1_555
I2 Hg1 1_555 1_555
Hg1 N1 1_555 1_555
Hg2 I3 1_555 1_555
N1 C1 1_555 1_555
C1 N2 1_555 1_555
N2 C2 1_555 1_555
N3 Hg2 1_555 1_555
C2 N5 1_555 1_555
N4 C4 1_555 1_555
N5 C9 1_555 1_555
N6 C2 1_555 1_555
N7 C8 1_555 1_555
C3 H1 1_555 1_555
C4 C3 1_555 1_555
H2 C4 1_555 1_555
C5 N1 1_555 1_555
H3 C5 1_555 1_555
C6 N4 1_555 1_555
H4 C6 1_555 1_555
C7 N2 1_555 1_555
H5 C7 1_555 1_555
C8 N6 1_555 1_555
N8 C3 1_555 1_555
C9 N7 1_555 1_555
N9 C9 1_555 1_555
C10 N9 1_555 1_555
H6 C10 1_555 1_555
C11 N3 1_555 1_555
H7 C11 1_555 1_555
C12 N3 1_555 1_555
H8 C12 1_555 1_555
H9 C1 1_555 1_555
I1A Hg1A 1_555 1_555
I2A Hg1A 1_555 1_555
Hg1A N1A 1_555 1_555
Hg1E N4 1_555 1_555
Hg1D N4A 1_555 1_555
N1A C1A 1_555 1_555
C1A N2A 1_555 1_555
N2A C2A 1_555 1_555
I3A Hg2 1_555 1_555
N3A Hg2 1_555 1_555
C2A N5A 1_555 1_555
N4A C4A 1_555 1_555
N4E Hg1 1_555 1_555
N4D Hg1A 1_555 1_555
N5A C9A 1_555 1_555
N6A C2A 1_555 1_555
N7A C8A 1_555 1_555
C3A H1A 1_555 1_555
C4A C3A 1_555 1_555
H2A C4A 1_555 1_555
C5A N1A 1_555 1_555
H3A C5A 1_555 1_555
C6A N4A 1_555 1_555
H4A C6A 1_555 1_555
C7A N2A 1_555 1_555
H5A C7A 1_555 1_555
C8A N6A 1_555 1_555
N8A C3A 1_555 1_555
C9A N7A 1_555 1_555
N9A C9A 1_555 1_555
C10A N9A 1_555 1_555
H6A C10A 1_555 1_555
C11A N3A 1_555 1_555
H7A C11A 1_555 1_555
C12A N3A 1_555 1_555
H8A C12A 1_555 1_555
H9A C1A 1_555 1_555
C5 C7 1_555 1_555
C6 N8 1_555 1_555
C8 N8 1_555 1_555
N9 C11 1_555 1_555
C10 C12 1_555 1_555
C5A C7A 1_555 1_555
C6A N8A 1_555 1_555
C8A N8A 1_555 1_555
N9A C11A 1_555 1_555
C10A C12A 1_555 1_555

#END
