
#######################################################################
#
#                 Cambridge Crystallographic Data Centre
#                                CCDC 
#
#######################################################################
#
# If this CIF has been generated from an entry in the Cambridge 
# Structural Database, then it will include bibliographic, chemical, 
# crystal, experimental, refinement or atomic coordinate data resulting 
# from the CCDC's data processing and validation procedures.
#
#######################################################################

data_ICEROZ
_symmetry_cell_setting           monoclinic
_symmetry_space_group_name_H-M   'P 21/c'
_symmetry_Int_Tables_number      14
_space_group_name_Hall           '-P 2ybc'
loop_
_symmetry_equiv_pos_site_id
_symmetry_equiv_pos_as_xyz
1 x,y,z
2 -x,1/2+y,1/2-z
3 -x,-y,-z
4 x,1/2-y,1/2+z
_cell_length_a                   14.900(7)
_cell_length_b                   15.029(7)
_cell_length_c                   12.308(6)
_cell_angle_alpha                90
_cell_angle_beta                 102.519(9)
_cell_angle_gamma                90
_cell_volume                     2690.63
loop_
_atom_site_label
_atom_site_type_symbol
_atom_site_fract_x
_atom_site_fract_y
_atom_site_fract_z
Cu1 Cu 0.60361(3) 0.98111(3) 0.42972(4)
Cu2 Cu 0.5000 0.5000 0.5000
C1 C 0.6755(3) 0.8972(3) 0.2414(3)
H1 H 0.7272 0.9328 0.2643
C2 C 0.6713(3) 0.8416(3) 0.1512(4)
H2 H 0.7198 0.8392 0.1147
C3 C 0.5949(4) 0.7901(3) 0.1164(4)
H3 H 0.5911 0.7515 0.0565
C4 C 0.5242(3) 0.7961(2) 0.1708(3)
H4 H 0.4708 0.7629 0.1472
C5 C 0.5335(3) 0.8524(2) 0.2614(3)
C6 C 0.4638(3) 0.8653(2) 0.3267(3)
C7 C 0.3779(3) 0.8297(3) 0.3226(4)
H5 H 0.3481 0.7850 0.2762
C8 C 0.3464(3) 0.8760(3) 0.4036(4)
H6 H 0.2895 0.8668 0.4213
C9 C 0.7753(3) 0.9360(3) 0.5288(3)
C10 C 0.8783(3) 0.9434(3) 0.5737(3)
C11 C 0.9111(3) 1.0253(3) 0.6176(3)
H7 H 0.8713 1.0737 0.6096
C12 C 1.0011(3) 1.0363(3) 0.6728(3)
H8 H 1.0223 1.0914 0.7017
C13 C 1.0587(3) 0.9647(3) 0.6842(3)
H9 H 1.1189 0.9704 0.7245
C14 C 1.0287(3) 0.8836(3) 0.6365(3)
H10 H 1.0699 0.8366 0.6417
C15 C 0.9378(3) 0.8714(3) 0.5810(3)
C16 C 0.9104(3) 0.7864(3) 0.5248(3)
C17 C 0.8609(3) 0.7842(3) 0.4161(3)
H11 H 0.8444 0.8377 0.3791
C18 C 0.8352(3) 0.7061(3) 0.3609(3)
H12 H 0.8014 0.7076 0.2879
C19 C 0.8585(3) 0.6252(3) 0.4121(3)
C20 C 0.9112(3) 0.6268(3) 0.5201(4)
H13 H 0.9300 0.5735 0.5562
C21 C 0.9362(3) 0.7058(3) 0.5745(3)
H14 H 0.9713 0.7047 0.6468
C22 C 0.8220(3) 0.5406(2) 0.3549(3)
H15 H 0.8286 0.5421 0.2782
H16 H 0.8573 0.4906 0.3914
C23 C 0.6518(3) 0.5685(2) 0.2851(3)
H17 H 0.6542 0.5982 0.2195
C24 C 0.6922(3) 0.4921(2) 0.4430(3)
C25 C 0.7499(3) 0.4371(2) 0.5325(3)
H18 H 0.7193 0.4327 0.5943
H19 H 0.8082 0.4671 0.5593
C26 C 0.7684(3) 0.3435(3) 0.4945(4)
H20 H 0.7118 0.3095 0.4821
H21 H 0.7875 0.3474 0.4242
C27 C 0.8414(3) 0.2951(3) 0.5777(4)
H22 H 0.8980 0.3277 0.5889
H23 H 0.8502 0.2368 0.5500
H24 H 0.8223 0.2900 0.6471
C28 C 0.5770(3) 0.5559(2) 0.3286(3)
C29 C 0.4785(3) 0.5803(2) 0.2965(4)
N1 N 0.4812(2) 0.92871(18) 0.4055(2)
N2 N 0.4080(2) 0.93568(19) 0.4535(2)
N3 N 0.6083(2) 0.90172(19) 0.2970(3)
N4 N 0.7240(2) 0.52854(19) 0.3576(3)
N5 N 0.6031(2) 0.50796(18) 0.4269(2)
O1 O 0.44471(18) 0.60939(16) 0.2033(2)
O2 O 0.43480(17) 0.56572(16) 0.3735(2)
O3 O 0.73248(17) 0.87626(17) 0.5635(2)
O4 O 0.73835(17) 0.99664(16) 0.4610(2)
Cu1B Cu 0.39639(3) 0.01889(3) 0.57028(4)
Cu1B_2 Cu 0.39639(3) 1.01889(3) 0.57028(4)
C1B C 0.3245(3) 1.1028(3) 0.7586(3)
H1B H 0.2728 1.0672 0.7357
C2B C 0.3287(3) 1.1584(3) 0.8488(4)
H2B H 0.2802 1.1608 0.8853
C3B C 0.4051(4) 1.2099(3) 0.8836(4)
H3B H 0.4089 1.2485 0.9435
C4B C 0.4758(3) 1.2039(2) 0.8292(3)
H4B H 0.5292 1.2371 0.8528
C5B C 0.4665(3) 1.1476(2) 0.7386(3)
C6B C 0.5362(3) 1.1347(2) 0.6733(3)
C7B C 0.6221(3) 1.1703(3) 0.6774(4)
H5B H 0.6519 1.2150 0.7238
C8B C 0.6536(3) 1.1240(3) 0.5964(4)
H6B H 0.7105 1.1332 0.5787
C9B C 0.2247(3) 0.0640(3) 0.4712(3)
C10B C 0.1217(3) 0.0566(3) 0.4263(3)
C11B C 0.0889(3) -0.0253(3) 0.3824(3)
H7B H 0.1287 -0.0737 0.3904
C12B C -0.0011(3) -0.0363(3) 0.3272(3)
H8B H -0.0223 -0.0914 0.2983
C13B C -0.0587(3) 0.0353(3) 0.3158(3)
H9B H -0.1189 0.0296 0.2755
C14B C -0.0287(3) 0.1164(3) 0.3635(3)
H10B H -0.0699 0.1634 0.3583
C15B C 0.0622(3) 0.1286(3) 0.4190(3)
C16B C 0.0896(3) 0.2136(3) 0.4752(3)
C17B C 0.1391(3) 0.2158(3) 0.5839(3)
H11B H 0.1556 0.1623 0.6209
C18B C 0.1648(3) 0.2939(3) 0.6391(3)
H12B H 0.1986 0.2924 0.7121
C19B C 0.1415(3) 0.3748(3) 0.5879(3)
C20B C 0.0888(3) 0.3732(3) 0.4799(4)
H13B H 0.0700 0.4265 0.4438
C21B C 0.0638(3) 0.2942(3) 0.4255(3)
H14B H 0.0287 0.2953 0.3532
C22B C 0.1780(3) 0.4594(2) 0.6451(3)
H15B H 0.1714 0.4579 0.7218
H16B H 0.1427 0.5094 0.6086
C23B C 0.3482(3) 0.4315(2) 0.7149(3)
H17B H 0.3458 0.4018 0.7805
C24B C 0.3078(3) 0.5079(2) 0.5570(3)
C25B C 0.2501(3) 0.5629(2) 0.4675(3)
H18B H 0.2807 0.5673 0.4057
H19B H 0.1918 0.5329 0.4407
C26B C 0.2316(3) 0.6565(3) 0.5055(4)
H20B H 0.2882 0.6905 0.5179
H21B H 0.2125 0.6526 0.5758
C27B C 0.1586(3) 0.7049(3) 0.4223(4)
H22B H 0.1020 0.6723 0.4111
H23B H 0.1498 0.7632 0.4500
H24B H 0.1777 0.7100 0.3529
C28B C 0.4230(3) 0.4441(2) 0.6714(3)
C29B C 0.5215(3) 0.4197(2) 0.7035(4)
N1B N 0.5188(2) 1.07129(18) 0.5945(2)
N1B_2 N 0.5188(2) 0.07129(18) 0.5945(2)
N2B N 0.5920(2) 1.06432(19) 0.5465(2)
N2_2 N 0.4080(2) -0.06432(19) 0.4535(2)
N3B N 0.3917(2) 1.09828(19) 0.7030(3)
N3B_2 N 0.3917(2) 0.09828(19) 0.7030(3)
N4B N 0.2760(2) 0.47146(19) 0.6424(3)
N5B N 0.3969(2) 0.49204(18) 0.5731(2)
O1B O 0.55529(18) 0.39061(16) 0.7967(2)
O2B O 0.56520(17) 0.43428(16) 0.6265(2)
O3B O 0.26752(17) 0.12374(17) 0.4365(2)
O4B O 0.26165(17) 0.00336(16) 0.5390(2)
O5 O 0.2548(3) 0.8518(3) 0.6770(3)
H25 H 0.242(3) 0.889(2) 0.628(3)
H26 H 0.308(3) 0.834(9) 0.690(11)
loop_
_geom_bond_atom_site_label_1
_geom_bond_atom_site_label_2
_geom_bond_site_symmetry_1
_geom_bond_site_symmetry_2
Cu1 N1 1_555 1_555
Cu2 N5 1_555 1_555
C1 H1 1_555 1_555
C2 C1 1_555 1_555
H2 C2 1_555 1_555
C3 C2 1_555 1_555
H3 C3 1_555 1_555
C4 C3 1_555 1_555
H4 C4 1_555 1_555
C5 C4 1_555 1_555
C6 C5 1_555 1_555
C7 C6 1_555 1_555
H5 C7 1_555 1_555
C8 C7 1_555 1_555
H6 C8 1_555 1_555
C9 C10 1_555 1_555
C10 C11 1_555 1_555
C11 H7 1_555 1_555
C12 C11 1_555 1_555
H8 C12 1_555 1_555
C13 C12 1_555 1_555
H9 C13 1_555 1_555
C14 C13 1_555 1_555
H10 C14 1_555 1_555
C15 C10 1_555 1_555
C16 C15 1_555 1_555
C17 C16 1_555 1_555
H11 C17 1_555 1_555
C18 C17 1_555 1_555
H12 C18 1_555 1_555
C19 C18 1_555 1_555
C20 C19 1_555 1_555
H13 C20 1_555 1_555
C21 C16 1_555 1_555
H14 C21 1_555 1_555
C22 C19 1_555 1_555
H15 C22 1_555 1_555
H16 C22 1_555 1_555
C23 H17 1_555 1_555
C24 C25 1_555 1_555
C25 H18 1_555 1_555
H19 C25 1_555 1_555
C26 C25 1_555 1_555
H20 C26 1_555 1_555
H21 C26 1_555 1_555
C27 C26 1_555 1_555
H22 C27 1_555 1_555
H23 C27 1_555 1_555
H24 C27 1_555 1_555
C28 C23 1_555 1_555
C29 C28 1_555 1_555
N1 C6 1_555 1_555
N2 C8 1_555 1_555
N3 Cu1 1_555 1_555
N4 C22 1_555 1_555
N5 C24 1_555 1_555
O1 C29 1_555 1_555
O2 Cu2 1_555 1_555
O3 C9 1_555 1_555
O4 Cu1 1_555 1_555
O5 H25 1_555 1_555
H26 O5 1_555 1_555
Cu1B N1B_2 1_555 1_555
Cu1B_2 N2 1_555 1_555
C1B H1B 1_555 1_555
C2B C1B 1_555 1_555
H2B C2B 1_555 1_555
C3B C2B 1_555 1_555
H3B C3B 1_555 1_555
C4B C3B 1_555 1_555
H4B C4B 1_555 1_555
C5B C4B 1_555 1_555
C6B C5B 1_555 1_555
C7B C6B 1_555 1_555
H5B C7B 1_555 1_555
C8B C7B 1_555 1_555
H6B C8B 1_555 1_555
C9B C10B 1_555 1_555
C10B C11B 1_555 1_555
C11B H7B 1_555 1_555
C12B C11B 1_555 1_555
H8B C12B 1_555 1_555
C13B C12B 1_555 1_555
H9B C13B 1_555 1_555
C14B C13B 1_555 1_555
H10B C14B 1_555 1_555
C15B C10B 1_555 1_555
C16B C15B 1_555 1_555
C17B C16B 1_555 1_555
H11B C17B 1_555 1_555
C18B C17B 1_555 1_555
H12B C18B 1_555 1_555
C19B C18B 1_555 1_555
C20B C19B 1_555 1_555
H13B C20B 1_555 1_555
C21B C16B 1_555 1_555
H14B C21B 1_555 1_555
C22B C19B 1_555 1_555
H15B C22B 1_555 1_555
H16B C22B 1_555 1_555
C23B H17B 1_555 1_555
C24B C25B 1_555 1_555
C25B H18B 1_555 1_555
H19B C25B 1_555 1_555
C26B C25B 1_555 1_555
H20B C26B 1_555 1_555
H21B C26B 1_555 1_555
C27B C26B 1_555 1_555
H22B C27B 1_555 1_555
H23B C27B 1_555 1_555
H24B C27B 1_555 1_555
C28B C23B 1_555 1_555
C29B C28B 1_555 1_555
N1B Cu1B_2 1_555 1_555
N2B Cu1 1_555 1_555
N2_2 Cu1B 1_555 1_555
N3B Cu1B_2 1_555 1_555
N3B_2 Cu1B 1_555 1_555
N4B C22B 1_555 1_555
N5B Cu2 1_555 1_555
O1B C29B 1_555 1_555
O2B Cu2 1_555 1_555
O3B C9B 1_555 1_555
O4B Cu1B 1_555 1_555
C1 N3 1_555 1_555
C5 N3 1_555 1_555
C9 O4 1_555 1_555
C14 C15 1_555 1_555
C20 C21 1_555 1_555
C23 N4 1_555 1_555
C24 N4 1_555 1_555
C28 N5 1_555 1_555
C29 O2 1_555 1_555
N1 N2 1_555 1_555
C1B N3B 1_555 1_555
C5B N3B 1_555 1_555
C6B N1B 1_555 1_555
C8B N2B 1_555 1_555
C9B O4B 1_555 1_555
C14B C15B 1_555 1_555
C20B C21B 1_555 1_555
C23B N4B 1_555 1_555
C24B N4B 1_555 1_555
C24B N5B 1_555 1_555
C28B N5B 1_555 1_555
C29B O2B 1_555 1_555
N1B N2B 1_555 1_555

#END
