
#######################################################################
#
#                 Cambridge Crystallographic Data Centre
#                                CCDC 
#
#######################################################################
#
# If this CIF has been generated from an entry in the Cambridge 
# Structural Database, then it will include bibliographic, chemical, 
# crystal, experimental, refinement or atomic coordinate data resulting 
# from the CCDC's data processing and validation procedures.
#
#######################################################################

data_ICETER
_symmetry_cell_setting           monoclinic
_symmetry_space_group_name_H-M   'P 21/c'
_symmetry_Int_Tables_number      14
_space_group_name_Hall           '-P 2ybc'
loop_
_symmetry_equiv_pos_site_id
_symmetry_equiv_pos_as_xyz
1 x,y,z
2 -x,1/2+y,1/2-z
3 -x,-y,-z
4 x,1/2-y,1/2+z
_cell_length_a                   10.5689(4)
_cell_length_b                   19.6178(9)
_cell_length_c                   26.3051(9)
_cell_angle_alpha                90
_cell_angle_beta                 97.050(2)
_cell_angle_gamma                90
_cell_volume                     5412.83
loop_
_atom_site_label
_atom_site_type_symbol
_atom_site_fract_x
_atom_site_fract_y
_atom_site_fract_z
C1 C 0.3062(9) 0.5869(4) 0.3860(3)
H1 H 0.2765 0.5444 0.3681
H2 H 0.4005 0.5859 0.3907
C2 C 0.2598(9) 0.5864(5) 0.4396(3)
H3 H 0.2908 0.6275 0.4585
H4 H 0.2929 0.5459 0.4585
H5 H 0.1664 0.5857 0.4358
C3 C 0.2059(9) 0.8981(5) 0.2878(4)
H6 H 0.1127 0.8933 0.2783
H7 H 0.2217 0.9436 0.3036
C4 C 0.2708(9) 0.8948(5) 0.2388(4)
H8 H 0.3635 0.8953 0.2479
H9 H 0.2449 0.9344 0.2172
H10 H 0.2453 0.8529 0.2201
C5 C 0.0350(7) 0.7428(4) 0.3751(3)
C6 C -0.0315(8) 0.6849(4) 0.3765(3)
C7 C -0.0002(8) 0.8066(4) 0.4002(3)
C8 C -0.0269(8) 0.8651(4) 0.3709(4)
H11 H -0.0231 0.8634 0.3350
C9 C -0.0591(8) 0.9263(5) 0.3934(4)
H12 H -0.0776 0.9657 0.3727
C10 C -0.0641(8) 0.9295(5) 0.4448(4)
H13 H -0.0850 0.9714 0.4598
C11 C -0.0387(8) 0.8714(4) 0.4761(4)
H14 H -0.0433 0.8739 0.5119
C12 C -0.0069(8) 0.8107(4) 0.4536(3)
H15 H 0.0107 0.7713 0.4743
C13 C -0.1462(8) 0.6714(5) 0.4027(3)
C14 C -0.2423(8) 0.7191(5) 0.4081(4)
H16 H -0.2356 0.7637 0.3945
C15 C -0.3469(8) 0.7029(5) 0.4327(3)
H17 H -0.4095 0.7366 0.4365
C16 C -0.3611(8) 0.6385(5) 0.4516(4)
H18 H -0.4334 0.6279 0.4683
C17 C -0.2707(8) 0.5892(5) 0.4464(4)
H19 H -0.2805 0.5446 0.4595
C18 C -0.1652(8) 0.6049(5) 0.4220(3)
H20 H -0.1041 0.5704 0.4180
C19 C -0.0664(8) 0.6060(4) 0.3075(4)
H21 H -0.0527 0.6366 0.2788
H22 H -0.1574 0.6082 0.3129
C20 C -0.0300(8) 0.5334(4) 0.2955(4)
H23 H 0.0600 0.5319 0.2901
H24 H -0.0829 0.5178 0.2645
H25 H -0.0437 0.5036 0.3243
C21 C 0.4796(8) 0.7516(4) 0.3063(3)
C22 C 0.5472(8) 0.8100(4) 0.3052(3)
C23 C 0.5141(8) 0.6892(4) 0.2788(3)
C24 C 0.5137(8) 0.6870(4) 0.2259(3)
H26 H 0.4865 0.7262 0.2062
C25 C 0.5514(8) 0.6300(4) 0.2010(4)
H27 H 0.5544 0.6306 0.1650
C26 C 0.5849(8) 0.5715(5) 0.2295(4)
H28 H 0.6096 0.5314 0.2130
C27 C 0.5821(8) 0.5720(5) 0.2820(4)
H29 H 0.6054 0.5321 0.3014
C28 C 0.5458(8) 0.6297(4) 0.3064(4)
H30 H 0.5425 0.6289 0.3423
C29 C 0.6571(8) 0.8234(4) 0.2764(3)
C30 C 0.7508(8) 0.7755(5) 0.2717(4)
H31 H 0.7465 0.7324 0.2879
C31 C 0.8521(8) 0.7896(5) 0.2435(3)
H32 H 0.9159 0.7560 0.2410
C32 C 0.8603(9) 0.8511(4) 0.2195(4)
H33 H 0.9274 0.8598 0.1994
C33 C 0.7667(8) 0.9018(5) 0.2251(4)
H34 H 0.7717 0.9450 0.2092
C34 C 0.6679(9) 0.8878(5) 0.2538(3)
H35 H 0.6070 0.9221 0.2583
C35 C 0.5860(8) 0.8870(4) 0.3741(3)
H36 H 0.6757 0.8838 0.3670
H37 H 0.5744 0.8560 0.4029
C36 C 0.5553(9) 0.9595(4) 0.3879(4)
H38 H 0.5687 0.9899 0.3595
H39 H 0.6111 0.9733 0.4187
H40 H 0.4661 0.9623 0.3944
C37 C 0.2773(8) 0.8997(4) 0.4414(3)
H41 H 0.2537 0.9387 0.4211
C38 C 0.2841(8) 0.9053(4) 0.4931(3)
H42 H 0.2652 0.9477 0.5079
C39 C 0.3185(8) 0.8496(4) 0.5245(3)
C40 C 0.3475(8) 0.7900(4) 0.5010(3)
H43 H 0.3741 0.7508 0.5207
C41 C 0.3375(8) 0.7882(4) 0.4481(3)
H44 H 0.3567 0.7465 0.4324
C42 C 0.1694(8) 0.7930(4) 0.7324(3)
H45 H 0.1475 0.7521 0.7486
C43 C 0.1572(8) 0.7958(4) 0.6795(3)
H46 H 0.1291 0.7568 0.6600
C44 C 0.1856(8) 0.8549(4) 0.6550(3)
C45 C 0.2261(8) 0.9116(4) 0.6851(3)
H47 H 0.2449 0.9535 0.6696
C46 C 0.2382(8) 0.9052(4) 0.7379(3)
H48 H 0.2665 0.9434 0.7583
C47 C 0.1848(8) 0.8580(4) 0.5975(3)
H49 H 0.1333 0.8199 0.5814
H50 H 0.1447 0.9012 0.5844
O1 O 0.1371(5) 0.7463(3) 0.3498(2)
O2 O 0.0135(5) 0.6264(3) 0.3536(2)
O3 O 0.3780(5) 0.7465(3) 0.3330(2)
O4 O 0.5007(5) 0.8679(3) 0.3290(2)
Zn1 Zn 0.26353(9) 0.82768(5) 0.33942(4)
Zn2 Zn 0.25007(9) 0.66482(5) 0.34125(4)
N1 N 0.3026(6) 0.8410(3) 0.4176(3)
N2 N 0.2112(6) 0.8465(3) 0.7614(3)
C58 C 0.3218(8) 0.8538(4) 0.5825(3)
H71 H 0.3708 0.8945 0.5954
H72 H 0.3652 0.8130 0.5985
Zn2C Zn 0.25007(9) 0.83518(5) 0.84125(4)
N2C N 0.2112(6) 0.6535(3) 0.2614(3)
C48 C 0.5825(11) 0.8385(5) 0.0891(5)
H51 H 0.6104 0.8200 0.0572
H52 H 0.6525 0.8330 0.1174
C49 C 0.5446(12) 0.9130(6) 0.0822(5)
H53 H 0.6194 0.9433 0.0902
H54 H 0.5048 0.9221 0.0469
C50 C 0.4523(12) 0.9226(6) 0.1194(5)
H55 H 0.3752 0.9467 0.1034
H56 H 0.4907 0.9490 0.1495
C51 C 0.4198(12) 0.8499(5) 0.1348(5)
H57 H 0.4576 0.8405 0.1704
H58 H 0.3263 0.8441 0.1326
O5 O 0.4708(7) 0.8052(4) 0.1006(3)
C52 C 0.2971(10) 0.1690(5) 0.4331(5)
H59 H 0.3771 0.1876 0.4227
H60 H 0.2690 0.1982 0.4603
C53 C 0.3139(10) 0.0949(5) 0.4508(5)
H61 H 0.3882 0.0743 0.4370
H62 H 0.3288 0.0928 0.4887
C59 C 0.1930(10) 0.1630(5) 0.3871(5)
H73 H 0.1128 0.1846 0.3946
H74 H 0.2206 0.1844 0.3562
C60 C 0.1765(11) 0.0870(5) 0.3800(5)
H75 H 0.0883 0.0756 0.3653
H76 H 0.2367 0.0686 0.3574
O7 O 0.2055(9) 0.0601(5) 0.4332(4)
C54 C -0.0855(9) 0.8319(5) 0.0707(4)
H63 H -0.1274 0.8159 0.1002
H64 H -0.1406 0.8204 0.0387
C55 C -0.0619(10) 0.9086(5) 0.0742(4)
H65 H -0.0628 0.9252 0.1097
H66 H -0.1268 0.9339 0.0512
C56 C 0.0705(10) 0.9163(5) 0.0571(5)
H67 H 0.0678 0.9478 0.0275
H68 H 0.1320 0.9342 0.0854
C57 C 0.1068(10) 0.8461(5) 0.0424(4)
H69 H 0.0834 0.8386 0.0052
H70 H 0.1997 0.8389 0.0509
O6 O 0.0376(6) 0.8013(3) 0.0712(3)
O8? O 0.293(3) 0.0606(13) 0.4039(7)
loop_
_geom_bond_atom_site_label_1
_geom_bond_atom_site_label_2
_geom_bond_site_symmetry_1
_geom_bond_site_symmetry_2
C1 H1 1_555 1_555
H2 C1 1_555 1_555
C2 C1 1_555 1_555
H3 C2 1_555 1_555
H4 C2 1_555 1_555
H5 C2 1_555 1_555
C3 H6 1_555 1_555
H7 C3 1_555 1_555
C4 C3 1_555 1_555
H8 C4 1_555 1_555
H9 C4 1_555 1_555
H10 C4 1_555 1_555
C5 C6 1_555 1_555
C6 C13 1_555 1_555
C7 C5 1_555 1_555
C8 C7 1_555 1_555
H11 C8 1_555 1_555
C9 C8 1_555 1_555
H12 C9 1_555 1_555
C10 C9 1_555 1_555
H13 C10 1_555 1_555
C11 C10 1_555 1_555
H14 C11 1_555 1_555
C12 C7 1_555 1_555
H15 C12 1_555 1_555
C13 C14 1_555 1_555
C14 H16 1_555 1_555
C15 C14 1_555 1_555
H17 C15 1_555 1_555
C16 C15 1_555 1_555
H18 C16 1_555 1_555
C17 C16 1_555 1_555
H19 C17 1_555 1_555
C18 C13 1_555 1_555
H20 C18 1_555 1_555
C19 H21 1_555 1_555
H22 C19 1_555 1_555
C20 C19 1_555 1_555
H23 C20 1_555 1_555
H24 C20 1_555 1_555
H25 C20 1_555 1_555
C21 C22 1_555 1_555
C22 C29 1_555 1_555
C23 C21 1_555 1_555
C24 C23 1_555 1_555
H26 C24 1_555 1_555
C25 C24 1_555 1_555
H27 C25 1_555 1_555
C26 C25 1_555 1_555
H28 C26 1_555 1_555
C27 C26 1_555 1_555
H29 C27 1_555 1_555
C28 C23 1_555 1_555
H30 C28 1_555 1_555
C29 C30 1_555 1_555
C30 H31 1_555 1_555
C31 C30 1_555 1_555
H32 C31 1_555 1_555
C32 C31 1_555 1_555
H33 C32 1_555 1_555
C33 C32 1_555 1_555
H34 C33 1_555 1_555
C34 C29 1_555 1_555
H35 C34 1_555 1_555
C35 H36 1_555 1_555
H37 C35 1_555 1_555
C36 C35 1_555 1_555
H38 C36 1_555 1_555
H39 C36 1_555 1_555
H40 C36 1_555 1_555
C37 H41 1_555 1_555
C38 C37 1_555 1_555
H42 C38 1_555 1_555
C39 C38 1_555 1_555
C40 C39 1_555 1_555
H43 C40 1_555 1_555
C41 C40 1_555 1_555
H44 C41 1_555 1_555
C42 H45 1_555 1_555
C43 C42 1_555 1_555
H46 C43 1_555 1_555
C44 C43 1_555 1_555
C45 C44 1_555 1_555
H47 C45 1_555 1_555
C46 C45 1_555 1_555
H48 C46 1_555 1_555
C47 C44 1_555 1_555
H49 C47 1_555 1_555
H50 C47 1_555 1_555
C48 H51 1_555 1_555
H52 C48 1_555 1_555
C49 C48 1_555 1_555
H53 C49 1_555 1_555
H54 C49 1_555 1_555
C50 C49 1_555 1_555
H55 C50 1_555 1_555
H56 C50 1_555 1_555
C51 C50 1_555 1_555
H57 C51 1_555 1_555
H58 C51 1_555 1_555
C52 H59 1_555 1_555
H60 C52 1_555 1_555
C53 C52 1_555 1_555
H61 C53 1_555 1_555
H62 C53 1_555 1_555
C54 H63 1_555 1_555
H64 C54 1_555 1_555
C55 C54 1_555 1_555
H65 C55 1_555 1_555
H66 C55 1_555 1_555
C56 C55 1_555 1_555
H67 C56 1_555 1_555
H68 C56 1_555 1_555
C57 C56 1_555 1_555
H69 C57 1_555 1_555
H70 C57 1_555 1_555
O1 C5 1_555 1_555
O2 C6 1_555 1_555
O3 C21 1_555 1_555
O4 C22 1_555 1_555
O5 C48 1_555 1_555
O6 C54 1_555 1_555
Zn1 C3 1_555 1_555
Zn2 C1 1_555 1_555
N1 C37 1_555 1_555
N2 C42 1_555 1_555
C58 C39 1_555 1_555
H71 C58 1_555 1_555
H72 C58 1_555 1_555
C59 C52 1_555 1_555
H73 C59 1_555 1_555
H74 C59 1_555 1_555
C60 C59 1_555 1_555
H75 C60 1_555 1_555
H76 C60 1_555 1_555
O7 C53 1_555 1_555
Zn2C N2 1_555 1_555
N2C Zn2 1_555 1_555
C11 C12 1_555 1_555
C17 C18 1_555 1_555
C19 O2 1_555 1_555
C27 C28 1_555 1_555
C33 C34 1_555 1_555
C35 O4 1_555 1_555
C41 N1 1_555 1_555
C46 N2 1_555 1_555
C47 C58 1_555 1_555
C51 O5 1_555 1_555
C57 O6 1_555 1_555
O1 Zn1 1_555 1_555
O1 Zn2 1_555 1_555
O3 Zn1 1_555 1_555
O3 Zn2 1_555 1_555
Zn1 N1 1_555 1_555
C60 O7 1_555 1_555

#END
