
#######################################################################
#
#                 Cambridge Crystallographic Data Centre
#                                CCDC 
#
#######################################################################
#
# If this CIF has been generated from an entry in the Cambridge 
# Structural Database, then it will include bibliographic, chemical, 
# crystal, experimental, refinement or atomic coordinate data resulting 
# from the CCDC's data processing and validation procedures.
#
#######################################################################

data_ICIFIK
_symmetry_cell_setting           monoclinic
_symmetry_space_group_name_H-M   'P 21/c'
_symmetry_Int_Tables_number      14
_space_group_name_Hall           '-P 2ybc'
loop_
_symmetry_equiv_pos_site_id
_symmetry_equiv_pos_as_xyz
1 x,y,z
2 x,1/2-y,1/2+z
3 -x,-y,-z
4 -x,1/2+y,1/2-z
_cell_length_a                   7.822(3)
_cell_length_b                   14.475(3)
_cell_length_c                   8.629(2)
_cell_angle_alpha                90
_cell_angle_beta                 109.17(2)
_cell_angle_gamma                90
_cell_volume                     922.829
loop_
_atom_site_label
_atom_site_type_symbol
_atom_site_fract_x
_atom_site_fract_y
_atom_site_fract_z
Bi1 Bi 0.69133(11) 0.27971(8) 0.39575(10)
Cl1 Cl 0.8483(9) 0.3888(6) 0.6469(8)
Cl2 Cl 0.9120(11) 0.3622(8) 0.2677(10)
S1 S 0.4671(8) 0.4098(5) 0.3211(8)
O1 O 0.529(2) 0.2556(14) 0.103(2)
O2 O 0.415(2) 0.3394(16) -0.1207(16)
C1 C 0.320(3) 0.3735(19) 0.116(3)
H1 H 0.2288 0.3303 0.1278
C2 C 0.429(3) 0.3274(16) 0.023(2)
C3 C 0.227(6) 0.459(3) 0.025(4)
H2 H 0.1580 0.4881 0.0853
H3 H 0.1473 0.4418 -0.0819
H4 H 0.3161 0.5016 0.0134
O1A O 0.529(2) 0.2444(14) 0.603(2)
O2A O 0.415(2) 0.1606(16) 0.3793(16)
Bi1A Bi 0.69133(11) 0.22029(8) -0.10425(10)
K1 K 0.2391(9) 0.4212(6) 0.5912(8)
loop_
_geom_bond_atom_site_label_1
_geom_bond_atom_site_label_2
_geom_bond_site_symmetry_1
_geom_bond_site_symmetry_2
Bi1 Cl1 1_555 1_555
Cl2 Bi1 1_555 1_555
S1 Bi1 1_555 1_555
O1 Bi1 1_555 1_555
O2 C2 1_555 1_555
C1 S1 1_555 1_555
H1 C1 1_555 1_555
C2 O1 1_555 1_555
C3 C1 1_555 1_555
H2 C3 1_555 1_555
H3 C3 1_555 1_555
H4 C3 1_555 1_555
O1A Bi1 1_555 1_555
O2A Bi1 1_555 1_555
Bi1A O1 1_555 1_555
O2 Bi1A 1_555 1_555
C1 C2 1_555 1_555

#END
