
#######################################################################
#
#                 Cambridge Crystallographic Data Centre
#                                CCDC 
#
#######################################################################
#
# If this CIF has been generated from an entry in the Cambridge 
# Structural Database, then it will include bibliographic, chemical, 
# crystal, experimental, refinement or atomic coordinate data resulting 
# from the CCDC's data processing and validation procedures.
#
#######################################################################

data_ICIMIS
_symmetry_cell_setting           monoclinic
_symmetry_space_group_name_H-M   'P 21/n'
_symmetry_Int_Tables_number      14
_space_group_name_Hall           '-P 2yn'
loop_
_symmetry_equiv_pos_site_id
_symmetry_equiv_pos_as_xyz
1 x,y,z
2 1/2-x,1/2+y,1/2-z
3 -x,-y,-z
4 1/2+x,1/2-y,1/2+z
_cell_length_a                   11.2440(19)
_cell_length_b                   10.6292(16)
_cell_length_c                   12.995(2)
_cell_angle_alpha                90
_cell_angle_beta                 112.299(3)
_cell_angle_gamma                90
_cell_volume                     1436.95
loop_
_atom_site_label
_atom_site_type_symbol
_atom_site_fract_x
_atom_site_fract_y
_atom_site_fract_z
Ni1 Ni 0.5000 0.0000 0.0000
O1 O 0.55696(13) 0.02808(14) 0.16787(11)
O2 O 0.57289(15) 0.11052(13) 0.36745(12)
N1 N 0.69054(16) -0.01327(14) 0.01360(14)
C1 C 0.84501(18) -0.09190(18) -0.05535(17)
H1 H 0.8644 -0.1501 -0.1001
C2 C 0.90079(18) 0.07661(19) 0.07212(17)
H2 H 0.9592 0.1355 0.1162
O3 O 0.64947(19) -0.15494(16) 0.23764(13)
C3 C 0.77866(17) 0.06932(19) 0.07412(16)
H3 H 0.7571 0.1246 0.1198
C4 C 0.6141(2) -0.0456(2) 0.24589(16)
C5 C 0.72562(18) -0.09342(18) -0.04859(17)
H4 H 0.6665 -0.1535 -0.0896
C6 C 0.4489(2) 0.0861(2) 0.35683(16)
C7 C 0.93624(18) -0.00417(15) 0.00416(16)
C8 C 0.3925(3) -0.0317(2) 0.3416(2)
H5 H 0.4387 -0.1024 0.3368
C9 C 0.3780(3) 0.1906(2) 0.36382(19)
H6 H 0.4150 0.2702 0.3736
C10 C 0.2675(3) -0.0434(3) 0.3337(2)
H7 H 0.2296 -0.1226 0.3231
C11 C 0.7885(2) 0.0623(3) 0.4006(2)
H8 H 0.8137 0.0949 0.4748
H9 H 0.7895 0.1288 0.3510
H10 H 0.8475 -0.0025 0.3994
C12 C 0.6542(3) 0.00786(17) 0.36388(18)
H11 H 0.6518 -0.0585 0.4154
C13 C 0.1975(3) 0.0599(3) 0.3413(2)
H12 H 0.1133 0.0508 0.3364
C14 C 0.2538(3) 0.1769(3) 0.3563(2)
H13 H 0.2072 0.2473 0.3614
O4 O 0.48594(14) -0.19275(14) 0.02189(14)
H14 H 0.483(3) -0.245(3) -0.029(2)
H15 H 0.553(2) -0.213(3) 0.0796(19)
Ni1_2 Ni 1.5000 0.0000 0.0000
O1B O 0.44304(13) -0.02808(14) -0.16787(11)
O2B O 0.42711(15) -0.11052(13) -0.36745(12)
N1B N 1.30946(16) 0.01327(14) -0.01360(14)
N1B_2 N 0.30946(16) 0.01327(14) -0.01360(14)
C1B C 1.15499(18) 0.09190(18) 0.05535(17)
H1B H 1.1356 0.1501 0.1001
C2B C 1.09921(18) -0.07661(19) -0.07212(17)
H2B H 1.0408 -0.1355 -0.1162
O3B O 0.35053(19) 0.15494(16) -0.23764(13)
C3B C 1.22134(17) -0.06932(19) -0.07412(16)
H3B H 1.2429 -0.1246 -0.1198
C4B C 0.3859(2) 0.0456(2) -0.24589(16)
C5B C 1.27438(18) 0.09342(18) 0.04859(17)
H4B H 1.3335 0.1535 0.0896
C6B C 0.5511(2) -0.0861(2) -0.35683(16)
C7B C 1.06376(18) 0.00417(15) -0.00416(16)
C8B C 0.6075(3) 0.0317(2) -0.3416(2)
H5B H 0.5613 0.1024 -0.3368
C9B C 0.6220(3) -0.1906(2) -0.36382(19)
H6B H 0.5850 -0.2702 -0.3736
C10B C 0.7325(3) 0.0434(3) -0.3337(2)
H7B H 0.7704 0.1226 -0.3231
C11B C 0.2115(2) -0.0623(3) -0.4006(2)
H8B H 0.1863 -0.0949 -0.4748
H9B H 0.2105 -0.1288 -0.3510
H10B H 0.1525 0.0025 -0.3994
C12B C 0.3458(3) -0.00786(17) -0.36388(18)
H11B H 0.3482 0.0585 -0.4154
C13B C 0.8025(3) -0.0599(3) -0.3413(2)
H12B H 0.8867 -0.0508 -0.3364
C14B C 0.7462(3) -0.1769(3) -0.3563(2)
H13B H 0.7928 -0.2473 -0.3614
O4B O 0.51406(14) 0.19275(14) -0.02189(14)
H14B H 0.517(3) 0.245(3) 0.029(2)
H15B H 0.447(2) 0.213(3) -0.0796(19)
O5 O 0.5621(2) 0.30643(17) 0.18402(16)
H16 H 0.565(3) 0.237(2) 0.214(3)
H17 H 0.636(2) 0.332(3) 0.200(3)
loop_
_geom_bond_atom_site_label_1
_geom_bond_atom_site_label_2
_geom_bond_site_symmetry_1
_geom_bond_site_symmetry_2
Ni1 O1 1_555 1_555
O1 C4 1_555 1_555
O2 C6 1_555 1_555
N1 Ni1 1_555 1_555
C1 H1 1_555 1_555
C2 H2 1_555 1_555
O3 C4 1_555 1_555
C3 N1 1_555 1_555
H3 C3 1_555 1_555
C4 C12 1_555 1_555
C5 N1 1_555 1_555
H4 C5 1_555 1_555
C6 C8 1_555 1_555
C7 C1 1_555 1_555
C8 H5 1_555 1_555
C9 C6 1_555 1_555
H6 C9 1_555 1_555
C10 C8 1_555 1_555
H7 C10 1_555 1_555
C11 H8 1_555 1_555
H9 C11 1_555 1_555
H10 C11 1_555 1_555
C12 O2 1_555 1_555
H11 C12 1_555 1_555
C13 C10 1_555 1_555
H12 C13 1_555 1_555
C14 C9 1_555 1_555
H13 C14 1_555 1_555
O4 Ni1 1_555 1_555
H14 O4 1_555 1_555
H15 O4 1_555 1_555
O5 H16 1_555 1_555
H17 O5 1_555 1_555
Ni1_2 N1B 1_555 1_555
O1B Ni1 1_555 1_555
O2B C6B 1_555 1_555
N1B C3B 1_555 1_555
N1B_2 Ni1 1_555 1_555
C1B H1B 1_555 1_555
C2B H2B 1_555 1_555
O3B C4B 1_555 1_555
C3B C2B 1_555 1_555
H3B C3B 1_555 1_555
C4B O1B 1_555 1_555
C5B N1B 1_555 1_555
H4B C5B 1_555 1_555
C6B C8B 1_555 1_555
C7B C7 1_555 1_555
C8B H5B 1_555 1_555
C9B C6B 1_555 1_555
H6B C9B 1_555 1_555
C10B C8B 1_555 1_555
H7B C10B 1_555 1_555
C11B H8B 1_555 1_555
H9B C11B 1_555 1_555
H10B C11B 1_555 1_555
C12B O2B 1_555 1_555
H11B C12B 1_555 1_555
C13B C10B 1_555 1_555
H12B C13B 1_555 1_555
C14B C9B 1_555 1_555
H13B C14B 1_555 1_555
O4B Ni1 1_555 1_555
H14B O4B 1_555 1_555
H15B O4B 1_555 1_555
C1 C5 1_555 1_555
C2 C3 1_555 1_555
C2 C7 1_555 1_555
C11 C12 1_555 1_555
C13 C14 1_555 1_555
C1B C5B 1_555 1_555
C1B C7B 1_555 1_555
C2B C7B 1_555 1_555
C4B C12B 1_555 1_555
C11B C12B 1_555 1_555
C13B C14B 1_555 1_555

#END
