
#######################################################################
#
#                 Cambridge Crystallographic Data Centre
#                                CCDC 
#
#######################################################################
#
# If this CIF has been generated from an entry in the Cambridge 
# Structural Database, then it will include bibliographic, chemical, 
# crystal, experimental, refinement or atomic coordinate data resulting 
# from the CCDC's data processing and validation procedures.
#
#######################################################################

data_ICISOD
_symmetry_cell_setting           triclinic
_symmetry_space_group_name_H-M   'P -1'
_symmetry_Int_Tables_number      2
_space_group_name_Hall           '-P 1'
loop_
_symmetry_equiv_pos_site_id
_symmetry_equiv_pos_as_xyz
1 x,y,z
2 -x,-y,-z
_cell_length_a                   8.7390(10)
_cell_length_b                   13.4550(10)
_cell_length_c                   18.4430(10)
_cell_angle_alpha                95.740(10)
_cell_angle_beta                 97.550(10)
_cell_angle_gamma                106.710(10)
_cell_volume                     2037.21
loop_
_atom_site_label
_atom_site_type_symbol
_atom_site_fract_x
_atom_site_fract_y
_atom_site_fract_z
Cu1 Cu 0.61941(5) 0.00056(3) -0.04661(2)
N1 N 0.7796(3) -0.0750(2) -0.06292(15)
C1 C 0.7703(4) -0.1710(3) -0.04580(19)
H1 H 0.6804 -0.2076 -0.0249
C2 C 0.8877(5) -0.2181(3) -0.0578(2)
H2 H 0.8786 -0.2863 -0.0456
C3 C 1.0190(5) -0.1642(3) -0.0878(2)
H3 H 1.1013 -0.1951 -0.0962
C4 C 1.0297(4) -0.0649(3) -0.10549(19)
H4 H 1.1193 -0.0267 -0.1259
C5 C 0.9068(4) -0.0225(3) -0.09280(18)
C6 C 0.9029(4) 0.0821(3) -0.11001(18)
C7 C 1.0222(5) 0.1486(3) -0.1408(2)
H5 H 1.1127 0.1286 -0.1527
C8 C 1.0054(5) 0.2449(3) -0.1536(2)
H6 H 1.0853 0.2921 -0.1744
C9 C 0.8736(5) 0.2722(3) -0.1363(2)
H7 H 0.8612 0.3381 -0.1451
C10 C 0.7583(5) 0.2019(3) -0.1058(2)
H8 H 0.6662 0.2201 -0.0941
N2 N 0.7743(3) 0.1094(2) -0.09241(15)
N3 N 0.5288(3) -0.2985(2) -0.23371(15)
C11 C 0.4485(5) -0.3856(3) -0.20811(19)
H9 H 0.3400 -0.3946 -0.2008
C12 C 0.5189(6) -0.4619(3) -0.1923(2)
H10 H 0.4614 -0.5212 -0.1723
C13 C 0.6740(5) -0.4513(3) -0.2057(2)
H11 H 0.7225 -0.5047 -0.1970
C14 C 0.7587(5) -0.3618(3) -0.2321(2)
H12 H 0.8659 -0.3526 -0.2414
C15 C 0.6819(4) -0.2865(3) -0.24452(18)
C16 C 0.7606(4) -0.1860(3) -0.26983(18)
C17 C 0.9183(4) -0.1559(3) -0.28372(19)
H13 H 0.9831 -0.2014 -0.2785
C18 C 0.9802(4) -0.0584(3) -0.3054(2)
H14 H 1.0884 -0.0361 -0.3147
C19 C 0.8830(5) 0.0056(3) -0.3134(2)
H15 H 0.9228 0.0722 -0.3288
C20 C 0.7269(4) -0.0285(3) -0.29884(19)
H16 H 0.6603 0.0159 -0.3042
N4 N 0.6659(3) -0.1225(2) -0.27724(15)
N5 N -0.1801(3) -0.3243(2) -0.46762(14)
C21 C -0.1025(4) -0.2344(3) -0.49192(18)
H17 H -0.0002 -0.2275 -0.5066
C22 C -0.1671(4) -0.1529(3) -0.49604(19)
H18 H -0.1106 -0.0914 -0.5141
C23 C -0.3147(4) -0.1609(3) -0.47378(19)
H19 H -0.3607 -0.1051 -0.4762
C24 C -0.3945(4) -0.2520(3) -0.44774(18)
H20 H -0.4956 -0.2593 -0.4317
C25 C -0.3239(4) -0.3321(3) -0.44559(16)
C26 C -0.3979(4) -0.4325(2) -0.41960(16)
C27 C -0.5458(4) -0.4571(3) -0.39422(18)
H21 H -0.6071 -0.4092 -0.3940
C28 C -0.6017(4) -0.5527(3) -0.36929(19)
H22 H -0.7019 -0.5711 -0.3514
C29 C -0.5096(4) -0.6212(3) -0.37074(19)
H23 H -0.5449 -0.6865 -0.3530
C30 C -0.3668(4) -0.5935(3) -0.39812(18)
H24 H -0.3057 -0.6415 -0.4002
N6 N -0.3103(3) -0.5005(2) -0.42218(14)
O1 O 0.5105(3) -0.09011(17) 0.01991(12)
H25 H 0.5804 -0.0796 0.0678
O2 O -0.0719(3) -0.59073(16) -0.48156(12)
H26 H -0.1469 -0.6388 -0.5132
C31 C 0.3953(4) -0.0209(2) -0.19167(17)
O3 O 0.3612(3) 0.06096(18) -0.16796(13)
O4 O 0.3823(3) -0.05084(17) -0.26187(12)
O5 O 0.4443(3) -0.07904(17) -0.14795(12)
C32 C 0.1686(4) -0.3160(2) -0.33671(18)
O6 O 0.2532(3) -0.28319(17) -0.38623(12)
O7 O 0.2179(3) -0.27118(18) -0.26843(13)
O8 O 0.0376(3) -0.39291(18) -0.35157(12)
Cu2 Cu 0.43885(4) -0.18256(3) -0.25938(2)
Cu3 Cu -0.10362(4) -0.45239(3) -0.46187(2)
Cu1A Cu 0.38059(5) -0.00056(3) 0.04661(2)
O1A O 0.4895(3) 0.09011(17) -0.01991(12)
H25A H 0.4196 0.0796 -0.0678
O2A O 0.0719(3) -0.40927(16) -0.51844(12)
H26A H 0.1469 -0.3612 -0.4868
Cu3A Cu 0.10362(4) -0.54761(3) -0.53813(2)
O9 O 0.3747(3) 0.08283(19) -0.36025(13)
H27 H 0.3101 0.1163 -0.3498
H28 H 0.3688 0.0420 -0.3263
O10 O 0.9708(3) 0.3155(2) -0.35528(15)
H29 H 0.969(5) 0.348(4) -0.393(3)
H30 H 0.891(6) 0.274(4) -0.359(3)
O11 O 0.6702(3) 0.2616(2) 0.07963(15)
H31 H 0.6185 0.2112 0.0343
H32 H 0.6408 0.2230 0.1278
O12 O 0.0099(4) -0.5165(2) -0.24260(14)
H33 H 0.0085 -0.4742 -0.2797
H34 H -0.0104 -0.5726 -0.2700
O13 O 1.1943(3) 0.2096(2) -0.31606(15)
H35 H 1.2477 0.2419 -0.2720
H36 H 1.1236 0.2377 -0.3346
O14 O 0.6832(3) 0.1612(2) -0.39690(15)
H37 H 0.6692 0.1396 -0.4480
H38 H 0.5779 0.1426 -0.3885
O15 O 0.3144(4) -0.1069(2) -0.45617(15)
H39 H 0.3111 -0.0519 -0.4323
H40 H 0.2750 -0.1552 -0.4292
O16 O 0.4083(4) 0.2669(2) -0.18579(18)
H41 H 0.4158 0.2933 -0.1373
H42 H 0.3962 0.2033 -0.1910
O17 O 1.0587(5) -0.4375(2) -0.09672(16)
H43 H 1.0371 -0.4623 -0.1507
H44 H 1.1415 -0.3753 -0.0870
O18 O 1.2190(7) -0.5194(3) 0.0135(2)
H45 H 1.1125 -0.5355 0.0297
H46 H 1.1615 -0.5033 -0.0279
O19 O 0.5558(7) -0.3719(3) 0.0454(2)
H47 H 0.4359 -0.4189 0.0297
H48 H 0.6147 -0.4170 0.0246
loop_
_geom_bond_atom_site_label_1
_geom_bond_atom_site_label_2
_geom_bond_site_symmetry_1
_geom_bond_site_symmetry_2
Cu1 N1 1_555 1_555
N1 C1 1_555 1_555
C1 H1 1_555 1_555
C2 C1 1_555 1_555
H2 C2 1_555 1_555
C3 C2 1_555 1_555
H3 C3 1_555 1_555
C4 C3 1_555 1_555
H4 C4 1_555 1_555
C5 N1 1_555 1_555
C6 C5 1_555 1_555
C7 C6 1_555 1_555
H5 C7 1_555 1_555
C8 C7 1_555 1_555
H6 C8 1_555 1_555
C9 C8 1_555 1_555
H7 C9 1_555 1_555
C10 C9 1_555 1_555
H8 C10 1_555 1_555
N2 Cu1 1_555 1_555
N3 C11 1_555 1_555
C11 H9 1_555 1_555
C12 C11 1_555 1_555
H10 C12 1_555 1_555
C13 C12 1_555 1_555
H11 C13 1_555 1_555
C14 C13 1_555 1_555
H12 C14 1_555 1_555
C15 N3 1_555 1_555
C16 C15 1_555 1_555
C17 C16 1_555 1_555
H13 C17 1_555 1_555
C18 C17 1_555 1_555
H14 C18 1_555 1_555
C19 C18 1_555 1_555
H15 C19 1_555 1_555
C20 C19 1_555 1_555
H16 C20 1_555 1_555
N4 C16 1_555 1_555
N5 C21 1_555 1_555
C21 H17 1_555 1_555
C22 C21 1_555 1_555
H18 C22 1_555 1_555
C23 C22 1_555 1_555
H19 C23 1_555 1_555
C24 C23 1_555 1_555
H20 C24 1_555 1_555
C25 N5 1_555 1_555
C26 C25 1_555 1_555
C27 C26 1_555 1_555
H21 C27 1_555 1_555
C28 C27 1_555 1_555
H22 C28 1_555 1_555
C29 C28 1_555 1_555
H23 C29 1_555 1_555
C30 C29 1_555 1_555
H24 C30 1_555 1_555
N6 C26 1_555 1_555
O1 Cu1 1_555 1_555
H25 O1 1_555 1_555
O2 H26 1_555 1_555
C31 O3 1_555 1_555
O4 C31 1_555 1_555
O5 Cu1 1_555 1_555
C32 O6 1_555 1_555
O7 C32 1_555 1_555
O8 C32 1_555 1_555
O9 H27 1_555 1_555
H28 O9 1_555 1_555
O10 H29 1_555 1_555
H30 O10 1_555 1_555
O11 H31 1_555 1_555
H32 O11 1_555 1_555
O12 H33 1_555 1_555
H34 O12 1_555 1_555
O13 H35 1_555 1_555
H36 O13 1_555 1_555
O14 H37 1_555 1_555
H38 O14 1_555 1_555
O15 H39 1_555 1_555
H40 O15 1_555 1_555
O16 H41 1_555 1_555
H42 O16 1_555 1_555
O17 H43 1_555 1_555
H44 O17 1_555 1_555
O18 H45 1_555 1_555
H46 O18 1_555 1_555
O19 H47 1_555 1_555
H48 O19 1_555 1_555
Cu2 N3 1_555 1_555
Cu3 N5 1_555 1_555
Cu1A O1 1_555 1_555
O1A Cu1 1_555 1_555
H25A O1A 1_555 1_555
O2A Cu3 1_555 1_555
H26A O2A 1_555 1_555
Cu3A O2 1_555 1_555
C4 C5 1_555 1_555
C6 N2 1_555 1_555
C10 N2 1_555 1_555
C14 C15 1_555 1_555
C20 N4 1_555 1_555
N4 Cu2 1_555 1_555
C24 C25 1_555 1_555
C30 N6 1_555 1_555
N6 Cu3 1_555 1_555
O2 Cu3 1_555 1_555
C31 O5 1_555 1_555
O4 Cu2 1_555 1_555
O5 Cu2 1_555 1_555
O7 Cu2 1_555 1_555
O8 Cu3 1_555 1_555
Cu1A O1A 1_555 1_555
O2A Cu3A 1_555 1_555

#END
