
#######################################################################
#
#                 Cambridge Crystallographic Data Centre
#                                CCDC 
#
#######################################################################
#
# If this CIF has been generated from an entry in the Cambridge 
# Structural Database, then it will include bibliographic, chemical, 
# crystal, experimental, refinement or atomic coordinate data resulting 
# from the CCDC's data processing and validation procedures.
#
#######################################################################

data_ICIYUO
_symmetry_cell_setting           monoclinic
_symmetry_space_group_name_H-M   'P 21/c'
_symmetry_Int_Tables_number      14
_space_group_name_Hall           '-P 2ybc'
loop_
_symmetry_equiv_pos_site_id
_symmetry_equiv_pos_as_xyz
1 x,y,z
2 x,1/2-y,1/2+z
3 -x,-y,-z
4 -x,1/2+y,1/2-z
_cell_length_a                   9.6346(12)
_cell_length_b                   7.6113(9)
_cell_length_c                   11.9014(14)
_cell_angle_alpha                90.00
_cell_angle_beta                 97.830(2)
_cell_angle_gamma                90.00
_cell_volume                     864.614
loop_
_atom_site_label
_atom_site_type_symbol
_atom_site_fract_x
_atom_site_fract_y
_atom_site_fract_z
Co1 Co 0.34114(3) 0.15833(3) 0.74481(2)
P1 P 0.33023(6) 0.56592(7) 0.66294(4)
O1 O 0.29201(17) 0.02130(19) 0.58775(13)
O2 O 0.35589(17) -0.06153(19) 0.84443(14)
O3 O 0.39934(16) 0.32691(19) 0.89690(14)
O4 O 0.34901(16) 0.67304(18) 0.55748(13)
O5 O 0.32811(16) 0.36927(18) 0.64157(13)
O6 O 0.43575(15) 0.62015(18) 0.76603(12)
N1 N -0.1257(2) 0.6651(2) 0.73010(17)
C1 C 0.1556(2) 0.6203(3) 0.69416(18)
C2 C 0.0492(2) 0.6496(3) 0.6052(2)
H1 H 0.0709 0.6557 0.5297
C3 C -0.0885(2) 0.6699(3) 0.6251(2)
H2 H -0.1591 0.6880 0.5623
C4 C -0.0226(2) 0.6417(3) 0.8167(2)
H3 H -0.0467 0.6402 0.8915
C5 C 0.1168(2) 0.6196(3) 0.80334(19)
H4 H 0.1856 0.6041 0.8677
H5 H 0.326(3) 0.082(4) 0.533(2)
H6 H 0.302(3) -0.0943(8) 0.575(2)
H7 H 0.355(3) -0.083(4) 0.9188(6)
H8 H 0.398(3) -0.156(3) 0.819(3)
H9 H 0.4849(13) 0.287(4) 0.926(2)
H10 H 0.419(4) 0.424(3) 0.859(3)
O6C O 0.56425(15) 0.12015(18) 0.73397(12)
N1C N 0.1257(2) 0.1651(2) 0.76990(17)
Co1C Co 0.65886(3) 0.65833(3) 0.75519(2)
Co1C_2 Co -0.34114(3) 0.65833(3) 0.75519(2)
loop_
_geom_bond_atom_site_label_1
_geom_bond_atom_site_label_2
_geom_bond_site_symmetry_1
_geom_bond_site_symmetry_2
Co1 O1 1_555 1_555
P1 O4 1_555 1_555
O1 H5 1_555 1_555
O2 Co1 1_555 1_555
O3 Co1 1_555 1_555
O5 Co1 1_555 1_555
O6 P1 1_555 1_555
N1 C3 1_555 1_555
C1 P1 1_555 1_555
C2 C1 1_555 1_555
H1 C2 1_555 1_555
C3 C2 1_555 1_555
H2 C3 1_555 1_555
C4 N1 1_555 1_555
H3 C4 1_555 1_555
C5 C1 1_555 1_555
H4 C5 1_555 1_555
H6 O1 1_555 1_555
H7 O2 1_555 1_555
H8 O2 1_555 1_555
H9 O3 1_555 1_555
H10 O3 1_555 1_555
O6C Co1 1_555 1_555
N1C Co1 1_555 1_555
Co1C O6 1_555 1_555
Co1C_2 N1 1_555 1_555
P1 O5 1_555 1_555
C4 C5 1_555 1_555

#END
