
#######################################################################
#
#                 Cambridge Crystallographic Data Centre
#                                CCDC 
#
#######################################################################
#
# If this CIF has been generated from an entry in the Cambridge 
# Structural Database, then it will include bibliographic, chemical, 
# crystal, experimental, refinement or atomic coordinate data resulting 
# from the CCDC's data processing and validation procedures.
#
#######################################################################

data_ICIYUQ
_symmetry_cell_setting           monoclinic
_symmetry_space_group_name_H-M   'C c'
_symmetry_Int_Tables_number      9
_space_group_name_Hall           'C -2yc'
loop_
_symmetry_equiv_pos_site_id
_symmetry_equiv_pos_as_xyz
1 x,y,z
2 x,-y,1/2+z
3 1/2+x,1/2+y,z
4 1/2+x,1/2-y,1/2+z
_cell_length_a                   18.7253(4)
_cell_length_b                   17.9548(4)
_cell_length_c                   16.2296(3)
_cell_angle_alpha                90
_cell_angle_beta                 96.6903(7)
_cell_angle_gamma                90
_cell_volume                     5419.38
loop_
_atom_site_label
_atom_site_type_symbol
_atom_site_fract_x
_atom_site_fract_y
_atom_site_fract_z
Eu1 Eu 0.16783(4) 0.241400(10) 0.47413(5)
P1 P 0.06939(6) 0.38654(6) 0.58229(7)
P2 P 0.14088(7) 0.67058(7) 0.76358(8)
F1 F 0.4100(2) 0.4453(2) 0.4948(3)
F2 F 0.3592(3) 0.4280(3) 0.5982(3)
F3 F 0.3043(2) 0.4848(2) 0.4969(4)
F4 F 0.4397(4) 0.2339(5) 0.3413(8)
F5 F 0.3542(3) 0.1694(4) 0.2905(3)
F6 F 0.4086(4) 0.1400(4) 0.4039(4)
F7 F 0.0947(2) -0.0663(2) 0.4054(3)
F8 F 0.1788(2) -0.0313(2) 0.4974(2)
F9 F 0.1946(2) -0.0250(2) 0.3693(3)
F10 F -0.0793(3) 0.2257(3) 0.3335(6)
F11 F -0.1039(2) 0.1327(3) 0.4009(3)
F12 F -0.0770(2) 0.1176(3) 0.2813(3)
F13 F 0.3165(3) 0.0513(4) 0.7138(6)
F14 F 0.3393(5) 0.1559(6) 0.7459(7)
F15 F 0.3655(3) 0.1160(7) 0.6451(6)
F16 F 0.0144(2) 0.1551(2) 0.7063(3)
F17 F 0.0639(2) 0.0485(2) 0.7183(3)
F18 F 0.0036(2) 0.0799(3) 0.6060(2)
O1 O 0.10010(17) 0.33892(18) 0.51791(18)
O2 O 0.15124(18) 0.6915(2) 0.8539(2)
O3 O 0.25457(17) 0.34162(19) 0.50530(19)
O4 O 0.27410(18) 0.2112(2) 0.4117(2)
O5 O 0.16531(18) 0.11147(19) 0.4440(2)
O6 O 0.04940(17) 0.20908(19) 0.4055(2)
O7 O 0.25020(17) 0.1950(2) 0.5881(2)
O8 O 0.10101(17) 0.1865(2) 0.5795(2)
N1 N 0.1210(2) 0.6106(2) 0.5981(2)
N2 N 0.0175(2) 0.4843(2) 0.7021(2)
C1 C 0.0975(2) 0.4809(2) 0.5644(2)
C2 C 0.0953(2) 0.5440(2) 0.6165(2)
C3 C 0.1485(3) 0.6190(2) 0.5264(3)
C4 C 0.1535(3) 0.5614(2) 0.4720(4)
C5 C 0.1285(2) 0.4914(2) 0.4902(2)
C6 C 0.1095(2) 0.3548(2) 0.6821(2)
C7 C 0.0727(2) 0.3190(3) 0.7399(3)
C8 C 0.1092(3) 0.2873(3) 0.8097(3)
C9 C 0.1840(3) 0.2891(3) 0.8219(3)
C10 C 0.2217(2) 0.3248(3) 0.7652(3)
C11 C 0.1849(3) 0.3574(3) 0.6959(3)
C12 C -0.0274(2) 0.3763(2) 0.5646(2)
C13 C -0.0735(2) 0.4373(3) 0.5492(3)
C14 C -0.1465(3) 0.4257(3) 0.5270(4)
C15 C -0.1729(3) 0.3529(4) 0.5213(5)
C16 C -0.1276(3) 0.2932(4) 0.5370(4)
C17 C -0.0538(2) 0.3047(3) 0.5567(3)
C18 C 0.0710(2) 0.6001(2) 0.7543(2)
C19 C 0.0612(2) 0.5431(2) 0.6952(2)
C20 C -0.0226(2) 0.4836(2) 0.7656(3)
C21 C -0.0205(2) 0.5412(3) 0.8233(2)
C22 C 0.0276(2) 0.5979(2) 0.8195(2)
C23 C 0.2237(2) 0.6299(3) 0.7414(2)
C24 C 0.2722(3) 0.6644(3) 0.6959(3)
C25 C 0.3385(3) 0.6328(4) 0.6904(4)
C26 C 0.3574(3) 0.5658(3) 0.7272(4)
C27 C 0.3095(3) 0.5288(4) 0.7732(4)
C28 C 0.2426(2) 0.5616(3) 0.7797(3)
C29 C 0.1148(3) 0.7518(2) 0.7030(3)
C30 C 0.0520(4) 0.7541(3) 0.6490(4)
C31 C 0.0315(5) 0.8202(4) 0.6090(4)
C32 C 0.0728(5) 0.8824(4) 0.6211(4)
C33 C 0.1364(5) 0.8811(3) 0.6756(4)
C34 C 0.1569(3) 0.8156(3) 0.7172(4)
C35 C 0.3457(2) 0.4296(3) 0.5185(4)
C36 C 0.3149(2) 0.3549(2) 0.4849(2)
C37 C 0.3565(2) 0.3113(3) 0.4383(3)
C38 C 0.3326(3) 0.2430(3) 0.4071(4)
C39 C 0.1467(3) -0.0152(3) 0.4221(4)
C40 C 0.3175(3) 0.1201(4) 0.6881(4)
C41 C 0.1177(2) 0.0652(2) 0.4186(2)
C42 C 0.0462(3) 0.0774(3) 0.3901(3)
C43 C 0.0186(2) 0.1500(3) 0.3846(3)
C44 C -0.0612(3) 0.1577(3) 0.3493(4)
C45 C 0.3845(3) 0.1956(5) 0.3613(5)
C46 C 0.2455(2) 0.1468(2) 0.6431(2)
C47 C 0.1835(3) 0.1154(3) 0.6680(3)
C48 C 0.1168(2) 0.1397(2) 0.6349(2)
C49 C 0.0493(2) 0.1054(3) 0.6675(3)
H1 H 0.1657 0.6683 0.5121
H2 H 0.1746 0.5697 0.4203
H3 H 0.1323 0.4498 0.4520
H4 H 0.0201 0.3162 0.7311
H5 H 0.0825 0.2633 0.8509
H6 H 0.2099 0.2652 0.8708
H7 H 0.2743 0.3269 0.7742
H8 H 0.2117 0.3828 0.6558
H9 H -0.0544 0.4881 0.5541
H10 H -0.1791 0.4681 0.5153
H11 H -0.2245 0.3443 0.5060
H12 H -0.1470 0.2425 0.5344
H13 H -0.0210 0.2621 0.5648
H14 H -0.0545 0.4411 0.7714
H15 H -0.0532 0.5410 0.8663
H16 H 0.0318 0.6370 0.8619
H17 H 0.2594 0.7115 0.6674
H18 H 0.3729 0.6588 0.6596
H19 H 0.4044 0.5439 0.7212
H20 H 0.3225 0.4811 0.8001
H21 H 0.2083 0.5365 0.8115
H22 H 0.0222 0.7094 0.6392
H23 H -0.0134 0.8221 0.5715
H24 H 0.0578 0.9284 0.5915
H25 H 0.1662 0.9259 0.6842
H26 H 0.2008 0.8142 0.7564
H27 H 0.4038 0.3294 0.4273
H28 H 0.0147 0.0351 0.3735
H29 H 0.1875 0.0756 0.7096
Eu1A Eu 0.16783(4) 0.758600(10) 0.97413(5)
O2A O 0.15124(18) 0.3085(2) 0.3539(2)
loop_
_geom_bond_atom_site_label_1
_geom_bond_atom_site_label_2
_geom_bond_site_symmetry_1
_geom_bond_site_symmetry_2
Eu1 O1 1_555 1_555
P1 O1 1_555 1_555
P2 O2 1_555 1_555
F1 C35 1_555 1_555
F2 C35 1_555 1_555
F3 C35 1_555 1_555
F4 C45 1_555 1_555
F5 C45 1_555 1_555
F6 C45 1_555 1_555
F7 C39 1_555 1_555
F8 C39 1_555 1_555
F9 C39 1_555 1_555
F10 C44 1_555 1_555
F11 C44 1_555 1_555
F12 C44 1_555 1_555
F13 C40 1_555 1_555
F14 C40 1_555 1_555
F15 C40 1_555 1_555
F16 C49 1_555 1_555
F17 C49 1_555 1_555
F18 C49 1_555 1_555
O2 Eu1A 1_555 1_555
O3 Eu1 1_555 1_555
O4 Eu1 1_555 1_555
O5 Eu1 1_555 1_555
O6 Eu1 1_555 1_555
O7 Eu1 1_555 1_555
O8 Eu1 1_555 1_555
N1 C2 1_555 1_555
N2 C19 1_555 1_555
C1 P1 1_555 1_555
C2 C1 1_555 1_555
C3 N1 1_555 1_555
C4 C3 1_555 1_555
C5 C1 1_555 1_555
C6 P1 1_555 1_555
C7 C6 1_555 1_555
C8 C7 1_555 1_555
C9 C8 1_555 1_555
C10 C9 1_555 1_555
C11 C6 1_555 1_555
C12 P1 1_555 1_555
C13 C12 1_555 1_555
C14 C13 1_555 1_555
C15 C14 1_555 1_555
C16 C15 1_555 1_555
C17 C12 1_555 1_555
C18 P2 1_555 1_555
C19 C2 1_555 1_555
C20 N2 1_555 1_555
C21 C20 1_555 1_555
C22 C18 1_555 1_555
C23 P2 1_555 1_555
C24 C23 1_555 1_555
C25 C24 1_555 1_555
C26 C25 1_555 1_555
C27 C26 1_555 1_555
C28 C23 1_555 1_555
C29 P2 1_555 1_555
C30 C29 1_555 1_555
C31 C30 1_555 1_555
C32 C31 1_555 1_555
C33 C32 1_555 1_555
C34 C29 1_555 1_555
C35 C36 1_555 1_555
C36 O3 1_555 1_555
C37 C36 1_555 1_555
C38 O4 1_555 1_555
C39 C41 1_555 1_555
C40 C46 1_555 1_555
C41 O5 1_555 1_555
C42 C41 1_555 1_555
C43 O6 1_555 1_555
C44 C43 1_555 1_555
C45 C38 1_555 1_555
C46 O7 1_555 1_555
C47 C46 1_555 1_555
C48 O8 1_555 1_555
C49 C48 1_555 1_555
H1 C3 1_555 1_555
H2 C4 1_555 1_555
H3 C5 1_555 1_555
H4 C7 1_555 1_555
H5 C8 1_555 1_555
H6 C9 1_555 1_555
H7 C10 1_555 1_555
H8 C11 1_555 1_555
H9 C13 1_555 1_555
H10 C14 1_555 1_555
H11 C15 1_555 1_555
H12 C16 1_555 1_555
H13 C17 1_555 1_555
H14 C20 1_555 1_555
H15 C21 1_555 1_555
H16 C22 1_555 1_555
H17 C24 1_555 1_555
H18 C25 1_555 1_555
H19 C26 1_555 1_555
H20 C27 1_555 1_555
H21 C28 1_555 1_555
H22 C30 1_555 1_555
H23 C31 1_555 1_555
H24 C32 1_555 1_555
H25 C33 1_555 1_555
H26 C34 1_555 1_555
H27 C37 1_555 1_555
H28 C42 1_555 1_555
H29 C47 1_555 1_555
O2A Eu1 1_555 1_555
C4 C5 1_555 1_555
C10 C11 1_555 1_555
C16 C17 1_555 1_555
C18 C19 1_555 1_555
C21 C22 1_555 1_555
C27 C28 1_555 1_555
C33 C34 1_555 1_555
C37 C38 1_555 1_555
C42 C43 1_555 1_555
C47 C48 1_555 1_555

#END
