
#######################################################################
#
#                 Cambridge Crystallographic Data Centre
#                                CCDC 
#
#######################################################################
#
# If this CIF has been generated from an entry in the Cambridge 
# Structural Database, then it will include bibliographic, chemical, 
# crystal, experimental, refinement or atomic coordinate data resulting 
# from the CCDC's data processing and validation procedures.
#
#######################################################################

data_ICIYOI
_symmetry_cell_setting           monoclinic
_symmetry_space_group_name_H-M   'C 2/c'
_symmetry_Int_Tables_number      15
_space_group_name_Hall           '-C 2yn'
loop_
_symmetry_equiv_pos_site_id
_symmetry_equiv_pos_as_xyz
1 x,y,z
2 1/2+x,1/2+y,z
3 x,-y,1/2+z
4 1/2+x,1/2-y,1/2+z
5 -x,-y,-z
6 1/2-x,1/2-y,-z
7 -x,y,1/2-z
8 1/2-x,1/2+y,1/2-z
_cell_length_a                   15.267(4)
_cell_length_b                   11.903(2)
_cell_length_c                   10.380(2)
_cell_angle_alpha                90.00
_cell_angle_beta                 98.68(2)
_cell_angle_gamma                90.00
_cell_volume                     1864.68
loop_
_atom_site_label
_atom_site_type_symbol
_atom_site_fract_x
_atom_site_fract_y
_atom_site_fract_z
Zn1 Zn 0.42618(8) 0.36791(12) 0.56700(12)
Br1 Br 0.38897(11) 0.17518(12) 0.56231(16)
P1 P 0.37661(18) 0.4575(3) 0.8353(3)
O1 O 0.3757(5) 0.4633(7) 0.6896(7)
O2 O 0.4467(5) 0.3800(7) 0.9068(8)
O3 O 0.3785(5) 0.5737(7) 0.8933(7)
N1 N 0.2318(9) 0.3155(13) 0.7702(13)
C1 C 0.2699(7) 0.3950(10) 0.8575(10)
C2 C 0.2294(8) 0.4180(11) 0.9610(13)
H1 H 0.2566 0.4697 1.0214
C3 C 0.1547(8) 0.3735(13) 0.9835(15)
H2 H 0.1290 0.3948 1.0554
C4 C 0.1168(9) 0.2964(17) 0.900(2)
H3 H 0.0634 0.2641 0.9125
C5 C 0.1571(10) 0.2630(13) 0.7907(14)
H4 H 0.1325 0.2062 0.7352
O2F O 0.5533(5) 0.3800(7) 0.5932(8)
O3B O 0.3785(5) 0.4263(7) 0.3933(7)
Zn1F Zn 0.57382(8) 0.36791(12) 0.93300(12)
Zn1B Zn 0.42618(8) 0.63209(12) 1.06700(12)
loop_
_geom_bond_atom_site_label_1
_geom_bond_atom_site_label_2
_geom_bond_site_symmetry_1
_geom_bond_site_symmetry_2
Zn1 Br1 1_555 1_555
P1 O1 1_555 1_555
O1 Zn1 1_555 1_555
O2 P1 1_555 1_555
O3 P1 1_555 1_555
N1 C1 1_555 1_555
C1 P1 1_555 1_555
C2 C1 1_555 1_555
H1 C2 1_555 1_555
C3 C2 1_555 1_555
H2 C3 1_555 1_555
C4 C3 1_555 1_555
H3 C4 1_555 1_555
C5 N1 1_555 1_555
H4 C5 1_555 1_555
O2F Zn1 1_555 1_555
O3B Zn1 1_555 1_555
Zn1F O2 1_555 1_555
Zn1B O3 1_555 1_555
C4 C5 1_555 1_555

#END
