
#######################################################################
#
#                 Cambridge Crystallographic Data Centre
#                                CCDC 
#
#######################################################################
#
# If this CIF has been generated from an entry in the Cambridge 
# Structural Database, then it will include bibliographic, chemical, 
# crystal, experimental, refinement or atomic coordinate data resulting 
# from the CCDC's data processing and validation procedures.
#
#######################################################################

data_ICIZEZ
_symmetry_cell_setting           tetragonal
_symmetry_space_group_name_H-M   'I 41/a'
_symmetry_Int_Tables_number      88
_space_group_name_Hall           '-I 4ad'
loop_
_symmetry_equiv_pos_site_id
_symmetry_equiv_pos_as_xyz
1 x,y,z
2 3/4-y,1/4+x,1/4+z
3 1/2+x,1/2+y,1/2+z
4 1/4-y,3/4+x,3/4+z
5 1/4+y,1/4-x,1/4+z
6 1/2+x,y,1/2-z
7 1/4-y,1/4+x,1/4-z
8 x,1/2+y,-z
9 -x,-y,-z
10 1/4+y,3/4-x,3/4-z
11 1/2-x,1/2-y,1/2-z
12 3/4+y,1/4-x,1/4-z
13 3/4-y,3/4+x,3/4-z
14 1/2-x,-y,1/2+z
15 3/4+y,3/4-x,3/4+z
16 -x,1/2-y,z
_cell_length_a                   15.114(2)
_cell_length_b                   15.114(2)
_cell_length_c                   13.128(3)
_cell_angle_alpha                90
_cell_angle_beta                 90
_cell_angle_gamma                90
_cell_volume                     2998.87
loop_
_atom_site_label
_atom_site_type_symbol
_atom_site_fract_x
_atom_site_fract_y
_atom_site_fract_z
S1 S 1.0000(2) 0.2500(2) 0.6250(3)
O4 O 0.9278(2) 0.3128(2) 0.5882(3)
C6 C 0.9423(2) 0.2745(2) 0.5228(3)
O4F O 0.9372(2) 0.1778(2) 0.6618(3)
C6F C 0.9755(2) 0.1923(2) 0.7272(3)
O4K O 1.0628(2) 0.3222(2) 0.6618(3)
C6K C 1.0245(2) 0.3077(2) 0.7272(3)
O4O O 1.0722(2) 0.1872(2) 0.5882(3)
C6O C 1.0577(2) 0.2255(2) 0.5228(3)
Cd1 Cd 0.5000 0.5000 0.5000
P1 P 0.67352(5) 0.34971(5) 0.48419(7)
O1 O 0.58320(16) 0.38025(15) 0.4543(2)
O2 O 0.74073(17) 0.33924(18) 0.4002(2)
O3 O 0.71449(17) 0.41402(17) 0.5663(2)
N1 N 0.5985(2) 0.10151(19) 0.5672(2)
C1 C 0.6669(2) 0.2442(2) 0.5489(3)
C2 C 0.7279(3) 0.2199(3) 0.6219(5)
H1 H 0.7720 0.2595 0.6412
C3 C 0.7242(4) 0.1375(3) 0.6666(5)
H2 H 0.7653 0.1209 0.7157
C4 C 0.6583(3) 0.0803(3) 0.6369(4)
H3 H 0.6556 0.0246 0.6668
C5 C 0.6026(2) 0.1826(2) 0.5240(3)
H4 H 0.5604 0.1976 0.4754
P1H P 0.32648(5) 0.65029(5) 0.51581(7)
O1H O 0.41680(16) 0.61975(15) 0.5457(2)
O2H O 0.25927(17) 0.66076(18) 0.5998(2)
O3H O 0.28551(17) 0.58598(17) 0.4337(2)
N1H N 0.4015(2) 0.89849(19) 0.4328(2)
C1H C 0.3331(2) 0.7558(2) 0.4511(3)
C2H C 0.2721(3) 0.7801(3) 0.3781(5)
H1H H 0.2280 0.7405 0.3588
C3H C 0.2758(4) 0.8625(3) 0.3334(5)
H2H H 0.2347 0.8791 0.2843
C4H C 0.3417(3) 0.9197(3) 0.3631(4)
H3H H 0.3444 0.9754 0.3332
C5H C 0.3974(2) 0.8174(2) 0.4760(3)
H4H H 0.4396 0.8024 0.5246
P1D P 0.59971(5) 0.57648(5) 0.73419(7)
O1D O 0.63025(15) 0.66680(16) 0.7043(2)
O2D O 0.58924(18) 0.50927(17) 0.6502(2)
O3D O 0.66402(17) 0.53551(17) 0.8163(2)
N1D N 0.35151(19) 0.6515(2) 0.8172(2)
C1D C 0.4942(2) 0.5831(2) 0.7989(3)
C2D C 0.4699(3) 0.5221(3) 0.8719(5)
H1D H 0.5095 0.4780 0.8912
C3D C 0.3875(3) 0.5258(4) 0.9166(5)
H2D H 0.3709 0.4847 0.9657
C4D C 0.3303(3) 0.5917(3) 0.8869(4)
H3D H 0.2746 0.5944 0.9168
C5D C 0.4326(2) 0.6474(2) 0.7740(3)
H4D H 0.4476 0.6896 0.7254
P1L P 0.40029(5) 0.42352(5) 0.26581(7)
O1L O 0.36975(15) 0.33320(16) 0.2957(2)
O2L O 0.41076(18) 0.49073(17) 0.3498(2)
O3L O 0.33598(17) 0.46449(17) 0.1837(2)
N1L N 0.64849(19) 0.3485(2) 0.1828(2)
C1L C 0.5058(2) 0.4169(2) 0.2011(3)
C2L C 0.5301(3) 0.4779(3) 0.1281(5)
H1L H 0.4905 0.5220 0.1088
C3L C 0.6125(3) 0.4742(4) 0.0834(5)
H2L H 0.6291 0.5153 0.0343
C4L C 0.6697(3) 0.4083(3) 0.1131(4)
H3L H 0.7254 0.4056 0.0832
C5L C 0.5674(2) 0.3526(2) 0.2260(3)
H4L H 0.5524 0.3104 0.2746
Cd1D Cd 0.7500 0.7500 0.7500
N1G N 0.5985(2) 0.60151(19) 0.4328(2)
N1O N 0.4015(2) 0.39849(19) 0.5672(2)
Cd1C Cd 0.7500 0.2500 0.2500
Cd1G Cd 0.5000 0.0000 0.5000
Cd1A Cd 0.2500 0.7500 0.7500
Cd1G_2 Cd 0.5000 1.0000 0.5000
Cd1L Cd 0.2500 0.2500 0.2500
O1F O 0.86975(15) 0.83320(16) 0.7957(2)
O2G O 0.74073(17) 0.83924(18) 0.5998(2)
O2M O 0.75927(17) 0.66076(18) 0.9002(2)
N1A N 0.64849(19) 0.8485(2) 0.8172(2)
N1K N 0.85151(19) 0.6515(2) 0.6828(2)
C7? C 1.0000 0.2500 0.514(4)
loop_
_geom_bond_atom_site_label_1
_geom_bond_atom_site_label_2
_geom_bond_site_symmetry_1
_geom_bond_site_symmetry_2
Cd1 O1 1_555 1_555
P1 O1 1_555 1_555
O2 P1 1_555 1_555
O3 P1 1_555 1_555
N1 C4 1_555 1_555
C1 P1 1_555 1_555
C2 C1 1_555 1_555
H1 C2 1_555 1_555
C3 C2 1_555 1_555
H2 C3 1_555 1_555
C4 C3 1_555 1_555
H3 C4 1_555 1_555
C5 N1 1_555 1_555
H4 C5 1_555 1_555
S1 O4 1_555 1_555
O4 C6 1_555 1_555
C6 S1 1_555 1_555
O4F S1 1_555 1_555
C6F S1 1_555 1_555
O4K S1 1_555 1_555
C6K S1 1_555 1_555
O4O S1 1_555 1_555
C6O S1 1_555 1_555
P1H O1H 1_555 1_555
O1H Cd1 1_555 1_555
O2H P1H 1_555 1_555
O3H P1H 1_555 1_555
N1H C4H 1_555 1_555
C1H P1H 1_555 1_555
C2H C1H 1_555 1_555
H1H C2H 1_555 1_555
C3H C2H 1_555 1_555
H2H C3H 1_555 1_555
C4H C3H 1_555 1_555
H3H C4H 1_555 1_555
C5H N1H 1_555 1_555
H4H C5H 1_555 1_555
P1D O1D 1_555 1_555
O1D Cd1D 1_555 1_555
O2D Cd1 1_555 1_555
O3D P1D 1_555 1_555
N1D C4D 1_555 1_555
C1D P1D 1_555 1_555
C2D C1D 1_555 1_555
H1D C2D 1_555 1_555
C3D C2D 1_555 1_555
H2D C3D 1_555 1_555
C4D C3D 1_555 1_555
H3D C4D 1_555 1_555
C5D N1D 1_555 1_555
H4D C5D 1_555 1_555
P1L O1L 1_555 1_555
O1L Cd1L 1_555 1_555
O2L Cd1 1_555 1_555
O3L P1L 1_555 1_555
N1L C4L 1_555 1_555
C1L P1L 1_555 1_555
C2L C1L 1_555 1_555
H1L C2L 1_555 1_555
C3L C2L 1_555 1_555
H2L C3L 1_555 1_555
C4L C3L 1_555 1_555
H3L C4L 1_555 1_555
C5L N1L 1_555 1_555
H4L C5L 1_555 1_555
Cd1D O1F 1_555 1_555
N1G Cd1 1_555 1_555
N1O Cd1 1_555 1_555
Cd1C O2 1_555 1_555
Cd1G N1 1_555 1_555
Cd1A O2H 1_555 1_555
Cd1G_2 N1H 1_555 1_555
O2G Cd1D 1_555 1_555
O2M Cd1D 1_555 1_555
N1A Cd1D 1_555 1_555
N1K Cd1D 1_555 1_555
C1 C5 1_555 1_555
O4F C6F 1_555 1_555
O4K C6K 1_555 1_555
O4O C6O 1_555 1_555
C1H C5H 1_555 1_555
P1D O2D 1_555 1_555
N1D Cd1A 1_555 1_555
C1D C5D 1_555 1_555
P1L O2L 1_555 1_555
N1L Cd1C 1_555 1_555
C1L C5L 1_555 1_555

#END
