
#######################################################################
#
#                 Cambridge Crystallographic Data Centre
#                                CCDC 
#
#######################################################################
#
# If this CIF has been generated from an entry in the Cambridge 
# Structural Database, then it will include bibliographic, chemical, 
# crystal, experimental, refinement or atomic coordinate data resulting 
# from the CCDC's data processing and validation procedures.
#
#######################################################################

data_ICIZOJ
_symmetry_cell_setting           monoclinic
_symmetry_space_group_name_H-M   'P 21/n'
_symmetry_Int_Tables_number      14
_space_group_name_Hall           '-P 2yn'
loop_
_symmetry_equiv_pos_site_id
_symmetry_equiv_pos_as_xyz
1 x,y,z
2 1/2+x,1/2-y,1/2+z
3 -x,-y,-z
4 1/2-x,1/2+y,1/2-z
_cell_length_a                   5.6057(4)
_cell_length_b                   11.1980(8)
_cell_length_c                   14.1758(11)
_cell_angle_alpha                90.00
_cell_angle_beta                 94.5180(10)
_cell_angle_gamma                90.00
_cell_volume                     887.087
loop_
_atom_site_label
_atom_site_type_symbol
_atom_site_fract_x
_atom_site_fract_y
_atom_site_fract_z
Cd1 Cd -1.0000 1.0000 1.0000
P1 P -0.52769(16) 0.82493(8) 0.91844(6)
O1 O -0.7795(4) 0.8603(2) 0.93166(19)
O2 O -0.4677(4) 0.7203(2) 0.99388(18)
O3 O -0.3355(4) 0.9177(2) 0.92241(18)
C1 C -0.5246(6) 0.7480(3) 0.8060(3)
C2 C -0.7133(6) 0.6732(3) 0.7740(3)
H1 H -0.8478 0.6645 0.8102
C3 C -0.7044(6) 0.6119(3) 0.6897(3)
H2 H -0.8346 0.5614 0.6691
C4 C -0.3380(6) 0.6934(3) 0.6654(3)
H3 H -0.2064 0.7011 0.6275
C5 C -0.3347(7) 0.7576(3) 0.7488(3)
H4 H -0.2030 0.8082 0.7670
C6 C -0.2447(8) 0.6556(4) 0.9933(3)
H5 H -0.249(8) 0.606(4) 0.938(4)
H6 H -0.142(9) 0.710(4) 0.993(3)
C7 C -0.2263(11) 0.5749(4) 1.0789(4)
H7 H -0.254(8) 0.622(4) 1.138(3)
H8 H -0.347(13) 0.517(5) 1.075(5)
H9 H -0.103(11) 0.540(5) 1.085(4)
N1 N -0.5182(5) 0.6210(3) 0.6356(2)
P1B P -1.47231(16) 1.17507(8) 1.08156(6)
O1B O -1.2205(4) 1.1397(2) 1.06834(19)
O2B O -1.5323(4) 1.2797(2) 1.00612(18)
O3B O -1.6645(4) 1.0823(2) 1.07759(18)
C1B C -1.4754(6) 1.2520(3) 1.1940(3)
C2B C -1.2867(6) 1.3268(3) 1.2260(3)
H1B H -1.1522 1.3355 1.1898
C3B C -1.2956(6) 1.3881(3) 1.3103(3)
H2B H -1.1654 1.4386 1.3309
C4B C -1.6620(6) 1.3066(3) 1.3346(3)
H3B H -1.7936 1.2989 1.3725
C5B C -1.6653(7) 1.2424(3) 1.2512(3)
H4B H -1.7970 1.1918 1.2330
C6B C -1.7553(8) 1.3444(4) 1.0067(3)
H5B H -1.751(8) 1.394(4) 1.062(4)
H6B H -1.858(9) 1.290(4) 1.007(3)
C7B C -1.7737(11) 1.4251(4) 0.9211(4)
H7B H -1.746(8) 1.378(4) 0.862(3)
H8B H -1.653(13) 1.483(5) 0.925(5)
H9B H -1.897(11) 1.460(5) 0.915(4)
N1B N -1.4818(5) 1.3790(3) 1.3644(2)
O3_2 O -1.3355(4) 0.9177(2) 0.92241(18)
O3B_2 O -0.6645(4) 1.0823(2) 1.07759(18)
N1A N -1.0182(5) 0.8790(3) 1.1356(2)
N1C N -0.9818(5) 1.1210(3) 0.8644(2)
Cd1_2 Cd 0.0000 1.0000 1.0000
Cd1A Cd -0.5000 0.5000 0.5000
Cd1_3 Cd -2.0000 1.0000 1.0000
Cd1A_2 Cd -1.5000 1.5000 1.5000
loop_
_geom_bond_atom_site_label_1
_geom_bond_atom_site_label_2
_geom_bond_site_symmetry_1
_geom_bond_site_symmetry_2
Cd1 O1 1_555 1_555
P1 O1 1_555 1_555
O2 P1 1_555 1_555
O3 P1 1_555 1_555
C1 P1 1_555 1_555
C2 C1 1_555 1_555
H1 C2 1_555 1_555
C3 C2 1_555 1_555
H2 C3 1_555 1_555
C4 H3 1_555 1_555
C5 C1 1_555 1_555
H4 C5 1_555 1_555
C6 O2 1_555 1_555
H5 C6 1_555 1_555
H6 C6 1_555 1_555
C7 C6 1_555 1_555
H7 C7 1_555 1_555
H8 C7 1_555 1_555
H9 C7 1_555 1_555
N1 C3 1_555 1_555
P1B O1B 1_555 1_555
O1B Cd1 1_555 1_555
O2B P1B 1_555 1_555
O3B P1B 1_555 1_555
C1B P1B 1_555 1_555
C2B C1B 1_555 1_555
H1B C2B 1_555 1_555
C3B C2B 1_555 1_555
H2B C3B 1_555 1_555
C4B H3B 1_555 1_555
C5B C1B 1_555 1_555
H4B C5B 1_555 1_555
C6B O2B 1_555 1_555
H5B C6B 1_555 1_555
H6B C6B 1_555 1_555
C7B C6B 1_555 1_555
H7B C7B 1_555 1_555
H8B C7B 1_555 1_555
H9B C7B 1_555 1_555
N1B C3B 1_555 1_555
O3_2 Cd1 1_555 1_555
O3B_2 Cd1 1_555 1_555
N1A Cd1 1_555 1_555
N1C Cd1 1_555 1_555
Cd1_2 O3 1_555 1_555
Cd1A N1 1_555 1_555
Cd1_3 O3B 1_555 1_555
Cd1A_2 N1B 1_555 1_555
C4 N1 1_555 1_555
C4 C5 1_555 1_555
C4B N1B 1_555 1_555
C4B C5B 1_555 1_555

#END
