
#######################################################################
#
#                 Cambridge Crystallographic Data Centre
#                                CCDC 
#
#######################################################################
#
# If this CIF has been generated from an entry in the Cambridge 
# Structural Database, then it will include bibliographic, chemical, 
# crystal, experimental, refinement or atomic coordinate data resulting 
# from the CCDC's data processing and validation procedures.
#
#######################################################################

data_ICNPCU10
_symmetry_cell_setting           triclinic
_symmetry_space_group_name_H-M   'P -1'
_symmetry_Int_Tables_number      2
_space_group_name_Hall           '-P 1'
loop_
_symmetry_equiv_pos_site_id
_symmetry_equiv_pos_as_xyz
1 x,y,z
2 -x,-y,-z
_cell_length_a                   8.487(3)
_cell_length_b                   8.349(3)
_cell_length_c                   12.346(4)
_cell_angle_alpha                102.44(3)
_cell_angle_beta                 82.69(3)
_cell_angle_gamma                120.84(3)
_cell_volume                     733.334
loop_
_atom_site_label
_atom_site_type_symbol
_atom_site_fract_x
_atom_site_fract_y
_atom_site_fract_z
Cu1 Cu 0.00000 0.00000 0.00000
Cu2 Cu 0.00000 0.00000 -0.50000
N1 N 0.05320 0.06230 -0.14880
N2 N 0.24720 0.04570 -0.54400
N3 N 0.27000 0.16560 0.03690
N4 N 0.05650 0.23050 -0.56110
N5 N 0.72180 0.28650 -0.09500
N6 N -0.17740 0.36940 -0.71790
C1 C 0.07790 0.13950 -0.22170
C2 C 0.34780 0.03510 -0.61240
C3 C 0.31870 0.29230 0.13080
C4 C 0.50180 0.42970 0.15300
C5 C 0.63640 0.43030 0.07740
C6 C 0.58670 0.29430 -0.01870
C7 C 0.40020 0.16440 -0.03670
C8 C -0.07150 0.22850 -0.61500
C9 C -0.04260 0.38320 -0.65700
C10 C 0.12810 0.54790 -0.64050
C11 C 0.25870 0.54980 -0.58490
C12 C 0.22100 0.39020 -0.54690
O1 O 0.10820 0.21640 -0.30120
O2 O 0.45430 0.02140 -0.68380
O3 O -0.04120 0.28860 0.06190
H1 H -0.11100 0.26200 0.12500
H2 H -0.11300 0.26200 0.00200
H3 H 0.81800 0.42000 -0.10800
H4 H 0.68900 0.21100 -0.16900
H5 H -0.17700 0.47800 -0.71200
H6 H -0.31000 0.26800 -0.71000
H7 H 0.19900 0.28600 0.18300
H8 H 0.53400 0.54800 0.22100
H9 H 0.76500 0.53000 0.08600
H10 H 0.35400 0.06200 -0.11100
H11 H -0.19700 0.10400 -0.63000
H12 H 0.31100 0.38100 -0.50400
H13 H 0.37800 0.65200 -0.57500
H14 H 0.16500 0.68500 -0.66200
N1A N -0.05320 -0.06230 0.14880
C1A C -0.07790 -0.13950 0.22170
O1A O -0.10820 -0.21640 0.30120
N3A N -0.27000 -0.16560 -0.03690
N5A N -0.72180 -0.28650 0.09500
C3A C -0.31870 -0.29230 -0.13080
C4A C -0.50180 -0.42970 -0.15300
C5A C -0.63640 -0.43030 -0.07740
C6A C -0.58670 -0.29430 0.01870
C7A C -0.40020 -0.16440 0.03670
H3A H -0.81800 -0.42000 0.10800
H4A H -0.68900 -0.21100 0.16900
H7A H -0.19900 -0.28600 -0.18300
H8A H -0.53400 -0.54800 -0.22100
H9A H -0.76500 -0.53000 -0.08600
H10A H -0.35400 -0.06200 0.11100
O3A O 0.04120 -0.28860 -0.06190
H1A H 0.11100 -0.26200 -0.12500
H2A H 0.11300 -0.26200 -0.00200
N2A N -0.24720 -0.04570 -0.45600
C2A C -0.34780 -0.03510 -0.38760
O2A O -0.45430 -0.02140 -0.31620
N4A N -0.05650 -0.23050 -0.43890
N6A N 0.17740 -0.36940 -0.28210
C8A C 0.07150 -0.22850 -0.38500
C9A C 0.04260 -0.38320 -0.34300
C10A C -0.12810 -0.54790 -0.35950
C11A C -0.25870 -0.54980 -0.41510
C12A C -0.22100 -0.39020 -0.45310
H5A H 0.17700 -0.47800 -0.28800
H6A H 0.31000 -0.26800 -0.29000
H11A H 0.19700 -0.10400 -0.37000
H12A H -0.31100 -0.38100 -0.49600
H13A H -0.37800 -0.65200 -0.42500
H14A H -0.16500 -0.68500 -0.33800
O1A_2 O -0.10820 -0.21640 -0.69880
Cu2_2 Cu 0.00000 0.00000 0.50000
loop_
_geom_bond_atom_site_label_1
_geom_bond_atom_site_label_2
_geom_bond_site_symmetry_1
_geom_bond_site_symmetry_2
Cu1 N1 1_555 1_555
Cu2 N2 1_555 1_555
N1 C1 1_555 1_555
N2 C2 1_555 1_555
N3 Cu1 1_555 1_555
N4 Cu2 1_555 1_555
N5 C6 1_555 1_555
N6 C9 1_555 1_555
C1 O1 1_555 1_555
C2 O2 1_555 1_555
C3 N3 1_555 1_555
C4 C3 1_555 1_555
C5 C4 1_555 1_555
C6 C5 1_555 1_555
C7 N3 1_555 1_555
C8 N4 1_555 1_555
C9 C8 1_555 1_555
C10 C9 1_555 1_555
C11 C10 1_555 1_555
C12 N4 1_555 1_555
O1 Cu2 1_555 1_555
O3 Cu1 1_555 1_555
H1 O3 1_555 1_555
H2 O3 1_555 1_555
H3 N5 1_555 1_555
H4 N5 1_555 1_555
H5 N6 1_555 1_555
H6 N6 1_555 1_555
H7 C3 1_555 1_555
H8 C4 1_555 1_555
H9 C5 1_555 1_555
H10 C7 1_555 1_555
H11 C8 1_555 1_555
H12 C12 1_555 1_555
H13 C11 1_555 1_555
H14 C10 1_555 1_555
N1A Cu1 1_555 1_555
C1A N1A 1_555 1_555
O1A C1A 1_555 1_555
N3A Cu1 1_555 1_555
N5A C6A 1_555 1_555
C3A N3A 1_555 1_555
C4A C3A 1_555 1_555
C5A C4A 1_555 1_555
C6A C5A 1_555 1_555
C7A N3A 1_555 1_555
H3A N5A 1_555 1_555
H4A N5A 1_555 1_555
H7A C3A 1_555 1_555
H8A C4A 1_555 1_555
H9A C5A 1_555 1_555
H10A C7A 1_555 1_555
O3A Cu1 1_555 1_555
H1A O3A 1_555 1_555
H2A O3A 1_555 1_555
N2A Cu2 1_555 1_555
C2A N2A 1_555 1_555
O2A C2A 1_555 1_555
N4A Cu2 1_555 1_555
N6A C9A 1_555 1_555
C8A N4A 1_555 1_555
C9A C8A 1_555 1_555
C10A C9A 1_555 1_555
C11A C10A 1_555 1_555
C12A N4A 1_555 1_555
H5A N6A 1_555 1_555
H6A N6A 1_555 1_555
H11A C8A 1_555 1_555
H12A C12A 1_555 1_555
H13A C11A 1_555 1_555
H14A C10A 1_555 1_555
O1A_2 Cu2 1_555 1_555
Cu2_2 O1A 1_555 1_555
C6 C7 1_555 1_555
C11 C12 1_555 1_555
C6A C7A 1_555 1_555
C11A C12A 1_555 1_555

#END
