
#######################################################################
#
#                 Cambridge Crystallographic Data Centre
#                                CCDC 
#
#######################################################################
#
# If this CIF has been generated from an entry in the Cambridge 
# Structural Database, then it will include bibliographic, chemical, 
# crystal, experimental, refinement or atomic coordinate data resulting 
# from the CCDC's data processing and validation procedures.
#
#######################################################################

data_ICOBIN
_symmetry_cell_setting           monoclinic
_symmetry_space_group_name_H-M   'P 21/c'
_symmetry_Int_Tables_number      14
_space_group_name_Hall           '-P 2ybc'
loop_
_symmetry_equiv_pos_site_id
_symmetry_equiv_pos_as_xyz
1 x,y,z
2 -x,1/2+y,1/2-z
3 -x,-y,-z
4 x,1/2-y,1/2+z
_cell_length_a                   9.357(8)
_cell_length_b                   16.212(14)
_cell_length_c                   12.732(11)
_cell_angle_alpha                90
_cell_angle_beta                 127.562(14)
_cell_angle_gamma                90
_cell_volume                     1531
loop_
_atom_site_label
_atom_site_type_symbol
_atom_site_fract_x
_atom_site_fract_y
_atom_site_fract_z
Mn1 Mn 1.5000 0.5000 1.0000
O1 O 0.7632(4) 0.61185(17) 0.6452(3)
O2 O 0.4635(4) 0.44757(17) 0.2352(3)
O3 O 0.3788(4) 0.54678(17) 0.0849(3)
O4 O 1.5530(4) 0.37830(17) 1.0879(3)
N1 N 1.2197(4) 0.4646(2) 0.8074(3)
N2 N 0.8960(5) 0.4366(2) 0.5578(3)
N3 N 0.4683(4) 0.5860(2) 0.3831(3)
C1 C 1.1971(6) 0.4008(2) 0.7324(4)
H1 H 1.2943 0.3635 0.7656
C2 C 1.0368(6) 0.3873(3) 0.6078(4)
H2 H 1.0274 0.3417 0.5571
C3 C 1.0770(6) 0.5137(2) 0.7582(4)
H3 H 1.0859 0.5590 0.8091
C4 C 0.9168(6) 0.4993(2) 0.6341(4)
C5 C 0.7582(5) 0.5555(2) 0.5783(4)
C6 C 0.3578(5) 0.5748(2) 0.2573(4)
C7 C 0.1911(5) 0.6245(2) 0.1818(4)
C8 C 0.0560(5) 0.6114(2) 0.0471(4)
H4 H 0.0704 0.5695 0.0021
C9 C -0.1003(6) 0.6594(3) -0.0224(4)
H5 H -0.1916 0.6501 -0.1143
C10 C -0.1223(6) 0.7206(3) 0.0425(4)
H6 H -0.2284 0.7534 -0.0046
C11 C 0.0115(6) 0.7336(3) 0.1765(5)
H7 H -0.0036 0.7752 0.2215
C12 C 0.1658(6) 0.6868(3) 0.2448(4)
H8 H 0.2569 0.6970 0.3365
C13 C 0.4008(5) 0.5167(2) 0.1859(4)
H13 H 1.521(6) 0.328(2) 1.039(5)
H14 H 1.508(7) 0.379(3) 1.137(5)
N4 N 0.6222(4) 0.5387(2) 0.4514(3)
H15 H 0.6314 0.4970 0.4116
Mn1_2 Mn 0.5000 0.5000 0.0000
O1B O 1.2368(4) 0.38815(17) 0.3548(3)
O2B O 1.5365(4) 0.55243(17) 0.7648(3)
O3B O 1.6212(4) 0.45322(17) 0.9151(3)
O3_2 O 1.3788(4) 0.54678(17) 1.0849(3)
O4B O 1.4470(4) 0.62170(17) 0.9121(3)
N1B N 0.7803(4) 0.5354(2) 0.1926(3)
N1B_2 N 1.7803(4) 0.5354(2) 1.1926(3)
N2B N 1.1040(5) 0.5634(2) 0.4422(3)
N3B N 1.5317(4) 0.4140(2) 0.6169(3)
C1B C 0.8029(6) 0.5992(2) 0.2676(4)
H1B H 0.7057 0.6365 0.2344
C2B C 0.9632(6) 0.6127(3) 0.3922(4)
H2B H 0.9726 0.6583 0.4429
C3B C 0.9230(6) 0.4863(2) 0.2418(4)
H3B H 0.9141 0.4410 0.1909
C4B C 1.0832(6) 0.5007(2) 0.3659(4)
C5B C 1.2418(5) 0.4445(2) 0.4217(4)
C6B C 1.6422(5) 0.4252(2) 0.7427(4)
C7B C 1.8089(5) 0.3755(2) 0.8182(4)
C8B C 1.9440(5) 0.3886(2) 0.9529(4)
H4B H 1.9296 0.4305 0.9979
C9B C 2.1003(6) 0.3406(3) 1.0224(4)
H5B H 2.1916 0.3499 1.1143
C10B C 2.1223(6) 0.2794(3) 0.9575(4)
H6B H 2.2284 0.2466 1.0046
C11B C 1.9885(6) 0.2664(3) 0.8235(5)
H7B H 2.0036 0.2248 0.7785
C12B C 1.8342(6) 0.3132(3) 0.7552(4)
H8B H 1.7431 0.3030 0.6635
C13B C 1.5992(5) 0.4833(2) 0.8141(4)
H13B H 1.479(6) 0.672(2) 0.961(5)
H14B H 1.492(7) 0.621(3) 0.863(5)
N4B N 1.3778(4) 0.4613(2) 0.5486(3)
H15B H 1.3686 0.5030 0.5884
O5 O 0.5376(4) 0.74714(18) 0.5760(3)
C14 C 0.4218(6) 0.7357(3) 0.6113(5)
H9 H 0.4931 0.7350 0.7080
H10 H 0.3576 0.6832 0.5751
H11 H 0.3344 0.7810 0.5751
H12 H 0.602(6) 0.697(2) 0.594(5)
loop_
_geom_bond_atom_site_label_1
_geom_bond_atom_site_label_2
_geom_bond_site_symmetry_1
_geom_bond_site_symmetry_2
Mn1 O4 1_555 1_555
O1 C5 1_555 1_555
O2 C13 1_555 1_555
O3 C13 1_555 1_555
O4 H13 1_555 1_555
O5 C14 1_555 1_555
N1 Mn1 1_555 1_555
N2 C2 1_555 1_555
N3 C6 1_555 1_555
C1 N1 1_555 1_555
H1 C1 1_555 1_555
C2 C1 1_555 1_555
H2 C2 1_555 1_555
C3 N1 1_555 1_555
H3 C3 1_555 1_555
C4 N2 1_555 1_555
C5 C4 1_555 1_555
C6 C7 1_555 1_555
C7 C8 1_555 1_555
C8 H4 1_555 1_555
C9 C8 1_555 1_555
H5 C9 1_555 1_555
C10 C9 1_555 1_555
H6 C10 1_555 1_555
C11 C10 1_555 1_555
H7 C11 1_555 1_555
C12 C7 1_555 1_555
H8 C12 1_555 1_555
C13 C6 1_555 1_555
C14 H9 1_555 1_555
H10 C14 1_555 1_555
H11 C14 1_555 1_555
H12 O5 1_555 1_555
H14 O4 1_555 1_555
N4 N3 1_555 1_555
H15 N4 1_555 1_555
Mn1_2 O3 1_555 1_555
O1B C5B 1_555 1_555
O2B C13B 1_555 1_555
O3B Mn1 1_555 1_555
O3_2 Mn1 1_555 1_555
O4B Mn1 1_555 1_555
N1B Mn1_2 1_555 1_555
N1B_2 Mn1 1_555 1_555
N2B C2B 1_555 1_555
N3B C6B 1_555 1_555
C1B N1B 1_555 1_555
H1B C1B 1_555 1_555
C2B C1B 1_555 1_555
H2B C2B 1_555 1_555
C3B N1B 1_555 1_555
H3B C3B 1_555 1_555
C4B N2B 1_555 1_555
C5B C4B 1_555 1_555
C6B C7B 1_555 1_555
C7B C8B 1_555 1_555
C8B H4B 1_555 1_555
C9B C8B 1_555 1_555
H5B C9B 1_555 1_555
C10B C9B 1_555 1_555
H6B C10B 1_555 1_555
C11B C10B 1_555 1_555
H7B C11B 1_555 1_555
C12B C7B 1_555 1_555
H8B C12B 1_555 1_555
C13B O3B 1_555 1_555
H13B O4B 1_555 1_555
H14B O4B 1_555 1_555
N4B N3B 1_555 1_555
H15B N4B 1_555 1_555
C3 C4 1_555 1_555
C5 N4 1_555 1_555
C11 C12 1_555 1_555
C3B C4B 1_555 1_555
C5B N4B 1_555 1_555
C6B C13B 1_555 1_555
C11B C12B 1_555 1_555

#END
