
#######################################################################
#
#                 Cambridge Crystallographic Data Centre
#                                CCDC 
#
#######################################################################
#
# If this CIF has been generated from an entry in the Cambridge 
# Structural Database, then it will include bibliographic, chemical, 
# crystal, experimental, refinement or atomic coordinate data resulting 
# from the CCDC's data processing and validation procedures.
#
#######################################################################

data_ICOCAF
_symmetry_cell_setting           triclinic
_symmetry_space_group_name_H-M   'P -1'
_symmetry_Int_Tables_number      2
_space_group_name_Hall           '-P 1'
loop_
_symmetry_equiv_pos_site_id
_symmetry_equiv_pos_as_xyz
1 x,y,z
2 -x,-y,-z
_cell_length_a                   12.2254(9)
_cell_length_b                   12.3221(10)
_cell_length_c                   14.6164(10)
_cell_angle_alpha                67.236(4)
_cell_angle_beta                 73.364(4)
_cell_angle_gamma                77.756(4)
_cell_volume                     1932.53
loop_
_atom_site_label
_atom_site_type_symbol
_atom_site_fract_x
_atom_site_fract_y
_atom_site_fract_z
Ni1 Ni 1.0000 0.0000 0.5000
Ni2 Ni 0.5000 0.5000 0.0000
Ni3 Ni 1.0000 0.0000 0.0000
Ni4 Ni 0.5000 0.5000 0.5000
C1 C 0.8168(4) 0.3261(4) 0.2082(3)
C2 C 0.7900(4) 0.4454(4) 0.1503(3)
C3 C 0.8735(4) 0.5227(4) 0.1106(4)
H1 H 0.8563 0.6003 0.0693
C4 C 0.9818(5) 0.4864(5) 0.1312(4)
H2 H 1.0371 0.5388 0.1042
C5 C 1.0060(4) 0.3707(4) 0.1929(4)
H3 H 1.0772 0.3466 0.2099
C6 C 0.9266(4) 0.2895(4) 0.2299(3)
C7 C 0.7281(3) 0.2421(4) 0.2458(3)
C8 C 0.6372(4) 0.2403(4) 0.3312(3)
C9 C 0.5543(4) 0.1642(5) 0.3625(4)
H4 H 0.4928 0.1659 0.4171
C10 C 0.5620(4) 0.0859(5) 0.3136(4)
H5 H 0.5073 0.0334 0.3365
C11 C 0.6511(4) 0.0858(4) 0.2307(4)
H6 H 0.6570 0.0321 0.1985
C12 C 0.7323(4) 0.1652(4) 0.1948(3)
C13 C 0.6722(4) 0.4915(4) 0.1273(3)
C14 C 0.9640(4) 0.1630(4) 0.2896(3)
C15 C 0.6313(4) 0.3123(4) 0.3973(3)
C16 C 0.8272(4) 0.1632(4) 0.0999(4)
C17 C 1.2024(7) -0.0952(7) 0.3960(6)
H7 H 1.2799 -0.1358 0.3910
H8 H 1.1978 -0.0344 0.3304
C18 C 1.1185(8) -0.1810(7) 0.4242(6)
H9 H 1.1259 -0.2434 0.4884
H10 H 1.1350 -0.2169 0.3725
C19 C 1.0924(8) 0.1935(6) 0.5224(6)
H11 H 1.0870 0.2442 0.4536
H12 H 1.0837 0.2438 0.5618
C20 C 1.2069(8) 0.1234(8) 0.5197(7)
H13 H 1.2633 0.1767 0.5036
H14 H 1.2074 0.0666 0.5877
C21 C 1.2455(6) 0.0574(7) 0.4471(7)
H15 H 1.2417 0.1129 0.3793
H16 H 1.3253 0.0252 0.4460
C22 C 0.2967(5) 0.5157(6) 0.1688(4)
H17 H 0.2447 0.5300 0.1251
H18 H 0.2589 0.5530 0.2191
C23 C 0.3195(5) 0.3838(6) 0.2228(5)
H19 H 0.2504 0.3568 0.2732
H20 H 0.3792 0.3699 0.2591
C24 C 0.3559(5) 0.3081(6) 0.1555(5)
H21 H 0.3541 0.2252 0.1980
H22 H 0.3017 0.3279 0.1126
C25 C 0.4902(6) 0.7408(5) -0.0206(5)
H23 H 0.5497 0.7293 0.0153
H24 H 0.4768 0.8247 -0.0588
C26 C 0.3802(5) 0.6979(5) 0.0554(5)
H25 H 0.3189 0.7155 0.0201
H26 H 0.3572 0.7383 0.1044
C27 C 1.0615(7) -0.1769(6) 0.1738(5)
H27 H 1.0720 -0.2030 0.2428
H28 H 1.1206 -0.2210 0.1372
C28 C 0.9464(7) -0.2007(6) 0.1763(5)
H29 H 0.9400 -0.2849 0.2085
H30 H 0.8872 -0.1597 0.2157
C29 C 0.8139(5) -0.1583(6) 0.0645(6)
H31 H 0.7613 -0.1083 0.0994
H32 H 0.7916 -0.2379 0.0978
C30 C 0.8041(6) -0.1127(8) -0.0458(7)
H33 H 0.8645 -0.1559 -0.0823
H34 H 0.7311 -0.1301 -0.0475
C31 C 0.8120(6) 0.0174(8) -0.1008(6)
H35 H 0.7876 0.0414 -0.1641
H36 H 0.7596 0.0606 -0.0595
C32 C 0.2408(5) 0.4058(6) 0.5910(5)
H37 H 0.1760 0.3626 0.6071
H38 H 0.2161 0.4648 0.6235
C33 C 0.2722(5) 0.4694(6) 0.4759(5)
H39 H 0.3091 0.4120 0.4429
H40 H 0.2028 0.5076 0.4517
C34 C 0.3842(5) 0.6230(6) 0.3392(4)
H41 H 0.3189 0.6746 0.3148
H42 H 0.4109 0.5675 0.3030
C35 C 0.4793(5) 0.6957(5) 0.3196(4)
H43 H 0.5052 0.7362 0.2470
H44 H 0.4512 0.7548 0.3520
C36 C 0.3373(5) 0.3191(5) 0.6367(5)
H45 H 0.3727 0.2688 0.5965
H46 H 0.3053 0.2689 0.7054
N1 N 1.1761(4) -0.0433(5) 0.4717(4)
N2 N 0.9983(5) -0.1194(4) 0.4339(4)
N3 N 0.4002(4) 0.5700(4) 0.1080(3)
N4 N 0.4726(4) 0.3265(4) 0.0906(3)
N5 N 0.9310(4) -0.1599(4) 0.0729(4)
N6 N 1.0727(4) -0.0495(5) 0.1235(4)
N7 N 0.3499(4) 0.5585(4) 0.4487(3)
N8 N 0.4256(4) 0.3832(4) 0.6391(3)
O1 O 0.6485(3) 0.4685(3) 0.0594(3)
O2 O 0.6073(3) 0.5529(4) 0.1754(3)
O3 O 1.0114(3) 0.1463(3) 0.3608(3)
O4 O 0.9468(3) 0.0818(3) 0.2662(3)
O5 O 0.5348(3) 0.3656(3) 0.4265(3)
O6 O 0.7213(3) 0.3079(4) 0.4222(3)
O7 O 0.8500(3) 0.0651(3) 0.0862(3)
O8 O 0.8711(3) 0.2548(3) 0.0438(2)
H47 H 1.197(4) -0.097(4) 0.526(3)
H48 H 0.989(5) -0.072(4) 0.372(2)
H49 H 0.448(4) 0.557(5) 0.147(3)
H50 H 0.523(4) 0.302(5) 0.128(4)
H51 H 0.979(4) -0.198(4) 0.035(3)
H52 H 1.022(4) -0.014(4) 0.162(3)
H53 H 0.319(4) 0.616(3) 0.473(4)
H54 H 0.397(4) 0.418(4) 0.685(3)
Ni2_2 Ni 1.5000 -0.5000 1.0000
Ni3_2 Ni 1.0000 0.0000 1.0000
Ni4_2 Ni 1.5000 -0.5000 0.5000
C1A C 1.1832(4) -0.3261(4) 0.7918(3)
C2A C 1.2100(4) -0.4454(4) 0.8497(3)
C3A C 1.1265(4) -0.5227(4) 0.8894(4)
H1A H 1.1437 -0.6003 0.9307
C4A C 1.0182(5) -0.4864(5) 0.8688(4)
H2A H 0.9629 -0.5388 0.8958
C5A C 0.9940(4) -0.3707(4) 0.8071(4)
H3A H 0.9228 -0.3466 0.7901
C6A C 1.0734(4) -0.2895(4) 0.7701(3)
C7A C 1.2719(3) -0.2421(4) 0.7542(3)
C8A C 1.3628(4) -0.2403(4) 0.6688(3)
C9A C 1.4457(4) -0.1642(5) 0.6375(4)
H4A H 1.5072 -0.1659 0.5829
C10A C 1.4380(4) -0.0859(5) 0.6864(4)
H5A H 1.4927 -0.0334 0.6635
C11A C 1.3489(4) -0.0858(4) 0.7693(4)
H6A H 1.3430 -0.0321 0.8015
C12A C 1.2677(4) -0.1652(4) 0.8052(3)
C13A C 1.3278(4) -0.4915(4) 0.8727(3)
C14A C 1.0360(4) -0.1630(4) 0.7104(3)
C15A C 1.3687(4) -0.3123(4) 0.6027(3)
C16A C 1.1728(4) -0.1632(4) 0.9001(4)
C17A C 0.7976(7) 0.0952(7) 0.6040(6)
H7A H 0.7201 0.1358 0.6090
H8A H 0.8022 0.0344 0.6696
C18A C 0.8815(8) 0.1810(7) 0.5758(6)
H9A H 0.8741 0.2434 0.5116
H10A H 0.8650 0.2169 0.6275
C19A C 0.9076(8) -0.1935(6) 0.4776(6)
H11A H 0.9130 -0.2442 0.5464
H12A H 0.9163 -0.2438 0.4382
C20A C 0.7931(8) -0.1234(8) 0.4803(7)
H13A H 0.7367 -0.1767 0.4964
H14A H 0.7926 -0.0666 0.4123
C21A C 0.7545(6) -0.0574(7) 0.5529(7)
H15A H 0.7583 -0.1129 0.6207
H16A H 0.6747 -0.0252 0.5540
C22A C 0.7033(5) 0.4843(6) -0.1688(4)
H17A H 0.7553 0.4700 -0.1251
H18A H 0.7411 0.4470 -0.2191
C23A C 0.6805(5) 0.6162(6) -0.2228(5)
H19A H 0.7496 0.6432 -0.2732
H20A H 0.6208 0.6301 -0.2591
C24A C 0.6441(5) 0.6919(6) -0.1555(5)
H21A H 0.6459 0.7748 -0.1980
H22A H 0.6983 0.6721 -0.1126
C25A C 0.5098(6) 0.2592(5) 0.0206(5)
H23A H 0.4503 0.2707 -0.0153
H24A H 0.5232 0.1753 0.0588
C26A C 0.6198(5) 0.3021(5) -0.0554(5)
H25A H 0.6811 0.2845 -0.0201
H26A H 0.6428 0.2617 -0.1044
C27A C 0.9385(7) 0.1769(6) -0.1738(5)
H27A H 0.9280 0.2030 -0.2428
H28A H 0.8794 0.2210 -0.1372
C28A C 1.0536(7) 0.2007(6) -0.1763(5)
H29A H 1.0600 0.2849 -0.2085
H30A H 1.1128 0.1597 -0.2157
C29A C 1.1861(5) 0.1583(6) -0.0645(6)
H31A H 1.2387 0.1083 -0.0994
H32A H 1.2084 0.2379 -0.0978
C30A C 1.1959(6) 0.1127(8) 0.0458(7)
H33A H 1.1355 0.1559 0.0823
H34A H 1.2689 0.1301 0.0475
C31A C 1.1880(6) -0.0174(8) 0.1008(6)
H35A H 1.2124 -0.0414 0.1641
H36A H 1.2404 -0.0606 0.0595
C32A C 0.7592(5) 0.5942(6) 0.4090(5)
H37A H 0.8240 0.6374 0.3929
H38A H 0.7839 0.5352 0.3765
C33A C 0.7278(5) 0.5306(6) 0.5241(5)
H39A H 0.6909 0.5880 0.5571
H40A H 0.7972 0.4924 0.5483
C34A C 0.6158(5) 0.3770(6) 0.6608(4)
H41A H 0.6811 0.3254 0.6852
H42A H 0.5891 0.4325 0.6970
C35A C 0.5207(5) 0.3043(5) 0.6804(4)
H43A H 0.4948 0.2638 0.7530
H44A H 0.5488 0.2452 0.6480
C36A C 0.6627(5) 0.6809(5) 0.3633(5)
H45A H 0.6273 0.7312 0.4035
H46A H 0.6947 0.7311 0.2946
N1A N 0.8239(4) 0.0433(5) 0.5283(4)
N2A N 1.0017(5) 0.1194(4) 0.5661(4)
N3A N 0.5998(4) 0.4300(4) -0.1080(3)
N4A N 0.5274(4) 0.6735(4) -0.0906(3)
N5A N 1.0690(4) 0.1599(4) -0.0729(4)
N6A N 0.9273(4) 0.0495(5) -0.1235(4)
N7A N 0.6501(4) 0.4415(4) 0.5513(3)
N8A N 0.5744(4) 0.6168(4) 0.3609(3)
O1A O 1.3515(3) -0.4685(3) 0.9406(3)
O1A_2 O 0.3515(3) 0.5315(3) -0.0594(3)
O2A O 1.3927(3) -0.5529(4) 0.8246(3)
O3A O 0.9886(3) -0.1463(3) 0.6392(3)
O4A O 1.0532(3) -0.0818(3) 0.7338(3)
O5A O 1.4652(3) -0.3656(3) 0.5735(3)
O5A_2 O 0.4652(3) 0.6344(3) 0.5735(3)
O6A O 1.2787(3) -0.3079(4) 0.5778(3)
O7A O 1.1500(3) -0.0651(3) 0.9138(3)
O7A_2 O 1.1500(3) -0.0651(3) -0.0862(3)
O8A O 1.1289(3) -0.2548(3) 0.9562(2)
H47A H 0.803(4) 0.097(4) 0.474(3)
H48A H 1.011(5) 0.072(4) 0.628(2)
H49A H 0.552(4) 0.443(5) -0.147(3)
H50A H 0.477(4) 0.698(5) -0.128(4)
H51A H 1.021(4) 0.198(4) -0.035(3)
H52A H 0.978(4) 0.014(4) -0.162(3)
H53A H 0.681(4) 0.384(3) 0.527(4)
H54A H 0.603(4) 0.582(4) 0.315(3)
loop_
_geom_bond_atom_site_label_1
_geom_bond_atom_site_label_2
_geom_bond_site_symmetry_1
_geom_bond_site_symmetry_2
Ni1 N1 1_555 1_555
Ni2 N3 1_555 1_555
Ni3 N5 1_555 1_555
Ni4 N7 1_555 1_555
C1 C2 1_555 1_555
C2 C3 1_555 1_555
C3 H1 1_555 1_555
C4 C3 1_555 1_555
H2 C4 1_555 1_555
C5 C4 1_555 1_555
H3 C5 1_555 1_555
C6 C1 1_555 1_555
C7 C1 1_555 1_555
C8 C7 1_555 1_555
C9 C8 1_555 1_555
H4 C9 1_555 1_555
C10 C9 1_555 1_555
H5 C10 1_555 1_555
C11 C10 1_555 1_555
H6 C11 1_555 1_555
C12 C7 1_555 1_555
C13 C2 1_555 1_555
C14 C6 1_555 1_555
C15 C8 1_555 1_555
C16 C12 1_555 1_555
C17 H7 1_555 1_555
H8 C17 1_555 1_555
C18 C17 1_555 1_555
H9 C18 1_555 1_555
H10 C18 1_555 1_555
C19 H11 1_555 1_555
H12 C19 1_555 1_555
C20 C19 1_555 1_555
H13 C20 1_555 1_555
H14 C20 1_555 1_555
C21 C20 1_555 1_555
H15 C21 1_555 1_555
H16 C21 1_555 1_555
C22 H17 1_555 1_555
H18 C22 1_555 1_555
C23 C22 1_555 1_555
H19 C23 1_555 1_555
H20 C23 1_555 1_555
C24 C23 1_555 1_555
H21 C24 1_555 1_555
H22 C24 1_555 1_555
C25 H23 1_555 1_555
H24 C25 1_555 1_555
C26 C25 1_555 1_555
H25 C26 1_555 1_555
H26 C26 1_555 1_555
C27 H27 1_555 1_555
H28 C27 1_555 1_555
C28 C27 1_555 1_555
H29 C28 1_555 1_555
H30 C28 1_555 1_555
C29 H31 1_555 1_555
H32 C29 1_555 1_555
C30 C29 1_555 1_555
H33 C30 1_555 1_555
H34 C30 1_555 1_555
C31 C30 1_555 1_555
H35 C31 1_555 1_555
H36 C31 1_555 1_555
C32 H37 1_555 1_555
H38 C32 1_555 1_555
C33 C32 1_555 1_555
H39 C33 1_555 1_555
H40 C33 1_555 1_555
C34 H41 1_555 1_555
H42 C34 1_555 1_555
C35 C34 1_555 1_555
H43 C35 1_555 1_555
H44 C35 1_555 1_555
C36 C32 1_555 1_555
H45 C36 1_555 1_555
H46 C36 1_555 1_555
N1 C17 1_555 1_555
N2 Ni1 1_555 1_555
N3 C22 1_555 1_555
N4 Ni2 1_555 1_555
N5 C28 1_555 1_555
N6 Ni3 1_555 1_555
N7 C33 1_555 1_555
N8 Ni4 1_555 1_555
O1 Ni2 1_555 1_555
O2 C13 1_555 1_555
O3 Ni1 1_555 1_555
O4 C14 1_555 1_555
O5 Ni4 1_555 1_555
O6 C15 1_555 1_555
O7 Ni3 1_555 1_555
O8 C16 1_555 1_555
H47 N1 1_555 1_555
H48 N2 1_555 1_555
H49 N3 1_555 1_555
H50 N4 1_555 1_555
H51 N5 1_555 1_555
H52 N6 1_555 1_555
H53 N7 1_555 1_555
H54 N8 1_555 1_555
Ni2_2 O1A 1_555 1_555
Ni3_2 O7A 1_555 1_555
Ni4_2 O5A 1_555 1_555
C1A C2A 1_555 1_555
C2A C3A 1_555 1_555
C3A H1A 1_555 1_555
C4A C3A 1_555 1_555
H2A C4A 1_555 1_555
C5A C4A 1_555 1_555
H3A C5A 1_555 1_555
C6A C1A 1_555 1_555
C7A C1A 1_555 1_555
C8A C7A 1_555 1_555
C9A C8A 1_555 1_555
H4A C9A 1_555 1_555
C10A C9A 1_555 1_555
H5A C10A 1_555 1_555
C11A C10A 1_555 1_555
H6A C11A 1_555 1_555
C12A C7A 1_555 1_555
C13A C2A 1_555 1_555
C14A C6A 1_555 1_555
C15A C8A 1_555 1_555
C16A C12A 1_555 1_555
C17A H7A 1_555 1_555
H8A C17A 1_555 1_555
C18A C17A 1_555 1_555
H9A C18A 1_555 1_555
H10A C18A 1_555 1_555
C19A N2 1_555 1_555
H11A C19A 1_555 1_555
H12A C19A 1_555 1_555
C20A C19A 1_555 1_555
H13A C20A 1_555 1_555
H14A C20A 1_555 1_555
C21A C20A 1_555 1_555
H15A C21A 1_555 1_555
H16A C21A 1_555 1_555
C22A H17A 1_555 1_555
H18A C22A 1_555 1_555
C23A C22A 1_555 1_555
H19A C23A 1_555 1_555
H20A C23A 1_555 1_555
C24A C23A 1_555 1_555
H21A C24A 1_555 1_555
H22A C24A 1_555 1_555
C25A N4 1_555 1_555
H23A C25A 1_555 1_555
H24A C25A 1_555 1_555
C26A C25A 1_555 1_555
H25A C26A 1_555 1_555
H26A C26A 1_555 1_555
C27A H27A 1_555 1_555
H28A C27A 1_555 1_555
C28A C27A 1_555 1_555
H29A C28A 1_555 1_555
H30A C28A 1_555 1_555
C29A H31A 1_555 1_555
H32A C29A 1_555 1_555
C30A C29A 1_555 1_555
H33A C30A 1_555 1_555
H34A C30A 1_555 1_555
C31A N6 1_555 1_555
H35A C31A 1_555 1_555
H36A C31A 1_555 1_555
C32A H37A 1_555 1_555
H38A C32A 1_555 1_555
C33A C32A 1_555 1_555
H39A C33A 1_555 1_555
H40A C33A 1_555 1_555
C34A H41A 1_555 1_555
H42A C34A 1_555 1_555
C35A N8 1_555 1_555
H43A C35A 1_555 1_555
H44A C35A 1_555 1_555
C36A C32A 1_555 1_555
H45A C36A 1_555 1_555
H46A C36A 1_555 1_555
N1A Ni1 1_555 1_555
N2A Ni1 1_555 1_555
N3A Ni2 1_555 1_555
N4A Ni2 1_555 1_555
N5A Ni3 1_555 1_555
N6A Ni3 1_555 1_555
N7A Ni4 1_555 1_555
N8A Ni4 1_555 1_555
O1A C13A 1_555 1_555
O1A_2 Ni2 1_555 1_555
O2A C13A 1_555 1_555
O3A Ni1 1_555 1_555
O4A C14A 1_555 1_555
O5A C15A 1_555 1_555
O5A_2 Ni4 1_555 1_555
O6A C15A 1_555 1_555
O7A C16A 1_555 1_555
O7A_2 Ni3 1_555 1_555
O8A C16A 1_555 1_555
H47A N1A 1_555 1_555
H48A N2A 1_555 1_555
H49A N3A 1_555 1_555
H50A N4A 1_555 1_555
H51A N5A 1_555 1_555
H52A N6A 1_555 1_555
H53A N7A 1_555 1_555
H54A N8A 1_555 1_555
C5 C6 1_555 1_555
C11 C12 1_555 1_555
C13 O1 1_555 1_555
C14 O3 1_555 1_555
C15 O5 1_555 1_555
C16 O7 1_555 1_555
C18 N2 1_555 1_555
C19 N2A 1_555 1_555
C21 N1 1_555 1_555
C24 N4 1_555 1_555
C25 N4A 1_555 1_555
C26 N3 1_555 1_555
C27 N6 1_555 1_555
C29 N5 1_555 1_555
C31 N6A 1_555 1_555
C34 N7 1_555 1_555
C35 N8A 1_555 1_555
C36 N8 1_555 1_555
C5A C6A 1_555 1_555
C11A C12A 1_555 1_555
C14A O3A 1_555 1_555
C17A N1A 1_555 1_555
C18A N2A 1_555 1_555
C21A N1A 1_555 1_555
C22A N3A 1_555 1_555
C24A N4A 1_555 1_555
C26A N3A 1_555 1_555
C27A N6A 1_555 1_555
C28A N5A 1_555 1_555
C29A N5A 1_555 1_555
C30A C31A 1_555 1_555
C33A N7A 1_555 1_555
C34A C35A 1_555 1_555
C34A N7A 1_555 1_555
C36A N8A 1_555 1_555

#END
