
#######################################################################
#
#                 Cambridge Crystallographic Data Centre
#                                CCDC 
#
#######################################################################
#
# If this CIF has been generated from an entry in the Cambridge 
# Structural Database, then it will include bibliographic, chemical, 
# crystal, experimental, refinement or atomic coordinate data resulting 
# from the CCDC's data processing and validation procedures.
#
#######################################################################

data_ICODOU
_symmetry_cell_setting           triclinic
_symmetry_space_group_name_H-M   'P -1'
_symmetry_Int_Tables_number      2
_space_group_name_Hall           '-P 1'
loop_
_symmetry_equiv_pos_site_id
_symmetry_equiv_pos_as_xyz
1 x,y,z
2 -x,-y,-z
_cell_length_a                   7.0778(3)
_cell_length_b                   10.7244(5)
_cell_length_c                   12.6516(3)
_cell_angle_alpha                66.722(3)
_cell_angle_beta                 81.722(3)
_cell_angle_gamma                86.992(4)
_cell_volume                     872.948
loop_
_atom_site_label
_atom_site_type_symbol
_atom_site_fract_x
_atom_site_fract_y
_atom_site_fract_z
Fe1 Fe 0.93393(7) 0.40912(5) 0.30626(5)
Co1 Co 1.5000 0.5000 0.0000
O1 O 1.4976(4) 0.2820(3) 0.0563(3)
N1 N 1.2281(5) 0.4918(4) 0.0910(3)
N2 N 1.3018(5) 0.3332(3) 0.4233(3)
N3 N 0.9468(6) 0.7052(4) 0.2765(4)
N4 N 1.6212(5) 0.4814(4) 0.1468(3)
N5 N 0.9100(4) 0.2184(3) 0.3224(3)
N6 N 0.7830(5) 0.0040(3) 0.4526(3)
N7 N 0.7695(4) 0.3343(3) 0.4586(3)
N8 N 0.6368(5) 0.1296(4) 0.6023(3)
C1 C 1.1103(6) 0.4646(4) 0.1677(4)
C2 C 1.1636(6) 0.3623(4) 0.3827(4)
C3 C 0.9420(6) 0.5927(4) 0.2920(4)
C4 C 1.7273(5) 0.4566(4) 0.2120(4)
C5 C 0.9767(7) 0.1666(5) 0.2442(5)
C6 C 0.9477(7) 0.0321(5) 0.2691(5)
C7 C 0.8512(7) -0.0449(5) 0.3729(5)
C8 C 0.8124(5) 0.1351(4) 0.4223(4)
C9 C 0.7324(5) 0.2011(4) 0.5009(3)
C10 C 0.5676(7) 0.1996(5) 0.6672(4)
C11 C 0.5983(7) 0.3353(5) 0.6320(4)
C12 C 0.7003(6) 0.3998(5) 0.5262(4)
H1 H 1.029(6) 0.226(4) 0.180(4)
H2 H 0.992(6) -0.005(4) 0.222(4)
H3 H 0.841(5) -0.133(4) 0.392(3)
H4 H 0.500(6) 0.150(4) 0.739(4)
H5 H 0.556(6) 0.385(5) 0.674(4)
H6 H 0.723(6) 0.479(4) 0.503(4)
Fe1A Fe 2.06607(7) 0.59088(5) -0.30626(5)
Fe1_2 Fe 1.93393(7) 0.40912(5) 0.30626(5)
Fe1A_2 Fe 1.06607(7) 0.59088(5) -0.30626(5)
O1A O 1.5024(4) 0.7180(3) -0.0563(3)
N1A N 1.7719(5) 0.5082(4) -0.0910(3)
N2A N 1.6982(5) 0.6668(3) -0.4233(3)
N3A N 2.0532(6) 0.2948(4) -0.2765(4)
N4A N 1.3788(5) 0.5186(4) -0.1468(3)
N5A N 2.0900(4) 0.7816(3) -0.3224(3)
N6A N 2.2170(5) 0.9960(3) -0.4526(3)
N7A N 2.2305(4) 0.6657(3) -0.4586(3)
N8A N 2.3632(5) 0.8704(4) -0.6023(3)
C1A C 1.8897(6) 0.5354(4) -0.1677(4)
C2A C 1.8364(6) 0.6377(4) -0.3827(4)
C3A C 2.0580(6) 0.4073(4) -0.2920(4)
C4A C 1.2727(5) 0.5434(4) -0.2120(4)
C4_2 C 0.7273(5) 0.4566(4) 0.2120(4)
C4A_2 C 2.2727(5) 0.5434(4) -0.2120(4)
C5A C 2.0233(7) 0.8334(5) -0.2442(5)
C6A C 2.0523(7) 0.9679(5) -0.2691(5)
C7A C 2.1488(7) 1.0449(5) -0.3729(5)
C8A C 2.1876(5) 0.8649(4) -0.4223(4)
C9A C 2.2676(5) 0.7989(4) -0.5009(3)
C10A C 2.4324(7) 0.8004(5) -0.6672(4)
C11A C 2.4017(7) 0.6647(5) -0.6320(4)
C12A C 2.2997(6) 0.6002(5) -0.5262(4)
H1A H 1.971(6) 0.774(4) -0.180(4)
H2A H 2.008(6) 1.005(4) -0.222(4)
H3A H 2.159(5) 1.133(4) -0.392(3)
H4A H 2.500(6) 0.850(4) -0.739(4)
H5A H 2.444(6) 0.615(5) -0.674(4)
H6A H 2.277(6) 0.521(4) -0.503(4)
O2 O 1.4577(5) 0.1606(3) 0.2897(3)
O3 O 1.7773(9) 0.1458(6) -0.0497(6)
O4 O 1.7598(8) -0.1410(6) 0.0205(6)
loop_
_geom_bond_atom_site_label_1
_geom_bond_atom_site_label_2
_geom_bond_site_symmetry_1
_geom_bond_site_symmetry_2
Fe1 N5 1_555 1_555
Co1 O1 1_555 1_555
N1 Co1 1_555 1_555
N2 C2 1_555 1_555
N3 C3 1_555 1_555
N4 Co1 1_555 1_555
N5 C5 1_555 1_555
N6 C7 1_555 1_555
N7 Fe1 1_555 1_555
N8 C9 1_555 1_555
C1 Fe1 1_555 1_555
C2 Fe1 1_555 1_555
C3 Fe1 1_555 1_555
C4 N4 1_555 1_555
C5 C6 1_555 1_555
C6 C7 1_555 1_555
C7 H3 1_555 1_555
C8 N5 1_555 1_555
C9 N7 1_555 1_555
C10 N8 1_555 1_555
C11 C10 1_555 1_555
C12 N7 1_555 1_555
H1 C5 1_555 1_555
H2 C6 1_555 1_555
H4 C10 1_555 1_555
H5 C11 1_555 1_555
H6 C12 1_555 1_555
Fe1A N5A 1_555 1_555
Fe1_2 C4 1_555 1_555
Fe1A_2 C4A 1_555 1_555
O1A Co1 1_555 1_555
N1A Co1 1_555 1_555
N2A C2A 1_555 1_555
N3A C3A 1_555 1_555
N4A Co1 1_555 1_555
N5A C5A 1_555 1_555
N6A C7A 1_555 1_555
N7A Fe1A 1_555 1_555
N8A C9A 1_555 1_555
C1A Fe1A 1_555 1_555
C2A Fe1A 1_555 1_555
C3A Fe1A 1_555 1_555
C4A N4A 1_555 1_555
C4_2 Fe1 1_555 1_555
C4A_2 Fe1A 1_555 1_555
C5A C6A 1_555 1_555
C6A C7A 1_555 1_555
C7A H3A 1_555 1_555
C8A N5A 1_555 1_555
C9A N7A 1_555 1_555
C10A N8A 1_555 1_555
C11A C10A 1_555 1_555
C12A N7A 1_555 1_555
H1A C5A 1_555 1_555
H2A C6A 1_555 1_555
H4A C10A 1_555 1_555
H5A C11A 1_555 1_555
H6A C12A 1_555 1_555
N1 C1 1_555 1_555
N6 C8 1_555 1_555
C8 C9 1_555 1_555
C11 C12 1_555 1_555
N1A C1A 1_555 1_555
N6A C8A 1_555 1_555
C8A C9A 1_555 1_555
C11A C12A 1_555 1_555

#END
