
#######################################################################
#
#                 Cambridge Crystallographic Data Centre
#                                CCDC 
#
#######################################################################
#
# If this CIF has been generated from an entry in the Cambridge 
# Structural Database, then it will include bibliographic, chemical, 
# crystal, experimental, refinement or atomic coordinate data resulting 
# from the CCDC's data processing and validation procedures.
#
#######################################################################

data_ICODIO
_symmetry_cell_setting           triclinic
_symmetry_space_group_name_H-M   'P -1'
_symmetry_Int_Tables_number      2
_space_group_name_Hall           '-P 1'
loop_
_symmetry_equiv_pos_site_id
_symmetry_equiv_pos_as_xyz
1 x,y,z
2 -x,-y,-z
_cell_length_a                   7.0795(4)
_cell_length_b                   10.7418(5)
_cell_length_c                   12.6242(7)
_cell_angle_alpha                66.963(4)
_cell_angle_beta                 81.613(5)
_cell_angle_gamma                87.057(5)
_cell_volume                     874.002
loop_
_atom_site_label
_atom_site_type_symbol
_atom_site_fract_x
_atom_site_fract_y
_atom_site_fract_z
Fe1 Fe 0.93377(4) 0.40769(3) 0.80649(3)
Zn1 Zn 0.5000 0.5000 0.5000
N1 N 0.9471(4) 0.7033(2) 0.7785(3)
N2 N 0.6173(3) 0.4807(2) 0.65003(18)
N3 N 0.2248(3) 0.4912(2) 0.58903(19)
N4 N 1.3019(3) 0.3335(2) 0.92222(19)
N5 N 0.7688(2) 0.33436(17) 0.95897(16)
N6 N 0.6345(3) 0.1306(2) 1.10290(18)
N7 N 0.9092(2) 0.21757(17) 0.82202(16)
N8 N 0.7829(3) 0.00371(18) 0.95279(18)
C1 C 0.9426(3) 0.5911(2) 0.7927(2)
C2 C 0.7253(3) 0.4549(2) 0.71362(19)
C3 C 0.1082(3) 0.4637(2) 0.6668(2)
C4 C 1.1632(3) 0.3616(2) 0.8823(2)
C5 C 0.7001(3) 0.4007(2) 1.0260(2)
C6 C 0.5968(4) 0.3354(3) 1.1326(2)
C7 C 0.5660(4) 0.1992(3) 1.1683(2)
C8 C 0.7326(3) 0.2006(2) 1.00117(19)
C9 C 0.8116(3) 0.1345(2) 0.9224(2)
C10 C 0.9764(4) 0.1651(3) 0.7442(2)
C11 C 0.9475(4) 0.0307(3) 0.7687(3)
C12 C 0.8521(4) -0.0462(3) 0.8736(3)
O1 O 0.4978(3) 0.27928(18) 0.55486(17)
H1 H 0.730(4) 0.494(3) 0.998(2)
H2 H 0.551(4) 0.381(3) 1.173(3)
H3 H 0.493(4) 0.152(3) 1.243(3)
H4 H 1.032(4) 0.227(3) 0.669(2)
H5 H 0.987(4) -0.001(3) 0.722(3)
H6 H 0.834(4) -0.131(3) 0.889(2)
Fe1A Fe 0.06623(4) 0.59231(3) 0.19351(3)
Fe1_2 Fe -0.06623(4) 0.40769(3) 0.80649(3)
Fe1A_2 Fe 1.06623(4) 0.59231(3) 0.19351(3)
N1A N 0.0529(4) 0.2967(2) 0.2215(3)
N2A N 0.3827(3) 0.5193(2) 0.34997(18)
N3A N 0.7752(3) 0.5088(2) 0.41097(19)
N4A N -0.3019(3) 0.6665(2) 0.07778(19)
N5A N 0.2312(2) 0.66564(17) 0.04103(16)
N6A N 0.3655(3) 0.8694(2) -0.10290(18)
N7A N 0.0908(2) 0.78243(17) 0.17798(16)
N8A N 0.2171(3) 0.99629(18) 0.04721(18)
C1A C 0.0574(3) 0.4089(2) 0.2073(2)
C2A C 0.2747(3) 0.5451(2) 0.28638(19)
C3A C 0.8918(3) 0.5363(2) 0.3332(2)
C3_2 C 1.1082(3) 0.4637(2) 0.6668(2)
C3A_2 C -0.1082(3) 0.5363(2) 0.3332(2)
C4A C -0.1632(3) 0.6384(2) 0.1177(2)
C5A C 0.2999(3) 0.5993(2) -0.0260(2)
C6A C 0.4032(4) 0.6646(3) -0.1326(2)
C7A C 0.4340(4) 0.8008(3) -0.1683(2)
C8A C 0.2674(3) 0.7994(2) -0.00117(19)
C9A C 0.1884(3) 0.8655(2) 0.0776(2)
C10A C 0.0236(4) 0.8349(3) 0.2558(2)
C11A C 0.0525(4) 0.9693(3) 0.2313(3)
C12A C 0.1479(4) 1.0462(3) 0.1264(3)
O1A O 0.5022(3) 0.72072(18) 0.44514(17)
H1A H 0.270(4) 0.506(3) 0.002(2)
H2A H 0.449(4) 0.619(3) -0.173(3)
H3A H 0.507(4) 0.848(3) -0.243(3)
H4A H -0.032(4) 0.773(3) 0.331(2)
H5A H 0.013(4) 1.001(3) 0.278(3)
H6A H 0.166(4) 1.131(3) 0.111(2)
O2 O 0.4589(3) 0.15911(18) 0.78879(17)
O3 O 0.2401(5) 0.1404(4) 0.4791(4)
O4 O 0.7860(6) 0.1470(4) 0.4499(4)
loop_
_geom_bond_atom_site_label_1
_geom_bond_atom_site_label_2
_geom_bond_site_symmetry_1
_geom_bond_site_symmetry_2
Fe1 N5 1_555 1_555
Zn1 N2 1_555 1_555
N1 C1 1_555 1_555
N2 C2 1_555 1_555
N3 Zn1 1_555 1_555
N4 C4 1_555 1_555
N5 C5 1_555 1_555
N6 C7 1_555 1_555
N7 Fe1 1_555 1_555
N8 C9 1_555 1_555
C1 Fe1 1_555 1_555
C2 Fe1 1_555 1_555
C3 N3 1_555 1_555
C4 Fe1 1_555 1_555
C5 C6 1_555 1_555
C6 C7 1_555 1_555
C7 H3 1_555 1_555
C8 N5 1_555 1_555
C9 N7 1_555 1_555
C10 N7 1_555 1_555
C11 C10 1_555 1_555
C12 N8 1_555 1_555
O1 Zn1 1_555 1_555
H1 C5 1_555 1_555
H2 C6 1_555 1_555
H4 C10 1_555 1_555
H5 C11 1_555 1_555
H6 C12 1_555 1_555
Fe1A N5A 1_555 1_555
Fe1_2 C3 1_555 1_555
Fe1A_2 C3A 1_555 1_555
N1A C1A 1_555 1_555
N2A Zn1 1_555 1_555
N3A Zn1 1_555 1_555
N4A C4A 1_555 1_555
N5A C5A 1_555 1_555
N6A C7A 1_555 1_555
N7A Fe1A 1_555 1_555
N8A C9A 1_555 1_555
C1A Fe1A 1_555 1_555
C2A Fe1A 1_555 1_555
C3A N3A 1_555 1_555
C3_2 Fe1 1_555 1_555
C3A_2 Fe1A 1_555 1_555
C4A Fe1A 1_555 1_555
C5A C6A 1_555 1_555
C6A C7A 1_555 1_555
C7A H3A 1_555 1_555
C8A N5A 1_555 1_555
C9A N7A 1_555 1_555
C10A N7A 1_555 1_555
C11A C10A 1_555 1_555
C12A N8A 1_555 1_555
O1A Zn1 1_555 1_555
H1A C5A 1_555 1_555
H2A C6A 1_555 1_555
H4A C10A 1_555 1_555
H5A C11A 1_555 1_555
H6A C12A 1_555 1_555
N6 C8 1_555 1_555
C8 C9 1_555 1_555
C11 C12 1_555 1_555
N2A C2A 1_555 1_555
N6A C8A 1_555 1_555
C8A C9A 1_555 1_555
C11A C12A 1_555 1_555

#END
