
#######################################################################
#
#                 Cambridge Crystallographic Data Centre
#                                CCDC 
#
#######################################################################
#
# If this CIF has been generated from an entry in the Cambridge 
# Structural Database, then it will include bibliographic, chemical, 
# crystal, experimental, refinement or atomic coordinate data resulting 
# from the CCDC's data processing and validation procedures.
#
#######################################################################

data_ICODUA
_symmetry_cell_setting           triclinic
_symmetry_space_group_name_H-M   'P -1'
_symmetry_Int_Tables_number      2
_space_group_name_Hall           '-P 1'
loop_
_symmetry_equiv_pos_site_id
_symmetry_equiv_pos_as_xyz
1 x,y,z
2 -x,-y,-z
_cell_length_a                   6.9927(6)
_cell_length_b                   10.8763(8)
_cell_length_c                   12.2831(13)
_cell_angle_alpha                69.210(7)
_cell_angle_beta                 81.602(7)
_cell_angle_gamma                87.821(6)
_cell_volume                     863.899
loop_
_atom_site_label
_atom_site_type_symbol
_atom_site_fract_x
_atom_site_fract_y
_atom_site_fract_z
Fe1 Fe 0.43419(7) 0.39823(6) 0.80934(5)
Cu1 Cu 1.0000 0.5000 0.5000
N1 N 0.4528(6) 0.6837(4) 0.7938(4)
N2 N 0.8049(5) 0.3275(4) 0.9266(3)
N3 N 0.7447(5) 0.4791(4) 0.5959(3)
N4 N 1.1269(4) 0.4698(4) 0.6414(3)
N5 N 0.2634(4) 0.3298(3) 0.9626(3)
N6 N 0.1275(5) 0.1330(4) 1.1067(3)
N7 N 0.4088(4) 0.2117(3) 0.8223(3)
N8 N 0.2830(5) 0.0043(4) 0.9533(4)
C1 C 0.4451(5) 0.5764(5) 0.8019(4)
C2 C 0.6659(5) 0.3535(4) 0.8880(4)
C3 C 0.6195(5) 0.4526(4) 0.6715(4)
C4 C 1.2297(5) 0.4437(4) 0.7095(4)
C5 C 0.1909(6) 0.3960(5) 1.0324(4)
C6 C 0.0854(6) 0.3347(5) 1.1386(4)
C7 C 0.0561(6) 0.2030(5) 1.1738(5)
C8 C 0.2277(5) 0.2003(4) 1.0036(4)
C9 C 0.3104(5) 0.1324(4) 0.9234(4)
C10 C 0.4793(6) 0.1560(5) 0.7442(5)
C11 C 0.4521(7) 0.0268(5) 0.7664(5)
C12 C 0.3548(6) -0.0461(5) 0.8719(5)
O1 O 1.0094(4) 0.2554(3) 0.5437(3)
H1 H 0.202(6) 0.475(4) 1.010(4)
H2 H 0.033(5) 0.375(4) 1.194(4)
H3 H -0.025(5) 0.153(4) 1.250(4)
H4 H 0.529(5) 0.205(4) 0.681(4)
H5 H 0.493(6) -0.007(4) 0.719(4)
H6 H 0.335(5) -0.134(4) 0.893(4)
Fe1A Fe 1.56581(7) 0.60177(6) 0.19066(5)
Fe1_2 Fe 1.43419(7) 0.39823(6) 0.80934(5)
Fe1A_2 Fe 0.56581(7) 0.60177(6) 0.19066(5)
N1A N 1.5472(6) 0.3163(4) 0.2062(4)
N2A N 1.1951(5) 0.6725(4) 0.0734(3)
N3A N 1.2553(5) 0.5209(4) 0.4041(3)
N4A N 0.8731(4) 0.5302(4) 0.3586(3)
N5A N 1.7366(4) 0.6702(3) 0.0374(3)
N6A N 1.8725(5) 0.8670(4) -0.1067(3)
N7A N 1.5912(4) 0.7883(3) 0.1777(3)
N8A N 1.7170(5) 0.9957(4) 0.0467(4)
C1A C 1.5549(5) 0.4236(5) 0.1981(4)
C2A C 1.3341(5) 0.6465(4) 0.1120(4)
C3A C 1.3805(5) 0.5474(4) 0.3285(4)
C4A C 0.7703(5) 0.5563(4) 0.2905(4)
C4_2 C 0.2297(5) 0.4437(4) 0.7095(4)
C4A_2 C 1.7703(5) 0.5563(4) 0.2905(4)
C5A C 1.8091(6) 0.6040(5) -0.0324(4)
C6A C 1.9146(6) 0.6653(5) -0.1386(4)
C7A C 1.9439(6) 0.7970(5) -0.1738(5)
C8A C 1.7723(5) 0.7997(4) -0.0036(4)
C9A C 1.6896(5) 0.8676(4) 0.0766(4)
C10A C 1.5207(6) 0.8440(5) 0.2558(5)
C11A C 1.5479(7) 0.9732(5) 0.2336(5)
C12A C 1.6452(6) 1.0461(5) 0.1281(5)
O1A O 0.9906(4) 0.7446(3) 0.4563(3)
H1A H 1.798(6) 0.525(4) -0.010(4)
H2A H 1.967(5) 0.625(4) -0.194(4)
H3A H 2.025(5) 0.847(4) -0.250(4)
H4A H 1.471(5) 0.795(4) 0.319(4)
H5A H 1.507(6) 1.007(4) 0.281(4)
H6A H 1.665(5) 1.134(4) 0.107(4)
O2 O 0.0404(4) -0.1528(3) 1.2142(3)
O3 O 0.3292(6) 0.1575(4) 0.4364(5)
O4 O 0.2587(6) 0.8806(5) 0.5235(5)
loop_
_geom_bond_atom_site_label_1
_geom_bond_atom_site_label_2
_geom_bond_site_symmetry_1
_geom_bond_site_symmetry_2
Fe1 N5 1_555 1_555
Cu1 N3 1_555 1_555
N1 C1 1_555 1_555
N2 C2 1_555 1_555
N3 C3 1_555 1_555
N4 Cu1 1_555 1_555
N5 C5 1_555 1_555
N6 C7 1_555 1_555
N7 Fe1 1_555 1_555
N8 C9 1_555 1_555
C1 Fe1 1_555 1_555
C2 Fe1 1_555 1_555
C3 Fe1 1_555 1_555
C4 N4 1_555 1_555
C5 C6 1_555 1_555
C6 C7 1_555 1_555
C7 H3 1_555 1_555
C8 N5 1_555 1_555
C9 N7 1_555 1_555
C10 N7 1_555 1_555
C11 C10 1_555 1_555
C12 N8 1_555 1_555
O1 Cu1 1_555 1_555
H1 C5 1_555 1_555
H2 C6 1_555 1_555
H4 C10 1_555 1_555
H5 C11 1_555 1_555
H6 C12 1_555 1_555
Fe1A N5A 1_555 1_555
Fe1_2 C4 1_555 1_555
Fe1A_2 C4A 1_555 1_555
N1A C1A 1_555 1_555
N2A C2A 1_555 1_555
N3A Cu1 1_555 1_555
N4A Cu1 1_555 1_555
N5A C5A 1_555 1_555
N6A C7A 1_555 1_555
N7A Fe1A 1_555 1_555
N8A C9A 1_555 1_555
C1A Fe1A 1_555 1_555
C2A Fe1A 1_555 1_555
C3A Fe1A 1_555 1_555
C4A N4A 1_555 1_555
C4_2 Fe1 1_555 1_555
C4A_2 Fe1A 1_555 1_555
C5A C6A 1_555 1_555
C6A C7A 1_555 1_555
C7A H3A 1_555 1_555
C8A N5A 1_555 1_555
C9A N7A 1_555 1_555
C10A N7A 1_555 1_555
C11A C10A 1_555 1_555
C12A N8A 1_555 1_555
O1A Cu1 1_555 1_555
H1A C5A 1_555 1_555
H2A C6A 1_555 1_555
H4A C10A 1_555 1_555
H5A C11A 1_555 1_555
H6A C12A 1_555 1_555
N6 C8 1_555 1_555
C8 C9 1_555 1_555
C11 C12 1_555 1_555
N3A C3A 1_555 1_555
N6A C8A 1_555 1_555
C8A C9A 1_555 1_555
C11A C12A 1_555 1_555

#END
