
#######################################################################
#
#                 Cambridge Crystallographic Data Centre
#                                CCDC 
#
#######################################################################
#
# If this CIF has been generated from an entry in the Cambridge 
# Structural Database, then it will include bibliographic, chemical, 
# crystal, experimental, refinement or atomic coordinate data resulting 
# from the CCDC's data processing and validation procedures.
#
#######################################################################

data_ICODIP
_symmetry_cell_setting           cubic
_symmetry_space_group_name_H-M   'I 41 3 2'
_symmetry_Int_Tables_number      214
_space_group_name_Hall           'I 4bd 2c 3'
loop_
_symmetry_equiv_pos_site_id
_symmetry_equiv_pos_as_xyz
1 x,y,z
2 1/2-x,-y,1/2+z
3 -x,1/2+y,1/2-z
4 1/2+x,1/2-y,-z
5 z,x,y
6 1/2+z,1/2-x,-y
7 1/2-z,-x,1/2+y
8 -z,1/2+x,1/2-y
9 y,z,x
10 -y,1/2+z,1/2-x
11 1/2+y,1/2-z,-x
12 1/2-y,-z,1/2+x
13 3/4+y,1/4+x,1/4-z
14 3/4-y,3/4-x,3/4-z
15 1/4+y,1/4-x,3/4+z
16 1/4-y,3/4+x,1/4+z
17 3/4+x,1/4+z,1/4-y
18 1/4-x,3/4+z,1/4+y
19 3/4-x,3/4-z,3/4-y
20 1/4+x,1/4-z,3/4+y
21 3/4+z,1/4+y,1/4-x
22 1/4+z,1/4-y,3/4+x
23 1/4-z,3/4+y,1/4+x
24 3/4-z,3/4-y,3/4-x
25 1/2+x,1/2+y,1/2+z
26 -x,1/2-y,z
27 1/2-x,y,-z
28 x,-y,1/2-z
29 1/2+z,1/2+x,1/2+y
30 z,-x,1/2-y
31 -z,1/2-x,y
32 1/2-z,x,-y
33 1/2+y,1/2+z,1/2+x
34 1/2-y,z,-x
35 y,-z,1/2-x
36 -y,1/2-z,x
37 1/4+y,3/4+x,3/4-z
38 1/4-y,1/4-x,1/4-z
39 3/4+y,3/4-x,1/4+z
40 3/4-y,1/4+x,3/4+z
41 1/4+x,3/4+z,3/4-y
42 3/4-x,1/4+z,3/4+y
43 1/4-x,1/4-z,1/4-y
44 3/4+x,3/4-z,1/4+y
45 1/4+z,3/4+y,3/4-x
46 3/4+z,3/4-y,1/4+x
47 3/4-z,1/4+y,3/4+x
48 1/4-z,1/4-y,1/4-x
_cell_length_a                   35.9299(12)
_cell_length_b                   35.9299(12)
_cell_length_c                   35.9299(12)
_cell_angle_alpha                90
_cell_angle_beta                 90
_cell_angle_gamma                90
_cell_volume                     46384
loop_
_atom_site_label
_atom_site_type_symbol
_atom_site_fract_x
_atom_site_fract_y
_atom_site_fract_z
Zn1 Zn 0.7500 1.10961(2) 0.0000
Zn2 Zn 0.6250 1.125640(17) 0.124360(17)
C1 C 0.87879(14) 0.99987(12) 0.01244(13)
O1 O 0.61913(9) 1.17948(11) 0.12752(12)
O2 O 0.72529(9) 1.13553(8) 0.04133(8)
N1 N 0.77181(11) 1.21726(12) 0.17797(11)
H1 H 0.7924 1.2050 0.1771
N2 N 0.95355(10) 0.99595(12) -0.05452(11)
N3 N 0.79761(10) 1.24306(10) 0.23095(10)
C2 C 0.82214(14) 0.99685(14) 0.06514(13)
H2 H 0.8033 0.9957 0.0828
N4 N 0.90563(11) 1.00314(11) -0.01460(10)
H3 H 0.9029 1.0226 -0.0283
C3 C 0.79023(12) 1.05229(13) 0.03324(14)
C4 C 0.77039(12) 1.24365(12) 0.20443(13)
O3 O 0.76410(12) 1.05103(11) 0.05529(12)
C5 C 0.87797(13) 0.97265(13) 0.04004(13)
H4 H 0.8965 0.9546 0.0409
C6 C 0.70831(13) 1.21092(14) 0.15614(12)
H5 H 0.6996 1.2232 0.1772
O4 O 0.78069(11) 1.15939(12) 0.05063(11)
C7 C 0.74597(14) 1.20670(12) 0.15220(12)
C8 C 0.84941(14) 0.97242(13) 0.06651(13)
C9 C 0.75805(13) 1.18943(12) 0.11989(14)
H6 H 0.7835 1.1874 0.1156
C10 C 0.85018(14) 1.02464(14) 0.01228(13)
H7 H 0.8502 1.0429 -0.0061
C11 C 0.68322(12) 1.19839(14) 0.13153(14)
C12 C 0.69711(16) 1.17779(14) 0.10076(14)
H8 H 0.6803 1.1659 0.0851
C13 C 0.73354(13) 1.17496(13) 0.09355(13)
C14 C 0.93520(13) 0.98237(15) -0.02416(14)
C15 C 0.74794(15) 1.15575(14) 0.06106(13)
O5 O 0.63335(12) 1.2370(2) 0.1490(2)
C16 C 0.82077(13) 1.02464(13) 0.03772(13)
O6 O 0.79300(8) 1.07650(9) 0.00834(9)
C17 C 0.64163(17) 1.2022(2) 0.13771(17)
O7 O 0.86787(11) 0.91293(10) 0.08906(11)
O8 O 0.83328(12) 0.94804(12) 0.12518(12)
C18 C 0.84990(17) 0.94210(17) 0.09714(17)
Zn1G Zn 1.0000 1.2500 0.39039(2)
Zn1J Zn 0.60961(2) 1.5000 0.2500
Zn1D Zn 1.0000 0.7500 0.10961(2)
Zn1H Zn 1.10961(2) 1.0000 -0.2500
Zn2G Zn 0.875640(17) 1.1250 0.374360(17)
Zn2J Zn 0.625640(17) 1.375640(17) 0.3750
Zn2L Zn 0.875640(17) 0.8750 0.125640(17)
Zn2S Zn 0.8750 1.125640(17) -0.124360(17)
Zn2V Zn 1.125640(17) 0.875640(17) -0.1250
C1D C 1.01244(13) 0.87879(14) -0.00013(12)
C1H C 0.99987(12) 1.01244(13) -0.12121(14)
O1G O 0.87248(12) 1.11913(9) 0.32052(11)
O1J O 0.67948(11) 1.37248(12) 0.38087(9)
O1PA O 0.63087(9) 1.12248(12) 0.07052(11)
O2G O 0.95867(8) 1.22529(9) 0.36447(8)
O2J O 0.63553(8) 1.45867(8) 0.27471(9)
O2Z O 0.77471(9) 1.13553(8) -0.04133(8)
N1G N 0.82203(11) 1.27181(11) 0.28274(12)
N1J N 0.71726(12) 1.32203(11) 0.22819(11)
H1G H 0.8229 1.2924 0.2950
H1J H 0.7050 1.3229 0.2076
N2D N 0.94548(11) 0.95355(10) -0.00405(12)
N2H N 0.99595(12) 0.94548(11) -0.04645(10)
N3G N 0.76905(10) 1.29761(10) 0.25694(10)
N3J N 0.74306(10) 1.26905(10) 0.20239(10)
C2D C 1.06514(13) 0.82214(14) -0.00315(14)
C2H C 0.99685(14) 1.06514(13) -0.17786(14)
H2D H 1.0828 0.8033 -0.0043
H2H H 0.9957 1.0828 -0.1967
N4D N 0.98540(10) 0.90563(11) 0.00314(11)
N4H N 1.00314(11) 0.98540(10) -0.09437(11)
H3D H 0.9717 0.9029 0.0226
H3H H 1.0226 0.9717 -0.0971
C3D C 1.03324(14) 0.79023(12) 0.05229(13)
C3H C 1.05229(13) 1.03324(14) -0.20977(12)
C4G C 0.79557(13) 1.27039(12) 0.25635(12)
C4J C 0.74365(12) 1.29557(13) 0.22961(12)
O3D O 1.05529(12) 0.76410(12) 0.05103(11)
O3H O 1.05103(11) 1.05529(12) -0.23590(12)
C5D C 1.04004(13) 0.87797(13) -0.02735(13)
C5H C 0.97265(13) 1.04004(13) -0.12203(13)
H4D H 1.0409 0.8965 -0.0454
H4H H 0.9546 1.0409 -0.1035
C6G C 0.84386(12) 1.20831(13) 0.28908(14)
C6J C 0.71092(14) 1.34386(12) 0.29169(13)
H5G H 0.8228 1.1996 0.2768
H5J H 0.7232 1.3228 0.3004
O4G O 0.94937(11) 1.28069(11) 0.34061(12)
O4J O 0.65939(12) 1.44937(11) 0.21931(11)
C7G C 0.84780(12) 1.24597(14) 0.29330(12)
C7J C 0.70670(12) 1.34780(12) 0.25403(14)
C8D C 1.06651(13) 0.84941(14) -0.02758(13)
C8H C 0.97242(13) 1.06651(13) -0.15059(14)
C9G C 0.88011(14) 1.25805(13) 0.31057(12)
C9J C 0.68943(12) 1.38011(14) 0.24195(13)
H6G H 0.8844 1.2835 0.3126
H6J H 0.6874 1.3844 0.2165
C10D C 1.01228(13) 0.85018(14) 0.02464(14)
C10H C 1.02464(14) 1.01228(13) -0.14982(14)
H7D H 0.9939 0.8502 0.0429
H7H H 1.0429 0.9939 -0.1498
C11G C 0.86847(14) 1.18322(12) 0.30161(14)
C11J C 0.69839(14) 1.36847(14) 0.31678(12)
C12G C 0.89924(14) 1.19711(16) 0.32221(14)
C12J C 0.67779(14) 1.39924(14) 0.30289(16)
H8G H 0.9149 1.1803 0.3341
H8J H 0.6659 1.4149 0.3197
C13G C 0.90645(13) 1.23354(13) 0.32504(13)
C13J C 0.67496(13) 1.40645(13) 0.26646(13)
C14D C 0.97584(14) 0.93520(13) -0.01763(15)
C14H C 0.98237(15) 0.97584(14) -0.06480(13)
C15G C 0.93894(13) 1.24794(15) 0.34425(14)
C15J C 0.65575(14) 1.43894(13) 0.25206(15)
O5G O 0.8510(2) 1.13335(12) 0.2630(2)
O5J O 0.7370(2) 1.3510(2) 0.36665(12)
C16D C 1.03772(13) 0.82077(13) 0.02464(13)
C16H C 1.02464(13) 1.03772(13) -0.17923(13)
O6D O 1.00834(9) 0.79300(8) 0.07650(9)
O6H O 1.07650(9) 1.00834(9) -0.20700(8)
O6Z O 0.70700(8) 1.07650(9) -0.00834(9)
C17G C 0.86229(17) 1.14163(17) 0.2978(2)
C17J C 0.7022(2) 1.36229(17) 0.35837(17)
O7D O 1.08906(11) 0.86787(11) -0.08707(10)
O7H O 0.91293(10) 1.08906(11) -0.13213(11)
O7L O 0.66293(10) 1.11787(11) 0.16094(11)
O7GA O 0.58707(10) 1.08906(11) 0.13213(11)
O8D O 1.12518(12) 0.83328(12) -0.05196(12)
O8H O 0.94804(12) 1.12518(12) -0.16672(12)
C18D C 1.09714(17) 0.84990(17) -0.05790(17)
C18H C 0.94210(17) 1.09714(17) -0.15010(17)
O9 O 0.82867(7) 0.94340(7) 0.18864(7)
loop_
_geom_bond_atom_site_label_1
_geom_bond_atom_site_label_2
_geom_bond_site_symmetry_1
_geom_bond_site_symmetry_2
Zn1 O2 1_555 1_555
Zn2 O1 1_555 1_555
C1 N4 1_555 1_555
O1 C17 1_555 1_555
O2 C15 1_555 1_555
N1 H1 1_555 1_555
N2 C14 1_555 1_555
N3 C4 1_555 1_555
C2 H2 1_555 1_555
N4 H3 1_555 1_555
C3 O3 1_555 1_555
C4 N1 1_555 1_555
C5 C1 1_555 1_555
H4 C5 1_555 1_555
C6 H5 1_555 1_555
O4 C15 1_555 1_555
C7 N1 1_555 1_555
C8 C2 1_555 1_555
C9 C7 1_555 1_555
H6 C9 1_555 1_555
C10 C1 1_555 1_555
H7 C10 1_555 1_555
C11 C6 1_555 1_555
C12 C11 1_555 1_555
H8 C12 1_555 1_555
C13 C9 1_555 1_555
C14 N4 1_555 1_555
C15 C13 1_555 1_555
O5 C17 1_555 1_555
C16 C2 1_555 1_555
O6 Zn1 1_555 1_555
C17 C11 1_555 1_555
O7 C18 1_555 1_555
O8 C18 1_555 1_555
C18 C8 1_555 1_555
Zn1G O2G 1_555 1_555
Zn1J O2J 1_555 1_555
Zn1D O6D 1_555 1_555
Zn1H O6H 1_555 1_555
Zn2G O1G 1_555 1_555
Zn2J O1J 1_555 1_555
Zn2L O7 1_555 1_555
Zn2S O7H 1_555 1_555
Zn2V O7D 1_555 1_555
C1D N4D 1_555 1_555
C1H N4H 1_555 1_555
O1G C17G 1_555 1_555
O1J C17J 1_555 1_555
O1PA Zn2 1_555 1_555
O2G C15G 1_555 1_555
O2J C15J 1_555 1_555
O2Z Zn1 1_555 1_555
N1G H1G 1_555 1_555
N1J H1J 1_555 1_555
N2D C14 1_555 1_555
N2H C14D 1_555 1_555
N3G C4G 1_555 1_555
N3J C4 1_555 1_555
C2D H2D 1_555 1_555
C2H H2H 1_555 1_555
N4D H3D 1_555 1_555
N4H H3H 1_555 1_555
C3D O3D 1_555 1_555
C3H O3H 1_555 1_555
C4G N3 1_555 1_555
C4J N1J 1_555 1_555
C5D C1D 1_555 1_555
C5H C1H 1_555 1_555
H4D C5D 1_555 1_555
H4H C5H 1_555 1_555
C6G H5G 1_555 1_555
C6J H5J 1_555 1_555
O4G C15G 1_555 1_555
O4J C15J 1_555 1_555
C7G N1G 1_555 1_555
C7J N1J 1_555 1_555
C8D C2D 1_555 1_555
C8H C2H 1_555 1_555
C9G C7G 1_555 1_555
C9J C7J 1_555 1_555
H6G C9G 1_555 1_555
H6J C9J 1_555 1_555
C10D C1D 1_555 1_555
C10H C1H 1_555 1_555
H7D C10D 1_555 1_555
H7H C10H 1_555 1_555
C11G C6G 1_555 1_555
C11J C6J 1_555 1_555
C12G C11G 1_555 1_555
C12J C11J 1_555 1_555
H8G C12G 1_555 1_555
H8J C12J 1_555 1_555
C13G C9G 1_555 1_555
C13J C9J 1_555 1_555
C14D N2D 1_555 1_555
C14H N2 1_555 1_555
C15G C13G 1_555 1_555
C15J C13J 1_555 1_555
O5G C17G 1_555 1_555
O5J C17J 1_555 1_555
C16D C2D 1_555 1_555
C16H C2H 1_555 1_555
O6D C3D 1_555 1_555
O6H C3H 1_555 1_555
O6Z Zn1 1_555 1_555
C17G C11G 1_555 1_555
C17J C11J 1_555 1_555
O7D C18D 1_555 1_555
O7H C18H 1_555 1_555
O7L Zn2 1_555 1_555
O7GA Zn2 1_555 1_555
O8D C18D 1_555 1_555
O8H C18H 1_555 1_555
C18D C8D 1_555 1_555
C18H C8H 1_555 1_555
C3 C16 1_555 1_555
C3 O6 1_555 1_555
C5 C8 1_555 1_555
C6 C7 1_555 1_555
C10 C16 1_555 1_555
C12 C13 1_555 1_555
N1G C4G 1_555 1_555
N2H C14H 1_555 1_555
N3G C4J 1_555 1_555
N3J C4J 1_555 1_555
N4D C14D 1_555 1_555
N4H C14H 1_555 1_555
C3D C16D 1_555 1_555
C3H C16H 1_555 1_555
C5D C8D 1_555 1_555
C5H C8H 1_555 1_555
C6G C7G 1_555 1_555
C6J C7J 1_555 1_555
C10D C16D 1_555 1_555
C10H C16H 1_555 1_555
C12G C13G 1_555 1_555
C12J C13J 1_555 1_555

#END
