
#######################################################################
#
#                 Cambridge Crystallographic Data Centre
#                                CCDC 
#
#######################################################################
#
# If this CIF has been generated from an entry in the Cambridge 
# Structural Database, then it will include bibliographic, chemical, 
# crystal, experimental, refinement or atomic coordinate data resulting 
# from the CCDC's data processing and validation procedures.
#
#######################################################################

data_ICOFAI
_symmetry_cell_setting           triclinic
_symmetry_space_group_name_H-M   'P -1'
_symmetry_Int_Tables_number      2
_space_group_name_Hall           '-P 1'
loop_
_symmetry_equiv_pos_site_id
_symmetry_equiv_pos_as_xyz
1 x,y,z
2 -x,-y,-z
_cell_length_a                   7.1305(3)
_cell_length_b                   10.7429(6)
_cell_length_c                   12.7093(7)
_cell_angle_alpha                66.882(4)
_cell_angle_beta                 81.549(5)
_cell_angle_gamma                86.828(5)
_cell_volume                     885.657
loop_
_atom_site_label
_atom_site_type_symbol
_atom_site_fract_x
_atom_site_fract_y
_atom_site_fract_z
Fe1 Fe 0.56783(5) 0.09122(4) 0.69262(3)
Mn1 Mn 0.0000 0.0000 1.0000
N1 N 0.2901(3) 0.0047(3) 0.9140(2)
N2 N -0.1101(3) 0.0153(3) 0.8426(2)
N3 N 0.5524(5) -0.2042(3) 0.7209(3)
N4 N 0.1995(3) 0.1666(3) 0.5795(2)
N5 N 0.5923(3) 0.2813(2) 0.67678(18)
N6 N 0.7172(3) 0.4954(2) 0.5465(2)
N7 N 0.7299(3) 0.1651(2) 0.54043(17)
N8 N 0.8654(3) 0.3685(2) 0.39788(19)
C1 C 0.4006(3) 0.0335(3) 0.8339(2)
C2 C -0.2217(3) 0.0426(3) 0.7821(2)
C3 C 0.5573(4) -0.0922(3) 0.7067(2)
C4 C 0.3381(3) 0.1379(3) 0.6189(2)
C5 C 0.5253(4) 0.3349(3) 0.7543(3)
C6 C 0.5543(5) 0.4688(3) 0.7300(3)
C7 C 0.6484(4) 0.5463(3) 0.6246(3)
C8 C 0.6884(3) 0.3649(3) 0.5771(2)
C9 C 0.7672(3) 0.2977(3) 0.4992(2)
C10 C 0.7980(4) 0.0982(3) 0.4739(2)
C11 C 0.9020(4) 0.1638(3) 0.3677(3)
C12 C 0.9329(4) 0.2990(3) 0.3330(3)
O1 O -0.0035(3) -0.2262(2) 1.05883(19)
H1 H 0.465(4) 0.280(3) 0.825(3)
H2 H 0.509(4) 0.503(3) 0.778(3)
H3 H 0.670(4) 0.638(3) 0.606(3)
H4 H 0.776(4) 0.008(3) 0.503(3)
H5 H 0.947(5) 0.117(4) 0.322(3)
H6 H 1.001(4) 0.348(3) 0.259(3)
Fe1A Fe -0.56783(5) -0.09122(4) 1.30738(3)
Fe1_2 Fe -0.43217(5) 0.09122(4) 0.69262(3)
Fe1A_2 Fe 0.43217(5) -0.09122(4) 1.30738(3)
N1A N -0.2901(3) -0.0047(3) 1.0860(2)
N2A N 0.1101(3) -0.0153(3) 1.1574(2)
N3A N -0.5524(5) 0.2042(3) 1.2791(3)
N4A N -0.1995(3) -0.1666(3) 1.4205(2)
N5A N -0.5923(3) -0.2813(2) 1.32322(18)
N6A N -0.7172(3) -0.4954(2) 1.4535(2)
N7A N -0.7299(3) -0.1651(2) 1.45957(17)
N8A N -0.8654(3) -0.3685(2) 1.60212(19)
C1A C -0.4006(3) -0.0335(3) 1.1661(2)
C2A C 0.2217(3) -0.0426(3) 1.2179(2)
C2_2 C 0.7783(3) 0.0426(3) 0.7821(2)
C2A_2 C -0.7783(3) -0.0426(3) 1.2179(2)
C3A C -0.5573(4) 0.0922(3) 1.2933(2)
C4A C -0.3381(3) -0.1379(3) 1.3811(2)
C5A C -0.5253(4) -0.3349(3) 1.2457(3)
C6A C -0.5543(5) -0.4688(3) 1.2700(3)
C7A C -0.6484(4) -0.5463(3) 1.3754(3)
C8A C -0.6884(3) -0.3649(3) 1.4229(2)
C9A C -0.7672(3) -0.2977(3) 1.5008(2)
C10A C -0.7980(4) -0.0982(3) 1.5261(2)
C11A C -0.9020(4) -0.1638(3) 1.6323(3)
C12A C -0.9329(4) -0.2990(3) 1.6670(3)
O1A O 0.0035(3) 0.2262(2) 0.94117(19)
H1A H -0.465(4) -0.280(3) 1.175(3)
H2A H -0.509(4) -0.503(3) 1.222(3)
H3A H -0.670(4) -0.638(3) 1.394(3)
H4A H -0.776(4) -0.008(3) 1.497(3)
H5A H -0.947(5) -0.117(4) 1.678(3)
H6A H -1.001(4) -0.348(3) 1.741(3)
O2 O -0.0408(3) -0.3426(2) 1.29134(19)
O3 O 0.7153(8) 0.3538(4) 0.0508(4)
O4 O 0.7370(7) 0.6402(5) 0.9826(5)
loop_
_geom_bond_atom_site_label_1
_geom_bond_atom_site_label_2
_geom_bond_site_symmetry_1
_geom_bond_site_symmetry_2
Fe1 N5 1_555 1_555
Mn1 N1 1_555 1_555
N1 C1 1_555 1_555
N2 Mn1 1_555 1_555
N3 C3 1_555 1_555
N4 C4 1_555 1_555
N5 C5 1_555 1_555
N6 C7 1_555 1_555
N7 Fe1 1_555 1_555
N8 C9 1_555 1_555
C1 Fe1 1_555 1_555
C2 N2 1_555 1_555
C3 Fe1 1_555 1_555
C4 Fe1 1_555 1_555
C5 C6 1_555 1_555
C6 C7 1_555 1_555
C7 H3 1_555 1_555
C8 N5 1_555 1_555
C9 N7 1_555 1_555
C10 N7 1_555 1_555
C11 C10 1_555 1_555
C12 N8 1_555 1_555
O1 Mn1 1_555 1_555
H1 C5 1_555 1_555
H2 C6 1_555 1_555
H4 C10 1_555 1_555
H5 C11 1_555 1_555
H6 C12 1_555 1_555
Fe1A N5A 1_555 1_555
Fe1_2 C2 1_555 1_555
Fe1A_2 C2A 1_555 1_555
N1A Mn1 1_555 1_555
N2A Mn1 1_555 1_555
N3A C3A 1_555 1_555
N4A C4A 1_555 1_555
N5A C5A 1_555 1_555
N6A C7A 1_555 1_555
N7A Fe1A 1_555 1_555
N8A C9A 1_555 1_555
C1A Fe1A 1_555 1_555
C2A N2A 1_555 1_555
C2_2 Fe1 1_555 1_555
C2A_2 Fe1A 1_555 1_555
C3A Fe1A 1_555 1_555
C4A Fe1A 1_555 1_555
C5A C6A 1_555 1_555
C6A C7A 1_555 1_555
C7A H3A 1_555 1_555
C8A N5A 1_555 1_555
C9A N7A 1_555 1_555
C10A N7A 1_555 1_555
C11A C10A 1_555 1_555
C12A N8A 1_555 1_555
O1A Mn1 1_555 1_555
H1A C5A 1_555 1_555
H2A C6A 1_555 1_555
H4A C10A 1_555 1_555
H5A C11A 1_555 1_555
H6A C12A 1_555 1_555
N6 C8 1_555 1_555
C8 C9 1_555 1_555
C11 C12 1_555 1_555
N1A C1A 1_555 1_555
N6A C8A 1_555 1_555
C8A C9A 1_555 1_555
C11A C12A 1_555 1_555

#END
