
#######################################################################
#
#                 Cambridge Crystallographic Data Centre
#                                CCDC 
#
#######################################################################
#
# If this CIF has been generated from an entry in the Cambridge 
# Structural Database, then it will include bibliographic, chemical, 
# crystal, experimental, refinement or atomic coordinate data resulting 
# from the CCDC's data processing and validation procedures.
#
#######################################################################

data_ICOREZ
_symmetry_cell_setting           monoclinic
_symmetry_space_group_name_H-M   'P 21/c'
_symmetry_Int_Tables_number      14
_space_group_name_Hall           '-P 2ybc'
loop_
_symmetry_equiv_pos_site_id
_symmetry_equiv_pos_as_xyz
1 x,y,z
2 -x,1/2+y,1/2-z
3 -x,-y,-z
4 x,1/2-y,1/2+z
_cell_length_a                   9.917(2)
_cell_length_b                   14.325(3)
_cell_length_c                   7.7790(16)
_cell_angle_alpha                90
_cell_angle_beta                 103.17(3)
_cell_angle_gamma                90
_cell_volume                     1076.03
loop_
_atom_site_label
_atom_site_type_symbol
_atom_site_fract_x
_atom_site_fract_y
_atom_site_fract_z
O1 O 0.2562(4) 0.8285(2) 0.3476(5)
O2 O 0.0444(4) 0.7238(3) 0.1232(5)
H1 H -0.0205 0.7069 0.1712
H2 H 0.0908 0.6831 0.0820
O3 O 0.7670(4) 0.9812(3) 0.7918(5)
O4 O 0.2420(3) 0.6821(2) 0.4407(5)
C1 C 0.3037(5) 0.7594(3) 0.4404(7)
Nd1 Nd 0.09618(2) 0.887330(15) 0.10384(3)
S1 S 0.51880(14) 0.87918(8) 0.59147(19)
O5 O -0.0368(4) 0.8977(2) 0.3345(5)
O6 O -0.0708(4) 1.0130(3) 0.1469(5)
O7 O -0.2276(6) 1.0020(4) 0.3425(8)
C2 C 0.6551(6) 0.7382(4) 0.7435(8)
H3 H 0.7251 0.7015 0.8103
O8 O 0.8815(4) 0.8538(3) 0.9153(5)
C3 C 0.4435(5) 0.7698(4) 0.5583(7)
C4 C 0.5287(5) 0.7026(4) 0.6492(8)
H4 H 0.5050 0.6398 0.6484
C5 C 0.6647(5) 0.8329(3) 0.7271(7)
C6 C 0.7811(6) 0.8940(3) 0.8184(8)
N1 N -0.1057(5) 0.9688(3) 0.2708(7)
O3B O 0.2330(4) 1.0188(3) 0.2082(5)
O4C O 0.2420(3) 0.8179(2) -0.0593(5)
Nd1B Nd 0.90382(2) 1.112670(15) 0.89616(3)
Nd1C Nd 0.09618(2) 0.612670(15) 0.60384(3)
Nd1B_2 Nd -0.09618(2) 1.112670(15) -0.10384(3)
Nd1_2 Nd 1.09618(2) 0.887330(15) 1.10384(3)
O6B O 0.0708(4) 0.9870(3) -0.1469(5)
O8_2 O -0.1185(4) 0.8538(3) -0.0847(5)
loop_
_geom_bond_atom_site_label_1
_geom_bond_atom_site_label_2
_geom_bond_site_symmetry_1
_geom_bond_site_symmetry_2
O1 C1 1_555 1_555
O2 H1 1_555 1_555
H2 O2 1_555 1_555
O3 C6 1_555 1_555
O4 C1 1_555 1_555
C1 C3 1_555 1_555
Nd1 O1 1_555 1_555
S1 C3 1_555 1_555
O5 Nd1 1_555 1_555
O6 Nd1 1_555 1_555
O7 N1 1_555 1_555
C2 H3 1_555 1_555
O8 C6 1_555 1_555
C3 C4 1_555 1_555
C4 C2 1_555 1_555
H4 C4 1_555 1_555
C5 S1 1_555 1_555
C6 C5 1_555 1_555
N1 O5 1_555 1_555
O3B Nd1 1_555 1_555
O4C Nd1 1_555 1_555
Nd1B O3 1_555 1_555
Nd1C O4 1_555 1_555
Nd1B_2 O6 1_555 1_555
Nd1_2 O8 1_555 1_555
O6B Nd1 1_555 1_555
O8_2 Nd1 1_555 1_555
O2 Nd1 1_555 1_555
O6 N1 1_555 1_555
C2 C5 1_555 1_555
Nd1B_2 O6B 1_555 1_555

#END
