
#######################################################################
#
#                 Cambridge Crystallographic Data Centre
#                                CCDC 
#
#######################################################################
#
# If this CIF has been generated from an entry in the Cambridge 
# Structural Database, then it will include bibliographic, chemical, 
# crystal, experimental, refinement or atomic coordinate data resulting 
# from the CCDC's data processing and validation procedures.
#
#######################################################################

data_ICORAV
_symmetry_cell_setting           monoclinic
_symmetry_space_group_name_H-M   'P 21'
_symmetry_Int_Tables_number      4
_space_group_name_Hall           'P 2yb'
loop_
_symmetry_equiv_pos_site_id
_symmetry_equiv_pos_as_xyz
1 x,y,z
2 -x,1/2+y,-z
_cell_length_a                   12.827(3)
_cell_length_b                   6.5366(13)
_cell_length_c                   16.096(3)
_cell_angle_alpha                90
_cell_angle_beta                 90.34(3)
_cell_angle_gamma                90
_cell_volume                     1349.54
loop_
_atom_site_label
_atom_site_type_symbol
_atom_site_fract_x
_atom_site_fract_y
_atom_site_fract_z
O1 O -0.1364(5) 0.1813(11) 0.6237(4)
H1 H -0.1481 0.2570 0.6656
H2 H -0.1585 0.2398 0.5798
O2 O 0.0865(5) 0.2852(9) 0.6085(4)
O3 O 0.2445(5) -0.0099(9) 0.6446(4)
O4 O 0.1862(5) -0.0782(12) 0.5185(3)
C1 C 0.2613(6) -0.0491(13) 0.5689(5)
O5 O -0.0561(5) -0.0855(12) 1.1761(3)
O6 O -0.2021(6) -0.1293(12) 1.1041(4)
C2 C -0.1027(8) -0.0986(14) 1.1077(5)
La1 La 0.01706(3) -0.07171(6) 0.60585(2)
La2 La 0.21595(4) 0.32122(8) 0.73133(3)
S1 S -0.10701(18) -0.0853(4) 0.93437(12)
O7 O 0.1004(4) 0.5994(9) 0.6591(3)
O8 O 0.0958(5) 0.0096(10) 0.7575(4)
O9 O 0.7039(6) -0.0683(15) 0.4090(6)
C3 C 0.0607(7) -0.0792(16) 1.0216(5)
H3 H 0.1071 -0.0823 1.0662
O10 O 0.0275(5) 0.5565(9) 0.5354(3)
C4 C 0.0123(7) -0.0531(14) 0.7929(4)
C5 C 0.0098(7) -0.0714(15) 0.8843(4)
C6 C -0.0453(7) -0.0857(15) 1.0303(5)
C7 C 0.0924(7) -0.0673(15) 0.9378(5)
H4 H 0.1615 -0.0578 0.9211
O11 O -0.1557(6) -0.2548(13) 0.5942(5)
H5 H -0.2023 -0.2364 0.6307
H6 H -0.1674 -0.3341 0.5533
C8 C 0.5307(7) -0.0697(17) 0.4581(6)
N1 N 0.0703(6) 0.4794(12) 0.5994(5)
O12 O -0.0675(5) -0.1017(12) 0.7505(3)
C9 C 0.6103(8) -0.0870(18) 0.3890(7)
S2 S 0.39513(19) -0.0736(4) 0.43427(14)
C10 C 0.3678(6) -0.0611(15) 0.5376(5)
C11 C 0.4616(7) -0.0584(15) 0.5825(6)
H7 H 0.4625 -0.0521 0.6402
O13 O 0.2719(5) 0.6764(11) 0.7705(4)
H8 H 0.2378 0.7785 0.7522
H9 H 0.3244 0.6951 0.8021
O14 O 0.3529(7) 0.1229(16) 0.8138(5)
H10 H 0.4022 0.1928 0.8455
H11 H 0.3534 -0.0193 0.8124
O15 O 0.5807(6) -0.1145(13) 0.3184(5)
C12 C 0.5494(7) -0.0651(18) 0.5389(6)
H12 H 0.6158 -0.0664 0.5625
O5A O 0.0561(5) 0.4145(12) 0.8239(3)
O6A O 0.2021(6) 0.3707(12) 0.8959(4)
La1_2 La 0.01706(3) 0.92829(6) 0.60585(2)
La1A La -0.01706(3) 0.42829(6) 0.39415(2)
La2A La -0.21595(4) -0.17878(8) 1.26867(3)
La2A_2 La 0.78405(4) -0.17878(8) 0.26867(3)
O7_2 O 0.1004(4) -0.4006(9) 0.6591(3)
O9A O 0.2961(6) 0.4317(15) 0.5910(6)
O10_2 O 0.0275(5) -0.4435(9) 0.5354(3)
O10A O -0.0275(5) 0.0565(9) 0.4646(3)
O15A O 0.4193(6) 0.3855(13) 0.6816(5)
O16 O 0.8574(7) 0.4347(16) 0.7634(5)
H13 H 0.9188 0.4597 0.7807
H14 H 0.8145 0.4472 0.8031
O17 O 0.7045(8) 0.816(3) 0.7241(6)
H15 H 0.7499 0.7330 0.7432
H16 H 0.6741 0.8760 0.7644
O18 O 0.6948(17) 0.299(5) 0.8649(14)
H17 H 0.7279 0.3359 0.9083
H18 H 0.7238 0.1892 0.8488
O19 O 0.552(2) 0.664(4) 0.9293(19)
H19 H 0.5942 0.5846 0.9542
H20 H 0.5584 0.7932 0.9345
O20 O 0.5557(18) 0.151(4) 0.7719(13)
H21 H 0.5707 0.1828 0.8218
H22 H 0.4978 0.0944 0.7606
O21 O 0.6453(15) 0.015(3) -0.0040(12)
H23 H 0.5798 0.0144 0.0035
H24 H 0.6858 0.0598 0.0337
Cl1 Cl 0.381(4) 0.742(10) 0.887(3)
loop_
_geom_bond_atom_site_label_1
_geom_bond_atom_site_label_2
_geom_bond_site_symmetry_1
_geom_bond_site_symmetry_2
O1 H1 1_555 1_555
H2 O1 1_555 1_555
O2 La1 1_555 1_555
O3 C1 1_555 1_555
O4 C1 1_555 1_555
C1 C10 1_555 1_555
O5 C2 1_555 1_555
O6 C2 1_555 1_555
C2 C6 1_555 1_555
La1 O1 1_555 1_555
La2 O2 1_555 1_555
S1 C5 1_555 1_555
O7 La2 1_555 1_555
O8 La1 1_555 1_555
O9 C9 1_555 1_555
C3 H3 1_555 1_555
O10 N1 1_555 1_555
C4 O8 1_555 1_555
C5 C4 1_555 1_555
C6 S1 1_555 1_555
C7 C3 1_555 1_555
H4 C7 1_555 1_555
O11 La1 1_555 1_555
H5 O11 1_555 1_555
H6 O11 1_555 1_555
C8 C9 1_555 1_555
N1 O2 1_555 1_555
O12 La1 1_555 1_555
C9 O15 1_555 1_555
S2 C8 1_555 1_555
C10 S2 1_555 1_555
C11 C10 1_555 1_555
H7 C11 1_555 1_555
O13 La2 1_555 1_555
H8 O13 1_555 1_555
H9 O13 1_555 1_555
O14 La2 1_555 1_555
H10 O14 1_555 1_555
H11 O14 1_555 1_555
O15 La2A_2 1_555 1_555
C12 C8 1_555 1_555
H12 C12 1_555 1_555
O16 H13 1_555 1_555
H14 O16 1_555 1_555
O17 H15 1_555 1_555
H16 O17 1_555 1_555
O18 H17 1_555 1_555
H18 O18 1_555 1_555
O19 H19 1_555 1_555
H20 O19 1_555 1_555
O20 H21 1_555 1_555
H22 O20 1_555 1_555
O21 H23 1_555 1_555
H24 O21 1_555 1_555
O5A La2 1_555 1_555
O6A La2 1_555 1_555
La1_2 O7 1_555 1_555
La1A O10 1_555 1_555
La2A O5 1_555 1_555
La2A_2 O9 1_555 1_555
O7_2 La1 1_555 1_555
O9A La2 1_555 1_555
O10_2 La1 1_555 1_555
O10A La1 1_555 1_555
O15A La2 1_555 1_555
O3 La2 1_555 1_555
O4 La1 1_555 1_555
O6 La2A 1_555 1_555
La2 O8 1_555 1_555
O7 N1 1_555 1_555
C3 C6 1_555 1_555
O10 La1_2 1_555 1_555
C4 O12 1_555 1_555
C5 C7 1_555 1_555
C11 C12 1_555 1_555
La1A O10A 1_555 1_555

#END
