
#######################################################################
#
#                 Cambridge Crystallographic Data Centre
#                                CCDC 
#
#######################################################################
#
# If this CIF has been generated from an entry in the Cambridge 
# Structural Database, then it will include bibliographic, chemical, 
# crystal, experimental, refinement or atomic coordinate data resulting 
# from the CCDC's data processing and validation procedures.
#
#######################################################################

data_ICOROJ
_symmetry_cell_setting           monoclinic
_symmetry_space_group_name_H-M   'P 21/c'
_symmetry_Int_Tables_number      14
_space_group_name_Hall           '-P 2ybc'
loop_
_symmetry_equiv_pos_site_id
_symmetry_equiv_pos_as_xyz
1 x,y,z
2 -x,1/2+y,1/2-z
3 -x,-y,-z
4 x,1/2-y,1/2+z
_cell_length_a                   9.923(2)
_cell_length_b                   14.368(3)
_cell_length_c                   7.7509(16)
_cell_angle_alpha                90
_cell_angle_beta                 103.04(3)
_cell_angle_gamma                90
_cell_volume                     1076.58
loop_
_atom_site_label
_atom_site_type_symbol
_atom_site_fract_x
_atom_site_fract_y
_atom_site_fract_z
Eu1 Eu 0.403012(19) 0.887520(13) 0.39573(2)
S1 S -0.01905(11) 0.62131(7) 0.40662(15)
O1 O 0.5369(4) 0.8984(2) 0.1625(5)
C1 C -0.2789(5) 0.6058(3) 0.1800(6)
O2 O 0.5695(3) 1.0138(2) 0.3509(4)
O3 O 0.2561(3) 0.8178(2) 0.5594(4)
C2 C 0.1946(4) 0.7405(3) 0.5585(5)
O4 O 0.4538(3) 0.7234(2) 0.3760(4)
H1 H 0.5185 0.7062 0.3274
H2 H 0.4072 0.6830 0.4176
O5 O 0.7280(5) 1.0019(3) 0.1592(6)
O6 O 0.2431(3) 0.6716(2) 0.6507(4)
O7 O -0.3806(3) 0.6459(2) 0.0805(5)
C3 C -0.1563(5) 0.7620(3) 0.2557(6)
H3 H -0.2266 0.7985 0.1894
C4 C 0.0557(4) 0.7302(3) 0.4411(6)
O8 O -0.2658(3) 0.5194(2) 0.2059(4)
C5 C -0.0297(5) 0.7978(3) 0.3514(6)
H4 H -0.0064 0.8605 0.3537
C6 C -0.1647(4) 0.6670(3) 0.2708(6)
N1 N 0.6056(4) 0.9689(3) 0.2264(6)
Eu1B Eu 0.596988(19) 1.112480(13) 0.60427(2)
Eu1C Eu 0.403012(19) 0.612480(13) 0.89573(2)
Eu1C_2 Eu -0.596988(19) 0.612480(13) -0.10427(2)
Eu1A Eu -0.403012(19) 0.387520(13) 0.10427(2)
O2B O 0.4305(3) 0.9862(2) 0.6491(4)
O6C O 0.2431(3) 0.8284(2) 0.1507(4)
O7C O 0.6194(3) 0.8541(2) 0.5805(5)
O8A O 0.2658(3) 1.0194(2) 0.2941(4)
loop_
_geom_bond_atom_site_label_1
_geom_bond_atom_site_label_2
_geom_bond_site_symmetry_1
_geom_bond_site_symmetry_2
Eu1 O1 1_555 1_555
S1 C4 1_555 1_555
O1 N1 1_555 1_555
C1 O7 1_555 1_555
O2 Eu1 1_555 1_555
O3 Eu1 1_555 1_555
C2 O3 1_555 1_555
O4 Eu1 1_555 1_555
H1 O4 1_555 1_555
H2 O4 1_555 1_555
O5 N1 1_555 1_555
O6 C2 1_555 1_555
O7 Eu1C_2 1_555 1_555
C3 H3 1_555 1_555
C4 C2 1_555 1_555
O8 C1 1_555 1_555
C5 C3 1_555 1_555
H4 C5 1_555 1_555
C6 S1 1_555 1_555
N1 O2 1_555 1_555
Eu1B O2 1_555 1_555
Eu1C O6 1_555 1_555
Eu1A O8 1_555 1_555
O2B Eu1 1_555 1_555
O6C Eu1 1_555 1_555
O7C Eu1 1_555 1_555
O8A Eu1 1_555 1_555
C1 C6 1_555 1_555
C3 C6 1_555 1_555
C4 C5 1_555 1_555
Eu1B O2B 1_555 1_555

#END
