
#######################################################################
#
#                 Cambridge Crystallographic Data Centre
#                                CCDC 
#
#######################################################################
#
# If this CIF has been generated from an entry in the Cambridge 
# Structural Database, then it will include bibliographic, chemical, 
# crystal, experimental, refinement or atomic coordinate data resulting 
# from the CCDC's data processing and validation procedures.
#
#######################################################################

data_ICOSIE
_symmetry_cell_setting           monoclinic
_symmetry_space_group_name_H-M   'P 21/c'
_symmetry_Int_Tables_number      14
_space_group_name_Hall           '-P 2ybc'
loop_
_symmetry_equiv_pos_site_id
_symmetry_equiv_pos_as_xyz
1 x,y,z
2 -x,1/2+y,1/2-z
3 -x,-y,-z
4 x,1/2-y,1/2+z
_cell_length_a                   9.8814(11)
_cell_length_b                   14.1582(16)
_cell_length_c                   7.8854(9)
_cell_angle_alpha                90
_cell_angle_beta                 104.119(3)
_cell_angle_gamma                90
_cell_volume                     1069.86
loop_
_atom_site_label
_atom_site_type_symbol
_atom_site_fract_x
_atom_site_fract_y
_atom_site_fract_z
C1 C 0.7018(7) 0.2390(5) 0.5577(10)
C2 C 0.5603(7) 0.2287(4) 0.4427(10)
C3 C 0.4757(8) 0.2962(5) 0.3503(11)
H1 H 0.5013 0.3593 0.3473
C4 C 0.3453(8) 0.2605(5) 0.2595(11)
H2 H 0.2744 0.2978 0.1930
C5 C 0.3336(7) 0.1651(5) 0.2795(10)
C6 C 0.2161(8) 0.1044(5) 0.1980(12)
Ho1 Ho 0.90633(3) 0.11342(2) 0.89688(4)
N1 N 1.1099(8) 0.0322(5) 0.7412(10)
O1 O 0.7498(5) 0.1711(3) 0.6562(7)
O2 O 0.7661(5) 0.3157(3) 0.5496(7)
O3 O 0.2280(5) 0.0165(3) 0.2183(8)
O4 O 0.1093(5) 0.1466(4) 0.1036(8)
O5 O 1.0397(5) 0.1048(3) 0.6777(7)
O6 O 1.0784(5) -0.0087(3) 0.8712(7)
O7 O 1.2271(9) -0.0055(6) 0.6676(14)
O8 O 0.9657(6) 0.2752(3) 0.8819(7)
H3 H 1.0327 0.2908 0.8377
H4 H 0.9201 0.3174 0.9209
S1 S 0.48170(18) 0.11898(12) 0.4157(3)
Ho1C Ho 0.90633(3) 0.38658(2) 0.39688(4)
Ho1B Ho 0.09367(3) -0.11342(2) 0.10312(4)
Ho1_2 Ho -0.09367(3) 0.11342(2) -0.10312(4)
Ho1B_2 Ho 1.09367(3) -0.11342(2) 1.10312(4)
O2C O 0.7661(5) 0.1843(3) 1.0496(7)
O3B O 0.7720(5) -0.0165(3) 0.7817(8)
O4_2 O 1.1093(5) 0.1466(4) 1.1036(8)
O6B O 0.9216(5) 0.0087(3) 1.1288(7)
loop_
_geom_bond_atom_site_label_1
_geom_bond_atom_site_label_2
_geom_bond_site_symmetry_1
_geom_bond_site_symmetry_2
C1 C2 1_555 1_555
C2 C3 1_555 1_555
C3 H1 1_555 1_555
C4 C3 1_555 1_555
H2 C4 1_555 1_555
C5 C4 1_555 1_555
C6 C5 1_555 1_555
Ho1 O1 1_555 1_555
N1 O5 1_555 1_555
O1 C1 1_555 1_555
O2 C1 1_555 1_555
O3 C6 1_555 1_555
O4 C6 1_555 1_555
O5 Ho1 1_555 1_555
O6 Ho1 1_555 1_555
O7 N1 1_555 1_555
O8 Ho1 1_555 1_555
H3 O8 1_555 1_555
H4 O8 1_555 1_555
S1 C2 1_555 1_555
Ho1C O2 1_555 1_555
Ho1B O3 1_555 1_555
Ho1_2 O4 1_555 1_555
Ho1B_2 O6 1_555 1_555
O2C Ho1 1_555 1_555
O3B Ho1 1_555 1_555
O4_2 Ho1 1_555 1_555
O6B Ho1 1_555 1_555
C5 S1 1_555 1_555
N1 O6 1_555 1_555
Ho1B_2 O6B 1_555 1_555

#END
