
#######################################################################
#
#                 Cambridge Crystallographic Data Centre
#                                CCDC 
#
#######################################################################
#
# If this CIF has been generated from an entry in the Cambridge 
# Structural Database, then it will include bibliographic, chemical, 
# crystal, experimental, refinement or atomic coordinate data resulting 
# from the CCDC's data processing and validation procedures.
#
#######################################################################

data_ICOSUQ
_symmetry_cell_setting           monoclinic
_symmetry_space_group_name_H-M   'P 21/c'
_symmetry_Int_Tables_number      14
_space_group_name_Hall           '-P 2ybc'
loop_
_symmetry_equiv_pos_site_id
_symmetry_equiv_pos_as_xyz
1 x,y,z
2 -x,1/2+y,1/2-z
3 -x,-y,-z
4 x,1/2-y,1/2+z
_cell_length_a                   9.8500(15)
_cell_length_b                   14.048(3)
_cell_length_c                   7.720(2)
_cell_angle_alpha                90
_cell_angle_beta                 103.67(3)
_cell_angle_gamma                90
_cell_volume                     1037.98
loop_
_atom_site_label
_atom_site_type_symbol
_atom_site_fract_x
_atom_site_fract_y
_atom_site_fract_z
Yb1 Yb 0.59309(3) 0.112891(19) 0.10391(4)
S1 S 1.01658(18) 0.11882(11) 0.5900(3)
O1 O 0.7517(5) 0.1706(3) 0.3450(7)
O2 O 0.7336(5) 0.3181(3) 0.4431(7)
O3 O 1.3845(5) 0.1466(4) 0.9146(7)
O4 O 1.2689(5) 0.0155(3) 0.7908(7)
O5 O 0.5392(5) 0.2729(3) 0.1200(7)
H1 H 0.4889 0.3123 0.0503
H2 H 0.5823 0.3040 0.2097
O6 O 0.4314(5) -0.0139(3) 0.1400(7)
O7 O 0.4640(5) 0.1046(3) 0.3301(7)
O8 O 0.2730(7) -0.0046(5) 0.3384(10)
N1 N 0.3942(7) 0.0316(5) 0.2660(10)
C1 C 0.7978(7) 0.2397(5) 0.4420(10)
C2 C 0.9375(7) 0.2294(5) 0.5596(9)
C3 C 1.0241(7) 0.2982(5) 0.6531(10)
H3 H 0.9995 0.3621 0.6537
C4 C 1.1542(7) 0.2619(5) 0.7480(11)
H4 H 1.2255 0.2991 0.8152
C5 C 1.1625(7) 0.1662(5) 0.7293(9)
C6 C 1.2821(7) 0.1037(5) 0.8182(11)
Yb1C Yb 0.59309(3) 0.387109(19) 0.60391(4)
Yb1_2 Yb 1.59309(3) 0.112891(19) 1.10391(4)
Yb1B Yb 1.40691(3) -0.112891(19) 0.89609(4)
Yb1B_2 Yb 0.40691(3) -0.112891(19) -0.10391(4)
O2C O 0.7336(5) 0.1819(3) -0.0569(7)
O3_2 O 0.3845(5) 0.1466(4) -0.0854(7)
O4B O 0.7311(5) -0.0155(3) 0.2092(7)
O6B O 0.5686(5) 0.0139(3) -0.1400(7)
loop_
_geom_bond_atom_site_label_1
_geom_bond_atom_site_label_2
_geom_bond_site_symmetry_1
_geom_bond_site_symmetry_2
Yb1 O1 1_555 1_555
S1 C2 1_555 1_555
O1 C1 1_555 1_555
O2 C1 1_555 1_555
O3 C6 1_555 1_555
O4 C6 1_555 1_555
O5 Yb1 1_555 1_555
H1 O5 1_555 1_555
H2 O5 1_555 1_555
O6 Yb1 1_555 1_555
O7 Yb1 1_555 1_555
O8 N1 1_555 1_555
N1 O6 1_555 1_555
C1 C2 1_555 1_555
C2 C3 1_555 1_555
C3 H3 1_555 1_555
C4 C3 1_555 1_555
H4 C4 1_555 1_555
C5 S1 1_555 1_555
C6 C5 1_555 1_555
Yb1C O2 1_555 1_555
Yb1_2 O3 1_555 1_555
Yb1B O4 1_555 1_555
Yb1B_2 O6 1_555 1_555
O2C Yb1 1_555 1_555
O3_2 Yb1 1_555 1_555
O4B Yb1 1_555 1_555
O6B Yb1 1_555 1_555
O7 N1 1_555 1_555
C4 C5 1_555 1_555
Yb1B_2 O6B 1_555 1_555

#END
