
#######################################################################
#
#                 Cambridge Crystallographic Data Centre
#                                CCDC 
#
#######################################################################
#
# If this CIF has been generated from an entry in the Cambridge 
# Structural Database, then it will include bibliographic, chemical, 
# crystal, experimental, refinement or atomic coordinate data resulting 
# from the CCDC's data processing and validation procedures.
#
#######################################################################

data_ICOSAW
_symmetry_cell_setting           monoclinic
_symmetry_space_group_name_H-M   'P 21/c'
_symmetry_Int_Tables_number      14
_space_group_name_Hall           '-P 2ybc'
loop_
_symmetry_equiv_pos_site_id
_symmetry_equiv_pos_as_xyz
1 x,y,z
2 -x,1/2+y,1/2-z
3 -x,-y,-z
4 x,1/2-y,1/2+z
_cell_length_a                   9.971(3)
_cell_length_b                   14.389(4)
_cell_length_c                   7.971(2)
_cell_angle_alpha                90
_cell_angle_beta                 103.982(6)
_cell_angle_gamma                90
_cell_volume                     1109.74
loop_
_atom_site_label
_atom_site_type_symbol
_atom_site_fract_x
_atom_site_fract_y
_atom_site_fract_z
C1 C 0.6994(4) 0.2386(3) 0.5571(5)
C2 C 0.5581(5) 0.2287(3) 0.4438(6)
C3 C 0.4733(5) 0.2963(3) 0.3532(6)
H1 H 0.4981 0.3585 0.3522
C4 C 0.3445(5) 0.2609(3) 0.2623(6)
H2 H 0.2744 0.2972 0.1955
C5 C 0.3345(4) 0.1653(3) 0.2840(6)
C6 C 0.2153(5) 0.1054(3) 0.2013(7)
N1 N 1.1094(4) 0.0330(3) 0.7399(5)
O1 O 0.7487(3) 0.17081(18) 0.6542(4)
O2 O 0.7632(3) 0.31518(19) 0.5519(4)
O3 O 0.2276(3) 0.01733(19) 0.2192(4)
O4 O 0.1102(3) 0.1465(2) 0.1083(4)
O5 O 1.0409(3) 0.10543(19) 0.6769(4)
O6 O 1.0799(3) -0.00797(19) 0.8699(4)
O7 O 1.2280(5) -0.0043(3) 0.6618(6)
O8 O 0.9654(3) 0.2756(2) 0.8854(4)
H3 H 1.0324 0.2913 0.8411
H4 H 0.9198 0.3178 0.9243
S1 S 0.48026(12) 0.11950(7) 0.41611(15)
Tb1 Tb 0.90525(2) 0.113458(13) 0.89723(3)
O2C O 0.7632(3) 0.18482(19) 1.0519(4)
O3B O 0.7724(3) -0.01733(19) 0.7808(4)
O4_2 O 1.1102(3) 0.1465(2) 1.1083(4)
O6B O 0.9201(3) 0.00797(19) 1.1301(4)
Tb1C Tb 0.90525(2) 0.386542(13) 0.39723(3)
Tb1B Tb 0.09475(2) -0.113458(13) 0.10277(3)
Tb1_2 Tb -0.09475(2) 0.113458(13) -0.10277(3)
Tb1B_2 Tb 1.09475(2) -0.113458(13) 1.10277(3)
loop_
_geom_bond_atom_site_label_1
_geom_bond_atom_site_label_2
_geom_bond_site_symmetry_1
_geom_bond_site_symmetry_2
C1 C2 1_555 1_555
C2 C3 1_555 1_555
C3 H1 1_555 1_555
C4 C3 1_555 1_555
H2 C4 1_555 1_555
C5 C4 1_555 1_555
C6 C5 1_555 1_555
N1 O5 1_555 1_555
O1 C1 1_555 1_555
O2 C1 1_555 1_555
O3 C6 1_555 1_555
O4 C6 1_555 1_555
O5 Tb1 1_555 1_555
O6 N1 1_555 1_555
O7 N1 1_555 1_555
O8 H3 1_555 1_555
H4 O8 1_555 1_555
S1 C2 1_555 1_555
Tb1 O1 1_555 1_555
O2C Tb1 1_555 1_555
O3B Tb1 1_555 1_555
O4_2 Tb1 1_555 1_555
O6B Tb1 1_555 1_555
Tb1C O2 1_555 1_555
Tb1B O3 1_555 1_555
Tb1_2 O4 1_555 1_555
Tb1B_2 O6 1_555 1_555
C5 S1 1_555 1_555
O6 Tb1 1_555 1_555
O8 Tb1 1_555 1_555
O6B Tb1B_2 1_555 1_555

#END
