
#######################################################################
#
#                 Cambridge Crystallographic Data Centre
#                                CCDC 
#
#######################################################################
#
# If this CIF has been generated from an entry in the Cambridge 
# Structural Database, then it will include bibliographic, chemical, 
# crystal, experimental, refinement or atomic coordinate data resulting 
# from the CCDC's data processing and validation procedures.
#
#######################################################################

data_ICOSEA
_symmetry_cell_setting           monoclinic
_symmetry_space_group_name_H-M   'P 21/c'
_symmetry_Int_Tables_number      14
_space_group_name_Hall           '-P 2ybc'
loop_
_symmetry_equiv_pos_site_id
_symmetry_equiv_pos_as_xyz
1 x,y,z
2 -x,1/2+y,1/2-z
3 -x,-y,-z
4 x,1/2-y,1/2+z
_cell_length_a                   9.8979(7)
_cell_length_b                   14.2167(11)
_cell_length_c                   7.9086(6)
_cell_angle_alpha                90
_cell_angle_beta                 104.093(2)
_cell_angle_gamma                90
_cell_volume                     1079.37
loop_
_atom_site_label
_atom_site_type_symbol
_atom_site_fract_x
_atom_site_fract_y
_atom_site_fract_z
C1 C 0.7007(8) 0.2392(5) 0.5569(10)
C2 C 0.5593(8) 0.2292(5) 0.4426(10)
C3 C 0.4746(9) 0.2951(6) 0.3501(11)
H1 H 0.5001 0.3581 0.3466
C4 C 0.3447(9) 0.2604(6) 0.2596(12)
H2 H 0.2738 0.2975 0.1928
C5 C 0.3349(8) 0.1650(6) 0.2814(10)
C6 C 0.2161(9) 0.1054(5) 0.1964(11)
Dy1 Dy 0.90595(4) 0.11338(2) 0.89682(5)
N1 N 1.1098(8) 0.0324(5) 0.7410(11)
O1 O 0.7498(6) 0.1710(4) 0.6551(7)
O2 O 0.7647(6) 0.3153(4) 0.5495(7)
O3 O 0.2273(6) 0.0173(4) 0.2202(8)
O4 O 0.1107(6) 0.1462(4) 0.1063(8)
O5 O 1.0406(6) 0.1055(4) 0.6769(8)
O6 O 1.0798(6) -0.0082(4) 0.8700(7)
O7 O 1.2270(11) -0.0050(7) 0.6646(13)
O8 O 0.9659(7) 0.2756(4) 0.8828(7)
H3 H 1.0329 0.2913 0.8385
H4 H 0.9202 0.3178 0.9217
S1 S 0.4814(2) 0.11927(14) 0.4156(3)
Dy1C Dy 0.90595(4) 0.38662(2) 0.39682(5)
Dy1B Dy 0.09405(4) -0.11338(2) 0.10318(5)
Dy1_2 Dy -0.09405(4) 0.11338(2) -0.10318(5)
Dy1B_2 Dy 1.09405(4) -0.11338(2) 1.10318(5)
O2C O 0.7647(6) 0.1847(4) 1.0495(7)
O3B O 0.7727(6) -0.0173(4) 0.7798(8)
O4_2 O 1.1107(6) 0.1462(4) 1.1063(8)
O6B O 0.9202(6) 0.0082(4) 1.1300(7)
loop_
_geom_bond_atom_site_label_1
_geom_bond_atom_site_label_2
_geom_bond_site_symmetry_1
_geom_bond_site_symmetry_2
C1 C2 1_555 1_555
C2 C3 1_555 1_555
C3 H1 1_555 1_555
C4 C3 1_555 1_555
H2 C4 1_555 1_555
C5 C4 1_555 1_555
C6 C5 1_555 1_555
Dy1 O1 1_555 1_555
N1 O5 1_555 1_555
O1 C1 1_555 1_555
O2 C1 1_555 1_555
O3 C6 1_555 1_555
O4 C6 1_555 1_555
O5 Dy1 1_555 1_555
O6 Dy1 1_555 1_555
O7 N1 1_555 1_555
O8 Dy1 1_555 1_555
H3 O8 1_555 1_555
H4 O8 1_555 1_555
S1 C2 1_555 1_555
Dy1C O2 1_555 1_555
Dy1B O3 1_555 1_555
Dy1_2 O4 1_555 1_555
Dy1B_2 O6 1_555 1_555
O2C Dy1 1_555 1_555
O3B Dy1 1_555 1_555
O4_2 Dy1 1_555 1_555
O6B Dy1 1_555 1_555
C5 S1 1_555 1_555
N1 O6 1_555 1_555
Dy1B_2 O6B 1_555 1_555

#END
