
#######################################################################
#
#                 Cambridge Crystallographic Data Centre
#                                CCDC 
#
#######################################################################
#
# If this CIF has been generated from an entry in the Cambridge 
# Structural Database, then it will include bibliographic, chemical, 
# crystal, experimental, refinement or atomic coordinate data resulting 
# from the CCDC's data processing and validation procedures.
#
#######################################################################

data_ICOVAZ
_symmetry_cell_setting           monoclinic
_symmetry_space_group_name_H-M   'P 21/n'
_symmetry_Int_Tables_number      14
_space_group_name_Hall           '-P 2yn'
loop_
_symmetry_equiv_pos_site_id
_symmetry_equiv_pos_as_xyz
1 x,y,z
2 1/2-x,1/2+y,1/2-z
3 -x,-y,-z
4 1/2+x,1/2-y,1/2+z
_cell_length_a                   8.91230(10)
_cell_length_b                   17.6544(2)
_cell_length_c                   18.3071(2)
_cell_angle_alpha                90
_cell_angle_beta                 98.6140(10)
_cell_angle_gamma                90
_cell_volume                     2847.97
loop_
_atom_site_label
_atom_site_type_symbol
_atom_site_fract_x
_atom_site_fract_y
_atom_site_fract_z
Zn1 Zn 0.49709(3) 0.798082(14) 0.122064(13)
N1 N 0.4101(2) 0.70688(9) 0.16996(10)
C1 C 0.2149(2) 0.51633(13) 0.26459(11)
O1 O 0.3668(2) 0.80911(10) 0.02331(9)
O2 O 0.7127(2) 0.80246(11) 0.23191(14)
C2 C 0.2814(3) 0.58224(12) 0.23199(11)
C3 C 0.4225(3) 0.76067(14) -0.01654(13)
C4 C 0.4705(3) 0.67912(14) 0.23607(12)
H1 H 0.5569 0.7022 0.2613
O3 O 0.7040(2) 0.83783(12) 0.11655(11)
C5 C 0.4102(3) 0.61806(13) 0.26825(12)
H2 H 0.4556 0.6008 0.3143
C6 C 0.1095(3) 0.71874(15) -0.08059(13)
C7 C 0.1458(3) 0.45780(14) 0.22175(12)
H3 H 0.1400 0.4596 0.1706
C8 C 0.2868(3) 0.67209(14) 0.13429(12)
H4 H 0.2441 0.6903 0.0882
O4 O 0.9777(2) 0.88078(14) 0.27248(12)
C9 C 0.2205(3) 0.61064(14) 0.16290(13)
H5 H 0.1352 0.5881 0.1362
C10 C 0.7704(3) 0.83246(15) 0.18223(17)
C11 C 0.3577(3) 0.75957(16) -0.09853(13)
H6 H 0.3787 0.7106 -0.1200
C12 C 0.2172(3) 0.51025(14) 0.33993(13)
H7 H 0.2614 0.5483 0.3712
C13 C 0.1536(3) 0.64526(17) -0.06493(15)
H8 H 0.2494 0.6290 -0.0724
C14 C -0.0329(3) 0.7414(2) -0.06913(17)
H9 H -0.0650 0.7908 -0.0799
C15 C 1.0381(4) 0.8027(2) 0.1755(3)
H10 H 1.1404 0.8213 0.1839
H11 H 1.0105 0.7903 0.1242
H12 H 1.0308 0.7582 0.2049
C16 C 0.9166(4) 0.9434(2) 0.30027(16)
C17 C 0.7459(5) 1.0477(2) 0.2996(2)
H13 H 0.6630 1.0748 0.2760
C18 C 0.9323(3) 0.86264(18) 0.19663(16)
H14 H 0.9398 0.9080 0.1665
C19 C -0.1278(4) 0.6905(2) -0.0416(2)
H15 H -0.2239 0.7061 -0.0339
C20 C 0.7952(4) 0.98443(19) 0.26494(19)
H16 H 0.7470 0.9699 0.2185
C21 C -0.0833(4) 0.6182(2) -0.02565(18)
H17 H -0.1474 0.5845 -0.0064
C22 C 0.9862(5) 0.9674(3) 0.37013(18)
H18 H 1.0670 0.9401 0.3954
C23 C 0.0562(4) 0.59588(19) -0.03822(17)
H19 H 0.0864 0.5460 -0.0285
C24 C 0.4259(4) 0.8223(2) -0.13850(17)
H20 H 0.3850 0.8206 -0.1901
H21 H 0.5340 0.8161 -0.1326
H22 H 0.4022 0.8703 -0.1183
O5 O 0.1975(2) 0.77251(11) -0.10810(9)
O6 O 0.5254(2) 0.71711(12) 0.00783(12)
C25 C 0.9347(7) 1.0315(3) 0.4013(2)
H23 H 0.9834 1.0478 0.4471
C26 C 0.8154(8) 1.0711(3) 0.3669(3)
H24 H 0.7810 1.1139 0.3890
N2 N 0.0894(2) 0.39097(10) 0.32718(10)
C27 C 0.0859(3) 0.39722(14) 0.25429(13)
H25 H 0.0407 0.3586 0.2241
C28 C 0.1543(3) 0.44796(14) 0.36878(13)
H26 H 0.1570 0.4453 0.4197
Zn1A Zn 0.00291(3) 0.298082(14) 0.377936(13)
N2A N 0.4106(2) 0.89097(10) 0.17282(10)
O7 O 0.1744(4) 1.0754(2) -0.00671(14)
H27 H 0.134(7) 1.035(2) -0.028(3)
H28 H 0.216(5) 1.098(2) -0.040(2)
O8 O -0.1063(4) 1.07490(18) 0.04510(19)
H29 H -0.079(5) 1.084(3) 0.0038(16)
H30 H -0.179(6) 1.106(3) 0.048(3)
loop_
_geom_bond_atom_site_label_1
_geom_bond_atom_site_label_2
_geom_bond_site_symmetry_1
_geom_bond_site_symmetry_2
Zn1 N1 1_555 1_555
N1 C4 1_555 1_555
C1 C2 1_555 1_555
O1 Zn1 1_555 1_555
O2 C10 1_555 1_555
C2 C5 1_555 1_555
C3 O1 1_555 1_555
C4 H1 1_555 1_555
O3 Zn1 1_555 1_555
C5 C4 1_555 1_555
H2 C5 1_555 1_555
C6 C13 1_555 1_555
C7 C1 1_555 1_555
H3 C7 1_555 1_555
C8 N1 1_555 1_555
H4 C8 1_555 1_555
O4 C16 1_555 1_555
C9 C2 1_555 1_555
H5 C9 1_555 1_555
C10 O3 1_555 1_555
C11 C3 1_555 1_555
H6 C11 1_555 1_555
C12 C1 1_555 1_555
H7 C12 1_555 1_555
C13 H8 1_555 1_555
C14 C6 1_555 1_555
H9 C14 1_555 1_555
C15 H10 1_555 1_555
H11 C15 1_555 1_555
H12 C15 1_555 1_555
C16 C20 1_555 1_555
C17 H13 1_555 1_555
C18 O4 1_555 1_555
H14 C18 1_555 1_555
C19 C14 1_555 1_555
H15 C19 1_555 1_555
C20 C17 1_555 1_555
H16 C20 1_555 1_555
C21 C19 1_555 1_555
H17 C21 1_555 1_555
C22 C16 1_555 1_555
H18 C22 1_555 1_555
C23 C13 1_555 1_555
H19 C23 1_555 1_555
C24 C11 1_555 1_555
H20 C24 1_555 1_555
H21 C24 1_555 1_555
H22 C24 1_555 1_555
O5 C6 1_555 1_555
O6 C3 1_555 1_555
C25 C22 1_555 1_555
H23 C25 1_555 1_555
C26 C17 1_555 1_555
H24 C26 1_555 1_555
N2 C27 1_555 1_555
C27 C7 1_555 1_555
H25 C27 1_555 1_555
C28 C12 1_555 1_555
H26 C28 1_555 1_555
O7 H27 1_555 1_555
H28 O7 1_555 1_555
O8 H29 1_555 1_555
H30 O8 1_555 1_555
Zn1A N2 1_555 1_555
N2A Zn1 1_555 1_555
C8 C9 1_555 1_555
C10 C18 1_555 1_555
C11 O5 1_555 1_555
C15 C18 1_555 1_555
C21 C23 1_555 1_555
C25 C26 1_555 1_555
N2 C28 1_555 1_555

#END
