
#######################################################################
#
#                 Cambridge Crystallographic Data Centre
#                                CCDC 
#
#######################################################################
#
# If this CIF has been generated from an entry in the Cambridge 
# Structural Database, then it will include bibliographic, chemical, 
# crystal, experimental, refinement or atomic coordinate data resulting 
# from the CCDC's data processing and validation procedures.
#
#######################################################################

data_ICOVIH
_symmetry_cell_setting           triclinic
_symmetry_space_group_name_H-M   'P -1'
_symmetry_Int_Tables_number      2
_space_group_name_Hall           '-P 1'
loop_
_symmetry_equiv_pos_site_id
_symmetry_equiv_pos_as_xyz
1 x,y,z
2 -x,-y,-z
_cell_length_a                   8.628(2)
_cell_length_b                   12.389(3)
_cell_length_c                   14.639(3)
_cell_angle_alpha                65.972(4)
_cell_angle_beta                 77.814(4)
_cell_angle_gamma                73.765(4)
_cell_volume                     1363.75
loop_
_atom_site_label
_atom_site_type_symbol
_atom_site_fract_x
_atom_site_fract_y
_atom_site_fract_z
C1 C 0.5354(6) 0.8711(4) -0.1051(4)
C2 C 0.6716(8) 0.8257(6) -0.1769(5)
H1 H 0.7761 0.8246 -0.1613
H2 H 0.6589 0.8817 -0.2456
C3 C 0.7221(7) 0.5884(6) -0.0539(4)
C4 C 0.7889(8) 0.4269(5) 0.1077(5)
C5 C 0.8231(9) 0.3216(6) 0.1984(5)
H3 H 0.9242 0.3179 0.2181
H4 H 0.8302 0.2499 0.1860
H5 H 0.7375 0.3270 0.2512
C6 C 0.3120(7) 0.7276(5) 0.1431(4)
C7 C 0.3499(8) 0.5950(5) 0.2043(4)
H6 H 0.4216 0.5539 0.1622
H7 H 0.2498 0.5662 0.2234
C8 C 0.2651(8) 0.5893(5) 0.3953(5)
C9 C 0.0640(8) 0.6471(6) 0.5105(5)
C10 C -0.0617(7) 0.6673(6) 0.5948(5)
H8 H -0.1337 0.7449 0.5692
H9 H -0.0081 0.6649 0.6471
H10 H -0.1228 0.6050 0.6216
C11 C -0.0266(7) 0.9815(6) 0.1797(4)
C12 C -0.1528(7) 0.9874(5) 0.2590(4)
H11 H -0.1969 0.9154 0.2836
H12 H -0.2394 1.0568 0.2321
C13 C -0.2587(9) 1.0650(5) 0.4066(4)
C14 C -0.4439(8) 1.1516(5) 0.5123(5)
C15 C -0.5707(7) 1.2214(6) 0.5739(4)
H13 H -0.6769 1.2097 0.5758
H14 H -0.5706 1.3062 0.5424
H15 H -0.5425 1.1912 0.6412
N1 N 0.7809(5) 0.6292(4) 0.0097(3)
N2 N 0.8171(5) 0.5383(4) 0.1019(3)
N3 N 0.1175(7) 0.6355(5) 0.3534(4)
N4 N 0.0000(7) 0.6634(5) 0.4256(4)
N5 N -0.4187(6) 1.1075(4) 0.3718(3)
N6 N -0.5312(6) 1.1612(5) 0.4327(4)
O1 O 0.3983(4) 0.8539(3) -0.0902(3)
O2 O 0.5721(5) 0.9333(3) -0.0628(3)
O3 O 0.4025(4) 0.7937(3) 0.1399(3)
O4 O 0.1893(5) 0.7700(3) 0.0972(3)
O5 O -0.0525(5) 0.9827(3) 0.0981(3)
O6 O 0.1242(5) 0.9735(4) 0.1888(3)
O7 O 0.0724(5) 1.1927(3) -0.0001(3)
H16 H 0.1314 1.2383 -0.0018
H17 H 0.0260 1.2239 -0.0536
O8 O 0.3249(5) 1.1421(3) -0.1551(3)
H18 H 0.2621 1.2106 -0.1613
H19 H 0.4224 1.1465 -0.1578
Pr1 Pr 0.24896(4) 0.98495(3) 0.01203(2)
S1 S 0.66882(18) 0.67923(13) -0.16715(11)
S2 S 0.7189(2) 0.44251(14) 0.00463(13)
S3 S 0.44416(19) 0.55221(14) 0.31783(11)
S4 S 0.2586(2) 0.58555(15) 0.51001(13)
S5 S -0.0898(2) 0.99913(16) 0.36016(13)
S6 S -0.2580(2) 1.07196(15) 0.51747(12)
O2A O 0.4279(5) 1.0667(3) 0.0628(3)
O5A O 0.0525(5) 1.0173(3) -0.0981(3)
Pr1A Pr 0.75104(4) 1.01505(3) -0.01203(2)
Pr1A_2 Pr -0.24896(4) 1.01505(3) -0.01203(2)
O9 O 0.8698(5) 0.6374(3) 0.2408(3)
H20 H 0.9689 0.6403 0.2202
H21 H 0.8446 0.6482 0.2963
loop_
_geom_bond_atom_site_label_1
_geom_bond_atom_site_label_2
_geom_bond_site_symmetry_1
_geom_bond_site_symmetry_2
C1 C2 1_555 1_555
C2 H1 1_555 1_555
H2 C2 1_555 1_555
C3 N1 1_555 1_555
C4 C5 1_555 1_555
C5 H3 1_555 1_555
H4 C5 1_555 1_555
H5 C5 1_555 1_555
C6 C7 1_555 1_555
C7 H6 1_555 1_555
H7 C7 1_555 1_555
C8 N3 1_555 1_555
C9 C10 1_555 1_555
C10 H8 1_555 1_555
H9 C10 1_555 1_555
H10 C10 1_555 1_555
C11 C12 1_555 1_555
C12 H11 1_555 1_555
H12 C12 1_555 1_555
C13 N5 1_555 1_555
C14 C15 1_555 1_555
C15 H13 1_555 1_555
H14 C15 1_555 1_555
H15 C15 1_555 1_555
N1 N2 1_555 1_555
N2 C4 1_555 1_555
N3 N4 1_555 1_555
N4 C9 1_555 1_555
N5 N6 1_555 1_555
N6 C14 1_555 1_555
O1 C1 1_555 1_555
O2 C1 1_555 1_555
O3 C6 1_555 1_555
O4 C6 1_555 1_555
O5 C11 1_555 1_555
O6 C11 1_555 1_555
O7 H16 1_555 1_555
H17 O7 1_555 1_555
O8 H18 1_555 1_555
H19 O8 1_555 1_555
O9 H20 1_555 1_555
H21 O9 1_555 1_555
Pr1 O1 1_555 1_555
S1 C2 1_555 1_555
S2 C3 1_555 1_555
S3 C7 1_555 1_555
S4 C8 1_555 1_555
S5 C12 1_555 1_555
S6 C13 1_555 1_555
O2A Pr1 1_555 1_555
O5A Pr1 1_555 1_555
Pr1A O2 1_555 1_555
Pr1A_2 O5 1_555 1_555
C3 S1 1_555 1_555
C4 S2 1_555 1_555
C8 S3 1_555 1_555
C9 S4 1_555 1_555
C13 S5 1_555 1_555
C14 S6 1_555 1_555
O2 Pr1 1_555 1_555
O3 Pr1 1_555 1_555
O4 Pr1 1_555 1_555
O5 Pr1 1_555 1_555
O6 Pr1 1_555 1_555
O7 Pr1 1_555 1_555
O8 Pr1 1_555 1_555
O2A Pr1A 1_555 1_555
O5A Pr1A_2 1_555 1_555

#END
