
#######################################################################
#
#                 Cambridge Crystallographic Data Centre
#                                CCDC 
#
#######################################################################
#
# If this CIF has been generated from an entry in the Cambridge 
# Structural Database, then it will include bibliographic, chemical, 
# crystal, experimental, refinement or atomic coordinate data resulting 
# from the CCDC's data processing and validation procedures.
#
#######################################################################

data_ICOVED
_symmetry_cell_setting           triclinic
_symmetry_space_group_name_H-M   'P -1'
_symmetry_Int_Tables_number      2
_space_group_name_Hall           '-P 1'
loop_
_symmetry_equiv_pos_site_id
_symmetry_equiv_pos_as_xyz
1 x,y,z
2 -x,-y,-z
_cell_length_a                   8.5758(14)
_cell_length_b                   12.3355(19)
_cell_length_c                   14.593(3)
_cell_angle_alpha                65.986(4)
_cell_angle_beta                 77.739(3)
_cell_angle_gamma                73.681(4)
_cell_volume                     1344.83
loop_
_atom_site_label
_atom_site_type_symbol
_atom_site_fract_x
_atom_site_fract_y
_atom_site_fract_z
C1 C 0.5352(6) 0.8708(5) -0.1045(4)
C2 C 0.6713(7) 0.8259(5) -0.1767(4)
H1 H 0.7766 0.8249 -0.1614
H2 H 0.6580 0.8822 -0.2455
C3 C 0.7226(6) 0.5873(5) -0.0542(4)
C4 C 0.7896(8) 0.4273(5) 0.1085(5)
C5 C 0.8226(9) 0.3224(5) 0.1986(5)
H3 H 0.9232 0.3192 0.2196
H4 H 0.8319 0.2503 0.1857
H5 H 0.7350 0.3273 0.2510
C6 C 0.3124(6) 0.7281(4) 0.1428(4)
C7 C 0.3499(7) 0.5954(5) 0.2042(4)
H6 H 0.4219 0.5538 0.1621
H7 H 0.2489 0.5668 0.2235
C8 C 0.2640(7) 0.5880(5) 0.3958(4)
C9 C 0.0653(7) 0.6462(6) 0.5109(4)
C10 C -0.0611(7) 0.6671(6) 0.5954(5)
H8 H -0.1386 0.7421 0.5686
H9 H -0.0078 0.6711 0.6452
H10 H -0.1170 0.6012 0.6260
C11 C -0.0265(6) 0.9816(5) 0.1788(4)
C12 C -0.1537(6) 0.9880(5) 0.2581(4)
H11 H -0.1987 0.9160 0.2827
H12 H -0.2404 1.0581 0.2311
C13 C -0.2581(8) 1.0657(5) 0.4068(4)
C14 C -0.4434(7) 1.1518(5) 0.5129(5)
C15 C -0.5702(7) 1.2208(6) 0.5742(4)
H13 H -0.6779 1.2143 0.5715
H14 H -0.5643 1.3049 0.5459
H15 H -0.5470 1.1861 0.6431
N1 N 0.7815(5) 0.6293(4) 0.0099(3)
N2 N 0.8168(5) 0.5379(4) 0.1021(3)
N3 N 0.1180(6) 0.6359(5) 0.3534(4)
N4 N 0.0018(7) 0.6635(5) 0.4256(4)
N5 N -0.4189(5) 1.1073(4) 0.3721(3)
N6 N -0.5302(5) 1.1606(5) 0.4333(4)
O1 O 0.3986(4) 0.8534(3) -0.0899(2)
O2 O 0.5716(4) 0.9336(3) -0.0627(3)
O3 O 0.4018(4) 0.7941(3) 0.1399(2)
O4 O 0.1888(4) 0.7700(3) 0.0971(3)
O5 O -0.0523(4) 0.9826(3) 0.0977(3)
O6 O 0.1245(4) 0.9734(4) 0.1891(3)
O7 O 0.0719(4) 1.1927(3) 0.0000(3)
H16 H 0.1309 1.2382 -0.0017
H17 H 0.0255 1.2238 -0.0535
O8 O 0.3251(4) 1.1421(3) -0.1551(3)
H18 H 0.2624 1.2107 -0.1614
H19 H 0.4226 1.1466 -0.1578
Nd1 Nd 0.24895(3) 0.98496(2) 0.01205(2)
S1 S 0.66877(16) 0.67919(12) -0.16690(11)
S2 S 0.71894(18) 0.44259(13) 0.00455(12)
S3 S 0.44432(17) 0.55241(13) 0.31768(11)
S4 S 0.25846(19) 0.58576(15) 0.50999(12)
S5 S -0.08959(19) 0.99919(15) 0.36006(12)
S6 S -0.25855(19) 1.07274(14) 0.51751(12)
O2A O 0.4284(4) 1.0664(3) 0.0627(3)
O5A O 0.0523(4) 1.0174(3) -0.0977(3)
Nd1A Nd 0.75105(3) 1.01504(2) -0.01205(2)
Nd1A_2 Nd -0.24895(3) 1.01504(2) -0.01205(2)
O9 O 0.8706(5) 0.6374(3) 0.2406(3)
H20 H 0.9697 0.6403 0.2200
H21 H 0.8454 0.6482 0.2961
loop_
_geom_bond_atom_site_label_1
_geom_bond_atom_site_label_2
_geom_bond_site_symmetry_1
_geom_bond_site_symmetry_2
C1 C2 1_555 1_555
C2 H1 1_555 1_555
H2 C2 1_555 1_555
C3 N1 1_555 1_555
C4 C5 1_555 1_555
C5 H3 1_555 1_555
H4 C5 1_555 1_555
H5 C5 1_555 1_555
C6 C7 1_555 1_555
C7 H6 1_555 1_555
H7 C7 1_555 1_555
C8 N3 1_555 1_555
C9 C10 1_555 1_555
C10 H8 1_555 1_555
H9 C10 1_555 1_555
H10 C10 1_555 1_555
C11 C12 1_555 1_555
C12 H11 1_555 1_555
H12 C12 1_555 1_555
C13 N5 1_555 1_555
C14 C15 1_555 1_555
C15 H13 1_555 1_555
H14 C15 1_555 1_555
H15 C15 1_555 1_555
N1 N2 1_555 1_555
N2 C4 1_555 1_555
N3 N4 1_555 1_555
N4 C9 1_555 1_555
N5 N6 1_555 1_555
N6 C14 1_555 1_555
O1 C1 1_555 1_555
O2 C1 1_555 1_555
O3 C6 1_555 1_555
O4 C6 1_555 1_555
O5 C11 1_555 1_555
O6 C11 1_555 1_555
O7 H16 1_555 1_555
H17 O7 1_555 1_555
O8 H18 1_555 1_555
H19 O8 1_555 1_555
O9 H20 1_555 1_555
H21 O9 1_555 1_555
Nd1 O1 1_555 1_555
S1 C2 1_555 1_555
S2 C3 1_555 1_555
S3 C7 1_555 1_555
S4 C8 1_555 1_555
S5 C12 1_555 1_555
S6 C13 1_555 1_555
O2A Nd1 1_555 1_555
O5A Nd1 1_555 1_555
Nd1A O2 1_555 1_555
Nd1A_2 O5 1_555 1_555
C3 S1 1_555 1_555
C4 S2 1_555 1_555
C8 S3 1_555 1_555
C9 S4 1_555 1_555
C13 S5 1_555 1_555
C14 S6 1_555 1_555
O2 Nd1 1_555 1_555
O3 Nd1 1_555 1_555
O4 Nd1 1_555 1_555
O5 Nd1 1_555 1_555
O6 Nd1 1_555 1_555
O7 Nd1 1_555 1_555
O8 Nd1 1_555 1_555
O2A Nd1A 1_555 1_555
O5A Nd1A_2 1_555 1_555

#END
