
#######################################################################
#
#                 Cambridge Crystallographic Data Centre
#                                CCDC 
#
#######################################################################
#
# If this CIF has been generated from an entry in the Cambridge 
# Structural Database, then it will include bibliographic, chemical, 
# crystal, experimental, refinement or atomic coordinate data resulting 
# from the CCDC's data processing and validation procedures.
#
#######################################################################

data_ICOVUT
_symmetry_cell_setting           monoclinic
_symmetry_space_group_name_H-M   'C 2/c'
_symmetry_Int_Tables_number      15
_space_group_name_Hall           '-C 2yn'
loop_
_symmetry_equiv_pos_site_id
_symmetry_equiv_pos_as_xyz
1 x,y,z
2 -x,y,1/2-z
3 1/2+x,1/2+y,z
4 1/2-x,1/2+y,1/2-z
5 -x,-y,-z
6 x,-y,1/2+z
7 1/2-x,1/2-y,-z
8 1/2+x,1/2-y,1/2+z
_cell_length_a                   20.316(4)
_cell_length_b                   16.089(3)
_cell_length_c                   16.093(3)
_cell_angle_alpha                90
_cell_angle_beta                 125.12(3)
_cell_angle_gamma                90
_cell_volume                     4302.59
loop_
_atom_site_label
_atom_site_type_symbol
_atom_site_fract_x
_atom_site_fract_y
_atom_site_fract_z
Cd1 Cd 0.38127(2) 0.91781(2) 0.66904(3)
C1 C 0.4061(4) 1.1922(4) 0.7412(5)
O1 O 0.4693(2) 0.8698(2) 0.6362(3)
O2 O 0.5859(2) 0.8049(2) 0.7299(3)
N1 N 0.4160(3) 1.0419(3) 0.7567(3)
C2 C 0.4771(3) 0.7314(3) 0.5909(4)
C3 C 0.3880(4) 1.2644(4) 0.6778(6)
C4 C 0.5132(3) 0.8067(3) 0.6572(4)
C5 C 0.4923(4) 0.6133(4) 0.5117(5)
H1 H 0.5245 0.5803 0.5013
N2 N 0.3598(3) 1.0277(3) 0.5578(3)
C6 C 0.3960(3) 0.7133(3) 0.5395(4)
H2 H 0.3632 0.7476 0.5477
C7 C 0.4415(4) 1.0481(4) 0.8523(5)
H3 H 0.4554 0.9999 0.8909
C8 C 0.5259(3) 0.6799(3) 0.5782(4)
H4 H 0.5809 0.6902 0.6143
N3 N 0.3462(4) 1.3259(4) 0.5201(6)
C9 C 0.3266(4) 1.1643(5) 0.4356(6)
H5 H 0.3144 1.2098 0.3935
C10 C 0.3188(5) 1.0867(5) 0.3995(6)
H6 H 0.3027 1.0786 0.3330
C11 C 0.4485(4) 1.1242(5) 0.8978(5)
H7 H 0.4641 1.1267 0.9646
C12 C 0.3978(3) 1.1123(3) 0.7006(5)
C13 C 0.3350(4) 1.0193(4) 0.4616(5)
H8 H 0.3284 0.9660 0.4353
C14 C 0.3695(3) 1.1043(3) 0.5955(5)
C15 C 0.3630(4) 1.2574(4) 0.5798(6)
C16 C 0.3526(4) 1.1764(4) 0.5354(5)
N4 N 0.3991(4) 1.3435(4) 0.7241(6)
C17 C 0.4322(4) 1.1950(4) 0.8428(6)
H9 H 0.4385 1.2463 0.8733
C18 C 0.3841(8) 1.4092(5) 0.6583(12)
C19 C 0.3523(8) 1.4023(7) 0.5589(11)
H10 H 0.3348 1.4491 0.5175
C20 C 0.3941(8) 1.4939(6) 0.7060(10)
H11 H 0.4184 1.4874 0.7774
H12 H 0.3424 1.5198 0.6744
H13 H 0.4279 1.5281 0.6964
O3 O 0.2442(2) 0.5715(3) 0.3506(3)
O4 O 0.2379(2) 0.6500(2) 0.4572(3)
C21 C 0.3630(3) 0.6450(3) 0.4764(4)
C22 C 0.4121(4) 0.5957(4) 0.4611(4)
H14 H 0.3901 0.5509 0.4165
C23 C 0.2765(3) 0.6212(3) 0.4239(4)
Cd1A Cd 0.61873(2) 0.91781(2) 0.83096(3)
Cd1F Cd 0.11873(2) 0.58219(2) 0.33096(3)
O2A O 0.4141(2) 0.8049(2) 0.7701(3)
O3F O 0.2558(2) 0.9285(3) 0.6494(3)
O4F O 0.2621(2) 0.8500(2) 0.5428(3)
O5 O 0.2891(4) 0.6765(4) 0.6648(4)
O6 O 0.2779(5) 0.6009(5) 0.8127(7)
loop_
_geom_bond_atom_site_label_1
_geom_bond_atom_site_label_2
_geom_bond_site_symmetry_1
_geom_bond_site_symmetry_2
Cd1 O1 1_555 1_555
C1 C3 1_555 1_555
O1 C4 1_555 1_555
O2 C4 1_555 1_555
N1 Cd1 1_555 1_555
C2 C4 1_555 1_555
C3 C15 1_555 1_555
C5 H1 1_555 1_555
N2 Cd1 1_555 1_555
C6 C2 1_555 1_555
H2 C6 1_555 1_555
C7 N1 1_555 1_555
H3 C7 1_555 1_555
C8 C2 1_555 1_555
H4 C8 1_555 1_555
N3 C15 1_555 1_555
C9 H5 1_555 1_555
C10 C9 1_555 1_555
H6 C10 1_555 1_555
C11 C7 1_555 1_555
H7 C11 1_555 1_555
C12 C1 1_555 1_555
C13 N2 1_555 1_555
H8 C13 1_555 1_555
C14 N2 1_555 1_555
C15 C16 1_555 1_555
C16 C9 1_555 1_555
N4 C3 1_555 1_555
C17 C1 1_555 1_555
H9 C17 1_555 1_555
C18 N4 1_555 1_555
C19 N3 1_555 1_555
H10 C19 1_555 1_555
C20 C18 1_555 1_555
H11 C20 1_555 1_555
H12 C20 1_555 1_555
H13 C20 1_555 1_555
O3 C23 1_555 1_555
O4 C23 1_555 1_555
C21 C6 1_555 1_555
C22 C5 1_555 1_555
H14 C22 1_555 1_555
C23 C21 1_555 1_555
Cd1A O2 1_555 1_555
Cd1F O3 1_555 1_555
O2A Cd1 1_555 1_555
O3F Cd1 1_555 1_555
O4F Cd1 1_555 1_555
N1 C12 1_555 1_555
C5 C8 1_555 1_555
C10 C13 1_555 1_555
C11 C17 1_555 1_555
C12 C14 1_555 1_555
C14 C16 1_555 1_555
C18 C19 1_555 1_555
O4 Cd1F 1_555 1_555
C21 C22 1_555 1_555

#END
