
#######################################################################
#
#                 Cambridge Crystallographic Data Centre
#                                CCDC 
#
#######################################################################
#
# If this CIF has been generated from an entry in the Cambridge 
# Structural Database, then it will include bibliographic, chemical, 
# crystal, experimental, refinement or atomic coordinate data resulting 
# from the CCDC's data processing and validation procedures.
#
#######################################################################

data_ICOWAA
_symmetry_cell_setting           triclinic
_symmetry_space_group_name_H-M   'P -1'
_symmetry_Int_Tables_number      2
_space_group_name_Hall           '-P 1'
loop_
_symmetry_equiv_pos_site_id
_symmetry_equiv_pos_as_xyz
1 x,y,z
2 -x,-y,-z
_cell_length_a                   9.6893(8)
_cell_length_b                   12.2382(10)
_cell_length_c                   15.9221(14)
_cell_angle_alpha                67.4860(10)
_cell_angle_beta                 73.1580(10)
_cell_angle_gamma                78.4680(10)
_cell_volume                     1660.86
loop_
_atom_site_label
_atom_site_type_symbol
_atom_site_fract_x
_atom_site_fract_y
_atom_site_fract_z
Cd1 Cd 1.73926(5) -0.60232(4) 0.59843(4)
Cd2 Cd 1.85647(6) -0.28254(4) 0.38635(4)
C1 C 2.0835(8) -0.0922(7) 0.2300(6)
H1 H 2.0841 -0.0756 0.2822
C2 C 2.1674(8) -0.0282(7) 0.1437(6)
H2 H 2.2222 0.0295 0.1383
C3 C 1.5099(7) -0.2570(6) 0.5746(5)
C4 C 1.5644(8) -0.2007(6) 0.6163(5)
H3 H 1.6498 -0.2336 0.6360
C5 C 1.5828(7) -0.3777(6) 0.5732(5)
O1 O 1.6941(5) -0.3906(4) 0.5113(4)
O2 O 1.5358(5) -0.4649(4) 0.6426(4)
Cl1 Cl 1.9712(6) -0.6188(6) 0.5428(4)
C6 C 1.8596(8) -0.4720(7) 0.7106(6)
H4 H 1.9147 -0.4347 0.6511
C7 C 1.8600(9) -0.4361(7) 0.7839(6)
H5 H 1.9134 -0.3746 0.7725
C8 C 1.7820(8) -0.4916(7) 0.8726(6)
H6 H 1.7838 -0.4699 0.9222
C9 C 1.6994(8) -0.5817(7) 0.8868(5)
C10 C 1.6119(8) -0.6450(7) 0.9791(6)
C11 C 1.5322(10) -0.6761(8) 1.1336(6)
H7 H 1.5315 -0.6601 1.1864
C12 C 1.4482(10) -0.7610(8) 1.1443(6)
H8 H 1.3917 -0.7984 1.2033
C13 C 1.5281(8) -0.7313(7) 0.9878(5)
C14 C 1.5285(8) -0.7601(6) 0.9082(5)
C15 C 1.4440(9) -0.8466(7) 0.9161(6)
H9 H 1.3869 -0.8872 0.9739
C16 C 1.4464(9) -0.8702(7) 0.8386(6)
H10 H 1.3907 -0.9264 0.8425
C17 C 1.5345(8) -0.8081(7) 0.7532(6)
H11 H 1.5354 -0.8240 0.7004
C18 C 1.6135(7) -0.7011(6) 0.8202(5)
C19 C 1.7023(8) -0.6113(6) 0.8098(5)
C20 C 2.1662(8) -0.0534(7) 0.0665(6)
H12 H 2.2206 -0.0121 0.0078
C21 C 2.0830(8) -0.1412(6) 0.0763(5)
C22 C 2.0800(8) -0.1722(7) -0.0022(5)
C23 C 2.1553(10) -0.1458(9) -0.1563(6)
H13 H 2.2103 -0.1085 -0.2159
C24 C 2.0680(11) -0.2321(9) -0.1437(6)
H14 H 2.0670 -0.2498 -0.1953
C25 C 1.9937(9) -0.2591(7) 0.0110(5)
C26 C 1.9079(8) -0.3204(7) 0.1045(5)
C27 C 1.8217(9) -0.4095(7) 0.1224(6)
H15 H 1.8176 -0.4324 0.0739
C28 C 1.7435(9) -0.4627(8) 0.2112(6)
H16 H 1.6849 -0.5213 0.2234
C29 C 1.7523(8) -0.4289(7) 0.2826(6)
H17 H 1.6991 -0.4658 0.3428
C30 C 1.9109(7) -0.2909(6) 0.1802(5)
C31 C 2.0025(8) -0.1991(6) 0.1652(5)
C32 C 1.2921(8) 0.0688(6) 0.6112(5)
C33 C 1.3258(7) -0.2573(6) 0.4881(5)
C34 C 1.3672(7) -0.0461(6) 0.5996(5)
C35 C 1.4945(8) -0.0959(6) 0.6298(5)
H18 H 1.5324 -0.0593 0.6585
C36 C 1.3842(7) -0.2049(6) 0.5410(5)
C37 C 1.3146(7) -0.1001(6) 0.5547(5)
H19 H 1.2310 -0.0655 0.5332
N1 N 1.7827(6) -0.5577(5) 0.7235(5)
N2 N 1.6176(6) -0.7269(5) 0.7435(4)
N3 N 1.6141(8) -0.6160(6) 1.0524(5)
N4 N 1.4445(7) -0.7919(6) 1.0732(5)
N5 N 2.0027(6) -0.1754(5) 0.2422(4)
N6 N 1.8347(6) -0.3447(5) 0.2683(4)
N7 N 2.1620(7) -0.1160(6) -0.0870(4)
N8 N 1.9870(8) -0.2891(7) -0.0612(5)
O3 O 1.3804(6) -0.3592(5) 0.4866(4)
O4 O 1.2276(6) -0.1982(5) 0.4479(4)
O5 O 1.1809(6) 0.1143(5) 0.5771(4)
O6 O 1.3355(5) 0.1152(5) 0.6550(4)
Cd1A Cd 1.26074(5) -0.39768(4) 0.40157(4)
Cd2A Cd 2.14353(6) -0.71746(4) 0.61365(4)
Cd2A_2 Cd 1.14353(6) 0.28254(4) 0.61365(4)
Cl1A Cl 2.0288(6) -0.3812(6) 0.4572(4)
O3A O 1.6196(6) -0.6408(5) 0.5134(4)
O5A O 1.8191(6) -0.1143(5) 0.4229(4)
O6A O 1.6645(5) -0.1152(5) 0.3450(4)
O7 O 0.0497(7) 0.1865(6) 0.4297(4)
H20 H 0.1044 0.1614 0.4680
H21 H -0.0406 0.1919 0.4556
O8 O 0.2092(7) 0.0479(6) 0.3195(4)
H22 H 0.1389 0.0921 0.3413
H23 H 0.2369 -0.0117 0.3625
loop_
_geom_bond_atom_site_label_1
_geom_bond_atom_site_label_2
_geom_bond_site_symmetry_1
_geom_bond_site_symmetry_2
Cd1 O1 1_555 1_555
Cd2 O1 1_555 1_555
C1 H1 1_555 1_555
C2 C1 1_555 1_555
H2 C2 1_555 1_555
C3 C4 1_555 1_555
C4 H3 1_555 1_555
C5 C3 1_555 1_555
O1 C5 1_555 1_555
O2 Cd1 1_555 1_555
Cl1 Cd1 1_555 1_555
C6 H4 1_555 1_555
C7 C6 1_555 1_555
H5 C7 1_555 1_555
C8 C7 1_555 1_555
H6 C8 1_555 1_555
C9 C8 1_555 1_555
C10 C9 1_555 1_555
C11 H7 1_555 1_555
C12 C11 1_555 1_555
H8 C12 1_555 1_555
C13 C10 1_555 1_555
C14 C13 1_555 1_555
C15 C14 1_555 1_555
H9 C15 1_555 1_555
C16 C15 1_555 1_555
H10 C16 1_555 1_555
C17 C16 1_555 1_555
H11 C17 1_555 1_555
C18 C14 1_555 1_555
C19 C9 1_555 1_555
C20 C2 1_555 1_555
H12 C20 1_555 1_555
C21 C20 1_555 1_555
C22 C21 1_555 1_555
C23 H13 1_555 1_555
C24 C23 1_555 1_555
H14 C24 1_555 1_555
C25 C22 1_555 1_555
C26 C25 1_555 1_555
C27 C26 1_555 1_555
H15 C27 1_555 1_555
C28 C27 1_555 1_555
H16 C28 1_555 1_555
C29 C28 1_555 1_555
H17 C29 1_555 1_555
C30 C26 1_555 1_555
C31 C21 1_555 1_555
C32 C34 1_555 1_555
C33 C36 1_555 1_555
C34 C35 1_555 1_555
C35 C4 1_555 1_555
H18 C35 1_555 1_555
C36 C3 1_555 1_555
C37 C34 1_555 1_555
H19 C37 1_555 1_555
N1 Cd1 1_555 1_555
N2 Cd1 1_555 1_555
N3 C10 1_555 1_555
N4 C12 1_555 1_555
N5 Cd2 1_555 1_555
N6 Cd2 1_555 1_555
N7 C22 1_555 1_555
N8 C24 1_555 1_555
O3 C33 1_555 1_555
O4 C33 1_555 1_555
O5 C32 1_555 1_555
O6 C32 1_555 1_555
O7 H20 1_555 1_555
H21 O7 1_555 1_555
O8 H22 1_555 1_555
H23 O8 1_555 1_555
Cd1A O3 1_555 1_555
Cd2A Cl1 1_555 1_555
Cd2A_2 O5 1_555 1_555
Cl1A Cd2 1_555 1_555
O3A Cd1 1_555 1_555
O5A Cd2 1_555 1_555
O6A Cd2 1_555 1_555
C1 N5 1_555 1_555
C5 O2 1_555 1_555
C6 N1 1_555 1_555
C11 N3 1_555 1_555
C13 N4 1_555 1_555
C17 N2 1_555 1_555
C18 C19 1_555 1_555
C18 N2 1_555 1_555
C19 N1 1_555 1_555
C23 N7 1_555 1_555
C25 N8 1_555 1_555
C29 N6 1_555 1_555
C30 C31 1_555 1_555
C30 N6 1_555 1_555
C31 N5 1_555 1_555
C36 C37 1_555 1_555
O6 Cd2A_2 1_555 1_555

#END
