
#######################################################################
#
#                 Cambridge Crystallographic Data Centre
#                                CCDC 
#
#######################################################################
#
# If this CIF has been generated from an entry in the Cambridge 
# Structural Database, then it will include bibliographic, chemical, 
# crystal, experimental, refinement or atomic coordinate data resulting 
# from the CCDC's data processing and validation procedures.
#
#######################################################################

data_ICOWII
_symmetry_cell_setting           monoclinic
_symmetry_space_group_name_H-M   'C 2/c'
_symmetry_Int_Tables_number      15
_space_group_name_Hall           '-C 2yn'
loop_
_symmetry_equiv_pos_site_id
_symmetry_equiv_pos_as_xyz
1 x,y,z
2 -x,y,1/2-z
3 1/2+x,1/2+y,z
4 1/2-x,1/2+y,1/2-z
5 -x,-y,-z
6 x,-y,1/2+z
7 1/2-x,1/2-y,-z
8 1/2+x,1/2-y,1/2+z
_cell_length_a                   13.0718(12)
_cell_length_b                   13.1913(12)
_cell_length_c                   11.6824(11)
_cell_angle_alpha                90
_cell_angle_beta                 98.4770(10)
_cell_angle_gamma                90
_cell_volume                     1992.44
loop_
_atom_site_label
_atom_site_type_symbol
_atom_site_fract_x
_atom_site_fract_y
_atom_site_fract_z
Sr1 Sr 0.5000 0.42305(2) 0.7500
O1 O 0.79927(14) 0.38381(13) 0.56802(16)
O2 O 0.44325(16) 0.39271(14) 0.52903(16)
H1 H 0.4215 0.4471 0.4967
H2 H 0.4860 0.3639 0.4928
O3 O 0.66385(14) 0.44606(12) 0.63925(15)
O4 O 0.90425(17) 0.07852(14) 0.66468(18)
O5 O 0.90352(15) 0.22806(14) 0.57896(17)
H3 H 0.8685 0.2799 0.5752
N1 N 0.63884(16) 0.26880(15) 0.75977(17)
N2 N 0.73872(17) 0.13377(15) 0.77729(18)
H4 H 0.7625 0.0752 0.7999
C1 C 0.71606(19) 0.28000(18) 0.6923(2)
C2 C 0.7785(2) 0.19572(18) 0.7012(2)
C3 C 0.6556(2) 0.17963(18) 0.8110(2)
C4 C 0.7254(2) 0.37566(18) 0.6288(2)
C5 C 0.5962(2) 0.1333(2) 0.8975(2)
H5 H 0.5803 0.0634 0.8758
H6 H 0.5313 0.1692 0.8956
C6 C 0.6546(2) 0.1358(2) 1.0203(2)
H7 H 0.7230 0.1070 1.0208
H8 H 0.6630 0.2056 1.0460
C7 C 0.5984(3) 0.0770(2) 1.1038(3)
H9 H 0.5933 0.0071 1.0810
H10 H 0.5303 0.1045 1.1026
H11 H 0.6360 0.0823 1.1806
C8 C 0.8684(2) 0.16413(19) 0.6461(2)
Sr1B Sr 0.0000 -0.07695(2) 0.7500
Sr1B_2 Sr 1.0000 -0.07695(2) 0.7500
O1A O 0.20073(14) 0.38381(13) 0.93198(16)
O2A O 0.55675(16) 0.39271(14) 0.97097(16)
H1A H 0.5785 0.4471 1.0033
H2A H 0.5140 0.3639 1.0072
O3A O 0.33615(14) 0.44606(12) 0.86075(15)
O4A O 0.09575(17) 0.07852(14) 0.83532(18)
O4B O 0.40425(17) 0.57852(14) 0.66468(18)
O4C O 0.59575(17) 0.57852(14) 0.83532(18)
O5A O 0.09648(15) 0.22806(14) 0.92104(17)
H3A H 0.1315 0.2799 0.9248
N1A N 0.36116(16) 0.26880(15) 0.74023(17)
N2A N 0.26128(17) 0.13377(15) 0.72271(18)
H4A H 0.2375 0.0752 0.7001
C1A C 0.28394(19) 0.28000(18) 0.8077(2)
C2A C 0.2215(2) 0.19572(18) 0.7988(2)
C3A C 0.3444(2) 0.17963(18) 0.6890(2)
C4A C 0.2746(2) 0.37566(18) 0.8712(2)
C5A C 0.4038(2) 0.1333(2) 0.6025(2)
H5A H 0.4197 0.0634 0.6242
H6A H 0.4687 0.1692 0.6044
C6A C 0.3454(2) 0.1358(2) 0.4797(2)
H7A H 0.2770 0.1070 0.4792
H8A H 0.3370 0.2056 0.4540
C7A C 0.4016(3) 0.0770(2) 0.3962(3)
H9A H 0.4067 0.0071 0.4190
H10A H 0.4697 0.1045 0.3974
H11A H 0.3640 0.0823 0.3194
C8A C 0.1316(2) 0.16413(19) 0.8539(2)
loop_
_geom_bond_atom_site_label_1
_geom_bond_atom_site_label_2
_geom_bond_site_symmetry_1
_geom_bond_site_symmetry_2
Sr1 O2 1_555 1_555
O1 C4 1_555 1_555
O2 H1 1_555 1_555
H2 O2 1_555 1_555
O3 Sr1 1_555 1_555
O4 C8 1_555 1_555
O5 H3 1_555 1_555
N1 Sr1 1_555 1_555
N2 H4 1_555 1_555
C1 N1 1_555 1_555
C2 N2 1_555 1_555
C3 N1 1_555 1_555
C4 O3 1_555 1_555
C5 C3 1_555 1_555
H5 C5 1_555 1_555
H6 C5 1_555 1_555
C6 C5 1_555 1_555
H7 C6 1_555 1_555
H8 C6 1_555 1_555
C7 C6 1_555 1_555
H9 C7 1_555 1_555
H10 C7 1_555 1_555
H11 C7 1_555 1_555
C8 O5 1_555 1_555
Sr1B O4A 1_555 1_555
Sr1B_2 O4 1_555 1_555
O1A C4A 1_555 1_555
O2A Sr1 1_555 1_555
H1A O2A 1_555 1_555
H2A O2A 1_555 1_555
O3A Sr1 1_555 1_555
O4A C8A 1_555 1_555
O4B Sr1 1_555 1_555
O4C Sr1 1_555 1_555
O5A H3A 1_555 1_555
N1A Sr1 1_555 1_555
N2A H4A 1_555 1_555
C1A N1A 1_555 1_555
C2A N2A 1_555 1_555
C3A N1A 1_555 1_555
C4A O3A 1_555 1_555
C5A C3A 1_555 1_555
H5A C5A 1_555 1_555
H6A C5A 1_555 1_555
C6A C5A 1_555 1_555
H7A C6A 1_555 1_555
H8A C6A 1_555 1_555
C7A C6A 1_555 1_555
H9A C7A 1_555 1_555
H10A C7A 1_555 1_555
H11A C7A 1_555 1_555
C8A O5A 1_555 1_555
N2 C3 1_555 1_555
C1 C2 1_555 1_555
C1 C4 1_555 1_555
C2 C8 1_555 1_555
N2A C3A 1_555 1_555
C1A C2A 1_555 1_555
C1A C4A 1_555 1_555
C2A C8A 1_555 1_555

#END
