
#######################################################################
#
#                 Cambridge Crystallographic Data Centre
#                                CCDC 
#
#######################################################################
#
# If this CIF has been generated from an entry in the Cambridge 
# Structural Database, then it will include bibliographic, chemical, 
# crystal, experimental, refinement or atomic coordinate data resulting 
# from the CCDC's data processing and validation procedures.
#
#######################################################################

data_ICOWEE
_symmetry_cell_setting           triclinic
_symmetry_space_group_name_H-M   'P -1'
_symmetry_Int_Tables_number      2
_space_group_name_Hall           '-P 1'
loop_
_symmetry_equiv_pos_site_id
_symmetry_equiv_pos_as_xyz
1 x,y,z
2 -x,-y,-z
_cell_length_a                   6.4344(13)
_cell_length_b                   12.029(2)
_cell_length_c                   13.716(3)
_cell_angle_alpha                95.03(3)
_cell_angle_beta                 90.46(3)
_cell_angle_gamma                103.54(3)
_cell_volume                     1027.68
loop_
_atom_site_label
_atom_site_type_symbol
_atom_site_fract_x
_atom_site_fract_y
_atom_site_fract_z
O1 O 0.0780(6) 0.5162(4) 1.1263(3)
O2 O 0.4194(6) 0.5195(3) 1.1495(3)
C1 C -0.1281(9) 0.7904(5) 1.2151(5)
H1 H -0.1263 0.8042 1.1494
C2 C -0.0876(9) 0.8842(5) 1.2872(5)
H2 H -0.0580 0.9589 1.2693
C3 C -0.0920(10) 0.8642(5) 1.3832(4)
H3 H -0.0639 0.9257 1.4313
C4 C -0.1387(9) 0.7514(5) 1.4102(4)
C5 C -0.1509(9) 0.7229(5) 1.5103(5)
C6 C -0.1252(12) 0.7770(7) 1.6733(5)
H4 H -0.0976 0.8342 1.7252
C7 C -0.1779(11) 0.6627(6) 1.6939(5)
H5 H -0.1873 0.6458 1.7589
C8 C -0.2025(9) 0.6075(6) 1.5313(4)
C9 C -0.2419(9) 0.5156(5) 1.4518(4)
C10 C -0.2937(9) 0.3986(5) 1.4675(5)
H6 H -0.3045 0.3761 1.5307
C11 C -0.3280(10) 0.3187(5) 1.3888(5)
H7 H -0.3643 0.2408 1.3977
C12 C -0.3082(9) 0.3546(5) 1.2944(5)
H8 H -0.3298 0.2992 1.2413
C13 C -0.2270(8) 0.5439(5) 1.3554(4)
C14 C -0.1770(8) 0.6634(5) 1.3331(4)
C15 C 0.2924(10) 0.7114(6) 0.9731(5)
C16 C 0.3304(9) 0.7660(5) 1.0775(5)
C17 C 0.3228(8) 0.6982(5) 1.1569(4)
C18 C 0.3569(9) 0.7499(5) 1.2503(5)
H9 H 0.3474 0.7052 1.3028
C19 C 0.4064(9) 0.8704(5) 1.2676(5)
C20 C 0.4171(11) 0.9377(5) 1.1899(5)
H10 H 0.4509 1.0174 1.2009
C21 C 0.3767(11) 0.8845(5) 1.0954(5)
H11 H 0.3808 0.9293 1.0432
C22 C 0.4455(10) 0.9268(5) 1.3699(5)
C23 C 0.2703(9) 0.5693(5) 1.1423(4)
N1 N -0.1688(7) 0.6831(4) 1.2386(4)
N2 N -0.2602(7) 0.4633(4) 1.2778(4)
N3 N -0.1129(9) 0.8072(5) 1.5832(4)
N4 N -0.2150(8) 0.5771(5) 1.6235(4)
O3 O 0.3430(6) 0.6174(3) 0.9559(3)
O4 O 0.2129(12) 0.7588(5) 0.9126(4)
O5 O 0.4163(8) 0.8625(4) 1.4383(3)
H12 H 0.4421 0.9017 1.4910
O6 O 0.5060(10) 1.0340(4) 1.3824(4)
O7 O -0.2295(6) 0.6296(4) 1.0207(3)
H13 H -0.3616 0.6178 0.9980
H14 H -0.2008 0.6028 0.9601
Co1 Co -0.24441(11) 0.52973(6) 1.13976(5)
O2_2 O -0.5806(6) 0.5195(3) 1.1495(3)
O3A O -0.3430(6) 0.3826(3) 1.0441(3)
Co1_2 Co 0.75559(11) 0.52973(6) 1.13976(5)
Co1A Co 0.24441(11) 0.47027(6) 0.86024(5)
O8 O 0.112(2) 0.1072(15) 0.0743(14)
O9? O -0.007(3) 0.0509(15) 0.1016(14)
loop_
_geom_bond_atom_site_label_1
_geom_bond_atom_site_label_2
_geom_bond_site_symmetry_1
_geom_bond_site_symmetry_2
O1 C23 1_555 1_555
O2 C23 1_555 1_555
C1 H1 1_555 1_555
C2 C1 1_555 1_555
H2 C2 1_555 1_555
C3 C2 1_555 1_555
H3 C3 1_555 1_555
C4 C3 1_555 1_555
C5 C4 1_555 1_555
C6 H4 1_555 1_555
C7 C6 1_555 1_555
H5 C7 1_555 1_555
C8 C5 1_555 1_555
C9 C8 1_555 1_555
C10 C9 1_555 1_555
H6 C10 1_555 1_555
C11 C10 1_555 1_555
H7 C11 1_555 1_555
C12 C11 1_555 1_555
H8 C12 1_555 1_555
C13 C9 1_555 1_555
C14 C4 1_555 1_555
C15 C16 1_555 1_555
C16 C17 1_555 1_555
C17 C18 1_555 1_555
C18 H9 1_555 1_555
C19 C18 1_555 1_555
C20 C19 1_555 1_555
H10 C20 1_555 1_555
C21 C16 1_555 1_555
H11 C21 1_555 1_555
C22 C19 1_555 1_555
C23 C17 1_555 1_555
N1 C1 1_555 1_555
N2 C12 1_555 1_555
N3 C5 1_555 1_555
N4 C7 1_555 1_555
O3 C15 1_555 1_555
O4 C15 1_555 1_555
O5 C22 1_555 1_555
H12 O5 1_555 1_555
O6 C22 1_555 1_555
O7 H13 1_555 1_555
H14 O7 1_555 1_555
Co1 O1 1_555 1_555
O2_2 Co1 1_555 1_555
O3A Co1 1_555 1_555
Co1_2 O2 1_555 1_555
Co1A O3 1_555 1_555
C6 N3 1_555 1_555
C8 N4 1_555 1_555
C13 C14 1_555 1_555
C13 N2 1_555 1_555
C14 N1 1_555 1_555
C20 C21 1_555 1_555
N1 Co1 1_555 1_555
N2 Co1 1_555 1_555
O7 Co1 1_555 1_555

#END
