
#######################################################################
#
#                 Cambridge Crystallographic Data Centre
#                                CCDC 
#
#######################################################################
#
# If this CIF has been generated from an entry in the Cambridge 
# Structural Database, then it will include bibliographic, chemical, 
# crystal, experimental, refinement or atomic coordinate data resulting 
# from the CCDC's data processing and validation procedures.
#
#######################################################################

data_ICOWOO01
_symmetry_cell_setting           triclinic
_symmetry_space_group_name_H-M   'P -1'
_symmetry_Int_Tables_number      2
_space_group_name_Hall           '-P 1'
loop_
_symmetry_equiv_pos_site_id
_symmetry_equiv_pos_as_xyz
1 x,y,z
2 -x,-y,-z
_cell_length_a                   10.3098(7)
_cell_length_b                   10.5262(7)
_cell_length_c                   10.9711(7)
_cell_angle_alpha                75.859(3)
_cell_angle_beta                 78.522(3)
_cell_angle_gamma                84.325(3)
_cell_volume                     1129.86
loop_
_atom_site_label
_atom_site_type_symbol
_atom_site_fract_x
_atom_site_fract_y
_atom_site_fract_z
Ba1 Ba 0.026262(11) 0.724845(10) 0.882683(10)
O1 O 0.14793(14) 0.46848(14) 0.95187(14)
O2 O 0.31631(16) 0.32432(15) 0.92306(18)
O3 O 0.55705(16) 0.31406(15) 0.86106(17)
H1 H 0.4760 0.3173 0.8815
O4 O 0.71621(15) 0.45459(16) 0.80123(16)
O5 O 0.07918(16) 0.98988(14) 0.81023(13)
O6 O 0.08579(17) 1.18195(14) 0.67127(14)
O7 O 0.15074(18) 1.26973(14) 0.44024(14)
H2 H 0.1311 1.2397 0.5175
O8 O 0.19852(16) 1.19346(15) 0.26434(14)
N1 N 0.31736(16) 0.67670(16) 0.87139(16)
N2 N 0.53549(16) 0.66667(16) 0.81751(16)
H3 H 0.6154 0.6918 0.7939
N3 N 0.13853(16) 0.85430(16) 0.61646(15)
N4 N 0.19374(16) 0.93392(16) 0.40874(15)
H4 H 0.2180 0.9363 0.3286
C1 C 0.36182(19) 0.54814(19) 0.87673(18)
C2 C 0.49847(19) 0.54004(19) 0.84252(18)
C3 C 0.4251(2) 0.7454(2) 0.83619(19)
C4 C 0.2673(2) 0.44181(19) 0.92006(19)
C5 C 0.5990(2) 0.4314(2) 0.83312(19)
C6 C 0.4273(2) 0.8901(2) 0.8183(2)
H5 H 0.4943 0.9088 0.8613
H6 H 0.3422 0.9228 0.8583
C7 C 0.4561(2) 0.9627(2) 0.6785(2)
H7 H 0.5448 0.9366 0.6405
H8 H 0.3942 0.9379 0.6335
C8 C 0.4449(3) 1.1103(2) 0.6625(3)
H9 H 0.3560 1.1370 0.6966
H10 H 0.4660 1.1522 0.5734
H11 H 0.5056 1.1353 0.7074
C9 C 0.13135(18) 0.98885(18) 0.59205(17)
C10 C 0.16526(18) 1.04028(19) 0.46193(18)
C11 C 0.1774(2) 0.82484(19) 0.50327(18)
C12 C 0.09598(19) 1.05640(19) 0.69888(18)
C13 C 0.1725(2) 1.1747(2) 0.38184(19)
C14 C 0.2041(2) 0.6896(2) 0.4810(2)
H12 H 0.2384 0.6952 0.3909
H13 H 0.1216 0.6452 0.5031
C15 C 0.3023(3) 0.6099(2) 0.5585(3)
H14 H 0.3879 0.6482 0.5280
H15 H 0.2740 0.6152 0.6470
C16 C 0.3177(3) 0.4678(3) 0.5525(3)
H16 H 0.2337 0.4286 0.5839
H17 H 0.3807 0.4227 0.6042
H18 H 0.3487 0.4614 0.4656
O9 O -0.00650(17) 0.55441(16) 0.73930(16)
H19 H -0.0694 0.5640 0.6976
H20 H -0.0188 0.4746 0.7766
O11 O -0.15896(15) 0.88843(14) 1.01457(14)
H23 H -0.2115 0.8309 1.0608
H24 H -0.1304 0.9235 1.0655
O12 O 0.07335(17) 0.71231(17) 1.12466(15)
H25 H 0.1403 0.6740 1.1553
H26 H 0.0365 0.7570 1.1782
Ba1A Ba -0.026262(11) 0.275155(10) 1.117317(10)
Ba1A_2 Ba -0.026262(11) 1.275155(10) 0.117317(10)
O1A O -0.14793(14) 0.53152(14) 1.04813(14)
O8A O -0.19852(16) 0.80654(15) 0.73566(14)
O10 O 0.2853(2) 0.9247(2) 0.15919(16)
H21 H 0.2462 0.9760 0.1034
H22 H 0.3277 0.8595 0.1341
loop_
_geom_bond_atom_site_label_1
_geom_bond_atom_site_label_2
_geom_bond_site_symmetry_1
_geom_bond_site_symmetry_2
Ba1 O1 1_555 1_555
O1 C4 1_555 1_555
O2 C4 1_555 1_555
O3 H1 1_555 1_555
O4 C5 1_555 1_555
O5 Ba1 1_555 1_555
O6 C12 1_555 1_555
O7 H2 1_555 1_555
O8 C13 1_555 1_555
N1 Ba1 1_555 1_555
N2 H3 1_555 1_555
N3 Ba1 1_555 1_555
N4 H4 1_555 1_555
C1 N1 1_555 1_555
C2 N2 1_555 1_555
C3 N1 1_555 1_555
C4 C1 1_555 1_555
C5 O3 1_555 1_555
C6 C3 1_555 1_555
H5 C6 1_555 1_555
H6 C6 1_555 1_555
C7 C6 1_555 1_555
H7 C7 1_555 1_555
H8 C7 1_555 1_555
C8 C7 1_555 1_555
H9 C8 1_555 1_555
H10 C8 1_555 1_555
H11 C8 1_555 1_555
C9 N3 1_555 1_555
C10 N4 1_555 1_555
C11 N3 1_555 1_555
C12 O5 1_555 1_555
C13 O7 1_555 1_555
C14 C11 1_555 1_555
H12 C14 1_555 1_555
H13 C14 1_555 1_555
C15 C14 1_555 1_555
H14 C15 1_555 1_555
H15 C15 1_555 1_555
C16 C15 1_555 1_555
H16 C16 1_555 1_555
H17 C16 1_555 1_555
H18 C16 1_555 1_555
O9 Ba1 1_555 1_555
H19 O9 1_555 1_555
H20 O9 1_555 1_555
O10 H21 1_555 1_555
H22 O10 1_555 1_555
O11 Ba1 1_555 1_555
H23 O11 1_555 1_555
H24 O11 1_555 1_555
O12 Ba1 1_555 1_555
H25 O12 1_555 1_555
H26 O12 1_555 1_555
Ba1A O1 1_555 1_555
Ba1A_2 O8 1_555 1_555
O1A Ba1 1_555 1_555
O8A Ba1 1_555 1_555
N2 C3 1_555 1_555
N4 C11 1_555 1_555
C1 C2 1_555 1_555
C2 C5 1_555 1_555
C9 C10 1_555 1_555
C9 C12 1_555 1_555
C10 C13 1_555 1_555
Ba1A O1A 1_555 1_555

#END
