
#######################################################################
#
#                 Cambridge Crystallographic Data Centre
#                                CCDC 
#
#######################################################################
#
# If this CIF has been generated from an entry in the Cambridge 
# Structural Database, then it will include bibliographic, chemical, 
# crystal, experimental, refinement or atomic coordinate data resulting 
# from the CCDC's data processing and validation procedures.
#
#######################################################################

data_ICOWII01
_symmetry_cell_setting           monoclinic
_symmetry_space_group_name_H-M   'C 2/c'
_symmetry_Int_Tables_number      15
_space_group_name_Hall           '-C 2yn'
loop_
_symmetry_equiv_pos_site_id
_symmetry_equiv_pos_as_xyz
1 x,y,z
2 -x,y,1/2-z
3 1/2+x,1/2+y,z
4 1/2-x,1/2+y,1/2-z
5 -x,-y,-z
6 x,-y,1/2+z
7 1/2-x,1/2-y,-z
8 1/2+x,1/2-y,1/2+z
_cell_length_a                   13.055(8)
_cell_length_b                   13.236(8)
_cell_length_c                   11.683(7)
_cell_angle_alpha                90
_cell_angle_beta                 98.605(7)
_cell_angle_gamma                90
_cell_volume                     1996.05
loop_
_atom_site_label
_atom_site_type_symbol
_atom_site_fract_x
_atom_site_fract_y
_atom_site_fract_z
Sr1 Sr 0.0000 0.07737(2) 0.2500
O1 O 0.16385(13) 0.05437(12) 0.14078(16)
O2 O 0.29945(13) 0.11605(14) 0.06961(17)
O3 O 0.40422(14) 0.27193(15) 0.08035(17)
H1 H 0.3702 0.2197 0.0782
O4 O 0.40446(17) 0.42156(15) 0.1644(2)
O5 O -0.05740(15) 0.10727(16) 0.02897(17)
H2 H -0.0891 0.0595 -0.0100
H3 H -0.0201 0.1359 -0.0152
N1 N 0.13869(14) 0.23157(15) 0.25980(17)
N2 N 0.23874(15) 0.36687(15) 0.27698(18)
H4 H 0.2624 0.4254 0.2993
C1 C 0.21609(16) 0.22022(17) 0.19274(19)
C2 C 0.27860(17) 0.30472(18) 0.2022(2)
C3 C 0.15511(17) 0.32064(18) 0.3105(2)
C4 C 0.22556(17) 0.12435(17) 0.1300(2)
C5 C 0.36879(19) 0.33587(19) 0.1467(2)
C6 C 0.0961(2) 0.3677(2) 0.3963(2)
H5 H 0.0307 0.3323 0.3942
H6 H 0.0806 0.4372 0.3739
C7 C 0.1539(2) 0.3659(3) 0.5204(3)
H7 H 0.1627 0.2963 0.5461
H8 H 0.2222 0.3950 0.5214
C8 C 0.0978(3) 0.4232(3) 0.6030(3)
H9 H 0.0963 0.4937 0.5835
H10 H 0.1331 0.4143 0.6805
H11 H 0.0282 0.3983 0.5978
Sr1B Sr 0.5000 0.57737(2) 0.2500
Sr1B_2 Sr -0.5000 0.57737(2) 0.2500
O1A O -0.16385(13) 0.05437(12) 0.35922(16)
O2A O -0.29945(13) 0.11605(14) 0.43039(17)
O3A O -0.40422(14) 0.27193(15) 0.41965(17)
H1A H -0.3702 0.2197 0.4218
O4A O -0.40446(17) 0.42156(15) 0.3356(2)
O4B O -0.09554(17) -0.07844(15) 0.1644(2)
O4C O 0.09554(17) -0.07844(15) 0.3356(2)
O5A O 0.05740(15) 0.10727(16) 0.47103(17)
H2A H 0.0891 0.0595 0.5100
H3A H 0.0201 0.1359 0.5152
N1A N -0.13869(14) 0.23157(15) 0.24020(17)
N2A N -0.23874(15) 0.36687(15) 0.22302(18)
H4A H -0.2624 0.4254 0.2007
C1A C -0.21609(16) 0.22022(17) 0.30726(19)
C2A C -0.27860(17) 0.30472(18) 0.2978(2)
C3A C -0.15511(17) 0.32064(18) 0.1895(2)
C4A C -0.22556(17) 0.12435(17) 0.3700(2)
C5A C -0.36879(19) 0.33587(19) 0.3533(2)
C6A C -0.0961(2) 0.3677(2) 0.1037(2)
H5A H -0.0307 0.3323 0.1058
H6A H -0.0806 0.4372 0.1261
C7A C -0.1539(2) 0.3659(3) -0.0204(3)
H7A H -0.1627 0.2963 -0.0461
H8A H -0.2222 0.3950 -0.0214
C8A C -0.0978(3) 0.4232(3) -0.1030(3)
H9A H -0.0963 0.4937 -0.0835
H10A H -0.1331 0.4143 -0.1805
H11A H -0.0282 0.3983 -0.0978
loop_
_geom_bond_atom_site_label_1
_geom_bond_atom_site_label_2
_geom_bond_site_symmetry_1
_geom_bond_site_symmetry_2
Sr1 O1 1_555 1_555
O1 C4 1_555 1_555
O2 C4 1_555 1_555
O3 H1 1_555 1_555
O4 C5 1_555 1_555
O5 Sr1 1_555 1_555
H2 O5 1_555 1_555
H3 O5 1_555 1_555
N1 Sr1 1_555 1_555
N2 H4 1_555 1_555
C1 N1 1_555 1_555
C2 N2 1_555 1_555
C3 N1 1_555 1_555
C4 C1 1_555 1_555
C5 O3 1_555 1_555
C6 C3 1_555 1_555
H5 C6 1_555 1_555
H6 C6 1_555 1_555
C7 C6 1_555 1_555
H7 C7 1_555 1_555
H8 C7 1_555 1_555
C8 C7 1_555 1_555
H9 C8 1_555 1_555
H10 C8 1_555 1_555
H11 C8 1_555 1_555
Sr1B O4 1_555 1_555
Sr1B_2 O4A 1_555 1_555
O1A Sr1 1_555 1_555
O2A C4A 1_555 1_555
O3A H1A 1_555 1_555
O4A C5A 1_555 1_555
O4B Sr1 1_555 1_555
O4C Sr1 1_555 1_555
O5A Sr1 1_555 1_555
H2A O5A 1_555 1_555
H3A O5A 1_555 1_555
N1A Sr1 1_555 1_555
N2A H4A 1_555 1_555
C1A N1A 1_555 1_555
C2A N2A 1_555 1_555
C3A N1A 1_555 1_555
C4A O1A 1_555 1_555
C5A O3A 1_555 1_555
C6A C3A 1_555 1_555
H5A C6A 1_555 1_555
H6A C6A 1_555 1_555
C7A C6A 1_555 1_555
H7A C7A 1_555 1_555
H8A C7A 1_555 1_555
C8A C7A 1_555 1_555
H9A C8A 1_555 1_555
H10A C8A 1_555 1_555
H11A C8A 1_555 1_555
N2 C3 1_555 1_555
C1 C2 1_555 1_555
C2 C5 1_555 1_555
N2A C3A 1_555 1_555
C1A C2A 1_555 1_555
C1A C4A 1_555 1_555
C2A C5A 1_555 1_555

#END
