
#######################################################################
#
#                 Cambridge Crystallographic Data Centre
#                                CCDC 
#
#######################################################################
#
# If this CIF has been generated from an entry in the Cambridge 
# Structural Database, then it will include bibliographic, chemical, 
# crystal, experimental, refinement or atomic coordinate data resulting 
# from the CCDC's data processing and validation procedures.
#
#######################################################################

data_ICOWUT
_symmetry_cell_setting           monoclinic
_symmetry_space_group_name_H-M   'C 2/c'
_symmetry_Int_Tables_number      15
_space_group_name_Hall           '-C 2yn'
loop_
_symmetry_equiv_pos_site_id
_symmetry_equiv_pos_as_xyz
1 x,y,z
2 1/2+x,1/2+y,z
3 -x,y,1/2-z
4 1/2-x,1/2+y,1/2-z
5 -x,-y,-z
6 1/2-x,1/2-y,-z
7 x,-y,1/2+z
8 1/2+x,1/2-y,1/2+z
_cell_length_a                   12.3148(13)
_cell_length_b                   15.3259(14)
_cell_length_c                   8.9541(9)
_cell_angle_alpha                90
_cell_angle_beta                 123.437(6)
_cell_angle_gamma                90
_cell_volume                     1410.25
loop_
_atom_site_label
_atom_site_type_symbol
_atom_site_fract_x
_atom_site_fract_y
_atom_site_fract_z
Cl1 Cl 0.4377(3) 0.0661(2) -0.1191(5)
Er1 Er 0.0000 0.132028(17) 0.2500
O2 O -0.0506(3) 0.2512(3) 0.0593(5)
O3 O 0.1087(3) 0.0855(3) 0.1039(5)
O4 O -0.1652(4) 0.0810(3) -0.0389(6)
O5 O 0.2075(3) 0.1864(3) 0.3071(5)
O6 O 0.0000 -0.0270(4) 0.2500
C1 C 0.2023(4) 0.1387(3) 0.1893(6)
C2 C 0.3060(5) 0.1450(4) 0.1491(7)
H1 H 0.2873 0.1033 0.0563
H2 H 0.3897 0.1301 0.2555
C3 C 0.3127(5) 0.2370(4) 0.0873(7)
H3 H 0.3310 0.2786 0.1800
H4 H 0.3840 0.2394 0.0704
Er1G Er 0.5000 0.367972(17) -0.2500
O2B O 0.0506(3) 0.2512(3) 0.4407(5)
O3E O 0.3913(3) 0.4145(3) -0.1039(5)
O3B O -0.1087(3) 0.0855(3) 0.3961(5)
O4B O 0.1652(4) 0.0810(3) 0.5389(6)
O5E O 0.2925(3) 0.3136(3) -0.3071(5)
O5B O -0.2075(3) 0.1864(3) 0.1929(5)
C1E C 0.2977(4) 0.3613(3) -0.1893(6)
C2E C 0.1940(5) 0.3550(4) -0.1491(7)
H1E H 0.2127 0.3967 -0.0563
H2E H 0.1103 0.3699 -0.2555
C3E C 0.1873(5) 0.2630(4) -0.0873(7)
H3E H 0.1690 0.2214 -0.1800
H4E H 0.1160 0.2606 -0.0704
O1? O 0.4377(3) 0.0661(2) -0.1191(5)
loop_
_geom_bond_atom_site_label_1
_geom_bond_atom_site_label_2
_geom_bond_site_symmetry_1
_geom_bond_site_symmetry_2
Er1 O2 1_555 1_555
O3 Er1 1_555 1_555
O4 Er1 1_555 1_555
O5 Er1 1_555 1_555
O6 Er1 1_555 1_555
C1 O3 1_555 1_555
C2 C1 1_555 1_555
H1 C2 1_555 1_555
H2 C2 1_555 1_555
C3 C2 1_555 1_555
H3 C3 1_555 1_555
H4 C3 1_555 1_555
Er1G O3E 1_555 1_555
O2B Er1 1_555 1_555
O3E C1E 1_555 1_555
O3B Er1 1_555 1_555
O4B Er1 1_555 1_555
O5E Er1G 1_555 1_555
O5B Er1 1_555 1_555
C1E O5E 1_555 1_555
C2E C1E 1_555 1_555
H1E C2E 1_555 1_555
H2E C2E 1_555 1_555
C3E C3 1_555 1_555
H3E C3E 1_555 1_555
H4E C3E 1_555 1_555
O5 C1 1_555 1_555
C2E C3E 1_555 1_555

#END
