
#######################################################################
#
#                 Cambridge Crystallographic Data Centre
#                                CCDC 
#
#######################################################################
#
# If this CIF has been generated from an entry in the Cambridge 
# Structural Database, then it will include bibliographic, chemical, 
# crystal, experimental, refinement or atomic coordinate data resulting 
# from the CCDC's data processing and validation procedures.
#
#######################################################################

data_ICOWOO
_symmetry_cell_setting           triclinic
_symmetry_space_group_name_H-M   'P -1'
_symmetry_Int_Tables_number      2
_space_group_name_Hall           '-P 1'
loop_
_symmetry_equiv_pos_site_id
_symmetry_equiv_pos_as_xyz
1 x,y,z
2 -x,-y,-z
_cell_length_a                   10.3160(10)
_cell_length_b                   10.5460(10)
_cell_length_c                   10.9811(11)
_cell_angle_alpha                75.8780(10)
_cell_angle_beta                 78.5120(10)
_cell_angle_gamma                84.399(2)
_cell_volume                     1133.84
loop_
_atom_site_label
_atom_site_type_symbol
_atom_site_fract_x
_atom_site_fract_y
_atom_site_fract_z
Ba1 Ba 0.473672(17) 0.274994(16) 0.617387(17)
N1 N 0.1830(2) 0.3235(2) 0.6280(2)
N2 N -0.0353(2) 0.3340(2) 0.6822(2)
H1 H -0.1153 0.3093 0.7060
N3 N 0.3617(2) 0.1455(2) 0.8833(2)
N4 N 0.3063(2) 0.0660(2) 1.0917(2)
H2 H 0.2819 0.0635 1.1718
O1 O 0.3520(2) 0.5315(2) 0.5484(2)
O2 O 0.1842(2) 0.6760(2) 0.5771(3)
O3 O -0.0568(2) 0.6861(2) 0.6385(3)
H3 H 0.0242 0.6829 0.6183
O4 O -0.2160(2) 0.5458(2) 0.6984(2)
O5 O 0.4211(2) 0.0100(2) 0.6901(2)
O6 O 0.4148(2) -0.18167(19) 0.8298(2)
O7 O 0.3491(2) -0.2697(2) 1.0602(2)
H4 H 0.3651 -0.2396 0.9828
O8 O 0.3013(2) -0.1936(2) 1.2358(2)
O9 O 0.6588(2) 0.1111(2) 0.4853(2)
H5 H 0.7073 0.1762 0.4545
H6 H 0.6415 0.0835 0.4241
O10 O 0.4267(2) 0.2874(2) 0.3759(2)
H7 H 0.4711 0.2583 0.3135
H8 H 0.3490 0.3091 0.3604
O11 O 0.5064(2) 0.4461(2) 0.7599(2)
H9 H 0.5564 0.4040 0.8106
H10 H 0.5357 0.5218 0.7265
C1 C 0.2325(3) 0.5582(3) 0.5802(3)
C2 C 0.1381(3) 0.4520(3) 0.6234(3)
C3 C 0.0023(3) 0.4601(3) 0.6569(3)
C4 C -0.0990(3) 0.5688(3) 0.6669(3)
C5 C 0.0747(3) 0.2548(3) 0.6634(3)
C6 C 0.0725(3) 0.1096(3) 0.6824(3)
H13 H 0.1576 0.0770 0.6427
H14 H 0.0057 0.0905 0.6395
C7 C 0.0436(3) 0.0374(3) 0.8221(4)
H15 H -0.0453 0.0630 0.8601
H16 H 0.1051 0.0623 0.8673
C8 C 0.0554(4) -0.1107(3) 0.8375(4)
H17 H -0.0030 -0.1353 0.7902
H18 H 0.0316 -0.1529 0.9262
H19 H 0.1450 -0.1371 0.8058
C9 C 0.4044(3) -0.0568(3) 0.8017(3)
C10 C 0.3687(3) 0.0111(3) 0.9078(3)
C11 C 0.3349(3) -0.0405(3) 1.0377(3)
C12 C 0.3273(3) -0.1748(3) 1.1187(3)
C13 C 0.3232(3) 0.1754(3) 0.9966(3)
C14 C 0.2962(3) 0.3102(3) 1.0190(3)
H20 H 0.3786 0.3547 0.9972
H21 H 0.2616 0.3045 1.1090
C15 C 0.1978(4) 0.3898(3) 0.9408(4)
H22 H 0.2265 0.3847 0.8524
H23 H 0.1123 0.3514 0.9709
C16 C 0.1821(5) 0.5320(3) 0.9471(4)
H24 H 0.1598 0.5380 1.0347
H25 H 0.1128 0.5748 0.9026
H26 H 0.2636 0.5736 0.9079
Ba1A Ba 0.526328(17) 0.725006(16) 0.382613(17)
Ba1A_2 Ba 0.526328(17) -0.274994(16) 1.382613(17)
O1A O 0.6480(2) 0.4685(2) 0.4516(2)
O8A O 0.6987(2) 0.1936(2) 0.7642(2)
O12 O 0.2152(3) 0.0752(3) 0.3404(2)
H11 H 0.1718 0.1413 0.3622
H12 H 0.2469 0.0289 0.4038
loop_
_geom_bond_atom_site_label_1
_geom_bond_atom_site_label_2
_geom_bond_site_symmetry_1
_geom_bond_site_symmetry_2
Ba1 N1 1_555 1_555
N1 C2 1_555 1_555
N2 H1 1_555 1_555
N3 Ba1 1_555 1_555
N4 H2 1_555 1_555
O1 Ba1 1_555 1_555
O2 C1 1_555 1_555
O3 H3 1_555 1_555
O4 C4 1_555 1_555
O5 Ba1 1_555 1_555
O6 C9 1_555 1_555
O7 H4 1_555 1_555
O8 C12 1_555 1_555
O9 Ba1 1_555 1_555
H5 O9 1_555 1_555
H6 O9 1_555 1_555
O10 Ba1 1_555 1_555
H7 O10 1_555 1_555
H8 O10 1_555 1_555
O11 Ba1 1_555 1_555
H9 O11 1_555 1_555
H10 O11 1_555 1_555
O12 H11 1_555 1_555
H12 O12 1_555 1_555
C1 O1 1_555 1_555
C2 C1 1_555 1_555
C3 N2 1_555 1_555
C4 O3 1_555 1_555
C5 N1 1_555 1_555
C6 C5 1_555 1_555
H13 C6 1_555 1_555
H14 C6 1_555 1_555
C7 C6 1_555 1_555
H15 C7 1_555 1_555
H16 C7 1_555 1_555
C8 C7 1_555 1_555
H17 C8 1_555 1_555
H18 C8 1_555 1_555
H19 C8 1_555 1_555
C9 O5 1_555 1_555
C10 N3 1_555 1_555
C11 N4 1_555 1_555
C12 O7 1_555 1_555
C13 N3 1_555 1_555
C14 C13 1_555 1_555
H20 C14 1_555 1_555
H21 C14 1_555 1_555
C15 C14 1_555 1_555
H22 C15 1_555 1_555
H23 C15 1_555 1_555
C16 C15 1_555 1_555
H24 C16 1_555 1_555
H25 C16 1_555 1_555
H26 C16 1_555 1_555
Ba1A O1 1_555 1_555
Ba1A_2 O8 1_555 1_555
O1A Ba1 1_555 1_555
O8A Ba1 1_555 1_555
N2 C5 1_555 1_555
N4 C13 1_555 1_555
C2 C3 1_555 1_555
C3 C4 1_555 1_555
C9 C10 1_555 1_555
C10 C11 1_555 1_555
C11 C12 1_555 1_555
Ba1A O1A 1_555 1_555

#END
