
#######################################################################
#
#                 Cambridge Crystallographic Data Centre
#                                CCDC 
#
#######################################################################
#
# If this CIF has been generated from an entry in the Cambridge 
# Structural Database, then it will include bibliographic, chemical, 
# crystal, experimental, refinement or atomic coordinate data resulting 
# from the CCDC's data processing and validation procedures.
#
#######################################################################

data_ICOXAA01
_symmetry_cell_setting           monoclinic
_symmetry_space_group_name_H-M   'C 2/c'
_symmetry_Int_Tables_number      15
_space_group_name_Hall           '-C 2yn'
loop_
_symmetry_equiv_pos_site_id
_symmetry_equiv_pos_as_xyz
1 x,y,z
2 -x,y,1/2-z
3 1/2+x,1/2+y,z
4 1/2-x,1/2+y,1/2-z
5 -x,-y,-z
6 x,-y,1/2+z
7 1/2-x,1/2-y,-z
8 1/2+x,1/2-y,1/2+z
_cell_length_a                   12.4740(10)
_cell_length_b                   15.9780(10)
_cell_length_c                   8.829
_cell_angle_alpha                90
_cell_angle_beta                 122.58
_cell_angle_gamma                90
_cell_volume                     1482.8
loop_
_atom_site_label
_atom_site_type_symbol
_atom_site_fract_x
_atom_site_fract_y
_atom_site_fract_z
N1 N 0.0613(10) 0.0463(6) 0.0972(14)
O6 O 0.0962(5) 0.1105(3) 0.1945(7)
O7 O 0.1295(10) 0.0016(6) 0.0718(15)
O8 O -0.0518(11) 0.0251(7) 0.0327(16)
N1D N -0.0613(10) -0.0463(6) -0.0972(14)
O6D O -0.0962(5) -0.1105(3) -0.1945(7)
O7D O -0.1295(10) -0.0016(6) -0.0718(15)
O8D O 0.0518(11) -0.0251(7) -0.0327(16)
Gd1 Gd 0.5000 0.128921(15) -0.2500
O1 O 0.2916(3) 0.1839(2) -0.3110(4)
O2 O 0.3858(3) 0.0879(2) -0.1040(5)
O3 O 0.5000 -0.0264(3) -0.2500
O4 O 0.5523(3) 0.2474(2) -0.0556(5)
O5 O 0.3426(4) 0.0787(2) -0.5426(5)
C1 C 0.2946(5) 0.1400(3) -0.1920(7)
C2 C 0.1939(5) 0.1499(4) -0.1488(8)
H1 H 0.1118 0.1356 -0.2541
H2 H 0.2111 0.1112 -0.0537
C3 C 0.1881(5) 0.2382(4) -0.0900(7)
H3 H 0.1749 0.2774 -0.1825
H4 H 0.1163 0.2428 -0.0762
H5 H 0.263(6) 0.094(6) -0.618(11)
H6 H 0.411(6) 0.054(5) -0.527(12)
H7 H 0.499(7) 0.289(5) -0.128(10)
H8 H 0.644(6) 0.268(5) 0.067(9)
H9 H 0.421(7) -0.046(5) -0.393(9)
Gd1F Gd 0.0000 0.371079(15) 0.2500
O1F O 0.2084(3) 0.3161(2) 0.3110(4)
O1A O 0.7084(3) 0.1839(2) -0.1890(4)
O2F O 0.1142(3) 0.4121(2) 0.1040(5)
O2A O 0.6142(3) 0.0879(2) -0.3960(5)
O4A O 0.4477(3) 0.2474(2) -0.4444(5)
O5A O 0.6574(4) 0.0787(2) 0.0426(5)
C1F C 0.2054(5) 0.3600(3) 0.1920(7)
C2F C 0.3061(5) 0.3501(4) 0.1488(8)
H1F H 0.3882 0.3644 0.2541
H2F H 0.2889 0.3888 0.0537
C3F C 0.3119(5) 0.2618(4) 0.0900(7)
H3F H 0.3251 0.2226 0.1825
H4F H 0.3837 0.2572 0.0762
H5A H 0.737(6) 0.094(6) 0.118(11)
H6A H 0.589(6) 0.054(5) 0.027(12)
H7A H 0.501(7) 0.289(5) -0.372(10)
H8A H 0.356(6) 0.268(5) -0.567(9)
H9A H 0.579(7) -0.046(5) -0.107(9)
loop_
_geom_bond_atom_site_label_1
_geom_bond_atom_site_label_2
_geom_bond_site_symmetry_1
_geom_bond_site_symmetry_2
Gd1 O1 1_555 1_555
O1 C1 1_555 1_555
O2 Gd1 1_555 1_555
O3 Gd1 1_555 1_555
O4 Gd1 1_555 1_555
O5 Gd1 1_555 1_555
C1 O2 1_555 1_555
C2 C1 1_555 1_555
H1 C2 1_555 1_555
H2 C2 1_555 1_555
C3 C2 1_555 1_555
H3 C3 1_555 1_555
H4 C3 1_555 1_555
N1 O6 1_555 1_555
O7 N1 1_555 1_555
O8 N1 1_555 1_555
H5 O5 1_555 1_555
H6 O5 1_555 1_555
H7 O4 1_555 1_555
H8 O4 1_555 1_555
H9 O3 1_555 1_555
Gd1F O1F 1_555 1_555
O1F C1F 1_555 1_555
O1A Gd1 1_555 1_555
O2F Gd1F 1_555 1_555
O2A Gd1 1_555 1_555
O4A Gd1 1_555 1_555
O5A Gd1 1_555 1_555
C1F O2F 1_555 1_555
C2F C1F 1_555 1_555
H1F C2F 1_555 1_555
H2F C2F 1_555 1_555
C3F C3 1_555 1_555
H3F C3F 1_555 1_555
H4F C3F 1_555 1_555
N1D O8 1_555 1_555
O6D N1D 1_555 1_555
O7D O8 1_555 1_555
O8D N1 1_555 1_555
H5A O5A 1_555 1_555
H6A O5A 1_555 1_555
H7A O4A 1_555 1_555
H8A O4A 1_555 1_555
H9A O3 1_555 1_555
O7 O8D 1_555 1_555
C2F C3F 1_555 1_555
N1D O7D 1_555 1_555
N1D O8D 1_555 1_555

#END
