
#######################################################################
#
#                 Cambridge Crystallographic Data Centre
#                                CCDC 
#
#######################################################################
#
# If this CIF has been generated from an entry in the Cambridge 
# Structural Database, then it will include bibliographic, chemical, 
# crystal, experimental, refinement or atomic coordinate data resulting 
# from the CCDC's data processing and validation procedures.
#
#######################################################################

data_ICOXAB
_symmetry_cell_setting           monoclinic
_symmetry_space_group_name_H-M   'P 21/c'
_symmetry_Int_Tables_number      14
_space_group_name_Hall           '-P 2ybc'
loop_
_symmetry_equiv_pos_site_id
_symmetry_equiv_pos_as_xyz
1 x,y,z
2 -x,1/2+y,1/2-z
3 -x,-y,-z
4 x,1/2-y,1/2+z
_cell_length_a                   11.668(3)
_cell_length_b                   11.842(3)
_cell_length_c                   14.446(4)
_cell_angle_alpha                90
_cell_angle_beta                 102.440(4)
_cell_angle_gamma                90
_cell_volume                     1949.18
loop_
_atom_site_label
_atom_site_type_symbol
_atom_site_fract_x
_atom_site_fract_y
_atom_site_fract_z
Cd1 Cd 0.353399(17) 0.006937(16) 0.541412(14)
O1 O 0.5447(2) 0.11653(17) 0.53166(14)
O2 O 0.3676(2) 0.18010(19) 0.47085(16)
O3 O 0.37331(19) 0.4020(2) 0.18565(15)
O4 O 0.4823(2) 0.55175(19) 0.18960(15)
O5 O 0.7516(2) 0.5758(2) 0.5829(2)
O6 O 0.8578(3) 0.4797(4) 0.5168(3)
N1 N 0.7634(2) 0.5065(2) 0.5275(2)
N2 N 0.2227(2) -0.1343(2) 0.57392(16)
N3 N 0.1795(2) 0.0027(2) 0.41871(18)
C1 C 0.4763(3) 0.1905(2) 0.48813(19)
C2 C 0.5257(2) 0.2967(2) 0.45511(19)
C3 C 0.4756(3) 0.3375(2) 0.3656(2)
H1 H 0.415(3) 0.297(2) 0.329(2)
C4 C 0.5159(2) 0.4331(2) 0.32734(19)
C5 C 0.4537(3) 0.4658(2) 0.2277(2)
C6 C 0.6110(3) 0.4928(2) 0.3810(2)
C7 C 0.6613(3) 0.5994(3) 0.3484(3)
H2 H 0.7266 0.6259 0.3982
H3 H 0.6002 0.6576 0.3355
H4 H 0.6895 0.5838 0.2906
C8 C 0.6592(2) 0.4484(2) 0.4699(2)
C9 C 0.6218(3) 0.3528(2) 0.51050(19)
C10 C 0.6796(3) 0.3161(3) 0.6093(2)
H5 H 0.6414 0.2474 0.6256
H6 H 0.6720 0.3762 0.6543
H7 H 0.7629 0.3009 0.6124
C11 C 0.2449(3) -0.2030(3) 0.6471(2)
H8 H 0.318(3) -0.200(2) 0.687(2)
C12 C 0.1648(4) -0.2816(3) 0.6663(3)
H9 H 0.182(3) -0.329(3) 0.716(3)
C13 C 0.0575(4) -0.2877(3) 0.6064(3)
H10 H 0.0008 -0.3399 0.6187
C14 C 0.0307(3) -0.2176(3) 0.5272(3)
C15 C -0.0797(4) -0.2205(4) 0.4604(3)
H11 H -0.133(4) -0.271(3) 0.475(3)
C16 C -0.0997(3) -0.1559(4) 0.3838(3)
H12 H -0.169(3) -0.155(3) 0.343(3)
C17 C -0.0135(3) -0.0785(3) 0.3649(2)
C18 C -0.0294(4) -0.0099(3) 0.2849(3)
H13 H -0.103(4) -0.012(3) 0.245(3)
C19 C 0.0552(4) 0.0615(4) 0.2734(3)
H14 H 0.048(4) 0.108(4) 0.226(3)
C20 C 0.1592(4) 0.0672(4) 0.3420(3)
H15 H 0.217(3) 0.114(3) 0.337(3)
C21 C 0.0953(3) -0.0706(2) 0.4305(2)
C22 C 0.1177(3) -0.1421(2) 0.5125(2)
Cd1B Cd 0.646601(17) -0.006937(16) 0.458588(14)
Cd1C Cd 0.353399(17) 0.493063(16) 0.041412(14)
O1B O 0.4553(2) -0.11653(17) 0.46834(14)
O3C O 0.37331(19) 0.0980(2) 0.68565(15)
O4C O 0.4823(2) -0.05175(19) 0.68960(15)
loop_
_geom_bond_atom_site_label_1
_geom_bond_atom_site_label_2
_geom_bond_site_symmetry_1
_geom_bond_site_symmetry_2
Cd1 O1 1_555 1_555
O1 C1 1_555 1_555
O2 Cd1 1_555 1_555
O3 C5 1_555 1_555
O4 C5 1_555 1_555
O5 N1 1_555 1_555
O6 N1 1_555 1_555
N1 C8 1_555 1_555
N2 Cd1 1_555 1_555
N3 Cd1 1_555 1_555
C1 O2 1_555 1_555
C2 C1 1_555 1_555
C3 C2 1_555 1_555
H1 C3 1_555 1_555
C4 C3 1_555 1_555
C5 C4 1_555 1_555
C6 C4 1_555 1_555
C7 C6 1_555 1_555
H2 C7 1_555 1_555
H3 C7 1_555 1_555
H4 C7 1_555 1_555
C8 C6 1_555 1_555
C9 C2 1_555 1_555
C10 C9 1_555 1_555
H5 C10 1_555 1_555
H6 C10 1_555 1_555
H7 C10 1_555 1_555
C11 N2 1_555 1_555
H8 C11 1_555 1_555
C12 C11 1_555 1_555
H9 C12 1_555 1_555
C13 C12 1_555 1_555
H10 C13 1_555 1_555
C14 C13 1_555 1_555
C15 C14 1_555 1_555
H11 C15 1_555 1_555
C16 C15 1_555 1_555
H12 C16 1_555 1_555
C17 C16 1_555 1_555
C18 C17 1_555 1_555
H13 C18 1_555 1_555
C19 C18 1_555 1_555
H14 C19 1_555 1_555
C20 N3 1_555 1_555
H15 C20 1_555 1_555
C21 N3 1_555 1_555
C22 N2 1_555 1_555
Cd1B O1 1_555 1_555
Cd1C O3 1_555 1_555
O1B Cd1 1_555 1_555
O3C Cd1 1_555 1_555
O4C Cd1 1_555 1_555
O4 Cd1C 1_555 1_555
C8 C9 1_555 1_555
C14 C22 1_555 1_555
C17 C21 1_555 1_555
C19 C20 1_555 1_555
C21 C22 1_555 1_555
Cd1B O1B 1_555 1_555

#END
