
#######################################################################
#
#                 Cambridge Crystallographic Data Centre
#                                CCDC 
#
#######################################################################
#
# If this CIF has been generated from an entry in the Cambridge 
# Structural Database, then it will include bibliographic, chemical, 
# crystal, experimental, refinement or atomic coordinate data resulting 
# from the CCDC's data processing and validation procedures.
#
#######################################################################

data_ICOXOP
_symmetry_cell_setting           monoclinic
_symmetry_space_group_name_H-M   'C 2/c'
_symmetry_Int_Tables_number      15
_space_group_name_Hall           '-C 2yn'
loop_
_symmetry_equiv_pos_site_id
_symmetry_equiv_pos_as_xyz
1 x,y,z
2 -x,y,1/2-z
3 1/2+x,1/2+y,z
4 1/2-x,1/2+y,1/2-z
5 -x,-y,-z
6 x,-y,1/2+z
7 1/2-x,1/2-y,-z
8 1/2+x,1/2-y,1/2+z
_cell_length_a                   18.773(8)
_cell_length_b                   16.560(7)
_cell_length_c                   16.417(9)
_cell_angle_alpha                90
_cell_angle_beta                 94.737(9)
_cell_angle_gamma                90
_cell_volume                     5086.3
loop_
_atom_site_label
_atom_site_type_symbol
_atom_site_fract_x
_atom_site_fract_y
_atom_site_fract_z
Zn1 Zn -0.04572(7) 0.14564(9) 0.55868(10)
Zn2 Zn 0.0000 0.11194(13) 0.7500
O1 O 0.0880(5) 0.1161(7) 0.6856(7)
O2 O 0.0547(4) 0.1209(6) 0.5524(6)
O3 O -0.0489(4) 0.2020(4) 0.6633(5)
O4 O -0.1581(6) 0.2440(10) 0.6350(9)
O5 O 0.0463(9) -0.0217(6) 0.3190(7)
O6 O 0.1016(5) -0.0465(5) 0.4407(5)
N1 N -0.0984(6) 0.2023(6) 0.4658(8)
N2 N -0.2009(7) 0.2392(10) 0.4015(9)
H1 H -0.2456 0.2378 0.3850
C1 C 0.0974(7) 0.1036(9) 0.6119(11)
C2 C 0.1665(7) 0.0656(8) 0.5949(10)
C3 C 0.2041(9) 0.0251(9) 0.6599(11)
H2 H 0.1876 0.0264 0.7117
C4 C 0.2660(8) -0.0167(11) 0.6467(12)
H3 H 0.2906 -0.0437 0.6900
C5 C 0.2918(7) -0.0191(10) 0.5701(14)
H4 H 0.3336 -0.0472 0.5620
C6 C 0.2544(7) 0.0213(9) 0.5047(12)
H5 H 0.2712 0.0198 0.4530
C7 C 0.1913(6) 0.0642(7) 0.5172(10)
C8 C 0.1597(7) 0.1112(8) 0.4448(11)
C9 C 0.1757(9) 0.1934(10) 0.4460(14)
H6 H 0.1999 0.2160 0.4922
C10 C 0.1554(11) 0.2431(11) 0.3772(18)
H7 H 0.1700 0.2968 0.3766
C11 C 0.1146(12) 0.2116(11) 0.3121(16)
H8 H 0.0996 0.2443 0.2679
C12 C 0.0954(9) 0.1308(9) 0.3120(10)
H9 H 0.0684 0.1089 0.2673
C13 C 0.1171(7) 0.0819(7) 0.3799(9)
C14 C 0.0871(8) -0.0015(8) 0.3790(10)
C15 C -0.1657(8) 0.1862(11) 0.4485(10)
H10 H -0.1873 0.1403 0.4680
C16 C -0.1521(10) 0.2979(9) 0.3839(11)
C17 C -0.1590(13) 0.3679(11) 0.3360(13)
H11 H -0.2024 0.3835 0.3093
C18 C -0.0985(18) 0.4114(12) 0.331(2)
H12 H -0.1015 0.4602 0.3025
C19 C -0.0304(18) 0.3860(19) 0.367(2)
H13 H 0.0109 0.4145 0.3575
C20 C -0.0274(11) 0.3176(12) 0.4156(12)
H14 H 0.0156 0.3022 0.4435
C21 C -0.0871(9) 0.2735(8) 0.4228(11)
C22 C -0.1019(7) 0.2462(10) 0.6782(11)
C23 C -0.0946(9) 0.2969(10) 0.7516(12)
C24 C -0.1515(11) 0.3056(12) 0.8021(14)
H15 H -0.1948 0.2795 0.7887
C25 C -0.1425(13) 0.3532(14) 0.8720(16)
H16 H -0.1833 0.3634 0.8988
C26 C -0.0819(15) 0.3857(15) 0.9046(17)
H17 H -0.0758 0.4071 0.9571
C27 C -0.0266(11) 0.3835(9) 0.8479(12)
H18 H 0.0135 0.4158 0.8594
C28 C -0.0293(9) 0.3369(7) 0.7782(11)
Zn1A Zn 0.04572(7) 0.14564(9) 0.94132(10)
Zn1D Zn 0.04572(7) -0.14564(9) 0.44132(10)
Zn1E Zn -0.04572(7) -0.14564(9) 1.05868(10)
Zn2D Zn 0.0000 -0.11194(13) 0.2500
Zn2D_2 Zn 0.0000 -0.11194(13) 1.2500
O1A O -0.0880(5) 0.1161(7) 0.8144(7)
O2A O -0.0547(4) 0.1209(6) 0.9476(6)
O3A O 0.0489(4) 0.2020(4) 0.8367(5)
O4A O 0.1581(6) 0.2440(10) 0.8650(9)
O5A O -0.0463(9) -0.0217(6) 1.1810(7)
O5D O -0.0463(9) 0.0217(6) 0.6810(7)
O5E O 0.0463(9) 0.0217(6) 0.8190(7)
O6A O -0.1016(5) -0.0465(5) 1.0593(5)
O6D O -0.1016(5) 0.0465(5) 0.5593(5)
O6E O 0.1016(5) 0.0465(5) 0.9407(5)
N1A N 0.0984(6) 0.2023(6) 1.0342(8)
N2A N 0.2009(7) 0.2392(10) 1.0985(9)
H1A H 0.2456 0.2378 1.1150
C1A C -0.0974(7) 0.1036(9) 0.8881(11)
C2A C -0.1665(7) 0.0656(8) 0.9051(10)
C3A C -0.2041(9) 0.0251(9) 0.8401(11)
H2A H -0.1876 0.0264 0.7883
C4A C -0.2660(8) -0.0167(11) 0.8533(12)
H3A H -0.2906 -0.0437 0.8100
C5A C -0.2918(7) -0.0191(10) 0.9299(14)
H4A H -0.3336 -0.0472 0.9380
C6A C -0.2544(7) 0.0213(9) 0.9953(12)
H5A H -0.2712 0.0198 1.0470
C7A C -0.1913(6) 0.0642(7) 0.9828(10)
C8A C -0.1597(7) 0.1112(8) 1.0552(11)
C9A C -0.1757(9) 0.1934(10) 1.0540(14)
H6A H -0.1999 0.2160 1.0078
C10A C -0.1554(11) 0.2431(11) 1.1228(18)
H7A H -0.1700 0.2968 1.1234
C11A C -0.1146(12) 0.2116(11) 1.1879(16)
H8A H -0.0996 0.2443 1.2321
C12A C -0.0954(9) 0.1308(9) 1.1880(10)
H9A H -0.0684 0.1089 1.2327
C13A C -0.1171(7) 0.0819(7) 1.1201(9)
C14A C -0.0871(8) -0.0015(8) 1.1210(10)
C15A C 0.1657(8) 0.1862(11) 1.0515(10)
H10A H 0.1873 0.1403 1.0320
C16A C 0.1521(10) 0.2979(9) 1.1161(11)
C17A C 0.1590(13) 0.3679(11) 1.1640(13)
H11A H 0.2024 0.3835 1.1907
C18A C 0.0985(18) 0.4114(12) 1.169(2)
H12A H 0.1015 0.4602 1.1975
C19A C 0.0304(18) 0.3860(19) 1.133(2)
H13A H -0.0109 0.4145 1.1425
C20A C 0.0274(11) 0.3176(12) 1.0844(12)
H14A H -0.0156 0.3022 1.0565
C21A C 0.0871(9) 0.2735(8) 1.0772(11)
C22A C 0.1019(7) 0.2462(10) 0.8218(11)
C23A C 0.0946(9) 0.2969(10) 0.7484(12)
C24A C 0.1515(11) 0.3056(12) 0.6979(14)
H15A H 0.1948 0.2795 0.7113
C25A C 0.1425(13) 0.3532(14) 0.6280(16)
H16A H 0.1833 0.3634 0.6012
C26A C 0.0819(15) 0.3857(15) 0.5954(17)
H17A H 0.0758 0.4071 0.5429
C27A C 0.0266(11) 0.3835(9) 0.6521(12)
H18A H -0.0135 0.4158 0.6406
C28A C 0.0293(9) 0.3369(7) 0.7218(11)
loop_
_geom_bond_atom_site_label_1
_geom_bond_atom_site_label_2
_geom_bond_site_symmetry_1
_geom_bond_site_symmetry_2
Zn1 O2 1_555 1_555
Zn2 O1 1_555 1_555
O1 C1 1_555 1_555
O2 C1 1_555 1_555
O3 Zn1 1_555 1_555
O4 C22 1_555 1_555
O5 C14 1_555 1_555
O6 C14 1_555 1_555
N1 Zn1 1_555 1_555
N2 H1 1_555 1_555
C1 C2 1_555 1_555
C2 C3 1_555 1_555
C3 H2 1_555 1_555
C4 C3 1_555 1_555
H3 C4 1_555 1_555
C5 C4 1_555 1_555
H4 C5 1_555 1_555
C6 C5 1_555 1_555
H5 C6 1_555 1_555
C7 C2 1_555 1_555
C8 C7 1_555 1_555
C9 C8 1_555 1_555
H6 C9 1_555 1_555
C10 C9 1_555 1_555
H7 C10 1_555 1_555
C11 C10 1_555 1_555
H8 C11 1_555 1_555
C12 C11 1_555 1_555
H9 C12 1_555 1_555
C13 C8 1_555 1_555
C14 C13 1_555 1_555
C15 N1 1_555 1_555
H10 C15 1_555 1_555
C16 N2 1_555 1_555
C17 C16 1_555 1_555
H11 C17 1_555 1_555
C18 C17 1_555 1_555
H12 C18 1_555 1_555
C19 C18 1_555 1_555
H13 C19 1_555 1_555
C20 C19 1_555 1_555
H14 C20 1_555 1_555
C21 N1 1_555 1_555
C22 O3 1_555 1_555
C23 C22 1_555 1_555
C24 C23 1_555 1_555
H15 C24 1_555 1_555
C25 C24 1_555 1_555
H16 C25 1_555 1_555
C26 C25 1_555 1_555
H17 C26 1_555 1_555
C27 C26 1_555 1_555
H18 C27 1_555 1_555
C28 C23 1_555 1_555
Zn1A O2A 1_555 1_555
Zn1D O6 1_555 1_555
Zn1E O6A 1_555 1_555
Zn2D O5 1_555 1_555
Zn2D_2 O5A 1_555 1_555
O1A Zn2 1_555 1_555
O2A C1A 1_555 1_555
O3A Zn2 1_555 1_555
O4A C22A 1_555 1_555
O5A C14A 1_555 1_555
O5D Zn2 1_555 1_555
O5E Zn2 1_555 1_555
O6A C14A 1_555 1_555
O6D Zn1 1_555 1_555
O6E Zn1A 1_555 1_555
N1A Zn1A 1_555 1_555
N2A H1A 1_555 1_555
C1A O1A 1_555 1_555
C2A C1A 1_555 1_555
C3A C2A 1_555 1_555
H2A C3A 1_555 1_555
C4A C3A 1_555 1_555
H3A C4A 1_555 1_555
C5A C4A 1_555 1_555
H4A C5A 1_555 1_555
C6A C5A 1_555 1_555
H5A C6A 1_555 1_555
C7A C2A 1_555 1_555
C8A C7A 1_555 1_555
C9A C8A 1_555 1_555
H6A C9A 1_555 1_555
C10A C9A 1_555 1_555
H7A C10A 1_555 1_555
C11A C10A 1_555 1_555
H8A C11A 1_555 1_555
C12A C11A 1_555 1_555
H9A C12A 1_555 1_555
C13A C8A 1_555 1_555
C14A C13A 1_555 1_555
C15A N1A 1_555 1_555
H10A C15A 1_555 1_555
C16A N2A 1_555 1_555
C17A C16A 1_555 1_555
H11A C17A 1_555 1_555
C18A C17A 1_555 1_555
H12A C18A 1_555 1_555
C19A C18A 1_555 1_555
H13A C19A 1_555 1_555
C20A C19A 1_555 1_555
H14A C20A 1_555 1_555
C21A N1A 1_555 1_555
C22A O3A 1_555 1_555
C23A C22A 1_555 1_555
C24A C23A 1_555 1_555
H15A C24A 1_555 1_555
C25A C24A 1_555 1_555
H16A C25A 1_555 1_555
C26A C25A 1_555 1_555
H17A C26A 1_555 1_555
C27A C26A 1_555 1_555
H18A C27A 1_555 1_555
C28A C28 1_555 1_555
Zn2 O3 1_555 1_555
N2 C15 1_555 1_555
C6 C7 1_555 1_555
C12 C13 1_555 1_555
C16 C21 1_555 1_555
C20 C21 1_555 1_555
C27 C28 1_555 1_555
Zn1A O3A 1_555 1_555
N2A C15A 1_555 1_555
C6A C7A 1_555 1_555
C12A C13A 1_555 1_555
C16A C21A 1_555 1_555
C20A C21A 1_555 1_555
C23A C28A 1_555 1_555
C27A C28A 1_555 1_555

#END
