
#######################################################################
#
#                 Cambridge Crystallographic Data Centre
#                                CCDC 
#
#######################################################################
#
# If this CIF has been generated from an entry in the Cambridge 
# Structural Database, then it will include bibliographic, chemical, 
# crystal, experimental, refinement or atomic coordinate data resulting 
# from the CCDC's data processing and validation procedures.
#
#######################################################################

data_ICOZEH
_symmetry_cell_setting           monoclinic
_symmetry_space_group_name_H-M   'P 21/c'
_symmetry_Int_Tables_number      14
_space_group_name_Hall           '-P 2ybc'
loop_
_symmetry_equiv_pos_site_id
_symmetry_equiv_pos_as_xyz
1 x,y,z
2 -x,1/2+y,1/2-z
3 -x,-y,-z
4 x,1/2-y,1/2+z
_cell_length_a                   11.476(2)
_cell_length_b                   14.405(3)
_cell_length_c                   15.076(3)
_cell_angle_alpha                90
_cell_angle_beta                 105.58(3)
_cell_angle_gamma                90
_cell_volume                     2400.67
loop_
_atom_site_label
_atom_site_type_symbol
_atom_site_fract_x
_atom_site_fract_y
_atom_site_fract_z
Cd1 Cd 0.22768(2) 0.20597(2) -0.056949(19)
C1 C 0.3195(3) 0.2935(3) 0.1438(3)
H1 H 0.2424 0.3185 0.1221
C2 C 0.3939(3) 0.3288(3) 0.2242(3)
H2 H 0.3663 0.3757 0.2559
C3 C 0.5099(3) 0.2939(3) 0.2574(2)
C4 C 0.5433(4) 0.2230(3) 0.2076(3)
H3 H 0.6203 0.1971 0.2271
C5 C 0.4621(4) 0.1909(3) 0.1290(3)
H4 H 0.4858 0.1420 0.0975
C6 C 0.5924(3) 0.3348(3) 0.3402(3)
C7 C 0.7468(3) 0.3718(3) 0.4431(3)
C8 C 0.8720(3) 0.3809(3) 0.4982(2)
C9 C 0.9046(4) 0.4214(3) 0.5850(3)
H5 H 0.8456 0.4417 0.6125
C10 C 1.0248(4) 0.4311(3) 0.6296(3)
H6 H 1.0481 0.4583 0.6876
H7 H 0.3455 0.0313 -0.0356
H8 H 0.0245 0.3375 -0.0699
H9 H 0.1193 0.3914 -0.0364
H10 H 0.3927 0.0785 -0.0856
C11 C 1.1105(4) 0.4007(3) 0.5888(3)
H13 H 1.1917 0.4076 0.6201
C12 C 0.9649(3) 0.3527(3) 0.4619(3)
H14 H 0.9445 0.3261 0.4036
C13 C 0.2862(4) 0.3773(3) -0.1692(3)
H15 H 0.2058 0.3666 -0.2006
C14 C 0.3427(4) 0.4541(3) -0.1911(3)
H16 H 0.3006 0.4948 -0.2362
C15 C 0.4607(4) 0.4709(3) -0.1467(3)
H17 H 0.4995 0.5234 -0.1605
C16 C 0.5221(3) 0.4085(3) -0.0804(3)
C17 C 0.4579(3) 0.3335(3) -0.0617(3)
H18 H 0.4977 0.2919 -0.0166
C18 C 0.6479(3) 0.4242(3) -0.0295(3)
C19 C 0.8162(3) 0.4129(3) 0.0648(3)
C20 C 0.9170(3) 0.3814(3) 0.1398(2)
C21 C 0.9111(3) 0.2985(3) 0.1844(3)
H19 H 0.8435 0.2605 0.1650
C22 C 1.0048(4) 0.2722(3) 0.2572(3)
H20 H 0.9998 0.2148 0.2842
C23 C 1.1103(4) 0.4032(3) 0.2478(3)
H21 H 1.1787 0.4399 0.2694
C24 C 1.0221(3) 0.4338(3) 0.1721(3)
H22 H 1.0325 0.4888 0.1429
N1 N 0.3515(3) 0.2258(2) 0.0955(2)
N2 N 0.5554(3) 0.3961(2) 0.3925(2)
N3 N 0.6565(3) 0.4201(2) 0.4602(2)
N4 N 0.7116(3) 0.3168(2) 0.3680(2)
N5 N 1.0822(3) 0.3613(2) 0.5056(2)
N6 N 0.3423(3) 0.3171(2) -0.1044(2)
N7 N 0.7097(3) 0.3678(2) 0.0382(2)
N8 N 0.7104(3) 0.4976(3) -0.0452(2)
N9 N 0.8208(3) 0.4908(2) 0.0171(2)
N10 N 1.1034(3) 0.3239(2) 0.2920(2)
O1 O 0.0972(3) 0.3352(2) -0.0475(2)
O2 O 0.3372(2) 0.07518(19) -0.07005(18)
Cd1C Cd 1.22768(2) 0.29403(2) 0.443051(19)
N5C N 0.0822(3) 0.1387(2) 0.0056(2)
N10C N 0.1034(3) 0.1761(2) -0.2080(2)
H11 H 0.8019 0.3048 0.8579
H12 H 0.8010 0.3940 0.8748
O3 O 0.8410(3) 0.3510(2) 0.8534(2)
loop_
_geom_bond_atom_site_label_1
_geom_bond_atom_site_label_2
_geom_bond_site_symmetry_1
_geom_bond_site_symmetry_2
Cd1 N1 1_555 1_555
C1 H1 1_555 1_555
C2 C1 1_555 1_555
H2 C2 1_555 1_555
C3 C2 1_555 1_555
C4 C3 1_555 1_555
H3 C4 1_555 1_555
C5 C4 1_555 1_555
H4 C5 1_555 1_555
C6 C3 1_555 1_555
C7 C8 1_555 1_555
C8 C9 1_555 1_555
C9 H5 1_555 1_555
C10 C9 1_555 1_555
H6 C10 1_555 1_555
H7 O2 1_555 1_555
H8 O1 1_555 1_555
H9 O1 1_555 1_555
H10 O2 1_555 1_555
H11 O3 1_555 1_555
H12 O3 1_555 1_555
C11 C10 1_555 1_555
H13 C11 1_555 1_555
C12 C8 1_555 1_555
H14 C12 1_555 1_555
C13 H15 1_555 1_555
C14 C13 1_555 1_555
H16 C14 1_555 1_555
C15 C14 1_555 1_555
H17 C15 1_555 1_555
C16 C15 1_555 1_555
C17 C16 1_555 1_555
H18 C17 1_555 1_555
C18 C16 1_555 1_555
C19 C20 1_555 1_555
C20 C21 1_555 1_555
C21 H19 1_555 1_555
C22 C21 1_555 1_555
H20 C22 1_555 1_555
C23 H21 1_555 1_555
C24 C20 1_555 1_555
H22 C24 1_555 1_555
N1 C1 1_555 1_555
N2 C6 1_555 1_555
N3 C7 1_555 1_555
N4 C6 1_555 1_555
N5 C11 1_555 1_555
N6 Cd1 1_555 1_555
N7 C18 1_555 1_555
N8 C18 1_555 1_555
N9 C19 1_555 1_555
N10 C22 1_555 1_555
O1 Cd1 1_555 1_555
O2 Cd1 1_555 1_555
Cd1C N5 1_555 1_555
N5C Cd1 1_555 1_555
N10C Cd1 1_555 1_555
C5 N1 1_555 1_555
C7 N4 1_555 1_555
C12 N5 1_555 1_555
C13 N6 1_555 1_555
C17 N6 1_555 1_555
C19 N7 1_555 1_555
C23 C24 1_555 1_555
C23 N10 1_555 1_555
N2 N3 1_555 1_555
N8 N9 1_555 1_555
N10 Cd1C 1_555 1_555

#END
