
#######################################################################
#
#                 Cambridge Crystallographic Data Centre
#                                CCDC 
#
#######################################################################
#
# If this CIF has been generated from an entry in the Cambridge 
# Structural Database, then it will include bibliographic, chemical, 
# crystal, experimental, refinement or atomic coordinate data resulting 
# from the CCDC's data processing and validation procedures.
#
#######################################################################

data_ICUDAN
_symmetry_cell_setting           monoclinic
_symmetry_space_group_name_H-M   'P 21/n'
_symmetry_Int_Tables_number      14
_space_group_name_Hall           '-P 2yn'
loop_
_symmetry_equiv_pos_site_id
_symmetry_equiv_pos_as_xyz
1 x,y,z
2 1/2-x,1/2+y,1/2-z
3 -x,-y,-z
4 1/2+x,1/2-y,1/2+z
_cell_length_a                   7.2800(2)
_cell_length_b                   11.6181(3)
_cell_length_c                   10.8600(3)
_cell_angle_alpha                90
_cell_angle_beta                 103.7210(10)
_cell_angle_gamma                90
_cell_volume                     892.323
loop_
_atom_site_label
_atom_site_type_symbol
_atom_site_fract_x
_atom_site_fract_y
_atom_site_fract_z
Zn1 Zn 0.00000 1.00000 0.50000
N1 N 0.23872(14) 1.09448(9) 0.57772(9)
O1 O 0.33608(14) 1.34165(8) 0.90738(10)
O2 O 0.50448(14) 1.18594(11) 0.98422(9)
O3 O -0.04919(14) 1.03453(9) 0.67603(9)
O4 O 0.08853(14) 1.10920(9) 0.86374(9)
C1 C 0.37447(19) 1.12570(12) 0.52071(12)
H7 H 0.3688 1.0999 0.4388
C2 C 0.5236(2) 1.19547(14) 0.58010(14)
H8 H 0.6175 1.2159 0.5392
C3 C 0.5298(2) 1.23404(13) 0.70161(13)
H9 H 0.6275 1.282 0.7428
C4 C 0.38917(17) 1.20088(10) 0.76245(11)
C5 C 0.40750(17) 1.24528(11) 0.89637(12)
C6 C 0.24515(16) 1.13005(10) 0.69667(11)
C7 C 0.08184(17) 1.08793(10) 0.75007(11)
Zn1A Zn 0.50000 1.50000 1.00000
Zn1A_2 Zn -0.50000 0.50000 0.00000
N1B N -0.23872(14) 0.90552(9) 0.42228(9)
O1B O -0.33608(14) 0.65835(8) 0.09262(10)
O1A O 0.16392(14) 0.84165(8) 0.59262(10)
O1C O -0.16392(14) 1.15835(8) 0.40738(10)
O2B O -0.50448(14) 0.81406(11) 0.01578(9)
O3B O 0.04919(14) 0.96547(9) 0.32397(9)
O4B O -0.08853(14) 0.89080(9) 0.13626(9)
C1B C -0.37447(19) 0.87430(12) 0.47929(12)
H7B H -0.3688 0.9001 0.5612
C2B C -0.5236(2) 0.80453(14) 0.41990(14)
H8B H -0.6175 0.7841 0.4608
C3B C -0.5298(2) 0.76596(13) 0.29839(13)
H9B H -0.6275 0.718 0.2572
C4B C -0.38917(17) 0.79912(10) 0.23755(11)
C5B C -0.40750(17) 0.75472(11) 0.10363(12)
C6B C -0.24515(16) 0.86995(10) 0.30333(11)
C7B C -0.08184(17) 0.91207(10) 0.24993(11)
N2 N -0.24734(18) 0.52534(12) 0.58044(13)
H1 H -0.179(3) 0.4844(14) 0.6443(16)
H2 H -0.291(3) 0.4779(15) 0.5161(16)
H3 H -0.176(2) 0.5798(14) 0.5576(17)
H4 H -0.342(2) 0.5584(15) 0.6045(17)
O5 O 0.0131(2) 0.63288(14) 0.26946(12)
H5 H -0.093(2) 0.634(3) 0.2195(19)
H6 H -0.005(4) 0.658(2) 0.3360(14)
loop_
_geom_bond_atom_site_label_1
_geom_bond_atom_site_label_2
_geom_bond_site_symmetry_1
_geom_bond_site_symmetry_2
Zn1 N1 1_555 1_555
N1 C1 1_555 1_555
N2 H1 1_555 1_555
H2 N2 1_555 1_555
H3 N2 1_555 1_555
H4 N2 1_555 1_555
O1 C5 1_555 1_555
O2 C5 1_555 1_555
O3 Zn1 1_555 1_555
O4 C7 1_555 1_555
O5 H5 1_555 1_555
H6 O5 1_555 1_555
C1 H7 1_555 1_555
C2 C1 1_555 1_555
H8 C2 1_555 1_555
C3 C2 1_555 1_555
H9 C3 1_555 1_555
C4 C3 1_555 1_555
C5 C4 1_555 1_555
C6 N1 1_555 1_555
C7 O3 1_555 1_555
Zn1A O1 1_555 1_555
Zn1A_2 O1B 1_555 1_555
N1B Zn1 1_555 1_555
O1B C5B 1_555 1_555
O1A Zn1 1_555 1_555
O1C Zn1 1_555 1_555
O2B C5B 1_555 1_555
O3B Zn1 1_555 1_555
O4B C7B 1_555 1_555
C1B N1B 1_555 1_555
H7B C1B 1_555 1_555
C2B C1B 1_555 1_555
H8B C2B 1_555 1_555
C3B C2B 1_555 1_555
H9B C3B 1_555 1_555
C4B C3B 1_555 1_555
C5B C4B 1_555 1_555
C6B N1B 1_555 1_555
C7B O3B 1_555 1_555
C4 C6 1_555 1_555
C6 C7 1_555 1_555
C4B C6B 1_555 1_555
C6B C7B 1_555 1_555

#END
