
#######################################################################
#
#                 Cambridge Crystallographic Data Centre
#                                CCDC 
#
#######################################################################
#
# If this CIF has been generated from an entry in the Cambridge 
# Structural Database, then it will include bibliographic, chemical, 
# crystal, experimental, refinement or atomic coordinate data resulting 
# from the CCDC's data processing and validation procedures.
#
#######################################################################

data_ICUHAQ
_symmetry_cell_setting           monoclinic
_symmetry_space_group_name_H-M   'P 21/n'
_symmetry_Int_Tables_number      14
_space_group_name_Hall           '-P 2yn'
loop_
_symmetry_equiv_pos_site_id
_symmetry_equiv_pos_as_xyz
1 x,y,z
2 1/2-x,1/2+y,1/2-z
3 -x,-y,-z
4 1/2+x,1/2-y,1/2+z
_cell_length_a                   8.3167(13)
_cell_length_b                   4.8505(7)
_cell_length_c                   15.561(2)
_cell_angle_alpha                90
_cell_angle_beta                 94.108(7)
_cell_angle_gamma                90
_cell_volume                     626.12
loop_
_atom_site_label
_atom_site_type_symbol
_atom_site_fract_x
_atom_site_fract_y
_atom_site_fract_z
Cu1 Cu 0.0000 0.0000 0.0000
O1 O -0.1825(4) 0.0188(11) 0.0667(2)
C1 C -0.3358(6) 0.0062(16) 0.0317(3)
C2 C -0.0513(6) -0.4703(15) -0.1234(3)
H1 H 0.0602 -0.4858 -0.1324
N1 N -0.1118(5) -0.2764(10) -0.0733(3)
N2 N -0.2765(5) -0.3338(11) -0.0807(3)
C3 C -0.3864(6) -0.1594(13) -0.0371(4)
C4 C -0.4525(7) 0.1634(13) 0.0702(4)
H2 H -0.4220 0.2736 0.1192
C5 C -0.3082(7) -0.5513(12) -0.1317(4)
H3 H -0.4117 -0.6287 -0.1456
C6 C -0.1667(7) -0.6435(13) -0.1603(4)
H4 H -0.1514 -0.7948 -0.1976
Cu1_2 Cu -1.0000 0.0000 0.0000
O1B O -0.8175(4) -0.0188(11) -0.0667(2)
O1B_2 O 0.1825(4) -0.0188(11) -0.0667(2)
C1B C -0.6642(6) -0.0062(16) -0.0317(3)
C2B C -0.9487(6) 0.4703(15) 0.1234(3)
H1B H -1.0602 0.4858 0.1324
N1B N -0.8882(5) 0.2764(10) 0.0733(3)
N1B_2 N 0.1118(5) 0.2764(10) 0.0733(3)
N2B N -0.7235(5) 0.3338(11) 0.0807(3)
C3B C -0.6136(6) 0.1594(13) 0.0371(4)
C4B C -0.5475(7) -0.1634(13) -0.0702(4)
H2B H -0.5780 -0.2736 -0.1192
C5B C -0.6918(7) 0.5513(12) 0.1317(4)
H3B H -0.5883 0.6287 0.1456
C6B C -0.8333(7) 0.6435(13) 0.1603(4)
H4B H -0.8486 0.7948 0.1976
O2 O -0.1670(5) 0.0001(14) 0.2417(3)
H5 H -0.166(7) 0.024(16) 0.1873(15)
H6 H -0.206(8) 0.157(8) 0.255(4)
loop_
_geom_bond_atom_site_label_1
_geom_bond_atom_site_label_2
_geom_bond_site_symmetry_1
_geom_bond_site_symmetry_2
Cu1 O1 1_555 1_555
O1 C1 1_555 1_555
C1 C3 1_555 1_555
C2 H1 1_555 1_555
N1 Cu1 1_555 1_555
N2 N1 1_555 1_555
C3 N2 1_555 1_555
C4 C1 1_555 1_555
H2 C4 1_555 1_555
C5 N2 1_555 1_555
H3 C5 1_555 1_555
C6 C2 1_555 1_555
H4 C6 1_555 1_555
O2 H5 1_555 1_555
H6 O2 1_555 1_555
Cu1_2 O1B 1_555 1_555
O1B C1B 1_555 1_555
O1B_2 Cu1 1_555 1_555
C1B C3B 1_555 1_555
C2B H1B 1_555 1_555
N1B Cu1_2 1_555 1_555
N1B_2 Cu1 1_555 1_555
N2B N1B 1_555 1_555
C3B C4 1_555 1_555
C4B C3 1_555 1_555
H2B C4B 1_555 1_555
C5B N2B 1_555 1_555
H3B C5B 1_555 1_555
C6B C2B 1_555 1_555
H4B C6B 1_555 1_555
C2 N1 1_555 1_555
C5 C6 1_555 1_555
C1B C4B 1_555 1_555
C2B N1B 1_555 1_555
N2B C3B 1_555 1_555
C5B C6B 1_555 1_555

#END
