
#######################################################################
#
#                 Cambridge Crystallographic Data Centre
#                                CCDC 
#
#######################################################################
#
# If this CIF has been generated from an entry in the Cambridge 
# Structural Database, then it will include bibliographic, chemical, 
# crystal, experimental, refinement or atomic coordinate data resulting 
# from the CCDC's data processing and validation procedures.
#
#######################################################################

data_ICUKOG
_symmetry_cell_setting           monoclinic
_symmetry_space_group_name_H-M   'P 21/n'
_symmetry_Int_Tables_number      14
_space_group_name_Hall           '-P 2yn'
loop_
_symmetry_equiv_pos_site_id
_symmetry_equiv_pos_as_xyz
1 x,y,z
2 1/2+x,1/2-y,1/2+z
3 -x,-y,-z
4 1/2-x,1/2+y,1/2-z
_cell_length_a                   11.548(9)
_cell_length_b                   9.807(4)
_cell_length_c                   22.677(20)
_cell_angle_alpha                90.00
_cell_angle_beta                 102.40(7)
_cell_angle_gamma                90.00
_cell_volume                     2508.29
loop_
_atom_site_label
_atom_site_type_symbol
_atom_site_fract_x
_atom_site_fract_y
_atom_site_fract_z
Co1 Co 0.5000 0.0000 1.0000
N1 N 0.6834(3) -0.0095(4) 1.0482(2)
N2 N 0.7799(3) -0.0442(4) 1.04849(15)
N3 N 0.8773(3) -0.0794(4) 1.0499(2)
N4 N 0.4569(3) -0.1003(4) 1.0763(2)
N5 N 0.5240(3) -0.1016(4) 1.1328(2)
C1 C 0.3635(4) -0.1771(5) 1.0794(2)
H1 H 0.3011 -0.1949 1.0468
C2 C 0.3709(4) -0.2268(5) 1.1367(2)
H2 H 0.3164 -0.2826 1.1498
C3 C 0.4744(4) -0.1774(5) 1.1704(2)
C4 C 0.5320(6) -0.1936(8) 1.2365(3)
H3 H 0.6058 -0.1449 1.2452
H4 H 0.5464 -0.2885 1.2456
H5 H 0.4803 -0.1577 1.2607
N6 N 0.5083(3) -0.1953(4) 0.9615(2)
N7 N 0.4337(3) -0.2381(4) 0.9096(2)
C5 C 0.5756(4) -0.3031(5) 0.9810(2)
H6 H 0.6347 -0.3041 1.0160
C6 C 0.5468(5) -0.4124(5) 0.9431(3)
H7 H 0.5821 -0.4981 0.9473
C7 C 0.4552(5) -0.3700(5) 0.8975(2)
C8 C 0.3860(7) -0.4427(8) 0.8443(3)
H8 H 0.3279 -0.3820 0.8215
H9 H 0.3468 -0.5197 0.8574
H10 H 0.4383 -0.4735 0.8194
Co2 Co 1.0000 0.0000 1.0000
N8 N 0.8800(3) -0.0409(4) 0.9157(2)
N9 N 0.8921(3) 0.0085(4) 0.8615(2)
C9 C 0.7803(4) -0.1138(5) 0.9036(2)
H11 H 0.7489 -0.1599 0.9324
C10 C 0.7298(5) -0.1118(6) 0.8428(3)
H12 H 0.6601 -0.1548 0.8235
C11 C 0.8017(5) -0.0351(6) 0.8171(2)
C12 C 0.7925(7) 0.0101(8) 0.7524(3)
H13 H 0.8602 0.0648 0.7499
H14 H 0.7215 0.0628 0.7394
H15 H 0.7899 -0.0686 0.7270
N10 N 1.0667(3) -0.2033(4) 0.9966(2)
N11 N 1.0718(3) -0.2947(4) 1.0424(2)
C13 C 1.1189(4) -0.2662(5) 0.9568(2)
H16 H 1.1280 -0.2284 0.9205
C14 C 1.1573(4) -0.3949(5) 0.9770(2)
H17 H 1.1964 -0.4575 0.9574
C15 C 1.1266(4) -0.4116(5) 1.0312(2)
C16 C 1.1448(5) -0.5249(5) 1.0754(3)
H18 H 1.1105 -0.5012 1.1090
H19 H 1.2282 -0.5410 1.0894
H20 H 1.1075 -0.6059 1.0565
N1B N 0.3166(3) 0.0095(4) 0.9518(2)
N2B N 0.2201(3) 0.0442(4) 0.95151(15)
N3B N 0.1227(3) 0.0794(4) 0.9501(2)
N4B N 0.5431(3) 0.1003(4) 0.9237(2)
N5B N 0.4760(3) 0.1016(4) 0.8672(2)
C1B C 0.6365(4) 0.1771(5) 0.9206(2)
H1B H 0.6989 0.1949 0.9532
C2B C 0.6291(4) 0.2268(5) 0.8633(2)
H2B H 0.6836 0.2826 0.8502
C3B C 0.5256(4) 0.1774(5) 0.8296(2)
C4B C 0.4680(6) 0.1936(8) 0.7635(3)
H3B H 0.3942 0.1449 0.7548
H4B H 0.4536 0.2885 0.7544
H5B H 0.5197 0.1577 0.7393
N6B N 0.4917(3) 0.1953(4) 1.0385(2)
N7B N 0.5663(3) 0.2381(4) 1.0904(2)
C5B C 0.4244(4) 0.3031(5) 1.0190(2)
H6B H 0.3653 0.3041 0.9840
C6B C 0.4532(5) 0.4124(5) 1.0569(3)
H7B H 0.4179 0.4981 1.0527
C7B C 0.5448(5) 0.3700(5) 1.1025(2)
C8B C 0.6140(7) 0.4427(8) 1.1557(3)
H8B H 0.6721 0.3820 1.1785
H9B H 0.6532 0.5197 1.1426
H10B H 0.5617 0.4735 1.1806
N8B N 1.1200(3) 0.0409(4) 1.0843(2)
N9B N 1.1079(3) -0.0085(4) 1.1385(2)
C9B C 1.2197(4) 0.1138(5) 1.0964(2)
H11B H 1.2511 0.1599 1.0676
C10B C 1.2702(5) 0.1118(6) 1.1572(3)
H12B H 1.3399 0.1548 1.1765
C11B C 1.1983(5) 0.0351(6) 1.1829(2)
C12B C 1.2075(7) -0.0101(8) 1.2476(3)
H13B H 1.1398 -0.0648 1.2501
H14B H 1.2785 -0.0628 1.2606
H15B H 1.2101 0.0686 1.2730
N10B N 0.9333(3) 0.2033(4) 1.0034(2)
N11B N 0.9282(3) 0.2947(4) 0.9576(2)
C13B C 0.8811(4) 0.2662(5) 1.0432(2)
H16B H 0.8720 0.2284 1.0795
C14B C 0.8427(4) 0.3949(5) 1.0230(2)
H17B H 0.8036 0.4575 1.0426
C15B C 0.8734(4) 0.4116(5) 0.9688(2)
C16B C 0.8552(5) 0.5249(5) 0.9246(3)
H18B H 0.8895 0.5012 0.8910
H19B H 0.7718 0.5410 0.9106
H20B H 0.8925 0.6059 0.9435
N3B_2 N 1.1227(3) 0.0794(4) 0.9501(2)
Co2_2 Co 0.0000 0.0000 1.0000
Cl1 Cl 0.9048(2) -0.2747(2) 1.18668(8)
O1 O 0.9161(5) -0.1286(5) 1.1944(2)
O2 O 0.9919(6) -0.3131(7) 1.1576(3)
O3 O 0.9207(8) -0.3422(7) 1.2407(3)
O4 O 0.7955(7) -0.2945(10) 1.1546(6)
O5 O 0.7328(3) 0.0778(4) 1.1829(2)
loop_
_geom_bond_atom_site_label_1
_geom_bond_atom_site_label_2
_geom_bond_site_symmetry_1
_geom_bond_site_symmetry_2
Co1 N1 1_555 1_555
N1 N2 1_555 1_555
N2 N3 1_555 1_555
N3 Co2 1_555 1_555
N4 Co1 1_555 1_555
N5 N4 1_555 1_555
C1 N4 1_555 1_555
H1 C1 1_555 1_555
C2 C1 1_555 1_555
H2 C2 1_555 1_555
C3 N5 1_555 1_555
C4 C3 1_555 1_555
H3 C4 1_555 1_555
H4 C4 1_555 1_555
H5 C4 1_555 1_555
N6 Co1 1_555 1_555
N7 N6 1_555 1_555
C5 N6 1_555 1_555
H6 C5 1_555 1_555
C6 C5 1_555 1_555
H7 C6 1_555 1_555
C7 N7 1_555 1_555
C8 C7 1_555 1_555
H8 C8 1_555 1_555
H9 C8 1_555 1_555
H10 C8 1_555 1_555
Co2 N8 1_555 1_555
N8 N9 1_555 1_555
N9 C11 1_555 1_555
C9 N8 1_555 1_555
H11 C9 1_555 1_555
C10 C9 1_555 1_555
H12 C10 1_555 1_555
C11 C10 1_555 1_555
C12 C11 1_555 1_555
H13 C12 1_555 1_555
H14 C12 1_555 1_555
H15 C12 1_555 1_555
N10 Co2 1_555 1_555
N11 N10 1_555 1_555
C13 N10 1_555 1_555
H16 C13 1_555 1_555
C14 C13 1_555 1_555
H17 C14 1_555 1_555
C15 N11 1_555 1_555
C16 C15 1_555 1_555
H18 C16 1_555 1_555
H19 C16 1_555 1_555
H20 C16 1_555 1_555
Cl1 O1 1_555 1_555
O2 Cl1 1_555 1_555
O3 Cl1 1_555 1_555
O4 Cl1 1_555 1_555
N1B Co1 1_555 1_555
N2B N1B 1_555 1_555
N3B N2B 1_555 1_555
N4B Co1 1_555 1_555
N5B N4B 1_555 1_555
C1B N4B 1_555 1_555
H1B C1B 1_555 1_555
C2B C1B 1_555 1_555
H2B C2B 1_555 1_555
C3B N5B 1_555 1_555
C4B C3B 1_555 1_555
H3B C4B 1_555 1_555
H4B C4B 1_555 1_555
H5B C4B 1_555 1_555
N6B Co1 1_555 1_555
N7B N6B 1_555 1_555
C5B N6B 1_555 1_555
H6B C5B 1_555 1_555
C6B C5B 1_555 1_555
H7B C6B 1_555 1_555
C7B N7B 1_555 1_555
C8B C7B 1_555 1_555
H8B C8B 1_555 1_555
H9B C8B 1_555 1_555
H10B C8B 1_555 1_555
N8B Co2 1_555 1_555
N9B N8B 1_555 1_555
C9B N8B 1_555 1_555
H11B C9B 1_555 1_555
C10B C9B 1_555 1_555
H12B C10B 1_555 1_555
C11B N9B 1_555 1_555
C12B C11B 1_555 1_555
H13B C12B 1_555 1_555
H14B C12B 1_555 1_555
H15B C12B 1_555 1_555
N10B Co2 1_555 1_555
N11B N10B 1_555 1_555
C13B N10B 1_555 1_555
H16B C13B 1_555 1_555
C14B C13B 1_555 1_555
H17B C14B 1_555 1_555
C15B N11B 1_555 1_555
C16B C15B 1_555 1_555
H18B C16B 1_555 1_555
H19B C16B 1_555 1_555
H20B C16B 1_555 1_555
N3B_2 Co2 1_555 1_555
Co2_2 N3B 1_555 1_555
C2 C3 1_555 1_555
C6 C7 1_555 1_555
C14 C15 1_555 1_555
C2B C3B 1_555 1_555
C6B C7B 1_555 1_555
C10B C11B 1_555 1_555
C14B C15B 1_555 1_555

#END
