
#######################################################################
#
#                 Cambridge Crystallographic Data Centre
#                                CCDC 
#
#######################################################################
#
# If this CIF has been generated from an entry in the Cambridge 
# Structural Database, then it will include bibliographic, chemical, 
# crystal, experimental, refinement or atomic coordinate data resulting 
# from the CCDC's data processing and validation procedures.
#
#######################################################################

data_ICUMEA
_symmetry_cell_setting           monoclinic
_symmetry_space_group_name_H-M   'P 21/c'
_symmetry_Int_Tables_number      14
_space_group_name_Hall           '-P 2ybc'
loop_
_symmetry_equiv_pos_site_id
_symmetry_equiv_pos_as_xyz
1 x,y,z
2 -x,1/2+y,1/2-z
3 -x,-y,-z
4 x,1/2-y,1/2+z
_cell_length_a                   18.2890(4)
_cell_length_b                   22.5321(4)
_cell_length_c                   18.5374(4)
_cell_angle_alpha                90
_cell_angle_beta                 97.5710(10)
_cell_angle_gamma                90
_cell_volume                     7572.47
loop_
_atom_site_label
_atom_site_type_symbol
_atom_site_fract_x
_atom_site_fract_y
_atom_site_fract_z
Ce1 Ce 0.0134(1) 0.5052(1) 0.2546(1)
S1 S -0.1285(2) 0.4054(1) 0.3131(2)
S2 S -0.0938(2) 0.5678(1) 0.5767(2)
S3 S 0.1417(2) 0.3959(1) 0.1905(2)
S4 S 0.0799(2) 0.5372(1) -0.0695(2)
O1 O -0.0532(5) 0.4278(3) 0.3114(5)
O2 O -0.1038(4) 0.5432(3) 0.6498(4)
O3 O 0.0652(5) 0.4208(3) 0.1857(5)
O4 O 0.0772(4) 0.5220(3) -0.1489(4)
O5 O -0.0034(5) 0.5535(4) 0.3818(5)
O6 O 0.0753(6) 0.5947(4) 0.3291(5)
O7 O 0.0575(6) 0.6269(4) 0.4331(5)
O8 O -0.0545(5) 0.6023(3) 0.2081(5)
O9 O -0.1219(5) 0.5483(4) 0.2615(5)
O10 O -0.1694(4) 0.6234(3) 0.2017(5)
O11 O 0.0644(4) 0.5530(4) 0.1438(5)
O12 O 0.1463(4) 0.5296(4) 0.2288(5)
O13 O 0.1772(5) 0.5753(4) 0.1371(5)
N1 N 0.0417(6) 0.5932(4) 0.3824(5)
N2 N -0.1182(6) 0.5919(4) 0.2229(5)
N3 N 0.1299(6) 0.5542(4) 0.1679(6)
C1 C -0.1221(7) 0.3262(5) 0.3067(6)
C2 C -0.0593(7) 0.2970(5) 0.3009(6)
C3 C -0.0595(9) 0.2370(6) 0.2937(7)
C4 C -0.1214(11) 0.2049(6) 0.2887(8)
C5 C -0.1877(10) 0.2329(7) 0.2944(7)
C6 C -0.1886(8) 0.2946(7) 0.3041(7)
C7 C -0.1462(7) 0.4101(5) 0.4059(6)
C8 C -0.1461(8) 0.4732(5) 0.4315(7)
C9 C -0.1828(7) 0.4843(5) 0.4968(6)
C10 C -0.1785(7) 0.5493(5) 0.5190(7)
C11 C -0.1075(6) 0.6475(5) 0.5820(6)
C12 C -0.1456(7) 0.6702(5) 0.6353(7)
C13 C -0.1507(7) 0.7311(6) 0.6391(6)
C14 C -0.1189(8) 0.7670(5) 0.5915(7)
C15 C -0.0821(8) 0.7420(5) 0.5365(8)
C16 C -0.0756(8) 0.6809(5) 0.5351(6)
C17 C 0.1292(7) 0.3189(5) 0.1681(5)
C18 C 0.0610(7) 0.2941(5) 0.1572(6)
C19 C 0.0539(8) 0.2344(6) 0.1497(7)
C20 C 0.1141(9) 0.1980(6) 0.1523(6)
C21 C 0.1812(10) 0.2220(6) 0.1641(6)
C22 C 0.1915(7) 0.2831(6) 0.1718(6)
C23 C 0.1806(6) 0.4217(5) 0.1113(6)
C24 C 0.1281(7) 0.4159(5) 0.0380(6)
C25 C 0.1617(8) 0.4401(5) -0.0342(6)
C26 C 0.1668(7) 0.5081(4) -0.0291(7)
C27 C 0.1036(6) 0.6148(4) -0.0591(6)
C28 C 0.0851(7) 0.6460(5) -0.0025(6)
C29 C 0.1003(8) 0.7046(6) 0.0045(7)
C30 C 0.1323(7) 0.7341(5) -0.0499(9)
C31 C 0.1495(7) 0.7032(6) -0.1071(8)
C32 C 0.1376(7) 0.6413(5) -0.1151(6)
Ce1B Ce -0.0134(1) 0.4948(1) 0.7454(1)
Ce1B_2 Ce -0.0134(1) 0.4948(1) -0.2546(1)
O2B O 0.1038(4) 0.4568(3) 0.3502(4)
O4B O -0.0772(4) 0.4780(3) 0.1489(4)
loop_
_geom_bond_atom_site_label_1
_geom_bond_atom_site_label_2
_geom_bond_site_symmetry_1
_geom_bond_site_symmetry_2
Ce1 O1 1_555 1_555
S1 O1 1_555 1_555
S2 O2 1_555 1_555
S3 O3 1_555 1_555
S4 O4 1_555 1_555
O2 Ce1B 1_555 1_555
O3 Ce1 1_555 1_555
O4 Ce1B_2 1_555 1_555
O5 Ce1 1_555 1_555
O6 Ce1 1_555 1_555
O7 N1 1_555 1_555
O8 Ce1 1_555 1_555
O9 Ce1 1_555 1_555
O10 N2 1_555 1_555
O11 Ce1 1_555 1_555
O12 Ce1 1_555 1_555
O13 N3 1_555 1_555
N1 O5 1_555 1_555
N2 O8 1_555 1_555
N3 O11 1_555 1_555
C1 S1 1_555 1_555
C2 C1 1_555 1_555
C3 C2 1_555 1_555
C4 C3 1_555 1_555
C5 C4 1_555 1_555
C6 C1 1_555 1_555
C7 S1 1_555 1_555
C8 C7 1_555 1_555
C9 C8 1_555 1_555
C10 S2 1_555 1_555
C11 S2 1_555 1_555
C12 C11 1_555 1_555
C13 C12 1_555 1_555
C14 C13 1_555 1_555
C15 C14 1_555 1_555
C16 C11 1_555 1_555
C17 S3 1_555 1_555
C18 C17 1_555 1_555
C19 C18 1_555 1_555
C20 C19 1_555 1_555
C21 C20 1_555 1_555
C22 C17 1_555 1_555
C23 S3 1_555 1_555
C24 C23 1_555 1_555
C25 C24 1_555 1_555
C26 S4 1_555 1_555
C27 S4 1_555 1_555
C28 C27 1_555 1_555
C29 C28 1_555 1_555
C30 C29 1_555 1_555
C31 C30 1_555 1_555
C32 C27 1_555 1_555
O2B Ce1 1_555 1_555
O4B Ce1 1_555 1_555
O6 N1 1_555 1_555
O9 N2 1_555 1_555
O12 N3 1_555 1_555
C5 C6 1_555 1_555
C9 C10 1_555 1_555
C15 C16 1_555 1_555
C21 C22 1_555 1_555
C25 C26 1_555 1_555
C31 C32 1_555 1_555

#END
