
#######################################################################
#
#                 Cambridge Crystallographic Data Centre
#                                CCDC 
#
#######################################################################
#
# If this CIF has been generated from an entry in the Cambridge 
# Structural Database, then it will include bibliographic, chemical, 
# crystal, experimental, refinement or atomic coordinate data resulting 
# from the CCDC's data processing and validation procedures.
#
#######################################################################

data_ICUNEA
_symmetry_cell_setting           monoclinic
_symmetry_space_group_name_H-M   'P 21/c'
_symmetry_Int_Tables_number      14
_space_group_name_Hall           '-P 2ybc'
loop_
_symmetry_equiv_pos_site_id
_symmetry_equiv_pos_as_xyz
1 x,y,z
2 -x,1/2+y,1/2-z
3 -x,-y,-z
4 x,1/2-y,1/2+z
_cell_length_a                   11.389(2)
_cell_length_b                   7.1010(14)
_cell_length_c                   15.687(3)
_cell_angle_alpha                90
_cell_angle_beta                 116.33(3)
_cell_angle_gamma                90
_cell_volume                     1137.04
loop_
_atom_site_label
_atom_site_type_symbol
_atom_site_fract_x
_atom_site_fract_y
_atom_site_fract_z
Co1 Co 0.0000 1.0000 0.0000
Co2 Co 0.5000 1.0000 0.5000
O1 O 0.31171(13) 0.9614(2) 0.38800(10)
O2 O 0.19573(14) 1.00579(17) 0.46967(10)
O3 O -0.38226(14) 0.99529(17) 0.14439(10)
O4 O -0.28426(13) 1.1321(2) 0.28592(9)
O5 O 0.17316(15) 1.1677(3) 0.06586(12)
O6 O 0.10828(16) 0.7607(2) 0.04727(12)
O7 O 0.54966(17) 1.0895(2) 0.39375(12)
O8 O 0.56080(16) 0.7281(2) 0.48902(12)
N1 N -0.01934(18) 1.0106(2) 0.13136(13)
C1 C 0.0882(2) 1.0024(2) 0.21516(15)
H1 H 0.1696 0.9976 0.2149
C2 C 0.0838(2) 1.0006(2) 0.30184(18)
C3 C -0.0379(2) 1.0129(2) 0.30215(14)
H2 H -0.0441 1.0130 0.3593
C4 C -0.15051(19) 1.0251(3) 0.21607(14)
C5 C -0.13654(19) 1.0204(3) 0.13261(15)
H3 H -0.2116 1.0242 0.0749
C6 C 0.2074(2) 0.9886(2) 0.39431(14)
C7 C -0.28280(18) 1.0525(3) 0.21559(13)
H4 H 0.252(3) 1.118(4) 0.102(2)
H5 H 0.184(3) 1.250(5) 0.045(2)
H6 H 0.113(3) 0.697(4) 0.0123(19)
H7 H 0.155(3) 0.734(4) 0.100(2)
H8 H 0.514(3) 1.051(5) 0.343(2)
H9 H 0.626(3) 1.044(4) 0.399(2)
H10 H 0.505(3) 0.672(4) 0.446(2)
H11 H 0.592(3) 0.685(4) 0.546(2)
Co2_2 Co -0.5000 1.0000 -0.5000
O1B O -0.31171(13) 1.0386(2) -0.38800(10)
O1B_2 O 0.68829(13) 1.0386(2) 0.61200(10)
O2B O -0.19573(14) 0.99421(17) -0.46967(10)
O3B O 0.38226(14) 1.00471(17) -0.14439(10)
O4B O 0.28426(13) 0.8679(2) -0.28592(9)
O5B O -0.17316(15) 0.8323(3) -0.06586(12)
O6B O -0.10828(16) 1.2393(2) -0.04727(12)
O7B O 0.45034(17) 0.9105(2) 0.60625(12)
O8B O 0.43920(16) 1.2719(2) 0.51098(12)
N1B N 0.01934(18) 0.9894(2) -0.13136(13)
C1B C -0.0882(2) 0.9976(2) -0.21516(15)
H1B H -0.1696 1.0024 -0.2149
C2B C -0.0838(2) 0.9994(2) -0.30184(18)
C3B C 0.0379(2) 0.9871(2) -0.30215(14)
H2B H 0.0441 0.9870 -0.3593
C4B C 0.15051(19) 0.9749(3) -0.21607(14)
C5B C 0.13654(19) 0.9796(3) -0.13261(15)
H3B H 0.2116 0.9758 -0.0749
C6B C -0.2074(2) 1.0114(2) -0.39431(14)
C7B C 0.28280(18) 0.9475(3) -0.21559(13)
H4B H -0.252(3) 0.882(4) -0.102(2)
H5B H -0.184(3) 0.750(5) -0.045(2)
H6B H -0.113(3) 1.303(4) -0.0123(19)
H7B H -0.155(3) 1.266(4) -0.100(2)
H8B H 0.486(3) 0.949(5) 0.657(2)
H9B H 0.374(3) 0.956(4) 0.601(2)
H10B H 0.495(3) 1.328(4) 0.554(2)
H11B H 0.408(3) 1.315(4) 0.454(2)
O9 O 0.4061(2) 0.9808(3) 0.19933(17)
H12 H 0.461(4) 0.968(5) 0.178(3)
H13 H 0.387(3) 0.876(5) 0.204(2)
loop_
_geom_bond_atom_site_label_1
_geom_bond_atom_site_label_2
_geom_bond_site_symmetry_1
_geom_bond_site_symmetry_2
Co1 O5 1_555 1_555
Co2 O1 1_555 1_555
O1 C6 1_555 1_555
O2 C6 1_555 1_555
O3 C7 1_555 1_555
O4 C7 1_555 1_555
O5 H4 1_555 1_555
O6 Co1 1_555 1_555
O7 Co2 1_555 1_555
O8 Co2 1_555 1_555
O9 H12 1_555 1_555
N1 Co1 1_555 1_555
C1 N1 1_555 1_555
H1 C1 1_555 1_555
C2 C1 1_555 1_555
C3 C2 1_555 1_555
H2 C3 1_555 1_555
C4 C3 1_555 1_555
C5 N1 1_555 1_555
H3 C5 1_555 1_555
C6 C2 1_555 1_555
C7 C4 1_555 1_555
H5 O5 1_555 1_555
H6 O6 1_555 1_555
H7 O6 1_555 1_555
H8 O7 1_555 1_555
H9 O7 1_555 1_555
H10 O8 1_555 1_555
H11 O8 1_555 1_555
H13 O9 1_555 1_555
Co2_2 O1B 1_555 1_555
O1B C6B 1_555 1_555
O1B_2 Co2 1_555 1_555
O2B C6B 1_555 1_555
O3B C7B 1_555 1_555
O4B C7B 1_555 1_555
O5B Co1 1_555 1_555
O6B Co1 1_555 1_555
O7B Co2 1_555 1_555
O8B Co2 1_555 1_555
N1B Co1 1_555 1_555
C1B N1B 1_555 1_555
H1B C1B 1_555 1_555
C2B C1B 1_555 1_555
C3B C2B 1_555 1_555
H2B C3B 1_555 1_555
C4B C3B 1_555 1_555
C5B N1B 1_555 1_555
H3B C5B 1_555 1_555
C6B C2B 1_555 1_555
C7B C4B 1_555 1_555
H4B O5B 1_555 1_555
H5B O5B 1_555 1_555
H6B O6B 1_555 1_555
H7B O6B 1_555 1_555
H8B O7B 1_555 1_555
H9B O7B 1_555 1_555
H10B O8B 1_555 1_555
H11B O8B 1_555 1_555
C4 C5 1_555 1_555
C4B C5B 1_555 1_555

#END
