
#######################################################################
#
#                 Cambridge Crystallographic Data Centre
#                                CCDC 
#
#######################################################################
#
# If this CIF has been generated from an entry in the Cambridge 
# Structural Database, then it will include bibliographic, chemical, 
# crystal, experimental, refinement or atomic coordinate data resulting 
# from the CCDC's data processing and validation procedures.
#
#######################################################################

data_ICUNUQ
_symmetry_cell_setting           triclinic
_symmetry_space_group_name_H-M   'P -1'
_symmetry_Int_Tables_number      2
_space_group_name_Hall           '-P 1'
loop_
_symmetry_equiv_pos_site_id
_symmetry_equiv_pos_as_xyz
1 x,y,z
2 -x,-y,-z
_cell_length_a                   11.4060(2)
_cell_length_b                   11.99910(10)
_cell_length_c                   16.5355(4)
_cell_angle_alpha                92.0110(10)
_cell_angle_beta                 106.7560(10)
_cell_angle_gamma                105.93
_cell_volume                     2067.68
loop_
_atom_site_label
_atom_site_type_symbol
_atom_site_fract_x
_atom_site_fract_y
_atom_site_fract_z
Y1 Y 0.91722(4) 0.12729(4) 0.46556(3)
Y2 Y 1.15491(4) 0.49562(4) 0.10911(3)
O1 O 1.1088(3) 0.1045(3) 0.46994(18)
O2 O 0.9954(3) 0.1349(3) 0.61250(18)
O3 O 1.2493(3) 0.0040(3) 0.49716(18)
O4 O 1.1232(3) 0.0207(3) 0.64588(18)
O5 O 0.9149(3) 0.2344(3) 0.34698(18)
O6 O 0.7263(3) 0.1301(3) 0.35324(18)
O7 O 0.9529(3) 0.3768(3) 0.0760(2)
O8 O 1.1213(3) 0.4068(3) 0.97679(19)
O9 O 0.7795(3) 0.3483(3) -0.0360(2)
O10 O 0.9602(3) 0.3863(3) 0.8574(2)
O11 O 1.1939(3) 0.3096(3) 0.1396(2)
O12 O 1.1761(3) 0.4163(3) 0.24417(19)
N1 N 1.0817(4) 0.3314(3) 0.5376(2)
N2 N 0.8291(4) 0.2738(3) 0.5224(2)
C1 C 1.2073(5) 0.3575(5) 0.5486(3)
H1 H 1.2349 0.3078 0.5190
C2 C 1.2989(6) 0.4528(5) 0.6005(4)
H2 H 1.3855 0.4654 0.6071
C3 C 1.2588(6) 0.5286(5) 0.6421(4)
H3 H 1.3176 0.5952 0.6764
C4 C 1.1297(6) 0.5047(5) 0.6322(3)
H4 H 1.1007 0.5542 0.6609
C5 C 1.0435(5) 0.4063(4) 0.5795(3)
C6 C 0.9037(5) 0.3776(4) 0.5671(3)
C7 C 0.7208(6) 0.4238(6) 0.5844(3)
H5 H 0.6844 0.4742 0.6055
C8 C 0.6452(6) 0.3188(5) 0.5385(3)
H6 H 0.5566 0.2972 0.5268
C9 C 0.7029(5) 0.2458(5) 0.5100(3)
H7 H 0.6515 0.1731 0.4805
C10 C 0.8521(6) 0.4546(5) 0.5993(3)
H8 H 0.9049 0.5258 0.6304
N3 N 1.3281(4) 0.6654(4) 0.2147(2)
N4 N 1.3883(4) 0.5100(4) 0.1258(3)
C11 C 1.2966(6) 0.7444(5) 0.2551(3)
H9 H 1.2105 0.7310 0.2506
C12 C 1.3827(8) 0.8447(6) 0.3032(4)
H10 H 1.3548 0.8965 0.3306
C13 C 1.5072(9) 0.8675(7) 0.3105(5)
H11 H 1.5670 0.9354 0.3423
C14 C 1.5448(7) 0.7876(7) 0.2694(5)
H12 H 1.6307 0.8008 0.2737
C15 C 1.4525(5) 0.6868(5) 0.2214(3)
C16 C 1.4861(5) 0.5992(6) 0.1745(4)
C17 C 1.6125(6) 0.6077(8) 0.1801(5)
H13 H 1.6798 0.6706 0.2128
C18 C 1.6353(8) 0.5205(10) 0.1360(6)
H14 H 1.7192 0.5238 0.1400
C19 C 1.5361(8) 0.4290(8) 0.0862(5)
H15 H 1.5509 0.3704 0.0558
C20 C 1.4129(6) 0.4275(6) 0.0832(4)
H16 H 1.3444 0.3661 0.0499
C21 C 1.0682(4) 0.0899(4) 0.6653(3)
C22 C 1.0896(4) 0.1239(4) 0.7583(3)
C23 C 1.1420(6) 0.0580(5) 0.8174(3)
H17 H 1.1644 -0.0053 0.7994
C24 C 1.1616(7) 0.0859(6) 0.9041(3)
H18 H 1.1947 0.0402 0.9436
C25 C 1.1312(6) 0.1823(5) 0.9306(3)
H19 H 1.1462 0.2024 0.9883
C26 C 1.0789(5) 0.2488(4) 0.8722(3)
C27 C 1.0558(4) 0.2174(4) 0.7858(3)
H20 H 1.0171 0.2598 0.7460
C28 C 1.0506(5) 0.3540(4) 0.9044(3)
C29 C 0.7956(4) 0.1847(4) 0.3114(3)
C30 C 0.7369(4) 0.1880(4) 0.2183(3)
C31 C 0.6124(4) 0.1205(4) 0.1753(3)
H21 H 0.5627 0.0764 0.2054
C32 C 0.5613(5) 0.1179(5) 0.0885(3)
H22 H 0.4782 0.0712 0.0603
C33 C 0.6341(4) 0.1849(5) 0.0435(3)
H23 H 0.5991 0.1836 -0.0149
C34 C 0.7584(4) 0.2537(4) 0.0845(3)
C35 C 0.8100(4) 0.2536(4) 0.1725(3)
H24 H 0.8942 0.2979 0.2005
C36 C 0.8370(5) 0.3312(4) 0.0380(3)
C37 C 1.2038(4) 0.3302(4) 0.2166(3)
C38 C 1.2602(4) 0.2551(4) 0.2787(3)
C39 C 1.3705(5) 0.2320(5) 0.2724(3)
H25 H 1.4046 0.2604 0.2299
C40 C 1.4298(5) 0.1673(5) 0.3288(3)
H26 H 1.5057 0.1554 0.3258
C41 C 1.3765(4) 0.1206(4) 0.3893(3)
H27 H 1.4160 0.0758 0.4264
C42 C 1.2639(4) 0.1395(4) 0.3960(3)
C43 C 1.2087(4) 0.2105(4) 0.3412(3)
H28 H 1.1366 0.2279 0.3469
C44 C 1.2045(4) 0.0785(4) 0.4587(3)
Y1A Y 1.08278(4) -0.12729(4) 0.53444(3)
Y2_2 Y 1.15491(4) 0.49562(4) 1.10911(3)
Y2A Y 0.84509(4) 0.50438(4) -0.10911(3)
Y2A_2 Y 0.84509(4) 0.50438(4) 0.89089(3)
O3A O 0.7507(3) -0.0040(3) 0.50284(18)
O4A O 0.8768(3) -0.0207(3) 0.35412(18)
O8_2 O 1.1213(3) 0.4068(3) -0.02321(19)
O9A O 1.2205(3) 0.6517(3) 0.0360(2)
O10A O 1.0398(3) 0.6137(3) 0.1426(2)
loop_
_geom_bond_atom_site_label_1
_geom_bond_atom_site_label_2
_geom_bond_site_symmetry_1
_geom_bond_site_symmetry_2
Y1 O1 1_555 1_555
Y2 O7 1_555 1_555
O1 C44 1_555 1_555
O2 Y1 1_555 1_555
O3 C44 1_555 1_555
O4 C21 1_555 1_555
O5 Y1 1_555 1_555
O6 Y1 1_555 1_555
O7 C36 1_555 1_555
O8 C28 1_555 1_555
O9 C36 1_555 1_555
O10 C28 1_555 1_555
O11 Y2 1_555 1_555
O12 Y2 1_555 1_555
N1 Y1 1_555 1_555
N2 Y1 1_555 1_555
C1 N1 1_555 1_555
H1 C1 1_555 1_555
C2 C1 1_555 1_555
H2 C2 1_555 1_555
C3 C2 1_555 1_555
H3 C3 1_555 1_555
C4 C3 1_555 1_555
H4 C4 1_555 1_555
C5 N1 1_555 1_555
C6 N2 1_555 1_555
C7 H5 1_555 1_555
C8 C7 1_555 1_555
H6 C8 1_555 1_555
C9 N2 1_555 1_555
H7 C9 1_555 1_555
C10 C6 1_555 1_555
H8 C10 1_555 1_555
N3 Y2 1_555 1_555
N4 Y2 1_555 1_555
C11 N3 1_555 1_555
H9 C11 1_555 1_555
C12 C11 1_555 1_555
H10 C12 1_555 1_555
C13 C12 1_555 1_555
H11 C13 1_555 1_555
C14 C13 1_555 1_555
H12 C14 1_555 1_555
C15 N3 1_555 1_555
C16 N4 1_555 1_555
C17 C16 1_555 1_555
H13 C17 1_555 1_555
C18 C17 1_555 1_555
H14 C18 1_555 1_555
C19 C18 1_555 1_555
H15 C19 1_555 1_555
C20 N4 1_555 1_555
H16 C20 1_555 1_555
C21 O2 1_555 1_555
C22 C21 1_555 1_555
C23 C22 1_555 1_555
H17 C23 1_555 1_555
C24 C23 1_555 1_555
H18 C24 1_555 1_555
C25 C24 1_555 1_555
H19 C25 1_555 1_555
C26 C25 1_555 1_555
C27 C22 1_555 1_555
H20 C27 1_555 1_555
C28 C26 1_555 1_555
C29 O5 1_555 1_555
C30 C29 1_555 1_555
C31 C30 1_555 1_555
H21 C31 1_555 1_555
C32 C31 1_555 1_555
H22 C32 1_555 1_555
C33 C32 1_555 1_555
H23 C33 1_555 1_555
C34 C33 1_555 1_555
C35 C30 1_555 1_555
H24 C35 1_555 1_555
C36 C34 1_555 1_555
C37 O11 1_555 1_555
C38 C37 1_555 1_555
C39 C38 1_555 1_555
H25 C39 1_555 1_555
C40 C39 1_555 1_555
H26 C40 1_555 1_555
C41 C40 1_555 1_555
H27 C41 1_555 1_555
C42 C41 1_555 1_555
C43 C38 1_555 1_555
H28 C43 1_555 1_555
C44 C42 1_555 1_555
Y1A O3 1_555 1_555
Y2_2 O8 1_555 1_555
Y2A O9 1_555 1_555
Y2A_2 O10 1_555 1_555
O3A Y1 1_555 1_555
O4A Y1 1_555 1_555
O8_2 Y2 1_555 1_555
O9A Y2 1_555 1_555
O10A Y2 1_555 1_555
O4 Y1A 1_555 1_555
O6 C29 1_555 1_555
O12 C37 1_555 1_555
C4 C5 1_555 1_555
C5 C6 1_555 1_555
C7 C10 1_555 1_555
C8 C9 1_555 1_555
C14 C15 1_555 1_555
C15 C16 1_555 1_555
C19 C20 1_555 1_555
C26 C27 1_555 1_555
C34 C35 1_555 1_555
C42 C43 1_555 1_555

#END
