
#######################################################################
#
#                 Cambridge Crystallographic Data Centre
#                                CCDC 
#
#######################################################################
#
# If this CIF has been generated from an entry in the Cambridge 
# Structural Database, then it will include bibliographic, chemical, 
# crystal, experimental, refinement or atomic coordinate data resulting 
# from the CCDC's data processing and validation procedures.
#
#######################################################################

data_ICUNIE
_symmetry_cell_setting           monoclinic
_symmetry_space_group_name_H-M   'P 21/n'
_symmetry_Int_Tables_number      14
_space_group_name_Hall           '-P 2yn'
loop_
_symmetry_equiv_pos_site_id
_symmetry_equiv_pos_as_xyz
1 x,y,z
2 1/2-x,1/2+y,1/2-z
3 -x,-y,-z
4 1/2+x,1/2-y,1/2+z
_cell_length_a                   8.7642(16)
_cell_length_b                   19.750(3)
_cell_length_c                   11.4116(16)
_cell_angle_alpha                90
_cell_angle_beta                 100.492(2)
_cell_angle_gamma                90
_cell_volume                     1942.24
loop_
_atom_site_label
_atom_site_type_symbol
_atom_site_fract_x
_atom_site_fract_y
_atom_site_fract_z
Cu1 Cu 0.29720(5) 1.11301(2) 0.79739(4)
N1 N 0.4326(4) 1.14405(17) 0.9878(3)
O1 O 0.6033(4) 1.33641(15) 1.0988(3)
O2 O 0.7264(3) 1.29319(14) 1.2697(3)
O3 O 0.6242(3) 0.97944(14) 1.1716(2)
O4 O 0.7485(4) 1.03991(15) 1.3258(3)
C1 C 0.4833(5) 1.20598(19) 1.0252(4)
H2 H 0.4466 1.2431 0.9783
C2 C 0.5876(5) 1.21717(19) 1.1304(4)
C3 C 0.6448(5) 1.1618(2) 1.1994(3)
H3 H 0.7152 1.1679 1.2701
C4 C 0.5960(5) 1.09739(19) 1.1619(3)
C5 C 0.4865(5) 1.09124(19) 1.0579(3)
H4 H 0.4485 1.0483 1.0354
C6 C 0.6410(5) 1.2881(2) 1.1664(4)
C7 C 0.6633(5) 1.03443(19) 1.2274(3)
N2 N 0.0976(3) 1.09032(14) 0.8515(3)
C8 C -0.0018(4) 1.04221(16) 0.7899(3)
H5 H 0.0250 1.0200 0.7247
C9 C -0.1413(4) 1.02725(19) 0.8258(4)
H6 H -0.2078 0.9951 0.7847
C10 C -0.1814(4) 1.0604(2) 0.9233(4)
H7 H -0.2747 1.0504 0.9474
C11 C -0.0820(5) 1.1085(2) 0.9849(3)
H8 H -0.1088 1.1307 1.0501
C12 C 0.0575(4) 1.12346(17) 0.9490(3)
H9 H 0.1240 1.1557 0.9902
N3 N 0.4675(4) 1.13174(15) 0.7052(3)
C13 C 0.4973(6) 1.08444(18) 0.6220(4)
H10 H 0.4380 1.0452 0.6089
C14 C 0.6160(8) 1.0958(3) 0.5584(6)
H11 H 0.6359 1.0641 0.5028
C15 C 0.7047(7) 1.1544(3) 0.5780(6)
H12 H 0.7841 1.1620 0.5354
C16 C 0.6748(5) 1.2017(2) 0.6611(5)
H13 H 0.7342 1.2409 0.6742
C17 C 0.5562(5) 1.19037(16) 0.7247(3)
H14 H 0.5362 1.2220 0.7803
Cu1C Cu 0.79720(5) 1.38699(2) 1.29739(4)
Cu1B Cu 0.70280(5) 0.88699(2) 1.20261(4)
O1C O 0.1033(4) 1.16359(15) 0.5988(3)
O2C O 0.2264(3) 1.20681(14) 0.7697(3)
O3B O 0.3758(3) 1.02056(14) 0.8284(2)
O5 O 0.7530(10) 0.8655(4) 0.7465(7)
H1 H 0.8421 0.8652 0.7339
C18 C 0.6214(19) 0.7898(8) 0.5943(16)
H15 H 0.5486 0.7872 0.5206
H16 H 0.5821 0.7648 0.6546
H17 H 0.7188 0.7708 0.5836
C19 C 0.6468(17) 0.8698(10) 0.6357(13)
H18 H 0.6906 0.8958 0.5777
H19 H 0.5497 0.8904 0.6461
O6 O 0.9998(6) 0.8667(3) 0.6402(4)
H20 H 0.929(16) 0.920(8) 0.593(12)
H21 H 1.03(5) 0.866(19) 0.55(3)
loop_
_geom_bond_atom_site_label_1
_geom_bond_atom_site_label_2
_geom_bond_site_symmetry_1
_geom_bond_site_symmetry_2
Cu1 N1 1_555 1_555
N1 C1 1_555 1_555
O1 C6 1_555 1_555
O2 C6 1_555 1_555
O3 C7 1_555 1_555
O4 C7 1_555 1_555
O5 H1 1_555 1_555
O6 H20 1_555 1_555
C1 H2 1_555 1_555
C2 C1 1_555 1_555
C3 C2 1_555 1_555
H3 C3 1_555 1_555
C4 C3 1_555 1_555
C5 N1 1_555 1_555
H4 C5 1_555 1_555
C6 C2 1_555 1_555
C7 C4 1_555 1_555
N2 Cu1 1_555 1_555
C8 N2 1_555 1_555
H5 C8 1_555 1_555
C9 C8 1_555 1_555
H6 C9 1_555 1_555
C10 C9 1_555 1_555
H7 C10 1_555 1_555
C11 C10 1_555 1_555
H8 C11 1_555 1_555
C12 N2 1_555 1_555
H9 C12 1_555 1_555
N3 Cu1 1_555 1_555
C13 N3 1_555 1_555
H10 C13 1_555 1_555
C14 C13 1_555 1_555
H11 C14 1_555 1_555
C15 C14 1_555 1_555
H12 C15 1_555 1_555
C16 C15 1_555 1_555
H13 C16 1_555 1_555
C17 N3 1_555 1_555
H14 C17 1_555 1_555
C18 H15 1_555 1_555
H16 C18 1_555 1_555
H17 C18 1_555 1_555
C19 O5 1_555 1_555
H18 C19 1_555 1_555
H19 C19 1_555 1_555
H21 O6 1_555 1_555
Cu1C O1 1_555 1_555
Cu1B O3 1_555 1_555
O1C Cu1 1_555 1_555
O2C Cu1 1_555 1_555
O3B Cu1 1_555 1_555
O2 Cu1C 1_555 1_555
C4 C5 1_555 1_555
C11 C12 1_555 1_555
C16 C17 1_555 1_555
C18 C19 1_555 1_555

#END
