
#######################################################################
#
#                 Cambridge Crystallographic Data Centre
#                                CCDC 
#
#######################################################################
#
# If this CIF has been generated from an entry in the Cambridge 
# Structural Database, then it will include bibliographic, chemical, 
# crystal, experimental, refinement or atomic coordinate data resulting 
# from the CCDC's data processing and validation procedures.
#
#######################################################################

data_ICUPEC
_symmetry_cell_setting           triclinic
_symmetry_space_group_name_H-M   'P -1'
_symmetry_Int_Tables_number      2
_space_group_name_Hall           '-P 1'
loop_
_symmetry_equiv_pos_site_id
_symmetry_equiv_pos_as_xyz
1 x,y,z
2 -x,-y,-z
_cell_length_a                   11.3878(2)
_cell_length_b                   11.98940(10)
_cell_length_c                   16.5173(3)
_cell_angle_alpha                91.9420(10)
_cell_angle_beta                 106.8140(10)
_cell_angle_gamma                105.9680(10)
_cell_volume                     2059.62
loop_
_atom_site_label
_atom_site_type_symbol
_atom_site_fract_x
_atom_site_fract_y
_atom_site_fract_z
Dy1 Dy 0.91788(2) 0.12717(2) 0.465888(15)
Dy2 Dy 1.15465(2) 0.49551(2) 0.109400(15)
O1 O 1.1107(4) 0.1023(4) 0.4708(2)
O2 O 0.9954(4) 0.1348(3) 0.6140(2)
O3 O 1.2514(4) 0.0029(3) 0.4973(2)
O4 O 1.1225(4) 0.0197(3) 0.6475(2)
O5 O 0.9144(4) 0.2349(3) 0.3465(2)
O6 O 0.7262(4) 0.1300(3) 0.3526(2)
O7 O 0.9505(4) 0.3757(4) 0.0745(3)
O8 O 1.1215(4) 0.4055(4) 0.9771(3)
O9 O 0.7764(5) 0.3470(4) -0.0367(3)
O10 O 0.9606(4) 0.3851(4) 0.8576(3)
O11 O 1.1923(4) 0.3084(4) 0.1405(3)
O12 O 1.1740(4) 0.4139(4) 0.2443(2)
N1 N 1.0829(5) 0.3318(4) 0.5379(3)
N2 N 0.8308(5) 0.2748(4) 0.5225(3)
C1 C 1.2084(7) 0.3567(6) 0.5499(5)
H1 H 1.2358(7) 0.3057(6) 0.5213(5)
C2 C 1.3011(8) 0.4526(7) 0.6016(5)
H2 H 1.3878(8) 0.4648(7) 0.6081(5)
C3 C 1.2611(8) 0.5291(7) 0.6429(5)
H3 H 1.3200(8) 0.5958(7) 0.6772(5)
C4 C 1.1330(8) 0.5053(6) 0.6326(5)
H4 H 1.1043(8) 0.5557(6) 0.6608(5)
C5 C 1.0450(6) 0.4063(5) 0.5802(4)
C6 C 0.9052(6) 0.3780(5) 0.5671(4)
C7 C 0.7237(8) 0.4248(7) 0.5847(5)
H5 H 0.6878(8) 0.4753(7) 0.6061(5)
C8 C 0.6458(7) 0.3196(7) 0.5380(4)
H6 H 0.5572(7) 0.2984(7) 0.5267(4)
C9 C 0.7034(6) 0.2468(6) 0.5086(4)
H7 H 0.6517(6) 0.1750(6) 0.4777(4)
C10 C 0.8541(7) 0.4557(6) 0.5997(4)
H8 H 0.9072(7) 0.5268(6) 0.6310(4)
N3 N 1.3290(5) 0.6655(5) 0.2156(3)
N4 N 1.3880(5) 0.5092(6) 0.1266(4)
C11 C 1.2969(9) 0.7438(6) 0.2563(4)
H9 H 1.2108(9) 0.7291(6) 0.2527(4)
C12 C 1.3832(13) 0.8455(8) 0.3037(6)
H10 H 1.3555(13) 0.8983(8) 0.3304(6)
C13 C 1.5110(13) 0.8675(9) 0.3108(7)
H11 H 1.5719(13) 0.9344(9) 0.3436(7)
C14 C 1.5463(9) 0.7887(9) 0.2686(7)
H12 H 1.6321(9) 0.8023(9) 0.2717(7)
C15 C 1.4537(7) 0.6873(7) 0.2206(5)
C16 C 1.4867(7) 0.6004(8) 0.1742(5)
C17 C 1.6136(9) 0.6095(12) 0.1795(8)
H13 H 1.6807(9) 0.6731(12) 0.2117(8)
C18 C 1.6378(10) 0.5212(14) 0.1355(9)
H14 H 1.7217(10) 0.5242(14) 0.1393(9)
C19 C 1.5382(10) 0.4310(10) 0.0871(7)
H15 H 1.5529(10) 0.3726(10) 0.0565(7)
C20 C 1.4123(8) 0.4268(8) 0.0839(6)
H16 H 1.3441(8) 0.3645(8) 0.0510(6)
C21 C 1.0676(6) 0.0892(5) 0.6666(3)
C22 C 1.0884(6) 0.1214(5) 0.7591(4)
C23 C 1.1409(8) 0.0569(7) 0.8193(4)
H17 H 1.1642(8) -0.0063(7) 0.8019(4)
C24 C 1.1594(10) 0.0844(8) 0.9044(4)
H18 H 1.1913(10) 0.0377(8) 0.9437(4)
C25 C 1.1310(8) 0.1807(7) 0.9318(4)
H19 H 1.1472(8) 0.2007(7) 0.9897(4)
C26 C 1.0786(6) 0.2478(5) 0.8737(4)
C27 C 1.0550(6) 0.2154(5) 0.7869(4)
H20 H 1.0162(6) 0.2578(5) 0.7470(4)
C28 C 1.0505(6) 0.3529(5) 0.9047(4)
C29 C 0.7939(5) 0.1838(5) 0.3115(4)
C30 C 0.7370(5) 0.1874(5) 0.2170(3)
C31 C 0.6118(6) 0.1192(6) 0.1753(4)
H21 H 0.5627(6) 0.0749(6) 0.2057(4)
C32 C 0.5602(6) 0.1173(6) 0.0881(4)
H22 H 0.4766(6) 0.0711(6) 0.0601(4)
C33 C 0.6318(6) 0.1833(6) 0.0431(4)
H23 H 0.5966(6) 0.1812(6) -0.0154(4)
C34 C 0.7561(5) 0.2529(5) 0.0842(4)
C35 C 0.8089(5) 0.2536(5) 0.1717(3)
H24 H 0.8929(5) 0.2989(5) 0.1995(3)
C36 C 0.8334(6) 0.3303(5) 0.0371(4)
C37 C 1.2028(5) 0.3284(5) 0.2169(4)
C38 C 1.2586(5) 0.2528(5) 0.2787(4)
C39 C 1.3697(6) 0.2293(6) 0.2720(4)
H25 H 1.4032(6) 0.2569(6) 0.2289(4)
C40 C 1.4294(6) 0.1657(6) 0.3289(4)
H26 H 1.5059(6) 0.1544(6) 0.3263(4)
C41 C 1.3768(6) 0.1192(6) 0.3889(4)
H27 H 1.4163(6) 0.0739(6) 0.4257(4)
C42 C 1.2650(5) 0.1383(5) 0.3963(3)
C43 C 1.2074(5) 0.2087(5) 0.3415(3)
H28 H 1.1352(5) 0.2256(5) 0.3474(3)
C44 C 1.2069(5) 0.0785(5) 0.4593(3)
Dy1A Dy 1.08212(2) -0.12717(2) 0.534112(15)
Dy2_2 Dy 1.15465(2) 0.49551(2) 1.109400(15)
Dy2A Dy 0.84535(2) 0.50449(2) -0.109400(15)
Dy2A_2 Dy 0.84535(2) 0.50449(2) 0.890600(15)
O3A O 0.7486(4) -0.0029(3) 0.5027(2)
O4A O 0.8775(4) -0.0197(3) 0.3525(2)
O8_2 O 1.1215(4) 0.4055(4) -0.0229(3)
O9A O 1.2236(5) 0.6530(4) 0.0367(3)
O10A O 1.0394(4) 0.6149(4) 0.1424(3)
loop_
_geom_bond_atom_site_label_1
_geom_bond_atom_site_label_2
_geom_bond_site_symmetry_1
_geom_bond_site_symmetry_2
Dy1 O1 1_555 1_555
Dy2 O7 1_555 1_555
O1 C44 1_555 1_555
O2 Dy1 1_555 1_555
O3 C44 1_555 1_555
O4 C21 1_555 1_555
O5 Dy1 1_555 1_555
O6 Dy1 1_555 1_555
O7 C36 1_555 1_555
O8 C28 1_555 1_555
O9 C36 1_555 1_555
O10 C28 1_555 1_555
O11 Dy2 1_555 1_555
O12 Dy2 1_555 1_555
N1 Dy1 1_555 1_555
N2 Dy1 1_555 1_555
C1 N1 1_555 1_555
H1 C1 1_555 1_555
C2 C1 1_555 1_555
H2 C2 1_555 1_555
C3 C2 1_555 1_555
H3 C3 1_555 1_555
C4 C3 1_555 1_555
H4 C4 1_555 1_555
C5 N1 1_555 1_555
C6 N2 1_555 1_555
C7 H5 1_555 1_555
C8 C7 1_555 1_555
H6 C8 1_555 1_555
C9 N2 1_555 1_555
H7 C9 1_555 1_555
C10 C6 1_555 1_555
H8 C10 1_555 1_555
N3 Dy2 1_555 1_555
N4 Dy2 1_555 1_555
C11 N3 1_555 1_555
H9 C11 1_555 1_555
C12 C11 1_555 1_555
H10 C12 1_555 1_555
C13 C12 1_555 1_555
H11 C13 1_555 1_555
C14 C13 1_555 1_555
H12 C14 1_555 1_555
C15 N3 1_555 1_555
C16 N4 1_555 1_555
C17 C16 1_555 1_555
H13 C17 1_555 1_555
C18 C17 1_555 1_555
H14 C18 1_555 1_555
C19 C18 1_555 1_555
H15 C19 1_555 1_555
C20 N4 1_555 1_555
H16 C20 1_555 1_555
C21 O2 1_555 1_555
C22 C21 1_555 1_555
C23 C22 1_555 1_555
H17 C23 1_555 1_555
C24 C23 1_555 1_555
H18 C24 1_555 1_555
C25 C24 1_555 1_555
H19 C25 1_555 1_555
C26 C25 1_555 1_555
C27 C22 1_555 1_555
H20 C27 1_555 1_555
C28 C26 1_555 1_555
C29 O5 1_555 1_555
C30 C29 1_555 1_555
C31 C30 1_555 1_555
H21 C31 1_555 1_555
C32 C31 1_555 1_555
H22 C32 1_555 1_555
C33 C32 1_555 1_555
H23 C33 1_555 1_555
C34 C33 1_555 1_555
C35 C30 1_555 1_555
H24 C35 1_555 1_555
C36 C34 1_555 1_555
C37 O11 1_555 1_555
C38 C37 1_555 1_555
C39 C38 1_555 1_555
H25 C39 1_555 1_555
C40 C39 1_555 1_555
H26 C40 1_555 1_555
C41 C40 1_555 1_555
H27 C41 1_555 1_555
C42 C41 1_555 1_555
C43 C38 1_555 1_555
H28 C43 1_555 1_555
C44 C42 1_555 1_555
Dy1A O3 1_555 1_555
Dy2_2 O8 1_555 1_555
Dy2A O9 1_555 1_555
Dy2A_2 O10 1_555 1_555
O3A Dy1 1_555 1_555
O4A Dy1 1_555 1_555
O8_2 Dy2 1_555 1_555
O9A Dy2 1_555 1_555
O10A Dy2 1_555 1_555
O4 Dy1A 1_555 1_555
O6 C29 1_555 1_555
O12 C37 1_555 1_555
C4 C5 1_555 1_555
C5 C6 1_555 1_555
C7 C10 1_555 1_555
C8 C9 1_555 1_555
C14 C15 1_555 1_555
C15 C16 1_555 1_555
C19 C20 1_555 1_555
C26 C27 1_555 1_555
C34 C35 1_555 1_555
C42 C43 1_555 1_555

#END
