
#######################################################################
#
#                 Cambridge Crystallographic Data Centre
#                                CCDC 
#
#######################################################################
#
# If this CIF has been generated from an entry in the Cambridge 
# Structural Database, then it will include bibliographic, chemical, 
# crystal, experimental, refinement or atomic coordinate data resulting 
# from the CCDC's data processing and validation procedures.
#
#######################################################################

data_ICUPOM
_symmetry_cell_setting           monoclinic
_symmetry_space_group_name_H-M   'C 2/c'
_symmetry_Int_Tables_number      15
_space_group_name_Hall           '-C 2yn'
loop_
_symmetry_equiv_pos_site_id
_symmetry_equiv_pos_as_xyz
1 x,y,z
2 1/2+x,1/2+y,z
3 -x,y,1/2-z
4 1/2-x,1/2+y,1/2-z
5 -x,-y,-z
6 1/2-x,1/2-y,-z
7 x,-y,1/2+z
8 1/2+x,1/2-y,1/2+z
_cell_length_a                   17.6083(10)
_cell_length_b                   13.0496(8)
_cell_length_c                   18.8475(11)
_cell_angle_alpha                90
_cell_angle_beta                 112.0740(10)
_cell_angle_gamma                90
_cell_volume                     4013.35
loop_
_atom_site_label
_atom_site_type_symbol
_atom_site_fract_x
_atom_site_fract_y
_atom_site_fract_z
Gd1 Gd 0.017690(10) -0.138460(13) 0.067840(9)
O1 O 0.0117(2) 0.0165(2) 0.12800(14)
O2 O -0.02943(15) -0.2262(2) 0.15303(14)
O3 O -0.12502(14) -0.0983(2) 0.01952(15)
O4 O 0.01306(14) 0.1615(2) 0.06479(13)
O5 O -0.11574(15) 0.0345(2) -0.04938(14)
O6 O -0.0616(2) -0.3062(2) 0.0432(2)
N1 N 0.1382(2) -0.1612(2) 0.1987(2)
N2 N 0.1333(2) -0.2658(2) 0.0758(2)
C1 C 0.1349(2) -0.1187(3) 0.2621(2)
H1 H 0.0870(2) -0.0850(3) 0.2583(2)
C2 C 0.1977(3) -0.1216(3) 0.3323(2)
H2 H 0.1925(3) -0.0911(3) 0.3748(2)
C3 C 0.2688(3) -0.1713(4) 0.3380(3)
H3 H 0.3131(3) -0.1739(4) 0.3845(3)
C4 C 0.2733(2) -0.2168(3) 0.2742(2)
H4 H 0.3207(2) -0.2512(3) 0.2773(2)
C5 C 0.2069(2) -0.2114(3) 0.2049(2)
C6 C 0.2059(2) -0.2644(3) 0.1353(2)
C7 C 0.2733(3) -0.3130(4) 0.1305(3)
H5 H 0.3235(3) -0.3095(4) 0.1714(3)
C8 C 0.2672(3) -0.3657(4) 0.0667(3)
H6 H 0.3129(3) -0.3983(4) 0.0637(3)
C9 C 0.1939(4) -0.3706(4) 0.0071(3)
H7 H 0.1880(4) -0.4073(4) -0.0369(3)
C10 C 0.1284(3) -0.3196(4) 0.0138(3)
H8 H 0.0781(3) -0.3226(4) -0.0270(3)
C11 C 0.0111(2) 0.1123(3) 0.1220(2)
C12 C 0.0058(2) 0.1737(3) 0.1876(2)
C13 C 0.0083(2) 0.2798(3) 0.1894(2)
H9 H 0.0156(2) 0.3160(3) 0.1499(2)
C14 C 0.0000 0.3319(4) 0.2500
H10 H 0.0000 0.4032(4) 0.2500
C15 C 0.0000 0.1210(4) 0.2500
H11 H 0.0000 0.0497(4) 0.2500
C16 C -0.1541(2) -0.0402(3) -0.0371(2)
C17 C -0.2383(2) -0.0620(3) -0.0937(2)
C18 C -0.2591(2) -0.0335(3) -0.1689(2)
H12 H -0.2227(2) 0.0056(3) -0.1828(2)
C19 C -0.3333(2) -0.0624(3) -0.2242(2)
H13 H -0.3467(2) -0.0432(3) -0.2750(2)
C20 C -0.3874(2) -0.1198(3) -0.2032(2)
H14 H -0.4362(2) -0.1423(3) -0.2405(2)
C21 C -0.3697(2) -0.1444(3) -0.1270(2)
C22 C -0.2946(2) -0.1168(3) -0.0727(2)
H15 H -0.2814(2) -0.1349(3) -0.0217(2)
C23 C -0.0703(2) -0.2928(3) 0.1060(2)
Gd1D Gd -0.017690(10) 0.138460(13) -0.067840(9)
Gd1E Gd -0.517690(10) -0.361540(13) -0.067840(9)
Gd1B Gd -0.017690(10) -0.138460(13) 0.432160(9)
Gd1F Gd 0.017690(10) 0.138460(13) 0.567840(9)
Gd1A Gd -0.482310(10) -0.638460(13) 0.067840(9)
O1B O -0.0117(2) 0.0165(2) 0.37200(14)
O1E O -0.5117(2) -0.5165(2) -0.12800(14)
O2E O -0.47057(15) -0.2738(2) -0.15303(14)
O3E O -0.37498(14) -0.4017(2) -0.01952(15)
O4D O -0.01306(14) -0.1615(2) -0.06479(13)
O4B O -0.01306(14) 0.1615(2) 0.43521(13)
O4A O -0.48694(14) -0.3385(2) 0.06479(13)
O5D O 0.11574(15) -0.0345(2) 0.04938(14)
O5A O -0.61574(15) -0.4655(2) -0.04938(14)
O5E O -0.38426(15) -0.5345(2) 0.04938(14)
O6E O -0.4384(2) -0.1938(2) -0.0432(2)
N1E N -0.6382(2) -0.3388(2) -0.1987(2)
N2E N -0.6333(2) -0.2342(2) -0.0758(2)
C1E C -0.6349(2) -0.3813(3) -0.2621(2)
H1E H -0.5870(2) -0.4150(3) -0.2583(2)
C2E C -0.6977(3) -0.3784(3) -0.3323(2)
H2E H -0.6925(3) -0.4089(3) -0.3748(2)
C3E C -0.7688(3) -0.3287(4) -0.3380(3)
H3E H -0.8131(3) -0.3261(4) -0.3845(3)
C4E C -0.7733(2) -0.2832(3) -0.2742(2)
H4E H -0.8207(2) -0.2488(3) -0.2773(2)
C5E C -0.7069(2) -0.2886(3) -0.2049(2)
C6E C -0.7059(2) -0.2356(3) -0.1353(2)
C7E C -0.7733(3) -0.1870(4) -0.1305(3)
H5E H -0.8235(3) -0.1905(4) -0.1714(3)
C8E C -0.7672(3) -0.1343(4) -0.0667(3)
H6E H -0.8129(3) -0.1017(4) -0.0637(3)
C9E C -0.6939(4) -0.1294(4) -0.0071(3)
H7E H -0.6880(4) -0.0927(4) 0.0369(3)
C10E C -0.6284(3) -0.1804(4) -0.0138(3)
H8E H -0.5781(3) -0.1774(4) 0.0270(3)
C11B C -0.0111(2) 0.1123(3) 0.3780(2)
C12B C -0.0058(2) 0.1737(3) 0.3124(2)
C13B C -0.0083(2) 0.2798(3) 0.3106(2)
H9B H -0.0156(2) 0.3160(3) 0.3501(2)
C16E C -0.3459(2) -0.4598(3) 0.0371(2)
C17E C -0.2617(2) -0.4380(3) 0.0937(2)
C18E C -0.2409(2) -0.4665(3) 0.1689(2)
H12E H -0.2773(2) -0.5056(3) 0.1828(2)
C19E C -0.1667(2) -0.4376(3) 0.2242(2)
H13E H -0.1533(2) -0.4568(3) 0.2750(2)
C20E C -0.1126(2) -0.3802(3) 0.2032(2)
H14E H -0.0638(2) -0.3577(3) 0.2405(2)
C21E C -0.1303(2) -0.3556(3) 0.1270(2)
C22E C -0.2054(2) -0.3832(3) 0.0727(2)
H15E H -0.2186(2) -0.3651(3) 0.0217(2)
C23E C -0.4297(2) -0.2072(3) -0.1060(2)
O7 O 0.0458(8) -0.5276(9) 0.0724(7)
H16 H 0.0579(76) -0.5727(77) 0.0386(58)
H17 H -0.0023(35) -0.5197(95) 0.0276(38)
loop_
_geom_bond_atom_site_label_1
_geom_bond_atom_site_label_2
_geom_bond_site_symmetry_1
_geom_bond_site_symmetry_2
Gd1 O1 1_555 1_555
O1 C11 1_555 1_555
O2 Gd1 1_555 1_555
O3 Gd1 1_555 1_555
O4 C11 1_555 1_555
O5 C16 1_555 1_555
O6 Gd1 1_555 1_555
N1 Gd1 1_555 1_555
N2 Gd1 1_555 1_555
C1 N1 1_555 1_555
H1 C1 1_555 1_555
C2 C1 1_555 1_555
H2 C2 1_555 1_555
C3 C2 1_555 1_555
H3 C3 1_555 1_555
C4 C3 1_555 1_555
H4 C4 1_555 1_555
C5 N1 1_555 1_555
C6 N2 1_555 1_555
C7 C6 1_555 1_555
H5 C7 1_555 1_555
C8 C7 1_555 1_555
H6 C8 1_555 1_555
C9 C8 1_555 1_555
H7 C9 1_555 1_555
C10 N2 1_555 1_555
H8 C10 1_555 1_555
C11 C12 1_555 1_555
C12 C13 1_555 1_555
C13 H9 1_555 1_555
C14 C13 1_555 1_555
H10 C14 1_555 1_555
C15 C12 1_555 1_555
H11 C15 1_555 1_555
C16 O3 1_555 1_555
C17 C16 1_555 1_555
C18 C17 1_555 1_555
H12 C18 1_555 1_555
C19 C18 1_555 1_555
H13 C19 1_555 1_555
C20 C19 1_555 1_555
H14 C20 1_555 1_555
C21 C20 1_555 1_555
C22 C17 1_555 1_555
H15 C22 1_555 1_555
C23 O2 1_555 1_555
O7 H16 1_555 1_555
H17 O7 1_555 1_555
Gd1D O4 1_555 1_555
Gd1E O1E 1_555 1_555
Gd1B O1B 1_555 1_555
Gd1F O4B 1_555 1_555
Gd1A O5E 1_555 1_555
O1B C11B 1_555 1_555
O2E Gd1E 1_555 1_555
O3E Gd1E 1_555 1_555
O4D Gd1 1_555 1_555
O4B C11B 1_555 1_555
O4A Gd1E 1_555 1_555
O5D Gd1 1_555 1_555
O5A Gd1E 1_555 1_555
O5E C16E 1_555 1_555
O6E Gd1E 1_555 1_555
N1E Gd1E 1_555 1_555
N2E Gd1E 1_555 1_555
C1E N1E 1_555 1_555
H1E C1E 1_555 1_555
C2E C1E 1_555 1_555
H2E C2E 1_555 1_555
C3E C2E 1_555 1_555
H3E C3E 1_555 1_555
C4E C3E 1_555 1_555
H4E C4E 1_555 1_555
C5E N1E 1_555 1_555
C6E N2E 1_555 1_555
C7E C6E 1_555 1_555
H5E C7E 1_555 1_555
C8E C7E 1_555 1_555
H6E C8E 1_555 1_555
C9E C8E 1_555 1_555
H7E C9E 1_555 1_555
C10E N2E 1_555 1_555
H8E C10E 1_555 1_555
C11B C12B 1_555 1_555
C12B C15 1_555 1_555
C13B C14 1_555 1_555
H9B C13B 1_555 1_555
C16E O3E 1_555 1_555
C17E C16E 1_555 1_555
C18E C17E 1_555 1_555
H12E C18E 1_555 1_555
C19E C18E 1_555 1_555
H13E C19E 1_555 1_555
C20E C19E 1_555 1_555
H14E C20E 1_555 1_555
C21E C23 1_555 1_555
C22E C17E 1_555 1_555
H15E C22E 1_555 1_555
C23E C21 1_555 1_555
O5 Gd1D 1_555 1_555
O6 C23 1_555 1_555
C4 C5 1_555 1_555
C5 C6 1_555 1_555
C9 C10 1_555 1_555
C21 C22 1_555 1_555
O2E C23E 1_555 1_555
O6E C23E 1_555 1_555
C4E C5E 1_555 1_555
C5E C6E 1_555 1_555
C9E C10E 1_555 1_555
C12B C13B 1_555 1_555
C20E C21E 1_555 1_555
C21E C22E 1_555 1_555

#END
