
#######################################################################
#
#                 Cambridge Crystallographic Data Centre
#                                CCDC 
#
#######################################################################
#
# If this CIF has been generated from an entry in the Cambridge 
# Structural Database, then it will include bibliographic, chemical, 
# crystal, experimental, refinement or atomic coordinate data resulting 
# from the CCDC's data processing and validation procedures.
#
#######################################################################

data_ICUPUS
_symmetry_cell_setting           monoclinic
_symmetry_space_group_name_H-M   'C 2/c'
_symmetry_Int_Tables_number      15
_space_group_name_Hall           '-C 2yn'
loop_
_symmetry_equiv_pos_site_id
_symmetry_equiv_pos_as_xyz
1 x,y,z
2 1/2+x,1/2+y,z
3 -x,y,1/2-z
4 1/2-x,1/2+y,1/2-z
5 -x,-y,-z
6 1/2-x,1/2-y,-z
7 x,-y,1/2+z
8 1/2+x,1/2-y,1/2+z
_cell_length_a                   17.5479(8)
_cell_length_b                   13.1130(6)
_cell_length_c                   18.7783(8)
_cell_angle_alpha                90
_cell_angle_beta                 112.1020(10)
_cell_angle_gamma                90
_cell_volume                     4003.47
loop_
_atom_site_label
_atom_site_type_symbol
_atom_site_fract_x
_atom_site_fract_y
_atom_site_fract_z
Dy1 Dy 0.018220(8) -0.138230(11) 0.068050(8)
O1 O 0.01211(15) 0.0151(2) 0.12742(13)
O2 O -0.03054(14) -0.2233(2) 0.15204(13)
O3 O -0.12284(14) -0.0966(2) 0.01856(14)
O4 O 0.01216(14) 0.1595(2) 0.06368(12)
O5 O -0.11736(14) 0.0379(2) -0.05111(14)
O6 O -0.06215(15) -0.3039(2) 0.04226(15)
N1 N 0.1373(2) -0.1600(2) 0.1984(2)
N2 N 0.1316(2) -0.2660(2) 0.0754(2)
C1 C 0.1340(2) -0.1179(3) 0.2617(2)
H1 H 0.0857(2) -0.0850(3) 0.2581(2)
C2 C 0.1978(3) -0.1203(3) 0.3322(2)
H2 H 0.1930(3) -0.0888(3) 0.3747(2)
C3 C 0.2695(3) -0.1708(4) 0.3383(3)
H3 H 0.3140(3) -0.1739(4) 0.3850(3)
C4 C 0.2731(2) -0.2163(3) 0.2738(2)
H4 H 0.3205(2) -0.2507(3) 0.2766(2)
C5 C 0.2065(2) -0.2112(3) 0.2042(2)
C6 C 0.2046(2) -0.2645(3) 0.1347(2)
C7 C 0.2726(3) -0.3137(4) 0.1293(3)
H5 H 0.3233(3) -0.3103(4) 0.1699(3)
C8 C 0.2650(4) -0.3666(4) 0.0650(4)
H6 H 0.3104(4) -0.4000(4) 0.0618(4)
C9 C 0.1917(4) -0.3711(4) 0.0054(3)
H7 H 0.1856(4) -0.4070(4) -0.0392(3)
C10 C 0.1257(3) -0.3201(3) 0.0130(3)
H8 H 0.0747(3) -0.3239(3) -0.0272(3)
C11 C 0.0107(2) 0.1105(3) 0.1211(2)
C12 C 0.0061(2) 0.1713(3) 0.1877(2)
C13 C 0.0082(2) 0.2779(3) 0.1891(2)
H9 H 0.0151(2) 0.3137(3) 0.1492(2)
C14 C 0.0000 0.3303(4) 0.2500
H10 H 0.0000 0.4012(4) 0.2500
C15 C 0.0000 0.1199(4) 0.2500
H11 H 0.0000 0.0490(4) 0.2500
C16 C -0.1537(2) -0.0388(3) -0.0380(2)
C17 C -0.2383(2) -0.0624(2) -0.0942(2)
C18 C -0.2601(2) -0.0340(3) -0.1703(2)
H12 H -0.2243(2) 0.0057(3) -0.1846(2)
C19 C -0.3342(2) -0.0636(3) -0.2250(2)
H13 H -0.3484(2) -0.0446(3) -0.2761(2)
C20 C -0.3877(2) -0.1224(3) -0.2032(2)
H14 H -0.4364(2) -0.1458(3) -0.2404(2)
C21 C -0.3692(2) -0.1465(2) -0.1266(2)
C22 C -0.2937(2) -0.1175(2) -0.0721(2)
H15 H -0.2800(2) -0.1350(2) -0.0208(2)
C23 C -0.0709(2) -0.2903(3) 0.1049(2)
Dy1D Dy -0.018220(8) 0.138230(11) -0.068050(8)
Dy1E Dy -0.518220(8) -0.361770(11) -0.068050(8)
Dy1B Dy -0.018220(8) -0.138230(11) 0.431950(8)
Dy1F Dy 0.018220(8) 0.138230(11) 0.568050(8)
Dy1A Dy -0.481780(8) -0.638230(11) 0.068050(8)
O1B O -0.01211(15) 0.0151(2) 0.37258(13)
O1E O -0.51211(15) -0.5151(2) -0.12742(13)
O2E O -0.46946(14) -0.2767(2) -0.15204(13)
O3E O -0.37716(14) -0.4034(2) -0.01856(14)
O4D O -0.01216(14) -0.1595(2) -0.06368(12)
O4B O -0.01216(14) 0.1595(2) 0.43632(12)
O4A O -0.48784(14) -0.3405(2) 0.06368(12)
O5D O 0.11736(14) -0.0379(2) 0.05111(14)
O5A O -0.61736(14) -0.4621(2) -0.05111(14)
O5E O -0.38264(14) -0.5379(2) 0.05111(14)
O6E O -0.43785(15) -0.1961(2) -0.04226(15)
N1E N -0.6373(2) -0.3400(2) -0.1984(2)
N2E N -0.6316(2) -0.2340(2) -0.0754(2)
C1E C -0.6340(2) -0.3821(3) -0.2617(2)
H1E H -0.5857(2) -0.4150(3) -0.2581(2)
C2E C -0.6978(3) -0.3797(3) -0.3322(2)
H2E H -0.6930(3) -0.4112(3) -0.3747(2)
C3E C -0.7695(3) -0.3292(4) -0.3383(3)
H3E H -0.8140(3) -0.3261(4) -0.3850(3)
C4E C -0.7731(2) -0.2837(3) -0.2738(2)
H4E H -0.8205(2) -0.2493(3) -0.2766(2)
C5E C -0.7065(2) -0.2888(3) -0.2042(2)
C6E C -0.7046(2) -0.2355(3) -0.1347(2)
C7E C -0.7726(3) -0.1863(4) -0.1293(3)
H5E H -0.8233(3) -0.1897(4) -0.1699(3)
C8E C -0.7650(4) -0.1334(4) -0.0650(4)
H6E H -0.8104(4) -0.1000(4) -0.0618(4)
C9E C -0.6917(4) -0.1289(4) -0.0054(3)
H7E H -0.6856(4) -0.0930(4) 0.0392(3)
C10E C -0.6257(3) -0.1799(3) -0.0130(3)
H8E H -0.5747(3) -0.1761(3) 0.0272(3)
C11B C -0.0107(2) 0.1105(3) 0.3789(2)
C12B C -0.0061(2) 0.1713(3) 0.3123(2)
C13B C -0.0082(2) 0.2779(3) 0.3109(2)
H9B H -0.0151(2) 0.3137(3) 0.3508(2)
C16E C -0.3463(2) -0.4612(3) 0.0380(2)
C17E C -0.2617(2) -0.4376(2) 0.0942(2)
C18E C -0.2399(2) -0.4660(3) 0.1703(2)
H12E H -0.2757(2) -0.5057(3) 0.1846(2)
C19E C -0.1658(2) -0.4364(3) 0.2250(2)
H13E H -0.1516(2) -0.4554(3) 0.2761(2)
C20E C -0.1123(2) -0.3776(3) 0.2032(2)
H14E H -0.0636(2) -0.3542(3) 0.2404(2)
C21E C -0.1308(2) -0.3535(2) 0.1266(2)
C22E C -0.2063(2) -0.3825(2) 0.0721(2)
H15E H -0.2200(2) -0.3650(2) 0.0208(2)
C23E C -0.4291(2) -0.2097(3) -0.1049(2)
O7 O 0.0481(8) -0.5333(9) 0.0721(7)
H16 H 0.0663(80) -0.4858(81) 0.0438(68)
H17 H -0.0033(30) -0.5295(80) 0.0304(40)
loop_
_geom_bond_atom_site_label_1
_geom_bond_atom_site_label_2
_geom_bond_site_symmetry_1
_geom_bond_site_symmetry_2
Dy1 O1 1_555 1_555
O1 C11 1_555 1_555
O2 Dy1 1_555 1_555
O3 Dy1 1_555 1_555
O4 C11 1_555 1_555
O5 C16 1_555 1_555
O6 Dy1 1_555 1_555
N1 Dy1 1_555 1_555
N2 Dy1 1_555 1_555
C1 N1 1_555 1_555
H1 C1 1_555 1_555
C2 C1 1_555 1_555
H2 C2 1_555 1_555
C3 C2 1_555 1_555
H3 C3 1_555 1_555
C4 C3 1_555 1_555
H4 C4 1_555 1_555
C5 N1 1_555 1_555
C6 N2 1_555 1_555
C7 C6 1_555 1_555
H5 C7 1_555 1_555
C8 C7 1_555 1_555
H6 C8 1_555 1_555
C9 C8 1_555 1_555
H7 C9 1_555 1_555
C10 N2 1_555 1_555
H8 C10 1_555 1_555
C11 C12 1_555 1_555
C12 C13 1_555 1_555
C13 H9 1_555 1_555
C14 C13 1_555 1_555
H10 C14 1_555 1_555
C15 C12 1_555 1_555
H11 C15 1_555 1_555
C16 O3 1_555 1_555
C17 C16 1_555 1_555
C18 C17 1_555 1_555
H12 C18 1_555 1_555
C19 C18 1_555 1_555
H13 C19 1_555 1_555
C20 C19 1_555 1_555
H14 C20 1_555 1_555
C21 C20 1_555 1_555
C22 C17 1_555 1_555
H15 C22 1_555 1_555
C23 O2 1_555 1_555
O7 H16 1_555 1_555
H17 O7 1_555 1_555
Dy1D O4 1_555 1_555
Dy1E O1E 1_555 1_555
Dy1B O1B 1_555 1_555
Dy1F O4B 1_555 1_555
Dy1A O5E 1_555 1_555
O1B C11B 1_555 1_555
O2E Dy1E 1_555 1_555
O3E Dy1E 1_555 1_555
O4D Dy1 1_555 1_555
O4B C11B 1_555 1_555
O4A Dy1E 1_555 1_555
O5D Dy1 1_555 1_555
O5A Dy1E 1_555 1_555
O5E C16E 1_555 1_555
O6E Dy1E 1_555 1_555
N1E Dy1E 1_555 1_555
N2E Dy1E 1_555 1_555
C1E N1E 1_555 1_555
H1E C1E 1_555 1_555
C2E C1E 1_555 1_555
H2E C2E 1_555 1_555
C3E C2E 1_555 1_555
H3E C3E 1_555 1_555
C4E C3E 1_555 1_555
H4E C4E 1_555 1_555
C5E N1E 1_555 1_555
C6E N2E 1_555 1_555
C7E C6E 1_555 1_555
H5E C7E 1_555 1_555
C8E C7E 1_555 1_555
H6E C8E 1_555 1_555
C9E C8E 1_555 1_555
H7E C9E 1_555 1_555
C10E N2E 1_555 1_555
H8E C10E 1_555 1_555
C11B C12B 1_555 1_555
C12B C15 1_555 1_555
C13B C14 1_555 1_555
H9B C13B 1_555 1_555
C16E O3E 1_555 1_555
C17E C16E 1_555 1_555
C18E C17E 1_555 1_555
H12E C18E 1_555 1_555
C19E C18E 1_555 1_555
H13E C19E 1_555 1_555
C20E C19E 1_555 1_555
H14E C20E 1_555 1_555
C21E C23 1_555 1_555
C22E C17E 1_555 1_555
H15E C22E 1_555 1_555
C23E C21 1_555 1_555
O5 Dy1D 1_555 1_555
O6 C23 1_555 1_555
C4 C5 1_555 1_555
C5 C6 1_555 1_555
C9 C10 1_555 1_555
C21 C22 1_555 1_555
O2E C23E 1_555 1_555
O6E C23E 1_555 1_555
C4E C5E 1_555 1_555
C5E C6E 1_555 1_555
C9E C10E 1_555 1_555
C12B C13B 1_555 1_555
C20E C21E 1_555 1_555
C21E C22E 1_555 1_555

#END
