
#######################################################################
#
#                 Cambridge Crystallographic Data Centre
#                                CCDC 
#
#######################################################################
#
# If this CIF has been generated from an entry in the Cambridge 
# Structural Database, then it will include bibliographic, chemical, 
# crystal, experimental, refinement or atomic coordinate data resulting 
# from the CCDC's data processing and validation procedures.
#
#######################################################################

data_ICUPIG
_symmetry_cell_setting           monoclinic
_symmetry_space_group_name_H-M   'C 2/c'
_symmetry_Int_Tables_number      15
_space_group_name_Hall           '-C 2yn'
loop_
_symmetry_equiv_pos_site_id
_symmetry_equiv_pos_as_xyz
1 x,y,z
2 1/2+x,1/2+y,z
3 -x,y,1/2-z
4 1/2-x,1/2+y,1/2-z
5 -x,-y,-z
6 1/2-x,1/2-y,-z
7 x,-y,1/2+z
8 1/2+x,1/2-y,1/2+z
_cell_length_a                   17.4993(3)
_cell_length_b                   13.129
_cell_length_c                   18.7591(3)
_cell_angle_alpha                90
_cell_angle_beta                 111.8950(10)
_cell_angle_gamma                90
_cell_volume                     3999
loop_
_atom_site_label
_atom_site_type_symbol
_atom_site_fract_x
_atom_site_fract_y
_atom_site_fract_z
Y1 Y 0.01816(2) -0.13808(2) 0.067990(15)
O1 O 0.01198(13) 0.0140(2) 0.12731(11)
O2 O -0.03120(13) -0.2220(2) 0.15155(11)
O3 O -0.12188(12) -0.0957(2) 0.01801(12)
O4 O 0.01151(12) 0.1582(2) 0.06295(11)
O5 O -0.11779(12) 0.0394(2) -0.05191(12)
O6 O -0.06214(13) -0.3028(2) 0.04165(13)
N1 N 0.13735(15) -0.1601(2) 0.19817(14)
N2 N 0.1304(2) -0.2657(2) 0.07486(15)
C1 C 0.1343(2) -0.1175(3) 0.2619(2)
H1 H 0.0862(2) -0.0841(3) 0.2584(2)
C2 C 0.1982(2) -0.1203(3) 0.3321(2)
H2 H 0.1933(2) -0.0892(3) 0.3748(2)
C3 C 0.2693(2) -0.1699(3) 0.3380(2)
H3 H 0.3139(2) -0.1726(3) 0.3846(2)
C4 C 0.2731(2) -0.2156(3) 0.2735(2)
H4 H 0.3207(2) -0.2499(3) 0.2763(2)
C5 C 0.2061(2) -0.2108(2) 0.2038(2)
C6 C 0.2044(2) -0.2647(2) 0.1341(2)
C7 C 0.2724(2) -0.3135(3) 0.1292(2)
H5 H 0.3229(2) -0.3101(3) 0.1701(2)
C8 C 0.2656(3) -0.3668(3) 0.0644(3)
H6 H 0.3112(3) -0.3995(3) 0.0608(3)
C9 C 0.1909(3) -0.3712(3) 0.0053(3)
H7 H 0.1843(3) -0.4078(3) -0.0391(3)
C10 C 0.1250(3) -0.3197(3) 0.0129(2)
H8 H 0.0742(3) -0.3232(3) -0.0275(2)
C11 C 0.0107(2) 0.1092(2) 0.1207(2)
C12 C 0.0067(2) 0.1702(2) 0.1878(2)
C13 C 0.0080(2) 0.2759(2) 0.1890(2)
H9 H 0.0144(2) 0.3115(2) 0.1487(2)
C14 C 0.0000 0.3290(3) 0.2500
H10 H 0.0000 0.3999(3) 0.2500
C15 C 0.0000 0.1183(3) 0.2500
H11 H 0.0000 0.0475(3) 0.2500
C16 C -0.1534(2) -0.0375(2) -0.0385(2)
C17 C -0.2384(2) -0.0621(2) -0.0942(2)
C18 C -0.2602(2) -0.0339(2) -0.1707(2)
H12 H -0.2242(2) 0.0052(2) -0.1853(2)
C19 C -0.3351(2) -0.0637(3) -0.2252(2)
H13 H -0.3499(2) -0.0437(3) -0.2761(2)
C20 C -0.3878(2) -0.1234(2) -0.2032(2)
H14 H -0.4362(2) -0.1478(2) -0.2403(2)
C21 C -0.3690(2) -0.1473(2) -0.1262(2)
C22 C -0.2934(2) -0.1182(2) -0.0720(2)
H15 H -0.2795(2) -0.1362(2) -0.0208(2)
C23 C -0.0713(2) -0.2898(2) 0.1044(2)
Y1D Y -0.01816(2) 0.13808(2) -0.067990(15)
Y1E Y -0.51816(2) -0.36192(2) -0.067990(15)
Y1B Y -0.01816(2) -0.13808(2) 0.432010(15)
Y1F Y 0.01816(2) 0.13808(2) 0.567990(15)
Y1A Y -0.48184(2) -0.63808(2) 0.067990(15)
O1B O -0.01198(13) 0.0140(2) 0.37269(11)
O1E O -0.51198(13) -0.5140(2) -0.12731(11)
O2E O -0.46880(13) -0.2780(2) -0.15155(11)
O3E O -0.37812(12) -0.4043(2) -0.01801(12)
O4D O -0.01151(12) -0.1582(2) -0.06295(11)
O4B O -0.01151(12) 0.1582(2) 0.43705(11)
O4A O -0.48849(12) -0.3418(2) 0.06295(11)
O5D O 0.11779(12) -0.0394(2) 0.05191(12)
O5A O -0.61779(12) -0.4606(2) -0.05191(12)
O5E O -0.38221(12) -0.5394(2) 0.05191(12)
O6E O -0.43786(13) -0.1972(2) -0.04165(13)
N1E N -0.63735(15) -0.3399(2) -0.19817(14)
N2E N -0.6304(2) -0.2343(2) -0.07486(15)
C1E C -0.6343(2) -0.3825(3) -0.2619(2)
H1E H -0.5862(2) -0.4159(3) -0.2584(2)
C2E C -0.6982(2) -0.3797(3) -0.3321(2)
H2E H -0.6933(2) -0.4108(3) -0.3748(2)
C3E C -0.7693(2) -0.3301(3) -0.3380(2)
H3E H -0.8139(2) -0.3274(3) -0.3846(2)
C4E C -0.7731(2) -0.2844(3) -0.2735(2)
H4E H -0.8207(2) -0.2501(3) -0.2763(2)
C5E C -0.7061(2) -0.2892(2) -0.2038(2)
C6E C -0.7044(2) -0.2353(2) -0.1341(2)
C7E C -0.7724(2) -0.1865(3) -0.1292(2)
H5E H -0.8229(2) -0.1899(3) -0.1701(2)
C8E C -0.7656(3) -0.1332(3) -0.0644(3)
H6E H -0.8112(3) -0.1005(3) -0.0608(3)
C9E C -0.6909(3) -0.1288(3) -0.0053(3)
H7E H -0.6843(3) -0.0922(3) 0.0391(3)
C10E C -0.6250(3) -0.1803(3) -0.0129(2)
H8E H -0.5742(3) -0.1768(3) 0.0275(2)
C11B C -0.0107(2) 0.1092(2) 0.3793(2)
C12B C -0.0067(2) 0.1702(2) 0.3122(2)
C13B C -0.0080(2) 0.2759(2) 0.3110(2)
H9B H -0.0144(2) 0.3115(2) 0.3513(2)
C16E C -0.3466(2) -0.4625(2) 0.0385(2)
C17E C -0.2616(2) -0.4379(2) 0.0942(2)
C18E C -0.2398(2) -0.4661(2) 0.1707(2)
H12E H -0.2758(2) -0.5052(2) 0.1853(2)
C19E C -0.1649(2) -0.4363(3) 0.2252(2)
H13E H -0.1501(2) -0.4563(3) 0.2761(2)
C20E C -0.1122(2) -0.3766(2) 0.2032(2)
H14E H -0.0638(2) -0.3522(2) 0.2403(2)
C21E C -0.1310(2) -0.3527(2) 0.1262(2)
C22E C -0.2066(2) -0.3818(2) 0.0720(2)
H15E H -0.2205(2) -0.3638(2) 0.0208(2)
C23E C -0.4287(2) -0.2102(2) -0.1044(2)
O7 O 0.0441(9) -0.5295(10) 0.0714(6)
H16 H 0.0764(80) -0.556(12) 0.0446(80)
H17 H 0.0082(74) -0.4844(77) 0.0345(51)
loop_
_geom_bond_atom_site_label_1
_geom_bond_atom_site_label_2
_geom_bond_site_symmetry_1
_geom_bond_site_symmetry_2
Y1 O1 1_555 1_555
O1 C11 1_555 1_555
O2 Y1 1_555 1_555
O3 Y1 1_555 1_555
O4 C11 1_555 1_555
O5 C16 1_555 1_555
O6 Y1 1_555 1_555
N1 Y1 1_555 1_555
N2 Y1 1_555 1_555
C1 N1 1_555 1_555
H1 C1 1_555 1_555
C2 C1 1_555 1_555
H2 C2 1_555 1_555
C3 C2 1_555 1_555
H3 C3 1_555 1_555
C4 C3 1_555 1_555
H4 C4 1_555 1_555
C5 N1 1_555 1_555
C6 N2 1_555 1_555
C7 C6 1_555 1_555
H5 C7 1_555 1_555
C8 C7 1_555 1_555
H6 C8 1_555 1_555
C9 C8 1_555 1_555
H7 C9 1_555 1_555
C10 N2 1_555 1_555
H8 C10 1_555 1_555
C11 C12 1_555 1_555
C12 C13 1_555 1_555
C13 H9 1_555 1_555
C14 C13 1_555 1_555
H10 C14 1_555 1_555
C15 C12 1_555 1_555
H11 C15 1_555 1_555
C16 O3 1_555 1_555
C17 C16 1_555 1_555
C18 C17 1_555 1_555
H12 C18 1_555 1_555
C19 C18 1_555 1_555
H13 C19 1_555 1_555
C20 C19 1_555 1_555
H14 C20 1_555 1_555
C21 C20 1_555 1_555
C22 C17 1_555 1_555
H15 C22 1_555 1_555
C23 O2 1_555 1_555
O7 H16 1_555 1_555
H17 O7 1_555 1_555
Y1D O4 1_555 1_555
Y1E O1E 1_555 1_555
Y1B O1B 1_555 1_555
Y1F O4B 1_555 1_555
Y1A O5E 1_555 1_555
O1B C11B 1_555 1_555
O2E Y1E 1_555 1_555
O3E Y1E 1_555 1_555
O4D Y1 1_555 1_555
O4B C11B 1_555 1_555
O4A Y1E 1_555 1_555
O5D Y1 1_555 1_555
O5A Y1E 1_555 1_555
O5E C16E 1_555 1_555
O6E Y1E 1_555 1_555
N1E Y1E 1_555 1_555
N2E Y1E 1_555 1_555
C1E N1E 1_555 1_555
H1E C1E 1_555 1_555
C2E C1E 1_555 1_555
H2E C2E 1_555 1_555
C3E C2E 1_555 1_555
H3E C3E 1_555 1_555
C4E C3E 1_555 1_555
H4E C4E 1_555 1_555
C5E N1E 1_555 1_555
C6E N2E 1_555 1_555
C7E C6E 1_555 1_555
H5E C7E 1_555 1_555
C8E C7E 1_555 1_555
H6E C8E 1_555 1_555
C9E C8E 1_555 1_555
H7E C9E 1_555 1_555
C10E N2E 1_555 1_555
H8E C10E 1_555 1_555
C11B C12B 1_555 1_555
C12B C15 1_555 1_555
C13B C14 1_555 1_555
H9B C13B 1_555 1_555
C16E O3E 1_555 1_555
C17E C16E 1_555 1_555
C18E C17E 1_555 1_555
H12E C18E 1_555 1_555
C19E C18E 1_555 1_555
H13E C19E 1_555 1_555
C20E C19E 1_555 1_555
H14E C20E 1_555 1_555
C21E C23 1_555 1_555
C22E C17E 1_555 1_555
H15E C22E 1_555 1_555
C23E C21 1_555 1_555
O5 Y1D 1_555 1_555
O6 C23 1_555 1_555
C4 C5 1_555 1_555
C5 C6 1_555 1_555
C9 C10 1_555 1_555
C21 C22 1_555 1_555
O2E C23E 1_555 1_555
O6E C23E 1_555 1_555
C4E C5E 1_555 1_555
C5E C6E 1_555 1_555
C9E C10E 1_555 1_555
C12B C13B 1_555 1_555
C20E C21E 1_555 1_555
C21E C22E 1_555 1_555

#END
