
#######################################################################
#
#                 Cambridge Crystallographic Data Centre
#                                CCDC 
#
#######################################################################
#
# If this CIF has been generated from an entry in the Cambridge 
# Structural Database, then it will include bibliographic, chemical, 
# crystal, experimental, refinement or atomic coordinate data resulting 
# from the CCDC's data processing and validation procedures.
#
#######################################################################

data_ICUYEK
_symmetry_cell_setting           orthorhombic
_symmetry_space_group_name_H-M   'P c a 21'
_symmetry_Int_Tables_number      29
_space_group_name_Hall           'P 2c -2ac'
loop_
_symmetry_equiv_pos_site_id
_symmetry_equiv_pos_as_xyz
1 x,y,z
2 -x,-y,1/2+z
3 1/2-x,y,1/2+z
4 1/2+x,-y,z
_cell_length_a                   14.045(2)
_cell_length_b                   12.342(2)
_cell_length_c                   17.259(3)
_cell_angle_alpha                90
_cell_angle_beta                 90
_cell_angle_gamma                90
_cell_volume                     2991.73
loop_
_atom_site_label
_atom_site_type_symbol
_atom_site_fract_x
_atom_site_fract_y
_atom_site_fract_z
Cu1 Cu 0.98280(6) 0.63129(7) 0.6779
O1 O 0.8988(4) 0.6331(5) 0.7689(4)
C1 C 0.8176(5) 0.5850(7) 0.7745(5)
C2 C 0.7578(10) 0.6303(9) 0.8419(7)
F1 F 0.8088(8) 0.6840(10) 0.8905(6)
F2 F 0.7120(7) 0.5594(7) 0.8796(5)
F3 F 0.6943(10) 0.6974(10) 0.8148(7)
C3 C 0.7864(5) 0.5000(6) 0.7304(5)
C4 C 0.6901(7) 0.4613(7) 0.7378(6)
N1 N 0.6112(6) 0.4400(7) 0.7429(6)
C5 C 0.8496(5) 0.4494(5) 0.6758(6)
N2 N 0.8276(6) 0.3478(6) 0.6448(5)
O2 O 0.7516(6) 0.2961(6) 0.6579(7)
C6 C 0.9094(9) 0.3032(10) 0.6040(9)
C7 C 0.988(2) 0.264(3) 0.6865(14)
H1 H 1.0415 0.2244 0.6673
H2 H 0.9525 0.2193 0.7219
H3 H 1.0092 0.3280 0.7128
C8 C 0.8970(15) 0.2107(10) 0.5591(11)
H4 H 0.8308 0.2024 0.5467
H5 H 0.9186 0.1485 0.5874
H6 H 0.9332 0.2174 0.5121
C9 C 0.9685(11) 0.3967(11) 0.5974(11)
C10 C 1.0712(9) 0.4007(9) 0.5813(8)
H7 H 1.1055 0.3713 0.6245
H8 H 1.0903 0.4745 0.5730
H9 H 1.0849 0.3588 0.5357
C11 C 0.9118(18) 0.434(2) 0.5091(8)
H10 H 0.9468 0.4049 0.4662
H11 H 0.9102 0.5119 0.5051
H12 H 0.8480 0.4065 0.5085
N3 N 0.9299(4) 0.4830(5) 0.6525(4)
O3 O 1.0390(5) 0.6419(5) 0.5747(4)
C12 C 1.0603(7) 0.7257(9) 0.5364(5)
C13 C 1.0736(13) 0.7018(13) 0.4493(8)
F4 F 1.0068(10) 0.7448(11) 0.4083(6)
F5 F 1.0858(14) 0.6060(10) 0.4353(6)
F6 F 1.1502(10) 0.7502(12) 0.4210(6)
C14 C 1.0688(7) 0.8297(8) 0.5660(6)
C15 C 1.0802(11) 0.9178(12) 0.5126(7)
N4 N 1.0826(15) 0.9910(13) 0.4716(7)
C16 C 1.0624(6) 0.8482(7) 0.6464(5)
N5 N 1.0952(6) 0.9442(6) 0.6800(6)
O4 O 1.1343(8) 1.0197(6) 0.6415(5)
C17 C 1.0996(7) 0.9369(8) 0.7657(6)
C18 C 1.1989(9) 0.8983(14) 0.7862(9)
H13 H 1.2448 0.9366 0.7553
H14 H 1.2039 0.8221 0.7761
H15 H 1.2110 0.9119 0.8400
C19 C 1.0753(14) 1.0439(10) 0.8028(9)
H16 H 1.1248 1.0954 0.7921
H17 H 1.0695 1.0345 0.8578
H18 H 1.0161 1.0701 0.7822
C20 C 1.0220(7) 0.8454(7) 0.7754(5)
C21 C 1.0418(9) 0.7787(9) 0.8457(6)
H19 H 0.9861 0.7376 0.8589
H20 H 1.0582 0.8254 0.8881
H21 H 1.0937 0.7303 0.8353
C22 C 0.9216(7) 0.8934(9) 0.7773(7)
H22 H 0.8757 0.8364 0.7711
H23 H 0.9147 0.9449 0.7360
H24 H 0.9114 0.9290 0.8261
N6 N 1.0301(4) 0.7840(5) 0.6996(4)
N7 N 0.8264(10) 0.7216(12) 0.6040(10)
C23 C 0.8093(9) 0.7880(12) 0.5666(8)
C24 C 0.7896(19) 0.8782(13) 0.5176(11)
H25 H 0.8032 0.9442 0.5449
H26 H 0.7237 0.8772 0.5028
H27 H 0.8288 0.8741 0.4721
N1C N 1.1112(6) 0.5600(7) 0.7429(6)
Cu1C Cu 0.48280(6) 0.36871(7) 0.6779
loop_
_geom_bond_atom_site_label_1
_geom_bond_atom_site_label_2
_geom_bond_site_symmetry_1
_geom_bond_site_symmetry_2
Cu1 O1 1_555 1_555
O1 C1 1_555 1_555
C1 C2 1_555 1_555
C2 F1 1_555 1_555
F2 C2 1_555 1_555
F3 C2 1_555 1_555
C3 C1 1_555 1_555
C4 C3 1_555 1_555
N1 C4 1_555 1_555
C5 C3 1_555 1_555
N2 C5 1_555 1_555
O2 N2 1_555 1_555
C6 N2 1_555 1_555
C7 C6 1_555 1_555
H1 C7 1_555 1_555
H2 C7 1_555 1_555
H3 C7 1_555 1_555
C8 C6 1_555 1_555
H4 C8 1_555 1_555
H5 C8 1_555 1_555
H6 C8 1_555 1_555
C9 C6 1_555 1_555
C10 C9 1_555 1_555
H7 C10 1_555 1_555
H8 C10 1_555 1_555
H9 C10 1_555 1_555
C11 C9 1_555 1_555
H10 C11 1_555 1_555
H11 C11 1_555 1_555
H12 C11 1_555 1_555
N3 Cu1 1_555 1_555
O3 Cu1 1_555 1_555
C12 O3 1_555 1_555
C13 C12 1_555 1_555
F4 C13 1_555 1_555
F5 C13 1_555 1_555
F6 C13 1_555 1_555
C14 C12 1_555 1_555
C15 C14 1_555 1_555
N4 C15 1_555 1_555
C16 C14 1_555 1_555
N5 C16 1_555 1_555
O4 N5 1_555 1_555
C17 N5 1_555 1_555
C18 C17 1_555 1_555
H13 C18 1_555 1_555
H14 C18 1_555 1_555
H15 C18 1_555 1_555
C19 C17 1_555 1_555
H16 C19 1_555 1_555
H17 C19 1_555 1_555
H18 C19 1_555 1_555
C20 C17 1_555 1_555
C21 C20 1_555 1_555
H19 C21 1_555 1_555
H20 C21 1_555 1_555
H21 C21 1_555 1_555
C22 C20 1_555 1_555
H22 C22 1_555 1_555
H23 C22 1_555 1_555
H24 C22 1_555 1_555
N6 Cu1 1_555 1_555
N7 Cu1 1_555 1_555
C23 N7 1_555 1_555
C24 C23 1_555 1_555
H25 C24 1_555 1_555
H26 C24 1_555 1_555
H27 C24 1_555 1_555
N1C Cu1 1_555 1_555
Cu1C N1 1_555 1_555
C5 N3 1_555 1_555
C9 N3 1_555 1_555
C16 N6 1_555 1_555
C20 N6 1_555 1_555

#END
