
#######################################################################
#
#                 Cambridge Crystallographic Data Centre
#                                CCDC 
#
#######################################################################
#
# If this CIF has been generated from an entry in the Cambridge 
# Structural Database, then it will include bibliographic, chemical, 
# crystal, experimental, refinement or atomic coordinate data resulting 
# from the CCDC's data processing and validation procedures.
#
#######################################################################

data_ICUYAG
_symmetry_cell_setting           monoclinic
_symmetry_space_group_name_H-M   'P 21/c'
_symmetry_Int_Tables_number      14
_space_group_name_Hall           '-P 2ybc'
loop_
_symmetry_equiv_pos_site_id
_symmetry_equiv_pos_as_xyz
1 x,y,z
2 x,1/2-y,1/2+z
3 -x,-y,-z
4 -x,1/2+y,1/2-z
_cell_length_a                   11.068(2)
_cell_length_b                   9.2030(18)
_cell_length_c                   14.177(3)
_cell_angle_alpha                90
_cell_angle_beta                 92.19(3)
_cell_angle_gamma                90
_cell_volume                     1443
loop_
_atom_site_label
_atom_site_type_symbol
_atom_site_fract_x
_atom_site_fract_y
_atom_site_fract_z
K1 K 0.45289(12) 0.11532(17) 0.11472(9)
O1 O 0.5698(3) 0.1530(5) -0.0487(3)
C1 C 0.5716(6) 0.2746(9) -0.0886(4)
C2 C 0.7033(8) 0.3221(13) -0.1074(7)
F1 F 0.7200(4) 0.3297(8) -0.1998(5)
F2 F 0.7245(4) 0.4558(7) -0.0870(6)
F3 F 0.7833(4) 0.2470(8) -0.0723(6)
C3 C 0.4757(6) 0.3544(8) -0.1178(4)
C4 C 0.4919(6) 0.4908(9) -0.1603(5)
N1 N 0.5038(6) 0.6068(7) -0.1928(5)
O2 O 0.2792(3) 0.4004(5) -0.2582(3)
N2 N 0.2649(4) 0.3319(5) -0.1807(3)
C5 C 0.3554(5) 0.3028(6) -0.1098(4)
C6 C 0.1434(5) 0.2876(8) -0.1467(4)
C7 C 0.0672(9) 0.2263(16) -0.2309(6)
H1 H 0.060(5) 0.299(8) -0.265(4)
H2 H 0.007(7) 0.165(8) -0.215(5)
H3 H 0.137(6) 0.118(8) -0.269(5)
C8 C 0.0868(10) 0.4266(15) -0.1102(7)
H4 H 0.141(4) 0.459(6) -0.060(4)
H5 H 0.022(6) 0.410(9) -0.105(5)
H6 H 0.090(6) 0.569(9) -0.141(5)
C9 C 0.1870(5) 0.1794(8) -0.0725(4)
C10 C 0.1986(9) 0.0244(13) -0.1095(7)
H7 H 0.249(5) 0.033(6) -0.185(5)
H8 H 0.126(5) -0.015(7) -0.119(4)
H9 H 0.244(6) -0.059(8) -0.079(5)
C11 C 0.1124(7) 0.1783(15) 0.0172(5)
H10 H 0.134(4) 0.084(5) 0.065(4)
H11 H 0.013(7) 0.171(6) 0.002(5)
H12 H 0.111(5) 0.291(8) 0.048(5)
N3 N 0.3140(4) 0.2222(5) -0.0443(3)
O1B O 0.4302(3) -0.1530(5) 0.0487(3)
N1B N 0.4962(6) 0.3932(7) 0.1928(5)
O2A O 0.2792(3) 0.0996(5) 0.2418(3)
K1B K 0.54711(12) -0.11532(17) -0.11472(9)
K1B_2 K 0.54711(12) 0.88468(17) -0.11472(9)
K1A K 0.45289(12) 0.38468(17) -0.38528(9)
loop_
_geom_bond_atom_site_label_1
_geom_bond_atom_site_label_2
_geom_bond_site_symmetry_1
_geom_bond_site_symmetry_2
K1 O1 1_555 1_555
O1 C1 1_555 1_555
C1 C2 1_555 1_555
C2 F1 1_555 1_555
F2 C2 1_555 1_555
F3 C2 1_555 1_555
C3 C1 1_555 1_555
C4 C3 1_555 1_555
N1 C4 1_555 1_555
O2 N2 1_555 1_555
N2 C5 1_555 1_555
C5 C3 1_555 1_555
C6 N2 1_555 1_555
C7 C6 1_555 1_555
H1 C7 1_555 1_555
H2 C7 1_555 1_555
H3 C7 1_555 1_555
C8 C6 1_555 1_555
H4 C8 1_555 1_555
H5 C8 1_555 1_555
H6 C8 1_555 1_555
C9 C6 1_555 1_555
C10 C9 1_555 1_555
H7 C10 1_555 1_555
H8 C10 1_555 1_555
H9 C10 1_555 1_555
C11 C9 1_555 1_555
H10 C11 1_555 1_555
H11 C11 1_555 1_555
H12 C11 1_555 1_555
N3 K1 1_555 1_555
O1B K1 1_555 1_555
N1B K1 1_555 1_555
O2A K1 1_555 1_555
K1B O1 1_555 1_555
K1B_2 N1 1_555 1_555
K1A O2 1_555 1_555
C5 N3 1_555 1_555
C9 N3 1_555 1_555
O1B K1B 1_555 1_555

#END
