
#######################################################################
#
#                 Cambridge Crystallographic Data Centre
#                                CCDC 
#
#######################################################################
#
# If this CIF has been generated from an entry in the Cambridge 
# Structural Database, then it will include bibliographic, chemical, 
# crystal, experimental, refinement or atomic coordinate data resulting 
# from the CCDC's data processing and validation procedures.
#
#######################################################################

data_ICUZEM
_symmetry_cell_setting           monoclinic
_symmetry_space_group_name_H-M   'C 2/c'
_symmetry_Int_Tables_number      15
_space_group_name_Hall           '-C 2yn'
loop_
_symmetry_equiv_pos_site_id
_symmetry_equiv_pos_as_xyz
1 x,y,z
2 1/2+x,1/2+y,z
3 -x,y,1/2-z
4 1/2-x,1/2+y,1/2-z
5 -x,-y,-z
6 1/2-x,1/2-y,-z
7 x,-y,1/2+z
8 1/2+x,1/2-y,1/2+z
_cell_length_a                   18.5474(1)
_cell_length_b                   6.9516(1)
_cell_length_c                   12.8662(1)
_cell_angle_alpha                90
_cell_angle_beta                 99.072(1)
_cell_angle_gamma                90
_cell_volume                     1638.14
loop_
_atom_site_label
_atom_site_type_symbol
_atom_site_fract_x
_atom_site_fract_y
_atom_site_fract_z
Cd1 Cd 0.0000 0.082886(19) 0.7500
N1 N 0.02411(8) 0.0857(2) 0.57617(11)
N2 N 0.0000 0.0000 0.5000
N3 N 0.0077(3) -0.2522(4) 0.7765(3)
N4 N 0.0000 -0.4158(2) 0.7500
N5 N 0.0033(9) -0.5782(3) 0.7349(8)
C1 C 0.16093(7) 0.0250(2) 0.89469(10)
H1 H 0.1335 -0.0404 0.9402
N6 N 0.12656(6) 0.09472(16) 0.80443(9)
C2 C 0.16869(8) 0.1889(2) 0.74180(11)
H2 H 0.1438 0.2404 0.6776
N7 N 0.23947(7) 0.21544(19) 0.76105(9)
C3 C 0.27546(7) 0.1423(2) 0.85407(11)
C4 C 0.35228(8) 0.1647(2) 0.87948(13)
H3 H 0.3786 0.2308 0.8328
C5 C 0.38836(8) 0.0894(2) 0.97253(15)
H4 H 0.4399 0.1024 0.9890
C6 C 0.35001(9) -0.0067(2) 1.04373(13)
H5 H 0.3760 -0.0572 1.1074
C7 C 0.27555(8) -0.0278(2) 1.02173(11)
H6 H 0.2500 -0.0905 1.0705
C8 C 0.23703(7) 0.04495(18) 0.92537(10)
Cd1_2 Cd 0.0000 -0.917114(19) 0.7500
Cd1F Cd 0.0000 -0.082886(19) 0.2500
N1D N -0.02411(8) -0.0857(2) 0.42383(11)
N1B N -0.02411(8) 0.0857(2) 0.92383(11)
N3B N -0.0077(3) -0.2522(4) 0.7235(3)
N5B N -0.0033(9) -0.5782(3) 0.7651(8)
N5_2 N 0.0033(9) 0.4218(3) 0.7349(8)
N5B_2 N -0.0033(9) 0.4218(3) 0.7651(8)
C1B C -0.16093(7) 0.0250(2) 0.60531(10)
H1B H -0.1335 -0.0404 0.5598
N6B N -0.12656(6) 0.09472(16) 0.69557(9)
C2B C -0.16869(8) 0.1889(2) 0.75820(11)
H2B H -0.1438 0.2404 0.8224
N7B N -0.23947(7) 0.21544(19) 0.73895(9)
C3B C -0.27546(7) 0.1423(2) 0.64593(11)
C4B C -0.35228(8) 0.1647(2) 0.62052(13)
H3B H -0.3786 0.2308 0.6672
C5B C -0.38836(8) 0.0894(2) 0.52747(15)
H4B H -0.4399 0.1024 0.5110
C6B C -0.35001(9) -0.0067(2) 0.45627(13)
H5B H -0.3760 -0.0572 0.3926
C7B C -0.27555(8) -0.0278(2) 0.47827(11)
H6B H -0.2500 -0.0905 0.4295
C8B C -0.23703(7) 0.04495(18) 0.57463(10)
loop_
_geom_bond_atom_site_label_1
_geom_bond_atom_site_label_2
_geom_bond_site_symmetry_1
_geom_bond_site_symmetry_2
Cd1 N1 1_555 1_555
N1 N2 1_555 1_555
N2 N1D 1_555 1_555
N3 Cd1 1_555 1_555
N4 N3 1_555 1_555
N5 N4 1_555 1_555
C1 H1 1_555 1_555
N6 Cd1 1_555 1_555
C2 N6 1_555 1_555
H2 C2 1_555 1_555
N7 C2 1_555 1_555
C3 N7 1_555 1_555
C4 C3 1_555 1_555
H3 C4 1_555 1_555
C5 C4 1_555 1_555
H4 C5 1_555 1_555
C6 C5 1_555 1_555
H5 C6 1_555 1_555
C7 C6 1_555 1_555
H6 C7 1_555 1_555
C8 C1 1_555 1_555
Cd1_2 N5 1_555 1_555
Cd1F N1D 1_555 1_555
N1B Cd1 1_555 1_555
N3B Cd1 1_555 1_555
N5B N4 1_555 1_555
N5_2 Cd1 1_555 1_555
N5B_2 Cd1 1_555 1_555
C1B H1B 1_555 1_555
N6B Cd1 1_555 1_555
C2B N6B 1_555 1_555
H2B C2B 1_555 1_555
N7B C2B 1_555 1_555
C3B N7B 1_555 1_555
C4B C3B 1_555 1_555
H3B C4B 1_555 1_555
C5B C4B 1_555 1_555
H4B C5B 1_555 1_555
C6B C5B 1_555 1_555
H5B C6B 1_555 1_555
C7B C6B 1_555 1_555
H6B C7B 1_555 1_555
C8B C1B 1_555 1_555
N3 N3B 1_555 1_555
N4 N3B 1_555 1_555
N5 N5B 1_555 1_555
C1 N6 1_555 1_555
C3 C8 1_555 1_555
C7 C8 1_555 1_555
Cd1_2 N5B 1_555 1_555
N5_2 N5B_2 1_555 1_555
C1B N6B 1_555 1_555
C3B C8B 1_555 1_555
C7B C8B 1_555 1_555

#END
