
#######################################################################
#
#                 Cambridge Crystallographic Data Centre
#                                CCDC 
#
#######################################################################
#
# If this CIF has been generated from an entry in the Cambridge 
# Structural Database, then it will include bibliographic, chemical, 
# crystal, experimental, refinement or atomic coordinate data resulting 
# from the CCDC's data processing and validation procedures.
#
#######################################################################

data_IDAFOI
_symmetry_cell_setting           monoclinic
_symmetry_space_group_name_H-M   'C 2/c'
_symmetry_Int_Tables_number      15
_space_group_name_Hall           '-C 2yn'
loop_
_symmetry_equiv_pos_site_id
_symmetry_equiv_pos_as_xyz
1 x,y,z
2 x,-y,1/2+z
3 1/2+x,1/2+y,z
4 1/2+x,1/2-y,1/2+z
5 -x,-y,-z
6 -x,y,1/2-z
7 1/2-x,1/2-y,-z
8 1/2-x,1/2+y,1/2-z
_cell_length_a                   12.2880(10)
_cell_length_b                   8.0220(5)
_cell_length_c                   12.1580(10)
_cell_angle_alpha                90
_cell_angle_beta                 107.673(6)
_cell_angle_gamma                90
_cell_volume                     1141.9
loop_
_atom_site_label
_atom_site_type_symbol
_atom_site_fract_x
_atom_site_fract_y
_atom_site_fract_z
Ag1 Ag 0.0000 0.0000 0.0000
C1 C -0.1123(2) -0.4847(2) 0.0999(2)
H1 H -0.0922 -0.5468 0.1677
C2 C -0.04754(17) -0.3494(3) 0.08804(16)
H2 H 0.0163 -0.3215 0.1493
N1 N -0.07272(15) -0.2565(2) -0.00801(14)
C3 C -0.16200(17) -0.3026(2) -0.09691(16)
H3 H -0.1780 -0.2417 -0.1650
C4 C -0.23189(16) -0.4365(2) -0.09275(16)
C5 C -0.2077(2) -0.5266(3) 0.00920(19)
H4 H -0.2548 -0.6139 0.0165
C6 C -0.33389(18) -0.4728(2) -0.19541(17)
O1 O -0.34395(14) -0.40340(19) -0.28730(12)
O2 O -0.40508(13) -0.57906(19) -0.17598(12)
H5 H -0.5000 -0.567(4) -0.2500
O2E O -0.59492(13) -0.57906(19) -0.32402(12)
C6E C -0.66611(18) -0.4728(2) -0.30459(17)
C4E C -0.76811(16) -0.4365(2) -0.40725(16)
C3E C -0.83800(17) -0.3026(2) -0.40309(16)
N1E N -0.92728(15) -0.2565(2) -0.49199(14)
C2E C -0.95246(17) -0.3494(3) -0.58804(16)
C1E C -0.8877(2) -0.4847(2) -0.5999(2)
H1E H -0.9078 -0.5468 -0.6677
C5E C -0.7923(2) -0.5266(3) -0.50920(19)
H4E H -0.7452 -0.6139 -0.5165
H2E H -1.0163 -0.3215 -0.6493
H3E H -0.8220 -0.2417 -0.3350
O1E O -0.65605(14) -0.40340(19) -0.21270(12)
N1D N 0.07272(15) 0.2565(2) 0.00801(14)
Ag1A Ag -1.0000 0.0000 -0.5000
loop_
_geom_bond_atom_site_label_1
_geom_bond_atom_site_label_2
_geom_bond_site_symmetry_1
_geom_bond_site_symmetry_2
Ag1 N1 1_555 1_555
C1 H1 1_555 1_555
C2 C1 1_555 1_555
H2 C2 1_555 1_555
N1 C2 1_555 1_555
C3 N1 1_555 1_555
H3 C3 1_555 1_555
C4 C3 1_555 1_555
C5 C1 1_555 1_555
H4 C5 1_555 1_555
C6 C4 1_555 1_555
O1 C6 1_555 1_555
O2 C6 1_555 1_555
H5 O2 1_555 1_555
O2E H5 1_555 1_555
C6E O2E 1_555 1_555
C4E C6E 1_555 1_555
C3E C4E 1_555 1_555
N1E C3E 1_555 1_555
C2E N1E 1_555 1_555
C1E C2E 1_555 1_555
H1E C1E 1_555 1_555
C5E C4E 1_555 1_555
H4E C5E 1_555 1_555
H2E C2E 1_555 1_555
H3E C3E 1_555 1_555
O1E C6E 1_555 1_555
N1D Ag1 1_555 1_555
Ag1A N1E 1_555 1_555
C4 C5 1_555 1_555
C1E C5E 1_555 1_555

#END
