
#######################################################################
#
#                 Cambridge Crystallographic Data Centre
#                                CCDC 
#
#######################################################################
#
# If this CIF has been generated from an entry in the Cambridge 
# Structural Database, then it will include bibliographic, chemical, 
# crystal, experimental, refinement or atomic coordinate data resulting 
# from the CCDC's data processing and validation procedures.
#
#######################################################################

data_IDAFUP
_symmetry_cell_setting           triclinic
_symmetry_space_group_name_H-M   'P -1'
_symmetry_Int_Tables_number      2
_space_group_name_Hall           '-P 1'
loop_
_symmetry_equiv_pos_site_id
_symmetry_equiv_pos_as_xyz
1 x,y,z
2 -x,-y,-z
_cell_length_a                   8.9430(15)
_cell_length_b                   10.0072(15)
_cell_length_c                   11.320(2)
_cell_angle_alpha                113.861(8)
_cell_angle_beta                 95.371(13)
_cell_angle_gamma                94.266(17)
_cell_volume                     915.384
loop_
_atom_site_label
_atom_site_type_symbol
_atom_site_fract_x
_atom_site_fract_y
_atom_site_fract_z
Co1 Co 1.0000 0.0000 0.0000
S1 S 1.28362(9) 0.41321(7) 0.37745(6)
N1 N 0.7761(2) 0.25876(19) -0.16314(17)
N2 N 0.9008(2) 0.3582(2) -0.1025(2)
N3 N 0.92393(19) 0.14778(19) -0.07825(17)
N4 N 0.68781(19) 0.12898(19) 0.27899(16)
N5 N 0.5850(2) 0.0531(2) 0.17095(18)
N6 N 0.82199(18) 0.04211(19) 0.11956(16)
N7 N 1.1450(2) 0.1734(2) 0.15222(18)
C1 C 0.9860(3) 0.2859(3) -0.0543(2)
H1 H 1.0816 0.3261 -0.0074
C2 C 0.7913(2) 0.1359(2) -0.1477(2)
H2 H 0.7194 0.0531 -0.1806
C3 C 0.6422(3) 0.3035(3) -0.2145(2)
H3 H 0.5713 0.2171 -0.2684
H4 H 0.6711 0.3531 -0.2683
C4 C 0.5675(2) 0.4058(2) -0.1035(2)
C5 C 0.5486(4) 0.5451(3) -0.0909(3)
H5 H 0.5809 0.5774 -0.1517
C6 C 0.5186(4) 0.3616(3) -0.0122(3)
H6 H 0.5307 0.2672 -0.0195
C7 C 0.6721(2) 0.0031(3) 0.0785(2)
H7 H 0.6334 -0.0545 -0.0083
C8 C 0.8273(2) 0.1206(2) 0.2467(2)
H8 H 0.9156 0.1635 0.3049
C9 C 0.6379(3) 0.2044(2) 0.4064(2)
H9 H 0.5653 0.2695 0.4005
H10 H 0.7240 0.2641 0.4692
C10 C 0.5661(2) 0.0966(2) 0.45352(19)
C11 C 0.4146(2) 0.0974(2) 0.4736(2)
H11 H 0.3573 0.1628 0.4561
C12 C 0.6510(2) -0.0010(2) 0.4803(2)
H12 H 0.7521 -0.0018 0.4674
C13 C 1.2018(2) 0.2729(2) 0.2461(2)
Co1_2 Co 0.0000 1.0000 0.0000
Co1_3 Co 0.0000 0.0000 1.0000
S1A S 0.71638(9) -0.41321(7) -0.37745(6)
N1A N 0.2239(2) 0.74124(19) 0.16314(17)
N2A N 0.0992(2) 0.6418(2) 0.1025(2)
N3A N 0.07607(19) 0.85222(19) 0.07825(17)
N3A_2 N 1.07607(19) -0.14778(19) 0.07825(17)
N4A N 0.31219(19) -0.12898(19) 0.72101(16)
N5A N 0.4150(2) -0.0531(2) 0.82905(18)
N6A N 0.17801(18) -0.04211(19) 0.88044(16)
N6A_2 N 1.17801(18) -0.04211(19) -0.11956(16)
N7A N 0.8550(2) -0.1734(2) -0.15222(18)
C1A C 0.0140(3) 0.7141(3) 0.0543(2)
H1A H -0.0816 0.6739 0.0074
C2A C 0.2087(2) 0.8641(2) 0.1477(2)
H2A H 0.2806 0.9469 0.1806
C3A C 0.3578(3) 0.6965(3) 0.2145(2)
H3A H 0.4287 0.7829 0.2684
H4A H 0.3289 0.6469 0.2683
C4A C 0.4325(2) 0.5942(2) 0.1035(2)
C5A C 0.4514(4) 0.4549(3) 0.0909(3)
H5A H 0.4191 0.4226 0.1517
C6A C 0.4814(4) 0.6384(3) 0.0122(3)
H6A H 0.4693 0.7328 0.0195
C7A C 0.3279(2) -0.0031(3) 0.9215(2)
H7A H 0.3666 0.0545 1.0083
C8A C 0.1727(2) -0.1206(2) 0.7533(2)
H8A H 0.0844 -0.1635 0.6951
C9A C 0.3621(3) -0.2044(2) 0.5936(2)
H9A H 0.4347 -0.2695 0.5995
H10A H 0.2760 -0.2641 0.5308
C10A C 0.4339(2) -0.0966(2) 0.54648(19)
C11A C 0.5854(2) -0.0974(2) 0.5264(2)
H11A H 0.6427 -0.1628 0.5439
C12A C 0.3490(2) 0.0010(2) 0.5197(2)
H12A H 0.2479 0.0018 0.5326
C13A C 0.7982(2) -0.2729(2) -0.2461(2)
N8 N 1.0085(4) 0.2214(4) 0.5538(4)
C14 C 1.1408(5) 0.4752(5) 0.7173(4)
H13 H 1.2183 0.5082 0.6785
H14 H 1.1854 0.4689 0.7951
H15 H 1.0675 0.5438 0.7388
C15 C 1.0673(4) 0.3314(4) 0.6259(3)
loop_
_geom_bond_atom_site_label_1
_geom_bond_atom_site_label_2
_geom_bond_site_symmetry_1
_geom_bond_site_symmetry_2
Co1 N3 1_555 1_555
S1 C13 1_555 1_555
N1 N2 1_555 1_555
N2 C1 1_555 1_555
N3 C1 1_555 1_555
N4 N5 1_555 1_555
N5 C7 1_555 1_555
N6 Co1 1_555 1_555
N7 Co1 1_555 1_555
N8 C15 1_555 1_555
C1 H1 1_555 1_555
C2 N1 1_555 1_555
H2 C2 1_555 1_555
C3 N1 1_555 1_555
H3 C3 1_555 1_555
H4 C3 1_555 1_555
C4 C3 1_555 1_555
C5 C4 1_555 1_555
H5 C5 1_555 1_555
C6 C4 1_555 1_555
H6 C6 1_555 1_555
C7 N6 1_555 1_555
H7 C7 1_555 1_555
C8 N4 1_555 1_555
H8 C8 1_555 1_555
C9 N4 1_555 1_555
H9 C9 1_555 1_555
H10 C9 1_555 1_555
C10 C9 1_555 1_555
C11 C10 1_555 1_555
H11 C11 1_555 1_555
C12 C10 1_555 1_555
H12 C12 1_555 1_555
C13 N7 1_555 1_555
C14 H13 1_555 1_555
H14 C14 1_555 1_555
H15 C14 1_555 1_555
C15 C14 1_555 1_555
Co1_2 N3A 1_555 1_555
Co1_3 N6A 1_555 1_555
S1A C13A 1_555 1_555
N1A N2A 1_555 1_555
N2A C1A 1_555 1_555
N3A C1A 1_555 1_555
N3A_2 Co1 1_555 1_555
N4A N5A 1_555 1_555
N5A C7A 1_555 1_555
N6A C7A 1_555 1_555
N6A_2 Co1 1_555 1_555
N7A Co1 1_555 1_555
C1A H1A 1_555 1_555
C2A N1A 1_555 1_555
H2A C2A 1_555 1_555
C3A N1A 1_555 1_555
H3A C3A 1_555 1_555
H4A C3A 1_555 1_555
C4A C3A 1_555 1_555
C5A C6 1_555 1_555
H5A C5A 1_555 1_555
C6A C5 1_555 1_555
H6A C6A 1_555 1_555
C7A H7A 1_555 1_555
C8A N4A 1_555 1_555
H8A C8A 1_555 1_555
C9A N4A 1_555 1_555
H9A C9A 1_555 1_555
H10A C9A 1_555 1_555
C10A C9A 1_555 1_555
C11A C12 1_555 1_555
H11A C11A 1_555 1_555
C12A C11 1_555 1_555
H12A C12A 1_555 1_555
C13A N7A 1_555 1_555
N3 C2 1_555 1_555
N6 C8 1_555 1_555
N3A C2A 1_555 1_555
N6A C8A 1_555 1_555
C4A C5A 1_555 1_555
C4A C6A 1_555 1_555
C10A C11A 1_555 1_555
C10A C12A 1_555 1_555

#END
