
#######################################################################
#
#                 Cambridge Crystallographic Data Centre
#                                CCDC 
#
#######################################################################
#
# If this CIF has been generated from an entry in the Cambridge 
# Structural Database, then it will include bibliographic, chemical, 
# crystal, experimental, refinement or atomic coordinate data resulting 
# from the CCDC's data processing and validation procedures.
#
#######################################################################

data_IDAFOJ
_symmetry_cell_setting           orthorhombic
_symmetry_space_group_name_H-M   'P b c n'
_symmetry_Int_Tables_number      60
_space_group_name_Hall           '-P 2n 2ab'
loop_
_symmetry_equiv_pos_site_id
_symmetry_equiv_pos_as_xyz
1 x,y,z
2 1/2+x,1/2-y,-z
3 -x,y,1/2-z
4 1/2-x,1/2-y,1/2+z
5 -x,-y,-z
6 1/2-x,1/2+y,z
7 x,-y,1/2+z
8 1/2+x,1/2+y,1/2-z
_cell_length_a                   9.2172(11)
_cell_length_b                   16.648(2)
_cell_length_c                   19.231(2)
_cell_angle_alpha                90
_cell_angle_beta                 90
_cell_angle_gamma                90
_cell_volume                     2950.96
loop_
_atom_site_label
_atom_site_type_symbol
_atom_site_fract_x
_atom_site_fract_y
_atom_site_fract_z
Co1 Co 0.5000 0.0000 0.5000
S1 S 0.45738(15) 0.28416(7) 0.44775(7)
N1 N 0.7298(3) 0.06233(18) 0.68413(16)
N2 N 0.6652(4) -0.00405(19) 0.71042(19)
N3 N 0.5973(3) 0.01571(17) 0.59974(15)
N4 N 0.6095(3) 0.42925(19) 0.89714(17)
N5 N 0.5774(4) 0.5089(2) 0.8993(2)
N6 N 0.7898(3) 0.48368(18) 0.95258(15)
N7 N 0.4648(4) 0.1241(2) 0.49045(16)
C1 C 0.7460(4) 0.1798(2) 0.76315(19)
C2 C 0.7776(5) 0.2593(2) 0.7476(2)
H1 H 0.8500 0.2714 0.7140
C3 C 0.7045(4) 0.3213(2) 0.7806(2)
H2 H 0.7282 0.3754 0.7699
C4 C 0.5962(4) 0.3048(2) 0.82949(19)
C5 C 0.5662(4) 0.2254(2) 0.8449(2)
H3 H 0.4936 0.2132 0.8784
C6 C 0.6399(4) 0.1632(2) 0.8126(2)
H4 H 0.6179 0.1090 0.8242
C7 C 0.8251(4) 0.1126(3) 0.7272(2)
H5 H 0.9022 0.1357 0.6974
H6 H 0.8725 0.0784 0.7626
C8 C 0.5121(4) 0.3711(3) 0.8639(2)
H7 H 0.4519 0.3989 0.8287
H8 H 0.4464 0.3479 0.8993
C9 C 0.5890(5) -0.0292(2) 0.6578(2)
H9 H 0.5310 -0.0763 0.6603
C10 C 0.6886(4) 0.0730(2) 0.61807(19)
H10 H 0.7204 0.1154 0.5887
C11 C 0.6888(4) 0.5384(2) 0.9340(2)
H11 H 0.6973 0.5938 0.9450
C12 C 0.7351(4) 0.4156(2) 0.9280(2)
H12 H 0.7798 0.3644 0.9321
C13 C 0.4592(4) 0.1902(2) 0.4728(2)
Co1G Co 1.0000 0.5000 1.0000
Co1G_2 Co 0.0000 -0.5000 0.0000
S1D S 0.54262(15) -0.28416(7) 0.55225(7)
N1D N 0.2702(3) -0.06233(18) 0.31587(16)
N2D N 0.3348(4) 0.00405(19) 0.28958(19)
N3D N 0.4027(3) -0.01571(17) 0.40026(15)
N4D N 0.3905(3) -0.42925(19) 0.10286(17)
N5D N 0.4226(4) -0.5089(2) 0.1007(2)
N6D N 0.2102(3) -0.48368(18) 0.04742(15)
N6G N 0.2898(3) -0.01632(18) 0.54742(15)
N6C N 0.7102(3) 0.01632(18) 0.45258(15)
N7D N 0.5352(4) -0.1241(2) 0.50955(16)
C1D C 0.2540(4) -0.1798(2) 0.23685(19)
C2D C 0.2224(5) -0.2593(2) 0.2524(2)
H1D H 0.1500 -0.2714 0.2860
C3D C 0.2955(4) -0.3213(2) 0.2194(2)
H2D H 0.2718 -0.3754 0.2301
C4D C 0.4038(4) -0.3048(2) 0.17051(19)
C5D C 0.4338(4) -0.2254(2) 0.1551(2)
H3D H 0.5064 -0.2132 0.1216
C6D C 0.3601(4) -0.1632(2) 0.1874(2)
H4D H 0.3821 -0.1090 0.1758
C7D C 0.1749(4) -0.1126(3) 0.2728(2)
H5D H 0.0978 -0.1357 0.3026
H6D H 0.1275 -0.0784 0.2374
C8D C 0.4879(4) -0.3711(3) 0.1361(2)
H7D H 0.5481 -0.3989 0.1713
H8D H 0.5536 -0.3479 0.1007
C9D C 0.4110(5) 0.0292(2) 0.3422(2)
H9D H 0.4690 0.0763 0.3397
C10D C 0.3114(4) -0.0730(2) 0.38193(19)
H10D H 0.2796 -0.1154 0.4113
C11D C 0.3112(4) -0.5384(2) 0.0660(2)
H11D H 0.3027 -0.5938 0.0550
C12D C 0.2649(4) -0.4156(2) 0.0720(2)
H12D H 0.2202 -0.3644 0.0679
C13D C 0.5408(4) -0.1902(2) 0.5272(2)
loop_
_geom_bond_atom_site_label_1
_geom_bond_atom_site_label_2
_geom_bond_site_symmetry_1
_geom_bond_site_symmetry_2
Co1 N3 1_555 1_555
S1 C13 1_555 1_555
N1 N2 1_555 1_555
N2 C9 1_555 1_555
N3 C9 1_555 1_555
N4 N5 1_555 1_555
N5 C11 1_555 1_555
N6 C11 1_555 1_555
N7 Co1 1_555 1_555
C1 C2 1_555 1_555
C2 H1 1_555 1_555
C3 C2 1_555 1_555
H2 C3 1_555 1_555
C4 C3 1_555 1_555
C5 C4 1_555 1_555
H3 C5 1_555 1_555
C6 C1 1_555 1_555
H4 C6 1_555 1_555
C7 N1 1_555 1_555
H5 C7 1_555 1_555
H6 C7 1_555 1_555
C8 N4 1_555 1_555
H7 C8 1_555 1_555
H8 C8 1_555 1_555
C9 H9 1_555 1_555
C10 N1 1_555 1_555
H10 C10 1_555 1_555
C11 H11 1_555 1_555
C12 N4 1_555 1_555
H12 C12 1_555 1_555
C13 N7 1_555 1_555
Co1G N6 1_555 1_555
Co1G_2 N6D 1_555 1_555
S1D C13D 1_555 1_555
N1D N2D 1_555 1_555
N2D C9D 1_555 1_555
N3D Co1 1_555 1_555
N4D N5D 1_555 1_555
N5D C11D 1_555 1_555
N6D C11D 1_555 1_555
N6G Co1 1_555 1_555
N6C Co1 1_555 1_555
N7D Co1 1_555 1_555
C1D C2D 1_555 1_555
C2D H1D 1_555 1_555
C3D C2D 1_555 1_555
H2D C3D 1_555 1_555
C4D C3D 1_555 1_555
C5D C4D 1_555 1_555
H3D C5D 1_555 1_555
C6D C1D 1_555 1_555
H4D C6D 1_555 1_555
C7D N1D 1_555 1_555
H5D C7D 1_555 1_555
H6D C7D 1_555 1_555
C8D N4D 1_555 1_555
H7D C8D 1_555 1_555
H8D C8D 1_555 1_555
C9D N3D 1_555 1_555
H9D C9D 1_555 1_555
C10D N1D 1_555 1_555
H10D C10D 1_555 1_555
C11D H11D 1_555 1_555
C12D N4D 1_555 1_555
H12D C12D 1_555 1_555
C13D N7D 1_555 1_555
N3 C10 1_555 1_555
N6 C12 1_555 1_555
C1 C7 1_555 1_555
C4 C8 1_555 1_555
C5 C6 1_555 1_555
N3D C10D 1_555 1_555
N6D C12D 1_555 1_555
C1D C7D 1_555 1_555
C4D C8D 1_555 1_555
C5D C6D 1_555 1_555

#END
