
#######################################################################
#
#                 Cambridge Crystallographic Data Centre
#                                CCDC 
#
#######################################################################
#
# If this CIF has been generated from an entry in the Cambridge 
# Structural Database, then it will include bibliographic, chemical, 
# crystal, experimental, refinement or atomic coordinate data resulting 
# from the CCDC's data processing and validation procedures.
#
#######################################################################

data_IDAGEA
_symmetry_cell_setting           monoclinic
_symmetry_space_group_name_H-M   'C 2/c'
_symmetry_Int_Tables_number      15
_space_group_name_Hall           '-C 2yn'
loop_
_symmetry_equiv_pos_site_id
_symmetry_equiv_pos_as_xyz
1 x,y,z
2 1/2+x,1/2+y,z
3 -x,y,1/2-z
4 1/2-x,1/2+y,1/2-z
5 -x,-y,-z
6 1/2-x,1/2-y,-z
7 x,-y,1/2+z
8 1/2+x,1/2-y,1/2+z
_cell_length_a                   22.8992(13)
_cell_length_b                   24.8190(11)
_cell_length_c                   9.0518(5)
_cell_angle_alpha                90
_cell_angle_beta                 94.305(2)
_cell_angle_gamma                90
_cell_volume                     5129.94
loop_
_atom_site_label
_atom_site_type_symbol
_atom_site_fract_x
_atom_site_fract_y
_atom_site_fract_z
Cu1 Cu 0.23987(2) 0.072534(19) 0.87316(5)
O1 O 0.23618(14) 0.01627(12) 1.0231(3)
O2 O 0.28469(16) -0.01976(14) 1.2197(4)
N1 N 0.32064(16) 0.08388(15) 0.9701(4)
H1 H 0.3479 0.0692 0.9123
H2 H 0.3281 0.1202 0.9797
N2 N 0.24238(16) 0.13765(14) 0.7401(4)
N3 N 0.15371(15) 0.06195(14) 0.8236(4)
C1 C 0.2790(2) 0.01426(16) 1.1208(4)
C2 C 0.3251(2) 0.05804(19) 1.1180(5)
H3 H 0.3648 0.0415 1.1362
C3 C 0.3156(3) 0.0991(2) 1.2423(5)
H4 H 0.3213 0.0804 1.3390
H5 H 0.3458 0.1275 1.2403
C4 C 0.2562(3) 0.1254(2) 1.2317(5)
C5 C 0.2456(3) 0.1717(2) 1.1479(7)
H6 H 0.2756 0.1867 1.0937
C6 C 0.1907(4) 0.1961(3) 1.1435(8)
H7 H 0.1832 0.2276 1.0856
C7 C 0.1481(3) 0.1751(3) 1.2209(8)
H8 H 0.1110 0.1923 1.2185
C8 C 0.1578(3) 0.1296(3) 1.3026(7)
H9 H 0.1273 0.1153 1.3566
C9 C 0.2108(3) 0.1044(2) 1.3075(6)
H10 H 0.2167 0.0721 1.3631
C10 C 0.1991(2) 0.17404(19) 0.7244(6)
H11 H 0.1659 0.1694 0.7800
C11 C 0.2005(2) 0.21797(19) 0.6313(6)
H12 H 0.1685 0.2424 0.6229
C12 C 0.2886(2) 0.14583(18) 0.6612(5)
H13 H 0.3200 0.1207 0.6708
C13 C 0.2929(2) 0.18883(18) 0.5669(5)
H14 H 0.3266 0.1928 0.5127
C14 C 0.24808(19) 0.22643(15) 0.5510(4)
C15 C 0.1173(2) 0.0680(2) 0.9316(5)
H15 H 0.1337 0.0743 1.0296
C16 C 0.0584(2) 0.0656(2) 0.9074(5)
H16 H 0.0347 0.0693 0.9886
C17 C 0.1302(2) 0.0527(2) 0.6859(5)
H17 H 0.1553 0.0474 0.6082
C18 C 0.0700(2) 0.0509(2) 0.6541(5)
H18 H 0.0547 0.0447 0.5551
C19 C 0.03163(17) 0.05786(16) 0.7648(4)
Cu1F Cu 0.23987(2) -0.072534(19) 0.37316(5)
Cu1F_2 Cu 0.23987(2) -0.072534(19) 1.37316(5)
Cu1E Cu 0.26013(2) 0.427466(19) 0.12684(5)
Cu1B Cu -0.23987(2) 0.072534(19) 0.62684(5)
O1F O 0.23618(14) -0.01627(12) 0.5231(3)
O2F O 0.28469(16) 0.01976(14) 0.7197(4)
O2_2 O 0.28469(16) -0.01976(14) 0.2197(4)
N1F N 0.32064(16) -0.08388(15) 0.4701(4)
H1F H 0.3479 -0.0692 0.4123
H2F H 0.3281 -0.1202 0.4797
N2E N 0.25762(16) 0.36235(14) 0.2599(4)
N2F N 0.24238(16) -0.13765(14) 0.2401(4)
N3B N -0.15371(15) 0.06195(14) 0.6764(4)
N3F N 0.15371(15) -0.06195(14) 0.3236(4)
C1F C 0.2790(2) -0.01426(16) 0.6208(4)
C2F C 0.3251(2) -0.05804(19) 0.6180(5)
H3F H 0.3648 -0.0415 0.6362
C3F C 0.3156(3) -0.0991(2) 0.7423(5)
H4F H 0.3213 -0.0804 0.8390
H5F H 0.3458 -0.1275 0.7403
C4F C 0.2562(3) -0.1254(2) 0.7317(5)
C5F C 0.2456(3) -0.1717(2) 0.6479(7)
H6F H 0.2756 -0.1867 0.5937
C6F C 0.1907(4) -0.1961(3) 0.6435(8)
H7F H 0.1832 -0.2276 0.5856
C7F C 0.1481(3) -0.1751(3) 0.7209(8)
H8F H 0.1110 -0.1923 0.7185
C8F C 0.1578(3) -0.1296(3) 0.8026(7)
H9F H 0.1273 -0.1153 0.8566
C9F C 0.2108(3) -0.1044(2) 0.8075(6)
H10F H 0.2167 -0.0721 0.8631
C10E C 0.3009(2) 0.32596(19) 0.2756(6)
H11E H 0.3341 0.3306 0.2200
C11E C 0.2995(2) 0.28203(19) 0.3687(6)
H12E H 0.3315 0.2576 0.3771
C12E C 0.2114(2) 0.35417(18) 0.3388(5)
H13E H 0.1800 0.3793 0.3292
C13E C 0.2071(2) 0.31117(18) 0.4331(5)
H14E H 0.1734 0.3072 0.4873
C14E C 0.25192(19) 0.27357(15) 0.4490(4)
C15B C -0.1173(2) 0.0680(2) 0.5684(5)
H15B H -0.1337 0.0743 0.4704
C16B C -0.0584(2) 0.0656(2) 0.5926(5)
H16B H -0.0347 0.0693 0.5114
C17B C -0.1302(2) 0.0527(2) 0.8141(5)
H17B H -0.1553 0.0474 0.8918
C18B C -0.0700(2) 0.0509(2) 0.8459(5)
H18B H -0.0547 0.0447 0.9449
C19B C -0.03163(17) 0.05786(16) 0.7352(4)
O3 O 0.0000 0.0768(5) 1.2500
O4 O -0.0106(4) 0.1493(4) 1.1363(9)
N4 N 0.0000 0.1238(6) 1.2500
O4B O 0.0106(4) 0.1493(4) 1.3637(9)
O5 O 0.4297(10) 0.0312(10) 0.858(3)
O6 O 0.3940(4) 0.1883(4) 0.9840(10)
O7 O 0.42771(17) 0.19974(16) 0.4117(4)
O8 O 0.07089(17) 0.20664(16) 0.8843(4)
O9 O 0.03803(17) 0.19329(16) 0.6387(4)
loop_
_geom_bond_atom_site_label_1
_geom_bond_atom_site_label_2
_geom_bond_site_symmetry_1
_geom_bond_site_symmetry_2
Cu1 O1 1_555 1_555
O1 C1 1_555 1_555
O2 C1 1_555 1_555
O3 N4 1_555 1_555
O4 N4 1_555 1_555
N1 Cu1 1_555 1_555
H1 N1 1_555 1_555
H2 N1 1_555 1_555
N2 Cu1 1_555 1_555
N3 Cu1 1_555 1_555
N4 O4B 1_555 1_555
C1 C2 1_555 1_555
C2 N1 1_555 1_555
H3 C2 1_555 1_555
C3 C2 1_555 1_555
H4 C3 1_555 1_555
H5 C3 1_555 1_555
C4 C3 1_555 1_555
C5 C4 1_555 1_555
H6 C5 1_555 1_555
C6 C5 1_555 1_555
H7 C6 1_555 1_555
C7 C6 1_555 1_555
H8 C7 1_555 1_555
C8 C7 1_555 1_555
H9 C8 1_555 1_555
C9 C4 1_555 1_555
H10 C9 1_555 1_555
C10 N2 1_555 1_555
H11 C10 1_555 1_555
C11 C10 1_555 1_555
H12 C11 1_555 1_555
C12 N2 1_555 1_555
H13 C12 1_555 1_555
C13 C12 1_555 1_555
H14 C13 1_555 1_555
C14 C11 1_555 1_555
C15 N3 1_555 1_555
H15 C15 1_555 1_555
C16 C15 1_555 1_555
H16 C16 1_555 1_555
C17 N3 1_555 1_555
H17 C17 1_555 1_555
C18 C17 1_555 1_555
H18 C18 1_555 1_555
C19 C16 1_555 1_555
Cu1F O1F 1_555 1_555
Cu1F_2 O2 1_555 1_555
Cu1E N2E 1_555 1_555
Cu1B N3B 1_555 1_555
O1F C1F 1_555 1_555
O2F Cu1 1_555 1_555
O2_2 Cu1F 1_555 1_555
N1F Cu1F 1_555 1_555
H1F N1F 1_555 1_555
H2F N1F 1_555 1_555
N2E C10E 1_555 1_555
N2F Cu1F 1_555 1_555
N3B C15B 1_555 1_555
N3F Cu1F 1_555 1_555
C1F O2F 1_555 1_555
C2F N1F 1_555 1_555
H3F C2F 1_555 1_555
C3F C2F 1_555 1_555
H4F C3F 1_555 1_555
H5F C3F 1_555 1_555
C4F C3F 1_555 1_555
C5F C4F 1_555 1_555
H6F C5F 1_555 1_555
C6F C5F 1_555 1_555
H7F C6F 1_555 1_555
C7F C6F 1_555 1_555
H8F C7F 1_555 1_555
C8F C7F 1_555 1_555
H9F C8F 1_555 1_555
C9F C4F 1_555 1_555
H10F C9F 1_555 1_555
C10E H11E 1_555 1_555
C11E C10E 1_555 1_555
H12E C11E 1_555 1_555
C12E N2E 1_555 1_555
H13E C12E 1_555 1_555
C13E C12E 1_555 1_555
H14E C13E 1_555 1_555
C14E C14 1_555 1_555
C15B H15B 1_555 1_555
C16B C15B 1_555 1_555
H16B C16B 1_555 1_555
C17B N3B 1_555 1_555
H17B C17B 1_555 1_555
C18B C17B 1_555 1_555
H18B C18B 1_555 1_555
C19B C19 1_555 1_555
C8 C9 1_555 1_555
C13 C14 1_555 1_555
C18 C19 1_555 1_555
C1F C2F 1_555 1_555
C8F C9F 1_555 1_555
C11E C14E 1_555 1_555
C13E C14E 1_555 1_555
C16B C19B 1_555 1_555
C18B C19B 1_555 1_555

#END
