
#######################################################################
#
#                 Cambridge Crystallographic Data Centre
#                                CCDC 
#
#######################################################################
#
# If this CIF has been generated from an entry in the Cambridge 
# Structural Database, then it will include bibliographic, chemical, 
# crystal, experimental, refinement or atomic coordinate data resulting 
# from the CCDC's data processing and validation procedures.
#
#######################################################################

data_IDAGOL
_symmetry_cell_setting           monoclinic
_symmetry_space_group_name_H-M   'P 21/c'
_symmetry_Int_Tables_number      14
_space_group_name_Hall           '-P 2ybc'
loop_
_symmetry_equiv_pos_site_id
_symmetry_equiv_pos_as_xyz
1 x,y,z
2 -x,1/2+y,1/2-z
3 -x,-y,-z
4 x,1/2-y,1/2+z
_cell_length_a                   7.3707(14)
_cell_length_b                   17.234(4)
_cell_length_c                   14.422(3)
_cell_angle_alpha                90
_cell_angle_beta                 91.646(10)
_cell_angle_gamma                90
_cell_volume                     1831.22
loop_
_atom_site_label
_atom_site_type_symbol
_atom_site_fract_x
_atom_site_fract_y
_atom_site_fract_z
H1 H 0.633(2) 0.4783(12) 0.3891(14)
H2 H 0.746(3) 0.4874(12) 0.4683(13)
Mo1 Mo 1.16746(3) 0.207730(12) 0.215830(14)
Mn1 Mn 0.65803(5) 0.32970(2) 0.44539(3)
O1 O 1.2052(2) 0.12489(11) 0.27533(12)
N1 N 1.1109(3) 0.32749(12) 0.12844(14)
C1 C 1.0915(3) 0.32710(15) 0.03493(17)
H7 H 1.1071 0.2794 0.0032
C2 C 1.0500(3) 0.39295(15) -0.01717(18)
H8 H 1.0397 0.3896 -0.0829
C3 C 1.0235(3) 0.46405(14) 0.02680(16)
C4 C 1.0443(4) 0.46457(15) 0.12407(18)
H9 H 1.0284 0.5115 0.1575
C5 C 1.0881(4) 0.39636(15) 0.17149(18)
H10 H 1.1027 0.3983 0.2371
C6 C 0.9844(3) 0.26525(15) 0.30920(17)
C7 C 1.3309(3) 0.17952(14) 0.09767(17)
C8 C 1.3728(3) 0.28358(15) 0.27831(17)
C9 C 0.9400(3) 0.17275(15) 0.12774(17)
N2 N 0.8912(3) 0.29615(13) 0.36066(15)
N3 N 0.8242(3) 0.15727(13) 0.07494(15)
N4 N 1.4140(3) 0.15899(13) 0.03472(15)
N5 N 1.4762(3) 0.32147(13) 0.32029(15)
O2 O 0.7197(3) 0.45541(11) 0.42224(13)
N6 N 0.6264(3) 0.19913(12) 0.47143(15)
C10 C 0.6075(3) 0.15013(15) 0.39868(19)
H11 H 0.6291 0.1699 0.3385
C11 C 0.5584(3) 0.07266(15) 0.40644(18)
H12 H 0.5455 0.0411 0.3526
C12 C 0.6024(3) 0.16828(15) 0.55686(19)
H13 H 0.6194 0.2009 0.6095
C13 C 0.5541(3) 0.09133(15) 0.57121(18)
H14 H 0.5387 0.0725 0.6324
C14 C 0.5279(3) 0.04128(15) 0.49440(18)
H1B H 0.367(2) 0.5217(12) -0.3891(14)
H2B H 0.254(3) 0.5126(12) -0.4683(13)
Mo1B Mo 0.83254(3) 0.792270(12) -0.215830(14)
Mn1C Mn 0.65803(5) 0.17030(2) -0.05461(3)
Mn1C_2 Mn 1.65803(5) 0.17030(2) -0.05461(3)
Mn1_2 Mn 1.65803(5) 0.32970(2) 0.44539(3)
Mn1B Mn 0.34197(5) -0.32970(2) 0.55461(3)
Mn1B_2 Mn 1.34197(5) 0.67030(2) -0.44539(3)
Mn1A Mn 0.34197(5) 0.82970(2) 0.05461(3)
Mn1B_3 Mn 0.34197(5) 0.67030(2) -0.44539(3)
Mn1A_2 Mn 1.34197(5) 0.82970(2) 0.05461(3)
O1B O 0.7948(2) 0.87511(11) -0.27533(12)
N1B N 0.8891(3) 0.67251(12) -0.12844(14)
C1B C 0.9085(3) 0.67290(15) -0.03493(17)
H7B H 0.8929 0.7206 -0.0032
C2B C 0.9500(3) 0.60705(15) 0.01717(18)
H8B H 0.9603 0.6104 0.0829
C3B C 0.9765(3) 0.53595(14) -0.02680(16)
C4B C 0.9557(4) 0.53543(15) -0.12407(18)
H9B H 0.9716 0.4885 -0.1575
C5B C 0.9119(4) 0.60364(15) -0.17149(18)
H10B H 0.8973 0.6017 -0.2371
C6B C 1.0156(3) 0.73475(15) -0.30920(17)
C7B C 0.6691(3) 0.82048(14) -0.09767(17)
C8B C 0.6272(3) 0.71642(15) -0.27831(17)
C9B C 1.0600(3) 0.82725(15) -0.12774(17)
N2B N 1.1088(3) 0.70385(13) -0.36066(15)
N2B_2 N 0.1088(3) 0.70385(13) -0.36066(15)
N3C N 0.8242(3) 0.34273(13) 0.57494(15)
N3B N 1.1758(3) 0.84273(13) -0.07494(15)
N3A N 0.1758(3) 0.65727(13) -0.57494(15)
N4C N 0.4140(3) 0.34101(13) 0.53472(15)
N4B N 0.5860(3) 0.84101(13) -0.03472(15)
N4A N 0.5860(3) 0.65899(13) -0.53472(15)
N5_2 N 0.4762(3) 0.32147(13) 0.32029(15)
N5B N 0.5238(3) 0.67853(13) -0.32029(15)
O2B O 0.2803(3) 0.54459(11) -0.42224(13)
N6B N 0.3736(3) -0.19913(12) 0.52857(15)
N6B_2 N 0.3736(3) 0.80087(12) -0.47143(15)
C10B C 0.3925(3) -0.15013(15) 0.60132(19)
H11B H 0.3709 -0.1699 0.6615
C11B C 0.4416(3) -0.07266(15) 0.59356(18)
H12B H 0.4545 -0.0411 0.6474
C12B C 0.3976(3) -0.16828(15) 0.44314(19)
H13B H 0.3806 -0.2009 0.3905
C13B C 0.4459(3) -0.09133(15) 0.42879(18)
H14B H 0.4613 -0.0725 0.3676
C14B C 0.4721(3) -0.04128(15) 0.50560(18)
H3 H 0.666(3) 0.5028(14) 0.658(2)
H6 H 0.573(4) 0.4325(10) 0.646(2)
O4 O 0.5703(3) 0.47721(12) 0.67570(14)
H4 H 0.9703(12) 0.5543(16) 0.591(3)
H5 H 0.817(4) 0.5983(6) 0.565(3)
O3 O 0.8539(3) 0.55050(12) 0.57626(14)
loop_
_geom_bond_atom_site_label_1
_geom_bond_atom_site_label_2
_geom_bond_site_symmetry_1
_geom_bond_site_symmetry_2
H1 O2 1_555 1_555
H2 O2 1_555 1_555
H3 O4 1_555 1_555
H4 O3 1_555 1_555
H5 O3 1_555 1_555
H6 O4 1_555 1_555
Mo1 O1 1_555 1_555
Mn1 N2 1_555 1_555
N1 Mo1 1_555 1_555
C1 N1 1_555 1_555
H7 C1 1_555 1_555
C2 C1 1_555 1_555
H8 C2 1_555 1_555
C3 C2 1_555 1_555
C4 C3 1_555 1_555
H9 C4 1_555 1_555
C5 N1 1_555 1_555
H10 C5 1_555 1_555
C6 Mo1 1_555 1_555
C7 Mo1 1_555 1_555
C8 Mo1 1_555 1_555
C9 Mo1 1_555 1_555
N2 C6 1_555 1_555
N3 C9 1_555 1_555
N4 C7 1_555 1_555
N5 C8 1_555 1_555
O2 Mn1 1_555 1_555
N6 Mn1 1_555 1_555
C10 N6 1_555 1_555
H11 C10 1_555 1_555
C11 C10 1_555 1_555
H12 C11 1_555 1_555
C12 N6 1_555 1_555
H13 C12 1_555 1_555
C13 C12 1_555 1_555
H14 C13 1_555 1_555
C14 C11 1_555 1_555
H1B O2B 1_555 1_555
H2B O2B 1_555 1_555
Mo1B O1B 1_555 1_555
Mn1C N3 1_555 1_555
Mn1C_2 N4 1_555 1_555
Mn1_2 N5 1_555 1_555
Mn1B N6B 1_555 1_555
Mn1B_2 N2B 1_555 1_555
Mn1A N4B 1_555 1_555
Mn1B_3 N2B_2 1_555 1_555
Mn1A_2 N3B 1_555 1_555
N1B Mo1B 1_555 1_555
C1B N1B 1_555 1_555
H7B C1B 1_555 1_555
C2B C1B 1_555 1_555
H8B C2B 1_555 1_555
C3B C3 1_555 1_555
C4B C3B 1_555 1_555
H9B C4B 1_555 1_555
C5B N1B 1_555 1_555
H10B C5B 1_555 1_555
C6B Mo1B 1_555 1_555
C7B Mo1B 1_555 1_555
C8B Mo1B 1_555 1_555
C9B Mo1B 1_555 1_555
N2B C6B 1_555 1_555
N3C Mn1 1_555 1_555
N3B C9B 1_555 1_555
N3A Mn1B_3 1_555 1_555
N4C Mn1 1_555 1_555
N4B C7B 1_555 1_555
N4A Mn1B_3 1_555 1_555
N5_2 Mn1 1_555 1_555
N5B Mn1B_3 1_555 1_555
O2B Mn1B_3 1_555 1_555
N6B C10B 1_555 1_555
N6B_2 Mn1B_3 1_555 1_555
C10B H11B 1_555 1_555
C11B C10B 1_555 1_555
H12B C11B 1_555 1_555
C12B N6B 1_555 1_555
H13B C12B 1_555 1_555
C13B C12B 1_555 1_555
H14B C13B 1_555 1_555
C14B C14 1_555 1_555
C4 C5 1_555 1_555
C13 C14 1_555 1_555
C2B C3B 1_555 1_555
C4B C5B 1_555 1_555
C8B N5B 1_555 1_555
C11B C14B 1_555 1_555
C13B C14B 1_555 1_555

#END
