
#######################################################################
#
#                 Cambridge Crystallographic Data Centre
#                                CCDC 
#
#######################################################################
#
# If this CIF has been generated from an entry in the Cambridge 
# Structural Database, then it will include bibliographic, chemical, 
# crystal, experimental, refinement or atomic coordinate data resulting 
# from the CCDC's data processing and validation procedures.
#
#######################################################################

data_IDAGAW
_symmetry_cell_setting           triclinic
_symmetry_space_group_name_H-M   'P -1'
_symmetry_Int_Tables_number      2
_space_group_name_Hall           '-P 1'
loop_
_symmetry_equiv_pos_site_id
_symmetry_equiv_pos_as_xyz
1 x,y,z
2 -x,-y,-z
_cell_length_a                   8.9431(14)
_cell_length_b                   9.9077(11)
_cell_length_c                   11.2446(13)
_cell_angle_alpha                112.388(11)
_cell_angle_beta                 96.312(15)
_cell_angle_gamma                96.197(19)
_cell_volume                     903.402
loop_
_atom_site_label
_atom_site_type_symbol
_atom_site_fract_x
_atom_site_fract_y
_atom_site_fract_z
Co1 Co 0.5000 0.5000 0.0000
S1 S 0.79239(10) 0.91323(8) 0.38086(7)
N1 N 0.2675(2) 0.7579(2) -0.16272(19)
N2 N 0.3983(3) 0.8570(2) -0.1096(2)
N3 N 0.4200(2) 0.6487(2) -0.07873(18)
N4 N 0.1942(2) 0.6255(2) 0.27656(18)
N5 N 0.0888(2) 0.5410(3) 0.1700(2)
N6 N 0.3249(2) 0.5361(2) 0.12042(17)
N7 N 0.6506(2) 0.6761(2) 0.15125(19)
C1 C 0.4861(3) 0.7854(3) -0.0613(3)
H1 H 0.5877 0.8266 -0.0177
C2 C 0.2816(3) 0.6360(3) -0.1430(2)
H2 H 0.2042 0.5518 -0.1707
C3 C 0.1312(3) 0.8017(3) -0.2114(2)
H3 H 0.0543 0.7125 -0.2629
H4 H 0.1572 0.8512 -0.2698
C4 C 0.0646(3) 0.9049(3) -0.1014(2)
C5 C 0.0419(4) 0.8740(3) 0.0056(3)
H5 H 0.0710 0.7867 0.0108
C6 C 0.0226(4) 1.0324(3) -0.1057(3)
H6 H 0.0378 1.0567 -0.1779
C7 C 0.1739(3) 0.4893(3) 0.0797(2)
H7 H 0.1321 0.4240 -0.0074
C8 C 0.3325(3) 0.6210(3) 0.2458(2)
H8 H 0.4242 0.6714 0.3049
C9 C 0.1461(3) 0.7045(3) 0.4026(2)
H9 H 0.0743 0.7701 0.3923
H10 H 0.2363 0.7670 0.4670
C10 C 0.0701(3) 0.5979(3) 0.4525(2)
C11 C 0.1528(3) 0.5048(3) 0.4885(2)
H11 H 0.2577 0.5078 0.4811
C12 C -0.0831(3) 0.5923(3) 0.4646(2)
H12 H -0.1407 0.6557 0.4405
C13 C 0.7088(3) 0.7744(3) 0.2457(2)
Co1_2 Co -0.5000 1.5000 0.0000
Co1_3 Co -0.5000 0.5000 1.0000
S1A S 0.20761(10) 0.08677(8) -0.38086(7)
N1A N -0.2675(2) 1.2421(2) 0.16272(19)
N2A N -0.3983(3) 1.1430(2) 0.1096(2)
N3A N -0.4200(2) 1.3513(2) 0.07873(18)
N3A_2 N 0.5800(2) 0.3513(2) 0.07873(18)
N4A N -0.1942(2) 0.3745(2) 0.72344(18)
N5A N -0.0888(2) 0.4590(3) 0.8300(2)
N6A N -0.3249(2) 0.4639(2) 0.87958(17)
N6A_2 N 0.6751(2) 0.4639(2) -0.12042(17)
N7A N 0.3494(2) 0.3239(2) -0.15125(19)
C1A C -0.4861(3) 1.2146(3) 0.0613(3)
H1A H -0.5877 1.1734 0.0177
C2A C -0.2816(3) 1.3640(3) 0.1430(2)
H2A H -0.2042 1.4482 0.1707
C3A C -0.1312(3) 1.1983(3) 0.2114(2)
H3A H -0.0543 1.2875 0.2629
H4A H -0.1572 1.1488 0.2698
C4A C -0.0646(3) 1.0951(3) 0.1014(2)
C5A C -0.0419(4) 1.1260(3) -0.0056(3)
H5A H -0.0710 1.2133 -0.0108
C6A C -0.0226(4) 0.9676(3) 0.1057(3)
H6A H -0.0378 0.9433 0.1779
C7A C -0.1739(3) 0.5107(3) 0.9203(2)
H7A H -0.1321 0.5760 1.0074
C8A C -0.3325(3) 0.3790(3) 0.7542(2)
H8A H -0.4242 0.3286 0.6951
C9A C -0.1461(3) 0.2955(3) 0.5974(2)
H9A H -0.0743 0.2299 0.6077
H10A H -0.2363 0.2330 0.5330
C10A C -0.0701(3) 0.4021(3) 0.5475(2)
C11A C -0.1528(3) 0.4952(3) 0.5115(2)
H11A H -0.2577 0.4922 0.5189
C12A C 0.0831(3) 0.4077(3) 0.5354(2)
H12A H 0.1407 0.3443 0.5595
C13A C 0.2912(3) 0.2256(3) -0.2457(2)
O1 O 0.3122(5) 0.2422(6) 0.2942(4)
O2 O 0.4926(5) 0.2658(5) 0.4438(4)
N8 N 0.4005(4) 0.1906(5) 0.3516(4)
C14 C 0.3862(6) 0.0310(5) 0.3011(5)
H13 H 0.4615 0.0032 0.3540
H14 H 0.4041 -0.0067 0.2106
H15 H 0.2834 -0.0114 0.3046
loop_
_geom_bond_atom_site_label_1
_geom_bond_atom_site_label_2
_geom_bond_site_symmetry_1
_geom_bond_site_symmetry_2
Co1 N3 1_555 1_555
S1 C13 1_555 1_555
O1 N8 1_555 1_555
O2 N8 1_555 1_555
N1 N2 1_555 1_555
N2 C1 1_555 1_555
N3 C1 1_555 1_555
N4 N5 1_555 1_555
N5 C7 1_555 1_555
N6 Co1 1_555 1_555
N7 Co1 1_555 1_555
N8 C14 1_555 1_555
C1 H1 1_555 1_555
C2 N1 1_555 1_555
H2 C2 1_555 1_555
C3 N1 1_555 1_555
H3 C3 1_555 1_555
H4 C3 1_555 1_555
C4 C3 1_555 1_555
C5 C4 1_555 1_555
H5 C5 1_555 1_555
C6 C4 1_555 1_555
H6 C6 1_555 1_555
C7 N6 1_555 1_555
H7 C7 1_555 1_555
C8 N4 1_555 1_555
H8 C8 1_555 1_555
C9 N4 1_555 1_555
H9 C9 1_555 1_555
H10 C9 1_555 1_555
C10 C9 1_555 1_555
C11 C10 1_555 1_555
H11 C11 1_555 1_555
C12 C10 1_555 1_555
H12 C12 1_555 1_555
C13 N7 1_555 1_555
C14 H13 1_555 1_555
H14 C14 1_555 1_555
H15 C14 1_555 1_555
Co1_2 N3A 1_555 1_555
Co1_3 N6A 1_555 1_555
S1A C13A 1_555 1_555
N1A N2A 1_555 1_555
N2A C1A 1_555 1_555
N3A C1A 1_555 1_555
N3A_2 Co1 1_555 1_555
N4A N5A 1_555 1_555
N5A C7A 1_555 1_555
N6A C7A 1_555 1_555
N6A_2 Co1 1_555 1_555
N7A Co1 1_555 1_555
C1A H1A 1_555 1_555
C2A N1A 1_555 1_555
H2A C2A 1_555 1_555
C3A N1A 1_555 1_555
H3A C3A 1_555 1_555
H4A C3A 1_555 1_555
C4A C3A 1_555 1_555
C5A C6 1_555 1_555
H5A C5A 1_555 1_555
C6A C5 1_555 1_555
H6A C6A 1_555 1_555
C7A H7A 1_555 1_555
C8A N4A 1_555 1_555
H8A C8A 1_555 1_555
C9A N4A 1_555 1_555
H9A C9A 1_555 1_555
H10A C9A 1_555 1_555
C10A C9A 1_555 1_555
C11A C12 1_555 1_555
H11A C11A 1_555 1_555
C12A C11 1_555 1_555
H12A C12A 1_555 1_555
C13A N7A 1_555 1_555
N3 C2 1_555 1_555
N6 C8 1_555 1_555
N3A C2A 1_555 1_555
N6A C8A 1_555 1_555
C4A C5A 1_555 1_555
C4A C6A 1_555 1_555
C10A C11A 1_555 1_555
C10A C12A 1_555 1_555

#END
