
#######################################################################
#
#                 Cambridge Crystallographic Data Centre
#                                CCDC 
#
#######################################################################
#
# If this CIF has been generated from an entry in the Cambridge 
# Structural Database, then it will include bibliographic, chemical, 
# crystal, experimental, refinement or atomic coordinate data resulting 
# from the CCDC's data processing and validation procedures.
#
#######################################################################

data_IDAGOK
_symmetry_cell_setting           triclinic
_symmetry_space_group_name_H-M   'P -1'
_symmetry_Int_Tables_number      2
_space_group_name_Hall           '-P 1'
loop_
_symmetry_equiv_pos_site_id
_symmetry_equiv_pos_as_xyz
1 x,y,z
2 -x,-y,-z
_cell_length_a                   9.5478(9)
_cell_length_b                   9.7290(9)
_cell_length_c                   9.7786(10)
_cell_angle_alpha                106.749(2)
_cell_angle_beta                 98.6680(10)
_cell_angle_gamma                110.262(2)
_cell_volume                     783.611
loop_
_atom_site_label
_atom_site_type_symbol
_atom_site_fract_x
_atom_site_fract_y
_atom_site_fract_z
Nd1 Nd 0.58819(3) 0.72642(3) 0.81599(3)
P1 P 0.76216(14) 1.03290(14) 0.65273(14)
P2 P 0.74210(13) 1.51195(13) 0.51793(12)
N1 N 0.7427(4) 1.3320(4) 0.6946(4)
H1 H 0.6849 1.3835 0.7305
C1 C 0.9048(5) 1.4299(5) 0.7913(5)
H2 H 0.9731 1.3844 0.7528
H3 H 0.9379 1.5348 0.7882
C2 C 0.9204(5) 1.4418(6) 0.9519(5)
H4 H 0.9018 1.3393 0.9576
H5 H 0.8432 1.4746 0.9873
C3 C 0.6712(5) 1.1707(5) 0.7029(5)
H6 H 0.6655 1.1859 0.8040
H7 H 0.5651 1.1193 0.6396
C4 C 0.7277(5) 1.3255(5) 0.5367(5)
H8 H 0.8088 1.2993 0.5026
H9 H 0.6283 1.2424 0.4733
C5 C 0.5339(5) 0.4460(5) 0.9563(5)
C6 C 0.5807(5) 1.0393(5) 1.0590(5)
O1 O 0.5855(4) 0.4839(4) 0.8544(4)
O2 O 0.5353(4) 0.3334(4) 0.9916(4)
O3 O 0.6767(3) 0.9807(4) 1.0285(4)
O4 O 0.6034(4) 1.1529(4) 1.1717(4)
O5 O 0.6627(4) 0.8930(4) 0.6821(4)
O6 O 0.7343(5) 0.9960(4) 0.4820(4)
H10 H 0.7532 0.9200 0.4441
O7 O 0.9321(4) 1.1040(4) 0.7345(4)
O8 O 0.6506(3) 1.4688(4) 0.3614(3)
O9 O 0.9163(3) 1.6114(4) 0.5335(4)
H11 H 0.9503 1.6927 0.6071
O10 O 0.6917(4) 1.5940(4) 0.6421(3)
O11 O 0.8662(5) 0.7988(5) 0.9549(5)
H12 H 0.908(6) 0.821(7) 1.025(6)
H13 H 0.926(11) 0.808(11) 0.887(11)
Nd1A Nd 0.41181(3) 0.27358(3) 1.18401(3)
Nd1A_2 Nd 0.41181(3) 1.27358(3) 1.18401(3)
Nd1A_3 Nd 0.41181(3) 1.27358(3) 0.18401(3)
Nd1_2 Nd 0.58819(3) 1.72642(3) 0.81599(3)
Nd1A_4 Nd 1.41181(3) 2.27358(3) 1.18401(3)
Nd1_3 Nd 1.58819(3) 1.72642(3) 1.81599(3)
Nd1A_5 Nd 1.41181(3) 1.27358(3) 1.18401(3)
P1A P 1.23784(14) 1.96710(14) 1.34727(14)
P2A P 1.25790(13) 1.48805(13) 1.48207(12)
N1A N 1.2573(4) 1.6680(4) 1.3054(4)
H1A H 1.3151 1.6165 1.2695
C1A C 1.0952(5) 1.5701(5) 1.2087(5)
H2A H 1.0269 1.6156 1.2472
H3A H 1.0621 1.4652 1.2118
C2A C 1.0796(5) 1.5582(6) 1.0481(5)
H4A H 1.0982 1.6607 1.0424
H5A H 1.1568 1.5254 1.0127
C3A C 1.3288(5) 1.8293(5) 1.2971(5)
H6A H 1.3345 1.8141 1.1960
H7A H 1.4349 1.8807 1.3604
C4A C 1.2723(5) 1.6745(5) 1.4633(5)
H8A H 1.1912 1.7007 1.4974
H9A H 1.3717 1.7576 1.5267
C5A C 0.4661(5) 0.5540(5) 1.0437(5)
C6A C 0.4193(5) 0.9607(5) 0.9410(5)
O1A O 0.4145(4) 0.5161(4) 1.1456(4)
O2A O 0.4647(4) 0.6666(4) 1.0084(4)
O3A O 0.3233(3) 1.0193(4) 0.9715(4)
O3A_2 O 0.3233(3) 0.0193(4) 0.9715(4)
O4A O 0.3966(4) 0.8471(4) 0.8283(4)
O4_2 O 0.6034(4) 0.1529(4) 1.1717(4)
O5A O 1.3373(4) 2.1070(4) 1.3179(4)
O5A_2 O 0.3373(4) 0.1070(4) 1.3179(4)
O6A O 1.2657(5) 2.0040(4) 1.5180(4)
H10A H 1.2468 2.0800 1.5559
O7A O 1.0679(4) 1.8960(4) 1.2655(4)
O8A O 1.3494(3) 1.5312(4) 1.6386(3)
O8A_2 O 0.3494(3) 0.5312(4) 0.6386(3)
O8_2 O 0.6506(3) 0.4688(4) 1.3614(3)
O9A O 1.0837(3) 1.3886(4) 1.4665(4)
H11A H 1.0497 1.3073 1.3929
O10A O 1.3083(4) 1.4060(4) 1.3579(3)
O10_2 O 0.6917(4) 0.5940(4) 0.6421(3)
O10A_2 O 0.3083(4) 0.4060(4) 1.3579(3)
O11A O 0.1338(5) 0.2012(5) 1.0451(5)
H12A H 0.092(6) 0.179(7) 0.975(6)
H13A H 0.074(11) 0.192(11) 1.113(11)
O12 O -0.0414(5) 0.1251(5) 0.2348(5)
H14 H -0.149(8) 0.080(8) 0.187(7)
H15 H -0.021(10) 0.066(10) 0.263(10)
O13 O 0.2231(6) 1.2354(6) 0.6941(5)
H16 H 0.241(8) 1.298(8) 0.670(8)
H17 H 0.118(8) 1.198(8) 0.686(7)
loop_
_geom_bond_atom_site_label_1
_geom_bond_atom_site_label_2
_geom_bond_site_symmetry_1
_geom_bond_site_symmetry_2
Nd1 O1 1_555 1_555
P1 C3 1_555 1_555
P2 C4 1_555 1_555
N1 H1 1_555 1_555
C1 N1 1_555 1_555
H2 C1 1_555 1_555
H3 C1 1_555 1_555
C2 C1 1_555 1_555
H4 C2 1_555 1_555
H5 C2 1_555 1_555
C3 N1 1_555 1_555
H6 C3 1_555 1_555
H7 C3 1_555 1_555
C4 N1 1_555 1_555
H8 C4 1_555 1_555
H9 C4 1_555 1_555
C5 O1 1_555 1_555
C6 O3 1_555 1_555
O2 C5 1_555 1_555
O3 Nd1 1_555 1_555
O4 C6 1_555 1_555
O5 Nd1 1_555 1_555
O6 P1 1_555 1_555
H10 O6 1_555 1_555
O7 P1 1_555 1_555
O8 P2 1_555 1_555
O9 P2 1_555 1_555
H11 O9 1_555 1_555
O10 P2 1_555 1_555
O11 Nd1 1_555 1_555
O12 H14 1_555 1_555
O13 H16 1_555 1_555
H12 O11 1_555 1_555
H13 O11 1_555 1_555
H15 O12 1_555 1_555
H17 O13 1_555 1_555
Nd1A O2 1_555 1_555
Nd1A_2 O4 1_555 1_555
Nd1A_3 O8 1_555 1_555
Nd1_2 O10 1_555 1_555
Nd1A_4 O5A 1_555 1_555
Nd1_3 O8A 1_555 1_555
Nd1A_5 O10A 1_555 1_555
P1A C3A 1_555 1_555
P2A C4A 1_555 1_555
N1A H1A 1_555 1_555
C1A N1A 1_555 1_555
H2A C1A 1_555 1_555
H3A C1A 1_555 1_555
C2A C2 1_555 1_555
H4A C2A 1_555 1_555
H5A C2A 1_555 1_555
C3A N1A 1_555 1_555
H6A C3A 1_555 1_555
H7A C3A 1_555 1_555
C4A N1A 1_555 1_555
H8A C4A 1_555 1_555
H9A C4A 1_555 1_555
C5A C5 1_555 1_555
C6A C6 1_555 1_555
O1A Nd1A 1_555 1_555
O2A Nd1 1_555 1_555
O3A Nd1A_2 1_555 1_555
O3A_2 Nd1A 1_555 1_555
O4A Nd1 1_555 1_555
O4_2 Nd1A 1_555 1_555
O5A P1A 1_555 1_555
O5A_2 Nd1A 1_555 1_555
O6A P1A 1_555 1_555
H10A O6A 1_555 1_555
O7A P1A 1_555 1_555
O8A P2A 1_555 1_555
O8A_2 Nd1 1_555 1_555
O8_2 Nd1A 1_555 1_555
O9A P2A 1_555 1_555
H11A O9A 1_555 1_555
O10A P2A 1_555 1_555
O10_2 Nd1 1_555 1_555
O10A_2 Nd1A 1_555 1_555
O11A Nd1A 1_555 1_555
H12A O11A 1_555 1_555
H13A O11A 1_555 1_555
P1 O5 1_555 1_555
C1A C2A 1_555 1_555
C5A O1A 1_555 1_555
C5A O2A 1_555 1_555
C6A O3A 1_555 1_555
C6A O4A 1_555 1_555

#END
