
#######################################################################
#
#                 Cambridge Crystallographic Data Centre
#                                CCDC 
#
#######################################################################
#
# If this CIF has been generated from an entry in the Cambridge 
# Structural Database, then it will include bibliographic, chemical, 
# crystal, experimental, refinement or atomic coordinate data resulting 
# from the CCDC's data processing and validation procedures.
#
#######################################################################

data_IDAJUS
_symmetry_cell_setting           trigonal
_symmetry_space_group_name_H-M   'P -3'
_symmetry_Int_Tables_number      147
_space_group_name_Hall           '-P 3'
loop_
_symmetry_equiv_pos_site_id
_symmetry_equiv_pos_as_xyz
1 x,y,z
2 -y,x-y,z
3 -x+y,-x,z
4 -x,-y,-z
5 y,-x+y,-z
6 x-y,x,-z
_cell_length_a                   11.5967(6)
_cell_length_b                   11.5967(6)
_cell_length_c                   7.9982(6)
_cell_angle_alpha                90
_cell_angle_beta                 90
_cell_angle_gamma                120
_cell_volume                     931.519
loop_
_atom_site_label
_atom_site_type_symbol
_atom_site_fract_x
_atom_site_fract_y
_atom_site_fract_z
Cd1 Cd 0.0000 0.0000 0.0000
N1 N 0.0331(2) -0.1496(2) 0.1682(3)
C1 C -0.0470(3) -0.2109(3) 0.2987(4)
H1 H -0.1062 -0.1813 0.3333
C2 C -0.0486(3) -0.3142(3) 0.3855(4)
H2 H -0.1067 -0.3528 0.4782
C3 C 0.0350(3) -0.3620(3) 0.3372(4)
C4 C 0.1195(3) -0.2975(3) 0.2043(4)
H3 H 0.1804 -0.3246 0.1684
C5 C 0.1160(3) -0.1945(3) 0.1237(4)
H4 H 0.1748 -0.1529 0.0323
C6 C 0.0348(3) -0.4796(3) 0.4158(2)
H5 H 0.1281 -0.4586 0.4301
H6 H -0.0092 -0.5562 0.3384
C6C C -0.0348(3) -0.5204(3) 0.5842(2)
C3C C -0.0350(3) -0.6380(3) 0.6628(4)
C2C C 0.0486(3) -0.6858(3) 0.6145(4)
C1C C 0.0470(3) -0.7891(3) 0.7013(4)
N1C N -0.0331(2) -0.8504(2) 0.8318(3)
C5C C -0.1160(3) -0.8055(3) 0.8763(4)
C4C C -0.1195(3) -0.7025(3) 0.7957(4)
H3C H -0.1804 -0.6754 0.8316
H4C H -0.1748 -0.8471 0.9677
H1C H 0.1062 -0.8187 0.6667
H2C H 0.1067 -0.6472 0.5218
H5C H -0.1281 -0.5414 0.5699
H6C H 0.0092 -0.4438 0.6616
N1A N 0.1496(2) 0.1827(3) 0.1682(3)
C1A C 0.2109(3) 0.1639(4) 0.2987(4)
H1A H 0.1813 0.0751 0.3333
C2A C 0.3142(3) 0.2656(4) 0.3855(4)
H2A H 0.3528 0.2461 0.4782
C3A C 0.3620(3) 0.3970(4) 0.3372(4)
C4A C 0.2975(3) 0.4170(4) 0.2043(4)
H3A H 0.3246 0.5050 0.1684
C5A C 0.1945(3) 0.3105(4) 0.1237(4)
H4A H 0.1529 0.3277 0.0323
C6A C 0.4796(3) 0.5144(4) 0.4158(2)
H5A H 0.4586 0.5867 0.4301
H6A H 0.5562 0.5470 0.3384
C6D C 0.5204(3) 0.4856(4) 0.5842(2)
C3D C 0.6380(3) 0.6030(4) 0.6628(4)
C2D C 0.6858(3) 0.7344(4) 0.6145(4)
C1D C 0.7891(3) 0.8361(4) 0.7013(4)
N1D N 0.8504(2) 0.8173(3) 0.8318(3)
C5D C 0.8055(3) 0.6895(4) 0.8763(4)
C4D C 0.7025(3) 0.5830(4) 0.7957(4)
H3D H 0.6754 0.4950 0.8316
H4D H 0.8471 0.6723 0.9677
H1D H 0.8187 0.9249 0.6667
H2D H 0.6472 0.7539 0.5218
H5D H 0.5414 0.4133 0.5699
H6D H 0.4438 0.4530 0.6616
N1B N -0.1827(3) -0.0331(2) 0.1682(3)
C1B C -0.1639(4) 0.0470(3) 0.2987(4)
H1B H -0.0751 0.1062 0.3333
C2B C -0.2656(4) 0.0486(3) 0.3855(4)
H2B H -0.2461 0.1067 0.4782
C3B C -0.3970(4) -0.0350(3) 0.3372(4)
C4B C -0.4170(4) -0.1195(3) 0.2043(4)
H3B H -0.5050 -0.1804 0.1684
C5B C -0.3105(4) -0.1160(3) 0.1237(4)
H4B H -0.3277 -0.1748 0.0323
C6B C -0.5144(4) -0.0348(3) 0.4158(2)
H5B H -0.5867 -0.1281 0.4301
H6B H -0.5470 0.0092 0.3384
C6E C -0.4856(4) 0.0348(3) 0.5842(2)
C3E C -0.6030(4) 0.0350(3) 0.6628(4)
C2E C -0.7344(4) -0.0486(3) 0.6145(4)
C1E C -0.8361(4) -0.0470(3) 0.7013(4)
N1E N -0.8173(3) 0.0331(2) 0.8318(3)
C5E C -0.6895(4) 0.1160(3) 0.8763(4)
C4E C -0.5830(4) 0.1195(3) 0.7957(4)
H3E H -0.4950 0.1804 0.8316
H4E H -0.6723 0.1748 0.9677
H1E H -0.9249 -0.1062 0.6667
H2E H -0.7539 -0.1067 0.5218
H5E H -0.4133 0.1281 0.5699
H6E H -0.4530 -0.0092 0.6616
N1C_2 N -0.0331(2) 0.1496(2) -0.1682(3)
N1D_2 N -0.1496(2) -0.1827(3) -0.1682(3)
N1E_2 N 0.1827(3) 0.0331(2) -0.1682(3)
Cd1_2 Cd 0.0000 -1.0000 1.0000
Cd1_3 Cd 1.0000 1.0000 1.0000
Cd1_4 Cd -1.0000 0.0000 1.0000
Cl1 Cl -0.3333(3) -0.6667(3) 0.1859(2)
O1 O -0.3333(3) -0.6667(3) 0.3652(2)
O3 O -0.2120(3) -0.5616(3) 0.1066(2)
O3A O -0.4384(3) -0.6504(4) 0.1066(2)
O3B O -0.3496(4) -0.7880(3) 0.1066(2)
O2? O -0.3148(3) -0.5334(3) 0.1666(2)
loop_
_geom_bond_atom_site_label_1
_geom_bond_atom_site_label_2
_geom_bond_site_symmetry_1
_geom_bond_site_symmetry_2
Cd1 N1 1_555 1_555
N1 C1 1_555 1_555
C1 H1 1_555 1_555
C2 C1 1_555 1_555
H2 C2 1_555 1_555
C3 C2 1_555 1_555
C4 C3 1_555 1_555
H3 C4 1_555 1_555
C5 N1 1_555 1_555
H4 C5 1_555 1_555
C6 C3 1_555 1_555
H5 C6 1_555 1_555
H6 C6 1_555 1_555
Cl1 O1 1_555 1_555
O3 Cl1 1_555 1_555
C6C C6 1_555 1_555
C3C C6C 1_555 1_555
C2C C3C 1_555 1_555
C1C C2C 1_555 1_555
N1C C1C 1_555 1_555
C5C N1C 1_555 1_555
C4C C3C 1_555 1_555
H3C C4C 1_555 1_555
H4C C5C 1_555 1_555
H1C C1C 1_555 1_555
H2C C2C 1_555 1_555
H5C C6C 1_555 1_555
H6C C6C 1_555 1_555
O3A Cl1 1_555 1_555
O3B Cl1 1_555 1_555
N1A Cd1 1_555 1_555
C1A N1A 1_555 1_555
H1A C1A 1_555 1_555
C2A C1A 1_555 1_555
H2A C2A 1_555 1_555
C3A C2A 1_555 1_555
C4A C3A 1_555 1_555
H3A C4A 1_555 1_555
C5A N1A 1_555 1_555
H4A C5A 1_555 1_555
C6A C3A 1_555 1_555
H5A C6A 1_555 1_555
H6A C6A 1_555 1_555
C6D C6A 1_555 1_555
C3D C6D 1_555 1_555
C2D C3D 1_555 1_555
C1D C2D 1_555 1_555
N1D C1D 1_555 1_555
C5D N1D 1_555 1_555
C4D C3D 1_555 1_555
H3D C4D 1_555 1_555
H4D C5D 1_555 1_555
H1D C1D 1_555 1_555
H2D C2D 1_555 1_555
H5D C6D 1_555 1_555
H6D C6D 1_555 1_555
N1B Cd1 1_555 1_555
C1B N1B 1_555 1_555
H1B C1B 1_555 1_555
C2B C1B 1_555 1_555
H2B C2B 1_555 1_555
C3B C2B 1_555 1_555
C4B C3B 1_555 1_555
H3B C4B 1_555 1_555
C5B N1B 1_555 1_555
H4B C5B 1_555 1_555
C6B C3B 1_555 1_555
H5B C6B 1_555 1_555
H6B C6B 1_555 1_555
C6E C6B 1_555 1_555
C3E C6E 1_555 1_555
C2E C3E 1_555 1_555
C1E C2E 1_555 1_555
N1E C1E 1_555 1_555
C5E N1E 1_555 1_555
C4E C3E 1_555 1_555
H3E C4E 1_555 1_555
H4E C5E 1_555 1_555
H1E C1E 1_555 1_555
H2E C2E 1_555 1_555
H5E C6E 1_555 1_555
H6E C6E 1_555 1_555
N1C_2 Cd1 1_555 1_555
N1D_2 Cd1 1_555 1_555
N1E_2 Cd1 1_555 1_555
Cd1_2 N1C 1_555 1_555
Cd1_3 N1D 1_555 1_555
Cd1_4 N1E 1_555 1_555
C4 C5 1_555 1_555
C5C C4C 1_555 1_555
C4A C5A 1_555 1_555
C5D C4D 1_555 1_555
C4B C5B 1_555 1_555
C5E C4E 1_555 1_555

#END
