
#######################################################################
#
#                 Cambridge Crystallographic Data Centre
#                                CCDC 
#
#######################################################################
#
# If this CIF has been generated from an entry in the Cambridge 
# Structural Database, then it will include bibliographic, chemical, 
# crystal, experimental, refinement or atomic coordinate data resulting 
# from the CCDC's data processing and validation procedures.
#
#######################################################################

data_IDAJOM
_symmetry_cell_setting           monoclinic
_symmetry_space_group_name_H-M   'P 21'
_symmetry_Int_Tables_number      4
_space_group_name_Hall           'P 2yb'
loop_
_symmetry_equiv_pos_site_id
_symmetry_equiv_pos_as_xyz
1 x,y,z
2 -x,1/2+y,-z
_cell_length_a                   11.3220(6)
_cell_length_b                   17.4472(9)
_cell_length_c                   12.0204(6)
_cell_angle_alpha                90
_cell_angle_beta                 112.2680(10)
_cell_angle_gamma                90
_cell_volume                     2197.39
loop_
_atom_site_label
_atom_site_type_symbol
_atom_site_fract_x
_atom_site_fract_y
_atom_site_fract_z
Cd1 Cd 0.78888(2) 1.00038(2) 0.064893(19)
N1 N 0.5975(2) 1.0096(3) 0.1015(2)
C1 C 0.5497(5) 0.9474(3) 0.1328(4)
H1 H 0.5771 0.8998 0.1172
C2 C 0.4630(4) 0.9493(3) 0.1863(4)
H2 H 0.4344 0.9038 0.2077
C3 C 0.4175(3) 1.0182(3) 0.2088(3)
C4 C 0.4620(5) 1.0828(3) 0.1724(4)
H3 H 0.4321 1.1310 0.1823
C5 C 0.5520(5) 1.0753(3) 0.1210(4)
H4 H 0.5823 1.1199 0.0986
N2 N 0.6839(3) 1.0142(3) 0.8554(2)
C6 C 0.7298(4) 0.9872(4) 0.7775(3)
H5 H 0.8036 0.9576 0.8057
C7 C 0.6718(4) 1.0014(5) 0.6542(3)
H6 H 0.7090 0.9828 0.6027
C8 C 0.5626(4) 1.0417(2) 0.6093(3)
C9 C 0.5123(4) 1.0669(3) 0.6881(3)
H7 H 0.4357 1.0939 0.6612
C10 C 0.5755(4) 1.0522(3) 0.8087(3)
H8 H 0.5391 1.0703 0.8611
C11 C 0.3280(3) 1.0222(3) 0.2752(3)
H9 H 0.2586 0.9862 0.2395
H10 H 0.2916 1.0732 0.2667
C12 C 0.3965(3) 1.0035(4) 0.4104(3)
H11 H 0.3341 1.0018 0.4477
H12 H 0.4355 0.9532 0.4189
C13 C 0.4954(4) 1.0604(3) 0.4731(3)
H13 H 0.4567 1.1108 0.4639
H14 H 0.5585 1.0616 0.4366
N3 N 0.9831(3) 0.9893(3) 0.0357(2)
C14 C 1.0168(5) 0.9230(3) 0.0019(4)
H15 H 0.9789 0.8783 0.0149
C15 C 1.1059(4) 0.9166(3) -0.0522(4)
H16 H 1.1284 0.8688 -0.0721
C16 C 1.1597(4) 0.9817(3) -0.0756(3)
C17 C 1.1294(4) 1.0505(3) -0.0363(4)
H17 H 1.1684 1.0955 -0.0460
C18 C 1.0413(4) 1.0524(3) 0.0174(4)
H18 H 1.0212 1.0995 0.0421
N4 N 0.8977(3) 0.9946(3) -0.7231(2)
C19 C 0.9936(4) 1.0434(2) -0.6703(3)
H19 H 1.0241 1.0725 -0.7186
C20 C 1.0492(4) 1.0526(2) -0.5479(3)
H20 H 1.1146 1.0880 -0.5148
C21 C 1.0070(3) 1.0085(4) -0.4732(3)
C22 C 0.9116(4) 0.9582(2) -0.5279(3)
H21 H 0.8812 0.9273 -0.4815
C23 C 0.8589(4) 0.9522(2) -0.6514(3)
H22 H 0.7935 0.9170 -0.6860
C24 C 1.2475(3) 0.9792(3) -0.1437(3)
H23 H 1.3111 0.9395 -0.1097
H24 H 1.2916 1.0278 -0.1346
C25 C 1.1731(4) 0.9627(2) -0.2794(3)
H25 H 1.2320 0.9646 -0.3206
H26 H 1.1379 0.9113 -0.2886
C26 C 1.0657(4) 1.0192(3) -0.3381(3)
H27 H 1.0005 1.0124 -0.3051
H28 H 1.0985 1.0710 -0.3200
O1 O 0.7608(4) 0.8701(2) 0.0343(4)
H43 H 0.680(5) 0.847(3) -0.035(4)
H44 H 0.750(5) 0.847(3) 0.067(4)
O2 O 0.8042(3) 1.1351(2) 0.0726(3)
H45 H 0.835(4) 1.164(2) 0.129(4)
H46 H 0.794(4) 1.163(2) 0.006(4)
N2_2 N 0.6839(3) 1.0142(3) -0.1446(2)
N4_2 N 0.8977(3) 0.9946(3) 0.2769(2)
Cd1_2 Cd 0.78888(2) 1.00038(2) 1.064893(19)
Cd1_3 Cd 0.78888(2) 1.00038(2) -0.935107(19)
N5 N 1.1996(4) 0.7202(2) 0.1186(3)
C27 C 1.3018(5) 0.7470(3) 0.2060(4)
H29 H 1.3807 0.7403 0.2002
C28 C 1.2976(4) 0.7843(3) 0.3054(4)
H30 H 1.3727 0.8029 0.3633
C29 C 1.1829(5) 0.7945(3) 0.3205(5)
C30 C 1.0753(5) 0.7662(4) 0.2274(5)
H31 H 0.9947 0.7716 0.2299
C31 C 1.0903(6) 0.7308(4) 0.1331(5)
H32 H 1.0169 0.7121 0.0729
N6 N 1.5561(4) 0.8170(2) 0.8467(4)
C32 C 1.5578(4) 0.8002(3) 0.7402(5)
H33 H 1.6313 0.8117 0.7264
C33 C 1.4580(5) 0.7667(3) 0.6486(4)
H34 H 1.4665 0.7554 0.5764
C34 C 1.3469(4) 0.7501(3) 0.6622(4)
C35 C 1.3442(5) 0.7681(3) 0.7750(5)
H35 H 1.2717 0.7574 0.7910
C36 C 1.4488(6) 0.8017(3) 0.8623(5)
H36 H 1.4437 0.8142 0.9356
C37 C 1.2330(5) 0.7150(3) 0.5658(4)
H37 H 1.1965 0.6763 0.6012
H38 H 1.2599 0.6899 0.5073
C38 C 1.1321(4) 0.7746(3) 0.5028(4)
H39 H 1.0554 0.7486 0.4507
H40 H 1.1113 0.8025 0.5627
C39 C 1.1723(4) 0.8312(3) 0.4287(4)
H41 H 1.1105 0.8725 0.4032
H42 H 1.2542 0.8532 0.4781
O3 O 0.6281(4) 0.8244(3) -0.5429(3)
Cl1 Cl 0.90083(14) 0.75149(8) -0.26759(12)
O4 O 1.0299(3) 0.7368(2) -0.2518(3)
O5 O 0.8681(3) 0.8275(2) -0.2995(3)
O6 O 0.8903(5) 0.7380(3) -0.1580(4)
O7 O 0.8172(5) 0.7032(3) -0.3481(5)
Cl2 Cl 0.69280(15) 0.71855(9) 0.21170(16)
O8 O 0.7289(5) 0.6703(3) 0.3076(5)
O9 O 0.7890(11) 0.7338(10) 0.1725(19)
O11 O 0.599(2) 0.6804(15) 0.1353(15)
O13 O 0.649(2) 0.7813(10) 0.2408(15)
O10? O 0.5811(13) 0.7527(13) 0.1757(18)
O12? O 0.7753(13) 0.7811(7) 0.2444(9)
O14? O 0.704(3) 0.6890(13) 0.1106(13)
loop_
_geom_bond_atom_site_label_1
_geom_bond_atom_site_label_2
_geom_bond_site_symmetry_1
_geom_bond_site_symmetry_2
Cd1 N1 1_555 1_555
N1 C1 1_555 1_555
C1 H1 1_555 1_555
C2 C1 1_555 1_555
H2 C2 1_555 1_555
C3 C2 1_555 1_555
C4 C3 1_555 1_555
H3 C4 1_555 1_555
C5 N1 1_555 1_555
H4 C5 1_555 1_555
N2 C6 1_555 1_555
C6 H5 1_555 1_555
C7 C6 1_555 1_555
H6 C7 1_555 1_555
C8 C7 1_555 1_555
C9 C8 1_555 1_555
H7 C9 1_555 1_555
C10 N2 1_555 1_555
H8 C10 1_555 1_555
C11 C3 1_555 1_555
H9 C11 1_555 1_555
H10 C11 1_555 1_555
C12 C11 1_555 1_555
H11 C12 1_555 1_555
H12 C12 1_555 1_555
C13 C8 1_555 1_555
H13 C13 1_555 1_555
H14 C13 1_555 1_555
N3 Cd1 1_555 1_555
C14 N3 1_555 1_555
H15 C14 1_555 1_555
C15 C14 1_555 1_555
H16 C15 1_555 1_555
C16 C15 1_555 1_555
C17 C16 1_555 1_555
H17 C17 1_555 1_555
C18 N3 1_555 1_555
H18 C18 1_555 1_555
N4 C19 1_555 1_555
C19 H19 1_555 1_555
C20 C19 1_555 1_555
H20 C20 1_555 1_555
C21 C20 1_555 1_555
C22 C21 1_555 1_555
H21 C22 1_555 1_555
C23 N4 1_555 1_555
H22 C23 1_555 1_555
C24 C16 1_555 1_555
H23 C24 1_555 1_555
H24 C24 1_555 1_555
C25 C24 1_555 1_555
H25 C25 1_555 1_555
H26 C25 1_555 1_555
C26 C21 1_555 1_555
H27 C26 1_555 1_555
H28 C26 1_555 1_555
N5 C27 1_555 1_555
C27 H29 1_555 1_555
C28 C27 1_555 1_555
H30 C28 1_555 1_555
C29 C28 1_555 1_555
C30 C29 1_555 1_555
H31 C30 1_555 1_555
C31 N5 1_555 1_555
H32 C31 1_555 1_555
N6 C32 1_555 1_555
C32 H33 1_555 1_555
C33 C32 1_555 1_555
H34 C33 1_555 1_555
C34 C33 1_555 1_555
C35 C34 1_555 1_555
H35 C35 1_555 1_555
C36 N6 1_555 1_555
H36 C36 1_555 1_555
C37 C34 1_555 1_555
H37 C37 1_555 1_555
H38 C37 1_555 1_555
C38 C37 1_555 1_555
H39 C38 1_555 1_555
H40 C38 1_555 1_555
C39 C29 1_555 1_555
H41 C39 1_555 1_555
H42 C39 1_555 1_555
O1 Cd1 1_555 1_555
H43 O1 1_555 1_555
H44 O1 1_555 1_555
O2 Cd1 1_555 1_555
H45 O2 1_555 1_555
H46 O2 1_555 1_555
Cl1 O4 1_555 1_555
O5 Cl1 1_555 1_555
O6 Cl1 1_555 1_555
O7 Cl1 1_555 1_555
Cl2 O8 1_555 1_555
O9 Cl2 1_555 1_555
O11 Cl2 1_555 1_555
O13 Cl2 1_555 1_555
N2_2 Cd1 1_555 1_555
N4_2 Cd1 1_555 1_555
Cd1_2 N2 1_555 1_555
Cd1_3 N4 1_555 1_555
C4 C5 1_555 1_555
C9 C10 1_555 1_555
C12 C13 1_555 1_555
C17 C18 1_555 1_555
C22 C23 1_555 1_555
C25 C26 1_555 1_555
C30 C31 1_555 1_555
C35 C36 1_555 1_555
C38 C39 1_555 1_555

#END
