
#######################################################################
#
#                 Cambridge Crystallographic Data Centre
#                                CCDC 
#
#######################################################################
#
# If this CIF has been generated from an entry in the Cambridge 
# Structural Database, then it will include bibliographic, chemical, 
# crystal, experimental, refinement or atomic coordinate data resulting 
# from the CCDC's data processing and validation procedures.
#
#######################################################################

data_IDAKED
_symmetry_cell_setting           triclinic
_symmetry_space_group_name_H-M   'P -1'
_symmetry_Int_Tables_number      2
_space_group_name_Hall           '-P 1'
loop_
_symmetry_equiv_pos_site_id
_symmetry_equiv_pos_as_xyz
1 x,y,z
2 -x,-y,-z
_cell_length_a                   10.18150(10)
_cell_length_b                   13.7835(2)
_cell_length_c                   21.3599(2)
_cell_angle_alpha                91.0353(6)
_cell_angle_beta                 102.1317(7)
_cell_angle_gamma                105.7264(7)
_cell_volume                     2811.95
loop_
_atom_site_label
_atom_site_type_symbol
_atom_site_fract_x
_atom_site_fract_y
_atom_site_fract_z
Cd1 Cd 0.5000 0.0000 0.5000
O1 O 0.69713(15) 0.12120(12) 0.48032(7)
N1 N 0.82201(19) 0.11919(15) 0.48127(9)
O2 O 0.8526(2) 0.1124(2) 0.42839(9)
O3 O 0.90436(17) 0.12104(15) 0.53211(8)
N2 N 0.44270(18) -0.06454(14) 0.39306(8)
C1 C 0.5202(2) -0.02659(17) 0.35089(10)
H1 H 0.6045 0.0260 0.3658
C2 C 0.4824(2) -0.06076(18) 0.28669(10)
H2 H 0.5400 -0.0310 0.2585
C3 C 0.3613(2) -0.13801(18) 0.26317(10)
C4 C 0.2822(2) -0.17749(19) 0.30703(11)
H3 H 0.1981 -0.2307 0.2934
C5 C 0.3253(2) -0.13970(18) 0.37024(10)
H4 H 0.2692 -0.1682 0.3993
C6 C 0.3179(2) -0.1760(2) 0.19333(10)
H5 H 0.2788 -0.2505 0.1898
H6 H 0.4015 -0.1601 0.1746
C7 C 0.2083(2) -0.12941(17) 0.15443(9)
H7 H 0.1179 -0.1561 0.1671
H8 H 0.2390 -0.0551 0.1641
C8 C 0.1885(2) -0.15397(17) 0.08281(10)
C9 C 0.2669(2) -0.08362(18) 0.04921(11)
H9 H 0.3251 -0.0211 0.0709
C10 C 0.2618(2) -0.10318(19) -0.01541(11)
H10 H 0.3159 -0.0545 -0.0377
C11 C 0.1776(2) -0.19362(19) -0.04681(10)
H11 H 0.1743 -0.2080 -0.0909
C12 C 0.0977(2) -0.26393(18) -0.01427(10)
H12 H 0.0397 -0.3261 -0.0366
C13 C 0.1003(2) -0.24565(17) 0.05058(9)
C14 C 0.0088(2) -0.32149(17) 0.08514(10)
H13 H -0.0371 -0.2848 0.1101
H14 H 0.0695 -0.3523 0.1161
C15 C -0.1037(2) -0.40585(18) 0.04178(10)
H15 H -0.1531 -0.3763 0.0054
H16 H -0.0590 -0.4520 0.0239
N3 N -0.40432(19) -0.57873(14) 0.14166(8)
C16 C -0.2704(2) -0.57873(17) 0.15663(10)
H17 H -0.2420 -0.6176 0.1905
C17 C -0.1709(2) -0.52527(18) 0.12556(10)
H18 H -0.0774 -0.5294 0.1371
C18 C -0.2085(2) -0.46528(17) 0.07717(9)
C19 C -0.3460(2) -0.46174(17) 0.06356(10)
H19 H -0.3753 -0.4194 0.0322
C20 C -0.4408(2) -0.51948(17) 0.09541(10)
H20 H -0.5353 -0.5174 0.0843
N4 N 0.38238(18) 0.12060(14) 0.46638(8)
C21 C 0.4341(2) 0.19183(18) 0.43008(10)
H21 H 0.5189 0.1917 0.4182
C22 C 0.3719(2) 0.26593(19) 0.40858(11)
H22 H 0.4137 0.3151 0.3827
C23 C 0.2480(2) 0.26837(18) 0.42500(11)
C24 C 0.1940(2) 0.19381(19) 0.46257(13)
H23 H 0.1088 0.1916 0.4748
C25 C 0.2632(3) 0.12276(19) 0.48229(12)
H24 H 0.2243 0.0729 0.5085
C26 C 0.1715(3) 0.3456(2) 0.40330(14)
H25 H 0.1285 0.3612 0.4383
H26 H 0.0943 0.3142 0.3660
C27 C 0.2563(2) 0.44450(19) 0.38459(12)
H27 H 0.2899 0.4320 0.3458
H28 H 0.3390 0.4747 0.4198
C28 C 0.1674(2) 0.51703(18) 0.37127(10)
C29 C 0.0825(3) 0.51044(19) 0.30986(11)
H29 H 0.0887 0.4653 0.2772
C30 C -0.0100(3) 0.5677(2) 0.29557(11)
H30 H -0.0671 0.5614 0.2535
C31 C -0.0197(2) 0.63391(18) 0.34216(11)
H31 H -0.0851 0.6724 0.3328
C32 C 0.0659(2) 0.64401(17) 0.40243(10)
H32 H 0.0603 0.6911 0.4341
C33 C 0.1607(2) 0.58701(17) 0.41823(9)
C34 C 0.2532(2) 0.6063(2) 0.48559(10)
H33 H 0.2940 0.6801 0.4958
H34 H 0.3314 0.5760 0.4867
C35 C 0.1746(2) 0.5628(2) 0.53713(10)
H35 H 0.0878 0.5842 0.5316
H36 H 0.1473 0.4880 0.5313
N5 N 0.43268(17) 0.66535(14) 0.72641(8)
C36 C 0.3605(2) 0.72241(18) 0.69297(9)
H37 H 0.3687 0.7876 0.7114
C37 C 0.2739(2) 0.69083(19) 0.63251(10)
H38 H 0.2235 0.7337 0.6107
C38 C 0.2612(2) 0.59672(19) 0.60416(10)
C39 C 0.3334(2) 0.53641(19) 0.63968(11)
H39 H 0.3255 0.4704 0.6227
C40 C 0.4168(2) 0.57274(18) 0.69975(10)
H40 H 0.4651 0.5302 0.7233
Cd2 Cd -0.577890(14) -0.716560(12) 0.170440(6)
O4 O -0.53800(16) -0.88477(13) 0.18043(7)
N6 N -0.41961(19) -0.87935(14) 0.16850(8)
O5 O -0.38550(19) -0.95651(13) 0.15966(8)
O6 O -0.33995(19) -0.79424(13) 0.16650(8)
O7 O -0.74383(16) -0.63186(13) 0.11821(7)
N7 N -0.75696(19) -0.56814(16) 0.15858(10)
O8 O -0.6909(2) -0.56358(17) 0.21472(8)
O9 O -0.8346(2) -0.51531(19) 0.14111(11)
N8 N -0.62782(19) -0.77635(15) 0.06103(8)
C41 C -0.7582(2) -0.81501(18) 0.02654(10)
H41 H -0.8333 -0.8247 0.0478
C42 C -0.7893(2) -0.84175(18) -0.03894(10)
H42 H -0.8837 -0.8702 -0.0613
C43 C -0.6824(2) -0.82684(17) -0.07161(10)
C44 C -0.5473(3) -0.7888(2) -0.03552(11)
H43 H -0.4704 -0.7790 -0.0557
C45 C -0.5237(2) -0.76521(19) 0.02952(10)
H44 H -0.4298 -0.7399 0.0533
C46 C -0.7089(3) -0.84801(18) -0.14349(10)
H45 H -0.6332 -0.8732 -0.1540
H46 H -0.7986 -0.9012 -0.1587
C47 C -0.7149(3) -0.75151(18) -0.17808(10)
H47 H -0.6462 -0.6928 -0.1513
H48 H -0.8090 -0.7421 -0.1815
C48 C -0.6852(2) -0.75151(17) -0.24470(10)
C49 C -0.5609(2) -0.68616(18) -0.25371(12)
H49 H -0.4976 -0.6442 -0.2182
C50 C -0.5277(3) -0.68121(19) -0.31365(13)
H50 H -0.4418 -0.6369 -0.3188
C51 C -0.6188(2) -0.74022(19) -0.36503(12)
H51 H -0.5969 -0.7367 -0.4062
C52 C -0.7430(2) -0.80520(18) -0.35725(10)
H52 H -0.8059 -0.8457 -0.3934
C53 C -0.7781(2) -0.81270(17) -0.29735(10)
C54 C -0.9140(2) -0.88669(17) -0.29232(10)
H53 H -0.9421 -0.8666 -0.2535
H54 H -0.9878 -0.8841 -0.3302
C55 C -0.9031(2) -0.99574(17) -0.28863(10)
H55 H -0.8121 -0.9948 -0.2604
H56 H -0.9050 -1.0232 -0.3321
N9 N -1.23468(18) -1.18710(15) -0.21224(8)
C56 C -1.1008(2) -1.1846(2) -0.19030(11)
H57 H -1.0792 -1.2256 -0.1566
C57 C -0.9924(2) -1.1257(2) -0.21401(12)
H58 H -0.8990 -1.1268 -0.1966
C58 C -1.0194(2) -1.06486(17) -0.26329(10)
C59 C -1.1596(2) -1.06884(18) -0.28670(10)
H59 H -1.1847 -1.0299 -0.3211
C60 C -1.2615(2) -1.12925(18) -0.25989(10)
H60 H -1.3560 -1.1297 -0.2762
O1A O 0.30287(15) -0.12120(12) 0.51968(7)
N1A N 0.17799(19) -0.11919(15) 0.51873(9)
O2A O 0.1474(2) -0.1124(2) 0.57161(9)
O3A O 0.09564(17) -0.12104(15) 0.46789(8)
N2A N 0.55730(18) 0.06454(14) 0.60694(8)
C1A C 0.4798(2) 0.02659(17) 0.64911(10)
H1A H 0.3955 -0.0260 0.6342
C2A C 0.5176(2) 0.06076(18) 0.71331(10)
H2A H 0.4600 0.0310 0.7415
C3A C 0.6387(2) 0.13801(18) 0.73683(10)
C4A C 0.7178(2) 0.17749(19) 0.69297(11)
H3A H 0.8019 0.2307 0.7066
C5A C 0.6747(2) 0.13970(18) 0.62976(10)
H4A H 0.7308 0.1682 0.6007
C6A C 0.6821(2) 0.1760(2) 0.80667(10)
H5A H 0.7212 0.2505 0.8102
H6A H 0.5985 0.1601 0.8254
C7A C 0.7917(2) 0.12941(17) 0.84557(9)
H7A H 0.8821 0.1561 0.8329
H8A H 0.7610 0.0551 0.8359
C8A C 0.8115(2) 0.15397(17) 0.91719(10)
C9A C 0.7331(2) 0.08362(18) 0.95079(11)
H9A H 0.6749 0.0211 0.9291
C10A C 0.7382(2) 0.10318(19) 1.01541(11)
H10A H 0.6841 0.0545 1.0377
C11A C 0.8224(2) 0.19362(19) 1.04681(10)
H11A H 0.8257 0.2080 1.0909
C12A C 0.9023(2) 0.26393(18) 1.01427(10)
H12A H 0.9603 0.3261 1.0366
C13A C 0.8997(2) 0.24565(17) 0.94942(9)
C14A C 0.9912(2) 0.32149(17) 0.91486(10)
H13A H 1.0371 0.2848 0.8899
H14A H 0.9305 0.3523 0.8839
C15A C 1.1037(2) 0.40585(18) 0.95822(10)
H15A H 1.1531 0.3763 0.9946
H16A H 1.0590 0.4520 0.9761
N3A N 1.40432(19) 0.57873(14) 0.85834(8)
C16A C 1.2704(2) 0.57873(17) 0.84337(10)
H17A H 1.2420 0.6176 0.8095
C17A C 1.1709(2) 0.52527(18) 0.87444(10)
H18A H 1.0774 0.5294 0.8629
C18A C 1.2085(2) 0.46528(17) 0.92283(9)
C19A C 1.3460(2) 0.46174(17) 0.93644(10)
H19A H 1.3753 0.4194 0.9678
C20A C 1.4408(2) 0.51948(17) 0.90459(10)
H20A H 1.5353 0.5174 0.9157
N4A N 0.61762(18) -0.12060(14) 0.53362(8)
C21A C 0.5659(2) -0.19183(18) 0.56992(10)
H21A H 0.4811 -0.1917 0.5818
C22A C 0.6281(2) -0.26593(19) 0.59142(11)
H22A H 0.5863 -0.3151 0.6173
C23A C 0.7520(2) -0.26837(18) 0.57500(11)
C24A C 0.8060(2) -0.19381(19) 0.53743(13)
H23A H 0.8912 -0.1916 0.5252
C25A C 0.7368(3) -0.12276(19) 0.51771(12)
H24A H 0.7757 -0.0729 0.4915
C26A C 0.8285(3) -0.3456(2) 0.59670(14)
H25A H 0.8715 -0.3612 0.5617
H26A H 0.9057 -0.3142 0.6340
C27A C 0.7437(2) -0.44450(19) 0.61541(12)
H27A H 0.7101 -0.4320 0.6542
H28A H 0.6610 -0.4747 0.5802
C28A C 0.8326(2) -0.51703(18) 0.62873(10)
C29A C 0.9175(3) -0.51044(19) 0.69014(11)
H29A H 0.9113 -0.4653 0.7228
C30A C 1.0100(3) -0.5677(2) 0.70443(11)
H30A H 1.0671 -0.5614 0.7465
C31A C 1.0197(2) -0.63391(18) 0.65784(11)
H31A H 1.0851 -0.6724 0.6672
C32A C 0.9341(2) -0.64401(17) 0.59757(10)
H32A H 0.9397 -0.6911 0.5659
C33A C 0.8393(2) -0.58701(17) 0.58177(9)
C34A C 0.7468(2) -0.6063(2) 0.51441(10)
H33A H 0.7060 -0.6801 0.5042
H34A H 0.6686 -0.5760 0.5133
C35A C 0.8254(2) -0.5628(2) 0.46287(10)
H35A H 0.9122 -0.5842 0.4684
H36A H 0.8527 -0.4880 0.4687
N5A N 0.56732(17) -0.66535(14) 0.27359(8)
C36A C 0.6395(2) -0.72241(18) 0.30703(9)
H37A H 0.6313 -0.7876 0.2886
C37A C 0.7261(2) -0.69083(19) 0.36749(10)
H38A H 0.7765 -0.7337 0.3893
C38A C 0.7388(2) -0.59672(19) 0.39584(10)
C39A C 0.6666(2) -0.53641(19) 0.36032(11)
H39A H 0.6745 -0.4704 0.3773
C40A C 0.5832(2) -0.57274(18) 0.30025(10)
H40A H 0.5349 -0.5302 0.2767
Cd2A Cd 1.577890(14) 0.716560(12) 0.829560(6)
N8A N -1.37218(19) -1.22365(15) -0.06103(8)
C41A C -1.2418(2) -1.18499(18) -0.02654(10)
H41A H -1.1667 -1.1753 -0.0478
C42A C -1.2107(2) -1.15825(18) 0.03894(10)
H42A H -1.1163 -1.1298 0.0613
C43A C -1.3176(2) -1.17316(17) 0.07161(10)
C44A C -1.4527(3) -1.2112(2) 0.03552(11)
H43A H -1.5296 -1.2210 0.0557
C45A C -1.4763(2) -1.23479(19) -0.02952(10)
H44A H -1.5702 -1.2601 -0.0533
C46A C -1.2911(3) -1.15199(18) 0.14349(10)
H45A H -1.3668 -1.1268 0.1540
H46A H -1.2014 -1.0988 0.1587
C47A C -1.2851(3) -1.24849(18) 0.17808(10)
H47A H -1.3538 -1.3072 0.1513
H48A H -1.1910 -1.2579 0.1815
C48A C -1.3148(2) -1.24849(17) 0.24470(10)
C49A C -1.4391(2) -1.31384(18) 0.25371(12)
H49A H -1.5024 -1.3558 0.2182
C50A C -1.4723(3) -1.31879(19) 0.31365(13)
H50A H -1.5582 -1.3631 0.3188
C51A C -1.3812(2) -1.25978(19) 0.36503(12)
H51A H -1.4031 -1.2633 0.4062
C52A C -1.2570(2) -1.19480(18) 0.35725(10)
H52A H -1.1941 -1.1543 0.3934
C53A C -1.2219(2) -1.18730(17) 0.29735(10)
C54A C -1.0860(2) -1.11331(17) 0.29232(10)
H53A H -1.0579 -1.1334 0.2535
H54A H -1.0122 -1.1159 0.3302
C55A C -1.0969(2) -1.00426(17) 0.28863(10)
H55A H -1.1879 -1.0052 0.2604
H56A H -1.0950 -0.9768 0.3321
N9A N -0.76532(18) -0.81290(15) 0.21224(8)
C56A C -0.8992(2) -0.8154(2) 0.19030(11)
H57A H -0.9208 -0.7744 0.1566
C57A C -1.0076(2) -0.8743(2) 0.21401(12)
H58A H -1.1010 -0.8732 0.1966
C58A C -0.9806(2) -0.93514(17) 0.26329(10)
C59A C -0.8404(2) -0.93116(18) 0.28670(10)
H59A H -0.8153 -0.9701 0.3211
C60A C -0.7385(2) -0.87075(18) 0.25989(10)
H60A H -0.6440 -0.8703 0.2762
O4A O 1.53800(16) 0.88477(13) 0.81957(7)
N6A N 1.41961(19) 0.87935(14) 0.83150(8)
O5A O 1.38550(19) 0.95651(13) 0.84034(8)
O6A O 1.33995(19) 0.79424(13) 0.83350(8)
O7A O 1.74383(16) 0.63186(13) 0.88179(7)
N7A N 1.75696(19) 0.56814(16) 0.84142(10)
O8A O 1.6909(2) 0.56358(17) 0.78528(8)
O9A O 1.8346(2) 0.51531(19) 0.85889(11)
Cd2A_2 Cd 0.577890(14) 0.716560(12) 0.829560(6)
N5A_2 N -0.43268(17) -0.66535(14) 0.27359(8)
Cd2A_3 Cd -1.422110(14) -1.283440(12) -0.170440(6)
Cd2_2 Cd 0.422110(14) -0.716560(12) 0.170440(6)
N5_2 N 1.43268(17) 0.66535(14) 0.72641(8)
N8A_2 N 1.62782(19) 0.77635(15) 0.93897(8)
N9_2 N 1.76532(18) 0.81290(15) 0.78776(8)
loop_
_geom_bond_atom_site_label_1
_geom_bond_atom_site_label_2
_geom_bond_site_symmetry_1
_geom_bond_site_symmetry_2
Cd1 O1 1_555 1_555
O1 N1 1_555 1_555
N1 O2 1_555 1_555
O3 N1 1_555 1_555
N2 Cd1 1_555 1_555
C1 N2 1_555 1_555
H1 C1 1_555 1_555
C2 C1 1_555 1_555
H2 C2 1_555 1_555
C3 C2 1_555 1_555
C4 C3 1_555 1_555
H3 C4 1_555 1_555
C5 N2 1_555 1_555
H4 C5 1_555 1_555
C6 C3 1_555 1_555
H5 C6 1_555 1_555
H6 C6 1_555 1_555
C7 C6 1_555 1_555
H7 C7 1_555 1_555
H8 C7 1_555 1_555
C8 C7 1_555 1_555
C9 C8 1_555 1_555
H9 C9 1_555 1_555
C10 C9 1_555 1_555
H10 C10 1_555 1_555
C11 C10 1_555 1_555
H11 C11 1_555 1_555
C12 C11 1_555 1_555
H12 C12 1_555 1_555
C13 C8 1_555 1_555
C14 C13 1_555 1_555
H13 C14 1_555 1_555
H14 C14 1_555 1_555
C15 C14 1_555 1_555
H15 C15 1_555 1_555
H16 C15 1_555 1_555
N3 C16 1_555 1_555
C16 H17 1_555 1_555
C17 C16 1_555 1_555
H18 C17 1_555 1_555
C18 C15 1_555 1_555
C19 C18 1_555 1_555
H19 C19 1_555 1_555
C20 N3 1_555 1_555
H20 C20 1_555 1_555
N4 Cd1 1_555 1_555
C21 N4 1_555 1_555
H21 C21 1_555 1_555
C22 C21 1_555 1_555
H22 C22 1_555 1_555
C23 C22 1_555 1_555
C24 C23 1_555 1_555
H23 C24 1_555 1_555
C25 N4 1_555 1_555
H24 C25 1_555 1_555
C26 C23 1_555 1_555
H25 C26 1_555 1_555
H26 C26 1_555 1_555
C27 C26 1_555 1_555
H27 C27 1_555 1_555
H28 C27 1_555 1_555
C28 C27 1_555 1_555
C29 C28 1_555 1_555
H29 C29 1_555 1_555
C30 C29 1_555 1_555
H30 C30 1_555 1_555
C31 C30 1_555 1_555
H31 C31 1_555 1_555
C32 C31 1_555 1_555
H32 C32 1_555 1_555
C33 C28 1_555 1_555
C34 C33 1_555 1_555
H33 C34 1_555 1_555
H34 C34 1_555 1_555
C35 C34 1_555 1_555
H35 C35 1_555 1_555
H36 C35 1_555 1_555
N5 C36 1_555 1_555
C36 H37 1_555 1_555
C37 C36 1_555 1_555
H38 C37 1_555 1_555
C38 C35 1_555 1_555
C39 C38 1_555 1_555
H39 C39 1_555 1_555
C40 N5 1_555 1_555
H40 C40 1_555 1_555
Cd2 N3 1_555 1_555
O4 Cd2 1_555 1_555
N6 O4 1_555 1_555
O5 N6 1_555 1_555
O6 Cd2 1_555 1_555
O7 Cd2 1_555 1_555
N7 O7 1_555 1_555
O8 Cd2 1_555 1_555
O9 N7 1_555 1_555
N8 Cd2 1_555 1_555
C41 N8 1_555 1_555
H41 C41 1_555 1_555
C42 C41 1_555 1_555
H42 C42 1_555 1_555
C43 C42 1_555 1_555
C44 C43 1_555 1_555
H43 C44 1_555 1_555
C45 N8 1_555 1_555
H44 C45 1_555 1_555
C46 C43 1_555 1_555
H45 C46 1_555 1_555
H46 C46 1_555 1_555
C47 C46 1_555 1_555
H47 C47 1_555 1_555
H48 C47 1_555 1_555
C48 C47 1_555 1_555
C49 C48 1_555 1_555
H49 C49 1_555 1_555
C50 C49 1_555 1_555
H50 C50 1_555 1_555
C51 C50 1_555 1_555
H51 C51 1_555 1_555
C52 C51 1_555 1_555
H52 C52 1_555 1_555
C53 C48 1_555 1_555
C54 C53 1_555 1_555
H53 C54 1_555 1_555
H54 C54 1_555 1_555
C55 C54 1_555 1_555
H55 C55 1_555 1_555
H56 C55 1_555 1_555
N9 C56 1_555 1_555
C56 H57 1_555 1_555
C57 C56 1_555 1_555
H58 C57 1_555 1_555
C58 C55 1_555 1_555
C59 C58 1_555 1_555
H59 C59 1_555 1_555
C60 N9 1_555 1_555
H60 C60 1_555 1_555
O1A Cd1 1_555 1_555
N1A O1A 1_555 1_555
O2A N1A 1_555 1_555
O3A N1A 1_555 1_555
N2A Cd1 1_555 1_555
C1A N2A 1_555 1_555
H1A C1A 1_555 1_555
C2A C1A 1_555 1_555
H2A C2A 1_555 1_555
C3A C2A 1_555 1_555
C4A C3A 1_555 1_555
H3A C4A 1_555 1_555
C5A N2A 1_555 1_555
H4A C5A 1_555 1_555
C6A C3A 1_555 1_555
H5A C6A 1_555 1_555
H6A C6A 1_555 1_555
C7A C6A 1_555 1_555
H7A C7A 1_555 1_555
H8A C7A 1_555 1_555
C8A C7A 1_555 1_555
C9A C8A 1_555 1_555
H9A C9A 1_555 1_555
C10A C9A 1_555 1_555
H10A C10A 1_555 1_555
C11A C10A 1_555 1_555
H11A C11A 1_555 1_555
C12A C11A 1_555 1_555
H12A C12A 1_555 1_555
C13A C8A 1_555 1_555
C14A C13A 1_555 1_555
H13A C14A 1_555 1_555
H14A C14A 1_555 1_555
C15A C14A 1_555 1_555
H15A C15A 1_555 1_555
H16A C15A 1_555 1_555
N3A C16A 1_555 1_555
C16A H17A 1_555 1_555
C17A C16A 1_555 1_555
H18A C17A 1_555 1_555
C18A C15A 1_555 1_555
C19A C18A 1_555 1_555
H19A C19A 1_555 1_555
C20A N3A 1_555 1_555
H20A C20A 1_555 1_555
N4A Cd1 1_555 1_555
C21A N4A 1_555 1_555
H21A C21A 1_555 1_555
C22A C21A 1_555 1_555
H22A C22A 1_555 1_555
C23A C22A 1_555 1_555
C24A C23A 1_555 1_555
H23A C24A 1_555 1_555
C25A N4A 1_555 1_555
H24A C25A 1_555 1_555
C26A C23A 1_555 1_555
H25A C26A 1_555 1_555
H26A C26A 1_555 1_555
C27A C26A 1_555 1_555
H27A C27A 1_555 1_555
H28A C27A 1_555 1_555
C28A C27A 1_555 1_555
C29A C28A 1_555 1_555
H29A C29A 1_555 1_555
C30A C29A 1_555 1_555
H30A C30A 1_555 1_555
C31A C30A 1_555 1_555
H31A C31A 1_555 1_555
C32A C31A 1_555 1_555
H32A C32A 1_555 1_555
C33A C28A 1_555 1_555
C34A C33A 1_555 1_555
H33A C34A 1_555 1_555
H34A C34A 1_555 1_555
C35A C34A 1_555 1_555
H35A C35A 1_555 1_555
H36A C35A 1_555 1_555
N5A C36A 1_555 1_555
C36A H37A 1_555 1_555
C37A C36A 1_555 1_555
H38A C37A 1_555 1_555
C38A C35A 1_555 1_555
C39A C38A 1_555 1_555
H39A C39A 1_555 1_555
C40A N5A 1_555 1_555
H40A C40A 1_555 1_555
Cd2A N3A 1_555 1_555
N8A C41A 1_555 1_555
C41A H41A 1_555 1_555
C42A C41A 1_555 1_555
H42A C42A 1_555 1_555
C43A C42A 1_555 1_555
C44A C43A 1_555 1_555
H43A C44A 1_555 1_555
C45A N8A 1_555 1_555
H44A C45A 1_555 1_555
C46A C43A 1_555 1_555
H45A C46A 1_555 1_555
H46A C46A 1_555 1_555
C47A C46A 1_555 1_555
H47A C47A 1_555 1_555
H48A C47A 1_555 1_555
C48A C47A 1_555 1_555
C49A C48A 1_555 1_555
H49A C49A 1_555 1_555
C50A C49A 1_555 1_555
H50A C50A 1_555 1_555
C51A C50A 1_555 1_555
H51A C51A 1_555 1_555
C52A C51A 1_555 1_555
H52A C52A 1_555 1_555
C53A C48A 1_555 1_555
C54A C53A 1_555 1_555
H53A C54A 1_555 1_555
H54A C54A 1_555 1_555
C55A C54A 1_555 1_555
H55A C55A 1_555 1_555
H56A C55A 1_555 1_555
N9A Cd2 1_555 1_555
C56A N9A 1_555 1_555
H57A C56A 1_555 1_555
C57A C56A 1_555 1_555
H58A C57A 1_555 1_555
C58A C55A 1_555 1_555
C59A C58A 1_555 1_555
H59A C59A 1_555 1_555
C60A N9A 1_555 1_555
H60A C60A 1_555 1_555
O4A Cd2A 1_555 1_555
N6A O4A 1_555 1_555
O5A N6A 1_555 1_555
O6A Cd2A 1_555 1_555
O7A Cd2A 1_555 1_555
N7A O7A 1_555 1_555
O8A Cd2A 1_555 1_555
O9A N7A 1_555 1_555
Cd2A_2 N5 1_555 1_555
N5A_2 Cd2 1_555 1_555
Cd2A_3 N9 1_555 1_555
Cd2_2 N5A 1_555 1_555
N5_2 Cd2A 1_555 1_555
N8A_2 Cd2A 1_555 1_555
N9_2 Cd2A 1_555 1_555
C4 C5 1_555 1_555
C12 C13 1_555 1_555
C17 C18 1_555 1_555
C19 C20 1_555 1_555
C24 C25 1_555 1_555
C32 C33 1_555 1_555
C37 C38 1_555 1_555
C39 C40 1_555 1_555
N6 O6 1_555 1_555
N7 O8 1_555 1_555
C44 C45 1_555 1_555
C52 C53 1_555 1_555
C57 C58 1_555 1_555
C59 C60 1_555 1_555
C4A C5A 1_555 1_555
C12A C13A 1_555 1_555
C17A C18A 1_555 1_555
C19A C20A 1_555 1_555
C24A C25A 1_555 1_555
C32A C33A 1_555 1_555
C37A C38A 1_555 1_555
C39A C40A 1_555 1_555
N8A Cd2A_3 1_555 1_555
C44A C45A 1_555 1_555
C52A C53A 1_555 1_555
C57A C58A 1_555 1_555
C59A C60A 1_555 1_555
N6A O6A 1_555 1_555
N7A O8A 1_555 1_555

#END
