
#######################################################################
#
#                 Cambridge Crystallographic Data Centre
#                                CCDC 
#
#######################################################################
#
# If this CIF has been generated from an entry in the Cambridge 
# Structural Database, then it will include bibliographic, chemical, 
# crystal, experimental, refinement or atomic coordinate data resulting 
# from the CCDC's data processing and validation procedures.
#
#######################################################################

data_IDAKAZ
_symmetry_cell_setting           monoclinic
_symmetry_space_group_name_H-M   'C 2/c'
_symmetry_Int_Tables_number      15
_space_group_name_Hall           '-C 2yn'
loop_
_symmetry_equiv_pos_site_id
_symmetry_equiv_pos_as_xyz
1 x,y,z
2 1/2+x,1/2+y,z
3 x,-y,1/2+z
4 1/2+x,1/2-y,1/2+z
5 -x,-y,-z
6 1/2-x,1/2-y,-z
7 -x,y,1/2-z
8 1/2-x,1/2+y,1/2-z
_cell_length_a                   21.3050(5)
_cell_length_b                   9.7129(4)
_cell_length_c                   18.0588(5)
_cell_angle_alpha                90
_cell_angle_beta                 107.128(2)
_cell_angle_gamma                90
_cell_volume                     3571.23
loop_
_atom_site_label
_atom_site_type_symbol
_atom_site_fract_x
_atom_site_fract_y
_atom_site_fract_z
Cd1 Cd 0.376258(8) 0.60553(2) 0.522372(10)
S1 S 0.31366(3) 0.61522(8) 0.63361(4)
S2 S 0.44304(3) 0.38783(8) 0.60426(5)
C1 C 0.24191(12) 0.6797(3) 0.58366(14)
C2 C 0.51093(12) 0.3936(3) 0.57799(15)
N1 N 0.19117(10) 0.7220(3) 0.54926(13)
N2 N 0.55915(11) 0.3957(2) 0.56221(14)
N3 N 0.45288(10) 0.7664(3) 0.59237(13)
C3 C 0.44948(17) 0.8961(3) 0.5699(2)
H1 H 0.4110 0.9254 0.5313
C4 C 0.49813(17) 0.9914(4) 0.5989(2)
H2 H 0.4931 1.0832 0.5799
C5 C 0.55512(14) 0.9527(4) 0.65646(18)
C6 C 0.55648(15) 0.8210(4) 0.6829(2)
H3 H 0.5928 0.7907 0.7243
C7 C 0.50551(14) 0.7307(3) 0.65007(18)
H4 H 0.5082 0.6393 0.6695
N4 N 0.80294(9) 1.0475(3) 0.94084(12)
C8 C 0.74651(14) 1.0833(3) 0.95261(17)
H5 H 0.7391 1.0582 1.0002
C9 C 0.69836(14) 1.1551(4) 0.89913(17)
H6 H 0.6589 1.1780 0.9105
C10 C 0.70650(12) 1.1942(3) 0.82928(14)
C11 C 0.76533(15) 1.1598(4) 0.81843(17)
H7 H 0.7744 1.1864 0.7720
C12 C 0.81169(15) 1.0873(4) 0.87395(19)
H8 H 0.8519 1.0645 0.8641
C13 C 0.61104(15) 1.0552(4) 0.68743(19)
H9 H 0.6503 1.0053 0.7192
H10 H 0.6224 1.0979 0.6433
C14 C 0.59363(13) 1.1655(3) 0.73527(16)
H11 H 0.5809 1.1232 0.7786
H12 H 0.5555 1.2182 0.7032
C15 C 0.65231(13) 1.2641(3) 0.76795(16)
H13 H 0.6693 1.2953 0.7253
H14 H 0.6373 1.3463 0.7904
N1E N 0.30883(10) 0.7780(3) 0.45074(13)
N2D N 0.44085(11) 0.6043(2) 0.43779(14)
N4C N 0.30294(9) 0.4525(3) 0.44084(12)
Cd1E Cd 0.123742(8) 0.89447(2) 0.477628(10)
Cd1D Cd 0.623742(8) 0.39447(2) 0.477628(10)
Cd1C Cd 0.876258(8) 0.89447(2) 1.022372(10)
loop_
_geom_bond_atom_site_label_1
_geom_bond_atom_site_label_2
_geom_bond_site_symmetry_1
_geom_bond_site_symmetry_2
Cd1 S1 1_555 1_555
S1 C1 1_555 1_555
S2 Cd1 1_555 1_555
C1 N1 1_555 1_555
C2 S2 1_555 1_555
N1 Cd1E 1_555 1_555
N2 C2 1_555 1_555
N3 Cd1 1_555 1_555
C3 N3 1_555 1_555
H1 C3 1_555 1_555
C4 C3 1_555 1_555
H2 C4 1_555 1_555
C5 C4 1_555 1_555
C6 C5 1_555 1_555
H3 C6 1_555 1_555
C7 N3 1_555 1_555
H4 C7 1_555 1_555
N4 C8 1_555 1_555
C8 H5 1_555 1_555
C9 C8 1_555 1_555
H6 C9 1_555 1_555
C10 C9 1_555 1_555
C11 C10 1_555 1_555
H7 C11 1_555 1_555
C12 N4 1_555 1_555
H8 C12 1_555 1_555
C13 C5 1_555 1_555
H9 C13 1_555 1_555
H10 C13 1_555 1_555
C14 C13 1_555 1_555
H11 C14 1_555 1_555
H12 C14 1_555 1_555
C15 C10 1_555 1_555
H13 C15 1_555 1_555
H14 C15 1_555 1_555
N1E Cd1 1_555 1_555
N2D Cd1 1_555 1_555
N4C Cd1 1_555 1_555
Cd1D N2 1_555 1_555
Cd1C N4 1_555 1_555
C6 C7 1_555 1_555
C11 C12 1_555 1_555
C14 C15 1_555 1_555

#END
