
#######################################################################
#
#                 Cambridge Crystallographic Data Centre
#                                CCDC 
#
#######################################################################
#
# If this CIF has been generated from an entry in the Cambridge 
# Structural Database, then it will include bibliographic, chemical, 
# crystal, experimental, refinement or atomic coordinate data resulting 
# from the CCDC's data processing and validation procedures.
#
#######################################################################

data_IDANUY
_symmetry_cell_setting           triclinic
_symmetry_space_group_name_H-M   'P -1'
_symmetry_Int_Tables_number      2
_space_group_name_Hall           '-P 1'
loop_
_symmetry_equiv_pos_site_id
_symmetry_equiv_pos_as_xyz
1 x,y,z
2 -x,-y,-z
_cell_length_a                   7.0292(3)
_cell_length_b                   10.2892(4)
_cell_length_c                   12.5439(5)
_cell_angle_alpha                91.361(2)
_cell_angle_beta                 90.407(2)
_cell_angle_gamma                104.998(2)
_cell_volume                     876.001
loop_
_atom_site_label
_atom_site_type_symbol
_atom_site_fract_x
_atom_site_fract_y
_atom_site_fract_z
Sr1 Sr 1.0000 0.0000 0.0000
Sr2 Sr 0.86724(3) -0.37889(2) -0.11377(2)
Sr3 Sr 0.57129(3) 0.21010(2) -0.05482(2)
O1 O 0.6246(3) -0.05156(18) -0.08904(15)
O2 O 0.8372(3) -0.14323(19) -0.17205(16)
O3 O 0.2714(3) 0.03708(19) -0.14874(16)
O4 O 0.1994(3) -0.17952(19) -0.11074(16)
O5 O 0.7838(3) -0.26762(19) 0.05581(15)
O6 O 1.0850(3) -0.18764(19) 0.12185(17)
O7 O 0.5072(3) -0.61995(19) 0.10329(16)
O8 O 0.8151(3) -0.54513(18) 0.05059(15)
O9 O 0.6767(3) -0.6166(2) -0.19012(17)
O10 O 0.8059(4) -0.4615(3) -0.30783(19)
C1 C 0.6836(4) -0.1025(3) -0.1717(2)
C2 C 0.5647(4) -0.1157(3) -0.2734(2)
C3 C 0.6460(4) -0.1431(3) -0.3689(2)
H1 H 0.7758 -0.1489 -0.3701
C4 C 0.5356(5) -0.1618(3) -0.4624(3)
H2 H 0.5917 -0.1788 -0.5265
C5 C 0.3424(5) -0.1553(3) -0.4603(3)
H3 H 0.2678 -0.1684 -0.5231
C6 C 0.2587(4) -0.1293(3) -0.3652(3)
H4 H 0.1279 -0.1256 -0.3643
C7 C 0.3690(4) -0.1087(3) -0.2717(2)
C8 C 0.2747(4) -0.0818(3) -0.1693(2)
C9 C 0.9131(4) -0.2604(3) 0.1291(2)
C10 C 0.8555(4) -0.3394(3) 0.2271(2)
C11 C 0.9164(4) -0.2784(3) 0.3253(3)
H5 H 0.9963 -0.1909 0.3287
C12 C 0.8602(5) -0.3458(3) 0.4187(3)
H6 H 0.9028 -0.3042 0.4843
C13 C 0.7407(5) -0.4750(3) 0.4136(3)
H7 H 0.7023 -0.5208 0.4760
C14 C 0.6777(4) -0.5367(3) 0.3161(3)
H8 H 0.5956 -0.6236 0.3136
C15 C 0.7349(4) -0.4711(3) 0.2222(2)
C16 C 0.6787(4) -0.5489(3) 0.1181(2)
C17 C 0.7073(5) -0.5772(4) -0.2845(3)
H9 H 0.6537 -0.6374 -0.3400
Sr1_2 Sr 0.0000 0.0000 0.0000
Sr1_3 Sr 2.0000 0.0000 0.0000
Sr2A Sr 1.13276(3) 0.37889(2) 0.11377(2)
Sr2_2 Sr -0.13276(3) -0.37889(2) -0.11377(2)
Sr2A_2 Sr 0.13276(3) -0.62111(2) 0.11377(2)
Sr2A_3 Sr 1.13276(3) -0.62111(2) 0.11377(2)
Sr2A_4 Sr 2.13276(3) 0.37889(2) 0.11377(2)
Sr2_3 Sr 1.86724(3) 0.62111(2) -0.11377(2)
Sr2_4 Sr 0.86724(3) 0.62111(2) -0.11377(2)
Sr3A Sr 1.42871(3) -0.21010(2) 0.05482(2)
Sr3A_2 Sr 0.42871(3) -0.21010(2) 0.05482(2)
Sr3_2 Sr 0.57129(3) -0.78990(2) -0.05482(2)
Sr3_3 Sr 1.57129(3) 0.21010(2) -0.05482(2)
Sr3A_3 Sr 1.42871(3) 0.78990(2) 0.05482(2)
O1A O 1.3754(3) 0.05156(18) 0.08904(15)
O1A_2 O 0.3754(3) 0.05156(18) 0.08904(15)
O1_2 O 1.6246(3) -0.05156(18) -0.08904(15)
O2A O 1.1628(3) 0.14323(19) 0.17205(16)
O3A O 1.7286(3) -0.03708(19) 0.14874(16)
O3_2 O 1.2714(3) 0.03708(19) -0.14874(16)
O3A_2 O 0.7286(3) -0.03708(19) 0.14874(16)
O4A O 1.8006(3) 0.17952(19) 0.11074(16)
O4A_2 O 0.8006(3) 0.17952(19) 0.11074(16)
O4_2 O 1.1994(3) -0.17952(19) -0.11074(16)
O5A O 1.2162(3) 0.26762(19) -0.05581(15)
O5A_2 O 0.2162(3) 0.26762(19) -0.05581(15)
O5_2 O 1.7838(3) -0.26762(19) 0.05581(15)
O6A O 0.9150(3) 0.18764(19) -0.12185(17)
O7A O 1.4928(3) 0.61995(19) -0.10329(16)
O7A_2 O 0.4928(3) -0.38005(19) -0.10329(16)
O7_2 O 0.5072(3) 0.38005(19) 0.10329(16)
O7_3 O 1.5072(3) 0.38005(19) 0.10329(16)
O7A_3 O 1.4928(3) -0.38005(19) -0.10329(16)
O8A O 1.1849(3) 0.54513(18) -0.05059(15)
O8A_2 O 1.1849(3) -0.45487(18) -0.05059(15)
O8_2 O 0.8151(3) 0.45487(18) 0.05059(15)
O9_2 O 0.6767(3) 0.3834(2) -0.19012(17)
O9A O 1.3233(3) 0.6166(2) 0.19012(17)
O9A_2 O 1.3233(3) -0.3834(2) 0.19012(17)
O10_2 O 0.8059(4) 0.5385(3) -0.30783(19)
O10A O 1.1941(4) 0.4615(3) 0.30783(19)
C1A C 1.3164(4) 0.1025(3) 0.1717(2)
C2A C 1.4353(4) 0.1157(3) 0.2734(2)
C3A C 1.3540(4) 0.1431(3) 0.3689(2)
H1A H 1.2242 0.1489 0.3701
C4A C 1.4644(5) 0.1618(3) 0.4624(3)
H2A H 1.4083 0.1788 0.5265
C5A C 1.6576(5) 0.1553(3) 0.4603(3)
H3A H 1.7322 0.1684 0.5231
C6A C 1.7413(4) 0.1293(3) 0.3652(3)
H4A H 1.8721 0.1256 0.3643
C7A C 1.6310(4) 0.1087(3) 0.2717(2)
C8A C 1.7253(4) 0.0818(3) 0.1693(2)
C9A C 1.0869(4) 0.2604(3) -0.1291(2)
C10A C 1.1445(4) 0.3394(3) -0.2271(2)
C11A C 1.0836(4) 0.2784(3) -0.3253(3)
H5A H 1.0037 0.1909 -0.3287
C12A C 1.1398(5) 0.3458(3) -0.4187(3)
H6A H 1.0972 0.3042 -0.4843
C13A C 1.2593(5) 0.4750(3) -0.4136(3)
H7A H 1.2977 0.5208 -0.4760
C14A C 1.3223(4) 0.5367(3) -0.3161(3)
H8A H 1.4044 0.6236 -0.3136
C15A C 1.2651(4) 0.4711(3) -0.2222(2)
C16A C 1.3213(4) 0.5489(3) -0.1181(2)
C17_2 C 0.7073(5) 0.4228(4) -0.2845(3)
H9_2 H 0.6537 0.3626 -0.3400
loop_
_geom_bond_atom_site_label_1
_geom_bond_atom_site_label_2
_geom_bond_site_symmetry_1
_geom_bond_site_symmetry_2
Sr1 O1 1_555 1_555
Sr2 O2 1_555 1_555
Sr3 O1 1_555 1_555
O1 C1 1_555 1_555
O2 Sr1 1_555 1_555
O3 Sr3 1_555 1_555
O4 C8 1_555 1_555
O5 Sr1 1_555 1_555
O6 Sr1 1_555 1_555
O7 C16 1_555 1_555
O8 Sr2 1_555 1_555
O9 Sr2 1_555 1_555
O10 Sr2 1_555 1_555
C1 O2 1_555 1_555
C2 C1 1_555 1_555
C3 C2 1_555 1_555
H1 C3 1_555 1_555
C4 C3 1_555 1_555
H2 C4 1_555 1_555
C5 C4 1_555 1_555
H3 C5 1_555 1_555
C6 C5 1_555 1_555
H4 C6 1_555 1_555
C7 C2 1_555 1_555
C8 O3 1_555 1_555
C9 O5 1_555 1_555
C10 C9 1_555 1_555
C11 C10 1_555 1_555
H5 C11 1_555 1_555
C12 C11 1_555 1_555
H6 C12 1_555 1_555
C13 C12 1_555 1_555
H7 C13 1_555 1_555
C14 C13 1_555 1_555
H8 C14 1_555 1_555
C15 C10 1_555 1_555
C16 O8 1_555 1_555
C17 O9 1_555 1_555
H9 C17 1_555 1_555
Sr1_2 O3 1_555 1_555
Sr1_3 O1_2 1_555 1_555
Sr2A O2A 1_555 1_555
Sr2_2 O4 1_555 1_555
Sr2A_2 O7 1_555 1_555
Sr2A_3 O8 1_555 1_555
Sr2A_4 O4A 1_555 1_555
Sr2_3 O7A 1_555 1_555
Sr2_4 O8A 1_555 1_555
Sr3A O6 1_555 1_555
Sr3A_2 O1 1_555 1_555
Sr3_2 O7 1_555 1_555
Sr3_3 O1A 1_555 1_555
Sr3A_3 O7A 1_555 1_555
O1A Sr1 1_555 1_555
O1A_2 Sr3 1_555 1_555
O1_2 Sr3A 1_555 1_555
O2A Sr1 1_555 1_555
O3A Sr1_3 1_555 1_555
O3_2 Sr1 1_555 1_555
O3A_2 Sr1 1_555 1_555
O4A Sr1_3 1_555 1_555
O4A_2 Sr1 1_555 1_555
O4_2 Sr1 1_555 1_555
O5A Sr1 1_555 1_555
O5A_2 Sr3 1_555 1_555
O5_2 Sr1_3 1_555 1_555
O6A Sr1 1_555 1_555
O7A C16A 1_555 1_555
O7A_2 Sr2 1_555 1_555
O7_2 Sr3 1_555 1_555
O7_3 Sr2A 1_555 1_555
O7A_3 Sr3A 1_555 1_555
O8A Sr2A 1_555 1_555
O8A_2 Sr2 1_555 1_555
O8_2 Sr3 1_555 1_555
O9_2 Sr3 1_555 1_555
O9A Sr2A 1_555 1_555
O9A_2 Sr2A_3 1_555 1_555
O10_2 Sr2_4 1_555 1_555
O10A Sr2A 1_555 1_555
C1A O1A 1_555 1_555
C2A C1A 1_555 1_555
C3A C2A 1_555 1_555
H1A C3A 1_555 1_555
C4A C3A 1_555 1_555
H2A C4A 1_555 1_555
C5A C4A 1_555 1_555
H3A C5A 1_555 1_555
C6A C5A 1_555 1_555
H4A C6A 1_555 1_555
C7A C2A 1_555 1_555
C8A O3A 1_555 1_555
C9A O5A 1_555 1_555
C10A C9A 1_555 1_555
C11A C10A 1_555 1_555
H5A C11A 1_555 1_555
C12A C11A 1_555 1_555
H6A C12A 1_555 1_555
C13A C12A 1_555 1_555
H7A C13A 1_555 1_555
C14A C13A 1_555 1_555
H8A C14A 1_555 1_555
C15A C10A 1_555 1_555
C16A O8A 1_555 1_555
C17_2 O9_2 1_555 1_555
H9_2 C17_2 1_555 1_555
Sr2 O5 1_555 1_555
Sr2 O4_2 1_555 1_555
Sr3 O4A_2 1_555 1_555
Sr3 O6A 1_555 1_555
O4 Sr1_2 1_555 1_555
O4 Sr3A_2 1_555 1_555
O5 Sr3A_2 1_555 1_555
O6 C9 1_555 1_555
O8 Sr3_2 1_555 1_555
O9 Sr3_2 1_555 1_555
O10 C17 1_555 1_555
C6 C7 1_555 1_555
C7 C8 1_555 1_555
C14 C15 1_555 1_555
C15 C16 1_555 1_555
Sr1_2 O1A_2 1_555 1_555
Sr1_2 O5A_2 1_555 1_555
Sr2A O4A_2 1_555 1_555
Sr2A O5A 1_555 1_555
Sr2A O8_2 1_555 1_555
Sr2A_3 O8A_2 1_555 1_555
Sr2_4 O8_2 1_555 1_555
Sr2_4 O9_2 1_555 1_555
Sr3A O1A 1_555 1_555
Sr3A O3A 1_555 1_555
Sr3A O4_2 1_555 1_555
Sr3A O5_2 1_555 1_555
Sr3A O8A_2 1_555 1_555
Sr3A O9A_2 1_555 1_555
Sr3A_2 O1A_2 1_555 1_555
Sr3A_2 O3A_2 1_555 1_555
Sr3A_2 O7A_2 1_555 1_555
Sr3_3 O1_2 1_555 1_555
Sr3_3 O3_2 1_555 1_555
Sr3_3 O4A 1_555 1_555
Sr3_3 O5A 1_555 1_555
Sr3_3 O7_3 1_555 1_555
Sr3A_3 O8A 1_555 1_555
Sr3A_3 O9A 1_555 1_555
O2A C1A 1_555 1_555
O4A C8A 1_555 1_555
O6A C9A 1_555 1_555
O10_2 C17_2 1_555 1_555
C6A C7A 1_555 1_555
C7A C8A 1_555 1_555
C14A C15A 1_555 1_555
C15A C16A 1_555 1_555

#END
