
#######################################################################
#
#                 Cambridge Crystallographic Data Centre
#                                CCDC 
#
#######################################################################
#
# If this CIF has been generated from an entry in the Cambridge 
# Structural Database, then it will include bibliographic, chemical, 
# crystal, experimental, refinement or atomic coordinate data resulting 
# from the CCDC's data processing and validation procedures.
#
#######################################################################

data_IDANOR
_symmetry_cell_setting           monoclinic
_symmetry_space_group_name_H-M   'P 21/n'
_symmetry_Int_Tables_number      14
_space_group_name_Hall           '-P 2yn'
loop_
_symmetry_equiv_pos_site_id
_symmetry_equiv_pos_as_xyz
1 x,y,z
2 1/2-x,1/2+y,1/2-z
3 -x,-y,-z
4 1/2+x,1/2-y,1/2+z
_cell_length_a                   15.2597(4)
_cell_length_b                   23.4134(6)
_cell_length_c                   16.9043(3)
_cell_angle_alpha                90
_cell_angle_beta                 101.7390(10)
_cell_angle_gamma                90
_cell_volume                     5913.27
loop_
_atom_site_label
_atom_site_type_symbol
_atom_site_fract_x
_atom_site_fract_y
_atom_site_fract_z
Co1 Co 0.5000 0.0000 0.5000
O1 O 0.63156(18) -0.02507(13) 0.52597(15)
C1 C 0.6843(3) -0.03421(19) 0.4771(2)
C2 C 0.7839(3) -0.0408(2) 0.5152(2)
C3 C 0.8066(3) -0.02431(19) 0.6051(2)
O2 O 0.75279(18) -0.05875(12) 0.64808(16)
Co2 Co 0.74558(4) -0.00975(2) 0.75209(3)
O3 O 0.76054(18) -0.07554(12) 0.83972(16)
C4 C 0.7037(3) -0.05883(18) 0.8954(2)
C5 C 0.7398(3) -0.08722(18) 0.9775(2)
C6 C 0.8370(3) -0.07210(18) 1.0138(2)
O4 O 0.87973(18) -0.04545(12) 0.96715(15)
Co3 Co 1.0000 0.0000 1.0000
O5 O 0.95614(19) 0.05711(13) 0.90064(17)
O6 O 1.0588(2) -0.04858(13) 0.92383(17)
O7 O 0.86955(18) -0.08770(12) 1.08365(16)
C7 C 0.7054(3) 0.00682(18) 0.9056(2)
O8 O 0.73230(18) 0.03613(11) 0.85072(15)
O9 O 0.68149(19) 0.02713(12) 0.96525(15)
C8 C 0.6094(3) -0.08042(18) 0.8565(2)
C9 C 0.5734(3) -0.06979(18) 0.7660(2)
O10 O 0.61188(18) -0.03136(12) 0.73032(16)
O11 O 0.50790(18) -0.09713(12) 0.73216(16)
O12 O 0.74511(19) 0.05344(12) 0.66954(16)
C10 C 0.7878(3) 0.03989(19) 0.6149(2)
O13 O 0.8138(2) 0.07382(14) 0.56873(18)
O14 O 0.88425(18) -0.01090(12) 0.77323(16)
C11 C 0.9312(3) -0.03943(19) 0.7325(2)
C12 C 0.9035(3) -0.0400(2) 0.6406(2)
O15 O 0.99983(19) -0.06607(13) 0.76339(16)
O16 O 0.66066(19) -0.03965(14) 0.40228(16)
O17 O 0.51717(19) 0.04098(13) 0.61547(16)
O18 O 0.4685(2) -0.07394(13) 0.55957(16)
H1 H 0.8017 -0.0815 0.5095
H2 H 0.8189 -0.0155 0.4854
H3 H 0.7017 -0.0748 1.0161
H4 H 0.7355 -0.1296 0.9704
H5 H 0.6087 -0.1226 0.8652
H6 H 0.5668 -0.0616 0.8861
H7 H 0.9423 -0.0119 0.6194
H8 H 0.9148 -0.0792 0.6214
H81 H 0.485(3) -0.069(2) 0.6102(6)
H82 H 0.548(3) 0.0228(19) 0.655(2)
H83 H 0.4169(15) -0.084(2) 0.534(3)
H84 H 0.4625(10) 0.040(2) 0.619(3)
H91 H 1.033(3) -0.053(2) 0.8748(10)
H92 H 0.936(3) 0.0390(19) 0.8571(17)
H93 H 1.095(3) -0.0724(16) 0.951(3)
H95 H 1.0087(14) 0.070(2) 0.903(3)
H97 H 0.6973(8) -0.057(2) 0.627(3)
H98 H 0.8117(15) -0.063(2) 0.862(3)
O1B O 0.36844(18) 0.02507(13) 0.47403(15)
C1B C 0.3157(3) 0.03421(19) 0.5229(2)
C2B C 0.2161(3) 0.0408(2) 0.4848(2)
C3B C 0.1934(3) 0.02431(19) 0.3949(2)
O2B O 0.24721(18) 0.05875(12) 0.35192(16)
Co2B Co 0.25442(4) 0.00975(2) 0.24791(3)
O3B O 0.23946(18) 0.07554(12) 0.16028(16)
C4B C 0.2963(3) 0.05883(18) 0.1046(2)
C5B C 0.2602(3) 0.08722(18) 0.0225(2)
C6B C 0.1630(3) 0.07210(18) -0.0138(2)
O4B O 0.12027(18) 0.04545(12) 0.03285(15)
O4B_2 O 1.12027(18) 0.04545(12) 1.03285(15)
Co3_2 Co 0.0000 0.0000 0.0000
O5B O 1.04386(19) -0.05711(13) 1.09936(17)
O6B O 0.9412(2) 0.04858(13) 1.07617(17)
O7B O 0.13045(18) 0.08770(12) -0.08365(16)
C7B C 0.2946(3) -0.00682(18) 0.0944(2)
O8B O 0.26770(18) -0.03613(11) 0.14928(15)
O9B O 0.31851(19) -0.02713(12) 0.03475(15)
C8B C 0.3906(3) 0.08042(18) 0.1435(2)
C9B C 0.4266(3) 0.06979(18) 0.2340(2)
O10B O 0.38812(18) 0.03136(12) 0.26968(16)
O11B O 0.49210(18) 0.09713(12) 0.26784(16)
O12B O 0.25489(19) -0.05344(12) 0.33046(16)
C10B C 0.2122(3) -0.03989(19) 0.3851(2)
O13B O 0.1862(2) -0.07382(14) 0.43127(18)
O14B O 0.11575(18) 0.01090(12) 0.22677(16)
C11B C 0.0688(3) 0.03943(19) 0.2675(2)
C12B C 0.0965(3) 0.0400(2) 0.3594(2)
O15B O 0.00017(19) 0.06607(13) 0.23661(16)
O16B O 0.33934(19) 0.03965(14) 0.59772(16)
O17B O 0.48283(19) -0.04098(13) 0.38453(16)
O18B O 0.5315(2) 0.07394(13) 0.44043(16)
H1B H 0.1983 0.0815 0.4905
H2B H 0.1811 0.0155 0.5146
H3B H 0.2983 0.0748 -0.0161
H4B H 0.2645 0.1296 0.0296
H5B H 0.3913 0.1226 0.1348
H6B H 0.4332 0.0616 0.1139
H7B H 0.0577 0.0119 0.3806
H8B H 0.0852 0.0792 0.3786
H81B H 0.515(3) 0.069(2) 0.3898(6)
H82B H 0.452(3) -0.0228(19) 0.345(2)
H83B H 0.5831(15) 0.084(2) 0.466(3)
H84B H 0.5375(10) -0.040(2) 0.381(3)
H91B H 0.967(3) 0.053(2) 1.1252(10)
H92B H 1.064(3) -0.0390(19) 1.1429(17)
H93B H 0.905(3) 0.0724(16) 1.049(3)
H95B H 0.9913(14) -0.070(2) 1.097(3)
H97B H 0.3027(8) 0.057(2) 0.373(3)
H98B H 0.1883(15) 0.063(2) 0.138(3)
N1 N -0.2649(2) 0.03834(14) 0.22703(18)
C13 C -0.1862(3) -0.00160(18) 0.2268(2)
C14 C -0.1586(3) -0.03798(18) 0.3020(2)
C15 C -0.0875(3) -0.08136(18) 0.2901(2)
C16 C -0.0550(3) -0.1177(2) 0.3656(3)
C17 C -0.2711(3) 0.07738(18) 0.1539(2)
C18 C -0.3499(3) 0.11918(19) 0.1407(2)
C19 C -0.3346(3) 0.16881(19) 0.0878(3)
C20 C -0.4114(4) 0.2113(2) 0.0759(3)
C21 C -0.3508(3) 0.00468(18) 0.2240(2)
C22 C -0.3793(3) -0.03583(19) 0.1526(3)
C23 C -0.4612(3) -0.0692(2) 0.1627(3)
C24 C -0.4924(4) -0.1112(2) 0.0938(3)
C25 C -0.2502(3) 0.07273(18) 0.3045(2)
C26 C -0.1701(3) 0.11381(18) 0.3165(2)
C27 C -0.1430(3) 0.1310(2) 0.4059(2)
C28 C -0.0678(3) 0.1745(2) 0.4200(3)
H9 H -0.2025 -0.0279 0.1794
H10 H -0.1337 0.0223 0.2204
H11 H -0.2123 -0.0584 0.3135
H12 H -0.1330 -0.0128 0.3487
H13 H -0.1143 -0.1074 0.2447
H14 H -0.0352 -0.0608 0.2761
H15 H -0.0092 -0.1459 0.3558
H16 H -0.1070 -0.1385 0.3798
H17 H -0.0279 -0.0919 0.4112
H18 H -0.2147 0.1002 0.1610
H19 H -0.2768 0.0529 0.1046
H20 H -0.3574 0.1342 0.1943
H21 H -0.4055 0.0985 0.1142
H22 H -0.2776 0.1883 0.1135
H23 H -0.3292 0.1537 0.0337
H24 H -0.3989 0.2434 0.0408
H25 H -0.4169 0.2267 0.1299
H26 H -0.4685 0.1921 0.0501
H27 H -0.4004 0.0328 0.2227
H28 H -0.3435 -0.0187 0.2744
H29 H -0.3931 -0.0132 0.1014
H30 H -0.3293 -0.0630 0.1503
H31 H -0.5108 -0.0416 0.1642
H32 H -0.4470 -0.0907 0.2149
H33 H -0.5467 -0.1320 0.1030
H34 H -0.5072 -0.0901 0.0413
H35 H -0.4434 -0.1392 0.0921
H36 H -0.3053 0.0959 0.3045
H37 H -0.2408 0.0454 0.3510
H38 H -0.1867 0.1488 0.2829
H39 H -0.1187 0.0943 0.2994
H40 H -0.1961 0.1479 0.4235
H41 H -0.1231 0.0960 0.4388
H42 H -0.0519 0.1846 0.4787
H43 H -0.0874 0.2096 0.3876
H44 H -0.0144 0.1577 0.4028
N2 N 0.4685(2) 0.25429(15) 0.3812(2)
C29 C 0.4145(3) 0.28601(18) 0.3086(2)
C30 C 0.3955(3) 0.25094(19) 0.2301(3)
C31 C 0.3362(3) 0.28372(19) 0.1620(3)
C32 C 0.3218(3) 0.2513(2) 0.0833(3)
C33 C 0.5545(3) 0.23046(19) 0.3636(3)
C34 C 0.6124(3) 0.27493(19) 0.3335(3)
C35 C 0.7019(3) 0.2490(2) 0.3236(3)
C36 C 0.7604(3) 0.2911(2) 0.2899(3)
C37 C 0.4886(3) 0.29739(19) 0.4506(3)
C38 C 0.5509(4) 0.2760(2) 0.5265(3)
C39 C 0.5484(4) 0.3149(2) 0.5997(3)
C40 C 0.4659(5) 0.3022(4) 0.6349(5)
C41 C 0.4142(4) 0.2039(2) 0.4040(3)
C42 C 0.3185(4) 0.2167(2) 0.4179(3)
C43 C 0.2445(5) 0.2093(4) 0.3410(5)
H45 H 0.4493 0.3207 0.2991
H46 H 0.3560 0.2980 0.3212
H47 H 0.4533 0.2416 0.2138
H48 H 0.3645 0.2147 0.2398
H49 H 0.3653 0.3212 0.1552
H50 H 0.2769 0.2906 0.1767
H51 H 0.2827 0.2739 0.0397
H52 H 0.3810 0.2445 0.0683
H53 H 0.2926 0.2139 0.0899
H54 H 0.5893 0.2132 0.4144
H55 H 0.5392 0.2002 0.3213
H56 H 0.6245 0.3070 0.3734
H57 H 0.5806 0.2900 0.2800
H58 H 0.7350 0.2360 0.3778
H59 H 0.6893 0.2155 0.2864
H60 H 0.8178 0.2724 0.2847
H61 H 0.7736 0.3247 0.3270
H62 H 0.7278 0.3042 0.2356
H63 H 0.5157 0.3323 0.4312
H64 H 0.4305 0.3077 0.4656
H65 H 0.6133 0.2751 0.5166
H66 H 0.5327 0.2367 0.5394
H67 H 0.6035 0.3091 0.6424
H68 H 0.5456 0.3555 0.5810
H69 H 0.4648 0.3284 0.6815
H70 H 0.4684 0.2617 0.6539
H71 H 0.4105 0.3082 0.5925
H72 H 0.4495 0.1859 0.4541
H73 H 0.4069 0.1759 0.3584
H74 H 0.3178 0.2576 0.4347
H75 H 0.3061 0.1917 0.4624
C44 C 0.1549(6) 0.2193(5) 0.3721(6)
H86 H 0.2508 0.2388 0.2998
H87 H 0.2474 0.1704 0.3173
H88 H 0.1028 0.2153 0.3258
H89 H 0.1541 0.2582 0.3963
H90 H 0.1507 0.1898 0.4139
O19 O 0.6645(2) 0.14299(14) 0.51511(19)
H77 H 0.7141(17) 0.126(2) 0.528(3)
H79 H 0.636(3) 0.150(2) 0.552(2)
O20 O 0.3198(2) 0.38398(14) 0.47691(19)
H76 H 0.274(2) 0.4052(18) 0.473(3)
H78 H 0.350(3) 0.400(2) 0.446(2)
O21 O 0.7166(3) 0.14267(15) 0.77361(19)
H80 H 0.709(3) 0.148(2) 0.8216(12)
H85 H 0.735(3) 0.1236(19) 0.738(2)
O22 O 0.5705(2) 0.15604(14) 0.6410(2)
H94 H 0.557(3) 0.1209(6) 0.641(3)
H96 H 0.610(3) 0.156(2) 0.6846(17)
loop_
_geom_bond_atom_site_label_1
_geom_bond_atom_site_label_2
_geom_bond_site_symmetry_1
_geom_bond_site_symmetry_2
Co1 O1 1_555 1_555
O1 C1 1_555 1_555
C1 C2 1_555 1_555
C2 C3 1_555 1_555
C3 O2 1_555 1_555
O2 Co2 1_555 1_555
Co2 O3 1_555 1_555
O3 C4 1_555 1_555
C4 C5 1_555 1_555
C5 C6 1_555 1_555
C6 O4 1_555 1_555
O4 Co3 1_555 1_555
Co3 O5 1_555 1_555
O5 H92 1_555 1_555
O6 Co3 1_555 1_555
O7 C6 1_555 1_555
C7 C4 1_555 1_555
O8 Co2 1_555 1_555
O9 C7 1_555 1_555
C8 C4 1_555 1_555
C9 C8 1_555 1_555
O10 Co2 1_555 1_555
O11 C9 1_555 1_555
O12 Co2 1_555 1_555
C10 C3 1_555 1_555
O13 C10 1_555 1_555
O14 Co2 1_555 1_555
C11 O14 1_555 1_555
C12 C3 1_555 1_555
O15 C11 1_555 1_555
O16 C1 1_555 1_555
O17 Co1 1_555 1_555
O18 Co1 1_555 1_555
N1 C13 1_555 1_555
C13 C14 1_555 1_555
C14 C15 1_555 1_555
C15 C16 1_555 1_555
C16 H15 1_555 1_555
C17 N1 1_555 1_555
C18 C17 1_555 1_555
C19 C18 1_555 1_555
C20 C19 1_555 1_555
C21 N1 1_555 1_555
C22 C21 1_555 1_555
C23 C22 1_555 1_555
C24 C23 1_555 1_555
C25 N1 1_555 1_555
C26 C25 1_555 1_555
C27 C26 1_555 1_555
C28 C27 1_555 1_555
N2 C29 1_555 1_555
C29 C30 1_555 1_555
C30 C31 1_555 1_555
C31 C32 1_555 1_555
C32 H51 1_555 1_555
C33 N2 1_555 1_555
C34 C33 1_555 1_555
C35 C34 1_555 1_555
C36 C35 1_555 1_555
C37 N2 1_555 1_555
C38 C37 1_555 1_555
C39 C38 1_555 1_555
C40 C39 1_555 1_555
C41 N2 1_555 1_555
C42 C41 1_555 1_555
C43 C42 1_555 1_555
O19 H77 1_555 1_555
O20 H76 1_555 1_555
O21 H80 1_555 1_555
O22 H94 1_555 1_555
H1 C2 1_555 1_555
H2 C2 1_555 1_555
H3 C5 1_555 1_555
H4 C5 1_555 1_555
H5 C8 1_555 1_555
H6 C8 1_555 1_555
H7 C12 1_555 1_555
H8 C12 1_555 1_555
H9 C13 1_555 1_555
H10 C13 1_555 1_555
H11 C14 1_555 1_555
H12 C14 1_555 1_555
H13 C15 1_555 1_555
H14 C15 1_555 1_555
H16 C16 1_555 1_555
H17 C16 1_555 1_555
H18 C17 1_555 1_555
H19 C17 1_555 1_555
H20 C18 1_555 1_555
H21 C18 1_555 1_555
H22 C19 1_555 1_555
H23 C19 1_555 1_555
H24 C20 1_555 1_555
H25 C20 1_555 1_555
H26 C20 1_555 1_555
H27 C21 1_555 1_555
H28 C21 1_555 1_555
H29 C22 1_555 1_555
H30 C22 1_555 1_555
H31 C23 1_555 1_555
H32 C23 1_555 1_555
H33 C24 1_555 1_555
H34 C24 1_555 1_555
H35 C24 1_555 1_555
H36 C25 1_555 1_555
H37 C25 1_555 1_555
H38 C26 1_555 1_555
H39 C26 1_555 1_555
H40 C27 1_555 1_555
H41 C27 1_555 1_555
H42 C28 1_555 1_555
H43 C28 1_555 1_555
H44 C28 1_555 1_555
H45 C29 1_555 1_555
H46 C29 1_555 1_555
H47 C30 1_555 1_555
H48 C30 1_555 1_555
H49 C31 1_555 1_555
H50 C31 1_555 1_555
H52 C32 1_555 1_555
H53 C32 1_555 1_555
H54 C33 1_555 1_555
H55 C33 1_555 1_555
H56 C34 1_555 1_555
H57 C34 1_555 1_555
H58 C35 1_555 1_555
H59 C35 1_555 1_555
H60 C36 1_555 1_555
H61 C36 1_555 1_555
H62 C36 1_555 1_555
H63 C37 1_555 1_555
H64 C37 1_555 1_555
H65 C38 1_555 1_555
H66 C38 1_555 1_555
H67 C39 1_555 1_555
H68 C39 1_555 1_555
H69 C40 1_555 1_555
H70 C40 1_555 1_555
H71 C40 1_555 1_555
H72 C41 1_555 1_555
H73 C41 1_555 1_555
H74 C42 1_555 1_555
H75 C42 1_555 1_555
H78 O20 1_555 1_555
H79 O19 1_555 1_555
H81 O18 1_555 1_555
H82 O17 1_555 1_555
H83 O18 1_555 1_555
H84 O17 1_555 1_555
H85 O21 1_555 1_555
C44 C43 1_555 1_555
H86 C43 1_555 1_555
H87 C43 1_555 1_555
H88 C44 1_555 1_555
H89 C44 1_555 1_555
H90 C44 1_555 1_555
H91 O6 1_555 1_555
H93 O6 1_555 1_555
H95 O5 1_555 1_555
H96 O22 1_555 1_555
H97 O2 1_555 1_555
H98 O3 1_555 1_555
O1B Co1 1_555 1_555
C1B O1B 1_555 1_555
C2B C1B 1_555 1_555
C3B C2B 1_555 1_555
O2B C3B 1_555 1_555
Co2B O2B 1_555 1_555
O3B Co2B 1_555 1_555
C4B O3B 1_555 1_555
C5B C4B 1_555 1_555
C6B C5B 1_555 1_555
O4B C6B 1_555 1_555
O4B_2 Co3 1_555 1_555
Co3_2 O4B 1_555 1_555
O5B Co3 1_555 1_555
O6B Co3 1_555 1_555
O7B C6B 1_555 1_555
C7B C4B 1_555 1_555
O8B Co2B 1_555 1_555
O9B C7B 1_555 1_555
C8B C4B 1_555 1_555
C9B C8B 1_555 1_555
O10B Co2B 1_555 1_555
O11B C9B 1_555 1_555
O12B Co2B 1_555 1_555
C10B C3B 1_555 1_555
O13B C10B 1_555 1_555
O14B Co2B 1_555 1_555
C11B O14B 1_555 1_555
C12B C3B 1_555 1_555
O15B C11B 1_555 1_555
O16B C1B 1_555 1_555
O17B Co1 1_555 1_555
O18B Co1 1_555 1_555
H1B C2B 1_555 1_555
H2B C2B 1_555 1_555
H3B C5B 1_555 1_555
H4B C5B 1_555 1_555
H5B C8B 1_555 1_555
H6B C8B 1_555 1_555
H7B C12B 1_555 1_555
H8B C12B 1_555 1_555
H81B O18B 1_555 1_555
H82B O17B 1_555 1_555
H83B O18B 1_555 1_555
H84B O17B 1_555 1_555
H91B O6B 1_555 1_555
H92B O5B 1_555 1_555
H93B O6B 1_555 1_555
H95B O5B 1_555 1_555
H97B O2B 1_555 1_555
H98B O3B 1_555 1_555
C7 O8 1_555 1_555
C9 O10 1_555 1_555
O12 C10 1_555 1_555
C11 C12 1_555 1_555
C7B O8B 1_555 1_555
C9B O10B 1_555 1_555
O12B C10B 1_555 1_555
C11B C12B 1_555 1_555

#END
