
#######################################################################
#
#                 Cambridge Crystallographic Data Centre
#                                CCDC 
#
#######################################################################
#
# If this CIF has been generated from an entry in the Cambridge 
# Structural Database, then it will include bibliographic, chemical, 
# crystal, experimental, refinement or atomic coordinate data resulting 
# from the CCDC's data processing and validation procedures.
#
#######################################################################

data_IDAPEJ
_symmetry_cell_setting           orthorhombic
_symmetry_space_group_name_H-M   'P c 21 b'
_symmetry_Int_Tables_number      29
_space_group_name_Hall           'P -2bc -2c'
loop_
_symmetry_equiv_pos_site_id
_symmetry_equiv_pos_as_xyz
1 x,y,z
2 x,1/2+y,1/2-z
3 -x,y,1/2+z
4 -x,1/2+y,-z
_cell_length_a                   6.9997(4)
_cell_length_b                   16.4260(9)
_cell_length_c                   20.3312(18)
_cell_angle_alpha                90
_cell_angle_beta                 90
_cell_angle_gamma                90
_cell_volume                     2337.62
loop_
_atom_site_label
_atom_site_type_symbol
_atom_site_fract_x
_atom_site_fract_y
_atom_site_fract_z
Na1 Na 0.2659(3) 1.05902(19) 0.38418(12)
Na2 Na -0.2356(3) 1.06522(19) 0.36748(13)
Na3 Na 0.2180(3) 0.82804(14) 0.32807(9)
Na4 Na 0.3014(3) 1.29489(14) 0.42031(9)
C1 C 0.6077(6) 0.6094(3) 0.3523(2)
C2 C 0.7908(6) 0.6439(3) 0.3606(2)
C3 C 0.9359(7) 0.5955(3) 0.3822(2)
H1 H 1.0566 0.6182 0.3877
C4 C 0.9099(6) 0.5133(3) 0.3963(2)
C5 C 0.7303(6) 0.4805(3) 0.3878(2)
C6 C 0.5785(7) 0.5292(3) 0.3653(2)
H2 H 0.4580 0.5064 0.3593
C7 C 0.4410(7) 0.6635(3) 0.3316(2)
C8 C 0.8291(7) 0.7313(3) 0.3420(2)
C9 C 1.0783(6) 0.4621(3) 0.4162(2)
C10 C 0.6862(6) 0.3933(3) 0.4075(2)
O1 O 0.3439(5) 0.6413(2) 0.28307(15)
O2 O 0.4057(5) 0.7238(2) 0.36683(16)
O3 O 0.7668(4) 0.7552(2) 0.28819(15)
O4 O 0.9295(5) 0.7738(2) 0.38043(15)
O5 O 1.1181(4) 0.4016(2) 0.38170(17)
O6 O 1.1737(5) 0.4842(2) 0.46572(16)
O7 O 0.7597(4) 0.3687(2) 0.46082(15)
O8 O 0.5830(5) 0.3502(2) 0.37151(14)
O9 O 0.0264(6) 1.0348(4) 0.29141(19)
O10 O 0.0018(4) 1.0866(3) 0.4486(2)
O11 O 0.5272(5) 1.0857(3) 0.4576(2)
O12 O 0.5028(4) 1.0290(3) 0.30222(18)
O13 O 0.2151(5) 1.1993(3) 0.34181(17)
O14 O 0.3216(6) 0.9188(2) 0.41293(17)
O15 O -0.2683(5) 0.9245(3) 0.4136(2)
O16 O -0.2085(6) 1.2037(3) 0.33897(19)
O17 O 0.0414(5) 1.2541(3) 0.48627(18)
O18 O 0.5130(5) 1.2461(3) 0.5032(2)
O19 O 0.0144(4) 0.8802(3) 0.2463(2)
O20 O 0.4821(4) 0.8706(3) 0.26115(19)
Na2_2 Na 0.7644(3) 1.06522(19) 0.36748(13)
Na3_2 Na 1.2180(3) 0.82804(14) 0.32807(9)
Na4_2 Na 1.3014(3) 0.29489(14) 0.42031(9)
Na4_3 Na 0.3014(3) 0.29489(14) 0.42031(9)
O4_2 O -0.0705(5) 0.7738(2) 0.38043(15)
O5_2 O 0.1181(4) 1.4016(2) 0.38170(17)
O8_2 O 0.5830(5) 1.3502(2) 0.37151(14)
O11_2 O -0.4728(5) 1.0857(3) 0.4576(2)
O12_2 O -0.4972(4) 1.0290(3) 0.30222(18)
loop_
_geom_bond_atom_site_label_1
_geom_bond_atom_site_label_2
_geom_bond_site_symmetry_1
_geom_bond_site_symmetry_2
Na1 O9 1_555 1_555
Na2 O9 1_555 1_555
Na3 O2 1_555 1_555
Na4 O13 1_555 1_555
C1 C2 1_555 1_555
C2 C3 1_555 1_555
C3 H1 1_555 1_555
C4 C3 1_555 1_555
C5 C4 1_555 1_555
C6 C1 1_555 1_555
H2 C6 1_555 1_555
C7 C1 1_555 1_555
C8 C2 1_555 1_555
C9 C4 1_555 1_555
C10 C5 1_555 1_555
O1 C7 1_555 1_555
O2 C7 1_555 1_555
O3 C8 1_555 1_555
O4 C8 1_555 1_555
O5 C9 1_555 1_555
O6 C9 1_555 1_555
O7 C10 1_555 1_555
O8 C10 1_555 1_555
O10 Na1 1_555 1_555
O11 Na1 1_555 1_555
O12 Na1 1_555 1_555
O13 Na1 1_555 1_555
O14 Na1 1_555 1_555
O15 Na2 1_555 1_555
O16 Na2 1_555 1_555
O17 Na4 1_555 1_555
O18 Na4 1_555 1_555
O19 Na3 1_555 1_555
O20 Na3 1_555 1_555
Na2_2 O11 1_555 1_555
Na3_2 O4 1_555 1_555
Na4_2 O5 1_555 1_555
Na4_3 O8 1_555 1_555
O4_2 Na3 1_555 1_555
O5_2 Na4 1_555 1_555
O8_2 Na4 1_555 1_555
O11_2 Na2 1_555 1_555
O12_2 Na2 1_555 1_555
Na2 O10 1_555 1_555
Na3 O14 1_555 1_555
C5 C6 1_555 1_555
O12 Na2_2 1_555 1_555

#END
