
#######################################################################
#
#                 Cambridge Crystallographic Data Centre
#                                CCDC 
#
#######################################################################
#
# If this CIF has been generated from an entry in the Cambridge 
# Structural Database, then it will include bibliographic, chemical, 
# crystal, experimental, refinement or atomic coordinate data resulting 
# from the CCDC's data processing and validation procedures.
#
#######################################################################

data_IDAPEI
_symmetry_cell_setting           monoclinic
_symmetry_space_group_name_H-M   'P 2/n'
_symmetry_Int_Tables_number      13
_space_group_name_Hall           '-P 2yac'
loop_
_symmetry_equiv_pos_site_id
_symmetry_equiv_pos_as_xyz
1 x,y,z
2 1/2+x,-y,1/2+z
3 -x,-y,-z
4 1/2-x,y,1/2-z
_cell_length_a                   8.494(44)
_cell_length_b                   8.909(39)
_cell_length_c                   17.916(64)
_cell_angle_alpha                90
_cell_angle_beta                 102.90(29)
_cell_angle_gamma                90
_cell_volume                     1321.54
loop_
_atom_site_label
_atom_site_type_symbol
_atom_site_fract_x
_atom_site_fract_y
_atom_site_fract_z
Cu1 Cu 0.72648(13) 0.62640(13) 0.01168(6)
P1 P 0.7526(3) 0.9939(2) 0.00653(12)
O1 O 0.8216(7) 1.0645(7) -0.0558(4)
O2 O 0.6700(7) 1.1123(8) 0.0471(5)
H1 H 0.5915(7) 1.1468(8) 0.0168(5)
O3 O 0.6338(6) 0.8722(6) -0.0219(4)
O4 O 0.8932(7) 0.9338(9) 0.0676(4)
H2 H 0.8590(7) 0.9006(9) 0.1036(4)
N1 N 0.6370(8) 0.5909(7) 0.0991(4)
N2 N 0.3303(8) 0.4239(8) 0.4307(3)
C1 C 0.6199(10) 0.4504(9) 0.1223(5)
H3 H 0.6490(10) 0.3719(9) 0.0940(5)
C2 C 0.5614(10) 0.4155(9) 0.1861(5)
H4 H 0.5488(10) 0.3155(9) 0.1984(5)
C3 C 0.5979(12) 0.6977(10) 0.1437(5)
H5 H 0.6110(12) 0.7971(10) 0.1303(5)
C4 C 0.5393(11) 0.6712(9) 0.2085(5)
H6 H 0.5121(11) 0.7513(9) 0.2364(5)
C5 C 0.5214(8) 0.5270(9) 0.2316(4)
C6 C 0.4592(8) 0.4923(9) 0.3018(4)
C7 C 0.4091(10) 0.6043(9) 0.3451(5)
H7 H 0.4169(10) 0.7048(9) 0.3325(5)
C8 C 0.3466(10) 0.5631(10) 0.4082(4)
H8 H 0.3139(10) 0.6399(10) 0.4365(4)
C9 C 0.3822(12) 0.3166(10) 0.3885(5)
H9 H 0.3755(12) 0.2168(10) 0.4027(5)
C10 C 0.4439(13) 0.3474(10) 0.3260(5)
H10 H 0.4764(13) 0.2683(10) 0.2991(5)
N2A N 0.8303(8) 0.5761(8) -0.0693(3)
Cu1A Cu 0.22648(13) 0.37360(13) 0.51168(6)
O5 O 0.8607(31) 1.0318(16) 0.2212(7)
O6 O 0.6371(27) 0.9884(15) -0.2077(6)
loop_
_geom_bond_atom_site_label_1
_geom_bond_atom_site_label_2
_geom_bond_site_symmetry_1
_geom_bond_site_symmetry_2
Cu1 O3 1_555 1_555
P1 O1 1_555 1_555
O2 P1 1_555 1_555
H1 O2 1_555 1_555
O3 P1 1_555 1_555
O4 P1 1_555 1_555
H2 O4 1_555 1_555
N1 Cu1 1_555 1_555
N2 C8 1_555 1_555
C1 N1 1_555 1_555
H3 C1 1_555 1_555
C2 C1 1_555 1_555
H4 C2 1_555 1_555
C3 N1 1_555 1_555
H5 C3 1_555 1_555
C4 C3 1_555 1_555
H6 C4 1_555 1_555
C5 C2 1_555 1_555
C6 C5 1_555 1_555
C7 C6 1_555 1_555
H7 C7 1_555 1_555
C8 C7 1_555 1_555
H8 C8 1_555 1_555
C9 N2 1_555 1_555
H9 C9 1_555 1_555
C10 C6 1_555 1_555
H10 C10 1_555 1_555
N2A Cu1 1_555 1_555
Cu1A N2 1_555 1_555
C4 C5 1_555 1_555
C9 C10 1_555 1_555

#END
