
#######################################################################
#
#                 Cambridge Crystallographic Data Centre
#                                CCDC 
#
#######################################################################
#
# If this CIF has been generated from an entry in the Cambridge 
# Structural Database, then it will include bibliographic, chemical, 
# crystal, experimental, refinement or atomic coordinate data resulting 
# from the CCDC's data processing and validation procedures.
#
#######################################################################

data_IDASOX
_symmetry_cell_setting           orthorhombic
_symmetry_space_group_name_H-M   'P b c a'
_symmetry_Int_Tables_number      61
_space_group_name_Hall           '-P 2ac 2ab'
loop_
_symmetry_equiv_pos_site_id
_symmetry_equiv_pos_as_xyz
1 x,y,z
2 1/2-x,-y,1/2+z
3 1/2+x,1/2-y,-z
4 -x,1/2+y,1/2-z
5 -x,-y,-z
6 1/2+x,y,1/2-z
7 1/2-x,1/2+y,z
8 x,1/2-y,1/2+z
_cell_length_a                   14.0108(6)
_cell_length_b                   11.7674(7)
_cell_length_c                   25.7068(12)
_cell_angle_alpha                90
_cell_angle_beta                 90
_cell_angle_gamma                90
_cell_volume                     4238.3
loop_
_atom_site_label
_atom_site_type_symbol
_atom_site_fract_x
_atom_site_fract_y
_atom_site_fract_z
Sn1 Sn -0.29327(3) -0.35558(3) 0.362840(10)
P1 P -0.36921(12) -0.08232(12) 0.38935(6)
O1 O -0.3855(3) -0.2003(3) 0.36764(17)
O2 O -0.2923(3) -0.0161(2) 0.36231(17)
C1 C -0.4806(4) -0.0060(4) 0.3878(3)
C2 C -0.5372(5) -0.0034(5) 0.3438(3)
C3 C -0.6217(5) 0.0586(6) 0.3440(3)
C4 C -0.6498(5) 0.1153(5) 0.3884(3)
C5 C -0.5930(5) 0.1151(5) 0.4317(3)
C6 C -0.5077(5) 0.0548(5) 0.4313(3)
C7 C -0.2349(4) -0.3088(5) 0.2893(2)
C8 C -0.1608(5) -0.3689(6) 0.2669(3)
C9 C -0.1227(6) -0.3364(7) 0.2197(3)
C10 C -0.1576(6) -0.2451(6) 0.1937(3)
C11 C -0.2315(6) -0.1838(6) 0.2150(3)
C12 C -0.2705(5) -0.2148(5) 0.2623(2)
C13 C -0.2300(4) -0.3139(4) 0.4356(2)
C14 C -0.2518(5) -0.3764(4) 0.4803(2)
C15 C -0.2086(5) -0.3528(5) 0.5273(2)
C16 C -0.1414(5) -0.2654(5) 0.5310(3)
C17 C -0.1206(5) -0.2024(5) 0.4872(2)
C18 C -0.1629(4) -0.2252(5) 0.4404(2)
C19 C -0.4177(4) -0.4597(4) 0.3655(3)
C20 C -0.4303(5) -0.5480(5) 0.3302(3)
C21 C -0.5101(5) -0.6171(5) 0.3344(3)
C22 C -0.5766(5) -0.5986(5) 0.3719(3)
C23 C -0.5660(5) -0.5107(6) 0.4068(3)
C24 C -0.4866(4) -0.4413(5) 0.4031(2)
H1 H -0.351(4) -0.089(4) 0.440(2)
H2 H -0.51850 -0.04380 0.31350
H3 H -0.66010 0.06180 0.31360
H4 H -0.70900 0.15470 0.38890
H5 H -0.61170 0.15600 0.46190
H6 H -0.46790 0.05530 0.46120
H7 H -0.13570 -0.43360 0.28430
H8 H -0.07140 -0.37860 0.20510
H9 H -0.13120 -0.22350 0.16120
H10 H -0.25600 -0.11970 0.19700
H11 H -0.32180 -0.17200 0.27650
H12 H -0.29720 -0.43620 0.47820
H13 H -0.22460 -0.39600 0.55730
H14 H -0.11060 -0.24970 0.56310
H15 H -0.07590 -0.14200 0.48960
H16 H -0.14700 -0.18070 0.41070
H17 H -0.38480 -0.56080 0.30350
H18 H -0.51820 -0.67840 0.31080
H19 H -0.63100 -0.64670 0.37400
H20 H -0.61240 -0.49800 0.43310
H21 H -0.47930 -0.37990 0.42670
Sn1F Sn -0.20673(3) 0.14442(3) 0.362840(10)
O2F O -0.2077(3) -0.5161(2) 0.36231(17)
loop_
_geom_bond_atom_site_label_1
_geom_bond_atom_site_label_2
_geom_bond_site_symmetry_1
_geom_bond_site_symmetry_2
Sn1 O1 1_555 1_555
P1 O1 1_555 1_555
O2 P1 1_555 1_555
C1 P1 1_555 1_555
C2 C1 1_555 1_555
C3 C2 1_555 1_555
C4 C3 1_555 1_555
C5 C4 1_555 1_555
C6 C1 1_555 1_555
C7 Sn1 1_555 1_555
C8 C7 1_555 1_555
C9 C8 1_555 1_555
C10 C9 1_555 1_555
C11 C10 1_555 1_555
C12 C7 1_555 1_555
C13 Sn1 1_555 1_555
C14 C13 1_555 1_555
C15 C14 1_555 1_555
C16 C15 1_555 1_555
C17 C16 1_555 1_555
C18 C13 1_555 1_555
C19 Sn1 1_555 1_555
C20 C19 1_555 1_555
C21 C20 1_555 1_555
C22 C21 1_555 1_555
C23 C22 1_555 1_555
C24 C19 1_555 1_555
H1 P1 1_555 1_555
H2 C2 1_555 1_555
H3 C3 1_555 1_555
H4 C4 1_555 1_555
H5 C5 1_555 1_555
H6 C6 1_555 1_555
H7 C8 1_555 1_555
H8 C9 1_555 1_555
H9 C10 1_555 1_555
H10 C11 1_555 1_555
H11 C12 1_555 1_555
H12 C14 1_555 1_555
H13 C15 1_555 1_555
H14 C16 1_555 1_555
H15 C17 1_555 1_555
H16 C18 1_555 1_555
H17 C20 1_555 1_555
H18 C21 1_555 1_555
H19 C22 1_555 1_555
H20 C23 1_555 1_555
H21 C24 1_555 1_555
Sn1F O2 1_555 1_555
O2F Sn1 1_555 1_555
C5 C6 1_555 1_555
C11 C12 1_555 1_555
C17 C18 1_555 1_555
C23 C24 1_555 1_555

#END
