
#######################################################################
#
#                 Cambridge Crystallographic Data Centre
#                                CCDC 
#
#######################################################################
#
# If this CIF has been generated from an entry in the Cambridge 
# Structural Database, then it will include bibliographic, chemical, 
# crystal, experimental, refinement or atomic coordinate data resulting 
# from the CCDC's data processing and validation procedures.
#
#######################################################################

data_IDATIS
_symmetry_cell_setting           triclinic
_symmetry_space_group_name_H-M   'P -1'
_symmetry_Int_Tables_number      2
_space_group_name_Hall           '-P 1'
loop_
_symmetry_equiv_pos_site_id
_symmetry_equiv_pos_as_xyz
1 x,y,z
2 -x,-y,-z
_cell_length_a                   7.0332(6)
_cell_length_b                   8.3468(7)
_cell_length_c                   17.8510(15)
_cell_angle_alpha                95.5150(10)
_cell_angle_beta                 96.7860(10)
_cell_angle_gamma                97.1950(10)
_cell_volume                     1025.84
loop_
_atom_site_label
_atom_site_type_symbol
_atom_site_fract_x
_atom_site_fract_y
_atom_site_fract_z
Lu1 Lu 0.70112(4) 0.58976(3) 0.256536(13)
Co1 Co 0.38269(11) 1.06475(9) 0.42418(4)
Co2 Co 0.5000 1.0000 0.0000
C1 C 0.6258(8) 0.7760(7) 0.4223(3)
C2 C 0.7053(8) 0.6660(7) 0.4742(3)
C3 C 0.8108(9) 0.6042(7) 0.5848(4)
H1 H 0.8561 0.6115 0.6362
C4 C 0.7216(8) 0.5032(6) 0.4657(3)
C5 C 0.6582(8) 0.3717(7) 0.4028(3)
C6 C 1.1022(8) 0.7977(7) 0.3429(3)
C7 C 1.1583(8) 0.8976(6) 0.2827(3)
C8 C 1.3107(9) 1.1157(7) 0.2497(3)
H2 H 1.3898 1.2141 0.2508
C9 C 1.1057(8) 0.8934(7) 0.2054(3)
C10 C 0.9863(8) 0.7752(7) 0.1460(3)
C11 C 0.2968(9) 0.4493(7) 0.1376(3)
C12 C 0.3326(8) 0.5562(7) 0.0773(3)
C13 C 0.2892(9) 0.6358(7) -0.0373(3)
H3 H 0.2474 0.6347 -0.0887
C14 C 0.4316(8) 0.7088(7) 0.0769(3)
C15 C 0.5438(8) 0.8341(7) 0.1358(3)
O1 O 0.5982(6) 0.7412(5) 0.3519(2)
O2 O 0.5862(6) 0.9071(4) 0.4555(2)
O3 O 0.6263(6) 0.4072(5) 0.3362(2)
O4 O 0.6378(6) 0.2288(4) 0.4209(2)
O5 O 1.1840(6) 0.8471(5) 0.4094(2)
O6 O 0.9807(6) 0.6713(5) 0.3281(2)
O7 O 0.8884(6) 0.6531(5) 0.1661(2)
O8 O 0.9883(6) 0.7996(5) 0.0777(2)
O9 O 0.4324(6) 0.4605(5) 0.1932(2)
O10 O 0.1470(6) 0.3533(5) 0.1285(2)
O11 O 0.5857(6) 0.8010(5) 0.2037(2)
O12 O 0.5894(6) 0.9710(5) 0.1153(2)
N1 N 0.7588(7) 0.7273(6) 0.5495(3)
N2 N 0.7899(7) 0.4672(6) 0.5366(3)
N3 N 1.2873(7) 1.0359(5) 0.3091(3)
N4 N 1.2033(8) 1.0336(6) 0.1876(3)
N5 N 0.2432(7) 0.5151(6) 0.0041(3)
N6 N 0.4021(7) 0.7565(5) 0.0052(3)
H4 H 0.801(9) 0.372(4) 0.550(3)
H5 H 1.209(9) 1.060(7) 0.1428(17)
H6 H 0.181(8) 0.420(4) -0.008(3)
O13 O 0.2273(6) 1.0469(5) 0.0245(2)
H7 H 0.160(8) 0.965(5) 0.030(4)
H8 H 0.168(8) 1.090(7) -0.008(3)
O14 O 0.8496(7) 0.3654(5) 0.2236(3)
H9 H 0.826(10) 0.284(5) 0.244(4)
H10 H 0.931(8) 0.351(7) 0.197(3)
Lu1A Lu 0.29888(4) 1.41024(3) -0.256536(13)
Co1A Co 0.61731(11) 0.93525(9) -0.42418(4)
Co1A_2 Co 0.61731(11) 0.93525(9) 0.57582(4)
Co1_2 Co 0.38269(11) 0.06475(9) 0.42418(4)
Co1_3 Co 1.38269(11) 1.06475(9) 0.42418(4)
Co1_4 Co 0.38269(11) 1.06475(9) -0.57582(4)
Co1A_3 Co 0.61731(11) 1.93525(9) -0.42418(4)
Co1A_4 Co -0.38269(11) 0.93525(9) -0.42418(4)
C1A C 0.3742(8) 1.2240(7) -0.4223(3)
C2A C 0.2947(8) 1.3340(7) -0.4742(3)
C3A C 0.1892(9) 1.3958(7) -0.5848(4)
H1A H 0.1439 1.3885 -0.6362
C4A C 0.2784(8) 1.4968(6) -0.4657(3)
C5A C 0.3418(8) 1.6283(7) -0.4028(3)
C6A C -0.1022(8) 1.2023(7) -0.3429(3)
C7A C -0.1583(8) 1.1024(6) -0.2827(3)
C8A C -0.3107(9) 0.8843(7) -0.2497(3)
H2A H -0.3898 0.7859 -0.2508
C9A C -0.1057(8) 1.1066(7) -0.2054(3)
C10A C 0.0137(8) 1.2248(7) -0.1460(3)
C11A C 0.7032(9) 1.5507(7) -0.1376(3)
C12A C 0.6674(8) 1.4438(7) -0.0773(3)
C13A C 0.7108(9) 1.3642(7) 0.0373(3)
H3A H 0.7526 1.3653 0.0887
C14A C 0.5684(8) 1.2912(7) -0.0769(3)
C15A C 0.4562(8) 1.1659(7) -0.1358(3)
O1A O 0.4018(6) 1.2588(5) -0.3519(2)
O2A O 0.4138(6) 1.0929(4) -0.4555(2)
O2A_2 O 0.4138(6) 1.0929(4) 0.5445(2)
O2_2 O 0.5862(6) 0.9071(4) -0.5445(2)
O3A O 0.3737(6) 1.5928(5) -0.3362(2)
O4A O 0.3622(6) 1.7712(4) -0.4209(2)
O4_2 O 0.6378(6) 1.2288(4) 0.4209(2)
O4A_2 O 0.3622(6) 0.7712(4) -0.4209(2)
O5A O -0.1840(6) 1.1529(5) -0.4094(2)
O5_2 O 0.1840(6) 0.8471(5) 0.4094(2)
O5A_2 O 0.8160(6) 1.1529(5) -0.4094(2)
O6A O 0.0193(6) 1.3287(5) -0.3281(2)
O7A O 0.1116(6) 1.3469(5) -0.1661(2)
O8A O 0.0117(6) 1.2004(5) -0.0777(2)
O9A O 0.5676(6) 1.5395(5) -0.1932(2)
O10A O 0.8530(6) 1.6467(5) -0.1285(2)
O11A O 0.4143(6) 1.1990(5) -0.2037(2)
O12A O 0.4106(6) 1.0290(5) -0.1153(2)
N1A N 0.2412(7) 1.2727(6) -0.5495(3)
N1A_2 N 0.2412(7) 1.2727(6) 0.4505(3)
N1_2 N 0.7588(7) 0.7273(6) -0.4505(3)
N2A N 0.2101(7) 1.5328(6) -0.5366(3)
N3A N -0.2873(7) 0.9641(5) -0.3091(3)
N3_2 N 0.2873(7) 1.0359(5) 0.3091(3)
N3A_2 N 0.7127(7) 0.9641(5) -0.3091(3)
N4A N -0.2033(8) 0.9664(6) -0.1876(3)
N5A N 0.7568(7) 1.4849(6) -0.0041(3)
N6A N 0.5979(7) 1.2435(5) -0.0052(3)
H4A H 0.199(9) 1.628(4) -0.550(3)
H5A H -0.209(9) 0.940(7) -0.1428(17)
H6A H 0.819(8) 1.580(4) 0.008(3)
O13A O 0.7727(6) 0.9531(5) -0.0245(2)
H7A H 0.840(8) 1.035(5) -0.030(4)
H8A H 0.832(8) 0.910(7) 0.008(3)
O14A O 0.1504(7) 1.6346(5) -0.2236(3)
H9A H 0.174(10) 1.716(5) -0.244(4)
H10A H 0.069(8) 1.649(7) -0.197(3)
O15 O 0.8053(7) 0.0904(5) 0.2910(3)
H11 H 0.734(8) 0.016(7) 0.260(3)
H12 H 0.741(9) 0.111(8) 0.328(3)
loop_
_geom_bond_atom_site_label_1
_geom_bond_atom_site_label_2
_geom_bond_site_symmetry_1
_geom_bond_site_symmetry_2
Lu1 O1 1_555 1_555
Co1 O2 1_555 1_555
Co2 O12 1_555 1_555
C1 C2 1_555 1_555
C2 C4 1_555 1_555
C3 H1 1_555 1_555
C4 C5 1_555 1_555
C5 O3 1_555 1_555
C6 C7 1_555 1_555
C7 C9 1_555 1_555
C8 H2 1_555 1_555
C9 C10 1_555 1_555
C10 O7 1_555 1_555
C11 C12 1_555 1_555
C12 C14 1_555 1_555
C13 H3 1_555 1_555
C14 C15 1_555 1_555
C15 O11 1_555 1_555
O1 C1 1_555 1_555
O2 C1 1_555 1_555
O3 Lu1 1_555 1_555
O4 C5 1_555 1_555
O5 C6 1_555 1_555
O6 Lu1 1_555 1_555
O7 Lu1 1_555 1_555
O8 C10 1_555 1_555
O9 Lu1 1_555 1_555
O10 C11 1_555 1_555
O11 Lu1 1_555 1_555
O12 C15 1_555 1_555
N1 C2 1_555 1_555
N2 C3 1_555 1_555
N3 C7 1_555 1_555
N4 C8 1_555 1_555
N5 C12 1_555 1_555
N6 Co2 1_555 1_555
H4 N2 1_555 1_555
H5 N4 1_555 1_555
H6 N5 1_555 1_555
O13 Co2 1_555 1_555
H7 O13 1_555 1_555
H8 O13 1_555 1_555
O14 Lu1 1_555 1_555
H9 O14 1_555 1_555
H10 O14 1_555 1_555
O15 H11 1_555 1_555
H12 O15 1_555 1_555
Lu1A O1A 1_555 1_555
Co1A O2A 1_555 1_555
Co1A_2 O2 1_555 1_555
Co1_2 O4 1_555 1_555
Co1_3 O5 1_555 1_555
Co1_4 O2A 1_555 1_555
Co1A_3 O4A 1_555 1_555
Co1A_4 O5A 1_555 1_555
C1A C2A 1_555 1_555
C2A C4A 1_555 1_555
C3A H1A 1_555 1_555
C4A C5A 1_555 1_555
C5A O3A 1_555 1_555
C6A C7A 1_555 1_555
C7A C9A 1_555 1_555
C8A H2A 1_555 1_555
C9A C10A 1_555 1_555
C10A O7A 1_555 1_555
C11A C12A 1_555 1_555
C12A C14A 1_555 1_555
C13A H3A 1_555 1_555
C14A C15A 1_555 1_555
C15A O11A 1_555 1_555
O1A C1A 1_555 1_555
O2A C1A 1_555 1_555
O2A_2 Co1 1_555 1_555
O2_2 Co1A 1_555 1_555
O3A Lu1A 1_555 1_555
O4A C5A 1_555 1_555
O4_2 Co1 1_555 1_555
O4A_2 Co1A 1_555 1_555
O5A C6A 1_555 1_555
O5_2 Co1 1_555 1_555
O5A_2 Co1A 1_555 1_555
O6A Lu1A 1_555 1_555
O7A Lu1A 1_555 1_555
O8A C10A 1_555 1_555
O9A Lu1A 1_555 1_555
O10A C11A 1_555 1_555
O11A Lu1A 1_555 1_555
O12A Co2 1_555 1_555
N1A Co1_4 1_555 1_555
N1A_2 Co1 1_555 1_555
N1_2 Co1A 1_555 1_555
N2A C3A 1_555 1_555
N3A Co1A_4 1_555 1_555
N3_2 Co1 1_555 1_555
N3A_2 Co1A 1_555 1_555
N4A C8A 1_555 1_555
N5A C12A 1_555 1_555
N6A Co2 1_555 1_555
H4A N2A 1_555 1_555
H5A N4A 1_555 1_555
H6A N5A 1_555 1_555
O13A Co2 1_555 1_555
H7A O13A 1_555 1_555
H8A O13A 1_555 1_555
O14A Lu1A 1_555 1_555
H9A O14A 1_555 1_555
H10A O14A 1_555 1_555
C3 N1 1_555 1_555
C4 N2 1_555 1_555
C6 O6 1_555 1_555
C8 N3 1_555 1_555
C9 N4 1_555 1_555
C11 O9 1_555 1_555
C13 N5 1_555 1_555
C13 N6 1_555 1_555
C14 N6 1_555 1_555
N1 Co1A_2 1_555 1_555
N3 Co1_3 1_555 1_555
Co1A_2 O2A_2 1_555 1_555
Co1_4 O2_2 1_555 1_555
C2A N1A 1_555 1_555
C3A N1A 1_555 1_555
C4A N2A 1_555 1_555
C6A O6A 1_555 1_555
C7A N3A 1_555 1_555
C8A N3A 1_555 1_555
C9A N4A 1_555 1_555
C11A O9A 1_555 1_555
C13A N5A 1_555 1_555
C13A N6A 1_555 1_555
C14A N6A 1_555 1_555
C15A O12A 1_555 1_555

#END
