
#######################################################################
#
#                 Cambridge Crystallographic Data Centre
#                                CCDC 
#
#######################################################################
#
# If this CIF has been generated from an entry in the Cambridge 
# Structural Database, then it will include bibliographic, chemical, 
# crystal, experimental, refinement or atomic coordinate data resulting 
# from the CCDC's data processing and validation procedures.
#
#######################################################################

data_IDATOY
_symmetry_cell_setting           monoclinic
_symmetry_space_group_name_H-M   'C 2/c'
_symmetry_Int_Tables_number      15
_space_group_name_Hall           '-C 2yn'
loop_
_symmetry_equiv_pos_site_id
_symmetry_equiv_pos_as_xyz
1 x,y,z
2 -x,y,1/2-z
3 1/2+x,1/2+y,z
4 1/2-x,1/2+y,1/2-z
5 -x,-y,-z
6 x,-y,1/2+z
7 1/2-x,1/2-y,-z
8 1/2+x,1/2-y,1/2+z
_cell_length_a                   21.1089(14)
_cell_length_b                   6.5584(4)
_cell_length_c                   12.8766(9)
_cell_angle_alpha                90
_cell_angle_beta                 105.8740(10)
_cell_angle_gamma                90
_cell_volume                     1714.66
loop_
_atom_site_label
_atom_site_type_symbol
_atom_site_fract_x
_atom_site_fract_y
_atom_site_fract_z
Yb1 Yb 0.355312(10) 0.07841(3) 0.714967(16)
S1 S 0.5000 0.0299(3) 0.7500
C1 C 0.3390(2) 0.0272(7) 0.9554(4)
C2 C 0.3697(2) 0.2318(7) 0.9654(4)
C3 C 0.3764(2) 0.3838(7) 1.0402(4)
C4 C 0.3492(2) 0.4128(7) 1.1340(4)
C5 C 0.4168(2) 0.4805(8) 0.9077(4)
H1 H 0.4371 0.5603 0.8664
N1 N 0.3942(2) 0.2930(6) 0.8817(3)
N2 N 0.4065(2) 0.5391(6) 1.0009(3)
H2 H 0.420(3) 0.648(6) 1.039(4)
O1 O 0.32418(19) -0.0583(5) 1.0318(3)
O2 O 0.32955(18) -0.0546(5) 0.8633(3)
O3 O 0.33204(18) 0.2591(5) 1.1767(3)
O4 O 0.34067(19) 0.5917(5) 1.1620(3)
O5 O 0.45816(18) -0.0925(5) 0.7997(3)
O6 O 0.45308(19) 0.1572(6) 0.6710(3)
O7 O 0.24374(18) 0.1038(6) 0.6799(3)
H3 H 0.224(2) 0.201(6) 0.646(4)
H4 H 0.221(3) 0.075(8) 0.720(4)
Yb1E Yb 0.355312(10) -0.07841(3) 0.214967(16)
Yb1E_2 Yb 0.355312(10) -0.07841(3) 1.214967(16)
Yb1E_3 Yb 0.355312(10) 0.92159(3) 1.214967(16)
Yb1A Yb 0.644688(10) 0.07841(3) 0.785033(16)
Yb1_2 Yb 0.355312(10) -0.92159(3) 0.714967(16)
C1E C 0.3390(2) -0.0272(7) 0.4554(4)
C2E C 0.3697(2) -0.2318(7) 0.4654(4)
C3E C 0.3764(2) -0.3838(7) 0.5402(4)
C4E C 0.3492(2) -0.4128(7) 0.6340(4)
C5E C 0.4168(2) -0.4805(8) 0.4077(4)
H1E H 0.4371 -0.5603 0.3664
N1E N 0.3942(2) -0.2930(6) 0.3817(3)
N2E N 0.4065(2) -0.5391(6) 0.5009(3)
H2E H 0.420(3) -0.648(6) 0.539(4)
O1E O 0.32418(19) 0.0583(5) 0.5318(3)
O1_2 O 0.32418(19) -0.0583(5) 0.0318(3)
O2E O 0.32955(18) 0.0546(5) 0.3633(3)
O3E O 0.33204(18) -0.2591(5) 0.6767(3)
O3_2 O 0.33204(18) 0.2591(5) 0.1767(3)
O4E O 0.34067(19) -0.5917(5) 0.6620(3)
O4E_2 O 0.34067(19) 0.4083(5) 0.6620(3)
O4_2 O 0.34067(19) -0.4083(5) 0.1620(3)
O5A O 0.54184(18) -0.0925(5) 0.7003(3)
O5E O 0.45816(18) 0.0925(5) 0.2997(3)
O6A O 0.54692(19) 0.1572(6) 0.8290(3)
O6E O 0.45308(19) -0.1572(6) 0.1710(3)
O7E O 0.24374(18) -0.1038(6) 0.1799(3)
H3E H 0.224(2) -0.201(6) 0.146(4)
H4E H 0.221(3) -0.075(8) 0.220(4)
loop_
_geom_bond_atom_site_label_1
_geom_bond_atom_site_label_2
_geom_bond_site_symmetry_1
_geom_bond_site_symmetry_2
Yb1 N1 1_555 1_555
S1 O5 1_555 1_555
C1 C2 1_555 1_555
C2 C3 1_555 1_555
C3 C4 1_555 1_555
C4 O3 1_555 1_555
C5 H1 1_555 1_555
N1 C2 1_555 1_555
N2 C3 1_555 1_555
H2 N2 1_555 1_555
O1 C1 1_555 1_555
O2 Yb1 1_555 1_555
O3 Yb1E_2 1_555 1_555
O4 C4 1_555 1_555
O5 Yb1 1_555 1_555
O6 Yb1 1_555 1_555
O7 Yb1 1_555 1_555
H3 O7 1_555 1_555
H4 O7 1_555 1_555
Yb1E N1E 1_555 1_555
Yb1E_2 O1 1_555 1_555
Yb1E_3 O4 1_555 1_555
Yb1A O5A 1_555 1_555
Yb1_2 O4E 1_555 1_555
C1E C2E 1_555 1_555
C2E C3E 1_555 1_555
C3E C4E 1_555 1_555
C4E O3E 1_555 1_555
C5E H1E 1_555 1_555
N1E C2E 1_555 1_555
N2E C3E 1_555 1_555
H2E N2E 1_555 1_555
O1E Yb1 1_555 1_555
O1_2 Yb1E 1_555 1_555
O2E Yb1E 1_555 1_555
O3E Yb1 1_555 1_555
O3_2 Yb1E 1_555 1_555
O4E C4E 1_555 1_555
O4E_2 Yb1 1_555 1_555
O4_2 Yb1E 1_555 1_555
O5A S1 1_555 1_555
O5E Yb1E 1_555 1_555
O6A S1 1_555 1_555
O6E Yb1E 1_555 1_555
O7E Yb1E 1_555 1_555
H3E O7E 1_555 1_555
H4E O7E 1_555 1_555
S1 O6 1_555 1_555
C1 O2 1_555 1_555
C5 N1 1_555 1_555
C5 N2 1_555 1_555
Yb1A O6A 1_555 1_555
C1E O1E 1_555 1_555
C1E O2E 1_555 1_555
C5E N1E 1_555 1_555
C5E N2E 1_555 1_555

#END
