
#######################################################################
#
#                 Cambridge Crystallographic Data Centre
#                                CCDC 
#
#######################################################################
#
# If this CIF has been generated from an entry in the Cambridge 
# Structural Database, then it will include bibliographic, chemical, 
# crystal, experimental, refinement or atomic coordinate data resulting 
# from the CCDC's data processing and validation procedures.
#
#######################################################################

data_IDATOY01
_symmetry_cell_setting           monoclinic
_symmetry_space_group_name_H-M   'C 2/c'
_symmetry_Int_Tables_number      15
_space_group_name_Hall           '-C 2yn'
loop_
_symmetry_equiv_pos_site_id
_symmetry_equiv_pos_as_xyz
1 x,y,z
2 -x,y,1/2-z
3 1/2+x,1/2+y,z
4 1/2-x,1/2+y,1/2-z
5 -x,-y,-z
6 x,-y,1/2+z
7 1/2-x,1/2-y,-z
8 1/2+x,1/2-y,1/2+z
_cell_length_a                   21.0206(10)
_cell_length_b                   6.5588(4)
_cell_length_c                   12.8661(6)
_cell_angle_alpha                90
_cell_angle_beta                 106.016(5)
_cell_angle_gamma                90
_cell_volume                     1705
loop_
_atom_site_label
_atom_site_type_symbol
_atom_site_fract_x
_atom_site_fract_y
_atom_site_fract_z
Yb1 Yb 0.145180(8) 0.07801(3) 0.285367(12)
S1 S 0.0000 0.0308(3) 0.2500
O1 O 0.17080(14) -0.0559(5) 0.1371(2)
O2 O 0.04189(14) -0.0921(5) 0.1999(2)
N1 N 0.10576(16) 0.2943(6) 0.1190(2)
O3 O 0.04727(14) 0.1592(6) 0.3305(2)
C1 C 0.13050(18) 0.2326(8) 0.0347(3)
C2 C 0.1614(2) 0.0287(7) 0.0446(3)
C3 C 0.0836(2) 0.4802(7) 0.0933(3)
H1 H 0.0633 0.5620 0.1362
N2 N 0.09314(18) 0.5401(6) -0.0011(3)
O4 O 0.17624(15) -0.0578(5) -0.0314(2)
C4 C 0.15170(19) 0.4142(7) -0.1336(3)
C5 C 0.1238(2) 0.3846(7) -0.0394(3)
O5 O 0.16018(15) 0.5910(5) -0.1621(2)
O6 O 0.16749(15) 0.2587(5) -0.1780(2)
O7 O 0.25730(14) 0.1018(5) 0.3202(2)
H2 H 0.084(2) 0.657(4) -0.031(3)
H3 H 0.2758(19) 0.215(4) 0.347(3)
H4 H 0.2782(19) 0.058(6) 0.276(3)
Yb1E Yb 0.145180(8) -0.07801(3) 0.785367(12)
Yb1E_2 Yb 0.145180(8) -0.07801(3) -0.214633(12)
Yb1E_3 Yb 0.145180(8) 0.92199(3) -0.214633(12)
Yb1A Yb -0.145180(8) 0.07801(3) 0.214633(12)
Yb1_2 Yb 0.145180(8) -0.92199(3) 0.285367(12)
O1E O 0.17080(14) 0.0559(5) 0.6371(2)
O2A O -0.04189(14) -0.0921(5) 0.3001(2)
O2E O 0.04189(14) 0.0921(5) 0.6999(2)
N1E N 0.10576(16) -0.2943(6) 0.6190(2)
O3A O -0.04727(14) 0.1592(6) 0.1695(2)
O3E O 0.04727(14) -0.1592(6) 0.8305(2)
C1E C 0.13050(18) -0.2326(8) 0.5347(3)
C2E C 0.1614(2) -0.0287(7) 0.5446(3)
C3E C 0.0836(2) -0.4802(7) 0.5933(3)
H1E H 0.0633 -0.5620 0.6362
N2E N 0.09314(18) -0.5401(6) 0.4989(3)
O4E O 0.17624(15) 0.0578(5) 0.4686(2)
O4_2 O 0.17624(15) -0.0578(5) 0.9686(2)
C4E C 0.15170(19) -0.4142(7) 0.3664(3)
C5E C 0.1238(2) -0.3846(7) 0.4606(3)
O5E O 0.16018(15) -0.5910(5) 0.3379(2)
O5E_2 O 0.16018(15) 0.4090(5) 0.3379(2)
O5_2 O 0.16018(15) -0.4090(5) 0.8379(2)
O6E O 0.16749(15) -0.2587(5) 0.3220(2)
O6_2 O 0.16749(15) 0.2587(5) 0.8220(2)
O7E O 0.25730(14) -0.1018(5) 0.8202(2)
H2E H 0.084(2) -0.657(4) 0.469(3)
H3E H 0.2758(19) -0.215(4) 0.847(3)
H4E H 0.2782(19) -0.058(6) 0.776(3)
loop_
_geom_bond_atom_site_label_1
_geom_bond_atom_site_label_2
_geom_bond_site_symmetry_1
_geom_bond_site_symmetry_2
Yb1 O1 1_555 1_555
S1 O2 1_555 1_555
O1 C2 1_555 1_555
O2 Yb1 1_555 1_555
N1 Yb1 1_555 1_555
O3 Yb1 1_555 1_555
C1 N1 1_555 1_555
C2 C1 1_555 1_555
C3 N1 1_555 1_555
H1 C3 1_555 1_555
N2 C3 1_555 1_555
O4 C2 1_555 1_555
C4 C5 1_555 1_555
C5 C1 1_555 1_555
O5 C4 1_555 1_555
O6 C4 1_555 1_555
O7 Yb1 1_555 1_555
H2 N2 1_555 1_555
H3 O7 1_555 1_555
H4 O7 1_555 1_555
Yb1E O1E 1_555 1_555
Yb1E_2 O4 1_555 1_555
Yb1E_3 O5 1_555 1_555
Yb1A O2A 1_555 1_555
Yb1_2 O5E 1_555 1_555
O1E C2E 1_555 1_555
O2A S1 1_555 1_555
O2E Yb1E 1_555 1_555
N1E Yb1E 1_555 1_555
O3A S1 1_555 1_555
O3E Yb1E 1_555 1_555
C1E N1E 1_555 1_555
C2E C1E 1_555 1_555
C3E N1E 1_555 1_555
H1E C3E 1_555 1_555
N2E C3E 1_555 1_555
O4E Yb1 1_555 1_555
O4_2 Yb1E 1_555 1_555
C4E C5E 1_555 1_555
C5E C1E 1_555 1_555
O5E C4E 1_555 1_555
O5E_2 Yb1 1_555 1_555
O5_2 Yb1E 1_555 1_555
O6E Yb1 1_555 1_555
O6_2 Yb1E 1_555 1_555
O7E Yb1E 1_555 1_555
H2E N2E 1_555 1_555
H3E O7E 1_555 1_555
H4E O7E 1_555 1_555
S1 O3 1_555 1_555
N2 C5 1_555 1_555
O6 Yb1E_2 1_555 1_555
Yb1A O3A 1_555 1_555
C2E O4E 1_555 1_555
N2E C5E 1_555 1_555
C4E O6E 1_555 1_555

#END
