
#######################################################################
#
#                 Cambridge Crystallographic Data Centre
#                                CCDC 
#
#######################################################################
#
# If this CIF has been generated from an entry in the Cambridge 
# Structural Database, then it will include bibliographic, chemical, 
# crystal, experimental, refinement or atomic coordinate data resulting 
# from the CCDC's data processing and validation procedures.
#
#######################################################################

data_IDATUE
_symmetry_cell_setting           orthorhombic
_symmetry_space_group_name_H-M   'F d d 2'
_symmetry_Int_Tables_number      43
_space_group_name_Hall           'F 2 -2d'
loop_
_symmetry_equiv_pos_site_id
_symmetry_equiv_pos_as_xyz
1 x,y,z
2 -x,-y,z
3 1/4-x,1/4+y,1/4+z
4 3/4+x,3/4-y,1/4+z
5 x,1/2+y,1/2+z
6 -x,1/2-y,1/2+z
7 1/4-x,3/4+y,3/4+z
8 3/4+x,1/4-y,3/4+z
9 1/2+x,y,1/2+z
10 1/2-x,-y,1/2+z
11 3/4-x,1/4+y,3/4+z
12 1/4+x,3/4-y,3/4+z
13 1/2+x,1/2+y,z
14 1/2-x,1/2-y,z
15 3/4-x,3/4+y,1/4+z
16 1/4+x,1/4-y,1/4+z
_cell_length_a                   17.810(5)
_cell_length_b                   47.447(9)
_cell_length_c                   7.4063(15)
_cell_angle_alpha                90
_cell_angle_beta                 90
_cell_angle_gamma                90
_cell_volume                     6258.55
loop_
_atom_site_label
_atom_site_type_symbol
_atom_site_fract_x
_atom_site_fract_y
_atom_site_fract_z
Zn1 Zn 0.07684(2) 0.130827(9) 0.47984(7)
O1 O 0.0495(2) 0.09140(7) 0.5405(4)
O2 O 0.0317(2) 0.05848(6) 0.7462(5)
O3 O 0.0542(2) 0.13206(6) 0.7701(5)
H1 H 0.0687 0.1404 0.8642
O4 O 0.06058(15) 0.12247(7) 1.2138(5)
O5 O -0.06183(15) 0.12117(6) 1.2620(4)
N1 N 0.05148(18) 0.17331(6) 0.4739(6)
N2 N -0.0363(3) 0.31846(8) 0.4508(6)
C1 C -0.0156(2) 0.18258(9) 0.4188(6)
H6 H -0.0505 0.1695 0.3778
C2 C -0.0353(2) 0.21050(9) 0.4200(6)
H7 H -0.0830 0.2160 0.3828
C3 C 0.0164(2) 0.23059(8) 0.4772(7)
C4 C -0.0022(2) 0.26103(8) 0.4763(7)
C5 C -0.0736(3) 0.27109(9) 0.5116(7)
H8 H -0.1116 0.2587 0.5455
C6 C -0.0880(3) 0.29946(10) 0.4965(9)
H9 H -0.1365 0.3057 0.5193
C7 C 0.0328(3) 0.30880(10) 0.4207(7)
H10 H 0.0700 0.3217 0.3899
C8 C 0.0521(3) 0.28080(10) 0.4329(7)
H11 H 0.1013 0.2752 0.4120
C9 C 0.0855(2) 0.22099(9) 0.5339(6)
H12 H 0.1216 0.2337 0.5735
C10 C 0.1010(2) 0.19244(9) 0.5320(6)
H13 H 0.1476 0.1863 0.5727
C11 C 0.0415(2) 0.08348(9) 0.7015(7)
C12 C 0.0483(3) 0.10540(10) 0.8520(6)
H14 H 0.0942 0.1017 0.9209
C13 C -0.0179(2) 0.10388(9) 0.9781(7)
H15 H -0.0317 0.0842 0.9935
H16 H -0.0601 0.1134 0.9217
C14 C -0.0056(2) 0.11663(8) 1.1619(5)
Zn1_2 Zn 0.07684(2) 0.130827(9) 1.47984(7)
Zn1G Zn -0.17316(2) 0.119173(9) 1.22984(7)
O4_2 O 0.06058(15) 0.12247(7) 0.2138(5)
O5O O 0.18817(15) 0.12883(6) 0.5120(4)
O6 O 0.0119(3) 0.02832(12) 0.0565(8)
H2 H 0.0426 0.0271 -0.0336
H3 H -0.0276 0.0221 0.0211
O7 O 0.0295(3) 0.02594(13) 0.4228(9)
H4 H 0.0006 0.0243 0.5139
H5 H 0.0305 0.0435 0.4020
loop_
_geom_bond_atom_site_label_1
_geom_bond_atom_site_label_2
_geom_bond_site_symmetry_1
_geom_bond_site_symmetry_2
Zn1 O1 1_555 1_555
O1 C11 1_555 1_555
O2 C11 1_555 1_555
O3 Zn1 1_555 1_555
H1 O3 1_555 1_555
O4 C14 1_555 1_555
O5 C14 1_555 1_555
O6 H2 1_555 1_555
H3 O6 1_555 1_555
O7 H4 1_555 1_555
H5 O7 1_555 1_555
N1 Zn1 1_555 1_555
N2 C6 1_555 1_555
C1 N1 1_555 1_555
H6 C1 1_555 1_555
C2 C1 1_555 1_555
H7 C2 1_555 1_555
C3 C2 1_555 1_555
C4 C3 1_555 1_555
C5 C4 1_555 1_555
H8 C5 1_555 1_555
C6 C5 1_555 1_555
H9 C6 1_555 1_555
C7 N2 1_555 1_555
H10 C7 1_555 1_555
C8 C4 1_555 1_555
H11 C8 1_555 1_555
C9 C3 1_555 1_555
H12 C9 1_555 1_555
C10 N1 1_555 1_555
H13 C10 1_555 1_555
C11 C12 1_555 1_555
C12 O3 1_555 1_555
H14 C12 1_555 1_555
C13 C12 1_555 1_555
H15 C13 1_555 1_555
H16 C13 1_555 1_555
C14 C13 1_555 1_555
Zn1_2 O4 1_555 1_555
Zn1G O5 1_555 1_555
O4_2 Zn1 1_555 1_555
O5O Zn1 1_555 1_555
C7 C8 1_555 1_555
C9 C10 1_555 1_555

#END
