
#######################################################################
#
#                 Cambridge Crystallographic Data Centre
#                                CCDC 
#
#######################################################################
#
# If this CIF has been generated from an entry in the Cambridge 
# Structural Database, then it will include bibliographic, chemical, 
# crystal, experimental, refinement or atomic coordinate data resulting 
# from the CCDC's data processing and validation procedures.
#
#######################################################################

data_IDAVIT
_symmetry_cell_setting           monoclinic
_symmetry_space_group_name_H-M   'P 21/n'
_symmetry_Int_Tables_number      14
_space_group_name_Hall           '-P 2yn'
loop_
_symmetry_equiv_pos_site_id
_symmetry_equiv_pos_as_xyz
1 x,y,z
2 1/2-x,1/2+y,1/2-z
3 -x,-y,-z
4 1/2+x,1/2-y,1/2+z
_cell_length_a                   11.867(3)
_cell_length_b                   13.647(3)
_cell_length_c                   16.858(4)
_cell_angle_alpha                90
_cell_angle_beta                 104.614(4)
_cell_angle_gamma                90
_cell_volume                     2641.81
loop_
_atom_site_label
_atom_site_type_symbol
_atom_site_fract_x
_atom_site_fract_y
_atom_site_fract_z
Zn1 Zn 0.27077(4) 0.23607(3) 0.06403(2)
Zn2 Zn 0.11217(4) 0.12382(3) -0.22045(3)
Cl2 Cl 0.24393(11) 0.08276(12) -0.28503(8)
O1 O 0.3634(3) 0.34154(19) -0.03749(18)
O2 O 0.4917(3) 0.1589(2) -0.00280(19)
O3 O 0.1003(4) 0.2684(2) -0.2077(2)
O4 O 0.5213(2) 0.10981(18) 0.16601(17)
O5 O 0.2158(2) 0.17831(17) -0.04620(14)
O6 O 0.1260(2) 0.05254(17) -0.11726(14)
O7 O 0.4031(2) 0.29763(16) 0.14383(15)
O8 O 0.4598(2) 0.42856(18) 0.22135(16)
N1 N 0.1284(2) 0.2322(2) 0.11805(17)
N2 N 0.2033(2) 0.39309(19) 0.05658(16)
N3 N 0.2530(2) 0.07373(19) 0.09991(16)
C1 C 0.1116(3) 0.1550(2) 0.1629(2)
C2 C 0.0209(4) 0.1509(3) 0.1994(2)
H1 H 0.0101 0.0963 0.2295
C3 C -0.0546(4) 0.2303(3) 0.1904(3)
H2 H -0.1168 0.2295 0.2146
C4 C -0.0364(4) 0.3103(3) 0.1450(3)
H3 H -0.0853 0.3644 0.1390
C5 C 0.0549(3) 0.3087(2) 0.1089(2)
C6 C 0.0793(3) 0.3898(2) 0.0542(2)
H4 H 0.0344 0.3786 -0.0017
H5 H 0.0555 0.4521 0.0722
C7 C 0.2229(4) 0.4519(3) -0.0130(2)
H6 H 0.2074 0.5203 -0.0044
H7 H 0.1686 0.4308 -0.0633
C8 C 0.3450(4) 0.4416(3) -0.0221(3)
H8 H 0.3555 0.4818 -0.0672
H9 H 0.4004 0.4629 0.0277
C9 C 0.4704(4) 0.3249(3) -0.0586(3)
H10 H 0.5349 0.3464 -0.0143
H11 H 0.4722 0.3619 -0.1074
C10 C 0.4816(5) 0.2176(3) -0.0738(3)
H12 H 0.4139 0.1964 -0.1157
H13 H 0.5496 0.2072 -0.0948
C11 C 0.5986(4) 0.1684(3) 0.0572(3)
H14 H 0.6034 0.2322 0.0832
H15 H 0.6633 0.1619 0.0320
C12 C 0.6033(4) 0.0889(3) 0.1194(3)
H16 H 0.5851 0.0262 0.0919
H17 H 0.6811 0.0850 0.1554
C13 C 0.4570(3) 0.0274(3) 0.1828(2)
H18 H 0.4312 0.0404 0.2320
H19 H 0.5079 -0.0293 0.1934
C14 C 0.3528(3) 0.0042(2) 0.1137(2)
H20 H 0.3784 0.0003 0.0635
H21 H 0.3247 -0.0603 0.1235
C15 C 0.2009(3) 0.0744(2) 0.1707(2)
H22 H 0.2617 0.0837 0.2208
H23 H 0.1641 0.0116 0.1743
C16 C 0.1643(3) 0.0412(2) 0.02644(19)
H24 H 0.0876 0.0512 0.0356
H25 H 0.1738 -0.0284 0.0188
C17 C 0.1709(3) 0.0946(2) -0.0508(2)
C18 C 0.2704(3) 0.4326(2) 0.1359(2)
H26 H 0.2246 0.4258 0.1758
H27 H 0.2840 0.5019 0.1297
C19 C 0.3867(3) 0.3818(2) 0.1684(2)
Zn2C Zn 0.61217(4) 0.37618(3) 0.27955(3)
O8C O -0.0402(2) 0.07144(18) -0.27865(16)
Cl1 Cl -0.16118(11) 0.26182(8) -0.12010(6)
O9 O -0.2336(7) 0.3019(5) -0.0760(5)
O10 O -0.2249(5) 0.2126(4) -0.1897(3)
O11 O -0.0864(5) 0.1974(4) -0.0704(4)
O12 O -0.0980(4) 0.3418(3) -0.1420(2)
loop_
_geom_bond_atom_site_label_1
_geom_bond_atom_site_label_2
_geom_bond_site_symmetry_1
_geom_bond_site_symmetry_2
Zn1 O5 1_555 1_555
Zn2 Cl2 1_555 1_555
Cl1 O9 1_555 1_555
O1 C8 1_555 1_555
O2 C10 1_555 1_555
O3 Zn2 1_555 1_555
O4 C12 1_555 1_555
O5 C17 1_555 1_555
O6 Zn2 1_555 1_555
O7 Zn1 1_555 1_555
O8 C19 1_555 1_555
O10 Cl1 1_555 1_555
O11 Cl1 1_555 1_555
O12 Cl1 1_555 1_555
N1 Zn1 1_555 1_555
N2 Zn1 1_555 1_555
N3 Zn1 1_555 1_555
C1 N1 1_555 1_555
C2 C1 1_555 1_555
H1 C2 1_555 1_555
C3 C2 1_555 1_555
H2 C3 1_555 1_555
C4 C3 1_555 1_555
H3 C4 1_555 1_555
C5 N1 1_555 1_555
C6 N2 1_555 1_555
H4 C6 1_555 1_555
H5 C6 1_555 1_555
C7 N2 1_555 1_555
H6 C7 1_555 1_555
H7 C7 1_555 1_555
C8 C7 1_555 1_555
H8 C8 1_555 1_555
H9 C8 1_555 1_555
C9 O1 1_555 1_555
H10 C9 1_555 1_555
H11 C9 1_555 1_555
C10 C9 1_555 1_555
H12 C10 1_555 1_555
H13 C10 1_555 1_555
C11 O2 1_555 1_555
H14 C11 1_555 1_555
H15 C11 1_555 1_555
C12 C11 1_555 1_555
H16 C12 1_555 1_555
H17 C12 1_555 1_555
C13 O4 1_555 1_555
H18 C13 1_555 1_555
H19 C13 1_555 1_555
C14 N3 1_555 1_555
H20 C14 1_555 1_555
H21 C14 1_555 1_555
C15 N3 1_555 1_555
H22 C15 1_555 1_555
H23 C15 1_555 1_555
C16 N3 1_555 1_555
H24 C16 1_555 1_555
H25 C16 1_555 1_555
C17 O6 1_555 1_555
C18 N2 1_555 1_555
H26 C18 1_555 1_555
H27 C18 1_555 1_555
C19 O7 1_555 1_555
Zn2C O8 1_555 1_555
O8C Zn2 1_555 1_555
C1 C15 1_555 1_555
C4 C5 1_555 1_555
C5 C6 1_555 1_555
C13 C14 1_555 1_555
C16 C17 1_555 1_555
C18 C19 1_555 1_555

#END
