
#######################################################################
#
#                 Cambridge Crystallographic Data Centre
#                                CCDC 
#
#######################################################################
#
# If this CIF has been generated from an entry in the Cambridge 
# Structural Database, then it will include bibliographic, chemical, 
# crystal, experimental, refinement or atomic coordinate data resulting 
# from the CCDC's data processing and validation procedures.
#
#######################################################################

data_IDAWOA
_symmetry_cell_setting           triclinic
_symmetry_space_group_name_H-M   'P -1'
_symmetry_Int_Tables_number      2
_space_group_name_Hall           '-P 1'
loop_
_symmetry_equiv_pos_site_id
_symmetry_equiv_pos_as_xyz
1 x,y,z
2 -x,-y,-z
_cell_length_a                   9.4805(9)
_cell_length_b                   10.0292(12)
_cell_length_c                   13.2442(6)
_cell_angle_alpha                69.979(3)
_cell_angle_beta                 69.134(6)
_cell_angle_gamma                68.493(2)
_cell_volume                     1061.78
loop_
_atom_site_label
_atom_site_type_symbol
_atom_site_fract_x
_atom_site_fract_y
_atom_site_fract_z
Zn1 Zn 0.89370(7) 0.05706(7) 0.24557(5)
O1 O 0.7919(5) 0.2119(5) 0.1368(3)
O2 O 0.5738(5) 0.2671(6) 0.2688(3)
O3 O 1.1165(6) 0.1607(7) 0.1793(4)
O4 O 1.1051(5) -0.0393(6) 0.1545(4)
N1 N 0.7969(5) -0.1231(5) 0.3118(3)
N2 N 0.8194(5) 0.0559(5) 0.4143(4)
C1 C 0.6482(6) 0.2839(6) 0.1718(4)
C2 C 0.5727(6) 0.3975(5) 0.0818(4)
C3 C 0.7995(6) -0.2169(6) 0.2556(5)
C4 C 0.6590(6) 0.4239(6) -0.0294(4)
H1 H 0.7674 0.3727 -0.0498
C5 C 0.4135(6) 0.4752(6) 0.1100(4)
H2 H 0.3544 0.4582 0.1857
C6 C 0.7341(6) -0.0393(6) 0.4769(4)
C7 C 1.3457(6) 0.0244(7) 0.0661(5)
C8 C 1.4345(7) 0.1173(8) 0.0486(6)
H3 H 1.3899 0.1987 0.0821
C9 C 0.8341(7) 0.1497(6) 0.4641(5)
C10 C 0.6536(7) -0.0439(8) 0.5906(5)
H4 H 0.5927 -0.1116 0.6321
C11 C 0.7260(6) -0.1417(7) 0.4207(5)
C12 C 0.6491(7) -0.2531(7) 0.4810(5)
H5 H 0.6002 -0.2648 0.5586
C13 C 1.1792(7) 0.0512(9) 0.1377(5)
C14 C 1.4135(7) -0.0927(8) 0.0168(6)
H6 H 1.3542 -0.1575 0.0281
C15 C 0.7209(7) -0.3308(7) 0.3112(5)
C16 C 0.9299(8) 0.2452(8) 0.4005(6)
H7 H 0.9811 0.2470 0.3242
C17 C 0.8840(7) -0.2047(7) 0.1420(5)
H8 H 0.9354 -0.1290 0.1039
C18 C 0.7770(10) 0.2471(9) 0.6253(6)
H9 H 0.7241 0.2509 0.7006
C19 C 0.6467(8) -0.3436(7) 0.4252(6)
H10 H 0.5931 -0.4175 0.4647
C20 C 0.6647(8) 0.0498(8) 0.6394(5)
H11 H 0.6100 0.0485 0.7152
C21 C 0.7560(8) 0.1480(7) 0.5789(5)
C22 C 0.8918(8) -0.3012(8) 0.0872(6)
H12 H 0.9526 -0.2949 0.0121
C23 C 0.7262(9) -0.4245(8) 0.2494(6)
H13 H 0.6707 -0.4974 0.2839
C24 C 0.8108(10) -0.4099(9) 0.1407(7)
H14 H 0.8152 -0.4741 0.1003
C25 C 0.9485(10) 0.3362(9) 0.4505(8)
H15 H 1.0138 0.4000 0.4088
C26 C 0.8706(12) 0.3341(9) 0.5629(8)
H16 H 0.8851 0.3969 0.5960
Zn1A Zn 0.10630(7) 0.94294(7) -0.24557(5)
Zn1A_2 Zn 2.10630(7) -0.05706(7) -0.24557(5)
O1A O 0.2081(5) 0.7881(5) -0.1368(3)
O2A O 0.4262(5) 0.7329(6) -0.2688(3)
O3A O 1.8835(6) -0.1607(7) -0.1793(4)
O3A_2 O -0.1165(6) 0.8393(7) -0.1793(4)
O4A O 1.8949(5) 0.0393(6) -0.1545(4)
O4A_2 O -0.1051(5) 1.0393(6) -0.1545(4)
N1A N 0.2031(5) 1.1231(5) -0.3118(3)
N2A N 0.1806(5) 0.9441(5) -0.4143(4)
C1A C 0.3518(6) 0.7161(6) -0.1718(4)
C2A C 0.4273(6) 0.6025(5) -0.0818(4)
C3A C 0.2005(6) 1.2169(6) -0.2556(5)
C4A C 0.3410(6) 0.5761(6) 0.0294(4)
H1A H 0.2326 0.6273 0.0498
C5A C 0.5865(6) 0.5248(6) -0.1100(4)
H2A H 0.6456 0.5418 -0.1857
C6A C 0.2659(6) 1.0393(6) -0.4769(4)
C7A C 1.6543(6) -0.0244(7) -0.0661(5)
C8A C 1.5655(7) -0.1173(8) -0.0486(6)
H3A H 1.6101 -0.1987 -0.0821
C9A C 0.1659(7) 0.8503(6) -0.4641(5)
C10A C 0.3464(7) 1.0439(8) -0.5906(5)
H4A H 0.4073 1.1116 -0.6321
C11A C 0.2740(6) 1.1417(7) -0.4207(5)
C12A C 0.3509(7) 1.2531(7) -0.4810(5)
H5A H 0.3998 1.2648 -0.5586
C13A C 1.8208(7) -0.0512(9) -0.1377(5)
C14A C 1.5865(7) 0.0927(8) -0.0168(6)
H6A H 1.6458 0.1575 -0.0281
C15A C 0.2791(7) 1.3308(7) -0.3112(5)
C16A C 0.0701(8) 0.7548(8) -0.4005(6)
H7A H 0.0189 0.7530 -0.3242
C17A C 0.1160(7) 1.2047(7) -0.1420(5)
H8A H 0.0646 1.1290 -0.1039
C18A C 0.2230(10) 0.7529(9) -0.6253(6)
H9A H 0.2759 0.7491 -0.7006
C19A C 0.3533(8) 1.3436(7) -0.4252(6)
H10A H 0.4069 1.4175 -0.4647
C20A C 0.3353(8) 0.9502(8) -0.6394(5)
H11A H 0.3900 0.9515 -0.7152
C21A C 0.2440(8) 0.8520(7) -0.5789(5)
C22A C 0.1082(8) 1.3012(8) -0.0872(6)
H12A H 0.0474 1.2949 -0.0121
C23A C 0.2738(9) 1.4245(8) -0.2494(6)
H13A H 0.3293 1.4974 -0.2839
C24A C 0.1892(10) 1.4099(9) -0.1407(7)
H14A H 0.1848 1.4741 -0.1003
C25A C 0.0515(10) 0.6638(9) -0.4505(8)
H15A H -0.0138 0.6000 -0.4088
C26A C 0.1294(12) 0.6659(9) -0.5629(8)
H16A H 0.1149 0.6031 -0.5960
loop_
_geom_bond_atom_site_label_1
_geom_bond_atom_site_label_2
_geom_bond_site_symmetry_1
_geom_bond_site_symmetry_2
Zn1 O1 1_555 1_555
O1 C1 1_555 1_555
O2 C1 1_555 1_555
O3 Zn1 1_555 1_555
O4 Zn1 1_555 1_555
N1 Zn1 1_555 1_555
N2 Zn1 1_555 1_555
C1 C2 1_555 1_555
C2 C4 1_555 1_555
C3 N1 1_555 1_555
C4 H1 1_555 1_555
C5 C2 1_555 1_555
H2 C5 1_555 1_555
C6 N2 1_555 1_555
C7 C8 1_555 1_555
C8 H3 1_555 1_555
C9 N2 1_555 1_555
C10 C6 1_555 1_555
H4 C10 1_555 1_555
C11 N1 1_555 1_555
C12 C11 1_555 1_555
H5 C12 1_555 1_555
C13 O3 1_555 1_555
C14 C7 1_555 1_555
H6 C14 1_555 1_555
C15 C3 1_555 1_555
C16 C9 1_555 1_555
H7 C16 1_555 1_555
C17 C3 1_555 1_555
H8 C17 1_555 1_555
C18 H9 1_555 1_555
C19 C12 1_555 1_555
H10 C19 1_555 1_555
C20 C10 1_555 1_555
H11 C20 1_555 1_555
C21 C9 1_555 1_555
C22 C17 1_555 1_555
H12 C22 1_555 1_555
C23 C15 1_555 1_555
H13 C23 1_555 1_555
C24 C22 1_555 1_555
H14 C24 1_555 1_555
C25 C16 1_555 1_555
H15 C25 1_555 1_555
C26 C18 1_555 1_555
H16 C26 1_555 1_555
Zn1A O1A 1_555 1_555
Zn1A_2 O3A 1_555 1_555
O1A C1A 1_555 1_555
O2A C1A 1_555 1_555
O3A C13A 1_555 1_555
O3A_2 Zn1A 1_555 1_555
O4A Zn1A_2 1_555 1_555
O4A_2 Zn1A 1_555 1_555
N1A Zn1A 1_555 1_555
N2A Zn1A 1_555 1_555
C1A C2A 1_555 1_555
C2A C4A 1_555 1_555
C3A N1A 1_555 1_555
C4A C5 1_555 1_555
H1A C4A 1_555 1_555
C5A C4 1_555 1_555
H2A C5A 1_555 1_555
C6A N2A 1_555 1_555
C7A C8A 1_555 1_555
C8A C14 1_555 1_555
H3A C8A 1_555 1_555
C9A N2A 1_555 1_555
C10A C6A 1_555 1_555
H4A C10A 1_555 1_555
C11A N1A 1_555 1_555
C12A C11A 1_555 1_555
H5A C12A 1_555 1_555
C13A O4A 1_555 1_555
C14A C8 1_555 1_555
H6A C14A 1_555 1_555
C15A C3A 1_555 1_555
C16A C9A 1_555 1_555
H7A C16A 1_555 1_555
C17A C3A 1_555 1_555
H8A C17A 1_555 1_555
C18A H9A 1_555 1_555
C19A C12A 1_555 1_555
H10A C19A 1_555 1_555
C20A C10A 1_555 1_555
H11A C20A 1_555 1_555
C21A C9A 1_555 1_555
C22A C17A 1_555 1_555
H12A C22A 1_555 1_555
C23A C15A 1_555 1_555
H13A C23A 1_555 1_555
C24A C22A 1_555 1_555
H14A C24A 1_555 1_555
C25A C16A 1_555 1_555
H15A C25A 1_555 1_555
C26A C18A 1_555 1_555
H16A C26A 1_555 1_555
O4 C13 1_555 1_555
C6 C11 1_555 1_555
C7 C13 1_555 1_555
C15 C19 1_555 1_555
C18 C21 1_555 1_555
C20 C21 1_555 1_555
C23 C24 1_555 1_555
C25 C26 1_555 1_555
C2A C5A 1_555 1_555
C6A C11A 1_555 1_555
C7A C13A 1_555 1_555
C7A C14A 1_555 1_555
C15A C19A 1_555 1_555
C18A C21A 1_555 1_555
C20A C21A 1_555 1_555
C23A C24A 1_555 1_555
C25A C26A 1_555 1_555

#END
