
#######################################################################
#
#                 Cambridge Crystallographic Data Centre
#                                CCDC 
#
#######################################################################
#
# If this CIF has been generated from an entry in the Cambridge 
# Structural Database, then it will include bibliographic, chemical, 
# crystal, experimental, refinement or atomic coordinate data resulting 
# from the CCDC's data processing and validation procedures.
#
#######################################################################

data_IDAXIW01
_symmetry_cell_setting           monoclinic
_symmetry_space_group_name_H-M   'P 21/c'
_symmetry_Int_Tables_number      14
_space_group_name_Hall           '-P 2ybc'
loop_
_symmetry_equiv_pos_site_id
_symmetry_equiv_pos_as_xyz
1 x,y,z
2 -x,1/2+y,1/2-z
3 -x,-y,-z
4 x,1/2-y,1/2+z
_cell_length_a                   8.7003(5)
_cell_length_b                   7.9303(5)
_cell_length_c                   12.6807(5)
_cell_angle_alpha                90
_cell_angle_beta                 127.689(3)
_cell_angle_gamma                90
_cell_volume                     692.358
loop_
_atom_site_label
_atom_site_type_symbol
_atom_site_fract_x
_atom_site_fract_y
_atom_site_fract_z
Sr1 Sr 0.61551(2) 0.456450(17) 0.394920(14)
O1 O 0.91673(18) 0.51581(19) 0.63867(13)
O2 O 0.23905(19) 0.44284(15) 0.23074(13)
H1 H 0.1885 0.4589 0.2699
H2 H 0.2127 0.3467 0.1983
O3 O 1.16637(17) 0.41221(16) 0.65330(12)
O4 O 0.8504(2) 0.21563(17) 0.44579(14)
H3 H 0.9632 0.2556 0.5038
H4 H 0.8587 0.1353 0.4051
O5 O 1.51194(18) 0.72071(14) 0.82116(11)
O6 O 1.47437(18) 0.81437(13) 0.96812(12)
C1 C 1.0921(2) 0.47501(19) 0.70401(16)
C2 C 1.2203(2) 0.4949(2) 0.85514(16)
H5 H 1.2036 0.3962 0.8924
H6 H 1.1750 0.5917 0.8759
C3 C 1.4380(2) 0.51756(18) 0.92440(14)
H7 H 1.4765 0.4385 0.8850
C4 C 1.4770(2) 0.69659(19) 0.90271(14)
Sr1B Sr 2.38449(2) 0.543550(17) 1.605080(14)
Sr1B_2 Sr 1.38449(2) 0.543550(17) 0.605080(14)
Sr1C Sr 1.61551(2) 1.043550(17) 0.894920(14)
Sr1A Sr 1.38449(2) 0.956450(17) 1.105080(14)
Sr1_2 Sr 1.61551(2) 0.456450(17) 1.394920(14)
Sr1A_2 Sr 1.38449(2) -0.043550(17) 1.105080(14)
Sr1C_2 Sr 1.61551(2) 0.043550(17) 0.894920(14)
O1B O 2.08327(18) 0.48419(19) 1.36133(13)
O2B O 2.76095(19) 0.55716(15) 1.76926(13)
H1B H 2.8115 0.5411 1.7301
H2B H 2.7873 0.6533 1.8017
O3B O 1.83363(17) 0.58779(16) 1.34670(12)
O3B_2 O 0.83363(17) 0.58779(16) 0.34670(12)
O3_2 O 2.16637(17) 0.41221(16) 1.65330(12)
O4B O 2.1496(2) 0.78437(17) 1.55421(14)
H3B H 2.0368 0.7444 1.4962
H4B H 2.1413 0.8647 1.5949
O5B O 1.48806(18) 0.27929(14) 1.17884(11)
O5B_2 O 0.48806(18) 0.27929(14) 0.17884(11)
O5C O 0.51194(18) 0.77929(14) 0.32116(11)
O5_2 O 2.51194(18) 0.72071(14) 1.82116(11)
O5A O 2.48806(18) 0.22071(14) 1.67884(11)
O6B O 1.52563(18) 0.18563(13) 1.03188(12)
O6A O 0.52563(18) 0.31437(13) 0.53188(12)
O6C O 0.47437(18) 0.68563(13) 0.46812(12)
O6C_2 O 2.47437(18) 0.68563(13) 1.46812(12)
O6A_2 O 2.52563(18) 0.31437(13) 1.53188(12)
C1B C 1.9079(2) 0.52499(19) 1.29599(16)
C2B C 1.7797(2) 0.5051(2) 1.14486(16)
H5B H 1.7964 0.6038 1.1076
H6B H 1.8250 0.4083 1.1241
C3B C 1.5620(2) 0.48244(18) 1.07560(14)
H7B H 1.5235 0.5615 1.1150
C4B C 1.5230(2) 0.30341(19) 1.09729(14)
loop_
_geom_bond_atom_site_label_1
_geom_bond_atom_site_label_2
_geom_bond_site_symmetry_1
_geom_bond_site_symmetry_2
Sr1 O1 1_555 1_555
O1 C1 1_555 1_555
O2 Sr1 1_555 1_555
H1 O2 1_555 1_555
H2 O2 1_555 1_555
O3 C1 1_555 1_555
O4 Sr1 1_555 1_555
H3 O4 1_555 1_555
H4 O4 1_555 1_555
O5 C4 1_555 1_555
O6 C4 1_555 1_555
C1 C2 1_555 1_555
C2 H5 1_555 1_555
H6 C2 1_555 1_555
C3 C2 1_555 1_555
H7 C3 1_555 1_555
C4 C3 1_555 1_555
Sr1B O1B 1_555 1_555
Sr1B_2 O3 1_555 1_555
Sr1C O5 1_555 1_555
Sr1A O6 1_555 1_555
Sr1_2 O3B 1_555 1_555
Sr1A_2 O5B 1_555 1_555
Sr1C_2 O6B 1_555 1_555
O1B C1B 1_555 1_555
O2B Sr1B 1_555 1_555
H1B O2B 1_555 1_555
H2B O2B 1_555 1_555
O3B C1B 1_555 1_555
O3B_2 Sr1 1_555 1_555
O3_2 Sr1B 1_555 1_555
O4B Sr1B 1_555 1_555
H3B O4B 1_555 1_555
H4B O4B 1_555 1_555
O5B Sr1_2 1_555 1_555
O5B_2 Sr1 1_555 1_555
O5C Sr1 1_555 1_555
O5_2 Sr1B 1_555 1_555
O5A Sr1B 1_555 1_555
O6B Sr1A_2 1_555 1_555
O6A Sr1 1_555 1_555
O6C Sr1 1_555 1_555
O6C_2 Sr1B 1_555 1_555
O6A_2 Sr1B 1_555 1_555
C1B C2B 1_555 1_555
C2B H5B 1_555 1_555
H6B C2B 1_555 1_555
C3B C3 1_555 1_555
H7B C3B 1_555 1_555
C4B O5B 1_555 1_555
O5 Sr1B_2 1_555 1_555
O6 Sr1C 1_555 1_555
O6B C4B 1_555 1_555
C2B C3B 1_555 1_555
C3B C4B 1_555 1_555

#END
