
#######################################################################
#
#                 Cambridge Crystallographic Data Centre
#                                CCDC 
#
#######################################################################
#
# If this CIF has been generated from an entry in the Cambridge 
# Structural Database, then it will include bibliographic, chemical, 
# crystal, experimental, refinement or atomic coordinate data resulting 
# from the CCDC's data processing and validation procedures.
#
#######################################################################

data_IDAXIW
_symmetry_cell_setting           monoclinic
_symmetry_space_group_name_H-M   'P 21/n'
_symmetry_Int_Tables_number      14
_space_group_name_Hall           '-P 2yn'
loop_
_symmetry_equiv_pos_site_id
_symmetry_equiv_pos_as_xyz
1 x,y,z
2 1/2-x,1/2+y,1/2-z
3 -x,-y,-z
4 1/2+x,1/2-y,1/2+z
_cell_length_a                   8.7085(4)
_cell_length_b                   7.9671(4)
_cell_length_c                   10.0697(4)
_cell_angle_alpha                90
_cell_angle_beta                 95.409(2)
_cell_angle_gamma                90
_cell_volume                     695.54
loop_
_atom_site_label
_atom_site_type_symbol
_atom_site_fract_x
_atom_site_fract_y
_atom_site_fract_z
Sr1 Sr 0.22086(2) 0.04306(3) 0.60530(2)
O1 O 0.2772(2) -0.0137(3) 0.36082(19)
O2 O 0.0092(2) 0.0561(3) 0.7699(2)
H1 H -0.0857 0.0434 0.7437
H2 H 0.0108 0.1483 0.8122
O3 O 0.4040(2) 0.2833(3) 0.5536(2)
H3 H 0.4624 0.2227 0.5104
H4 H 0.4420 0.3623 0.6089
O4 O 0.5067(2) -0.3138(2) 0.03110(18)
O5 O 0.69087(19) -0.2208(3) 0.17764(18)
O6 O 0.5123(2) 0.0870(3) 0.34605(19)
C1 C 0.3872(3) 0.0252(4) 0.2949(2)
C2 C 0.3645(3) 0.0043(4) 0.1447(2)
H5 H 0.3107 0.1013 0.1075
H6 H 0.3001 -0.0920 0.1243
C3 C 0.5739(3) -0.1966(4) 0.0963(2)
C4 C 0.5134(3) -0.0185(4) 0.0755(2)
H7 H 0.5914 0.0597 0.1156
Sr1B Sr 0.77914(2) -0.04306(3) -0.60530(2)
Sr1A Sr 0.27914(2) -0.45694(3) -0.10530(2)
Sr1C Sr 0.72086(2) -0.54306(3) 0.10530(2)
Sr1B_2 Sr 0.77914(2) -0.04306(3) 0.39470(2)
Sr1_2 Sr 0.22086(2) 0.04306(3) -0.39470(2)
Sr1C_2 Sr 0.72086(2) 0.45694(3) 0.10530(2)
Sr1A_2 Sr 0.27914(2) 0.54306(3) -0.10530(2)
O1B O 0.7228(2) 0.0137(3) -0.36082(19)
O2B O 0.9908(2) -0.0561(3) -0.7699(2)
H1B H 1.0857 -0.0434 -0.7437
H2B H 0.9892 -0.1483 -0.8122
O3B O 0.5960(2) -0.2833(3) -0.5536(2)
H3B H 0.5376 -0.2227 -0.5104
H4B H 0.5580 -0.3623 -0.6089
O4B O 0.4933(2) 0.3138(2) -0.03110(18)
O4A O -0.0067(2) 0.1862(2) 0.46890(18)
O4C O 0.0067(2) -0.1862(2) 0.53110(18)
O4C_2 O 1.0067(2) -0.1862(2) -0.46890(18)
O4A_2 O 0.9933(2) 0.1862(2) -0.53110(18)
O5B O 0.30913(19) 0.2208(3) -0.17764(18)
O5B_2 O 0.30913(19) 0.2208(3) 0.82236(18)
O5C O 0.19087(19) -0.2792(3) 0.67764(18)
O5_2 O 0.69087(19) -0.2208(3) -0.82236(18)
O5A O 0.80913(19) 0.2792(3) -0.67764(18)
O6B O 0.4877(2) -0.0870(3) -0.34605(19)
O6B_2 O 0.4877(2) -0.0870(3) 0.65395(19)
O6_2 O 0.5123(2) 0.0870(3) -0.65395(19)
C1B C 0.6128(3) -0.0252(4) -0.2949(2)
C2B C 0.6355(3) -0.0043(4) -0.1447(2)
H5B H 0.6893 -0.1013 -0.1075
H6B H 0.6999 0.0920 -0.1243
C3B C 0.4261(3) 0.1966(4) -0.0963(2)
C4B C 0.4866(3) 0.0185(4) -0.0755(2)
H7B H 0.4086 -0.0597 -0.1156
loop_
_geom_bond_atom_site_label_1
_geom_bond_atom_site_label_2
_geom_bond_site_symmetry_1
_geom_bond_site_symmetry_2
Sr1 O1 1_555 1_555
O1 C1 1_555 1_555
O2 Sr1 1_555 1_555
H1 O2 1_555 1_555
H2 O2 1_555 1_555
O3 Sr1 1_555 1_555
H3 O3 1_555 1_555
H4 O3 1_555 1_555
O4 C3 1_555 1_555
O5 C3 1_555 1_555
O6 C1 1_555 1_555
C1 C2 1_555 1_555
C2 H5 1_555 1_555
H6 C2 1_555 1_555
C3 C4 1_555 1_555
C4 C2 1_555 1_555
H7 C4 1_555 1_555
Sr1B O1B 1_555 1_555
Sr1A O4 1_555 1_555
Sr1C O4 1_555 1_555
Sr1B_2 O5 1_555 1_555
Sr1_2 O5B 1_555 1_555
Sr1C_2 O4B 1_555 1_555
Sr1A_2 O4B 1_555 1_555
O1B C1B 1_555 1_555
O2B Sr1B 1_555 1_555
H1B O2B 1_555 1_555
H2B O2B 1_555 1_555
O3B Sr1B 1_555 1_555
H3B O3B 1_555 1_555
H4B O3B 1_555 1_555
O4B C3B 1_555 1_555
O4A Sr1 1_555 1_555
O4C Sr1 1_555 1_555
O4C_2 Sr1B 1_555 1_555
O4A_2 Sr1B 1_555 1_555
O5B Sr1A_2 1_555 1_555
O5B_2 Sr1 1_555 1_555
O5C Sr1 1_555 1_555
O5_2 Sr1B 1_555 1_555
O5A Sr1B 1_555 1_555
O6B Sr1_2 1_555 1_555
O6B_2 Sr1 1_555 1_555
O6_2 Sr1B 1_555 1_555
C1B O6B 1_555 1_555
C2B C1B 1_555 1_555
H5B C2B 1_555 1_555
H6B C2B 1_555 1_555
C3B O5B 1_555 1_555
C4B C4 1_555 1_555
H7B C4B 1_555 1_555
O5 Sr1C 1_555 1_555
O6 Sr1B_2 1_555 1_555
C2B C4B 1_555 1_555
C3B C4B 1_555 1_555

#END
