
#######################################################################
#
#                 Cambridge Crystallographic Data Centre
#                                CCDC 
#
#######################################################################
#
# If this CIF has been generated from an entry in the Cambridge 
# Structural Database, then it will include bibliographic, chemical, 
# crystal, experimental, refinement or atomic coordinate data resulting 
# from the CCDC's data processing and validation procedures.
#
#######################################################################

data_IDAYIX
_symmetry_cell_setting           monoclinic
_symmetry_space_group_name_H-M   'P 21/n'
_symmetry_Int_Tables_number      14
_space_group_name_Hall           '-P 2yn'
loop_
_symmetry_equiv_pos_site_id
_symmetry_equiv_pos_as_xyz
1 x,y,z
2 1/2-x,1/2+y,1/2-z
3 -x,-y,-z
4 1/2+x,1/2-y,1/2+z
_cell_length_a                   9.950(4)
_cell_length_b                   9.161(4)
_cell_length_c                   15.974(7)
_cell_angle_alpha                90
_cell_angle_beta                 96.848(8)
_cell_angle_gamma                90
_cell_volume                     1445.67
loop_
_atom_site_label
_atom_site_type_symbol
_atom_site_fract_x
_atom_site_fract_y
_atom_site_fract_z
Cu1 Cu -0.03139(5) 0.32126(5) 0.24233(3)
O1 O 0.5391(3) 0.5386(4) 0.1205(3)
O2 O 0.4238(3) 0.6377(3) 0.21712(17)
O3 O 0.4864(3) 0.2420(4) 0.2535(2)
O4 O 0.6054(3) 0.4033(3) 0.3363(2)
O5 O -0.1561(3) 0.1917(3) 0.1632(2)
H1 H -0.2390 0.2119 0.1489
H2 H -0.1267 0.1045 0.1642
O6 O -0.1426(3) 0.5059(3) 0.19990(19)
H3 H -0.1026 0.5863 0.2126
H4 H -0.2252 0.5142 0.1795
O7 O -0.1432(3) 0.3074(3) 0.3421(2)
H5 H -0.2269 0.3278 0.3398
H6 H -0.1294 0.2276 0.3689
N1 N 0.1256(3) 0.4331(3) 0.31322(19)
N2 N 0.1029(3) 0.3501(3) 0.1547(2)
C1 C 0.0730(4) 0.3334(5) 0.0718(3)
H7 H -0.0109 0.2945 0.0514
C2 C 0.1597(5) 0.3706(6) 0.0152(3)
H8 H 0.1373 0.3541 -0.0422
C3 C 0.2821(5) 0.4335(5) 0.0460(3)
H9 H 0.3430 0.4599 0.0088
C4 C 0.3149(4) 0.4575(4) 0.1313(2)
C5 C 0.2231(4) 0.4074(4) 0.1854(2)
C6 C 0.2437(4) 0.4159(4) 0.2795(2)
C7 C 0.3662(4) 0.4059(4) 0.3308(2)
C8 C 0.3664(4) 0.4325(5) 0.4164(3)
H10 H 0.4477 0.4297 0.4517
C9 C 0.2479(5) 0.4629(6) 0.4497(3)
H11 H 0.2483 0.4865 0.5063
C10 C 0.1292(4) 0.4572(5) 0.3962(3)
H12 H 0.0479 0.4707 0.4186
C11 C 0.4367(4) 0.5507(5) 0.1593(3)
C12 C 0.4963(4) 0.3469(4) 0.3029(3)
Cu1A Cu 0.53139(5) 0.82126(5) 0.25767(3)
O2A O 0.0762(3) 0.1377(3) 0.28288(17)
O8 O 0.5895(3) 0.2368(4) 0.0943(3)
H13 H 0.5835 0.3265 0.0808
H14 H 0.5492 0.2392 0.1383
loop_
_geom_bond_atom_site_label_1
_geom_bond_atom_site_label_2
_geom_bond_site_symmetry_1
_geom_bond_site_symmetry_2
Cu1 O5 1_555 1_555
O1 C11 1_555 1_555
O2 C11 1_555 1_555
O3 C12 1_555 1_555
O4 C12 1_555 1_555
O5 H1 1_555 1_555
H2 O5 1_555 1_555
O6 Cu1 1_555 1_555
H3 O6 1_555 1_555
H4 O6 1_555 1_555
O7 Cu1 1_555 1_555
H5 O7 1_555 1_555
H6 O7 1_555 1_555
N1 Cu1 1_555 1_555
N2 Cu1 1_555 1_555
C1 N2 1_555 1_555
H7 C1 1_555 1_555
C2 C1 1_555 1_555
H8 C2 1_555 1_555
C3 C2 1_555 1_555
H9 C3 1_555 1_555
C4 C3 1_555 1_555
C5 N2 1_555 1_555
C6 N1 1_555 1_555
C7 C6 1_555 1_555
C8 C7 1_555 1_555
H10 C8 1_555 1_555
C9 C8 1_555 1_555
H11 C9 1_555 1_555
C10 N1 1_555 1_555
H12 C10 1_555 1_555
C11 C4 1_555 1_555
C12 C7 1_555 1_555
O8 H13 1_555 1_555
H14 O8 1_555 1_555
Cu1A O2 1_555 1_555
O2A Cu1 1_555 1_555
C4 C5 1_555 1_555
C5 C6 1_555 1_555
C9 C10 1_555 1_555

#END
