
#######################################################################
#
#                 Cambridge Crystallographic Data Centre
#                                CCDC 
#
#######################################################################
#
# If this CIF has been generated from an entry in the Cambridge 
# Structural Database, then it will include bibliographic, chemical, 
# crystal, experimental, refinement or atomic coordinate data resulting 
# from the CCDC's data processing and validation procedures.
#
#######################################################################

data_IDAZAQ
_symmetry_cell_setting           monoclinic
_symmetry_space_group_name_H-M   'P 21/n'
_symmetry_Int_Tables_number      14
_space_group_name_Hall           '-P 2yn'
loop_
_symmetry_equiv_pos_site_id
_symmetry_equiv_pos_as_xyz
1 x,y,z
2 1/2-x,1/2+y,1/2-z
3 -x,-y,-z
4 1/2+x,1/2-y,1/2+z
_cell_length_a                   9.5810(9)
_cell_length_b                   14.8675(15)
_cell_length_c                   14.9056(14)
_cell_angle_alpha                90
_cell_angle_beta                 91.538(5)
_cell_angle_gamma                90
_cell_volume                     2122.47
loop_
_atom_site_label
_atom_site_type_symbol
_atom_site_fract_x
_atom_site_fract_y
_atom_site_fract_z
Nd1 Nd 1.02953(3) 0.663992(15) 0.246217(16)
Nd2 Nd 1.80991(2) 0.846420(15) 0.405800(16)
O1 O 1.5842(3) 0.7709(2) 0.4569(2)
C1 C 1.2687(5) 0.8568(3) 0.3655(3)
H1 H 1.3058 0.8783 0.3127
O2 O 1.5619(3) 0.8871(2) 0.3665(2)
C2 C 1.5090(5) 0.8282(3) 0.4166(3)
C3 C 1.3555(5) 0.8281(4) 0.4280(4)
H2 H 1.3202 0.8068 0.4815
O3 O 0.7836(3) 0.7226(2) 0.2985(2)
O4 O 0.7899(3) 0.6470(2) 0.1732(2)
C4 C 0.7199(5) 0.6861(3) 0.2319(3)
O5 O 1.0906(4) 0.6561(2) 0.4082(2)
C5 C 1.0122(6) 0.6644(3) 0.4739(3)
O6 O 0.9116(4) 0.7183(2) 0.4785(2)
O7 O 1.0189(4) 0.7802(2) 0.1277(2)
H3 H 1.0470 0.7594 0.0782
H4 H 1.0621 0.8282 0.1422
C6 C 0.4972(5) 0.6643(3) 0.1528(3)
H5 H 0.5490 0.6512 0.1025
C7 C 1.1155(5) 0.8573(3) 0.3732(3)
C8 C 0.5665(5) 0.6870(3) 0.2248(3)
H6 H 0.5169 0.7049 0.2745
C9 C 1.0375(5) 0.6029(3) 0.5517(3)
H7 H 1.1223 0.5725 0.5560
C10 C 0.9469(6) 0.5895(3) 0.6139(3)
H8 H 0.8705 0.6280 0.6170
O8 O 1.0390(3) 0.8180(2) 0.3136(2)
O9 O 1.0605(3) 0.8974(2) 0.4368(2)
O10 O 1.7818(4) 1.0060(2) 0.4411(3)
O11 O 1.8092(4) 0.9288(3) 0.2613(2)
H9 H 1.8857 0.9226 0.2344
H10 H 1.7472 0.9489 0.2284
O12 O 1.0338(3) 0.5710(2) 0.1065(2)
H11 H 1.0155 0.5158 0.1155
H12 H 1.1004 0.5787 0.0861
C11 C 0.9609(6) 0.5154(3) 0.6799(3)
O13 O 1.0774(4) 0.4770(2) 0.6945(2)
O14 O 0.8508(4) 0.4865(2) 0.7148(2)
C12 C 0.3435(5) 0.6570(3) 0.1423(3)
O15 O 0.2692(3) 0.6793(2) 0.2068(2)
O16 O 0.2955(3) 0.6265(2) 0.0686(2)
H17 H 1.833(6) 1.032(4) 0.482(4)
H18 H 1.776(6) 1.044(4) 0.408(4)
Nd1B Nd 0.97047(3) 0.336008(15) 0.753783(16)
Nd1_2 Nd 0.02953(3) 0.663992(15) 0.246217(16)
Nd2_2 Nd 0.80991(2) 0.846420(15) 0.405800(16)
Nd2C Nd 0.30991(2) 0.653580(15) -0.094200(16)
O3_2 O 1.7836(3) 0.7226(2) 0.2985(2)
O6_2 O 1.9116(4) 0.7183(2) 0.4785(2)
O8_2 O 2.0390(3) 0.8180(2) 0.3136(2)
O9_2 O 2.0605(3) 0.8974(2) 0.4368(2)
O13B O 0.9226(4) 0.5230(2) 0.3055(2)
O14B O 1.1492(4) 0.5135(2) 0.2852(2)
O15_2 O 1.2692(3) 0.6793(2) 0.2068(2)
O16C O 1.7955(3) 0.8735(2) 0.5686(2)
O17 O 0.6477(13) 0.5680(8) 0.4310(8)
H13 H 0.6803 0.6169 0.4106
H14 H 0.7017 0.5507 0.4737
O18 O 0.4332(5) 0.4644(3) 0.3352(3)
H15 H 0.4845 0.5021 0.3634
H16 H 0.3534 0.4878 0.3252
O19 O 0.3772(16) 0.5909(13) 0.4489(10)
H19 H 0.4418 0.6067 0.4142
H20 H 0.2950 0.6105 0.4385
loop_
_geom_bond_atom_site_label_1
_geom_bond_atom_site_label_2
_geom_bond_site_symmetry_1
_geom_bond_site_symmetry_2
Nd1 O3 1_555 1_555
Nd2 O1 1_555 1_555
O1 C2 1_555 1_555
C1 H1 1_555 1_555
O2 Nd2 1_555 1_555
C2 O2 1_555 1_555
C3 C1 1_555 1_555
H2 C3 1_555 1_555
O3 C4 1_555 1_555
O4 Nd1 1_555 1_555
C4 O4 1_555 1_555
O5 Nd1 1_555 1_555
C5 O5 1_555 1_555
O6 C5 1_555 1_555
O7 Nd1 1_555 1_555
H3 O7 1_555 1_555
H4 O7 1_555 1_555
C6 H5 1_555 1_555
C7 C1 1_555 1_555
C8 C4 1_555 1_555
H6 C8 1_555 1_555
C9 C5 1_555 1_555
H7 C9 1_555 1_555
C10 C9 1_555 1_555
H8 C10 1_555 1_555
O8 Nd1 1_555 1_555
O9 C7 1_555 1_555
O10 Nd2 1_555 1_555
O11 Nd2 1_555 1_555
H9 O11 1_555 1_555
H10 O11 1_555 1_555
O12 Nd1 1_555 1_555
H11 O12 1_555 1_555
H12 O12 1_555 1_555
C11 C10 1_555 1_555
O13 C11 1_555 1_555
O14 C11 1_555 1_555
C12 C6 1_555 1_555
O15 C12 1_555 1_555
O16 C12 1_555 1_555
O17 H13 1_555 1_555
H14 O17 1_555 1_555
O18 H15 1_555 1_555
H16 O18 1_555 1_555
H17 O10 1_555 1_555
H18 O10 1_555 1_555
O19 H19 1_555 1_555
H20 O19 1_555 1_555
Nd1B O13 1_555 1_555
Nd1_2 O15 1_555 1_555
Nd2_2 O3 1_555 1_555
Nd2C O16 1_555 1_555
O3_2 Nd2 1_555 1_555
O6_2 Nd2 1_555 1_555
O8_2 Nd2 1_555 1_555
O9_2 Nd2 1_555 1_555
O13B Nd1 1_555 1_555
O14B Nd1 1_555 1_555
O15_2 Nd1 1_555 1_555
O16C Nd2 1_555 1_555
C2 C3 1_555 1_555
O6 Nd2_2 1_555 1_555
C6 C8 1_555 1_555
C7 O8 1_555 1_555
O8 Nd2_2 1_555 1_555
O9 Nd2_2 1_555 1_555
O14 Nd1B 1_555 1_555

#END
