
#######################################################################
#
#                 Cambridge Crystallographic Data Centre
#                                CCDC 
#
#######################################################################
#
# If this CIF has been generated from an entry in the Cambridge 
# Structural Database, then it will include bibliographic, chemical, 
# crystal, experimental, refinement or atomic coordinate data resulting 
# from the CCDC's data processing and validation procedures.
#
#######################################################################

data_IDEBAW
_symmetry_cell_setting           monoclinic
_symmetry_space_group_name_H-M   'P 21/n'
_symmetry_Int_Tables_number      14
_space_group_name_Hall           '-P 2yn'
loop_
_symmetry_equiv_pos_site_id
_symmetry_equiv_pos_as_xyz
1 x,y,z
2 1/2-x,1/2+y,1/2-z
3 -x,-y,-z
4 1/2+x,1/2-y,1/2+z
_cell_length_a                   10.0620(6)
_cell_length_b                   14.4431(8)
_cell_length_c                   11.1456(7)
_cell_angle_alpha                90
_cell_angle_beta                 99.174(1)
_cell_angle_gamma                90
_cell_volume                     1599.03
loop_
_atom_site_label
_atom_site_type_symbol
_atom_site_fract_x
_atom_site_fract_y
_atom_site_fract_z
Pb1 Pb 0.260829(17) 0.509355(12) 0.899845(16)
O1 O 0.3478(3) 0.6440(2) 1.0129(3)
N1 N 0.3495(4) 0.4394(3) 0.7130(4)
N2 N 0.4858(4) 0.5592(3) 0.8673(3)
N3 N 0.5527(4) 0.6241(3) 0.9458(4)
N4 N 0.6569(4) 0.8756(3) 1.2492(4)
C1 C 0.4775(5) 0.4584(3) 0.7001(4)
C2 C 0.5405(6) 0.4140(4) 0.6142(5)
H1 H 0.6291 0.4280 0.6070
C3 C 0.4696(7) 0.3487(4) 0.5400(5)
H2 H 0.5103 0.3183 0.4818
C4 C 0.3396(6) 0.3285(4) 0.5516(5)
H3 H 0.2907 0.2843 0.5021
C5 C 0.2827(6) 0.3754(4) 0.6388(5)
H4 H 0.1940 0.3621 0.6466
C6 C 0.5476(5) 0.5291(3) 0.7823(4)
C7 C 0.6833(5) 0.5647(4) 0.7653(5)
H5 H 0.6929 0.6278 0.7926
H6 H 0.6918 0.5617 0.6808
H7 H 0.7521 0.5275 0.8117
C8 C 0.4712(5) 0.6637(3) 1.0126(4)
C9 C 0.5353(5) 0.7392(3) 1.0933(4)
C10 C 0.4698(5) 0.7752(3) 1.1837(5)
H8 H 0.3848 0.7541 1.1932
C11 C 0.5342(5) 0.8432(3) 1.2592(5)
H9 H 0.4903 0.8675 1.3196
C12 C 0.7181(6) 0.8406(4) 1.1623(6)
H10 H 0.8036 0.8621 1.1550
C13 C 0.6599(5) 0.7735(4) 1.0819(5)
H11 H 0.7048 0.7518 1.0207
Pb1C Pb 0.760829(17) 0.990645(12) 1.399845(16)
N4C N 0.1569(4) 0.6244(3) 0.7492(4)
Cl1 Cl 0.95237(15) 0.36424(10) 0.81424(16)
O2 O 0.8284(6) 0.3288(5) 0.7644(6)
O3 O 1.0468(7) 0.2953(5) 0.8172(8)
O4 O 0.9936(6) 0.4365(4) 0.7458(5)
O5 O 0.9435(7) 0.3990(5) 0.9303(6)
loop_
_geom_bond_atom_site_label_1
_geom_bond_atom_site_label_2
_geom_bond_site_symmetry_1
_geom_bond_site_symmetry_2
Pb1 O1 1_555 1_555
O1 C8 1_555 1_555
N1 Pb1 1_555 1_555
N2 Pb1 1_555 1_555
N3 N2 1_555 1_555
N4 C11 1_555 1_555
C1 N1 1_555 1_555
C2 C1 1_555 1_555
H1 C2 1_555 1_555
C3 C2 1_555 1_555
H2 C3 1_555 1_555
C4 C3 1_555 1_555
H3 C4 1_555 1_555
C5 N1 1_555 1_555
H4 C5 1_555 1_555
C6 N2 1_555 1_555
C7 C6 1_555 1_555
H5 C7 1_555 1_555
H6 C7 1_555 1_555
H7 C7 1_555 1_555
C8 N3 1_555 1_555
C9 C8 1_555 1_555
C10 C9 1_555 1_555
H8 C10 1_555 1_555
C11 C10 1_555 1_555
H9 C11 1_555 1_555
C12 N4 1_555 1_555
H10 C12 1_555 1_555
C13 C9 1_555 1_555
H11 C13 1_555 1_555
Cl1 O2 1_555 1_555
O3 Cl1 1_555 1_555
O4 Cl1 1_555 1_555
O5 Cl1 1_555 1_555
Pb1C N4 1_555 1_555
N4C Pb1 1_555 1_555
C1 C6 1_555 1_555
C4 C5 1_555 1_555
C12 C13 1_555 1_555

#END
