
#######################################################################
#
#                 Cambridge Crystallographic Data Centre
#                                CCDC 
#
#######################################################################
#
# If this CIF has been generated from an entry in the Cambridge 
# Structural Database, then it will include bibliographic, chemical, 
# crystal, experimental, refinement or atomic coordinate data resulting 
# from the CCDC's data processing and validation procedures.
#
#######################################################################

data_IDEBEA
_symmetry_cell_setting           monoclinic
_symmetry_space_group_name_H-M   'P 21/c'
_symmetry_Int_Tables_number      14
_space_group_name_Hall           '-P 2ybc'
loop_
_symmetry_equiv_pos_site_id
_symmetry_equiv_pos_as_xyz
1 x,y,z
2 -x,1/2+y,1/2-z
3 -x,-y,-z
4 x,1/2-y,1/2+z
_cell_length_a                   11.2122(14)
_cell_length_b                   13.4644(17)
_cell_length_c                   14.1451(18)
_cell_angle_alpha                90
_cell_angle_beta                 111.906(2)
_cell_angle_gamma                90
_cell_volume                     1981.24
loop_
_atom_site_label
_atom_site_type_symbol
_atom_site_fract_x
_atom_site_fract_y
_atom_site_fract_z
Pb1 Pb 0.379666(16) 0.502370(14) 0.303341(13)
O1 O 0.3551(3) 0.3685(3) 0.4082(3)
O2 O 0.1391(4) 0.4209(3) 0.2361(3)
H1 H 0.1367 0.3678 0.2666
O3 O 0.2933(5) 0.5804(4) 0.0983(3)
H2 H 0.2399 0.6262 0.0916
N1 N 0.6011(4) 0.5630(3) 0.2931(3)
N2 N 0.5835(4) 0.4394(3) 0.4342(3)
N3 N 0.5741(4) 0.3751(3) 0.5074(3)
N4 N 0.4129(4) 0.1305(3) 0.6945(3)
C1 C 0.7110(5) 0.5362(4) 0.3701(4)
C2 C 0.8302(5) 0.5696(4) 0.3747(5)
H3 H 0.9062 0.5498 0.4293
C3 C 0.8377(6) 0.6317(5) 0.2996(5)
H4 H 0.9188 0.6541 0.3011
C4 C 0.7259(6) 0.6607(4) 0.2223(5)
H5 H 0.7282 0.7047 0.1705
C5 C 0.6108(5) 0.6249(4) 0.2216(4)
H6 H 0.5340 0.6448 0.1679
C6 C 0.6980(5) 0.4684(4) 0.4476(4)
C7 C 0.8175(5) 0.4367(4) 0.5349(4)
H7 H 0.7934 0.3963 0.5826
H8 H 0.8646 0.4956 0.5701
H9 H 0.8722 0.3975 0.5087
C8 C 0.4546(5) 0.3432(4) 0.4834(4)
C9 C 0.4411(5) 0.2683(4) 0.5577(4)
C10 C 0.3203(5) 0.2332(4) 0.5473(4)
H10 H 0.2457 0.2561 0.4932
C11 C 0.3101(5) 0.1652(4) 0.6160(4)
H11 H 0.2271 0.1414 0.6080
C12 C 0.5287(5) 0.1646(4) 0.7041(4)
H12 H 0.6019 0.1410 0.7590
C13 C 0.5467(5) 0.2326(4) 0.6377(4)
H13 H 0.6307 0.2546 0.6468
C14 C 0.0171(6) 0.4465(6) 0.1622(6)
H14 H -0.0462 0.3962 0.1617
H15 H 0.0228 0.4497 0.0948
H16 H -0.0094 0.5114 0.1791
C15 C 0.3117(8) 0.5665(8) 0.0072(6)
H17 H 0.3963 0.5365 0.0213
H18 H 0.3071 0.6307 -0.0265
H19 H 0.2447 0.5224 -0.0373
Pb1C Pb 0.379666(16) -0.002370(14) 0.803341(13)
N4C N 0.4129(4) 0.3695(3) 0.1945(3)
Cl1 Cl -0.07646(14) 0.25586(11) 0.34029(12)
O4 O 0.0480(5) 0.2805(5) 0.3505(4)
O5 O -0.0732(6) 0.2110(5) 0.4315(4)
O6 O -0.1531(6) 0.3419(5) 0.3194(5)
O7 O -0.1306(6) 0.1904(5) 0.2568(4)
loop_
_geom_bond_atom_site_label_1
_geom_bond_atom_site_label_2
_geom_bond_site_symmetry_1
_geom_bond_site_symmetry_2
Pb1 O1 1_555 1_555
Cl1 O4 1_555 1_555
O1 C8 1_555 1_555
O2 Pb1 1_555 1_555
H1 O2 1_555 1_555
O3 Pb1 1_555 1_555
H2 O3 1_555 1_555
O5 Cl1 1_555 1_555
O6 Cl1 1_555 1_555
O7 Cl1 1_555 1_555
N1 Pb1 1_555 1_555
N2 Pb1 1_555 1_555
N3 N2 1_555 1_555
N4 C11 1_555 1_555
C1 N1 1_555 1_555
C2 C1 1_555 1_555
H3 C2 1_555 1_555
C3 C2 1_555 1_555
H4 C3 1_555 1_555
C4 C3 1_555 1_555
H5 C4 1_555 1_555
C5 N1 1_555 1_555
H6 C5 1_555 1_555
C6 N2 1_555 1_555
C7 C6 1_555 1_555
H7 C7 1_555 1_555
H8 C7 1_555 1_555
H9 C7 1_555 1_555
C8 N3 1_555 1_555
C9 C8 1_555 1_555
C10 C9 1_555 1_555
H10 C10 1_555 1_555
C11 C10 1_555 1_555
H11 C11 1_555 1_555
C12 N4 1_555 1_555
H12 C12 1_555 1_555
C13 C9 1_555 1_555
H13 C13 1_555 1_555
C14 O2 1_555 1_555
H14 C14 1_555 1_555
H15 C14 1_555 1_555
H16 C14 1_555 1_555
C15 O3 1_555 1_555
H17 C15 1_555 1_555
H18 C15 1_555 1_555
H19 C15 1_555 1_555
Pb1C N4 1_555 1_555
N4C Pb1 1_555 1_555
C1 C6 1_555 1_555
C4 C5 1_555 1_555
C12 C13 1_555 1_555

#END
