
#######################################################################
#
#                 Cambridge Crystallographic Data Centre
#                                CCDC 
#
#######################################################################
#
# If this CIF has been generated from an entry in the Cambridge 
# Structural Database, then it will include bibliographic, chemical, 
# crystal, experimental, refinement or atomic coordinate data resulting 
# from the CCDC's data processing and validation procedures.
#
#######################################################################

data_IDEBIE
_symmetry_cell_setting           triclinic
_symmetry_space_group_name_H-M   'P -1'
_symmetry_Int_Tables_number      2
_space_group_name_Hall           '-P 1'
loop_
_symmetry_equiv_pos_site_id
_symmetry_equiv_pos_as_xyz
1 x,y,z
2 -x,-y,-z
_cell_length_a                   6.4614(8)
_cell_length_b                   6.6844(8)
_cell_length_c                   14.0796(17)
_cell_angle_alpha                89.735(2)
_cell_angle_beta                 85.266(2)
_cell_angle_gamma                73.135(2)
_cell_volume                     579.848
loop_
_atom_site_label
_atom_site_type_symbol
_atom_site_fract_x
_atom_site_fract_y
_atom_site_fract_z
La1 La 0.36051(5) 0.32815(5) 0.80389(2)
O1 O 0.2326(8) 0.6573(7) 0.7194(3)
O2 O -0.0913(8) 0.7846(8) 0.6616(3)
O3 O -0.0788(7) 0.7270(8) 0.3007(3)
O4 O 0.2408(7) 0.6823(9) 0.2201(3)
O5 O 0.5103(8) 0.2478(6) 0.9657(3)
O6 O 0.5841(9) 0.3677(7) 1.1030(3)
O7 O -0.0071(10) 0.5171(10) 0.8990(5)
O8 O 0.5618(9) -0.0608(7) 0.7835(4)
O9 O 0.1731(10) 0.0871(10) 0.9025(5)
N1 N 0.4275(7) 0.7402(7) 0.3739(3)
C1 C 0.2231(9) 0.7271(9) 0.3863(4)
C2 C 0.4278(10) 0.7592(9) 0.5441(4)
C3 C 0.2199(9) 0.7388(8) 0.5561(4)
C4 C 0.1157(9) 0.7261(9) 0.4750(4)
C5 C 0.5229(9) 0.7605(9) 0.4526(4)
C6 C 0.1086(10) 0.7261(9) 0.6536(4)
C7 C 0.1196(10) 0.7107(10) 0.2960(4)
C8 C 0.5274(10) 0.3885(9) 1.0197(4)
H1 H 0.50190 0.77180 0.59660
H2 H -0.02570 0.71700 0.48040
H3 H 0.66150 0.77660 0.44530
H4 H -0.08470 0.47740 0.86270
H5 H -0.05250 0.64720 0.89900
H6 H 0.67010 -0.11890 0.74700
H7 H 0.55880 -0.18960 0.81340
H8 H 0.29540 -0.01320 0.89080
H9 H 0.07450 0.05280 0.87580
La1A La -0.36051(5) 0.67185(5) 0.19611(2)
La1A_2 La 0.63949(5) 0.67185(5) 0.19611(2)
La1A_3 La 0.63949(5) 0.67185(5) 1.19611(2)
La1_2 La -0.63949(5) 0.32815(5) 0.80389(2)
O1A O -0.2326(8) 0.3427(7) 0.2806(3)
O2A O 0.0913(8) 0.2154(8) 0.3384(3)
O3A O 0.0788(7) 0.2730(8) 0.6993(3)
O4A O -0.2408(7) 0.3177(9) 0.7799(3)
O4A_2 O 0.7592(7) 0.3177(9) 0.7799(3)
O4_2 O -0.7592(7) 0.6823(9) 0.2201(3)
O5A O 0.4897(8) 0.7522(6) 1.0343(3)
O5A_2 O -0.5103(8) 0.7522(6) 0.0343(3)
O6A O 0.4159(9) 0.6323(7) 0.8970(3)
O6_2 O -0.4159(9) 0.3677(7) 0.1030(3)
O7A O 0.0071(10) 0.4829(10) 0.1010(5)
O8A O -0.5618(9) 1.0608(7) 0.2165(4)
O9A O -0.1731(10) 0.9129(10) 0.0975(5)
N1A N -0.4275(7) 0.2598(7) 0.6261(3)
N1A_2 N 0.5725(7) 0.2598(7) 0.6261(3)
N1_2 N -0.5725(7) 0.7402(7) 0.3739(3)
C1A C -0.2231(9) 0.2729(9) 0.6137(4)
C2A C -0.4278(10) 0.2408(9) 0.4559(4)
C3A C -0.2199(9) 0.2612(8) 0.4439(4)
C4A C -0.1157(9) 0.2739(9) 0.5250(4)
C5A C -0.5229(9) 0.2395(9) 0.5474(4)
C6A C -0.1086(10) 0.2739(9) 0.3464(4)
C7A C -0.1196(10) 0.2893(10) 0.7040(4)
C8A C 0.4726(10) 0.6115(9) 0.9803(4)
H1A H -0.50190 0.22820 0.40340
H2A H 0.02570 0.28300 0.51960
H3A H -0.66150 0.22340 0.55470
H4A H 0.08470 0.52260 0.13730
H5A H 0.05250 0.35280 0.10100
H6A H -0.67010 1.11890 0.25300
H7A H -0.55880 1.18960 0.18660
H8A H -0.29540 1.01320 0.10920
H9A H -0.07450 0.94720 0.12420
O10 O -0.1015(18) -0.0885(16) 0.9137(11)
H10 H -0.22390 -0.01980 0.89910
H11 H -0.11240 -0.06870 0.97360
loop_
_geom_bond_atom_site_label_1
_geom_bond_atom_site_label_2
_geom_bond_site_symmetry_1
_geom_bond_site_symmetry_2
La1 O1 1_555 1_555
O1 C6 1_555 1_555
O2 C6 1_555 1_555
O3 C7 1_555 1_555
O4 C7 1_555 1_555
O5 La1 1_555 1_555
O6 C8 1_555 1_555
O7 La1 1_555 1_555
O8 La1 1_555 1_555
O9 La1 1_555 1_555
N1 C1 1_555 1_555
C1 C4 1_555 1_555
C2 C3 1_555 1_555
C3 C4 1_555 1_555
C4 H2 1_555 1_555
C5 N1 1_555 1_555
C6 C3 1_555 1_555
C7 C1 1_555 1_555
C8 O5 1_555 1_555
O10 H10 1_555 1_555
H1 C2 1_555 1_555
H3 C5 1_555 1_555
H4 O7 1_555 1_555
H5 O7 1_555 1_555
H6 O8 1_555 1_555
H7 O8 1_555 1_555
H8 O9 1_555 1_555
H9 O9 1_555 1_555
H11 O10 1_555 1_555
La1A O3 1_555 1_555
La1A_2 O4 1_555 1_555
La1A_3 O6 1_555 1_555
La1_2 O4A 1_555 1_555
O1A La1A 1_555 1_555
O2A C6A 1_555 1_555
O3A La1 1_555 1_555
O4A C7A 1_555 1_555
O4A_2 La1 1_555 1_555
O4_2 La1A 1_555 1_555
O5A La1A_3 1_555 1_555
O5A_2 La1A 1_555 1_555
O6A La1 1_555 1_555
O6_2 La1A 1_555 1_555
O7A La1A 1_555 1_555
O8A La1A 1_555 1_555
O9A La1A 1_555 1_555
N1A La1_2 1_555 1_555
N1A_2 La1 1_555 1_555
N1_2 La1A 1_555 1_555
C1A N1A 1_555 1_555
C2A C3A 1_555 1_555
C3A C4A 1_555 1_555
C4A C1A 1_555 1_555
C5A N1A 1_555 1_555
C6A O1A 1_555 1_555
C7A O3A 1_555 1_555
C8A C8 1_555 1_555
H1A C2A 1_555 1_555
H2A C4A 1_555 1_555
H3A C5A 1_555 1_555
H4A O7A 1_555 1_555
H5A O7A 1_555 1_555
H6A O8A 1_555 1_555
H7A O8A 1_555 1_555
H8A O9A 1_555 1_555
H9A O9A 1_555 1_555
N1 La1A_2 1_555 1_555
C2 C5 1_555 1_555
O5A C8A 1_555 1_555
O6A C8A 1_555 1_555
C1A C7A 1_555 1_555
C2A C5A 1_555 1_555
C3A C6A 1_555 1_555

#END
