
#######################################################################
#
#                 Cambridge Crystallographic Data Centre
#                                CCDC 
#
#######################################################################
#
# If this CIF has been generated from an entry in the Cambridge 
# Structural Database, then it will include bibliographic, chemical, 
# crystal, experimental, refinement or atomic coordinate data resulting 
# from the CCDC's data processing and validation procedures.
#
#######################################################################

data_IDEBAV
_symmetry_cell_setting           monoclinic
_symmetry_space_group_name_H-M   'P 21/c'
_symmetry_Int_Tables_number      14
_space_group_name_Hall           '-P 2ybc'
loop_
_symmetry_equiv_pos_site_id
_symmetry_equiv_pos_as_xyz
1 x,y,z
2 -x,1/2+y,1/2-z
3 -x,-y,-z
4 x,1/2-y,1/2+z
_cell_length_a                   9.5629(17)
_cell_length_b                   10.6579(19)
_cell_length_c                   21.353(4)
_cell_angle_alpha                90
_cell_angle_beta                 101.155(3)
_cell_angle_gamma                90
_cell_volume                     2135.19
loop_
_atom_site_label
_atom_site_type_symbol
_atom_site_fract_x
_atom_site_fract_y
_atom_site_fract_z
Sn1 Sn 0.38463(2) 0.22844(2) 0.371584(10)
N1 N 0.4684(3) 0.8383(2) 0.31816(13)
H1 H 0.5020 0.8854 0.2919
O1 O 0.3573(2) 0.4286(2) 0.37293(10)
O2 O 0.4407(3) 0.4558(2) 0.28338(11)
O3 O 0.4339(3) 1.0117(2) 0.37454(12)
C1 C 0.4027(3) 0.4975(3) 0.33130(15)
C2 C 0.4619(4) 0.7144(3) 0.30654(15)
H2 H 0.4940 0.6832 0.2712
C3 C 0.4092(3) 0.6339(3) 0.34543(14)
C4 C 0.3660(3) 0.6863(3) 0.39925(15)
H3 H 0.3307 0.6338 0.4273
C5 C 0.3746(4) 0.8110(3) 0.41112(16)
H4 H 0.3467 0.8419 0.4475
C6 C 0.4251(4) 0.8959(3) 0.36931(15)
C7 C 0.2975(3) 0.2123(3) 0.45612(15)
C8 C 0.2362(4) 0.1009(4) 0.4700(2)
H5 H 0.2306 0.0339 0.4418
C9 C 0.1831(6) 0.0879(5) 0.5256(3)
H6 H 0.1435 0.0119 0.5348
C10 C 0.1886(6) 0.1860(6) 0.5668(2)
H7 H 0.1539 0.1766 0.6043
C11 C 0.2440(5) 0.2965(5) 0.5536(2)
H8 H 0.2454 0.3640 0.5813
C12 C 0.2991(4) 0.3099(4) 0.49839(17)
H9 H 0.3379 0.3865 0.4898
C13 C 0.2302(3) 0.1953(3) 0.28674(15)
C14 C 0.2259(4) 0.0894(3) 0.24924(17)
H10 H 0.2989 0.0307 0.2586
C15 C 0.1152(5) 0.0684(4) 0.19798(19)
H11 H 0.1147 -0.0035 0.1733
C16 C 0.0067(5) 0.1534(6) 0.1837(2)
H12 H -0.0682 0.1391 0.1496
C17 C 0.0087(5) 0.2593(5) 0.2196(2)
H13 H -0.0647 0.3175 0.2098
C18 C 0.1192(4) 0.2807(4) 0.27052(19)
H14 H 0.1194 0.3537 0.2944
C19 C 0.6108(3) 0.2454(3) 0.38611(15)
C20 C 0.6747(4) 0.3350(4) 0.42928(17)
H15 H 0.6178 0.3872 0.4487
C21 C 0.8207(5) 0.3483(5) 0.4441(2)
H16 H 0.8627 0.4062 0.4746
C22 C 0.9026(5) 0.2745(5) 0.4130(3)
H17 H 1.0011 0.2848 0.4217
C23 C 0.8441(5) 0.1876(5) 0.3704(2)
H18 H 0.9021 0.1392 0.3496
C24 C 0.6973(4) 0.1696(4) 0.35701(18)
H19 H 0.6574 0.1071 0.3287
Sn1_2 Sn 0.38463(2) 1.22844(2) 0.371584(10)
O3_2 O 0.4339(3) 0.0117(2) 0.37454(12)
loop_
_geom_bond_atom_site_label_1
_geom_bond_atom_site_label_2
_geom_bond_site_symmetry_1
_geom_bond_site_symmetry_2
Sn1 O1 1_555 1_555
N1 H1 1_555 1_555
O1 C1 1_555 1_555
O2 C1 1_555 1_555
O3 C6 1_555 1_555
C1 C3 1_555 1_555
C2 N1 1_555 1_555
H2 C2 1_555 1_555
C3 C2 1_555 1_555
C4 C3 1_555 1_555
H3 C4 1_555 1_555
C5 C4 1_555 1_555
H4 C5 1_555 1_555
C6 N1 1_555 1_555
C7 Sn1 1_555 1_555
C8 C7 1_555 1_555
H5 C8 1_555 1_555
C9 C8 1_555 1_555
H6 C9 1_555 1_555
C10 C9 1_555 1_555
H7 C10 1_555 1_555
C11 C10 1_555 1_555
H8 C11 1_555 1_555
C12 C7 1_555 1_555
H9 C12 1_555 1_555
C13 Sn1 1_555 1_555
C14 C13 1_555 1_555
H10 C14 1_555 1_555
C15 C14 1_555 1_555
H11 C15 1_555 1_555
C16 C15 1_555 1_555
H12 C16 1_555 1_555
C17 C16 1_555 1_555
H13 C17 1_555 1_555
C18 C13 1_555 1_555
H14 C18 1_555 1_555
C19 Sn1 1_555 1_555
C20 C19 1_555 1_555
H15 C20 1_555 1_555
C21 C20 1_555 1_555
H16 C21 1_555 1_555
C22 C21 1_555 1_555
H17 C22 1_555 1_555
C23 C22 1_555 1_555
H18 C23 1_555 1_555
C24 C19 1_555 1_555
H19 C24 1_555 1_555
Sn1_2 O3 1_555 1_555
O3_2 Sn1 1_555 1_555
C5 C6 1_555 1_555
C11 C12 1_555 1_555
C17 C18 1_555 1_555
C23 C24 1_555 1_555

#END
