
#######################################################################
#
#                 Cambridge Crystallographic Data Centre
#                                CCDC 
#
#######################################################################
#
# If this CIF has been generated from an entry in the Cambridge 
# Structural Database, then it will include bibliographic, chemical, 
# crystal, experimental, refinement or atomic coordinate data resulting 
# from the CCDC's data processing and validation procedures.
#
#######################################################################

data_IDEGOP
_symmetry_cell_setting           triclinic
_symmetry_space_group_name_H-M   'P -1'
_symmetry_Int_Tables_number      2
_space_group_name_Hall           '-P 1'
loop_
_symmetry_equiv_pos_site_id
_symmetry_equiv_pos_as_xyz
1 x,y,z
2 -x,-y,-z
_cell_length_a                   8.119(8)
_cell_length_b                   9.721(14)
_cell_length_c                   14.606(2)
_cell_angle_alpha                88.04
_cell_angle_beta                 88.28
_cell_angle_gamma                74.09
_cell_volume                     1107.71
loop_
_atom_site_label
_atom_site_type_symbol
_atom_site_fract_x
_atom_site_fract_y
_atom_site_fract_z
Zn1 Zn 0.22644(11) 0.62962(8) 0.17107(5)
O1 O 0.1209(7) 0.6680(6) 0.2913(4)
O2 O -0.0542(7) 0.8784(6) 0.2463(3)
O3 O 0.0589(7) 0.6612(5) 1.0745(3)
O4 O 0.2816(7) 0.5598(6) 0.9869(4)
N1 N 0.3703(8) 0.7720(6) 0.1456(4)
N2 N 0.5630(8) 1.2175(6) 0.1679(4)
N3 N 0.3901(8) 1.4370(6) 0.1941(4)
C1 C 0.5490(10) 1.2296(8) 0.2619(5)
C2 C 0.4666(9) 1.3443(8) 0.1317(5)
H1 H 0.4556 1.3641 0.0677
C3 C 0.5524(10) 0.9789(7) 0.1272(5)
C4 C 0.1303(10) 0.6254(8) 0.9969(5)
C5 C 0.0056(10) 0.7831(9) 0.3050(5)
C6 C 0.0883(10) 0.6183(9) 0.8223(5)
H2 H 0.2114 0.6143 0.8174
H3 H 0.0781 0.5194 0.8189
C7 C 0.6502(10) 1.0893(7) 0.1183(5)
H4 H 0.7664 1.0489 0.1429
H5 H 0.6625 1.1149 0.0528
C8 C 0.5390(10) 0.7344(8) 0.1274(5)
H6 H 0.5962 0.6358 0.1210
C9 C 0.3769(10) 1.0148(8) 0.1434(5)
H7 H 0.3156 1.1128 0.1485
C10 C 0.6350(10) 0.8336(8) 0.1176(5)
H8 H 0.7546 0.8027 0.1045
C11 C 0.0583(11) 0.6535(8) 0.6493(5)
H9 H 0.0402 0.5577 0.6427
H10 H 0.1829 0.6431 0.6437
C12 C 0.4455(10) 1.3655(8) 0.2786(5)
C13 C 0.6202(11) 1.1335(8) 0.3326(5)
H11 H 0.6924 1.0407 0.3207
C14 C 0.2899(10) 0.9128(8) 0.1522(5)
H12 H 0.1696 0.9418 0.1632
C15 C 0.0148(10) 0.6805(9) 0.9146(5)
H13 H -0.0085 0.7859 0.9100
H14 H -0.0960 0.6585 0.9266
C16 C -0.0056(11) 0.7083(9) 0.7436(5)
H15 H 0.0050 0.8069 0.7481
H16 H -0.1288 0.7130 0.7500
C17 C 0.4079(11) 1.4127(8) 0.3688(5)
H17 H 0.3383 1.5062 0.3813
C18 C 0.4766(11) 1.3172(9) 0.4376(6)
H18 H 0.4529 1.3451 0.4994
C19 C 0.0361(10) 0.7090(8) 0.4774(5)
H19 H 0.0310 0.6099 0.4676
H20 H 0.1576 0.7100 0.4723
C20 C -0.0661(11) 0.8088(9) 0.4030(5)
H21 H -0.1844 0.7991 0.4049
H22 H -0.0728 0.9087 0.4183
C21 C 0.5802(12) 1.1804(10) 0.4201(6)
H23 H 0.6244 1.1177 0.4702
C22 C -0.0328(11) 0.7533(9) 0.5720(5)
H24 H -0.1561 0.7576 0.5752
H25 H -0.0228 0.8509 0.5821
Zn1_2 Zn 0.22644(11) 0.62962(8) 1.17107(5)
Zn1_3 Zn 0.22644(11) 1.62962(8) 0.17107(5)
O3_2 O 0.0589(7) 0.6612(5) 0.0745(3)
N3_2 N 0.3901(8) 0.4370(6) 0.1941(4)
loop_
_geom_bond_atom_site_label_1
_geom_bond_atom_site_label_2
_geom_bond_site_symmetry_1
_geom_bond_site_symmetry_2
Zn1 O1 1_555 1_555
O1 C5 1_555 1_555
O2 C5 1_555 1_555
O3 C4 1_555 1_555
O4 C4 1_555 1_555
N1 Zn1 1_555 1_555
N2 C1 1_555 1_555
N3 C2 1_555 1_555
C1 C12 1_555 1_555
C2 N2 1_555 1_555
H1 C2 1_555 1_555
C3 C7 1_555 1_555
C4 C15 1_555 1_555
C5 C20 1_555 1_555
C6 H2 1_555 1_555
H3 C6 1_555 1_555
C7 N2 1_555 1_555
H4 C7 1_555 1_555
H5 C7 1_555 1_555
C8 N1 1_555 1_555
H6 C8 1_555 1_555
C9 C3 1_555 1_555
H7 C9 1_555 1_555
C10 C3 1_555 1_555
H8 C10 1_555 1_555
C11 H9 1_555 1_555
H10 C11 1_555 1_555
C12 N3 1_555 1_555
C13 C1 1_555 1_555
H11 C13 1_555 1_555
C14 N1 1_555 1_555
H12 C14 1_555 1_555
C15 C6 1_555 1_555
H13 C15 1_555 1_555
H14 C15 1_555 1_555
C16 C6 1_555 1_555
H15 C16 1_555 1_555
H16 C16 1_555 1_555
C17 C12 1_555 1_555
H17 C17 1_555 1_555
C18 C17 1_555 1_555
H18 C18 1_555 1_555
C19 H19 1_555 1_555
H20 C19 1_555 1_555
C20 C19 1_555 1_555
H21 C20 1_555 1_555
H22 C20 1_555 1_555
C21 C13 1_555 1_555
H23 C21 1_555 1_555
C22 C11 1_555 1_555
H24 C22 1_555 1_555
H25 C22 1_555 1_555
Zn1_2 O3 1_555 1_555
Zn1_3 N3 1_555 1_555
O3_2 Zn1 1_555 1_555
N3_2 Zn1 1_555 1_555
C8 C10 1_555 1_555
C9 C14 1_555 1_555
C11 C16 1_555 1_555
C18 C21 1_555 1_555
C19 C22 1_555 1_555

#END
