
#######################################################################
#
#                 Cambridge Crystallographic Data Centre
#                                CCDC 
#
#######################################################################
#
# If this CIF has been generated from an entry in the Cambridge 
# Structural Database, then it will include bibliographic, chemical, 
# crystal, experimental, refinement or atomic coordinate data resulting 
# from the CCDC's data processing and validation procedures.
#
#######################################################################

data_IDEGAB
_symmetry_cell_setting           orthorhombic
_symmetry_space_group_name_H-M   'P c c n'
_symmetry_Int_Tables_number      56
_space_group_name_Hall           '-P 2ab 2ac'
loop_
_symmetry_equiv_pos_site_id
_symmetry_equiv_pos_as_xyz
1 x,y,z
2 1/2-x,1/2-y,z
3 -x,1/2+y,1/2-z
4 1/2+x,-y,1/2-z
5 -x,-y,-z
6 1/2+x,1/2+y,-z
7 x,1/2-y,1/2+z
8 1/2-x,y,1/2+z
_cell_length_a                   14.5562(19)
_cell_length_b                   25.903(3)
_cell_length_c                   8.9239(12)
_cell_angle_alpha                90
_cell_angle_beta                 90
_cell_angle_gamma                90
_cell_volume                     3364.75
loop_
_atom_site_label
_atom_site_type_symbol
_atom_site_fract_x
_atom_site_fract_y
_atom_site_fract_z
Zn1 Zn 0.97927(3) 0.330127(13) 0.19495(5)
N1 N 0.8384(2) 0.34450(11) 0.1826(3)
C1 C 0.8148(2) 0.38273(12) 0.0857(4)
C2 C 0.9411(4) 0.47031(16) -0.1724(5)
H1 H 0.9313 0.4973 -0.2392
C3 C 0.8673(3) 0.44934(14) -0.0912(5)
C4 C 0.7232(3) 0.39803(14) 0.0600(5)
C5 C 0.6559(3) 0.36901(16) 0.1331(5)
H2 H 0.5942 0.3767 0.1170
C6 C 1.0419(3) 0.41028(15) -0.0526(5)
H3 H 1.1012 0.3977 -0.0398
C7 C 0.8878(3) 0.40801(12) 0.0054(4)
C8 C 0.7712(3) 0.31927(15) 0.2529(5)
H4 H 0.7865 0.2937 0.3216
C9 C 0.6784(3) 0.32995(16) 0.2270(6)
H5 H 0.6328 0.3105 0.2735
N2 N 0.9732(2) 0.38901(11) 0.0256(4)
S1 S 1.10686(6) 0.40039(3) 0.37277(12)
N3 N 0.99027(19) 0.29840(10) 0.4183(3)
N4 N 0.9579(2) 0.25262(10) 0.4630(3)
C10 C 1.1157(2) 0.35655(11) 0.5213(4)
C11 C 1.1777(3) 0.35925(14) 0.6343(5)
H6 H 1.2171 0.3875 0.6391
C12 C 1.1841(3) 0.32053(16) 0.7447(5)
H7 H 1.2267 0.3242 0.8217
O1 O 1.10445(18) 0.36563(10) 0.2416(3)
O2 O 1.1878(2) 0.43226(10) 0.3728(4)
O3 O 1.0199(2) 0.42648(11) 0.3896(4)
N5 N 1.0018(2) 0.23706(11) 0.5874(3)
C13 C 1.0567(2) 0.31302(11) 0.5174(4)
C14 C 1.0640(2) 0.27433(12) 0.6254(4)
C15 C 1.1290(3) 0.27760(15) 0.7414(4)
H8 H 1.1344 0.2517 0.8130
C16 C 0.7058(3) 0.44058(16) -0.0377(6)
H9 H 0.6456 0.4514 -0.0526
C17 C 0.7738(3) 0.46542(16) -0.1083(6)
H10 H 0.7602 0.4935 -0.1692
C18 C 1.0273(3) 0.45068(18) -0.1525(6)
H11 H 1.0764 0.4644 -0.2059
Zn1F Zn 0.97927(3) 0.169873(13) 0.69495(5)
N5F N 1.0018(2) 0.26294(11) 0.0874(3)
loop_
_geom_bond_atom_site_label_1
_geom_bond_atom_site_label_2
_geom_bond_site_symmetry_1
_geom_bond_site_symmetry_2
Zn1 N1 1_555 1_555
N1 C1 1_555 1_555
C1 C4 1_555 1_555
C2 H1 1_555 1_555
C3 C2 1_555 1_555
C4 C5 1_555 1_555
C5 H2 1_555 1_555
C6 H3 1_555 1_555
C7 C1 1_555 1_555
C8 N1 1_555 1_555
H4 C8 1_555 1_555
C9 C5 1_555 1_555
H5 C9 1_555 1_555
N2 Zn1 1_555 1_555
S1 C10 1_555 1_555
N3 Zn1 1_555 1_555
N4 N3 1_555 1_555
C10 C11 1_555 1_555
C11 H6 1_555 1_555
C12 C11 1_555 1_555
H7 C12 1_555 1_555
O1 Zn1 1_555 1_555
O2 S1 1_555 1_555
O3 S1 1_555 1_555
N5 N4 1_555 1_555
C13 N3 1_555 1_555
C14 N5 1_555 1_555
C15 C12 1_555 1_555
H8 C15 1_555 1_555
C16 C4 1_555 1_555
H9 C16 1_555 1_555
C17 C3 1_555 1_555
H10 C17 1_555 1_555
C18 C2 1_555 1_555
H11 C18 1_555 1_555
Zn1F N5 1_555 1_555
N5F Zn1 1_555 1_555
C3 C7 1_555 1_555
C6 N2 1_555 1_555
C6 C18 1_555 1_555
C7 N2 1_555 1_555
C8 C9 1_555 1_555
S1 O1 1_555 1_555
C10 C13 1_555 1_555
C13 C14 1_555 1_555
C14 C15 1_555 1_555
C16 C17 1_555 1_555

#END
