
#######################################################################
#
#                 Cambridge Crystallographic Data Centre
#                                CCDC 
#
#######################################################################
#
# If this CIF has been generated from an entry in the Cambridge 
# Structural Database, then it will include bibliographic, chemical, 
# crystal, experimental, refinement or atomic coordinate data resulting 
# from the CCDC's data processing and validation procedures.
#
#######################################################################

data_IDEGUV
_symmetry_cell_setting           monoclinic
_symmetry_space_group_name_H-M   'P 21/c'
_symmetry_Int_Tables_number      14
_space_group_name_Hall           '-P 2ybc'
loop_
_symmetry_equiv_pos_site_id
_symmetry_equiv_pos_as_xyz
1 x,y,z
2 -x,1/2+y,1/2-z
3 -x,-y,-z
4 x,1/2-y,1/2+z
_cell_length_a                   10.993(2)
_cell_length_b                   10.058(4)
_cell_length_c                   22.858(3)
_cell_angle_alpha                90
_cell_angle_beta                 116.003(7)
_cell_angle_gamma                90
_cell_volume                     2271.51
loop_
_atom_site_label
_atom_site_type_symbol
_atom_site_fract_x
_atom_site_fract_y
_atom_site_fract_z
Zn1 Zn 0.38485(6) 0.20636(6) 0.50551(3)
C1 C 0.6121(6) 0.2431(5) 0.6374(3)
C2 C 0.6679(6) 0.3414(5) 0.6939(2)
H1 H 0.6879 0.2923 0.7346
H2 H 0.7547 0.3768 0.6971
C3 C 0.5772(6) 0.4577(5) 0.6897(2)
C4 C 0.4557(6) 0.4355(6) 0.6955(3)
H3 H 0.4333 0.3487 0.7039
C5 C 0.3711(6) 0.5398(6) 0.6888(3)
H4 H 0.2901 0.5247 0.6931
C6 C 0.4003(6) 0.6659(5) 0.6760(3)
H5 H 0.3389 0.7364 0.6708
C7 C 0.5182(6) 0.6907(5) 0.6706(2)
C8 C 0.6044(5) 0.5838(5) 0.6776(2)
H6 H 0.6858 0.5998 0.6737
C9 C 0.5538(6) 0.8312(6) 0.6581(3)
H7 H 0.4722 0.8881 0.6431
H8 H 0.6230 0.8691 0.6992
C10 C 0.6078(6) 0.8311(5) 0.6070(3)
C11 C 0.2208(6) -0.0349(5) 0.4586(2)
H9 H 0.2378 -0.0327 0.4213
C12 C 0.2203(5) 0.0144(5) 0.5512(2)
C13 C 0.2415(6) 0.0716(5) 0.6101(3)
H10 H 0.2963 0.1484 0.6265
C14 C 0.1782(5) 0.0107(6) 0.6436(3)
H11 H 0.1893 0.0473 0.6840
C15 C 0.0984(6) -0.1027(6) 0.6200(3)
H12 H 0.0562 -0.1410 0.6444
C16 C 0.0796(6) -0.1609(6) 0.5613(3)
H13 H 0.0258 -0.2385 0.5451
C17 C 0.1432(5) -0.1000(5) 0.5275(2)
C18 C 0.0780(6) -0.2367(5) 0.4240(3)
H14 H 0.0710 -0.2135 0.3805
H15 H -0.0151 -0.2460 0.4198
C19 C 0.1498(5) -0.3679(5) 0.4448(2)
C20 C 0.2709(6) -0.3819(5) 0.4991(3)
H16 H 0.3123 -0.3075 0.5261
C21 C 0.3321(6) -0.5060(6) 0.5139(3)
H17 H 0.4156 -0.5144 0.5518
C22 C 0.1621(5) -0.5996(5) 0.4242(3)
H18 H 0.1247 -0.6752 0.3973
C23 C 0.0928(5) -0.4804(5) 0.4062(2)
H19 H 0.0085 -0.4748 0.3686
N1 N 0.2688(5) 0.0539(4) 0.5062(2)
N2 N 0.1456(4) -0.1281(4) 0.4690(2)
N3 N 0.2800(4) -0.6140(4) 0.4779(2)
O1 O 0.4966(4) 0.2695(4) 0.59263(18)
O2 O 0.6784(4) 0.1461(4) 0.6384(2)
O3 O 0.5193(4) 0.8257(4) 0.54766(17)
O4 O 0.7308(4) 0.8279(4) 0.62357(17)
Zn1_2 Zn 0.38485(6) -0.79364(6) 0.50551(3)
Zn1B Zn 0.61515(6) 0.79364(6) 0.49449(3)
N3_2 N 0.2800(4) 0.3860(4) 0.4779(2)
O3B O 0.4807(4) 0.1743(4) 0.45234(17)
O5 O 0.0713(6) 0.1748(5) 0.2493(2)
H20 H 0.0237 0.2436 0.2459
H21 H 0.1333 0.1708 0.2881
O6 O 0.0765(5) 0.8993(5) 0.2579(3)
H22 H 0.1512 0.8804 0.2901
H23 H 0.0702 0.9834 0.2542
loop_
_geom_bond_atom_site_label_1
_geom_bond_atom_site_label_2
_geom_bond_site_symmetry_1
_geom_bond_site_symmetry_2
Zn1 N1 1_555 1_555
C1 C2 1_555 1_555
C2 H1 1_555 1_555
H2 C2 1_555 1_555
C3 C2 1_555 1_555
C4 C3 1_555 1_555
H3 C4 1_555 1_555
C5 C4 1_555 1_555
H4 C5 1_555 1_555
C6 C5 1_555 1_555
H5 C6 1_555 1_555
C7 C6 1_555 1_555
C8 C3 1_555 1_555
H6 C8 1_555 1_555
C9 C7 1_555 1_555
H7 C9 1_555 1_555
H8 C9 1_555 1_555
C10 C9 1_555 1_555
C11 H9 1_555 1_555
C12 C13 1_555 1_555
C13 H10 1_555 1_555
C14 C13 1_555 1_555
H11 C14 1_555 1_555
C15 C14 1_555 1_555
H12 C15 1_555 1_555
C16 C15 1_555 1_555
H13 C16 1_555 1_555
C17 C12 1_555 1_555
C18 H14 1_555 1_555
H15 C18 1_555 1_555
C19 C18 1_555 1_555
C20 C19 1_555 1_555
H16 C20 1_555 1_555
C21 C20 1_555 1_555
H17 C21 1_555 1_555
C22 H18 1_555 1_555
C23 C19 1_555 1_555
H19 C23 1_555 1_555
N1 C11 1_555 1_555
N2 C11 1_555 1_555
N3 C21 1_555 1_555
O1 Zn1 1_555 1_555
O2 C1 1_555 1_555
O3 C10 1_555 1_555
O4 C10 1_555 1_555
O5 H20 1_555 1_555
H21 O5 1_555 1_555
O6 H22 1_555 1_555
H23 O6 1_555 1_555
Zn1_2 N3 1_555 1_555
Zn1B O3 1_555 1_555
N3_2 Zn1 1_555 1_555
O3B Zn1 1_555 1_555
C1 O1 1_555 1_555
C7 C8 1_555 1_555
C12 N1 1_555 1_555
C16 C17 1_555 1_555
C17 N2 1_555 1_555
C18 N2 1_555 1_555
C22 C23 1_555 1_555
C22 N3 1_555 1_555

#END
