
#######################################################################
#
#                 Cambridge Crystallographic Data Centre
#                                CCDC 
#
#######################################################################
#
# If this CIF has been generated from an entry in the Cambridge 
# Structural Database, then it will include bibliographic, chemical, 
# crystal, experimental, refinement or atomic coordinate data resulting 
# from the CCDC's data processing and validation procedures.
#
#######################################################################

data_IDEGIJ
_symmetry_cell_setting           orthorhombic
_symmetry_space_group_name_H-M   'P 21 21 21'
_symmetry_Int_Tables_number      19
_space_group_name_Hall           'P 2ac 2ab'
loop_
_symmetry_equiv_pos_site_id
_symmetry_equiv_pos_as_xyz
1 x,y,z
2 1/2-x,-y,1/2+z
3 -x,1/2+y,1/2-z
4 1/2+x,1/2-y,-z
_cell_length_a                   9.753(2)
_cell_length_b                   14.571(4)
_cell_length_c                   19.561(3)
_cell_angle_alpha                90
_cell_angle_beta                 90
_cell_angle_gamma                90
_cell_volume                     2779.83
loop_
_atom_site_label
_atom_site_type_symbol
_atom_site_fract_x
_atom_site_fract_y
_atom_site_fract_z
Zn1 Zn 0.79995(7) 0.65447(5) 0.28565(3)
C1 C 0.7327(6) 0.3675(4) 0.6544(3)
C2 C 0.7373(7) 0.4055(4) 0.5827(3)
C3 C 0.8247(7) 0.3706(4) 0.5315(3)
C4 C 0.9146(10) 0.2951(6) 0.5409(4)
H1 H 0.9176 0.2652 0.5840
C5 C 0.9960(12) 0.2649(8) 0.4897(6)
H2 H 1.0584 0.2163 0.4988
C6 C 0.9923(11) 0.3019(7) 0.4245(5)
H3 H 1.0471 0.2774 0.3888
C7 C 0.9068(11) 0.3752(6) 0.4133(4)
H4 H 0.9053 0.4024 0.3692
C8 C 0.8193(8) 0.4123(4) 0.4657(3)
C9 C 0.7270(6) 0.4836(4) 0.4519(3)
C10 C 0.6425(7) 0.5141(5) 0.5020(3)
H5 H 0.5785 0.5616 0.4925
C11 C 0.6490(6) 0.4758(4) 0.5683(3)
H6 H 0.5913 0.4992 0.6033
C12 C 0.7229(8) 0.5320(5) 0.3830(3)
C13 C 0.5636(6) 0.7838(4) 0.2784(3)
H7 H 0.5583 0.7763 0.2302
C14 C 0.5163(6) 0.8314(4) 0.3822(3)
C15 C 0.4635(7) 0.8713(5) 0.4412(4)
H8 H 0.3831 0.9081 0.4405
C16 C 0.5346(8) 0.8543(6) 0.5006(4)
H9 H 0.5035 0.8809 0.5422
C17 C 0.6521(8) 0.7984(6) 0.5013(3)
H10 H 0.6972 0.7876 0.5436
C18 C 0.7047(8) 0.7586(5) 0.4427(3)
H11 H 0.7849 0.7216 0.4436
C19 C 0.6317(6) 0.7761(4) 0.3807(3)
C20 C 0.3544(6) 0.8817(4) 0.2884(4)
H12 H 0.3723 0.8997 0.2405
H13 H 0.3406 0.9387 0.3151
C21 C 0.2252(5) 0.8270(4) 0.2907(3)
C22 C 0.2238(6) 0.7338(4) 0.3057(3)
H14 H 0.3066 0.7030 0.3172
C23 C 0.0996(6) 0.6856(4) 0.3039(3)
H15 H 0.1001 0.6216 0.3134
C24 C -0.0183(7) 0.8188(4) 0.2765(3)
H16 H -0.1023 0.8490 0.2668
C25 C 0.0988(6) 0.8677(4) 0.2771(3)
H17 H 0.0951 0.9317 0.2681
N1 N 0.6575(5) 0.7457(4) 0.3157(2)
N2 N 0.4737(5) 0.8354(4) 0.3145(3)
N3 N -0.0193(5) 0.7263(3) 0.2895(3)
O1 O 0.8334(4) 0.5710(3) 0.3641(2)
O2 O 0.6142(5) 0.5322(4) 0.3495(2)
O3 O 0.7021(5) 0.4214(3) 0.70204(19)
O4 O 0.7566(5) 0.2825(3) 0.6650(2)
Zn1_2 Zn -0.20005(7) 0.65447(5) 0.28565(3)
Zn1A Zn 0.70005(7) 0.34553(5) 0.78565(3)
N3_2 N 0.9807(5) 0.7263(3) 0.2895(3)
O3A O 0.7979(5) 0.5786(3) 0.20204(19)
O5 O 0.2460(10) 0.5144(7) 0.7190(6)
H18 H 0.2099 0.5659 0.7121
C26 C 0.222(2) 0.4531(14) 0.6575(10)
H19 H 0.2270 0.4898 0.6156
H20 H 0.1310 0.4247 0.6610
H21 H 0.2922 0.4050 0.6562
O6 O 0.3316(11) 0.5269(8) 0.3495(6)
H22 H 0.3471 0.4964 0.3138
C27 C 0.289(3) 0.4597(16) 0.4092(10)
H23 H 0.1956 0.4377 0.4015
H24 H 0.2937 0.4923 0.4529
H25 H 0.3523 0.4073 0.4101
loop_
_geom_bond_atom_site_label_1
_geom_bond_atom_site_label_2
_geom_bond_site_symmetry_1
_geom_bond_site_symmetry_2
Zn1 N1 1_555 1_555
C1 C2 1_555 1_555
C2 C3 1_555 1_555
C3 C4 1_555 1_555
C4 H1 1_555 1_555
C5 C4 1_555 1_555
H2 C5 1_555 1_555
C6 C5 1_555 1_555
H3 C6 1_555 1_555
C7 C6 1_555 1_555
H4 C7 1_555 1_555
C8 C3 1_555 1_555
C9 C8 1_555 1_555
C10 C9 1_555 1_555
H5 C10 1_555 1_555
C11 C2 1_555 1_555
H6 C11 1_555 1_555
C12 C9 1_555 1_555
C13 H7 1_555 1_555
C14 C15 1_555 1_555
C15 H8 1_555 1_555
C16 C15 1_555 1_555
H9 C16 1_555 1_555
C17 C16 1_555 1_555
H10 C17 1_555 1_555
C18 C17 1_555 1_555
H11 C18 1_555 1_555
C19 C14 1_555 1_555
C20 H12 1_555 1_555
H13 C20 1_555 1_555
C21 C20 1_555 1_555
C22 C21 1_555 1_555
H14 C22 1_555 1_555
C23 C22 1_555 1_555
H15 C23 1_555 1_555
C24 H16 1_555 1_555
C25 C21 1_555 1_555
H17 C25 1_555 1_555
N1 C13 1_555 1_555
N2 C13 1_555 1_555
N3 C23 1_555 1_555
O1 Zn1 1_555 1_555
O2 C12 1_555 1_555
O3 C1 1_555 1_555
O4 C1 1_555 1_555
O5 H18 1_555 1_555
C26 O5 1_555 1_555
H19 C26 1_555 1_555
H20 C26 1_555 1_555
H21 C26 1_555 1_555
O6 H22 1_555 1_555
C27 O6 1_555 1_555
H23 C27 1_555 1_555
H24 C27 1_555 1_555
H25 C27 1_555 1_555
Zn1_2 N3 1_555 1_555
Zn1A O3 1_555 1_555
N3_2 Zn1 1_555 1_555
O3A Zn1 1_555 1_555
C7 C8 1_555 1_555
C10 C11 1_555 1_555
C12 O1 1_555 1_555
C14 N2 1_555 1_555
C18 C19 1_555 1_555
C19 N1 1_555 1_555
C20 N2 1_555 1_555
C24 C25 1_555 1_555
C24 N3 1_555 1_555

#END
