
#######################################################################
#
#                 Cambridge Crystallographic Data Centre
#                                CCDC 
#
#######################################################################
#
# If this CIF has been generated from an entry in the Cambridge 
# Structural Database, then it will include bibliographic, chemical, 
# crystal, experimental, refinement or atomic coordinate data resulting 
# from the CCDC's data processing and validation procedures.
#
#######################################################################

data_IDEHAC
_symmetry_cell_setting           triclinic
_symmetry_space_group_name_H-M   'P -1'
_symmetry_Int_Tables_number      2
_space_group_name_Hall           '-P 1'
loop_
_symmetry_equiv_pos_site_id
_symmetry_equiv_pos_as_xyz
1 x,y,z
2 -x,-y,-z
_cell_length_a                   9.617(3)
_cell_length_b                   11.3894(17)
_cell_length_c                   14.398(3)
_cell_angle_alpha                82.09
_cell_angle_beta                 89.670(3)
_cell_angle_gamma                75.66
_cell_volume                     1512.71
loop_
_atom_site_label
_atom_site_type_symbol
_atom_site_fract_x
_atom_site_fract_y
_atom_site_fract_z
C1 C 0.5711(7) 0.4470(6) 0.5855(5)
H1 H 0.6196 0.4113 0.6437
C2 C 0.5547(7) 0.3734(7) 0.5186(5)
H2 H 0.5915 0.2872 0.5309
C3 C 0.4834(7) 0.4281(6) 0.4335(5)
C4 C 0.4647(7) 0.3486(8) 0.3581(6)
C5 C 0.6825(7) -0.1235(6) 0.3967(5)
H3 H 0.6169 -0.1503 0.4390
C6 C 0.7760(7) -0.0130(6) 0.2918(4)
C7 C 0.8813(7) -0.1199(6) 0.3199(5)
C8 C 0.8029(8) 0.0793(6) 0.2249(5)
H4 H 0.7317 0.1526 0.2046
C9 C 0.9382(8) 0.0575(8) 0.1904(6)
H5 H 0.9609 0.1177 0.1445
C10 C 1.0438(8) -0.0486(7) 0.2195(6)
H6 H 1.1361 -0.0585 0.1932
C11 C 1.0186(7) -0.1394(7) 0.2852(5)
H7 H 1.0912 -0.2116 0.3058
C12 C 0.8884(8) -0.3071(6) 0.4417(5)
H8 H 0.8324 -0.3225 0.4980
H9 H 0.9853 -0.3051 0.4632
C13 C 0.9019(7) -0.4108(6) 0.3840(5)
C14 C 0.7824(8) -0.4341(7) 0.3447(6)
H10 H 0.6891 -0.3850 0.3534
C15 C 0.8006(9) -0.5300(8) 0.2927(6)
H11 H 0.7169 -0.5463 0.2683
C16 C 1.0407(9) -0.5765(6) 0.3104(5)
H12 H 1.1326 -0.6258 0.2988
C17 C 1.0341(8) -0.4839(7) 0.3636(5)
H13 H 1.1202 -0.4698 0.3865
C18 C 0.3644(7) 0.2259(6) 0.1278(5)
H14 H 0.3631 0.3056 0.1409
C19 C 0.3301(6) 0.0778(6) 0.0534(5)
C20 C 0.2953(8) 0.0051(6) -0.0075(5)
H15 H 0.2496 0.0385 -0.0669
C21 C 0.3312(8) -0.1189(6) 0.0234(5)
H16 H 0.3088 -0.1724 -0.0162
C22 C 0.3986(7) -0.1689(6) 0.1095(5)
H17 H 0.4225 -0.2552 0.1263
C23 C 0.4322(7) -0.0976(6) 0.1718(5)
H18 H 0.4774 -0.1324 0.2312
C24 C 0.3960(7) 0.0289(6) 0.1426(5)
C25 C 0.2494(7) 0.2946(6) -0.0323(5)
H19 H 0.2846 0.2636 -0.0913
H20 H 0.2819 0.3699 -0.0288
C26 C 0.0880(7) 0.3262(6) -0.0353(5)
C27 C 0.0095(7) 0.3406(6) 0.0448(5)
H21 H 0.0564 0.3243 0.1047
C28 C -0.1392(8) 0.3793(6) 0.0363(5)
H22 H -0.1911 0.3890 0.0922
C29 C -0.1357(8) 0.3886(8) -0.1217(5)
H23 H -0.1849 0.4056 -0.1809
C30 C 0.0123(8) 0.3499(7) -0.1195(5)
H24 H 0.0620 0.3396 -0.1762
C31 C 0.2575(9) 0.0344(9) 0.4069(5)
C32 C 0.1230(7) 0.0165(6) 0.4555(4)
C33 C 0.1296(7) -0.0862(6) 0.5203(5)
H25 H 0.2182 -0.1457 0.5338
C34 C -0.0067(7) 0.1023(6) 0.4344(5)
H26 H -0.0113 0.1721 0.3890
N1 N 0.6498(5) -0.0192(5) 0.3401(4)
N2 N 0.8183(6) -0.1883(5) 0.3887(4)
N3 N 0.9267(7) -0.6007(6) 0.2745(5)
N4 N 0.4168(5) 0.1257(5) 0.1869(4)
N5 N 0.3123(6) 0.2037(5) 0.0462(4)
N6 N -0.2142(6) 0.4035(6) -0.0443(4)
O1 O 0.5192(6) 0.2347(5) 0.3821(4)
O2 O 0.4028(6) 0.3982(5) 0.2822(4)
O3 O 0.3600(6) -0.0521(7) 0.4020(4)
O4 O 0.2593(7) 0.1440(7) 0.3767(4)
Zn1 Zn 0.46181(8) 0.10921(7) 0.32535(5)
C1A C 0.4289(7) 0.5530(6) 0.4145(5)
H1A H 0.3804 0.5887 0.3563
C2A C 0.4453(7) 0.6266(7) 0.4814(5)
H2A H 0.4085 0.7128 0.4691
C3A C 0.5166(7) 0.5719(6) 0.5665(5)
C4A C 0.5353(7) 0.6514(8) 0.6419(6)
O1A O 0.4808(6) 0.7653(5) 0.6179(4)
O2A O 0.5972(6) 0.6018(5) 0.7178(4)
C31A C -0.2575(9) -0.0344(9) 0.5931(5)
C32A C -0.1230(7) -0.0165(6) 0.5445(4)
C33A C -0.1296(7) 0.0862(6) 0.4797(5)
H25A H -0.2182 0.1457 0.4662
C34A C 0.0067(7) -0.1023(6) 0.5656(5)
H26A H 0.0113 -0.1721 0.6110
O3A O -0.3600(6) 0.0521(7) 0.5980(4)
O4A O -0.2593(7) -0.1440(7) 0.6233(4)
C5A C -0.6825(7) 0.1235(6) 0.6033(5)
H3A H -0.6169 0.1503 0.5610
C6A C -0.7760(7) 0.0130(6) 0.7082(4)
C7A C -0.8813(7) 0.1199(6) 0.6801(5)
C8A C -0.8029(8) -0.0793(6) 0.7751(5)
H4A H -0.7317 -0.1526 0.7954
C9A C -0.9382(8) -0.0575(8) 0.8096(6)
H5A H -0.9609 -0.1177 0.8555
C10A C -1.0438(8) 0.0486(7) 0.7805(6)
H6A H -1.1361 0.0585 0.8068
C11A C -1.0186(7) 0.1394(7) 0.7148(5)
H7A H -1.0912 0.2116 0.6942
C12A C -0.8884(8) 0.3071(6) 0.5583(5)
H8A H -0.8324 0.3225 0.5020
H9A H -0.9853 0.3051 0.5368
C13A C -0.9019(7) 0.4108(6) 0.6160(5)
C14A C -0.7824(8) 0.4341(7) 0.6553(6)
H10A H -0.6891 0.3850 0.6466
C15A C -0.8006(9) 0.5300(8) 0.7073(6)
H11A H -0.7169 0.5463 0.7317
C16A C -1.0407(9) 0.5765(6) 0.6896(5)
H12A H -1.1326 0.6258 0.7012
C17A C -1.0341(8) 0.4839(7) 0.6364(5)
H13A H -1.1202 0.4698 0.6135
C18A C -0.3644(7) -0.2259(6) 0.8722(5)
H14A H -0.3631 -0.3056 0.8591
C19A C -0.3301(6) -0.0778(6) 0.9466(5)
C20A C -0.2953(8) -0.0051(6) 1.0075(5)
H15A H -0.2496 -0.0385 1.0669
C21A C -0.3312(8) 0.1189(6) 0.9766(5)
H16A H -0.3088 0.1724 1.0162
C22A C -0.3986(7) 0.1689(6) 0.8905(5)
H17A H -0.4225 0.2552 0.8737
C23A C -0.4322(7) 0.0976(6) 0.8282(5)
H18A H -0.4774 0.1324 0.7688
C24A C -0.3960(7) -0.0289(6) 0.8574(5)
C25A C -0.2494(7) -0.2946(6) 1.0323(5)
H19A H -0.2846 -0.2636 1.0913
H20A H -0.2819 -0.3699 1.0288
C26A C -0.0880(7) -0.3262(6) 1.0353(5)
C27A C -0.0095(7) -0.3406(6) 0.9552(5)
H21A H -0.0564 -0.3243 0.8953
C28A C 0.1392(8) -0.3793(6) 0.9637(5)
H22A H 0.1911 -0.3890 0.9078
C29A C 0.1357(8) -0.3886(8) 1.1217(5)
H23A H 0.1849 -0.4056 1.1809
C30A C -0.0123(8) -0.3499(7) 1.1195(5)
H24A H -0.0620 -0.3396 1.1762
N1A N -0.6498(5) 0.0192(5) 0.6599(4)
N2A N -0.8183(6) 0.1883(5) 0.6113(4)
N3A N -0.9267(7) 0.6007(6) 0.7255(5)
N4A N -0.4168(5) -0.1257(5) 0.8131(4)
N5A N -0.3123(6) -0.2037(5) 0.9538(4)
N6A N 0.2142(6) -0.4035(6) 1.0443(4)
Zn1A Zn -0.46181(8) -0.10921(7) 0.67465(5)
O1A_2 O -0.5192(6) -0.2347(5) 0.6179(4)
Zn1A_2 Zn 0.53819(8) 0.89079(7) 0.67465(5)
O5 O 0.5159(6) 0.5013(7) 0.1132(5)
H27 H 0.4432 0.5416 0.0792
H28 H 0.4884 0.4744 0.1664
loop_
_geom_bond_atom_site_label_1
_geom_bond_atom_site_label_2
_geom_bond_site_symmetry_1
_geom_bond_site_symmetry_2
C1 H1 1_555 1_555
C2 C1 1_555 1_555
H2 C2 1_555 1_555
C3 C2 1_555 1_555
C4 C3 1_555 1_555
C5 H3 1_555 1_555
C6 C7 1_555 1_555
C7 C11 1_555 1_555
C8 C6 1_555 1_555
H4 C8 1_555 1_555
C9 C8 1_555 1_555
H5 C9 1_555 1_555
C10 C9 1_555 1_555
H6 C10 1_555 1_555
C11 C10 1_555 1_555
H7 C11 1_555 1_555
C12 H8 1_555 1_555
H9 C12 1_555 1_555
C13 C12 1_555 1_555
C14 C13 1_555 1_555
H10 C14 1_555 1_555
C15 C14 1_555 1_555
H11 C15 1_555 1_555
C16 H12 1_555 1_555
C17 C13 1_555 1_555
H13 C17 1_555 1_555
C18 H14 1_555 1_555
C19 C20 1_555 1_555
C20 H15 1_555 1_555
C21 C20 1_555 1_555
H16 C21 1_555 1_555
C22 C21 1_555 1_555
H17 C22 1_555 1_555
C23 C22 1_555 1_555
H18 C23 1_555 1_555
C24 C19 1_555 1_555
C25 H19 1_555 1_555
H20 C25 1_555 1_555
C26 C25 1_555 1_555
C27 C26 1_555 1_555
H21 C27 1_555 1_555
C28 C27 1_555 1_555
H22 C28 1_555 1_555
C29 H23 1_555 1_555
C30 C26 1_555 1_555
H24 C30 1_555 1_555
C31 C32 1_555 1_555
C32 C33 1_555 1_555
C33 H25 1_555 1_555
C34 C32 1_555 1_555
H26 C34 1_555 1_555
N1 C5 1_555 1_555
N2 C5 1_555 1_555
N3 C15 1_555 1_555
N4 C18 1_555 1_555
N5 C18 1_555 1_555
N6 C28 1_555 1_555
O1 C4 1_555 1_555
O2 C4 1_555 1_555
O3 C31 1_555 1_555
O4 C31 1_555 1_555
Zn1 N1 1_555 1_555
O5 H27 1_555 1_555
H28 O5 1_555 1_555
C1A C3 1_555 1_555
H1A C1A 1_555 1_555
C2A C1A 1_555 1_555
H2A C2A 1_555 1_555
C3A C1 1_555 1_555
C4A C3A 1_555 1_555
O1A C4A 1_555 1_555
O2A C4A 1_555 1_555
C31A C32A 1_555 1_555
C32A C33A 1_555 1_555
C33A C34 1_555 1_555
H25A C33A 1_555 1_555
C34A C33 1_555 1_555
H26A C34A 1_555 1_555
O3A C31A 1_555 1_555
O4A C31A 1_555 1_555
C5A H3A 1_555 1_555
C6A C7A 1_555 1_555
C7A C11A 1_555 1_555
C8A C6A 1_555 1_555
H4A C8A 1_555 1_555
C9A C8A 1_555 1_555
H5A C9A 1_555 1_555
C10A C9A 1_555 1_555
H6A C10A 1_555 1_555
C11A C10A 1_555 1_555
H7A C11A 1_555 1_555
C12A H8A 1_555 1_555
H9A C12A 1_555 1_555
C13A C12A 1_555 1_555
C14A C13A 1_555 1_555
H10A C14A 1_555 1_555
C15A C14A 1_555 1_555
H11A C15A 1_555 1_555
C16A H12A 1_555 1_555
C17A C13A 1_555 1_555
H13A C17A 1_555 1_555
C18A H14A 1_555 1_555
C19A C20A 1_555 1_555
C20A H15A 1_555 1_555
C21A C20A 1_555 1_555
H16A C21A 1_555 1_555
C22A C21A 1_555 1_555
H17A C22A 1_555 1_555
C23A C22A 1_555 1_555
H18A C23A 1_555 1_555
C24A C19A 1_555 1_555
C25A H19A 1_555 1_555
H20A C25A 1_555 1_555
C26A C25A 1_555 1_555
C27A C26A 1_555 1_555
H21A C27A 1_555 1_555
C28A C27A 1_555 1_555
H22A C28A 1_555 1_555
C29A H23A 1_555 1_555
C30A C26A 1_555 1_555
H24A C30A 1_555 1_555
N1A C5A 1_555 1_555
N2A C5A 1_555 1_555
N3A C15A 1_555 1_555
N4A C18A 1_555 1_555
N5A C18A 1_555 1_555
N6A C28A 1_555 1_555
Zn1A O3A 1_555 1_555
O1A_2 Zn1A 1_555 1_555
Zn1A_2 O1A 1_555 1_555
C6 N1 1_555 1_555
C7 N2 1_555 1_555
C12 N2 1_555 1_555
C16 C17 1_555 1_555
C16 N3 1_555 1_555
C19 N5 1_555 1_555
C23 C24 1_555 1_555
C24 N4 1_555 1_555
C25 N5 1_555 1_555
C29 C30 1_555 1_555
C29 N6 1_555 1_555
N4 Zn1 1_555 1_555
O1 Zn1 1_555 1_555
O3 Zn1 1_555 1_555
O4 Zn1 1_555 1_555
C2A C3A 1_555 1_555
C32A C34A 1_555 1_555
O4A Zn1A 1_555 1_555
C6A N1A 1_555 1_555
C7A N2A 1_555 1_555
C12A N2A 1_555 1_555
C16A C17A 1_555 1_555
C16A N3A 1_555 1_555
C19A N5A 1_555 1_555
C23A C24A 1_555 1_555
C24A N4A 1_555 1_555
C25A N5A 1_555 1_555
C29A C30A 1_555 1_555
C29A N6A 1_555 1_555
N1A Zn1A 1_555 1_555
N4A Zn1A 1_555 1_555

#END
