
#######################################################################
#
#                 Cambridge Crystallographic Data Centre
#                                CCDC 
#
#######################################################################
#
# If this CIF has been generated from an entry in the Cambridge 
# Structural Database, then it will include bibliographic, chemical, 
# crystal, experimental, refinement or atomic coordinate data resulting 
# from the CCDC's data processing and validation procedures.
#
#######################################################################

data_IDEHUW
_symmetry_cell_setting           triclinic
_symmetry_space_group_name_H-M   'P -1'
_symmetry_Int_Tables_number      2
_space_group_name_Hall           '-P 1'
loop_
_symmetry_equiv_pos_site_id
_symmetry_equiv_pos_as_xyz
1 x,y,z
2 -x,-y,-z
_cell_length_a                   8.8761(3)
_cell_length_b                   10.2853(3)
_cell_length_c                   18.2557(5)
_cell_angle_alpha                78.977(3)
_cell_angle_beta                 78.797(3)
_cell_angle_gamma                67.424(2)
_cell_volume                     1497.03
loop_
_atom_site_label
_atom_site_type_symbol
_atom_site_fract_x
_atom_site_fract_y
_atom_site_fract_z
Cd2 Cd 0.5000 1.0000 0.5000
Ni2 Ni 0.5000 0.5000 0.5000
N7 N 0.4104(4) 0.8054(3) 0.51986(17)
N8 N 0.3969(6) 0.5878(4) 0.3452(2)
C13 C 0.4424(4) 0.6890(3) 0.51286(18)
C14 C 0.4336(5) 0.5555(4) 0.4046(2)
N9 N 0.2476(4) 1.1612(3) 0.47048(19)
N10 N 0.0605(7) 1.3397(4) 0.4137(4)
C15 C 0.2194(6) 1.2800(5) 0.4251(3)
H17 H 0.2993 1.3186 0.4032
C16 C 0.1049(7) 1.1405(7) 0.4834(6)
H18 H 0.0882 1.0598 0.5107
C17 C -0.0111(8) 1.2528(8) 0.4516(8)
H19 H -0.1220 1.2664 0.4556
C18 C -0.0008(11) 1.4755(10) 0.3555(4)
H20 H 0.0888 1.4796 0.3163
H21 H -0.0885 1.4723 0.3323
C19 C -0.0603(14) 1.5997(8) 0.3942(6)
H22 H -0.1006 1.6834 0.3591
H23 H 0.0280 1.6039 0.4156
H24 H -0.1477 1.5943 0.4335
N11 N 0.4201(4) 1.0327(3) 0.62706(16)
N12 N 0.3519(5) 1.1339(4) 0.73077(17)
C20 C 0.4195(5) 1.1386(4) 0.6582(2)
H25 H 0.4608 1.2080 0.6331
C21 C 0.3502(5) 0.9553(4) 0.6832(2)
H26 H 0.3340 0.8736 0.6780
C22 C 0.3082(5) 1.0167(4) 0.7474(2)
H27 H 0.2594 0.9853 0.7936
C23 C 0.3238(7) 1.2399(5) 0.7813(2)
H28 H 0.3439 1.3220 0.7517
H29 H 0.2094 1.2710 0.8039
C24 C 0.4301(7) 1.1845(7) 0.8418(3)
H30 H 0.4064 1.2574 0.8728
H31 H 0.5435 1.1559 0.8199
H32 H 0.4092 1.1043 0.8720
N7A N 0.5896(4) 0.1946(3) 0.48014(17)
N8A N 0.6031(6) 0.4122(4) 0.6548(2)
C13A C 0.5576(4) 0.3110(3) 0.48714(18)
C14A C 0.5664(5) 0.4445(4) 0.5954(2)
N9A N 0.7524(4) 0.8388(3) 0.52952(19)
N10A N 0.9395(7) 0.6603(4) 0.5863(4)
C15A C 0.7806(6) 0.7200(5) 0.5749(3)
H17A H 0.7007 0.6814 0.5968
C16A C 0.8951(7) 0.8595(7) 0.5166(6)
H18A H 0.9118 0.9402 0.4893
C17A C 1.0111(8) 0.7472(8) 0.5484(8)
H19A H 1.1220 0.7336 0.5444
C18A C 1.0008(11) 0.5245(10) 0.6445(4)
H20A H 0.9112 0.5204 0.6837
H21A H 1.0885 0.5277 0.6677
C19A C 1.0603(14) 0.4003(8) 0.6058(6)
H22A H 1.1006 0.3166 0.6409
H23A H 0.9720 0.3961 0.5844
H24A H 1.1477 0.4057 0.5665
N11A N 0.5799(4) 0.9673(3) 0.37294(16)
N12A N 0.6481(5) 0.8661(4) 0.26923(17)
C20A C 0.5805(5) 0.8614(4) 0.3418(2)
H25A H 0.5392 0.7920 0.3669
C21A C 0.6498(5) 1.0447(4) 0.3168(2)
H26A H 0.6660 1.1264 0.3220
C22A C 0.6918(5) 0.9833(4) 0.2526(2)
H27A H 0.7406 1.0147 0.2064
C23A C 0.6762(7) 0.7601(5) 0.2187(2)
H28A H 0.6561 0.6780 0.2483
H29A H 0.7906 0.7290 0.1961
C24A C 0.5699(7) 0.8155(7) 0.1582(3)
H30A H 0.5936 0.7426 0.1272
H31A H 0.4565 0.8441 0.1801
H32A H 0.5908 0.8957 0.1280
Cd2_2 Cd 0.5000 0.0000 0.5000
N7A_2 N 0.5896(4) 1.1946(3) 0.48014(17)
O1 O 0.7429(8) 0.3325(6) 0.2931(5)
H33 H 0.651(4) 0.408(4) 0.306(3)
H34 H 0.811(5) 0.366(5) 0.257(2)
Cd1 Cd 0.0000 0.0000 0.0000
N1 N 0.2669(4) -0.1569(3) -0.03555(16)
N2 N 0.0589(4) -0.0500(3) 0.12168(16)
N3 N 0.0873(4) 0.1943(3) -0.01811(18)
C1 C 0.3124(5) -0.2645(4) -0.0743(2)
C2 C 0.4088(5) -0.1545(6) -0.0191(3)
C3 C 0.0683(5) 0.0346(4) 0.1653(2)
C4 C 0.0999(5) -0.1822(4) 0.1632(2)
C5 C 0.0565(4) 0.3109(4) -0.01211(19)
N4 N 0.4755(5) -0.3324(4) -0.0825(2)
H1 H 0.2397 -0.2902 -0.0935
H2 H 0.4152 -0.0898 0.0084
C6 C 0.5396(5) -0.2609(7) -0.0487(3)
N5 N 0.1140(4) -0.0370(4) 0.23173(18)
H3 H 0.0460 0.1314 0.1516
H4 H 0.1031 -0.2639 0.1472
C7 C 0.1349(6) -0.1754(5) 0.2308(2)
Ni1 Ni 0.0000 0.5000 0.0000
C8 C 0.5665(8) -0.4579(6) -0.1221(4)
H5 H 0.6503 -0.2811 -0.0465
C9 C 0.1346(7) 0.0211(6) 0.2952(3)
H6 H 0.1668 -0.2501 0.2691
C10 C 0.0417(5) 0.5468(4) -0.1038(2)
H7 H 0.6561 -0.5222 -0.0949
H8 H 0.4935 -0.5074 -0.1231
C11 C 0.6325(13) -0.4183(8) -0.1988(4)
H9 H 0.0271 0.0717 0.3210
H10 H 0.1930 -0.0565 0.3307
C12 C 0.2248(8) 0.1169(7) 0.2708(3)
N6 N 0.0673(6) 0.5790(4) -0.1673(2)
H11 H 0.6812 -0.5008 -0.2247
H12 H 0.7146 -0.3795 -0.1978
H13 H 0.5452 -0.3486 -0.2246
H14 H 0.2536 0.1384 0.3139
H15 H 0.1573 0.2030 0.2441
H16 H 0.3233 0.0726 0.2381
N1A N -0.2669(4) 0.1569(3) 0.03555(16)
N2A N -0.0589(4) 0.0500(3) -0.12168(16)
N3A N -0.0873(4) -0.1943(3) 0.01811(18)
C1A C -0.3124(5) 0.2645(4) 0.0743(2)
C2A C -0.4088(5) 0.1545(6) 0.0191(3)
C3A C -0.0683(5) -0.0346(4) -0.1653(2)
C4A C -0.0999(5) 0.1822(4) -0.1632(2)
C5A C -0.0565(4) -0.3109(4) 0.01211(19)
N4A N -0.4755(5) 0.3324(4) 0.0825(2)
H1A H -0.2397 0.2902 0.0935
H2A H -0.4152 0.0898 -0.0084
C6A C -0.5396(5) 0.2609(7) 0.0487(3)
N5A N -0.1140(4) 0.0370(4) -0.23173(18)
H3A H -0.0460 -0.1314 -0.1516
H4A H -0.1031 0.2639 -0.1472
C7A C -0.1349(6) 0.1754(5) -0.2308(2)
C8A C -0.5665(8) 0.4579(6) 0.1221(4)
H5A H -0.6503 0.2811 0.0465
C9A C -0.1346(7) -0.0211(6) -0.2952(3)
H6A H -0.1668 0.2501 -0.2691
H7A H -0.6561 0.5222 0.0949
H8A H -0.4935 0.5074 0.1231
C11A C -0.6325(13) 0.4183(8) 0.1988(4)
H9A H -0.0271 -0.0717 -0.3210
H10A H -0.1930 0.0565 -0.3307
C12A C -0.2248(8) -0.1169(7) -0.2708(3)
H11A H -0.6812 0.5008 0.2247
H12A H -0.7146 0.3795 0.1978
H13A H -0.5452 0.3486 0.2246
H14A H -0.2536 -0.1384 -0.3139
H15A H -0.1573 -0.2030 -0.2441
H16A H -0.3233 -0.0726 -0.2381
C10A C -0.0417(5) 0.4532(4) 0.1038(2)
N6A N -0.0673(6) 0.4210(4) 0.1673(2)
C5A_2 C -0.0565(4) 0.6891(4) 0.01211(19)
Ni1_2 Ni 0.0000 -0.5000 0.0000
loop_
_geom_bond_atom_site_label_1
_geom_bond_atom_site_label_2
_geom_bond_site_symmetry_1
_geom_bond_site_symmetry_2
Cd1 N1 1_555 1_555
N1 C1 1_555 1_555
N2 Cd1 1_555 1_555
N3 Cd1 1_555 1_555
C1 N4 1_555 1_555
C2 N1 1_555 1_555
C3 N2 1_555 1_555
C4 N2 1_555 1_555
C5 N3 1_555 1_555
N4 C6 1_555 1_555
H1 C1 1_555 1_555
H2 C2 1_555 1_555
C6 C2 1_555 1_555
N5 C3 1_555 1_555
H3 C3 1_555 1_555
H4 C4 1_555 1_555
C7 C4 1_555 1_555
Ni1 C5 1_555 1_555
C8 N4 1_555 1_555
H5 C6 1_555 1_555
C9 N5 1_555 1_555
H6 C7 1_555 1_555
C10 Ni1 1_555 1_555
H7 C8 1_555 1_555
H8 C8 1_555 1_555
C11 C8 1_555 1_555
H9 C9 1_555 1_555
H10 C9 1_555 1_555
C12 C9 1_555 1_555
N6 C10 1_555 1_555
H11 C11 1_555 1_555
H12 C11 1_555 1_555
H13 C11 1_555 1_555
H14 C12 1_555 1_555
H15 C12 1_555 1_555
H16 C12 1_555 1_555
Cd2 N7 1_555 1_555
Ni2 C13 1_555 1_555
N7 C13 1_555 1_555
N8 C14 1_555 1_555
C14 Ni2 1_555 1_555
N9 Cd2 1_555 1_555
N10 C15 1_555 1_555
C15 N9 1_555 1_555
H17 C15 1_555 1_555
C16 N9 1_555 1_555
H18 C16 1_555 1_555
C17 N10 1_555 1_555
H19 C17 1_555 1_555
C18 N10 1_555 1_555
H20 C18 1_555 1_555
H21 C18 1_555 1_555
C19 C18 1_555 1_555
H22 C19 1_555 1_555
H23 C19 1_555 1_555
H24 C19 1_555 1_555
N11 Cd2 1_555 1_555
N12 C20 1_555 1_555
C20 N11 1_555 1_555
H25 C20 1_555 1_555
C21 N11 1_555 1_555
H26 C21 1_555 1_555
C22 N12 1_555 1_555
H27 C22 1_555 1_555
C23 N12 1_555 1_555
H28 C23 1_555 1_555
H29 C23 1_555 1_555
C24 C23 1_555 1_555
H30 C24 1_555 1_555
H31 C24 1_555 1_555
H32 C24 1_555 1_555
O1 H33 1_555 1_555
H34 O1 1_555 1_555
N1A Cd1 1_555 1_555
N2A Cd1 1_555 1_555
N3A Cd1 1_555 1_555
C1A N1A 1_555 1_555
C2A N1A 1_555 1_555
C3A N2A 1_555 1_555
C4A N2A 1_555 1_555
C5A N3A 1_555 1_555
N4A C1A 1_555 1_555
H1A C1A 1_555 1_555
H2A C2A 1_555 1_555
C6A C2A 1_555 1_555
N5A C3A 1_555 1_555
H3A C3A 1_555 1_555
H4A C4A 1_555 1_555
C7A C4A 1_555 1_555
C8A N4A 1_555 1_555
H5A C6A 1_555 1_555
C9A N5A 1_555 1_555
H6A C7A 1_555 1_555
H7A C8A 1_555 1_555
H8A C8A 1_555 1_555
C11A C8A 1_555 1_555
H9A C9A 1_555 1_555
H10A C9A 1_555 1_555
C12A C9A 1_555 1_555
H11A C11A 1_555 1_555
H12A C11A 1_555 1_555
H13A C11A 1_555 1_555
H14A C12A 1_555 1_555
H15A C12A 1_555 1_555
H16A C12A 1_555 1_555
C10A Ni1 1_555 1_555
N6A C10A 1_555 1_555
C5A_2 Ni1 1_555 1_555
Ni1_2 C5A 1_555 1_555
N7A C13A 1_555 1_555
N8A C14A 1_555 1_555
C13A Ni2 1_555 1_555
C14A Ni2 1_555 1_555
N9A Cd2 1_555 1_555
N10A C15A 1_555 1_555
C15A N9A 1_555 1_555
H17A C15A 1_555 1_555
C16A N9A 1_555 1_555
H18A C16A 1_555 1_555
C17A N10A 1_555 1_555
H19A C17A 1_555 1_555
C18A N10A 1_555 1_555
H20A C18A 1_555 1_555
H21A C18A 1_555 1_555
C19A C18A 1_555 1_555
H22A C19A 1_555 1_555
H23A C19A 1_555 1_555
H24A C19A 1_555 1_555
N11A Cd2 1_555 1_555
N12A C20A 1_555 1_555
C20A N11A 1_555 1_555
H25A C20A 1_555 1_555
C21A N11A 1_555 1_555
H26A C21A 1_555 1_555
C22A N12A 1_555 1_555
H27A C22A 1_555 1_555
C23A N12A 1_555 1_555
H28A C23A 1_555 1_555
H29A C23A 1_555 1_555
C24A C23A 1_555 1_555
H30A C24A 1_555 1_555
H31A C24A 1_555 1_555
H32A C24A 1_555 1_555
Cd2_2 N7A 1_555 1_555
N7A_2 Cd2 1_555 1_555
N5 C7 1_555 1_555
C16 C17 1_555 1_555
C21 C22 1_555 1_555
N4A C6A 1_555 1_555
N5A C7A 1_555 1_555
C16A C17A 1_555 1_555
C21A C22A 1_555 1_555

#END
