
#######################################################################
#
#                 Cambridge Crystallographic Data Centre
#                                CCDC 
#
#######################################################################
#
# If this CIF has been generated from an entry in the Cambridge 
# Structural Database, then it will include bibliographic, chemical, 
# crystal, experimental, refinement or atomic coordinate data resulting 
# from the CCDC's data processing and validation procedures.
#
#######################################################################

data_IDEHOQ
_symmetry_cell_setting           triclinic
_symmetry_space_group_name_H-M   'P -1'
_symmetry_Int_Tables_number      2
_space_group_name_Hall           '-P 1'
loop_
_symmetry_equiv_pos_site_id
_symmetry_equiv_pos_as_xyz
1 x,y,z
2 -x,-y,-z
_cell_length_a                   8.7719(3)
_cell_length_b                   9.1325(3)
_cell_length_c                   10.1557(4)
_cell_angle_alpha                105.284(2)
_cell_angle_beta                 105.898(2)
_cell_angle_gamma                102.946(3)
_cell_volume                     715.261
loop_
_atom_site_label
_atom_site_type_symbol
_atom_site_fract_x
_atom_site_fract_y
_atom_site_fract_z
Zn1 Zn 0.0000 0.5000 0.0000
Ni1 Ni 0.5000 1.0000 0.5000
C1 C 0.3429(10) 0.8214(10) 0.3071(8)
C2 C 0.3643(10) 0.8867(10) 0.5582(8)
C3 C 0.1200(11) 0.2688(11) -0.2182(9)
H1 H 0.0287 0.2477 -0.3013
C4 C 0.2463(12) 0.2051(11) -0.2133(9)
H2 H 0.2580 0.1338 -0.2914
C5 C 0.2917(10) 0.3653(10) 0.0073(9)
H3 H 0.3405 0.4222 0.1071
C6 C 0.5084(11) 0.2270(12) -0.0116(10)
H4 H 0.4816 0.1114 -0.0452
H5 H 0.5899 0.2694 -0.0514
C7 C 0.5834(13) 0.2903(15) 0.1484(11)
H6 H 0.6786 0.2557 0.1790
H7 H 0.5025 0.2513 0.1887
H8 H 0.6181 0.4052 0.1821
C8 C -0.0806(11) 0.1823(10) 0.0509(9)
H9 H -0.1411 0.1169 -0.0457
C9 C -0.0402(12) 0.1424(11) 0.1612(10)
H10 H -0.0634 0.0394 0.1648
C10 C 0.0731(10) 0.4270(10) 0.2557(8)
H11 H 0.1265 0.5340 0.3144
C11 C 0.1346(12) 0.3288(13) 0.4368(9)
H12 H 0.0550 0.2752 0.4728
H13 H 0.1697 0.4429 0.4902
C12 C 0.2853(15) 0.2713(16) 0.4663(12)
H14 H 0.3310 0.2882 0.5685
H15 H 0.3683 0.3301 0.4380
H16 H 0.2521 0.1592 0.4111
N1 N 0.2409(9) 0.7101(9) 0.1907(7)
N2 N 0.2762(10) 0.8135(10) 0.5902(8)
N3 N 0.1491(9) 0.3707(8) -0.0789(7)
N4 N 0.3556(9) 0.2675(9) -0.0682(7)
N5 N -0.0077(9) 0.3607(8) 0.1128(7)
N6 N 0.0556(9) 0.3001(9) 0.2887(7)
C1A C -0.3429(10) 0.1786(10) -0.3071(8)
C3A C -0.1200(11) 0.7312(11) 0.2182(9)
H1A H -0.0287 0.7523 0.3013
C4A C -0.2463(12) 0.7949(11) 0.2133(9)
H2A H -0.2580 0.8662 0.2914
C5A C -0.2917(10) 0.6347(10) -0.0073(9)
H3A H -0.3405 0.5778 -0.1071
C6A C -0.5084(11) 0.7730(12) 0.0116(10)
H4A H -0.4816 0.8886 0.0452
H5A H -0.5899 0.7306 0.0514
C7A C -0.5834(13) 0.7097(15) -0.1484(11)
H6A H -0.6786 0.7443 -0.1790
H7A H -0.5025 0.7487 -0.1887
H8A H -0.6181 0.5948 -0.1821
C8A C 0.0806(11) 0.8177(10) -0.0509(9)
H9A H 0.1411 0.8831 0.0457
C9A C 0.0402(12) 0.8576(11) -0.1612(10)
H10A H 0.0634 0.9606 -0.1648
C10A C -0.0731(10) 0.5730(10) -0.2557(8)
H11A H -0.1265 0.4660 -0.3144
C11A C -0.1346(12) 0.6712(13) -0.4368(9)
H12A H -0.0550 0.7248 -0.4728
H13A H -0.1697 0.5571 -0.4902
C12A C -0.2853(15) 0.7287(16) -0.4663(12)
H14A H -0.3310 0.7118 -0.5685
H15A H -0.3683 0.6699 -0.4380
H16A H -0.2521 0.8408 -0.4111
N1A N -0.2409(9) 0.2899(9) -0.1907(7)
N3A N -0.1491(9) 0.6293(8) 0.0789(7)
N4A N -0.3556(9) 0.7325(9) 0.0682(7)
N5A N 0.0077(9) 0.6393(8) -0.1128(7)
N6A N -0.0556(9) 0.6999(9) -0.2887(7)
C2A C 0.6357(10) 1.1133(10) 0.4418(8)
N2A N 0.7238(10) 1.1865(10) 0.4098(8)
Ni1_2 Ni -0.5000 0.0000 -0.5000
C1A_2 C 0.6571(10) 1.1786(10) 0.6929(8)
loop_
_geom_bond_atom_site_label_1
_geom_bond_atom_site_label_2
_geom_bond_site_symmetry_1
_geom_bond_site_symmetry_2
Zn1 N1 1_555 1_555
Ni1 C1 1_555 1_555
C1 N1 1_555 1_555
C2 Ni1 1_555 1_555
C3 H1 1_555 1_555
C4 C3 1_555 1_555
H2 C4 1_555 1_555
C5 H3 1_555 1_555
C6 H4 1_555 1_555
H5 C6 1_555 1_555
C7 C6 1_555 1_555
H6 C7 1_555 1_555
H7 C7 1_555 1_555
H8 C7 1_555 1_555
C8 H9 1_555 1_555
C9 C8 1_555 1_555
H10 C9 1_555 1_555
C10 H11 1_555 1_555
C11 H12 1_555 1_555
H13 C11 1_555 1_555
C12 C11 1_555 1_555
H14 C12 1_555 1_555
H15 C12 1_555 1_555
H16 C12 1_555 1_555
N2 C2 1_555 1_555
N3 Zn1 1_555 1_555
N4 C4 1_555 1_555
N5 Zn1 1_555 1_555
N6 C9 1_555 1_555
C1A N1A 1_555 1_555
C3A H1A 1_555 1_555
C4A C3A 1_555 1_555
H2A C4A 1_555 1_555
C5A H3A 1_555 1_555
C6A H4A 1_555 1_555
H5A C6A 1_555 1_555
C7A C6A 1_555 1_555
H6A C7A 1_555 1_555
H7A C7A 1_555 1_555
H8A C7A 1_555 1_555
C8A H9A 1_555 1_555
C9A C8A 1_555 1_555
H10A C9A 1_555 1_555
C10A H11A 1_555 1_555
C11A H12A 1_555 1_555
H13A C11A 1_555 1_555
C12A C11A 1_555 1_555
H14A C12A 1_555 1_555
H15A C12A 1_555 1_555
H16A C12A 1_555 1_555
N1A Zn1 1_555 1_555
N3A Zn1 1_555 1_555
N4A C4A 1_555 1_555
N5A Zn1 1_555 1_555
N6A C9A 1_555 1_555
C2A Ni1 1_555 1_555
N2A C2A 1_555 1_555
Ni1_2 C1A 1_555 1_555
C1A_2 Ni1 1_555 1_555
C3 N3 1_555 1_555
C5 N3 1_555 1_555
C5 N4 1_555 1_555
C6 N4 1_555 1_555
C8 N5 1_555 1_555
C10 N5 1_555 1_555
C10 N6 1_555 1_555
C11 N6 1_555 1_555
C3A N3A 1_555 1_555
C5A N3A 1_555 1_555
C5A N4A 1_555 1_555
C6A N4A 1_555 1_555
C8A N5A 1_555 1_555
C10A N5A 1_555 1_555
C10A N6A 1_555 1_555
C11A N6A 1_555 1_555

#END
