
#######################################################################
#
#                 Cambridge Crystallographic Data Centre
#                                CCDC 
#
#######################################################################
#
# If this CIF has been generated from an entry in the Cambridge 
# Structural Database, then it will include bibliographic, chemical, 
# crystal, experimental, refinement or atomic coordinate data resulting 
# from the CCDC's data processing and validation procedures.
#
#######################################################################

data_IDEJAE
_symmetry_cell_setting           triclinic
_symmetry_space_group_name_H-M   'P -1'
_symmetry_Int_Tables_number      2
_space_group_name_Hall           '-P 1'
loop_
_symmetry_equiv_pos_site_id
_symmetry_equiv_pos_as_xyz
1 x,y,z
2 -x,-y,-z
_cell_length_a                   8.7716(2)
_cell_length_b                   9.1245(3)
_cell_length_c                   10.0392(4)
_cell_angle_alpha                104.915(3)
_cell_angle_beta                 106.582(4)
_cell_angle_gamma                102.859(2)
_cell_volume                     705.108
loop_
_atom_site_label
_atom_site_type_symbol
_atom_site_fract_x
_atom_site_fract_y
_atom_site_fract_z
Ni1 Ni 0.0000 0.0000 0.0000
Ni2 Ni 0.0000 0.0000 0.5000
N1 N 0.31215(14) 0.28043(13) 0.09512(12)
N2 N 0.04341(12) 0.01619(11) 0.31156(10)
N3 N 0.22453(12) -0.04990(11) 0.57812(10)
N4 N 0.42184(12) -0.16161(11) 0.56987(11)
N5 N 0.12057(12) 0.24742(11) 0.60887(10)
N6 N 0.23408(12) 0.48527(11) 0.78383(11)
C1 C 0.19277(15) 0.17426(14) 0.06165(12)
C2 C 0.03267(13) 0.01238(13) 0.19396(12)
C3 C 0.33517(15) -0.01128(14) 0.71968(13)
H1 H 0.3274 0.0517 0.8050
C4 C 0.45777(15) -0.07925(14) 0.71595(13)
H2 H 0.5480 -0.0714 0.7965
C5 C 0.28112(14) -0.14025(14) 0.49163(13)
H3 H 0.2300 -0.1839 0.3891
C6 C 0.51910(15) -0.25761(15) 0.51387(14)
H4 H 0.5372 -0.3288 0.5695
H5 H 0.6281 -0.1868 0.5300
C7 C 0.43366(18) -0.35468(18) 0.35292(16)
H6 H 0.5006 -0.4167 0.3224
H7 H 0.4198 -0.2846 0.2968
H8 H 0.3256 -0.4251 0.3362
C8 C 0.13154(15) 0.36390(14) 0.54443(13)
H9 H 0.0966 0.3446 0.4431
C9 C 0.20098(15) 0.51088(14) 0.65113(14)
H10 H 0.2219 0.6092 0.6371
C10 C 0.18340(14) 0.32580(13) 0.75294(12)
H11 H 0.1916 0.2769 0.8242
C11 C 0.30300(16) 0.60639(14) 0.93171(14)
H12 H 0.4061 0.6832 0.9429
H13 H 0.3299 0.5555 1.0051
C12 C 0.1809(2) 0.69284(19) 0.95851(18)
H14 H 0.2292 0.7701 1.0569
H15 H 0.0789 0.6171 0.9477
H16 H 0.1570 0.7463 0.8880
N1A N -0.31215(14) -0.28043(13) -0.09512(12)
N2A N -0.04341(12) -0.01619(11) -0.31156(10)
C1A C -0.19277(15) -0.17426(14) -0.06165(12)
C2A C -0.03267(13) -0.01238(13) -0.19396(12)
N3A N -0.22453(12) 0.04990(11) 0.42188(10)
N4A N -0.42184(12) 0.16161(11) 0.43013(11)
C3A C -0.33517(15) 0.01128(14) 0.28032(13)
H1A H -0.3274 -0.0517 0.1950
C4A C -0.45777(15) 0.07925(14) 0.28405(13)
H2A H -0.5480 0.0714 0.2035
C5A C -0.28112(14) 0.14025(14) 0.50837(13)
H3A H -0.2300 0.1839 0.6109
C6A C -0.51910(15) 0.25761(15) 0.48613(14)
H4A H -0.5372 0.3288 0.4305
H5A H -0.6281 0.1868 0.4700
C7A C -0.43366(18) 0.35468(18) 0.64708(16)
H6A H -0.5006 0.4167 0.6776
H7A H -0.4198 0.2846 0.7032
H8A H -0.3256 0.4251 0.6638
N5A N -0.12057(12) -0.24742(11) 0.39113(10)
N6A N -0.23408(12) -0.48527(11) 0.21617(11)
C8A C -0.13154(15) -0.36390(14) 0.45557(13)
H9A H -0.0966 -0.3446 0.5569
C9A C -0.20098(15) -0.51088(14) 0.34887(14)
H10A H -0.2219 -0.6092 0.3629
C10A C -0.18340(14) -0.32580(13) 0.24706(12)
H11A H -0.1916 -0.2769 0.1758
C11A C -0.30300(16) -0.60639(14) 0.06829(14)
H12A H -0.4061 -0.6832 0.0571
H13A H -0.3299 -0.5555 -0.0051
C12A C -0.1809(2) -0.69284(19) 0.04149(18)
H14A H -0.2292 -0.7701 -0.0569
H15A H -0.0789 -0.6171 0.0523
H16A H -0.1570 -0.7463 0.1120
Ni2_2 Ni 0.0000 0.0000 -0.5000
N2A_2 N -0.04341(12) -0.01619(11) 0.68844(10)
loop_
_geom_bond_atom_site_label_1
_geom_bond_atom_site_label_2
_geom_bond_site_symmetry_1
_geom_bond_site_symmetry_2
Ni1 C1 1_555 1_555
Ni2 N2 1_555 1_555
N1 C1 1_555 1_555
N2 C2 1_555 1_555
N3 Ni2 1_555 1_555
N4 C4 1_555 1_555
N5 Ni2 1_555 1_555
N6 C9 1_555 1_555
C2 Ni1 1_555 1_555
C3 N3 1_555 1_555
H1 C3 1_555 1_555
C4 C3 1_555 1_555
H2 C4 1_555 1_555
C5 N3 1_555 1_555
H3 C5 1_555 1_555
C6 N4 1_555 1_555
H4 C6 1_555 1_555
H5 C6 1_555 1_555
C7 C6 1_555 1_555
H6 C7 1_555 1_555
H7 C7 1_555 1_555
H8 C7 1_555 1_555
C8 N5 1_555 1_555
H9 C8 1_555 1_555
C9 C8 1_555 1_555
H10 C9 1_555 1_555
C10 N5 1_555 1_555
H11 C10 1_555 1_555
C11 N6 1_555 1_555
H12 C11 1_555 1_555
H13 C11 1_555 1_555
C12 C11 1_555 1_555
H14 C12 1_555 1_555
H15 C12 1_555 1_555
H16 C12 1_555 1_555
N1A C1A 1_555 1_555
N2A C2A 1_555 1_555
C1A Ni1 1_555 1_555
C2A Ni1 1_555 1_555
N3A Ni2 1_555 1_555
N4A C4A 1_555 1_555
C3A N3A 1_555 1_555
H1A C3A 1_555 1_555
C4A C3A 1_555 1_555
H2A C4A 1_555 1_555
C5A N3A 1_555 1_555
H3A C5A 1_555 1_555
C6A N4A 1_555 1_555
H4A C6A 1_555 1_555
H5A C6A 1_555 1_555
C7A C6A 1_555 1_555
H6A C7A 1_555 1_555
H7A C7A 1_555 1_555
H8A C7A 1_555 1_555
N5A Ni2 1_555 1_555
N6A C9A 1_555 1_555
C8A N5A 1_555 1_555
H9A C8A 1_555 1_555
C9A C8A 1_555 1_555
H10A C9A 1_555 1_555
C10A N5A 1_555 1_555
H11A C10A 1_555 1_555
C11A N6A 1_555 1_555
H12A C11A 1_555 1_555
H13A C11A 1_555 1_555
C12A C11A 1_555 1_555
H14A C12A 1_555 1_555
H15A C12A 1_555 1_555
H16A C12A 1_555 1_555
Ni2_2 N2A 1_555 1_555
N2A_2 Ni2 1_555 1_555
N4 C5 1_555 1_555
N6 C10 1_555 1_555
N4A C5A 1_555 1_555
N6A C10A 1_555 1_555

#END
