
#######################################################################
#
#                 Cambridge Crystallographic Data Centre
#                                CCDC 
#
#######################################################################
#
# If this CIF has been generated from an entry in the Cambridge 
# Structural Database, then it will include bibliographic, chemical, 
# crystal, experimental, refinement or atomic coordinate data resulting 
# from the CCDC's data processing and validation procedures.
#
#######################################################################

data_IDELAG01
_symmetry_cell_setting           tetragonal
_symmetry_space_group_name_H-M   'P 43'
_symmetry_Int_Tables_number      78
_space_group_name_Hall           'P 4cw'
loop_
_symmetry_equiv_pos_site_id
_symmetry_equiv_pos_as_xyz
1 x,y,z
2 -x,-y,1/2+z
3 -y,x,3/4+z
4 y,-x,1/4+z
_cell_length_a                   11.8350(3)
_cell_length_b                   11.8350(3)
_cell_length_c                   15.5684(13)
_cell_angle_alpha                90
_cell_angle_beta                 90
_cell_angle_gamma                90
_cell_volume                     2180.62
loop_
_atom_site_label
_atom_site_type_symbol
_atom_site_fract_x
_atom_site_fract_y
_atom_site_fract_z
Cu1 Cu -0.04399(9) -0.32793(8) -0.20536(7)
Si1 Si 0.15706(19) 0.18648(19) -0.10409(16)
Cl1 Cl 0.0430(3) -0.3987(2) -0.08604(18)
Cl2 Cl -0.19613(19) -0.25296(18) -0.27630(16)
S1 S 0.1765(2) -0.4267(2) -0.31393(19)
O1 O 0.0877(5) -0.3350(5) -0.3096(4)
N1 N 0.0109(6) -0.1710(6) -0.1723(5)
N2 N 0.5160(6) 0.0934(6) 0.0076(5)
C1 C -0.0576(8) -0.0902(7) -0.1403(6)
H1 H -0.1359 -0.1058 -0.1339
C2 C -0.0172(8) 0.0144(8) -0.1167(6)
H2 H -0.0675 0.0682 -0.0925
C3 C 0.0962(7) 0.0429(7) -0.1277(6)
C4 C 0.1642(7) -0.0419(7) -0.1616(7)
H3 H 0.2422 -0.0280 -0.1709
C5 C 0.1192(7) -0.1463(8) -0.1818(6)
H4 H 0.1683 -0.2030 -0.2035
C6 C 0.0702(7) 0.2663(7) -0.0252(7)
H5 H -0.0050 0.2801 -0.0493
H6 H 0.1068 0.3386 -0.0124
H7 H 0.0630 0.2222 0.0278
C7 C 0.1726(7) 0.2621(7) -0.2072(7)
H8 H 0.0977 0.2768 -0.2317
H9 H 0.2166 0.2157 -0.2472
H10 H 0.2117 0.3340 -0.1975
C8 C 0.3028(7) 0.1594(7) -0.0583(6)
C9 C 0.3943(8) 0.1335(7) -0.1129(6)
H11 H 0.3852 0.1358 -0.1735
C10 C 0.4974(7) 0.1047(8) -0.0774(6)
H12 H 0.5591 0.0922 -0.1152
C11 C 0.4311(7) 0.1192(7) 0.0592(6)
H13 H 0.4435 0.1164 0.1195
C12 C 0.3245(7) 0.1502(7) 0.0298(6)
H14 H 0.2658 0.1653 0.0699
C13 C 0.3093(9) -0.3549(11) -0.3162(9)
H15 H 0.3252 -0.3230 -0.2593
H16 H 0.3065 -0.2939 -0.3587
H17 H 0.3692 -0.4083 -0.3317
C14 C 0.1760(10) -0.4739(10) -0.4236(8)
H18 H 0.1063 -0.5161 -0.4350
H19 H 0.2414 -0.5229 -0.4336
H20 H 0.1800 -0.4084 -0.4620
Cu1C Cu 0.67207(8) 0.04399(9) 0.04464(7)
N2B N -0.0934(6) -0.4840(6) -0.2424(5)
S2 S 0.4037(6) 0.4468(6) -0.0984(7)
O2 O 0.5313(14) 0.3999(12) -0.0402(12)
C15 C 0.305(2) 0.491(3) -0.014(3)
H21 H 0.3080 0.5732 -0.0075
H22 H 0.3267 0.4552 0.0406
H23 H 0.2284 0.4678 -0.0293
C16 C 0.421(2) 0.5541(13) -0.1375(12)
H24 H 0.3509 0.5776 -0.1665
H25 H 0.4819 0.5489 -0.1795
H26 H 0.4403 0.6097 -0.0934
loop_
_geom_bond_atom_site_label_1
_geom_bond_atom_site_label_2
_geom_bond_site_symmetry_1
_geom_bond_site_symmetry_2
Cu1 Cl1 1_555 1_555
Si1 C3 1_555 1_555
Cl2 Cu1 1_555 1_555
S1 O1 1_555 1_555
O1 Cu1 1_555 1_555
N1 Cu1 1_555 1_555
N2 C10 1_555 1_555
C1 N1 1_555 1_555
H1 C1 1_555 1_555
C2 C1 1_555 1_555
H2 C2 1_555 1_555
C3 C2 1_555 1_555
C4 C3 1_555 1_555
H3 C4 1_555 1_555
C5 N1 1_555 1_555
H4 C5 1_555 1_555
C6 Si1 1_555 1_555
H5 C6 1_555 1_555
H6 C6 1_555 1_555
H7 C6 1_555 1_555
C7 Si1 1_555 1_555
H8 C7 1_555 1_555
H9 C7 1_555 1_555
H10 C7 1_555 1_555
C8 Si1 1_555 1_555
C9 C8 1_555 1_555
H11 C9 1_555 1_555
C10 C9 1_555 1_555
H12 C10 1_555 1_555
C11 N2 1_555 1_555
H13 C11 1_555 1_555
C12 C8 1_555 1_555
H14 C12 1_555 1_555
C13 S1 1_555 1_555
H15 C13 1_555 1_555
H16 C13 1_555 1_555
H17 C13 1_555 1_555
C14 S1 1_555 1_555
H18 C14 1_555 1_555
H19 C14 1_555 1_555
H20 C14 1_555 1_555
S2 O2 1_555 1_555
C15 S2 1_555 1_555
H21 C15 1_555 1_555
H22 C15 1_555 1_555
H23 C15 1_555 1_555
C16 S2 1_555 1_555
H24 C16 1_555 1_555
H25 C16 1_555 1_555
H26 C16 1_555 1_555
Cu1C N2 1_555 1_555
N2B Cu1 1_555 1_555
C4 C5 1_555 1_555
C11 C12 1_555 1_555

#END
