
#######################################################################
#
#                 Cambridge Crystallographic Data Centre
#                                CCDC 
#
#######################################################################
#
# If this CIF has been generated from an entry in the Cambridge 
# Structural Database, then it will include bibliographic, chemical, 
# crystal, experimental, refinement or atomic coordinate data resulting 
# from the CCDC's data processing and validation procedures.
#
#######################################################################

data_IDIFUY
_symmetry_cell_setting           monoclinic
_symmetry_space_group_name_H-M   'P 21/c'
_symmetry_Int_Tables_number      14
_space_group_name_Hall           '-P 2ybc'
loop_
_symmetry_equiv_pos_site_id
_symmetry_equiv_pos_as_xyz
1 x,y,z
2 -x,1/2+y,1/2-z
3 -x,-y,-z
4 x,1/2-y,1/2+z
_cell_length_a                   9.9167(2)
_cell_length_b                   6.6393(2)
_cell_length_c                   16.2072(6)
_cell_angle_alpha                90
_cell_angle_beta                 103.223(3)
_cell_angle_gamma                90
_cell_volume                     1038.79
loop_
_atom_site_label
_atom_site_type_symbol
_atom_site_fract_x
_atom_site_fract_y
_atom_site_fract_z
Ag1 Ag 0.68156(2) 0.42860(4) 0.034445(19)
C1 C 0.3929(3) -0.0086(4) 0.10977(17)
C2 C 0.3640(3) -0.1908(4) 0.14612(19)
H1 H 0.2743 -0.2279 0.1481
C3 C 0.4760(4) -0.3103(5) 0.17839(19)
H2 H 0.4615 -0.4338 0.2021
C4 C 0.6137(3) -0.2529(5) 0.1771(2)
H3 H 0.6863 -0.3397 0.1998
C5 C 0.6418(3) -0.0729(5) 0.1432(2)
H4 H 0.7319 -0.0342 0.1431
C6 C 0.5274(3) 0.0504(4) 0.10870(18)
C7 C 0.1588(3) 0.1664(4) 0.05132(19)
H5 H 0.1162 0.0354 0.0529
H6 H 0.1267 0.2209 -0.0053
H7 H 0.1673 0.4287 0.1189
H8 H 0.1350 0.2408 0.1698
C8 C 0.1144(3) 0.3046(5) 0.11447(19)
C9 C -0.0392(3) 0.3540(4) 0.08933(19)
N1 N 0.3104(2) 0.1431(3) 0.06976(15)
N2 N 0.3888(2) 0.2872(3) 0.04596(15)
N3 N 0.5201(2) 0.2341(4) 0.06921(15)
O1 O -0.0893(2) 0.4561(3) 0.14070(14)
O2 O -0.1075(2) 0.2942(3) 0.01934(14)
Ag1_2 Ag -0.31844(2) 0.42860(4) 0.034445(19)
Ag1B Ag 0.31844(2) 0.57140(4) -0.034445(19)
N2B N 0.6112(2) 0.7128(3) -0.04596(15)
O1_2 O 0.9107(2) 0.4561(3) 0.14070(14)
O2_2 O 0.8925(2) 0.2942(3) 0.01934(14)
O3 O 0.0228(4) 0.8534(5) 0.18284(18)
H9 H 0.0489 0.8842 0.2422
H10 H -0.0061 0.7084 0.1805
loop_
_geom_bond_atom_site_label_1
_geom_bond_atom_site_label_2
_geom_bond_site_symmetry_1
_geom_bond_site_symmetry_2
Ag1 N3 1_555 1_555
C1 C2 1_555 1_555
C2 H1 1_555 1_555
C3 C2 1_555 1_555
H2 C3 1_555 1_555
C4 C3 1_555 1_555
H3 C4 1_555 1_555
C5 C4 1_555 1_555
H4 C5 1_555 1_555
C6 C1 1_555 1_555
C7 H5 1_555 1_555
H6 C7 1_555 1_555
H7 C8 1_555 1_555
H8 C8 1_555 1_555
C8 C7 1_555 1_555
C9 C8 1_555 1_555
N1 C1 1_555 1_555
N2 N1 1_555 1_555
N3 C6 1_555 1_555
O1 C9 1_555 1_555
O2 C9 1_555 1_555
O3 H9 1_555 1_555
H10 O3 1_555 1_555
Ag1_2 O1 1_555 1_555
Ag1B N2 1_555 1_555
N2B Ag1 1_555 1_555
O1_2 Ag1 1_555 1_555
O2_2 Ag1 1_555 1_555
C5 C6 1_555 1_555
C7 N1 1_555 1_555
N2 N3 1_555 1_555
O2 Ag1_2 1_555 1_555

#END
