
#######################################################################
#
#                 Cambridge Crystallographic Data Centre
#                                CCDC 
#
#######################################################################
#
# If this CIF has been generated from an entry in the Cambridge 
# Structural Database, then it will include bibliographic, chemical, 
# crystal, experimental, refinement or atomic coordinate data resulting 
# from the CCDC's data processing and validation procedures.
#
#######################################################################

data_IDIGIN
_symmetry_cell_setting           monoclinic
_symmetry_space_group_name_H-M   'P 21/c'
_symmetry_Int_Tables_number      14
_space_group_name_Hall           '-P 2ybc'
loop_
_symmetry_equiv_pos_site_id
_symmetry_equiv_pos_as_xyz
1 x,y,z
2 -x,1/2+y,1/2-z
3 -x,-y,-z
4 x,1/2-y,1/2+z
_cell_length_a                   9.1916(18)
_cell_length_b                   12.784(3)
_cell_length_c                   9.7297(19)
_cell_angle_alpha                90
_cell_angle_beta                 107.88(3)
_cell_angle_gamma                90
_cell_volume                     1088.07
loop_
_atom_site_label
_atom_site_type_symbol
_atom_site_fract_x
_atom_site_fract_y
_atom_site_fract_z
Zn1 Zn 1.0000 0.0000 0.5000
C1 C 0.6358(3) 0.1063(2) 0.0793(3)
C2 C 0.4871(4) 0.1436(3) 0.0025(4)
H1 H 0.4548 0.1612 -0.0949
C3 C 0.3938(4) 0.1504(3) 0.0973(5)
H2 H 0.2941 0.1739 0.0563
C4 C 0.4422(4) 0.1224(3) 0.2613(5)
H3 H 0.3712 0.1311 0.3108
C5 C 0.5863(3) 0.0854(3) 0.3361(4)
H4 H 0.6177 0.0677 0.4335
C6 C 0.6837(3) 0.0779(2) 0.2402(3)
C7 C 0.7800(4) 0.0988(3) -0.1319(3)
H5 H 0.8049 0.0311 -0.1640
H6 H 0.6851 0.1227 -0.2003
C8 C 0.9056(4) 0.1754(2) -0.1266(3)
H7 H 0.9897 0.1639 -0.0390
H8 H 0.8679 0.2459 -0.1232
C9 C 0.9686(3) 0.1645(2) -0.2670(3)
N1 N 0.7588(3) 0.0874(2) 0.0275(3)
N2 N 0.8751(3) 0.0495(2) 0.1476(3)
N3 N 0.8325(3) 0.04349(19) 0.2768(3)
O1 O 0.9014(2) 0.10163(15) -0.3768(2)
O2 O 1.0852(2) 0.21779(16) -0.2627(2)
O3 O 1.1560(2) 0.12397(15) 0.4815(2)
H9 H 1.1087 0.1566 0.4016
H10 H 1.1702 0.1699 0.5489
C1B C 1.3642(3) -0.1063(2) -0.0793(3)
C2B C 1.5129(4) -0.1436(3) -0.0025(4)
H1B H 1.5452 -0.1612 0.0949
C3B C 1.6062(4) -0.1504(3) -0.0973(5)
H2B H 1.7059 -0.1739 -0.0563
C4B C 1.5578(4) -0.1224(3) -0.2613(5)
H3B H 1.6288 -0.1311 -0.3108
C5B C 1.4137(3) -0.0854(3) -0.3361(4)
H4B H 1.3823 -0.0677 -0.4335
C6B C 1.3163(3) -0.0779(2) -0.2402(3)
C7B C 1.2200(4) -0.0988(3) 0.1319(3)
H5B H 1.1951 -0.0311 0.1640
H6B H 1.3149 -0.1227 0.2003
C8B C 1.0944(4) -0.1754(2) 0.1266(3)
H7B H 1.0103 -0.1639 0.0390
H8B H 1.1321 -0.2459 0.1232
C9B C 1.0314(3) -0.1645(2) 0.2670(3)
N1B N 1.2412(3) -0.0874(2) -0.0275(3)
N2B N 1.1249(3) -0.0495(2) -0.1476(3)
N3B N 1.1675(3) -0.04349(19) -0.2768(3)
O1B O 1.0986(2) -0.10163(15) 0.3768(2)
O2B O 0.9148(2) -0.21779(16) 0.2627(2)
O3B O 0.8440(2) -0.12397(15) 0.5185(2)
H9B H 0.8913 -0.1566 0.5984
H10B H 0.8298 -0.1699 0.4511
Zn1_2 Zn 1.0000 0.0000 -0.5000
N3B_2 N 1.1675(3) -0.04349(19) 0.7232(3)
O1_2 O 0.9014(2) 0.10163(15) 0.6232(2)
loop_
_geom_bond_atom_site_label_1
_geom_bond_atom_site_label_2
_geom_bond_site_symmetry_1
_geom_bond_site_symmetry_2
Zn1 N3 1_555 1_555
C1 C2 1_555 1_555
C2 H1 1_555 1_555
C3 C2 1_555 1_555
H2 C3 1_555 1_555
C4 C3 1_555 1_555
H3 C4 1_555 1_555
C5 C4 1_555 1_555
H4 C5 1_555 1_555
C6 C1 1_555 1_555
C7 H5 1_555 1_555
H6 C7 1_555 1_555
C8 C7 1_555 1_555
H7 C8 1_555 1_555
H8 C8 1_555 1_555
C9 C8 1_555 1_555
N1 C1 1_555 1_555
N2 N1 1_555 1_555
N3 C6 1_555 1_555
O1 C9 1_555 1_555
O2 C9 1_555 1_555
O3 Zn1 1_555 1_555
H9 O3 1_555 1_555
H10 O3 1_555 1_555
C1B C2B 1_555 1_555
C2B H1B 1_555 1_555
C3B C2B 1_555 1_555
H2B C3B 1_555 1_555
C4B C3B 1_555 1_555
H3B C4B 1_555 1_555
C5B C4B 1_555 1_555
H4B C5B 1_555 1_555
C6B C1B 1_555 1_555
C7B H5B 1_555 1_555
H6B C7B 1_555 1_555
C8B C7B 1_555 1_555
H7B C8B 1_555 1_555
H8B C8B 1_555 1_555
C9B C8B 1_555 1_555
N1B C1B 1_555 1_555
N2B N1B 1_555 1_555
N3B C6B 1_555 1_555
O1B Zn1 1_555 1_555
O2B C9B 1_555 1_555
O3B Zn1 1_555 1_555
H9B O3B 1_555 1_555
H10B O3B 1_555 1_555
Zn1_2 O1 1_555 1_555
N3B_2 Zn1 1_555 1_555
O1_2 Zn1 1_555 1_555
C5 C6 1_555 1_555
C7 N1 1_555 1_555
N2 N3 1_555 1_555
C5B C6B 1_555 1_555
C7B N1B 1_555 1_555
C9B O1B 1_555 1_555
N2B N3B 1_555 1_555
N3B Zn1_2 1_555 1_555

#END
