
#######################################################################
#
#                 Cambridge Crystallographic Data Centre
#                                CCDC 
#
#######################################################################
#
# If this CIF has been generated from an entry in the Cambridge 
# Structural Database, then it will include bibliographic, chemical, 
# crystal, experimental, refinement or atomic coordinate data resulting 
# from the CCDC's data processing and validation procedures.
#
#######################################################################

data_IDIGUZ
_symmetry_cell_setting           monoclinic
_symmetry_space_group_name_H-M   'P 21/n'
_symmetry_Int_Tables_number      14
_space_group_name_Hall           '-P 2yn'
loop_
_symmetry_equiv_pos_site_id
_symmetry_equiv_pos_as_xyz
1 x,y,z
2 1/2-x,1/2+y,1/2-z
3 -x,-y,-z
4 1/2+x,1/2-y,1/2+z
_cell_length_a                   9.7093(8)
_cell_length_b                   16.5851(17)
_cell_length_c                   18.1758(15)
_cell_angle_alpha                90
_cell_angle_beta                 90.500(7)
_cell_angle_gamma                90
_cell_volume                     2926.73
loop_
_atom_site_label
_atom_site_type_symbol
_atom_site_fract_x
_atom_site_fract_y
_atom_site_fract_z
Cu1 Cu 1.72892(5) 0.26245(3) 0.29513(2)
Mn1 Mn 1.52625(5) 0.33337(3) 0.02585(3)
O1 O 1.4776(2) 0.26706(14) 0.12614(12)
O2 O 1.4702(2) 0.44553(15) 0.08087(12)
O3 O 1.7256(2) 0.32526(15) 0.08303(12)
O4 O 1.5559(2) 0.24824(15) 0.24022(12)
O5 O 1.6918(2) 0.22464(16) 0.39414(12)
O6 O 2.0444(2) 0.25483(15) 0.43521(12)
N1 N 1.8003(3) 0.30162(17) 0.20386(14)
N2 N 1.9130(3) 0.27987(17) 0.33029(14)
C1 C 1.9414(3) 0.32128(19) 0.20610(18)
C2 C 1.7117(3) 0.30368(19) 0.14849(17)
C3 C 1.5694(3) 0.2704(2) 0.17346(18)
C4 C 1.8024(4) 0.2209(2) 0.43221(18)
C5 C 2.2225(3) 0.34479(19) 0.2245(2)
H1 H 2.3192 0.3516 0.2300
C6 C 2.0043(3) 0.30826(19) 0.27622(17)
C7 C 2.1448(3) 0.32001(19) 0.28505(19)
H2 H 2.1878 0.3114 0.3315
C8 C 2.0204(3) 0.34896(19) 0.14747(18)
H3 H 1.9782 0.3605 0.1013
C9 C 1.9353(3) 0.2555(2) 0.39782(18)
C10 C 2.1609(4) 0.3594(2) 0.1572(2)
H4 H 2.2154 0.3768 0.1171
O7 O 1.4472(2) 0.57750(15) 0.05887(12)
O8 O 1.8113(2) 0.19090(17) 0.49463(12)
C11 C 1.4757(3) 0.5064(2) 0.04056(17)
O2B O 1.5298(2) 0.55447(15) -0.08087(12)
C11B C 1.5243(3) 0.4936(2) -0.04056(17)
O7B O 1.5528(2) 0.42250(15) -0.05887(12)
Cu1B Cu 1.27108(5) 0.73755(3) -0.29513(2)
Mn1B Mn 1.47375(5) 0.66663(3) -0.02585(3)
O1B O 1.5224(2) 0.73294(14) -0.12614(12)
O3B O 1.2744(2) 0.67474(15) -0.08303(12)
O4B O 1.4441(2) 0.75176(15) -0.24022(12)
O5B O 1.3082(2) 0.77536(16) -0.39414(12)
O6B O 0.9556(2) 0.74517(15) -0.43521(12)
N1B N 1.1997(3) 0.69838(17) -0.20386(14)
N2B N 1.0870(3) 0.72013(17) -0.33029(14)
C1B C 1.0586(3) 0.67872(19) -0.20610(18)
C2B C 1.2883(3) 0.69632(19) -0.14849(17)
C3B C 1.4306(3) 0.7296(2) -0.17346(18)
C4B C 1.1976(4) 0.7791(2) -0.43221(18)
C5B C 0.7775(3) 0.65521(19) -0.2245(2)
H1B H 0.6808 0.6484 -0.2300
C6B C 0.9957(3) 0.69174(19) -0.27622(17)
C7B C 0.8552(3) 0.67999(19) -0.28505(19)
H2B H 0.8122 0.6886 -0.3315
C8B C 0.9796(3) 0.65104(19) -0.14747(18)
H3B H 1.0218 0.6395 -0.1013
C9B C 1.0647(3) 0.7445(2) -0.39782(18)
C10B C 0.8391(4) 0.6406(2) -0.1572(2)
H4B H 0.7846 0.6232 -0.1171
O8B O 1.1887(2) 0.80910(17) -0.49463(12)
Mn1A Mn 0.97375(5) 0.83337(3) -0.52585(3)
Mn1C Mn 2.02625(5) 0.16663(3) 0.52585(3)
O6A O 1.4556(2) 0.75483(15) 0.06479(12)
O6C O 1.5444(2) 0.24517(15) -0.06479(12)
O8A O 1.6887(2) 0.69090(17) 0.00537(12)
O8C O 1.3113(2) 0.30910(17) -0.00537(12)
N3 N 1.2024(3) 0.08107(16) 0.19016(14)
C12 C 1.2588(3) 0.12673(19) 0.25668(17)
H5 H 1.3303 0.1648 0.2395
H6 H 1.1832 0.1591 0.2778
C13 C 1.3112(3) 0.02728(19) 0.15594(18)
H7 H 1.2692 -0.0014 0.1136
H8 H 1.3393 -0.0139 0.1926
C14 C 0.9610(3) 0.0647(2) 0.24720(19)
H9 H 0.9218 0.1050 0.2127
H10 H 0.9874 0.0927 0.2933
C15 C 1.3207(3) 0.0750(2) 0.31739(18)
H11 H 1.3972 0.0423 0.2976
H12 H 1.2499 0.0379 0.3368
C16 C 1.4399(3) 0.0708(2) 0.1295(2)
H13 H 1.4159 0.1059 0.0873
H14 H 1.4767 0.1054 0.1695
C17 C 0.8542(3) -0.0008(2) 0.26324(19)
H15 H 0.8249 -0.0263 0.2164
H16 H 0.8969 -0.0430 0.2945
C18 C 1.0859(3) 0.02512(19) 0.21363(19)
H17 H 1.0551 -0.0059 0.1700
H18 H 1.1237 -0.0140 0.2497
C19 C 1.1516(3) 0.14479(19) 0.13569(17)
H19 H 1.0806 0.1780 0.1601
H20 H 1.2296 0.1808 0.1236
C20 C 1.6770(4) 0.0525(3) 0.0777(2)
H21 H 1.6528 0.0837 0.0337
H22 H 1.7469 0.0122 0.0653
H23 H 1.7137 0.0888 0.1156
C21 C 1.0088(4) 0.1762(2) 0.02275(18)
H24 H 0.9301 0.1934 0.0532
H25 H 1.0682 0.2238 0.0145
C22 C 0.7276(4) 0.0331(3) 0.3021(2)
H26 H 0.7554 0.0557 0.3498
H27 H 0.6606 -0.0103 0.3098
H28 H 0.6857 0.0754 0.2717
C23 C 1.3746(4) 0.1302(2) 0.37970(18)
H29 H 1.4447 0.1675 0.3598
H30 H 1.2977 0.1630 0.3989
C24 C 1.0909(4) 0.1120(2) 0.06408(19)
H31 H 1.0300 0.0657 0.0751
H32 H 1.1664 0.0923 0.0325
C25 C 1.4379(4) 0.0811(3) 0.4420(2)
H33 H 1.3653 0.0513 0.4674
H34 H 1.4842 0.1174 0.4769
H35 H 1.5050 0.0430 0.4220
C26 C 0.9553(4) 0.1455(2) -0.0510(2)
H36 H 1.0331 0.1291 -0.0816
H37 H 0.9036 0.1885 -0.0759
H38 H 0.8946 0.0992 -0.0430
C27 C 1.5494(4) 0.0103(2) 0.1065(2)
H39 H 1.5751 -0.0237 0.1493
H40 H 1.5112 -0.0254 0.0677
loop_
_geom_bond_atom_site_label_1
_geom_bond_atom_site_label_2
_geom_bond_site_symmetry_1
_geom_bond_site_symmetry_2
Cu1 O4 1_555 1_555
Mn1 O1 1_555 1_555
O1 C3 1_555 1_555
O2 Mn1 1_555 1_555
O3 Mn1 1_555 1_555
O4 C3 1_555 1_555
O5 Cu1 1_555 1_555
O6 C9 1_555 1_555
N1 Cu1 1_555 1_555
N2 Cu1 1_555 1_555
C1 N1 1_555 1_555
C2 O3 1_555 1_555
C3 C2 1_555 1_555
C4 O5 1_555 1_555
C5 H1 1_555 1_555
C6 N2 1_555 1_555
C7 C5 1_555 1_555
H2 C7 1_555 1_555
C8 C1 1_555 1_555
H3 C8 1_555 1_555
C9 N2 1_555 1_555
C10 C5 1_555 1_555
H4 C10 1_555 1_555
O7 C11 1_555 1_555
O8 C4 1_555 1_555
C11 O2 1_555 1_555
N3 C12 1_555 1_555
C12 H5 1_555 1_555
H6 C12 1_555 1_555
C13 N3 1_555 1_555
H7 C13 1_555 1_555
H8 C13 1_555 1_555
C14 H9 1_555 1_555
H10 C14 1_555 1_555
C15 C12 1_555 1_555
H11 C15 1_555 1_555
H12 C15 1_555 1_555
C16 C13 1_555 1_555
H13 C16 1_555 1_555
H14 C16 1_555 1_555
C17 C14 1_555 1_555
H15 C17 1_555 1_555
H16 C17 1_555 1_555
C18 N3 1_555 1_555
H17 C18 1_555 1_555
H18 C18 1_555 1_555
C19 N3 1_555 1_555
H19 C19 1_555 1_555
H20 C19 1_555 1_555
C20 H21 1_555 1_555
H22 C20 1_555 1_555
H23 C20 1_555 1_555
C21 H24 1_555 1_555
H25 C21 1_555 1_555
C22 C17 1_555 1_555
H26 C22 1_555 1_555
H27 C22 1_555 1_555
H28 C22 1_555 1_555
C23 C15 1_555 1_555
H29 C23 1_555 1_555
H30 C23 1_555 1_555
C24 C19 1_555 1_555
H31 C24 1_555 1_555
H32 C24 1_555 1_555
C25 C23 1_555 1_555
H33 C25 1_555 1_555
H34 C25 1_555 1_555
H35 C25 1_555 1_555
C26 C21 1_555 1_555
H36 C26 1_555 1_555
H37 C26 1_555 1_555
H38 C26 1_555 1_555
C27 C16 1_555 1_555
H39 C27 1_555 1_555
H40 C27 1_555 1_555
O2B C11B 1_555 1_555
C11B C11 1_555 1_555
O7B Mn1 1_555 1_555
Cu1B O4B 1_555 1_555
Mn1B O7 1_555 1_555
O1B Mn1B 1_555 1_555
O3B Mn1B 1_555 1_555
O4B C3B 1_555 1_555
O5B Cu1B 1_555 1_555
O6B C9B 1_555 1_555
N1B Cu1B 1_555 1_555
N2B Cu1B 1_555 1_555
C1B N1B 1_555 1_555
C2B O3B 1_555 1_555
C3B O1B 1_555 1_555
C4B O5B 1_555 1_555
C5B H1B 1_555 1_555
C6B N2B 1_555 1_555
C7B C5B 1_555 1_555
H2B C7B 1_555 1_555
C8B C1B 1_555 1_555
H3B C8B 1_555 1_555
C9B N2B 1_555 1_555
C10B C5B 1_555 1_555
H4B C10B 1_555 1_555
O8B C4B 1_555 1_555
Mn1A O6B 1_555 1_555
Mn1C O6 1_555 1_555
O6A Mn1B 1_555 1_555
O6C Mn1 1_555 1_555
O8A Mn1B 1_555 1_555
O8C Mn1 1_555 1_555
N1 C2 1_555 1_555
C1 C6 1_555 1_555
C4 C9 1_555 1_555
C6 C7 1_555 1_555
C8 C10 1_555 1_555
O8 Mn1C 1_555 1_555
C14 C18 1_555 1_555
C20 C27 1_555 1_555
C21 C24 1_555 1_555
O2B Mn1B 1_555 1_555
C11B O7B 1_555 1_555
N1B C2B 1_555 1_555
C1B C6B 1_555 1_555
C2B C3B 1_555 1_555
C4B C9B 1_555 1_555
C6B C7B 1_555 1_555
C8B C10B 1_555 1_555
O8B Mn1A 1_555 1_555

#END
