
#######################################################################
#
#                 Cambridge Crystallographic Data Centre
#                                CCDC 
#
#######################################################################
#
# If this CIF has been generated from an entry in the Cambridge 
# Structural Database, then it will include bibliographic, chemical, 
# crystal, experimental, refinement or atomic coordinate data resulting 
# from the CCDC's data processing and validation procedures.
#
#######################################################################

data_IDIGAF
_symmetry_cell_setting           orthorhombic
_symmetry_space_group_name_H-M   'P 21 21 21'
_symmetry_Int_Tables_number      19
_space_group_name_Hall           'P 2ac 2ab'
loop_
_symmetry_equiv_pos_site_id
_symmetry_equiv_pos_as_xyz
1 x,y,z
2 1/2-x,-y,1/2+z
3 1/2+x,1/2-y,-z
4 -x,1/2+y,1/2-z
_cell_length_a                   7.1250(14)
_cell_length_b                   10.134(2)
_cell_length_c                   14.932(3)
_cell_angle_alpha                90
_cell_angle_beta                 90
_cell_angle_gamma                90
_cell_volume                     1078.16
loop_
_atom_site_label
_atom_site_type_symbol
_atom_site_fract_x
_atom_site_fract_y
_atom_site_fract_z
Hg1 Hg -0.55365(5) -1.24245(4) -0.94486(2)
Cl1 Cl -0.5555(5) -1.3796(3) -0.82080(17)
O1 O -0.4051(10) -1.3533(7) -1.0843(4)
O2 O -0.7131(10) -1.3563(7) -1.0746(4)
N1 N -0.4142(13) -1.4442(8) -1.3590(5)
N2 N -0.4237(14) -1.5685(8) -1.3863(5)
N3 N -0.4391(13) -1.5635(7) -1.4751(5)
C1 C -0.4243(16) -1.3589(10) -1.4279(6)
C2 C -0.4193(16) -1.2191(9) -1.4347(7)
H1 H -0.4090 -1.1657 -1.3843
C3 C -0.430(2) -1.1672(10) -1.5185(8)
H2 H -0.4293 -1.0760 -1.5258
C4 C -0.4430(14) -1.2490(12) -1.5942(6)
H3 H -0.4464 -1.2093 -1.6504
C5 C -0.4507(16) -1.3832(9) -1.5900(6)
H4 H -0.4630 -1.4355 -1.6409
C6 C -0.4389(14) -1.4368(9) -1.5041(5)
C7 C -0.3934(14) -1.4175(11) -1.2622(6)
H5 H -0.3123 -1.3416 -1.2538
H6 H -0.3346 -1.4927 -1.2335
C8 C -0.5831(15) -1.3909(10) -1.2184(6)
H7 H -0.6650 -1.4659 -1.2284
H8 H -0.6403 -1.3144 -1.2463
C9 C -0.5644(18) -1.3667(8) -1.1178(6)
Hg1B Hg -1.05365(5) -1.25755(4) -1.05514(2)
Hg1B_2 Hg -0.05365(5) -1.25755(4) -1.05514(2)
Hg1C Hg -0.44635(5) -1.74245(4) -1.55514(2)
O1B O -0.9051(10) -1.1467(7) -0.9157(4)
O2B O -0.2131(10) -1.1437(7) -0.9254(4)
N3C N -0.5609(13) -1.0635(7) -1.0249(5)
loop_
_geom_bond_atom_site_label_1
_geom_bond_atom_site_label_2
_geom_bond_site_symmetry_1
_geom_bond_site_symmetry_2
Hg1 Cl1 1_555 1_555
O1 Hg1 1_555 1_555
O2 Hg1 1_555 1_555
N1 N2 1_555 1_555
N2 N3 1_555 1_555
N3 C6 1_555 1_555
C1 N1 1_555 1_555
C2 C1 1_555 1_555
H1 C2 1_555 1_555
C3 C2 1_555 1_555
H2 C3 1_555 1_555
C4 C3 1_555 1_555
H3 C4 1_555 1_555
C5 C4 1_555 1_555
H4 C5 1_555 1_555
C6 C1 1_555 1_555
C7 N1 1_555 1_555
H5 C7 1_555 1_555
H6 C7 1_555 1_555
C8 C7 1_555 1_555
H7 C8 1_555 1_555
H8 C8 1_555 1_555
C9 O1 1_555 1_555
Hg1B O2 1_555 1_555
Hg1B_2 O1 1_555 1_555
Hg1C N3 1_555 1_555
O1B Hg1 1_555 1_555
O2B Hg1 1_555 1_555
N3C Hg1 1_555 1_555
O2 C9 1_555 1_555
C5 C6 1_555 1_555
C8 C9 1_555 1_555
Hg1B O1B 1_555 1_555
Hg1B_2 O2B 1_555 1_555

#END
