
#######################################################################
#
#                 Cambridge Crystallographic Data Centre
#                                CCDC 
#
#######################################################################
#
# If this CIF has been generated from an entry in the Cambridge 
# Structural Database, then it will include bibliographic, chemical, 
# crystal, experimental, refinement or atomic coordinate data resulting 
# from the CCDC's data processing and validation procedures.
#
#######################################################################

data_IDILAK
_symmetry_cell_setting           triclinic
_symmetry_space_group_name_H-M   'P -1'
_symmetry_Int_Tables_number      2
_space_group_name_Hall           '-P 1'
loop_
_symmetry_equiv_pos_site_id
_symmetry_equiv_pos_as_xyz
1 x,y,z
2 -x,-y,-z
_cell_length_a                   7.5943(3)
_cell_length_b                   7.9123(3)
_cell_length_c                   10.7673(4)
_cell_angle_alpha                88.7690(10)
_cell_angle_beta                 81.6810(10)
_cell_angle_gamma                83.9200(10)
_cell_volume                     636.568
loop_
_atom_site_label
_atom_site_type_symbol
_atom_site_fract_x
_atom_site_fract_y
_atom_site_fract_z
Co1 Co 0.5000 0.0000 1.0000
C1 C 0.1280(2) 0.2122(2) 1.01741(17)
C2 C -0.0189(2) 0.2764(2) 0.93891(16)
H1 H -0.1265 0.2227 0.9683
H2 H -0.0468 0.3982 0.9496
C3 C 0.0277(3) 0.0817(2) 0.76392(18)
H3 H -0.0235 0.0016 0.8182
C4 C 0.0928(3) 0.0397(2) 0.64190(19)
H4 H 0.0861 -0.0691 0.6131
C5 C 0.1687(3) 0.1600(2) 0.56150(18)
H5 H 0.2178 0.1303 0.4797
C6 C 0.1715(2) 0.3251(2) 0.60302(17)
C7 C 0.1054(2) 0.3596(2) 0.72797(17)
H6 H 0.1075 0.4681 0.7590
C8 C 0.2383(2) 0.4612(2) 0.51779(16)
C9 C 0.2396(2) 0.4480(2) 0.38854(17)
H7 H 0.1995 0.3532 0.3564
C10 C 0.3003(2) 0.5750(2) 0.30783(17)
H8 H 0.3012 0.5640 0.2219
C11 C 0.3597(2) 0.7182(2) 0.35321(16)
C12 C 0.3616(2) 0.7305(2) 0.48192(17)
H9 H 0.4038 0.8246 0.5135
C13 C 0.3014(2) 0.6043(2) 0.56340(16)
H10 H 0.3028 0.6148 0.6491
C14 C 0.4175(2) 0.8612(2) 0.26645(17)
O1 O 0.23496(18) 0.08802(17) 0.97274(13)
O2 O 0.1218(2) 0.2815(2) 1.12000(14)
O3 O 0.4574(2) 0.99102(19) 0.31444(13)
O4 O 0.41823(18) 0.83772(17) 0.14971(12)
O5 O 0.5063(2) -0.20597(18) 0.87341(14)
H11 H 0.629(4) -0.250(4) 0.867(3)
H12 H 0.504(4) -0.150(4) 0.806(3)
N1 N 0.03825(19) 0.23849(19) 0.80482(14)
C1A C 0.8720(2) -0.2122(2) 0.98259(17)
C2A C 1.0189(2) -0.2764(2) 1.06109(16)
H1A H 1.1265 -0.2227 1.0317
H2A H 1.0468 -0.3982 1.0504
C3A C 0.9723(3) -0.0817(2) 1.23608(18)
H3A H 1.0235 -0.0016 1.1818
C4A C 0.9072(3) -0.0397(2) 1.35810(19)
H4A H 0.9139 0.0691 1.3869
C5A C 0.8313(3) -0.1600(2) 1.43850(18)
H5A H 0.7822 -0.1303 1.5203
C6A C 0.8285(2) -0.3251(2) 1.39698(17)
C7A C 0.8946(2) -0.3596(2) 1.27203(17)
H6A H 0.8925 -0.4681 1.2410
C8A C 0.7617(2) -0.4612(2) 1.48221(16)
C9A C 0.7604(2) -0.4480(2) 1.61146(17)
H7A H 0.8005 -0.3532 1.6436
C10A C 0.6997(2) -0.5750(2) 1.69217(17)
H8A H 0.6988 -0.5640 1.7781
C11A C 0.6403(2) -0.7182(2) 1.64679(16)
C12A C 0.6384(2) -0.7305(2) 1.51808(17)
H9A H 0.5962 -0.8246 1.4865
C13A C 0.6986(2) -0.6043(2) 1.43660(16)
H10A H 0.6972 -0.6148 1.3509
C14A C 0.5825(2) -0.8612(2) 1.73355(17)
O1A O 0.76504(18) -0.08802(17) 1.02726(13)
O2A O 0.8782(2) -0.2815(2) 0.88000(14)
O3A O 0.5426(2) -0.99102(19) 1.68556(13)
O4A O 0.58177(18) -0.83772(17) 1.85029(12)
O5A O 0.4937(2) 0.20597(18) 1.12659(14)
H11A H 0.371(4) 0.250(4) 1.133(3)
H12A H 0.496(4) 0.150(4) 1.194(3)
N1A N 0.96175(19) -0.23849(19) 1.19518(14)
Co1_2 Co 0.5000 -1.0000 2.0000
Co1_3 Co 0.5000 1.0000 0.0000
O4_2 O 0.41823(18) -0.16228(17) 1.14971(12)
O4A_2 O 0.58177(18) 0.16228(17) 0.85029(12)
O6 O 0.3383(3) 0.4835(3) -0.0904(2)
H13 H 0.437(4) 0.402(3) -0.100(4)
H14 H 0.399(5) 0.578(3) -0.108(4)
loop_
_geom_bond_atom_site_label_1
_geom_bond_atom_site_label_2
_geom_bond_site_symmetry_1
_geom_bond_site_symmetry_2
Co1 O1 1_555 1_555
C1 C2 1_555 1_555
C2 H1 1_555 1_555
H2 C2 1_555 1_555
C3 H3 1_555 1_555
C4 C3 1_555 1_555
H4 C4 1_555 1_555
C5 C4 1_555 1_555
H5 C5 1_555 1_555
C6 C5 1_555 1_555
C7 C6 1_555 1_555
H6 C7 1_555 1_555
C8 C6 1_555 1_555
C9 C8 1_555 1_555
H7 C9 1_555 1_555
C10 C9 1_555 1_555
H8 C10 1_555 1_555
C11 C10 1_555 1_555
C12 C11 1_555 1_555
H9 C12 1_555 1_555
C13 C8 1_555 1_555
H10 C13 1_555 1_555
C14 C11 1_555 1_555
O1 C1 1_555 1_555
O2 C1 1_555 1_555
O3 C14 1_555 1_555
O4 C14 1_555 1_555
O5 Co1 1_555 1_555
H11 O5 1_555 1_555
H12 O5 1_555 1_555
N1 C2 1_555 1_555
O6 H13 1_555 1_555
H14 O6 1_555 1_555
C1A C2A 1_555 1_555
C2A H1A 1_555 1_555
H2A C2A 1_555 1_555
C3A H3A 1_555 1_555
C4A C3A 1_555 1_555
H4A C4A 1_555 1_555
C5A C4A 1_555 1_555
H5A C5A 1_555 1_555
C6A C5A 1_555 1_555
C7A C6A 1_555 1_555
H6A C7A 1_555 1_555
C8A C6A 1_555 1_555
C9A C8A 1_555 1_555
H7A C9A 1_555 1_555
C10A C9A 1_555 1_555
H8A C10A 1_555 1_555
C11A C10A 1_555 1_555
C12A C11A 1_555 1_555
H9A C12A 1_555 1_555
C13A C8A 1_555 1_555
H10A C13A 1_555 1_555
C14A C11A 1_555 1_555
O1A Co1 1_555 1_555
O2A C1A 1_555 1_555
O3A C14A 1_555 1_555
O4A C14A 1_555 1_555
O5A Co1 1_555 1_555
H11A O5A 1_555 1_555
H12A O5A 1_555 1_555
N1A C2A 1_555 1_555
Co1_2 O4A 1_555 1_555
Co1_3 O4 1_555 1_555
O4_2 Co1 1_555 1_555
O4A_2 Co1 1_555 1_555
C3 N1 1_555 1_555
C7 N1 1_555 1_555
C12 C13 1_555 1_555
C1A O1A 1_555 1_555
C3A N1A 1_555 1_555
C7A N1A 1_555 1_555
C12A C13A 1_555 1_555

#END
