
#######################################################################
#
#                 Cambridge Crystallographic Data Centre
#                                CCDC 
#
#######################################################################
#
# If this CIF has been generated from an entry in the Cambridge 
# Structural Database, then it will include bibliographic, chemical, 
# crystal, experimental, refinement or atomic coordinate data resulting 
# from the CCDC's data processing and validation procedures.
#
#######################################################################

data_IDILOY
_symmetry_cell_setting           monoclinic
_symmetry_space_group_name_H-M   'C 2/c'
_symmetry_Int_Tables_number      15
_space_group_name_Hall           '-C 2yn'
loop_
_symmetry_equiv_pos_site_id
_symmetry_equiv_pos_as_xyz
1 x,y,z
2 -x,y,1/2-z
3 1/2+x,1/2+y,z
4 1/2-x,1/2+y,1/2-z
5 -x,-y,-z
6 x,-y,1/2+z
7 1/2-x,1/2-y,-z
8 1/2+x,1/2-y,1/2+z
_cell_length_a                   31.7536(6)
_cell_length_b                   9.8492(2)
_cell_length_c                   14.4865(3)
_cell_angle_alpha                90
_cell_angle_beta                 113.2220(10)
_cell_angle_gamma                90
_cell_volume                     4163.57
loop_
_atom_site_label
_atom_site_type_symbol
_atom_site_fract_x
_atom_site_fract_y
_atom_site_fract_z
Cu1 Cu 0.172485(11) 0.45882(4) 0.30778(3)
N1 N 0.07823(8) 0.7287(3) 0.46195(18)
H1 H 0.1021 0.6781 0.4882
N2 N 0.20508(7) 0.2788(2) 0.35164(16)
N3 N 0.23714(7) 0.5223(2) 0.34707(17)
O1 O 0.11136(6) 0.6223(2) 0.75794(15)
O2 O 0.14757(7) 0.6413(2) 0.27927(16)
O3 O 0.14659(7) 0.6025(2) 0.42821(15)
O4 O 0.13160(6) 0.5939(2) 0.63028(15)
C1 C 0.13485(9) 0.6710(3) 0.3501(2)
C2 C 0.10555(8) 0.7946(3) 0.3344(2)
C3 C 0.10490(9) 0.8884(3) 0.2622(2)
H2 H 0.1217 0.8703 0.2237
C4 C 0.08029(11) 1.0071(3) 0.2458(3)
H3 H 0.0798 1.0670 0.1957
C5 C 0.05662(10) 1.0354(3) 0.3043(3)
H4 H 0.0414 1.1179 0.2967
C6 C 0.05500(10) 0.9437(3) 0.3744(3)
H5 H 0.0379 0.9641 0.4120
C7 C 0.07871(9) 0.8197(3) 0.3902(2)
C8 C 0.04358(9) 0.7090(3) 0.4972(2)
C9 C -0.00235(10) 0.7313(4) 0.4351(3)
H6 H -0.0099 0.7659 0.3708
C10 C -0.03645(10) 0.7024(4) 0.4680(3)
H7 H -0.0669 0.7152 0.4249
C11 C -0.02635(10) 0.6550(4) 0.5636(3)
H8 H -0.0497 0.6372 0.5855
C12 C 0.01899(10) 0.6343(3) 0.6269(3)
H9 H 0.0262 0.6032 0.6919
C13 C 0.05402(9) 0.6595(3) 0.5942(2)
C14 C 0.10206(9) 0.6238(3) 0.6641(2)
C15 C 0.18760(10) 0.1574(3) 0.3531(2)
H10 H 0.1561 0.1494 0.3341
C16 C 0.21466(11) 0.0407(3) 0.3820(2)
H11 H 0.2012 -0.0432 0.3822
C17 C 0.26097(11) 0.0504(3) 0.4102(2)
H12 H 0.2793 -0.0266 0.4299
C18 C 0.28067(10) 0.1772(3) 0.4090(2)
C19 C 0.32883(10) 0.2002(4) 0.4383(2)
H13 H 0.3491 0.1273 0.4580
C20 C 0.34496(10) 0.3263(4) 0.4376(2)
H14 H 0.3764 0.3388 0.4582
C21 C 0.31555(9) 0.4409(3) 0.4063(2)
C22 C 0.32977(11) 0.5755(4) 0.4042(2)
H15 H 0.3607 0.5948 0.4229
C23 C 0.29850(11) 0.6773(3) 0.3750(2)
H16 H 0.3080 0.7664 0.3737
C24 C 0.25214(10) 0.6482(3) 0.3469(2)
H17 H 0.2311 0.7190 0.3274
C25 C 0.26837(9) 0.4207(3) 0.3767(2)
C26 C 0.25100(9) 0.2879(3) 0.3789(2)
Cu1E Cu 0.172485(11) 0.54118(4) 0.80778(3)
O1E O 0.11136(6) 0.3777(2) 0.25794(15)
O4E O 0.13160(6) 0.4061(2) 0.13028(15)
loop_
_geom_bond_atom_site_label_1
_geom_bond_atom_site_label_2
_geom_bond_site_symmetry_1
_geom_bond_site_symmetry_2
Cu1 N2 1_555 1_555
N1 H1 1_555 1_555
N2 C15 1_555 1_555
N3 Cu1 1_555 1_555
O1 C14 1_555 1_555
O2 Cu1 1_555 1_555
O3 Cu1 1_555 1_555
O4 C14 1_555 1_555
C1 O2 1_555 1_555
C2 C1 1_555 1_555
C3 C2 1_555 1_555
H2 C3 1_555 1_555
C4 C3 1_555 1_555
H3 C4 1_555 1_555
C5 C4 1_555 1_555
H4 C5 1_555 1_555
C6 C5 1_555 1_555
H5 C6 1_555 1_555
C7 N1 1_555 1_555
C8 N1 1_555 1_555
C9 C8 1_555 1_555
H6 C9 1_555 1_555
C10 C9 1_555 1_555
H7 C10 1_555 1_555
C11 C10 1_555 1_555
H8 C11 1_555 1_555
C12 C11 1_555 1_555
H9 C12 1_555 1_555
C13 C8 1_555 1_555
C14 C13 1_555 1_555
C15 H10 1_555 1_555
C16 C15 1_555 1_555
H11 C16 1_555 1_555
C17 C16 1_555 1_555
H12 C17 1_555 1_555
C18 C17 1_555 1_555
C19 C18 1_555 1_555
H13 C19 1_555 1_555
C20 C19 1_555 1_555
H14 C20 1_555 1_555
C21 C20 1_555 1_555
C22 C21 1_555 1_555
H15 C22 1_555 1_555
C23 C22 1_555 1_555
H16 C23 1_555 1_555
C24 N3 1_555 1_555
H17 C24 1_555 1_555
C25 N3 1_555 1_555
C26 N2 1_555 1_555
Cu1E O1 1_555 1_555
O1E Cu1 1_555 1_555
O4E Cu1 1_555 1_555
O3 C1 1_555 1_555
O4 Cu1E 1_555 1_555
C2 C7 1_555 1_555
C6 C7 1_555 1_555
C12 C13 1_555 1_555
C18 C26 1_555 1_555
C21 C25 1_555 1_555
C23 C24 1_555 1_555
C25 C26 1_555 1_555

#END
