
#######################################################################
#
#                 Cambridge Crystallographic Data Centre
#                                CCDC 
#
#######################################################################
#
# If this CIF has been generated from an entry in the Cambridge 
# Structural Database, then it will include bibliographic, chemical, 
# crystal, experimental, refinement or atomic coordinate data resulting 
# from the CCDC's data processing and validation procedures.
#
#######################################################################

data_IDINUF
_symmetry_cell_setting           triclinic
_symmetry_space_group_name_H-M   'P -1'
_symmetry_Int_Tables_number      2
_space_group_name_Hall           '-P 1'
loop_
_symmetry_equiv_pos_site_id
_symmetry_equiv_pos_as_xyz
1 x,y,z
2 -x,-y,-z
_cell_length_a                   10.1568(18)
_cell_length_b                   12.287(2)
_cell_length_c                   13.938(2)
_cell_angle_alpha                114.155(4)
_cell_angle_beta                 100.316(7)
_cell_angle_gamma                102.903(8)
_cell_volume                     1473.78
loop_
_atom_site_label
_atom_site_type_symbol
_atom_site_fract_x
_atom_site_fract_y
_atom_site_fract_z
Cd1 Cd 0.14981(4) 0.28167(4) 0.00048(4)
O1 O -0.0879(5) 0.2901(4) 0.0405(4)
O2 O -0.0698(4) 0.1306(4) -0.0990(4)
O3 O -0.4554(5) -0.2828(4) -0.2717(4)
H1 H -0.4876 -0.3577 -0.2880
O4 O -0.6757(6) -0.2864(5) -0.2874(5)
O5 O -0.7677(5) 0.1126(4) -0.0726(5)
O6 O -0.5914(5) 0.2935(4) 0.0231(4)
O7 O 0.1898(5) 0.2778(4) 0.1696(4)
H2 H 0.2685 0.2691 0.1916
H3 H 0.1148 0.2211 0.1585
O8 O 0.1540(5) 0.3031(5) -0.1610(4)
H4 H 0.2288 0.3594 -0.1511
H5 H 0.0828 0.3274 -0.1512
N1 N 0.4772(8) 1.4761(5) 0.6137(5)
N2 N 0.5804(6) 1.0742(5) 0.4247(4)
N3 N 0.5485(6) 0.9474(4) 0.3582(4)
N4 N 0.3503(6) 0.9870(4) 0.3626(4)
N5 N 0.2064(6) 0.9799(5) 0.3465(5)
H6 H 0.1620 0.9444 0.2745
H7 H 0.1660 0.9330 0.3747
N6 N 0.2271(5) 0.4990(4) 0.1006(4)
C1 C 0.5877(8) 1.3225(6) 0.5423(6)
H8 H 0.6706 1.3037 0.5363
C2 C 0.5948(9) 1.4465(6) 0.6042(6)
H9 H 0.6826 1.5100 0.6395
C3 C 0.3562(10) 1.3873(8) 0.5679(7)
H10 H 0.2757 1.4088 0.5782
C4 C 0.3396(9) 1.2591(6) 0.5027(6)
H11 H 0.2503 1.1976 0.4693
C5 C 0.4594(8) 1.2274(5) 0.4900(5)
C6 C 0.4617(7) 1.0982(5) 0.4274(5)
C7 C 0.4101(7) 0.8963(5) 0.3210(5)
C8 C 0.3408(6) 0.7595(5) 0.2453(4)
C9 C 0.1997(7) 0.6931(6) 0.2221(6)
H12 H 0.1409 0.7342 0.2549
C10 C 0.1469(8) 0.5643(6) 0.1493(6)
H13 H 0.0516 0.5212 0.1335
C11 C 0.3625(7) 0.5645(5) 0.1239(5)
H14 H 0.4198 0.5215 0.0909
C12 C 0.4221(7) 0.6920(5) 0.1940(5)
H15 H 0.5172 0.7330 0.2070
C13 C -0.2970(5) 0.1077(5) -0.0709(4)
C14 C -0.3913(6) 0.1709(5) -0.0345(4)
H16 H -0.3568 0.2572 0.0136
C15 C -0.5349(5) 0.1063(5) -0.0694(4)
C16 C -0.5853(6) -0.0249(5) -0.1398(4)
H17 H -0.6818 -0.0691 -0.1633
C17 C -0.4924(6) -0.0892(5) -0.1747(4)
C18 C -0.3489(6) -0.0210(5) -0.1398(4)
H18 H -0.2863 -0.0631 -0.1635
C19 C -0.1399(6) 0.1821(5) -0.0386(5)
C20 C -0.6377(7) 0.1756(6) -0.0367(5)
C21 C -0.5483(7) -0.2294(5) -0.2485(5)
Cd1_2 Cd -0.85019(4) 0.28167(4) 0.00048(4)
O5_2 O 0.2323(5) 0.1126(4) -0.0726(5)
O6_2 O 0.4086(5) 0.2935(4) 0.0231(4)
O9 O 0.3253(8) 0.5065(6) 0.8331(6)
O10 O 0.8146(7) 0.9116(7) 0.3290(6)
O11 O 0.9969(8) 0.1142(7) 0.2038(8)
O12 O 0.1272(11) 0.5865(9) 0.7608(7)
O13 O 0.0344(16) 0.8575(15) 0.4467(13)
O14 O 0.0931(18) 0.778(3) 0.6076(17)
O15 O 0.042(2) 0.608(3) 0.4211(15)
loop_
_geom_bond_atom_site_label_1
_geom_bond_atom_site_label_2
_geom_bond_site_symmetry_1
_geom_bond_site_symmetry_2
Cd1 O1 1_555 1_555
O1 C19 1_555 1_555
O2 Cd1 1_555 1_555
O3 H1 1_555 1_555
O4 C21 1_555 1_555
O5 C20 1_555 1_555
O6 C20 1_555 1_555
O7 Cd1 1_555 1_555
H2 O7 1_555 1_555
H3 O7 1_555 1_555
O8 Cd1 1_555 1_555
H4 O8 1_555 1_555
H5 O8 1_555 1_555
N1 C2 1_555 1_555
N2 N3 1_555 1_555
N3 C7 1_555 1_555
N4 N5 1_555 1_555
N5 H6 1_555 1_555
H7 N5 1_555 1_555
N6 Cd1 1_555 1_555
C1 H8 1_555 1_555
C2 C1 1_555 1_555
H9 C2 1_555 1_555
C3 N1 1_555 1_555
H10 C3 1_555 1_555
C4 C3 1_555 1_555
H11 C4 1_555 1_555
C5 C1 1_555 1_555
C6 N2 1_555 1_555
C7 N4 1_555 1_555
C8 C7 1_555 1_555
C9 C8 1_555 1_555
H12 C9 1_555 1_555
C10 N6 1_555 1_555
H13 C10 1_555 1_555
C11 N6 1_555 1_555
H14 C11 1_555 1_555
C12 C8 1_555 1_555
H15 C12 1_555 1_555
C13 C14 1_555 1_555
C14 H16 1_555 1_555
C15 C14 1_555 1_555
C16 C15 1_555 1_555
H17 C16 1_555 1_555
C17 C16 1_555 1_555
C18 C13 1_555 1_555
H18 C18 1_555 1_555
C19 O2 1_555 1_555
C20 C15 1_555 1_555
C21 O3 1_555 1_555
Cd1_2 O5 1_555 1_555
O5_2 Cd1 1_555 1_555
O6_2 Cd1 1_555 1_555
O6 Cd1_2 1_555 1_555
N4 C6 1_555 1_555
C4 C5 1_555 1_555
C5 C6 1_555 1_555
C9 C10 1_555 1_555
C11 C12 1_555 1_555
C13 C19 1_555 1_555
C17 C18 1_555 1_555
C17 C21 1_555 1_555

#END
