
#######################################################################
#
#                 Cambridge Crystallographic Data Centre
#                                CCDC 
#
#######################################################################
#
# If this CIF has been generated from an entry in the Cambridge 
# Structural Database, then it will include bibliographic, chemical, 
# crystal, experimental, refinement or atomic coordinate data resulting 
# from the CCDC's data processing and validation procedures.
#
#######################################################################

data_IDINEP
_symmetry_cell_setting           monoclinic
_symmetry_space_group_name_H-M   'P 21/c'
_symmetry_Int_Tables_number      14
_space_group_name_Hall           '-P 2ybc'
loop_
_symmetry_equiv_pos_site_id
_symmetry_equiv_pos_as_xyz
1 x,y,z
2 -x,1/2+y,1/2-z
3 -x,-y,-z
4 x,1/2-y,1/2+z
_cell_length_a                   8.5256(8)
_cell_length_b                   15.0853(14)
_cell_length_c                   16.7476(16)
_cell_angle_alpha                90
_cell_angle_beta                 94.5770(10)
_cell_angle_gamma                90
_cell_volume                     2147.06
loop_
_atom_site_label
_atom_site_type_symbol
_atom_site_fract_x
_atom_site_fract_y
_atom_site_fract_z
Ni1 Ni 0.30497(3) 0.670949(18) 0.161964(15)
O1 O 0.22564(18) 0.63677(11) 0.26930(8)
O2 O -0.0231(2) 0.60058(13) 0.22900(9)
O3 O -0.3839(2) 0.51755(16) 0.42231(10)
H1 H -0.4680 0.5014 0.4379
O4 O -0.3402(2) 0.55295(14) 0.55100(10)
O5 O 0.1479(2) 0.72194(11) 0.63762(8)
O6 O 0.31286(18) 0.75806(10) 0.54958(8)
O7 O 0.14702(18) 0.58465(11) 0.10598(9)
H2 H 0.1155 0.5911 0.0569
H3 H 0.0755 0.5857 0.1386
N1 N 0.4796(2) 0.57882(12) 0.14492(11)
N2 N 0.9446(2) 0.39743(13) 0.05547(11)
N3 N 1.0877(2) 0.35774(14) 0.07452(11)
N4 N 0.9865(2) 0.39420(12) 0.18551(10)
N5 N 0.9794(2) 0.41226(13) 0.26726(11)
H4 H 0.9359 0.4657 0.2745
H5 H 0.9167 0.3719 0.2883
N6 N 1.5230(2) 0.24561(12) 0.27423(10)
C1 C 1.2997(3) 0.33991(17) 0.27618(14)
H6 H 1.2412 0.3786 0.3052
C2 C 1.4316(3) 0.30042(18) 0.31163(14)
H7 H 1.4591 0.3127 0.3653
C3 C 1.4822(3) 0.23141(17) 0.19666(13)
H8 H 1.5455 0.1945 0.1685
C4 C 1.3514(3) 0.26850(17) 0.15598(13)
H9 H 1.3296 0.2575 0.1016
C5 C 1.2534(3) 0.32172(14) 0.19619(13)
C6 C 1.1120(3) 0.35771(14) 0.15271(13)
C7 C 0.8842(3) 0.41891(14) 0.12262(13)
C8 C 0.7383(3) 0.46928(14) 0.12911(13)
C9 C 0.6955(3) 0.53320(17) 0.07208(14)
H10 H 0.7529 0.5407 0.0276
C10 C 0.5664(3) 0.58543(18) 0.08257(15)
H11 H 0.5381 0.6279 0.0438
C11 C 0.5185(3) 0.51547(16) 0.19819(14)
H12 H 0.4573 0.5086 0.2413
C12 C 0.6448(3) 0.45966(15) 0.19262(15)
H13 H 0.6673 0.4160 0.2310
C13 C 0.0836(3) 0.62037(15) 0.28091(13)
C14 C 0.0406(3) 0.62384(14) 0.36653(12)
C15 C -0.1031(3) 0.58960(15) 0.38499(13)
H14 H -0.1714 0.5659 0.3444
C16 C -0.1464(3) 0.59025(15) 0.46308(13)
C17 C -0.2992(3) 0.55116(16) 0.48031(13)
C18 C -0.0479(3) 0.62915(15) 0.52295(13)
H15 H -0.0774 0.6305 0.5752
C19 C 0.0946(3) 0.66612(13) 0.50539(12)
C20 C 0.1936(3) 0.71704(15) 0.56753(13)
C21 C 0.1390(3) 0.66155(14) 0.42717(13)
H16 H 0.2360 0.6841 0.4155
Ni1C Ni 0.30497(3) 0.829051(18) 0.661964(15)
Ni1A Ni 1.69503(3) 0.170949(18) 0.338036(15)
O5C O 0.1479(2) 0.77806(11) 0.13762(8)
O6C O 0.31286(18) 0.74194(10) 0.04958(8)
N6A N 0.4770(2) 0.74561(12) 0.22577(10)
loop_
_geom_bond_atom_site_label_1
_geom_bond_atom_site_label_2
_geom_bond_site_symmetry_1
_geom_bond_site_symmetry_2
Ni1 O1 1_555 1_555
O1 C13 1_555 1_555
O2 C13 1_555 1_555
O3 H1 1_555 1_555
O4 C17 1_555 1_555
O5 C20 1_555 1_555
O6 C20 1_555 1_555
O7 Ni1 1_555 1_555
H2 O7 1_555 1_555
H3 O7 1_555 1_555
N1 Ni1 1_555 1_555
N2 N3 1_555 1_555
N3 C6 1_555 1_555
N4 N5 1_555 1_555
N5 H4 1_555 1_555
H5 N5 1_555 1_555
N6 C2 1_555 1_555
C1 H6 1_555 1_555
C2 C1 1_555 1_555
H7 C2 1_555 1_555
C3 N6 1_555 1_555
H8 C3 1_555 1_555
C4 C3 1_555 1_555
H9 C4 1_555 1_555
C5 C1 1_555 1_555
C6 N4 1_555 1_555
C7 N2 1_555 1_555
C8 C7 1_555 1_555
C9 C8 1_555 1_555
H10 C9 1_555 1_555
C10 N1 1_555 1_555
H11 C10 1_555 1_555
C11 N1 1_555 1_555
H12 C11 1_555 1_555
C12 C8 1_555 1_555
H13 C12 1_555 1_555
C13 C14 1_555 1_555
C14 C15 1_555 1_555
C15 H14 1_555 1_555
C16 C15 1_555 1_555
C17 O3 1_555 1_555
C18 C16 1_555 1_555
H15 C18 1_555 1_555
C19 C18 1_555 1_555
C20 C19 1_555 1_555
C21 C14 1_555 1_555
H16 C21 1_555 1_555
Ni1C O5 1_555 1_555
Ni1A N6 1_555 1_555
O5C Ni1 1_555 1_555
O6C Ni1 1_555 1_555
N6A Ni1 1_555 1_555
O6 Ni1C 1_555 1_555
N4 C7 1_555 1_555
C4 C5 1_555 1_555
C5 C6 1_555 1_555
C9 C10 1_555 1_555
C11 C12 1_555 1_555
C16 C17 1_555 1_555
C19 C21 1_555 1_555

#END
