
#######################################################################
#
#                 Cambridge Crystallographic Data Centre
#                                CCDC 
#
#######################################################################
#
# If this CIF has been generated from an entry in the Cambridge 
# Structural Database, then it will include bibliographic, chemical, 
# crystal, experimental, refinement or atomic coordinate data resulting 
# from the CCDC's data processing and validation procedures.
#
#######################################################################

data_IDINAL
_symmetry_cell_setting           monoclinic
_symmetry_space_group_name_H-M   'P 21/c'
_symmetry_Int_Tables_number      14
_space_group_name_Hall           '-P 2ybc'
loop_
_symmetry_equiv_pos_site_id
_symmetry_equiv_pos_as_xyz
1 x,y,z
2 -x,1/2+y,1/2-z
3 -x,-y,-z
4 x,1/2-y,1/2+z
_cell_length_a                   8.591(3)
_cell_length_b                   14.942(4)
_cell_length_c                   16.870(5)
_cell_angle_alpha                90
_cell_angle_beta                 94.883(4)
_cell_angle_gamma                90
_cell_volume                     2157.69
loop_
_atom_site_label
_atom_site_type_symbol
_atom_site_fract_x
_atom_site_fract_y
_atom_site_fract_z
Co1 Co 1.19886(3) 0.171366(17) 0.835171(14)
O1 O 1.28344(16) 0.14276(11) 0.72852(8)
O2 O 1.52806(18) 0.10248(12) 0.76940(8)
O3 O 1.8859(2) 0.01724(15) 0.57643(9)
H1 H 1.9732 0.0077 0.5622
O4 O 1.83907(19) 0.05266(13) 0.44837(9)
O5 O 1.3458(2) 0.21628(11) 0.36253(8)
O6 O 1.18796(17) 0.25486(10) 0.45084(8)
O7 O 1.35906(17) 0.08378(10) 0.89172(8)
H2 H 1.4318 0.0880 0.8608
H3 H 1.3863 0.0897 0.9411
N1 N 1.02042(19) 0.24554(12) 0.76913(9)
N2 N 0.5857(2) 0.35872(13) 0.57192(10)
N3 N 0.4432(2) 0.39866(12) 0.55310(9)
N4 N 0.48506(19) 0.39373(11) 0.68220(9)
N5 N 0.4786(2) 0.41177(13) 0.76364(10)
H4 H 0.4132 0.3698 0.7799
H5 H 0.4292 0.4644 0.7683
N6 N -0.0192(2) 0.57943(12) 0.64271(10)
C1 C 1.4227(2) 0.12308(14) 0.71728(11)
C2 C 1.4640(2) 0.12400(13) 0.63261(11)
C3 C 1.6064(2) 0.08945(14) 0.61405(11)
H6 H 1.6754 0.0662 0.6543
C4 C 1.6475(2) 0.08911(14) 0.53618(12)
C5 C 1.8000(2) 0.05056(15) 0.51918(12)
C6 C 1.5478(2) 0.12695(14) 0.47658(11)
H7 H 1.5755 0.1277 0.4245
C7 C 1.4063(2) 0.16375(12) 0.49446(12)
C8 C 1.3043(2) 0.21329(14) 0.43250(12)
C9 C 1.3650(2) 0.16087(13) 0.57219(12)
H8 H 1.2692 0.1841 0.5839
C10 C 0.7951(3) 0.33804(16) 0.77222(13)
H9 H 0.7349 0.3752 0.8016
C11 C 0.9280(3) 0.29919(17) 0.80731(13)
H10 H 0.9553 0.3109 0.8608
C12 C 0.9802(3) 0.23242(16) 0.69200(12)
H11 H 1.0442 0.1964 0.6637
C13 C 0.8497(3) 0.26904(15) 0.65199(12)
H12 H 0.8279 0.2585 0.5978
C14 C 0.7510(2) 0.32158(13) 0.69265(12)
C15 C 0.6097(2) 0.35765(13) 0.64962(12)
C16 C 0.3834(2) 0.41936(13) 0.61986(12)
C17 C 0.2389(2) 0.46978(14) 0.62653(11)
C18 C 0.1955(3) 0.53485(16) 0.57072(13)
H13 H 0.2524 0.5433 0.5268
C19 C 0.0668(3) 0.58696(16) 0.58102(14)
H14 H 0.0381 0.6300 0.5427
C20 C 0.0212(3) 0.51507(15) 0.69509(13)
H15 H -0.0386 0.5079 0.7381
C21 C 0.1458(3) 0.45883(15) 0.68930(14)
H16 H 0.1677 0.4140 0.7268
Co1C Co 1.19886(3) 0.328634(17) 0.335171(14)
Co1A Co -0.19886(3) 0.671366(17) 0.664829(14)
O5C O 1.3458(2) 0.28372(11) 0.86253(8)
O6C O 1.18796(17) 0.24514(10) 0.95084(8)
N6A N 1.0192(2) 0.07943(12) 0.85729(10)
loop_
_geom_bond_atom_site_label_1
_geom_bond_atom_site_label_2
_geom_bond_site_symmetry_1
_geom_bond_site_symmetry_2
Co1 O1 1_555 1_555
O1 C1 1_555 1_555
O2 C1 1_555 1_555
O3 H1 1_555 1_555
O4 C5 1_555 1_555
O5 C8 1_555 1_555
O6 C8 1_555 1_555
O7 Co1 1_555 1_555
H2 O7 1_555 1_555
H3 O7 1_555 1_555
N1 Co1 1_555 1_555
N2 N3 1_555 1_555
N3 C16 1_555 1_555
N4 N5 1_555 1_555
N5 H4 1_555 1_555
H5 N5 1_555 1_555
N6 C19 1_555 1_555
C1 C2 1_555 1_555
C2 C3 1_555 1_555
C3 H6 1_555 1_555
C4 C3 1_555 1_555
C5 O3 1_555 1_555
C6 C4 1_555 1_555
H7 C6 1_555 1_555
C7 C6 1_555 1_555
C8 C7 1_555 1_555
C9 C2 1_555 1_555
H8 C9 1_555 1_555
C10 H9 1_555 1_555
C11 N1 1_555 1_555
H10 C11 1_555 1_555
C12 N1 1_555 1_555
H11 C12 1_555 1_555
C13 C12 1_555 1_555
H12 C13 1_555 1_555
C14 C10 1_555 1_555
C15 N2 1_555 1_555
C16 N4 1_555 1_555
C17 C16 1_555 1_555
C18 C17 1_555 1_555
H13 C18 1_555 1_555
C19 C18 1_555 1_555
H14 C19 1_555 1_555
C20 N6 1_555 1_555
H15 C20 1_555 1_555
C21 C17 1_555 1_555
H16 C21 1_555 1_555
Co1C O5 1_555 1_555
Co1A N6 1_555 1_555
O5C Co1 1_555 1_555
O6C Co1 1_555 1_555
N6A Co1 1_555 1_555
O6 Co1C 1_555 1_555
N4 C15 1_555 1_555
C4 C5 1_555 1_555
C7 C9 1_555 1_555
C10 C11 1_555 1_555
C13 C14 1_555 1_555
C14 C15 1_555 1_555
C20 C21 1_555 1_555

#END
