
#######################################################################
#
#                 Cambridge Crystallographic Data Centre
#                                CCDC 
#
#######################################################################
#
# If this CIF has been generated from an entry in the Cambridge 
# Structural Database, then it will include bibliographic, chemical, 
# crystal, experimental, refinement or atomic coordinate data resulting 
# from the CCDC's data processing and validation procedures.
#
#######################################################################

data_IDINIU
_symmetry_cell_setting           monoclinic
_symmetry_space_group_name_H-M   'P 21/c'
_symmetry_Int_Tables_number      14
_space_group_name_Hall           '-P 2ybc'
loop_
_symmetry_equiv_pos_site_id
_symmetry_equiv_pos_as_xyz
1 x,y,z
2 -x,1/2+y,1/2-z
3 -x,-y,-z
4 x,1/2-y,1/2+z
_cell_length_a                   8.999(4)
_cell_length_b                   19.296(8)
_cell_length_c                   18.926(7)
_cell_angle_alpha                90
_cell_angle_beta                 110.590(18)
_cell_angle_gamma                90
_cell_volume                     3076.47
loop_
_atom_site_label
_atom_site_type_symbol
_atom_site_fract_x
_atom_site_fract_y
_atom_site_fract_z
Cu1 Cu 0.49949(5) 0.66350(3) 0.40320(2)
Cu2 Cu -0.01800(5) 0.90670(3) 0.40567(2)
O1 O 0.0200(3) 0.83286(14) 0.32205(15)
O2 O 0.1425(4) 0.90382(15) 0.26628(17)
O3 O 0.3393(3) 0.77371(15) 0.32593(16)
O4 O 0.3008(3) 0.65963(14) 0.31383(15)
O5 O -0.3003(3) 0.82712(14) -0.00888(15)
O6 O -0.3577(3) 0.71481(15) -0.01062(16)
O7 O -0.0973(4) 0.58140(16) 0.04247(18)
O8 O -0.0517(3) 0.66614(14) -0.02611(14)
O9 O 0.0235(3) 0.98875(15) 0.34694(16)
H1 H 0.0156 1.0262 0.3690
H2 H 0.1166 0.9855 0.3454
O10 O 0.5490(4) 0.54417(17) 0.41879(19)
H3 H 0.5993 0.5356 0.4651
H4 H 0.4612 0.5225 0.4044
N1 N 0.6196(4) 0.67888(18) 0.33332(19)
N2 N -0.2465(4) 0.91606(18) 0.34494(19)
N3 N 0.3720(4) 0.67091(19) 0.4723(2)
N4 N 0.2083(4) 0.91014(18) 0.47251(19)
C1 C -0.2741(4) 0.7665(2) 0.0167(2)
C2 C 0.1268(4) 0.7328(2) 0.2199(2)
C3 C 0.0744(4) 0.8489(2) 0.2715(2)
C4 C 0.2665(4) 0.7223(2) 0.2915(2)
C5 C 0.0832(4) 0.6832(2) 0.1639(2)
H5 H 0.1380 0.6414 0.1718
N5 N -0.5031(4) 0.8996(2) 0.2980(2)
H6 H -0.5959 0.8840 0.2928
C6 C 0.0416(4) 0.7953(2) 0.20941(19)
C7 C -0.1278(4) 0.7559(2) 0.0861(2)
C8 C -0.0412(4) 0.6942(2) 0.09592(19)
C9 C -0.0858(4) 0.8058(2) 0.1428(2)
H7 H -0.1438 0.8467 0.1360
C10 C 0.5758(6) 0.6644(3) 0.2580(3)
H8 H 0.4916 0.6360 0.2308
C11 C 0.3268(5) 0.8762(2) 0.4620(3)
H9 H 0.3161 0.8477 0.4209
C12 C 0.7426(5) 0.7202(2) 0.3478(3)
H10 H 0.7981 0.7385 0.3953
N6 N 0.4627(4) 0.8883(2) 0.5180(2)
H11 H 0.5540 0.8715 0.5222
C13 C -0.3691(5) 0.8842(2) 0.3536(2)
H12 H -0.3622 0.8547 0.3935
C14 C -0.0702(4) 0.6424(2) 0.0330(2)
N7 N 0.7785(5) 0.7327(2) 0.2862(2)
H13 H 0.8543 0.7584 0.2834
C15 C 0.4166(6) 0.6577(3) 0.5468(3)
H14 H 0.5065 0.6326 0.5745
C16 C 0.2747(5) 0.9448(3) 0.5398(3)
H15 H 0.2200 0.9727 0.5626
C17 C -0.3115(6) 0.9542(3) 0.2796(3)
H16 H -0.2548 0.9828 0.2586
C18 C -0.4691(6) 0.9439(3) 0.2511(3)
H17 H -0.5405 0.9635 0.2074
C19 C 0.4314(6) 0.9319(3) 0.5673(3)
H18 H 0.5046 0.9495 0.6116
N8 N 0.2023(5) 0.7178(3) 0.5191(3)
H19 H 0.1222 0.7405 0.5218
C20 C 0.2400(5) 0.7077(3) 0.4577(3)
H20 H 0.1806 0.7246 0.4101
C21 C 0.3138(7) 0.6855(4) 0.5755(4)
H21 H 0.3192 0.6828 0.6254
C22 C 0.6730(6) 0.6973(3) 0.2298(3)
H22 H 0.6683 0.6960 0.1799
Cu1C Cu -0.50051(5) 0.83650(3) -0.09680(2)
Cu2C Cu -0.01800(5) 0.59330(3) -0.09433(2)
O5C O 0.6997(3) 0.67288(14) 0.49112(15)
O8C O -0.0517(3) 0.83386(14) 0.47389(14)
O11 O 1.2716(4) 0.4804(2) 0.4224(2)
N9 N 1.0139(5) 0.5105(2) 0.3827(3)
C23 C 0.9597(8) 0.4537(4) 0.4157(4)
H23 H 0.9436 0.4139 0.3834
H24 H 0.8614 0.4660 0.4217
H25 H 1.0376 0.4431 0.4641
C24 C 1.1617(7) 0.5176(3) 0.3867(3)
H26 H 1.1843 0.5542 0.3600
C25 C 0.8863(10) 0.5547(4) 0.3310(6)
H27 H 0.9320 0.5877 0.3066
H28 H 0.8327 0.5788 0.3595
H29 H 0.8117 0.5261 0.2936
loop_
_geom_bond_atom_site_label_1
_geom_bond_atom_site_label_2
_geom_bond_site_symmetry_1
_geom_bond_site_symmetry_2
Cu1 O4 1_555 1_555
Cu2 O1 1_555 1_555
O1 C3 1_555 1_555
O2 C3 1_555 1_555
O3 C4 1_555 1_555
O4 C4 1_555 1_555
O5 C1 1_555 1_555
O6 C1 1_555 1_555
O7 C14 1_555 1_555
O8 C14 1_555 1_555
O9 Cu2 1_555 1_555
H1 O9 1_555 1_555
H2 O9 1_555 1_555
O10 Cu1 1_555 1_555
H3 O10 1_555 1_555
H4 O10 1_555 1_555
N1 Cu1 1_555 1_555
N2 Cu2 1_555 1_555
N3 Cu1 1_555 1_555
N4 Cu2 1_555 1_555
C1 C7 1_555 1_555
C2 C4 1_555 1_555
C3 C6 1_555 1_555
C5 C2 1_555 1_555
H5 C5 1_555 1_555
N5 H6 1_555 1_555
C6 C2 1_555 1_555
C7 C8 1_555 1_555
C8 C5 1_555 1_555
C9 C6 1_555 1_555
H7 C9 1_555 1_555
C10 N1 1_555 1_555
H8 C10 1_555 1_555
C11 N4 1_555 1_555
H9 C11 1_555 1_555
C12 N1 1_555 1_555
H10 C12 1_555 1_555
N6 C11 1_555 1_555
H11 N6 1_555 1_555
C13 N2 1_555 1_555
H12 C13 1_555 1_555
C14 C8 1_555 1_555
N7 C12 1_555 1_555
H13 N7 1_555 1_555
C15 N3 1_555 1_555
H14 C15 1_555 1_555
C16 N4 1_555 1_555
H15 C16 1_555 1_555
C17 N2 1_555 1_555
H16 C17 1_555 1_555
C18 N5 1_555 1_555
H17 C18 1_555 1_555
C19 N6 1_555 1_555
H18 C19 1_555 1_555
N8 H19 1_555 1_555
C20 N3 1_555 1_555
H20 C20 1_555 1_555
C21 C15 1_555 1_555
H21 C21 1_555 1_555
C22 C10 1_555 1_555
H22 C22 1_555 1_555
O11 C24 1_555 1_555
N9 C23 1_555 1_555
C23 H23 1_555 1_555
H24 C23 1_555 1_555
H25 C23 1_555 1_555
C24 N9 1_555 1_555
H26 C24 1_555 1_555
C25 N9 1_555 1_555
H27 C25 1_555 1_555
H28 C25 1_555 1_555
H29 C25 1_555 1_555
Cu1C O5 1_555 1_555
Cu2C O8 1_555 1_555
O5C Cu1 1_555 1_555
O8C Cu2 1_555 1_555
N5 C13 1_555 1_555
C7 C9 1_555 1_555
N7 C22 1_555 1_555
C16 C19 1_555 1_555
C17 C18 1_555 1_555
N8 C20 1_555 1_555
N8 C21 1_555 1_555

#END
