
#######################################################################
#
#                 Cambridge Crystallographic Data Centre
#                                CCDC 
#
#######################################################################
#
# If this CIF has been generated from an entry in the Cambridge 
# Structural Database, then it will include bibliographic, chemical, 
# crystal, experimental, refinement or atomic coordinate data resulting 
# from the CCDC's data processing and validation procedures.
#
#######################################################################

data_IDIPOC
_symmetry_cell_setting           monoclinic
_symmetry_space_group_name_H-M   'P 21/n'
_symmetry_Int_Tables_number      14
_space_group_name_Hall           '-P 2yn'
loop_
_symmetry_equiv_pos_site_id
_symmetry_equiv_pos_as_xyz
1 x,y,z
2 1/2-x,1/2+y,1/2-z
3 -x,-y,-z
4 1/2+x,1/2-y,1/2+z
_cell_length_a                   5.3188(4)
_cell_length_b                   11.1525(14)
_cell_length_c                   12.0279(8)
_cell_angle_alpha                90
_cell_angle_beta                 101.256(7)
_cell_angle_gamma                90
_cell_volume                     699.746
loop_
_atom_site_label
_atom_site_type_symbol
_atom_site_fract_x
_atom_site_fract_y
_atom_site_fract_z
Cd1 Cd 0.5000 0.5000 0.5000
O1 O 0.7271(6) 0.6312(4) 0.4040(3)
H1 H 0.6261 0.6859 0.3696
H2 H 0.7918 0.5921 0.3544
N1 N 0.0067(7) 0.5049(4) 0.2701(3)
N2 N 0.0598(8) 0.3375(4) 0.1802(4)
C1 C -0.2949(9) 0.4694(5) 0.0882(4)
C2 C -0.3166(9) 0.4199(5) -0.0197(4)
H3 H -0.1933 0.3658 -0.0335
N3 N 0.2066(7) 0.4426(4) 0.3287(4)
C3 C -0.0782(9) 0.4371(5) 0.1798(4)
N4 N 0.2401(8) 0.3426(4) 0.2768(4)
O2 O 0.2732(8) 0.6693(4) 0.5307(4)
H4 H 0.3484 0.7038 0.5914
H5 H 0.1225 0.6488 0.5376
C4 C -0.4828(10) 0.5505(5) 0.1061(4)
H6 H -0.4724 0.5849 0.1773
N1B N -1.0067(7) 0.4951(4) -0.2701(3)
N2B N -1.0598(8) 0.6625(4) -0.1802(4)
C1B C -0.7051(9) 0.5306(5) -0.0882(4)
C2B C -0.6834(9) 0.5801(5) 0.0197(4)
H3B H -0.8067 0.6342 0.0335
N3B N -1.2066(7) 0.5574(4) -0.3287(4)
C3B C -0.9218(9) 0.5629(5) -0.1798(4)
N4B N -1.2401(8) 0.6574(4) -0.2768(4)
C4B C -0.5172(10) 0.4495(5) -0.1061(4)
H6B H -0.5276 0.4151 -0.1773
O1B O 0.2729(6) 0.3688(4) 0.5960(3)
H1B H 0.3739 0.3141 0.6304
H2B H 0.2082 0.4079 0.6456
O2B O 0.7268(8) 0.3307(4) 0.4693(4)
H4B H 0.6516 0.2962 0.4086
H5B H 0.8775 0.3512 0.4624
Cd1_2 Cd -1.5000 0.5000 -0.5000
N3B_2 N 0.7934(7) 0.5574(4) 0.6713(4)
loop_
_geom_bond_atom_site_label_1
_geom_bond_atom_site_label_2
_geom_bond_site_symmetry_1
_geom_bond_site_symmetry_2
Cd1 O1 1_555 1_555
O1 H1 1_555 1_555
H2 O1 1_555 1_555
N1 N3 1_555 1_555
N2 C3 1_555 1_555
C1 C2 1_555 1_555
C2 H3 1_555 1_555
N3 Cd1 1_555 1_555
C3 N1 1_555 1_555
N4 N2 1_555 1_555
O2 Cd1 1_555 1_555
H4 O2 1_555 1_555
H5 O2 1_555 1_555
C4 C1 1_555 1_555
H6 C4 1_555 1_555
N1B N3B 1_555 1_555
N2B C3B 1_555 1_555
C1B C2B 1_555 1_555
C2B C4 1_555 1_555
H3B C2B 1_555 1_555
N3B N4B 1_555 1_555
C3B N1B 1_555 1_555
N4B N2B 1_555 1_555
C4B C2 1_555 1_555
H6B C4B 1_555 1_555
O1B Cd1 1_555 1_555
H1B O1B 1_555 1_555
H2B O1B 1_555 1_555
O2B Cd1 1_555 1_555
H4B O2B 1_555 1_555
H5B O2B 1_555 1_555
Cd1_2 N3B 1_555 1_555
N3B_2 Cd1 1_555 1_555
C1 C3 1_555 1_555
N3 N4 1_555 1_555
C1B C3B 1_555 1_555
C1B C4B 1_555 1_555

#END
