
#######################################################################
#
#                 Cambridge Crystallographic Data Centre
#                                CCDC 
#
#######################################################################
#
# If this CIF has been generated from an entry in the Cambridge 
# Structural Database, then it will include bibliographic, chemical, 
# crystal, experimental, refinement or atomic coordinate data resulting 
# from the CCDC's data processing and validation procedures.
#
#######################################################################

data_IDIQOD
_symmetry_cell_setting           triclinic
_symmetry_space_group_name_H-M   'P -1'
_symmetry_Int_Tables_number      2
_space_group_name_Hall           '-P 1'
loop_
_symmetry_equiv_pos_site_id
_symmetry_equiv_pos_as_xyz
1 x,y,z
2 -x,-y,-z
_cell_length_a                   7.5912(2)
_cell_length_b                   8.0973(3)
_cell_length_c                   10.6706(3)
_cell_angle_alpha                103.493(3)
_cell_angle_beta                 98.589(3)
_cell_angle_gamma                92.240(3)
_cell_volume                     628.779
loop_
_atom_site_label
_atom_site_type_symbol
_atom_site_fract_x
_atom_site_fract_y
_atom_site_fract_z
C1 C 0.7687(3) 0.8846(3) 0.9610(2)
C2 C 0.7420(3) 0.7295(3) 1.0146(2)
C3 C 0.7733(3) 0.5691(3) 0.9454(2)
H1 H 0.8082 0.5552 0.8639
C4 C 0.7525(4) 0.4283(3) 0.9978(2)
C5 C 0.7046(4) 0.4541(3) 1.1205(2)
H2 H 0.6934 0.3631 1.1590
C6 C 0.6887(3) 0.7479(3) 1.1353(2)
H3 H 0.6631 0.8540 1.1818
C7 C 0.5536(3) 1.0035(3) 0.4431(2)
C8 C 1.0255(3) 0.5479(3) 0.4489(2)
C9 C 0.4854(3) 0.4971(3) 0.5697(2)
Eu1 Eu 0.797021(16) 0.810935(14) 0.626500(11)
N1 N 0.6745(3) 0.6119(3) 1.1836(2)
O1 O 0.8197(2) 0.8624(2) 0.85299(16)
O2 O 0.7395(3) 1.0258(2) 1.03073(16)
O3 O 0.7803(3) 0.2743(2) 0.92694(18)
H4 H 0.7713 0.2035 0.9698
O4 O 0.7120(2) 0.9644(2) 0.45635(16)
O5 O 0.4726(2) 1.0481(2) 0.34753(17)
O6 O 0.9752(2) 0.6961(2) 0.45804(16)
O7 O 1.1111(2) 0.4717(2) 0.36568(17)
O8 O 0.5549(2) 0.6147(2) 0.66268(16)
O9 O 0.3889(2) 0.3686(2) 0.57489(16)
O10 O 1.1269(2) 0.8348(2) 0.70926(19)
O11 O 0.9123(3) 1.1139(2) 0.7043(2)
H5 H 0.645(4) 0.622(4) 1.257(3)
H6 H 1.179(5) 0.876(4) 0.667(4)
H7 H 1.168(5) 0.893(4) 0.794(4)
H8 H 0.937(5) 1.181(5) 0.654(4)
H9 H 0.874(5) 1.164(4) 0.760(4)
C7A C 0.4464(3) 0.9965(3) 0.5569(2)
O4A O 0.2880(2) 1.0356(2) 0.54365(16)
O5A O 0.5274(2) 0.9519(2) 0.65247(17)
C8A C 0.9745(3) 0.4521(3) 0.5511(2)
O6A O 1.0248(2) 0.3039(2) 0.54196(16)
O7A O 0.8889(2) 0.5283(2) 0.63432(17)
C9A C 0.5146(3) 0.5029(3) 0.4303(2)
O8A O 0.4451(2) 0.3853(2) 0.33732(16)
O9A O 0.6111(2) 0.6314(2) 0.42511(16)
C1A C 0.2313(3) 0.1154(3) 0.0390(2)
C2A C 0.2580(3) 0.2705(3) -0.0146(2)
C3A C 0.2267(3) 0.4309(3) 0.0546(2)
H1A H 0.1918 0.4448 0.1361
C4A C 0.2475(4) 0.5717(3) 0.0022(2)
C5A C 0.2954(4) 0.5459(3) -0.1205(2)
H2A H 0.3066 0.6369 -0.1590
C6A C 0.3113(3) 0.2521(3) -0.1353(2)
H3A H 0.3369 0.1460 -0.1818
Eu1A Eu 0.202979(16) 0.189065(14) 0.373500(11)
N1A N 0.3255(3) 0.3881(3) -0.1836(2)
O1A O 0.1803(2) 0.1376(2) 0.14701(16)
O2A O 0.2605(3) -0.0258(2) -0.03073(16)
O3A O 0.2197(3) 0.7257(2) 0.07306(18)
H4A H 0.2287 0.7965 0.0302
O10A O -0.1269(2) 0.1652(2) 0.29074(19)
O11A O 0.0877(3) -0.1139(2) 0.2957(2)
H5A H 0.355(4) 0.378(4) -0.257(3)
H6A H -0.179(5) 0.124(4) 0.333(4)
H7A H -0.168(5) 0.107(4) 0.206(4)
H8A H 0.063(5) -0.181(5) 0.346(4)
H9A H 0.126(5) -0.164(4) 0.240(4)
Eu1A_2 Eu 0.202979(16) 1.189065(14) 0.373500(11)
Eu1A_3 Eu 1.202979(16) 0.189065(14) 0.373500(11)
O4A_2 O 0.2880(2) 0.0356(2) 0.54365(16)
O5_2 O 0.4726(2) 0.0481(2) 0.34753(17)
O6A_2 O 0.0248(2) 0.3039(2) 0.54196(16)
O7_2 O 0.1111(2) 0.4717(2) 0.36568(17)
loop_
_geom_bond_atom_site_label_1
_geom_bond_atom_site_label_2
_geom_bond_site_symmetry_1
_geom_bond_site_symmetry_2
C1 C2 1_555 1_555
C2 C3 1_555 1_555
C3 H1 1_555 1_555
C4 C3 1_555 1_555
C5 C4 1_555 1_555
H2 C5 1_555 1_555
C6 C2 1_555 1_555
H3 C6 1_555 1_555
C7 O4 1_555 1_555
C8 O6 1_555 1_555
C9 O8 1_555 1_555
Eu1 O1 1_555 1_555
N1 C5 1_555 1_555
O1 C1 1_555 1_555
O2 C1 1_555 1_555
O3 C4 1_555 1_555
H4 O3 1_555 1_555
O4 Eu1 1_555 1_555
O5 C7 1_555 1_555
O6 Eu1 1_555 1_555
O7 C8 1_555 1_555
O8 Eu1 1_555 1_555
O9 C9 1_555 1_555
O10 Eu1 1_555 1_555
O11 Eu1 1_555 1_555
H5 N1 1_555 1_555
H6 O10 1_555 1_555
H7 O10 1_555 1_555
H8 O11 1_555 1_555
H9 O11 1_555 1_555
C7A C7 1_555 1_555
O4A C7A 1_555 1_555
O5A Eu1 1_555 1_555
C8A C8 1_555 1_555
O6A C8A 1_555 1_555
O7A Eu1 1_555 1_555
C9A C9 1_555 1_555
O8A C9A 1_555 1_555
O9A Eu1 1_555 1_555
C1A C2A 1_555 1_555
C2A C3A 1_555 1_555
C3A H1A 1_555 1_555
C4A C3A 1_555 1_555
C5A C4A 1_555 1_555
H2A C5A 1_555 1_555
C6A C2A 1_555 1_555
H3A C6A 1_555 1_555
Eu1A O9 1_555 1_555
N1A C5A 1_555 1_555
O1A C1A 1_555 1_555
O2A C1A 1_555 1_555
O3A C4A 1_555 1_555
H4A O3A 1_555 1_555
O10A Eu1A 1_555 1_555
O11A Eu1A 1_555 1_555
H5A N1A 1_555 1_555
H6A O10A 1_555 1_555
H7A O10A 1_555 1_555
H8A O11A 1_555 1_555
H9A O11A 1_555 1_555
Eu1A_2 O5 1_555 1_555
Eu1A_3 O7 1_555 1_555
O4A_2 Eu1A 1_555 1_555
O5_2 Eu1A 1_555 1_555
O6A_2 Eu1A 1_555 1_555
O7_2 Eu1A 1_555 1_555
C6 N1 1_555 1_555
C7A O5A 1_555 1_555
O4A Eu1A_2 1_555 1_555
C8A O7A 1_555 1_555
O6A Eu1A_3 1_555 1_555
C9A O9A 1_555 1_555
O8A Eu1A 1_555 1_555
C6A N1A 1_555 1_555
Eu1A O1A 1_555 1_555

#END
