
#######################################################################
#
#                 Cambridge Crystallographic Data Centre
#                                CCDC 
#
#######################################################################
#
# If this CIF has been generated from an entry in the Cambridge 
# Structural Database, then it will include bibliographic, chemical, 
# crystal, experimental, refinement or atomic coordinate data resulting 
# from the CCDC's data processing and validation procedures.
#
#######################################################################

data_IDIVIB
_symmetry_cell_setting           tetragonal
_symmetry_space_group_name_H-M   'I -4'
_symmetry_Int_Tables_number      82
_space_group_name_Hall           'I -4'
loop_
_symmetry_equiv_pos_site_id
_symmetry_equiv_pos_as_xyz
1 x,y,z
2 -x,-y,z
3 y,-x,-z
4 -y,x,-z
5 1/2+x,1/2+y,1/2+z
6 1/2-x,1/2-y,1/2+z
7 1/2+y,1/2-x,1/2-z
8 1/2-y,1/2+x,1/2-z
_cell_length_a                   20.559(6)
_cell_length_b                   20.559(6)
_cell_length_c                   10.053(7)
_cell_angle_alpha                90
_cell_angle_beta                 90
_cell_angle_gamma                90
_cell_volume                     4249.13
loop_
_atom_site_label
_atom_site_type_symbol
_atom_site_fract_x
_atom_site_fract_y
_atom_site_fract_z
Sn1 Sn 0.729934(11) 0.780975(11) 0.408215(19)
O1 O 0.67822(11) 0.83328(11) 0.56837(19)
O2 O 0.72512(12) 0.77096(11) 0.72034(19)
C1 C 0.6802(2) 0.69231(18) 0.4496(4)
H1 H 0.7088 0.6555 0.4249
H2 H 0.6722 0.6896 0.5466
C2 C 0.61525(19) 0.6849(2) 0.3767(4)
H3 H 0.5877 0.7233 0.3960
H4 H 0.6235 0.6841 0.2797
C3 C 0.5791(2) 0.6247(2) 0.4151(5)
H5 H 0.5717 0.6253 0.5124
H6 H 0.6064 0.5864 0.3943
C4 C 0.5143(2) 0.6173(3) 0.3456(5)
H7 H 0.4949 0.5754 0.3697
H8 H 0.5208 0.6192 0.2491
H9 H 0.4852 0.6527 0.3730
C5 C 0.6876(2) 0.84172(19) 0.2577(3)
H10 H 0.7218 0.8516 0.1914
H11 H 0.6536 0.8160 0.2116
C6 C 0.6577(2) 0.90486(19) 0.3001(4)
H12 H 0.6251 0.8959 0.3703
H13 H 0.6343 0.9238 0.2232
C7 C 0.7055(2) 0.9547(2) 0.3521(4)
H14 H 0.7301 0.9363 0.4279
H15 H 0.7369 0.9664 0.2813
C8 C 0.6690(3) 1.0146(3) 0.3962(7)
H16 H 0.6996 1.0459 0.4348
H17 H 0.6365 1.0024 0.4630
H18 H 0.6472 1.0343 0.3194
C9 C 0.82564(16) 0.80398(18) 0.4795(3)
H19 H 0.8211 0.8323 0.5586
H20 H 0.8466 0.7631 0.5090
C10 C 0.87062(17) 0.8372(2) 0.3824(4)
H21 H 0.8515 0.8796 0.3567
H22 H 0.8740 0.8103 0.3010
C11 C 0.93879(19) 0.8486(2) 0.4379(5)
H23 H 0.9350 0.8728 0.5226
H24 H 0.9587 0.8059 0.4583
C12 C 0.9833(3) 0.8851(3) 0.3474(6)
H25 H 1.0264 0.8887 0.3887
H26 H 0.9657 0.9287 0.3316
H27 H 0.9871 0.8619 0.2626
C13 C 0.68787(16) 0.81645(16) 0.6891(3)
C14 C 0.65064(18) 0.85365(16) 0.7943(3)
H28 H 0.6725 0.8478 0.8813
H29 H 0.6063 0.8353 0.8016
C15 C 0.6458(2) 0.92648(18) 0.7637(4)
H30 H 0.6229 0.9334 0.6770
C16 C 0.6115(3) 0.9642(3) 0.8745(5)
H31 H 0.5786 0.9941 0.8364
H32 H 0.5893 0.9338 0.9360
C17 C 0.6608(4) 1.0005(3) 0.9441(5)
H33 H 0.6471 1.0465 0.9517
H34 H 0.6659 0.9828 1.0351
C18 C 0.7220(3) 0.9969(3) 0.8750(6)
H35 H 0.7617 1.0166 0.9019
C19 C 0.7123(2) 0.9594(2) 0.7615(5)
H36 H 0.7432 0.9549 0.6917
Sn1E Sn 0.770066(11) 0.719025(11) 0.908215(19)
O2E O 0.77488(12) 0.72904(11) 0.22034(19)
loop_
_geom_bond_atom_site_label_1
_geom_bond_atom_site_label_2
_geom_bond_site_symmetry_1
_geom_bond_site_symmetry_2
Sn1 O1 1_555 1_555
O1 C13 1_555 1_555
O2 C13 1_555 1_555
C1 Sn1 1_555 1_555
H1 C1 1_555 1_555
H2 C1 1_555 1_555
C2 C1 1_555 1_555
H3 C2 1_555 1_555
H4 C2 1_555 1_555
C3 C2 1_555 1_555
H5 C3 1_555 1_555
H6 C3 1_555 1_555
C4 C3 1_555 1_555
H7 C4 1_555 1_555
H8 C4 1_555 1_555
H9 C4 1_555 1_555
C5 Sn1 1_555 1_555
H10 C5 1_555 1_555
H11 C5 1_555 1_555
C6 C5 1_555 1_555
H12 C6 1_555 1_555
H13 C6 1_555 1_555
C7 C6 1_555 1_555
H14 C7 1_555 1_555
H15 C7 1_555 1_555
C8 C7 1_555 1_555
H16 C8 1_555 1_555
H17 C8 1_555 1_555
H18 C8 1_555 1_555
C9 Sn1 1_555 1_555
H19 C9 1_555 1_555
H20 C9 1_555 1_555
C10 C9 1_555 1_555
H21 C10 1_555 1_555
H22 C10 1_555 1_555
C11 C10 1_555 1_555
H23 C11 1_555 1_555
H24 C11 1_555 1_555
C12 C11 1_555 1_555
H25 C12 1_555 1_555
H26 C12 1_555 1_555
H27 C12 1_555 1_555
C13 C14 1_555 1_555
C14 H28 1_555 1_555
H29 C14 1_555 1_555
C15 C14 1_555 1_555
H30 C15 1_555 1_555
C16 C15 1_555 1_555
H31 C16 1_555 1_555
H32 C16 1_555 1_555
C17 C16 1_555 1_555
H33 C17 1_555 1_555
H34 C17 1_555 1_555
C18 C17 1_555 1_555
H35 C18 1_555 1_555
C19 C15 1_555 1_555
H36 C19 1_555 1_555
Sn1E O2 1_555 1_555
O2E Sn1 1_555 1_555
C18 C19 1_555 1_555

#END
