
#######################################################################
#
#                 Cambridge Crystallographic Data Centre
#                                CCDC 
#
#######################################################################
#
# If this CIF has been generated from an entry in the Cambridge 
# Structural Database, then it will include bibliographic, chemical, 
# crystal, experimental, refinement or atomic coordinate data resulting 
# from the CCDC's data processing and validation procedures.
#
#######################################################################

data_IDIXOJ
_symmetry_cell_setting           monoclinic
_symmetry_space_group_name_H-M   'C 2/c'
_symmetry_Int_Tables_number      15
_space_group_name_Hall           '-C 2yn'
loop_
_symmetry_equiv_pos_site_id
_symmetry_equiv_pos_as_xyz
1 x,y,z
2 1/2+x,1/2+y,z
3 -x,y,1/2-z
4 1/2-x,1/2+y,1/2-z
5 -x,-y,-z
6 1/2-x,1/2-y,-z
7 x,-y,1/2+z
8 1/2+x,1/2-y,1/2+z
_cell_length_a                   16.246(2)
_cell_length_b                   9.0760(10)
_cell_length_c                   14.198(2)
_cell_angle_alpha                90
_cell_angle_beta                 119.543(2)
_cell_angle_gamma                90
_cell_volume                     1821.3
loop_
_atom_site_label
_atom_site_type_symbol
_atom_site_fract_x
_atom_site_fract_y
_atom_site_fract_z
Mn1 Mn 0.5000 0.5000 0.5000
O1 O 0.60060(10) 0.57370(10) 0.66740(10)
O2 O 0.66770(10) 0.77320(10) 0.64360(10)
O3 O 0.42000(10) 0.3614(2) 0.55270(10)
N1 N 0.57670(10) 0.7108(2) 1.00980(10)
N2 N 0.63310(10) 0.9385(2) 1.05780(10)
C1 C 0.63780(10) 0.6999(2) 0.69650(10)
C2 C 0.64460(10) 0.7672(2) 0.79660(10)
C3 C 0.60840(10) 0.6918(2) 0.85290(10)
C4 C 0.60990(10) 0.7599(2) 0.94120(10)
C5 C 0.64590(10) 0.9028(2) 0.97100(10)
C6 C 0.68370(10) 0.9795(2) 0.9167(2)
C7 C 0.68320(10) 0.9096(2) 0.83000(10)
C8 C 0.59200(10) 0.8219(2) 1.07600(10)
H1 H 0.3910(10) 0.303(2) 0.5010(10)
H2 H 0.400(2) 0.357(3) 0.597(2)
H5 H 0.6420(10) 1.0220(10) 1.0882(15)
H6 H 0.5837 0.5974 0.8321
H7 H 0.7083 1.0739 0.9378
H8 H 0.7089 0.9576 0.7926
H9 H 0.5757 0.8198 1.1303
Mn1F Mn 0.5000 0.5000 1.0000
Mn1F_2 Mn 0.5000 0.5000 0.0000
O1D O 0.39940(10) 0.42630(10) 0.33260(10)
O2D O 0.33230(10) 0.22680(10) 0.35640(10)
O3D O 0.58000(10) 0.6386(2) 0.44730(10)
N1D N 0.42330(10) 0.2892(2) -0.00980(10)
N1F N 0.57670(10) 0.2892(2) 0.50980(10)
N1B N 0.42330(10) 0.7108(2) 0.49020(10)
N2D N 0.36690(10) 0.0615(2) -0.05780(10)
C1D C 0.36220(10) 0.3001(2) 0.30350(10)
C2D C 0.35540(10) 0.2328(2) 0.20340(10)
C3D C 0.39160(10) 0.3082(2) 0.14710(10)
C4D C 0.39010(10) 0.2401(2) 0.05880(10)
C5D C 0.35410(10) 0.0972(2) 0.02900(10)
C6D C 0.31630(10) 0.0205(2) 0.0833(2)
C7D C 0.31680(10) 0.0904(2) 0.17000(10)
C8D C 0.40800(10) 0.1781(2) -0.07600(10)
H1D H 0.6090(10) 0.697(2) 0.4990(10)
H2D H 0.600(2) 0.643(3) 0.403(2)
H5D H 0.3580(10) -0.0220(10) -0.0882(15)
H6D H 0.4163 0.4026 0.1679
H7D H 0.2917 -0.0739 0.0622
H8D H 0.2911 0.0424 0.2074
H9D H 0.4243 0.1802 -0.1303
O4 O 0.35450(10) 0.3351(2) 0.69410(10)
H3 H 0.3660(10) 0.411(2) 0.734(2)
H4 H 0.3010(10) 0.300(3) 0.680(2)
loop_
_geom_bond_atom_site_label_1
_geom_bond_atom_site_label_2
_geom_bond_site_symmetry_1
_geom_bond_site_symmetry_2
Mn1 O1 1_555 1_555
O1 C1 1_555 1_555
O2 C1 1_555 1_555
O3 Mn1 1_555 1_555
O4 H3 1_555 1_555
N1 C4 1_555 1_555
N2 C5 1_555 1_555
C1 C2 1_555 1_555
C2 C3 1_555 1_555
C3 C4 1_555 1_555
C4 C5 1_555 1_555
C5 C6 1_555 1_555
C6 C7 1_555 1_555
C7 C2 1_555 1_555
C8 N1 1_555 1_555
H1 O3 1_555 1_555
H2 O3 1_555 1_555
H4 O4 1_555 1_555
H5 N2 1_555 1_555
H6 C3 1_555 1_555
H7 C6 1_555 1_555
H8 C7 1_555 1_555
H9 C8 1_555 1_555
Mn1F N1 1_555 1_555
Mn1F_2 N1D 1_555 1_555
O1D Mn1 1_555 1_555
O2D C1D 1_555 1_555
O3D Mn1 1_555 1_555
N1D C4D 1_555 1_555
N1F Mn1 1_555 1_555
N1B Mn1 1_555 1_555
N2D C5D 1_555 1_555
C1D O1D 1_555 1_555
C2D C1D 1_555 1_555
C3D C2D 1_555 1_555
C4D C3D 1_555 1_555
C5D C4D 1_555 1_555
C6D C5D 1_555 1_555
C7D C2D 1_555 1_555
C8D N1D 1_555 1_555
H1D O3D 1_555 1_555
H2D O3D 1_555 1_555
H5D N2D 1_555 1_555
H6D C3D 1_555 1_555
H7D C6D 1_555 1_555
H8D C7D 1_555 1_555
H9D C8D 1_555 1_555
N2 C8 1_555 1_555
N2D C8D 1_555 1_555
C6D C7D 1_555 1_555

#END
