
#######################################################################
#
#                 Cambridge Crystallographic Data Centre
#                                CCDC 
#
#######################################################################
#
# If this CIF has been generated from an entry in the Cambridge 
# Structural Database, then it will include bibliographic, chemical, 
# crystal, experimental, refinement or atomic coordinate data resulting 
# from the CCDC's data processing and validation procedures.
#
#######################################################################

data_IDORID
_symmetry_cell_setting           monoclinic
_symmetry_space_group_name_H-M   'P 21/n'
_symmetry_Int_Tables_number      14
_space_group_name_Hall           '-P 2yn'
loop_
_symmetry_equiv_pos_site_id
_symmetry_equiv_pos_as_xyz
1 x,y,z
2 1/2-x,1/2+y,1/2-z
3 -x,-y,-z
4 1/2+x,1/2-y,1/2+z
_cell_length_a                   9.2994(17)
_cell_length_b                   9.9531(18)
_cell_length_c                   9.9585(19)
_cell_angle_alpha                90
_cell_angle_beta                 105.839(4)
_cell_angle_gamma                90
_cell_volume                     886.741
loop_
_atom_site_label
_atom_site_type_symbol
_atom_site_fract_x
_atom_site_fract_y
_atom_site_fract_z
Mn1 Mn 1.0000 0.5000 0.5000
N1 N 0.81218(13) 0.54422(14) 0.59727(13)
N2 N 0.64326(16) 0.50423(11) 0.71311(15)
H1 H 0.5998 0.4652 0.7711
N3 N 0.91192(14) 0.07864(14) 0.36223(14)
N4 N 0.95364(15) 0.28033(13) 0.51092(14)
N5 N 0.66902(16) 0.01083(13) 0.20592(15)
C1 C 0.69895(15) 0.64079(14) 0.55924(15)
C2 C 0.67984(17) 0.74743(15) 0.46546(15)
H2 H 0.7525 0.7670 0.4172
C3 C 0.55121(17) 0.82387(16) 0.44509(17)
H3 H 0.5353 0.8968 0.3811
C4 C 0.44387(17) 0.79620(16) 0.51668(17)
H4 H 0.3568 0.8505 0.4997
C5 C 0.46182(17) 0.69195(16) 0.61107(17)
H5 H 0.3895 0.6732 0.6599
C6 C 0.59133(16) 0.61567(15) 0.63111(15)
C7 C 0.77247(17) 0.46644(17) 0.68788(16)
H6 H 0.8293 0.3911 0.7312
C8 C 0.92754(15) 0.18671(15) 0.43952(15)
C9 C 0.77968(17) 0.04790(15) 0.28115(15)
Mn1C Mn 0.5000 0.0000 0.0000
Mn1C_2 Mn 1.5000 1.0000 1.0000
N1B N 1.18782(13) 0.45578(14) 0.40273(13)
N2B N 1.35674(16) 0.49577(11) 0.28689(15)
H1B H 1.4002 0.5348 0.2289
N3B N 1.08808(14) 0.92136(14) 0.63777(14)
N4B N 1.04636(15) 0.71967(13) 0.48908(14)
N5B N 1.33098(16) 0.98917(13) 0.79408(15)
N5C N 1.16902(16) 0.48917(13) 0.70592(15)
N5A N 0.83098(16) 0.51083(13) 0.29408(15)
C1B C 1.30105(15) 0.35921(14) 0.44076(15)
C2B C 1.32016(17) 0.25257(15) 0.53454(15)
H2B H 1.2475 0.2330 0.5828
C3B C 1.44879(17) 0.17613(16) 0.55491(17)
H3B H 1.4647 0.1032 0.6189
C4B C 1.55613(17) 0.20380(16) 0.48332(17)
H4B H 1.6432 0.1495 0.5003
C5B C 1.53818(17) 0.30805(16) 0.38893(17)
H5B H 1.6105 0.3268 0.3401
C6B C 1.40867(16) 0.38433(15) 0.36889(15)
C7B C 1.22753(17) 0.53356(17) 0.31212(16)
H6B H 1.1707 0.6089 0.2688
C8B C 1.07246(15) 0.81329(15) 0.56048(15)
C9B C 1.22032(17) 0.95210(15) 0.71885(15)
loop_
_geom_bond_atom_site_label_1
_geom_bond_atom_site_label_2
_geom_bond_site_symmetry_1
_geom_bond_site_symmetry_2
Mn1 N1 1_555 1_555
N1 C1 1_555 1_555
N2 H1 1_555 1_555
N3 C8 1_555 1_555
N4 Mn1 1_555 1_555
N5 C9 1_555 1_555
C1 C2 1_555 1_555
C2 H2 1_555 1_555
C3 C2 1_555 1_555
H3 C3 1_555 1_555
C4 C3 1_555 1_555
H4 C4 1_555 1_555
C5 C4 1_555 1_555
H5 C5 1_555 1_555
C6 N2 1_555 1_555
C7 N1 1_555 1_555
H6 C7 1_555 1_555
C8 N4 1_555 1_555
C9 N3 1_555 1_555
Mn1C N5 1_555 1_555
Mn1C_2 N5B 1_555 1_555
N1B Mn1 1_555 1_555
N2B H1B 1_555 1_555
N3B C8B 1_555 1_555
N4B Mn1 1_555 1_555
N5B C9B 1_555 1_555
N5C Mn1 1_555 1_555
N5A Mn1 1_555 1_555
C1B N1B 1_555 1_555
C2B C1B 1_555 1_555
H2B C2B 1_555 1_555
C3B C2B 1_555 1_555
H3B C3B 1_555 1_555
C4B C3B 1_555 1_555
H4B C4B 1_555 1_555
C5B C4B 1_555 1_555
H5B C5B 1_555 1_555
C6B N2B 1_555 1_555
C7B N1B 1_555 1_555
H6B C7B 1_555 1_555
C8B N4B 1_555 1_555
C9B N3B 1_555 1_555
N2 C7 1_555 1_555
C1 C6 1_555 1_555
C5 C6 1_555 1_555
N2B C7B 1_555 1_555
C1B C6B 1_555 1_555
C5B C6B 1_555 1_555

#END
