
#######################################################################
#
#                 Cambridge Crystallographic Data Centre
#                                CCDC 
#
#######################################################################
#
# If this CIF has been generated from an entry in the Cambridge 
# Structural Database, then it will include bibliographic, chemical, 
# crystal, experimental, refinement or atomic coordinate data resulting 
# from the CCDC's data processing and validation procedures.
#
#######################################################################

data_IDORAW
_symmetry_cell_setting           tetragonal
_symmetry_space_group_name_H-M   'P 41 21 2'
_symmetry_Int_Tables_number      92
_space_group_name_Hall           'P 4abw 2nw'
loop_
_symmetry_equiv_pos_site_id
_symmetry_equiv_pos_as_xyz
1 x,y,z
2 -x,-y,1/2+z
3 1/2-y,1/2+x,1/4+z
4 1/2+y,1/2-x,3/4+z
5 1/2-x,1/2+y,1/4-z
6 1/2+x,1/2-y,3/4-z
7 y,x,-z
8 -y,-x,1/2-z
_cell_length_a                   20.467(3)
_cell_length_b                   20.467(3)
_cell_length_c                   34.344(7)
_cell_angle_alpha                90
_cell_angle_beta                 90
_cell_angle_gamma                90
_cell_volume                     14386.6
loop_
_atom_site_label
_atom_site_type_symbol
_atom_site_fract_x
_atom_site_fract_y
_atom_site_fract_z
Mn1 Mn 0.31852(4) 0.13038(4) 0.19785(2)
Mn2 Mn 0.11302(4) 0.31028(4) 0.21380(2)
Cu1 Cu 0.31323(4) -0.02893(3) -0.079706(19)
Cu2 Cu 0.45192(3) 0.17063(4) 0.063902(19)
C1 C 0.3448(3) 0.0513(3) 0.03046(14)
H1 H 0.3882 0.0381 0.0316
C2 C 0.3014(3) 0.0219(3) 0.00379(14)
C3 C 0.2372(3) 0.0435(3) 0.00110(15)
H2 H 0.2096 0.0258 -0.0176
C4 C 0.2144(3) 0.0911(3) 0.02598(16)
H3 H 0.1711 0.1044 0.0244
C5 C 0.2556(3) 0.1196(3) 0.05362(15)
H4 H 0.2395 0.1508 0.0708
C6 C 0.3219(3) 0.1005(2) 0.05521(15)
C7 C 0.3560(3) -0.0764(2) -0.00948(15)
C8 C 0.3731(3) -0.1281(3) -0.03915(15)
C9 C 0.3582(3) 0.1363(2) 0.11685(15)
C10 C 0.4164(3) 0.1630(3) 0.13996(15)
C11 C 0.3880(2) 0.1185(3) -0.04589(14)
H5 H 0.4183 0.0848 -0.0478
C12 C 0.3320(2) 0.1186(2) -0.06992(14)
C13 C 0.2886(2) 0.1697(3) -0.06623(15)
H6 H 0.2513 0.1700 -0.0818
C14 C 0.2983(3) 0.2200(3) -0.04046(16)
H7 H 0.2684 0.2542 -0.0391
C15 C 0.3541(3) 0.2195(3) -0.01599(16)
H8 H 0.3610 0.2527 0.0020
C16 C 0.3976(2) 0.1688(3) -0.01955(13)
C17 C 0.3154(2) 0.0735(3) -0.13283(14)
C18 C 0.3068(3) 0.0095(3) -0.15543(15)
C19 C 0.5116(2) 0.1663(3) -0.00853(15)
C20 C 0.5662(3) 0.1647(3) 0.02265(16)
C21 C 0.1893(3) 0.1898(3) 0.21311(15)
C22 C 0.2402(3) 0.2475(2) 0.21238(16)
N1 N 0.3240(2) -0.0268(2) -0.02251(13)
N2 N 0.3674(2) 0.1319(2) 0.07976(13)
N3 N 0.3212(2) 0.0645(2) -0.09486(11)
N4 N 0.4524(2) 0.1670(2) 0.00616(12)
O1 O 0.62277(18) 0.1616(2) 0.01049(11)
O2 O 0.52798(17) 0.1695(2) -0.04307(11)
O3 O 0.4433(2) 0.2828(2) 0.06278(14)
O4 O 0.5494(2) 0.1677(3) 0.05775(11)
O5 O 0.2123(2) 0.13348(18) 0.20900(13)
O6 O 0.2985(2) 0.23326(19) 0.20693(13)
O7 O 0.2193(2) 0.30298(19) 0.22000(13)
O8 O 0.1308(2) 0.20500(19) 0.21551(12)
O9 O 0.4653(2) 0.1815(2) 0.12044(11)
O10 O 0.3984(2) -0.18021(19) -0.02764(11)
O11 O 0.3719(2) -0.08821(18) 0.02624(10)
O12 O 0.31761(19) 0.12606(18) -0.15126(10)
O13 O 0.3016(2) 0.0138(2) -0.19145(10)
O14 O 0.3055(2) -0.0431(2) -0.13629(12)
O15 O 0.2104(2) -0.0643(2) -0.07580(14)
O16 O 0.3570(2) -0.1180(2) -0.07433(11)
O17 O 0.4134(2) 0.1638(2) 0.17614(11)
O18 O 0.30757(19) 0.11697(18) 0.13624(10)
Mn1C Mn 0.63038(4) 0.18148(4) -0.05215(2)
Mn2D Mn 0.38698(4) -0.18972(4) 0.03620(2)
Mn2F Mn 0.31028(4) 0.11302(4) -0.21380(2)
O1B O 0.3384(2) 0.12277(18) 0.26049(11)
O2B O 0.3305(2) 0.02798(17) 0.20693(11)
O10D O 0.1016(2) 0.31979(19) 0.27764(11)
O11D O 0.1281(2) 0.41179(18) 0.22376(10)
O12F O 0.12606(18) 0.31761(19) 0.15126(10)
O13F O 0.0138(2) 0.3016(2) 0.19145(10)
C23 C 1.0086(3) 0.1183(3) 0.88133(19)
C24 C 1.0646(3) 0.1435(3) 0.86480(17)
H9 H 1.0616 0.1755 0.8457
C25 C 1.1264(3) 0.1208(4) 0.87674(17)
H10 H 1.1640 0.1384 0.8658
C26 C 1.1312(4) 0.0723(4) 0.9048(2)
H11 H 1.1718 0.0563 0.9123
C27 C 1.0766(4) 0.0488(4) 0.9211(3)
H12 H 1.0802 0.0166 0.9400
C28 C 1.0165(4) 0.0699(3) 0.9110(2)
H13 H 0.9799 0.0528 0.9234
C29 C 0.9335(5) 0.1389(6) 0.8249(2)
H14 H 0.8895 0.1506 0.8182
H15 H 0.9436 0.0969 0.8140
H16 H 0.9631 0.1709 0.8146
N5 N 0.9183(2) 0.2020(2) 0.88587(14)
C30 C 0.9324(4) 0.2036(5) 0.92863(19)
H17 H 0.9135 0.1659 0.9408
H18 H 0.9138 0.2424 0.9398
H19 H 0.9788 0.2036 0.9327
C31 C 0.9464(4) 0.2589(3) 0.8666(3)
H20 H 0.9932 0.2572 0.8685
H21 H 0.9308 0.2979 0.8791
H22 H 0.9337 0.2592 0.8397
C32 C 0.8462(3) 0.2086(4) 0.8817(2)
H23 H 0.8250 0.1721 0.8939
H24 H 0.8349 0.2097 0.8546
H25 H 0.8320 0.2484 0.8939
C33 C 0.9403(3) 0.1363(3) 0.86807(19)
H26 H 0.9105 0.1024 0.8777
O19 O 0.1768(3) 0.8483(2) 0.98031(16)
O20 O 0.7337(4) 0.1460(7) 0.0569(2)
O21 O 0.5412(5) 0.3331(4) 0.0125(4)
C34 C 0.5022(5) -0.0581(6) 0.8273(3)
C35 C 0.5355(7) -0.0721(5) 0.8617(3)
H27 H 0.5580 -0.1115 0.8636
C36 C 0.5364(8) -0.0301(10) 0.8934(4)
H28 H 0.5548 -0.0418 0.9171
C37 C 0.5057(4) 0.0356(5) 0.8867(3)
H29 H 0.5095 0.0695 0.9046
C38 C 0.4727(4) 0.0420(5) 0.8537(3)
H30 H 0.4507 0.0812 0.8499
C39 C 0.4680(5) -0.0013(4) 0.8261(3)
H31 H 0.4406 0.0069 0.8051
C40 C 0.5014(6) -0.0794(6) 0.7577(4)
H32 H 0.5355 -0.0474 0.7556
H33 H 0.4597 -0.0582 0.7555
H34 H 0.5059 -0.1111 0.7373
N6 N 0.4519(6) -0.1627(6) 0.7989(4)
C41 C 0.3762(8) -0.1406(10) 0.8033(6)
H35 H 0.3740 -0.0999 0.8170
H36 H 0.3526 -0.1734 0.8174
H37 H 0.3572 -0.1355 0.7779
C42 C 0.451(3) -0.1757(15) 0.8454(8)
H38 H 0.4507 -0.1346 0.8589
H39 H 0.4899 -0.1996 0.8526
H40 H 0.4133 -0.2005 0.8522
C43 C 0.4528(9) -0.2245(10) 0.7770(8)
H41 H 0.4137 -0.2488 0.7825
H42 H 0.4902 -0.2498 0.7847
H43 H 0.4552 -0.2154 0.7496
C44 C 0.5060(6) -0.1129(6) 0.7965(3)
H44 H 0.5483 -0.1350 0.7985
loop_
_geom_bond_atom_site_label_1
_geom_bond_atom_site_label_2
_geom_bond_site_symmetry_1
_geom_bond_site_symmetry_2
Mn1 O5 1_555 1_555
Mn2 O7 1_555 1_555
Cu1 N1 1_555 1_555
Cu2 N2 1_555 1_555
C1 H1 1_555 1_555
C2 C1 1_555 1_555
C3 C2 1_555 1_555
H2 C3 1_555 1_555
C4 C3 1_555 1_555
H3 C4 1_555 1_555
C5 C4 1_555 1_555
H4 C5 1_555 1_555
C6 C1 1_555 1_555
C7 C8 1_555 1_555
C8 O10 1_555 1_555
C9 C10 1_555 1_555
C10 O9 1_555 1_555
C11 H5 1_555 1_555
C12 C11 1_555 1_555
C13 C12 1_555 1_555
H6 C13 1_555 1_555
C14 C13 1_555 1_555
H7 C14 1_555 1_555
C15 C14 1_555 1_555
H8 C15 1_555 1_555
C16 C11 1_555 1_555
C17 C18 1_555 1_555
C18 O13 1_555 1_555
C19 C20 1_555 1_555
C20 O1 1_555 1_555
C21 C22 1_555 1_555
C22 O6 1_555 1_555
N1 C2 1_555 1_555
N2 C6 1_555 1_555
N3 Cu1 1_555 1_555
N4 Cu2 1_555 1_555
O1 Mn1C 1_555 1_555
O2 C19 1_555 1_555
O3 Cu2 1_555 1_555
O4 Cu2 1_555 1_555
O5 C21 1_555 1_555
O6 Mn1 1_555 1_555
O7 C22 1_555 1_555
O8 Mn2 1_555 1_555
O9 Cu2 1_555 1_555
O10 Mn2D 1_555 1_555
O11 C7 1_555 1_555
O12 C17 1_555 1_555
O13 Mn2F 1_555 1_555
O14 Cu1 1_555 1_555
O15 Cu1 1_555 1_555
O16 Cu1 1_555 1_555
O17 Mn1 1_555 1_555
O18 Mn1 1_555 1_555
C23 C24 1_555 1_555
C24 H9 1_555 1_555
C25 C24 1_555 1_555
H10 C25 1_555 1_555
C26 C25 1_555 1_555
H11 C26 1_555 1_555
C27 C26 1_555 1_555
H12 C27 1_555 1_555
C28 C23 1_555 1_555
H13 C28 1_555 1_555
C29 H14 1_555 1_555
H15 C29 1_555 1_555
H16 C29 1_555 1_555
N5 C30 1_555 1_555
C30 H17 1_555 1_555
H18 C30 1_555 1_555
H19 C30 1_555 1_555
C31 N5 1_555 1_555
H20 C31 1_555 1_555
H21 C31 1_555 1_555
H22 C31 1_555 1_555
C32 N5 1_555 1_555
H23 C32 1_555 1_555
H24 C32 1_555 1_555
H25 C32 1_555 1_555
C33 C23 1_555 1_555
H26 C33 1_555 1_555
C34 C35 1_555 1_555
C35 H27 1_555 1_555
C36 C35 1_555 1_555
H28 C36 1_555 1_555
C37 C36 1_555 1_555
H29 C37 1_555 1_555
C38 C37 1_555 1_555
H30 C38 1_555 1_555
C39 C34 1_555 1_555
H31 C39 1_555 1_555
C40 H32 1_555 1_555
H33 C40 1_555 1_555
H34 C40 1_555 1_555
N6 C41 1_555 1_555
C41 H35 1_555 1_555
H36 C41 1_555 1_555
H37 C41 1_555 1_555
C42 N6 1_555 1_555
H38 C42 1_555 1_555
H39 C42 1_555 1_555
H40 C42 1_555 1_555
C43 N6 1_555 1_555
H41 C43 1_555 1_555
H42 C43 1_555 1_555
H43 C43 1_555 1_555
C44 C34 1_555 1_555
H44 C44 1_555 1_555
Mn1C O2 1_555 1_555
Mn2D O11 1_555 1_555
Mn2F O12 1_555 1_555
O1B Mn1 1_555 1_555
O2B Mn1 1_555 1_555
O10D Mn2 1_555 1_555
O11D Mn2 1_555 1_555
O12F Mn2 1_555 1_555
O13F Mn2 1_555 1_555
C5 C6 1_555 1_555
C7 N1 1_555 1_555
C8 O16 1_555 1_555
C9 N2 1_555 1_555
C9 O18 1_555 1_555
C10 O17 1_555 1_555
C12 N3 1_555 1_555
C15 C16 1_555 1_555
C16 N4 1_555 1_555
C17 N3 1_555 1_555
C18 O14 1_555 1_555
C19 N4 1_555 1_555
C20 O4 1_555 1_555
C21 O8 1_555 1_555
C27 C28 1_555 1_555
C29 C33 1_555 1_555
N5 C33 1_555 1_555
C38 C39 1_555 1_555
C40 C44 1_555 1_555
N6 C44 1_555 1_555

#END
