
#######################################################################
#
#                 Cambridge Crystallographic Data Centre
#                                CCDC 
#
#######################################################################
#
# If this CIF has been generated from an entry in the Cambridge 
# Structural Database, then it will include bibliographic, chemical, 
# crystal, experimental, refinement or atomic coordinate data resulting 
# from the CCDC's data processing and validation procedures.
#
#######################################################################

data_IDOSEA
_symmetry_cell_setting           triclinic
_symmetry_space_group_name_H-M   'P -1'
_symmetry_Int_Tables_number      2
_space_group_name_Hall           '-P 1'
loop_
_symmetry_equiv_pos_site_id
_symmetry_equiv_pos_as_xyz
1 x,y,z
2 -x,-y,-z
_cell_length_a                   7.1336(6)
_cell_length_b                   10.7203(8)
_cell_length_c                   20.9384(17)
_cell_angle_alpha                100.676(2)
_cell_angle_beta                 96.322(2)
_cell_angle_gamma                107.096(2)
_cell_volume                     1480.74
loop_
_atom_site_label
_atom_site_type_symbol
_atom_site_fract_x
_atom_site_fract_y
_atom_site_fract_z
Sr1 Sr 0.37047(4) 0.78079(3) 0.464363(15)
Sr2 Sr 0.76100(5) 0.60979(3) 0.364673(15)
O1 O 0.9026(4) 0.4145(2) 0.38735(12)
H1 H 0.925(6) 0.385(4) 0.3504(12)
H2 H 0.825(5) 0.344(2) 0.3907(19)
O2 O 0.4592(4) 0.4184(2) 0.38307(12)
H3 H 0.489(6) 0.355(3) 0.3917(18)
H4 H 0.391(5) 0.387(3) 0.3452(11)
O3 O 0.2609(4) 0.5330(3) 0.47479(13)
H5 H 0.149(3) 0.500(4) 0.4534(17)
H6 H 0.327(5) 0.502(4) 0.4525(17)
O4 O 0.6638(4) 0.4513(3) 0.24953(13)
H7 H 0.549(3) 0.401(3) 0.237(2)
H8 H 0.739(5) 0.409(4) 0.243(2)
O5 O 0.7035(3) 0.7471(2) 0.47641(12)
O6 O 1.0237(3) 0.7731(2) 0.47988(12)
O7 O 1.1506(4) 1.1838(2) 0.68818(12)
O8 O 0.9678(4) 0.9913(2) 0.71089(12)
C1 C 0.8803(5) 0.7869(3) 0.50755(17)
C2 C 0.9135(5) 0.8580(3) 0.57931(17)
H9 H 0.8442 0.8137 0.6080
C3 C 1.0387(5) 0.9820(3) 0.60273(17)
H10 H 1.1189 1.0209 0.5749
C4 C 1.0590(5) 1.0631(4) 0.67101(17)
C5 C 0.9823(6) 1.0658(4) 0.77825(18)
H11 H 0.9209 1.0050 0.8040
H12 H 0.9154 1.1314 0.7773
H13 H 1.1199 1.1101 0.7977
O9 O 0.4119(3) 0.7955(2) 0.59156(11)
O10 O 0.5072(4) 1.0017(2) 0.57288(12)
O11 O 0.4712(4) 1.0895(3) 0.82092(13)
O12 O 0.4931(4) 0.8917(3) 0.83906(12)
C6 C 0.4659(5) 0.9235(3) 0.61189(17)
C7 C 0.4766(5) 0.9847(3) 0.68341(16)
H14 H 0.4936 1.0757 0.6961
C8 C 0.4626(5) 0.9124(4) 0.72943(17)
H15 H 0.4445 0.8212 0.7172
C9 C 0.4756(5) 0.9765(4) 0.80037(17)
C10 C 0.5151(6) 0.9464(4) 0.90965(18)
H16 H 0.5269 0.8798 0.9334
H17 H 0.4005 0.9717 0.9184
H18 H 0.6325 1.0237 0.9236
O13 O 0.4369(3) 0.6700(2) 0.34172(11)
O14 O 0.1293(3) 0.6676(2) 0.35228(11)
O15 O 0.0714(4) 0.6071(3) 0.10776(13)
O16 O 0.3740(4) 0.6000(3) 0.08954(12)
C11 C 0.2594(5) 0.6540(3) 0.31683(17)
C12 C 0.1965(5) 0.6273(3) 0.24360(17)
H19 H 0.0619 0.6083 0.2275
C13 C 0.3189(5) 0.6288(3) 0.19956(17)
H20 H 0.4528 0.6409 0.2132
C14 C 0.2388(6) 0.6108(4) 0.12808(18)
C15 C 0.3050(6) 0.5881(4) 0.01948(18)
H21 H 0.4117 0.5863 -0.0045
H22 H 0.2628 0.6635 0.0144
H23 H 0.1952 0.5068 0.0026
Sr1_2 Sr 1.37047(4) 0.78079(3) 0.464363(15)
Sr1A Sr 0.62953(4) 1.21921(3) 0.535637(15)
Sr2A Sr 1.23900(5) 1.39021(3) 0.635327(15)
Sr2_2 Sr -0.23900(5) 0.60979(3) 0.364673(15)
O6_2 O 0.0237(3) 0.7731(2) 0.47988(12)
O7A O 0.8494(4) 0.8162(2) 0.31182(12)
O10A O 0.4928(4) 0.9983(2) 0.42712(12)
O14_2 O 1.1293(3) 0.6676(2) 0.35228(11)
O17 O 0.7302(4) 0.6780(2) 0.74164(12)
O18 O 1.0410(4) 0.6745(3) 0.73507(12)
O19 O 1.0898(4) 0.8464(3) 0.98108(13)
O20 O 0.7678(4) 0.7697(3) 0.98973(12)
C16 C 0.9075(6) 0.6944(3) 0.76642(18)
C17 C 0.9677(6) 0.7409(4) 0.84034(18)
H24 H 1.1032 0.7698 0.8575
C18 C 0.8443(5) 0.7441(4) 0.88308(17)
H25 H 0.7080 0.7154 0.8674
C19 C 0.9180(6) 0.7924(4) 0.95524(18)
C20 C 0.8254(6) 0.8163(4) 1.06102(18)
H26 H 0.7084 0.7990 1.0810
H27 H 0.8958 0.9108 1.0720
H28 H 0.9101 0.7697 1.0771
loop_
_geom_bond_atom_site_label_1
_geom_bond_atom_site_label_2
_geom_bond_site_symmetry_1
_geom_bond_site_symmetry_2
Sr1 O3 1_555 1_555
Sr2 O1 1_555 1_555
O1 H1 1_555 1_555
H2 O1 1_555 1_555
O2 Sr2 1_555 1_555
H3 O2 1_555 1_555
H4 O2 1_555 1_555
O3 H5 1_555 1_555
H6 O3 1_555 1_555
O4 Sr2 1_555 1_555
H7 O4 1_555 1_555
H8 O4 1_555 1_555
O5 Sr1 1_555 1_555
O6 Sr2 1_555 1_555
O7 C4 1_555 1_555
O8 C4 1_555 1_555
C1 O5 1_555 1_555
C2 C1 1_555 1_555
H9 C2 1_555 1_555
C3 C2 1_555 1_555
H10 C3 1_555 1_555
C4 C3 1_555 1_555
C5 O8 1_555 1_555
H11 C5 1_555 1_555
H12 C5 1_555 1_555
H13 C5 1_555 1_555
O9 Sr1 1_555 1_555
O10 Sr1 1_555 1_555
O11 C9 1_555 1_555
O12 C9 1_555 1_555
C6 O9 1_555 1_555
C7 C6 1_555 1_555
H14 C7 1_555 1_555
C8 C7 1_555 1_555
H15 C8 1_555 1_555
C9 C8 1_555 1_555
C10 O12 1_555 1_555
H16 C10 1_555 1_555
H17 C10 1_555 1_555
H18 C10 1_555 1_555
O13 Sr1 1_555 1_555
O14 Sr1 1_555 1_555
O15 C14 1_555 1_555
O16 C14 1_555 1_555
C11 O13 1_555 1_555
C12 C11 1_555 1_555
H19 C12 1_555 1_555
C13 C12 1_555 1_555
H20 C13 1_555 1_555
C14 C13 1_555 1_555
C15 O16 1_555 1_555
H21 C15 1_555 1_555
H22 C15 1_555 1_555
H23 C15 1_555 1_555
O17 C16 1_555 1_555
O18 C16 1_555 1_555
O19 C19 1_555 1_555
O20 C19 1_555 1_555
C16 C17 1_555 1_555
C17 H24 1_555 1_555
C18 C17 1_555 1_555
H25 C18 1_555 1_555
C19 C18 1_555 1_555
C20 O20 1_555 1_555
H26 C20 1_555 1_555
H27 C20 1_555 1_555
H28 C20 1_555 1_555
Sr1_2 O6 1_555 1_555
Sr1A O10 1_555 1_555
Sr2A O7 1_555 1_555
Sr2_2 O14 1_555 1_555
O6_2 Sr1 1_555 1_555
O7A Sr2 1_555 1_555
O10A Sr1 1_555 1_555
O14_2 Sr2 1_555 1_555
Sr2 O5 1_555 1_555
Sr2 O13 1_555 1_555
O6 C1 1_555 1_555
O10 C6 1_555 1_555
O14 C11 1_555 1_555
Sr1_2 O14_2 1_555 1_555
Sr1A O10A 1_555 1_555
Sr2_2 O6_2 1_555 1_555

#END
