
#######################################################################
#
#                 Cambridge Crystallographic Data Centre
#                                CCDC 
#
#######################################################################
#
# If this CIF has been generated from an entry in the Cambridge 
# Structural Database, then it will include bibliographic, chemical, 
# crystal, experimental, refinement or atomic coordinate data resulting 
# from the CCDC's data processing and validation procedures.
#
#######################################################################

data_IDOXIK
_symmetry_cell_setting           monoclinic
_symmetry_space_group_name_H-M   'P 21/n'
_symmetry_Int_Tables_number      14
_space_group_name_Hall           '-P 2yn'
loop_
_symmetry_equiv_pos_site_id
_symmetry_equiv_pos_as_xyz
1 x,y,z
2 1/2-x,1/2+y,1/2-z
3 -x,-y,-z
4 1/2+x,1/2-y,1/2+z
_cell_length_a                   9.7352(4)
_cell_length_b                   12.2620(7)
_cell_length_c                   14.6609(10)
_cell_angle_alpha                90
_cell_angle_beta                 99.067(4)
_cell_angle_gamma                90
_cell_volume                     1728.25
loop_
_atom_site_label
_atom_site_type_symbol
_atom_site_fract_x
_atom_site_fract_y
_atom_site_fract_z
Cd1 Cd 0.366414(18) -0.367863(15) 0.866656(12)
S1 S 0.26014(7) 0.01379(5) 0.96963(5)
S2 S 0.56388(9) -0.29526(6) 0.57973(6)
S3 S 0.61415(9) -0.30471(7) 0.95689(7)
S4 S 0.60771(7) -0.60301(6) 0.66329(5)
N1 N 0.2827(3) -0.2023(2) 0.91187(17)
N2 N 0.4157(3) -0.2887(2) 0.72850(17)
N3 N 0.6863(3) -0.5150(2) 1.0206(2)
N4 N 0.4572(3) -0.5206(2) 0.7961(2)
N5 N 0.1282(2) -0.40341(17) 0.79608(14)
N6 N -0.1147(3) -0.4401(2) 0.71260(18)
C1 C 0.2721(3) -0.1140(2) 0.93606(17)
C2 C 0.4747(3) -0.2938(2) 0.66673(19)
C3 C 0.6571(3) -0.4280(3) 0.99498(19)
C4 C 0.5190(3) -0.5525(2) 0.74110(18)
C5 C 0.0921(3) -0.3267(2) 0.71786(19)
H1 H 0.1543 -0.3383 0.6732
H2 H 0.1045 -0.2524 0.7403
C6 C -0.0577(3) -0.3425(3) 0.6710(2)
H3 H -0.1125 -0.2786 0.6802
H4 H -0.0608 -0.3532 0.6052
C7 C 0.1173(3) -0.5164(2) 0.7606(2)
H5 H 0.1329 -0.5670 0.8120
H6 H 0.1886 -0.5289 0.7224
C8 C -0.0251(3) -0.5372(2) 0.7042(3)
H7 H -0.0164 -0.5492 0.6400
H8 H -0.0665 -0.6017 0.7270
C9 C 0.0259(3) -0.3897(3) 0.8602(2)
H9 H 0.0274 -0.3147 0.8815
H10 H 0.0512 -0.4363 0.9136
C10 C -0.1198(3) -0.4185(3) 0.8124(2)
H11 H -0.1532 -0.4827 0.8408
H12 H -0.1831 -0.3587 0.8183
H13 H -0.192(4) -0.450(3) 0.686(2)
Cd2 Cd 0.5000 -0.5000 0.5000
Cd1B Cd 0.633586(18) -0.632137(15) 0.133344(12)
S1B S 0.73986(7) -1.01379(5) 0.03037(5)
S2B S 0.43612(9) -0.70474(6) 0.42027(6)
S3B S 0.38585(9) -0.69529(7) 0.04311(7)
S4B S 0.39229(7) -0.39699(6) 0.33671(5)
N1B N 0.7173(3) -0.7977(2) 0.08813(17)
N2B N 0.5843(3) -0.7113(2) 0.27150(17)
N3B N 0.3137(3) -0.4850(2) -0.0206(2)
N4B N 0.5428(3) -0.4794(2) 0.2039(2)
N5B N 0.8718(2) -0.59659(17) 0.20392(14)
N6B N 1.1147(3) -0.5599(2) 0.28740(18)
C1B C 0.7279(3) -0.8860(2) 0.06394(17)
C2B C 0.5253(3) -0.7062(2) 0.33327(19)
C3B C 0.3429(3) -0.5720(3) 0.00502(19)
C4B C 0.4810(3) -0.4475(2) 0.25890(18)
C5B C 0.9079(3) -0.6733(2) 0.28214(19)
H1B H 0.8457 -0.6617 0.3268
H2B H 0.8955 -0.7476 0.2597
C6B C 1.0577(3) -0.6575(3) 0.3290(2)
H3B H 1.1125 -0.7214 0.3198
H4B H 1.0608 -0.6468 0.3948
C7B C 0.8827(3) -0.4836(2) 0.2394(2)
H5B H 0.8671 -0.4330 0.1880
H6B H 0.8114 -0.4711 0.2776
C8B C 1.0251(3) -0.4628(2) 0.2958(3)
H7B H 1.0164 -0.4508 0.3600
H8B H 1.0665 -0.3983 0.2730
C9B C 0.9741(3) -0.6103(3) 0.1398(2)
H9B H 0.9726 -0.6853 0.1185
H10B H 0.9488 -0.5637 0.0864
C10B C 1.1198(3) -0.5815(3) 0.1876(2)
H11B H 1.1532 -0.5173 0.1592
H12B H 1.1831 -0.6413 0.1817
H13B H 1.192(4) -0.550(3) 0.314(2)
Cd1_2 Cd 0.366414(18) -0.367863(15) -0.133344(12)
Cd1B_2 Cd 0.633586(18) -0.632137(15) 1.133344(12)
S1A S 0.23986(7) -0.48621(5) 0.53037(5)
S1C S 0.76014(7) -0.51379(5) 0.46963(5)
N3_2 N 0.6863(3) -0.5150(2) 0.0206(2)
N3B_2 N 0.3137(3) -0.4850(2) 0.9794(2)
Cd2A Cd 0.0000 0.0000 1.0000
Cd2A_2 Cd 1.0000 -1.0000 0.0000
loop_
_geom_bond_atom_site_label_1
_geom_bond_atom_site_label_2
_geom_bond_site_symmetry_1
_geom_bond_site_symmetry_2
Cd1 S3 1_555 1_555
S1 C1 1_555 1_555
S2 C2 1_555 1_555
S3 C3 1_555 1_555
S4 C4 1_555 1_555
N1 Cd1 1_555 1_555
N2 Cd1 1_555 1_555
N3 C3 1_555 1_555
N4 Cd1 1_555 1_555
N5 Cd1 1_555 1_555
N6 C6 1_555 1_555
C1 N1 1_555 1_555
C2 N2 1_555 1_555
C4 N4 1_555 1_555
C5 N5 1_555 1_555
H1 C5 1_555 1_555
H2 C5 1_555 1_555
C6 C5 1_555 1_555
H3 C6 1_555 1_555
H4 C6 1_555 1_555
C7 N5 1_555 1_555
H5 C7 1_555 1_555
H6 C7 1_555 1_555
C8 N6 1_555 1_555
H7 C8 1_555 1_555
H8 C8 1_555 1_555
C9 N5 1_555 1_555
H9 C9 1_555 1_555
H10 C9 1_555 1_555
C10 N6 1_555 1_555
H11 C10 1_555 1_555
H12 C10 1_555 1_555
H13 N6 1_555 1_555
Cd2 S2 1_555 1_555
Cd1B S3B 1_555 1_555
S1B C1B 1_555 1_555
S2B Cd2 1_555 1_555
S3B C3B 1_555 1_555
S4B Cd2 1_555 1_555
N1B Cd1B 1_555 1_555
N2B Cd1B 1_555 1_555
N3B C3B 1_555 1_555
N4B Cd1B 1_555 1_555
N5B Cd1B 1_555 1_555
N6B C6B 1_555 1_555
C1B N1B 1_555 1_555
C2B S2B 1_555 1_555
C4B S4B 1_555 1_555
C5B N5B 1_555 1_555
H1B C5B 1_555 1_555
H2B C5B 1_555 1_555
C6B C5B 1_555 1_555
H3B C6B 1_555 1_555
H4B C6B 1_555 1_555
C7B N5B 1_555 1_555
H5B C7B 1_555 1_555
H6B C7B 1_555 1_555
C8B N6B 1_555 1_555
H7B C8B 1_555 1_555
H8B C8B 1_555 1_555
C9B N5B 1_555 1_555
H9B C9B 1_555 1_555
H10B C9B 1_555 1_555
C10B N6B 1_555 1_555
H11B C10B 1_555 1_555
H12B C10B 1_555 1_555
H13B N6B 1_555 1_555
Cd1_2 N3B 1_555 1_555
Cd1B_2 N3 1_555 1_555
S1A Cd2 1_555 1_555
S1C Cd2 1_555 1_555
N3_2 Cd1B 1_555 1_555
N3B_2 Cd1 1_555 1_555
Cd2A S1 1_555 1_555
Cd2A_2 S1B 1_555 1_555
S4 Cd2 1_555 1_555
C7 C8 1_555 1_555
C9 C10 1_555 1_555
N2B C2B 1_555 1_555
N4B C4B 1_555 1_555
C7B C8B 1_555 1_555
C9B C10B 1_555 1_555

#END
