
#######################################################################
#
#                 Cambridge Crystallographic Data Centre
#                                CCDC 
#
#######################################################################
#
# If this CIF has been generated from an entry in the Cambridge 
# Structural Database, then it will include bibliographic, chemical, 
# crystal, experimental, refinement or atomic coordinate data resulting 
# from the CCDC's data processing and validation procedures.
#
#######################################################################

data_IDOYEF
_symmetry_cell_setting           orthorhombic
_symmetry_space_group_name_H-M   'P b c n'
_symmetry_Int_Tables_number      60
_space_group_name_Hall           '-P 2n 2ab'
loop_
_symmetry_equiv_pos_site_id
_symmetry_equiv_pos_as_xyz
1 x,y,z
2 1/2+x,1/2+y,1/2-z
3 x,-y,1/2+z
4 1/2-x,1/2+y,z
5 -x,-y,-z
6 1/2-x,1/2-y,1/2+z
7 -x,y,1/2-z
8 1/2+x,1/2-y,-z
_cell_length_a                   7.1254(4)
_cell_length_b                   8.6973(4)
_cell_length_c                   33.1270(15)
_cell_angle_alpha                90
_cell_angle_beta                 90
_cell_angle_gamma                90
_cell_volume                     2052.94
loop_
_atom_site_label
_atom_site_type_symbol
_atom_site_fract_x
_atom_site_fract_y
_atom_site_fract_z
La1 La 0.14874(4) 0.42253(3) 0.369363(8)
S1 S -0.09002(19) 0.35581(15) 0.44880(4)
O1 O 0.4926(6) 0.4441(5) 0.34983(14)
O2 O -0.1276(4) 0.2428(4) 0.36263(10)
O3 O 0.2360(5) 0.6928(4) 0.32663(9)
O4 O 0.2235(5) 0.1724(4) 0.40670(10)
O5 O 0.1122(5) 0.4941(4) 0.29576(10)
S2 S 0.0000 0.8406(2) 0.2500
O6 O 0.1703(5) -0.0354(4) 0.44197(12)
C1 C 0.1519(7) 0.1042(6) 0.43680(15)
C2 C 0.0471(8) 0.1982(6) 0.46848(14)
H1 H 0.1377 0.2389 0.4875
H2 H -0.0358 0.1299 0.4832
C3 C 0.1813(7) 0.6254(6) 0.29497(15)
C4 C 0.1955(7) 0.7092(6) 0.25475(15)
H3 H 0.1933 0.6356 0.2328
H4 H 0.3127 0.7657 0.2534
C5 C -0.2865(7) 0.2585(7) 0.42662(14)
H5 H -0.3212 0.1741 0.4442
H6 H -0.3915 0.3294 0.4261
C6 C -0.2604(7) 0.1945(5) 0.38431(15)
O7 O -0.3765(5) 0.0956(4) 0.37283(11)
H7 H 0.543(11) 0.520(8) 0.350(2)
H8 H 0.523(12) 0.407(8) 0.330(2)
C4F C -0.1955(7) 0.7092(6) 0.24525(15)
C3F C -0.1813(7) 0.6254(6) 0.20503(15)
O3F O -0.2360(5) 0.6928(4) 0.17337(9)
O5F O -0.1122(5) 0.4941(4) 0.20424(10)
H3F H -0.1933 0.6356 0.2672
H4F H -0.3127 0.7657 0.2466
S1C S 0.59002(19) 0.85581(15) 0.44880(4)
O2C O 0.6276(4) 0.7428(4) 0.36263(10)
O4C O 0.2765(5) 0.6724(4) 0.40670(10)
O6C O 0.3297(5) 0.4646(4) 0.44197(12)
C1C C 0.3481(7) 0.6042(6) 0.43680(15)
C2C C 0.4529(8) 0.6982(6) 0.46848(14)
H1C H 0.3623 0.7389 0.4875
H2C H 0.5358 0.6299 0.4832
C5C C 0.7865(7) 0.7585(7) 0.42662(14)
H5C H 0.8212 0.6741 0.4442
H6C H 0.8915 0.8294 0.4261
C6C C 0.7604(7) 0.6945(5) 0.38431(15)
O7C O 0.8765(5) 0.5956(4) 0.37283(11)
La1C La 0.35126(4) 0.92253(3) 0.369363(8)
O1C O 0.0074(6) 0.9441(5) 0.34983(14)
H7C H -0.043(11) 1.020(8) 0.350(2)
H8C H -0.023(12) 0.907(8) 0.330(2)
O3C O 0.2640(5) 0.1928(4) 0.32663(9)
O7C_2 O -0.1235(5) 0.5956(4) 0.37283(11)
La1C_2 La 0.35126(4) -0.07747(3) 0.369363(8)
La1C_3 La -0.64874(4) -0.07747(3) 0.369363(8)
La1A La -0.35126(4) 0.92253(3) 0.130637(8)
La1F La -0.14874(4) 0.42253(3) 0.130637(8)
La1_2 La 1.14874(4) 0.42253(3) 0.369363(8)
O3C_2 O 0.2640(5) 1.1928(4) 0.32663(9)
O4_2 O 0.2235(5) 1.1724(4) 0.40670(10)
O5C O 0.3878(5) 0.9941(4) 0.29576(10)
O6_2 O 0.1703(5) 0.9646(4) 0.44197(12)
O7_2 O 0.6235(5) 1.0956(4) 0.37283(11)
loop_
_geom_bond_atom_site_label_1
_geom_bond_atom_site_label_2
_geom_bond_site_symmetry_1
_geom_bond_site_symmetry_2
La1 O1 1_555 1_555
S1 C2 1_555 1_555
O1 H7 1_555 1_555
O2 La1 1_555 1_555
O3 La1 1_555 1_555
O4 La1 1_555 1_555
O5 La1 1_555 1_555
S2 C4 1_555 1_555
O6 C1 1_555 1_555
C1 O4 1_555 1_555
C2 C1 1_555 1_555
H1 C2 1_555 1_555
H2 C2 1_555 1_555
C3 O3 1_555 1_555
C4 C3 1_555 1_555
H3 C4 1_555 1_555
H4 C4 1_555 1_555
C5 S1 1_555 1_555
H5 C5 1_555 1_555
H6 C5 1_555 1_555
C6 O2 1_555 1_555
O7 C6 1_555 1_555
H8 O1 1_555 1_555
C4F S2 1_555 1_555
C3F C4F 1_555 1_555
O3F C3F 1_555 1_555
O5F C3F 1_555 1_555
H3F C4F 1_555 1_555
H4F C4F 1_555 1_555
S1C C2C 1_555 1_555
O2C C6C 1_555 1_555
O4C La1 1_555 1_555
O6C La1 1_555 1_555
C1C O4C 1_555 1_555
C2C C1C 1_555 1_555
H1C C2C 1_555 1_555
H2C C2C 1_555 1_555
C5C S1C 1_555 1_555
H5C C5C 1_555 1_555
H6C C5C 1_555 1_555
C6C C5C 1_555 1_555
O7C C6C 1_555 1_555
La1C O3 1_555 1_555
O1C La1C 1_555 1_555
H7C O1C 1_555 1_555
H8C O1C 1_555 1_555
O3C La1 1_555 1_555
O7C_2 La1 1_555 1_555
La1C_2 O4 1_555 1_555
La1C_3 O7 1_555 1_555
La1A O3F 1_555 1_555
La1F O3F 1_555 1_555
La1_2 O7C 1_555 1_555
O3C_2 La1C 1_555 1_555
O4_2 La1C 1_555 1_555
O5C La1C 1_555 1_555
O6_2 La1C 1_555 1_555
O7_2 La1C 1_555 1_555
O5 C3 1_555 1_555
O6 La1C_2 1_555 1_555
C5 C6 1_555 1_555
O5F La1F 1_555 1_555
O2C La1C 1_555 1_555
O4C La1C 1_555 1_555
O6C C1C 1_555 1_555
O3C La1C_2 1_555 1_555

#END
