
#######################################################################
#
#                 Cambridge Crystallographic Data Centre
#                                CCDC 
#
#######################################################################
#
# If this CIF has been generated from an entry in the Cambridge 
# Structural Database, then it will include bibliographic, chemical, 
# crystal, experimental, refinement or atomic coordinate data resulting 
# from the CCDC's data processing and validation procedures.
#
#######################################################################

data_IDUCOA01
_symmetry_cell_setting           triclinic
_symmetry_space_group_name_H-M   'P -1'
_symmetry_Int_Tables_number      2
_space_group_name_Hall           '-P 1'
loop_
_symmetry_equiv_pos_site_id
_symmetry_equiv_pos_as_xyz
1 x,y,z
2 -x,-y,-z
_cell_length_a                   5.7757(5)
_cell_length_b                   8.1491(8)
_cell_length_c                   10.6789(10)
_cell_angle_alpha                106.2810(10)
_cell_angle_beta                 96.793(2)
_cell_angle_gamma                97.056(2)
_cell_volume                     472.618
loop_
_atom_site_label
_atom_site_type_symbol
_atom_site_fract_x
_atom_site_fract_y
_atom_site_fract_z
Zn1 Zn 0.5000 0.5000 0.0000
O1 O 1.0216(3) 0.2611(2) 0.26137(15)
O2 O 0.8264(3) 0.6441(2) -0.01691(15)
H1 H 0.9265 0.6077 -0.0658
H2 H 0.7788 0.7241 -0.0446
O3 O 0.7035(3) 0.36434(18) 0.09870(13)
O4 O 0.4229(3) 0.1542(2) 0.1065(2)
N1 N 0.5043(3) 0.6954(2) 0.18773(16)
C1 C 0.3265(4) 0.9122(3) 0.3273(2)
H3 H 0.2039 0.9767 0.3357
C2 C 0.3337(4) 0.7924(3) 0.2082(2)
H4 H 0.2132 0.7782 0.1382
C3 C 0.6767(4) 0.7218(3) 0.2898(2)
H5 H 0.7997 0.6583 0.2776
C4 C 0.6816(4) 0.8384(3) 0.4121(2)
H6 H 0.8057 0.8512 0.4798
C5 C 0.5020(3) 0.9371(2) 0.43490(18)
C6 C 0.6294(4) 0.2280(3) 0.1264(2)
C7 C 0.8161(4) 0.1436(3) 0.1877(2)
H7 H 0.7457 0.0858 0.2453
H8 H 0.8630 0.0557 0.1176
C8 C 0.9997(4) 0.3781(3) 0.3785(2)
C9 C 1.1959(4) 0.5031(3) 0.4391(2)
H9 H 1.3286 0.5061 0.3978
C10 C 0.8013(4) 0.3765(3) 0.4403(2)
H10 H 0.6669 0.2945 0.4005
O1A O 0.9784(3) 0.7389(2) 0.73863(15)
O3A O 1.2965(3) 0.63566(18) 0.90130(13)
O4A O 1.5771(3) 0.8458(2) 0.8935(2)
C6A C 1.3706(4) 0.7720(3) 0.8736(2)
C7A C 1.1839(4) 0.8564(3) 0.8123(2)
H7A H 1.2543 0.9142 0.7547
H8A H 1.1370 0.9443 0.8824
C8A C 1.0003(4) 0.6219(3) 0.6215(2)
C9A C 0.8041(4) 0.4969(3) 0.5609(2)
H9A H 0.6714 0.4939 0.6022
C10A C 1.1987(4) 0.6235(3) 0.5597(2)
H10A H 1.3331 0.7055 0.5995
N1A N 0.4957(3) 1.3046(2) 0.81227(16)
C1A C 0.6735(4) 1.0878(3) 0.6727(2)
H3A H 0.7961 1.0233 0.6643
C2A C 0.6663(4) 1.2076(3) 0.7918(2)
H4A H 0.7868 1.2218 0.8618
C3A C 0.3233(4) 1.2782(3) 0.7102(2)
H5A H 0.2003 1.3417 0.7224
C4A C 0.3184(4) 1.1616(3) 0.5879(2)
H6A H 0.1943 1.1488 0.5202
C5A C 0.4980(3) 1.0629(2) 0.56510(18)
O2A O 0.1736(3) 0.3559(2) 0.01691(15)
H1A H 0.0735 0.3923 0.0658
H2A H 0.2212 0.2759 0.0446
Zn1_2 Zn 0.5000 1.5000 1.0000
Zn1_3 Zn 1.5000 0.5000 1.0000
O3A_2 O 0.2965(3) 0.63566(18) -0.09870(13)
N1A_2 N 0.4957(3) 0.3046(2) -0.18773(16)
loop_
_geom_bond_atom_site_label_1
_geom_bond_atom_site_label_2
_geom_bond_site_symmetry_1
_geom_bond_site_symmetry_2
Zn1 O2 1_555 1_555
O1 C7 1_555 1_555
O2 H1 1_555 1_555
H2 O2 1_555 1_555
O3 Zn1 1_555 1_555
O4 C6 1_555 1_555
N1 Zn1 1_555 1_555
C1 H3 1_555 1_555
C2 N1 1_555 1_555
H4 C2 1_555 1_555
C3 N1 1_555 1_555
H5 C3 1_555 1_555
C4 C3 1_555 1_555
H6 C4 1_555 1_555
C5 C1 1_555 1_555
C6 O3 1_555 1_555
C7 C6 1_555 1_555
H7 C7 1_555 1_555
H8 C7 1_555 1_555
C8 O1 1_555 1_555
C9 C8 1_555 1_555
H9 C9 1_555 1_555
C10 C8 1_555 1_555
H10 C10 1_555 1_555
O1A C7A 1_555 1_555
O3A C6A 1_555 1_555
O4A C6A 1_555 1_555
C6A C7A 1_555 1_555
C7A H7A 1_555 1_555
H8A C7A 1_555 1_555
C8A O1A 1_555 1_555
C9A C10 1_555 1_555
H9A C9A 1_555 1_555
C10A C9 1_555 1_555
H10A C10A 1_555 1_555
N1A C2A 1_555 1_555
C1A H3A 1_555 1_555
C2A C1A 1_555 1_555
H4A C2A 1_555 1_555
C3A N1A 1_555 1_555
H5A C3A 1_555 1_555
C4A C3A 1_555 1_555
H6A C4A 1_555 1_555
C5A C5 1_555 1_555
O2A Zn1 1_555 1_555
H1A O2A 1_555 1_555
H2A O2A 1_555 1_555
Zn1_2 N1A 1_555 1_555
Zn1_3 O3A 1_555 1_555
O3A_2 Zn1 1_555 1_555
N1A_2 Zn1 1_555 1_555
C1 C2 1_555 1_555
C4 C5 1_555 1_555
C8A C9A 1_555 1_555
C8A C10A 1_555 1_555
C1A C5A 1_555 1_555
C4A C5A 1_555 1_555

#END
