
#######################################################################
#
#                 Cambridge Crystallographic Data Centre
#                                CCDC 
#
#######################################################################
#
# If this CIF has been generated from an entry in the Cambridge 
# Structural Database, then it will include bibliographic, chemical, 
# crystal, experimental, refinement or atomic coordinate data resulting 
# from the CCDC's data processing and validation procedures.
#
#######################################################################

data_IDUCOA
_symmetry_cell_setting           triclinic
_symmetry_space_group_name_H-M   'P -1'
_symmetry_Int_Tables_number      2
_space_group_name_Hall           '-P 1'
loop_
_symmetry_equiv_pos_site_id
_symmetry_equiv_pos_as_xyz
1 x,y,z
2 -x,-y,-z
_cell_length_a                   5.7279(17)
_cell_length_b                   8.076(3)
_cell_length_c                   10.668(3)
_cell_angle_alpha                105.924(4)
_cell_angle_beta                 96.726(2)
_cell_angle_gamma                97.816(4)
_cell_volume                     463.922
loop_
_atom_site_label
_atom_site_type_symbol
_atom_site_fract_x
_atom_site_fract_y
_atom_site_fract_z
Zn1 Zn 0.5000 0.0000 0.5000
N1 N 0.4948(2) -0.19588(15) 0.31266(12)
O1 O -0.02517(19) 0.23932(14) 0.23812(11)
O2 O 0.17070(19) -0.14792(14) 0.51681(11)
H1 H 0.068(3) -0.117(3) 0.560(2)
H2 H 0.221(4) -0.224(3) 0.546(2)
O3 O 0.5817(2) 0.35177(14) 0.39405(12)
O4 O 0.29472(19) 0.13603(13) 0.40076(10)
C1 C -0.2009(3) -0.0053(2) 0.06009(15)
H3 H -0.3356 -0.0096 0.1008
C2 C -0.0006(3) 0.12241(19) 0.12145(15)
C3 C 0.2022(3) 0.1264(2) 0.06147(15)
H4 H 0.3380 0.2097 0.1024
C4 C 0.1824(3) 0.3599(2) 0.31201(15)
H5 H 0.1349 0.4474 0.3820
H6 H 0.2532 0.4196 0.2545
C5 C 0.3712(3) 0.27568(19) 0.37319(14)
C6 C 0.6673(3) -0.2920(2) 0.29316(15)
H7 H 0.7879 -0.2775 0.3636
C7 C 0.6755(3) -0.4119(2) 0.17344(14)
H8 H 0.7995 -0.4755 0.1651
C8 C 0.4978(2) -0.43722(18) 0.06542(13)
C9 C 0.3153(3) -0.33895(18) 0.08686(14)
H9 H 0.1911 -0.3521 0.0185
C10 C 0.3193(3) -0.22196(18) 0.20985(14)
H10 H 0.1954 -0.1587 0.2219
Zn1_2 Zn 0.5000 -1.0000 -0.5000
Zn1_3 Zn -0.5000 0.0000 -0.5000
N1A N 0.5052(2) -0.80412(15) -0.31266(12)
N1A_2 N 0.5052(2) 0.19588(15) 0.68734(12)
O1A O 0.02517(19) -0.23932(14) -0.23812(11)
O2A O 0.82930(19) 0.14792(14) 0.48319(11)
H1A H 0.932(3) 0.117(3) 0.440(2)
H2A H 0.779(4) 0.224(3) 0.454(2)
O3A O -0.5817(2) -0.35177(14) -0.39405(12)
O4A O -0.29472(19) -0.13603(13) -0.40076(10)
O4A_2 O 0.70528(19) -0.13603(13) 0.59924(10)
C1A C 0.2009(3) 0.0053(2) -0.06009(15)
H3A H 0.3356 0.0096 -0.1008
C2A C 0.0006(3) -0.12241(19) -0.12145(15)
C3A C -0.2022(3) -0.1264(2) -0.06147(15)
H4A H -0.3380 -0.2097 -0.1024
C4A C -0.1824(3) -0.3599(2) -0.31201(15)
H5A H -0.1349 -0.4474 -0.3820
H6A H -0.2532 -0.4196 -0.2545
C5A C -0.3712(3) -0.27568(19) -0.37319(14)
C6A C 0.3327(3) -0.7080(2) -0.29316(15)
H7A H 0.2121 -0.7225 -0.3636
C7A C 0.3245(3) -0.5881(2) -0.17344(14)
H8A H 0.2005 -0.5245 -0.1651
C8A C 0.5022(2) -0.56278(18) -0.06542(13)
C9A C 0.6847(3) -0.66105(18) -0.08686(14)
H9A H 0.8089 -0.6479 -0.0185
C10A C 0.6807(3) -0.77804(18) -0.20985(14)
H10A H 0.8046 -0.8413 -0.2219
loop_
_geom_bond_atom_site_label_1
_geom_bond_atom_site_label_2
_geom_bond_site_symmetry_1
_geom_bond_site_symmetry_2
Zn1 N1 1_555 1_555
N1 C6 1_555 1_555
O1 C2 1_555 1_555
O2 Zn1 1_555 1_555
H1 O2 1_555 1_555
H2 O2 1_555 1_555
O3 C5 1_555 1_555
O4 Zn1 1_555 1_555
C1 H3 1_555 1_555
C2 C1 1_555 1_555
C3 C2 1_555 1_555
H4 C3 1_555 1_555
C4 O1 1_555 1_555
H5 C4 1_555 1_555
H6 C4 1_555 1_555
C5 O4 1_555 1_555
C6 H7 1_555 1_555
C7 C6 1_555 1_555
H8 C7 1_555 1_555
C8 C7 1_555 1_555
C9 C8 1_555 1_555
H9 C9 1_555 1_555
C10 N1 1_555 1_555
H10 C10 1_555 1_555
Zn1_2 N1A 1_555 1_555
Zn1_3 O4A 1_555 1_555
N1A C6A 1_555 1_555
N1A_2 Zn1 1_555 1_555
O1A C2A 1_555 1_555
O2A Zn1 1_555 1_555
H1A O2A 1_555 1_555
H2A O2A 1_555 1_555
O3A C5A 1_555 1_555
O4A C5A 1_555 1_555
O4A_2 Zn1 1_555 1_555
C1A C3 1_555 1_555
H3A C1A 1_555 1_555
C2A C1A 1_555 1_555
C3A C1 1_555 1_555
H4A C3A 1_555 1_555
C4A O1A 1_555 1_555
H5A C4A 1_555 1_555
H6A C4A 1_555 1_555
C5A C4A 1_555 1_555
C6A H7A 1_555 1_555
C7A C6A 1_555 1_555
H8A C7A 1_555 1_555
C8A C8 1_555 1_555
C9A C8A 1_555 1_555
H9A C9A 1_555 1_555
C10A N1A 1_555 1_555
H10A C10A 1_555 1_555
C4 C5 1_555 1_555
C9 C10 1_555 1_555
C2A C3A 1_555 1_555
C7A C8A 1_555 1_555
C9A C10A 1_555 1_555

#END
