
#######################################################################
#
#                 Cambridge Crystallographic Data Centre
#                                CCDC 
#
#######################################################################
#
# If this CIF has been generated from an entry in the Cambridge 
# Structural Database, then it will include bibliographic, chemical, 
# crystal, experimental, refinement or atomic coordinate data resulting 
# from the CCDC's data processing and validation procedures.
#
#######################################################################

data_IDUDOA
_symmetry_cell_setting           monoclinic
_symmetry_space_group_name_H-M   'C 2/c'
_symmetry_Int_Tables_number      15
_space_group_name_Hall           '-C 2yn'
loop_
_symmetry_equiv_pos_site_id
_symmetry_equiv_pos_as_xyz
1 x,y,z
2 x,-y,1/2+z
3 1/2+x,1/2+y,z
4 1/2+x,1/2-y,1/2+z
5 -x,-y,-z
6 -x,y,1/2-z
7 1/2-x,1/2-y,-z
8 1/2-x,1/2+y,1/2-z
_cell_length_a                   15.2905(2)
_cell_length_b                   15.2386(2)
_cell_length_c                   25.6472(4)
_cell_angle_alpha                90
_cell_angle_beta                 94.269(5)
_cell_angle_gamma                90
_cell_volume                     5959.37
loop_
_atom_site_label
_atom_site_type_symbol
_atom_site_fract_x
_atom_site_fract_y
_atom_site_fract_z
Sb1 Sb 0.71009(2) 0.03073(2) 0.39727(1)
F1 F 0.6524(3) -0.0679(3) 0.3685(2)
F2 F 0.6047(2) 0.0924(3) 0.3909(2)
F3 F 0.6868(2) -0.0054(2) 0.4643(1)
F4 F 0.7677(3) 0.1301(2) 0.4250(1)
F5 F 0.8148(2) -0.0312(2) 0.4024(2)
F6 F 0.7349(3) 0.0664(3) 0.3302(1)
C23 C 1.0257(6) -0.0731(7) 0.6622(6)
O2 O 0.9378(3) -0.0955(3) 0.6664(2)
C24 C 1.0256(6) -0.3111(7) 0.6798(5)
O3 O 0.9486(4) -0.2758(4) 0.6716(4)
C25 C 1.0204(8) 0.383(1) 0.7676(5)
Cl1 Cl 1.0762(2) 0.4295(2) 0.7214(1)
Cl2 Cl 1.0000 0.2658(3) 0.7500
C25E C 0.9796(8) 0.383(1) 0.7324(5)
Cl1E Cl 0.9238(2) 0.4295(2) 0.7786(1)
Ag1 Ag 0.73709(2) -0.15363(3) 0.56530(1)
C1 C 0.7858(3) 0.0725(3) 0.6184(2)
O1 O 0.7889(2) -0.0210(2) 0.6241(1)
C2 C 0.8663(3) 0.0991(3) 0.5895(2)
C3 C 0.9377(3) 0.1449(3) 0.6138(2)
C4 C 1.0125(3) 0.1605(3) 0.5868(2)
C5 C 1.0146(3) 0.1312(3) 0.5357(2)
C6 C 0.9418(3) 0.0879(3) 0.5106(2)
C7 C 0.8697(3) 0.0718(3) 0.5383(2)
C8 C 1.0911(3) 0.1446(3) 0.5070(2)
N1 N 1.1499(3) 0.1532(3) 0.4828(2)
C9 C 0.7001(3) 0.0932(3) 0.5858(2)
C10 C 0.6927(3) 0.1635(3) 0.5523(2)
C11 C 0.6152(3) 0.1810(3) 0.5235(2)
C12 C 0.5436(3) 0.1258(3) 0.5286(2)
C13 C 0.5497(3) 0.0571(3) 0.5642(2)
C14 C 0.6274(3) 0.0407(3) 0.5922(2)
C15 C 0.4630(3) 0.1405(3) 0.4970(2)
N2 N 0.3991(3) 0.1504(3) 0.4716(2)
C16 C 0.7824(3) 0.1169(3) 0.6717(2)
C17 C 0.7677(3) 0.2069(3) 0.6754(2)
C18 C 0.7627(3) 0.2475(3) 0.7233(2)
C19 C 0.7732(3) 0.1980(3) 0.7688(2)
C20 C 0.7891(4) 0.1080(4) 0.7663(2)
C21 C 0.7930(4) 0.0694(3) 0.7181(2)
C22 C 0.7680(3) 0.2396(4) 0.8188(2)
N3 N 0.7653(3) 0.2736(3) 0.8582(2)
H1 H 0.9353 0.1655 0.6486
H2 H 1.0613 0.1908 0.6033
H3 H 0.9425 0.0699 0.4752
H4 H 0.8210 0.0413 0.5218
H5 H 0.7419 0.2007 0.5490
H6 H 0.6105 0.2299 0.5004
H7 H 0.4999 0.0216 0.5691
H8 H 0.6318 -0.0069 0.6162
H9 H 0.7610 0.2411 0.6444
H10 H 0.7521 0.3088 0.7251
H11 H 0.7971 0.0740 0.7973
H12 H 0.8034 0.0080 0.7164
C1D C 1.2142(3) -0.0725(3) 0.3816(2)
O1D O 1.2111(2) 0.0210(2) 0.3759(1)
C2D C 1.1337(3) -0.0991(3) 0.4105(2)
C3D C 1.0623(3) -0.1449(3) 0.3862(2)
C4D C 0.9875(3) -0.1605(3) 0.4132(2)
C5D C 0.9854(3) -0.1312(3) 0.4643(2)
C6D C 1.0582(3) -0.0879(3) 0.4894(2)
C7D C 1.1303(3) -0.0718(3) 0.4617(2)
C8D C 0.9089(3) -0.1446(3) 0.4930(2)
N1D N 0.8501(3) -0.1532(3) 0.5172(2)
C9D C 1.2999(3) -0.0932(3) 0.4142(2)
C10D C 1.3073(3) -0.1635(3) 0.4477(2)
C11D C 1.3848(3) -0.1810(3) 0.4765(2)
C12D C 1.4564(3) -0.1258(3) 0.4714(2)
C13D C 1.4503(3) -0.0571(3) 0.4358(2)
C14D C 1.3726(3) -0.0407(3) 0.4078(2)
C15D C 1.5370(3) -0.1405(3) 0.5030(2)
N2D N 1.6009(3) -0.1504(3) 0.5284(2)
C16D C 1.2176(3) -0.1169(3) 0.3283(2)
C17D C 1.2323(3) -0.2069(3) 0.3246(2)
C18D C 1.2373(3) -0.2475(3) 0.2767(2)
C19D C 1.2268(3) -0.1980(3) 0.2312(2)
C20D C 1.2109(4) -0.1080(4) 0.2337(2)
C21D C 1.2070(4) -0.0694(3) 0.2819(2)
C22D C 1.2320(3) -0.2396(4) 0.1812(2)
N3D N 1.2347(3) -0.2736(3) 0.1418(2)
H1D H 1.0647 -0.1655 0.3514
H2D H 0.9387 -0.1908 0.3967
H3D H 1.0575 -0.0699 0.5248
H4D H 1.1790 -0.0413 0.4782
H5D H 1.2581 -0.2007 0.4510
H6D H 1.3895 -0.2299 0.4996
H7D H 1.5001 -0.0216 0.4309
H8D H 1.3682 0.0069 0.3838
H9D H 1.2390 -0.2411 0.3556
H10D H 1.2479 -0.3088 0.2749
H11D H 1.2029 -0.0740 0.2027
H12D H 1.1966 -0.0080 0.2836
Ag1D Ag 1.26291(2) 0.15363(3) 0.43470(1)
N2D_2 N 0.6009(3) -0.1504(3) 0.5284(2)
N3G N 0.7347(3) -0.2264(3) 0.6418(2)
Ag1D_2 Ag 0.26291(2) 0.15363(3) 0.43470(1)
Ag1G Ag 0.76291(2) 0.34637(3) 0.93470(1)
Ag1_2 Ag 1.73709(2) -0.15363(3) 0.56530(1)
Ag1C Ag 1.23709(2) -0.34637(3) 0.06530(1)
N2_2 N 1.3991(3) 0.1504(3) 0.4716(2)
N3C N 1.2653(3) 0.2264(3) 0.3582(2)
loop_
_geom_bond_atom_site_label_1
_geom_bond_atom_site_label_2
_geom_bond_site_symmetry_1
_geom_bond_site_symmetry_2
Ag1 O1 1_555 1_555
C1 O1 1_555 1_555
C2 C1 1_555 1_555
C3 C2 1_555 1_555
C4 C3 1_555 1_555
C5 C4 1_555 1_555
C6 C5 1_555 1_555
C7 C2 1_555 1_555
C8 C5 1_555 1_555
N1 C8 1_555 1_555
C9 C1 1_555 1_555
C10 C9 1_555 1_555
C11 C10 1_555 1_555
C12 C11 1_555 1_555
C13 C12 1_555 1_555
C14 C9 1_555 1_555
C15 C12 1_555 1_555
N2 C15 1_555 1_555
C16 C1 1_555 1_555
C17 C16 1_555 1_555
C18 C17 1_555 1_555
C19 C18 1_555 1_555
C20 C19 1_555 1_555
C21 C16 1_555 1_555
C22 C19 1_555 1_555
N3 C22 1_555 1_555
Sb1 F1 1_555 1_555
F2 Sb1 1_555 1_555
F3 Sb1 1_555 1_555
F4 Sb1 1_555 1_555
F5 Sb1 1_555 1_555
F6 Sb1 1_555 1_555
C23 O2 1_555 1_555
C24 O3 1_555 1_555
C25 Cl1 1_555 1_555
Cl1 C25E 1_555 1_555
Cl2 C25 1_555 1_555
H1 C3 1_555 1_555
H2 C4 1_555 1_555
H3 C6 1_555 1_555
H4 C7 1_555 1_555
H5 C10 1_555 1_555
H6 C11 1_555 1_555
H7 C13 1_555 1_555
H8 C14 1_555 1_555
H9 C17 1_555 1_555
H10 C18 1_555 1_555
H11 C20 1_555 1_555
H12 C21 1_555 1_555
C25E C25 1_555 1_555
Cl1E C25 1_555 1_555
C1D O1D 1_555 1_555
O1D Ag1D 1_555 1_555
C2D C1D 1_555 1_555
C3D C2D 1_555 1_555
C4D C3D 1_555 1_555
C5D C4D 1_555 1_555
C6D C5D 1_555 1_555
C7D C2D 1_555 1_555
C8D C5D 1_555 1_555
N1D Ag1 1_555 1_555
C9D C1D 1_555 1_555
C10D C9D 1_555 1_555
C11D C10D 1_555 1_555
C12D C11D 1_555 1_555
C13D C12D 1_555 1_555
C14D C9D 1_555 1_555
C15D C12D 1_555 1_555
N2D C15D 1_555 1_555
C16D C1D 1_555 1_555
C17D C16D 1_555 1_555
C18D C17D 1_555 1_555
C19D C18D 1_555 1_555
C20D C19D 1_555 1_555
C21D C16D 1_555 1_555
C22D C19D 1_555 1_555
N3D C22D 1_555 1_555
H1D C3D 1_555 1_555
H2D C4D 1_555 1_555
H3D C6D 1_555 1_555
H4D C7D 1_555 1_555
H5D C10D 1_555 1_555
H6D C11D 1_555 1_555
H7D C13D 1_555 1_555
H8D C14D 1_555 1_555
H9D C17D 1_555 1_555
H10D C18D 1_555 1_555
H11D C20D 1_555 1_555
H12D C21D 1_555 1_555
Ag1D N1 1_555 1_555
N2D_2 Ag1 1_555 1_555
N3G Ag1 1_555 1_555
Ag1D_2 N2 1_555 1_555
Ag1G N3 1_555 1_555
Ag1_2 N2D 1_555 1_555
Ag1C N3D 1_555 1_555
N2_2 Ag1D 1_555 1_555
N3C Ag1D 1_555 1_555
C6 C7 1_555 1_555
C13 C14 1_555 1_555
C20 C21 1_555 1_555
Cl2 C25E 1_555 1_555
C25E Cl1E 1_555 1_555
C6D C7D 1_555 1_555
C8D N1D 1_555 1_555
C13D C14D 1_555 1_555
C20D C21D 1_555 1_555

#END
