
#######################################################################
#
#                 Cambridge Crystallographic Data Centre
#                                CCDC 
#
#######################################################################
#
# If this CIF has been generated from an entry in the Cambridge 
# Structural Database, then it will include bibliographic, chemical, 
# crystal, experimental, refinement or atomic coordinate data resulting 
# from the CCDC's data processing and validation procedures.
#
#######################################################################

data_IDUKOJ
_symmetry_cell_setting           orthorhombic
_symmetry_space_group_name_H-M   'P c a 21'
_symmetry_Int_Tables_number      29
_space_group_name_Hall           'P 2c -2ac'
loop_
_symmetry_equiv_pos_site_id
_symmetry_equiv_pos_as_xyz
1 x,y,z
2 -x,-y,1/2+z
3 1/2+x,-y,z
4 1/2-x,y,1/2+z
_cell_length_a                   18.880(2)
_cell_length_b                   5.8979(10)
_cell_length_c                   20.916(2)
_cell_angle_alpha                90
_cell_angle_beta                 90
_cell_angle_gamma                90
_cell_volume                     2329.05
loop_
_atom_site_label
_atom_site_type_symbol
_atom_site_fract_x
_atom_site_fract_y
_atom_site_fract_z
I1 I 0.08961(6) 0.43638(19) 0.26350(5)
I1_2 I 0.08961(6) -0.56362(19) 0.26350(5)
Mn1 Mn -0.00346(8) -0.2483(4) -0.01586(13)
O1 O 0.0867(4) -0.3014(13) -0.0471(4)
N1 N -0.0240(4) -0.0371(15) -0.0905(5)
C1 C 0.0895(7) -0.0934(19) -0.1467(5)
N2 N 0.0178(4) -0.4584(16) 0.0605(4)
O2 O 0.2049(4) -0.5108(13) -0.0732(4)
C2 C 0.1194(6) -0.2539(19) -0.1020(6)
O3 O -0.0923(4) -0.1935(15) 0.0153(4)
C3 C 0.1822(6) -0.354(3) -0.1174(7)
O4 O -0.2124(5) 0.0167(19) 0.0405(6)
C4 C 0.2190(7) -0.297(2) -0.1702(6)
H1 H 0.2633 -0.3603 -0.1782
O5 O -0.0455(4) 0.4550(13) -0.0775(4)
H2 H -0.0337 0.4208 -0.1158
C5 C 0.1889(7) -0.138(2) -0.2134(6)
H3 H 0.2124 -0.1046 -0.2514
O6 O 0.0391(4) -0.9640(12) 0.0445(4)
H4 H 0.0484 -0.9805 0.0846
C6 C 0.1268(7) -0.035(2) -0.2004(6)
H5 H 0.1093 0.0758 -0.2279
C7 C 0.0196(6) 0.000(2) -0.1382(6)
H6 H 0.0037 0.0981 -0.1700
C8 C 0.2479(9) -0.695(2) -0.0966(9)
H7 H 0.2609 -0.7920 -0.0616
H8 H 0.2900 -0.6354 -0.1162
H9 H 0.2216 -0.7807 -0.1275
C9 C -0.0945(6) -0.3948(19) 0.1152(5)
C10 C -0.1217(6) -0.256(2) 0.0695(6)
C11 C -0.1901(6) -0.1460(19) 0.0850(6)
C12 C -0.2257(6) -0.200(2) 0.1367(7)
H10 H -0.2695 -0.1327 0.1443
C13 C -0.1983(6) -0.358(2) 0.1810(8)
H11 H -0.2246 -0.4019 0.2165
C14 C -0.1321(7) -0.445(2) 0.1705(6)
H12 H -0.1119 -0.5401 0.2010
C15 C -0.0250(6) -0.496(2) 0.1054(6)
H13 H -0.0105 -0.6015 0.1359
C16 C -0.2537(8) 0.190(2) 0.0618(7)
H14 H -0.2654 0.2880 0.0267
H15 H -0.2285 0.2746 0.0937
H16 H -0.2964 0.1298 0.0800
C17 C -0.0928(5) 0.0769(15) -0.0985(7)
H17 H -0.1310 -0.0249 -0.0869
H18 H -0.0993 0.1225 -0.1427
C18 C -0.0929(6) 0.2899(19) -0.0539(6)
H19 H -0.1403 0.3529 -0.0517
H20 H -0.0789 0.2458 -0.0110
C19 C 0.0885(6) -0.7926(19) 0.0222(7)
H21 H 0.0769 -0.7521 -0.0215
H22 H 0.1360 -0.8551 0.0224
C20 C 0.0869(5) -0.5841(19) 0.0628(5)
H23 H 0.1244 -0.4829 0.0491
H24 H 0.0966 -0.6267 0.1068
Mn1_2 Mn -0.00346(8) -1.2483(4) -0.01586(13)
Mn1_3 Mn -0.00346(8) 0.7517(4) -0.01586(13)
O5_2 O -0.0455(4) -0.5450(13) -0.0775(4)
O6_2 O 0.0391(4) 0.0360(12) 0.0445(4)
I2? I 0.08839(17) -0.0686(6) 0.20195(17)
loop_
_geom_bond_atom_site_label_1
_geom_bond_atom_site_label_2
_geom_bond_site_symmetry_1
_geom_bond_site_symmetry_2
Mn1 O1 1_555 1_555
O1 C2 1_555 1_555
N1 Mn1 1_555 1_555
C1 C2 1_555 1_555
N2 Mn1 1_555 1_555
O2 C3 1_555 1_555
C2 C3 1_555 1_555
O3 Mn1 1_555 1_555
C3 C4 1_555 1_555
O4 C11 1_555 1_555
C4 H1 1_555 1_555
O5 H2 1_555 1_555
C5 C4 1_555 1_555
H3 C5 1_555 1_555
O6 H4 1_555 1_555
C6 C1 1_555 1_555
H5 C6 1_555 1_555
C7 N1 1_555 1_555
H6 C7 1_555 1_555
C8 O2 1_555 1_555
H7 C8 1_555 1_555
H8 C8 1_555 1_555
H9 C8 1_555 1_555
C9 C10 1_555 1_555
C10 O3 1_555 1_555
C11 C10 1_555 1_555
C12 C11 1_555 1_555
H10 C12 1_555 1_555
C13 C12 1_555 1_555
H11 C13 1_555 1_555
C14 C9 1_555 1_555
H12 C14 1_555 1_555
C15 N2 1_555 1_555
H13 C15 1_555 1_555
C16 O4 1_555 1_555
H14 C16 1_555 1_555
H15 C16 1_555 1_555
H16 C16 1_555 1_555
C17 N1 1_555 1_555
H17 C17 1_555 1_555
H18 C17 1_555 1_555
C18 O5 1_555 1_555
H19 C18 1_555 1_555
H20 C18 1_555 1_555
C19 O6 1_555 1_555
H21 C19 1_555 1_555
H22 C19 1_555 1_555
C20 N2 1_555 1_555
H23 C20 1_555 1_555
H24 C20 1_555 1_555
Mn1_2 O6 1_555 1_555
Mn1_3 O5 1_555 1_555
O5_2 Mn1 1_555 1_555
O6_2 Mn1 1_555 1_555
C1 C7 1_555 1_555
C5 C6 1_555 1_555
C9 C15 1_555 1_555
C13 C14 1_555 1_555
C17 C18 1_555 1_555
C19 C20 1_555 1_555

#END
