
#######################################################################
#
#                 Cambridge Crystallographic Data Centre
#                                CCDC 
#
#######################################################################
#
# If this CIF has been generated from an entry in the Cambridge 
# Structural Database, then it will include bibliographic, chemical, 
# crystal, experimental, refinement or atomic coordinate data resulting 
# from the CCDC's data processing and validation procedures.
#
#######################################################################

data_IDUKUO
_symmetry_cell_setting           monoclinic
_symmetry_space_group_name_H-M   'P 2/n'
_symmetry_Int_Tables_number      13
_space_group_name_Hall           '-P 2yac'
loop_
_symmetry_equiv_pos_site_id
_symmetry_equiv_pos_as_xyz
1 x,y,z
2 1/2-x,y,1/2-z
3 -x,-y,-z
4 1/2+x,-y,1/2+z
_cell_length_a                   10.917(3)
_cell_length_b                   11.530(3)
_cell_length_c                   15.079(5)
_cell_angle_alpha                90
_cell_angle_beta                 101.473(5)
_cell_angle_gamma                90
_cell_volume                     1860.11
loop_
_atom_site_label
_atom_site_type_symbol
_atom_site_fract_x
_atom_site_fract_y
_atom_site_fract_z
C1 C 0.3308(3) 0.8366(3) 0.4921(2)
H1 H 0.3238 0.7605 0.5109
C2 C 0.3037(4) 0.9259(4) 0.5470(3)
H2 H 0.2790 0.9102 0.6013
C3 C 0.3144(4) 1.0375(4) 0.5187(3)
H3 H 0.2986 1.0994 0.5544
C4 C 0.3487(4) 1.0575(3) 0.4371(3)
H4 H 0.3540 1.1329 0.4163
C5 C 0.3753(3) 0.9644(3) 0.3861(3)
C6 C 0.4143(3) 0.9743(3) 0.2981(2)
C7 C 0.4454(3) 1.0775(3) 0.2625(2)
H5 H 0.4418 1.1467 0.2935
C8 C 0.4817(3) 1.0767(3) 0.1807(3)
H6 H 0.5018 1.1457 0.1551
C9 C 0.4881(4) 0.9743(3) 0.1373(3)
H7 H 0.5126 0.9723 0.0817
C10 C 0.4579(4) 0.8742(4) 0.1767(3)
H8 H 0.4631 0.8042 0.1469
C11 C 0.1546(3) 0.5831(3) 0.3248(2)
C12 C 0.1533(3) 0.4890(3) 0.3918(2)
C13 C 0.2621(3) 0.4599(3) 0.4508(2)
H9 H 0.3356 0.4995 0.4484
C14 C 0.2630(4) 0.3725(3) 0.5132(3)
C15 C 0.3822(3) 0.3354(3) 0.5729(2)
C16 C 0.1516(3) 0.3163(3) 0.5195(2)
H10 H 0.1512 0.2597 0.5634
C17 C 0.0403(3) 0.3453(3) 0.4597(2)
C18 C 0.0411(3) 0.4304(3) 0.3948(2)
H11 H -0.0318 0.4486 0.3537
Co1 Co 0.40672(5) 0.72064(4) 0.33049(3)
N1 N 0.3659(3) 0.8548(3) 0.41472(19)
N2 N 0.4213(3) 0.8727(2) 0.2563(2)
O1 O 0.2349(2) 0.6611(2) 0.34398(16)
O2 O 0.0723(2) 0.5842(2) 0.25255(15)
O3 O 0.4845(2) 0.3618(2) 0.55048(16)
O4 O 0.3822(2) 0.27619(19) 0.64217(15)
O5 O -0.0646(2) 0.2872(2) 0.46879(18)
H12 H -0.1176 0.2935 0.4221
Co1A Co 0.09328(5) 0.72064(4) 0.16951(3)
Co1B Co 0.59328(5) 0.27936(4) 0.66951(3)
O2A O 0.4277(2) 0.5842(2) 0.24745(15)
O3B O 0.5155(2) 0.6382(2) 0.44952(16)
O4B O 0.6178(2) 0.72381(19) 0.35783(15)
O6 O 0.2500 0.4179(3) 0.7500
H13 H 0.2013 0.3829 0.7786
H13A H 0.2987 0.3829 0.7214
O7 O 0.5012(3) 0.3685(3) 0.3576(2)
H14 H 0.5007 0.3850 0.4125
H15 H 0.4683 0.4237 0.3237
O8 O 0.7394(4) 0.3391(5) 0.3372(3)
H16 H 0.6561 0.3121 0.3346
H17 H 0.7581 0.3780 0.2852
loop_
_geom_bond_atom_site_label_1
_geom_bond_atom_site_label_2
_geom_bond_site_symmetry_1
_geom_bond_site_symmetry_2
C1 H1 1_555 1_555
C2 C1 1_555 1_555
H2 C2 1_555 1_555
C3 C2 1_555 1_555
H3 C3 1_555 1_555
C4 C3 1_555 1_555
H4 C4 1_555 1_555
C5 C4 1_555 1_555
C6 C5 1_555 1_555
C7 C6 1_555 1_555
H5 C7 1_555 1_555
C8 C7 1_555 1_555
H6 C8 1_555 1_555
C9 C8 1_555 1_555
H7 C9 1_555 1_555
C10 C9 1_555 1_555
H8 C10 1_555 1_555
C11 C12 1_555 1_555
C12 C13 1_555 1_555
C13 H9 1_555 1_555
C14 C13 1_555 1_555
C15 C14 1_555 1_555
C16 C14 1_555 1_555
H10 C16 1_555 1_555
C17 C16 1_555 1_555
C18 C12 1_555 1_555
H11 C18 1_555 1_555
Co1 N1 1_555 1_555
N1 C1 1_555 1_555
N2 C6 1_555 1_555
O1 C11 1_555 1_555
O2 C11 1_555 1_555
O3 C15 1_555 1_555
O4 C15 1_555 1_555
O5 C17 1_555 1_555
H12 O5 1_555 1_555
O6 H13 1_555 1_555
O7 H14 1_555 1_555
H15 O7 1_555 1_555
O8 H16 1_555 1_555
H17 O8 1_555 1_555
Co1A O2 1_555 1_555
Co1B O3 1_555 1_555
O2A Co1 1_555 1_555
O3B Co1 1_555 1_555
O4B Co1 1_555 1_555
H13A O6 1_555 1_555
C5 N1 1_555 1_555
C10 N2 1_555 1_555
C17 C18 1_555 1_555
Co1 N2 1_555 1_555
Co1 O1 1_555 1_555
O4 Co1B 1_555 1_555

#END
