
#######################################################################
#
#                 Cambridge Crystallographic Data Centre
#                                CCDC 
#
#######################################################################
#
# If this CIF has been generated from an entry in the Cambridge 
# Structural Database, then it will include bibliographic, chemical, 
# crystal, experimental, refinement or atomic coordinate data resulting 
# from the CCDC's data processing and validation procedures.
#
#######################################################################

data_IDUKAV
_symmetry_cell_setting           monoclinic
_symmetry_space_group_name_H-M   'P 21/c'
_symmetry_Int_Tables_number      14
_space_group_name_Hall           '-P 2ybc'
loop_
_symmetry_equiv_pos_site_id
_symmetry_equiv_pos_as_xyz
1 x,y,z
2 -x,1/2+y,1/2-z
3 -x,-y,-z
4 x,1/2-y,1/2+z
_cell_length_a                   8.0790(6)
_cell_length_b                   14.1870(7)
_cell_length_c                   17.6553(12)
_cell_angle_alpha                90
_cell_angle_beta                 102.645(8)
_cell_angle_gamma                90
_cell_volume                     1974.51
loop_
_atom_site_label
_atom_site_type_symbol
_atom_site_fract_x
_atom_site_fract_y
_atom_site_fract_z
Fe1 Fe 1.0000 0.0000 0.5000
N1 N 1.0298(4) -0.0036(2) 0.62294(18)
C1 C 0.9954(4) -0.0081(2) 0.6834(2)
Se1 Se 0.94592(5) -0.01632(3) 0.77704(2)
N2 N 0.9925(4) 0.16528(19) 0.50356(18)
C2 C 1.0341(5) 0.2181(2) 0.4477(2)
H1 H 1.0757 0.1878 0.4090
C3 C 1.0186(5) 0.3159(2) 0.4442(2)
H2 H 1.0494 0.3489 0.4040
C4 C 0.9576(5) 0.3639(2) 0.5007(2)
C5 C 0.9174(6) 0.3093(2) 0.5604(2)
H3 H 0.8780 0.3379 0.6004
C6 C 0.9370(5) 0.2119(2) 0.5591(2)
H4 H 0.9099 0.1770 0.5994
C7 C 0.9243(6) 0.4693(2) 0.4954(3)
H5 H 0.8506 0.4826 0.4454
H6 H 0.8631 0.4864 0.5349
O1 O 1.2588(3) 0.00213(19) 0.50632(15)
H7 H 1.2976 -0.0004 0.4672
H8 H 1.3430 -0.0061 0.5412
N2B N 1.0075(4) 0.83472(19) 0.49644(18)
C2B C 0.9659(5) 0.7819(2) 0.5523(2)
H1B H 0.9243 0.8122 0.5910
C3B C 0.9814(5) 0.6841(2) 0.5558(2)
H2B H 0.9506 0.6511 0.5960
C4B C 1.0424(5) 0.6361(2) 0.4993(2)
C5B C 1.0826(6) 0.6907(2) 0.4396(2)
H3B H 1.1220 0.6621 0.3996
C6B C 1.0630(5) 0.7881(2) 0.4409(2)
H4B H 1.0901 0.8230 0.4006
C7B C 1.0757(6) 0.5307(2) 0.5046(3)
H5B H 1.1494 0.5174 0.5546
H6B H 1.1369 0.5136 0.4651
N1B N 0.9702(4) 0.0036(2) 0.37706(18)
C1B C 1.0046(4) 0.0081(2) 0.3166(2)
Se1B Se 1.05408(5) 0.01632(3) 0.22296(2)
O1B O 0.7412(3) -0.00213(19) 0.49368(15)
H7B H 0.7024 0.0004 0.5328
H8B H 0.6570 0.0061 0.4588
Fe1_2 Fe 1.0000 1.0000 0.5000
N2B_2 N 1.0075(4) -0.16528(19) 0.49644(18)
N3 N 0.5764(5) 0.1671(2) 0.6762(2)
C8 C 0.6829(6) 0.2156(3) 0.7307(3)
H9 H 0.7699 0.1830 0.7635
C9 C 0.6708(6) 0.3120(3) 0.7410(3)
H10 H 0.7474 0.3429 0.7801
C10 C 0.5421(5) 0.3616(2) 0.6920(2)
C11 C 0.4316(6) 0.3110(3) 0.6357(3)
H11 H 0.3433 0.3414 0.6020
C12 C 0.4532(6) 0.2150(3) 0.6300(3)
H12 H 0.3775 0.1821 0.5918
C13 C 0.5290(6) 0.4669(3) 0.6976(2)
H13 H 0.6028 0.4888 0.7453
H14 H 0.4135 0.4844 0.6987
C14 C 0.5799(6) 0.5132(3) 0.6283(2)
H15 H 0.6899 0.4891 0.6241
H16 H 0.4986 0.4955 0.5815
C15 C 0.5889(5) 0.6193(2) 0.6332(2)
C16 C 0.6949(5) 0.6639(3) 0.6955(2)
H17 H 0.7595 0.6288 0.7359
C17 C 0.7026(5) 0.7616(3) 0.6964(2)
H18 H 0.7759 0.7909 0.7376
C18 C 0.5083(7) 0.7723(3) 0.5820(3)
H19 H 0.4436 0.8091 0.5429
C19 C 0.4938(6) 0.6753(3) 0.5756(3)
H20 H 0.4209 0.6480 0.5332
N4 N 0.6101(5) 0.8156(2) 0.6412(2)
O2 O 1.4393(4) 0.00140(17) 0.39471(15)
H21 H 1.3985 -0.0371 0.3612
H22 H 1.3942 0.0526 0.3828
loop_
_geom_bond_atom_site_label_1
_geom_bond_atom_site_label_2
_geom_bond_site_symmetry_1
_geom_bond_site_symmetry_2
Fe1 N1 1_555 1_555
N1 C1 1_555 1_555
C1 Se1 1_555 1_555
N2 Fe1 1_555 1_555
C2 N2 1_555 1_555
H1 C2 1_555 1_555
C3 C2 1_555 1_555
H2 C3 1_555 1_555
C4 C3 1_555 1_555
C5 C4 1_555 1_555
H3 C5 1_555 1_555
C6 N2 1_555 1_555
H4 C6 1_555 1_555
C7 C4 1_555 1_555
H5 C7 1_555 1_555
H6 C7 1_555 1_555
O1 Fe1 1_555 1_555
H7 O1 1_555 1_555
H8 O1 1_555 1_555
N3 C8 1_555 1_555
C8 H9 1_555 1_555
C9 C8 1_555 1_555
H10 C9 1_555 1_555
C10 C9 1_555 1_555
C11 C10 1_555 1_555
H11 C11 1_555 1_555
C12 N3 1_555 1_555
H12 C12 1_555 1_555
C13 C10 1_555 1_555
H13 C13 1_555 1_555
H14 C13 1_555 1_555
C14 C13 1_555 1_555
H15 C14 1_555 1_555
H16 C14 1_555 1_555
C15 C14 1_555 1_555
C16 C15 1_555 1_555
H17 C16 1_555 1_555
C17 C16 1_555 1_555
H18 C17 1_555 1_555
C18 H19 1_555 1_555
C19 C15 1_555 1_555
H20 C19 1_555 1_555
N4 C17 1_555 1_555
O2 H21 1_555 1_555
H22 O2 1_555 1_555
N2B C2B 1_555 1_555
C2B H1B 1_555 1_555
C3B C2B 1_555 1_555
H2B C3B 1_555 1_555
C4B C3B 1_555 1_555
C5B C4B 1_555 1_555
H3B C5B 1_555 1_555
C6B N2B 1_555 1_555
H4B C6B 1_555 1_555
C7B C7 1_555 1_555
H5B C7B 1_555 1_555
H6B C7B 1_555 1_555
N1B Fe1 1_555 1_555
C1B N1B 1_555 1_555
Se1B C1B 1_555 1_555
O1B Fe1 1_555 1_555
H7B O1B 1_555 1_555
H8B O1B 1_555 1_555
Fe1_2 N2B 1_555 1_555
N2B_2 Fe1 1_555 1_555
C5 C6 1_555 1_555
C11 C12 1_555 1_555
C18 C19 1_555 1_555
C18 N4 1_555 1_555
C4B C7B 1_555 1_555
C5B C6B 1_555 1_555

#END
