
#######################################################################
#
#                 Cambridge Crystallographic Data Centre
#                                CCDC 
#
#######################################################################
#
# If this CIF has been generated from an entry in the Cambridge 
# Structural Database, then it will include bibliographic, chemical, 
# crystal, experimental, refinement or atomic coordinate data resulting 
# from the CCDC's data processing and validation procedures.
#
#######################################################################

data_IDUMEB
_symmetry_cell_setting           triclinic
_symmetry_space_group_name_H-M   'P -1'
_symmetry_Int_Tables_number      2
_space_group_name_Hall           '-P 1'
loop_
_symmetry_equiv_pos_site_id
_symmetry_equiv_pos_as_xyz
1 x,y,z
2 -x,-y,-z
_cell_length_a                   7.7003(10)
_cell_length_b                   8.2841(11)
_cell_length_c                   11.8677(15)
_cell_angle_alpha                106.005(2)
_cell_angle_beta                 91.715(2)
_cell_angle_gamma                115.010(2)
_cell_volume                     650.071
loop_
_atom_site_label
_atom_site_type_symbol
_atom_site_fract_x
_atom_site_fract_y
_atom_site_fract_z
Cu1 Cu 0.45210(4) 0.78190(4) 0.47013(3)
N1 N 0.3411(3) 0.6717(3) 0.3003(2)
N2 N 0.4238(7) 0.6559(8) 0.2176(4)
N3 N 0.5044(9) 0.6493(9) 0.1379(5)
N4 N 0.2809(4) 0.9047(3) 0.5128(2)
O1 O 0.8265(3) 0.6043(2) 0.55840(16)
O2 O 0.7017(3) 0.7433(3) 0.75214(16)
O3 O 0.5202(3) 0.8126(3) 0.64045(16)
O4 O 0.6389(3) 0.6681(3) 0.44783(16)
C1 C 0.6387(4) 0.7499(3) 0.6561(2)
C2 C 0.7092(3) 0.6692(3) 0.5446(2)
N5 N -0.1142(4) 0.4201(5) 0.3030(2)
H1 H -0.2026 0.3281 0.3293
H2 H -0.0665 0.5310 0.3651
H3 H 0.245(4) 0.240(4) 0.028(3)
N6 N 0.0241(3) 0.2683(3) 0.09526(19)
N7 N 0.0241(4) 0.1696(3) -0.0948(2)
H4 H 0.064(5) 0.142(5) -0.155(3)
C3 C -0.2212(4) 0.4403(5) 0.2049(3)
H5 H -0.1315 0.5458 0.1795
H6 H -0.3275 0.4689 0.2337
C4 C -0.3049(4) 0.2605(4) 0.1001(2)
H7 H -0.3748 0.1526 0.1291
H8 H -0.4004 0.2647 0.0446
C5 C -0.1530(4) 0.2306(4) 0.0346(2)
C6 C -0.1515(4) 0.1704(4) -0.0830(3)
H9 H -0.237(5) 0.131(5) -0.143(3)
C7 C 0.1261(4) 0.2291(4) 0.0137(2)
Cu2 Cu 0.10361(5) 0.35821(5) 0.26714(3)
N8 N 0.2251(7) 0.9251(7) 0.6159(4)
N9 N 0.1813(7) 0.9522(7) 0.7129(5)
Cu1A Cu 0.54790(4) 1.21810(4) 0.52987(3)
N4A N 0.7191(4) 1.0953(3) 0.4872(2)
O1A O 0.1735(3) 0.3957(2) 0.44160(16)
O2A O 0.2983(3) 0.2567(3) 0.24786(16)
Cu2A Cu -0.10361(5) 0.64179(5) 0.73286(3)
Cu2A_2 Cu 0.89639(5) 0.64179(5) 0.73286(3)
N9A N -0.1813(7) 0.0478(7) 0.2871(5)
O5 O -0.0013(8) 0.9226(8) 0.3473(5)
N10? N 0.4711(8) 0.7391(9) 0.2413(5)
N11? N 0.5775(9) 0.7833(9) 0.1768(6)
N12? N 0.1670(6) 0.8882(5) 0.4349(3)
N13? N 0.0499(8) 0.8764(8) 0.3687(5)
loop_
_geom_bond_atom_site_label_1
_geom_bond_atom_site_label_2
_geom_bond_site_symmetry_1
_geom_bond_site_symmetry_2
Cu1 N1 1_555 1_555
N1 N2 1_555 1_555
N2 N3 1_555 1_555
N4 Cu1 1_555 1_555
O1 C2 1_555 1_555
O2 C1 1_555 1_555
O3 Cu1 1_555 1_555
O4 Cu1 1_555 1_555
C1 O3 1_555 1_555
C2 O4 1_555 1_555
N5 H1 1_555 1_555
H2 N5 1_555 1_555
H3 C7 1_555 1_555
N6 C5 1_555 1_555
N7 H4 1_555 1_555
C3 N5 1_555 1_555
H5 C3 1_555 1_555
H6 C3 1_555 1_555
C4 C3 1_555 1_555
H7 C4 1_555 1_555
H8 C4 1_555 1_555
C5 C4 1_555 1_555
C6 N7 1_555 1_555
H9 C6 1_555 1_555
C7 N6 1_555 1_555
Cu2 N1 1_555 1_555
N8 N4 1_555 1_555
N9 N8 1_555 1_555
Cu1A N4 1_555 1_555
N4A Cu1 1_555 1_555
O1A Cu2 1_555 1_555
O2A Cu2 1_555 1_555
Cu2A N9 1_555 1_555
Cu2A_2 O1 1_555 1_555
N9A Cu2 1_555 1_555
O2 Cu2A_2 1_555 1_555
C1 C2 1_555 1_555
N5 Cu2 1_555 1_555
N6 Cu2 1_555 1_555
N7 C7 1_555 1_555
C5 C6 1_555 1_555
Cu1A N4A 1_555 1_555

#END
