
#######################################################################
#
#                 Cambridge Crystallographic Data Centre
#                                CCDC 
#
#######################################################################
#
# If this CIF has been generated from an entry in the Cambridge 
# Structural Database, then it will include bibliographic, chemical, 
# crystal, experimental, refinement or atomic coordinate data resulting 
# from the CCDC's data processing and validation procedures.
#
#######################################################################

data_IDUNAY
_symmetry_cell_setting           triclinic
_symmetry_space_group_name_H-M   'P -1'
_symmetry_Int_Tables_number      2
_space_group_name_Hall           '-P 1'
loop_
_symmetry_equiv_pos_site_id
_symmetry_equiv_pos_as_xyz
1 x,y,z
2 -x,-y,-z
_cell_length_a                   9.1042(16)
_cell_length_b                   13.887(2)
_cell_length_c                   17.826(3)
_cell_angle_alpha                70.753(3)
_cell_angle_beta                 79.332(4)
_cell_angle_gamma                75.190(3)
_cell_volume                     2044.49
loop_
_atom_site_label
_atom_site_type_symbol
_atom_site_fract_x
_atom_site_fract_y
_atom_site_fract_z
Ag1 Ag 0.34094(3) 1.07363(2) 0.539814(18)
Ag2 Ag -0.34478(3) 0.431910(18) 0.960631(16)
Cl1 Cl 0.59763(10) 0.97839(8) 0.59551(5)
Cl2 Cl -0.60355(9) 0.52295(6) 0.90046(5)
P1 P 0.20766(10) 1.25225(6) 0.52007(5)
P2 P -0.21810(8) 0.25279(6) 0.97259(5)
N1 N 0.1967(3) 0.9471(2) 0.62893(17)
N2 N -0.2206(3) 0.5717(2) 0.88543(16)
C1 C 0.0440(4) 0.9661(3) 0.6366(2)
H1 H -0.0076 1.0305 0.6071
C2 C -0.0412(4) 0.8954(3) 0.6859(2)
H2 H -0.1473 0.9127 0.6886
C3 C 0.0305(3) 0.7994(2) 0.73101(18)
C4 C 0.1897(4) 0.7796(3) 0.7233(2)
H3 H 0.2444 0.7161 0.7524
C5 C 0.2660(4) 0.8549(3) 0.6722(2)
H4 H 0.3723 0.8397 0.6680
C6 C -0.2807(4) 0.6486(3) 0.8242(2)
H5 H -0.3798 0.6521 0.8155
C7 C -0.2039(4) 0.7233(2) 0.77318(19)
H6 H -0.2510 0.7751 0.7313
C8 C -0.0565(3) 0.7208(2) 0.78454(18)
C9 C 0.0055(4) 0.6417(3) 0.8484(2)
H7 H 0.1040 0.6365 0.8589
C10 C -0.0804(4) 0.5706(3) 0.8963(2)
H8 H -0.0366 0.5184 0.9390
C11 C 0.2506(4) 1.3467(3) 0.42354(19)
C12 C 0.4036(4) 1.3413(3) 0.3919(2)
H9 H 0.4798 1.2891 0.4181
C13 C 0.4405(5) 1.4153(4) 0.3205(2)
H10 H 0.5423 1.4133 0.2995
C14 C 0.3284(7) 1.4907(3) 0.2812(3)
H11 H 0.3544 1.5396 0.2336
C15 C 0.1790(6) 1.4946(3) 0.3112(2)
H12 H 0.1029 1.5451 0.2835
C16 C 0.1408(5) 1.4234(3) 0.3828(2)
H13 H 0.0387 1.4275 0.4037
C17 C 0.2366(3) 1.3116(3) 0.5928(2)
C18 C 0.2340(5) 1.2515(3) 0.6731(2)
H14 H 0.2216 1.1830 0.6877
C19 C 0.2498(5) 1.2930(4) 0.7306(2)
H15 H 0.2447 1.2530 0.7840
C20 C 0.2731(5) 1.3926(4) 0.7100(3)
H16 H 0.2849 1.4200 0.7491
C21 C 0.2789(5) 1.4516(3) 0.6310(3)
H17 H 0.2951 1.5191 0.6165
C22 C 0.2608(4) 1.4113(3) 0.5732(2)
H18 H 0.2649 1.4520 0.5200
C23 C 0.0001(4) 1.2669(2) 0.52947(19)
C24 C -0.0577(4) 1.2105(3) 0.4944(2)
H19 H 0.0088 1.1696 0.4651
C25 C -0.2136(5) 1.2147(4) 0.5027(3)
H20 H -0.2515 1.1756 0.4803
C26 C -0.3120(5) 1.2778(4) 0.5448(2)
H21 H -0.4167 1.2810 0.5507
C27 C -0.2569(4) 1.3350(3) 0.5774(2)
H22 H -0.3240 1.3783 0.6046
C28 C -0.1008(4) 1.3293(3) 0.5703(2)
H23 H -0.0640 1.3682 0.5935
C29 C -0.0208(3) 0.2281(2) 0.99274(19)
C30 C 0.0690(4) 0.2968(3) 0.9441(2)
H24 H 0.0294 0.3501 0.9007
C31 C 0.2169(4) 0.2874(3) 0.9591(3)
H25 H 0.2756 0.3344 0.9262
C32 C 0.2764(4) 0.2080(3) 1.0228(3)
H26 H 0.3754 0.2015 1.0334
C33 C 0.1892(4) 0.1383(3) 1.0709(2)
H27 H 0.2300 0.0839 1.1134
C34 C 0.0410(4) 0.1492(3) 1.0561(2)
H28 H -0.0177 0.1025 1.0894
C35 C -0.2043(3) 0.2094(2) 0.88489(18)
C36 C -0.0742(4) 0.1461(3) 0.8581(2)
H29 H 0.0140 0.1270 0.8834
C37 C -0.0759(4) 0.1116(3) 0.7940(2)
H30 H 0.0108 0.0685 0.7769
C38 C -0.2042(5) 0.1402(3) 0.7555(2)
H31 H -0.2037 0.1174 0.7119
C39 C -0.3335(5) 0.2025(3) 0.7812(2)
H32 H -0.4212 0.2207 0.7556
C40 C -0.3337(4) 0.2382(3) 0.8448(2)
H33 H -0.4209 0.2817 0.8611
C41 C -0.3002(3) 0.1526(2) 1.05223(18)
C42 C -0.3049(4) 0.0577(3) 1.0440(2)
H34 H -0.2648 0.0424 0.9963
C43 C -0.3694(5) -0.0147(3) 1.1068(2)
H35 H -0.3700 -0.0789 1.1015
C44 C -0.4319(4) 0.0076(3) 1.1765(2)
H36 H -0.4768 -0.0406 1.2180
C45 C -0.4280(5) 0.1006(3) 1.1847(2)
H37 H -0.4692 0.1153 1.2325
C46 C -0.3637(4) 0.1737(3) 1.1232(2)
H38 H -0.3631 0.2374 1.1296
Ag1A Ag 0.65906(3) 0.92637(2) 0.460186(18)
Ag2A Ag -0.65522(3) 0.568090(18) 1.039369(16)
Cl1A Cl 0.40237(10) 1.02161(8) 0.40449(5)
Cl2A Cl -0.39645(9) 0.47705(6) 1.09954(5)
loop_
_geom_bond_atom_site_label_1
_geom_bond_atom_site_label_2
_geom_bond_site_symmetry_1
_geom_bond_site_symmetry_2
Ag1 Cl1 1_555 1_555
Ag2 Cl2 1_555 1_555
Cl1 Ag1A 1_555 1_555
Cl2 Ag2A 1_555 1_555
P1 Ag1 1_555 1_555
P2 Ag2 1_555 1_555
N1 Ag1 1_555 1_555
N2 Ag2 1_555 1_555
C1 N1 1_555 1_555
H1 C1 1_555 1_555
C2 C1 1_555 1_555
H2 C2 1_555 1_555
C3 C2 1_555 1_555
C4 C3 1_555 1_555
H3 C4 1_555 1_555
C5 N1 1_555 1_555
H4 C5 1_555 1_555
C6 N2 1_555 1_555
H5 C6 1_555 1_555
C7 C6 1_555 1_555
H6 C7 1_555 1_555
C8 C3 1_555 1_555
C9 C8 1_555 1_555
H7 C9 1_555 1_555
C10 N2 1_555 1_555
H8 C10 1_555 1_555
C11 P1 1_555 1_555
C12 C11 1_555 1_555
H9 C12 1_555 1_555
C13 C12 1_555 1_555
H10 C13 1_555 1_555
C14 C13 1_555 1_555
H11 C14 1_555 1_555
C15 C14 1_555 1_555
H12 C15 1_555 1_555
C16 C11 1_555 1_555
H13 C16 1_555 1_555
C17 P1 1_555 1_555
C18 C17 1_555 1_555
H14 C18 1_555 1_555
C19 C18 1_555 1_555
H15 C19 1_555 1_555
C20 C19 1_555 1_555
H16 C20 1_555 1_555
C21 C20 1_555 1_555
H17 C21 1_555 1_555
C22 C17 1_555 1_555
H18 C22 1_555 1_555
C23 P1 1_555 1_555
C24 C23 1_555 1_555
H19 C24 1_555 1_555
C25 C24 1_555 1_555
H20 C25 1_555 1_555
C26 C25 1_555 1_555
H21 C26 1_555 1_555
C27 C26 1_555 1_555
H22 C27 1_555 1_555
C28 C23 1_555 1_555
H23 C28 1_555 1_555
C29 P2 1_555 1_555
C30 C29 1_555 1_555
H24 C30 1_555 1_555
C31 C30 1_555 1_555
H25 C31 1_555 1_555
C32 C31 1_555 1_555
H26 C32 1_555 1_555
C33 C32 1_555 1_555
H27 C33 1_555 1_555
C34 C29 1_555 1_555
H28 C34 1_555 1_555
C35 P2 1_555 1_555
C36 C35 1_555 1_555
H29 C36 1_555 1_555
C37 C36 1_555 1_555
H30 C37 1_555 1_555
C38 C37 1_555 1_555
H31 C38 1_555 1_555
C39 C38 1_555 1_555
H32 C39 1_555 1_555
C40 C35 1_555 1_555
H33 C40 1_555 1_555
C41 P2 1_555 1_555
C42 C41 1_555 1_555
H34 C42 1_555 1_555
C43 C42 1_555 1_555
H35 C43 1_555 1_555
C44 C43 1_555 1_555
H36 C44 1_555 1_555
C45 C44 1_555 1_555
H37 C45 1_555 1_555
C46 C41 1_555 1_555
H38 C46 1_555 1_555
Ag1A Cl1A 1_555 1_555
Ag2A Cl2A 1_555 1_555
Cl1A Ag1 1_555 1_555
Cl2A Ag2 1_555 1_555
C4 C5 1_555 1_555
C7 C8 1_555 1_555
C9 C10 1_555 1_555
C15 C16 1_555 1_555
C21 C22 1_555 1_555
C27 C28 1_555 1_555
C33 C34 1_555 1_555
C39 C40 1_555 1_555
C45 C46 1_555 1_555

#END
