
#######################################################################
#
#                 Cambridge Crystallographic Data Centre
#                                CCDC 
#
#######################################################################
#
# If this CIF has been generated from an entry in the Cambridge 
# Structural Database, then it will include bibliographic, chemical, 
# crystal, experimental, refinement or atomic coordinate data resulting 
# from the CCDC's data processing and validation procedures.
#
#######################################################################

data_IDUNOM
_symmetry_cell_setting           orthorhombic
_symmetry_space_group_name_H-M   'P b c a'
_symmetry_Int_Tables_number      61
_space_group_name_Hall           '-P 2ac 2ab'
loop_
_symmetry_equiv_pos_site_id
_symmetry_equiv_pos_as_xyz
1 x,y,z
2 1/2+x,1/2-y,-z
3 -x,1/2+y,1/2-z
4 1/2-x,-y,1/2+z
5 -x,-y,-z
6 1/2-x,1/2+y,z
7 x,1/2-y,1/2+z
8 1/2+x,y,1/2-z
_cell_length_a                   13.4850(4)
_cell_length_b                   15.7677(4)
_cell_length_c                   16.7252(4)
_cell_angle_alpha                90
_cell_angle_beta                 90
_cell_angle_gamma                90
_cell_volume                     3556.24
loop_
_atom_site_label
_atom_site_type_symbol
_atom_site_fract_x
_atom_site_fract_y
_atom_site_fract_z
Zn1 Zn 0.13687(2) 0.15689(2) 0.38115(2)
O1 O 0.22574(9) 0.24099(8) 0.43444(8)
O2 O 0.52076(9) 0.37196(8) 0.55776(8)
O3 O 0.08532(9) 0.31056(8) 0.42911(9)
O4 O 0.17223(13) 0.64303(10) 0.62643(11)
O5 O 0.06430(11) 0.59328(10) 0.53854(11)
O6 O 0.50499(11) 0.48839(11) 0.63064(10)
N1 N 0.24456(11) 0.07341(9) 0.34795(9)
N2 N 0.08742(12) 0.20600(9) 0.27386(9)
C1 C 0.34018(14) 0.09488(13) 0.35799(13)
H1 H 0.3551 0.1456 0.3837
C2 C 0.41665(16) 0.04472(14) 0.33178(15)
H2 H 0.4821 0.0612 0.3398
C3 C 0.39544(18) -0.02992(14) 0.29374(14)
H3 H 0.4463 -0.0645 0.2749
C4 C 0.29877(19) -0.05299(13) 0.28377(14)
H4 H 0.2829 -0.1038 0.2586
C5 C 0.22515(16) -0.00031(13) 0.31132(12)
H5 H 0.1594 -0.0164 0.3043
C6 C 0.14604(16) 0.21440(13) 0.21013(12)
H6 H 0.2091 0.1906 0.2119
C7 C 0.1175(2) 0.25651(16) 0.14217(13)
H7 H 0.1607 0.2614 0.0991
C8 C 0.0245(2) 0.29120(16) 0.13863(15)
H8 H 0.0034 0.3200 0.0932
C9 C -0.03721(19) 0.28258(14) 0.20360(15)
H9 H -0.1010 0.3050 0.2025
C10 C -0.00334(15) 0.24024(12) 0.27043(12)
H10 H -0.0449 0.2353 0.3145
C11 C 0.17367(13) 0.30629(11) 0.44909(10)
C12 C 0.22248(12) 0.37837(10) 0.49276(10)
C13 C 0.32159(13) 0.37427(11) 0.51554(10)
H11 H 0.3589 0.3265 0.5029
C14 C 0.36539(12) 0.44093(11) 0.55706(10)
C15 C 0.30929(13) 0.51149(11) 0.57672(11)
H12 H 0.3381 0.5560 0.6048
C16 C 0.20993(12) 0.51606(11) 0.55457(11)
C17 C 0.16744(13) 0.44966(11) 0.51237(11)
H13 H 0.1013 0.4530 0.4970
C18 C 0.14864(13) 0.59105(12) 0.57802(13)
C19 C 0.47177(13) 0.43569(11) 0.58439(11)
H14 H 0.022(2) 0.6310(19) 0.5540(18)
Zn1A Zn 0.63687(2) 0.34311(2) 0.61885(2)
O2A O 0.02076(9) 0.12804(8) 0.44224(8)
loop_
_geom_bond_atom_site_label_1
_geom_bond_atom_site_label_2
_geom_bond_site_symmetry_1
_geom_bond_site_symmetry_2
Zn1 O1 1_555 1_555
O1 C11 1_555 1_555
O2 C19 1_555 1_555
O3 C11 1_555 1_555
O4 C18 1_555 1_555
O5 C18 1_555 1_555
O6 C19 1_555 1_555
N1 Zn1 1_555 1_555
N2 Zn1 1_555 1_555
C1 N1 1_555 1_555
H1 C1 1_555 1_555
C2 C1 1_555 1_555
H2 C2 1_555 1_555
C3 C2 1_555 1_555
H3 C3 1_555 1_555
C4 C3 1_555 1_555
H4 C4 1_555 1_555
C5 N1 1_555 1_555
H5 C5 1_555 1_555
C6 N2 1_555 1_555
H6 C6 1_555 1_555
C7 C6 1_555 1_555
H7 C7 1_555 1_555
C8 C7 1_555 1_555
H8 C8 1_555 1_555
C9 C8 1_555 1_555
H9 C9 1_555 1_555
C10 N2 1_555 1_555
H10 C10 1_555 1_555
C11 C12 1_555 1_555
C12 C13 1_555 1_555
C13 H11 1_555 1_555
C14 C13 1_555 1_555
C15 C14 1_555 1_555
H12 C15 1_555 1_555
C16 C15 1_555 1_555
C17 C12 1_555 1_555
H13 C17 1_555 1_555
C18 C16 1_555 1_555
C19 C14 1_555 1_555
H14 O5 1_555 1_555
Zn1A O2 1_555 1_555
O2A Zn1 1_555 1_555
C4 C5 1_555 1_555
C9 C10 1_555 1_555
C16 C17 1_555 1_555

#END
