
#######################################################################
#
#                 Cambridge Crystallographic Data Centre
#                                CCDC 
#
#######################################################################
#
# If this CIF has been generated from an entry in the Cambridge 
# Structural Database, then it will include bibliographic, chemical, 
# crystal, experimental, refinement or atomic coordinate data resulting 
# from the CCDC's data processing and validation procedures.
#
#######################################################################

data_IDUPIG
_symmetry_cell_setting           monoclinic
_symmetry_space_group_name_H-M   'P 21/c'
_symmetry_Int_Tables_number      14
_space_group_name_Hall           '-P 2ybc'
loop_
_symmetry_equiv_pos_site_id
_symmetry_equiv_pos_as_xyz
1 x,y,z
2 x,1/2-y,1/2+z
3 -x,-y,-z
4 -x,1/2+y,1/2-z
_cell_length_a                   16.650(2)
_cell_length_b                   9.229(3)
_cell_length_c                   15.225(3)
_cell_angle_alpha                90.00
_cell_angle_beta                 107.138(13)
_cell_angle_gamma                90.00
_cell_volume                     2235.64
loop_
_atom_site_label
_atom_site_type_symbol
_atom_site_fract_x
_atom_site_fract_y
_atom_site_fract_z
Cu1 Cu 0.18252(4) 0.15572(7) 0.86912(5)
S1 S 0.18963(8) 0.55588(14) 0.78397(11)
F1 F 0.3519(2) 0.6095(4) 0.8467(3)
F2 F 0.2825(2) 0.7664(4) 0.7507(3)
F3 F 0.3085(2) 0.5563(4) 0.7042(3)
O1 O 0.2116(2) 0.4071(4) 0.8060(3)
O2 O 0.1764(2) 0.6397(5) 0.8576(3)
O3 O 0.1310(2) 0.5787(4) 0.6951(3)
N1 N 0.3031(2) 0.1562(4) 0.9545(3)
N2 N 0.1672(2) 0.0721(5) 0.7437(3)
N3 N -0.0933(2) -0.3023(4) 0.5714(3)
N4 N 0.4317(3) -0.3664(5) 1.1163(3)
C1 C 0.5063(3) -0.3736(6) 1.1769(4)
H1 H 0.5255 -0.4655 1.2027
C2 C 0.5589(3) -0.2557(6) 1.2057(4)
H2 H 0.6119 -0.2676 1.2506
C3 C 0.5342(3) -0.1226(6) 1.1692(4)
H3 H 0.5701 -0.0411 1.1876
C4 C 0.4544(3) -0.1070(5) 1.1034(4)
C5 C 0.4054(3) -0.2341(5) 1.0805(4)
C6 C 0.3242(3) -0.2257(6) 1.0147(4)
H4 H 0.2916 -0.3115 0.9987
C7 C 0.2926(3) -0.0997(5) 0.9750(4)
H5 H 0.2382 -0.0980 0.9316
C8 C 0.3398(3) 0.0320(5) 0.9971(4)
C9 C 0.4217(3) 0.0288(5) 1.0607(4)
C10 C 0.4657(3) 0.1596(5) 1.0769(4)
H6 H 0.5212 0.1622 1.1176
C11 C 0.4295(3) 0.2839(6) 1.0347(4)
H7 H 0.4589 0.3733 1.0465
C12 C 0.3484(3) 0.2772(6) 0.9738(4)
H8 H 0.3241 0.3641 0.9443
C13 C 0.2221(4) 0.1131(6) 0.7003(5)
H9 H 0.2648 0.1791 0.7313
C14 C 0.2222(3) 0.0675(6) 0.6139(5)
H10 H 0.2640 0.1000 0.5875
C15 C 0.1604(3) -0.0256(6) 0.5674(4)
H11 H 0.1582 -0.0571 0.5073
C16 C 0.0999(3) -0.0747(5) 0.6085(4)
C17 C 0.1059(3) -0.0230(5) 0.6971(4)
C18 C 0.0457(3) -0.0678(5) 0.7417(4)
H12 H 0.0500 -0.0332 0.8016
C19 C -0.0172(3) -0.1588(5) 0.6997(4)
H13 H -0.0564 -0.1875 0.7308
C20 C -0.0261(3) -0.2123(5) 0.6103(4)
C21 C 0.0319(3) -0.1730(5) 0.5633(4)
C22 C 0.0224(3) -0.2335(6) 0.4766(4)
H14 H 0.0609 -0.2102 0.4435
C23 C -0.0424(3) -0.3260(6) 0.4400(4)
H15 H -0.0494 -0.3685 0.3814
C24 C -0.0985(3) -0.3576(6) 0.4895(5)
H16 H -0.1433 -0.4227 0.4629
C25 C 0.2874(4) 0.6262(6) 0.7710(5)
N3C N 0.0933(2) 0.1977(4) 0.9286(3)
Cu1C Cu -0.18252(4) -0.34428(7) 0.63088(5)
loop_
_geom_bond_atom_site_label_1
_geom_bond_atom_site_label_2
_geom_bond_site_symmetry_1
_geom_bond_site_symmetry_2
Cu1 O1 1_555 1_555
S1 O1 1_555 1_555
F1 C25 1_555 1_555
F2 C25 1_555 1_555
F3 C25 1_555 1_555
O2 S1 1_555 1_555
O3 S1 1_555 1_555
N1 Cu1 1_555 1_555
N2 Cu1 1_555 1_555
N3 C20 1_555 1_555
N4 C1 1_555 1_555
C1 H1 1_555 1_555
C2 C1 1_555 1_555
H2 C2 1_555 1_555
C3 C2 1_555 1_555
H3 C3 1_555 1_555
C4 C3 1_555 1_555
C5 N4 1_555 1_555
C6 C5 1_555 1_555
H4 C6 1_555 1_555
C7 C6 1_555 1_555
H5 C7 1_555 1_555
C8 N1 1_555 1_555
C9 C4 1_555 1_555
C10 C9 1_555 1_555
H6 C10 1_555 1_555
C11 C10 1_555 1_555
H7 C11 1_555 1_555
C12 N1 1_555 1_555
H8 C12 1_555 1_555
C13 N2 1_555 1_555
H9 C13 1_555 1_555
C14 C13 1_555 1_555
H10 C14 1_555 1_555
C15 C14 1_555 1_555
H11 C15 1_555 1_555
C16 C15 1_555 1_555
C17 N2 1_555 1_555
C18 C17 1_555 1_555
H12 C18 1_555 1_555
C19 C18 1_555 1_555
H13 C19 1_555 1_555
C20 C19 1_555 1_555
C21 C16 1_555 1_555
C22 C21 1_555 1_555
H14 C22 1_555 1_555
C23 C22 1_555 1_555
H15 C23 1_555 1_555
C24 N3 1_555 1_555
H16 C24 1_555 1_555
C25 S1 1_555 1_555
N3C Cu1 1_555 1_555
Cu1C N3 1_555 1_555
C4 C5 1_555 1_555
C7 C8 1_555 1_555
C8 C9 1_555 1_555
C11 C12 1_555 1_555
C16 C17 1_555 1_555
C20 C21 1_555 1_555
C23 C24 1_555 1_555

#END
