
#######################################################################
#
#                 Cambridge Crystallographic Data Centre
#                                CCDC 
#
#######################################################################
#
# If this CIF has been generated from an entry in the Cambridge 
# Structural Database, then it will include bibliographic, chemical, 
# crystal, experimental, refinement or atomic coordinate data resulting 
# from the CCDC's data processing and validation procedures.
#
#######################################################################

data_IDUPOM
_symmetry_cell_setting           monoclinic
_symmetry_space_group_name_H-M   'P 21/c'
_symmetry_Int_Tables_number      14
_space_group_name_Hall           '-P 2ybc'
loop_
_symmetry_equiv_pos_site_id
_symmetry_equiv_pos_as_xyz
1 x,y,z
2 x,1/2-y,1/2+z
3 -x,-y,-z
4 -x,1/2+y,1/2-z
_cell_length_a                   12.8457(7)
_cell_length_b                   9.1323(5)
_cell_length_c                   25.5568(14)
_cell_angle_alpha                90.00
_cell_angle_beta                 94.2550(10)
_cell_angle_gamma                90.00
_cell_volume                     2989.82
loop_
_atom_site_label
_atom_site_type_symbol
_atom_site_fract_x
_atom_site_fract_y
_atom_site_fract_z
Cu1 Cu 0.32485(3) 0.46623(5) 0.162806(17)
S1 S 0.19350(8) 0.83731(12) 0.17569(5)
F1 F 0.1363(4) 1.0056(5) 0.2503(2)
F2 F 0.1048(5) 0.7789(7) 0.26093(16)
F3 F 0.2625(4) 0.8628(7) 0.2725(2)
O1 O 0.2267(2) 0.6893(3) 0.17726(11)
O2 O 0.2714(3) 0.9362(5) 0.1626(3)
O3 O 0.0922(2) 0.8643(4) 0.15057(12)
N1 N 0.4644(2) 0.5280(3) 0.14137(11)
N2 N 0.7202(2) 0.8921(3) 0.26885(11)
N3 N 0.2398(2) 0.3764(3) 0.09995(11)
N4 N 0.0980(2) 0.6918(4) -0.07712(12)
C1 C 0.4988(3) 0.4673(4) 0.09839(14)
H1 H 0.4529 0.4048 0.0778
C2 C 0.5988(3) 0.4911(4) 0.08213(15)
H2 H 0.6202 0.4447 0.0514
C3 C 0.6655(3) 0.5818(4) 0.11078(14)
H3 H 0.7336 0.5993 0.1001
C4 C 0.6326(3) 0.6495(4) 0.15653(13)
C5 C 0.5313(3) 0.6188(4) 0.17063(13)
C6 C 0.4948(3) 0.6826(4) 0.21676(13)
H4 H 0.4257 0.6632 0.2257
C7 C 0.5573(3) 0.7703(4) 0.24802(13)
H5 H 0.5319 0.8107 0.2789
C8 C 0.6608(3) 0.8029(4) 0.23528(13)
C9 C 0.6985(3) 0.7465(4) 0.18921(13)
C10 C 0.7993(3) 0.7889(4) 0.17647(15)
H6 H 0.8264 0.7555 0.1450
C11 C 0.8575(3) 0.8789(5) 0.21023(16)
H7 H 0.9255 0.9088 0.2024
C12 C 0.8159(3) 0.9257(4) 0.25590(15)
H8 H 0.8582 0.9853 0.2794
C13 C 0.2204(3) 0.2336(4) 0.10367(15)
H9 H 0.2450 0.1842 0.1349
C14 C 0.1664(3) 0.1530(4) 0.06446(15)
H10 H 0.1559 0.0508 0.0687
C15 C 0.1285(3) 0.2221(4) 0.01976(14)
H11 H 0.0906 0.1686 -0.0072
C16 C 0.1460(2) 0.3735(4) 0.01381(13)
C17 C 0.2045(2) 0.4475(4) 0.05495(13)
C18 C 0.2279(3) 0.5994(4) 0.04985(14)
H12 H 0.2688 0.6477 0.0771
C19 C 0.1926(3) 0.6754(4) 0.00673(14)
H13 H 0.2088 0.7765 0.0042
C20 C 0.1313(3) 0.6065(4) -0.03504(13)
C21 C 0.1075(2) 0.4556(4) -0.03198(13)
C22 C 0.0462(3) 0.3935(4) -0.07401(13)
H14 H 0.0276 0.2929 -0.0733
C23 C 0.0134(3) 0.4792(5) -0.11617(14)
H15 H -0.0274 0.4385 -0.1451
C24 C 0.0409(3) 0.6276(5) -0.11583(14)
H16 H 0.0171 0.6857 -0.1452
C31 C 0.1726(6) 0.8764(7) 0.2446(3)
N2C N 0.2798(2) 0.3921(3) 0.23115(11)
Cu1C Cu 0.67515(3) 0.96623(5) 0.337194(17)
O4 O 0.3899(3) 0.2778(4) 0.50675(13)
O5 O 0.5475(3) 0.2529(4) 0.48450(13)
N5 N 0.4607(3) 0.3095(4) 0.47913(14)
C25 C 0.4400(3) 0.4174(4) 0.43699(15)
C26 C 0.3445(3) 0.4861(5) 0.43195(17)
H17 H 0.2928 0.4647 0.4555
C27 C 0.3252(3) 0.5859(5) 0.39229(17)
H18 H 0.2600 0.6354 0.3885
C28 C 0.4013(3) 0.6143(5) 0.35768(17)
H19 H 0.3877 0.6831 0.3301
C29 C 0.4964(3) 0.5433(5) 0.36304(17)
H20 H 0.5476 0.5626 0.3390
C30 C 0.5174(3) 0.4441(4) 0.40344(16)
H21 H 0.5830 0.3958 0.4079
O6 O -0.0705 -0.0103 0.0825
loop_
_geom_bond_atom_site_label_1
_geom_bond_atom_site_label_2
_geom_bond_site_symmetry_1
_geom_bond_site_symmetry_2
Cu1 O1 1_555 1_555
S1 O1 1_555 1_555
F1 C31 1_555 1_555
F2 C31 1_555 1_555
F3 C31 1_555 1_555
O2 S1 1_555 1_555
O3 S1 1_555 1_555
O4 N5 1_555 1_555
O5 N5 1_555 1_555
N1 Cu1 1_555 1_555
N2 C8 1_555 1_555
N3 Cu1 1_555 1_555
N4 C20 1_555 1_555
N5 C25 1_555 1_555
C1 N1 1_555 1_555
H1 C1 1_555 1_555
C2 C1 1_555 1_555
H2 C2 1_555 1_555
C3 C2 1_555 1_555
H3 C3 1_555 1_555
C4 C3 1_555 1_555
C5 N1 1_555 1_555
C6 C5 1_555 1_555
H4 C6 1_555 1_555
C7 C6 1_555 1_555
H5 C7 1_555 1_555
C8 C7 1_555 1_555
C9 C4 1_555 1_555
C10 C9 1_555 1_555
H6 C10 1_555 1_555
C11 C10 1_555 1_555
H7 C11 1_555 1_555
C12 N2 1_555 1_555
H8 C12 1_555 1_555
C13 N3 1_555 1_555
H9 C13 1_555 1_555
C14 C13 1_555 1_555
H10 C14 1_555 1_555
C15 C14 1_555 1_555
H11 C15 1_555 1_555
C16 C15 1_555 1_555
C17 N3 1_555 1_555
C18 C17 1_555 1_555
H12 C18 1_555 1_555
C19 C18 1_555 1_555
H13 C19 1_555 1_555
C20 C19 1_555 1_555
C21 C16 1_555 1_555
C22 C21 1_555 1_555
H14 C22 1_555 1_555
C23 C22 1_555 1_555
H15 C23 1_555 1_555
C24 N4 1_555 1_555
H16 C24 1_555 1_555
C25 C26 1_555 1_555
C26 H17 1_555 1_555
C27 C26 1_555 1_555
H18 C27 1_555 1_555
C28 C27 1_555 1_555
H19 C28 1_555 1_555
C29 C28 1_555 1_555
H20 C29 1_555 1_555
C30 C25 1_555 1_555
H21 C30 1_555 1_555
C31 S1 1_555 1_555
N2C Cu1 1_555 1_555
Cu1C N2 1_555 1_555
C4 C5 1_555 1_555
C8 C9 1_555 1_555
C11 C12 1_555 1_555
C16 C17 1_555 1_555
C20 C21 1_555 1_555
C23 C24 1_555 1_555
C29 C30 1_555 1_555

#END
