
#######################################################################
#
#                 Cambridge Crystallographic Data Centre
#                                CCDC 
#
#######################################################################
#
# If this CIF has been generated from an entry in the Cambridge 
# Structural Database, then it will include bibliographic, chemical, 
# crystal, experimental, refinement or atomic coordinate data resulting 
# from the CCDC's data processing and validation procedures.
#
#######################################################################

data_IDUPEC
_symmetry_cell_setting           monoclinic
_symmetry_space_group_name_H-M   'P 21/c'
_symmetry_Int_Tables_number      14
_space_group_name_Hall           '-P 2ybc'
loop_
_symmetry_equiv_pos_site_id
_symmetry_equiv_pos_as_xyz
1 x,y,z
2 x,1/2-y,1/2+z
3 -x,-y,-z
4 -x,1/2+y,1/2-z
_cell_length_a                   12.977(6)
_cell_length_b                   14.520(6)
_cell_length_c                   10.348(5)
_cell_angle_alpha                90.00
_cell_angle_beta                 92.101(10)
_cell_angle_gamma                90.00
_cell_volume                     1948.52
loop_
_atom_site_label
_atom_site_type_symbol
_atom_site_fract_x
_atom_site_fract_y
_atom_site_fract_z
Cu1 Cu 0.95479(8) 0.32161(6) 0.31766(10)
S1 S 0.79737(17) 0.45174(15) 0.5563(2)
F1 F 0.6087(4) 0.4874(4) 0.4707(6)
F2 F 0.7304(5) 0.5272(5) 0.3412(6)
F3 F 0.6876(5) 0.3833(5) 0.3651(6)
O1 O 0.8878(4) 0.4212(4) 0.4925(6)
O2 O 0.8041(5) 0.5432(3) 0.6124(6)
O3 O 0.7540(5) 0.3833(4) 0.6423(6)
N1 N 0.8867(5) 0.3771(4) 0.1709(6)
N2 N 0.9587(5) 0.7508(4) 0.0657(6)
C1 C 0.8230(6) 0.3284(5) 0.0943(8)
H1 H 0.8114 0.2658 0.1160
C2 C 0.7726(6) 0.3635(5) -0.0155(9)
H2 H 0.7284 0.3253 -0.0672
C3 C 0.7872(6) 0.4546(5) -0.0490(8)
H3 H 0.7533 0.4798 -0.1239
C4 C 0.8529(6) 0.5090(5) 0.0295(8)
C5 C 0.9023(6) 0.4699(5) 0.1377(8)
C6 C 0.9725(6) 0.5213(5) 0.2186(7)
H4 H 1.0064 0.4927 0.2911
C7 C 0.9912(6) 0.6126(5) 0.1912(7)
H5 H 1.0378 0.6467 0.2454
C8 C 0.9415(6) 0.6565(5) 0.0825(8)
C9 C 0.8723(6) 0.6075(5) 0.0002(7)
C10 C 0.8253(6) 0.6547(5) -0.1032(9)
H6 H 0.7802 0.6231 -0.1625
C11 C 0.8444(7) 0.7478(5) -0.1195(8)
H7 H 0.8114 0.7809 -0.1886
C12 C 0.9119(7) 0.7919(5) -0.0341(8)
H8 H 0.9255 0.8554 -0.0478
C13 C 0.7024(9) 0.4654(8) 0.4293(12)
N2C N 1.0413(5) 0.2508(4) 0.4343(6)
Cu1C Cu 1.04521(8) 0.82161(6) 0.18234(10)
O4 O 0.4352(16) -0.011(2) 0.3954(17)
O5 O 0.5596(14) 0.0011(12) 0.3021(19)
N3 N 0.4794 0.0429 0.3372
C14 C 0.4267 0.3183 0.3055
H9 H 0.4142 0.3825 0.2972
C15 C 0.5012 0.2762 0.2317
H10 H 0.5393 0.3118 0.1730
C16 C 0.5195 0.1820 0.2439
H11 H 0.5702 0.1533 0.1936
C17 C 0.4635 0.1298 0.3299
C18 C 0.3891 0.1719 0.4037
H12 H 0.3509 0.1363 0.4623
C19 C 0.3707 0.2661 0.3915
H13 H 0.3200 0.2948 0.4418
loop_
_geom_bond_atom_site_label_1
_geom_bond_atom_site_label_2
_geom_bond_site_symmetry_1
_geom_bond_site_symmetry_2
Cu1 O1 1_555 1_555
S1 O1 1_555 1_555
F1 C13 1_555 1_555
F2 C13 1_555 1_555
F3 C13 1_555 1_555
O2 S1 1_555 1_555
O3 S1 1_555 1_555
O4 N3 1_555 1_555
O5 N3 1_555 1_555
N1 Cu1 1_555 1_555
N2 C8 1_555 1_555
N3 C17 1_555 1_555
C1 N1 1_555 1_555
H1 C1 1_555 1_555
C2 C1 1_555 1_555
H2 C2 1_555 1_555
C3 C2 1_555 1_555
H3 C3 1_555 1_555
C4 C3 1_555 1_555
C5 N1 1_555 1_555
C6 C5 1_555 1_555
H4 C6 1_555 1_555
C7 C6 1_555 1_555
H5 C7 1_555 1_555
C8 C7 1_555 1_555
C9 C4 1_555 1_555
C10 C9 1_555 1_555
H6 C10 1_555 1_555
C11 C10 1_555 1_555
H7 C11 1_555 1_555
C12 N2 1_555 1_555
H8 C12 1_555 1_555
C13 S1 1_555 1_555
C14 H9 1_555 1_555
C15 C14 1_555 1_555
H10 C15 1_555 1_555
C16 C15 1_555 1_555
H11 C16 1_555 1_555
C17 C16 1_555 1_555
C18 C17 1_555 1_555
H12 C18 1_555 1_555
C19 C14 1_555 1_555
H13 C19 1_555 1_555
N2C Cu1 1_555 1_555
Cu1C N2 1_555 1_555
C4 C5 1_555 1_555
C8 C9 1_555 1_555
C11 C12 1_555 1_555
C18 C19 1_555 1_555

#END
