
#######################################################################
#
#                 Cambridge Crystallographic Data Centre
#                                CCDC 
#
#######################################################################
#
# If this CIF has been generated from an entry in the Cambridge 
# Structural Database, then it will include bibliographic, chemical, 
# crystal, experimental, refinement or atomic coordinate data resulting 
# from the CCDC's data processing and validation procedures.
#
#######################################################################

data_IDUQUT
_symmetry_cell_setting           rhombohedral
_symmetry_space_group_name_H-M   'R -3 c'
_symmetry_Int_Tables_number      167
_space_group_name_Hall           '-R 3 2"c'
loop_
_symmetry_equiv_pos_site_id
_symmetry_equiv_pos_as_xyz
1 x,y,z
2 -y,x-y,z
3 y,x,1/2-z
4 -x+y,-x,z
5 -x,-x+y,1/2-z
6 x-y,-y,1/2-z
7 1/3+x,2/3+y,2/3+z
8 1/3-y,2/3+x-y,2/3+z
9 1/3+y,2/3+x,1/6-z
10 1/3-x+y,2/3-x,2/3+z
11 1/3-x,2/3-x+y,1/6-z
12 1/3+x-y,2/3-y,1/6-z
13 2/3+x,1/3+y,1/3+z
14 2/3-y,1/3+x-y,1/3+z
15 2/3+y,1/3+x,5/6-z
16 2/3-x+y,1/3-x,1/3+z
17 2/3-x,1/3-x+y,5/6-z
18 2/3+x-y,1/3-y,5/6-z
19 -x,-y,-z
20 y,-x+y,-z
21 -y,-x,1/2+z
22 x-y,x,-z
23 x,x-y,1/2+z
24 -x+y,y,1/2+z
25 2/3-x,1/3-y,1/3-z
26 2/3+y,1/3-x+y,1/3-z
27 2/3-y,1/3-x,5/6+z
28 2/3+x-y,1/3+x,1/3-z
29 2/3+x,1/3+x-y,5/6+z
30 2/3-x+y,1/3+y,5/6+z
31 1/3-x,2/3-y,2/3-z
32 1/3+y,2/3-x+y,2/3-z
33 1/3-y,2/3-x,1/6+z
34 1/3+x-y,2/3+x,2/3-z
35 1/3+x,2/3+x-y,1/6+z
36 1/3-x+y,2/3+y,1/6+z
_cell_length_a                   21.0396(13)
_cell_length_b                   21.0396(13)
_cell_length_c                   45.860(4)
_cell_angle_alpha                90
_cell_angle_beta                 90
_cell_angle_gamma                120
_cell_volume                     17580.8
loop_
_atom_site_label
_atom_site_type_symbol
_atom_site_fract_x
_atom_site_fract_y
_atom_site_fract_z
Ni1 Ni 1.01536(3) 0.29482(3) -0.014470(13)
Ni2 Ni 0.87013(3) 0.15516(3) 0.001850(12)
Ni3 Ni 0.666667 0.00273(4) 0.083333
Ni4 Ni 1.01691(3) 0.43685(4) -0.008270(14)
O1 O 0.92924(18) 0.26524(18) 0.01358(7)
O2 O 0.9401(2) 0.3745(2) 0.02291(8)
O3 O 0.79858(18) 0.10842(18) 0.03656(7)
O4 O 0.7416(2) 0.11068(19) 0.07713(8)
O5 O 1.05061(19) 0.52364(19) 0.02057(8)
O6 O 1.1458(3) 0.6304(3) 0.03385(13)
O7 O 1.08085(18) 0.39288(18) 0.00628(8)
O8 O 1.17886(19) 0.38246(19) 0.01649(8)
O9 O 0.74290(19) -0.05901(18) 0.03240(7)
O10 O 0.7422(2) -0.0309(2) 0.07906(7)
O11 O 0.76400(18) -0.18650(18) 0.01240(7)
O12 O 0.8639(2) -0.19320(18) 0.02366(8)
O13 O 0.63169(18) -0.01390(18) 0.03932(7)
O14 O 1.0970(2) 0.5109(2) -0.03664(8)
C1 C 0.9106(3) 0.3071(3) 0.02707(12)
C2 C 0.8511(4) 0.2725(4) 0.04848(15)
H1 H 0.8524 0.3100 0.0612
H2 H 0.8044 0.2493 0.0383
C3 C 0.8565(4) 0.2146(3) 0.06715(12)
H3 H 0.8546 0.2250 0.0876
H4 H 0.9031 0.2171 0.0635
C4 C 0.7944(3) 0.1384(3) 0.06010(10)
C5 C 1.1149(3) 0.5634(3) 0.03224(13)
C6 C 1.1496(3) 0.5218(4) 0.04553(15)
H5 H 1.1117 0.4782 0.0552
H6 H 1.1847 0.5524 0.0603
C7 C 1.1893(3) 0.4983(3) 0.02296(14)
H7 H 1.1988 0.5276 0.0054
H8 H 1.2363 0.5090 0.0310
C8 C 1.1470(3) 0.4192(3) 0.01490(11)
C9 C 0.7583(3) -0.0602(3) 0.05964(10)
C10 C 0.8002(4) -0.0982(4) 0.06714(12)
H9 H 0.7653 -0.1494 0.0710
H10 H 0.8271 -0.0770 0.0850
C11 C 0.8548(3) -0.0945(3) 0.04393(13)
H11 H 0.8992 -0.0864 0.0536
H12 H 0.8677 -0.0527 0.0313
C12 C 0.8258(3) -0.1626(3) 0.02534(10)
O1J O 0.40409(18) 0.00267(25) 0.15309(7)
O2J O 0.3932(2) 0.1011(3) 0.14376(8)
O3J O 0.53475(18) -0.02349(25) 0.13011(7)
O4J O 0.5917(2) 0.03575(28) 0.08954(8)
C1J C 0.4227(3) 0.0632(4) 0.13960(12)
C2J C 0.4822(4) 0.0881(6) 0.11819(15)
H1J H 0.4809 0.1243 0.1055
H2J H 0.5289 0.1116 0.1284
C3J C 0.4768(4) 0.0248(5) 0.09952(12)
H3J H 0.4787 0.0371 0.0791
H4J H 0.4302 -0.0193 0.1032
C4J C 0.5389(3) 0.0107(4) 0.10657(10)
O9J O 0.59043(19) -0.13524(26) 0.13427(7)
O10J O 0.5911(2) -0.1064(3) 0.08761(7)
O11J O 0.56933(18) -0.28383(25) 0.15427(7)
O12J O 0.4694(2) -0.39043(27) 0.14301(8)
C9J C 0.5750(3) -0.1518(4) 0.10703(10)
C10J C 0.5331(4) -0.2317(6) 0.09953(12)
H9J H 0.5680 -0.2480 0.0957
H10J H 0.5062 -0.2374 0.0817
C11J C 0.4785(3) -0.2826(4) 0.12274(13)
H11J H 0.4341 -0.3189 0.1131
H12J H 0.4656 -0.2537 0.1354
C12J C 0.5075(3) -0.3217(4) 0.14133(10)
O13J O 0.70164(18) 0.02108(25) 0.12735(7)
Ni1J Ni 0.31797(3) -0.05387(4) 0.181137(13)
Ni2J Ni 0.46320(3) -0.04830(4) 0.164817(12)
Ni4J Ni 0.31642(3) 0.08661(5) 0.174937(14)
O5U O 0.52697(27) 0.05061(19) -0.02057(8)
O6U O 0.5154(4) 0.1458(3) -0.03385(13)
O7U O 0.68797(25) 0.08085(18) -0.00628(8)
O8U O 0.79640(27) 0.17886(19) -0.01649(8)
C5U C 0.5515(4) 0.1149(3) -0.03224(13)
C6U C 0.6278(5) 0.1496(3) -0.04553(15)
H5U H 0.6335 0.1117 -0.0552
H6U H 0.6323 0.1847 -0.0603
C7U C 0.6910(4) 0.1893(3) -0.02296(14)
H7U H 0.6712 0.1988 -0.0054
H8U H 0.7273 0.2363 -0.0310
C8U C 0.7278(4) 0.1470(3) -0.01490(11)
O14J O 0.2363(2) 0.0806(3) 0.20331(8)
O3S O 1.10842(18) 0.30984(25) -0.03656(7)
O9S O 0.94099(18) 0.19809(26) -0.03240(7)
O11C O 1.04950(25) 0.23600(18) 0.01240(7)
O13S O 0.98610(18) 0.35441(25) -0.03932(7)
O11S O 0.81350(18) 0.04950(25) -0.01240(7)
O12C O 0.94290(27) 0.1361(2) 0.02366(8)
O5R O 0.94939(19) 0.47636(19) -0.02057(8)
Ni1U Ni 0.72054(4) 0.01536(3) 0.014470(13)
Ni4R Ni 0.98309(3) 0.56315(4) 0.008270(14)
Ni2S Ni 1.15516(3) 0.28503(4) -0.001850(12)
Ni2U Ni 0.71497(4) -0.12987(3) -0.001850(12)
Ni1A Ni 0.70518(3) -0.27946(4) -0.014470(13)
Ni2A Ni 0.84484(3) -0.28503(4) 0.001850(12)
Ni4U Ni 0.58006(5) 0.01691(3) 0.008270(14)
Ni1IA Ni 0.61279(4) -0.03851(3) 0.152197(13)
Ni2IA Ni 0.61836(4) -0.17817(3) 0.168517(12)
Ni1H Ni 0.62815(3) -0.31797(3) 0.181137(13)
Ni2H Ni 0.48849(3) -0.46320(3) 0.164817(12)
Ni4IA Ni 0.75327(5) 0.10352(4) 0.158397(14)
O3FA O 0.22491(18) -0.13191(18) 0.20323(7)
O7J O 0.25248(18) -0.02130(25) 0.16039(8)
O9FA O 0.39234(18) -0.07623(19) 0.19907(7)
O11K O 0.28383(25) -0.14683(18) 0.15427(7)
O13FA O 0.34723(18) 0.03498(18) 0.20599(7)
O8IA O 0.53693(27) 0.04913(19) 0.18316(8)
O11FA O 0.51983(18) -0.09733(18) 0.17907(7)
O12K O 0.39043(27) -0.14013(18) 0.14301(8)
O5J O 0.28272(19) 0.13970(27) 0.14610(8)
O5HA O 0.38394(19) 0.19364(27) 0.18724(8)
Ni4C Ni 0.41994(5) -0.01691(3) -0.008270(14)
loop_
_geom_bond_atom_site_label_1
_geom_bond_atom_site_label_2
_geom_bond_site_symmetry_1
_geom_bond_site_symmetry_2
Ni1 O1 1_555 1_555
Ni2 O1 1_555 1_555
Ni3 O4 1_555 1_555
Ni4 O2 1_555 1_555
O1 C1 1_555 1_555
O2 C1 1_555 1_555
O3 Ni2 1_555 1_555
O4 C4 1_555 1_555
O5 Ni4 1_555 1_555
O6 C5 1_555 1_555
O7 Ni1 1_555 1_555
O8 C8 1_555 1_555
O9 C9 1_555 1_555
O10 Ni3 1_555 1_555
O11 C12 1_555 1_555
O12 C12 1_555 1_555
O13 Ni3 1_555 1_555
O14 Ni4 1_555 1_555
C1 C2 1_555 1_555
C2 H1 1_555 1_555
H2 C2 1_555 1_555
C3 C2 1_555 1_555
H3 C3 1_555 1_555
H4 C3 1_555 1_555
C4 O3 1_555 1_555
C5 O5 1_555 1_555
C6 C5 1_555 1_555
H5 C6 1_555 1_555
H6 C6 1_555 1_555
C7 C6 1_555 1_555
H7 C7 1_555 1_555
H8 C7 1_555 1_555
C8 O7 1_555 1_555
C9 O10 1_555 1_555
C10 C9 1_555 1_555
H9 C10 1_555 1_555
H10 C10 1_555 1_555
C11 C10 1_555 1_555
H11 C11 1_555 1_555
H12 C11 1_555 1_555
C12 C11 1_555 1_555
O1J C1J 1_555 1_555
O2J C1J 1_555 1_555
O3J C4J 1_555 1_555
O4J Ni3 1_555 1_555
C1J C2J 1_555 1_555
C2J H1J 1_555 1_555
H2J C2J 1_555 1_555
C3J C2J 1_555 1_555
H3J C3J 1_555 1_555
H4J C3J 1_555 1_555
C4J O4J 1_555 1_555
O9J C9J 1_555 1_555
O10J Ni3 1_555 1_555
O11J C12J 1_555 1_555
O12J C12J 1_555 1_555
C9J O10J 1_555 1_555
C10J C9J 1_555 1_555
H9J C10J 1_555 1_555
H10J C10J 1_555 1_555
C11J C10J 1_555 1_555
H11J C11J 1_555 1_555
H12J C11J 1_555 1_555
C12J C11J 1_555 1_555
O13J Ni3 1_555 1_555
Ni1J O1J 1_555 1_555
Ni2J O1J 1_555 1_555
Ni4J O2J 1_555 1_555
O5U C5U 1_555 1_555
O6U C5U 1_555 1_555
O7U C8U 1_555 1_555
O8U Ni2 1_555 1_555
C5U C6U 1_555 1_555
C6U H5U 1_555 1_555
H6U C6U 1_555 1_555
C7U C6U 1_555 1_555
H7U C7U 1_555 1_555
H8U C7U 1_555 1_555
C8U O8U 1_555 1_555
O14J Ni4J 1_555 1_555
O3S Ni1 1_555 1_555
O9S Ni1 1_555 1_555
O11C Ni1 1_555 1_555
O13S Ni1 1_555 1_555
O11S Ni2 1_555 1_555
O12C Ni2 1_555 1_555
O5R Ni4 1_555 1_555
Ni1U O3 1_555 1_555
Ni4R O5 1_555 1_555
Ni2S O8 1_555 1_555
Ni2U O9 1_555 1_555
Ni1A O11 1_555 1_555
Ni2A O12 1_555 1_555
Ni4U O13 1_555 1_555
Ni1IA O3J 1_555 1_555
Ni2IA O9J 1_555 1_555
Ni1H O11J 1_555 1_555
Ni2H O12J 1_555 1_555
Ni4IA O13J 1_555 1_555
O3FA Ni1J 1_555 1_555
O7J Ni1J 1_555 1_555
O9FA Ni1J 1_555 1_555
O11K Ni1J 1_555 1_555
O13FA Ni1J 1_555 1_555
O8IA Ni2J 1_555 1_555
O11FA Ni2J 1_555 1_555
O12K Ni2J 1_555 1_555
O5J Ni4J 1_555 1_555
O5HA Ni4J 1_555 1_555
Ni4C O5U 1_555 1_555
Ni2 O9S 1_555 1_555
Ni4 O7 1_555 1_555
Ni4 O13S 1_555 1_555
O9 Ni1U 1_555 1_555
O11 Ni2U 1_555 1_555
O13 Ni1U 1_555 1_555
C3 C4 1_555 1_555
C7 C8 1_555 1_555
O3J Ni2J 1_555 1_555
C3J C4J 1_555 1_555
O9J Ni1IA 1_555 1_555
O11J Ni2IA 1_555 1_555
O13J Ni1IA 1_555 1_555
Ni2J O9FA 1_555 1_555
Ni4J O7J 1_555 1_555
Ni4J O13FA 1_555 1_555
O5U Ni4U 1_555 1_555
O7U Ni1U 1_555 1_555
O7U Ni4U 1_555 1_555
C7U C8U 1_555 1_555
O3S Ni2S 1_555 1_555
O11C Ni2S 1_555 1_555
O11S Ni1U 1_555 1_555
O5R Ni4R 1_555 1_555
Ni1IA O11FA 1_555 1_555

#END
