
#######################################################################
#
#                 Cambridge Crystallographic Data Centre
#                                CCDC 
#
#######################################################################
#
# If this CIF has been generated from an entry in the Cambridge 
# Structural Database, then it will include bibliographic, chemical, 
# crystal, experimental, refinement or atomic coordinate data resulting 
# from the CCDC's data processing and validation procedures.
#
#######################################################################

data_IDUQAA
_symmetry_cell_setting           triclinic
_symmetry_space_group_name_H-M   'P -1'
_symmetry_Int_Tables_number      2
_space_group_name_Hall           '-P 1'
loop_
_symmetry_equiv_pos_site_id
_symmetry_equiv_pos_as_xyz
1 x,y,z
2 -x,-y,-z
_cell_length_a                   8.8492(8)
_cell_length_b                   12.2399(12)
_cell_length_c                   12.3403(12)
_cell_angle_alpha                109.336(11)
_cell_angle_beta                 104.427(11)
_cell_angle_gamma                102.457(11)
_cell_volume                     1154.59
loop_
_atom_site_label
_atom_site_type_symbol
_atom_site_fract_x
_atom_site_fract_y
_atom_site_fract_z
Nd1 Nd 0.34649(3) 0.11522(2) 0.00876(2)
O1 O 0.6529(5) 0.0814(3) -0.0029(3)
O2 O 0.5965(4) 0.2458(3) -0.0123(4)
C1 C 0.6839(6) 0.1782(4) -0.0204(4)
C2 C 0.8309(6) 0.2043(5) -0.0616(5)
H1 H 0.9012 0.1569 -0.0412
Cl1 Cl 0.94692(19) 0.36060(15) 0.0109(2)
Cl2 Cl 0.7547(3) 0.1566(2) -0.22212(17)
O3 O 0.0547(4) 0.0074(3) -0.1113(3)
O4 O -0.1946(4) -0.1187(3) -0.1491(3)
C3 C -0.0683(6) -0.0873(4) -0.1730(4)
C4 C -0.0590(7) -0.1707(5) -0.2928(5)
H2 H 0.0443 -0.1324 -0.3011
Cl3 Cl -0.2250(3) -0.1876(3) -0.41739(15)
Cl4 Cl -0.0607(5) -0.3126(2) -0.2929(3)
O5 O 0.5378(4) 0.1479(3) 0.2038(3)
O6 O 0.6602(4) 0.0038(3) 0.1994(3)
C5 C 0.6073(6) 0.0862(5) 0.2500(4)
C6 C 0.6222(7) 0.1183(6) 0.3844(5)
H3 H 0.5109 0.1082 0.3882
Cl5 Cl 0.7028(3) 0.0244(2) 0.44699(16)
Cl6 Cl 0.7419(3) 0.2730(2) 0.47433(16)
N1 N 0.3993(5) 0.3470(4) 0.1385(4)
N2 N 0.2472(5) 0.2457(4) -0.1057(4)
C7 C 0.4641(8) 0.3928(5) 0.2607(5)
H4 H 0.4910 0.3413 0.2977
C8 C 0.4930(9) 0.5144(5) 0.3348(6)
H5 H 0.5395 0.5436 0.4195
C9 C 0.4521(8) 0.5899(5) 0.2811(6)
H6 H 0.4692 0.6713 0.3291
C10 C 0.3854(7) 0.5453(5) 0.1561(6)
H7 H 0.3566 0.5958 0.1183
C11 C 0.3611(6) 0.4224(4) 0.0859(5)
C12 C 0.2876(6) 0.3683(4) -0.0482(5)
C13 C 0.2536(7) 0.4387(5) -0.1148(6)
H8 H 0.2861 0.5235 -0.0747
C14 C 0.1723(8) 0.3823(6) -0.2390(6)
H9 H 0.1469 0.4279 -0.2838
C15 C 0.1291(7) 0.2572(6) -0.2961(5)
H10 H 0.0732 0.2166 -0.3802
C16 C 0.1697(7) 0.1929(5) -0.2273(5)
H11 H 0.1419 0.1084 -0.2670
Nd1A Nd 0.65351(3) -0.11522(2) -0.00876(2)
Nd1A_2 Nd -0.34649(3) -0.11522(2) -0.00876(2)
O1A O 0.3471(5) -0.0814(3) 0.0029(3)
O4A O 0.1946(4) 0.1187(3) 0.1491(3)
O6A O 0.3398(4) -0.0038(3) -0.1994(3)
loop_
_geom_bond_atom_site_label_1
_geom_bond_atom_site_label_2
_geom_bond_site_symmetry_1
_geom_bond_site_symmetry_2
Nd1 O1 1_555 1_555
O1 C1 1_555 1_555
O2 Nd1 1_555 1_555
C1 O2 1_555 1_555
C2 C1 1_555 1_555
H1 C2 1_555 1_555
Cl1 C2 1_555 1_555
Cl2 C2 1_555 1_555
O3 Nd1 1_555 1_555
O4 C3 1_555 1_555
C3 O3 1_555 1_555
C4 C3 1_555 1_555
H2 C4 1_555 1_555
Cl3 C4 1_555 1_555
Cl4 C4 1_555 1_555
O5 Nd1 1_555 1_555
O6 C5 1_555 1_555
C5 O5 1_555 1_555
C6 C5 1_555 1_555
H3 C6 1_555 1_555
Cl5 C6 1_555 1_555
Cl6 C6 1_555 1_555
N1 Nd1 1_555 1_555
N2 Nd1 1_555 1_555
C7 N1 1_555 1_555
H4 C7 1_555 1_555
C8 C7 1_555 1_555
H5 C8 1_555 1_555
C9 C8 1_555 1_555
H6 C9 1_555 1_555
C10 C9 1_555 1_555
H7 C10 1_555 1_555
C11 N1 1_555 1_555
C12 N2 1_555 1_555
C13 C12 1_555 1_555
H8 C13 1_555 1_555
C14 C13 1_555 1_555
H9 C14 1_555 1_555
C15 C14 1_555 1_555
H10 C15 1_555 1_555
C16 N2 1_555 1_555
H11 C16 1_555 1_555
Nd1A O1 1_555 1_555
Nd1A_2 O4 1_555 1_555
O1A Nd1 1_555 1_555
O4A Nd1 1_555 1_555
O6A Nd1 1_555 1_555
O6 Nd1A 1_555 1_555
C10 C11 1_555 1_555
C11 C12 1_555 1_555
C15 C16 1_555 1_555
Nd1A O1A 1_555 1_555

#END
