
#######################################################################
#
#                 Cambridge Crystallographic Data Centre
#                                CCDC 
#
#######################################################################
#
# If this CIF has been generated from an entry in the Cambridge 
# Structural Database, then it will include bibliographic, chemical, 
# crystal, experimental, refinement or atomic coordinate data resulting 
# from the CCDC's data processing and validation procedures.
#
#######################################################################

data_IDURAB
_symmetry_cell_setting           orthorhombic
_symmetry_space_group_name_H-M   'P n m a'
_symmetry_Int_Tables_number      62
_space_group_name_Hall           '-P 2ac 2n'
loop_
_symmetry_equiv_pos_site_id
_symmetry_equiv_pos_as_xyz
1 x,y,z
2 1/2-x,-y,1/2+z
3 1/2+x,1/2-y,1/2-z
4 -x,1/2+y,-z
5 -x,-y,-z
6 1/2+x,y,1/2-z
7 1/2-x,1/2+y,1/2+z
8 x,1/2-y,z
_cell_length_a                   9.0249(6)
_cell_length_b                   15.8550(10)
_cell_length_c                   10.8836(7)
_cell_angle_alpha                90
_cell_angle_beta                 90
_cell_angle_gamma                90
_cell_volume                     1557.33
loop_
_atom_site_label
_atom_site_type_symbol
_atom_site_fract_x
_atom_site_fract_y
_atom_site_fract_z
Cu1 Cu 0.23384(3) -0.2500 0.56273(3)
S1 S -0.01304(8) -0.2500 0.94610(6)
N1 N 0.14280(10) -0.33340(10) 0.43230(10)
N2 N 0.1241(2) -0.2500 0.7150(2)
C1 C 0.0489(2) -0.29690(10) 0.3550(2)
C2 C -0.0410(2) -0.15630(10) 0.2738(2)
C3 C -0.0292(2) -0.07050(10) 0.2720(2)
C4 C 0.0732(2) -0.03000(10) 0.3485(2)
C5 C 0.0955(2) 0.05870(10) 0.3481(2)
C6 C 0.1983(3) 0.09390(10) 0.4231(2)
C7 C 0.2822(2) 0.04400(10) 0.5028(2)
C8 C 0.2617(2) -0.04190(10) 0.5082(2)
C9 C 0.1576(2) -0.08030(10) 0.4300(2)
C10 C 0.0620(3) -0.2500 0.8081(2)
H1 H -0.1077 -0.1835 0.2222
H2 H -0.0891 -0.0390 0.2198
H3 H 0.0394 0.0927 0.2963
H4 H 0.2132 0.1519 0.4215
H5 H 0.3529 0.0692 0.5530
H6 H 0.3163 -0.0744 0.5632
Cu1E Cu -0.26616(3) -0.2500 0.93727(3)
S1E S 0.48696(8) -0.2500 0.55390(6)
N1G N 0.14280(10) -0.16660(10) 0.43230(10)
C1G C 0.0489(2) -0.20310(10) 0.3550(2)
C2G C -0.0410(2) -0.34370(10) 0.2738(2)
C3G C -0.0292(2) -0.42950(10) 0.2720(2)
C4G C 0.0732(2) -0.47000(10) 0.3485(2)
C5G C 0.0955(2) -0.55870(10) 0.3481(2)
C6G C 0.1983(3) -0.59390(10) 0.4231(2)
C7G C 0.2822(2) -0.54400(10) 0.5028(2)
C8G C 0.2617(2) -0.45810(10) 0.5082(2)
C9G C 0.1576(2) -0.41970(10) 0.4300(2)
H1G H -0.1077 -0.3165 0.2222
H2G H -0.0891 -0.4610 0.2198
H3G H 0.0394 -0.5927 0.2963
H4G H 0.2132 -0.6519 0.4215
H5G H 0.3529 -0.5692 0.5530
H6G H 0.3163 -0.4256 0.5632
loop_
_geom_bond_atom_site_label_1
_geom_bond_atom_site_label_2
_geom_bond_site_symmetry_1
_geom_bond_site_symmetry_2
Cu1 N1 1_555 1_555
S1 C10 1_555 1_555
N1 C1 1_555 1_555
N2 Cu1 1_555 1_555
C1 C1G 1_555 1_555
C2 C3 1_555 1_555
C3 C4 1_555 1_555
C4 C5 1_555 1_555
C5 C6 1_555 1_555
C6 C7 1_555 1_555
C7 C8 1_555 1_555
C8 C9 1_555 1_555
C9 C4 1_555 1_555
C10 N2 1_555 1_555
H1 C2 1_555 1_555
H2 C3 1_555 1_555
H3 C5 1_555 1_555
H4 C6 1_555 1_555
H5 C7 1_555 1_555
H6 C8 1_555 1_555
Cu1E S1 1_555 1_555
S1E Cu1 1_555 1_555
N1G Cu1 1_555 1_555
C1G C2 1_555 1_555
C2G C1 1_555 1_555
C3G C2G 1_555 1_555
C4G C3G 1_555 1_555
C5G C4G 1_555 1_555
C6G C5G 1_555 1_555
C7G C6G 1_555 1_555
C8G C7G 1_555 1_555
C9G N1 1_555 1_555
H1G C2G 1_555 1_555
H2G C3G 1_555 1_555
H3G C5G 1_555 1_555
H4G C6G 1_555 1_555
H5G C7G 1_555 1_555
H6G C8G 1_555 1_555
C9 N1G 1_555 1_555
N1G C1G 1_555 1_555
C4G C9G 1_555 1_555
C8G C9G 1_555 1_555

#END
