
#######################################################################
#
#                 Cambridge Crystallographic Data Centre
#                                CCDC 
#
#######################################################################
#
# If this CIF has been generated from an entry in the Cambridge 
# Structural Database, then it will include bibliographic, chemical, 
# crystal, experimental, refinement or atomic coordinate data resulting 
# from the CCDC's data processing and validation procedures.
#
#######################################################################

data_IDURUW
_symmetry_cell_setting           triclinic
_symmetry_space_group_name_H-M   'P -1'
_symmetry_Int_Tables_number      2
_space_group_name_Hall           '-P 1'
loop_
_symmetry_equiv_pos_site_id
_symmetry_equiv_pos_as_xyz
1 x,y,z
2 -x,-y,-z
_cell_length_a                   3.3677(8)
_cell_length_b                   7.3623(2)
_cell_length_c                   7.5007(2)
_cell_angle_alpha                82.897(18)
_cell_angle_beta                 87.120(19)
_cell_angle_gamma                80.761(18)
_cell_volume                     182.063
loop_
_atom_site_label
_atom_site_type_symbol
_atom_site_fract_x
_atom_site_fract_y
_atom_site_fract_z
O1 O 1.0451(3) 0.72808(16) 0.66051(16)
N1 N 0.4983(4) 0.25306(18) 0.97816(17)
N2 N 0.7276(4) 0.24101(18) 0.70279(18)
N3 N 0.6134(4) 0.35208(18) 0.82675(18)
N4 N 0.6878(4) 0.06646(18) 0.76926(18)
C1 C 0.5453(5) 0.0794(2) 0.9373(2)
Li1 Li 0.5687(8) 0.6327(4) 0.7828(4)
H1 H 0.955(7) 0.845(3) 0.679(3)
H2 H 1.110(9) 0.732(4) 0.546(2)
N1A N 0.5017(4) -0.25306(18) 1.02184(17)
N2A N 0.2724(4) -0.24101(18) 1.29721(18)
N3A N 0.3866(4) -0.35208(18) 1.17325(18)
N4A N 0.3122(4) -0.06646(18) 1.23074(18)
C1A C 0.4547(5) -0.0794(2) 1.0627(2)
O1A O -0.0451(3) -0.72808(16) 1.33949(16)
Li1A Li 0.4313(8) -0.6327(4) 1.2172(4)
H1A H 0.045(7) -0.845(3) 1.321(3)
H2A H -0.110(9) -0.732(4) 1.454(2)
O1_2 O 0.0451(3) 0.72808(16) 0.66051(16)
O1A_2 O 0.9549(3) -0.72808(16) 1.33949(16)
N1_2 N 0.4983(4) -0.74694(18) 0.97816(17)
N1A_2 N 0.5017(4) 0.74694(18) 1.02184(17)
Li1_2 Li 0.5687(8) -0.3673(4) 0.7828(4)
Li1_3 Li 1.5687(8) 0.6327(4) 0.7828(4)
Li1A_2 Li -0.5687(8) -0.6327(4) 1.2172(4)
Li1A_3 Li 0.4313(8) 0.3673(4) 1.2172(4)
loop_
_geom_bond_atom_site_label_1
_geom_bond_atom_site_label_2
_geom_bond_site_symmetry_1
_geom_bond_site_symmetry_2
O1 Li1 1_555 1_555
N1 N3 1_555 1_555
N2 N3 1_555 1_555
N3 Li1 1_555 1_555
N4 N2 1_555 1_555
C1 N1 1_555 1_555
Li1 O1_2 1_555 1_555
H1 O1 1_555 1_555
H2 O1 1_555 1_555
N1A N3A 1_555 1_555
N2A N3A 1_555 1_555
N3A Li1A 1_555 1_555
N4A N2A 1_555 1_555
C1A C1 1_555 1_555
O1A Li1A 1_555 1_555
Li1A O1A_2 1_555 1_555
H1A O1A 1_555 1_555
H2A O1A 1_555 1_555
N1_2 Li1A 1_555 1_555
N1A_2 Li1 1_555 1_555
Li1_2 N1A 1_555 1_555
Li1_3 O1 1_555 1_555
Li1A_2 O1A 1_555 1_555
Li1A_3 N1 1_555 1_555
N4 C1 1_555 1_555
N1A C1A 1_555 1_555
N4A C1A 1_555 1_555

#END
