
#######################################################################
#
#                 Cambridge Crystallographic Data Centre
#                                CCDC 
#
#######################################################################
#
# If this CIF has been generated from an entry in the Cambridge 
# Structural Database, then it will include bibliographic, chemical, 
# crystal, experimental, refinement or atomic coordinate data resulting 
# from the CCDC's data processing and validation procedures.
#
#######################################################################

data_IDUROQ
_symmetry_cell_setting           triclinic
_symmetry_space_group_name_H-M   'P -1'
_symmetry_Int_Tables_number      2
_space_group_name_Hall           '-P 1'
loop_
_symmetry_equiv_pos_site_id
_symmetry_equiv_pos_as_xyz
1 x,y,z
2 -x,-y,-z
_cell_length_a                   7.2089(6)
_cell_length_b                   7.4623(6)
_cell_length_c                   10.7752(8)
_cell_angle_alpha                81.333(3)
_cell_angle_beta                 76.478(3)
_cell_angle_gamma                67.604(3)
_cell_volume                     519.849
loop_
_atom_site_label
_atom_site_type_symbol
_atom_site_fract_x
_atom_site_fract_y
_atom_site_fract_z
Na1 Na 0.13528(11) 0.12775(10) 0.92104(7)
Na2 Na 0.40706(11) -0.02130(10) 0.64168(7)
N1 N 0.1470(3) 0.3820(2) 0.73471(14)
O1 O 0.4873(2) 0.0117(2) 0.83684(13)
N2 N 0.0677(2) 0.6452(2) 0.60757(15)
O2 O 0.2650(2) 0.0138(2) 0.46002(13)
O3 O -0.2174(2) 0.2277(2) 1.00833(14)
O4 O 0.0634(2) -0.0092(2) 0.75740(14)
N3 N 0.4564(2) 0.3711(2) 0.34465(14)
O5 O 0.2258(2) 0.3020(2) 1.04684(13)
N4 N 0.2602(2) 0.6836(2) 0.33642(14)
N5 N 0.2682(2) 0.3344(2) 0.61989(15)
N6 N 0.4985(2) 0.4517(2) 0.22581(14)
N7 N 0.0280(3) 0.5662(2) 0.72750(15)
C1 C 0.3102(3) 0.5172(3) 0.40964(17)
N8 N 0.3828(3) 0.6378(2) 0.22081(15)
C2 C 0.2164(3) 0.4983(2) 0.54448(17)
H1 H 0.524(5) 0.111(4) 0.827(2)
H2 H 0.250(4) -0.085(4) 0.433(2)
H3 H 0.062(4) -0.096(4) 0.735(2)
H4 H -0.270(4) 0.255(4) 0.952(3)
H5 H 0.271(5) 0.386(5) 1.009(3)
H6 H 0.164(5) 0.125(4) 0.447(3)
H7 H 0.567(5) -0.075(5) 0.869(3)
H8 H -0.012(5) 0.074(5) 0.720(3)
H9 H 0.150(5) 0.341(4) 1.122(3)
H10 H -0.309(5) 0.294(5) 1.079(3)
Na1A Na -0.13528(11) -0.12775(10) 1.07896(7)
Na2A Na 0.59294(11) 0.02130(10) 0.35832(7)
O2A O 0.7350(2) -0.0138(2) 0.53998(13)
O3A O 0.2174(2) -0.2277(2) 0.99167(14)
N3A N 0.5436(2) -0.3711(2) 0.65535(14)
loop_
_geom_bond_atom_site_label_1
_geom_bond_atom_site_label_2
_geom_bond_site_symmetry_1
_geom_bond_site_symmetry_2
Na1 N1 1_555 1_555
Na2 O1 1_555 1_555
N1 N5 1_555 1_555
O1 Na1 1_555 1_555
N2 N7 1_555 1_555
O2 Na2 1_555 1_555
O3 Na1 1_555 1_555
O4 Na1 1_555 1_555
N3 N6 1_555 1_555
O5 Na1 1_555 1_555
N4 C1 1_555 1_555
N5 Na2 1_555 1_555
N6 N8 1_555 1_555
N7 N1 1_555 1_555
C1 N3 1_555 1_555
N8 N4 1_555 1_555
C2 N2 1_555 1_555
H1 O1 1_555 1_555
H2 O2 1_555 1_555
H3 O4 1_555 1_555
H4 O3 1_555 1_555
H5 O5 1_555 1_555
H6 O2 1_555 1_555
H7 O1 1_555 1_555
H8 O4 1_555 1_555
H9 O5 1_555 1_555
H10 O3 1_555 1_555
Na1A O3 1_555 1_555
Na2A O2 1_555 1_555
O2A Na2 1_555 1_555
O3A Na1 1_555 1_555
N3A Na2 1_555 1_555
Na2 O4 1_555 1_555
N3 Na2A 1_555 1_555
N5 C2 1_555 1_555
C1 C2 1_555 1_555
Na1A O3A 1_555 1_555
Na2A O2A 1_555 1_555

#END
