
#######################################################################
#
#                 Cambridge Crystallographic Data Centre
#                                CCDC 
#
#######################################################################
#
# If this CIF has been generated from an entry in the Cambridge 
# Structural Database, then it will include bibliographic, chemical, 
# crystal, experimental, refinement or atomic coordinate data resulting 
# from the CCDC's data processing and validation procedures.
#
#######################################################################

data_IFABIA01
_symmetry_cell_setting           monoclinic
_symmetry_space_group_name_H-M   'C 2/c'
_symmetry_Int_Tables_number      15
_space_group_name_Hall           '-C 2yn'
loop_
_symmetry_equiv_pos_site_id
_symmetry_equiv_pos_as_xyz
1 x,y,z
2 1/2+x,1/2+y,z
3 -x,y,1/2-z
4 1/2-x,1/2+y,1/2-z
5 -x,-y,-z
6 1/2-x,1/2-y,-z
7 x,-y,1/2+z
8 1/2+x,1/2-y,1/2+z
_cell_length_a                   17.978(4)
_cell_length_b                   6.3581(13)
_cell_length_c                   7.2579(15)
_cell_angle_alpha                90
_cell_angle_beta                 91.46(3)
_cell_angle_gamma                90
_cell_volume                     829.352
loop_
_atom_site_label
_atom_site_type_symbol
_atom_site_fract_x
_atom_site_fract_y
_atom_site_fract_z
Zn1 Zn 0.0000 0.68446(6) 1.2500
O1 O -0.09544(9) 0.5765(3) 1.1603(3)
O2 O -0.04592(9) 0.2984(3) 1.0251(2)
O3 O 0.0000 0.9955(4) 1.2500
H1 H 0.0144(19) 1.082(5) 1.330(4)
C1 C -0.10127(12) 0.4044(4) 1.0752(3)
C2 C -0.17851(11) 0.3246(4) 1.0362(3)
C3 C -0.18910(13) 0.1273(4) 0.9562(3)
H2 H -0.1482 0.0454 0.9270
C4 C -0.23968(12) 0.4472(4) 1.0798(3)
H3 H -0.2327 0.5790 1.1332
C4E C -0.26032(12) 0.0528(4) 0.9202(3)
C2E C -0.32149(11) 0.1754(4) 0.9638(3)
C1E C -0.39873(12) 0.0956(4) 0.9248(3)
O1E O -0.40456(9) -0.0765(3) 0.8397(3)
O2E O -0.45408(9) 0.2016(3) 0.9749(2)
C3E C -0.31090(13) 0.3727(4) 1.0438(3)
H2E H -0.3518 0.4546 1.0730
H3E H -0.2673 -0.0790 0.8668
H1B H -0.0144(19) 1.082(5) 1.170(4)
O1B O 0.09544(9) 0.5765(3) 1.3397(3)
O2F O -0.04592(9) 0.7016(3) 1.5251(2)
O2D O 0.04592(9) 0.7016(3) 0.9749(2)
Zn1F Zn 0.0000 0.31554(6) 0.7500
Zn1G Zn -0.5000 -0.18446(6) 0.7500
Zn1A Zn -0.5000 0.18446(6) 1.2500
loop_
_geom_bond_atom_site_label_1
_geom_bond_atom_site_label_2
_geom_bond_site_symmetry_1
_geom_bond_site_symmetry_2
Zn1 O1 1_555 1_555
O1 C1 1_555 1_555
O2 C1 1_555 1_555
O3 Zn1 1_555 1_555
H1 O3 1_555 1_555
C1 C2 1_555 1_555
C2 C3 1_555 1_555
C3 H2 1_555 1_555
C4 C2 1_555 1_555
H3 C4 1_555 1_555
C4E C3 1_555 1_555
C2E C4E 1_555 1_555
C1E C2E 1_555 1_555
O1E C1E 1_555 1_555
O2E C1E 1_555 1_555
C3E C4 1_555 1_555
H2E C3E 1_555 1_555
H3E C4E 1_555 1_555
H1B O3 1_555 1_555
O1B Zn1 1_555 1_555
O2F Zn1 1_555 1_555
O2D Zn1 1_555 1_555
Zn1F O2 1_555 1_555
Zn1G O1E 1_555 1_555
Zn1A O2E 1_555 1_555
C2E C3E 1_555 1_555

#END
