
#######################################################################
#
#                 Cambridge Crystallographic Data Centre
#                                CCDC 
#
#######################################################################
#
# If this CIF has been generated from an entry in the Cambridge 
# Structural Database, then it will include bibliographic, chemical, 
# crystal, experimental, refinement or atomic coordinate data resulting 
# from the CCDC's data processing and validation procedures.
#
#######################################################################

data_IFABIA03
_symmetry_cell_setting           monoclinic
_symmetry_space_group_name_H-M   'C 2/c'
_symmetry_Int_Tables_number      15
_space_group_name_Hall           '-C 2yn'
loop_
_symmetry_equiv_pos_site_id
_symmetry_equiv_pos_as_xyz
1 x,y,z
2 -x,y,1/2-z
3 1/2+x,1/2+y,z
4 1/2-x,1/2+y,1/2-z
5 -x,-y,-z
6 x,-y,1/2+z
7 1/2-x,1/2-y,-z
8 1/2+x,1/2-y,1/2+z
_cell_length_a                   17.9537(10)
_cell_length_b                   6.3506(3)
_cell_length_c                   7.2542(4)
_cell_angle_alpha                90
_cell_angle_beta                 91.419(5)
_cell_angle_gamma                90
_cell_volume                     826.847
loop_
_atom_site_label
_atom_site_type_symbol
_atom_site_fract_x
_atom_site_fract_y
_atom_site_fract_z
Zn1 Zn 0.0000 0.31559(6) 0.7500
O1 O 0.04623(12) 0.2984(3) 0.4750(3)
O2 O 0.09569(11) 0.5767(3) 0.3395(3)
C1 C 0.17839(17) 0.3254(4) 0.4633(4)
C2 C 0.18946(18) 0.1269(5) 0.5442(4)
H1 H 0.1487 0.0444 0.5741
C3 C 0.23968(16) 0.4456(4) 0.4207(4)
H2 H 0.2328 0.5777 0.3675
C4 C 0.10156(15) 0.4040(4) 0.4251(3)
O3 O 0.0000 0.0044(5) 0.7500
H3 H -0.015(3) -0.083(8) 0.655(7)
O1F O 0.45377(12) 0.2016(3) 0.5250(3)
O2F O 0.40431(11) -0.0767(3) 0.6605(3)
C1F C 0.32161(17) 0.1746(4) 0.5367(4)
C2F C 0.31054(18) 0.3731(5) 0.4558(4)
H1F H 0.3513 0.4556 0.4259
C3F C 0.26032(16) 0.0544(4) 0.5793(4)
H2F H 0.2672 -0.0777 0.6325
C4F C 0.39844(15) 0.0960(4) 0.5749(3)
H3A H 0.015(3) -0.083(8) 0.845(7)
Zn1B Zn 0.5000 -0.18441(6) 0.7500
Zn1D Zn 0.0000 0.68441(6) 0.2500
Zn1F Zn 0.5000 0.18441(6) 0.2500
O1A O -0.04623(12) 0.2984(3) 1.0250(3)
O2D O -0.09569(11) 0.4233(3) 0.6605(3)
O2E O 0.09569(11) 0.4233(3) 0.8395(3)
loop_
_geom_bond_atom_site_label_1
_geom_bond_atom_site_label_2
_geom_bond_site_symmetry_1
_geom_bond_site_symmetry_2
Zn1 O1 1_555 1_555
O1 C4 1_555 1_555
O2 C4 1_555 1_555
C1 C2 1_555 1_555
C2 H1 1_555 1_555
C3 C1 1_555 1_555
H2 C3 1_555 1_555
C4 C1 1_555 1_555
O3 Zn1 1_555 1_555
H3 O3 1_555 1_555
O1F C4F 1_555 1_555
O2F C4F 1_555 1_555
C1F C2F 1_555 1_555
C2F C3 1_555 1_555
H1F C2F 1_555 1_555
C3F C2 1_555 1_555
H2F C3F 1_555 1_555
C4F C1F 1_555 1_555
H3A O3 1_555 1_555
Zn1B O2F 1_555 1_555
Zn1D O2 1_555 1_555
Zn1F O1F 1_555 1_555
O1A Zn1 1_555 1_555
O2D Zn1 1_555 1_555
O2E Zn1 1_555 1_555
C1F C3F 1_555 1_555

#END
