
#######################################################################
#
#                 Cambridge Crystallographic Data Centre
#                                CCDC 
#
#######################################################################
#
# If this CIF has been generated from an entry in the Cambridge 
# Structural Database, then it will include bibliographic, chemical, 
# crystal, experimental, refinement or atomic coordinate data resulting 
# from the CCDC's data processing and validation procedures.
#
#######################################################################

data_IFABIA
_symmetry_cell_setting           monoclinic
_symmetry_space_group_name_H-M   'C 2/c'
_symmetry_Int_Tables_number      15
_space_group_name_Hall           '-C 2yn'
loop_
_symmetry_equiv_pos_site_id
_symmetry_equiv_pos_as_xyz
1 x,y,z
2 1/2+x,1/2+y,z
3 -x,y,1/2-z
4 1/2-x,1/2+y,1/2-z
5 -x,-y,-z
6 1/2-x,1/2-y,-z
7 x,-y,1/2+z
8 1/2+x,1/2-y,1/2+z
_cell_length_a                   17.9792(10)
_cell_length_b                   6.35271(31)
_cell_length_c                   7.25721(30)
_cell_angle_alpha                90
_cell_angle_beta                 91.466(4)
_cell_angle_gamma                90
_cell_volume                     828.623
loop_
_atom_site_label
_atom_site_type_symbol
_atom_site_fract_x
_atom_site_fract_y
_atom_site_fract_z
Zn1 Zn 0.0000 0.6864(6) 0.2500
O1 O -0.0978(5) 0.5656(16) 0.1602(14)
O2 O 0.0000 1.0041(19) 0.2500
O3 O -0.0474(4) 0.2939(15) 0.0340(11)
C1 C -0.1123(7) 0.3877(23) 0.0674(22)
C2 C -0.1835(8) 0.2950(32) 0.0327(18)
C3 C -0.2410(10) 0.4585(21) 0.0899(20)
C4 C -0.1891(9) 0.1083(27) -0.0533(21)
C4E C -0.3109(9) 0.3917(27) 0.0533(21)
C2E C -0.3165(8) 0.2050(32) -0.0327(18)
C1E C -0.3877(7) 0.1123(23) -0.0674(22)
O1E O -0.4022(5) -0.0656(16) -0.1602(14)
O3E O -0.4526(4) 0.2061(15) -0.0340(11)
C3E C -0.2590(10) 0.0415(21) -0.0899(20)
O1B O 0.0978(5) 0.5656(16) 0.3398(14)
O3F O -0.0474(4) 0.7061(15) 0.5340(11)
O3D O 0.0474(4) 0.7061(15) -0.0340(11)
Zn1F Zn 0.0000 0.3136(6) -0.2500
Zn1G Zn -0.5000 -0.1864(6) -0.2500
Zn1A Zn -0.5000 0.1864(6) 0.2500
loop_
_geom_bond_atom_site_label_1
_geom_bond_atom_site_label_2
_geom_bond_site_symmetry_1
_geom_bond_site_symmetry_2
Zn1 O1 1_555 1_555
O1 C1 1_555 1_555
O2 Zn1 1_555 1_555
O3 C1 1_555 1_555
C1 C2 1_555 1_555
C2 C3 1_555 1_555
C3 C4E 1_555 1_555
C4 C2 1_555 1_555
C4E C2E 1_555 1_555
C2E C1E 1_555 1_555
C1E O1E 1_555 1_555
O1E Zn1G 1_555 1_555
O3E C1E 1_555 1_555
C3E C4 1_555 1_555
O1B Zn1 1_555 1_555
O3F Zn1 1_555 1_555
O3D Zn1 1_555 1_555
Zn1F O3 1_555 1_555
Zn1A O3E 1_555 1_555
C2E C3E 1_555 1_555

#END
