
#######################################################################
#
#                 Cambridge Crystallographic Data Centre
#                                CCDC 
#
#######################################################################
#
# If this CIF has been generated from an entry in the Cambridge 
# Structural Database, then it will include bibliographic, chemical, 
# crystal, experimental, refinement or atomic coordinate data resulting 
# from the CCDC's data processing and validation procedures.
#
#######################################################################

data_IFACAT01
_symmetry_cell_setting           monoclinic
_symmetry_space_group_name_H-M   'P 21/c'
_symmetry_Int_Tables_number      14
_space_group_name_Hall           '-P 2ybc'
loop_
_symmetry_equiv_pos_site_id
_symmetry_equiv_pos_as_xyz
1 x,y,z
2 -x,1/2+y,1/2-z
3 -x,-y,-z
4 x,1/2-y,1/2+z
_cell_length_a                   13.045(5)
_cell_length_b                   9.655(3)
_cell_length_c                   18.462(6)
_cell_angle_alpha                90
_cell_angle_beta                 106.892(4)
_cell_angle_gamma                90
_cell_volume                     2224.95
loop_
_atom_site_label
_atom_site_type_symbol
_atom_site_fract_x
_atom_site_fract_y
_atom_site_fract_z
Zn1 Zn 0.25781(2) 0.54356(3) 0.048316(15)
Zn2 Zn 0.0000 0.5000 0.0000
O1 O 0.08369(15) 0.3638(2) 0.07916(10)
O2 O 0.25245(15) 0.4275(2) 0.13458(10)
O3 O 0.06891(16) 0.0617(2) 0.41741(10)
O4 O 0.24782(15) 0.0607(2) 0.45674(10)
O5 O 0.12607(14) 0.65678(18) 0.04104(10)
O6 O 0.22136(18) 0.7789(2) -0.01674(15)
O7 O 0.40263(18) 0.6119(3) 0.09157(16)
H1 H 0.430(3) 0.652(5) 0.067(2)
H2 H 0.454(4) 0.563(5) 0.124(3)
C1 C 0.1666(2) 0.3661(3) 0.13360(14)
C2 C 0.1660(2) 0.2904(3) 0.20465(14)
C3 C 0.2581(2) 0.2810(3) 0.26486(15)
H3 H 0.3218 0.3184 0.2607
C4 C 0.2559(2) 0.2162(3) 0.33139(15)
H4 H 0.3181 0.2109 0.3718
C5 C 0.1620(2) 0.1595(3) 0.33790(14)
C6 C 0.0696(2) 0.1666(3) 0.27710(16)
H5 H 0.0062 0.1278 0.2810
C7 C 0.0718(2) 0.2313(4) 0.21072(16)
H6 H 0.0100 0.2353 0.1700
C8 C 0.1582(2) 0.0886(3) 0.40959(14)
C9 C 0.1435(2) 0.7696(3) 0.00780(15)
C10 C 0.0678(2) 0.8878(3) 0.00336(15)
C11 C -0.0036(2) 0.8875(3) 0.04584(16)
H7 H -0.0058 0.8125 0.0770
C12 C 0.0723(2) 1.0010(3) -0.04218(17)
H8 H 0.1211 1.0021 -0.0702
Zn1B Zn -0.25781(2) 0.45644(3) -0.048316(15)
Zn1C Zn 0.25781(2) -0.04356(3) 0.548316(15)
Zn1B_2 Zn -0.25781(2) 1.45644(3) -0.048316(15)
Zn1A Zn -0.25781(2) 1.04356(3) -0.548316(15)
Zn2C Zn 0.0000 0.0000 0.5000
Zn2_2 Zn 0.0000 1.5000 0.0000
Zn2C_2 Zn 0.0000 1.0000 -0.5000
O1B O -0.08369(15) 0.6362(2) -0.07916(10)
O2B O -0.25245(15) 0.5725(2) -0.13458(10)
O3B O -0.06891(16) 0.9383(2) -0.41741(10)
O3C O 0.06891(16) 0.4383(2) -0.08259(10)
O3A O -0.06891(16) 0.5617(2) 0.08259(10)
O4B O -0.24782(15) 0.9393(2) -0.45674(10)
O4C O 0.24782(15) 0.4393(2) -0.04326(10)
O4A O -0.24782(15) 0.5607(2) 0.04326(10)
O5B O -0.12607(14) 1.34322(18) -0.04104(10)
O5B_2 O -0.12607(14) 0.34322(18) -0.04104(10)
O6B O -0.22136(18) 1.2211(2) 0.01674(15)
O7B O -0.40263(18) 0.3881(3) -0.09157(16)
H1B H -0.430(3) 0.348(5) -0.067(2)
H2B H -0.454(4) 0.437(5) -0.124(3)
C1B C -0.1666(2) 0.6339(3) -0.13360(14)
C2B C -0.1660(2) 0.7096(3) -0.20465(14)
C3B C -0.2581(2) 0.7190(3) -0.26486(15)
H3B H -0.3218 0.6816 -0.2607
C4B C -0.2559(2) 0.7838(3) -0.33139(15)
H4B H -0.3181 0.7891 -0.3718
C5B C -0.1620(2) 0.8405(3) -0.33790(14)
C6B C -0.0696(2) 0.8334(3) -0.27710(16)
H5B H -0.0062 0.8722 -0.2810
C7B C -0.0718(2) 0.7687(4) -0.21072(16)
H6B H -0.0100 0.7647 -0.1700
C8B C -0.1582(2) 0.9114(3) -0.40959(14)
C9B C -0.1435(2) 1.2304(3) -0.00780(15)
C10B C -0.0678(2) 1.1122(3) -0.00336(15)
C11B C 0.0036(2) 1.1125(3) -0.04584(16)
H7B H 0.0058 1.1875 -0.0770
C12B C -0.0723(2) 0.9990(3) 0.04218(17)
H8B H -0.1211 0.9979 0.0702
N1 N 0.7024(2) 0.3482(4) 0.22096(17)
O8 O 0.5462(2) 0.4629(4) 0.18930(18)
C13 C 0.6227(3) 0.4144(4) 0.1739(2)
H9 H 0.629(3) 0.420(4) 0.124(2)
C14 C 0.7064(5) 0.3357(10) 0.2997(3)
H10 H 0.6422 0.3738 0.3071
H11 H 0.7674 0.3852 0.3304
H12 H 0.7122 0.2397 0.3140
C15 C 0.7923(4) 0.2952(6) 0.1995(3)
H13 H 0.7811 0.3101 0.1464
H14 H 0.7997 0.1978 0.2102
H15 H 0.8563 0.3422 0.2277
N2 N 0.4803(3) 0.1145(4) 0.0816(2)
O9 O 0.4957(3) 0.2348(4) -0.0188(2)
C16 C 0.5344(4) 0.1672(5) 0.0361(3)
H16 H 0.623(5) 0.135(7) 0.060(3)
C17 C 0.3717(5) 0.1416(7) 0.0687(4)
H17 H 0.3464 0.1983 0.0243
H18 H 0.3610 0.1893 0.1115
H19 H 0.3327 0.0559 0.0613
C18 C 0.5356(6) 0.0313(7) 0.1449(4)
H20 H 0.6094 0.0224 0.1461
H21 H 0.5033 -0.0588 0.1404
H22 H 0.5314 0.0744 0.1908
loop_
_geom_bond_atom_site_label_1
_geom_bond_atom_site_label_2
_geom_bond_site_symmetry_1
_geom_bond_site_symmetry_2
Zn1 O2 1_555 1_555
Zn2 O1 1_555 1_555
O1 C1 1_555 1_555
O2 C1 1_555 1_555
O3 C8 1_555 1_555
O4 C8 1_555 1_555
O5 Zn1 1_555 1_555
O6 C9 1_555 1_555
O7 Zn1 1_555 1_555
H1 O7 1_555 1_555
H2 O7 1_555 1_555
C1 C2 1_555 1_555
C2 C3 1_555 1_555
C3 H3 1_555 1_555
C4 C3 1_555 1_555
H4 C4 1_555 1_555
C5 C4 1_555 1_555
C6 C5 1_555 1_555
H5 C6 1_555 1_555
C7 C2 1_555 1_555
H6 C7 1_555 1_555
C8 C5 1_555 1_555
C9 O5 1_555 1_555
C10 C9 1_555 1_555
C11 C10 1_555 1_555
H7 C11 1_555 1_555
C12 C10 1_555 1_555
H8 C12 1_555 1_555
N1 C13 1_555 1_555
O8 C13 1_555 1_555
C13 H9 1_555 1_555
C14 N1 1_555 1_555
H10 C14 1_555 1_555
H11 C14 1_555 1_555
H12 C14 1_555 1_555
C15 N1 1_555 1_555
H13 C15 1_555 1_555
H14 C15 1_555 1_555
H15 C15 1_555 1_555
N2 C16 1_555 1_555
O9 C16 1_555 1_555
C16 H16 1_555 1_555
C17 N2 1_555 1_555
H17 C17 1_555 1_555
H18 C17 1_555 1_555
H19 C17 1_555 1_555
C18 N2 1_555 1_555
H20 C18 1_555 1_555
H21 C18 1_555 1_555
H22 C18 1_555 1_555
Zn1B O2B 1_555 1_555
Zn1C O4 1_555 1_555
Zn1B_2 O5B 1_555 1_555
Zn1A O4B 1_555 1_555
Zn2C O3 1_555 1_555
Zn2_2 O5B 1_555 1_555
Zn2C_2 O3B 1_555 1_555
O1B Zn2 1_555 1_555
O2B C1B 1_555 1_555
O3B C8B 1_555 1_555
O3C Zn2 1_555 1_555
O3A Zn2 1_555 1_555
O4B C8B 1_555 1_555
O4C Zn1 1_555 1_555
O4A Zn1B 1_555 1_555
O5B C9B 1_555 1_555
O5B_2 Zn2 1_555 1_555
O6B C9B 1_555 1_555
O7B Zn1B 1_555 1_555
H1B O7B 1_555 1_555
H2B O7B 1_555 1_555
C1B O1B 1_555 1_555
C2B C1B 1_555 1_555
C3B C2B 1_555 1_555
H3B C3B 1_555 1_555
C4B C3B 1_555 1_555
H4B C4B 1_555 1_555
C5B C4B 1_555 1_555
C6B C5B 1_555 1_555
H5B C6B 1_555 1_555
C7B C2B 1_555 1_555
H6B C7B 1_555 1_555
C8B C5B 1_555 1_555
C9B C10B 1_555 1_555
C10B C11B 1_555 1_555
C11B C12 1_555 1_555
H7B C11B 1_555 1_555
C12B C11 1_555 1_555
H8B C12B 1_555 1_555
Zn2 O5 1_555 1_555
C6 C7 1_555 1_555
Zn1B O5B_2 1_555 1_555
C6B C7B 1_555 1_555
C10B C12B 1_555 1_555

#END
