
#######################################################################
#
#                 Cambridge Crystallographic Data Centre
#                                CCDC 
#
#######################################################################
#
# If this CIF has been generated from an entry in the Cambridge 
# Structural Database, then it will include bibliographic, chemical, 
# crystal, experimental, refinement or atomic coordinate data resulting 
# from the CCDC's data processing and validation procedures.
#
#######################################################################

data_IFACAU
_symmetry_cell_setting           triclinic
_symmetry_space_group_name_H-M   'P -1'
_symmetry_Int_Tables_number      2
_space_group_name_Hall           '-P 1'
loop_
_symmetry_equiv_pos_site_id
_symmetry_equiv_pos_as_xyz
1 x,y,z
2 -x,-y,-z
_cell_length_a                   6.8680(7)
_cell_length_b                   8.5558(8)
_cell_length_c                   8.9769(9)
_cell_angle_alpha                102.552(2)
_cell_angle_beta                 93.594(2)
_cell_angle_gamma                104.500(2)
_cell_volume                     494.644
loop_
_atom_site_label
_atom_site_type_symbol
_atom_site_fract_x
_atom_site_fract_y
_atom_site_fract_z
Co1 Co 0.5000 0.5000 0.0000
O1 O 0.9174(3) 1.0865(2) 0.12274(17)
H1 H 0.9413 1.1426 0.0593
O2 O 1.0820(3) 1.3253(2) 0.28830(19)
O3 O 1.0271(3) 0.7692(2) 0.10442(18)
O4 O 0.7040(2) 0.71426(18) 0.15314(17)
O5 O 0.2720(2) 0.5612(2) 0.12777(19)
H2 H 0.2167 0.6180 0.0863
H3 H 0.2136 0.4814 0.1599
N1 N 0.4677(3) 0.6503(2) -0.1578(2)
C1 C 0.8885(3) 0.7882(3) 0.1859(2)
C2 C 1.0028(3) 1.1768(3) 0.2595(2)
C3 C 0.9490(3) 0.9044(3) 0.3459(2)
C4 C 0.4693(3) 0.8309(3) -0.3860(3)
C5 C 0.9956(3) 1.0785(3) 0.3793(2)
C6 C 0.4744(4) 0.9182(3) -0.5098(3)
H4 H 0.4389 0.8536 -0.6101
C7 C 1.0440(3) 1.1695(3) 0.5313(2)
H5 H 1.0729 1.2848 0.5517
C8 C 0.5437(4) 0.9093(3) -0.2329(3)
H6 H 0.5965 1.0243 -0.2038
C9 C 0.3925(4) 0.6594(3) -0.4198(3)
H7 H 0.3377 0.6009 -0.5197
C10 C 0.5393(4) 0.8171(3) -0.1244(3)
H8 H 0.5884 0.8730 -0.0228
C11 C 0.3975(4) 0.5760(3) -0.3053(3)
H9 H 0.3490 0.4607 -0.3321
Co1_2 Co 1.5000 1.5000 1.0000
Co1_3 Co 0.5000 1.5000 -1.0000
O1A O 1.0826(3) 0.9135(2) 0.87726(17)
H1A H 1.0587 0.8574 0.9407
O2A O 0.9180(3) 0.6747(2) 0.71170(19)
O3A O 0.9729(3) 1.2308(2) 0.89558(18)
O4A O 1.2960(2) 1.28574(18) 0.84686(17)
O4A_2 O 0.2960(2) 0.28574(18) -0.15314(17)
O5A O 0.7280(2) 0.4388(2) -0.12777(19)
H2A H 0.7833 0.3820 -0.0863
H3A H 0.7864 0.5186 -0.1599
N1A N 0.5323(3) 1.3497(2) -0.8422(2)
N1A_2 N 0.5323(3) 0.3497(2) 0.1578(2)
C1A C 1.1115(3) 1.2118(3) 0.8141(2)
C2A C 0.9972(3) 0.8232(3) 0.7405(2)
C3A C 1.0510(3) 1.0956(3) 0.6541(2)
C4A C 0.5307(3) 1.1691(3) -0.6140(3)
C5A C 1.0044(3) 0.9215(3) 0.6207(2)
C6A C 0.5256(4) 1.0818(3) -0.4902(3)
H4A H 0.5611 1.1464 -0.3899
C7A C 0.9560(3) 0.8305(3) 0.4687(2)
H5A H 0.9271 0.7152 0.4483
C8A C 0.4563(4) 1.0907(3) -0.7671(3)
H6A H 0.4035 0.9757 -0.7962
C9A C 0.6075(4) 1.3406(3) -0.5802(3)
H7A H 0.6623 1.3991 -0.4803
C10A C 0.4607(4) 1.1829(3) -0.8756(3)
H8A H 0.4116 1.1270 -0.9772
C11A C 0.6025(4) 1.4240(3) -0.6947(3)
H9A H 0.6510 1.5393 -0.6679
loop_
_geom_bond_atom_site_label_1
_geom_bond_atom_site_label_2
_geom_bond_site_symmetry_1
_geom_bond_site_symmetry_2
Co1 O4 1_555 1_555
O1 H1 1_555 1_555
O2 C2 1_555 1_555
O3 C1 1_555 1_555
O4 C1 1_555 1_555
O5 Co1 1_555 1_555
H2 O5 1_555 1_555
H3 O5 1_555 1_555
N1 Co1 1_555 1_555
C1 C3 1_555 1_555
C2 O1 1_555 1_555
C3 C5 1_555 1_555
C4 C6 1_555 1_555
C5 C2 1_555 1_555
C6 H4 1_555 1_555
C7 C5 1_555 1_555
H5 C7 1_555 1_555
C8 C4 1_555 1_555
H6 C8 1_555 1_555
C9 C4 1_555 1_555
H7 C9 1_555 1_555
C10 N1 1_555 1_555
H8 C10 1_555 1_555
C11 N1 1_555 1_555
H9 C11 1_555 1_555
Co1_2 O4A 1_555 1_555
Co1_3 N1A 1_555 1_555
O1A H1A 1_555 1_555
O2A C2A 1_555 1_555
O3A C1A 1_555 1_555
O4A C1A 1_555 1_555
O4A_2 Co1 1_555 1_555
O5A Co1 1_555 1_555
H2A O5A 1_555 1_555
H3A O5A 1_555 1_555
N1A C10A 1_555 1_555
N1A_2 Co1 1_555 1_555
C1A C3A 1_555 1_555
C2A O1A 1_555 1_555
C3A C7 1_555 1_555
C4A C6A 1_555 1_555
C5A C2A 1_555 1_555
C6A C6 1_555 1_555
H4A C6A 1_555 1_555
C7A C3 1_555 1_555
H5A C7A 1_555 1_555
C8A C4A 1_555 1_555
H6A C8A 1_555 1_555
C9A C4A 1_555 1_555
H7A C9A 1_555 1_555
C10A C8A 1_555 1_555
H8A C10A 1_555 1_555
C11A N1A 1_555 1_555
H9A C11A 1_555 1_555
C8 C10 1_555 1_555
C9 C11 1_555 1_555
C3A C5A 1_555 1_555
C5A C7A 1_555 1_555
C9A C11A 1_555 1_555

#END
