
#######################################################################
#
#                 Cambridge Crystallographic Data Centre
#                                CCDC 
#
#######################################################################
#
# If this CIF has been generated from an entry in the Cambridge 
# Structural Database, then it will include bibliographic, chemical, 
# crystal, experimental, refinement or atomic coordinate data resulting 
# from the CCDC's data processing and validation procedures.
#
#######################################################################

data_IFACOH
_symmetry_cell_setting           triclinic
_symmetry_space_group_name_H-M   'P -1'
_symmetry_Int_Tables_number      2
_space_group_name_Hall           '-P 1'
loop_
_symmetry_equiv_pos_site_id
_symmetry_equiv_pos_as_xyz
1 x,y,z
2 -x,-y,-z
_cell_length_a                   10.373(4)
_cell_length_b                   11.252(5)
_cell_length_c                   8.123(3)
_cell_angle_alpha                105.43(4)
_cell_angle_beta                 112.22(3)
_cell_angle_gamma                89.70(3)
_cell_volume                     841.204
loop_
_atom_site_label
_atom_site_type_symbol
_atom_site_fract_x
_atom_site_fract_y
_atom_site_fract_z
Ag1 Ag 0.53964(6) -0.35886(5) -0.60808(7)
Ag2 Ag 0.17901(6) -0.10782(5) -1.50264(7)
S1 S 0.2961(2) -0.3560(2) -1.3742(2)
S2 S 0.8255(2) -0.1546(2) 0.1844(2)
O1 O 0.3277(7) -0.2240(5) -1.2979(7)
O2 O 0.4147(5) -0.4136(5) -1.4026(7)
O3 O 0.1668(5) -0.3952(7) -1.5314(7)
O4 O 0.6963(5) -0.2194(5) 0.1584(6)
O5 O 0.9488(5) -0.1938(5) 0.3081(6)
O6 O 0.8250(6) -0.0207(4) 0.2309(6)
N1 N 0.3722(6) -0.4062(5) -0.8780(7)
N2 N 0.7249(6) -0.2731(5) -0.3642(7)
N3 N 0.3008(7) -0.0646(6) -1.6544(8)
C1 C 0.2518(8) -0.4706(7) -0.9105(9)
C2 C 0.1421(7) -0.5085(6) -1.0814(9)
C3 C 0.1547(7) -0.4772(6) -1.2267(8)
C4 C 0.2756(7) -0.4085(6) -1.1965(8)
C5 C 0.3835(7) -0.3754(6) -1.0212(8)
C6 C 0.8477(8) -0.2483(6) -0.3752(9)
C7 C 0.9683(8) -0.1978(7) -0.2227(10)
C8 C 0.9647(7) -0.1708(7) -0.0488(9)
C9 C 0.8390(7) -0.1946(6) -0.0351(8)
C10 C 0.7222(7) -0.2452(6) -0.1948(8)
C11 C 0.3635(8) -0.0506(7) -1.7356(9)
C12 C 0.4442(8) -0.0338(7) -1.8407(10)
H1 H 0.2426 -0.4918 -0.8097
H2 H 0.0594 -0.5549 -1.0981
H3 H 0.0822 -0.5030 -1.3458
H4 H 0.4673 -0.3298 -1.0020
H5 H 0.8502 -0.2669 -0.4956
H6 H 1.0527 -0.1812 -0.2368
H7 H 1.0463 -0.1369 0.0596
H8 H 0.6361 -0.2607 -0.1837
H9 H 0.4336 -0.1081 -1.9360
H10 H 0.5406 -0.0135 -1.7604
H11 H 0.4124 0.0317 -1.8947
O5_2 O -0.0512(5) -0.1938(5) -1.6919(6)
O6A O 0.1750(6) 0.0207(4) -1.2309(6)
Ag2_2 Ag 1.17901(6) -0.10782(5) 0.49736(7)
Ag2A Ag 0.82099(6) 0.10782(5) 0.50264(7)
loop_
_geom_bond_atom_site_label_1
_geom_bond_atom_site_label_2
_geom_bond_site_symmetry_1
_geom_bond_site_symmetry_2
Ag1 N1 1_555 1_555
Ag2 O1 1_555 1_555
S1 O1 1_555 1_555
S2 O4 1_555 1_555
O2 S1 1_555 1_555
O3 S1 1_555 1_555
O5 S2 1_555 1_555
O6 S2 1_555 1_555
N1 C1 1_555 1_555
N2 Ag1 1_555 1_555
N3 Ag2 1_555 1_555
C1 C2 1_555 1_555
C2 C3 1_555 1_555
C3 C4 1_555 1_555
C4 S1 1_555 1_555
C5 N1 1_555 1_555
C6 N2 1_555 1_555
C7 C6 1_555 1_555
C8 C7 1_555 1_555
C9 S2 1_555 1_555
C10 N2 1_555 1_555
C11 N3 1_555 1_555
C12 C11 1_555 1_555
H1 C1 1_555 1_555
H2 C2 1_555 1_555
H3 C3 1_555 1_555
H4 C5 1_555 1_555
H5 C6 1_555 1_555
H6 C7 1_555 1_555
H7 C8 1_555 1_555
H8 C10 1_555 1_555
H9 C12 1_555 1_555
H10 C12 1_555 1_555
H11 C12 1_555 1_555
O5_2 Ag2 1_555 1_555
O6A Ag2 1_555 1_555
Ag2_2 O5 1_555 1_555
Ag2A O6 1_555 1_555
C4 C5 1_555 1_555
C8 C9 1_555 1_555
C9 C10 1_555 1_555

#END
