
#######################################################################
#
#                 Cambridge Crystallographic Data Centre
#                                CCDC 
#
#######################################################################
#
# If this CIF has been generated from an entry in the Cambridge 
# Structural Database, then it will include bibliographic, chemical, 
# crystal, experimental, refinement or atomic coordinate data resulting 
# from the CCDC's data processing and validation procedures.
#
#######################################################################

data_IFACAT
_symmetry_cell_setting           monoclinic
_symmetry_space_group_name_H-M   'P 21/c'
_symmetry_Int_Tables_number      14
_space_group_name_Hall           '-P 2ybc'
loop_
_symmetry_equiv_pos_site_id
_symmetry_equiv_pos_as_xyz
1 x,y,z
2 -x,1/2+y,1/2-z
3 -x,-y,-z
4 x,1/2-y,1/2+z
_cell_length_a                   13.0647(10)
_cell_length_b                   9.6606(8)
_cell_length_c                   18.4562(14)
_cell_angle_alpha                90
_cell_angle_beta                 106.868(2)
_cell_angle_gamma                90
_cell_volume                     2229.19
loop_
_atom_site_label
_atom_site_type_symbol
_atom_site_fract_x
_atom_site_fract_y
_atom_site_fract_z
Zn1 Zn -0.25782(5) 0.45635(6) 0.45163(4)
Zn2 Zn 0.0000 0.5000 0.5000
O1 O -0.2520(3) 0.5733(4) 0.3656(2)
O2 O -0.0832(3) 0.6358(4) 0.4205(2)
C1 C -0.1658(5) 0.6343(5) 0.3664(3)
C2 C -0.1647(4) 0.7107(6) 0.2952(3)
C3 C -0.0723(5) 0.7672(7) 0.2884(4)
H1 H -0.0100 0.7611 0.3285
C4 C -0.0705(5) 0.8329(6) 0.2229(3)
H2 H -0.0073 0.8727 0.2194
C5 C -0.1616(4) 0.8405(6) 0.1621(3)
C6 C -0.2553(5) 0.7847(6) 0.1684(3)
H3 H -0.3175 0.7911 0.1282
C7 C -0.2573(5) 0.7182(6) 0.2354(3)
H4 H -0.3204 0.6793 0.2397
C8 C -0.1576(5) 0.9107(5) 0.0904(3)
O3 O -0.2487(3) 0.9393(4) 0.0434(2)
O4 O -0.0688(3) 0.9381(4) 0.0826(2)
O5 O -0.1265(3) 0.3423(4) 0.4586(2)
O6 O -0.2204(4) 0.2212(4) 0.5170(3)
C9 C -0.1442(5) 0.2310(6) 0.4917(3)
C10 C -0.0679(4) 0.1123(5) 0.4968(3)
C11 C 0.0042(5) 0.1122(6) 0.4547(4)
H5 H 0.0074 0.1877 0.4241
C12 C -0.0720(5) 0.0005(6) 0.5420(3)
H6 H -0.1201 0.0002 0.5705
O7 O -0.4031(3) 0.3886(5) 0.4091(3)
H7 H -0.453(5) 0.450(6) 0.374(3)
H8 H -0.446(5) 0.325(6) 0.430(4)
C12B C 0.0720(5) -0.0005(6) 0.4580(3)
C10B C 0.0679(4) -0.1123(5) 0.5032(3)
C9B C 0.1442(5) -0.2310(6) 0.5083(3)
O5B O 0.1265(3) -0.3423(4) 0.5414(2)
O6B O 0.2204(4) -0.2212(4) 0.4830(3)
C11B C -0.0042(5) -0.1122(6) 0.5453(4)
H5B H -0.0074 -0.1877 0.5759
H6B H 0.1201 -0.0002 0.4295
O1B O 0.2520(3) 0.4267(4) 0.6344(2)
O2B O 0.0832(3) 0.3642(4) 0.5795(2)
C1B C 0.1658(5) 0.3657(5) 0.6336(3)
C2B C 0.1647(4) 0.2893(6) 0.7048(3)
C3B C 0.0723(5) 0.2328(7) 0.7116(4)
H1B H 0.0100 0.2389 0.6715
C4B C 0.0705(5) 0.1671(6) 0.7771(3)
H2B H 0.0073 0.1273 0.7806
C5B C 0.1616(4) 0.1595(6) 0.8379(3)
C6B C 0.2553(5) 0.2153(6) 0.8316(3)
H3B H 0.3175 0.2089 0.8718
C7B C 0.2573(5) 0.2818(6) 0.7646(3)
H4B H 0.3204 0.3207 0.7603
C8B C 0.1576(5) 0.0893(5) 0.9096(3)
O3B O 0.2487(3) 0.0607(4) 0.9566(2)
O4B O 0.0688(3) 0.0619(4) 0.9174(2)
Zn1B Zn 0.25782(5) 0.54365(6) 0.54837(4)
O7B O 0.4031(3) 0.6114(5) 0.5909(3)
H7B H 0.453(5) 0.550(6) 0.626(3)
H8B H 0.446(5) 0.675(6) 0.570(4)
O3C O -0.2487(3) 0.5607(4) 0.5434(2)
O4C O -0.0688(3) 0.5619(4) 0.5826(2)
O4A O 0.0688(3) 0.4381(4) 0.4174(2)
O5B_2 O 0.1265(3) 0.6577(4) 0.5414(2)
Zn1C Zn -0.25782(5) 1.04365(6) -0.04837(4)
Zn2C Zn 0.0000 1.0000 0.0000
Zn1B_2 Zn 0.25782(5) -0.45635(6) 0.54837(4)
Zn2_2 Zn 0.0000 -0.5000 0.5000
Zn1A Zn 0.25782(5) -0.04365(6) 1.04837(4)
Zn2C_2 Zn 0.0000 0.0000 1.0000
O3A O 0.2487(3) 0.4393(4) 0.4566(2)
O8 O -0.5455(5) 0.5362(6) 0.3107(3)
C13 C -0.6223(7) 0.5840(8) 0.3269(4)
H9 H -0.6250 0.5722 0.3763
N1 N -0.7021(5) 0.6514(7) 0.2795(3)
C14 C -0.7933(7) 0.7012(9) 0.2994(5)
H10 H -0.8413 0.7459 0.2564
H11 H -0.7707 0.7663 0.3402
H12 H -0.8291 0.6250 0.3149
C15 C -0.7037(9) 0.6677(16) 0.2015(5)
H13 H -0.7670 0.7173 0.1746
H14 H -0.7037 0.5782 0.1789
H15 H -0.6416 0.7184 0.1992
O9 O -0.5055(5) 0.2359(8) 0.4803(4)
C16 C -0.4672(8) 0.1675(9) 0.5353(6)
H16 H -0.3943 0.1494 0.5473
N2 N -0.5202(6) 0.1142(7) 0.5816(4)
C17 C -0.4646(10) 0.0336(11) 0.6453(6)
H17 H -0.5136 0.0034 0.6720
H18 H -0.4092 0.0885 0.6784
H19 H -0.4333 -0.0457 0.6286
C18 C -0.6287(8) 0.1431(13) 0.5684(7)
H20 H -0.6544 0.0972 0.6058
H21 H -0.6677 0.1107 0.5190
H22 H -0.6385 0.2412 0.5715
loop_
_geom_bond_atom_site_label_1
_geom_bond_atom_site_label_2
_geom_bond_site_symmetry_1
_geom_bond_site_symmetry_2
Zn1 O1 1_555 1_555
Zn2 O2 1_555 1_555
O1 C1 1_555 1_555
O2 C1 1_555 1_555
C1 C2 1_555 1_555
C2 C3 1_555 1_555
C3 H1 1_555 1_555
C4 C3 1_555 1_555
H2 C4 1_555 1_555
C5 C4 1_555 1_555
C6 C5 1_555 1_555
H3 C6 1_555 1_555
C7 C2 1_555 1_555
H4 C7 1_555 1_555
C8 C5 1_555 1_555
O3 C8 1_555 1_555
O4 C8 1_555 1_555
O5 Zn1 1_555 1_555
O6 C9 1_555 1_555
C9 O5 1_555 1_555
C10 C9 1_555 1_555
C11 C10 1_555 1_555
H5 C11 1_555 1_555
C12 C10 1_555 1_555
H6 C12 1_555 1_555
O7 Zn1 1_555 1_555
H7 O7 1_555 1_555
H8 O7 1_555 1_555
O8 C13 1_555 1_555
C13 H9 1_555 1_555
N1 C13 1_555 1_555
C14 N1 1_555 1_555
H10 C14 1_555 1_555
H11 C14 1_555 1_555
H12 C14 1_555 1_555
C15 N1 1_555 1_555
H13 C15 1_555 1_555
H14 C15 1_555 1_555
H15 C15 1_555 1_555
O9 C16 1_555 1_555
C16 H16 1_555 1_555
N2 C16 1_555 1_555
C17 N2 1_555 1_555
H17 C17 1_555 1_555
H18 C17 1_555 1_555
H19 C17 1_555 1_555
C18 N2 1_555 1_555
H20 C18 1_555 1_555
H21 C18 1_555 1_555
H22 C18 1_555 1_555
C12B C11 1_555 1_555
C10B C12B 1_555 1_555
C9B C10B 1_555 1_555
O5B C9B 1_555 1_555
O6B C9B 1_555 1_555
C11B C12 1_555 1_555
H5B C11B 1_555 1_555
H6B C12B 1_555 1_555
O1B C1B 1_555 1_555
O2B Zn2 1_555 1_555
C1B O2B 1_555 1_555
C2B C1B 1_555 1_555
C3B C2B 1_555 1_555
H1B C3B 1_555 1_555
C4B C3B 1_555 1_555
H2B C4B 1_555 1_555
C5B C4B 1_555 1_555
C6B C5B 1_555 1_555
H3B C6B 1_555 1_555
C7B C2B 1_555 1_555
H4B C7B 1_555 1_555
C8B C5B 1_555 1_555
O3B C8B 1_555 1_555
O4B C8B 1_555 1_555
Zn1B O1B 1_555 1_555
O7B Zn1B 1_555 1_555
H7B O7B 1_555 1_555
H8B O7B 1_555 1_555
O3C Zn1 1_555 1_555
O4C Zn2 1_555 1_555
O4A Zn2 1_555 1_555
O5B_2 Zn2 1_555 1_555
Zn1C O3 1_555 1_555
Zn2C O4 1_555 1_555
Zn1B_2 O5B 1_555 1_555
Zn2_2 O5B 1_555 1_555
Zn1A O3B 1_555 1_555
Zn2C_2 O4B 1_555 1_555
O3A Zn1B 1_555 1_555
Zn2 O5 1_555 1_555
C6 C7 1_555 1_555
C10B C11B 1_555 1_555
C6B C7B 1_555 1_555
Zn1B O5B_2 1_555 1_555

#END
