
#######################################################################
#
#                 Cambridge Crystallographic Data Centre
#                                CCDC 
#
#######################################################################
#
# If this CIF has been generated from an entry in the Cambridge 
# Structural Database, then it will include bibliographic, chemical, 
# crystal, experimental, refinement or atomic coordinate data resulting 
# from the CCDC's data processing and validation procedures.
#
#######################################################################

data_IFAGON
_symmetry_cell_setting           tetragonal
_symmetry_space_group_name_H-M   'I 41/a c d'
_symmetry_Int_Tables_number      142
_space_group_name_Hall           '-I 4bd 2c'
loop_
_symmetry_equiv_pos_site_id
_symmetry_equiv_pos_as_xyz
1 x,y,z
2 1/4-y,3/4+x,1/4+z
3 -x,1/2-y,z
4 1/4+y,1/4-x,3/4+z
5 x,-y,1/2-z
6 1/2-x,y,-z
7 3/4+y,1/4+x,1/4-z
8 1/4-y,1/4-x,1/4-z
9 1/2+x,1/2+y,1/2+z
10 3/4-y,1/4+x,3/4+z
11 1/2-x,-y,1/2+z
12 3/4+y,3/4-x,1/4+z
13 1/2+x,1/2-y,-z
14 -x,1/2+y,1/2-z
15 1/4+y,3/4+x,3/4-z
16 3/4-y,3/4-x,3/4-z
17 -x,-y,-z
18 3/4+y,1/4-x,3/4-z
19 x,1/2+y,-z
20 3/4-y,3/4+x,1/4-z
21 -x,y,1/2+z
22 1/2+x,-y,z
23 1/4-y,3/4-x,3/4+z
24 3/4+y,3/4+x,3/4+z
25 1/2-x,1/2-y,1/2-z
26 1/4+y,3/4-x,1/4-z
27 1/2+x,y,1/2-z
28 1/4-y,1/4+x,3/4-z
29 1/2-x,1/2+y,z
30 x,1/2-y,1/2+z
31 3/4-y,1/4-x,1/4+z
32 1/4+y,1/4+x,1/4+z
_cell_length_a                   21.624(9)
_cell_length_b                   21.624(9)
_cell_length_c                   38.385(9)
_cell_angle_alpha                90
_cell_angle_beta                 90
_cell_angle_gamma                90
_cell_volume                     17948.7
loop_
_atom_site_label
_atom_site_type_symbol
_atom_site_fract_x
_atom_site_fract_y
_atom_site_fract_z
Zn1 Zn 0.228824(12) 0.027058(12) 0.086574(7)
O1 O 0.24484(9) -0.06566(8) 0.09236(5)
O2 O 0.26035(8) -0.38674(8) 0.15704(4)
O3 O 0.20994(8) -0.06900(8) 0.14758(5)
O4 O 0.28645(8) -0.38360(8) 0.10016(5)
C1 C 0.19026(12) -0.00295(13) 0.01537(7)
H1 H 0.1502 0.0161 0.0217
H2 H 0.1896 -0.0466 0.0232
C2 C 0.24379(14) 0.09488(11) 0.01962(6)
H3 H 0.2768 0.1183 0.0317
H4 H 0.2039 0.1157 0.0243
C3 C 0.30135(12) -0.00062(13) 0.02419(7)
H5 H 0.3014 -0.0432 0.0337
H6 H 0.3363 0.0222 0.0348
N1 N 0.24169(9) 0.03072(9) 0.03342(6)
C4 C 0.23049(11) -0.09368(12) 0.12017(7)
C5 C 0.23978(12) -0.16276(11) 0.12113(6)
C6 C 0.25779(13) -0.18840(12) 0.15282(7)
H7 H 0.2625 -0.1617 0.1723
C7 C 0.23285(13) -0.20096(12) 0.09137(7)
C8 C 0.21463(17) -0.17718(13) 0.05578(7)
H8 H 0.2502 -0.1569 0.0449
H9 H 0.1807 -0.1474 0.0582
H10 H 0.2011 -0.2119 0.0412
C9 C 0.27054(10) -0.35871(12) 0.12872(6)
C10 C 0.26162(12) -0.28952(12) 0.12791(6)
C11 C 0.24374(13) -0.26359(12) 0.09605(7)
H11 H 0.2388 -0.2903 0.0766
C12 C 0.26930(12) -0.25136(12) 0.15735(7)
C13 C 0.28952(17) -0.27422(13) 0.19291(7)
H12 H 0.2544 -0.2936 0.2047
H13 H 0.3228 -0.3045 0.1902
H14 H 0.3044 -0.2392 0.2068
C1E C 0.30974(12) -0.00295(13) -0.01537(7)
H1E H 0.3498 0.0161 -0.0217
H2E H 0.3104 -0.0466 -0.0232
C2E C 0.25621(14) 0.09488(11) -0.01962(6)
H3E H 0.2232 0.1183 -0.0317
H4E H 0.2961 0.1157 -0.0243
C3E C 0.19865(12) -0.00062(13) -0.02419(7)
H5E H 0.1986 -0.0432 -0.0337
H6E H 0.1637 0.0222 -0.0348
N1E N 0.25831(9) 0.03072(9) -0.03342(6)
Zn1E Zn 0.271176(12) 0.027058(12) -0.086574(7)
O1E O 0.25516(9) -0.06566(8) -0.09236(5)
O2E O 0.23965(8) -0.38674(8) -0.15704(4)
O3E O 0.29006(8) -0.06900(8) -0.14758(5)
O4E O 0.21355(8) -0.38360(8) -0.10016(5)
C4E C 0.26951(11) -0.09368(12) -0.12017(7)
C5E C 0.26022(12) -0.16276(11) -0.12113(6)
C6E C 0.24221(13) -0.18840(12) -0.15282(7)
H7E H 0.2375 -0.1617 -0.1723
C7E C 0.26715(13) -0.20096(12) -0.09137(7)
C8E C 0.28537(17) -0.17718(13) -0.05578(7)
H8E H 0.2498 -0.1569 -0.0449
H9E H 0.3193 -0.1474 -0.0582
H10E H 0.2989 -0.2119 -0.0412
C9E C 0.22946(10) -0.35871(12) -0.12872(6)
C10E C 0.23838(12) -0.28952(12) -0.12791(6)
C11E C 0.25626(13) -0.26359(12) -0.09605(7)
H11E H 0.2612 -0.2903 -0.0766
C12E C 0.23070(12) -0.25136(12) -0.15735(7)
C13E C 0.21048(17) -0.27422(13) -0.19291(7)
H12E H 0.2456 -0.2936 -0.2047
H13E H 0.1772 -0.3045 -0.1902
H14E H 0.1956 -0.2392 -0.2068
Zn1C Zn 0.277058(12) 0.021176(12) -0.163426(7)
Zn1G Zn 0.222942(12) 0.021176(12) 0.163426(7)
Zn1R Zn 0.228824(12) -0.472942(12) -0.086574(7)
Zn1V Zn 0.222942(12) -0.478824(12) -0.163426(7)
Zn1Y Zn 0.277058(12) -0.478824(12) 0.163426(7)
Zn1BA Zn 0.271176(12) -0.472942(12) 0.086574(7)
O2S O 0.13674(8) 0.01035(8) 0.09296(4)
O2W O 0.36326(8) 0.01035(8) -0.09296(4)
O3C O 0.18100(8) 0.04006(8) -0.10242(5)
O3G O 0.31900(8) 0.04006(8) 0.10242(5)
O4R O 0.28645(8) 0.11640(8) -0.10016(5)
O4BA O 0.21355(8) 0.11640(8) 0.10016(5)
C14 C 0.4037(2) -0.2820(2) 0.05884(17)
H15 H 0.3977 -0.3056 0.0373
H16 H 0.3728 -0.2948 0.0761
H17 H 0.4452 -0.2899 0.0680
N2 N 0.39676(16) -0.21699(16) 0.05170(9)
C15 C 0.3926(2) -0.1931(3) 0.02038(14)
H18 H 0.3916 -0.2207 0.0011
C16 C 0.3960(3) -0.1760(3) 0.08187(14)
H19 H 0.4384 -0.1691 0.0899
H20 H 0.3717 -0.1950 0.1006
H21 H 0.3773 -0.1364 0.0753
O5 O 0.38994(17) -0.13455(17) 0.01412(11)
C17 C 0.4543(2) 0.1265(2) 0.02780(11)
H22 H 0.4845 0.1125 0.0117
N3 N 0.47367(16) 0.14236(15) 0.05955(8)
C18 C 0.5387(2) 0.1388(2) 0.06901(13)
H23 H 0.5626 0.1234 0.0491
H24 H 0.5437 0.1105 0.0888
H25 H 0.5537 0.1800 0.0755
C19 C 0.4293(3) 0.1607(2) 0.08540(14)
H26 H 0.3876 0.1508 0.0772
H27 H 0.4326 0.2053 0.0895
H28 H 0.4375 0.1385 0.1072
O6 O 0.40059(16) 0.1285(2) 0.01780(10)
loop_
_geom_bond_atom_site_label_1
_geom_bond_atom_site_label_2
_geom_bond_site_symmetry_1
_geom_bond_site_symmetry_2
Zn1 O1 1_555 1_555
O1 C4 1_555 1_555
O2 C9 1_555 1_555
O3 C4 1_555 1_555
O4 C9 1_555 1_555
C1 H1 1_555 1_555
H2 C1 1_555 1_555
C2 H3 1_555 1_555
H4 C2 1_555 1_555
C3 H5 1_555 1_555
H6 C3 1_555 1_555
N1 Zn1 1_555 1_555
C4 C5 1_555 1_555
C5 C6 1_555 1_555
C6 H7 1_555 1_555
C7 C5 1_555 1_555
C8 C7 1_555 1_555
H8 C8 1_555 1_555
H9 C8 1_555 1_555
H10 C8 1_555 1_555
C9 C10 1_555 1_555
C10 C11 1_555 1_555
C11 C7 1_555 1_555
H11 C11 1_555 1_555
C12 C6 1_555 1_555
C13 C12 1_555 1_555
H12 C13 1_555 1_555
H13 C13 1_555 1_555
H14 C13 1_555 1_555
C14 H15 1_555 1_555
H16 C14 1_555 1_555
H17 C14 1_555 1_555
N2 C14 1_555 1_555
C15 N2 1_555 1_555
H18 C15 1_555 1_555
C16 N2 1_555 1_555
H19 C16 1_555 1_555
H20 C16 1_555 1_555
H21 C16 1_555 1_555
O5 C15 1_555 1_555
C17 H22 1_555 1_555
N3 C17 1_555 1_555
C18 N3 1_555 1_555
H23 C18 1_555 1_555
H24 C18 1_555 1_555
H25 C18 1_555 1_555
C19 N3 1_555 1_555
H26 C19 1_555 1_555
H27 C19 1_555 1_555
H28 C19 1_555 1_555
O6 C17 1_555 1_555
C1E C3 1_555 1_555
H1E C1E 1_555 1_555
H2E C1E 1_555 1_555
C2E C2 1_555 1_555
H3E C2E 1_555 1_555
H4E C2E 1_555 1_555
C3E C1 1_555 1_555
H5E C3E 1_555 1_555
H6E C3E 1_555 1_555
N1E C1E 1_555 1_555
Zn1E N1E 1_555 1_555
O1E Zn1E 1_555 1_555
O2E C9E 1_555 1_555
O3E C4E 1_555 1_555
O4E C9E 1_555 1_555
C4E O1E 1_555 1_555
C5E C4E 1_555 1_555
C6E C5E 1_555 1_555
H7E C6E 1_555 1_555
C7E C5E 1_555 1_555
C8E C7E 1_555 1_555
H8E C8E 1_555 1_555
H9E C8E 1_555 1_555
H10E C8E 1_555 1_555
C9E C10E 1_555 1_555
C10E C11E 1_555 1_555
C11E C7E 1_555 1_555
H11E C11E 1_555 1_555
C12E C6E 1_555 1_555
C13E C12E 1_555 1_555
H12E C13E 1_555 1_555
H13E C13E 1_555 1_555
H14E C13E 1_555 1_555
Zn1C O3E 1_555 1_555
Zn1G O3 1_555 1_555
Zn1R O4E 1_555 1_555
Zn1V O2E 1_555 1_555
Zn1Y O2 1_555 1_555
Zn1BA O4 1_555 1_555
O2S Zn1 1_555 1_555
O2W Zn1E 1_555 1_555
O3C Zn1E 1_555 1_555
O3G Zn1 1_555 1_555
O4R Zn1E 1_555 1_555
O4BA Zn1 1_555 1_555
C1 N1 1_555 1_555
C2 N1 1_555 1_555
C3 N1 1_555 1_555
C10 C12 1_555 1_555
C2E N1E 1_555 1_555
C3E N1E 1_555 1_555
C10E C12E 1_555 1_555

#END
