
#######################################################################
#
#                 Cambridge Crystallographic Data Centre
#                                CCDC 
#
#######################################################################
#
# If this CIF has been generated from an entry in the Cambridge 
# Structural Database, then it will include bibliographic, chemical, 
# crystal, experimental, refinement or atomic coordinate data resulting 
# from the CCDC's data processing and validation procedures.
#
#######################################################################

data_IFAHAY
_symmetry_cell_setting           monoclinic
_symmetry_space_group_name_H-M   'P 21'
_symmetry_Int_Tables_number      4
_space_group_name_Hall           'P 2yb'
loop_
_symmetry_equiv_pos_site_id
_symmetry_equiv_pos_as_xyz
1 x,y,z
2 -x,1/2+y,-z
_cell_length_a                   9.334
_cell_length_b                   16.2952
_cell_length_c                   8.7134
_cell_angle_alpha                90
_cell_angle_beta                 82.888
_cell_angle_gamma                90
_cell_volume                     1315.11
loop_
_atom_site_label
_atom_site_type_symbol
_atom_site_fract_x
_atom_site_fract_y
_atom_site_fract_z
Cr1 Cr 0.24809 0.57325 0.00678
Mn1 Mn 0.24083 0.90759 -0.00082
O1 O 0.17376 0.80614 0.15763
O2 O 0.35069 0.80718 -0.12659
O3 O 0.15504 0.67397 0.14394
O4 O 0.33197 0.675 -0.14027
O5 O 0.43687 0.57146 0.12828
O6 O 0.38785 0.48862 -0.14202
O7 O 0.63364 0.50183 0.13579
O8 O 0.58461 0.419 -0.13451
O9 O -0.07887 0.41502 0.13417
O10 O -0.12171 0.51044 -0.1236
O11 O 0.12419 0.47719 0.1488
O12 O 0.08135 0.57261 -0.10898
C1 C 0.20389 0.74029 0.08734
C2 C 0.30184 0.74086 -0.06999
C3 C 0.52431 0.51816 0.0717
C4 C 0.49717 0.4723 -0.07793
C5 C 0.0131 0.4674 0.08394
C6 C -0.01062 0.52022 -0.05875
O7A O 0.36636 1.00183 -0.13579
O8A O 0.41539 0.919 0.13451
O9A O 0.07887 0.91502 -0.13417
O10A O 0.12171 1.01044 0.1236
Mn1A Mn 0.75917 0.40759 0.00082
Mn1A_2 Mn -0.24083 0.40759 0.00082
C7 C 0.11876 0.67829 0.61203
H1 H 0.03367 0.65352 0.6763
C8 C 0.13267 0.76128 0.60236
H2 H 0.05778 0.79741 0.65952
C9 C 0.33677 0.66283 0.44655
H3 H 0.41166 0.6267 0.38939
C10 C 0.35068 0.74582 0.43688
H4 H 0.43577 0.77059 0.37261
C11 C 0.22082 0.62906 0.53413
C12 C 0.26378 0.88554 0.50423
H5 H 0.3266 0.905 0.58164
H6 H 0.1665 0.91157 0.52586
H7 H 0.30845 0.90096 0.39809
C13 C 0.17086 0.29128 0.6029
H8 H 0.10326 0.26618 0.68779
C14 C 0.18524 0.37714 0.59289
H9 H 0.12785 0.41294 0.67068
C15 C 0.34707 0.2762 0.37355
H10 H 0.40447 0.2404 0.29576
C16 C 0.36146 0.36206 0.36354
H11 H 0.42906 0.38716 0.27865
C17 C 0.25177 0.24081 0.49323
C18 C 0.28054 0.41253 0.47321
C19 C 0.11456 0.12181 0.59504
H12 H 0.13719 0.11331 0.70294
H13 H 0.09118 0.06793 0.54961
H14 H 0.02993 0.15941 0.59637
C20 C 0.34637 0.10541 0.42109
H15 H 0.42251 0.09313 0.48882
H16 H 0.30083 0.0531 0.39229
H17 H 0.39094 0.13388 0.32545
N1 N 0.20648 0.54351 0.54411
N2 N 0.29488 0.49809 0.46323
N3 N 0.24862 0.79505 0.51478
N4 N 0.23783 0.15758 0.50294
C21 C 0.21037 0.21422 0.07128
C22 C 0.34934 0.21545 -0.00097
N5 N 0.46294 0.21645 -0.06003
H18 H 0.16134 0.26681 0.05063
H19 H 0.21137 0.20754 0.18504
H20 H 0.15707 0.16741 0.03085
loop_
_geom_bond_atom_site_label_1
_geom_bond_atom_site_label_2
_geom_bond_site_symmetry_1
_geom_bond_site_symmetry_2
Cr1 O3 1_555 1_555
Mn1 O1 1_555 1_555
O1 C1 1_555 1_555
O2 Mn1 1_555 1_555
O3 C1 1_555 1_555
O4 Cr1 1_555 1_555
O5 Cr1 1_555 1_555
O6 Cr1 1_555 1_555
O7 C3 1_555 1_555
O8 C4 1_555 1_555
O9 C5 1_555 1_555
O10 C6 1_555 1_555
O11 Cr1 1_555 1_555
O12 Cr1 1_555 1_555
C1 C2 1_555 1_555
C2 O2 1_555 1_555
C3 O5 1_555 1_555
C4 O6 1_555 1_555
C5 O11 1_555 1_555
C6 O12 1_555 1_555
C7 H1 1_555 1_555
C8 C7 1_555 1_555
H2 C8 1_555 1_555
C9 H3 1_555 1_555
C10 C9 1_555 1_555
H4 C10 1_555 1_555
C11 C7 1_555 1_555
C12 H5 1_555 1_555
H6 C12 1_555 1_555
H7 C12 1_555 1_555
C13 H8 1_555 1_555
C14 C13 1_555 1_555
H9 C14 1_555 1_555
C15 H10 1_555 1_555
C16 C15 1_555 1_555
H11 C16 1_555 1_555
C17 C13 1_555 1_555
C18 C14 1_555 1_555
C19 H12 1_555 1_555
H13 C19 1_555 1_555
H14 C19 1_555 1_555
C20 H15 1_555 1_555
H16 C20 1_555 1_555
H17 C20 1_555 1_555
N1 C11 1_555 1_555
N2 C18 1_555 1_555
N3 C8 1_555 1_555
N4 C17 1_555 1_555
C21 C22 1_555 1_555
C22 N5 1_555 1_555
H18 C21 1_555 1_555
H19 C21 1_555 1_555
H20 C21 1_555 1_555
O7A Mn1 1_555 1_555
O8A Mn1 1_555 1_555
O9A Mn1 1_555 1_555
O10A Mn1 1_555 1_555
Mn1A O7 1_555 1_555
Mn1A_2 O9 1_555 1_555
O4 C2 1_555 1_555
O8 Mn1A 1_555 1_555
O10 Mn1A_2 1_555 1_555
C3 C4 1_555 1_555
C5 C6 1_555 1_555
C9 C11 1_555 1_555
C10 N3 1_555 1_555
C12 N3 1_555 1_555
C15 C17 1_555 1_555
C16 C18 1_555 1_555
C19 N4 1_555 1_555
C20 N4 1_555 1_555
N1 N2 1_555 1_555

#END
