
#######################################################################
#
#                 Cambridge Crystallographic Data Centre
#                                CCDC 
#
#######################################################################
#
# If this CIF has been generated from an entry in the Cambridge 
# Structural Database, then it will include bibliographic, chemical, 
# crystal, experimental, refinement or atomic coordinate data resulting 
# from the CCDC's data processing and validation procedures.
#
#######################################################################

data_IFANUZ
_symmetry_cell_setting           monoclinic
_symmetry_space_group_name_H-M   'P 21/c'
_symmetry_Int_Tables_number      14
_space_group_name_Hall           '-P 2ybc'
loop_
_symmetry_equiv_pos_site_id
_symmetry_equiv_pos_as_xyz
1 x,y,z
2 -x,1/2+y,1/2-z
3 -x,-y,-z
4 x,1/2-y,1/2+z
_cell_length_a                   13.2021(8)
_cell_length_b                   10.4480(7)
_cell_length_c                   14.2479(9)
_cell_angle_alpha                90
_cell_angle_beta                 109.4380(10)
_cell_angle_gamma                90
_cell_volume                     1853.27
loop_
_atom_site_label
_atom_site_type_symbol
_atom_site_fract_x
_atom_site_fract_y
_atom_site_fract_z
Mn1 Mn -0.24206(2) -0.45417(3) -0.26060(2)
S1 S -0.20243(4) -0.41030(5) -0.02584(3)
O1 O -0.21729(12) -0.09203(16) 0.10511(10)
O2 O -0.05566(13) -0.18299(17) 0.14193(11)
O3 O -0.25733(14) -0.48956(15) -0.11265(11)
O4 O -0.26766(13) -0.38061(16) 0.03293(12)
O5 O -0.09800(14) -0.46042(16) 0.02775(15)
O6 O -0.08567(13) -0.54687(17) -0.21162(13)
H1 H -0.0322 -0.5461 -0.1580
H2 H -0.0767 -0.5996 -0.2536
N1 N -0.41594(14) -0.38189(17) -0.32471(13)
N2 N -0.34739(14) -0.62423(17) -0.32125(13)
N3 N -0.19040(13) -0.26790(16) -0.17737(11)
C1 C -0.44760(19) -0.2605(2) -0.32364(18)
H7 H -0.3957 -0.1994 -0.2935
C2 C -0.5525(2) -0.2207(3) -0.36462(19)
H8 H -0.5713 -0.1355 -0.3610
C3 C -0.6285(2) -0.3102(3) -0.4109(2)
H9 H -0.7001 -0.2866 -0.4396
C4 C -0.59798(19) -0.4352(3) -0.41450(19)
H10 H -0.6486 -0.4966 -0.4467
C5 C -0.49093(17) -0.4695(2) -0.36968(15)
C6 C -0.45298(16) -0.6034(2) -0.36837(15)
C7 C -0.52195(19) -0.7041(2) -0.41193(18)
H11 H -0.5946 -0.6886 -0.4444
C8 C -0.4820(2) -0.8260(2) -0.4066(2)
H12 H -0.5275 -0.8937 -0.4354
C9 C -0.3747(2) -0.8474(2) -0.3587(2)
H13 H -0.3460 -0.9293 -0.3545
C10 C -0.31040(19) -0.7438(2) -0.31682(19)
H14 H -0.2377 -0.7582 -0.2839
C11 C -0.14098(17) -0.14218(19) 0.08399(14)
C12 C -0.15579(15) -0.14919(18) -0.02587(14)
C13 C -0.18062(15) -0.26116(18) -0.08078(14)
C14 C -0.17373(17) -0.1611(2) -0.22240(15)
H15 H -0.1793 -0.1652 -0.2891
C15 C -0.14865(18) -0.0456(2) -0.17352(16)
H16 H -0.1375 0.0269 -0.2067
C16 C -0.14032(18) -0.03942(19) -0.07451(16)
H17 H -0.1244 0.0379 -0.0404
Mn1C Mn -0.24206(2) -0.04583(3) 0.23940(2)
O1C O -0.21729(12) -0.40797(16) -0.39489(10)
O7 O -0.90639(14) -0.26335(16) 0.03551(14)
H3 H -0.8883 -0.3415 0.0462
H4 H -0.9473 -0.2530 0.0700
O8 O -0.07166(15) -0.7557(2) 0.16972(15)
H5 H -0.0337 -0.6927 0.1994
H6 H -0.0720 -0.7501 0.1101
loop_
_geom_bond_atom_site_label_1
_geom_bond_atom_site_label_2
_geom_bond_site_symmetry_1
_geom_bond_site_symmetry_2
Mn1 O3 1_555 1_555
S1 O3 1_555 1_555
O1 C11 1_555 1_555
O2 C11 1_555 1_555
O4 S1 1_555 1_555
O5 S1 1_555 1_555
O6 Mn1 1_555 1_555
H1 O6 1_555 1_555
H2 O6 1_555 1_555
O7 H3 1_555 1_555
H4 O7 1_555 1_555
O8 H5 1_555 1_555
H6 O8 1_555 1_555
N1 Mn1 1_555 1_555
N2 Mn1 1_555 1_555
N3 Mn1 1_555 1_555
C1 N1 1_555 1_555
H7 C1 1_555 1_555
C2 C1 1_555 1_555
H8 C2 1_555 1_555
C3 C2 1_555 1_555
H9 C3 1_555 1_555
C4 C3 1_555 1_555
H10 C4 1_555 1_555
C5 N1 1_555 1_555
C6 N2 1_555 1_555
C7 C6 1_555 1_555
H11 C7 1_555 1_555
C8 C7 1_555 1_555
H12 C8 1_555 1_555
C9 C8 1_555 1_555
H13 C9 1_555 1_555
C10 N2 1_555 1_555
H14 C10 1_555 1_555
C11 C12 1_555 1_555
C12 C13 1_555 1_555
C13 S1 1_555 1_555
C14 N3 1_555 1_555
H15 C14 1_555 1_555
C15 C14 1_555 1_555
H16 C15 1_555 1_555
C16 C12 1_555 1_555
H17 C16 1_555 1_555
Mn1C O1 1_555 1_555
O1C Mn1 1_555 1_555
N3 C13 1_555 1_555
C4 C5 1_555 1_555
C5 C6 1_555 1_555
C9 C10 1_555 1_555
C15 C16 1_555 1_555

#END
