
#######################################################################
#
#                 Cambridge Crystallographic Data Centre
#                                CCDC 
#
#######################################################################
#
# If this CIF has been generated from an entry in the Cambridge 
# Structural Database, then it will include bibliographic, chemical, 
# crystal, experimental, refinement or atomic coordinate data resulting 
# from the CCDC's data processing and validation procedures.
#
#######################################################################

data_IFAQOW
_symmetry_cell_setting           monoclinic
_symmetry_space_group_name_H-M   'P 21/n'
_symmetry_Int_Tables_number      14
_space_group_name_Hall           '-P 2yn'
loop_
_symmetry_equiv_pos_site_id
_symmetry_equiv_pos_as_xyz
1 x,y,z
2 1/2-x,1/2+y,1/2-z
3 -x,-y,-z
4 1/2+x,1/2-y,1/2+z
_cell_length_a                   16.4209(15)
_cell_length_b                   16.5143(15)
_cell_length_c                   25.093(2)
_cell_angle_alpha                90
_cell_angle_beta                 108.807(2)
_cell_angle_gamma                90
_cell_volume                     6441.41
loop_
_atom_site_label
_atom_site_type_symbol
_atom_site_fract_x
_atom_site_fract_y
_atom_site_fract_z
Mo1 Mo 0.073109(17) 0.372383(16) 0.657449(11)
Mo2 Mo -0.009696(17) 0.409468(15) 0.763339(11)
Mo3 Mo 0.183577(18) 0.445311(15) 0.887560(10)
Mo4 Mo 0.282610(17) 0.327040(16) 0.714770(11)
Mo5 Mo 0.152080(18) 0.863150(17) 0.645060(12)
Co1 Co 0.21171(3) 0.63774(2) 0.865709(16)
Co2 Co 0.26148(3) 0.93573(2) 1.056603(18)
P1 P 0.20035(5) 0.49926(4) 0.75920(3)
P2 P 0.34914(5) 0.77852(4) 0.70767(3)
O1 O 0.18392(15) 0.54130(13) 0.91690(9)
O2 O 0.20000(13) 0.54058(12) 0.81362(8)
O3 O 0.27500(15) 0.23175(13) 0.68452(9)
O4 O 0.17300(18) 0.38297(15) 0.93843(10)
O5 O 0.30165(14) 0.43989(13) 0.89608(9)
O6 O 0.06079(15) 0.91542(15) 0.64158(11)
O7 O 0.11796(16) 0.78958(15) 0.59587(10)
O8 O 0.29282(14) 0.83868(12) 0.66326(8)
O9 O 0.11277(13) 0.45866(12) 0.73173(8)
O10 O 0.07268(14) 0.44104(12) 0.83491(9)
O11 O -0.05605(15) 0.50206(13) 0.74294(10)
O12 O -0.08832(15) 0.36131(14) 0.78120(11)
O13 O -0.01581(14) 0.36546(13) 0.69296(9)
O14 O 0.04744(16) 0.28643(14) 0.61879(10)
O15 O 0.19311(14) 0.38464(13) 0.66172(9)
O16 O 0.03160(17) 0.44780(15) 0.61037(10)
O17 O 0.33272(14) 0.29450(13) 0.79111(9)
O18 O 0.27462(13) 0.43733(12) 0.77201(8)
O19 O 0.34090(13) 0.79599(12) 0.76578(8)
O20 O 0.44127(14) 0.78685(12) 0.70898(9)
O21 O 0.36859(16) 0.36907(16) 0.70134(11)
N1 N 0.34170(17) 0.63336(15) 0.91395(11)
N2 N 0.22653(16) 0.72680(14) 0.92887(10)
N3 N 0.08671(17) 0.67930(15) 0.85507(11)
N4 N 0.3806(2) 0.87233(17) 1.09047(12)
N5 N 0.24746(17) 0.84803(15) 1.00211(10)
N6 N 0.13848(19) 0.96638(17) 0.99603(13)
N7 N 0.31458(19) 1.01767(16) 1.02203(11)
N8 N 0.26828(17) 1.01937(15) 1.10797(11)
N9 N 0.2159(2) 0.87662(17) 1.10933(13)
N10 N 0.2427(3) 1.2781(2) 1.07809(15)
N11 N 0.25572(18) 1.14588(16) 1.17382(11)
N12 N 0.1081(2) 1.0623(3) 1.21365(15)
C1 C 0.3977(2) 0.5854(2) 0.90091(15)
C2 C 0.4831(2) 0.5794(2) 0.93365(15)
C3 C 0.5125(2) 0.6275(3) 0.98039(16)
C4 C 0.4554(2) 0.6797(2) 0.99338(14)
C5 C 0.3704(2) 0.68043(18) 0.96057(12)
C6 C 0.30280(19) 0.73324(17) 0.96916(12)
C7 C 0.1600(2) 0.77568(18) 0.92359(12)
C8 C 0.0769(2) 0.74451(18) 0.88462(13)
C9 C -0.0033(3) 0.7719(3) 0.8815(2)
C10 C -0.0755(3) 0.7341(3) 0.8458(2)
C11 C -0.0648(3) 0.6684(3) 0.8153(2)
C12 C 0.0169(2) 0.6422(2) 0.82162(16)
C13 C 0.4373(3) 0.8860(3) 1.14171(16)
C14 C 0.4825(3) 0.8251(3) 1.17480(16)
C15 C 0.4686(2) 0.7467(3) 1.15604(15)
C16 C 0.4131(2) 0.7314(2) 1.10196(14)
C17 C 0.3729(2) 0.79642(19) 1.07000(13)
C18 C 0.30843(19) 0.78980(17) 1.01265(12)
C19 C 0.1755(2) 0.84641(18) 0.95680(13)
C20 C 0.1241(2) 0.92217(19) 0.94892(15)
C21 C 0.0726(3) 0.9490(2) 0.89704(18)
C22 C 0.0309(3) 1.0229(3) 0.8943(2)
C23 C 0.0422(3) 1.0660(3) 0.9424(2)
C24 C 0.0970(3) 1.0367(2) 0.99187(19)
C25 C 0.3448(3) 1.0070(2) 0.97898(16)
C26 C 0.3842(3) 1.0677(3) 0.95899(18)
C27 C 0.3951(3) 1.1417(3) 0.98485(18)
C28 C 0.3651(3) 1.1545(2) 1.02991(17)
C29 C 0.3254(2) 1.09146(19) 1.04789(13)
C30 C 0.2936(2) 1.09309(18) 1.09651(13)
C31 C 0.2388(2) 1.00620(19) 1.15157(13)
C32 C 0.2150(2) 0.9209(2) 1.15500(15)
C33 C 0.1944(4) 0.8852(3) 1.1986(2)
C34 C 0.1729(4) 0.8041(3) 1.1958(3)
C35 C 0.1692(4) 0.7610(3) 1.1482(3)
C36 C 0.1922(3) 0.7987(2) 1.1062(2)
C37 C 0.2547(6) 1.3578(3) 1.0685(2)
C38 C 0.3227(5) 1.4014(3) 1.1005(3)
C39 C 0.3819(4) 1.3663(3) 1.1445(3)
C40 C 0.3721(3) 1.2852(2) 1.1553(2)
C41 C 0.3030(3) 1.2444(2) 1.12088(15)
C42 C 0.2858(2) 1.15752(19) 1.13100(14)
C43 C 0.2321(2) 1.0719(2) 1.18443(13)
C44 C 0.1921(2) 1.0681(2) 1.23032(14)
C45 C 0.2410(4) 1.0699(5) 1.2856(2)
C46 C 0.1993(5) 1.0696(5) 1.3261(2)
C47 C 0.1126(4) 1.0664(3) 1.3087(2)
C48 C 0.0693(3) 1.0614(4) 1.2533(2)
C49 C 0.3064(3) 0.67870(19) 0.68419(14)
C50 C 0.3016(2) 0.6183(2) 0.72971(15)
C51 C 0.2164(2) 0.5729(2) 0.71111(14)
H1 H 0.377(2) 0.557(2) 0.8674(15)
H2 H 0.521(2) 0.541(2) 0.9209(15)
H3 H 0.565(3) 0.628(3) 1.0030(19)
H4 H 0.474(2) 0.711(2) 1.0215(16)
H5 H -0.010(3) 0.808(3) 0.9026(17)
H6 H -0.135(3) 0.754(3) 0.842(2)
H7 H -0.124(4) 0.641(3) 0.787(2)
H8 H 0.025(2) 0.595(2) 0.8036(15)
H9 H 0.444(3) 0.933(3) 1.1561(19)
H10 H 0.518(3) 0.837(2) 1.2080(18)
H11 H 0.497(3) 0.703(3) 1.1766(17)
H12 H 0.405(2) 0.678(2) 1.0875(14)
H13 H 0.070(3) 0.920(2) 0.8670(17)
H14 H -0.008(3) 1.044(2) 0.8632(18)
H15 H 0.014(3) 1.115(3) 0.939(2)
H16 H 0.104(3) 1.066(3) 1.0227(18)
H17 H 0.335(2) 0.958(2) 0.9626(16)
H18 H 0.405(3) 1.054(3) 0.9272(19)
H19 H 0.423(3) 1.185(3) 0.9739(18)
H20 H 0.375(3) 1.207(3) 1.0496(16)
H21 H 0.198(3) 0.911(2) 1.2265(17)
H22 H 0.153(3) 0.784(3) 1.224(2)
H23 H 0.154(3) 0.707(3) 1.1449(19)
H24 H 0.186(3) 0.775(3) 1.073(2)
H25 H 0.213(4) 1.378(4) 1.042(3)
H26 H 0.325(3) 1.454(3) 1.0929(19)
H27 H 0.424(4) 1.391(3) 1.168(2)
H28 H 0.410(3) 1.262(3) 1.1827(19)
H29 H 0.301(3) 1.067(3) 1.294(2)
H30 H 0.233(4) 1.071(4) 1.366(3)
H31 H 0.082(3) 1.059(3) 1.333(2)
H32 H 0.006(4) 1.045(4) 1.241(3)
H33 H 0.340(2) 0.657(2) 0.6615(15)
H34 H 0.347(3) 0.583(3) 0.7362(18)
H35 H 0.208(3) 0.545(3) 0.6796(18)
H36 H 0.248(3) 0.685(2) 0.6566(16)
H37 H 0.316(2) 0.646(2) 0.7682(17)
H38 H 0.166(3) 0.612(3) 0.7067(17)
Mo1A Mo 0.426891(17) 0.872383(16) 0.842551(11)
Mo2A Mo 0.509696(17) 0.909468(15) 0.736661(11)
Mo3A Mo 0.316423(18) 0.945311(15) 0.612440(10)
Mo4A Mo 0.217390(17) 0.827040(16) 0.785230(11)
Mo5A Mo 0.347920(18) 0.363150(17) 0.854940(12)
Co1A Co 0.28829(3) 0.13774(2) 0.634291(16)
O3A O 0.22500(15) 0.73175(13) 0.81548(9)
O5A O 0.19835(14) 0.93989(13) 0.60392(9)
O8A O 0.20718(14) 0.33868(12) 0.83674(8)
O17A O 0.16728(14) 0.79450(13) 0.70889(9)
O18A O 0.22538(13) 0.93733(12) 0.72799(8)
O19A O 0.15910(13) 0.29599(12) 0.73422(8)
O20A O 0.05873(14) 0.28685(12) 0.79102(9)
O22 O 0.9667(11) 0.3821(7) 0.0006(8)
O23 O 0.9570(8) 0.4752(10) 0.9125(4)
O24 O 0.2218(5) 0.6048(4) 0.0304(2)
O25 O 0.0685(4) 0.2355(3) 0.0117(2)
O26 O 0.0401(4) 0.2614(3) 0.89868(19)
loop_
_geom_bond_atom_site_label_1
_geom_bond_atom_site_label_2
_geom_bond_site_symmetry_1
_geom_bond_site_symmetry_2
Mo1 O9 1_555 1_555
Mo2 O9 1_555 1_555
Mo3 O1 1_555 1_555
Mo4 O3 1_555 1_555
Mo5 O6 1_555 1_555
Co1 O1 1_555 1_555
Co2 N4 1_555 1_555
P1 O2 1_555 1_555
P2 O8 1_555 1_555
O2 Mo3 1_555 1_555
O3 Co1A 1_555 1_555
O4 Mo3 1_555 1_555
O5 Mo3 1_555 1_555
O7 Mo5 1_555 1_555
O8 Mo5 1_555 1_555
O9 P1 1_555 1_555
O10 Mo2 1_555 1_555
O11 Mo2 1_555 1_555
O12 Mo2 1_555 1_555
O13 Mo1 1_555 1_555
O14 Mo1 1_555 1_555
O15 Mo1 1_555 1_555
O16 Mo1 1_555 1_555
O17 Mo4 1_555 1_555
O18 Mo4 1_555 1_555
O19 P2 1_555 1_555
O20 P2 1_555 1_555
O21 Mo4 1_555 1_555
N1 Co1 1_555 1_555
N2 Co1 1_555 1_555
N3 Co1 1_555 1_555
N4 C13 1_555 1_555
N5 Co2 1_555 1_555
N6 Co2 1_555 1_555
N7 Co2 1_555 1_555
N8 Co2 1_555 1_555
N9 Co2 1_555 1_555
N10 C37 1_555 1_555
N11 C42 1_555 1_555
N12 C44 1_555 1_555
C1 N1 1_555 1_555
C2 C1 1_555 1_555
C3 C2 1_555 1_555
C4 C3 1_555 1_555
C5 N1 1_555 1_555
C6 N2 1_555 1_555
C7 N2 1_555 1_555
C8 N3 1_555 1_555
C9 C8 1_555 1_555
C10 C9 1_555 1_555
C11 C10 1_555 1_555
C12 N3 1_555 1_555
C13 C14 1_555 1_555
C14 C15 1_555 1_555
C15 C16 1_555 1_555
C16 C17 1_555 1_555
C17 N4 1_555 1_555
C18 N5 1_555 1_555
C19 N5 1_555 1_555
C20 N6 1_555 1_555
C21 C20 1_555 1_555
C22 C21 1_555 1_555
C23 C22 1_555 1_555
C24 N6 1_555 1_555
C25 N7 1_555 1_555
C26 C25 1_555 1_555
C27 C26 1_555 1_555
C28 C27 1_555 1_555
C29 N7 1_555 1_555
C30 N8 1_555 1_555
C31 N8 1_555 1_555
C32 N9 1_555 1_555
C33 C32 1_555 1_555
C34 C33 1_555 1_555
C35 C34 1_555 1_555
C36 N9 1_555 1_555
C37 C38 1_555 1_555
C38 C39 1_555 1_555
C39 C40 1_555 1_555
C40 C41 1_555 1_555
C41 N10 1_555 1_555
C42 C30 1_555 1_555
C43 N11 1_555 1_555
C44 C43 1_555 1_555
C45 C44 1_555 1_555
C46 C45 1_555 1_555
C47 C46 1_555 1_555
C48 N12 1_555 1_555
C49 P2 1_555 1_555
C50 C49 1_555 1_555
C51 P1 1_555 1_555
H1 C1 1_555 1_555
H2 C2 1_555 1_555
H3 C3 1_555 1_555
H4 C4 1_555 1_555
H5 C9 1_555 1_555
H6 C10 1_555 1_555
H7 C11 1_555 1_555
H8 C12 1_555 1_555
H9 C13 1_555 1_555
H10 C14 1_555 1_555
H11 C15 1_555 1_555
H12 C16 1_555 1_555
H13 C21 1_555 1_555
H14 C22 1_555 1_555
H15 C23 1_555 1_555
H16 C24 1_555 1_555
H17 C25 1_555 1_555
H18 C26 1_555 1_555
H19 C27 1_555 1_555
H20 C28 1_555 1_555
H21 C33 1_555 1_555
H22 C34 1_555 1_555
H23 C35 1_555 1_555
H24 C36 1_555 1_555
H25 C37 1_555 1_555
H26 C38 1_555 1_555
H27 C39 1_555 1_555
H28 C40 1_555 1_555
H29 C45 1_555 1_555
H30 C46 1_555 1_555
H31 C47 1_555 1_555
H32 C48 1_555 1_555
H33 C49 1_555 1_555
H34 C50 1_555 1_555
H35 C51 1_555 1_555
H36 C49 1_555 1_555
H37 C50 1_555 1_555
H38 C51 1_555 1_555
Mo1A O19 1_555 1_555
Mo2A O20 1_555 1_555
Mo3A O8 1_555 1_555
Mo4A O19 1_555 1_555
Mo5A O5 1_555 1_555
O3A Co1 1_555 1_555
O5A Mo5 1_555 1_555
O8A Mo3 1_555 1_555
O17A Mo5 1_555 1_555
O18A Mo5 1_555 1_555
O19A Mo1 1_555 1_555
O20A Mo2 1_555 1_555
Mo2 O13 1_555 1_555
Mo3 O10 1_555 1_555
Mo4 O15 1_555 1_555
Mo4 O19A 1_555 1_555
Co1 O2 1_555 1_555
P1 O18 1_555 1_555
O17 Mo5A 1_555 1_555
O18 Mo5A 1_555 1_555
C4 C5 1_555 1_555
C5 C6 1_555 1_555
C6 C18 1_555 1_555
C7 C8 1_555 1_555
C7 C19 1_555 1_555
C11 C12 1_555 1_555
C17 C18 1_555 1_555
C19 C20 1_555 1_555
C23 C24 1_555 1_555
C28 C29 1_555 1_555
C29 C30 1_555 1_555
C31 C32 1_555 1_555
C31 C43 1_555 1_555
C35 C36 1_555 1_555
C41 C42 1_555 1_555
C47 C48 1_555 1_555
C50 C51 1_555 1_555
Mo3A O5A 1_555 1_555
Mo4A O3A 1_555 1_555
Mo4A O17A 1_555 1_555
Mo4A O18A 1_555 1_555
Mo5A O8A 1_555 1_555

#END
