
#######################################################################
#
#                 Cambridge Crystallographic Data Centre
#                                CCDC 
#
#######################################################################
#
# If this CIF has been generated from an entry in the Cambridge 
# Structural Database, then it will include bibliographic, chemical, 
# crystal, experimental, refinement or atomic coordinate data resulting 
# from the CCDC's data processing and validation procedures.
#
#######################################################################

data_IFAQIQ
_symmetry_cell_setting           orthorhombic
_symmetry_space_group_name_H-M   'P n a 21'
_symmetry_Int_Tables_number      33
_space_group_name_Hall           'P 2c -2n'
loop_
_symmetry_equiv_pos_site_id
_symmetry_equiv_pos_as_xyz
1 x,y,z
2 -x,-y,1/2+z
3 1/2+x,1/2-y,z
4 1/2-x,1/2+y,1/2+z
_cell_length_a                   15.3980(9)
_cell_length_b                   11.4633(7)
_cell_length_c                   21.6993(13)
_cell_angle_alpha                90
_cell_angle_beta                 90
_cell_angle_gamma                90
_cell_volume                     3830.18
loop_
_atom_site_label
_atom_site_type_symbol
_atom_site_fract_x
_atom_site_fract_y
_atom_site_fract_z
Mo1 Mo 1.198510(19) 0.62670(3) 0.371332(16)
Mo2 Mo 1.14654(2) 0.50362(3) 0.233191(16)
Mo3 Mo 1.05394(2) 0.71406(3) 0.144211(16)
Mo4 Mo 1.07050(2) 0.97353(3) 0.213732(16)
Mo5 Mo 1.13319(2) 0.90474(3) 0.373515(16)
Co1 Co 1.42853(3) 0.59448(5) 0.41474(2)
P1 P 1.00466(6) 0.71736(8) 0.29819(4)
P2 P 0.73226(6) 0.70827(8) 0.24044(4)
O1 O 1.1650(2) 0.5178(2) 0.41911(14)
O2 O 1.30741(17) 0.6477(3) 0.39034(13)
O3 O 1.22412(18) 0.5464(2) 0.29650(13)
O4 O 1.21457(19) 0.4550(3) 0.17654(14)
O5 O 1.0989(2) 0.3800(2) 0.26081(15)
O6 O 1.05232(18) 0.5691(2) 0.18913(13)
O7 O 0.94918(19) 0.7074(3) 0.12007(14)
O8 O 1.11192(18) 0.6745(3) 0.08010(13)
O9 O 1.07614(18) 0.8790(2) 0.14109(14)
O10 O 0.9621(2) 1.0015(2) 0.21865(14)
O11 O 1.1109(2) 1.1023(3) 0.18640(15)
O12 O 1.10042(19) 0.9829(2) 0.30070(13)
O13 O 1.05788(18) 0.9583(2) 0.42694(13)
O14 O 1.22680(19) 0.9742(3) 0.39264(14)
O15 O 1.14741(17) 0.7551(3) 0.41311(13)
O16 O 1.06844(18) 0.6196(2) 0.31605(13)
O17 O 1.03342(17) 0.7814(2) 0.23842(12)
O18 O 0.99704(17) 0.8089(2) 0.34908(12)
O19 O 0.71600(18) 0.5857(2) 0.21635(12)
O20 O 0.69726(17) 0.7164(2) 0.30729(12)
O21 O 0.69056(17) 0.7998(2) 0.19787(13)
N1 N 1.4322(2) 0.7292(3) 0.48162(16)
N2 N 1.3649(2) 0.5238(3) 0.49412(15)
N3 N 1.4081(2) 0.4091(3) 0.39576(15)
N4 N 1.2006(2) 0.6048(3) 0.67270(16)
N5 N 1.2377(2) 0.4598(3) 0.57449(16)
N6 N 1.2152(2) 0.2019(3) 0.57867(17)
C1 C 1.4782(3) 0.8275(4) 0.47524(19)
H1 H 1.5101 0.8393 0.4383
C2 C 1.4810(3) 0.9131(4) 0.5206(2)
H2 H 1.5131 0.9830 0.5145
C3 C 1.4359(3) 0.8940(4) 0.5748(2)
H3 H 1.4378 0.9502 0.6069
C4 C 1.3883(3) 0.7936(4) 0.5820(2)
H4 H 1.3575 0.7793 0.6192
C5 C 1.3859(2) 0.7130(3) 0.53397(18)
C6 C 1.3381(3) 0.6002(3) 0.53588(18)
C7 C 1.3307(3) 0.4166(3) 0.49005(18)
C8 C 1.3665(2) 0.3459(4) 0.43951(18)
C9 C 1.3659(3) 0.2249(4) 0.4390(2)
H5 H 1.3351 0.1828 0.4698
C10 C 1.4110(3) 0.1659(4) 0.3930(2)
H6 H 1.4122 0.0831 0.3922
C11 C 1.4541(3) 0.2301(4) 0.3485(2)
H7 H 1.4861 0.1923 0.3169
C12 C 1.4497(3) 0.3516(4) 0.35105(19)
H8 H 1.4774 0.3954 0.3195
C13 C 1.1440(3) 0.6570(4) 0.7105(2)
H9 H 1.1348 0.6271 0.7508
C14 C 1.0991(4) 0.7536(4) 0.6911(2)
H10 H 1.0574 0.7895 0.7172
C15 C 1.1154(3) 0.7981(4) 0.6330(2)
H11 H 1.0857 0.8659 0.6193
C16 C 1.1752(3) 0.7437(4) 0.5948(2)
H12 H 1.1867 0.7736 0.5548
C17 C 1.2176(3) 0.6456(4) 0.61576(19)
C18 C 1.2702(3) 0.5681(3) 0.57511(17)
C19 C 1.2661(3) 0.3842(3) 0.53320(19)
C20 C 1.2128(3) 0.2759(3) 0.53105(19)
C21 C 1.1532(3) 0.2588(4) 0.4841(2)
H13 H 1.1514 0.3098 0.4496
C22 C 1.0964(3) 0.1654(4) 0.4885(2)
H14 H 1.0541 0.1532 0.4572
C23 C 1.1007(3) 0.0896(4) 0.5383(2)
H15 H 1.0623 0.0250 0.5412
C24 C 1.1617(3) 0.1096(4) 0.5837(2)
H16 H 1.1660 0.0587 0.6181
C25 C 0.8993(2) 0.6565(3) 0.28313(18)
H17 H 0.9056 0.5820 0.2605
H18 H 0.8693 0.6403 0.3226
C26 C 0.8454(2) 0.7424(3) 0.24473(18)
H19 H 0.8519 0.8214 0.2626
H20 H 0.8693 0.7447 0.2024
H21 H 1.232(4) 0.552(5) 0.683(3)
H22 H 1.252(3) 0.216(3) 0.609(2)
Mo1B Mo 0.698510(19) 0.87330(3) 0.371332(16)
Mo2B Mo 0.64654(2) 0.99638(3) 0.233191(16)
Mo3B Mo 0.55394(2) 0.78594(3) 0.144211(16)
Mo4B Mo 0.57050(2) 0.52647(3) 0.213732(16)
Mo5B Mo 0.63319(2) 0.59526(3) 0.373515(16)
Co1B Co 0.92853(3) 0.90552(5) 0.41474(2)
O13B O 1.55788(18) 0.5417(2) 0.42694(13)
O18B O 1.49704(17) 0.6911(2) 0.34908(12)
O19B O 1.21600(18) 0.9143(2) 0.21635(12)
O20B O 1.19726(17) 0.7836(2) 0.30729(12)
O21B O 1.19056(17) 0.7002(2) 0.19787(13)
O22 O 0.2162(4) 0.2054(5) 0.3181(3)
loop_
_geom_bond_atom_site_label_1
_geom_bond_atom_site_label_2
_geom_bond_site_symmetry_1
_geom_bond_site_symmetry_2
Mo1 O1 1_555 1_555
Mo2 O3 1_555 1_555
Mo3 O6 1_555 1_555
Mo4 O9 1_555 1_555
Mo5 O12 1_555 1_555
Co1 O2 1_555 1_555
P1 O16 1_555 1_555
P2 O19 1_555 1_555
O2 Mo1 1_555 1_555
O3 Mo1 1_555 1_555
O4 Mo2 1_555 1_555
O5 Mo2 1_555 1_555
O6 Mo2 1_555 1_555
O7 Mo3 1_555 1_555
O8 Mo3 1_555 1_555
O9 Mo3 1_555 1_555
O10 Mo4 1_555 1_555
O11 Mo4 1_555 1_555
O12 Mo4 1_555 1_555
O13 Mo5 1_555 1_555
O14 Mo5 1_555 1_555
O15 Mo1 1_555 1_555
O16 Mo1 1_555 1_555
O17 Mo3 1_555 1_555
O18 Mo5 1_555 1_555
O19 Mo4B 1_555 1_555
O20 P2 1_555 1_555
O21 P2 1_555 1_555
N1 Co1 1_555 1_555
N2 Co1 1_555 1_555
N3 Co1 1_555 1_555
N4 C13 1_555 1_555
N5 C18 1_555 1_555
N6 C20 1_555 1_555
C1 N1 1_555 1_555
H1 C1 1_555 1_555
C2 C1 1_555 1_555
H2 C2 1_555 1_555
C3 C2 1_555 1_555
H3 C3 1_555 1_555
C4 C3 1_555 1_555
H4 C4 1_555 1_555
C5 N1 1_555 1_555
C6 N2 1_555 1_555
C7 N2 1_555 1_555
C8 N3 1_555 1_555
C9 C8 1_555 1_555
H5 C9 1_555 1_555
C10 C9 1_555 1_555
H6 C10 1_555 1_555
C11 C10 1_555 1_555
H7 C11 1_555 1_555
C12 N3 1_555 1_555
H8 C12 1_555 1_555
C13 H9 1_555 1_555
C14 C13 1_555 1_555
H10 C14 1_555 1_555
C15 C14 1_555 1_555
H11 C15 1_555 1_555
C16 C15 1_555 1_555
H12 C16 1_555 1_555
C17 N4 1_555 1_555
C18 C6 1_555 1_555
C19 N5 1_555 1_555
C20 C19 1_555 1_555
C21 C20 1_555 1_555
H13 C21 1_555 1_555
C22 C21 1_555 1_555
H14 C22 1_555 1_555
C23 C22 1_555 1_555
H15 C23 1_555 1_555
C24 N6 1_555 1_555
H16 C24 1_555 1_555
C25 P1 1_555 1_555
H17 C25 1_555 1_555
H18 C25 1_555 1_555
C26 P2 1_555 1_555
H19 C26 1_555 1_555
H20 C26 1_555 1_555
H21 N4 1_555 1_555
H22 N6 1_555 1_555
Mo1B O20 1_555 1_555
Mo2B O21 1_555 1_555
Mo3B O21 1_555 1_555
Mo5B O20 1_555 1_555
Co1B O13 1_555 1_555
O13B Co1 1_555 1_555
O18B Co1 1_555 1_555
O19B Mo4 1_555 1_555
O20B Mo1 1_555 1_555
O21B Mo2 1_555 1_555
Mo3 O21B 1_555 1_555
Mo4 O17 1_555 1_555
Mo5 O15 1_555 1_555
Mo5 O20B 1_555 1_555
P1 O17 1_555 1_555
P1 O18 1_555 1_555
O18 Co1B 1_555 1_555
C4 C5 1_555 1_555
C5 C6 1_555 1_555
C7 C8 1_555 1_555
C7 C19 1_555 1_555
C11 C12 1_555 1_555
C16 C17 1_555 1_555
C17 C18 1_555 1_555
C23 C24 1_555 1_555
C25 C26 1_555 1_555

#END
