
#######################################################################
#
#                 Cambridge Crystallographic Data Centre
#                                CCDC 
#
#######################################################################
#
# If this CIF has been generated from an entry in the Cambridge 
# Structural Database, then it will include bibliographic, chemical, 
# crystal, experimental, refinement or atomic coordinate data resulting 
# from the CCDC's data processing and validation procedures.
#
#######################################################################

data_IFAQUC
_symmetry_cell_setting           monoclinic
_symmetry_space_group_name_H-M   'P 21/n'
_symmetry_Int_Tables_number      14
_space_group_name_Hall           '-P 2yn'
loop_
_symmetry_equiv_pos_site_id
_symmetry_equiv_pos_as_xyz
1 x,y,z
2 1/2-x,1/2+y,1/2-z
3 -x,-y,-z
4 1/2+x,1/2-y,1/2+z
_cell_length_a                   8.9070(7)
_cell_length_b                   18.9320(14)
_cell_length_c                   28.644(2)
_cell_angle_alpha                90
_cell_angle_beta                 98.641(2)
_cell_angle_gamma                90
_cell_volume                     4775.33
loop_
_atom_site_label
_atom_site_type_symbol
_atom_site_fract_x
_atom_site_fract_y
_atom_site_fract_z
Mo1 Mo -0.39731(3) 0.095000(13) 0.135790(9)
Mo2 Mo -0.56773(3) 0.182290(13) 0.041260(8)
Mo3 Mo -0.53242(3) 0.370470(13) 0.073610(9)
Mo4 Mo 0.53662(3) 0.369343(13) 0.192397(9)
Mo5 Mo 0.64324(3) 0.207449(14) 0.229485(9)
Co1 Co -0.32436(5) -0.03870(2) 0.219520(14)
Co2 Co -0.90996(5) 0.22313(2) -0.038060(14)
P1 P -0.26717(8) 0.26085(4) 0.12229(3)
P2 P 0.32903(8) 0.22989(4) 0.14306(3)
O1 O -0.4614(3) 0.02521(12) 0.16696(8)
O2 O -0.2480(3) 0.06027(13) 0.11320(8)
O3 O -0.5456(2) 0.09917(11) 0.08015(7)
O4 O -0.3695(2) 0.19857(11) 0.10201(7)
O5 O 0.4452(2) 0.17719(11) 0.16834(7)
O6 O -0.4341(3) 0.16799(13) 0.00543(8)
O7 O -0.7333(2) 0.16434(11) 0.00308(7)
O8 O 0.2655(2) 0.20520(11) 0.09375(7)
O9 O -0.5659(2) 0.28207(11) 0.04105(7)
O10 O -0.4584(3) 0.42188(13) 0.03373(9)
O11 O -0.7152(3) 0.40032(14) 0.06806(9)
O12 O -0.2932(2) 0.32260(11) 0.08852(7)
O13 O 0.5505(3) 0.41340(11) 0.13250(8)
O14 O 0.4011(2) 0.30391(11) 0.13882(7)
O15 O 0.3875(3) 0.41530(13) 0.20815(9)
O16 O 0.6955(3) 0.40774(12) 0.22413(8)
O17 O -0.3024(2) 0.28216(11) 0.17137(7)
O18 O 0.5186(2) 0.28889(11) 0.23208(7)
O19 O 0.8093(3) 0.23270(14) 0.26242(8)
O20 O 0.5601(3) 0.15362(13) 0.26716(8)
O21 O -0.2806(2) 0.14076(11) 0.18944(8)
O22 O -0.4161(3) 0.01309(14) 0.26907(9)
O23 O -0.9407(3) 0.26511(15) 0.02393(9)
O24 O -1.0866(3) 0.28770(16) -0.07037(10)
N1 N -0.1090(3) 0.00757(13) 0.21401(9)
N2 N -0.2433(3) -0.09731(13) 0.16678(9)
N3 N -0.4844(3) -0.12194(14) 0.20550(9)
N4 N -0.2371(3) -0.29373(14) 0.06616(9)
N5 N -0.1464(3) -0.17026(13) 0.09785(9)
N6 N 0.0480(3) -0.13093(15) 0.04431(10)
C1 C -0.0404(4) 0.05463(17) 0.24491(12)
H1 H -0.0956 0.0746 0.2667
C2 C 0.1089(4) 0.07476(19) 0.24583(13)
H2 H 0.1527 0.1084 0.2674
C3 C 0.1921(4) 0.0440(2) 0.21414(14)
H3 H 0.2932 0.0563 0.2142
C4 C 0.1221(4) -0.00530(18) 0.18229(12)
H4 H 0.1765 -0.0275 0.1612
C5 C -0.0296(3) -0.02121(16) 0.18227(11)
C6 C -0.1162(3) -0.07560(15) 0.15113(10)
C7 C -0.3229(3) -0.15412(16) 0.14987(10)
C8 C -0.4712(3) -0.16093(16) 0.16693(11)
C9 C -0.5916(4) -0.2006(2) 0.14435(13)
H5 H -0.5841 -0.2240 0.1162
C10 C -0.7229(4) -0.2046(2) 0.16444(15)
H6 H -0.8042 -0.2318 0.1503
C11 C -0.7329(4) -0.1681(2) 0.20553(13)
H7 H -0.8190 -0.1717 0.2202
C12 C -0.6115(4) -0.12596(18) 0.22451(12)
H8 H -0.6192 -0.0996 0.2514
C13 C -0.0816(3) -0.10770(16) 0.10974(11)
C14 C -0.2578(4) -0.36055(18) 0.05192(12)
H9 H -0.2222 -0.3746 0.0245
C15 C -0.3304(5) -0.41004(19) 0.07644(14)
H10 H -0.3461 -0.4559 0.0652
C16 C -0.3783(5) -0.3897(2) 0.11754(14)
H11 H -0.4242 -0.4223 0.1352
C17 C -0.3586(4) -0.32083(19) 0.13288(12)
H12 H -0.3900 -0.3066 0.1609
C18 C -0.2910(4) -0.27318(16) 0.10570(11)
C19 C -0.2569(3) -0.19827(16) 0.11871(10)
C20 C 0.0165(3) -0.08183(17) 0.07578(11)
C21 C 0.0661(4) -0.01270(19) 0.07377(13)
H13 H 0.0364 0.0213 0.0940
C22 C 0.1606(4) 0.0052(2) 0.04132(14)
H14 H 0.1975 0.0511 0.0401
C23 C 0.1991(4) -0.0456(2) 0.01095(15)
H15 H 0.2654 -0.0352 -0.0103
C24 C 0.1372(4) -0.1128(2) 0.01248(14)
H16 H 0.1584 -0.1464 -0.0093
C25 C -0.0755(3) 0.23035(17) 0.12916(11)
H17 H -0.0705 0.1842 0.1441
H18 H -0.0461 0.2247 0.0981
C26 C 0.1839(3) 0.23935(19) 0.17942(11)
H19 H 0.1548 0.1925 0.1884
H20 H 0.2276 0.2635 0.2081
C27 C 0.0387(3) 0.27908(18) 0.15838(13)
H21 H -0.0077 0.2996 0.1838
H22 H 0.0651 0.3173 0.1386
H23 H -0.422(7) 0.0593(10) 0.2717(18)
H24 H -0.398(4) -0.0060(19) 0.2984(8)
H25 H -0.880(5) 0.252(2) 0.0493(12)
H26 H -0.984(6) 0.3062(17) 0.0317(17)
H27 H -1.081(5) 0.322(2) -0.0917(14)
H28 H -1.170(4) 0.300(3) -0.0574(17)
Mo1_2 Mo 0.60269(3) 0.095000(13) 0.135790(9)
Mo2_2 Mo 0.43227(3) 0.182290(13) 0.041260(8)
Mo3_2 Mo 0.46758(3) 0.370470(13) 0.073610(9)
Mo4_2 Mo -0.46338(3) 0.369343(13) 0.192397(9)
Mo5_2 Mo -0.35676(3) 0.207449(14) 0.229485(9)
Co1A Co 0.82436(5) 0.46130(2) 0.280480(14)
Co2B Co -0.09004(5) -0.22313(2) 0.038060(14)
O5_2 O -0.5548(2) 0.17719(11) 0.16834(7)
O8_2 O -0.7345(2) 0.20520(11) 0.09375(7)
O13_2 O -0.4495(3) 0.41340(11) 0.13250(8)
O14_2 O -0.5989(2) 0.30391(11) 0.13882(7)
O16A O -0.1955(3) -0.09226(12) 0.27587(8)
O17_2 O 0.6976(2) 0.28216(11) 0.17137(7)
O21_2 O 0.7194(2) 0.14076(11) 0.18944(8)
N4B N -0.7629(3) 0.29373(14) -0.06616(9)
N5B N -0.8536(3) 0.17026(13) -0.09785(9)
N6B N -1.0480(3) 0.13093(15) -0.04431(10)
O25 O -0.3509(4) 0.3003(2) 0.96340(14)
H29 H -0.378(9) 0.3466(17) 0.970(3)
H30 H -0.307(8) 0.284(3) 0.9922(13)
O26 O -0.0734(4) 0.38618(18) 0.04430(13)
O27 O -0.3560(4) 0.96816(19) 0.35710(11)
O28 O -0.0844(6) 0.3704(3) 0.85232(17)
H31 H -0.058(9) 0.405(4) 0.875(3)
H32 H -0.006(5) 0.365(4) 0.837(2)
O29 O -0.6706(6) -0.0160(3) 0.36217(17)
O30 O -0.2316(19) 0.4676(5) 0.9752(3)
H33 H -0.113(11) 0.442(18) 0.980(7)
H34 H -0.285(3) 0.4468(18) 0.9524(10)
O31 O -0.5661(12) 0.0627(5) 0.9356(4)
loop_
_geom_bond_atom_site_label_1
_geom_bond_atom_site_label_2
_geom_bond_site_symmetry_1
_geom_bond_site_symmetry_2
Mo1 O1 1_555 1_555
Mo2 O3 1_555 1_555
Mo3 O9 1_555 1_555
Mo4 O13 1_555 1_555
Mo5 O5 1_555 1_555
Co1 O1 1_555 1_555
Co2 O7 1_555 1_555
P1 O4 1_555 1_555
P2 O5 1_555 1_555
O2 Mo1 1_555 1_555
O3 Mo1 1_555 1_555
O4 Mo1 1_555 1_555
O5 Mo1_2 1_555 1_555
O6 Mo2 1_555 1_555
O7 Mo2 1_555 1_555
O8 P2 1_555 1_555
O9 Mo2 1_555 1_555
O10 Mo3 1_555 1_555
O11 Mo3 1_555 1_555
O12 Mo3 1_555 1_555
O13 Mo3_2 1_555 1_555
O14 Mo4 1_555 1_555
O15 Mo4 1_555 1_555
O16 Mo4 1_555 1_555
O17 P1 1_555 1_555
O18 Mo4 1_555 1_555
O19 Mo5 1_555 1_555
O20 Mo5 1_555 1_555
O21 Mo1 1_555 1_555
O22 Co1 1_555 1_555
O23 Co2 1_555 1_555
O24 Co2 1_555 1_555
O25 H29 1_555 1_555
O28 H31 1_555 1_555
O30 H33 1_555 1_555
N1 Co1 1_555 1_555
N2 Co1 1_555 1_555
N3 Co1 1_555 1_555
N4 C14 1_555 1_555
N5 C13 1_555 1_555
N6 C20 1_555 1_555
C1 N1 1_555 1_555
H1 C1 1_555 1_555
C2 C1 1_555 1_555
H2 C2 1_555 1_555
C3 C2 1_555 1_555
H3 C3 1_555 1_555
C4 C3 1_555 1_555
H4 C4 1_555 1_555
C5 N1 1_555 1_555
C6 N2 1_555 1_555
C7 N2 1_555 1_555
C8 N3 1_555 1_555
C9 C8 1_555 1_555
H5 C9 1_555 1_555
C10 C9 1_555 1_555
H6 C10 1_555 1_555
C11 C10 1_555 1_555
H7 C11 1_555 1_555
C12 N3 1_555 1_555
H8 C12 1_555 1_555
C13 C6 1_555 1_555
C14 H9 1_555 1_555
C15 C14 1_555 1_555
H10 C15 1_555 1_555
C16 C15 1_555 1_555
H11 C16 1_555 1_555
C17 C16 1_555 1_555
H12 C17 1_555 1_555
C18 N4 1_555 1_555
C19 N5 1_555 1_555
C20 C13 1_555 1_555
C21 C20 1_555 1_555
H13 C21 1_555 1_555
C22 C21 1_555 1_555
H14 C22 1_555 1_555
C23 C22 1_555 1_555
H15 C23 1_555 1_555
C24 N6 1_555 1_555
H16 C24 1_555 1_555
C25 P1 1_555 1_555
H17 C25 1_555 1_555
H18 C25 1_555 1_555
C26 P2 1_555 1_555
H19 C26 1_555 1_555
H20 C26 1_555 1_555
C27 C25 1_555 1_555
H21 C27 1_555 1_555
H22 C27 1_555 1_555
H23 O22 1_555 1_555
H24 O22 1_555 1_555
H25 O23 1_555 1_555
H26 O23 1_555 1_555
H27 O24 1_555 1_555
H28 O24 1_555 1_555
H30 O25 1_555 1_555
H32 O28 1_555 1_555
H34 O30 1_555 1_555
Mo1_2 O21_2 1_555 1_555
Mo2_2 O8 1_555 1_555
Mo3_2 O14 1_555 1_555
Mo4_2 O17 1_555 1_555
Mo5_2 O17 1_555 1_555
Co1A O16 1_555 1_555
Co2B N4 1_555 1_555
O5_2 Mo1 1_555 1_555
O8_2 Mo2 1_555 1_555
O13_2 Mo3 1_555 1_555
O14_2 Mo3 1_555 1_555
O16A Co1 1_555 1_555
O17_2 Mo4 1_555 1_555
O21_2 Mo5 1_555 1_555
N4B Co2 1_555 1_555
N5B Co2 1_555 1_555
N6B Co2 1_555 1_555
Mo2 O4 1_555 1_555
Mo5 O18 1_555 1_555
Mo5 O17_2 1_555 1_555
P1 O12 1_555 1_555
P2 O14 1_555 1_555
O21 Mo5_2 1_555 1_555
N5 Co2B 1_555 1_555
N6 Co2B 1_555 1_555
C4 C5 1_555 1_555
C5 C6 1_555 1_555
C7 C8 1_555 1_555
C7 C19 1_555 1_555
C11 C12 1_555 1_555
C17 C18 1_555 1_555
C18 C19 1_555 1_555
C23 C24 1_555 1_555
C26 C27 1_555 1_555
Mo4_2 O13_2 1_555 1_555
Mo4_2 O14_2 1_555 1_555
Mo5_2 O5_2 1_555 1_555

#END
