
#######################################################################
#
#                 Cambridge Crystallographic Data Centre
#                                CCDC 
#
#######################################################################
#
# If this CIF has been generated from an entry in the Cambridge 
# Structural Database, then it will include bibliographic, chemical, 
# crystal, experimental, refinement or atomic coordinate data resulting 
# from the CCDC's data processing and validation procedures.
#
#######################################################################

data_IFAQEM
_symmetry_cell_setting           orthorhombic
_symmetry_space_group_name_H-M   'P b c a'
_symmetry_Int_Tables_number      61
_space_group_name_Hall           '-P 2ac 2ab'
loop_
_symmetry_equiv_pos_site_id
_symmetry_equiv_pos_as_xyz
1 x,y,z
2 1/2-x,-y,1/2+z
3 -x,1/2+y,1/2-z
4 1/2+x,1/2-y,-z
5 -x,-y,-z
6 1/2+x,y,1/2-z
7 x,1/2-y,1/2+z
8 1/2-x,1/2+y,z
_cell_length_a                   24.2224(11)
_cell_length_b                   15.4803(7)
_cell_length_c                   30.6161(14)
_cell_angle_alpha                90
_cell_angle_beta                 90
_cell_angle_gamma                90
_cell_volume                     11480.1
loop_
_atom_site_label
_atom_site_type_symbol
_atom_site_fract_x
_atom_site_fract_y
_atom_site_fract_z
Mo1 Mo 0.659914(18) 0.03480(2) 0.211278(14)
Mo2 Mo 0.788963(18) -0.04309(2) 0.217590(14)
Mo3 Mo 0.64023(2) 0.07816(3) 0.093957(15)
Mo4 Mo 0.85672(2) 0.00735(3) 0.123717(16)
Mo5 Mo 0.76837(2) 0.09386(3) 0.051550(15)
Co1 Co 0.68010(3) 0.23375(4) 0.24134(2)
Co2 Co 0.56867(3) 0.40838(4) 0.42126(2)
P1 P 0.77586(6) 0.42461(7) 0.12159(4)
P2 P 0.75851(5) 0.15237(7) 0.15890(4)
O1 O 0.71315(14) 0.16455(19) 0.19322(11)
O2 O 0.63241(14) 0.1153(2) 0.24510(11)
O3 O 0.62220(16) -0.0537(2) 0.22540(13)
O4 O 0.63128(15) 0.0609(2) 0.15675(11)
O5 O 0.72728(15) 0.0169(2) 0.24318(11)
O6 O 0.83826(16) -0.0071(2) 0.25270(13)
O7 O 0.77671(15) -0.1490(2) 0.23352(12)
O8 O 0.80015(15) 0.0844(2) 0.17435(12)
O9 O 0.77928(15) 0.4562(2) 0.16985(11)
O10 O 0.72978(15) 0.1266(2) 0.11581(11)
O11 O 0.62309(18) 0.1858(2) 0.09345(11)
O12 O 0.58284(18) 0.0334(3) 0.07169(13)
O13 O 0.69035(16) 0.0712(2) 0.04636(12)
O14 O 0.83179(16) 0.4395(2) 0.10056(12)
O15 O 0.77142(19) 0.1965(2) 0.03160(13)
O16 O 0.7921(2) 0.0315(3) 0.00927(14)
O17 O 0.83505(16) 0.0995(2) 0.08700(12)
O18 O 0.72933(16) 0.4709(2) 0.09660(12)
O19 O 0.88669(18) -0.0634(3) 0.08776(14)
O20 O 0.91198(17) 0.0536(3) 0.14939(14)
O21 O 0.83229(15) -0.0711(2) 0.16823(12)
N1 N 0.73679(17) 0.2015(2) 0.29199(14)
N2 N 0.64444(17) 0.2855(2) 0.29747(13)
N3 N 0.60713(17) 0.2951(3) 0.21832(14)
N4 N 0.62027(19) 0.3131(3) 0.44858(14)
N5 N 0.60142(17) 0.3569(3) 0.36861(13)
N6 N 0.53886(18) 0.4901(3) 0.37246(14)
N7 N 0.50482(19) 0.3227(3) 0.42733(14)
N8 N 0.53137(16) 0.4567(2) 0.47129(13)
N9 N 0.37690(18) 0.4981(3) 0.56156(14)
C1 C 0.7876(2) 0.1714(3) 0.28524(19)
H1 H 0.7968 0.1506 0.2570
C2 C 0.8274(2) 0.1689(4) 0.3172(2)
H2 H 0.8630 0.1462 0.3111
C3 C 0.8149(2) 0.1998(4) 0.3583(2)
H3 H 0.8420 0.2002 0.3808
C4 C 0.7616(2) 0.2306(4) 0.36624(19)
H4 H 0.7515 0.2518 0.3943
C5 C 0.7240(2) 0.2296(3) 0.33272(16)
C6 C 0.6680(2) 0.2680(3) 0.33565(16)
C7 C 0.6005(2) 0.3360(3) 0.29306(16)
C8 C 0.5748(2) 0.3332(3) 0.24917(16)
C9 C 0.5219(2) 0.3627(4) 0.24028(19)
H5 H 0.4985 0.3824 0.2631
C10 C 0.5038(3) 0.3628(4) 0.1967(2)
H6 H 0.4682 0.3842 0.1893
C11 C 0.5388(3) 0.3311(4) 0.16495(18)
H7 H 0.5285 0.3340 0.1351
C12 C 0.5888(2) 0.2950(3) 0.17664(17)
H8 H 0.6110 0.2693 0.1546
C13 C 0.6205(3) 0.2877(4) 0.49014(18)
H9 H 0.6062 0.3255 0.5118
C14 C 0.6409(3) 0.2081(5) 0.5026(2)
H10 H 0.6425 0.1931 0.5327
C15 C 0.6587(2) 0.1510(4) 0.4720(2)
H11 H 0.6701 0.0945 0.4800
C16 C 0.6600(2) 0.1773(4) 0.42849(18)
H12 H 0.6727 0.1392 0.4063
C17 C 0.6424(2) 0.2592(3) 0.41825(16)
C18 C 0.6390(2) 0.2937(3) 0.37358(16)
C19 C 0.5841(2) 0.3850(3) 0.32937(16)
C20 C 0.55385(19) 0.4677(3) 0.33124(16)
C21 C 0.5469(2) 0.5232(3) 0.29637(17)
H13 H 0.5593 0.5074 0.2680
C22 C 0.5215(2) 0.6029(4) 0.30334(19)
H14 H 0.5152 0.6414 0.2797
C23 C 0.5059(3) 0.6245(4) 0.3448(2)
H15 H 0.4881 0.6781 0.3503
C24 C 0.5161(2) 0.5679(4) 0.3788(2)
H16 H 0.5067 0.5849 0.4076
C25 C 0.5010(3) 0.2461(4) 0.4073(2)
H17 H 0.5223 0.2370 0.3816
C26 C 0.4684(3) 0.1806(4) 0.4216(2)
H18 H 0.4669 0.1274 0.4062
C27 C 0.4377(3) 0.1927(4) 0.4588(3)
H19 H 0.4152 0.1475 0.4699
C28 C 0.4401(2) 0.2727(3) 0.4802(2)
H20 H 0.4195 0.2823 0.5062
C29 C 0.4726(2) 0.3370(3) 0.46290(17)
C30 C 0.48219(19) 0.4229(3) 0.48285(15)
C31 C 0.4486(2) 0.4696(3) 0.51135(15)
C32 C 0.3911(2) 0.4531(3) 0.52519(16)
C33 C 0.3525(2) 0.4061(3) 0.50195(18)
H21 H 0.3624 0.3786 0.4753
C34 C 0.2990(2) 0.3997(4) 0.5180(2)
H22 H 0.2719 0.3668 0.5030
C35 C 0.2861(3) 0.4419(4) 0.5562(2)
H23 H 0.2501 0.4369 0.5684
C36 C 0.3256(2) 0.4915(4) 0.57683(19)
H24 H 0.3159 0.5219 0.6027
C37 C 0.7566(2) 0.3132(3) 0.12228(17)
H25 H 0.7570 0.2915 0.0919
H26 H 0.7182 0.3089 0.1331
C38 C 0.7932(2) 0.2534(3) 0.15031(17)
H27 H 0.8010 0.2812 0.1788
H28 H 0.8289 0.2432 0.1353
Mo1G Mo 0.840086(18) -0.46520(2) 0.211278(14)
Mo1G_2 Mo 0.840086(18) 0.53480(2) 0.211278(14)
Mo2G Mo 0.711037(18) -0.54309(2) 0.217590(14)
Mo2G_2 Mo 0.711037(18) 0.45691(2) 0.217590(14)
Mo3G Mo 0.85977(2) -0.42184(3) 0.093957(15)
Mo3G_2 Mo 0.85977(2) 0.57816(3) 0.093957(15)
Mo4G Mo 0.64328(2) -0.49265(3) 0.123717(16)
Mo4G_2 Mo 0.64328(2) 0.50735(3) 0.123717(16)
Mo5G Mo 0.73163(2) -0.40614(3) 0.051550(15)
Mo5G_2 Mo 0.73163(2) 0.59386(3) 0.051550(15)
Co1G Co 0.81990(3) -0.26625(4) 0.24134(2)
Co2G Co 0.93133(3) -0.09162(4) 0.42126(2)
Co2D Co 0.43133(3) 0.59162(4) 0.57874(2)
P1G P 0.72414(6) -0.07539(7) 0.12159(4)
P2G P 0.74149(5) -0.34763(7) 0.15890(4)
O1G O 0.78685(14) -0.33545(19) 0.19322(11)
O2G O 0.86759(14) -0.3847(2) 0.24510(11)
O3G O 0.87780(16) -0.5537(2) 0.22540(13)
O4G O 0.86872(15) -0.4391(2) 0.15675(11)
O5G O 0.77272(15) -0.4831(2) 0.24318(11)
O6G O 0.66174(16) -0.5071(2) 0.25270(13)
O7G O 0.72329(15) 0.3510(2) 0.23352(12)
O7G_2 O 0.72329(15) -0.6490(2) 0.23352(12)
O8G O 0.69985(15) -0.4156(2) 0.17435(12)
O9G O 0.72072(15) -0.0438(2) 0.16985(11)
O9_2 O 0.77928(15) -0.5438(2) 0.16985(11)
O10G O 0.77022(15) -0.3734(2) 0.11581(11)
O11G O 0.87691(18) -0.3142(2) 0.09345(11)
O12G O 0.91716(18) -0.4666(3) 0.07169(13)
O13G O 0.80965(16) -0.4288(2) 0.04636(12)
O14G O 0.66821(16) -0.0605(2) 0.10056(12)
O14_2 O 0.83179(16) -0.5605(2) 0.10056(12)
O15G O 0.72858(19) -0.3035(2) 0.03160(13)
O16G O 0.7079(2) -0.4685(3) 0.00927(14)
O17G O 0.66495(16) -0.4005(2) 0.08700(12)
O18G O 0.77067(16) -0.0291(2) 0.09660(12)
O18_2 O 0.72933(16) -0.5291(2) 0.09660(12)
O19G O 0.61331(18) -0.5634(3) 0.08776(14)
O20G O 0.58802(17) -0.4464(3) 0.14939(14)
O21G O 0.66771(15) -0.5711(2) 0.16823(12)
N1G N 0.76321(17) -0.2985(2) 0.29199(14)
N2G N 0.85556(17) -0.2145(2) 0.29747(13)
N3G N 0.89287(17) -0.2049(3) 0.21832(14)
N4G N 0.87973(19) -0.1869(3) 0.44858(14)
N5G N 0.89858(17) -0.1431(3) 0.36861(13)
N6G N 0.96114(18) -0.0099(3) 0.37246(14)
N7D N 0.49518(19) 0.6773(3) 0.57267(14)
N7G N 0.99518(19) -0.1773(3) 0.42733(14)
N8D N 0.46863(16) 0.5433(2) 0.52871(13)
N8G N 0.96863(16) -0.0433(2) 0.47129(13)
N9D N 0.62310(18) 0.5019(3) 0.43844(14)
N9C N 0.87690(18) 0.0019(3) 0.43844(14)
C1G C 0.7124(2) -0.3286(3) 0.28524(19)
H1G H 0.7032 -0.3494 0.2570
C2G C 0.6726(2) -0.3311(4) 0.3172(2)
H2G H 0.6370 -0.3538 0.3111
C3G C 0.6851(2) -0.3002(4) 0.3583(2)
H3G H 0.6580 -0.2998 0.3808
C4G C 0.7384(2) -0.2694(4) 0.36624(19)
H4G H 0.7485 -0.2482 0.3943
C5G C 0.7760(2) -0.2704(3) 0.33272(16)
C6G C 0.8320(2) -0.2320(3) 0.33565(16)
C7G C 0.8995(2) -0.1640(3) 0.29306(16)
C8G C 0.9252(2) -0.1668(3) 0.24917(16)
C9G C 0.9781(2) -0.1373(4) 0.24028(19)
H5G H 1.0015 -0.1176 0.2631
C10G C 0.9962(3) -0.1372(4) 0.1967(2)
H6G H 1.0318 -0.1158 0.1893
C11G C 0.9612(3) -0.1689(4) 0.16495(18)
H7G H 0.9715 -0.1660 0.1351
C12G C 0.9112(2) -0.2050(3) 0.17664(17)
H8G H 0.8890 -0.2307 0.1546
C13G C 0.8795(3) -0.2123(4) 0.49014(18)
H9G H 0.8938 -0.1745 0.5118
C14G C 0.8591(3) -0.2919(5) 0.5026(2)
H10G H 0.8575 -0.3069 0.5327
C15G C 0.8413(2) -0.3490(4) 0.4720(2)
H11G H 0.8299 -0.4055 0.4800
C16G C 0.8400(2) -0.3227(4) 0.42849(18)
H12G H 0.8273 -0.3608 0.4063
C17G C 0.8576(2) -0.2408(3) 0.41825(16)
C18G C 0.8610(2) -0.2063(3) 0.37358(16)
C19G C 0.9159(2) -0.1150(3) 0.32937(16)
C20G C 0.94615(19) -0.0323(3) 0.33124(16)
C21G C 0.9531(2) 0.0232(3) 0.29637(17)
H13G H 0.9407 0.0074 0.2680
C22G C 0.9785(2) 0.1029(4) 0.30334(19)
H14G H 0.9848 0.1414 0.2797
C23G C 0.9941(3) 0.1245(4) 0.3448(2)
H15G H 1.0119 0.1781 0.3503
C24G C 0.9839(2) 0.0679(4) 0.3788(2)
H16G H 0.9933 0.0849 0.4076
C25D C 0.4990(3) 0.7539(4) 0.5927(2)
H17D H 0.4777 0.7630 0.6184
C26D C 0.5316(3) 0.8194(4) 0.5784(2)
H18D H 0.5331 0.8726 0.5938
C27D C 0.5623(3) 0.8073(4) 0.5412(3)
H19D H 0.5848 0.8525 0.5301
C28D C 0.5599(2) 0.7273(3) 0.5198(2)
H20D H 0.5805 0.7177 0.4938
C29D C 0.5274(2) 0.6630(3) 0.53710(17)
C30D C 0.51781(19) 0.5771(3) 0.51715(15)
C31D C 0.5514(2) 0.5304(3) 0.48865(15)
C32D C 0.6089(2) 0.5469(3) 0.47481(16)
C33D C 0.6475(2) 0.5939(3) 0.49805(18)
H21D H 0.6376 0.6214 0.5247
C34D C 0.7010(2) 0.6003(4) 0.4820(2)
H22D H 0.7281 0.6332 0.4970
C35D C 0.7139(3) 0.5581(4) 0.4438(2)
H23D H 0.7499 0.5631 0.4316
C36D C 0.6744(2) 0.5085(4) 0.42317(19)
H24D H 0.6841 0.4781 0.3973
C37G C 0.7434(2) -0.1868(3) 0.12228(17)
H25G H 0.7430 -0.2085 0.0919
H26G H 0.7818 -0.1911 0.1331
C38G C 0.7068(2) -0.2466(3) 0.15031(17)
H27G H 0.6990 -0.2188 0.1788
H28G H 0.6711 -0.2568 0.1353
O22 O 0.5701(2) 0.8547(3) 0.15920(16)
O23 O 0.5497(2) 0.6921(3) 0.20019(17)
O24 O 0.4826(2) 0.7340(4) 0.43876(19)
O25 O 0.5579(2) 0.1468(4) 0.31630(18)
O26 O 0.9657(4) 0.9066(6) 0.0276(3)
O27 O 0.5595(5) 0.9922(8) 0.4532(4)
O30 O 0.6930(13) 0.972(2) 0.375(3)
O32 O 0.6593(10) 0.819(2) 0.4498(5)
O33 O 0.5837(8) 0.0104(12) 0.3718(5)
O34 O 0.7609(14) 0.9477(13) 0.3377(5)
O28? O 0.5286(6) 0.0118(10) 0.3690(5)
O29? O 0.6847(17) 0.903(5) 0.4157(19)
O31? O 0.649(2) 0.909(4) 0.439(2)
O35? O 0.7127(12) 1.0167(11) 0.3427(7)
loop_
_geom_bond_atom_site_label_1
_geom_bond_atom_site_label_2
_geom_bond_site_symmetry_1
_geom_bond_site_symmetry_2
Mo1 O1 1_555 1_555
Mo2 O5 1_555 1_555
Mo3 O4 1_555 1_555
Mo4 O8 1_555 1_555
Mo5 O10 1_555 1_555
Co1 O1 1_555 1_555
Co2 N4 1_555 1_555
P1 O9 1_555 1_555
P2 O1 1_555 1_555
O2 Mo1 1_555 1_555
O3 Mo1 1_555 1_555
O4 Mo1 1_555 1_555
O5 Mo1 1_555 1_555
O6 Mo2 1_555 1_555
O7 Mo2 1_555 1_555
O8 Mo2 1_555 1_555
O9 Mo1G_2 1_555 1_555
O10 Mo3 1_555 1_555
O11 Mo3 1_555 1_555
O12 Mo3 1_555 1_555
O13 Mo3 1_555 1_555
O14 P1 1_555 1_555
O15 Mo5 1_555 1_555
O16 Mo5 1_555 1_555
O17 Mo4 1_555 1_555
O18 P1 1_555 1_555
O19 Mo4 1_555 1_555
O20 Mo4 1_555 1_555
O21 Mo2 1_555 1_555
N1 Co1 1_555 1_555
N2 Co1 1_555 1_555
N3 Co1 1_555 1_555
N4 C13 1_555 1_555
N5 Co2 1_555 1_555
N6 Co2 1_555 1_555
N7 Co2 1_555 1_555
N8 Co2 1_555 1_555
N9 C32 1_555 1_555
C1 N1 1_555 1_555
H1 C1 1_555 1_555
C2 C1 1_555 1_555
H2 C2 1_555 1_555
C3 C2 1_555 1_555
H3 C3 1_555 1_555
C4 C3 1_555 1_555
H4 C4 1_555 1_555
C5 N1 1_555 1_555
C6 N2 1_555 1_555
C7 N2 1_555 1_555
C8 N3 1_555 1_555
C9 C8 1_555 1_555
H5 C9 1_555 1_555
C10 C9 1_555 1_555
H6 C10 1_555 1_555
C11 C10 1_555 1_555
H7 C11 1_555 1_555
C12 N3 1_555 1_555
H8 C12 1_555 1_555
C13 H9 1_555 1_555
C14 C13 1_555 1_555
H10 C14 1_555 1_555
C15 C14 1_555 1_555
H11 C15 1_555 1_555
C16 C15 1_555 1_555
H12 C16 1_555 1_555
C17 N4 1_555 1_555
C18 N5 1_555 1_555
C19 N5 1_555 1_555
C20 N6 1_555 1_555
C21 C20 1_555 1_555
H13 C21 1_555 1_555
C22 C21 1_555 1_555
H14 C22 1_555 1_555
C23 C22 1_555 1_555
H15 C23 1_555 1_555
C24 N6 1_555 1_555
H16 C24 1_555 1_555
C25 N7 1_555 1_555
H17 C25 1_555 1_555
C26 C25 1_555 1_555
H18 C26 1_555 1_555
C27 C26 1_555 1_555
H19 C27 1_555 1_555
C28 C27 1_555 1_555
H20 C28 1_555 1_555
C29 N7 1_555 1_555
C30 N8 1_555 1_555
C31 C30 1_555 1_555
C32 C31 1_555 1_555
C33 C32 1_555 1_555
H21 C33 1_555 1_555
C34 C33 1_555 1_555
H22 C34 1_555 1_555
C35 C34 1_555 1_555
H23 C35 1_555 1_555
C36 N9 1_555 1_555
H24 C36 1_555 1_555
C37 P1 1_555 1_555
H25 C37 1_555 1_555
H26 C37 1_555 1_555
C38 P2 1_555 1_555
H27 C38 1_555 1_555
H28 C38 1_555 1_555
Mo1G O1G 1_555 1_555
Mo2G O5G 1_555 1_555
Mo2G_2 O9 1_555 1_555
Mo3G O4G 1_555 1_555
Mo3G_2 O14 1_555 1_555
Mo4G O8G 1_555 1_555
Mo4G_2 O18 1_555 1_555
Mo5G O10G 1_555 1_555
Mo5G_2 O18 1_555 1_555
Co1G O7 1_555 1_555
Co2G N4G 1_555 1_555
Co2D N9 1_555 1_555
P1G O9G 1_555 1_555
P2G O1G 1_555 1_555
O1G Co1G 1_555 1_555
O2G Mo1G 1_555 1_555
O3G Mo1G 1_555 1_555
O4G Mo1G 1_555 1_555
O5G Mo1G 1_555 1_555
O6G Mo2G 1_555 1_555
O7G Co1 1_555 1_555
O7G_2 Mo2G 1_555 1_555
O8G Mo2G 1_555 1_555
O9G Mo1 1_555 1_555
O9_2 Mo1G 1_555 1_555
O10G Mo3G 1_555 1_555
O11G Mo3G 1_555 1_555
O12G Mo3G 1_555 1_555
O13G Mo3G 1_555 1_555
O14G Mo3 1_555 1_555
O14_2 Mo3G 1_555 1_555
O15G Mo5G 1_555 1_555
O16G Mo5G 1_555 1_555
O17G Mo4G 1_555 1_555
O18G Mo4 1_555 1_555
O18_2 Mo4G 1_555 1_555
O19G Mo4G 1_555 1_555
O20G Mo4G 1_555 1_555
O21G Mo2G 1_555 1_555
N1G Co1G 1_555 1_555
N2G Co1G 1_555 1_555
N3G Co1G 1_555 1_555
N4G C13G 1_555 1_555
N5G Co2G 1_555 1_555
N6G Co2G 1_555 1_555
N7D Co2D 1_555 1_555
N7G Co2G 1_555 1_555
N8D C31 1_555 1_555
N8G Co2G 1_555 1_555
N9D Co2 1_555 1_555
N9C Co2G 1_555 1_555
C1G N1G 1_555 1_555
H1G C1G 1_555 1_555
C2G C1G 1_555 1_555
H2G C2G 1_555 1_555
C3G C2G 1_555 1_555
H3G C3G 1_555 1_555
C4G C3G 1_555 1_555
H4G C4G 1_555 1_555
C5G N1G 1_555 1_555
C6G N2G 1_555 1_555
C7G N2G 1_555 1_555
C8G N3G 1_555 1_555
C9G C8G 1_555 1_555
H5G C9G 1_555 1_555
C10G C9G 1_555 1_555
H6G C10G 1_555 1_555
C11G C10G 1_555 1_555
H7G C11G 1_555 1_555
C12G N3G 1_555 1_555
H8G C12G 1_555 1_555
C13G H9G 1_555 1_555
C14G C13G 1_555 1_555
H10G C14G 1_555 1_555
C15G C14G 1_555 1_555
H11G C15G 1_555 1_555
C16G C15G 1_555 1_555
H12G C16G 1_555 1_555
C17G N4G 1_555 1_555
C18G N5G 1_555 1_555
C19G N5G 1_555 1_555
C20G N6G 1_555 1_555
C21G C20G 1_555 1_555
H13G C21G 1_555 1_555
C22G C21G 1_555 1_555
H14G C22G 1_555 1_555
C23G C22G 1_555 1_555
H15G C23G 1_555 1_555
C24G N6G 1_555 1_555
H16G C24G 1_555 1_555
C25D N7D 1_555 1_555
H17D C25D 1_555 1_555
C26D C25D 1_555 1_555
H18D C26D 1_555 1_555
C27D C26D 1_555 1_555
H19D C27D 1_555 1_555
C28D C27D 1_555 1_555
H20D C28D 1_555 1_555
C29D N7D 1_555 1_555
C30D N8D 1_555 1_555
C31D N8 1_555 1_555
C32D N9D 1_555 1_555
C33D C32D 1_555 1_555
H21D C33D 1_555 1_555
C34D C33D 1_555 1_555
H22D C34D 1_555 1_555
C35D C34D 1_555 1_555
H23D C35D 1_555 1_555
C36D N9D 1_555 1_555
H24D C36D 1_555 1_555
C37G P1G 1_555 1_555
H25G C37G 1_555 1_555
H26G C37G 1_555 1_555
C38G P2G 1_555 1_555
H27G C38G 1_555 1_555
H28G C38G 1_555 1_555
Mo2 O9G 1_555 1_555
Mo4 O21 1_555 1_555
Mo5 O13 1_555 1_555
Mo5 O17 1_555 1_555
Mo5 O18G 1_555 1_555
Co1 O2 1_555 1_555
P2 O8 1_555 1_555
P2 O10 1_555 1_555
C4 C5 1_555 1_555
C5 C6 1_555 1_555
C6 C18 1_555 1_555
C7 C8 1_555 1_555
C7 C19 1_555 1_555
C11 C12 1_555 1_555
C16 C17 1_555 1_555
C17 C18 1_555 1_555
C19 C20 1_555 1_555
C23 C24 1_555 1_555
C28 C29 1_555 1_555
C29 C30 1_555 1_555
C35 C36 1_555 1_555
C37 C38 1_555 1_555
Mo2G O9_2 1_555 1_555
Mo2G_2 O7G 1_555 1_555
Mo4G O21G 1_555 1_555
Mo5G O13G 1_555 1_555
Mo5G O17G 1_555 1_555
Mo5G O18_2 1_555 1_555
Co1G O2G 1_555 1_555
Co2D N8D 1_555 1_555
P1G O14G 1_555 1_555
P1G O18G 1_555 1_555
P2G O8G 1_555 1_555
P2G O10G 1_555 1_555
C4G C5G 1_555 1_555
C5G C6G 1_555 1_555
C6G C18G 1_555 1_555
C7G C8G 1_555 1_555
C7G C19G 1_555 1_555
C11G C12G 1_555 1_555
C16G C17G 1_555 1_555
C17G C18G 1_555 1_555
C19G C20G 1_555 1_555
C23G C24G 1_555 1_555
C28D C29D 1_555 1_555
C29D C30D 1_555 1_555
C30D C31D 1_555 1_555
C31D C32D 1_555 1_555
C35D C36D 1_555 1_555
C37G C38G 1_555 1_555

#END
