
#######################################################################
#
#                 Cambridge Crystallographic Data Centre
#                                CCDC 
#
#######################################################################
#
# If this CIF has been generated from an entry in the Cambridge 
# Structural Database, then it will include bibliographic, chemical, 
# crystal, experimental, refinement or atomic coordinate data resulting 
# from the CCDC's data processing and validation procedures.
#
#######################################################################

data_IFARAJ
_symmetry_cell_setting           triclinic
_symmetry_space_group_name_H-M   'P -1'
_symmetry_Int_Tables_number      2
_space_group_name_Hall           '-P 1'
loop_
_symmetry_equiv_pos_site_id
_symmetry_equiv_pos_as_xyz
1 x,y,z
2 -x,-y,-z
_cell_length_a                   8.7152(10)
_cell_length_b                   10.8111(12)
_cell_length_c                   22.274(3)
_cell_angle_alpha                88.800(2)
_cell_angle_beta                 86.867(2)
_cell_angle_gamma                80.740(2)
_cell_volume                     2068.07
loop_
_atom_site_label
_atom_site_type_symbol
_atom_site_fract_x
_atom_site_fract_y
_atom_site_fract_z
Mo1 Mo 0.94233(7) 0.95918(5) 0.20532(3)
Mo2 Mo 0.78319(7) 0.56460(5) 0.34736(2)
Mo3 Mo 0.84097(7) 0.88991(5) 0.34745(3)
Mo4 Mo 0.86654(7) 0.72826(5) 0.11596(3)
Mo5 Mo 0.75412(7) 0.49250(5) 0.20326(2)
Co1 Co 0.91747(11) 0.28467(9) 0.43228(4)
Co2 Co 0.92134(11) 1.23085(9) 0.10389(4)
P1 P 1.63269(19) 0.79683(16) 0.24472(8)
P2 P 1.04421(19) 0.65250(16) 0.24898(8)
O1 O 0.8115(6) 0.4421(4) 0.2825(2)
O2 O 0.7210(6) 0.6174(5) 0.1398(2)
O3 O 0.8763(6) 0.4619(5) 0.4004(2)
O4 O 1.0319(6) 0.5749(4) 0.3063(2)
O5 O 0.9636(5) 0.6016(4) 0.1964(2)
O6 O 0.8113(6) 0.7214(5) 0.3734(2)
O7 O 0.8481(6) 1.0119(4) 0.2822(2)
O8 O 0.9704(6) 0.7899(4) 0.2632(2)
O9 O 1.6986(6) 0.6580(4) 0.2610(2)
O10 O 1.7322(6) 0.8480(4) 0.1929(2)
O11 O 1.6253(6) 0.8725(4) 0.3013(2)
O12 O 0.7581(7) 0.8228(5) 0.0667(2)
O13 O 0.9965(6) 0.6304(5) 0.0692(2)
O14 O 0.8636(6) 0.3660(5) 0.1652(2)
O15 O 0.5709(6) 0.4583(5) 0.2052(2)
O16 O 0.7272(6) 0.9805(5) 0.3996(2)
O17 O 1.0231(6) 0.8835(5) 0.3734(2)
O18 O 0.5918(6) 0.5655(5) 0.3686(2)
O19 O 0.8593(6) 1.0852(5) 0.1612(2)
O20 O 1.0004(6) 0.8358(5) 0.1420(2)
O21 O 1.1266(6) 0.9871(5) 0.2139(2)
O23 O 0.9973(8) 1.3739(5) 0.0507(2)
O24 O 0.9834(7) 0.3663(5) 0.5134(3)
O25 O 0.8446(8) 0.2332(5) 0.3489(2)
N1 N 1.1479(8) 0.2237(6) 0.4038(3)
N2 N 0.9602(7) 0.1040(6) 0.4674(3)
N3 N 1.2906(7) -0.2655(6) 0.5223(3)
N4 N 0.7115(7) 1.2462(6) 0.0565(3)
N5 N 0.9800(7) 1.1024(6) 0.0342(3)
N6 N 0.8440(7) 0.8431(6) -0.1165(3)
C1 C 1.2201(10) 0.2891(7) 0.3630(4)
H1 H 1.1853 0.3767 0.3592
C2 C 1.3447(11) 0.2337(8) 0.3256(4)
H2 H 1.3987 0.2833 0.2988
C3 C 1.3876(10) 0.1064(8) 0.3284(4)
H3 H 1.4697 0.0660 0.3024
C4 C 1.3089(9) 0.0359(7) 0.3700(3)
H4 H 1.3330 -0.0529 0.3712
C5 C 1.1956(8) 0.0992(7) 0.4093(3)
C6 C 1.1039(8) 0.0393(6) 0.4578(3)
C7 C 1.1468(8) -0.0699(6) 0.4926(3)
C8 C 1.3015(9) -0.1546(7) 0.4944(3)
C9 C 1.4434(9) -0.1238(6) 0.4751(3)
H5 H 1.4490 -0.0454 0.4557
C10 C 1.5788(9) -0.2084(7) 0.4841(3)
H6 H 1.6778 -0.1878 0.4717
C11 C 1.5669(9) -0.3232(7) 0.5114(4)
H7 H 1.6569 -0.3840 0.5168
C12 C 1.4204(9) -0.3468(7) 0.5306(3)
H8 H 1.4119 -0.4241 0.5506
C13 C 1.4448(8) 0.7939(7) 0.2170(3)
H9 H 1.3934 0.8813 0.2104
H10 H 1.4584 0.7521 0.1775
C14 C 1.3372(8) 0.7270(7) 0.2582(3)
H11 H 1.2679 0.7895 0.2833
H12 H 1.4004 0.6683 0.2854
C15 C 1.2385(8) 0.6545(7) 0.2212(3)
H13 H 1.2921 0.5667 0.2180
H14 H 1.2354 0.6908 0.1800
C16 C 0.5842(9) 1.3313(7) 0.0669(3)
H15 H 0.5655 1.3677 0.1056
C17 C 0.7346(8) 1.1908(6) 0.0024(3)
C18 C 0.8678(8) 1.0867(6) -0.0023(3)
C19 C 0.8870(8) 0.9771(6) -0.0370(3)
C20 C 0.4785(9) 1.3683(7) 0.0234(4)
H16 H 0.3846 1.4238 0.0329
C21 C 0.5121(9) 1.3231(7) -0.0343(4)
H17 H 0.4469 1.3535 -0.0660
C22 C 0.6422(8) 1.2330(7) -0.0452(3)
H18 H 0.6678 1.2005 -0.0844
C23 C 0.7589(9) 0.7961(7) -0.1559(3)
H19 H 0.8082 0.7321 -0.1824
C24 C 0.6013(9) 0.8379(7) -0.1592(3)
H20 H 0.5446 0.8068 -0.1893
C25 C 0.5258(9) 0.9260(7) -0.1183(3)
H21 H 0.4168 0.9539 -0.1190
C26 C 0.6148(8) 0.9722(7) -0.0764(3)
H22 H 0.5666 1.0309 -0.0472
C27 C 0.7757(8) 0.9313(6) -0.0776(3)
Mo1_2 Mo -0.05767(7) 0.95918(5) 0.20532(3)
Mo1_3 Mo 1.94233(7) 0.95918(5) 0.20532(3)
Mo2_2 Mo -0.21681(7) 0.56460(5) 0.34736(2)
Mo2_3 Mo 1.78319(7) 0.56460(5) 0.34736(2)
Mo3_2 Mo -0.15903(7) 0.88991(5) 0.34745(3)
Mo3_3 Mo 1.84097(7) 0.88991(5) 0.34745(3)
Mo4_2 Mo -0.13346(7) 0.72826(5) 0.11596(3)
Mo4_3 Mo 1.86654(7) 0.72826(5) 0.11596(3)
Mo5_2 Mo -0.24588(7) 0.49250(5) 0.20326(2)
Mo5_3 Mo 1.75412(7) 0.49250(5) 0.20326(2)
Mo5_4 Mo 0.75412(7) 1.49250(5) 0.20326(2)
Co1_2 Co -0.08253(11) 0.28467(9) 0.43228(4)
Co1A Co 1.08253(11) -0.28467(9) 0.56772(4)
Co2_2 Co 0.92134(11) 0.23085(9) 0.10389(4)
Co2A Co 1.07866(11) 0.76915(9) -0.10389(4)
Co2_3 Co -0.07866(11) 1.23085(9) 0.10389(4)
P1_2 P 0.63269(19) 0.79683(16) 0.24472(8)
P2_2 P 0.04421(19) 0.65250(16) 0.24898(8)
O1_2 O -0.1885(6) 0.4421(4) 0.2825(2)
O2_2 O -0.2790(6) 0.6174(5) 0.1398(2)
O3_2 O -0.1237(6) 0.4619(5) 0.4004(2)
O4_2 O 0.0319(6) 0.5749(4) 0.3063(2)
O5_2 O -0.0364(5) 0.6016(4) 0.1964(2)
O6_2 O -0.1887(6) 0.7214(5) 0.3734(2)
O7_2 O -0.1519(6) 1.0119(4) 0.2822(2)
O8_2 O -0.0296(6) 0.7899(4) 0.2632(2)
O9_2 O 0.6986(6) 0.6580(4) 0.2610(2)
O9_3 O -0.3014(6) 0.6580(4) 0.2610(2)
O10_2 O 0.7322(6) 0.8480(4) 0.1929(2)
O10_3 O -0.2678(6) 0.8480(4) 0.1929(2)
O11_2 O 0.6253(6) 0.8725(4) 0.3013(2)
O11_3 O -0.3747(6) 0.8725(4) 0.3013(2)
O12_2 O -0.2419(7) 0.8228(5) 0.0667(2)
O13_2 O -0.0035(6) 0.6304(5) 0.0692(2)
O14_2 O 0.8636(6) 1.3660(5) 0.1652(2)
O14_3 O -0.1364(6) 0.3660(5) 0.1652(2)
O15_2 O -0.4291(6) 0.4583(5) 0.2052(2)
O16_2 O -0.2728(6) 0.9805(5) 0.3996(2)
O17_2 O 0.0231(6) 0.8835(5) 0.3734(2)
O18_2 O -0.4082(6) 0.5655(5) 0.3686(2)
O19_2 O -0.1407(6) 1.0852(5) 0.1612(2)
O19_3 O 0.8593(6) 0.0852(5) 0.1612(2)
O20_2 O 0.0004(6) 0.8358(5) 0.1420(2)
O21_2 O 0.1266(6) 0.9871(5) 0.2139(2)
O23_2 O 0.9973(8) 0.3739(5) 0.0507(2)
O24_2 O -0.0166(7) 0.3663(5) 0.5134(3)
O25_2 O -0.1554(8) 0.2332(5) 0.3489(2)
N1A N 0.8521(8) -0.2237(6) 0.5962(3)
N1_2 N 0.1479(8) 0.2237(6) 0.4038(3)
N2A N 1.0398(7) -0.1040(6) 0.5326(3)
N2_2 N -0.0398(7) 0.1040(6) 0.4674(3)
N3A N 0.7094(7) 0.2655(6) 0.4777(3)
N3A_2 N -0.2906(7) 0.2655(6) 0.4777(3)
N4A N 1.2885(7) 0.7538(6) -0.0565(3)
N4_2 N 0.7115(7) 0.2462(6) 0.0565(3)
N5A N 1.0200(7) 0.8976(6) -0.0342(3)
N5_2 N 0.9800(7) 0.1024(6) 0.0342(3)
N6A N 1.1560(7) 1.1569(6) 0.1165(3)
N6A_2 N 1.1560(7) 0.1569(6) 0.1165(3)
C1A C 0.7799(10) -0.2891(7) 0.6370(4)
H1A H 0.8147 -0.3767 0.6408
C2A C 0.6553(11) -0.2337(8) 0.6744(4)
H2A H 0.6013 -0.2833 0.7012
C3A C 0.6124(10) -0.1064(8) 0.6716(4)
H3A H 0.5303 -0.0660 0.6976
C4A C 0.6911(9) -0.0359(7) 0.6300(3)
H4A H 0.6670 0.0529 0.6288
C5A C 0.8044(8) -0.0992(7) 0.5907(3)
C6A C 0.8961(8) -0.0393(6) 0.5422(3)
C7A C 0.8532(8) 0.0699(6) 0.5074(3)
C8A C 0.6985(9) 0.1546(7) 0.5056(3)
C9A C 0.5566(9) 0.1238(6) 0.5249(3)
H5A H 0.5510 0.0454 0.5443
C10A C 0.4212(9) 0.2084(7) 0.5159(3)
H6A H 0.3222 0.1878 0.5283
C11A C 0.4331(9) 0.3232(7) 0.4886(4)
H7A H 0.3431 0.3840 0.4832
C12A C 0.5796(9) 0.3468(7) 0.4694(3)
H8A H 0.5881 0.4241 0.4494
C13_2 C 0.4448(8) 0.7939(7) 0.2170(3)
H9_2 H 0.3934 0.8813 0.2104
H10_2 H 0.4584 0.7521 0.1775
C14_2 C 0.3372(8) 0.7270(7) 0.2582(3)
H11_2 H 0.2679 0.7895 0.2833
H12_2 H 0.4004 0.6683 0.2854
C15_2 C 0.2385(8) 0.6545(7) 0.2212(3)
H13_2 H 0.2921 0.5667 0.2180
H14_2 H 0.2354 0.6908 0.1800
C16A C 1.4158(9) 0.6687(7) -0.0669(3)
H15A H 1.4345 0.6323 -0.1056
C17A C 1.2654(8) 0.8092(6) -0.0024(3)
C18A C 1.1322(8) 0.9133(6) 0.0023(3)
C19A C 1.1130(8) 1.0229(6) 0.0370(3)
C20A C 1.5215(9) 0.6317(7) -0.0234(4)
H16A H 1.6154 0.5762 -0.0329
C21A C 1.4879(9) 0.6769(7) 0.0343(4)
H17A H 1.5531 0.6465 0.0660
C22A C 1.3578(8) 0.7670(7) 0.0452(3)
H18A H 1.3322 0.7995 0.0844
C23A C 1.2411(9) 1.2039(7) 0.1559(3)
H19A H 1.1918 1.2679 0.1824
C24A C 1.3987(9) 1.1621(7) 0.1592(3)
H20A H 1.4554 1.1932 0.1893
C25A C 1.4742(9) 1.0740(7) 0.1183(3)
H21A H 1.5832 1.0461 0.1190
C26A C 1.3852(8) 1.0278(7) 0.0764(3)
H22A H 1.4334 0.9691 0.0472
C27A C 1.2243(8) 1.0687(6) 0.0776(3)
O22 O 0.7571(8) 0.4145(7) 0.6021(3)
loop_
_geom_bond_atom_site_label_1
_geom_bond_atom_site_label_2
_geom_bond_site_symmetry_1
_geom_bond_site_symmetry_2
Mo1 O7 1_555 1_555
Mo2 O1 1_555 1_555
Mo3 O6 1_555 1_555
Mo4 O2 1_555 1_555
Mo5 O1 1_555 1_555
Co1 O3 1_555 1_555
Co2 O19 1_555 1_555
P1 O9 1_555 1_555
P2 O4 1_555 1_555
O2 Mo5 1_555 1_555
O3 Mo2 1_555 1_555
O4 Mo2 1_555 1_555
O5 Mo4 1_555 1_555
O6 Mo2 1_555 1_555
O7 Mo3 1_555 1_555
O8 Mo1 1_555 1_555
O9 Mo2_3 1_555 1_555
O10 P1 1_555 1_555
O11 P1 1_555 1_555
O12 Mo4 1_555 1_555
O13 Mo4 1_555 1_555
O14 Mo5 1_555 1_555
O15 Mo5 1_555 1_555
O16 Mo3 1_555 1_555
O17 Mo3 1_555 1_555
O18 Mo2 1_555 1_555
O19 Mo1 1_555 1_555
O20 Mo1 1_555 1_555
O21 Mo1 1_555 1_555
O23 Co2 1_555 1_555
O24 Co1 1_555 1_555
O25 Co1 1_555 1_555
N1 Co1 1_555 1_555
N2 Co1 1_555 1_555
N3 C8 1_555 1_555
N4 Co2 1_555 1_555
N5 Co2 1_555 1_555
N6 C23 1_555 1_555
C1 N1 1_555 1_555
H1 C1 1_555 1_555
C2 C1 1_555 1_555
H2 C2 1_555 1_555
C3 C2 1_555 1_555
H3 C3 1_555 1_555
C4 C3 1_555 1_555
H4 C4 1_555 1_555
C5 N1 1_555 1_555
C6 N2 1_555 1_555
C7 C6 1_555 1_555
C8 C7 1_555 1_555
C9 C8 1_555 1_555
H5 C9 1_555 1_555
C10 C9 1_555 1_555
H6 C10 1_555 1_555
C11 C10 1_555 1_555
H7 C11 1_555 1_555
C12 N3 1_555 1_555
H8 C12 1_555 1_555
C13 P1 1_555 1_555
H9 C13 1_555 1_555
H10 C13 1_555 1_555
C14 C13 1_555 1_555
H11 C14 1_555 1_555
H12 C14 1_555 1_555
C15 P2 1_555 1_555
H13 C15 1_555 1_555
H14 C15 1_555 1_555
C16 N4 1_555 1_555
H15 C16 1_555 1_555
C17 N4 1_555 1_555
C18 N5 1_555 1_555
C19 C18 1_555 1_555
C20 C16 1_555 1_555
H16 C20 1_555 1_555
C21 C20 1_555 1_555
H17 C21 1_555 1_555
C22 C17 1_555 1_555
H18 C22 1_555 1_555
C23 H19 1_555 1_555
C24 C23 1_555 1_555
H20 C24 1_555 1_555
C25 C24 1_555 1_555
H21 C25 1_555 1_555
C26 C25 1_555 1_555
H22 C26 1_555 1_555
C27 N6 1_555 1_555
Mo1_2 O7_2 1_555 1_555
Mo1_3 O10 1_555 1_555
Mo2_2 O1_2 1_555 1_555
Mo3_2 O6_2 1_555 1_555
Mo3_3 O11 1_555 1_555
Mo4_2 O2_2 1_555 1_555
Mo4_3 O10 1_555 1_555
Mo5_2 O1_2 1_555 1_555
Mo5_3 O9 1_555 1_555
Mo5_4 O14_2 1_555 1_555
Co1_2 O3_2 1_555 1_555
Co1A N3 1_555 1_555
Co2_2 O14 1_555 1_555
Co2A N6 1_555 1_555
Co2_3 O19_2 1_555 1_555
P1_2 O9_2 1_555 1_555
P2_2 O4_2 1_555 1_555
O2_2 Mo5_2 1_555 1_555
O3_2 Mo2_2 1_555 1_555
O4_2 Mo2_2 1_555 1_555
O5_2 Mo4_2 1_555 1_555
O6_2 Mo2_2 1_555 1_555
O7_2 Mo3_2 1_555 1_555
O8_2 Mo1_2 1_555 1_555
O9_2 Mo2 1_555 1_555
O9_3 Mo2_2 1_555 1_555
O10_2 Mo1 1_555 1_555
O10_3 Mo1_2 1_555 1_555
O11_2 Mo3 1_555 1_555
O11_3 Mo3_2 1_555 1_555
O12_2 Mo4_2 1_555 1_555
O13_2 Mo4_2 1_555 1_555
O14_2 Co2 1_555 1_555
O14_3 Mo5_2 1_555 1_555
O15_2 Mo5_2 1_555 1_555
O16_2 Mo3_2 1_555 1_555
O17_2 Mo3_2 1_555 1_555
O18_2 Mo2_2 1_555 1_555
O19_2 Mo1_2 1_555 1_555
O19_3 Co2_2 1_555 1_555
O20_2 Mo1_2 1_555 1_555
O21_2 Mo1_2 1_555 1_555
O23_2 Co2_2 1_555 1_555
O24_2 Co1_2 1_555 1_555
O25_2 Co1_2 1_555 1_555
N1A Co1A 1_555 1_555
N1_2 Co1_2 1_555 1_555
N2A C7 1_555 1_555
N2_2 Co1_2 1_555 1_555
N3A Co1 1_555 1_555
N3A_2 Co1_2 1_555 1_555
N4A Co2A 1_555 1_555
N4_2 Co2_2 1_555 1_555
N5A C19 1_555 1_555
N5_2 Co2_2 1_555 1_555
N6A Co2 1_555 1_555
N6A_2 Co2_2 1_555 1_555
C1A N1A 1_555 1_555
H1A C1A 1_555 1_555
C2A C1A 1_555 1_555
H2A C2A 1_555 1_555
C3A C2A 1_555 1_555
H3A C3A 1_555 1_555
C4A C3A 1_555 1_555
H4A C4A 1_555 1_555
C5A N1A 1_555 1_555
C6A N2A 1_555 1_555
C7A N2 1_555 1_555
C8A N3A 1_555 1_555
C9A C8A 1_555 1_555
H5A C9A 1_555 1_555
C10A C9A 1_555 1_555
H6A C10A 1_555 1_555
C11A C10A 1_555 1_555
H7A C11A 1_555 1_555
C12A N3A 1_555 1_555
H8A C12A 1_555 1_555
C13_2 P1_2 1_555 1_555
H9_2 C13_2 1_555 1_555
H10_2 C13_2 1_555 1_555
C14_2 C13_2 1_555 1_555
H11_2 C14_2 1_555 1_555
H12_2 C14_2 1_555 1_555
C15_2 P2_2 1_555 1_555
H13_2 C15_2 1_555 1_555
H14_2 C15_2 1_555 1_555
C16A N4A 1_555 1_555
H15A C16A 1_555 1_555
C17A N4A 1_555 1_555
C18A N5A 1_555 1_555
C19A N5 1_555 1_555
C20A C16A 1_555 1_555
H16A C20A 1_555 1_555
C21A C20A 1_555 1_555
H17A C21A 1_555 1_555
C22A C17A 1_555 1_555
H18A C22A 1_555 1_555
C23A N6A 1_555 1_555
H19A C23A 1_555 1_555
C24A C23A 1_555 1_555
H20A C24A 1_555 1_555
C25A C24A 1_555 1_555
H21A C25A 1_555 1_555
C26A C25A 1_555 1_555
H22A C26A 1_555 1_555
C27A N6A 1_555 1_555
Mo3 O8 1_555 1_555
Mo4 O20 1_555 1_555
Mo4 O10_2 1_555 1_555
Mo5 O5 1_555 1_555
Mo5 O9_2 1_555 1_555
P2 O5 1_555 1_555
P2 O8 1_555 1_555
C4 C5 1_555 1_555
C5 C6 1_555 1_555
C11 C12 1_555 1_555
C14 C15 1_555 1_555
C17 C18 1_555 1_555
C19 C27 1_555 1_555
C21 C22 1_555 1_555
C26 C27 1_555 1_555
Mo3_2 O8_2 1_555 1_555
Mo4_2 O10_3 1_555 1_555
Mo4_2 O20_2 1_555 1_555
Mo5_2 O5_2 1_555 1_555
Mo5_2 O9_3 1_555 1_555
Co1A N2A 1_555 1_555
Co2A N5A 1_555 1_555
P1_2 O10_2 1_555 1_555
P1_2 O11_2 1_555 1_555
P2_2 O5_2 1_555 1_555
P2_2 O8_2 1_555 1_555
C4A C5A 1_555 1_555
C5A C6A 1_555 1_555
C6A C7A 1_555 1_555
C7A C8A 1_555 1_555
C11A C12A 1_555 1_555
C14_2 C15_2 1_555 1_555
C17A C18A 1_555 1_555
C18A C19A 1_555 1_555
C19A C27A 1_555 1_555
C21A C22A 1_555 1_555
C26A C27A 1_555 1_555

#END
