
#######################################################################
#
#                 Cambridge Crystallographic Data Centre
#                                CCDC 
#
#######################################################################
#
# If this CIF has been generated from an entry in the Cambridge 
# Structural Database, then it will include bibliographic, chemical, 
# crystal, experimental, refinement or atomic coordinate data resulting 
# from the CCDC's data processing and validation procedures.
#
#######################################################################

data_IFARIR
_symmetry_cell_setting           triclinic
_symmetry_space_group_name_H-M   'P -1'
_symmetry_Int_Tables_number      2
_space_group_name_Hall           '-P 1'
loop_
_symmetry_equiv_pos_site_id
_symmetry_equiv_pos_as_xyz
1 x,y,z
2 -x,-y,-z
_cell_length_a                   12.483(2)
_cell_length_b                   12.931(2)
_cell_length_c                   13.535(2)
_cell_angle_alpha                96.996(3)
_cell_angle_beta                 98.973(3)
_cell_angle_gamma                93.022(3)
_cell_volume                     2136.24
loop_
_atom_site_label
_atom_site_type_symbol
_atom_site_fract_x
_atom_site_fract_y
_atom_site_fract_z
O22 O 0.5689(3) 0.1780(3) 0.5723(3)
O23 O 0.3230(4) 0.9513(4) 0.9427(3)
Mo1 Mo 0.25724(3) 1.06178(3) 0.40010(3)
Mo2 Mo 0.46307(3) 1.01598(3) 0.23504(3)
Mo3 Mo 0.11870(4) 1.26110(4) 0.32044(4)
Mo4 Mo 0.25830(4) 1.37589(4) 0.16427(4)
Mo5 Mo 0.47346(4) 1.23542(3) 0.12180(3)
Co1 Co 0.24392(6) 0.95741(6) 0.63773(5)
Co2 Co 0.45997(6) 0.73064(5) 0.13010(5)
P1 P 0.22777(11) 1.10157(10) 0.14418(10)
P2 P 0.40372(10) 1.26606(10) 0.35769(9)
O1 O 0.2920(3) 1.0358(3) 0.5237(3)
O2 O 0.1656(3) 0.9603(3) 0.3491(3)
O3 O 0.1664(3) 1.1725(3) 0.4234(3)
O4 O 0.3791(3) 1.0094(3) 0.3378(3)
O5 O 0.2037(3) 1.1303(3) 0.2528(3)
O6 O 0.2846(3) 1.1964(3) 0.1102(3)
O7 O 0.2970(3) 1.0083(3) 0.1429(3)
O8 O 0.4482(3) 1.1974(3) 0.2729(3)
O9 O 0.3816(3) 1.1994(3) 0.4381(3)
O10 O 0.3002(3) 1.3176(3) 0.3168(3)
O11 O 0.4858(3) 1.0861(3) 0.1232(3)
O12 O 0.5928(3) 1.0389(3) 0.3058(3)
O13 O 0.4657(3) 0.8865(3) 0.1849(3)
O14 O 0.6051(3) 1.2803(3) 0.1642(3)
O15 O 0.4604(3) 1.2342(3) -0.0085(3)
O16 O -0.0121(3) 1.2096(3) 0.2869(4)
O17 O 0.1123(4) 1.3720(3) 0.4015(3)
O18 O 0.2136(4) 1.3858(4) 0.0406(3)
O19 O 0.4116(3) 1.3612(3) 0.1618(3)
O20 O 0.2659(4) 1.5025(3) 0.2225(3)
O21 O 0.1270(3) 1.3146(3) 0.1948(3)
O24 O 0.3689(4) 0.7046(3) 0.2458(3)
O25 O 0.2187(3) 0.8760(4) 0.7581(3)
N1 N 0.1927(4) 0.8135(4) 0.5480(4)
N2 N 0.0809(4) 0.9735(4) 0.5676(3)
N3 N -0.1941(4) 0.9075(4) 0.2816(3)
N4 N 0.5947(4) 0.6778(4) 0.2223(3)
N5 N 0.4718(4) 0.5762(3) 0.0652(3)
N6 N 0.6890(4) 0.3068(4) -0.0336(3)
C1 C 0.2472(5) 0.7289(5) 0.5582(5)
H1 H 0.3170 0.7360 0.5990
C2 C 0.2053(5) 0.6304(5) 0.5111(6)
H2 H 0.2476 0.5718 0.5165
C3 C 0.1015(5) 0.6189(5) 0.4564(6)
H3 H 0.0706 0.5520 0.4250
C4 C 0.0429(5) 0.7064(4) 0.4480(5)
H4 H -0.0301 0.7001 0.4137
C5 C 0.0928(4) 0.8033(4) 0.4907(4)
C6 C 0.0401(4) 0.9038(4) 0.4875(4)
C7 C -0.0431(4) 0.9331(4) 0.4156(4)
C8 C -0.0948(4) 0.8753(4) 0.3158(4)
C9 C -0.0450(5) 0.8026(5) 0.2591(4)
H5 H 0.0259 0.7839 0.2833
C10 C -0.1009(6) 0.7569(5) 0.1653(5)
H6 H -0.0690 0.7058 0.1249
C11 C -0.2042(5) 0.7873(6) 0.1318(5)
H7 H -0.2451 0.7553 0.0695
C12 C -0.2462(5) 0.8650(5) 0.1908(4)
H8 H -0.3146 0.8890 0.1658
C13 C 0.6414(5) 0.7250(4) 0.3125(4)
H9 H 0.6189 0.7916 0.3350
C14 C 0.7210(5) 0.6829(5) 0.3761(4)
H10 H 0.7554 0.7207 0.4386
C15 C 0.7481(5) 0.5828(5) 0.3440(4)
H11 H 0.8014 0.5504 0.3853
C16 C 0.6975(5) 0.5304(5) 0.2523(4)
H12 H 0.7122 0.4603 0.2319
C17 C 0.6251(4) 0.5814(4) 0.1904(4)
C18 C 0.5671(4) 0.5350(4) 0.0892(4)
C19 C 0.5989(4) 0.4569(4) 0.0210(4)
C20 C 0.7015(4) 0.4010(4) 0.0246(4)
C21 C 0.8026(4) 0.4435(4) 0.0748(4)
H13 H 0.8110 0.5121 0.1105
C22 C 0.8914(5) 0.3832(5) 0.0717(5)
H14 H 0.9608 0.4090 0.1082
C23 C 0.8783(5) 0.2870(5) 0.0160(6)
H15 H 0.9384 0.2452 0.0135
C24 C 0.7760(5) 0.2506(5) -0.0372(5)
H16 H 0.7675 0.1841 -0.0771
C25 C 0.5037(4) 1.3701(4) 0.4128(4)
H17 H 0.5617 1.3422 0.4585
H18 H 0.5372 1.3975 0.3587
C26 C 0.4560(3) 1.4594(3) 0.4721(3)
H19 H 0.4043 1.4930 0.4250
H20 H 0.4153 1.4310 0.5212
C27 C 0.1021(3) 1.0734(3) 0.0687(3)
C28 C 0.0263(6) 0.9938(8) 0.0970(8)
H21 H 0.0209 1.0113 0.1692
H22 H 0.0570 0.9248 0.0885
C29 C 0.0890(7) 1.0146(8) -0.0344(5)
H23 H 0.1113 0.9430 -0.0283
H24 H 0.1397 1.0482 -0.0723
Mo1A Mo -0.25724(3) 0.93822(3) -0.40010(3)
Mo1A_2 Mo 0.74276(3) 1.93822(3) 0.59990(3)
Mo2A Mo -0.46307(3) 0.98402(3) -0.23504(3)
Mo2A_2 Mo 0.53693(3) 1.98402(3) 0.76496(3)
Mo2A_3 Mo 0.53693(3) 0.98402(3) 0.76496(3)
Mo3A Mo -0.11870(4) 0.73890(4) -0.32044(4)
Mo3A_2 Mo 0.88130(4) 1.73890(4) 0.67956(4)
Mo4A Mo -0.25830(4) 0.62411(4) -0.16427(4)
Mo4A_2 Mo 0.74170(4) 1.62411(4) 0.83573(4)
Mo5A Mo -0.47346(4) 0.76458(3) -0.12180(3)
Mo5A_2 Mo 0.52654(4) 1.76458(3) 0.87820(3)
Co1A Co -0.24392(6) 1.04259(6) -0.63773(5)
Co1A_2 Co 0.75608(6) 1.04259(6) 0.36227(5)
Co1A_3 Co -0.24392(6) 1.04259(6) 0.36227(5)
Co2A Co -0.45997(6) 1.26936(5) -0.13010(5)
Co2A_2 Co 0.54003(6) 1.26936(5) -0.13010(5)
Co2A_3 Co 0.54003(6) 0.26936(5) -0.13010(5)
Co2_2 Co -0.54003(6) 0.73064(5) 0.13010(5)
P1A P -0.22777(11) 0.89843(10) -0.14418(10)
P2A P 0.59628(10) 1.73394(10) 0.64231(9)
O1A O -0.2920(3) 0.9642(3) -0.5237(3)
O2A O -0.1656(3) 1.0397(3) -0.3491(3)
O3A O -0.1664(3) 0.8275(3) -0.4234(3)
O4A O -0.3791(3) 0.9906(3) -0.3378(3)
O5A O -0.2037(3) 0.8697(3) -0.2528(3)
O6A O -0.2846(3) 0.8036(3) -0.1102(3)
O7A O -0.2970(3) 0.9917(3) -0.1429(3)
O8A O 0.5518(3) 1.8026(3) 0.7271(3)
O8A_2 O -0.4482(3) 0.8026(3) -0.2729(3)
O9A O 0.6184(3) 1.8006(3) 0.5619(3)
O9A_2 O -0.3816(3) 0.8006(3) -0.4381(3)
O10A O 0.6998(3) 1.6824(3) 0.6832(3)
O10A_2 O -0.3002(3) 0.6824(3) -0.3168(3)
O11A O -0.4858(3) 0.9139(3) -0.1232(3)
O12A O 0.4072(3) 0.9611(3) 0.6942(3)
O12A_2 O -0.5928(3) 0.9611(3) -0.3058(3)
O12_2 O -0.4072(3) 1.0389(3) -0.6942(3)
O13A O -0.4657(3) 1.1135(3) -0.1849(3)
O14A O -0.6051(3) 0.7197(3) -0.1642(3)
O15A O -0.4604(3) 0.7658(3) 0.0085(3)
O15A_2 O 0.5396(3) 0.7658(3) 0.0085(3)
O15_2 O -0.5396(3) 1.2342(3) -0.0085(3)
O16A O 0.0121(3) 0.7904(3) -0.2869(4)
O17A O -0.1123(4) 0.6280(3) -0.4015(3)
O18A O -0.2136(4) 0.6142(4) -0.0406(3)
O19A O -0.4116(3) 0.6388(3) -0.1618(3)
O20A O -0.2659(4) 0.4975(3) -0.2225(3)
O21A O -0.1270(3) 0.6854(3) -0.1948(3)
O24A O -0.3689(4) 1.2954(3) -0.2458(3)
O25A O -0.2187(3) 1.1240(4) -0.7581(3)
N1A N -0.1927(4) 1.1865(4) 0.4520(4)
N1A_2 N -0.1927(4) 1.1865(4) -0.5480(4)
N2A N -0.0809(4) 1.0265(4) 0.4324(3)
N2A_2 N -0.0809(4) 1.0265(4) -0.5676(3)
N3A N 0.1941(4) 1.0925(4) 0.7184(3)
N3_2 N -0.1941(4) 0.9075(4) -0.7184(3)
N4A N 0.4053(4) 0.3222(4) -0.2223(3)
N4A_2 N -0.5947(4) 1.3222(4) -0.2223(3)
N5A N 0.5282(4) 0.4238(3) -0.0652(3)
N5A_2 N -0.4718(4) 1.4238(3) -0.0652(3)
N6A N 0.3110(4) 0.6932(4) 0.0336(3)
N6_2 N -0.3110(4) 1.3068(4) -0.0336(3)
C1A C -0.2472(5) 1.2711(5) 0.4418(5)
H1A H -0.3170 1.2640 0.4010
C2A C -0.2053(5) 1.3696(5) 0.4889(6)
H2A H -0.2476 1.4282 0.4835
C3A C -0.1015(5) 1.3811(5) 0.5436(6)
H3A H -0.0706 1.4480 0.5750
C4A C -0.0429(5) 1.2936(4) 0.5520(5)
H4A H 0.0301 1.2999 0.5863
C5A C -0.0928(4) 1.1967(4) 0.5093(4)
C6A C -0.0401(4) 1.0962(4) 0.5125(4)
C7A C 0.0431(4) 1.0669(4) 0.5844(4)
C8A C 0.0948(4) 1.1247(4) 0.6842(4)
C9A C 0.0450(5) 1.1974(5) 0.7409(4)
H5A H -0.0259 1.2161 0.7167
C10A C 0.1009(6) 1.2431(5) 0.8347(5)
H6A H 0.0690 1.2942 0.8751
C11A C 0.2042(5) 1.2127(6) 0.8682(5)
H7A H 0.2451 1.2447 0.9305
C12A C 0.2462(5) 1.1350(5) 0.8092(4)
H8A H 0.3146 1.1110 0.8342
C13A C 0.3586(5) 0.2750(4) -0.3125(4)
H9A H 0.3811 0.2084 -0.3350
C14A C 0.2790(5) 0.3171(5) -0.3761(4)
H10A H 0.2446 0.2793 -0.4386
C15A C 0.2519(5) 0.4172(5) -0.3440(4)
H11A H 0.1986 0.4496 -0.3853
C16A C 0.3025(5) 0.4696(5) -0.2523(4)
H12A H 0.2878 0.5397 -0.2319
C17A C 0.3749(4) 0.4186(4) -0.1904(4)
C18A C 0.4329(4) 0.4650(4) -0.0892(4)
C19A C 0.4011(4) 0.5431(4) -0.0210(4)
C20A C 0.2985(4) 0.5990(4) -0.0246(4)
C21A C 0.1974(4) 0.5565(4) -0.0748(4)
H13A H 0.1890 0.4879 -0.1105
C22A C 0.1086(5) 0.6168(5) -0.0717(5)
H14A H 0.0392 0.5910 -0.1082
C23A C 0.1217(5) 0.7130(5) -0.0160(6)
H15A H 0.0616 0.7548 -0.0135
C24A C 0.2240(5) 0.7494(5) 0.0372(5)
H16A H 0.2325 0.8159 0.0771
C25A C 0.4963(4) 1.6299(4) 0.5872(4)
H17A H 0.4383 1.6578 0.5415
H18A H 0.4628 1.6025 0.6413
C26A C 0.5440(3) 1.5406(3) 0.5279(3)
H19A H 0.5957 1.5070 0.5750
H20A H 0.5847 1.5690 0.4788
C27A C -0.1021(3) 0.9266(3) -0.0687(3)
C28A C -0.0263(6) 1.0062(8) -0.0970(8)
H21A H -0.0209 0.9887 -0.1692
H22A H -0.0570 1.0752 -0.0885
C29A C -0.0890(7) 0.9854(8) 0.0344(5)
H23A H -0.1113 1.0570 0.0283
H24A H -0.1397 0.9518 0.0723
loop_
_geom_bond_atom_site_label_1
_geom_bond_atom_site_label_2
_geom_bond_site_symmetry_1
_geom_bond_site_symmetry_2
Mo1 O1 1_555 1_555
Mo2 O4 1_555 1_555
Mo3 O3 1_555 1_555
Mo4 O6 1_555 1_555
Mo5 O6 1_555 1_555
Co1 O1 1_555 1_555
Co2 O13 1_555 1_555
P1 O5 1_555 1_555
P2 O8 1_555 1_555
O2 Mo1 1_555 1_555
O3 Mo1 1_555 1_555
O4 Mo1 1_555 1_555
O5 Mo1 1_555 1_555
O6 P1 1_555 1_555
O7 Mo2 1_555 1_555
O8 Mo2 1_555 1_555
O9 Mo1 1_555 1_555
O10 Mo3 1_555 1_555
O11 Mo2 1_555 1_555
O12 Mo2 1_555 1_555
O13 Mo2 1_555 1_555
O14 Mo5 1_555 1_555
O15 Mo5 1_555 1_555
O16 Mo3 1_555 1_555
O17 Mo3 1_555 1_555
O18 Mo4 1_555 1_555
O19 Mo4 1_555 1_555
O20 Mo4 1_555 1_555
O21 Mo3 1_555 1_555
O24 Co2 1_555 1_555
O25 Co1 1_555 1_555
N1 Co1 1_555 1_555
N2 Co1 1_555 1_555
N3 C8 1_555 1_555
N4 Co2 1_555 1_555
N5 Co2 1_555 1_555
N6 C20 1_555 1_555
C1 N1 1_555 1_555
H1 C1 1_555 1_555
C2 C1 1_555 1_555
H2 C2 1_555 1_555
C3 C2 1_555 1_555
H3 C3 1_555 1_555
C4 C3 1_555 1_555
H4 C4 1_555 1_555
C5 N1 1_555 1_555
C6 N2 1_555 1_555
C7 C6 1_555 1_555
C8 C7 1_555 1_555
C9 C8 1_555 1_555
H5 C9 1_555 1_555
C10 C9 1_555 1_555
H6 C10 1_555 1_555
C11 C10 1_555 1_555
H7 C11 1_555 1_555
C12 N3 1_555 1_555
H8 C12 1_555 1_555
C13 N4 1_555 1_555
H9 C13 1_555 1_555
C14 C13 1_555 1_555
H10 C14 1_555 1_555
C15 C14 1_555 1_555
H11 C15 1_555 1_555
C16 C15 1_555 1_555
H12 C16 1_555 1_555
C17 N4 1_555 1_555
C18 N5 1_555 1_555
C19 C18 1_555 1_555
C20 C19 1_555 1_555
C21 C20 1_555 1_555
H13 C21 1_555 1_555
C22 C21 1_555 1_555
H14 C22 1_555 1_555
C23 C22 1_555 1_555
H15 C23 1_555 1_555
C24 N6 1_555 1_555
H16 C24 1_555 1_555
C25 P2 1_555 1_555
H17 C25 1_555 1_555
H18 C25 1_555 1_555
C26 C25 1_555 1_555
H19 C26 1_555 1_555
H20 C26 1_555 1_555
C27 P1 1_555 1_555
C28 C27 1_555 1_555
H21 C28 1_555 1_555
H22 C28 1_555 1_555
C29 C27 1_555 1_555
H23 C29 1_555 1_555
H24 C29 1_555 1_555
Mo1A O1A 1_555 1_555
Mo1A_2 O9A 1_555 1_555
Mo2A O4A 1_555 1_555
Mo2A_2 O8A 1_555 1_555
Mo2A_3 O12A 1_555 1_555
Mo3A O3A 1_555 1_555
Mo3A_2 O10A 1_555 1_555
Mo4A O6A 1_555 1_555
Mo4A_2 O10A 1_555 1_555
Mo5A O6A 1_555 1_555
Mo5A_2 O8A 1_555 1_555
Co1A O1A 1_555 1_555
Co1A_2 O12 1_555 1_555
Co1A_3 N3 1_555 1_555
Co2A O13A 1_555 1_555
Co2A_2 O15 1_555 1_555
Co2A_3 N6 1_555 1_555
Co2_2 O15A 1_555 1_555
P1A O5A 1_555 1_555
P2A O8A 1_555 1_555
O2A Mo1A 1_555 1_555
O3A Mo1A 1_555 1_555
O4A Mo1A 1_555 1_555
O5A Mo1A 1_555 1_555
O6A P1A 1_555 1_555
O7A Mo2A 1_555 1_555
O8A_2 Mo2A 1_555 1_555
O9A P2A 1_555 1_555
O9A_2 Mo1A 1_555 1_555
O10A P2A 1_555 1_555
O10A_2 Mo3A 1_555 1_555
O11A Mo2A 1_555 1_555
O12A Co1 1_555 1_555
O12A_2 Mo2A 1_555 1_555
O12_2 Co1A 1_555 1_555
O13A Mo2A 1_555 1_555
O14A Mo5A 1_555 1_555
O15A Mo5A 1_555 1_555
O15A_2 Co2 1_555 1_555
O15_2 Co2A 1_555 1_555
O16A Mo3A 1_555 1_555
O17A Mo3A 1_555 1_555
O18A Mo4A 1_555 1_555
O19A Mo4A 1_555 1_555
O20A Mo4A 1_555 1_555
O21A Mo3A 1_555 1_555
O24A Co2A 1_555 1_555
O25A Co1A 1_555 1_555
N1A Co1A_3 1_555 1_555
N1A_2 Co1A 1_555 1_555
N2A C7 1_555 1_555
N2A_2 Co1A 1_555 1_555
N3A Co1 1_555 1_555
N3_2 Co1A 1_555 1_555
N4A Co2A_3 1_555 1_555
N4A_2 Co2A 1_555 1_555
N5A C19 1_555 1_555
N5A_2 Co2A 1_555 1_555
N6A Co2 1_555 1_555
N6_2 Co2A 1_555 1_555
C1A N1A 1_555 1_555
H1A C1A 1_555 1_555
C2A C1A 1_555 1_555
H2A C2A 1_555 1_555
C3A C2A 1_555 1_555
H3A C3A 1_555 1_555
C4A C3A 1_555 1_555
H4A C4A 1_555 1_555
C5A N1A 1_555 1_555
C6A N2A 1_555 1_555
C7A N2 1_555 1_555
C8A N3A 1_555 1_555
C9A C8A 1_555 1_555
H5A C9A 1_555 1_555
C10A C9A 1_555 1_555
H6A C10A 1_555 1_555
C11A C10A 1_555 1_555
H7A C11A 1_555 1_555
C12A N3A 1_555 1_555
H8A C12A 1_555 1_555
C13A N4A 1_555 1_555
H9A C13A 1_555 1_555
C14A C13A 1_555 1_555
H10A C14A 1_555 1_555
C15A C14A 1_555 1_555
H11A C15A 1_555 1_555
C16A C15A 1_555 1_555
H12A C16A 1_555 1_555
C17A N4A 1_555 1_555
C18A N5A 1_555 1_555
C19A N5 1_555 1_555
C20A N6A 1_555 1_555
C21A C20A 1_555 1_555
H13A C21A 1_555 1_555
C22A C21A 1_555 1_555
H14A C22A 1_555 1_555
C23A C22A 1_555 1_555
H15A C23A 1_555 1_555
C24A N6A 1_555 1_555
H16A C24A 1_555 1_555
C25A P2A 1_555 1_555
H17A C25A 1_555 1_555
H18A C25A 1_555 1_555
C26A C26 1_555 1_555
H19A C26A 1_555 1_555
H20A C26A 1_555 1_555
C27A P1A 1_555 1_555
C28A C29 1_555 1_555
H21A C28A 1_555 1_555
H22A C28A 1_555 1_555
C29A C28 1_555 1_555
H23A C29A 1_555 1_555
H24A C29A 1_555 1_555
Mo3 O5 1_555 1_555
Mo4 O10 1_555 1_555
Mo4 O21 1_555 1_555
Mo5 O8 1_555 1_555
Mo5 O11 1_555 1_555
Mo5 O19 1_555 1_555
P1 O7 1_555 1_555
P2 O9 1_555 1_555
P2 O10 1_555 1_555
C4 C5 1_555 1_555
C5 C6 1_555 1_555
C11 C12 1_555 1_555
C16 C17 1_555 1_555
C17 C18 1_555 1_555
C23 C24 1_555 1_555
Mo3A O5A 1_555 1_555
Mo4A O10A_2 1_555 1_555
Mo4A O21A 1_555 1_555
Mo5A O8A_2 1_555 1_555
Mo5A O11A 1_555 1_555
Mo5A O19A 1_555 1_555
Co1A_3 N2A 1_555 1_555
Co2A_3 N5A 1_555 1_555
P1A O7A 1_555 1_555
C4A C5A 1_555 1_555
C5A C6A 1_555 1_555
C6A C7A 1_555 1_555
C7A C8A 1_555 1_555
C11A C12A 1_555 1_555
C16A C17A 1_555 1_555
C17A C18A 1_555 1_555
C18A C19A 1_555 1_555
C19A C20A 1_555 1_555
C23A C24A 1_555 1_555
C25A C26A 1_555 1_555
C27A C28A 1_555 1_555
C27A C29A 1_555 1_555

#END
