
#######################################################################
#
#                 Cambridge Crystallographic Data Centre
#                                CCDC 
#
#######################################################################
#
# If this CIF has been generated from an entry in the Cambridge 
# Structural Database, then it will include bibliographic, chemical, 
# crystal, experimental, refinement or atomic coordinate data resulting 
# from the CCDC's data processing and validation procedures.
#
#######################################################################

data_IFARUD
_symmetry_cell_setting           orthorhombic
_symmetry_space_group_name_H-M   'P 21 21 21'
_symmetry_Int_Tables_number      19
_space_group_name_Hall           'P 2ac 2ab'
loop_
_symmetry_equiv_pos_site_id
_symmetry_equiv_pos_as_xyz
1 x,y,z
2 1/2-x,-y,1/2+z
3 -x,1/2+y,1/2-z
4 1/2+x,1/2-y,-z
_cell_length_a                   11.3379(6)
_cell_length_b                   13.4184(7)
_cell_length_c                   29.8798(17)
_cell_angle_alpha                90
_cell_angle_beta                 90
_cell_angle_gamma                90
_cell_volume                     4545.81
loop_
_atom_site_label
_atom_site_type_symbol
_atom_site_fract_x
_atom_site_fract_y
_atom_site_fract_z
Mo1 Mo -0.18039(8) -0.30167(6) 0.17841(2)
Mo2 Mo -0.18094(8) -0.54151(6) 0.02763(2)
Mo3 Mo -0.18193(8) -0.53334(5) 0.20644(2)
Mo4 Mo -0.17200(8) -0.30793(5) 0.05318(2)
Mo5 Mo -0.03563(7) -0.70175(6) 0.12126(3)
Mo6 Mo -0.30745(6) -0.70760(5) 0.11723(3)
Co1 Co -0.05782(12) -0.06003(10) 0.21453(4)
Co2 Co 0.05248(12) -0.55226(10) -0.05177(4)
P1 P 0.00971(19) -0.45877(16) 0.11778(9)
P2 P 0.64101(19) -0.46750(17) 0.11567(9)
O1 O -0.3109(7) -0.2437(5) 0.1877(2)
O2 O -0.0613(6) -0.5833(5) -0.0045(2)
O3 O -0.0577(6) -0.4415(5) 0.0748(2)
O4 O 0.7117(6) -0.4424(5) 0.0733(2)
O5 O -0.1751(7) -0.6224(4) 0.15943(19)
O6 O -0.0582(6) -0.4322(5) 0.1611(2)
O7 O -0.1731(7) -0.4036(4) 0.0054(2)
O8 O -0.1689(5) -0.7886(4) 0.1192(2)
O9 O 0.7093(6) -0.4428(5) 0.1592(2)
O10 O -0.1765(7) -0.3948(4) 0.2271(2)
O11 O -0.1665(6) -0.2823(4) 0.1163(2)
O12 O -0.3009(6) -0.5816(5) -0.0006(2)
O13 O 0.0471(5) -0.5694(4) 0.1195(2)
O14 O -0.0539(6) -0.2420(5) 0.0347(2)
O15 O -0.0609(6) -0.5729(5) 0.2379(2)
O16 O 0.6038(5) -0.5782(4) 0.1148(3)
O17 O -0.2908(7) -0.2364(5) 0.0398(2)
O18 O -0.1748(6) -0.6295(4) 0.07547(19)
O19 O 0.0327(7) -0.7466(6) 0.1688(3)
O20 O 0.0484(7) -0.7499(5) 0.0795(2)
O21 O -0.3741(6) -0.7471(5) 0.1648(2)
O22 O -0.3842(6) -0.7660(5) 0.0757(2)
O23 O -0.0776(6) -0.2175(5) 0.1990(2)
O24 O -0.3004(7) -0.5731(5) 0.2364(2)
O25 O 0.0255(7) -0.3999(5) -0.0451(2)
O26 O -0.0391(7) 0.1012(5) 0.2272(2)
N1 N -0.2155(7) -0.0572(6) 0.2489(3)
N2 N -0.1795(8) -0.0361(5) 0.1646(2)
N3 N 0.0475(8) -0.0543(6) 0.1580(3)
N4 N -0.5497(7) 0.0721(6) 0.1094(3)
N5 N -0.3281(8) 0.0290(5) 0.1028(2)
N6 N -0.2886(7) 0.0770(6) 0.0206(3)
C1 C -0.2252(8) -0.0820(7) 0.2918(3)
H1 H -0.1559 -0.0844 0.3096
C2 C -0.3327(10) -0.1045(8) 0.3116(3)
H2 H -0.3371 -0.1217 0.3424
C3 C -0.4342(9) -0.1015(7) 0.2852(3)
H3 H -0.5088 -0.1183 0.2975
C4 C -0.4246(10) -0.0744(7) 0.2421(4)
H4 H -0.4927 -0.0722 0.2236
C5 C -0.3140(10) -0.0494(7) 0.2243(3)
C6 C -0.2923(10) -0.0208(8) 0.1765(4)
C7 C -0.1374(8) -0.0203(6) 0.1232(3)
C8 C -0.0120(8) -0.0483(6) 0.1188(4)
C9 C 0.0438(10) -0.0754(7) 0.0787(3)
H5 H 0.0014 -0.0744 0.0513
C10 C 0.1603(10) -0.1033(7) 0.0793(3)
H6 H 0.1993 -0.1205 0.0523
C11 C 0.2205(8) -0.1063(7) 0.1196(4)
H7 H 0.3013 -0.1251 0.1204
C12 C 0.1623(10) -0.0818(7) 0.1583(3)
H8 H 0.2036 -0.0842 0.1859
C13 C -0.6571(8) 0.1130(6) 0.1092(3)
H9 H -0.6966 0.1212 0.0814
C14 C -0.7128(9) 0.1439(7) 0.1480(4)
H10 H -0.7904 0.1704 0.1469
C15 C -0.6539(10) 0.1358(7) 0.1885(3)
H11 H -0.6895 0.1582 0.2154
C16 C -0.5413(9) 0.0938(7) 0.1888(3)
H12 H -0.4984 0.0891 0.2160
C17 C -0.4921(8) 0.0591(7) 0.1494(3)
C18 C -0.3687(9) 0.0188(7) 0.1444(3)
C19 C -0.2152(8) 0.0176(7) 0.0911(3)
C20 C -0.1878(10) 0.0615(7) 0.0452(3)
C21 C -0.0809(9) 0.0978(7) 0.0316(3)
H13 H -0.0127 0.0889 0.0496
C22 C -0.0739(10) 0.1481(7) -0.0090(3)
H14 H -0.0001 0.1727 -0.0192
C23 C -0.1734(11) 0.1620(7) -0.0342(3)
H15 H -0.1691 0.1954 -0.0622
C24 C -0.2816(10) 0.1262(7) -0.0181(3)
H16 H -0.3512 0.1372 -0.0351
C25 C 0.1403(8) -0.3846(7) 0.1168(4)
H17 H 0.1171 -0.3142 0.1121
H18 H 0.1781 -0.3887 0.1466
C26 C 0.2272(14) -0.4110(14) 0.0832(6)
H19 H 0.1848 -0.4218 0.0547
H20 H 0.2619 -0.4759 0.0920
C27 C 0.3283(9) -0.3396(7) 0.0740(3)
H21 H 0.3132 -0.3047 0.0454
H22 H 0.3308 -0.2888 0.0980
C28 C 0.5110(8) -0.3935(7) 0.1150(3)
H23 H 0.4566 -0.4191 0.1382
H24 H 0.5326 -0.3245 0.1234
C29 C 0.4463(13) -0.3903(13) 0.0714(6)
H25 H 0.4346 -0.4593 0.0606
H26 H 0.4956 -0.3550 0.0491
Mo1_2 Mo 0.81961(8) -0.30167(6) 0.17841(2)
Mo2_2 Mo 0.81906(8) -0.54151(6) 0.02763(2)
Mo3_2 Mo 0.81807(8) -0.53334(5) 0.20644(2)
Mo4_2 Mo 0.82800(8) -0.30793(5) 0.05318(2)
Mo6_2 Mo 0.69255(6) -0.70760(5) 0.11723(3)
Co1B Co 0.05782(12) -0.56003(10) 0.28547(4)
Co2C Co -0.44752(12) 0.05226(10) 0.05177(4)
O4_2 O -0.2883(6) -0.4424(5) 0.0733(2)
O9_2 O -0.2907(6) -0.4428(5) 0.1592(2)
O15B O 0.0609(6) -0.0729(5) 0.2621(2)
O16_2 O -0.3962(5) -0.5782(4) 0.1148(3)
N4C N -0.0497(7) -0.5721(6) -0.1094(3)
N5C N 0.1719(8) -0.5290(5) -0.1028(2)
N6C N 0.2114(7) -0.5770(6) -0.0206(3)
O27 O -0.7211(10) -0.3177(8) 0.2464(4)
O28 O -0.587(2) -0.2161(17) 0.1834(7)
loop_
_geom_bond_atom_site_label_1
_geom_bond_atom_site_label_2
_geom_bond_site_symmetry_1
_geom_bond_site_symmetry_2
Mo1 O1 1_555 1_555
Mo2 O2 1_555 1_555
Mo3 O5 1_555 1_555
Mo4 O3 1_555 1_555
Mo5 O5 1_555 1_555
Mo6 O5 1_555 1_555
Co1 O23 1_555 1_555
Co2 O2 1_555 1_555
P1 O3 1_555 1_555
P2 O4 1_555 1_555
O3 Mo2 1_555 1_555
O4 Mo2_2 1_555 1_555
O6 Mo1 1_555 1_555
O7 Mo2 1_555 1_555
O8 Mo5 1_555 1_555
O9 P2 1_555 1_555
O10 Mo1 1_555 1_555
O11 Mo1 1_555 1_555
O12 Mo2 1_555 1_555
O13 Mo5 1_555 1_555
O14 Mo4 1_555 1_555
O15 Mo3 1_555 1_555
O16 P2 1_555 1_555
O17 Mo4 1_555 1_555
O18 Mo2 1_555 1_555
O19 Mo5 1_555 1_555
O20 Mo5 1_555 1_555
O21 Mo6 1_555 1_555
O22 Mo6 1_555 1_555
O23 Mo1 1_555 1_555
O24 Mo3 1_555 1_555
O25 Co2 1_555 1_555
O26 Co1 1_555 1_555
N1 Co1 1_555 1_555
N2 Co1 1_555 1_555
N3 Co1 1_555 1_555
N4 C13 1_555 1_555
N5 C18 1_555 1_555
N6 C20 1_555 1_555
C1 N1 1_555 1_555
H1 C1 1_555 1_555
C2 C1 1_555 1_555
H2 C2 1_555 1_555
C3 C2 1_555 1_555
H3 C3 1_555 1_555
C4 C3 1_555 1_555
H4 C4 1_555 1_555
C5 N1 1_555 1_555
C6 N2 1_555 1_555
C7 N2 1_555 1_555
C8 N3 1_555 1_555
C9 C8 1_555 1_555
H5 C9 1_555 1_555
C10 C9 1_555 1_555
H6 C10 1_555 1_555
C11 C10 1_555 1_555
H7 C11 1_555 1_555
C12 N3 1_555 1_555
H8 C12 1_555 1_555
C13 H9 1_555 1_555
C14 C13 1_555 1_555
H10 C14 1_555 1_555
C15 C14 1_555 1_555
H11 C15 1_555 1_555
C16 C15 1_555 1_555
H12 C16 1_555 1_555
C17 N4 1_555 1_555
C18 C6 1_555 1_555
C19 N5 1_555 1_555
C20 C19 1_555 1_555
C21 C20 1_555 1_555
H13 C21 1_555 1_555
C22 C21 1_555 1_555
H14 C22 1_555 1_555
C23 C22 1_555 1_555
H15 C23 1_555 1_555
C24 N6 1_555 1_555
H16 C24 1_555 1_555
C25 P1 1_555 1_555
H17 C25 1_555 1_555
H18 C25 1_555 1_555
C26 C25 1_555 1_555
H19 C26 1_555 1_555
H20 C26 1_555 1_555
C27 C26 1_555 1_555
H21 C27 1_555 1_555
H22 C27 1_555 1_555
C28 P2 1_555 1_555
H23 C28 1_555 1_555
H24 C28 1_555 1_555
C29 C27 1_555 1_555
H25 C29 1_555 1_555
H26 C29 1_555 1_555
Mo1_2 O9 1_555 1_555
Mo3_2 O9 1_555 1_555
Mo4_2 O4 1_555 1_555
Mo6_2 O16 1_555 1_555
Co1B O15 1_555 1_555
Co2C N4 1_555 1_555
O4_2 Mo2 1_555 1_555
O9_2 Mo1 1_555 1_555
O15B Co1 1_555 1_555
O16_2 Mo6 1_555 1_555
N4C Co2 1_555 1_555
N5C Co2 1_555 1_555
N6C Co2 1_555 1_555
Mo3 O6 1_555 1_555
Mo3 O10 1_555 1_555
Mo3 O9_2 1_555 1_555
Mo4 O7 1_555 1_555
Mo4 O11 1_555 1_555
Mo4 O4_2 1_555 1_555
Mo5 O18 1_555 1_555
Mo6 O8 1_555 1_555
Mo6 O18 1_555 1_555
P1 O6 1_555 1_555
P1 O13 1_555 1_555
N5 Co2C 1_555 1_555
N6 Co2C 1_555 1_555
C4 C5 1_555 1_555
C5 C6 1_555 1_555
C7 C8 1_555 1_555
C7 C19 1_555 1_555
C11 C12 1_555 1_555
C16 C17 1_555 1_555
C17 C18 1_555 1_555
C23 C24 1_555 1_555
C28 C29 1_555 1_555

#END
