
#######################################################################
#
#                 Cambridge Crystallographic Data Centre
#                                CCDC 
#
#######################################################################
#
# If this CIF has been generated from an entry in the Cambridge 
# Structural Database, then it will include bibliographic, chemical, 
# crystal, experimental, refinement or atomic coordinate data resulting 
# from the CCDC's data processing and validation procedures.
#
#######################################################################

data_IFASEO
_symmetry_cell_setting           monoclinic
_symmetry_space_group_name_H-M   'P 21/c'
_symmetry_Int_Tables_number      14
_space_group_name_Hall           '-P 2ybc'
loop_
_symmetry_equiv_pos_site_id
_symmetry_equiv_pos_as_xyz
1 x,y,z
2 -x,1/2+y,1/2-z
3 -x,-y,-z
4 x,1/2-y,1/2+z
_cell_length_a                   8.8546(7)
_cell_length_b                   31.263(3)
_cell_length_c                   15.9274(13)
_cell_angle_alpha                90
_cell_angle_beta                 98.151(2)
_cell_angle_gamma                90
_cell_volume                     4364.5
loop_
_atom_site_label
_atom_site_type_symbol
_atom_site_fract_x
_atom_site_fract_y
_atom_site_fract_z
Mo1 Mo 0.40423(4) 0.119160(11) -0.98200(2)
Mo2 Mo 0.55409(4) 0.197050(11) -0.82303(2)
Mo3 Mo 0.36063(4) 0.023890(11) -0.87168(2)
Mo4 Mo 0.55478(4) 0.036670(11) -0.67560(2)
Mo5 Mo 0.69062(4) 0.138030(11) -0.65225(2)
P1 P 1.32853(11) 0.11781(3) -0.77447(6)
P2 P 0.69236(11) 0.08781(3) -0.84289(6)
O1 O 0.3899(3) 0.05361(9) -0.98441(17)
O2 O 0.2138(3) 0.13112(9) -0.99846(18)
O3 O 0.7169(3) 0.07628(9) -0.65012(17)
O4 O 0.4494(3) 0.12177(9) -1.08283(18)
O5 O 1.3383(3) 0.16464(9) -0.79523(18)
O6 O 0.5996(3) 0.18965(9) -0.70281(18)
O7 O 0.6431(3) 0.09671(9) -0.93605(17)
O8 O 0.4544(3) 0.24389(9) -0.82964(19)
O9 O 0.4448(3) -0.02178(9) -0.90354(18)
O10 O 0.8791(3) 0.15153(10) -0.63813(18)
O11 O 0.6378(3) 0.14481(10) -0.55358(18)
O12 O 0.4821(3) 0.16991(9) -0.93191(17)
O13 O 0.1702(3) 0.01665(9) -0.90031(18)
O14 O 0.7287(3) 0.21288(9) -0.84524(19)
O15 O 1.3510(3) 0.09197(9) -0.85633(17)
O16 O 0.6652(3) 0.12841(9) -0.79122(17)
O17 O 0.6527(3) -0.01049(9) -0.67180(19)
C6 C 1.0083(5) 0.11046(14) -0.8203(3)
C14 C 1.1444(4) 0.10307(14) -0.7501(3)
C20 C 0.8902(4) 0.07460(14) -0.8165(3)
O18 O 1.4457(3) 0.10396(9) -0.69899(17)
O19 O 0.3729(3) 0.01952(9) -0.75472(17)
O20 O 0.4723(3) 0.03583(9) -0.58532(19)
O21 O 0.6056(3) 0.04857(9) -0.81354(17)
H6 H 1.137(5) 0.1182(14) -0.694(3)
H14 H 0.900(5) 0.0631(13) -0.757(3)
H15 H 1.151(5) 0.0750(15) -0.737(3)
H16 H 0.967(5) 0.1353(14) -0.813(3)
H23 H 1.035(5) 0.1106(14) -0.872(3)
H28 H 0.904(5) 0.0512(16) -0.845(3)
Mo1_2 Mo 1.40423(4) 0.119160(11) -0.98200(2)
Mo2_2 Mo 1.55409(4) 0.197050(11) -0.82303(2)
Mo3_2 Mo 1.36063(4) 0.023890(11) -0.87168(2)
Mo4_2 Mo 1.55478(4) 0.036670(11) -0.67560(2)
Mo5_2 Mo 1.69062(4) 0.138030(11) -0.65225(2)
O5_2 O 0.3383(3) 0.16464(9) -0.79523(18)
O15_2 O 0.3510(3) 0.09197(9) -0.85633(17)
O18_2 O 0.4457(3) 0.10396(9) -0.69899(17)
Co1 Co 0.00820(6) 0.153210(17) -0.29961(3)
N1 N -0.1468(4) 0.16553(10) -0.2283(2)
N2 N 0.0557(4) 0.10599(10) -0.2219(2)
C1 C 0.0553(5) 0.27279(14) -0.3990(3)
N3 N -0.1132(4) 0.11207(10) -0.3707(2)
C2 C -0.1416(4) 0.13936(12) -0.1596(3)
C3 C -0.2435(5) 0.19869(13) -0.2366(3)
C4 C 0.1805(5) 0.04178(13) -0.1696(3)
C5 C 0.0442(4) 0.23797(13) -0.3468(3)
N4 N -0.0336(4) 0.20220(10) -0.3745(2)
C7 C 0.2761(5) 0.22008(14) -0.1010(3)
N5 N 0.1608(4) 0.13930(11) -0.3715(2)
C8 C 0.0926(5) 0.04008(13) -0.1053(3)
C9 C 0.3867(5) 0.15002(15) -0.4332(3)
N6 N 0.1323(4) 0.19436(11) -0.2290(2)
C10 C 0.1215(4) 0.23481(13) -0.2591(3)
C11 C -0.0172(5) 0.07112(13) -0.0997(3)
C12 C -0.2537(5) 0.09834(14) -0.3603(3)
C13 C -0.0356(5) 0.09124(13) -0.4256(3)
C15 C 0.2049(5) 0.09836(15) -0.4924(3)
C16 C -0.2390(5) 0.04064(14) -0.4575(3)
C17 C -0.2295(5) 0.14731(14) -0.0961(3)
C18 C -0.1090(5) 0.20100(13) -0.4544(3)
C19 C 0.1150(5) 0.10928(13) -0.4316(3)
C21 C 0.1594(5) 0.07530(13) -0.2276(3)
C22 C -0.3247(5) 0.18290(13) -0.1029(3)
C23 C 0.2090(5) 0.18708(14) -0.1518(3)
C24 C -0.3347(5) 0.20800(13) -0.1747(3)
C25 C 0.2952(5) 0.15892(15) -0.3722(3)
C26 C 0.1800(5) 0.26915(15) -0.2109(3)
C27 C 0.3429(5) 0.11926(16) -0.4933(3)
C28 C -0.0190(5) 0.27108(14) -0.4807(3)
C29 C 0.2596(5) 0.26130(15) -0.1308(3)
C30 C -0.0333(4) 0.10405(13) -0.1587(2)
C31 C -0.3185(5) 0.06266(14) -0.4029(3)
C32 C -0.0966(5) 0.05557(15) -0.4703(3)
C33 C -0.1030(5) 0.23529(14) -0.5086(3)
H1 H -0.017(5) 0.2900(14) -0.517(3)
H2 H 0.289(6) 0.2836(17) -0.098(3)
H3 H 0.222(5) 0.0771(14) -0.276(3)
H4 H -0.282(5) 0.0176(15) -0.485(3)
H5 H 0.170(5) 0.0781(15) -0.530(3)
H7 H 0.320(5) 0.1781(14) -0.335(3)
H8 H -0.243(5) 0.2140(14) -0.284(3)
H9 H 0.108(5) 0.2931(15) -0.379(3)
H10 H -0.047(7) 0.0445(19) -0.508(4)
H11 H -0.149(4) 0.2314(13) -0.564(3)
H12 H 0.259(6) 0.0228(16) -0.175(3)
H13 H -0.168(5) 0.1744(14) -0.469(3)
H17 H -0.415(6) 0.0543(16) -0.397(3)
H18 H 0.385(6) 0.1129(16) -0.534(3)
H19 H -0.221(5) 0.1316(14) -0.054(3)
H20 H -0.080(5) 0.0719(14) -0.060(3)
H21 H 0.168(5) 0.2976(15) -0.230(3)
H22 H 0.327(5) 0.2145(14) -0.048(3)
H24 H 0.107(5) 0.0192(13) -0.068(3)
H25 H 0.207(5) 0.1612(15) -0.135(3)
H26 H -0.404(5) 0.2293(15) -0.184(3)
H27 H -0.374(5) 0.1882(14) -0.055(3)
H29 H -0.301(6) 0.1148(16) -0.324(3)
H30 H 0.467(6) 0.1634(16) -0.433(3)
O22 O 0.5126(4) 0.09249(13) -0.2416(2)
H31 H 0.503(7) 0.100(2) -0.198(4)
H32 H 0.513(8) 0.067(2) -0.252(5)
loop_
_geom_bond_atom_site_label_1
_geom_bond_atom_site_label_2
_geom_bond_site_symmetry_1
_geom_bond_site_symmetry_2
Mo1 O1 1_555 1_555
Mo2 O6 1_555 1_555
Mo3 O1 1_555 1_555
Mo4 O3 1_555 1_555
Mo5 O3 1_555 1_555
Co1 N1 1_555 1_555
P1 O5 1_555 1_555
P2 O7 1_555 1_555
O2 Mo1 1_555 1_555
O4 Mo1 1_555 1_555
O5 Mo2_2 1_555 1_555
O6 Mo5 1_555 1_555
O7 Mo1 1_555 1_555
O8 Mo2 1_555 1_555
O9 Mo3 1_555 1_555
O10 Mo5 1_555 1_555
N1 C2 1_555 1_555
O11 Mo5 1_555 1_555
O12 Mo1 1_555 1_555
O13 Mo3 1_555 1_555
O14 Mo2 1_555 1_555
O15 P1 1_555 1_555
O16 Mo2 1_555 1_555
O17 Mo4 1_555 1_555
N2 Co1 1_555 1_555
C1 C5 1_555 1_555
N3 Co1 1_555 1_555
C2 C17 1_555 1_555
C3 N1 1_555 1_555
C4 C8 1_555 1_555
C5 N4 1_555 1_555
N4 Co1 1_555 1_555
C6 C14 1_555 1_555
C7 C23 1_555 1_555
N5 Co1 1_555 1_555
C8 C11 1_555 1_555
C9 C25 1_555 1_555
N6 Co1 1_555 1_555
C10 C5 1_555 1_555
C11 C30 1_555 1_555
C12 N3 1_555 1_555
C13 N3 1_555 1_555
C14 P1 1_555 1_555
C15 C19 1_555 1_555
C16 C31 1_555 1_555
C17 C22 1_555 1_555
C18 N4 1_555 1_555
C19 N5 1_555 1_555
C20 P2 1_555 1_555
C21 N2 1_555 1_555
C22 C24 1_555 1_555
C23 N6 1_555 1_555
C24 C3 1_555 1_555
C25 N5 1_555 1_555
C26 C10 1_555 1_555
C27 C9 1_555 1_555
C28 C1 1_555 1_555
C29 C7 1_555 1_555
C30 N2 1_555 1_555
C31 C12 1_555 1_555
C32 C13 1_555 1_555
C33 C18 1_555 1_555
O18 P1 1_555 1_555
O19 Mo3 1_555 1_555
O20 Mo4 1_555 1_555
O21 Mo3 1_555 1_555
O22 H31 1_555 1_555
H1 C28 1_555 1_555
H2 C29 1_555 1_555
H3 C21 1_555 1_555
H4 C16 1_555 1_555
H5 C15 1_555 1_555
H6 C14 1_555 1_555
H7 C25 1_555 1_555
H8 C3 1_555 1_555
H9 C1 1_555 1_555
H10 C32 1_555 1_555
H11 C33 1_555 1_555
H12 C4 1_555 1_555
H13 C18 1_555 1_555
H14 C20 1_555 1_555
H15 C14 1_555 1_555
H16 C6 1_555 1_555
H17 C31 1_555 1_555
H18 C27 1_555 1_555
H19 C17 1_555 1_555
H20 C11 1_555 1_555
H21 C26 1_555 1_555
H22 C7 1_555 1_555
H23 C6 1_555 1_555
H24 C8 1_555 1_555
H25 C23 1_555 1_555
H26 C24 1_555 1_555
H27 C22 1_555 1_555
H28 C20 1_555 1_555
H29 C12 1_555 1_555
H30 C9 1_555 1_555
H32 O22 1_555 1_555
Mo1_2 O15 1_555 1_555
Mo3_2 O15 1_555 1_555
Mo4_2 O18 1_555 1_555
Mo5_2 O18 1_555 1_555
O5_2 Mo2 1_555 1_555
O15_2 Mo1 1_555 1_555
O18_2 Mo4 1_555 1_555
Mo2 O12 1_555 1_555
Mo3 O15_2 1_555 1_555
Mo4 O19 1_555 1_555
Mo4 O21 1_555 1_555
Mo5 O16 1_555 1_555
Mo5 O18_2 1_555 1_555
P2 O16 1_555 1_555
P2 O21 1_555 1_555
C2 C30 1_555 1_555
C4 C21 1_555 1_555
C6 C20 1_555 1_555
N6 C10 1_555 1_555
C13 C19 1_555 1_555
C15 C27 1_555 1_555
C16 C32 1_555 1_555
C26 C29 1_555 1_555
C28 C33 1_555 1_555

#END
