
#######################################################################
#
#                 Cambridge Crystallographic Data Centre
#                                CCDC 
#
#######################################################################
#
# If this CIF has been generated from an entry in the Cambridge 
# Structural Database, then it will include bibliographic, chemical, 
# crystal, experimental, refinement or atomic coordinate data resulting 
# from the CCDC's data processing and validation procedures.
#
#######################################################################

data_IFECEB
_symmetry_cell_setting           triclinic
_symmetry_space_group_name_H-M   'P -1'
_symmetry_Int_Tables_number      2
_space_group_name_Hall           '-P 1'
loop_
_symmetry_equiv_pos_site_id
_symmetry_equiv_pos_as_xyz
1 x,y,z
2 -x,-y,-z
_cell_length_a                   11.11050(10)
_cell_length_b                   14.5956(2)
_cell_length_c                   18.4964(3)
_cell_angle_alpha                96.6324(5)
_cell_angle_beta                 96.6337(5)
_cell_angle_gamma                109.7422(9)
_cell_volume                     2765.69
loop_
_atom_site_label
_atom_site_type_symbol
_atom_site_fract_x
_atom_site_fract_y
_atom_site_fract_z
Tl1 Tl -0.19644(3) 0.36342(2) 0.239640(17)
Tl2 Tl 0.25273(3) 1.27135(2) 0.290600(17)
Au1 Au 0.05466(3) 0.34104(2) 0.207581(16)
Au2 Au -0.45606(3) 0.33194(2) 0.292020(16)
Cl1 Cl 0.0354(2) 0.47513(16) 0.08338(12)
Cl2 Cl 0.1583(2) 0.70223(16) 0.09849(12)
Cl3 Cl 0.3313(2) 0.82634(15) 0.24613(15)
Cl4 Cl 0.3763(2) 0.72190(16) 0.37831(13)
Cl5 Cl 0.2437(2) 0.49591(16) 0.36603(11)
Cl6 Cl -0.0934(2) 0.18837(17) 0.32152(12)
Cl7 Cl -0.2776(2) -0.02953(18) 0.27039(15)
Cl8 Cl -0.3089(2) -0.13024(16) 0.10762(16)
Cl9 Cl -0.1729(2) -0.00984(17) -0.00555(13)
Cl10 Cl 0.0036(2) 0.21043(16) 0.04362(12)
Cl11 Cl -0.6422(2) 0.24212(17) 0.12212(12)
Cl12 Cl -0.7013(3) 0.3693(3) 0.01033(15)
Cl13 Cl -0.6007(3) 0.5982(3) 0.0533(2)
Cl14 Cl -0.4419(3) 0.6985(2) 0.2099(2)
Cl15 Cl -0.3895(3) 0.57027(18) 0.32279(16)
Cl16 Cl -0.57674(19) 0.08864(15) 0.30260(11)
Cl17 Cl -0.4564(2) -0.01604(15) 0.41065(12)
Cl18 Cl -0.2129(2) 0.10639(17) 0.52827(13)
Cl19 Cl -0.0865(2) 0.33362(17) 0.53306(12)
Cl20 Cl -0.2083(2) 0.43874(15) 0.42770(12)
O1 O 0.2608(8) 1.2381(7) 0.4358(4)
N1 N -0.3344(7) 0.2254(6) 0.1234(4)
N2 N -0.1475(7) 0.5515(5) 0.2176(4)
N3 N 0.1285(7) 1.0720(5) 0.2603(4)
C1 C 0.1465(7) 0.4912(6) 0.2238(4)
C2 C 0.1307(7) 0.5426(6) 0.1656(4)
C3 C 0.1860(8) 0.6444(6) 0.1716(5)
C4 C 0.2630(8) 0.7004(6) 0.2371(5)
C5 C 0.2816(8) 0.6530(6) 0.2959(4)
C6 C 0.2215(8) 0.5503(6) 0.2890(4)
C7 C -0.0489(7) 0.1923(6) 0.1816(5)
C8 C -0.1130(6) 0.1350(6) 0.2297(4)
C9 C -0.1941(7) 0.0355(6) 0.2080(5)
C10 C -0.2106(8) -0.0092(6) 0.1350(5)
C11 C -0.1487(8) 0.0457(6) 0.0854(5)
C12 C -0.0705(7) 0.1441(6) 0.1088(4)
C13 C -0.5115(6) 0.4110(6) 0.2185(4)
C14 C -0.5836(7) 0.3694(7) 0.1476(4)
C15 C -0.6124(8) 0.4256(8) 0.0971(5)
C16 C -0.5675(9) 0.5277(8) 0.1156(6)
C17 C -0.4999(9) 0.5707(7) 0.1848(6)
C18 C -0.4732(8) 0.5131(6) 0.2347(5)
C19 C -0.3882(7) 0.2598(6) 0.3673(4)
C20 C -0.4391(7) 0.1589(6) 0.3672(4)
C21 C -0.3884(7) 0.1103(6) 0.4154(4)
C22 C -0.2799(8) 0.1643(6) 0.4671(4)
C23 C -0.2234(8) 0.2662(6) 0.4707(4)
C24 C -0.2791(7) 0.3110(5) 0.4215(4)
C25 C -0.4056(9) 0.1441(7) 0.1473(5)
H1 H -0.4110 0.1480 0.1984
C26 C -0.4715(8) 0.0548(7) 0.1015(5)
H2 H -0.5199 -0.0011 0.1211
C27 C -0.4660(7) 0.0478(6) 0.0258(5)
C28 C -0.3930(9) 0.1336(7) 0.0010(5)
H3 H -0.3864 0.1328 -0.0498
C29 C -0.3316(9) 0.2181(7) 0.0508(5)
H4 H -0.2836 0.2756 0.0328
C30 C -0.1758(8) 0.5979(6) 0.1633(5)
H5 H -0.2318 0.5594 0.1195
C31 C -0.1271(8) 0.6990(6) 0.1684(5)
H6 H -0.1489 0.7289 0.1284
C32 C -0.0473(8) 0.7561(6) 0.2311(4)
C33 C -0.0152(8) 0.7106(6) 0.2883(4)
H7 H 0.0411 0.7482 0.3323
C34 C -0.0681(8) 0.6080(6) 0.2790(4)
H8 H -0.0470 0.5764 0.3181
C35 C 0.0115(8) 0.8659(6) 0.2402(5)
C36 C 0.0273(8) 0.9238(6) 0.3076(5)
H9 H -0.0005 0.8940 0.3487
C37 C 0.0539(8) 0.9135(6) 0.1820(5)
H10 H 0.0440 0.8771 0.1343
C38 C 0.0844(8) 1.0263(6) 0.3152(5)
H11 H 0.0921 1.0650 0.3616
C39 C 0.1111(8) 1.0157(6) 0.1954(5)
H12 H 0.1399 1.0476 0.1553
C40 C 0.2075(9) 1.2899(7) 0.4835(5)
H13 H 0.1318 1.2998 0.4565
H14 H 0.2726 1.3551 0.5064
C41 C 0.1676(9) 1.2267(7) 0.5406(5)
H15 H 0.0787 1.1778 0.5244
H16 H 0.1706 1.2672 0.5880
C42 C 0.2645(13) 1.1769(10) 0.5478(7)
H17 H 0.2214 1.1054 0.5477
H18 H 0.3280 1.2062 0.5939
C43 C 0.3292(12) 1.1946(13) 0.4813(7)
H19 H 0.4207 1.2390 0.4965
H20 H 0.3274 1.1314 0.4543
C27A C -0.5340(7) -0.0478(6) -0.0258(5)
C26A C -0.5285(8) -0.0548(7) -0.1015(5)
C25A C -0.5944(9) -0.1441(7) -0.1473(5)
N1A N -0.6656(7) -0.2254(6) -0.1234(4)
C29A C -0.6684(9) -0.2181(7) -0.0508(5)
C28A C -0.6070(9) -0.1336(7) -0.0010(5)
H3A H -0.6136 -0.1328 0.0498
H4A H -0.7164 -0.2756 -0.0328
H1A H -0.5890 -0.1480 -0.1984
H2A H -0.4801 0.0011 -0.1211
Tl1A Tl -0.80356(3) -0.36342(2) -0.239640(17)
N2A N -0.8525(7) -0.5515(5) -0.2176(4)
N3A N -1.1285(7) -1.0720(5) -0.2603(4)
C30A C -0.8242(8) -0.5979(6) -0.1633(5)
H5A H -0.7682 -0.5594 -0.1195
C31A C -0.8729(8) -0.6990(6) -0.1684(5)
H6A H -0.8511 -0.7289 -0.1284
C32A C -0.9527(8) -0.7561(6) -0.2311(4)
C33A C -0.9848(8) -0.7106(6) -0.2883(4)
H7A H -1.0411 -0.7482 -0.3323
C34A C -0.9319(8) -0.6080(6) -0.2790(4)
H8A H -0.9530 -0.5764 -0.3181
C35A C -1.0115(8) -0.8659(6) -0.2402(5)
C36A C -1.0273(8) -0.9238(6) -0.3076(5)
H9A H -0.9995 -0.8940 -0.3487
C37A C -1.0539(8) -0.9135(6) -0.1820(5)
H10A H -1.0440 -0.8771 -0.1343
C38A C -1.0844(8) -1.0263(6) -0.3152(5)
H11A H -1.0921 -1.0650 -0.3616
C39A C -1.1111(8) -1.0157(6) -0.1954(5)
H12A H -1.1399 -1.0476 -0.1553
Tl2A Tl -1.25273(3) -1.27135(2) -0.290600(17)
Au1A Au -1.05466(3) -0.34104(2) -0.207581(16)
Au2A Au -0.54394(3) -0.33194(2) -0.292020(16)
O1A O -1.2608(8) -1.2381(7) -0.4358(4)
C40A C -1.2075(9) -1.2899(7) -0.4835(5)
H13A H -1.1318 -1.2998 -0.4565
H14A H -1.2726 -1.3551 -0.5064
C41A C -1.1676(9) -1.2267(7) -0.5406(5)
H15A H -1.0787 -1.1778 -0.5244
H16A H -1.1706 -1.2672 -0.5880
C42A C -1.2645(13) -1.1769(10) -0.5478(7)
H17A H -1.2214 -1.1054 -0.5477
H18A H -1.3280 -1.2062 -0.5939
C43A C -1.3292(12) -1.1946(13) -0.4813(7)
H19A H -1.4207 -1.2390 -0.4965
H20A H -1.3274 -1.1314 -0.4543
Cl1A Cl -1.0354(2) -0.47513(16) -0.08338(12)
Cl2A Cl -1.1583(2) -0.70223(16) -0.09849(12)
Cl3A Cl -1.3313(2) -0.82634(15) -0.24613(15)
Cl4A Cl -1.3763(2) -0.72190(16) -0.37831(13)
Cl5A Cl -1.2437(2) -0.49591(16) -0.36603(11)
C1A C -1.1465(7) -0.4912(6) -0.2238(4)
C2A C -1.1307(7) -0.5426(6) -0.1656(4)
C3A C -1.1860(8) -0.6444(6) -0.1716(5)
C4A C -1.2630(8) -0.7004(6) -0.2371(5)
C5A C -1.2816(8) -0.6530(6) -0.2959(4)
C6A C -1.2215(8) -0.5503(6) -0.2890(4)
Cl6A Cl -0.9066(2) -0.18837(17) -0.32152(12)
Cl7A Cl -0.7224(2) 0.02953(18) -0.27039(15)
Cl8A Cl -0.6911(2) 0.13024(16) -0.10762(16)
Cl9A Cl -0.8271(2) 0.00984(17) 0.00555(13)
Cl10A Cl -1.0036(2) -0.21043(16) -0.04362(12)
C7A C -0.9511(7) -0.1923(6) -0.1816(5)
C8A C -0.8870(6) -0.1350(6) -0.2297(4)
C9A C -0.8059(7) -0.0355(6) -0.2080(5)
C10A C -0.7894(8) 0.0092(6) -0.1350(5)
C11A C -0.8513(8) -0.0457(6) -0.0854(5)
C12A C -0.9295(7) -0.1441(6) -0.1088(4)
Cl11A Cl -0.3578(2) -0.24212(17) -0.12212(12)
Cl12A Cl -0.2987(3) -0.3693(3) -0.01033(15)
Cl13A Cl -0.3993(3) -0.5982(3) -0.0533(2)
Cl14A Cl -0.5581(3) -0.6985(2) -0.2099(2)
Cl15A Cl -0.6105(3) -0.57027(18) -0.32279(16)
C13A C -0.4885(6) -0.4110(6) -0.2185(4)
C14A C -0.4164(7) -0.3694(7) -0.1476(4)
C15A C -0.3876(8) -0.4256(8) -0.0971(5)
C16A C -0.4325(9) -0.5277(8) -0.1156(6)
C17A C -0.5001(9) -0.5707(7) -0.1848(6)
C18A C -0.5268(8) -0.5131(6) -0.2347(5)
Cl16A Cl -0.42326(19) -0.08864(15) -0.30260(11)
Cl17A Cl -0.5436(2) 0.01604(15) -0.41065(12)
Cl18A Cl -0.7871(2) -0.10639(17) -0.52827(13)
Cl19A Cl -0.9135(2) -0.33362(17) -0.53306(12)
Cl20A Cl -0.7917(2) -0.43874(15) -0.42770(12)
C19A C -0.6118(7) -0.2598(6) -0.3673(4)
C20A C -0.5609(7) -0.1589(6) -0.3672(4)
C21A C -0.6116(7) -0.1103(6) -0.4154(4)
C22A C -0.7201(8) -0.1643(6) -0.4671(4)
C23A C -0.7766(8) -0.2662(6) -0.4707(4)
C24A C -0.7209(7) -0.3110(5) -0.4215(4)
Au1_2 Au 0.05466(3) 1.34104(2) 0.207581(16)
Au2_2 Au 0.54394(3) 1.33194(2) 0.292020(16)
Tl2_2 Tl 0.25273(3) 0.27135(2) 0.290600(17)
Tl2_3 Tl -0.74727(3) 0.27135(2) 0.290600(17)
Au1A_2 Au -1.05466(3) -1.34104(2) -0.207581(16)
Au2A_2 Au -1.54394(3) -1.33194(2) -0.292020(16)
Tl2A_2 Tl -1.25273(3) -0.27135(2) -0.290600(17)
Tl2A_3 Tl -0.25273(3) -0.27135(2) -0.290600(17)
loop_
_geom_bond_atom_site_label_1
_geom_bond_atom_site_label_2
_geom_bond_site_symmetry_1
_geom_bond_site_symmetry_2
Tl1 Au1 1_555 1_555
Tl2 O1 1_555 1_555
Au1 C1 1_555 1_555
Au2 Tl1 1_555 1_555
Cl1 C2 1_555 1_555
Cl2 C3 1_555 1_555
Cl3 C4 1_555 1_555
Cl4 C5 1_555 1_555
Cl5 C6 1_555 1_555
Cl6 C8 1_555 1_555
Cl7 C9 1_555 1_555
Cl8 C10 1_555 1_555
Cl9 C11 1_555 1_555
Cl10 C12 1_555 1_555
Cl11 C14 1_555 1_555
Cl12 C15 1_555 1_555
Cl13 C16 1_555 1_555
Cl14 C17 1_555 1_555
Cl15 C18 1_555 1_555
Cl16 C20 1_555 1_555
Cl17 C21 1_555 1_555
Cl18 C22 1_555 1_555
Cl19 C23 1_555 1_555
Cl20 C24 1_555 1_555
O1 C40 1_555 1_555
N1 Tl1 1_555 1_555
N2 Tl1 1_555 1_555
N3 Tl2 1_555 1_555
C1 C2 1_555 1_555
C2 C3 1_555 1_555
C3 C4 1_555 1_555
C4 C5 1_555 1_555
C5 C6 1_555 1_555
C6 C1 1_555 1_555
C7 Au1 1_555 1_555
C8 C7 1_555 1_555
C9 C8 1_555 1_555
C10 C9 1_555 1_555
C11 C10 1_555 1_555
C12 C7 1_555 1_555
C13 Au2 1_555 1_555
C14 C13 1_555 1_555
C15 C14 1_555 1_555
C16 C15 1_555 1_555
C17 C16 1_555 1_555
C18 C13 1_555 1_555
C19 Au2 1_555 1_555
C20 C19 1_555 1_555
C21 C20 1_555 1_555
C22 C21 1_555 1_555
C23 C22 1_555 1_555
C24 C19 1_555 1_555
C25 N1 1_555 1_555
H1 C25 1_555 1_555
C26 C25 1_555 1_555
H2 C26 1_555 1_555
C27 C26 1_555 1_555
C28 C27 1_555 1_555
H3 C28 1_555 1_555
C29 N1 1_555 1_555
H4 C29 1_555 1_555
C30 N2 1_555 1_555
H5 C30 1_555 1_555
C31 C30 1_555 1_555
H6 C31 1_555 1_555
C32 C31 1_555 1_555
C33 C32 1_555 1_555
H7 C33 1_555 1_555
C34 N2 1_555 1_555
H8 C34 1_555 1_555
C35 C32 1_555 1_555
C36 C35 1_555 1_555
H9 C36 1_555 1_555
C37 C35 1_555 1_555
H10 C37 1_555 1_555
C38 N3 1_555 1_555
H11 C38 1_555 1_555
C39 N3 1_555 1_555
H12 C39 1_555 1_555
C40 H13 1_555 1_555
H14 C40 1_555 1_555
C41 C40 1_555 1_555
H15 C41 1_555 1_555
H16 C41 1_555 1_555
C42 C41 1_555 1_555
H17 C42 1_555 1_555
H18 C42 1_555 1_555
C43 O1 1_555 1_555
H19 C43 1_555 1_555
H20 C43 1_555 1_555
C27A C27 1_555 1_555
C26A C27A 1_555 1_555
C25A C26A 1_555 1_555
N1A C25A 1_555 1_555
C29A N1A 1_555 1_555
C28A C27A 1_555 1_555
H3A C28A 1_555 1_555
H4A C29A 1_555 1_555
H1A C25A 1_555 1_555
H2A C26A 1_555 1_555
Tl1A N1A 1_555 1_555
N2A Tl1A 1_555 1_555
N3A C38A 1_555 1_555
C30A N2A 1_555 1_555
H5A C30A 1_555 1_555
C31A C30A 1_555 1_555
H6A C31A 1_555 1_555
C32A C31A 1_555 1_555
C33A C32A 1_555 1_555
H7A C33A 1_555 1_555
C34A N2A 1_555 1_555
H8A C34A 1_555 1_555
C35A C32A 1_555 1_555
C36A C35A 1_555 1_555
H9A C36A 1_555 1_555
C37A C35A 1_555 1_555
H10A C37A 1_555 1_555
C38A C36A 1_555 1_555
H11A C38A 1_555 1_555
C39A N3A 1_555 1_555
H12A C39A 1_555 1_555
Tl2A N3A 1_555 1_555
Au1A Tl1A 1_555 1_555
Au2A Tl1A 1_555 1_555
O1A Tl2A 1_555 1_555
C40A O1A 1_555 1_555
H13A C40A 1_555 1_555
H14A C40A 1_555 1_555
C41A C40A 1_555 1_555
H15A C41A 1_555 1_555
H16A C41A 1_555 1_555
C42A C41A 1_555 1_555
H17A C42A 1_555 1_555
H18A C42A 1_555 1_555
C43A O1A 1_555 1_555
H19A C43A 1_555 1_555
H20A C43A 1_555 1_555
Cl1A C2A 1_555 1_555
Cl2A C3A 1_555 1_555
Cl3A C4A 1_555 1_555
Cl4A C5A 1_555 1_555
Cl5A C6A 1_555 1_555
C1A Au1A 1_555 1_555
C2A C1A 1_555 1_555
C3A C2A 1_555 1_555
C4A C3A 1_555 1_555
C5A C4A 1_555 1_555
C6A C1A 1_555 1_555
Cl6A C8A 1_555 1_555
Cl7A C9A 1_555 1_555
Cl8A C10A 1_555 1_555
Cl9A C11A 1_555 1_555
Cl10A C12A 1_555 1_555
C7A Au1A 1_555 1_555
C8A C7A 1_555 1_555
C9A C8A 1_555 1_555
C10A C9A 1_555 1_555
C11A C10A 1_555 1_555
C12A C7A 1_555 1_555
Cl11A C14A 1_555 1_555
Cl12A C15A 1_555 1_555
Cl13A C16A 1_555 1_555
Cl14A C17A 1_555 1_555
Cl15A C18A 1_555 1_555
C13A Au2A 1_555 1_555
C14A C13A 1_555 1_555
C15A C14A 1_555 1_555
C16A C15A 1_555 1_555
C17A C16A 1_555 1_555
C18A C13A 1_555 1_555
Cl16A C20A 1_555 1_555
Cl17A C21A 1_555 1_555
Cl18A C22A 1_555 1_555
Cl19A C23A 1_555 1_555
Cl20A C24A 1_555 1_555
C19A Au2A 1_555 1_555
C20A C19A 1_555 1_555
C21A C20A 1_555 1_555
C22A C21A 1_555 1_555
C23A C22A 1_555 1_555
C24A C19A 1_555 1_555
Au1_2 Tl2 1_555 1_555
Au2_2 Tl2 1_555 1_555
Tl2_2 Au1 1_555 1_555
Tl2_3 Au2 1_555 1_555
Au1A_2 Tl2A 1_555 1_555
Au2A_2 Tl2A 1_555 1_555
Tl2A_2 Au1A 1_555 1_555
Tl2A_3 Au2A 1_555 1_555
C11 C12 1_555 1_555
C17 C18 1_555 1_555
C23 C24 1_555 1_555
C28 C29 1_555 1_555
C33 C34 1_555 1_555
C36 C38 1_555 1_555
C37 C39 1_555 1_555
C42 C43 1_555 1_555
C29A C28A 1_555 1_555
C33A C34A 1_555 1_555
C37A C39A 1_555 1_555
C42A C43A 1_555 1_555
C5A C6A 1_555 1_555
C11A C12A 1_555 1_555
C17A C18A 1_555 1_555
C23A C24A 1_555 1_555

#END
