
#######################################################################
#
#                 Cambridge Crystallographic Data Centre
#                                CCDC 
#
#######################################################################
#
# If this CIF has been generated from an entry in the Cambridge 
# Structural Database, then it will include bibliographic, chemical, 
# crystal, experimental, refinement or atomic coordinate data resulting 
# from the CCDC's data processing and validation procedures.
#
#######################################################################

data_IFECAX
_symmetry_cell_setting           triclinic
_symmetry_space_group_name_H-M   'P -1'
_symmetry_Int_Tables_number      2
_space_group_name_Hall           '-P 1'
loop_
_symmetry_equiv_pos_site_id
_symmetry_equiv_pos_as_xyz
1 x,y,z
2 -x,-y,-z
_cell_length_a                   7.6998(6)
_cell_length_b                   11.5556(8)
_cell_length_c                   12.8272(8)
_cell_angle_alpha                105.102(3)
_cell_angle_beta                 105.477(3)
_cell_angle_gamma                90.314(3)
_cell_volume                     1058.48
loop_
_atom_site_label
_atom_site_type_symbol
_atom_site_fract_x
_atom_site_fract_y
_atom_site_fract_z
Au1 Au 0.588070(14) -0.596910(9) -0.593890(8)
Tl1 Tl 0.220260(14) -0.203580(9) -0.291090(8)
C1 C 0.6982(4) -0.4724(2) -0.6512(2)
C2 C 0.8370(4) -0.3883(2) -0.5842(2)
C3 C 0.9097(4) -0.2995(2) -0.6187(2)
C4 C 0.8411(4) -0.2947(3) -0.7282(2)
C5 C 0.7032(4) -0.3763(3) -0.7995(2)
C6 C 0.6347(4) -0.4626(3) -0.7605(2)
F1 F 0.9100(2) -0.38690(15) -0.47435(13)
F2 F 1.0387(2) -0.21619(16) -0.54701(15)
F3 F 0.9090(3) -0.20940(18) -0.76407(16)
F4 F 0.6350(3) -0.37049(18) -0.90669(15)
F5 F 0.4981(2) -0.54005(17) -0.83577(14)
C7 C 0.4879(4) -0.7249(2) -0.5361(2)
C8 C 0.3424(4) -0.8063(2) -0.5962(2)
C9 C 0.2791(4) -0.8959(2) -0.5583(2)
C10 C 0.3662(4) -0.9037(3) -0.4516(3)
C11 C 0.5107(4) -0.8231(3) -0.3862(2)
C12 C 0.5686(4) -0.7371(2) -0.4293(2)
F6 F 0.2452(3) -0.79985(17) -0.70005(14)
F7 F 0.1349(3) -0.97271(17) -0.62221(17)
F8 F 0.3069(3) -0.98685(18) -0.40993(18)
F9 F 0.5919(3) -0.82760(19) -0.28021(16)
F10 F 0.7088(2) -0.65964(16) -0.35950(15)
N1 N 0.1194(4) -0.3232(2) -0.1633(2)
C13 C -0.0289(4) -0.3993(3) -0.2032(2)
H1 H -0.1029 -0.4054 -0.2770
C14 C -0.0804(4) -0.4698(3) -0.1423(2)
H2 H -0.1871 -0.5229 -0.1746
C15 C 0.0245(4) -0.4626(2) -0.0339(2)
C16 C -0.1786(4) -0.6185(3) -0.0083(2)
H3 H -0.2545 -0.6277 -0.0822
C17 C -0.2192(4) -0.6851(3) 0.0588(3)
H4 H -0.3241 -0.7398 0.0286
N2 N 0.5413(3) -0.1216(2) -0.1219(2)
C18 C 0.6622(4) -0.1741(3) -0.0576(3)
H5 H 0.6238 -0.2466 -0.0455
C19 C 0.8399(4) -0.1296(3) -0.0075(3)
H6 H 0.9193 -0.1705 0.0386
C20 C 0.9038(4) -0.0243(2) -0.0243(2)
C21 C 0.7775(4) 0.0285(3) -0.0944(3)
H7 H 0.8125 0.0986 -0.1119
C22 C 0.6024(4) -0.0216(3) -0.1379(3)
H8 H 0.5186 0.0183 -0.1827
Au1A Au 0.411930(14) -0.403090(9) -0.406110(8)
Tl1A Tl 0.779740(14) -0.796420(9) -0.708910(8)
C15A C -0.0245(4) -0.5374(2) 0.0339(2)
C14A C 0.0804(4) -0.5302(3) 0.1423(2)
C13A C 0.0289(4) -0.6007(3) 0.2032(2)
N1A N -0.1194(4) -0.6768(2) 0.1633(2)
Tl1A_2 Tl -0.220260(14) -0.796420(9) 0.291090(8)
Au1_2 Au -0.411930(14) -0.596910(9) 0.406110(8)
N2A N -0.5413(3) -0.8784(2) 0.1219(2)
H1A H 0.1029 -0.5946 0.2770
H2A H 0.1871 -0.4771 0.1746
C16A C 0.1786(4) -0.3815(3) 0.0083(2)
H3A H 0.2545 -0.3723 0.0822
C17A C 0.2192(4) -0.3149(3) -0.0588(3)
H4A H 0.3241 -0.2602 -0.0286
C1A C 0.3018(4) -0.5276(2) -0.3488(2)
C2A C 0.1630(4) -0.6117(2) -0.4158(2)
C3A C 0.0903(4) -0.7005(2) -0.3813(2)
C4A C 0.1589(4) -0.7053(3) -0.2718(2)
C5A C 0.2968(4) -0.6237(3) -0.2005(2)
C6A C 0.3653(4) -0.5374(3) -0.2395(2)
F5A F 0.5019(2) -0.45995(17) -0.16423(14)
F4A F 0.3650(3) -0.62951(18) -0.09331(15)
F3A F 0.0910(3) -0.79060(18) -0.23593(16)
F2A F -0.0387(2) -0.78381(16) -0.45299(15)
F1A F 0.0900(2) -0.61310(15) -0.52565(13)
C7A C 0.5121(4) -0.2751(2) -0.4639(2)
C8A C 0.6576(4) -0.1937(2) -0.4038(2)
C9A C 0.7209(4) -0.1041(2) -0.4417(2)
C10A C 0.6338(4) -0.0963(3) -0.5484(3)
C11A C 0.4893(4) -0.1769(3) -0.6138(2)
C12A C 0.4314(4) -0.2629(2) -0.5707(2)
F10A F 0.2912(2) -0.34036(16) -0.64050(15)
F9A F 0.4081(3) -0.17240(19) -0.71979(16)
F8A F 0.6931(3) -0.01315(18) -0.59007(18)
F7A F 0.8651(3) -0.02729(17) -0.37779(17)
F6A F 0.7548(3) -0.20015(17) -0.29995(14)
C20A C 1.0962(4) 0.0243(2) 0.0243(2)
C19A C 1.1601(4) 0.1296(3) 0.0075(3)
C21A C 1.2225(4) -0.0285(3) 0.0944(3)
C18A C 1.3378(4) 0.1741(3) 0.0576(3)
H6A H 1.0807 0.1705 -0.0386
H7A H 1.1875 -0.0986 0.1119
C22A C 1.3976(4) 0.0216(3) 0.1379(3)
N2A_2 N 1.4587(3) 0.1216(2) 0.1219(2)
H5A H 1.3762 0.2466 0.0455
H8A H 1.4814 -0.0183 0.1827
Tl1A_3 Tl 1.779740(14) 0.203580(9) 0.291090(8)
loop_
_geom_bond_atom_site_label_1
_geom_bond_atom_site_label_2
_geom_bond_site_symmetry_1
_geom_bond_site_symmetry_2
Au1 C1 1_555 1_555
Tl1 N1 1_555 1_555
C1 C2 1_555 1_555
C2 C3 1_555 1_555
C3 C4 1_555 1_555
C4 C5 1_555 1_555
C5 C6 1_555 1_555
C6 C1 1_555 1_555
F1 C2 1_555 1_555
F2 C3 1_555 1_555
F3 C4 1_555 1_555
F4 C5 1_555 1_555
F5 C6 1_555 1_555
C7 Au1 1_555 1_555
C8 C7 1_555 1_555
C9 C8 1_555 1_555
C10 C9 1_555 1_555
C11 C10 1_555 1_555
C12 C7 1_555 1_555
F6 C8 1_555 1_555
F7 C9 1_555 1_555
F8 C10 1_555 1_555
F9 C11 1_555 1_555
F10 C12 1_555 1_555
N1 C13 1_555 1_555
C13 H1 1_555 1_555
C14 C13 1_555 1_555
H2 C14 1_555 1_555
C15 C14 1_555 1_555
C16 H3 1_555 1_555
C17 C16 1_555 1_555
H4 C17 1_555 1_555
N2 Tl1 1_555 1_555
C18 N2 1_555 1_555
H5 C18 1_555 1_555
C19 C18 1_555 1_555
H6 C19 1_555 1_555
C20 C19 1_555 1_555
C21 C20 1_555 1_555
H7 C21 1_555 1_555
C22 N2 1_555 1_555
H8 C22 1_555 1_555
Au1A Au1 1_555 1_555
Tl1A Au1 1_555 1_555
C15A C15 1_555 1_555
C14A C15A 1_555 1_555
C13A C14A 1_555 1_555
N1A C17 1_555 1_555
Tl1A_2 N1A 1_555 1_555
Au1_2 Tl1A_2 1_555 1_555
N2A Tl1A_2 1_555 1_555
H1A C13A 1_555 1_555
H2A C14A 1_555 1_555
C16A C15 1_555 1_555
H3A C16A 1_555 1_555
C17A N1 1_555 1_555
H4A C17A 1_555 1_555
C1A Au1A 1_555 1_555
C2A C1A 1_555 1_555
C3A C2A 1_555 1_555
C4A C3A 1_555 1_555
C5A C4A 1_555 1_555
C6A C1A 1_555 1_555
F5A C6A 1_555 1_555
F4A C5A 1_555 1_555
F3A C4A 1_555 1_555
F2A C3A 1_555 1_555
F1A C2A 1_555 1_555
C7A Au1A 1_555 1_555
C8A C7A 1_555 1_555
C9A C8A 1_555 1_555
C10A C9A 1_555 1_555
C11A C10A 1_555 1_555
C12A C7A 1_555 1_555
F10A C12A 1_555 1_555
F9A C11A 1_555 1_555
F8A C10A 1_555 1_555
F7A C9A 1_555 1_555
F6A C8A 1_555 1_555
C20A C20 1_555 1_555
C19A C20A 1_555 1_555
C21A C20A 1_555 1_555
C18A C19A 1_555 1_555
H6A C19A 1_555 1_555
H7A C21A 1_555 1_555
C22A C21A 1_555 1_555
N2A_2 C18A 1_555 1_555
H5A C18A 1_555 1_555
H8A C22A 1_555 1_555
Tl1A_3 N2A_2 1_555 1_555
Tl1 Au1A 1_555 1_555
C11 C12 1_555 1_555
C16 C15A 1_555 1_555
C21 C22 1_555 1_555
C13A N1A 1_555 1_555
C16A C17A 1_555 1_555
C5A C6A 1_555 1_555
C11A C12A 1_555 1_555
C22A N2A_2 1_555 1_555

#END
