
#######################################################################
#
#                 Cambridge Crystallographic Data Centre
#                                CCDC 
#
#######################################################################
#
# If this CIF has been generated from an entry in the Cambridge 
# Structural Database, then it will include bibliographic, chemical, 
# crystal, experimental, refinement or atomic coordinate data resulting 
# from the CCDC's data processing and validation procedures.
#
#######################################################################

data_IFEJOT
_symmetry_cell_setting           triclinic
_symmetry_space_group_name_H-M   'P -1'
_symmetry_Int_Tables_number      2
_space_group_name_Hall           '-P 1'
loop_
_symmetry_equiv_pos_site_id
_symmetry_equiv_pos_as_xyz
1 x,y,z
2 -x,-y,-z
_cell_length_a                   11.037(2)
_cell_length_b                   15.126(3)
_cell_length_c                   15.660(3)
_cell_angle_alpha                62.05(3)
_cell_angle_beta                 72.26(3)
_cell_angle_gamma                82.05(3)
_cell_volume                     2199.57
loop_
_atom_site_label
_atom_site_type_symbol
_atom_site_fract_x
_atom_site_fract_y
_atom_site_fract_z
U1 U 0.152588(13) 0.126197(10) 0.689692(11)
O1 O 0.2982(3) 0.0229(2) 0.7905(2)
O2 O 0.4283(3) -0.4182(2) 1.1913(2)
O3 O 0.0959(3) 0.0050(2) 0.8721(2)
O4 O 0.2267(3) -0.4351(2) 1.2741(2)
O5 O 0.1581(3) 0.2227(2) 0.7216(2)
O6 O 0.1469(3) 0.0266(2) 0.6621(2)
O7 O -0.5551(3) 0.3176(2) 0.5000(2)
O8 O -0.0659(3) 0.1264(2) 0.7384(2)
C1 C -0.5526(4) 0.2254(3) 0.5546(3)
O9 O -0.6429(3) 0.1670(2) 0.5814(2)
C3 C 0.2088(4) -0.0268(3) 0.8666(3)
C5 C -0.2988(4) 0.0465(3) 0.6707(3)
C6 C -0.2507(5) -0.0510(3) 0.6900(4)
H2 H -0.1905 -0.0773 0.7262
O10 O -0.1880(3) -0.0089(2) 0.8400(3)
C8 C -0.2478(4) 0.1110(3) 0.6949(3)
C9 C 0.3149(4) -0.1962(3) 0.9250(3)
C10 C -0.2907(5) -0.1063(4) 0.6567(4)
H4 H -0.2556 -0.1691 0.6683
C11 C -0.3833(5) -0.0712(4) 0.6057(4)
H5 H -0.4102 -0.1106 0.5837
C13 C 0.2353(4) -0.1246(3) 0.9491(3)
C15 C -0.3949(4) 0.0831(3) 0.6196(3)
C16 C 0.3395(4) -0.2875(3) 1.0062(3)
C17 C -0.1605(4) 0.0704(3) 0.7633(3)
C20 C 0.2030(4) -0.2314(3) 1.1254(3)
H10 H 0.1635 -0.2436 1.1915
C25 C -0.4356(4) 0.0215(3) 0.5874(3)
H14 H -0.4984 0.0443 0.5536
C26 C 0.3657(4) -0.1858(3) 0.8266(3)
H15 H 0.3510 -0.1270 0.7730
C28 C -0.4372(4) 0.1840(3) 0.5935(3)
C29 C 0.2838(4) -0.3004(3) 1.1064(3)
C31 C -0.2803(4) 0.2096(3) 0.6593(3)
H17 H -0.2389 0.2531 0.6679
C32 C 0.1784(4) -0.1412(3) 1.0457(3)
H18 H 0.1241 -0.0938 1.0592
C33 C 0.4612(5) -0.3474(4) 0.8871(4)
H19 H 0.5105 -0.3968 0.8736
C34 C -0.3772(4) 0.2457(3) 0.6090(3)
H20 H -0.4000 0.3127 0.5862
C35 C 0.3139(4) -0.3893(3) 1.1949(3)
C36 C 0.4356(5) -0.2589(4) 0.8078(4)
H21 H 0.4665 -0.2504 0.7422
C37 C 0.4141(4) -0.3618(3) 0.9848(4)
H22 H 0.4315 -0.4208 1.0369
U2 U 0.375544(13) -0.552806(10) 1.365806(11)
O11 O 0.3682(3) -0.6356(2) 1.3175(2)
O12 O 0.3798(4) -0.4706(2) 1.4144(3)
O13 O -0.4049(3) 0.4548(2) 0.3052(3)
O14 O -0.2897(3) 0.5937(2) 0.2252(3)
C39 C -0.1717(4) 0.3478(3) 0.3621(3)
C40 C -0.2040(4) 0.4510(3) 0.3360(3)
C41 C -0.3078(4) 0.5044(3) 0.2857(3)
C42 C -0.2333(4) 0.2879(3) 0.3401(3)
H24 H -0.2985 0.3151 0.3092
C44 C -0.0079(4) 0.3664(3) 0.4301(3)
C45 C -0.0423(4) 0.4639(3) 0.4037(3)
H26 H 0.0003 0.5032 0.4167
C46 C -0.1401(4) 0.5058(3) 0.3576(3)
H27 H -0.1623 0.5723 0.3412
C47 C -0.0708(4) 0.3052(3) 0.4086(3)
C48 C -0.0380(4) 0.2042(3) 0.4304(3)
H28 H 0.0272 0.1748 0.4608
C49 C -0.0993(5) 0.1497(3) 0.4079(4)
H29 H -0.0747 0.0840 0.4223
C50 C -0.1983(5) 0.1902(3) 0.3638(3)
H30 H -0.2408 0.1513 0.3504
O15 O 0.0995(3) 0.2365(2) 0.5408(2)
C51 C 0.0955(4) 0.3279(3) 0.4835(3)
O16 O 0.1721(3) 0.3913(2) 0.4698(2)
U1_2 U 1.152588(13) 0.126197(10) 0.689692(11)
U1_3 U -0.847412(13) 0.126197(10) 0.689692(11)
U1_4 U 1.152588(13) -0.873803(10) 1.689692(11)
O1_2 O 1.2982(3) 0.0229(2) 0.7905(2)
O2_2 O 1.4283(3) -0.4182(2) 1.1913(2)
O2_3 O -0.5717(3) 0.5818(2) 0.1913(2)
O3_2 O 1.0959(3) 0.0050(2) 0.8721(2)
O4_2 O 1.2267(3) -0.4351(2) 1.2741(2)
O4_3 O -0.7733(3) 0.5649(2) 0.2741(2)
O5_2 O 1.1581(3) 0.2227(2) 0.7216(2)
O6_2 O 1.1469(3) 0.0266(2) 0.6621(2)
O7_2 O 0.4449(3) 0.3176(2) 0.5000(2)
O7_3 O 0.4449(3) -0.6824(2) 1.5000(2)
O8_2 O 0.9341(3) 0.1264(2) 0.7384(2)
C1_2 C 0.4474(4) 0.2254(3) 0.5546(3)
O9_2 O 0.3571(3) 0.1670(2) 0.5814(2)
O9_3 O 1.3571(3) 0.1670(2) 0.5814(2)
C3_2 C 1.2088(4) -0.0268(3) 0.8666(3)
C5_2 C 0.7012(4) 0.0465(3) 0.6707(3)
C6_2 C 0.7493(5) -0.0510(3) 0.6900(4)
H2_2 H 0.8095 -0.0773 0.7262
O10_2 O 0.8120(3) -0.0089(2) 0.8400(3)
C8_2 C 0.7522(4) 0.1110(3) 0.6949(3)
C9_2 C 1.3149(4) -0.1962(3) 0.9250(3)
C10_2 C 0.7093(5) -0.1063(4) 0.6567(4)
H4_2 H 0.7444 -0.1691 0.6683
C11_2 C 0.6167(5) -0.0712(4) 0.6057(4)
H5_2 H 0.5898 -0.1106 0.5837
C13_2 C 1.2353(4) -0.1246(3) 0.9491(3)
C15_2 C 0.6051(4) 0.0831(3) 0.6196(3)
C16_2 C 1.3395(4) -0.2875(3) 1.0062(3)
C17_2 C 0.8395(4) 0.0704(3) 0.7633(3)
C20_2 C 1.2030(4) -0.2314(3) 1.1254(3)
H10_2 H 1.1635 -0.2436 1.1915
C25_2 C 0.5644(4) 0.0215(3) 0.5874(3)
H14_2 H 0.5016 0.0443 0.5536
C26_2 C 1.3657(4) -0.1858(3) 0.8266(3)
H15_2 H 1.3510 -0.1270 0.7730
C28_2 C 0.5628(4) 0.1840(3) 0.5935(3)
C29_2 C 1.2838(4) -0.3004(3) 1.1064(3)
C31_2 C 0.7197(4) 0.2096(3) 0.6593(3)
H17_2 H 0.7611 0.2531 0.6679
C32_2 C 1.1784(4) -0.1412(3) 1.0457(3)
H18_2 H 1.1241 -0.0938 1.0592
C33_2 C 1.4612(5) -0.3474(4) 0.8871(4)
H19_2 H 1.5105 -0.3968 0.8736
C34_2 C 0.6228(4) 0.2457(3) 0.6090(3)
H20_2 H 0.6000 0.3127 0.5862
C35_2 C 1.3139(4) -0.3893(3) 1.1949(3)
C36_2 C 1.4356(5) -0.2589(4) 0.8078(4)
H21_2 H 1.4665 -0.2504 0.7422
C37_2 C 1.4141(4) -0.3618(3) 0.9848(4)
H22_2 H 1.4315 -0.4208 1.0369
U2_2 U -0.624456(13) 0.447194(10) 0.365806(11)
U2_3 U 0.375544(13) 0.447194(10) 0.365806(11)
U2_4 U 1.375544(13) -0.552806(10) 1.365806(11)
O11_2 O -0.6318(3) 0.3644(2) 0.3175(2)
O12_2 O -0.6202(4) 0.5294(2) 0.4144(3)
O13_2 O 0.5951(3) -0.5452(2) 1.3052(3)
O14_2 O 0.7103(3) -0.4063(2) 1.2252(3)
C39_2 C 0.8283(4) -0.6522(3) 1.3621(3)
C40_2 C 0.7960(4) -0.5490(3) 1.3360(3)
C41_2 C 0.6922(4) -0.4956(3) 1.2857(3)
C42_2 C 0.7667(4) -0.7121(3) 1.3401(3)
H24_2 H 0.7015 -0.6849 1.3092
C44_2 C 0.9921(4) -0.6336(3) 1.4301(3)
C45_2 C 0.9577(4) -0.5361(3) 1.4037(3)
H26_2 H 1.0003 -0.4968 1.4167
C46_2 C 0.8599(4) -0.4942(3) 1.3576(3)
H27_2 H 0.8377 -0.4277 1.3412
C47_2 C 0.9292(4) -0.6948(3) 1.4086(3)
C48_2 C 0.9620(4) -0.7958(3) 1.4304(3)
H28_2 H 1.0272 -0.8252 1.4608
C49_2 C 0.9007(5) -0.8503(3) 1.4079(4)
H29_2 H 0.9253 -0.9160 1.4223
C50_2 C 0.8017(5) -0.8098(3) 1.3638(3)
H30_2 H 0.7592 -0.8487 1.3504
O15_2 O 1.0995(3) -0.7635(2) 1.5408(2)
O15_3 O 1.0995(3) 0.2365(2) 0.5408(2)
C51_2 C 1.0955(4) -0.6721(3) 1.4835(3)
O16_2 O 1.1721(3) -0.6087(2) 1.4698(2)
O16_3 O 0.1721(3) -0.6087(2) 1.4698(2)
O16_4 O -0.8279(3) 0.3913(2) 0.4698(2)
C2 C 0.4775(4) 0.0527(3) 0.9753(3)
N1 N 0.3961(3) 0.2448(3) 0.8851(3)
C7 C 0.4098(5) 0.2078(3) 0.9779(4)
H3 H 0.3924 0.2478 1.0106
C14 C 0.4191(5) 0.1890(4) 0.8372(4)
H7 H 0.4067 0.2154 0.7736
C18 C 0.4610(4) 0.0926(4) 0.8806(4)
H8 H 0.4783 0.0543 0.8461
C27 C 0.4489(4) 0.1119(3) 1.0243(3)
H16 H 0.4565 0.0861 1.0892
H31 H 0.362(4) 0.307(4) 0.852(4)
C2A C 0.5225(4) -0.0527(3) 1.0247(3)
N1A N 0.6039(3) -0.2448(3) 1.1149(3)
C7A C 0.5902(5) -0.2078(3) 1.0221(4)
H3A H 0.6076 -0.2478 0.9894
C14A C 0.5809(5) -0.1890(4) 1.1628(4)
H7A H 0.5933 -0.2154 1.2264
C18A C 0.5390(4) -0.0926(4) 1.1194(4)
H8A H 0.5217 -0.0543 1.1539
C27A C 0.5511(4) -0.1119(3) 0.9757(3)
H16A H 0.5435 -0.0861 0.9108
H31A H 0.638(4) -0.307(4) 1.148(4)
C4 C 0.8940(5) -0.4801(4) 0.8688(4)
H1 H 0.9428 -0.4940 0.8166
C12 C 1.0169(4) -0.6817(3) 0.9283(4)
H6 H 1.0228 -0.6416 0.8605
N2 N 1.0673(4) -0.8307(3) 1.0548(3)
N3 N 0.7572(5) -0.3655(4) 0.9178(4)
C19 C 1.0729(5) -0.7733(4) 0.9581(4)
H9 H 1.1152 -0.7959 0.9109
C21 C 0.8102(5) -0.5213(4) 1.0403(4)
H11 H 0.8008 -0.5642 1.1081
C22 C 0.7483(6) -0.4308(5) 1.0119(5)
H12 H 0.6971 -0.4149 1.0621
C23 C 0.9514(4) -0.6477(3) 0.9978(3)
C24 C 0.9483(5) -0.7106(4) 1.0980(4)
H13 H 0.9059 -0.6907 1.1474
C30 C 0.8861(4) -0.5484(3) 0.9686(4)
C38 C 1.0067(5) -0.8002(4) 1.1235(4)
H23 H 1.0044 -0.8413 1.1905
C43 C 0.8285(6) -0.3921(5) 0.8491(5)
H25 H 0.8347 -0.3476 0.7822
H32 H 1.105(5) -0.900(4) 1.087(4)
loop_
_geom_bond_atom_site_label_1
_geom_bond_atom_site_label_2
_geom_bond_site_symmetry_1
_geom_bond_site_symmetry_2
U1 O1 1_555 1_555
O1 C3 1_555 1_555
O2 C35 1_555 1_555
O3 U1 1_555 1_555
O4 C35 1_555 1_555
O5 U1 1_555 1_555
O6 U1 1_555 1_555
O7 C1 1_555 1_555
O8 U1 1_555 1_555
C1 O9 1_555 1_555
O9 U1_3 1_555 1_555
C2 C18 1_555 1_555
N1 C7 1_555 1_555
C3 O3 1_555 1_555
C4 H1 1_555 1_555
C5 C6 1_555 1_555
C6 H2 1_555 1_555
O10 C17 1_555 1_555
C7 H3 1_555 1_555
C8 C5 1_555 1_555
C9 C13 1_555 1_555
C10 C6 1_555 1_555
H4 C10 1_555 1_555
C11 C10 1_555 1_555
H5 C11 1_555 1_555
C12 H6 1_555 1_555
C13 C3 1_555 1_555
C14 N1 1_555 1_555
H7 C14 1_555 1_555
N2 C19 1_555 1_555
C15 C5 1_555 1_555
C16 C9 1_555 1_555
C17 O8 1_555 1_555
N3 C22 1_555 1_555
C18 C14 1_555 1_555
H8 C18 1_555 1_555
C19 C12 1_555 1_555
H9 C19 1_555 1_555
C20 H10 1_555 1_555
C21 H11 1_555 1_555
C22 C21 1_555 1_555
H12 C22 1_555 1_555
C23 C12 1_555 1_555
C24 C23 1_555 1_555
H13 C24 1_555 1_555
C25 C11 1_555 1_555
H14 C25 1_555 1_555
C26 C9 1_555 1_555
H15 C26 1_555 1_555
C27 C2 1_555 1_555
H16 C27 1_555 1_555
C28 C1 1_555 1_555
C29 C16 1_555 1_555
C30 C4 1_555 1_555
C31 C8 1_555 1_555
H17 C31 1_555 1_555
C32 C13 1_555 1_555
H18 C32 1_555 1_555
C33 H19 1_555 1_555
C34 C28 1_555 1_555
H20 C34 1_555 1_555
C35 C29 1_555 1_555
C36 C26 1_555 1_555
H21 C36 1_555 1_555
C37 C16 1_555 1_555
H22 C37 1_555 1_555
C38 N2 1_555 1_555
H23 C38 1_555 1_555
U2 O2 1_555 1_555
O11 U2 1_555 1_555
O12 U2 1_555 1_555
O13 C41 1_555 1_555
O14 C41 1_555 1_555
C39 C40 1_555 1_555
C40 C41 1_555 1_555
C42 C39 1_555 1_555
H24 C42 1_555 1_555
C43 C4 1_555 1_555
H25 C43 1_555 1_555
C44 C45 1_555 1_555
C45 H26 1_555 1_555
C46 C40 1_555 1_555
H27 C46 1_555 1_555
C47 C39 1_555 1_555
C48 C47 1_555 1_555
H28 C48 1_555 1_555
C49 C48 1_555 1_555
H29 C49 1_555 1_555
C50 C42 1_555 1_555
H30 C50 1_555 1_555
O15 U1 1_555 1_555
C51 C44 1_555 1_555
O16 C51 1_555 1_555
H31 N1 1_555 1_555
H32 N2 1_555 1_555
U1_2 O1_2 1_555 1_555
U1_4 O15_2 1_555 1_555
O1_2 C3_2 1_555 1_555
O2_2 C35_2 1_555 1_555
O2_3 U2_2 1_555 1_555
O3_2 U1_2 1_555 1_555
O4_2 C35_2 1_555 1_555
O4_3 U2_2 1_555 1_555
O5_2 U1_2 1_555 1_555
O6_2 U1_2 1_555 1_555
O7_2 C1_2 1_555 1_555
O7_3 U2 1_555 1_555
O8_2 U1_2 1_555 1_555
C1_2 O9_2 1_555 1_555
O9_2 U1 1_555 1_555
O9_3 U1_2 1_555 1_555
C2A C2 1_555 1_555
N1A C7A 1_555 1_555
C3_2 O3_2 1_555 1_555
C5_2 C6_2 1_555 1_555
C6_2 H2_2 1_555 1_555
O10_2 C17_2 1_555 1_555
C7A H3A 1_555 1_555
C8_2 C5_2 1_555 1_555
C9_2 C13_2 1_555 1_555
C10_2 C6_2 1_555 1_555
H4_2 C10_2 1_555 1_555
C11_2 C10_2 1_555 1_555
H5_2 C11_2 1_555 1_555
C13_2 C3_2 1_555 1_555
C14A N1A 1_555 1_555
H7A C14A 1_555 1_555
C15_2 C5_2 1_555 1_555
C16_2 C9_2 1_555 1_555
C17_2 O8_2 1_555 1_555
C18A C2A 1_555 1_555
H8A C18A 1_555 1_555
C20_2 H10_2 1_555 1_555
C25_2 C11_2 1_555 1_555
H14_2 C25_2 1_555 1_555
C26_2 C9_2 1_555 1_555
H15_2 C26_2 1_555 1_555
C27A C2A 1_555 1_555
H16A C27A 1_555 1_555
C28_2 C1_2 1_555 1_555
C29_2 C16_2 1_555 1_555
C31_2 C8_2 1_555 1_555
H17_2 C31_2 1_555 1_555
C32_2 C13_2 1_555 1_555
H18_2 C32_2 1_555 1_555
C33_2 H19_2 1_555 1_555
C34_2 C28_2 1_555 1_555
H20_2 C34_2 1_555 1_555
C35_2 C29_2 1_555 1_555
C36_2 C26_2 1_555 1_555
H21_2 C36_2 1_555 1_555
C37_2 C16_2 1_555 1_555
H22_2 C37_2 1_555 1_555
U2_2 O7 1_555 1_555
U2_3 O16 1_555 1_555
U2_4 O2_2 1_555 1_555
O11_2 U2_2 1_555 1_555
O12_2 U2_2 1_555 1_555
O13_2 U2 1_555 1_555
O14_2 C41_2 1_555 1_555
C39_2 C40_2 1_555 1_555
C40_2 C41_2 1_555 1_555
C41_2 O13_2 1_555 1_555
C42_2 C39_2 1_555 1_555
H24_2 C42_2 1_555 1_555
C44_2 C45_2 1_555 1_555
C45_2 H26_2 1_555 1_555
C46_2 C40_2 1_555 1_555
H27_2 C46_2 1_555 1_555
C47_2 C39_2 1_555 1_555
C48_2 C47_2 1_555 1_555
H28_2 C48_2 1_555 1_555
C49_2 C48_2 1_555 1_555
H29_2 C49_2 1_555 1_555
C50_2 C42_2 1_555 1_555
H30_2 C50_2 1_555 1_555
O15_2 C51_2 1_555 1_555
O15_3 U1_2 1_555 1_555
C51_2 C44_2 1_555 1_555
O16_2 U2_4 1_555 1_555
O16_3 U2 1_555 1_555
O16_4 U2_2 1_555 1_555
H31A N1A 1_555 1_555
O4 U2 1_555 1_555
C7 C27 1_555 1_555
C8 C17 1_555 1_555
C15 C25 1_555 1_555
C15 C28 1_555 1_555
N3 C43 1_555 1_555
C20 C29 1_555 1_555
C20 C32 1_555 1_555
C21 C30 1_555 1_555
C23 C30 1_555 1_555
C24 C38 1_555 1_555
C31 C34 1_555 1_555
C33 C36 1_555 1_555
C33 C37 1_555 1_555
O13 U2_2 1_555 1_555
C44 C47 1_555 1_555
C45 C46 1_555 1_555
C49 C50 1_555 1_555
O15 C51 1_555 1_555
O4_2 U2_4 1_555 1_555
O7_2 U2_3 1_555 1_555
C7A C27A 1_555 1_555
C8_2 C17_2 1_555 1_555
C14A C18A 1_555 1_555
C15_2 C25_2 1_555 1_555
C15_2 C28_2 1_555 1_555
C20_2 C29_2 1_555 1_555
C20_2 C32_2 1_555 1_555
C31_2 C34_2 1_555 1_555
C33_2 C36_2 1_555 1_555
C33_2 C37_2 1_555 1_555
C44_2 C47_2 1_555 1_555
C45_2 C46_2 1_555 1_555
C49_2 C50_2 1_555 1_555
C51_2 O16_2 1_555 1_555

#END
