
#######################################################################
#
#                 Cambridge Crystallographic Data Centre
#                                CCDC 
#
#######################################################################
#
# If this CIF has been generated from an entry in the Cambridge 
# Structural Database, then it will include bibliographic, chemical, 
# crystal, experimental, refinement or atomic coordinate data resulting 
# from the CCDC's data processing and validation procedures.
#
#######################################################################

data_IFEJUZ
_symmetry_cell_setting           triclinic
_symmetry_space_group_name_H-M   'P -1'
_symmetry_Int_Tables_number      2
_space_group_name_Hall           '-P 1'
loop_
_symmetry_equiv_pos_site_id
_symmetry_equiv_pos_as_xyz
1 x,y,z
2 -x,-y,-z
_cell_length_a                   14.161(3)
_cell_length_b                   15.122(3)
_cell_length_c                   18.212(4)
_cell_angle_alpha                85.73(3)
_cell_angle_beta                 76.99(3)
_cell_angle_gamma                67.32(3)
_cell_volume                     3505.69
loop_
_atom_site_label
_atom_site_type_symbol
_atom_site_fract_x
_atom_site_fract_y
_atom_site_fract_z
C1 C 0.4507(6) 0.8530(6) -0.2760(4)
C2 C 0.3648(5) 0.8210(5) -0.2340(4)
C3 C 0.3878(5) 0.7247(5) -0.2314(4)
H1 H 0.4524 0.6833 -0.2579
C4 C 0.3164(5) 0.6864(5) -0.1899(4)
H2 H 0.3340 0.6205 -0.1892
C5 C 0.2224(5) 0.7450(5) -0.1510(3)
C6 C 0.1913(5) 0.8467(5) -0.1551(4)
C7 C 0.2626(5) 0.8854(5) -0.1996(4)
C8 C 0.2266(7) 0.9864(6) -0.2093(5)
H3 H 0.2716 1.0131 -0.2385
C9 C 0.1275(7) 1.0445(6) -0.1765(6)
H4 H 0.1056 1.1104 -0.1827
C10 C 0.0572(7) 1.0049(7) -0.1327(6)
H5 H -0.0114 1.0450 -0.1125
C11 C 0.0882(6) 0.9111(6) -0.1201(5)
H6 H 0.0427 0.8870 -0.0884
C12 C 0.1549(5) 0.6988(5) -0.0991(4)
C13 C 0.8510(6) 1.2559(5) -0.1847(4)
C14 C 0.8000(5) 1.2160(5) -0.2325(3)
C15 C 0.7108(5) 1.2024(5) -0.1954(4)
H7 H 0.6818 1.2222 -0.1455
C16 C 0.6635(5) 1.1587(5) -0.2328(4)
H8 H 0.6017 1.1524 -0.2074
C17 C 0.8427(5) 1.1902(5) -0.3111(3)
C18 C 0.9329(5) 1.2082(5) -0.3518(4)
H9 H 0.9636 1.2392 -0.3282
C19 C 0.9733(6) 1.1790(5) -0.4264(4)
H10 H 1.0320 1.1901 -0.4528
C20 C 0.9267(6) 1.1326(6) -0.4629(4)
H11 H 0.9553 1.1125 -0.5129
C21 C 0.8411(6) 1.1175(6) -0.4254(4)
H12 H 0.8100 1.0887 -0.4507
C22 C 0.7965(5) 1.1440(5) -0.3483(3)
C23 C 0.7062(5) 1.1241(5) -0.3072(4)
C24 C 0.6666(6) 1.0583(5) -0.3346(4)
C25 C 0.9391(5) 0.5454(5) -0.7585(3)
C26 C 0.9078(5) 0.5966(5) -0.6843(3)
C27 C 0.8762(6) 0.6934(6) -0.6849(4)
H13 H 0.8850 0.7249 -0.7302
C28 C 0.8305(6) 0.7456(6) -0.6175(4)
H14 H 0.8078 0.8120 -0.6184
C29 C 0.8185(5) 0.7002(6) -0.5498(4)
C30 C 0.7580(6) 0.7655(6) -0.4809(4)
C31 C 0.8550(5) 0.6006(5) -0.5455(3)
C32 C 0.9011(5) 0.5438(5) -0.6149(3)
C33 C 0.9407(6) 0.4441(6) -0.6102(4)
H15 H 0.9717 0.4071 -0.6542
C34 C 0.9347(6) 0.3999(6) -0.5423(4)
H16 H 0.9632 0.3334 -0.5405
C35 C 0.8870(7) 0.4524(7) -0.4758(4)
H17 H 0.8791 0.4210 -0.4303
C36 C 0.8516(6) 0.5493(6) -0.4765(4)
H18 H 0.8244 0.5832 -0.4310
O1 O 0.5469(5) 0.9557(5) -0.4279(3)
O2 O 0.6985(5) 0.8419(5) -0.2952(3)
O3 O 0.4554(4) 0.9315(4) -0.2640(3)
O4 O 0.5226(4) 0.7938(4) -0.3241(3)
O5 O 0.1341(5) 0.7141(5) -0.0308(3)
O6 O 0.1293(6) 0.6440(5) -0.1292(3)
O7 O 0.9191(4) 0.4731(4) -0.7652(3)
O8 O 0.9822(4) 0.5786(4) -0.8181(2)
O9 O 0.7777(4) 0.8364(4) -0.4697(3)
O10 O 0.6883(5) 0.7456(5) -0.4353(4)
O11 O 0.8318(5) 1.2427(4) -0.1143(3)
O12 O 0.9068(4) 1.3004(4) -0.2133(3)
O13 O 0.7193(4) 1.0028(4) -0.3892(3)
O14 O 0.5805(4) 1.0538(4) -0.2992(3)
O15 O 0.1733(4) 0.4453(4) -0.1000(3)
O16 O -0.0795(4) 0.6241(4) -0.0989(3)
O17 O -0.0436(4) 0.7569(4) 0.0967(3)
O18 O 0.1970(4) 0.5604(4) 0.0845(3)
U1 U 0.62242(2) 0.89700(2) -0.361757(13)
U2 U 0.075665(18) 0.656947(18) 0.088939(12)
U3 U 0.044775(19) 0.533630(18) -0.094889(12)
O19 O 0.0258(4) 0.5677(3) 0.0264(2)
O7A O 0.0809(4) 0.5269(4) -0.2348(3)
O8_2 O -0.0178(4) 0.5786(4) 0.1819(2)
O8A O 0.0178(4) 0.4214(4) -0.1819(2)
O11A O 0.1682(5) 0.7573(4) 0.1143(3)
O12A O 0.0932(4) 0.6996(4) 0.2133(3)
U2_2 U 1.075665(18) 0.656947(18) -0.911061(12)
U2A U 0.924335(18) 1.343053(18) -0.088939(12)
U3A U 0.955225(19) 0.466370(18) -0.905111(12)
U3A_2 U -0.044775(19) 0.466370(18) 0.094889(12)
O19A O -0.0258(4) 0.4323(3) -0.0264(2)
C37 C 0.3584(7) 0.7954(8) -0.4304(7)
H19 H 0.4151 0.7383 -0.4449
C38 C 0.3710(8) 0.8788(8) -0.4530(6)
H20 H 0.4348 0.8789 -0.4806
C39 C 0.2870(9) 0.9618(8) -0.4338(5)
H21 H 0.2918 1.0203 -0.4488
C40 C 0.1936(9) 0.9584(7) -0.3912(5)
H22 H 0.1352 1.0147 -0.3779
C41 C 0.1883(6) 0.8709(6) -0.3689(4)
C42 C 0.0914(6) 0.8602(5) -0.3235(4)
C43 C 0.0020(9) 0.9391(7) -0.2980(6)
H23 H 0.0006 1.0005 -0.3096
C44 C -0.0866(9) 0.9266(9) -0.2549(7)
H24 H -0.1479 0.9794 -0.2385
C45 C -0.0827(8) 0.8385(9) -0.2372(6)
H25 H -0.1408 0.8287 -0.2081
C46 C 0.0098(8) 0.7615(7) -0.2631(5)
H26 H 0.0128 0.6999 -0.2504
C67 C 0.3275(7) 0.4402(7) -0.2804(6)
H43 H 0.3000 0.4778 -0.2367
C68 C 0.3634(9) 0.3441(8) -0.2724(7)
H44 H 0.3623 0.3165 -0.2250
C69 C 0.4021(8) 0.2882(7) -0.3374(8)
H45 H 0.4289 0.2217 -0.3345
C70 C 0.4006(7) 0.3325(7) -0.4071(7)
H46 H 0.4229 0.2963 -0.4513
C71 C 0.3652(6) 0.4310(6) -0.4094(5)
C72 C 0.3660(6) 0.4820(6) -0.4824(5)
C73 C 0.3987(8) 0.4347(8) -0.5528(7)
H47 H 0.4178 0.3686 -0.5548
C74 C 0.3346(9) 0.6245(8) -0.5446(6)
H48 H 0.3061 0.6911 -0.5416
C75 C 0.3720(9) 0.5851(10) -0.6129(6)
H49 H 0.3779 0.6219 -0.6556
C76 C 0.4025(10) 0.4851(9) -0.6179(7)
H50 H 0.4247 0.4541 -0.6646
N5 N 0.2698(5) 0.7900(5) -0.3885(5)
N6 N 0.0955(6) 0.7723(5) -0.3059(4)
N7 N 0.3282(5) 0.4850(5) -0.3456(4)
N8 N 0.3341(6) 0.5770(6) -0.4795(5)
Ag1 Ag 0.24583(6) 0.64487(5) -0.35347(5)
C47 C 0.2803(9) 0.9138(11) -0.0059(6)
H27 H 0.2586 0.8767 -0.0316
C48 C 0.2109(10) 1.0031(12) 0.0158(8)
H28 H 0.1447 1.0267 0.0045
C49 C 0.2414(10) 1.0577(10) 0.0550(7)
H29 H 0.1980 1.1203 0.0702
C50 C 0.3387(10) 1.0154(9) 0.0703(6)
H30 H 0.3596 1.0505 0.0985
C51 C 0.4085(7) 0.9243(7) 0.0471(4)
C52 C 0.5135(7) 0.8763(7) 0.0611(4)
C53 C 0.5467(10) 0.9173(9) 0.1116(5)
H31 H 0.5025 0.9742 0.1375
C54 C 0.6470(15) 0.8701(14) 0.1211(8)
H32 H 0.6708 0.8961 0.1543
C55 C 0.7122(12) 0.7885(13) 0.0849(10)
H33 H 0.7803 0.7572 0.0918
C56 C 0.6722(9) 0.7537(9) 0.0368(8)
H34 H 0.7152 0.6964 0.0112
C57 C 0.7057(8) 0.6820(8) -0.1835(6)
H35 H 0.7029 0.7405 -0.1684
C58 C 0.7881(8) 0.6299(10) -0.2387(6)
H36 H 0.8405 0.6525 -0.2604
C59 C 0.7919(7) 0.5455(9) -0.2607(5)
H37 H 0.8469 0.5098 -0.2987
C60 C 0.7140(7) 0.5105(7) -0.2271(4)
H38 H 0.7165 0.4517 -0.2413
C61 C 0.6317(6) 0.5685(7) -0.1708(4)
C62 C 0.5459(6) 0.5364(6) -0.1316(4)
C63 C 0.5373(7) 0.4542(7) -0.1526(5)
H39 H 0.5864 0.4162 -0.1924
C64 C 0.4550(8) 0.4288(7) -0.1142(5)
H40 H 0.4490 0.3735 -0.1278
C65 C 0.3831(7) 0.4857(7) -0.0563(5)
H41 H 0.3276 0.4701 -0.0296
C66 C 0.3954(6) 0.5663(6) -0.0387(4)
H42 H 0.3455 0.6060 -0.0001
N1 N 0.6275(6) 0.6514(6) -0.1496(4)
N2 N 0.4756(5) 0.5919(5) -0.0739(4)
N3 N 0.3770(6) 0.8744(6) 0.0065(4)
N4 N 0.5758(6) 0.7971(6) 0.0247(5)
Ag2 Ag 0.49336(6) 0.73050(6) -0.04676(4)
loop_
_geom_bond_atom_site_label_1
_geom_bond_atom_site_label_2
_geom_bond_site_symmetry_1
_geom_bond_site_symmetry_2
C1 C2 1_555 1_555
C2 C3 1_555 1_555
C3 H1 1_555 1_555
C4 C3 1_555 1_555
H2 C4 1_555 1_555
C5 C4 1_555 1_555
C6 C5 1_555 1_555
C7 C2 1_555 1_555
C8 C7 1_555 1_555
H3 C8 1_555 1_555
C9 C8 1_555 1_555
H4 C9 1_555 1_555
C10 C9 1_555 1_555
H5 C10 1_555 1_555
C11 C6 1_555 1_555
H6 C11 1_555 1_555
C12 C5 1_555 1_555
C13 C14 1_555 1_555
C14 C15 1_555 1_555
C15 H7 1_555 1_555
C16 C15 1_555 1_555
H8 C16 1_555 1_555
C17 C14 1_555 1_555
C18 C17 1_555 1_555
H9 C18 1_555 1_555
C19 C18 1_555 1_555
H10 C19 1_555 1_555
C20 C19 1_555 1_555
H11 C20 1_555 1_555
C21 C20 1_555 1_555
H12 C21 1_555 1_555
C22 C17 1_555 1_555
C23 C16 1_555 1_555
C24 C23 1_555 1_555
C25 C26 1_555 1_555
C26 C27 1_555 1_555
C27 H13 1_555 1_555
C28 C27 1_555 1_555
H14 C28 1_555 1_555
C29 C28 1_555 1_555
C30 C29 1_555 1_555
C31 C29 1_555 1_555
C32 C26 1_555 1_555
C33 C32 1_555 1_555
H15 C33 1_555 1_555
C34 C33 1_555 1_555
H16 C34 1_555 1_555
C35 C34 1_555 1_555
H17 C35 1_555 1_555
C36 C31 1_555 1_555
H18 C36 1_555 1_555
C37 H19 1_555 1_555
C38 C37 1_555 1_555
H20 C38 1_555 1_555
C39 C38 1_555 1_555
H21 C39 1_555 1_555
C40 C39 1_555 1_555
H22 C40 1_555 1_555
C41 C40 1_555 1_555
C42 C41 1_555 1_555
C43 C42 1_555 1_555
H23 C43 1_555 1_555
C44 C43 1_555 1_555
H24 C44 1_555 1_555
C45 C44 1_555 1_555
H25 C45 1_555 1_555
C46 C45 1_555 1_555
H26 C46 1_555 1_555
C47 H27 1_555 1_555
C48 C47 1_555 1_555
H28 C48 1_555 1_555
C49 C48 1_555 1_555
H29 C49 1_555 1_555
C50 C49 1_555 1_555
H30 C50 1_555 1_555
C51 C50 1_555 1_555
C52 C51 1_555 1_555
C53 C52 1_555 1_555
H31 C53 1_555 1_555
C54 C53 1_555 1_555
H32 C54 1_555 1_555
C55 C54 1_555 1_555
H33 C55 1_555 1_555
C56 C55 1_555 1_555
H34 C56 1_555 1_555
C57 H35 1_555 1_555
C58 C57 1_555 1_555
H36 C58 1_555 1_555
C59 C58 1_555 1_555
H37 C59 1_555 1_555
C60 C59 1_555 1_555
H38 C60 1_555 1_555
C61 C60 1_555 1_555
C62 C61 1_555 1_555
C63 C62 1_555 1_555
H39 C63 1_555 1_555
C64 C63 1_555 1_555
H40 C64 1_555 1_555
C65 C64 1_555 1_555
H41 C65 1_555 1_555
C66 C65 1_555 1_555
H42 C66 1_555 1_555
C67 H43 1_555 1_555
C68 C67 1_555 1_555
H44 C68 1_555 1_555
C69 C68 1_555 1_555
H45 C69 1_555 1_555
C70 C69 1_555 1_555
H46 C70 1_555 1_555
C71 C70 1_555 1_555
C72 C71 1_555 1_555
C73 C72 1_555 1_555
H47 C73 1_555 1_555
C74 H48 1_555 1_555
C75 C74 1_555 1_555
H49 C75 1_555 1_555
C76 C73 1_555 1_555
H50 C76 1_555 1_555
N1 C57 1_555 1_555
N2 C62 1_555 1_555
N3 C47 1_555 1_555
N4 C52 1_555 1_555
N5 C37 1_555 1_555
N6 C42 1_555 1_555
N7 C67 1_555 1_555
N8 C72 1_555 1_555
O1 U1 1_555 1_555
O2 U1 1_555 1_555
O3 C1 1_555 1_555
O4 C1 1_555 1_555
O5 C12 1_555 1_555
O6 C12 1_555 1_555
O7 C25 1_555 1_555
O8 C25 1_555 1_555
O9 C30 1_555 1_555
O10 C30 1_555 1_555
O11 C13 1_555 1_555
O12 C13 1_555 1_555
O13 C24 1_555 1_555
O14 C24 1_555 1_555
O15 U3 1_555 1_555
O16 U3 1_555 1_555
O17 U2 1_555 1_555
O18 U2 1_555 1_555
Ag1 N5 1_555 1_555
Ag2 N1 1_555 1_555
U1 O3 1_555 1_555
U2 O5 1_555 1_555
U3 O6 1_555 1_555
O19 U2 1_555 1_555
O7A U3 1_555 1_555
O8_2 U2 1_555 1_555
O8A U3 1_555 1_555
O11A U2 1_555 1_555
O12A U2 1_555 1_555
U2_2 O8 1_555 1_555
U2A O11 1_555 1_555
U3A O7 1_555 1_555
U3A_2 O19 1_555 1_555
O19A U3 1_555 1_555
C6 C7 1_555 1_555
C10 C11 1_555 1_555
C21 C22 1_555 1_555
C22 C23 1_555 1_555
C31 C32 1_555 1_555
C35 C36 1_555 1_555
C41 N5 1_555 1_555
C46 N6 1_555 1_555
C51 N3 1_555 1_555
C56 N4 1_555 1_555
C61 N1 1_555 1_555
C66 N2 1_555 1_555
C71 N7 1_555 1_555
C74 N8 1_555 1_555
C75 C76 1_555 1_555
N2 Ag2 1_555 1_555
N3 Ag2 1_555 1_555
N4 Ag2 1_555 1_555
N6 Ag1 1_555 1_555
N7 Ag1 1_555 1_555
N8 Ag1 1_555 1_555
O4 U1 1_555 1_555
O8 U3A 1_555 1_555
O9 U1 1_555 1_555
O10 U1 1_555 1_555
O12 U2A 1_555 1_555
O13 U1 1_555 1_555
O14 U1 1_555 1_555
U3 O19 1_555 1_555
O8_2 U3A_2 1_555 1_555
U3A_2 O19A 1_555 1_555

#END
