
#######################################################################
#
#                 Cambridge Crystallographic Data Centre
#                                CCDC 
#
#######################################################################
#
# If this CIF has been generated from an entry in the Cambridge 
# Structural Database, then it will include bibliographic, chemical, 
# crystal, experimental, refinement or atomic coordinate data resulting 
# from the CCDC's data processing and validation procedures.
#
#######################################################################

data_IFEKAG
_symmetry_cell_setting           monoclinic
_symmetry_space_group_name_H-M   'P 21/n'
_symmetry_Int_Tables_number      14
_space_group_name_Hall           '-P 2yn'
loop_
_symmetry_equiv_pos_site_id
_symmetry_equiv_pos_as_xyz
1 x,y,z
2 1/2-x,1/2+y,1/2-z
3 -x,-y,-z
4 1/2+x,1/2-y,1/2+z
_cell_length_a                   10.7976(18)
_cell_length_b                   31.501(6)
_cell_length_c                   11.590(2)
_cell_angle_alpha                90
_cell_angle_beta                 97.609(4)
_cell_angle_gamma                90
_cell_volume                     3907.46
loop_
_atom_site_label
_atom_site_type_symbol
_atom_site_fract_x
_atom_site_fract_y
_atom_site_fract_z
C1 C 0.7358(10) 0.0559(3) 0.0898(9)
C2 C 0.7250(9) 0.1035(3) 0.0996(8)
C3 C 0.7600(9) 0.1261(3) 0.2048(9)
C4 C 0.7905(11) 0.1052(4) 0.3144(9)
H1 H 0.7895 0.0757 0.3180
C5 C 0.8212(12) 0.1283(4) 0.4140(11)
H2 H 0.8426 0.1143 0.4845
C6 C 0.8209(15) 0.1725(4) 0.4113(11)
H3 H 0.8402 0.1877 0.4802
C7 C 0.7919(13) 0.1942(4) 0.3065(10)
H4 H 0.7938 0.2237 0.3049
C8 C 0.7597(10) 0.1711(3) 0.2031(9)
C9 C 0.7273(10) 0.1928(3) 0.0932(9)
C10 C 0.7443(10) 0.2386(4) 0.0787(10)
C11 C 0.6866(10) 0.1247(4) -0.0020(9)
H5 H 0.6590 0.1096 -0.0694
C12 C 1.0295(10) 0.3572(3) 0.1446(9)
C13 C 1.1616(10) 0.3718(4) 0.1834(8)
C14 C 1.2651(9) 0.3424(3) 0.2163(8)
C15 C 1.2514(10) 0.2986(3) 0.2071(9)
H6 H 1.1735 0.2876 0.1787
C16 C 1.3477(11) 0.2715(4) 0.2381(10)
H7 H 1.3356 0.2423 0.2328
C17 C 1.4651(11) 0.2882(4) 0.2780(11)
H8 H 1.5320 0.2700 0.2988
C18 C 1.3839(9) 0.3597(3) 0.2584(9)
C19 C 1.3982(9) 0.4041(3) 0.2688(8)
C20 C 1.2998(11) 0.4310(3) 0.2375(9)
H9 H 1.3107 0.4601 0.2460
C21 C 1.1823(10) 0.4145(3) 0.1924(9)
H10 H 1.1172 0.4331 0.1682
C22 C 0.6462(9) 0.4102(3) -0.1309(9)
C23 C 0.5969(10) 0.4504(4) -0.1561(10)
H11 H 0.5501 0.4559 -0.2279
C24 C 0.6178(12) 0.4820(4) -0.0742(11)
H12 H 0.5852 0.5090 -0.0895
C25 C 0.6888(12) 0.4729(4) 0.0325(11)
H13 H 0.7027 0.4935 0.0903
C26 C 0.6206(9) 0.3742(3) -0.2089(9)
C27 C 0.5732(10) 0.3789(4) -0.3282(9)
H14 H 0.5585 0.4058 -0.3606
C28 C 0.5493(10) 0.3427(4) -0.3956(10)
H15 H 0.5210 0.3450 -0.4747
C29 C 0.5673(11) 0.3037(4) -0.3458(10)
H16 H 0.5502 0.2792 -0.3895
C30 C 0.6117(11) 0.3015(4) -0.2285(10)
H17 H 0.6217 0.2747 -0.1945
C31 C 0.5659(10) -0.0123(4) -0.1999(9)
H18 H 0.5781 0.0147 -0.1675
C32 C 0.5102(11) -0.0150(4) -0.3144(10)
H19 H 0.4828 0.0089 -0.3573
C33 C 0.4978(11) -0.0550(4) -0.3609(10)
H20 H 0.4638 -0.0586 -0.4383
C34 C 0.5352(10) -0.0901(4) -0.2938(9)
H21 H 0.5270 -0.1172 -0.3254
C35 C 0.5856(9) -0.0841(3) -0.1780(9)
C36 C 0.6796(11) -0.1375(4) 0.0934(10)
H22 H 0.7133 -0.1293 0.1680
C37 C 0.6439(12) -0.1804(4) 0.0742(11)
H23 H 0.6526 -0.2000 0.1348
C38 C 0.5954(12) -0.1924(4) -0.0386(11)
H24 H 0.5737 -0.2204 -0.0566
C39 C 0.5807(11) -0.1610(4) -0.1227(10)
H25 H 0.5466 -0.1680 -0.1982
C40 C 0.6152(9) -0.1196(3) -0.0977(9)
C41 C 0.6889(10) 0.1690(4) -0.0047(10)
H26 H 0.6636 0.1829 -0.0747
C42 C 1.4829(10) 0.3301(4) 0.2870(10)
H27 H 1.5626 0.3403 0.3127
C43 C 0.7372(11) 0.4334(4) 0.0498(10)
H28 H 0.7862 0.4278 0.1204
N1 N 0.6022(8) -0.0443(3) -0.1351(8)
N2 N 0.6672(8) -0.1084(3) 0.0095(7)
N3 N 0.7188(8) 0.4010(3) -0.0293(7)
N4 N 0.6406(9) 0.3347(3) -0.1618(8)
O1 O 0.6574(7) 0.0343(2) 0.0190(7)
O2 O 0.8226(8) 0.0360(2) 0.1497(8)
O3 O 0.6725(7) 0.2599(2) 0.0014(7)
O4 O 0.8337(8) 0.2584(2) 0.1378(8)
O5 O 0.9610(7) 0.3812(2) 0.0759(7)
O6 O 0.8562(8) -0.0231(2) -0.0536(6)
O7 O 0.6757(7) -0.0423(3) 0.1754(7)
O8 O 0.7078(8) 0.3400(3) 0.1436(7)
O9 O 0.8914(7) 0.3104(3) -0.0749(7)
O10 O 0.9909(7) 0.3222(3) 0.1728(7)
U1 U 0.79871(3) 0.325587(12) 0.03240(3)
U2 U 0.76598(4) -0.033351(12) 0.06073(3)
O11 O 1.5914(7) 0.4061(2) 0.3966(7)
O12 O 1.5430(7) 0.4631(2) 0.2920(7)
C44 C 1.5189(10) 0.4257(3) 0.3190(9)
U2A U 1.73402(4) 0.466649(12) 0.43927(3)
O11A O 0.9086(7) -0.0939(2) 0.1034(7)
O12A O 0.9570(7) -0.0369(2) 0.2080(7)
loop_
_geom_bond_atom_site_label_1
_geom_bond_atom_site_label_2
_geom_bond_site_symmetry_1
_geom_bond_site_symmetry_2
C1 C2 1_555 1_555
C2 C3 1_555 1_555
C3 C4 1_555 1_555
C4 H1 1_555 1_555
C5 C4 1_555 1_555
H2 C5 1_555 1_555
C6 C5 1_555 1_555
H3 C6 1_555 1_555
C7 C6 1_555 1_555
H4 C7 1_555 1_555
C8 C3 1_555 1_555
C9 C8 1_555 1_555
C10 C9 1_555 1_555
C11 C2 1_555 1_555
H5 C11 1_555 1_555
C12 C13 1_555 1_555
C13 C14 1_555 1_555
C14 C15 1_555 1_555
C15 H6 1_555 1_555
C16 C15 1_555 1_555
H7 C16 1_555 1_555
C17 C16 1_555 1_555
H8 C17 1_555 1_555
C18 C14 1_555 1_555
C19 C18 1_555 1_555
C20 C19 1_555 1_555
H9 C20 1_555 1_555
C21 C13 1_555 1_555
H10 C21 1_555 1_555
C22 C23 1_555 1_555
C23 H11 1_555 1_555
C24 C23 1_555 1_555
H12 C24 1_555 1_555
C25 C24 1_555 1_555
H13 C25 1_555 1_555
C26 C22 1_555 1_555
C27 C26 1_555 1_555
H14 C27 1_555 1_555
C28 C27 1_555 1_555
H15 C28 1_555 1_555
C29 C28 1_555 1_555
H16 C29 1_555 1_555
C30 C29 1_555 1_555
H17 C30 1_555 1_555
C31 H18 1_555 1_555
C32 C31 1_555 1_555
H19 C32 1_555 1_555
C33 C32 1_555 1_555
H20 C33 1_555 1_555
C34 C33 1_555 1_555
H21 C34 1_555 1_555
C35 C34 1_555 1_555
C36 H22 1_555 1_555
C37 C36 1_555 1_555
H23 C37 1_555 1_555
C38 C37 1_555 1_555
H24 C38 1_555 1_555
C39 C38 1_555 1_555
H25 C39 1_555 1_555
C40 C35 1_555 1_555
C41 C9 1_555 1_555
H26 C41 1_555 1_555
C42 C17 1_555 1_555
H27 C42 1_555 1_555
C43 C25 1_555 1_555
H28 C43 1_555 1_555
N1 C31 1_555 1_555
N2 C36 1_555 1_555
N3 C22 1_555 1_555
N4 C26 1_555 1_555
O1 C1 1_555 1_555
O2 C1 1_555 1_555
O3 C10 1_555 1_555
O4 C10 1_555 1_555
O5 C12 1_555 1_555
O6 U2 1_555 1_555
O7 U2 1_555 1_555
O8 U1 1_555 1_555
O9 U1 1_555 1_555
O10 C12 1_555 1_555
U1 N3 1_555 1_555
U2 N1 1_555 1_555
O11 C44 1_555 1_555
O12 C44 1_555 1_555
C44 C19 1_555 1_555
U2A O11 1_555 1_555
O11A U2 1_555 1_555
O12A U2 1_555 1_555
C7 C8 1_555 1_555
C11 C41 1_555 1_555
C18 C42 1_555 1_555
C20 C21 1_555 1_555
C30 N4 1_555 1_555
C35 N1 1_555 1_555
C39 C40 1_555 1_555
C40 N2 1_555 1_555
C43 N3 1_555 1_555
N2 U2 1_555 1_555
N4 U1 1_555 1_555
O1 U2 1_555 1_555
O2 U2 1_555 1_555
O3 U1 1_555 1_555
O4 U1 1_555 1_555
O5 U1 1_555 1_555
O10 U1 1_555 1_555
O12 U2A 1_555 1_555

#END
