
#######################################################################
#
#                 Cambridge Crystallographic Data Centre
#                                CCDC 
#
#######################################################################
#
# If this CIF has been generated from an entry in the Cambridge 
# Structural Database, then it will include bibliographic, chemical, 
# crystal, experimental, refinement or atomic coordinate data resulting 
# from the CCDC's data processing and validation procedures.
#
#######################################################################

data_IFEKIO
_symmetry_cell_setting           monoclinic
_symmetry_space_group_name_H-M   'P 21/c'
_symmetry_Int_Tables_number      14
_space_group_name_Hall           '-P 2ybc'
loop_
_symmetry_equiv_pos_site_id
_symmetry_equiv_pos_as_xyz
1 x,y,z
2 -x,1/2+y,1/2-z
3 -x,-y,-z
4 x,1/2-y,1/2+z
_cell_length_a                   9.326(3)
_cell_length_b                   7.865(2)
_cell_length_c                   13.129(4)
_cell_angle_alpha                90
_cell_angle_beta                 105.137(3)
_cell_angle_gamma                90
_cell_volume                     929.587
loop_
_atom_site_label
_atom_site_type_symbol
_atom_site_fract_x
_atom_site_fract_y
_atom_site_fract_z
Cd1 Cd 0.156750(17) -0.20364(2) -0.483080(11)
Cd2 Cd 0.5000 0.0000 0.0000
N1 N 0.1839(2) -0.1451(3) -0.30583(14)
N2 N 0.0021(2) -0.3291(3) -0.26369(16)
H1 H -0.0272 -0.3848 -0.2165
H2 H -0.0466 -0.3363 -0.3289
N3 N 0.3997(2) 0.0348(3) -0.27971(16)
H3 H 0.4760 0.0793 -0.2365
H4 H 0.3816 0.0557 -0.3462
C1 C 0.3066(2) -0.0695(3) -0.24256(17)
C2 C 0.1271(2) -0.2281(3) -0.23483(17)
N4 N 0.3279(2) -0.1065(3) -0.14189(15)
N5 N 0.2076(2) -0.2107(3) -0.13602(15)
F1 F 0.40086(15) -0.19489(17) 0.09257(11)
N6 N 0.9021(2) -0.2968(2) -0.03072(16)
C3 C 0.8093(2) -0.1679(3) -0.04659(18)
N7 N 0.8310(2) -0.0188(3) -0.09685(17)
H5 H 0.9088 -0.0068 -0.1197
H6 H 0.7666 0.0618 -0.1052
N8 N 0.8410(2) -0.4182(3) 0.02664(15)
C4 C 0.7183(2) -0.3458(3) 0.03956(18)
N9 N 0.6330(3) -0.4163(3) 0.0972(2)
H7 H 0.6573 -0.5128 0.1277
H8 H 0.5544 -0.3647 0.1033
N10 N 0.6904(2) -0.1905(2) -0.00696(16)
Cd1B Cd 0.843250(17) 0.20364(2) 0.483080(11)
Cd1C Cd 0.156750(17) -0.29636(2) 0.016920(11)
Cd1C_2 Cd 1.156750(17) -0.29636(2) 0.016920(11)
Cd1A Cd 0.843250(17) 0.29636(2) -0.016920(11)
Cd1A_2 Cd 0.843250(17) -0.70364(2) -0.016920(11)
Cd1A_3 Cd -0.156750(17) 0.29636(2) -0.016920(11)
Cd1C_3 Cd 0.156750(17) 0.70364(2) 0.016920(11)
N1B N 0.8161(2) 0.1451(3) 0.30583(14)
N2B N 0.9979(2) 0.3291(3) 0.26369(16)
H1B H 1.0272 0.3848 0.2165
H2B H 1.0466 0.3363 0.3289
N3B N 0.6003(2) -0.0348(3) 0.27971(16)
H3B H 0.5240 -0.0793 0.2365
H4B H 0.6184 -0.0557 0.3462
C1B C 0.6934(2) 0.0695(3) 0.24256(17)
C2B C 0.8729(2) 0.2281(3) 0.23483(17)
N4B N 0.6721(2) 0.1065(3) 0.14189(15)
N5B N 0.7924(2) 0.2107(3) 0.13602(15)
N5C N 0.2076(2) -0.2893(3) -0.63602(15)
N5A N 0.7924(2) 0.2893(3) 0.63602(15)
F1B F 0.59914(15) 0.19489(17) -0.09257(11)
F1C F 0.40086(15) -0.30511(17) -0.40743(11)
F1A F 0.59914(15) 0.30511(17) 0.40743(11)
N6B N 0.0979(2) 0.2968(2) 0.03072(16)
N6C N -0.0979(2) -0.2032(2) -0.53072(16)
N6A N 1.0979(2) 0.2032(2) 0.53072(16)
C3B C 0.1907(2) 0.1679(3) 0.04659(18)
N7B N 0.1690(2) 0.0188(3) 0.09685(17)
N7A N 0.1690(2) -0.5188(3) -0.40315(17)
N7C N 0.8310(2) 0.5188(3) 0.40315(17)
H5B H 0.0912 0.0068 0.1197
H5A H 0.0912 -0.5068 -0.3803
H5C H 0.9088 0.5068 0.3803
H6B H 0.2334 -0.0618 0.1052
H6A H 0.2334 -0.4382 -0.3948
H6C H 0.7666 0.4382 0.3948
N8B N 0.1590(2) 0.4182(3) -0.02664(15)
N8A N 0.1590(2) 0.0818(3) -0.52664(15)
N8C N 0.8410(2) -0.0818(3) 0.52664(15)
C4B C 0.2817(2) 0.3458(3) -0.03956(18)
N9B N 0.3670(3) 0.4163(3) -0.0972(2)
H7B H 0.3427 0.5128 -0.1277
H8B H 0.4456 0.3647 -0.1033
N10B N 0.3096(2) 0.1905(2) 0.00696(16)
loop_
_geom_bond_atom_site_label_1
_geom_bond_atom_site_label_2
_geom_bond_site_symmetry_1
_geom_bond_site_symmetry_2
Cd1 N1 1_555 1_555
Cd2 N4 1_555 1_555
N1 C1 1_555 1_555
N2 H1 1_555 1_555
H2 N2 1_555 1_555
N3 H3 1_555 1_555
H4 N3 1_555 1_555
C1 N3 1_555 1_555
C2 N1 1_555 1_555
N4 C1 1_555 1_555
N5 C2 1_555 1_555
F1 Cd2 1_555 1_555
N6 C3 1_555 1_555
C3 N7 1_555 1_555
N7 H5 1_555 1_555
H6 N7 1_555 1_555
N8 N6 1_555 1_555
C4 N8 1_555 1_555
N9 C4 1_555 1_555
H7 N9 1_555 1_555
H8 N9 1_555 1_555
N10 Cd2 1_555 1_555
Cd1B N1B 1_555 1_555
Cd1C N5 1_555 1_555
Cd1C_2 N6 1_555 1_555
Cd1A N7 1_555 1_555
Cd1A_2 N8 1_555 1_555
Cd1A_3 N6B 1_555 1_555
Cd1C_3 N8B 1_555 1_555
N1B C1B 1_555 1_555
N2B H1B 1_555 1_555
H2B N2B 1_555 1_555
N3B H3B 1_555 1_555
H4B N3B 1_555 1_555
C1B N3B 1_555 1_555
C2B N1B 1_555 1_555
N4B Cd2 1_555 1_555
N5B Cd1A 1_555 1_555
N5C Cd1 1_555 1_555
N5A Cd1B 1_555 1_555
F1B Cd2 1_555 1_555
F1C Cd1 1_555 1_555
F1A Cd1B 1_555 1_555
N6B C3B 1_555 1_555
N6C Cd1 1_555 1_555
N6A Cd1B 1_555 1_555
C3B N7B 1_555 1_555
N7B Cd1C 1_555 1_555
N7A Cd1 1_555 1_555
N7C Cd1B 1_555 1_555
H5B N7B 1_555 1_555
H5A N7A 1_555 1_555
H5C N7C 1_555 1_555
H6B N7B 1_555 1_555
H6A N7A 1_555 1_555
H6C N7C 1_555 1_555
N8B N6B 1_555 1_555
N8A Cd1 1_555 1_555
N8C Cd1B 1_555 1_555
C4B N8B 1_555 1_555
N9B C4B 1_555 1_555
H7B N9B 1_555 1_555
H8B N9B 1_555 1_555
N10B Cd2 1_555 1_555
N2 C2 1_555 1_555
N4 N5 1_555 1_555
F1 Cd1C 1_555 1_555
C3 N10 1_555 1_555
C4 N10 1_555 1_555
Cd1A F1B 1_555 1_555
N2B C2B 1_555 1_555
C1B N4B 1_555 1_555
C2B N5B 1_555 1_555
N4B N5B 1_555 1_555
C3B N10B 1_555 1_555
C4B N10B 1_555 1_555

#END
