
#######################################################################
#
#                 Cambridge Crystallographic Data Centre
#                                CCDC 
#
#######################################################################
#
# If this CIF has been generated from an entry in the Cambridge 
# Structural Database, then it will include bibliographic, chemical, 
# crystal, experimental, refinement or atomic coordinate data resulting 
# from the CCDC's data processing and validation procedures.
#
#######################################################################

data_IFELAH
_symmetry_cell_setting           monoclinic
_symmetry_space_group_name_H-M   'C 2'
_symmetry_Int_Tables_number      5
_space_group_name_Hall           'C 2y'
loop_
_symmetry_equiv_pos_site_id
_symmetry_equiv_pos_as_xyz
1 x,y,z
2 -x,y,-z
3 1/2+x,1/2+y,z
4 1/2-x,1/2+y,-z
_cell_length_a                   12.577(7)
_cell_length_b                   15.320(7)
_cell_length_c                   8.170(4)
_cell_angle_alpha                90
_cell_angle_beta                 116.062(6)
_cell_angle_gamma                90
_cell_volume                     1414.13
loop_
_atom_site_label
_atom_site_type_symbol
_atom_site_fract_x
_atom_site_fract_y
_atom_site_fract_z
Cd1 Cd -0.5000 0.22973(3) 0.0000
Cd2 Cd -0.49795(3) 0.63863(3) 0.25503(4)
O1 O -0.4863(5) 0.1541(5) 0.2379(7)
C1 C -0.4970(4) 0.4300(3) 0.1309(7)
C2 C -0.2431(4) 0.2428(4) -0.0311(6)
C3 C -0.2391(4) 0.2533(3) -0.2844(7)
C4 C -0.2536(4) 0.5354(4) 0.5371(6)
C5 C -0.2551(4) 0.5297(3) 0.7900(6)
C6 C -0.5067(4) 0.8498(3) 0.3673(6)
N1 N -0.5000 0.3747(3) 0.0000
N2 N -0.4988(3) 0.5132(3) 0.0868(5)
N3 N -0.4895(3) 0.4014(3) 0.2976(6)
H1 H -0.4857 0.4388 0.3786
H2 H -0.4887 0.3465 0.3195
N4 N -0.3065(3) 0.2772(3) -0.1991(5)
N5 N -0.1478(3) 0.1992(2) -0.0132(5)
N6 N -0.1453(3) 0.2065(2) -0.1814(4)
N7 N -0.2823(4) 0.2479(3) 0.1062(6)
N8 N -0.2711(4) 0.2725(4) -0.4649(6)
N9 N -0.2195(4) 0.5162(3) 0.9752(6)
N10 N -0.2204(5) 0.5218(4) 0.3979(7)
N11 N -0.3499(3) 0.5765(2) 0.5136(5)
N12 N -0.3512(3) 0.5737(2) 0.6855(5)
N13 N -0.1891(3) 0.5039(3) 0.7064(5)
N14 N -0.5035(3) 0.7663(2) 0.4123(4)
N15 N -0.5000 0.9059(4) 0.5000
N16 N -0.5152(3) 0.8784(3) 0.2016(5)
H3 H -0.5186 0.8411 0.1206
H4 H -0.5169 0.9334 0.1795
H5 H -0.184(5) 0.468(4) 1.009(6)
H6 H -0.251(5) 0.558(4) 0.305(8)
H7 H -0.263(5) 0.556(4) 1.030(7)
H8 H -0.323(6) 0.306(4) -0.526(8)
H9 H -0.221(5) 0.270(4) -0.494(8)
H10 H -0.160(6) 0.492(4) 0.417(7)
H11 H -0.271(5) 0.314(4) 0.151(8)
H12 H -0.231(6) 0.234(7) 0.215(10)
H13 H -0.550(4) 0.179(4) 0.238(10)
H14 H -0.425(4) 0.163(5) 0.343(5)
Cd2A Cd -0.50205(3) 0.63863(3) -0.25503(4)
Cd2B Cd 0.00205(3) 0.13863(3) 0.25503(4)
Cd2C Cd -0.00205(3) 0.13863(3) -0.25503(4)
Cd2A_2 Cd -0.50205(3) 0.63863(3) 0.74497(4)
Cd2C_2 Cd -1.00205(3) 0.13863(3) -0.25503(4)
Cd2B_2 Cd -0.99795(3) 0.13863(3) 0.25503(4)
O1A O -0.5137(5) 0.1541(5) -0.2379(7)
C1A C -0.5030(4) 0.4300(3) -0.1309(7)
C2A C -0.7569(4) 0.2428(4) 0.0311(6)
C3A C -0.7609(4) 0.2533(3) 0.2844(7)
C4A C -0.7464(4) 0.5354(4) 0.4629(6)
C5A C -0.7449(4) 0.5297(3) 0.2100(6)
C6A C -0.4933(4) 0.8498(3) 0.6327(6)
N2A N -0.5012(3) 0.5132(3) -0.0868(5)
N3A N -0.5105(3) 0.4014(3) -0.2976(6)
H1A H -0.5143 0.4388 -0.3786
H2A H -0.5113 0.3465 -0.3195
N4A N -0.6935(3) 0.2772(3) 0.1991(5)
N5A N -0.8522(3) 0.1992(2) 0.0132(5)
N5B N -0.6478(3) 0.6992(2) -0.0132(5)
N5C N -0.3522(3) 0.6992(2) 0.0132(5)
N6A N -0.8547(3) 0.2065(2) 0.1814(4)
N6C N -0.3547(3) 0.7065(2) 0.1814(4)
N6B N -0.6453(3) 0.7065(2) -0.1814(4)
N7A N -0.7177(4) 0.2479(3) -0.1062(6)
N8A N -0.7289(4) 0.2725(4) 0.4649(6)
N9A N -0.7805(4) 0.5162(3) 0.0248(6)
N10A N -0.7796(5) 0.5218(4) 0.6021(7)
N11A N -0.6501(3) 0.5765(2) 0.4864(5)
N11A_2 N -0.6501(3) 0.5765(2) -0.5136(5)
N12A N -0.6488(3) 0.5737(2) 0.3145(5)
N12_2 N -0.3512(3) 0.5737(2) -0.3145(5)
N13A N -0.8109(3) 0.5039(3) 0.2936(5)
N14A N -0.4965(3) 0.7663(2) 0.5877(4)
N14A_2 N -0.4965(3) 0.7663(2) -0.4123(4)
N16A N -0.4848(3) 0.8784(3) 0.7984(5)
H3A H -0.4814 0.8411 0.8794
H4A H -0.4831 0.9334 0.8205
H5A H -0.816(5) 0.468(4) -0.009(6)
H6A H -0.749(5) 0.558(4) 0.695(8)
H7A H -0.737(5) 0.556(4) -0.030(7)
H8A H -0.677(6) 0.306(4) 0.526(8)
H9A H -0.779(5) 0.270(4) 0.494(8)
H10A H -0.840(6) 0.492(4) 0.583(7)
H11A H -0.729(5) 0.314(4) -0.151(8)
H12A H -0.769(6) 0.234(7) -0.215(10)
H13A H -0.450(4) 0.179(4) -0.238(10)
H14A H -0.575(4) 0.163(5) -0.343(5)
loop_
_geom_bond_atom_site_label_1
_geom_bond_atom_site_label_2
_geom_bond_site_symmetry_1
_geom_bond_site_symmetry_2
Cd1 O1 1_555 1_555
Cd2 N2 1_555 1_555
O1 H13 1_555 1_555
C1 N1 1_555 1_555
C2 N4 1_555 1_555
C3 N4 1_555 1_555
C4 N10 1_555 1_555
C5 N9 1_555 1_555
C6 N14 1_555 1_555
N1 Cd1 1_555 1_555
N2 C1 1_555 1_555
N3 C1 1_555 1_555
H1 N3 1_555 1_555
H2 N3 1_555 1_555
N5 C2 1_555 1_555
N6 C3 1_555 1_555
N7 Cd1 1_555 1_555
N8 C3 1_555 1_555
N9 H5 1_555 1_555
N10 H6 1_555 1_555
N11 Cd2 1_555 1_555
N12 C5 1_555 1_555
N13 C4 1_555 1_555
N14 Cd2 1_555 1_555
N15 C6 1_555 1_555
N16 C6 1_555 1_555
H3 N16 1_555 1_555
H4 N16 1_555 1_555
H7 N9 1_555 1_555
H8 N8 1_555 1_555
H9 N8 1_555 1_555
H10 N10 1_555 1_555
H11 N7 1_555 1_555
H12 N7 1_555 1_555
H14 O1 1_555 1_555
Cd2A N2A 1_555 1_555
Cd2B N5 1_555 1_555
Cd2C N6 1_555 1_555
Cd2A_2 N12 1_555 1_555
Cd2C_2 N5A 1_555 1_555
Cd2B_2 N6A 1_555 1_555
O1A Cd1 1_555 1_555
C1A N1 1_555 1_555
C2A N4A 1_555 1_555
C3A N4A 1_555 1_555
C4A N10A 1_555 1_555
C5A N9A 1_555 1_555
C6A N15 1_555 1_555
N2A N2 1_555 1_555
N3A C1A 1_555 1_555
H1A N3A 1_555 1_555
H2A N3A 1_555 1_555
N5A C2A 1_555 1_555
N5B Cd2 1_555 1_555
N5C Cd2A 1_555 1_555
N6A C3A 1_555 1_555
N6C Cd2 1_555 1_555
N6B Cd2A 1_555 1_555
N7A Cd1 1_555 1_555
N8A C3A 1_555 1_555
N9A H5A 1_555 1_555
N10A H6A 1_555 1_555
N11A Cd2A_2 1_555 1_555
N11A_2 Cd2A 1_555 1_555
N12A Cd2 1_555 1_555
N12_2 Cd2A 1_555 1_555
N13A C4A 1_555 1_555
N14A N14 1_555 1_555
N14A_2 Cd2A 1_555 1_555
N16A C6A 1_555 1_555
H3A N16A 1_555 1_555
H4A N16A 1_555 1_555
H7A N9A 1_555 1_555
H8A N8A 1_555 1_555
H9A N8A 1_555 1_555
H10A N10A 1_555 1_555
H11A N7A 1_555 1_555
H12A N7A 1_555 1_555
H13A O1A 1_555 1_555
H14A O1A 1_555 1_555
C2 N7 1_555 1_555
C4 N11 1_555 1_555
C5 N13 1_555 1_555
N5 N6 1_555 1_555
N11 N12 1_555 1_555
Cd2A_2 N14A 1_555 1_555
C1A N2A 1_555 1_555
C2A N7A 1_555 1_555
C4A N11A 1_555 1_555
C5A N12A 1_555 1_555
C5A N13A 1_555 1_555
C6A N14A 1_555 1_555
N5A N6A 1_555 1_555
N5B N6B 1_555 1_555
N5C N6C 1_555 1_555
N11A N12A 1_555 1_555

#END
