
#######################################################################
#
#                 Cambridge Crystallographic Data Centre
#                                CCDC 
#
#######################################################################
#
# If this CIF has been generated from an entry in the Cambridge 
# Structural Database, then it will include bibliographic, chemical, 
# crystal, experimental, refinement or atomic coordinate data resulting 
# from the CCDC's data processing and validation procedures.
#
#######################################################################

data_IFELOV
_symmetry_cell_setting           monoclinic
_symmetry_space_group_name_H-M   'P 21/c'
_symmetry_Int_Tables_number      14
_space_group_name_Hall           '-P 2ybc'
loop_
_symmetry_equiv_pos_site_id
_symmetry_equiv_pos_as_xyz
1 x,y,z
2 -x,1/2+y,1/2-z
3 -x,-y,-z
4 x,1/2-y,1/2+z
_cell_length_a                   10.648(9)
_cell_length_b                   8.503(7)
_cell_length_c                   17.185(15)
_cell_angle_alpha                90
_cell_angle_beta                 95.360(13)
_cell_angle_gamma                90
_cell_volume                     1549.13
loop_
_atom_site_label
_atom_site_type_symbol
_atom_site_fract_x
_atom_site_fract_y
_atom_site_fract_z
Cd1 Cd 0.81940(3) 0.14725(4) 0.05498(2)
Cd2 Cd 0.66214(3) 0.43100(4) -0.08734(2)
Cd3 Cd 0.63136(3) 0.76649(4) 0.05858(2)
S1 S 0.58950(11) 0.37539(12) 0.10566(7)
S2 S 0.65155(11) 0.04892(13) -0.08739(7)
O1 O 0.6870(3) 0.3671(4) 0.0463(2)
O2 O 0.5841(4) 0.5472(4) 0.1290(2)
O3 O 0.4602(3) 0.3518(4) 0.0591(2)
O4 O 0.5639(3) 0.1907(4) -0.1003(2)
O5 O 0.6487(3) 0.0041(4) -0.0015(2)
O6 O 0.7807(3) 0.1281(5) -0.0863(2)
N1 N 0.9951(4) 0.2669(4) 0.0307(3)
N2 N 1.1819(4) 0.3056(4) -0.0131(2)
N3 N 1.1695(4) 0.4110(4) 0.0489(2)
N4 N 1.0523(4) 0.1085(4) -0.0766(2)
H1 H 1.1085 0.0853 -0.1076
H2 H 0.9816 0.0589 -0.0800
N5 N 1.0064(4) 0.4509(5) 0.1339(3)
H3 H 1.0485 0.5209 0.1614
H4 H 0.9322 0.4245 0.1451
N6 N 0.7070(4) 0.0247(5) 0.2870(2)
N7 N 0.7643(4) 0.0610(4) 0.1671(2)
N8 N 0.7089(4) -0.0891(4) 0.1699(2)
N9 N 0.8184(6) 0.2585(5) 0.2606(3)
H5 H 0.8591 0.3114 0.2285
H6 H 0.8138 0.2926 0.3073
N10 N 0.6325(6) -0.2389(5) 0.2701(3)
H7 H 0.6223 -0.3205 0.2407
H8 H 0.6137 -0.2427 0.3177
C1 C 1.0757(4) 0.2251(5) -0.0215(3)
C2 C 1.0577(4) 0.3808(5) 0.0718(3)
C3 C 0.7613(4) 0.1204(5) 0.2374(3)
C4 C 0.6785(5) -0.1033(5) 0.2414(3)
Cd2B Cd 0.33786(3) 0.56900(4) 0.08734(2)
Cd2B_2 Cd 1.33786(3) 0.56900(4) 0.08734(2)
Cd2C Cd 0.66214(3) 0.06900(4) 0.41266(2)
Cd3B Cd 0.36864(3) 0.23351(4) -0.05858(2)
Cd3_2 Cd 0.63136(3) -0.23351(4) 0.05858(2)
Cd3B_2 Cd 1.36864(3) 0.23351(4) -0.05858(2)
O3B O 0.5398(3) 0.6482(4) -0.0591(2)
O4B O 0.4361(3) 0.8093(4) 0.1003(2)
O5_2 O 0.6487(3) 1.0041(4) -0.0015(2)
N2B N 0.8181(4) 0.6944(4) 0.0131(2)
N3B N 0.8305(4) 0.5890(4) -0.0489(2)
N6C N 0.7070(4) 0.4753(5) -0.2130(2)
N8_2 N 0.7089(4) 0.9109(4) 0.1699(2)
O7 O 0.9022(9) 0.6141(9) 0.2753(5)
H9 H 0.923(12) 0.707(6) 0.263(6)
H10 H 0.866(12) 0.581(12) 0.234(4)
loop_
_geom_bond_atom_site_label_1
_geom_bond_atom_site_label_2
_geom_bond_site_symmetry_1
_geom_bond_site_symmetry_2
Cd1 O1 1_555 1_555
Cd2 O1 1_555 1_555
Cd3 O2 1_555 1_555
S1 O1 1_555 1_555
S2 O4 1_555 1_555
O2 S1 1_555 1_555
O3 S1 1_555 1_555
O4 Cd2 1_555 1_555
O5 Cd1 1_555 1_555
O6 Cd1 1_555 1_555
N1 Cd1 1_555 1_555
N2 N3 1_555 1_555
N3 C2 1_555 1_555
N4 H1 1_555 1_555
H2 N4 1_555 1_555
N5 H3 1_555 1_555
H4 N5 1_555 1_555
N6 C3 1_555 1_555
N7 Cd1 1_555 1_555
N8 N7 1_555 1_555
N9 H5 1_555 1_555
H6 N9 1_555 1_555
N10 H7 1_555 1_555
H8 N10 1_555 1_555
C1 N1 1_555 1_555
C2 N1 1_555 1_555
C3 N7 1_555 1_555
C4 N6 1_555 1_555
O7 H9 1_555 1_555
H10 O7 1_555 1_555
Cd2B O3 1_555 1_555
Cd2B_2 N3 1_555 1_555
Cd2C N6 1_555 1_555
Cd3B O3 1_555 1_555
Cd3_2 O5 1_555 1_555
Cd3B_2 N2 1_555 1_555
O3B Cd2 1_555 1_555
O4B Cd3 1_555 1_555
O5_2 Cd3 1_555 1_555
N2B Cd3 1_555 1_555
N3B Cd2 1_555 1_555
N6C Cd2 1_555 1_555
N8_2 Cd3 1_555 1_555
Cd3 O3B 1_555 1_555
S2 O5 1_555 1_555
S2 O6 1_555 1_555
O4 Cd3B 1_555 1_555
N2 C1 1_555 1_555
N4 C1 1_555 1_555
N5 C2 1_555 1_555
N8 C4 1_555 1_555
N8 Cd3_2 1_555 1_555
N9 C3 1_555 1_555
N10 C4 1_555 1_555
Cd2B O4B 1_555 1_555
N2B N3B 1_555 1_555

#END
