
#######################################################################
#
#                 Cambridge Crystallographic Data Centre
#                                CCDC 
#
#######################################################################
#
# If this CIF has been generated from an entry in the Cambridge 
# Structural Database, then it will include bibliographic, chemical, 
# crystal, experimental, refinement or atomic coordinate data resulting 
# from the CCDC's data processing and validation procedures.
#
#######################################################################

data_IFELEL
_symmetry_cell_setting           monoclinic
_symmetry_space_group_name_H-M   'C 2/c'
_symmetry_Int_Tables_number      15
_space_group_name_Hall           '-C 2yn'
loop_
_symmetry_equiv_pos_site_id
_symmetry_equiv_pos_as_xyz
1 x,y,z
2 1/2+x,1/2+y,z
3 -x,y,1/2-z
4 1/2-x,1/2+y,1/2-z
5 -x,-y,-z
6 1/2-x,1/2-y,-z
7 x,-y,1/2+z
8 1/2+x,1/2-y,1/2+z
_cell_length_a                   24.102(9)
_cell_length_b                   7.134(2)
_cell_length_c                   13.690(5)
_cell_angle_alpha                90
_cell_angle_beta                 107.420(4)
_cell_angle_gamma                90
_cell_volume                     2245.95
loop_
_atom_site_label
_atom_site_type_symbol
_atom_site_fract_x
_atom_site_fract_y
_atom_site_fract_z
Cd1 Cd 0.0000 -0.28921(3) -0.7500
Cd2 Cd 0.082400(7) -0.99740(2) -0.956660(14)
C1 C 0.04481(10) -0.6095(3) -0.87448(16)
C2 C 0.15463(14) 0.0355(4) -0.6687(2)
H1 H 0.1447 0.1662 -0.6734
H2 H 0.1770 0.0077 -0.7143
H3 H 0.1771 0.0062 -0.5997
C3 C 0.10025(10) -0.0791(3) -0.69760(17)
N1 N -0.00145(9) -0.5081(2) -0.86866(16)
N2 N 0.02968(8) -0.7652(3) -0.92797(14)
N3 N 0.10086(9) -0.5557(3) -0.82737(16)
H4 H 0.1292 -0.6251 -0.8315
H5 H 0.1078 -0.4523 -0.7936
O1 O 0.17210(9) -0.8360(3) -0.90484(16)
O2 O 0.17395(9) -1.1391(3) -0.91353(16)
O3 O 0.07729(7) -0.1281(2) -0.62976(12)
C4 C 0.26442(17) -0.9803(6) -0.8598(5)
H6 H 0.2794 -1.1056 -0.8563
H7 H 0.2781 -0.9080 -0.9071
H8 H 0.2774 -0.9236 -0.7932
C5 C 0.19962(13) -0.9859(5) -0.8953(2)
O4 O 0.07742(7) -0.1285(2) -0.78944(12)
N4 N -0.03154(8) -0.7655(3) -0.96084(15)
C6 C -0.04720(10) -0.6101(3) -0.92409(17)
N5 N -0.10349(9) -0.5583(3) -0.93773(17)
H9 H -0.1314 -0.6289 -0.9721
H10 H -0.1110 -0.4550 -0.9119
Cd2B Cd -0.082400(7) -0.99740(2) -0.543340(14)
Cd2F Cd 0.082400(7) -0.00260(2) -0.456660(14)
Cd2_2 Cd 0.082400(7) 0.00260(2) -0.956660(14)
Cd2D Cd -0.082400(7) -1.00260(2) -1.043340(14)
Cd2F_2 Cd 0.082400(7) -1.00260(2) -0.456660(14)
Cd2D_2 Cd -0.082400(7) -0.00260(2) -1.043340(14)
Cd2B_2 Cd -0.082400(7) 0.00260(2) -0.543340(14)
C1B C -0.04481(10) -0.6095(3) -0.62552(16)
C2B C -0.15463(14) 0.0355(4) -0.8313(2)
H1B H -0.1447 0.1662 -0.8266
H2B H -0.1770 0.0077 -0.7857
H3B H -0.1771 0.0062 -0.9003
C3B C -0.10025(10) -0.0791(3) -0.80240(17)
N1B N 0.00145(9) -0.5081(2) -0.63134(16)
N2B N -0.02968(8) -0.7652(3) -0.57203(14)
N3B N -0.10086(9) -0.5557(3) -0.67263(16)
H4B H -0.1292 -0.6251 -0.6685
H5B H -0.1078 -0.4523 -0.7064
O1B O -0.17210(9) -0.8360(3) -0.59516(16)
O2B O -0.17395(9) -1.1391(3) -0.58647(16)
O3B O -0.07729(7) -0.1281(2) -0.87024(12)
O3F O 0.07729(7) -0.8719(2) -1.12976(12)
O3D O -0.07729(7) -0.8719(2) -0.37024(12)
C4B C -0.26442(17) -0.9803(6) -0.6402(5)
H6B H -0.2794 -1.1056 -0.6437
H7B H -0.2781 -0.9080 -0.5929
H8B H -0.2774 -0.9236 -0.7068
C5B C -0.19962(13) -0.9859(5) -0.6047(2)
O4B O -0.07742(7) -0.1285(2) -0.71056(12)
O4_2 O 0.07742(7) -1.1285(2) -0.78944(12)
O4B_2 O -0.07742(7) -1.1285(2) -0.71056(12)
N4B N 0.03154(8) -0.7655(3) -0.53916(15)
N4D N 0.03154(8) -1.2345(3) -1.03916(15)
N4F N -0.03154(8) -1.2345(3) -0.46084(15)
C6B C 0.04720(10) -0.6101(3) -0.57591(17)
N5B N 0.10349(9) -0.5583(3) -0.56227(17)
H9B H 0.1314 -0.6289 -0.5279
H10B H 0.1110 -0.4550 -0.5881
loop_
_geom_bond_atom_site_label_1
_geom_bond_atom_site_label_2
_geom_bond_site_symmetry_1
_geom_bond_site_symmetry_2
Cd1 N1 1_555 1_555
Cd2 N2 1_555 1_555
C1 N1 1_555 1_555
C2 H1 1_555 1_555
H2 C2 1_555 1_555
H3 C2 1_555 1_555
C3 C2 1_555 1_555
N1 C6 1_555 1_555
N2 C1 1_555 1_555
N3 C1 1_555 1_555
H4 N3 1_555 1_555
H5 N3 1_555 1_555
O1 Cd2 1_555 1_555
O2 Cd2 1_555 1_555
O3 Cd1 1_555 1_555
C4 H6 1_555 1_555
H7 C4 1_555 1_555
H8 C4 1_555 1_555
C5 O1 1_555 1_555
O4 Cd1 1_555 1_555
N4 N2 1_555 1_555
C6 N4 1_555 1_555
N5 C6 1_555 1_555
H9 N5 1_555 1_555
H10 N5 1_555 1_555
Cd2B N2B 1_555 1_555
Cd2F O3 1_555 1_555
Cd2_2 O4 1_555 1_555
Cd2D N4 1_555 1_555
Cd2F_2 N4B 1_555 1_555
Cd2D_2 O3B 1_555 1_555
Cd2B_2 O4B 1_555 1_555
C1B N1B 1_555 1_555
C2B H1B 1_555 1_555
H2B C2B 1_555 1_555
H3B C2B 1_555 1_555
C3B C2B 1_555 1_555
N1B Cd1 1_555 1_555
N2B C1B 1_555 1_555
N3B C1B 1_555 1_555
H4B N3B 1_555 1_555
H5B N3B 1_555 1_555
O1B Cd2B 1_555 1_555
O2B Cd2B 1_555 1_555
O3B Cd1 1_555 1_555
O3F Cd2 1_555 1_555
O3D Cd2B 1_555 1_555
C4B H6B 1_555 1_555
H7B C4B 1_555 1_555
H8B C4B 1_555 1_555
C5B O1B 1_555 1_555
O4B Cd1 1_555 1_555
O4_2 Cd2 1_555 1_555
O4B_2 Cd2B 1_555 1_555
N4B N2B 1_555 1_555
N4D Cd2 1_555 1_555
N4F Cd2B 1_555 1_555
C6B N1B 1_555 1_555
N5B C6B 1_555 1_555
H9B N5B 1_555 1_555
H10B N5B 1_555 1_555
C3 O3 1_555 1_555
C3 O4 1_555 1_555
O2 C5 1_555 1_555
C4 C5 1_555 1_555
C3B O3B 1_555 1_555
C3B O4B 1_555 1_555
O2B C5B 1_555 1_555
C4B C5B 1_555 1_555
N4B C6B 1_555 1_555

#END
