
#######################################################################
#
#                 Cambridge Crystallographic Data Centre
#                                CCDC 
#
#######################################################################
#
# If this CIF has been generated from an entry in the Cambridge 
# Structural Database, then it will include bibliographic, chemical, 
# crystal, experimental, refinement or atomic coordinate data resulting 
# from the CCDC's data processing and validation procedures.
#
#######################################################################

data_IFEWOG
_symmetry_cell_setting           triclinic
_symmetry_space_group_name_H-M   'P -1'
_symmetry_Int_Tables_number      2
_space_group_name_Hall           '-P 1'
loop_
_symmetry_equiv_pos_site_id
_symmetry_equiv_pos_as_xyz
1 x,y,z
2 -x,-y,-z
_cell_length_a                   8.5217(17)
_cell_length_b                   10.016(2)
_cell_length_c                   16.074(3)
_cell_angle_alpha                75.61(3)
_cell_angle_beta                 74.83(3)
_cell_angle_gamma                79.04(3)
_cell_volume                     1271.08
loop_
_atom_site_label
_atom_site_type_symbol
_atom_site_fract_x
_atom_site_fract_y
_atom_site_fract_z
Na1 Na 0.0123(2) 0.17894(17) 0.31604(11)
Na2 Na -0.3977(2) 0.30360(18) 0.29416(12)
Cl1 Cl 0.21595(14) 0.40435(12) 0.37239(8)
Cl2 Cl 0.45616(13) 0.06807(12) 0.24416(8)
O1 O 0.0351(4) 0.2663(3) -0.05924(18)
O2 O -0.1292(3) 0.2640(3) 0.20280(17)
O3 O 0.0022(3) 0.0006(3) 0.23316(17)
O4 O -0.1053(4) -0.0195(3) 0.40612(19)
O5 O -0.2611(3) 0.2486(3) 0.42458(18)
O6 O -0.3615(3) 0.5089(3) 0.3267(2)
O7 O -0.3424(4) 0.4848(3) 0.1597(2)
O8 O 0.3300(5) 0.3496(4) 0.4269(3)
O9 O 0.3127(6) 0.4069(5) 0.2856(2)
O10 O 0.1438(6) 0.5352(4) 0.3834(4)
O11 O 0.0974(4) 0.3109(4) 0.3941(3)
O12 O 0.5127(6) 0.0835(5) 0.3158(3)
O13 O 0.5285(6) 0.1660(4) 0.1719(3)
O14 O 0.5024(6) -0.0659(4) 0.2295(3)
O15 O 0.2861(4) 0.0981(5) 0.2626(4)
C1 C 0.0796(5) 0.0209(4) 0.1462(3)
C2 C 0.2015(6) -0.0759(5) 0.1122(3)
H1 H 0.2394 -0.1558 0.1492
C3 C 0.2673(6) -0.0524(5) 0.0213(3)
H2 H 0.3519 -0.1162 -0.0014
C4 C 0.2112(5) 0.0607(5) -0.0343(3)
H3 H 0.2537 0.0735 -0.0948
C5 C 0.0893(5) 0.1569(4) 0.0008(3)
C6 C -0.0899(5) 0.3628(4) -0.0332(3)
C7 C -0.1463(6) 0.4601(5) -0.0998(3)
H4 H -0.1015 0.4543 -0.1583
C8 C -0.2666(6) 0.5635(5) -0.0799(4)
H5 H -0.3051 0.6282 -0.1251
C9 C -0.3333(6) 0.5752(5) 0.0057(4)
H6 H -0.4152 0.6481 0.0179
C10 C -0.2792(5) 0.4788(4) 0.0741(3)
C11 C -0.1568(5) 0.3670(4) 0.0562(3)
C12 C -0.0912(4) 0.2589(4) 0.1238(3)
C13 C 0.0243(4) 0.1451(4) 0.0917(2)
C14 C 0.0337(6) -0.1326(4) 0.2895(3)
H7 H 0.1386 -0.1428 0.3051
H8 H 0.0344 -0.2072 0.2608
C15 C -0.1034(6) -0.1346(5) 0.3693(3)
H9 H -0.2069 -0.1291 0.3533
H10 H -0.0881 -0.2205 0.4121
C16 C -0.2574(7) 0.0034(6) 0.4693(3)
H11 H -0.2640 -0.0735 0.5200
H12 H -0.3491 0.0083 0.4429
C17 C -0.2660(7) 0.1319(5) 0.4970(3)
H13 H -0.3667 0.1451 0.5410
H14 H -0.1747 0.1259 0.5239
C18 C -0.2933(6) 0.3750(5) 0.4579(3)
H15 H -0.4070 0.3881 0.4895
H16 H -0.2246 0.3671 0.4989
C19 C -0.2604(6) 0.4937(5) 0.3866(4)
H17 H -0.2807 0.5772 0.4102
H18 H -0.1461 0.4817 0.3559
C20 C -0.3328(7) 0.6242(5) 0.2563(4)
H19 H -0.2157 0.6250 0.2331
H20 H -0.3782 0.7098 0.2768
C21 C -0.4119(6) 0.6141(5) 0.1859(4)
H21 H -0.5296 0.6168 0.2082
H22 H -0.3913 0.6913 0.1360
Na2_2 Na 0.6023(2) 0.30360(18) 0.29416(12)
O9_2 O -0.6873(6) 0.4069(5) 0.2856(2)
O12_2 O -0.4873(6) 0.0835(5) 0.3158(3)
loop_
_geom_bond_atom_site_label_1
_geom_bond_atom_site_label_2
_geom_bond_site_symmetry_1
_geom_bond_site_symmetry_2
Na1 O2 1_555 1_555
Na2 O2 1_555 1_555
Cl1 O8 1_555 1_555
Cl2 O12 1_555 1_555
O1 C5 1_555 1_555
O2 C12 1_555 1_555
O3 Na1 1_555 1_555
O4 Na1 1_555 1_555
O5 Na1 1_555 1_555
O6 Na2 1_555 1_555
O7 Na2 1_555 1_555
O9 Cl1 1_555 1_555
O10 Cl1 1_555 1_555
O11 Na1 1_555 1_555
O12 Na2_2 1_555 1_555
O13 Cl2 1_555 1_555
O14 Cl2 1_555 1_555
O15 Na1 1_555 1_555
C1 O3 1_555 1_555
C2 C1 1_555 1_555
H1 C2 1_555 1_555
C3 C2 1_555 1_555
H2 C3 1_555 1_555
C4 C3 1_555 1_555
H3 C4 1_555 1_555
C5 C4 1_555 1_555
C6 O1 1_555 1_555
C7 C6 1_555 1_555
H4 C7 1_555 1_555
C8 C7 1_555 1_555
H5 C8 1_555 1_555
C9 C8 1_555 1_555
H6 C9 1_555 1_555
C10 O7 1_555 1_555
C11 C6 1_555 1_555
C12 C11 1_555 1_555
C13 C1 1_555 1_555
C14 O3 1_555 1_555
H7 C14 1_555 1_555
H8 C14 1_555 1_555
C15 O4 1_555 1_555
H9 C15 1_555 1_555
H10 C15 1_555 1_555
C16 O4 1_555 1_555
H11 C16 1_555 1_555
H12 C16 1_555 1_555
C17 O5 1_555 1_555
H13 C17 1_555 1_555
H14 C17 1_555 1_555
C18 O5 1_555 1_555
H15 C18 1_555 1_555
H16 C18 1_555 1_555
C19 O6 1_555 1_555
H17 C19 1_555 1_555
H18 C19 1_555 1_555
C20 O6 1_555 1_555
H19 C20 1_555 1_555
H20 C20 1_555 1_555
C21 O7 1_555 1_555
H21 C21 1_555 1_555
H22 C21 1_555 1_555
Na2_2 O9 1_555 1_555
O9_2 Na2 1_555 1_555
O12_2 Na2 1_555 1_555
Na2 O5 1_555 1_555
Cl1 O11 1_555 1_555
Cl2 O15 1_555 1_555
C5 C13 1_555 1_555
C9 C10 1_555 1_555
C10 C11 1_555 1_555
C12 C13 1_555 1_555
C14 C15 1_555 1_555
C16 C17 1_555 1_555
C18 C19 1_555 1_555
C20 C21 1_555 1_555

#END
