
#######################################################################
#
#                 Cambridge Crystallographic Data Centre
#                                CCDC 
#
#######################################################################
#
# If this CIF has been generated from an entry in the Cambridge 
# Structural Database, then it will include bibliographic, chemical, 
# crystal, experimental, refinement or atomic coordinate data resulting 
# from the CCDC's data processing and validation procedures.
#
#######################################################################

data_IFEXUM
_symmetry_cell_setting           triclinic
_symmetry_space_group_name_H-M   'P -1'
_symmetry_Int_Tables_number      2
_space_group_name_Hall           '-P 1'
loop_
_symmetry_equiv_pos_site_id
_symmetry_equiv_pos_as_xyz
1 x,y,z
2 -x,-y,-z
_cell_length_a                   9.5705(7)
_cell_length_b                   11.7377(9)
_cell_length_c                   12.4726(11)
_cell_angle_alpha                97.011(3)
_cell_angle_beta                 107.571(4)
_cell_angle_gamma                102.297(6)
_cell_volume                     1278.71
loop_
_atom_site_label
_atom_site_type_symbol
_atom_site_fract_x
_atom_site_fract_y
_atom_site_fract_z
Sn1 Sn 0.22096(5) 0.23271(4) 0.55844(4)
O1 O -0.0238(5) 0.1951(4) 0.4825(5)
O2 O -0.0329(5) 0.3347(5) 0.6164(5)
O3 O -0.5023(5) 0.2679(4) 0.6421(4)
N1 N -0.2518(6) 0.3604(5) 0.7011(5)
H1 H -0.1686 0.3661 0.6833
C1 C 0.2107(8) 0.0846(6) 0.4366(6)
H2 H 0.3064 0.0604 0.4634
H3 H 0.1264 0.0171 0.4332
C2 C 0.1872(8) 0.1093(7) 0.3157(7)
H4 H 0.0917 0.1337 0.2891
H5 H 0.2716 0.1769 0.3193
C3 C 0.1797(9) 0.0041(8) 0.2278(8)
H6 H 0.1044 -0.0665 0.2311
H7 H 0.1433 0.0220 0.1501
C4 C 0.3301(9) -0.0257(8) 0.2456(8)
H8 H 0.3169 -0.0944 0.1868
H9 H 0.3664 -0.0447 0.3218
H10 H 0.4045 0.0428 0.2396
C5 C 0.2702(8) 0.4026(6) 0.5116(7)
H11 H 0.3051 0.3926 0.4449
H12 H 0.1739 0.4261 0.4857
C6 C 0.3875(9) 0.5052(7) 0.6027(7)
H13 H 0.4801 0.4789 0.6362
H14 H 0.4156 0.5717 0.5649
C7 C 0.3374(11) 0.5513(8) 0.6985(8)
H15 H 0.3140 0.4864 0.7393
H16 H 0.2428 0.5754 0.6656
C8 C 0.4563(12) 0.6566(8) 0.7840(8)
H17 H 0.4167 0.6846 0.8432
H18 H 0.4806 0.7210 0.7440
H19 H 0.5484 0.6322 0.8199
C9 C 0.2300(8) 0.1950(7) 0.7226(7)
H20 H 0.3045 0.2616 0.7829
H21 H 0.1292 0.1885 0.7311
C10 C 0.2756(9) 0.0788(7) 0.7390(7)
H22 H 0.2034 0.0142 0.6755
H23 H 0.3774 0.0875 0.7319
C11 C 0.2802(12) 0.0409(9) 0.8495(9)
H24 H 0.1773 0.0285 0.8553
H25 H 0.3054 -0.0367 0.8476
C12 C 0.3876(17) 0.1233(11) 0.9519(10)
H26 H 0.3820 0.0913 1.0199
H27 H 0.3626 0.2002 0.9560
H28 H 0.4906 0.1342 0.9489
C13 C -0.0952(7) 0.2523(6) 0.5332(7)
C14 C -0.2644(7) 0.2095(6) 0.4770(6)
H29 H -0.2976 0.1644 0.4011
C15 C -0.3749(7) 0.2241(6) 0.5157(6)
H30 H -0.4731 0.1864 0.4614
C16 C -0.3797(7) 0.2864(6) 0.6255(6)
C17 C -0.2369(8) 0.4304(6) 0.8064(6)
C18 C -0.3221(9) 0.3905(7) 0.8721(7)
H31 H -0.3943 0.3149 0.8459
C19 C -0.3030(10) 0.4605(8) 0.9775(7)
H32 H -0.3652 0.4329 1.0207
C20 C -0.1983(11) 0.5661(8) 1.0186(7)
H33 H -0.1847 0.6104 1.0917
C21 C -0.1082(9) 0.6121(7) 0.9542(7)
C22 C -0.0005(10) 0.7234(8) 0.9929(8)
H34 H 0.0131 0.7698 1.0650
C23 C 0.0842(11) 0.7662(8) 0.9303(8)
H35 H 0.1562 0.8418 0.9586
C24 C 0.0662(10) 0.6995(7) 0.8240(7)
H36 H 0.1254 0.7300 0.7799
C25 C -0.0363(8) 0.5905(7) 0.7835(7)
H37 H -0.0471 0.5459 0.7112
C26 C -0.1263(8) 0.5430(6) 0.8461(6)
O3_2 O 0.4977(5) 0.2679(4) 0.6421(4)
Sn1_2 Sn -0.77904(5) 0.23271(4) 0.55844(4)
loop_
_geom_bond_atom_site_label_1
_geom_bond_atom_site_label_2
_geom_bond_site_symmetry_1
_geom_bond_site_symmetry_2
Sn1 O1 1_555 1_555
O1 C13 1_555 1_555
O2 C13 1_555 1_555
O3 C16 1_555 1_555
N1 H1 1_555 1_555
C1 Sn1 1_555 1_555
H2 C1 1_555 1_555
H3 C1 1_555 1_555
C2 C1 1_555 1_555
H4 C2 1_555 1_555
H5 C2 1_555 1_555
C3 C2 1_555 1_555
H6 C3 1_555 1_555
H7 C3 1_555 1_555
C4 C3 1_555 1_555
H8 C4 1_555 1_555
H9 C4 1_555 1_555
H10 C4 1_555 1_555
C5 Sn1 1_555 1_555
H11 C5 1_555 1_555
H12 C5 1_555 1_555
C6 C5 1_555 1_555
H13 C6 1_555 1_555
H14 C6 1_555 1_555
C7 C6 1_555 1_555
H15 C7 1_555 1_555
H16 C7 1_555 1_555
C8 C7 1_555 1_555
H17 C8 1_555 1_555
H18 C8 1_555 1_555
H19 C8 1_555 1_555
C9 Sn1 1_555 1_555
H20 C9 1_555 1_555
H21 C9 1_555 1_555
C10 C9 1_555 1_555
H22 C10 1_555 1_555
H23 C10 1_555 1_555
C11 C10 1_555 1_555
H24 C11 1_555 1_555
H25 C11 1_555 1_555
C12 C11 1_555 1_555
H26 C12 1_555 1_555
H27 C12 1_555 1_555
H28 C12 1_555 1_555
C13 C14 1_555 1_555
C14 H29 1_555 1_555
C15 C14 1_555 1_555
H30 C15 1_555 1_555
C16 N1 1_555 1_555
C17 N1 1_555 1_555
C18 C17 1_555 1_555
H31 C18 1_555 1_555
C19 C18 1_555 1_555
H32 C19 1_555 1_555
C20 C19 1_555 1_555
H33 C20 1_555 1_555
C21 C20 1_555 1_555
C22 C21 1_555 1_555
H34 C22 1_555 1_555
C23 C22 1_555 1_555
H35 C23 1_555 1_555
C24 C23 1_555 1_555
H36 C24 1_555 1_555
C25 C24 1_555 1_555
H37 C25 1_555 1_555
C26 C17 1_555 1_555
O3_2 Sn1 1_555 1_555
Sn1_2 O3 1_555 1_555
C15 C16 1_555 1_555
C21 C26 1_555 1_555
C25 C26 1_555 1_555

#END
