
#######################################################################
#
#                 Cambridge Crystallographic Data Centre
#                                CCDC 
#
#######################################################################
#
# If this CIF has been generated from an entry in the Cambridge 
# Structural Database, then it will include bibliographic, chemical, 
# crystal, experimental, refinement or atomic coordinate data resulting 
# from the CCDC's data processing and validation procedures.
#
#######################################################################

data_IFEXOG
_symmetry_cell_setting           monoclinic
_symmetry_space_group_name_H-M   'C 2/c'
_symmetry_Int_Tables_number      15
_space_group_name_Hall           '-C 2yn'
loop_
_symmetry_equiv_pos_site_id
_symmetry_equiv_pos_as_xyz
1 x,y,z
2 1/2+x,1/2+y,z
3 -x,y,1/2-z
4 1/2-x,1/2+y,1/2-z
5 -x,-y,-z
6 1/2-x,1/2-y,-z
7 x,-y,1/2+z
8 1/2+x,1/2-y,1/2+z
_cell_length_a                   12.347(3)
_cell_length_b                   26.540(6)
_cell_length_c                   7.1648(16)
_cell_angle_alpha                90
_cell_angle_beta                 119.129(4)
_cell_angle_gamma                90
_cell_volume                     2050.89
loop_
_atom_site_label
_atom_site_type_symbol
_atom_site_fract_x
_atom_site_fract_y
_atom_site_fract_z
Cu1 Cu 0.5000 0.87294(3) 0.2500
N2 N 0.3827(4) 0.92935(14) 0.1088(7)
C1 C 0.2654(5) 0.9258(2) -0.0477(9)
H1 H 0.2310 0.8939 -0.0917
C2 C 0.1923(5) 0.9678(2) -0.1478(10)
H2 H 0.1105 0.9641 -0.2554
C3 C 0.2438(7) 1.0146(2) -0.0837(11)
H3 H 0.1965 1.0432 -0.1461
C4 C 0.3646(6) 1.01917(19) 0.0720(10)
H4 H 0.3999 1.0510 0.1145
C5 C 0.4357(4) 0.97592(17) 0.1679(8)
N3 N 0.6099(3) 0.81709(14) 0.2653(6)
C6 C 0.7172(5) 0.8205(2) 0.2593(8)
H5 H 0.7507 0.8523 0.2664
C7 C 0.7795(5) 0.7791(2) 0.2431(8)
H6 H 0.8545 0.7827 0.2433
C8 C 0.7272(5) 0.7321(2) 0.2265(8)
H7 H 0.7671 0.7034 0.2157
C9 C 0.6170(5) 0.72795(18) 0.2259(7)
H8 H 0.5806 0.6965 0.2113
C10 C 0.5585(4) 0.77104(16) 0.2472(7)
N4 N 0.5000 0.8452(2) -0.2500
O4 O 0.5000 0.79903(18) -0.2500
O5 O 0.4504(4) 0.86910(14) -0.1601(6)
C5B C 0.5643(4) 0.97592(17) 0.3321(8)
N2B N 0.6173(4) 0.92935(14) 0.3912(7)
C1B C 0.7346(5) 0.9258(2) 0.5477(9)
H1B H 0.7690 0.8939 0.5917
C2B C 0.8077(5) 0.9678(2) 0.6478(10)
H2B H 0.8895 0.9641 0.7554
C3B C 0.7562(7) 1.0146(2) 0.5837(11)
H3B H 0.8035 1.0432 0.6461
C4B C 0.6354(6) 1.01917(19) 0.4280(10)
H4B H 0.6001 1.0510 0.3855
C10B C 0.4415(4) 0.77104(16) 0.2528(7)
N3B N 0.3901(3) 0.81709(14) 0.2347(6)
C6B C 0.2828(5) 0.8205(2) 0.2407(8)
H5B H 0.2493 0.8523 0.2336
C7B C 0.2205(5) 0.7791(2) 0.2569(8)
H6B H 0.1455 0.7827 0.2567
C8B C 0.2728(5) 0.7321(2) 0.2735(8)
H7B H 0.2329 0.7034 0.2843
C9B C 0.3830(5) 0.72795(18) 0.2741(7)
H8B H 0.4194 0.6965 0.2887
O5B O 0.5496(4) 0.86910(14) -0.3399(6)
O5B_2 O 0.5496(4) 0.86910(14) 0.6601(6)
Cu1_2 Cu 0.5000 0.87294(3) -0.7500
N1 N -0.0133(13) 0.8848(7) 0.162(3)
O1 O -0.1257(10) 0.8732(5) 0.060(2)
O2 O 0.0374(14) 0.8857(9) 0.357(2)
O3 O 0.0404(11) 0.8941(5) 0.059(3)
N1B N 0.0133(13) 0.8848(7) 0.338(3)
O1B O 0.1257(10) 0.8732(5) 0.440(2)
O2B O -0.0374(14) 0.8857(9) 0.143(2)
O3B O -0.0404(11) 0.8941(5) 0.441(3)
loop_
_geom_bond_atom_site_label_1
_geom_bond_atom_site_label_2
_geom_bond_site_symmetry_1
_geom_bond_site_symmetry_2
N1 O1 1_555 1_555
O1 O2B 1_555 1_555
O2 N1 1_555 1_555
O3 N1 1_555 1_555
Cu1 N2 1_555 1_555
N2 C1 1_555 1_555
C1 H1 1_555 1_555
C2 C1 1_555 1_555
H2 C2 1_555 1_555
C3 C2 1_555 1_555
H3 C3 1_555 1_555
C4 C3 1_555 1_555
H4 C4 1_555 1_555
C5 N2 1_555 1_555
N3 Cu1 1_555 1_555
C6 N3 1_555 1_555
H5 C6 1_555 1_555
C7 C6 1_555 1_555
H6 C7 1_555 1_555
C8 C7 1_555 1_555
H7 C8 1_555 1_555
C9 C8 1_555 1_555
H8 C9 1_555 1_555
C10 N3 1_555 1_555
N4 O4 1_555 1_555
O5 Cu1 1_555 1_555
N1B N1 1_555 1_555
O1B O2 1_555 1_555
O2B N1 1_555 1_555
O3B O2 1_555 1_555
C5B C5 1_555 1_555
N2B Cu1 1_555 1_555
C1B N2B 1_555 1_555
H1B C1B 1_555 1_555
C2B C1B 1_555 1_555
H2B C2B 1_555 1_555
C3B C2B 1_555 1_555
H3B C3B 1_555 1_555
C4B C5B 1_555 1_555
H4B C4B 1_555 1_555
C10B C10 1_555 1_555
N3B Cu1 1_555 1_555
C6B N3B 1_555 1_555
H5B C6B 1_555 1_555
C7B C6B 1_555 1_555
H6B C7B 1_555 1_555
C8B C7B 1_555 1_555
H7B C8B 1_555 1_555
C9B C10B 1_555 1_555
H8B C9B 1_555 1_555
O5B N4 1_555 1_555
O5B_2 Cu1 1_555 1_555
Cu1_2 O5B 1_555 1_555
O2 N1B 1_555 1_555
O2 O2B 1_555 1_555
O3 O2B 1_555 1_555
C4 C5 1_555 1_555
C9 C10 1_555 1_555
N4 O5 1_555 1_555
N1B O1B 1_555 1_555
N1B O2B 1_555 1_555
N1B O3B 1_555 1_555
C5B N2B 1_555 1_555
C3B C4B 1_555 1_555
C10B N3B 1_555 1_555
C8B C9B 1_555 1_555

#END
