
#######################################################################
#
#                 Cambridge Crystallographic Data Centre
#                                CCDC 
#
#######################################################################
#
# If this CIF has been generated from an entry in the Cambridge 
# Structural Database, then it will include bibliographic, chemical, 
# crystal, experimental, refinement or atomic coordinate data resulting 
# from the CCDC's data processing and validation procedures.
#
#######################################################################

data_IFEZOJ
_symmetry_cell_setting           triclinic
_symmetry_space_group_name_H-M   'P -1'
_symmetry_Int_Tables_number      2
_space_group_name_Hall           '-P 1'
loop_
_symmetry_equiv_pos_site_id
_symmetry_equiv_pos_as_xyz
1 x,y,z
2 -x,-y,-z
_cell_length_a                   8.6146(11)
_cell_length_b                   9.6880(12)
_cell_length_c                   12.7062(16)
_cell_angle_alpha                102.527(2)
_cell_angle_beta                 95.208(2)
_cell_angle_gamma                106.691(2)
_cell_volume                     978.201
loop_
_atom_site_label
_atom_site_type_symbol
_atom_site_fract_x
_atom_site_fract_y
_atom_site_fract_z
Dy1 Dy 0.630796(18) 0.203171(17) 0.507924(12)
O1 O 0.7279(3) 0.0294(3) 0.3939(2)
O2 O 0.5887(3) -0.2047(3) 0.39340(19)
O3 O 0.9166(3) -0.0617(3) 0.25215(19)
O4 O 0.7517(4) 0.1225(3) -0.1139(2)
O5 O 0.7324(3) 0.2208(3) -0.2936(2)
O6 O 0.6028(3) -0.0035(3) -0.40045(18)
O7 O 0.4584(3) 0.3312(3) 0.42291(19)
O8 O 0.6602(3) 0.2868(3) 0.34198(19)
O9 O 0.5902(3) 0.4057(3) 0.1793(2)
O10 O 0.9182(3) 0.2865(3) 0.5346(2)
H1 H 0.9776 0.2438 0.4992
H2 H 0.9660 0.3681 0.5819
O11 O 0.7271(3) 0.4667(3) 0.5874(2)
H3 H 0.8241 0.5083 0.6222
H4 H 0.6723 0.5232 0.5748
C1 C 0.6982(4) -0.1081(4) 0.3660(2)
C2 C 0.8060(5) -0.1704(4) 0.2922(3)
H5 H 0.8687 -0.2162 0.3328
H6 H 0.7355 -0.2477 0.2306
C3 C 0.8583(4) -0.0210(4) 0.1617(3)
C4 C 0.9485(5) 0.1146(5) 0.1483(3)
H7 H 1.0367 0.1765 0.2017
C5 C 0.9087(6) 0.1596(5) 0.0558(3)
H8 H 0.9704 0.2513 0.0472
C6 C 0.7785(5) 0.0689(4) -0.0232(3)
C7 C 0.6852(6) -0.0640(5) -0.0087(3)
H9 H 0.5944 -0.1243 -0.0606
C8 C 0.7269(6) -0.1088(5) 0.0846(4)
H10 H 0.6641 -0.1996 0.0940
C9 C 0.6584(5) 0.0159(4) -0.2100(3)
H11 H 0.5448 -0.0206 -0.2002
H12 H 0.7004 -0.0680 -0.2244
C10 C 0.6685(4) 0.0860(4) -0.3050(3)
C11 C 0.5438(4) 0.3403(4) 0.3476(3)
C12 C 0.4983(5) 0.4183(4) 0.2655(3)
H13 H 0.3820 0.3748 0.2364
H14 H 0.5193 0.5227 0.3009
C13 C 0.5419(4) 0.4556(4) 0.0920(3)
C14 C 0.6166(5) 0.4279(4) 0.0022(3)
H15 H 0.6956 0.3797 0.0039
C15 C 0.4241(5) 0.5292(4) 0.0909(3)
H16 H 0.3740 0.5490 0.1517
Dy1A Dy 0.369204(18) -0.203171(17) 0.492076(12)
Dy1_2 Dy 0.630796(18) 0.203171(17) -0.492076(12)
Dy1A_2 Dy 0.369204(18) -0.203171(17) -0.507924(12)
Dy1A_3 Dy 0.369204(18) 0.796829(17) -0.507924(12)
Dy1A_4 Dy 0.369204(18) -0.203171(17) 1.492076(12)
Dy1_3 Dy 0.630796(18) 0.203171(17) 1.507924(12)
O1A O 0.2721(3) -0.0294(3) 0.6061(2)
O2A O 0.4113(3) 0.2047(3) 0.60660(19)
O3A O 0.0834(3) 0.0617(3) 0.74785(19)
O4A O 0.2483(4) -0.1225(3) 1.1139(2)
O5A O 0.2676(3) -0.2208(3) 1.2936(2)
O5_2 O 0.7324(3) 0.2208(3) 0.7064(2)
O5A_2 O 0.2676(3) -0.2208(3) 0.2936(2)
O6A O 0.3972(3) 0.0035(3) 1.40045(18)
O6_2 O 0.6028(3) -0.0035(3) 0.59955(18)
O6A_2 O 0.3972(3) 0.0035(3) 0.40045(18)
O7A O 0.5416(3) 0.6688(3) -0.42291(19)
O7A_2 O 0.5416(3) -0.3312(3) 0.57709(19)
O8A O 0.3398(3) 0.7132(3) -0.34198(19)
O8A_2 O 0.3398(3) -0.2868(3) 0.65802(19)
O9A O 0.4098(3) 0.5943(3) -0.1793(2)
O10A O 0.0818(3) -0.2865(3) 0.4654(2)
H1A H 0.0224 -0.2438 0.5008
H2A H 0.0340 -0.3681 0.4181
O11A O 0.2729(3) -0.4667(3) 0.4126(2)
H3A H 0.1759 -0.5083 0.3778
H4A H 0.3277 -0.5232 0.4252
C1A C 0.3018(4) 0.1081(4) 0.6340(2)
C2A C 0.1940(5) 0.1704(4) 0.7078(3)
H5A H 0.1313 0.2162 0.6672
H6A H 0.2645 0.2477 0.7694
C3A C 0.1417(4) 0.0210(4) 0.8383(3)
C4A C 0.0515(5) -0.1146(5) 0.8517(3)
H7A H -0.0367 -0.1765 0.7983
C5A C 0.0913(6) -0.1596(5) 0.9442(3)
H8A H 0.0296 -0.2513 0.9528
C6A C 0.2215(5) -0.0689(4) 1.0232(3)
C7A C 0.3148(6) 0.0640(5) 1.0087(3)
H9A H 0.4056 0.1243 1.0606
C8A C 0.2731(6) 0.1088(5) 0.9154(4)
H10A H 0.3359 0.1996 0.9060
C9A C 0.3416(5) -0.0159(4) 1.2100(3)
H11A H 0.4552 0.0206 1.2002
H12A H 0.2996 0.0680 1.2244
C10A C 0.3315(4) -0.0860(4) 1.3050(3)
C11A C 0.4562(4) 0.6597(4) -0.3476(3)
C12A C 0.5017(5) 0.5817(4) -0.2655(3)
H13A H 0.6180 0.6252 -0.2364
H14A H 0.4807 0.4773 -0.3009
C13A C 0.4581(4) 0.5444(4) -0.0920(3)
C14A C 0.3834(5) 0.5721(4) -0.0022(3)
H15A H 0.3044 0.6203 -0.0039
C15A C 0.5759(5) 0.4708(4) -0.0909(3)
H16A H 0.6260 0.4510 -0.1517
O12 O 0.1186(4) 0.1792(4) 0.4212(3)
H17 H 0.0624 0.0911 0.3846
H18 H 0.2220 0.1968 0.4336
O13 O 0.9601(4) 0.4577(3) 0.3026(2)
H19 H 0.9609 0.4815 0.2421
H20 H 0.8675 0.4062 0.3133
O14 O 0.0128(5) 0.5730(4) 0.1215(3)
H21 H 0.0962 0.6462 0.1535
H22 H -0.0629 0.5894 0.0833
loop_
_geom_bond_atom_site_label_1
_geom_bond_atom_site_label_2
_geom_bond_site_symmetry_1
_geom_bond_site_symmetry_2
Dy1 O1 1_555 1_555
O1 C1 1_555 1_555
O2 C1 1_555 1_555
O3 C2 1_555 1_555
O4 C6 1_555 1_555
O5 C10 1_555 1_555
O6 C10 1_555 1_555
O7 Dy1 1_555 1_555
O8 Dy1 1_555 1_555
O9 C12 1_555 1_555
O10 Dy1 1_555 1_555
H1 O10 1_555 1_555
H2 O10 1_555 1_555
O11 Dy1 1_555 1_555
H3 O11 1_555 1_555
H4 O11 1_555 1_555
C1 C2 1_555 1_555
C2 H5 1_555 1_555
H6 C2 1_555 1_555
C3 O3 1_555 1_555
C4 C3 1_555 1_555
H7 C4 1_555 1_555
C5 C4 1_555 1_555
H8 C5 1_555 1_555
C6 C5 1_555 1_555
C7 C6 1_555 1_555
H9 C7 1_555 1_555
C8 C3 1_555 1_555
H10 C8 1_555 1_555
C9 O4 1_555 1_555
H11 C9 1_555 1_555
H12 C9 1_555 1_555
C10 C9 1_555 1_555
C11 O7 1_555 1_555
C12 C11 1_555 1_555
H13 C12 1_555 1_555
H14 C12 1_555 1_555
C13 O9 1_555 1_555
C14 C13 1_555 1_555
H15 C14 1_555 1_555
C15 C13 1_555 1_555
H16 C15 1_555 1_555
O12 H17 1_555 1_555
H18 O12 1_555 1_555
O13 H19 1_555 1_555
H20 O13 1_555 1_555
O14 H21 1_555 1_555
H22 O14 1_555 1_555
Dy1A O2 1_555 1_555
Dy1_2 O5 1_555 1_555
Dy1A_2 O6 1_555 1_555
Dy1A_3 O7A 1_555 1_555
Dy1A_4 O5A 1_555 1_555
Dy1_3 O6A 1_555 1_555
O1A Dy1A 1_555 1_555
O2A Dy1 1_555 1_555
O3A C2A 1_555 1_555
O4A C6A 1_555 1_555
O5A C10A 1_555 1_555
O5_2 Dy1 1_555 1_555
O5A_2 Dy1A 1_555 1_555
O6A Dy1A_4 1_555 1_555
O6_2 Dy1 1_555 1_555
O6A_2 Dy1 1_555 1_555
O7A C11A 1_555 1_555
O7A_2 Dy1A 1_555 1_555
O8A Dy1A_3 1_555 1_555
O8A_2 Dy1A 1_555 1_555
O9A C12A 1_555 1_555
O10A Dy1A 1_555 1_555
H1A O10A 1_555 1_555
H2A O10A 1_555 1_555
O11A Dy1A 1_555 1_555
H3A O11A 1_555 1_555
H4A O11A 1_555 1_555
C1A O1A 1_555 1_555
C2A C1A 1_555 1_555
H5A C2A 1_555 1_555
H6A C2A 1_555 1_555
C3A O3A 1_555 1_555
C4A C3A 1_555 1_555
H7A C4A 1_555 1_555
C5A C4A 1_555 1_555
H8A C5A 1_555 1_555
C6A C5A 1_555 1_555
C7A C6A 1_555 1_555
H9A C7A 1_555 1_555
C8A C3A 1_555 1_555
H10A C8A 1_555 1_555
C9A O4A 1_555 1_555
H11A C9A 1_555 1_555
H12A C9A 1_555 1_555
C10A O6A 1_555 1_555
C11A O8A 1_555 1_555
C12A C11A 1_555 1_555
H13A C12A 1_555 1_555
H14A C12A 1_555 1_555
C13A O9A 1_555 1_555
C14A C15 1_555 1_555
H15A C14A 1_555 1_555
C15A C14 1_555 1_555
H16A C15A 1_555 1_555
O6 Dy1_2 1_555 1_555
O8 C11 1_555 1_555
C7 C8 1_555 1_555
Dy1A O6_2 1_555 1_555
Dy1A O6A_2 1_555 1_555
O2A C1A 1_555 1_555
C7A C8A 1_555 1_555
C9A C10A 1_555 1_555
C13A C14A 1_555 1_555
C13A C15A 1_555 1_555

#END
