
#######################################################################
#
#                 Cambridge Crystallographic Data Centre
#                                CCDC 
#
#######################################################################
#
# If this CIF has been generated from an entry in the Cambridge 
# Structural Database, then it will include bibliographic, chemical, 
# crystal, experimental, refinement or atomic coordinate data resulting 
# from the CCDC's data processing and validation procedures.
#
#######################################################################

data_IFIBAB
_symmetry_cell_setting           monoclinic
_symmetry_space_group_name_H-M   'P 21/n'
_symmetry_Int_Tables_number      14
_space_group_name_Hall           '-P 2yn'
loop_
_symmetry_equiv_pos_site_id
_symmetry_equiv_pos_as_xyz
1 x,y,z
2 1/2-x,1/2+y,1/2-z
3 -x,-y,-z
4 1/2+x,1/2-y,1/2+z
_cell_length_a                   3.8470(10)
_cell_length_b                   15.099(5)
_cell_length_c                   13.248(4)
_cell_angle_alpha                90
_cell_angle_beta                 98.35(2)
_cell_angle_gamma                90
_cell_volume                     761.364
loop_
_atom_site_label
_atom_site_type_symbol
_atom_site_fract_x
_atom_site_fract_y
_atom_site_fract_z
K1 K 0.0372(3) 0.85425(9) -0.10599(10)
O1 O -0.1184(10) 0.7760(3) 0.0898(3)
O2 O -0.3947(9) 0.9006(3) 0.0366(3)
C1 C -0.2610(12) 0.8499(4) 0.1072(4)
C2 C -0.2616(12) 0.8770(3) 0.2148(4)
C3 C -0.3965(13) 0.9588(4) 0.2383(4)
O3 O -0.5241(10) 1.0164(3) 0.1633(3)
H1 H -0.511(16) 0.983(4) 0.113(5)
C4 C -0.3874(13) 0.9843(4) 0.3391(4)
H2 H -0.4706 1.0396 0.3549
C5 C -0.2549(15) 0.9272(4) 0.4152(4)
H3 H -0.2552 0.9442 0.4826
C6 C -0.1218(13) 0.8460(4) 0.3955(4)
H4 H -0.0310 0.8089 0.4489
C7 C -0.1239(13) 0.8199(4) 0.2957(4)
O4 O 0.0016(11) 0.7385(3) 0.2759(3)
H5 H 0.023(16) 0.734(4) 0.214(5)
K1_2 K -0.9628(3) 0.85425(9) -0.10599(10)
K1B K -1.0372(3) 1.14575(9) 0.10599(10)
K1B_2 K -0.0372(3) 1.14575(9) 0.10599(10)
K1C K -0.4628(3) 0.64575(9) 0.39401(10)
K1C_2 K 0.5372(3) 0.64575(9) 0.39401(10)
O2_2 O 0.6053(9) 0.9006(3) 0.0366(3)
O3B O -0.4759(10) 0.9836(3) -0.1633(3)
O3B_2 O 0.5241(10) 0.9836(3) -0.1633(3)
H1B H -0.489(16) 1.017(4) -0.113(5)
H1B_2 H 0.511(16) 1.017(4) -0.113(5)
O4C O -0.4984(11) 0.7615(3) -0.2241(3)
O4C_2 O 0.5016(11) 0.7615(3) -0.2241(3)
H5C H -0.477(16) 0.766(4) -0.286(5)
H5C_2 H 0.523(16) 0.766(4) -0.286(5)
loop_
_geom_bond_atom_site_label_1
_geom_bond_atom_site_label_2
_geom_bond_site_symmetry_1
_geom_bond_site_symmetry_2
K1 O1 1_555 1_555
O1 C1 1_555 1_555
O2 K1 1_555 1_555
C1 O2 1_555 1_555
C2 C1 1_555 1_555
C3 C2 1_555 1_555
O3 C3 1_555 1_555
H1 O3 1_555 1_555
C4 C3 1_555 1_555
H2 C4 1_555 1_555
C5 C4 1_555 1_555
H3 C5 1_555 1_555
C6 C5 1_555 1_555
H4 C6 1_555 1_555
C7 C2 1_555 1_555
O4 C7 1_555 1_555
H5 O4 1_555 1_555
K1_2 O2 1_555 1_555
K1B O3 1_555 1_555
K1B_2 O3 1_555 1_555
K1C O4 1_555 1_555
K1C_2 O4 1_555 1_555
O2_2 K1 1_555 1_555
O3B K1 1_555 1_555
O3B_2 K1 1_555 1_555
H1B O3B 1_555 1_555
H1B_2 O3B_2 1_555 1_555
O4C K1 1_555 1_555
O4C_2 K1 1_555 1_555
H5C O4C 1_555 1_555
H5C_2 O4C_2 1_555 1_555
C6 C7 1_555 1_555
K1_2 O3B 1_555 1_555
K1_2 O4C 1_555 1_555

#END
