
#######################################################################
#
#                 Cambridge Crystallographic Data Centre
#                                CCDC 
#
#######################################################################
#
# If this CIF has been generated from an entry in the Cambridge 
# Structural Database, then it will include bibliographic, chemical, 
# crystal, experimental, refinement or atomic coordinate data resulting 
# from the CCDC's data processing and validation procedures.
#
#######################################################################

data_IFIDIL
_symmetry_cell_setting           monoclinic
_symmetry_space_group_name_H-M   'C 2/c'
_symmetry_Int_Tables_number      15
_space_group_name_Hall           '-C 2yn'
loop_
_symmetry_equiv_pos_site_id
_symmetry_equiv_pos_as_xyz
1 x,y,z
2 1/2+x,1/2+y,z
3 -x,y,1/2-z
4 1/2-x,1/2+y,1/2-z
5 -x,-y,-z
6 1/2-x,1/2-y,-z
7 x,-y,1/2+z
8 1/2+x,1/2-y,1/2+z
_cell_length_a                   23.7901(19)
_cell_length_b                   13.4449(11)
_cell_length_c                   17.1952(14)
_cell_angle_alpha                90
_cell_angle_beta                 98.3100(10)
_cell_angle_gamma                90
_cell_volume                     5442.23
loop_
_atom_site_label
_atom_site_type_symbol
_atom_site_fract_x
_atom_site_fract_y
_atom_site_fract_z
Cd1 Cd 0.387640(8) -0.179380(16) 0.041400(11)
S1 S 0.57994(4) -0.12746(8) 0.01751(6)
S2 S 0.27171(3) -0.44868(6) 0.11356(5)
O1 O 0.32209(9) 0.04500(16) -0.44282(11)
O2 O 0.39814(9) 0.06577(16) -0.35587(12)
O3 O 0.40049(10) -0.08837(17) -0.09231(12)
O4 O 0.34789(9) -0.21927(17) -0.08121(11)
O5 O 0.22424(14) -0.2844(2) -0.42275(15)
O6 O 0.22846(12) -0.3523(2) -0.30971(16)
N1 N 0.48206(10) -0.19443(19) 0.04438(15)
N2 N 0.51330(11) -0.0495(2) 0.11339(16)
H1 H 0.4836 -0.0472 0.1366
H2 H 0.5391 -0.0046 0.1229
N3 N 0.34293(10) -0.30724(17) 0.09372(13)
N4 N 0.28379(11) -0.3588(2) -0.02019(14)
H3 H 0.2989 -0.3178 -0.0494
H4 H 0.2568 -0.3974 -0.0406
N5 N 0.24245(12) -0.2888(2) -0.35361(17)
C1 C 0.50106(13) -0.2590(2) -0.00969(19)
C2 C 0.55314(14) -0.2328(3) -0.0320(2)
C3 C 0.57653(18) -0.2885(4) -0.0878(3)
H5 H 0.6108 -0.2694 -0.1033
C4 C 0.5489(2) -0.3708(4) -0.1193(3)
C5 C 0.49812(19) -0.3990(3) -0.0953(3)
H6 H 0.4801 -0.4566 -0.1160
C6 C 0.47323(16) -0.3435(3) -0.0410(2)
H7 H 0.4388 -0.3627 -0.0261
C7 C 0.51920(12) -0.1222(2) 0.06294(18)
C8 C 0.5740(3) -0.4334(5) -0.1801(4)
H8 H 0.5593 -0.4104 -0.2320
H9 H 0.5638 -0.5019 -0.1748
H10 H 0.6146 -0.4270 -0.1718
C9 C 0.35212(13) -0.3312(2) 0.17468(17)
C10 C 0.31665(12) -0.4066(2) 0.19545(17)
C11 C 0.32121(14) -0.4409(3) 0.27235(19)
H11 H 0.2975 -0.4914 0.2855
C12 C 0.36119(16) -0.3993(3) 0.32895(19)
C13 C 0.39621(17) -0.3245(3) 0.3072(2)
H12 H 0.4232 -0.2965 0.3455
C14 C 0.39243(16) -0.2901(3) 0.23090(19)
H13 H 0.4166 -0.2403 0.2179
C15 C 0.30203(12) -0.3626(2) 0.05632(17)
C16 C 0.3656(2) -0.4327(4) 0.4144(2)
H14 H 0.3388 -0.3961 0.4401
H15 H 0.4033 -0.4206 0.4408
H16 H 0.3573 -0.5025 0.4163
C17 C 0.35284(12) 0.0207(2) -0.38042(16)
C18 C 0.33574(12) -0.0651(2) -0.33311(16)
C19 C 0.35862(12) -0.0713(2) -0.25425(16)
H17 H 0.3845 -0.0235 -0.2325
C20 C 0.34338(12) -0.1481(2) -0.20749(16)
C21 C 0.36597(13) -0.1508(2) -0.12176(16)
C22 C 0.30520(12) -0.2198(2) -0.24082(17)
H18 H 0.2945 -0.2718 -0.2105
C23 C 0.28348(13) -0.2128(2) -0.31900(17)
C24 C 0.29751(12) -0.1360(2) -0.36626(16)
H19 H 0.2817 -0.1323 -0.4189
Cd1F Cd 0.387640(8) 0.179380(16) -0.458600(11)
O1F O 0.32209(9) -0.04500(16) 0.05718(11)
O2F O 0.39814(9) -0.06577(16) 0.14413(12)
loop_
_geom_bond_atom_site_label_1
_geom_bond_atom_site_label_2
_geom_bond_site_symmetry_1
_geom_bond_site_symmetry_2
Cd1 O4 1_555 1_555
S1 C2 1_555 1_555
S2 C10 1_555 1_555
O1 C17 1_555 1_555
O2 C17 1_555 1_555
O3 C21 1_555 1_555
O4 C21 1_555 1_555
O5 N5 1_555 1_555
O6 N5 1_555 1_555
N1 Cd1 1_555 1_555
N2 H1 1_555 1_555
H2 N2 1_555 1_555
N3 Cd1 1_555 1_555
N4 H3 1_555 1_555
H4 N4 1_555 1_555
N5 C23 1_555 1_555
C1 N1 1_555 1_555
C2 C1 1_555 1_555
C3 C2 1_555 1_555
H5 C3 1_555 1_555
C4 C3 1_555 1_555
C5 C4 1_555 1_555
H6 C5 1_555 1_555
C6 C1 1_555 1_555
H7 C6 1_555 1_555
C7 S1 1_555 1_555
C8 C4 1_555 1_555
H8 C8 1_555 1_555
H9 C8 1_555 1_555
H10 C8 1_555 1_555
C9 N3 1_555 1_555
C10 C9 1_555 1_555
C11 C10 1_555 1_555
H11 C11 1_555 1_555
C12 C11 1_555 1_555
C13 C12 1_555 1_555
H12 C13 1_555 1_555
C14 C9 1_555 1_555
H13 C14 1_555 1_555
C15 S2 1_555 1_555
C16 C12 1_555 1_555
H14 C16 1_555 1_555
H15 C16 1_555 1_555
H16 C16 1_555 1_555
C17 C18 1_555 1_555
C18 C19 1_555 1_555
C19 H17 1_555 1_555
C20 C19 1_555 1_555
C21 C20 1_555 1_555
C22 C20 1_555 1_555
H18 C22 1_555 1_555
C23 C22 1_555 1_555
C24 C18 1_555 1_555
H19 C24 1_555 1_555
Cd1F O1 1_555 1_555
O1F Cd1 1_555 1_555
O2F Cd1 1_555 1_555
O2 Cd1F 1_555 1_555
N1 C7 1_555 1_555
N2 C7 1_555 1_555
N3 C15 1_555 1_555
N4 C15 1_555 1_555
C5 C6 1_555 1_555
C13 C14 1_555 1_555
C23 C24 1_555 1_555

#END
