
#######################################################################
#
#                 Cambridge Crystallographic Data Centre
#                                CCDC 
#
#######################################################################
#
# If this CIF has been generated from an entry in the Cambridge 
# Structural Database, then it will include bibliographic, chemical, 
# crystal, experimental, refinement or atomic coordinate data resulting 
# from the CCDC's data processing and validation procedures.
#
#######################################################################

data_IFIDEH
_symmetry_cell_setting           monoclinic
_symmetry_space_group_name_H-M   'C 2/c'
_symmetry_Int_Tables_number      15
_space_group_name_Hall           '-C 2yn'
loop_
_symmetry_equiv_pos_site_id
_symmetry_equiv_pos_as_xyz
1 x,y,z
2 1/2+x,1/2+y,z
3 -x,y,1/2-z
4 1/2-x,1/2+y,1/2-z
5 -x,-y,-z
6 1/2-x,1/2-y,-z
7 x,-y,1/2+z
8 1/2+x,1/2-y,1/2+z
_cell_length_a                   23.4304(18)
_cell_length_b                   14.1127(11)
_cell_length_c                   16.2938(12)
_cell_angle_alpha                90
_cell_angle_beta                 93.0350(10)
_cell_angle_gamma                90
_cell_volume                     5380.25
loop_
_atom_site_label
_atom_site_type_symbol
_atom_site_fract_x
_atom_site_fract_y
_atom_site_fract_z
Zn1 Zn 0.384500(15) 0.18341(2) 1.05252(2)
S1 S 0.27847(4) 0.44170(6) 1.11893(5)
S2 S 0.56953(4) 0.13749(8) 1.00566(7)
O1 O 0.35513(9) 0.19033(14) 0.93761(12)
O2 O 0.41024(11) 0.07007(17) 0.90667(14)
O3 O 0.37995(10) -0.07495(14) 0.62638(13)
O4 O 0.29928(11) -0.03389(17) 0.55815(15)
O5 O 0.24253(16) 0.3025(2) 0.59608(19)
O6 O 0.25095(14) 0.35979(19) 0.71727(18)
N1 N 0.34359(11) 0.29471(16) 1.10046(14)
N2 N 0.29074(12) 0.34334(18) 0.98142(16)
H1 H 0.3049 0.2992 0.9524
H2 H 0.2664 0.3824 0.9591
N3 N 0.47028(11) 0.19909(17) 1.04592(16)
N4 N 0.50061(13) 0.0582(2) 1.1109(2)
H3 H 0.4703 0.0548 1.1382
H4 H 0.5265 0.0153 1.1168
N5 N 0.26023(14) 0.2990(2) 0.6673(2)
C1 C 0.35095(13) 0.3220(2) 1.18337(18)
C2 C 0.31851(13) 0.4000(2) 1.20450(18)
C3 C 0.32080(15) 0.4354(2) 1.2840(2)
H5 H 0.2990 0.4877 1.2972
C4 C 0.35573(17) 0.3921(3) 1.3430(2)
C5 C 0.38853(19) 0.3161(3) 1.3214(2)
H6 H 0.4127 0.2880 1.3615
C6 C 0.38692(17) 0.2800(3) 1.2427(2)
H7 H 0.4096 0.2286 1.2298
C7 C 0.30642(13) 0.3512(2) 1.06043(19)
C8 C 0.3570(2) 0.4256(3) 1.4320(2)
H8 H 0.3484 0.4921 1.4334
H9 H 0.3943 0.4147 1.4574
H10 H 0.3291 0.3912 1.4611
C9 C 0.54389(16) 0.2411(3) 0.9609(2)
C10 C 0.56927(19) 0.2983(4) 0.9050(3)
H11 H 0.6044 0.2815 0.8853
C11 C 0.5427(2) 0.3802(4) 0.8784(3)
C12 C 0.4906(2) 0.4042(3) 0.9092(3)
H12 H 0.4732 0.4607 0.8925
C13 C 0.46346(17) 0.3463(3) 0.9643(2)
H13 H 0.4279 0.3625 0.9829
C14 C 0.49057(14) 0.2647(2) 0.9906(2)
C15 C 0.50740(14) 0.1295(2) 1.0596(2)
C16 C 0.5703(2) 0.4466(5) 0.8177(4)
H14 H 0.6111 0.4403 0.8234
H15 H 0.5598 0.5108 0.8289
H16 H 0.5573 0.4302 0.7626
C17 C 0.37487(14) 0.1302(2) 0.88713(19)
C18 C 0.35080(13) 0.1378(2) 0.80024(18)
C19 C 0.35809(13) 0.0636(2) 0.74624(18)
H17 H 0.3804 0.0121 0.7634
C20 C 0.33302(13) 0.0641(2) 0.66697(18)
C21 C 0.33705(15) -0.0206(2) 0.61259(19)
C22 C 0.30085(14) 0.1417(2) 0.64089(19)
H18 H 0.2836 0.1435 0.5882
C23 C 0.29468(14) 0.2166(2) 0.69444(19)
C24 C 0.31873(13) 0.2157(2) 0.77319(18)
H19 H 0.3136 0.2668 0.8081
Zn1F Zn 0.384500(15) -0.18341(2) 0.55252(2)
O3F O 0.37995(10) 0.07495(14) 1.12638(13)
loop_
_geom_bond_atom_site_label_1
_geom_bond_atom_site_label_2
_geom_bond_site_symmetry_1
_geom_bond_site_symmetry_2
Zn1 O1 1_555 1_555
S1 C2 1_555 1_555
S2 C9 1_555 1_555
O1 C17 1_555 1_555
O2 C17 1_555 1_555
O3 C21 1_555 1_555
O4 C21 1_555 1_555
O5 N5 1_555 1_555
O6 N5 1_555 1_555
N1 Zn1 1_555 1_555
N2 H1 1_555 1_555
H2 N2 1_555 1_555
N3 Zn1 1_555 1_555
N4 H3 1_555 1_555
H4 N4 1_555 1_555
N5 C23 1_555 1_555
C1 N1 1_555 1_555
C2 C1 1_555 1_555
C3 C2 1_555 1_555
H5 C3 1_555 1_555
C4 C3 1_555 1_555
C5 C4 1_555 1_555
H6 C5 1_555 1_555
C6 C1 1_555 1_555
H7 C6 1_555 1_555
C7 S1 1_555 1_555
C8 C4 1_555 1_555
H8 C8 1_555 1_555
H9 C8 1_555 1_555
H10 C8 1_555 1_555
C9 C10 1_555 1_555
C10 H11 1_555 1_555
C11 C10 1_555 1_555
C12 C11 1_555 1_555
H12 C12 1_555 1_555
C13 C12 1_555 1_555
H13 C13 1_555 1_555
C14 N3 1_555 1_555
C15 S2 1_555 1_555
C16 C11 1_555 1_555
H14 C16 1_555 1_555
H15 C16 1_555 1_555
H16 C16 1_555 1_555
C17 C18 1_555 1_555
C18 C19 1_555 1_555
C19 H17 1_555 1_555
C20 C19 1_555 1_555
C21 C20 1_555 1_555
C22 C20 1_555 1_555
H18 C22 1_555 1_555
C23 C22 1_555 1_555
C24 C18 1_555 1_555
H19 C24 1_555 1_555
Zn1F O3 1_555 1_555
O3F Zn1 1_555 1_555
N1 C7 1_555 1_555
N2 C7 1_555 1_555
N3 C15 1_555 1_555
N4 C15 1_555 1_555
C5 C6 1_555 1_555
C9 C14 1_555 1_555
C13 C14 1_555 1_555
C23 C24 1_555 1_555

#END
