
#######################################################################
#
#                 Cambridge Crystallographic Data Centre
#                                CCDC 
#
#######################################################################
#
# If this CIF has been generated from an entry in the Cambridge 
# Structural Database, then it will include bibliographic, chemical, 
# crystal, experimental, refinement or atomic coordinate data resulting 
# from the CCDC's data processing and validation procedures.
#
#######################################################################

data_IFIFAF
_symmetry_cell_setting           monoclinic
_symmetry_space_group_name_H-M   'C 2/c'
_symmetry_Int_Tables_number      15
_space_group_name_Hall           '-C 2yn'
loop_
_symmetry_equiv_pos_site_id
_symmetry_equiv_pos_as_xyz
1 x,y,z
2 1/2+x,1/2+y,z
3 -x,y,1/2-z
4 1/2-x,1/2+y,1/2-z
5 -x,-y,-z
6 1/2-x,1/2-y,-z
7 x,-y,1/2+z
8 1/2+x,1/2-y,1/2+z
_cell_length_a                   19.567(8)
_cell_length_b                   16.952(7)
_cell_length_c                   7.294(3)
_cell_angle_alpha                90
_cell_angle_beta                 105.258(7)
_cell_angle_gamma                90
_cell_volume                     2334.14
loop_
_atom_site_label
_atom_site_type_symbol
_atom_site_fract_x
_atom_site_fract_y
_atom_site_fract_z
Cd1 Cd 0.45959(3) 0.18526(4) 0.43598(9)
Cl1 Cl 0.57323(11) 0.10758(13) 0.4548(3)
Cl2 Cl 0.5000 0.2632(2) 0.7500
Cl3 Cl 0.5000 0.29803(19) 0.2500
N1 N 0.3417(3) 0.2220(4) 0.3493(9)
N2 N 0.3975(3) 0.0879(4) 0.5522(9)
H1 H 0.4129 0.0400 0.5273
H2 H 0.4063 0.0928 0.6792
C1 C 0.3216(4) 0.0937(5) 0.4667(11)
C2 C 0.2765(5) 0.0338(6) 0.4813(14)
H3 H 0.2942 -0.0125 0.5446
C3 C 0.2027(6) 0.0423(7) 0.3999(16)
H4 H 0.1724 0.0009 0.4078
C4 C 0.1758(5) 0.1099(7) 0.3108(15)
H5 H 0.1271 0.1154 0.2619
C5 C 0.2216(5) 0.1722(5) 0.2918(12)
C6 C 0.1962(5) 0.2462(6) 0.2057(11)
H6 H 0.1478 0.2551 0.1588
C7 C 0.2430(6) 0.3024(6) 0.1938(13)
H7 H 0.2273 0.3505 0.1369
C8 C 0.3155(5) 0.2885(6) 0.2672(12)
H8 H 0.3469 0.3284 0.2573
C9 C 0.2946(5) 0.1639(5) 0.3667(11)
Cd1B Cd 0.54041(3) 0.18526(4) 0.06402(9)
Cd1B_2 Cd 0.54041(3) 0.18526(4) 1.06402(9)
Cl1B Cl 0.42677(11) 0.10758(13) 0.0452(3)
Cl2_2 Cl 0.5000 0.2632(2) -0.2500
N1B N 0.6583(3) 0.2220(4) 0.1507(9)
N2B N 0.6025(3) 0.0879(4) -0.0522(9)
H1B H 0.5871 0.0400 -0.0273
H2B H 0.5937 0.0928 -0.1792
C1B C 0.6784(4) 0.0937(5) 0.0333(11)
C2B C 0.7235(5) 0.0338(6) 0.0187(14)
H3B H 0.7058 -0.0125 -0.0446
C3B C 0.7973(6) 0.0423(7) 0.1001(16)
H4B H 0.8276 0.0009 0.0922
C4B C 0.8242(5) 0.1099(7) 0.1892(15)
H5B H 0.8729 0.1154 0.2381
C5B C 0.7784(5) 0.1722(5) 0.2082(12)
C6B C 0.8038(5) 0.2462(6) 0.2943(11)
H6B H 0.8522 0.2551 0.3412
C7B C 0.7570(6) 0.3024(6) 0.3062(13)
H7B H 0.7727 0.3505 0.3631
C8B C 0.6845(5) 0.2885(6) 0.2328(12)
H8B H 0.6531 0.3284 0.2427
C9B C 0.7054(5) 0.1639(5) 0.1333(11)
O1 O 0.5000 0.5000 0.5000
H10 H 0.4906 0.4706 0.3957
H10D H 0.5094 0.5294 0.6043
H9? H 0.5410 0.5209 0.5323
loop_
_geom_bond_atom_site_label_1
_geom_bond_atom_site_label_2
_geom_bond_site_symmetry_1
_geom_bond_site_symmetry_2
Cd1 Cl1 1_555 1_555
Cl1 Cd1B 1_555 1_555
Cl2 Cd1 1_555 1_555
Cl3 Cd1 1_555 1_555
O1 H10 1_555 1_555
N1 Cd1 1_555 1_555
N2 Cd1 1_555 1_555
H1 N2 1_555 1_555
H2 N2 1_555 1_555
C1 N2 1_555 1_555
C2 C1 1_555 1_555
H3 C2 1_555 1_555
C3 C2 1_555 1_555
H4 C3 1_555 1_555
C4 C3 1_555 1_555
H5 C4 1_555 1_555
C5 C4 1_555 1_555
C6 C5 1_555 1_555
H6 C6 1_555 1_555
C7 C6 1_555 1_555
H7 C7 1_555 1_555
C8 N1 1_555 1_555
H8 C8 1_555 1_555
C9 N1 1_555 1_555
Cd1B Cl3 1_555 1_555
Cd1B_2 Cl2 1_555 1_555
Cl1B Cd1 1_555 1_555
Cl2_2 Cd1B 1_555 1_555
N1B Cd1B 1_555 1_555
N2B Cd1B 1_555 1_555
H1B N2B 1_555 1_555
H2B N2B 1_555 1_555
C1B N2B 1_555 1_555
C2B C1B 1_555 1_555
H3B C2B 1_555 1_555
C3B C2B 1_555 1_555
H4B C3B 1_555 1_555
C4B C3B 1_555 1_555
H5B C4B 1_555 1_555
C5B C4B 1_555 1_555
C6B C5B 1_555 1_555
H6B C6B 1_555 1_555
C7B C6B 1_555 1_555
H7B C7B 1_555 1_555
C8B N1B 1_555 1_555
H8B C8B 1_555 1_555
C9B N1B 1_555 1_555
H10D O1 1_555 1_555
C1 C9 1_555 1_555
C5 C9 1_555 1_555
C7 C8 1_555 1_555
Cd1B Cl1B 1_555 1_555
C1B C9B 1_555 1_555
C5B C9B 1_555 1_555
C7B C8B 1_555 1_555

#END
