
#######################################################################
#
#                 Cambridge Crystallographic Data Centre
#                                CCDC 
#
#######################################################################
#
# If this CIF has been generated from an entry in the Cambridge 
# Structural Database, then it will include bibliographic, chemical, 
# crystal, experimental, refinement or atomic coordinate data resulting 
# from the CCDC's data processing and validation procedures.
#
#######################################################################

data_IFIPUJ
_symmetry_cell_setting           triclinic
_symmetry_space_group_name_H-M   'P -1'
_symmetry_Int_Tables_number      2
_space_group_name_Hall           '-P 1'
loop_
_symmetry_equiv_pos_site_id
_symmetry_equiv_pos_as_xyz
1 x,y,z
2 -x,-y,-z
_cell_length_a                   6.7542(2)
_cell_length_b                   10.00140(10)
_cell_length_c                   10.9088(3)
_cell_angle_alpha                74.140(2)
_cell_angle_beta                 74.3880(10)
_cell_angle_gamma                73.239(2)
_cell_volume                     664.092
loop_
_atom_site_label
_atom_site_type_symbol
_atom_site_fract_x
_atom_site_fract_y
_atom_site_fract_z
Ni1 Ni 0.0000 0.0000 0.0000
O1 O 0.1784(11) -0.1996(7) 0.0816(7)
O2 O 0.2527(11) 0.0816(8) -0.0131(7)
N1 N 0.1244(12) -0.0447(8) -0.1829(8)
C1 C 0.217(2) -0.0341(16) -0.3976(12)
H1 H 0.2509 -0.0003 -0.4872
C2 C 0.164(2) 0.0427(12) -0.3043(11)
H2 H 0.1547 0.1402 -0.3198
N2 N 0.2111(16) -0.1712(11) -0.3340(10)
H3 H 0.2358 -0.2429 -0.3695
C3 C 0.1609(16) -0.1738(11) -0.2094(12)
H4 H 0.1515 -0.2566 -0.1457
H7 H 0.236(15) 0.103(10) 0.056(6)
H8 H 0.309(10) -0.205(14) 0.085(13)
H10 H 0.317(18) 0.144(11) -0.068(10)
H11 H 0.115(16) -0.259(10) 0.140(8)
O1A O -0.1784(11) 0.1996(7) -0.0816(7)
O2A O -0.2527(11) -0.0816(8) 0.0131(7)
N1A N -0.1244(12) 0.0447(8) 0.1829(8)
C1A C -0.217(2) 0.0341(16) 0.3976(12)
H1A H -0.2509 0.0003 0.4872
C2A C -0.164(2) -0.0427(12) 0.3043(11)
H2A H -0.1547 -0.1402 0.3198
N2A N -0.2111(16) 0.1712(11) 0.3340(10)
H3A H -0.2358 0.2429 0.3695
C3A C -0.1609(16) 0.1738(11) 0.2094(12)
H4A H -0.1515 0.2566 0.1457
H7A H -0.236(15) -0.103(10) -0.056(6)
H8A H -0.309(10) 0.205(14) -0.085(13)
H10A H -0.317(18) -0.144(11) 0.068(10)
H11A H -0.115(16) 0.259(10) -0.140(8)
Ni2 Ni -0.5000 0.5000 0.5000
O3 O -0.4461(9) 0.7130(6) 0.2014(5)
O4 O -0.3489(8) 0.4884(6) 0.3131(5)
O5 O -0.2671(10) 0.3244(7) 0.5638(6)
O6 O -0.3252(9) 0.6419(6) 0.4875(5)
O7 O 0.0465(8) 0.5889(6) 0.2939(5)
O8 O 0.2171(11) 0.3600(7) 0.2964(6)
C4 C -0.2068(12) 0.5607(9) -0.0182(7)
H5 H -0.3446 0.6011 -0.0299
C5 C -0.1561(11) 0.5475(7) 0.1004(7)
C6 C -0.3337(12) 0.5887(8) 0.2147(7)
C7 C 0.0489(12) 0.4872(8) 0.1202(7)
C8 C 0.1073(12) 0.4773(9) 0.2468(7)
H6 H -0.182(13) 0.342(8) 0.593(8)
H9 H -0.358(19) 0.277(13) 0.625(12)
H14 H -0.287(17) 0.640(12) 0.556(7)
H15 H -0.205(10) 0.629(12) 0.441(9)
Ni2_2 Ni 0.5000 0.5000 -0.5000
O3A O 0.4461(9) 0.2870(6) -0.2014(5)
O4A O 0.3489(8) 0.5116(6) -0.3131(5)
O4A_2 O -0.6511(8) 0.5116(6) 0.6869(5)
O5A O -0.7329(10) 0.6756(7) 0.4362(6)
O6A O -0.6748(9) 0.3581(6) 0.5125(5)
O7A O -0.0465(8) 0.4111(6) -0.2939(5)
O8A O -0.2171(11) 0.6400(7) -0.2964(6)
C4A C 0.2068(12) 0.4393(9) 0.0182(7)
H5A H 0.3446 0.3989 0.0299
C5A C 0.1561(11) 0.4525(7) -0.1004(7)
C6A C 0.3337(12) 0.4113(8) -0.2147(7)
C7A C -0.0489(12) 0.5128(8) -0.1202(7)
C8A C -0.1073(12) 0.5227(9) -0.2468(7)
H6A H -0.818(13) 0.658(8) 0.407(8)
H9A H -0.642(19) 0.723(13) 0.375(12)
H14A H -0.713(17) 0.360(12) 0.444(7)
H15A H -0.795(10) 0.371(12) 0.559(9)
O9 O 0.3529(16) 0.0988(10) 0.2125(10)
H12 H 0.264(14) 0.117(12) 0.169(10)
H13 H 0.38(2) 0.168(11) 0.226(16)
loop_
_geom_bond_atom_site_label_1
_geom_bond_atom_site_label_2
_geom_bond_site_symmetry_1
_geom_bond_site_symmetry_2
Ni1 O1 1_555 1_555
Ni2 O4 1_555 1_555
O1 H8 1_555 1_555
O2 Ni1 1_555 1_555
O3 C6 1_555 1_555
O4 C6 1_555 1_555
O5 Ni2 1_555 1_555
O6 Ni2 1_555 1_555
O7 C8 1_555 1_555
O8 C8 1_555 1_555
O9 H12 1_555 1_555
N1 Ni1 1_555 1_555
C1 H1 1_555 1_555
C2 N1 1_555 1_555
H2 C2 1_555 1_555
N2 C1 1_555 1_555
H3 N2 1_555 1_555
C3 N1 1_555 1_555
H4 C3 1_555 1_555
C4 H5 1_555 1_555
C5 C4 1_555 1_555
C6 C5 1_555 1_555
C7 C5 1_555 1_555
C8 C7 1_555 1_555
H6 O5 1_555 1_555
H7 O2 1_555 1_555
H9 O5 1_555 1_555
H10 O2 1_555 1_555
H11 O1 1_555 1_555
H13 O9 1_555 1_555
H14 O6 1_555 1_555
H15 O6 1_555 1_555
Ni2_2 O4A 1_555 1_555
O1A Ni1 1_555 1_555
O2A Ni1 1_555 1_555
O3A C6A 1_555 1_555
O4A C6A 1_555 1_555
O4A_2 Ni2 1_555 1_555
O5A Ni2 1_555 1_555
O6A Ni2 1_555 1_555
O7A C8A 1_555 1_555
O8A C8A 1_555 1_555
N1A Ni1 1_555 1_555
C1A H1A 1_555 1_555
C2A N1A 1_555 1_555
H2A C2A 1_555 1_555
N2A C1A 1_555 1_555
H3A N2A 1_555 1_555
C3A N1A 1_555 1_555
H4A C3A 1_555 1_555
C4A C7 1_555 1_555
H5A C4A 1_555 1_555
C5A C4A 1_555 1_555
C6A C5A 1_555 1_555
C7A C4 1_555 1_555
C8A C7A 1_555 1_555
H6A O5A 1_555 1_555
H7A O2A 1_555 1_555
H8A O1A 1_555 1_555
H9A O5A 1_555 1_555
H10A O2A 1_555 1_555
H11A O1A 1_555 1_555
H14A O6A 1_555 1_555
H15A O6A 1_555 1_555
C1 C2 1_555 1_555
N2 C3 1_555 1_555
C1A C2A 1_555 1_555
N2A C3A 1_555 1_555
C5A C7A 1_555 1_555

#END
