
#######################################################################
#
#                 Cambridge Crystallographic Data Centre
#                                CCDC 
#
#######################################################################
#
# If this CIF has been generated from an entry in the Cambridge 
# Structural Database, then it will include bibliographic, chemical, 
# crystal, experimental, refinement or atomic coordinate data resulting 
# from the CCDC's data processing and validation procedures.
#
#######################################################################

data_IFIPET
_symmetry_cell_setting           monoclinic
_symmetry_space_group_name_H-M   'P 21/c'
_symmetry_Int_Tables_number      14
_space_group_name_Hall           '-P 2ybc'
loop_
_symmetry_equiv_pos_site_id
_symmetry_equiv_pos_as_xyz
1 x,y,z
2 -x,1/2+y,1/2-z
3 -x,-y,-z
4 x,1/2-y,1/2+z
_cell_length_a                   16.978(2)
_cell_length_b                   5.4700(8)
_cell_length_c                   18.039(3)
_cell_angle_alpha                90
_cell_angle_beta                 106.242(2)
_cell_angle_gamma                90
_cell_volume                     1608.41
loop_
_atom_site_label
_atom_site_type_symbol
_atom_site_fract_x
_atom_site_fract_y
_atom_site_fract_z
Co1 Co 0.0000 0.0000 0.0000
Fe1 Fe -0.5000 1.0000 0.0000
O1 O 0.09818(8) 0.2085(2) 0.06517(8)
O2 O 0.16420(9) -0.0598(3) 0.15449(9)
O3 O -0.31956(10) 1.0122(3) -0.04319(10)
O4 O -0.39925(8) 0.7673(3) 0.00450(8)
O5 O -0.44244(9) 1.2896(3) -0.03743(9)
H1 H -0.4309(15) 1.432(3) -0.0166(15)
H2 H -0.4002(11) 1.215(4) -0.0440(16)
O6 O 0.04120(9) -0.3115(3) 0.07131(9)
H3 H 0.0834(10) -0.245(4) 0.1037(12)
H4 H 0.0516(14) -0.458(2) 0.0584(14)
N1 N 0.44525(10) 0.5892(3) 0.37630(9)
N2 N -0.07042(10) 0.1072(3) 0.07967(10)
C1 C 0.46418(13) 0.7837(4) 0.33944(12)
H5 H 0.5053 0.8886 0.3665
C2 C 0.42512(13) 0.8347(4) 0.26295(13)
H6 H 0.4408 0.9703 0.2394
C3 C 0.36288(13) 0.6849(4) 0.22153(12)
H7 H 0.3355 0.7195 0.1703
C4 C 0.34204(12) 0.4809(4) 0.25809(12)
C5 C 0.38604(13) 0.4410(4) 0.33473(12)
H8 H 0.3736 0.3019 0.3589
C6 C 0.27735(12) 0.3066(4) 0.22106(12)
H9 H 0.2775 0.1582 0.2463
C7 C 0.21916(12) 0.3372(4) 0.15611(11)
H10 H 0.2170 0.4835 0.1294
C8 C 0.15669(11) 0.1458(4) 0.12395(11)
C9 C -0.05041(14) 0.0277(5) 0.15296(13)
H11 H -0.0039 -0.0691 0.1706
C10 C -0.09574(16) 0.0833(5) 0.20320(14)
H12 H -0.0803 0.0227 0.2534
C11 C -0.16439(14) 0.2298(5) 0.17832(13)
H13 H -0.1962 0.2674 0.2112
C12 C -0.18507(12) 0.3200(4) 0.10353(12)
C13 C -0.13670(12) 0.2492(4) 0.05668(12)
H14 H -0.1515 0.3044 0.0059
C14 C -0.25601(12) 0.4836(4) 0.07356(12)
H15 H -0.3018 0.4596 0.0914
C15 C -0.25919(12) 0.6613(4) 0.02345(12)
H16 H -0.2131 0.6856 0.0061
C16 C -0.33064(12) 0.8265(4) -0.00772(12)
Fe1C Fe 0.5000 0.5000 0.5000
Fe1C_2 Fe -0.5000 -0.5000 -0.5000
Fe1_2 Fe 0.5000 -1.0000 0.0000
O1B O -0.09818(8) -0.2085(2) -0.06517(8)
O2B O -0.16420(9) 0.0598(3) -0.15449(9)
O3B O 0.31956(10) -1.0122(3) 0.04319(10)
O4B O 0.39925(8) -0.7673(3) -0.00450(8)
O4B_2 O -0.60075(8) 1.2327(3) -0.00450(8)
O5B O -0.55756(9) 0.7104(3) 0.03743(9)
H1B H -0.5691(15) 0.568(3) 0.0166(15)
H2B H -0.5998(11) 0.785(4) 0.0440(16)
O6B O -0.04120(9) 0.3115(3) -0.07131(9)
H3B H -0.0834(10) 0.245(4) -0.1037(12)
H4B H -0.0516(14) 0.458(2) -0.0584(14)
N1B N -0.44525(10) -0.5892(3) -0.37630(9)
N1C N -0.55475(10) 0.9108(3) -0.12370(9)
N1A N -0.44525(10) 1.0892(3) 0.12370(9)
N2B N 0.07042(10) -0.1072(3) -0.07967(10)
C1B C -0.46418(13) -0.7837(4) -0.33944(12)
H5B H -0.5053 -0.8886 -0.3665
C2B C -0.42512(13) -0.8347(4) -0.26295(13)
H6B H -0.4408 -0.9703 -0.2394
C3B C -0.36288(13) -0.6849(4) -0.22153(12)
H7B H -0.3355 -0.7195 -0.1703
C4B C -0.34204(12) -0.4809(4) -0.25809(12)
C5B C -0.38604(13) -0.4410(4) -0.33473(12)
H8B H -0.3736 -0.3019 -0.3589
C6B C -0.27735(12) -0.3066(4) -0.22106(12)
H9B H -0.2775 -0.1582 -0.2463
C7B C -0.21916(12) -0.3372(4) -0.15611(11)
H10B H -0.2170 -0.4835 -0.1294
C8B C -0.15669(11) -0.1458(4) -0.12395(11)
C9B C 0.05041(14) -0.0277(5) -0.15296(13)
H11B H 0.0039 0.0691 -0.1706
C10B C 0.09574(16) -0.0833(5) -0.20320(14)
H12B H 0.0803 -0.0227 -0.2534
C11B C 0.16439(14) -0.2298(5) -0.17832(13)
H13B H 0.1962 -0.2674 -0.2112
C12B C 0.18507(12) -0.3200(4) -0.10353(12)
C13B C 0.13670(12) -0.2492(4) -0.05668(12)
H14B H 0.1515 -0.3044 -0.0059
C14B C 0.25601(12) -0.4836(4) -0.07356(12)
H15B H 0.3018 -0.4596 -0.0914
C15B C 0.25919(12) -0.6613(4) -0.02345(12)
H16B H 0.2131 -0.6856 -0.0061
C16B C 0.33064(12) -0.8265(4) 0.00772(12)
loop_
_geom_bond_atom_site_label_1
_geom_bond_atom_site_label_2
_geom_bond_site_symmetry_1
_geom_bond_site_symmetry_2
Co1 O1 1_555 1_555
Fe1 O4 1_555 1_555
O1 C8 1_555 1_555
O2 C8 1_555 1_555
O3 C16 1_555 1_555
O4 C16 1_555 1_555
O5 Fe1 1_555 1_555
H1 O5 1_555 1_555
H2 O5 1_555 1_555
O6 Co1 1_555 1_555
H3 O6 1_555 1_555
H4 O6 1_555 1_555
N1 C1 1_555 1_555
N2 Co1 1_555 1_555
C1 H5 1_555 1_555
C2 C1 1_555 1_555
H6 C2 1_555 1_555
C3 C2 1_555 1_555
H7 C3 1_555 1_555
C4 C3 1_555 1_555
C5 N1 1_555 1_555
H8 C5 1_555 1_555
C6 C4 1_555 1_555
H9 C6 1_555 1_555
C7 C6 1_555 1_555
H10 C7 1_555 1_555
C8 C7 1_555 1_555
C9 N2 1_555 1_555
H11 C9 1_555 1_555
C10 C9 1_555 1_555
H12 C10 1_555 1_555
C11 C10 1_555 1_555
H13 C11 1_555 1_555
C12 C11 1_555 1_555
C13 N2 1_555 1_555
H14 C13 1_555 1_555
C14 C12 1_555 1_555
H15 C14 1_555 1_555
C15 C14 1_555 1_555
H16 C15 1_555 1_555
C16 C15 1_555 1_555
Fe1C N1 1_555 1_555
Fe1C_2 N1B 1_555 1_555
Fe1_2 O4B 1_555 1_555
O1B Co1 1_555 1_555
O2B C8B 1_555 1_555
O3B C16B 1_555 1_555
O4B C16B 1_555 1_555
O4B_2 Fe1 1_555 1_555
O5B Fe1 1_555 1_555
H1B O5B 1_555 1_555
H2B O5B 1_555 1_555
O6B Co1 1_555 1_555
H3B O6B 1_555 1_555
H4B O6B 1_555 1_555
N1B C1B 1_555 1_555
N1C Fe1 1_555 1_555
N1A Fe1 1_555 1_555
N2B Co1 1_555 1_555
C1B H5B 1_555 1_555
C2B C1B 1_555 1_555
H6B C2B 1_555 1_555
C3B C2B 1_555 1_555
H7B C3B 1_555 1_555
C4B C3B 1_555 1_555
C5B N1B 1_555 1_555
H8B C5B 1_555 1_555
C6B C4B 1_555 1_555
H9B C6B 1_555 1_555
C7B C6B 1_555 1_555
H10B C7B 1_555 1_555
C8B O1B 1_555 1_555
C9B N2B 1_555 1_555
H11B C9B 1_555 1_555
C10B C9B 1_555 1_555
H12B C10B 1_555 1_555
C11B C10B 1_555 1_555
H13B C11B 1_555 1_555
C12B C11B 1_555 1_555
C13B N2B 1_555 1_555
H14B C13B 1_555 1_555
C14B C12B 1_555 1_555
H15B C14B 1_555 1_555
C15B C14B 1_555 1_555
H16B C15B 1_555 1_555
C16B C15B 1_555 1_555
C4 C5 1_555 1_555
C12 C13 1_555 1_555
C4B C5B 1_555 1_555
C7B C8B 1_555 1_555
C12B C13B 1_555 1_555

#END
