
#######################################################################
#
#                 Cambridge Crystallographic Data Centre
#                                CCDC 
#
#######################################################################
#
# If this CIF has been generated from an entry in the Cambridge 
# Structural Database, then it will include bibliographic, chemical, 
# crystal, experimental, refinement or atomic coordinate data resulting 
# from the CCDC's data processing and validation procedures.
#
#######################################################################

data_IFIQIX
_symmetry_cell_setting           monoclinic
_symmetry_space_group_name_H-M   'P 21/a'
_symmetry_Int_Tables_number      14
_space_group_name_Hall           '-P 2yab'
loop_
_symmetry_equiv_pos_site_id
_symmetry_equiv_pos_as_xyz
1 x,y,z
2 1/2-x,1/2+y,-z
3 -x,-y,-z
4 1/2+x,1/2-y,z
_cell_length_a                   9.688(1)
_cell_length_b                   7.5495(9)
_cell_length_c                   37.281(5)
_cell_angle_alpha                90
_cell_angle_beta                 96.70(3)
_cell_angle_gamma                90
_cell_volume                     2708.09
loop_
_atom_site_label
_atom_site_type_symbol
_atom_site_fract_x
_atom_site_fract_y
_atom_site_fract_z
Co1 Co 0.79083 0.49114 0.45863
O1 O 0.93609 0.28776 0.47148
O2 O 0.75592 0.50684 0.51308
H1 H 0.30535 0.75817 0.04083
C1 C 0.26269 0.70736 0.06422
H2 H 0.15818 0.75604 0.06442
H3 H 0.26137 0.56466 0.06328
C2 C 0.35319 0.76929 0.09879
H4 H 0.45771 0.72062 0.09859
H5 H 0.35451 0.91200 0.09973
C3 C 0.29210 0.69653 0.13228
H6 H 0.18759 0.74520 0.13248
H7 H 0.29078 0.55382 0.13134
C4 C 0.38260 0.75845 0.16685
H8 H 0.48711 0.70978 0.16665
H9 H 0.38392 0.90116 0.16779
C5 C 0.32151 0.68570 0.20034
H10 H 0.21700 0.73437 0.20054
H11 H 0.32019 0.54299 0.19940
C6 C 0.41201 0.74762 0.23491
H12 H 0.51652 0.69894 0.23471
H13 H 0.41333 0.89033 0.23585
C7 C 0.35092 0.67486 0.26840
H14 H 0.24641 0.72354 0.26860
H15 H 0.34959 0.53215 0.26746
C8 C 0.44142 0.73678 0.30296
H16 H 0.54593 0.68810 0.30277
H17 H 0.44275 0.87949 0.30391
C9 C 0.38033 0.66403 0.33646
H18 H 0.27581 0.71271 0.33666
H19 H 0.37900 0.52132 0.33551
C10 C 0.47083 0.72594 0.37102
H20 H 0.57534 0.67726 0.37082
H21 H 0.47216 0.86865 0.37197
C11 C 0.40974 0.65319 0.40452
H22 H 0.30522 0.70188 0.40472
H23 H 0.40841 0.51048 0.40357
C12 C 0.50024 0.71511 0.43908
O3 O 0.62865 0.69014 0.44246
O4 O 0.44510 0.79020 0.46369
H24 H 0.54007 0.30095 0.00259
C13 C 0.50587 0.23933 0.02610
H25 H 0.53096 0.10020 0.02623
H26 H 0.39505 0.25541 0.02547
C14 C 0.57968 0.32733 0.06051
H27 H 0.55459 0.46646 0.06038
H28 H 0.69050 0.31125 0.06115
C15 C 0.53070 0.23908 0.09418
H29 H 0.55580 0.09996 0.09430
H30 H 0.41988 0.25516 0.09354
C16 C 0.60451 0.32708 0.12859
H31 H 0.57942 0.46621 0.12846
H32 H 0.71533 0.31101 0.12923
C17 C 0.55554 0.23884 0.16226
H33 H 0.58063 0.09971 0.16238
H34 H 0.44472 0.25491 0.16162
C18 C 0.62934 0.32684 0.19667
H35 H 0.60425 0.46597 0.19654
H36 H 0.74017 0.31077 0.19730
C19 C 0.58037 0.23859 0.23034
H37 H 0.60547 0.09946 0.23046
H38 H 0.46955 0.25466 0.22970
C20 C 0.65418 0.32659 0.26475
H39 H 0.62908 0.46572 0.26462
H40 H 0.76500 0.31052 0.26538
C21 C 0.60520 0.23834 0.29842
H41 H 0.63031 0.09922 0.29854
H42 H 0.49438 0.25441 0.29778
C22 C 0.67901 0.32635 0.33283
H43 H 0.65391 0.46547 0.33270
H44 H 0.78983 0.31028 0.33346
C23 C 0.63004 0.23810 0.36650
H45 H 0.65514 0.09897 0.36662
H46 H 0.51922 0.25416 0.36586
C24 C 0.70384 0.32610 0.40090
O5 O 0.69600 0.25765 0.43113
O6 O 0.77144 0.46581 0.39854
O4C O 0.94510 0.70980 0.46369
Co1C Co 0.29083 1.00886 0.45863
loop_
_geom_bond_atom_site_label_1
_geom_bond_atom_site_label_2
_geom_bond_site_symmetry_1
_geom_bond_site_symmetry_2
Co1 O1 1_555 1_555
O2 Co1 1_555 1_555
H1 C1 1_555 1_555
C1 H2 1_555 1_555
H3 C1 1_555 1_555
C2 C1 1_555 1_555
H4 C2 1_555 1_555
H5 C2 1_555 1_555
C3 C2 1_555 1_555
H6 C3 1_555 1_555
H7 C3 1_555 1_555
C4 C3 1_555 1_555
H8 C4 1_555 1_555
H9 C4 1_555 1_555
C5 C4 1_555 1_555
H10 C5 1_555 1_555
H11 C5 1_555 1_555
C6 C5 1_555 1_555
H12 C6 1_555 1_555
H13 C6 1_555 1_555
C7 C6 1_555 1_555
H14 C7 1_555 1_555
H15 C7 1_555 1_555
C8 C7 1_555 1_555
H16 C8 1_555 1_555
H17 C8 1_555 1_555
C9 C8 1_555 1_555
H18 C9 1_555 1_555
H19 C9 1_555 1_555
C10 C9 1_555 1_555
H20 C10 1_555 1_555
H21 C10 1_555 1_555
C11 C10 1_555 1_555
H22 C11 1_555 1_555
H23 C11 1_555 1_555
C12 C11 1_555 1_555
O3 Co1 1_555 1_555
O4 C12 1_555 1_555
H24 C13 1_555 1_555
C13 H25 1_555 1_555
H26 C13 1_555 1_555
C14 C13 1_555 1_555
H27 C14 1_555 1_555
H28 C14 1_555 1_555
C15 C14 1_555 1_555
H29 C15 1_555 1_555
H30 C15 1_555 1_555
C16 C15 1_555 1_555
H31 C16 1_555 1_555
H32 C16 1_555 1_555
C17 C16 1_555 1_555
H33 C17 1_555 1_555
H34 C17 1_555 1_555
C18 C17 1_555 1_555
H35 C18 1_555 1_555
H36 C18 1_555 1_555
C19 C18 1_555 1_555
H37 C19 1_555 1_555
H38 C19 1_555 1_555
C20 C19 1_555 1_555
H39 C20 1_555 1_555
H40 C20 1_555 1_555
C21 C20 1_555 1_555
H41 C21 1_555 1_555
H42 C21 1_555 1_555
C22 C21 1_555 1_555
H43 C22 1_555 1_555
H44 C22 1_555 1_555
C23 C22 1_555 1_555
H45 C23 1_555 1_555
H46 C23 1_555 1_555
C24 C23 1_555 1_555
O5 Co1 1_555 1_555
O6 Co1 1_555 1_555
O4C Co1 1_555 1_555
Co1C O4 1_555 1_555
C12 O3 1_555 1_555
C24 O5 1_555 1_555
C24 O6 1_555 1_555

#END
