
#######################################################################
#
#                 Cambridge Crystallographic Data Centre
#                                CCDC 
#
#######################################################################
#
# If this CIF has been generated from an entry in the Cambridge 
# Structural Database, then it will include bibliographic, chemical, 
# crystal, experimental, refinement or atomic coordinate data resulting 
# from the CCDC's data processing and validation procedures.
#
#######################################################################

data_IFIQOD
_symmetry_cell_setting           monoclinic
_symmetry_space_group_name_H-M   'P 21/a'
_symmetry_Int_Tables_number      14
_space_group_name_Hall           '-P 2yab'
loop_
_symmetry_equiv_pos_site_id
_symmetry_equiv_pos_as_xyz
1 x,y,z
2 1/2-x,1/2+y,-z
3 -x,-y,-z
4 1/2+x,1/2-y,z
_cell_length_a                   9.7260(7)
_cell_length_b                   7.5477(7)
_cell_length_c                   57.53(1)
_cell_angle_alpha                90
_cell_angle_beta                 94.66(4)
_cell_angle_gamma                90
_cell_volume                     4209.26
loop_
_atom_site_label
_atom_site_type_symbol
_atom_site_fract_x
_atom_site_fract_y
_atom_site_fract_z
Co1 Co 0.78496 0.48297 0.47701
O1 O 0.94571 0.31708 0.48029
O2 O 0.79726 0.51555 0.51162
H1 H 0.29597 0.77313 0.02792
C1 C 0.25838 0.70900 0.04290
H2 H 0.14845 0.72796 0.04273
H3 H 0.28091 0.56929 0.04237
C2 C 0.32975 0.79012 0.06539
H4 H 0.43969 0.77116 0.06556
H5 H 0.30722 0.92984 0.06592
C3 C 0.27592 0.69829 0.08685
H6 H 0.16599 0.71725 0.08667
H7 H 0.29845 0.55858 0.08631
C4 C 0.34729 0.77941 0.10933
H8 H 0.45723 0.76045 0.10950
H9 H 0.32477 0.91913 0.10986
C5 C 0.29347 0.68758 0.13079
H10 H 0.18353 0.70655 0.13061
H11 H 0.31599 0.54787 0.13025
C6 C 0.36484 0.76870 0.15327
H12 H 0.47477 0.74974 0.15345
H13 H 0.34231 0.90842 0.15381
C7 C 0.31101 0.67687 0.17473
H14 H 0.20107 0.69584 0.17455
H15 H 0.33353 0.53716 0.17419
C8 C 0.38238 0.75799 0.19721
H16 H 0.49232 0.73902 0.19739
H17 H 0.35986 0.89770 0.19775
C9 C 0.32855 0.66616 0.21867
H18 H 0.21862 0.68513 0.21849
H19 H 0.35107 0.52645 0.21813
C10 C 0.39992 0.74728 0.24115
H20 H 0.50986 0.72831 0.24133
H21 H 0.37741 0.88699 0.24169
C11 C 0.34609 0.65546 0.26261
H22 H 0.23616 0.67443 0.26244
H23 H 0.36861 0.51574 0.26208
C12 C 0.41747 0.73657 0.28509
H24 H 0.52740 0.71759 0.28527
H25 H 0.39495 0.87628 0.28563
C13 C 0.36364 0.64475 0.30655
H26 H 0.25370 0.66372 0.30638
H27 H 0.38615 0.50503 0.30602
C14 C 0.43501 0.72586 0.32904
H28 H 0.54495 0.70688 0.32921
H29 H 0.41250 0.86557 0.32957
C15 C 0.38118 0.63404 0.35050
H30 H 0.27124 0.65301 0.35032
H31 H 0.40369 0.49432 0.34996
C16 C 0.45256 0.71515 0.37298
H32 H 0.56249 0.69617 0.37315
H33 H 0.43004 0.85486 0.37352
C17 C 0.39872 0.62333 0.39444
H34 H 0.28879 0.64231 0.39426
H35 H 0.42123 0.48361 0.39390
C18 C 0.47010 0.70444 0.41692
H36 H 0.58003 0.68545 0.41710
H37 H 0.44759 0.84415 0.41746
C19 C 0.41626 0.61262 0.43838
H38 H 0.30633 0.63160 0.43820
H39 H 0.43877 0.47290 0.43784
C20 C 0.48764 0.69372 0.46086
O3 O 0.61312 0.66644 0.46609
O4 O 0.41996 0.78667 0.47384
H40 H 0.52874 0.25962 0.00435
C21 C 0.49396 0.19855 0.01976
H41 H 0.52236 0.06046 0.02015
H42 H 0.38339 0.21028 0.01951
C22 C 0.56185 0.29207 0.04164
H43 H 0.53345 0.43016 0.04126
H44 H 0.67242 0.28034 0.04189
C23 C 0.51205 0.20461 0.06372
H45 H 0.54045 0.06652 0.06411
H46 H 0.40148 0.21633 0.06347
C24 C 0.57993 0.29813 0.08560
H47 H 0.55153 0.43622 0.08521
H48 H 0.69050 0.28640 0.08585
C25 C 0.53013 0.21066 0.10768
H49 H 0.55853 0.07258 0.10806
H50 H 0.41956 0.22239 0.10743
C26 C 0.59802 0.30419 0.12956
H51 H 0.56961 0.44228 0.12917
H52 H 0.70859 0.29247 0.12981
C27 C 0.54822 0.21672 0.15164
H53 H 0.57662 0.07864 0.15202
H54 H 0.43765 0.22845 0.15139
C28 C 0.61610 0.31025 0.17352
H55 H 0.58769 0.44834 0.17313
H56 H 0.72667 0.29853 0.17377
C29 C 0.56630 0.22278 0.19560
H57 H 0.59471 0.08470 0.19598
H58 H 0.45573 0.23450 0.19535
C30 C 0.63418 0.31631 0.21748
H59 H 0.60577 0.45440 0.21709
H60 H 0.74475 0.30460 0.21772
C31 C 0.58438 0.22884 0.23955
H61 H 0.61279 0.09076 0.23994
H62 H 0.47381 0.24056 0.23931
C32 C 0.65226 0.32237 0.26143
H63 H 0.62385 0.46046 0.26105
H64 H 0.76283 0.31066 0.26168
C33 C 0.60247 0.23490 0.28351
H65 H 0.63088 0.09682 0.28390
H66 H 0.49190 0.24661 0.28326
C34 C 0.67035 0.32843 0.30539
H67 H 0.64193 0.46652 0.30501
H68 H 0.78092 0.31672 0.30564
C35 C 0.62055 0.24096 0.32747
H69 H 0.64896 0.10288 0.32786
H70 H 0.50998 0.25267 0.32722
C36 C 0.68843 0.33450 0.34935
H71 H 0.66001 0.47258 0.34896
H72 H 0.79900 0.32279 0.34960
C37 C 0.63864 0.24702 0.37143
H73 H 0.66705 0.10894 0.37181
H74 H 0.52806 0.25873 0.37118
C38 C 0.70651 0.34056 0.39331
H75 H 0.67809 0.47864 0.39292
H76 H 0.81708 0.32885 0.39356
C39 C 0.65672 0.25308 0.41539
H77 H 0.68514 0.11500 0.41577
H78 H 0.54615 0.26478 0.41514
C40 C 0.72459 0.34662 0.43727
O5 O 0.79584 0.25956 0.45230
O6 O 0.70830 0.50940 0.43995
O4C O 0.91996 0.71333 0.47384
Co1C Co 0.28496 1.01703 0.47701
loop_
_geom_bond_atom_site_label_1
_geom_bond_atom_site_label_2
_geom_bond_site_symmetry_1
_geom_bond_site_symmetry_2
Co1 O1 1_555 1_555
O2 Co1 1_555 1_555
H1 C1 1_555 1_555
C1 H2 1_555 1_555
H3 C1 1_555 1_555
C2 C1 1_555 1_555
H4 C2 1_555 1_555
H5 C2 1_555 1_555
C3 C2 1_555 1_555
H6 C3 1_555 1_555
H7 C3 1_555 1_555
C4 C3 1_555 1_555
H8 C4 1_555 1_555
H9 C4 1_555 1_555
C5 C4 1_555 1_555
H10 C5 1_555 1_555
H11 C5 1_555 1_555
C6 C5 1_555 1_555
H12 C6 1_555 1_555
H13 C6 1_555 1_555
C7 C6 1_555 1_555
H14 C7 1_555 1_555
H15 C7 1_555 1_555
C8 C7 1_555 1_555
H16 C8 1_555 1_555
H17 C8 1_555 1_555
C9 C8 1_555 1_555
H18 C9 1_555 1_555
H19 C9 1_555 1_555
C10 C9 1_555 1_555
H20 C10 1_555 1_555
H21 C10 1_555 1_555
C11 C10 1_555 1_555
H22 C11 1_555 1_555
H23 C11 1_555 1_555
C12 C11 1_555 1_555
H24 C12 1_555 1_555
H25 C12 1_555 1_555
C13 C12 1_555 1_555
H26 C13 1_555 1_555
H27 C13 1_555 1_555
C14 C13 1_555 1_555
H28 C14 1_555 1_555
H29 C14 1_555 1_555
C15 C14 1_555 1_555
H30 C15 1_555 1_555
H31 C15 1_555 1_555
C16 C15 1_555 1_555
H32 C16 1_555 1_555
H33 C16 1_555 1_555
C17 C16 1_555 1_555
H34 C17 1_555 1_555
H35 C17 1_555 1_555
C18 C17 1_555 1_555
H36 C18 1_555 1_555
H37 C18 1_555 1_555
C19 C18 1_555 1_555
H38 C19 1_555 1_555
H39 C19 1_555 1_555
C20 C19 1_555 1_555
O3 Co1 1_555 1_555
O4 C20 1_555 1_555
H40 C21 1_555 1_555
C21 H41 1_555 1_555
H42 C21 1_555 1_555
C22 C21 1_555 1_555
H43 C22 1_555 1_555
H44 C22 1_555 1_555
C23 C22 1_555 1_555
H45 C23 1_555 1_555
H46 C23 1_555 1_555
C24 C23 1_555 1_555
H47 C24 1_555 1_555
H48 C24 1_555 1_555
C25 C24 1_555 1_555
H49 C25 1_555 1_555
H50 C25 1_555 1_555
C26 C25 1_555 1_555
H51 C26 1_555 1_555
H52 C26 1_555 1_555
C27 C26 1_555 1_555
H53 C27 1_555 1_555
H54 C27 1_555 1_555
C28 C27 1_555 1_555
H55 C28 1_555 1_555
H56 C28 1_555 1_555
C29 C28 1_555 1_555
H57 C29 1_555 1_555
H58 C29 1_555 1_555
C30 C29 1_555 1_555
H59 C30 1_555 1_555
H60 C30 1_555 1_555
C31 C30 1_555 1_555
H61 C31 1_555 1_555
H62 C31 1_555 1_555
C32 C31 1_555 1_555
H63 C32 1_555 1_555
H64 C32 1_555 1_555
C33 C32 1_555 1_555
H65 C33 1_555 1_555
H66 C33 1_555 1_555
C34 C33 1_555 1_555
H67 C34 1_555 1_555
H68 C34 1_555 1_555
C35 C34 1_555 1_555
H69 C35 1_555 1_555
H70 C35 1_555 1_555
C36 C35 1_555 1_555
H71 C36 1_555 1_555
H72 C36 1_555 1_555
C37 C36 1_555 1_555
H73 C37 1_555 1_555
H74 C37 1_555 1_555
C38 C37 1_555 1_555
H75 C38 1_555 1_555
H76 C38 1_555 1_555
C39 C38 1_555 1_555
H77 C39 1_555 1_555
H78 C39 1_555 1_555
C40 C39 1_555 1_555
O5 Co1 1_555 1_555
O6 Co1 1_555 1_555
O4C Co1 1_555 1_555
Co1C O4 1_555 1_555
C20 O3 1_555 1_555
C40 O5 1_555 1_555
C40 O6 1_555 1_555

#END
