
#######################################################################
#
#                 Cambridge Crystallographic Data Centre
#                                CCDC 
#
#######################################################################
#
# If this CIF has been generated from an entry in the Cambridge 
# Structural Database, then it will include bibliographic, chemical, 
# crystal, experimental, refinement or atomic coordinate data resulting 
# from the CCDC's data processing and validation procedures.
#
#######################################################################

data_IFISEW
_symmetry_cell_setting           orthorhombic
_symmetry_space_group_name_H-M   'P 21 21 21'
_symmetry_Int_Tables_number      19
_space_group_name_Hall           'P 2ac 2ab'
loop_
_symmetry_equiv_pos_site_id
_symmetry_equiv_pos_as_xyz
1 x,y,z
2 1/2-x,-y,1/2+z
3 -x,1/2+y,1/2-z
4 1/2+x,1/2-y,-z
_cell_length_a                   8.9792(6)
_cell_length_b                   10.0002(7)
_cell_length_c                   26.8402(18)
_cell_angle_alpha                90
_cell_angle_beta                 90
_cell_angle_gamma                90
_cell_volume                     2410.08
loop_
_atom_site_label
_atom_site_type_symbol
_atom_site_fract_x
_atom_site_fract_y
_atom_site_fract_z
Zn1 Zn 0.61881(6) 1.16540(5) 0.489399(17)
Zn2 Zn 0.11514(6) 0.84527(5) 0.543130(17)
P1 P 0.30720(13) 1.07494(10) 0.50154(5)
P2 P 0.78353(13) 0.89791(11) 0.50451(5)
Cl1 Cl 0.07884(16) 0.90960(13) 0.62061(5)
O1 O 0.4446(3) 1.1159(2) 0.53088(10)
O2 O 0.2792(3) 0.9262(2) 0.50647(11)
O3 O 0.1682(3) 1.1530(3) 0.51403(10)
O4 O 0.6803(3) 0.8447(3) 0.46410(9)
O5 O 0.7775(3) 1.0486(2) 0.50856(11)
O6 O 0.9419(3) 0.8460(3) 0.49891(9)
C1 C 0.3513(5) 1.1113(4) 0.43692(15)
H1 H 0.2954 1.0516 0.4154
H2 H 0.3220 1.2023 0.4292
C2 C 0.7151(4) 0.8323(5) 0.56417(14)
H3 H 0.7375 0.7376 0.5664
H4 H 0.7656 0.8773 0.5913
C3 C 0.5609(5) 1.1470(5) 0.37721(16)
H5 H 0.5265 1.2397 0.3746
C4 C 0.7291(5) 1.1478(6) 0.37489(16)
H6 H 0.7607 1.1837 0.3434
H7 H 0.7658 1.0581 0.3783
H8 H 0.7678 1.2021 0.4014
C5 C 0.4903(6) 1.0683(5) 0.33521(17)
C6 C 0.4003(7) 1.1300(5) 0.30135(19)
H9 H 0.3799 1.2208 0.3046
C7 C 0.3391(8) 1.0590(7) 0.2623(2)
H10 H 0.2772 1.1015 0.2395
C8 C 0.3699(9) 0.9263(7) 0.2574(2)
H11 H 0.3316 0.8787 0.2305
C9 C 0.4575(7) 0.8623(6) 0.2921(2)
H12 H 0.4761 0.7711 0.2895
C10 C 0.5170(6) 0.9346(5) 0.33053(18)
H13 H 0.5767 0.8918 0.3539
C11 C 0.4867(5) 0.8163(5) 0.61989(15)
H14 H 0.3788 0.8300 0.6176
C12 C 0.5103(6) 0.6685(5) 0.62930(16)
H15 H 0.4703 0.6452 0.6613
H16 H 0.6150 0.6489 0.6286
H17 H 0.4606 0.6176 0.6039
C13 C 0.5424(5) 0.9116(5) 0.65875(17)
C14 C 0.4849(7) 1.0360(6) 0.6621(2)
H18 H 0.4096 1.0609 0.6401
C15 C 0.5341(8) 1.1273(7) 0.6969(2)
H19 H 0.4944 1.2131 0.6976
C16 C 0.6400(8) 1.0916(7) 0.7299(2)
H20 H 0.6717 1.1519 0.7541
C17 C 0.6994(8) 0.9687(7) 0.7278(2)
H21 H 0.7730 0.9438 0.7504
C18 C 0.6510(7) 0.8787(6) 0.6919(2)
H22 H 0.6938 0.7941 0.6904
N1 N 0.5143(4) 1.0945(4) 0.42714(12)
H23 H 0.5313 1.0057 0.4262
N2 N 0.5509(4) 0.8527(4) 0.56898(11)
H24 H 0.5314 0.9394 0.5624
H25 H 0.5053 0.8029 0.5455
Zn1C Zn 0.11881(6) 1.33460(5) 0.510601(17)
Zn2C Zn 0.61514(6) 0.65473(5) 0.456870(17)
Zn2_2 Zn 1.11514(6) 0.84527(5) 0.543130(17)
O3C O 0.6682(3) 1.3470(3) 0.48597(10)
O4C O 0.1803(3) 0.6553(3) 0.53590(9)
O6_2 O -0.0581(3) 0.8460(3) 0.49891(9)
loop_
_geom_bond_atom_site_label_1
_geom_bond_atom_site_label_2
_geom_bond_site_symmetry_1
_geom_bond_site_symmetry_2
Zn1 O1 1_555 1_555
Zn2 Cl1 1_555 1_555
P1 O1 1_555 1_555
P2 O4 1_555 1_555
O2 Zn2 1_555 1_555
O3 P1 1_555 1_555
O4 Zn2C 1_555 1_555
O5 Zn1 1_555 1_555
O6 P2 1_555 1_555
C1 P1 1_555 1_555
H1 C1 1_555 1_555
H2 C1 1_555 1_555
C2 P2 1_555 1_555
H3 C2 1_555 1_555
H4 C2 1_555 1_555
C3 H5 1_555 1_555
C4 C3 1_555 1_555
H6 C4 1_555 1_555
H7 C4 1_555 1_555
H8 C4 1_555 1_555
C5 C3 1_555 1_555
C6 C5 1_555 1_555
H9 C6 1_555 1_555
C7 C6 1_555 1_555
H10 C7 1_555 1_555
C8 C7 1_555 1_555
H11 C8 1_555 1_555
C9 C8 1_555 1_555
H12 C9 1_555 1_555
C10 C5 1_555 1_555
H13 C10 1_555 1_555
C11 H14 1_555 1_555
C12 C11 1_555 1_555
H15 C12 1_555 1_555
H16 C12 1_555 1_555
H17 C12 1_555 1_555
C13 C11 1_555 1_555
C14 C13 1_555 1_555
H18 C14 1_555 1_555
C15 C14 1_555 1_555
H19 C15 1_555 1_555
C16 C15 1_555 1_555
H20 C16 1_555 1_555
C17 C16 1_555 1_555
H21 C17 1_555 1_555
C18 C13 1_555 1_555
H22 C18 1_555 1_555
N1 Zn1 1_555 1_555
H23 N1 1_555 1_555
N2 C2 1_555 1_555
H24 N2 1_555 1_555
H25 N2 1_555 1_555
Zn1C O3 1_555 1_555
Zn2_2 O6 1_555 1_555
O3C Zn1 1_555 1_555
O4C Zn2 1_555 1_555
O6_2 Zn2 1_555 1_555
P1 O2 1_555 1_555
P2 O5 1_555 1_555
C1 N1 1_555 1_555
C3 N1 1_555 1_555
C9 C10 1_555 1_555
C11 N2 1_555 1_555
C17 C18 1_555 1_555

#END
