
#######################################################################
#
#                 Cambridge Crystallographic Data Centre
#                                CCDC 
#
#######################################################################
#
# If this CIF has been generated from an entry in the Cambridge 
# Structural Database, then it will include bibliographic, chemical, 
# crystal, experimental, refinement or atomic coordinate data resulting 
# from the CCDC's data processing and validation procedures.
#
#######################################################################

data_IFIWIE
_symmetry_cell_setting           orthorhombic
_symmetry_space_group_name_H-M   'I 2 2 2'
_symmetry_Int_Tables_number      23
_space_group_name_Hall           'I 2 2'
loop_
_symmetry_equiv_pos_site_id
_symmetry_equiv_pos_as_xyz
1 x,y,z
2 x,-y,-z
3 -x,y,-z
4 -x,-y,z
5 1/2+x,1/2+y,1/2+z
6 1/2+x,1/2-y,1/2-z
7 1/2-x,1/2+y,1/2-z
8 1/2-x,1/2-y,1/2+z
_cell_length_a                   4.9740(11)
_cell_length_b                   9.055(2)
_cell_length_c                   11.472(2)
_cell_angle_alpha                90
_cell_angle_beta                 90
_cell_angle_gamma                90
_cell_volume                     516.694
loop_
_atom_site_label
_atom_site_type_symbol
_atom_site_fract_x
_atom_site_fract_y
_atom_site_fract_z
Ni1 Ni 0.0000 1.0000 0.28627(8)
C1 C 0.1860(13) 0.7202(7) 0.3547(5)
C2 C -0.0499(14) 0.7338(6) 0.4373(4)
H1 H -0.1720 0.6473 0.4257
O1 O 0.2751(9) 0.8349(4) 0.3029(3)
O2 O 0.2902(9) 0.5934(4) 0.3473(4)
O3 O -0.1968(10) 0.8679(5) 0.4121(3)
H2 H -0.3625 0.8936 0.4480
Ni1E Ni 0.5000 0.5000 0.21373(8)
Ni1A Ni 0.0000 1.0000 0.71373(8)
Ni1D Ni -0.5000 0.5000 0.78627(8)
C1B C -0.1860(13) 0.7202(7) 0.6453(5)
C2B C 0.0499(14) 0.7338(6) 0.5627(4)
H1B H 0.1720 0.6473 0.5743
O1B O -0.2751(9) 0.8349(4) 0.6971(3)
O1C O -0.2751(9) 1.1651(4) 0.3029(3)
O2B O -0.2902(9) 0.5934(4) 0.6527(4)
O2E O -0.2098(9) 0.9066(4) 0.1527(4)
O2F O 0.2098(9) 1.0934(4) 0.1527(4)
O3B O 0.1968(10) 0.8679(5) 0.5879(3)
O3C O 0.1968(10) 1.1321(5) 0.4121(3)
H2B H 0.3625 0.8936 0.5520
H2C H 0.3625 1.1064 0.4480
loop_
_geom_bond_atom_site_label_1
_geom_bond_atom_site_label_2
_geom_bond_site_symmetry_1
_geom_bond_site_symmetry_2
Ni1 O1 1_555 1_555
C1 C2 1_555 1_555
C2 H1 1_555 1_555
O1 C1 1_555 1_555
O2 C1 1_555 1_555
O3 Ni1 1_555 1_555
H2 O3 1_555 1_555
Ni1E O2 1_555 1_555
Ni1A O1B 1_555 1_555
Ni1D O2B 1_555 1_555
C1B C2B 1_555 1_555
C2B C2 1_555 1_555
H1B C2B 1_555 1_555
O1B C1B 1_555 1_555
O1C Ni1 1_555 1_555
O2B C1B 1_555 1_555
O2E Ni1 1_555 1_555
O2F Ni1 1_555 1_555
O3B Ni1A 1_555 1_555
O3C Ni1 1_555 1_555
H2B O3B 1_555 1_555
H2C O3C 1_555 1_555
C2 O3 1_555 1_555
C2B O3B 1_555 1_555

#END
