
#######################################################################
#
#                 Cambridge Crystallographic Data Centre
#                                CCDC 
#
#######################################################################
#
# If this CIF has been generated from an entry in the Cambridge 
# Structural Database, then it will include bibliographic, chemical, 
# crystal, experimental, refinement or atomic coordinate data resulting 
# from the CCDC's data processing and validation procedures.
#
#######################################################################

data_IFIYOM
_symmetry_cell_setting           triclinic
_symmetry_space_group_name_H-M   'P -1'
_symmetry_Int_Tables_number      2
_space_group_name_Hall           '-P 1'
loop_
_symmetry_equiv_pos_site_id
_symmetry_equiv_pos_as_xyz
1 x,y,z
2 -x,-y,-z
_cell_length_a                   9.6480(6)
_cell_length_b                   16.1632(9)
_cell_length_c                   17.5764(9)
_cell_angle_alpha                87.570(3)
_cell_angle_beta                 74.285(3)
_cell_angle_gamma                74.177(3)
_cell_volume                     2537.02
loop_
_atom_site_label
_atom_site_type_symbol
_atom_site_fract_x
_atom_site_fract_y
_atom_site_fract_z
Zn1 Zn 0.90393(4) 0.17502(2) 0.22721(2)
Cl1 Cl 0.66257(11) -0.18113(5) 0.10922(6)
N1 N 1.0873(3) 0.22020(15) 0.17770(15)
O1 O 0.7828(3) 0.29205(13) 0.26198(13)
C1 C 0.8204(4) 0.36342(18) 0.26014(18)
Cl2 Cl 0.44020(10) 0.10597(6) 0.29683(5)
N2 N 1.0333(3) 0.07916(16) 0.13731(15)
O2 O 0.7280(3) 0.13450(14) 0.22974(14)
C2 C 0.7073(4) 0.44159(19) 0.29307(19)
C3 C 0.7521(4) 0.51530(19) 0.29533(19)
H1 H 0.6777 0.5659 0.3188
N3 N 0.9437(3) 0.11316(15) 0.32872(15)
C4 C 0.9008(4) 0.52100(18) 0.26511(18)
C5 C 1.0053(4) 0.44804(18) 0.22879(18)
H2 H 1.1051 0.4503 0.2051
C6 C 0.9686(3) 0.36911(18) 0.22557(17)
C7 C 1.0901(3) 0.29971(18) 0.18352(18)
H3 H 1.1810 0.3131 0.1575
C8 C 0.5439(4) 0.4400(2) 0.3269(2)
C9 C 0.5298(5) 0.3826(3) 0.3994(2)
H4 H 0.5936 0.3241 0.3837
H5 H 0.4255 0.3811 0.4202
H6 H 0.5614 0.4060 0.4404
C10 C 0.4874(4) 0.4073(3) 0.2639(2)
H7 H 0.4946 0.4453 0.2189
H8 H 0.3829 0.4070 0.2863
H9 H 0.5485 0.3488 0.2462
C11 C 0.4398(5) 0.5303(2) 0.3548(3)
H10 H 0.4675 0.5516 0.3985
H11 H 0.3360 0.5273 0.3729
H12 H 0.4499 0.5696 0.3109
C12 C 0.9378(4) 0.60539(19) 0.2757(2)
C13 C 0.8428(5) 0.6788(2) 0.2378(2)
H13 H 0.8633 0.7331 0.2472
H14 H 0.7365 0.6833 0.2613
H15 H 0.8680 0.6668 0.1808
C14 C 0.9017(5) 0.6258(2) 0.3649(2)
H16 H 0.9648 0.5801 0.3888
H17 H 0.7961 0.6295 0.3899
H18 H 0.9210 0.6809 0.3727
C15 C 1.1028(5) 0.5989(2) 0.2381(2)
H19 H 1.1644 0.5524 0.2622
H20 H 1.1230 0.6534 0.2470
H21 H 1.1272 0.5866 0.1812
C16 C 1.2109(3) 0.15928(18) 0.12966(17)
C17 C 1.3563(4) 0.16718(19) 0.1046(2)
H22 H 1.3788 0.2156 0.1220
C18 C 1.4685(4) 0.1050(2) 0.0546(2)
H23 H 1.5669 0.1118 0.0380
C19 C 1.4404(3) 0.03244(17) 0.02786(17)
C20 C 1.2967(3) 0.02260(18) 0.05659(17)
H24 H 1.2762 -0.0278 0.0418
C21 C 1.1816(3) 0.08481(18) 0.10655(17)
C22 C 0.9872(4) 0.01941(19) 0.11378(19)
H25 H 1.0558 -0.0193 0.0729
C23 C 0.8402(4) 0.00664(19) 0.14446(18)
C24 C 0.8195(4) -0.0679(2) 0.1160(2)
H26 H 0.8981 -0.1042 0.0769
C25 C 0.6864(4) -0.0884(2) 0.1445(2)
C26 C 0.5681(4) -0.0349(2) 0.2008(2)
H27 H 0.4761 -0.0495 0.2203
C27 C 0.5862(4) 0.0382(2) 0.22735(19)
C28 C 0.7208(4) 0.06381(19) 0.20212(18)
C29 C 0.8282(4) 0.1002(2) 0.38592(19)
H28 H 0.7302 0.1220 0.3796
C30 C 0.8451(4) 0.0569(2) 0.45354(19)
H29 H 0.7600 0.0497 0.4928
C31 C 0.9886(3) 0.02364(17) 0.46403(17)
C32 C 1.1080(4) 0.0371(2) 0.40430(18)
H30 H 1.2075 0.0155 0.4085
C33 C 1.0806(4) 0.08216(19) 0.33866(18)
H31 H 1.1632 0.0914 0.2988
Zn1A Zn 2.09607(4) -0.17502(2) -0.22721(2)
Zn1A_2 Zn 1.09607(4) -0.17502(2) 0.77279(2)
Cl1A Cl 2.33743(11) 0.18113(5) -0.10922(6)
N1A N 1.9127(3) -0.22020(15) -0.17770(15)
O1A O 2.2172(3) -0.29205(13) -0.26198(13)
C1A C 2.1796(4) -0.36342(18) -0.26014(18)
Cl2A Cl 2.55980(10) -0.10597(6) -0.29683(5)
N2A N 1.9667(3) -0.07916(16) -0.13731(15)
O2A O 2.2720(3) -0.13450(14) -0.22974(14)
C2A C 2.2927(4) -0.44159(19) -0.29307(19)
C3A C 2.2479(4) -0.51530(19) -0.29533(19)
H1A H 2.3223 -0.5659 -0.3188
N3A N 1.0563(3) -0.11316(15) 0.67128(15)
N3A_2 N 2.0563(3) -0.11316(15) -0.32872(15)
C4A C 2.0992(4) -0.52100(18) -0.26511(18)
C5A C 1.9947(4) -0.44804(18) -0.22879(18)
H2A H 1.8949 -0.4503 -0.2051
C6A C 2.0314(3) -0.36911(18) -0.22557(17)
C7A C 1.9099(3) -0.29971(18) -0.18352(18)
H3A H 1.8190 -0.3131 -0.1575
C8A C 2.4561(4) -0.4400(2) -0.3269(2)
C9A C 2.4702(5) -0.3826(3) -0.3994(2)
H4A H 2.4064 -0.3241 -0.3837
H5A H 2.5745 -0.3811 -0.4202
H6A H 2.4386 -0.4060 -0.4404
C10A C 2.5126(4) -0.4073(3) -0.2639(2)
H7A H 2.5054 -0.4453 -0.2189
H8A H 2.6171 -0.4070 -0.2863
H9A H 2.4515 -0.3488 -0.2462
C11A C 2.5602(5) -0.5303(2) -0.3548(3)
H10A H 2.5325 -0.5516 -0.3985
H11A H 2.6640 -0.5273 -0.3729
H12A H 2.5501 -0.5696 -0.3109
C12A C 2.0622(4) -0.60539(19) -0.2757(2)
C13A C 2.1572(5) -0.6788(2) -0.2378(2)
H13A H 2.1367 -0.7331 -0.2472
H14A H 2.2635 -0.6833 -0.2613
H15A H 2.1320 -0.6668 -0.1808
C14A C 2.0983(5) -0.6258(2) -0.3649(2)
H16A H 2.0352 -0.5801 -0.3888
H17A H 2.2039 -0.6295 -0.3899
H18A H 2.0790 -0.6809 -0.3727
C15A C 1.8972(5) -0.5989(2) -0.2381(2)
H19A H 1.8356 -0.5524 -0.2622
H20A H 1.8770 -0.6534 -0.2470
H21A H 1.8728 -0.5866 -0.1812
C16A C 1.7891(3) -0.15928(18) -0.12966(17)
C17A C 1.6437(4) -0.16718(19) -0.1046(2)
H22A H 1.6212 -0.2156 -0.1220
C18A C 1.5315(4) -0.1050(2) -0.0546(2)
H23A H 1.4331 -0.1118 -0.0380
C19A C 1.5596(3) -0.03244(17) -0.02786(17)
C20A C 1.7033(3) -0.02260(18) -0.05659(17)
H24A H 1.7238 0.0278 -0.0418
C21A C 1.8184(3) -0.08481(18) -0.10655(17)
C22A C 2.0128(4) -0.01941(19) -0.11378(19)
H25A H 1.9442 0.0193 -0.0729
C23A C 2.1598(4) -0.00664(19) -0.14446(18)
C24A C 2.1805(4) 0.0679(2) -0.1160(2)
H26A H 2.1019 0.1042 -0.0769
C25A C 2.3136(4) 0.0884(2) -0.1445(2)
C26A C 2.4319(4) 0.0349(2) -0.2008(2)
H27A H 2.5239 0.0495 -0.2203
C27A C 2.4138(4) -0.0382(2) -0.22735(19)
C28A C 2.2792(4) -0.06381(19) -0.20212(18)
C29A C 1.1718(4) -0.1002(2) 0.61408(19)
H28A H 1.2698 -0.1220 0.6204
C30A C 1.1549(4) -0.0569(2) 0.54646(19)
H29A H 1.2400 -0.0497 0.5072
C31A C 1.0114(3) -0.02364(17) 0.53597(17)
C32A C 0.8920(4) -0.0371(2) 0.59570(18)
H30A H 0.7925 -0.0155 0.5915
C33A C 0.9194(4) -0.08216(19) 0.66134(18)
H31A H 0.8368 -0.0914 0.7012
C34 C 0.0478(5) 0.8743(3) 0.2742(3)
H32 H -0.0052 0.9307 0.3020
H33 H -0.0068 0.8648 0.2366
O3 O 0.0535(5) 0.8088(3) 0.3288(3)
C35 C 0.2076(5) 0.8732(3) 0.2300(3)
H34 H 0.2279 0.9286 0.2378
H35 H 0.2269 0.8617 0.1726
C36 C 0.3041(6) 0.7993(3) 0.2671(3)
H36 H 0.3407 0.7459 0.2336
H37 H 0.3902 0.8151 0.2767
C37 C 0.1911(7) 0.7899(3) 0.3446(3)
H38 H 0.2176 0.7305 0.3632
H39 H 0.1894 0.8302 0.3859
O4 O 0.2003(4) 0.81085(18) 0.02613(18)
C38 C 0.1646(6) 0.7443(3) 0.0775(3)
H40 H 0.0784 0.7688 0.1233
H41 H 0.2511 0.7140 0.0974
C39 C 0.1266(7) 0.6835(3) 0.0290(3)
H42 H 0.1854 0.6236 0.0327
H43 H 0.0188 0.6865 0.0473
C40 C 0.1657(7) 0.7126(3) -0.0537(3)
H44 H 0.0746 0.7427 -0.0698
H45 H 0.2236 0.6633 -0.0910
C41 C 0.2588(6) 0.7729(3) -0.0513(2)
H46 H 0.3657 0.7412 -0.0607
H47 H 0.2488 0.8173 -0.0915
O5 O 0.5222(3) 0.1032(2) 0.59206(18)
C42 C 0.4968(6) 0.1897(3) 0.5656(3)
H48 H 0.5928 0.2025 0.5393
H49 H 0.4424 0.2312 0.6107
C43 C 0.4036(5) 0.1947(3) 0.5078(2)
H50 H 0.4678 0.1836 0.4528
H51 H 0.3304 0.2519 0.5115
C44 C 0.3242(5) 0.1241(3) 0.5337(3)
H52 H 0.2144 0.1488 0.5515
H53 H 0.3482 0.0815 0.4899
C45 C 0.3842(6) 0.0834(3) 0.6008(3)
H54 H 0.3132 0.1069 0.6522
H55 H 0.3999 0.0204 0.5987
C46 C -0.0683(8) 0.3949(5) 0.4548(12)
H56 H -0.1194 0.4313 0.4183
H57 H -0.0937 0.4296 0.5042
O6 O 0.0907(7) 0.3808(4) 0.4202(4)
C47 C -0.1314(9) 0.3159(6) 0.4652(9)
H58 H -0.1955 0.3202 0.5202
H59 H -0.1885 0.3088 0.4280
C48 C 0.0178(10) 0.2479(5) 0.4598(5)
H60 H 0.0507 0.2380 0.5089
H61 H 0.0110 0.1932 0.4398
C49 C 0.1256(15) 0.2901(4) 0.4006(9)
H62 H 0.1176 0.2779 0.3474
H63 H 0.2194 0.2524 0.4092
C62 C 0.1603(12) 0.4321(9) 0.0117(6)
H88 H 0.0758 0.4794 0.0410
H89 H 0.1273 0.3790 0.0138
O10 O 0.2879(10) 0.4192(6) 0.0427(5)
C63 C 0.2215(14) 0.4558(8) -0.0743(6)
H90 H 0.2154 0.5180 -0.0772
H91 H 0.1635 0.4422 -0.1083
C64 C 0.3857(14) 0.4017(8) -0.1010(6)
H92 H 0.3995 0.3541 -0.1384
H93 H 0.4541 0.4373 -0.1251
C65 C 0.4058(14) 0.3686(8) -0.0203(5)
H94 H 0.4041 0.3076 -0.0163
H95 H 0.5039 0.3721 -0.0153
O7? O 0.1998(12) 0.3073(8) 0.3661(8)
C50? C 0.1486(19) 0.2342(7) 0.3985(17)
H64? H 0.2068 0.2027 0.4343
H65? H 0.1522 0.1942 0.3565
C51? C -0.0132(16) 0.2802(8) 0.4437(9)
H66? H -0.0307 0.2601 0.4986
H67? H -0.0811 0.2613 0.4193
C52? C -0.0589(16) 0.3792(8) 0.4476(10)
H68? H -0.0478 0.4042 0.4954
H69? H -0.1596 0.4054 0.4401
C53? C 0.0696(15) 0.3791(9) 0.3730(11)
H70? H 0.0325 0.3785 0.3258
H71? H 0.0992 0.4330 0.3734
O8? O -0.1386(10) 0.3445(5) 0.5053(5)
C54? C -0.0908(12) 0.4153(5) 0.4646(8)
H72? H -0.0922 0.4603 0.5015
H73? H -0.1500 0.4411 0.4273
C55? C 0.0696(12) 0.3636(7) 0.4217(9)
H74? H 0.1008 0.3911 0.3709
H75? H 0.1364 0.3691 0.4540
C56? C 0.0970(14) 0.2670(8) 0.4039(9)
H76? H 0.1214 0.2521 0.3468
H77? H 0.1708 0.2290 0.4286
C57? C -0.0668(15) 0.2734(6) 0.4489(7)
H78? H -0.1253 0.2779 0.4098
H79? H -0.0701 0.2193 0.4770
C58? C 0.2601(17) 0.3884(11) -0.0100(7)
H80? H 0.1542 0.4206 0.0123
H81? H 0.2617 0.3297 -0.0251
O9? O 0.3367(14) 0.3816(7) 0.0509(5)
C59? C 0.3250(19) 0.4326(12) -0.0855(7)
H82? H 0.3662 0.3921 -0.1319
H83? H 0.2486 0.4828 -0.0969
C60? C 0.4497(18) 0.4608(11) -0.0632(7)
H84? H 0.4406 0.5226 -0.0727
H85? H 0.5499 0.4266 -0.0937
C61? C 0.4231(18) 0.4429(10) 0.0258(7)
H86? H 0.5211 0.4207 0.0376
H87? H 0.3703 0.4976 0.0565
loop_
_geom_bond_atom_site_label_1
_geom_bond_atom_site_label_2
_geom_bond_site_symmetry_1
_geom_bond_site_symmetry_2
Zn1 N1 1_555 1_555
Cl1 C25 1_555 1_555
N1 C7 1_555 1_555
O1 Zn1 1_555 1_555
C1 O1 1_555 1_555
Cl2 C27 1_555 1_555
N2 Zn1 1_555 1_555
O2 Zn1 1_555 1_555
C2 C1 1_555 1_555
C3 C2 1_555 1_555
H1 C3 1_555 1_555
N3 Zn1 1_555 1_555
C4 C3 1_555 1_555
C5 C4 1_555 1_555
H2 C5 1_555 1_555
C6 C1 1_555 1_555
C7 C6 1_555 1_555
H3 C7 1_555 1_555
C8 C2 1_555 1_555
C9 C8 1_555 1_555
H4 C9 1_555 1_555
H5 C9 1_555 1_555
H6 C9 1_555 1_555
C10 C8 1_555 1_555
H7 C10 1_555 1_555
H8 C10 1_555 1_555
H9 C10 1_555 1_555
C11 C8 1_555 1_555
H10 C11 1_555 1_555
H11 C11 1_555 1_555
H12 C11 1_555 1_555
C12 C4 1_555 1_555
C13 C12 1_555 1_555
H13 C13 1_555 1_555
H14 C13 1_555 1_555
H15 C13 1_555 1_555
C14 C12 1_555 1_555
H16 C14 1_555 1_555
H17 C14 1_555 1_555
H18 C14 1_555 1_555
C15 C12 1_555 1_555
H19 C15 1_555 1_555
H20 C15 1_555 1_555
H21 C15 1_555 1_555
C16 N1 1_555 1_555
C17 C16 1_555 1_555
H22 C17 1_555 1_555
C18 C17 1_555 1_555
H23 C18 1_555 1_555
C19 C18 1_555 1_555
C20 C19 1_555 1_555
H24 C20 1_555 1_555
C21 N2 1_555 1_555
C22 N2 1_555 1_555
H25 C22 1_555 1_555
C23 C22 1_555 1_555
C24 C23 1_555 1_555
H26 C24 1_555 1_555
C25 C24 1_555 1_555
C26 C25 1_555 1_555
H27 C26 1_555 1_555
C27 C26 1_555 1_555
C28 O2 1_555 1_555
C29 N3 1_555 1_555
H28 C29 1_555 1_555
C30 C29 1_555 1_555
H29 C30 1_555 1_555
C31 C30 1_555 1_555
C32 C31 1_555 1_555
H30 C32 1_555 1_555
C33 N3 1_555 1_555
H31 C33 1_555 1_555
C34 H32 1_555 1_555
H33 C34 1_555 1_555
O3 C34 1_555 1_555
C35 C34 1_555 1_555
H34 C35 1_555 1_555
H35 C35 1_555 1_555
C36 C35 1_555 1_555
H36 C36 1_555 1_555
H37 C36 1_555 1_555
C37 O3 1_555 1_555
H38 C37 1_555 1_555
H39 C37 1_555 1_555
O4 C38 1_555 1_555
C38 H40 1_555 1_555
H41 C38 1_555 1_555
C39 C38 1_555 1_555
H42 C39 1_555 1_555
H43 C39 1_555 1_555
C40 C39 1_555 1_555
H44 C40 1_555 1_555
H45 C40 1_555 1_555
C41 O4 1_555 1_555
H46 C41 1_555 1_555
H47 C41 1_555 1_555
O5 C42 1_555 1_555
C42 H48 1_555 1_555
H49 C42 1_555 1_555
C43 C42 1_555 1_555
H50 C43 1_555 1_555
H51 C43 1_555 1_555
C44 C43 1_555 1_555
H52 C44 1_555 1_555
H53 C44 1_555 1_555
C45 O5 1_555 1_555
H54 C45 1_555 1_555
H55 C45 1_555 1_555
C46 H56 1_555 1_555
H57 C46 1_555 1_555
O6 C46 1_555 1_555
C47 C46 1_555 1_555
H58 C47 1_555 1_555
H59 C47 1_555 1_555
C48 C47 1_555 1_555
H60 C48 1_555 1_555
H61 C48 1_555 1_555
C49 O6 1_555 1_555
H62 C49 1_555 1_555
H63 C49 1_555 1_555
C62 H88 1_555 1_555
H89 C62 1_555 1_555
O10 C62 1_555 1_555
C63 C62 1_555 1_555
H90 C63 1_555 1_555
H91 C63 1_555 1_555
C64 C63 1_555 1_555
H92 C64 1_555 1_555
H93 C64 1_555 1_555
C65 O10 1_555 1_555
H94 C65 1_555 1_555
H95 C65 1_555 1_555
Zn1A N1A 1_555 1_555
Zn1A_2 N3A 1_555 1_555
Cl1A C25A 1_555 1_555
N1A C7A 1_555 1_555
O1A Zn1A 1_555 1_555
C1A O1A 1_555 1_555
Cl2A C27A 1_555 1_555
N2A Zn1A 1_555 1_555
O2A Zn1A 1_555 1_555
C2A C1A 1_555 1_555
C3A C2A 1_555 1_555
H1A C3A 1_555 1_555
N3A C29A 1_555 1_555
N3A_2 Zn1A 1_555 1_555
C4A C3A 1_555 1_555
C5A C4A 1_555 1_555
H2A C5A 1_555 1_555
C6A C1A 1_555 1_555
C7A C6A 1_555 1_555
H3A C7A 1_555 1_555
C8A C2A 1_555 1_555
C9A C8A 1_555 1_555
H4A C9A 1_555 1_555
H5A C9A 1_555 1_555
H6A C9A 1_555 1_555
C10A C8A 1_555 1_555
H7A C10A 1_555 1_555
H8A C10A 1_555 1_555
H9A C10A 1_555 1_555
C11A C8A 1_555 1_555
H10A C11A 1_555 1_555
H11A C11A 1_555 1_555
H12A C11A 1_555 1_555
C12A C4A 1_555 1_555
C13A C12A 1_555 1_555
H13A C13A 1_555 1_555
H14A C13A 1_555 1_555
H15A C13A 1_555 1_555
C14A C12A 1_555 1_555
H16A C14A 1_555 1_555
H17A C14A 1_555 1_555
H18A C14A 1_555 1_555
C15A C12A 1_555 1_555
H19A C15A 1_555 1_555
H20A C15A 1_555 1_555
H21A C15A 1_555 1_555
C16A N1A 1_555 1_555
C17A C16A 1_555 1_555
H22A C17A 1_555 1_555
C18A C17A 1_555 1_555
H23A C18A 1_555 1_555
C19A C19 1_555 1_555
C20A C19A 1_555 1_555
H24A C20A 1_555 1_555
C21A N2A 1_555 1_555
C22A N2A 1_555 1_555
H25A C22A 1_555 1_555
C23A C22A 1_555 1_555
C24A C23A 1_555 1_555
H26A C24A 1_555 1_555
C25A C24A 1_555 1_555
C26A C25A 1_555 1_555
H27A C26A 1_555 1_555
C27A C26A 1_555 1_555
C28A O2A 1_555 1_555
C29A H28A 1_555 1_555
C30A C29A 1_555 1_555
H29A C30A 1_555 1_555
C31A C31 1_555 1_555
C32A C31A 1_555 1_555
H30A C32A 1_555 1_555
C33A N3A 1_555 1_555
H31A C33A 1_555 1_555
C5 C6 1_555 1_555
C16 C21 1_555 1_555
C20 C21 1_555 1_555
C23 C28 1_555 1_555
C27 C28 1_555 1_555
C32 C33 1_555 1_555
C36 C37 1_555 1_555
C40 C41 1_555 1_555
C44 C45 1_555 1_555
C48 C49 1_555 1_555
C64 C65 1_555 1_555
C5A C6A 1_555 1_555
C16A C21A 1_555 1_555
C18A C19A 1_555 1_555
C20A C21A 1_555 1_555
C23A C28A 1_555 1_555
C27A C28A 1_555 1_555
C30A C31A 1_555 1_555
C32A C33A 1_555 1_555

#END
