
#######################################################################
#
#                 Cambridge Crystallographic Data Centre
#                                CCDC 
#
#######################################################################
#
# If this CIF has been generated from an entry in the Cambridge 
# Structural Database, then it will include bibliographic, chemical, 
# crystal, experimental, refinement or atomic coordinate data resulting 
# from the CCDC's data processing and validation procedures.
#
#######################################################################

data_IFIZOM
_symmetry_cell_setting           orthorhombic
_symmetry_space_group_name_H-M   'P 21 21 21'
_symmetry_Int_Tables_number      19
_space_group_name_Hall           'P 2ac 2ab'
loop_
_symmetry_equiv_pos_site_id
_symmetry_equiv_pos_as_xyz
1 x,y,z
2 1/2-x,-y,1/2+z
3 -x,1/2+y,1/2-z
4 1/2+x,1/2-y,-z
_cell_length_a                   6.3656(2)
_cell_length_b                   11.6782(3)
_cell_length_c                   16.9190(5)
_cell_angle_alpha                90
_cell_angle_beta                 90
_cell_angle_gamma                90
_cell_volume                     1257.74
loop_
_atom_site_label
_atom_site_type_symbol
_atom_site_fract_x
_atom_site_fract_y
_atom_site_fract_z
Zn1 Zn -0.01037(7) 0.70622(3) 0.59330(2)
S1 S 0.43962(15) 1.38423(7) 0.73208(6)
O1 O 0.4965(6) 1.31862(19) 0.80307(16)
O2 O 0.6256(5) 1.4275(2) 0.69291(19)
O3 O 0.2839(5) 1.4710(2) 0.75069(17)
O4 O -0.1928(4) 0.77260(19) 0.50074(17)
O5 O -0.3813(5) 0.9235(2) 0.46790(17)
O6 O -0.2754(5) 0.6366(2) 0.63918(18)
H1 H -0.3378 0.6849 0.6654
H2 H -0.2830 0.5668 0.6714
O7 O 0.1625(5) 0.6774(2) 0.69505(18)
H3 H 0.1381 0.6128 0.7116
H4 H 0.2694 0.7151 0.6984
N1 N 0.0179(6) 0.8818(2) 0.61693(17)
H5 H -0.0235 0.8954 0.6669
H6 H 0.1538 0.9022 0.6129
C1 C 0.1303(7) 1.1265(3) 0.5671(2)
C2 C 0.3330(7) 1.1105(4) 0.5939(3)
H7 H 0.4071 1.0458 0.5782
C3 C 0.4282(6) 1.1890(3) 0.6440(2)
H8 H 0.5643 1.1765 0.6620
C4 C 0.3187(6) 1.2864(3) 0.6670(2)
C5 C 0.1156(7) 1.3047(3) 0.6395(3)
H9 H 0.0421 1.3699 0.6546
C6 C 0.0235(7) 1.2253(3) 0.5895(2)
H10 H -0.1117 1.2382 0.5706
C7 C 0.0243(8) 1.0383(3) 0.5150(2)
H11 H 0.1306 0.9969 0.4855
H12 H -0.0657 1.0772 0.4773
C8 C -0.1078(6) 0.9525(3) 0.5628(2)
H13 H -0.2070 0.9967 0.5949
C9 C -0.2359(6) 0.8768(3) 0.5074(2)
O5C O 0.1187(5) 0.5765(2) 0.53210(17)
Zn1C Zn -0.51037(7) 0.79378(3) 0.40670(2)
loop_
_geom_bond_atom_site_label_1
_geom_bond_atom_site_label_2
_geom_bond_site_symmetry_1
_geom_bond_site_symmetry_2
Zn1 O4 1_555 1_555
S1 O1 1_555 1_555
O2 S1 1_555 1_555
O3 S1 1_555 1_555
O4 C9 1_555 1_555
O5 C9 1_555 1_555
O6 Zn1 1_555 1_555
H1 O6 1_555 1_555
H2 O6 1_555 1_555
O7 Zn1 1_555 1_555
H3 O7 1_555 1_555
H4 O7 1_555 1_555
N1 Zn1 1_555 1_555
H5 N1 1_555 1_555
H6 N1 1_555 1_555
C1 C2 1_555 1_555
C2 H7 1_555 1_555
C3 C2 1_555 1_555
H8 C3 1_555 1_555
C4 S1 1_555 1_555
C5 C4 1_555 1_555
H9 C5 1_555 1_555
C6 C1 1_555 1_555
H10 C6 1_555 1_555
C7 C1 1_555 1_555
H11 C7 1_555 1_555
H12 C7 1_555 1_555
C8 N1 1_555 1_555
H13 C8 1_555 1_555
C9 C8 1_555 1_555
O5C Zn1 1_555 1_555
Zn1C O5 1_555 1_555
C3 C4 1_555 1_555
C5 C6 1_555 1_555
C7 C8 1_555 1_555

#END
