
#######################################################################
#
#                 Cambridge Crystallographic Data Centre
#                                CCDC 
#
#######################################################################
#
# If this CIF has been generated from an entry in the Cambridge 
# Structural Database, then it will include bibliographic, chemical, 
# crystal, experimental, refinement or atomic coordinate data resulting 
# from the CCDC's data processing and validation procedures.
#
#######################################################################

data_IFOCOW
_symmetry_cell_setting           monoclinic
_symmetry_space_group_name_H-M   'C 2/c'
_symmetry_Int_Tables_number      15
_space_group_name_Hall           '-C 2yn'
loop_
_symmetry_equiv_pos_site_id
_symmetry_equiv_pos_as_xyz
1 x,y,z
2 1/2+x,1/2+y,z
3 -x,y,1/2-z
4 1/2-x,1/2+y,1/2-z
5 -x,-y,-z
6 1/2-x,1/2-y,-z
7 x,-y,1/2+z
8 1/2+x,1/2-y,1/2+z
_cell_length_a                   30.5311(5)
_cell_length_b                   33.6509(3)
_cell_length_c                   27.1283(3)
_cell_angle_alpha                90
_cell_angle_beta                 98.1160(10)
_cell_angle_gamma                90
_cell_volume                     27592.4
loop_
_atom_site_label
_atom_site_type_symbol
_atom_site_fract_x
_atom_site_fract_y
_atom_site_fract_z
Cl1 Cl 0.52608(6) 0.00638(6) 0.07259(8)
O3 O 0.8418(3) 0.2531(2) 0.4481(3)
O4 O 0.1835(3) 0.1994(2) 0.8309(3)
O5 O 0.3858(3) 0.1470(2) 0.1466(2)
O6 O 0.8038(2) 0.18037(19) 0.0466(2)
O7 O 0.6903(5) 0.3986(4) 0.1955(5)
O8 O 0.8331(6) -0.1289(5) 0.2186(8)
O9 O 0.8908(5) -0.0826(4) 0.3668(6)
O10 O 0.8124(3) 0.0746(3) 0.5855(7)
O11 O 0.1766(5) 0.0971(7) 0.0427(7)
O12 O 0.4423(5) 0.0079(4) 0.6735(4)
O13 O 0.4633(7) 0.0145(5) 0.3245(6)
O14 O 0.7969(2) 0.1614(3) 0.5769(3)
O15 O 0.6312(6) -0.0265(7) 0.2890(5)
O16 O 0.4929(4) -0.3454(5) 0.1970(5)
O17 O 0.7834(5) 0.2134(7) 0.4934(5)
O18 O 0.8205(9) 0.1281(5) -0.0343(8)
O19 O 0.9053(7) 0.1171(6) 0.1616(7)
O20 O 0.7248(10) 0.4302(9) 0.0663(9)
O21 O 0.5449(8) -0.1111(7) 0.2427(6)
O22 O 0.7758(5) 0.3831(6) 0.1594(5)
O23 O 0.5120(8) -0.3426(8) -0.2074(11)
O24 O 0.5010(13) -0.5022(7) -0.1523(13)
O25 O 0.9532(13) -0.0053(8) 0.4945(14)
O26 O 0.7916(8) 0.4534(7) 0.1784(7)
O27 O 0.7906(17) -0.0012(13) 0.2088(19)
O28 O 0.1557(10) 0.0411(7) 0.1228(13)
O29 O 0.8205(16) 0.0609(16) 0.2042(18)
O30 O 0.9236(8) -0.0095(5) 0.3963(9)
O31 O 0.4660(7) 0.0875(5) 0.1386(8)
O32 O 0.8514(12) 0.0341(11) 0.5302(13)
O33 O 0.5691(14) -0.5122(12) -0.0869(15)
O34 O 0.9469(11) 0.0812(10) 0.2890(12)
O35 O 0.7151(13) 0.4823(12) 0.1906(14)
O36 O 0.8655(14) 0.0732(12) -0.0019(15)
O37 O 0.8715(10) 0.0817(8) 0.2995(11)
O38 O 0.8815(13) 0.0504(12) 0.1312(14)
O39 O 0.9506(14) -0.0970(12) 0.2959(16)
O40 O 0.960(2) 0.074(2) 0.192(3)
O41 O 0.9162(18) -0.1042(16) 0.205(2)
O42 O 0.899(2) -0.158(2) 0.196(2)
O43 O 0.5000 0.0583(17) 0.2500
Tb1 Tb 0.389129(12) -0.095771(11) -0.058273(15)
Tb2 Tb 0.405200(12) 0.084060(11) -0.037730(13)
Tb3 Tb 0.506496(12) -0.262548(11) -0.008254(14)
Tb4 Tb 0.265880(12) -0.205479(11) -0.232699(13)
O1 O 0.4311(3) -0.0837(2) -0.1257(3)
O2 O 0.4342(2) 0.1091(3) 0.0435(3)
N1 N 0.3213(2) -0.2484(2) -0.0036(2)
N2 N 0.3282(2) -0.1345(2) -0.0149(3)
N3 N 0.3131(2) -0.0642(2) -0.0607(3)
N4 N 0.4032(2) -0.1025(2) 0.0349(3)
O46 O 0.38614(18) -0.02713(17) -0.0709(2)
O47 O 0.35224(17) 0.03245(16) -0.0734(2)
O48 O 0.46050(17) -0.07539(16) -0.0216(2)
O49 O 0.51714(17) -0.08550(18) 0.0391(2)
C1 C 0.3155(3) -0.2064(2) 0.0109(3)
H1 H 0.3237 -0.2039 0.0474
H2 H 0.2838 -0.1993 0.0028
C2 C 0.3431(2) -0.1760(2) -0.0150(3)
H3 H 0.3741 -0.1772 0.0015
H4 H 0.3429 -0.1845 -0.0500
C3 C 0.2840(3) -0.1286(3) -0.0455(4)
H5 H 0.2826 -0.1440 -0.0768
H6 H 0.2605 -0.1386 -0.0270
C4 C 0.2765(3) -0.0858(3) -0.0574(4)
C5 C 0.2347(3) -0.0688(3) -0.0649(5)
H7 H 0.2091 -0.0845 -0.0626
C6 C 0.2310(4) -0.0292(4) -0.0756(6)
H8 H 0.2026 -0.0172 -0.0811
C7 C 0.2685(3) -0.0066(3) -0.0786(4)
H9 H 0.2665 0.0211 -0.0856
C8 C 0.3084(3) -0.0256(3) -0.0709(4)
C9 C 0.3523(3) -0.0041(2) -0.0723(3)
C10 C 0.3265(3) -0.1187(3) 0.0360(3)
H10 H 0.3099 -0.1373 0.0547
H11 H 0.3109 -0.0929 0.0337
C11 C 0.3728(3) -0.1134(3) 0.0634(3)
C12 C 0.3822(3) -0.1182(3) 0.1139(4)
H12 H 0.3598 -0.1251 0.1333
C13 C 0.4261(4) -0.1124(4) 0.1362(4)
H13 H 0.4337 -0.1155 0.1711
C14 C 0.4578(3) -0.1025(3) 0.1076(4)
H14 H 0.4877 -0.0990 0.1221
C15 C 0.4448(3) -0.0975(2) 0.0565(3)
C16 C 0.4771(3) -0.0851(2) 0.0224(3)
N5 N 0.2687(2) -0.25752(19) -0.1423(2)
N6 N 0.2105(2) -0.2650(2) -0.2248(3)
N7 N 0.3299(2) -0.25602(18) -0.2100(2)
O50 O 0.24879(18) -0.24919(16) -0.30176(19)
O51 O 0.1945(2) -0.27771(19) -0.3551(2)
O52 O 0.32738(18) -0.19556(17) -0.2732(2)
O53 O 0.39730(19) -0.2054(2) -0.2856(2)
C17 C 0.2917(3) -0.2608(2) -0.0478(3)
H15 H 0.2610 -0.2585 -0.0403
H16 H 0.2971 -0.2894 -0.0534
C18 C 0.2941(2) -0.2388(2) -0.0974(3)
H17 H 0.2830 -0.2114 -0.0945
H18 H 0.3255 -0.2369 -0.1025
C19 C 0.2228(3) -0.2656(3) -0.1347(3)
H19 H 0.2105 -0.2419 -0.1199
H20 H 0.2223 -0.2879 -0.1110
C20 C 0.1942(3) -0.2758(3) -0.1829(3)
C21 C 0.1545(3) -0.2961(3) -0.1844(4)
H21 H 0.1435 -0.3026 -0.1543
C22 C 0.1310(3) -0.3067(3) -0.2300(4)
H22 H 0.1030 -0.3193 -0.2317
C23 C 0.1491(3) -0.2985(3) -0.2732(4)
H23 H 0.1349 -0.3073 -0.3047
C24 C 0.1882(3) -0.2771(3) -0.2689(3)
C25 C 0.2118(3) -0.2685(2) -0.3128(3)
C26 C 0.2901(3) -0.2943(2) -0.1556(3)
H24 H 0.2695 -0.3092 -0.1804
H25 H 0.2970 -0.3112 -0.1256
C27 C 0.3320(3) -0.2858(2) -0.1767(3)
C28 C 0.3699(3) -0.3073(3) -0.1615(3)
H26 H 0.3702 -0.3273 -0.1367
C29 C 0.4077(3) -0.2992(3) -0.1832(4)
H27 H 0.4340 -0.3141 -0.1740
C30 C 0.4064(3) -0.2694(3) -0.2180(3)
H28 H 0.4317 -0.2634 -0.2334
C31 C 0.3670(3) -0.2482(2) -0.2302(3)
C32 C 0.3642(2) -0.2133(2) -0.2657(3)
N8 N 0.4357(2) -0.2809(2) 0.0565(3)
N9 N 0.5052(2) -0.3274(2) 0.0452(3)
N10 N 0.5078(2) -0.2280(2) 0.0798(2)
O54 O 0.57540(19) -0.28532(19) 0.0334(2)
O55 O 0.6211(2) -0.3379(2) 0.0479(3)
O56 O 0.54927(19) -0.20245(17) 0.0047(2)
O57 O 0.57957(18) -0.15154(16) 0.0500(2)
C33 C 0.3681(3) -0.2600(2) -0.0045(3)
H29 H 0.3816 -0.2418 -0.0268
H30 H 0.3693 -0.2873 -0.0177
C34 C 0.3939(3) -0.2580(3) 0.0481(3)
H31 H 0.4008 -0.2298 0.0561
H32 H 0.3744 -0.2676 0.0718
C35 C 0.4269(3) -0.3241(2) 0.0516(3)
H33 H 0.4092 -0.3296 0.0189
H34 H 0.4095 -0.3327 0.0779
C36 C 0.4691(3) -0.3474(3) 0.0561(3)
C37 C 0.4704(4) -0.3875(3) 0.0682(4)
H35 H 0.4442 -0.4012 0.0733
C38 C 0.5104(4) -0.4071(3) 0.0728(5)
H36 H 0.5120 -0.4344 0.0816
C39 C 0.5483(4) -0.3872(3) 0.0646(4)
H37 H 0.5761 -0.4002 0.0679
C40 C 0.5439(3) -0.3473(3) 0.0513(3)
C41 C 0.5842(3) -0.3223(3) 0.0449(3)
C42 C 0.4555(3) -0.2745(3) 0.1087(3)
H38 H 0.4735 -0.2981 0.1203
H39 H 0.4315 -0.2722 0.1296
C43 C 0.4843(3) -0.2380(3) 0.1164(3)
C44 C 0.4879(3) -0.2176(3) 0.1614(3)
H40 H 0.4705 -0.2256 0.1861
C45 C 0.5167(3) -0.1858(3) 0.1702(4)
H41 H 0.5203 -0.1721 0.2011
C46 C 0.5402(3) -0.1746(3) 0.1319(3)
H42 H 0.5605 -0.1531 0.1364
C47 C 0.5338(3) -0.1953(2) 0.0873(3)
C48 C 0.5559(2) -0.1821(2) 0.0439(3)
N11 N 0.3256(2) -0.1944(2) -0.4105(2)
H43 H 0.344(4) -0.174(4) -0.389(5)
N12 N 0.2391(2) -0.1607(2) -0.3314(2)
N13 N 0.2788(2) -0.1279(2) -0.2394(3)
N14 N 0.1849(2) -0.1846(2) -0.2673(3)
O58 O 0.31688(17) -0.17701(15) -0.16808(19)
O59 O 0.3478(2) -0.12709(18) -0.1229(2)
O60 O 0.22220(18) -0.18167(17) -0.1736(2)
O61 O 0.1568(2) -0.1766(2) -0.1458(2)
C49 C 0.2864(3) -0.1990(2) -0.3831(3)
H44 H 0.2944 -0.2159 -0.3534
H45 H 0.2619 -0.2121 -0.4050
C50 C 0.2715(3) -0.1585(2) -0.3673(3)
H46 H 0.2977 -0.1434 -0.3520
H47 H 0.2580 -0.1438 -0.3973
C51 C 0.2299(3) -0.1196(3) -0.3163(3)
H48 H 0.2009 -0.1190 -0.3041
H49 H 0.2279 -0.1021 -0.3459
C52 C 0.2642(4) -0.1033(3) -0.2768(4)
C53 C 0.2773(6) -0.0643(4) -0.2789(5)
H50 H 0.2657 -0.0479 -0.3062
C54 C 0.3073(9) -0.0493(4) -0.2414(7)
H51 H 0.3182 -0.0230 -0.2431
C55 C 0.3215(7) -0.0732(4) -0.2005(6)
H52 H 0.3395 -0.0628 -0.1721
C56 C 0.3087(4) -0.1127(3) -0.2023(4)
C57 C 0.3252(3) -0.1412(3) -0.1615(3)
C58 C 0.1978(3) -0.1792(3) -0.3549(3)
H53 H 0.2043 -0.2052 -0.3692
H54 H 0.1835 -0.1620 -0.3822
C59 C 0.1665(3) -0.1849(3) -0.3162(3)
C60 C 0.1220(3) -0.1924(4) -0.3299(4)
H55 H 0.1103 -0.1954 -0.3641
C61 C 0.0944(4) -0.1956(5) -0.2936(4)
H56 H 0.0638 -0.2009 -0.3025
C62 C 0.1121(3) -0.1910(4) -0.2445(4)
H57 H 0.0937 -0.1914 -0.2191
C63 C 0.1573(3) -0.1857(3) -0.2327(3)
C64 C 0.1802(3) -0.1804(3) -0.1798(3)
N15 N 0.3325(2) -0.12500(19) -0.5210(2)
N16 N 0.3570(2) -0.0539(2) -0.4784(3)
N17 N 0.3541(2) -0.1064(2) -0.6148(2)
O62 O 0.43582(18) -0.02758(18) -0.4928(2)
O63 O 0.44025(19) 0.01270(18) -0.4270(2)
O64 O 0.42477(19) -0.0613(2) -0.6155(2)
O65 O 0.4070(3) -0.0471(3) -0.6966(3)
C65 C 0.3126(3) -0.1794(2) -0.4632(3)
H58 H 0.2830 -0.1669 -0.4663
H59 H 0.3110 -0.2019 -0.4868
C66 C 0.3466(2) -0.1489(2) -0.4761(3)
H60 H 0.3538 -0.1307 -0.4475
H61 H 0.3741 -0.1632 -0.4807
C67 C 0.2973(3) -0.0968(2) -0.5129(3)
H62 H 0.2733 -0.1113 -0.4995
H63 H 0.2846 -0.0849 -0.5452
C68 C 0.3143(3) -0.0645(3) -0.4776(3)
C69 C 0.2874(3) -0.0446(3) -0.4481(3)
H64 H 0.2577 -0.0527 -0.4476
C70 C 0.3049(3) -0.0130(3) -0.4199(4)
H65 H 0.2872 0.0010 -0.3996
C71 C 0.3482(3) -0.0014(3) -0.4211(4)
H66 H 0.3606 0.0206 -0.4020
C72 C 0.3727(3) -0.0224(3) -0.4507(3)
C73 C 0.4199(3) -0.0115(3) -0.4569(3)
C74 C 0.3174(3) -0.1507(2) -0.5644(3)
H67 H 0.2869 -0.1599 -0.5625
H68 H 0.3367 -0.1744 -0.5633
C75 C 0.3184(3) -0.1290(3) -0.6125(3)
C76 C 0.2845(3) -0.1329(3) -0.6525(3)
H69 H 0.2588 -0.1481 -0.6496
C77 C 0.2895(3) -0.1138(4) -0.6967(4)
H70 H 0.2672 -0.1163 -0.7247
C78 C 0.3271(4) -0.0912(3) -0.7003(3)
H71 H 0.3312 -0.0784 -0.7305
C79 C 0.3585(3) -0.0879(3) -0.6577(3)
C80 C 0.3993(3) -0.0631(3) -0.6564(3)
N18 N 0.4226(2) -0.2650(2) -0.4229(2)
N19 N 0.4749(2) -0.3249(2) -0.4397(3)
N20 N 0.5036(2) -0.22596(19) -0.4057(2)
O66 O 0.55350(18) -0.29910(17) -0.4512(2)
O67 O 0.5853(2) -0.35860(18) -0.4344(2)
O68 O 0.54596(17) -0.21020(15) -0.48377(19)
O69 O 0.57349(17) -0.15485(15) -0.4482(2)
C81 C 0.3502(3) -0.2335(2) -0.4086(3)
H72 H 0.3303 -0.2542 -0.4251
H73 H 0.3586 -0.2415 -0.3734
C82 C 0.3920(3) -0.2317(2) -0.4338(3)
H74 H 0.3829 -0.2304 -0.4703
H75 H 0.4079 -0.2067 -0.4235
C83 C 0.4008(3) -0.3033(2) -0.4308(3)
H76 H 0.3813 -0.3032 -0.4633
H77 H 0.3823 -0.3082 -0.4043
C84 C 0.4350(3) -0.3362(3) -0.4304(3)
C85 C 0.4245(3) -0.3756(3) -0.4232(4)
H78 H 0.3952 -0.3830 -0.4192
C86 C 0.4573(4) -0.4039(3) -0.4218(5)
H79 H 0.4506 -0.4311 -0.4172
C87 C 0.5003(3) -0.3925(3) -0.4273(4)
H80 H 0.5236 -0.4115 -0.4254
C88 C 0.5079(3) -0.3528(3) -0.4356(4)
C89 C 0.5528(3) -0.3357(2) -0.4392(3)
C90 C 0.4463(3) -0.2627(2) -0.3709(3)
H81 H 0.4249 -0.2558 -0.3480
H82 H 0.4591 -0.2890 -0.3610
C91 C 0.4822(3) -0.2326(2) -0.3660(3)
C92 C 0.4939(3) -0.2128(3) -0.3207(3)
H83 H 0.4778 -0.2176 -0.2937
C93 C 0.5283(3) -0.1866(3) -0.3152(3)
H84 H 0.5374 -0.1742 -0.2840
C94 C 0.5502(3) -0.1782(3) -0.3559(3)
H85 H 0.5741 -0.1599 -0.3532
C95 C 0.5355(2) -0.1978(2) -0.4009(3)
C96 C 0.5533(2) -0.1870(2) -0.4475(3)
Tb1B Tb 0.610871(12) -0.095771(11) -0.441727(15)
Tb1D Tb 0.610871(12) 0.095771(11) 0.058273(15)
Tb2D Tb 0.594800(12) -0.084060(11) 0.037730(13)
Tb2F Tb 0.405200(12) -0.084060(11) -0.537730(13)
Tb3B Tb 0.493504(12) -0.262548(11) -0.491746(14)
Tb3D Tb 0.493504(12) 0.262548(11) 0.008254(14)
Tb4B Tb 0.734120(12) -0.205479(11) -0.267301(13)
Tb4D Tb 0.734120(12) 0.205479(11) 0.232699(13)
O1B O 0.5689(3) -0.0837(2) -0.3743(3)
O2D O 0.5658(2) -0.1091(3) -0.0435(3)
N1D N 0.6787(2) 0.2484(2) 0.0036(2)
N2D N 0.6718(2) 0.1345(2) 0.0149(3)
N2B N 0.6718(2) -0.1345(2) -0.4851(3)
N3D N 0.6869(2) 0.0642(2) 0.0607(3)
N3B N 0.6869(2) -0.0642(2) -0.4393(3)
N4D N 0.5968(2) 0.1025(2) -0.0349(3)
N4B N 0.5968(2) -0.1025(2) -0.5349(3)
O46D O 0.61386(18) 0.02713(17) 0.0709(2)
O46B O 0.61386(18) -0.02713(17) -0.4291(2)
O47D O 0.64776(17) -0.03245(16) 0.0734(2)
O48D O 0.53950(17) 0.07539(16) 0.0216(2)
O48B O 0.53950(17) -0.07539(16) -0.4784(2)
O49D O 0.48286(17) 0.08550(18) -0.0391(2)
C1D C 0.6845(3) 0.2064(2) -0.0109(3)
H1D H 0.6763 0.2039 -0.0474
H2D H 0.7162 0.1993 -0.0028
C2D C 0.6569(2) 0.1760(2) 0.0150(3)
H3D H 0.6259 0.1772 -0.0015
H4D H 0.6571 0.1845 0.0500
C3D C 0.7160(3) 0.1286(3) 0.0455(4)
H5D H 0.7174 0.1440 0.0768
H6D H 0.7395 0.1386 0.0270
C4D C 0.7235(3) 0.0858(3) 0.0574(4)
C5D C 0.7653(3) 0.0688(3) 0.0649(5)
H7D H 0.7909 0.0845 0.0626
C6D C 0.7690(4) 0.0292(4) 0.0756(6)
H8D H 0.7974 0.0172 0.0811
C7D C 0.7315(3) 0.0066(3) 0.0786(4)
H9D H 0.7335 -0.0211 0.0856
C8D C 0.6916(3) 0.0256(3) 0.0709(4)
C9D C 0.6477(3) 0.0041(2) 0.0723(3)
C10D C 0.6735(3) 0.1187(3) -0.0360(3)
H10D H 0.6901 0.1373 -0.0547
H11D H 0.6891 0.0929 -0.0337
C11D C 0.6272(3) 0.1134(3) -0.0634(3)
C12D C 0.6178(3) 0.1182(3) -0.1139(4)
H12D H 0.6402 0.1251 -0.1333
C13D C 0.5739(4) 0.1124(4) -0.1362(4)
H13D H 0.5663 0.1155 -0.1711
C14D C 0.5422(3) 0.1025(3) -0.1076(4)
H14D H 0.5123 0.0990 -0.1221
C15D C 0.5552(3) 0.0975(2) -0.0565(3)
C16D C 0.5229(3) 0.0851(2) -0.0224(3)
N5D N 0.7313(2) 0.25752(19) 0.1423(2)
N5B N 0.7313(2) -0.25752(19) -0.3577(2)
N6D N 0.7895(2) 0.2650(2) 0.2248(3)
N6B N 0.7895(2) -0.2650(2) -0.2752(3)
N7D N 0.6701(2) 0.25602(18) 0.2100(2)
N7B N 0.6701(2) -0.25602(18) -0.2900(2)
O50D O 0.75121(18) 0.24919(16) 0.30176(19)
O50B O 0.75121(18) -0.24919(16) -0.19824(19)
O51D O 0.8055(2) 0.27771(19) 0.3551(2)
O52D O 0.67262(18) 0.19556(17) 0.2732(2)
O52B O 0.67262(18) -0.19556(17) -0.2268(2)
O53D O 0.60270(19) 0.2054(2) 0.2856(2)
C17D C 0.7083(3) 0.2608(2) 0.0478(3)
H15D H 0.7390 0.2585 0.0403
H16D H 0.7029 0.2894 0.0534
C18D C 0.7059(2) 0.2388(2) 0.0974(3)
H17D H 0.7170 0.2114 0.0945
H18D H 0.6745 0.2369 0.1025
C19D C 0.7772(3) 0.2656(3) 0.1347(3)
H19D H 0.7895 0.2419 0.1199
H20D H 0.7777 0.2879 0.1110
C20D C 0.8058(3) 0.2758(3) 0.1829(3)
C21D C 0.8455(3) 0.2961(3) 0.1844(4)
H21D H 0.8565 0.3026 0.1543
C22D C 0.8690(3) 0.3067(3) 0.2300(4)
H22D H 0.8970 0.3193 0.2317
C23D C 0.8509(3) 0.2985(3) 0.2732(4)
H23D H 0.8651 0.3073 0.3047
C24D C 0.8118(3) 0.2771(3) 0.2689(3)
C25D C 0.7882(3) 0.2685(2) 0.3128(3)
C26D C 0.7099(3) 0.2943(2) 0.1556(3)
H24D H 0.7305 0.3092 0.1804
H25D H 0.7030 0.3112 0.1256
C27D C 0.6680(3) 0.2858(2) 0.1767(3)
C28D C 0.6301(3) 0.3073(3) 0.1615(3)
H26D H 0.6298 0.3273 0.1367
C29D C 0.5923(3) 0.2992(3) 0.1832(4)
H27D H 0.5660 0.3141 0.1740
C30D C 0.5936(3) 0.2694(3) 0.2180(3)
H28D H 0.5683 0.2634 0.2334
C31D C 0.6330(3) 0.2482(2) 0.2302(3)
C32D C 0.6358(2) 0.2133(2) 0.2657(3)
N8D N 0.5643(2) 0.2809(2) -0.0565(3)
N8B N 0.5643(2) -0.2809(2) -0.5565(3)
N9D N 0.4948(2) 0.3274(2) -0.0452(3)
N9B N 0.4948(2) -0.3274(2) -0.5452(3)
N10D N 0.4922(2) 0.2280(2) -0.0798(2)
N10B N 0.4922(2) -0.2280(2) -0.5798(2)
O54D O 0.42460(19) 0.28532(19) -0.0334(2)
O54B O 0.42460(19) -0.28532(19) -0.5334(2)
O55D O 0.3789(2) 0.3379(2) -0.0479(3)
O56D O 0.45073(19) 0.20245(17) -0.0047(2)
O56B O 0.45073(19) -0.20245(17) -0.5047(2)
O57D O 0.42043(18) 0.15154(16) -0.0500(2)
C33D C 0.6319(3) 0.2600(2) 0.0045(3)
H29D H 0.6184 0.2418 0.0268
H30D H 0.6307 0.2873 0.0177
C34D C 0.6061(3) 0.2580(3) -0.0481(3)
H31D H 0.5992 0.2298 -0.0561
H32D H 0.6256 0.2676 -0.0718
C35D C 0.5731(3) 0.3241(2) -0.0516(3)
H33D H 0.5908 0.3296 -0.0189
H34D H 0.5905 0.3327 -0.0779
C36D C 0.5309(3) 0.3474(3) -0.0561(3)
C37D C 0.5296(4) 0.3875(3) -0.0682(4)
H35D H 0.5558 0.4012 -0.0733
C38D C 0.4896(4) 0.4071(3) -0.0728(5)
H36D H 0.4880 0.4344 -0.0816
C39D C 0.4517(4) 0.3872(3) -0.0646(4)
H37D H 0.4239 0.4002 -0.0679
C40D C 0.4561(3) 0.3473(3) -0.0513(3)
C41D C 0.4158(3) 0.3223(3) -0.0449(3)
C42D C 0.5445(3) 0.2745(3) -0.1087(3)
H38D H 0.5265 0.2981 -0.1203
H39D H 0.5685 0.2722 -0.1296
C43D C 0.5157(3) 0.2380(3) -0.1164(3)
C44D C 0.5121(3) 0.2176(3) -0.1614(3)
H40D H 0.5295 0.2256 -0.1861
C45D C 0.4833(3) 0.1858(3) -0.1702(4)
H41D H 0.4797 0.1721 -0.2011
C46D C 0.4598(3) 0.1746(3) -0.1319(3)
H42D H 0.4395 0.1531 -0.1364
C47D C 0.4662(3) 0.1953(2) -0.0873(3)
C48D C 0.4441(2) 0.1821(2) -0.0439(3)
N11B N 0.6744(2) -0.1944(2) -0.0895(2)
H43B H 0.656(4) -0.174(4) -0.111(5)
N12B N 0.7609(2) -0.1607(2) -0.1686(2)
N13B N 0.7212(2) -0.1279(2) -0.2606(3)
N14B N 0.8151(2) -0.1846(2) -0.2327(3)
O58B O 0.68312(17) -0.17701(15) -0.33192(19)
O59B O 0.6522(2) -0.12709(18) -0.3771(2)
O60B O 0.77780(18) -0.18167(17) -0.3264(2)
O61B O 0.8432(2) -0.1766(2) -0.3542(2)
C49B C 0.7136(3) -0.1990(2) -0.1169(3)
H44B H 0.7056 -0.2159 -0.1466
H45B H 0.7381 -0.2121 -0.0950
C50B C 0.7285(3) -0.1585(2) -0.1327(3)
H46B H 0.7023 -0.1434 -0.1480
H47B H 0.7420 -0.1438 -0.1027
C51B C 0.7701(3) -0.1196(3) -0.1837(3)
H48B H 0.7991 -0.1190 -0.1959
H49B H 0.7721 -0.1021 -0.1541
C52B C 0.7358(4) -0.1033(3) -0.2232(4)
C53B C 0.7227(6) -0.0643(4) -0.2211(5)
H50B H 0.7343 -0.0479 -0.1938
C54B C 0.6927(9) -0.0493(4) -0.2586(7)
H51B H 0.6818 -0.0230 -0.2569
C55B C 0.6785(7) -0.0732(4) -0.2995(6)
H52B H 0.6605 -0.0628 -0.3279
C56B C 0.6913(4) -0.1127(3) -0.2977(4)
C57B C 0.6748(3) -0.1412(3) -0.3385(3)
C58B C 0.8022(3) -0.1792(3) -0.1451(3)
H53B H 0.7957 -0.2052 -0.1308
H54B H 0.8165 -0.1620 -0.1178
C59B C 0.8335(3) -0.1849(3) -0.1838(3)
C60B C 0.8780(3) -0.1924(4) -0.1701(4)
H55B H 0.8897 -0.1954 -0.1359
C61B C 0.9056(4) -0.1956(5) -0.2064(4)
H56B H 0.9362 -0.2009 -0.1975
C62B C 0.8879(3) -0.1910(4) -0.2555(4)
H57B H 0.9063 -0.1914 -0.2809
C63B C 0.8427(3) -0.1857(3) -0.2673(3)
C64B C 0.8198(3) -0.1804(3) -0.3202(3)
N15B N 0.6675(2) -0.12500(19) 0.0210(2)
N15F N 0.3325(2) 0.12500(19) -0.0210(2)
N16B N 0.6430(2) -0.0539(2) -0.0216(3)
N16F N 0.3570(2) 0.0539(2) 0.0216(3)
N17B N 0.6459(2) -0.1064(2) 0.1148(2)
N17F N 0.3541(2) 0.1064(2) -0.1148(2)
O62B O 0.56418(18) -0.02758(18) -0.0072(2)
O62F O 0.43582(18) 0.02758(18) 0.0072(2)
O63B O 0.55975(19) 0.01270(18) -0.0730(2)
O64B O 0.57523(19) -0.0613(2) 0.1155(2)
O64F O 0.42477(19) 0.0613(2) -0.1155(2)
O65B O 0.5930(3) -0.0471(3) 0.1966(3)
C65B C 0.6874(3) -0.1794(2) -0.0368(3)
H58B H 0.7170 -0.1669 -0.0337
H59B H 0.6890 -0.2019 -0.0132
C66B C 0.6534(2) -0.1489(2) -0.0239(3)
H60B H 0.6462 -0.1307 -0.0525
H61B H 0.6259 -0.1632 -0.0193
C67B C 0.7027(3) -0.0968(2) 0.0129(3)
H62B H 0.7267 -0.1113 -0.0005
H63B H 0.7154 -0.0849 0.0452
C68B C 0.6857(3) -0.0645(3) -0.0224(3)
C69B C 0.7126(3) -0.0446(3) -0.0519(3)
H64B H 0.7423 -0.0527 -0.0524
C70B C 0.6951(3) -0.0130(3) -0.0801(4)
H65B H 0.7128 0.0010 -0.1004
C71B C 0.6518(3) -0.0014(3) -0.0789(4)
H66B H 0.6394 0.0206 -0.0980
C72B C 0.6273(3) -0.0224(3) -0.0493(3)
C73B C 0.5801(3) -0.0115(3) -0.0431(3)
C74B C 0.6826(3) -0.1507(2) 0.0644(3)
H67B H 0.7131 -0.1599 0.0625
H68B H 0.6633 -0.1744 0.0633
C75B C 0.6816(3) -0.1290(3) 0.1125(3)
C76B C 0.7155(3) -0.1329(3) 0.1525(3)
H69B H 0.7412 -0.1481 0.1496
C77B C 0.7105(3) -0.1138(4) 0.1967(4)
H70B H 0.7328 -0.1163 0.2247
C78B C 0.6729(4) -0.0912(3) 0.2003(3)
H71B H 0.6688 -0.0784 0.2305
C79B C 0.6415(3) -0.0879(3) 0.1577(3)
C80B C 0.6007(3) -0.0631(3) 0.1564(3)
N18B N 0.5774(2) -0.2650(2) -0.0771(2)
N19B N 0.5251(2) -0.3249(2) -0.0603(3)
N20B N 0.4964(2) -0.22596(19) -0.0943(2)
O66B O 0.44650(18) -0.29910(17) -0.0488(2)
O67B O 0.4147(2) -0.35860(18) -0.0656(2)
O68B O 0.45404(17) -0.21020(15) -0.01623(19)
O69B O 0.42651(17) -0.15485(15) -0.0518(2)
C81B C 0.6498(3) -0.2335(2) -0.0914(3)
H72B H 0.6697 -0.2542 -0.0749
H73B H 0.6414 -0.2415 -0.1266
C82B C 0.6080(3) -0.2317(2) -0.0662(3)
H74B H 0.6171 -0.2304 -0.0297
H75B H 0.5921 -0.2067 -0.0765
C83B C 0.5992(3) -0.3033(2) -0.0692(3)
H76B H 0.6187 -0.3032 -0.0367
H77B H 0.6177 -0.3082 -0.0957
C84B C 0.5650(3) -0.3362(3) -0.0696(3)
C85B C 0.5755(3) -0.3756(3) -0.0768(4)
H78B H 0.6048 -0.3830 -0.0808
C86B C 0.5427(4) -0.4039(3) -0.0782(5)
H79B H 0.5494 -0.4311 -0.0828
C87B C 0.4997(3) -0.3925(3) -0.0727(4)
H80B H 0.4764 -0.4115 -0.0746
C88B C 0.4921(3) -0.3528(3) -0.0644(4)
C89B C 0.4472(3) -0.3357(2) -0.0608(3)
C90B C 0.5537(3) -0.2627(2) -0.1291(3)
H81B H 0.5751 -0.2558 -0.1520
H82B H 0.5409 -0.2890 -0.1390
C91B C 0.5178(3) -0.2326(2) -0.1340(3)
C92B C 0.5061(3) -0.2128(3) -0.1793(3)
H83B H 0.5222 -0.2176 -0.2063
C93B C 0.4717(3) -0.1866(3) -0.1848(3)
H84B H 0.4626 -0.1742 -0.2160
C94B C 0.4498(3) -0.1782(3) -0.1441(3)
H85B H 0.4259 -0.1599 -0.1468
C95B C 0.4645(2) -0.1978(2) -0.0991(3)
C96B C 0.4467(2) -0.1870(2) -0.0525(3)
O44? O 0.430(3) 0.075(2) 0.277(3)
O45? O 0.4848(16) -0.0468(13) 0.2636(18)
loop_
_geom_bond_atom_site_label_1
_geom_bond_atom_site_label_2
_geom_bond_site_symmetry_1
_geom_bond_site_symmetry_2
Tb1 O1 1_555 1_555
Tb2 O2 1_555 1_555
Tb3 N8 1_555 1_555
Tb4 N5 1_555 1_555
N1 C1 1_555 1_555
N2 Tb1 1_555 1_555
N3 Tb1 1_555 1_555
N4 Tb1 1_555 1_555
O46 Tb1 1_555 1_555
O47 Tb2 1_555 1_555
O48 Tb1 1_555 1_555
O49 C16 1_555 1_555
C1 H1 1_555 1_555
H2 C1 1_555 1_555
C2 N2 1_555 1_555
H3 C2 1_555 1_555
H4 C2 1_555 1_555
C3 N2 1_555 1_555
H5 C3 1_555 1_555
H6 C3 1_555 1_555
C4 N3 1_555 1_555
C5 C4 1_555 1_555
H7 C5 1_555 1_555
C6 C5 1_555 1_555
H8 C6 1_555 1_555
C7 C6 1_555 1_555
H9 C7 1_555 1_555
C8 N3 1_555 1_555
C9 O46 1_555 1_555
C10 N2 1_555 1_555
H10 C10 1_555 1_555
H11 C10 1_555 1_555
C11 N4 1_555 1_555
C12 C11 1_555 1_555
H12 C12 1_555 1_555
C13 C12 1_555 1_555
H13 C13 1_555 1_555
C14 C13 1_555 1_555
H14 C14 1_555 1_555
C15 N4 1_555 1_555
C16 O48 1_555 1_555
N5 C18 1_555 1_555
N6 Tb4 1_555 1_555
N7 Tb4 1_555 1_555
O50 Tb4 1_555 1_555
O51 C25 1_555 1_555
O52 Tb4 1_555 1_555
O53 C32 1_555 1_555
C17 N1 1_555 1_555
H15 C17 1_555 1_555
H16 C17 1_555 1_555
C18 C17 1_555 1_555
H17 C18 1_555 1_555
H18 C18 1_555 1_555
C19 N5 1_555 1_555
H19 C19 1_555 1_555
H20 C19 1_555 1_555
C20 N6 1_555 1_555
C21 C20 1_555 1_555
H21 C21 1_555 1_555
C22 C21 1_555 1_555
H22 C22 1_555 1_555
C23 C22 1_555 1_555
H23 C23 1_555 1_555
C24 N6 1_555 1_555
C25 O50 1_555 1_555
C26 N5 1_555 1_555
H24 C26 1_555 1_555
H25 C26 1_555 1_555
C27 N7 1_555 1_555
C28 C27 1_555 1_555
H26 C28 1_555 1_555
C29 C28 1_555 1_555
H27 C29 1_555 1_555
C30 C29 1_555 1_555
H28 C30 1_555 1_555
C31 N7 1_555 1_555
C32 O52 1_555 1_555
N8 C34 1_555 1_555
N9 Tb3 1_555 1_555
N10 Tb3 1_555 1_555
O54 Tb3 1_555 1_555
O55 C41 1_555 1_555
O56 Tb3 1_555 1_555
O57 C48 1_555 1_555
C33 N1 1_555 1_555
H29 C33 1_555 1_555
H30 C33 1_555 1_555
C34 C33 1_555 1_555
H31 C34 1_555 1_555
H32 C34 1_555 1_555
C35 N8 1_555 1_555
H33 C35 1_555 1_555
H34 C35 1_555 1_555
C36 N9 1_555 1_555
C37 C36 1_555 1_555
H35 C37 1_555 1_555
C38 C37 1_555 1_555
H36 C38 1_555 1_555
C39 C38 1_555 1_555
H37 C39 1_555 1_555
C40 N9 1_555 1_555
C41 O54 1_555 1_555
C42 N8 1_555 1_555
H38 C42 1_555 1_555
H39 C42 1_555 1_555
C43 N10 1_555 1_555
C44 C43 1_555 1_555
H40 C44 1_555 1_555
C45 C44 1_555 1_555
H41 C45 1_555 1_555
C46 C45 1_555 1_555
H42 C46 1_555 1_555
C47 N10 1_555 1_555
C48 O56 1_555 1_555
N11 H43 1_555 1_555
N12 Tb4 1_555 1_555
N13 Tb4 1_555 1_555
N14 Tb4 1_555 1_555
O58 Tb4 1_555 1_555
O59 Tb1 1_555 1_555
O60 Tb4 1_555 1_555
O61 C64 1_555 1_555
C49 N11 1_555 1_555
H44 C49 1_555 1_555
H45 C49 1_555 1_555
C50 N12 1_555 1_555
H46 C50 1_555 1_555
H47 C50 1_555 1_555
C51 N12 1_555 1_555
H48 C51 1_555 1_555
H49 C51 1_555 1_555
C52 N13 1_555 1_555
C53 C52 1_555 1_555
H50 C53 1_555 1_555
C54 C53 1_555 1_555
H51 C54 1_555 1_555
C55 C54 1_555 1_555
H52 C55 1_555 1_555
C56 N13 1_555 1_555
C57 O58 1_555 1_555
C58 N12 1_555 1_555
H53 C58 1_555 1_555
H54 C58 1_555 1_555
C59 N14 1_555 1_555
C60 C59 1_555 1_555
H55 C60 1_555 1_555
C61 C60 1_555 1_555
H56 C61 1_555 1_555
C62 C61 1_555 1_555
H57 C62 1_555 1_555
C63 N14 1_555 1_555
C64 O60 1_555 1_555
N15 C66 1_555 1_555
N16 C68 1_555 1_555
N17 C75 1_555 1_555
O62 C73 1_555 1_555
O63 C73 1_555 1_555
O64 C80 1_555 1_555
O65 C80 1_555 1_555
C65 N11 1_555 1_555
H58 C65 1_555 1_555
H59 C65 1_555 1_555
C66 C65 1_555 1_555
H60 C66 1_555 1_555
H61 C66 1_555 1_555
C67 N15 1_555 1_555
H62 C67 1_555 1_555
H63 C67 1_555 1_555
C68 C67 1_555 1_555
C69 C68 1_555 1_555
H64 C69 1_555 1_555
C70 C69 1_555 1_555
H65 C70 1_555 1_555
C71 C70 1_555 1_555
H66 C71 1_555 1_555
C72 N16 1_555 1_555
C73 C72 1_555 1_555
C74 N15 1_555 1_555
H67 C74 1_555 1_555
H68 C74 1_555 1_555
C75 C74 1_555 1_555
C76 C75 1_555 1_555
H69 C76 1_555 1_555
C77 C76 1_555 1_555
H70 C77 1_555 1_555
C78 C77 1_555 1_555
H71 C78 1_555 1_555
C79 N17 1_555 1_555
C80 C79 1_555 1_555
N18 C82 1_555 1_555
N19 C84 1_555 1_555
N20 C91 1_555 1_555
O66 C89 1_555 1_555
O67 C89 1_555 1_555
O68 C96 1_555 1_555
O69 C96 1_555 1_555
C81 N11 1_555 1_555
H72 C81 1_555 1_555
H73 C81 1_555 1_555
C82 C81 1_555 1_555
H74 C82 1_555 1_555
H75 C82 1_555 1_555
C83 N18 1_555 1_555
H76 C83 1_555 1_555
H77 C83 1_555 1_555
C84 C83 1_555 1_555
C85 C84 1_555 1_555
H78 C85 1_555 1_555
C86 C85 1_555 1_555
H79 C86 1_555 1_555
C87 C86 1_555 1_555
H80 C87 1_555 1_555
C88 N19 1_555 1_555
C89 C88 1_555 1_555
C90 N18 1_555 1_555
H81 C90 1_555 1_555
H82 C90 1_555 1_555
C91 C90 1_555 1_555
C92 C91 1_555 1_555
H83 C92 1_555 1_555
C93 C92 1_555 1_555
H84 C93 1_555 1_555
C94 C93 1_555 1_555
H85 C94 1_555 1_555
C95 N20 1_555 1_555
C96 C95 1_555 1_555
Tb1B O69 1_555 1_555
Tb1D N2D 1_555 1_555
Tb2D O49 1_555 1_555
Tb2F N15 1_555 1_555
Tb3B N18 1_555 1_555
Tb3D N8D 1_555 1_555
Tb4B N5B 1_555 1_555
Tb4D N5D 1_555 1_555
O1B Tb1B 1_555 1_555
O2D Tb2D 1_555 1_555
N1D C1D 1_555 1_555
N2D C2D 1_555 1_555
N2B Tb1B 1_555 1_555
N3D Tb1D 1_555 1_555
N3B Tb1B 1_555 1_555
N4D Tb1D 1_555 1_555
N4B Tb1B 1_555 1_555
O46D Tb1D 1_555 1_555
O46B Tb1B 1_555 1_555
O47D Tb2D 1_555 1_555
O48D Tb1D 1_555 1_555
O48B Tb1B 1_555 1_555
O49D Tb2 1_555 1_555
C1D H1D 1_555 1_555
H2D C1D 1_555 1_555
C2D C1D 1_555 1_555
H3D C2D 1_555 1_555
H4D C2D 1_555 1_555
C3D N2D 1_555 1_555
H5D C3D 1_555 1_555
H6D C3D 1_555 1_555
C4D N3D 1_555 1_555
C5D C4D 1_555 1_555
H7D C5D 1_555 1_555
C6D C5D 1_555 1_555
H8D C6D 1_555 1_555
C7D C6D 1_555 1_555
H9D C7D 1_555 1_555
C8D N3D 1_555 1_555
C9D O46D 1_555 1_555
C10D N2D 1_555 1_555
H10D C10D 1_555 1_555
H11D C10D 1_555 1_555
C11D N4D 1_555 1_555
C12D C11D 1_555 1_555
H12D C12D 1_555 1_555
C13D C12D 1_555 1_555
H13D C13D 1_555 1_555
C14D C13D 1_555 1_555
H14D C14D 1_555 1_555
C15D N4D 1_555 1_555
C16D O48D 1_555 1_555
N5D C18D 1_555 1_555
N6D Tb4D 1_555 1_555
N6B Tb4B 1_555 1_555
N7D Tb4D 1_555 1_555
N7B Tb4B 1_555 1_555
O50D Tb4D 1_555 1_555
O50B Tb4B 1_555 1_555
O51D C25D 1_555 1_555
O52D Tb4D 1_555 1_555
O52B Tb4B 1_555 1_555
O53D C32D 1_555 1_555
C17D N1D 1_555 1_555
H15D C17D 1_555 1_555
H16D C17D 1_555 1_555
C18D C17D 1_555 1_555
H17D C18D 1_555 1_555
H18D C18D 1_555 1_555
C19D N5D 1_555 1_555
H19D C19D 1_555 1_555
H20D C19D 1_555 1_555
C20D N6D 1_555 1_555
C21D C20D 1_555 1_555
H21D C21D 1_555 1_555
C22D C21D 1_555 1_555
H22D C22D 1_555 1_555
C23D C22D 1_555 1_555
H23D C23D 1_555 1_555
C24D N6D 1_555 1_555
C25D O50D 1_555 1_555
C26D N5D 1_555 1_555
H24D C26D 1_555 1_555
H25D C26D 1_555 1_555
C27D N7D 1_555 1_555
C28D C27D 1_555 1_555
H26D C28D 1_555 1_555
C29D C28D 1_555 1_555
H27D C29D 1_555 1_555
C30D C29D 1_555 1_555
H28D C30D 1_555 1_555
C31D N7D 1_555 1_555
C32D O52D 1_555 1_555
N8D C34D 1_555 1_555
N8B Tb3B 1_555 1_555
N9D Tb3D 1_555 1_555
N9B Tb3B 1_555 1_555
N10D Tb3D 1_555 1_555
N10B Tb3B 1_555 1_555
O54D Tb3D 1_555 1_555
O54B Tb3B 1_555 1_555
O55D C41D 1_555 1_555
O56D Tb3D 1_555 1_555
O56B Tb3B 1_555 1_555
O57D Tb2 1_555 1_555
C33D N1D 1_555 1_555
H29D C33D 1_555 1_555
H30D C33D 1_555 1_555
C34D C33D 1_555 1_555
H31D C34D 1_555 1_555
H32D C34D 1_555 1_555
C35D N8D 1_555 1_555
H33D C35D 1_555 1_555
H34D C35D 1_555 1_555
C36D N9D 1_555 1_555
C37D C36D 1_555 1_555
H35D C37D 1_555 1_555
C38D C37D 1_555 1_555
H36D C38D 1_555 1_555
C39D C38D 1_555 1_555
H37D C39D 1_555 1_555
C40D N9D 1_555 1_555
C41D O54D 1_555 1_555
C42D N8D 1_555 1_555
H38D C42D 1_555 1_555
H39D C42D 1_555 1_555
C43D N10D 1_555 1_555
C44D C43D 1_555 1_555
H40D C44D 1_555 1_555
C45D C44D 1_555 1_555
H41D C45D 1_555 1_555
C46D C45D 1_555 1_555
H42D C46D 1_555 1_555
C47D N10D 1_555 1_555
C48D O56D 1_555 1_555
N11B H43B 1_555 1_555
N12B Tb4B 1_555 1_555
N13B Tb4B 1_555 1_555
N14B Tb4B 1_555 1_555
O58B Tb4B 1_555 1_555
O59B Tb1B 1_555 1_555
O60B Tb4B 1_555 1_555
O61B C64B 1_555 1_555
C49B N11B 1_555 1_555
H44B C49B 1_555 1_555
H45B C49B 1_555 1_555
C50B N12B 1_555 1_555
H46B C50B 1_555 1_555
H47B C50B 1_555 1_555
C51B N12B 1_555 1_555
H48B C51B 1_555 1_555
H49B C51B 1_555 1_555
C52B N13B 1_555 1_555
C53B C52B 1_555 1_555
H50B C53B 1_555 1_555
C54B C53B 1_555 1_555
H51B C54B 1_555 1_555
C55B C54B 1_555 1_555
H52B C55B 1_555 1_555
C56B N13B 1_555 1_555
C57B O58B 1_555 1_555
C58B N12B 1_555 1_555
H53B C58B 1_555 1_555
H54B C58B 1_555 1_555
C59B N14B 1_555 1_555
C60B C59B 1_555 1_555
H55B C60B 1_555 1_555
C61B C60B 1_555 1_555
H56B C61B 1_555 1_555
C62B C61B 1_555 1_555
H57B C62B 1_555 1_555
C63B N14B 1_555 1_555
C64B O60B 1_555 1_555
N15B Tb2D 1_555 1_555
N15F Tb2 1_555 1_555
N16B Tb2D 1_555 1_555
N16F Tb2 1_555 1_555
N17B Tb2D 1_555 1_555
N17F Tb2 1_555 1_555
O62B Tb2D 1_555 1_555
O62F Tb2 1_555 1_555
O63B C73B 1_555 1_555
O64B Tb2D 1_555 1_555
O64F Tb2 1_555 1_555
O65B C80B 1_555 1_555
C65B N11B 1_555 1_555
H58B C65B 1_555 1_555
H59B C65B 1_555 1_555
C66B N15B 1_555 1_555
H60B C66B 1_555 1_555
H61B C66B 1_555 1_555
C67B N15B 1_555 1_555
H62B C67B 1_555 1_555
H63B C67B 1_555 1_555
C68B N16B 1_555 1_555
C69B C68B 1_555 1_555
H64B C69B 1_555 1_555
C70B C69B 1_555 1_555
H65B C70B 1_555 1_555
C71B C70B 1_555 1_555
H66B C71B 1_555 1_555
C72B N16B 1_555 1_555
C73B O62B 1_555 1_555
C74B N15B 1_555 1_555
H67B C74B 1_555 1_555
H68B C74B 1_555 1_555
C75B N17B 1_555 1_555
C76B C75B 1_555 1_555
H69B C76B 1_555 1_555
C77B C76B 1_555 1_555
H70B C77B 1_555 1_555
C78B C77B 1_555 1_555
H71B C78B 1_555 1_555
C79B N17B 1_555 1_555
C80B O64B 1_555 1_555
N18B Tb3 1_555 1_555
N19B Tb3 1_555 1_555
N20B Tb3 1_555 1_555
O66B Tb3 1_555 1_555
O67B C89B 1_555 1_555
O68B Tb3 1_555 1_555
O69B Tb1 1_555 1_555
C81B N11B 1_555 1_555
H72B C81B 1_555 1_555
H73B C81B 1_555 1_555
C82B N18B 1_555 1_555
H74B C82B 1_555 1_555
H75B C82B 1_555 1_555
C83B N18B 1_555 1_555
H76B C83B 1_555 1_555
H77B C83B 1_555 1_555
C84B N19B 1_555 1_555
C85B C84B 1_555 1_555
H78B C85B 1_555 1_555
C86B C85B 1_555 1_555
H79B C86B 1_555 1_555
C87B C86B 1_555 1_555
H80B C87B 1_555 1_555
C88B N19B 1_555 1_555
C89B O66B 1_555 1_555
C90B N18B 1_555 1_555
H81B C90B 1_555 1_555
H82B C90B 1_555 1_555
C91B N20B 1_555 1_555
C92B C91B 1_555 1_555
H83B C92B 1_555 1_555
C93B C92B 1_555 1_555
H84B C93B 1_555 1_555
C94B C93B 1_555 1_555
H85B C94B 1_555 1_555
C95B N20B 1_555 1_555
C96B O68B 1_555 1_555
O47 C9 1_555 1_555
C1 C2 1_555 1_555
C3 C4 1_555 1_555
C7 C8 1_555 1_555
C8 C9 1_555 1_555
C10 C11 1_555 1_555
C14 C15 1_555 1_555
C15 C16 1_555 1_555
C19 C20 1_555 1_555
C23 C24 1_555 1_555
C24 C25 1_555 1_555
C26 C27 1_555 1_555
C30 C31 1_555 1_555
C31 C32 1_555 1_555
O57 Tb2D 1_555 1_555
C35 C36 1_555 1_555
C39 C40 1_555 1_555
C40 C41 1_555 1_555
C42 C43 1_555 1_555
C46 C47 1_555 1_555
C47 C48 1_555 1_555
O59 C57 1_555 1_555
C49 C50 1_555 1_555
C51 C52 1_555 1_555
C55 C56 1_555 1_555
C56 C57 1_555 1_555
C58 C59 1_555 1_555
C62 C63 1_555 1_555
C63 C64 1_555 1_555
N16 Tb2F 1_555 1_555
N17 Tb2F 1_555 1_555
O62 Tb2F 1_555 1_555
O64 Tb2F 1_555 1_555
C71 C72 1_555 1_555
C78 C79 1_555 1_555
N19 Tb3B 1_555 1_555
N20 Tb3B 1_555 1_555
O66 Tb3B 1_555 1_555
O68 Tb3B 1_555 1_555
C87 C88 1_555 1_555
C94 C95 1_555 1_555
O47D C9D 1_555 1_555
O49D C16D 1_555 1_555
C3D C4D 1_555 1_555
C7D C8D 1_555 1_555
C8D C9D 1_555 1_555
C10D C11D 1_555 1_555
C14D C15D 1_555 1_555
C15D C16D 1_555 1_555
C19D C20D 1_555 1_555
C23D C24D 1_555 1_555
C24D C25D 1_555 1_555
C26D C27D 1_555 1_555
C30D C31D 1_555 1_555
C31D C32D 1_555 1_555
O57D C48D 1_555 1_555
C35D C36D 1_555 1_555
C39D C40D 1_555 1_555
C40D C41D 1_555 1_555
C42D C43D 1_555 1_555
C46D C47D 1_555 1_555
C47D C48D 1_555 1_555
O59B C57B 1_555 1_555
C49B C50B 1_555 1_555
C51B C52B 1_555 1_555
C55B C56B 1_555 1_555
C56B C57B 1_555 1_555
C58B C59B 1_555 1_555
C62B C63B 1_555 1_555
C63B C64B 1_555 1_555
C65B C66B 1_555 1_555
C67B C68B 1_555 1_555
C71B C72B 1_555 1_555
C72B C73B 1_555 1_555
C74B C75B 1_555 1_555
C78B C79B 1_555 1_555
C79B C80B 1_555 1_555
O69B C96B 1_555 1_555
C81B C82B 1_555 1_555
C83B C84B 1_555 1_555
C87B C88B 1_555 1_555
C88B C89B 1_555 1_555
C90B C91B 1_555 1_555
C94B C95B 1_555 1_555
C95B C96B 1_555 1_555

#END
