
#######################################################################
#
#                 Cambridge Crystallographic Data Centre
#                                CCDC 
#
#######################################################################
#
# If this CIF has been generated from an entry in the Cambridge 
# Structural Database, then it will include bibliographic, chemical, 
# crystal, experimental, refinement or atomic coordinate data resulting 
# from the CCDC's data processing and validation procedures.
#
#######################################################################

data_IFODOW
_symmetry_cell_setting           monoclinic
_symmetry_space_group_name_H-M   'P 21/c'
_symmetry_Int_Tables_number      14
_space_group_name_Hall           '-P 2ybc'
loop_
_symmetry_equiv_pos_site_id
_symmetry_equiv_pos_as_xyz
1 x,y,z
2 x,1/2-y,1/2+z
3 -x,-y,-z
4 -x,1/2+y,1/2-z
_cell_length_a                   5.9620(10)
_cell_length_b                   11.361(2)
_cell_length_c                   15.187(2)
_cell_angle_alpha                90
_cell_angle_beta                 99.350(10)
_cell_angle_gamma                90
_cell_volume                     1015.01
loop_
_atom_site_label
_atom_site_type_symbol
_atom_site_fract_x
_atom_site_fract_y
_atom_site_fract_z
Cu1 Cu 0.77514(6) 0.65697(3) 0.07866(2)
O1 O 0.9640(4) 0.65350(15) -0.02108(13)
O2 O 0.6600(4) 0.8109(2) 0.0501(2)
O3 O 0.9454(4) 0.9277(2) 0.1096(2)
O4 O 1.1002(4) 0.7162(2) 0.1816(2)
N1 N 1.1732(4) 0.5097(2) -0.0796(2)
N2 N 1.4246(5) 0.3847(2) -0.1704(2)
C1 C 1.0381(5) 0.5487(2) -0.0286(2)
C2 C 1.2769(7) 0.5785(3) -0.1436(3)
C3 C 1.4795(7) 0.5114(3) -0.1616(3)
C4 C 1.5810(9) 0.5609(4) -0.2383(3)
C5 C 0.7550(5) 0.9106(2) 0.0647(2)
C6 C 0.6179(6) 1.0147(3) 0.0229(3)
H1 H 1.0703(67) 0.7030(33) 0.2302(21)
H2 H 1.0858(62) 0.7800(25) 0.1689(24)
H5 H 1.5459(53) 0.3499(28) -0.1633(25)
H6 H 1.3347(57) 0.3778(31) -0.2227(21)
H7 H 1.1591(57) 0.5792(29) -0.2084(24)
H8 H 1.3320(69) 0.6598(34) -0.1216(27)
H9 H 1.6027(70) 0.5166(33) -0.0989(27)
H10 H 1.451(10) 0.5482(46) -0.2880(39)
H11 H 1.7366(87) 0.5243(40) -0.2421(31)
H12 H 1.6193(78) 0.6474(41) -0.2317(32)
H13 H 0.6893(68) 1.0461(33) -0.0182(27)
H14 H 0.6082(59) 1.0658(30) 0.0649(24)
C1B C 0.9619(5) 0.4513(2) 0.0286(2)
O1B O 1.0360(4) 0.34650(15) 0.02108(13)
N1B N 0.8268(4) 0.4903(2) 0.0796(2)
C2B C 0.7231(7) 0.4215(3) 0.1436(3)
C3B C 0.5205(7) 0.4886(3) 0.1616(3)
N2B N 0.5754(5) 0.6153(2) 0.1704(2)
H5B H 0.4541(53) 0.6501(28) 0.1633(25)
H6B H 0.6653(57) 0.6222(31) 0.2227(21)
C4B C 0.4190(9) 0.4391(4) 0.2383(3)
H10B H 0.549(10) 0.4518(46) 0.2880(39)
H11B H 0.2634(87) 0.4757(40) 0.2421(31)
H12B H 0.3807(78) 0.3526(41) 0.2317(32)
H9B H 0.3973(70) 0.4834(33) 0.0989(27)
H7B H 0.8409(57) 0.4208(29) 0.2084(24)
H8B H 0.6680(69) 0.3402(34) 0.1216(27)
C6B C 0.3821(6) 0.9853(3) -0.0229(3)
C5B C 0.2450(5) 1.0894(2) -0.0647(2)
O2B O 0.3400(4) 1.1891(2) -0.0501(2)
O3B O 0.0546(4) 1.0723(2) -0.1096(2)
H13B H 0.3107(68) 0.9539(33) 0.0182(27)
H14B H 0.3918(59) 0.9342(30) -0.0649(24)
Cu1B Cu 1.22486(6) 0.34303(3) -0.07866(2)
O4B O 0.8998(4) 0.2838(2) -0.1816(2)
H1B H 0.9297(67) 0.2970(33) -0.2302(21)
H2B H 0.9142(62) 0.2200(25) -0.1689(24)
Cu1B_2 Cu 0.22486(6) 1.34303(3) -0.07866(2)
O2B_2 O 1.3400(4) 0.1891(2) -0.0501(2)
O5 O 0.0757(5) 0.1594(2) 0.1580(2)
H3 H 0.0552(64) 0.2034(28) 0.1161(22)
H4 H 0.0618(66) 0.0984(27) 0.1364(25)
loop_
_geom_bond_atom_site_label_1
_geom_bond_atom_site_label_2
_geom_bond_site_symmetry_1
_geom_bond_site_symmetry_2
Cu1 O1 1_555 1_555
O1 C1 1_555 1_555
O2 Cu1 1_555 1_555
O3 C5 1_555 1_555
O4 Cu1 1_555 1_555
O5 H3 1_555 1_555
N1 C1 1_555 1_555
N2 C3 1_555 1_555
C1 C1B 1_555 1_555
C2 N1 1_555 1_555
C3 C2 1_555 1_555
C4 C3 1_555 1_555
C5 O2 1_555 1_555
C6 C5 1_555 1_555
H1 O4 1_555 1_555
H2 O4 1_555 1_555
H4 O5 1_555 1_555
H5 N2 1_555 1_555
H6 N2 1_555 1_555
H7 C2 1_555 1_555
H8 C2 1_555 1_555
H9 C3 1_555 1_555
H10 C4 1_555 1_555
H11 C4 1_555 1_555
H12 C4 1_555 1_555
H13 C6 1_555 1_555
H14 C6 1_555 1_555
C1B O1B 1_555 1_555
O1B Cu1B 1_555 1_555
N1B Cu1 1_555 1_555
C2B N1B 1_555 1_555
C3B C2B 1_555 1_555
N2B Cu1 1_555 1_555
H5B N2B 1_555 1_555
H6B N2B 1_555 1_555
C4B C3B 1_555 1_555
H10B C4B 1_555 1_555
H11B C4B 1_555 1_555
H12B C4B 1_555 1_555
H9B C3B 1_555 1_555
H7B C2B 1_555 1_555
H8B C2B 1_555 1_555
C6B C6 1_555 1_555
C5B C6B 1_555 1_555
O2B C5B 1_555 1_555
O3B C5B 1_555 1_555
H13B C6B 1_555 1_555
H14B C6B 1_555 1_555
Cu1B N1 1_555 1_555
O4B Cu1B 1_555 1_555
H1B O4B 1_555 1_555
H2B O4B 1_555 1_555
Cu1B_2 O2B 1_555 1_555
O2B_2 Cu1B 1_555 1_555
N2 Cu1B 1_555 1_555
C1B N1B 1_555 1_555
C3B N2B 1_555 1_555

#END
