
#######################################################################
#
#                 Cambridge Crystallographic Data Centre
#                                CCDC 
#
#######################################################################
#
# If this CIF has been generated from an entry in the Cambridge 
# Structural Database, then it will include bibliographic, chemical, 
# crystal, experimental, refinement or atomic coordinate data resulting 
# from the CCDC's data processing and validation procedures.
#
#######################################################################

data_IFODUC
_symmetry_cell_setting           monoclinic
_symmetry_space_group_name_H-M   'P 21/c'
_symmetry_Int_Tables_number      14
_space_group_name_Hall           '-P 2ybc'
loop_
_symmetry_equiv_pos_site_id
_symmetry_equiv_pos_as_xyz
1 x,y,z
2 x,1/2-y,1/2+z
3 -x,-y,-z
4 -x,1/2+y,1/2-z
_cell_length_a                   8.2905(19)
_cell_length_b                   10.099(2)
_cell_length_c                   10.939(3)
_cell_angle_alpha                90.00
_cell_angle_beta                 95.132(4)
_cell_angle_gamma                90.00
_cell_volume                     912.205
loop_
_atom_site_label
_atom_site_type_symbol
_atom_site_fract_x
_atom_site_fract_y
_atom_site_fract_z
Cu1 Cu 0.36494(4) 0.17514(3) 0.13732(3)
O1 O 0.3000(2) 0.06436(19) -0.01433(17)
O2 O 0.2825(3) -0.0028(3) 0.2556(2)
H1 H 0.218(5) -0.032(4) 0.228(4)
H2 H 0.268(5) 0.040(4) 0.325(4)
O3 O 0.1651(2) 0.2753(2) 0.13269(19)
O5 O 0.2674(3) 0.3809(2) -0.0194(2)
N1 N 0.4259(3) -0.0986(2) -0.1210(2)
N2 N 0.5177(3) -0.2634(3) -0.2857(3)
H5 H 0.486(5) -0.342(4) -0.266(4)
H6 H 0.567(5) -0.274(4) -0.345(4)
C1 C 0.4186(3) -0.0087(2) -0.0380(2)
C2 C 0.2948(4) -0.1354(4) -0.2125(3)
H7 H 0.228(4) -0.202(3) -0.178(3)
H8 H 0.231(4) -0.066(3) -0.229(3)
C3 C 0.3736(4) -0.1802(3) -0.3257(3)
H9 H 0.301(4) -0.233(3) -0.372(3)
H10 H 0.399(4) -0.102(4) -0.370(3)
C4 C 0.1572(3) 0.3613(3) 0.0462(3)
C5 C -0.0002(4) 0.4372(3) 0.0301(5)
H11 H -0.0797 0.3816 -0.0156
H12 H -0.0373 0.4509 0.1107
C1B C 0.5814(3) 0.0087(2) 0.0380(2)
O1B O 0.7000(2) -0.06436(19) 0.01433(17)
N1B N 0.5741(3) 0.0986(2) 0.1210(2)
C2B C 0.7052(4) 0.1354(4) 0.2125(3)
H7B H 0.772(4) 0.202(3) 0.178(3)
H8B H 0.769(4) 0.066(3) 0.229(3)
C3B C 0.6264(4) 0.1802(3) 0.3257(3)
N2B N 0.4823(3) 0.2634(3) 0.2857(3)
H5B H 0.514(5) 0.342(4) 0.266(4)
H6B H 0.433(5) 0.274(4) 0.345(4)
H9B H 0.699(4) 0.233(3) 0.372(3)
H10B H 0.601(4) 0.102(4) 0.370(3)
C5B C 0.0002(4) 0.5628(3) -0.0301(5)
C4B C -0.1572(3) 0.6387(3) -0.0462(3)
O3B O -0.1651(2) 0.7247(2) -0.13269(19)
O5B O -0.2674(3) 0.6191(2) 0.0194(2)
H11B H 0.0797 0.6184 0.0156
H12B H 0.0373 0.5491 -0.1107
Cu1B Cu 0.63506(4) -0.17514(3) -0.13732(3)
O2B O 0.7175(3) 0.0028(3) -0.2556(2)
H1B H 0.782(5) 0.032(4) -0.228(4)
H2B H 0.732(5) -0.040(4) -0.325(4)
Cu1B_2 Cu -0.36494(4) 0.82486(3) -0.13732(3)
O3B_2 O 0.8349(2) -0.2753(2) -0.13269(19)
O4 O -0.0015(3) 0.3591(3) 0.3403(3)
H3 H 0.044(5) 0.326(4) 0.295(4)
H4 H 0.053(5) 0.390(4) 0.394(4)
loop_
_geom_bond_atom_site_label_1
_geom_bond_atom_site_label_2
_geom_bond_site_symmetry_1
_geom_bond_site_symmetry_2
Cu1 O1 1_555 1_555
O1 C1 1_555 1_555
O2 Cu1 1_555 1_555
H1 O2 1_555 1_555
H2 O2 1_555 1_555
O3 Cu1 1_555 1_555
O4 H3 1_555 1_555
H4 O4 1_555 1_555
O5 C4 1_555 1_555
N1 C1 1_555 1_555
N2 H5 1_555 1_555
H6 N2 1_555 1_555
C1 C1B 1_555 1_555
C2 N1 1_555 1_555
H7 C2 1_555 1_555
H8 C2 1_555 1_555
C3 N2 1_555 1_555
H9 C3 1_555 1_555
H10 C3 1_555 1_555
C4 O3 1_555 1_555
C5 C4 1_555 1_555
H11 C5 1_555 1_555
H12 C5 1_555 1_555
C1B O1B 1_555 1_555
O1B Cu1B 1_555 1_555
N1B Cu1 1_555 1_555
C2B N1B 1_555 1_555
H7B C2B 1_555 1_555
H8B C2B 1_555 1_555
C3B C2B 1_555 1_555
N2B Cu1 1_555 1_555
H5B N2B 1_555 1_555
H6B N2B 1_555 1_555
H9B C3B 1_555 1_555
H10B C3B 1_555 1_555
C5B C5 1_555 1_555
C4B C5B 1_555 1_555
O3B C4B 1_555 1_555
O5B C4B 1_555 1_555
H11B C5B 1_555 1_555
H12B C5B 1_555 1_555
Cu1B N1 1_555 1_555
O2B Cu1B 1_555 1_555
H1B O2B 1_555 1_555
H2B O2B 1_555 1_555
Cu1B_2 O3B 1_555 1_555
O3B_2 Cu1B 1_555 1_555
N2 Cu1B 1_555 1_555
C2 C3 1_555 1_555
C1B N1B 1_555 1_555
C3B N2B 1_555 1_555

#END
