
#######################################################################
#
#                 Cambridge Crystallographic Data Centre
#                                CCDC 
#
#######################################################################
#
# If this CIF has been generated from an entry in the Cambridge 
# Structural Database, then it will include bibliographic, chemical, 
# crystal, experimental, refinement or atomic coordinate data resulting 
# from the CCDC's data processing and validation procedures.
#
#######################################################################

data_IFOHAN01
_symmetry_cell_setting           monoclinic
_symmetry_space_group_name_H-M   'P 21/c'
_symmetry_Int_Tables_number      14
_space_group_name_Hall           '-P 2ybc'
loop_
_symmetry_equiv_pos_site_id
_symmetry_equiv_pos_as_xyz
1 x,y,z
2 -x,1/2+y,1/2-z
3 -x,-y,-z
4 x,1/2-y,1/2+z
_cell_length_a                   9.9505(16)
_cell_length_b                   9.6501(16)
_cell_length_c                   11.5615(19)
_cell_angle_alpha                90
_cell_angle_beta                 115.49(2)
_cell_angle_gamma                90
_cell_volume                     1002.11
loop_
_atom_site_label
_atom_site_type_symbol
_atom_site_fract_x
_atom_site_fract_y
_atom_site_fract_z
O1 O -0.0499(6) 0.2317(5) -0.3619(5)
O2 O 0.0987(4) 0.1052(6) -0.4014(4)
O3 O 0.1425(3) 0.0272(3) 0.0596(3)
C1 C 0.2911(4) 0.0328(5) 0.0994(4)
C2 C 0.3864(5) -0.0589(5) 0.1869(4)
H1 H 0.3483 -0.1287 0.2196
Pb1 Pb -0.005910(16) 0.188260(18) -0.076490(14)
O4 O 0.0184(4) 0.0348(4) -0.2652(3)
N1 N 0.2552(4) 0.2245(4) -0.0408(3)
N2 N 0.0195(4) 0.1232(6) -0.3444(4)
C3 C 0.3521(4) 0.1354(5) 0.0481(4)
C4 C 0.6012(4) 0.0506(5) 0.1818(4)
H2 H 0.7039 0.0560 0.2107
C5 C 0.5072(4) 0.1461(5) 0.0891(4)
C6 C 0.3094(6) 0.3198(5) -0.0909(5)
H3 H 0.2428 0.3791 -0.1523
C7 C 0.5581(5) 0.2504(6) 0.0326(5)
H4 H 0.6596 0.2605 0.0568
C8 C 0.5413(5) -0.0485(5) 0.2280(4)
H5 H 0.6039 -0.1111 0.2882
C9 C 0.4595(6) 0.3366(5) -0.0573(5)
H6 H 0.4926 0.4053 -0.0953
O1C O -0.0499(6) 0.2683(5) 0.1381(5)
O2C O 0.0987(4) 0.3948(6) 0.0986(4)
O3B O -0.1425(3) -0.0272(3) -0.0596(3)
Pb1C Pb -0.005910(16) 0.311740(18) -0.576490(14)
Pb1B Pb 0.005910(16) -0.188260(18) 0.076490(14)
loop_
_geom_bond_atom_site_label_1
_geom_bond_atom_site_label_2
_geom_bond_site_symmetry_1
_geom_bond_site_symmetry_2
O1 N2 1_555 1_555
O2 N2 1_555 1_555
O3 C1 1_555 1_555
C1 C2 1_555 1_555
C2 H1 1_555 1_555
Pb1 O3 1_555 1_555
O4 Pb1 1_555 1_555
N1 Pb1 1_555 1_555
N2 O4 1_555 1_555
C3 C1 1_555 1_555
C4 H2 1_555 1_555
C5 C3 1_555 1_555
C6 N1 1_555 1_555
H3 C6 1_555 1_555
C7 C5 1_555 1_555
H4 C7 1_555 1_555
C8 C2 1_555 1_555
H5 C8 1_555 1_555
C9 C6 1_555 1_555
H6 C9 1_555 1_555
O1C Pb1 1_555 1_555
O2C Pb1 1_555 1_555
O3B Pb1 1_555 1_555
Pb1C O1 1_555 1_555
Pb1B O3 1_555 1_555
O2 Pb1C 1_555 1_555
N1 C3 1_555 1_555
C4 C5 1_555 1_555
C4 C8 1_555 1_555
C7 C9 1_555 1_555
O3B Pb1B 1_555 1_555

#END
