
#######################################################################
#
#                 Cambridge Crystallographic Data Centre
#                                CCDC 
#
#######################################################################
#
# If this CIF has been generated from an entry in the Cambridge 
# Structural Database, then it will include bibliographic, chemical, 
# crystal, experimental, refinement or atomic coordinate data resulting 
# from the CCDC's data processing and validation procedures.
#
#######################################################################

data_IFOHAN
_symmetry_cell_setting           monoclinic
_symmetry_space_group_name_H-M   'P 21/c'
_symmetry_Int_Tables_number      14
_space_group_name_Hall           '-P 2ybc'
loop_
_symmetry_equiv_pos_site_id
_symmetry_equiv_pos_as_xyz
1 x,y,z
2 -x,1/2+y,1/2-z
3 -x,-y,-z
4 x,1/2-y,1/2+z
_cell_length_a                   9.9504(19)
_cell_length_b                   9.6520(18)
_cell_length_c                   11.558(2)
_cell_angle_alpha                90
_cell_angle_beta                 115.50(1)
_cell_angle_gamma                90
_cell_volume                     1001.91
loop_
_atom_site_label
_atom_site_type_symbol
_atom_site_fract_x
_atom_site_fract_y
_atom_site_fract_z
Pb1 Pb -0.00596(2) 0.31171(2) 0.423409(18)
O1 O 0.1427(4) 0.4730(4) 0.5597(3)
O2 O 0.0176(5) 0.4652(5) 0.2343(4)
O3 O 0.1004(6) 0.3937(7) 0.1002(5)
O4 O -0.0520(8) 0.2703(6) 0.1367(6)
N1 N 0.2560(5) 0.2747(5) 0.4594(4)
N2 N 0.0199(6) 0.3763(7) 0.1557(5)
C1 C 0.3526(6) 0.3636(6) 0.5483(5)
C2 C 0.2911(6) 0.4676(5) 0.5993(4)
C3 C 0.3863(6) 0.5583(6) 0.6875(5)
H1 H 0.3479 0.6272 0.7209
C4 C 0.5413(6) 0.5496(6) 0.7286(5)
H2 H 0.6035 0.6126 0.7887
C5 C 0.6014(6) 0.4501(6) 0.6816(5)
H3 H 0.7041 0.4449 0.7102
C6 C 0.5076(5) 0.3547(7) 0.5894(5)
C7 C 0.5581(7) 0.2503(7) 0.5326(6)
H4 H 0.6595 0.2401 0.5563
C8 C 0.4588(7) 0.1636(7) 0.4425(6)
H5 H 0.4921 0.0941 0.4055
C9 C 0.3098(7) 0.1803(6) 0.4077(6)
H6 H 0.2431 0.1226 0.3447
Pb1B Pb 0.00596(2) 0.68829(2) 0.576591(18)
Pb1C Pb -0.00596(2) 0.18829(2) -0.076591(18)
O1B O -0.1427(4) 0.5270(4) 0.4403(3)
O3C O 0.1004(6) 0.1063(7) 0.6002(5)
O4C O -0.0520(8) 0.2297(6) 0.6367(6)
loop_
_geom_bond_atom_site_label_1
_geom_bond_atom_site_label_2
_geom_bond_site_symmetry_1
_geom_bond_site_symmetry_2
Pb1 O1 1_555 1_555
O1 C2 1_555 1_555
O2 Pb1 1_555 1_555
O3 N2 1_555 1_555
O4 N2 1_555 1_555
N1 Pb1 1_555 1_555
N2 O2 1_555 1_555
C1 N1 1_555 1_555
C2 C1 1_555 1_555
C3 C2 1_555 1_555
H1 C3 1_555 1_555
C4 C3 1_555 1_555
H2 C4 1_555 1_555
C5 C4 1_555 1_555
H3 C5 1_555 1_555
C6 C1 1_555 1_555
C7 C6 1_555 1_555
H4 C7 1_555 1_555
C8 C7 1_555 1_555
H5 C8 1_555 1_555
C9 N1 1_555 1_555
H6 C9 1_555 1_555
Pb1B O1 1_555 1_555
Pb1C O3 1_555 1_555
O1B Pb1 1_555 1_555
O3C Pb1 1_555 1_555
O4C Pb1 1_555 1_555
O4 Pb1C 1_555 1_555
C5 C6 1_555 1_555
C8 C9 1_555 1_555
Pb1B O1B 1_555 1_555

#END
