
#######################################################################
#
#                 Cambridge Crystallographic Data Centre
#                                CCDC 
#
#######################################################################
#
# If this CIF has been generated from an entry in the Cambridge 
# Structural Database, then it will include bibliographic, chemical, 
# crystal, experimental, refinement or atomic coordinate data resulting 
# from the CCDC's data processing and validation procedures.
#
#######################################################################

data_IFOJUI
_symmetry_cell_setting           triclinic
_symmetry_space_group_name_H-M   'P -1'
_symmetry_Int_Tables_number      2
_space_group_name_Hall           '-P 1'
loop_
_symmetry_equiv_pos_site_id
_symmetry_equiv_pos_as_xyz
1 x,y,z
2 -x,-y,-z
_cell_length_a                   12.837(3)
_cell_length_b                   14.193(3)
_cell_length_c                   14.590(3)
_cell_angle_alpha                105.17(3)
_cell_angle_beta                 114.45(3)
_cell_angle_gamma                105.95(3)
_cell_volume                     2101.8
loop_
_atom_site_label
_atom_site_type_symbol
_atom_site_fract_x
_atom_site_fract_y
_atom_site_fract_z
Mo1 Mo 0.23032(3) 0.55677(2) 0.43718(3)
Mo2 Mo 0.46691(3) 0.22368(2) 0.43243(3)
Mo3 Mo 0.26367(3) 0.42815(2) 0.21477(2)
Mo4 Mo 0.43237(3) 0.35355(3) 0.65469(3)
V1 V 0.28558(5) 0.22160(5) 0.21609(5)
V2 V 0.53732(5) 0.36735(4) 0.27333(4)
V3 V 0.22706(5) 0.42907(5) 0.57465(5)
V4 V 0.18849(5) 0.27641(4) 0.36714(5)
Co1 Co 0.0000 0.0000 0.0000
Co2 Co -0.02941(5) 0.63753(4) 0.31395(4)
P1 P 0.5000 0.5000 0.5000
C1 C -0.1443(6) 0.3932(4) 0.1688(5)
H1 H -0.0738 0.3952 0.2260
C2 C -0.2369(7) 0.2939(5) 0.0790(6)
H2 H -0.2291 0.2298 0.0743
C3 C -0.3407(6) 0.2952(6) -0.0026(5)
H3 H -0.4064 0.2301 -0.0622
C4 C -0.3489(5) 0.3923(5) 0.0026(5)
H4 H -0.4174 0.3929 -0.0541
C5 C -0.2555(4) 0.4845(4) 0.0914(3)
C6 C -0.2588(4) 0.5893(4) 0.1063(4)
C7 C -0.3458(5) 0.6059(6) 0.0241(5)
H5 H -0.4051 0.5494 -0.0464
C8 C -0.3430(6) 0.7078(6) 0.0485(5)
H6 H -0.4025 0.7189 -0.0058
C9 C -0.2531(6) 0.7942(6) 0.1526(5)
H7 H -0.2507 0.8629 0.1699
C10 C -0.1672(5) 0.7713(5) 0.2293(5)
H8 H -0.1058 0.8274 0.2995
C11 C 0.0653(6) 0.8481(4) 0.5117(4)
H9 H -0.0012 0.8091 0.5173
C12 C 0.1415(8) 0.9587(5) 0.5831(6)
H10 H 0.1260 0.9932 0.6363
C13 C 0.2374(9) 1.0145(5) 0.5741(8)
H11 H 0.2896 1.0877 0.6218
C14 C 0.2567(7) 0.9633(5) 0.4953(7)
H12 H 0.3210 1.0019 0.4871
C15 C 0.1833(4) 0.8558(3) 0.4278(4)
C16 C 0.1982(4) 0.7933(4) 0.3393(4)
C17 C 0.3039(5) 0.8311(5) 0.3310(5)
H13 H 0.3703 0.8994 0.3825
C18 C 0.3102(6) 0.7674(6) 0.2462(6)
H14 H 0.3807 0.7918 0.2397
C19 C 0.2116(6) 0.6681(5) 0.1722(6)
H15 H 0.2138 0.6233 0.1144
C20 C 0.1079(5) 0.6344(4) 0.1838(4)
H16 H 0.0394 0.5673 0.1317
C21 C -0.1000(6) 0.1453(5) -0.0736(5)
H17 H -0.1868 0.0920 -0.1297
H18 H -0.0985 0.2167 -0.0554
C22 C -0.0204(7) 0.1389(5) -0.1169(6)
H19 H 0.0636 0.1987 -0.0650
H20 H -0.0546 0.1456 -0.1866
N1 N -0.1536(3) 0.4851(3) 0.1750(3)
N2 N -0.1677(3) 0.6733(3) 0.2078(3)
N3 N 0.0875(4) 0.7993(3) 0.4365(3)
N4 N 0.1028(3) 0.6945(3) 0.2668(3)
N5 N -0.0580(4) 0.1258(3) 0.0253(3)
H21 H -0.1218 0.1063 0.0380
H22 H 0.0074 0.1866 0.0849
N6 N -0.0096(4) 0.0324(3) -0.1366(3)
H23 H 0.0608 0.0384 -0.1388
H24 H -0.0778 -0.0210 -0.2013
O1 O 0.5569(3) 0.3076(2) 0.1768(2)
O2 O 0.4588(2) 0.2445(2) 0.3010(2)
O3 O 0.1909(3) 0.3003(2) 0.2392(2)
O4 O 0.1020(3) 0.5828(2) 0.4042(3)
O5 O 0.2602(3) 0.3072(3) 0.5270(2)
O6 O 0.4048(3) 0.2864(2) 0.7266(3)
O7 O 0.1626(3) 0.4065(2) 0.4213(2)
O8 O 0.1151(2) 0.3994(2) 0.6038(2)
O9 O 0.7074(3) 0.4232(2) 0.4078(2)
O10 O 0.4552(3) 0.0977(2) 0.4037(3)
O11 O 0.3585(3) 0.3450(2) 0.1937(3)
O12 O 0.1949(3) 0.1091(2) 0.0992(2)
O13 O 0.2890(3) 0.2006(3) 0.3438(3)
O14 O 0.6066(3) 0.5222(2) 0.2998(3)
O15 O 0.1530(3) 0.3981(3) 0.0861(2)
O16 O 0.0500(3) 0.1793(2) 0.3078(3)
O17 O 0.6433(3) 0.3078(3) 0.5131(3)
O18 O 0.3943(3) 0.5536(2) 0.2479(4)
O19 O 0.4248(4) 0.3851(4) 0.4884(4)
O20 O 0.4754(4) 0.4869(4) 0.3828(4)
O21 O 0.4584(4) 0.2582(4) 0.5608(3)
O22 O 0.2106(5) 0.5044(3) 0.2972(3)
O19A O 0.5752(4) 0.6149(4) 0.5116(4)
O20A O 0.5246(4) 0.5131(4) 0.6172(4)
C21A C 0.1000(6) -0.1453(5) 0.0736(5)
H17A H 0.1868 -0.0920 0.1297
H18A H 0.0985 -0.2167 0.0554
C22A C 0.0204(7) -0.1389(5) 0.1169(6)
H19A H -0.0636 -0.1987 0.0650
H20A H 0.0546 -0.1456 0.1866
N5A N 0.0580(4) -0.1258(3) -0.0253(3)
H21A H 0.1218 -0.1063 -0.0380
H22A H -0.0074 -0.1866 -0.0849
N6A N 0.0096(4) -0.0324(3) 0.1366(3)
H23A H -0.0608 -0.0384 0.1388
H24A H 0.0778 0.0210 0.2013
O12A O -0.1949(3) -0.1091(2) -0.0992(2)
V1A V -0.28558(5) -0.22160(5) -0.21609(5)
O2A O -0.4588(2) -0.2445(2) -0.3010(2)
O3A O -0.1909(3) -0.3003(2) -0.2392(2)
O11A O -0.3585(3) -0.3450(2) -0.1937(3)
O13A O -0.2890(3) -0.2006(3) -0.3438(3)
Mo2A Mo -0.46691(3) -0.22368(2) -0.43243(3)
Mo3A Mo -0.26367(3) -0.42815(2) -0.21477(2)
V2A V -0.53732(5) -0.36735(4) -0.27333(4)
V4A V -0.18849(5) -0.27641(4) -0.36714(5)
O10A O -0.4552(3) -0.0977(2) -0.4037(3)
O17A O -0.6433(3) -0.3078(3) -0.5131(3)
O21A O -0.4584(4) -0.2582(4) -0.5608(3)
O15A O -0.1530(3) -0.3981(3) -0.0861(2)
O18A O -0.3943(3) -0.5536(2) -0.2479(4)
O22A O -0.2106(5) -0.5044(3) -0.2972(3)
O1A O -0.5569(3) -0.3076(2) -0.1768(2)
O9A O -0.7074(3) -0.4232(2) -0.4078(2)
O14A O -0.6066(3) -0.5222(2) -0.2998(3)
O5A O -0.2602(3) -0.3072(3) -0.5270(2)
O7A O -0.1626(3) -0.4065(2) -0.4213(2)
O16A O -0.0500(3) -0.1793(2) -0.3078(3)
Mo1A Mo -0.23032(3) -0.55677(2) -0.43718(3)
Mo4A Mo -0.43237(3) -0.35355(3) -0.65469(3)
V3A V -0.22706(5) -0.42907(5) -0.57465(5)
O4A O -0.1020(3) -0.5828(2) -0.4042(3)
O6A O -0.4048(3) -0.2864(2) -0.7266(3)
O8A O -0.1151(2) -0.3994(2) -0.6038(2)
Co2A Co 0.02941(5) -0.63753(4) -0.31395(4)
C1A C 0.1443(6) -0.3932(4) -0.1688(5)
H1A H 0.0738 -0.3952 -0.2260
C2A C 0.2369(7) -0.2939(5) -0.0790(6)
H2A H 0.2291 -0.2298 -0.0743
C3A C 0.3407(6) -0.2952(6) 0.0026(5)
H3A H 0.4064 -0.2301 0.0622
C4A C 0.3489(5) -0.3923(5) -0.0026(5)
H4A H 0.4174 -0.3929 0.0541
C5A C 0.2555(4) -0.4845(4) -0.0914(3)
C6A C 0.2588(4) -0.5893(4) -0.1063(4)
C7A C 0.3458(5) -0.6059(6) -0.0241(5)
H5A H 0.4051 -0.5494 0.0464
C8A C 0.3430(6) -0.7078(6) -0.0485(5)
H6A H 0.4025 -0.7189 0.0058
C9A C 0.2531(6) -0.7942(6) -0.1526(5)
H7A H 0.2507 -0.8629 -0.1699
C10A C 0.1672(5) -0.7713(5) -0.2293(5)
H8A H 0.1058 -0.8274 -0.2995
N1A N 0.1536(3) -0.4851(3) -0.1750(3)
N2A N 0.1677(3) -0.6733(3) -0.2078(3)
C11A C -0.0653(6) -0.8481(4) -0.5117(4)
H9A H 0.0012 -0.8091 -0.5173
C12A C -0.1415(8) -0.9587(5) -0.5831(6)
H10A H -0.1260 -0.9932 -0.6363
C13A C -0.2374(9) -1.0145(5) -0.5741(8)
H11A H -0.2896 -1.0877 -0.6218
C14A C -0.2567(7) -0.9633(5) -0.4953(7)
H12A H -0.3210 -1.0019 -0.4871
C15A C -0.1833(4) -0.8558(3) -0.4278(4)
C16A C -0.1982(4) -0.7933(4) -0.3393(4)
C17A C -0.3039(5) -0.8311(5) -0.3310(5)
H13A H -0.3703 -0.8994 -0.3825
C18A C -0.3102(6) -0.7674(6) -0.2462(6)
H14A H -0.3807 -0.7918 -0.2397
C19A C -0.2116(6) -0.6681(5) -0.1722(6)
H15A H -0.2138 -0.6233 -0.1144
C20A C -0.1079(5) -0.6344(4) -0.1838(4)
H16A H -0.0394 -0.5673 -0.1317
N3A N -0.0875(4) -0.7993(3) -0.4365(3)
N4A N -0.1028(3) -0.6945(3) -0.2668(3)
O9A_2 O 0.2926(3) 0.5768(2) 0.5922(2)
O17A_2 O 0.3567(3) 0.6922(3) 0.4869(3)
O14A_2 O 0.3934(3) 0.4778(2) 0.7002(3)
O18A_2 O 0.6057(3) 0.4464(2) 0.7521(4)
O8A_2 O -0.1151(2) 0.6006(2) 0.3962(2)
Co2A_2 Co 0.02941(5) 0.36247(4) 0.68605(4)
Mo1A_2 Mo 0.76968(3) 0.44323(2) 0.56282(3)
V3A_2 V 0.77294(5) 0.57093(5) 0.42535(5)
Mo4A_2 Mo 0.56763(3) 0.64645(3) 0.34531(3)
Mo2A_2 Mo 0.53309(3) 0.77632(2) 0.56757(3)
Mo3A_2 Mo 0.73633(3) 0.57185(2) 0.78523(2)
O19A_2 O -0.4248(4) -0.3851(4) -0.4884(4)
O20A_2 O -0.4754(4) -0.4869(4) -0.3828(4)
Mo1_2 Mo -0.76968(3) -0.44323(2) -0.56282(3)
Mo4_2 Mo -0.56763(3) -0.64645(3) -0.34531(3)
V3_2 V -0.77294(5) -0.57093(5) -0.42535(5)
O9_2 O -0.2926(3) -0.5768(2) -0.5922(2)
O17_2 O -0.3567(3) -0.6922(3) -0.4869(3)
O14_2 O -0.3934(3) -0.4778(2) -0.7002(3)
O18_2 O -0.6057(3) -0.4464(2) -0.7521(4)
Co2_2 Co -0.02941(5) -0.36247(4) -0.68605(4)
O8_2 O 0.1151(2) -0.6006(2) -0.3962(2)
O23 O 1.1275(9) 0.6819(9) 0.6396(7)
O24 O 1.2209(12) 0.9408(12) 0.8346(14)
O25 O 1.3427(13) 1.0119(10) 1.0367(14)
O26 O 1.4839(15) 0.9858(9) 1.2076(13)
O27 O 1.3297(19) 0.8390(18) 0.767(2)
O28? O 0.3598(4) 0.4610(4) 0.4195(4)
O29? O 0.5504(4) 0.4233(4) 0.4607(4)
loop_
_geom_bond_atom_site_label_1
_geom_bond_atom_site_label_2
_geom_bond_site_symmetry_1
_geom_bond_site_symmetry_2
Mo1 O4 1_555 1_555
Mo2 O2 1_555 1_555
Mo3 O3 1_555 1_555
Mo4 O5 1_555 1_555
V1 O2 1_555 1_555
V2 O1 1_555 1_555
V3 O5 1_555 1_555
V4 O3 1_555 1_555
Co1 N5 1_555 1_555
Co2 N1 1_555 1_555
P1 O19 1_555 1_555
C1 H1 1_555 1_555
C2 C1 1_555 1_555
H2 C2 1_555 1_555
C3 C2 1_555 1_555
H3 C3 1_555 1_555
C4 C3 1_555 1_555
H4 C4 1_555 1_555
C5 C4 1_555 1_555
C6 C5 1_555 1_555
C7 C6 1_555 1_555
H5 C7 1_555 1_555
C8 C7 1_555 1_555
H6 C8 1_555 1_555
C9 C8 1_555 1_555
H7 C9 1_555 1_555
C10 C9 1_555 1_555
H8 C10 1_555 1_555
C11 H9 1_555 1_555
C12 C11 1_555 1_555
H10 C12 1_555 1_555
C13 C12 1_555 1_555
H11 C13 1_555 1_555
C14 C13 1_555 1_555
H12 C14 1_555 1_555
C15 C14 1_555 1_555
C16 C15 1_555 1_555
C17 C16 1_555 1_555
H13 C17 1_555 1_555
C18 C17 1_555 1_555
H14 C18 1_555 1_555
C19 C18 1_555 1_555
H15 C19 1_555 1_555
C20 C19 1_555 1_555
H16 C20 1_555 1_555
C21 H17 1_555 1_555
H18 C21 1_555 1_555
C22 C21 1_555 1_555
H19 C22 1_555 1_555
H20 C22 1_555 1_555
N1 C1 1_555 1_555
N2 Co2 1_555 1_555
N3 Co2 1_555 1_555
N4 Co2 1_555 1_555
N5 C21 1_555 1_555
H21 N5 1_555 1_555
H22 N5 1_555 1_555
N6 Co1 1_555 1_555
H23 N6 1_555 1_555
H24 N6 1_555 1_555
O2 V2 1_555 1_555
O3 V1 1_555 1_555
O4 Co2 1_555 1_555
O5 V4 1_555 1_555
O6 Mo4 1_555 1_555
O7 Mo1 1_555 1_555
O8 V3 1_555 1_555
O9 V2 1_555 1_555
O10 Mo2 1_555 1_555
O11 Mo3 1_555 1_555
O12 V1 1_555 1_555
O13 Mo2 1_555 1_555
O14 V2 1_555 1_555
O15 Mo3 1_555 1_555
O16 V4 1_555 1_555
O17 Mo2 1_555 1_555
O18 Mo3 1_555 1_555
O19 Mo2 1_555 1_555
O20 Mo3 1_555 1_555
O21 Mo2 1_555 1_555
O22 Mo1 1_555 1_555
O19A P1 1_555 1_555
O20A P1 1_555 1_555
C21A H17A 1_555 1_555
H18A C21A 1_555 1_555
C22A C21A 1_555 1_555
H19A C22A 1_555 1_555
H20A C22A 1_555 1_555
N5A Co1 1_555 1_555
H21A N5A 1_555 1_555
H22A N5A 1_555 1_555
N6A Co1 1_555 1_555
H23A N6A 1_555 1_555
H24A N6A 1_555 1_555
O12A Co1 1_555 1_555
V1A O12A 1_555 1_555
O2A V1A 1_555 1_555
O3A V1A 1_555 1_555
O11A V1A 1_555 1_555
O13A V1A 1_555 1_555
Mo2A O2A 1_555 1_555
Mo3A O3A 1_555 1_555
V2A O2A 1_555 1_555
V4A O3A 1_555 1_555
O10A Mo2A 1_555 1_555
O17A Mo2A 1_555 1_555
O21A Mo2A 1_555 1_555
O15A Mo3A 1_555 1_555
O18A Mo3A 1_555 1_555
O22A Mo3A 1_555 1_555
O1A V2A 1_555 1_555
O9A V2A 1_555 1_555
O14A V2A 1_555 1_555
O5A V4A 1_555 1_555
O7A V4A 1_555 1_555
O16A V4A 1_555 1_555
Mo1A O22A 1_555 1_555
Mo4A O21A 1_555 1_555
V3A O5A 1_555 1_555
O4A Mo1A 1_555 1_555
O6A Mo4A 1_555 1_555
O8A V3A 1_555 1_555
Co2A O4A 1_555 1_555
C1A H1A 1_555 1_555
C2A C1A 1_555 1_555
H2A C2A 1_555 1_555
C3A C2A 1_555 1_555
H3A C3A 1_555 1_555
C4A C3A 1_555 1_555
H4A C4A 1_555 1_555
C5A C4A 1_555 1_555
C6A C5A 1_555 1_555
C7A C6A 1_555 1_555
H5A C7A 1_555 1_555
C8A C7A 1_555 1_555
H6A C8A 1_555 1_555
C9A C8A 1_555 1_555
H7A C9A 1_555 1_555
C10A C9A 1_555 1_555
H8A C10A 1_555 1_555
N1A Co2A 1_555 1_555
N2A Co2A 1_555 1_555
C11A H9A 1_555 1_555
C12A C11A 1_555 1_555
H10A C12A 1_555 1_555
C13A C12A 1_555 1_555
H11A C13A 1_555 1_555
C14A C13A 1_555 1_555
H12A C14A 1_555 1_555
C15A C14A 1_555 1_555
C16A C15A 1_555 1_555
C17A C16A 1_555 1_555
H13A C17A 1_555 1_555
C18A C17A 1_555 1_555
H14A C18A 1_555 1_555
C19A C18A 1_555 1_555
H15A C19A 1_555 1_555
C20A C19A 1_555 1_555
H16A C20A 1_555 1_555
N3A Co2A 1_555 1_555
N4A Co2A 1_555 1_555
O9A_2 Mo1 1_555 1_555
O17A_2 Mo1 1_555 1_555
O14A_2 Mo4 1_555 1_555
O18A_2 Mo4 1_555 1_555
O8A_2 Co2 1_555 1_555
Co2A_2 O8 1_555 1_555
Mo1A_2 O9 1_555 1_555
V3A_2 O9 1_555 1_555
Mo4A_2 O14 1_555 1_555
Mo2A_2 O19A 1_555 1_555
Mo3A_2 O20A 1_555 1_555
O19A_2 Mo2A 1_555 1_555
O20A_2 Mo3A 1_555 1_555
Mo1_2 O17A 1_555 1_555
Mo4_2 O18A 1_555 1_555
V3_2 O9A 1_555 1_555
O9_2 Mo1A 1_555 1_555
O17_2 Mo1A 1_555 1_555
O14_2 Mo4A 1_555 1_555
O18_2 Mo4A 1_555 1_555
Co2_2 O8A 1_555 1_555
O8_2 Co2A 1_555 1_555
Mo3 O22 1_555 1_555
Mo4 O19 1_555 1_555
Mo4 O21 1_555 1_555
V1 O11 1_555 1_555
V1 O13 1_555 1_555
V2 O11 1_555 1_555
V3 O7 1_555 1_555
V3 O9A_2 1_555 1_555
V3 O14A_2 1_555 1_555
V4 O7 1_555 1_555
V4 O13 1_555 1_555
Co1 O12 1_555 1_555
P1 O20 1_555 1_555
C5 N1 1_555 1_555
C6 N2 1_555 1_555
C10 N2 1_555 1_555
C11 N3 1_555 1_555
C15 N3 1_555 1_555
C16 N4 1_555 1_555
C20 N4 1_555 1_555
C22 N6 1_555 1_555
O14 V3A_2 1_555 1_555
O17 Mo1A_2 1_555 1_555
O18 Mo4A_2 1_555 1_555
O19A Mo4A_2 1_555 1_555
C21A N5A 1_555 1_555
C22A N6A 1_555 1_555
O11A Mo3A 1_555 1_555
O11A V2A 1_555 1_555
O13A Mo2A 1_555 1_555
O13A V4A 1_555 1_555
O9A Mo1_2 1_555 1_555
O14A Mo4_2 1_555 1_555
O14A V3_2 1_555 1_555
O5A Mo4A 1_555 1_555
O7A Mo1A 1_555 1_555
O7A V3A 1_555 1_555
Mo4A O19A_2 1_555 1_555
V3A O9_2 1_555 1_555
V3A O14_2 1_555 1_555
C1A N1A 1_555 1_555
C5A N1A 1_555 1_555
C6A N2A 1_555 1_555
C10A N2A 1_555 1_555
C11A N3A 1_555 1_555
C15A N3A 1_555 1_555
C16A N4A 1_555 1_555
C20A N4A 1_555 1_555
O17A_2 Mo2A_2 1_555 1_555
O18A_2 Mo3A_2 1_555 1_555

#END
