
#######################################################################
#
#                 Cambridge Crystallographic Data Centre
#                                CCDC 
#
#######################################################################
#
# If this CIF has been generated from an entry in the Cambridge 
# Structural Database, then it will include bibliographic, chemical, 
# crystal, experimental, refinement or atomic coordinate data resulting 
# from the CCDC's data processing and validation procedures.
#
#######################################################################

data_IFOMUN
_symmetry_cell_setting           monoclinic
_symmetry_space_group_name_H-M   'C 2/c'
_symmetry_Int_Tables_number      15
_space_group_name_Hall           '-C 2yn'
loop_
_symmetry_equiv_pos_site_id
_symmetry_equiv_pos_as_xyz
1 x,y,z
2 -x,y,1/2-z
3 1/2+x,1/2+y,z
4 1/2-x,1/2+y,1/2-z
5 -x,-y,-z
6 x,-y,1/2+z
7 1/2-x,1/2-y,-z
8 1/2+x,1/2-y,1/2+z
_cell_length_a                   12.773(8)
_cell_length_b                   8.873(6)
_cell_length_c                   14.540(9)
_cell_angle_alpha                90
_cell_angle_beta                 112.157(8)
_cell_angle_gamma                90
_cell_volume                     1526.2
loop_
_atom_site_label
_atom_site_type_symbol
_atom_site_fract_x
_atom_site_fract_y
_atom_site_fract_z
Mg1 Mg 0.0000 0.95205(5) 0.7500
O1 O 0.0000 1.18485(10) 0.7500
O2 O 0.00500(6) 0.98809(8) 0.90416(5)
C1 C -0.16611(8) 0.84065(11) 0.70216(7)
C2 C 0.08956(8) 1.28024(11) 0.81760(7)
C3 C 0.04582(9) 0.86970(12) 0.97683(7)
C4 C -0.08554(9) 1.06655(12) 0.91984(7)
C5 C -0.25533(8) 0.95181(11) 0.66043(8)
H1 H -0.1712(12) 0.7574(18) 0.6552(10)
H2 H -0.1670(11) 0.7965(15) 0.7649(10)
H3 H 0.1535(10) 1.2740(15) 0.7947(9)
H4 H 0.1098(10) 1.2340(16) 0.8845(9)
C6 C 0.03972(9) 1.43717(11) 0.80457(8)
H5 H 0.1108(12) 0.8214(17) 0.9637(10)
H6 H -0.0145(12) 0.7998(16) 0.9665(10)
H7 H -0.1487(12) 0.9950(16) 0.9094(10)
H8 H -0.1112(11) 1.1472(16) 0.8690(10)
H9 H -0.2739(11) 1.0138(17) 0.7094(10)
C7 C -0.31487(10) 0.98353(14) 0.56449(9)
H10 H 0.0991(13) 1.5130(17) 0.8207(11)
H11 H -0.0033(12) 1.4540(16) 0.8487(11)
H12 H -0.3677(14) 1.0651(18) 0.5444(12)
H13 H -0.3052(14) 0.9255(18) 0.5109(12)
C1A C 0.16611(8) 0.84065(11) 0.79784(7)
O2A O -0.00500(6) 0.98809(8) 0.59584(5)
C2A C -0.08956(8) 1.28024(11) 0.68240(7)
C5A C 0.25533(8) 0.95181(11) 0.83957(8)
H1A H 0.1712(12) 0.7574(18) 0.8448(10)
H2A H 0.1670(11) 0.7965(15) 0.7351(10)
H3A H -0.1535(10) 1.2740(15) 0.7053(9)
H4A H -0.1098(10) 1.2340(16) 0.6155(9)
C6A C -0.03972(9) 1.43717(11) 0.69543(8)
C4D C 0.08554(9) 0.93345(12) 1.08016(7)
C3D C -0.04582(9) 1.13030(12) 1.02317(7)
H9A H 0.2739(11) 1.0138(17) 0.7906(10)
C7A C 0.31487(10) 0.98353(14) 0.93551(9)
H10A H -0.0991(13) 1.5130(17) 0.6793(11)
H11A H 0.0033(12) 1.4540(16) 0.6513(11)
H7D H 0.1487(12) 1.0050(16) 1.0906(10)
H8D H 0.1112(11) 0.8528(16) 1.1310(10)
O2D O -0.00500(6) 1.01191(8) 1.09584(5)
H5D H -0.1108(12) 1.1786(17) 1.0363(10)
H6D H 0.0145(12) 1.2002(16) 1.0335(10)
H12A H 0.3677(14) 1.0651(18) 0.9556(12)
H13A H 0.3052(14) 0.9255(18) 0.9891(12)
Mg1D Mg 0.0000 1.04795(5) 1.2500
loop_
_geom_bond_atom_site_label_1
_geom_bond_atom_site_label_2
_geom_bond_site_symmetry_1
_geom_bond_site_symmetry_2
Mg1 O1 1_555 1_555
O1 C2 1_555 1_555
O2 Mg1 1_555 1_555
C1 Mg1 1_555 1_555
C2 H3 1_555 1_555
C3 O2 1_555 1_555
C4 O2 1_555 1_555
C5 C1 1_555 1_555
H1 C1 1_555 1_555
H2 C1 1_555 1_555
H4 C2 1_555 1_555
C6 C2 1_555 1_555
H5 C3 1_555 1_555
H6 C3 1_555 1_555
H7 C4 1_555 1_555
H8 C4 1_555 1_555
H9 C5 1_555 1_555
C7 C5 1_555 1_555
H10 C6 1_555 1_555
H11 C6 1_555 1_555
H12 C7 1_555 1_555
H13 C7 1_555 1_555
C1A Mg1 1_555 1_555
O2A Mg1 1_555 1_555
C2A O1 1_555 1_555
C5A C1A 1_555 1_555
H1A C1A 1_555 1_555
H2A C1A 1_555 1_555
H3A C2A 1_555 1_555
H4A C2A 1_555 1_555
C6A C6 1_555 1_555
C4D C3 1_555 1_555
C3D C4 1_555 1_555
H9A C5A 1_555 1_555
C7A C5A 1_555 1_555
H10A C6A 1_555 1_555
H11A C6A 1_555 1_555
H7D C4D 1_555 1_555
H8D C4D 1_555 1_555
O2D C4D 1_555 1_555
H5D C3D 1_555 1_555
H6D C3D 1_555 1_555
H12A C7A 1_555 1_555
H13A C7A 1_555 1_555
Mg1D O2D 1_555 1_555
C2A C6A 1_555 1_555
C3D O2D 1_555 1_555

#END
