
#######################################################################
#
#                 Cambridge Crystallographic Data Centre
#                                CCDC 
#
#######################################################################
#
# If this CIF has been generated from an entry in the Cambridge 
# Structural Database, then it will include bibliographic, chemical, 
# crystal, experimental, refinement or atomic coordinate data resulting 
# from the CCDC's data processing and validation procedures.
#
#######################################################################

data_IFOQAV
_symmetry_cell_setting           monoclinic
_symmetry_space_group_name_H-M   'P 21/c'
_symmetry_Int_Tables_number      14
_space_group_name_Hall           '-P 2ybc'
loop_
_symmetry_equiv_pos_site_id
_symmetry_equiv_pos_as_xyz
1 x,y,z
2 x,1/2-y,1/2+z
3 -x,-y,-z
4 -x,1/2+y,1/2-z
_cell_length_a                   11.02230(10)
_cell_length_b                   17.5707(2)
_cell_length_c                   13.62820(10)
_cell_angle_alpha                90
_cell_angle_beta                 100.3207(6)
_cell_angle_gamma                90
_cell_volume                     2596.66
loop_
_atom_site_label
_atom_site_type_symbol
_atom_site_fract_x
_atom_site_fract_y
_atom_site_fract_z
La1 La 1.172720(15) 0.040940(10) 0.094240(12)
La2 La 0.656600(15) 0.262680(9) 0.092880(11)
O1 O 1.2919(2) 0.01290(15) 0.26538(19)
O2 O 1.3534(3) 0.03607(17) 0.4274(2)
O3 O 1.0155(2) 0.15093(14) 0.06153(18)
O4 O 0.8696(3) 0.21914(18) 0.1120(2)
O5 O 0.9927(3) 0.0295(2) -0.2442(2)
O6 O 1.0510(2) 0.01054(14) -0.08200(18)
O7 O 1.4367(3) 0.24353(14) 0.0722(2)
O8 O 1.3246(2) 0.15019(15) 0.1204(2)
O9 O 1.3276(3) -0.26112(15) -0.27972(19)
O10 O 1.3247(4) -0.20312(18) -0.4256(2)
O11 O 1.3725(3) -0.14109(14) 0.01190(18)
O12 O 1.3487(2) -0.01556(13) 0.02579(18)
O13 O 0.5401(2) 0.39168(14) 0.0689(2)
O14 O 0.7966(3) 0.37193(19) 0.1605(3)
O15 O 1.1628(2) -0.10874(15) 0.10479(19)
N1 N 1.1243(2) 0.12212(15) 0.2474(2)
N2 N 1.2129(2) 0.12231(15) -0.0649(2)
N3 N 1.3577(3) -0.13056(15) -0.18259(19)
C1 C 1.2869(3) 0.04826(18) 0.3449(3)
C2 C 1.1856(3) 0.10819(18) 0.3392(2)
C3 C 1.1553(4) 0.1430(2) 0.4221(3)
C4 C 1.0576(5) 0.1937(3) 0.4097(3)
C5 C 0.9933(4) 0.2080(2) 0.3147(3)
C6 C 1.0301(3) 0.17103(18) 0.2351(3)
C7 C 0.9665(3) 0.18119(18) 0.1284(3)
C8 C 1.0603(3) 0.04399(19) -0.1639(3)
C9 C 1.1559(3) 0.10553(19) -0.1573(2)
C10 C 1.1839(4) 0.1422(2) -0.2408(3)
C11 C 1.2769(4) 0.1961(2) -0.2279(3)
C12 C 1.3367(4) 0.2135(2) -0.1328(3)
C13 C 1.3016(3) 0.17527(19) -0.0520(3)
C14 C 1.3588(3) 0.18976(19) 0.0553(3)
C15 C 1.3354(4) -0.2034(2) -0.3326(2)
C16 C 1.3585(3) -0.12797(19) -0.2803(2)
C17 C 1.3792(4) -0.0616(2) -0.3292(3)
C18 C 1.4026(4) 0.0053(2) -0.2732(3)
C19 C 1.3997(3) 0.00286(19) -0.1728(3)
C20 C 1.3757(3) -0.06581(17) -0.1303(2)
C21 C 1.3655(3) -0.07440(17) -0.0220(2)
H1 H 1.200640 0.132720 0.487690
H2 H 1.034030 0.218780 0.465980
H3 H 0.924780 0.242540 0.302680
H4 H 1.140640 0.130590 -0.306640
H5 H 1.298930 0.222040 -0.284130
H6 H 1.402060 0.250320 -0.120850
H7 H 1.378520 -0.060840 -0.399710
H8 H 1.409240 0.058490 -0.290500
H9 H 1.408790 0.050380 -0.135960
H10 H 0.594420 0.439020 0.079980
H11 H 0.464260 0.404930 0.015790
H12 H 0.821040 0.382680 0.091600
H13 H 0.753030 0.409100 0.193510
H14 H 1.103290 -0.131010 0.044860
H15 H 1.238410 -0.142660 0.107300
O6B O 0.9490(2) -0.01054(14) 0.08200(18)
O7_2 O 0.4367(3) 0.24353(14) 0.0722(2)
O9B O 0.6724(3) 0.26112(15) 0.27972(19)
O10C O 0.6753(4) 0.29688(18) -0.0744(2)
O11B O 0.6275(3) 0.14109(14) -0.01190(18)
N3B N 0.6423(3) 0.13056(15) 0.18259(19)
La1B La 0.827280(15) -0.040940(10) -0.094240(12)
La2_2 La 1.656600(15) 0.262680(9) 0.092880(11)
La2B La 1.343400(15) -0.262680(9) -0.092880(11)
La2C La 1.343400(15) -0.237320(9) -0.592880(11)
loop_
_geom_bond_atom_site_label_1
_geom_bond_atom_site_label_2
_geom_bond_site_symmetry_1
_geom_bond_site_symmetry_2
La1 O1 1_555 1_555
La2 O4 1_555 1_555
O1 C1 1_555 1_555
O2 C1 1_555 1_555
O3 La1 1_555 1_555
O4 C7 1_555 1_555
O5 C8 1_555 1_555
O6 La1 1_555 1_555
O7 C14 1_555 1_555
O8 La1 1_555 1_555
O9 C15 1_555 1_555
O10 C15 1_555 1_555
O11 C21 1_555 1_555
O12 La1 1_555 1_555
O13 La2 1_555 1_555
O14 La2 1_555 1_555
O15 La1 1_555 1_555
N1 La1 1_555 1_555
N2 La1 1_555 1_555
N3 C16 1_555 1_555
C1 C2 1_555 1_555
C2 N1 1_555 1_555
C3 C2 1_555 1_555
C4 C3 1_555 1_555
C5 C4 1_555 1_555
C6 N1 1_555 1_555
C7 O3 1_555 1_555
C8 O6 1_555 1_555
C9 N2 1_555 1_555
C10 C9 1_555 1_555
C11 C10 1_555 1_555
C12 C11 1_555 1_555
C13 N2 1_555 1_555
C14 O8 1_555 1_555
C15 C16 1_555 1_555
C16 C17 1_555 1_555
C17 C18 1_555 1_555
C18 C19 1_555 1_555
C19 C20 1_555 1_555
C20 N3 1_555 1_555
C21 O12 1_555 1_555
H1 C3 1_555 1_555
H2 C4 1_555 1_555
H3 C5 1_555 1_555
H4 C10 1_555 1_555
H5 C11 1_555 1_555
H6 C12 1_555 1_555
H7 C17 1_555 1_555
H8 C18 1_555 1_555
H9 C19 1_555 1_555
H10 O13 1_555 1_555
H11 O13 1_555 1_555
H12 O14 1_555 1_555
H13 O14 1_555 1_555
H14 O15 1_555 1_555
H15 O15 1_555 1_555
O6B La1 1_555 1_555
O7_2 La2 1_555 1_555
O9B La2 1_555 1_555
O10C La2 1_555 1_555
O11B La2 1_555 1_555
N3B La2 1_555 1_555
La1B O6 1_555 1_555
La2_2 O7 1_555 1_555
La2B O9 1_555 1_555
La2C O10 1_555 1_555
O11 La2B 1_555 1_555
N3 La2B 1_555 1_555
C5 C6 1_555 1_555
C6 C7 1_555 1_555
C8 C9 1_555 1_555
C12 C13 1_555 1_555
C13 C14 1_555 1_555
C20 C21 1_555 1_555
O6B La1B 1_555 1_555

#END
