
#######################################################################
#
#                 Cambridge Crystallographic Data Centre
#                                CCDC 
#
#######################################################################
#
# If this CIF has been generated from an entry in the Cambridge 
# Structural Database, then it will include bibliographic, chemical, 
# crystal, experimental, refinement or atomic coordinate data resulting 
# from the CCDC's data processing and validation procedures.
#
#######################################################################

data_IFUDAO
_symmetry_cell_setting           hexagonal
_symmetry_space_group_name_H-M   'P 64 2 2'
_symmetry_Int_Tables_number      181
_space_group_name_Hall           "P 64 2' (0,0,2)"
loop_
_symmetry_equiv_pos_site_id
_symmetry_equiv_pos_as_xyz
1 x,y,z
2 -y,x-y,1/3+z
3 -x+y,-x,2/3+z
4 -x,-y,z
5 y,-x+y,1/3+z
6 x-y,x,2/3+z
7 y,x,1/3-z
8 x-y,-y,-z
9 -x,-x+y,2/3-z
10 -y,-x,1/3-z
11 -x+y,y,-z
12 x,x-y,2/3-z
_cell_length_a                   9.061(5)
_cell_length_b                   9.061(5)
_cell_length_c                   23.394(5)
_cell_angle_alpha                90
_cell_angle_beta                 90
_cell_angle_gamma                120
_cell_volume                     1663.36
loop_
_atom_site_label
_atom_site_type_symbol
_atom_site_fract_x
_atom_site_fract_y
_atom_site_fract_z
Cd1 Cd 1.0000 0.5000 0.3333
Zr1 Zr 0.5000 0.0000 0.5000
O1 O 0.9199(3) 0.2629(3) 0.38899(9)
O2 O 0.7344(3) 0.0832(2) 0.45216(8)
O3 O 0.5461(3) 0.2209(3) 0.44576(9)
O4 O 0.7388(3) 0.4354(3) 0.39134(10)
C1 C 0.7916(4) 0.2109(4) 0.41857(10)
C2 C 0.6854(3) 0.3011(3) 0.41763(11)
O2C O 0.2656(3) -0.0832(2) 0.45216(8)
O3C O 0.4539(3) -0.2209(3) 0.44576(9)
O2G O 0.6512(4) -0.0832(2) 0.54784(8)
O2J O 0.3488(4) 0.0832(2) 0.54784(8)
O1C O 1.0801(3) 0.7371(3) 0.38899(9)
O1H O 1.0801(3) 0.3430(4) 0.27768(9)
O1K O 0.9199(3) 0.6570(4) 0.27768(9)
O4C O 1.2612(3) 0.5646(3) 0.39134(10)
O4H O 1.2612(3) 0.6966(4) 0.27533(10)
O4K O 0.7388(3) 0.3034(4) 0.27533(10)
O3G O 0.3252(4) -0.2209(3) 0.55424(9)
O3J O 0.6748(4) 0.2209(3) 0.55424(9)
C1C C 1.2084(4) 0.7891(4) 0.41857(10)
C1H C 1.2084(4) 0.4193(6) 0.24810(10)
C1K C 0.7916(4) 0.5807(6) 0.24810(10)
C2C C 1.3146(3) 0.6989(3) 0.41763(11)
C2H C 1.3146(3) 0.6157(4) 0.24904(11)
C2K C 0.6854(3) 0.3843(4) 0.24904(11)
O2C_2 O 1.2656(3) 0.9168(2) 0.45216(8)
O2H O 1.2656(3) 0.3488(4) 0.21451(8)
O2K O 0.7344(3) 0.6512(4) 0.21451(8)
O3C_2 O 1.4539(3) 0.7791(3) 0.44576(9)
O3H O 1.4539(3) 0.6748(4) 0.22091(9)
O3K O 0.5461(3) 0.3252(4) 0.22091(9)
Zr1B Zr 0.5000 0.5000 0.1667
Zr1_2 Zr 1.5000 1.0000 0.5000
Zr1B_2 Zr 1.5000 0.5000 0.1667
N1 N 1.0000 0.0000 0.5000
H2 H 0.8998(9) -0.0744(11) 0.4756(4)
H2C H 1.1002(9) 0.0744(11) 0.4756(4)
H2G H 0.9742(14) 0.0744(11) 0.5244(4)
H2J H 1.0258(14) -0.0744(11) 0.5244(4)
N2 N 1.0000 0.0000 0.3333
H1 H 1.079(3) 0.100(5) 0.3577(11)
H1C H 0.921(3) -0.100(5) 0.3577(11)
H1H H 0.921(3) 0.021(6) 0.3090(11)
H1K H 1.079(3) -0.021(6) 0.3090(11)
O5 O 0.7539(4) -0.2435(4) 0.41620(12)
H3 H 0.643(3) -0.256(5) 0.4176(17)
H4 H 0.727(5) -0.358(3) 0.4200(17)
loop_
_geom_bond_atom_site_label_1
_geom_bond_atom_site_label_2
_geom_bond_site_symmetry_1
_geom_bond_site_symmetry_2
Cd1 O1 1_555 1_555
Zr1 O2 1_555 1_555
O1 C1 1_555 1_555
O2 C1 1_555 1_555
O3 Zr1 1_555 1_555
O4 Cd1 1_555 1_555
C1 C2 1_555 1_555
C2 O3 1_555 1_555
N1 H2 1_555 1_555
N2 H1 1_555 1_555
O5 H3 1_555 1_555
H4 O5 1_555 1_555
O2C Zr1 1_555 1_555
O3C Zr1 1_555 1_555
O2G Zr1 1_555 1_555
O2J Zr1 1_555 1_555
O1C Cd1 1_555 1_555
O1H Cd1 1_555 1_555
O1K Cd1 1_555 1_555
O4C Cd1 1_555 1_555
O4H Cd1 1_555 1_555
O4K Cd1 1_555 1_555
O3G Zr1 1_555 1_555
O3J Zr1 1_555 1_555
H2C N1 1_555 1_555
H2G N1 1_555 1_555
H2J N1 1_555 1_555
H1C N2 1_555 1_555
H1H N2 1_555 1_555
H1K N2 1_555 1_555
C1C O1C 1_555 1_555
C1H O1H 1_555 1_555
C1K O1K 1_555 1_555
C2C O4C 1_555 1_555
C2H O4H 1_555 1_555
C2K O4K 1_555 1_555
O2C_2 C1C 1_555 1_555
O2H C1H 1_555 1_555
O2K C1K 1_555 1_555
O3C_2 C2C 1_555 1_555
O3H C2H 1_555 1_555
O3K C2K 1_555 1_555
Zr1B O2K 1_555 1_555
Zr1_2 O2C_2 1_555 1_555
Zr1B_2 O2H 1_555 1_555
O4 C2 1_555 1_555
C1C C2C 1_555 1_555
C1H C2H 1_555 1_555
C1K C2K 1_555 1_555
O3C_2 Zr1_2 1_555 1_555
O3H Zr1B_2 1_555 1_555
O3K Zr1B 1_555 1_555

#END
