
#######################################################################
#
#                 Cambridge Crystallographic Data Centre
#                                CCDC 
#
#######################################################################
#
# If this CIF has been generated from an entry in the Cambridge 
# Structural Database, then it will include bibliographic, chemical, 
# crystal, experimental, refinement or atomic coordinate data resulting 
# from the CCDC's data processing and validation procedures.
#
#######################################################################

data_IFUDES
_symmetry_cell_setting           trigonal
_symmetry_space_group_name_H-M   'P 31 1 2'
_symmetry_Int_Tables_number      151
_space_group_name_Hall           "P 31 2' (0,0,4)"
loop_
_symmetry_equiv_pos_site_id
_symmetry_equiv_pos_as_xyz
1 x,y,z
2 -y,x-y,1/3+z
3 -x+y,-x,2/3+z
4 -y,-x,2/3-z
5 -x+y,y,1/3-z
6 x,x-y,-z
_cell_length_a                   9.105(5)
_cell_length_b                   9.105(5)
_cell_length_c                   23.656(5)
_cell_angle_alpha                90
_cell_angle_beta                 90
_cell_angle_gamma                120
_cell_volume                     1698.37
loop_
_atom_site_label
_atom_site_type_symbol
_atom_site_fract_x
_atom_site_fract_y
_atom_site_fract_z
Cd1 Cd -0.18669(2) 0.18669(2) 0.3334
Zr1 Zr -0.14872(5) 0.70257(3) 0.1667
O1 O -0.3363(4) 0.4753(4) 0.21729(13)
O2 O -0.3669(5) 0.2654(4) 0.27453(16)
O3 O -0.3193(4) -0.0390(4) 0.27351(14)
C1 C -0.2827(5) 0.3987(5) 0.24809(15)
C2 C -0.0891(5) 0.4861(5) 0.25148(15)
O4 O -0.0108(4) 0.6149(4) 0.21904(12)
O5 O -0.0212(4) 0.4318(4) 0.28381(13)
O6 O 0.0736(4) -0.0205(4) 0.44579(14)
O7 O 0.0294(4) 0.1280(4) 0.27907(15)
O8 O 0.2123(4) 0.3045(4) 0.45558(13)
C3 C 0.0882(5) 0.2382(5) 0.42187(15)
C4 C -0.0004(5) 0.0453(5) 0.41722(15)
O8C O -0.3045(4) 0.7877(4) 0.21109(13)
O1D O -0.1884(6) 0.4753(4) 0.11604(13)
O2C O -0.2654(4) 0.3669(5) 0.39214(16)
O3C O 0.0390(4) 0.3193(4) 0.39316(14)
Zr1A Zr 0.29743(3) 0.14871(6) 0.5000
O5C O -0.4318(4) 0.0212(4) 0.38286(13)
O7C O -0.1280(4) -0.0294(4) 0.38760(15)
O4D O -0.3743(6) 0.6149(4) 0.11429(12)
O6C O 0.0205(4) 0.9264(4) 0.22088(14)
O6B O -0.0941(6) 0.9264(4) 0.11246(14)
O8B O 0.0922(6) 0.7877(4) 0.12225(13)
C1C C -0.3987(5) 0.2827(5) 0.41858(15)
C3C C -0.2382(5) -0.0882(5) 0.24480(15)
C2C C -0.4861(5) 0.0891(5) 0.41519(15)
C4C C -0.0453(5) 0.0004(5) 0.24945(15)
O1C O -0.4753(4) 0.3363(4) 0.44938(13)
O8C_2 O -0.3045(4) -0.2123(4) 0.21109(13)
O4C O -0.6149(4) 0.0108(4) 0.44763(12)
O6C_2 O 0.0205(4) -0.0736(4) 0.22088(14)
Zr1A_2 Zr -0.70257(3) 0.14871(6) 0.5000
Zr1_2 Zr -0.14872(5) -0.29743(3) 0.1667
O9 O -0.1686(7) 0.6742(6) -0.66358(17)
H6 H -0.262(8) 0.682(15) -0.668(6)
H7 H -0.071(8) 0.776(8) -0.672(6)
O10 O -0.8127(3) 0.8127(3) -0.6667
H8 H -0.693(2) 0.858(3) -0.669(6)
H8C H -0.858(3) 0.693(2) -0.664(6)
C5 C 0.3686(7) 0.5561(7) -0.6955(2)
H1 H 0.4431 0.5242 -0.7143
H2 H 0.2602 0.4537 -0.6898
N1 N 0.3430(6) 0.6731(6) -0.73310(19)
H3 H 0.4550(6) 0.7834(19) -0.7379(2)
H4 H 0.2559(19) 0.6982(7) -0.7155(3)
H5 H 0.3008(6) 0.6176(11) -0.7716(6)
C5C C 0.4439(7) 0.6314(7) -0.6378(2)
H1C H 0.4758 0.5569 -0.6190
H2C H 0.5463 0.7398 -0.6435
N1C N 0.3269(6) 0.6570(6) -0.60023(19)
H3C H 0.2166(19) 0.5450(6) -0.5954(2)
H4C H 0.3018(7) 0.7441(19) -0.6178(3)
H5C H 0.3824(11) 0.6992(6) -0.5617(6)
O11 O -0.7670(5) 0.4659(11) -0.8333
H9 H -0.7187(19) 0.393(3) -0.831(6)
H9D H -0.8883(36) 0.393(3) -0.836(6)
O12 O -0.1191(10) 1.2182(9) -0.8432(2)
loop_
_geom_bond_atom_site_label_1
_geom_bond_atom_site_label_2
_geom_bond_site_symmetry_1
_geom_bond_site_symmetry_2
Cd1 O2 1_555 1_555
Zr1 O1 1_555 1_555
O1 C1 1_555 1_555
O2 C1 1_555 1_555
O3 Cd1 1_555 1_555
C1 C2 1_555 1_555
C2 O4 1_555 1_555
O4 Zr1 1_555 1_555
O5 Cd1 1_555 1_555
O6 C4 1_555 1_555
O7 Cd1 1_555 1_555
O8 C3 1_555 1_555
C3 C4 1_555 1_555
C4 O7C 1_555 1_555
O9 H6 1_555 1_555
O10 H8 1_555 1_555
C5 H1 1_555 1_555
H2 C5 1_555 1_555
N1 C5 1_555 1_555
H3 N1 1_555 1_555
H4 N1 1_555 1_555
H5 N1 1_555 1_555
O11 H9 1_555 1_555
H7 O9 1_555 1_555
O8C Zr1 1_555 1_555
O1D Zr1 1_555 1_555
O2C Cd1 1_555 1_555
O3C Cd1 1_555 1_555
Zr1A O6 1_555 1_555
O5C Cd1 1_555 1_555
O7C Cd1 1_555 1_555
O4D Zr1 1_555 1_555
O6C Zr1 1_555 1_555
O6B Zr1 1_555 1_555
O8B Zr1 1_555 1_555
H8C O10 1_555 1_555
C5C C5 1_555 1_555
H1C C5C 1_555 1_555
H2C C5C 1_555 1_555
N1C C5C 1_555 1_555
H3C N1C 1_555 1_555
H4C N1C 1_555 1_555
H5C N1C 1_555 1_555
H9D O11 1_555 1_555
C1C O2C 1_555 1_555
C3C O3 1_555 1_555
C2C O5C 1_555 1_555
C4C O7 1_555 1_555
O1C C1C 1_555 1_555
O8C_2 C3C 1_555 1_555
O4C C2C 1_555 1_555
O6C_2 C4C 1_555 1_555
Zr1A_2 O1C 1_555 1_555
Zr1_2 O8C_2 1_555 1_555
C2 O5 1_555 1_555
O8 Zr1A 1_555 1_555
C3 O3C 1_555 1_555
C1C C2C 1_555 1_555
C3C C4C 1_555 1_555
O4C Zr1A_2 1_555 1_555
O6C_2 Zr1_2 1_555 1_555

#END
