
#######################################################################
#
#                 Cambridge Crystallographic Data Centre
#                                CCDC 
#
#######################################################################
#
# If this CIF has been generated from an entry in the Cambridge 
# Structural Database, then it will include bibliographic, chemical, 
# crystal, experimental, refinement or atomic coordinate data resulting 
# from the CCDC's data processing and validation procedures.
#
#######################################################################

data_IFUGIB
_symmetry_cell_setting           monoclinic
_symmetry_space_group_name_H-M   'P 21/c'
_symmetry_Int_Tables_number      14
_space_group_name_Hall           '-P 2ybc'
loop_
_symmetry_equiv_pos_site_id
_symmetry_equiv_pos_as_xyz
1 x,y,z
2 -x,1/2+y,1/2-z
3 -x,-y,-z
4 x,1/2-y,1/2+z
_cell_length_a                   15.5774(7)
_cell_length_b                   6.7082(3)
_cell_length_c                   8.1004(3)
_cell_angle_alpha                90
_cell_angle_beta                 92.448(7)
_cell_angle_gamma                90
_cell_volume                     845.689
loop_
_atom_site_label
_atom_site_type_symbol
_atom_site_fract_x
_atom_site_fract_y
_atom_site_fract_z
P1 P 0.60826 0.12486 0.57264
C1 C 0.71810 0.22150 0.61600
C2 C 0.78350 0.05920 0.63100
C3 C 0.87340 0.14780 0.68840
C4 C 0.93130 -0.05140 0.72210
O1 O 0.61470 0.02450 0.40180
O2 O 0.58050 -0.02320 0.70890
O3 O 0.54540 0.30020 0.56500
Ca1 Ca 0.45613 0.13479 0.81419
H1 H 0.71921 0.30998 0.73623
H2 H 0.73669 0.32439 0.51136
H3 H 0.78903 -0.01688 0.50606
H4 H 0.76285 -0.05489 0.72577
H5 H 0.86798 0.23732 0.80712
H6 H 0.89872 0.24542 0.58606
H7 H 0.95308 -0.11273 0.59949
H8 H 0.89137 -0.16873 0.78576
H9 H 0.98998 -0.01217 0.80465
O4 O 0.33990 0.14470 0.99780
H10 H 0.31613 0.03439 1.08720
H11 H 0.41122 0.14470 1.00366
O1B O 0.38530 -0.02450 0.59820
O2A O 0.41950 0.47680 0.79110
O3A O 0.45460 -0.19980 0.93500
O3C O 0.54540 0.19980 1.06500
Ca1A Ca 0.54387 -0.36521 0.68581
Ca1A_2 Ca 0.54387 0.63479 0.68581
Ca1B Ca 0.54387 -0.13479 0.18581
Ca1C Ca 0.45613 0.36521 0.31419
loop_
_geom_bond_atom_site_label_1
_geom_bond_atom_site_label_2
_geom_bond_site_symmetry_1
_geom_bond_site_symmetry_2
P1 C1 1_555 1_555
C1 C2 1_555 1_555
C2 C3 1_555 1_555
C3 C4 1_555 1_555
C4 H7 1_555 1_555
O1 P1 1_555 1_555
O2 P1 1_555 1_555
O3 P1 1_555 1_555
Ca1 O2 1_555 1_555
H1 C1 1_555 1_555
H2 C1 1_555 1_555
H3 C2 1_555 1_555
H4 C2 1_555 1_555
H5 C3 1_555 1_555
H6 C3 1_555 1_555
H8 C4 1_555 1_555
H9 C4 1_555 1_555
O4 Ca1 1_555 1_555
H10 O4 1_555 1_555
H11 O4 1_555 1_555
O1B Ca1 1_555 1_555
O2A Ca1 1_555 1_555
O3A Ca1 1_555 1_555
O3C Ca1 1_555 1_555
Ca1A O2 1_555 1_555
Ca1A_2 O3 1_555 1_555
Ca1B O1 1_555 1_555
Ca1C O3 1_555 1_555
O3 Ca1 1_555 1_555
O2A Ca1A_2 1_555 1_555
O3A Ca1A 1_555 1_555

#END
