
#######################################################################
#
#                 Cambridge Crystallographic Data Centre
#                                CCDC 
#
#######################################################################
#
# If this CIF has been generated from an entry in the Cambridge 
# Structural Database, then it will include bibliographic, chemical, 
# crystal, experimental, refinement or atomic coordinate data resulting 
# from the CCDC's data processing and validation procedures.
#
#######################################################################

data_IFUGEX
_symmetry_cell_setting           triclinic
_symmetry_space_group_name_H-M   'P -1'
_symmetry_Int_Tables_number      2
_space_group_name_Hall           '-P 1'
loop_
_symmetry_equiv_pos_site_id
_symmetry_equiv_pos_as_xyz
1 x,y,z
2 -x,-y,-z
_cell_length_a                   5.628(2)
_cell_length_b                   7.392(2)
_cell_length_c                   16.742(3)
_cell_angle_alpha                101.228(1)
_cell_angle_beta                 87.673(1)
_cell_angle_gamma                89.873(1)
_cell_volume                     682.573
loop_
_atom_site_label
_atom_site_type_symbol
_atom_site_fract_x
_atom_site_fract_y
_atom_site_fract_z
C1 C 1.04300 0.71600 0.41770
C2 C 0.88000 0.61600 0.35080
C3 C 0.88200 0.69700 0.27300
C4 C 0.66800 0.61600 0.22480
P1 P 0.66190 0.69660 0.12340
O1 O 0.82620 0.55830 0.05610
O2 O 0.78130 0.91560 0.13770
O3 O 0.40240 0.68090 0.09920
H1 H 1.17222 0.80786 0.39016
H2 H 1.14715 0.60946 0.44340
H3 H 0.92941 0.80416 0.46870
H4 H 0.68984 0.62079 0.37736
H5 H 0.93856 0.46554 0.33161
H6 H 1.05375 0.65574 0.23533
H7 H 0.86669 0.85369 0.29015
H8 H 0.49708 0.66244 0.26210
H9 H 0.68048 0.45900 0.21232
Ca1 Ca 0.86990 0.25030 0.00030
C5 C 0.57800 0.15800 0.40750
C6 C 0.34060 0.13100 0.36610
C7 C 0.39000 0.19200 0.28370
C8 C 0.23100 0.11500 0.21220
P2 P 0.31030 0.18870 0.11630
O4 O 0.60280 0.20610 0.10060
O5 O 0.17800 0.05230 0.04890
O6 O 0.20200 0.38800 0.12750
H10 H 0.62975 0.30941 0.41649
H11 H 0.56091 0.11497 0.46926
H12 H 0.72070 0.06979 0.36768
H13 H 0.28794 -0.02035 0.35553
H14 H 0.19830 0.22034 0.40560
H15 H 0.37779 0.34895 0.29508
H16 H 0.57867 0.14949 0.26001
H17 H 0.23913 -0.04206 0.20106
H18 H 0.03915 0.16142 0.22911
O1A O 1.17380 0.44170 -0.05610
O3A O 0.59760 0.31910 -0.09920
Ca1_2 Ca -0.13010 0.25030 0.00030
Ca1A Ca 0.13010 -0.25030 -0.00030
Ca1A_2 Ca 0.13010 0.74970 -0.00030
Ca1A_3 Ca 1.13010 0.74970 -0.00030
O5_2 O 1.17800 0.05230 0.04890
O5A O 0.82200 -0.05230 -0.04890
loop_
_geom_bond_atom_site_label_1
_geom_bond_atom_site_label_2
_geom_bond_site_symmetry_1
_geom_bond_site_symmetry_2
C1 C2 1_555 1_555
C2 C3 1_555 1_555
C3 C4 1_555 1_555
C4 P1 1_555 1_555
P1 O1 1_555 1_555
O1 Ca1 1_555 1_555
O2 P1 1_555 1_555
O3 P1 1_555 1_555
H1 C1 1_555 1_555
H2 C1 1_555 1_555
H3 C1 1_555 1_555
H4 C2 1_555 1_555
H5 C2 1_555 1_555
H6 C3 1_555 1_555
H7 C3 1_555 1_555
H8 C4 1_555 1_555
H9 C4 1_555 1_555
Ca1 O4 1_555 1_555
C5 C6 1_555 1_555
C6 C7 1_555 1_555
C7 C8 1_555 1_555
C8 P2 1_555 1_555
P2 O4 1_555 1_555
O5 P2 1_555 1_555
O6 P2 1_555 1_555
H10 C5 1_555 1_555
H11 C5 1_555 1_555
H12 C5 1_555 1_555
H13 C6 1_555 1_555
H14 C6 1_555 1_555
H15 C7 1_555 1_555
H16 C7 1_555 1_555
H17 C8 1_555 1_555
H18 C8 1_555 1_555
O1A Ca1 1_555 1_555
O3A Ca1 1_555 1_555
Ca1_2 O5 1_555 1_555
Ca1A O5 1_555 1_555
Ca1A_2 O3 1_555 1_555
Ca1A_3 O1 1_555 1_555
O5_2 Ca1 1_555 1_555
O5A Ca1 1_555 1_555
O1A Ca1A_3 1_555 1_555

#END
