
#######################################################################
#
#                 Cambridge Crystallographic Data Centre
#                                CCDC 
#
#######################################################################
#
# If this CIF has been generated from an entry in the Cambridge 
# Structural Database, then it will include bibliographic, chemical, 
# crystal, experimental, refinement or atomic coordinate data resulting 
# from the CCDC's data processing and validation procedures.
#
#######################################################################

data_IFUGAT
_symmetry_cell_setting           monoclinic
_symmetry_space_group_name_H-M   'P 21/c'
_symmetry_Int_Tables_number      14
_space_group_name_Hall           '-P 2ybc'
loop_
_symmetry_equiv_pos_site_id
_symmetry_equiv_pos_as_xyz
1 x,y,z
2 -x,1/2+y,1/2-z
3 -x,-y,-z
4 x,1/2-y,1/2+z
_cell_length_a                   15.0432(9)
_cell_length_b                   11.0379(3)
_cell_length_c                   5.7199(2)
_cell_angle_alpha                90
_cell_angle_beta                 92.749(3)
_cell_angle_gamma                90
_cell_volume                     948.67
loop_
_atom_site_label
_atom_site_type_symbol
_atom_site_fract_x
_atom_site_fract_y
_atom_site_fract_z
O1 O 0.56970 0.52400 0.13710
O2 O 0.58060 0.69440 0.46100
O3 O 0.59200 0.46810 0.56640
P1 P 0.62166 0.56916 0.38035
C1 C 0.73739 0.57971 0.34401
C2 C 0.79019 0.63382 0.51559
C3 C 0.77205 0.53245 0.14617
C4 C 0.88023 0.63300 0.50159
C5 C 0.86176 0.53523 0.12330
C6 C 0.91714 0.58488 0.30423
H1 H 0.75870 0.67952 0.67005
H2 H 0.72592 0.49147 0.00328
H3 H 0.92444 0.67157 0.65102
H4 H 0.89143 0.49754 -0.04136
H5 H 0.99239 0.58551 0.28840
Ca1 Ca 0.52280 0.62810 -0.18580
O4 O 0.42740 0.71380 0.10900
H6 H 0.45202 0.78084 -0.01727
H7 H 0.35353 0.71380 0.09968
O1B O 0.43030 0.47600 -0.13710
O2_2 O 0.58060 0.69440 -0.53900
O2C O 0.58060 0.80560 -0.03900
O3_2 O 0.59200 0.46810 -0.43360
Ca1_2 Ca 0.52280 0.62810 0.81420
Ca1B Ca 0.47720 0.37190 0.18580
Ca1C Ca 0.52280 0.87190 0.31420
O4C O 0.42740 0.78620 -0.39100
O5 O 0.74270 0.20550 0.01300
H8 H 0.71808 0.27254 0.13927
H9 H 0.81657 0.20550 0.02232
loop_
_geom_bond_atom_site_label_1
_geom_bond_atom_site_label_2
_geom_bond_site_symmetry_1
_geom_bond_site_symmetry_2
O1 P1 1_555 1_555
O2 P1 1_555 1_555
O3 P1 1_555 1_555
P1 C1 1_555 1_555
C1 C2 1_555 1_555
C2 C4 1_555 1_555
C3 C1 1_555 1_555
C4 C6 1_555 1_555
C5 C3 1_555 1_555
C6 C5 1_555 1_555
H1 C2 1_555 1_555
H2 C3 1_555 1_555
H3 C4 1_555 1_555
H4 C5 1_555 1_555
H5 C6 1_555 1_555
Ca1 O1 1_555 1_555
O4 Ca1 1_555 1_555
H6 O4 1_555 1_555
H7 O4 1_555 1_555
O5 H8 1_555 1_555
H9 O5 1_555 1_555
O1B Ca1 1_555 1_555
O2_2 Ca1 1_555 1_555
O2C Ca1 1_555 1_555
O3_2 Ca1 1_555 1_555
Ca1_2 O2 1_555 1_555
Ca1B O1 1_555 1_555
Ca1C O2 1_555 1_555
O4C Ca1 1_555 1_555
O3 Ca1_2 1_555 1_555
O4 Ca1C 1_555 1_555
O1B Ca1B 1_555 1_555
O2C Ca1C 1_555 1_555

#END
