
#######################################################################
#
#                 Cambridge Crystallographic Data Centre
#                                CCDC 
#
#######################################################################
#
# If this CIF has been generated from an entry in the Cambridge 
# Structural Database, then it will include bibliographic, chemical, 
# crystal, experimental, refinement or atomic coordinate data resulting 
# from the CCDC's data processing and validation procedures.
#
#######################################################################

data_IFUJID
_symmetry_cell_setting           orthorhombic
_symmetry_space_group_name_H-M   'P n a 21'
_symmetry_Int_Tables_number      33
_space_group_name_Hall           'P 2c -2n'
loop_
_symmetry_equiv_pos_site_id
_symmetry_equiv_pos_as_xyz
1 x,y,z
2 -x,-y,1/2+z
3 1/2-x,1/2+y,1/2+z
4 1/2+x,1/2-y,z
_cell_length_a                   23.4301(8)
_cell_length_b                   5.0324(2)
_cell_length_c                   6.1254(2)
_cell_angle_alpha                90
_cell_angle_beta                 90
_cell_angle_gamma                90
_cell_volume                     722.244
loop_
_atom_site_label
_atom_site_type_symbol
_atom_site_fract_x
_atom_site_fract_y
_atom_site_fract_z
S1 S -0.00830(4) 0.7465(2) 0.8298(4)
H1 H -0.0154 0.8542 0.6813
S2 S 0.17410(3) 0.75424(11) 0.66676(19)
Na1 Na 0.26442(4) 0.3309(2) 0.6658(4)
O1 O 0.19813(10) 0.6264(6) 0.4720(5)
O2 O 0.18238(8) 1.0402(4) 0.6710(8)
O3 O 0.33586(10) 0.6737(5) 0.6717(8)
H2 H 0.3259 0.8098 0.7595
H3 H 0.3374 0.7465 0.5332
O4 O 0.19475(10) 0.6245(6) 0.8649(5)
C1 C 0.06798(17) 0.8051(9) 0.8424(9)
H4 H 0.0756 1.0166 0.8509
H5 H 0.0846 0.7169 0.9900
C2 C 0.09943(14) 0.6946(6) 0.6517(10)
H6 H 0.0829 0.7827 0.5039
H7 H 0.0920 0.4830 0.6431
Na1B Na 0.23558(4) 0.8309(2) 0.1658(4)
Na1_2 Na 0.26442(4) 1.3309(2) 0.6658(4)
Na1B_2 Na 0.23558(4) 0.8309(2) 1.1658(4)
O1B O 0.30187(10) 0.1264(6) 0.9720(5)
O2_2 O 0.18238(8) 0.0402(4) 0.6710(8)
O4B O 0.30525(10) 0.1245(6) 0.3649(5)
loop_
_geom_bond_atom_site_label_1
_geom_bond_atom_site_label_2
_geom_bond_site_symmetry_1
_geom_bond_site_symmetry_2
S1 H1 1_555 1_555
S2 O1 1_555 1_555
Na1 O1 1_555 1_555
O1 Na1B 1_555 1_555
O2 S2 1_555 1_555
O3 Na1 1_555 1_555
H2 O3 1_555 1_555
H3 O3 1_555 1_555
O4 S2 1_555 1_555
C1 S1 1_555 1_555
H4 C1 1_555 1_555
H5 C1 1_555 1_555
C2 S2 1_555 1_555
H6 C2 1_555 1_555
H7 C2 1_555 1_555
Na1_2 O2 1_555 1_555
Na1B_2 O4 1_555 1_555
O1B Na1 1_555 1_555
O2_2 Na1 1_555 1_555
O4B Na1 1_555 1_555
Na1 O4 1_555 1_555
C1 C2 1_555 1_555

#END
