
#######################################################################
#
#                 Cambridge Crystallographic Data Centre
#                                CCDC 
#
#######################################################################
#
# If this CIF has been generated from an entry in the Cambridge 
# Structural Database, then it will include bibliographic, chemical, 
# crystal, experimental, refinement or atomic coordinate data resulting 
# from the CCDC's data processing and validation procedures.
#
#######################################################################

data_IFUJUQ
_symmetry_cell_setting           monoclinic
_symmetry_space_group_name_H-M   'C 2/c'
_symmetry_Int_Tables_number      15
_space_group_name_Hall           '-C 2yn'
loop_
_symmetry_equiv_pos_site_id
_symmetry_equiv_pos_as_xyz
1 x,y,z
2 -x,y,1/2-z
3 1/2+x,1/2+y,z
4 1/2-x,1/2+y,1/2-z
5 -x,-y,-z
6 x,-y,1/2+z
7 1/2-x,1/2-y,-z
8 1/2+x,1/2-y,1/2+z
_cell_length_a                   6.1781(4)
_cell_length_b                   12.7298(9)
_cell_length_c                   23.6346(17)
_cell_angle_alpha                90
_cell_angle_beta                 90.02(3)
_cell_angle_gamma                90
_cell_volume                     1858.77
loop_
_atom_site_label
_atom_site_type_symbol
_atom_site_fract_x
_atom_site_fract_y
_atom_site_fract_z
Cu1 Cu 0.5000 0.29586(3) 0.2500
O1 O 0.2118(3) 0.45295(14) -0.05127(7)
H1 H 0.175(4) 0.464(2) -0.0842(8)
O2 O -0.0764(3) 0.34791(16) -0.04985(8)
O3 O 0.2689(3) 0.27660(13) 0.19408(7)
O4 O -0.2939(3) 0.11917(12) 0.20836(7)
O5 O -0.2690(3) 0.29043(11) 0.19097(7)
O6 O 0.5000 0.47078(19) 0.2500
H2 H 0.595(4) 0.509(2) 0.2621(13)
N1 N 0.0756(3) 0.25856(14) 0.11423(8)
C1 C 0.0253(4) 0.28656(16) 0.06069(10)
H3 H -0.0912 0.2543 0.0428
C2 C 0.1410(3) 0.36080(17) 0.03222(9)
C3 C 0.3167(4) 0.40872(17) 0.06025(10)
H4 H 0.4003 0.4583 0.0413
C4 C 0.3647(4) 0.38335(18) 0.11427(10)
H5 H 0.4793 0.4168 0.1324
C5 C 0.2419(4) 0.30578(16) 0.14404(10)
C6 C 0.0788(4) 0.38547(17) -0.02659(10)
C7 C -0.0360(3) 0.16965(17) 0.14116(10)
H6 H 0.0720 0.1267 0.1600
H7 H -0.1001 0.1271 0.1115
C8 C -0.2113(4) 0.19547(16) 0.18381(10)
H2A H 0.405(4) 0.509(2) 0.2379(13)
O1A O -0.2118(3) 0.45295(14) 0.55127(7)
H1A H -0.175(4) 0.464(2) 0.5842(8)
O2A O 0.0764(3) 0.34791(16) 0.54985(8)
O3A O -0.2689(3) 0.27660(13) 0.30592(7)
O4A O 0.2939(3) 0.11917(12) 0.29164(7)
O5A O 0.2690(3) 0.29043(11) 0.30903(7)
N1A N -0.0756(3) 0.25856(14) 0.38577(8)
C1A C -0.0253(4) 0.28656(16) 0.43931(10)
H3A H 0.0912 0.2543 0.4572
C2A C -0.1410(3) 0.36080(17) 0.46778(9)
C3A C -0.3167(4) 0.40872(17) 0.43975(10)
H4A H -0.4003 0.4583 0.4587
C4A C -0.3647(4) 0.38335(18) 0.38573(10)
H5A H -0.4793 0.4168 0.3676
C5A C -0.2419(4) 0.30578(16) 0.35596(10)
C6A C -0.0788(4) 0.38547(17) 0.52659(10)
C7A C 0.0360(3) 0.16965(17) 0.35884(10)
H6A H -0.0720 0.1267 0.3400
H7A H 0.1001 0.1271 0.3885
C8A C 0.2113(4) 0.19547(16) 0.31619(10)
Cu1_2 Cu -0.5000 0.29586(3) 0.2500
O3A_2 O 0.7311(3) 0.27660(13) 0.30592(7)
O4_2 O 0.7061(3) 0.11917(12) 0.20836(7)
O5_2 O 0.7310(3) 0.29043(11) 0.19097(7)
O7 O 0.3878(3) -0.00481(14) 0.15469(8)
H8 H 0.363(5) -0.0598(16) 0.1712(12)
H9 H 0.478(4) 0.024(2) 0.1748(11)
loop_
_geom_bond_atom_site_label_1
_geom_bond_atom_site_label_2
_geom_bond_site_symmetry_1
_geom_bond_site_symmetry_2
Cu1 O3 1_555 1_555
O1 H1 1_555 1_555
O2 C6 1_555 1_555
O3 C5 1_555 1_555
O4 C8 1_555 1_555
O5 C8 1_555 1_555
O6 Cu1 1_555 1_555
H2 O6 1_555 1_555
N1 C1 1_555 1_555
C1 H3 1_555 1_555
C2 C1 1_555 1_555
C3 C2 1_555 1_555
H4 C3 1_555 1_555
C4 C3 1_555 1_555
H5 C4 1_555 1_555
C5 N1 1_555 1_555
C6 O1 1_555 1_555
C7 N1 1_555 1_555
H6 C7 1_555 1_555
H7 C7 1_555 1_555
C8 C7 1_555 1_555
O7 H8 1_555 1_555
H9 O7 1_555 1_555
H2A O6 1_555 1_555
O1A H1A 1_555 1_555
O2A C6A 1_555 1_555
O3A C5A 1_555 1_555
O4A Cu1 1_555 1_555
O5A Cu1 1_555 1_555
N1A C1A 1_555 1_555
C1A H3A 1_555 1_555
C2A C1A 1_555 1_555
C3A C2A 1_555 1_555
H4A C3A 1_555 1_555
C4A C3A 1_555 1_555
H5A C4A 1_555 1_555
C5A N1A 1_555 1_555
C6A O1A 1_555 1_555
C7A N1A 1_555 1_555
H6A C7A 1_555 1_555
H7A C7A 1_555 1_555
C8A O4A 1_555 1_555
Cu1_2 O4 1_555 1_555
O3A_2 Cu1 1_555 1_555
O4_2 Cu1 1_555 1_555
O5_2 Cu1 1_555 1_555
O5 Cu1_2 1_555 1_555
C2 C6 1_555 1_555
C4 C5 1_555 1_555
O3A Cu1_2 1_555 1_555
O5A C8A 1_555 1_555
C2A C6A 1_555 1_555
C4A C5A 1_555 1_555
C7A C8A 1_555 1_555

#END
