
#######################################################################
#
#                 Cambridge Crystallographic Data Centre
#                                CCDC 
#
#######################################################################
#
# If this CIF has been generated from an entry in the Cambridge 
# Structural Database, then it will include bibliographic, chemical, 
# crystal, experimental, refinement or atomic coordinate data resulting 
# from the CCDC's data processing and validation procedures.
#
#######################################################################

data_IFUKAX
_symmetry_cell_setting           monoclinic
_symmetry_space_group_name_H-M   'C 2/c'
_symmetry_Int_Tables_number      15
_space_group_name_Hall           '-C 2yn'
loop_
_symmetry_equiv_pos_site_id
_symmetry_equiv_pos_as_xyz
1 x,y,z
2 -x,y,1/2-z
3 1/2+x,1/2+y,z
4 1/2-x,1/2+y,1/2-z
5 -x,-y,-z
6 x,-y,1/2+z
7 1/2-x,1/2-y,-z
8 1/2+x,1/2-y,1/2+z
_cell_length_a                   6.2262(2)
_cell_length_b                   12.4105(4)
_cell_length_c                   24.1102(8)
_cell_angle_alpha                90
_cell_angle_beta                 90.02(3)
_cell_angle_gamma                90
_cell_volume                     1863
loop_
_atom_site_label
_atom_site_type_symbol
_atom_site_fract_x
_atom_site_fract_y
_atom_site_fract_z
Zn1 Zn 0.5000 0.31038(2) 0.2500
O1 O 0.2663(2) 0.28416(12) 0.19188(6)
O2 O 0.5000 0.47692(16) 0.2500
O3 O -0.2590(2) 0.30327(10) 0.19056(6)
C1 C 0.2393(3) 0.31076(13) 0.14263(9)
H1 H 0.599(3) 0.5130(19) 0.2626(11)
C2 C -0.2084(3) 0.20575(15) 0.18451(9)
N1 N 0.0723(2) 0.26189(12) 0.11402(6)
C3 C 0.3640(3) 0.38634(15) 0.11183(9)
O4 O -0.2925(2) 0.12993(12) 0.21056(6)
C4 C -0.0421(3) 0.17390(14) 0.14174(9)
C5 C 0.0225(3) 0.28763(15) 0.06100(8)
C6 C 0.3165(3) 0.41011(15) 0.05873(9)
H2 H 0.4804 0.4199 0.1288
H3 H 0.0634 0.1282 0.1597
H4 H -0.1127 0.1308 0.1135
H5 H -0.0946 0.2545 0.0442
C7 C 0.1398(3) 0.36092(15) 0.03163(8)
H6 H 0.4008 0.4595 0.0396
C8 C 0.0779(3) 0.38278(15) -0.02633(9)
O5 O 0.2130(2) 0.44818(12) -0.05215(6)
O6 O -0.0794(3) 0.34552(15) -0.04821(7)
H7 H 0.177(4) 0.4580(19) -0.0854(8)
H1A H 0.401(3) 0.5130(19) 0.2374(11)
O1A O -0.2663(2) 0.28416(12) 0.30812(6)
O3A O 0.2590(2) 0.30327(10) 0.30944(6)
C1A C -0.2393(3) 0.31076(13) 0.35737(9)
C2A C 0.2084(3) 0.20575(15) 0.31549(9)
N1A N -0.0723(2) 0.26189(12) 0.38598(6)
C3A C -0.3640(3) 0.38634(15) 0.38817(9)
O4A O 0.2925(2) 0.12993(12) 0.28944(6)
C4A C 0.0421(3) 0.17390(14) 0.35826(9)
C5A C -0.0225(3) 0.28763(15) 0.43900(8)
C6A C -0.3165(3) 0.41011(15) 0.44127(9)
H2A H -0.4804 0.4199 0.3712
H3A H -0.0634 0.1282 0.3403
H4A H 0.1127 0.1308 0.3865
H5A H 0.0946 0.2545 0.4558
C7A C -0.1398(3) 0.36092(15) 0.46837(8)
H6A H -0.4008 0.4595 0.4604
C8A C -0.0779(3) 0.38278(15) 0.52633(9)
O5A O -0.2130(2) 0.44818(12) 0.55215(6)
O6A O 0.0794(3) 0.34552(15) 0.54821(7)
H7A H -0.177(4) 0.4580(19) 0.5854(8)
Zn1_2 Zn -0.5000 0.31038(2) 0.2500
O1A_2 O 0.7337(2) 0.28416(12) 0.30812(6)
O3_2 O 0.7410(2) 0.30327(10) 0.19056(6)
O4_2 O 0.7075(2) 0.12993(12) 0.21056(6)
O7 O 0.3888(2) 0.00630(13) 0.15443(7)
H8 H 0.368(4) -0.0516(14) 0.1708(11)
H9 H 0.484(3) 0.0329(18) 0.1727(10)
loop_
_geom_bond_atom_site_label_1
_geom_bond_atom_site_label_2
_geom_bond_site_symmetry_1
_geom_bond_site_symmetry_2
Zn1 O1 1_555 1_555
O1 C1 1_555 1_555
O2 Zn1 1_555 1_555
O3 C2 1_555 1_555
C1 N1 1_555 1_555
H1 O2 1_555 1_555
C2 O4 1_555 1_555
N1 C4 1_555 1_555
C3 C1 1_555 1_555
O4 Zn1_2 1_555 1_555
C4 C2 1_555 1_555
C5 N1 1_555 1_555
C6 C3 1_555 1_555
H2 C3 1_555 1_555
H3 C4 1_555 1_555
H4 C4 1_555 1_555
H5 C5 1_555 1_555
C7 C5 1_555 1_555
H6 C6 1_555 1_555
C8 C7 1_555 1_555
O5 C8 1_555 1_555
O6 C8 1_555 1_555
H7 O5 1_555 1_555
O7 H8 1_555 1_555
H9 O7 1_555 1_555
H1A O2 1_555 1_555
O1A C1A 1_555 1_555
O3A Zn1 1_555 1_555
C1A N1A 1_555 1_555
C2A O3A 1_555 1_555
N1A C4A 1_555 1_555
C3A C1A 1_555 1_555
O4A Zn1 1_555 1_555
C4A C2A 1_555 1_555
C5A N1A 1_555 1_555
C6A C3A 1_555 1_555
H2A C3A 1_555 1_555
H3A C4A 1_555 1_555
H4A C4A 1_555 1_555
H5A C5A 1_555 1_555
C7A C5A 1_555 1_555
H6A C6A 1_555 1_555
C8A C7A 1_555 1_555
O5A C8A 1_555 1_555
O6A C8A 1_555 1_555
H7A O5A 1_555 1_555
Zn1_2 O3 1_555 1_555
O1A_2 Zn1 1_555 1_555
O3_2 Zn1 1_555 1_555
O4_2 Zn1 1_555 1_555
C6 C7 1_555 1_555
O1A Zn1_2 1_555 1_555
C2A O4A 1_555 1_555
C6A C7A 1_555 1_555

#END
