
#######################################################################
#
#                 Cambridge Crystallographic Data Centre
#                                CCDC 
#
#######################################################################
#
# If this CIF has been generated from an entry in the Cambridge 
# Structural Database, then it will include bibliographic, chemical, 
# crystal, experimental, refinement or atomic coordinate data resulting 
# from the CCDC's data processing and validation procedures.
#
#######################################################################

data_IFUKIE
_symmetry_cell_setting           orthorhombic
_symmetry_space_group_name_H-M   'I 2 2 2'
_symmetry_Int_Tables_number      23
_space_group_name_Hall           'I 2 2'
loop_
_symmetry_equiv_pos_site_id
_symmetry_equiv_pos_as_xyz
1 x,y,z
2 -x,-y,z
3 -x,y,-z
4 x,-y,-z
5 1/2+x,1/2+y,1/2+z
6 1/2-x,1/2-y,1/2+z
7 1/2-x,1/2+y,1/2-z
8 1/2+x,1/2-y,1/2-z
_cell_length_a                   7.3883(15)
_cell_length_b                   10.087(2)
_cell_length_c                   29.031(6)
_cell_angle_alpha                90
_cell_angle_beta                 90
_cell_angle_gamma                90
_cell_volume                     2163.56
loop_
_atom_site_label
_atom_site_type_symbol
_atom_site_fract_x
_atom_site_fract_y
_atom_site_fract_z
K1 K 0.5000 0.5000 0.26313(7)
K2 K 0.0000 0.5000 0.26268(8)
O1 O 0.2429(10) 0.6833(3) 0.28276(9)
O2 O 0.2513(10) 0.8993(3) 0.29658(9)
O3 O 0.2476(15) 1.1286(3) 0.37039(10)
O4 O 0.2389(10) 1.2557(3) 0.42935(11)
O5 O 0.2461(12) 0.3267(3) 0.30317(11)
N1 N 0.2755(14) 0.8784(3) 0.38382(11)
H1 H 0.3373 0.9320 0.3670
N2 N 0.2659(10) 0.8275(3) 0.46137(11)
H2 H 0.3224 0.8526 0.4858
N3 N 0.2516(11) 1.0441(3) 0.44244(10)
N4 N 0.2478(12) 1.1416(3) 0.41290(11)
C1 C 0.2419(12) 0.7820(4) 0.30906(13)
C2 C 0.2101(7) 0.7544(4) 0.36059(14)
H3 H 0.0794 0.7470 0.3657
C3 C 0.294(2) 0.6381(6) 0.37834(19)
H4 H 0.4240 0.6514 0.3793
H5 H 0.2697 0.5645 0.3578
C4 C 0.2262(15) 0.6022(4) 0.42740(17)
H6 H 0.1150 0.5526 0.4232
H7 H 0.3139 0.5404 0.4399
C5 C 0.1931(9) 0.6894(5) 0.46054(17)
H8 H 0.2319 0.6481 0.4891
H9 H 0.0624 0.6974 0.4624
C6 C 0.2498(15) 0.9152(4) 0.42687(13)
H10 H 0.288(8) 0.279(5) 0.3251(13)
H11 H 0.288(14) 0.287(8) 0.2790(13)
K1F K 0.0000 1.0000 0.23687(7)
K1F_2 K 1.0000 0.0000 0.23687(7)
K2F K 0.5000 1.0000 0.23732(8)
K2_2 K 1.0000 0.5000 0.26268(8)
K2F_2 K 0.5000 0.0000 0.23732(8)
O1A O 0.7571(10) 0.3167(3) 0.28276(9)
O1A_2 O -0.2429(10) 0.3167(3) 0.28276(9)
O2A O 0.7487(10) 0.1007(3) 0.29658(9)
O2F O 0.2487(10) 0.3993(3) 0.20342(9)
O2G O 0.7513(10) 0.6007(3) 0.20342(9)
O2G_2 O -0.2487(10) 0.6007(3) 0.20342(9)
O3A O 0.7524(15) -0.1286(3) 0.37039(10)
O4A O 0.7611(10) -0.2557(3) 0.42935(11)
O5A O 0.7539(12) 0.6733(3) 0.30317(11)
O5A_2 O -0.2461(12) 0.6733(3) 0.30317(11)
N1A N 0.7245(14) 0.1216(3) 0.38382(11)
H1A H 0.6627 0.0680 0.3670
N2A N 0.7341(10) 0.1725(3) 0.46137(11)
H2A H 0.6776 0.1474 0.4858
N3A N 0.7484(11) -0.0441(3) 0.44244(10)
N4A N 0.7522(12) -0.1416(3) 0.41290(11)
C1A C 0.7581(12) 0.2180(4) 0.30906(13)
C2A C 0.7899(7) 0.2456(4) 0.36059(14)
H3A H 0.9206 0.2530 0.3657
C3A C 0.706(2) 0.3619(6) 0.37834(19)
H4A H 0.5760 0.3486 0.3793
H5A H 0.7303 0.4355 0.3578
C4A C 0.7738(15) 0.3978(4) 0.42740(17)
H6A H 0.8850 0.4474 0.4232
H7A H 0.6861 0.4596 0.4399
C5A C 0.8069(9) 0.3106(5) 0.46054(17)
H8A H 0.7681 0.3519 0.4891
H9A H 0.9376 0.3026 0.4624
C6A C 0.7502(15) 0.0848(4) 0.42687(13)
H10A H 0.712(8) 0.721(5) 0.3251(13)
H10A_2 H -0.288(8) 0.721(5) 0.3251(13)
H11A H 0.712(14) 0.713(8) 0.2790(13)
H11A_2 H -0.288(14) 0.713(8) 0.2790(13)
loop_
_geom_bond_atom_site_label_1
_geom_bond_atom_site_label_2
_geom_bond_site_symmetry_1
_geom_bond_site_symmetry_2
K1 O1 1_555 1_555
K2 O1 1_555 1_555
O1 C1 1_555 1_555
O2 C1 1_555 1_555
O3 N4 1_555 1_555
O4 N4 1_555 1_555
O5 K1 1_555 1_555
N1 H1 1_555 1_555
N2 H2 1_555 1_555
N3 N4 1_555 1_555
C1 C2 1_555 1_555
C2 N1 1_555 1_555
H3 C2 1_555 1_555
C3 C2 1_555 1_555
H4 C3 1_555 1_555
H5 C3 1_555 1_555
C4 C3 1_555 1_555
H6 C4 1_555 1_555
H7 C4 1_555 1_555
C5 N2 1_555 1_555
H8 C5 1_555 1_555
H9 C5 1_555 1_555
C6 N1 1_555 1_555
H10 O5 1_555 1_555
H11 O5 1_555 1_555
K1F O2 1_555 1_555
K1F_2 O2A 1_555 1_555
K2F O2 1_555 1_555
K2_2 O1A 1_555 1_555
K2F_2 O2A 1_555 1_555
O1A K1 1_555 1_555
O1A_2 K2 1_555 1_555
O2A C1A 1_555 1_555
O2F K1 1_555 1_555
O2G K1 1_555 1_555
O2G_2 K2 1_555 1_555
O3A N4A 1_555 1_555
O4A N4A 1_555 1_555
O5A K1 1_555 1_555
O5A_2 K2 1_555 1_555
N1A H1A 1_555 1_555
N2A H2A 1_555 1_555
N3A N4A 1_555 1_555
C1A O1A 1_555 1_555
C2A N1A 1_555 1_555
H3A C2A 1_555 1_555
C3A C2A 1_555 1_555
H4A C3A 1_555 1_555
H5A C3A 1_555 1_555
C4A C3A 1_555 1_555
H6A C4A 1_555 1_555
H7A C4A 1_555 1_555
C5A N2A 1_555 1_555
H8A C5A 1_555 1_555
H9A C5A 1_555 1_555
C6A N1A 1_555 1_555
H10A O5A 1_555 1_555
H10A_2 O5A_2 1_555 1_555
H11A O5A 1_555 1_555
H11A_2 O5A_2 1_555 1_555
K2 O5 1_555 1_555
K2 O2F 1_555 1_555
N2 C6 1_555 1_555
N3 C6 1_555 1_555
C4 C5 1_555 1_555
K2_2 O2G 1_555 1_555
K2_2 O5A 1_555 1_555
N2A C6A 1_555 1_555
N3A C6A 1_555 1_555
C1A C2A 1_555 1_555
C4A C5A 1_555 1_555

#END
