
#######################################################################
#
#                 Cambridge Crystallographic Data Centre
#                                CCDC 
#
#######################################################################
#
# If this CIF has been generated from an entry in the Cambridge 
# Structural Database, then it will include bibliographic, chemical, 
# crystal, experimental, refinement or atomic coordinate data resulting 
# from the CCDC's data processing and validation procedures.
#
#######################################################################

data_IFUKUQ
_symmetry_cell_setting           triclinic
_symmetry_space_group_name_H-M   'P -1'
_symmetry_Int_Tables_number      2
_space_group_name_Hall           '-P 1'
loop_
_symmetry_equiv_pos_site_id
_symmetry_equiv_pos_as_xyz
1 x,y,z
2 -x,-y,-z
_cell_length_a                   7.0309(9)
_cell_length_b                   8.6178(12)
_cell_length_c                   13.7373(18)
_cell_angle_alpha                87.889(2)
_cell_angle_beta                 85.173(2)
_cell_angle_gamma                68.060(2)
_cell_volume                     769.321
loop_
_atom_site_label
_atom_site_type_symbol
_atom_site_fract_x
_atom_site_fract_y
_atom_site_fract_z
C1 C 1.0009(4) -0.2899(4) 0.49099(19)
H1 H 1.0564 -0.3522 0.5456
C2 C 0.8577(5) -0.1270(4) 0.4948(2)
H2 H 0.8010 -0.0622 0.5502
C3 C 0.8179(5) -0.0822(4) 0.4006(2)
H3 H 0.7275 0.0200 0.3788
C4 C 0.9422(4) -0.2360(3) 0.24350(18)
C5 C 1.1109(5) -0.3775(4) 0.1068(2)
H4 H 1.2239 -0.4603 0.0758
C6 C 0.9538(5) -0.2803(4) 0.0532(2)
H5 H 0.9632 -0.2981 -0.0137
C7 C 0.4996(4) 0.3069(3) 0.5306(2)
C8 C 0.2476(4) 0.1598(3) 0.21816(19)
C9 C 0.6045(4) 0.3004(4) 0.1046(2)
C10 C 0.7813(4) -0.1375(3) 0.18960(19)
H6 H 0.6681 -0.0546 0.2206
Cd1 Cd 0.5000 0.0000 0.0000
Cd2 Cd 0.35673(3) 0.47371(2) 0.314014(13)
N1 N 0.4844(4) 0.3307(3) 0.44877(18)
N2 N 0.5526(4) 0.2304(3) 0.04926(19)
N3 N 0.2614(4) 0.2620(3) 0.26533(18)
N4 N 1.1055(3) -0.3559(3) 0.20341(16)
N5 N 1.0489(3) -0.3461(3) 0.40006(16)
N6 N 0.9354(3) -0.2152(3) 0.34443(15)
N7 N 0.7876(3) -0.1608(3) 0.09389(16)
S1 S 0.67535(14) 0.40534(14) 0.18169(7)
S2 S 0.22912(12) 0.01127(9) 0.15191(5)
S3 S 0.52645(13) 0.26603(10) 0.64748(5)
C1A C -0.0009(4) 0.2899(4) -0.49099(19)
H1A H -0.0564 0.3522 -0.5456
C2A C 0.1423(5) 0.1270(4) -0.4948(2)
H2A H 0.1990 0.0622 -0.5502
C3A C 0.1821(5) 0.0822(4) -0.4006(2)
H3A H 0.2725 -0.0200 -0.3788
C4A C 0.0578(4) 0.2360(3) -0.24350(18)
C5A C -0.1109(5) 0.3775(4) -0.1068(2)
H4A H -0.2239 0.4603 -0.0758
C6A C 0.0462(5) 0.2803(4) -0.0532(2)
H5A H 0.0368 0.2981 0.0137
C7A C 0.5004(4) 0.6931(3) 0.4694(2)
C8A C 0.7524(4) -0.1598(3) -0.21816(19)
C9A C 0.3955(4) -0.3004(4) -0.1046(2)
C10A C 0.2187(4) 0.1375(3) -0.18960(19)
H6A H 0.3319 0.0546 -0.2206
Cd2A Cd 0.64327(3) -0.47371(2) -0.314014(13)
Cd2_2 Cd 1.35673(3) -0.52629(2) 0.314014(13)
Cd2A_2 Cd 0.64327(3) 0.52629(2) 0.685986(13)
Cd2A_3 Cd -0.35673(3) 0.52629(2) -0.314014(13)
N1A N 0.5156(4) 0.6693(3) 0.55123(18)
N1A_2 N 0.5156(4) -0.3307(3) -0.44877(18)
N2A N 0.4474(4) -0.2304(3) -0.04926(19)
N3A N 0.7386(4) -0.2620(3) -0.26533(18)
N4A N -0.1055(3) 0.3559(3) -0.20341(16)
N4_2 N 0.1055(3) 0.6441(3) 0.20341(16)
N4A_2 N 0.8945(3) -0.6441(3) -0.20341(16)
N5A N -0.0489(3) 0.3461(3) -0.40006(16)
N5_2 N 0.0489(3) 0.6539(3) 0.40006(16)
N5A_2 N 0.9511(3) -0.6539(3) -0.40006(16)
N6A N 0.0646(3) 0.2152(3) -0.34443(15)
N7A N 0.2124(3) 0.1608(3) -0.09389(16)
S1A S 0.32465(14) -0.40534(14) -0.18169(7)
S2A S 0.77088(12) -0.01127(9) -0.15191(5)
S3A S 0.47355(13) 0.73397(10) 0.35252(5)
S3_2 S 0.52645(13) -0.73397(10) -0.35252(5)
loop_
_geom_bond_atom_site_label_1
_geom_bond_atom_site_label_2
_geom_bond_site_symmetry_1
_geom_bond_site_symmetry_2
C1 H1 1_555 1_555
C2 C1 1_555 1_555
H2 C2 1_555 1_555
C3 C2 1_555 1_555
H3 C3 1_555 1_555
C4 C10 1_555 1_555
C5 H4 1_555 1_555
C6 C5 1_555 1_555
H5 C6 1_555 1_555
C7 N1 1_555 1_555
C8 N3 1_555 1_555
C9 N2 1_555 1_555
C10 H6 1_555 1_555
Cd1 N2 1_555 1_555
Cd2 N1 1_555 1_555
N3 Cd2 1_555 1_555
N4 C4 1_555 1_555
N5 C1 1_555 1_555
N6 C3 1_555 1_555
N7 C6 1_555 1_555
S1 C9 1_555 1_555
S2 C8 1_555 1_555
S3 C7 1_555 1_555
C1A H1A 1_555 1_555
C2A C1A 1_555 1_555
H2A C2A 1_555 1_555
C3A C2A 1_555 1_555
H3A C3A 1_555 1_555
C4A C10A 1_555 1_555
C5A H4A 1_555 1_555
C6A C5A 1_555 1_555
H5A C6A 1_555 1_555
C7A N1A 1_555 1_555
C8A N3A 1_555 1_555
C9A N2A 1_555 1_555
C10A H6A 1_555 1_555
Cd2A N1A_2 1_555 1_555
Cd2_2 N4 1_555 1_555
Cd2A_2 S3 1_555 1_555
Cd2A_3 N4A 1_555 1_555
N1A Cd2A_2 1_555 1_555
N2A Cd1 1_555 1_555
N3A Cd2A 1_555 1_555
N4A C4A 1_555 1_555
N4_2 Cd2 1_555 1_555
N4A_2 Cd2A 1_555 1_555
N5A C1A 1_555 1_555
N5_2 Cd2 1_555 1_555
N5A_2 Cd2A 1_555 1_555
N6A C3A 1_555 1_555
N7A Cd1 1_555 1_555
S1A C9A 1_555 1_555
S2A Cd1 1_555 1_555
S3A Cd2 1_555 1_555
S3_2 Cd2A 1_555 1_555
C4 N6 1_555 1_555
C5 N4 1_555 1_555
C10 N7 1_555 1_555
Cd1 N7 1_555 1_555
Cd1 S2 1_555 1_555
Cd2 S1 1_555 1_555
N5 N6 1_555 1_555
N5 Cd2_2 1_555 1_555
C4A N6A 1_555 1_555
C5A N4A 1_555 1_555
C6A N7A 1_555 1_555
C7A S3A 1_555 1_555
C8A S2A 1_555 1_555
C10A N7A 1_555 1_555
Cd2A S1A 1_555 1_555
Cd2A_3 N5A 1_555 1_555
N5A N6A 1_555 1_555

#END
