
#######################################################################
#
#                 Cambridge Crystallographic Data Centre
#                                CCDC 
#
#######################################################################
#
# If this CIF has been generated from an entry in the Cambridge 
# Structural Database, then it will include bibliographic, chemical, 
# crystal, experimental, refinement or atomic coordinate data resulting 
# from the CCDC's data processing and validation procedures.
#
#######################################################################

data_IFUKAW
_symmetry_cell_setting           triclinic
_symmetry_space_group_name_H-M   'P -1'
_symmetry_Int_Tables_number      2
_space_group_name_Hall           '-P 1'
loop_
_symmetry_equiv_pos_site_id
_symmetry_equiv_pos_as_xyz
1 x,y,z
2 -x,-y,-z
_cell_length_a                   8.2803(16)
_cell_length_b                   10.3542(15)
_cell_length_c                   11.1326(16)
_cell_angle_alpha                113.727(2)
_cell_angle_beta                 104.282(2)
_cell_angle_gamma                100.255(2)
_cell_volume                     804.355
loop_
_atom_site_label
_atom_site_type_symbol
_atom_site_fract_x
_atom_site_fract_y
_atom_site_fract_z
Ni1 Ni 0.19610(4) 0.10188(3) 0.85792(3)
O1 O 0.0912(2) 0.1451(2) 0.70832(19)
O2 O -0.1257(2) 0.1548(2) 0.5550(2)
O3 O -0.03449(19) 0.0177(2) 0.85274(17)
N1 N 0.4335(2) 0.2138(2) 0.8837(2)
N2 N -0.1753(2) -0.0555(2) 0.7358(2)
C1 C -0.0673(3) 0.1028(3) 0.6318(3)
C2 C -0.2011(3) -0.0227(3) 0.6272(3)
C3 C -0.3544(3) -0.1043(3) 0.5128(3)
H1 H -0.3736 -0.0847 0.4369
C4 C -0.4795(4) -0.2144(3) 0.5092(3)
H2 H -0.5824 -0.2686 0.4315
C5 C -0.4508(3) -0.2433(3) 0.6215(3)
H3 H -0.5343 -0.3172 0.6205
C6 C -0.2980(3) -0.1624(3) 0.7350(3)
C7 C 0.5711(3) 0.1727(3) 0.9306(3)
H4 H 0.5514 0.0953 0.9529
C8 C 0.7394(3) 0.2397(3) 0.9470(3)
H5 H 0.8307 0.2077 0.9798
C9 C 0.7726(3) 0.3553(3) 0.9144(3)
C10 C 0.9551(3) 0.4316(3) 0.9304(3)
H6 H 1.0234 0.3635 0.9215
H7 H 0.9488 0.4587 0.8559
C11 C 0.6307(3) 0.3995(3) 0.8690(3)
H8 H 0.6474 0.4782 0.8482
C12 C 0.46548(10) 0.32671(9) 0.85477(8)
H9 H 0.3722 0.3577 0.8236
O4 O 0.22201(10) -0.11885(9) 0.72089(8)
H10 H 0.1610 -0.1939 0.7212
H11 H 0.2045 -0.1367 0.6357
C13 C -0.25478(10) -0.18425(9) 0.86469(8)
O7 O -0.28538(10) -0.09359(9) 0.96606(8)
O8 O -0.19822(10) -0.28825(9) 0.85957(8)
Ni1A Ni -0.19610(4) -0.10188(3) 1.14208(3)
Ni1A_2 Ni 1.80390(4) 0.89812(3) 1.14208(3)
O1A O -0.0912(2) -0.1451(2) 1.29168(19)
O2A O 0.1257(2) -0.1548(2) 1.4450(2)
O3A O 0.03449(19) -0.0177(2) 1.14726(17)
N1A N 1.5665(2) 0.7862(2) 1.1163(2)
N1A_2 N -0.4335(2) -0.2138(2) 1.1163(2)
N2A N 0.1753(2) 0.0555(2) 1.2642(2)
C1A C 0.0673(3) -0.1028(3) 1.3682(3)
C2A C 0.2011(3) 0.0227(3) 1.3728(3)
C3A C 0.3544(3) 0.1043(3) 1.4872(3)
H1A H 0.3736 0.0847 1.5631
C4A C 0.4795(4) 0.2144(3) 1.4908(3)
H2A H 0.5824 0.2686 1.5685
C5A C 0.4508(3) 0.2433(3) 1.3785(3)
H3A H 0.5343 0.3172 1.3795
C6A C 0.2980(3) 0.1624(3) 1.2650(3)
C7A C 1.4289(3) 0.8273(3) 1.0694(3)
H4A H 1.4486 0.9047 1.0471
C8A C 1.2606(3) 0.7603(3) 1.0530(3)
H5A H 1.1693 0.7923 1.0202
C9A C 1.2274(3) 0.6447(3) 1.0856(3)
C10A C 1.0449(3) 0.5684(3) 1.0696(3)
H6A H 0.9766 0.6365 1.0785
H7A H 1.0512 0.5413 1.1441
C11A C 1.3693(3) 0.6005(3) 1.1310(3)
H8A H 1.3526 0.5218 1.1518
C12A C 1.53452(10) 0.67329(9) 1.14523(8)
H9A H 1.6278 0.6423 1.1764
O4A O -0.22201(10) 0.11885(9) 1.27911(8)
H10A H -0.1610 0.1939 1.2788
H11A H -0.2045 0.1367 1.3643
C13A C 0.25478(10) 0.18425(9) 1.13531(8)
O7A O 0.28538(10) 0.09359(9) 1.03394(8)
O8A O 0.19822(10) 0.28825(9) 1.14043(8)
O5 O 0.15515(10) 0.41900(9) 0.61420(8)
H12 H 0.0828 0.3364 0.5887
H13 H 0.1122 0.489 0.6354
O6 O 0.03080(10) 0.37588(9) 0.33371(8)
H14 H 0.0820 0.3592 0.2741
H15 H 0.1116 0.4510 0.4044
loop_
_geom_bond_atom_site_label_1
_geom_bond_atom_site_label_2
_geom_bond_site_symmetry_1
_geom_bond_site_symmetry_2
Ni1 O1 1_555 1_555
O1 C1 1_555 1_555
O2 C1 1_555 1_555
O3 Ni1 1_555 1_555
N1 Ni1 1_555 1_555
N2 O3 1_555 1_555
C1 C2 1_555 1_555
C2 N2 1_555 1_555
C3 C2 1_555 1_555
H1 C3 1_555 1_555
C4 C3 1_555 1_555
H2 C4 1_555 1_555
C5 C4 1_555 1_555
H3 C5 1_555 1_555
C6 N2 1_555 1_555
C7 N1 1_555 1_555
H4 C7 1_555 1_555
C8 C7 1_555 1_555
H5 C8 1_555 1_555
C9 C8 1_555 1_555
C10 C9 1_555 1_555
H6 C10 1_555 1_555
H7 C10 1_555 1_555
C11 C9 1_555 1_555
H8 C11 1_555 1_555
C12 N1 1_555 1_555
H9 C12 1_555 1_555
O4 Ni1 1_555 1_555
H10 O4 1_555 1_555
H11 O4 1_555 1_555
O5 H12 1_555 1_555
H13 O5 1_555 1_555
O6 H14 1_555 1_555
H15 O6 1_555 1_555
C13 C6 1_555 1_555
O7 C13 1_555 1_555
O8 C13 1_555 1_555
Ni1A O7 1_555 1_555
Ni1A_2 N1A 1_555 1_555
O1A Ni1A 1_555 1_555
O2A C1A 1_555 1_555
O3A Ni1A 1_555 1_555
N1A C7A 1_555 1_555
N1A_2 Ni1A 1_555 1_555
N2A O3A 1_555 1_555
C1A O1A 1_555 1_555
C2A N2A 1_555 1_555
C3A C2A 1_555 1_555
H1A C3A 1_555 1_555
C4A C3A 1_555 1_555
H2A C4A 1_555 1_555
C5A C4A 1_555 1_555
H3A C5A 1_555 1_555
C6A N2A 1_555 1_555
C7A H4A 1_555 1_555
C8A C7A 1_555 1_555
H5A C8A 1_555 1_555
C9A C8A 1_555 1_555
C10A C10 1_555 1_555
H6A C10A 1_555 1_555
H7A C10A 1_555 1_555
C11A C9A 1_555 1_555
H8A C11A 1_555 1_555
C12A N1A 1_555 1_555
H9A C12A 1_555 1_555
O4A Ni1A 1_555 1_555
H10A O4A 1_555 1_555
H11A O4A 1_555 1_555
C13A C6A 1_555 1_555
O7A Ni1 1_555 1_555
O8A C13A 1_555 1_555
C5 C6 1_555 1_555
C11 C12 1_555 1_555
C1A C2A 1_555 1_555
C5A C6A 1_555 1_555
C9A C10A 1_555 1_555
C11A C12A 1_555 1_555
C13A O7A 1_555 1_555

#END
