
#######################################################################
#
#                 Cambridge Crystallographic Data Centre
#                                CCDC 
#
#######################################################################
#
# If this CIF has been generated from an entry in the Cambridge 
# Structural Database, then it will include bibliographic, chemical, 
# crystal, experimental, refinement or atomic coordinate data resulting 
# from the CCDC's data processing and validation procedures.
#
#######################################################################

data_IFULAX
_symmetry_cell_setting           monoclinic
_symmetry_space_group_name_H-M   'P 21/c'
_symmetry_Int_Tables_number      14
_space_group_name_Hall           '-P 2ybc'
loop_
_symmetry_equiv_pos_site_id
_symmetry_equiv_pos_as_xyz
1 x,y,z
2 -x,1/2+y,1/2-z
3 -x,-y,-z
4 x,1/2-y,1/2+z
_cell_length_a                   10.2712(12)
_cell_length_b                   11.5251(13)
_cell_length_c                   18.309(2)
_cell_angle_alpha                90
_cell_angle_beta                 90.521(2)
_cell_angle_gamma                90
_cell_volume                     2167.27
loop_
_atom_site_label
_atom_site_type_symbol
_atom_site_fract_x
_atom_site_fract_y
_atom_site_fract_z
O1 O 0.3287(4) -0.0221(4) 0.4108(2)
N1 N 0.2102(4) 0.1756(4) 0.1902(2)
C1 C 0.2965(6) 0.0894(5) 0.1927(3)
H1 H 0.3729 0.1009 0.2194
C2 C 0.2794(6) -0.0159(5) 0.1583(3)
H2 H 0.3432 -0.0728 0.1621
C3 C 0.1003(5) 0.1549(5) 0.1514(3)
H3 H 0.0376 0.2129 0.1486
C4 C 0.0769(6) 0.0515(5) 0.1159(3)
H4 H -0.0007 0.0411 0.0902
C5 C 0.1677(5) -0.0369(5) 0.1180(3)
C6 C 0.1470(6) -0.1521(5) 0.0794(3)
H5 H 0.1842 -0.1468 0.0310
H6 H 0.1948 -0.2115 0.1059
Co1 Co 0.24328(6) 0.32149(5) 0.24652(3)
O2 O 0.2788(4) 0.2215(3) 0.32898(19)
N2 N 0.1568(4) -0.5763(4) 0.1728(2)
O3 O 0.2658(5) 0.5550(4) 0.4120(2)
O4 O 0.2384(4) 0.4531(3) 0.3113(2)
O5 O 0.4937(4) 0.0354(3) 0.3417(2)
C7 C 0.3381(5) 0.3644(5) 0.4174(3)
C8 C 0.1618(6) -0.4619(5) 0.0652(3)
H7 H 0.2043 -0.4425 0.0223
N3 N 0.3424(4) 0.2545(4) 0.3900(2)
C9 C 0.4691(6) 0.1910(6) 0.4901(3)
H8 H 0.5156 0.1326 0.5137
C10 C 0.2755(6) 0.4653(5) 0.3766(3)
C11 C 0.4082(5) 0.1683(5) 0.4248(3)
C12 C -0.0066(6) -0.3103(4) 0.0347(3)
H9 H -0.0981 -0.3250 0.0252
H10 H 0.0381 -0.3097 -0.0117
C13 C 0.0487(5) -0.4072(5) 0.0824(3)
C14 C 0.4076(6) 0.0499(5) 0.3885(3)
C15 C 0.3971(6) 0.3843(5) 0.4831(3)
H11 H 0.3931 0.4585 0.5029
C16 C 0.2145(5) -0.5459(5) 0.1107(3)
H12 H 0.2918 -0.5820 0.0976
C17 C 0.0451(6) -0.5226(5) 0.1890(3)
H13 H 0.0037 -0.5423 0.2322
C18 C 0.4619(6) 0.2997(6) 0.5211(3)
H14 H 0.4999 0.3150 0.5663
C19 C -0.0109(6) -0.4411(5) 0.1456(3)
H15 H -0.0899 -0.4082 0.1587
C20 C 0.0088(6) -0.1905(4) 0.0717(3)
H16 H -0.0387 -0.1333 0.0432
H17 H -0.0299 -0.1936 0.1198
O6 O 0.4465(4) 0.3311(4) 0.2130(3)
H18 H 0.4767 0.3944 0.2011
H19 H 0.4891 0.3034 0.2471
Co1_2 Co 0.24328(6) -0.67851(5) 0.24652(3)
N2_2 N 0.1568(4) 0.4237(4) 0.1728(2)
O7 O 0.6417(5) 0.2145(5) 0.2840(3)
H20 H 0.6669 0.1724 0.2494
H21 H 0.5887 0.1753 0.3084
O8 O 0.2003(5) 0.7719(5) 0.3494(4)
H22 H 0.2281 0.7061 0.3618
H23 H 0.2190 0.8220 0.3795
loop_
_geom_bond_atom_site_label_1
_geom_bond_atom_site_label_2
_geom_bond_site_symmetry_1
_geom_bond_site_symmetry_2
O1 C14 1_555 1_555
N1 C1 1_555 1_555
C1 H1 1_555 1_555
C2 C1 1_555 1_555
H2 C2 1_555 1_555
C3 N1 1_555 1_555
H3 C3 1_555 1_555
C4 C3 1_555 1_555
H4 C4 1_555 1_555
C5 C2 1_555 1_555
C6 C5 1_555 1_555
H5 C6 1_555 1_555
H6 C6 1_555 1_555
Co1 N1 1_555 1_555
O2 Co1 1_555 1_555
N2 C16 1_555 1_555
O3 C10 1_555 1_555
O4 Co1 1_555 1_555
O5 C14 1_555 1_555
C7 N3 1_555 1_555
C8 H7 1_555 1_555
N3 O2 1_555 1_555
C9 H8 1_555 1_555
C10 O4 1_555 1_555
C11 N3 1_555 1_555
C12 H9 1_555 1_555
H10 C12 1_555 1_555
C13 C8 1_555 1_555
C14 C11 1_555 1_555
C15 C7 1_555 1_555
H11 C15 1_555 1_555
C16 C8 1_555 1_555
H12 C16 1_555 1_555
C17 N2 1_555 1_555
H13 C17 1_555 1_555
C18 C9 1_555 1_555
H14 C18 1_555 1_555
C19 C13 1_555 1_555
H15 C19 1_555 1_555
C20 C6 1_555 1_555
H16 C20 1_555 1_555
H17 C20 1_555 1_555
O6 Co1 1_555 1_555
H18 O6 1_555 1_555
H19 O6 1_555 1_555
O7 H20 1_555 1_555
H21 O7 1_555 1_555
O8 H22 1_555 1_555
H23 O8 1_555 1_555
Co1_2 N2 1_555 1_555
N2_2 Co1 1_555 1_555
C4 C5 1_555 1_555
C7 C10 1_555 1_555
C9 C11 1_555 1_555
C12 C13 1_555 1_555
C12 C20 1_555 1_555
C15 C18 1_555 1_555
C17 C19 1_555 1_555

#END
