
#######################################################################
#
#                 Cambridge Crystallographic Data Centre
#                                CCDC 
#
#######################################################################
#
# If this CIF has been generated from an entry in the Cambridge 
# Structural Database, then it will include bibliographic, chemical, 
# crystal, experimental, refinement or atomic coordinate data resulting 
# from the CCDC's data processing and validation procedures.
#
#######################################################################

data_IFUNUU
_symmetry_cell_setting           monoclinic
_symmetry_space_group_name_H-M   'C 2/c'
_symmetry_Int_Tables_number      15
_space_group_name_Hall           '-C 2yn'
loop_
_symmetry_equiv_pos_site_id
_symmetry_equiv_pos_as_xyz
1 x,y,z
2 -x,y,1/2-z
3 1/2+x,1/2+y,z
4 1/2-x,1/2+y,1/2-z
5 -x,-y,-z
6 x,-y,1/2+z
7 1/2-x,1/2-y,-z
8 1/2+x,1/2-y,1/2+z
_cell_length_a                   24.605(2)
_cell_length_b                   12.9653(12)
_cell_length_c                   14.6200(14)
_cell_angle_alpha                90
_cell_angle_beta                 96.727(2)
_cell_angle_gamma                90
_cell_volume                     4631.84
loop_
_atom_site_label
_atom_site_type_symbol
_atom_site_fract_x
_atom_site_fract_y
_atom_site_fract_z
Tb1 Tb 0.327265(18) 0.79475(4) 0.53210(3)
F1 F 0.4121(5) 0.8088(9) 0.1724(12)
O1 O 0.2273(3) 0.6548(6) 0.3519(5)
O2 O 0.3057(3) 0.7427(6) 0.3790(5)
O3 O 0.2024(3) 0.4467(5) 0.0550(5)
O4 O 0.2755(3) 0.3537(5) 0.0394(5)
O5 O 0.5886(3) 0.8228(6) 0.0372(6)
O6 O 0.6043(3) 0.6634(6) 0.0058(6)
O7 O 0.3721(4) 0.7280(9) 0.6715(6)
N1 N 0.3905(4) 0.6615(9) 0.8156(8)
C1 C 0.3716(4) 0.6045(8) 0.1632(7)
C2 C 0.3483(4) 0.6507(8) 0.2353(7)
H1 H 0.3686 0.6992 0.2717
C3 C 0.2962(4) 0.6270(8) 0.2547(7)
C4 C 0.2643(4) 0.5582(8) 0.2000(7)
H2 H 0.2282 0.5465 0.2099
C5 C 0.2870(4) 0.5061(8) 0.1291(7)
C6 C 0.3410(4) 0.5277(8) 0.1130(7)
H3 H 0.3567 0.4905 0.0685
C7 C 0.4261(4) 0.6364(8) 0.1391(7)
C8 C 0.4426(5) 0.7359(9) 0.1392(10)
C9 C 0.4906(5) 0.7671(10) 0.1089(11)
H4 H 0.4994 0.8369 0.1088
C10 C 0.4626(5) 0.5638(10) 0.1129(10)
H5 H 0.4540 0.4940 0.1153
C11 C 0.2742(4) 0.6788(8) 0.3355(7)
C12 C 0.5766(4) 0.7285(8) 0.0393(8)
C13 C 0.5254(4) 0.6967(8) 0.0789(8)
C14 C 0.5127(5) 0.5945(10) 0.0824(9)
H6 H 0.5369 0.5452 0.0649
C15 C 0.2533(4) 0.4309(8) 0.0711(7)
C16 C 0.4468(5) 0.6844(10) 0.8275(9)
H7 H 0.4670 0.6256 0.8102
H8 H 0.4579 0.7010 0.8909
H9 H 0.4537 0.7422 0.7895
C17 C 0.3634(6) 0.5915(10) 0.8841(9)
H10 H 0.3244 0.5995 0.8739
H11 H 0.3764 0.6110 0.9462
H12 H 0.3727 0.5208 0.8744
C18 C 0.3579(6) 0.6938(11) 0.7392(10)
H13 H 0.330(6) 0.656(11) 0.751(9)
O8 O 0.3732(4) 0.9406(8) 0.6102(7)
H14 H 0.4036 0.9266 0.5908
H15 H 0.422(5) 0.943(9) 0.651(8)
Tb1A Tb 0.672735(18) 0.79475(4) -0.03210(3)
Tb1C Tb 0.172735(18) 0.29475(4) -0.03210(3)
Tb1E Tb 0.327265(18) 0.20525(4) 0.03210(3)
Tb1F Tb 0.172735(18) 0.70525(4) 0.46790(3)
O1F O 0.2727(3) 0.8452(6) 0.6481(5)
O3C O 0.2976(3) 0.9467(5) 0.4450(5)
O4C O 0.2245(3) 0.8537(5) 0.4606(5)
O4E O 0.2755(3) 0.6463(5) 0.5394(5)
O5A O 0.4114(3) 0.8228(6) 0.4628(6)
O6A O 0.3957(3) 0.6634(6) 0.4942(6)
loop_
_geom_bond_atom_site_label_1
_geom_bond_atom_site_label_2
_geom_bond_site_symmetry_1
_geom_bond_site_symmetry_2
Tb1 O2 1_555 1_555
F1 C8 1_555 1_555
O1 C11 1_555 1_555
O2 C11 1_555 1_555
O3 C15 1_555 1_555
O4 C15 1_555 1_555
O5 C12 1_555 1_555
O6 C12 1_555 1_555
O7 Tb1 1_555 1_555
N1 C16 1_555 1_555
C1 C2 1_555 1_555
C2 H1 1_555 1_555
C3 C2 1_555 1_555
C4 C3 1_555 1_555
H2 C4 1_555 1_555
C5 C4 1_555 1_555
C6 C1 1_555 1_555
H3 C6 1_555 1_555
C7 C1 1_555 1_555
C8 C7 1_555 1_555
C9 C8 1_555 1_555
H4 C9 1_555 1_555
C10 C7 1_555 1_555
H5 C10 1_555 1_555
C11 C3 1_555 1_555
C12 C13 1_555 1_555
C13 C9 1_555 1_555
C14 C10 1_555 1_555
H6 C14 1_555 1_555
C15 C5 1_555 1_555
C16 H7 1_555 1_555
H8 C16 1_555 1_555
H9 C16 1_555 1_555
C17 N1 1_555 1_555
H10 C17 1_555 1_555
H11 C17 1_555 1_555
H12 C17 1_555 1_555
C18 O7 1_555 1_555
H13 C18 1_555 1_555
O8 Tb1 1_555 1_555
H14 O8 1_555 1_555
H15 O8 1_555 1_555
Tb1A O5 1_555 1_555
Tb1C O3 1_555 1_555
Tb1E O4 1_555 1_555
Tb1F O1 1_555 1_555
O1F Tb1 1_555 1_555
O3C Tb1 1_555 1_555
O4C Tb1 1_555 1_555
O4E Tb1 1_555 1_555
O5A Tb1 1_555 1_555
O6A Tb1 1_555 1_555
O4 Tb1C 1_555 1_555
O6 Tb1A 1_555 1_555
N1 C18 1_555 1_555
C5 C6 1_555 1_555
C13 C14 1_555 1_555
Tb1F O4C 1_555 1_555
Tb1F O4E 1_555 1_555

#END
