
#######################################################################
#
#                 Cambridge Crystallographic Data Centre
#                                CCDC 
#
#######################################################################
#
# If this CIF has been generated from an entry in the Cambridge 
# Structural Database, then it will include bibliographic, chemical, 
# crystal, experimental, refinement or atomic coordinate data resulting 
# from the CCDC's data processing and validation procedures.
#
#######################################################################

data_IFUPAC
_symmetry_cell_setting           monoclinic
_symmetry_space_group_name_H-M   'C 2/c'
_symmetry_Int_Tables_number      15
_space_group_name_Hall           '-C 2yn'
loop_
_symmetry_equiv_pos_site_id
_symmetry_equiv_pos_as_xyz
1 x,y,z
2 -x,y,1/2-z
3 1/2+x,1/2+y,z
4 1/2-x,1/2+y,1/2-z
5 -x,-y,-z
6 x,-y,1/2+z
7 1/2-x,1/2-y,-z
8 1/2+x,1/2-y,1/2+z
_cell_length_a                   24.6841(13)
_cell_length_b                   12.9554(7)
_cell_length_c                   14.6905(8)
_cell_angle_alpha                90
_cell_angle_beta                 96.6580(10)
_cell_angle_gamma                90
_cell_volume                     4666.23
loop_
_atom_site_label
_atom_site_type_symbol
_atom_site_fract_x
_atom_site_fract_y
_atom_site_fract_z
Eu1 Eu 0.327357(15) 0.79449(3) 0.03221(3)
F1 F 0.4127(5) 0.8082(7) -0.3269(11)
O1 O 0.2019(3) 0.4492(5) -0.4442(5)
O2 O 0.3053(3) 0.7431(5) -0.1221(4)
O3 O 0.6039(3) 0.6622(6) -0.4939(5)
O4 O 0.5876(3) 0.8218(5) -0.4634(6)
O5 O 0.2743(2) 0.3559(4) -0.4625(4)
O6 O 0.2271(2) 0.6566(6) -0.1498(4)
O7 O 0.3737(4) 0.9410(9) 0.1112(8)
C1 C 0.4262(4) 0.6349(7) -0.3605(6)
C2 C 0.3708(3) 0.6042(7) -0.3373(6)
C3 C 0.3407(3) 0.5284(7) -0.3878(6)
H1 H 0.3562 0.4915 -0.4325
C4 C 0.2864(3) 0.5078(7) -0.3710(6)
C5 C 0.2643(3) 0.5583(7) -0.3011(6)
H2 H 0.2283 0.5466 -0.2912
C6 C 0.2966(3) 0.6270(7) -0.2457(5)
C7 C 0.3486(3) 0.6515(7) -0.2651(6)
H3 H 0.3689 0.7003 -0.2295
C8 C 0.2520(4) 0.4320(7) -0.4292(6)
C9 C 0.2742(3) 0.6815(7) -0.1662(6)
C10 C 0.4622(4) 0.5643(9) -0.3874(9)
H4 H 0.4536 0.4945 -0.3865
C11 C 0.5121(4) 0.5949(8) -0.4165(9)
H5 H 0.5363 0.5451 -0.4330
C12 C 0.5251(4) 0.6955(7) -0.4207(6)
C13 C 0.4911(5) 0.7670(8) -0.3907(9)
H6 H 0.5001 0.8367 -0.3905
C14 C 0.4428(5) 0.7349(8) -0.3604(9)
C15 C 0.5755(4) 0.7272(8) -0.4616(6)
O8 O 0.3724(3) 0.7233(6) 0.1729(6)
C16 C 0.3563(5) 0.6916(9) 0.2413(8)
H7 H 0.3189 0.6949 0.2438
N1 N 0.3867(4) 0.6514(8) 0.3157(7)
C17 C 0.3617(5) 0.5983(9) 0.3850(8)
H8 H 0.3789 0.5323 0.3963
H9 H 0.3236 0.5885 0.3649
H10 H 0.3657 0.6383 0.4404
H11 H 0.387(5) 0.879(11) 0.137(9)
H12 H 0.376(6) 0.908(12) 0.081(9)
C18 C 0.4414(4) 0.6589(10) 0.3165(8)
H13 H 0.4556 0.5946 0.2970
H14 H 0.4577 0.6745 0.3775
H15 H 0.4497 0.7129 0.2756
Eu1A Eu 0.672643(15) 0.79449(3) -0.53221(3)
Eu1C Eu 0.172643(15) 0.29449(3) -0.53221(3)
Eu1E Eu 0.327357(15) 0.20551(3) -0.46779(3)
Eu1F Eu 0.172643(15) 0.70551(3) -0.03221(3)
O1C O 0.2981(3) 0.9492(5) -0.0558(5)
O3A O 0.3961(3) 0.6622(6) -0.0061(5)
O4A O 0.4124(3) 0.8218(5) -0.0366(6)
O5C O 0.2257(2) 0.8559(4) -0.0375(4)
O5E O 0.2743(2) 0.6441(4) 0.0375(4)
O6F O 0.2729(2) 0.8434(6) 0.1498(4)
loop_
_geom_bond_atom_site_label_1
_geom_bond_atom_site_label_2
_geom_bond_site_symmetry_1
_geom_bond_site_symmetry_2
Eu1 O2 1_555 1_555
F1 C14 1_555 1_555
O1 C8 1_555 1_555
O2 C9 1_555 1_555
O3 C15 1_555 1_555
O4 C15 1_555 1_555
O5 C8 1_555 1_555
O6 C9 1_555 1_555
O7 Eu1 1_555 1_555
C1 C2 1_555 1_555
C2 C3 1_555 1_555
C3 H1 1_555 1_555
C4 C3 1_555 1_555
C5 C4 1_555 1_555
H2 C5 1_555 1_555
C6 C5 1_555 1_555
C7 C2 1_555 1_555
H3 C7 1_555 1_555
C8 C4 1_555 1_555
C9 C6 1_555 1_555
C10 C1 1_555 1_555
H4 C10 1_555 1_555
C11 C10 1_555 1_555
H5 C11 1_555 1_555
C12 C11 1_555 1_555
C13 C12 1_555 1_555
H6 C13 1_555 1_555
C14 C1 1_555 1_555
C15 C12 1_555 1_555
O8 Eu1 1_555 1_555
C16 O8 1_555 1_555
H7 C16 1_555 1_555
N1 C16 1_555 1_555
C17 N1 1_555 1_555
H8 C17 1_555 1_555
H9 C17 1_555 1_555
H10 C17 1_555 1_555
H11 O7 1_555 1_555
H12 O7 1_555 1_555
C18 N1 1_555 1_555
H13 C18 1_555 1_555
H14 C18 1_555 1_555
H15 C18 1_555 1_555
Eu1A O3 1_555 1_555
Eu1C O1 1_555 1_555
Eu1E O5 1_555 1_555
Eu1F O6 1_555 1_555
O1C Eu1 1_555 1_555
O3A Eu1 1_555 1_555
O4A Eu1 1_555 1_555
O5C Eu1 1_555 1_555
O5E Eu1 1_555 1_555
O6F Eu1 1_555 1_555
O4 Eu1A 1_555 1_555
O5 Eu1C 1_555 1_555
C6 C7 1_555 1_555
C13 C14 1_555 1_555
Eu1F O5C 1_555 1_555
Eu1F O5E 1_555 1_555

#END
