
#######################################################################
#
#                 Cambridge Crystallographic Data Centre
#                                CCDC 
#
#######################################################################
#
# If this CIF has been generated from an entry in the Cambridge 
# Structural Database, then it will include bibliographic, chemical, 
# crystal, experimental, refinement or atomic coordinate data resulting 
# from the CCDC's data processing and validation procedures.
#
#######################################################################

data_IFUSUX
_symmetry_cell_setting           monoclinic
_symmetry_space_group_name_H-M   'P 21/n'
_symmetry_Int_Tables_number      14
_space_group_name_Hall           '-P 2yn'
loop_
_symmetry_equiv_pos_site_id
_symmetry_equiv_pos_as_xyz
1 x,y,z
2 1/2+x,1/2-y,1/2+z
3 -x,-y,-z
4 1/2-x,1/2+y,1/2-z
_cell_length_a                   13.361(2)
_cell_length_b                   20.812(5)
_cell_length_c                   20.154(4)
_cell_angle_alpha                90.00
_cell_angle_beta                 99.87(2)
_cell_angle_gamma                90.00
_cell_volume                     5521.26
loop_
_atom_site_label
_atom_site_type_symbol
_atom_site_fract_x
_atom_site_fract_y
_atom_site_fract_z
C55 C 0.8645(7) 0.0956(7) 0.2948(4)
Cl2 Cl 0.7605(2) 0.1266(2) 0.24313(14)
Cl3 Cl 0.8388(4) 0.0198(4) 0.3242(4)
C56 C 0.8399(7) 0.2294(6) 0.4431(4)
Cl4 Cl 0.7872(3) 0.15420(19) 0.45735(10)
Cl5 Cl 0.7470(2) 0.2836(2) 0.39665(18)
C57 C 0.1675(9) 0.0428(6) 0.3911(4)
Cl6 Cl 0.1190(4) 0.0028(3) 0.45379(17)
Cl7 Cl 0.1171(2) 0.00926(17) 0.30913(12)
Ag1 Ag 0.29372(2) 0.771473(16) 0.066953(11)
P1 P 0.18319(8) 0.78908(6) 0.15503(4)
C1 C 0.2364(3) 0.8215(3) 0.23812(16)
C2 C 0.2011(4) 0.8014(3) 0.29612(19)
H1 H 0.1515 0.7698 0.2937
C3 C 0.2421(5) 0.8299(4) 0.3586(2)
H2 H 0.2186 0.8173 0.3975
C4 C 0.3158(5) 0.8756(4) 0.3621(2)
H3 H 0.3428 0.8939 0.4034
C5 C 0.3506(4) 0.8948(4) 0.3048(2)
H4 H 0.4015 0.9257 0.3075
C6 C 0.3097(4) 0.8681(3) 0.2429(2)
H5 H 0.3323 0.8821 0.2042
C7 C 0.1228(3) 0.7153(3) 0.17406(17)
C8 C 0.1850(4) 0.6620(3) 0.1890(2)
H6 H 0.2546 0.6656 0.1898
C9 C 0.1436(6) 0.6032(4) 0.2026(3)
H7 H 0.1857 0.5680 0.2143
C10 C 0.0395(6) 0.5971(4) 0.1988(3)
H8 H 0.0112 0.5574 0.2058
C11 C -0.0206(5) 0.6495(4) 0.1847(2)
H9 H -0.0903 0.6457 0.1834
C12 C 0.0191(4) 0.7078(3) 0.1723(2)
H10 H -0.0239 0.7429 0.1624
C13 C 0.0772(3) 0.8428(2) 0.12668(15)
C14 C 0.0283(3) 0.8386(2) 0.05951(17)
H11 H 0.0479 0.8069 0.0319
C15 C -0.0475(3) 0.8802(2) 0.03381(16)
H12 H -0.0782 0.8766 -0.0111
C16 C -0.0796(3) 0.9279(2) 0.07370(16)
C17 C -0.0321(3) 0.9318(3) 0.14152(17)
H13 H -0.0530 0.9629 0.1694
C18 C 0.0452(3) 0.8900(3) 0.16705(16)
H14 H 0.0762 0.8934 0.2119
C19 C -0.1588(3) 0.9742(2) 0.04565(16)
C20 C -0.2330(3) 0.9943(2) 0.08194(16)
H15 H -0.2333 0.9773 0.1246
C21 C -0.3059(3) 1.0386(2) 0.05616(16)
H16 H -0.3556 1.0504 0.0810
C22 C -0.3058(3) 1.0662(2) -0.00725(15)
C23 C -0.2319(3) 1.0466(2) -0.04386(16)
H17 H -0.2307 1.0643 -0.0861
C24 C -0.1603(3) 1.0013(3) -0.01819(17)
H18 H -0.1120 0.9885 -0.0437
P2 P -0.39050(7) 1.13118(5) -0.04107(4)
C25 C -0.4769(3) 1.1391(2) 0.01970(15)
C26 C -0.4396(4) 1.1699(3) 0.08095(18)
H19 H -0.3733 1.1855 0.0893
C27 C -0.5026(4) 1.1771(3) 0.1295(2)
H20 H -0.4776 1.1965 0.1706
C28 C -0.6007(4) 1.1556(3) 0.1162(2)
H21 H -0.6426 1.1609 0.1482
C29 C -0.6378(4) 1.1262(3) 0.0560(2)
H22 H -0.7046 1.1116 0.0473
C30 C -0.5755(3) 1.1184(3) 0.00812(18)
H23 H -0.6012 1.0986 -0.0326
C31 C -0.4712(3) 1.0953(2) -0.11427(15)
C32 C -0.4810(3) 1.0309(2) -0.12425(17)
H24 H -0.4441 1.0028 -0.0935
C33 C -0.5459(4) 1.0065(3) -0.18013(18)
H25 H -0.5524 0.9623 -0.1863
C34 C -0.6001(4) 1.0476(4) -0.2260(2)
H26 H -0.6434 1.0314 -0.2634
C35 C -0.5901(4) 1.1118(3) -0.2165(2)
H27 H -0.6275 1.1394 -0.2476
C36 C -0.5247(4) 1.1382(3) -0.16101(19)
H28 H -0.5173 1.1824 -0.1556
P3 P 0.20830(8) 0.71438(6) -0.03815(4)
C37 C 0.1137(3) 0.7617(2) -0.09413(16)
C38 C 0.0396(4) 0.7322(3) -0.1421(2)
H29 H 0.0357 0.6876 -0.1454
C39 C -0.0285(5) 0.7712(4) -0.1850(3)
H30 H -0.0767 0.7524 -0.2180
C40 C -0.0250(4) 0.8367(4) -0.1788(2)
H31 H -0.0725 0.8620 -0.2062
C41 C 0.0480(4) 0.8650(3) -0.1325(2)
H32 H 0.0516 0.9095 -0.1291
C42 C 0.1177(4) 0.8266(3) -0.08986(18)
H33 H 0.1674 0.8460 -0.0582
C43 C 0.2998(4) 0.6902(3) -0.09100(19)
C44 C 0.3901(4) 0.6610(3) -0.0583(2)
H34 H 0.4022 0.6563 -0.0117
C45 C 0.4602(6) 0.6398(5) -0.0959(3)
H35 H 0.5196 0.6203 -0.0743
C46 C 0.4445(6) 0.6466(5) -0.1638(3)
H36 H 0.4919 0.6305 -0.1883
C47 C 0.3586(6) 0.6772(4) -0.1966(3)
H37 H 0.3495 0.6831 -0.2430
C48 C 0.2856(4) 0.6992(3) -0.1608(2)
H38 H 0.2277 0.7199 -0.1830
C49 C 0.1400(3) 0.6403(3) -0.02755(17)
C50 C 0.0630(4) 0.6418(3) 0.0102(2)
H39 H 0.0475 0.6804 0.0292
C51 C 0.0086(4) 0.5877(3) 0.02051(19)
H40 H -0.0429 0.5908 0.0461
C52 C 0.0287(3) 0.5290(3) -0.00621(19)
C53 C 0.1049(7) 0.5287(5) -0.0447(5)
H41 H 0.1207 0.4902 -0.0640
C54 C 0.1583(6) 0.5829(4) -0.0556(4)
H42 H 0.2079 0.5804 -0.0827
Cl1 Cl 0.43533(8) 0.69535(6) 0.12729(5)
C52B C -0.0287(3) 0.4710(3) 0.00621(19)
C51B C -0.0086(4) 0.4123(3) -0.02051(19)
C50B C -0.0630(4) 0.3582(3) -0.0102(2)
C49B C -0.1400(3) 0.3597(3) 0.02755(17)
P3B P -0.20830(8) 0.28562(6) 0.03815(4)
C37B C -0.1137(3) 0.2383(2) 0.09413(16)
C38B C -0.0396(4) 0.2678(3) 0.1421(2)
H29B H -0.0357 0.3124 0.1454
C39B C 0.0285(5) 0.2288(4) 0.1850(3)
H30B H 0.0767 0.2476 0.2180
C40B C 0.0250(4) 0.1633(4) 0.1788(2)
H31B H 0.0725 0.1380 0.2062
C41B C -0.0480(4) 0.1350(3) 0.1325(2)
H32B H -0.0516 0.0905 0.1291
C42B C -0.1177(4) 0.1734(3) 0.08986(18)
H33B H -0.1674 0.1540 0.0582
C43B C -0.2998(4) 0.3098(3) 0.09100(19)
C44B C -0.3901(4) 0.3390(3) 0.0583(2)
H34B H -0.4022 0.3437 0.0117
C45B C -0.4602(6) 0.3602(5) 0.0959(3)
H35B H -0.5196 0.3797 0.0743
C46B C -0.4445(6) 0.3534(5) 0.1638(3)
H36B H -0.4919 0.3695 0.1883
C47B C -0.3586(6) 0.3228(4) 0.1966(3)
H37B H -0.3495 0.3169 0.2430
C48B C -0.2856(4) 0.3008(3) 0.1608(2)
H38B H -0.2277 0.2801 0.1830
C54B C -0.1583(6) 0.4171(4) 0.0556(4)
C53B C -0.1049(7) 0.4713(5) 0.0447(5)
H41B H -0.1207 0.5098 0.0640
H42B H -0.2079 0.4196 0.0827
H39B H -0.0475 0.3196 -0.0292
H40B H 0.0429 0.4092 -0.0461
P1B P -0.18319(8) 1.21092(6) -0.15503(4)
C1B C -0.2364(3) 1.1785(3) -0.23812(16)
C2B C -0.2011(4) 1.1986(3) -0.29612(19)
H1B H -0.1515 1.2302 -0.2937
C3B C -0.2421(5) 1.1701(4) -0.3586(2)
H2B H -0.2186 1.1827 -0.3975
C4B C -0.3158(5) 1.1244(4) -0.3621(2)
H3B H -0.3428 1.1061 -0.4034
C5B C -0.3506(4) 1.1052(4) -0.3048(2)
H4B H -0.4015 1.0743 -0.3075
C6B C -0.3097(4) 1.1319(3) -0.2429(2)
H5B H -0.3323 1.1179 -0.2042
C7B C -0.1228(3) 1.2847(3) -0.17406(17)
C8B C -0.1850(4) 1.3380(3) -0.1890(2)
H6B H -0.2546 1.3344 -0.1898
C9B C -0.1436(6) 1.3968(4) -0.2026(3)
H7B H -0.1857 1.4320 -0.2143
C10B C -0.0395(6) 1.4029(4) -0.1988(3)
H8B H -0.0112 1.4426 -0.2058
C11B C 0.0206(5) 1.3505(4) -0.1847(2)
H9B H 0.0903 1.3543 -0.1834
C12B C -0.0191(4) 1.2922(3) -0.1723(2)
H10B H 0.0239 1.2571 -0.1624
C13B C -0.0772(3) 1.1572(2) -0.12668(15)
C14B C -0.0283(3) 1.1614(2) -0.05951(17)
H11B H -0.0479 1.1931 -0.0319
C15B C 0.0475(3) 1.1198(2) -0.03381(16)
H12B H 0.0782 1.1234 0.0111
C16B C 0.0796(3) 1.0721(2) -0.07370(16)
C17B C 0.0321(3) 1.0682(3) -0.14152(17)
H13B H 0.0530 1.0371 -0.1694
C18B C -0.0452(3) 1.1100(3) -0.16705(16)
H14B H -0.0762 1.1066 -0.2119
C19B C 0.1588(3) 1.0258(2) -0.04565(16)
C20B C 0.2330(3) 1.0057(2) -0.08194(16)
H15B H 0.2333 1.0227 -0.1246
C21B C 0.3059(3) 0.9614(2) -0.05616(16)
H16B H 0.3556 0.9496 -0.0810
C22B C 0.3058(3) 0.9338(2) 0.00725(15)
C23B C 0.2319(3) 0.9534(2) 0.04386(16)
H17B H 0.2307 0.9357 0.0861
C24B C 0.1603(3) 0.9987(3) 0.01819(17)
H18B H 0.1120 1.0115 0.0437
P2B P 0.39050(7) 0.86882(5) 0.04107(4)
C25B C 0.4769(3) 0.8609(2) -0.01970(15)
C26B C 0.4396(4) 0.8301(3) -0.08095(18)
H19B H 0.3733 0.8145 -0.0893
C27B C 0.5026(4) 0.8229(3) -0.1295(2)
H20B H 0.4776 0.8035 -0.1706
C28B C 0.6007(4) 0.8444(3) -0.1162(2)
H21B H 0.6426 0.8391 -0.1482
C29B C 0.6378(4) 0.8738(3) -0.0560(2)
H22B H 0.7046 0.8884 -0.0473
C30B C 0.5755(3) 0.8816(3) -0.00812(18)
H23B H 0.6012 0.9014 0.0326
C31B C 0.4712(3) 0.9047(2) 0.11427(15)
C32B C 0.4810(3) 0.9691(2) 0.12425(17)
H24B H 0.4441 0.9972 0.0935
C33B C 0.5459(4) 0.9935(3) 0.18013(18)
H25B H 0.5524 1.0377 0.1863
C34B C 0.6001(4) 0.9524(4) 0.2260(2)
H26B H 0.6434 0.9686 0.2634
C35B C 0.5901(4) 0.8882(3) 0.2165(2)
H27B H 0.6275 0.8606 0.2476
C36B C 0.5247(4) 0.8618(3) 0.16101(19)
H28B H 0.5173 0.8176 0.1556
Ag1B Ag -0.29372(2) 1.228527(16) -0.066953(11)
Cl1B Cl -0.43533(8) 1.30465(6) -0.12729(5)
Ag1B_2 Ag -0.29372(2) 0.228527(16) -0.066953(11)
P3B_2 P -0.20830(8) 1.28562(6) 0.03815(4)
loop_
_geom_bond_atom_site_label_1
_geom_bond_atom_site_label_2
_geom_bond_site_symmetry_1
_geom_bond_site_symmetry_2
Ag1 P1 1_555 1_555
P1 C1 1_555 1_555
C1 C2 1_555 1_555
C2 H1 1_555 1_555
C3 C2 1_555 1_555
H2 C3 1_555 1_555
C4 C3 1_555 1_555
H3 C4 1_555 1_555
C5 C4 1_555 1_555
H4 C5 1_555 1_555
C6 C1 1_555 1_555
H5 C6 1_555 1_555
C7 P1 1_555 1_555
C8 C7 1_555 1_555
H6 C8 1_555 1_555
C9 C8 1_555 1_555
H7 C9 1_555 1_555
C10 C9 1_555 1_555
H8 C10 1_555 1_555
C11 C10 1_555 1_555
H9 C11 1_555 1_555
C12 C7 1_555 1_555
H10 C12 1_555 1_555
C13 P1 1_555 1_555
C14 C13 1_555 1_555
H11 C14 1_555 1_555
C15 C14 1_555 1_555
H12 C15 1_555 1_555
C16 C15 1_555 1_555
C17 C16 1_555 1_555
H13 C17 1_555 1_555
C18 C13 1_555 1_555
H14 C18 1_555 1_555
C19 C16 1_555 1_555
C20 C19 1_555 1_555
H15 C20 1_555 1_555
C21 C20 1_555 1_555
H16 C21 1_555 1_555
C22 C21 1_555 1_555
C23 C22 1_555 1_555
H17 C23 1_555 1_555
C24 C19 1_555 1_555
H18 C24 1_555 1_555
P2 C22 1_555 1_555
C25 P2 1_555 1_555
C26 C25 1_555 1_555
H19 C26 1_555 1_555
C27 C26 1_555 1_555
H20 C27 1_555 1_555
C28 C27 1_555 1_555
H21 C28 1_555 1_555
C29 C28 1_555 1_555
H22 C29 1_555 1_555
C30 C25 1_555 1_555
H23 C30 1_555 1_555
C31 P2 1_555 1_555
C32 C31 1_555 1_555
H24 C32 1_555 1_555
C33 C32 1_555 1_555
H25 C33 1_555 1_555
C34 C33 1_555 1_555
H26 C34 1_555 1_555
C35 C34 1_555 1_555
H27 C35 1_555 1_555
C36 C31 1_555 1_555
H28 C36 1_555 1_555
P3 Ag1 1_555 1_555
C37 P3 1_555 1_555
C38 C37 1_555 1_555
H29 C38 1_555 1_555
C39 C38 1_555 1_555
H30 C39 1_555 1_555
C40 C39 1_555 1_555
H31 C40 1_555 1_555
C41 C40 1_555 1_555
H32 C41 1_555 1_555
C42 C37 1_555 1_555
H33 C42 1_555 1_555
C43 P3 1_555 1_555
C44 C43 1_555 1_555
H34 C44 1_555 1_555
C45 C44 1_555 1_555
H35 C45 1_555 1_555
C46 C45 1_555 1_555
H36 C46 1_555 1_555
C47 C46 1_555 1_555
H37 C47 1_555 1_555
C48 C43 1_555 1_555
H38 C48 1_555 1_555
C49 P3 1_555 1_555
C50 C49 1_555 1_555
H39 C50 1_555 1_555
C51 C50 1_555 1_555
H40 C51 1_555 1_555
C52 C51 1_555 1_555
C53 C52 1_555 1_555
H41 C53 1_555 1_555
C54 C49 1_555 1_555
H42 C54 1_555 1_555
Cl1 Ag1 1_555 1_555
C55 Cl2 1_555 1_555
Cl3 C55 1_555 1_555
C56 Cl4 1_555 1_555
Cl5 C56 1_555 1_555
C57 Cl6 1_555 1_555
Cl7 C57 1_555 1_555
C52B C52 1_555 1_555
C51B C52B 1_555 1_555
C50B C51B 1_555 1_555
C49B C50B 1_555 1_555
P3B C49B 1_555 1_555
C37B P3B 1_555 1_555
C38B C37B 1_555 1_555
H29B C38B 1_555 1_555
C39B C38B 1_555 1_555
H30B C39B 1_555 1_555
C40B C39B 1_555 1_555
H31B C40B 1_555 1_555
C41B C40B 1_555 1_555
H32B C41B 1_555 1_555
C42B C37B 1_555 1_555
H33B C42B 1_555 1_555
C43B P3B 1_555 1_555
C44B C43B 1_555 1_555
H34B C44B 1_555 1_555
C45B C44B 1_555 1_555
H35B C45B 1_555 1_555
C46B C45B 1_555 1_555
H36B C46B 1_555 1_555
C47B C46B 1_555 1_555
H37B C47B 1_555 1_555
C48B C43B 1_555 1_555
H38B C48B 1_555 1_555
C54B C49B 1_555 1_555
C53B C52B 1_555 1_555
H41B C53B 1_555 1_555
H42B C54B 1_555 1_555
H39B C50B 1_555 1_555
H40B C51B 1_555 1_555
P1B C1B 1_555 1_555
C1B C2B 1_555 1_555
C2B H1B 1_555 1_555
C3B C2B 1_555 1_555
H2B C3B 1_555 1_555
C4B C3B 1_555 1_555
H3B C4B 1_555 1_555
C5B C4B 1_555 1_555
H4B C5B 1_555 1_555
C6B C1B 1_555 1_555
H5B C6B 1_555 1_555
C7B P1B 1_555 1_555
C8B C7B 1_555 1_555
H6B C8B 1_555 1_555
C9B C8B 1_555 1_555
H7B C9B 1_555 1_555
C10B C9B 1_555 1_555
H8B C10B 1_555 1_555
C11B C10B 1_555 1_555
H9B C11B 1_555 1_555
C12B C7B 1_555 1_555
H10B C12B 1_555 1_555
C13B P1B 1_555 1_555
C14B C13B 1_555 1_555
H11B C14B 1_555 1_555
C15B C14B 1_555 1_555
H12B C15B 1_555 1_555
C16B C15B 1_555 1_555
C17B C16B 1_555 1_555
H13B C17B 1_555 1_555
C18B C13B 1_555 1_555
H14B C18B 1_555 1_555
C19B C16B 1_555 1_555
C20B C19B 1_555 1_555
H15B C20B 1_555 1_555
C21B C20B 1_555 1_555
H16B C21B 1_555 1_555
C22B C21B 1_555 1_555
C23B C22B 1_555 1_555
H17B C23B 1_555 1_555
C24B C19B 1_555 1_555
H18B C24B 1_555 1_555
P2B Ag1 1_555 1_555
C25B P2B 1_555 1_555
C26B C25B 1_555 1_555
H19B C26B 1_555 1_555
C27B C26B 1_555 1_555
H20B C27B 1_555 1_555
C28B C27B 1_555 1_555
H21B C28B 1_555 1_555
C29B C28B 1_555 1_555
H22B C29B 1_555 1_555
C30B C25B 1_555 1_555
H23B C30B 1_555 1_555
C31B P2B 1_555 1_555
C32B C31B 1_555 1_555
H24B C32B 1_555 1_555
C33B C32B 1_555 1_555
H25B C33B 1_555 1_555
C34B C33B 1_555 1_555
H26B C34B 1_555 1_555
C35B C34B 1_555 1_555
H27B C35B 1_555 1_555
C36B C31B 1_555 1_555
H28B C36B 1_555 1_555
Ag1B P2 1_555 1_555
Cl1B Ag1B 1_555 1_555
Ag1B_2 P3B 1_555 1_555
P3B_2 Ag1B 1_555 1_555
C5 C6 1_555 1_555
C11 C12 1_555 1_555
C17 C18 1_555 1_555
C23 C24 1_555 1_555
C29 C30 1_555 1_555
C35 C36 1_555 1_555
C41 C42 1_555 1_555
C47 C48 1_555 1_555
C53 C54 1_555 1_555
C41B C42B 1_555 1_555
C47B C48B 1_555 1_555
C54B C53B 1_555 1_555
P1B Ag1B 1_555 1_555
C5B C6B 1_555 1_555
C11B C12B 1_555 1_555
C17B C18B 1_555 1_555
C22B P2B 1_555 1_555
C23B C24B 1_555 1_555
C29B C30B 1_555 1_555
C35B C36B 1_555 1_555

#END
