
#######################################################################
#
#                 Cambridge Crystallographic Data Centre
#                                CCDC 
#
#######################################################################
#
# If this CIF has been generated from an entry in the Cambridge 
# Structural Database, then it will include bibliographic, chemical, 
# crystal, experimental, refinement or atomic coordinate data resulting 
# from the CCDC's data processing and validation procedures.
#
#######################################################################

data_IFUSEH01
_symmetry_cell_setting           monoclinic
_symmetry_space_group_name_H-M   'C 2/c'
_symmetry_Int_Tables_number      15
_space_group_name_Hall           '-C 2yn'
loop_
_symmetry_equiv_pos_site_id
_symmetry_equiv_pos_as_xyz
1 x,y,z
2 1/2+x,1/2+y,z
3 -x,y,1/2-z
4 1/2-x,1/2+y,1/2-z
5 -x,-y,-z
6 1/2-x,1/2-y,-z
7 x,-y,1/2+z
8 1/2+x,1/2-y,1/2+z
_cell_length_a                   17.040(4)
_cell_length_b                   11.149(2)
_cell_length_c                   17.531(4)
_cell_angle_alpha                90
_cell_angle_beta                 100.684(5)
_cell_angle_gamma                90
_cell_volume                     3272.79
loop_
_atom_site_label
_atom_site_type_symbol
_atom_site_fract_x
_atom_site_fract_y
_atom_site_fract_z
Cu1 Cu 0.09774(6) 0.61759(9) 0.30205(6)
O1 O 0.0464(3) 0.6161(5) 0.1919(3)
O2 O 0.1684(3) 0.6272(5) 0.1659(3)
O3 O 0.1339(3) 0.6146(6) 0.4147(3)
O4 O 0.2557(4) 0.6096(9) 0.3864(4)
N1 N 0.1037(5) 0.4356(6) 0.3006(5)
N2 N 0.1034(4) -0.2009(5) 0.3026(5)
C1 C 0.0949(5) 0.6215(8) 0.1443(5)
C2 C 0.0610(5) 0.6178(10) 0.0596(5)
H7 H 0.0886 0.5580 0.0351
H8 H 0.0674 0.6947 0.0370
H9 H 0.0053 0.5980 0.0521
C3 C 0.2102(6) 0.6050(8) 0.4332(5)
C4 C 0.2415(6) 0.5853(10) 0.5203(6)
H10 H 0.2944 0.6177 0.5341
H11 H 0.2427 0.5010 0.5315
H12 H 0.2069 0.6250 0.5497
C5 C 0.0684(5) 0.3730(8) 0.3484(5)
H13 H 0.0411 0.4150 0.3813
C6 C 0.0691(6) 0.2492(7) 0.3530(5)
H14 H 0.0444 0.2122 0.3899
C7 C 0.1057(5) 0.1775(8) 0.3039(5)
C8 C 0.1428(6) 0.2502(8) 0.2534(6)
H15 H 0.1701 0.2121 0.2190
C9 C 0.1402(5) 0.3733(8) 0.2531(5)
H16 H 0.1650 0.4146 0.2180
C10 C 0.1075(6) 0.0519(8) 0.3044(6)
C11 C 0.0579(5) -0.1373(8) 0.3428(5)
H17 H 0.0249 -0.1779 0.3708
C12 C 0.0586(6) -0.0147(8) 0.3439(5)
H18 H 0.0253 0.0254 0.3719
C13 C 0.1527(5) -0.1395(8) 0.2660(5)
H19 H 0.1865 -0.1823 0.2400
C14 C 0.1559(6) -0.0163(8) 0.2647(6)
H20 H 0.1905 0.0219 0.2373
Cu1B Cu -0.09774(6) 0.61759(9) 0.19795(6)
Cu1_2 Cu 0.09774(6) -0.38241(9) 0.30205(6)
O1B O -0.0464(3) 0.6161(5) 0.3081(3)
N2_2 N 0.1034(4) 0.7991(5) 0.3026(5)
O5 O 0.2810(6) 0.2968(9) 0.4397(6)
H1 H 0.2658 0.2370 0.4106
H2 H 0.3065 0.3571 0.4273
O6 O 0.0772(9) 0.9369(15) 0.0412(8)
H3 H 0.0482 0.9857 0.0110
H4 H 0.0977 0.9699 0.0839
O7 O -0.0866(7) 0.1804(18) 0.4470(7)
H5 H -0.1215 0.1546 0.4718
H6 H -0.0829 0.2560 0.4528
loop_
_geom_bond_atom_site_label_1
_geom_bond_atom_site_label_2
_geom_bond_site_symmetry_1
_geom_bond_site_symmetry_2
Cu1 O1 1_555 1_555
O1 C1 1_555 1_555
O2 C1 1_555 1_555
O3 Cu1 1_555 1_555
O4 C3 1_555 1_555
O5 H1 1_555 1_555
H2 O5 1_555 1_555
O6 H3 1_555 1_555
H4 O6 1_555 1_555
O7 H5 1_555 1_555
H6 O7 1_555 1_555
N1 Cu1 1_555 1_555
N2 C11 1_555 1_555
C1 C2 1_555 1_555
C2 H7 1_555 1_555
H8 C2 1_555 1_555
H9 C2 1_555 1_555
C3 O3 1_555 1_555
C4 C3 1_555 1_555
H10 C4 1_555 1_555
H11 C4 1_555 1_555
H12 C4 1_555 1_555
C5 N1 1_555 1_555
H13 C5 1_555 1_555
C6 C5 1_555 1_555
H14 C6 1_555 1_555
C7 C6 1_555 1_555
C8 C7 1_555 1_555
H15 C8 1_555 1_555
C9 N1 1_555 1_555
H16 C9 1_555 1_555
C10 C7 1_555 1_555
C11 H17 1_555 1_555
C12 C10 1_555 1_555
H18 C12 1_555 1_555
C13 N2 1_555 1_555
H19 C13 1_555 1_555
C14 C10 1_555 1_555
H20 C14 1_555 1_555
Cu1B O1 1_555 1_555
Cu1_2 N2 1_555 1_555
O1B Cu1 1_555 1_555
N2_2 Cu1 1_555 1_555
C8 C9 1_555 1_555
C11 C12 1_555 1_555
C13 C14 1_555 1_555
Cu1B O1B 1_555 1_555

#END
