
#######################################################################
#
#                 Cambridge Crystallographic Data Centre
#                                CCDC 
#
#######################################################################
#
# If this CIF has been generated from an entry in the Cambridge 
# Structural Database, then it will include bibliographic, chemical, 
# crystal, experimental, refinement or atomic coordinate data resulting 
# from the CCDC's data processing and validation procedures.
#
#######################################################################

data_IFUTAE
_symmetry_cell_setting           monoclinic
_symmetry_space_group_name_H-M   'P 21/n'
_symmetry_Int_Tables_number      14
_space_group_name_Hall           '-P 2yn'
loop_
_symmetry_equiv_pos_site_id
_symmetry_equiv_pos_as_xyz
1 x,y,z
2 1/2+x,1/2-y,1/2+z
3 -x,-y,-z
4 1/2-x,1/2+y,1/2-z
_cell_length_a                   14.161(3)
_cell_length_b                   18.747(4)
_cell_length_c                   14.448(3)
_cell_angle_alpha                90.00
_cell_angle_beta                 93.26(3)
_cell_angle_gamma                90.00
_cell_volume                     3829.39
loop_
_atom_site_label
_atom_site_type_symbol
_atom_site_fract_x
_atom_site_fract_y
_atom_site_fract_z
Ag1 Ag 0.984798(19) 0.035543(15) 0.715899(17)
P1 P 0.87502(6) 0.10422(5) 0.59875(5)
C1 C 0.8864(3) 0.2009(2) 0.5872(2)
C2 C 0.8229(3) 0.2398(2) 0.5289(2)
H1 H 0.7684 0.2174 0.5026
C3 C 0.8395(3) 0.3109(2) 0.5097(3)
H2 H 0.7968 0.3364 0.4700
C4 C 0.9195(3) 0.3444(2) 0.5491(3)
H3 H 0.9306 0.3928 0.5364
C5 C 0.9827(3) 0.3070(2) 0.6070(3)
H4 H 1.0370 0.3297 0.6334
C6 C 0.9657(3) 0.2356(2) 0.6261(3)
H5 H 1.0086 0.2104 0.6660
C7 C 1.1387(3) 0.13450(19) 0.3383(2)
C8 C 1.1751(3) 0.1543(2) 0.2550(3)
H6 H 1.1370 0.1501 0.1998
C9 C 1.2661(4) 0.1800(3) 0.2516(3)
H7 H 1.2892 0.1933 0.1943
C10 C 1.3240(3) 0.1863(3) 0.3320(4)
H8 H 1.3865 0.2027 0.3295
C11 C 1.2887(3) 0.1685(3) 0.4146(3)
H9 H 1.3267 0.1740 0.4696
C12 C 1.1980(3) 0.1426(2) 0.4184(3)
H10 H 1.1755 0.1300 0.4761
C13 C 0.9956(3) 0.1013(2) 0.4582(2)
H11 H 1.0071 0.1507 0.4775
H12 H 1.0389 0.0708 0.4959
C14 C 0.8944(3) 0.08151(19) 0.4778(2)
H13 H 0.8842 0.0304 0.4675
H14 H 0.8499 0.1078 0.4361
P2 P 1.02273(6) 0.09230(5) 0.33722(6)
C15 C 0.9425(3) 0.1587(2) 0.2831(2)
C16 C 0.8657(3) 0.1358(2) 0.2267(3)
H15 H 0.8586 0.0871 0.2125
C17 C 0.7992(3) 0.1849(3) 0.1911(3)
H16 H 0.7470 0.1691 0.1535
C18 C 0.8095(3) 0.2569(3) 0.2108(3)
H17 H 0.7653 0.2900 0.1857
C19 C 0.8851(4) 0.2797(2) 0.2675(3)
H18 H 0.8916 0.3283 0.2821
C20 C 0.9514(3) 0.2314(2) 0.3032(3)
H19 H 1.0029 0.2476 0.3414
C21 C 0.7484(3) 0.0902(2) 0.6066(2)
C22 C 0.6971(3) 0.1349(2) 0.6626(2)
H20 H 0.7271 0.1735 0.6936
C23 C 0.6014(3) 0.1220(3) 0.6723(3)
H21 H 0.5666 0.1524 0.7094
C24 C 0.5574(3) 0.0651(3) 0.6281(3)
H22 H 0.4924 0.0571 0.6341
C25 C 0.6079(4) 0.0201(3) 0.5755(4)
H23 H 0.5779 -0.0196 0.5470
C26 C 0.7037(3) 0.0323(2) 0.5637(3)
H24 H 0.7377 0.0014 0.5267
P3 P 0.93799(8) 0.06447(5) 0.87740(6)
C27 C 0.9891(3) 0.1487(2) 0.9188(2)
C28 C 1.0469(3) 0.1865(2) 0.8617(2)
H25 H 1.0608 0.1669 0.8042
C29 C 1.0843(3) 0.2522(2) 0.8871(3)
H26 H 1.1231 0.2767 0.8470
C30 C 1.0649(3) 0.2816(2) 0.9711(3)
H27 H 1.0885 0.3269 0.9882
C31 C 1.0101(3) 0.2437(3) 1.0301(3)
H28 H 0.9979 0.2628 1.0883
C32 C 0.9734(3) 0.1785(2) 1.0047(3)
H29 H 0.9368 0.1535 1.0462
C33 C 0.8086(3) 0.0750(2) 0.8788(2)
C34 C 0.7625(3) 0.1325(2) 0.9158(3)
H30 H 0.7977 0.1719 0.9386
C35 C 0.6646(3) 0.1324(3) 0.9197(3)
H31 H 0.6340 0.1719 0.9447
C36 C 0.6120(4) 0.0748(3) 0.8869(3)
H32 H 0.5460 0.0744 0.8914
C37 C 0.6561(4) 0.0182(3) 0.8479(3)
H33 H 0.6203 -0.0205 0.8240
C38 C 0.7531(4) 0.0179(3) 0.8434(3)
H34 H 0.7827 -0.0211 0.8162
C39 C 0.9486(3) 0.0063(3) 0.9822(3)
H35 H 0.9141 0.0284 1.0317
H36 H 0.9189 -0.0398 0.9675
S1 S 1.14640(6) 0.08214(5) 0.66705(6)
C40 C 1.2336(3) 0.0423(2) 0.7429(3)
C41 C 1.2280(3) 0.0443(2) 0.8380(3)
H37 H 1.1768 0.0678 0.8633
C42 C 1.2962(3) 0.0123(3) 0.8970(3)
H38 H 1.2900 0.0138 0.9614
C43 C 1.3729(3) -0.0215(3) 0.8622(3)
H39 H 1.4195 -0.0426 0.9023
C44 C 1.3799(4) -0.0239(3) 0.7682(4)
H40 H 1.4315 -0.0472 0.7434
C45 C 1.3117(3) 0.0077(3) 0.7093(3)
H41 H 1.3182 0.0057 0.6450
C39B C 1.0514(3) -0.0063(3) 1.0178(3)
P3B P 1.06201(8) -0.06447(5) 1.12260(6)
C27B C 1.0109(3) -0.1487(2) 1.0812(2)
C28B C 0.9531(3) -0.1865(2) 1.1383(2)
H25B H 0.9392 -0.1669 1.1958
C29B C 0.9157(3) -0.2522(2) 1.1129(3)
H26B H 0.8769 -0.2767 1.1530
C30B C 0.9351(3) -0.2816(2) 1.0289(3)
H27B H 0.9115 -0.3269 1.0118
C31B C 0.9899(3) -0.2437(3) 0.9699(3)
H28B H 1.0021 -0.2628 0.9117
C32B C 1.0266(3) -0.1785(2) 0.9953(3)
H29B H 1.0632 -0.1535 0.9538
C33B C 1.1914(3) -0.0750(2) 1.1212(2)
C34B C 1.2375(3) -0.1325(2) 1.0842(3)
H30B H 1.2023 -0.1719 1.0614
C35B C 1.3354(3) -0.1324(3) 1.0803(3)
H31B H 1.3660 -0.1719 1.0553
C36B C 1.3880(4) -0.0748(3) 1.1131(3)
H32B H 1.4540 -0.0744 1.1086
C37B C 1.3439(4) -0.0182(3) 1.1521(3)
H33B H 1.3797 0.0205 1.1760
C38B C 1.2469(4) -0.0179(3) 1.1566(3)
H34B H 1.2173 0.0211 1.1838
H35B H 1.0859 -0.0284 0.9683
H36B H 1.0811 0.0398 1.0325
P1B P 1.12498(6) -0.10422(5) 0.40125(5)
C1B C 1.1136(3) -0.2009(2) 0.4128(2)
C2B C 1.1771(3) -0.2398(2) 0.4711(2)
H1B H 1.2316 -0.2174 0.4974
C3B C 1.1605(3) -0.3109(2) 0.4903(3)
H2B H 1.2032 -0.3364 0.5300
C4B C 1.0805(3) -0.3444(2) 0.4509(3)
H3B H 1.0694 -0.3928 0.4636
C5B C 1.0173(3) -0.3070(2) 0.3930(3)
H4B H 0.9630 -0.3297 0.3666
C6B C 1.0343(3) -0.2356(2) 0.3739(3)
H5B H 0.9914 -0.2104 0.3340
C7B C 0.8613(3) -0.13450(19) 0.6617(2)
C8B C 0.8249(3) -0.1543(2) 0.7450(3)
H6B H 0.8630 -0.1501 0.8002
C9B C 0.7339(4) -0.1800(3) 0.7484(3)
H7B H 0.7108 -0.1933 0.8057
C10B C 0.6760(3) -0.1863(3) 0.6680(4)
H8B H 0.6135 -0.2027 0.6705
C11B C 0.7113(3) -0.1685(3) 0.5854(3)
H9B H 0.6733 -0.1740 0.5304
C12B C 0.8020(3) -0.1426(2) 0.5816(3)
H10B H 0.8245 -0.1300 0.5239
C13B C 1.0044(3) -0.1013(2) 0.5418(2)
H11B H 0.9929 -0.1507 0.5225
H12B H 0.9611 -0.0708 0.5041
C14B C 1.1056(3) -0.08151(19) 0.5222(2)
H13B H 1.1158 -0.0304 0.5325
H14B H 1.1501 -0.1078 0.5639
P2B P 0.97727(6) -0.09230(5) 0.66278(6)
C15B C 1.0575(3) -0.1587(2) 0.7169(2)
C16B C 1.1343(3) -0.1358(2) 0.7733(3)
H15B H 1.1414 -0.0871 0.7875
C17B C 1.2008(3) -0.1849(3) 0.8089(3)
H16B H 1.2530 -0.1691 0.8465
C18B C 1.1905(3) -0.2569(3) 0.7892(3)
H17B H 1.2347 -0.2900 0.8143
C19B C 1.1149(4) -0.2797(2) 0.7325(3)
H18B H 1.1084 -0.3283 0.7179
C20B C 1.0486(3) -0.2314(2) 0.6968(3)
H19B H 0.9971 -0.2476 0.6586
C21B C 1.2516(3) -0.0902(2) 0.3934(2)
C22B C 1.3029(3) -0.1349(2) 0.3374(2)
H20B H 1.2729 -0.1735 0.3064
C23B C 1.3986(3) -0.1220(3) 0.3277(3)
H21B H 1.4334 -0.1524 0.2906
C24B C 1.4426(3) -0.0651(3) 0.3719(3)
H22B H 1.5076 -0.0571 0.3659
C25B C 1.3921(4) -0.0201(3) 0.4245(4)
H23B H 1.4221 0.0196 0.4530
C26B C 1.2963(3) -0.0323(2) 0.4363(3)
H24B H 1.2623 -0.0014 0.4733
Ag1B Ag 1.015202(19) -0.035543(15) 0.284101(17)
S1B S 0.85360(6) -0.08214(5) 0.33295(6)
C40B C 0.7664(3) -0.0423(2) 0.2571(3)
C41B C 0.7720(3) -0.0443(2) 0.1620(3)
H37B H 0.8232 -0.0678 0.1367
C42B C 0.7038(3) -0.0123(3) 0.1030(3)
H38B H 0.7100 -0.0138 0.0386
C43B C 0.6271(3) 0.0215(3) 0.1378(3)
H39B H 0.5805 0.0426 0.0977
C44B C 0.6201(4) 0.0239(3) 0.2318(4)
H40B H 0.5685 0.0472 0.2566
C45B C 0.6883(3) -0.0077(3) 0.2907(3)
H41B H 0.6818 -0.0057 0.3550
Ag1B_2 Ag 1.015202(19) -0.035543(15) 1.284101(17)
P3B_2 P 1.06201(8) -0.06447(5) 0.12260(6)
loop_
_geom_bond_atom_site_label_1
_geom_bond_atom_site_label_2
_geom_bond_site_symmetry_1
_geom_bond_site_symmetry_2
Ag1 P1 1_555 1_555
P1 C1 1_555 1_555
C1 C2 1_555 1_555
C2 H1 1_555 1_555
C3 C2 1_555 1_555
H2 C3 1_555 1_555
C4 C3 1_555 1_555
H3 C4 1_555 1_555
C5 C4 1_555 1_555
H4 C5 1_555 1_555
C6 C1 1_555 1_555
H5 C6 1_555 1_555
C7 C8 1_555 1_555
C8 H6 1_555 1_555
C9 C8 1_555 1_555
H7 C9 1_555 1_555
C10 C9 1_555 1_555
H8 C10 1_555 1_555
C11 C10 1_555 1_555
H9 C11 1_555 1_555
C12 C7 1_555 1_555
H10 C12 1_555 1_555
C13 H11 1_555 1_555
H12 C13 1_555 1_555
C14 P1 1_555 1_555
H13 C14 1_555 1_555
H14 C14 1_555 1_555
P2 C7 1_555 1_555
C15 P2 1_555 1_555
C16 C15 1_555 1_555
H15 C16 1_555 1_555
C17 C16 1_555 1_555
H16 C17 1_555 1_555
C18 C17 1_555 1_555
H17 C18 1_555 1_555
C19 C18 1_555 1_555
H18 C19 1_555 1_555
C20 C15 1_555 1_555
H19 C20 1_555 1_555
C21 P1 1_555 1_555
C22 C21 1_555 1_555
H20 C22 1_555 1_555
C23 C22 1_555 1_555
H21 C23 1_555 1_555
C24 C23 1_555 1_555
H22 C24 1_555 1_555
C25 C24 1_555 1_555
H23 C25 1_555 1_555
C26 C21 1_555 1_555
H24 C26 1_555 1_555
P3 Ag1 1_555 1_555
C27 P3 1_555 1_555
C28 C27 1_555 1_555
H25 C28 1_555 1_555
C29 C28 1_555 1_555
H26 C29 1_555 1_555
C30 C29 1_555 1_555
H27 C30 1_555 1_555
C31 C30 1_555 1_555
H28 C31 1_555 1_555
C32 C27 1_555 1_555
H29 C32 1_555 1_555
C33 P3 1_555 1_555
C34 C33 1_555 1_555
H30 C34 1_555 1_555
C35 C34 1_555 1_555
H31 C35 1_555 1_555
C36 C35 1_555 1_555
H32 C36 1_555 1_555
C37 C36 1_555 1_555
H33 C37 1_555 1_555
C38 C33 1_555 1_555
H34 C38 1_555 1_555
C39 P3 1_555 1_555
H35 C39 1_555 1_555
H36 C39 1_555 1_555
S1 Ag1 1_555 1_555
C40 S1 1_555 1_555
C41 C40 1_555 1_555
H37 C41 1_555 1_555
C42 C41 1_555 1_555
H38 C42 1_555 1_555
C43 C42 1_555 1_555
H39 C43 1_555 1_555
C44 C43 1_555 1_555
H40 C44 1_555 1_555
C45 C40 1_555 1_555
H41 C45 1_555 1_555
C39B C39 1_555 1_555
P3B C39B 1_555 1_555
C27B P3B 1_555 1_555
C28B C27B 1_555 1_555
H25B C28B 1_555 1_555
C29B C28B 1_555 1_555
H26B C29B 1_555 1_555
C30B C29B 1_555 1_555
H27B C30B 1_555 1_555
C31B C30B 1_555 1_555
H28B C31B 1_555 1_555
C32B C27B 1_555 1_555
H29B C32B 1_555 1_555
C33B P3B 1_555 1_555
C34B C33B 1_555 1_555
H30B C34B 1_555 1_555
C35B C34B 1_555 1_555
H31B C35B 1_555 1_555
C36B C35B 1_555 1_555
H32B C36B 1_555 1_555
C37B C36B 1_555 1_555
H33B C37B 1_555 1_555
C38B C33B 1_555 1_555
H34B C38B 1_555 1_555
H35B C39B 1_555 1_555
H36B C39B 1_555 1_555
P1B C1B 1_555 1_555
C1B C2B 1_555 1_555
C2B H1B 1_555 1_555
C3B C2B 1_555 1_555
H2B C3B 1_555 1_555
C4B C3B 1_555 1_555
H3B C4B 1_555 1_555
C5B C4B 1_555 1_555
H4B C5B 1_555 1_555
C6B C1B 1_555 1_555
H5B C6B 1_555 1_555
C7B C8B 1_555 1_555
C8B H6B 1_555 1_555
C9B C8B 1_555 1_555
H7B C9B 1_555 1_555
C10B C9B 1_555 1_555
H8B C10B 1_555 1_555
C11B C10B 1_555 1_555
H9B C11B 1_555 1_555
C12B C7B 1_555 1_555
H10B C12B 1_555 1_555
C13B H11B 1_555 1_555
H12B C13B 1_555 1_555
C14B P1B 1_555 1_555
H13B C14B 1_555 1_555
H14B C14B 1_555 1_555
P2B Ag1 1_555 1_555
C15B P2B 1_555 1_555
C16B C15B 1_555 1_555
H15B C16B 1_555 1_555
C17B C16B 1_555 1_555
H16B C17B 1_555 1_555
C18B C17B 1_555 1_555
H17B C18B 1_555 1_555
C19B C18B 1_555 1_555
H18B C19B 1_555 1_555
C20B C15B 1_555 1_555
H19B C20B 1_555 1_555
C21B P1B 1_555 1_555
C22B C21B 1_555 1_555
H20B C22B 1_555 1_555
C23B C22B 1_555 1_555
H21B C23B 1_555 1_555
C24B C23B 1_555 1_555
H22B C24B 1_555 1_555
C25B C24B 1_555 1_555
H23B C25B 1_555 1_555
C26B C21B 1_555 1_555
H24B C26B 1_555 1_555
Ag1B P2 1_555 1_555
S1B Ag1B 1_555 1_555
C40B S1B 1_555 1_555
C41B C40B 1_555 1_555
H37B C41B 1_555 1_555
C42B C41B 1_555 1_555
H38B C42B 1_555 1_555
C43B C42B 1_555 1_555
H39B C43B 1_555 1_555
C44B C43B 1_555 1_555
H40B C44B 1_555 1_555
C45B C40B 1_555 1_555
H41B C45B 1_555 1_555
Ag1B_2 P3B 1_555 1_555
P3B_2 Ag1B 1_555 1_555
C5 C6 1_555 1_555
C11 C12 1_555 1_555
C13 C14 1_555 1_555
C13 P2 1_555 1_555
C19 C20 1_555 1_555
C25 C26 1_555 1_555
C31 C32 1_555 1_555
C37 C38 1_555 1_555
C44 C45 1_555 1_555
C31B C32B 1_555 1_555
C37B C38B 1_555 1_555
P1B Ag1B 1_555 1_555
C5B C6B 1_555 1_555
C7B P2B 1_555 1_555
C11B C12B 1_555 1_555
C13B C14B 1_555 1_555
C13B P2B 1_555 1_555
C19B C20B 1_555 1_555
C25B C26B 1_555 1_555
C44B C45B 1_555 1_555

#END
