
#######################################################################
#
#                 Cambridge Crystallographic Data Centre
#                                CCDC 
#
#######################################################################
#
# If this CIF has been generated from an entry in the Cambridge 
# Structural Database, then it will include bibliographic, chemical, 
# crystal, experimental, refinement or atomic coordinate data resulting 
# from the CCDC's data processing and validation procedures.
#
#######################################################################

data_IFUTEI
_symmetry_cell_setting           monoclinic
_symmetry_space_group_name_H-M   'P 21/n'
_symmetry_Int_Tables_number      14
_space_group_name_Hall           '-P 2yn'
loop_
_symmetry_equiv_pos_site_id
_symmetry_equiv_pos_as_xyz
1 x,y,z
2 1/2+x,1/2-y,1/2+z
3 -x,-y,-z
4 1/2-x,1/2+y,1/2-z
_cell_length_a                   14.568(3)
_cell_length_b                   18.902(4)
_cell_length_c                   19.161(4)
_cell_angle_alpha                90.00
_cell_angle_beta                 99.11(3)
_cell_angle_gamma                90.00
_cell_volume                     5209.7
loop_
_atom_site_label
_atom_site_type_symbol
_atom_site_fract_x
_atom_site_fract_y
_atom_site_fract_z
Ag1 Ag 0.62850(3) 0.40353(2) 0.24257(3)
Ag2 Ag 0.76815(3) 0.27754(2) 0.23160(2)
S1 S 0.61864(10) 0.30524(7) 0.14831(8)
S2 S 0.67817(9) 0.29378(7) 0.33172(7)
P1 P 0.57067(9) 0.75893(6) 0.27445(8)
P2 P 0.71529(9) 0.51611(6) 0.23997(7)
P3 P 0.47489(9) 0.45822(6) 0.25793(7)
C1 C 0.5444(4) 0.7678(3) 0.3641(3)
C2 C 0.4566(5) 0.7551(4) 0.3815(4)
H1 H 0.4069 0.7412 0.3467
C3 C 0.4439(6) 0.7635(4) 0.4529(5)
H2 H 0.3853 0.7543 0.4656
C4 C 0.5143(8) 0.7844(4) 0.5025(5)
H3 H 0.5038 0.7909 0.5493
C5 C 0.5997(8) 0.7964(5) 0.4864(5)
H4 H 0.6489 0.8095 0.5219
C6 C 0.6145(6) 0.7889(4) 0.4159(4)
H5 H 0.6736 0.7986 0.4043
C7 C 0.4952(4) 0.8248(3) 0.2228(3)
C8 C 0.3999(5) 0.8193(3) 0.2089(4)
H6 H 0.3709 0.7799 0.2261
C9 C 0.3452(5) 0.8706(3) 0.1699(4)
H7 H 0.2804 0.8651 0.1594
C10 C 0.3870(5) 0.9291(3) 0.1473(4)
H8 H 0.3510 0.9647 0.1219
C11 C 0.4808(5) 0.9355(4) 0.1615(5)
H9 H 0.5091 0.9759 0.1458
C12 C 0.5365(5) 0.8837(3) 0.1989(4)
H10 H 0.6014 0.8889 0.2076
C13 C 0.5119(4) 0.6774(2) 0.2400(3)
H11 H 0.4498 0.6782 0.2535
H12 H 0.5030 0.6807 0.1883
C14 C 0.5537(3) 0.6034(2) 0.2600(3)
C15 C 0.5807(4) 0.5968(3) 0.3405(3)
H13 H 0.5272 0.6076 0.3630
H14 H 0.6306 0.6297 0.3569
H15 H 0.6013 0.5489 0.3525
C16 C 0.6403(4) 0.5947(2) 0.2228(3)
H16 H 0.6798 0.6364 0.2349
H17 H 0.6186 0.5967 0.1718
C17 C 0.4750(4) 0.5519(3) 0.2303(3)
H18 H 0.4714 0.5520 0.1787
H19 H 0.4169 0.5728 0.2403
C18 C 0.7895(4) 0.5368(3) 0.3239(3)
C19 C 0.8406(4) 0.5983(3) 0.3348(3)
H20 H 0.8391 0.6310 0.2976
C20 C 0.8936(5) 0.6124(3) 0.3990(4)
H21 H 0.9254 0.6557 0.4062
C21 C 0.9007(5) 0.5631(4) 0.4536(4)
H22 H 0.9396 0.5719 0.4967
C22 C 0.8501(5) 0.5016(3) 0.4437(4)
H23 H 0.8526 0.4686 0.4807
C23 C 0.7948(4) 0.4880(3) 0.3785(3)
H24 H 0.7610 0.4455 0.3716
C24 C 0.7935(4) 0.5291(3) 0.1750(3)
C25 C 0.8112(5) 0.5946(3) 0.1470(4)
H25 H 0.7814 0.6351 0.1610
C26 C 0.8723(6) 0.6007(4) 0.0988(4)
H26 H 0.8814 0.6448 0.0783
C27 C 0.9191(5) 0.5429(4) 0.0810(4)
H27 H 0.9637 0.5478 0.0508
C28 C 0.9016(6) 0.4775(4) 0.1072(5)
H28 H 0.9322 0.4373 0.0934
C29 C 0.8388(5) 0.4707(3) 0.1540(4)
H29 H 0.8268 0.4258 0.1715
C30 C 0.7571(4) 0.2976(3) 0.4116(3)
C31 C 0.7313(6) 0.3288(3) 0.4712(3)
H30 H 0.6734 0.3517 0.4674
C32 C 0.7881(8) 0.3272(4) 0.5353(4)
H31 H 0.7676 0.3471 0.5751
C33 C 0.8749(7) 0.2967(5) 0.5423(5)
H32 H 0.9141 0.2961 0.5863
C34 C 0.9027(6) 0.2675(5) 0.4845(5)
H33 H 0.9618 0.2464 0.4887
C35 C 0.8460(5) 0.2680(4) 0.4199(4)
H34 H 0.8675 0.2481 0.3805
C36 C 0.4357(4) 0.4587(3) 0.3440(3)
C37 C 0.3785(4) 0.5112(3) 0.3658(3)
H35 H 0.3598 0.5500 0.3361
C38 C 0.3494(5) 0.5059(3) 0.4310(3)
H36 H 0.3123 0.5418 0.4459
C39 C 0.3739(6) 0.4495(4) 0.4735(4)
H37 H 0.3508 0.4452 0.5164
C40 C 0.4323(7) 0.3989(4) 0.4544(4)
H38 H 0.4524 0.3615 0.4854
C41 C 0.4616(5) 0.4027(3) 0.3893(4)
H39 H 0.4996 0.3667 0.3757
C42 C 0.3704(4) 0.4308(3) 0.1973(3)
C43 C 0.3815(6) 0.3960(4) 0.1356(4)
H40 H 0.4411 0.3830 0.1274
C44 C 0.3052(8) 0.3807(5) 0.0867(5)
H41 H 0.3138 0.3581 0.0445
C45 C 0.2141(7) 0.3975(4) 0.0972(5)
H42 H 0.1618 0.3854 0.0639
C46 C 0.2061(6) 0.4323(6) 0.1582(5)
H43 H 0.1468 0.4459 0.1667
C47 C 0.2817(5) 0.4478(5) 0.2071(5)
H44 H 0.2729 0.4709 0.2490
C48 C 0.6375(5) 0.3383(4) 0.0657(4)
C49 C 0.6528(7) 0.2916(6) 0.0128(4)
H45 H 0.6544 0.2427 0.0215
C50 C 0.6656(9) 0.3172(11) -0.0530(5)
H46 H 0.6747 0.2854 -0.0891
C51 C 0.6649(11) 0.3881(14) -0.0652(8)
H47 H 0.6744 0.4052 -0.1096
C52 C 0.6506(12) 0.4349(9) -0.0135(8)
H48 H 0.6513 0.4838 -0.0220
C53 C 0.6352(8) 0.4097(5) 0.0513(6)
H49 H 0.6229 0.4418 0.0861
P1C P 0.92933(9) 0.25893(6) 0.22555(8)
Ag2C Ag 0.73185(3) 0.77754(2) 0.26840(2)
N1 N 0.1255(4) 0.6772(3) 0.2507(3)
O1 O 0.2823(5) 0.6633(3) 0.2711(4)
C54 C 0.2100(8) 0.7018(6) 0.2655(6)
H50 H 0.2179 0.7508 0.2724
C55 C 0.0436(10) 0.7199(6) 0.2421(7)
H51 H 0.0594 0.7681 0.2314
H52 H 0.0170 0.7191 0.2854
H53 H -0.0012 0.7013 0.2036
C56 C 0.1102(19) 0.6032(11) 0.2541(13)
H54 H 0.1547 0.5829 0.2917
H55 H 0.1177 0.5817 0.2094
H56 H 0.0476 0.5946 0.2635
loop_
_geom_bond_atom_site_label_1
_geom_bond_atom_site_label_2
_geom_bond_site_symmetry_1
_geom_bond_site_symmetry_2
Ag1 S1 1_555 1_555
Ag2 S1 1_555 1_555
S1 C48 1_555 1_555
S2 Ag1 1_555 1_555
P1 C1 1_555 1_555
P2 Ag1 1_555 1_555
P3 Ag1 1_555 1_555
C1 C2 1_555 1_555
C2 H1 1_555 1_555
C3 C2 1_555 1_555
H2 C3 1_555 1_555
C4 C3 1_555 1_555
H3 C4 1_555 1_555
C5 C4 1_555 1_555
H4 C5 1_555 1_555
C6 C1 1_555 1_555
H5 C6 1_555 1_555
C7 P1 1_555 1_555
C8 C7 1_555 1_555
H6 C8 1_555 1_555
C9 C8 1_555 1_555
H7 C9 1_555 1_555
C10 C9 1_555 1_555
H8 C10 1_555 1_555
C11 C10 1_555 1_555
H9 C11 1_555 1_555
C12 C7 1_555 1_555
H10 C12 1_555 1_555
C13 P1 1_555 1_555
H11 C13 1_555 1_555
H12 C13 1_555 1_555
C14 C13 1_555 1_555
C15 C14 1_555 1_555
H13 C15 1_555 1_555
H14 C15 1_555 1_555
H15 C15 1_555 1_555
C16 P2 1_555 1_555
H16 C16 1_555 1_555
H17 C16 1_555 1_555
C17 P3 1_555 1_555
H18 C17 1_555 1_555
H19 C17 1_555 1_555
C18 P2 1_555 1_555
C19 C18 1_555 1_555
H20 C19 1_555 1_555
C20 C19 1_555 1_555
H21 C20 1_555 1_555
C21 C20 1_555 1_555
H22 C21 1_555 1_555
C22 C21 1_555 1_555
H23 C22 1_555 1_555
C23 C18 1_555 1_555
H24 C23 1_555 1_555
C24 P2 1_555 1_555
C25 C24 1_555 1_555
H25 C25 1_555 1_555
C26 C25 1_555 1_555
H26 C26 1_555 1_555
C27 C26 1_555 1_555
H27 C27 1_555 1_555
C28 C27 1_555 1_555
H28 C28 1_555 1_555
C29 C24 1_555 1_555
H29 C29 1_555 1_555
C30 S2 1_555 1_555
C31 C30 1_555 1_555
H30 C31 1_555 1_555
C32 C31 1_555 1_555
H31 C32 1_555 1_555
C33 C32 1_555 1_555
H32 C33 1_555 1_555
C34 C33 1_555 1_555
H33 C34 1_555 1_555
C35 C30 1_555 1_555
H34 C35 1_555 1_555
C36 P3 1_555 1_555
C37 C36 1_555 1_555
H35 C37 1_555 1_555
C38 C37 1_555 1_555
H36 C38 1_555 1_555
C39 C38 1_555 1_555
H37 C39 1_555 1_555
C40 C39 1_555 1_555
H38 C40 1_555 1_555
C41 C36 1_555 1_555
H39 C41 1_555 1_555
C42 P3 1_555 1_555
C43 C42 1_555 1_555
H40 C43 1_555 1_555
C44 C43 1_555 1_555
H41 C44 1_555 1_555
C45 C44 1_555 1_555
H42 C45 1_555 1_555
C46 C45 1_555 1_555
H43 C46 1_555 1_555
C47 C42 1_555 1_555
H44 C47 1_555 1_555
C48 C49 1_555 1_555
C49 H45 1_555 1_555
C50 C49 1_555 1_555
H46 C50 1_555 1_555
C51 C50 1_555 1_555
H47 C51 1_555 1_555
C52 C51 1_555 1_555
H48 C52 1_555 1_555
C53 C48 1_555 1_555
H49 C53 1_555 1_555
N1 C54 1_555 1_555
O1 C54 1_555 1_555
C54 H50 1_555 1_555
C55 N1 1_555 1_555
H51 C55 1_555 1_555
H52 C55 1_555 1_555
H53 C55 1_555 1_555
C56 N1 1_555 1_555
H54 C56 1_555 1_555
H55 C56 1_555 1_555
H56 C56 1_555 1_555
P1C Ag2 1_555 1_555
Ag2C P1 1_555 1_555
Ag2 S2 1_555 1_555
C5 C6 1_555 1_555
C11 C12 1_555 1_555
C14 C16 1_555 1_555
C14 C17 1_555 1_555
C22 C23 1_555 1_555
C28 C29 1_555 1_555
C34 C35 1_555 1_555
C40 C41 1_555 1_555
C46 C47 1_555 1_555
C52 C53 1_555 1_555

#END
