
#######################################################################
#
#                 Cambridge Crystallographic Data Centre
#                                CCDC 
#
#######################################################################
#
# If this CIF has been generated from an entry in the Cambridge 
# Structural Database, then it will include bibliographic, chemical, 
# crystal, experimental, refinement or atomic coordinate data resulting 
# from the CCDC's data processing and validation procedures.
#
#######################################################################

data_IFUXAI
_symmetry_cell_setting           monoclinic
_symmetry_space_group_name_H-M   'P 21/c'
_symmetry_Int_Tables_number      14
_space_group_name_Hall           '-P 2ybc'
loop_
_symmetry_equiv_pos_site_id
_symmetry_equiv_pos_as_xyz
1 x,y,z
2 x,1/2-y,1/2+z
3 -x,-y,-z
4 -x,1/2+y,1/2-z
_cell_length_a                   10.674(3)
_cell_length_b                   23.490(6)
_cell_length_c                   8.452(2)
_cell_angle_alpha                90
_cell_angle_beta                 91.790(5)
_cell_angle_gamma                90
_cell_volume                     2118.15
loop_
_atom_site_label
_atom_site_type_symbol
_atom_site_fract_x
_atom_site_fract_y
_atom_site_fract_z
Ag1 Ag 0.31669(7) 0.19286(3) 0.91273(11)
S1 S 0.5435(2) 0.18291(11) 0.8822(4)
S2 S 1.0912(2) 0.17293(11) 0.8827(4)
C1 C 0.5754(9) 0.1087(4) 0.8694(15)
C2 C 0.5340(10) 0.0764(5) 0.7466(16)
H1 H 0.4862 0.0930 0.6650
C3 C 0.5619(14) 0.0185(7) 0.7405(19)
H2 H 0.5339 -0.0043 0.6568
C4 C 0.6336(17) -0.0030(7) 0.866(3)
H3 H 0.6572 -0.0411 0.8629
C5 C 0.6703(14) 0.0280(8) 0.990(2)
H4 H 0.7126 0.0111 1.0753
C6 C 0.6450(11) 0.0861(6) 0.9912(16)
H5 H 0.6750 0.1090 1.0738
C7 C 0.5731(8) 0.2097(4) 0.6867(12)
H6 H 0.5069 0.1964 0.6148
H7 H 0.5683 0.2509 0.6894
C8 C 0.6970(9) 0.1931(4) 0.6206(13)
C9 C 0.8093(9) 0.2101(4) 0.6946(13)
H8 H 0.8073 0.2310 0.7878
C10 C 0.9226(8) 0.1964(4) 0.6327(14)
C11 C 0.9258(10) 0.1657(4) 0.4944(15)
H9 H 1.0024 0.1562 0.4518
C12 C 0.8157(11) 0.1490(4) 0.4188(15)
H10 H 0.8168 0.1289 0.3241
C13 C 0.7021(10) 0.1630(4) 0.4874(15)
H11 H 0.6276 0.1509 0.4382
C14 C 1.0448(8) 0.2160(4) 0.7124(12)
H12 H 1.0358 0.2552 0.7459
H13 H 1.1107 0.2146 0.6360
C15 C 1.0832(10) 0.1029(4) 0.8030(14)
C16 C 0.9847(11) 0.0681(6) 0.8422(16)
H14 H 0.9240 0.0811 0.9099
C17 C 0.9770(16) 0.0143(7) 0.781(2)
H15 H 0.9123 -0.0097 0.8101
C18 C 1.0620(19) -0.0045(8) 0.678(2)
H16 H 1.0536 -0.0404 0.6324
C19 C 1.1618(16) 0.0300(7) 0.641(2)
H17 H 1.2226 0.0169 0.5736
C20 C 1.1707(11) 0.0838(5) 0.7043(16)
H18 H 1.2375 0.1072 0.6790
Cl1 Cl 0.3072(3) 0.16208(13) 1.3247(4)
O1 O 0.3439(10) 0.2014(5) 1.2133(11)
O2 O 0.1999(7) 0.1334(3) 1.2658(10)
O3 O 0.2853(8) 0.1939(3) 1.4641(10)
O4 O 0.3959(9) 0.1239(4) 1.3607(15)
S2_2 S 0.0912(2) 0.17293(11) 0.8827(4)
Ag1_2 Ag 1.31669(7) 0.19286(3) 0.91273(11)
loop_
_geom_bond_atom_site_label_1
_geom_bond_atom_site_label_2
_geom_bond_site_symmetry_1
_geom_bond_site_symmetry_2
Ag1 S1 1_555 1_555
S1 C1 1_555 1_555
S2 C14 1_555 1_555
C1 C2 1_555 1_555
C2 H1 1_555 1_555
C3 C2 1_555 1_555
H2 C3 1_555 1_555
C4 C3 1_555 1_555
H3 C4 1_555 1_555
C5 C4 1_555 1_555
H4 C5 1_555 1_555
C6 C1 1_555 1_555
H5 C6 1_555 1_555
C7 S1 1_555 1_555
H6 C7 1_555 1_555
H7 C7 1_555 1_555
C8 C7 1_555 1_555
C9 C8 1_555 1_555
H8 C9 1_555 1_555
C10 C9 1_555 1_555
C11 C10 1_555 1_555
H9 C11 1_555 1_555
C12 C11 1_555 1_555
H10 C12 1_555 1_555
C13 C8 1_555 1_555
H11 C13 1_555 1_555
C14 C10 1_555 1_555
H12 C14 1_555 1_555
H13 C14 1_555 1_555
C15 S2 1_555 1_555
C16 C15 1_555 1_555
H14 C16 1_555 1_555
C17 C16 1_555 1_555
H15 C17 1_555 1_555
C18 C17 1_555 1_555
H16 C18 1_555 1_555
C19 C18 1_555 1_555
H17 C19 1_555 1_555
C20 C15 1_555 1_555
H18 C20 1_555 1_555
Cl1 O1 1_555 1_555
O1 Ag1 1_555 1_555
O2 Cl1 1_555 1_555
O3 Cl1 1_555 1_555
O4 Cl1 1_555 1_555
S2_2 Ag1 1_555 1_555
Ag1_2 S2 1_555 1_555
C5 C6 1_555 1_555
C12 C13 1_555 1_555
C19 C20 1_555 1_555

#END
