
#######################################################################
#
#                 Cambridge Crystallographic Data Centre
#                                CCDC 
#
#######################################################################
#
# If this CIF has been generated from an entry in the Cambridge 
# Structural Database, then it will include bibliographic, chemical, 
# crystal, experimental, refinement or atomic coordinate data resulting 
# from the CCDC's data processing and validation procedures.
#
#######################################################################

data_IFUXIQ
_symmetry_cell_setting           triclinic
_symmetry_space_group_name_H-M   'P -1'
_symmetry_Int_Tables_number      2
_space_group_name_Hall           '-P 1'
loop_
_symmetry_equiv_pos_site_id
_symmetry_equiv_pos_as_xyz
1 x,y,z
2 -x,-y,-z
_cell_length_a                   10.514(16)
_cell_length_b                   10.514(16)
_cell_length_c                   15.58(3)
_cell_angle_alpha                70.75(3)
_cell_angle_beta                 70.75(3)
_cell_angle_gamma                62.15(2)
_cell_volume                     1405.45
loop_
_atom_site_label
_atom_site_type_symbol
_atom_site_fract_x
_atom_site_fract_y
_atom_site_fract_z
Ag1 Ag 0.80442(5) 0.21395(5) 0.69667(4)
C1 C 0.6427(8) 0.5839(7) 0.6134(5)
H1 H 0.7471 0.5597 0.5895
H2 H 0.6067 0.5654 0.5708
C2 C 0.5648(7) 0.7444(6) 0.6167(4)
C3 C 0.6425(7) 0.8187(6) 0.6170(4)
H3 H 0.7425 0.7692 0.6171
C4 C 0.5719(7) 0.9673(6) 0.6172(4)
C5 C 0.4220(7) 1.0381(7) 0.6194(4)
H4 H 0.3743 1.1378 0.6205
C6 C 0.3403(6) 0.9634(7) 0.6203(4)
C7 C 0.4147(7) 0.8139(6) 0.6211(4)
H5 H 0.3632 0.7600 0.6246
C8 C 0.1786(7) 1.0426(7) 0.6162(5)
H6 H 0.1453 0.9742 0.6110
H7 H 0.1666 1.1211 0.5612
C9 C 0.6602(7) 1.0482(7) 0.6133(5)
H8 H 0.6118 1.1508 0.5848
H9 H 0.7563 1.0084 0.5737
C10 C 0.6769(8) 0.5265(7) 0.7938(5)
C11 C 0.5757(11) 0.5881(9) 0.8673(7)
H10 H 0.4807 0.5920 0.8833
C12 C 0.6192(15) 0.6449(11) 0.9173(7)
H11 H 0.5536 0.6844 0.9681
C13 C 0.7564(14) 0.6424(10) 0.8917(7)
H12 H 0.7851 0.6806 0.9246
C14 C 0.8511(11) 0.5841(9) 0.8184(7)
H13 H 0.9437 0.5864 0.8004
C15 C 0.8186(8) 0.5228(7) 0.7698(5)
H14 H 0.8885 0.4791 0.7216
C16 C 0.0943(7) 0.9645(8) 0.8107(5)
C17 C 0.0731(10) 0.8469(9) 0.8120(6)
H15 H 0.0409 0.8445 0.7639
C18 C 0.1016(12) 0.7270(11) 0.8893(9)
H16 H 0.0878 0.6445 0.8920
C19 C 0.1484(11) 0.7309(14) 0.9588(8)
H17 H 0.1634 0.6528 1.0100
C20 C 0.1734(17) 0.8469(18) 0.9545(9)
H18 H 0.2111 0.8479 1.0004
C21 C 0.1427(12) 0.9623(11) 0.8821(7)
H19 H 0.1554 1.0447 0.8810
C22 C 0.5026(7) 1.1354(7) 0.7847(5)
C23 C 0.4535(10) 1.0757(10) 0.8762(6)
H20 H 0.5134 0.9840 0.9054
C24 C 0.3116(12) 1.1549(12) 0.9252(7)
H21 H 0.2777 1.1152 0.9865
C25 C 0.2262(11) 1.2878(12) 0.8825(7)
H22 H 0.1348 1.3411 0.9156
C26 C 0.2705(9) 1.3455(10) 0.7922(7)
H23 H 0.2079 1.4346 0.7625
C27 C 0.4110(8) 1.2698(8) 0.7445(5)
H24 H 0.4433 1.3121 0.6835
Cl1 Cl 0.8732(2) 0.3190(2) 0.44482(14)
O1 O 0.854(2) 0.2560(16) 0.5286(7)
O2 O 0.9311(16) 0.4045(17) 0.4417(11)
O3 O 0.7294(17) 0.3863(15) 0.4453(16)
O4 O 0.9439(14) 0.2313(15) 0.3855(8)
S1 S 0.61605(19) 0.46549(18) 0.72637(15)
S2 S 0.06337(17) 1.12081(18) 0.71967(13)
S3 S 0.68451(18) 1.03727(17) 0.72621(13)
S2_2 S 1.06337(17) 0.12081(18) 0.71967(13)
S3_2 S 0.68451(18) 0.03727(17) 0.72621(13)
Ag1_2 Ag -0.19558(5) 1.21395(5) 0.69667(4)
Ag1_3 Ag 0.80442(5) 1.21395(5) 0.69667(4)
loop_
_geom_bond_atom_site_label_1
_geom_bond_atom_site_label_2
_geom_bond_site_symmetry_1
_geom_bond_site_symmetry_2
Ag1 O1 1_555 1_555
C1 H1 1_555 1_555
H2 C1 1_555 1_555
C2 C1 1_555 1_555
C3 C2 1_555 1_555
H3 C3 1_555 1_555
C4 C3 1_555 1_555
C5 C4 1_555 1_555
H4 C5 1_555 1_555
C6 C5 1_555 1_555
C7 C2 1_555 1_555
H5 C7 1_555 1_555
C8 C6 1_555 1_555
H6 C8 1_555 1_555
H7 C8 1_555 1_555
C9 C4 1_555 1_555
H8 C9 1_555 1_555
H9 C9 1_555 1_555
C10 C11 1_555 1_555
C11 H10 1_555 1_555
C12 C11 1_555 1_555
H11 C12 1_555 1_555
C13 C12 1_555 1_555
H12 C13 1_555 1_555
C14 C13 1_555 1_555
H13 C14 1_555 1_555
C15 C10 1_555 1_555
H14 C15 1_555 1_555
C16 C17 1_555 1_555
C17 H15 1_555 1_555
C18 C17 1_555 1_555
H16 C18 1_555 1_555
C19 C18 1_555 1_555
H17 C19 1_555 1_555
C20 C19 1_555 1_555
H18 C20 1_555 1_555
C21 C16 1_555 1_555
H19 C21 1_555 1_555
C22 C23 1_555 1_555
C23 H20 1_555 1_555
C24 C23 1_555 1_555
H21 C24 1_555 1_555
C25 C24 1_555 1_555
H22 C25 1_555 1_555
C26 C25 1_555 1_555
H23 C26 1_555 1_555
C27 C22 1_555 1_555
H24 C27 1_555 1_555
Cl1 O1 1_555 1_555
O2 Cl1 1_555 1_555
O3 Cl1 1_555 1_555
O4 Cl1 1_555 1_555
S1 Ag1 1_555 1_555
S2 C8 1_555 1_555
S3 C9 1_555 1_555
S2_2 Ag1 1_555 1_555
S3_2 Ag1 1_555 1_555
Ag1_2 S2 1_555 1_555
Ag1_3 S3 1_555 1_555
C1 S1 1_555 1_555
C6 C7 1_555 1_555
C10 S1 1_555 1_555
C14 C15 1_555 1_555
C16 S2 1_555 1_555
C20 C21 1_555 1_555
C22 S3 1_555 1_555
C26 C27 1_555 1_555

#END
