
#######################################################################
#
#                 Cambridge Crystallographic Data Centre
#                                CCDC 
#
#######################################################################
#
# If this CIF has been generated from an entry in the Cambridge 
# Structural Database, then it will include bibliographic, chemical, 
# crystal, experimental, refinement or atomic coordinate data resulting 
# from the CCDC's data processing and validation procedures.
#
#######################################################################

data_IFUXEM
_symmetry_cell_setting           monoclinic
_symmetry_space_group_name_H-M   'P n'
_symmetry_Int_Tables_number      7
_space_group_name_Hall           'P -2yac'
loop_
_symmetry_equiv_pos_site_id
_symmetry_equiv_pos_as_xyz
1 x,y,z
2 1/2+x,-y,1/2+z
_cell_length_a                   9.2013(14)
_cell_length_b                   10.1824(17)
_cell_length_c                   19.267(3)
_cell_angle_alpha                90
_cell_angle_beta                 103.533(3)
_cell_angle_gamma                90
_cell_volume                     1755.03
loop_
_atom_site_label
_atom_site_type_symbol
_atom_site_fract_x
_atom_site_fract_y
_atom_site_fract_z
Ag1 Ag 0.456774(18) 0.18971(3) 1.026113(14)
S1 S 0.41964(11) 0.19297(9) 1.15959(6)
S2 S -0.34459(11) 0.00512(10) 1.03846(6)
S3 S 0.18984(12) 0.16133(10) 0.94166(6)
S4 S 0.52301(13) -0.56520(10) 1.01629(6)
C1 C 0.2945(5) 0.3277(4) 1.1697(3)
H1 H 0.2850 0.3314 1.2187
H2 H 0.3364 0.4104 1.1586
C2 C 0.1405(5) 0.3079(4) 1.1199(3)
H3 H 0.0759 0.3795 1.1268
H4 H 0.1503 0.3116 1.0709
C3 C 0.0677(5) 0.1797(4) 1.1314(3)
H5 H 0.0647 0.1722 1.1812
H6 H 0.1272 0.1075 1.1202
C4 C -0.0918(5) 0.1692(4) 1.0848(3)
H7 H -0.1526 0.2395 1.0969
H8 H -0.0896 0.1789 1.0350
C5 C -0.1604(5) 0.0377(4) 1.0958(2)
H9 H -0.1679 0.0322 1.1452
H10 H -0.0929 -0.0312 1.0883
C6 C 0.1474(5) -0.0148(4) 0.9405(3)
H11 H 0.0917 -0.0325 0.9765
H12 H 0.0834 -0.0369 0.8945
C7 C 0.2803(5) -0.1015(4) 0.9538(3)
H13 H 0.3389 -0.0859 1.0019
H14 H 0.3416 -0.0775 0.9211
C8 C 0.2445(4) -0.2478(4) 0.9453(2)
H15 H 0.1707 -0.2705 0.9720
H16 H 0.2027 -0.2677 0.8954
C9 C 0.3842(5) -0.3282(4) 0.9722(3)
H17 H 0.4292 -0.3025 1.0209
H18 H 0.4551 -0.3080 0.9435
C10 C 0.3574(5) -0.4748(4) 0.9701(3)
H19 H 0.3289 -0.5036 0.9208
H20 H 0.2754 -0.4943 0.9922
C11 C 0.5983(4) 0.2467(4) 1.2083(2)
C12 C 0.6482(5) 0.3748(5) 1.2098(3)
H21 H 0.5842 0.4409 1.1877
C13 C 0.7950(6) 0.4046(5) 1.2447(3)
H22 H 0.8284 0.4909 1.2460
C14 C 0.8895(6) 0.3089(5) 1.2767(3)
H23 H 0.9877 0.3299 1.2990
C15 C 0.8419(6) 0.1815(4) 1.2766(3)
H24 H 0.9078 0.1168 1.2990
C16 C 0.6962(5) 0.1485(5) 1.2434(3)
H25 H 0.6633 0.0623 1.2442
C17 C -0.2983(4) -0.0152(4) 0.9543(2)
C18 C -0.2972(4) 0.0904(4) 0.9089(2)
H26 H -0.3180 0.1745 0.9228
C19 C -0.2653(5) 0.0707(5) 0.8434(3)
H27 H -0.2660 0.1413 0.8127
C20 C -0.2322(5) -0.0541(6) 0.8232(3)
H28 H -0.2118 -0.0674 0.7787
C21 C -0.2293(6) -0.1593(6) 0.8690(4)
H29 H -0.2041 -0.2423 0.8554
C22 C -0.2637(5) -0.1425(4) 0.9353(3)
H30 H -0.2637 -0.2133 0.9658
C23 C 0.2004(5) 0.1893(3) 0.8516(3)
C24 C 0.3343(6) 0.1767(4) 0.8310(3)
H31 H 0.4210 0.1534 0.8643
C25 C 0.3387(7) 0.1989(5) 0.7602(3)
H32 H 0.4287 0.1906 0.7465
C26 C 0.2147(8) 0.2321(5) 0.7114(3)
H33 H 0.2189 0.2471 0.6643
C27 C 0.0808(7) 0.2440(6) 0.7314(3)
H34 H -0.0055 0.2659 0.6974
C28 C 0.0737(6) 0.2238(5) 0.8011(3)
H35 H -0.0168 0.2334 0.8142
C29 C 0.6523(5) -0.5407(4) 0.9620(3)
C30 C 0.7952(5) -0.5032(5) 0.9964(3)
H36 H 0.8167 -0.4867 1.0452
C31 C 0.9048(7) -0.4899(6) 0.9607(5)
H37 H 1.0005 -0.4651 0.9850
C32 C 0.8750(8) -0.5129(6) 0.8894(6)
H38 H 0.9513 -0.5053 0.8654
C33 C 0.7312(9) -0.5479(5) 0.8513(4)
H39 H 0.7113 -0.5614 0.8022
C34 C 0.6153(6) -0.5625(4) 0.8889(3)
H40 H 0.5186 -0.5858 0.8652
S2_2 S 0.65541(11) 0.00512(10) 1.03846(6)
S4_2 S 0.52301(13) 0.43480(10) 1.01629(6)
Ag1_2 Ag -0.543226(18) 0.18971(3) 1.026113(14)
Ag1_3 Ag 0.456774(18) -0.81029(3) 1.026113(14)
Cl1 Cl 0.13323(18) 0.71459(14) 0.13644(7)
O1 O 0.2296(6) 0.6335(5) 0.1105(3)
O2 O 0.0163(11) 0.7520(11) 0.0840(5)
O3 O 0.0557(19) 0.6315(13) 0.1725(9)
O4 O 0.1852(11) 0.8015(13) 0.1838(8)
loop_
_geom_bond_atom_site_label_1
_geom_bond_atom_site_label_2
_geom_bond_site_symmetry_1
_geom_bond_site_symmetry_2
Ag1 S1 1_555 1_555
S1 C1 1_555 1_555
S2 C5 1_555 1_555
S3 Ag1 1_555 1_555
S4 C10 1_555 1_555
C1 H1 1_555 1_555
H2 C1 1_555 1_555
C2 C1 1_555 1_555
H3 C2 1_555 1_555
H4 C2 1_555 1_555
C3 C2 1_555 1_555
H5 C3 1_555 1_555
H6 C3 1_555 1_555
C4 C3 1_555 1_555
H7 C4 1_555 1_555
H8 C4 1_555 1_555
C5 C4 1_555 1_555
H9 C5 1_555 1_555
H10 C5 1_555 1_555
C6 S3 1_555 1_555
H11 C6 1_555 1_555
H12 C6 1_555 1_555
C7 C6 1_555 1_555
H13 C7 1_555 1_555
H14 C7 1_555 1_555
C8 C7 1_555 1_555
H15 C8 1_555 1_555
H16 C8 1_555 1_555
C9 C8 1_555 1_555
H17 C9 1_555 1_555
H18 C9 1_555 1_555
C10 C9 1_555 1_555
H19 C10 1_555 1_555
H20 C10 1_555 1_555
C11 S1 1_555 1_555
C12 C11 1_555 1_555
H21 C12 1_555 1_555
C13 C12 1_555 1_555
H22 C13 1_555 1_555
C14 C13 1_555 1_555
H23 C14 1_555 1_555
C15 C14 1_555 1_555
H24 C15 1_555 1_555
C16 C11 1_555 1_555
H25 C16 1_555 1_555
C17 S2 1_555 1_555
C18 C17 1_555 1_555
H26 C18 1_555 1_555
C19 C18 1_555 1_555
H27 C19 1_555 1_555
C20 C19 1_555 1_555
H28 C20 1_555 1_555
C21 C20 1_555 1_555
H29 C21 1_555 1_555
C22 C17 1_555 1_555
H30 C22 1_555 1_555
C23 S3 1_555 1_555
C24 C23 1_555 1_555
H31 C24 1_555 1_555
C25 C24 1_555 1_555
H32 C25 1_555 1_555
C26 C25 1_555 1_555
H33 C26 1_555 1_555
C27 C26 1_555 1_555
H34 C27 1_555 1_555
C28 C23 1_555 1_555
H35 C28 1_555 1_555
C29 S4 1_555 1_555
C30 C29 1_555 1_555
H36 C30 1_555 1_555
C31 C30 1_555 1_555
H37 C31 1_555 1_555
C32 C31 1_555 1_555
H38 C32 1_555 1_555
C33 C32 1_555 1_555
H39 C33 1_555 1_555
C34 C29 1_555 1_555
H40 C34 1_555 1_555
Cl1 O1 1_555 1_555
O2 Cl1 1_555 1_555
O3 Cl1 1_555 1_555
O4 Cl1 1_555 1_555
S2_2 Ag1 1_555 1_555
S4_2 Ag1 1_555 1_555
Ag1_2 S2 1_555 1_555
Ag1_3 S4 1_555 1_555
C15 C16 1_555 1_555
C21 C22 1_555 1_555
C27 C28 1_555 1_555
C33 C34 1_555 1_555

#END
