
#######################################################################
#
#                 Cambridge Crystallographic Data Centre
#                                CCDC 
#
#######################################################################
#
# If this CIF has been generated from an entry in the Cambridge 
# Structural Database, then it will include bibliographic, chemical, 
# crystal, experimental, refinement or atomic coordinate data resulting 
# from the CCDC's data processing and validation procedures.
#
#######################################################################

data_IGADAX
_symmetry_cell_setting           hexagonal
_symmetry_space_group_name_H-M   'P 61 2 2'
_symmetry_Int_Tables_number      178
_space_group_name_Hall           "P 61 2' (0,0,5)"
loop_
_symmetry_equiv_pos_site_id
_symmetry_equiv_pos_as_xyz
1 x,y,z
2 -y,x-y,1/3+z
3 -x+y,-x,2/3+z
4 -x,-y,1/2+z
5 y,-x+y,5/6+z
6 x-y,x,1/6+z
7 y,x,1/3-z
8 x-y,-y,-z
9 -x,-x+y,2/3-z
10 -y,-x,5/6-z
11 -x+y,y,1/2-z
12 x,x-y,1/6-z
_cell_length_a                   16.0598(6)
_cell_length_b                   16.0598(6)
_cell_length_c                   21.0558(15)
_cell_angle_alpha                90
_cell_angle_beta                 90
_cell_angle_gamma                120
_cell_volume                     4703.08
loop_
_atom_site_label
_atom_site_type_symbol
_atom_site_fract_x
_atom_site_fract_y
_atom_site_fract_z
C1 C 0.2865(7) 0.7895(8) 1.0027(6)
H1 H 0.2556 0.8254 1.0039
C2 C 0.2313(8) 0.6892(9) 1.0031(6)
H2 H 0.1645 0.6586 1.0042
C3 C 0.2766(8) 0.6377(8) 1.0017(5)
H3 H 0.2414 0.5710 1.0049
C4 C 0.3737(7) 0.6833(6) 0.9957(5)
H4 H 0.4062 0.6491 0.9920
C5 C 0.4224(6) 0.7831(6) 0.9952(4)
C6 C 0.5668(7) 0.8873(6) 0.9320(5)
C7 C 0.6133(8) 0.8586(8) 0.8890(5)
H5 H 0.6212 0.8064 0.8985
C8 C 0.6460(10) 0.9046(10) 0.8355(7)
H6 H 0.6785 0.8863 0.8074
C9 C 0.6317(9) 0.9828(12) 0.8205(6)
H7 H 0.6530 1.0160 0.7823
C10 C 0.5857(9) 1.0065(9) 0.8642(6)
H8 H 0.5747 1.0567 0.8545
C11 C 0.5844(6) 0.8266(6) 1.0351(5)
C12 C 0.6852(6) 0.8760(6) 1.0331(5)
H9 H 0.7181 0.9139 0.9983
C13 C 0.7344(10) 0.8672(5) 1.0833
H10 H 0.8012 0.9006 1.0833
Cd1 Cd 0.47069(7) 1.0000 1.0000
N1 N 0.3804(5) 0.8342(5) 1.0008(4)
N2 N 0.5265(6) 0.8358(5) 0.9891(4)
N3 N 0.5541(5) 0.9624(5) 0.9220(4)
N4 N 0.5374(7) 0.7687(4) 1.0833
N5 N 0.3424(10) 0.9734(12) 1.1224(7)
O1 O 0.3670(8) 1.0141(8) 1.0725(6)
O2 O 0.3047(11) 0.9872(12) 1.1660(6)
O3 O 0.3507(10) 0.8970(13) 1.1394(8)
C1K C 0.2865(7) 0.4970(11) 1.1640(6)
H1K H 0.2556 0.4302 1.1628
C2K C 0.2313(8) 0.5421(12) 1.1636(6)
H2K H 0.1645 0.5059 1.1625
C3K C 0.2766(8) 0.6389(11) 1.1650(5)
H3K H 0.2414 0.6704 1.1618
C4K C 0.3737(7) 0.6904(9) 1.1710(5)
H4K H 0.4062 0.7571 1.1747
C5K C 0.4224(6) 0.6393(8) 1.1715(4)
C6K C 0.5668(7) 0.6795(9) 1.2347(5)
C7K C 0.6133(8) 0.7547(11) 1.2777(5)
H5K H 0.6212 0.8148 1.2682
C8K C 0.6460(10) 0.7414(14) 1.3312(7)
H6K H 0.6785 0.7922 1.3593
C9K C 0.6317(9) 0.6489(15) 1.3462(6)
H7K H 0.6530 0.6370 1.3844
C10K C 0.5857(9) 0.5792(13) 1.3025(6)
H8K H 0.5747 0.5180 1.3122
C11K C 0.5844(6) 0.7578(8) 1.1316(5)
C12K C 0.6852(6) 0.8092(8) 1.1336(5)
H9K H 0.7181 0.8042 1.1684
N1K N 0.3804(5) 0.5462(7) 1.1659(4)
N2K N 0.5265(6) 0.6907(8) 1.1776(4)
N3K N 0.5541(5) 0.5917(7) 1.2447(4)
N5G N 0.3690(16) 1.0266(12) 0.8776(7)
O1G O 0.3529(11) 0.9859(8) 0.9275(6)
O2G O 0.3175(16) 1.0128(12) 0.8340(6)
O3G O 0.4537(16) 1.1030(13) 0.8606(8)
Cd1E Cd 0.47069(7) 0.47069(7) 1.1667
N1G N 0.5462(7) 1.1658(5) 0.9992(4)
N3G N 0.5917(7) 1.0376(5) 1.0780(4)
C14 C -0.030(3) 0.0000 1.0000
O4 O 0.059(3) 0.0000 1.0000
loop_
_geom_bond_atom_site_label_1
_geom_bond_atom_site_label_2
_geom_bond_site_symmetry_1
_geom_bond_site_symmetry_2
C1 H1 1_555 1_555
C2 C1 1_555 1_555
H2 C2 1_555 1_555
C3 C2 1_555 1_555
H3 C3 1_555 1_555
C4 C3 1_555 1_555
H4 C4 1_555 1_555
C5 C4 1_555 1_555
C6 C7 1_555 1_555
C7 H5 1_555 1_555
C8 C7 1_555 1_555
H6 C8 1_555 1_555
C9 C8 1_555 1_555
H7 C9 1_555 1_555
C10 C9 1_555 1_555
H8 C10 1_555 1_555
C11 C12 1_555 1_555
C12 H9 1_555 1_555
C13 C12 1_555 1_555
H10 C13 1_555 1_555
Cd1 N1 1_555 1_555
N1 C1 1_555 1_555
N2 C5 1_555 1_555
N3 C6 1_555 1_555
N4 C11 1_555 1_555
N5 O1 1_555 1_555
O1 Cd1 1_555 1_555
O2 N5 1_555 1_555
O3 N5 1_555 1_555
C14 O4 1_555 1_555
C1K H1K 1_555 1_555
C2K C1K 1_555 1_555
H2K C2K 1_555 1_555
C3K C2K 1_555 1_555
H3K C3K 1_555 1_555
C4K C3K 1_555 1_555
H4K C4K 1_555 1_555
C5K C4K 1_555 1_555
C6K C7K 1_555 1_555
C7K H5K 1_555 1_555
C8K C7K 1_555 1_555
H6K C8K 1_555 1_555
C9K C8K 1_555 1_555
H7K C9K 1_555 1_555
C10K C9K 1_555 1_555
H8K C10K 1_555 1_555
C11K N4 1_555 1_555
C12K C13 1_555 1_555
H9K C12K 1_555 1_555
N1K C1K 1_555 1_555
N2K C5K 1_555 1_555
N3K C6K 1_555 1_555
N5G O1G 1_555 1_555
O1G Cd1 1_555 1_555
O2G N5G 1_555 1_555
O3G N5G 1_555 1_555
Cd1E N1K 1_555 1_555
N1G Cd1 1_555 1_555
N3G Cd1 1_555 1_555
C5 N1 1_555 1_555
C6 N2 1_555 1_555
C10 N3 1_555 1_555
C11 N2 1_555 1_555
Cd1 N3 1_555 1_555
C5K N1K 1_555 1_555
C6K N2K 1_555 1_555
C10K N3K 1_555 1_555
C11K C12K 1_555 1_555
C11K N2K 1_555 1_555
N3K Cd1E 1_555 1_555

#END
