
#######################################################################
#
#                 Cambridge Crystallographic Data Centre
#                                CCDC 
#
#######################################################################
#
# If this CIF has been generated from an entry in the Cambridge 
# Structural Database, then it will include bibliographic, chemical, 
# crystal, experimental, refinement or atomic coordinate data resulting 
# from the CCDC's data processing and validation procedures.
#
#######################################################################

data_IGAHED01
_symmetry_cell_setting           triclinic
_symmetry_space_group_name_H-M   'P -1'
_symmetry_Int_Tables_number      2
_space_group_name_Hall           '-P 1'
loop_
_symmetry_equiv_pos_site_id
_symmetry_equiv_pos_as_xyz
1 x,y,z
2 -x,-y,-z
_cell_length_a                   6.9362(7)
_cell_length_b                   7.4559(6)
_cell_length_c                   8.2797(7)
_cell_angle_alpha                90.342(8)
_cell_angle_beta                 109.848(7)
_cell_angle_gamma                93.161(7)
_cell_volume                     402.002
loop_
_atom_site_label
_atom_site_type_symbol
_atom_site_fract_x
_atom_site_fract_y
_atom_site_fract_z
Co1 Co 0.0000 0.0000 0.5000
Co2 Co 0.5000 0.5000 0.5000
O1 O 0.1694(3) 0.2325(3) 0.6119(3)
O2 O 0.4875(3) 0.3576(3) 0.7123(3)
O3 O 0.2645(3) -0.1283(3) 0.5378(3)
O4 O 0.5570(3) -0.2620(3) 0.6499(2)
O5 O 0.0391(4) 0.0928(4) 0.2669(3)
H1 H 0.151 0.1538 0.2826
H2 H -0.0337 0.0886 0.1656
O6 O 0.1793(3) 0.5155(3) 0.3953(3)
H3 H 0.1224 0.6092 0.404
H4 H 0.1421 0.4397 0.4559
C1 C 0.3523(4) 0.2411(4) 0.7155(3)
C2 C 0.4193(4) 0.1081(4) 0.8574(3)
C3 C 0.4640(4) -0.0677(4) 0.8333(3)
C4 C 0.4246(4) -0.1563(4) 0.6596(3)
C5 C 0.4549(4) 0.1741(4) 1.0238(3)
H5 H 0.4241 0.2912 1.0399
Co1_2 Co 1.0000 0.0000 1.5000
Co2_2 Co 0.5000 -0.5000 0.5000
Co2_3 Co 0.5000 -0.5000 1.5000
Co2_4 Co 0.5000 0.5000 1.5000
O1A O 0.8306(3) -0.2325(3) 1.3881(3)
O1A_2 O -0.1694(3) -0.2325(3) 0.3881(3)
O2A O 0.5125(3) -0.3576(3) 1.2877(3)
O2A_2 O 0.5125(3) 0.6424(3) 0.2877(3)
O3A O 0.7355(3) 0.1283(3) 1.4622(3)
O3A_2 O -0.2645(3) 0.1283(3) 0.4622(3)
O4A O 0.4430(3) 0.2620(3) 1.3501(2)
O4_2 O 0.5570(3) 0.7380(3) 0.6499(2)
O4A_2 O 0.4430(3) 0.2620(3) 0.3501(2)
O5A O -0.0391(4) -0.0928(4) 0.7331(3)
H1A H -0.151 -0.1538 0.7174
H2A H 0.0337 -0.0886 0.8344
O6A O 0.8207(3) 0.4845(3) 0.6047(3)
H3A H 0.8776 0.3908 0.596
H4A H 0.8579 0.5603 0.5441
C1A C 0.6477(4) -0.2411(4) 1.2845(3)
C2A C 0.5807(4) -0.1081(4) 1.1426(3)
C3A C 0.5360(4) 0.0677(4) 1.1667(3)
C4A C 0.5754(4) 0.1563(4) 1.3404(3)
C5A C 0.5451(4) -0.1741(4) 0.9762(3)
H5A H 0.5759 -0.2912 0.9601
O7 O -0.0980(8) 0.2254(8) -0.0766(7)
O8? O -0.1415(13) 0.4510(14) 0.0178(11)
loop_
_geom_bond_atom_site_label_1
_geom_bond_atom_site_label_2
_geom_bond_site_symmetry_1
_geom_bond_site_symmetry_2
Co1 O1 1_555 1_555
Co2 O2 1_555 1_555
O1 C1 1_555 1_555
O2 C1 1_555 1_555
O3 Co1 1_555 1_555
O4 C4 1_555 1_555
O5 Co1 1_555 1_555
H1 O5 1_555 1_555
H2 O5 1_555 1_555
O6 Co2 1_555 1_555
H3 O6 1_555 1_555
H4 O6 1_555 1_555
C1 C2 1_555 1_555
C2 C3 1_555 1_555
C3 C4 1_555 1_555
C4 O3 1_555 1_555
C5 C2 1_555 1_555
H5 C5 1_555 1_555
Co1_2 O1A 1_555 1_555
Co2_2 O4 1_555 1_555
Co2_3 O2A 1_555 1_555
Co2_4 O4A 1_555 1_555
O1A C1A 1_555 1_555
O1A_2 Co1 1_555 1_555
O2A C1A 1_555 1_555
O2A_2 Co2 1_555 1_555
O3A Co1_2 1_555 1_555
O3A_2 Co1 1_555 1_555
O4A C4A 1_555 1_555
O4_2 Co2 1_555 1_555
O4A_2 Co2 1_555 1_555
O5A Co1 1_555 1_555
H1A O5A 1_555 1_555
H2A O5A 1_555 1_555
O6A Co2 1_555 1_555
H3A O6A 1_555 1_555
H4A O6A 1_555 1_555
C1A C2A 1_555 1_555
C2A C3A 1_555 1_555
C3A C5 1_555 1_555
C4A O3A 1_555 1_555
C5A C3 1_555 1_555
H5A C5A 1_555 1_555
C2A C5A 1_555 1_555
C3A C4A 1_555 1_555

#END
