
#######################################################################
#
#                 Cambridge Crystallographic Data Centre
#                                CCDC 
#
#######################################################################
#
# If this CIF has been generated from an entry in the Cambridge 
# Structural Database, then it will include bibliographic, chemical, 
# crystal, experimental, refinement or atomic coordinate data resulting 
# from the CCDC's data processing and validation procedures.
#
#######################################################################

data_IGAHED03
_symmetry_cell_setting           monoclinic
_symmetry_space_group_name_H-M   'P 2/n'
_symmetry_Int_Tables_number      13
_space_group_name_Hall           '-P 2yac'
loop_
_symmetry_equiv_pos_site_id
_symmetry_equiv_pos_as_xyz
1 x,y,z
2 1/2-x,y,1/2-z
3 -x,-y,-z
4 1/2+x,-y,1/2+z
_cell_length_a                   9.4860(4)
_cell_length_b                   6.0463(3)
_cell_length_c                   14.1134(5)
_cell_angle_alpha                90
_cell_angle_beta                 104.901(4)
_cell_angle_gamma                90
_cell_volume                     782.255
loop_
_atom_site_label
_atom_site_type_symbol
_atom_site_fract_x
_atom_site_fract_y
_atom_site_fract_z
Co1 Co 0.7500 0.49925(7) 0.2500
Co2 Co 1.0000 -0.5000 0.5000
C1 C 0.5685(2) 0.1555(4) 0.32325(15)
C2 C 0.7047(2) -0.2619(4) 0.42580(16)
C3 C 0.6011(2) -0.1204(4) 0.46443(16)
C4 C 0.5319(2) 0.0621(4) 0.41289(15)
C5 C 0.4311(2) 0.1812(4) 0.44843(16)
O1 O 0.47147(17) 0.1541(3) 0.24405(11)
O2 O 0.69144(16) 0.2486(3) 0.33619(11)
O3 O 0.68402(17) -0.2680(3) 0.33439(11)
O4 O 0.80104(16) -0.3623(3) 0.48888(11)
O5 O 0.53325(17) 0.4913(3) 0.15407(11)
O6 O 0.90434(19) -0.8168(3) 0.49740(12)
H1 H 0.384(3) 0.309(5) 0.4140(19)
H2 H 0.479(3) 0.588(6) 0.171(2)
H3 H 0.506(4) 0.372(7) 0.174(3)
H4 H 0.838(4) -0.815(7) 0.447(3)
H5 H 0.851(8) -0.806(15) 0.542(5)
Co1_2 Co 0.7500 -0.50075(7) 0.2500
Co1C Co 0.2500 -0.49925(7) 0.7500
Co1C_2 Co 0.2500 0.50075(7) 0.7500
Co2C Co 0.5000 0.5000 0.0000
Co2_2 Co 0.0000 0.5000 0.5000
Co2_3 Co 1.0000 0.5000 0.5000
C1B C 0.4315(2) -0.1555(4) 0.67675(15)
C2B C 0.2953(2) 0.2619(4) 0.57420(16)
C3B C 0.3989(2) 0.1204(4) 0.53557(16)
C4B C 0.4681(2) -0.0621(4) 0.58711(15)
C5B C 0.5689(2) -0.1812(4) 0.55157(16)
O1B O 0.52853(17) -0.1541(3) 0.75595(11)
O2B O 0.30856(16) -0.2486(3) 0.66381(11)
O2A O 0.80856(16) 0.2486(3) 0.16381(11)
O3B O 0.31598(17) 0.2680(3) 0.66561(11)
O3_2 O 0.68402(17) 0.7320(3) 0.33439(11)
O3A O 0.81598(17) 0.7320(3) 0.16561(11)
O4B O 0.19896(16) 0.3623(3) 0.51112(11)
O4B_2 O 1.19896(16) -0.6377(3) 0.51112(11)
O5A O 0.96675(17) 0.4913(3) 0.34593(11)
O5A_2 O 0.96675(17) -0.5087(3) 0.34593(11)
O5C O 1.03325(17) -0.4913(3) 0.65407(11)
O6B O 1.09566(19) -0.1832(3) 0.50260(12)
H1B H 0.616(3) -0.309(5) 0.5860(19)
H2A H 1.021(3) 0.588(6) 0.329(2)
H2A_2 H 1.021(3) -0.412(6) 0.329(2)
H2C H 0.979(3) -0.588(6) 0.671(2)
H3A H 0.994(4) 0.372(7) 0.326(3)
H3A_2 H 0.994(4) -0.628(7) 0.326(3)
H3C H 1.006(4) -0.372(7) 0.674(3)
H4B H 1.162(4) -0.185(7) 0.553(3)
H5B H 1.149(8) -0.194(15) 0.458(5)
O7 O 0.16485(19) 0.7768(3) 0.31781(13)
H6 H 0.128(3) 0.903(4) 0.298(2)
H7 H 0.245(6) 0.721(13) 0.294(6)
loop_
_geom_bond_atom_site_label_1
_geom_bond_atom_site_label_2
_geom_bond_site_symmetry_1
_geom_bond_site_symmetry_2
Co1 O2 1_555 1_555
Co2 O4 1_555 1_555
C1 C4 1_555 1_555
C2 C3 1_555 1_555
C3 C4 1_555 1_555
C4 C5 1_555 1_555
C5 H1 1_555 1_555
O1 C1 1_555 1_555
O2 C1 1_555 1_555
O3 C2 1_555 1_555
O4 C2 1_555 1_555
O5 Co1 1_555 1_555
O6 Co2 1_555 1_555
O7 H6 1_555 1_555
H2 O5 1_555 1_555
H3 O5 1_555 1_555
H4 O6 1_555 1_555
H5 O6 1_555 1_555
H7 O7 1_555 1_555
Co1_2 O3 1_555 1_555
Co1C O2B 1_555 1_555
Co1C_2 O3B 1_555 1_555
Co2C O5 1_555 1_555
Co2_2 O4B 1_555 1_555
Co2_3 O5A 1_555 1_555
C1B C4B 1_555 1_555
C2B C3B 1_555 1_555
C3B C5 1_555 1_555
C4B C3B 1_555 1_555
C5B C3 1_555 1_555
O1B C1B 1_555 1_555
O2B C1B 1_555 1_555
O2A Co1 1_555 1_555
O3B C2B 1_555 1_555
O3_2 Co1 1_555 1_555
O3A Co1 1_555 1_555
O4B C2B 1_555 1_555
O4B_2 Co2 1_555 1_555
O5A Co1 1_555 1_555
O5A_2 Co2 1_555 1_555
O5C Co2 1_555 1_555
O6B Co2 1_555 1_555
H1B C5B 1_555 1_555
H2A O5A 1_555 1_555
H2A_2 O5A_2 1_555 1_555
H2C O5C 1_555 1_555
H3A O5A 1_555 1_555
H3A_2 O5A_2 1_555 1_555
H3C O5C 1_555 1_555
H4B O6B 1_555 1_555
H5B O6B 1_555 1_555
Co1_2 O5A_2 1_555 1_555
C4B C5B 1_555 1_555

#END
