
#######################################################################
#
#                 Cambridge Crystallographic Data Centre
#                                CCDC 
#
#######################################################################
#
# If this CIF has been generated from an entry in the Cambridge 
# Structural Database, then it will include bibliographic, chemical, 
# crystal, experimental, refinement or atomic coordinate data resulting 
# from the CCDC's data processing and validation procedures.
#
#######################################################################

data_IGAHED02
_symmetry_cell_setting           triclinic
_symmetry_space_group_name_H-M   'P -1'
_symmetry_Int_Tables_number      2
_space_group_name_Hall           '-P 1'
loop_
_symmetry_equiv_pos_site_id
_symmetry_equiv_pos_as_xyz
1 x,y,z
2 -x,-y,-z
_cell_length_a                   6.9104(7)
_cell_length_b                   7.4253(9)
_cell_length_c                   8.2544(6)
_cell_angle_alpha                90.397(8)
_cell_angle_beta                 109.835(7)
_cell_angle_gamma                93.137(8)
_cell_volume                     397.677
loop_
_atom_site_label
_atom_site_type_symbol
_atom_site_fract_x
_atom_site_fract_y
_atom_site_fract_z
Co1 Co 0.0000 0.5000 0.0000
Co2 Co 0.5000 0.0000 0.0000
O1 O 0.5559(5) 0.2381(4) 0.1497(4)
O2 O 0.2630(5) 0.3705(5) 0.0377(4)
O3 O 0.1707(5) 0.7318(5) 0.1116(4)
O4 O 0.4883(5) 0.8570(5) 0.2123(4)
O5 O 0.0397(6) 0.5919(6) -0.2346(5)
O6 O 0.1789(5) 0.0144(5) -0.1040(5)
C1 C 0.4644(7) 0.4319(6) 0.3335(6)
C2 C 0.4196(7) 0.6079(6) 0.3580(6)
C3 C 0.5439(7) 0.3255(7) 0.4758(6)
C4 C 0.3520(7) 0.7405(6) 0.2153(6)
C5 C 0.4255(7) 0.3430(6) 0.1604(6)
H1 H 0.558(8) 0.205(8) 0.453(7)
Co1_2 Co 1.0000 0.5000 1.0000
Co2_2 Co 0.5000 1.0000 0.0000
Co2_3 Co 0.5000 0.0000 1.0000
Co2_4 Co 0.5000 1.0000 1.0000
O1A O 0.4441(5) 0.7619(4) 0.8503(4)
O1A_2 O 0.4441(5) -0.2381(4) -0.1497(4)
O2A O 0.7370(5) 0.6295(5) 0.9623(4)
O2A_2 O -0.2630(5) 0.6295(5) -0.0377(4)
O3A O 0.8293(5) 0.2682(5) 0.8884(4)
O3A_2 O -0.1707(5) 0.2682(5) -0.1116(4)
O4A O 0.5117(5) 0.1430(5) 0.7877(4)
O4_2 O 0.4883(5) -0.1430(5) 0.2123(4)
O4A_2 O 0.5117(5) 0.1430(5) -0.2123(4)
O5A O -0.0397(6) 0.4081(6) 0.2346(5)
O6A O 0.8211(5) -0.0144(5) 0.1040(5)
C1A C 0.5356(7) 0.5681(6) 0.6665(6)
C2A C 0.5804(7) 0.3921(6) 0.6420(6)
C3A C 0.4561(7) 0.6745(7) 0.5242(6)
C4A C 0.6480(7) 0.2595(6) 0.7847(6)
C5A C 0.5745(7) 0.6570(6) 0.8396(6)
H1A H 0.442(8) 0.795(8) 0.547(7)
O7 O -0.132(2) -0.0487(19) -0.4843(16)
O8 O -0.0989(13) -0.2724(13) -0.5769(11)
loop_
_geom_bond_atom_site_label_1
_geom_bond_atom_site_label_2
_geom_bond_site_symmetry_1
_geom_bond_site_symmetry_2
Co1 O2 1_555 1_555
Co2 O1 1_555 1_555
O1 C5 1_555 1_555
O2 C5 1_555 1_555
O3 Co1 1_555 1_555
O4 C4 1_555 1_555
O5 Co1 1_555 1_555
O6 Co2 1_555 1_555
C1 C2 1_555 1_555
C2 C4 1_555 1_555
C3 C1 1_555 1_555
C4 O3 1_555 1_555
C5 C1 1_555 1_555
H1 C3 1_555 1_555
Co1_2 O2A 1_555 1_555
Co2_2 O4 1_555 1_555
Co2_3 O4A 1_555 1_555
Co2_4 O1A 1_555 1_555
O1A C5A 1_555 1_555
O1A_2 Co2 1_555 1_555
O2A C5A 1_555 1_555
O2A_2 Co1 1_555 1_555
O3A Co1_2 1_555 1_555
O3A_2 Co1 1_555 1_555
O4A C4A 1_555 1_555
O4_2 Co2 1_555 1_555
O4A_2 Co2 1_555 1_555
O5A Co1 1_555 1_555
O6A Co2 1_555 1_555
C1A C2A 1_555 1_555
C2A C3 1_555 1_555
C3A C2 1_555 1_555
C4A O3A 1_555 1_555
C5A C1A 1_555 1_555
H1A C3A 1_555 1_555
C1A C3A 1_555 1_555
C2A C4A 1_555 1_555

#END
