
#######################################################################
#
#                 Cambridge Crystallographic Data Centre
#                                CCDC 
#
#######################################################################
#
# If this CIF has been generated from an entry in the Cambridge 
# Structural Database, then it will include bibliographic, chemical, 
# crystal, experimental, refinement or atomic coordinate data resulting 
# from the CCDC's data processing and validation procedures.
#
#######################################################################

data_IGAHED
_symmetry_cell_setting           triclinic
_symmetry_space_group_name_H-M   'P -1'
_symmetry_Int_Tables_number      2
_space_group_name_Hall           '-P 1'
loop_
_symmetry_equiv_pos_site_id
_symmetry_equiv_pos_as_xyz
1 x,y,z
2 -x,-y,-z
_cell_length_a                   7.4383(4)
_cell_length_b                   8.8006(5)
_cell_length_c                   12.4710(8)
_cell_angle_alpha                100.605(5)
_cell_angle_beta                 91.564(5)
_cell_angle_gamma                92.844(5)
_cell_volume                     800.886
loop_
_atom_site_label
_atom_site_type_symbol
_atom_site_fract_x
_atom_site_fract_y
_atom_site_fract_z
Co1 Co 0.49975(9) -0.24947(8) 0.75073(6)
Co2 Co 1.0000 0.0000 1.0000
Co3 Co 0.0000 -0.5000 0.5000
O1 O 0.5144(5) -0.4626(4) 0.6423(3)
O2 O 0.4850(5) -0.0368(4) 0.8584(3)
O3 O 0.6422(5) -0.3504(4) 0.8623(3)
O4 O 0.3610(5) -0.1498(4) 0.6363(3)
O5 O 1.2610(4) -0.3527(4) 0.7968(3)
O6 O -0.2595(5) -0.1471(4) 0.7042(3)
O7 O 1.1274(5) -0.1501(4) 0.8863(3)
O8 O 1.0938(6) -0.0965(5) 1.1371(3)
O9 O 0.7678(4) -0.1397(4) 0.9705(3)
O10 O 0.0908(6) -0.5973(5) 0.6380(3)
O11 O 0.2328(4) -0.3596(4) 0.5280(3)
O12 O -0.1320(5) -0.3503(4) 0.6112(3)
C1 C -0.0672(6) -0.1008(5) 0.5652(4)
C2 C 0.1744(6) -0.0109(6) 0.4658(4)
C3 C 0.1071(6) -0.1112(5) 0.5305(4)
C4 C 0.2404(6) -0.2156(6) 0.5685(4)
C5 C -0.1570(7) -0.2088(6) 0.6323(4)
C6 C 1.0685(6) -0.3988(5) 0.9341(4)
C7 C 0.8903(6) -0.3878(5) 0.9704(4)
C8 C 0.8252(6) -0.4905(6) 1.0348(4)
C9 C 0.7585(6) -0.2832(6) 0.9316(4)
C10 C 1.1570(7) -0.2928(6) 0.8683(4)
H1 H 0.2945 -0.0182 0.4422
H2 H 0.7048 -0.4845 1.0581
C8A C 1.1748(6) -0.5095(6) 0.9652(4)
C7A C 1.1097(6) -0.6122(5) 1.0296(4)
C6A C 0.9315(6) -0.6012(5) 1.0659(4)
C10A C 0.8430(7) -0.7072(6) 1.1317(4)
O5A O 0.7390(4) -0.6473(4) 1.2032(3)
O7A O 0.8726(5) -0.8499(4) 1.1137(3)
C9A C 1.2415(6) -0.7168(6) 1.0684(4)
O3A O 1.3578(5) -0.6496(4) 1.1377(3)
O9A O 1.2322(4) -0.8603(4) 1.0295(3)
H2A H 1.2952 -0.5155 0.9419
C2A C -0.1744(6) 0.0109(6) 0.5342(4)
C3A C -0.1071(6) 0.1112(5) 0.4695(4)
C1A C 0.0672(6) 0.1008(5) 0.4348(4)
C5A C 0.1570(7) 0.2088(6) 0.3677(4)
O6A O 0.2595(5) 0.1471(4) 0.2958(3)
O12A O 0.1320(5) 0.3503(4) 0.3888(3)
C4A C -0.2404(6) 0.2156(6) 0.4315(4)
O4A O -0.3610(5) 0.1498(4) 0.3637(3)
O11A O -0.2328(4) 0.3596(4) 0.4720(3)
H1A H -0.2945 0.0182 0.5578
O8A O 0.9062(6) 0.0965(5) 0.8629(3)
Co1A Co 1.50025(9) -0.75053(8) 1.24927(6)
O1A O 1.4856(5) -0.5374(4) 1.3577(3)
O2A O 1.5150(5) -0.9632(4) 1.1416(3)
O10A O -0.0908(6) -0.4027(5) 0.3620(3)
O5_2 O 0.2610(4) -0.3527(4) 0.7968(3)
O6_2 O 0.7405(5) -0.1471(4) 0.7042(3)
O7A_2 O 0.8726(5) 0.1501(4) 1.1137(3)
O9A_2 O 1.2322(4) 0.1397(4) 1.0295(3)
O11A_2 O -0.2328(4) -0.6404(4) 0.4720(3)
O12A_2 O 0.1320(5) -0.6497(4) 0.3888(3)
Co1_2 Co 1.49975(9) -0.24947(8) 0.75073(6)
Co1_3 Co -0.50025(9) -0.24947(8) 0.75073(6)
Co1A_2 Co 0.50025(9) -0.75053(8) 1.24927(6)
Co2_2 Co 1.0000 -1.0000 1.0000
Co1A_3 Co 0.50025(9) 0.24947(8) 0.24927(6)
Co3_2 Co 0.0000 0.5000 0.5000
Co1A_4 Co -0.49975(9) 0.24947(8) 0.24927(6)
O4A_2 O 1.6390(5) -0.8502(4) 1.3637(3)
O5A_2 O 1.7390(4) -0.6473(4) 1.2032(3)
O6A_2 O 1.2595(5) -0.8529(4) 1.2958(3)
O13 O 0.229(1) 0.664(1) 0.2382(7)
O14 O 0.226(1) 0.163(1) 0.7404(7)
O15 O 0.444(2) 0.190(1) 0.675(1)
O16 O 0.450(2) 0.688(1) 0.170(1)
loop_
_geom_bond_atom_site_label_1
_geom_bond_atom_site_label_2
_geom_bond_site_symmetry_1
_geom_bond_site_symmetry_2
Co1 O1 1_555 1_555
Co2 O7 1_555 1_555
Co3 O10 1_555 1_555
O2 Co1 1_555 1_555
O3 Co1 1_555 1_555
O4 Co1 1_555 1_555
O5 C10 1_555 1_555
O6 C5 1_555 1_555
O7 C10 1_555 1_555
O8 Co2 1_555 1_555
O9 Co2 1_555 1_555
O11 Co3 1_555 1_555
O12 Co3 1_555 1_555
C1 C3 1_555 1_555
C2 C3 1_555 1_555
C3 C4 1_555 1_555
C4 O4 1_555 1_555
C5 O12 1_555 1_555
C6 C7 1_555 1_555
C7 C8 1_555 1_555
C8 H2 1_555 1_555
C9 O3 1_555 1_555
C10 C6 1_555 1_555
H1 C2 1_555 1_555
C8A C6 1_555 1_555
C7A C8A 1_555 1_555
C6A C8 1_555 1_555
C10A C6A 1_555 1_555
O5A C10A 1_555 1_555
O7A C10A 1_555 1_555
C9A C7A 1_555 1_555
O3A C9A 1_555 1_555
O9A C9A 1_555 1_555
H2A C8A 1_555 1_555
C2A C1 1_555 1_555
C3A C2A 1_555 1_555
C1A C2 1_555 1_555
C5A C1A 1_555 1_555
O6A C5A 1_555 1_555
O12A C5A 1_555 1_555
C4A C3A 1_555 1_555
O4A C4A 1_555 1_555
O11A C4A 1_555 1_555
H1A C2A 1_555 1_555
O8A Co2 1_555 1_555
Co1A O3A 1_555 1_555
O1A Co1A 1_555 1_555
O2A Co1A 1_555 1_555
O10A Co3 1_555 1_555
O5_2 Co1 1_555 1_555
O6_2 Co1 1_555 1_555
O7A_2 Co2 1_555 1_555
O9A_2 Co2 1_555 1_555
O11A_2 Co3 1_555 1_555
O12A_2 Co3 1_555 1_555
Co1_2 O5 1_555 1_555
Co1_3 O6 1_555 1_555
Co1A_2 O5A 1_555 1_555
Co2_2 O7A 1_555 1_555
Co1A_3 O6A 1_555 1_555
Co3_2 O12A 1_555 1_555
Co1A_4 O4A 1_555 1_555
O4A_2 Co1A 1_555 1_555
O5A_2 Co1A 1_555 1_555
O6A_2 Co1A 1_555 1_555
O9 C9 1_555 1_555
O11 C4 1_555 1_555
C1 C5 1_555 1_555
C7 C9 1_555 1_555
C7A C6A 1_555 1_555
O9A Co2_2 1_555 1_555
C3A C1A 1_555 1_555
O11A Co3_2 1_555 1_555

#END
