
#######################################################################
#
#                 Cambridge Crystallographic Data Centre
#                                CCDC 
#
#######################################################################
#
# If this CIF has been generated from an entry in the Cambridge 
# Structural Database, then it will include bibliographic, chemical, 
# crystal, experimental, refinement or atomic coordinate data resulting 
# from the CCDC's data processing and validation procedures.
#
#######################################################################

data_IGAKIK
_symmetry_cell_setting           tetragonal
_symmetry_space_group_name_H-M   'P 4/n c c'
_symmetry_Int_Tables_number      130
_space_group_name_Hall           '-P 4a 2ac'
loop_
_symmetry_equiv_pos_site_id
_symmetry_equiv_pos_as_xyz
1 x,y,z
2 1/2+y,1/2+x,1/2-z
3 y,1/2-x,z
4 1/2-y,x,z
5 1/2+x,1/2+y,-z
6 1/2-x,y,1/2+z
7 x,1/2-y,1/2+z
8 y,x,1/2+z
9 -x,-y,-z
10 1/2-y,1/2-x,1/2+z
11 -y,1/2+x,-z
12 1/2+y,-x,-z
13 1/2-x,1/2-y,z
14 1/2+x,-y,1/2-z
15 -x,1/2+y,1/2-z
16 -y,-x,1/2-z
_cell_length_a                   13.630(5)
_cell_length_b                   13.630(5)
_cell_length_c                   21.420(8)
_cell_angle_alpha                90
_cell_angle_beta                 90
_cell_angle_gamma                90
_cell_volume                     3979.34
loop_
_atom_site_label
_atom_site_type_symbol
_atom_site_fract_x
_atom_site_fract_y
_atom_site_fract_z
Mn1 Mn 0.60352(2) 0.39648(2) 0.2500
Fe1 Fe 0.2500 0.2500 0.29488(3)
Br1 Br 0.47175(3) 0.16781(3) -0.052310(16)
O1 O 0.64297(12) 0.30456(12) 0.19072(8)
O2 O 0.2500 0.2500 0.4254(2)
C1 C 0.59910(17) 0.27586(17) 0.13903(11)
C2 C 0.64139(19) 0.19695(19) 0.10618(12)
C3 C 0.6014(2) 0.1650(2) 0.05082(13)
C4 C 0.51793(19) 0.2091(2) 0.02708(12)
C5 C 0.4731(2) 0.2840(2) 0.05843(12)
C6 C 0.51308(17) 0.31967(18) 0.11486(11)
C7 C 0.46930(19) 0.40489(19) 0.14315(12)
C8 C 0.4571(2) 0.5404(2) 0.21496(14)
C9 C 0.38964(18) 0.27789(17) 0.28760(11)
C10 C 0.2500 0.2500 0.2037(3)
N1 N 0.50053(14) 0.44728(14) 0.19272(9)
N2 N 0.47147(15) 0.29556(16) 0.28377(11)
N3 N 0.2500 0.2500 0.3722(2)
N4 N 0.2500 0.2500 0.1506(3)
H1 H 0.696(2) 0.162(2) 0.1251(12)
H2 H 0.628(2) 0.114(2) 0.0289(12)
H3 H 0.411(2) 0.3157(19) 0.0443(12)
H4 H 0.4128(19) 0.4316(18) 0.1224(11)
H5 H 0.395(2) 0.546(2) 0.1997(14)
H6 H 0.496(2) 0.594(2) 0.1974(14)
C8O C 0.4596(2) 0.5429(2) 0.28504(14)
N1O N 0.55272(14) 0.49947(14) 0.30728(9)
C7O C 0.59511(19) 0.53070(19) 0.35685(12)
C6O C 0.68033(18) 0.48692(17) 0.38514(11)
C1O C 0.72414(17) 0.40090(17) 0.36097(11)
O1O O 0.69544(12) 0.35703(12) 0.30928(8)
C2O C 0.80305(19) 0.35861(19) 0.39382(12)
C3O C 0.8350(2) 0.3986(2) 0.44918(13)
C4O C 0.7909(2) 0.48207(19) 0.47292(12)
Br1O Br 0.83219(3) 0.52825(3) 0.552310(16)
C5O C 0.7160(2) 0.5269(2) 0.44157(12)
H3O H 0.6843(19) 0.589(2) 0.4557(12)
H2O H 0.886(2) 0.372(2) 0.4711(12)
H1O H 0.838(2) 0.304(2) 0.3749(12)
H4O H 0.5684(18) 0.5872(19) 0.3776(11)
H5O H 0.454(2) 0.605(2) 0.3003(14)
H6O H 0.406(2) 0.504(2) 0.3026(14)
C9B C 0.27789(17) 0.11036(18) 0.28760(11)
N2B N 0.29556(16) 0.02853(15) 0.28377(11)
C9C C 0.22211(17) 0.38964(18) 0.28760(11)
N2C N 0.20444(16) 0.47147(15) 0.28377(11)
C9L C 0.11036(18) 0.22211(17) 0.28760(11)
N2L N 0.02853(15) 0.20444(16) 0.28377(11)
Mn1B Mn 0.39648(2) -0.10352(2) 0.2500
Br1B Br 0.16781(3) 0.02825(3) -0.052310(16)
O1B O 0.30456(12) -0.14297(12) 0.19072(8)
C1B C 0.27586(17) -0.09910(17) 0.13903(11)
C2B C 0.19695(19) -0.14139(19) 0.10618(12)
C3B C 0.1650(2) -0.1014(2) 0.05082(13)
C4B C 0.2091(2) -0.01793(19) 0.02708(12)
C5B C 0.2840(2) 0.0269(2) 0.05843(12)
C6B C 0.31967(18) -0.01308(17) 0.11486(11)
C7B C 0.40489(19) 0.03070(19) 0.14315(12)
C8B C 0.5404(2) 0.0429(2) 0.21496(14)
N1B N 0.44728(14) -0.00053(14) 0.19272(9)
H1B H 0.162(2) -0.196(2) 0.1251(12)
H2B H 0.114(2) -0.128(2) 0.0289(12)
H3B H 0.3157(19) 0.089(2) 0.0443(12)
H4B H 0.4316(18) 0.0872(19) 0.1224(11)
H5B H 0.546(2) 0.105(2) 0.1997(14)
H6B H 0.594(2) 0.004(2) 0.1974(14)
C8N C 0.5429(2) 0.0404(2) 0.28504(14)
N1N N 0.49947(14) -0.05272(14) 0.30728(9)
C7N C 0.53070(19) -0.09511(19) 0.35685(12)
C6N C 0.48692(17) -0.18033(18) 0.38514(11)
C1N C 0.40090(17) -0.22414(17) 0.36097(11)
O1N O 0.35703(12) -0.19544(12) 0.30928(8)
C2N C 0.35861(19) -0.30305(19) 0.39382(12)
C3N C 0.3986(2) -0.3350(2) 0.44918(13)
C4N C 0.48207(19) -0.2909(2) 0.47292(12)
Br1N Br 0.52825(3) -0.33219(3) 0.552310(16)
C5N C 0.5269(2) -0.2160(2) 0.44157(12)
H3N H 0.589(2) -0.1843(19) 0.4557(12)
H2N H 0.372(2) -0.386(2) 0.4711(12)
H1N H 0.304(2) -0.338(2) 0.3749(12)
H4N H 0.5872(19) -0.0684(18) 0.3776(11)
H5N H 0.605(2) 0.046(2) 0.3003(14)
H6N H 0.504(2) 0.094(2) 0.3026(14)
N2O N 0.70444(16) 0.52853(15) 0.21623(11)
Mn1C Mn 0.10352(2) 0.60352(2) 0.2500
Mn1A Mn -0.10352(2) 0.10352(2) 0.2500
N2N N 0.52853(15) -0.20444(16) 0.21623(11)
loop_
_geom_bond_atom_site_label_1
_geom_bond_atom_site_label_2
_geom_bond_site_symmetry_1
_geom_bond_site_symmetry_2
Mn1 O1 1_555 1_555
Fe1 C9 1_555 1_555
Br1 C4 1_555 1_555
O1 C1 1_555 1_555
O2 N3 1_555 1_555
C1 C2 1_555 1_555
C2 C3 1_555 1_555
C3 C4 1_555 1_555
C4 C5 1_555 1_555
C5 C6 1_555 1_555
C6 C1 1_555 1_555
C7 C6 1_555 1_555
C8 N1 1_555 1_555
C9 N2 1_555 1_555
C10 Fe1 1_555 1_555
N1 Mn1 1_555 1_555
N2 Mn1 1_555 1_555
N3 Fe1 1_555 1_555
N4 C10 1_555 1_555
H1 C2 1_555 1_555
H2 C3 1_555 1_555
H3 C5 1_555 1_555
H4 C7 1_555 1_555
H5 C8 1_555 1_555
H6 C8 1_555 1_555
C8O C8 1_555 1_555
N1O Mn1 1_555 1_555
C7O N1O 1_555 1_555
C6O C7O 1_555 1_555
C1O C6O 1_555 1_555
O1O Mn1 1_555 1_555
C2O C1O 1_555 1_555
C3O C2O 1_555 1_555
C4O C3O 1_555 1_555
Br1O C4O 1_555 1_555
C5O C6O 1_555 1_555
H3O C5O 1_555 1_555
H2O C3O 1_555 1_555
H1O C2O 1_555 1_555
H4O C7O 1_555 1_555
H5O C8O 1_555 1_555
H6O C8O 1_555 1_555
C9B Fe1 1_555 1_555
N2B C9B 1_555 1_555
C9C Fe1 1_555 1_555
N2C C9C 1_555 1_555
C9L Fe1 1_555 1_555
N2L C9L 1_555 1_555
Mn1B N2B 1_555 1_555
Br1B C4B 1_555 1_555
O1B Mn1B 1_555 1_555
C1B O1B 1_555 1_555
C2B C1B 1_555 1_555
C3B C2B 1_555 1_555
C4B C3B 1_555 1_555
C5B C4B 1_555 1_555
C6B C1B 1_555 1_555
C7B C6B 1_555 1_555
C8B N1B 1_555 1_555
N1B Mn1B 1_555 1_555
H1B C2B 1_555 1_555
H2B C3B 1_555 1_555
H3B C5B 1_555 1_555
H4B C7B 1_555 1_555
H5B C8B 1_555 1_555
H6B C8B 1_555 1_555
C8N C8B 1_555 1_555
N1N Mn1B 1_555 1_555
C7N N1N 1_555 1_555
C6N C7N 1_555 1_555
C1N C6N 1_555 1_555
O1N Mn1B 1_555 1_555
C2N C1N 1_555 1_555
C3N C2N 1_555 1_555
C4N C3N 1_555 1_555
Br1N C4N 1_555 1_555
C5N C6N 1_555 1_555
H3N C5N 1_555 1_555
H2N C3N 1_555 1_555
H1N C2N 1_555 1_555
H4N C7N 1_555 1_555
H5N C8N 1_555 1_555
H6N C8N 1_555 1_555
N2O Mn1 1_555 1_555
Mn1C N2C 1_555 1_555
Mn1A N2L 1_555 1_555
N2N Mn1B 1_555 1_555
C7 N1 1_555 1_555
C8O N1O 1_555 1_555
C1O O1O 1_555 1_555
C4O C5O 1_555 1_555
C5B C6B 1_555 1_555
C7B N1B 1_555 1_555
C8N N1N 1_555 1_555
C1N O1N 1_555 1_555
C4N C5N 1_555 1_555

#END
