
#######################################################################
#
#                 Cambridge Crystallographic Data Centre
#                                CCDC 
#
#######################################################################
#
# If this CIF has been generated from an entry in the Cambridge 
# Structural Database, then it will include bibliographic, chemical, 
# crystal, experimental, refinement or atomic coordinate data resulting 
# from the CCDC's data processing and validation procedures.
#
#######################################################################

data_IGAVIX
_symmetry_cell_setting           triclinic
_symmetry_space_group_name_H-M   'P -1'
_symmetry_Int_Tables_number      2
_space_group_name_Hall           '-P 1'
loop_
_symmetry_equiv_pos_site_id
_symmetry_equiv_pos_as_xyz
1 x,y,z
2 -x,-y,-z
_cell_length_a                   4.275(2)
_cell_length_b                   8.235(4)
_cell_length_c                   13.887(7)
_cell_angle_alpha                103.630(6)
_cell_angle_beta                 90.623(6)
_cell_angle_gamma                99.902(6)
_cell_volume                     467.366
loop_
_atom_site_label
_atom_site_type_symbol
_atom_site_fract_x
_atom_site_fract_y
_atom_site_fract_z
Cu1 Cu 0.2898(2) 0.92970(10) 0.42005(6)
I1 I 0.15952(9) 0.87935(5) 0.59765(3)
N1 N 0.2331(13) 0.7297(6) 0.2966(4)
N2 N 0.1748(17) 0.4870(7) 0.1173(4)
C1 C 0.1075(18) 0.7540(9) 0.2135(5)
H1 H 0.0384 0.8558 0.2156
C2 C 0.078(2) 0.6346(10) 0.1261(5)
H2 H -0.0134 0.6568 0.0706
C3 C 0.3002(15) 0.4623(8) 0.2007(5)
C4 C 0.3367(15) 0.5848(8) 0.2898(4)
C5 C 0.4796(18) 0.5585(8) 0.3818(5)
H3 H 0.5501 0.6664 0.4275
H4 H 0.6574 0.5019 0.3656
H5 H 0.3234 0.4901 0.4116
C6 C 0.404(2) 0.2935(9) 0.1918(6)
H6 H 0.6301 0.3150 0.2090
H7 H 0.2972 0.2404 0.2408
C7 C 0.344(3) 0.1703(11) 0.0938(7)
H8 H 0.1209 0.1480 0.0750
H9 H 0.4098 0.0663 0.0978
H10 H 0.4619 0.2167 0.0451
Cu1A Cu -0.2898(2) 1.07030(10) 0.57995(6)
Cu1A_2 Cu 0.7102(2) 1.07030(10) 0.57995(6)
I1A I -0.15952(9) 1.12065(5) 0.40235(3)
I1A_2 I 0.84048(9) 1.12065(5) 0.40235(3)
loop_
_geom_bond_atom_site_label_1
_geom_bond_atom_site_label_2
_geom_bond_site_symmetry_1
_geom_bond_site_symmetry_2
Cu1 I1 1_555 1_555
I1 Cu1A 1_555 1_555
N1 Cu1 1_555 1_555
N2 C2 1_555 1_555
C1 N1 1_555 1_555
H1 C1 1_555 1_555
C2 C1 1_555 1_555
H2 C2 1_555 1_555
C3 N2 1_555 1_555
C4 N1 1_555 1_555
C5 C4 1_555 1_555
H3 C5 1_555 1_555
H4 C5 1_555 1_555
H5 C5 1_555 1_555
C6 C3 1_555 1_555
H6 C6 1_555 1_555
H7 C6 1_555 1_555
C7 C6 1_555 1_555
H8 C7 1_555 1_555
H9 C7 1_555 1_555
H10 C7 1_555 1_555
Cu1A I1A 1_555 1_555
Cu1A_2 I1 1_555 1_555
I1A Cu1 1_555 1_555
I1A_2 Cu1 1_555 1_555
C3 C4 1_555 1_555
Cu1A_2 I1A_2 1_555 1_555

#END
