
#######################################################################
#
#                 Cambridge Crystallographic Data Centre
#                                CCDC 
#
#######################################################################
#
# If this CIF has been generated from an entry in the Cambridge 
# Structural Database, then it will include bibliographic, chemical, 
# crystal, experimental, refinement or atomic coordinate data resulting 
# from the CCDC's data processing and validation procedures.
#
#######################################################################

data_IGAVUJ
_symmetry_cell_setting           monoclinic
_symmetry_space_group_name_H-M   'P 21/n'
_symmetry_Int_Tables_number      14
_space_group_name_Hall           '-P 2yn'
loop_
_symmetry_equiv_pos_site_id
_symmetry_equiv_pos_as_xyz
1 x,y,z
2 1/2-x,1/2+y,1/2-z
3 -x,-y,-z
4 1/2+x,1/2-y,1/2+z
_cell_length_a                   19.631(2)
_cell_length_b                   4.1503(5)
_cell_length_c                   20.210(2)
_cell_angle_alpha                90
_cell_angle_beta                 106.168(2)
_cell_angle_gamma                90
_cell_volume                     1581.48
loop_
_atom_site_label
_atom_site_type_symbol
_atom_site_fract_x
_atom_site_fract_y
_atom_site_fract_z
I1 I 0.84138(2) 0.07448(10) 0.32215(2)
Cu1 Cu 0.74709(5) 0.0787(2) 0.19968(5)
N1 N 0.8036(3) 0.0377(15) 0.1277(3)
C1 C 0.7759(4) -0.1109(19) 0.0678(4)
C2 C 0.8693(4) 0.1524(18) 0.1402(4)
C3 C 0.8114(5) -0.153(2) 0.0189(4)
H1 H 0.7299 -0.1902 0.0587
C4 C 0.9079(4) 0.1171(19) 0.0927(4)
H2 H 0.8897 0.2583 0.1815
H3 H 0.7903 -0.2640 -0.0216
C5 C 0.8783(5) -0.031(2) 0.0306(4)
Br1 Br 1.00132(5) 0.2789(3) 0.11404(6)
H4 H 0.9030 -0.0480 -0.0025
Cu1A Cu 0.75291(5) -0.4213(2) 0.30032(5)
Cu1A_2 Cu 0.75291(5) 0.5787(2) 0.30032(5)
I1A I 0.65862(2) -0.42552(10) 0.17785(2)
I1A_2 I 0.65862(2) 0.57448(10) 0.17785(2)
Cu2 Cu 0.76731(5) -0.5817(2) 0.70996(5)
I2 I 0.68671(2) -0.08406(10) 0.65391(2)
C6 C 0.5229(4) -0.057(2) 0.8715(5)
C7 C 0.5217(4) -0.200(2) 0.8097(4)
N2 N 0.6432(3) -0.0651(14) 0.8238(3)
C8 C 0.5816(4) -0.202(2) 0.7876(4)
C9 C 0.5858(4) 0.0808(18) 0.9092(4)
H5 H 0.4802 -0.2943 0.7830
H6 H 0.5798 -0.3011 0.7459
Br2 Br 0.59454(7) 0.2745(3) 0.99450(6)
C10 C 0.6440(4) 0.0740(17) 0.8832(4)
H7 H 0.6858 0.1717 0.9086
H8 H 0.4827 -0.0544 0.8874
I2A I 0.81329(2) -0.58406(10) 0.84609(2)
Cu2A Cu 0.73269(5) -0.0817(2) 0.79004(5)
Cu2_2 Cu 0.76731(5) 0.4183(2) 0.70996(5)
I2A_2 I 0.81329(2) 0.41594(10) 0.84609(2)
loop_
_geom_bond_atom_site_label_1
_geom_bond_atom_site_label_2
_geom_bond_site_symmetry_1
_geom_bond_site_symmetry_2
I1 Cu1 1_555 1_555
Cu1 N1 1_555 1_555
N1 C1 1_555 1_555
C1 C3 1_555 1_555
C2 N1 1_555 1_555
C3 H3 1_555 1_555
H1 C1 1_555 1_555
C4 C2 1_555 1_555
H2 C2 1_555 1_555
C5 C3 1_555 1_555
Br1 C4 1_555 1_555
H4 C5 1_555 1_555
Cu2 I2 1_555 1_555
I2 Cu2A 1_555 1_555
C6 C7 1_555 1_555
C7 C8 1_555 1_555
N2 C8 1_555 1_555
C8 H6 1_555 1_555
C9 C6 1_555 1_555
H5 C7 1_555 1_555
Br2 C9 1_555 1_555
C10 N2 1_555 1_555
H7 C10 1_555 1_555
H8 C6 1_555 1_555
Cu1A I1 1_555 1_555
Cu1A_2 I1 1_555 1_555
I1A Cu1 1_555 1_555
I1A_2 Cu1 1_555 1_555
I2A Cu2 1_555 1_555
Cu2A N2 1_555 1_555
Cu2_2 I2 1_555 1_555
I2A_2 Cu2A 1_555 1_555
C4 C5 1_555 1_555
C9 C10 1_555 1_555
Cu1A I1A 1_555 1_555
Cu1A_2 I1A_2 1_555 1_555
I2A Cu2A 1_555 1_555
Cu2_2 I2A_2 1_555 1_555

#END
