
#######################################################################
#
#                 Cambridge Crystallographic Data Centre
#                                CCDC 
#
#######################################################################
#
# If this CIF has been generated from an entry in the Cambridge 
# Structural Database, then it will include bibliographic, chemical, 
# crystal, experimental, refinement or atomic coordinate data resulting 
# from the CCDC's data processing and validation procedures.
#
#######################################################################

data_IGAVAN
_symmetry_cell_setting           monoclinic
_symmetry_space_group_name_H-M   'P 21'
_symmetry_Int_Tables_number      4
_space_group_name_Hall           'P 2yb'
loop_
_symmetry_equiv_pos_site_id
_symmetry_equiv_pos_as_xyz
1 x,y,z
2 -x,1/2+y,-z
_cell_length_a                   5.6298(11)
_cell_length_b                   31.876(6)
_cell_length_c                   9.5176(19)
_cell_angle_alpha                90.00
_cell_angle_beta                 90.07(3)
_cell_angle_gamma                90.00
_cell_volume                     1707.98
loop_
_atom_site_label
_atom_site_type_symbol
_atom_site_fract_x
_atom_site_fract_y
_atom_site_fract_z
Zn1 Zn 0.0355(2) 0.45880(4) -0.34678(14)
N1 N 0.3139(17) 0.4276(3) -0.4388(10)
H1 H 0.4244 0.4462 -0.4675
H2 H 0.3817 0.4102 -0.3763
O1 O -0.0976(16) 0.4523(3) -0.5504(9)
O2 O -0.014(2) 0.4228(4) -0.7579(11)
C1 C 0.019(3) 0.4293(4) -0.6311(13)
C2 C 0.226(2) 0.4040(4) -0.5578(11)
H3 H 0.3550 0.3991 -0.6249
C3 C 0.117(3) 0.3619(4) -0.5127(17)
H4 H 0.0022 0.3672 -0.4390
H5 H 0.0317 0.3502 -0.5921
C4 C 0.2928(16) 0.3293(2) -0.4602(10)
C5 C 0.5021(17) 0.3210(3) -0.5324(10)
H6 H 0.5460 0.3378 -0.6080
C6 C 0.6458(18) 0.2877(4) -0.4917(13)
H7 H 0.7858 0.2822 -0.5400
C7 C 0.580(2) 0.2626(3) -0.3788(14)
H8 H 0.6764 0.2403 -0.3516
C8 C 0.371(2) 0.2709(3) -0.3065(11)
H9 H 0.3270 0.2541 -0.2310
C9 C 0.2272(18) 0.3042(3) -0.3472(10)
H10 H 0.0871 0.3097 -0.2989
N2 N 0.023(2) 0.5224(3) -0.3525(10)
H11 H 0.0954 0.5312 -0.4313
H12 H -0.1306 0.5304 -0.3580
O3 O 0.2352(14) 0.4738(3) -0.1601(10)
O4 O 0.3065(14) 0.5250(3) -0.0103(9)
C10 C 0.221(2) 0.5102(4) -0.1282(11)
C11 C 0.132(2) 0.5433(3) -0.2323(11)
H13 H 0.2711 0.5585 -0.2672
C12 C -0.035(2) 0.5754(4) -0.1688(14)
H14 H 0.0243 0.5833 -0.0766
H15 H -0.1897 0.5627 -0.1565
C13 C -0.0610(15) 0.6148(2) -0.2575(10)
C14 C -0.2627(14) 0.6211(3) -0.3392(11)
H16 H -0.3827 0.6010 -0.3404
C15 C -0.2852(17) 0.6574(3) -0.4191(12)
H17 H -0.4201 0.6616 -0.4737
C16 C -0.106(2) 0.6874(3) -0.4173(12)
H18 H -0.1209 0.7116 -0.4708
C17 C 0.0958(18) 0.6810(3) -0.3357(12)
H19 H 0.2158 0.7011 -0.3345
C18 C 0.1183(14) 0.6448(3) -0.2558(10)
H20 H 0.2533 0.6405 -0.2011
Zn2 Zn 0.5327(2) 0.49012(4) 0.09332(13)
N3 N -0.468(2) 0.4263(4) 0.1039(12)
H21 H -0.3843 0.4183 0.1797
H22 H -0.6187 0.4174 0.1156
O5 O -0.2684(14) 0.4768(2) -0.0931(9)
O6 O -0.1981(16) 0.4244(3) -0.2399(9)
C19 C -0.278(2) 0.4391(4) -0.1315(12)
C20 C -0.368(2) 0.4058(4) -0.0218(12)
H23 H -0.2276 0.3903 0.0098
C21 C -0.532(2) 0.3740(4) -0.0899(14)
H24 H -0.4660 0.3654 -0.1794
H25 H -0.6851 0.3870 -0.1080
C22 C -0.5687(15) 0.3353(2) 0.0021(8)
C23 C -0.7737(14) 0.3299(3) 0.0813(10)
H26 H -0.8931 0.3500 0.0786
C24 C -0.8002(17) 0.2944(3) 0.1644(11)
H27 H -0.9374 0.2907 0.2174
C25 C -0.622(2) 0.2642(3) 0.1684(12)
H28 H -0.6395 0.2405 0.2240
C26 C -0.4168(19) 0.2697(3) 0.0892(13)
H29 H -0.2974 0.2495 0.0918
C27 C -0.3902(14) 0.3052(3) 0.0060(10)
H30 H -0.2531 0.3088 -0.0470
N4 N 0.8185(16) 0.5207(3) 0.1890(10)
H31 H 0.9288 0.5019 0.2160
H32 H 0.8860 0.5388 0.1284
O7 O 0.4020(16) 0.4955(3) 0.2997(8)
O8 O 0.4908(16) 0.5242(3) 0.5069(10)
C28 C 0.5258(18) 0.5189(4) 0.3729(13)
C29 C 0.727(2) 0.5433(4) 0.3113(13)
H33 H 0.8522 0.5477 0.3811
C30 C 0.625(2) 0.5849(4) 0.2631(14)
H34 H 0.5340 0.5966 0.3401
H35 H 0.5146 0.5793 0.1870
C31 C 0.7999(16) 0.6185(3) 0.2129(11)
C32 C 1.0086(18) 0.6265(3) 0.2864(11)
H36 H 1.0485 0.6103 0.3640
C33 C 1.1576(17) 0.6589(4) 0.2438(13)
H37 H 1.2972 0.6643 0.2929
C34 C 1.098(2) 0.6832(3) 0.1277(14)
H38 H 1.1976 0.7048 0.0992
C35 C 0.889(2) 0.6752(3) 0.0543(10)
H39 H 0.8494 0.6914 -0.0233
C36 C 0.7403(18) 0.6428(3) 0.0969(10)
H40 H 0.6007 0.6374 0.0477
O5_2 O 0.7316(14) 0.4768(2) -0.0931(9)
Zn2_2 Zn -0.4673(2) 0.49012(4) 0.09332(13)
N3_2 N 0.532(2) 0.4263(4) 0.1039(12)
H21_2 H 0.6157 0.4183 0.1797
H22_2 H 0.3813 0.4174 0.1156
loop_
_geom_bond_atom_site_label_1
_geom_bond_atom_site_label_2
_geom_bond_site_symmetry_1
_geom_bond_site_symmetry_2
Zn1 N1 1_555 1_555
N1 H1 1_555 1_555
H2 N1 1_555 1_555
O1 Zn1 1_555 1_555
O2 C1 1_555 1_555
C1 O1 1_555 1_555
C2 N1 1_555 1_555
H3 C2 1_555 1_555
C3 C2 1_555 1_555
H4 C3 1_555 1_555
H5 C3 1_555 1_555
C4 C3 1_555 1_555
C5 C4 1_555 1_555
H6 C5 1_555 1_555
C6 C5 1_555 1_555
H7 C6 1_555 1_555
C7 C6 1_555 1_555
H8 C7 1_555 1_555
C8 C7 1_555 1_555
H9 C8 1_555 1_555
C9 C4 1_555 1_555
H10 C9 1_555 1_555
N2 Zn1 1_555 1_555
H11 N2 1_555 1_555
H12 N2 1_555 1_555
O3 Zn1 1_555 1_555
O4 C10 1_555 1_555
C10 O3 1_555 1_555
C11 N2 1_555 1_555
H13 C11 1_555 1_555
C12 C11 1_555 1_555
H14 C12 1_555 1_555
H15 C12 1_555 1_555
C13 C12 1_555 1_555
C14 C13 1_555 1_555
H16 C14 1_555 1_555
C15 C14 1_555 1_555
H17 C15 1_555 1_555
C16 C15 1_555 1_555
H18 C16 1_555 1_555
C17 C16 1_555 1_555
H19 C17 1_555 1_555
C18 C13 1_555 1_555
H20 C18 1_555 1_555
Zn2 O4 1_555 1_555
N3 H21 1_555 1_555
H22 N3 1_555 1_555
O5 C19 1_555 1_555
O6 Zn1 1_555 1_555
C19 O6 1_555 1_555
C20 N3 1_555 1_555
H23 C20 1_555 1_555
C21 C20 1_555 1_555
H24 C21 1_555 1_555
H25 C21 1_555 1_555
C22 C21 1_555 1_555
C23 C22 1_555 1_555
H26 C23 1_555 1_555
C24 C23 1_555 1_555
H27 C24 1_555 1_555
C25 C24 1_555 1_555
H28 C25 1_555 1_555
C26 C25 1_555 1_555
H29 C26 1_555 1_555
C27 C22 1_555 1_555
H30 C27 1_555 1_555
N4 Zn2 1_555 1_555
H31 N4 1_555 1_555
H32 N4 1_555 1_555
O7 Zn2 1_555 1_555
O8 C28 1_555 1_555
C28 O7 1_555 1_555
C29 N4 1_555 1_555
H33 C29 1_555 1_555
C30 C29 1_555 1_555
H34 C30 1_555 1_555
H35 C30 1_555 1_555
C31 C30 1_555 1_555
C32 C31 1_555 1_555
H36 C32 1_555 1_555
C33 C32 1_555 1_555
H37 C33 1_555 1_555
C34 C33 1_555 1_555
H38 C34 1_555 1_555
C35 C34 1_555 1_555
H39 C35 1_555 1_555
C36 C31 1_555 1_555
H40 C36 1_555 1_555
O5_2 Zn2 1_555 1_555
Zn2_2 N3 1_555 1_555
N3_2 Zn2 1_555 1_555
H21_2 N3_2 1_555 1_555
H22_2 N3_2 1_555 1_555
C1 C2 1_555 1_555
C8 C9 1_555 1_555
C10 C11 1_555 1_555
C17 C18 1_555 1_555
O5 Zn2_2 1_555 1_555
C19 C20 1_555 1_555
C26 C27 1_555 1_555
C28 C29 1_555 1_555
C35 C36 1_555 1_555

#END
