
#######################################################################
#
#                 Cambridge Crystallographic Data Centre
#                                CCDC 
#
#######################################################################
#
# If this CIF has been generated from an entry in the Cambridge 
# Structural Database, then it will include bibliographic, chemical, 
# crystal, experimental, refinement or atomic coordinate data resulting 
# from the CCDC's data processing and validation procedures.
#
#######################################################################

data_IGEDUV
_symmetry_cell_setting           monoclinic
_symmetry_space_group_name_H-M   'P 21/c'
_symmetry_Int_Tables_number      14
_space_group_name_Hall           '-P 2ybc'
loop_
_symmetry_equiv_pos_site_id
_symmetry_equiv_pos_as_xyz
1 x,y,z
2 -x,1/2+y,1/2-z
3 -x,-y,-z
4 x,1/2-y,1/2+z
_cell_length_a                   11.3517(6)
_cell_length_b                   13.3887(7)
_cell_length_c                   16.9501(9)
_cell_angle_alpha                90
_cell_angle_beta                 97.7210(10)
_cell_angle_gamma                90
_cell_volume                     2552.8
loop_
_atom_site_label
_atom_site_type_symbol
_atom_site_fract_x
_atom_site_fract_y
_atom_site_fract_z
Co1 Co 0.61571(2) 0.13907(2) 0.968589(18)
O1 O 0.43517(14) 0.15188(12) 0.96970(11)
N1 N 0.59017(17) 0.12748(15) 0.83826(12)
C1 C 0.5385(2) 0.1992(2) 0.79079(16)
H1 H 0.5089 0.2551 0.8141
O2 O 0.60742(14) 0.30047(13) 0.97088(10)
H2 H 0.5876 0.3547 0.9916
H3 H 0.6478 0.3153 0.9338
O3 O 0.37813(13) 0.01574(12) 1.02995(9)
N2 N 1.33186(18) -0.13782(15) 0.90217(12)
C2 C 0.5268(3) 0.1942(2) 0.70876(17)
H4 H 0.4913 0.2462 0.6779
O4 O -0.17020(15) 0.31333(13) 0.94072(12)
N3 N 0.7567(2) -0.10578(18) 0.71106(14)
C3 C 0.5684(2) 0.1113(2) 0.67335(16)
H5 H 0.5606 0.1059 0.6182
O5 O -0.20637(14) 0.15234(12) 0.96130(11)
C4 C 0.6223(2) 0.03580(19) 0.72145(15)
N4 N 0.9666(2) -0.2080(2) 0.77166(19)
O6 O 0.57690(18) -0.10032(17) 0.63541(13)
C5 C 0.6322(2) 0.04816(19) 0.80299(15)
H6 H 0.6704 -0.0015 0.8352
O7 O 1.0896(2) -0.32751(17) 0.74074(19)
C6 C 0.6522(2) -0.0614(2) 0.68516(15)
C7 C 0.8644(3) -0.0511(2) 0.7448(2)
H7 H 0.9102 -0.0337 0.7025
H8 H 0.8416 0.0104 0.7689
C8 C 0.9386(3) -0.1109(3) 0.8051(2)
H9 H 1.0117 -0.0753 0.8230
H10 H 0.8967 -0.1213 0.8507
C9 C 0.7847(3) -0.2041(2) 0.6793(2)
H11 H 0.8273 -0.1952 0.6339
H12 H 0.7115 -0.2396 0.6614
C10 C 0.8583(3) -0.2637(2) 0.7414(2)
H13 H 0.8131 -0.2777 0.7848
H14 H 0.8796 -0.3268 0.7190
C11 C 1.0751(2) -0.2449(2) 0.76602(17)
C12 C 1.1803(2) -0.1800(2) 0.79495(16)
C13 C 1.2248(3) -0.1090(2) 0.74677(18)
H15 H 1.1897 -0.0995 0.6945
C14 C 1.3217(3) -0.0532(2) 0.77793(18)
H16 H 1.3532 -0.0055 0.7468
C15 C 1.3718(2) -0.0686(2) 0.85532(15)
H17 H 1.4361 -0.0293 0.8761
C16 C 1.2389(2) -0.19344(19) 0.87089(15)
H18 H 1.2126 -0.2438 0.9021
C17 C 0.35913(19) 0.09913(17) 0.99753(13)
C18 C 0.23365(19) 0.13842(16) 0.99062(13)
C19 C 0.1440(2) 0.07438(18) 0.96139(15)
H19 H 0.1623 0.0091 0.9488
C20 C 0.0253(2) 0.10597(18) 0.95031(15)
H20 H -0.0335 0.0617 0.9287
C21 C -0.00670(19) 0.20009(17) 0.97039(14)
C22 C -0.13774(19) 0.22574(17) 0.95564(14)
C23 C 0.08321(19) 0.26865(17) 1.00437(13)
C24 C 0.0576(2) 0.36605(19) 1.03038(17)
H21 H -0.0212 0.3863 1.0279
C25 C 0.1457(3) 0.4304(2) 1.05883(19)
H22 H 0.1266 0.4940 1.0751
C26 C 0.2654(2) 0.4018(2) 1.06389(19)
H23 H 0.3251 0.4470 1.0823
C27 C 0.20560(19) 0.23779(17) 1.01240(13)
C28 C 0.2944(2) 0.30807(19) 1.04202(15)
H24 H 0.3740 0.2897 1.0466
Co1_2 Co -0.38429(2) 0.13907(2) 0.968589(18)
Co1B Co 0.38429(2) -0.13907(2) 1.031411(18)
Co1B_2 Co 1.38429(2) -0.13907(2) 1.031411(18)
O3B O 0.62187(13) -0.01574(12) 0.97005(9)
N2B N 0.66814(18) 0.13782(15) 1.09783(12)
O5_2 O 0.79363(14) 0.15234(12) 0.96130(11)
loop_
_geom_bond_atom_site_label_1
_geom_bond_atom_site_label_2
_geom_bond_site_symmetry_1
_geom_bond_site_symmetry_2
Co1 O1 1_555 1_555
O1 C17 1_555 1_555
N1 Co1 1_555 1_555
C1 N1 1_555 1_555
H1 C1 1_555 1_555
O2 Co1 1_555 1_555
H2 O2 1_555 1_555
H3 O2 1_555 1_555
O3 C17 1_555 1_555
N2 C15 1_555 1_555
C2 C1 1_555 1_555
H4 C2 1_555 1_555
O4 C22 1_555 1_555
N3 C6 1_555 1_555
C3 C2 1_555 1_555
H5 C3 1_555 1_555
O5 C22 1_555 1_555
C4 C3 1_555 1_555
N4 C8 1_555 1_555
O6 C6 1_555 1_555
C5 N1 1_555 1_555
H6 C5 1_555 1_555
O7 C11 1_555 1_555
C6 C4 1_555 1_555
C7 N3 1_555 1_555
H7 C7 1_555 1_555
H8 C7 1_555 1_555
C8 C7 1_555 1_555
H9 C8 1_555 1_555
H10 C8 1_555 1_555
C9 N3 1_555 1_555
H11 C9 1_555 1_555
H12 C9 1_555 1_555
C10 N4 1_555 1_555
H13 C10 1_555 1_555
H14 C10 1_555 1_555
C11 N4 1_555 1_555
C12 C11 1_555 1_555
C13 C12 1_555 1_555
H15 C13 1_555 1_555
C14 C13 1_555 1_555
H16 C14 1_555 1_555
C15 C14 1_555 1_555
H17 C15 1_555 1_555
C16 N2 1_555 1_555
H18 C16 1_555 1_555
C17 C18 1_555 1_555
C18 C19 1_555 1_555
C19 H19 1_555 1_555
C20 C19 1_555 1_555
H20 C20 1_555 1_555
C21 C20 1_555 1_555
C22 C21 1_555 1_555
C23 C21 1_555 1_555
C24 C23 1_555 1_555
H21 C24 1_555 1_555
C25 C24 1_555 1_555
H22 C25 1_555 1_555
C26 C25 1_555 1_555
H23 C26 1_555 1_555
C27 C18 1_555 1_555
C28 C26 1_555 1_555
H24 C28 1_555 1_555
Co1_2 O5 1_555 1_555
Co1B O3 1_555 1_555
Co1B_2 N2 1_555 1_555
O3B Co1 1_555 1_555
N2B Co1 1_555 1_555
O5_2 Co1 1_555 1_555
C4 C5 1_555 1_555
C9 C10 1_555 1_555
C12 C16 1_555 1_555
C23 C27 1_555 1_555
C27 C28 1_555 1_555

#END
