
#######################################################################
#
#                 Cambridge Crystallographic Data Centre
#                                CCDC 
#
#######################################################################
#
# If this CIF has been generated from an entry in the Cambridge 
# Structural Database, then it will include bibliographic, chemical, 
# crystal, experimental, refinement or atomic coordinate data resulting 
# from the CCDC's data processing and validation procedures.
#
#######################################################################

data_IGEFOP
_symmetry_cell_setting           monoclinic
_symmetry_space_group_name_H-M   'P 21/c'
_symmetry_Int_Tables_number      14
_space_group_name_Hall           '-P 2ybc'
loop_
_symmetry_equiv_pos_site_id
_symmetry_equiv_pos_as_xyz
1 x,y,z
2 x,1/2-y,1/2+z
3 -x,-y,-z
4 -x,1/2+y,1/2-z
_cell_length_a                   8.3313(18)
_cell_length_b                   24.001(5)
_cell_length_c                   7.5703(16)
_cell_angle_alpha                90
_cell_angle_beta                 94.245(4)
_cell_angle_gamma                90
_cell_volume                     1509.6
loop_
_atom_site_label
_atom_site_type_symbol
_atom_site_fract_x
_atom_site_fract_y
_atom_site_fract_z
Hg1 Hg 0.51499(7) 0.79328(2) 0.05918(8)
Br1 Br 0.61775(16) 0.69877(6) -0.08416(18)
Br2 Br 0.6521(2) 0.87123(7) -0.0803(2)
N1 N 0.2683(9) 0.7636(5) 0.1146(14)
S1 S 0.2182(5) 0.87053(17) 0.1437(7)
C1 C 0.0507(18) 0.9114(6) 0.209(2)
H1 H -0.0412 0.9066 0.1238
H2 H 0.0202 0.8993 0.3241
C2 C 0.1569(16) 0.8002(6) 0.1580(18)
C3 C 0.0096(14) 0.7822(7) 0.2116(19)
H3 H -0.0650 0.8086 0.2426
C4 C -0.0288(18) 0.7276(7) 0.2201(19)
H4 H -0.1271 0.7157 0.2570
C5 C 0.0930(17) 0.6885(7) 0.168(2)
H5 H 0.0735 0.6503 0.1699
C6 C 0.235(2) 0.7082(6) 0.117(2)
H6 H 0.3121 0.6831 0.0832
S2 S 0.1111(6) 0.98280(18) 0.2180(6)
N2 N 0.2152(14) 0.9429(5) 0.5376(17)
C7 C 0.2082(18) 0.9861(6) 0.4338(18)
C8 C 0.278(2) 1.0379(6) 0.486(2)
H7 H 0.2698 1.0681 0.4089
C9 C 0.356(2) 1.0430(8) 0.647(3)
H8 H 0.4021 1.0768 0.6830
C10 C 0.366(3) 0.9977(8) 0.756(2)
H9 H 0.4233 0.9992 0.8659
C11 C 0.290(2) 0.9503(8) 0.697(2)
H10 H 0.2911 0.9205 0.7755
Br1A Br 0.61775(16) 0.80123(6) 0.41584(18)
Hg1A Hg 0.51499(7) 0.70672(2) -0.44082(8)
loop_
_geom_bond_atom_site_label_1
_geom_bond_atom_site_label_2
_geom_bond_site_symmetry_1
_geom_bond_site_symmetry_2
Hg1 Br1 1_555 1_555
Br1 Hg1A 1_555 1_555
Br2 Hg1 1_555 1_555
N1 Hg1 1_555 1_555
S1 C1 1_555 1_555
C1 H1 1_555 1_555
H2 C1 1_555 1_555
C2 N1 1_555 1_555
C3 C2 1_555 1_555
H3 C3 1_555 1_555
C4 C3 1_555 1_555
H4 C4 1_555 1_555
C5 C4 1_555 1_555
H5 C5 1_555 1_555
C6 N1 1_555 1_555
H6 C6 1_555 1_555
S2 C1 1_555 1_555
N2 C7 1_555 1_555
C7 S2 1_555 1_555
C8 C7 1_555 1_555
H7 C8 1_555 1_555
C9 C8 1_555 1_555
H8 C9 1_555 1_555
C10 C9 1_555 1_555
H9 C10 1_555 1_555
C11 N2 1_555 1_555
H10 C11 1_555 1_555
Br1A Hg1 1_555 1_555
S1 C2 1_555 1_555
C5 C6 1_555 1_555
C10 C11 1_555 1_555

#END
