
#######################################################################
#
#                 Cambridge Crystallographic Data Centre
#                                CCDC 
#
#######################################################################
#
# If this CIF has been generated from an entry in the Cambridge 
# Structural Database, then it will include bibliographic, chemical, 
# crystal, experimental, refinement or atomic coordinate data resulting 
# from the CCDC's data processing and validation procedures.
#
#######################################################################

data_IGEFIJ
_symmetry_cell_setting           monoclinic
_symmetry_space_group_name_H-M   'C 2/c'
_symmetry_Int_Tables_number      15
_space_group_name_Hall           '-C 2yn'
loop_
_symmetry_equiv_pos_site_id
_symmetry_equiv_pos_as_xyz
1 x,y,z
2 1/2+x,1/2+y,z
3 x,-y,1/2+z
4 1/2+x,1/2-y,1/2+z
5 -x,-y,-z
6 1/2-x,1/2-y,-z
7 -x,y,1/2-z
8 1/2-x,1/2+y,1/2-z
_cell_length_a                   7.8131(2)
_cell_length_b                   16.4409(2)
_cell_length_c                   14.3645(4)
_cell_angle_alpha                90
_cell_angle_beta                 101.0710(5)
_cell_angle_gamma                90
_cell_volume                     1810.84
loop_
_atom_site_label
_atom_site_type_symbol
_atom_site_fract_x
_atom_site_fract_y
_atom_site_fract_z
Hg1 Hg -0.00077(5) 0.03253(2) 0.87648(3)
Cl1 Cl 0.2373(3) -0.01875(14) 0.81594(18)
Cl2 Cl -0.1619(3) -0.08359(12) 0.94732(16)
N1 N -0.2071(9) 0.1241(4) 0.8745(5)
S1 S 0.0393(3) 0.23132(15) 0.8577(2)
C1 C 0.0000 0.2911(7) 0.7500
H1 H -0.1001 0.3260 0.7504
H2 H 0.1001 0.3260 0.7496
C2 C -0.1764(10) 0.2047(5) 0.8663(6)
C3 C -0.3031(13) 0.2607(5) 0.8703(7)
H3 H -0.2794 0.3158 0.8656
C4 C -0.4637(13) 0.2362(6) 0.8811(8)
H4 H -0.5519 0.2741 0.8816
C5 C -0.4953(12) 0.1545(6) 0.8912(9)
H5 H -0.6034 0.1365 0.9008
C6 C -0.3653(12) 0.1011(6) 0.8868(8)
H6 H -0.3870 0.0459 0.8927
S1F S -0.0393(3) 0.23132(15) 0.6423(2)
C2F C 0.1764(10) 0.2047(5) 0.6337(6)
N1F N 0.2071(9) 0.1241(4) 0.6255(5)
C6F C 0.3653(12) 0.1011(6) 0.6132(8)
C5F C 0.4953(12) 0.1545(6) 0.6088(9)
C4F C 0.4637(13) 0.2362(6) 0.6189(8)
C3F C 0.3031(13) 0.2607(5) 0.6297(7)
H3F H 0.2794 0.3158 0.6344
H4F H 0.5519 0.2741 0.6184
H5F H 0.6034 0.1365 0.5992
H6F H 0.3870 0.0459 0.6073
Cl2D Cl 0.1619(3) 0.08359(12) 1.05268(16)
Hg1D Hg 0.00077(5) -0.03253(2) 1.12352(3)
Cl1D Cl -0.2373(3) 0.01875(14) 1.18406(18)
Hg1F Hg 0.00077(5) 0.03253(2) 0.62352(3)
N1D N 0.2071(9) -0.1241(4) 1.1255(5)
loop_
_geom_bond_atom_site_label_1
_geom_bond_atom_site_label_2
_geom_bond_site_symmetry_1
_geom_bond_site_symmetry_2
Hg1 Cl1 1_555 1_555
Cl2 Hg1 1_555 1_555
N1 Hg1 1_555 1_555
S1 C1 1_555 1_555
C1 H1 1_555 1_555
H2 C1 1_555 1_555
C2 N1 1_555 1_555
C3 C2 1_555 1_555
H3 C3 1_555 1_555
C4 C3 1_555 1_555
H4 C4 1_555 1_555
C5 C4 1_555 1_555
H5 C5 1_555 1_555
C6 N1 1_555 1_555
H6 C6 1_555 1_555
S1F C1 1_555 1_555
C2F S1F 1_555 1_555
N1F C2F 1_555 1_555
C6F N1F 1_555 1_555
C5F C6F 1_555 1_555
C4F C5F 1_555 1_555
C3F C2F 1_555 1_555
H3F C3F 1_555 1_555
H4F C4F 1_555 1_555
H5F C5F 1_555 1_555
H6F C6F 1_555 1_555
Cl2D Hg1 1_555 1_555
Hg1D Cl2 1_555 1_555
Cl1D Hg1D 1_555 1_555
Hg1F N1F 1_555 1_555
N1D Hg1D 1_555 1_555
S1 C2 1_555 1_555
C5 C6 1_555 1_555
C4F C3F 1_555 1_555
Cl2D Hg1D 1_555 1_555

#END
