
#######################################################################
#
#                 Cambridge Crystallographic Data Centre
#                                CCDC 
#
#######################################################################
#
# If this CIF has been generated from an entry in the Cambridge 
# Structural Database, then it will include bibliographic, chemical, 
# crystal, experimental, refinement or atomic coordinate data resulting 
# from the CCDC's data processing and validation procedures.
#
#######################################################################

data_IGEGAC
_symmetry_cell_setting           orthorhombic
_symmetry_space_group_name_H-M   'P c c n'
_symmetry_Int_Tables_number      56
_space_group_name_Hall           '-P 2ab 2ac'
loop_
_symmetry_equiv_pos_site_id
_symmetry_equiv_pos_as_xyz
1 x,y,z
2 1/2+x,1/2+y,-z
3 1/2-x,y,1/2+z
4 x,1/2-y,1/2+z
5 -x,-y,-z
6 1/2-x,1/2-y,z
7 1/2+x,-y,1/2-z
8 -x,1/2+y,1/2-z
_cell_length_a                   8.3201(2)
_cell_length_b                   16.0404(3)
_cell_length_c                   22.6041(3)
_cell_angle_alpha                90
_cell_angle_beta                 90
_cell_angle_gamma                90
_cell_volume                     3016.69
loop_
_atom_site_label
_atom_site_type_symbol
_atom_site_fract_x
_atom_site_fract_y
_atom_site_fract_z
N4 N -0.2500 0.2500 0.4866(3)
O4 O -0.1078(10) 0.2017(5) 0.4898(4)
O5 O -0.3383(13) 0.2138(7) 0.4549(5)
O6 O -0.2522(16) 0.3066(6) 0.5127(5)
O5E O -0.1617(13) 0.2862(7) 0.4549(5)
O4E O -0.3922(10) 0.2983(5) 0.4898(4)
O6E O -0.2478(16) 0.1934(6) 0.5127(5)
Ag1 Ag 0.2500 0.2500 0.373135(18)
Ag2 Ag 0.30085(4) 0.107906(18) 0.281232(13)
S1 S 0.08833(13) 0.05562(6) 0.35127(5)
S2 S -0.03028(11) 0.23703(6) 0.33069(5)
N1 N 0.2491(4) 0.1375(2) 0.43675(14)
N2 N 0.0656(4) 0.2921(2) 0.22805(14)
C1 C -0.0723(5) 0.1326(3) 0.3556(2)
H1 H -0.1626 0.1117 0.3329
H2 H -0.1067 0.1359 0.3966
C2 C 0.1792(5) 0.0654(2) 0.42234(16)
C3 C 0.1848(5) -0.0045(3) 0.4587(2)
H3 H 0.1360 -0.0542 0.4473
C4 C 0.2645(6) 0.0017(3) 0.5118(2)
H4 H 0.2718 -0.0442 0.5367
C5 C 0.3332(7) 0.0762(4) 0.5277(2)
H5 H 0.3853 0.0822 0.5639
C6 C 0.3227(6) 0.1418(3) 0.4887(2)
H6 H 0.3699 0.1921 0.4994
C7 C -0.0195(4) 0.2300(2) 0.25231(17)
C8 C -0.1040(5) 0.1721(2) 0.2189(2)
H7 H -0.1626 0.1298 0.2370
C9 C -0.0984(6) 0.1791(3) 0.1582(2)
H8 H -0.1511 0.1403 0.1346
C10 C -0.0150(6) 0.2433(3) 0.1327(2)
H9 H -0.0130 0.2494 0.0918
C11 C 0.0659(5) 0.2989(3) 0.16853(19)
H10 H 0.1224 0.3424 0.1511
N3 N 0.0930(4) -0.00433(19) 0.18550(15)
O1 O 0.2122(4) 0.0405(2) 0.18012(16)
O2 O 0.0110(6) -0.0247(3) 0.14429(17)
O3 O 0.0544(7) -0.0277(3) 0.23292(17)
S1E S 0.41167(13) 0.44438(6) 0.35127(5)
S2E S 0.53028(11) 0.26297(6) 0.33069(5)
N1E N 0.2509(4) 0.3625(2) 0.43675(14)
N2E N 0.4344(4) 0.2079(2) 0.22805(14)
C1E C 0.5723(5) 0.3674(3) 0.3556(2)
H1E H 0.6626 0.3883 0.3329
H2E H 0.6067 0.3641 0.3966
C2E C 0.3208(5) 0.4346(2) 0.42234(16)
C3E C 0.3152(5) 0.5045(3) 0.4587(2)
H3E H 0.3640 0.5542 0.4473
C4E C 0.2355(6) 0.4983(3) 0.5118(2)
H4E H 0.2282 0.5442 0.5367
C5E C 0.1668(7) 0.4238(4) 0.5277(2)
H5E H 0.1147 0.4178 0.5639
C6E C 0.1773(6) 0.3582(3) 0.4887(2)
H6E H 0.1301 0.3079 0.4994
C7E C 0.5195(4) 0.2700(2) 0.25231(17)
C8E C 0.6040(5) 0.3279(2) 0.2189(2)
H7E H 0.6626 0.3702 0.2370
C9E C 0.5984(6) 0.3209(3) 0.1582(2)
H8E H 0.6511 0.3597 0.1346
C10E C 0.5150(6) 0.2567(3) 0.1327(2)
H9E H 0.5130 0.2506 0.0918
C11E C 0.4341(5) 0.2011(3) 0.16853(19)
H10E H 0.3776 0.1576 0.1511
Ag2E Ag 0.19915(4) 0.392094(18) 0.281232(13)
N3F N 0.5930(4) 0.00433(19) 0.31450(15)
O1F O 0.7122(4) -0.0405(2) 0.31988(16)
O2F O 0.5110(6) 0.0247(3) 0.35571(17)
O3F O 0.5544(7) 0.0277(3) 0.26708(17)
Ag2F Ag -0.19915(4) -0.107906(18) 0.218768(13)
O1E O 0.2878(4) 0.4595(2) 0.18012(16)
O2G O -0.0110(6) 0.4753(3) 0.35571(17)
O3G O -0.0544(7) 0.4723(3) 0.26708(17)
Ag2F_2 Ag 0.80085(4) -0.107906(18) 0.218768(13)
loop_
_geom_bond_atom_site_label_1
_geom_bond_atom_site_label_2
_geom_bond_site_symmetry_1
_geom_bond_site_symmetry_2
Ag1 Ag2 1_555 1_555
Ag2 S1 1_555 1_555
S1 C1 1_555 1_555
S2 Ag1 1_555 1_555
N1 Ag1 1_555 1_555
N2 C7 1_555 1_555
C1 S2 1_555 1_555
H1 C1 1_555 1_555
H2 C1 1_555 1_555
C2 S1 1_555 1_555
C3 C2 1_555 1_555
H3 C3 1_555 1_555
C4 C3 1_555 1_555
H4 C4 1_555 1_555
C5 C4 1_555 1_555
H5 C5 1_555 1_555
C6 N1 1_555 1_555
H6 C6 1_555 1_555
C7 S2 1_555 1_555
C8 C7 1_555 1_555
H7 C8 1_555 1_555
C9 C8 1_555 1_555
H8 C9 1_555 1_555
C10 C9 1_555 1_555
H9 C10 1_555 1_555
C11 N2 1_555 1_555
H10 C11 1_555 1_555
N3 O1 1_555 1_555
O1 Ag2 1_555 1_555
O2 N3 1_555 1_555
O3 N3 1_555 1_555
N4 O4 1_555 1_555
O4 O5E 1_555 1_555
O5 N4 1_555 1_555
O6 N4 1_555 1_555
O5E N4 1_555 1_555
O4E N4 1_555 1_555
O6E N4 1_555 1_555
S1E C1E 1_555 1_555
S2E Ag1 1_555 1_555
N1E Ag1 1_555 1_555
N2E Ag2 1_555 1_555
C1E S2E 1_555 1_555
H1E C1E 1_555 1_555
H2E C1E 1_555 1_555
C2E S1E 1_555 1_555
C3E C2E 1_555 1_555
H3E C3E 1_555 1_555
C4E C3E 1_555 1_555
H4E C4E 1_555 1_555
C5E C4E 1_555 1_555
H5E C5E 1_555 1_555
C6E N1E 1_555 1_555
H6E C6E 1_555 1_555
C7E S2E 1_555 1_555
C8E C7E 1_555 1_555
H7E C8E 1_555 1_555
C9E C8E 1_555 1_555
H8E C9E 1_555 1_555
C10E C9E 1_555 1_555
H9E C10E 1_555 1_555
C11E N2E 1_555 1_555
H10E C11E 1_555 1_555
Ag2E Ag1 1_555 1_555
N3F O1F 1_555 1_555
O1F Ag2F_2 1_555 1_555
O2F Ag2 1_555 1_555
O3F Ag2 1_555 1_555
Ag2F O2 1_555 1_555
O1E Ag2E 1_555 1_555
O2G Ag2E 1_555 1_555
O3G Ag2E 1_555 1_555
N1 C2 1_555 1_555
N2 Ag2E 1_555 1_555
C5 C6 1_555 1_555
C10 C11 1_555 1_555
O3 Ag2F 1_555 1_555
O4 O6E 1_555 1_555
O5 O4E 1_555 1_555
O5 O6E 1_555 1_555
O6 O4E 1_555 1_555
O6 O5E 1_555 1_555
S1E Ag2E 1_555 1_555
N1E C2E 1_555 1_555
N2E C7E 1_555 1_555
C5E C6E 1_555 1_555
C10E C11E 1_555 1_555
N3F O2F 1_555 1_555
N3F O3F 1_555 1_555

#END
