
#######################################################################
#
#                 Cambridge Crystallographic Data Centre
#                                CCDC 
#
#######################################################################
#
# If this CIF has been generated from an entry in the Cambridge 
# Structural Database, then it will include bibliographic, chemical, 
# crystal, experimental, refinement or atomic coordinate data resulting 
# from the CCDC's data processing and validation procedures.
#
#######################################################################

data_IGEHOS
_symmetry_cell_setting           monoclinic
_symmetry_space_group_name_H-M   'P 21'
_symmetry_Int_Tables_number      4
_space_group_name_Hall           'P 2yb'
loop_
_symmetry_equiv_pos_site_id
_symmetry_equiv_pos_as_xyz
1 x,y,z
2 -x,1/2+y,-z
_cell_length_a                   10.1740(8)
_cell_length_b                   13.9899(11)
_cell_length_c                   11.4007(9)
_cell_angle_alpha                90
_cell_angle_beta                 108.3690(10)
_cell_angle_gamma                90
_cell_volume                     1540.02
loop_
_atom_site_label
_atom_site_type_symbol
_atom_site_fract_x
_atom_site_fract_y
_atom_site_fract_z
Cd1 Cd 1.11445(2) 0.250213(16) 0.204977(18)
Cl1 Cl 1.14208(9) 0.25432(10) 0.42548(7)
Cl2 Cl 0.88024(9) 0.27801(6) 0.06993(10)
P1 P 0.74114(8) -0.10086(6) -0.16713(7)
P2 P 1.22249(9) 0.10758(6) 0.12230(8)
O1 O 1.0348(2) 0.03152(18) 0.2291(2)
O2 O 0.8731(3) -0.0828(2) 0.2095(2)
C1 C 0.7843(3) 0.0110(2) -0.2279(3)
C2 C 0.8690(4) 0.0087(3) -0.3015(3)
H1 H 0.9021 -0.0496 -0.3197
C3 C 0.9054(5) 0.0927(3) -0.3487(4)
H2 H 0.9617 0.0900 -0.3990
C4 C 0.8600(5) 0.1781(3) -0.3223(4)
H3 H 0.8853 0.2339 -0.3539
C5 C 0.7757(5) 0.1826(3) -0.2482(5)
H4 H 0.7447 0.2413 -0.2293
C6 C 0.7378(4) 0.0989(3) -0.2021(4)
H5 H 0.6802 0.1020 -0.1531
C7 C 0.5157(4) -0.1929(3) -0.3261(3)
H6 H 0.5821 -0.2254 -0.3511
C8 C 0.3761(5) -0.2179(3) -0.3767(4)
H7 H 0.3501 -0.2664 -0.4353
C9 C 0.2788(4) -0.1712(4) -0.3400(5)
H8 H 0.1861 -0.1886 -0.3721
C10 C 0.3174(4) -0.0986(4) -0.2558(5)
H9 H 0.2502 -0.0662 -0.2318
C11 C 0.4554(4) -0.0726(3) -0.2059(4)
H10 H 0.4803 -0.0227 -0.1494
C12 C 0.5558(3) -0.1213(2) -0.2402(3)
C13 C 0.7495(3) -0.0781(2) -0.0062(3)
H11 H 0.7043 -0.0175 -0.0036
H12 H 0.6957 -0.1272 0.0180
C14 C 0.8923(3) -0.0753(2) 0.0907(3)
H13 H 0.9482 -0.1290 0.0782
C15 C 0.9736(3) 0.0186(2) 0.0993(3)
H14 H 0.9097 0.0713 0.0646
C16 C 0.9422(4) -0.0069(3) 0.2880(3)
C17 C 0.8424(5) 0.0693(3) 0.2995(4)
H15 H 0.7879 0.0902 0.2186
H16 H 0.8933 0.1225 0.3450
H17 H 0.7826 0.0438 0.3422
C18 C 1.0282(5) -0.0474(3) 0.4108(4)
H18 H 0.9695 -0.0826 0.4469
H19 H 1.0722 0.0038 0.4650
H20 H 1.0975 -0.0893 0.3987
C19 C 1.0910(4) 0.0184(3) 0.0438(3)
H21 H 1.0549 0.0332 -0.0436
H22 H 1.1329 -0.0445 0.0527
C20 C 1.3538(3) 0.0418(2) 0.2396(3)
C21 C 1.4396(4) -0.0243(3) 0.2077(4)
H23 H 1.4290 -0.0372 0.1252
C22 C 1.5416(4) -0.0709(3) 0.3017(5)
H24 H 1.5997 -0.1143 0.2808
C23 C 1.5581(5) -0.0544(3) 0.4227(5)
H25 H 1.6266 -0.0862 0.4840
C24 C 1.4722(5) 0.0101(3) 0.4538(4)
H26 H 1.4830 0.0219 0.5366
C25 C 1.3702(4) 0.0575(3) 0.3631(4)
H27 H 1.3122 0.1002 0.3853
C26 C 1.3056(4) 0.1432(2) 0.0087(3)
C27 C 1.2318(4) 0.1550(3) -0.1128(4)
H28 H 1.1378 0.1405 -0.1399
C28 C 1.2945(5) 0.1886(4) -0.1970(4)
H29 H 1.2420 0.1970 -0.2794
C29 C 1.4321(6) 0.2091(3) -0.1596(5)
H30 H 1.4750 0.2282 -0.2166
C30 C 1.5060(5) 0.2014(3) -0.0381(5)
H31 H 1.5990 0.2187 -0.0116
C31 C 1.4451(4) 0.1681(3) 0.0479(4)
H32 H 1.4972 0.1627 0.1309
Cd1A Cd 0.88555(2) -0.249787(16) -0.204977(18)
P1A P 1.25886(8) 0.39914(6) 0.16713(7)
loop_
_geom_bond_atom_site_label_1
_geom_bond_atom_site_label_2
_geom_bond_site_symmetry_1
_geom_bond_site_symmetry_2
Cd1 Cl1 1_555 1_555
Cl2 Cd1 1_555 1_555
P1 C1 1_555 1_555
P2 Cd1 1_555 1_555
O1 C15 1_555 1_555
O2 C14 1_555 1_555
C1 C2 1_555 1_555
C2 H1 1_555 1_555
C3 C2 1_555 1_555
H2 C3 1_555 1_555
C4 C3 1_555 1_555
H3 C4 1_555 1_555
C5 C4 1_555 1_555
H4 C5 1_555 1_555
C6 C1 1_555 1_555
H5 C6 1_555 1_555
C7 H6 1_555 1_555
C8 C7 1_555 1_555
H7 C8 1_555 1_555
C9 C8 1_555 1_555
H8 C9 1_555 1_555
C10 C9 1_555 1_555
H9 C10 1_555 1_555
C11 C10 1_555 1_555
H10 C11 1_555 1_555
C12 P1 1_555 1_555
C13 P1 1_555 1_555
H11 C13 1_555 1_555
H12 C13 1_555 1_555
C14 C13 1_555 1_555
H13 C14 1_555 1_555
C15 C14 1_555 1_555
H14 C15 1_555 1_555
C16 O1 1_555 1_555
C17 C16 1_555 1_555
H15 C17 1_555 1_555
H16 C17 1_555 1_555
H17 C17 1_555 1_555
C18 C16 1_555 1_555
H18 C18 1_555 1_555
H19 C18 1_555 1_555
H20 C18 1_555 1_555
C19 P2 1_555 1_555
H21 C19 1_555 1_555
H22 C19 1_555 1_555
C20 P2 1_555 1_555
C21 C20 1_555 1_555
H23 C21 1_555 1_555
C22 C21 1_555 1_555
H24 C22 1_555 1_555
C23 C22 1_555 1_555
H25 C23 1_555 1_555
C24 C23 1_555 1_555
H26 C24 1_555 1_555
C25 C20 1_555 1_555
H27 C25 1_555 1_555
C26 P2 1_555 1_555
C27 C26 1_555 1_555
H28 C27 1_555 1_555
C28 C27 1_555 1_555
H29 C28 1_555 1_555
C29 C28 1_555 1_555
H30 C29 1_555 1_555
C30 C29 1_555 1_555
H31 C30 1_555 1_555
C31 C26 1_555 1_555
H32 C31 1_555 1_555
Cd1A P1 1_555 1_555
P1A Cd1 1_555 1_555
O2 C16 1_555 1_555
C5 C6 1_555 1_555
C7 C12 1_555 1_555
C11 C12 1_555 1_555
C15 C19 1_555 1_555
C24 C25 1_555 1_555
C30 C31 1_555 1_555

#END
