
#######################################################################
#
#                 Cambridge Crystallographic Data Centre
#                                CCDC 
#
#######################################################################
#
# If this CIF has been generated from an entry in the Cambridge 
# Structural Database, then it will include bibliographic, chemical, 
# crystal, experimental, refinement or atomic coordinate data resulting 
# from the CCDC's data processing and validation procedures.
#
#######################################################################

data_IGEKEL
_symmetry_cell_setting           triclinic
_symmetry_space_group_name_H-M   'P -1'
_symmetry_Int_Tables_number      2
_space_group_name_Hall           '-P 1'
loop_
_symmetry_equiv_pos_site_id
_symmetry_equiv_pos_as_xyz
1 x,y,z
2 -x,-y,-z
_cell_length_a                   10.3617(12)
_cell_length_b                   10.7726(13)
_cell_length_c                   12.9406(16)
_cell_angle_alpha                86.111(7)
_cell_angle_beta                 71.526(7)
_cell_angle_gamma                67.463(6)
_cell_volume                     1263.03
loop_
_atom_site_label
_atom_site_type_symbol
_atom_site_fract_x
_atom_site_fract_y
_atom_site_fract_z
Cd1 Cd 0.5000 0.0000 0.5000
O1 O 0.6234(5) 0.1275(5) 0.5432(4)
N1 N 0.5161(4) 0.0923(4) 0.3275(3)
N2 N 0.7997(4) 0.2486(4) 0.0197(4)
N3 N 1.7549(4) 0.3573(4) -0.2992(3)
N4 N 2.2795(4) 0.1808(4) -0.4354(3)
C1 C 0.4016(5) 0.1296(5) 0.2901(4)
H1 H 0.3187 0.1131 0.3310
C2 C 0.4009(6) 0.1913(6) 0.1939(5)
H2 H 0.3191 0.2153 0.1702
C3 C 0.5223(6) 0.2174(6) 0.1327(5)
H3 H 0.5232 0.2600 0.0676
C4 C 0.6429(5) 0.1791(5) 0.1695(4)
C5 C 0.6333(5) 0.1166(5) 0.2667(4)
H4 H 0.7144 0.0896 0.2915
C6 C 0.7786(5) 0.2011(6) 0.1107(5)
H5 H 0.8520 0.1783 0.1434
C7 C 0.9381(5) 0.2610(5) -0.0302(4)
C8 C 0.9426(5) 0.3776(5) -0.0799(4)
C9 C 1.0775(5) 0.3885(5) -0.1242(4)
H6 H 1.0799 0.4685 -0.1548
C10 C 1.2116(5) 0.2846(5) -0.1256(4)
C11 C 1.2013(6) 0.1684(6) -0.0777(5)
H7 H 1.2873 0.0961 -0.0783
C12 C 1.0693(6) 0.1567(6) -0.0296(5)
H8 H 1.0667 0.0783 0.0040
C13 C 1.3536(5) 0.2997(5) -0.1731(4)
C14 C 1.3692(5) 0.4027(5) -0.2405(4)
H9 H 1.2871 0.4624 -0.2574
C15 C 1.5010(5) 0.4209(5) -0.2839(4)
C16 C 1.6249(5) 0.3323(5) -0.2581(4)
C17 C 1.6116(5) 0.2296(6) -0.1902(5)
H10 H 1.6932 0.1708 -0.1721
C18 C 1.4806(5) 0.2132(6) -0.1493(4)
H11 H 1.4755 0.1428 -0.1046
C19 C 0.8034(5) 0.4920(5) -0.0818(4)
H12 H 0.7206 0.4674 -0.0472
H13 H 0.8078 0.5114 -0.1561
H14 H 0.7929 0.5703 -0.0435
C20 C 1.5142(6) 0.5293(5) -0.3594(5)
H15 H 1.6128 0.5267 -0.3801
H16 H 1.4462 0.6153 -0.3235
H17 H 1.4921 0.5157 -0.4234
C21 C 1.8788(5) 0.2597(5) -0.3266(4)
H18 H 1.8824 0.1720 -0.3206
C22 C 2.0165(5) 0.2824(5) -0.3677(4)
C23 C 2.0221(5) 0.4080(5) -0.3810(4)
H19 H 1.9356 0.4846 -0.3622
C24 C 2.1552(5) 0.4197(5) -0.4219(4)
H20 H 2.1608 0.5040 -0.4320
C25 C 2.2805(5) 0.3050(5) -0.4479(4)
H21 H 2.3709 0.3137 -0.4756
C26 C 2.1489(5) 0.1724(5) -0.3962(4)
H22 H 2.1458 0.0871 -0.3872
H23 H 0.675(7) 0.149(7) 0.503(5)
H24 H 0.649(7) 0.144(7) 0.589(5)
Cd1_2 Cd 2.5000 0.0000 -0.5000
Cd1_3 Cd -1.5000 0.0000 1.5000
O1A O 0.3766(5) -0.1275(5) 0.4568(4)
N1A N 0.4839(4) -0.0923(4) 0.6725(3)
N2A N 0.2003(4) -0.2486(4) 0.9803(4)
N3A N -0.7549(4) -0.3573(4) 1.2992(3)
N4A N -1.2795(4) -0.1808(4) 1.4354(3)
N4_2 N 0.2795(4) 0.1808(4) 0.5646(3)
N4A_2 N 0.7205(4) -0.1808(4) 0.4354(3)
C1A C 0.5984(5) -0.1296(5) 0.7099(4)
H1A H 0.6813 -0.1131 0.6690
C2A C 0.5991(6) -0.1913(6) 0.8061(5)
H2A H 0.6809 -0.2153 0.8298
C3A C 0.4777(6) -0.2174(6) 0.8673(5)
H3A H 0.4768 -0.2600 0.9324
C4A C 0.3571(5) -0.1791(5) 0.8305(4)
C5A C 0.3667(5) -0.1166(5) 0.7333(4)
H4A H 0.2856 -0.0896 0.7085
C6A C 0.2214(5) -0.2011(6) 0.8893(5)
H5A H 0.1480 -0.1783 0.8566
C7A C 0.0619(5) -0.2610(5) 1.0302(4)
C8A C 0.0574(5) -0.3776(5) 1.0799(4)
C9A C -0.0775(5) -0.3885(5) 1.1242(4)
H6A H -0.0799 -0.4685 1.1548
C10A C -0.2116(5) -0.2846(5) 1.1256(4)
C11A C -0.2013(6) -0.1684(6) 1.0777(5)
H7A H -0.2873 -0.0961 1.0783
C12A C -0.0693(6) -0.1567(6) 1.0296(5)
H8A H -0.0667 -0.0783 0.9960
C13A C -0.3536(5) -0.2997(5) 1.1731(4)
C14A C -0.3692(5) -0.4027(5) 1.2405(4)
H9A H -0.2871 -0.4624 1.2574
C15A C -0.5010(5) -0.4209(5) 1.2839(4)
C16A C -0.6249(5) -0.3323(5) 1.2581(4)
C17A C -0.6116(5) -0.2296(6) 1.1902(5)
H10A H -0.6932 -0.1708 1.1721
C18A C -0.4806(5) -0.2132(6) 1.1493(4)
H11A H -0.4755 -0.1428 1.1046
C19A C 0.1966(5) -0.4920(5) 1.0818(4)
H12A H 0.2794 -0.4674 1.0472
H13A H 0.1922 -0.5114 1.1561
H14A H 0.2071 -0.5703 1.0435
C20A C -0.5142(6) -0.5293(5) 1.3594(5)
H15A H -0.6128 -0.5267 1.3801
H16A H -0.4462 -0.6153 1.3235
H17A H -0.4921 -0.5157 1.4234
C21A C -0.8788(5) -0.2597(5) 1.3266(4)
H18A H -0.8824 -0.1720 1.3206
C22A C -1.0165(5) -0.2824(5) 1.3677(4)
C23A C -1.0221(5) -0.4080(5) 1.3810(4)
H19A H -0.9356 -0.4846 1.3622
C24A C -1.1552(5) -0.4197(5) 1.4219(4)
H20A H -1.1608 -0.5040 1.4320
C25A C -1.2805(5) -0.3050(5) 1.4479(4)
H21A H -1.3709 -0.3137 1.4756
C26A C -1.1489(5) -0.1724(5) 1.3962(4)
H22A H -1.1458 -0.0871 1.3872
H23A H 0.325(7) -0.149(7) 0.497(5)
H24A H 0.351(7) -0.144(7) 0.411(5)
Cl1 Cl 0.97271(18) 0.17909(18) 0.34428(15)
O2 O 0.8264(6) 0.2292(8) 0.4087(7)
O3 O 0.9998(9) 0.0779(6) 0.2758(6)
O4 O 0.9994(12) 0.2771(8) 0.2851(10)
O5 O 1.0561(9) 0.1531(19) 0.4019(7)
loop_
_geom_bond_atom_site_label_1
_geom_bond_atom_site_label_2
_geom_bond_site_symmetry_1
_geom_bond_site_symmetry_2
Cd1 O1 1_555 1_555
Cl1 O2 1_555 1_555
O1 H23 1_555 1_555
O3 Cl1 1_555 1_555
O4 Cl1 1_555 1_555
O5 Cl1 1_555 1_555
N1 Cd1 1_555 1_555
N2 C6 1_555 1_555
N3 C16 1_555 1_555
N4 C25 1_555 1_555
C1 N1 1_555 1_555
H1 C1 1_555 1_555
C2 C1 1_555 1_555
H2 C2 1_555 1_555
C3 C2 1_555 1_555
H3 C3 1_555 1_555
C4 C3 1_555 1_555
C5 N1 1_555 1_555
H4 C5 1_555 1_555
C6 C4 1_555 1_555
H5 C6 1_555 1_555
C7 N2 1_555 1_555
C8 C7 1_555 1_555
C9 C8 1_555 1_555
H6 C9 1_555 1_555
C10 C9 1_555 1_555
C11 C10 1_555 1_555
H7 C11 1_555 1_555
C12 C7 1_555 1_555
H8 C12 1_555 1_555
C13 C10 1_555 1_555
C14 C13 1_555 1_555
H9 C14 1_555 1_555
C15 C14 1_555 1_555
C16 C15 1_555 1_555
C17 C16 1_555 1_555
H10 C17 1_555 1_555
C18 C13 1_555 1_555
H11 C18 1_555 1_555
C19 C8 1_555 1_555
H12 C19 1_555 1_555
H13 C19 1_555 1_555
H14 C19 1_555 1_555
C20 C15 1_555 1_555
H15 C20 1_555 1_555
H16 C20 1_555 1_555
H17 C20 1_555 1_555
C21 N3 1_555 1_555
H18 C21 1_555 1_555
C22 C21 1_555 1_555
C23 C22 1_555 1_555
H19 C23 1_555 1_555
C24 C23 1_555 1_555
H20 C24 1_555 1_555
C25 C24 1_555 1_555
H21 C25 1_555 1_555
C26 N4 1_555 1_555
H22 C26 1_555 1_555
H24 O1 1_555 1_555
Cd1_2 N4 1_555 1_555
Cd1_3 N4A 1_555 1_555
O1A Cd1 1_555 1_555
N1A Cd1 1_555 1_555
N2A C6A 1_555 1_555
N3A C16A 1_555 1_555
N4A C25A 1_555 1_555
N4_2 Cd1 1_555 1_555
N4A_2 Cd1 1_555 1_555
C1A N1A 1_555 1_555
H1A C1A 1_555 1_555
C2A C1A 1_555 1_555
H2A C2A 1_555 1_555
C3A C2A 1_555 1_555
H3A C3A 1_555 1_555
C4A C3A 1_555 1_555
C5A N1A 1_555 1_555
H4A C5A 1_555 1_555
C6A C4A 1_555 1_555
H5A C6A 1_555 1_555
C7A N2A 1_555 1_555
C8A C7A 1_555 1_555
C9A C8A 1_555 1_555
H6A C9A 1_555 1_555
C10A C9A 1_555 1_555
C11A C10A 1_555 1_555
H7A C11A 1_555 1_555
C12A C7A 1_555 1_555
H8A C12A 1_555 1_555
C13A C10A 1_555 1_555
C14A C13A 1_555 1_555
H9A C14A 1_555 1_555
C15A C14A 1_555 1_555
C16A C15A 1_555 1_555
C17A C16A 1_555 1_555
H10A C17A 1_555 1_555
C18A C13A 1_555 1_555
H11A C18A 1_555 1_555
C19A C8A 1_555 1_555
H12A C19A 1_555 1_555
H13A C19A 1_555 1_555
H14A C19A 1_555 1_555
C20A C15A 1_555 1_555
H15A C20A 1_555 1_555
H16A C20A 1_555 1_555
H17A C20A 1_555 1_555
C21A N3A 1_555 1_555
H18A C21A 1_555 1_555
C22A C21A 1_555 1_555
C23A C22A 1_555 1_555
H19A C23A 1_555 1_555
C24A C23A 1_555 1_555
H20A C24A 1_555 1_555
C25A C24A 1_555 1_555
H21A C25A 1_555 1_555
C26A N4A 1_555 1_555
H22A C26A 1_555 1_555
H23A O1A 1_555 1_555
H24A O1A 1_555 1_555
C4 C5 1_555 1_555
C11 C12 1_555 1_555
C17 C18 1_555 1_555
C22 C26 1_555 1_555
C4A C5A 1_555 1_555
C11A C12A 1_555 1_555
C17A C18A 1_555 1_555
C22A C26A 1_555 1_555

#END
