
#######################################################################
#
#                 Cambridge Crystallographic Data Centre
#                                CCDC 
#
#######################################################################
#
# If this CIF has been generated from an entry in the Cambridge 
# Structural Database, then it will include bibliographic, chemical, 
# crystal, experimental, refinement or atomic coordinate data resulting 
# from the CCDC's data processing and validation procedures.
#
#######################################################################

data_IGEKAH
_symmetry_cell_setting           monoclinic
_symmetry_space_group_name_H-M   'P 21/c'
_symmetry_Int_Tables_number      14
_space_group_name_Hall           '-P 2ybc'
loop_
_symmetry_equiv_pos_site_id
_symmetry_equiv_pos_as_xyz
1 x,y,z
2 -x,1/2+y,1/2-z
3 -x,-y,-z
4 x,1/2-y,1/2+z
_cell_length_a                   11.3653(5)
_cell_length_b                   12.6238(5)
_cell_length_c                   15.0001(6)
_cell_angle_alpha                90
_cell_angle_beta                 95.830(3)
_cell_angle_gamma                90
_cell_volume                     2140.98
loop_
_atom_site_label
_atom_site_type_symbol
_atom_site_fract_x
_atom_site_fract_y
_atom_site_fract_z
Cd1 Cd -0.5000 0.0000 0.0000
Cl1 Cl -0.73217(8) -0.04193(8) 0.13547(6)
O1 O -0.6444(2) -0.0838(2) 0.08232(17)
O2 O -0.7209(4) -0.0906(3) 0.2170(2)
O3 O -0.7128(3) 0.0685(2) 0.1428(2)
O4 O -0.8443(3) -0.0579(4) 0.0882(3)
N1 N -0.3911(2) -0.1620(2) 0.02270(17)
H1 H -0.4435 -0.2145 0.0280
H2 H -0.3560 -0.1750 -0.0273
N2 N 0.1972(2) -0.1154(2) 0.55832(18)
N3 N 0.3952(2) -0.0693(2) 0.87181(17)
C1 C -0.3021(3) -0.1693(2) 0.0976(2)
C2 C -0.3248(3) -0.2177(2) 0.1772(2)
C3 C -0.2378(3) -0.2137(2) 0.2495(2)
H3 H -0.2530 -0.2457 0.3029
C4 C -0.1294(3) -0.1641(3) 0.2454(2)
C5 C -0.1081(3) -0.1191(3) 0.1638(2)
H4 H -0.0359 -0.0864 0.1581
C6 C -0.1928(3) -0.1226(3) 0.0918(2)
H5 H -0.1764 -0.0929 0.0377
C7 C -0.4409(3) -0.2718(3) 0.1884(2)
H6 H -0.4388 -0.3002 0.2479
H7 H -0.4535 -0.3281 0.1455
H8 H -0.5042 -0.2213 0.1789
C8 C -0.0432(3) -0.1556(3) 0.3264(2)
C9 C -0.0303(3) -0.2353(3) 0.3909(2)
H9 H -0.0748 -0.2970 0.3829
C10 C 0.0485(3) -0.2232(3) 0.4671(2)
H10 H 0.0562 -0.2769 0.5097
C11 C 0.1155(3) -0.1327(3) 0.4806(2)
C12 C 0.1064(3) -0.0513(3) 0.4161(2)
C13 C 0.0265(3) -0.0660(3) 0.3408(2)
H11 H 0.0193 -0.0128 0.2977
C14 C 0.1753(3) 0.0503(3) 0.4300(3)
H12 H 0.2253 0.0467 0.4855
H13 H 0.1214 0.1087 0.4320
H14 H 0.2230 0.0604 0.3814
C15 C 0.1717(3) -0.1457(3) 0.6345(2)
H15 H 0.1021 -0.1831 0.6390
C16 C 0.2508(3) -0.1222(3) 0.7161(2)
C17 C 0.2348(3) -0.1683(3) 0.7977(2)
H16 H 0.1761 -0.2188 0.8018
C18 C 0.3072(3) -0.1383(3) 0.8730(2)
H17 H 0.2936 -0.1682 0.9276
C19 C 0.4099(3) -0.0254(3) 0.7924(2)
H18 H 0.4705 0.0237 0.7897
C20 C 0.3405(3) -0.0488(3) 0.7152(2)
H19 H 0.3538 -0.0153 0.6620
Cd1_2 Cd 0.5000 0.0000 1.0000
Cd1_3 Cd -1.5000 0.0000 -1.0000
Cl1B Cl -0.26783(8) 0.04193(8) -0.13547(6)
O1B O -0.3556(2) 0.0838(2) -0.08232(17)
O2B O -0.2791(4) 0.0906(3) -0.2170(2)
O3B O -0.2872(3) -0.0685(2) -0.1428(2)
O4B O -0.1557(3) 0.0579(4) -0.0882(3)
N1B N -0.6089(2) 0.1620(2) -0.02270(17)
H1B H -0.5565 0.2145 -0.0280
H2B H -0.6440 0.1750 0.0273
N2B N -1.1972(2) 0.1154(2) -0.55832(18)
N3_2 N -0.6048(2) -0.0693(2) -0.12819(17)
N3B N -0.3952(2) 0.0693(2) 0.12819(17)
N3B_2 N -1.3952(2) 0.0693(2) -0.87181(17)
C1B C -0.6979(3) 0.1693(2) -0.0976(2)
C2B C -0.6752(3) 0.2177(2) -0.1772(2)
C3B C -0.7622(3) 0.2137(2) -0.2495(2)
H3B H -0.7470 0.2457 -0.3029
C4B C -0.8706(3) 0.1641(3) -0.2454(2)
C5B C -0.8919(3) 0.1191(3) -0.1638(2)
H4B H -0.9641 0.0864 -0.1581
C6B C -0.8072(3) 0.1226(3) -0.0918(2)
H5B H -0.8236 0.0929 -0.0377
C7B C -0.5591(3) 0.2718(3) -0.1884(2)
H6B H -0.5612 0.3002 -0.2479
H7B H -0.5465 0.3281 -0.1455
H8B H -0.4958 0.2213 -0.1789
C8B C -0.9568(3) 0.1556(3) -0.3264(2)
C9B C -0.9697(3) 0.2353(3) -0.3909(2)
H9B H -0.9252 0.2970 -0.3829
C10B C -1.0485(3) 0.2232(3) -0.4671(2)
H10B H -1.0562 0.2769 -0.5097
C11B C -1.1155(3) 0.1327(3) -0.4806(2)
C12B C -1.1064(3) 0.0513(3) -0.4161(2)
C13B C -1.0265(3) 0.0660(3) -0.3408(2)
H11B H -1.0193 0.0128 -0.2977
C14B C -1.1753(3) -0.0503(3) -0.4300(3)
H12B H -1.2253 -0.0467 -0.4855
H13B H -1.1214 -0.1087 -0.4320
H14B H -1.2230 -0.0604 -0.3814
C15B C -1.1717(3) 0.1457(3) -0.6345(2)
H15B H -1.1021 0.1831 -0.6390
C16B C -1.2508(3) 0.1222(3) -0.7161(2)
C17B C -1.2348(3) 0.1683(3) -0.7977(2)
H16B H -1.1761 0.2188 -0.8018
C18B C -1.3072(3) 0.1383(3) -0.8730(2)
H17B H -1.2936 0.1682 -0.9276
C19B C -1.4099(3) 0.0254(3) -0.7924(2)
H18B H -1.4705 -0.0237 -0.7897
C20B C -1.3405(3) 0.0488(3) -0.7152(2)
H19B H -1.3538 0.0153 -0.6620
C21 C -0.4499(5) 0.3893(4) 0.0885(3)
H20 H -0.3826 0.3748 0.1307
H21 H -0.5198 0.3610 0.1107
H22 H -0.4585 0.4644 0.0805
O5 O -0.4344(3) 0.3434(2) 0.00874(19)
H23 H -0.3753 0.3681 -0.0106
loop_
_geom_bond_atom_site_label_1
_geom_bond_atom_site_label_2
_geom_bond_site_symmetry_1
_geom_bond_site_symmetry_2
Cd1 O1 1_555 1_555
Cl1 O1 1_555 1_555
O2 Cl1 1_555 1_555
O3 Cl1 1_555 1_555
O4 Cl1 1_555 1_555
N1 Cd1 1_555 1_555
H1 N1 1_555 1_555
H2 N1 1_555 1_555
N2 C11 1_555 1_555
N3 C18 1_555 1_555
C1 N1 1_555 1_555
C2 C1 1_555 1_555
C3 C2 1_555 1_555
H3 C3 1_555 1_555
C4 C3 1_555 1_555
C5 C4 1_555 1_555
H4 C5 1_555 1_555
C6 C1 1_555 1_555
H5 C6 1_555 1_555
C7 C2 1_555 1_555
H6 C7 1_555 1_555
H7 C7 1_555 1_555
H8 C7 1_555 1_555
C8 C4 1_555 1_555
C9 C8 1_555 1_555
H9 C9 1_555 1_555
C10 C9 1_555 1_555
H10 C10 1_555 1_555
C11 C10 1_555 1_555
C12 C11 1_555 1_555
C13 C8 1_555 1_555
H11 C13 1_555 1_555
C14 C12 1_555 1_555
H12 C14 1_555 1_555
H13 C14 1_555 1_555
H14 C14 1_555 1_555
C15 N2 1_555 1_555
H15 C15 1_555 1_555
C16 C15 1_555 1_555
C17 C16 1_555 1_555
H16 C17 1_555 1_555
C18 C17 1_555 1_555
H17 C18 1_555 1_555
C19 N3 1_555 1_555
H18 C19 1_555 1_555
C20 C16 1_555 1_555
H19 C20 1_555 1_555
C21 H20 1_555 1_555
H21 C21 1_555 1_555
H22 C21 1_555 1_555
O5 C21 1_555 1_555
H23 O5 1_555 1_555
Cd1_2 N3 1_555 1_555
Cd1_3 N3B_2 1_555 1_555
Cl1B O1B 1_555 1_555
O1B Cd1 1_555 1_555
O2B Cl1B 1_555 1_555
O3B Cl1B 1_555 1_555
O4B Cl1B 1_555 1_555
N1B Cd1 1_555 1_555
H1B N1B 1_555 1_555
H2B N1B 1_555 1_555
N2B C11B 1_555 1_555
N3_2 Cd1 1_555 1_555
N3B Cd1 1_555 1_555
N3B_2 C18B 1_555 1_555
C1B N1B 1_555 1_555
C2B C1B 1_555 1_555
C3B C2B 1_555 1_555
H3B C3B 1_555 1_555
C4B C3B 1_555 1_555
C5B C4B 1_555 1_555
H4B C5B 1_555 1_555
C6B C1B 1_555 1_555
H5B C6B 1_555 1_555
C7B C2B 1_555 1_555
H6B C7B 1_555 1_555
H7B C7B 1_555 1_555
H8B C7B 1_555 1_555
C8B C4B 1_555 1_555
C9B C8B 1_555 1_555
H9B C9B 1_555 1_555
C10B C9B 1_555 1_555
H10B C10B 1_555 1_555
C11B C10B 1_555 1_555
C12B C11B 1_555 1_555
C13B C8B 1_555 1_555
H11B C13B 1_555 1_555
C14B C12B 1_555 1_555
H12B C14B 1_555 1_555
H13B C14B 1_555 1_555
H14B C14B 1_555 1_555
C15B N2B 1_555 1_555
H15B C15B 1_555 1_555
C16B C15B 1_555 1_555
C17B C16B 1_555 1_555
H16B C17B 1_555 1_555
C18B C17B 1_555 1_555
H17B C18B 1_555 1_555
C19B N3B_2 1_555 1_555
H18B C19B 1_555 1_555
C20B C16B 1_555 1_555
H19B C20B 1_555 1_555
C5 C6 1_555 1_555
C12 C13 1_555 1_555
C19 C20 1_555 1_555
C5B C6B 1_555 1_555
C12B C13B 1_555 1_555
C19B C20B 1_555 1_555

#END
