
#######################################################################
#
#                 Cambridge Crystallographic Data Centre
#                                CCDC 
#
#######################################################################
#
# If this CIF has been generated from an entry in the Cambridge 
# Structural Database, then it will include bibliographic, chemical, 
# crystal, experimental, refinement or atomic coordinate data resulting 
# from the CCDC's data processing and validation procedures.
#
#######################################################################

data_IGEMOX
_symmetry_cell_setting           triclinic
_symmetry_space_group_name_H-M   'P -1'
_symmetry_Int_Tables_number      2
_space_group_name_Hall           '-P 1'
loop_
_symmetry_equiv_pos_site_id
_symmetry_equiv_pos_as_xyz
1 x,y,z
2 -x,-y,-z
_cell_length_a                   8.9570(18)
_cell_length_b                   10.269(2)
_cell_length_c                   13.152(3)
_cell_angle_alpha                107.84(3)
_cell_angle_beta                 102.05(3)
_cell_angle_gamma                90.70(3)
_cell_volume                     1122.4
loop_
_atom_site_label
_atom_site_type_symbol
_atom_site_fract_x
_atom_site_fract_y
_atom_site_fract_z
Hg1 Hg -0.14122(3) -0.65342(2) -0.944650(18)
Cl1 Cl 0.04834(17) -0.78715(16) -1.02303(12)
Cl2 Cl -0.2683(3) -0.4676(2) -0.85711(15)
N1 N -0.2184(8) -0.5890(5) -0.1338(4)
N2 N -0.1541(6) -0.6797(5) -0.5018(4)
H1 H -0.1813 -0.5980 -0.4953
N3 N -0.0704(6) -0.7396(5) -0.7712(4)
N4 N -0.3730(5) -0.2090(5) -0.1491(4)
H2 H -0.2971 -0.2197 -0.1010
N5 N -0.3436(5) 0.1644(5) -0.0409(4)
O1 O -0.1307(9) -0.8443(5) -0.4183(4)
O2 O -0.5432(5) -0.3263(5) -0.3079(4)
C1 C -0.1750(8) -0.6603(6) -0.2240(5)
H3 H -0.1120 -0.7308 -0.2202
C2 C -0.2185(7) -0.6354(6) -0.3243(4)
C3 C -0.3083(7) -0.5271(6) -0.3281(5)
H4 H -0.3422 -0.5084 -0.3936
C4 C -0.3463(7) -0.4476(5) -0.2334(5)
C5 C -0.3014(8) -0.4826(6) -0.1384(5)
H5 H -0.3300 -0.4300 -0.0752
C6 C -0.1638(9) -0.7294(6) -0.4191(5)
C7 C -0.1040(7) -0.7482(6) -0.5973(5)
C8 C -0.0484(9) -0.8773(7) -0.6174(5)
H6 H -0.0411 -0.9243 -0.5666
C9 C -0.0039(8) -0.9342(6) -0.7162(5)
H7 H 0.0359 -1.0195 -0.7314
C10 C -0.0187(8) -0.8644(7) -0.7906(5)
H8 H 0.0081 -0.9052 -0.8571
C11 C -0.1138(7) -0.6840(6) -0.6780(5)
H9 H -0.1526 -0.5983 -0.6656
C12 C -0.4336(7) -0.3240(6) -0.2352(5)
C13 C -0.4210(7) -0.0751(6) -0.1306(5)
C14 C -0.5696(7) -0.0444(6) -0.1672(5)
H10 H -0.6454 -0.1138 -0.2093
C15 C -0.6014(7) 0.0913(6) -0.1393(5)
H11 H -0.6998 0.1146 -0.1628
C16 C -0.4874(6) 0.1924(6) -0.0767(5)
H12 H -0.5109 0.2834 -0.0585
C17 C -0.3149(6) 0.0323(6) -0.0683(5)
H13 H -0.2160 0.0115 -0.0433
Hg1_2 Hg -0.14122(3) 0.34658(2) 0.055350(18)
Hg1_3 Hg -0.14122(3) -0.65342(2) 0.055350(18)
N1_2 N -0.2184(8) -0.5890(5) -1.1338(4)
N5_2 N -0.3436(5) -0.8356(5) -1.0409(4)
N6 N -0.3414(9) -0.2289(7) -0.5436(5)
O3 O -0.2337(7) -0.4040(5) -0.4949(4)
C18 C -0.3783(16) -0.1642(11) -0.6285(8)
H14 H -0.3737 -0.2290 -0.6978
H15 H -0.3060 -0.0868 -0.6120
H16 H -0.4797 -0.1340 -0.6317
C19 C -0.3827(13) -0.1617(10) -0.4417(8)
H17 H -0.3285 -0.1970 -0.3861
H18 H -0.4910 -0.1782 -0.4500
H19 H -0.3564 -0.0647 -0.4209
C20 C -0.2733(11) -0.3439(8) -0.5594(6)
H20 H -0.2538 -0.3828 -0.6286
loop_
_geom_bond_atom_site_label_1
_geom_bond_atom_site_label_2
_geom_bond_site_symmetry_1
_geom_bond_site_symmetry_2
Hg1 Cl1 1_555 1_555
Cl2 Hg1 1_555 1_555
N1 C1 1_555 1_555
N2 H1 1_555 1_555
N3 Hg1 1_555 1_555
N4 H2 1_555 1_555
N5 C16 1_555 1_555
N6 C18 1_555 1_555
O1 C6 1_555 1_555
O2 C12 1_555 1_555
O3 C20 1_555 1_555
C1 H3 1_555 1_555
C2 C1 1_555 1_555
C3 C2 1_555 1_555
H4 C3 1_555 1_555
C4 C3 1_555 1_555
C5 N1 1_555 1_555
H5 C5 1_555 1_555
C6 N2 1_555 1_555
C7 N2 1_555 1_555
C8 C7 1_555 1_555
H6 C8 1_555 1_555
C9 C8 1_555 1_555
H7 C9 1_555 1_555
C10 N3 1_555 1_555
H8 C10 1_555 1_555
C11 N3 1_555 1_555
H9 C11 1_555 1_555
C12 N4 1_555 1_555
C13 N4 1_555 1_555
C14 C13 1_555 1_555
H10 C14 1_555 1_555
C15 C14 1_555 1_555
H11 C15 1_555 1_555
C16 C15 1_555 1_555
H12 C16 1_555 1_555
C17 N5 1_555 1_555
H13 C17 1_555 1_555
C18 H14 1_555 1_555
H15 C18 1_555 1_555
H16 C18 1_555 1_555
C19 N6 1_555 1_555
H17 C19 1_555 1_555
H18 C19 1_555 1_555
H19 C19 1_555 1_555
C20 N6 1_555 1_555
H20 C20 1_555 1_555
Hg1_2 N5 1_555 1_555
Hg1_3 N1 1_555 1_555
N1_2 Hg1 1_555 1_555
N5_2 Hg1 1_555 1_555
C2 C6 1_555 1_555
C4 C5 1_555 1_555
C4 C12 1_555 1_555
C7 C11 1_555 1_555
C9 C10 1_555 1_555
C13 C17 1_555 1_555

#END
