
#######################################################################
#
#                 Cambridge Crystallographic Data Centre
#                                CCDC 
#
#######################################################################
#
# If this CIF has been generated from an entry in the Cambridge 
# Structural Database, then it will include bibliographic, chemical, 
# crystal, experimental, refinement or atomic coordinate data resulting 
# from the CCDC's data processing and validation procedures.
#
#######################################################################

data_IGEMEN
_symmetry_cell_setting           triclinic
_symmetry_space_group_name_H-M   'P -1'
_symmetry_Int_Tables_number      2
_space_group_name_Hall           '-P 1'
loop_
_symmetry_equiv_pos_site_id
_symmetry_equiv_pos_as_xyz
1 x,y,z
2 -x,-y,-z
_cell_length_a                   9.7340(6)
_cell_length_b                   10.4050(6)
_cell_length_c                   10.5830(6)
_cell_angle_alpha                108.6610(7)
_cell_angle_beta                 91.0500(7)
_cell_angle_gamma                116.4910(7)
_cell_volume                     892.352
loop_
_atom_site_label
_atom_site_type_symbol
_atom_site_fract_x
_atom_site_fract_y
_atom_site_fract_z
Mo1 Mo 0.80585(3) 0.71872(3) 0.64573(2)
Mo2 Mo 0.48602(3) 0.52502(3) 0.77800(3)
Mo3 Mo 0.26119(3) 0.16470(3) 0.58832(3)
Mo4 Mo 0.57918(3) 0.36679(3) 0.45980(2)
Ni1 Ni 1.0000 1.0000 1.0000
O1 O 0.9501(3) 0.6922(3) 0.5736(2)
O2 O 0.1101(3) 0.1859(3) 0.6531(2)
O3 O 0.6213(3) 0.6153(3) 0.9242(2)
O4 O 0.4795(3) 0.1981(2) 0.4940(2)
O5 O 0.2387(3) -0.0051(3) 0.5942(3)
O6 O 0.3234(3) 0.5305(3) 0.8265(3)
O7 O 0.5616(2) 0.6934(2) 0.7041(2)
O8 O 0.8881(3) 0.8221(3) 0.8161(2)
O9 O 0.7347(3) 0.3555(3) 0.3995(2)
O10 O 0.6272(2) 0.5897(2) 0.4531(2)
O11 O 0.6781(2) 0.5089(2) 0.6474(2)
O12 O 0.4264(3) 0.3138(2) 0.7394(2)
O13 O 0.9039(3) 0.8359(3) 1.0892(3)
N1 N 0.6648(4) 1.1547(4) 1.0781(3)
O14 O 0.8114(3) 0.8822(2) 0.5998(2)
C1 C 0.5883(4) 1.1695(5) 0.8593(4)
H1 H 0.5388 1.2241 0.9149
H2 H 0.5092 1.0819 0.7844
N2 N 0.8692(4) 1.3081(4) 0.6394(3)
C2 C 0.7573(4) 1.1040(4) 1.1120(3)
H3 H 0.7834 1.1125 1.2004
N3 N 0.8107(3) 1.0381(3) 1.0057(3)
C3 C 0.7457(5) 1.2185(5) 0.6801(4)
H4 H 0.6798 1.1170 0.6230
N4 N 0.6598(3) 1.1167(3) 0.9405(3)
C4 C 0.7156(4) 1.2755(4) 0.8058(4)
C5 C 0.9397(5) 1.5177(5) 0.8399(4)
H5 H 1.0053 1.6207 0.8935
C6 C 0.8150(4) 1.4281(4) 0.8858(4)
H6 H 0.7970 1.4703 0.9715
C7 C 0.9669(5) 1.4539(5) 0.7141(5)
H7 H 1.0523 1.5121 0.6821
C8 C 0.7465(4) 1.0471(4) 0.9006(4)
H8 H 0.7596 1.0104 0.8117
H9 H 0.880(6) 1.258(5) 0.563(3)
H10 H 0.812(2) 0.767(4) 1.048(4)
H11 H 0.915(5) 0.845(6) 1.1713(19)
Mo1A Mo 0.19415(3) 0.28128(3) 0.35427(2)
Mo2A Mo 0.51398(3) 0.47498(3) 0.22200(3)
Mo3A Mo 0.73881(3) 0.83530(3) 0.41168(3)
Mo4A Mo 0.42082(3) 0.63321(3) 0.54020(2)
Ni1_2 Ni 0.0000 0.0000 0.0000
O1A O 0.0499(3) 0.3078(3) 0.4264(2)
O2A O 0.8899(3) 0.8141(3) 0.3469(2)
O3A O 0.3787(3) 0.3847(3) 0.0758(2)
O4A O 0.5205(3) 0.8019(2) 0.5060(2)
O5A O 0.7613(3) 1.0051(3) 0.4058(3)
O6A O 0.6766(3) 0.4695(3) 0.1735(3)
O7A O 0.4384(2) 0.3066(2) 0.2959(2)
O8A O 0.1119(3) 0.1779(3) 0.1839(2)
O8A_2 O 1.1119(3) 1.1779(3) 1.1839(2)
O9A O 0.2653(3) 0.6445(3) 0.6005(2)
O10A O 0.3728(2) 0.4103(2) 0.5469(2)
O11A O 0.3219(2) 0.4911(2) 0.3526(2)
O12A O 0.5736(3) 0.6862(2) 0.2606(2)
O13A O 1.0961(3) 1.1641(3) 0.9108(3)
N1A N 1.3352(4) 0.8453(4) 0.9219(3)
O14A O 0.1886(3) 0.1178(2) 0.4002(2)
C1A C 1.4117(4) 0.8305(5) 1.1407(4)
H1A H 1.4612 0.7759 1.0851
H2A H 1.4908 0.9181 1.2156
N2A N 1.1308(4) 0.6919(4) 1.3606(3)
C2A C 1.2427(4) 0.8960(4) 0.8880(3)
H3A H 1.2166 0.8875 0.7996
N3A N 1.1893(3) 0.9619(3) 0.9943(3)
C3A C 1.2543(5) 0.7815(5) 1.3199(4)
H4A H 1.3202 0.8830 1.3770
N4A N 1.3402(3) 0.8833(3) 1.0595(3)
C4A C 1.2844(4) 0.7245(4) 1.1942(4)
C5A C 1.0603(5) 0.4823(5) 1.1601(4)
H5A H 0.9947 0.3793 1.1065
C6A C 1.1850(4) 0.5719(4) 1.1142(4)
H6A H 1.2030 0.5297 1.0285
C7A C 1.0331(5) 0.5461(5) 1.2859(5)
H7A H 0.9477 0.4879 1.3179
C8A C 1.2535(4) 0.9529(4) 1.0994(4)
H8A H 1.2404 0.9896 1.1883
H9A H 1.120(6) 0.742(5) 1.437(3)
H10A H 1.188(2) 1.233(4) 0.952(4)
H11A H 1.085(5) 1.155(6) 0.8287(19)
loop_
_geom_bond_atom_site_label_1
_geom_bond_atom_site_label_2
_geom_bond_site_symmetry_1
_geom_bond_site_symmetry_2
Mo1 Mo4 1_555 1_555
Mo2 O3 1_555 1_555
Mo3 O2 1_555 1_555
Mo4 O4 1_555 1_555
Ni1 O8 1_555 1_555
O1 Mo1 1_555 1_555
O4 Mo3 1_555 1_555
O5 Mo3 1_555 1_555
O6 Mo2 1_555 1_555
O7 Mo1 1_555 1_555
O8 Mo1 1_555 1_555
O9 Mo4 1_555 1_555
O10 Mo1 1_555 1_555
O11 Mo1 1_555 1_555
O12 Mo2 1_555 1_555
O13 Ni1 1_555 1_555
N1 C2 1_555 1_555
O14 Mo1 1_555 1_555
C1 H1 1_555 1_555
H2 C1 1_555 1_555
N2 C3 1_555 1_555
C2 H3 1_555 1_555
N3 Ni1 1_555 1_555
C3 H4 1_555 1_555
N4 N1 1_555 1_555
C4 C1 1_555 1_555
C5 H5 1_555 1_555
C6 C4 1_555 1_555
H6 C6 1_555 1_555
C7 N2 1_555 1_555
H7 C7 1_555 1_555
C8 N3 1_555 1_555
H8 C8 1_555 1_555
H9 N2 1_555 1_555
H10 O13 1_555 1_555
H11 O13 1_555 1_555
Mo1A Mo4A 1_555 1_555
Mo2A O10 1_555 1_555
Mo3A O10 1_555 1_555
Mo4A O7 1_555 1_555
Ni1_2 O8A 1_555 1_555
O1A Mo1A 1_555 1_555
O2A Mo3A 1_555 1_555
O3A Mo2A 1_555 1_555
O4A Mo3A 1_555 1_555
O5A Mo3A 1_555 1_555
O6A Mo2A 1_555 1_555
O7A Mo4 1_555 1_555
O8A Mo1A 1_555 1_555
O8A_2 Ni1 1_555 1_555
O9A Mo4A 1_555 1_555
O10A Mo2 1_555 1_555
O11A Mo1A 1_555 1_555
O12A Mo2A 1_555 1_555
O13A Ni1 1_555 1_555
N1A C2A 1_555 1_555
O14A Mo3 1_555 1_555
C1A H1A 1_555 1_555
H2A C1A 1_555 1_555
N2A C3A 1_555 1_555
C2A H3A 1_555 1_555
N3A Ni1 1_555 1_555
C3A H4A 1_555 1_555
N4A N1A 1_555 1_555
C4A C1A 1_555 1_555
C5A H5A 1_555 1_555
C6A C4A 1_555 1_555
H6A C6A 1_555 1_555
C7A N2A 1_555 1_555
H7A C7A 1_555 1_555
C8A N3A 1_555 1_555
H8A C8A 1_555 1_555
H9A N2A 1_555 1_555
H10A O13A 1_555 1_555
H11A O13A 1_555 1_555
Mo2 O7 1_555 1_555
Mo2 O11 1_555 1_555
Mo3 O12 1_555 1_555
Mo3 O10A 1_555 1_555
Mo4 O10 1_555 1_555
Mo4 O11 1_555 1_555
Mo4 O10A 1_555 1_555
O10 Mo4A 1_555 1_555
O14 Mo3A 1_555 1_555
C1 N4 1_555 1_555
C2 N3 1_555 1_555
C3 C4 1_555 1_555
N4 C8 1_555 1_555
C5 C6 1_555 1_555
C5 C7 1_555 1_555
Mo1A O7A 1_555 1_555
Mo1A O10A 1_555 1_555
Mo1A O14A 1_555 1_555
Mo2A O7A 1_555 1_555
Mo2A O11A 1_555 1_555
Mo3A O12A 1_555 1_555
Mo4A O4A 1_555 1_555
Mo4A O10A 1_555 1_555
Mo4A O11A 1_555 1_555
C1A N4A 1_555 1_555
C2A N3A 1_555 1_555
C3A C4A 1_555 1_555
N4A C8A 1_555 1_555
C5A C6A 1_555 1_555
C5A C7A 1_555 1_555

#END
