
#######################################################################
#
#                 Cambridge Crystallographic Data Centre
#                                CCDC 
#
#######################################################################
#
# If this CIF has been generated from an entry in the Cambridge 
# Structural Database, then it will include bibliographic, chemical, 
# crystal, experimental, refinement or atomic coordinate data resulting 
# from the CCDC's data processing and validation procedures.
#
#######################################################################

data_IGEMIR
_symmetry_cell_setting           triclinic
_symmetry_space_group_name_H-M   'P -1'
_symmetry_Int_Tables_number      2
_space_group_name_Hall           '-P 1'
loop_
_symmetry_equiv_pos_site_id
_symmetry_equiv_pos_as_xyz
1 x,y,z
2 -x,-y,-z
_cell_length_a                   10.717(3)
_cell_length_b                   11.645(3)
_cell_length_c                   12.116(3)
_cell_angle_alpha                93.429(4)
_cell_angle_beta                 116.208(3)
_cell_angle_gamma                98.566(3)
_cell_volume                     1327.98
loop_
_atom_site_label
_atom_site_type_symbol
_atom_site_fract_x
_atom_site_fract_y
_atom_site_fract_z
C1 C 0.1578(9) 0.4561(8) -0.4523(8)
H1 H 0.2216 0.5274 -0.4244
C2 C -0.0008(9) 0.3144(9) -0.6140(9)
H2 H -0.0492 0.2870 -0.6987
C3 C -0.0253(10) 0.2478(8) -0.5329(9)
H3 H -0.0867 0.1753 -0.5624
C4 C 0.0418(10) 0.2893(8) -0.4078(9)
H4 H 0.0232 0.2464 -0.3526
C5 C 0.1371(8) 0.3952(7) -0.3648(7)
C6 C 0.2165(9) 0.4455(8) -0.2318(8)
H5 H 0.3105 0.4269 -0.1988
H6 H 0.2279 0.5302 -0.2257
C7 C 0.0050(10) 0.3755(8) -0.0827(8)
H7 H -0.0771 0.3708 -0.0734
C8 C 0.2114(9) 0.3593(8) -0.0504(8)
H8 H 0.3025 0.3434 -0.0161
C9 C 0.2749(9) 0.2058(8) 0.3864(8)
H9 H 0.3389 0.2760 0.4049
C10 C 0.0818(10) 0.0755(9) 0.2473(9)
H10 H 0.0087 0.0513 0.1672
C11 C 0.0929(15) 0.0058(11) 0.3359(12)
H11 H 0.0258 -0.0626 0.3168
C12 C 0.1995(13) 0.0352(12) 0.4493(12)
H12 H 0.2110 -0.0147 0.5088
C13 C 0.2919(10) 0.1385(9) 0.4783(9)
C14 C 0.4099(11) 0.1722(11) 0.6116(10)
H13 H 0.3668 0.1745 0.6670
H14 H 0.4655 0.1110 0.6317
C15 C 0.6372(10) 0.3022(9) 0.6563(8)
H15 H 0.6868 0.2436 0.6545
C16 C 0.5842(12) 0.4635(10) 0.6749(12)
H16 H 0.5920 0.5442 0.6890
N1 N 0.0912(7) 0.4182(7) -0.5743(7)
N2 N 0.1520(7) 0.4055(6) -0.1537(6)
N3 N 0.0196(7) 0.4183(6) -0.1747(6)
N4 N 0.1212(8) 0.3389(7) -0.0028(7)
N5 N 0.1690(8) 0.1747(7) 0.2696(7)
N6 N 0.5042(8) 0.2824(8) 0.6360(7)
N7 N 0.4652(9) 0.3876(9) 0.6485(10)
N8 N 0.6913(8) 0.4150(7) 0.6795(7)
O1 O 0.2313(6) -0.3202(5) -0.0254(6)
O2 O 0.4985(7) -0.3344(5) 0.0249(6)
O3 O 0.4633(5) -0.1275(5) 0.1218(5)
O4 O 0.2658(6) -0.0847(5) -0.0748(5)
O5 O 0.4706(5) 0.0924(4) 0.0554(5)
O6 O 0.3239(6) -0.2691(5) -0.2005(5)
O7 O 0.6760(6) 0.0581(5) 0.2719(5)
O8 O 0.1979(6) -0.1296(5) 0.1255(6)
O9 O 0.4195(6) 0.0596(5) 0.2502(5)
O10 O 0.1804(6) 0.0779(5) 0.0374(5)
O11 O 0.4230(7) 0.2857(5) 0.2022(6)
O12 O 0.6371(7) 0.2465(6) 0.4124(6)
O13 O 0.7504(6) -0.1261(5) 0.1830(5)
Cu1 Cu 0.15462(14) 0.25280(12) 0.13301(11)
Cu2 Cu 0.12467(13) 0.51377(12) -0.68806(11)
Mo1 Mo 0.37709(8) -0.24594(6) -0.02850(7)
Mo2 Mo 0.63818(7) -0.03098(6) 0.13519(6)
Mo3 Mo 0.29013(8) -0.01950(6) 0.09097(7)
Mo4 Mo 0.54716(8) 0.19935(7) 0.25918(7)
C1A C -0.1578(9) 0.5439(8) -0.5477(8)
H1A H -0.2216 0.4726 -0.5756
C2A C 0.0008(9) 0.6856(9) -0.3860(9)
H2A H 0.0492 0.7130 -0.3013
C3A C 0.0253(10) 0.7522(8) -0.4671(9)
H3A H 0.0867 0.8247 -0.4376
C4A C -0.0418(10) 0.7107(8) -0.5922(9)
H4A H -0.0232 0.7536 -0.6474
C5A C -0.1371(8) 0.6048(7) -0.6352(7)
C6A C -0.2165(9) 0.5545(8) -0.7682(8)
H5A H -0.3105 0.5731 -0.8012
H6A H -0.2279 0.4698 -0.7743
C7A C -0.0050(10) 0.6245(8) -0.9173(8)
H7A H 0.0771 0.6292 -0.9266
C8A C -0.2114(9) 0.6407(8) -0.9496(8)
H8A H -0.3025 0.6566 -0.9839
C9A C 0.7251(9) -0.2058(8) -0.3864(8)
H9A H 0.6611 -0.2760 -0.4049
C10A C 0.9182(10) -0.0755(9) -0.2473(9)
H10A H 0.9913 -0.0513 -0.1672
C11A C 0.9071(15) -0.0058(11) -0.3359(12)
H11A H 0.9742 0.0626 -0.3168
C12A C 0.8005(13) -0.0352(12) -0.4493(12)
H12A H 0.7890 0.0147 -0.5088
C13A C 0.7081(10) -0.1385(9) -0.4783(9)
C14A C 0.5901(11) -0.1722(11) -0.6116(10)
H13A H 0.6332 -0.1745 -0.6670
H14A H 0.5345 -0.1110 -0.6317
C15A C 0.3628(10) -0.3022(9) -0.6563(8)
H15A H 0.3132 -0.2436 -0.6545
C16A C 0.4158(12) -0.4635(10) -0.6749(12)
H16A H 0.4080 -0.5442 -0.6890
N1A N -0.0912(7) 0.5818(7) -0.4257(7)
N2A N -0.1520(7) 0.5945(6) -0.8463(6)
N3A N -0.0196(7) 0.5817(6) -0.8253(6)
N4A N -0.1212(8) 0.6611(7) -0.9972(7)
N4A_2 N 0.8788(8) -0.3389(7) 0.0028(7)
N5A N 0.8310(8) -0.1747(7) -0.2696(7)
N6A N 0.4958(8) -0.2824(8) -0.6360(7)
N7A N 0.5348(9) -0.3876(9) -0.6485(10)
N8A N 0.3087(8) -0.4150(7) -0.6795(7)
N8_2 N -0.3087(8) 0.4150(7) -0.3205(7)
N8A_2 N 0.3087(8) 0.5850(7) -0.6795(7)
O1A O 0.7687(6) 0.3202(5) 0.0254(6)
O2A O 0.5015(7) 0.3344(5) -0.0249(6)
O3A O 0.5367(5) 0.1275(5) -0.1218(5)
O4A O 0.7342(6) 0.0847(5) 0.0748(5)
O5A O 0.5294(5) -0.0924(4) -0.0554(5)
O6A O 0.6761(6) 0.2691(5) 0.2005(5)
O7A O 0.3240(6) -0.0581(5) -0.2719(5)
O8A O 0.8021(6) 0.1296(5) -0.1255(6)
O9A O 0.5805(6) -0.0596(5) -0.2502(5)
O10A O 0.8196(6) -0.0779(5) -0.0374(5)
O11A O 0.5770(7) -0.2857(5) -0.2022(6)
O12A O 0.3629(7) -0.2465(6) -0.4124(6)
O13A O 0.2496(6) 0.1261(5) -0.1830(5)
Cu1A Cu 0.84538(14) -0.25280(12) -0.13301(11)
Cu1A_2 Cu -0.15462(14) 0.74720(12) -1.13301(11)
Cu2A Cu -0.12467(13) 0.48623(12) -0.31194(11)
Cu2A_2 Cu 0.87533(13) 0.48623(12) 0.68806(11)
Cu2_2 Cu 0.12467(13) -0.48623(12) -0.68806(11)
Mo1A Mo 0.62291(8) 0.24594(6) 0.02850(7)
Mo2A Mo 0.36182(7) 0.03098(6) -0.13519(6)
Mo3A Mo 0.70987(8) 0.01950(6) -0.09097(7)
Mo4A Mo 0.45284(8) -0.19935(7) -0.25918(7)
loop_
_geom_bond_atom_site_label_1
_geom_bond_atom_site_label_2
_geom_bond_site_symmetry_1
_geom_bond_site_symmetry_2
C1 H1 1_555 1_555
C2 H2 1_555 1_555
C3 C2 1_555 1_555
H3 C3 1_555 1_555
C4 C3 1_555 1_555
H4 C4 1_555 1_555
C5 C1 1_555 1_555
C6 C5 1_555 1_555
H5 C6 1_555 1_555
H6 C6 1_555 1_555
C7 H7 1_555 1_555
C8 H8 1_555 1_555
C9 H9 1_555 1_555
C10 H10 1_555 1_555
C11 C10 1_555 1_555
H11 C11 1_555 1_555
C12 C11 1_555 1_555
H12 C12 1_555 1_555
C13 C9 1_555 1_555
C14 C13 1_555 1_555
H13 C14 1_555 1_555
H14 C14 1_555 1_555
C15 H15 1_555 1_555
C16 H16 1_555 1_555
N1 C1 1_555 1_555
N2 C6 1_555 1_555
N3 C7 1_555 1_555
N4 C7 1_555 1_555
N5 C9 1_555 1_555
N6 C14 1_555 1_555
N7 C16 1_555 1_555
N8 C15 1_555 1_555
O1 Mo1 1_555 1_555
O2 Mo1 1_555 1_555
O3 Mo1 1_555 1_555
O4 Mo1 1_555 1_555
O5 Mo2 1_555 1_555
O6 Mo1 1_555 1_555
O7 Mo2 1_555 1_555
O8 Mo3 1_555 1_555
O9 Mo3 1_555 1_555
O10 Cu1 1_555 1_555
O11 Mo4 1_555 1_555
O12 Mo4 1_555 1_555
O13 Mo2 1_555 1_555
Cu1 N4 1_555 1_555
Cu2 N1 1_555 1_555
Mo1 O5A 1_555 1_555
Mo2 O3 1_555 1_555
Mo3 O3 1_555 1_555
Mo4 O5 1_555 1_555
C1A H1A 1_555 1_555
C2A H2A 1_555 1_555
C3A C2A 1_555 1_555
H3A C3A 1_555 1_555
C4A C3A 1_555 1_555
H4A C4A 1_555 1_555
C5A C1A 1_555 1_555
C6A C5A 1_555 1_555
H5A C6A 1_555 1_555
H6A C6A 1_555 1_555
C7A H7A 1_555 1_555
C8A H8A 1_555 1_555
C9A H9A 1_555 1_555
C10A H10A 1_555 1_555
C11A C10A 1_555 1_555
H11A C11A 1_555 1_555
C12A C11A 1_555 1_555
H12A C12A 1_555 1_555
C13A C9A 1_555 1_555
C14A C13A 1_555 1_555
H13A C14A 1_555 1_555
H14A C14A 1_555 1_555
C15A H15A 1_555 1_555
C16A H16A 1_555 1_555
N1A C1A 1_555 1_555
N2A C6A 1_555 1_555
N3A Cu2 1_555 1_555
N4A C7A 1_555 1_555
N4A_2 Cu1A 1_555 1_555
N5A C9A 1_555 1_555
N6A C14A 1_555 1_555
N7A C16A 1_555 1_555
N8A C15A 1_555 1_555
N8_2 Cu2A 1_555 1_555
N8A_2 Cu2 1_555 1_555
O1A Mo1A 1_555 1_555
O2A Mo1A 1_555 1_555
O3A Mo1A 1_555 1_555
O4A Mo2 1_555 1_555
O5A Mo2 1_555 1_555
O6A Mo4 1_555 1_555
O7A Mo2A 1_555 1_555
O8A Mo3A 1_555 1_555
O9A Mo3A 1_555 1_555
O10A Cu1A 1_555 1_555
O11A Mo4A 1_555 1_555
O12A Mo4A 1_555 1_555
O13A Mo2A 1_555 1_555
Cu1A N5A 1_555 1_555
Cu1A_2 N4A 1_555 1_555
Cu2A N3 1_555 1_555
Cu2A_2 N8 1_555 1_555
Cu2_2 N8A 1_555 1_555
Mo1A O5 1_555 1_555
Mo2A O4 1_555 1_555
Mo3A O3A 1_555 1_555
Mo4A O6 1_555 1_555
C2 N1 1_555 1_555
C4 C5 1_555 1_555
C8 N2 1_555 1_555
C8 N4 1_555 1_555
C10 N5 1_555 1_555
C12 C13 1_555 1_555
C15 N6 1_555 1_555
C16 N8 1_555 1_555
N2 N3 1_555 1_555
N5 Cu1 1_555 1_555
N6 N7 1_555 1_555
O4 Mo3 1_555 1_555
O5 Mo3 1_555 1_555
O5 Mo2A 1_555 1_555
O7 Mo4 1_555 1_555
O9 Mo4 1_555 1_555
O10 Mo3 1_555 1_555
C2A N1A 1_555 1_555
C4A C5A 1_555 1_555
C7A N3A 1_555 1_555
C8A N2A 1_555 1_555
C8A N4A 1_555 1_555
C10A N5A 1_555 1_555
C12A C13A 1_555 1_555
C15A N6A 1_555 1_555
C16A N8A 1_555 1_555
N1A Cu2A 1_555 1_555
N2A N3A 1_555 1_555
N6A N7A 1_555 1_555
O3A Mo2A 1_555 1_555
O4A Mo1A 1_555 1_555
O4A Mo3A 1_555 1_555
O5A Mo2A 1_555 1_555
O5A Mo3A 1_555 1_555
O5A Mo4A 1_555 1_555
O6A Mo1A 1_555 1_555
O7A Mo4A 1_555 1_555
O9A Mo4A 1_555 1_555
O10A Mo3A 1_555 1_555

#END
