
#######################################################################
#
#                 Cambridge Crystallographic Data Centre
#                                CCDC 
#
#######################################################################
#
# If this CIF has been generated from an entry in the Cambridge 
# Structural Database, then it will include bibliographic, chemical, 
# crystal, experimental, refinement or atomic coordinate data resulting 
# from the CCDC's data processing and validation procedures.
#
#######################################################################

data_IGENAK
_symmetry_cell_setting           monoclinic
_symmetry_space_group_name_H-M   'P 21/c'
_symmetry_Int_Tables_number      14
_space_group_name_Hall           '-P 2ybc'
loop_
_symmetry_equiv_pos_site_id
_symmetry_equiv_pos_as_xyz
1 x,y,z
2 -x,1/2+y,1/2-z
3 -x,-y,-z
4 x,1/2-y,1/2+z
_cell_length_a                   13.260(3)
_cell_length_b                   17.889(4)
_cell_length_c                   10.038(2)
_cell_angle_alpha                90
_cell_angle_beta                 99.99(3)
_cell_angle_gamma                90
_cell_volume                     2344.99
loop_
_atom_site_label
_atom_site_type_symbol
_atom_site_fract_x
_atom_site_fract_y
_atom_site_fract_z
Hg1 Hg 0.18911(5) 0.03662(3) 0.32312(6)
I1 I 0.29368(9) -0.08171(6) 0.42414(15)
I2 I 0.07621(12) 0.10295(9) 0.11511(12)
N1 N 0.3021(11) 0.1420(7) 0.4208(14)
N2 N 0.4869(9) 0.1663(6) 0.7286(13)
H1 H 0.4793 0.1229 0.7622
N3 N 1.1048(10) 0.4276(8) 1.0105(13)
N4 N 0.9202(9) 0.2856(7) 1.0643(11)
H2 H 0.9032 0.2758 0.9795
N5 N 0.6786(11) 0.0897(8) 1.0920(15)
C1 C 0.3700(11) 0.1286(8) 0.5320(16)
H3 H 0.3857 0.0795 0.5578
C2 C 0.2787(12) 0.2108(11) 0.3854(18)
H4 H 0.2300 0.2188 0.3082
C3 C 0.3222(16) 0.2733(10) 0.4562(19)
H5 H 0.3050 0.3218 0.4273
C4 C 0.3927(13) 0.2586(8) 0.5726(19)
H6 H 0.4229 0.2982 0.6250
C5 C 0.4184(10) 0.1872(7) 0.6113(14)
C6 C 0.5652(11) 0.2106(7) 0.7934(14)
C7 C 0.6352(10) 0.1776(7) 0.9135(14)
C8 C 0.7211(10) 0.2211(7) 0.9661(13)
H7 H 0.7345 0.2654 0.9239
C9 C 0.7852(10) 0.1971(7) 1.0816(15)
C10 C 0.7603(11) 0.1326(8) 1.1432(16)
H8 H 0.8014 0.1179 1.2236
C11 C 0.6163(13) 0.1129(9) 0.9837(17)
H9 H 0.5575 0.0854 0.9525
C12 C 1.0357(10) 0.3707(8) 0.9917(13)
H10 H 1.0167 0.3508 0.9054
C13 C 0.9916(10) 0.3404(8) 1.0991(13)
C14 C 1.0256(15) 0.3687(12) 1.2251(15)
H11 H 1.0002 0.3498 1.2991
C15 C 1.0989(16) 0.4263(13) 1.2438(18)
H12 H 1.1225 0.4456 1.3295
C16 C 1.1342(15) 0.4530(10) 1.1347(17)
H13 H 1.1821 0.4914 1.1479
C17 C 0.8732(10) 0.2448(7) 1.1501(14)
O1 O 0.5815(9) 0.2725(6) 0.7534(14)
O2 O 0.8979(8) 0.2441(6) 1.2738(10)
Hg1C Hg 1.18911(5) 0.46338(3) 0.82312(6)
N3C N 0.1048(10) 0.0724(8) 0.5105(13)
C18 C 0.487(2) 0.0435(13) 0.247(3)
H14 H 0.5252 0.0848 0.2917
H15 H 0.4474 0.0208 0.3073
H16 H 0.4426 0.0611 0.1677
O3 O 0.5579(9) -0.0113(7) 0.2086(14)
H17 H 0.6074 0.0102 0.1873
loop_
_geom_bond_atom_site_label_1
_geom_bond_atom_site_label_2
_geom_bond_site_symmetry_1
_geom_bond_site_symmetry_2
Hg1 I1 1_555 1_555
I2 Hg1 1_555 1_555
N1 Hg1 1_555 1_555
N2 H1 1_555 1_555
N3 C12 1_555 1_555
N4 H2 1_555 1_555
N5 C10 1_555 1_555
C1 N1 1_555 1_555
H3 C1 1_555 1_555
C2 N1 1_555 1_555
H4 C2 1_555 1_555
C3 C2 1_555 1_555
H5 C3 1_555 1_555
C4 C3 1_555 1_555
H6 C4 1_555 1_555
C5 N2 1_555 1_555
C6 N2 1_555 1_555
C7 C6 1_555 1_555
C8 C7 1_555 1_555
H7 C8 1_555 1_555
C9 C8 1_555 1_555
C10 C9 1_555 1_555
H8 C10 1_555 1_555
C11 N5 1_555 1_555
H9 C11 1_555 1_555
C12 H10 1_555 1_555
C13 N4 1_555 1_555
C14 C13 1_555 1_555
H11 C14 1_555 1_555
C15 C14 1_555 1_555
H12 C15 1_555 1_555
C16 N3 1_555 1_555
H13 C16 1_555 1_555
C17 N4 1_555 1_555
C18 H14 1_555 1_555
H15 C18 1_555 1_555
H16 C18 1_555 1_555
O1 C6 1_555 1_555
O2 C17 1_555 1_555
O3 C18 1_555 1_555
H17 O3 1_555 1_555
Hg1C N3 1_555 1_555
N3C Hg1 1_555 1_555
C1 C5 1_555 1_555
C4 C5 1_555 1_555
C7 C11 1_555 1_555
C9 C17 1_555 1_555
C12 C13 1_555 1_555
C15 C16 1_555 1_555

#END
