
#######################################################################
#
#                 Cambridge Crystallographic Data Centre
#                                CCDC 
#
#######################################################################
#
# If this CIF has been generated from an entry in the Cambridge 
# Structural Database, then it will include bibliographic, chemical, 
# crystal, experimental, refinement or atomic coordinate data resulting 
# from the CCDC's data processing and validation procedures.
#
#######################################################################

data_IGEPAL
_symmetry_cell_setting           monoclinic
_symmetry_space_group_name_H-M   'P 21/n'
_symmetry_Int_Tables_number      14
_space_group_name_Hall           '-P 2yn'
loop_
_symmetry_equiv_pos_site_id
_symmetry_equiv_pos_as_xyz
1 x,y,z
2 1/2+x,1/2-y,1/2+z
3 -x,-y,-z
4 1/2-x,1/2+y,1/2-z
_cell_length_a                   5.6315(5)
_cell_length_b                   12.2419(10)
_cell_length_c                   16.4002(14)
_cell_angle_alpha                90.00
_cell_angle_beta                 99.309(2)
_cell_angle_gamma                90.00
_cell_volume                     1115.74
loop_
_atom_site_label
_atom_site_type_symbol
_atom_site_fract_x
_atom_site_fract_y
_atom_site_fract_z
Mn1 Mn 0.79270(7) 0.44645(3) 0.41811(3)
P1 P 0.27530(12) 0.58529(6) 0.38008(4)
P2 P 0.23663(12) 0.34108(6) 0.34823(4)
O1 O 0.5474(3) 0.57858(15) 0.40074(12)
O3 O 0.1372(3) 0.56355(15) 0.45114(11)
O4 O 0.1948(3) 0.69832(15) 0.34304(12)
O5 O 0.5065(3) 0.33208(15) 0.37637(12)
O6 O 0.0788(3) 0.32797(15) 0.41439(11)
O7 O 0.1456(3) 0.25877(16) 0.27849(12)
H3 H 0.223(5) 0.235(2) 0.2239(12)
O8 O -0.0937(3) 0.48372(15) 0.29075(12)
H4 H -0.1397 0.5401 0.2648
C1 C 0.1691(5) 0.4786(2) 0.30343(16)
C2 C 0.2657(5) 0.4894(2) 0.22173(17)
H5 H 0.2318 0.5622 0.1994
H6 H 0.1883 0.4358 0.1827
H7 H 0.4381 0.4772 0.2313
P1_2 P 1.27530(12) 0.58529(6) 0.38008(4)
P2_2 P 1.23663(12) 0.34108(6) 0.34823(4)
O1_2 O 1.5474(3) 0.57858(15) 0.40074(12)
O3_2 O 1.1372(3) 0.56355(15) 0.45114(11)
O4_2 O 1.1948(3) 0.69832(15) 0.34304(12)
O5_2 O 1.5065(3) 0.33208(15) 0.37637(12)
O6_2 O 1.0788(3) 0.32797(15) 0.41439(11)
O7_2 O 1.1456(3) 0.25877(16) 0.27849(12)
H3_2 H 1.223(5) 0.235(2) 0.2239(12)
O8_2 O 0.9063(3) 0.48372(15) 0.29075(12)
H4_2 H 0.8603 0.5401 0.2648
C1_2 C 1.1691(5) 0.4786(2) 0.30343(16)
C2_2 C 1.2657(5) 0.4894(2) 0.22173(17)
H5_2 H 1.2318 0.5622 0.1994
H6_2 H 1.1883 0.4358 0.1827
H7_2 H 1.4381 0.4772 0.2313
Mn1_2 Mn 1.79270(7) 0.44645(3) 0.41811(3)
O3B O 0.8628(3) 0.43645(15) 0.54886(11)
Mn1_3 Mn -0.20730(7) 0.44645(3) 0.41811(3)
Mn1B Mn 0.20730(7) 0.55355(3) 0.58189(3)
Mn1B_2 Mn 1.20730(7) 0.55355(3) 0.58189(3)
O3_3 O 2.1372(3) 0.56355(15) 0.45114(11)
O3B_2 O 1.8628(3) 0.43645(15) 0.54886(11)
O6_3 O 2.0788(3) 0.32797(15) 0.41439(11)
O8_3 O 1.9063(3) 0.48372(15) 0.29075(12)
H4_3 H 1.8603 0.5401 0.2648
O2 O -0.2621(4) 0.14914(17) 0.30980(15)
H1 H -0.3568 0.1984 0.3301
H2 H -0.1305 0.1796 0.2946
N1 N 0.1733(4) 0.23097(18) 0.56861(15)
H8 H 0.3120 0.2612 0.5935
H9 H 0.0584 0.2414 0.6001
H10 H 0.1279 0.2625 0.5190
C3 C 0.2092(5) 0.1112(2) 0.5574(2)
H11 H 0.2479 0.0760 0.6116
H12 H 0.3446 0.0996 0.5277
C4 C -0.0173(5) 0.0600(2) 0.5091(2)
H13 H -0.1494 0.0675 0.5410
H14 H -0.0626 0.0995 0.4570
C4B C 0.0173(5) -0.0600(2) 0.4909(2)
C3B C -0.2092(5) -0.1112(2) 0.4426(2)
N1B N -0.1733(4) -0.23097(18) 0.43139(15)
H8B H -0.3120 -0.2612 0.4065
H9B H -0.0584 -0.2414 0.3999
H10B H -0.1279 -0.2625 0.4810
H11B H -0.2479 -0.0760 0.3884
H12B H -0.3446 -0.0996 0.4723
H13B H 0.1494 -0.0675 0.4590
H14B H 0.0626 -0.0995 0.5430
loop_
_geom_bond_atom_site_label_1
_geom_bond_atom_site_label_2
_geom_bond_site_symmetry_1
_geom_bond_site_symmetry_2
Mn1 O1 1_555 1_555
P1 O1 1_555 1_555
P2 O5 1_555 1_555
O2 H1 1_555 1_555
H2 O2 1_555 1_555
O3 P1 1_555 1_555
O4 P1 1_555 1_555
O5 Mn1 1_555 1_555
O6 P2 1_555 1_555
O7 P2 1_555 1_555
H3 O7 1_555 1_555
O8 H4 1_555 1_555
C1 P1 1_555 1_555
C2 C1 1_555 1_555
H5 C2 1_555 1_555
H6 C2 1_555 1_555
H7 C2 1_555 1_555
N1 H8 1_555 1_555
H9 N1 1_555 1_555
H10 N1 1_555 1_555
C3 N1 1_555 1_555
H11 C3 1_555 1_555
H12 C3 1_555 1_555
C4 C3 1_555 1_555
H13 C4 1_555 1_555
H14 C4 1_555 1_555
C4B C4 1_555 1_555
C3B C4B 1_555 1_555
N1B C3B 1_555 1_555
H8B N1B 1_555 1_555
H9B N1B 1_555 1_555
H10B N1B 1_555 1_555
H11B C3B 1_555 1_555
H12B C3B 1_555 1_555
H13B C4B 1_555 1_555
H14B C4B 1_555 1_555
P1_2 O1_2 1_555 1_555
P2_2 O5_2 1_555 1_555
O1_2 Mn1_2 1_555 1_555
O3_2 Mn1 1_555 1_555
O4_2 P1_2 1_555 1_555
O5_2 Mn1_2 1_555 1_555
O6_2 Mn1 1_555 1_555
O7_2 P2_2 1_555 1_555
H3_2 O7_2 1_555 1_555
O8_2 Mn1 1_555 1_555
H4_2 O8_2 1_555 1_555
C1_2 P1_2 1_555 1_555
C2_2 C1_2 1_555 1_555
H5_2 C2_2 1_555 1_555
H6_2 C2_2 1_555 1_555
H7_2 C2_2 1_555 1_555
Mn1_2 O3_3 1_555 1_555
O3B Mn1 1_555 1_555
Mn1_3 O3 1_555 1_555
Mn1B O3 1_555 1_555
Mn1B_2 O3_2 1_555 1_555
O3B_2 Mn1_2 1_555 1_555
O6_3 Mn1_2 1_555 1_555
O8_3 Mn1_2 1_555 1_555
H4_3 O8_3 1_555 1_555
P2 C1 1_555 1_555
O6 Mn1_3 1_555 1_555
O8 C1 1_555 1_555
O8 Mn1_3 1_555 1_555
P1_2 O3_2 1_555 1_555
P2_2 C1_2 1_555 1_555
P2_2 O6_2 1_555 1_555
O8_2 C1_2 1_555 1_555
O3B Mn1B_2 1_555 1_555

#END
