
#######################################################################
#
#                 Cambridge Crystallographic Data Centre
#                                CCDC 
#
#######################################################################
#
# If this CIF has been generated from an entry in the Cambridge 
# Structural Database, then it will include bibliographic, chemical, 
# crystal, experimental, refinement or atomic coordinate data resulting 
# from the CCDC's data processing and validation procedures.
#
#######################################################################

data_IGEPIT
_symmetry_cell_setting           monoclinic
_symmetry_space_group_name_H-M   'P 21/n'
_symmetry_Int_Tables_number      14
_space_group_name_Hall           '-P 2yn'
loop_
_symmetry_equiv_pos_site_id
_symmetry_equiv_pos_as_xyz
1 x,y,z
2 1/2+x,1/2-y,1/2+z
3 -x,-y,-z
4 1/2-x,1/2+y,1/2-z
_cell_length_a                   5.6597(2)
_cell_length_b                   12.8273(6)
_cell_length_c                   16.4012(7)
_cell_angle_alpha                90
_cell_angle_beta                 98.4850(10)
_cell_angle_gamma                90
_cell_volume                     1177.67
loop_
_atom_site_label
_atom_site_type_symbol
_atom_site_fract_x
_atom_site_fract_y
_atom_site_fract_z
O2 O -0.2654(4) 0.16010(18) 0.29829(17)
H1 H -0.3613 0.2078 0.3172
H2 H -0.1255 0.1874 0.2882
N1 N 0.201(4) 1.2609(11) 0.5601(17)
H8 H 0.2895 1.3173 0.5772
H9 H 0.0956 1.2486 0.5950
H10 H 0.1219 1.2726 0.5092
C3 C 0.3590(17) 1.1696(7) 0.5583(7)
H11 H 0.4236 1.1496 0.6149
H12 H 0.4934 1.1882 0.5298
C4 C 0.2255(12) 1.0770(5) 0.5146(6)
C5 C -0.016(2) 1.0613(12) 0.5457(10)
C6 C 0.125(3) 1.0462(12) 0.4730(7)
C7 C 0.042(2) 1.0338(9) 0.5626(7)
C8 C 0.052(2) 1.0707(8) 0.4723(5)
C9 C 0.1645(13) 1.0651(5) 0.5640(4)
C10 C 0.3137(17) 1.1613(7) 0.5909(6)
H13 H 0.4550 1.1621 0.5629
H14 H 0.3686 1.1575 0.6504
N2 N 0.178(4) 1.2588(11) 0.5721(18)
H15 H 0.2679 1.3135 0.5920
H16 H 0.1382 1.2654 0.5171
H17 H 0.0439 1.2570 0.5957
C6B C -0.125(3) 0.9538(12) 0.5270(7)
C4B C -0.2255(12) 0.9230(5) 0.4854(6)
C3B C -0.3590(17) 0.8304(7) 0.4417(7)
N1B N -0.201(4) 0.7391(11) 0.4399(17)
H8B H -0.2895 0.6827 0.4228
N2B N -0.178(4) 0.7412(11) 0.4279(18)
H9B H -0.0956 0.7514 0.4050
H10B H -0.1219 0.7274 0.4908
C10B C -0.3137(17) 0.8387(7) 0.4091(6)
H11B H -0.4236 0.8504 0.3851
C5B C 0.016(2) 0.9387(12) 0.4543(10)
C7B C -0.042(2) 0.9662(9) 0.4374(7)
C8B C -0.052(2) 0.9293(8) 0.5277(5)
C9B C -0.1645(13) 0.9349(5) 0.4360(4)
H12B H -0.4934 0.8118 0.4702
H13B H -0.4550 0.8379 0.4371
H14B H -0.3686 0.8425 0.3496
H15B H -0.2679 0.6865 0.4080
H16B H -0.1382 0.7346 0.4829
H17B H -0.0439 0.7430 0.4043
Mn1 Mn 0.78515(6) 0.43986(3) 0.41626(2)
P1 P 0.27486(11) 0.57786(5) 0.38100(4)
P2 P 0.22905(11) 0.34582(5) 0.34174(4)
O1 O 0.5439(3) 0.56687(13) 0.39979(11)
O3 O 0.1395(3) 0.55888(13) 0.45303(11)
O4 O 0.2019(3) 0.68684(14) 0.34546(11)
H3 H 0.261(5) 0.723(2) 0.292(2)
O5 O 0.4939(3) 0.33673(14) 0.37241(12)
O6 O 0.0652(3) 0.33152(13) 0.40691(10)
O7 O 0.1464(3) 0.27099(15) 0.27008(11)
O8 O -0.0952(3) 0.48729(14) 0.29128(11)
H4 H -0.1380 0.5419 0.2663
C1 C 0.1647(4) 0.48009(19) 0.30284(15)
C2 C 0.2644(5) 0.4988(2) 0.22263(15)
H5 H 0.2278 0.5694 0.2038
H6 H 0.1926 0.4498 0.1811
H7 H 0.4362 0.4890 0.2320
P1_2 P 1.27486(11) 0.57786(5) 0.38100(4)
P2_2 P 1.22905(11) 0.34582(5) 0.34174(4)
O1_2 O 1.5439(3) 0.56687(13) 0.39979(11)
O3_2 O 1.1395(3) 0.55888(13) 0.45303(11)
O4_2 O 1.2019(3) 0.68684(14) 0.34546(11)
H3_2 H 1.261(5) 0.723(2) 0.292(2)
O5_2 O 1.4939(3) 0.33673(14) 0.37241(12)
O6_2 O 1.0652(3) 0.33152(13) 0.40691(10)
O7_2 O 1.1464(3) 0.27099(15) 0.27008(11)
O8_2 O 0.9048(3) 0.48729(14) 0.29128(11)
H4_2 H 0.8620 0.5419 0.2663
C1_2 C 1.1647(4) 0.48009(19) 0.30284(15)
C2_2 C 1.2644(5) 0.4988(2) 0.22263(15)
H5_2 H 1.2278 0.5694 0.2038
H6_2 H 1.1926 0.4498 0.1811
H7_2 H 1.4362 0.4890 0.2320
Mn1_2 Mn 1.78515(6) 0.43986(3) 0.41626(2)
O3B O 0.8605(3) 0.44112(13) 0.54697(11)
Mn1_3 Mn -0.21485(6) 0.43986(3) 0.41626(2)
Mn1B Mn 0.21485(6) 0.56014(3) 0.58374(2)
Mn1B_2 Mn 1.21485(6) 0.56014(3) 0.58374(2)
O3_3 O 2.1395(3) 0.55888(13) 0.45303(11)
O3B_2 O 1.8605(3) 0.44112(13) 0.54697(11)
O6_3 O 2.0652(3) 0.33152(13) 0.40691(10)
O8_3 O 1.9048(3) 0.48729(14) 0.29128(11)
H4_3 H 1.8620 0.5419 0.2663
loop_
_geom_bond_atom_site_label_1
_geom_bond_atom_site_label_2
_geom_bond_site_symmetry_1
_geom_bond_site_symmetry_2
Mn1 O1 1_555 1_555
P1 O1 1_555 1_555
P2 O5 1_555 1_555
O2 H1 1_555 1_555
H2 O2 1_555 1_555
O3 P1 1_555 1_555
O4 P1 1_555 1_555
H3 O4 1_555 1_555
O5 Mn1 1_555 1_555
O6 P2 1_555 1_555
O7 P2 1_555 1_555
O8 H4 1_555 1_555
C1 P1 1_555 1_555
C2 C1 1_555 1_555
H5 C2 1_555 1_555
H6 C2 1_555 1_555
H7 C2 1_555 1_555
N1 H8 1_555 1_555
H8 N2 1_555 1_555
H9 N1 1_555 1_555
H10 N1 1_555 1_555
C3 N1 1_555 1_555
H11 C3 1_555 1_555
H12 C3 1_555 1_555
C4 C3 1_555 1_555
C5 C4 1_555 1_555
C6 C4 1_555 1_555
C7 C4 1_555 1_555
C8 C4 1_555 1_555
C9 C3 1_555 1_555
C10 N1 1_555 1_555
H13 C3 1_555 1_555
H14 H11 1_555 1_555
N2 N1 1_555 1_555
H15 N1 1_555 1_555
H16 N1 1_555 1_555
H17 N1 1_555 1_555
C6B C5 1_555 1_555
C4B C6B 1_555 1_555
C3B C4B 1_555 1_555
N1B C3B 1_555 1_555
H8B N1B 1_555 1_555
N2B C3B 1_555 1_555
H9B N1B 1_555 1_555
H10B N1B 1_555 1_555
C10B C4B 1_555 1_555
H11B C3B 1_555 1_555
C5B C6 1_555 1_555
C7B C6 1_555 1_555
C8B C5 1_555 1_555
C9B C6B 1_555 1_555
H12B C3B 1_555 1_555
H13B C3B 1_555 1_555
H14B C10B 1_555 1_555
H15B N1B 1_555 1_555
H16B N1B 1_555 1_555
H17B N1B 1_555 1_555
P1_2 O1_2 1_555 1_555
P2_2 O5_2 1_555 1_555
O1_2 Mn1_2 1_555 1_555
O3_2 Mn1 1_555 1_555
O4_2 P1_2 1_555 1_555
H3_2 O4_2 1_555 1_555
O5_2 Mn1_2 1_555 1_555
O6_2 Mn1 1_555 1_555
O7_2 P2_2 1_555 1_555
O8_2 Mn1 1_555 1_555
H4_2 O8_2 1_555 1_555
C1_2 P1_2 1_555 1_555
C2_2 C1_2 1_555 1_555
H5_2 C2_2 1_555 1_555
H6_2 C2_2 1_555 1_555
H7_2 C2_2 1_555 1_555
Mn1_2 O3_3 1_555 1_555
O3B Mn1 1_555 1_555
Mn1_3 O3 1_555 1_555
Mn1B O3 1_555 1_555
Mn1B_2 O3_2 1_555 1_555
O3B_2 Mn1_2 1_555 1_555
O6_3 Mn1_2 1_555 1_555
O8_3 Mn1_2 1_555 1_555
H4_3 O8_3 1_555 1_555
P2 C1 1_555 1_555
O6 Mn1_3 1_555 1_555
O8 C1 1_555 1_555
O8 Mn1_3 1_555 1_555
H8 H15 1_555 1_555
H9 N2 1_555 1_555
H9 H17 1_555 1_555
H10 N2 1_555 1_555
H10 H16 1_555 1_555
C3 N2 1_555 1_555
C3 C10 1_555 1_555
H11 C10 1_555 1_555
H12 H13 1_555 1_555
C4 C9 1_555 1_555
C4 C10 1_555 1_555
C5 C8 1_555 1_555
C5 C7 1_555 1_555
C5 C6 1_555 1_555
C5 C9 1_555 1_555
C6 C9 1_555 1_555
C6 C7 1_555 1_555
C6 C8 1_555 1_555
C7 C6B 1_555 1_555
C7 C8B 1_555 1_555
C7 C8 1_555 1_555
C7 C9 1_555 1_555
C8 C5B 1_555 1_555
C8 C7B 1_555 1_555
C8 C9 1_555 1_555
C9 C10 1_555 1_555
C10 H14 1_555 1_555
C10 H13 1_555 1_555
C10 N2 1_555 1_555
N2 H16 1_555 1_555
N2 H15 1_555 1_555
N2 H17 1_555 1_555
C6B C5B 1_555 1_555
C6B C7B 1_555 1_555
C6B C8B 1_555 1_555
C4B C5B 1_555 1_555
C4B C8B 1_555 1_555
C4B C7B 1_555 1_555
C4B C9B 1_555 1_555
C3B C10B 1_555 1_555
C3B C9B 1_555 1_555
N1B C10B 1_555 1_555
N1B N2B 1_555 1_555
H8B N2B 1_555 1_555
H8B H15B 1_555 1_555
N2B H10B 1_555 1_555
N2B H15B 1_555 1_555
N2B H17B 1_555 1_555
N2B H9B 1_555 1_555
N2B C10B 1_555 1_555
N2B H16B 1_555 1_555
H9B H17B 1_555 1_555
H10B H16B 1_555 1_555
C10B H11B 1_555 1_555
C10B C9B 1_555 1_555
C10B H13B 1_555 1_555
H11B H14B 1_555 1_555
C5B C7B 1_555 1_555
C5B C8B 1_555 1_555
C5B C9B 1_555 1_555
C7B C8B 1_555 1_555
C7B C9B 1_555 1_555
C8B C9B 1_555 1_555
H12B H13B 1_555 1_555
P1_2 O3_2 1_555 1_555
P2_2 C1_2 1_555 1_555
P2_2 O6_2 1_555 1_555
O8_2 C1_2 1_555 1_555
O3B Mn1B_2 1_555 1_555

#END
