
#######################################################################
#
#                 Cambridge Crystallographic Data Centre
#                                CCDC 
#
#######################################################################
#
# If this CIF has been generated from an entry in the Cambridge 
# Structural Database, then it will include bibliographic, chemical, 
# crystal, experimental, refinement or atomic coordinate data resulting 
# from the CCDC's data processing and validation procedures.
#
#######################################################################

data_IGESIY
_symmetry_cell_setting           orthorhombic
_symmetry_space_group_name_H-M   'P n m a'
_symmetry_Int_Tables_number      62
_space_group_name_Hall           '-P 2ac 2n'
loop_
_symmetry_equiv_pos_site_id
_symmetry_equiv_pos_as_xyz
1 x,y,z
2 1/2-x,-y,1/2+z
3 -x,1/2+y,-z
4 1/2+x,1/2-y,1/2-z
5 -x,-y,-z
6 1/2+x,y,1/2-z
7 x,1/2-y,z
8 1/2-x,1/2+y,1/2+z
_cell_length_a                   7.7017(3)
_cell_length_b                   22.7746(7)
_cell_length_c                   11.5195(4)
_cell_angle_alpha                90
_cell_angle_beta                 90
_cell_angle_gamma                90
_cell_volume                     2020.56
loop_
_atom_site_label
_atom_site_type_symbol
_atom_site_fract_x
_atom_site_fract_y
_atom_site_fract_z
C1 C 0.7848(4) 0.7500 0.6199(2)
H1 H 0.9054 0.7500 0.6231
Ni1 Ni 0.22750(4) 0.7500 0.26417(3)
O1 O 0.31163(16) 0.68883(5) 0.38176(11)
C2 C 0.6956(3) 0.69776(9) 0.61752(16)
H2 H 0.7565 0.6625 0.6201
O2 O 0.05433(16) 0.65501(6) 0.43902(13)
C3 C 0.5142(2) 0.69689(8) 0.61120(16)
O3 O 0.1539(2) 0.44258(6) 0.53992(15)
H3 H 0.1239 0.4083 0.5489
C4 C 0.4252(3) 0.7500 0.6073(2)
H4 H 0.3047 0.7500 0.6020
O4 O 0.2839(2) 0.42822(6) 0.71077(14)
C5 C 0.4300(2) 0.63768(8) 0.61237(16)
O5 O -0.0307(2) 0.7500 0.32355(15)
H5 H -0.024(3) 0.7202(6) 0.3664(16)
C6 C 0.4877(3) 0.59824(9) 0.69728(19)
H6 H 0.5684 0.6109 0.7519
O6 O 0.16015(18) 0.68514(6) 0.15325(12)
H7 H 0.177(4) 0.6504(4) 0.175(2)
H8 H 0.0557(9) 0.6855(11) 0.132(2)
C7 C 0.4284(3) 0.54132(9) 0.7022(2)
H9 H 0.4671 0.5164 0.7607
C8 C 0.3115(3) 0.52110(8) 0.62046(18)
C9 C 0.2483(2) 0.55959(8) 0.53771(16)
H10 H 0.1678 0.5463 0.4835
C10 C 0.3031(2) 0.61794(8) 0.53405(16)
C11 C 0.2175(2) 0.65666(7) 0.44465(15)
C12 C 0.2501(3) 0.45921(9) 0.62873(19)
O1F O 0.31163(16) 0.81117(5) 0.38176(11)
C2F C 0.6956(3) 0.80224(9) 0.61752(16)
H2F H 0.7565 0.8375 0.6201
O2F O 0.05433(16) 0.84499(6) 0.43902(13)
C3F C 0.5142(2) 0.80311(8) 0.61120(16)
O3F O 0.1539(2) 1.05742(6) 0.53992(15)
H3F H 0.1239 1.0917 0.5489
O4F O 0.2839(2) 1.07178(6) 0.71077(14)
C5F C 0.4300(2) 0.86232(8) 0.61237(16)
C6F C 0.4877(3) 0.90176(9) 0.69728(19)
H6F H 0.5684 0.8891 0.7519
C7F C 0.4284(3) 0.95868(9) 0.7022(2)
H9F H 0.4671 0.9836 0.7607
C8F C 0.3115(3) 0.97890(8) 0.62046(18)
C9F C 0.2483(2) 0.94041(8) 0.53771(16)
H10F H 0.1678 0.9537 0.4835
C10F C 0.3031(2) 0.88206(8) 0.53405(16)
C11F C 0.2175(2) 0.84334(7) 0.44465(15)
C12F C 0.2501(3) 1.04079(9) 0.62873(19)
H5F H -0.024(3) 0.7798(6) 0.3664(16)
O6F O 0.16015(18) 0.81486(6) 0.15325(12)
H7F H 0.177(4) 0.8496(4) 0.175(2)
H8F H 0.0557(9) 0.8145(11) 0.132(2)
Ni1C Ni -0.27250(4) 0.7500 0.23583(3)
O5C O 0.4693(2) 0.7500 0.17645(15)
loop_
_geom_bond_atom_site_label_1
_geom_bond_atom_site_label_2
_geom_bond_site_symmetry_1
_geom_bond_site_symmetry_2
C1 H1 1_555 1_555
Ni1 O1 1_555 1_555
O1 C11 1_555 1_555
C2 C1 1_555 1_555
H2 C2 1_555 1_555
O2 C11 1_555 1_555
C3 C2 1_555 1_555
O3 H3 1_555 1_555
C4 C3 1_555 1_555
H4 C4 1_555 1_555
O4 C12 1_555 1_555
C5 C3 1_555 1_555
O5 Ni1 1_555 1_555
H5 O5 1_555 1_555
C6 C5 1_555 1_555
H6 C6 1_555 1_555
O6 Ni1 1_555 1_555
H7 O6 1_555 1_555
H8 O6 1_555 1_555
C7 C6 1_555 1_555
H9 C7 1_555 1_555
C8 C7 1_555 1_555
C9 C8 1_555 1_555
H10 C9 1_555 1_555
C10 C5 1_555 1_555
C11 C10 1_555 1_555
C12 O3 1_555 1_555
O1F Ni1 1_555 1_555
C2F C1 1_555 1_555
H2F C2F 1_555 1_555
O2F C11F 1_555 1_555
C3F C4 1_555 1_555
O3F H3F 1_555 1_555
O4F C12F 1_555 1_555
C5F C3F 1_555 1_555
C6F C5F 1_555 1_555
H6F C6F 1_555 1_555
C7F C6F 1_555 1_555
H9F C7F 1_555 1_555
C8F C7F 1_555 1_555
C9F C8F 1_555 1_555
H10F C9F 1_555 1_555
C10F C5F 1_555 1_555
C11F O1F 1_555 1_555
C12F O3F 1_555 1_555
H5F O5 1_555 1_555
O6F Ni1 1_555 1_555
H7F O6F 1_555 1_555
H8F O6F 1_555 1_555
Ni1C O5 1_555 1_555
O5C Ni1 1_555 1_555
C8 C12 1_555 1_555
C9 C10 1_555 1_555
C2F C3F 1_555 1_555
C8F C12F 1_555 1_555
C9F C10F 1_555 1_555
C10F C11F 1_555 1_555

#END
