
#######################################################################
#
#                 Cambridge Crystallographic Data Centre
#                                CCDC 
#
#######################################################################
#
# If this CIF has been generated from an entry in the Cambridge 
# Structural Database, then it will include bibliographic, chemical, 
# crystal, experimental, refinement or atomic coordinate data resulting 
# from the CCDC's data processing and validation procedures.
#
#######################################################################

data_IGESUK
_symmetry_cell_setting           monoclinic
_symmetry_space_group_name_H-M   'C 2/c'
_symmetry_Int_Tables_number      15
_space_group_name_Hall           '-C 2yn'
loop_
_symmetry_equiv_pos_site_id
_symmetry_equiv_pos_as_xyz
1 x,y,z
2 -x,y,1/2-z
3 1/2+x,1/2+y,z
4 1/2-x,1/2+y,1/2-z
5 -x,-y,-z
6 x,-y,1/2+z
7 1/2-x,1/2-y,-z
8 1/2+x,1/2-y,1/2+z
_cell_length_a                   42.0250(14)
_cell_length_b                   11.1915(4)
_cell_length_c                   23.6784(8)
_cell_angle_alpha                90
_cell_angle_beta                 120.5704(9)
_cell_angle_gamma                90
_cell_volume                     9588.57
loop_
_atom_site_label
_atom_site_type_symbol
_atom_site_fract_x
_atom_site_fract_y
_atom_site_fract_z
C1 C 1.08640(9) 0.1627(3) -0.38944(17)
H1 H 1.0708 0.2066 -0.4268
C2 C 1.13415(11) 0.0971(4) -0.3049(2)
H2 H 1.1586 0.0877 -0.2716
C3 C 1.10596(11) 0.0320(4) -0.3111(2)
H3 H 1.1071 -0.0301 -0.2841
C4 C 1.03807(10) 0.0310(4) -0.3933(2)
C5 C 1.03255(11) -0.0873(3) -0.3843(2)
H4 H 1.0526 -0.1381 -0.3610
C6 C 0.99718(11) -0.1291(4) -0.4101(2)
H5 H 0.9934 -0.2083 -0.4032
C7 C 0.96713(11) -0.0554(3) -0.4461(2)
H6 H 0.9432 -0.0843 -0.4629
C8 C 0.97306(11) 0.0613(4) -0.4567(2)
C9 C 1.00846(11) 0.1057(6) -0.4292(3)
H7 H 1.0123 0.1856 -0.4347
C10 C 0.94205(9) 0.2467(3) -0.52015(16)
H8 H 0.9633 0.2917 -0.5070
C11 C 0.90592(10) 0.1008(4) -0.5279(2)
H9 H 0.8970 0.0287 -0.5220
C12 C 0.88589(10) 0.1897(3) -0.5678(2)
H10 H 0.8603 0.1889 -0.5950
C13 C 1.17198(10) 0.7674(3) 0.03818(16)
H11 H 1.1653 0.6948 0.0160
C14 C 1.1811(4) 0.9087(7) 0.1064(5)
H12 H 1.1804 0.9520 0.1393
C15 C 1.1922(4) 0.9525(8) 0.0654(5)
H13 H 1.2030 1.0263 0.0680
C16 C 1.1887(4) 0.8779(13) -0.0352(5)
C17 C 1.2183(4) 0.9365(14) -0.0319(6)
H14 H 1.2354 0.9749 0.0066
C18 C 1.2229(4) 0.9385(15) -0.0856(6)
H15 H 1.2434 0.9762 -0.0826
C19 C 1.1974(4) 0.8853(14) -0.1435(6)
H16 H 1.1997 0.8886 -0.1805
C20 C 1.1682(4) 0.8270(15) -0.1445(5)
C21 C 1.1631(4) 0.8226(16) -0.0916(6)
H17 H 1.1429 0.7834 -0.0942
C22 C 1.10753(11) 0.7500(3) -0.22103(18)
H18 H 1.0963 0.7754 -0.1979
C23 C 1.09127(10) 0.6924(3) -0.27873(17)
H19 H 1.0665 0.6710 -0.3026
C24 C 1.14817(10) 0.7137(3) -0.25035(17)
H20 H 1.1704 0.7104 -0.2500
C25 C 1.04581(8) 0.4544(3) -0.37436(16)
C26 C 1.00625(8) 0.4550(3) -0.38995(16)
C27 C 0.99643(9) 0.3844(3) -0.35311(17)
H21 H 1.0140 0.3350 -0.3205
C28 C 0.96076(9) 0.3869(3) -0.36444(17)
H22 H 0.9548 0.3406 -0.3385
C29 C 0.93368(8) 0.4574(3) -0.41385(15)
C30 C 0.94321(8) 0.5270(3) -0.45221(14)
C31 C 0.97941(8) 0.5258(3) -0.43958(15)
H23 H 0.9857 0.5731 -0.4647
C32 C 0.91557(8) 0.6141(3) -0.50201(15)
C33 C 0.89575(8) 0.4588(3) -0.42428(15)
C34 C 0.88941(9) 0.4976(3) -0.37517(16)
H24 H 0.9090 0.5251 -0.3356
C35 C 0.85386(9) 0.4958(3) -0.38489(16)
H25 H 0.8497 0.5238 -0.3523
C36 C 0.82505(9) 0.4528(3) -0.44228(16)
H26 H 0.8014 0.4520 -0.4482
C37 C 0.83048(8) 0.4099(3) -0.49229(15)
C38 C 0.86611(8) 0.4155(3) -0.48235(15)
H27 H 0.8702 0.3897 -0.5155
C39 C 0.79947(8) 0.3531(3) -0.55173(14)
C40 C 0.77532(9) 0.2781(3) -0.54445(15)
H28 H 0.7792 0.2648 -0.5026
C41 C 0.74591(9) 0.2232(3) -0.59710(15)
H29 H 0.7305 0.1730 -0.5904
C42 C 0.73918(8) 0.2422(3) -0.66007(15)
C43 C 0.76322(8) 0.3146(3) -0.66849(15)
H30 H 0.7592 0.3268 -0.7105
C44 C 0.79327(8) 0.3694(3) -0.61541(15)
C45 C 0.81822(8) 0.4440(3) -0.62961(14)
C46 C 0.70628(9) 0.1860(3) -0.71767(16)
N1 N 1.12205(7) 0.1795(2) -0.35428(14)
N2 N 1.07481(7) 0.0755(3) -0.36573(14)
N3 N 0.94191(7) 0.1359(2) -0.49743(14)
N4 N 0.90865(7) 0.2829(2) -0.56283(13)
N5 N 1.17123(8) 0.7912(2) 0.09179(13)
N6 N 1.1840(4) 0.8652(9) 0.0199(5)
N7 N 1.11698(8) 0.6698(3) -0.29726(13)
N8 N 1.14414(9) 0.7640(3) -0.20279(13)
O1 O 1.05527(6) 0.5328(2) -0.40122(11)
O2 O 1.06673(7) 0.3776(3) -0.33453(15)
O3 O 0.91573(7) 0.7160(2) -0.48344(12)
O4 O 0.89372(6) 0.57896(19) -0.56035(10)
O5 O 0.81623(6) 0.5543(2) -0.62655(11)
O6 O 0.83903(6) 0.3871(2) -0.64384(11)
O7 O 0.69686(6) 0.2274(2) -0.77296(10)
O8 O 0.69035(7) 0.1032(3) -0.70570(12)
O9 O 1.13133(6) 0.4237(2) -0.31489(11)
H31 H 1.1117(6) 0.395(3) -0.3177(18)
H32 H 1.1495(9) 0.420(5) -0.2751(10)
Ni1 Ni 1.108795(10) 0.56844(4) -0.376777(18)
Ni2 Ni 1.151799(10) 0.31856(4) -0.362732(18)
N4D N 1.09135(7) 0.7171(2) -0.43717(13)
N5E N 1.17123(8) 0.2088(2) -0.40821(13)
O4D O 1.10628(6) 0.42104(19) -0.43965(10)
O5D O 1.18377(6) 0.4457(2) -0.37345(11)
O6D O 1.16097(6) 0.6129(2) -0.35616(11)
O7G O 1.19686(6) 0.2726(2) -0.27296(10)
Ni1D Ni 0.891205(10) 0.43156(4) -0.623223(18)
Ni2D Ni 0.848201(10) 0.68144(4) -0.637268(18)
Ni2E Ni 1.151799(10) 0.68144(4) 0.137268(18)
Ni2G Ni 0.651799(10) 0.18144(4) -0.862732(18)
O10 O 1.06408(17) 0.7803(5) -0.1430(3)
O11 O 1.2345(4) 0.9065(14) -0.2357(7)
O12 O 0.8963(6) 0.070(2) -0.3647(11)
C47? C 1.0387(5) 0.061(4) -0.3736(19)
C48? C 1.0338(7) -0.023(4) -0.3362(17)
H33? H 1.0541 -0.0613 -0.3018
C49? C 0.9986(9) -0.051(4) -0.350(2)
H34? H 0.9951 -0.1079 -0.3251
C50? C 0.9685(7) 0.006(4) -0.400(2)
H35? H 0.9449 -0.0101 -0.4084
C51? C 0.9734(6) 0.088(4) -0.4389(13)
C52? C 1.0087(9) 0.118(6) -0.424(3)
H36? H 1.0122 0.1779 -0.4474
H37? H 1.1585 0.7063 0.0092
C53? C 1.1959(4) 0.8844(10) 0.1211(5)
H38? H 1.2023 0.9184 0.1613
C54? C 1.2095(4) 0.9189(11) 0.0824(5)
H39? H 1.2260 0.9810 0.0905
C55? C 1.1981(3) 0.8465(10) -0.0276(4)
C56? C 1.2310(3) 0.8876(11) -0.0201(4)
H40? H 1.2494 0.9172 0.0201
C57? C 1.2363(3) 0.8844(12) -0.0729(4)
H41? H 1.2588 0.9084 -0.0674
C58? C 1.2088(3) 0.8465(11) -0.1334(4)
H42? H 1.2121 0.8504 -0.1693
C59? C 1.1760(3) 0.8023(13) -0.1408(4)
C60? C 1.1716(3) 0.8013(14) -0.0866(5)
H43? H 1.1501 0.7693 -0.0904
N9? N 1.1943(3) 0.8441(10) 0.0291(4)
O13? O 1.0085(7) 0.655(2) -0.2569(13)
O14? O 1.2482(9) 0.801(3) -0.1844(16)
O15? O 0.8731(10) 0.178(3) -0.3455(18)
loop_
_geom_bond_atom_site_label_1
_geom_bond_atom_site_label_2
_geom_bond_site_symmetry_1
_geom_bond_site_symmetry_2
C1 H1 1_555 1_555
C2 H2 1_555 1_555
C3 C2 1_555 1_555
H3 C3 1_555 1_555
C4 C5 1_555 1_555
C5 H4 1_555 1_555
C6 C5 1_555 1_555
H5 C6 1_555 1_555
C7 C6 1_555 1_555
H6 C7 1_555 1_555
C8 C7 1_555 1_555
C9 C4 1_555 1_555
H7 C9 1_555 1_555
C10 H8 1_555 1_555
C11 H9 1_555 1_555
C12 C11 1_555 1_555
H10 C12 1_555 1_555
C13 H11 1_555 1_555
C14 H12 1_555 1_555
C15 C14 1_555 1_555
H13 C15 1_555 1_555
C16 C17 1_555 1_555
C17 H14 1_555 1_555
C18 C17 1_555 1_555
H15 C18 1_555 1_555
C19 C18 1_555 1_555
H16 C19 1_555 1_555
C20 C19 1_555 1_555
C21 C16 1_555 1_555
H17 C21 1_555 1_555
C22 H18 1_555 1_555
C23 C22 1_555 1_555
H19 C23 1_555 1_555
C24 H20 1_555 1_555
C25 C26 1_555 1_555
C26 C27 1_555 1_555
C27 H21 1_555 1_555
C28 C27 1_555 1_555
H22 C28 1_555 1_555
C29 C28 1_555 1_555
C30 C29 1_555 1_555
C31 C26 1_555 1_555
H23 C31 1_555 1_555
C32 C30 1_555 1_555
C33 C29 1_555 1_555
C34 C33 1_555 1_555
H24 C34 1_555 1_555
C35 C34 1_555 1_555
H25 C35 1_555 1_555
C36 C35 1_555 1_555
H26 C36 1_555 1_555
C37 C36 1_555 1_555
C38 C33 1_555 1_555
H27 C38 1_555 1_555
C39 C37 1_555 1_555
C40 C39 1_555 1_555
H28 C40 1_555 1_555
C41 C40 1_555 1_555
H29 C41 1_555 1_555
C42 C41 1_555 1_555
C43 C42 1_555 1_555
H30 C43 1_555 1_555
C44 C39 1_555 1_555
C45 C44 1_555 1_555
C46 C42 1_555 1_555
N1 C1 1_555 1_555
N2 C1 1_555 1_555
N3 C8 1_555 1_555
N4 C10 1_555 1_555
N5 C13 1_555 1_555
N6 C13 1_555 1_555
N7 C23 1_555 1_555
N8 C20 1_555 1_555
O1 C25 1_555 1_555
O2 C25 1_555 1_555
O3 C32 1_555 1_555
O4 C32 1_555 1_555
O5 C45 1_555 1_555
O6 C45 1_555 1_555
O7 C46 1_555 1_555
O8 C46 1_555 1_555
O9 H31 1_555 1_555
H32 O9 1_555 1_555
Ni1 N7 1_555 1_555
Ni2 N1 1_555 1_555
N4D Ni1 1_555 1_555
N5E Ni2 1_555 1_555
O4D Ni1 1_555 1_555
O5D Ni2 1_555 1_555
O6D Ni1 1_555 1_555
O7G Ni2 1_555 1_555
Ni1D N4 1_555 1_555
Ni2D O4 1_555 1_555
Ni2E N5 1_555 1_555
Ni2G O7 1_555 1_555
C2 N1 1_555 1_555
C3 N2 1_555 1_555
C4 N2 1_555 1_555
C8 C9 1_555 1_555
C10 N3 1_555 1_555
C11 N3 1_555 1_555
C12 N4 1_555 1_555
C14 N5 1_555 1_555
C15 N6 1_555 1_555
C16 N6 1_555 1_555
C20 C21 1_555 1_555
C22 N8 1_555 1_555
C24 N7 1_555 1_555
C24 N8 1_555 1_555
C30 C31 1_555 1_555
C37 C38 1_555 1_555
C43 C44 1_555 1_555
O1 Ni1 1_555 1_555
O4 Ni1D 1_555 1_555
O5 Ni2D 1_555 1_555
O6 Ni1D 1_555 1_555
O9 Ni1 1_555 1_555
O9 Ni2 1_555 1_555
Ni2 O4D 1_555 1_555

#END
