
#######################################################################
#
#                 Cambridge Crystallographic Data Centre
#                                CCDC 
#
#######################################################################
#
# If this CIF has been generated from an entry in the Cambridge 
# Structural Database, then it will include bibliographic, chemical, 
# crystal, experimental, refinement or atomic coordinate data resulting 
# from the CCDC's data processing and validation procedures.
#
#######################################################################

data_IGESET
_symmetry_cell_setting           triclinic
_symmetry_space_group_name_H-M   'P -1'
_symmetry_Int_Tables_number      2
_space_group_name_Hall           '-P 1'
loop_
_symmetry_equiv_pos_site_id
_symmetry_equiv_pos_as_xyz
1 x,y,z
2 -x,-y,-z
_cell_length_a                   13.847(5)
_cell_length_b                   14.452(5)
_cell_length_c                   15.643(5)
_cell_angle_alpha                93.080(5)
_cell_angle_beta                 111.937(5)
_cell_angle_gamma                113.931(5)
_cell_volume                     2575.18
loop_
_atom_site_label
_atom_site_type_symbol
_atom_site_fract_x
_atom_site_fract_y
_atom_site_fract_z
Co1 Co 0.71650(4) 0.28347(4) 0.03768(3)
Co2 Co 0.76947(4) 0.44989(4) 0.24322(3)
N1 N 0.6704(2) 0.1454(2) -0.06193(19)
N2 N 0.8795(2) 0.3080(2) 0.0398(2)
N3 N 1.0457(3) 0.2011(3) -0.1413(3)
N4 N 0.8254(3) 0.0289(3) -0.2524(3)
N5 N 0.7757(2) 0.4880(2) 0.3793(2)
N6 N 0.7052(2) 0.5657(2) 0.2294(2)
N7 N 0.7438(3) 0.7330(3) 0.5752(3)
N8 N 0.6792(3) 0.8210(3) 0.4196(3)
O1 O 0.6708(2) 0.33431(19) -0.08648(15)
O2 O 0.6560(2) 0.4742(2) -0.03691(16)
O3 O 0.5556(2) 0.2443(2) 0.03524(17)
O4 O 0.5965(2) 0.32972(19) 0.17901(17)
O5 O 0.7568(2) 0.2214(2) 0.15345(17)
O6 O 0.8373(2) 0.34660(19) 0.28497(16)
O7 O 0.93960(19) 0.58032(19) 0.30628(16)
O8 O 0.9924(2) 0.5863(2) 0.18731(17)
O9 O 0.78091(18) 0.44070(17) 0.11391(14)
C1 C 0.5654(3) 0.0637(3) -0.1109(3)
H1 H 0.5046 0.0570 -0.0955
C2 C 0.5431(4) -0.0120(3) -0.1841(3)
H2 H 0.4686 -0.0679 -0.2169
C3 C 0.6311(4) -0.0037(3) -0.2077(3)
H3 H 0.6169 -0.0537 -0.2569
C4 C 0.7425(3) 0.0802(3) -0.1576(3)
C5 C 0.8425(4) 0.0971(3) -0.1781(3)
C6 C 0.9182(5) 0.0502(4) -0.2690(4)
H4 H 0.9107 0.0062 -0.3192
C7 C 1.0259(4) 0.1353(4) -0.2148(4)
H5 H 1.0872 0.1466 -0.2310
C8 C 0.9532(3) 0.1824(3) -0.1229(3)
C9 C 0.9700(3) 0.2541(3) -0.0450(3)
C10 C 1.0785(4) 0.3369(4) 0.0153(3)
H6 H 1.1450 0.3478 0.0069
C11 C 1.0857(4) 0.4013(4) 0.0863(4)
H7 H 1.1580 0.4552 0.1286
C12 C 0.9856(4) 0.3866(4) 0.0959(3)
H8 H 0.9922 0.4335 0.1435
C13 C 0.8726(3) 0.2417(3) -0.0289(2)
C14 C 0.7582(3) 0.1529(3) -0.0848(2)
C15 C 0.8110(4) 0.4491(3) 0.4531(3)
H9 H 0.8269 0.3935 0.4445
C16 C 0.8255(4) 0.4877(4) 0.5430(3)
H10 H 0.8519 0.4590 0.5932
C17 C 0.8006(4) 0.5677(4) 0.5571(3)
H11 H 0.8081 0.5931 0.6163
C18 C 0.7639(3) 0.6109(3) 0.4814(3)
C19 C 0.7370(3) 0.6974(3) 0.4904(3)
C20 C 0.7168(5) 0.8101(4) 0.5800(4)
H12 H 0.7182 0.8360 0.6364
C21 C 0.6866(5) 0.8540(4) 0.5040(5)
H13 H 0.6705 0.9095 0.5124
C22 C 0.7042(3) 0.7399(3) 0.4127(3)
C23 C 0.6920(3) 0.6961(3) 0.3214(3)
C24 C 0.6527(3) 0.7310(3) 0.2398(3)
H14 H 0.6354 0.7866 0.2429
C25 C 0.6396(3) 0.6835(3) 0.1555(3)
H15 H 0.6126 0.7057 0.1008
C26 C 0.6674(3) 0.6006(3) 0.1528(3)
H16 H 0.6591 0.5689 0.0955
C27 C 0.7165(3) 0.6121(3) 0.3119(3)
C28 C 0.7528(3) 0.5687(3) 0.3932(2)
C29 C 0.6489(3) 0.4099(3) -0.0997(2)
C30 C 0.6144(3) 0.4272(3) -0.1988(2)
C31 C 0.6120(3) 0.3634(3) -0.2692(2)
H17 H 0.6291 0.3084 -0.2555
C32 C 0.5847(3) 0.3796(3) -0.3595(3)
H18 H 0.5857 0.3367 -0.4053
C33 C 0.5562(3) 0.4584(3) -0.3828(3)
C34 C 0.5588(3) 0.5230(3) -0.3124(3)
H19 H 0.5407 0.5773 -0.3267
C35 C 0.5881(3) 0.5081(3) -0.2204(2)
H20 H 0.5900 0.5525 -0.1738
C36 C 0.5202(3) 0.4681(3) -0.4822(3)
H21 H 0.5268 0.4247 -0.5233
C37 C 0.5289(3) 0.2649(3) 0.0999(3)
C38 C 0.4012(3) 0.2036(3) 0.0803(3)
C39 C 0.3238(3) 0.1211(3) 0.0006(3)
H22 H 0.3498 0.1028 -0.0413
C40 C 0.2067(4) 0.0659(3) -0.0161(3)
H23 H 0.1552 0.0096 -0.0686
C41 C 0.1658(4) 0.0940(4) 0.0448(4)
C42 C 0.2430(4) 0.1764(4) 0.1220(3)
H24 H 0.2169 0.1967 0.1630
C43 C 0.3592(3) 0.2295(3) 0.1396(3)
H25 H 0.4106 0.2845 0.1932
C44 C 0.0406(4) 0.0388(4) 0.0310(4)
H26 H 0.0228 0.0667 0.0745
C45 C 0.8117(3) 0.2588(3) 0.2408(2)
C46 C 0.8518(3) 0.1896(3) 0.2984(2)
C47 C 0.9313(3) 0.2278(3) 0.3929(2)
H27 H 0.9606 0.2973 0.4222
C48 C 0.9680(3) 0.1642(3) 0.4445(3)
H28 H 1.0212 0.1915 0.5082
C49 C 0.9269(3) 0.0600(3) 0.4030(3)
C50 C 0.8472(4) 0.0228(3) 0.3077(3)
H29 H 0.8177 -0.0465 0.2778
C51 C 0.8108(4) 0.0869(3) 0.2566(3)
H30 H 0.7577 0.0601 0.1928
C52 C 0.9630(3) -0.0111(3) 0.4545(2)
H31 H 0.9305 -0.0791 0.4197
C53 C 1.0103(3) 0.6183(3) 0.2704(3)
C54 C 1.1278(3) 0.7099(3) 0.3332(2)
C55 C 1.2162(3) 0.7459(3) 0.3047(2)
H32 H 1.2033 0.7137 0.2455
C56 C 1.3243(3) 0.8291(3) 0.3623(3)
H33 H 1.3833 0.8512 0.3419
C57 C 1.3458(3) 0.8799(3) 0.4500(3)
C58 C 1.2569(3) 0.8428(3) 0.4795(3)
H34 H 1.2696 0.8746 0.5386
C59 C 1.1495(3) 0.7588(3) 0.4215(3)
H35 H 1.0909 0.7349 0.4423
C60 C 1.4581(3) 0.9715(3) 0.5120(3)
H36 H 1.4714 0.9912 0.5745
H37 H 0.7391 0.4576 0.0687
H38 H 0.8523 0.4845 0.1317
Co1A Co 0.28350(4) 0.71653(4) -1.03768(3)
Co1A_2 Co -0.71650(4) -0.28347(4) -0.03768(3)
Co1A_3 Co 1.28350(4) -0.28347(4) 0.96232(3)
Co2A Co -0.76947(4) -0.44989(4) -0.24322(3)
Co2A_2 Co 1.23053(4) -0.44989(4) 0.75678(3)
Co2A_3 Co 2.23053(4) 1.55011(4) 0.75678(3)
Co2A_4 Co 0.23053(4) 0.55011(4) -1.24322(3)
N1A N 0.3296(2) 0.8546(2) -0.93807(19)
N2A N 0.1205(2) 0.6920(2) -1.0398(2)
N3A N -0.0457(3) 0.7989(3) -0.8587(3)
N4A N 0.1746(3) 0.9711(3) -0.7476(3)
N5A N -0.7757(2) -0.4880(2) -0.3793(2)
N6A N -0.7052(2) -0.5657(2) -0.2294(2)
N7A N -0.7438(3) -0.7330(3) -0.5752(3)
N8A N -0.6792(3) -0.8210(3) -0.4196(3)
O1A O 0.3292(2) 0.66569(19) -0.91352(15)
O2A O 0.3440(2) 0.5258(2) -0.96309(16)
O3A O -0.5556(2) -0.2443(2) -0.03524(17)
O3A_2 O 0.4444(2) 0.7557(2) -1.03524(17)
O4A O -0.5965(2) -0.32972(19) -0.17901(17)
O5A O 1.2432(2) -0.2214(2) 0.84655(17)
O5A_2 O 0.2432(2) 0.7786(2) -1.15345(17)
O6A O 1.1627(2) -0.34660(19) 0.71503(16)
O6A_2 O -0.8373(2) -0.34660(19) -0.28497(16)
O7A O 2.06040(19) 1.41968(19) 0.69372(16)
O7A_2 O -0.93960(19) -0.58032(19) -0.30628(16)
O8A O 2.0076(2) 1.4137(2) 0.81269(17)
O9A O 0.21909(18) 0.55930(17) -1.11391(14)
O9A_2 O -0.78091(18) -0.44070(17) -0.11391(14)
C1A C 0.4346(3) 0.9363(3) -0.8891(3)
H1A H 0.4954 0.9430 -0.9045
C2A C 0.4569(4) 1.0120(3) -0.8159(3)
H2A H 0.5314 1.0679 -0.7831
C3A C 0.3689(4) 1.0037(3) -0.7923(3)
H3A H 0.3831 1.0537 -0.7431
C4A C 0.2575(3) 0.9198(3) -0.8424(3)
C5A C 0.1575(4) 0.9029(3) -0.8219(3)
C6A C 0.0818(5) 0.9498(4) -0.7310(4)
H4A H 0.0893 0.9938 -0.6808
C7A C -0.0259(4) 0.8647(4) -0.7852(4)
H5A H -0.0872 0.8534 -0.7690
C8A C 0.0468(3) 0.8176(3) -0.8771(3)
C9A C 0.0300(3) 0.7459(3) -0.9550(3)
C10A C -0.0785(4) 0.6631(4) -1.0153(3)
H6A H -0.1450 0.6522 -1.0069
C11A C -0.0857(4) 0.5987(4) -1.0863(4)
H7A H -0.1580 0.5448 -1.1286
C12A C 0.0144(4) 0.6134(4) -1.0959(3)
H8A H 0.0078 0.5665 -1.1435
C13A C 0.1274(3) 0.7583(3) -0.9711(2)
C14A C 0.2418(3) 0.8471(3) -0.9152(2)
C15A C -0.8110(4) -0.4491(3) -0.4531(3)
H9A H -0.8269 -0.3935 -0.4445
C16A C -0.8255(4) -0.4877(4) -0.5430(3)
H10A H -0.8519 -0.4590 -0.5932
C17A C -0.8006(4) -0.5677(4) -0.5571(3)
H11A H -0.8081 -0.5931 -0.6163
C18A C -0.7639(3) -0.6109(3) -0.4814(3)
C19A C -0.7370(3) -0.6974(3) -0.4904(3)
C20A C -0.7168(5) -0.8101(4) -0.5800(4)
H12A H -0.7182 -0.8360 -0.6364
C21A C -0.6866(5) -0.8540(4) -0.5040(5)
H13A H -0.6705 -0.9095 -0.5124
C22A C -0.7042(3) -0.7399(3) -0.4127(3)
C23A C -0.6920(3) -0.6961(3) -0.3214(3)
C24A C -0.6527(3) -0.7310(3) -0.2398(3)
H14A H -0.6354 -0.7866 -0.2429
C25A C -0.6396(3) -0.6835(3) -0.1555(3)
H15A H -0.6126 -0.7057 -0.1008
C26A C -0.6674(3) -0.6006(3) -0.1528(3)
H16A H -0.6591 -0.5689 -0.0955
C27A C -0.7165(3) -0.6121(3) -0.3119(3)
C28A C -0.7528(3) -0.5687(3) -0.3932(2)
C29A C 0.3511(3) 0.5901(3) -0.9003(2)
C30A C 0.3856(3) 0.5728(3) -0.8012(2)
C31A C 0.3880(3) 0.6366(3) -0.7308(2)
H17A H 0.3709 0.6916 -0.7445
C32A C 0.4153(3) 0.6204(3) -0.6405(3)
H18A H 0.4143 0.6633 -0.5947
C33A C 0.4438(3) 0.5416(3) -0.6172(3)
C34A C 0.4412(3) 0.4770(3) -0.6876(3)
H19A H 0.4593 0.4227 -0.6733
C35A C 0.4119(3) 0.4919(3) -0.7796(2)
H20A H 0.4100 0.4475 -0.8262
C36A C 0.4798(3) 0.5319(3) -0.5178(3)
H21A H 0.4732 0.5753 -0.4767
C37A C -0.5289(3) -0.2649(3) -0.0999(3)
C38A C -0.4012(3) -0.2036(3) -0.0803(3)
C39A C -0.3238(3) -0.1211(3) -0.0006(3)
H22A H -0.3498 -0.1028 0.0413
C40A C -0.2067(4) -0.0659(3) 0.0161(3)
H23A H -0.1552 -0.0096 0.0686
C41A C -0.1658(4) -0.0940(4) -0.0448(4)
C42A C -0.2430(4) -0.1764(4) -0.1220(3)
H24A H -0.2169 -0.1967 -0.1630
C43A C -0.3592(3) -0.2295(3) -0.1396(3)
H25A H -0.4106 -0.2845 -0.1932
C44A C -0.0406(4) -0.0388(4) -0.0310(4)
H26A H -0.0228 -0.0667 -0.0745
C45A C 1.1883(3) -0.2588(3) 0.7592(2)
C46A C 1.1482(3) -0.1896(3) 0.7016(2)
C47A C 1.0687(3) -0.2278(3) 0.6071(2)
H27A H 1.0394 -0.2973 0.5778
C48A C 1.0320(3) -0.1642(3) 0.5555(3)
H28A H 0.9788 -0.1915 0.4918
C49A C 1.0731(3) -0.0600(3) 0.5970(3)
C50A C 1.1528(4) -0.0228(3) 0.6923(3)
H29A H 1.1823 0.0465 0.7222
C51A C 1.1892(4) -0.0869(3) 0.7434(3)
H30A H 1.2423 -0.0601 0.8072
C52A C 1.0370(3) 0.0111(3) 0.5455(2)
H31A H 1.0695 0.0791 0.5803
C53A C 1.9897(3) 1.3817(3) 0.7296(3)
C54A C 1.8722(3) 1.2901(3) 0.6668(2)
C55A C 1.7838(3) 1.2541(3) 0.6953(2)
H32A H 1.7967 1.2863 0.7545
C56A C 1.6757(3) 1.1709(3) 0.6377(3)
H33A H 1.6167 1.1488 0.6581
C57A C 1.6542(3) 1.1201(3) 0.5500(3)
C58A C 1.7431(3) 1.1572(3) 0.5205(3)
H34A H 1.7304 1.1254 0.4614
C59A C 1.8505(3) 1.2412(3) 0.5785(3)
H35A H 1.9091 1.2651 0.5577
C60A C 1.5419(3) 1.0285(3) 0.4880(3)
H36A H 1.5286 1.0088 0.4255
H37A H 0.2609 0.5424 -1.0687
H37A_2 H -0.7391 -0.4576 -0.0687
H38A H 0.1477 0.5155 -1.1317
H38A_2 H -0.8523 -0.4845 -0.1317
O10 O 0.5542(9) 0.2559(8) 0.3525(7)
H39 H 0.592(3) 0.226(3) 0.337(2)
loop_
_geom_bond_atom_site_label_1
_geom_bond_atom_site_label_2
_geom_bond_site_symmetry_1
_geom_bond_site_symmetry_2
Co1 N1 1_555 1_555
Co2 N5 1_555 1_555
N1 C1 1_555 1_555
N2 Co1 1_555 1_555
N3 C7 1_555 1_555
N4 C5 1_555 1_555
N5 C15 1_555 1_555
N6 Co2 1_555 1_555
N7 C19 1_555 1_555
N8 C21 1_555 1_555
O1 Co1 1_555 1_555
O2 C29 1_555 1_555
O3 Co1 1_555 1_555
O4 Co2 1_555 1_555
O5 Co1 1_555 1_555
O6 Co2 1_555 1_555
O7 Co2 1_555 1_555
O8 C53 1_555 1_555
O9 Co1 1_555 1_555
C1 H1 1_555 1_555
C2 C1 1_555 1_555
H2 C2 1_555 1_555
C3 C2 1_555 1_555
H3 C3 1_555 1_555
C4 C3 1_555 1_555
C5 C4 1_555 1_555
C6 N4 1_555 1_555
H4 C6 1_555 1_555
C7 C6 1_555 1_555
H5 C7 1_555 1_555
C8 N3 1_555 1_555
C9 C8 1_555 1_555
C10 C9 1_555 1_555
H6 C10 1_555 1_555
C11 C10 1_555 1_555
H7 C11 1_555 1_555
C12 N2 1_555 1_555
H8 C12 1_555 1_555
C13 N2 1_555 1_555
C14 N1 1_555 1_555
C15 H9 1_555 1_555
C16 C15 1_555 1_555
H10 C16 1_555 1_555
C17 C16 1_555 1_555
H11 C17 1_555 1_555
C18 C17 1_555 1_555
C19 C18 1_555 1_555
C20 N7 1_555 1_555
H12 C20 1_555 1_555
C21 C20 1_555 1_555
H13 C21 1_555 1_555
C22 N8 1_555 1_555
C23 C22 1_555 1_555
C24 C23 1_555 1_555
H14 C24 1_555 1_555
C25 C24 1_555 1_555
H15 C25 1_555 1_555
C26 N6 1_555 1_555
H16 C26 1_555 1_555
C27 N6 1_555 1_555
C28 N5 1_555 1_555
C29 O1 1_555 1_555
C30 C29 1_555 1_555
C31 C30 1_555 1_555
H17 C31 1_555 1_555
C32 C31 1_555 1_555
H18 C32 1_555 1_555
C33 C32 1_555 1_555
C34 C33 1_555 1_555
H19 C34 1_555 1_555
C35 C30 1_555 1_555
H20 C35 1_555 1_555
C36 C33 1_555 1_555
H21 C36 1_555 1_555
C37 O3 1_555 1_555
C38 C37 1_555 1_555
C39 C38 1_555 1_555
H22 C39 1_555 1_555
C40 C39 1_555 1_555
H23 C40 1_555 1_555
C41 C40 1_555 1_555
C42 C41 1_555 1_555
H24 C42 1_555 1_555
C43 C38 1_555 1_555
H25 C43 1_555 1_555
C44 C41 1_555 1_555
H26 C44 1_555 1_555
C45 O5 1_555 1_555
C46 C45 1_555 1_555
C47 C46 1_555 1_555
H27 C47 1_555 1_555
C48 C47 1_555 1_555
H28 C48 1_555 1_555
C49 C48 1_555 1_555
C50 C49 1_555 1_555
H29 C50 1_555 1_555
C51 C46 1_555 1_555
H30 C51 1_555 1_555
C52 C49 1_555 1_555
H31 C52 1_555 1_555
C53 O7 1_555 1_555
C54 C53 1_555 1_555
C55 C54 1_555 1_555
H32 C55 1_555 1_555
C56 C55 1_555 1_555
H33 C56 1_555 1_555
C57 C56 1_555 1_555
C58 C57 1_555 1_555
H34 C58 1_555 1_555
C59 C54 1_555 1_555
H35 C59 1_555 1_555
C60 C57 1_555 1_555
H36 C60 1_555 1_555
H37 O9 1_555 1_555
H38 O9 1_555 1_555
O10 H39 1_555 1_555
Co1A N1A 1_555 1_555
Co1A_2 O3A 1_555 1_555
Co1A_3 O5A 1_555 1_555
Co2A N5A 1_555 1_555
Co2A_2 O6A 1_555 1_555
Co2A_3 O7A 1_555 1_555
Co2A_4 O9A 1_555 1_555
N1A C1A 1_555 1_555
N2A Co1A 1_555 1_555
N3A C7A 1_555 1_555
N4A C5A 1_555 1_555
N5A C15A 1_555 1_555
N6A Co2A 1_555 1_555
N7A C19A 1_555 1_555
N8A C21A 1_555 1_555
O1A Co1A 1_555 1_555
O2A C29A 1_555 1_555
O3A C37A 1_555 1_555
O3A_2 Co1A 1_555 1_555
O4A Co2A 1_555 1_555
O5A C45A 1_555 1_555
O5A_2 Co1A 1_555 1_555
O6A C45A 1_555 1_555
O6A_2 Co2A 1_555 1_555
O7A C53A 1_555 1_555
O7A_2 Co2A 1_555 1_555
O8A C53A 1_555 1_555
O9A Co1A 1_555 1_555
O9A_2 Co1A_2 1_555 1_555
C1A H1A 1_555 1_555
C2A C1A 1_555 1_555
H2A C2A 1_555 1_555
C3A C2A 1_555 1_555
H3A C3A 1_555 1_555
C4A C3A 1_555 1_555
C5A C4A 1_555 1_555
C6A N4A 1_555 1_555
H4A C6A 1_555 1_555
C7A C6A 1_555 1_555
H5A C7A 1_555 1_555
C8A N3A 1_555 1_555
C9A C8A 1_555 1_555
C10A C9A 1_555 1_555
H6A C10A 1_555 1_555
C11A C10A 1_555 1_555
H7A C11A 1_555 1_555
C12A N2A 1_555 1_555
H8A C12A 1_555 1_555
C13A N2A 1_555 1_555
C14A N1A 1_555 1_555
C15A H9A 1_555 1_555
C16A C15A 1_555 1_555
H10A C16A 1_555 1_555
C17A C16A 1_555 1_555
H11A C17A 1_555 1_555
C18A C17A 1_555 1_555
C19A C18A 1_555 1_555
C20A N7A 1_555 1_555
H12A C20A 1_555 1_555
C21A C20A 1_555 1_555
H13A C21A 1_555 1_555
C22A N8A 1_555 1_555
C23A C22A 1_555 1_555
C24A C23A 1_555 1_555
H14A C24A 1_555 1_555
C25A C24A 1_555 1_555
H15A C25A 1_555 1_555
C26A N6A 1_555 1_555
H16A C26A 1_555 1_555
C27A N6A 1_555 1_555
C28A N5A 1_555 1_555
C29A O1A 1_555 1_555
C30A C29A 1_555 1_555
C31A C30A 1_555 1_555
H17A C31A 1_555 1_555
C32A C31A 1_555 1_555
H18A C32A 1_555 1_555
C33A C32A 1_555 1_555
C34A C33A 1_555 1_555
H19A C34A 1_555 1_555
C35A C30A 1_555 1_555
H20A C35A 1_555 1_555
C36A C36 1_555 1_555
H21A C36A 1_555 1_555
C37A O4A 1_555 1_555
C38A C37A 1_555 1_555
C39A C38A 1_555 1_555
H22A C39A 1_555 1_555
C40A C39A 1_555 1_555
H23A C40A 1_555 1_555
C41A C40A 1_555 1_555
C42A C41A 1_555 1_555
H24A C42A 1_555 1_555
C43A C38A 1_555 1_555
H25A C43A 1_555 1_555
C44A C44 1_555 1_555
H26A C44A 1_555 1_555
C45A C46A 1_555 1_555
C46A C47A 1_555 1_555
C47A H27A 1_555 1_555
C48A C47A 1_555 1_555
H28A C48A 1_555 1_555
C49A C48A 1_555 1_555
C50A C49A 1_555 1_555
H29A C50A 1_555 1_555
C51A C46A 1_555 1_555
H30A C51A 1_555 1_555
C52A C52 1_555 1_555
H31A C52A 1_555 1_555
C53A C54A 1_555 1_555
C54A C55A 1_555 1_555
C55A H32A 1_555 1_555
C56A C55A 1_555 1_555
H33A C56A 1_555 1_555
C57A C56A 1_555 1_555
C58A C57A 1_555 1_555
H34A C58A 1_555 1_555
C59A C54A 1_555 1_555
H35A C59A 1_555 1_555
C60A C60 1_555 1_555
H36A C60A 1_555 1_555
H37A O9A 1_555 1_555
H37A_2 O9A_2 1_555 1_555
H38A O9A 1_555 1_555
H38A_2 O9A_2 1_555 1_555
Co2 O9 1_555 1_555
O4 C37 1_555 1_555
O6 C45 1_555 1_555
C4 C14 1_555 1_555
C5 C8 1_555 1_555
C9 C13 1_555 1_555
C11 C12 1_555 1_555
C13 C14 1_555 1_555
C18 C28 1_555 1_555
C19 C22 1_555 1_555
C23 C27 1_555 1_555
C25 C26 1_555 1_555
C27 C28 1_555 1_555
C34 C35 1_555 1_555
C42 C43 1_555 1_555
C50 C51 1_555 1_555
C58 C59 1_555 1_555
Co2A O9A_2 1_555 1_555
C4A C14A 1_555 1_555
C5A C8A 1_555 1_555
C9A C13A 1_555 1_555
C11A C12A 1_555 1_555
C13A C14A 1_555 1_555
C18A C28A 1_555 1_555
C19A C22A 1_555 1_555
C23A C27A 1_555 1_555
C25A C26A 1_555 1_555
C27A C28A 1_555 1_555
C33A C36A 1_555 1_555
C34A C35A 1_555 1_555
C41A C44A 1_555 1_555
C42A C43A 1_555 1_555
C49A C52A 1_555 1_555
C50A C51A 1_555 1_555
C57A C60A 1_555 1_555
C58A C59A 1_555 1_555

#END
