
#######################################################################
#
#                 Cambridge Crystallographic Data Centre
#                                CCDC 
#
#######################################################################
#
# If this CIF has been generated from an entry in the Cambridge 
# Structural Database, then it will include bibliographic, chemical, 
# crystal, experimental, refinement or atomic coordinate data resulting 
# from the CCDC's data processing and validation procedures.
#
#######################################################################

data_IGETEU
_symmetry_cell_setting           triclinic
_symmetry_space_group_name_H-M   'P -1'
_symmetry_Int_Tables_number      2
_space_group_name_Hall           '-P 1'
loop_
_symmetry_equiv_pos_site_id
_symmetry_equiv_pos_as_xyz
1 x,y,z
2 -x,-y,-z
_cell_length_a                   7.7477(10)
_cell_length_b                   10.1953(13)
_cell_length_c                   11.2808(15)
_cell_angle_alpha                80.851(2)
_cell_angle_beta                 82.233(2)
_cell_angle_gamma                89.333(2)
_cell_volume                     871.621
loop_
_atom_site_label
_atom_site_type_symbol
_atom_site_fract_x
_atom_site_fract_y
_atom_site_fract_z
H1 H 0.858(4) 1.297(2) -0.115(3)
H2 H 0.711(5) 0.870(3) -0.240(3)
C1 C 0.8740(2) 1.1351(2) 0.30012(19)
C2 C 0.8090(3) 1.0718(2) 0.41576(19)
C3 C 0.8338(4) 1.1214(3) 0.5198(2)
H3 H 0.7881 1.0771 0.5959
C4 C 0.9266(4) 1.2365(4) 0.5081(3)
H4 H 0.9441 1.2714 0.5769
C5 C 0.9941(4) 1.3013(3) 0.3961(3)
H5 H 1.0572 1.3797 0.3894
C6 C 0.9694(3) 1.2510(2) 0.2921(2)
H6 H 1.0173 1.2955 0.2165
C7 C 0.8417(2) 1.09008(19) 0.18424(17)
C8 C 0.5568(2) 0.65032(19) 0.17980(18)
C9 C 0.6145(3) 0.5276(2) 0.1550(2)
C10 C 0.5719(3) 0.4111(2) 0.2339(3)
H7 H 0.6129 0.3300 0.2147
C11 C 0.4681(4) 0.4176(3) 0.3410(3)
H8 H 0.4392 0.3404 0.3958
C12 C 0.4067(3) 0.5374(3) 0.3678(2)
H9 H 0.3348 0.5409 0.4403
C13 C 0.4506(3) 0.6528(2) 0.2884(2)
H10 H 0.4083 0.7335 0.3079
C14 C 0.6146(2) 0.78020(19) 0.10187(17)
Ca1 Ca 0.75803(5) 1.02351(4) -0.04090(3)
N1 N 0.7175(3) 0.9445(2) 0.43087(19)
N2 N 0.7148(3) 0.5163(2) 0.0374(2)
O1 O 0.69377(17) 1.10599(15) 0.15311(13)
O2 O 0.96688(17) 1.04758(14) 0.12013(13)
O3 O 0.7277(3) 0.8850(2) 0.34677(18)
O4 O 0.6381(4) 0.9011(2) 0.52994(19)
O5 O 0.77295(17) 0.80231(14) 0.07299(14)
O6 O 0.50037(17) 0.86307(14) 0.07399(13)
O7 O 0.8168(3) 0.4247(2) 0.0326(2)
O8 O 0.6887(3) 0.5948(2) -0.05087(17)
O9 O 0.6646(2) 0.9254(2) -0.20078(15)
O10 O 0.8982(2) 1.22963(17) -0.13966(16)
H11 H 0.559(2) 0.923(3) -0.197(3)
H12 H 1.004(2) 1.231(3) -0.135(2)
Ca1A Ca 1.24197(5) 0.97649(4) 0.04090(3)
Ca1A_2 Ca 0.24197(5) 0.97649(4) 0.04090(3)
O2A O 1.03312(17) 0.95242(14) -0.12013(13)
O6A O 0.49963(17) 1.13693(14) -0.07399(13)
loop_
_geom_bond_atom_site_label_1
_geom_bond_atom_site_label_2
_geom_bond_site_symmetry_1
_geom_bond_site_symmetry_2
H1 O10 1_555 1_555
H2 O9 1_555 1_555
C1 C2 1_555 1_555
C2 C3 1_555 1_555
C3 H3 1_555 1_555
C4 C3 1_555 1_555
H4 C4 1_555 1_555
C5 C4 1_555 1_555
H5 C5 1_555 1_555
C6 C1 1_555 1_555
H6 C6 1_555 1_555
C7 C1 1_555 1_555
C8 C9 1_555 1_555
C9 C10 1_555 1_555
C10 H7 1_555 1_555
C11 C10 1_555 1_555
H8 C11 1_555 1_555
C12 C11 1_555 1_555
H9 C12 1_555 1_555
C13 C8 1_555 1_555
H10 C13 1_555 1_555
C14 C8 1_555 1_555
Ca1 O1 1_555 1_555
N1 C2 1_555 1_555
N2 C9 1_555 1_555
O1 C7 1_555 1_555
O2 C7 1_555 1_555
O3 N1 1_555 1_555
O4 N1 1_555 1_555
O5 C14 1_555 1_555
O6 C14 1_555 1_555
O7 N2 1_555 1_555
O8 N2 1_555 1_555
O9 Ca1 1_555 1_555
O10 Ca1 1_555 1_555
H11 O9 1_555 1_555
H12 O10 1_555 1_555
Ca1A O2 1_555 1_555
Ca1A_2 O6 1_555 1_555
O2A Ca1 1_555 1_555
O6A Ca1 1_555 1_555
C5 C6 1_555 1_555
C12 C13 1_555 1_555
Ca1 O2 1_555 1_555
Ca1 O5 1_555 1_555
Ca1 O6 1_555 1_555
Ca1A O2A 1_555 1_555
Ca1A_2 O6A 1_555 1_555

#END
