
#######################################################################
#
#                 Cambridge Crystallographic Data Centre
#                                CCDC 
#
#######################################################################
#
# If this CIF has been generated from an entry in the Cambridge 
# Structural Database, then it will include bibliographic, chemical, 
# crystal, experimental, refinement or atomic coordinate data resulting 
# from the CCDC's data processing and validation procedures.
#
#######################################################################

data_IGEVOG
_symmetry_cell_setting           monoclinic
_symmetry_space_group_name_H-M   'P 21/c'
_symmetry_Int_Tables_number      14
_space_group_name_Hall           '-P 2ybc'
loop_
_symmetry_equiv_pos_site_id
_symmetry_equiv_pos_as_xyz
1 x,y,z
2 -x,1/2+y,1/2-z
3 -x,-y,-z
4 x,1/2-y,1/2+z
_cell_length_a                   12.859(3)
_cell_length_b                   20.382(4)
_cell_length_c                   15.551(3)
_cell_angle_alpha                90
_cell_angle_beta                 108.84(3)
_cell_angle_gamma                90
_cell_volume                     3857.43
loop_
_atom_site_label
_atom_site_type_symbol
_atom_site_fract_x
_atom_site_fract_y
_atom_site_fract_z
Co1 Co 0.22109(4) 0.45179(3) 0.16138(4)
Co2 Co 0.35280(5) 0.55415(3) 0.31033(4)
Co3 Co -0.44468(5) 0.51518(3) -0.13427(4)
Co4 Co 0.0000 0.5000 0.0000
Co5 Co 0.5000 0.5000 0.5000
O1 O 0.3370(2) 0.52817(15) 0.18607(19)
O2 O 0.0939(2) 0.51676(15) 0.1517(2)
O3 O 0.0256(3) 0.59618(15) -0.0130(2)
O4 O 0.4953(3) 0.60015(15) 0.5129(2)
O5 O 0.3619(3) 0.40036(15) 0.1594(2)
O6 O 0.1881(2) 0.58265(16) 0.2660(2)
O7 O 0.4037(3) 0.63763(15) 0.3742(2)
O8 O 0.4753(2) 0.48656(15) 0.6280(2)
C1 C 0.0011(4) 0.6040(2) 0.1964(3)
C2 C -0.1009(4) 0.5746(2) 0.1813(3)
C3 C -0.1128(4) 0.5024(2) 0.1887(3)
O9 O -0.5324(3) 0.5774(2) -0.0747(2)
C4 C 0.1024(4) 0.5653(2) 0.2061(3)
C5 C 0.2318(4) 0.5188(2) 0.5380(3)
O10 O 0.4342(3) 0.5272(2) 0.7451(2)
C6 C 0.3140(4) 0.5534(2) 0.6011(3)
O11 O -0.5300(4) 0.4318(3) -0.1137(3)
C7 C 0.4581(4) 0.6453(2) 0.4577(3)
C8 C 0.2318(4) 0.4462(2) 0.5308(3)
C9 C 0.4156(3) 0.5195(2) 0.6627(3)
C10 C -0.1934(4) 0.6141(3) 0.1682(3)
H1 H -0.2618 0.5950 0.1587
C11 C -0.1795(3) 0.4655(2) 0.1168(3)
C12 C -0.0801(5) 0.4048(3) 0.2822(4)
H2 H -0.0449 0.3844 0.3375
C13 C 0.1338(5) 0.6209(3) 0.4916(4)
H3 H 0.0735 0.6437 0.4541
C14 C 0.3069(4) 0.6203(2) 0.6106(4)
H4 H 0.3623 0.6425 0.6545
C15 C -0.1992(4) 0.3990(2) 0.1279(3)
H5 H -0.2453 0.3750 0.0798
C16 C 0.2131(5) 0.4091(3) 0.6002(3)
H6 H 0.2048 0.4304 0.6505
C17 C -0.0821(5) 0.7109(3) 0.1869(4)
H7 H -0.0761 0.7564 0.1892
C18 C -0.0629(4) 0.4701(3) 0.2713(3)
H8 H -0.0169 0.4937 0.3200
C19 C 0.0098(4) 0.6726(2) 0.2009(3)
H9 H 0.0783 0.6923 0.2135
C20 C -0.1493(5) 0.3693(3) 0.2116(4)
H10 H -0.1627 0.3253 0.2198
C21 C 0.1399(5) 0.5541(3) 0.4842(4)
H11 H 0.0821 0.5318 0.4428
C22 C 0.2177(5) 0.6544(3) 0.5551(4)
H12 H 0.2139 0.6997 0.5602
C23 C -0.1832(5) 0.6814(3) 0.1694(4)
H13 H -0.2457 0.7073 0.1582
O12 O 0.4956(3) 0.32790(18) 0.1771(3)
C24 C 0.2421(4) 0.4128(2) 0.4551(3)
C25 C 0.4081(4) 0.3458(2) 0.1896(3)
C26 C 0.2319(4) 0.3451(3) 0.4498(4)
H14 H 0.2359 0.3233 0.3984
C27 C 0.2158(5) 0.3100(3) 0.5196(4)
H15 H 0.2109 0.2645 0.5163
C28 C 0.2068(5) 0.3426(3) 0.5953(4)
H16 H 0.1965 0.3187 0.6429
C29 C 0.3574(5) 0.3049(3) 0.2442(4)
H17 H 0.3996 0.2655 0.2629
H18 H 0.2837 0.2937 0.2082
H19 H 0.3561 0.3290 0.2969
C30 C 0.4735(5) 0.7146(3) 0.4910(4)
H20 H 0.5152 0.7150 0.5545
H21 H 0.4030 0.7344 0.4820
H22 H 0.5121 0.7388 0.4579
C31 C -0.2310(4) 0.4960(2) 0.0257(3)
O15 O -0.3340(2) 0.49588(17) -0.0048(2)
O16 O -0.1696(2) 0.51918(14) -0.01654(19)
C32 C 0.2714(3) 0.4478(2) 0.3824(3)
O17 O 0.2347(3) 0.42884(15) 0.3023(2)
O18 O 0.3365(2) 0.49699(14) 0.4074(2)
C33 C -0.0334(4) 0.6385(2) -0.0667(3)
O19 O -0.1236(3) 0.62764(16) -0.1261(2)
C34 C 0.0081(4) 0.7074(2) -0.0586(4)
H23 H -0.0441 0.7345 -0.1022
H24 H 0.0772 0.7085 -0.0698
H25 H 0.0177 0.7234 0.0015
H26 H 0.303(5) 0.557(2) 0.149(3)
H27 H -0.500(5) 0.3962(19) -0.119(5)
H28 H -0.544(5) 0.6128(17) -0.104(4)
H29 H -0.595(2) 0.561(3) -0.086(4)
H30 H -0.515(5) 0.423(3) -0.0582(13)
Co1B Co -0.22109(4) 0.54821(3) -0.16138(4)
Co1B_2 Co 0.77891(4) 0.54821(3) 0.83862(4)
Co2B Co -0.35280(5) 0.44585(3) -0.31033(4)
Co2B_2 Co 0.64720(5) 0.44585(3) 0.68967(4)
Co3B Co 0.44468(5) 0.48482(3) 0.13427(4)
Co3_2 Co 0.55532(5) 0.51518(3) 0.86573(4)
Co5_2 Co -0.5000 0.5000 -0.5000
O1B O -0.3370(2) 0.47183(15) -0.18607(19)
O2B O -0.0939(2) 0.48324(15) -0.1517(2)
O3B O -0.0256(3) 0.40382(15) 0.0130(2)
O4B O -0.4953(3) 0.39985(15) -0.5129(2)
O4B_2 O 0.5047(3) 0.39985(15) 0.4871(2)
O5B O -0.3619(3) 0.59964(15) -0.1594(2)
O6B O -0.1881(2) 0.41735(16) -0.2660(2)
O7B O -0.4037(3) 0.36237(15) -0.3742(2)
O8B O 0.5247(2) 0.51344(15) 0.3720(2)
O8_2 O -0.5247(2) 0.48656(15) -0.3720(2)
C1B C -0.0011(4) 0.3960(2) -0.1964(3)
C2B C 0.1009(4) 0.4254(2) -0.1813(3)
C3B C 0.1128(4) 0.4976(2) -0.1887(3)
O9B O 0.5324(3) 0.4226(2) 0.0747(2)
C4B C -0.1024(4) 0.4347(2) -0.2061(3)
C5B C 0.7682(4) 0.4812(2) 0.4620(3)
O10B O 0.5658(3) 0.4728(2) 0.2549(2)
O10_2 O -0.5658(3) 0.5272(2) -0.2549(2)
C6B C 0.6860(4) 0.4466(2) 0.3989(3)
O11B O 0.5300(4) 0.5682(3) 0.1137(3)
C7B C -0.4581(4) 0.3547(2) -0.4577(3)
C8B C 0.7682(4) 0.5538(2) 0.4692(3)
C9B C 0.5844(3) 0.4805(2) 0.3373(3)
C10B C 0.1934(4) 0.3859(3) -0.1682(3)
H1B H 0.2618 0.4050 -0.1587
C11B C 0.1795(3) 0.5345(2) -0.1168(3)
C12B C 0.0801(5) 0.5952(3) -0.2822(4)
H2B H 0.0449 0.6156 -0.3375
C13B C 0.8662(5) 0.3791(3) 0.5084(4)
H3B H 0.9265 0.3563 0.5459
C14B C 0.6931(4) 0.3797(2) 0.3894(4)
H4B H 0.6377 0.3575 0.3455
C15B C 0.1992(4) 0.6010(2) -0.1279(3)
H5B H 0.2453 0.6250 -0.0798
C16B C 0.7869(5) 0.5909(3) 0.3998(3)
H6B H 0.7952 0.5696 0.3495
C17B C 0.0821(5) 0.2891(3) -0.1869(4)
H7B H 0.0761 0.2436 -0.1892
C18B C 0.0629(4) 0.5299(3) -0.2713(3)
H8B H 0.0169 0.5063 -0.3200
C19B C -0.0098(4) 0.3274(2) -0.2009(3)
H9B H -0.0783 0.3077 -0.2135
C20B C 0.1493(5) 0.6307(3) -0.2116(4)
H10B H 0.1627 0.6747 -0.2198
C21B C 0.8601(5) 0.4459(3) 0.5158(4)
H11B H 0.9179 0.4682 0.5572
C22B C 0.7823(5) 0.3456(3) 0.4449(4)
H12B H 0.7861 0.3003 0.4398
C23B C 0.1832(5) 0.3186(3) -0.1694(4)
H13B H 0.2457 0.2927 -0.1582
O12B O -0.4956(3) 0.67210(18) -0.1771(3)
C24B C 0.7579(4) 0.5872(2) 0.5449(3)
C25B C -0.4081(4) 0.6542(2) -0.1896(3)
C26B C 0.7681(4) 0.6549(3) 0.5502(4)
H14B H 0.7641 0.6767 0.6016
C27B C 0.7842(5) 0.6900(3) 0.4804(4)
H15B H 0.7891 0.7355 0.4837
C28B C 0.7932(5) 0.6574(3) 0.4047(4)
H16B H 0.8035 0.6813 0.3571
C29B C -0.3574(5) 0.6951(3) -0.2442(4)
H17B H -0.3996 0.7345 -0.2629
H18B H -0.2837 0.7063 -0.2082
H19B H -0.3561 0.6710 -0.2969
C30B C -0.4735(5) 0.2854(3) -0.4910(4)
H20B H -0.5152 0.2850 -0.5545
H21B H -0.4030 0.2656 -0.4820
H22B H -0.5121 0.2612 -0.4579
C31B C 0.2310(4) 0.5040(2) -0.0257(3)
O15B O 0.3340(2) 0.50412(17) 0.0048(2)
O16B O 0.1696(2) 0.48082(14) 0.01654(19)
C32B C 0.7286(3) 0.5522(2) 0.6176(3)
O17B O 0.7653(3) 0.57116(15) 0.6977(2)
O17B_2 O -0.2347(3) 0.57116(15) -0.3023(2)
O18B O 0.6635(2) 0.50301(14) 0.5926(2)
O18B_2 O -0.3365(2) 0.50301(14) -0.4074(2)
C33B C 0.0334(4) 0.3615(2) 0.0667(3)
O19B O 0.1236(3) 0.37236(16) 0.1261(2)
C34B C -0.0081(4) 0.2926(2) 0.0586(4)
H23B H 0.0441 0.2655 0.1022
H24B H -0.0772 0.2915 0.0698
H25B H -0.0177 0.2766 -0.0015
H26B H -0.303(5) 0.443(2) -0.149(3)
H27B H 0.500(5) 0.6038(19) 0.119(5)
H28B H 0.544(5) 0.3872(17) 0.104(4)
H29B H 0.595(2) 0.439(3) 0.086(4)
H30B H 0.515(5) 0.577(3) 0.0582(13)
O13 O 0.2465(4) 0.6408(2) 0.0901(3)
H33 H 0.182(4) 0.635(6) 0.092(8)
H34 H 0.271(9) 0.677(4) 0.116(7)
O14 O 0.3277(5) 0.7331(3) 0.2409(4)
H31 H 0.328(8) 0.714(6) 0.289(5)
H32 H 0.387(4) 0.714(6) 0.221(8)
O20 O 0.5292(11) 0.6528(7) 0.2391(8)
H35 H 0.478(6) 0.684(6) 0.214(7)
H36 H 0.549(10) 0.657(6) 0.2963(12)
loop_
_geom_bond_atom_site_label_1
_geom_bond_atom_site_label_2
_geom_bond_site_symmetry_1
_geom_bond_site_symmetry_2
Co1 O1 1_555 1_555
Co2 O1 1_555 1_555
Co3 O9 1_555 1_555
Co4 O2 1_555 1_555
Co5 O4 1_555 1_555
O1 H26 1_555 1_555
O2 Co1 1_555 1_555
O3 Co4 1_555 1_555
O4 C7 1_555 1_555
O5 Co1 1_555 1_555
O6 Co2 1_555 1_555
O7 Co2 1_555 1_555
O8 Co5 1_555 1_555
C1 C2 1_555 1_555
C2 C3 1_555 1_555
C3 C11 1_555 1_555
O9 H28 1_555 1_555
C4 O2 1_555 1_555
C5 C6 1_555 1_555
O10 C9 1_555 1_555
C6 C9 1_555 1_555
O11 Co3 1_555 1_555
C7 O7 1_555 1_555
C8 C5 1_555 1_555
C9 O8 1_555 1_555
C10 C2 1_555 1_555
H1 C10 1_555 1_555
C11 C15 1_555 1_555
C12 H2 1_555 1_555
C13 H3 1_555 1_555
C14 C6 1_555 1_555
H4 C14 1_555 1_555
C15 H5 1_555 1_555
C16 C8 1_555 1_555
H6 C16 1_555 1_555
C17 H7 1_555 1_555
C18 C3 1_555 1_555
H8 C18 1_555 1_555
C19 C1 1_555 1_555
H9 C19 1_555 1_555
C20 C12 1_555 1_555
H10 C20 1_555 1_555
C21 C5 1_555 1_555
H11 C21 1_555 1_555
C22 C13 1_555 1_555
H12 C22 1_555 1_555
C23 C10 1_555 1_555
H13 C23 1_555 1_555
O12 C25 1_555 1_555
C24 C8 1_555 1_555
C25 O5 1_555 1_555
C26 C24 1_555 1_555
H14 C26 1_555 1_555
C27 C26 1_555 1_555
H15 C27 1_555 1_555
C28 C16 1_555 1_555
H16 C28 1_555 1_555
C29 C25 1_555 1_555
H17 C29 1_555 1_555
H18 C29 1_555 1_555
H19 C29 1_555 1_555
C30 C7 1_555 1_555
H20 C30 1_555 1_555
H21 C30 1_555 1_555
H22 C30 1_555 1_555
O13 H33 1_555 1_555
O14 H31 1_555 1_555
C31 C11 1_555 1_555
O15 Co3 1_555 1_555
O16 Co4 1_555 1_555
C32 C24 1_555 1_555
O17 Co1 1_555 1_555
O18 Co2 1_555 1_555
C33 O3 1_555 1_555
O19 C33 1_555 1_555
C34 C33 1_555 1_555
H23 C34 1_555 1_555
H24 C34 1_555 1_555
H25 C34 1_555 1_555
H27 O11 1_555 1_555
H29 O9 1_555 1_555
H30 O11 1_555 1_555
O20 H35 1_555 1_555
H32 O14 1_555 1_555
H34 O13 1_555 1_555
H36 O20 1_555 1_555
Co1B O16 1_555 1_555
Co1B_2 O17B 1_555 1_555
Co2B O1B 1_555 1_555
Co2B_2 O8 1_555 1_555
Co3B O1 1_555 1_555
Co3_2 O10 1_555 1_555
Co5_2 O4B 1_555 1_555
O1B Co3 1_555 1_555
O2B Co4 1_555 1_555
O3B Co4 1_555 1_555
O4B C7B 1_555 1_555
O4B_2 Co5 1_555 1_555
O5B Co3 1_555 1_555
O6B Co2B 1_555 1_555
O7B Co2B 1_555 1_555
O8B Co2 1_555 1_555
O8_2 Co2B 1_555 1_555
C1B C2B 1_555 1_555
C2B C3B 1_555 1_555
C3B C11B 1_555 1_555
O9B Co3B 1_555 1_555
C4B O2B 1_555 1_555
C5B C6B 1_555 1_555
O10B Co3B 1_555 1_555
O10_2 Co3 1_555 1_555
C6B C9B 1_555 1_555
O11B Co3B 1_555 1_555
C7B O7B 1_555 1_555
C8B C5B 1_555 1_555
C9B O8B 1_555 1_555
C10B C2B 1_555 1_555
H1B C10B 1_555 1_555
C11B C15B 1_555 1_555
C12B H2B 1_555 1_555
C13B H3B 1_555 1_555
C14B C6B 1_555 1_555
H4B C14B 1_555 1_555
C15B H5B 1_555 1_555
C16B C8B 1_555 1_555
H6B C16B 1_555 1_555
C17B H7B 1_555 1_555
C18B C3B 1_555 1_555
H8B C18B 1_555 1_555
C19B C1B 1_555 1_555
H9B C19B 1_555 1_555
C20B C12B 1_555 1_555
H10B C20B 1_555 1_555
C21B C5B 1_555 1_555
H11B C21B 1_555 1_555
C22B C13B 1_555 1_555
H12B C22B 1_555 1_555
C23B C10B 1_555 1_555
H13B C23B 1_555 1_555
O12B C25B 1_555 1_555
C24B C8B 1_555 1_555
C25B O5B 1_555 1_555
C26B C24B 1_555 1_555
H14B C26B 1_555 1_555
C27B C26B 1_555 1_555
H15B C27B 1_555 1_555
C28B C16B 1_555 1_555
H16B C28B 1_555 1_555
C29B C25B 1_555 1_555
H17B C29B 1_555 1_555
H18B C29B 1_555 1_555
H19B C29B 1_555 1_555
C30B C7B 1_555 1_555
H20B C30B 1_555 1_555
H21B C30B 1_555 1_555
H22B C30B 1_555 1_555
C31B C11B 1_555 1_555
O15B Co3B 1_555 1_555
O16B Co1 1_555 1_555
C32B C24B 1_555 1_555
O17B C32B 1_555 1_555
O17B_2 Co1B 1_555 1_555
O18B Co5 1_555 1_555
O18B_2 Co2B 1_555 1_555
C33B O3B 1_555 1_555
O19B Co1 1_555 1_555
C34B C33B 1_555 1_555
H23B C34B 1_555 1_555
H24B C34B 1_555 1_555
H25B C34B 1_555 1_555
H26B O1B 1_555 1_555
H27B O11B 1_555 1_555
H28B O9B 1_555 1_555
H29B O9B 1_555 1_555
H30B O11B 1_555 1_555
Co4 O16B 1_555 1_555
Co5 O18 1_555 1_555
Co5 O8B 1_555 1_555
O5 Co3B 1_555 1_555
O6 C4 1_555 1_555
C1 C4 1_555 1_555
C12 C18 1_555 1_555
C13 C21 1_555 1_555
C14 C22 1_555 1_555
C15 C20 1_555 1_555
C17 C19 1_555 1_555
C17 C23 1_555 1_555
C27 C28 1_555 1_555
C31 O15 1_555 1_555
C31 O16 1_555 1_555
C32 O17 1_555 1_555
C32 O18 1_555 1_555
O19 Co1B 1_555 1_555
Co1B O1B 1_555 1_555
Co1B O2B 1_555 1_555
Co1B O5B 1_555 1_555
Co2B_2 O18B 1_555 1_555
Co5_2 O8_2 1_555 1_555
Co5_2 O18B_2 1_555 1_555
O6B C4B 1_555 1_555
C1B C4B 1_555 1_555
O10B C9B 1_555 1_555
C12B C18B 1_555 1_555
C13B C21B 1_555 1_555
C14B C22B 1_555 1_555
C15B C20B 1_555 1_555
C17B C19B 1_555 1_555
C17B C23B 1_555 1_555
C27B C28B 1_555 1_555
C31B O15B 1_555 1_555
C31B O16B 1_555 1_555
C32B O18B 1_555 1_555
C33B O19B 1_555 1_555

#END
