
#######################################################################
#
#                 Cambridge Crystallographic Data Centre
#                                CCDC 
#
#######################################################################
#
# If this CIF has been generated from an entry in the Cambridge 
# Structural Database, then it will include bibliographic, chemical, 
# crystal, experimental, refinement or atomic coordinate data resulting 
# from the CCDC's data processing and validation procedures.
#
#######################################################################

data_IGEVUM
_symmetry_cell_setting           monoclinic
_symmetry_space_group_name_H-M   'P 21/n'
_symmetry_Int_Tables_number      14
_space_group_name_Hall           '-P 2yn'
loop_
_symmetry_equiv_pos_site_id
_symmetry_equiv_pos_as_xyz
1 x,y,z
2 1/2-x,1/2+y,1/2-z
3 -x,-y,-z
4 1/2+x,1/2-y,1/2+z
_cell_length_a                   10.024(2)
_cell_length_b                   9.6125(19)
_cell_length_c                   20.617(4)
_cell_angle_alpha                90
_cell_angle_beta                 90.45(3)
_cell_angle_gamma                90
_cell_volume                     1986.5
loop_
_atom_site_label
_atom_site_type_symbol
_atom_site_fract_x
_atom_site_fract_y
_atom_site_fract_z
Co1 Co 0.46555(5) 0.74873(5) 0.00840(2)
O1 O 0.5777(2) 0.9022(3) -0.03794(12)
O2 O 0.6841(2) 1.1018(3) -0.02065(13)
O3 O 0.6623(3) 0.3932(3) -0.05235(12)
O4 O 0.6086(3) 0.5929(3) -0.00413(12)
N1 N 0.3719(3) 0.7163(4) -0.08619(15)
N2 N 0.0521(4) 0.7270(3) -0.39445(16)
C1 C 0.7964(4) 0.8928(4) 0.0063(2)
C2 C 0.1675(4) 0.7127(5) -0.27002(19)
C3 C 0.6619(3) 0.5230(4) -0.04837(16)
C4 C 0.6769(3) 0.9727(4) -0.01964(16)
C5 C 0.0788(5) 0.6153(5) -0.29176(18)
H1 H 0.0539 0.5424 -0.2648
C6 C 0.7278(4) 0.6041(4) -0.10214(18)
C7 C 0.8394(4) 0.7708(4) -0.0242(2)
C8 C 0.7940(4) 0.7279(4) -0.0899(2)
C9 C 0.2442(4) 0.6764(5) -0.09095(17)
H2 H 0.2003 0.6513 -0.0531
C10 C 0.8555(5) 0.9356(5) 0.0639(2)
H3 H 0.8272 1.0170 0.0838
C11 C 0.8313(5) 0.8084(6) -0.1434(2)
H4 H 0.8727 0.8939 -0.1366
C12 C 0.7086(5) 0.5564(6) -0.1654(2)
H5 H 0.6700 0.4697 -0.1728
C13 C 0.0260(5) 0.6244(5) -0.3536(2)
H6 H -0.0313 0.5543 -0.3674
C14 C 0.9990(6) 0.7368(6) 0.0628(3)
H7 H 1.0665 0.6841 0.0819
C15 C 0.4324(5) 0.7473(4) -0.1410(2)
H8 H 0.5217 0.7731 -0.1390
C16 C 0.9573(5) 0.8568(6) 0.0919(3)
H9 H 0.9970 0.8859 0.1305
C17 C 0.9411(4) 0.6932(5) 0.0052(2)
H10 H 0.9701 0.6114 -0.0142
C18 C 0.1338(6) 0.8245(6) -0.3720(2)
H11 H 0.1515 0.9001 -0.3987
C19 C 0.7471(7) 0.6385(6) -0.2175(2)
H12 H 0.7319 0.6090 -0.2599
C20 C 0.1939(6) 0.8215(6) -0.3123(2)
H13 H 0.2523 0.8922 -0.3000
C21 C 0.8079(8) 0.7637(6) -0.2055(3)
H14 H 0.8338 0.8192 -0.2401
C22 C 0.3710(5) 0.7438(5) -0.2012(2)
H15 H 0.4193 0.7658 -0.2381
C23 C 0.2375(4) 0.7075(4) -0.20675(18)
C24 C 0.1734(4) 0.6704(5) -0.14903(17)
H16 H 0.0847 0.6422 -0.1497
Co1B Co 0.53445(5) 1.25127(5) -0.00840(2)
Co1B_2 Co 0.53445(5) 0.25127(5) -0.00840(2)
Co1C Co -0.03445(5) 0.75127(5) -0.49160(2)
O2B O 0.3159(2) 0.8982(3) 0.02065(13)
O3B O 0.3377(3) 0.6068(3) 0.05235(12)
N2C N 0.5521(4) 0.7730(3) 0.10555(16)
loop_
_geom_bond_atom_site_label_1
_geom_bond_atom_site_label_2
_geom_bond_site_symmetry_1
_geom_bond_site_symmetry_2
Co1 O1 1_555 1_555
O1 C4 1_555 1_555
O2 C4 1_555 1_555
O3 C3 1_555 1_555
O4 Co1 1_555 1_555
N1 Co1 1_555 1_555
N2 C13 1_555 1_555
C1 C4 1_555 1_555
C2 C5 1_555 1_555
C3 O4 1_555 1_555
C5 H1 1_555 1_555
C6 C3 1_555 1_555
C7 C1 1_555 1_555
C8 C6 1_555 1_555
C9 N1 1_555 1_555
H2 C9 1_555 1_555
C10 C1 1_555 1_555
H3 C10 1_555 1_555
C11 C8 1_555 1_555
H4 C11 1_555 1_555
C12 C6 1_555 1_555
H5 C12 1_555 1_555
C13 C5 1_555 1_555
H6 C13 1_555 1_555
C14 H7 1_555 1_555
C15 N1 1_555 1_555
H8 C15 1_555 1_555
C16 C10 1_555 1_555
H9 C16 1_555 1_555
C17 C7 1_555 1_555
H10 C17 1_555 1_555
C18 N2 1_555 1_555
H11 C18 1_555 1_555
C19 C12 1_555 1_555
H12 C19 1_555 1_555
C20 C2 1_555 1_555
H13 C20 1_555 1_555
C21 C11 1_555 1_555
H14 C21 1_555 1_555
C22 C15 1_555 1_555
H15 C22 1_555 1_555
C23 C2 1_555 1_555
C24 C9 1_555 1_555
H16 C24 1_555 1_555
Co1B O2 1_555 1_555
Co1B_2 O3 1_555 1_555
Co1C N2 1_555 1_555
O2B Co1 1_555 1_555
O3B Co1 1_555 1_555
N2C Co1 1_555 1_555
C7 C8 1_555 1_555
C14 C16 1_555 1_555
C14 C17 1_555 1_555
C18 C20 1_555 1_555
C19 C21 1_555 1_555
C22 C23 1_555 1_555
C23 C24 1_555 1_555

#END
