
#######################################################################
#
#                 Cambridge Crystallographic Data Centre
#                                CCDC 
#
#######################################################################
#
# If this CIF has been generated from an entry in the Cambridge 
# Structural Database, then it will include bibliographic, chemical, 
# crystal, experimental, refinement or atomic coordinate data resulting 
# from the CCDC's data processing and validation procedures.
#
#######################################################################

data_IGEWUM01
_symmetry_cell_setting           monoclinic
_symmetry_space_group_name_H-M   'P 21/c'
_symmetry_Int_Tables_number      14
_space_group_name_Hall           '-P 2ybc'
loop_
_symmetry_equiv_pos_site_id
_symmetry_equiv_pos_as_xyz
1 x,y,z
2 x,1/2-y,1/2+z
3 -x,-y,-z
4 -x,1/2+y,1/2-z
_cell_length_a                   10.098(2)
_cell_length_b                   19.953(4)
_cell_length_c                   7.3570(15)
_cell_angle_alpha                90
_cell_angle_beta                 98.32(3)
_cell_angle_gamma                90
_cell_volume                     1466.73
loop_
_atom_site_label
_atom_site_type_symbol
_atom_site_fract_x
_atom_site_fract_y
_atom_site_fract_z
Cu1 Cu 0.13925(3) 0.148950(16) 0.36123(5)
N1 N 0.1040(2) 0.04989(11) 0.3239(3)
N2 N -0.0540(2) 0.15238(11) 0.2633(4)
O1 O 0.5331(2) 0.15190(11) 0.5575(4)
O2 O 0.1297(2) 0.23475(10) 0.4843(3)
O3 O 0.3188(2) 0.13242(11) 0.4740(3)
O4 O 0.1960(2) 0.33623(9) 0.5778(3)
C1 C 0.1939(3) 0.00017(15) 0.3676(4)
H5 H 0.2801 0.0108 0.4227
C2 C 0.1601(3) -0.06577(16) 0.3320(5)
H6 H 0.2232 -0.0994 0.3624
C3 C 0.0341(4) -0.08164(17) 0.2522(5)
H7 H 0.0108 -0.1260 0.2257
C4 C -0.0592(3) -0.03107(15) 0.2107(5)
H8 H -0.1463 -0.0411 0.1580
C5 C -0.0211(3) 0.03434(13) 0.2489(4)
C6 C -0.1114(3) 0.09321(14) 0.2093(4)
C7 C -0.2422(3) 0.08917(16) 0.1255(5)
H9 H -0.2804 0.0478 0.0914
C8 C -0.3155(4) 0.14725(17) 0.0930(6)
H10 H -0.4038 0.1455 0.0358
C9 C -0.2569(3) 0.20841(17) 0.1460(5)
H11 H -0.3043 0.2482 0.1242
C10 C -0.1263(3) 0.20832(16) 0.2316(5)
H12 H -0.0867 0.2491 0.2691
C11 C 0.2103(3) 0.28411(13) 0.4893(4)
C12 C 0.3258(3) 0.28290(13) 0.3847(4)
H13 H 0.3369 0.3208 0.3148
C13 C 0.4153(3) 0.23417(14) 0.3788(4)
H14 H 0.4809 0.2421 0.3047
C14 C 0.4231(3) 0.16855(15) 0.4765(4)
O4A O 0.1960(2) 0.16377(9) 0.0778(3)
Cu1A Cu 0.13925(3) 0.351050(16) 0.86123(5)
O5 O 0.3756(3) 0.43868(12) 0.5415(4)
H1 H 0.4067 0.4634 0.6367
H2 H 0.3258 0.4047 0.5948
O6 O 0.5182(3) 0.52634(14) 0.7718(5)
H3 H 0.5784 0.5414 0.7092
H4 H 0.5016 0.5607 0.8443
loop_
_geom_bond_atom_site_label_1
_geom_bond_atom_site_label_2
_geom_bond_site_symmetry_1
_geom_bond_site_symmetry_2
Cu1 N1 1_555 1_555
N1 C1 1_555 1_555
N2 Cu1 1_555 1_555
O1 C14 1_555 1_555
O2 Cu1 1_555 1_555
O3 Cu1 1_555 1_555
O4 C11 1_555 1_555
O5 H1 1_555 1_555
H2 O5 1_555 1_555
O6 H3 1_555 1_555
H4 O6 1_555 1_555
C1 H5 1_555 1_555
C2 C1 1_555 1_555
H6 C2 1_555 1_555
C3 C2 1_555 1_555
H7 C3 1_555 1_555
C4 C3 1_555 1_555
H8 C4 1_555 1_555
C5 N1 1_555 1_555
C6 N2 1_555 1_555
C7 C6 1_555 1_555
H9 C7 1_555 1_555
C8 C7 1_555 1_555
H10 C8 1_555 1_555
C9 C8 1_555 1_555
H11 C9 1_555 1_555
C10 N2 1_555 1_555
H12 C10 1_555 1_555
C11 O2 1_555 1_555
C12 C11 1_555 1_555
H13 C12 1_555 1_555
C13 C12 1_555 1_555
H14 C13 1_555 1_555
C14 O3 1_555 1_555
O4A Cu1 1_555 1_555
Cu1A O4 1_555 1_555
C4 C5 1_555 1_555
C5 C6 1_555 1_555
C9 C10 1_555 1_555
C13 C14 1_555 1_555

#END
