
#######################################################################
#
#                 Cambridge Crystallographic Data Centre
#                                CCDC 
#
#######################################################################
#
# If this CIF has been generated from an entry in the Cambridge 
# Structural Database, then it will include bibliographic, chemical, 
# crystal, experimental, refinement or atomic coordinate data resulting 
# from the CCDC's data processing and validation procedures.
#
#######################################################################

data_IGEWOH
_symmetry_cell_setting           monoclinic
_symmetry_space_group_name_H-M   'P 21/n'
_symmetry_Int_Tables_number      14
_space_group_name_Hall           '-P 2yn'
loop_
_symmetry_equiv_pos_site_id
_symmetry_equiv_pos_as_xyz
1 x,y,z
2 1/2-x,1/2+y,1/2-z
3 -x,-y,-z
4 1/2+x,1/2-y,1/2+z
_cell_length_a                   9.6873(19)
_cell_length_b                   9.5946(19)
_cell_length_c                   20.379(4)
_cell_angle_alpha                90
_cell_angle_beta                 91.94(3)
_cell_angle_gamma                90
_cell_volume                     1893.06
loop_
_atom_site_label
_atom_site_type_symbol
_atom_site_fract_x
_atom_site_fract_y
_atom_site_fract_z
Fe1 Fe 0.53504(5) 0.24910(5) -0.49118(2)
O1 O 0.3119(3) 0.5999(3) -0.52581(14)
O2 O 0.3845(2) 0.0899(3) -0.50330(11)
N1 N 0.1273(3) 0.2838(3) -0.09022(14)
N2 N 0.4435(3) 0.2712(3) -0.39103(15)
C1 C 0.2032(4) 0.3940(4) -0.49990(19)
C2 C 0.2559(4) 0.2913(4) -0.20676(18)
C3 C 0.2660(4) 0.1035(4) -0.60382(18)
C4 C 0.3305(4) 0.0229(4) -0.54864(16)
C5 C 0.3220(4) 0.3300(5) -0.15054(18)
H1 H 0.4136 0.3590 -0.1507
C6 C 0.3198(4) 0.4727(4) -0.52527(17)
C7 C 0.1600(4) 0.2726(4) -0.5288(2)
C8 C 0.2019(4) 0.2272(4) -0.5934(2)
C9 C 0.4649(5) 0.3782(5) -0.35167(19)
H2 H 0.5206 0.4506 -0.3656
C10 C 0.2535(4) 0.3262(5) -0.09364(18)
H3 H 0.2994 0.3555 -0.0553
C11 C 0.0621(4) 0.1972(5) -0.4987(2)
H4 H 0.0319 0.1138 -0.5175
C12 C 0.1635(5) 0.3050(5) -0.6478(2)
H5 H 0.1212 0.3909 -0.6420
C13 C 0.1456(4) 0.4374(5) -0.4428(2)
H6 H 0.1741 0.5210 -0.4237
C14 C 0.1222(5) 0.2552(5) -0.2049(2)
H7 H 0.0720 0.2330 -0.2432
C15 C 0.2836(5) 0.0570(5) -0.66632(19)
H8 H 0.3234 -0.0300 -0.6729
C16 C 0.0490(5) 0.3611(5) -0.4145(3)
H9 H 0.0105 0.3912 -0.3758
C17 C 0.0077(5) 0.2404(5) -0.4422(3)
H10 H -0.0588 0.1863 -0.4223
C18 C 0.3660(6) 0.1738(5) -0.3694(2)
H11 H 0.3509 0.0957 -0.3958
C19 C 0.2441(7) 0.1355(6) -0.7190(2)
H12 H 0.2573 0.1034 -0.7614
C20 C 0.0629(5) 0.2519(4) -0.1462(2)
H13 H -0.0294 0.2255 -0.1451
C21 C 0.1856(7) 0.2602(5) -0.7091(3)
H14 H 0.1601 0.3159 -0.7448
O3 O 0.3262(3) -0.1039(3) -0.55286(12)
O4 O 0.4181(2) 0.4042(3) -0.54310(11)
C22 C 0.4089(5) 0.3876(5) -0.29145(19)
H15 H 0.4284 0.4636 -0.2644
C23 C 0.3255(4) 0.2859(4) -0.2717(2)
C24 C 0.3054(6) 0.1781(6) -0.3111(2)
H16 H 0.2492 0.1049 -0.2984
Fe1C Fe 0.03504(5) 0.25090(5) 0.00882(2)
Fe1B Fe 0.46496(5) 0.75090(5) -0.50882(2)
Fe1B_2 Fe 0.46496(5) -0.24910(5) -0.50882(2)
O1B O 0.6881(3) 0.4001(3) -0.47419(14)
N1C N 0.6273(3) 0.2162(3) -0.59022(14)
O3B O 0.6738(3) 0.1039(3) -0.44714(12)
loop_
_geom_bond_atom_site_label_1
_geom_bond_atom_site_label_2
_geom_bond_site_symmetry_1
_geom_bond_site_symmetry_2
Fe1 O2 1_555 1_555
O1 C6 1_555 1_555
O2 C4 1_555 1_555
N1 C10 1_555 1_555
N2 Fe1 1_555 1_555
C1 C6 1_555 1_555
C2 C5 1_555 1_555
C3 C4 1_555 1_555
C4 O3 1_555 1_555
C5 H1 1_555 1_555
C6 O4 1_555 1_555
C7 C1 1_555 1_555
C8 C3 1_555 1_555
C9 N2 1_555 1_555
H2 C9 1_555 1_555
C10 C5 1_555 1_555
H3 C10 1_555 1_555
C11 C7 1_555 1_555
H4 C11 1_555 1_555
C12 C8 1_555 1_555
H5 C12 1_555 1_555
C13 C1 1_555 1_555
H6 C13 1_555 1_555
C14 C2 1_555 1_555
H7 C14 1_555 1_555
C15 C3 1_555 1_555
H8 C15 1_555 1_555
C16 C13 1_555 1_555
H9 C16 1_555 1_555
C17 C11 1_555 1_555
H10 C17 1_555 1_555
C18 N2 1_555 1_555
H11 C18 1_555 1_555
C19 C15 1_555 1_555
H12 C19 1_555 1_555
C20 N1 1_555 1_555
H13 C20 1_555 1_555
C21 C12 1_555 1_555
H14 C21 1_555 1_555
O3 Fe1B_2 1_555 1_555
O4 Fe1 1_555 1_555
C22 C9 1_555 1_555
H15 C22 1_555 1_555
C23 C2 1_555 1_555
C24 C18 1_555 1_555
H16 C24 1_555 1_555
Fe1C N1 1_555 1_555
Fe1B O1 1_555 1_555
O1B Fe1 1_555 1_555
N1C Fe1 1_555 1_555
O3B Fe1 1_555 1_555
C7 C8 1_555 1_555
C14 C20 1_555 1_555
C16 C17 1_555 1_555
C19 C21 1_555 1_555
C22 C23 1_555 1_555
C23 C24 1_555 1_555

#END
