
#######################################################################
#
#                 Cambridge Crystallographic Data Centre
#                                CCDC 
#
#######################################################################
#
# If this CIF has been generated from an entry in the Cambridge 
# Structural Database, then it will include bibliographic, chemical, 
# crystal, experimental, refinement or atomic coordinate data resulting 
# from the CCDC's data processing and validation procedures.
#
#######################################################################

data_IGEWUM03
_symmetry_cell_setting           monoclinic
_symmetry_space_group_name_H-M   'P 21/c'
_symmetry_Int_Tables_number      14
_space_group_name_Hall           '-P 2ybc'
loop_
_symmetry_equiv_pos_site_id
_symmetry_equiv_pos_as_xyz
1 x,y,z
2 -x,1/2+y,1/2-z
3 -x,-y,-z
4 x,1/2-y,1/2+z
_cell_length_a                   10.126(2)
_cell_length_b                   19.983(4)
_cell_length_c                   7.4042(15)
_cell_angle_alpha                90
_cell_angle_beta                 98.42(3)
_cell_angle_gamma                90
_cell_volume                     1482.08
loop_
_atom_site_label
_atom_site_type_symbol
_atom_site_fract_x
_atom_site_fract_y
_atom_site_fract_z
Cu1 Cu 0.13934(4) 0.14900(2) -0.13877(6)
O1 O 0.3189(3) 0.13227(13) -0.0261(4)
O2 O 0.5337(3) 0.15163(14) 0.0564(5)
O3 O 0.1963(3) 0.33628(11) 0.0776(4)
O4 O 0.1302(3) 0.23511(12) -0.0161(4)
N1 N 0.1046(3) 0.04951(14) -0.1752(4)
N2 N -0.0548(3) 0.15223(14) -0.2379(5)
C1 C 0.1938(4) 0.00043(18) -0.1321(6)
H5 H 0.2797 0.0112 -0.0772
C2 C 0.1612(4) -0.0654(2) -0.1669(6)
H6 H 0.2246 -0.0988 -0.1373
C3 C 0.0341(5) -0.0813(2) -0.2461(7)
H7 H 0.0107 -0.1258 -0.2701
C4 C -0.0603(4) -0.03083(18) -0.2905(6)
H8 H -0.1468 -0.0409 -0.3443
C5 C -0.0216(4) 0.03438(17) -0.2522(5)
C6 C -0.1111(4) 0.09284(18) -0.2904(5)
C7 C -0.2418(4) 0.0890(2) -0.3743(7)
H9 H -0.2799 0.0478 -0.4093
C8 C -0.3155(4) 0.1471(2) -0.4055(8)
H10 H -0.4039 0.1453 -0.4610
C9 C -0.2574(4) 0.2076(2) -0.3540(7)
H11 H -0.3052 0.2473 -0.3756
C10 C -0.1266(4) 0.20819(19) -0.2698(7)
H12 H -0.0870 0.2490 -0.2339
C11 C 0.4228(4) 0.16840(19) -0.0246(5)
C12 C 0.4154(4) 0.23409(18) -0.1206(5)
H13 H 0.4811 0.2421 -0.1936
C13 C 0.3260(4) 0.28294(17) -0.1149(5)
H14 H 0.3373 0.3208 -0.1840
C14 C 0.2104(4) 0.28402(16) -0.0111(5)
Cu1C Cu 0.13934(4) 0.35100(2) 0.36123(6)
O3C O 0.1963(3) 0.16372(11) -0.4224(4)
O5 O 0.3770(4) 0.0607(2) -0.4577(6)
H1 H 0.413(7) 0.034(4) -0.346(10)
H2 H 0.341(5) 0.081(2) -0.436(7)
O6 O 0.4822(6) 0.0262(2) 0.2264(8)
H3 H 0.435(6) 0.034(3) 0.296(8)
H4 H 0.494(7) 0.052(3) 0.143(11)
loop_
_geom_bond_atom_site_label_1
_geom_bond_atom_site_label_2
_geom_bond_site_symmetry_1
_geom_bond_site_symmetry_2
Cu1 O1 1_555 1_555
O1 C11 1_555 1_555
O2 C11 1_555 1_555
O3 C14 1_555 1_555
O4 Cu1 1_555 1_555
O5 H1 1_555 1_555
H2 O5 1_555 1_555
O6 H3 1_555 1_555
H4 O6 1_555 1_555
N1 Cu1 1_555 1_555
N2 Cu1 1_555 1_555
C1 N1 1_555 1_555
H5 C1 1_555 1_555
C2 C1 1_555 1_555
H6 C2 1_555 1_555
C3 C2 1_555 1_555
H7 C3 1_555 1_555
C4 C3 1_555 1_555
H8 C4 1_555 1_555
C5 N1 1_555 1_555
C6 N2 1_555 1_555
C7 C6 1_555 1_555
H9 C7 1_555 1_555
C8 C7 1_555 1_555
H10 C8 1_555 1_555
C9 C8 1_555 1_555
H11 C9 1_555 1_555
C10 N2 1_555 1_555
H12 C10 1_555 1_555
C11 C12 1_555 1_555
C12 H13 1_555 1_555
C13 C12 1_555 1_555
H14 C13 1_555 1_555
C14 O4 1_555 1_555
Cu1C O3 1_555 1_555
O3C Cu1 1_555 1_555
C4 C5 1_555 1_555
C5 C6 1_555 1_555
C9 C10 1_555 1_555
C13 C14 1_555 1_555

#END
