
#######################################################################
#
#                 Cambridge Crystallographic Data Centre
#                                CCDC 
#
#######################################################################
#
# If this CIF has been generated from an entry in the Cambridge 
# Structural Database, then it will include bibliographic, chemical, 
# crystal, experimental, refinement or atomic coordinate data resulting 
# from the CCDC's data processing and validation procedures.
#
#######################################################################

data_IGEWIB
_symmetry_cell_setting           monoclinic
_symmetry_space_group_name_H-M   'P 21/n'
_symmetry_Int_Tables_number      14
_space_group_name_Hall           '-P 2yn'
loop_
_symmetry_equiv_pos_site_id
_symmetry_equiv_pos_as_xyz
1 x,y,z
2 1/2-x,1/2+y,1/2-z
3 -x,-y,-z
4 1/2+x,1/2-y,1/2+z
_cell_length_a                   11.627(2)
_cell_length_b                   11.017(2)
_cell_length_c                   16.753(3)
_cell_angle_alpha                90
_cell_angle_beta                 98.17(3)
_cell_angle_gamma                90
_cell_volume                     2124.19
loop_
_atom_site_label
_atom_site_type_symbol
_atom_site_fract_x
_atom_site_fract_y
_atom_site_fract_z
Cd1 Cd -0.004743(16) 0.289865(16) 0.035920(11)
O1 O 0.12037(18) 0.28875(16) -0.05533(13)
C1 C 0.1250(2) 0.4447(2) -0.19880(15)
C2 C 0.1151(2) 0.5406(2) -0.13571(15)
O2 O 0.00968(17) 0.56593(18) -0.12567(12)
C3 C 0.2108(2) 0.3312(2) -0.01327(16)
C4 C 0.3237(2) 0.3606(2) -0.13198(15)
O3 O 0.2117(2) 0.3597(2) 0.05850(12)
C5 C 0.3207(2) 0.3472(2) -0.04978(14)
C6 C 0.2175(2) 0.3627(2) -0.19532(14)
C7 C 0.2155(3) 0.2768(3) -0.25680(19)
H1 H 0.2769 0.2225 -0.2556
O4 O -0.1269(2) 0.39044(19) -0.07040(14)
N1 N -0.1381(2) 0.13027(19) 0.01696(14)
C8 C 0.5329(3) 0.3554(3) -0.02504(18)
H2 H 0.6015 0.3531 0.0111
C9 C -0.0155(3) 0.0344(2) 0.12687(16)
N2 N 0.0556(2) 0.1303(2) 0.12712(13)
C10 C -0.1291(2) 0.0423(2) 0.07277(17)
C11 C 0.4263(2) 0.3469(2) 0.00191(16)
H3 H 0.4247 0.3406 0.0571
C12 C 0.0345(3) 0.4384(3) -0.26322(16)
H4 H -0.0265 0.4934 -0.2658
C13 C 0.5354(3) 0.3674(3) -0.1057(2)
H5 H 0.6060 0.3739 -0.1254
C14 C 0.4319(2) 0.3699(3) -0.15824(17)
H6 H 0.4347 0.3780 -0.2132
C15 C -0.3241(3) -0.0256(3) 0.0252(3)
H7 H -0.3868 -0.0766 0.0291
C16 C 0.0337(3) 0.3530(3) -0.32260(19)
H8 H -0.0273 0.3503 -0.3650
C17 C -0.2221(3) -0.0358(3) 0.0784(2)
H9 H -0.2154 -0.0951 0.1183
C18 C 0.1246(3) 0.2704(3) -0.3193(2)
H10 H 0.1241 0.2113 -0.3589
C19 C -0.2373(3) 0.1385(3) -0.0354(2)
H11 H -0.2432 0.1987 -0.0747
C20 C -0.3301(3) 0.0616(3) -0.0334(2)
H12 H -0.3963 0.0688 -0.0714
C21 C 0.0141(3) -0.0668(3) 0.1746(2)
H13 H -0.0345 -0.1341 0.1722
O5 O 0.20174(18) 0.58879(19) -0.09838(12)
C22 C 0.1578(3) 0.1289(3) 0.1766(2)
H14 H 0.2080 0.1945 0.1760
C23 C 0.1192(3) -0.0643(4) 0.2263(2)
H15 H 0.1410 -0.1300 0.2598
C24 C 0.1899(3) 0.0340(4) 0.2276(2)
H16 H 0.2593 0.0368 0.2629
H17 H -0.075(2) 0.429(3) -0.090(2)
H18 H -0.178(3) 0.435(3) -0.056(3)
Cd1B Cd 0.004743(16) 0.710135(16) -0.035920(11)
O2B O -0.00968(17) 0.43407(18) 0.12567(12)
loop_
_geom_bond_atom_site_label_1
_geom_bond_atom_site_label_2
_geom_bond_site_symmetry_1
_geom_bond_site_symmetry_2
Cd1 O1 1_555 1_555
O1 C3 1_555 1_555
C1 C2 1_555 1_555
C2 O2 1_555 1_555
O2 Cd1B 1_555 1_555
C3 O3 1_555 1_555
C4 C5 1_555 1_555
O3 Cd1 1_555 1_555
C5 C3 1_555 1_555
C6 C1 1_555 1_555
C7 C6 1_555 1_555
H1 C7 1_555 1_555
O4 Cd1 1_555 1_555
N1 Cd1 1_555 1_555
C8 H2 1_555 1_555
C9 N2 1_555 1_555
N2 Cd1 1_555 1_555
C10 N1 1_555 1_555
C11 C5 1_555 1_555
H3 C11 1_555 1_555
C12 C1 1_555 1_555
H4 C12 1_555 1_555
C13 C8 1_555 1_555
H5 C13 1_555 1_555
C14 C4 1_555 1_555
H6 C14 1_555 1_555
C15 H7 1_555 1_555
C16 C12 1_555 1_555
H8 C16 1_555 1_555
C17 C10 1_555 1_555
H9 C17 1_555 1_555
C18 C7 1_555 1_555
H10 C18 1_555 1_555
C19 N1 1_555 1_555
H11 C19 1_555 1_555
C20 C15 1_555 1_555
H12 C20 1_555 1_555
C21 C9 1_555 1_555
H13 C21 1_555 1_555
O5 C2 1_555 1_555
C22 N2 1_555 1_555
H14 C22 1_555 1_555
C23 C21 1_555 1_555
H15 C23 1_555 1_555
C24 C22 1_555 1_555
H16 C24 1_555 1_555
H17 O4 1_555 1_555
H18 O4 1_555 1_555
O2B Cd1 1_555 1_555
C4 C6 1_555 1_555
C8 C11 1_555 1_555
C9 C10 1_555 1_555
C13 C14 1_555 1_555
C15 C17 1_555 1_555
C16 C18 1_555 1_555
C19 C20 1_555 1_555
C23 C24 1_555 1_555

#END
