
#######################################################################
#
#                 Cambridge Crystallographic Data Centre
#                                CCDC 
#
#######################################################################
#
# If this CIF has been generated from an entry in the Cambridge 
# Structural Database, then it will include bibliographic, chemical, 
# crystal, experimental, refinement or atomic coordinate data resulting 
# from the CCDC's data processing and validation procedures.
#
#######################################################################

data_IGEWUM
_symmetry_cell_setting           monoclinic
_symmetry_space_group_name_H-M   'P 21/a'
_symmetry_Int_Tables_number      14
_space_group_name_Hall           '-P 2yab'
loop_
_symmetry_equiv_pos_site_id
_symmetry_equiv_pos_as_xyz
1 x,y,z
2 1/2-x,1/2+y,-z
3 -x,-y,-z
4 1/2+x,1/2-y,z
_cell_length_a                   7.355(4)
_cell_length_b                   19.957(3)
_cell_length_c                   10.102(5)
_cell_angle_alpha                90
_cell_angle_beta                 98.33(5)
_cell_angle_gamma                90
_cell_volume                     1467.17
loop_
_atom_site_label
_atom_site_type_symbol
_atom_site_fract_x
_atom_site_fract_y
_atom_site_fract_z
Cu1 Cu 0.13886(5) 0.64895(2) 0.36066(4)
O1 O 0.0258(3) 0.6323(1) 0.1814(2)
O2 O -0.0569(4) 0.6518(1) -0.0338(2)
O3 O 0.0158(3) 0.7348(1) 0.3702(2)
O4 O -0.0773(3) 0.8361(1) 0.3037(2)
N1 N 0.1748(3) 0.5500(1) 0.3952(2)
N2 N 0.2382(4) 0.6523(1) 0.5543(2)
C1 C 0.0243(4) 0.6684(2) 0.0767(3)
C2 C 0.1216(4) 0.7341(2) 0.0843(3)
C3 C 0.1161(4) 0.7831(1) 0.1744(3)
C4 C 0.0109(4) 0.7839(1) 0.2902(3)
C5 C 0.1328(5) 0.5002(2) 0.3064(3)
C6 C 0.1673(5) 0.4343(2) 0.3390(3)
C7 C 0.2467(5) 0.4186(2) 0.4657(4)
C8 C 0.2891(5) 0.4690(2) 0.5595(3)
C9 C 0.2520(4) 0.5342(1) 0.5211(3)
C10 C 0.2908(4) 0.5930(1) 0.6116(3)
C11 C 0.3740(5) 0.5891(2) 0.7426(3)
C12 C 0.4047(6) 0.6474(2) 0.8147(4)
C13 C 0.3541(5) 0.7080(2) 0.7570(3)
C14 C 0.2696(5) 0.7084(2) 0.6270(3)
O4C O 0.4227(3) 0.6639(1) 0.3037(2)
Cu1C Cu -0.36114(5) 0.85105(2) 0.36066(4)
O5 O 0.0400(4) 0.0612(1) 0.8760(3)
O6 O 0.7263(5) 0.0248(1) 0.9792(3)
loop_
_geom_bond_atom_site_label_1
_geom_bond_atom_site_label_2
_geom_bond_site_symmetry_1
_geom_bond_site_symmetry_2
Cu1 O1 1_555 1_555
O1 C1 1_555 1_555
O2 C1 1_555 1_555
O3 Cu1 1_555 1_555
O4 C4 1_555 1_555
N1 Cu1 1_555 1_555
N2 Cu1 1_555 1_555
C1 C2 1_555 1_555
C2 C3 1_555 1_555
C3 C4 1_555 1_555
C4 O3 1_555 1_555
C5 N1 1_555 1_555
C6 C5 1_555 1_555
C7 C6 1_555 1_555
C8 C7 1_555 1_555
C9 N1 1_555 1_555
C10 N2 1_555 1_555
C11 C10 1_555 1_555
C12 C11 1_555 1_555
C13 C12 1_555 1_555
C14 N2 1_555 1_555
O4C Cu1 1_555 1_555
Cu1C O4 1_555 1_555
C8 C9 1_555 1_555
C9 C10 1_555 1_555
C13 C14 1_555 1_555

#END
