
#######################################################################
#
#                 Cambridge Crystallographic Data Centre
#                                CCDC 
#
#######################################################################
#
# If this CIF has been generated from an entry in the Cambridge 
# Structural Database, then it will include bibliographic, chemical, 
# crystal, experimental, refinement or atomic coordinate data resulting 
# from the CCDC's data processing and validation procedures.
#
#######################################################################

data_IGEWUM02
_symmetry_cell_setting           monoclinic
_symmetry_space_group_name_H-M   'P 21/c'
_symmetry_Int_Tables_number      14
_space_group_name_Hall           '-P 2ybc'
loop_
_symmetry_equiv_pos_site_id
_symmetry_equiv_pos_as_xyz
1 x,y,z
2 -x,1/2+y,1/2-z
3 -x,-y,-z
4 x,1/2-y,1/2+z
_cell_length_a                   10.046(2)
_cell_length_b                   19.947(4)
_cell_length_c                   7.2241(14)
_cell_angle_alpha                90
_cell_angle_beta                 98.400(3)
_cell_angle_gamma                90
_cell_volume                     1432.09
loop_
_atom_site_label
_atom_site_type_symbol
_atom_site_fract_x
_atom_site_fract_y
_atom_site_fract_z
Cu1 Cu 0.861153(17) -0.351742(8) 1.13923(2)
N1 N 0.89534(13) -0.45085(6) 1.17449(17)
N2 N 1.05580(13) -0.34856(6) 1.23912(19)
O1 O 0.68014(11) -0.36815(6) 1.02534(16)
O2 O 0.46249(12) -0.34930(6) 0.94368(18)
O3 O 0.87009(11) -0.26539(5) 1.01569(15)
O4 O 0.80386(11) -0.16319(5) 0.92462(15)
C1 C 0.80470(15) -0.49997(8) 1.1307(2)
H5 H 0.7161 -0.4886 1.0745
C2 C 0.83710(16) -0.56682(8) 1.1655(2)
H6 H 0.7717 -0.6009 1.1339
C3 C 0.96620(17) -0.58303(8) 1.2470(2)
H7 H 0.9903 -0.6285 1.2728
C4 C 1.06089(16) -0.53226(8) 1.2911(2)
H8 H 1.1502 -0.5425 1.3465
C5 C 1.02184(15) -0.46662(7) 1.2525(2)
C6 C 1.11301(15) -0.40806(7) 1.2923(2)
C7 C 1.24542(16) -0.41243(8) 1.3777(2)
H9 H 1.2846 -0.4547 1.4129
C8 C 1.31982(17) -0.35387(8) 1.4111(3)
H10 H 1.4108 -0.3557 1.4694
C9 C 1.26063(16) -0.29267(8) 1.3587(2)
H11 H 1.3096 -0.2521 1.3819
C10 C 1.12825(16) -0.29222(8) 1.2718(2)
H12 H 1.0873 -0.2505 1.2341
C11 C 0.57453(15) -0.33226(8) 1.0247(2)
C12 C 0.58229(15) -0.26606(7) 1.1241(2)
H13 H 0.5144 -0.2578 1.2000
C13 C 0.67249(15) -0.21732(7) 1.1195(2)
H14 H 0.6612 -0.1787 1.1924
C14 C 0.78972(14) -0.21630(7) 1.01257(19)
Cu1C Cu 0.861153(17) -0.148258(8) 0.63923(2)
O4C O 0.80386(11) -0.33681(5) 1.42462(15)
O5 O 0.62357(13) -0.06200(7) 0.96435(18)
H1 H 0.669(2) -0.0905(12) 0.936(3)
H2 H 0.595(2) -0.0425(12) 0.884(3)
O6 O 0.48318(14) 0.02303(7) 0.7185(2)
H3 H 0.499(2) 0.0549(13) 0.657(4)
H4 H 0.452(3) 0.0395(12) 0.797(4)
loop_
_geom_bond_atom_site_label_1
_geom_bond_atom_site_label_2
_geom_bond_site_symmetry_1
_geom_bond_site_symmetry_2
Cu1 N1 1_555 1_555
N1 C1 1_555 1_555
N2 Cu1 1_555 1_555
O1 Cu1 1_555 1_555
O2 C11 1_555 1_555
O3 Cu1 1_555 1_555
O4 C14 1_555 1_555
O5 H1 1_555 1_555
H2 O5 1_555 1_555
O6 H3 1_555 1_555
H4 O6 1_555 1_555
C1 H5 1_555 1_555
C2 C1 1_555 1_555
H6 C2 1_555 1_555
C3 C2 1_555 1_555
H7 C3 1_555 1_555
C4 C3 1_555 1_555
H8 C4 1_555 1_555
C5 N1 1_555 1_555
C6 N2 1_555 1_555
C7 C6 1_555 1_555
H9 C7 1_555 1_555
C8 C7 1_555 1_555
H10 C8 1_555 1_555
C9 C8 1_555 1_555
H11 C9 1_555 1_555
C10 N2 1_555 1_555
H12 C10 1_555 1_555
C11 O1 1_555 1_555
C12 C11 1_555 1_555
H13 C12 1_555 1_555
C13 C12 1_555 1_555
H14 C13 1_555 1_555
C14 O3 1_555 1_555
Cu1C O4 1_555 1_555
O4C Cu1 1_555 1_555
C4 C5 1_555 1_555
C5 C6 1_555 1_555
C9 C10 1_555 1_555
C13 C14 1_555 1_555

#END
