
#######################################################################
#
#                 Cambridge Crystallographic Data Centre
#                                CCDC 
#
#######################################################################
#
# If this CIF has been generated from an entry in the Cambridge 
# Structural Database, then it will include bibliographic, chemical, 
# crystal, experimental, refinement or atomic coordinate data resulting 
# from the CCDC's data processing and validation procedures.
#
#######################################################################

data_IGEWAT
_symmetry_cell_setting           monoclinic
_symmetry_space_group_name_H-M   'C 2'
_symmetry_Int_Tables_number      5
_space_group_name_Hall           'C 2y'
loop_
_symmetry_equiv_pos_site_id
_symmetry_equiv_pos_as_xyz
1 x,y,z
2 -x,y,-z
3 1/2+x,1/2+y,z
4 1/2-x,1/2+y,-z
_cell_length_a                   22.539(5)
_cell_length_b                   11.299(2)
_cell_length_c                   18.823(4)
_cell_angle_alpha                90
_cell_angle_beta                 119.84(3)
_cell_angle_gamma                90
_cell_volume                     4158.07
loop_
_atom_site_label
_atom_site_type_symbol
_atom_site_fract_x
_atom_site_fract_y
_atom_site_fract_z
Ni1 Ni 0.25656(2) 0.31952(3) 0.23786(2)
Ni2 Ni 0.5000 0.39109(4) 0.5000
Ni3 Ni 0.0000 0.34726(4) 0.0000
N1 N 0.0000 0.1617(3) 0.0000
O1 O 0.23500(12) 0.3224(2) 0.11738(13)
O2 O 0.27224(11) 0.3226(2) 0.35493(13)
O3 O 0.47028(12) 0.4027(2) 0.37666(13)
C1 C 0.0000 -0.2182(5) 0.0000
O4 O 0.14851(11) 0.3113(2) 0.17619(13)
O5 O 0.03903(12) 0.3599(2) 0.12298(13)
O6 O 0.36643(11) 0.3226(2) 0.30955(12)
N2 N 0.5000 0.5776(4) 0.5000
C2 C 0.2593(2) 0.7544(3) 0.2359(2)
C3 C 0.0000 -0.0859(4) 0.0000
C4 C 0.5000 0.9576(4) 0.5000
O7 O 0.40062(13) 0.3985(2) 0.47367(15)
C5 C 0.25965(19) 0.8859(3) 0.2365(2)
N3 N 0.25553(15) 0.5069(3) 0.23604(18)
C6 C 0.5000 0.8266(5) 0.5000
O8 O 0.09570(13) 0.3481(3) 0.00814(15)
C7 C 0.41411(16) 0.3854(2) 0.31412(19)
C8 C 0.09984(17) 0.3611(2) 0.17857(18)
C9 C 0.2774(2) 0.5683(3) 0.3048(2)
H1 H 0.2914 0.5271 0.3534
C10 C 0.2357(2) 0.5677(3) 0.1671(2)
H2 H 0.2211 0.5260 0.1186
C11 C 0.38395(18) 0.3838(3) 0.1653(2)
C12 C 0.40319(16) 0.4465(3) 0.2370(2)
C13 C 0.3752(2) 0.5670(4) 0.0957(3)
H3 H 0.3661 0.6075 0.0482
O9 O 0.21930(16) 0.2849(2) -0.00634(16)
C14 C 0.2804(2) 0.6912(3) 0.3075(3)
H4 H 0.2964 0.7307 0.3571
C15 C 0.5338(2) 0.7626(3) 0.4679(2)
H5 H 0.5573 0.8016 0.4458
C16 C 0.2361(2) 0.6902(3) 0.1646(2)
H6 H 0.2207 0.7290 0.1149
C17 C 0.31563(18) 0.1988(3) 0.1079(2)
C18 C 0.13380(19) 0.3678(3) 0.3278(2)
C19 C 0.0137(2) -0.0223(3) 0.0691(2)
H7 H 0.0229 -0.0616 0.1169
C20 C 0.1391(2) 0.2368(3) 0.3337(2)
C21 C 0.0139(2) 0.1001(3) 0.0672(2)
H8 H 0.0241 0.1413 0.1148
C22 C -0.0282(2) -0.2806(3) 0.0385(3)
H9 H -0.0477 -0.2411 0.0652
C23 C 0.2033(2) 0.1823(3) 0.3747(2)
C24 C 0.11380(18) 0.4273(3) 0.2547(2)
C25 C 0.37867(19) 0.2520(3) 0.1614(2)
C26 C 0.25182(19) 0.2744(3) 0.0685(2)
C27 C 0.3685(2) 0.0068(3) 0.1419(3)
H10 H 0.3650 -0.0750 0.1352
C28 C 0.5323(2) 0.6392(3) 0.4692(2)
H11 H 0.5551 0.5978 0.4472
C29 C 0.2668(2) 0.2593(3) 0.4063(2)
C30 C 0.3121(2) 0.0775(3) 0.0975(2)
H12 H 0.2708 0.0430 0.0597
C31 C 0.2053(2) 0.9504(3) 0.1770(2)
H13 H 0.1681 0.9116 0.1347
C32 C 0.3697(2) 0.4467(3) 0.0943(2)
H14 H 0.3564 0.4059 0.0457
C33 C 0.1494(2) 0.4340(5) 0.3978(3)
H15 H 0.1632 0.3957 0.4474
C34 C 0.4094(2) 0.5696(3) 0.2377(2)
H16 H 0.4237 0.6115 0.2861
C35 C 0.4305(2) 0.0586(3) 0.1967(2)
H17 H 0.4688 0.0114 0.2274
C36 C 0.3144(2) 0.9503(3) 0.2957(2)
H18 H 0.3525 0.9112 0.3363
C37 C 0.3943(2) 0.6288(3) 0.1667(3)
H19 H 0.3970 0.7110 0.1668
C38 C 0.1086(2) 0.5495(3) 0.2518(3)
H20 H 0.0943 0.5887 0.2025
C39 C 0.4356(2) 0.1802(3) 0.2057(2)
H21 H 0.4775 0.2144 0.2418
C40 C 0.1442(3) 0.5563(5) 0.3936(3)
H22 H 0.1544 0.5996 0.4404
C41 C 0.2090(3) 0.0616(4) 0.3882(3)
H23 H 0.2518 0.0268 0.4188
C42 C 0.0814(2) 0.1660(4) 0.3017(3)
H24 H 0.0384 0.2006 0.2726
C43 C 0.1243(3) 0.6139(4) 0.3213(3)
H25 H 0.1213 0.6960 0.3190
C44 C 0.0868(3) 0.0442(4) 0.3123(3)
H26 H 0.0477 -0.0025 0.2903
O10 O 0.3073(2) 0.2586(4) 0.4807(2)
C45 C 0.5080(2) 1.0228(3) 0.4426(3)
H27 H 0.5133 0.9841 0.4025
C46 C 0.5080(2) 1.1442(3) 0.4451(3)
H28 H 0.5140 1.1855 0.4064
C47 C 0.1503(3) -0.0071(4) 0.3555(3)
H29 H 0.1539 -0.0887 0.3629
N4 N 0.25893(15) 1.1345(3) 0.23740(18)
C48 C 0.2064(2) 1.0729(3) 0.1806(2)
H30 H 0.1686 1.1141 0.1413
C49 C 0.31217(19) 1.0727(3) 0.2942(2)
H31 H 0.3494 1.1140 0.3346
N5 N 0.5000 1.2061(4) 0.5000
C50 C -0.0272(2) -0.4035(3) 0.0369(2)
H32 H -0.0466 -0.4452 0.0629
N6 N 0.0000 -0.4641(4) 0.0000
H33 H 0.394(2) 0.358(2) 0.5056(15)
H34 H 0.387(2) 0.363(3) 0.4295(12)
H35 H 0.1299(12) 0.328(4) 0.0522(10)
H36 H 0.1050(16) 0.343(3) -0.0297(13)
Ni1A Ni 0.74344(2) 0.31952(3) 0.76214(2)
Ni1_2 Ni 0.25656(2) 1.31952(3) 0.23786(2)
Ni1_3 Ni 0.25656(2) -0.68048(3) 0.23786(2)
Ni2_2 Ni 0.5000 1.39109(4) 0.5000
Ni3_2 Ni 0.0000 -0.65274(4) 0.0000
Ni3_3 Ni 1.0000 0.34726(4) 1.0000
O1A O 0.76500(12) 0.3224(2) 0.88262(13)
O2A O 0.72776(11) 0.3226(2) 0.64507(13)
O3A O 0.52972(12) 0.4027(2) 0.62334(13)
O4A O 0.85149(11) 0.3113(2) 0.82381(13)
O5A O 0.96097(12) 0.3599(2) 0.87702(13)
O5A_2 O -0.03903(12) 0.3599(2) -0.12298(13)
O6A O 0.63357(11) 0.3226(2) 0.69045(12)
C2_2 C 0.2593(2) -0.2456(3) 0.2359(2)
O7A O 0.59938(13) 0.3985(2) 0.52633(15)
C5_2 C 0.25965(19) -0.1141(3) 0.2365(2)
N3_2 N 0.25553(15) -0.4931(3) 0.23604(18)
N3A N 0.74447(15) 0.5069(3) 0.76396(18)
O8A O -0.09570(13) 0.3481(3) -0.00814(15)
C7A C 0.58589(16) 0.3854(2) 0.68588(19)
C8A C 0.90016(17) 0.3611(2) 0.82143(18)
C9_2 C 0.2774(2) -0.4317(3) 0.3048(2)
H1_2 H 0.2914 -0.4729 0.3534
C10_2 C 0.2357(2) -0.4323(3) 0.1671(2)
H2_2 H 0.2211 -0.4740 0.1186
C11A C 0.61605(18) 0.3838(3) 0.8347(2)
C12A C 0.59681(16) 0.4465(3) 0.7630(2)
C13A C 0.6248(2) 0.5670(4) 0.9043(3)
H3A H 0.6339 0.6075 0.9518
O9A O 0.78070(16) 0.2849(2) 1.00634(16)
C14_2 C 0.2804(2) -0.3088(3) 0.3075(3)
H4_2 H 0.2964 -0.2693 0.3571
C15A C 0.4662(2) 0.7626(3) 0.5321(2)
H5A H 0.4427 0.8016 0.5542
C16_2 C 0.2361(2) -0.3098(3) 0.1646(2)
H6_2 H 0.2207 -0.2710 0.1149
C17A C 0.68437(18) 0.1988(3) 0.8921(2)
C18A C 0.86620(19) 0.3678(3) 0.6722(2)
C19A C -0.0137(2) -0.0223(3) -0.0691(2)
H7A H -0.0229 -0.0616 -0.1169
C20A C 0.8609(2) 0.2368(3) 0.6663(2)
C21A C -0.0139(2) 0.1001(3) -0.0672(2)
H8A H -0.0241 0.1413 -0.1148
C22A C 0.0282(2) -0.2806(3) -0.0385(3)
H9A H 0.0477 -0.2411 -0.0652
C23A C 0.7967(2) 0.1823(3) 0.6253(2)
C24A C 0.88620(18) 0.4273(3) 0.7453(2)
C25A C 0.62133(19) 0.2520(3) 0.8386(2)
C26A C 0.74818(19) 0.2744(3) 0.9315(2)
C27A C 0.6315(2) 0.0068(3) 0.8581(3)
H10A H 0.6350 -0.0750 0.8648
C28A C 0.4677(2) 0.6392(3) 0.5308(2)
H11A H 0.4449 0.5978 0.5528
C29A C 0.7332(2) 0.2593(3) 0.5937(2)
C30A C 0.6879(2) 0.0775(3) 0.9025(2)
H12A H 0.7292 0.0430 0.9403
C31_2 C 0.2053(2) -0.0496(3) 0.1770(2)
H13_2 H 0.1681 -0.0884 0.1347
C32A C 0.6303(2) 0.4467(3) 0.9057(2)
H14A H 0.6436 0.4059 0.9543
C33A C 0.8506(2) 0.4340(5) 0.6022(3)
H15A H 0.8368 0.3957 0.5526
C34A C 0.5906(2) 0.5696(3) 0.7623(2)
H16A H 0.5763 0.6115 0.7139
C35A C 0.5695(2) 0.0586(3) 0.8033(2)
H17A H 0.5312 0.0114 0.7726
C36_2 C 0.3144(2) -0.0497(3) 0.2957(2)
H18_2 H 0.3525 -0.0888 0.3363
C37A C 0.6057(2) 0.6288(3) 0.8333(3)
H19A H 0.6030 0.7110 0.8332
C38A C 0.8914(2) 0.5495(3) 0.7482(3)
H20A H 0.9057 0.5887 0.7975
C39A C 0.5644(2) 0.1802(3) 0.7943(2)
H21A H 0.5225 0.2144 0.7582
C40A C 0.8558(3) 0.5563(5) 0.6064(3)
H22A H 0.8456 0.5996 0.5596
C41A C 0.7910(3) 0.0616(4) 0.6118(3)
H23A H 0.7482 0.0268 0.5812
C42A C 0.9186(2) 0.1660(4) 0.6983(3)
H24A H 0.9616 0.2006 0.7274
C43A C 0.8757(3) 0.6139(4) 0.6787(3)
H25A H 0.8787 0.6960 0.6810
C44A C 0.9132(3) 0.0442(4) 0.6877(3)
H26A H 0.9523 -0.0025 0.7097
O10A O 0.6927(2) 0.2586(4) 0.5193(2)
C45A C 0.4920(2) 1.0228(3) 0.5574(3)
H27A H 0.4867 0.9841 0.5975
C46A C 0.4920(2) 1.1442(3) 0.5549(3)
H28A H 0.4860 1.1855 0.5936
C47A C 0.8497(3) -0.0071(4) 0.6445(3)
H29A H 0.8461 -0.0887 0.6371
N4_2 N 0.25893(15) 0.1345(3) 0.23740(18)
N4A N 0.74107(15) 0.1345(3) 0.76260(18)
C48_2 C 0.2064(2) 0.0729(3) 0.1806(2)
H30_2 H 0.1686 0.1141 0.1413
C49_2 C 0.31217(19) 0.0727(3) 0.2942(2)
H31_2 H 0.3494 0.1140 0.3346
N5_2 N 0.5000 0.2061(4) 0.5000
C50A C 0.0272(2) -0.4035(3) -0.0369(2)
H32A H 0.0466 -0.4452 -0.0629
N6_2 N 0.0000 0.5359(4) 0.0000
H33A H 0.606(2) 0.358(2) 0.4944(15)
H34A H 0.613(2) 0.363(3) 0.5705(12)
H35A H -0.1299(12) 0.328(4) -0.0522(10)
H36A H -0.1050(16) 0.343(3) 0.0297(13)
loop_
_geom_bond_atom_site_label_1
_geom_bond_atom_site_label_2
_geom_bond_site_symmetry_1
_geom_bond_site_symmetry_2
Ni1 O1 1_555 1_555
Ni2 O3 1_555 1_555
Ni3 N1 1_555 1_555
N1 C21 1_555 1_555
O1 C26 1_555 1_555
O2 Ni1 1_555 1_555
O3 C7 1_555 1_555
C1 C3 1_555 1_555
O4 Ni1 1_555 1_555
O5 Ni3 1_555 1_555
O6 Ni1 1_555 1_555
N2 Ni2 1_555 1_555
C2 C5 1_555 1_555
C3 C19 1_555 1_555
C4 C6 1_555 1_555
O7 Ni2 1_555 1_555
C5 C31 1_555 1_555
N3 Ni1 1_555 1_555
C6 C15 1_555 1_555
O8 Ni3 1_555 1_555
C7 O6 1_555 1_555
C8 O4 1_555 1_555
C9 N3 1_555 1_555
H1 C9 1_555 1_555
C10 N3 1_555 1_555
H2 C10 1_555 1_555
C11 C12 1_555 1_555
C12 C7 1_555 1_555
C13 H3 1_555 1_555
O9 C26 1_555 1_555
C14 C2 1_555 1_555
H4 C14 1_555 1_555
C15 H5 1_555 1_555
C16 C2 1_555 1_555
H6 C16 1_555 1_555
C17 C25 1_555 1_555
C18 C20 1_555 1_555
C19 H7 1_555 1_555
C20 C23 1_555 1_555
C21 C19 1_555 1_555
H8 C21 1_555 1_555
C22 C1 1_555 1_555
H9 C22 1_555 1_555
C23 C29 1_555 1_555
C24 C8 1_555 1_555
C25 C11 1_555 1_555
C26 C17 1_555 1_555
C27 H10 1_555 1_555
C28 N2 1_555 1_555
H11 C28 1_555 1_555
C29 O2 1_555 1_555
C30 C17 1_555 1_555
H12 C30 1_555 1_555
C31 H13 1_555 1_555
C32 C11 1_555 1_555
H14 C32 1_555 1_555
C33 C18 1_555 1_555
H15 C33 1_555 1_555
C34 C12 1_555 1_555
H16 C34 1_555 1_555
C35 C27 1_555 1_555
H17 C35 1_555 1_555
C36 C5 1_555 1_555
H18 C36 1_555 1_555
C37 C13 1_555 1_555
H19 C37 1_555 1_555
C38 C24 1_555 1_555
H20 C38 1_555 1_555
C39 C25 1_555 1_555
H21 C39 1_555 1_555
C40 C33 1_555 1_555
H22 C40 1_555 1_555
C41 C23 1_555 1_555
H23 C41 1_555 1_555
C42 C20 1_555 1_555
H24 C42 1_555 1_555
C43 C38 1_555 1_555
H25 C43 1_555 1_555
C44 C42 1_555 1_555
H26 C44 1_555 1_555
O10 C29 1_555 1_555
C45 C4 1_555 1_555
H27 C45 1_555 1_555
C46 C45 1_555 1_555
H28 C46 1_555 1_555
C47 C41 1_555 1_555
H29 C47 1_555 1_555
N4 C48 1_555 1_555
C48 C31 1_555 1_555
H30 C48 1_555 1_555
C49 C36 1_555 1_555
H31 C49 1_555 1_555
N5 C46 1_555 1_555
C50 C22 1_555 1_555
H32 C50 1_555 1_555
N6 C50 1_555 1_555
H33 O7 1_555 1_555
H34 O7 1_555 1_555
H35 O8 1_555 1_555
H36 O8 1_555 1_555
Ni1A O1A 1_555 1_555
Ni1_2 N4 1_555 1_555
Ni1_3 N3_2 1_555 1_555
Ni2_2 N5 1_555 1_555
Ni3_2 N6 1_555 1_555
Ni3_3 O5A 1_555 1_555
O1A C26A 1_555 1_555
O2A Ni1A 1_555 1_555
O3A Ni2 1_555 1_555
O4A Ni1A 1_555 1_555
O5A C8A 1_555 1_555
O5A_2 Ni3 1_555 1_555
O6A Ni1A 1_555 1_555
C2_2 C5_2 1_555 1_555
O7A Ni2 1_555 1_555
C5_2 C31_2 1_555 1_555
N3_2 C9_2 1_555 1_555
N3A Ni1A 1_555 1_555
O8A Ni3 1_555 1_555
C7A O3A 1_555 1_555
C8A O4A 1_555 1_555
C9_2 H1_2 1_555 1_555
C10_2 N3_2 1_555 1_555
H2_2 C10_2 1_555 1_555
C11A C12A 1_555 1_555
C12A C7A 1_555 1_555
C13A H3A 1_555 1_555
O9A C26A 1_555 1_555
C14_2 C2_2 1_555 1_555
H4_2 C14_2 1_555 1_555
C15A C6 1_555 1_555
H5A C15A 1_555 1_555
C16_2 C2_2 1_555 1_555
H6_2 C16_2 1_555 1_555
C17A C25A 1_555 1_555
C18A C20A 1_555 1_555
C19A C3 1_555 1_555
H7A C19A 1_555 1_555
C20A C23A 1_555 1_555
C21A N1 1_555 1_555
H8A C21A 1_555 1_555
C22A C1 1_555 1_555
H9A C22A 1_555 1_555
C23A C29A 1_555 1_555
C24A C8A 1_555 1_555
C25A C11A 1_555 1_555
C26A C17A 1_555 1_555
C27A H10A 1_555 1_555
C28A N2 1_555 1_555
H11A C28A 1_555 1_555
C29A O2A 1_555 1_555
C30A C17A 1_555 1_555
H12A C30A 1_555 1_555
C31_2 H13_2 1_555 1_555
C32A C11A 1_555 1_555
H14A C32A 1_555 1_555
C33A C18A 1_555 1_555
H15A C33A 1_555 1_555
C34A C12A 1_555 1_555
H16A C34A 1_555 1_555
C35A C27A 1_555 1_555
H17A C35A 1_555 1_555
C36_2 C5_2 1_555 1_555
H18_2 C36_2 1_555 1_555
C37A C13A 1_555 1_555
H19A C37A 1_555 1_555
C38A C24A 1_555 1_555
H20A C38A 1_555 1_555
C39A C25A 1_555 1_555
H21A C39A 1_555 1_555
C40A C33A 1_555 1_555
H22A C40A 1_555 1_555
C41A C23A 1_555 1_555
H23A C41A 1_555 1_555
C42A C20A 1_555 1_555
H24A C42A 1_555 1_555
C43A C38A 1_555 1_555
H25A C43A 1_555 1_555
C44A C42A 1_555 1_555
H26A C44A 1_555 1_555
O10A C29A 1_555 1_555
C45A C4 1_555 1_555
H27A C45A 1_555 1_555
C46A N5 1_555 1_555
H28A C46A 1_555 1_555
C47A C41A 1_555 1_555
H29A C47A 1_555 1_555
N4_2 Ni1 1_555 1_555
N4A Ni1A 1_555 1_555
C48_2 C31_2 1_555 1_555
H30_2 C48_2 1_555 1_555
C49_2 C36_2 1_555 1_555
H31_2 C49_2 1_555 1_555
N5_2 Ni2 1_555 1_555
C50A N6 1_555 1_555
H32A C50A 1_555 1_555
N6_2 Ni3 1_555 1_555
H33A O7A 1_555 1_555
H34A O7A 1_555 1_555
H35A O8A 1_555 1_555
H36A O8A 1_555 1_555
O5 C8 1_555 1_555
C9 C14 1_555 1_555
C10 C16 1_555 1_555
C13 C32 1_555 1_555
C15 C28 1_555 1_555
C18 C24 1_555 1_555
C27 C30 1_555 1_555
C34 C37 1_555 1_555
C35 C39 1_555 1_555
C40 C43 1_555 1_555
C44 C47 1_555 1_555
N4 C49 1_555 1_555
O6A C7A 1_555 1_555
C9_2 C14_2 1_555 1_555
C10_2 C16_2 1_555 1_555
C13A C32A 1_555 1_555
C15A C28A 1_555 1_555
C18A C24A 1_555 1_555
C19A C21A 1_555 1_555
C22A C50A 1_555 1_555
C27A C30A 1_555 1_555
C34A C37A 1_555 1_555
C35A C39A 1_555 1_555
C40A C43A 1_555 1_555
C44A C47A 1_555 1_555
C45A C46A 1_555 1_555
N4_2 C48_2 1_555 1_555
N4_2 C49_2 1_555 1_555

#END
