
#######################################################################
#
#                 Cambridge Crystallographic Data Centre
#                                CCDC 
#
#######################################################################
#
# If this CIF has been generated from an entry in the Cambridge 
# Structural Database, then it will include bibliographic, chemical, 
# crystal, experimental, refinement or atomic coordinate data resulting 
# from the CCDC's data processing and validation procedures.
#
#######################################################################

data_IGEXEX
_symmetry_cell_setting           monoclinic
_symmetry_space_group_name_H-M   'C 2/c'
_symmetry_Int_Tables_number      15
_space_group_name_Hall           '-C 2yn'
loop_
_symmetry_equiv_pos_site_id
_symmetry_equiv_pos_as_xyz
1 x,y,z
2 -x,y,1/2-z
3 1/2+x,1/2+y,z
4 1/2-x,1/2+y,1/2-z
5 -x,-y,-z
6 x,-y,1/2+z
7 1/2-x,1/2-y,-z
8 1/2+x,1/2-y,1/2+z
_cell_length_a                   23.1836(2)
_cell_length_b                   10.1905(1)
_cell_length_c                   17.0118(2)
_cell_angle_alpha                90
_cell_angle_beta                 115.099
_cell_angle_gamma                90
_cell_volume                     3639.58
loop_
_atom_site_label
_atom_site_type_symbol
_atom_site_fract_x
_atom_site_fract_y
_atom_site_fract_z
O3 O 0.0000 0.0770(90) -0.2500
C15 C -0.0330(13) -0.0020(30) -0.2204(11)
C15A C 0.0330(13) -0.0020(30) -0.2796(11)
O4 O 0.0000 0.5380(40) -0.2500
C16 C 0.0405(12) 0.6840(20) -0.2104(10)
C16A C -0.0405(12) 0.6840(20) -0.2896(10)
Zn1 Zn 0.1611(1) 0.7922(1) 0.0252(1)
O1 O 0.1766(2) 0.5297(3) 0.0726(2)
O2 O 0.1363(2) 0.0547(3) 0.0413(2)
N1 N 0.2836(2) 0.8872(5) 0.2781(3)
N2 N -0.0098(5) 0.6914(10) 0.0405(9)
C1 C 0.1768(3) 0.4122(4) -0.1277(3)
C2 C 0.1698(3) 0.1771(5) -0.1343(4)
C3 C 0.1669(2) 0.2918(4) -0.0142(3)
C4 C 0.1549(2) 0.0498(4) -0.0175(3)
C5 C 0.3172(3) 0.7835(6) 0.2673(4)
C6 C 0.0528(4) 0.6686(9) 0.0545(8)
C7 C 0.0227(3) 0.8406(6) -0.0153(4)
O5 O 0.1724(2) 0.6422(3) -0.0408(2)
O6 O 0.1667(2) -0.0575(3) -0.0460(2)
N3 N 0.2284(2) 0.8132(4) 0.1460(3)
N4 N 0.0730(2) 0.7655(4) 0.0203(3)
C8 C 0.1731(2) 0.4104(4) -0.0491(3)
C9 C 0.1763(3) 0.2950(5) -0.1699(4)
C10 C 0.1645(2) 0.1747(4) -0.0565(3)
C11 C 0.1748(2) 0.5343(4) -0.0010(3)
C12 C 0.2828(3) 0.7385(5) 0.1858(4)
C13 C 0.2308(3) 0.9021(5) 0.2043(3)
C14 C -0.0266(3) 0.7987(5) -0.0077(4)
O1_2 O 0.1766(2) 1.5297(3) 0.0726(2)
O2_2 O 0.1363(2) 1.0547(3) 0.0413(2)
C1_2 C 0.1768(3) 1.4122(4) -0.1277(3)
C2_2 C 0.1698(3) 1.1771(5) -0.1343(4)
C3_2 C 0.1669(2) 1.2918(4) -0.0142(3)
C4_2 C 0.1549(2) 1.0498(4) -0.0175(3)
O5_2 O 0.1724(2) 1.6422(3) -0.0408(2)
O6_2 O 0.1667(2) 0.9425(3) -0.0460(2)
C8_2 C 0.1731(2) 1.4104(4) -0.0491(3)
C9_2 C 0.1763(3) 1.2950(5) -0.1699(4)
C10_2 C 0.1645(2) 1.1747(4) -0.0565(3)
C11_2 C 0.1748(2) 1.5343(4) -0.0010(3)
Zn1_2 Zn 0.1611(1) 1.7922(1) 0.0252(1)
N1_2 N 0.2836(2) 1.8872(5) 0.2781(3)
C5_2 C 0.3172(3) 1.7835(6) 0.2673(4)
N3_2 N 0.2284(2) 1.8132(4) 0.1460(3)
C12_2 C 0.2828(3) 1.7385(5) 0.1858(4)
C13_2 C 0.2308(3) 1.9021(5) 0.2043(3)
N2_2 N -0.0098(5) 1.6914(10) 0.0405(9)
C6_2 C 0.0528(4) 1.6686(9) 0.0545(8)
C7_2 C 0.0227(3) 1.8406(6) -0.0153(4)
N4_2 N 0.0730(2) 1.7655(4) 0.0203(3)
C14_2 C -0.0266(3) 1.7987(5) -0.0077(4)
Zn1_3 Zn 0.1611(1) -0.2078(1) 0.0252(1)
O6_3 O 0.1667(2) 1.9425(3) -0.0460(2)
loop_
_geom_bond_atom_site_label_1
_geom_bond_atom_site_label_2
_geom_bond_site_symmetry_1
_geom_bond_site_symmetry_2
Zn1 O5 1_555 1_555
O1 C11 1_555 1_555
O2 C4 1_555 1_555
N1 C5 1_555 1_555
N2 C6 1_555 1_555
C1 C8 1_555 1_555
C2 C9 1_555 1_555
C3 C8 1_555 1_555
C4 O6 1_555 1_555
C5 C12 1_555 1_555
C6 N4 1_555 1_555
C7 N4 1_555 1_555
O3 C15 1_555 1_555
O4 C16 1_555 1_555
O5 C11 1_555 1_555
O6 Zn1_3 1_555 1_555
N3 Zn1 1_555 1_555
N4 Zn1 1_555 1_555
C8 C11 1_555 1_555
C9 C1 1_555 1_555
C10 C2 1_555 1_555
C12 N3 1_555 1_555
C13 N1 1_555 1_555
C14 N2 1_555 1_555
C15A O3 1_555 1_555
C16A O4 1_555 1_555
O1_2 C11_2 1_555 1_555
O2_2 C4_2 1_555 1_555
C1_2 C8_2 1_555 1_555
C2_2 C9_2 1_555 1_555
C3_2 C8_2 1_555 1_555
C4_2 O6_2 1_555 1_555
O5_2 C11_2 1_555 1_555
O6_2 Zn1 1_555 1_555
C8_2 C11_2 1_555 1_555
C9_2 C1_2 1_555 1_555
C10_2 C2_2 1_555 1_555
Zn1_2 O5_2 1_555 1_555
N1_2 C5_2 1_555 1_555
C5_2 C12_2 1_555 1_555
N3_2 Zn1_2 1_555 1_555
C12_2 N3_2 1_555 1_555
C13_2 N1_2 1_555 1_555
N2_2 C6_2 1_555 1_555
C6_2 N4_2 1_555 1_555
C7_2 N4_2 1_555 1_555
N4_2 Zn1_2 1_555 1_555
C14_2 N2_2 1_555 1_555
O6_3 Zn1_2 1_555 1_555
C3 C10 1_555 1_555
C4 C10 1_555 1_555
C7 C14 1_555 1_555
N3 C13 1_555 1_555
C3_2 C10_2 1_555 1_555
C4_2 C10_2 1_555 1_555
N3_2 C13_2 1_555 1_555
C7_2 C14_2 1_555 1_555

#END
