
#######################################################################
#
#                 Cambridge Crystallographic Data Centre
#                                CCDC 
#
#######################################################################
#
# If this CIF has been generated from an entry in the Cambridge 
# Structural Database, then it will include bibliographic, chemical, 
# crystal, experimental, refinement or atomic coordinate data resulting 
# from the CCDC's data processing and validation procedures.
#
#######################################################################

data_IGICEI
_symmetry_cell_setting           orthorhombic
_symmetry_space_group_name_H-M   'P b c a'
_symmetry_Int_Tables_number      61
_space_group_name_Hall           '-P 2ac 2ab'
loop_
_symmetry_equiv_pos_site_id
_symmetry_equiv_pos_as_xyz
1 x,y,z
2 1/2-x,-y,1/2+z
3 -x,1/2+y,1/2-z
4 1/2+x,1/2-y,-z
5 -x,-y,-z
6 1/2+x,y,1/2-z
7 x,1/2-y,1/2+z
8 1/2-x,1/2+y,z
_cell_length_a                   14.027(3)
_cell_length_b                   13.637(3)
_cell_length_c                   20.343(4)
_cell_angle_alpha                90
_cell_angle_beta                 90
_cell_angle_gamma                90
_cell_volume                     3891.34
loop_
_atom_site_label
_atom_site_type_symbol
_atom_site_fract_x
_atom_site_fract_y
_atom_site_fract_z
I1 I 0.07764(6) 0.28042(7) 0.37475(5)
I2 I 0.37784(6) 0.28863(6) 0.29233(4)
I3 I 0.34076(6) 0.28647(7) 0.50517(4)
Br1 Br 0.27106(11) 0.03174(12) 0.38857(8)
Cu1 Cu 0.26418(13) 0.34249(12) 0.39294(8)
Cu2 Cu 0.22577(12) 0.18794(12) 0.32413(8)
Cu3 Cu 0.20184(12) 0.18265(13) 0.45349(9)
N1 N 0.1264(10) 0.0519(9) 0.1250(6)
N2 N 0.1802(8) 0.1291(8) 0.2334(6)
N3 N 0.1228(8) 0.1185(8) 0.5234(6)
C1 C 0.1030(14) 0.0045(12) 0.0594(8)
H1 H 0.1521 0.0220 0.0280
H2 H 0.1043 -0.0662 0.0647
C2 C 0.0085(15) 0.0335(12) 0.0321(8)
H3 H 0.0085 0.1024 0.0203
H4 H -0.0415 0.0222 0.0642
C3 C 0.2287(11) 0.0221(12) 0.1396(7)
H5 H 0.2716 0.0497 0.1071
H6 H 0.2350 -0.0488 0.1388
C4 C 0.2529(11) 0.0622(11) 0.2091(7)
H7 H 0.2592 0.0077 0.2395
H8 H 0.3136 0.0961 0.2075
C5 C 0.0647(13) 0.0163(13) 0.1787(8)
H9 H 0.0745 -0.0534 0.1855
H10 H -0.0018 0.0270 0.1677
C6 C 0.0911(10) 0.0739(10) 0.2417(7)
H11 H 0.0399 0.1189 0.2524
H12 H 0.0981 0.0283 0.2780
C7 C 0.1182(10) 0.1617(9) 0.1206(6)
H13 H 0.0518 0.1809 0.1173
H14 H 0.1516 0.1856 0.0820
C8 C 0.1630(11) 0.2043(10) 0.1832(7)
H15 H 0.2229 0.2356 0.1721
H16 H 0.1209 0.2540 0.2011
C9 C 0.0772(9) 0.0788(10) 0.5579(7)
C10 C 0.0160(9) 0.0137(10) 0.5991(7)
H17 H 0.0361 -0.0532 0.5938
H18 H -0.0493 0.0201 0.5856
H19 H 0.0219 0.0322 0.6445
N1D N -0.1264(10) -0.0519(9) -0.1250(6)
N2D N -0.1802(8) -0.1291(8) -0.2334(6)
C1D C -0.1030(14) -0.0045(12) -0.0594(8)
H1D H -0.1521 -0.0220 -0.0280
H2D H -0.1043 0.0662 -0.0647
C2D C -0.0085(15) -0.0335(12) -0.0321(8)
H3D H -0.0085 -0.1024 -0.0203
H4D H 0.0415 -0.0222 -0.0642
C3D C -0.2287(11) -0.0221(12) -0.1396(7)
H5D H -0.2716 -0.0497 -0.1071
H6D H -0.2350 0.0488 -0.1388
C4D C -0.2529(11) -0.0622(11) -0.2091(7)
H7D H -0.2592 -0.0077 -0.2395
H8D H -0.3136 -0.0961 -0.2075
C5D C -0.0647(13) -0.0163(13) -0.1787(8)
H9D H -0.0745 0.0534 -0.1855
H10D H 0.0018 -0.0270 -0.1677
C6D C -0.0911(10) -0.0739(10) -0.2417(7)
H11D H -0.0399 -0.1189 -0.2524
H12D H -0.0981 -0.0283 -0.2780
C7D C -0.1182(10) -0.1617(9) -0.1206(6)
H13D H -0.0518 -0.1809 -0.1173
H14D H -0.1516 -0.1856 -0.0820
C8D C -0.1630(11) -0.2043(10) -0.1832(7)
H15D H -0.2229 -0.2356 -0.1721
H16D H -0.1209 -0.2540 -0.2011
I1D I -0.07764(6) -0.28042(7) -0.37475(5)
I2D I -0.37784(6) -0.28863(6) -0.29233(4)
I3D I -0.34076(6) -0.28647(7) -0.50517(4)
Br1D Br -0.27106(11) -0.03174(12) -0.38857(8)
Cu1D Cu -0.26418(13) -0.34249(12) -0.39294(8)
Cu2D Cu -0.22577(12) -0.18794(12) -0.32413(8)
Cu3D Cu -0.20184(12) -0.18265(13) -0.45349(9)
N3D N -0.1228(8) -0.1185(8) -0.5234(6)
C9D C -0.0772(9) -0.0788(10) -0.5579(7)
C10D C -0.0160(9) -0.0137(10) -0.5991(7)
H17D H -0.0361 0.0532 -0.5938
H18D H 0.0493 -0.0201 -0.5856
H19D H -0.0219 -0.0322 -0.6445
Br1C Br -0.22894(11) -0.53174(12) -0.38857(8)
Br1G Br 0.22894(11) 0.53174(12) 0.38857(8)
Cu1C Cu -0.23582(13) 0.15751(12) -0.39294(8)
Cu1G Cu 0.23582(13) -0.15751(12) 0.39294(8)
loop_
_geom_bond_atom_site_label_1
_geom_bond_atom_site_label_2
_geom_bond_site_symmetry_1
_geom_bond_site_symmetry_2
I1 Cu1 1_555 1_555
I2 Cu1 1_555 1_555
I3 Cu1 1_555 1_555
Br1 Cu2 1_555 1_555
Cu1 Cu2 1_555 1_555
Cu2 I1 1_555 1_555
Cu3 I1 1_555 1_555
N1 C1 1_555 1_555
N2 Cu2 1_555 1_555
N3 Cu3 1_555 1_555
C1 H1 1_555 1_555
H2 C1 1_555 1_555
C2 C1 1_555 1_555
H3 C2 1_555 1_555
H4 C2 1_555 1_555
C3 N1 1_555 1_555
H5 C3 1_555 1_555
H6 C3 1_555 1_555
C4 N2 1_555 1_555
H7 C4 1_555 1_555
H8 C4 1_555 1_555
C5 N1 1_555 1_555
H9 C5 1_555 1_555
H10 C5 1_555 1_555
C6 N2 1_555 1_555
H11 C6 1_555 1_555
H12 C6 1_555 1_555
C7 N1 1_555 1_555
H13 C7 1_555 1_555
H14 C7 1_555 1_555
C8 N2 1_555 1_555
H15 C8 1_555 1_555
H16 C8 1_555 1_555
C9 N3 1_555 1_555
C10 C9 1_555 1_555
H17 C10 1_555 1_555
H18 C10 1_555 1_555
H19 C10 1_555 1_555
N1D C1D 1_555 1_555
N2D C4D 1_555 1_555
C1D H1D 1_555 1_555
H2D C1D 1_555 1_555
C2D C2 1_555 1_555
H3D C2D 1_555 1_555
H4D C2D 1_555 1_555
C3D N1D 1_555 1_555
H5D C3D 1_555 1_555
H6D C3D 1_555 1_555
C4D C3D 1_555 1_555
H7D C4D 1_555 1_555
H8D C4D 1_555 1_555
C5D N1D 1_555 1_555
H9D C5D 1_555 1_555
H10D C5D 1_555 1_555
C6D N2D 1_555 1_555
H11D C6D 1_555 1_555
H12D C6D 1_555 1_555
C7D N1D 1_555 1_555
H13D C7D 1_555 1_555
H14D C7D 1_555 1_555
C8D N2D 1_555 1_555
H15D C8D 1_555 1_555
H16D C8D 1_555 1_555
I1D Cu1D 1_555 1_555
I2D Cu1D 1_555 1_555
I3D Cu1D 1_555 1_555
Br1D Cu2D 1_555 1_555
Cu1D Cu2D 1_555 1_555
Cu2D N2D 1_555 1_555
Cu3D I1D 1_555 1_555
N3D Cu3D 1_555 1_555
C9D N3D 1_555 1_555
C10D C9D 1_555 1_555
H17D C10D 1_555 1_555
H18D C10D 1_555 1_555
H19D C10D 1_555 1_555
Br1C Cu1D 1_555 1_555
Br1G Cu1 1_555 1_555
Cu1C Br1D 1_555 1_555
Cu1G Br1 1_555 1_555
I2 Cu2 1_555 1_555
I3 Cu3 1_555 1_555
Br1 Cu3 1_555 1_555
Cu1 Cu3 1_555 1_555
Cu2 Cu3 1_555 1_555
C3 C4 1_555 1_555
C5 C6 1_555 1_555
C7 C8 1_555 1_555
C1D C2D 1_555 1_555
C5D C6D 1_555 1_555
C7D C8D 1_555 1_555
I1D Cu2D 1_555 1_555
I2D Cu2D 1_555 1_555
I3D Cu3D 1_555 1_555
Br1D Cu3D 1_555 1_555
Cu1D Cu3D 1_555 1_555
Cu2D Cu3D 1_555 1_555

#END
