
#######################################################################
#
#                 Cambridge Crystallographic Data Centre
#                                CCDC 
#
#######################################################################
#
# If this CIF has been generated from an entry in the Cambridge 
# Structural Database, then it will include bibliographic, chemical, 
# crystal, experimental, refinement or atomic coordinate data resulting 
# from the CCDC's data processing and validation procedures.
#
#######################################################################

data_IGIDOR
_symmetry_cell_setting           monoclinic
_symmetry_space_group_name_H-M   'C 2/c'
_symmetry_Int_Tables_number      15
_space_group_name_Hall           '-C 2yn'
loop_
_symmetry_equiv_pos_site_id
_symmetry_equiv_pos_as_xyz
1 x,y,z
2 1/2+x,1/2+y,z
3 x,-y,1/2+z
4 1/2+x,1/2-y,1/2+z
5 -x,-y,-z
6 1/2-x,1/2-y,-z
7 -x,y,1/2-z
8 1/2-x,1/2+y,1/2-z
_cell_length_a                   16.169(2)
_cell_length_b                   15.485(2)
_cell_length_c                   14.044(2)
_cell_angle_alpha                90
_cell_angle_beta                 112.701(8)
_cell_angle_gamma                90
_cell_volume                     3243.89
loop_
_atom_site_label
_atom_site_type_symbol
_atom_site_fract_x
_atom_site_fract_y
_atom_site_fract_z
Cd1 Cd 0.434037(16) 0.237615(16) 0.832680(19)
N1 N 0.49083(19) 0.37629(19) 0.8625(2)
N2 N 0.3175(2) 0.3370(2) 0.7405(2)
C1 C 0.5751(3) 0.3946(3) 0.9242(3)
C2 C 0.6046(3) 0.4793(3) 0.9494(3)
C3 C 0.5473(3) 0.5455(3) 0.9108(3)
C4 C 0.4580(3) 0.5292(3) 0.8454(3)
C5 C 0.3933(3) 0.5963(3) 0.8016(4)
C6 C 0.3078(3) 0.5771(3) 0.7413(3)
C7 C 0.2782(3) 0.4890(3) 0.7190(3)
C8 C 0.1895(3) 0.4666(3) 0.6584(3)
C9 C 0.1667(3) 0.3810(4) 0.6399(3)
C10 C 0.2331(3) 0.3176(3) 0.6822(3)
C11 C 0.3403(2) 0.4212(2) 0.7595(3)
C12 C 0.4319(2) 0.4420(2) 0.8239(2)
O1 O 0.4979(2) 0.10374(19) 0.8678(2)
O2 O 0.5912(2) 0.19555(18) 0.8408(2)
C13 C 0.5715(3) 0.1202(2) 0.8624(3)
C14 C 0.6413(3) 0.0492(3) 0.8849(3)
C15 C 0.6064(3) -0.0403(3) 0.8877(3)
C16 C 0.6776(3) -0.1110(2) 0.9135(3)
C17 C 0.6373(3) -0.2007(2) 0.9082(3)
C18 C 0.6033(2) -0.2159(2) 0.9932(3)
O3 O 0.5270(2) -0.24694(19) 0.9730(2)
O4 O 0.65583(18) -0.1978(2) 1.0843(2)
H1 H 0.617(2) 0.347(2) 0.954(3)
H2 H 0.665(3) 0.492(3) 0.989(4)
H3 H 0.569(4) 0.607(4) 0.926(4)
H4 H 0.411(4) 0.648(4) 0.812(4)
H5 H 0.266(3) 0.620(3) 0.710(4)
H6 H 0.146(3) 0.512(3) 0.634(3)
H7 H 0.111(3) 0.362(3) 0.602(4)
H8 H 0.220(4) 0.255(3) 0.669(4)
H9 H 0.668(3) 0.054(3) 0.832(4)
H10 H 0.689(3) 0.060(3) 0.953(4)
H11 H 0.566(3) -0.049(4) 0.815(4)
H12 H 0.577(3) -0.038(4) 0.937(4)
H13 H 0.711(3) -0.102(3) 0.869(3)
H14 H 0.720(3) -0.106(3) 0.986(3)
H15 H 0.586(2) -0.208(3) 0.840(3)
H16 H 0.676(4) -0.245(3) 0.904(4)
O2F O 0.4088(2) 0.19555(18) 0.6592(2)
O3D O 0.4730(2) 0.24694(19) 1.0270(2)
O4D O 0.34417(18) 0.1978(2) 0.9157(2)
Cd1F Cd 0.565963(16) 0.237615(16) 0.667320(19)
Cd1D Cd 0.565963(16) -0.237615(16) 1.167320(19)
loop_
_geom_bond_atom_site_label_1
_geom_bond_atom_site_label_2
_geom_bond_site_symmetry_1
_geom_bond_site_symmetry_2
Cd1 N1 1_555 1_555
N1 C1 1_555 1_555
N2 Cd1 1_555 1_555
C1 C2 1_555 1_555
C2 C3 1_555 1_555
C3 C4 1_555 1_555
C4 C5 1_555 1_555
C5 C6 1_555 1_555
C6 C7 1_555 1_555
C7 C8 1_555 1_555
C8 C9 1_555 1_555
C9 C10 1_555 1_555
C10 N2 1_555 1_555
C11 N2 1_555 1_555
C12 N1 1_555 1_555
O1 Cd1 1_555 1_555
O2 Cd1 1_555 1_555
C13 O1 1_555 1_555
C14 C13 1_555 1_555
C15 C14 1_555 1_555
C16 C15 1_555 1_555
C17 C16 1_555 1_555
C18 C17 1_555 1_555
O3 C18 1_555 1_555
O4 C18 1_555 1_555
H1 C1 1_555 1_555
H2 C2 1_555 1_555
H3 C3 1_555 1_555
H4 C5 1_555 1_555
H5 C6 1_555 1_555
H6 C8 1_555 1_555
H7 C9 1_555 1_555
H8 C10 1_555 1_555
H9 C14 1_555 1_555
H10 C14 1_555 1_555
H11 C15 1_555 1_555
H12 C15 1_555 1_555
H13 C16 1_555 1_555
H14 C16 1_555 1_555
H15 C17 1_555 1_555
H16 C17 1_555 1_555
O2F Cd1 1_555 1_555
O3D Cd1 1_555 1_555
O4D Cd1 1_555 1_555
Cd1F O2 1_555 1_555
Cd1D O3 1_555 1_555
C4 C12 1_555 1_555
C7 C11 1_555 1_555
C11 C12 1_555 1_555
O2 C13 1_555 1_555
O4 Cd1D 1_555 1_555
O2F Cd1F 1_555 1_555

#END
