
#######################################################################
#
#                 Cambridge Crystallographic Data Centre
#                                CCDC 
#
#######################################################################
#
# If this CIF has been generated from an entry in the Cambridge 
# Structural Database, then it will include bibliographic, chemical, 
# crystal, experimental, refinement or atomic coordinate data resulting 
# from the CCDC's data processing and validation procedures.
#
#######################################################################

data_IGIHOV
_symmetry_cell_setting           monoclinic
_symmetry_space_group_name_H-M   'P 21/c'
_symmetry_Int_Tables_number      14
_space_group_name_Hall           '-P 2ybc'
loop_
_symmetry_equiv_pos_site_id
_symmetry_equiv_pos_as_xyz
1 x,y,z
2 x,1/2-y,1/2+z
3 -x,-y,-z
4 -x,1/2+y,1/2-z
_cell_length_a                   9.6673(14)
_cell_length_b                   23.845(4)
_cell_length_c                   9.7071(14)
_cell_angle_alpha                90
_cell_angle_beta                 112.463(3)
_cell_angle_gamma                90
_cell_volume                     2067.87
loop_
_atom_site_label
_atom_site_type_symbol
_atom_site_fract_x
_atom_site_fract_y
_atom_site_fract_z
Sn1 Sn 0.13009(6) 0.37814(2) 0.32640(5)
N1 N 0.1214(8) 0.3727(2) 0.5912(7)
O1 O 0.1420(6) 0.38576(19) 1.1085(5)
O2 O 0.0381(7) 0.3018(2) 1.0368(6)
C1 C 0.0919(9) 0.3463(3) 1.0153(8)
C2 C 0.1013(8) 0.3567(3) 0.8679(7)
C3 C 0.1666(9) 0.4034(3) 0.8398(7)
C4 C 0.1719(10) 0.4103(3) 0.6989(8)
C5 C 0.0586(9) 0.3260(3) 0.6183(8)
C6 C 0.0441(9) 0.3158(3) 0.7538(8)
C7 C 0.2863(11) 0.3116(4) 0.4136(10)
C8 C 0.4058(15) 0.3076(6) 0.3735(19)
C9 C 0.5071(17) 0.2563(8) 0.438(2)
C10 C 0.624(3) 0.2591(10) 0.433(3)
C11 C -0.1105(10) 0.3650(4) 0.2414(11)
C12 C -0.1873(13) 0.4180(6) 0.2486(16)
C13 C -0.360(2) 0.4036(9) 0.171(3)
C14 C -0.435(2) 0.4428(10) 0.177(2)
C15 C 0.2085(13) 0.4635(4) 0.3855(9)
C16 C 0.2141(14) 0.4991(4) 0.2692(14)
C17 C 0.2756(16) 0.5582(5) 0.3305(14)
C18 C 0.304(2) 0.5882(7) 0.219(2)
O1_2 O 0.1420(6) 0.38576(19) 0.1085(5)
Sn1_2 Sn 0.13009(6) 0.37814(2) 1.32640(5)
loop_
_geom_bond_atom_site_label_1
_geom_bond_atom_site_label_2
_geom_bond_site_symmetry_1
_geom_bond_site_symmetry_2
Sn1 N1 1_555 1_555
N1 C4 1_555 1_555
O1 C1 1_555 1_555
O2 C1 1_555 1_555
C1 C2 1_555 1_555
C2 C3 1_555 1_555
C3 C4 1_555 1_555
C5 N1 1_555 1_555
C6 C2 1_555 1_555
C7 Sn1 1_555 1_555
C8 C7 1_555 1_555
C9 C8 1_555 1_555
C10 C9 1_555 1_555
C11 Sn1 1_555 1_555
C12 C11 1_555 1_555
C13 C12 1_555 1_555
C14 C13 1_555 1_555
C15 Sn1 1_555 1_555
C16 C15 1_555 1_555
C17 C16 1_555 1_555
C18 C17 1_555 1_555
O1_2 Sn1 1_555 1_555
Sn1_2 O1 1_555 1_555
C5 C6 1_555 1_555

#END
