
#######################################################################
#
#                 Cambridge Crystallographic Data Centre
#                                CCDC 
#
#######################################################################
#
# If this CIF has been generated from an entry in the Cambridge 
# Structural Database, then it will include bibliographic, chemical, 
# crystal, experimental, refinement or atomic coordinate data resulting 
# from the CCDC's data processing and validation procedures.
#
#######################################################################

data_IGIPIY
_symmetry_cell_setting           monoclinic
_symmetry_space_group_name_H-M   'C 2/c'
_symmetry_Int_Tables_number      15
_space_group_name_Hall           '-C 2yn'
loop_
_symmetry_equiv_pos_site_id
_symmetry_equiv_pos_as_xyz
1 x,y,z
2 -x,y,1/2-z
3 1/2+x,1/2+y,z
4 1/2-x,1/2+y,1/2-z
5 -x,-y,-z
6 x,-y,1/2+z
7 1/2-x,1/2-y,-z
8 1/2+x,1/2-y,1/2+z
_cell_length_a                   20.535(4)
_cell_length_b                   9.951(3)
_cell_length_c                   16.532(4)
_cell_angle_alpha                90
_cell_angle_beta                 107.336(3)
_cell_angle_gamma                90
_cell_volume                     3224.75
loop_
_atom_site_label
_atom_site_type_symbol
_atom_site_fract_x
_atom_site_fract_y
_atom_site_fract_z
Zn1 Zn 0.0000 0.15934(3) -0.7500
C1 C 0.08634(11) 0.2995(2) -0.64340(14)
C2 C 0.14362(10) 0.3791(2) -0.58592(13)
C3 C 0.20927(11) 0.3618(2) -0.59162(13)
H1 H 0.2184 0.2971 -0.6273
C4 C 0.26112(11) 0.4439(2) -0.54251(14)
C5 C 0.24736(12) 0.5374(3) -0.48805(15)
H2 H 0.2823 0.5919 -0.4557
C6 C 0.18199(12) 0.5509(2) -0.48123(15)
C7 C 0.12946(11) 0.4720(2) -0.53058(14)
H3 H 0.0854 0.4810 -0.5267
C8 C 0.34298(11) 0.3510(2) -0.60268(15)
H4 H 0.3108 0.3627 -0.6586
H5 H 0.3406 0.2586 -0.5851
C9 C 0.41395(11) 0.3839(2) -0.60425(13)
C10 C 0.47141(13) 0.3220(2) -0.55080(16)
H6 H 0.4669 0.2569 -0.5125
C11 C 0.53541(12) 0.3582(3) -0.55513(16)
H7 H 0.5744 0.3177 -0.5200
C12 C 0.54021(11) 0.4547(2) -0.61210(15)
H8 H 0.5833 0.4790 -0.6146
C13 C 0.42376(10) 0.4801(2) -0.65958(13)
H9 H 0.3856 0.5225 -0.6953
C14 C 0.12504(15) 0.6275(3) -0.38158(17)
H10 H 0.0809 0.6090 -0.4220
H11 H 0.1208 0.7089 -0.3513
C15 C 0.14392(16) 0.5134(3) -0.31979(16)
C16 C 0.0951(2) 0.4533(3) -0.2903(2)
H12 H 0.0497 0.4800 -0.3111
C17 C 0.1133(3) 0.3540(4) -0.2299(3)
H13 H 0.0813 0.3113 -0.2091
C18 C 0.1828(4) 0.3209(4) -0.2016(2)
H14 H 0.1960 0.2553 -0.1598
C19 C 0.21124(19) 0.4704(4) -0.28758(19)
H15 H 0.2436 0.5114 -0.3085
N1 N 0.48546(8) 0.51585(18) -0.66463(11)
N2 N 0.2325(2) 0.3764(4) -0.2299(2)
O1 O 0.02673(8) 0.31782(18) -0.64105(12)
O2 O 0.09955(8) 0.21514(18) -0.69395(10)
O3 O 0.32729(8) 0.44029(19) -0.54398(11)
O4 O 0.17394(10) 0.64954(18) -0.42674(12)
Zn1B Zn 0.5000 0.65934(3) -0.7500
Zn1B_2 Zn -0.5000 0.65934(3) -0.7500
C1A C -0.08634(11) 0.2995(2) -0.85660(14)
C2A C -0.14362(10) 0.3791(2) -0.91408(13)
C3A C -0.20927(11) 0.3618(2) -0.90838(13)
H1A H -0.2184 0.2971 -0.8727
C4A C -0.26112(11) 0.4439(2) -0.95749(14)
C5A C -0.24736(12) 0.5374(3) -1.01195(15)
H2A H -0.2823 0.5919 -1.0443
C6A C -0.18199(12) 0.5509(2) -1.01877(15)
C7A C -0.12946(11) 0.4720(2) -0.96942(14)
H3A H -0.0854 0.4810 -0.9733
C8A C -0.34298(11) 0.3510(2) -0.89732(15)
H4A H -0.3108 0.3627 -0.8414
H5A H -0.3406 0.2586 -0.9149
C9A C -0.41395(11) 0.3839(2) -0.89575(13)
C10A C -0.47141(13) 0.3220(2) -0.94920(16)
H6A H -0.4669 0.2569 -0.9875
C11A C -0.53541(12) 0.3582(3) -0.94487(16)
H7A H -0.5744 0.3177 -0.9800
C12A C -0.54021(11) 0.4547(2) -0.88790(15)
H8A H -0.5833 0.4790 -0.8854
C13A C -0.42376(10) 0.4801(2) -0.84042(13)
H9A H -0.3856 0.5225 -0.8047
C14A C -0.12504(15) 0.6275(3) -1.11842(17)
H10A H -0.0809 0.6090 -1.0780
H11A H -0.1208 0.7089 -1.1487
C15A C -0.14392(16) 0.5134(3) -1.18021(16)
C16A C -0.0951(2) 0.4533(3) -1.2097(2)
H12A H -0.0497 0.4800 -1.1889
C17A C -0.1133(3) 0.3540(4) -1.2701(3)
H13A H -0.0813 0.3113 -1.2909
C18A C -0.1828(4) 0.3209(4) -1.2984(2)
H14A H -0.1960 0.2553 -1.3402
C19A C -0.21124(19) 0.4704(4) -1.21242(19)
H15A H -0.2436 0.5114 -1.1915
N1B N -0.01454(8) 0.01585(18) -0.66463(11)
N1C N 0.01454(8) 0.01585(18) -0.83537(11)
N1A N -0.48546(8) 0.51585(18) -0.83537(11)
N2A N -0.2325(2) 0.3764(4) -1.2701(2)
O1A O -0.02673(8) 0.31782(18) -0.85895(12)
O2A O -0.09955(8) 0.21514(18) -0.80605(10)
O3A O -0.32729(8) 0.44029(19) -0.95602(11)
O4A O -0.17394(10) 0.64954(18) -1.07326(12)
loop_
_geom_bond_atom_site_label_1
_geom_bond_atom_site_label_2
_geom_bond_site_symmetry_1
_geom_bond_site_symmetry_2
Zn1 O1 1_555 1_555
C1 C2 1_555 1_555
C2 C3 1_555 1_555
C3 H1 1_555 1_555
C4 C3 1_555 1_555
C5 C4 1_555 1_555
H2 C5 1_555 1_555
C6 C5 1_555 1_555
C7 C2 1_555 1_555
H3 C7 1_555 1_555
C8 H4 1_555 1_555
H5 C8 1_555 1_555
C9 C8 1_555 1_555
C10 C9 1_555 1_555
H6 C10 1_555 1_555
C11 C10 1_555 1_555
H7 C11 1_555 1_555
C12 C11 1_555 1_555
H8 C12 1_555 1_555
C13 C9 1_555 1_555
H9 C13 1_555 1_555
C14 H10 1_555 1_555
H11 C14 1_555 1_555
C15 C14 1_555 1_555
C16 C15 1_555 1_555
H12 C16 1_555 1_555
C17 C16 1_555 1_555
H13 C17 1_555 1_555
C18 C17 1_555 1_555
H14 C18 1_555 1_555
C19 C15 1_555 1_555
H15 C19 1_555 1_555
N1 C12 1_555 1_555
N2 C18 1_555 1_555
O1 C1 1_555 1_555
O2 Zn1 1_555 1_555
O3 C4 1_555 1_555
O4 C6 1_555 1_555
Zn1B N1 1_555 1_555
Zn1B_2 N1A 1_555 1_555
C1A C2A 1_555 1_555
C2A C3A 1_555 1_555
C3A H1A 1_555 1_555
C4A C3A 1_555 1_555
C5A C4A 1_555 1_555
H2A C5A 1_555 1_555
C6A C5A 1_555 1_555
C7A C2A 1_555 1_555
H3A C7A 1_555 1_555
C8A H4A 1_555 1_555
H5A C8A 1_555 1_555
C9A C8A 1_555 1_555
C10A C9A 1_555 1_555
H6A C10A 1_555 1_555
C11A C10A 1_555 1_555
H7A C11A 1_555 1_555
C12A C11A 1_555 1_555
H8A C12A 1_555 1_555
C13A C9A 1_555 1_555
H9A C13A 1_555 1_555
C14A H10A 1_555 1_555
H11A C14A 1_555 1_555
C15A C14A 1_555 1_555
C16A C15A 1_555 1_555
H12A C16A 1_555 1_555
C17A C16A 1_555 1_555
H13A C17A 1_555 1_555
C18A C17A 1_555 1_555
H14A C18A 1_555 1_555
C19A C15A 1_555 1_555
H15A C19A 1_555 1_555
N1B Zn1 1_555 1_555
N1C Zn1 1_555 1_555
N1A C12A 1_555 1_555
N2A C18A 1_555 1_555
O1A Zn1 1_555 1_555
O2A Zn1 1_555 1_555
O3A C4A 1_555 1_555
O4A C6A 1_555 1_555
C1 O2 1_555 1_555
C6 C7 1_555 1_555
C8 O3 1_555 1_555
C13 N1 1_555 1_555
C14 O4 1_555 1_555
C19 N2 1_555 1_555
C1A O1A 1_555 1_555
C1A O2A 1_555 1_555
C6A C7A 1_555 1_555
C8A O3A 1_555 1_555
C13A N1A 1_555 1_555
C14A O4A 1_555 1_555
C19A N2A 1_555 1_555

#END
