
#######################################################################
#
#                 Cambridge Crystallographic Data Centre
#                                CCDC 
#
#######################################################################
#
# If this CIF has been generated from an entry in the Cambridge 
# Structural Database, then it will include bibliographic, chemical, 
# crystal, experimental, refinement or atomic coordinate data resulting 
# from the CCDC's data processing and validation procedures.
#
#######################################################################

data_IGIQAR
_symmetry_cell_setting           triclinic
_symmetry_space_group_name_H-M   'P -1'
_symmetry_Int_Tables_number      2
_space_group_name_Hall           '-P 1'
loop_
_symmetry_equiv_pos_site_id
_symmetry_equiv_pos_as_xyz
1 x,y,z
2 -x,-y,-z
_cell_length_a                   8.484(3)
_cell_length_b                   9.914(2)
_cell_length_c                   11.446(2)
_cell_angle_alpha                110.651(3)
_cell_angle_beta                 93.259(2)
_cell_angle_gamma                90.615(3)
_cell_volume                     898.923
loop_
_atom_site_label
_atom_site_type_symbol
_atom_site_fract_x
_atom_site_fract_y
_atom_site_fract_z
Cu1 Cu 0.12750(4) 0.37170(4) 0.21931(3)
C1 C 0.9773(3) 1.1554(3) 0.2985(3)
C2 C 0.8879(3) 1.1034(3) 0.3860(2)
C3 C 0.8103(3) 0.9697(3) 0.3431(2)
H1 H 0.8093 0.9121 0.2590
C4 C 0.7340(3) 0.9221(3) 0.4258(2)
C5 C 0.7319(3) 1.0067(3) 0.5522(2)
H2 H 0.6790 0.9751 0.6072
C6 C 0.8119(3) 1.1404(3) 0.5932(2)
C7 C 0.8884(3) 1.1893(3) 0.5116(2)
H3 H 0.9400 1.2793 0.5407
C8 C 0.6178(4) 0.7188(3) 0.4621(3)
H4 H 0.5318 0.7698 0.5094
H5 H 0.7060 0.7200 0.5203
C9 C 0.5663(3) 0.5670(3) 0.3855(2)
C10 C 0.6696(4) 0.4549(4) 0.3522(3)
H6 H 0.7755 0.4706 0.3804
C11 C 0.6135(4) 0.3200(4) 0.2770(3)
H7 H 0.6814 0.2434 0.2531
C12 C 0.4558(4) 0.2990(4) 0.2371(3)
H8 H 0.4196 0.2074 0.1853
C13 C 0.4097(3) 0.5353(3) 0.3430(3)
H9 H 0.3392 0.6100 0.3670
C14 C 0.7396(4) 1.1947(3) 0.8059(2)
H10 H 0.7732 1.1027 0.8087
H11 H 0.6267 1.1882 0.7849
C15 C 0.7792(3) 1.3131(3) 0.9294(2)
C16 C 0.7002(4) 1.4413(3) 0.9663(3)
H12 H 0.6150 1.4542 0.9169
C17 C 0.7489(4) 1.5494(3) 1.0766(3)
H13 H 0.6967 1.6360 1.1032
C18 C 0.8756(4) 1.5275(3) 1.1468(3)
H14 H 0.9087 1.6018 1.2206
C19 C 0.9042(3) 1.2998(3) 1.0063(2)
H15 H 0.9571 1.2135 0.9821
N1 N 0.3527(3) 0.4049(3) 0.2700(2)
N2 N 0.9543(3) 1.4045(3) 1.1146(2)
O1 O 0.9848(3) 1.0716(3) 0.18765(19)
O2 O 1.0390(3) 1.2796(2) 0.34247(19)
O3 O 0.6640(3) 0.7857(2) 0.37624(17)
O4 O 0.8229(2) 1.2324(2) 0.71603(16)
Cu1_2 Cu 1.12750(4) 1.37170(4) 0.21931(3)
Cu1_3 Cu 1.12750(4) 1.37170(4) 1.21931(3)
N2_2 N -0.0457(3) 0.4045(3) 0.1146(2)
O2_2 O 0.0390(3) 0.2796(2) 0.34247(19)
H16 H 0.150(5) 0.072(4) 0.079(4)
H17 H 0.177(6) 0.026(5) -0.042(5)
O5 O 0.2141(4) 0.0666(4) 0.0233(4)
O6 O 0.5012(9) 0.0742(10) 0.9267(8)
loop_
_geom_bond_atom_site_label_1
_geom_bond_atom_site_label_2
_geom_bond_site_symmetry_1
_geom_bond_site_symmetry_2
Cu1 N1 1_555 1_555
C1 C2 1_555 1_555
C2 C3 1_555 1_555
C3 H1 1_555 1_555
C4 C3 1_555 1_555
C5 C4 1_555 1_555
H2 C5 1_555 1_555
C6 C5 1_555 1_555
C7 C2 1_555 1_555
H3 C7 1_555 1_555
C8 H4 1_555 1_555
H5 C8 1_555 1_555
C9 C8 1_555 1_555
C10 C9 1_555 1_555
H6 C10 1_555 1_555
C11 C10 1_555 1_555
H7 C11 1_555 1_555
C12 C11 1_555 1_555
H8 C12 1_555 1_555
C13 C9 1_555 1_555
H9 C13 1_555 1_555
C14 H10 1_555 1_555
H11 C14 1_555 1_555
C15 C14 1_555 1_555
C16 C15 1_555 1_555
H12 C16 1_555 1_555
C17 C16 1_555 1_555
H13 C17 1_555 1_555
C18 C17 1_555 1_555
H14 C18 1_555 1_555
C19 C15 1_555 1_555
H15 C19 1_555 1_555
H16 O5 1_555 1_555
H17 O5 1_555 1_555
N1 C12 1_555 1_555
N2 C18 1_555 1_555
O1 C1 1_555 1_555
O2 C1 1_555 1_555
O3 C4 1_555 1_555
O4 C6 1_555 1_555
Cu1_2 O2 1_555 1_555
Cu1_3 N2 1_555 1_555
N2_2 Cu1 1_555 1_555
O2_2 Cu1 1_555 1_555
C6 C7 1_555 1_555
C8 O3 1_555 1_555
C13 N1 1_555 1_555
C14 O4 1_555 1_555
C19 N2 1_555 1_555

#END
