
#######################################################################
#
#                 Cambridge Crystallographic Data Centre
#                                CCDC 
#
#######################################################################
#
# If this CIF has been generated from an entry in the Cambridge 
# Structural Database, then it will include bibliographic, chemical, 
# crystal, experimental, refinement or atomic coordinate data resulting 
# from the CCDC's data processing and validation procedures.
#
#######################################################################

data_IGIROG
_symmetry_cell_setting           triclinic
_symmetry_space_group_name_H-M   'P -1'
_symmetry_Int_Tables_number      2
_space_group_name_Hall           '-P 1'
loop_
_symmetry_equiv_pos_site_id
_symmetry_equiv_pos_as_xyz
1 x,y,z
2 -x,-y,-z
_cell_length_a                   10.530(2)
_cell_length_b                   10.953(2)
_cell_length_c                   11.850(2)
_cell_angle_alpha                66.44(3)
_cell_angle_beta                 73.56(3)
_cell_angle_gamma                61.40(3)
_cell_volume                     1092.77
loop_
_atom_site_label
_atom_site_type_symbol
_atom_site_fract_x
_atom_site_fract_y
_atom_site_fract_z
Cd1 Cd 0.5000 0.5000 0.5000
N1 N 0.74560(16) 0.35612(17) 0.43762(13)
C1 C 0.87412(18) 0.31364(18) 0.47423(15)
N2 N 0.90314(15) 0.35266(15) 0.55388(13)
C2 C 1.04155(18) 0.29287(17) 0.57346(15)
C3 C 1.15620(18) 0.18973(19) 0.51592(16)
C4 C 1.12377(19) 0.1528(2) 0.43403(17)
N3 N 0.98043(16) 0.21816(17) 0.41448(14)
N4 N 0.92161(18) 0.1987(2) 0.33658(17)
C5 C 0.7822(2) 0.2844(2) 0.35560(19)
H1 H 0.7113 0.2949 0.3135
C6 C 1.0737(2) 0.3369(2) 0.66260(17)
H2 H 0.9839 0.4099 0.6912
H3 H 1.1452 0.3789 0.6214
H4 H 1.1132 0.2507 0.7337
C7 C 1.3104(2) 0.1222(2) 0.54479(19)
H5 H 1.3478 0.0152 0.5708
H6 H 1.3127 0.1519 0.6117
H7 H 1.3710 0.1554 0.4707
C8 C 1.2278(2) 0.0502(3) 0.3631(2)
H8 H 1.3261 0.0428 0.3562
H9 H 1.1987 0.0871 0.2801
H10 H 1.2272 -0.0468 0.4065
Cd2 Cd 0.5000 0.5000 0.0000
N5 N 0.69977(14) 0.28833(15) 0.08065(13)
C9 C 0.84201(16) 0.25991(17) 0.05650(14)
N6 N 0.90430(14) 0.35265(14) -0.00834(12)
C10 C 1.04873(17) 0.29406(17) -0.02036(14)
C11 C 1.13624(17) 0.14175(18) 0.03317(15)
C12 C 1.06909(17) 0.04938(17) 0.09925(15)
N7 N 0.91997(14) 0.11320(14) 0.10822(12)
N8 N 0.82844(15) 0.04413(15) 0.16785(14)
C13 C 0.70003(18) 0.15512(18) 0.14680(16)
H11 H 0.6122 0.1420 0.1767
C14 C 1.11849(18) 0.39791(19) -0.09476(17)
H12 H 1.0439 0.4943 -0.1328
H13 H 1.1907 0.3608 -0.1598
H14 H 1.1666 0.4067 -0.0404
C15 C 1.29957(18) 0.0863(2) 0.01529(18)
H15 H 1.3425 -0.0156 0.0681
H16 H 1.3271 0.1466 0.0379
H17 H 1.3354 0.0918 -0.0717
C16 C 1.13950(19) -0.11169(19) 0.16192(18)
H18 H 1.2336 -0.1542 0.1151
H19 H 1.0766 -0.1566 0.1657
H20 H 1.1546 -0.1300 0.2461
S1 S 0.50803(5) 0.72858(4) 0.29301(4)
C17 C 0.51959(16) 0.66561(17) 0.18329(14)
N9 N 0.52832(15) 0.62521(16) 0.10393(13)
S2 S 0.32763(5) 0.40365(5) 0.20547(4)
C18 C 0.39620(17) 0.40370(17) 0.31421(15)
N10 N 0.44297(17) 0.40258(17) 0.39200(13)
Cd1_2 Cd 0.5000 0.5000 -0.5000
N1A N 0.25440(16) 0.64388(17) 0.56238(13)
C1A C 0.12588(18) 0.68636(18) 0.52577(15)
N2A N 0.09686(15) 0.64734(15) 0.44612(13)
C2A C -0.04155(18) 0.70713(17) 0.42654(15)
C3A C -0.15620(18) 0.81027(19) 0.48408(16)
C4A C -0.12377(19) 0.8472(2) 0.56597(17)
N3A N 0.01957(16) 0.78184(17) 0.58552(14)
N4A N 0.07839(18) 0.8013(2) 0.66342(17)
C5A C 0.2178(2) 0.7156(2) 0.64440(19)
H1A H 0.2887 0.7051 0.6865
C6A C -0.0737(2) 0.6631(2) 0.33740(17)
H2A H 0.0161 0.5901 0.3088
H3A H -0.1452 0.6211 0.3786
H4A H -0.1132 0.7493 0.2663
C7A C -0.3104(2) 0.8778(2) 0.45521(19)
H5A H -0.3478 0.9848 0.4292
H6A H -0.3127 0.8481 0.3883
H7A H -0.3710 0.8446 0.5293
C8A C -0.2278(2) 0.9498(3) 0.6369(2)
H8A H -0.3261 0.9572 0.6438
H9A H -0.1987 0.9129 0.7199
H10A H -0.2272 1.0468 0.5935
N5A N 0.30023(14) 0.71167(15) -0.08065(13)
C9A C 0.15799(16) 0.74009(17) -0.05650(14)
N6A N 0.09570(14) 0.64735(14) 0.00834(12)
C10A C -0.04873(17) 0.70594(17) 0.02036(14)
C11A C -0.13624(17) 0.85825(18) -0.03317(15)
C12A C -0.06909(17) 0.95062(17) -0.09925(15)
N7A N 0.08003(14) 0.88680(14) -0.10822(12)
N8A N 0.17156(15) 0.95587(15) -0.16785(14)
C13A C 0.29997(18) 0.84488(18) -0.14680(16)
H11A H 0.3878 0.8580 -0.1767
C14A C -0.11849(18) 0.60209(19) 0.09476(17)
H12A H -0.0439 0.5057 0.1328
H13A H -0.1907 0.6392 0.1598
H14A H -0.1666 0.5933 0.0404
C15A C -0.29957(18) 0.9137(2) -0.01529(18)
H15A H -0.3425 1.0156 -0.0681
H16A H -0.3271 0.8534 -0.0379
H17A H -0.3354 0.9082 0.0717
C16A C -0.13950(19) 1.11169(19) -0.16192(18)
H18A H -0.2336 1.1542 -0.1151
H19A H -0.0766 1.1566 -0.1657
H20A H -0.1546 1.1300 -0.2461
S1A S 0.49197(5) 0.27142(4) -0.29301(4)
S1A_2 S 0.49197(5) 0.27142(4) 0.70699(4)
C17A C 0.48041(16) 0.33439(17) -0.18329(14)
N9A N 0.47168(15) 0.37479(16) -0.10393(13)
S2A S 0.67237(5) 0.59635(5) -0.20547(4)
C18A C 0.60380(17) 0.59630(17) -0.31421(15)
N10A N 0.55703(17) 0.59742(17) -0.39200(13)
N10A_2 N 0.55703(17) 0.59742(17) 0.60800(13)
loop_
_geom_bond_atom_site_label_1
_geom_bond_atom_site_label_2
_geom_bond_site_symmetry_1
_geom_bond_site_symmetry_2
Cd1 N1 1_555 1_555
N1 C1 1_555 1_555
C1 N2 1_555 1_555
N2 C2 1_555 1_555
C2 C3 1_555 1_555
C3 C4 1_555 1_555
C4 N3 1_555 1_555
N3 C1 1_555 1_555
N4 N3 1_555 1_555
C5 N1 1_555 1_555
H1 C5 1_555 1_555
C6 C2 1_555 1_555
H2 C6 1_555 1_555
H3 C6 1_555 1_555
H4 C6 1_555 1_555
C7 C3 1_555 1_555
H5 C7 1_555 1_555
H6 C7 1_555 1_555
H7 C7 1_555 1_555
C8 C4 1_555 1_555
H8 C8 1_555 1_555
H9 C8 1_555 1_555
H10 C8 1_555 1_555
Cd2 N5 1_555 1_555
N5 C9 1_555 1_555
C9 N6 1_555 1_555
N6 C10 1_555 1_555
C10 C11 1_555 1_555
C11 C12 1_555 1_555
C12 N7 1_555 1_555
N7 C9 1_555 1_555
N8 N7 1_555 1_555
C13 N5 1_555 1_555
H11 C13 1_555 1_555
C14 C10 1_555 1_555
H12 C14 1_555 1_555
H13 C14 1_555 1_555
H14 C14 1_555 1_555
C15 C11 1_555 1_555
H15 C15 1_555 1_555
H16 C15 1_555 1_555
H17 C15 1_555 1_555
C16 C12 1_555 1_555
H18 C16 1_555 1_555
H19 C16 1_555 1_555
H20 C16 1_555 1_555
S1 Cd1 1_555 1_555
C17 S1 1_555 1_555
N9 Cd2 1_555 1_555
S2 Cd2 1_555 1_555
C18 S2 1_555 1_555
N10 Cd1 1_555 1_555
Cd1_2 S1A 1_555 1_555
N1A Cd1 1_555 1_555
C1A N1A 1_555 1_555
N2A C1A 1_555 1_555
C2A N2A 1_555 1_555
C3A C2A 1_555 1_555
C4A C3A 1_555 1_555
N3A C1A 1_555 1_555
N4A N3A 1_555 1_555
C5A N1A 1_555 1_555
H1A C5A 1_555 1_555
C6A C2A 1_555 1_555
H2A C6A 1_555 1_555
H3A C6A 1_555 1_555
H4A C6A 1_555 1_555
C7A C3A 1_555 1_555
H5A C7A 1_555 1_555
H6A C7A 1_555 1_555
H7A C7A 1_555 1_555
C8A C4A 1_555 1_555
H8A C8A 1_555 1_555
H9A C8A 1_555 1_555
H10A C8A 1_555 1_555
N5A Cd2 1_555 1_555
C9A N5A 1_555 1_555
N6A C9A 1_555 1_555
C10A N6A 1_555 1_555
C11A C10A 1_555 1_555
C12A C11A 1_555 1_555
N7A C9A 1_555 1_555
N8A N7A 1_555 1_555
C13A N5A 1_555 1_555
H11A C13A 1_555 1_555
C14A C10A 1_555 1_555
H12A C14A 1_555 1_555
H13A C14A 1_555 1_555
H14A C14A 1_555 1_555
C15A C11A 1_555 1_555
H15A C15A 1_555 1_555
H16A C15A 1_555 1_555
H17A C15A 1_555 1_555
C16A C12A 1_555 1_555
H18A C16A 1_555 1_555
H19A C16A 1_555 1_555
H20A C16A 1_555 1_555
S1A C17A 1_555 1_555
S1A_2 Cd1 1_555 1_555
C17A N9A 1_555 1_555
N9A Cd2 1_555 1_555
S2A Cd2 1_555 1_555
C18A S2A 1_555 1_555
N10A Cd1_2 1_555 1_555
N10A_2 Cd1 1_555 1_555
N4 C5 1_555 1_555
N8 C13 1_555 1_555
C17 N9 1_555 1_555
C18 N10 1_555 1_555
C4A N3A 1_555 1_555
N4A C5A 1_555 1_555
C12A N7A 1_555 1_555
N8A C13A 1_555 1_555
C18A N10A 1_555 1_555

#END
