
#######################################################################
#
#                 Cambridge Crystallographic Data Centre
#                                CCDC 
#
#######################################################################
#
# If this CIF has been generated from an entry in the Cambridge 
# Structural Database, then it will include bibliographic, chemical, 
# crystal, experimental, refinement or atomic coordinate data resulting 
# from the CCDC's data processing and validation procedures.
#
#######################################################################

data_IGITID
_symmetry_cell_setting           monoclinic
_symmetry_space_group_name_H-M   'P 21/c'
_symmetry_Int_Tables_number      14
_space_group_name_Hall           '-P 2ybc'
loop_
_symmetry_equiv_pos_site_id
_symmetry_equiv_pos_as_xyz
1 x,y,z
2 -x,1/2+y,1/2-z
3 -x,-y,-z
4 x,1/2-y,1/2+z
_cell_length_a                   8.521(5)
_cell_length_b                   13.239(5)
_cell_length_c                   13.502(5)
_cell_angle_alpha                90
_cell_angle_beta                 107.466(5)
_cell_angle_gamma                90
_cell_volume                     1452.93
loop_
_atom_site_label
_atom_site_type_symbol
_atom_site_fract_x
_atom_site_fract_y
_atom_site_fract_z
Zn1 Zn 0.76287(2) 0.075316(15) 0.637372(14)
C1 C 1.6255(2) 0.07155(14) 1.02537(16)
H1 H 1.7092 0.1194 1.0418
O1 O 0.67789(17) 0.09487(10) 0.48798(10)
N1 N 1.24328(18) 0.01937(12) 0.81204(11)
O2 O 0.86127(18) 0.21771(12) 0.50597(11)
C2 C 1.3720(2) 0.00824(14) 0.90855(14)
O3 O 0.3187(2) 0.14703(13) 0.39134(13)
O4 O 0.37626(16) 0.01362(10) 0.30824(10)
N2 N 0.67250(19) 0.29922(11) 0.19714(11)
C3 C 0.7394(2) 0.26380(14) 0.29372(13)
H2 H 0.8461 0.2834 0.3297
C4 C 0.6575(2) 0.19933(13) 0.34273(13)
C5 C 0.4975(2) 0.16859(13) 0.28890(13)
C6 C 0.9972(3) -0.0117(2) 0.87421(16)
H3 H 0.9936 -0.0841 0.8778
H4 H 0.8873 0.0147 0.8548
H5 H 1.0584 0.0147 0.9408
C7 C 0.4309(2) 0.20316(15) 0.18752(14)
H6 H 0.3265 0.1824 0.1483
N3 N 1.00109(18) 0.04710(13) 0.69938(11)
C8 C 1.0781(2) 0.01832(14) 0.79592(13)
C9 C 0.7413(2) 0.16882(14) 0.45396(13)
C10 C 1.2702(2) 0.04887(17) 0.71985(16)
H7 H 1.3714 0.0557 0.7076
C11 C 1.4961(2) 0.07969(15) 0.93379(16)
H8 H 1.4931 0.1337 0.8892
C12 C 0.5198(2) 0.26812(15) 0.14525(14)
H9 H 0.4720 0.2914 0.0779
C13 C 0.3898(2) 0.10580(15) 0.33608(14)
C14 C 1.1210(2) 0.06561(16) 0.65173(15)
H10 H 1.1015 0.0864 0.5833
C1B C 1.3745(2) -0.07155(14) 0.97463(16)
H1B H 1.2908 -0.1194 0.9582
N1B N 1.75672(18) -0.01937(12) 1.18796(11)
C2B C 1.6280(2) -0.00824(14) 1.09145(14)
C6B C 2.0028(3) 0.0117(2) 1.12579(16)
H3B H 2.0064 0.0841 1.1222
H4B H 2.1127 -0.0147 1.1452
H5B H 1.9416 -0.0147 1.0592
N3B N 1.99891(18) -0.04710(13) 1.30062(11)
C8B C 1.9219(2) -0.01832(14) 1.20408(13)
C10B C 1.7298(2) -0.04887(17) 1.28015(16)
H7B H 1.6286 -0.0557 1.2924
C11B C 1.5039(2) -0.07969(15) 1.06621(16)
H8B H 1.5069 -0.1337 1.1108
C14B C 1.8790(2) -0.06561(16) 1.34827(15)
H10B H 1.8985 -0.0864 1.4167
Zn1B Zn 0.23713(2) -0.075316(15) 0.362628(14)
O1B O 0.32211(17) -0.09487(10) 0.51202(10)
O2B O 0.13873(18) -0.21771(12) 0.49403(11)
O3B O 0.6813(2) -0.14703(13) 0.60866(13)
O4B O 0.62374(16) -0.01362(10) 0.69176(10)
N2B N 0.32750(19) -0.29922(11) 0.80286(11)
C3B C 0.2606(2) -0.26380(14) 0.70628(13)
H2B H 0.1539 -0.2834 0.6703
C4B C 0.3425(2) -0.19933(13) 0.65727(13)
C5B C 0.5025(2) -0.16859(13) 0.71110(13)
C7B C 0.5691(2) -0.20316(15) 0.81248(14)
H6B H 0.6735 -0.1824 0.8517
C9B C 0.2587(2) -0.16882(14) 0.54604(13)
C12B C 0.4802(2) -0.26812(15) 0.85475(14)
H9B H 0.5280 -0.2914 0.9221
C13B C 0.6102(2) -0.10580(15) 0.66392(14)
Zn1A Zn 0.23713(2) -0.424684(15) 0.862628(14)
Zn1B_2 Zn 2.23713(2) -0.075316(15) 1.362628(14)
Zn1C Zn 0.76287(2) 0.424684(15) 0.137372(14)
N2A N 0.32750(19) -0.20078(11) 0.30286(11)
N2C N 0.67250(19) 0.20078(11) 0.69714(11)
N3B_2 N -0.00109(18) -0.04710(13) 0.30062(11)
O5 O 0.1429(2) 0.29719(14) 0.46113(16)
H11 H 0.0646 0.2660 0.4747
H12 H 0.1905 0.2577 0.4296
loop_
_geom_bond_atom_site_label_1
_geom_bond_atom_site_label_2
_geom_bond_site_symmetry_1
_geom_bond_site_symmetry_2
Zn1 O1 1_555 1_555
C1 H1 1_555 1_555
O1 C9 1_555 1_555
N1 C2 1_555 1_555
O2 C9 1_555 1_555
C2 C11 1_555 1_555
O3 C13 1_555 1_555
O4 C13 1_555 1_555
N2 C3 1_555 1_555
C3 H2 1_555 1_555
C4 C3 1_555 1_555
C5 C4 1_555 1_555
C6 H3 1_555 1_555
H4 C6 1_555 1_555
H5 C6 1_555 1_555
C7 C5 1_555 1_555
H6 C7 1_555 1_555
N3 Zn1 1_555 1_555
C8 N1 1_555 1_555
C9 C4 1_555 1_555
C10 N1 1_555 1_555
H7 C10 1_555 1_555
C11 C1 1_555 1_555
H8 C11 1_555 1_555
C12 N2 1_555 1_555
H9 C12 1_555 1_555
C13 C5 1_555 1_555
C14 N3 1_555 1_555
H10 C14 1_555 1_555
O5 H11 1_555 1_555
H12 O5 1_555 1_555
C1B C2 1_555 1_555
H1B C1B 1_555 1_555
N1B C2B 1_555 1_555
C2B C1 1_555 1_555
C6B H3B 1_555 1_555
H4B C6B 1_555 1_555
H5B C6B 1_555 1_555
N3B C8B 1_555 1_555
C8B N1B 1_555 1_555
C10B N1B 1_555 1_555
H7B C10B 1_555 1_555
C11B C1B 1_555 1_555
H8B C11B 1_555 1_555
C14B N3B 1_555 1_555
H10B C14B 1_555 1_555
Zn1B O4 1_555 1_555
O1B Zn1B 1_555 1_555
O2B C9B 1_555 1_555
O3B C13B 1_555 1_555
O4B Zn1 1_555 1_555
N2B C3B 1_555 1_555
C3B H2B 1_555 1_555
C4B C3B 1_555 1_555
C5B C4B 1_555 1_555
C7B C5B 1_555 1_555
H6B C7B 1_555 1_555
C9B O1B 1_555 1_555
C12B N2B 1_555 1_555
H9B C12B 1_555 1_555
C13B O4B 1_555 1_555
Zn1A N2B 1_555 1_555
Zn1B_2 N3B 1_555 1_555
Zn1C N2 1_555 1_555
N2A Zn1B 1_555 1_555
N2C Zn1 1_555 1_555
N3B_2 Zn1B 1_555 1_555
C6 C8 1_555 1_555
C7 C12 1_555 1_555
N3 C8 1_555 1_555
C10 C14 1_555 1_555
C2B C11B 1_555 1_555
C6B C8B 1_555 1_555
C10B C14B 1_555 1_555
C4B C9B 1_555 1_555
C5B C13B 1_555 1_555
C7B C12B 1_555 1_555

#END
