
#######################################################################
#
#                 Cambridge Crystallographic Data Centre
#                                CCDC 
#
#######################################################################
#
# If this CIF has been generated from an entry in the Cambridge 
# Structural Database, then it will include bibliographic, chemical, 
# crystal, experimental, refinement or atomic coordinate data resulting 
# from the CCDC's data processing and validation procedures.
#
#######################################################################

data_IGITUP
_symmetry_cell_setting           tetragonal
_symmetry_space_group_name_H-M   'I 4 2 2'
_symmetry_Int_Tables_number      97
_space_group_name_Hall           'I 4 2'
loop_
_symmetry_equiv_pos_site_id
_symmetry_equiv_pos_as_xyz
1 x,y,z
2 -y,x,z
3 -x,-y,z
4 y,-x,z
5 x,-y,-z
6 y,x,-z
7 -x,y,-z
8 -y,-x,-z
9 1/2+x,1/2+y,1/2+z
10 1/2-y,1/2+x,1/2+z
11 1/2-x,1/2-y,1/2+z
12 1/2+y,1/2-x,1/2+z
13 1/2+x,1/2-y,1/2-z
14 1/2+y,1/2+x,1/2-z
15 1/2-x,1/2+y,1/2-z
16 1/2-y,1/2-x,1/2-z
_cell_length_a                   18.5097(3)
_cell_length_b                   18.5097(3)
_cell_length_c                   36.1113(15)
_cell_angle_alpha                90
_cell_angle_beta                 90
_cell_angle_gamma                90
_cell_volume                     12372.1
loop_
_atom_site_label
_atom_site_type_symbol
_atom_site_fract_x
_atom_site_fract_y
_atom_site_fract_z
I1 I 1.76457(4) 1.64404(4) 0.95643(2)
I2 I 1.84749(5) 1.83337(4) 0.89987(3)
I3 I 1.75977(5) 1.64941(5) 0.82871(2)
I4 I 1.96369(4) 1.61314(5) 0.88237(2)
Cu1 Cu 1.82229(7) 1.59816(7) 0.89202(4)
Cu2 Cu 1.75501(7) 1.72487(8) 0.89291(4)
Cu3 Cu 1.88368(8) 1.70740(9) 0.92791(4)
Cu4 Cu 1.88185(10) 1.71711(11) 0.85499(5)
N1 N 1.9543(5) 1.7138(5) 0.9725(3)
N2 N 1.5114(4) 1.7969(4) 0.8928(2)
N3 N 1.6466(4) 1.7589(4) 0.8934(2)
N4 N 1.9160(11) 1.7629(12) 0.8074(6)
C1 C 1.9706(7) 1.6411(7) 0.9860(4)
H1 H 1.9265 1.6177 0.9931
H2 H 1.9927 1.6149 0.9660
C2 C 2.0250(6) 1.7486(7) 0.9623(3)
H3 H 2.0471 1.7190 0.9436
H4 H 2.0170 1.7962 0.9525
C3 C 1.6276(6) 1.7980(8) 0.9270(3)
H5 H 1.6594 1.8385 0.9301
H6 H 1.6344 1.7661 0.9476
C4 C 1.5496(5) 1.8254(7) 0.8594(3)
H7 H 1.5448 1.8770 0.8582
H8 H 1.5277 1.8049 0.8378
C5 C 1.9257(6) 1.7538(7) 1.0047(3)
H9 H 1.9140 1.8023 0.9974
H10 H 1.8829 1.7300 1.0134
C6 C 1.5480(6) 1.8246(7) 0.9264(3)
H11 H 1.5227 1.8066 0.9477
H12 H 1.5468 1.8764 0.9270
C7 C 1.5206(6) 1.7172(5) 0.8925(4)
H13 H 1.4986 1.6982 0.8705
H14 H 1.4968 1.6965 0.9136
C8 C 1.6291(6) 1.8029(7) 0.8610(3)
H15 H 1.6419 1.7764 0.8391
H16 H 1.6581 1.8459 0.8617
C9 C 1.5987(6) 1.6976(6) 0.8919(4)
H17 H 1.6080 1.6678 0.9132
H18 H 1.6098 1.6696 0.8703
C10 C 1.9883(12) 1.7620(14) 0.7907(7)
H19 H 1.9946 1.7114 0.7858
C11 C 2.0435(16) 1.7742(19) 0.8122(9)
H20 H 2.0394 1.7541 0.8366
H21 H 2.0451 1.8259 0.8140
C12 C 2.113(2) 1.752(2) 0.7911(10)
H22 H 2.1119 1.6999 0.7900
H23 H 2.1565 1.7664 0.8036
C13 C 2.1147(16) 1.7822(15) 0.7559(8)
H24 H 2.1504 1.7648 0.7441
H25 H 2.1226 1.8272 0.7582
C14 C 2.0497(19) 1.769(2) 0.7328(10)
H26 H 2.0430 1.7200 0.7255
H27 H 2.0553 1.7985 0.7110
C15 C 1.9862(16) 1.7950(14) 0.7525(7)
H28 H 1.9909 1.8460 0.7568
H29 H 1.9421 1.7869 0.7392
N1F N 2.0457(5) 1.7138(5) 1.0275(3)
C1F C 2.0294(7) 1.6411(7) 1.0140(4)
H1F H 2.0735 1.6177 1.0069
H2F H 2.0073 1.6149 1.0340
C2F C 1.9750(6) 1.7486(7) 1.0377(3)
H3F H 1.9529 1.7190 1.0564
H4F H 1.9830 1.7962 1.0475
C5F C 2.0743(6) 1.7538(7) 0.9953(3)
H9F H 2.0860 1.8023 1.0026
H10F H 2.1171 1.7300 0.9866
I1A I 1.35596(4) 1.76457(4) 0.95643(2)
I2A I 1.16663(4) 1.84749(5) 0.89987(3)
I3A I 1.35059(5) 1.75977(5) 0.82871(2)
I4A I 1.38686(5) 1.96369(4) 0.88237(2)
Cu1A Cu 1.40184(7) 1.82229(7) 0.89202(4)
Cu2A Cu 1.27513(8) 1.75501(7) 0.89291(4)
Cu3A Cu 1.29260(9) 1.88368(8) 0.92791(4)
Cu4A Cu 1.28289(11) 1.88185(10) 0.85499(5)
N2A N 1.2031(4) 1.5114(4) 0.8928(2)
N3A N 1.2411(4) 1.6466(4) 0.8934(2)
N4A N 1.2371(12) 1.9160(11) 0.8074(6)
C3A C 1.2020(8) 1.6276(6) 0.9270(3)
H5A H 1.1615 1.6594 0.9301
H6A H 1.2339 1.6344 0.9476
C4A C 1.1746(7) 1.5496(5) 0.8594(3)
H7A H 1.1230 1.5448 0.8582
H8A H 1.1951 1.5277 0.8378
C6A C 1.1754(7) 1.5480(6) 0.9264(3)
H11A H 1.1934 1.5227 0.9477
H12A H 1.1236 1.5468 0.9270
C7A C 1.2828(5) 1.5206(6) 0.8925(4)
H13A H 1.3018 1.4986 0.8705
H14A H 1.3035 1.4968 0.9136
C8A C 1.1971(7) 1.6291(6) 0.8610(3)
H15A H 1.2236 1.6419 0.8391
H16A H 1.1541 1.6581 0.8617
C9A C 1.3024(6) 1.5987(6) 0.8919(4)
H17A H 1.3322 1.6080 0.9132
H18A H 1.3304 1.6098 0.8703
C10A C 1.2380(14) 1.9883(12) 0.7907(7)
H19A H 1.2886 1.9946 0.7858
C11A C 1.2258(19) 2.0435(16) 0.8122(9)
H20A H 1.2459 2.0394 0.8366
H21A H 1.1741 2.0451 0.8140
C12A C 1.248(2) 2.113(2) 0.7911(10)
H22A H 1.3001 2.1119 0.7900
H23A H 1.2336 2.1565 0.8036
C13A C 1.2178(15) 2.1147(16) 0.7559(8)
H24A H 1.2352 2.1504 0.7441
H25A H 1.1728 2.1226 0.7582
C14A C 1.231(2) 2.0497(19) 0.7328(10)
H26A H 1.2800 2.0430 0.7255
H27A H 1.2015 2.0553 0.7110
C15A C 1.2050(14) 1.9862(16) 0.7525(7)
H28A H 1.1540 1.9909 0.7568
H29A H 1.2131 1.9421 0.7392
Cu1B Cu 1.17771(7) 1.40184(7) 0.89202(4)
Cu3F Cu 2.11632(8) 1.70740(9) 1.07209(4)
N1A N 1.2862(5) 1.9543(5) 0.9725(3)
N2C N 1.7969(4) 1.4886(4) 0.8928(2)
loop_
_geom_bond_atom_site_label_1
_geom_bond_atom_site_label_2
_geom_bond_site_symmetry_1
_geom_bond_site_symmetry_2
I1 Cu1 1_555 1_555
I2 Cu2 1_555 1_555
I3 Cu1 1_555 1_555
I4 Cu1 1_555 1_555
Cu1 N2C 1_555 1_555
Cu2 I1 1_555 1_555
Cu3 I1 1_555 1_555
Cu4 I2 1_555 1_555
N1 Cu3 1_555 1_555
N2 C4 1_555 1_555
N3 Cu2 1_555 1_555
N4 Cu4 1_555 1_555
C1 N1 1_555 1_555
H1 C1 1_555 1_555
H2 C1 1_555 1_555
C2 N1 1_555 1_555
H3 C2 1_555 1_555
H4 C2 1_555 1_555
C3 N3 1_555 1_555
H5 C3 1_555 1_555
H6 C3 1_555 1_555
C4 H7 1_555 1_555
H8 C4 1_555 1_555
C5 N1 1_555 1_555
H9 C5 1_555 1_555
H10 C5 1_555 1_555
C6 N2 1_555 1_555
H11 C6 1_555 1_555
H12 C6 1_555 1_555
C7 N2 1_555 1_555
H13 C7 1_555 1_555
H14 C7 1_555 1_555
C8 N3 1_555 1_555
H15 C8 1_555 1_555
H16 C8 1_555 1_555
C9 N3 1_555 1_555
H17 C9 1_555 1_555
H18 C9 1_555 1_555
C10 N4 1_555 1_555
H19 C10 1_555 1_555
C11 C10 1_555 1_555
H20 C11 1_555 1_555
H21 C11 1_555 1_555
C12 C11 1_555 1_555
H22 C12 1_555 1_555
H23 C12 1_555 1_555
C13 C12 1_555 1_555
H24 C13 1_555 1_555
H25 C13 1_555 1_555
C14 C13 1_555 1_555
H26 C14 1_555 1_555
H27 C14 1_555 1_555
C15 C10 1_555 1_555
H28 C15 1_555 1_555
H29 C15 1_555 1_555
N1F C1F 1_555 1_555
C1F C1 1_555 1_555
H1F C1F 1_555 1_555
H2F C1F 1_555 1_555
C2F C5 1_555 1_555
H3F C2F 1_555 1_555
H4F C2F 1_555 1_555
C5F C2 1_555 1_555
H9F C5F 1_555 1_555
H10F C5F 1_555 1_555
I1A Cu1A 1_555 1_555
I2A Cu2A 1_555 1_555
I3A Cu1A 1_555 1_555
I4A Cu1A 1_555 1_555
Cu1A N2 1_555 1_555
Cu2A I1A 1_555 1_555
Cu3A I1A 1_555 1_555
Cu4A I2A 1_555 1_555
N2A C4A 1_555 1_555
N3A Cu2A 1_555 1_555
N4A Cu4A 1_555 1_555
C3A N3A 1_555 1_555
H5A C3A 1_555 1_555
H6A C3A 1_555 1_555
C4A H7A 1_555 1_555
H8A C4A 1_555 1_555
C6A N2A 1_555 1_555
H11A C6A 1_555 1_555
H12A C6A 1_555 1_555
C7A N2A 1_555 1_555
H13A C7A 1_555 1_555
H14A C7A 1_555 1_555
C8A N3A 1_555 1_555
H15A C8A 1_555 1_555
H16A C8A 1_555 1_555
C9A N3A 1_555 1_555
H17A C9A 1_555 1_555
H18A C9A 1_555 1_555
C10A N4A 1_555 1_555
H19A C10A 1_555 1_555
C11A C10A 1_555 1_555
H20A C11A 1_555 1_555
H21A C11A 1_555 1_555
C12A C11A 1_555 1_555
H22A C12A 1_555 1_555
H23A C12A 1_555 1_555
C13A C12A 1_555 1_555
H24A C13A 1_555 1_555
H25A C13A 1_555 1_555
C14A C13A 1_555 1_555
H26A C14A 1_555 1_555
H27A C14A 1_555 1_555
C15A C10A 1_555 1_555
H28A C15A 1_555 1_555
H29A C15A 1_555 1_555
Cu1B N2A 1_555 1_555
Cu3F N1F 1_555 1_555
N1A Cu3A 1_555 1_555
I2 Cu3 1_555 1_555
I3 Cu2 1_555 1_555
I3 Cu4 1_555 1_555
I4 Cu3 1_555 1_555
I4 Cu4 1_555 1_555
C3 C6 1_555 1_555
C4 C8 1_555 1_555
C7 C9 1_555 1_555
C14 C15 1_555 1_555
N1F C2F 1_555 1_555
N1F C5F 1_555 1_555
I2A Cu3A 1_555 1_555
I3A Cu2A 1_555 1_555
I3A Cu4A 1_555 1_555
I4A Cu3A 1_555 1_555
I4A Cu4A 1_555 1_555
C3A C6A 1_555 1_555
C4A C8A 1_555 1_555
C7A C9A 1_555 1_555
C14A C15A 1_555 1_555

#END
