
#######################################################################
#
#                 Cambridge Crystallographic Data Centre
#                                CCDC 
#
#######################################################################
#
# If this CIF has been generated from an entry in the Cambridge 
# Structural Database, then it will include bibliographic, chemical, 
# crystal, experimental, refinement or atomic coordinate data resulting 
# from the CCDC's data processing and validation procedures.
#
#######################################################################

data_IGIVIF
_symmetry_cell_setting           monoclinic
_symmetry_space_group_name_H-M   'P 21/c'
_symmetry_Int_Tables_number      14
_space_group_name_Hall           '-P 2ybc'
loop_
_symmetry_equiv_pos_site_id
_symmetry_equiv_pos_as_xyz
1 x,y,z
2 -x,1/2+y,1/2-z
3 -x,-y,-z
4 x,1/2-y,1/2+z
_cell_length_a                   7.2068(2)
_cell_length_b                   4.0729(2)
_cell_length_c                   32.1031(11)
_cell_angle_alpha                90
_cell_angle_beta                 97.561(3)
_cell_angle_gamma                90
_cell_volume                     934.116
loop_
_atom_site_label
_atom_site_type_symbol
_atom_site_fract_x
_atom_site_fract_y
_atom_site_fract_z
Cd1 Cd 0.72957(4) 0.11598(8) -0.014032(9)
O1 O 0.4580(4) -0.1607(8) -0.03791(9)
O2 O 0.5853(4) -0.5688(8) -0.06881(9)
O3 O 0.1868(4) -0.6183(7) -0.01874(8)
O4 O -0.0447(4) -0.8988(8) -0.05456(9)
C1 C 0.2869(6) -0.3921(10) -0.09930(12)
C2 C 0.1168(6) -0.5274(11) -0.09321(13)
C3 C -0.0324(6) -0.5293(12) -0.12640(14)
H1 H -0.1464 -0.6216 -0.1221
C4 C -0.0125(6) -0.3985(12) -0.16432(14)
H2 H -0.1133 -0.4001 -0.1856
C5 C 0.1602(6) -0.2600(12) -0.17186(13)
C6 C 0.1845(7) -0.1280(13) -0.21142(14)
H3 H 0.0855 -0.1329 -0.2332
C7 C 0.3511(8) 0.0078(13) -0.21822(15)
H4 H 0.3643 0.0974 -0.2443
C8 C 0.5017(7) 0.0112(13) -0.18600(15)
H5 H 0.6153 0.1023 -0.1908
C9 C 0.4838(6) -0.1182(12) -0.14752(14)
H6 H 0.5853 -0.1142 -0.1264
C10 C 0.3126(6) -0.2573(11) -0.13945(13)
C11 C 0.4549(6) -0.3809(11) -0.06573(12)
C12 C 0.0834(6) -0.6872(10) -0.05285(13)
Cd1_2 Cd -0.27043(4) -0.88402(8) -0.014032(9)
Cd1_3 Cd 0.72957(4) -0.88402(8) -0.014032(9)
Cd1B Cd 0.27043(4) -1.11598(8) 0.014032(9)
Cd1B_2 Cd 0.27043(4) -0.11598(8) 0.014032(9)
O1B O 0.5420(4) 0.1607(8) 0.03791(9)
O2_2 O 0.5853(4) 0.4312(8) -0.06881(9)
O3B O 0.8132(4) -0.3817(7) 0.01874(8)
O3B_2 O 0.8132(4) 0.6183(7) 0.01874(8)
O4_2 O 0.9553(4) 0.1012(8) -0.05456(9)
loop_
_geom_bond_atom_site_label_1
_geom_bond_atom_site_label_2
_geom_bond_site_symmetry_1
_geom_bond_site_symmetry_2
Cd1 O1 1_555 1_555
O1 C11 1_555 1_555
O2 C11 1_555 1_555
O3 C12 1_555 1_555
O4 C12 1_555 1_555
C1 C2 1_555 1_555
C2 C3 1_555 1_555
C3 H1 1_555 1_555
C4 C3 1_555 1_555
H2 C4 1_555 1_555
C5 C4 1_555 1_555
C6 C5 1_555 1_555
H3 C6 1_555 1_555
C7 C6 1_555 1_555
H4 C7 1_555 1_555
C8 C7 1_555 1_555
H5 C8 1_555 1_555
C9 C8 1_555 1_555
H6 C9 1_555 1_555
C10 C1 1_555 1_555
C11 C1 1_555 1_555
C12 C2 1_555 1_555
Cd1_2 O4 1_555 1_555
Cd1_3 O2 1_555 1_555
Cd1B O3 1_555 1_555
Cd1B_2 O1 1_555 1_555
O1B Cd1 1_555 1_555
O2_2 Cd1 1_555 1_555
O3B Cd1 1_555 1_555
O3B_2 Cd1 1_555 1_555
O4_2 Cd1 1_555 1_555
O3 Cd1B_2 1_555 1_555
C5 C10 1_555 1_555
C9 C10 1_555 1_555
Cd1_3 O3B 1_555 1_555
Cd1B_2 O1B 1_555 1_555

#END
