
#######################################################################
#
#                 Cambridge Crystallographic Data Centre
#                                CCDC 
#
#######################################################################
#
# If this CIF has been generated from an entry in the Cambridge 
# Structural Database, then it will include bibliographic, chemical, 
# crystal, experimental, refinement or atomic coordinate data resulting 
# from the CCDC's data processing and validation procedures.
#
#######################################################################

data_IGIVOL
_symmetry_cell_setting           triclinic
_symmetry_space_group_name_H-M   'P -1'
_symmetry_Int_Tables_number      2
_space_group_name_Hall           '-P 1'
loop_
_symmetry_equiv_pos_site_id
_symmetry_equiv_pos_as_xyz
1 x,y,z
2 -x,-y,-z
_cell_length_a                   15.4401(6)
_cell_length_b                   15.4933(6)
_cell_length_c                   15.7244(5)
_cell_angle_alpha                94.371(3)
_cell_angle_beta                 108.193(3)
_cell_angle_gamma                96.875(3)
_cell_volume                     3522
loop_
_atom_site_label
_atom_site_type_symbol
_atom_site_fract_x
_atom_site_fract_y
_atom_site_fract_z
Cd1 Cd 0.91753(3) 0.61833(3) 0.82204(3)
Cd2 Cd 1.0000 0.5000 1.0000
Cd3 Cd 0.92210(3) 0.62297(3) 0.33270(3)
Cd4 Cd 1.0000 0.5000 0.5000
Cd5 Cd 0.83328(3) 0.40611(3) 0.61953(3)
Cd6 Cd 1.16696(3) 0.59116(3) 0.88923(3)
N1 N 1.2383(4) 0.7067(4) 0.9988(3)
N2 N 1.1824(4) 1.2792(3) 1.1984(3)
N3 N 0.7439(4) 0.2797(3) 0.5421(3)
N4 N 0.8215(4) -0.2813(4) 0.3462(4)
O1 O 0.9786(3) 0.6837(3) 0.7267(3)
O2 O 1.1307(3) 0.6874(3) 0.7821(3)
O3 O 1.0399(4) 0.6365(3) 0.5723(3)
O4 O 1.0256(3) 0.7110(3) 0.4550(3)
O5 O 0.8836(3) 0.3150(3) 0.7319(3)
O6 O 1.0345(3) 0.3106(3) 0.7711(3)
O7 O 0.9810(3) 0.3635(3) 0.9343(3)
O8 O 0.9970(3) 0.2909(3) 1.0535(3)
O9 O 0.7091(3) 0.4153(3) 0.1670(3)
O10 O 0.8177(3) 0.5287(3) 0.2169(3)
O11 O 0.8565(3) 0.5276(3) 0.4154(3)
O12 O 0.7652(3) 0.4621(3) 0.4821(3)
O13 O 0.7077(3) 0.4079(3) 0.6932(3)
O14 O 0.8102(3) 0.5237(3) 0.7093(2)
O15 O 0.8528(3) 0.5165(3) 0.9075(3)
O16 O 0.7694(3) 0.4969(3) 0.9983(3)
O17 O 1.0257(3) 0.5319(2) 0.8687(2)
H1 H 1.0219 0.4800 0.8512
O18 O 1.0280(3) 0.5323(3) 0.3700(2)
H2 H 1.0158 0.4875 0.3312
C1 C 1.0606(4) 0.7136(4) 0.7346(3)
C2 C 1.0406(4) 0.7055(4) 0.5377(4)
C3 C 1.0736(4) 0.7932(4) 0.6894(4)
C4 C 1.1011(4) 0.8762(4) 0.7449(4)
C5 C 1.1191(5) 0.8835(4) 0.8395(4)
H3 H 1.1135 0.8334 0.8676
C6 C 1.1443(5) 0.9635(5) 0.8894(5)
H4 H 1.1571 0.9671 0.9516
C7 C 1.1515(5) 1.0395(5) 0.8500(5)
H5 H 1.1686 1.0935 0.8855
C8 C 1.1337(5) 1.0356(5) 0.7589(5)
H6 H 1.1376 1.0869 0.7324
C9 C 1.1094(5) 0.9542(4) 0.7053(4)
C10 C 1.0912(6) 0.9484(4) 0.6103(5)
H7 H 1.0949 0.9992 0.5829
C11 C 1.0685(5) 0.8683(5) 0.5594(5)
H8 H 1.0580 0.8655 0.4977
C12 C 1.0606(4) 0.7906(4) 0.5979(4)
C13 C 0.9531(5) 0.2855(4) 0.7716(3)
C14 C 0.9817(4) 0.2949(4) 0.9708(4)
C15 C 0.9453(4) 0.2056(4) 0.8197(4)
C16 C 0.9230(4) 0.1220(4) 0.7658(4)
C17 C 0.9023(5) 0.1138(5) 0.6704(4)
H9 H 0.9016 0.1636 0.6409
C18 C 0.8835(5) 0.0329(5) 0.6228(4)
H10 H 0.8707 0.0282 0.5606
C19 C 0.8828(5) -0.0423(5) 0.6645(5)
H11 H 0.8695 -0.0968 0.6303
C20 C 0.9014(5) -0.0371(4) 0.7553(4)
H12 H 0.9020 -0.0881 0.7829
C21 C 0.9196(4) 0.0448(4) 0.8078(4)
C22 C 0.9378(5) 0.0520(4) 0.9019(4)
H13 H 0.9356 0.0016 0.9302
C23 C 0.9582(5) 0.1307(4) 0.9508(4)
H14 H 0.9708 0.1337 1.0129
C24 C 0.9613(4) 0.2089(4) 0.9114(3)
C25 C 0.7411(4) 0.4871(4) 0.2151(4)
C26 C 0.7778(4) 0.5045(4) 0.4225(4)
C27 C 0.6819(4) 0.5260(4) 0.2628(4)
C28 C 0.6051(4) 0.5601(4) 0.2062(4)
C29 C 0.5898(5) 0.5640(5) 0.1132(4)
H15 H 0.6290 0.5403 0.0865
C30 C 0.5196(5) 0.6011(6) 0.0623(5)
H16 H 0.5105 0.6018 0.0011
C31 C 0.4600(5) 0.6390(6) 0.1012(5)
H17 H 0.4131 0.6663 0.0664
C32 C 0.4720(5) 0.6351(5) 0.1906(5)
H18 H 0.4313 0.6576 0.2161
C33 C 0.5446(4) 0.5977(4) 0.2437(4)
C34 C 0.5598(5) 0.5979(4) 0.3361(4)
H19 H 0.5191 0.6207 0.3613
C35 C 0.6328(5) 0.5653(5) 0.3897(4)
H20 H 0.6410 0.5660 0.4509
C36 C 0.6963(4) 0.5307(4) 0.3547(4)
C37 C 0.7386(4) 0.4842(4) 0.7244(4)
C38 C 0.7788(5) 0.5183(4) 0.9272(4)
C39 C 0.6851(4) 0.5365(4) 0.7680(4)
C40 C 0.6123(4) 0.5735(4) 0.7093(4)
C41 C 0.5965(5) 0.5681(5) 0.6159(4)
H21 H 0.6318 0.5366 0.5906
C42 C 0.5299(6) 0.6087(6) 0.5619(5)
H22 H 0.5211 0.6047 0.5004
C43 C 0.4746(6) 0.6563(6) 0.5973(5)
H23 H 0.4296 0.6839 0.5601
C44 C 0.4885(5) 0.6609(5) 0.6871(5)
H24 H 0.4516 0.6914 0.7114
C45 C 0.5571(4) 0.6210(4) 0.7441(4)
C46 C 0.5712(4) 0.6272(4) 0.8371(4)
H25 H 0.5325 0.6558 0.8606
C47 C 0.6405(4) 0.5919(4) 0.8933(4)
H26 H 0.6488 0.5970 0.9548
C48 C 0.7006(4) 0.5476(4) 0.8597(4)
C49 C 1.2853(5) 0.7746(5) 0.9786(5)
H27 H 1.2859 0.7746 0.9196
C50 C 1.2367(5) 0.7096(5) 1.0839(4)
H28 H 1.2038 0.6627 1.0997
C51 C 1.2816(5) 0.7786(5) 1.1481(4)
H29 H 1.2781 0.7778 1.2060
C52 C 1.3335(5) 0.8456(5) 1.0408(5)
H30 H 1.3672 0.8911 1.0239
C53 C 1.3316(5) 0.8487(4) 1.1289(4)
C54 C 1.3794(5) 0.9277(4) 1.1956(5)
H31 H 1.4380 0.9481 1.1878
H32 H 1.3917 0.9120 1.2563
C55 C 1.3202(5) 1.0008(5) 1.1828(5)
H33 H 1.3035 1.0118 1.1202
H34 H 1.2637 0.9809 1.1949
C56 C 1.3663(5) 1.0863(5) 1.2423(5)
H35 H 1.3833 1.0759 1.3051
H36 H 1.4223 1.1074 1.2299
C57 C 1.3038(5) 1.1556(4) 1.2271(5)
C58 C 1.2849(5) 1.2003(4) 1.2974(4)
H37 H 1.3129 1.1894 1.3563
C59 C 1.2599(5) 1.1763(5) 1.1427(5)
H38 H 1.2701 1.1486 1.0929
C60 C 1.2252(5) 1.2604(4) 1.2806(4)
H39 H 1.2142 1.2894 1.3293
C61 C 1.2012(5) 1.2370(4) 1.1308(5)
H40 H 1.1729 1.2495 1.0726
C62 C 0.7031(5) 0.2261(5) 0.5848(5)
H41 H 0.7092 0.2438 0.6445
C63 C 0.7341(5) 0.2518(5) 0.4567(4)
H42 H 0.7618 0.2878 0.4247
C64 C 0.6852(6) 0.1726(5) 0.4144(5)
H43 H 0.6807 0.1557 0.3549
C65 C 0.6524(6) 0.1463(5) 0.5457(5)
H44 H 0.6247 0.1114 0.5785
C66 C 0.6428(5) 0.1179(5) 0.4582(5)
C67 C 0.5930(5) 0.0281(5) 0.4138(6)
H45 H 0.5536 0.0055 0.4471
H46 H 0.5540 0.0324 0.3529
C68 C 0.6590(6) -0.0333(5) 0.4106(6)
H47 H 0.6997 -0.0343 0.4714
H48 H 0.6967 -0.0106 0.3757
C69 C 0.6152(6) -0.1271(6) 0.3702(7)
H49 H 0.5832 -0.1529 0.4085
H50 H 0.5701 -0.1266 0.3113
C70 C 0.6866(6) -0.1817(5) 0.3610(7)
C71 C 0.7484(6) -0.2062(6) 0.4356(6)
H51 H 0.7466 -0.1883 0.4928
C72 C 0.6971(6) -0.2066(5) 0.2798(6)
H52 H 0.6591 -0.1898 0.2271
C73 C 0.7635(5) -0.2563(4) 0.2764(5)
H53 H 0.7677 -0.2734 0.2200
C74 C 0.8128(6) -0.2567(5) 0.4265(6)
H54 H 0.8519 -0.2747 0.4779
Cd1A Cd 1.08247(3) 0.38167(3) 0.17796(3)
Cd3A Cd 1.07790(3) 0.37703(3) 0.66730(3)
Cd5A Cd 1.16672(3) 0.59389(3) 0.38047(3)
Cd6A Cd 0.83304(3) 0.40884(3) 0.11077(3)
N1A N 0.7617(4) 0.2933(4) 0.0012(3)
N2A N 0.8176(4) -0.2792(3) -0.1984(3)
N3A N 1.2561(4) 0.7203(3) 0.4579(3)
N4A N 1.1785(4) 1.2813(4) 0.6538(4)
O1A O 1.0214(3) 0.3163(3) 0.2733(3)
O2A O 0.8693(3) 0.3126(3) 0.2179(3)
O3A O 0.9601(4) 0.3635(3) 0.4277(3)
O4A O 0.9744(3) 0.2890(3) 0.5450(3)
O5A O 1.1164(3) 0.6850(3) 0.2681(3)
O6A O 0.9655(3) 0.6894(3) 0.2289(3)
O7A O 1.0190(3) 0.6365(3) 0.0657(3)
O8A O 1.0030(3) 0.7091(3) -0.0535(3)
O9A O 1.2909(3) 0.5847(3) 0.8330(3)
O10A O 1.1823(3) 0.4713(3) 0.7831(3)
O11A O 1.1435(3) 0.4724(3) 0.5846(3)
O12A O 1.2348(3) 0.5379(3) 0.5179(3)
O13A O 1.2923(3) 0.5921(3) 0.3068(3)
O14A O 1.1898(3) 0.4763(3) 0.2907(2)
O15A O 1.1472(3) 0.4835(3) 0.0925(3)
O16A O 1.2306(3) 0.5031(3) 0.0017(3)
O17A O 0.9743(3) 0.4681(2) 0.1313(2)
H1A H 0.9781 0.5200 0.1488
O18A O 0.9720(3) 0.4677(3) 0.6300(2)
H2A H 0.9842 0.5125 0.6688
C1A C 0.9394(4) 0.2864(4) 0.2654(3)
C2A C 0.9594(4) 0.2945(4) 0.4623(4)
C3A C 0.9264(4) 0.2068(4) 0.3106(4)
C4A C 0.8989(4) 0.1238(4) 0.2551(4)
C5A C 0.8809(5) 0.1165(4) 0.1605(4)
H3A H 0.8865 0.1666 0.1324
C6A C 0.8557(5) 0.0365(5) 0.1106(5)
H4A H 0.8429 0.0329 0.0484
C7A C 0.8485(5) -0.0395(5) 0.1500(5)
H5A H 0.8314 -0.0935 0.1145
C8A C 0.8663(5) -0.0356(5) 0.2411(5)
H6A H 0.8624 -0.0869 0.2676
C9A C 0.8906(5) 0.0458(4) 0.2947(4)
C10A C 0.9088(6) 0.0516(4) 0.3897(5)
H7A H 0.9051 0.0008 0.4171
C11A C 0.9315(5) 0.1317(5) 0.4406(5)
H8A H 0.9420 0.1345 0.5023
C12A C 0.9394(4) 0.2094(4) 0.4021(4)
C13A C 1.0469(5) 0.7145(4) 0.2284(3)
C14A C 1.0183(4) 0.7051(4) 0.0292(4)
C15A C 1.0547(4) 0.7944(4) 0.1803(4)
C16A C 1.0770(4) 0.8780(4) 0.2342(4)
C17A C 1.0977(5) 0.8862(5) 0.3296(4)
H9A H 1.0984 0.8364 0.3591
C18A C 1.1165(5) 0.9671(5) 0.3772(4)
H10A H 1.1293 0.9718 0.4394
C19A C 1.1172(5) 1.0423(5) 0.3355(5)
H11A H 1.1305 1.0968 0.3697
C20A C 1.0986(5) 1.0371(4) 0.2447(4)
H12A H 1.0980 1.0881 0.2171
C21A C 1.0804(4) 0.9552(4) 0.1922(4)
C22A C 1.0622(5) 0.9480(4) 0.0981(4)
H13A H 1.0644 0.9984 0.0698
C23A C 1.0418(5) 0.8693(4) 0.0492(4)
H14A H 1.0292 0.8663 -0.0129
C24A C 1.0387(4) 0.7911(4) 0.0886(3)
C25A C 1.2589(4) 0.5129(4) 0.7849(4)
C26A C 1.2222(4) 0.4955(4) 0.5775(4)
C27A C 1.3181(4) 0.4740(4) 0.7372(4)
C28A C 1.3949(4) 0.4399(4) 0.7938(4)
C29A C 1.4102(5) 0.4360(5) 0.8868(4)
H15A H 1.3710 0.4597 0.9135
C30A C 1.4804(5) 0.3989(6) 0.9377(5)
H16A H 1.4895 0.3982 0.9989
C31A C 1.5400(5) 0.3610(6) 0.8988(5)
H17A H 1.5869 0.3337 0.9336
C32A C 1.5280(5) 0.3649(5) 0.8094(5)
H18A H 1.5687 0.3424 0.7839
C33A C 1.4554(4) 0.4023(4) 0.7563(4)
C34A C 1.4402(5) 0.4021(4) 0.6639(4)
H19A H 1.4809 0.3793 0.6387
C35A C 1.3672(5) 0.4347(5) 0.6103(4)
H20A H 1.3590 0.4340 0.5491
C36A C 1.3037(4) 0.4693(4) 0.6453(4)
C37A C 1.2614(4) 0.5158(4) 0.2756(4)
C38A C 1.2212(5) 0.4817(4) 0.0728(4)
C39A C 1.3149(4) 0.4635(4) 0.2320(4)
C40A C 1.3877(4) 0.4265(4) 0.2907(4)
C41A C 1.4035(5) 0.4319(5) 0.3841(4)
H21A H 1.3682 0.4634 0.4094
C42A C 1.4701(6) 0.3913(6) 0.4381(5)
H22A H 1.4789 0.3953 0.4996
C43A C 1.5254(6) 0.3437(6) 0.4027(5)
H23A H 1.5704 0.3161 0.4399
C44A C 1.5115(5) 0.3391(5) 0.3129(5)
H24A H 1.5484 0.3086 0.2886
C45A C 1.4429(4) 0.3790(4) 0.2559(4)
C46A C 1.4288(4) 0.3728(4) 0.1629(4)
H25A H 1.4675 0.3442 0.1394
C47A C 1.3595(4) 0.4081(4) 0.1067(4)
H26A H 1.3512 0.4030 0.0452
C48A C 1.2994(4) 0.4524(4) 0.1403(4)
C49A C 0.7147(5) 0.2254(5) 0.0214(5)
H27A H 0.7141 0.2254 0.0804
C50A C 0.7633(5) 0.2904(5) -0.0839(4)
H28A H 0.7962 0.3373 -0.0997
C51A C 0.7184(5) 0.2214(5) -0.1481(4)
H29A H 0.7219 0.2222 -0.2060
C52A C 0.6665(5) 0.1544(5) -0.0408(5)
H30A H 0.6328 0.1089 -0.0239
C53A C 0.6684(5) 0.1513(4) -0.1289(4)
C54A C 0.6206(5) 0.0723(4) -0.1956(5)
H31A H 0.5620 0.0519 -0.1878
H32A H 0.6083 0.0880 -0.2563
C55A C 0.6798(5) -0.0008(5) -0.1828(5)
H33A H 0.6965 -0.0118 -0.1202
H34A H 0.7363 0.0191 -0.1949
C56A C 0.6337(5) -0.0863(5) -0.2423(5)
H35A H 0.6167 -0.0759 -0.3051
H36A H 0.5777 -0.1074 -0.2299
C57A C 0.6962(5) -0.1556(4) -0.2271(5)
C58A C 0.7151(5) -0.2003(4) -0.2974(4)
H37A H 0.6871 -0.1894 -0.3563
C59A C 0.7401(5) -0.1763(5) -0.1427(5)
H38A H 0.7299 -0.1486 -0.0929
C60A C 0.7748(5) -0.2604(4) -0.2806(4)
H39A H 0.7858 -0.2894 -0.3293
C61A C 0.7988(5) -0.2370(4) -0.1308(5)
H40A H 0.8271 -0.2495 -0.0726
C62A C 1.2969(5) 0.7739(5) 0.4152(5)
H41A H 1.2908 0.7562 0.3555
C63A C 1.2659(5) 0.7482(5) 0.5433(4)
H42A H 1.2382 0.7122 0.5753
C64A C 1.3148(6) 0.8274(5) 0.5856(5)
H43A H 1.3193 0.8443 0.6451
C65A C 1.3476(6) 0.8537(5) 0.4543(5)
H44A H 1.3753 0.8886 0.4215
C66A C 1.3572(5) 0.8821(5) 0.5418(5)
C67A C 1.4070(5) 0.9719(5) 0.5862(6)
H45A H 1.4464 0.9945 0.5529
H46A H 1.4460 0.9676 0.6471
C68A C 1.3410(6) 1.0333(5) 0.5894(6)
H47A H 1.3003 1.0343 0.5286
H48A H 1.3033 1.0106 0.6243
C69A C 1.3848(6) 1.1271(6) 0.6298(7)
H49A H 1.4168 1.1529 0.5915
H50A H 1.4299 1.1266 0.6887
C70A C 1.3134(6) 1.1817(5) 0.6390(7)
C71A C 1.2516(6) 1.2062(6) 0.5644(6)
H51A H 1.2534 1.1883 0.5072
C72A C 1.3029(6) 1.2066(5) 0.7202(6)
H52A H 1.3409 1.1898 0.7729
C73A C 1.2365(5) 1.2563(4) 0.7236(5)
H53A H 1.2323 1.2734 0.7800
C74A C 1.1872(6) 1.2567(5) 0.5735(6)
H54A H 1.1481 1.2747 0.5221
Cd1_2 Cd 0.91753(3) -0.38167(3) -0.17796(3)
Cd1_3 Cd 0.91753(3) 0.61833(3) -0.17796(3)
Cd1A_2 Cd 1.08247(3) 0.38167(3) 1.17796(3)
Cd1A_3 Cd 1.08247(3) 1.38167(3) 1.17796(3)
Cd2_2 Cd 1.0000 0.5000 0.0000
Cd3_2 Cd 0.92210(3) -0.37703(3) 0.33270(3)
Cd3A_2 Cd 1.07790(3) 1.37703(3) 0.66730(3)
Cd6_2 Cd 1.16696(3) 0.59116(3) -0.11077(3)
Cd6A_2 Cd 0.83304(3) 0.40884(3) 1.11077(3)
N2_2 N 1.1824(4) 0.2792(3) 0.1984(3)
N2A_2 N 0.8176(4) 0.7208(3) 0.8016(3)
N4_2 N 0.8215(4) 0.7187(4) 0.3462(4)
N4A_2 N 1.1785(4) 0.2813(4) 0.6538(4)
O7A_2 O 1.0190(3) 0.6365(3) 1.0657(3)
O8_2 O 0.9970(3) 0.2909(3) 0.0535(3)
O8A_2 O 1.0030(3) 0.7091(3) 0.9465(3)
O15A_2 O 1.1472(3) 0.4835(3) 1.0925(3)
O16_2 O 0.7694(3) 0.4969(3) -0.0017(3)
O16A_2 O 1.2306(3) 0.5031(3) 1.0017(3)
O17A_2 O 0.9743(3) 0.4681(2) 1.1313(2)
O19 O 0.1851(4) 0.3068(4) 0.9222(4)
H55 H 0.1994 0.3621 0.9342
H56 H 0.1686 0.2734 0.8727
O20 O 0.6965(4) 0.2570(4) 0.2370(4)
H57 H 0.7008 0.3057 0.2161
H58 H 0.6582 0.2209 0.1948
O21 O 0.3368(9) 0.2246(8) 0.9475(7)
H59 H 0.3781 0.2423 0.9248
H60 H 0.3427 0.1814 0.9779
O22 O 0.5659(9) 0.1054(9) 0.1551(9)
H61 H 0.5696 0.0539 0.1695
H62 H 0.5380 0.1130 0.1009
O23 O 0.4152(13) 0.0874(12) 0.9939(12)
H63 H 0.4598 0.0763 0.9761
H64 H 0.3958 0.0535 1.0262
O24 O 0.6227(15) 0.9719(16) 0.1407(16)
H65 H 0.6481 1.0062 0.1894
H66 H 0.6010 0.9927 0.0913
loop_
_geom_bond_atom_site_label_1
_geom_bond_atom_site_label_2
_geom_bond_site_symmetry_1
_geom_bond_site_symmetry_2
Cd1 O1 1_555 1_555
Cd2 O7 1_555 1_555
Cd3 O4 1_555 1_555
Cd4 O3 1_555 1_555
Cd5 N3 1_555 1_555
Cd6 N1 1_555 1_555
N1 C49 1_555 1_555
N2 C60 1_555 1_555
N3 C62 1_555 1_555
N4 C73 1_555 1_555
O1 C1 1_555 1_555
O2 Cd6 1_555 1_555
O3 C2 1_555 1_555
O4 C2 1_555 1_555
O5 Cd5 1_555 1_555
O6 C13 1_555 1_555
O7 C14 1_555 1_555
O8 C14 1_555 1_555
O9 C25 1_555 1_555
O10 Cd3 1_555 1_555
O11 Cd3 1_555 1_555
O12 Cd5 1_555 1_555
O13 Cd5 1_555 1_555
O14 Cd1 1_555 1_555
O15 Cd1 1_555 1_555
O16 C38 1_555 1_555
O17 Cd1 1_555 1_555
H1 O17 1_555 1_555
O18 Cd3 1_555 1_555
H2 O18 1_555 1_555
C1 O2 1_555 1_555
C2 C12 1_555 1_555
C3 C1 1_555 1_555
C4 C3 1_555 1_555
C5 C4 1_555 1_555
H3 C5 1_555 1_555
C6 C5 1_555 1_555
H4 C6 1_555 1_555
C7 C6 1_555 1_555
H5 C7 1_555 1_555
C8 C7 1_555 1_555
H6 C8 1_555 1_555
C9 C4 1_555 1_555
C10 C9 1_555 1_555
H7 C10 1_555 1_555
C11 C10 1_555 1_555
H8 C11 1_555 1_555
C12 C3 1_555 1_555
C13 O5 1_555 1_555
C14 C24 1_555 1_555
C15 C13 1_555 1_555
C16 C15 1_555 1_555
C17 C16 1_555 1_555
H9 C17 1_555 1_555
C18 C17 1_555 1_555
H10 C18 1_555 1_555
C19 C18 1_555 1_555
H11 C19 1_555 1_555
C20 C19 1_555 1_555
H12 C20 1_555 1_555
C21 C16 1_555 1_555
C22 C21 1_555 1_555
H13 C22 1_555 1_555
C23 C22 1_555 1_555
H14 C23 1_555 1_555
C24 C15 1_555 1_555
C25 O10 1_555 1_555
C26 O11 1_555 1_555
C27 C25 1_555 1_555
C28 C27 1_555 1_555
C29 C28 1_555 1_555
H15 C29 1_555 1_555
C30 C29 1_555 1_555
H16 C30 1_555 1_555
C31 C30 1_555 1_555
H17 C31 1_555 1_555
C32 C31 1_555 1_555
H18 C32 1_555 1_555
C33 C28 1_555 1_555
C34 C33 1_555 1_555
H19 C34 1_555 1_555
C35 C34 1_555 1_555
H20 C35 1_555 1_555
C36 C26 1_555 1_555
C37 O13 1_555 1_555
C38 O15 1_555 1_555
C39 C37 1_555 1_555
C40 C39 1_555 1_555
C41 C40 1_555 1_555
H21 C41 1_555 1_555
C42 C41 1_555 1_555
H22 C42 1_555 1_555
C43 C42 1_555 1_555
H23 C43 1_555 1_555
C44 C43 1_555 1_555
H24 C44 1_555 1_555
C45 C40 1_555 1_555
C46 C45 1_555 1_555
H25 C46 1_555 1_555
C47 C46 1_555 1_555
H26 C47 1_555 1_555
C48 C38 1_555 1_555
C49 H27 1_555 1_555
C50 N1 1_555 1_555
H28 C50 1_555 1_555
C51 C50 1_555 1_555
H29 C51 1_555 1_555
C52 C49 1_555 1_555
H30 C52 1_555 1_555
C53 C51 1_555 1_555
C54 C53 1_555 1_555
H31 C54 1_555 1_555
H32 C54 1_555 1_555
C55 C54 1_555 1_555
H33 C55 1_555 1_555
H34 C55 1_555 1_555
C56 C55 1_555 1_555
H35 C56 1_555 1_555
H36 C56 1_555 1_555
C57 C56 1_555 1_555
C58 C57 1_555 1_555
H37 C58 1_555 1_555
C59 C57 1_555 1_555
H38 C59 1_555 1_555
C60 C58 1_555 1_555
H39 C60 1_555 1_555
C61 N2 1_555 1_555
H40 C61 1_555 1_555
C62 H41 1_555 1_555
C63 N3 1_555 1_555
H42 C63 1_555 1_555
C64 C63 1_555 1_555
H43 C64 1_555 1_555
C65 C62 1_555 1_555
H44 C65 1_555 1_555
C66 C64 1_555 1_555
C67 C66 1_555 1_555
H45 C67 1_555 1_555
H46 C67 1_555 1_555
C68 C67 1_555 1_555
H47 C68 1_555 1_555
H48 C68 1_555 1_555
C69 C68 1_555 1_555
H49 C69 1_555 1_555
H50 C69 1_555 1_555
C70 C69 1_555 1_555
C71 C70 1_555 1_555
H51 C71 1_555 1_555
C72 C70 1_555 1_555
H52 C72 1_555 1_555
C73 C72 1_555 1_555
H53 C73 1_555 1_555
C74 N4 1_555 1_555
H54 C74 1_555 1_555
O19 H55 1_555 1_555
H56 O19 1_555 1_555
O20 H57 1_555 1_555
H58 O20 1_555 1_555
O21 H59 1_555 1_555
H60 O21 1_555 1_555
O22 H61 1_555 1_555
H62 O22 1_555 1_555
O23 H63 1_555 1_555
H64 O23 1_555 1_555
O24 H65 1_555 1_555
H66 O24 1_555 1_555
Cd1A O1A 1_555 1_555
Cd3A O6 1_555 1_555
Cd5A O18 1_555 1_555
Cd6A O9 1_555 1_555
N1A Cd6A 1_555 1_555
N2A C60A 1_555 1_555
N3A Cd5A 1_555 1_555
N4A C73A 1_555 1_555
O1A C1A 1_555 1_555
O2A Cd6A 1_555 1_555
O3A Cd4 1_555 1_555
O4A Cd3A 1_555 1_555
O5A Cd5A 1_555 1_555
O6A Cd3 1_555 1_555
O7A C14A 1_555 1_555
O8A C14A 1_555 1_555
O9A Cd6 1_555 1_555
O10A Cd6 1_555 1_555
O11A Cd4 1_555 1_555
O12A Cd5A 1_555 1_555
O13A Cd5A 1_555 1_555
O14A Cd1A 1_555 1_555
O15A Cd1A 1_555 1_555
O16A C38A 1_555 1_555
O17A Cd1A 1_555 1_555
H1A O17A 1_555 1_555
O18A Cd4 1_555 1_555
H2A O18A 1_555 1_555
C1A O2A 1_555 1_555
C2A O3A 1_555 1_555
C3A C1A 1_555 1_555
C4A C3A 1_555 1_555
C5A C4A 1_555 1_555
H3A C5A 1_555 1_555
C6A C5A 1_555 1_555
H4A C6A 1_555 1_555
C7A C6A 1_555 1_555
H5A C7A 1_555 1_555
C8A C7A 1_555 1_555
H6A C8A 1_555 1_555
C9A C4A 1_555 1_555
C10A C9A 1_555 1_555
H7A C10A 1_555 1_555
C11A C10A 1_555 1_555
H8A C11A 1_555 1_555
C12A C2A 1_555 1_555
C13A O5A 1_555 1_555
C14A C24A 1_555 1_555
C15A C13A 1_555 1_555
C16A C15A 1_555 1_555
C17A C16A 1_555 1_555
H9A C17A 1_555 1_555
C18A C17A 1_555 1_555
H10A C18A 1_555 1_555
C19A C18A 1_555 1_555
H11A C19A 1_555 1_555
C20A C19A 1_555 1_555
H12A C20A 1_555 1_555
C21A C16A 1_555 1_555
C22A C21A 1_555 1_555
H13A C22A 1_555 1_555
C23A C22A 1_555 1_555
H14A C23A 1_555 1_555
C24A C15A 1_555 1_555
C25A O9A 1_555 1_555
C26A O11A 1_555 1_555
C27A C25A 1_555 1_555
C28A C27A 1_555 1_555
C29A C28A 1_555 1_555
H15A C29A 1_555 1_555
C30A C29A 1_555 1_555
H16A C30A 1_555 1_555
C31A C30A 1_555 1_555
H17A C31A 1_555 1_555
C32A C31A 1_555 1_555
H18A C32A 1_555 1_555
C33A C28A 1_555 1_555
C34A C33A 1_555 1_555
H19A C34A 1_555 1_555
C35A C34A 1_555 1_555
H20A C35A 1_555 1_555
C36A C26A 1_555 1_555
C37A O13A 1_555 1_555
C38A O15A 1_555 1_555
C39A C37A 1_555 1_555
C40A C39A 1_555 1_555
C41A C40A 1_555 1_555
H21A C41A 1_555 1_555
C42A C41A 1_555 1_555
H22A C42A 1_555 1_555
C43A C42A 1_555 1_555
H23A C43A 1_555 1_555
C44A C43A 1_555 1_555
H24A C44A 1_555 1_555
C45A C40A 1_555 1_555
C46A C45A 1_555 1_555
H25A C46A 1_555 1_555
C47A C46A 1_555 1_555
H26A C47A 1_555 1_555
C48A C38A 1_555 1_555
C49A N1A 1_555 1_555
H27A C49A 1_555 1_555
C50A N1A 1_555 1_555
H28A C50A 1_555 1_555
C51A C50A 1_555 1_555
H29A C51A 1_555 1_555
C52A C49A 1_555 1_555
H30A C52A 1_555 1_555
C53A C51A 1_555 1_555
C54A C53A 1_555 1_555
H31A C54A 1_555 1_555
H32A C54A 1_555 1_555
C55A C54A 1_555 1_555
H33A C55A 1_555 1_555
H34A C55A 1_555 1_555
C56A C55A 1_555 1_555
H35A C56A 1_555 1_555
H36A C56A 1_555 1_555
C57A C56A 1_555 1_555
C58A C57A 1_555 1_555
H37A C58A 1_555 1_555
C59A C57A 1_555 1_555
H38A C59A 1_555 1_555
C60A C58A 1_555 1_555
H39A C60A 1_555 1_555
C61A N2A 1_555 1_555
H40A C61A 1_555 1_555
C62A N3A 1_555 1_555
H41A C62A 1_555 1_555
C63A N3A 1_555 1_555
H42A C63A 1_555 1_555
C64A C63A 1_555 1_555
H43A C64A 1_555 1_555
C65A C62A 1_555 1_555
H44A C65A 1_555 1_555
C66A C64A 1_555 1_555
C67A C66A 1_555 1_555
H45A C67A 1_555 1_555
H46A C67A 1_555 1_555
C68A C67A 1_555 1_555
H47A C68A 1_555 1_555
H48A C68A 1_555 1_555
C69A C68A 1_555 1_555
H49A C69A 1_555 1_555
H50A C69A 1_555 1_555
C70A C69A 1_555 1_555
C71A C70A 1_555 1_555
H51A C71A 1_555 1_555
C72A C70A 1_555 1_555
H52A C72A 1_555 1_555
C73A C72A 1_555 1_555
H53A C73A 1_555 1_555
C74A N4A 1_555 1_555
H54A C74A 1_555 1_555
Cd1_2 N2A 1_555 1_555
Cd1_3 O8A 1_555 1_555
Cd1A_2 O8 1_555 1_555
Cd1A_3 N2 1_555 1_555
Cd2_2 O7A 1_555 1_555
Cd3_2 N4 1_555 1_555
Cd3A_2 N4A 1_555 1_555
Cd6_2 O16A 1_555 1_555
Cd6A_2 O16 1_555 1_555
N2_2 Cd1A 1_555 1_555
N2A_2 Cd1 1_555 1_555
N4_2 Cd3 1_555 1_555
N4A_2 Cd3A 1_555 1_555
O7A_2 Cd2 1_555 1_555
O8_2 Cd1A 1_555 1_555
O8A_2 Cd1 1_555 1_555
O15A_2 Cd2 1_555 1_555
O16_2 Cd6A 1_555 1_555
O16A_2 Cd6 1_555 1_555
O17A_2 Cd2 1_555 1_555
Cd2 O15 1_555 1_555
Cd2 O17 1_555 1_555
Cd4 O11 1_555 1_555
Cd4 O18 1_555 1_555
Cd5 O14 1_555 1_555
Cd5 O18A 1_555 1_555
Cd6 O17 1_555 1_555
O10 Cd6A 1_555 1_555
O12 C26 1_555 1_555
O14 C37 1_555 1_555
C8 C9 1_555 1_555
C11 C12 1_555 1_555
C20 C21 1_555 1_555
C23 C24 1_555 1_555
C27 C36 1_555 1_555
C32 C33 1_555 1_555
C35 C36 1_555 1_555
C39 C48 1_555 1_555
C44 C45 1_555 1_555
C47 C48 1_555 1_555
C52 C53 1_555 1_555
C59 C61 1_555 1_555
C65 C66 1_555 1_555
C71 C74 1_555 1_555
Cd3A O10A 1_555 1_555
Cd3A O11A 1_555 1_555
Cd3A O18A 1_555 1_555
Cd5A O14A 1_555 1_555
Cd6A O17A 1_555 1_555
O4A C2A 1_555 1_555
O6A C13A 1_555 1_555
O10A C25A 1_555 1_555
O12A C26A 1_555 1_555
O14A C37A 1_555 1_555
O15A Cd2_2 1_555 1_555
O17A Cd2_2 1_555 1_555
C3A C12A 1_555 1_555
C8A C9A 1_555 1_555
C11A C12A 1_555 1_555
C20A C21A 1_555 1_555
C23A C24A 1_555 1_555
C27A C36A 1_555 1_555
C32A C33A 1_555 1_555
C35A C36A 1_555 1_555
C39A C48A 1_555 1_555
C44A C45A 1_555 1_555
C47A C48A 1_555 1_555
C52A C53A 1_555 1_555
C59A C61A 1_555 1_555
C65A C66A 1_555 1_555
C71A C74A 1_555 1_555
Cd1A_2 O15A_2 1_555 1_555
Cd1A_2 O17A_2 1_555 1_555
Cd6A_2 O17A_2 1_555 1_555

#END
