
#######################################################################
#
#                 Cambridge Crystallographic Data Centre
#                                CCDC 
#
#######################################################################
#
# If this CIF has been generated from an entry in the Cambridge 
# Structural Database, then it will include bibliographic, chemical, 
# crystal, experimental, refinement or atomic coordinate data resulting 
# from the CCDC's data processing and validation procedures.
#
#######################################################################

data_IGIWOM
_symmetry_cell_setting           monoclinic
_symmetry_space_group_name_H-M   'P 21/c'
_symmetry_Int_Tables_number      14
_space_group_name_Hall           '-P 2ybc'
loop_
_symmetry_equiv_pos_site_id
_symmetry_equiv_pos_as_xyz
1 x,y,z
2 -x,1/2+y,1/2-z
3 -x,-y,-z
4 x,1/2-y,1/2+z
_cell_length_a                   9.2037(9)
_cell_length_b                   11.0424(10)
_cell_length_c                   28.111(3)
_cell_angle_alpha                90
_cell_angle_beta                 95.745(2)
_cell_angle_gamma                90
_cell_volume                     2842.6
loop_
_atom_site_label
_atom_site_type_symbol
_atom_site_fract_x
_atom_site_fract_y
_atom_site_fract_z
Ag1 Ag 0.49242(5) 0.79843(4) 0.137409(16)
N1 N 0.6884(5) 0.6976(4) 0.12287(14)
C1 C 0.8429(6) 0.2066(5) 0.09041(17)
H1 H 0.7569 0.1793 0.0736
C2 C 0.7470(6) 0.7063(5) 0.0796(2)
C3 C 0.5475(6) 0.8695(4) 0.30814(19)
C4 C 0.5086(6) 0.7156(5) 0.3657(2)
C5 C 0.5312(6) 0.8023(5) 0.40159(18)
H2 H 0.5243 0.7801 0.4332
N2 N 0.8870(5) 0.5841(4) 0.12580(17)
O1 O 0.5497(5) 0.8140(3) 0.22690(13)
C6 C 1.0945(6) 0.2906(5) 0.13839(17)
H3 H 1.1815 0.3184 0.1543
O2 O 0.4908(5) 0.5557(3) 0.42158(15)
O3 O 0.4335(5) 0.5145(3) 0.34535(13)
O4 O 0.5778(5) 1.0079(3) 0.24401(12)
C7 C 0.9821(6) 0.3707(4) 0.12778(18)
N3 N 1.0427(6) -0.0846(4) 0.11191(17)
C8 C 0.8719(6) 0.6357(5) 0.0809(2)
C9 C 0.5163(6) 0.7507(5) 0.31898(19)
H4 H 0.5004 0.6940 0.2945
C10 C 0.5640(6) 0.9226(5) 0.3909(2)
C11 C 1.1662(6) -0.1855(5) 0.1712(2)
C12 C 1.0048(6) 0.5020(4) 0.1437(2)
H5 H 1.0149 0.5047 0.1784
H6 H 1.0956 0.5311 0.1331
C13 C 0.5712(6) 0.9554(5) 0.3440(2)
H7 H 0.5920 1.0351 0.3364
C14 C 1.1735(7) -0.1244(5) 0.0981(2)
C15 C 0.9538(6) 0.1265(4) 0.10183(19)
C16 C 1.0817(6) 0.1697(4) 0.12598(19)
H8 H 1.1593 0.1171 0.1339
C17 C 1.0390(7) -0.1230(5) 0.1585(2)
C18 C 0.7749(6) 0.6239(5) 0.1493(2)
C19 C 0.7836(8) 0.7641(5) 0.0004(2)
H9 H 0.7553 0.8083 -0.0271
C20 C 0.4760(7) 0.5855(5) 0.3790(2)
C21 C 0.7018(7) 0.7728(5) 0.0388(2)
H10 H 0.6191 0.8216 0.0374
C22 C 0.5577(6) 0.8953(5) 0.2562(2)
C23 C 0.7552(6) 0.5850(5) 0.19883(19)
H11 H 0.6730 0.6266 0.2097
H12 H 0.8415 0.6041 0.2195
H13 H 0.7383 0.4993 0.1993
C24 C 0.5944(7) 1.0139(5) 0.43200(18)
H14 H 0.6479 1.0814 0.4212
H15 H 0.6506 0.9754 0.4584
H16 H 0.5035 1.0418 0.4420
C25 C 1.1975(7) -0.2391(5) 0.2158(2)
H17 H 1.2839 -0.2812 0.2239
C26 C 0.9330(7) -0.0055(5) 0.0871(2)
H18 H 0.8367 -0.0320 0.0938
H19 H 0.9382 -0.0124 0.0529
C27 C 0.9064(8) 0.6915(6) 0.0017(2)
H20 H 0.9574 0.6865 -0.0252
C28 C 0.8555(6) 0.3281(4) 0.10334(19)
H21 H 0.7779 0.3807 0.0954
C29 C 0.9343(7) -0.1096(5) 0.1908(3)
H22 H 0.8479 -0.0672 0.1829
C30 C 1.0932(8) -0.2261(6) 0.2472(2)
H23 H 1.1084 -0.2609 0.2774
C31 C 0.9551(7) 0.6256(5) 0.0425(2)
H24 H 1.0386 0.5778 0.0440
C32 C 0.9652(8) -0.1618(6) 0.2344(3)
H25 H 0.8977 -0.1541 0.2567
C33 C 1.2155(7) -0.1007(5) 0.0492(2)
H26 H 1.3084 -0.1375 0.0458
H27 H 1.2221 -0.0149 0.0443
H28 H 1.1431 -0.1343 0.0260
N4 N 1.2504(5) -0.1836(4) 0.13359(16)
H29 H 0.5734 1.0039 0.2026
Ag1_2 Ag 1.49242(5) -0.20157(4) 0.137409(16)
Ag1A Ag 0.50758(5) 0.29843(4) 0.362591(16)
O3A O 0.5665(5) 1.0145(3) 0.15465(13)
N4_2 N 0.2504(5) 0.8164(4) 0.13359(16)
loop_
_geom_bond_atom_site_label_1
_geom_bond_atom_site_label_2
_geom_bond_site_symmetry_1
_geom_bond_site_symmetry_2
Ag1 N1 1_555 1_555
N1 C2 1_555 1_555
C1 H1 1_555 1_555
C2 C8 1_555 1_555
C3 C9 1_555 1_555
C4 C5 1_555 1_555
C5 H2 1_555 1_555
N2 C8 1_555 1_555
O1 Ag1 1_555 1_555
C6 H3 1_555 1_555
O2 C20 1_555 1_555
O3 C20 1_555 1_555
O4 C22 1_555 1_555
C7 C6 1_555 1_555
N3 C14 1_555 1_555
C8 C31 1_555 1_555
C9 C4 1_555 1_555
H4 C9 1_555 1_555
C10 C5 1_555 1_555
C11 C17 1_555 1_555
C12 N2 1_555 1_555
H5 C12 1_555 1_555
H6 C12 1_555 1_555
C13 C3 1_555 1_555
H7 C13 1_555 1_555
C14 C33 1_555 1_555
C15 C1 1_555 1_555
C16 C6 1_555 1_555
H8 C16 1_555 1_555
C17 N3 1_555 1_555
C18 N1 1_555 1_555
C19 H9 1_555 1_555
C20 C4 1_555 1_555
C21 C2 1_555 1_555
H10 C21 1_555 1_555
C22 C3 1_555 1_555
C23 C18 1_555 1_555
H11 C23 1_555 1_555
H12 C23 1_555 1_555
H13 C23 1_555 1_555
C24 C10 1_555 1_555
H14 C24 1_555 1_555
H15 C24 1_555 1_555
H16 C24 1_555 1_555
C25 C11 1_555 1_555
H17 C25 1_555 1_555
C26 N3 1_555 1_555
H18 C26 1_555 1_555
H19 C26 1_555 1_555
C27 C19 1_555 1_555
H20 C27 1_555 1_555
C28 C1 1_555 1_555
H21 C28 1_555 1_555
C29 C17 1_555 1_555
H22 C29 1_555 1_555
C30 C25 1_555 1_555
H23 C30 1_555 1_555
C31 C27 1_555 1_555
H24 C31 1_555 1_555
C32 C29 1_555 1_555
H25 C32 1_555 1_555
C33 H26 1_555 1_555
H27 C33 1_555 1_555
H28 C33 1_555 1_555
N4 C11 1_555 1_555
H29 O4 1_555 1_555
Ag1_2 N4 1_555 1_555
Ag1A O3 1_555 1_555
O3A Ag1 1_555 1_555
N4_2 Ag1 1_555 1_555
N2 C18 1_555 1_555
O1 C22 1_555 1_555
C7 C12 1_555 1_555
C7 C28 1_555 1_555
C10 C13 1_555 1_555
C14 N4 1_555 1_555
C15 C16 1_555 1_555
C15 C26 1_555 1_555
C19 C21 1_555 1_555
C30 C32 1_555 1_555

#END
