
#######################################################################
#
#                 Cambridge Crystallographic Data Centre
#                                CCDC 
#
#######################################################################
#
# If this CIF has been generated from an entry in the Cambridge 
# Structural Database, then it will include bibliographic, chemical, 
# crystal, experimental, refinement or atomic coordinate data resulting 
# from the CCDC's data processing and validation procedures.
#
#######################################################################

data_IGIWUS
_symmetry_cell_setting           monoclinic
_symmetry_space_group_name_H-M   'C 2/c'
_symmetry_Int_Tables_number      15
_space_group_name_Hall           '-C 2yn'
loop_
_symmetry_equiv_pos_site_id
_symmetry_equiv_pos_as_xyz
1 x,y,z
2 -x,y,1/2-z
3 1/2+x,1/2+y,z
4 1/2-x,1/2+y,1/2-z
5 -x,-y,-z
6 x,-y,1/2+z
7 1/2-x,1/2-y,-z
8 1/2+x,1/2-y,1/2+z
_cell_length_a                   9.2076(7)
_cell_length_b                   23.1198(18)
_cell_length_c                   14.5006(11)
_cell_angle_alpha                90
_cell_angle_beta                 96.3680(10)
_cell_angle_gamma                90
_cell_volume                     3067.81
loop_
_atom_site_label
_atom_site_type_symbol
_atom_site_fract_x
_atom_site_fract_y
_atom_site_fract_z
Ag1 Ag 0.11019(2) 0.379584(9) 0.328808(15)
N1 N 0.3046(2) 0.20942(9) 0.39332(13)
C1 C 0.4475(3) 0.30186(13) 0.3829(2)
H1 H 0.4244 0.3406 0.3626
H2 H 0.5096 0.2842 0.3420
H3 H 0.4969 0.3027 0.4448
N2 N 0.1788(2) 0.29086(9) 0.36985(14)
C2 C 0.3100(3) 0.26771(11) 0.38201(15)
C3 C 0.5000 0.16578(14) 0.2500
H4 H 0.5000 0.2060 0.2500
O1 O -0.0551(2) 0.43030(10) 0.39283(15)
C4 C 0.0806(3) 0.24563(11) 0.37329(15)
C5 C 0.1585(3) 0.19389(11) 0.38655(15)
C6 C 0.4623(2) 0.13646(11) 0.32728(16)
C7 C -0.6828(3) 0.48865(13) 0.4337(2)
H5 H -0.7229 0.4722 0.3781
C8 C 0.4267(3) 0.16905(12) 0.41205(16)
H6 H 0.4033 0.1415 0.4586
H7 H 0.5126 0.1904 0.4375
C9 C -0.2877(3) 0.46050(11) 0.42289(19)
C10 C -0.4343(3) 0.46163(12) 0.39843(19)
H8 H -0.4729 0.4452 0.3424
C11 C -0.1868(3) 0.43117(11) 0.36168(19)
C12 C -0.7718(3) 0.51362(13) 0.4920(2)
H9 H -0.8724 0.5137 0.4758
C13 C 0.0896(4) 0.14049(13) 0.3907(2)
H10 H 0.1421 0.1062 0.3991
C14 C -0.0613(4) 0.14143(16) 0.3817(2)
H11 H -0.1120 0.1067 0.3839
C15 C -0.0714(3) 0.24562(15) 0.36468(19)
H12 H -0.1248 0.2797 0.3561
C16 C -0.1394(3) 0.19273(17) 0.3695(2)
H13 H -0.2409 0.1914 0.3643
C17 C 0.4610(3) 0.07670(12) 0.3261(2)
H14 H 0.4337 0.0564 0.3767
C18 C -0.5313(3) 0.48786(11) 0.45791(17)
C19 C 0.5000 0.04700(18) 0.2500
H15 H 0.5000 0.0068 0.2500
O2 O -0.2411(2) 0.41068(12) 0.28583(16)
N1A N 0.6954(2) 0.20942(9) 0.10668(13)
C1A C 0.5525(3) 0.30186(13) 0.1171(2)
H1A H 0.5756 0.3406 0.1374
H2A H 0.4904 0.2842 0.1580
H3A H 0.5031 0.3027 0.0552
N2A N 0.8212(2) 0.29086(9) 0.13015(14)
C2A C 0.6900(3) 0.26771(11) 0.11799(15)
C4A C 0.9194(3) 0.24563(11) 0.12671(15)
C5A C 0.8415(3) 0.19389(11) 0.11345(15)
C6A C 0.5377(2) 0.13646(11) 0.17272(16)
C8A C 0.5733(3) 0.16905(12) 0.08795(16)
H6A H 0.5967 0.1415 0.0414
H7A H 0.4874 0.1904 0.0625
C13A C 0.9104(4) 0.14049(13) 0.1093(2)
H10A H 0.8579 0.1062 0.1009
C14A C 1.0613(4) 0.14143(16) 0.1183(2)
H11A H 1.1120 0.1067 0.1161
C15A C 1.0714(3) 0.24562(15) 0.13532(19)
H12A H 1.1248 0.2797 0.1439
C16A C 1.1394(3) 0.19273(17) 0.1305(2)
H13A H 1.2409 0.1914 0.1357
C17A C 0.5390(3) 0.07670(12) 0.1739(2)
H14A H 0.5663 0.0564 0.1233
O1D O -0.9449(2) 0.56970(10) 0.60717(15)
C7D C -0.3172(3) 0.51135(13) 0.5663(2)
H5D H -0.2771 0.5278 0.6219
C9D C -0.7123(3) 0.53950(11) 0.57711(19)
C10D C -0.5657(3) 0.53837(12) 0.60157(19)
H8D H -0.5271 0.5548 0.6576
C11D C -0.8132(3) 0.56883(11) 0.63832(19)
C12D C -0.2282(3) 0.48638(13) 0.5080(2)
H9D H -0.1276 0.4863 0.5242
C18D C -0.4687(3) 0.51214(11) 0.54209(17)
O2D O -0.7589(2) 0.58932(12) 0.71417(16)
Ag1A Ag -0.11019(2) 0.379584(9) 0.171192(15)
Ag1A_2 Ag 0.88981(2) 0.379584(9) 0.171192(15)
Ag1D Ag -1.11019(2) 0.620416(9) 0.671192(15)
Ag1E Ag -0.88981(2) 0.620416(9) 0.828808(15)
N2A_2 N -0.1788(2) 0.29086(9) 0.13015(14)
O1A O 0.0551(2) 0.43030(10) 0.10717(15)
O2A O 0.2411(2) 0.41068(12) 0.21417(16)
loop_
_geom_bond_atom_site_label_1
_geom_bond_atom_site_label_2
_geom_bond_site_symmetry_1
_geom_bond_site_symmetry_2
Ag1 N2 1_555 1_555
N1 C2 1_555 1_555
C1 H1 1_555 1_555
H2 C1 1_555 1_555
H3 C1 1_555 1_555
N2 C2 1_555 1_555
C2 C1 1_555 1_555
C3 H4 1_555 1_555
O1 Ag1 1_555 1_555
C4 N2 1_555 1_555
C5 N1 1_555 1_555
C6 C3 1_555 1_555
C7 H5 1_555 1_555
C8 N1 1_555 1_555
H6 C8 1_555 1_555
H7 C8 1_555 1_555
C9 C10 1_555 1_555
C10 H8 1_555 1_555
C11 O1 1_555 1_555
C12 C7 1_555 1_555
H9 C12 1_555 1_555
C13 C5 1_555 1_555
H10 C13 1_555 1_555
C14 C13 1_555 1_555
H11 C14 1_555 1_555
C15 C4 1_555 1_555
H12 C15 1_555 1_555
C16 C14 1_555 1_555
H13 C16 1_555 1_555
C17 C6 1_555 1_555
H14 C17 1_555 1_555
C18 C7 1_555 1_555
C19 C17 1_555 1_555
H15 C19 1_555 1_555
O2 C11 1_555 1_555
N1A C2A 1_555 1_555
C1A H1A 1_555 1_555
H2A C1A 1_555 1_555
H3A C1A 1_555 1_555
N2A C2A 1_555 1_555
C2A C1A 1_555 1_555
C4A N2A 1_555 1_555
C5A N1A 1_555 1_555
C6A C3 1_555 1_555
C8A N1A 1_555 1_555
H6A C8A 1_555 1_555
H7A C8A 1_555 1_555
C13A C5A 1_555 1_555
H10A C13A 1_555 1_555
C14A C13A 1_555 1_555
H11A C14A 1_555 1_555
C15A C4A 1_555 1_555
H12A C15A 1_555 1_555
C16A C14A 1_555 1_555
H13A C16A 1_555 1_555
C17A C19 1_555 1_555
H14A C17A 1_555 1_555
O1D C11D 1_555 1_555
C7D H5D 1_555 1_555
C9D C12 1_555 1_555
C10D C9D 1_555 1_555
H8D C10D 1_555 1_555
C11D C9D 1_555 1_555
C12D C9 1_555 1_555
H9D C12D 1_555 1_555
C18D C18 1_555 1_555
O2D C11D 1_555 1_555
Ag1A Ag1 1_555 1_555
Ag1A_2 N2A 1_555 1_555
Ag1D O1D 1_555 1_555
Ag1E O2D 1_555 1_555
N2A_2 Ag1A 1_555 1_555
O1A Ag1A 1_555 1_555
O2A Ag1 1_555 1_555
C4 C5 1_555 1_555
C6 C8 1_555 1_555
C9 C11 1_555 1_555
C10 C18 1_555 1_555
C15 C16 1_555 1_555
O2 Ag1A 1_555 1_555
C4A C5A 1_555 1_555
C6A C8A 1_555 1_555
C6A C17A 1_555 1_555
C15A C16A 1_555 1_555
C7D C12D 1_555 1_555
C7D C18D 1_555 1_555
C10D C18D 1_555 1_555
Ag1D Ag1E 1_555 1_555

#END
