
#######################################################################
#
#                 Cambridge Crystallographic Data Centre
#                                CCDC 
#
#######################################################################
#
# If this CIF has been generated from an entry in the Cambridge 
# Structural Database, then it will include bibliographic, chemical, 
# crystal, experimental, refinement or atomic coordinate data resulting 
# from the CCDC's data processing and validation procedures.
#
#######################################################################

data_IGIXED
_symmetry_cell_setting           monoclinic
_symmetry_space_group_name_H-M   'P 21/c'
_symmetry_Int_Tables_number      14
_space_group_name_Hall           '-P 2ybc'
loop_
_symmetry_equiv_pos_site_id
_symmetry_equiv_pos_as_xyz
1 x,y,z
2 -x,1/2+y,1/2-z
3 -x,-y,-z
4 x,1/2-y,1/2+z
_cell_length_a                   23.1941(10)
_cell_length_b                   13.4114(5)
_cell_length_c                   16.7226(6)
_cell_angle_alpha                90
_cell_angle_beta                 91.6148(10)
_cell_angle_gamma                90
_cell_volume                     5199.76
loop_
_atom_site_label
_atom_site_type_symbol
_atom_site_fract_x
_atom_site_fract_y
_atom_site_fract_z
Eu1 Eu 0.25055(2) 0.51636(2) 0.25765(2)
P1 P 0.10527(3) 0.45042(7) 0.31341(5)
P2 P 0.37721(3) 0.67923(6) 0.23285(5)
F1 F 0.17756(13) 0.8709(2) 0.28266(19)
F2 F 0.12176(15) 0.8777(2) 0.17995(17)
F3 F 0.09924(13) 0.7924(2) 0.2810(2)
F4 F 0.17553(14) 0.6996(2) -0.04146(15)
F5 F 0.25265(11) 0.6127(3) -0.03205(15)
F6 F 0.17069(13) 0.5443(2) -0.02919(16)
F7 F 0.42653(12) 0.3744(2) 0.1204(2)
F8 F 0.42911(13) 0.3300(4) 0.2424(2)
F9 F 0.41162(11) 0.2251(2) 0.1520(2)
F10 F 0.21301(18) 0.1487(4) 0.0946(3)
F11 F 0.1833(3) 0.1525(4) 0.2060(3)
F12 F 0.14662(18) 0.2355(3) 0.1265(4)
F13 F 0.3617(2) 0.2300(3) 0.3721(3)
F14 F 0.28408(18) 0.1982(3) 0.4232(5)
F15 F 0.35667(18) 0.2465(3) 0.4879(2)
F16 F 0.3521(2) 0.5859(5) 0.5668(3)
F17 F 0.2696(2) 0.6234(6) 0.5564(4)
F18 F 0.3272(4) 0.6915(4) 0.4940(3)
O1 O 0.31646(9) 0.64222(17) 0.23225(15)
O2 O 0.27911(10) 0.57239(18) 0.38813(14)
O3 O 0.32982(10) 0.43403(18) 0.19880(16)
O4 O 0.28107(11) 0.37616(19) 0.33883(16)
O5 O 0.21378(10) 0.36700(18) 0.19356(14)
O6 O 0.16636(10) 0.48253(17) 0.32562(15)
O7 O 0.22462(10) 0.55821(19) 0.12199(14)
O8 O 0.19248(10) 0.66750(17) 0.25604(15)
C1 C 0.33751(15) 0.3448(3) 0.1798(2)
C2 C 0.29662(16) 0.2714(3) 0.1656(2)
C3 C 0.23792(16) 0.2900(3) 0.1712(2)
C4 C 0.40182(19) 0.3182(4) 0.1737(3)
C5 C 0.1974(2) 0.2056(4) 0.1460(4)
C6 C 0.46238(18) 0.6108(3) -0.0026(3)
C7 C 0.49725(16) 0.6321(3) 0.0619(3)
C8 C 0.47294(14) 0.6529(3) 0.1364(2)
C9 C 0.41258(14) 0.6504(2) 0.1418(2)
C10 C 0.37827(16) 0.6273(3) 0.0758(2)
C11 C 0.40314(18) 0.6072(3) 0.0024(2)
C12 C 0.20123(14) 0.6310(3) 0.0865(2)
C13 C 0.17582(15) 0.7137(3) 0.1212(2)
C14 C 0.17376(14) 0.7252(3) 0.2038(2)
C15 C 0.20081(17) 0.6229(3) -0.0050(2)
C16 C 0.14271(18) 0.8172(3) 0.2363(3)
C17 C 0.30433(17) 0.3641(3) 0.4057(2)
C18 C 0.31594(18) 0.4371(3) 0.4636(2)
C19 C 0.30099(17) 0.5344(3) 0.4501(2)
C20 C 0.41944(15) 0.6264(3) 0.3095(2)
C21 C 0.44434(15) 0.5891(3) 0.3654(2)
C22 C 0.08388(16) 0.5948(3) 0.4249(2)
C23 C 0.04799(18) 0.6523(3) 0.4712(3)
C24 C -0.01137(18) 0.6422(3) 0.4661(3)
C25 C 0.05897(14) 0.5255(2) 0.3733(2)
C26 C -0.00088(15) 0.5143(3) 0.3672(3)
C27 C -0.03585(16) 0.5734(3) 0.4139(3)
C28 C 0.13384(19) 0.1773(3) 0.4070(3)
C29 C 0.13666(16) 0.2791(3) 0.3890(3)
C30 C 0.09697(14) 0.3204(3) 0.3348(2)
C31 C 0.09153(19) 0.1201(3) 0.3706(3)
C32 C 0.05415(18) 0.2630(3) 0.2997(3)
C33 C 0.0515(2) 0.1612(3) 0.3174(3)
C34 C 0.3764(2) 1.0149(3) 0.2743(3)
C35 C 0.4258(2) 0.9698(3) 0.2502(4)
C36 C 0.42674(19) 0.8678(3) 0.2377(3)
C37 C 0.37837(14) 0.8113(2) 0.2497(2)
C38 C 0.32877(17) 0.8572(3) 0.2754(3)
C39 C 0.3281(2) 0.9592(3) 0.2880(3)
C40 C 0.05702(15) 0.4746(3) 0.1503(2)
C41 C 0.07820(15) 0.4640(3) 0.2154(2)
C42 C 0.02899(16) 0.4865(3) 0.0731(2)
C43 C 0.03784(15) 0.5734(3) 0.0283(2)
C44 C -0.00900(16) 0.4143(3) 0.0440(2)
C45 C 0.3116(3) 0.6059(5) 0.5192(4)
C46 C 0.3205(3) 0.2538(4) 0.4226(3)
C47 C 0.47660(17) 0.4402(3) 0.4401(2)
C48 C 0.47328(15) 0.5442(3) 0.4331(2)
C49 C 0.49653(17) 0.6032(3) 0.4939(2)
H1 H 0.30902 0.2063 0.15162
H2 H 0.47934 0.59808 -0.05262
H3 H 0.53895 0.62369 0.05419
H4 H 0.49549 0.66465 0.17926
H5 H 0.33754 0.62508 0.08024
H6 H 0.37966 0.59125 -0.0433
H7 H 0.15939 0.76387 0.08755
H8 H 0.33445 0.41884 0.51281
H9 H 0.12283 0.60163 0.42843
H10 H 0.06456 0.69977 0.50727
H11 H -0.03361 0.6822 0.50132
H12 H -0.01752 0.46661 0.33139
H13 H -0.07659 0.5665 0.40986
H14 H 0.16081 0.14814 0.44389
H15 H 0.16556 0.31979 0.41382
H16 H 0.08976 0.05082 0.38218
H17 H 0.02726 0.28842 0.26103
H18 H 0.02002 0.11813 0.28795
H19 H 0.37547 1.08514 0.28146
H20 H 0.4595 1.00841 0.24208
H21 H 0.46108 0.83662 0.22075
H22 H 0.29517 0.81872 0.28425
H23 H 0.29414 0.99062 0.30627
H24 H 0.06361 0.6234 0.04785
H25 H -0.01515 0.35559 0.07439
H26 H 0.46025 0.39926 0.39903
H27 H 0.494 0.67375 0.49008
P1B P -0.10527(3) 0.54958(7) -0.31341(5)
O6B O -0.16636(10) 0.51747(17) -0.32562(15)
C22B C -0.08388(16) 0.4052(3) -0.4249(2)
C23B C -0.04799(18) 0.3477(3) -0.4712(3)
C24B C 0.01137(18) 0.3578(3) -0.4661(3)
C25B C -0.05897(14) 0.4745(2) -0.3733(2)
C26B C 0.00088(15) 0.4857(3) -0.3672(3)
C27B C 0.03585(16) 0.4266(3) -0.4139(3)
C28B C -0.13384(19) 0.8227(3) -0.4070(3)
C29B C -0.13666(16) 0.7209(3) -0.3890(3)
C30B C -0.09697(14) 0.6796(3) -0.3348(2)
C31B C -0.09153(19) 0.8799(3) -0.3706(3)
C32B C -0.05415(18) 0.7370(3) -0.2997(3)
C33B C -0.0515(2) 0.8388(3) -0.3174(3)
C40B C -0.05702(15) 0.5254(3) -0.1503(2)
C41B C -0.07820(15) 0.5360(3) -0.2154(2)
C42B C -0.02899(16) 0.5135(3) -0.0731(2)
C43B C -0.03784(15) 0.4266(3) -0.0283(2)
C44B C 0.00900(16) 0.5857(3) -0.0440(2)
H9B H -0.12283 0.39837 -0.42843
H10B H -0.06456 0.30023 -0.50727
H11B H 0.03361 0.3178 -0.50132
H12B H 0.01752 0.53339 -0.33139
H13B H 0.07659 0.4335 -0.40986
H14B H -0.16081 0.85186 -0.44389
H15B H -0.16556 0.68021 -0.41382
H16B H -0.08976 0.94918 -0.38218
H17B H -0.02726 0.71158 -0.26103
H18B H -0.02002 0.88187 -0.28795
H24B H -0.06361 0.3766 -0.04785
H25B H 0.01515 0.64441 -0.07439
P2B P 0.62279(3) 0.32077(6) 0.76715(5)
O1B O 0.68354(9) 0.35778(17) 0.76775(15)
C6B C 0.53762(18) 0.3892(3) 1.0026(3)
C7B C 0.50275(16) 0.3679(3) 0.9381(3)
C8B C 0.52706(14) 0.3471(3) 0.8636(2)
C9B C 0.58742(14) 0.3496(2) 0.8582(2)
C10B C 0.62173(16) 0.3727(3) 0.9242(2)
C11B C 0.59686(18) 0.3928(3) 0.9976(2)
C20B C 0.58056(15) 0.3736(3) 0.6905(2)
C21B C 0.55566(15) 0.4109(3) 0.6346(2)
C34B C 0.6236(2) -0.0149(3) 0.7257(3)
C35B C 0.5742(2) 0.0302(3) 0.7498(4)
C36B C 0.57326(19) 0.1322(3) 0.7623(3)
C37B C 0.62163(14) 0.1887(2) 0.7503(2)
C38B C 0.67123(17) 0.1428(3) 0.7246(3)
C39B C 0.6719(2) 0.0408(3) 0.7120(3)
C47B C 0.52340(17) 0.5598(3) 0.5599(2)
C48B C 0.52672(15) 0.4558(3) 0.5669(2)
C49B C 0.50347(17) 0.3968(3) 0.5061(2)
H2B H 0.52066 0.40192 1.05262
H3B H 0.46105 0.37631 0.94581
H4B H 0.50451 0.33535 0.82074
H5B H 0.66246 0.37492 0.91976
H6B H 0.62034 0.40875 1.0433
H19B H 0.62453 -0.08514 0.71854
H20B H 0.5405 -0.00841 0.75792
H21B H 0.53892 0.16338 0.77925
H22B H 0.70483 0.18128 0.71575
H23B H 0.70586 0.00938 0.69373
H26B H 0.53975 0.60074 0.60097
H27B H 0.506 0.32625 0.50992
Eu1B Eu -0.25055(2) 0.48364(2) -0.25765(2)
F1B F -0.17756(13) 0.1291(2) -0.28266(19)
F2B F -0.12176(15) 0.1223(2) -0.17995(17)
F3B F -0.09924(13) 0.2076(2) -0.2810(2)
F4B F -0.17553(14) 0.3004(2) 0.04146(15)
F5B F -0.25265(11) 0.3873(3) 0.03205(15)
F6B F -0.17069(13) 0.4557(2) 0.02919(16)
F7B F -0.42653(12) 0.6256(2) -0.1204(2)
F8B F -0.42911(13) 0.6700(4) -0.2424(2)
F9B F -0.41162(11) 0.7749(2) -0.1520(2)
F10B F -0.21301(18) 0.8513(4) -0.0946(3)
F11B F -0.1833(3) 0.8475(4) -0.2060(3)
F12B F -0.14662(18) 0.7645(3) -0.1265(4)
F13B F -0.3617(2) 0.7700(3) -0.3721(3)
F14B F -0.28408(18) 0.8018(3) -0.4232(5)
F15B F -0.35667(18) 0.7535(3) -0.4879(2)
F16B F -0.3521(2) 0.4141(5) -0.5668(3)
F17B F -0.2696(2) 0.3766(6) -0.5564(4)
F18B F -0.3272(4) 0.3085(4) -0.4940(3)
O2B O -0.27911(10) 0.42761(18) -0.38813(14)
O3B O -0.32982(10) 0.56597(18) -0.19880(16)
O4B O -0.28107(11) 0.62384(19) -0.33883(16)
O5B O -0.21378(10) 0.63300(18) -0.19356(14)
O7B O -0.22462(10) 0.44179(19) -0.12199(14)
O8B O -0.19248(10) 0.33250(17) -0.25604(15)
C1B C -0.33751(15) 0.6552(3) -0.1798(2)
C2B C -0.29662(16) 0.7286(3) -0.1656(2)
C3B C -0.23792(16) 0.7100(3) -0.1712(2)
C4B C -0.40182(19) 0.6818(4) -0.1737(3)
C5B C -0.1974(2) 0.7944(4) -0.1460(4)
C12B C -0.20123(14) 0.3690(3) -0.0865(2)
C13B C -0.17582(15) 0.2863(3) -0.1212(2)
C14B C -0.17376(14) 0.2748(3) -0.2038(2)
C15B C -0.20081(17) 0.3771(3) 0.0050(2)
C16B C -0.14271(18) 0.1828(3) -0.2363(3)
C17B C -0.30433(17) 0.6359(3) -0.4057(2)
C18B C -0.31594(18) 0.5629(3) -0.4636(2)
C19B C -0.30099(17) 0.4656(3) -0.4501(2)
C45B C -0.3116(3) 0.3941(5) -0.5192(4)
C46B C -0.3205(3) 0.7462(4) -0.4226(3)
H1B H -0.30902 0.7937 -0.15162
H7B H -0.15939 0.23613 -0.08755
H8B H -0.33445 0.58116 -0.51281
Eu1B_2 Eu 0.74945(2) 0.48364(2) 0.74235(2)
O1B_2 O -0.31646(9) 0.35778(17) -0.23225(15)
loop_
_geom_bond_atom_site_label_1
_geom_bond_atom_site_label_2
_geom_bond_site_symmetry_1
_geom_bond_site_symmetry_2
Eu1 O1 1_555 1_555
P1 O6 1_555 1_555
P2 O1 1_555 1_555
F1 C16 1_555 1_555
F2 C16 1_555 1_555
F3 C16 1_555 1_555
F4 C15 1_555 1_555
F5 C15 1_555 1_555
F6 C15 1_555 1_555
F7 C4 1_555 1_555
F8 C4 1_555 1_555
F9 C4 1_555 1_555
F10 C5 1_555 1_555
F11 C5 1_555 1_555
F12 C5 1_555 1_555
F13 C46 1_555 1_555
F14 C46 1_555 1_555
F15 C46 1_555 1_555
F16 C45 1_555 1_555
F17 C45 1_555 1_555
F18 C45 1_555 1_555
O2 Eu1 1_555 1_555
O3 Eu1 1_555 1_555
O4 Eu1 1_555 1_555
O5 Eu1 1_555 1_555
O6 Eu1 1_555 1_555
O7 Eu1 1_555 1_555
O8 Eu1 1_555 1_555
C1 O3 1_555 1_555
C2 C1 1_555 1_555
C3 O5 1_555 1_555
C4 C1 1_555 1_555
C5 C3 1_555 1_555
C6 C7 1_555 1_555
C7 C8 1_555 1_555
C8 C9 1_555 1_555
C9 P2 1_555 1_555
C10 C9 1_555 1_555
C11 C6 1_555 1_555
C12 O7 1_555 1_555
C13 C12 1_555 1_555
C14 O8 1_555 1_555
C15 C12 1_555 1_555
C16 C14 1_555 1_555
C17 O4 1_555 1_555
C18 C17 1_555 1_555
C19 O2 1_555 1_555
C20 P2 1_555 1_555
C21 C20 1_555 1_555
C22 C23 1_555 1_555
C23 C24 1_555 1_555
C24 C27 1_555 1_555
C25 P1 1_555 1_555
C26 C25 1_555 1_555
C27 C26 1_555 1_555
C28 C29 1_555 1_555
C29 C30 1_555 1_555
C30 P1 1_555 1_555
C31 C28 1_555 1_555
C32 C30 1_555 1_555
C33 C31 1_555 1_555
C34 C35 1_555 1_555
C35 C36 1_555 1_555
C36 C37 1_555 1_555
C37 P2 1_555 1_555
C38 C37 1_555 1_555
C39 C34 1_555 1_555
C40 C41 1_555 1_555
C41 P1 1_555 1_555
C42 C40 1_555 1_555
C43 C42 1_555 1_555
C44 C42 1_555 1_555
C45 C19 1_555 1_555
C46 C17 1_555 1_555
C47 C48 1_555 1_555
C48 C21 1_555 1_555
C49 C48 1_555 1_555
H1 C2 1_555 1_555
H2 C6 1_555 1_555
H3 C7 1_555 1_555
H4 C8 1_555 1_555
H5 C10 1_555 1_555
H6 C11 1_555 1_555
H7 C13 1_555 1_555
H8 C18 1_555 1_555
H9 C22 1_555 1_555
H10 C23 1_555 1_555
H11 C24 1_555 1_555
H12 C26 1_555 1_555
H13 C27 1_555 1_555
H14 C28 1_555 1_555
H15 C29 1_555 1_555
H16 C31 1_555 1_555
H17 C32 1_555 1_555
H18 C33 1_555 1_555
H19 C34 1_555 1_555
H20 C35 1_555 1_555
H21 C36 1_555 1_555
H22 C38 1_555 1_555
H23 C39 1_555 1_555
H24 C43 1_555 1_555
H25 C44 1_555 1_555
H26 C47 1_555 1_555
H27 C49 1_555 1_555
P1B O6B 1_555 1_555
O6B Eu1B 1_555 1_555
C22B C23B 1_555 1_555
C23B C24B 1_555 1_555
C24B C27B 1_555 1_555
C25B P1B 1_555 1_555
C26B C25B 1_555 1_555
C27B C26B 1_555 1_555
C28B C29B 1_555 1_555
C29B C30B 1_555 1_555
C30B P1B 1_555 1_555
C31B C28B 1_555 1_555
C32B C30B 1_555 1_555
C33B C31B 1_555 1_555
C40B C41B 1_555 1_555
C41B P1B 1_555 1_555
C42B C40B 1_555 1_555
C43B C44 1_555 1_555
C44B C43 1_555 1_555
H9B C22B 1_555 1_555
H10B C23B 1_555 1_555
H11B C24B 1_555 1_555
H12B C26B 1_555 1_555
H13B C27B 1_555 1_555
H14B C28B 1_555 1_555
H15B C29B 1_555 1_555
H16B C31B 1_555 1_555
H17B C32B 1_555 1_555
H18B C33B 1_555 1_555
H24B C43B 1_555 1_555
H25B C44B 1_555 1_555
P2B O1B 1_555 1_555
O1B Eu1B_2 1_555 1_555
C6B C7B 1_555 1_555
C7B C8B 1_555 1_555
C8B C9B 1_555 1_555
C9B P2B 1_555 1_555
C10B C9B 1_555 1_555
C11B C6B 1_555 1_555
C20B P2B 1_555 1_555
C21B C20B 1_555 1_555
C34B C35B 1_555 1_555
C35B C36B 1_555 1_555
C36B C37B 1_555 1_555
C37B P2B 1_555 1_555
C38B C37B 1_555 1_555
C39B C34B 1_555 1_555
C47B C49 1_555 1_555
C48B C21B 1_555 1_555
C49B C47 1_555 1_555
H2B C6B 1_555 1_555
H3B C7B 1_555 1_555
H4B C8B 1_555 1_555
H5B C10B 1_555 1_555
H6B C11B 1_555 1_555
H19B C34B 1_555 1_555
H20B C35B 1_555 1_555
H21B C36B 1_555 1_555
H22B C38B 1_555 1_555
H23B C39B 1_555 1_555
H26B C47B 1_555 1_555
H27B C49B 1_555 1_555
Eu1B O2B 1_555 1_555
F1B C16B 1_555 1_555
F2B C16B 1_555 1_555
F3B C16B 1_555 1_555
F4B C15B 1_555 1_555
F5B C15B 1_555 1_555
F6B C15B 1_555 1_555
F7B C4B 1_555 1_555
F8B C4B 1_555 1_555
F9B C4B 1_555 1_555
F10B C5B 1_555 1_555
F11B C5B 1_555 1_555
F12B C5B 1_555 1_555
F13B C46B 1_555 1_555
F14B C46B 1_555 1_555
F15B C46B 1_555 1_555
F16B C45B 1_555 1_555
F17B C45B 1_555 1_555
F18B C45B 1_555 1_555
O2B C19B 1_555 1_555
O3B Eu1B 1_555 1_555
O4B Eu1B 1_555 1_555
O5B Eu1B 1_555 1_555
O7B Eu1B 1_555 1_555
O8B Eu1B 1_555 1_555
C1B O3B 1_555 1_555
C2B C1B 1_555 1_555
C3B O5B 1_555 1_555
C4B C1B 1_555 1_555
C5B C3B 1_555 1_555
C12B O7B 1_555 1_555
C13B C12B 1_555 1_555
C14B O8B 1_555 1_555
C15B C12B 1_555 1_555
C16B C14B 1_555 1_555
C17B O4B 1_555 1_555
C18B C17B 1_555 1_555
C19B C18B 1_555 1_555
C45B C19B 1_555 1_555
C46B C17B 1_555 1_555
H1B C2B 1_555 1_555
H7B C13B 1_555 1_555
H8B C18B 1_555 1_555
O1B_2 Eu1B 1_555 1_555
C2 C3 1_555 1_555
C10 C11 1_555 1_555
C13 C14 1_555 1_555
C18 C19 1_555 1_555
C22 C25 1_555 1_555
C32 C33 1_555 1_555
C38 C39 1_555 1_555
C22B C25B 1_555 1_555
C32B C33B 1_555 1_555
C42B C43B 1_555 1_555
C42B C44B 1_555 1_555
C10B C11B 1_555 1_555
C38B C39B 1_555 1_555
C47B C48B 1_555 1_555
C48B C49B 1_555 1_555
C2B C3B 1_555 1_555
C13B C14B 1_555 1_555

#END
