
#######################################################################
#
#                 Cambridge Crystallographic Data Centre
#                                CCDC 
#
#######################################################################
#
# If this CIF has been generated from an entry in the Cambridge 
# Structural Database, then it will include bibliographic, chemical, 
# crystal, experimental, refinement or atomic coordinate data resulting 
# from the CCDC's data processing and validation procedures.
#
#######################################################################

data_IGIXAZ
_symmetry_cell_setting           monoclinic
_symmetry_space_group_name_H-M   'C 2/c'
_symmetry_Int_Tables_number      15
_space_group_name_Hall           '-C 2yn'
loop_
_symmetry_equiv_pos_site_id
_symmetry_equiv_pos_as_xyz
1 x,y,z
2 -x,y,1/2-z
3 1/2+x,1/2+y,z
4 1/2-x,1/2+y,1/2-z
5 -x,-y,-z
6 x,-y,1/2+z
7 1/2-x,1/2-y,-z
8 1/2+x,1/2-y,1/2+z
_cell_length_a                   21.982(7)
_cell_length_b                   11.019(3)
_cell_length_c                   18.707(6)
_cell_angle_alpha                90
_cell_angle_beta                 91.974(4)
_cell_angle_gamma                90
_cell_volume                     4528.51
loop_
_atom_site_label
_atom_site_type_symbol
_atom_site_fract_x
_atom_site_fract_y
_atom_site_fract_z
Ag1 Ag 0.539290(13) 0.35213(3) 0.404960(13)
O1 O 0.64093(11) 0.5229(2) -0.00380(10)
H1 H 0.6288 0.4845 -0.0391
C1 C 0.47483(17) 0.1102(3) 0.65141(16)
H2 H 0.4579 0.0289 0.6520
H3 H 0.4414 0.1675 0.6536
O2 O 0.61238(11) 0.5860(2) 0.37155(10)
O3 O 0.56260(11) 0.4425(2) 0.31056(11)
C2 C 0.66731(15) 0.6582(3) 0.11803(15)
H4 H 0.6838 0.6826 0.0752
C3 C 0.62393(14) 0.5671(3) 0.11705(14)
C4 C 0.60391(16) 0.5042(3) 0.04934(15)
C5 C 0.61847(13) 0.5818(3) 0.24471(14)
N1 N 0.50661(13) 0.1284(2) 0.58523(13)
C6 C 0.66162(14) 0.6734(3) 0.24434(15)
H5 H 0.6741 0.7089 0.2875
C7 C 0.59878(14) 0.5298(3) 0.18049(14)
H6 H 0.5688 0.4701 0.1799
N2 N 0.53650(13) 0.2263(2) 0.48911(13)
O4 O 0.55932(12) 0.4425(3) 0.04321(12)
C8 C 0.59614(14) 0.5346(3) 0.31516(15)
C9 C 0.55408(16) 0.0610(3) 0.55878(15)
C10 C 0.57196(16) 0.1236(3) 0.49847(16)
C11 C 0.49865(16) 0.2265(3) 0.54217(16)
H7 H 0.4699 0.2867 0.5493
C12 C 0.61899(16) 0.0792(4) 0.45933(17)
H8 H 0.6312 0.1205 0.4189
C13 C 0.68699(14) 0.7143(3) 0.18139(15)
C14 C 0.58191(18) -0.0461(3) 0.58072(17)
H9 H 0.5688 -0.0880 0.6205
C15 C 0.64802(17) -0.0267(3) 0.48024(19)
C16 C 0.73514(16) 0.8143(3) 0.18381(17)
C17 C 0.62936(19) -0.0885(3) 0.5422(2)
C18 C 0.7554(2) 0.8510(4) 0.1096(2)
H10 H 0.7728 0.7820 0.0865
H11 H 0.7853 0.9144 0.1140
H12 H 0.7209 0.8795 0.0815
C19 C 0.7903(2) 0.7703(4) 0.2277(2)
H13 H 0.8063 0.6984 0.2062
H14 H 0.7786 0.7523 0.2755
H15 H 0.8210 0.8324 0.2291
C20 C 0.7085(2) 0.9287(4) 0.2180(2)
H16 H 0.7388 0.9914 0.2202
H17 H 0.6961 0.9101 0.2655
H18 H 0.6739 0.9561 0.1897
C21 C 0.7007(2) -0.0733(4) 0.4387(2)
H19 H 0.7076 -0.0200 0.3992
H20 H 0.6914 -0.1532 0.4210
H21 H 0.7365 -0.0764 0.4694
C22 C 0.51717(18) 0.1272(4) 0.71571(17)
H22 H 0.5387 0.2035 0.7114
H23 H 0.5470 0.0623 0.7173
C23 C 0.6622(2) -0.2038(4) 0.5666(3)
H24 H 0.7029 -0.1841 0.5828
H25 H 0.6635 -0.2598 0.5274
H26 H 0.6408 -0.2401 0.6051
C1A C 0.52517(17) 0.1102(3) 0.84859(16)
H2A H 0.5421 0.0289 0.8480
H3A H 0.5586 0.1675 0.8464
N1A N 0.49339(13) 0.1284(2) 0.91477(13)
N2A N 0.46350(13) 0.2263(2) 1.01089(13)
C9A C 0.44592(16) 0.0610(3) 0.94122(15)
C10A C 0.42804(16) 0.1236(3) 1.00153(16)
C11A C 0.50135(16) 0.2265(3) 0.95783(16)
H7A H 0.5301 0.2867 0.9507
C12A C 0.38101(16) 0.0792(4) 1.04067(17)
H8A H 0.3688 0.1205 1.0811
C14A C 0.41809(18) -0.0461(3) 0.91928(17)
H9A H 0.4312 -0.0880 0.8795
C15A C 0.35198(17) -0.0267(3) 1.01976(19)
C17A C 0.37064(19) -0.0885(3) 0.9578(2)
C21A C 0.2993(2) -0.0733(4) 1.0613(2)
H19A H 0.2924 -0.0200 1.1008
H20A H 0.3086 -0.1532 1.0790
H21A H 0.2635 -0.0764 1.0306
C22A C 0.48283(18) 0.1272(4) 0.78429(17)
H22A H 0.4613 0.2035 0.7886
H23A H 0.4530 0.0623 0.7827
C23A C 0.3378(2) -0.2038(4) 0.9334(3)
H24A H 0.2971 -0.1841 0.9172
H25A H 0.3365 -0.2598 0.9726
H26A H 0.3592 -0.2401 0.8949
Ag1A Ag 0.460710(13) 0.35213(3) 0.095040(13)
O1A O 0.35907(11) 0.5229(2) 0.50380(10)
H1A H 0.3712 0.4845 0.5391
O2A O 0.38762(11) 0.5860(2) 0.12845(10)
O3A O 0.43740(11) 0.4425(2) 0.18944(11)
C2A C 0.33269(15) 0.6582(3) 0.38197(15)
H4A H 0.3162 0.6826 0.4248
C3A C 0.37607(14) 0.5671(3) 0.38295(14)
C4A C 0.39609(16) 0.5042(3) 0.45066(15)
C5A C 0.38153(13) 0.5818(3) 0.25529(14)
C6A C 0.33838(14) 0.6734(3) 0.25566(15)
H5A H 0.3259 0.7089 0.2125
C7A C 0.40122(14) 0.5298(3) 0.31951(14)
H6A H 0.4312 0.4701 0.3201
O4A O 0.44068(12) 0.4425(3) 0.45679(12)
C8A C 0.40386(14) 0.5346(3) 0.18484(15)
C13A C 0.31301(14) 0.7143(3) 0.31861(15)
C16A C 0.26486(16) 0.8143(3) 0.31619(17)
C18A C 0.2446(2) 0.8510(4) 0.3904(2)
H10A H 0.2272 0.7820 0.4135
H11A H 0.2147 0.9144 0.3860
H12A H 0.2791 0.8795 0.4185
C19A C 0.2097(2) 0.7703(4) 0.2723(2)
H13A H 0.1937 0.6984 0.2938
H14A H 0.2214 0.7523 0.2245
H15A H 0.1790 0.8324 0.2709
C20A C 0.2915(2) 0.9287(4) 0.2820(2)
H16A H 0.2612 0.9914 0.2798
H17A H 0.3039 0.9101 0.2345
H18A H 0.3261 0.9561 0.3103
Ag1A_2 Ag 0.460710(13) 0.35213(3) 1.095040(13)
N2A_2 N 0.46350(13) 0.2263(2) 0.01089(13)
loop_
_geom_bond_atom_site_label_1
_geom_bond_atom_site_label_2
_geom_bond_site_symmetry_1
_geom_bond_site_symmetry_2
Ag1 O3 1_555 1_555
O1 H1 1_555 1_555
C1 H2 1_555 1_555
H3 C1 1_555 1_555
O2 C8 1_555 1_555
O3 C8 1_555 1_555
C2 H4 1_555 1_555
C3 C2 1_555 1_555
C4 O1 1_555 1_555
C5 C6 1_555 1_555
N1 C1 1_555 1_555
C6 H5 1_555 1_555
C7 C3 1_555 1_555
H6 C7 1_555 1_555
N2 Ag1 1_555 1_555
O4 C4 1_555 1_555
C8 C5 1_555 1_555
C9 N1 1_555 1_555
C10 N2 1_555 1_555
C11 N1 1_555 1_555
H7 C11 1_555 1_555
C12 C10 1_555 1_555
H8 C12 1_555 1_555
C13 C2 1_555 1_555
C14 C9 1_555 1_555
H9 C14 1_555 1_555
C15 C12 1_555 1_555
C16 C13 1_555 1_555
C17 C14 1_555 1_555
C18 C16 1_555 1_555
H10 C18 1_555 1_555
H11 C18 1_555 1_555
H12 C18 1_555 1_555
C19 C16 1_555 1_555
H13 C19 1_555 1_555
H14 C19 1_555 1_555
H15 C19 1_555 1_555
C20 C16 1_555 1_555
H16 C20 1_555 1_555
H17 C20 1_555 1_555
H18 C20 1_555 1_555
C21 C15 1_555 1_555
H19 C21 1_555 1_555
H20 C21 1_555 1_555
H21 C21 1_555 1_555
C22 C1 1_555 1_555
H22 C22 1_555 1_555
H23 C22 1_555 1_555
C23 C17 1_555 1_555
H24 C23 1_555 1_555
H25 C23 1_555 1_555
H26 C23 1_555 1_555
C1A H2A 1_555 1_555
H3A C1A 1_555 1_555
N1A C1A 1_555 1_555
N2A C10A 1_555 1_555
C9A N1A 1_555 1_555
C10A C9A 1_555 1_555
C11A N1A 1_555 1_555
H7A C11A 1_555 1_555
C12A C10A 1_555 1_555
H8A C12A 1_555 1_555
C14A C9A 1_555 1_555
H9A C14A 1_555 1_555
C15A C12A 1_555 1_555
C17A C14A 1_555 1_555
C21A C15A 1_555 1_555
H19A C21A 1_555 1_555
H20A C21A 1_555 1_555
H21A C21A 1_555 1_555
C22A C22 1_555 1_555
H22A C22A 1_555 1_555
H23A C22A 1_555 1_555
C23A C17A 1_555 1_555
H24A C23A 1_555 1_555
H25A C23A 1_555 1_555
H26A C23A 1_555 1_555
Ag1A O4 1_555 1_555
O1A H1A 1_555 1_555
O2A C8A 1_555 1_555
O3A Ag1A 1_555 1_555
C2A H4A 1_555 1_555
C3A C2A 1_555 1_555
C4A O1A 1_555 1_555
C5A C6A 1_555 1_555
C6A H5A 1_555 1_555
C7A C3A 1_555 1_555
H6A C7A 1_555 1_555
O4A Ag1 1_555 1_555
C8A O3A 1_555 1_555
C13A C2A 1_555 1_555
C16A C13A 1_555 1_555
C18A C16A 1_555 1_555
H10A C18A 1_555 1_555
H11A C18A 1_555 1_555
H12A C18A 1_555 1_555
C19A C16A 1_555 1_555
H13A C19A 1_555 1_555
H14A C19A 1_555 1_555
H15A C19A 1_555 1_555
C20A C16A 1_555 1_555
H16A C20A 1_555 1_555
H17A C20A 1_555 1_555
H18A C20A 1_555 1_555
Ag1A_2 N2A 1_555 1_555
N2A_2 Ag1A 1_555 1_555
C3 C4 1_555 1_555
C5 C7 1_555 1_555
C6 C13 1_555 1_555
N2 C11 1_555 1_555
C9 C10 1_555 1_555
C15 C17 1_555 1_555
C1A C22A 1_555 1_555
N2A C11A 1_555 1_555
C15A C17A 1_555 1_555
C3A C4A 1_555 1_555
C4A O4A 1_555 1_555
C5A C7A 1_555 1_555
C5A C8A 1_555 1_555
C6A C13A 1_555 1_555

#END
