
#######################################################################
#
#                 Cambridge Crystallographic Data Centre
#                                CCDC 
#
#######################################################################
#
# If this CIF has been generated from an entry in the Cambridge 
# Structural Database, then it will include bibliographic, chemical, 
# crystal, experimental, refinement or atomic coordinate data resulting 
# from the CCDC's data processing and validation procedures.
#
#######################################################################

data_IGIYII
_symmetry_cell_setting           orthorhombic
_symmetry_space_group_name_H-M   'P b c a'
_symmetry_Int_Tables_number      61
_space_group_name_Hall           '-P 2ac 2ab'
loop_
_symmetry_equiv_pos_site_id
_symmetry_equiv_pos_as_xyz
1 x,y,z
2 1/2-x,-y,1/2+z
3 -x,1/2+y,1/2-z
4 1/2+x,1/2-y,-z
5 -x,-y,-z
6 1/2+x,y,1/2-z
7 x,1/2-y,1/2+z
8 1/2-x,1/2+y,z
_cell_length_a                   14.357(3)
_cell_length_b                   13.713(3)
_cell_length_c                   20.207(4)
_cell_angle_alpha                90
_cell_angle_beta                 90
_cell_angle_gamma                90
_cell_volume                     3978.3
loop_
_atom_site_label
_atom_site_type_symbol
_atom_site_fract_x
_atom_site_fract_y
_atom_site_fract_z
I1 I 0.08237(8) 0.27758(9) 0.37608(6)
I2 I 0.37413(8) 0.28458(9) 0.28986(6)
I3 I 0.33955(9) 0.28441(9) 0.50672(6)
Br1 Br 0.26999(14) 0.02837(14) 0.38982(10)
Cu1 Cu 0.26601(18) 0.34059(15) 0.39309(12)
Cu2 Cu 0.22684(14) 0.18426(15) 0.32387(10)
Cu3 Cu 0.20480(17) 0.17938(17) 0.45512(12)
N1 N 0.1142(13) 0.0528(11) 0.1262(7)
N2 N 0.1769(8) 0.1253(9) 0.2331(6)
N3 N 0.1241(13) 0.1147(14) 0.5275(9)
C1 C 0.0898(19) 0.0054(19) 0.0602(12)
H1 H 0.1378 0.0214 0.0282
H2 H 0.0895 -0.0649 0.0658
C2 C 0.006(2) 0.034(2) 0.0359(13)
H3 H 0.0060 0.1030 0.0265
H4 H -0.0432 0.0191 0.0670
C3 C 0.2133(16) 0.0154(15) 0.1394(10)
H5 H 0.2543 0.0327 0.1031
H6 H 0.2132 -0.0550 0.1442
C4 C 0.2459(14) 0.0643(15) 0.2038(9)
H7 H 0.2633 0.0140 0.2352
H8 H 0.3009 0.1030 0.1945
C5 C 0.0534(17) 0.0231(17) 0.1810(9)
H9 H 0.0533 -0.0474 0.1853
H10 H -0.0100 0.0446 0.1728
C6 C 0.0910(11) 0.0703(11) 0.2446(7)
H11 H 0.0441 0.1137 0.2626
H12 H 0.1030 0.0197 0.2771
C7 C 0.1134(14) 0.1607(11) 0.1208(8)
H13 H 0.0500 0.1840 0.1157
H14 H 0.1492 0.1812 0.0825
C8 C 0.1562(13) 0.2023(12) 0.1838(8)
H15 H 0.2133 0.2365 0.1728
H16 H 0.1135 0.2492 0.2031
C9 C 0.0785(11) 0.0761(11) 0.5611(8)
C10 C 0.0185(14) 0.0162(14) 0.6010(11)
H17 H 0.0058 -0.0437 0.5782
H18 H -0.0390 0.0501 0.6091
H19 H 0.0484 0.0023 0.6424
N1D N -0.1142(13) -0.0528(11) -0.1262(7)
N2D N -0.1769(8) -0.1253(9) -0.2331(6)
C1D C -0.0898(19) -0.0054(19) -0.0602(12)
H1D H -0.1378 -0.0214 -0.0282
H2D H -0.0895 0.0649 -0.0658
C2D C -0.006(2) -0.034(2) -0.0359(13)
H3D H -0.0060 -0.1030 -0.0265
H4D H 0.0432 -0.0191 -0.0670
C3D C -0.2133(16) -0.0154(15) -0.1394(10)
H5D H -0.2543 -0.0327 -0.1031
H6D H -0.2132 0.0550 -0.1442
C4D C -0.2459(14) -0.0643(15) -0.2038(9)
H7D H -0.2633 -0.0140 -0.2352
H8D H -0.3009 -0.1030 -0.1945
C5D C -0.0534(17) -0.0231(17) -0.1810(9)
H9D H -0.0533 0.0474 -0.1853
H10D H 0.0100 -0.0446 -0.1728
C6D C -0.0910(11) -0.0703(11) -0.2446(7)
H11D H -0.0441 -0.1137 -0.2626
H12D H -0.1030 -0.0197 -0.2771
C7D C -0.1134(14) -0.1607(11) -0.1208(8)
H13D H -0.0500 -0.1840 -0.1157
H14D H -0.1492 -0.1812 -0.0825
C8D C -0.1562(13) -0.2023(12) -0.1838(8)
H15D H -0.2133 -0.2365 -0.1728
H16D H -0.1135 -0.2492 -0.2031
I1D I -0.08237(8) -0.27758(9) -0.37608(6)
I2D I -0.37413(8) -0.28458(9) -0.28986(6)
I3D I -0.33955(9) -0.28441(9) -0.50672(6)
Br1D Br -0.26999(14) -0.02837(14) -0.38982(10)
Cu1D Cu -0.26601(18) -0.34059(15) -0.39309(12)
Cu2D Cu -0.22684(14) -0.18426(15) -0.32387(10)
Cu3D Cu -0.20480(17) -0.17938(17) -0.45512(12)
N3D N -0.1241(13) -0.1147(14) -0.5275(9)
C9D C -0.0785(11) -0.0761(11) -0.5611(8)
C10D C -0.0185(14) -0.0162(14) -0.6010(11)
H17D H -0.0058 0.0437 -0.5782
H18D H 0.0390 -0.0501 -0.6091
H19D H -0.0484 -0.0023 -0.6424
Br1C Br -0.23001(14) -0.52837(14) -0.38982(10)
Br1G Br 0.23001(14) 0.52837(14) 0.38982(10)
Cu1C Cu -0.23399(18) 0.15941(15) -0.39309(12)
Cu1G Cu 0.23399(18) -0.15941(15) 0.39309(12)
loop_
_geom_bond_atom_site_label_1
_geom_bond_atom_site_label_2
_geom_bond_site_symmetry_1
_geom_bond_site_symmetry_2
I1 Cu1 1_555 1_555
I2 Cu1 1_555 1_555
I3 Cu1 1_555 1_555
Br1 Cu2 1_555 1_555
Cu1 Br1G 1_555 1_555
Cu2 I1 1_555 1_555
Cu3 I1 1_555 1_555
N1 C1 1_555 1_555
N2 Cu2 1_555 1_555
N3 Cu3 1_555 1_555
C1 H1 1_555 1_555
H2 C1 1_555 1_555
C2 C1 1_555 1_555
H3 C2 1_555 1_555
H4 C2 1_555 1_555
C3 N1 1_555 1_555
H5 C3 1_555 1_555
H6 C3 1_555 1_555
C4 N2 1_555 1_555
H7 C4 1_555 1_555
H8 C4 1_555 1_555
C5 N1 1_555 1_555
H9 C5 1_555 1_555
H10 C5 1_555 1_555
C6 N2 1_555 1_555
H11 C6 1_555 1_555
H12 C6 1_555 1_555
C7 N1 1_555 1_555
H13 C7 1_555 1_555
H14 C7 1_555 1_555
C8 N2 1_555 1_555
H15 C8 1_555 1_555
H16 C8 1_555 1_555
C9 N3 1_555 1_555
C10 C9 1_555 1_555
H17 C10 1_555 1_555
H18 C10 1_555 1_555
H19 C10 1_555 1_555
N1D C1D 1_555 1_555
N2D C4D 1_555 1_555
C1D H1D 1_555 1_555
H2D C1D 1_555 1_555
C2D C2 1_555 1_555
H3D C2D 1_555 1_555
H4D C2D 1_555 1_555
C3D N1D 1_555 1_555
H5D C3D 1_555 1_555
H6D C3D 1_555 1_555
C4D C3D 1_555 1_555
H7D C4D 1_555 1_555
H8D C4D 1_555 1_555
C5D N1D 1_555 1_555
H9D C5D 1_555 1_555
H10D C5D 1_555 1_555
C6D N2D 1_555 1_555
H11D C6D 1_555 1_555
H12D C6D 1_555 1_555
C7D N1D 1_555 1_555
H13D C7D 1_555 1_555
H14D C7D 1_555 1_555
C8D N2D 1_555 1_555
H15D C8D 1_555 1_555
H16D C8D 1_555 1_555
I1D Cu1D 1_555 1_555
I2D Cu1D 1_555 1_555
I3D Cu1D 1_555 1_555
Br1D Cu2D 1_555 1_555
Cu1D Br1C 1_555 1_555
Cu2D N2D 1_555 1_555
Cu3D I1D 1_555 1_555
N3D Cu3D 1_555 1_555
C9D N3D 1_555 1_555
C10D C9D 1_555 1_555
H17D C10D 1_555 1_555
H18D C10D 1_555 1_555
H19D C10D 1_555 1_555
Cu1C Br1D 1_555 1_555
Cu1G Br1 1_555 1_555
I2 Cu2 1_555 1_555
I3 Cu3 1_555 1_555
Br1 Cu3 1_555 1_555
C3 C4 1_555 1_555
C5 C6 1_555 1_555
C7 C8 1_555 1_555
C1D C2D 1_555 1_555
C5D C6D 1_555 1_555
C7D C8D 1_555 1_555
I1D Cu2D 1_555 1_555
I2D Cu2D 1_555 1_555
I3D Cu3D 1_555 1_555
Br1D Cu3D 1_555 1_555

#END
