
#######################################################################
#
#                 Cambridge Crystallographic Data Centre
#                                CCDC 
#
#######################################################################
#
# If this CIF has been generated from an entry in the Cambridge 
# Structural Database, then it will include bibliographic, chemical, 
# crystal, experimental, refinement or atomic coordinate data resulting 
# from the CCDC's data processing and validation procedures.
#
#######################################################################

data_IGIYEE
_symmetry_cell_setting           orthorhombic
_symmetry_space_group_name_H-M   'A m a 2'
_symmetry_Int_Tables_number      40
_space_group_name_Hall           'A 2 -2a'
loop_
_symmetry_equiv_pos_site_id
_symmetry_equiv_pos_as_xyz
1 x,y,z
2 -x,-y,z
3 1/2+x,-y,z
4 1/2-x,y,z
5 x,1/2+y,1/2+z
6 -x,1/2-y,1/2+z
7 1/2+x,1/2-y,1/2+z
8 1/2-x,1/2+y,1/2+z
_cell_length_a                   28.800(6)
_cell_length_b                   10.330(2)
_cell_length_c                   9.2214(18)
_cell_angle_alpha                90
_cell_angle_beta                 90
_cell_angle_gamma                90
_cell_volume                     2743.4
loop_
_atom_site_label
_atom_site_type_symbol
_atom_site_fract_x
_atom_site_fract_y
_atom_site_fract_z
I1 I 0.2500 0.52167(6) 0.64753(7)
I2 I 0.336993(18) 0.29390(4) 0.37902(5)
I3 I 0.2500 0.06559(6) 0.64276(6)
Cu1 Cu 0.2500 0.29504(15) 0.4892(2)
Cu2 Cu 0.29470(3) 0.51527(8) 0.39175(14)
N1 N 0.40129(18) 0.8592(5) 0.4106(7)
N2 N 0.34297(17) 0.6705(6) 0.4014(7)
C1 C 0.4334(3) 0.9728(8) 0.4197(10)
H1 H 0.4297 1.0137 0.5137
H2 H 0.4247 1.0355 0.3463
C2 C 0.4849(2) 0.9371(8) 0.3988(16)
H3 H 0.4889 0.8916 0.3076
H4 H 0.4949 0.8803 0.4765
C3 C 0.3993(4) 0.8014(9) 0.2610(10)
H5 H 0.4303 0.7770 0.2300
H6 H 0.3873 0.8647 0.1930
C4 C 0.3678(3) 0.6819(9) 0.2628(9)
H7 H 0.3455 0.6879 0.1843
H8 H 0.3864 0.6048 0.2473
C5 C 0.3526(3) 0.9052(8) 0.4552(13)
H9 H 0.3432 0.9775 0.3949
H10 H 0.3530 0.9338 0.5554
C6 C 0.3182(3) 0.7927(7) 0.4372(11)
H11 H 0.3008 0.7813 0.5264
H12 H 0.2964 0.8130 0.3604
C7 C 0.4143(3) 0.7565(8) 0.5156(9)
H13 H 0.4168 0.7936 0.6119
H14 H 0.4444 0.7212 0.4896
C8 C 0.3782(3) 0.6478(7) 0.5168(8)
H15 H 0.3935 0.5653 0.5006
H16 H 0.3631 0.6447 0.6107
N1A N 0.59871(18) 1.1408(5) 0.4106(7)
N2A N 0.65703(17) 1.3295(6) 0.4014(7)
C1A C 0.5666(3) 1.0272(8) 0.4197(10)
H1A H 0.5703 0.9863 0.5137
H2A H 0.5753 0.9645 0.3463
C2A C 0.5151(2) 1.0629(8) 0.3988(16)
H3A H 0.5111 1.1084 0.3076
H4A H 0.5051 1.1197 0.4765
C3A C 0.6007(4) 1.1986(9) 0.2610(10)
H5A H 0.5697 1.2230 0.2300
H6A H 0.6127 1.1353 0.1930
C4A C 0.6322(3) 1.3181(9) 0.2628(9)
H7A H 0.6545 1.3121 0.1843
H8A H 0.6136 1.3952 0.2473
C5A C 0.6474(3) 1.0948(8) 0.4552(13)
H9A H 0.6568 1.0225 0.3949
H10A H 0.6470 1.0662 0.5554
C6A C 0.6818(3) 1.2073(7) 0.4372(11)
H11A H 0.6992 1.2187 0.5264
H12A H 0.7036 1.1870 0.3604
C7A C 0.5857(3) 1.2435(8) 0.5156(9)
H13A H 0.5832 1.2064 0.6119
H14A H 0.5556 1.2788 0.4896
C8A C 0.6218(3) 1.3522(7) 0.5168(8)
H15A H 0.6065 1.4347 0.5006
H16A H 0.6369 1.3553 0.6107
I2A I 0.663007(18) 1.70610(4) 0.37902(5)
Cu2A Cu 0.70530(3) 1.48473(8) 0.39175(14)
I1A I 0.7500 1.47833(6) 0.64753(7)
I2C I 0.163007(18) 0.29390(4) 0.37902(5)
I3D I 0.2500 0.56559(6) 0.14276(6)
I3E I 0.7500 1.43441(6) 0.14276(6)
Cu1A Cu 0.7500 1.70496(15) 0.4892(2)
Cu2C Cu 0.20530(3) 0.51527(8) 0.39175(14)
Cu2D Cu 0.29470(3) 0.01527(8) 0.89175(14)
Cu2G Cu 0.20530(3) 0.01527(8) 0.89175(14)
Cl1 Cl 0.5000 0.5000 0.3355(5)
O1 O 0.5483(4) 0.5197(17) 0.2931(18)
O2 O 0.4969(5) 0.3695(13) 0.2773(18)
O1A O 0.4517(4) 0.4803(17) 0.2931(18)
O2A O 0.5031(5) 0.6305(13) 0.2773(18)
O3? O 0.5000 0.5000 0.4795(12)
O4? O 0.4682(5) 0.5746(16) 0.2538(18)
loop_
_geom_bond_atom_site_label_1
_geom_bond_atom_site_label_2
_geom_bond_site_symmetry_1
_geom_bond_site_symmetry_2
I1 Cu1 1_555 1_555
I2 Cu1 1_555 1_555
I3 Cu1 1_555 1_555
Cu1 I2C 1_555 1_555
Cu2 I1 1_555 1_555
N1 C1 1_555 1_555
N2 Cu2 1_555 1_555
C1 H1 1_555 1_555
H2 C1 1_555 1_555
C2 C1 1_555 1_555
H3 C2 1_555 1_555
H4 C2 1_555 1_555
C3 N1 1_555 1_555
H5 C3 1_555 1_555
H6 C3 1_555 1_555
C4 N2 1_555 1_555
H7 C4 1_555 1_555
H8 C4 1_555 1_555
C5 N1 1_555 1_555
H9 C5 1_555 1_555
H10 C5 1_555 1_555
C6 N2 1_555 1_555
H11 C6 1_555 1_555
H12 C6 1_555 1_555
C7 N1 1_555 1_555
H13 C7 1_555 1_555
H14 C7 1_555 1_555
C8 N2 1_555 1_555
H15 C8 1_555 1_555
H16 C8 1_555 1_555
Cl1 O1 1_555 1_555
O2 Cl1 1_555 1_555
N1A C1A 1_555 1_555
N2A C4A 1_555 1_555
C1A H1A 1_555 1_555
H2A C1A 1_555 1_555
C2A C2 1_555 1_555
H3A C2A 1_555 1_555
H4A C2A 1_555 1_555
C3A N1A 1_555 1_555
H5A C3A 1_555 1_555
H6A C3A 1_555 1_555
C4A C3A 1_555 1_555
H7A C4A 1_555 1_555
H8A C4A 1_555 1_555
C5A N1A 1_555 1_555
H9A C5A 1_555 1_555
H10A C5A 1_555 1_555
C6A N2A 1_555 1_555
H11A C6A 1_555 1_555
H12A C6A 1_555 1_555
C7A N1A 1_555 1_555
H13A C7A 1_555 1_555
H14A C7A 1_555 1_555
C8A N2A 1_555 1_555
H15A C8A 1_555 1_555
H16A C8A 1_555 1_555
I2A Cu2A 1_555 1_555
Cu2A N2A 1_555 1_555
I1A Cu2A 1_555 1_555
I2C Cu2C 1_555 1_555
I3D Cu2 1_555 1_555
I3E Cu2A 1_555 1_555
Cu1A I2A 1_555 1_555
Cu2C I1 1_555 1_555
Cu2D I3 1_555 1_555
Cu2G I3 1_555 1_555
O1A Cl1 1_555 1_555
O2A Cl1 1_555 1_555
I2 Cu2 1_555 1_555
C3 C4 1_555 1_555
C5 C6 1_555 1_555
C7 C8 1_555 1_555
C1A C2A 1_555 1_555
C5A C6A 1_555 1_555
C7A C8A 1_555 1_555
I1A Cu1A 1_555 1_555
I3D Cu2C 1_555 1_555

#END
