
#######################################################################
#
#                 Cambridge Crystallographic Data Centre
#                                CCDC 
#
#######################################################################
#
# If this CIF has been generated from an entry in the Cambridge 
# Structural Database, then it will include bibliographic, chemical, 
# crystal, experimental, refinement or atomic coordinate data resulting 
# from the CCDC's data processing and validation procedures.
#
#######################################################################

data_IGIZIJ
_symmetry_cell_setting           triclinic
_symmetry_space_group_name_H-M   'P -1'
_symmetry_Int_Tables_number      2
_space_group_name_Hall           '-P 1'
loop_
_symmetry_equiv_pos_site_id
_symmetry_equiv_pos_as_xyz
1 x,y,z
2 -x,-y,-z
_cell_length_a                   10.7703(8)
_cell_length_b                   10.8543(7)
_cell_length_c                   13.1677(15)
_cell_angle_alpha                113.854(4)
_cell_angle_beta                 93.428(4)
_cell_angle_gamma                114.852(3)
_cell_volume                     1227.56
loop_
_atom_site_label
_atom_site_type_symbol
_atom_site_fract_x
_atom_site_fract_y
_atom_site_fract_z
Ba1 Ba 0.220122(19) 0.60544(2) 0.140903(16)
Ba2 Ba 0.185250(19) 0.84170(2) -0.026049(16)
Ba3 Ba 0.66554(2) 0.74249(2) 0.073804(17)
P1 P 0.52553(9) 0.98836(9) 0.17140(7)
P2 P 0.05354(9) 0.87061(9) 0.24704(7)
P3 P 0.45771(9) 0.47230(9) 0.23995(8)
P4 P 0.15262(8) 0.22732(9) 0.13649(7)
P5 P -0.15856(8) 0.53001(9) 0.15740(7)
P6 P 0.68941(9) 1.00853(10) 0.37804(7)
O1 O 0.4468(2) 1.0700(3) 0.1440(2)
H1 H 0.4776 1.1667 0.1757
O2 O 0.6714(2) 1.0433(3) 0.1537(2)
O3 O 0.4265(2) 0.8191(2) 0.09593(19)
O4 O 0.1334(2) 0.8245(2) 0.1639(2)
O5 O 0.1549(2) 1.0156(2) 0.3663(2)
H2 H 0.2139 0.9995 0.3927
O6 O -0.0525(2) 0.9111(2) 0.2089(2)
O7 O 0.4326(2) 0.5034(2) 0.14077(19)
O8 O 0.5169(2) 0.3625(3) 0.2197(2)
O9 O 0.5557(2) 0.6267(2) 0.3523(2)
H3 H 0.5890 0.6976 0.3364
O10 O 0.1065(2) 0.2933(2) 0.07005(19)
O11 O 0.2126(2) 0.1253(2) 0.0732(2)
O12 O 0.0171(2) 0.1415(2) 0.1706(2)
H4 H 0.0067 0.1026 0.2161
O13 O -0.0768(2) 0.4650(2) 0.08422(18)
O14 O -0.2345(2) 0.4147(2) 0.2057(2)
H5 H -0.2739 0.4203 0.2602
O15 O -0.2633(2) 0.5498(2) 0.09485(19)
O16 O 0.8341(3) 1.1343(3) 0.3787(3)
H6 H 0.8476 1.1021 0.3147
O17 O 0.6601(2) 0.8496(3) 0.29618(19)
O18 O 0.6996(3) 1.0456(3) 0.5019(2)
O19 O 0.4191(2) 0.9141(3) 0.3260(2)
H7 H 0.3988 0.9375 0.3902
O20 O 0.0802(2) 0.6843(2) 0.31819(19)
H8 H 0.1022 0.6894 0.3834
O21 O 0.2470(2) 0.5112(2) 0.30775(19)
H9 H 0.2345 0.5507 0.3739
C1 C 0.2868(3) 0.3909(3) 0.2719(3)
C2 C 0.5459(4) 1.0343(4) 0.3249(3)
C3 C -0.0321(3) 0.7134(3) 0.2844(3)
C4 C 0.2986(4) 0.3468(4) 0.3677(3)
H10 H 0.2099 0.3148 0.3872
H11 H 0.3730 0.4343 0.4348
H12 H 0.3202 0.2637 0.3410
C5 C 0.5664(5) 1.1951(4) 0.4012(3)
H13 H 0.4857 1.2019 0.3746
H14 H 0.6511 1.2710 0.3972
H15 H 0.5754 1.2136 0.4797
C6 C -0.0992(4) 0.7579(4) 0.3830(3)
H16 H -0.0264 0.8450 0.4512
H17 H -0.1457 0.6725 0.3982
H18 H -0.1677 0.7841 0.3615
Ba1A Ba -0.220122(19) 0.39456(2) -0.140903(16)
Ba2_2 Ba 0.185250(19) -0.15830(2) -0.026049(16)
Ba2A Ba -0.185250(19) 0.15830(2) 0.026049(16)
Ba2A_2 Ba 0.814750(19) 1.15830(2) 0.026049(16)
Ba3_2 Ba -0.33446(2) 0.74249(2) 0.073804(17)
Ba3A Ba 0.33446(2) 0.25751(2) -0.073804(17)
O2A O 0.3286(2) 0.9567(3) -0.1537(2)
O6_2 O 0.9475(2) 0.9111(2) 0.2089(2)
O7A O 0.5674(2) 0.4966(2) -0.14077(19)
O10A O -0.1065(2) 0.7067(2) -0.07005(19)
O10A_2 O 0.8935(2) 0.7067(2) -0.07005(19)
O11_2 O 0.2126(2) 1.1253(2) 0.0732(2)
O11A O 0.7874(2) 0.8747(2) -0.0732(2)
O12A O -0.0171(2) 0.8585(2) -0.1706(2)
O13A O 0.0768(2) 0.5350(2) -0.08422(18)
O14A O 0.2345(2) 0.5853(2) -0.2057(2)
O15_2 O 0.7367(2) 0.5498(2) 0.09485(19)
O15A O 0.2633(2) 0.4502(2) -0.09485(19)
O22 O 0.0057(4) 0.5740(5) 0.6255(4)
H19 H 0.0940 0.5849 0.6565
H20 H 0.0028 0.5926 0.5688
loop_
_geom_bond_atom_site_label_1
_geom_bond_atom_site_label_2
_geom_bond_site_symmetry_1
_geom_bond_site_symmetry_2
Ba1 O3 1_555 1_555
Ba2 O1 1_555 1_555
Ba3 O2 1_555 1_555
P1 O1 1_555 1_555
P2 O4 1_555 1_555
P3 O7 1_555 1_555
P4 O10 1_555 1_555
P5 O13 1_555 1_555
P6 O16 1_555 1_555
O1 H1 1_555 1_555
O2 P1 1_555 1_555
O3 Ba2 1_555 1_555
O4 Ba1 1_555 1_555
O5 P2 1_555 1_555
H2 O5 1_555 1_555
O6 P2 1_555 1_555
O7 Ba1 1_555 1_555
O8 P3 1_555 1_555
O9 P3 1_555 1_555
H3 O9 1_555 1_555
O10 Ba1 1_555 1_555
O11 P4 1_555 1_555
O12 P4 1_555 1_555
H4 O12 1_555 1_555
O13 Ba1 1_555 1_555
O14 P5 1_555 1_555
H5 O14 1_555 1_555
O15 P5 1_555 1_555
O16 H6 1_555 1_555
O17 Ba3 1_555 1_555
O18 P6 1_555 1_555
O19 Ba1 1_555 1_555
H7 O19 1_555 1_555
O20 Ba1 1_555 1_555
H8 O20 1_555 1_555
O21 Ba1 1_555 1_555
H9 O21 1_555 1_555
C1 P3 1_555 1_555
C2 P1 1_555 1_555
C3 P2 1_555 1_555
C4 C1 1_555 1_555
H10 C4 1_555 1_555
H11 C4 1_555 1_555
H12 C4 1_555 1_555
C5 C2 1_555 1_555
H13 C5 1_555 1_555
H14 C5 1_555 1_555
H15 C5 1_555 1_555
C6 C3 1_555 1_555
H16 C6 1_555 1_555
H17 C6 1_555 1_555
H18 C6 1_555 1_555
O22 H19 1_555 1_555
H20 O22 1_555 1_555
Ba1A O13 1_555 1_555
Ba2_2 O11 1_555 1_555
Ba2A O10 1_555 1_555
Ba2A_2 O2 1_555 1_555
Ba3_2 O6 1_555 1_555
Ba3A O7 1_555 1_555
O2A Ba2 1_555 1_555
O6_2 Ba3 1_555 1_555
O7A Ba3 1_555 1_555
O10A Ba2 1_555 1_555
O10A_2 Ba3 1_555 1_555
O11_2 Ba2 1_555 1_555
O11A Ba3 1_555 1_555
O12A Ba2 1_555 1_555
O13A Ba1 1_555 1_555
O14A Ba2 1_555 1_555
O15_2 Ba3 1_555 1_555
O15A Ba1 1_555 1_555
Ba2 O4 1_555 1_555
Ba2 O13A 1_555 1_555
Ba3 O3 1_555 1_555
Ba3 O7 1_555 1_555
P1 O3 1_555 1_555
P4 C1 1_555 1_555
P5 C3 1_555 1_555
P6 O17 1_555 1_555
P6 C2 1_555 1_555
O10 Ba3A 1_555 1_555
O11 Ba3A 1_555 1_555
O12 Ba2A 1_555 1_555
O13 Ba2A 1_555 1_555
O14 Ba2A 1_555 1_555
O15 Ba1A 1_555 1_555
O15 Ba3_2 1_555 1_555
O19 C2 1_555 1_555
O20 C3 1_555 1_555
O21 C1 1_555 1_555
Ba1A O10A 1_555 1_555
Ba1A O13A 1_555 1_555
Ba2A_2 O11A 1_555 1_555
Ba3_2 O10A 1_555 1_555
Ba3A O7A 1_555 1_555
Ba3A O15A 1_555 1_555

#END
