
#######################################################################
#
#                 Cambridge Crystallographic Data Centre
#                                CCDC 
#
#######################################################################
#
# If this CIF has been generated from an entry in the Cambridge 
# Structural Database, then it will include bibliographic, chemical, 
# crystal, experimental, refinement or atomic coordinate data resulting 
# from the CCDC's data processing and validation procedures.
#
#######################################################################

data_IGOBUC
_symmetry_cell_setting           monoclinic
_symmetry_space_group_name_H-M   'C 2/c'
_symmetry_Int_Tables_number      15
_space_group_name_Hall           '-C 2yn'
loop_
_symmetry_equiv_pos_site_id
_symmetry_equiv_pos_as_xyz
1 x,y,z
2 -x,y,1/2-z
3 1/2+x,1/2+y,z
4 1/2-x,1/2+y,1/2-z
5 -x,-y,-z
6 x,-y,1/2+z
7 1/2-x,1/2-y,-z
8 1/2+x,1/2-y,1/2+z
_cell_length_a                   14.1994(13)
_cell_length_b                   19.6855(17)
_cell_length_c                   24.487(2)
_cell_angle_alpha                90
_cell_angle_beta                 106.85
_cell_angle_gamma                90
_cell_volume                     6550.8
loop_
_atom_site_label
_atom_site_type_symbol
_atom_site_fract_x
_atom_site_fract_y
_atom_site_fract_z
Cu1 Cu 0.53945(7) 0.36641(5) 0.20530(4)
Cu2 Cu 0.41094(7) 0.26336(5) 0.21297(4)
I1 I 0.56837(4) 0.24086(2) 0.179100(19)
I2 I 0.34918(3) 0.39679(2) 0.187612(19)
N1 N 0.5571(5) 0.6510(3) 0.1770(3)
H1 H 0.5348 0.6500 0.2061
S1 S 0.77820(14) 0.70053(10) 0.15666(7)
S2 S 0.58252(14) 0.44861(10) 0.14920(8)
O1 O 0.7060(6) 0.4841(3) 0.0593(3)
O2 O 0.6761(4) 0.6225(3) 0.0246(2)
C1 C 0.6958(10) 0.5086(6) 0.0021(4)
H2 H 0.6698 0.4728 -0.0254
H3 H 0.7596 0.5219 -0.0014
C2 C 0.6285(8) 0.5675(5) -0.0099(4)
H4 H 0.6125 0.5798 -0.0499
H5 H 0.5678 0.5563 -0.0012
C3 C 0.6247(6) 0.6817(5) 0.0160(3)
C4 C 0.5275(7) 0.6898(6) -0.0191(4)
H6 H 0.4945 0.6524 -0.0389
C5 C 0.4818(8) 0.7487(7) -0.0248(4)
H7 H 0.4175 0.7519 -0.0483
C6 C 0.5288(8) 0.8073(6) 0.0041(4)
H8 H 0.4961 0.8487 0.0004
C7 C 0.6257(7) 0.8008(5) 0.0383(4)
H9 H 0.6583 0.8391 0.0569
C8 C 0.6750(7) 0.7392(4) 0.0454(3)
C9 C 0.7743(6) 0.7323(4) 0.0855(3)
H10 H 0.8063 0.7763 0.0898
H11 H 0.8121 0.7017 0.0689
C10 C 0.6774(5) 0.7456(4) 0.1737(3)
H12 H 0.6925 0.7480 0.2149
H13 H 0.6762 0.7918 0.1597
C11 C 0.5751(5) 0.7161(4) 0.1503(3)
H14 H 0.5279 0.7495 0.1551
H15 H 0.5626 0.7087 0.1096
C12 C 0.5800(7) 0.5888(4) 0.1501(3)
H16 H 0.6480 0.5900 0.1496
H17 H 0.5385 0.5863 0.1110
C13 C 0.5629(6) 0.5262(4) 0.1831(3)
H18 H 0.4961 0.5270 0.1858
H19 H 0.6074 0.5277 0.2216
C14 C 0.7171(6) 0.4511(5) 0.1683(4)
H20 H 0.7391 0.4968 0.1636
H21 H 0.7451 0.4378 0.2078
C15 C 0.7507(7) 0.4020(5) 0.1291(5)
C16 C 0.7837(7) 0.3394(6) 0.1490(6)
H22 H 0.7868 0.3264 0.1859
C17 C 0.8146(9) 0.2924(6) 0.1099(9)
H23 H 0.8360 0.2485 0.1209
C18 C 0.8104(11) 0.3161(7) 0.0588(8)
H24 H 0.8339 0.2885 0.0348
C19 C 0.7749(11) 0.3765(6) 0.0394(7)
H25 H 0.7704 0.3889 0.0020
C20 C 0.7444(8) 0.4215(5) 0.0744(5)
Cu1A Cu 0.46055(7) 0.36641(5) 0.29470(4)
Cu1B Cu 0.03945(7) -0.13359(5) 0.20530(4)
Cu2A Cu 0.58906(7) 0.26336(5) 0.28703(4)
Cu2B Cu 0.91094(7) 0.76336(5) 0.21297(4)
I1A I 0.43163(4) 0.24086(2) 0.320900(19)
I2A I 0.65082(3) 0.39679(2) 0.312388(19)
N1B N 0.0571(5) 0.1510(3) 0.1770(3)
H1B H 0.0348 0.1500 0.2061
S1B S 0.27820(14) 0.20053(10) 0.15666(7)
S1C S 0.72180(14) 0.20053(10) 0.34334(7)
S2B S 0.08252(14) -0.05139(10) 0.14920(8)
S2A S 0.41748(14) 0.44861(10) 0.35080(8)
O1B O 0.2060(6) -0.0159(3) 0.0593(3)
O2B O 0.1761(4) 0.1225(3) 0.0246(2)
C1B C 0.1958(10) 0.0086(6) 0.0021(4)
H2B H 0.1698 -0.0272 -0.0254
H3B H 0.2596 0.0219 -0.0014
C2B C 0.1285(8) 0.0675(5) -0.0099(4)
H4B H 0.1125 0.0798 -0.0499
H5B H 0.0678 0.0563 -0.0012
C3B C 0.1247(6) 0.1817(5) 0.0160(3)
C4B C 0.0275(7) 0.1898(6) -0.0191(4)
H6B H -0.0055 0.1524 -0.0389
C5B C -0.0182(8) 0.2487(7) -0.0248(4)
H7B H -0.0825 0.2519 -0.0483
C6B C 0.0288(8) 0.3073(6) 0.0041(4)
H8B H -0.0039 0.3487 0.0004
C7B C 0.1257(7) 0.3008(5) 0.0383(4)
H9B H 0.1583 0.3391 0.0569
C8B C 0.1750(7) 0.2392(4) 0.0454(3)
C9B C 0.2743(6) 0.2323(4) 0.0855(3)
H10B H 0.3063 0.2763 0.0898
H11B H 0.3121 0.2017 0.0689
C10B C 0.1774(5) 0.2456(4) 0.1737(3)
H12B H 0.1925 0.2480 0.2149
H13B H 0.1762 0.2918 0.1597
C11B C 0.0751(5) 0.2161(4) 0.1503(3)
H14B H 0.0279 0.2495 0.1551
H15B H 0.0626 0.2087 0.1096
C12B C 0.0800(7) 0.0888(4) 0.1501(3)
H16B H 0.1480 0.0900 0.1496
H17B H 0.0385 0.0863 0.1110
C13B C 0.0629(6) 0.0262(4) 0.1831(3)
H18B H -0.0039 0.0270 0.1858
H19B H 0.1074 0.0277 0.2216
C14B C 0.2171(6) -0.0489(5) 0.1683(4)
H20B H 0.2391 -0.0032 0.1636
H21B H 0.2451 -0.0622 0.2078
C15B C 0.2507(7) -0.0980(5) 0.1291(5)
C16B C 0.2837(7) -0.1606(6) 0.1490(6)
H22B H 0.2868 -0.1736 0.1859
C17B C 0.3146(9) -0.2076(6) 0.1099(9)
H23B H 0.3360 -0.2515 0.1209
C18B C 0.3104(11) -0.1839(7) 0.0588(8)
H24B H 0.3339 -0.2115 0.0348
C19B C 0.2749(11) -0.1235(6) 0.0394(7)
H25B H 0.2704 -0.1111 0.0020
C20B C 0.2444(8) -0.0785(5) 0.0744(5)
loop_
_geom_bond_atom_site_label_1
_geom_bond_atom_site_label_2
_geom_bond_site_symmetry_1
_geom_bond_site_symmetry_2
Cu1 I1 1_555 1_555
Cu2 I1 1_555 1_555
I1 Cu2A 1_555 1_555
I2 Cu1 1_555 1_555
N1 H1 1_555 1_555
S1 C9 1_555 1_555
S2 Cu1 1_555 1_555
O1 C1 1_555 1_555
O2 C2 1_555 1_555
C1 H2 1_555 1_555
H3 C1 1_555 1_555
C2 C1 1_555 1_555
H4 C2 1_555 1_555
H5 C2 1_555 1_555
C3 O2 1_555 1_555
C4 C3 1_555 1_555
H6 C4 1_555 1_555
C5 C4 1_555 1_555
H7 C5 1_555 1_555
C6 C5 1_555 1_555
H8 C6 1_555 1_555
C7 C6 1_555 1_555
H9 C7 1_555 1_555
C8 C3 1_555 1_555
C9 C8 1_555 1_555
H10 C9 1_555 1_555
H11 C9 1_555 1_555
C10 S1 1_555 1_555
H12 C10 1_555 1_555
H13 C10 1_555 1_555
C11 N1 1_555 1_555
H14 C11 1_555 1_555
H15 C11 1_555 1_555
C12 N1 1_555 1_555
H16 C12 1_555 1_555
H17 C12 1_555 1_555
C13 S2 1_555 1_555
H18 C13 1_555 1_555
H19 C13 1_555 1_555
C14 S2 1_555 1_555
H20 C14 1_555 1_555
H21 C14 1_555 1_555
C15 C14 1_555 1_555
C16 C15 1_555 1_555
H22 C16 1_555 1_555
C17 C16 1_555 1_555
H23 C17 1_555 1_555
C18 C17 1_555 1_555
H24 C18 1_555 1_555
C19 C18 1_555 1_555
H25 C19 1_555 1_555
C20 O1 1_555 1_555
Cu1A I2 1_555 1_555
Cu1B S2B 1_555 1_555
Cu2A I1A 1_555 1_555
Cu2B S1 1_555 1_555
I1A Cu2 1_555 1_555
I2A Cu1 1_555 1_555
N1B H1B 1_555 1_555
S1B Cu2 1_555 1_555
S1C Cu2A 1_555 1_555
S2B C13B 1_555 1_555
S2A Cu1A 1_555 1_555
O1B C1B 1_555 1_555
O2B C2B 1_555 1_555
C1B H2B 1_555 1_555
H3B C1B 1_555 1_555
C2B C1B 1_555 1_555
H4B C2B 1_555 1_555
H5B C2B 1_555 1_555
C3B O2B 1_555 1_555
C4B C3B 1_555 1_555
H6B C4B 1_555 1_555
C5B C4B 1_555 1_555
H7B C5B 1_555 1_555
C6B C5B 1_555 1_555
H8B C6B 1_555 1_555
C7B C6B 1_555 1_555
H9B C7B 1_555 1_555
C8B C3B 1_555 1_555
C9B S1B 1_555 1_555
H10B C9B 1_555 1_555
H11B C9B 1_555 1_555
C10B S1B 1_555 1_555
H12B C10B 1_555 1_555
H13B C10B 1_555 1_555
C11B N1B 1_555 1_555
H14B C11B 1_555 1_555
H15B C11B 1_555 1_555
C12B N1B 1_555 1_555
H16B C12B 1_555 1_555
H17B C12B 1_555 1_555
C13B C12B 1_555 1_555
H18B C13B 1_555 1_555
H19B C13B 1_555 1_555
C14B S2B 1_555 1_555
H20B C14B 1_555 1_555
H21B C14B 1_555 1_555
C15B C14B 1_555 1_555
C16B C15B 1_555 1_555
H22B C16B 1_555 1_555
C17B C16B 1_555 1_555
H23B C17B 1_555 1_555
C18B C17B 1_555 1_555
H24B C18B 1_555 1_555
C19B C18B 1_555 1_555
H25B C19B 1_555 1_555
C20B O1B 1_555 1_555
Cu2 I2 1_555 1_555
C7 C8 1_555 1_555
C10 C11 1_555 1_555
C12 C13 1_555 1_555
C15 C20 1_555 1_555
C19 C20 1_555 1_555
Cu1A I1A 1_555 1_555
Cu1A I2A 1_555 1_555
Cu2A I2A 1_555 1_555
C7B C8B 1_555 1_555
C8B C9B 1_555 1_555
C10B C11B 1_555 1_555
C15B C20B 1_555 1_555
C19B C20B 1_555 1_555

#END
