
#######################################################################
#
#                 Cambridge Crystallographic Data Centre
#                                CCDC 
#
#######################################################################
#
# If this CIF has been generated from an entry in the Cambridge 
# Structural Database, then it will include bibliographic, chemical, 
# crystal, experimental, refinement or atomic coordinate data resulting 
# from the CCDC's data processing and validation procedures.
#
#######################################################################

data_IGOBOW
_symmetry_cell_setting           triclinic
_symmetry_space_group_name_H-M   'P -1'
_symmetry_Int_Tables_number      2
_space_group_name_Hall           '-P 1'
loop_
_symmetry_equiv_pos_site_id
_symmetry_equiv_pos_as_xyz
1 x,y,z
2 -x,-y,-z
_cell_length_a                   9.7044(11)
_cell_length_b                   10.1375(11)
_cell_length_c                   12.7131(14)
_cell_angle_alpha                104.412(2)
_cell_angle_beta                 99.681(2)
_cell_angle_gamma                94.493(2)
_cell_volume                     1184.59
loop_
_atom_site_label
_atom_site_type_symbol
_atom_site_fract_x
_atom_site_fract_y
_atom_site_fract_z
Cu1 Cu 0.40005(5) 0.44684(4) 0.38210(3)
Cl1 Cl 0.33932(8) 0.54294(9) 0.55040(7)
S1 S 0.39833(8) 0.54375(8) 0.23995(6)
S2 S 0.31855(8) 1.21470(7) 0.32558(6)
O1 O 0.2566(3) 0.9661(2) 0.08556(19)
O2 O 0.1140(2) 0.7009(2) 0.0904(2)
O3 O 0.3656(3) 0.9330(2) 0.3857(2)
C1 C 0.1460(4) 0.8798(3) 0.0030(3)
H1 H 0.1851 0.8113 -0.0476
H2 H 0.0944 0.9341 -0.0392
C2 C 0.0498(3) 0.8116(3) 0.0587(3)
H3 H 0.0328 0.8772 0.1236
H4 H -0.0399 0.7765 0.0087
C3 C 0.0390(3) 0.6219(3) 0.1394(3)
C4 C -0.0918(4) 0.6473(4) 0.1662(3)
H5 H -0.1338 0.7211 0.1500
C5 C -0.1588(4) 0.5623(5) 0.2169(3)
H6 H -0.2464 0.5788 0.2341
C6 C -0.0973(4) 0.4533(5) 0.2422(4)
H7 H -0.1421 0.3970 0.2771
C7 C 0.0325(4) 0.4291(4) 0.2149(3)
H8 H 0.0737 0.3551 0.2315
C8 C 0.1023(3) 0.5104(3) 0.1641(3)
C9 C 0.2415(3) 0.4806(3) 0.1318(3)
H9 H 0.2516 0.5199 0.0709
H10 H 0.2382 0.3820 0.1045
C10 C 0.4012(3) 0.7279(3) 0.2743(3)
H11 H 0.4981 0.7688 0.3041
H12 H 0.3719 0.7534 0.2061
C11 C 0.3124(4) 0.7919(3) 0.3549(3)
H13 H 0.2136 0.7773 0.3200
H14 H 0.3235 0.7546 0.4187
C12 C 0.2857(4) 1.0229(3) 0.4469(3)
H15 H 0.2907 1.0087 0.5200
H16 H 0.1877 1.0061 0.4095
C13 C 0.3463(4) 1.1669(3) 0.4557(3)
H17 H 0.4468 1.1776 0.4846
H18 H 0.3047 1.2299 0.5086
C14 C 0.4540(3) 1.1332(3) 0.2573(3)
H19 H 0.5469 1.1748 0.2992
H20 H 0.4450 1.0362 0.2540
C15 C 0.4363(3) 1.1515(3) 0.1422(3)
C16 C 0.5194(4) 1.2530(4) 0.1181(3)
H21 H 0.5872 1.3112 0.1744
C17 C 0.5043(4) 1.2700(4) 0.0125(4)
H22 H 0.5599 1.3400 -0.0018
C18 C 0.4062(4) 1.1826(4) -0.0709(3)
H23 H 0.3961 1.1933 -0.1422
C19 C 0.3221(4) 1.0785(4) -0.0508(3)
H24 H 0.2567 1.0191 -0.1082
C20 C 0.3361(3) 1.0638(3) 0.0558(3)
Cu1A Cu 0.59995(5) 0.55316(4) 0.61790(3)
Cu1_2 Cu 0.40005(5) 1.44684(4) 0.38210(3)
Cl1A Cl 0.66068(8) 0.45706(9) 0.44960(7)
S2_2 S 0.31855(8) 0.21470(7) 0.32558(6)
N1 N 0.1059(8) 0.9154(9) 0.6816(6)
C21 C 0.0664(7) 0.8298(9) 0.6119(6)
C22 C 0.0165(6) 0.7180(7) 0.5159(5)
H25 H -0.0179 0.7529 0.4541
H26 H -0.0584 0.6603 0.5291
H27 H 0.0922 0.6656 0.4998
loop_
_geom_bond_atom_site_label_1
_geom_bond_atom_site_label_2
_geom_bond_site_symmetry_1
_geom_bond_site_symmetry_2
Cu1 Cl1 1_555 1_555
Cl1 Cu1A 1_555 1_555
S1 Cu1 1_555 1_555
S2 C13 1_555 1_555
O1 C1 1_555 1_555
O2 C2 1_555 1_555
O3 C11 1_555 1_555
C1 H1 1_555 1_555
H2 C1 1_555 1_555
C2 C1 1_555 1_555
H3 C2 1_555 1_555
H4 C2 1_555 1_555
C3 O2 1_555 1_555
C4 C3 1_555 1_555
H5 C4 1_555 1_555
C5 C4 1_555 1_555
H6 C5 1_555 1_555
C6 C5 1_555 1_555
H7 C6 1_555 1_555
C7 C6 1_555 1_555
H8 C7 1_555 1_555
C8 C3 1_555 1_555
C9 S1 1_555 1_555
H9 C9 1_555 1_555
H10 C9 1_555 1_555
C10 S1 1_555 1_555
H11 C10 1_555 1_555
H12 C10 1_555 1_555
C11 C10 1_555 1_555
H13 C11 1_555 1_555
H14 C11 1_555 1_555
C12 O3 1_555 1_555
H15 C12 1_555 1_555
H16 C12 1_555 1_555
C13 C12 1_555 1_555
H17 C13 1_555 1_555
H18 C13 1_555 1_555
C14 S2 1_555 1_555
H19 C14 1_555 1_555
H20 C14 1_555 1_555
C15 C14 1_555 1_555
C16 C15 1_555 1_555
H21 C16 1_555 1_555
C17 C16 1_555 1_555
H22 C17 1_555 1_555
C18 C17 1_555 1_555
H23 C18 1_555 1_555
C19 C18 1_555 1_555
H24 C19 1_555 1_555
C20 O1 1_555 1_555
N1 C21 1_555 1_555
C21 C22 1_555 1_555
C22 H25 1_555 1_555
H26 C22 1_555 1_555
H27 C22 1_555 1_555
Cu1A Cl1A 1_555 1_555
Cu1_2 S2 1_555 1_555
Cl1A Cu1 1_555 1_555
S2_2 Cu1 1_555 1_555
C7 C8 1_555 1_555
C8 C9 1_555 1_555
C15 C20 1_555 1_555
C19 C20 1_555 1_555

#END
