
#######################################################################
#
#                 Cambridge Crystallographic Data Centre
#                                CCDC 
#
#######################################################################
#
# If this CIF has been generated from an entry in the Cambridge 
# Structural Database, then it will include bibliographic, chemical, 
# crystal, experimental, refinement or atomic coordinate data resulting 
# from the CCDC's data processing and validation procedures.
#
#######################################################################

data_IGOCUC
_symmetry_cell_setting           triclinic
_symmetry_space_group_name_H-M   'P 1'
_symmetry_Int_Tables_number      1
_space_group_name_Hall           'P 1'
loop_
_symmetry_equiv_pos_site_id
_symmetry_equiv_pos_as_xyz
1 x,y,z
_cell_length_a                   8.211(7)
_cell_length_b                   8.327(7)
_cell_length_c                   9.356(6)
_cell_angle_alpha                95.96(3)
_cell_angle_beta                 107.60(2)
_cell_angle_gamma                116.67(2)
_cell_volume                     522.887
loop_
_atom_site_label
_atom_site_type_symbol
_atom_site_fract_x
_atom_site_fract_y
_atom_site_fract_z
Cu1 Cu 1.44686(10) 0.42855(10) 0.32323(9)
N1 N 1.2541(9) 0.4512(9) 0.4036(8)
C1 C 1.2967(12) 0.4868(12) 0.5567(9)
H1 H 1.4220 0.5108 0.6259
C2 C 1.1668(14) 0.4898(12) 0.6165(11)
C3 C 0.9833(12) 0.4501(11) 0.5189(9)
H2 H 0.8890 0.4486 0.5585
C4 C 0.9413(14) 0.4128(13) 0.3636(10)
H3 H 0.8152 0.3840 0.2921
C5 C 1.0783(13) 0.4163(11) 0.3097(10)
H4 H 1.0467 0.3928 0.2005
O1 O 1.2220(10) 0.5430(9) 0.7742(7)
N2 N 1.1503(11) 0.2438(10) 0.7676(8)
C6 C 1.2236(14) 0.4142(13) 0.8500(11)
C7 C 1.3099(13) 0.4718(12) 1.0085(10)
H5 H 1.3605 0.5979 1.0625
N3 N 1.3238(10) 0.3532(9) 1.0874(8)
C8 C 1.2567(12) 0.1813(11) 1.0074(9)
H6 H 1.2694 0.0932 1.0599
C9 C 1.1687(11) 0.1308(11) 0.8482(9)
O2 O 1.0924(9) -0.0509(7) 0.7735(6)
N4 N 0.7134(9) -0.3401(9) 0.3997(7)
C10 C 0.8134(12) -0.2604(10) 0.5506(9)
H7 H 0.7513 -0.3096 0.6190
C11 C 1.0011(13) -0.1112(11) 0.6139(10)
C12 C 1.0942(13) -0.0331(12) 0.5193(10)
H8 H 1.2241 0.0733 0.5608
C13 C 0.9913(14) -0.1157(12) 0.3629(10)
H9 H 1.0495 -0.0686 0.2918
C14 C 0.8031(12) -0.2673(11) 0.3084(10)
H10 H 0.7339 -0.3227 0.1987
N5 N 1.4763(10) 0.2216(10) 0.3820(9)
C15 C 1.5060(15) 0.1115(14) 0.4194(12)
C16 C 1.547(3) -0.0257(19) 0.4707(18)
H11 H 1.6565 0.0322 0.5740
H12 H 1.5847 -0.0786 0.3963
H13 H 1.4290 -0.1256 0.4774
N3_2 N 1.3238(10) 0.3532(9) 0.0874(8)
N4_2 N 1.7134(9) 0.6599(9) 0.3997(7)
Cu1_2 Cu 1.44686(10) 0.42855(10) 1.32323(9)
Cu1_3 Cu 0.44686(10) -0.57145(10) 0.32323(9)
N6 N 1.553(2) 0.9545(14) 1.1128(15)
C17 C 1.6235(19) 0.9565(15) 1.0296(15)
C18 C 1.715(3) 0.957(2) 0.923(2)
H14 H 1.7709 1.0808 0.9047
H15 H 1.6156 0.8620 0.8242
H16 H 1.8203 0.9293 0.9668
B1 B 0.6946(14) 0.3857(14) 0.8550(11)
F1 F 0.5342(11) 0.2193(11) 0.7759(9)
F2 F 0.740(3) 0.4001(17) 1.0063(11)
F3 F 0.670(2) 0.5271(17) 0.827(2)
F4 F 0.8402(19) 0.393(2) 0.820(2)
O3 O 1.145(2) 0.7739(19) 1.1052(17)
H17 H 1.0197 0.6360 1.0466
H18 H 1.0750 0.7895 1.0917
F5? F 0.653(4) 0.475(4) 0.949(4)
F6? F 0.734(4) 0.477(4) 0.751(3)
F7? F 0.847(3) 0.372(3) 0.933(3)
loop_
_geom_bond_atom_site_label_1
_geom_bond_atom_site_label_2
_geom_bond_site_symmetry_1
_geom_bond_site_symmetry_2
Cu1 N1 1_555 1_555
N1 C1 1_555 1_555
C1 H1 1_555 1_555
C2 C1 1_555 1_555
C3 C2 1_555 1_555
H2 C3 1_555 1_555
C4 C3 1_555 1_555
H3 C4 1_555 1_555
C5 N1 1_555 1_555
H4 C5 1_555 1_555
O1 C2 1_555 1_555
N2 C6 1_555 1_555
C6 O1 1_555 1_555
C7 C6 1_555 1_555
H5 C7 1_555 1_555
N3 C7 1_555 1_555
C8 N3 1_555 1_555
H6 C8 1_555 1_555
C9 N2 1_555 1_555
O2 C9 1_555 1_555
N4 C10 1_555 1_555
C10 H7 1_555 1_555
C11 O2 1_555 1_555
C12 C11 1_555 1_555
H8 C12 1_555 1_555
C13 C12 1_555 1_555
H9 C13 1_555 1_555
C14 N4 1_555 1_555
H10 C14 1_555 1_555
N5 Cu1 1_555 1_555
C15 N5 1_555 1_555
C16 C15 1_555 1_555
H11 C16 1_555 1_555
H12 C16 1_555 1_555
H13 C16 1_555 1_555
N6 C17 1_555 1_555
C17 C18 1_555 1_555
C18 H14 1_555 1_555
H15 C18 1_555 1_555
H16 C18 1_555 1_555
B1 F1 1_555 1_555
F2 B1 1_555 1_555
F3 B1 1_555 1_555
F4 B1 1_555 1_555
O3 H17 1_555 1_555
H18 O3 1_555 1_555
N3_2 Cu1 1_555 1_555
N4_2 Cu1 1_555 1_555
Cu1_2 N3 1_555 1_555
Cu1_3 N4 1_555 1_555
C4 C5 1_555 1_555
C8 C9 1_555 1_555
C10 C11 1_555 1_555
C13 C14 1_555 1_555

#END
