
#######################################################################
#
#                 Cambridge Crystallographic Data Centre
#                                CCDC 
#
#######################################################################
#
# If this CIF has been generated from an entry in the Cambridge 
# Structural Database, then it will include bibliographic, chemical, 
# crystal, experimental, refinement or atomic coordinate data resulting 
# from the CCDC's data processing and validation procedures.
#
#######################################################################

data_IGODAJ
_symmetry_cell_setting           monoclinic
_symmetry_space_group_name_H-M   'P 21/n'
_symmetry_Int_Tables_number      14
_space_group_name_Hall           '-P 2yn'
loop_
_symmetry_equiv_pos_site_id
_symmetry_equiv_pos_as_xyz
1 x,y,z
2 1/2+x,1/2-y,1/2+z
3 -x,-y,-z
4 1/2-x,1/2+y,1/2-z
_cell_length_a                   8.929(4)
_cell_length_b                   18.100(9)
_cell_length_c                   10.233(4)
_cell_angle_alpha                90
_cell_angle_beta                 107.113(12)
_cell_angle_gamma                90
_cell_volume                     1580.59
loop_
_atom_site_label
_atom_site_type_symbol
_atom_site_fract_x
_atom_site_fract_y
_atom_site_fract_z
Ag1 Ag 0.578406(16) 0.048286(8) 0.258575(13)
N1 N 0.37398(19) 0.12623(8) 0.20838(15)
C1 C 0.3303(2) 0.15658(10) 0.31188(17)
H1 H 0.3792 0.1401 0.4026
C2 C 0.2177(2) 0.21044(10) 0.29032(18)
C3 C 0.1406(2) 0.23476(11) 0.1598(2)
H2 H 0.0596 0.2707 0.1434
C4 C 0.1872(3) 0.20407(12) 0.05425(19)
H3 H 0.1393 0.2196 -0.0372
C5 C 0.3029(2) 0.15102(11) 0.08129(18)
H4 H 0.3337 0.1311 0.0072
O1 O 0.18190(16) 0.23641(7) 0.40570(13)
N2 N 0.27301(17) 0.35135(8) 0.36353(14)
C6 C 0.2165(2) 0.30846(10) 0.44212(17)
C7 C 0.1899(2) 0.33261(11) 0.56209(18)
H5 H 0.1514 0.2993 0.6164
N3 N 0.21880(19) 0.40284(9) 0.60075(15)
C8 C 0.2732(2) 0.44764(10) 0.52234(19)
H6 H 0.2934 0.4981 0.5470
C9 C 0.3003(2) 0.42063(10) 0.40450(17)
O2 O 0.35687(16) 0.46899(7) 0.32730(13)
N4 N 0.27141(19) 0.43522(10) -0.03734(16)
C10 C 0.2590(2) 0.45679(10) 0.0850(2)
H7 H 0.1683 0.4830 0.0890
C11 C 0.3751(2) 0.44173(10) 0.20430(19)
C12 C 0.5082(2) 0.40473(11) 0.20158(18)
H8 H 0.5890 0.3944 0.2835
C13 C 0.5212(2) 0.38290(12) 0.0756(2)
H9 H 0.6118 0.3575 0.0691
C14 C 0.4008(2) 0.39868(12) -0.03958(19)
H10 H 0.4098 0.3828 -0.1254
N5 N 0.60178(17) -0.11655(9) 0.25952(14)
O3 O 0.60142(18) -0.06933(8) 0.16863(13)
O4 O 0.56496(17) -0.09697(9) 0.36268(13)
O5 O 0.63949(17) -0.18154(8) 0.24474(15)
N3A N 0.71880(19) 0.09716(9) 0.10075(15)
N4A N 0.77141(19) 0.06478(10) 0.46266(16)
Ag1A Ag 0.078406(16) 0.451714(8) 0.758575(13)
Ag1A_2 Ag 0.078406(16) 0.451714(8) -0.241425(13)
loop_
_geom_bond_atom_site_label_1
_geom_bond_atom_site_label_2
_geom_bond_site_symmetry_1
_geom_bond_site_symmetry_2
Ag1 N1 1_555 1_555
N1 C1 1_555 1_555
C1 H1 1_555 1_555
C2 C1 1_555 1_555
C3 C2 1_555 1_555
H2 C3 1_555 1_555
C4 C3 1_555 1_555
H3 C4 1_555 1_555
C5 N1 1_555 1_555
H4 C5 1_555 1_555
O1 C2 1_555 1_555
N2 C6 1_555 1_555
C6 O1 1_555 1_555
C7 C6 1_555 1_555
H5 C7 1_555 1_555
N3 C7 1_555 1_555
C8 N3 1_555 1_555
H6 C8 1_555 1_555
C9 N2 1_555 1_555
O2 C9 1_555 1_555
N4 C10 1_555 1_555
C10 H7 1_555 1_555
C11 O2 1_555 1_555
C12 C11 1_555 1_555
H8 C12 1_555 1_555
C13 C12 1_555 1_555
H9 C13 1_555 1_555
C14 N4 1_555 1_555
H10 C14 1_555 1_555
N5 O3 1_555 1_555
O3 Ag1 1_555 1_555
O4 N5 1_555 1_555
O5 N5 1_555 1_555
N3A Ag1 1_555 1_555
N4A Ag1 1_555 1_555
Ag1A N3 1_555 1_555
Ag1A_2 N4 1_555 1_555
C4 C5 1_555 1_555
C8 C9 1_555 1_555
C10 C11 1_555 1_555
C13 C14 1_555 1_555

#END
