
#######################################################################
#
#                 Cambridge Crystallographic Data Centre
#                                CCDC 
#
#######################################################################
#
# If this CIF has been generated from an entry in the Cambridge 
# Structural Database, then it will include bibliographic, chemical, 
# crystal, experimental, refinement or atomic coordinate data resulting 
# from the CCDC's data processing and validation procedures.
#
#######################################################################

data_IGODUF
_symmetry_cell_setting           tetragonal
_symmetry_space_group_name_H-M   'P 4/n c c'
_symmetry_Int_Tables_number      130
_space_group_name_Hall           '-P 4a 2ac'
loop_
_symmetry_equiv_pos_site_id
_symmetry_equiv_pos_as_xyz
1 x,y,z
2 1/2-x,1/2-y,z
3 1/2-y,x,z
4 y,1/2-x,z
5 -x,1/2+y,1/2-z
6 1/2+x,-y,1/2-z
7 1/2+y,1/2+x,1/2-z
8 -y,-x,1/2-z
9 -x,-y,-z
10 1/2+x,1/2+y,-z
11 1/2+y,-x,-z
12 -y,1/2+x,-z
13 x,1/2-y,1/2+z
14 1/2-x,y,1/2+z
15 1/2-y,1/2-x,1/2+z
16 y,x,1/2+z
_cell_length_a                   14.5312(2)
_cell_length_b                   14.5312(2)
_cell_length_c                   18.0950(6)
_cell_angle_alpha                90
_cell_angle_beta                 90
_cell_angle_gamma                90
_cell_volume                     3820.86
loop_
_atom_site_label
_atom_site_type_symbol
_atom_site_fract_x
_atom_site_fract_y
_atom_site_fract_z
Mn1 Mn 0.940719(18) 0.059281(18) 0.2500
Fe1 Fe 1.2500 0.2500 0.25449(2)
O1 O 0.86762(9) 0.11284(9) 0.17502(9)
C1 C 0.83866(13) 0.07040(14) 0.11505(12)
C2 C 0.88476(13) -0.00630(14) 0.08339(11)
N1 N 1.00827(10) -0.01574(10) 0.17355(9)
C3 C 1.10473(13) -0.04320(14) 0.18863(12)
C4 C 1.12742(12) 0.19914(12) 0.24544(9)
C5 C 0.85052(16) -0.04660(19) 0.01807(13)
C6 C 0.97242(14) -0.03774(14) 0.11113(11)
C7 C 0.76100(15) 0.10486(17) 0.07755(15)
N2 N 1.05585(11) 0.16605(12) 0.24081(10)
C8 C 0.72991(17) 0.0642(2) 0.01362(15)
N3 N 1.2500 0.2500 0.34644(18)
O2 O 1.2500 0.2500 0.40919(17)
C9 C 1.11392(14) -0.11392(14) 0.2500
C10 C 0.77275(18) -0.0125(2) -0.01577(15)
C11 C 1.2500 0.2500 0.1466(2)
N4 N 1.2500 0.2500 0.0841(2)
H1 H 1.1314(14) -0.0673(14) 0.1446(12)
H2 H 1.0068(13) -0.0768(14) 0.0789(10)
H3 H 1.1372(13) 0.0132(14) 0.2007(12)
H4 H 1.1089(18) -0.1762(18) 0.2280(14)
H5 H 0.8825(18) -0.0988(19) -0.0011(12)
H6 H 0.7531(18) -0.0394(17) -0.0564(14)
H7 H 0.7337(16) 0.1559(17) 0.0953(12)
H8 H 0.6772(18) 0.0884(17) -0.0112(14)
O1G O 0.88716(9) 0.13238(9) 0.32498(9)
C1G C 0.92960(14) 0.16134(13) 0.38495(12)
C2G C 1.00630(14) 0.11524(13) 0.41661(11)
C5G C 1.04660(19) 0.14948(16) 0.48193(13)
C6G C 1.03774(14) 0.02758(14) 0.38887(11)
C7G C 0.89514(17) 0.23900(15) 0.42245(15)
C8G C 0.9358(2) 0.27009(17) 0.48638(15)
C10G C 1.0125(2) 0.22725(18) 0.51577(15)
H2G H 1.0768(14) -0.0068(13) 0.4211(10)
H5G H 1.0988(19) 0.1175(18) 0.5011(12)
H6G H 1.0394(17) 0.2469(18) 0.5564(14)
H7G H 0.8441(17) 0.2663(16) 0.4047(12)
H8G H 0.9116(17) 0.3228(18) 0.5112(14)
N1G N 1.01574(10) -0.00827(10) 0.32645(9)
C3G C 1.04320(14) -0.10473(13) 0.31137(12)
H1G H 1.0673(14) -0.1314(14) 0.3554(12)
H3G H 0.9868(14) -0.1372(13) 0.2993(12)
H4G H 1.1762(18) -0.1089(18) 0.2720(14)
Mn1A Mn 1.559281(18) 0.440719(18) 0.2500
O1A O 1.63238(9) 0.38716(9) 0.17502(9)
C1A C 1.66134(13) 0.42960(14) 0.11505(12)
C2A C 1.61524(13) 0.50630(14) 0.08339(11)
N1A N 1.49173(10) 0.51574(10) 0.17355(9)
C3A C 1.39527(13) 0.54320(14) 0.18863(12)
C4A C 1.37258(12) 0.30086(12) 0.24544(9)
C5A C 1.64948(16) 0.54660(19) 0.01807(13)
C6A C 1.52758(14) 0.53774(14) 0.11113(11)
C7A C 1.73900(15) 0.39514(17) 0.07755(15)
N2A N 1.44415(11) 0.33395(12) 0.24081(10)
C8A C 1.77009(17) 0.4358(2) 0.01362(15)
C9A C 1.38608(14) 0.61392(14) 0.2500
C10A C 1.72725(18) 0.5125(2) -0.01577(15)
H1A H 1.3686(14) 0.5673(14) 0.1446(12)
H2A H 1.4932(13) 0.5768(14) 0.0789(10)
H3A H 1.3628(13) 0.4868(14) 0.2007(12)
H4A H 1.3911(18) 0.6762(18) 0.2280(14)
H5A H 1.6175(18) 0.5988(19) -0.0011(12)
H6A H 1.7469(18) 0.5394(17) -0.0564(14)
H7A H 1.7663(16) 0.3441(17) 0.0953(12)
H8A H 1.8228(18) 0.4116(17) -0.0112(14)
O1F O 1.61284(9) 0.36762(9) 0.32498(9)
C1F C 1.57040(14) 0.33866(13) 0.38495(12)
C2F C 1.49370(14) 0.38476(13) 0.41661(11)
C5F C 1.45340(19) 0.35052(16) 0.48193(13)
C6F C 1.46226(14) 0.47242(14) 0.38887(11)
C7F C 1.60486(17) 0.26100(15) 0.42245(15)
C8F C 1.5642(2) 0.22991(17) 0.48638(15)
C10F C 1.4875(2) 0.27275(18) 0.51577(15)
H2F H 1.4232(14) 0.5068(13) 0.4211(10)
H5F H 1.4012(19) 0.3825(18) 0.5011(12)
H6F H 1.4606(17) 0.2531(18) 0.5564(14)
H7F H 1.6559(17) 0.2337(16) 0.4047(12)
H8F H 1.5884(17) 0.1772(18) 0.5112(14)
N1F N 1.48426(10) 0.50827(10) 0.32645(9)
C3F C 1.45680(14) 0.60473(13) 0.31137(12)
H1F H 1.4327(14) 0.6314(14) 0.3554(12)
H3F H 1.5132(14) 0.6372(13) 0.2993(12)
H4F H 1.3238(18) 0.6089(18) 0.2720(14)
C4B C 1.30086(12) 0.12742(12) 0.24544(9)
N2B N 1.33395(12) 0.05585(11) 0.24081(10)
C4C C 1.19914(12) 0.37258(12) 0.24544(9)
N2C N 1.16605(12) 0.44415(11) 0.24081(10)
Mn1B Mn 1.440719(18) -0.059281(18) 0.2500
Mn1C Mn 1.059281(18) 0.559281(18) 0.2500
N2F N 1.66605(12) 0.55585(11) 0.25919(10)
N2G N 0.83395(12) -0.05585(11) 0.25919(10)
loop_
_geom_bond_atom_site_label_1
_geom_bond_atom_site_label_2
_geom_bond_site_symmetry_1
_geom_bond_site_symmetry_2
Mn1 O1 1_555 1_555
Fe1 C4 1_555 1_555
O1 C1 1_555 1_555
C1 C2 1_555 1_555
C2 C5 1_555 1_555
N1 Mn1 1_555 1_555
C3 N1 1_555 1_555
C4 N2 1_555 1_555
C5 C10 1_555 1_555
C6 C2 1_555 1_555
C7 C1 1_555 1_555
N2 Mn1 1_555 1_555
C8 C7 1_555 1_555
N3 Fe1 1_555 1_555
O2 N3 1_555 1_555
C9 C3 1_555 1_555
C10 C8 1_555 1_555
C11 Fe1 1_555 1_555
N4 C11 1_555 1_555
H1 C3 1_555 1_555
H2 C6 1_555 1_555
H3 C3 1_555 1_555
H4 C9 1_555 1_555
H5 C5 1_555 1_555
H6 C10 1_555 1_555
H7 C7 1_555 1_555
H8 C8 1_555 1_555
O1G Mn1 1_555 1_555
C1G O1G 1_555 1_555
C2G C1G 1_555 1_555
C5G C2G 1_555 1_555
C6G C2G 1_555 1_555
C7G C1G 1_555 1_555
C8G C7G 1_555 1_555
C10G C5G 1_555 1_555
H2G C6G 1_555 1_555
H5G C5G 1_555 1_555
H6G C10G 1_555 1_555
H7G C7G 1_555 1_555
H8G C8G 1_555 1_555
N1G Mn1 1_555 1_555
C3G C9 1_555 1_555
H1G C3G 1_555 1_555
H3G C3G 1_555 1_555
H4G C9 1_555 1_555
Mn1A O1A 1_555 1_555
O1A C1A 1_555 1_555
C1A C2A 1_555 1_555
C2A C5A 1_555 1_555
N1A Mn1A 1_555 1_555
C3A N1A 1_555 1_555
C4A Fe1 1_555 1_555
C5A C10A 1_555 1_555
C6A C2A 1_555 1_555
C7A C1A 1_555 1_555
N2A Mn1A 1_555 1_555
C8A C7A 1_555 1_555
C9A C3A 1_555 1_555
C10A C8A 1_555 1_555
H1A C3A 1_555 1_555
H2A C6A 1_555 1_555
H3A C3A 1_555 1_555
H4A C9A 1_555 1_555
H5A C5A 1_555 1_555
H6A C10A 1_555 1_555
H7A C7A 1_555 1_555
H8A C8A 1_555 1_555
O1F Mn1A 1_555 1_555
C1F O1F 1_555 1_555
C2F C1F 1_555 1_555
C5F C2F 1_555 1_555
C6F C2F 1_555 1_555
C7F C1F 1_555 1_555
C8F C7F 1_555 1_555
C10F C5F 1_555 1_555
H2F C6F 1_555 1_555
H5F C5F 1_555 1_555
H6F C10F 1_555 1_555
H7F C7F 1_555 1_555
H8F C8F 1_555 1_555
N1F Mn1A 1_555 1_555
C3F C9A 1_555 1_555
H1F C3F 1_555 1_555
H3F C3F 1_555 1_555
H4F C9A 1_555 1_555
C4B Fe1 1_555 1_555
N2B C4B 1_555 1_555
C4C Fe1 1_555 1_555
N2C C4C 1_555 1_555
Mn1B N2B 1_555 1_555
Mn1C N2C 1_555 1_555
N2F Mn1A 1_555 1_555
N2G Mn1 1_555 1_555
N1 C6 1_555 1_555
C6G N1G 1_555 1_555
C8G C10G 1_555 1_555
N1G C3G 1_555 1_555
N1A C6A 1_555 1_555
C4A N2A 1_555 1_555
C6F N1F 1_555 1_555
C8F C10F 1_555 1_555
N1F C3F 1_555 1_555

#END
