
#######################################################################
#
#                 Cambridge Crystallographic Data Centre
#                                CCDC 
#
#######################################################################
#
# If this CIF has been generated from an entry in the Cambridge 
# Structural Database, then it will include bibliographic, chemical, 
# crystal, experimental, refinement or atomic coordinate data resulting 
# from the CCDC's data processing and validation procedures.
#
#######################################################################

data_IGODAK
_symmetry_cell_setting           monoclinic
_symmetry_space_group_name_H-M   'P 21/c'
_symmetry_Int_Tables_number      14
_space_group_name_Hall           '-P 2ybc'
loop_
_symmetry_equiv_pos_site_id
_symmetry_equiv_pos_as_xyz
1 x,y,z
2 -x,1/2+y,1/2-z
3 -x,-y,-z
4 x,1/2-y,1/2+z
_cell_length_a                   9.812(2)
_cell_length_b                   8.6012(17)
_cell_length_c                   12.571(3)
_cell_angle_alpha                90
_cell_angle_beta                 96.91(3)
_cell_angle_gamma                90
_cell_volume                     1053.22
loop_
_atom_site_label
_atom_site_type_symbol
_atom_site_fract_x
_atom_site_fract_y
_atom_site_fract_z
Zn1 Zn 0.67061(9) 0.09534(9) 0.19691(6)
Cl1 Cl 0.8786(2) 0.1417(3) 0.27857(18)
N1 N 0.4350(6) 0.4772(7) 0.2036(4)
N2 N 0.4976(6) 0.3446(7) 0.2341(4)
N3 N 0.5614(6) 0.2861(7) 0.1565(4)
O1 O 0.6913(6) -0.0082(6) 0.0608(4)
C1 C 0.5397(8) 0.3848(7) 0.0687(5)
C2 C 0.4582(7) 0.5060(8) 0.0985(4)
C3 C 0.5853(8) 0.3725(8) -0.0317(5)
H1 H 0.6392 0.2910 -0.0514
C4 C 0.7606(8) -0.1288(9) 0.0464(5)
N4 N 0.8231(8) -0.1420(8) -0.0385(5)
C5 C 0.9023(11) -0.2792(11) -0.0609(7)
H2 H 0.9398 -0.2649 -0.1273
H3 H 0.8435 -0.3688 -0.0662
H4 H 0.9755 -0.2943 -0.0040
C6 C 0.7704(10) -0.2565(11) 0.1281(6)
H5 H 0.8256 -0.3395 0.1054
H6 H 0.6801 -0.2948 0.1354
H7 H 0.8118 -0.2170 0.1958
C7 C 0.8149(13) -0.0148(12) -0.1154(7)
H8 H 0.8662 -0.0411 -0.1732
H9 H 0.8524 0.0778 -0.0806
H10 H 0.7207 0.0029 -0.1430
Zn1B Zn 0.32939(9) 0.90466(9) -0.19691(6)
Zn1A Zn 0.32939(9) 0.59534(9) 0.30309(6)
Zn1C Zn 0.67061(9) 0.40466(9) -0.30309(6)
Cl1B Cl 0.1214(2) 0.8583(3) -0.27857(18)
N1B N 0.5650(6) 0.5228(7) -0.2036(4)
N1A N 0.5650(6) -0.0228(7) 0.2964(4)
N1C N 0.4350(6) 1.0228(7) -0.2964(4)
N2B N 0.5024(6) 0.6554(7) -0.2341(4)
N3B N 0.4386(6) 0.7139(7) -0.1565(4)
O1B O 0.3087(6) 1.0082(6) -0.0608(4)
C1B C 0.4603(8) 0.6152(7) -0.0687(5)
C2B C 0.5418(7) 0.4940(8) -0.0985(4)
C3B C 0.4147(8) 0.6275(8) 0.0317(5)
H1B H 0.3608 0.7090 0.0514
C4B C 0.2394(8) 1.1288(9) -0.0464(5)
N4B N 0.1769(8) 1.1420(8) 0.0385(5)
C5B C 0.0977(11) 1.2792(11) 0.0609(7)
H2B H 0.0602 1.2649 0.1273
H3B H 0.1565 1.3688 0.0662
H4B H 0.0245 1.2943 0.0040
C6B C 0.2296(10) 1.2565(11) -0.1281(6)
H5B H 0.1744 1.3395 -0.1054
H6B H 0.3199 1.2948 -0.1354
H7B H 0.1882 1.2170 -0.1958
C7B C 0.1851(13) 1.0148(12) 0.1154(7)
H8B H 0.1338 1.0411 0.1732
H9B H 0.1476 0.9222 0.0806
H10B H 0.2793 0.9971 0.1430
loop_
_geom_bond_atom_site_label_1
_geom_bond_atom_site_label_2
_geom_bond_site_symmetry_1
_geom_bond_site_symmetry_2
Zn1 Cl1 1_555 1_555
N1 N2 1_555 1_555
N2 N3 1_555 1_555
N3 Zn1 1_555 1_555
O1 Zn1 1_555 1_555
C1 N3 1_555 1_555
C2 N1 1_555 1_555
C3 C1 1_555 1_555
H1 C3 1_555 1_555
C4 O1 1_555 1_555
N4 C4 1_555 1_555
C5 N4 1_555 1_555
H2 C5 1_555 1_555
H3 C5 1_555 1_555
H4 C5 1_555 1_555
C6 C4 1_555 1_555
H5 C6 1_555 1_555
H6 C6 1_555 1_555
H7 C6 1_555 1_555
C7 N4 1_555 1_555
H8 C7 1_555 1_555
H9 C7 1_555 1_555
H10 C7 1_555 1_555
Zn1B Cl1B 1_555 1_555
Zn1A N1 1_555 1_555
Zn1C N1B 1_555 1_555
N1B N2B 1_555 1_555
N1A Zn1 1_555 1_555
N1C Zn1B 1_555 1_555
N2B N3B 1_555 1_555
N3B Zn1B 1_555 1_555
O1B Zn1B 1_555 1_555
C1B N3B 1_555 1_555
C2B C3 1_555 1_555
C3B C2 1_555 1_555
H1B C3B 1_555 1_555
C4B O1B 1_555 1_555
N4B C4B 1_555 1_555
C5B N4B 1_555 1_555
H2B C5B 1_555 1_555
H3B C5B 1_555 1_555
H4B C5B 1_555 1_555
C6B C4B 1_555 1_555
H5B C6B 1_555 1_555
H6B C6B 1_555 1_555
H7B C6B 1_555 1_555
C7B N4B 1_555 1_555
H8B C7B 1_555 1_555
H9B C7B 1_555 1_555
H10B C7B 1_555 1_555
C1 C2 1_555 1_555
N1B C2B 1_555 1_555
C1B C2B 1_555 1_555
C1B C3B 1_555 1_555

#END
