
#######################################################################
#
#                 Cambridge Crystallographic Data Centre
#                                CCDC 
#
#######################################################################
#
# If this CIF has been generated from an entry in the Cambridge 
# Structural Database, then it will include bibliographic, chemical, 
# crystal, experimental, refinement or atomic coordinate data resulting 
# from the CCDC's data processing and validation procedures.
#
#######################################################################

data_IGOFER
_symmetry_cell_setting           orthorhombic
_symmetry_space_group_name_H-M   'P n a 21'
_symmetry_Int_Tables_number      33
_space_group_name_Hall           'P 2c -2n'
loop_
_symmetry_equiv_pos_site_id
_symmetry_equiv_pos_as_xyz
1 x,y,z
2 -x,-y,1/2+z
3 1/2-x,1/2+y,1/2+z
4 1/2+x,1/2-y,z
_cell_length_a                   26.8212(19)
_cell_length_b                   17.721(2)
_cell_length_c                   10.2330(8)
_cell_angle_alpha                90
_cell_angle_beta                 90
_cell_angle_gamma                90
_cell_volume                     4863.73
loop_
_atom_site_label
_atom_site_type_symbol
_atom_site_fract_x
_atom_site_fract_y
_atom_site_fract_z
C1 C 0.53176(11) 0.08408(17) 0.7448(3)
C2 C 0.56282(11) 0.39094(17) 0.7563(4)
C3 C 0.38981(12) 0.06395(18) 0.9146(4)
H1 H 0.3653 0.0487 0.8488
H2 H 0.3729 0.0731 0.9980
H3 H 0.4145 0.0238 0.9257
C4 C 0.41517(10) 0.13418(16) 0.8712(3)
C5 C 0.39071(10) 0.20763(16) 0.8838(3)
C6 C 0.33963(11) 0.21506(18) 0.9077(4)
H4 H 0.3190 0.1721 0.9198
C7 C 0.32028(11) 0.28726(19) 0.9133(4)
H5 H 0.2855 0.2945 0.9260
C8 C 0.35124(12) 0.34853(19) 0.9004(4)
H6 H 0.3384 0.3983 0.9076
C9 C 0.40187(11) 0.33643(17) 0.8766(3)
C10 C 0.43812(12) 0.39717(17) 0.8581(4)
C11 C 0.42617(15) 0.4773(2) 0.8837(6)
H7 H 0.4529 0.5000 0.9359
H8 H 0.3946 0.4806 0.9317
H9 H 0.4231 0.5043 0.8006
C12 C 0.49089(12) 0.25650(16) 0.4741(3)
C13 C 0.52252(11) 0.24603(17) 1.1066(4)
C14 C 0.52537(12) 0.14938(18) 1.3127(3)
C15 C 0.44506(12) 0.21844(17) 1.2498(3)
C16 C 0.48228(13) 0.35327(19) 1.2679(4)
Fe1 Fe 0.511154(15) 0.25471(2) 1.29253(5)
Mn1 Mn 0.501758(13) 0.24846(2) 0.79221(5)
N1 N 0.55440(10) 0.02014(15) 0.7095(3)
H10 H 0.5845 0.0216 0.6750
H11 H 0.5393 -0.0235 0.7207
N2 N 0.59843(12) 0.43931(17) 0.7285(5)
H12 H 0.6280 0.4229 0.7043
H13 H 0.5927 0.4881 0.7342
N3 N 0.48508(8) 0.07412(13) 0.7986(3)
H14 H 0.4733 0.0291 0.8178
N4 N 0.51845(10) 0.42210(14) 0.7954(4)
H15 H 0.5147 0.4712 0.8047
N5 N 0.45866(9) 0.13778(13) 0.8202(3)
N6 N 0.48089(9) 0.37350(14) 0.8190(3)
N7 N 0.42039(9) 0.26710(14) 0.8667(3)
N8 N 0.48137(11) 0.25632(16) 0.5834(3)
N9 N 0.52762(11) 0.23945(17) 0.9954(3)
N10 N 0.53141(11) 0.08560(16) 1.3228(3)
N11 N 0.40648(11) 0.19637(19) 1.2228(4)
N12 N 0.46410(15) 0.41171(18) 1.2537(5)
N13 N 0.56788(11) 0.28817(17) 1.3269(3)
O1 O 0.55014(8) 0.14698(12) 0.7326(3)
O2 O 0.56806(8) 0.32215(12) 0.7506(3)
O3 O 0.60515(12) 0.3152(2) 1.3471(4)
C12_2 C 0.49089(12) 0.25650(16) 1.4741(3)
Fe1_2 Fe 0.511154(15) 0.25471(2) 0.29253(5)
C17 C 0.20530(13) 0.18904(18) 0.6828(4)
C18 C 0.19250(11) -0.11276(17) 0.7100(3)
C19 C 0.35005(14) 0.22980(19) 0.5378(5)
H16 H 0.3780 0.2206 0.4781
H17 H 0.3623 0.2549 0.6168
H18 H 0.3253 0.2620 0.4947
C20 C 0.32663(12) 0.15686(16) 0.5738(3)
C21 C 0.35450(11) 0.08604(17) 0.5602(3)
C22 C 0.40487(11) 0.08256(19) 0.5290(4)
H19 H 0.4232 0.1274 0.5122
C23 C 0.42770(12) 0.0135(2) 0.5229(4)
H20 H 0.4623 0.0102 0.5036
C24 C 0.40040(12) -0.05132(19) 0.5449(4)
H21 H 0.4154 -0.0997 0.5382
C25 C 0.35014(11) -0.04356(17) 0.5771(3)
C26 C 0.31725(12) -0.10812(17) 0.6073(4)
C27 C 0.33540(16) -0.1873(2) 0.5939(6)
H22 H 0.3707 -0.1898 0.6185
H23 H 0.3315 -0.2038 0.5030
H24 H 0.3159 -0.2204 0.6512
C28 C 0.22168(12) 0.02997(16) 0.3388(3)
C29 C 0.25420(12) 0.03727(18) 0.9742(3)
C30 C 0.25074(13) 0.13920(19) 1.1755(4)
C31 C 0.29974(13) 0.01449(19) 1.1975(4)
C32 C 0.22757(12) -0.07278(18) 1.1393(4)
Fe2 Fe 0.231543(16) 0.03540(2) 1.15215(5)
Mn2 Mn 0.246986(14) 0.03245(2) 0.65350(5)
N14 N 0.17509(14) 0.24602(18) 0.7135(5)
H25 H 0.1451 0.2368 0.7446
H26 H 0.1851 0.2929 0.7026
N15 N 0.15833(11) -0.16471(15) 0.7394(3)
H27 H 0.1278 -0.1508 0.7595
H28 H 0.1663 -0.2129 0.7388
N16 N 0.25155(11) 0.20741(15) 0.6385(4)
H29 H 0.2608 0.2544 0.6248
N17 N 0.23865(10) -0.14122(14) 0.6780(3)
H30 H 0.2451 -0.1899 0.6789
N18 N 0.28221(10) 0.14828(14) 0.6172(3)
N19 N 0.27346(9) -0.08934(13) 0.6452(3)
N20 N 0.32819(9) 0.02355(14) 0.5840(3)
N21 N 0.21851(11) 0.02762(16) 0.4507(3)
N22 N 0.26519(12) 0.03747(17) 0.8652(3)
N23 N 0.26142(15) 0.20084(18) 1.1880(4)
N24 N 0.33963(13) -0.0011(3) 1.2225(5)
N25 N 0.22814(14) -0.13536(17) 1.1327(4)
N26 N 0.17283(12) 0.0554(2) 1.1131(4)
O4 O 0.19298(8) 0.12304(12) 0.6962(3)
O5 O 0.18409(8) -0.04504(12) 0.7089(3)
O6 O 0.13371(14) 0.0705(4) 1.0836(5)
C28_2 C 0.22168(12) 0.02997(16) 1.3388(3)
Fe2_2 Fe 0.231543(16) 0.03540(2) 0.15215(5)
C33 C 0.6492(2) 0.1319(3) 1.4549(7)
H31 H 0.6793 0.1577 1.4239
H32 H 0.6327 0.1069 1.3811
H33 H 0.6584 0.0942 1.5206
O7 O 0.61594(19) 0.1858(3) 1.5117(5)
H34 H 0.5928 0.1631 1.5506
O8 O 0.0968(7) -0.0737(10) 1.035(2)
O9? O 0.0572(14) -0.0277(16) 1.044(3)
loop_
_geom_bond_atom_site_label_1
_geom_bond_atom_site_label_2
_geom_bond_site_symmetry_1
_geom_bond_site_symmetry_2
C1 N1 1_555 1_555
C2 N2 1_555 1_555
C3 H1 1_555 1_555
H2 C3 1_555 1_555
H3 C3 1_555 1_555
C4 C3 1_555 1_555
C5 C4 1_555 1_555
C6 C5 1_555 1_555
H4 C6 1_555 1_555
C7 C6 1_555 1_555
H5 C7 1_555 1_555
C8 C7 1_555 1_555
H6 C8 1_555 1_555
C9 C8 1_555 1_555
C10 C9 1_555 1_555
C11 C10 1_555 1_555
H7 C11 1_555 1_555
H8 C11 1_555 1_555
H9 C11 1_555 1_555
C12 N8 1_555 1_555
C13 Fe1 1_555 1_555
C14 Fe1 1_555 1_555
C15 Fe1 1_555 1_555
C16 Fe1 1_555 1_555
Fe1 N13 1_555 1_555
Mn1 N5 1_555 1_555
N1 H10 1_555 1_555
H11 N1 1_555 1_555
N2 H12 1_555 1_555
H13 N2 1_555 1_555
N3 C1 1_555 1_555
H14 N3 1_555 1_555
N4 C2 1_555 1_555
H15 N4 1_555 1_555
N5 C4 1_555 1_555
N6 C10 1_555 1_555
N7 C5 1_555 1_555
N8 Mn1 1_555 1_555
N9 C13 1_555 1_555
N10 C14 1_555 1_555
N11 C15 1_555 1_555
N12 C16 1_555 1_555
N13 O3 1_555 1_555
O1 C1 1_555 1_555
O2 C2 1_555 1_555
C17 N14 1_555 1_555
C18 N15 1_555 1_555
C19 H16 1_555 1_555
H17 C19 1_555 1_555
H18 C19 1_555 1_555
C20 C19 1_555 1_555
C21 C20 1_555 1_555
C22 C21 1_555 1_555
H19 C22 1_555 1_555
C23 C22 1_555 1_555
H20 C23 1_555 1_555
C24 C23 1_555 1_555
H21 C24 1_555 1_555
C25 C24 1_555 1_555
C26 C25 1_555 1_555
C27 C26 1_555 1_555
H22 C27 1_555 1_555
H23 C27 1_555 1_555
H24 C27 1_555 1_555
C28 N21 1_555 1_555
C29 Fe2 1_555 1_555
C30 Fe2 1_555 1_555
C31 Fe2 1_555 1_555
C32 Fe2 1_555 1_555
Fe2 N26 1_555 1_555
Mn2 N18 1_555 1_555
N14 H25 1_555 1_555
H26 N14 1_555 1_555
N15 H27 1_555 1_555
H28 N15 1_555 1_555
N16 C17 1_555 1_555
H29 N16 1_555 1_555
N17 C18 1_555 1_555
H30 N17 1_555 1_555
N18 C20 1_555 1_555
N19 C26 1_555 1_555
N20 C21 1_555 1_555
N21 Mn2 1_555 1_555
N22 C29 1_555 1_555
N23 C30 1_555 1_555
N24 C31 1_555 1_555
N25 C32 1_555 1_555
N26 O6 1_555 1_555
O4 C17 1_555 1_555
O5 C18 1_555 1_555
C33 H31 1_555 1_555
H32 C33 1_555 1_555
H33 C33 1_555 1_555
O7 C33 1_555 1_555
H34 O7 1_555 1_555
C12_2 Fe1 1_555 1_555
Fe1_2 C12 1_555 1_555
C28_2 Fe2 1_555 1_555
Fe2_2 C28 1_555 1_555
C9 N7 1_555 1_555
Mn1 N6 1_555 1_555
Mn1 N7 1_555 1_555
Mn1 N9 1_555 1_555
Mn1 O1 1_555 1_555
Mn1 O2 1_555 1_555
N3 N5 1_555 1_555
N4 N6 1_555 1_555
C25 N20 1_555 1_555
Mn2 N19 1_555 1_555
Mn2 N20 1_555 1_555
Mn2 N22 1_555 1_555
Mn2 O4 1_555 1_555
Mn2 O5 1_555 1_555
N16 N18 1_555 1_555
N17 N19 1_555 1_555

#END
