
#######################################################################
#
#                 Cambridge Crystallographic Data Centre
#                                CCDC 
#
#######################################################################
#
# If this CIF has been generated from an entry in the Cambridge 
# Structural Database, then it will include bibliographic, chemical, 
# crystal, experimental, refinement or atomic coordinate data resulting 
# from the CCDC's data processing and validation procedures.
#
#######################################################################

data_IGOGOB
_symmetry_cell_setting           triclinic
_symmetry_space_group_name_H-M   'P -1'
_symmetry_Int_Tables_number      2
_space_group_name_Hall           '-P 1'
loop_
_symmetry_equiv_pos_site_id
_symmetry_equiv_pos_as_xyz
1 x,y,z
2 -x,-y,-z
_cell_length_a                   9.6616(13)
_cell_length_b                   10.5348(14)
_cell_length_c                   11.5849(16)
_cell_angle_alpha                67.726(2)
_cell_angle_beta                 86.002(3)
_cell_angle_gamma                86.095(3)
_cell_volume                     1087.4
loop_
_atom_site_label
_atom_site_type_symbol
_atom_site_fract_x
_atom_site_fract_y
_atom_site_fract_z
Ag1 Ag 0.05325(2) 0.96439(2) 0.644423(19)
S1 S -0.05946(7) 1.19529(7) 0.51866(6)
S2 S 0.16778(7) 1.19497(7) 0.28207(7)
P1 P 0.09870(7) 1.28172(6) 0.40050(6)
P2 P 0.26561(6) 0.88938(6) 0.75598(6)
O1 O 0.0440(2) 1.43641(17) 0.33161(18)
O2 O 0.2306(2) 1.2924(2) 0.4703(2)
C1 C 0.1262(4) 1.5297(3) 0.2291(3)
H1 H 0.1312 1.5008 0.1588
H2 H 0.2199 1.5290 0.2545
C2 C 0.0611(4) 1.6701(3) 0.1923(3)
H3 H 0.1152 1.7325 0.1244
H4 H 0.0572 1.6985 0.2621
H5 H -0.0313 1.6703 0.1666
C3 C 0.2171(4) 1.3601(5) 0.5596(4)
H6 H 0.1447 1.4324 0.5342
H7 H 0.1888 1.2940 0.6410
C4 C 0.3370(7) 1.4152(9) 0.5692(8)
H8 H 0.3225 1.4584 0.6290
H9 H 0.3646 1.4823 0.4894
H10 H 0.4086 1.3439 0.5961
C5 C 0.2748(2) 0.9219(2) 0.8997(2)
C6 C 0.1837(3) 1.0168(3) 0.9239(3)
H11 H 0.1169 1.0641 0.8669
C7 C 0.1909(3) 1.0421(3) 1.0322(3)
H12 H 0.1299 1.1071 1.0469
C8 C 0.2872(3) 0.9722(3) 1.1177(3)
H13 H 0.2907 0.9886 1.1909
C9 C 0.3782(4) 0.8782(4) 1.0950(3)
H14 H 0.4440 0.8307 1.1528
C10 C 0.3727(3) 0.8536(3) 0.9870(3)
H15 H 0.4358 0.7900 0.9722
C11 C 0.3022(2) 0.7044(2) 0.8103(2)
C12 C 0.4307(3) 0.6421(3) 0.7997(3)
H16 H 0.5053 0.6954 0.7588
C13 C 0.4482(3) 0.4998(3) 0.8501(3)
H17 H 0.5346 0.4586 0.8422
C14 C 0.3399(4) 0.4193(3) 0.9114(3)
H18 H 0.3528 0.3242 0.9452
C15 C 0.2127(3) 0.4804(3) 0.9224(3)
H19 H 0.1392 0.4265 0.9652
C16 C 0.1929(3) 0.6210(3) 0.8704(3)
H20 H 0.1050 0.6608 0.8756
C17 C 0.4224(3) 0.9677(3) 0.6670(2)
H21 H 0.4202 1.0632 0.6579
H22 H 0.5029 0.9218 0.7137
C18 C 0.4385(3) 0.9607(3) 0.5379(2)
H23 H 0.4509 0.8654 0.5466
H24 H 0.3544 0.9984 0.4937
Ag1A Ag -0.05325(2) 1.03561(2) 0.355577(19)
Ag1A_2 Ag 0.94675(2) 1.03561(2) 0.355577(19)
S1A S 0.05946(7) 0.80471(7) 0.48134(6)
S2A S -0.16778(7) 0.80503(7) 0.71793(7)
P1A P -0.09870(7) 0.71828(6) 0.59950(6)
P2A P 0.73439(6) 1.11062(6) 0.24402(6)
P2A_2 P -0.26561(6) 1.11062(6) 0.24402(6)
O1A O -0.0440(2) 0.56359(17) 0.66839(18)
O2A O -0.2306(2) 0.7076(2) 0.5297(2)
C1A C -0.1262(4) 0.4703(3) 0.7709(3)
H1A H -0.1312 0.4992 0.8412
H2A H -0.2199 0.4710 0.7455
C2A C -0.0611(4) 0.3299(3) 0.8077(3)
H3A H -0.1152 0.2675 0.8756
H4A H -0.0572 0.3015 0.7379
H5A H 0.0313 0.3297 0.8334
C3A C -0.2171(4) 0.6399(5) 0.4404(4)
H6A H -0.1447 0.5676 0.4658
H7A H -0.1888 0.7060 0.3590
C4A C -0.3370(7) 0.5848(9) 0.4308(8)
H8A H -0.3225 0.5416 0.3710
H9A H -0.3646 0.5177 0.5106
H10A H -0.4086 0.6561 0.4039
C5A C 0.7252(2) 1.0781(2) 0.1003(2)
C6A C 0.8163(3) 0.9832(3) 0.0761(3)
H11A H 0.8831 0.9359 0.1331
C7A C 0.8091(3) 0.9579(3) -0.0322(3)
H12A H 0.8701 0.8929 -0.0469
C8A C 0.7128(3) 1.0278(3) -0.1177(3)
H13A H 0.7093 1.0114 -0.1909
C9A C 0.6218(4) 1.1218(4) -0.0950(3)
H14A H 0.5560 1.1693 -0.1528
C10A C 0.6273(3) 1.1464(3) 0.0130(3)
H15A H 0.5642 1.2100 0.0278
C11A C 0.6978(2) 1.2956(2) 0.1897(2)
C12A C 0.5693(3) 1.3579(3) 0.2003(3)
H16A H 0.4947 1.3046 0.2412
C13A C 0.5518(3) 1.5002(3) 0.1499(3)
H17A H 0.4654 1.5414 0.1578
C14A C 0.6601(4) 1.5807(3) 0.0886(3)
H18A H 0.6472 1.6758 0.0548
C15A C 0.7873(3) 1.5196(3) 0.0776(3)
H19A H 0.8608 1.5735 0.0348
C16A C 0.8071(3) 1.3790(3) 0.1296(3)
H20A H 0.8950 1.3392 0.1244
C17A C 0.5776(3) 1.0323(3) 0.3330(2)
H21A H 0.5798 0.9368 0.3421
H22A H 0.4971 1.0782 0.2863
C18A C 0.5615(3) 1.0393(3) 0.4621(2)
H23A H 0.5491 1.1346 0.4534
H24A H 0.6456 1.0016 0.5063
loop_
_geom_bond_atom_site_label_1
_geom_bond_atom_site_label_2
_geom_bond_site_symmetry_1
_geom_bond_site_symmetry_2
Ag1 S1 1_555 1_555
S1 P1 1_555 1_555
S2 P1 1_555 1_555
P1 O1 1_555 1_555
P2 Ag1 1_555 1_555
O1 C1 1_555 1_555
O2 P1 1_555 1_555
C1 H1 1_555 1_555
H2 C1 1_555 1_555
C2 C1 1_555 1_555
H3 C2 1_555 1_555
H4 C2 1_555 1_555
H5 C2 1_555 1_555
C3 O2 1_555 1_555
H6 C3 1_555 1_555
H7 C3 1_555 1_555
C4 C3 1_555 1_555
H8 C4 1_555 1_555
H9 C4 1_555 1_555
H10 C4 1_555 1_555
C5 P2 1_555 1_555
C6 C5 1_555 1_555
H11 C6 1_555 1_555
C7 C6 1_555 1_555
H12 C7 1_555 1_555
C8 C7 1_555 1_555
H13 C8 1_555 1_555
C9 C8 1_555 1_555
H14 C9 1_555 1_555
C10 C5 1_555 1_555
H15 C10 1_555 1_555
C11 P2 1_555 1_555
C12 C11 1_555 1_555
H16 C12 1_555 1_555
C13 C12 1_555 1_555
H17 C13 1_555 1_555
C14 C13 1_555 1_555
H18 C14 1_555 1_555
C15 C14 1_555 1_555
H19 C15 1_555 1_555
C16 C11 1_555 1_555
H20 C16 1_555 1_555
C17 P2 1_555 1_555
H21 C17 1_555 1_555
H22 C17 1_555 1_555
C18 C17 1_555 1_555
H23 C18 1_555 1_555
H24 C18 1_555 1_555
Ag1A S1 1_555 1_555
Ag1A_2 P2A 1_555 1_555
S1A Ag1 1_555 1_555
S2A Ag1 1_555 1_555
P1A S1A 1_555 1_555
P2A C5A 1_555 1_555
P2A_2 Ag1A 1_555 1_555
O1A P1A 1_555 1_555
O2A P1A 1_555 1_555
C1A O1A 1_555 1_555
H1A C1A 1_555 1_555
H2A C1A 1_555 1_555
C2A C1A 1_555 1_555
H3A C2A 1_555 1_555
H4A C2A 1_555 1_555
H5A C2A 1_555 1_555
C3A O2A 1_555 1_555
H6A C3A 1_555 1_555
H7A C3A 1_555 1_555
C4A C3A 1_555 1_555
H8A C4A 1_555 1_555
H9A C4A 1_555 1_555
H10A C4A 1_555 1_555
C5A C6A 1_555 1_555
C6A H11A 1_555 1_555
C7A C6A 1_555 1_555
H12A C7A 1_555 1_555
C8A C7A 1_555 1_555
H13A C8A 1_555 1_555
C9A C8A 1_555 1_555
H14A C9A 1_555 1_555
C10A C5A 1_555 1_555
H15A C10A 1_555 1_555
C11A P2A 1_555 1_555
C12A C11A 1_555 1_555
H16A C12A 1_555 1_555
C13A C12A 1_555 1_555
H17A C13A 1_555 1_555
C14A C13A 1_555 1_555
H18A C14A 1_555 1_555
C15A C14A 1_555 1_555
H19A C15A 1_555 1_555
C16A C11A 1_555 1_555
H20A C16A 1_555 1_555
C17A P2A 1_555 1_555
H21A C17A 1_555 1_555
H22A C17A 1_555 1_555
C18A C18 1_555 1_555
H23A C18A 1_555 1_555
H24A C18A 1_555 1_555
S2 Ag1A 1_555 1_555
C9 C10 1_555 1_555
C15 C16 1_555 1_555
Ag1A S1A 1_555 1_555
S2A P1A 1_555 1_555
C9A C10A 1_555 1_555
C15A C16A 1_555 1_555
C17A C18A 1_555 1_555

#END
