
#######################################################################
#
#                 Cambridge Crystallographic Data Centre
#                                CCDC 
#
#######################################################################
#
# If this CIF has been generated from an entry in the Cambridge 
# Structural Database, then it will include bibliographic, chemical, 
# crystal, experimental, refinement or atomic coordinate data resulting 
# from the CCDC's data processing and validation procedures.
#
#######################################################################

data_IGOGIV
_symmetry_cell_setting           triclinic
_symmetry_space_group_name_H-M   'P -1'
_symmetry_Int_Tables_number      2
_space_group_name_Hall           '-P 1'
loop_
_symmetry_equiv_pos_site_id
_symmetry_equiv_pos_as_xyz
1 x,y,z
2 -x,-y,-z
_cell_length_a                   12.4844(17)
_cell_length_b                   13.410(3)
_cell_length_c                   14.4970(18)
_cell_angle_alpha                102.387(10)
_cell_angle_beta                 107.825(9)
_cell_angle_gamma                109.245(13)
_cell_volume                     2042.67
loop_
_atom_site_label
_atom_site_type_symbol
_atom_site_fract_x
_atom_site_fract_y
_atom_site_fract_z
Ag1 Ag 0.38447(5) 0.17299(4) 0.26318(4)
S1 S 0.3685(3) -0.0087(2) 0.1264(2)
S2 S 0.3286(2) 0.01092(18) 0.34419(19)
P1 P 0.3476(2) -0.07896(18) 0.22902(18)
P2 P 0.20702(19) 0.22481(17) 0.20890(14)
P3 P 0.58796(16) 0.33864(14) 0.34514(13)
O1 O 0.2414(8) -0.2021(5) 0.1762(6)
O2 O 0.4548(9) -0.1175(8) 0.2682(6)
C1 C 0.1257(14) -0.2297(13) 0.1159(13)
H1 H 0.1282 -0.1986 0.0617
H2 H 0.0940 -0.1899 0.1567
C2 C 0.0354(12) -0.3432(9) 0.0666(10)
H3 H -0.0422 -0.3457 0.0243
H4 H 0.0245 -0.3754 0.1181
H5 H 0.0626 -0.3856 0.0242
C3 C 0.5399(17) -0.0947(17) 0.3581(11)
H6 H 0.4959 -0.1092 0.4021
H7 H 0.5889 -0.0138 0.3841
C4 C 0.6225(18) -0.139(2) 0.3796(11)
H8 H 0.6691 -0.1122 0.4531
H9 H 0.6781 -0.1169 0.3469
H10 H 0.5794 -0.2198 0.3542
C5 C 0.2540(8) 0.3609(6) 0.1913(5)
C6 C 0.2348(9) 0.4513(7) 0.2386(6)
H11 H 0.1912 0.4436 0.2804
C7 C 0.2804(12) 0.5522(8) 0.2236(8)
H12 H 0.2678 0.6122 0.2564
C8 C 0.3437(12) 0.5665(9) 0.1619(9)
H13 H 0.3724 0.6348 0.1516
C9 C 0.3643(11) 0.4770(10) 0.1150(8)
H14 H 0.4070 0.4849 0.0726
C10 C 0.3219(10) 0.3773(8) 0.1311(7)
H15 H 0.3388 0.3189 0.1012
C11 C 0.1295(7) 0.2350(6) 0.2959(7)
C12 C 0.1797(8) 0.2259(7) 0.3912(7)
H16 H 0.2526 0.2157 0.4095
C13 C 0.1245(12) 0.2314(9) 0.4592(9)
H17 H 0.1599 0.2263 0.5236
C14 C 0.0168(16) 0.2445(11) 0.4310(15)
H18 H -0.0205 0.2477 0.4775
C15 C -0.0373(11) 0.2528(11) 0.3412(14)
H19 H -0.1106 0.2621 0.3243
C16 C 0.0199(9) 0.2471(8) 0.2723(10)
H20 H -0.0175 0.2516 0.2081
C17 C 0.6604(6) 0.3706(6) 0.2565(5)
C18 C 0.7025(9) 0.4743(8) 0.2454(7)
H21 H 0.6975 0.5344 0.2870
C19 C 0.7528(10) 0.4911(11) 0.1727(8)
H22 H 0.7808 0.5613 0.1656
C20 C 0.7594(10) 0.4022(14) 0.1129(8)
H23 H 0.7915 0.4123 0.0638
C21 C 0.7205(11) 0.2990(11) 0.1224(8)
H24 H 0.7281 0.2400 0.0820
C22 C 0.6691(8) 0.2833(8) 0.1937(6)
H25 H 0.6400 0.2124 0.1991
C23 C 0.7127(6) 0.3407(5) 0.4538(5)
C24 C 0.8267(7) 0.4319(6) 0.5064(6)
H26 H 0.8431 0.4938 0.4849
C25 C 0.9170(8) 0.4328(7) 0.5904(6)
H27 H 0.9936 0.4952 0.6253
C26 C 0.8942(9) 0.3426(9) 0.6225(6)
H28 H 0.9552 0.3436 0.6795
C27 C 0.7820(9) 0.2507(8) 0.5713(7)
H29 H 0.7665 0.1888 0.5929
C28 C 0.6912(7) 0.2504(6) 0.4869(6)
H30 H 0.6146 0.1880 0.4522
C29 C 0.0768(11) 0.1265(10) 0.0851(7)
H31 H 0.0067 0.1444 0.0813
H32 H 0.1001 0.1442 0.0306
C30 C 0.0423(17) 0.0336(16) 0.0652(19)
H33 H -0.0092 0.0088 0.1014
H34 H 0.1121 0.0145 0.0871
C31 C 0.5723(6) 0.4663(5) 0.4026(5)
H35 H 0.6538 0.5293 0.4390
H36 H 0.5225 0.4840 0.3483
C32 C 0.5113(7) 0.4497(5) 0.4775(5)
H37 H 0.5638 0.4361 0.5335
H38 H 0.4325 0.3834 0.4417
Ag1A Ag -0.38447(5) -0.17299(4) -0.26318(4)
Ag1A_2 Ag 0.61553(5) 0.82701(4) 0.73682(4)
S1A S -0.3685(3) 0.0087(2) -0.1264(2)
S2A S -0.3286(2) -0.01092(18) -0.34419(19)
P1A P -0.3476(2) 0.07896(18) -0.22902(18)
P2A P -0.20702(19) -0.22481(17) -0.20890(14)
P3A P 0.41204(16) 0.66136(14) 0.65486(13)
P3A_2 P -0.58796(16) -0.33864(14) -0.34514(13)
O1A O -0.2414(8) 0.2021(5) -0.1762(6)
O2A O -0.4548(9) 0.1175(8) -0.2682(6)
C1A C -0.1257(14) 0.2297(13) -0.1159(13)
H1A H -0.1282 0.1986 -0.0617
H2A H -0.0940 0.1899 -0.1567
C2A C -0.0354(12) 0.3432(9) -0.0666(10)
H3A H 0.0422 0.3457 -0.0243
H4A H -0.0245 0.3754 -0.1181
H5A H -0.0626 0.3856 -0.0242
C3A C -0.5399(17) 0.0947(17) -0.3581(11)
H6A H -0.4959 0.1092 -0.4021
H7A H -0.5889 0.0138 -0.3841
C4A C -0.6225(18) 0.139(2) -0.3796(11)
H8A H -0.6691 0.1122 -0.4531
H9A H -0.6781 0.1169 -0.3469
H10A H -0.5794 0.2198 -0.3542
C5A C -0.2540(8) -0.3609(6) -0.1913(5)
C6A C -0.2348(9) -0.4513(7) -0.2386(6)
H11A H -0.1912 -0.4436 -0.2804
C7A C -0.2804(12) -0.5522(8) -0.2236(8)
H12A H -0.2678 -0.6122 -0.2564
C8A C -0.3437(12) -0.5665(9) -0.1619(9)
H13A H -0.3724 -0.6348 -0.1516
C9A C -0.3643(11) -0.4770(10) -0.1150(8)
H14A H -0.4070 -0.4849 -0.0726
C10A C -0.3219(10) -0.3773(8) -0.1311(7)
H15A H -0.3388 -0.3189 -0.1012
C11A C -0.1295(7) -0.2350(6) -0.2959(7)
C12A C -0.1797(8) -0.2259(7) -0.3912(7)
H16A H -0.2526 -0.2157 -0.4095
C13A C -0.1245(12) -0.2314(9) -0.4592(9)
H17A H -0.1599 -0.2263 -0.5236
C14A C -0.0168(16) -0.2445(11) -0.4310(15)
H18A H 0.0205 -0.2477 -0.4775
C15A C 0.0373(11) -0.2528(11) -0.3412(14)
H19A H 0.1106 -0.2621 -0.3243
C16A C -0.0199(9) -0.2471(8) -0.2723(10)
H20A H 0.0175 -0.2516 -0.2081
C17A C 0.3396(6) 0.6294(6) 0.7435(5)
C18A C 0.2975(9) 0.5257(8) 0.7546(7)
H21A H 0.3025 0.4656 0.7130
C19A C 0.2472(10) 0.5089(11) 0.8273(8)
H22A H 0.2192 0.4387 0.8344
C20A C 0.2406(10) 0.5978(14) 0.8871(8)
H23A H 0.2085 0.5877 0.9362
C21A C 0.2795(11) 0.7010(11) 0.8776(8)
H24A H 0.2719 0.7600 0.9180
C22A C 0.3309(8) 0.7167(8) 0.8063(6)
H25A H 0.3600 0.7876 0.8009
C23A C 0.2873(6) 0.6593(5) 0.5462(5)
C24A C 0.1733(7) 0.5681(6) 0.4936(6)
H26A H 0.1569 0.5062 0.5151
C25A C 0.0830(8) 0.5672(7) 0.4096(6)
H27A H 0.0064 0.5048 0.3747
C26A C 0.1058(9) 0.6574(9) 0.3775(6)
H28A H 0.0448 0.6564 0.3205
C27A C 0.2180(9) 0.7493(8) 0.4287(7)
H29A H 0.2335 0.8112 0.4071
C28A C 0.3088(7) 0.7496(6) 0.5131(6)
H30A H 0.3854 0.8120 0.5478
C29A C -0.0768(11) -0.1265(10) -0.0851(7)
H31A H -0.0067 -0.1444 -0.0813
H32A H -0.1001 -0.1442 -0.0306
C30A C -0.0423(17) -0.0336(16) -0.0652(19)
H33A H 0.0092 -0.0088 -0.1014
H34A H -0.1121 -0.0145 -0.0871
C31A C 0.4277(6) 0.5337(5) 0.5974(5)
H35A H 0.3462 0.4707 0.5610
H36A H 0.4775 0.5160 0.6517
C32A C 0.4887(7) 0.5503(5) 0.5225(5)
H37A H 0.4362 0.5639 0.4665
H38A H 0.5675 0.6166 0.5583
Cl1 Cl 0.5929(6) 0.7535(5) 0.0787(4)
Cl2 Cl 0.7290(5) 0.9949(5) 0.1543(5)
C33 C 0.5895(16) 0.8828(12) 0.0748(14)
H39 H 0.5684 0.8820 0.0044
H40 H 0.5253 0.8916 0.0956
O3 O 0.8965(12) 0.8028(10) 0.2400(17)
H41 H 0.8720 0.7961 0.1787
C34 C 1.019(3) 0.9307(19) 0.414(2)
H42 H 1.0759 1.0078 0.4560
H43 H 1.0610 0.8830 0.4260
H44 H 0.9495 0.9091 0.4324
C35 C 0.975(3) 0.9188(12) 0.3022(17)
H45 H 0.9294 0.9640 0.2892
H46 H 1.0458 0.9453 0.2845
loop_
_geom_bond_atom_site_label_1
_geom_bond_atom_site_label_2
_geom_bond_site_symmetry_1
_geom_bond_site_symmetry_2
Ag1 S1 1_555 1_555
S1 P1 1_555 1_555
S2 Ag1 1_555 1_555
P1 S2 1_555 1_555
P2 Ag1 1_555 1_555
P3 Ag1 1_555 1_555
O1 P1 1_555 1_555
O2 P1 1_555 1_555
Cl1 C33 1_555 1_555
Cl2 C33 1_555 1_555
C1 O1 1_555 1_555
H1 C1 1_555 1_555
H2 C1 1_555 1_555
C2 C1 1_555 1_555
H3 C2 1_555 1_555
H4 C2 1_555 1_555
H5 C2 1_555 1_555
C3 O2 1_555 1_555
H6 C3 1_555 1_555
H7 C3 1_555 1_555
C4 C3 1_555 1_555
H8 C4 1_555 1_555
H9 C4 1_555 1_555
H10 C4 1_555 1_555
C5 P2 1_555 1_555
C6 C5 1_555 1_555
H11 C6 1_555 1_555
C7 C6 1_555 1_555
H12 C7 1_555 1_555
C8 C7 1_555 1_555
H13 C8 1_555 1_555
C9 C8 1_555 1_555
H14 C9 1_555 1_555
C10 C5 1_555 1_555
H15 C10 1_555 1_555
C11 P2 1_555 1_555
C12 C11 1_555 1_555
H16 C12 1_555 1_555
C13 C12 1_555 1_555
H17 C13 1_555 1_555
C14 C13 1_555 1_555
H18 C14 1_555 1_555
C15 C14 1_555 1_555
H19 C15 1_555 1_555
C16 C11 1_555 1_555
H20 C16 1_555 1_555
C17 P3 1_555 1_555
C18 C17 1_555 1_555
H21 C18 1_555 1_555
C19 C18 1_555 1_555
H22 C19 1_555 1_555
C20 C19 1_555 1_555
H23 C20 1_555 1_555
C21 C20 1_555 1_555
H24 C21 1_555 1_555
C22 C17 1_555 1_555
H25 C22 1_555 1_555
C23 P3 1_555 1_555
C24 C23 1_555 1_555
H26 C24 1_555 1_555
C25 C24 1_555 1_555
H27 C25 1_555 1_555
C26 C25 1_555 1_555
H28 C26 1_555 1_555
C27 C26 1_555 1_555
H29 C27 1_555 1_555
C28 C23 1_555 1_555
H30 C28 1_555 1_555
C29 P2 1_555 1_555
H31 C29 1_555 1_555
H32 C29 1_555 1_555
C30 C29 1_555 1_555
H33 C30 1_555 1_555
H34 C30 1_555 1_555
C31 P3 1_555 1_555
H35 C31 1_555 1_555
H36 C31 1_555 1_555
C32 C31 1_555 1_555
H37 C32 1_555 1_555
H38 C32 1_555 1_555
C33 H39 1_555 1_555
H40 C33 1_555 1_555
O3 H41 1_555 1_555
C34 H42 1_555 1_555
H43 C34 1_555 1_555
H44 C34 1_555 1_555
C35 O3 1_555 1_555
H45 C35 1_555 1_555
H46 C35 1_555 1_555
Ag1A S1A 1_555 1_555
Ag1A_2 P3A 1_555 1_555
S1A P1A 1_555 1_555
S2A Ag1A 1_555 1_555
P1A S2A 1_555 1_555
P2A Ag1A 1_555 1_555
P3A C17A 1_555 1_555
P3A_2 Ag1A 1_555 1_555
O1A P1A 1_555 1_555
O2A P1A 1_555 1_555
C1A O1A 1_555 1_555
H1A C1A 1_555 1_555
H2A C1A 1_555 1_555
C2A C1A 1_555 1_555
H3A C2A 1_555 1_555
H4A C2A 1_555 1_555
H5A C2A 1_555 1_555
C3A O2A 1_555 1_555
H6A C3A 1_555 1_555
H7A C3A 1_555 1_555
C4A C3A 1_555 1_555
H8A C4A 1_555 1_555
H9A C4A 1_555 1_555
H10A C4A 1_555 1_555
C5A P2A 1_555 1_555
C6A C5A 1_555 1_555
H11A C6A 1_555 1_555
C7A C6A 1_555 1_555
H12A C7A 1_555 1_555
C8A C7A 1_555 1_555
H13A C8A 1_555 1_555
C9A C8A 1_555 1_555
H14A C9A 1_555 1_555
C10A C5A 1_555 1_555
H15A C10A 1_555 1_555
C11A P2A 1_555 1_555
C12A C11A 1_555 1_555
H16A C12A 1_555 1_555
C13A C12A 1_555 1_555
H17A C13A 1_555 1_555
C14A C13A 1_555 1_555
H18A C14A 1_555 1_555
C15A C14A 1_555 1_555
H19A C15A 1_555 1_555
C16A C11A 1_555 1_555
H20A C16A 1_555 1_555
C17A C18A 1_555 1_555
C18A H21A 1_555 1_555
C19A C18A 1_555 1_555
H22A C19A 1_555 1_555
C20A C19A 1_555 1_555
H23A C20A 1_555 1_555
C21A C20A 1_555 1_555
H24A C21A 1_555 1_555
C22A C17A 1_555 1_555
H25A C22A 1_555 1_555
C23A P3A 1_555 1_555
C24A C23A 1_555 1_555
H26A C24A 1_555 1_555
C25A C24A 1_555 1_555
H27A C25A 1_555 1_555
C26A C25A 1_555 1_555
H28A C26A 1_555 1_555
C27A C26A 1_555 1_555
H29A C27A 1_555 1_555
C28A C23A 1_555 1_555
H30A C28A 1_555 1_555
C29A P2A 1_555 1_555
H31A C29A 1_555 1_555
H32A C29A 1_555 1_555
C30A C30 1_555 1_555
H33A C30A 1_555 1_555
H34A C30A 1_555 1_555
C31A P3A 1_555 1_555
H35A C31A 1_555 1_555
H36A C31A 1_555 1_555
C32A C32 1_555 1_555
H37A C32A 1_555 1_555
H38A C32A 1_555 1_555
C9 C10 1_555 1_555
C15 C16 1_555 1_555
C21 C22 1_555 1_555
C27 C28 1_555 1_555
C34 C35 1_555 1_555
C9A C10A 1_555 1_555
C15A C16A 1_555 1_555
C21A C22A 1_555 1_555
C27A C28A 1_555 1_555
C29A C30A 1_555 1_555
C31A C32A 1_555 1_555

#END
