
#######################################################################
#
#                 Cambridge Crystallographic Data Centre
#                                CCDC 
#
#######################################################################
#
# If this CIF has been generated from an entry in the Cambridge 
# Structural Database, then it will include bibliographic, chemical, 
# crystal, experimental, refinement or atomic coordinate data resulting 
# from the CCDC's data processing and validation procedures.
#
#######################################################################

data_IGOJAR
_symmetry_cell_setting           monoclinic
_symmetry_space_group_name_H-M   'P 21/c'
_symmetry_Int_Tables_number      14
_space_group_name_Hall           '-P 2ybc'
loop_
_symmetry_equiv_pos_site_id
_symmetry_equiv_pos_as_xyz
1 x,y,z
2 -x,1/2+y,1/2-z
3 -x,-y,-z
4 x,1/2-y,1/2+z
_cell_length_a                   15.041(4)
_cell_length_b                   7.0548(17)
_cell_length_c                   19.582(5)
_cell_angle_alpha                90
_cell_angle_beta                 99.524(4)
_cell_angle_gamma                90
_cell_volume                     2049.23
loop_
_atom_site_label
_atom_site_type_symbol
_atom_site_fract_x
_atom_site_fract_y
_atom_site_fract_z
Cu1 Cu 0.50303(9) 0.1444(2) 0.54261(6)
O1 O 0.5994(5) 0.2487(11) 0.4968(3)
O2 O 0.5934(5) 0.0009(12) 0.4247(4)
O3 O 0.8597(6) 0.6397(12) 0.4278(4)
O4 O 0.9651(5) 0.9557(11) 0.7370(4)
O5 O 0.9586(6) 1.2105(11) 0.6699(4)
H1 H 0.9674 1.2650 0.7074
O6 O 0.8409(5) 0.1067(12) 0.2872(4)
O7 O 0.5867(5) -0.2548(12) 0.0345(4)
O8 O 0.5944(5) -0.5013(12) 0.1057(4)
O9 O 0.4847(5) 0.3978(14) 0.6041(5)
H2 H 0.4435 0.3770 0.6281
H3 H 0.4693 0.4902 0.5768
C1 C 0.6274(7) 0.1521(18) 0.4490(5)
C2 C 0.7035(7) 0.2314(17) 0.4181(5)
C3 C 0.7453(7) 0.4008(16) 0.4439(5)
H4 H 0.7264 0.4676 0.4798
C4 C 0.8167(8) 0.4629(16) 0.4125(5)
C5 C 0.8474(7) 0.3648(18) 0.3607(5)
H5 H 0.8966 0.4082 0.3420
C6 C 0.8037(7) 0.2012(17) 0.3370(5)
C7 C 0.7328(7) 0.1342(16) 0.3651(5)
H6 H 0.7041 0.0226 0.3484
C8 C 0.8759(8) 0.7221(18) 0.4931(5)
C9 C 0.8830(10) 0.915(2) 0.4899(6)
H7 H 0.8723 0.9790 0.4477
C10 C 0.8895(7) 0.6230(17) 0.5549(5)
H8 H 0.8828 0.4920 0.5558
C11 C 0.9060(10) 1.0093(19) 0.5495(6)
H9 H 0.9116 1.1404 0.5478
C12 C 0.9134(7) 0.7260(17) 0.6153(5)
H10 H 0.9239 0.6622 0.6574
C13 C 0.9221(7) 0.9195(16) 0.6147(5)
C14 C 0.9505(7) 1.0239(17) 0.6805(6)
C15 C 0.7844(7) -0.008(2) 0.2393(6)
C16 C 0.7447(7) 0.0786(17) 0.1793(6)
H11 H 0.7537 0.2070 0.1721
C17 C 0.7761(8) -0.1979(18) 0.2519(6)
H12 H 0.8071 -0.2517 0.2923
C18 C 0.6912(8) -0.0283(17) 0.1299(6)
H13 H 0.6629 0.0266 0.0888
C19 C 0.7212(7) -0.3085(17) 0.2042(6)
H14 H 0.7120 -0.4362 0.2126
C20 C 0.6802(7) -0.2220(17) 0.1427(5)
C21 C 0.6177(8) -0.335(2) 0.0916(6)
Cu1A Cu 0.49697(9) -0.3556(2) -0.04261(6)
Cu1B Cu 0.49697(9) -0.1444(2) 0.45739(6)
Cu1C Cu 0.50303(9) -0.6444(2) 0.04261(6)
O2B O 0.4066(5) -0.0009(12) 0.5753(4)
O7A O 0.4133(5) 0.2452(12) 0.4655(4)
O8C O 0.5944(5) 0.0013(12) 0.6057(4)
O10 O 0.4927(14) 0.489(6) 0.7513(9)
loop_
_geom_bond_atom_site_label_1
_geom_bond_atom_site_label_2
_geom_bond_site_symmetry_1
_geom_bond_site_symmetry_2
Cu1 O1 1_555 1_555
O1 C1 1_555 1_555
O2 C1 1_555 1_555
O3 C4 1_555 1_555
O4 C14 1_555 1_555
O5 H1 1_555 1_555
O6 C6 1_555 1_555
O7 C21 1_555 1_555
O8 C21 1_555 1_555
O9 Cu1 1_555 1_555
H2 O9 1_555 1_555
H3 O9 1_555 1_555
C1 C2 1_555 1_555
C2 C3 1_555 1_555
C3 H4 1_555 1_555
C4 C3 1_555 1_555
C5 C4 1_555 1_555
H5 C5 1_555 1_555
C6 C5 1_555 1_555
C7 C2 1_555 1_555
H6 C7 1_555 1_555
C8 O3 1_555 1_555
C9 C8 1_555 1_555
H7 C9 1_555 1_555
C10 C8 1_555 1_555
H8 C10 1_555 1_555
C11 C9 1_555 1_555
H9 C11 1_555 1_555
C12 C10 1_555 1_555
H10 C12 1_555 1_555
C13 C11 1_555 1_555
C14 O5 1_555 1_555
C15 O6 1_555 1_555
C16 C15 1_555 1_555
H11 C16 1_555 1_555
C17 C15 1_555 1_555
H12 C17 1_555 1_555
C18 C16 1_555 1_555
H13 C18 1_555 1_555
C19 C17 1_555 1_555
H14 C19 1_555 1_555
C20 C18 1_555 1_555
C21 C20 1_555 1_555
Cu1A O7 1_555 1_555
Cu1B Cu1 1_555 1_555
Cu1C O8 1_555 1_555
O2B Cu1 1_555 1_555
O7A Cu1 1_555 1_555
O8C Cu1 1_555 1_555
O2 Cu1B 1_555 1_555
C6 C7 1_555 1_555
C12 C13 1_555 1_555
C13 C14 1_555 1_555
C19 C20 1_555 1_555
Cu1A Cu1C 1_555 1_555

#END
