
#######################################################################
#
#                 Cambridge Crystallographic Data Centre
#                                CCDC 
#
#######################################################################
#
# If this CIF has been generated from an entry in the Cambridge 
# Structural Database, then it will include bibliographic, chemical, 
# crystal, experimental, refinement or atomic coordinate data resulting 
# from the CCDC's data processing and validation procedures.
#
#######################################################################

data_IGOJIZ
_symmetry_cell_setting           triclinic
_symmetry_space_group_name_H-M   'P -1'
_symmetry_Int_Tables_number      2
_space_group_name_Hall           '-P 1'
loop_
_symmetry_equiv_pos_site_id
_symmetry_equiv_pos_as_xyz
1 x,y,z
2 -x,-y,-z
_cell_length_a                   9.084(13)
_cell_length_b                   15.20(2)
_cell_length_c                   17.21(3)
_cell_angle_alpha                112.567(16)
_cell_angle_beta                 93.529(18)
_cell_angle_gamma                96.450(15)
_cell_volume                     2166.23
loop_
_atom_site_label
_atom_site_type_symbol
_atom_site_fract_x
_atom_site_fract_y
_atom_site_fract_z
Cd1 Cd 0.84425(8) 0.09233(5) 0.49264(5)
N1 N 0.9904(9) 0.1034(7) 0.3874(6)
O1 O 1.4045(8) 0.0989(6) 0.2359(5)
C1 C 1.0973(12) 0.1248(8) 0.1131(8)
N2 N 1.1873(9) 0.1171(6) 0.1781(6)
O2 O 0.9665(9) 0.1257(7) 0.1182(5)
C2 C 1.1721(10) 0.1304(8) 0.0429(7)
N3 N 1.7256(9) 0.1048(7) -0.3884(6)
O3 O 1.3079(9) 0.1485(7) -0.2277(5)
C3 C 1.3220(10) 0.1256(7) 0.0414(7)
O4 O 1.7447(8) 0.1183(6) -0.1095(5)
N4 N 1.5260(9) 0.1293(6) -0.1709(6)
C4 C 1.4070(10) 0.1168(7) 0.1057(7)
O5 O 0.8282(8) 0.2659(5) 0.5348(5)
C5 C 1.3376(12) 0.1116(7) 0.1778(8)
O6 O 0.6796(9) 0.1543(5) 0.4312(5)
C6 C 1.5584(11) 0.1160(7) 0.1053(7)
H1 H 1.6158 0.1138 0.1510
O7 O 0.5278(8) 0.5071(5) 0.3579(6)
C7 C 1.6233(11) 0.1185(7) 0.0350(8)
H2 H 1.7246 0.1148 0.0330
O8 O 0.7341(7) 0.9417(4) 0.4376(4)
C8 C 1.5427(10) 0.1262(7) -0.0310(7)
O9 O 0.9529(7) 0.8919(5) 0.4230(4)
C9 C 1.3921(10) 0.1298(7) -0.0282(7)
C10 C 1.3083(11) 0.1390(8) -0.0939(7)
C11 C 1.1570(12) 0.1425(9) -0.0914(8)
H3 H 1.1000 0.1481 -0.1356
C12 C 1.0915(12) 0.1377(9) -0.0222(8)
H4 H 0.9897 0.1396 -0.0207
C13 C 1.6146(12) 0.1254(7) -0.1036(7)
C14 C 1.3745(11) 0.1393(8) -0.1690(8)
C15 C 1.5889(11) 0.1204(9) -0.2466(8)
C16 C 1.5500(11) 0.0452(8) -0.3177(8)
H5 H 1.4764 -0.0041 -0.3209
C17 C 1.6181(12) 0.0403(7) -0.3863(7)
H6 H 1.5866 -0.0132 -0.4364
C18 C 1.7626(12) 0.1799(9) -0.3186(9)
H7 H 1.8364 0.2281 -0.3177
C19 C 1.6991(13) 0.1920(8) -0.2467(8)
H8 H 1.7286 0.2475 -0.1980
C20 C 1.0217(12) 0.0271(8) 0.3272(8)
H9 H 0.9971 -0.0323 0.3305
C21 C 1.0889(12) 0.0304(8) 0.2597(8)
H10 H 1.1126 -0.0259 0.2192
C22 C 1.1207(11) 0.1128(9) 0.2513(8)
C23 C 1.0942(16) 0.1959(9) 0.3155(9)
H11 H 1.1195 0.2562 0.3140
C24 C 1.0292(17) 0.1850(10) 0.3810(9)
H12 H 1.0110 0.2405 0.4247
C25 C 0.7300(13) 0.2411(8) 0.4731(9)
C26 C 0.6758(11) 0.3134(7) 0.4463(7)
C27 C 0.7282(13) 0.4080(8) 0.4869(8)
H13 H 0.7972 0.4277 0.5347
C28 C 0.6833(14) 0.4768(8) 0.4603(8)
H14 H 0.7217 0.5416 0.4894
C29 C 0.5835(14) 0.4481(8) 0.3918(9)
C30 C 0.5259(16) 0.3525(9) 0.3505(10)
H15 H 0.4561 0.3325 0.3030
C31 C 0.5717(15) 0.2873(8) 0.3794(9)
H16 H 0.5300 0.2229 0.3521
C32 C 0.6035(12) 0.5967(7) 0.3750(8)
C33 C 0.5206(12) 0.6698(7) 0.3873(8)
H17 H 0.4176 0.6577 0.3860
C34 C 0.5866(10) 0.7586(7) 0.4011(7)
H18 H 0.5288 0.8074 0.4087
C35 C 0.7378(10) 0.7784(6) 0.4041(7)
C36 C 0.8224(11) 0.7046(7) 0.3897(8)
H19 H 0.9251 0.7165 0.3896
C37 C 0.7557(12) 0.6155(8) 0.3756(9)
H20 H 0.8128 0.5661 0.3663
C38 C 0.8140(11) 0.8768(7) 0.4230(6)
Cd1_2 Cd 0.84425(8) 1.09233(5) 0.49264(5)
Cd1_3 Cd 1.84425(8) 0.09233(5) -0.50736(5)
Cd1A Cd 1.15575(8) 0.90767(5) 0.50736(5)
N3_2 N 0.7256(9) 0.1048(7) 0.6116(6)
O8_2 O 0.7341(7) -0.0583(4) 0.4376(4)
O9A O 1.0471(7) 0.1081(5) 0.5770(4)
loop_
_geom_bond_atom_site_label_1
_geom_bond_atom_site_label_2
_geom_bond_site_symmetry_1
_geom_bond_site_symmetry_2
Cd1 N1 1_555 1_555
N1 C20 1_555 1_555
O1 C5 1_555 1_555
C1 N2 1_555 1_555
N2 C5 1_555 1_555
O2 C1 1_555 1_555
C2 C1 1_555 1_555
N3 C17 1_555 1_555
O3 C14 1_555 1_555
C3 C2 1_555 1_555
O4 C13 1_555 1_555
N4 C13 1_555 1_555
C4 C3 1_555 1_555
O5 Cd1 1_555 1_555
C5 C4 1_555 1_555
O6 Cd1 1_555 1_555
C6 C4 1_555 1_555
H1 C6 1_555 1_555
O7 C29 1_555 1_555
C7 C6 1_555 1_555
H2 C7 1_555 1_555
O8 C38 1_555 1_555
C8 C7 1_555 1_555
O9 C38 1_555 1_555
C9 C3 1_555 1_555
C10 C9 1_555 1_555
C11 C10 1_555 1_555
H3 C11 1_555 1_555
C12 C2 1_555 1_555
H4 C12 1_555 1_555
C13 C8 1_555 1_555
C14 N4 1_555 1_555
C15 N4 1_555 1_555
C16 C15 1_555 1_555
H5 C16 1_555 1_555
C17 C16 1_555 1_555
H6 C17 1_555 1_555
C18 N3 1_555 1_555
H7 C18 1_555 1_555
C19 C15 1_555 1_555
H8 C19 1_555 1_555
C20 H9 1_555 1_555
C21 C20 1_555 1_555
H10 C21 1_555 1_555
C22 N2 1_555 1_555
C23 C22 1_555 1_555
H11 C23 1_555 1_555
C24 N1 1_555 1_555
H12 C24 1_555 1_555
C25 O5 1_555 1_555
C26 C25 1_555 1_555
C27 C26 1_555 1_555
H13 C27 1_555 1_555
C28 C27 1_555 1_555
H14 C28 1_555 1_555
C29 C28 1_555 1_555
C30 C29 1_555 1_555
H15 C30 1_555 1_555
C31 C26 1_555 1_555
H16 C31 1_555 1_555
C32 O7 1_555 1_555
C33 C32 1_555 1_555
H17 C33 1_555 1_555
C34 C33 1_555 1_555
H18 C34 1_555 1_555
C35 C34 1_555 1_555
C36 C35 1_555 1_555
H19 C36 1_555 1_555
C37 C32 1_555 1_555
H20 C37 1_555 1_555
C38 C35 1_555 1_555
Cd1_2 O8 1_555 1_555
Cd1_3 N3 1_555 1_555
Cd1A O9 1_555 1_555
N3_2 Cd1 1_555 1_555
O8_2 Cd1 1_555 1_555
O9A Cd1 1_555 1_555
O6 C25 1_555 1_555
C8 C9 1_555 1_555
C10 C14 1_555 1_555
C11 C12 1_555 1_555
C18 C19 1_555 1_555
C21 C22 1_555 1_555
C23 C24 1_555 1_555
C30 C31 1_555 1_555
C36 C37 1_555 1_555

#END
