
#######################################################################
#
#                 Cambridge Crystallographic Data Centre
#                                CCDC 
#
#######################################################################
#
# If this CIF has been generated from an entry in the Cambridge 
# Structural Database, then it will include bibliographic, chemical, 
# crystal, experimental, refinement or atomic coordinate data resulting 
# from the CCDC's data processing and validation procedures.
#
#######################################################################

data_IGOVAD
_symmetry_cell_setting           triclinic
_symmetry_space_group_name_H-M   'P -1'
_symmetry_Int_Tables_number      2
_space_group_name_Hall           '-P 1'
loop_
_symmetry_equiv_pos_site_id
_symmetry_equiv_pos_as_xyz
1 x,y,z
2 -x,-y,-z
_cell_length_a                   9.7549(8)
_cell_length_b                   10.3281(9)
_cell_length_c                   17.1404(15)
_cell_angle_alpha                98.223(5)
_cell_angle_beta                 94.632(5)
_cell_angle_gamma                94.810(4)
_cell_volume                     1695.57
loop_
_atom_site_label
_atom_site_type_symbol
_atom_site_fract_x
_atom_site_fract_y
_atom_site_fract_z
Co1 Co 0.64248(3) 0.86748(3) 0.518038(16)
C1 C 0.6870(2) 0.9963(2) 0.68905(13)
H1 H 0.6494 0.9133 0.6957
C2 C 0.7091(2) 1.0925(2) 0.75425(13)
H2 H 0.6872 1.0735 0.8034
C3 C 0.7643(2) 1.2181(2) 0.74667(13)
C4 C 0.7994(2) 1.2367(2) 0.67189(13)
H3 H 0.8394 1.3181 0.6639
C5 C 0.7752(2) 1.1349(2) 0.60943(14)
H4 H 0.8007 1.1499 0.5601
C6 C 0.7868(2) 1.3287(2) 0.81140(13)
H5 H 0.8303 1.4068 0.8004
C7 C 0.7509(2) 1.3278(2) 0.88410(13)
H6 H 0.7030 1.2513 0.8945
C8 C 0.7797(2) 1.4353(2) 0.94877(13)
C9 C 0.7980(2) 1.5470(2) 1.06582(13)
C10 C 0.7988(3) 1.5934(3) 1.14670(14)
H7 H 0.7600 1.5413 1.1807
C11 C 0.8589(3) 1.7185(3) 1.17430(15)
H8 H 0.8597 1.7513 1.2278
C12 C 0.9186(2) 1.7973(3) 1.12408(16)
H9 H 0.9559 1.8824 1.1446
C13 C 0.9235(2) 1.7525(2) 1.04535(15)
H10 H 0.9656 1.8042 1.0122
C14 C 0.8627(2) 1.6263(2) 1.01725(13)
C15 C 0.4781(2) 0.6153(2) 0.43095(13)
H11 H 0.4540 0.6089 0.4817
C16 C 0.4360(2) 0.5111(2) 0.37182(13)
H12 H 0.3866 0.4362 0.3832
C17 C 0.4680(2) 0.5189(2) 0.29512(12)
C18 C 0.5406(2) 0.6354(2) 0.28247(13)
H13 H 0.5617 0.6467 0.2318
C19 C 0.5805(2) 0.7329(2) 0.34527(13)
H14 H 0.6306 0.8089 0.3358
C20 C 0.4266(2) 0.4069(2) 0.23269(13)
H15 H 0.3697 0.3381 0.2459
C21 C 0.4621(2) 0.3941(2) 0.15945(13)
H16 H 0.5190 0.4620 0.1452
C22 C 0.4181(2) 0.2810(2) 0.09996(12)
C23 C 0.3171(2) 0.0998(2) 0.03442(12)
C24 C 0.2352(2) -0.0176(2) 0.00843(14)
H17 H 0.1731 -0.0517 0.0405
C25 C 0.2488(3) -0.0817(3) -0.06590(15)
H18 H 0.1958 -0.1610 -0.0842
C26 C 0.3402(3) -0.0307(3) -0.11458(15)
H19 H 0.3457 -0.0759 -0.1650
C27 C 0.4226(2) 0.0851(3) -0.08994(14)
H20 H 0.4835 0.1191 -0.1226
C28 C 0.4108(2) 0.1492(2) -0.01390(12)
C29 C 0.8323(2) 0.7186(2) 0.52089(14)
C30 C 0.9207(2) 0.6065(2) 0.51127(13)
C31 C 0.9840(2) 0.5788(2) 0.44230(14)
H21 H 0.9735 0.6316 0.4030
C32 C 0.9372(2) 0.5269(2) 0.56901(14)
H22 H 0.8951 0.5442 0.6157
C33 C 0.3755(2) 0.89409(19) 0.58360(11)
C34 C 0.26312(19) 0.85602(19) 0.63356(11)
C35 C 0.2682(2) 0.7453(2) 0.67056(13)
H23 H 0.3398 0.6922 0.6630
C36 C 0.1676(2) 0.7136(2) 0.71851(14)
H24 H 0.1715 0.6388 0.7427
C37 C 0.0607(2) 0.7921(2) 0.73095(12)
C38 C -0.0450(2) 0.7565(2) 0.78440(13)
C39 C 0.0542(2) 0.9014(2) 0.69311(13)
H25 H -0.0179 0.9541 0.7006
C40 C 0.1542(2) 0.9329(2) 0.64420(13)
H26 H 0.1483 1.0058 0.6184
N1 N 0.71692(18) 1.01604(17) 0.61619(10)
N2 N 0.7447(2) 1.42768(18) 1.02139(11)
N3 N 0.85028(18) 1.55260(18) 0.94347(10)
H27 H 0.8814 1.5761 0.9016
N4 N 0.55119(18) 0.72437(17) 0.41965(10)
N5 N 0.32213(17) 0.18473(18) 0.10498(10)
N6 N 0.47393(18) 0.26408(18) 0.02956(10)
H28 H 0.5373 0.3158 0.0148
O1 O 0.83865(16) 0.80348(15) 0.47555(10)
O2 O 0.74595(15) 0.72165(15) 0.57213(9)
O3 O 0.47228(14) 0.82192(14) 0.57623(9)
O4 O 0.36748(16) 0.99688(15) 0.55399(9)
O5 O -0.12543(18) 0.84856(17) 0.80323(10)
H29 H -0.200(4) 0.824(4) 0.836(2)
O6 O -0.05421(19) 0.65072(18) 0.80787(11)
C29A C 1.1677(2) 0.2814(2) 0.47911(14)
C30A C 1.0793(2) 0.3935(2) 0.48873(13)
C31A C 1.0160(2) 0.4212(2) 0.55770(14)
H21A H 1.0265 0.3684 0.5970
C32A C 1.0628(2) 0.4731(2) 0.43099(14)
H22A H 1.1049 0.4558 0.3843
O1A O 1.16135(16) 0.19652(15) 0.52445(10)
O2A O 1.25405(15) 0.27835(15) 0.42787(9)
Co1A Co 0.35752(3) 1.13252(3) 0.481962(16)
C1A C 0.3130(2) 1.0037(2) 0.31095(13)
H1A H 0.3506 1.0867 0.3043
C2A C 0.2909(2) 0.9075(2) 0.24575(13)
H2A H 0.3128 0.9265 0.1966
C3A C 0.2357(2) 0.7819(2) 0.25333(13)
C4A C 0.2006(2) 0.7633(2) 0.32811(13)
H3A H 0.1606 0.6819 0.3361
C5A C 0.2248(2) 0.8651(2) 0.39057(14)
H4A H 0.1993 0.8501 0.4399
C6A C 0.2132(2) 0.6713(2) 0.18860(13)
H5A H 0.1697 0.5932 0.1996
C7A C 0.2491(2) 0.6722(2) 0.11590(13)
H6A H 0.2970 0.7487 0.1055
C8A C 0.2203(2) 0.5647(2) 0.05123(13)
C9A C 0.2020(2) 0.4530(2) -0.06582(13)
C10A C 0.2012(3) 0.4066(3) -0.14670(14)
H7A H 0.2400 0.4587 -0.1807
C11A C 0.1411(3) 0.2815(3) -0.17430(15)
H8A H 0.1403 0.2487 -0.2278
C12A C 0.0814(2) 0.2027(3) -0.12408(16)
H9A H 0.0441 0.1176 -0.1446
C13A C 0.0765(2) 0.2475(2) -0.04535(15)
H10A H 0.0344 0.1958 -0.0122
C14A C 0.1373(2) 0.3737(2) -0.01725(13)
C15A C 0.5219(2) 1.3847(2) 0.56905(13)
H11A H 0.5460 1.3911 0.5183
C16A C 0.5640(2) 1.4889(2) 0.62818(13)
H12A H 0.6134 1.5638 0.6168
C17A C 0.5320(2) 1.4811(2) 0.70488(12)
C18A C 0.4594(2) 1.3646(2) 0.71753(13)
H13A H 0.4383 1.3533 0.7682
C19A C 0.4195(2) 1.2671(2) 0.65473(13)
H14A H 0.3694 1.1911 0.6642
C20A C 0.5734(2) 1.5931(2) 0.76731(13)
H15A H 0.6303 1.6619 0.7541
C21A C 0.5379(2) 1.6059(2) 0.84055(13)
H16A H 0.4810 1.5380 0.8548
C22A C 0.5819(2) 1.7190(2) 0.90004(12)
C23A C 0.6829(2) 1.9002(2) 0.96558(12)
C24A C 0.7648(2) 2.0176(2) 0.99157(14)
H17A H 0.8269 2.0517 0.9595
C25A C 0.7512(3) 2.0817(3) 1.06590(15)
H18A H 0.8042 2.1610 1.0842
C26A C 0.6598(3) 2.0307(3) 1.11458(15)
H19A H 0.6543 2.0759 1.1650
C27A C 0.5774(2) 1.9149(3) 1.08994(14)
H20A H 0.5165 1.8809 1.1226
C28A C 0.5892(2) 1.8508(2) 1.01390(12)
C33A C 0.6245(2) 1.10591(19) 0.41640(11)
C34A C 0.73688(19) 1.14398(19) 0.36644(11)
C35A C 0.7318(2) 1.2547(2) 0.32944(13)
H23A H 0.6602 1.3078 0.3370
C36A C 0.8324(2) 1.2864(2) 0.28149(14)
H24A H 0.8285 1.3612 0.2573
C37A C 0.9393(2) 1.2079(2) 0.26905(12)
C38A C 1.0450(2) 1.2435(2) 0.21560(13)
C39A C 0.9458(2) 1.0986(2) 0.30689(13)
H25A H 1.0179 1.0459 0.2994
C40A C 0.8458(2) 1.0671(2) 0.35580(13)
H26A H 0.8517 0.9942 0.3816
N1A N 0.28308(18) 0.98396(17) 0.38381(10)
N2A N 0.2553(2) 0.57232(18) -0.02139(11)
N3A N 0.14972(18) 0.44740(18) 0.05653(10)
H27A H 0.1186 0.4239 0.0984
N4A N 0.44881(18) 1.27563(17) 0.58035(10)
N5A N 0.67787(17) 1.81527(18) 0.89502(10)
N6A N 0.52607(18) 1.73592(18) 0.97044(10)
H28A H 0.4627 1.6842 0.9852
O3A O 0.52772(14) 1.17808(14) 0.42377(9)
O4A O 0.63252(16) 1.00312(15) 0.44601(9)
O5A O 1.12543(18) 1.15144(17) 0.19677(10)
H29A H 1.200(4) 1.176(4) 0.164(2)
O6A O 1.05421(19) 1.34928(18) 0.19213(11)
Co1A_2 Co 1.35752(3) 0.13252(3) 0.481962(16)
O1A_2 O 0.16135(16) 1.19652(15) 0.52445(10)
O2A_2 O 0.25405(15) 1.27835(15) 0.42787(9)
loop_
_geom_bond_atom_site_label_1
_geom_bond_atom_site_label_2
_geom_bond_site_symmetry_1
_geom_bond_site_symmetry_2
Co1 N1 1_555 1_555
C1 H1 1_555 1_555
C2 C1 1_555 1_555
H2 C2 1_555 1_555
C3 C2 1_555 1_555
C4 C3 1_555 1_555
H3 C4 1_555 1_555
C5 C4 1_555 1_555
H4 C5 1_555 1_555
C6 C3 1_555 1_555
H5 C6 1_555 1_555
C7 C6 1_555 1_555
H6 C7 1_555 1_555
C8 C7 1_555 1_555
C9 C10 1_555 1_555
C10 H7 1_555 1_555
C11 C10 1_555 1_555
H8 C11 1_555 1_555
C12 C11 1_555 1_555
H9 C12 1_555 1_555
C13 C12 1_555 1_555
H10 C13 1_555 1_555
C14 C9 1_555 1_555
C15 H11 1_555 1_555
C16 C15 1_555 1_555
H12 C16 1_555 1_555
C17 C16 1_555 1_555
C18 C17 1_555 1_555
H13 C18 1_555 1_555
C19 C18 1_555 1_555
H14 C19 1_555 1_555
C20 C17 1_555 1_555
H15 C20 1_555 1_555
C21 C20 1_555 1_555
H16 C21 1_555 1_555
C22 C21 1_555 1_555
C23 C24 1_555 1_555
C24 H17 1_555 1_555
C25 C24 1_555 1_555
H18 C25 1_555 1_555
C26 C25 1_555 1_555
H19 C26 1_555 1_555
C27 C26 1_555 1_555
H20 C27 1_555 1_555
C28 C23 1_555 1_555
C29 C30 1_555 1_555
C30 C31 1_555 1_555
C31 H21 1_555 1_555
C32 C30 1_555 1_555
H22 C32 1_555 1_555
C33 C34 1_555 1_555
C34 C35 1_555 1_555
C35 H23 1_555 1_555
C36 C35 1_555 1_555
H24 C36 1_555 1_555
C37 C36 1_555 1_555
C38 C37 1_555 1_555
C39 C37 1_555 1_555
H25 C39 1_555 1_555
C40 C34 1_555 1_555
H26 C40 1_555 1_555
N1 C1 1_555 1_555
N2 C8 1_555 1_555
N3 C8 1_555 1_555
H27 N3 1_555 1_555
N4 Co1 1_555 1_555
N5 C22 1_555 1_555
N6 C22 1_555 1_555
H28 N6 1_555 1_555
O1 Co1 1_555 1_555
O2 Co1 1_555 1_555
O3 Co1 1_555 1_555
O4 C33 1_555 1_555
O5 C38 1_555 1_555
H29 O5 1_555 1_555
O6 C38 1_555 1_555
C29A C30A 1_555 1_555
C30A C31A 1_555 1_555
C31A C32 1_555 1_555
H21A C31A 1_555 1_555
C32A C31 1_555 1_555
H22A C32A 1_555 1_555
O1A C29A 1_555 1_555
O2A C29A 1_555 1_555
Co1A O4 1_555 1_555
C1A H1A 1_555 1_555
C2A C1A 1_555 1_555
H2A C2A 1_555 1_555
C3A C2A 1_555 1_555
C4A C3A 1_555 1_555
H3A C4A 1_555 1_555
C5A C4A 1_555 1_555
H4A C5A 1_555 1_555
C6A C3A 1_555 1_555
H5A C6A 1_555 1_555
C7A C6A 1_555 1_555
H6A C7A 1_555 1_555
C8A C7A 1_555 1_555
C9A C10A 1_555 1_555
C10A H7A 1_555 1_555
C11A C10A 1_555 1_555
H8A C11A 1_555 1_555
C12A C11A 1_555 1_555
H9A C12A 1_555 1_555
C13A C12A 1_555 1_555
H10A C13A 1_555 1_555
C14A C9A 1_555 1_555
C15A H11A 1_555 1_555
C16A C15A 1_555 1_555
H12A C16A 1_555 1_555
C17A C16A 1_555 1_555
C18A C17A 1_555 1_555
H13A C18A 1_555 1_555
C19A C18A 1_555 1_555
H14A C19A 1_555 1_555
C20A C17A 1_555 1_555
H15A C20A 1_555 1_555
C21A C20A 1_555 1_555
H16A C21A 1_555 1_555
C22A C21A 1_555 1_555
C23A C24A 1_555 1_555
C24A H17A 1_555 1_555
C25A C24A 1_555 1_555
H18A C25A 1_555 1_555
C26A C25A 1_555 1_555
H19A C26A 1_555 1_555
C27A C26A 1_555 1_555
H20A C27A 1_555 1_555
C28A C23A 1_555 1_555
C33A C34A 1_555 1_555
C34A C35A 1_555 1_555
C35A H23A 1_555 1_555
C36A C35A 1_555 1_555
H24A C36A 1_555 1_555
C37A C36A 1_555 1_555
C38A C37A 1_555 1_555
C39A C37A 1_555 1_555
H25A C39A 1_555 1_555
C40A C34A 1_555 1_555
H26A C40A 1_555 1_555
N1A Co1A 1_555 1_555
N2A C8A 1_555 1_555
N3A C8A 1_555 1_555
H27A N3A 1_555 1_555
N4A Co1A 1_555 1_555
N5A C22A 1_555 1_555
N6A C22A 1_555 1_555
H28A N6A 1_555 1_555
O3A Co1A 1_555 1_555
O4A Co1 1_555 1_555
O5A C38A 1_555 1_555
H29A O5A 1_555 1_555
O6A C38A 1_555 1_555
Co1A_2 O1A 1_555 1_555
O1A_2 Co1A 1_555 1_555
O2A_2 Co1A 1_555 1_555
C5 N1 1_555 1_555
C9 N2 1_555 1_555
C13 C14 1_555 1_555
C14 N3 1_555 1_555
C15 N4 1_555 1_555
C19 N4 1_555 1_555
C23 N5 1_555 1_555
C27 C28 1_555 1_555
C28 N6 1_555 1_555
C29 O1 1_555 1_555
C29 O2 1_555 1_555
C33 O3 1_555 1_555
C39 C40 1_555 1_555
C30A C32A 1_555 1_555
O2A Co1A_2 1_555 1_555
C1A N1A 1_555 1_555
C5A N1A 1_555 1_555
C9A N2A 1_555 1_555
C13A C14A 1_555 1_555
C14A N3A 1_555 1_555
C15A N4A 1_555 1_555
C19A N4A 1_555 1_555
C23A N5A 1_555 1_555
C27A C28A 1_555 1_555
C28A N6A 1_555 1_555
C33A O3A 1_555 1_555
C33A O4A 1_555 1_555
C39A C40A 1_555 1_555

#END
