
#######################################################################
#
#                 Cambridge Crystallographic Data Centre
#                                CCDC 
#
#######################################################################
#
# If this CIF has been generated from an entry in the Cambridge 
# Structural Database, then it will include bibliographic, chemical, 
# crystal, experimental, refinement or atomic coordinate data resulting 
# from the CCDC's data processing and validation procedures.
#
#######################################################################

data_IGOWOS
_symmetry_cell_setting           monoclinic
_symmetry_space_group_name_H-M   'P 21/c'
_symmetry_Int_Tables_number      14
_space_group_name_Hall           '-P 2ybc'
loop_
_symmetry_equiv_pos_site_id
_symmetry_equiv_pos_as_xyz
1 x,y,z
2 -x,1/2+y,1/2-z
3 -x,-y,-z
4 x,1/2-y,1/2+z
_cell_length_a                   9.8854(13)
_cell_length_b                   13.9964(19)
_cell_length_c                   10.2441(14)
_cell_angle_alpha                90
_cell_angle_beta                 113.396(2)
_cell_angle_gamma                90
_cell_volume                     1300.84
loop_
_atom_site_label
_atom_site_type_symbol
_atom_site_fract_x
_atom_site_fract_y
_atom_site_fract_z
Br1 Br 0.81888(4) -0.01211(4) 0.41600(5)
Mn1 Mn 0.0000 0.0000 0.0000
O1 O -0.2964(2) 0.16677(14) 0.1077(2)
O2 O -0.20372(19) 0.04792(13) 0.0230(2)
O3 O 0.0117(2) 0.37898(14) 0.3761(2)
O4 O -0.2039(2) 0.30591(14) 0.2592(2)
N1 N 0.0793(2) 0.10139(15) 0.1826(2)
N2 N 0.1643(2) 0.22936(16) 0.3148(2)
H1 H 0.2203 0.2692 0.3768
C1 C 0.6277(3) 0.0395(3) 0.3688(3)
C2 C 0.6114(3) 0.1359(3) 0.3818(3)
H2 H 0.6934 0.1758 0.4135
C3 C 0.4726(3) 0.1731(2) 0.3475(3)
H3 H 0.4600 0.2385 0.3543
C4 C 0.3509(3) 0.1121(2) 0.3026(3)
C5 C 0.3708(3) 0.0152(2) 0.2939(3)
H4 H 0.2897 -0.0254 0.2663
C6 C 0.5094(3) -0.0226(2) 0.3256(3)
H5 H 0.5226 -0.0878 0.3181
C7 C 0.2009(3) 0.14788(19) 0.2658(3)
C8 C -0.0378(3) 0.15497(19) 0.1818(3)
C9 C 0.0135(3) 0.23455(18) 0.2638(3)
C10 C -0.1893(3) 0.12029(19) 0.0974(3)
C11 C -0.0639(3) 0.3127(2) 0.3026(3)
Br1B Br -0.81888(4) 0.01211(4) -0.41600(5)
O1B O 0.2964(2) -0.16677(14) -0.1077(2)
O2B O 0.20372(19) -0.04792(13) -0.0230(2)
O3B O -0.0117(2) -0.37898(14) -0.3761(2)
O4B O 0.2039(2) -0.30591(14) -0.2592(2)
N1B N -0.0793(2) -0.10139(15) -0.1826(2)
N2B N -0.1643(2) -0.22936(16) -0.3148(2)
H1B H -0.2203 -0.2692 -0.3768
C1B C -0.6277(3) -0.0395(3) -0.3688(3)
C2B C -0.6114(3) -0.1359(3) -0.3818(3)
H2B H -0.6934 -0.1758 -0.4135
C3B C -0.4726(3) -0.1731(2) -0.3475(3)
H3B H -0.4600 -0.2385 -0.3543
C4B C -0.3509(3) -0.1121(2) -0.3026(3)
C5B C -0.3708(3) -0.0152(2) -0.2939(3)
H4B H -0.2897 0.0254 -0.2663
C6B C -0.5094(3) 0.0226(2) -0.3256(3)
H5B H -0.5226 0.0878 -0.3181
C7B C -0.2009(3) -0.14788(19) -0.2658(3)
C8B C 0.0378(3) -0.15497(19) -0.1818(3)
C9B C -0.0135(3) -0.23455(18) -0.2638(3)
C10B C 0.1893(3) -0.12029(19) -0.0974(3)
C11B C 0.0639(3) -0.3127(2) -0.3026(3)
Mn1A Mn 0.0000 -0.5000 -0.5000
Mn1A_2 Mn 0.0000 0.5000 0.5000
O3A O -0.0117(2) -0.12102(14) 0.1239(2)
O3C O 0.0117(2) 0.12102(14) -0.1239(2)
O5 O 0.3705(2) 0.12755(15) -0.0319(2)
H6 H 0.3482 0.0714 -0.0108
H7 H 0.4562 0.1371 0.0480
loop_
_geom_bond_atom_site_label_1
_geom_bond_atom_site_label_2
_geom_bond_site_symmetry_1
_geom_bond_site_symmetry_2
Br1 C1 1_555 1_555
Mn1 O2 1_555 1_555
O1 C10 1_555 1_555
O2 C10 1_555 1_555
O3 C11 1_555 1_555
O4 C11 1_555 1_555
N1 Mn1 1_555 1_555
N2 H1 1_555 1_555
C1 C2 1_555 1_555
C2 H2 1_555 1_555
C3 C2 1_555 1_555
H3 C3 1_555 1_555
C4 C3 1_555 1_555
C5 C4 1_555 1_555
H4 C5 1_555 1_555
C6 C1 1_555 1_555
H5 C6 1_555 1_555
C7 N1 1_555 1_555
C8 N1 1_555 1_555
C9 N2 1_555 1_555
C10 C8 1_555 1_555
C11 C9 1_555 1_555
O5 H6 1_555 1_555
H7 O5 1_555 1_555
Br1B C1B 1_555 1_555
O1B C10B 1_555 1_555
O2B Mn1 1_555 1_555
O3B C11B 1_555 1_555
O4B C11B 1_555 1_555
N1B Mn1 1_555 1_555
N2B H1B 1_555 1_555
C1B C2B 1_555 1_555
C2B H2B 1_555 1_555
C3B C2B 1_555 1_555
H3B C3B 1_555 1_555
C4B C3B 1_555 1_555
C5B C4B 1_555 1_555
H4B C5B 1_555 1_555
C6B C1B 1_555 1_555
H5B C6B 1_555 1_555
C7B N1B 1_555 1_555
C8B N1B 1_555 1_555
C9B N2B 1_555 1_555
C10B O2B 1_555 1_555
C11B C9B 1_555 1_555
Mn1A O3B 1_555 1_555
Mn1A_2 O3 1_555 1_555
O3A Mn1 1_555 1_555
O3C Mn1 1_555 1_555
N2 C7 1_555 1_555
C4 C7 1_555 1_555
C5 C6 1_555 1_555
C8 C9 1_555 1_555
N2B C7B 1_555 1_555
C4B C7B 1_555 1_555
C5B C6B 1_555 1_555
C8B C9B 1_555 1_555
C8B C10B 1_555 1_555

#END
