
#######################################################################
#
#                 Cambridge Crystallographic Data Centre
#                                CCDC 
#
#######################################################################
#
# If this CIF has been generated from an entry in the Cambridge 
# Structural Database, then it will include bibliographic, chemical, 
# crystal, experimental, refinement or atomic coordinate data resulting 
# from the CCDC's data processing and validation procedures.
#
#######################################################################

data_IGOXIM
_symmetry_cell_setting           monoclinic
_symmetry_space_group_name_H-M   'P 2/c'
_symmetry_Int_Tables_number      13
_space_group_name_Hall           '-P 2yc'
loop_
_symmetry_equiv_pos_site_id
_symmetry_equiv_pos_as_xyz
1 x,y,z
2 -x,y,1/2-z
3 -x,-y,-z
4 x,-y,1/2+z
_cell_length_a                   15.3929(6)
_cell_length_b                   9.1730(3)
_cell_length_c                   13.8676(5)
_cell_angle_alpha                90
_cell_angle_beta                 103.9290(10)
_cell_angle_gamma                90
_cell_volume                     1900.51
loop_
_atom_site_label
_atom_site_type_symbol
_atom_site_fract_x
_atom_site_fract_y
_atom_site_fract_z
Mn1 Mn 1.0000 1.0000 0.0000
Mn2 Mn 1.0000 0.86689(7) 0.2500
C1 C 0.9509(2) 0.6973(3) 0.0587(2)
C2 C 0.8951(2) 0.5932(3) -0.0159(2)
C3 C 0.9099(2) 0.5775(4) -0.1099(2)
H1 H 0.9540 0.6320 -0.1287
C4 C 0.8583(3) 0.4798(4) -0.1757(3)
H2 H 0.8686 0.4660 -0.2384
C5 C 0.8281(3) 0.5147(4) 0.0086(2)
H3 H 0.8181 0.5236 0.0719
C6 C 0.7931(3) 0.4050(4) -0.1482(3)
H4 H 0.7589 0.3386 -0.1921
C7 C 0.6986(3) 0.3513(5) -0.0314(3)
H5 H 0.6435 0.3885 -0.0737
H6 H 0.6986 0.3744 0.0368
C8 C 0.7016(3) 0.1889(5) -0.0430(3)
H7 H 0.7613 0.1541 -0.0119
H8 H 0.6893 0.1649 -0.1132
C9 C 0.6344(3) 0.1119(4) 0.0030(3)
H9 H 0.5750 0.1505 -0.0253
H10 H 0.6338 0.0087 -0.0125
C10 C 0.6105(3) 0.2261(5) 0.1552(3)
H11 H 0.5624 0.2766 0.1158
C11 C 0.6333(3) 0.2487(5) 0.2546(3)
H12 H 0.6006 0.3133 0.2837
C12 C 0.7264(2) 0.0564(4) 0.1683(3)
H13 H 0.7569 -0.0100 0.1378
C13 C 0.7056(3) 0.1749(5) 0.3127(3)
H14 H 0.7225 0.1910 0.3808
C14 C 0.7526(2) 0.0772(4) 0.2688(3)
C15 C 0.8351(2) -0.0026(4) 0.3265(2)
N1 N 0.7765(2) 0.4247(3) -0.0579(2)
N2 N 0.6566(2) 0.1316(3) 0.1129(2)
N3 N 0.9528(2) 1.0422(3) 0.13485(19)
N4 N 0.92048(19) 1.1544(3) 0.1504(2)
N5 N 0.8874(3) 1.2618(4) 0.1653(3)
O1 O 1.00727(16) 0.7702(2) 0.02842(17)
O2 O 0.93709(17) 0.7008(3) 0.14330(16)
O3 O 0.86332(17) 0.0360(3) 0.41484(17)
O4 O 0.86655(16) -0.0965(3) 0.27985(17)
Mn1A Mn 1.0000 0.0000 0.5000
Mn1A_2 Mn 1.0000 2.0000 0.5000
Mn2_2 Mn 1.0000 -0.13311(7) 0.2500
Mn2_3 Mn 1.0000 1.86689(7) 0.2500
Mn2B Mn 1.0000 1.13311(7) -0.2500
C1A C 1.0491(2) 1.6973(3) 0.4413(2)
C2A C 1.1049(2) 1.5932(3) 0.5159(2)
C3A C 1.0901(2) 1.5775(4) 0.6099(2)
H1A H 1.0460 1.6320 0.6287
C4A C 1.1417(3) 1.4798(4) 0.6757(3)
H2A H 1.1314 1.4660 0.7384
C5A C 1.1719(3) 1.5147(4) 0.4914(2)
H3A H 1.1819 1.5236 0.4281
C6A C 1.2069(3) 1.4050(4) 0.6482(3)
H4A H 1.2411 1.3386 0.6921
C7A C 1.3014(3) 1.3513(5) 0.5314(3)
H5A H 1.3565 1.3885 0.5737
H6A H 1.3014 1.3744 0.4632
C8A C 1.2984(3) 1.1889(5) 0.5430(3)
H7A H 1.2387 1.1541 0.5119
H8A H 1.3107 1.1649 0.6132
C9A C 1.3656(3) 1.1119(4) 0.4970(3)
H9A H 1.4250 1.1505 0.5253
H10A H 1.3662 1.0087 0.5125
C10A C 1.3895(3) 1.2261(5) 0.3448(3)
H11A H 1.4376 1.2766 0.3842
C11A C 1.3667(3) 1.2487(5) 0.2454(3)
H12A H 1.3994 1.3133 0.2163
C12A C 1.2736(2) 1.0564(4) 0.3317(3)
H13A H 1.2431 0.9900 0.3622
C13A C 1.2944(3) 1.1749(5) 0.1873(3)
H14A H 1.2775 1.1910 0.1192
C14A C 1.2474(2) 1.0772(4) 0.2312(3)
C15A C 1.1649(2) 0.9974(4) 0.1735(2)
N1A N 1.2235(2) 1.4247(3) 0.5579(2)
N2A N 1.3434(2) 1.1316(3) 0.3871(2)
N3B N 1.0472(2) 0.9578(3) -0.13485(19)
N3A N 1.0472(2) 1.0422(3) 0.36515(19)
N4B N 1.07952(19) 0.8456(3) -0.1504(2)
N5B N 1.1126(3) 0.7382(4) -0.1653(3)
O1A O 0.99273(16) 1.7702(2) 0.47158(17)
O1B O 0.99273(16) 1.2298(2) -0.02842(17)
O2A O 1.06291(17) 1.7008(3) 0.35670(16)
O2A_2 O 1.06291(17) 0.7008(3) 0.35670(16)
O3A O 1.13668(17) 1.0360(3) 0.08516(17)
O3C O 0.86332(17) 0.9640(3) -0.08516(17)
O4A O 1.13345(16) 0.9035(3) 0.22015(17)
O4_2 O 0.86655(16) 0.9035(3) 0.27985(17)
O5 O 0.5282(6) 0.6162(12) 0.0815(12)
O6 O 0.6254(12) 0.7214(12) 0.0085(8)
O7 O 0.6078(6) 0.7976(7) 0.1579(8)
O8 O 0.6653(5) 0.5749(8) 0.1361(4)
Cl1 Cl 0.61186(9) 0.68512(15) 0.09482(12)
O9 O 0.5000 0.9550(19) 0.2500
H15 H 0.523(16) 0.901(4) 0.213(14)
H15A H 0.477(16) 0.901(4) 0.287(14)
O10 O 0.5000 0.514(2) 0.2500
H16 H 0.53(2) 0.567(5) 0.22(3)
H16A H 0.47(2) 0.567(5) 0.28(3)
loop_
_geom_bond_atom_site_label_1
_geom_bond_atom_site_label_2
_geom_bond_site_symmetry_1
_geom_bond_site_symmetry_2
Mn1 N3 1_555 1_555
Mn2 N3 1_555 1_555
C1 C2 1_555 1_555
C2 C3 1_555 1_555
C3 H1 1_555 1_555
C4 C3 1_555 1_555
H2 C4 1_555 1_555
C5 C2 1_555 1_555
H3 C5 1_555 1_555
C6 C4 1_555 1_555
H4 C6 1_555 1_555
C7 H5 1_555 1_555
H6 C7 1_555 1_555
C8 C7 1_555 1_555
H7 C8 1_555 1_555
H8 C8 1_555 1_555
C9 C8 1_555 1_555
H9 C9 1_555 1_555
H10 C9 1_555 1_555
C10 H11 1_555 1_555
C11 C10 1_555 1_555
H12 C11 1_555 1_555
C12 H13 1_555 1_555
C13 C11 1_555 1_555
H14 C13 1_555 1_555
C14 C12 1_555 1_555
C15 C14 1_555 1_555
N1 C5 1_555 1_555
N2 C9 1_555 1_555
N3 N4 1_555 1_555
N4 N5 1_555 1_555
O1 Mn1 1_555 1_555
O2 Mn2 1_555 1_555
O3 C15 1_555 1_555
O4 C15 1_555 1_555
O5 Cl1 1_555 1_555
O6 Cl1 1_555 1_555
O7 Cl1 1_555 1_555
O8 Cl1 1_555 1_555
O9 H15 1_555 1_555
O10 H16 1_555 1_555
Mn1A O3 1_555 1_555
Mn1A_2 O1A 1_555 1_555
Mn2_2 O4 1_555 1_555
Mn2_3 O2A 1_555 1_555
Mn2B N3B 1_555 1_555
C1A C2A 1_555 1_555
C2A C3A 1_555 1_555
C3A H1A 1_555 1_555
C4A C3A 1_555 1_555
H2A C4A 1_555 1_555
C5A C2A 1_555 1_555
H3A C5A 1_555 1_555
C6A C4A 1_555 1_555
H4A C6A 1_555 1_555
C7A H5A 1_555 1_555
H6A C7A 1_555 1_555
C8A C7A 1_555 1_555
H7A C8A 1_555 1_555
H8A C8A 1_555 1_555
C9A C8A 1_555 1_555
H9A C9A 1_555 1_555
H10A C9A 1_555 1_555
C10A H11A 1_555 1_555
C11A C10A 1_555 1_555
H12A C11A 1_555 1_555
C12A H13A 1_555 1_555
C13A C11A 1_555 1_555
H14A C13A 1_555 1_555
C14A C12A 1_555 1_555
C15A C14A 1_555 1_555
N1A C5A 1_555 1_555
N2A C9A 1_555 1_555
N3B Mn1 1_555 1_555
N3A Mn2 1_555 1_555
N4B N3B 1_555 1_555
N5B N4B 1_555 1_555
O1A C1A 1_555 1_555
O1B Mn1 1_555 1_555
O2A C1A 1_555 1_555
O2A_2 Mn2 1_555 1_555
O3A Mn1 1_555 1_555
O3C Mn1 1_555 1_555
O4A Mn2 1_555 1_555
O4_2 Mn2 1_555 1_555
H15A O9 1_555 1_555
H16A O10 1_555 1_555
C1 O1 1_555 1_555
C1 O2 1_555 1_555
C6 N1 1_555 1_555
C7 N1 1_555 1_555
C10 N2 1_555 1_555
C12 N2 1_555 1_555
C13 C14 1_555 1_555
C6A N1A 1_555 1_555
C7A N1A 1_555 1_555
C10A N2A 1_555 1_555
C12A N2A 1_555 1_555
C13A C14A 1_555 1_555
C15A O3A 1_555 1_555
C15A O4A 1_555 1_555

#END
