
#######################################################################
#
#                 Cambridge Crystallographic Data Centre
#                                CCDC 
#
#######################################################################
#
# If this CIF has been generated from an entry in the Cambridge 
# Structural Database, then it will include bibliographic, chemical, 
# crystal, experimental, refinement or atomic coordinate data resulting 
# from the CCDC's data processing and validation procedures.
#
#######################################################################

data_IGOYOU
_symmetry_cell_setting           orthorhombic
_symmetry_space_group_name_H-M   'P 21 21 21'
_symmetry_Int_Tables_number      19
_space_group_name_Hall           'P 2ac 2ab'
loop_
_symmetry_equiv_pos_site_id
_symmetry_equiv_pos_as_xyz
1 x,y,z
2 1/2-x,-y,1/2+z
3 -x,1/2+y,1/2-z
4 1/2+x,1/2-y,-z
_cell_length_a                   5.3812(3)
_cell_length_b                   11.9615(5)
_cell_length_c                   15.3812(9)
_cell_angle_alpha                90
_cell_angle_beta                 90
_cell_angle_gamma                90
_cell_volume                     990.045
loop_
_atom_site_label
_atom_site_type_symbol
_atom_site_fract_x
_atom_site_fract_y
_atom_site_fract_z
Zn1 Zn 0.41854(12) -0.23902(5) 0.56397(4)
N1 N -0.0723(9) 0.1459(3) 0.8133(3)
C1 C -0.0636(11) 0.0477(4) 0.7740(4)
C2 C 0.4227(13) 0.0117(4) 0.6171(4)
N2 N 0.1199(9) 0.0174(3) 0.7145(4)
C3 C 0.6174(11) 0.0498(4) 0.5649(5)
H1 H 0.7029 0.0018 0.5279
C4 C 0.1492(11) -0.0886(4) 0.6830(4)
H2 H 0.0527 -0.1488 0.7010
C5 C 0.2968(10) 0.0838(4) 0.6716(4)
N3 N 0.3223(9) -0.0969(3) 0.6263(4)
O1 O 0.7684(6) -0.2490(3) 0.5502(3)
N4 N -0.3805(9) 0.0371(3) 0.8536(4)
C6 C 0.5490(11) 0.2331(5) 0.6246(4)
H3 H 0.5935 0.3082 0.6255
N5 N -0.2430(10) -0.0211(3) 0.7961(4)
N6 N -0.2797(9) 0.1365(3) 0.8632(4)
C7 C 0.3582(10) 0.1971(4) 0.6773(4)
H4 H 0.2748 0.2455 0.7146
C8 C 0.6770(11) 0.1606(4) 0.5702(5)
H5 H 0.8068 0.1882 0.5365
H6 H 0.843(10) -0.286(4) 0.579(5)
Zn1B Zn -0.41854(12) 0.26098(5) 0.93603(4)
Zn1C Zn 0.91854(12) -0.26098(5) 0.43603(4)
O1C O 0.2684(6) -0.2510(3) 0.4498(3)
N6B N 0.2797(9) -0.3635(3) 0.6368(4)
loop_
_geom_bond_atom_site_label_1
_geom_bond_atom_site_label_2
_geom_bond_site_symmetry_1
_geom_bond_site_symmetry_2
Zn1 N3 1_555 1_555
N1 C1 1_555 1_555
C1 N2 1_555 1_555
C2 C3 1_555 1_555
N2 C4 1_555 1_555
C3 H1 1_555 1_555
C4 H2 1_555 1_555
C5 C2 1_555 1_555
N3 C2 1_555 1_555
O1 Zn1 1_555 1_555
N4 N5 1_555 1_555
C6 H3 1_555 1_555
N5 C1 1_555 1_555
N6 N1 1_555 1_555
C7 C5 1_555 1_555
H4 C7 1_555 1_555
C8 C3 1_555 1_555
H5 C8 1_555 1_555
H6 O1 1_555 1_555
Zn1B N6 1_555 1_555
Zn1C O1 1_555 1_555
O1C Zn1 1_555 1_555
N6B Zn1 1_555 1_555
N2 C5 1_555 1_555
C4 N3 1_555 1_555
N4 N6 1_555 1_555
C6 C7 1_555 1_555
C6 C8 1_555 1_555

#END
