
#######################################################################
#
#                 Cambridge Crystallographic Data Centre
#                                CCDC 
#
#######################################################################
#
# If this CIF has been generated from an entry in the Cambridge 
# Structural Database, then it will include bibliographic, chemical, 
# crystal, experimental, refinement or atomic coordinate data resulting 
# from the CCDC's data processing and validation procedures.
#
#######################################################################

data_IGOYUA
_symmetry_cell_setting           hexagonal
_symmetry_space_group_name_H-M   'P 6/m'
_symmetry_Int_Tables_number      175
_space_group_name_Hall           '-P 6'
loop_
_symmetry_equiv_pos_site_id
_symmetry_equiv_pos_as_xyz
1 x,y,z
2 x-y,x,z
3 -y,x-y,z
4 -x,-y,z
5 -x+y,-x,z
6 y,-x+y,z
7 -x,-y,-z
8 -x+y,-x,-z
9 y,-x+y,-z
10 x,y,-z
11 x-y,x,-z
12 -y,x-y,-z
_cell_length_a                   14.656(2)
_cell_length_b                   14.656(2)
_cell_length_c                   11.4627(8)
_cell_angle_alpha                90
_cell_angle_beta                 90
_cell_angle_gamma                120
_cell_volume                     2132.3
loop_
_atom_site_label
_atom_site_type_symbol
_atom_site_fract_x
_atom_site_fract_y
_atom_site_fract_z
Cu1 Cu 0.56758(9) 0.42490(8) 0.25014(9)
N1 N 0.5240(6) 0.3754(6) 0.4020(6)
N2 N 0.6080(6) 0.4757(6) 0.0980(6)
C1 C 0.5831(9) 0.4200(10) 0.0000
H1 H 0.5506 0.3469 0.0000
C2 C 0.5684(9) 0.4317(9) 0.5000
H2 H 0.6232 0.5012 0.5000
C3 C 0.6481(6) 0.5766(8) 0.0617(7)
C4 C 0.6811(8) 0.6686(9) 0.1227(9)
H3 H 0.6804 0.6684 0.2039
C5 C 0.4451(7) 0.2817(7) 0.4390(6)
C6 C 0.3757(7) 0.1959(7) 0.3767(8)
H4 H 0.3769 0.1967 0.2956
C7 C 0.7147(8) 0.7598(8) 0.0628(8)
H5 H 0.7379 0.8226 0.1032
C8 C 0.3030(7) 0.1070(8) 0.4375(8)
H6 H 0.2542 0.0474 0.3970
N1I N 0.5240(6) 0.3754(6) 0.5980(6)
C5I C 0.4451(7) 0.2817(7) 0.5610(6)
C6I C 0.3757(7) 0.1959(7) 0.6233(8)
H4I H 0.3769 0.1967 0.7044
C8I C 0.3030(7) 0.1070(8) 0.5625(8)
H6I H 0.2542 0.0474 0.6030
N2I N 0.6080(6) 0.4757(6) -0.0980(6)
C3I C 0.6481(6) 0.5766(8) -0.0617(7)
C4I C 0.6811(8) 0.6686(9) -0.1227(9)
H3I H 0.6804 0.6684 -0.2039
C7I C 0.7147(8) 0.7598(8) -0.0628(8)
H5I H 0.7379 0.8226 -0.1032
Cu1I Cu 0.56758(9) 0.42490(8) -0.25014(9)
Cu1I_2 Cu 0.56758(9) 0.42490(8) 0.74986(9)
N1I_2 N 0.5240(6) 0.3754(6) -0.4020(6)
O1 O 0.0000 0.0000 0.263(5)
loop_
_geom_bond_atom_site_label_1
_geom_bond_atom_site_label_2
_geom_bond_site_symmetry_1
_geom_bond_site_symmetry_2
Cu1 N1 1_555 1_555
N1 C2 1_555 1_555
N2 Cu1 1_555 1_555
C1 N2 1_555 1_555
H1 C1 1_555 1_555
C2 H2 1_555 1_555
C3 N2 1_555 1_555
C4 C3 1_555 1_555
H3 C4 1_555 1_555
C5 N1 1_555 1_555
C6 C5 1_555 1_555
H4 C6 1_555 1_555
C7 C4 1_555 1_555
H5 C7 1_555 1_555
C8 C6 1_555 1_555
H6 C8 1_555 1_555
N1I C2 1_555 1_555
C5I C5 1_555 1_555
C6I C5I 1_555 1_555
H4I C6I 1_555 1_555
C8I C8 1_555 1_555
H6I C8I 1_555 1_555
N2I C1 1_555 1_555
C3I C3 1_555 1_555
C4I C3I 1_555 1_555
H3I C4I 1_555 1_555
C7I C7 1_555 1_555
H5I C7I 1_555 1_555
Cu1I N2I 1_555 1_555
Cu1I_2 N1I 1_555 1_555
N1I_2 Cu1I 1_555 1_555
N1I C5I 1_555 1_555
C6I C8I 1_555 1_555
N2I C3I 1_555 1_555
C4I C7I 1_555 1_555

#END
