
#######################################################################
#
#                 Cambridge Crystallographic Data Centre
#                                CCDC 
#
#######################################################################
#
# If this CIF has been generated from an entry in the Cambridge 
# Structural Database, then it will include bibliographic, chemical, 
# crystal, experimental, refinement or atomic coordinate data resulting 
# from the CCDC's data processing and validation procedures.
#
#######################################################################

data_IGOZIN
_symmetry_cell_setting           triclinic
_symmetry_space_group_name_H-M   'P -1'
_symmetry_Int_Tables_number      2
_space_group_name_Hall           '-P 1'
loop_
_symmetry_equiv_pos_site_id
_symmetry_equiv_pos_as_xyz
1 x,y,z
2 -x,-y,-z
_cell_length_a                   7.9710(10)
_cell_length_b                   8.2370(10)
_cell_length_c                   13.3040(10)
_cell_angle_alpha                81.005(6)
_cell_angle_beta                 87.877(8)
_cell_angle_gamma                78.322(8)
_cell_volume                     844.888
loop_
_atom_site_label
_atom_site_type_symbol
_atom_site_fract_x
_atom_site_fract_y
_atom_site_fract_z
Ni1 Ni 0.16644(3) 0.24811(3) 0.227010(18)
N1 N -0.0411(2) 0.3916(2) 0.29517(12)
N2 N 0.1948(2) 0.1314(2) 0.37877(12)
C1 C -0.1607(3) 0.5158(3) 0.25160(18)
C2 C -0.2967(3) 0.5977(3) 0.3064(2)
C3 C -0.3043(3) 0.5535(3) 0.4098(2)
C4 C -0.1774(3) 0.4253(3) 0.45891(16)
C5 C -0.1727(3) 0.3710(3) 0.56684(17)
C6 C -0.0519(3) 0.2417(3) 0.60959(16)
C7 C 0.0771(3) 0.1550(3) 0.54869(15)
C8 C 0.2024(3) 0.0156(3) 0.58815(16)
C9 C 0.3173(3) -0.0611(3) 0.52378(18)
C10 C 0.3101(3) 0.0000(3) 0.41872(17)
C11 C 0.0785(3) 0.2081(2) 0.44245(14)
C12 C -0.0493(2) 0.3459(2) 0.39725(14)
C13 C -0.0898(2) 0.1106(2) 0.11766(14)
C14 C -0.1828(3) -0.0274(3) 0.10769(16)
C15 C -0.3478(3) -0.0285(3) 0.12464(16)
C16 C -0.4709(2) 0.1053(2) 0.16688(15)
O1 O 0.00859(18) 0.08935(17) 0.19273(10)
O2 O -0.1077(2) 0.23050(19) 0.04578(11)
O3 O -0.62414(18) 0.08447(19) 0.17848(11)
O4 O -0.4158(2) 0.2264(2) 0.19025(15)
O5 O 0.1225(2) 0.3953(2) 0.08853(11)
O6 O 0.3208(2) 0.4159(2) 0.25760(12)
H1 H -0.147(4) 0.543(4) 0.180(2)
H2 H -0.378(4) 0.679(4) 0.270(2)
H3 H -0.398(4) 0.605(4) 0.450(2)
H4 H -0.258(4) 0.423(3) 0.610(2)
H5 H -0.050(3) 0.205(3) 0.677(2)
H6 H 0.205(4) -0.027(4) 0.661(2)
H7 H 0.400(4) -0.149(3) 0.544(2)
H8 H 0.387(3) -0.049(3) 0.3706(18)
H9 H -0.112(3) -0.109(3) 0.0817(19)
H10 H -0.394(3) -0.116(3) 0.1113(19)
H11 H 0.204(4) 0.403(4) 0.051(2)
H12 H 0.053(4) 0.346(4) 0.060(2)
H13 H 0.304(4) 0.510(4) 0.218(2)
H14 H 0.418(5) 0.366(4) 0.238(3)
O3_2 O 0.37586(18) 0.08447(19) 0.17848(11)
Ni1_2 Ni -0.83356(3) 0.24811(3) 0.227010(18)
O7 O 0.3717(3) 0.4392(3) 0.94446(15)
H15 H 0.461(5) 0.378(5) 0.938(3)
H16 H 0.370(7) 0.531(7) 0.938(4)
O8 O -0.2986(3) 0.2564(3) -0.12888(17)
H17 H -0.295(5) 0.169(5) -0.137(3)
H18 H -0.234(5) 0.243(5) -0.082(3)
loop_
_geom_bond_atom_site_label_1
_geom_bond_atom_site_label_2
_geom_bond_site_symmetry_1
_geom_bond_site_symmetry_2
Ni1 N1 1_555 1_555
N1 C1 1_555 1_555
N2 Ni1 1_555 1_555
C1 C2 1_555 1_555
C2 C3 1_555 1_555
C3 C4 1_555 1_555
C4 C5 1_555 1_555
C5 C6 1_555 1_555
C6 C7 1_555 1_555
C7 C8 1_555 1_555
C8 C9 1_555 1_555
C9 C10 1_555 1_555
C10 N2 1_555 1_555
C11 N2 1_555 1_555
C12 N1 1_555 1_555
C13 C14 1_555 1_555
C14 C15 1_555 1_555
C15 C16 1_555 1_555
C16 O3 1_555 1_555
O1 Ni1 1_555 1_555
O2 C13 1_555 1_555
O3 Ni1_2 1_555 1_555
O4 C16 1_555 1_555
O5 Ni1 1_555 1_555
O6 Ni1 1_555 1_555
H1 C1 1_555 1_555
H2 C2 1_555 1_555
H3 C3 1_555 1_555
H4 C5 1_555 1_555
H5 C6 1_555 1_555
H6 C8 1_555 1_555
H7 C9 1_555 1_555
H8 C10 1_555 1_555
H9 C14 1_555 1_555
H10 C15 1_555 1_555
H11 O5 1_555 1_555
H12 O5 1_555 1_555
H13 O6 1_555 1_555
H14 O6 1_555 1_555
O7 H15 1_555 1_555
H16 O7 1_555 1_555
O8 H17 1_555 1_555
H18 O8 1_555 1_555
O3_2 Ni1 1_555 1_555
C4 C12 1_555 1_555
C7 C11 1_555 1_555
C11 C12 1_555 1_555
C13 O1 1_555 1_555

#END
