
#######################################################################
#
#                 Cambridge Crystallographic Data Centre
#                                CCDC 
#
#######################################################################
#
# If this CIF has been generated from an entry in the Cambridge 
# Structural Database, then it will include bibliographic, chemical, 
# crystal, experimental, refinement or atomic coordinate data resulting 
# from the CCDC's data processing and validation procedures.
#
#######################################################################

data_IGOZIO
_symmetry_cell_setting           monoclinic
_symmetry_space_group_name_H-M   'P 21/c'
_symmetry_Int_Tables_number      14
_space_group_name_Hall           '-P 2ybc'
loop_
_symmetry_equiv_pos_site_id
_symmetry_equiv_pos_as_xyz
1 x,y,z
2 -x,1/2+y,1/2-z
3 -x,-y,-z
4 x,1/2-y,1/2+z
_cell_length_a                   9.3423(4)
_cell_length_b                   11.7120(6)
_cell_length_c                   22.8011(13)
_cell_angle_alpha                90
_cell_angle_beta                 101.232(2)
_cell_angle_gamma                90
_cell_volume                     2447.04
loop_
_atom_site_label
_atom_site_type_symbol
_atom_site_fract_x
_atom_site_fract_y
_atom_site_fract_z
C1 C -0.2964(7) -0.2877(5) -0.1765(3)
H1 H -0.3793 -0.2649 -0.1578
H2 H -0.2049 -0.2623 -0.1501
C2 C -0.2949(7) -0.4167(5) -0.1837(3)
H3 H -0.2823 -0.4544 -0.1442
H4 H -0.3878 -0.4431 -0.2086
C3 C -0.1754(7) -0.5643(5) -0.2359(3)
H5 H -0.2409 -0.6101 -0.2152
C4 C -0.2421(8) -0.5625(5) -0.3025(3)
H6 H -0.2281 -0.6374 -0.3207
H7 H -0.3482 -0.5471 -0.3084
C5 C -0.2422(7) -0.4491(5) -0.3953(3)
H8 H -0.3476 -0.4670 -0.4011
H9 H -0.1983 -0.4974 -0.4227
C6 C -0.2200(7) -0.3227(5) -0.4078(3)
H10 H -0.1152 -0.3073 -0.4065
H11 H -0.2749 -0.3024 -0.4480
C7 C -0.4344(7) -0.2406(5) -0.3750(3)
H12 H -0.4804 -0.3169 -0.3756
H13 H -0.4662 -0.2057 -0.4150
C8 C -0.4842(7) -0.1668(5) -0.3284(3)
H14 H -0.5883 -0.1472 -0.3425
H15 H -0.4279 -0.0947 -0.3244
C9 C -0.4665(7) -0.2226(5) -0.2672(3)
H16 H -0.5203 -0.1772 -0.2420
H17 H -0.5105 -0.2998 -0.2719
C10 C -0.0237(7) -0.6168(5) -0.2213(3)
H18 H 0.0416 -0.5739 -0.2427
H19 H 0.0150 -0.6087 -0.1779
Cu1 Cu -0.19015(7) -0.32879(5) -0.28228(3)
N1 N -0.3107(6) -0.2326(4) -0.2363(3)
H20 H -0.266(8) -0.167(6) -0.230(3)
N2 N -0.1715(6) -0.4443(4) -0.2128(3)
H21 H -0.089(9) -0.437(6) -0.187(4)
N3 N -0.1690(6) -0.4708(4) -0.3316(2)
H22 H -0.066(8) -0.487(6) -0.329(3)
N4 N -0.2719(6) -0.2536(4) -0.3623(2)
H23 H -0.233(7) -0.187(3) -0.363(4)
N5 N -0.0209(6) -0.7396(4) -0.2377(3)
H24 H -0.079(9) -0.770(7) -0.215(4)
H25 H -0.071(7) -0.751(7) -0.2730(16)
Cu1A Cu 0.19015(7) -0.82879(5) -0.21772(3)
N5A N 0.0209(6) -0.2396(4) -0.2623(3)
H24A H 0.079(9) -0.270(7) -0.285(4)
H25A H 0.071(7) -0.251(7) -0.2270(16)
C11 C 0.3753(9) -0.3281(7) -0.0635(4)
F1 F 0.3202(6) -0.3360(5) -0.0145(2)
F2 F 0.5059(5) -0.3767(5) -0.0521(3)
F3 F 0.3936(7) -0.2185(4) -0.0744(3)
O1 O 0.2461(6) -0.5129(4) -0.1055(3)
O2 O 0.1181(5) -0.3344(4) -0.1341(2)
O3 O 0.3283(6) -0.3820(5) -0.1753(3)
S1 S 0.25351(18) -0.39777(14) -0.12757(8)
C12 C 0.2165(8) -0.4727(6) -0.4284(4)
F4 F 0.2310(6) -0.5814(4) -0.4439(2)
F5 F 0.3142(6) -0.4121(4) -0.4509(2)
F6 F 0.0840(6) -0.4371(5) -0.4552(3)
O4 O 0.1382(5) -0.5330(4) -0.3328(2)
O5 O 0.3950(5) -0.4925(4) -0.3258(2)
O6 O 0.2188(5) -0.3369(4) -0.3411(2)
S2 S 0.24683(17) -0.45665(13) -0.34797(8)
C13 C 0.0507(12) -0.6706(8) 0.0172(5)
H26 H 0.1366 -0.6220 0.0295
H27 H 0.0820 -0.7490 0.0114
H28 H -0.0087 -0.6696 0.0482
C14 C -0.0356(10) -0.6278(7) -0.0388(4)
N6 N -0.1032(10) -0.5962(7) -0.0832(4)
loop_
_geom_bond_atom_site_label_1
_geom_bond_atom_site_label_2
_geom_bond_site_symmetry_1
_geom_bond_site_symmetry_2
C1 H1 1_555 1_555
H2 C1 1_555 1_555
C2 C1 1_555 1_555
H3 C2 1_555 1_555
H4 C2 1_555 1_555
C3 H5 1_555 1_555
C4 C3 1_555 1_555
H6 C4 1_555 1_555
H7 C4 1_555 1_555
C5 H8 1_555 1_555
H9 C5 1_555 1_555
C6 C5 1_555 1_555
H10 C6 1_555 1_555
H11 C6 1_555 1_555
C7 H12 1_555 1_555
H13 C7 1_555 1_555
C8 C7 1_555 1_555
H14 C8 1_555 1_555
H15 C8 1_555 1_555
C9 C8 1_555 1_555
H16 C9 1_555 1_555
H17 C9 1_555 1_555
C10 C3 1_555 1_555
H18 C10 1_555 1_555
H19 C10 1_555 1_555
Cu1 N1 1_555 1_555
N1 C1 1_555 1_555
H20 N1 1_555 1_555
N2 C2 1_555 1_555
H21 N2 1_555 1_555
N3 C4 1_555 1_555
H22 N3 1_555 1_555
N4 C6 1_555 1_555
H23 N4 1_555 1_555
N5 C10 1_555 1_555
H24 N5 1_555 1_555
H25 N5 1_555 1_555
C11 F1 1_555 1_555
F2 C11 1_555 1_555
F3 C11 1_555 1_555
O1 S1 1_555 1_555
O2 S1 1_555 1_555
O3 S1 1_555 1_555
S1 C11 1_555 1_555
C12 F4 1_555 1_555
F5 C12 1_555 1_555
F6 C12 1_555 1_555
O4 S2 1_555 1_555
O5 S2 1_555 1_555
O6 S2 1_555 1_555
S2 C12 1_555 1_555
C13 H26 1_555 1_555
H27 C13 1_555 1_555
H28 C13 1_555 1_555
C14 C13 1_555 1_555
N6 C14 1_555 1_555
Cu1A N5 1_555 1_555
N5A Cu1 1_555 1_555
H24A N5A 1_555 1_555
H25A N5A 1_555 1_555
C3 N2 1_555 1_555
C5 N3 1_555 1_555
C7 N4 1_555 1_555
C9 N1 1_555 1_555
Cu1 N2 1_555 1_555
Cu1 N3 1_555 1_555
Cu1 N4 1_555 1_555

#END
