
#######################################################################
#
#                 Cambridge Crystallographic Data Centre
#                                CCDC 
#
#######################################################################
#
# If this CIF has been generated from an entry in the Cambridge 
# Structural Database, then it will include bibliographic, chemical, 
# crystal, experimental, refinement or atomic coordinate data resulting 
# from the CCDC's data processing and validation procedures.
#
#######################################################################

data_IGUBIX
_symmetry_cell_setting           monoclinic
_symmetry_space_group_name_H-M   'P n'
_symmetry_Int_Tables_number      7
_space_group_name_Hall           'P -2yac'
loop_
_symmetry_equiv_pos_site_id
_symmetry_equiv_pos_as_xyz
1 x,y,z
2 1/2+x,-y,1/2+z
_cell_length_a                   4.043(5)
_cell_length_b                   14.545(5)
_cell_length_c                   12.082(5)
_cell_angle_alpha                90
_cell_angle_beta                 95.877(5)
_cell_angle_gamma                90
_cell_volume                     706.753
loop_
_atom_site_label
_atom_site_type_symbol
_atom_site_fract_x
_atom_site_fract_y
_atom_site_fract_z
Br1 Br 0.34133(11) 0.20900(4) 0.80182(4)
Br2 Br 1.36964(10) 0.20276(3) 0.11285(4)
Br3 Br 1.43135(13) -0.00870(3) 0.50895(5)
C1 C 0.5918(11) 0.4124(3) 0.5700(4)
C2 C 0.4328(12) 0.4571(4) 0.6519(4)
H1 H 0.4174 0.4307 0.7213
C3 C 0.2969(13) 0.5440(4) 0.6240(5)
H2 H 0.1853 0.5758 0.6757
C4 C 0.3265(10) 0.5834(3) 0.5201(3)
H3 H 0.2450 0.6426 0.5062
C5 C 0.4715(10) 0.5382(3) 0.4376(3)
H4 H 0.4848 0.5631 0.3673
C6 C 0.6053(12) 0.4529(3) 0.4682(4)
C7 C 0.8571(13) 0.3199(3) 0.4710(4)
C8 C 1.0364(11) 0.2475(3) 0.4221(4)
C9 C 1.1163(11) 0.2568(3) 0.3124(4)
H5 H 1.0596 0.3105 0.2731
C10 C 1.2786(10) 0.1870(3) 0.2623(3)
C11 C 1.3732(10) 0.1054(3) 0.3172(4)
C12 C 1.2953(11) 0.0992(3) 0.4292(3)
C13 C 1.1313(10) 0.1665(3) 0.4795(4)
H6 H 1.0818 0.1587 0.5524
Cu1 Cu 0.81492(16) 0.25026(4) 0.70617(5)
O1 O 0.7730(8) 0.39395(19) 0.4032(3)
N1 N 1.5323(11) 0.0375(3) 0.2683(3)
H7 H 1.5789 0.0437 0.2008
H8 H 1.5873 -0.0120 0.3045
N2 N 0.7516(9) 0.3269(3) 0.5690(3)
Br1_2 Br 1.34133(11) 0.20900(4) 0.80182(4)
Cu1_2 Cu -0.18508(16) 0.25026(4) 0.70617(5)
loop_
_geom_bond_atom_site_label_1
_geom_bond_atom_site_label_2
_geom_bond_site_symmetry_1
_geom_bond_site_symmetry_2
Br1 Cu1 1_555 1_555
Br2 C10 1_555 1_555
Br3 C12 1_555 1_555
C1 C2 1_555 1_555
C2 H1 1_555 1_555
C3 C2 1_555 1_555
H2 C3 1_555 1_555
C4 C3 1_555 1_555
H3 C4 1_555 1_555
C5 C4 1_555 1_555
H4 C5 1_555 1_555
C6 C1 1_555 1_555
C7 C8 1_555 1_555
C8 C9 1_555 1_555
C9 H5 1_555 1_555
C10 C9 1_555 1_555
C11 C10 1_555 1_555
C12 C11 1_555 1_555
C13 C8 1_555 1_555
H6 C13 1_555 1_555
Cu1 N2 1_555 1_555
O1 C6 1_555 1_555
N1 C11 1_555 1_555
H7 N1 1_555 1_555
H8 N1 1_555 1_555
N2 C1 1_555 1_555
Br1_2 Cu1 1_555 1_555
Cu1_2 Br1 1_555 1_555
C5 C6 1_555 1_555
C7 O1 1_555 1_555
C7 N2 1_555 1_555
C12 C13 1_555 1_555

#END
