
#######################################################################
#
#                 Cambridge Crystallographic Data Centre
#                                CCDC 
#
#######################################################################
#
# If this CIF has been generated from an entry in the Cambridge 
# Structural Database, then it will include bibliographic, chemical, 
# crystal, experimental, refinement or atomic coordinate data resulting 
# from the CCDC's data processing and validation procedures.
#
#######################################################################

data_IGUBES
_symmetry_cell_setting           orthorhombic
_symmetry_space_group_name_H-M   'I m a 2'
_symmetry_Int_Tables_number      46
_space_group_name_Hall           'I 2 -2a'
loop_
_symmetry_equiv_pos_site_id
_symmetry_equiv_pos_as_xyz
1 x,y,z
2 -x,-y,z
3 1/2-x,y,z
4 1/2+x,-y,z
5 1/2+x,1/2+y,1/2+z
6 1/2-x,1/2-y,1/2+z
7 -x,1/2+y,1/2+z
8 x,1/2-y,1/2+z
_cell_length_a                   40.116(4)
_cell_length_b                   15.0126(13)
_cell_length_c                   11.1975(9)
_cell_angle_alpha                90
_cell_angle_beta                 90
_cell_angle_gamma                90
_cell_volume                     6743.64
loop_
_atom_site_label
_atom_site_type_symbol
_atom_site_fract_x
_atom_site_fract_y
_atom_site_fract_z
Co1 Co 0.941218(18) 0.37155(5) 0.48583(7)
Co2 Co 0.7500 -0.19039(8) -0.04875(8)
Cl1 Cl 0.90249(4) 0.45573(10) 0.57469(14)
Cl2 Cl 0.95812(4) 0.41757(10) 0.30307(12)
Cl3 Cl 0.7500 -0.33789(15) -0.08518(19)
Cl4 Cl 0.7500 -0.10256(18) -0.2088(2)
N1 N 0.78983(13) -0.1658(4) 0.0533(4)
N2 N 0.82373(11) -0.1768(3) 0.2084(4)
N3 N 0.97763(11) -0.1775(3) 0.2117(4)
N4 N 1.01612(12) -0.1417(3) 0.0802(4)
N5 N 0.90974(11) 0.1070(3) 0.4804(5)
N6 N 0.92376(11) 0.2484(3) 0.4573(4)
C1 C 0.79594(14) -0.2081(4) 0.1564(5)
H1 H 0.7824 -0.2541 0.1885
C2 C 0.81546(17) -0.1035(5) 0.0404(6)
H2 H 0.8176 -0.0622 -0.0234
C3 C 0.83659(16) -0.1114(4) 0.1330(5)
H3 H 0.8566 -0.0785 0.1449
C4 C 0.83600(14) -0.2087(4) 0.3249(5)
H4 H 0.8382 -0.2743 0.3226
H5 H 0.8195 -0.1935 0.3875
C5 C 0.86926(13) -0.1681(4) 0.3569(5)
C6 C 0.89946(13) -0.2118(4) 0.3185(5)
C7 C 0.92979(14) -0.1759(4) 0.3537(5)
C8 C 0.93170(14) -0.0980(4) 0.4248(5)
C9 C 0.90194(13) -0.0568(3) 0.4598(5)
C10 C 0.87097(14) -0.0899(4) 0.4257(5)
C11 C 0.89730(16) -0.2930(4) 0.2439(5)
H6 H 0.9164 -0.2946 0.1881
H7 H 0.8766 -0.2911 0.1959
C12 C 0.89742(16) -0.3784(4) 0.3213(6)
H8 H 0.8951 -0.4307 0.2696
H9 H 0.8788 -0.3764 0.3777
H10 H 0.9184 -0.3822 0.3655
C13 C 0.96196(14) -0.2213(4) 0.3172(5)
H11 H 0.9778 -0.2200 0.3851
H12 H 0.9573 -0.2845 0.2979
C14 C 0.96176(14) -0.1331(4) 0.1212(5)
H13 H 0.9386 -0.1206 0.1167
C15 C 0.98503(14) -0.1100(4) 0.0395(5)
H14 H 0.9811 -0.0782 -0.0324
C16 C 1.00967(14) -0.1820(4) 0.1843(5)
H15 H 1.0260 -0.2103 0.2325
C17 C 0.96471(13) -0.0624(4) 0.4629(5)
H16 H 0.9630 0.0028 0.4745
H17 H 0.9814 -0.0738 0.3994
C18 C 0.97649(15) -0.1065(4) 0.5807(5)
H18 H 0.9981 -0.0817 0.6039
H19 H 0.9786 -0.1709 0.5688
H20 H 0.9601 -0.0948 0.6438
C19 C 0.90374(15) 0.0223(3) 0.5422(5)
H21 H 0.8825 0.0267 0.5871
H22 H 0.9218 0.0124 0.6008
C20 C 0.89912(17) 0.1319(4) 0.3672(5)
H23 H 0.8882 0.0956 0.3097
C21 C 0.90758(17) 0.2193(4) 0.3558(6)
H24 H 0.9030 0.2551 0.2878
C22 C 0.92463(14) 0.1794(4) 0.5290(5)
H25 H 0.9345 0.1801 0.6061
C23 C 0.83869(13) -0.0416(4) 0.4604(5)
H26 H 0.8216 -0.0524 0.3983
H27 H 0.8429 0.0233 0.4640
C24 C 0.82506(16) -0.0740(5) 0.5842(6)
H28 H 0.8049 -0.0403 0.6045
H29 H 0.8421 -0.0644 0.6457
H30 H 0.8197 -0.1376 0.5797
Co1B Co 0.558782(18) 0.37155(5) 0.48583(7)
Co1D Co 0.441218(18) -0.12845(5) -0.01417(7)
Co1F Co 1.058782(18) -0.12845(5) -0.01417(7)
Cl1B Cl 0.59751(4) 0.45573(10) 0.57469(14)
Cl2B Cl 0.54188(4) 0.41757(10) 0.30307(12)
N1B N 0.71017(13) -0.1658(4) 0.0533(4)
N2B N 0.67627(11) -0.1768(3) 0.2084(4)
N3B N 0.52237(11) -0.1775(3) 0.2117(4)
N4B N 0.48388(12) -0.1417(3) 0.0802(4)
N4D N 0.51612(12) 0.3583(3) 0.5802(4)
N4F N 0.98388(12) 0.3583(3) 0.5802(4)
N5B N 0.59026(11) 0.1070(3) 0.4804(5)
N6B N 0.57624(11) 0.2484(3) 0.4573(4)
C1B C 0.70406(14) -0.2081(4) 0.1564(5)
H1B H 0.7176 -0.2541 0.1885
C2B C 0.68454(17) -0.1035(5) 0.0404(6)
H2B H 0.6824 -0.0622 -0.0234
C3B C 0.66341(16) -0.1114(4) 0.1330(5)
H3B H 0.6434 -0.0785 0.1449
C4B C 0.66400(14) -0.2087(4) 0.3249(5)
H4B H 0.6618 -0.2743 0.3226
H5B H 0.6805 -0.1935 0.3875
C5B C 0.63074(13) -0.1681(4) 0.3569(5)
C6B C 0.60054(13) -0.2118(4) 0.3185(5)
C7B C 0.57021(14) -0.1759(4) 0.3537(5)
C8B C 0.56830(14) -0.0980(4) 0.4248(5)
C9B C 0.59806(13) -0.0568(3) 0.4598(5)
C10B C 0.62903(14) -0.0899(4) 0.4257(5)
C11B C 0.60270(16) -0.2930(4) 0.2439(5)
H6B H 0.5836 -0.2946 0.1881
H7B H 0.6234 -0.2911 0.1959
C12B C 0.60258(16) -0.3784(4) 0.3213(6)
H8B H 0.6049 -0.4307 0.2696
H9B H 0.6212 -0.3764 0.3777
H10B H 0.5816 -0.3822 0.3655
C13B C 0.53804(14) -0.2213(4) 0.3172(5)
H11B H 0.5222 -0.2200 0.3851
H12B H 0.5427 -0.2845 0.2979
C14B C 0.53824(14) -0.1331(4) 0.1212(5)
H13B H 0.5614 -0.1206 0.1167
C15B C 0.51497(14) -0.1100(4) 0.0395(5)
H14B H 0.5189 -0.0782 -0.0324
C16B C 0.49033(14) -0.1820(4) 0.1843(5)
H15B H 0.4740 -0.2103 0.2325
C17B C 0.53529(13) -0.0624(4) 0.4629(5)
H16B H 0.5370 0.0028 0.4745
H17B H 0.5186 -0.0738 0.3994
C18B C 0.52351(15) -0.1065(4) 0.5807(5)
H18B H 0.5019 -0.0817 0.6039
H19B H 0.5214 -0.1709 0.5688
H20B H 0.5399 -0.0948 0.6438
C19B C 0.59626(15) 0.0223(3) 0.5422(5)
H21B H 0.6175 0.0267 0.5871
H22B H 0.5782 0.0124 0.6008
C20B C 0.60088(17) 0.1319(4) 0.3672(5)
H23B H 0.6118 0.0956 0.3097
C21B C 0.59242(17) 0.2193(4) 0.3558(6)
H24B H 0.5970 0.2551 0.2878
C22B C 0.57537(14) 0.1794(4) 0.5290(5)
H25B H 0.5655 0.1801 0.6061
C23B C 0.66131(13) -0.0416(4) 0.4604(5)
H26B H 0.6784 -0.0524 0.3983
H27B H 0.6571 0.0233 0.4640
C24B C 0.67494(16) -0.0740(5) 0.5842(6)
H28B H 0.6951 -0.0403 0.6045
H29B H 0.6579 -0.0644 0.6457
H30B H 0.6803 -0.1376 0.5797
loop_
_geom_bond_atom_site_label_1
_geom_bond_atom_site_label_2
_geom_bond_site_symmetry_1
_geom_bond_site_symmetry_2
Co1 Cl1 1_555 1_555
Co2 Cl3 1_555 1_555
Cl2 Co1 1_555 1_555
Cl4 Co2 1_555 1_555
N1 Co2 1_555 1_555
N2 C1 1_555 1_555
N3 C13 1_555 1_555
N4 C15 1_555 1_555
N5 C19 1_555 1_555
N6 Co1 1_555 1_555
C1 N1 1_555 1_555
H1 C1 1_555 1_555
C2 N1 1_555 1_555
H2 C2 1_555 1_555
C3 N2 1_555 1_555
H3 C3 1_555 1_555
C4 N2 1_555 1_555
H4 C4 1_555 1_555
H5 C4 1_555 1_555
C5 C4 1_555 1_555
C6 C5 1_555 1_555
C7 C6 1_555 1_555
C8 C7 1_555 1_555
C9 C8 1_555 1_555
C10 C5 1_555 1_555
C11 C6 1_555 1_555
H6 C11 1_555 1_555
H7 C11 1_555 1_555
C12 C11 1_555 1_555
H8 C12 1_555 1_555
H9 C12 1_555 1_555
H10 C12 1_555 1_555
C13 C7 1_555 1_555
H11 C13 1_555 1_555
H12 C13 1_555 1_555
C14 N3 1_555 1_555
H13 C14 1_555 1_555
C15 C14 1_555 1_555
H14 C15 1_555 1_555
C16 N3 1_555 1_555
H15 C16 1_555 1_555
C17 C8 1_555 1_555
H16 C17 1_555 1_555
H17 C17 1_555 1_555
C18 C17 1_555 1_555
H18 C18 1_555 1_555
H19 C18 1_555 1_555
H20 C18 1_555 1_555
C19 C9 1_555 1_555
H21 C19 1_555 1_555
H22 C19 1_555 1_555
C20 N5 1_555 1_555
H23 C20 1_555 1_555
C21 N6 1_555 1_555
H24 C21 1_555 1_555
C22 N5 1_555 1_555
H25 C22 1_555 1_555
C23 C10 1_555 1_555
H26 C23 1_555 1_555
H27 C23 1_555 1_555
C24 C23 1_555 1_555
H28 C24 1_555 1_555
H29 C24 1_555 1_555
H30 C24 1_555 1_555
Co1B Cl1B 1_555 1_555
Co1D N4B 1_555 1_555
Co1F N4 1_555 1_555
Cl2B Co1B 1_555 1_555
N1B Co2 1_555 1_555
N2B C1B 1_555 1_555
N3B C13B 1_555 1_555
N4B C15B 1_555 1_555
N4D Co1B 1_555 1_555
N4F Co1 1_555 1_555
N5B C19B 1_555 1_555
N6B Co1B 1_555 1_555
C1B N1B 1_555 1_555
H1B C1B 1_555 1_555
C2B N1B 1_555 1_555
H2B C2B 1_555 1_555
C3B N2B 1_555 1_555
H3B C3B 1_555 1_555
C4B N2B 1_555 1_555
H4B C4B 1_555 1_555
H5B C4B 1_555 1_555
C5B C4B 1_555 1_555
C6B C5B 1_555 1_555
C7B C6B 1_555 1_555
C8B C7B 1_555 1_555
C9B C8B 1_555 1_555
C10B C5B 1_555 1_555
C11B C6B 1_555 1_555
H6B C11B 1_555 1_555
H7B C11B 1_555 1_555
C12B C11B 1_555 1_555
H8B C12B 1_555 1_555
H9B C12B 1_555 1_555
H10B C12B 1_555 1_555
C13B C7B 1_555 1_555
H11B C13B 1_555 1_555
H12B C13B 1_555 1_555
C14B N3B 1_555 1_555
H13B C14B 1_555 1_555
C15B C14B 1_555 1_555
H14B C15B 1_555 1_555
C16B N3B 1_555 1_555
H15B C16B 1_555 1_555
C17B C8B 1_555 1_555
H16B C17B 1_555 1_555
H17B C17B 1_555 1_555
C18B C17B 1_555 1_555
H18B C18B 1_555 1_555
H19B C18B 1_555 1_555
H20B C18B 1_555 1_555
C19B C9B 1_555 1_555
H21B C19B 1_555 1_555
H22B C19B 1_555 1_555
C20B N5B 1_555 1_555
H23B C20B 1_555 1_555
C21B N6B 1_555 1_555
H24B C21B 1_555 1_555
C22B N5B 1_555 1_555
H25B C22B 1_555 1_555
C23B C10B 1_555 1_555
H26B C23B 1_555 1_555
H27B C23B 1_555 1_555
C24B C23B 1_555 1_555
H28B C24B 1_555 1_555
H29B C24B 1_555 1_555
H30B C24B 1_555 1_555
N4 C16 1_555 1_555
N6 C22 1_555 1_555
C2 C3 1_555 1_555
C9 C10 1_555 1_555
C20 C21 1_555 1_555
N4B C16B 1_555 1_555
N6B C22B 1_555 1_555
C2B C3B 1_555 1_555
C9B C10B 1_555 1_555
C20B C21B 1_555 1_555

#END
