
#######################################################################
#
#                 Cambridge Crystallographic Data Centre
#                                CCDC 
#
#######################################################################
#
# If this CIF has been generated from an entry in the Cambridge 
# Structural Database, then it will include bibliographic, chemical, 
# crystal, experimental, refinement or atomic coordinate data resulting 
# from the CCDC's data processing and validation procedures.
#
#######################################################################

data_IGUCOD
_symmetry_cell_setting           monoclinic
_symmetry_space_group_name_H-M   'P 2/c'
_symmetry_Int_Tables_number      13
_space_group_name_Hall           '-P 2yc'
loop_
_symmetry_equiv_pos_site_id
_symmetry_equiv_pos_as_xyz
1 x,y,z
2 -x,y,1/2-z
3 -x,-y,-z
4 x,-y,1/2+z
_cell_length_a                   12.2191(7)
_cell_length_b                   9.9998(4)
_cell_length_c                   22.6733(13)
_cell_angle_alpha                90
_cell_angle_beta                 96.949(6)
_cell_angle_gamma                90
_cell_volume                     2750.07
loop_
_atom_site_label
_atom_site_type_symbol
_atom_site_fract_x
_atom_site_fract_y
_atom_site_fract_z
Ni1 Ni 0.79760(3) 0.27774(3) 0.591756(14)
Ni2 Ni 0.68937(3) 0.75709(3) 0.895890(13)
O1 O 0.88668(15) 0.29609(15) 0.52147(7)
O2 O 0.74280(14) 0.72238(15) 0.81083(7)
O3 O 0.73722(15) 0.31964(15) 0.67489(8)
O4 O 0.61552(14) 0.25519(15) 0.47080(7)
O5 O 0.62961(16) 0.58461(14) 0.84898(8)
N1 N 0.74784(19) 0.94739(19) 0.91601(9)
C1 C 0.7823(2) 0.4334(2) 0.67382(11)
N2 N 0.5584(2) 0.86778(18) 0.85404(10)
C2 C 0.5736(2) 1.0020(2) 0.86124(11)
O6 O 0.83957(16) 0.46528(15) 0.63329(8)
C3 C 0.6960(3) 1.1812(2) 0.90308(13)
C4 C 0.8369(2) -0.0068(2) 0.60888(12)
N3 N 0.93590(19) 0.19104(18) 0.64033(9)
C5 C 0.6904(2) 0.6134(2) 0.80939(11)
O7 O 0.82202(17) 0.35750(16) 0.42867(8)
O8 O 0.66122(18) 0.37357(16) 0.55329(9)
N4 N 0.75699(18) 0.07503(18) 0.58204(9)
C6 C 1.0174(2) -0.0238(2) 0.66958(12)
C7 C 0.4956(2) 1.0964(2) 0.83711(12)
C8 C 0.7323(2) -0.2029(2) 0.57814(12)
H1 H 0.7235 -0.2972 0.5761
C9 C 0.8419(2) 0.9856(2) 0.94604(12)
H2 H 0.8925 0.9188 0.9617
C10 C 0.3860(2) 0.9132(3) 0.79596(13)
H3 H 0.3217 0.8791 0.7731
C11 C 0.6999(2) 0.5153(2) 0.76133(12)
H4 H 0.6549 0.4376 0.7592
C12 C 0.7691(2) 0.5323(2) 0.72131(12)
H5 H 0.8122 0.6115 0.7230
C13 C 1.1095(2) 0.1797(3) 0.70180(13)
H6 H 1.1695 0.2262 0.7233
C14 C 0.4673(2) 0.8263(2) 0.82224(12)
H7 H 0.4564 0.7328 0.8169
C15 C 0.6750(2) 1.0441(2) 0.89432(11)
C16 C 0.9331(2) 0.0554(2) 0.64038(11)
C17 C 0.8290(2) -0.1467(2) 0.60728(12)
C18 C 0.6067(2) 0.3555(2) 0.50391(12)
C19 C 0.8707(3) 1.1198(2) 0.95589(13)
H8 H 0.9400 1.1429 0.9770
C20 C 0.5196(2) 0.4554(2) 0.48246(12)
H9 H 0.4910 0.4548 0.4416
C21 C 0.8850(2) 0.3681(2) 0.47584(12)
C22 C 0.5195(2) 1.2359(3) 0.84786(12)
H10 H 0.4670 1.3011 0.8326
C23 C 0.6144(3) 1.2759(2) 0.87901(13)
H11 H 0.6278 1.3687 0.8852
C24 C 0.9197(2) -0.2249(3) 0.63562(12)
H12 H 0.9164 -0.3197 0.6332
C25 C 0.6665(2) 0.0181(2) 0.55496(12)
H13 H 0.6099 0.0743 0.5363
C26 C 0.6501(3) -0.1202(2) 0.55246(13)
H14 H 0.5832 -0.1565 0.5333
C27 C 0.9709(2) 0.4770(2) 0.47558(11)
H15 H 0.9838 0.5143 0.4385
C28 C 1.1078(3) 0.0438(3) 0.70127(13)
H16 H 1.1668 -0.0055 0.7220
C29 C 1.0091(3) -0.1660(3) 0.66554(14)
H17 H 1.0673 -0.2199 0.6842
C30 C 0.7979(2) 1.2172(2) 0.93473(12)
H18 H 0.8161 1.3087 0.9413
C31 C 0.4004(2) 1.0484(3) 0.80363(12)
H19 H 0.3459 1.1090 0.7862
C32 C 1.0222(2) 0.2508(3) 0.67043(10)
H20 H 1.0250 0.3457 0.6707
Ni1B Ni 1.20240(3) 0.72226(3) 0.408244(14)
Ni1B_2 Ni 0.20240(3) 0.72226(3) 0.408244(14)
Ni2C Ni 0.68937(3) 0.24291(3) 0.395890(13)
Ni2A Ni 1.31063(3) 0.75709(3) 0.604110(13)
Ni2A_2 Ni 0.31063(3) 0.75709(3) 0.604110(13)
Ni2B Ni 1.31063(3) 0.24291(3) 0.104110(13)
O1B O 1.11332(15) 0.70391(15) 0.47853(7)
O2B O 1.25720(14) 0.27762(15) 0.18917(7)
O2C O 0.74280(14) 0.27762(15) 0.31083(7)
O3B O 1.26278(15) 0.68036(15) 0.32511(8)
O4B O 0.38448(14) 0.74481(15) 0.52920(7)
O4C O 0.61552(14) 0.74481(15) 0.97080(7)
O5B O 1.37039(16) 0.41539(14) 0.15102(8)
O5C O 0.62961(16) 0.41539(14) 0.34898(8)
N1C N 0.74784(19) 0.05261(19) 0.41601(9)
C1B C 1.2177(2) 0.5666(2) 0.32618(11)
N2C N 0.5584(2) 0.13222(18) 0.35404(10)
C2C C 0.5736(2) -0.0020(2) 0.36124(11)
O6B O 1.16043(16) 0.53472(15) 0.36671(8)
C3C C 0.6960(3) -0.1812(2) 0.40308(13)
C4B C 1.1631(2) 1.0068(2) 0.39112(12)
N3B N 1.06410(19) 0.80896(18) 0.35967(9)
C5B C 1.3096(2) 0.3866(2) 0.19061(11)
O7B O 1.17798(17) 0.64250(16) 0.57133(8)
O7C O 0.82202(17) 0.64250(16) 0.92867(8)
O8B O 0.33878(18) 0.62643(16) 0.44671(9)
O8B_2 O 1.33878(18) 0.62643(16) 0.44671(9)
N4B N 1.24301(18) 0.92497(18) 0.41796(9)
C6B C 0.9826(2) 1.0238(2) 0.33042(12)
C7C C 0.4956(2) -0.0964(2) 0.33711(12)
C8B C 1.2677(2) 1.2029(2) 0.42186(12)
H1B H 1.2765 1.2972 0.4239
C9C C 0.8419(2) 0.0144(2) 0.44604(12)
H2C H 0.8925 0.0812 0.4617
C10C C 0.3860(2) 0.0868(3) 0.29596(13)
H3C H 0.3217 0.1209 0.2731
C11B C 1.3001(2) 0.4847(2) 0.23867(12)
H4B H 1.3451 0.5624 0.2408
C12B C 1.2309(2) 0.4677(2) 0.27869(12)
H5B H 1.1878 0.3885 0.2770
C13B C 0.8905(2) 0.8203(3) 0.29820(13)
H6B H 0.8305 0.7738 0.2767
C14C C 0.4673(2) 0.1737(2) 0.32224(12)
H7C H 0.4564 0.2672 0.3169
C15C C 0.6750(2) -0.0441(2) 0.39432(11)
C16B C 1.0669(2) 0.9446(2) 0.35962(11)
C17B C 1.1710(2) 1.1467(2) 0.39272(12)
C18B C 0.3933(2) 0.6445(2) 0.49609(12)
C19C C 0.8707(3) -0.1198(2) 0.45589(13)
H8C H 0.9400 -0.1429 0.4770
C20B C 0.4804(2) 0.5446(2) 0.51754(12)
H9B H 0.5090 0.5452 0.5584
C21B C 1.1150(2) 0.6319(2) 0.52416(12)
C22C C 0.5195(2) -0.2359(3) 0.34786(12)
H10C H 0.4670 -0.3011 0.3326
C23C C 0.6144(3) -0.2759(2) 0.37901(13)
H11C H 0.6278 -0.3687 0.3852
C24B C 1.0803(2) 1.2249(3) 0.36438(12)
H12B H 1.0836 1.3197 0.3668
C25B C 1.3335(2) 0.9819(2) 0.44504(12)
H13B H 1.3901 0.9257 0.4637
C26B C 1.3499(3) 1.1202(2) 0.44754(13)
H14B H 1.4168 1.1565 0.4667
C27B C 1.0291(2) 0.5230(2) 0.52442(11)
H15B H 1.0162 0.4857 0.5615
C28B C 0.8922(3) 0.9562(3) 0.29873(13)
H16B H 0.8332 1.0055 0.2780
C29B C 0.9909(3) 1.1660(3) 0.33446(14)
H17B H 0.9327 1.2199 0.3158
C30C C 0.7979(2) -0.2172(2) 0.43473(12)
H18C H 0.8161 -0.3087 0.4413
C31C C 0.4004(2) -0.0484(3) 0.30363(12)
H19C H 0.3459 -0.1090 0.2862
C32B C 0.9778(2) 0.7492(3) 0.32957(10)
H20B H 0.9750 0.6543 0.3293
loop_
_geom_bond_atom_site_label_1
_geom_bond_atom_site_label_2
_geom_bond_site_symmetry_1
_geom_bond_site_symmetry_2
Ni1 O1 1_555 1_555
Ni2 O2 1_555 1_555
O1 C21 1_555 1_555
O2 C5 1_555 1_555
O3 Ni1 1_555 1_555
O4 C18 1_555 1_555
O5 Ni2 1_555 1_555
N1 Ni2 1_555 1_555
C1 O3 1_555 1_555
N2 Ni2 1_555 1_555
C2 N2 1_555 1_555
O6 Ni1 1_555 1_555
C3 C15 1_555 1_555
C4 N4 1_555 1_555
N3 Ni1 1_555 1_555
C5 O5 1_555 1_555
O7 C21 1_555 1_555
O8 Ni1 1_555 1_555
N4 Ni1 1_555 1_555
C6 C16 1_555 1_555
C7 C2 1_555 1_555
C8 H1 1_555 1_555
C9 N1 1_555 1_555
H2 C9 1_555 1_555
C10 H3 1_555 1_555
C11 C5 1_555 1_555
H4 C11 1_555 1_555
C12 C1 1_555 1_555
H5 C12 1_555 1_555
C13 H6 1_555 1_555
C14 N2 1_555 1_555
H7 C14 1_555 1_555
C15 N1 1_555 1_555
C16 C4 1_555 1_555
C17 C4 1_555 1_555
C18 O8 1_555 1_555
C19 C9 1_555 1_555
H8 C19 1_555 1_555
C20 C18 1_555 1_555
H9 C20 1_555 1_555
C21 C27 1_555 1_555
C22 C7 1_555 1_555
H10 C22 1_555 1_555
C23 C3 1_555 1_555
H11 C23 1_555 1_555
C24 C17 1_555 1_555
H12 C24 1_555 1_555
C25 N4 1_555 1_555
H13 C25 1_555 1_555
C26 C8 1_555 1_555
H14 C26 1_555 1_555
C27 H15 1_555 1_555
C28 C6 1_555 1_555
H16 C28 1_555 1_555
C29 C6 1_555 1_555
H17 C29 1_555 1_555
C30 C3 1_555 1_555
H18 C30 1_555 1_555
C31 C7 1_555 1_555
H19 C31 1_555 1_555
C32 N3 1_555 1_555
H20 C32 1_555 1_555
Ni1B O1B 1_555 1_555
Ni1B_2 O8B 1_555 1_555
Ni2C O4 1_555 1_555
Ni2A O7B 1_555 1_555
Ni2A_2 O4B 1_555 1_555
Ni2B O2B 1_555 1_555
O1B C21B 1_555 1_555
O2B C5B 1_555 1_555
O2C Ni2C 1_555 1_555
O3B Ni1B 1_555 1_555
O4B C18B 1_555 1_555
O4C Ni2 1_555 1_555
O5B Ni2B 1_555 1_555
O5C Ni2C 1_555 1_555
N1C Ni2C 1_555 1_555
C1B O3B 1_555 1_555
N2C Ni2C 1_555 1_555
C2C N2C 1_555 1_555
O6B Ni1B 1_555 1_555
C3C C15C 1_555 1_555
C4B N4B 1_555 1_555
N3B Ni1B 1_555 1_555
C5B O5B 1_555 1_555
O7B C21B 1_555 1_555
O7C Ni2 1_555 1_555
O8B C18B 1_555 1_555
O8B_2 Ni1B 1_555 1_555
N4B Ni1B 1_555 1_555
C6B C16B 1_555 1_555
C7C C2C 1_555 1_555
C8B H1B 1_555 1_555
C9C N1C 1_555 1_555
H2C C9C 1_555 1_555
C10C H3C 1_555 1_555
C11B C5B 1_555 1_555
H4B C11B 1_555 1_555
C12B C1B 1_555 1_555
H5B C12B 1_555 1_555
C13B H6B 1_555 1_555
C14C N2C 1_555 1_555
H7C C14C 1_555 1_555
C15C N1C 1_555 1_555
C16B C4B 1_555 1_555
C17B C4B 1_555 1_555
C18B C20B 1_555 1_555
C19C C9C 1_555 1_555
H8C C19C 1_555 1_555
C20B C20 1_555 1_555
H9B C20B 1_555 1_555
C21B C27B 1_555 1_555
C22C C7C 1_555 1_555
H10C C22C 1_555 1_555
C23C C3C 1_555 1_555
H11C C23C 1_555 1_555
C24B C17B 1_555 1_555
H12B C24B 1_555 1_555
C25B N4B 1_555 1_555
H13B C25B 1_555 1_555
C26B C8B 1_555 1_555
H14B C26B 1_555 1_555
C27B C27 1_555 1_555
H15B C27B 1_555 1_555
C28B C6B 1_555 1_555
H16B C28B 1_555 1_555
C29B C6B 1_555 1_555
H17B C29B 1_555 1_555
C30C C3C 1_555 1_555
H18C C30C 1_555 1_555
C31C C7C 1_555 1_555
H19C C31C 1_555 1_555
C32B N3B 1_555 1_555
H20B C32B 1_555 1_555
C1 O6 1_555 1_555
C2 C15 1_555 1_555
N3 C16 1_555 1_555
O7 Ni2C 1_555 1_555
C8 C17 1_555 1_555
C10 C14 1_555 1_555
C10 C31 1_555 1_555
C11 C12 1_555 1_555
C13 C28 1_555 1_555
C13 C32 1_555 1_555
C19 C30 1_555 1_555
C22 C23 1_555 1_555
C24 C29 1_555 1_555
C25 C26 1_555 1_555
C1B O6B 1_555 1_555
C2C C15C 1_555 1_555
N3B C16B 1_555 1_555
C8B C17B 1_555 1_555
C10C C14C 1_555 1_555
C10C C31C 1_555 1_555
C11B C12B 1_555 1_555
C13B C28B 1_555 1_555
C13B C32B 1_555 1_555
C19C C30C 1_555 1_555
C22C C23C 1_555 1_555
C24B C29B 1_555 1_555
C25B C26B 1_555 1_555

#END
