
#######################################################################
#
#                 Cambridge Crystallographic Data Centre
#                                CCDC 
#
#######################################################################
#
# If this CIF has been generated from an entry in the Cambridge 
# Structural Database, then it will include bibliographic, chemical, 
# crystal, experimental, refinement or atomic coordinate data resulting 
# from the CCDC's data processing and validation procedures.
#
#######################################################################

data_IGUFEV
_symmetry_cell_setting           triclinic
_symmetry_space_group_name_H-M   'P -1'
_symmetry_Int_Tables_number      2
_space_group_name_Hall           '-P 1'
loop_
_symmetry_equiv_pos_site_id
_symmetry_equiv_pos_as_xyz
1 x,y,z
2 -x,-y,-z
_cell_length_a                   10.0719(3)
_cell_length_b                   10.23420(10)
_cell_length_c                   10.8551(3)
_cell_angle_alpha                80.34
_cell_angle_beta                 66.6430(10)
_cell_angle_gamma                75.474(2)
_cell_volume                     991.445
loop_
_atom_site_label
_atom_site_type_symbol
_atom_site_fract_x
_atom_site_fract_y
_atom_site_fract_z
Co1 Co 0.12493(5) -0.10946(5) -0.17501(5)
O1 O -0.0972(3) -0.0672(3) -0.1239(3)
O2 O 0.3499(3) -0.2207(3) -0.2781(3)
O3 O 0.1634(3) -0.2672(3) -0.3072(3)
N1 N 0.1198(4) -0.2636(3) -0.0113(3)
O4 O -0.1832(3) -0.0172(3) 0.0906(3)
C1 C 0.2306(5) -0.2964(5) 0.0330(5)
H1 H 0.3112 -0.2549 -0.0106
C2 C 0.2310(5) -0.3894(5) 0.1407(5)
H2 H 0.3107 -0.4084 0.1682
C3 C -0.2002(4) -0.0339(4) -0.0129(4)
C4 C -0.3551(4) -0.0167(4) -0.0071(4)
C5 C 0.0088(5) -0.3288(4) 0.0510(5)
H3 H -0.0688 -0.3088 0.0205
C6 C -0.3842(4) -0.0093(5) -0.1223(4)
H4 H -0.3063 -0.0155 -0.2053
C7 C -0.4730(4) -0.0072(5) 0.1167(4)
H5 H -0.4556 -0.0119 0.1955
C8 C 0.1138(5) -0.4549(4) 0.2086(4)
C9 C 0.1080(6) -0.5538(5) 0.3285(5)
H6 H 0.0057 -0.5573 0.3826
H7 H 0.1479 -0.5215 0.3830
C10 C 0.0025(5) -0.4239(5) 0.1578(5)
H8 H -0.0769 -0.4676 0.1961
C11 C 0.4026(4) -0.3977(4) -0.4178(4)
C12 C 0.5378(5) -0.4559(5) -0.4084(5)
H9 H 0.5647 -0.4274 -0.3463
C13 C 0.3663(5) -0.4435(5) -0.5093(5)
H10 H 0.2751 -0.4063 -0.5164
C14 C 0.2998(4) -0.2885(4) -0.3293(4)
C15 C 0.1937(5) -0.6965(4) 0.2914(4)
H11 H 0.1561 -0.7292 0.2353
H12 H 0.2972 -0.6948 0.2405
C16 C 0.1783(5) -0.7907(4) 0.4173(4)
C17 C 0.2944(5) -0.8438(5) 0.4604(5)
H13 H 0.3870 -0.8234 0.4105
C18 C 0.0456(5) -0.8270(5) 0.4968(5)
H14 H -0.0361 -0.7942 0.4724
C19 C 0.0327(5) -0.9114(4) 0.6121(5)
H15 H -0.0586 -0.9338 0.6632
N2 N 0.1444(3) -0.9629(3) 0.6548(3)
C20 C 0.2729(5) -0.9268(5) 0.5772(5)
H16 H 0.3528 -0.9600 0.6041
C7A C -0.5270(4) 0.0072(5) -0.1167(4)
C4A C -0.6449(4) 0.0167(4) 0.0071(4)
C3A C -0.7998(4) 0.0339(4) 0.0129(4)
O1A O -0.9028(3) 0.0672(3) 0.1239(3)
O4A O -0.8168(3) 0.0172(3) -0.0906(3)
C6A C -0.6158(4) 0.0093(5) 0.1223(4)
H4A H -0.6937 0.0155 0.2053
H5A H -0.5444 0.0119 -0.1955
C13A C 0.6337(5) -0.5565(5) -0.4907(5)
C11A C 0.5974(4) -0.6023(4) -0.5822(4)
C12A C 0.4622(5) -0.5441(5) -0.5916(5)
H9A H 0.4353 -0.5726 -0.6537
C14A C 0.7002(4) -0.7115(4) -0.6707(4)
O2A O 0.6501(3) -0.7793(3) -0.7219(3)
O3A O 0.8366(3) -0.7328(3) -0.6928(3)
H10A H 0.7249 -0.5937 -0.4836
N1_2 N 0.1198(4) 0.7364(3) -1.0113(3)
C1_2 C 0.2306(5) 0.7036(5) -0.9670(5)
H1_2 H 0.3112 0.7451 -1.0106
C2_2 C 0.2310(5) 0.6106(5) -0.8593(5)
H2_2 H 0.3107 0.5916 -0.8318
C5_2 C 0.0088(5) 0.6712(4) -0.9490(5)
H3_2 H -0.0688 0.6912 -0.9795
C8_2 C 0.1138(5) 0.5451(4) -0.7914(4)
C9_2 C 0.1080(6) 0.4462(5) -0.6715(5)
H6_2 H 0.0057 0.4427 -0.6174
H7_2 H 0.1479 0.4785 -0.6170
C10_2 C 0.0025(5) 0.5761(5) -0.8422(5)
H8_2 H -0.0769 0.5324 -0.8039
C15_2 C 0.1937(5) 0.3035(4) -0.7086(4)
H11_2 H 0.1561 0.2708 -0.7647
H12_2 H 0.2972 0.3052 -0.7595
C16_2 C 0.1783(5) 0.2093(4) -0.5827(4)
C17_2 C 0.2944(5) 0.1562(5) -0.5396(5)
H13_2 H 0.3870 0.1766 -0.5895
C18_2 C 0.0456(5) 0.1730(5) -0.5032(5)
H14_2 H -0.0361 0.2058 -0.5276
C19_2 C 0.0327(5) 0.0886(4) -0.3879(5)
H15_2 H -0.0586 0.0662 -0.3368
N2_2 N 0.1444(3) 0.0371(3) -0.3452(3)
C20_2 C 0.2729(5) 0.0732(5) -0.4228(5)
H16_2 H 0.3528 0.0400 -0.3959
Co1A Co -1.12493(5) 0.10946(5) 0.17501(5)
O4A_2 O 0.1832(3) 0.0172(3) -0.0906(3)
Co1A_2 Co -0.12493(5) 0.10946(5) 0.17501(5)
Co1_2 Co 0.12493(5) -1.10946(5) 0.82499(5)
Co1_3 Co -0.87507(5) -0.10946(5) -0.17501(5)
Co1A_3 Co 0.87507(5) -0.89054(5) -0.82499(5)
Co1_4 Co 0.12493(5) 0.89054(5) -1.17501(5)
O2A_2 O -1.3499(3) 0.2207(3) 0.2781(3)
O3A_2 O -1.1634(3) 0.2672(3) 0.3072(3)
N1A N -1.1198(4) 0.2636(3) 0.0113(3)
O4_2 O -1.1832(3) -0.0172(3) 0.0906(3)
N2A N -1.1444(3) -0.0371(3) 0.3452(3)
loop_
_geom_bond_atom_site_label_1
_geom_bond_atom_site_label_2
_geom_bond_site_symmetry_1
_geom_bond_site_symmetry_2
Co1 O1 1_555 1_555
O1 C3 1_555 1_555
O2 Co1 1_555 1_555
O3 Co1 1_555 1_555
N1 Co1 1_555 1_555
O4 C3 1_555 1_555
C1 N1 1_555 1_555
H1 C1 1_555 1_555
C2 C1 1_555 1_555
H2 C2 1_555 1_555
C3 C4 1_555 1_555
C4 C6 1_555 1_555
C5 N1 1_555 1_555
H3 C5 1_555 1_555
C6 H4 1_555 1_555
C7 C4 1_555 1_555
H5 C7 1_555 1_555
C8 C2 1_555 1_555
C9 C8 1_555 1_555
H6 C9 1_555 1_555
H7 C9 1_555 1_555
C10 C5 1_555 1_555
H8 C10 1_555 1_555
C11 C12 1_555 1_555
C12 H9 1_555 1_555
C13 C11 1_555 1_555
H10 C13 1_555 1_555
C14 O2 1_555 1_555
C15 C9 1_555 1_555
H11 C15 1_555 1_555
H12 C15 1_555 1_555
C16 C15 1_555 1_555
C17 C16 1_555 1_555
H13 C17 1_555 1_555
C18 C16 1_555 1_555
H14 C18 1_555 1_555
C19 C18 1_555 1_555
H15 C19 1_555 1_555
N2 C19 1_555 1_555
C20 C17 1_555 1_555
H16 C20 1_555 1_555
C7A C6 1_555 1_555
C4A C7A 1_555 1_555
C3A C4A 1_555 1_555
O1A C3A 1_555 1_555
O4A C3A 1_555 1_555
C6A C7 1_555 1_555
H4A C6A 1_555 1_555
H5A C7A 1_555 1_555
C13A C12 1_555 1_555
C11A C13A 1_555 1_555
C12A C13 1_555 1_555
H9A C12A 1_555 1_555
C14A C11A 1_555 1_555
O2A C14A 1_555 1_555
O3A C14A 1_555 1_555
H10A C13A 1_555 1_555
N1_2 C1_2 1_555 1_555
C1_2 H1_2 1_555 1_555
C2_2 C1_2 1_555 1_555
H2_2 C2_2 1_555 1_555
C5_2 N1_2 1_555 1_555
H3_2 C5_2 1_555 1_555
C8_2 C2_2 1_555 1_555
C9_2 C8_2 1_555 1_555
H6_2 C9_2 1_555 1_555
H7_2 C9_2 1_555 1_555
C10_2 C5_2 1_555 1_555
H8_2 C10_2 1_555 1_555
C15_2 C9_2 1_555 1_555
H11_2 C15_2 1_555 1_555
H12_2 C15_2 1_555 1_555
C16_2 C15_2 1_555 1_555
C17_2 C16_2 1_555 1_555
H13_2 C17_2 1_555 1_555
C18_2 C16_2 1_555 1_555
H14_2 C18_2 1_555 1_555
C19_2 C18_2 1_555 1_555
H15_2 C19_2 1_555 1_555
N2_2 Co1 1_555 1_555
C20_2 C17_2 1_555 1_555
H16_2 C20_2 1_555 1_555
Co1A O1A 1_555 1_555
O4A_2 Co1 1_555 1_555
Co1A_2 O4 1_555 1_555
Co1_2 N2 1_555 1_555
Co1_3 O4A 1_555 1_555
Co1A_3 O2A 1_555 1_555
Co1_4 N1_2 1_555 1_555
O2A_2 Co1A 1_555 1_555
O3A_2 Co1A 1_555 1_555
N1A Co1A 1_555 1_555
O4_2 Co1A 1_555 1_555
N2A Co1A 1_555 1_555
O3 C14 1_555 1_555
C8 C10 1_555 1_555
C11 C14 1_555 1_555
N2 C20 1_555 1_555
C4A C6A 1_555 1_555
C11A C12A 1_555 1_555
O3A Co1A_3 1_555 1_555
C8_2 C10_2 1_555 1_555
C19_2 N2_2 1_555 1_555
N2_2 C20_2 1_555 1_555

#END
