
#######################################################################
#
#                 Cambridge Crystallographic Data Centre
#                                CCDC 
#
#######################################################################
#
# If this CIF has been generated from an entry in the Cambridge 
# Structural Database, then it will include bibliographic, chemical, 
# crystal, experimental, refinement or atomic coordinate data resulting 
# from the CCDC's data processing and validation procedures.
#
#######################################################################

data_IGUGUN
_symmetry_cell_setting           monoclinic
_symmetry_space_group_name_H-M   'C 2/c'
_symmetry_Int_Tables_number      15
_space_group_name_Hall           '-C 2yn'
loop_
_symmetry_equiv_pos_site_id
_symmetry_equiv_pos_as_xyz
1 x,y,z
2 -x,y,1/2-z
3 1/2+x,1/2+y,z
4 1/2-x,1/2+y,1/2-z
5 -x,-y,-z
6 x,-y,1/2+z
7 1/2-x,1/2-y,-z
8 1/2+x,1/2-y,1/2+z
_cell_length_a                   15.0957(4)
_cell_length_b                   6.4357(2)
_cell_length_c                   14.9699(5)
_cell_angle_alpha                90
_cell_angle_beta                 95.798(3)
_cell_angle_gamma                90
_cell_volume                     1446.91
loop_
_atom_site_label
_atom_site_type_symbol
_atom_site_fract_x
_atom_site_fract_y
_atom_site_fract_z
Ag1 Ag 0.255845(15) 0.09985(3) 0.154876(15)
O1 O 0.42747(19) 0.2700(5) 0.18006(18)
N1 N 0.20220(15) -0.2163(4) 0.09935(16)
C1 C 0.23865(19) -0.3990(4) 0.1251(2)
O3 O 0.40403(19) -0.0282(5) 0.24576(19)
N2 N 0.21309(17) -0.5846(4) 0.09035(17)
C2 C 0.13431(19) -0.2213(5) 0.03402(19)
H1 H 0.1058 -0.0947 0.0153
N3 N 0.30560(17) -0.3973(4) 0.19333(17)
H2 H 0.3233 -0.2789 0.2187
H3 H 0.3312 -0.5144 0.2121
C3 C 0.1461(2) -0.5839(5) 0.0239(2)
H4 H 0.1268 -0.7122 -0.0027
C4 C 0.1047(2) -0.4039(5) -0.0066(2)
H5 H 0.0576 -0.4052 -0.0538
C5 C 0.4518(2) 0.1195(5) 0.2289(2)
Ag1_2 Ag 0.255845(15) 1.09985(3) 0.154876(15)
Ag1_3 Ag 0.255845(15) -0.90015(3) 0.154876(15)
Ag1C Ag 0.244155(15) -0.40015(3) 0.345124(15)
Ag1A Ag 0.744155(15) 0.09985(3) 0.345124(15)
Ag1C_2 Ag 0.244155(15) 0.59985(3) 0.345124(15)
O1A O 0.57253(19) 0.2700(5) 0.31994(18)
N1_2 N 0.20220(15) 0.7837(4) 0.09935(16)
C1_2 C 0.23865(19) 0.6010(4) 0.1251(2)
O3A O 0.59597(19) -0.0282(5) 0.25424(19)
O3_2 O 0.40403(19) 0.9718(5) 0.24576(19)
N2_2 N 0.21309(17) 0.4154(4) 0.09035(17)
N2_3 N 0.21309(17) 1.4154(4) 0.09035(17)
C2_2 C 0.13431(19) 0.7787(5) 0.03402(19)
H1_2 H 0.1058 0.9053 0.0153
N3_2 N 0.30560(17) 0.6027(4) 0.19333(17)
N3C N 0.19440(17) 0.1027(4) 0.30667(17)
N3C_2 N 0.19440(17) 1.1027(4) 0.30667(17)
H2_2 H 0.3233 0.7211 0.2187
H2C H 0.1767 0.2211 0.2813
H2C_2 H 0.1767 1.2211 0.2813
H3_2 H 0.3312 0.4856 0.2121
H3C H 0.1688 -0.0144 0.2879
H3C_2 H 0.1688 0.9856 0.2879
C3_2 C 0.1461(2) 0.4161(5) 0.0239(2)
H4_2 H 0.1268 0.2878 -0.0027
C4_2 C 0.1047(2) 0.5961(5) -0.0066(2)
H5_2 H 0.0576 0.5948 -0.0538
C5A C 0.5482(2) 0.1195(5) 0.2711(2)
O2 O 0.5378(2) 0.6199(6) 0.1355(2)
H6 H 0.511(3) 0.528(9) 0.150(3)
H7 H 0.541(4) 0.696(9) 0.172(4)
loop_
_geom_bond_atom_site_label_1
_geom_bond_atom_site_label_2
_geom_bond_site_symmetry_1
_geom_bond_site_symmetry_2
Ag1 N1 1_555 1_555
O1 C5 1_555 1_555
N1 C1 1_555 1_555
C1 N2 1_555 1_555
O2 H6 1_555 1_555
O3 Ag1 1_555 1_555
N2 C3 1_555 1_555
C2 N1 1_555 1_555
H1 C2 1_555 1_555
N3 C1 1_555 1_555
H2 N3 1_555 1_555
H3 N3 1_555 1_555
C3 H4 1_555 1_555
C4 C2 1_555 1_555
H5 C4 1_555 1_555
C5 O3 1_555 1_555
H7 O2 1_555 1_555
Ag1_2 N1_2 1_555 1_555
Ag1_3 N2 1_555 1_555
Ag1C N3 1_555 1_555
Ag1A O3A 1_555 1_555
Ag1C_2 N3_2 1_555 1_555
O1A C5A 1_555 1_555
N1_2 C1_2 1_555 1_555
C1_2 N2_2 1_555 1_555
O3A C5A 1_555 1_555
O3_2 Ag1_2 1_555 1_555
N2_2 Ag1 1_555 1_555
N2_3 Ag1_2 1_555 1_555
C2_2 N1_2 1_555 1_555
H1_2 C2_2 1_555 1_555
N3_2 C1_2 1_555 1_555
N3C Ag1 1_555 1_555
N3C_2 Ag1_2 1_555 1_555
H2_2 N3_2 1_555 1_555
H2C N3C 1_555 1_555
H2C_2 N3C_2 1_555 1_555
H3_2 N3_2 1_555 1_555
H3C N3C 1_555 1_555
H3C_2 N3C_2 1_555 1_555
C3_2 N2_2 1_555 1_555
H4_2 C3_2 1_555 1_555
C4_2 C2_2 1_555 1_555
H5_2 C4_2 1_555 1_555
C5A C5 1_555 1_555
C3 C4 1_555 1_555
C3_2 C4_2 1_555 1_555

#END
