
#######################################################################
#
#                 Cambridge Crystallographic Data Centre
#                                CCDC 
#
#######################################################################
#
# If this CIF has been generated from an entry in the Cambridge 
# Structural Database, then it will include bibliographic, chemical, 
# crystal, experimental, refinement or atomic coordinate data resulting 
# from the CCDC's data processing and validation procedures.
#
#######################################################################

data_IGUHAU
_symmetry_cell_setting           monoclinic
_symmetry_space_group_name_H-M   'C 2/c'
_symmetry_Int_Tables_number      15
_space_group_name_Hall           '-C 2yn'
loop_
_symmetry_equiv_pos_site_id
_symmetry_equiv_pos_as_xyz
1 x,y,z
2 -x,y,1/2-z
3 1/2+x,1/2+y,z
4 1/2-x,1/2+y,1/2-z
5 -x,-y,-z
6 x,-y,1/2+z
7 1/2-x,1/2-y,-z
8 1/2+x,1/2-y,1/2+z
_cell_length_a                   8.3565(9)
_cell_length_b                   9.8212(9)
_cell_length_c                   20.5297(19)
_cell_angle_alpha                90
_cell_angle_beta                 95.071(5)
_cell_angle_gamma                90
_cell_volume                     1678.3
loop_
_atom_site_label
_atom_site_type_symbol
_atom_site_fract_x
_atom_site_fract_y
_atom_site_fract_z
Ag1 Ag -0.62090(6) 0.12721(6) -0.48912(2)
O1 O -0.6265(8) 0.0211(6) -0.3526(3)
O2 O -0.6108(6) 0.2318(5) -0.3892(2)
N1 N -0.4750(6) 0.2937(5) -0.5377(2)
N2 N -0.2654(6) 0.4604(5) -0.5377(2)
N3 N -0.3623(6) 0.3861(5) -0.4424(2)
H1 H -0.2957 0.4399 -0.4209
H2 H -0.4256 0.3358 -0.4219
C1 C -0.5000 0.2917(13) -0.2500
H3 H -0.4673 0.3491 -0.2843
C2 C -0.6404(9) 0.2039(10) -0.2768(3)
H4 H -0.6526 0.1294 -0.2467
H5 H -0.7377 0.2582 -0.2784
C3 C -0.2760(8) 0.4554(7) -0.6032(3)
H6 H -0.2072 0.5087 -0.6257
C4 C -0.4822(7) 0.2930(7) -0.6033(3)
H7 H -0.5555 0.2353 -0.6262
C5 C -0.6247(7) 0.1456(8) -0.3439(3)
C6 C -0.3867(8) 0.3731(7) -0.6379(3)
H8 H -0.3959 0.3722 -0.6834
C7 C -0.3673(6) 0.3802(5) -0.5065(3)
Ag1A Ag -0.37910(6) 0.12721(6) -0.01088(2)
Ag1B Ag -0.12090(6) 0.62721(6) -0.48912(2)
Ag1C Ag -0.87910(6) 0.62721(6) -0.01088(2)
O1A O -0.3735(8) 0.0211(6) -0.1474(3)
O2A O -0.3892(6) 0.2318(5) -0.1108(2)
N1A N -0.5250(6) 0.2937(5) 0.0377(2)
N2A N -0.7346(6) 0.4604(5) 0.0377(2)
N2B N -0.7654(6) -0.0396(5) -0.5377(2)
N2C N -0.2346(6) -0.0396(5) 0.0377(2)
N3A N -0.6377(6) 0.3861(5) -0.0576(2)
H1A H -0.7043 0.4399 -0.0791
H2A H -0.5744 0.3358 -0.0781
H3A H -0.5327 0.3491 -0.2157
C2A C -0.3596(9) 0.2039(10) -0.2232(3)
H4A H -0.3474 0.1294 -0.2533
H5A H -0.2623 0.2582 -0.2216
C3A C -0.7240(8) 0.4554(7) 0.1032(3)
H6A H -0.7928 0.5087 0.1257
C4A C -0.5178(7) 0.2930(7) 0.1033(3)
H7A H -0.4445 0.2353 0.1262
C5A C -0.3753(7) 0.1456(8) -0.1561(3)
C6A C -0.6133(8) 0.3731(7) 0.1379(3)
H8A H -0.6041 0.3722 0.1834
C7A C -0.6327(6) 0.3802(5) 0.0065(3)
O3 O 0.0000 0.3529(9) -0.2500
H9 H 0.035(14) 0.408(11) -0.221(5)
H9A H -0.035(14) 0.408(11) -0.279(5)
loop_
_geom_bond_atom_site_label_1
_geom_bond_atom_site_label_2
_geom_bond_site_symmetry_1
_geom_bond_site_symmetry_2
Ag1 O2 1_555 1_555
O1 C5 1_555 1_555
O2 C5 1_555 1_555
N1 Ag1 1_555 1_555
N2 C3 1_555 1_555
N3 H1 1_555 1_555
H2 N3 1_555 1_555
C1 H3 1_555 1_555
C2 C1 1_555 1_555
H4 C2 1_555 1_555
H5 C2 1_555 1_555
C3 H6 1_555 1_555
C4 N1 1_555 1_555
H7 C4 1_555 1_555
C5 C2 1_555 1_555
C6 C3 1_555 1_555
H8 C6 1_555 1_555
C7 N1 1_555 1_555
O3 H9 1_555 1_555
Ag1A O2A 1_555 1_555
Ag1B N2 1_555 1_555
Ag1C N2A 1_555 1_555
O1A C5A 1_555 1_555
O2A C5A 1_555 1_555
N1A Ag1A 1_555 1_555
N2A C3A 1_555 1_555
N2B Ag1 1_555 1_555
N2C Ag1A 1_555 1_555
N3A H1A 1_555 1_555
H2A N3A 1_555 1_555
H3A C1 1_555 1_555
C2A C1 1_555 1_555
H4A C2A 1_555 1_555
H5A C2A 1_555 1_555
C3A H6A 1_555 1_555
C4A N1A 1_555 1_555
H7A C4A 1_555 1_555
C5A C2A 1_555 1_555
C6A C3A 1_555 1_555
H8A C6A 1_555 1_555
C7A N1A 1_555 1_555
H9A O3 1_555 1_555
N2 C7 1_555 1_555
N3 C7 1_555 1_555
C4 C6 1_555 1_555
N2A C7A 1_555 1_555
N3A C7A 1_555 1_555
C4A C6A 1_555 1_555

#END
