
#######################################################################
#
#                 Cambridge Crystallographic Data Centre
#                                CCDC 
#
#######################################################################
#
# If this CIF has been generated from an entry in the Cambridge 
# Structural Database, then it will include bibliographic, chemical, 
# crystal, experimental, refinement or atomic coordinate data resulting 
# from the CCDC's data processing and validation procedures.
#
#######################################################################

data_IGUHEY
_symmetry_cell_setting           orthorhombic
_symmetry_space_group_name_H-M   'P n n a'
_symmetry_Int_Tables_number      52
_space_group_name_Hall           '-P 2a 2bc'
loop_
_symmetry_equiv_pos_site_id
_symmetry_equiv_pos_as_xyz
1 x,y,z
2 1/2-x,-y,z
3 1/2-x,1/2+y,1/2-z
4 x,1/2-y,1/2-z
5 -x,-y,-z
6 1/2+x,y,-z
7 1/2+x,1/2-y,1/2+z
8 -x,1/2+y,1/2+z
_cell_length_a                   12.4033(5)
_cell_length_b                   17.4377(8)
_cell_length_c                   10.0645(4)
_cell_angle_alpha                90
_cell_angle_beta                 90
_cell_angle_gamma                90
_cell_volume                     2176.8
loop_
_atom_site_label
_atom_site_type_symbol
_atom_site_fract_x
_atom_site_fract_y
_atom_site_fract_z
Ag1 Ag -0.2500 0.5000 1.14369(5)
Ag2 Ag 0.2500 0.5000 1.24626(6)
C1 C -0.2129(4) 0.6982(3) 0.8571(5)
C2 C -0.0024(4) 0.4988(3) 1.2482(5)
N1 N 0.0864(3) 0.4692(2) 1.3050(4)
C3 C -0.0289(4) 0.4002(3) 1.4505(5)
H1 H -0.0382 0.3675 1.5224
C4 C -0.1127(4) 0.7248(3) 0.8057(5)
N2 N -0.1041(3) 0.4799(2) 1.2842(4)
N3 N 0.0096(3) 0.5508(3) 1.1535(4)
H2 H 0.0732 0.5649 1.1297
H3 H -0.0461 0.5705 1.1159
C5 C -0.0118(4) 0.6994(3) 0.8569(5)
H4 H -0.0105 0.6652 0.9277
C6 C 0.0831(4) 0.7245(3) 0.8036(5)
H5 H 0.1482 0.7076 0.8389
C7 C -0.1145(4) 0.4313(3) 1.3842(5)
H6 H -0.1837 0.4174 1.4107
C8 C 0.0706(4) 0.4199(3) 1.4055(5)
H7 H 0.1305 0.3982 1.4463
O1 O -0.2795(3) 0.58550(19) 0.9596(3)
O2 O -0.1634(3) 0.65725(19) 1.0740(3)
C9 C -0.2184(3) 0.6430(3) 0.9719(5)
C10 C -0.3078(4) 0.7232(3) 0.8022(5)
H8 H -0.3729 0.7044 0.8343
Ag1B Ag -0.2500 1.0000 0.35631(5)
Ag2D Ag -0.2500 0.5000 0.75374(6)
Ag2F Ag -0.2500 1.0000 0.74626(6)
Ag2_2 Ag -0.7500 0.5000 1.24626(6)
C1C C -0.2129(4) 0.8018(3) 0.6429(5)
C2A C -0.4976(4) 0.5012(3) 1.2482(5)
N1A N -0.5864(3) 0.5308(2) 1.3050(4)
N1A_2 N 0.4136(3) 0.5308(2) 1.3050(4)
C3A C -0.4711(4) 0.5998(3) 1.4505(5)
H1A H -0.4618 0.6325 1.5224
C4C C -0.1127(4) 0.7752(3) 0.6943(5)
N2A N -0.3959(3) 0.5201(2) 1.2842(4)
N3A N -0.5096(3) 0.4492(3) 1.1535(4)
H2A H -0.5732 0.4351 1.1297
H3A H -0.4539 0.4295 1.1159
C5C C -0.0118(4) 0.8006(3) 0.6431(5)
H4C H -0.0105 0.8348 0.5723
C6C C 0.0831(4) 0.7755(3) 0.6964(5)
H5C H 0.1482 0.7924 0.6611
C7A C -0.3855(4) 0.5687(3) 1.3842(5)
H6A H -0.3163 0.5826 1.4107
C8A C -0.5706(4) 0.5801(3) 1.4055(5)
H7A H -0.6305 0.6018 1.4463
O1C O -0.2795(3) 0.91450(19) 0.5404(3)
O1A O -0.2205(3) 0.41450(19) 0.9596(3)
O1D O 0.2795(3) 0.41450(19) 1.0404(3)
O1E O 0.2205(3) 0.58550(19) 1.0404(3)
O2C O -0.1634(3) 0.84275(19) 0.4260(3)
C9C C -0.2184(3) 0.8570(3) 0.5281(5)
C10C C -0.3078(4) 0.7768(3) 0.6978(5)
H8C H -0.3729 0.7956 0.6657
O3 O -0.1542(4) 0.6779(2) 1.3637(4)
H9 H -0.1568 0.6724 1.2799
H10 H -0.1568 0.7256 1.3812
loop_
_geom_bond_atom_site_label_1
_geom_bond_atom_site_label_2
_geom_bond_site_symmetry_1
_geom_bond_site_symmetry_2
Ag1 N2 1_555 1_555
Ag2 N1 1_555 1_555
C1 C4 1_555 1_555
C2 N1 1_555 1_555
N1 C8 1_555 1_555
C3 H1 1_555 1_555
C4 C5 1_555 1_555
N2 C2 1_555 1_555
N3 C2 1_555 1_555
H2 N3 1_555 1_555
H3 N3 1_555 1_555
C5 H4 1_555 1_555
C6 C5 1_555 1_555
H5 C6 1_555 1_555
C7 C3 1_555 1_555
H6 C7 1_555 1_555
C8 C3 1_555 1_555
H7 C8 1_555 1_555
O1 Ag1 1_555 1_555
O2 C9 1_555 1_555
C9 C1 1_555 1_555
C10 C1 1_555 1_555
H8 C10 1_555 1_555
O3 H9 1_555 1_555
H10 O3 1_555 1_555
Ag1B O1C 1_555 1_555
Ag2D O1 1_555 1_555
Ag2F O1C 1_555 1_555
Ag2_2 N1A 1_555 1_555
C1C C4C 1_555 1_555
C2A N1A 1_555 1_555
N1A C8A 1_555 1_555
N1A_2 Ag2 1_555 1_555
C3A H1A 1_555 1_555
C4C C4 1_555 1_555
N2A Ag1 1_555 1_555
N3A C2A 1_555 1_555
H2A N3A 1_555 1_555
H3A N3A 1_555 1_555
C5C C4C 1_555 1_555
H4C C5C 1_555 1_555
C6C C6 1_555 1_555
H5C C6C 1_555 1_555
C7A C3A 1_555 1_555
H6A C7A 1_555 1_555
C8A C3A 1_555 1_555
H7A C8A 1_555 1_555
O1C C9C 1_555 1_555
O1A Ag1 1_555 1_555
O1D Ag2 1_555 1_555
O1E Ag2 1_555 1_555
O2C C9C 1_555 1_555
C9C C1C 1_555 1_555
C10C C10 1_555 1_555
H8C C10C 1_555 1_555
N2 C7 1_555 1_555
O1 C9 1_555 1_555
Ag2D O1A 1_555 1_555
C1C C10C 1_555 1_555
C2A N2A 1_555 1_555
N2A C7A 1_555 1_555
C5C C6C 1_555 1_555

#END
