
#######################################################################
#
#                 Cambridge Crystallographic Data Centre
#                                CCDC 
#
#######################################################################
#
# If this CIF has been generated from an entry in the Cambridge 
# Structural Database, then it will include bibliographic, chemical, 
# crystal, experimental, refinement or atomic coordinate data resulting 
# from the CCDC's data processing and validation procedures.
#
#######################################################################

data_IGUJIE
_symmetry_cell_setting           orthorhombic
_symmetry_space_group_name_H-M   'P n a 21'
_symmetry_Int_Tables_number      33
_space_group_name_Hall           'P 2c -2n'
loop_
_symmetry_equiv_pos_site_id
_symmetry_equiv_pos_as_xyz
1 x,y,z
2 -x,-y,1/2+z
3 1/2-x,1/2+y,1/2+z
4 1/2+x,1/2-y,z
_cell_length_a                   15.0602(3)
_cell_length_b                   14.0418(4)
_cell_length_c                   17.3003(3)
_cell_angle_alpha                90
_cell_angle_beta                 90
_cell_angle_gamma                90
_cell_volume                     3658.53
loop_
_atom_site_label
_atom_site_type_symbol
_atom_site_fract_x
_atom_site_fract_y
_atom_site_fract_z
C1 C 0.0900(5) 0.7890(4) 0.8833(3)
H1 H 0.1459 0.8164 0.8784
C2 C 0.0194(7) 0.8441(5) 0.9045(4)
H2 H 0.0273 0.9087 0.9144
C3 C -0.0613(6) 0.8046(6) 0.9109(4)
H3 H -0.1094 0.8430 0.9237
C4 C -0.0749(5) 0.7069(6) 0.8990(3)
H4 H -0.1302 0.6783 0.9050
C5 C 0.0001(3) 0.6559(4) 0.8774(2)
C6 C -0.0044(3) 0.5512(4) 0.8617(3)
H5 H -0.0429 0.5207 0.8992
H6 H -0.0287 0.5402 0.8106
C7 C 0.2988(3) 0.4884(3) 0.8533(2)
C8 C 0.3673(3) 0.4129(3) 0.8444(2)
C9 C 0.4219(4) 0.3775(4) 0.8982(3)
H7 H 0.4233 0.3994 0.9489
C10 C 0.4777(4) 0.3031(4) 0.8704(3)
H8 H 0.5185 0.2705 0.9009
C11 C 0.4644(3) 0.2856(3) 0.7949(2)
C12 C 0.5079(3) 0.2125(3) 0.7469(3)
C13 C 0.6485(4) 1.2796(3) 0.5891(3)
H9 H 0.5944 1.3103 0.5965
C14 C 0.7230(5) 1.3327(4) 0.5659(3)
H10 H 0.7186 1.3981 0.5582
C15 C 0.8021(5) 1.2867(5) 0.5548(3)
H11 H 0.8523 1.3201 0.5392
C16 C 0.8059(4) 1.1926(5) 0.5670(3)
H12 H 0.8597 1.1612 0.5605
C17 C 0.7326(3) 1.1415(4) 0.5886(2)
C18 C 0.7328(3) 1.0373(3) 0.6044(3)
H13 H 0.7689 1.0048 0.5661
H14 H 0.7580 1.0251 0.6550
C19 C 0.4206(3) 0.9881(3) 0.6007(2)
C20 C 0.3495(3) 0.9163(3) 0.6131(2)
C21 C 0.2874(3) 0.8860(3) 0.5626(2)
H15 H 0.2823 0.9091 0.5125
C22 C 0.2320(3) 0.8170(3) 0.5931(3)
H16 H 0.1856 0.7894 0.5655
C23 C 0.2519(3) 0.7933(3) 0.6671(2)
C24 C 0.2096(3) 0.7203(3) 0.7168(2)
N1 N 0.0795(3) 0.6953(3) 0.86952(19)
N2 N 0.0852(2) 0.5108(2) 0.86676(18)
H17 H 0.0888 0.4578 0.8377
H18 H 0.0976 0.4952 0.9160
N3 N 0.6543(2) 1.1863(2) 0.60066(17)
N4 N 0.6419(2) 1.0015(2) 0.60133(19)
H19 H 0.6368 0.9501 0.6321
H20 H 0.6288 0.9836 0.5527
O1 O 0.25649(19) 0.5115(2) 0.79248(17)
O2 O 0.28705(19) 0.5239(2) 0.91750(17)
O3 O 0.48637(18) 0.20828(19) 0.67660(16)
O4 O 0.5663(2) 0.1609(2) 0.77640(18)
O5 O 0.46526(18) 1.00965(19) 0.66112(14)
O6 O 0.4351(2) 1.0212(2) 0.53621(15)
O7 O 0.2412(2) 0.7113(2) 0.78573(16)
O8 O 0.1477(2) 0.67219(19) 0.69250(18)
S1 S 0.38406(7) 0.35791(7) 0.75715(5)
S2 S 0.33964(7) 0.85978(7) 0.69994(5)
Cu1 Cu 0.17116(3) 0.60697(3) 0.82921(2)
Cu2 Cu 0.55714(3) 1.10146(3) 0.63565(2)
O3_2 O 0.48637(18) 1.20828(19) 0.67660(16)
O4_2 O 0.5663(2) 1.1609(2) 0.77640(18)
Cu2_2 Cu 0.55714(3) 0.10146(3) 0.63565(2)
C25 C 0.4829(7) 0.6258(6) 0.7111(6)
H21 H 0.4567 0.6882 0.7112
H22 H 0.5432 0.6299 0.7288
H23 H 0.4497 0.5848 0.7449
C26 C 0.4339(8) 0.6371(12) 0.5716(8)
H24 H 0.4130 0.6979 0.5892
H25 H 0.3843 0.5989 0.5556
H26 H 0.4736 0.6459 0.5288
C27 C 0.5100(9) 0.5120(7) 0.6202(8)
H27 H 0.5418 0.4786 0.6575
N5 N 0.4813(4) 0.5884(4) 0.6353(4)
O9 O 0.4986(7) 0.4758(5) 0.5555(5)
C28 C 0.7693(7) 0.8697(8) 0.2656(6)
H28 H 0.7656 0.8018 0.2602
H29 H 0.8269 0.8909 0.2492
H30 H 0.7245 0.8992 0.2343
C29 C 0.7400(12) 0.8323(13) 0.3957(8)
H31 H 0.7399 0.7704 0.3721
H32 H 0.6831 0.8443 0.4187
H33 H 0.7851 0.8346 0.4349
C30 C 0.7641(16) 0.9794(10) 0.3684(6)
H34 H 0.7989 1.0288 0.3494
N6 N 0.7559(4) 0.8952(5) 0.3447(4)
O10 O 0.7014(8) 0.9776(10) 0.4368(4)
loop_
_geom_bond_atom_site_label_1
_geom_bond_atom_site_label_2
_geom_bond_site_symmetry_1
_geom_bond_site_symmetry_2
C1 H1 1_555 1_555
C2 C1 1_555 1_555
H2 C2 1_555 1_555
C3 C2 1_555 1_555
H3 C3 1_555 1_555
C4 C3 1_555 1_555
H4 C4 1_555 1_555
C5 C4 1_555 1_555
C6 C5 1_555 1_555
H5 C6 1_555 1_555
H6 C6 1_555 1_555
C7 C8 1_555 1_555
C8 C9 1_555 1_555
C9 H7 1_555 1_555
C10 C9 1_555 1_555
H8 C10 1_555 1_555
C11 C10 1_555 1_555
C12 C11 1_555 1_555
C13 H9 1_555 1_555
C14 C13 1_555 1_555
H10 C14 1_555 1_555
C15 C14 1_555 1_555
H11 C15 1_555 1_555
C16 C15 1_555 1_555
H12 C16 1_555 1_555
C17 C16 1_555 1_555
C18 C17 1_555 1_555
H13 C18 1_555 1_555
H14 C18 1_555 1_555
C19 C20 1_555 1_555
C20 C21 1_555 1_555
C21 H15 1_555 1_555
C22 C21 1_555 1_555
H16 C22 1_555 1_555
C23 C22 1_555 1_555
C24 C23 1_555 1_555
N1 C1 1_555 1_555
N2 C6 1_555 1_555
H17 N2 1_555 1_555
H18 N2 1_555 1_555
N3 C13 1_555 1_555
N4 C18 1_555 1_555
H19 N4 1_555 1_555
H20 N4 1_555 1_555
O1 C7 1_555 1_555
O2 C7 1_555 1_555
O3 C12 1_555 1_555
O4 C12 1_555 1_555
O5 C19 1_555 1_555
O6 C19 1_555 1_555
O7 C24 1_555 1_555
O8 C24 1_555 1_555
S1 C8 1_555 1_555
S2 C20 1_555 1_555
Cu1 N1 1_555 1_555
Cu2 N3 1_555 1_555
C25 H21 1_555 1_555
H22 C25 1_555 1_555
H23 C25 1_555 1_555
C26 H24 1_555 1_555
H25 C26 1_555 1_555
H26 C26 1_555 1_555
C27 H27 1_555 1_555
N5 C25 1_555 1_555
O9 C27 1_555 1_555
C28 H28 1_555 1_555
H29 C28 1_555 1_555
H30 C28 1_555 1_555
C29 H31 1_555 1_555
H32 C29 1_555 1_555
H33 C29 1_555 1_555
C30 H34 1_555 1_555
N6 C28 1_555 1_555
O10 C30 1_555 1_555
O3_2 Cu2 1_555 1_555
O4_2 Cu2 1_555 1_555
Cu2_2 O3 1_555 1_555
C5 N1 1_555 1_555
C11 S1 1_555 1_555
C17 N3 1_555 1_555
C23 S2 1_555 1_555
N2 Cu1 1_555 1_555
N4 Cu2 1_555 1_555
O1 Cu1 1_555 1_555
O2 Cu1 1_555 1_555
O4 Cu2_2 1_555 1_555
O5 Cu2 1_555 1_555
O7 Cu1 1_555 1_555
O8 Cu1 1_555 1_555
C26 N5 1_555 1_555
C27 N5 1_555 1_555
C29 N6 1_555 1_555
C30 N6 1_555 1_555

#END
