
#######################################################################
#
#                 Cambridge Crystallographic Data Centre
#                                CCDC 
#
#######################################################################
#
# If this CIF has been generated from an entry in the Cambridge 
# Structural Database, then it will include bibliographic, chemical, 
# crystal, experimental, refinement or atomic coordinate data resulting 
# from the CCDC's data processing and validation procedures.
#
#######################################################################

data_IGUKAX
_symmetry_cell_setting           monoclinic
_symmetry_space_group_name_H-M   'P 21/c'
_symmetry_Int_Tables_number      14
_space_group_name_Hall           '-P 2ybc'
loop_
_symmetry_equiv_pos_site_id
_symmetry_equiv_pos_as_xyz
1 x,y,z
2 -x,1/2+y,1/2-z
3 -x,-y,-z
4 x,1/2-y,1/2+z
_cell_length_a                   7.3882(15)
_cell_length_b                   13.156(3)
_cell_length_c                   19.195(4)
_cell_angle_alpha                90
_cell_angle_beta                 99.10(3)
_cell_angle_gamma                90
_cell_volume                     1842.26
loop_
_atom_site_label
_atom_site_type_symbol
_atom_site_fract_x
_atom_site_fract_y
_atom_site_fract_z
Ag1 Ag 0.12940(5) 0.40274(3) 0.500936(16)
Si1 Si -0.01570(17) 0.42513(9) 0.19044(6)
N1 N 0.1575(4) 0.4737(2) 0.40319(16)
C1 C 0.2567(6) 0.5595(3) 0.4041(2)
H1 H 0.3143 0.5848 0.4472
C2 C 0.0792(5) 0.4382(3) 0.3404(2)
H2 H 0.0096 0.3792 0.3395
C3 C 0.1948(6) 0.5730(3) 0.2796(2)
H3 H 0.2073 0.6076 0.2384
C4 C 0.2758(6) 0.6109(3) 0.3438(3)
H4 H 0.3429 0.6709 0.3462
C5 C 0.0859(5) 0.2522(3) 0.1158(2)
H5 H 0.0102 0.2824 0.0782
C6 C 0.2294(6) 0.2568(3) 0.2338(2)
H6 H 0.2558 0.2886 0.2775
C7 C -0.2573(7) 0.3941(4) 0.1956(3)
H7 H -0.2772 0.3542 0.2336
C8 C 0.0040(9) 0.5127(4) 0.1155(3)
H8 H -0.0678 0.4869 0.0732
H9 H 0.1301 0.5175 0.1092
H10 H -0.0400 0.5789 0.1257
N2 N 0.1623(5) 0.1630(3) 0.10420(16)
C9 C 0.0950(5) 0.4837(3) 0.27602(19)
C10 C 0.2715(6) 0.1188(3) 0.1586(2)
H11 H 0.3229 0.0557 0.1519
C11 C 0.1115(5) 0.3032(3) 0.18027(19)
C12 C 0.3090(6) 0.1642(4) 0.2237(2)
H12 H 0.3867 0.1331 0.2603
C13 C -0.3985(12) 0.4207(6) 0.1536(5)
H13 H -0.3871 0.4607 0.1146
H14 H -0.5139 0.4003 0.1617
Ag1C Ag 0.12940(5) 0.09726(3) 0.000936(16)
N2C N 0.1623(5) 0.3370(3) 0.60420(16)
S1 S -0.30939(17) 0.29108(9) 0.41037(6)
F1 F -0.4849(6) 0.2452(3) 0.51421(19)
O1 O -0.1441(5) 0.2744(4) 0.4571(2)
F2 F -0.6364(5) 0.2207(4) 0.4136(2)
F3 F -0.4249(7) 0.1188(3) 0.4532(3)
O2 O -0.3147(6) 0.2476(3) 0.34272(19)
O3 O -0.3765(8) 0.3900(3) 0.4140(3)
C14 C -0.4690(8) 0.2149(4) 0.4501(3)
loop_
_geom_bond_atom_site_label_1
_geom_bond_atom_site_label_2
_geom_bond_site_symmetry_1
_geom_bond_site_symmetry_2
Ag1 N1 1_555 1_555
Si1 C7 1_555 1_555
N1 C1 1_555 1_555
C1 H1 1_555 1_555
C2 N1 1_555 1_555
H2 C2 1_555 1_555
C3 H3 1_555 1_555
C4 C1 1_555 1_555
H4 C4 1_555 1_555
C5 H5 1_555 1_555
C6 H6 1_555 1_555
C7 H7 1_555 1_555
C8 Si1 1_555 1_555
H8 C8 1_555 1_555
H9 C8 1_555 1_555
H10 C8 1_555 1_555
N2 C5 1_555 1_555
C9 Si1 1_555 1_555
C10 N2 1_555 1_555
H11 C10 1_555 1_555
C11 Si1 1_555 1_555
C12 C6 1_555 1_555
H12 C12 1_555 1_555
C13 C7 1_555 1_555
H13 C13 1_555 1_555
H14 C13 1_555 1_555
S1 O1 1_555 1_555
F1 C14 1_555 1_555
F2 C14 1_555 1_555
F3 C14 1_555 1_555
O2 S1 1_555 1_555
O3 S1 1_555 1_555
C14 S1 1_555 1_555
Ag1C N2 1_555 1_555
N2C Ag1 1_555 1_555
C2 C9 1_555 1_555
C3 C4 1_555 1_555
C3 C9 1_555 1_555
C5 C11 1_555 1_555
C6 C11 1_555 1_555
C10 C12 1_555 1_555

#END
