
#######################################################################
#
#                 Cambridge Crystallographic Data Centre
#                                CCDC 
#
#######################################################################
#
# If this CIF has been generated from an entry in the Cambridge 
# Structural Database, then it will include bibliographic, chemical, 
# crystal, experimental, refinement or atomic coordinate data resulting 
# from the CCDC's data processing and validation procedures.
#
#######################################################################

data_IGUKIG
_symmetry_cell_setting           monoclinic
_symmetry_space_group_name_H-M   'P 2/n'
_symmetry_Int_Tables_number      13
_space_group_name_Hall           '-P 2yac'
loop_
_symmetry_equiv_pos_site_id
_symmetry_equiv_pos_as_xyz
1 x,y,z
2 1/2-x,y,1/2-z
3 -x,-y,-z
4 1/2+x,-y,1/2+z
_cell_length_a                   10.0009(16)
_cell_length_b                   15.472(3)
_cell_length_c                   18.563(3)
_cell_angle_alpha                90
_cell_angle_beta                 91.811(2)
_cell_angle_gamma                90
_cell_volume                     2870.89
loop_
_atom_site_label
_atom_site_type_symbol
_atom_site_fract_x
_atom_site_fract_y
_atom_site_fract_z
Co1 Co 0.09124(9) 1.20161(6) 0.67983(5)
C1 C 0.3741(7) 1.1995(4) 0.6514(5)
C2 C 0.4889(7) 1.1802(4) 0.6041(4)
C3 C 0.6182(7) 1.1920(4) 0.6297(4)
H1 H 0.6347 1.2114 0.6766
C4 C 0.7240(7) 1.1747(5) 0.5854(4)
C5 C 0.7004(8) 1.1422(6) 0.5172(5)
H2 H 0.7717 1.1303 0.4877
C6 C 0.5716(8) 1.1272(6) 0.4926(5)
C7 C 0.4661(8) 1.1466(6) 0.5360(4)
H3 H 0.3788 1.1368 0.5192
C8 C 0.8673(8) 1.1882(5) 0.6157(5)
C9 C 0.1651(8) 1.0088(5) 0.6629(4)
H4 H 0.2296 1.0316 0.6333
C10 C 0.1581(9) 0.9213(6) 0.6704(5)
H5 H 0.2193 0.8864 0.6475
C11 C 0.0618(9) 0.8839(5) 0.7117(5)
C12 C -0.0237(9) 0.9422(6) 0.7446(5)
H6 H -0.0908 0.9213 0.7735
C13 C -0.0107(8) 1.0278(5) 0.7355(5)
H7 H -0.0704 1.0643 0.7578
C14 C 0.0520(12) 0.7881(6) 0.7183(6)
C15 C -0.011(2) 0.7523(8) 0.7844(9)
H8 H -0.1069 0.7579 0.7796
H9 H 0.0204 0.7837 0.8261
H10 H 0.0118 0.6923 0.7898
C16 C 0.1284(13) 0.6116(7) 0.6315(7)
C17 C 0.180(3) 0.6476(10) 0.5650(13)
H11 H 0.1449 0.7049 0.5578
H12 H 0.1521 0.6117 0.5250
H13 H 0.2756 0.6498 0.5684
C18 C 0.1204(12) 0.5167(6) 0.6399(6)
C19 C 0.153(3) 0.4590(8) 0.5922(8)
H14 H 0.1808 0.4784 0.5477
C20 C 0.150(2) 0.3702(8) 0.6040(6)
H15 H 0.1826 0.3333 0.5693
C21 C 0.069(2) 0.3924(9) 0.7066(8)
H16 H 0.0355 0.3712 0.7492
C22 C 0.079(3) 0.4816(9) 0.6996(9)
H17 H 0.0553 0.5169 0.7377
N1 N 0.0842(6) 1.0630(4) 0.6956(4)
N2 N 0.0989(13) 0.7469(5) 0.6689(6)
N3 N 0.0911(13) 0.6555(6) 0.6796(6)
N4 N 0.1028(6) 0.3383(5) 0.6607(4)
O1 O 0.2585(5) 1.1866(4) 0.6239(3)
O2 O 0.3961(5) 1.2248(4) 0.7136(3)
O3 O 0.8828(5) 1.2093(3) 0.6792(3)
O4 O 0.9634(5) 1.1748(4) 0.5757(3)
O5 O 0.5535(6) 1.0924(6) 0.4253(3)
H18 H 0.4749 1.0787 0.4189
Co1_2 Co 0.09124(9) 0.20161(6) 0.67983(5)
Co1_3 Co 1.09124(9) 1.20161(6) 0.67983(5)
Co1A Co 0.40876(9) 1.20161(6) 0.82017(5)
N4_2 N 0.1028(6) 1.3383(5) 0.6607(4)
O2A O 0.1039(5) 1.2248(4) 0.7864(3)
O3_2 O -0.1172(5) 1.2093(3) 0.6792(3)
O4_2 O -0.0366(5) 1.1748(4) 0.5757(3)
O6 O 0.2899(7) 0.0564(6) 0.3933(4)
H19 H 0.2430 0.0558 0.4281
H20 H 0.2727 0.1034 0.3910
O7 O 0.1057(16) 0.1647(16) 0.4560(7)
H21 H 0.1509 0.1790 0.4550
H22 H 0.0792 0.1755 0.4834
O8 O 0.363(4) 0.423(3) 0.4300(17)
H23 H 0.3418 0.4027 0.4285
H24 H 0.4409 0.4481 0.4039
O9 O 0.370(4) 0.498(2) 0.351(3)
H25 H 0.3254 0.5446 0.3535
H26 H 0.4408 0.4793 0.3725
loop_
_geom_bond_atom_site_label_1
_geom_bond_atom_site_label_2
_geom_bond_site_symmetry_1
_geom_bond_site_symmetry_2
Co1 N1 1_555 1_555
C1 C2 1_555 1_555
C2 C3 1_555 1_555
C3 H1 1_555 1_555
C4 C3 1_555 1_555
C5 C4 1_555 1_555
H2 C5 1_555 1_555
C6 C5 1_555 1_555
C7 C2 1_555 1_555
H3 C7 1_555 1_555
C8 C4 1_555 1_555
C9 H4 1_555 1_555
C10 C9 1_555 1_555
H5 C10 1_555 1_555
C11 C10 1_555 1_555
C12 C11 1_555 1_555
H6 C12 1_555 1_555
C13 C12 1_555 1_555
H7 C13 1_555 1_555
C14 C11 1_555 1_555
C15 C14 1_555 1_555
H8 C15 1_555 1_555
H9 C15 1_555 1_555
H10 C15 1_555 1_555
C16 C17 1_555 1_555
C17 H11 1_555 1_555
H12 C17 1_555 1_555
H13 C17 1_555 1_555
C18 C16 1_555 1_555
C19 C18 1_555 1_555
H14 C19 1_555 1_555
C20 C19 1_555 1_555
H15 C20 1_555 1_555
C21 H16 1_555 1_555
C22 C18 1_555 1_555
H17 C22 1_555 1_555
N1 C9 1_555 1_555
N2 C14 1_555 1_555
N3 C16 1_555 1_555
N4 C20 1_555 1_555
O1 Co1 1_555 1_555
O2 C1 1_555 1_555
O3 C8 1_555 1_555
O4 C8 1_555 1_555
O5 C6 1_555 1_555
H18 O5 1_555 1_555
O6 H19 1_555 1_555
H20 O6 1_555 1_555
O7 H21 1_555 1_555
H22 O7 1_555 1_555
O8 H23 1_555 1_555
H24 O8 1_555 1_555
O9 H25 1_555 1_555
H26 O9 1_555 1_555
Co1_2 N4 1_555 1_555
Co1_3 O3 1_555 1_555
Co1A O2 1_555 1_555
N4_2 Co1 1_555 1_555
O2A Co1 1_555 1_555
O3_2 Co1 1_555 1_555
O4_2 Co1 1_555 1_555
C1 O1 1_555 1_555
C6 C7 1_555 1_555
C13 N1 1_555 1_555
C21 C22 1_555 1_555
C21 N4 1_555 1_555
N2 N3 1_555 1_555
O4 Co1_3 1_555 1_555

#END
