
#######################################################################
#
#                 Cambridge Crystallographic Data Centre
#                                CCDC 
#
#######################################################################
#
# If this CIF has been generated from an entry in the Cambridge 
# Structural Database, then it will include bibliographic, chemical, 
# crystal, experimental, refinement or atomic coordinate data resulting 
# from the CCDC's data processing and validation procedures.
#
#######################################################################

data_IGUKEC
_symmetry_cell_setting           monoclinic
_symmetry_space_group_name_H-M   'P 21/n'
_symmetry_Int_Tables_number      14
_space_group_name_Hall           '-P 2yn'
loop_
_symmetry_equiv_pos_site_id
_symmetry_equiv_pos_as_xyz
1 x,y,z
2 1/2-x,1/2+y,1/2-z
3 -x,-y,-z
4 1/2+x,1/2-y,1/2+z
_cell_length_a                   10.3400(5)
_cell_length_b                   9.0163(3)
_cell_length_c                   20.0629(7)
_cell_angle_alpha                90
_cell_angle_beta                 101.415(4)
_cell_angle_gamma                90
_cell_volume                     1833.44
loop_
_atom_site_label
_atom_site_type_symbol
_atom_site_fract_x
_atom_site_fract_y
_atom_site_fract_z
Ni1 Ni 0.81180(3) 0.15004(3) 0.813623(13)
O1 O 0.78888(15) 0.36089(15) 0.78159(7)
O2 O 0.94296(15) 0.22090(16) 0.89539(7)
C1 C 1.1089(2) 0.3684(2) 0.96108(10)
N1 N 0.9698(2) 0.1196(2) 0.76197(10)
C2 C 1.0007(2) 0.3519(2) 0.90495(10)
N2 N 0.6600(2) 0.1755(2) 0.86840(9)
O3 O 1.09415(19) 0.11451(19) 0.99241(9)
C3 C 0.9615(2) 0.4781(2) 0.86340(10)
C4 C 0.8515(2) 0.4787(2) 0.80234(10)
C5 C 1.1552(2) 0.2419(3) 1.00697(11)
C6 C 1.1693(2) 0.5050(2) 0.97570(11)
H1 H 1.2385(2) 0.5143(2) 1.01288(11)
C7 C 0.6771(3) 0.1340(3) 0.93318(12)
H2 H 0.7565(3) 0.0889(3) 0.95268(12)
C8 C 1.0259(2) 0.6119(2) 0.88089(10)
H3 H 0.9989(2) 0.6949(2) 0.85422(10)
C9 C 0.5851(3) 0.1537(4) 0.97282(16)
H4 H 0.6017(3) 0.1222(4) 1.01784(16)
C10 C 1.1283(2) 0.6270(2) 0.93604(11)
H5 H 1.1690(2) 0.7184(2) 0.94628(11)
C11 C 0.9630(3) 0.1640(3) 0.69860(14)
H6 H 0.8834(3) 0.2018(3) 0.67488(14)
C12 C 1.0831(3) 0.0625(3) 0.79418(15)
H7 H 1.0886(3) 0.0287(3) 0.83845(15)
C13 C 0.5455(3) 0.2397(3) 0.84183(16)
H8 H 0.5307(3) 0.2701(3) 0.79666(16)
O4 O 1.24521(16) 0.25110(18) 1.05655(8)
C14 C 0.4694(4) 0.2201(4) 0.9452(2)
H9 H 0.4056(4) 0.2362(4) 0.9712(2)
C15 C 1.1927(4) 0.0505(5) 0.7657(2)
H10 H 1.2706(4) 0.0097(5) 0.7899(2)
C16 C 0.4477(3) 0.2629(4) 0.8788(2)
H11 H 0.3683(3) 0.3072(4) 0.8587(2)
C17 C 1.0674(5) 0.1570(5) 0.6663(2)
H12 H 1.0591(5) 0.1901(5) 0.6217(2)
C18 C 1.1839(5) 0.1005(6) 0.7005(3)
H13 H 1.2567(5) 0.0960(6) 0.6799(3)
O5 O 0.84247(16) -0.06998(16) 0.84360(8)
O6 O 0.82536(16) 0.60060(16) 0.77208(7)
H14 H 0.80669(16) -0.11703(16) 0.80755(7)
H15 H 0.81491(16) -0.10700(16) 0.87686(7)
H16 H 1.030(3) 0.133(3) 0.9589(15)
Ni1A Ni 0.68820(3) 0.65004(3) 0.686377(13)
O6A O 0.67464(16) 0.10060(16) 0.72792(7)
loop_
_geom_bond_atom_site_label_1
_geom_bond_atom_site_label_2
_geom_bond_site_symmetry_1
_geom_bond_site_symmetry_2
Ni1 O1 1_555 1_555
O1 C4 1_555 1_555
O2 Ni1 1_555 1_555
C1 C2 1_555 1_555
N1 Ni1 1_555 1_555
C2 O2 1_555 1_555
N2 Ni1 1_555 1_555
O3 C5 1_555 1_555
C3 C2 1_555 1_555
C4 C3 1_555 1_555
C5 C1 1_555 1_555
C6 C1 1_555 1_555
H1 C6 1_555 1_555
C7 N2 1_555 1_555
H2 C7 1_555 1_555
C8 C3 1_555 1_555
H3 C8 1_555 1_555
C9 C7 1_555 1_555
H4 C9 1_555 1_555
C10 C6 1_555 1_555
H5 C10 1_555 1_555
C11 N1 1_555 1_555
H6 C11 1_555 1_555
C12 N1 1_555 1_555
H7 C12 1_555 1_555
C13 N2 1_555 1_555
H8 C13 1_555 1_555
O4 C5 1_555 1_555
C14 C9 1_555 1_555
H9 C14 1_555 1_555
C15 C12 1_555 1_555
H10 C15 1_555 1_555
C16 C13 1_555 1_555
H11 C16 1_555 1_555
C17 C11 1_555 1_555
H12 C17 1_555 1_555
C18 C15 1_555 1_555
H13 C18 1_555 1_555
O5 Ni1 1_555 1_555
O6 C4 1_555 1_555
H14 O5 1_555 1_555
H15 O5 1_555 1_555
H16 O3 1_555 1_555
Ni1A O6 1_555 1_555
O6A Ni1 1_555 1_555
C8 C10 1_555 1_555
C14 C16 1_555 1_555
C17 C18 1_555 1_555

#END
