
#######################################################################
#
#                 Cambridge Crystallographic Data Centre
#                                CCDC 
#
#######################################################################
#
# If this CIF has been generated from an entry in the Cambridge 
# Structural Database, then it will include bibliographic, chemical, 
# crystal, experimental, refinement or atomic coordinate data resulting 
# from the CCDC's data processing and validation procedures.
#
#######################################################################

data_IGUQUX
_symmetry_cell_setting           monoclinic
_symmetry_space_group_name_H-M   'P 21/c'
_symmetry_Int_Tables_number      14
_space_group_name_Hall           '-P 2ybc'
loop_
_symmetry_equiv_pos_site_id
_symmetry_equiv_pos_as_xyz
1 x,y,z
2 -x,1/2+y,1/2-z
3 -x,-y,-z
4 x,1/2-y,1/2+z
_cell_length_a                   9.8571(12)
_cell_length_b                   7.3141(12)
_cell_length_c                   15.9560(15)
_cell_angle_alpha                90
_cell_angle_beta                 104.203(5)
_cell_angle_gamma                90
_cell_volume                     1115.2
loop_
_atom_site_label
_atom_site_type_symbol
_atom_site_fract_x
_atom_site_fract_y
_atom_site_fract_z
Hg1 Hg -0.000362(19) -0.25782(2) 0.081843(11)
Cl1 Cl -0.14612(11) 0.00016(14) 0.04704(6)
Cl2 Cl 0.14648(11) -0.51620(14) 0.09152(6)
O1 O 0.5002(5) -0.2318(5) 0.4827(3)
O2 O 0.4630(3) -0.4345(5) 0.3819(2)
N1 N 0.4450(5) -0.2832(6) 0.4095(3)
N2 N 0.3563(3) 0.1202(5) 0.2605(2)
N3 N 0.1742(3) -0.1131(5) 0.2159(2)
N4 N 0.1727(3) 0.0855(5) 0.3391(2)
C1 C 0.3530(4) -0.1496(6) 0.3503(2)
C2 C 0.4474(4) -0.0115(5) 0.3186(3)
H1 H 0.5077 0.0535 0.3685
H2 H 0.5082 -0.076 0.2872
C3 C 0.2622(6) -0.2502(4) 0.2715(3)
H3 H 0.3225 -0.3132 0.2392
H4 H 0.2028 -0.3426 0.2905
C4 C 0.2607(4) -0.0473(6) 0.3997(3)
H5 H 0.2005 -0.1348 0.4212
H6 H 0.3199 0.0181 0.4499
C5 C 0.2665(5) 0.2151(6) 0.3085(3)
H7 H 0.2092 0.308 0.2705
H8 H 0.3263 0.2792 0.3588
C6 C 0.0886(4) -0.0141(6) 0.2642(3)
H9 H 0.0274 -0.1023 0.2845
H10 H 0.0277 0.0737 0.225
C7 C 0.2659(4) 0.0228(6) 0.1871(3)
H11 H 0.3249 -0.0407 0.1542
H12 H 0.2069 0.1125 0.148
Hg1A Hg 0.000362(19) 0.24218(2) 0.418157(11)
N4A N -0.1727(3) -0.4145(5) 0.1609(2)
loop_
_geom_bond_atom_site_label_1
_geom_bond_atom_site_label_2
_geom_bond_site_symmetry_1
_geom_bond_site_symmetry_2
Hg1 Cl1 1_555 1_555
Cl2 Hg1 1_555 1_555
O1 N1 1_555 1_555
O2 N1 1_555 1_555
N1 C1 1_555 1_555
N2 C2 1_555 1_555
N3 Hg1 1_555 1_555
N4 C4 1_555 1_555
C1 C2 1_555 1_555
C2 H1 1_555 1_555
H2 C2 1_555 1_555
C3 N3 1_555 1_555
H3 C3 1_555 1_555
H4 C3 1_555 1_555
C4 C1 1_555 1_555
H5 C4 1_555 1_555
H6 C4 1_555 1_555
C5 N2 1_555 1_555
H7 C5 1_555 1_555
H8 C5 1_555 1_555
C6 N3 1_555 1_555
H9 C6 1_555 1_555
H10 C6 1_555 1_555
C7 N2 1_555 1_555
H11 C7 1_555 1_555
H12 C7 1_555 1_555
Hg1A N4 1_555 1_555
N4A Hg1 1_555 1_555
N3 C7 1_555 1_555
N4 C5 1_555 1_555
N4 C6 1_555 1_555
C1 C3 1_555 1_555

#END
