
#######################################################################
#
#                 Cambridge Crystallographic Data Centre
#                                CCDC 
#
#######################################################################
#
# If this CIF has been generated from an entry in the Cambridge 
# Structural Database, then it will include bibliographic, chemical, 
# crystal, experimental, refinement or atomic coordinate data resulting 
# from the CCDC's data processing and validation procedures.
#
#######################################################################

data_IGUQOS
_symmetry_cell_setting           tetragonal
_symmetry_space_group_name_H-M   'P 4/n n c'
_symmetry_Int_Tables_number      126
_space_group_name_Hall           '-P 4a 2bc'
loop_
_symmetry_equiv_pos_site_id
_symmetry_equiv_pos_as_xyz
1 x,y,z
2 1/2-y,x,z
3 1/2-x,1/2-y,z
4 y,1/2-x,z
5 x,1/2-y,1/2-z
6 1/2-x,y,1/2-z
7 y,x,1/2-z
8 1/2-y,1/2-x,1/2-z
9 -x,-y,-z
10 1/2+y,-x,-z
11 1/2+x,1/2+y,-z
12 -y,1/2+x,-z
13 -x,1/2+y,1/2+z
14 1/2+x,-y,1/2+z
15 -y,-x,1/2+z
16 1/2+y,1/2+x,1/2+z
_cell_length_a                   19.4643(4)
_cell_length_b                   19.4643(4)
_cell_length_c                   25.5340(9)
_cell_angle_alpha                90
_cell_angle_beta                 90
_cell_angle_gamma                90
_cell_volume                     9673.79
loop_
_atom_site_label
_atom_site_type_symbol
_atom_site_fract_x
_atom_site_fract_y
_atom_site_fract_z
W1 W 0.360924(17) 0.683439(17) 0.596832(12)
W2 W 0.192869(17) 0.635585(16) 0.596953(12)
W3 W 0.301093(18) 0.575391(16) 0.503743(12)
P1 P 0.2500 0.7500 0.5000
O1 O 0.35536(9) 0.62612(9) 0.45447(7)
O2 O 0.32445(9) 0.49242(9) 0.49071(7)
O3 O 0.22839(9) 0.58939(9) 0.45479(7)
O4 O 0.14916(9) 0.59018(9) 0.64320(7)
O5 O 0.17119(9) 0.72807(9) 0.61468(7)
O6 O 0.42310(9) 0.66739(9) 0.64235(7)
O7 O 0.36428(9) 0.60114(9) 0.55653(7)
O8 O 0.27973(9) 0.64742(9) 0.62984(7)
O9 O 0.23426(9) 0.56419(9) 0.55772(7)
O10 O 0.26713(9) 0.68978(9) 0.53437(7)
O10B O 0.23287(9) 0.81022(9) 0.53437(7)
O10I O 0.18978(9) 0.73287(9) 0.46563(7)
O10K O 0.31022(9) 0.76713(9) 0.46563(7)
W1B W 0.139076(17) 0.816561(17) 0.596832(12)
W2B W 0.307131(17) 0.864415(16) 0.596953(12)
W3B W 0.198907(18) 0.924609(16) 0.503743(12)
O1B O 0.14464(9) 0.87388(9) 0.45447(7)
O2B O 0.17555(9) 1.00758(9) 0.49071(7)
O3B O 0.27161(9) 0.91061(9) 0.45479(7)
O4B O 0.35084(9) 0.90982(9) 0.64320(7)
O5B O 0.32881(9) 0.77193(9) 0.61468(7)
O6B O 0.07690(9) 0.83261(9) 0.64235(7)
O7B O 0.13572(9) 0.89886(9) 0.55653(7)
O8B O 0.22027(9) 0.85258(9) 0.62984(7)
O9B O 0.26574(9) 0.93581(9) 0.55772(7)
W1I W 0.183439(17) 0.639076(17) 0.403168(12)
W2I W 0.135585(16) 0.807131(17) 0.403047(12)
W3I W 0.075391(16) 0.698907(18) 0.496257(12)
O1I O 0.12612(9) 0.64464(9) 0.54553(7)
O2I O -0.00758(9) 0.67555(9) 0.50929(7)
O3I O 0.08939(9) 0.77161(9) 0.54521(7)
O4I O 0.09018(9) 0.85084(9) 0.35680(7)
O5I O 0.22807(9) 0.82881(9) 0.38532(7)
O6I O 0.16739(9) 0.57690(9) 0.35765(7)
O7I O 0.10114(9) 0.63572(9) 0.44347(7)
O8I O 0.14742(9) 0.72027(9) 0.37016(7)
O9I O 0.06419(9) 0.76574(9) 0.44228(7)
W1K W 0.316561(17) 0.860924(17) 0.403168(12)
W2K W 0.364415(16) 0.692869(17) 0.403047(12)
W3K W 0.424609(16) 0.801093(18) 0.496257(12)
O1K O 0.37388(9) 0.85536(9) 0.54553(7)
O2K O 0.50758(9) 0.82445(9) 0.50929(7)
O3K O 0.41061(9) 0.72839(9) 0.54521(7)
O4K O 0.40982(9) 0.64916(9) 0.35680(7)
O5K O 0.27193(9) 0.67119(9) 0.38532(7)
O6K O 0.33261(9) 0.92310(9) 0.35765(7)
O7K O 0.39886(9) 0.86428(9) 0.44347(7)
O8K O 0.35258(9) 0.77973(9) 0.37016(7)
O9K O 0.43581(9) 0.73426(9) 0.44228(7)
Zn1 Zn 0.7500 0.7500 0.2500
Zn2 Zn 0.7500 0.7500 0.40378(11)
F1 F 0.7500 0.7500 0.3302(4)
F2 F 0.7500 0.7500 0.4848(8)
N1 N 0.7500 0.6432(4) 0.2500
N2 N 0.7500 0.4282(4) 0.2500
N3 N 0.5997(6) 0.5818(6) 0.4084(5)
C1 C 0.7819(5) 0.6080(4) 0.2871(4)
H1 H 0.8045 0.6326 0.3142
C2 C 0.7835(6) 0.5382(4) 0.2881(4)
H2 H 0.8077 0.5147 0.3151
C3 C 0.7500 0.5021(6) 0.2500
C4 C 0.6864(5) 0.3965(4) 0.2551(3)
C5 C 0.6849(6) 0.3208(4) 0.2517(3)
C6 C 0.7500 0.2866(5) 0.2500
C7 C 0.6252(5) 0.2854(4) 0.2515(4)
H3 H 0.5828 0.3094 0.2536
C8 C 0.6356(6) 0.6381(7) 0.4250(5)
C9 C 0.6008(8) 0.6653(10) 0.4680(8)
H4 H 0.5791 0.7095 0.4586
H5 H 0.6332 0.6734 0.4973
C10 C 0.5457(8) 0.6128(9) 0.4845(7)
H6 H 0.5598 0.5873 0.5162
H7 H 0.5010 0.6355 0.4911
C11 C 0.5418(7) 0.5654(9) 0.4369(7)
H8 H 0.5424 0.5166 0.4476
H9 H 0.4996 0.5743 0.4163
C12 C 0.6227(13) 0.5414(11) 0.3629(8)
H10 H 0.6185 0.4923 0.3708
H11 H 0.6707 0.5523 0.3552
H12 H 0.5941 0.5526 0.3325
O11 O 0.6348(4) 0.4297(3) 0.2626(3)
O12 O 0.6881(4) 0.6586(5) 0.4040(3)
N1B N 0.7500 -0.1432(4) 0.2500
N2B N 0.7500 0.0718(4) 0.2500
C1B C 0.7181(5) -0.1080(4) 0.2871(4)
H1B H 0.6955 -0.1326 0.3142
C2B C 0.7165(6) -0.0382(4) 0.2881(4)
H2B H 0.6923 -0.0147 0.3151
C3B C 0.7500 -0.0021(6) 0.2500
C4B C 0.8136(5) 0.1035(4) 0.2551(3)
C5B C 0.8151(6) 0.1792(4) 0.2517(3)
C6B C 0.7500 0.2134(5) 0.2500
C7B C 0.8748(5) 0.2146(4) 0.2515(4)
H3B H 0.9172 0.1906 0.2536
O11B O 0.8652(4) 0.0703(3) 0.2626(3)
C1D C 0.7819(5) -0.1080(4) 0.2129(4)
H1D H 0.8045 -0.1326 0.1858
C2D C 0.7835(6) -0.0382(4) 0.2119(4)
H2D H 0.8077 -0.0147 0.1849
C4D C 0.6864(5) 0.1035(4) 0.2449(3)
C5D C 0.6849(6) 0.1792(4) 0.2483(3)
C7D C 0.6252(5) 0.2146(4) 0.2485(4)
H3D H 0.5828 0.1906 0.2464
O11D O 0.6348(4) 0.0703(3) 0.2374(3)
C1E C 0.7181(5) 0.6080(4) 0.2129(4)
H1E H 0.6955 0.6326 0.1858
C2E C 0.7165(6) 0.5382(4) 0.2119(4)
H2E H 0.6923 0.5147 0.1849
C4E C 0.8136(5) 0.3965(4) 0.2449(3)
C5E C 0.8151(6) 0.3208(4) 0.2483(3)
C7E C 0.8748(5) 0.2854(4) 0.2485(4)
H3E H 0.9172 0.3094 0.2464
O11E O 0.8652(4) 0.4297(3) 0.2374(3)
N1A N -0.1432(4) 0.7500 0.2500
N2A N 0.0718(4) 0.7500 0.2500
C1A C -0.1080(4) 0.7819(5) 0.2871(4)
H1A H -0.1326 0.8045 0.3142
C2A C -0.0382(4) 0.7835(6) 0.2881(4)
H2A H -0.0147 0.8077 0.3151
C3A C -0.0021(6) 0.7500 0.2500
C4A C 0.1035(4) 0.6864(5) 0.2551(3)
C5A C 0.1792(4) 0.6849(6) 0.2517(3)
C6A C 0.2134(5) 0.7500 0.2500
C7A C 0.2146(4) 0.6252(5) 0.2515(4)
H3A H 0.1906 0.5828 0.2536
O11A O 0.0703(3) 0.6348(4) 0.2626(3)
N1C N 0.6432(4) 0.7500 0.2500
N2C N 0.4282(4) 0.7500 0.2500
C1C C 0.6080(4) 0.7181(5) 0.2871(4)
H1C H 0.6326 0.6955 0.3142
C2C C 0.5382(4) 0.7165(6) 0.2881(4)
H2C H 0.5147 0.6923 0.3151
C3C C 0.5021(6) 0.7500 0.2500
C4C C 0.3965(4) 0.8136(5) 0.2551(3)
C5C C 0.3208(4) 0.8151(6) 0.2517(3)
C6C C 0.2866(5) 0.7500 0.2500
C7C C 0.2854(4) 0.8748(5) 0.2515(4)
H3C H 0.3094 0.9172 0.2536
O11C O 0.4297(3) 0.8652(4) 0.2626(3)
C1F C 0.6080(4) 0.7819(5) 0.2129(4)
H1F H 0.6326 0.8045 0.1858
C2F C 0.5382(4) 0.7835(6) 0.2119(4)
H2F H 0.5147 0.8077 0.1849
C4F C 0.3965(4) 0.6864(5) 0.2449(3)
C5F C 0.3208(4) 0.6849(6) 0.2483(3)
C7F C 0.2854(4) 0.6252(5) 0.2485(4)
H3F H 0.3094 0.5828 0.2464
O11F O 0.4297(3) 0.6348(4) 0.2374(3)
C1G C -0.1080(4) 0.7181(5) 0.2129(4)
H1G H -0.1326 0.6955 0.1858
C2G C -0.0382(4) 0.7165(6) 0.2119(4)
H2G H -0.0147 0.6923 0.1849
C4G C 0.1035(4) 0.8136(5) 0.2449(3)
C5G C 0.1792(4) 0.8151(6) 0.2483(3)
C7G C 0.2146(4) 0.8748(5) 0.2485(4)
H3G H 0.1906 0.9172 0.2464
O11G O 0.0703(3) 0.8652(4) 0.2374(3)
N3A N 0.9182(6) 0.5997(6) 0.4084(5)
C8A C 0.8619(7) 0.6356(6) 0.4250(5)
C9A C 0.8347(10) 0.6008(8) 0.4680(8)
H4A H 0.7905 0.5791 0.4586
H5A H 0.8266 0.6332 0.4973
C10A C 0.8872(9) 0.5457(8) 0.4845(7)
H6A H 0.9127 0.5598 0.5162
H7A H 0.8645 0.5010 0.4911
C11A C 0.9346(9) 0.5418(7) 0.4369(7)
H8A H 0.9834 0.5424 0.4476
H9A H 0.9257 0.4996 0.4163
C12A C 0.9586(11) 0.6227(13) 0.3629(8)
H10A H 1.0077 0.6185 0.3708
H11A H 0.9477 0.6707 0.3552
H12A H 0.9474 0.5941 0.3325
O12A O 0.8414(5) 0.6881(4) 0.4040(3)
N3B N 0.9003(6) 0.9182(6) 0.4084(5)
C8B C 0.8644(6) 0.8619(7) 0.4250(5)
C9B C 0.8992(8) 0.8347(10) 0.4680(8)
H4B H 0.9209 0.7905 0.4586
H5B H 0.8668 0.8266 0.4973
C10B C 0.9543(8) 0.8872(9) 0.4845(7)
H6B H 0.9402 0.9127 0.5162
H7B H 0.9990 0.8645 0.4911
C11B C 0.9582(7) 0.9346(9) 0.4369(7)
H8B H 0.9576 0.9834 0.4476
H9B H 1.0004 0.9257 0.4163
C12B C 0.8773(13) 0.9586(11) 0.3629(8)
H10B H 0.8815 1.0077 0.3708
H11B H 0.8293 0.9477 0.3552
H12B H 0.9059 0.9474 0.3325
O12B O 0.8119(4) 0.8414(5) 0.4040(3)
N3C N 0.5818(6) 0.9003(6) 0.4084(5)
C8C C 0.6381(7) 0.8644(6) 0.4250(5)
C9C C 0.6653(10) 0.8992(8) 0.4680(8)
H4C H 0.7095 0.9209 0.4586
H5C H 0.6734 0.8668 0.4973
C10C C 0.6128(9) 0.9543(8) 0.4845(7)
H6C H 0.5873 0.9402 0.5162
H7C H 0.6355 0.9990 0.4911
C11C C 0.5654(9) 0.9582(7) 0.4369(7)
H8C H 0.5166 0.9576 0.4476
H9C H 0.5743 1.0004 0.4163
C12C C 0.5414(11) 0.8773(13) 0.3629(8)
H10C H 0.4923 0.8815 0.3708
H11C H 0.5523 0.8293 0.3552
H12C H 0.5526 0.9059 0.3325
O12C O 0.6586(5) 0.8119(4) 0.4040(3)
Zn2D Zn 0.7500 0.7500 0.09622(11)
F1D F 0.7500 0.7500 0.1698(4)
F2D F 0.7500 0.7500 0.0152(8)
N3G N 0.9182(6) 0.9003(6) 0.0916(5)
C8G C 0.8619(7) 0.8644(6) 0.0750(5)
C9G C 0.8347(10) 0.8992(8) 0.0320(8)
H4G H 0.7905 0.9209 0.0414
H5G H 0.8266 0.8668 0.0027
C10G C 0.8872(9) 0.9543(8) 0.0155(7)
H6G H 0.9127 0.9402 -0.0162
H7G H 0.8645 0.9990 0.0089
C11G C 0.9346(9) 0.9582(7) 0.0631(7)
H8G H 0.9834 0.9576 0.0524
H9G H 0.9257 1.0004 0.0837
C12G C 0.9586(11) 0.8773(13) 0.1371(8)
H10G H 1.0077 0.8815 0.1292
H11G H 0.9477 0.8293 0.1448
H12G H 0.9474 0.9059 0.1675
O12G O 0.8414(5) 0.8119(4) 0.0960(3)
N3F N 0.5818(6) 0.5997(6) 0.0916(5)
C8F C 0.6381(7) 0.6356(6) 0.0750(5)
C9F C 0.6653(10) 0.6008(8) 0.0320(8)
H4F H 0.7095 0.5791 0.0414
H5F H 0.6734 0.6332 0.0027
C10F C 0.6128(9) 0.5457(8) 0.0155(7)
H6F H 0.5873 0.5598 -0.0162
H7F H 0.6355 0.5010 0.0089
C11F C 0.5654(9) 0.5418(7) 0.0631(7)
H8F H 0.5166 0.5424 0.0524
H9F H 0.5743 0.4996 0.0837
C12F C 0.5414(11) 0.6227(13) 0.1371(8)
H10F H 0.4923 0.6185 0.1292
H11F H 0.5523 0.6707 0.1448
H12F H 0.5526 0.5941 0.1675
O12F O 0.6586(5) 0.6881(4) 0.0960(3)
N3E N 0.9003(6) 0.5818(6) 0.0916(5)
C8E C 0.8644(6) 0.6381(7) 0.0750(5)
C9E C 0.8992(8) 0.6653(10) 0.0320(8)
H4E H 0.9209 0.7095 0.0414
H5E H 0.8668 0.6734 0.0027
C10E C 0.9543(8) 0.6128(9) 0.0155(7)
H6E H 0.9402 0.5873 -0.0162
H7E H 0.9990 0.6355 0.0089
C11E C 0.9582(7) 0.5654(9) 0.0631(7)
H8E H 0.9576 0.5166 0.0524
H9E H 1.0004 0.5743 0.0837
C12E C 0.8773(13) 0.5414(11) 0.1371(8)
H10E H 0.8815 0.4923 0.1292
H11E H 0.8293 0.5523 0.1448
H12E H 0.9059 0.5526 0.1675
O12E O 0.8119(4) 0.6586(5) 0.0960(3)
N3D N 0.5997(6) 0.9182(6) 0.0916(5)
C8D C 0.6356(6) 0.8619(7) 0.0750(5)
C9D C 0.6008(8) 0.8347(10) 0.0320(8)
H4D H 0.5791 0.7905 0.0414
H5D H 0.6332 0.8266 0.0027
C10D C 0.5457(8) 0.8872(9) 0.0155(7)
H6D H 0.5598 0.9127 -0.0162
H7D H 0.5010 0.8645 0.0089
C11D C 0.5418(7) 0.9346(9) 0.0631(7)
H8D H 0.5424 0.9834 0.0524
H9D H 0.4996 0.9257 0.0837
C12D C 0.6227(13) 0.9586(11) 0.1371(8)
H10D H 0.6185 1.0077 0.1292
H11D H 0.6707 0.9477 0.1448
H12D H 0.5941 0.9474 0.1675
O12D O 0.6881(4) 0.8414(5) 0.0960(3)
Zn1_2 Zn -0.2500 0.7500 0.2500
Zn1_3 Zn 0.7500 -0.2500 0.2500
N1A_2 N 0.8568(4) 0.7500 0.2500
N1B_2 N 0.7500 0.8568(4) 0.2500
loop_
_geom_bond_atom_site_label_1
_geom_bond_atom_site_label_2
_geom_bond_site_symmetry_1
_geom_bond_site_symmetry_2
W1 O6 1_555 1_555
W2 O4 1_555 1_555
W3 O1 1_555 1_555
P1 O10 1_555 1_555
O1 W2K 1_555 1_555
O2 W3 1_555 1_555
O3 W3 1_555 1_555
O5 W2 1_555 1_555
O7 W1 1_555 1_555
O8 W1 1_555 1_555
O9 W2 1_555 1_555
O10 W1 1_555 1_555
Zn1 F1 1_555 1_555
Zn2 F1 1_555 1_555
F2 Zn2 1_555 1_555
N1 Zn1 1_555 1_555
N2 C3 1_555 1_555
N3 C8 1_555 1_555
C1 N1 1_555 1_555
H1 C1 1_555 1_555
C2 C1 1_555 1_555
H2 C2 1_555 1_555
C3 C2 1_555 1_555
C4 N2 1_555 1_555
C5 C4 1_555 1_555
C6 C5 1_555 1_555
C7 C5 1_555 1_555
H3 C7 1_555 1_555
C8 C9 1_555 1_555
C9 H4 1_555 1_555
H5 C9 1_555 1_555
C10 C9 1_555 1_555
H6 C10 1_555 1_555
H7 C10 1_555 1_555
C11 N3 1_555 1_555
H8 C11 1_555 1_555
H9 C11 1_555 1_555
C12 N3 1_555 1_555
H10 C12 1_555 1_555
H11 C12 1_555 1_555
H12 C12 1_555 1_555
O11 C4 1_555 1_555
O12 Zn2 1_555 1_555
O10B P1 1_555 1_555
O10I P1 1_555 1_555
O10K P1 1_555 1_555
W1B O5 1_555 1_555
W2B O10B 1_555 1_555
W3B O10B 1_555 1_555
O1B W3B 1_555 1_555
O2B W3B 1_555 1_555
O3B W3B 1_555 1_555
O4B W2B 1_555 1_555
O5B W1 1_555 1_555
O6B W1B 1_555 1_555
O7B W1B 1_555 1_555
O8B W1B 1_555 1_555
O9B W2B 1_555 1_555
W1I O3 1_555 1_555
W2I O10I 1_555 1_555
W3I O10I 1_555 1_555
O1I W2 1_555 1_555
O2I W3I 1_555 1_555
O3I W1B 1_555 1_555
O4I W2I 1_555 1_555
O5I W2I 1_555 1_555
O6I W1I 1_555 1_555
O7I W1I 1_555 1_555
O8I W1I 1_555 1_555
O9I W2I 1_555 1_555
W1K O10K 1_555 1_555
W2K O10K 1_555 1_555
W3K O10K 1_555 1_555
O1K W2B 1_555 1_555
O2K W3K 1_555 1_555
O3K W1 1_555 1_555
O4K W2K 1_555 1_555
O5K W1I 1_555 1_555
O6K W1K 1_555 1_555
O7K W1K 1_555 1_555
O8K W1K 1_555 1_555
O9K W2K 1_555 1_555
N1B C1B 1_555 1_555
N2B C3B 1_555 1_555
C1B H1B 1_555 1_555
C2B C1B 1_555 1_555
H2B C2B 1_555 1_555
C3B C2B 1_555 1_555
C4B N2B 1_555 1_555
C5B C4B 1_555 1_555
C6B C6 1_555 1_555
C7B C5B 1_555 1_555
H3B C7B 1_555 1_555
O11B C4B 1_555 1_555
C1D N1B 1_555 1_555
H1D C1D 1_555 1_555
C2D C3B 1_555 1_555
H2D C2D 1_555 1_555
C4D N2B 1_555 1_555
C5D C6B 1_555 1_555
C7D C7 1_555 1_555
H3D C7D 1_555 1_555
O11D C4D 1_555 1_555
C1E N1 1_555 1_555
H1E C1E 1_555 1_555
C2E C3 1_555 1_555
H2E C2E 1_555 1_555
C4E N2 1_555 1_555
C5E C6 1_555 1_555
C7E C7B 1_555 1_555
H3E C7E 1_555 1_555
O11E C4E 1_555 1_555
N1A C1A 1_555 1_555
N2A C3A 1_555 1_555
C1A H1A 1_555 1_555
C2A C1A 1_555 1_555
H2A C2A 1_555 1_555
C3A C2A 1_555 1_555
C4A N2A 1_555 1_555
C5A C4A 1_555 1_555
C6A C5A 1_555 1_555
C7A C5A 1_555 1_555
H3A C7A 1_555 1_555
O11A C4A 1_555 1_555
N1C Zn1 1_555 1_555
N2C C3C 1_555 1_555
C1C N1C 1_555 1_555
H1C C1C 1_555 1_555
C2C C1C 1_555 1_555
H2C C2C 1_555 1_555
C3C C2C 1_555 1_555
C4C N2C 1_555 1_555
C5C C4C 1_555 1_555
C6C C6A 1_555 1_555
C7C C5C 1_555 1_555
H3C C7C 1_555 1_555
O11C C4C 1_555 1_555
C1F N1C 1_555 1_555
H1F C1F 1_555 1_555
C2F C3C 1_555 1_555
H2F C2F 1_555 1_555
C4F N2C 1_555 1_555
C5F C6C 1_555 1_555
C7F C7A 1_555 1_555
H3F C7F 1_555 1_555
O11F C4F 1_555 1_555
C1G N1A 1_555 1_555
H1G C1G 1_555 1_555
C2G C3A 1_555 1_555
H2G C2G 1_555 1_555
C4G N2A 1_555 1_555
C5G C6A 1_555 1_555
C7G C7C 1_555 1_555
H3G C7G 1_555 1_555
O11G C4G 1_555 1_555
N3A C8A 1_555 1_555
C8A C9A 1_555 1_555
C9A H4A 1_555 1_555
H5A C9A 1_555 1_555
C10A C9A 1_555 1_555
H6A C10A 1_555 1_555
H7A C10A 1_555 1_555
C11A N3A 1_555 1_555
H8A C11A 1_555 1_555
H9A C11A 1_555 1_555
C12A N3A 1_555 1_555
H10A C12A 1_555 1_555
H11A C12A 1_555 1_555
H12A C12A 1_555 1_555
O12A Zn2 1_555 1_555
N3B C8B 1_555 1_555
C8B C9B 1_555 1_555
C9B H4B 1_555 1_555
H5B C9B 1_555 1_555
C10B C9B 1_555 1_555
H6B C10B 1_555 1_555
H7B C10B 1_555 1_555
C11B N3B 1_555 1_555
H8B C11B 1_555 1_555
H9B C11B 1_555 1_555
C12B N3B 1_555 1_555
H10B C12B 1_555 1_555
H11B C12B 1_555 1_555
H12B C12B 1_555 1_555
O12B Zn2 1_555 1_555
N3C C8C 1_555 1_555
C8C C9C 1_555 1_555
C9C H4C 1_555 1_555
H5C C9C 1_555 1_555
C10C C9C 1_555 1_555
H6C C10C 1_555 1_555
H7C C10C 1_555 1_555
C11C N3C 1_555 1_555
H8C C11C 1_555 1_555
H9C C11C 1_555 1_555
C12C N3C 1_555 1_555
H10C C12C 1_555 1_555
H11C C12C 1_555 1_555
H12C C12C 1_555 1_555
O12C Zn2 1_555 1_555
Zn2D F1D 1_555 1_555
F1D Zn1 1_555 1_555
F2D Zn2D 1_555 1_555
N3G C8G 1_555 1_555
C8G C9G 1_555 1_555
C9G H4G 1_555 1_555
H5G C9G 1_555 1_555
C10G C9G 1_555 1_555
H6G C10G 1_555 1_555
H7G C10G 1_555 1_555
C11G N3G 1_555 1_555
H8G C11G 1_555 1_555
H9G C11G 1_555 1_555
C12G N3G 1_555 1_555
H10G C12G 1_555 1_555
H11G C12G 1_555 1_555
H12G C12G 1_555 1_555
O12G Zn2D 1_555 1_555
N3F C8F 1_555 1_555
C8F C9F 1_555 1_555
C9F H4F 1_555 1_555
H5F C9F 1_555 1_555
C10F C9F 1_555 1_555
H6F C10F 1_555 1_555
H7F C10F 1_555 1_555
C11F N3F 1_555 1_555
H8F C11F 1_555 1_555
H9F C11F 1_555 1_555
C12F N3F 1_555 1_555
H10F C12F 1_555 1_555
H11F C12F 1_555 1_555
H12F C12F 1_555 1_555
O12F Zn2D 1_555 1_555
N3E C8E 1_555 1_555
C8E C9E 1_555 1_555
C9E H4E 1_555 1_555
H5E C9E 1_555 1_555
C10E C9E 1_555 1_555
H6E C10E 1_555 1_555
H7E C10E 1_555 1_555
C11E N3E 1_555 1_555
H8E C11E 1_555 1_555
H9E C11E 1_555 1_555
C12E N3E 1_555 1_555
H10E C12E 1_555 1_555
H11E C12E 1_555 1_555
H12E C12E 1_555 1_555
O12E Zn2D 1_555 1_555
N3D C8D 1_555 1_555
C8D C9D 1_555 1_555
C9D H4D 1_555 1_555
H5D C9D 1_555 1_555
C10D C9D 1_555 1_555
H6D C10D 1_555 1_555
H7D C10D 1_555 1_555
C11D N3D 1_555 1_555
H8D C11D 1_555 1_555
H9D C11D 1_555 1_555
C12D N3D 1_555 1_555
H10D C12D 1_555 1_555
H11D C12D 1_555 1_555
H12D C12D 1_555 1_555
O12D Zn2D 1_555 1_555
Zn1_2 N1A 1_555 1_555
Zn1_3 N1B 1_555 1_555
N1A_2 Zn1 1_555 1_555
N1B_2 Zn1 1_555 1_555
W2 O8 1_555 1_555
W2 O10 1_555 1_555
W3 O7 1_555 1_555
W3 O9 1_555 1_555
W3 O10 1_555 1_555
C8 O12 1_555 1_555
C10 C11 1_555 1_555
O10B W1B 1_555 1_555
O10I W1I 1_555 1_555
W2B O5B 1_555 1_555
W2B O8B 1_555 1_555
W3B O7B 1_555 1_555
W3B O9B 1_555 1_555
O1B W2I 1_555 1_555
O3B W1K 1_555 1_555
W2I O8I 1_555 1_555
W3I O1I 1_555 1_555
W3I O3I 1_555 1_555
W3I O7I 1_555 1_555
W3I O9I 1_555 1_555
O5I W1K 1_555 1_555
W2K O5K 1_555 1_555
W2K O8K 1_555 1_555
W3K O1K 1_555 1_555
W3K O3K 1_555 1_555
W3K O7K 1_555 1_555
W3K O9K 1_555 1_555
C5B C6B 1_555 1_555
C1D C2D 1_555 1_555
C4D C5D 1_555 1_555
C5D C7D 1_555 1_555
C1E C2E 1_555 1_555
C4E C5E 1_555 1_555
C5E C7E 1_555 1_555
C5C C6C 1_555 1_555
C1F C2F 1_555 1_555
C4F C5F 1_555 1_555
C5F C7F 1_555 1_555
C1G C2G 1_555 1_555
C4G C5G 1_555 1_555
C5G C7G 1_555 1_555
C8A O12A 1_555 1_555
C10A C11A 1_555 1_555
C8B O12B 1_555 1_555
C10B C11B 1_555 1_555
C8C O12C 1_555 1_555
C10C C11C 1_555 1_555
C8G O12G 1_555 1_555
C10G C11G 1_555 1_555
C8F O12F 1_555 1_555
C10F C11F 1_555 1_555
C8E O12E 1_555 1_555
C10E C11E 1_555 1_555
C8D O12D 1_555 1_555
C10D C11D 1_555 1_555

#END
