
#######################################################################
#
#                 Cambridge Crystallographic Data Centre
#                                CCDC 
#
#######################################################################
#
# If this CIF has been generated from an entry in the Cambridge 
# Structural Database, then it will include bibliographic, chemical, 
# crystal, experimental, refinement or atomic coordinate data resulting 
# from the CCDC's data processing and validation procedures.
#
#######################################################################

data_IGURAE
_symmetry_cell_setting           orthorhombic
_symmetry_space_group_name_H-M   'P 21 21 21'
_symmetry_Int_Tables_number      19
_space_group_name_Hall           'P 2ac 2ab'
loop_
_symmetry_equiv_pos_site_id
_symmetry_equiv_pos_as_xyz
1 x,y,z
2 1/2-x,-y,1/2+z
3 1/2+x,1/2-y,-z
4 -x,1/2+y,1/2-z
_cell_length_a                   7.8671(3)
_cell_length_b                   10.7011(5)
_cell_length_c                   12.6481(6)
_cell_angle_alpha                90
_cell_angle_beta                 90
_cell_angle_gamma                90
_cell_volume                     1064.8
loop_
_atom_site_label
_atom_site_type_symbol
_atom_site_fract_x
_atom_site_fract_y
_atom_site_fract_z
Ag1 Ag 0.46041(4) -0.20766(3) 0.63568(2)
O1 O -0.1900(4) 0.1913(3) 0.7304(2)
O2 O -0.1386(5) 0.0119(3) 0.8026(3)
O3 O 0.4301(4) -0.4015(3) 0.5351(2)
O4 O 0.1947(5) -0.2989(3) 0.5112(2)
O5 O 0.2400(5) -0.4728(4) 0.4274(3)
N1 N 0.2877(5) -0.3925(3) 0.4912(2)
N2 N -0.0980(4) 0.1029(3) 0.7486(2)
N3 N 0.2615(5) 0.1745(3) 0.5601(2)
N4 N 0.3283(4) -0.0178(3) 0.6557(2)
N5 N 0.3654(4) 0.1856(3) 0.7430(2)
C1 C 0.0805(5) 0.1061(4) 0.7055(3)
C2 C 0.0833(5) 0.1726(4) 0.5969(3)
H1 H 0.0111 0.1271 0.5457
H2 H 0.0395 0.2589 0.6039
C3 C 0.1519(5) -0.0271(3) 0.6954(3)
H3 H 0.1504 -0.0692 0.7651
H4 H 0.0816 -0.0765 0.6457
C4 C 0.1897(5) 0.1825(4) 0.7826(3)
H5 H 0.1445 0.2686 0.7882
H6 H 0.1867 0.1439 0.8537
C5 C 0.3658(5) 0.2446(3) 0.6357(3)
H7 H 0.3219 0.3311 0.6413
H8 H 0.4841 0.249 0.6092
C6 C 0.4295(5) 0.0562(3) 0.7306(3)
H9 H 0.5487 0.0593 0.7057
H10 H 0.4285 0.0143 0.8004
C7 C 0.3260(5) 0.0470(4) 0.5515(3)
H11 H 0.4427 0.049 0.5223
H12 H 0.2536 -0.0007 0.5017
Ag1B Ag -0.03959(4) -0.29234(3) 0.36432(2)
Ag1C Ag 0.53959(4) 0.29234(3) 0.86432(2)
O4B O 0.6947(5) -0.2011(3) 0.4888(2)
N5C N 0.6346(4) -0.3144(3) 0.7570(2)
loop_
_geom_bond_atom_site_label_1
_geom_bond_atom_site_label_2
_geom_bond_site_symmetry_1
_geom_bond_site_symmetry_2
Ag1 O3 1_555 1_555
O1 N2 1_555 1_555
O2 N2 1_555 1_555
O3 N1 1_555 1_555
O4 N1 1_555 1_555
O5 N1 1_555 1_555
N2 C1 1_555 1_555
N3 C2 1_555 1_555
N4 Ag1 1_555 1_555
N5 C4 1_555 1_555
C1 C2 1_555 1_555
C2 H1 1_555 1_555
H2 C2 1_555 1_555
C3 N4 1_555 1_555
H3 C3 1_555 1_555
H4 C3 1_555 1_555
C4 C1 1_555 1_555
H5 C4 1_555 1_555
H6 C4 1_555 1_555
C5 N3 1_555 1_555
H7 C5 1_555 1_555
H8 C5 1_555 1_555
C6 N4 1_555 1_555
H9 C6 1_555 1_555
H10 C6 1_555 1_555
C7 N3 1_555 1_555
H11 C7 1_555 1_555
H12 C7 1_555 1_555
Ag1B O4 1_555 1_555
Ag1C N5 1_555 1_555
O4B Ag1 1_555 1_555
N5C Ag1 1_555 1_555
N4 C7 1_555 1_555
N5 C5 1_555 1_555
N5 C6 1_555 1_555
C1 C3 1_555 1_555

#END
