
#######################################################################
#
#                 Cambridge Crystallographic Data Centre
#                                CCDC 
#
#######################################################################
#
# If this CIF has been generated from an entry in the Cambridge 
# Structural Database, then it will include bibliographic, chemical, 
# crystal, experimental, refinement or atomic coordinate data resulting 
# from the CCDC's data processing and validation procedures.
#
#######################################################################

data_IGUSEJ
_symmetry_cell_setting           monoclinic
_symmetry_space_group_name_H-M   'P 21/c'
_symmetry_Int_Tables_number      14
_space_group_name_Hall           '-P 2ybc'
loop_
_symmetry_equiv_pos_site_id
_symmetry_equiv_pos_as_xyz
1 x,y,z
2 -x,1/2+y,1/2-z
3 -x,-y,-z
4 x,1/2-y,1/2+z
_cell_length_a                   6.5151(7)
_cell_length_b                   13.8785(15)
_cell_length_c                   20.757(2)
_cell_angle_alpha                90
_cell_angle_beta                 93.045(5)
_cell_angle_gamma                90
_cell_volume                     1874.19
loop_
_atom_site_label
_atom_site_type_symbol
_atom_site_fract_x
_atom_site_fract_y
_atom_site_fract_z
La1 La 0.13826(3) 0.128309(12) 0.052161(8)
Zn1 Zn -0.36633(6) 0.16959(3) 0.34421(2)
O1 O -0.8189(4) 0.02690(17) 0.25511(12)
O3 O -0.5392(3) 0.06058(16) 0.31671(11)
O4 O -0.2406(4) 0.1532(2) 0.23526(13)
O5 O -0.0420(4) 0.1537(2) 0.15184(12)
O6 O -0.1985(3) 0.27933(16) 0.37690(11)
O7 O 0.0849(3) 0.18436(15) -0.06479(11)
O8 O 0.2891(3) 0.29162(17) 0.03567(11)
O9 O 0.5164(4) 0.3343(2) -0.03576(13)
O10 O 0.4274(5) 0.1726(2) 0.14045(16)
H1 H 0.4118 0.2207 0.1651
H2 H 0.5363 0.1389 0.1443
O11 O 0.2043(4) -0.01583(17) 0.12558(12)
H3 H 0.1113 -0.0353 0.1497
H4 H 0.3194 -0.0447 0.1261
O12 O -0.2007(3) 0.23260(18) 0.03963(12)
H5 H -0.2167 0.2807 0.0642
H6 H -0.2937 0.2180 0.0110
O13 O -0.1767(4) 0.01932(18) 0.02710(16)
O15 O 0.5077(9) 0.0895(5) 0.0309(4)
N1 N -0.6011(4) 0.24662(19) 0.30981(13)
N2 N -0.1358(4) 0.09429(19) 0.38340(13)
N3 N -0.3780(10) 0.0209(5) 0.0142(3)
C1 C -0.7443(4) 0.1911(2) 0.27859(14)
C2 C 0.0828(4) 0.2310(2) 0.24689(14)
C3 C 0.0608(5) 0.3312(2) 0.24900(17)
H7 H -0.0542 0.3601 0.2288
C4 C 0.2078(6) 0.3870(2) 0.2807(2)
H8 H 0.1939 0.4537 0.2819
C5 C -0.6227(5) 0.3423(2) 0.31087(18)
H9 H -0.5221 0.3797 0.3323
C6 C -0.6998(4) 0.0842(2) 0.28276(14)
C7 C -0.0786(5) 0.1722(2) 0.20918(15)
C8 C 0.0077(4) 0.1496(2) 0.41494(14)
C9 C 0.1784(4) 0.1096(2) 0.44728(15)
C10 C 0.2007(5) 0.0092(2) 0.44476(17)
H10 H 0.3156 -0.0201 0.4647
C11 C 0.0523(5) -0.0460(2) 0.41273(17)
H11 H 0.0648 -0.1127 0.4114
C12 C -0.1149(5) -0.0007(2) 0.38272(17)
H12 H -0.2161 -0.0379 0.3614
C13 C -0.0362(4) 0.2439(2) -0.09054(14)
C14 C 0.3412(4) 0.3320(2) -0.01531(15)
La1B La -0.13826(3) -0.128309(12) -0.052161(8)
O6C O -0.1985(3) 0.22067(16) -0.12310(11)
O13B O 0.1767(4) -0.01932(18) -0.02710(16)
O15_2 O -0.4923(9) 0.0895(5) 0.0309(4)
N3_2 N 0.6220(10) 0.0209(5) 0.0142(3)
C1_2 C 0.2557(4) 0.1911(2) 0.27859(14)
C2_2 C -0.9172(4) 0.2310(2) 0.24689(14)
C4_2 C -0.7922(6) 0.3870(2) 0.2807(2)
C5_2 C 0.3773(5) 0.3423(2) 0.31087(18)
C8C C 0.0077(4) 0.3504(2) -0.08506(14)
C9C C 0.1784(4) 0.3904(2) -0.05272(15)
C13C C -0.0362(4) 0.2561(2) 0.40946(14)
C14C C 0.3412(4) 0.1680(2) 0.48469(15)
O2 O -0.5585(7) 0.6443(3) -0.1590(3)
O14? O -0.4584(9) -0.0607(5) -0.0087(4)
loop_
_geom_bond_atom_site_label_1
_geom_bond_atom_site_label_2
_geom_bond_site_symmetry_1
_geom_bond_site_symmetry_2
La1 O5 1_555 1_555
Zn1 O3 1_555 1_555
O1 C6 1_555 1_555
O3 C6 1_555 1_555
O4 Zn1 1_555 1_555
O5 C7 1_555 1_555
O6 Zn1 1_555 1_555
O7 La1 1_555 1_555
O8 La1 1_555 1_555
O9 C14 1_555 1_555
O10 La1 1_555 1_555
H1 O10 1_555 1_555
H2 O10 1_555 1_555
O11 La1 1_555 1_555
H3 O11 1_555 1_555
H4 O11 1_555 1_555
O12 La1 1_555 1_555
H5 O12 1_555 1_555
H6 O12 1_555 1_555
O13 La1 1_555 1_555
O15 La1 1_555 1_555
N1 Zn1 1_555 1_555
N2 Zn1 1_555 1_555
N3 O13 1_555 1_555
C1 N1 1_555 1_555
C2 C3 1_555 1_555
C3 H7 1_555 1_555
C4 C3 1_555 1_555
H8 C4 1_555 1_555
C5 N1 1_555 1_555
H9 C5 1_555 1_555
C6 C1 1_555 1_555
C7 O4 1_555 1_555
C8 N2 1_555 1_555
C9 C8 1_555 1_555
C10 C9 1_555 1_555
H10 C10 1_555 1_555
C11 C10 1_555 1_555
H11 C11 1_555 1_555
C12 N2 1_555 1_555
H12 C12 1_555 1_555
C13 O7 1_555 1_555
C14 O8 1_555 1_555
La1B O13 1_555 1_555
O6C C13 1_555 1_555
O13B La1 1_555 1_555
O15_2 N3 1_555 1_555
N3_2 O15 1_555 1_555
C1_2 C2 1_555 1_555
C2_2 C1 1_555 1_555
C4_2 C5 1_555 1_555
C5_2 C4 1_555 1_555
C8C C13 1_555 1_555
C9C C14 1_555 1_555
C13C O6 1_555 1_555
C14C C9 1_555 1_555
C2 C7 1_555 1_555
C8 C13C 1_555 1_555
C11 C12 1_555 1_555
La1B O13B 1_555 1_555
C8C C9C 1_555 1_555

#END
