
#######################################################################
#
#                 Cambridge Crystallographic Data Centre
#                                CCDC 
#
#######################################################################
#
# If this CIF has been generated from an entry in the Cambridge 
# Structural Database, then it will include bibliographic, chemical, 
# crystal, experimental, refinement or atomic coordinate data resulting 
# from the CCDC's data processing and validation procedures.
#
#######################################################################

data_IGUSUA
_symmetry_cell_setting           monoclinic
_symmetry_space_group_name_H-M   'P 21/c'
_symmetry_Int_Tables_number      14
_space_group_name_Hall           '-P 2ybc'
loop_
_symmetry_equiv_pos_site_id
_symmetry_equiv_pos_as_xyz
1 x,y,z
2 -x,1/2+y,1/2-z
3 -x,-y,-z
4 x,1/2-y,1/2+z
_cell_length_a                   6.9399(4)
_cell_length_b                   5.7694(2)
_cell_length_c                   22.9600(17)
_cell_angle_alpha                90
_cell_angle_beta                 92.558(6)
_cell_angle_gamma                90
_cell_volume                     918.381
loop_
_atom_site_label
_atom_site_type_symbol
_atom_site_fract_x
_atom_site_fract_y
_atom_site_fract_z
Ag1 Ag 0.47004(6) 0.18960(6) 0.055452(16)
Ag2 Ag 0.04491(5) 0.19926(6) 0.052421(16)
Ag3 Ag 0.73836(5) 0.16160(7) 0.43361(2)
P1 P 0.24480(15) 0.16545(17) 0.43040(5)
O1 O 0.0657(4) 0.2941(4) 0.45094(13)
O2 O 0.4311(4) 0.2834(5) 0.45403(13)
O3 O 0.3217(7) 0.0910(7) 0.13614(16)
O4 O 0.2442(4) -0.0893(5) 0.44778(13)
C1 C 0.2431(6) 0.1886(6) 0.35126(17)
C2 C 0.3107(6) 0.0067(7) 0.31685(18)
C3 C 0.3164(6) 0.0285(8) 0.25714(19)
C4 C 0.1778(6) 0.3893(7) 0.32319(19)
C5 C 0.2480(6) 0.2306(8) 0.22990(18)
C6 C 0.1818(6) 0.4104(8) 0.2638(2)
O5 O 0.1780(6) 0.4283(9) 0.14179(18)
C7 C 0.2487(7) 0.2531(10) 0.1648(2)
H1 H 0.353486 -0.134821 0.335216
H2 H 0.367229 -0.094942 0.234365
H3 H 0.129206 0.514826 0.345749
H4 H 0.138092 0.551506 0.245338
Ag1A Ag 0.52996(6) -0.31040(6) 0.444548(16)
Ag1A_2 Ag 0.52996(6) 0.68960(6) 0.444548(16)
Ag1C Ag 0.47004(6) 0.31040(6) 0.555452(16)
Ag2A Ag -0.04491(5) -0.30074(6) 0.447579(16)
Ag2A_2 Ag -0.04491(5) 0.69926(6) 0.447579(16)
Ag2A_3 Ag 0.95509(5) -0.30074(6) 0.447579(16)
Ag2C Ag 0.04491(5) 0.30074(6) 0.552421(16)
Ag3_2 Ag -0.26164(5) 0.16160(7) 0.43361(2)
Ag3A Ag 0.26164(5) 0.66160(7) 0.06639(2)
O1_2 O 1.0657(4) 0.2941(4) 0.45094(13)
O1A O -0.0657(4) -0.2059(4) 0.04906(13)
O1C O 0.0657(4) 0.2059(4) -0.04906(13)
O2A O 0.5689(4) -0.2166(5) 0.04597(13)
O2C O 0.4311(4) 0.2166(5) -0.04597(13)
O4A O -0.2442(4) 0.4107(5) 0.05222(13)
O4A_2 O 0.7558(4) 0.4107(5) 0.05222(13)
O5A O 0.8220(6) -0.0717(9) 0.35821(18)
loop_
_geom_bond_atom_site_label_1
_geom_bond_atom_site_label_2
_geom_bond_site_symmetry_1
_geom_bond_site_symmetry_2
Ag1 Ag2 1_555 1_555
Ag2 O5 1_555 1_555
Ag3 O2 1_555 1_555
P1 O1 1_555 1_555
O1 Ag2A_2 1_555 1_555
O2 P1 1_555 1_555
O3 Ag1 1_555 1_555
O4 P1 1_555 1_555
C1 P1 1_555 1_555
C2 C1 1_555 1_555
C3 C2 1_555 1_555
C4 C1 1_555 1_555
C5 C3 1_555 1_555
C6 C4 1_555 1_555
O5 C7 1_555 1_555
C7 O3 1_555 1_555
H1 C2 1_555 1_555
H2 C3 1_555 1_555
H3 C4 1_555 1_555
H4 C6 1_555 1_555
Ag1A Ag3 1_555 1_555
Ag1A_2 O2 1_555 1_555
Ag1C O2 1_555 1_555
Ag2A O4 1_555 1_555
Ag2A_3 Ag3 1_555 1_555
Ag2C O1 1_555 1_555
Ag3_2 O1 1_555 1_555
Ag3A Ag1 1_555 1_555
O1_2 Ag3 1_555 1_555
O1A Ag2 1_555 1_555
O1C Ag2 1_555 1_555
O2A Ag1 1_555 1_555
O2C Ag1 1_555 1_555
O4A Ag2 1_555 1_555
O4A_2 Ag1 1_555 1_555
O5A Ag3 1_555 1_555
Ag2 Ag3A 1_555 1_555
O4 Ag1A 1_555 1_555
C5 C6 1_555 1_555
C5 C7 1_555 1_555
O5 Ag3A 1_555 1_555
Ag1A Ag2A_3 1_555 1_555
Ag1C Ag2C 1_555 1_555
Ag2A Ag3_2 1_555 1_555
Ag2A_3 O5A 1_555 1_555

#END
