
#######################################################################
#
#                 Cambridge Crystallographic Data Centre
#                                CCDC 
#
#######################################################################
#
# If this CIF has been generated from an entry in the Cambridge 
# Structural Database, then it will include bibliographic, chemical, 
# crystal, experimental, refinement or atomic coordinate data resulting 
# from the CCDC's data processing and validation procedures.
#
#######################################################################

data_IGUTUB01
_symmetry_cell_setting           monoclinic
_symmetry_space_group_name_H-M   'P 21/c'
_symmetry_Int_Tables_number      14
_space_group_name_Hall           '-P 2ybc'
loop_
_symmetry_equiv_pos_site_id
_symmetry_equiv_pos_as_xyz
1 x,y,z
2 -x,1/2+y,1/2-z
3 -x,-y,-z
4 x,1/2-y,1/2+z
_cell_length_a                   9.4420(3)
_cell_length_b                   17.6271(5)
_cell_length_c                   14.8977(4)
_cell_angle_alpha                90
_cell_angle_beta                 96.085(3)
_cell_angle_gamma                90
_cell_volume                     2465.53
loop_
_atom_site_label
_atom_site_type_symbol
_atom_site_fract_x
_atom_site_fract_y
_atom_site_fract_z
Cd1 Cd 0.87039(3) 0.584283(15) 0.516996(17)
O1 O 0.7577(3) 0.55018(17) 0.37937(19)
O2 O 0.6899(3) 0.67424(19) 0.52996(19)
O3 O 0.8495(3) 0.66288(17) 0.64943(19)
O4 O 0.9245(3) 0.4630(2) 0.4052(2)
N1 N 0.9853(4) 0.1679(2) 0.0486(2)
N2 N 0.2453(4) 0.9923(2) 0.9092(2)
C1 C 0.8182(4) 0.4900(2) 0.3594(3)
C2 C 0.7533(5) 0.4477(3) 0.2776(3)
C3 C 0.8213(4) 0.3858(2) 0.2433(3)
H1 H 0.9109 0.3697 0.2720
C4 C 0.7601(5) 0.3471(3) 0.1673(3)
C5 C 0.6272(6) 0.3720(4) 0.1265(4)
H2 H 0.5827 0.3454 0.0756
C6 C 0.5605(7) 0.4338(4) 0.1587(5)
H3 H 0.4712 0.4501 0.1297
C7 C 0.6236(6) 0.4727(4) 0.2339(4)
H4 H 0.5785 0.5163 0.2555
C8 C 1.0005(6) 0.1803(3) 0.1385(3)
H5 H 1.0634 0.1486 0.1756
C9 C 0.9290(5) 0.2368(3) 0.1789(3)
H6 H 0.9435 0.2432 0.2425
C10 C 0.8360(5) 0.2841(3) 0.1273(3)
C11 C 0.8206(5) 0.2708(3) 0.0351(3)
H7 H 0.7588 0.3018 -0.0036
C12 C 0.8944(5) 0.2127(3) -0.0005(3)
H8 H 0.8795 0.2041 -0.0638
C13 C 0.7333(5) 0.6878(2) 0.6124(3)
C14 C 0.6414(4) 0.7362(2) 0.6654(3)
C15 C 0.5212(7) 0.7710(4) 0.6241(3)
H9 H 0.4937 0.7624 0.5617
C16 C 0.4397(7) 0.8184(4) 0.6722(4)
H10 H 0.3583 0.8425 0.6418
C17 C 0.4743(4) 0.8313(2) 0.7633(3)
C18 C 0.5939(5) 0.7942(3) 0.8046(3)
H11 H 0.6205 0.8012 0.8674
C19 C 0.6747(5) 0.7474(3) 0.7560(3)
H12 H 0.7553 0.7224 0.7861
C20 C 0.2202(5) 0.9850(3) 0.8189(3)
H13 H 0.1509 1.0171 0.7874
C21 C 0.2896(5) 0.9336(3) 0.7701(3)
H14 H 0.2687 0.9311 0.7063
C22 C 0.3912(4) 0.8848(2) 0.8140(3)
C23 C 0.4162(5) 0.8926(3) 0.9072(3)
H15 H 0.4841 0.8609 0.9406
C24 C 0.3433(5) 0.9456(3) 0.9510(3)
H16 H 0.3632 0.9496 1.0147
Cd1A Cd 0.12961(3) 1.084283(15) 0.983004(17)
Cd1A_2 Cd 1.12961(3) 0.084283(15) -0.016996(17)
Cd1B Cd 1.12961(3) 0.415717(15) 0.483004(17)
O4B O 1.0755(3) 0.5370(2) 0.5948(2)
N1A N 1.0147(4) 0.6679(2) 0.4514(2)
N2A N 0.7547(4) 0.4923(2) 0.5908(2)
O5 O 0.7811(5) 0.4686(3) -0.0525(3)
N3 N 0.8471(5) 0.5741(3) 0.0304(3)
C25 C 0.8270(7) 0.4998(3) 0.0179(4)
H17 H 0.8508 0.4680 0.0687
C26 C 0.9075(7) 0.6049(4) 0.1175(4)
H18 H 0.8387 0.6394 0.1408
H19 H 0.9952 0.6327 0.1096
H20 H 0.9291 0.5633 0.1604
C27 C 0.8167(8) 0.6271(4) -0.0431(5)
H21 H 0.9038 0.6547 -0.0531
H22 H 0.7439 0.6632 -0.0279
H23 H 0.7817 0.5995 -0.0981
loop_
_geom_bond_atom_site_label_1
_geom_bond_atom_site_label_2
_geom_bond_site_symmetry_1
_geom_bond_site_symmetry_2
Cd1 O1 1_555 1_555
O1 C1 1_555 1_555
O2 Cd1 1_555 1_555
O3 Cd1 1_555 1_555
O4 C1 1_555 1_555
N1 C8 1_555 1_555
N2 C20 1_555 1_555
C1 C2 1_555 1_555
C2 C3 1_555 1_555
C3 H1 1_555 1_555
C4 C3 1_555 1_555
C5 C4 1_555 1_555
H2 C5 1_555 1_555
C6 C5 1_555 1_555
H3 C6 1_555 1_555
C7 C2 1_555 1_555
H4 C7 1_555 1_555
C8 H5 1_555 1_555
C9 C8 1_555 1_555
H6 C9 1_555 1_555
C10 C4 1_555 1_555
C11 C10 1_555 1_555
H7 C11 1_555 1_555
C12 N1 1_555 1_555
H8 C12 1_555 1_555
C13 O2 1_555 1_555
C14 C13 1_555 1_555
C15 C14 1_555 1_555
H9 C15 1_555 1_555
C16 C15 1_555 1_555
H10 C16 1_555 1_555
C17 C16 1_555 1_555
C18 C17 1_555 1_555
H11 C18 1_555 1_555
C19 C14 1_555 1_555
H12 C19 1_555 1_555
C20 H13 1_555 1_555
C21 C20 1_555 1_555
H14 C21 1_555 1_555
C22 C17 1_555 1_555
C23 C22 1_555 1_555
H15 C23 1_555 1_555
C24 N2 1_555 1_555
H16 C24 1_555 1_555
O5 C25 1_555 1_555
N3 C25 1_555 1_555
C25 H17 1_555 1_555
C26 N3 1_555 1_555
H18 C26 1_555 1_555
H19 C26 1_555 1_555
H20 C26 1_555 1_555
C27 N3 1_555 1_555
H21 C27 1_555 1_555
H22 C27 1_555 1_555
H23 C27 1_555 1_555
Cd1A N2 1_555 1_555
Cd1A_2 N1 1_555 1_555
Cd1B O4 1_555 1_555
O4B Cd1 1_555 1_555
N1A Cd1 1_555 1_555
N2A Cd1 1_555 1_555
O3 C13 1_555 1_555
C6 C7 1_555 1_555
C9 C10 1_555 1_555
C11 C12 1_555 1_555
C18 C19 1_555 1_555
C21 C22 1_555 1_555
C23 C24 1_555 1_555

#END
