
#######################################################################
#
#                 Cambridge Crystallographic Data Centre
#                                CCDC 
#
#######################################################################
#
# If this CIF has been generated from an entry in the Cambridge 
# Structural Database, then it will include bibliographic, chemical, 
# crystal, experimental, refinement or atomic coordinate data resulting 
# from the CCDC's data processing and validation procedures.
#
#######################################################################

data_IHAFUU
_symmetry_cell_setting           monoclinic
_symmetry_space_group_name_H-M   'P 21/c'
_symmetry_Int_Tables_number      14
_space_group_name_Hall           '-P 2ybc'
loop_
_symmetry_equiv_pos_site_id
_symmetry_equiv_pos_as_xyz
1 x,y,z
2 -x,1/2+y,1/2-z
3 -x,-y,-z
4 x,1/2-y,1/2+z
_cell_length_a                   13.1419(5)
_cell_length_b                   15.7586(7)
_cell_length_c                   9.6553(4)
_cell_angle_alpha                90
_cell_angle_beta                 103.2051(9)
_cell_angle_gamma                90
_cell_volume                     1946.72
loop_
_atom_site_label
_atom_site_type_symbol
_atom_site_fract_x
_atom_site_fract_y
_atom_site_fract_z
P1 P -0.2112(6) 0.8470(5) -0.2249(7)
P2 P -0.1341(6) 1.0349(5) 0.2776(8)
P3 P -0.0930(5) 1.1795(5) -0.2207(7)
O1 O -0.190(1) 0.846(1) -0.378(1)
O2 O -0.161(1) 0.7654(9) -0.143(2)
O3 O -0.332(1) 0.845(1) -0.245(1)
O4 O -0.018(1) 1.237(1) -0.125(1)
O5 O -0.061(1) 1.157(1) -0.363(1)
O6 O -0.196(1) 1.2289(9) -0.263(1)
O7 O -0.214(1) 1.1021(8) 0.281(2)
O8 O -0.163(1) 0.9454(8) 0.330(2)
O9 O -0.027(1) 1.064(1) 0.350(1)
C1 C -0.151(1) 0.940(1) -0.125(1)
C2 C -0.138(2) 1.013(1) -0.200(2)
C3 C -0.120(1) 1.0891(8) -0.128(1)
C4 C -0.116(2) 1.094(1) 0.016(1)
C5 C -0.130(2) 1.0225(8) 0.091(1)
C6 C -0.147(2) 0.944(1) 0.022(1)
H1 H -0.097(5) 1.144(9) 0.06(2)
H2 H -0.159(2) 1.014(2) -0.299(2)
H3 H -0.160(3) 0.896(1) 0.073(2)
Nd1 Nd -0.0699(2) 0.8439(1) -0.5154(2)
O2C O -0.161(1) 0.7346(9) -0.643(2)
O4A O 0.018(1) 0.737(1) -0.375(1)
O5B O 0.061(1) 0.843(1) -0.637(1)
O8_2 O -0.163(1) 0.9454(8) -0.670(2)
O9B O 0.027(1) 0.936(1) -0.350(1)
Nd1_2 Nd -0.0699(2) 0.8439(1) 0.4846(2)
Nd1A Nd 0.0699(2) 1.3439(1) 0.0154(2)
Nd1B Nd 0.0699(2) 1.1561(1) -0.4846(2)
Nd1B_2 Nd 0.0699(2) 1.1561(1) 0.5154(2)
Nd1C Nd -0.0699(2) 0.6561(1) -0.0154(2)
N1 N -0.578(2) 0.130(1) 1.013(2)
N2 N -0.335(2) 0.089(1) 0.434(2)
C7 C -0.474(2) 0.102(1) 1.031(2)
C8 C -0.431(2) 0.097(2) 0.911(2)
C9 C -0.490(1) 0.120(1) 0.774(1)
C10 C -0.594(2) 0.147(1) 0.760(2)
C11 C -0.637(1) 0.151(1) 0.880(2)
C12 C -0.343(1) 0.0227(8) 0.528(2)
C13 C -0.397(2) 0.0330(9) 0.635(2)
C14 C -0.446(1) 0.1087(8) 0.650(2)
C15 C -0.441(1) 0.1758(9) 0.555(2)
C16 C -0.384(2) 0.165(1) 0.448(2)
H4 H -0.395(6) 0.203(4) 0.372(7)
H5 H -0.48(1) 0.21(1) 0.548(5)
H6 H -0.322(9) -0.032(3) 0.51(1)
H7 H -0.41(1) -0.015(4) 0.685(9)
H8 H -0.639(6) 0.15(2) 0.670(3)
H9 H -0.712(3) 0.152(4) 0.865(4)
H10 H -0.363(8) 0.08(1) 0.921(8)
H11 H -0.431(3) 0.09(1) 1.121(2)
loop_
_geom_bond_atom_site_label_1
_geom_bond_atom_site_label_2
_geom_bond_site_symmetry_1
_geom_bond_site_symmetry_2
P1 O1 1_555 1_555
P2 O7 1_555 1_555
P3 O4 1_555 1_555
O1 Nd1 1_555 1_555
O2 P1 1_555 1_555
O3 P1 1_555 1_555
O4 Nd1A 1_555 1_555
O5 P3 1_555 1_555
O6 P3 1_555 1_555
O8 P2 1_555 1_555
O9 P2 1_555 1_555
C1 P1 1_555 1_555
C2 C1 1_555 1_555
C3 P3 1_555 1_555
C4 C3 1_555 1_555
C5 P2 1_555 1_555
C6 C1 1_555 1_555
H1 C4 1_555 1_555
H2 C2 1_555 1_555
H3 C6 1_555 1_555
Nd1 O2C 1_555 1_555
N1 C7 1_555 1_555
N2 C12 1_555 1_555
C7 C8 1_555 1_555
C8 C9 1_555 1_555
C9 C10 1_555 1_555
C10 C11 1_555 1_555
C11 N1 1_555 1_555
C12 C13 1_555 1_555
C13 C14 1_555 1_555
C14 C9 1_555 1_555
C15 C14 1_555 1_555
C16 N2 1_555 1_555
H4 C16 1_555 1_555
H5 C15 1_555 1_555
H6 C12 1_555 1_555
H7 C13 1_555 1_555
H8 C10 1_555 1_555
H9 C11 1_555 1_555
H10 C8 1_555 1_555
H11 C7 1_555 1_555
O4A Nd1 1_555 1_555
O5B Nd1 1_555 1_555
O8_2 Nd1 1_555 1_555
O9B Nd1 1_555 1_555
Nd1_2 O8 1_555 1_555
Nd1B O5 1_555 1_555
Nd1B_2 O9 1_555 1_555
Nd1C O2 1_555 1_555
C2 C3 1_555 1_555
C4 C5 1_555 1_555
C5 C6 1_555 1_555
C15 C16 1_555 1_555

#END
