
#######################################################################
#
#                 Cambridge Crystallographic Data Centre
#                                CCDC 
#
#######################################################################
#
# If this CIF has been generated from an entry in the Cambridge 
# Structural Database, then it will include bibliographic, chemical, 
# crystal, experimental, refinement or atomic coordinate data resulting 
# from the CCDC's data processing and validation procedures.
#
#######################################################################

data_IHAGAB
_symmetry_cell_setting           hexagonal
_symmetry_space_group_name_H-M   'P 63/m'
_symmetry_Int_Tables_number      176
_space_group_name_Hall           '-P 6c'
loop_
_symmetry_equiv_pos_site_id
_symmetry_equiv_pos_as_xyz
1 x,y,z
2 -y,x-y,z
3 -x+y,-x,z
4 -x,-y,1/2+z
5 y,-x+y,1/2+z
6 x-y,x,1/2+z
7 -x,-y,-z
8 y,-x+y,-z
9 x-y,x,-z
10 x,y,1/2-z
11 -y,x-y,1/2-z
12 -x+y,-x,1/2-z
_cell_length_a                   9.5413(2)
_cell_length_b                   9.5413(2)
_cell_length_c                   22.2181(5)
_cell_angle_alpha                90
_cell_angle_beta                 90
_cell_angle_gamma                120
_cell_volume                     1751.67
loop_
_atom_site_label
_atom_site_type_symbol
_atom_site_fract_x
_atom_site_fract_y
_atom_site_fract_z
Ce1 Ce 0.66666 0.33333 0.51206(4)
P1 P 0.6586(4) -0.0163(4) 0.5903(1)
O1 O 0.5991(5) -0.0762(8) 0.6558(2)
O2 O 0.5422(7) -0.1412(11) 0.5464(3)
O3 O 0.6769(8) 0.1495(11) 0.5825(3)
C1 C 0.9945(6) 0.1431(4) 0.5867(5)
C2 C 0.8508(5) -0.0051(4) 0.5830(4)
H1 H 0.9925(13) 0.2315(9) 0.605(1)
P1A P 1.0163(4) -0.3251(6) 0.5903(1)
C1A C 0.8569(4) -0.1486(7) 0.5867(5)
C2A C 1.0051(4) -0.1441(6) 0.5830(4)
O1A O 1.0762(8) -0.3247(9) 0.6558(2)
O2A O 1.1412(11) -0.3166(13) 0.5464(3)
O3A O 0.8505(11) -0.4726(14) 0.5825(3)
H1A H 0.7685(9) -0.2390(16) 0.605(1)
P1B P 1.3251(6) 0.3414(4) 0.5903(1)
C1B C 1.1486(7) 0.0055(6) 0.5867(5)
C2B C 1.1441(6) 0.1492(5) 0.5830(4)
O1B O 1.3247(9) 0.4009(5) 0.6558(2)
O2B O 1.3166(13) 0.4578(7) 0.5464(3)
O3B O 1.4726(14) 0.3231(8) 0.5825(3)
H1B H 1.2390(16) 0.0075(13) 0.605(1)
Ce1_2 Ce 0.66666 -0.66667 0.51206(4)
Ce1_3 Ce 1.66666 0.33333 0.51206(4)
Ce1F Ce 0.33334 -0.33333 0.48794(4)
Ce1F_2 Ce 1.33334 -0.33333 0.48794(4)
Ce1F_3 Ce 1.33334 0.66667 0.48794(4)
O2F O 0.4578(7) 0.1412(11) 0.4536(3)
O2G O 0.8588(11) 0.3166(13) 0.4536(3)
O2H O 0.6834(13) 0.5422(7) 0.4536(3)
O3A_2 O 0.8505(11) 0.5274(14) 0.5825(3)
O3B_2 O 0.4726(14) 0.3231(8) 0.5825(3)
N1 N 0.66667 0.33333 0.6926(4)
C3 C 0.5101(6) 0.1912(7) 0.7139(2)
C3A C 0.8088(7) 0.3189(9) 0.7139(2)
C3B C 0.6811(9) 0.4899(6) 0.7139(2)
N1I N 0.66667 0.33333 0.8074(4)
C3I C 0.5101(6) 0.1912(7) 0.7861(2)
C3J C 0.8088(7) 0.3189(9) 0.7861(2)
C3K C 0.6811(9) 0.4899(6) 0.7861(2)
O4 O 0.087(1) -0.132(1) 0.750
O5 O 0.33333 0.66667 0.6837(3)
loop_
_geom_bond_atom_site_label_1
_geom_bond_atom_site_label_2
_geom_bond_site_symmetry_1
_geom_bond_site_symmetry_2
Ce1 O3 1_555 1_555
P1 O1 1_555 1_555
O2 P1 1_555 1_555
O3 P1 1_555 1_555
C1 C2 1_555 1_555
C2 P1 1_555 1_555
H1 C1 1_555 1_555
N1 C3 1_555 1_555
C3 C3I 1_555 1_555
P1A C2A 1_555 1_555
C1A C2 1_555 1_555
C2A C1A 1_555 1_555
O1A P1A 1_555 1_555
O2A P1A 1_555 1_555
O3A P1A 1_555 1_555
H1A C1A 1_555 1_555
P1B C2B 1_555 1_555
C1B C2A 1_555 1_555
C2B C1 1_555 1_555
O1B P1B 1_555 1_555
O2B P1B 1_555 1_555
O3B P1B 1_555 1_555
H1B C1B 1_555 1_555
Ce1_2 O3A 1_555 1_555
Ce1_3 O3B 1_555 1_555
Ce1F O2 1_555 1_555
Ce1F_2 O2A 1_555 1_555
Ce1F_3 O2B 1_555 1_555
O2F Ce1 1_555 1_555
O2G Ce1 1_555 1_555
O2H Ce1 1_555 1_555
O3A_2 Ce1 1_555 1_555
O3B_2 Ce1 1_555 1_555
C3A N1 1_555 1_555
C3B N1 1_555 1_555
N1I C3I 1_555 1_555
C3J C3A 1_555 1_555
C3K C3B 1_555 1_555
C1B C2B 1_555 1_555
N1I C3J 1_555 1_555
N1I C3K 1_555 1_555

#END
