
#######################################################################
#
#                 Cambridge Crystallographic Data Centre
#                                CCDC 
#
#######################################################################
#
# If this CIF has been generated from an entry in the Cambridge 
# Structural Database, then it will include bibliographic, chemical, 
# crystal, experimental, refinement or atomic coordinate data resulting 
# from the CCDC's data processing and validation procedures.
#
#######################################################################

data_IHAGEF
_symmetry_cell_setting           hexagonal
_symmetry_space_group_name_H-M   'P 63/m'
_symmetry_Int_Tables_number      176
_space_group_name_Hall           '-P 6c'
loop_
_symmetry_equiv_pos_site_id
_symmetry_equiv_pos_as_xyz
1 x,y,z
2 -y,x-y,z
3 -x+y,-x,z
4 -x,-y,1/2+z
5 y,-x+y,1/2+z
6 x-y,x,1/2+z
7 -x,-y,-z
8 y,-x+y,-z
9 x-y,x,-z
10 x,y,1/2-z
11 -y,x-y,1/2-z
12 -x+y,-x,1/2-z
_cell_length_a                   9.5233(3)
_cell_length_b                   9.5233(3)
_cell_length_c                   22.1567(6)
_cell_angle_alpha                90
_cell_angle_beta                 90
_cell_angle_gamma                120
_cell_volume                     1740.25
loop_
_atom_site_label
_atom_site_type_symbol
_atom_site_fract_x
_atom_site_fract_y
_atom_site_fract_z
Pr1 Pr 0.66666 0.33333 0.51203(5)
P1 P 0.6583(4) -0.0161(5) 0.5900(1)
O1 O 0.5999(6) -0.0751(10) 0.6559(2)
O2 O 0.5423(8) -0.1426(12) 0.5461(3)
O3 O 0.6764(9) 0.1512(12) 0.5811(3)
C1 C 0.995(1) 0.1435(9) 0.5862(7)
C2 C 0.849(1) -0.0055(9) 0.5823(6)
H1 H 0.991(2) 0.232(1) 0.603(2)
P1A P 1.0161(5) -0.3256(6) 0.5900(1)
C1A C 0.8565(9) -0.1485(13) 0.5862(7)
C2A C 1.0055(9) -0.1455(13) 0.5823(6)
O1A O 1.0751(10) -0.3250(12) 0.6559(2)
O2A O 1.1426(12) -0.3151(14) 0.5461(3)
O3A O 0.8488(12) -0.4748(15) 0.5811(3)
H1A H 0.768(1) -0.241(2) 0.603(2)
P1B P 1.3256(6) 0.3417(4) 0.5900(1)
C1B C 1.1485(13) 0.005(1) 0.5862(7)
C2B C 1.1455(13) 0.151(1) 0.5823(6)
O1B O 1.3250(12) 0.4001(6) 0.6559(2)
O2B O 1.3151(14) 0.4577(8) 0.5461(3)
O3B O 1.4748(15) 0.3236(9) 0.5811(3)
H1B H 1.241(2) 0.009(2) 0.603(2)
Pr1_2 Pr 0.66666 -0.66667 0.51203(5)
Pr1_3 Pr 1.66666 0.33333 0.51203(5)
Pr1F Pr 0.33334 -0.33333 0.48797(5)
Pr1F_2 Pr 1.33334 -0.33333 0.48797(5)
Pr1F_3 Pr 1.33334 0.66667 0.48797(5)
O2F O 0.4577(8) 0.1426(12) 0.4539(3)
O2G O 0.8574(12) 0.3151(14) 0.4539(3)
O2H O 0.6849(14) 0.5423(8) 0.4539(3)
O3A_2 O 0.8488(12) 0.5252(15) 0.5811(3)
O3B_2 O 0.4748(15) 0.3236(9) 0.5811(3)
N1 N 0.66667 0.33333 0.6920(5)
C3 C 0.5098(7) 0.1915(8) 0.7136(2)
C3A C 0.8085(8) 0.3183(11) 0.7136(2)
C3B C 0.6817(11) 0.4902(7) 0.7136(2)
N1I N 0.66667 0.33333 0.8080(5)
C3I C 0.5098(7) 0.1915(8) 0.7864(2)
C3J C 0.8085(8) 0.3183(11) 0.7864(2)
C3K C 0.6817(11) 0.4902(7) 0.7864(2)
O4 O 0.085(1) 0.869(1) 0.750
O5 O 0.33333 0.66666 0.6835(4)
loop_
_geom_bond_atom_site_label_1
_geom_bond_atom_site_label_2
_geom_bond_site_symmetry_1
_geom_bond_site_symmetry_2
Pr1 O3 1_555 1_555
P1 O1 1_555 1_555
O2 P1 1_555 1_555
O3 P1 1_555 1_555
C1 C2 1_555 1_555
C2 P1 1_555 1_555
H1 C1 1_555 1_555
N1 C3 1_555 1_555
C3 C3I 1_555 1_555
P1A C2A 1_555 1_555
C1A C2 1_555 1_555
C2A C1A 1_555 1_555
O1A P1A 1_555 1_555
O2A P1A 1_555 1_555
O3A P1A 1_555 1_555
H1A C1A 1_555 1_555
P1B C2B 1_555 1_555
C1B C2A 1_555 1_555
C2B C1 1_555 1_555
O1B P1B 1_555 1_555
O2B P1B 1_555 1_555
O3B P1B 1_555 1_555
H1B C1B 1_555 1_555
Pr1_2 O3A 1_555 1_555
Pr1_3 O3B 1_555 1_555
Pr1F O2 1_555 1_555
Pr1F_2 O2A 1_555 1_555
Pr1F_3 O2B 1_555 1_555
O2F Pr1 1_555 1_555
O2G Pr1 1_555 1_555
O2H Pr1 1_555 1_555
O3A_2 Pr1 1_555 1_555
O3B_2 Pr1 1_555 1_555
C3A N1 1_555 1_555
C3B N1 1_555 1_555
N1I C3I 1_555 1_555
C3J C3A 1_555 1_555
C3K C3B 1_555 1_555
C1B C2B 1_555 1_555
N1I C3J 1_555 1_555
N1I C3K 1_555 1_555

#END
