
#######################################################################
#
#                 Cambridge Crystallographic Data Centre
#                                CCDC 
#
#######################################################################
#
# If this CIF has been generated from an entry in the Cambridge 
# Structural Database, then it will include bibliographic, chemical, 
# crystal, experimental, refinement or atomic coordinate data resulting 
# from the CCDC's data processing and validation procedures.
#
#######################################################################

data_IHAGOP
_symmetry_cell_setting           monoclinic
_symmetry_space_group_name_H-M   'P 21/m'
_symmetry_Int_Tables_number      11
_space_group_name_Hall           '-P 2yb'
loop_
_symmetry_equiv_pos_site_id
_symmetry_equiv_pos_as_xyz
1 x,y,z
2 -x,1/2+y,-z
3 -x,-y,-z
4 x,1/2-y,z
_cell_length_a                   9.0875(8)
_cell_length_b                   23.354(2)
_cell_length_c                   8.7980(5)
_cell_angle_alpha                90
_cell_angle_beta                 118.894(3)
_cell_angle_gamma                90
_cell_volume                     1634.76
loop_
_atom_site_label
_atom_site_type_symbol
_atom_site_fract_x
_atom_site_fract_y
_atom_site_fract_z
P1 P 1.360(1) 0.4120(5) 0.318(1)
P2 P 0.942(2) 0.4125(4) -0.387(1)
P3 P 0.669(1) 0.4049(4) 0.053(1)
O1 O 1.442(2) 0.4659(5) 0.299(2)
O2 O 1.353(3) 0.4086(8) 0.491(2)
O3 O 1.469(2) 0.3612(5) 0.315(2)
O4 O 0.826(2) 0.4616(8) -0.481(2)
O5 O 1.114(2) 0.4182(9) -0.374(2)
O6 O 0.866(2) 0.3557(7) -0.486(2)
O7 O 0.660(2) 0.4662(5) 0.103(2)
O8 O 0.513(2) 0.3956(9) -0.128(1)
O9 O 0.676(2) 0.3641(7) 0.191(1)
C1 C 1.155(1) 0.4040(7) 0.137(3)
C2 C 0.971(5) 0.404(1) -0.175(2)
C3 C 0.854(2) 0.401(1) 0.023(2)
C4 C 1.131(4) 0.406(1) -0.032(4)
C5 C 1.016(5) 0.402(2) 0.166(3)
C6 C 0.833(3) 0.402(2) -0.146(2)
H1 H 1.22(2) 0.411(2) -0.05(3)
H2 H 1.033(4) 0.405(3) 0.280(4)
H3 H 0.725(3) 0.40(1) -0.241(6)
Pr1 Pr 1.6504(3) 0.52326(9) 0.3146(4)
O2B O 1.647(3) 0.5914(8) 0.509(2)
O4_2 O 1.826(2) 0.4616(8) 0.519(2)
O5B O 1.886(2) 0.5818(9) 0.374(2)
O7_2 O 1.660(2) 0.4662(5) 0.103(2)
O8B O 1.487(2) 0.6044(9) 0.128(1)
Pr1_2 Pr 0.6504(3) 0.52326(9) -0.6854(4)
Pr1_3 Pr 0.6504(3) 0.52326(9) 0.3146(4)
Pr1B Pr 0.3496(3) 0.47674(9) -0.3146(4)
Pr1B_2 Pr 1.3496(3) 0.47674(9) -0.3146(4)
Pr1B_3 Pr 1.3496(3) 0.47674(9) 0.6854(4)
N1 N 0.660(1) -0.1911(4) 0.339(2)
C7 C 0.494(2) -0.2160(3) 0.311(3)
C8 C 0.795(2) -0.2160(3) 0.507(2)
C9 C 0.689(2) -0.2160(3) 0.198(2)
N1C N 0.660(1) -0.3089(4) 0.339(2)
C7C C 0.494(2) -0.2840(3) 0.311(3)
C8C C 0.795(2) -0.2840(3) 0.507(2)
C9C C 0.689(2) -0.2840(3) 0.198(2)
loop_
_geom_bond_atom_site_label_1
_geom_bond_atom_site_label_2
_geom_bond_site_symmetry_1
_geom_bond_site_symmetry_2
P1 O1 1_555 1_555
P2 O4 1_555 1_555
P3 O7 1_555 1_555
O1 Pr1 1_555 1_555
O2 P1 1_555 1_555
O3 P1 1_555 1_555
O4 Pr1_2 1_555 1_555
O5 P2 1_555 1_555
O6 P2 1_555 1_555
O7 Pr1_3 1_555 1_555
O8 P3 1_555 1_555
O9 P3 1_555 1_555
C1 P1 1_555 1_555
C2 P2 1_555 1_555
C3 P3 1_555 1_555
C4 C1 1_555 1_555
C5 C1 1_555 1_555
C6 C2 1_555 1_555
H1 C4 1_555 1_555
H2 C5 1_555 1_555
H3 C6 1_555 1_555
Pr1 O2B 1_555 1_555
N1 C7 1_555 1_555
C7 C7C 1_555 1_555
C8 N1 1_555 1_555
C9 N1 1_555 1_555
O4_2 Pr1 1_555 1_555
O5B Pr1 1_555 1_555
O7_2 Pr1 1_555 1_555
O8B Pr1 1_555 1_555
Pr1B O8 1_555 1_555
Pr1B_2 O5 1_555 1_555
Pr1B_3 O2 1_555 1_555
N1C C7C 1_555 1_555
C8C C8 1_555 1_555
C9C C9 1_555 1_555
C2 C4 1_555 1_555
C3 C5 1_555 1_555
C3 C6 1_555 1_555
N1C C8C 1_555 1_555
N1C C9C 1_555 1_555

#END
