
#######################################################################
#
#                 Cambridge Crystallographic Data Centre
#                                CCDC 
#
#######################################################################
#
# If this CIF has been generated from an entry in the Cambridge 
# Structural Database, then it will include bibliographic, chemical, 
# crystal, experimental, refinement or atomic coordinate data resulting 
# from the CCDC's data processing and validation procedures.
#
#######################################################################

data_IHAGOO
_symmetry_cell_setting           triclinic
_symmetry_space_group_name_H-M   'P -1'
_symmetry_Int_Tables_number      2
_space_group_name_Hall           '-P 1'
loop_
_symmetry_equiv_pos_site_id
_symmetry_equiv_pos_as_xyz
1 x,y,z
2 -x,-y,-z
_cell_length_a                   9.0392(11)
_cell_length_b                   9.6027(11)
_cell_length_c                   15.5540(18)
_cell_angle_alpha                73.558(2)
_cell_angle_beta                 86.126(2)
_cell_angle_gamma                68.745(2)
_cell_volume                     1205.88
loop_
_atom_site_label
_atom_site_type_symbol
_atom_site_fract_x
_atom_site_fract_y
_atom_site_fract_z
Fe1 Fe 0.57368(7) 0.94173(8) 0.66653(4)
O1 O 0.5930(4) 1.0649(5) 0.7636(2)
O2 O 0.7551(5) 1.1327(6) 0.8310(3)
O3 O 1.3196(4) 1.0083(5) 0.7137(2)
O4 O 1.3871(4) 0.8662(5) 0.6198(2)
O5 O 0.9374(4) 0.7428(4) 0.4993(2)
O6 O 0.7073(4) 0.8175(4) 0.5678(2)
O7 O 0.4968(4) 1.1584(4) 0.5646(2)
H1 H 0.443(5) 1.162(6) 0.522(2)
H2 H 0.565(5) 1.201(6) 0.547(3)
O8 O 0.6293(5) 0.7423(6) 0.7735(3)
H3 H 0.718(3) 0.704(7) 0.802(3)
H4 H 0.567(5) 0.698(6) 0.801(3)
N1 N 0.8129(4) 0.9390(4) 0.6650(2)
C1 C 0.8570(5) 1.0043(5) 0.7196(3)
C2 C 1.0092(5) 1.0047(6) 0.7219(3)
H15 H 1.0371 1.0507 0.7603
C3 C 1.1200(5) 0.9355(5) 0.6662(3)
C4 C 1.0737(5) 0.8701(5) 0.6093(3)
H16 H 1.1452 0.8244 0.5706
C5 C 0.9180(5) 0.8737(5) 0.6111(3)
C6 C 0.7259(5) 1.0742(6) 0.7771(3)
C7 C 1.2873(5) 0.9365(6) 0.6664(3)
C8 C 0.8507(5) 0.8053(5) 0.5538(3)
Fe1_2 Fe 1.57368(7) 0.94173(8) 0.66653(4)
O3_2 O 0.3196(4) 1.0083(5) 0.7137(2)
O4_2 O 0.3871(4) 0.8662(5) 0.6198(2)
O9 O 0.7148(8) 1.3196(7) 0.5397(5)
H5 H 0.658(8) 1.388(8) 0.565(6)
H6 H 0.801(5) 1.334(9) 0.524(6)
O10 O 0.4836(7) 0.5478(9) 0.8350(5)
H7 H 0.384(3) 0.560(11) 0.826(6)
H8 H 0.473(11) 0.591(10) 0.890(5)
O11 O 0.5852(10) 1.5165(8) 0.6483(5)
H9 H 0.544(13) 1.549(9) 0.595(3)
H10 H 0.563(12) 1.592(7) 0.671(5)
O12 O 0.6961(8) 0.3124(10) 0.9453(5)
H11 H 0.739(11) 0.311(13) 0.993(3)
H12 H 0.748(12) 0.342(14) 0.900(4)
N2 N 0.6234(6) 0.8856(6) 1.1140(3)
H13 H 0.556(7) 0.919(8) 1.155(3)
N3 N 1.0946(5) 0.7028(5) 0.9275(3)
N4 N 1.1633(5) 0.6280(5) 0.8650(3)
N5 N 0.9118(5) 0.6407(5) 0.8726(3)
N6 N 1.1233(7) 0.3662(6) 0.6318(3)
H14 H 1.134(8) 0.324(7) 0.586(3)
C9 C 0.5883(7) 0.8046(8) 1.0679(4)
H17 H 0.4936 0.7860 1.0773
C10 C 0.6896(6) 0.7483(7) 1.0068(4)
H18 H 0.6637 0.6916 0.9746
C11 C 0.8303(6) 0.7748(6) 0.9923(3)
C12 C 0.8621(7) 0.8619(7) 1.0404(4)
H19 H 0.9551 0.8838 1.0316
C13 C 0.7557(8) 0.9164(8) 1.1013(4)
H20 H 0.7769 0.9752 1.1338
C14 C 0.9441(5) 0.7077(6) 0.9298(3)
C15 C 1.0515(6) 0.5930(6) 0.8340(3)
C16 C 1.0789(6) 0.5103(6) 0.7643(3)
C17 C 0.9636(7) 0.4643(7) 0.7416(4)
H21 H 0.8693 0.4804 0.7719
C18 C 0.9891(9) 0.3938(8) 0.6730(5)
H22 H 0.9098 0.3655 0.6560
C19 C 1.2397(8) 0.4038(7) 0.6543(4)
H23 H 1.3353 0.3797 0.6252
C20 C 1.2203(7) 0.4782(7) 0.7204(4)
H24 H 1.3013 0.5065 0.7352
loop_
_geom_bond_atom_site_label_1
_geom_bond_atom_site_label_2
_geom_bond_site_symmetry_1
_geom_bond_site_symmetry_2
Fe1 O1 1_555 1_555
O1 C6 1_555 1_555
O2 C6 1_555 1_555
O3 C7 1_555 1_555
O4 C7 1_555 1_555
O5 C8 1_555 1_555
O6 Fe1 1_555 1_555
O7 Fe1 1_555 1_555
H1 O7 1_555 1_555
H2 O7 1_555 1_555
O8 Fe1 1_555 1_555
H3 O8 1_555 1_555
H4 O8 1_555 1_555
O9 H5 1_555 1_555
H6 O9 1_555 1_555
O10 H7 1_555 1_555
H8 O10 1_555 1_555
O11 H9 1_555 1_555
H10 O11 1_555 1_555
O12 H11 1_555 1_555
H12 O12 1_555 1_555
N1 Fe1 1_555 1_555
N2 H13 1_555 1_555
N3 N4 1_555 1_555
N4 C15 1_555 1_555
N5 C14 1_555 1_555
N6 H14 1_555 1_555
C1 N1 1_555 1_555
C2 C1 1_555 1_555
H15 C2 1_555 1_555
C3 C2 1_555 1_555
C4 C3 1_555 1_555
H16 C4 1_555 1_555
C5 N1 1_555 1_555
C6 C1 1_555 1_555
C7 C3 1_555 1_555
C8 O6 1_555 1_555
C9 N2 1_555 1_555
H17 C9 1_555 1_555
C10 C9 1_555 1_555
H18 C10 1_555 1_555
C11 C10 1_555 1_555
C12 C11 1_555 1_555
H19 C12 1_555 1_555
C13 N2 1_555 1_555
H20 C13 1_555 1_555
C14 N3 1_555 1_555
C15 N5 1_555 1_555
C16 C15 1_555 1_555
C17 C16 1_555 1_555
H21 C17 1_555 1_555
C18 N6 1_555 1_555
H22 C18 1_555 1_555
C19 N6 1_555 1_555
H23 C19 1_555 1_555
C20 C16 1_555 1_555
H24 C20 1_555 1_555
Fe1_2 O3 1_555 1_555
O3_2 Fe1 1_555 1_555
O4_2 Fe1 1_555 1_555
O4 Fe1_2 1_555 1_555
C4 C5 1_555 1_555
C5 C8 1_555 1_555
C11 C14 1_555 1_555
C12 C13 1_555 1_555
C17 C18 1_555 1_555
C19 C20 1_555 1_555

#END
