
#######################################################################
#
#                 Cambridge Crystallographic Data Centre
#                                CCDC 
#
#######################################################################
#
# If this CIF has been generated from an entry in the Cambridge 
# Structural Database, then it will include bibliographic, chemical, 
# crystal, experimental, refinement or atomic coordinate data resulting 
# from the CCDC's data processing and validation procedures.
#
#######################################################################

data_IHAGIJ
_symmetry_cell_setting           monoclinic
_symmetry_space_group_name_H-M   'P 21/m'
_symmetry_Int_Tables_number      11
_space_group_name_Hall           '-P 2yb'
loop_
_symmetry_equiv_pos_site_id
_symmetry_equiv_pos_as_xyz
1 x,y,z
2 -x,1/2+y,-z
3 -x,-y,-z
4 x,1/2-y,z
_cell_length_a                   9.086(1)
_cell_length_b                   23.459(3)
_cell_length_c                   8.7835(8)
_cell_angle_alpha                90
_cell_angle_beta                 118.927(4)
_cell_angle_gamma                90
_cell_volume                     1638.61
loop_
_atom_site_label
_atom_site_type_symbol
_atom_site_fract_x
_atom_site_fract_y
_atom_site_fract_z
P1 P 1.359(1) 0.4095(6) 0.320(1)
P2 P 0.943(1) 0.4112(4) -0.390(1)
P3 P 0.665(1) 0.4059(5) 0.052(2)
O1 O 1.442(3) 0.4590(5) 0.305(3)
O2 O 1.352(4) 0.4075(9) 0.492(3)
O3 O 1.462(2) 0.3581(6) 0.316(3)
O4 O 0.838(3) 0.4637(7) -0.474(3)
O5 O 1.115(2) 0.414(1) -0.369(2)
O6 O 0.862(2) 0.3559(7) -0.491(3)
O7 O 0.652(3) 0.4676(5) 0.096(2)
O8 O 0.508(2) 0.395(1) -0.127(2)
O9 O 0.677(3) 0.3654(7) 0.192(2)
C1 C 1.149(1) 0.404(3) 0.135(2)
C2 C 0.968(3) 0.405(2) -0.177(2)
C3 C 0.845(2) 0.402(1) 0.016(2)
C4 C 1.129(3) 0.406(3) -0.034(2)
C5 C 1.007(2) 0.403(3) 0.157(2)
C6 C 0.825(2) 0.404(2) -0.156(2)
H1 H 1.223(2) 0.411(7) -0.048(4)
H2 H 1.02(2) 0.40(2) 0.27(4)
H3 H 0.72(2) 0.41(1) -0.25(2)
Ce1 Ce 1.6481(4) 0.5228(1) 0.3109(5)
O2B O 1.648(4) 0.5925(9) 0.508(3)
O4_2 O 1.838(3) 0.4637(7) 0.526(3)
O5B O 1.885(2) 0.586(1) 0.369(2)
O7_2 O 1.652(3) 0.4676(5) 0.096(2)
O8B O 1.492(2) 0.605(1) 0.127(2)
Ce1_2 Ce 0.6481(4) 0.5228(1) -0.6891(5)
Ce1_3 Ce 0.6481(4) 0.5228(1) 0.3109(5)
Ce1B Ce 0.3519(4) 0.4772(1) -0.3109(5)
Ce1B_2 Ce 1.3519(4) 0.4772(1) -0.3109(5)
Ce1B_3 Ce 1.3519(4) 0.4772(1) 0.6891(5)
N1 N 0.661(2) -0.1930(6) 0.338(3)
C7 C 0.497(2) -0.2164(3) 0.314(3)
C8 C 0.804(3) -0.2163(3) 0.502(3)
C9 C 0.683(3) -0.2164(3) 0.192(3)
N1C N 0.661(2) -0.3070(6) 0.338(3)
C7C C 0.497(2) -0.2836(3) 0.314(3)
C8C C 0.804(3) -0.2837(3) 0.502(3)
C9C C 0.683(3) -0.2836(3) 0.192(3)
loop_
_geom_bond_atom_site_label_1
_geom_bond_atom_site_label_2
_geom_bond_site_symmetry_1
_geom_bond_site_symmetry_2
P1 O1 1_555 1_555
P2 O4 1_555 1_555
P3 O7 1_555 1_555
O1 Ce1 1_555 1_555
O2 P1 1_555 1_555
O3 P1 1_555 1_555
O4 Ce1_2 1_555 1_555
O5 P2 1_555 1_555
O6 P2 1_555 1_555
O7 Ce1_3 1_555 1_555
O8 P3 1_555 1_555
O9 P3 1_555 1_555
C1 P1 1_555 1_555
C2 P2 1_555 1_555
C3 P3 1_555 1_555
C4 C1 1_555 1_555
C5 C1 1_555 1_555
C6 C2 1_555 1_555
H1 C4 1_555 1_555
H2 C5 1_555 1_555
H3 C6 1_555 1_555
Ce1 O2B 1_555 1_555
N1 C7 1_555 1_555
C7 C7C 1_555 1_555
C8 N1 1_555 1_555
C9 N1 1_555 1_555
O4_2 Ce1 1_555 1_555
O5B Ce1 1_555 1_555
O7_2 Ce1 1_555 1_555
O8B Ce1 1_555 1_555
Ce1B O8 1_555 1_555
Ce1B_2 O5 1_555 1_555
Ce1B_3 O2 1_555 1_555
N1C C7C 1_555 1_555
C8C C8 1_555 1_555
C9C C9 1_555 1_555
C2 C4 1_555 1_555
C3 C5 1_555 1_555
C3 C6 1_555 1_555
N1C C8C 1_555 1_555
N1C C9C 1_555 1_555

#END
