
#######################################################################
#
#                 Cambridge Crystallographic Data Centre
#                                CCDC 
#
#######################################################################
#
# If this CIF has been generated from an entry in the Cambridge 
# Structural Database, then it will include bibliographic, chemical, 
# crystal, experimental, refinement or atomic coordinate data resulting 
# from the CCDC's data processing and validation procedures.
#
#######################################################################

data_IHAMUA
_symmetry_cell_setting           monoclinic
_symmetry_space_group_name_H-M   'C 2/c'
_symmetry_Int_Tables_number      15
_space_group_name_Hall           '-C 2yn'
loop_
_symmetry_equiv_pos_site_id
_symmetry_equiv_pos_as_xyz
1 x,y,z
2 -x,y,1/2-z
3 1/2+x,1/2+y,z
4 1/2-x,1/2+y,1/2-z
5 -x,-y,-z
6 x,-y,1/2+z
7 1/2-x,1/2-y,-z
8 1/2+x,1/2-y,1/2+z
_cell_length_a                   24.871(9)
_cell_length_b                   9.205(5)
_cell_length_c                   16.612(4)
_cell_angle_alpha                90
_cell_angle_beta                 130.469(17)
_cell_angle_gamma                90
_cell_volume                     2893.24
loop_
_atom_site_label
_atom_site_type_symbol
_atom_site_fract_x
_atom_site_fract_y
_atom_site_fract_z
Cu1 Cu 0.2500 -0.2500 0.5000
Fe1 Fe 0.0000 0.0000 0.0000
Cl1 Cl 0.33189(8) -0.17557(14) 0.49115(11)
S1 S 0.12821(9) -0.09230(15) 0.25561(11)
S2 S 0.13385(8) 0.18203(14) 0.36607(11)
N1 N 0.2084(2) -0.0491(4) 0.4651(3)
C1 C 0.0737(3) 0.0394(5) 0.1564(4)
C2 C 0.0914(3) 0.1163(6) 0.1009(4)
H1 H 0.1325 0.1060 0.1105
C3 C 0.0340(4) 0.2115(6) 0.0291(4)
H2 H 0.0308 0.2746 -0.0176
C4 C -0.0169(4) 0.1933(7) 0.0400(5)
H3 H -0.0596 0.2430 0.0024
C5 C 0.0070(3) 0.0890(7) 0.1173(4)
H4 H -0.0169 0.0564 0.1396
C6 C 0.2246(3) 0.0462(5) 0.5445(4)
C7 C 0.2698(3) 0.0181(5) 0.6509(4)
H5 H 0.2950 -0.0711 0.6777
C8 C 0.2782(3) 0.1217(6) 0.7188(4)
H6 H 0.3086 0.1032 0.7927
C9 C 0.2419(3) 0.2528(7) 0.6786(4)
H7 H 0.2480 0.3225 0.7261
C10 C 0.1979(3) 0.2850(5) 0.5731(5)
H8 H 0.1751 0.3768 0.5475
C11 C 0.1874(3) 0.1787(5) 0.5034(4)
C13 C 0.1621(3) 0.0063(5) 0.3694(4)
Cu1B Cu -0.2500 0.2500 -0.5000
Cl1F Cl 0.16811(8) -0.32443(14) 0.50885(11)
S1D S -0.12821(9) 0.09230(15) -0.25561(11)
S2D S -0.13385(8) -0.18203(14) -0.36607(11)
N1D N -0.2084(2) 0.0491(4) -0.4651(3)
N1F N 0.2916(2) -0.4509(4) 0.5349(3)
C1D C -0.0737(3) -0.0394(5) -0.1564(4)
C2D C -0.0914(3) -0.1163(6) -0.1009(4)
H1D H -0.1325 -0.1060 -0.1105
C3D C -0.0340(4) -0.2115(6) -0.0291(4)
H2D H -0.0308 -0.2746 0.0176
C4D C 0.0169(4) -0.1933(7) -0.0400(5)
H3D H 0.0596 -0.2430 -0.0024
C5D C -0.0070(3) -0.0890(7) -0.1173(4)
H4D H 0.0169 -0.0564 -0.1396
C6D C -0.2246(3) -0.0462(5) -0.5445(4)
C7D C -0.2698(3) -0.0181(5) -0.6509(4)
H5D H -0.2950 0.0711 -0.6777
C8D C -0.2782(3) -0.1217(6) -0.7188(4)
H6D H -0.3086 -0.1032 -0.7927
C9D C -0.2419(3) -0.2528(7) -0.6786(4)
H7D H -0.2480 -0.3225 -0.7261
C10D C -0.1979(3) -0.2850(5) -0.5731(5)
H8D H -0.1751 -0.3768 -0.5475
C11D C -0.1874(3) -0.1787(5) -0.5034(4)
C13D C -0.1621(3) -0.0063(5) -0.3694(4)
Cl2 Cl -0.02683(14) 0.5055(2) 0.30600(17)
C12 C 0.0000 0.6137(9) 0.2500
H9 H 0.0397 0.6769 0.3054
Cl2A Cl 0.02683(14) 0.5055(2) 0.19400(17)
H9A H -0.0397 0.6769 0.1946
loop_
_geom_bond_atom_site_label_1
_geom_bond_atom_site_label_2
_geom_bond_site_symmetry_1
_geom_bond_site_symmetry_2
Cu1 Cl1 1_555 1_555
Fe1 C1 1_555 1_555
S1 C1 1_555 1_555
S2 C11 1_555 1_555
N1 Cu1 1_555 1_555
C1 C2 1_555 1_555
C2 Fe1 1_555 1_555
H1 C2 1_555 1_555
C3 Fe1 1_555 1_555
H2 C3 1_555 1_555
C4 Fe1 1_555 1_555
H3 C4 1_555 1_555
C5 Fe1 1_555 1_555
H4 C5 1_555 1_555
C6 N1 1_555 1_555
C7 C6 1_555 1_555
H5 C7 1_555 1_555
C8 C7 1_555 1_555
H6 C8 1_555 1_555
C9 C8 1_555 1_555
H7 C9 1_555 1_555
C10 C9 1_555 1_555
H8 C10 1_555 1_555
C11 C6 1_555 1_555
Cl2 C12 1_555 1_555
C12 H9 1_555 1_555
C13 S1 1_555 1_555
Cu1B N1D 1_555 1_555
Cl1F Cu1 1_555 1_555
S1D C1D 1_555 1_555
S2D C11D 1_555 1_555
N1D C6D 1_555 1_555
N1F Cu1 1_555 1_555
C1D Fe1 1_555 1_555
C2D Fe1 1_555 1_555
H1D C2D 1_555 1_555
C3D Fe1 1_555 1_555
H2D C3D 1_555 1_555
C4D Fe1 1_555 1_555
H3D C4D 1_555 1_555
C5D Fe1 1_555 1_555
H4D C5D 1_555 1_555
C6D C7D 1_555 1_555
C7D H5D 1_555 1_555
C8D C7D 1_555 1_555
H6D C8D 1_555 1_555
C9D C8D 1_555 1_555
H7D C9D 1_555 1_555
C10D C9D 1_555 1_555
H8D C10D 1_555 1_555
C11D C6D 1_555 1_555
Cl2A C12 1_555 1_555
H9A C12 1_555 1_555
C13D S1D 1_555 1_555
S2 C13 1_555 1_555
N1 C13 1_555 1_555
C1 C5 1_555 1_555
C2 C3 1_555 1_555
C3 C4 1_555 1_555
C4 C5 1_555 1_555
C10 C11 1_555 1_555
S2D C13D 1_555 1_555
N1D C13D 1_555 1_555
C1D C2D 1_555 1_555
C1D C5D 1_555 1_555
C2D C3D 1_555 1_555
C3D C4D 1_555 1_555
C4D C5D 1_555 1_555
C10D C11D 1_555 1_555

#END
