
#######################################################################
#
#                 Cambridge Crystallographic Data Centre
#                                CCDC 
#
#######################################################################
#
# If this CIF has been generated from an entry in the Cambridge 
# Structural Database, then it will include bibliographic, chemical, 
# crystal, experimental, refinement or atomic coordinate data resulting 
# from the CCDC's data processing and validation procedures.
#
#######################################################################

data_IHANIP
_symmetry_cell_setting           monoclinic
_symmetry_space_group_name_H-M   'C 2/c'
_symmetry_Int_Tables_number      15
_space_group_name_Hall           '-C 2yn'
loop_
_symmetry_equiv_pos_site_id
_symmetry_equiv_pos_as_xyz
1 x,y,z
2 -x,y,1/2-z
3 1/2+x,1/2+y,z
4 1/2-x,1/2+y,1/2-z
5 -x,-y,-z
6 x,-y,1/2+z
7 1/2-x,1/2-y,-z
8 1/2+x,1/2-y,1/2+z
_cell_length_a                   15.4795(15)
_cell_length_b                   12.3068(12)
_cell_length_c                   15.3354(15)
_cell_angle_alpha                90
_cell_angle_beta                 118.252(7)
_cell_angle_gamma                90
_cell_volume                     2573.42
loop_
_atom_site_label
_atom_site_type_symbol
_atom_site_fract_x
_atom_site_fract_y
_atom_site_fract_z
C1 C 0.4280(6) 0.5705(5) 0.0657(5)
C2 C 0.3592(8) 0.5157(7) -0.0225(7)
H1 H 0.3057 0.5476 -0.0785
C3 C 0.3864(11) 0.4052(8) -0.0097(10)
H2 H 0.3550 0.3492 -0.0569
C4 C 0.4672(10) 0.3918(7) 0.0836(10)
H3 H 0.4985 0.3245 0.1106
C5 C 0.4953(8) 0.4929(7) 0.1316(7)
H4 H 0.5486 0.5067 0.1953
C6 C 0.3635(5) 0.7259(5) 0.1459(5)
C7 C 0.2469(5) 0.7056(5) 0.2097(7)
C8 C 0.1774(7) 0.6864(7) 0.2416(10)
H5 H 0.1334 0.6268 0.2159
C9 C 0.1732(7) 0.7540(6) 0.3101(10)
H6 H 0.1266 0.7405 0.3326
C10 C 0.2353(6) 0.8411(5) 0.3468(8)
H7 H 0.2308 0.8869 0.3944
C11 C 0.3043(5) 0.8639(5) 0.3166(6)
H8 H 0.3469 0.9246 0.3426
C12 C 0.3100(4) 0.7963(4) 0.2475(6)
Br1 Br 0.43927(7) 1.02807(6) 0.08343(6)
Fe1 Fe 0.5000 0.5000 0.0000
Hg1 Hg 0.5000 0.94282(2) 0.2500
N1 N 0.3763(4) 0.8046(4) 0.2075(4)
S1 S 0.27163(14) 0.63333(15) 0.1268(2)
S2 S 0.43423(16) 0.71283(14) 0.08405(15)
C1D C 0.5720(6) 0.4295(5) -0.0657(5)
C2D C 0.6408(8) 0.4843(7) 0.0225(7)
H1D H 0.6943 0.4524 0.0785
C3D C 0.6136(11) 0.5948(8) 0.0097(10)
H2D H 0.6450 0.6508 0.0569
C4D C 0.5328(10) 0.6082(7) -0.0836(10)
H3D H 0.5015 0.6755 -0.1106
C5D C 0.5047(8) 0.5071(7) -0.1316(7)
H4D H 0.4514 0.4933 -0.1953
C6D C 0.6365(5) 0.2741(5) -0.1459(5)
C7D C 0.7531(5) 0.2944(5) -0.2097(7)
C8D C 0.8226(7) 0.3136(7) -0.2416(10)
H5D H 0.8666 0.3732 -0.2159
C9D C 0.8268(7) 0.2460(6) -0.3101(10)
H6D H 0.8734 0.2595 -0.3326
C10D C 0.7647(6) 0.1589(5) -0.3468(8)
H7D H 0.7692 0.1131 -0.3944
C11D C 0.6957(5) 0.1361(5) -0.3166(6)
H8D H 0.6531 0.0754 -0.3426
C12D C 0.6900(4) 0.2037(4) -0.2475(6)
Br1A Br 0.56073(7) 1.02807(6) 0.41657(6)
Hg1D Hg 0.5000 0.05718(2) -0.2500
N1D N 0.6237(4) 0.1954(4) -0.2075(4)
N1A N 0.6237(4) 0.8046(4) 0.2925(4)
S1D S 0.72837(14) 0.36667(15) -0.1268(2)
S2D S 0.56577(16) 0.28717(14) -0.08405(15)
loop_
_geom_bond_atom_site_label_1
_geom_bond_atom_site_label_2
_geom_bond_site_symmetry_1
_geom_bond_site_symmetry_2
C1 C2 1_555 1_555
C2 H1 1_555 1_555
C3 C2 1_555 1_555
H2 C3 1_555 1_555
C4 C3 1_555 1_555
H3 C4 1_555 1_555
C5 C1 1_555 1_555
H4 C5 1_555 1_555
C6 N1 1_555 1_555
C7 C8 1_555 1_555
C8 H5 1_555 1_555
C9 C8 1_555 1_555
H6 C9 1_555 1_555
C10 C9 1_555 1_555
H7 C10 1_555 1_555
C11 C10 1_555 1_555
H8 C11 1_555 1_555
C12 C7 1_555 1_555
Br1 Hg1 1_555 1_555
Fe1 C1 1_555 1_555
Hg1 N1 1_555 1_555
N1 C12 1_555 1_555
S1 C6 1_555 1_555
S2 C1 1_555 1_555
C1D Fe1 1_555 1_555
C2D Fe1 1_555 1_555
H1D C2D 1_555 1_555
C3D Fe1 1_555 1_555
H2D C3D 1_555 1_555
C4D Fe1 1_555 1_555
H3D C4D 1_555 1_555
C5D Fe1 1_555 1_555
H4D C5D 1_555 1_555
C6D N1D 1_555 1_555
C7D C8D 1_555 1_555
C8D H5D 1_555 1_555
C9D C8D 1_555 1_555
H6D C9D 1_555 1_555
C10D C9D 1_555 1_555
H7D C10D 1_555 1_555
C11D C10D 1_555 1_555
H8D C11D 1_555 1_555
C12D C7D 1_555 1_555
Br1A Hg1 1_555 1_555
Hg1D N1D 1_555 1_555
N1D C12D 1_555 1_555
N1A Hg1 1_555 1_555
S1D C6D 1_555 1_555
S2D C1D 1_555 1_555
C2 Fe1 1_555 1_555
C3 Fe1 1_555 1_555
C4 C5 1_555 1_555
C4 Fe1 1_555 1_555
C5 Fe1 1_555 1_555
C6 S2 1_555 1_555
C7 S1 1_555 1_555
C11 C12 1_555 1_555
C1D C2D 1_555 1_555
C1D C5D 1_555 1_555
C2D C3D 1_555 1_555
C3D C4D 1_555 1_555
C4D C5D 1_555 1_555
C6D S2D 1_555 1_555
C7D S1D 1_555 1_555
C11D C12D 1_555 1_555

#END
