
#######################################################################
#
#                 Cambridge Crystallographic Data Centre
#                                CCDC 
#
#######################################################################
#
# If this CIF has been generated from an entry in the Cambridge 
# Structural Database, then it will include bibliographic, chemical, 
# crystal, experimental, refinement or atomic coordinate data resulting 
# from the CCDC's data processing and validation procedures.
#
#######################################################################

data_IHARUF
_symmetry_cell_setting           monoclinic
_symmetry_space_group_name_H-M   'P 21'
_symmetry_Int_Tables_number      4
_space_group_name_Hall           'P 2yb'
loop_
_symmetry_equiv_pos_site_id
_symmetry_equiv_pos_as_xyz
1 x,y,z
2 -x,1/2+y,-z
_cell_length_a                   5.3141(12)
_cell_length_b                   15.786(3)
_cell_length_c                   7.8390(17)
_cell_angle_alpha                90
_cell_angle_beta                 104.021(3)
_cell_angle_gamma                90
_cell_volume                     638.009
loop_
_atom_site_label
_atom_site_type_symbol
_atom_site_fract_x
_atom_site_fract_y
_atom_site_fract_z
Na1 Na 0.43016(19) 0.50262(8) 0.15739(13)
S1 S 1.05481(10) 0.49526(3) 0.50334(7)
O1 O 1.1493(4) 0.12421(14) 0.9286(3)
H1 H 1.1015 0.0789 0.9611
O2 O 0.7253(4) 0.14092(13) 0.8100(3)
O3 O 0.5881(4) 0.44438(14) 0.9239(2)
O4 O 1.0101(4) 0.47749(13) 0.9850(2)
O5 O 0.8130(3) 0.48468(13) 0.3739(2)
O6 O 1.2937(3) 0.48445(14) 0.4488(2)
N1 N 1.0612(4) 0.42643(13) 0.6583(2)
C1 C 0.9435(5) 0.17063(16) 0.8539(3)
C2 C 1.0061(5) 0.26214(17) 0.8313(4)
H2 H 1.1552 0.2655 0.7807
H3 H 1.0522 0.2892 0.9458
C3 C 0.7800(5) 0.30978(16) 0.7138(3)
H4 H 0.6242 0.2983 0.7536
H5 H 0.7526 0.2884 0.5947
C4 C 0.8212(4) 0.40602(15) 0.7118(3)
H6 H 0.6770 0.4294 0.6217
C5 C 0.8054(4) 0.44563(14) 0.8881(3)
C6 C 1.0584(5) 0.59932(17) 0.5922(3)
C7 C 0.8432(6) 0.65218(19) 0.5412(4)
H7 H 0.6925 0.6331 0.4638
C8 C 0.8583(6) 0.7344(2) 0.6087(4)
H8 H 0.7169 0.7706 0.5743
C9 C 1.0810(7) 0.7629(2) 0.7264(4)
H9 H 1.0905 0.8180 0.7696
C10 C 1.2904(6) 0.7077(2) 0.7788(4)
H10 H 1.4384 0.7260 0.8600
C11 C 1.2823(6) 0.6267(2) 0.7129(4)
H11 H 1.4239 0.5907 0.7481
Na1_2 Na 0.43016(19) 0.50262(8) 1.15739(13)
Na1_3 Na 1.43016(19) 0.50262(8) 0.15739(13)
Na1_4 Na 1.43016(19) 0.50262(8) 1.15739(13)
Na1A Na 0.56984(19) 0.00262(8) 0.84261(13)
O2A O 0.2747(4) 0.64092(13) 0.1900(3)
O3_2 O 0.5881(4) 0.44438(14) -0.0761(2)
O4_2 O 0.0101(4) 0.47749(13) -0.0150(2)
O6_2 O 0.2937(3) 0.48445(14) 0.4488(2)
loop_
_geom_bond_atom_site_label_1
_geom_bond_atom_site_label_2
_geom_bond_site_symmetry_1
_geom_bond_site_symmetry_2
Na1 O5 1_555 1_555
S1 O5 1_555 1_555
O1 H1 1_555 1_555
O2 C1 1_555 1_555
O3 C5 1_555 1_555
O4 C5 1_555 1_555
O6 S1 1_555 1_555
N1 S1 1_555 1_555
C1 O1 1_555 1_555
C2 C1 1_555 1_555
H2 C2 1_555 1_555
H3 C2 1_555 1_555
C3 C2 1_555 1_555
H4 C3 1_555 1_555
H5 C3 1_555 1_555
C4 N1 1_555 1_555
H6 C4 1_555 1_555
C5 C4 1_555 1_555
C6 S1 1_555 1_555
C7 C6 1_555 1_555
H7 C7 1_555 1_555
C8 C7 1_555 1_555
H8 C8 1_555 1_555
C9 C8 1_555 1_555
H9 C9 1_555 1_555
C10 C9 1_555 1_555
H10 C10 1_555 1_555
C11 C6 1_555 1_555
H11 C11 1_555 1_555
Na1_2 O3 1_555 1_555
Na1_3 O6 1_555 1_555
Na1_4 O4 1_555 1_555
Na1A O2 1_555 1_555
O2A Na1 1_555 1_555
O3_2 Na1 1_555 1_555
O4_2 Na1 1_555 1_555
O6_2 Na1 1_555 1_555
C3 C4 1_555 1_555
C10 C11 1_555 1_555

#END
