
#######################################################################
#
#                 Cambridge Crystallographic Data Centre
#                                CCDC 
#
#######################################################################
#
# If this CIF has been generated from an entry in the Cambridge 
# Structural Database, then it will include bibliographic, chemical, 
# crystal, experimental, refinement or atomic coordinate data resulting 
# from the CCDC's data processing and validation procedures.
#
#######################################################################

data_IHAVIW
_symmetry_cell_setting           monoclinic
_symmetry_space_group_name_H-M   'P 21/c'
_symmetry_Int_Tables_number      14
_space_group_name_Hall           '-P 2ybc'
loop_
_symmetry_equiv_pos_site_id
_symmetry_equiv_pos_as_xyz
1 x,y,z
2 -x,1/2+y,1/2-z
3 -x,-y,-z
4 x,1/2-y,1/2+z
_cell_length_a                   4.6308(5)
_cell_length_b                   10.4322(10)
_cell_length_c                   17.711(2)
_cell_angle_alpha                90
_cell_angle_beta                 96.051(2)
_cell_angle_gamma                90
_cell_volume                     850.841
loop_
_atom_site_label
_atom_site_type_symbol
_atom_site_fract_x
_atom_site_fract_y
_atom_site_fract_z
Fe1 Fe -0.0215(2) 0.7214(1) 0.9165(1)
Fe2 Fe 0.0000 0.5000 0.5000
P1 P -0.4949(4) 0.7075(2) 0.5417(1)
O1 O -0.3182(13) 0.7660(6) 0.8202(3)
O2 O -0.2641(11) 0.6714(5) 0.4895(3)
O3 O -0.6965(12) 0.8126(5) 0.5047(3)
O4 O -0.6647(11) 0.5909(5) 0.5639(3)
O5 O 0.2197(13) 0.6256(6) 0.8394(4)
O6 O 0.1719(11) 0.5806(5) 0.3967(3)
O7 O -0.2513(13) 0.5504(5) 0.9369(4)
O8 O -0.1224(14) 0.9298(5) 0.7631(3)
C1 C -0.2977(18) 0.7715(8) 0.6273(4)
C2 C -0.4825(18) 0.8034(9) 0.6899(5)
C3 C -0.2959(17) 0.8368(8) 0.7627(4)
H1 H -0.1520(18) 0.7094(8) 0.6465(4)
H2 H -0.1967(18) 0.8485(8) 0.6142(4)
H3 H -0.6048(18) 0.7306(9) 0.6987(5)
H4 H -0.6076(18) 0.8754(9) 0.6744(5)
P1B P 0.4949(4) 0.2925(2) 0.4583(1)
O1B O 0.3182(13) 0.2340(6) 0.1798(3)
O2B O 0.2641(11) 0.3286(5) 0.5105(3)
O3B O 0.6965(12) 0.1874(5) 0.4953(3)
O4B O 0.6647(11) 0.4091(5) 0.4361(3)
O8B O 0.1224(14) 0.0702(5) 0.2369(3)
C1B C 0.2977(18) 0.2285(8) 0.3727(4)
C2B C 0.4825(18) 0.1966(9) 0.3101(5)
C3B C 0.2959(17) 0.1632(8) 0.2373(4)
H1B H 0.1520(18) 0.2906(8) 0.3535(4)
H2B H 0.1967(18) 0.1515(8) 0.3858(4)
H3B H 0.6048(18) 0.2694(9) 0.3013(5)
H4B H 0.6076(18) 0.1246(9) 0.3256(5)
O6B O -0.1719(11) 0.4194(5) 0.6033(3)
Fe1B Fe 0.0215(2) 0.2786(1) 0.0835(1)
O5B O -0.2197(13) 0.3744(6) 0.1606(4)
O7B O 0.2513(13) 0.4496(5) 0.0631(4)
O2C O -0.2641(11) 0.8286(5) 0.9895(3)
O3C O 0.3035(12) 0.6874(5) 1.0047(3)
O6C O 0.1719(11) 0.9194(5) 0.8967(3)
O4_2 O 0.3353(11) 0.5909(5) 0.5639(3)
O4B_2 O -0.3353(11) 0.4091(5) 0.4361(3)
Fe1C Fe -0.0215(2) 0.7786(1) 0.4165(1)
Fe1C_2 Fe -1.0215(2) 0.7786(1) 0.4165(1)
Fe2_2 Fe -1.0000 0.5000 0.5000
Fe1A Fe 0.0215(2) 0.2214(1) 0.5835(1)
Fe1A_2 Fe 1.0215(2) 0.2214(1) 0.5835(1)
Fe2_3 Fe 1.0000 0.5000 0.5000
O2A O 0.2641(11) 0.1714(5) 0.0105(3)
O3A O -0.3035(12) 0.3126(5) -0.0047(3)
O6A O -0.1719(11) 0.0806(5) 0.1033(3)
loop_
_geom_bond_atom_site_label_1
_geom_bond_atom_site_label_2
_geom_bond_site_symmetry_1
_geom_bond_site_symmetry_2
Fe1 O1 1_555 1_555
Fe2 O2 1_555 1_555
P1 O2 1_555 1_555
O1 C3 1_555 1_555
O2 Fe1C 1_555 1_555
O3 P1 1_555 1_555
O4 P1 1_555 1_555
O5 Fe1 1_555 1_555
O6 Fe2 1_555 1_555
O7 Fe1 1_555 1_555
O8 C3 1_555 1_555
C1 P1 1_555 1_555
C2 C1 1_555 1_555
C3 C2 1_555 1_555
H1 C1 1_555 1_555
H2 C1 1_555 1_555
H3 C2 1_555 1_555
H4 C2 1_555 1_555
P1B O2B 1_555 1_555
O1B C3B 1_555 1_555
O2B Fe2 1_555 1_555
O3B P1B 1_555 1_555
O4B P1B 1_555 1_555
O8B C3B 1_555 1_555
C1B P1B 1_555 1_555
C2B C1B 1_555 1_555
C3B C2B 1_555 1_555
H1B C1B 1_555 1_555
H2B C1B 1_555 1_555
H3B C2B 1_555 1_555
H4B C2B 1_555 1_555
O6B Fe2 1_555 1_555
Fe1B O1B 1_555 1_555
O5B Fe1B 1_555 1_555
O7B Fe1B 1_555 1_555
O2C Fe1 1_555 1_555
O3C Fe1 1_555 1_555
O6C Fe1 1_555 1_555
O4_2 Fe2 1_555 1_555
O4B_2 Fe2 1_555 1_555
Fe1C O6 1_555 1_555
Fe1C_2 O3 1_555 1_555
Fe2_2 O4 1_555 1_555
Fe1A O2B 1_555 1_555
Fe1A_2 O3B 1_555 1_555
Fe2_3 O4B 1_555 1_555
O2A Fe1B 1_555 1_555
O3A Fe1B 1_555 1_555
O6A Fe1B 1_555 1_555
O6B Fe1A 1_555 1_555

#END
