
#######################################################################
#
#                 Cambridge Crystallographic Data Centre
#                                CCDC 
#
#######################################################################
#
# If this CIF has been generated from an entry in the Cambridge 
# Structural Database, then it will include bibliographic, chemical, 
# crystal, experimental, refinement or atomic coordinate data resulting 
# from the CCDC's data processing and validation procedures.
#
#######################################################################

data_IHAWAP
_symmetry_cell_setting           monoclinic
_symmetry_space_group_name_H-M   'P 21/c'
_symmetry_Int_Tables_number      14
_space_group_name_Hall           '-P 2ybc'
loop_
_symmetry_equiv_pos_site_id
_symmetry_equiv_pos_as_xyz
1 x,y,z
2 -x,1/2+y,1/2-z
3 -x,-y,-z
4 x,1/2-y,1/2+z
_cell_length_a                   10.1502(3)
_cell_length_b                   10.9815(4)
_cell_length_c                   14.5839(4)
_cell_angle_alpha                90
_cell_angle_beta                 99.6090(10)
_cell_angle_gamma                90
_cell_volume                     1602.78
loop_
_atom_site_label
_atom_site_type_symbol
_atom_site_fract_x
_atom_site_fract_y
_atom_site_fract_z
Cd1 Cd 0.3526(1) 0.0753(1) -0.2381(1)
C1 C 0.4656(4) 0.2142(4) -0.5821(3)
C2 C 0.4824(4) 0.1464(4) -0.4325(3)
C3 C 0.6110(4) -0.0590(4) -0.1134(3)
C4 C 0.7338(4) -0.0512(4) 0.0294(3)
C5 C 0.2660(4) -0.2063(4) -0.2989(3)
C6 C 0.1833(5) -0.3012(5) -0.3347(3)
C7 C 0.0570(5) -0.2773(5) -0.3773(3)
C8 C 0.0114(4) -0.1561(4) -0.3834(3)
C9 C -0.1207(4) -0.1224(6) -0.4268(3)
C10 C -0.1602(4) -0.0076(6) -0.4313(3)
C11 C -0.0729(4) 0.0880(4) -0.3919(3)
C12 C -0.1084(5) 0.2120(5) -0.3961(3)
C13 C -0.0196(5) 0.2975(5) -0.3593(3)
C14 C 0.1080(4) 0.2608(4) -0.3164(3)
C15 C 0.0576(4) 0.0589(4) -0.3485(2)
C16 C 0.1003(4) -0.0653(4) -0.3453(2)
N1 N 0.4179(4) 0.2558(4) -0.6516(3)
N2 N 0.5312(4) 0.1640(4) -0.5082(3)
N3 N 0.4526(3) 0.1264(4) -0.3625(2)
N4 N 0.5273(4) -0.0376(4) -0.1718(3)
N5 N 0.7157(4) -0.0895(4) -0.0549(3)
N6 N 0.7629(4) -0.0260(4) 0.1057(3)
N7 N 0.2275(3) -0.0915(3) -0.3040(2)
N8 N 0.1458(3) 0.1457(3) -0.3111(2)
H1 H 0.3525 -0.2244 -0.2700
H2 H 0.2143 -0.3810 -0.3296
H3 H 0.0009 -0.3403 -0.4022
H4 H -0.1801 -0.1827 -0.4524
H5 H -0.2462 0.0115 -0.4607
H6 H -0.1936 0.2352 -0.4244
H7 H -0.0428 0.3795 -0.3625
H8 H 0.1686 0.3200 -0.2906
N6B N 0.2371(4) 0.0260(4) -0.1057(3)
N1C N 0.4179(4) 0.2442(4) -0.1516(3)
Cd1B Cd 0.6474(1) -0.0753(1) 0.2381(1)
Cd1C Cd 0.3526(1) 0.4247(1) -0.7381(1)
loop_
_geom_bond_atom_site_label_1
_geom_bond_atom_site_label_2
_geom_bond_site_symmetry_1
_geom_bond_site_symmetry_2
Cd1 N3 1_555 1_555
C1 N1 1_555 1_555
C2 N2 1_555 1_555
C3 N4 1_555 1_555
C4 N5 1_555 1_555
C5 C6 1_555 1_555
C6 C7 1_555 1_555
C7 C8 1_555 1_555
C8 C9 1_555 1_555
C9 C10 1_555 1_555
C10 C11 1_555 1_555
C11 C12 1_555 1_555
C12 C13 1_555 1_555
C13 C14 1_555 1_555
C14 N8 1_555 1_555
C15 C11 1_555 1_555
C16 C8 1_555 1_555
N1 Cd1C 1_555 1_555
N2 C1 1_555 1_555
N3 C2 1_555 1_555
N4 Cd1 1_555 1_555
N5 C3 1_555 1_555
N6 C4 1_555 1_555
N7 Cd1 1_555 1_555
N8 Cd1 1_555 1_555
H1 C5 1_555 1_555
H2 C6 1_555 1_555
H3 C7 1_555 1_555
H4 C9 1_555 1_555
H5 C10 1_555 1_555
H6 C12 1_555 1_555
H7 C13 1_555 1_555
H8 C14 1_555 1_555
N6B Cd1 1_555 1_555
N1C Cd1 1_555 1_555
Cd1B N6 1_555 1_555
C5 N7 1_555 1_555
C15 C16 1_555 1_555
C15 N8 1_555 1_555
C16 N7 1_555 1_555

#END
