
#######################################################################
#
#                 Cambridge Crystallographic Data Centre
#                                CCDC 
#
#######################################################################
#
# If this CIF has been generated from an entry in the Cambridge 
# Structural Database, then it will include bibliographic, chemical, 
# crystal, experimental, refinement or atomic coordinate data resulting 
# from the CCDC's data processing and validation procedures.
#
#######################################################################

data_IHELEO
_symmetry_cell_setting           monoclinic
_symmetry_space_group_name_H-M   'P 21/c'
_symmetry_Int_Tables_number      14
_space_group_name_Hall           '-P 2ybc'
loop_
_symmetry_equiv_pos_site_id
_symmetry_equiv_pos_as_xyz
1 x,y,z
2 -x,1/2+y,1/2-z
3 -x,-y,-z
4 x,1/2-y,1/2+z
_cell_length_a                   10.9252(9)
_cell_length_b                   9.3337(6)
_cell_length_c                   14.2595(3)
_cell_angle_alpha                90
_cell_angle_beta                 98.0093(10)
_cell_angle_gamma                90
_cell_volume                     1439.89
loop_
_atom_site_label
_atom_site_type_symbol
_atom_site_fract_x
_atom_site_fract_y
_atom_site_fract_z
Zn1 Zn 0.52024(5) 0.23397(6) 0.61963(3)
N1 N 0.5525(3) 0.3813(4) 0.7194(2)
N2 N 0.5352(4) 0.5594(4) 0.8208(2)
N3 N 0.3938(3) 0.2806(4) 0.5085(2)
N4 N 0.2187(4) 0.3211(4) 0.4216(3)
H1 H 0.1426 0.3449 0.4058
N5 N 0.6815(4) 0.2103(4) 0.5693(2)
N6 N 0.8369(4) 0.2592(5) 0.4950(3)
H2 H 0.8815 0.3025 0.4587
C1 C 0.4825(4) 0.4891(5) 0.7451(3)
H3 H 0.4049 0.5119 0.7130
C2 C 0.6475(5) 0.4914(5) 0.8456(3)
H4 H 0.7067 0.5146 0.8967
C3 C 0.6557(4) 0.3853(5) 0.7825(3)
H5 H 0.7229 0.3240 0.7828
C4 C 0.2796(5) 0.3202(5) 0.5080(3)
H6 H 0.2453 0.3448 0.5619
C5 C 0.2971(5) 0.2779(6) 0.3625(3)
H7 H 0.2791 0.2669 0.2972
C6 C 0.4063(4) 0.2538(5) 0.4157(3)
H8 H 0.4783 0.2239 0.3936
C7 C 0.7245(5) 0.2946(6) 0.5091(3)
H9 H 0.6806 0.3714 0.4795
C8 C 0.8691(5) 0.1412(7) 0.5484(4)
H10 H 0.9425 0.0898 0.5514
C9 C 0.7741(5) 0.1136(6) 0.5960(4)
H11 H 0.7716 0.0406 0.6401
Zn1A Zn 0.47976(5) 0.73397(6) 0.88037(3)
N2A N 0.4648(4) 0.0594(4) 0.6792(2)
O1 O 0.0204(3) 0.6151(5) 0.6180(3)
O2 O 0.1797(3) 0.4835(5) 0.6758(2)
C10 C 0.0703(5) 0.5158(7) 0.6692(3)
C11 C -0.0136(6) 0.4381(7) 0.7273(4)
H12 H -0.0480 0.3555 0.6931
H13 H -0.0792 0.5009 0.7395
H14 H 0.0328 0.4084 0.7862
loop_
_geom_bond_atom_site_label_1
_geom_bond_atom_site_label_2
_geom_bond_site_symmetry_1
_geom_bond_site_symmetry_2
Zn1 N1 1_555 1_555
N1 C1 1_555 1_555
N2 C1 1_555 1_555
N3 Zn1 1_555 1_555
N4 H1 1_555 1_555
N5 Zn1 1_555 1_555
N6 H2 1_555 1_555
C1 H3 1_555 1_555
C2 N2 1_555 1_555
H4 C2 1_555 1_555
C3 N1 1_555 1_555
H5 C3 1_555 1_555
C4 N3 1_555 1_555
H6 C4 1_555 1_555
C5 N4 1_555 1_555
H7 C5 1_555 1_555
C6 N3 1_555 1_555
H8 C6 1_555 1_555
C7 N5 1_555 1_555
H9 C7 1_555 1_555
C8 N6 1_555 1_555
H10 C8 1_555 1_555
C9 N5 1_555 1_555
H11 C9 1_555 1_555
O1 C10 1_555 1_555
O2 C10 1_555 1_555
C10 C11 1_555 1_555
C11 H12 1_555 1_555
H13 C11 1_555 1_555
H14 C11 1_555 1_555
Zn1A N2 1_555 1_555
N2A Zn1 1_555 1_555
N4 C4 1_555 1_555
N6 C7 1_555 1_555
C2 C3 1_555 1_555
C5 C6 1_555 1_555
C8 C9 1_555 1_555

#END
