
#######################################################################
#
#                 Cambridge Crystallographic Data Centre
#                                CCDC 
#
#######################################################################
#
# If this CIF has been generated from an entry in the Cambridge 
# Structural Database, then it will include bibliographic, chemical, 
# crystal, experimental, refinement or atomic coordinate data resulting 
# from the CCDC's data processing and validation procedures.
#
#######################################################################

data_IHEMUF
_symmetry_cell_setting           triclinic
_symmetry_space_group_name_H-M   'P -1'
_symmetry_Int_Tables_number      2
_space_group_name_Hall           '-P 1'
loop_
_symmetry_equiv_pos_site_id
_symmetry_equiv_pos_as_xyz
1 x,y,z
2 -x,-y,-z
_cell_length_a                   9.060(6)
_cell_length_b                   10.465(6)
_cell_length_c                   13.130(8)
_cell_angle_alpha                71.516(13)
_cell_angle_beta                 85.526(15)
_cell_angle_gamma                89.859(19)
_cell_volume                     1176.75
loop_
_atom_site_label
_atom_site_type_symbol
_atom_site_fract_x
_atom_site_fract_y
_atom_site_fract_z
Zn1 Zn 0.22179(3) 0.57816(3) 0.51710(3)
Zn2 Zn 0.31203(4) 0.05661(3) 0.70099(3)
O1 O -0.0521(3) 0.4717(3) 0.3752(2)
O2 O -0.0067(3) 0.2669(3) 0.4769(2)
O3 O 0.2692(2) 0.3785(2) 0.54661(16)
O4 O 0.3410(2) 0.1771(2) 0.54329(16)
O5 O 0.5938(2) 0.3737(2) 0.43293(17)
O6 O 0.6848(3) 0.2868(3) 0.3075(2)
O7 O 0.1922(3) 0.1982(2) 0.74309(19)
H1 H 0.200(4) 0.221(4) 0.7994(19)
H2 H 0.216(5) 0.266(3) 0.6878(19)
O8 O 0.1627(2) -0.0651(2) 0.6722(2)
H3 H 0.071(2) -0.063(4) 0.681(3)
H4 H 0.194(4) -0.141(3) 0.675(3)
N1 N 0.2653(3) 0.6695(2) 0.35764(19)
N2 N 0.5209(3) 0.8427(2) -0.02776(19)
N3 N 0.3623(3) 0.9508(3) -0.14599(19)
N4 N 0.2846(3) 0.9084(3) -0.0481(2)
N5 N 0.8504(3) 0.9439(3) -0.3105(2)
N6 N 0.5516(3) 1.0060(2) -0.3196(2)
C1 C 0.1689(3) 0.3770(3) 0.3299(2)
C2 C 0.3030(3) 0.3412(3) 0.3762(2)
C3 C 0.4327(3) 0.3485(3) 0.3090(2)
C4 C 0.4271(3) 0.3870(3) 0.1981(2)
H5 H 0.5129 0.3875 0.1543
C5 C 0.2946(3) 0.4248(3) 0.1523(2)
H6 H 0.2917 0.4519 0.0778
C6 C 0.1663(3) 0.4222(3) 0.2180(3)
H7 H 0.0779 0.4506 0.1873
C7 C 0.0278(3) 0.3687(3) 0.4000(3)
C8 C 0.3059(3) 0.2963(3) 0.4974(2)
C9 C 0.5827(3) 0.3318(3) 0.3532(2)
C10 C 0.4034(3) 0.6610(3) 0.3145(2)
H8 H 0.4740 0.6166 0.3600
C11 C 0.4445(3) 0.7147(3) 0.2066(2)
H9 H 0.5409 0.7056 0.1802
C12 C 0.3417(3) 0.7829(3) 0.1365(2)
C13 C 0.1990(3) 0.7923(3) 0.1815(2)
H10 H 0.1268 0.8370 0.1376
C14 C 0.1653(3) 0.7359(3) 0.2901(2)
H11 H 0.0696 0.7436 0.3184
C15 C 0.3829(3) 0.8442(3) 0.0203(2)
C16 C 0.5014(3) 0.9108(3) -0.1306(2)
C17 C 0.6085(3) 0.9420(3) -0.2246(2)
C18 C 0.7573(3) 0.9128(3) -0.2218(2)
H12 H 0.7939 0.8697 -0.1556
C19 C 0.7932(3) 1.0043(3) -0.4039(3)
H13 H 0.8543 1.0256 -0.4675
C20 C 0.6435(3) 1.0364(3) -0.4082(2)
H14 H 0.6075 1.0799 -0.4745
Zn1A Zn -0.22179(3) 0.42184(3) 0.48290(3)
Zn1A_2 Zn 0.77821(3) 0.42184(3) 0.48290(3)
Zn2_2 Zn 0.31203(4) 1.05661(3) -0.29901(3)
O1A O 0.0521(3) 0.5283(3) 0.6248(2)
O2A O 0.0067(3) 0.7331(3) 0.5231(2)
O5A O 0.4062(2) 0.6263(2) 0.56707(17)
N3_2 N 0.3623(3) -0.0492(3) 0.85401(19)
N6_2 N 0.5516(3) 0.0060(2) 0.6804(2)
O9 O 0.1801(4) 0.5523(4) 0.8920(3)
H15 H 0.200(6) 0.599(4) 0.825(2)
H16 H 0.218(6) 0.474(3) 0.900(4)
O10 O 0.2162(3) 0.2646(3) 0.9226(2)
H17 H 0.293(3) 0.236(4) 0.953(3)
H18 H 0.140(3) 0.239(4) 0.966(3)
O11 O -0.0223(3) 0.2385(4) 1.0603(3)
H19 H -0.082(5) 0.178(4) 1.055(5)
H20 H -0.070(5) 0.310(3) 1.057(5)
loop_
_geom_bond_atom_site_label_1
_geom_bond_atom_site_label_2
_geom_bond_site_symmetry_1
_geom_bond_site_symmetry_2
Zn1 O3 1_555 1_555
Zn2 O4 1_555 1_555
O1 C7 1_555 1_555
O2 C7 1_555 1_555
O3 C8 1_555 1_555
O4 C8 1_555 1_555
O5 C9 1_555 1_555
O6 C9 1_555 1_555
O7 Zn2 1_555 1_555
H1 O7 1_555 1_555
H2 O7 1_555 1_555
O8 Zn2 1_555 1_555
H3 O8 1_555 1_555
H4 O8 1_555 1_555
N1 Zn1 1_555 1_555
N2 C15 1_555 1_555
N3 N4 1_555 1_555
N4 C15 1_555 1_555
N5 C18 1_555 1_555
N6 C17 1_555 1_555
C1 C2 1_555 1_555
C2 C3 1_555 1_555
C3 C4 1_555 1_555
C4 H5 1_555 1_555
C5 C4 1_555 1_555
H6 C5 1_555 1_555
C6 C1 1_555 1_555
H7 C6 1_555 1_555
C7 C1 1_555 1_555
C8 C2 1_555 1_555
C9 C3 1_555 1_555
C10 N1 1_555 1_555
H8 C10 1_555 1_555
C11 C10 1_555 1_555
H9 C11 1_555 1_555
C12 C11 1_555 1_555
C13 C12 1_555 1_555
H10 C13 1_555 1_555
C14 N1 1_555 1_555
H11 C14 1_555 1_555
C15 C12 1_555 1_555
C16 N2 1_555 1_555
C17 C16 1_555 1_555
C18 C17 1_555 1_555
H12 C18 1_555 1_555
C19 N5 1_555 1_555
H13 C19 1_555 1_555
C20 N6 1_555 1_555
H14 C20 1_555 1_555
O9 H15 1_555 1_555
H16 O9 1_555 1_555
O10 H17 1_555 1_555
H18 O10 1_555 1_555
O11 H19 1_555 1_555
H20 O11 1_555 1_555
Zn1A O1 1_555 1_555
Zn1A_2 O5 1_555 1_555
Zn2_2 N3 1_555 1_555
O1A Zn1 1_555 1_555
O2A Zn1 1_555 1_555
O5A Zn1 1_555 1_555
N3_2 Zn2 1_555 1_555
N6_2 Zn2 1_555 1_555
O2 Zn1A 1_555 1_555
N3 C16 1_555 1_555
N6 Zn2_2 1_555 1_555
C5 C6 1_555 1_555
C13 C14 1_555 1_555
C19 C20 1_555 1_555

#END
