
#######################################################################
#
#                 Cambridge Crystallographic Data Centre
#                                CCDC 
#
#######################################################################
#
# If this CIF has been generated from an entry in the Cambridge 
# Structural Database, then it will include bibliographic, chemical, 
# crystal, experimental, refinement or atomic coordinate data resulting 
# from the CCDC's data processing and validation procedures.
#
#######################################################################

data_IHENIU
_symmetry_cell_setting           monoclinic
_symmetry_space_group_name_H-M   'P 21/c'
_symmetry_Int_Tables_number      14
_space_group_name_Hall           '-P 2ybc'
loop_
_symmetry_equiv_pos_site_id
_symmetry_equiv_pos_as_xyz
1 x,y,z
2 -x,1/2+y,1/2-z
3 -x,-y,-z
4 x,1/2-y,1/2+z
_cell_length_a                   6.55380(10)
_cell_length_b                   18.4538(4)
_cell_length_c                   20.5728(5)
_cell_angle_alpha                90
_cell_angle_beta                 103.764(2)
_cell_angle_gamma                90
_cell_volume                     2416.68
loop_
_atom_site_label
_atom_site_type_symbol
_atom_site_fract_x
_atom_site_fract_y
_atom_site_fract_z
Ca1 Ca 0.24733(8) 0.55517(3) 1.02128(3)
C1 C -0.0297(4) 0.53386(14) 0.86075(14)
C2 C 0.1527(4) 0.57985(15) 0.85424(14)
C3 C 0.2305(4) 0.60073(16) 0.80066(15)
C4 C 0.1762(6) 0.5782(2) 0.72948(17)
H1 H 0.0985 0.6162 0.7026
H2 H 0.0922 0.5350 0.7246
H3 H 0.3027 0.5688 0.7151
C5 C 0.5292(4) 0.68979(16) 0.79985(15)
C6 C 0.4532(5) 0.72941(17) 0.74251(16)
H4 H 0.3138 0.7244 0.7191
C7 C 0.5842(5) 0.77660(18) 0.71972(16)
H5 H 0.5337 0.8035 0.6810
C8 C 0.7914(5) 0.78366(16) 0.75491(16)
C9 C 0.8691(5) 0.74289(17) 0.81184(17)
H6 H 1.0094 0.7472 0.8345
C10 C 0.7382(4) 0.69570(17) 0.83512(16)
H7 H 0.7889 0.6684 0.8736
C11 C 0.7533(4) 0.61618(14) 1.03053(13)
C12 C 0.6377(4) 0.68196(14) 1.04486(14)
C13 C 0.7037(4) 0.75222(15) 1.05729(15)
C14 C 0.9095(5) 0.78758(18) 1.0628(2)
H8 H 0.8891 0.8385 1.0541
H9 H 0.9775 0.7666 1.0308
H10 H 0.9957 0.7806 1.1071
C15 C 0.4948(4) 0.86326(16) 1.07364(17)
C16 C 0.6158(5) 0.89712(18) 1.12997(19)
H11 H 0.7176 0.8711 1.1602
C17 C 0.5845(6) 0.97005(19) 1.14115(19)
H12 H 0.6668 0.9934 1.1783
C18 C 0.4304(6) 1.00739(17) 1.09656(19)
C19 C 0.3078(6) 0.9733(2) 1.0408(2)
H13 H 0.2034 0.9991 1.0113
C20 C 0.3411(5) 0.90091(18) 1.02917(19)
H14 H 0.2602 0.8778 0.9916
I1 I 0.97724(3) 0.864566(13) 0.725776(12)
I2 I 0.37551(7) 1.116428(15) 1.114276(19)
N1 N 0.3907(4) 0.64639(14) 0.82832(12)
N2 N 0.4106(4) 0.65333(17) 0.89527(13)
N3 N 0.2671(4) 0.61237(15) 0.91020(13)
N4 N 0.5271(3) 0.78835(13) 1.06230(14)
N5 N 0.3598(3) 0.74246(13) 1.05329(14)
N6 N 0.4292(3) 0.67858(12) 1.04338(12)
O1 O -0.0459(3) 0.52285(11) 0.91963(9)
O2 O -0.1525(3) 0.51189(13) 0.80805(10)
O3 O 0.6462(3) 0.55849(10) 1.01936(10)
O4 O 0.9423(3) 0.62407(10) 1.03019(11)
O5 O 0.4390(4) 0.55139(16) 1.13769(12)
H15 H 0.562(7) 0.550(3) 1.155(3)
H16 H 0.365(6) 0.532(2) 1.162(2)
Ca1_2 Ca 1.24733(8) 0.55517(3) 1.02128(3)
Ca1B Ca -0.24733(8) 0.44483(3) 0.97872(3)
Ca1B_2 Ca 0.75267(8) 0.44483(3) 0.97872(3)
O1B O 0.0459(3) 0.47715(11) 1.08037(9)
O3B O 0.3538(3) 0.44151(10) 0.98064(10)
O4_2 O -0.0577(3) 0.62407(10) 1.03019(11)
loop_
_geom_bond_atom_site_label_1
_geom_bond_atom_site_label_2
_geom_bond_site_symmetry_1
_geom_bond_site_symmetry_2
Ca1 N3 1_555 1_555
C1 C2 1_555 1_555
C2 C3 1_555 1_555
C3 C4 1_555 1_555
C4 H1 1_555 1_555
H2 C4 1_555 1_555
H3 C4 1_555 1_555
C5 C6 1_555 1_555
C6 H4 1_555 1_555
C7 C6 1_555 1_555
H5 C7 1_555 1_555
C8 C7 1_555 1_555
C9 C8 1_555 1_555
H6 C9 1_555 1_555
C10 C5 1_555 1_555
H7 C10 1_555 1_555
C11 C12 1_555 1_555
C12 C13 1_555 1_555
C13 C14 1_555 1_555
C14 H8 1_555 1_555
H9 C14 1_555 1_555
H10 C14 1_555 1_555
C15 C16 1_555 1_555
C16 H11 1_555 1_555
C17 C16 1_555 1_555
H12 C17 1_555 1_555
C18 C17 1_555 1_555
C19 C18 1_555 1_555
H13 C19 1_555 1_555
C20 C15 1_555 1_555
H14 C20 1_555 1_555
I1 C8 1_555 1_555
I2 C18 1_555 1_555
N1 C3 1_555 1_555
N2 N1 1_555 1_555
N3 C2 1_555 1_555
N4 C13 1_555 1_555
N5 N4 1_555 1_555
N6 Ca1 1_555 1_555
O1 Ca1 1_555 1_555
O2 C1 1_555 1_555
O3 Ca1 1_555 1_555
O4 C11 1_555 1_555
O5 Ca1 1_555 1_555
H15 O5 1_555 1_555
H16 O5 1_555 1_555
Ca1_2 O4 1_555 1_555
Ca1B O1 1_555 1_555
Ca1B_2 O3 1_555 1_555
O1B Ca1 1_555 1_555
O3B Ca1 1_555 1_555
O4_2 Ca1 1_555 1_555
C1 O1 1_555 1_555
C5 N1 1_555 1_555
C9 C10 1_555 1_555
C11 O3 1_555 1_555
C12 N6 1_555 1_555
C15 N4 1_555 1_555
C19 C20 1_555 1_555
N2 N3 1_555 1_555
N5 N6 1_555 1_555
Ca1B O1B 1_555 1_555
Ca1B_2 O3B 1_555 1_555

#END
