
#######################################################################
#
#                 Cambridge Crystallographic Data Centre
#                                CCDC 
#
#######################################################################
#
# If this CIF has been generated from an entry in the Cambridge 
# Structural Database, then it will include bibliographic, chemical, 
# crystal, experimental, refinement or atomic coordinate data resulting 
# from the CCDC's data processing and validation procedures.
#
#######################################################################

data_IHENOA
_symmetry_cell_setting           monoclinic
_symmetry_space_group_name_H-M   'P 21/c'
_symmetry_Int_Tables_number      14
_space_group_name_Hall           '-P 2ybc'
loop_
_symmetry_equiv_pos_site_id
_symmetry_equiv_pos_as_xyz
1 x,y,z
2 -x,1/2+y,1/2-z
3 -x,-y,-z
4 x,1/2-y,1/2+z
_cell_length_a                   6.7166(2)
_cell_length_b                   18.5507(4)
_cell_length_c                   20.6468(6)
_cell_angle_alpha                90
_cell_angle_beta                 104.025(2)
_cell_angle_gamma                90
_cell_volume                     2495.86
loop_
_atom_site_label
_atom_site_type_symbol
_atom_site_fract_x
_atom_site_fract_y
_atom_site_fract_z
I1 I -0.10477(7) 0.37962(2) 1.11754(2)
I2 I 0.47672(4) 0.639720(18) 0.726248(16)
Sr1 Sr -0.25199(4) 0.944054(18) 1.023743(17)
O1 O 0.1402(3) 0.93677(13) 1.02140(13)
O2 O 0.4286(3) 0.87301(14) 1.02886(14)
N1 N 0.0353(4) 0.70610(17) 1.06248(16)
N2 N -0.1303(4) 0.75064(17) 1.05499(17)
N3 N -0.0665(4) 0.81494(17) 1.04498(15)
N4 N -0.1079(4) 0.85317(18) 0.82573(15)
N5 N -0.0948(5) 0.8438(2) 0.89188(17)
N6 N -0.2379(5) 0.8839(2) 0.90631(16)
C1 C 0.4085(5) 0.7097(2) 1.0601(3)
H1 H 0.4943 0.7155 1.1043
H2 H 0.4717 0.7327 1.0285
H3 H 0.3908 0.6593 1.0497
C2 C 0.2046(5) 0.7433(2) 1.05647(19)
C3 C 0.1369(4) 0.8125(2) 1.04499(18)
C4 C 0.2447(5) 0.8795(2) 1.03062(18)
C5 C 0.0071(5) 0.6313(2) 1.0746(2)
C6 C 0.1332(6) 0.5973(2) 1.1292(2)
H4 H 0.2374 0.6229 1.1580
C7 C 0.1025(6) 0.5247(2) 1.1406(2)
H5 H 0.1879 0.5012 1.1766
C8 C -0.0536(7) 0.4879(2) 1.0987(2)
C9 C -0.1812(6) 0.5224(2) 1.0451(2)
H6 H -0.2885 0.4973 1.0173
C10 C -0.1492(6) 0.5946(2) 1.0327(2)
H7 H -0.2333 0.6178 0.9962
C11 C -0.3427(5) 0.9185(2) 0.85079(18)
C12 C -0.2614(5) 0.8999(2) 0.79814(18)
C13 C -0.3073(7) 0.9240(3) 0.7275(2)
H8 H -0.1814 0.9290 0.7137
H9 H -0.3767 0.9696 0.7234
H10 H -0.3933 0.8891 0.6998
C14 C 0.0322(5) 0.8116(2) 0.79824(19)
C15 C -0.0378(6) 0.7728(2) 0.7406(2)
H11 H -0.1734 0.7776 0.7166
C16 C 0.0919(6) 0.7266(2) 0.7182(2)
H12 H 0.0445 0.7002 0.6792
C17 C 0.2927(5) 0.7200(2) 0.7543(2)
C18 C 0.3645(5) 0.7599(2) 0.8112(2)
H13 H 0.5011 0.7559 0.8345
C19 C 0.2344(5) 0.8064(2) 0.8342(2)
H14 H 0.2821 0.8334 0.8728
O3 O -0.5420(3) 0.97614(14) 0.91389(12)
O4 O -0.6371(4) 0.98788(16) 0.80255(13)
C20 C -0.5215(5) 0.9653(2) 0.85552(19)
O5 O -0.0649(4) 0.9486(2) 1.14938(15)
H15 H -0.1365 0.9701 1.1701
H16 H 0.002(13) 0.915(4) 1.173(3)
Sr1_2 Sr 0.74801(4) 0.944054(18) 1.023743(17)
Sr1B Sr -0.74801(4) 1.055946(18) 0.976257(17)
Sr1B_2 Sr 0.25199(4) 1.055946(18) 0.976257(17)
O1B O -0.1402(3) 1.06323(13) 0.97860(13)
O2_2 O -0.5714(3) 0.87301(14) 1.02886(14)
O3B O -0.4580(3) 1.02386(14) 1.08611(12)
loop_
_geom_bond_atom_site_label_1
_geom_bond_atom_site_label_2
_geom_bond_site_symmetry_1
_geom_bond_site_symmetry_2
I1 C8 1_555 1_555
I2 C17 1_555 1_555
Sr1 O1 1_555 1_555
O1 C4 1_555 1_555
O2 C4 1_555 1_555
N1 N2 1_555 1_555
N2 N3 1_555 1_555
N3 Sr1 1_555 1_555
N4 N5 1_555 1_555
N5 N6 1_555 1_555
N6 Sr1 1_555 1_555
C1 H1 1_555 1_555
H2 C1 1_555 1_555
H3 C1 1_555 1_555
C2 N1 1_555 1_555
C3 N3 1_555 1_555
C4 C3 1_555 1_555
C5 N1 1_555 1_555
C6 C5 1_555 1_555
H4 C6 1_555 1_555
C7 C6 1_555 1_555
H5 C7 1_555 1_555
C8 C7 1_555 1_555
C9 C8 1_555 1_555
H6 C9 1_555 1_555
C10 C5 1_555 1_555
H7 C10 1_555 1_555
C11 N6 1_555 1_555
C12 N4 1_555 1_555
C13 C12 1_555 1_555
H8 C13 1_555 1_555
H9 C13 1_555 1_555
H10 C13 1_555 1_555
C14 N4 1_555 1_555
C15 C14 1_555 1_555
H11 C15 1_555 1_555
C16 C15 1_555 1_555
H12 C16 1_555 1_555
C17 C16 1_555 1_555
C18 C17 1_555 1_555
H13 C18 1_555 1_555
C19 C14 1_555 1_555
H14 C19 1_555 1_555
O3 Sr1 1_555 1_555
O4 C20 1_555 1_555
C20 C11 1_555 1_555
O5 Sr1 1_555 1_555
H15 O5 1_555 1_555
H16 O5 1_555 1_555
Sr1_2 O2 1_555 1_555
Sr1B O3 1_555 1_555
Sr1B_2 O1 1_555 1_555
O1B Sr1 1_555 1_555
O2_2 Sr1 1_555 1_555
O3B Sr1 1_555 1_555
C1 C2 1_555 1_555
C2 C3 1_555 1_555
C9 C10 1_555 1_555
C11 C12 1_555 1_555
C18 C19 1_555 1_555
O3 C20 1_555 1_555
Sr1B O3B 1_555 1_555
Sr1B_2 O1B 1_555 1_555

#END
