
#######################################################################
#
#                 Cambridge Crystallographic Data Centre
#                                CCDC 
#
#######################################################################
#
# If this CIF has been generated from an entry in the Cambridge 
# Structural Database, then it will include bibliographic, chemical, 
# crystal, experimental, refinement or atomic coordinate data resulting 
# from the CCDC's data processing and validation procedures.
#
#######################################################################

data_IHEPES
_symmetry_cell_setting           monoclinic
_symmetry_space_group_name_H-M   'C c'
_symmetry_Int_Tables_number      9
_space_group_name_Hall           'C -2yc'
loop_
_symmetry_equiv_pos_site_id
_symmetry_equiv_pos_as_xyz
1 x,y,z
2 x,-y,1/2+z
3 1/2+x,1/2+y,z
4 1/2+x,1/2-y,1/2+z
_cell_length_a                   13.1295(15)
_cell_length_b                   12.1859(14)
_cell_length_c                   8.1927(9)
_cell_angle_alpha                90
_cell_angle_beta                 118.359(3)
_cell_angle_gamma                90
_cell_volume                     1153.48
loop_
_atom_site_label
_atom_site_type_symbol
_atom_site_fract_x
_atom_site_fract_y
_atom_site_fract_z
Cu1 Cu 0.31916(2) 0.93266(2) 0.24296(2)
Cl1 Cl 0.45597(3) 1.06090(2) 0.37242(4)
Cl2 Cl 0.20937(2) 1.03109(2) -0.02026(3)
F1 F 0.45695(7) 0.61780(7) 0.66057(10)
F2 F 0.28993(8) 0.69084(7) 0.59638(12)
O1 O 0.16369(7) 0.64159(7) 0.15639(12)
O2 O 0.20774(7) 0.81473(6) 0.12626(11)
N1 N 0.40177(8) 0.81883(7) 0.44357(12)
H1 H 0.479(2) 0.8237(17) 0.503(3)
H2 H 0.379(2) 0.8445(19) 0.522(3)
N2 N 0.64068(8) 0.69445(8) 0.22728(14)
H3 H 0.692(3) 0.665(2) 0.193(4)
H4 H 0.661(2) 0.6660(18) 0.336(3)
H5 H 0.650(2) 0.763(2) 0.247(4)
C1 C 0.23049(8) 0.72097(8) 0.20752(13)
C2 C 0.35393(8) 0.70847(8) 0.37149(13)
C3 C 0.42918(9) 0.65000(8) 0.30016(14)
H6 H 0.5094 0.6446 0.4029
H7 H 0.3997 0.5744 0.2622
C4 C 0.43088(9) 0.70855(9) 0.13585(14)
H8 H 0.3533 0.7023 0.0263
H9 H 0.4467 0.7875 0.1659
C5 C 0.52048(10) 0.66301(10) 0.08632(15)
H10 H 0.5142 0.5820 0.0783
H11 H 0.5047 0.6913 -0.0368
C6 C 0.34806(9) 0.63660(8) 0.51862(14)
H12 H 0.3087 0.5656 0.4631
Cu1A Cu 0.31916(2) 1.06734(2) -0.25704(2)
Cl2A Cl 0.20937(2) 0.96891(2) 0.47974(3)
O3 O 0.16639(9) 0.41944(8) 0.31883(13)
H13 H 0.1341 0.4267 0.3896
H14 H 0.1389 0.4688 0.2316
loop_
_geom_bond_atom_site_label_1
_geom_bond_atom_site_label_2
_geom_bond_site_symmetry_1
_geom_bond_site_symmetry_2
Cu1 Cl1 1_555 1_555
Cl2 Cu1 1_555 1_555
F1 C6 1_555 1_555
F2 C6 1_555 1_555
O1 C1 1_555 1_555
O2 Cu1 1_555 1_555
N1 Cu1 1_555 1_555
H1 N1 1_555 1_555
H2 N1 1_555 1_555
N2 H3 1_555 1_555
H4 N2 1_555 1_555
H5 N2 1_555 1_555
C1 O2 1_555 1_555
C2 N1 1_555 1_555
C3 C2 1_555 1_555
H6 C3 1_555 1_555
H7 C3 1_555 1_555
C4 C3 1_555 1_555
H8 C4 1_555 1_555
H9 C4 1_555 1_555
C5 N2 1_555 1_555
H10 C5 1_555 1_555
H11 C5 1_555 1_555
C6 C2 1_555 1_555
H12 C6 1_555 1_555
O3 H13 1_555 1_555
H14 O3 1_555 1_555
Cu1A Cl2 1_555 1_555
Cl2A Cu1 1_555 1_555
C1 C2 1_555 1_555
C4 C5 1_555 1_555

#END
