
#######################################################################
#
#                 Cambridge Crystallographic Data Centre
#                                CCDC 
#
#######################################################################
#
# If this CIF has been generated from an entry in the Cambridge 
# Structural Database, then it will include bibliographic, chemical, 
# crystal, experimental, refinement or atomic coordinate data resulting 
# from the CCDC's data processing and validation procedures.
#
#######################################################################

data_IHEQUJ
_symmetry_cell_setting           orthorhombic
_symmetry_space_group_name_H-M   'P b c m'
_symmetry_Int_Tables_number      57
_space_group_name_Hall           '-P 2c 2b'
loop_
_symmetry_equiv_pos_site_id
_symmetry_equiv_pos_as_xyz
1 x,y,z
2 -x,-y,1/2+z
3 x,1/2-y,-z
4 -x,1/2+y,1/2-z
5 -x,-y,-z
6 x,y,1/2-z
7 -x,1/2+y,z
8 x,1/2-y,1/2+z
_cell_length_a                   6.58520(10)
_cell_length_b                   13.6808(2)
_cell_length_c                   19.5550(2)
_cell_angle_alpha                90
_cell_angle_beta                 90
_cell_angle_gamma                90
_cell_volume                     1761.73
loop_
_atom_site_label
_atom_site_type_symbol
_atom_site_fract_x
_atom_site_fract_y
_atom_site_fract_z
Ho1 Ho 0.10700(4) 0.2500 0.0000
S1 S 0.39105(8) 0.07432(4) 0.10998(3)
O1 O 0.3613(3) -0.01603(16) 0.07260(11)
O2 O 0.6015(3) 0.09301(17) 0.12575(10)
O3 O 0.2951(4) 0.15721(17) 0.07643(10)
O4 O -0.1273(3) 0.12472(18) 0.01670(12)
O5 O 0.2904(4) 0.3653(2) 0.06383(11)
O6 O -0.0672(3) 0.22659(16) -0.10588(10)
O7 O 0.1501(3) 0.19407(16) -0.18868(9)
C1 C -0.0295(4) 0.21340(18) -0.16719(12)
C2 C -0.2035(4) 0.2194(2) -0.21560(13)
H1 H -0.2939 0.1647 -0.2026
H2 H -0.2767 0.2799 -0.2026
C3 C 0.2628(4) 0.06039(16) 0.18893(12)
C4 C 0.0578(4) 0.03645(19) 0.18860(13)
H3 H -0.0122 0.0279 0.1465
C5 C -0.0436(5) 0.0252(3) 0.2500
H4 H -0.1842 0.0097 0.2500
C6 C 0.3669(5) 0.0735(2) 0.2500
H5 H 0.5064 0.0911 0.2500
H6 H -0.205(5) 0.117(3) 0.0537(13)
H7 H 0.307(9) 0.352(4) 0.1075(12)
H8 H 0.393(5) 0.407(3) 0.059(2)
H9 H -0.181(7) 0.088(3) -0.016(2)
S1E S 0.39105(8) 0.07432(4) 0.39002(3)
O1E O 0.3613(3) -0.01603(16) 0.42740(11)
O2E O 0.6015(3) 0.09301(17) 0.37425(10)
O3E O 0.2951(4) 0.15721(17) 0.42357(10)
C3E C 0.2628(4) 0.06039(16) 0.31107(12)
C4E C 0.0578(4) 0.03645(19) 0.31140(13)
H3E H -0.0122 0.0279 0.3535
O6E O -0.0672(3) 0.22659(16) -0.39412(10)
O7E O 0.1501(3) 0.19407(16) -0.31132(9)
C1E C -0.0295(4) 0.21340(18) -0.33281(12)
C2E C -0.2035(4) 0.2194(2) -0.28440(13)
H1E H -0.2939 0.1647 -0.2974
H2E H -0.2767 0.2799 -0.2974
O4B O -0.1273(3) 0.37528(18) -0.01670(12)
O5B O 0.2904(4) 0.1347(2) -0.06383(11)
H6B H -0.205(5) 0.383(3) -0.0537(13)
H7B H 0.307(9) 0.148(4) -0.1075(12)
H8B H 0.393(5) 0.093(3) -0.059(2)
H9B H -0.181(7) 0.412(3) 0.016(2)
Ho1E Ho 0.10700(4) 0.2500 -0.5000
Ho1E_2 Ho 0.10700(4) 0.2500 0.5000
O3B O 0.2951(4) 0.34279(17) -0.07643(10)
O6B O -0.0672(3) 0.27341(16) 0.10588(10)
loop_
_geom_bond_atom_site_label_1
_geom_bond_atom_site_label_2
_geom_bond_site_symmetry_1
_geom_bond_site_symmetry_2
Ho1 O3 1_555 1_555
S1 O1 1_555 1_555
O2 S1 1_555 1_555
O3 S1 1_555 1_555
O4 Ho1 1_555 1_555
O5 Ho1 1_555 1_555
O6 Ho1 1_555 1_555
O7 C1 1_555 1_555
C1 O6 1_555 1_555
C2 C1 1_555 1_555
H1 C2 1_555 1_555
H2 C2 1_555 1_555
C3 S1 1_555 1_555
C4 C3 1_555 1_555
H3 C4 1_555 1_555
C5 C4 1_555 1_555
H4 C5 1_555 1_555
C6 C3 1_555 1_555
H5 C6 1_555 1_555
H6 O4 1_555 1_555
H7 O5 1_555 1_555
H8 O5 1_555 1_555
H9 O4 1_555 1_555
S1E O1E 1_555 1_555
O2E S1E 1_555 1_555
O3E S1E 1_555 1_555
C3E C6 1_555 1_555
C4E C5 1_555 1_555
H3E C4E 1_555 1_555
O6E C1E 1_555 1_555
O7E C1E 1_555 1_555
C1E C2E 1_555 1_555
C2E C2 1_555 1_555
H1E C2E 1_555 1_555
H2E C2E 1_555 1_555
O4B Ho1 1_555 1_555
O5B Ho1 1_555 1_555
H6B O4B 1_555 1_555
H7B O5B 1_555 1_555
H8B O5B 1_555 1_555
H9B O4B 1_555 1_555
Ho1E O6E 1_555 1_555
Ho1E_2 O3E 1_555 1_555
O3B Ho1 1_555 1_555
O6B Ho1 1_555 1_555
S1E C3E 1_555 1_555
C3E C4E 1_555 1_555

#END
