
#######################################################################
#
#                 Cambridge Crystallographic Data Centre
#                                CCDC 
#
#######################################################################
#
# If this CIF has been generated from an entry in the Cambridge 
# Structural Database, then it will include bibliographic, chemical, 
# crystal, experimental, refinement or atomic coordinate data resulting 
# from the CCDC's data processing and validation procedures.
#
#######################################################################

data_IHEVOG
_symmetry_cell_setting           monoclinic
_symmetry_space_group_name_H-M   'P 21'
_symmetry_Int_Tables_number      4
_space_group_name_Hall           'P 2yb'
loop_
_symmetry_equiv_pos_site_id
_symmetry_equiv_pos_as_xyz
1 x,y,z
2 -x,1/2+y,-z
_cell_length_a                   9.1372(18)
_cell_length_b                   7.6379(15)
_cell_length_c                   9.2014(18)
_cell_angle_alpha                90
_cell_angle_beta                 91.57(3)
_cell_angle_gamma                90
_cell_volume                     641.916
loop_
_atom_site_label
_atom_site_type_symbol
_atom_site_fract_x
_atom_site_fract_y
_atom_site_fract_z
Sm1 Sm 0.989911(18) 0.68458(3) 0.226172(17)
C1 C 1.1407(6) 1.0965(9) 0.1239(6)
O1 O 1.0528(5) 0.9738(6) 0.1515(5)
O2 O 1.1383(4) 1.1849(12) 0.0105(3)
C2 C 1.2597(6) 1.1356(7) 0.2399(6)
H1 H 1.3285 1.0372 0.2402
N1 N 1.3423(5) 1.2943(8) 0.1987(5)
H2 H 1.2902 1.3892 0.2190
H3 H 1.3592 1.2914 0.1040
H4 H 1.4272 1.2974 0.2486
C3 C 1.2008(6) 1.1504(8) 0.3930(5)
H5 H 1.1594 1.0381 0.4192
H6 H 1.2826 1.1729 0.4598
C4 C 1.0860(6) 1.2901(7) 0.4158(6)
O3 O 1.0634(5) 1.4034(6) 0.3165(5)
O4 O 1.0182(5) 1.2893(6) 0.5332(4)
O5 O 1.2455(4) 0.7149(9) 0.3130(4)
O6 O 0.7787(9) 0.4921(9) 0.2314(11)
O7 O 0.7689(7) 0.8698(10) 0.2359(9)
O8 O 1.1650(4) 0.6034(7) 0.0393(5)
H7 H 1.322(3) 0.704(11) 0.268(4)
H8 H 1.287(4) 0.665(10) 0.382(6)
H9 H 0.689(4) 0.514(5) 0.223(9)
H10 H 0.755(5) 0.412(8) 0.287(7)
H11 H 0.709(5) 0.893(8) 0.171(5)
H12 H 0.760(4) 0.970(6) 0.267(8)
H13 H 1.242(5) 0.647(8) 0.016(6)
H14 H 1.152(4) 0.569(10) -0.044(5)
O2A O 0.8617(4) 0.6849(12) -0.0105(3)
O3_2 O 1.0634(5) 0.4034(6) 0.3165(5)
O4A O 0.9818(5) 0.7893(6) 0.4668(4)
Sm1A Sm 1.010089(18) 1.18458(3) -0.226172(17)
Sm1_2 Sm 0.989911(18) 1.68458(3) 0.226172(17)
Sm1A_2 Sm 1.010089(18) 1.18458(3) 0.773828(17)
Cl1 Cl 0.37634(15) 0.6880(5) -0.38157(13)
Cl2 Cl 0.49473(14) 0.6831(5) 0.09203(15)
loop_
_geom_bond_atom_site_label_1
_geom_bond_atom_site_label_2
_geom_bond_site_symmetry_1
_geom_bond_site_symmetry_2
Sm1 O1 1_555 1_555
C1 O1 1_555 1_555
O2 C1 1_555 1_555
C2 C1 1_555 1_555
H1 C2 1_555 1_555
N1 C2 1_555 1_555
H2 N1 1_555 1_555
H3 N1 1_555 1_555
H4 N1 1_555 1_555
C3 C2 1_555 1_555
H5 C3 1_555 1_555
H6 C3 1_555 1_555
C4 C3 1_555 1_555
O3 C4 1_555 1_555
O4 C4 1_555 1_555
O5 Sm1 1_555 1_555
O6 Sm1 1_555 1_555
O7 Sm1 1_555 1_555
O8 Sm1 1_555 1_555
H7 O5 1_555 1_555
H8 O5 1_555 1_555
H9 O6 1_555 1_555
H10 O6 1_555 1_555
H11 O7 1_555 1_555
H12 O7 1_555 1_555
H13 O8 1_555 1_555
H14 O8 1_555 1_555
O2A Sm1 1_555 1_555
O3_2 Sm1 1_555 1_555
O4A Sm1 1_555 1_555
Sm1A O2 1_555 1_555
Sm1_2 O3 1_555 1_555
Sm1A_2 O4 1_555 1_555

#END
