
#######################################################################
#
#                 Cambridge Crystallographic Data Centre
#                                CCDC 
#
#######################################################################
#
# If this CIF has been generated from an entry in the Cambridge 
# Structural Database, then it will include bibliographic, chemical, 
# crystal, experimental, refinement or atomic coordinate data resulting 
# from the CCDC's data processing and validation procedures.
#
#######################################################################

data_IHEWAV
_symmetry_cell_setting           monoclinic
_symmetry_space_group_name_H-M   'C 2/c'
_symmetry_Int_Tables_number      15
_space_group_name_Hall           '-C 2yn'
loop_
_symmetry_equiv_pos_site_id
_symmetry_equiv_pos_as_xyz
1 x,y,z
2 -x,y,1/2-z
3 1/2+x,1/2+y,z
4 1/2-x,1/2+y,1/2-z
5 -x,-y,-z
6 x,-y,1/2+z
7 1/2-x,1/2-y,-z
8 1/2+x,1/2-y,1/2+z
_cell_length_a                   28.266(6)
_cell_length_b                   9.924(2)
_cell_length_c                   20.898(4)
_cell_angle_alpha                90
_cell_angle_beta                 130.358(3)
_cell_angle_gamma                90
_cell_volume                     4467.02
loop_
_atom_site_label
_atom_site_type_symbol
_atom_site_fract_x
_atom_site_fract_y
_atom_site_fract_z
Cu1 Cu 0.187842(18) 0.18616(4) 0.49628(3)
P1 P 0.22029(4) 0.40007(9) 0.41080(6)
C1 C 0.1663(2) 0.4456(5) 0.5436(3)
H1 H 0.1565 0.3873 0.5684
C2 C 0.1648(3) 0.5823(6) 0.5537(4)
H2 H 0.1549 0.6153 0.5854
C3 C 0.1781(3) 0.6680(5) 0.5166(4)
H3 H 0.1781 0.7607 0.5233
C4 C 0.1915(2) 0.6162(4) 0.4692(3)
H4 H 0.1997 0.6738 0.4422
C5 C 0.19294(15) 0.4791(4) 0.4615(2)
C6 C 0.20648(17) 0.5284(4) 0.3380(2)
C7 C 0.1512(2) 0.6029(5) 0.2863(3)
H5 H 0.1203 0.5892 0.2896
C8 C 0.1424(3) 0.6954(6) 0.2311(4)
H6 H 0.1055 0.7439 0.1969
C9 C 0.1870(4) 0.7171(6) 0.2258(4)
H7 H 0.1805 0.7814 0.1885
C10 C 0.2416(3) 0.6459(6) 0.2747(3)
H8 H 0.2717 0.6607 0.2699
C11 C 0.2517(2) 0.5496(5) 0.3324(3)
H9 H 0.2886 0.5010 0.3662
C12 C 0.16152(15) 0.2730(4) 0.3385(2)
C13 C 0.1362(2) 0.2663(5) 0.2556(3)
H10 H 0.1448 0.3331 0.2331
C14 C 0.0978(3) 0.1585(6) 0.2062(3)
H11 H 0.0804 0.1520 0.1503
C15 C 0.0860(3) 0.0621(6) 0.2412(3)
H12 H 0.0604 -0.0107 0.2095
N1 N 0.15068(14) 0.1773(3) 0.37284(19)
C16 C 0.1125(2) 0.0749(5) 0.3235(3)
H13 H 0.1037 0.0099 0.3466
C17 C 0.09150(16) 0.0321(4) 0.4790(3)
C18 C 0.04412(15) 0.0160(4) 0.4902(2)
C19 C 0.03000(16) 0.1211(4) 0.5186(2)
H14 H 0.0502 0.2033 0.5311
C20 C -0.01340(16) 0.1069(4) 0.5286(2)
H15 H -0.0222 0.1789 0.5480
N2 N 0.18127(13) 0.3926(3) 0.49982(19)
O1 O 0.11976(12) 0.1434(3) 0.50155(19)
O2 O 0.10002(15) -0.0642(3) 0.4491(2)
C17D C -0.09150(16) -0.0321(4) 0.5210(3)
C18D C -0.04412(15) -0.0160(4) 0.5098(2)
C19D C -0.03000(16) -0.1211(4) 0.4814(2)
H14D H -0.0502 -0.2033 0.4689
C20D C 0.01340(16) -0.1069(4) 0.4714(2)
H15D H 0.0222 -0.1789 0.4520
O1D O -0.11976(12) -0.1434(3) 0.49845(19)
O2D O -0.10002(15) 0.0642(3) 0.5509(2)
Cu1D Cu -0.187842(18) -0.18616(4) 0.50372(3)
P1D P -0.22029(4) -0.40007(9) 0.58920(6)
C1D C -0.1663(2) -0.4456(5) 0.4564(3)
H1D H -0.1565 -0.3873 0.4316
C2D C -0.1648(3) -0.5823(6) 0.4463(4)
H2D H -0.1549 -0.6153 0.4146
C3D C -0.1781(3) -0.6680(5) 0.4834(4)
H3D H -0.1781 -0.7607 0.4767
C4D C -0.1915(2) -0.6162(4) 0.5308(3)
H4D H -0.1997 -0.6738 0.5578
C5D C -0.19294(15) -0.4791(4) 0.5385(2)
C6D C -0.20648(17) -0.5284(4) 0.6620(2)
C7D C -0.1512(2) -0.6029(5) 0.7137(3)
H5D H -0.1203 -0.5892 0.7104
C8D C -0.1424(3) -0.6954(6) 0.7689(4)
H6D H -0.1055 -0.7439 0.8031
C9D C -0.1870(4) -0.7171(6) 0.7742(4)
H7D H -0.1805 -0.7814 0.8115
C10D C -0.2416(3) -0.6459(6) 0.7253(3)
H8D H -0.2717 -0.6607 0.7301
C11D C -0.2517(2) -0.5496(5) 0.6676(3)
H9D H -0.2886 -0.5010 0.6338
C12D C -0.16152(15) -0.2730(4) 0.6615(2)
C13D C -0.1362(2) -0.2663(5) 0.7444(3)
H10D H -0.1448 -0.3331 0.7669
C14D C -0.0978(3) -0.1585(6) 0.7938(3)
H11D H -0.0804 -0.1520 0.8497
C15D C -0.0860(3) -0.0621(6) 0.7588(3)
H12D H -0.0604 0.0107 0.7905
N1D N -0.15068(14) -0.1773(3) 0.62716(19)
C16D C -0.1125(2) -0.0749(5) 0.6765(3)
H13D H -0.1037 -0.0099 0.6534
N2D N -0.18127(13) -0.3926(3) 0.50018(19)
Cu1B Cu -0.312158(18) -0.31384(4) 0.49628(3)
Cu1F Cu 0.312158(18) 0.31384(4) 0.50372(3)
P1B P -0.27971(4) -0.09993(9) 0.41080(6)
P1F P 0.27971(4) 0.09993(9) 0.58920(6)
O3 O 0.0221(14) 0.425(5) 0.3094(16)
H16 H 0.0566 0.3936 0.3325
C21 C 0.0136(9) 0.443(3) 0.3739(16)
H17 H 0.0146 0.3569 0.3954
H18 H -0.0257 0.4858 0.3477
H19 H 0.0464 0.4987 0.4192
O4 O 0.0000 0.5000 0.5000
O5? O 0.9811(3) 0.2591(8) 0.6735(4)
C22? C 1.0000 0.222(4) 0.7500
loop_
_geom_bond_atom_site_label_1
_geom_bond_atom_site_label_2
_geom_bond_site_symmetry_1
_geom_bond_site_symmetry_2
Cu1 N1 1_555 1_555
P1 C5 1_555 1_555
C1 H1 1_555 1_555
C2 C1 1_555 1_555
H2 C2 1_555 1_555
C3 C2 1_555 1_555
H3 C3 1_555 1_555
C4 C3 1_555 1_555
H4 C4 1_555 1_555
C5 C4 1_555 1_555
C6 P1 1_555 1_555
C7 C6 1_555 1_555
H5 C7 1_555 1_555
C8 C7 1_555 1_555
H6 C8 1_555 1_555
C9 C8 1_555 1_555
H7 C9 1_555 1_555
C10 C9 1_555 1_555
H8 C10 1_555 1_555
C11 C6 1_555 1_555
H9 C11 1_555 1_555
C12 P1 1_555 1_555
C13 C12 1_555 1_555
H10 C13 1_555 1_555
C14 C13 1_555 1_555
H11 C14 1_555 1_555
C15 C14 1_555 1_555
H12 C15 1_555 1_555
N1 C12 1_555 1_555
C16 C15 1_555 1_555
H13 C16 1_555 1_555
C17 C18 1_555 1_555
C18 C19 1_555 1_555
C19 H14 1_555 1_555
C20 C19 1_555 1_555
H15 C20 1_555 1_555
N2 Cu1 1_555 1_555
O1 Cu1 1_555 1_555
O2 C17 1_555 1_555
O3 H16 1_555 1_555
C21 O3 1_555 1_555
H17 C21 1_555 1_555
H18 C21 1_555 1_555
H19 C21 1_555 1_555
C17D C18D 1_555 1_555
C18D C20 1_555 1_555
C19D C18D 1_555 1_555
H14D C19D 1_555 1_555
C20D C18 1_555 1_555
H15D C20D 1_555 1_555
O1D C17D 1_555 1_555
O2D C17D 1_555 1_555
Cu1D O1D 1_555 1_555
P1D C5D 1_555 1_555
C1D H1D 1_555 1_555
C2D C1D 1_555 1_555
H2D C2D 1_555 1_555
C3D C2D 1_555 1_555
H3D C3D 1_555 1_555
C4D C3D 1_555 1_555
H4D C4D 1_555 1_555
C5D C4D 1_555 1_555
C6D P1D 1_555 1_555
C7D C6D 1_555 1_555
H5D C7D 1_555 1_555
C8D C7D 1_555 1_555
H6D C8D 1_555 1_555
C9D C8D 1_555 1_555
H7D C9D 1_555 1_555
C10D C9D 1_555 1_555
H8D C10D 1_555 1_555
C11D C6D 1_555 1_555
H9D C11D 1_555 1_555
C12D P1D 1_555 1_555
C13D C12D 1_555 1_555
H10D C13D 1_555 1_555
C14D C13D 1_555 1_555
H11D C14D 1_555 1_555
C15D C14D 1_555 1_555
H12D C15D 1_555 1_555
N1D Cu1D 1_555 1_555
C16D C15D 1_555 1_555
H13D C16D 1_555 1_555
N2D Cu1D 1_555 1_555
Cu1B P1D 1_555 1_555
Cu1F P1 1_555 1_555
P1B Cu1D 1_555 1_555
P1F Cu1 1_555 1_555
C1 N2 1_555 1_555
C5 N2 1_555 1_555
C10 C11 1_555 1_555
N1 C16 1_555 1_555
C17 O1 1_555 1_555
C19D C20D 1_555 1_555
C1D N2D 1_555 1_555
C5D N2D 1_555 1_555
C10D C11D 1_555 1_555
C12D N1D 1_555 1_555
N1D C16D 1_555 1_555

#END
