
#######################################################################
#
#                 Cambridge Crystallographic Data Centre
#                                CCDC 
#
#######################################################################
#
# If this CIF has been generated from an entry in the Cambridge 
# Structural Database, then it will include bibliographic, chemical, 
# crystal, experimental, refinement or atomic coordinate data resulting 
# from the CCDC's data processing and validation procedures.
#
#######################################################################

data_IHEWEZ
_symmetry_cell_setting           monoclinic
_symmetry_space_group_name_H-M   'P 21/n'
_symmetry_Int_Tables_number      14
_space_group_name_Hall           '-P 2yn'
loop_
_symmetry_equiv_pos_site_id
_symmetry_equiv_pos_as_xyz
1 x,y,z
2 1/2-x,1/2+y,1/2-z
3 -x,-y,-z
4 1/2+x,1/2-y,1/2+z
_cell_length_a                   14.586(2)
_cell_length_b                   18.939(3)
_cell_length_c                   15.051(3)
_cell_angle_alpha                90
_cell_angle_beta                 105.819(3)
_cell_angle_gamma                90
_cell_volume                     4000.29
loop_
_atom_site_label
_atom_site_type_symbol
_atom_site_fract_x
_atom_site_fract_y
_atom_site_fract_z
Cu1 Cu 0.87719(3) 0.12832(3) 0.24745(4)
Cu2 Cu 0.12007(3) 0.11413(3) 0.25093(4)
C1 C 1.0642(3) 0.2241(2) 0.3678(3)
C2 C 1.0667(3) 0.2622(2) 0.4469(3)
H1 H 1.0167 0.2921 0.4485
C3 C 1.1440(3) 0.2553(2) 0.5233(4)
H2 H 1.1465 0.2793 0.5778
C4 C 1.2179(4) 0.2114(3) 0.5166(4)
H3 H 1.2718 0.2067 0.5662
C5 C 1.2107(3) 0.1750(2) 0.4358(3)
H4 H 1.2607 0.1457 0.4320
C6 C 1.0070(3) 0.2429(2) 0.1690(3)
C7 C 0.9763(3) 0.2989(3) 0.1069(3)
H5 H 0.9333 0.3318 0.1178
C8 C 1.0091(4) 0.3054(3) 0.0303(4)
H6 H 0.9874 0.3412 -0.0125
C9 C 1.0766(4) 0.2562(3) 0.0186(4)
H7 H 1.1015 0.2590 -0.0319
C10 C 1.1047(3) 0.2047(3) 0.0819(3)
H8 H 1.1510 0.1733 0.0742
C11 C 0.9020(3) 0.3087(2) 0.2809(3)
C12 C 0.9513(4) 0.3725(2) 0.2904(4)
H9 H 1.0154 0.3726 0.2919
C13 C 0.9065(5) 0.4353(3) 0.2977(5)
H10 H 0.9396 0.4777 0.3014
C14 C 0.8139(6) 0.4356(3) 0.2997(5)
H11 H 0.7846 0.4778 0.3076
C15 C 0.7642(5) 0.3745(4) 0.2901(5)
H12 H 0.7002 0.3755 0.2890
C16 C 0.8080(3) 0.3086(3) 0.2817(4)
H13 H 0.7740 0.2666 0.2768
C17 C 0.6717(3) 0.1398(2) 0.2579(3)
C18 C 0.5702(3) 0.1238(2) 0.2071(3)
C19 C 0.5447(3) 0.1049(2) 0.1144(3)
H14 H 0.5911 0.1025 0.0827
C20 C 0.4514(3) 0.0897(3) 0.0690(3)
H15 H 0.4350 0.0768 0.0070
C21 C 0.3820(3) 0.0935(2) 0.1161(3)
H16 H 0.3186 0.0851 0.0847
C22 C 0.4059(3) 0.1096(2) 0.2088(3)
C23 C 0.4999(3) 0.1247(2) 0.2539(3)
H17 H 0.5164 0.1355 0.3166
C24 C 0.3320(3) 0.1082(2) 0.2616(3)
C25 C -0.0602(3) 0.0174(2) 0.1307(3)
C26 C -0.0712(3) -0.0265(2) 0.0549(3)
H18 H -0.0298 -0.0642 0.0572
C27 C -0.1438(3) -0.0140(3) -0.0242(3)
H19 H -0.1517 -0.0430 -0.0757
C28 C -0.2044(3) 0.0419(3) -0.0255(4)
H20 H -0.2534 0.0519 -0.0781
C29 C -0.1912(3) 0.0822(2) 0.0518(3)
H21 H -0.2332 0.1192 0.0512
C30 C -0.0250(3) -0.0063(2) 0.3233(3)
C31 C -0.0033(3) -0.0659(2) 0.3806(4)
H22 H 0.0457 -0.0962 0.3768
C32 C -0.0553(4) -0.0790(3) 0.4423(4)
H23 H -0.0424 -0.1182 0.4808
C33 C -0.1270(4) -0.0328(3) 0.4459(4)
H24 H -0.1642 -0.0410 0.4862
C34 C -0.1431(3) 0.0254(2) 0.3896(3)
H25 H -0.1915 0.0563 0.3931
C35 C 0.1042(3) -0.0668(2) 0.2323(3)
C36 C 0.0602(4) -0.1317(2) 0.2055(4)
H26 H -0.0059 -0.1349 0.1880
C37 C 0.1157(5) -0.1921(3) 0.2049(4)
H27 H 0.0864 -0.2350 0.1847
C38 C 0.2128(5) -0.1878(3) 0.2341(5)
H28 H 0.2497 -0.2279 0.2348
C39 C 0.2558(4) -0.1241(3) 0.2624(5)
H29 H 0.3219 -0.1213 0.2825
C40 C 0.2018(3) -0.0640(3) 0.2612(4)
H30 H 0.2319 -0.0212 0.2803
N1 N -0.1207(2) 0.07127(17) 0.1285(3)
N2 N -0.0928(2) 0.03996(18) 0.3301(3)
N3 N 1.1343(2) 0.18032(17) 0.3623(3)
N4 N 1.0706(2) 0.19568(18) 0.1553(3)
O1 O 0.3600(2) 0.1051(2) 0.3469(3)
O2 O 0.2463(2) 0.10770(17) 0.2148(2)
O3 O 0.7323(2) 0.13054(16) 0.2122(2)
O4 O 0.6910(2) 0.16079(19) 0.3387(2)
P1 P 0.95815(7) 0.22523(5) 0.26741(8)
P2 P 0.03913(8) 0.01520(6) 0.23721(8)
Cu1_2 Cu -0.12281(3) 0.12832(3) 0.24745(4)
Cu2_2 Cu 1.12007(3) 0.11413(3) 0.25093(4)
N1_2 N 0.8793(2) 0.07127(17) 0.1285(3)
N2_2 N 0.9072(2) 0.03996(18) 0.3301(3)
N3_2 N 0.1343(2) 0.18032(17) 0.3623(3)
N4_2 N 0.0706(2) 0.19568(18) 0.1553(3)
C41 C 0.8447(5) 0.2298(4) 0.5313(5)
H31 H 0.8170 0.2011 0.5699
H32 H 0.8005 0.2661 0.5029
H33 H 0.9023 0.2509 0.5682
O5 O 0.8648(3) 0.1886(3) 0.4644(4)
H34 H 0.8156 0.1705 0.4330
C42 C 0.3570(8) 0.0427(6) 0.5122(9)
H35 H 0.4060 0.0608 0.4869
H36 H 0.3527 0.0716 0.5633
H37 H 0.2971 0.0433 0.4656
H38 H 0.330(2) -0.0493(16) 0.494(2)
O6 O 0.3773(10) -0.0205(6) 0.5400(10)
loop_
_geom_bond_atom_site_label_1
_geom_bond_atom_site_label_2
_geom_bond_site_symmetry_1
_geom_bond_site_symmetry_2
Cu1 O3 1_555 1_555
Cu2 O2 1_555 1_555
C1 C2 1_555 1_555
C2 H1 1_555 1_555
C3 C2 1_555 1_555
H2 C3 1_555 1_555
C4 C3 1_555 1_555
H3 C4 1_555 1_555
C5 C4 1_555 1_555
H4 C5 1_555 1_555
C6 C7 1_555 1_555
C7 H5 1_555 1_555
C8 C7 1_555 1_555
H6 C8 1_555 1_555
C9 C8 1_555 1_555
H7 C9 1_555 1_555
C10 C9 1_555 1_555
H8 C10 1_555 1_555
C11 C12 1_555 1_555
C12 H9 1_555 1_555
C13 C12 1_555 1_555
H10 C13 1_555 1_555
C14 C13 1_555 1_555
H11 C14 1_555 1_555
C15 C14 1_555 1_555
H12 C15 1_555 1_555
C16 C11 1_555 1_555
H13 C16 1_555 1_555
C17 C18 1_555 1_555
C18 C19 1_555 1_555
C19 H14 1_555 1_555
C20 C19 1_555 1_555
H15 C20 1_555 1_555
C21 C20 1_555 1_555
H16 C21 1_555 1_555
C22 C21 1_555 1_555
C23 C18 1_555 1_555
H17 C23 1_555 1_555
C24 C22 1_555 1_555
C25 C26 1_555 1_555
C26 H18 1_555 1_555
C27 C26 1_555 1_555
H19 C27 1_555 1_555
C28 C27 1_555 1_555
H20 C28 1_555 1_555
C29 C28 1_555 1_555
H21 C29 1_555 1_555
C30 C31 1_555 1_555
C31 H22 1_555 1_555
C32 C31 1_555 1_555
H23 C32 1_555 1_555
C33 C32 1_555 1_555
H24 C33 1_555 1_555
C34 C33 1_555 1_555
H25 C34 1_555 1_555
C35 C36 1_555 1_555
C36 H26 1_555 1_555
C37 C36 1_555 1_555
H27 C37 1_555 1_555
C38 C37 1_555 1_555
H28 C38 1_555 1_555
C39 C38 1_555 1_555
H29 C39 1_555 1_555
C40 C35 1_555 1_555
H30 C40 1_555 1_555
N1 C25 1_555 1_555
N2 C30 1_555 1_555
N3 C1 1_555 1_555
N4 C6 1_555 1_555
O1 C24 1_555 1_555
O2 C24 1_555 1_555
O3 C17 1_555 1_555
O4 C17 1_555 1_555
P1 Cu1 1_555 1_555
P2 Cu2 1_555 1_555
C41 H31 1_555 1_555
H32 C41 1_555 1_555
H33 C41 1_555 1_555
O5 C41 1_555 1_555
H34 O5 1_555 1_555
C42 H35 1_555 1_555
H36 C42 1_555 1_555
H37 C42 1_555 1_555
H38 O6 1_555 1_555
O6 C42 1_555 1_555
Cu1_2 N1 1_555 1_555
Cu2_2 N3 1_555 1_555
N1_2 Cu1 1_555 1_555
N2_2 Cu1 1_555 1_555
N3_2 Cu2 1_555 1_555
N4_2 Cu2 1_555 1_555
C1 P1 1_555 1_555
C5 N3 1_555 1_555
C6 P1 1_555 1_555
C10 N4 1_555 1_555
C11 P1 1_555 1_555
C15 C16 1_555 1_555
C22 C23 1_555 1_555
C25 P2 1_555 1_555
C29 N1 1_555 1_555
C30 P2 1_555 1_555
C34 N2 1_555 1_555
C35 P2 1_555 1_555
C39 C40 1_555 1_555
N2 Cu1_2 1_555 1_555
N4 Cu2_2 1_555 1_555

#END
