
#######################################################################
#
#                 Cambridge Crystallographic Data Centre
#                                CCDC 
#
#######################################################################
#
# If this CIF has been generated from an entry in the Cambridge 
# Structural Database, then it will include bibliographic, chemical, 
# crystal, experimental, refinement or atomic coordinate data resulting 
# from the CCDC's data processing and validation procedures.
#
#######################################################################

data_IHIBOQ
_symmetry_cell_setting           monoclinic
_symmetry_space_group_name_H-M   'P 21/c'
_symmetry_Int_Tables_number      14
_space_group_name_Hall           '-P 2ybc'
loop_
_symmetry_equiv_pos_site_id
_symmetry_equiv_pos_as_xyz
1 x,y,z
2 x,1/2-y,1/2+z
3 -x,-y,-z
4 -x,1/2+y,1/2-z
_cell_length_a                   12.515(2)
_cell_length_b                   9.537(2)
_cell_length_c                   12.683(2)
_cell_angle_alpha                90
_cell_angle_beta                 112.54(1)
_cell_angle_gamma                90
_cell_volume                     1398.15
loop_
_atom_site_label
_atom_site_type_symbol
_atom_site_fract_x
_atom_site_fract_y
_atom_site_fract_z
I1 I 0.33036(3) 0.09643(3) 0.96511(2)
Cu1 Cu 0.49589(5) 0.05368(6) 0.89015(5)
Fe1 Fe 0.13655(5) -0.03135(6) 0.30312(5)
N1 N 0.4252(3) -0.0562(3) 0.7373(3)
N2 N 0.4292(3) -0.2592(4) 0.6313(3)
C1 C 0.3235(4) -0.0192(4) 0.6565(3)
C2 C 0.2702(4) -0.0990(4) 0.5577(3)
C3 C 0.3285(4) -0.2211(4) 0.5506(3)
C4 C 0.4734(4) -0.1737(4) 0.7222(3)
C5 C 0.1588(4) -0.0632(4) 0.4681(3)
C6 C 0.1112(4) 0.0733(4) 0.4336(4)
C7 C 0.0039(4) 0.0550(5) 0.3387(4)
C8 C -0.0151(4) -0.0902(5) 0.3156(4)
C9 C 0.0793(4) -0.1642(4) 0.3957(4)
C10 C 0.2981(5) -0.0278(9) 0.2999(5)
C11 C 0.2355(6) 0.0907(6) 0.2435(6)
C12 C 0.1351(6) 0.0449(7) 0.1519(4)
C13 C 0.1382(7) -0.1021(6) 0.1520(5)
C14 C 0.2367(6) -0.1448(7) 0.2415(6)
H1 H 0.2865 0.0638 0.6666
H2 H 0.2949 -0.2796 0.4856
H3 H 0.5451 -0.2000 0.7800
H4 H 0.1451 0.1599 0.4665
H5 H -0.0457 0.1280 0.2968
H6 H -0.0799 -0.1307 0.2566
H7 H 0.0888 -0.2631 0.4002
H8 H 0.3693 -0.0278 0.3639
H9 H 0.2563 0.1858 0.2638
H10 H 0.0774 0.1030 0.0997
H11 H 0.0820 -0.1618 0.0995
H12 H 0.2593 -0.2397 0.2607
Cu1B Cu 0.50411(5) -0.05368(6) 1.10985(5)
I1B I 0.66964(3) -0.09643(3) 1.03489(2)
N2C N 0.5708(3) 0.2408(4) 0.8687(3)
Cu1C Cu 0.50411(5) -0.44632(6) 0.60985(5)
loop_
_geom_bond_atom_site_label_1
_geom_bond_atom_site_label_2
_geom_bond_site_symmetry_1
_geom_bond_site_symmetry_2
I1 Cu1 1_555 1_555
Cu1 N1 1_555 1_555
Fe1 C5 1_555 1_555
N1 C1 1_555 1_555
N2 C3 1_555 1_555
C1 C2 1_555 1_555
C2 C3 1_555 1_555
C3 H2 1_555 1_555
C4 N1 1_555 1_555
C5 C2 1_555 1_555
C6 Fe1 1_555 1_555
C7 Fe1 1_555 1_555
C8 Fe1 1_555 1_555
C9 Fe1 1_555 1_555
C10 Fe1 1_555 1_555
C11 Fe1 1_555 1_555
C12 Fe1 1_555 1_555
C13 Fe1 1_555 1_555
C14 Fe1 1_555 1_555
H1 C1 1_555 1_555
H3 C4 1_555 1_555
H4 C6 1_555 1_555
H5 C7 1_555 1_555
H6 C8 1_555 1_555
H7 C9 1_555 1_555
H8 C10 1_555 1_555
H9 C11 1_555 1_555
H10 C12 1_555 1_555
H11 C13 1_555 1_555
H12 C14 1_555 1_555
Cu1B I1 1_555 1_555
I1B Cu1 1_555 1_555
N2C Cu1 1_555 1_555
Cu1C N2 1_555 1_555
N2 C4 1_555 1_555
C5 C6 1_555 1_555
C5 C9 1_555 1_555
C6 C7 1_555 1_555
C7 C8 1_555 1_555
C8 C9 1_555 1_555
C10 C11 1_555 1_555
C10 C14 1_555 1_555
C11 C12 1_555 1_555
C12 C13 1_555 1_555
C13 C14 1_555 1_555
Cu1B I1B 1_555 1_555

#END
