
#######################################################################
#
#                 Cambridge Crystallographic Data Centre
#                                CCDC 
#
#######################################################################
#
# If this CIF has been generated from an entry in the Cambridge 
# Structural Database, then it will include bibliographic, chemical, 
# crystal, experimental, refinement or atomic coordinate data resulting 
# from the CCDC's data processing and validation procedures.
#
#######################################################################

data_IHIBIK
_symmetry_cell_setting           triclinic
_symmetry_space_group_name_H-M   'P -1'
_symmetry_Int_Tables_number      2
_space_group_name_Hall           '-P 1'
loop_
_symmetry_equiv_pos_site_id
_symmetry_equiv_pos_as_xyz
1 x,y,z
2 -x,-y,-z
_cell_length_a                   11.437(6)
_cell_length_b                   12.002(4)
_cell_length_c                   10.862(7)
_cell_angle_alpha                90.70(4)
_cell_angle_beta                 90.22(5)
_cell_angle_gamma                112.06(3)
_cell_volume                     1381.68
loop_
_atom_site_label
_atom_site_type_symbol
_atom_site_fract_x
_atom_site_fract_y
_atom_site_fract_z
Cu1 Cu 1.0000 0.5000 1.0000
Cu2 Cu 1.0000 1.0000 1.0000
Fe1 Fe 1.48189(6) 0.82610(6) 1.29693(6)
F1 F 1.0182(9) 0.7466(5) 0.6713(5)
F2 F 0.8861(5) 0.5952(7) 0.5980(5)
F3 F 1.0653(5) 0.6472(5) 0.5301(4)
F4 F 1.3968(4) 0.5361(6) 0.8907(7)
F5 F 1.3721(6) 0.5213(7) 0.7027(6)
F6 F 1.3026(5) 0.3722(4) 0.8140(7)
F7 F 0.9828(6) 0.7654(3) 1.3202(4)
F8 F 0.8646(4) 0.8502(5) 1.3925(4)
F9 F 1.0516(5) 0.9012(4) 1.4583(3)
F10 F 1.3962(3) 1.2312(4) 1.1757(5)
F11 F 1.3134(4) 1.2870(4) 1.3206(3)
F12 F 1.2997(4) 1.3467(3) 1.1473(5)
O1 O 0.9523(3) 0.5375(3) 0.8138(3)
O2 O 1.1440(3) 0.4631(2) 0.9226(3)
O3 O 0.9531(3) 0.9271(2) 1.1616(2)
O4 O 1.1386(2) 1.1371(2) 1.0701(2)
N1 N 1.1136(3) 0.6756(2) 1.0194(3)
N2 N 1.1347(3) 0.8776(2) 1.0028(3)
C1 C 1.0694(3) 0.7614(3) 0.9934(4)
C2 C 1.2321(3) 0.7111(3) 1.0610(3)
C3 C 1.3086(3) 0.8314(3) 1.0771(3)
C4 C 1.2543(3) 0.9123(3) 1.0441(4)
C5 C 1.4368(4) 0.8692(3) 1.1280(4)
C6 C 1.5014(4) 0.9769(4) 1.1994(5)
C7 C 1.6225(5) 0.9765(5) 1.2300(5)
C8 C 1.6339(4) 0.8722(5) 1.1812(5)
C9 C 1.5197(4) 0.8050(4) 1.1183(4)
C10 C 1.3228(6) 0.7165(8) 1.3794(6)
C11 C 1.3790(10) 0.8196(7) 1.4502(7)
C12 C 1.5017(9) 0.8227(8) 1.4826(6)
C13 C 1.5145(9) 0.7212(8) 1.4304(7)
C14 C 1.4039(9) 0.6581(6) 1.3672(7)
C15 C 1.0055(7) 0.6429(6) 0.6304(5)
C16 C 1.0345(5) 0.5694(4) 0.7341(4)
C17 C 1.1491(5) 0.5546(4) 0.7281(4)
C18 C 1.1918(4) 0.5002(3) 0.8204(4)
C19 C 1.3169(5) 0.4841(5) 0.8013(7)
C20 C 0.9810(6) 0.8681(5) 1.3579(5)
C21 C 1.0232(4) 0.9601(4) 1.2548(4)
C22 C 1.1306(4) 1.0612(4) 1.2719(4)
C23 C 1.1780(3) 1.1438(3) 1.1790(4)
C24 C 1.2981(4) 1.2555(4) 1.2060(5)
H1 H 0.9842 0.7363 0.9660
H2 H 1.2653 0.6518 1.0805
H3 H 1.3036 0.9959 1.0510
H4 H 1.4697 1.0369 1.2214
H5 H 1.6846 1.0360 1.2787
H6 H 1.7049 0.8500 1.1900
H7 H 1.5016 0.7304 1.0762
H8 H 1.2404 0.6905 1.3446
H9 H 1.3425 0.8755 1.4747
H10 H 1.5628 0.8825 1.5320
H11 H 1.5861 0.6997 1.4369
H12 H 1.3869 0.5852 1.3221
H13 H 1.2004 0.5828 0.6577
H14 H 1.1733 1.0747 1.3492
F1A F 0.9818(9) 0.2534(5) 1.3287(5)
F2A F 1.1139(5) 0.4048(7) 1.4020(5)
F3A F 0.9347(5) 0.3528(5) 1.4699(4)
F4A F 0.6032(4) 0.4639(6) 1.1093(7)
F5A F 0.6279(6) 0.4787(7) 1.2973(6)
F6A F 0.6974(5) 0.6278(4) 1.1860(7)
O1A O 1.0477(3) 0.4625(3) 1.1862(3)
O2A O 0.8560(3) 0.5369(2) 1.0774(3)
C15A C 0.9945(7) 0.3571(6) 1.3696(5)
C16A C 0.9655(5) 0.4306(4) 1.2659(4)
C17A C 0.8509(5) 0.4454(4) 1.2719(4)
C18A C 0.8082(4) 0.4998(3) 1.1796(4)
C19A C 0.6831(5) 0.5159(5) 1.1987(7)
H13A H 0.7996 0.4172 1.3423
N1A N 0.8864(3) 0.3244(2) 0.9806(3)
N2A N 0.8653(3) 0.1224(2) 0.9972(3)
C1A C 0.9306(3) 0.2386(3) 1.0066(4)
C2A C 0.7679(3) 0.2889(3) 0.9390(3)
C3A C 0.6914(3) 0.1686(3) 0.9229(3)
C4A C 0.7457(3) 0.0877(3) 0.9559(4)
C5A C 0.5632(4) 0.1308(3) 0.8720(4)
C6A C 0.4986(4) 0.0231(4) 0.8006(5)
C7A C 0.3775(5) 0.0235(5) 0.7700(5)
C8A C 0.3661(4) 0.1278(5) 0.8188(5)
C9A C 0.4803(4) 0.1950(4) 0.8817(4)
H1A H 1.0158 0.2637 1.0340
H2A H 0.7347 0.3482 0.9195
H3A H 0.6964 0.0041 0.9490
H4A H 0.5303 -0.0369 0.7786
H5A H 0.3154 -0.0360 0.7213
H6A H 0.2951 0.1500 0.8100
H7A H 0.4984 0.2696 0.9238
Fe1A Fe 0.51811(6) 0.17390(6) 0.70307(6)
F7A F 1.0172(6) 1.2346(3) 0.6798(4)
F8A F 1.1354(4) 1.1498(5) 0.6075(4)
F9A F 0.9484(5) 1.0988(4) 0.5417(3)
F10A F 0.6038(3) 0.7688(4) 0.8243(5)
F11A F 0.6866(4) 0.7130(4) 0.6794(3)
F12A F 0.7003(4) 0.6533(3) 0.8527(5)
O3A O 1.0469(3) 1.0729(2) 0.8384(2)
O4A O 0.8614(2) 0.8629(2) 0.9299(2)
C20A C 1.0190(6) 1.1319(5) 0.6421(5)
C21A C 0.9768(4) 1.0399(4) 0.7452(4)
C22A C 0.8694(4) 0.9388(4) 0.7281(4)
C23A C 0.8220(3) 0.8562(3) 0.8210(4)
C24A C 0.7019(4) 0.7445(4) 0.7940(5)
H14A H 0.8267 0.9253 0.6508
C10A C 0.6772(6) 0.2835(8) 0.6206(6)
C11A C 0.6210(10) 0.1804(7) 0.5498(7)
C12A C 0.4983(9) 0.1773(8) 0.5174(6)
C13A C 0.4855(9) 0.2788(8) 0.5696(7)
C14A C 0.5961(9) 0.3419(6) 0.6328(7)
H8A H 0.7596 0.3095 0.6554
H9A H 0.6575 0.1245 0.5253
H10A H 0.4372 0.1175 0.4680
H11A H 0.4139 0.3003 0.5631
H12A H 0.6131 0.4148 0.6779
N2A_2 N 0.8653(3) 1.1224(2) 0.9972(3)
Cu2_2 Cu 1.0000 0.0000 1.0000
loop_
_geom_bond_atom_site_label_1
_geom_bond_atom_site_label_2
_geom_bond_site_symmetry_1
_geom_bond_site_symmetry_2
Cu1 O1 1_555 1_555
Cu2 O3 1_555 1_555
Fe1 C5 1_555 1_555
F1 C15 1_555 1_555
F2 C15 1_555 1_555
F3 C15 1_555 1_555
F4 C19 1_555 1_555
F5 C19 1_555 1_555
F6 C19 1_555 1_555
F7 C20 1_555 1_555
F8 C20 1_555 1_555
F9 C20 1_555 1_555
F10 C24 1_555 1_555
F11 C24 1_555 1_555
F12 C24 1_555 1_555
O1 C16 1_555 1_555
O2 Cu1 1_555 1_555
O3 C21 1_555 1_555
O4 Cu2 1_555 1_555
N1 Cu1 1_555 1_555
N2 Cu2 1_555 1_555
C1 N1 1_555 1_555
C2 N1 1_555 1_555
C3 C2 1_555 1_555
C4 N2 1_555 1_555
C5 C3 1_555 1_555
C6 Fe1 1_555 1_555
C7 Fe1 1_555 1_555
C8 Fe1 1_555 1_555
C9 Fe1 1_555 1_555
C10 Fe1 1_555 1_555
C11 Fe1 1_555 1_555
C12 Fe1 1_555 1_555
C13 Fe1 1_555 1_555
C14 Fe1 1_555 1_555
C15 C16 1_555 1_555
C16 C17 1_555 1_555
C17 C18 1_555 1_555
C18 O2 1_555 1_555
C19 C18 1_555 1_555
C20 C21 1_555 1_555
C21 C22 1_555 1_555
C22 C23 1_555 1_555
C23 O4 1_555 1_555
C24 C23 1_555 1_555
H1 C1 1_555 1_555
H2 C2 1_555 1_555
H3 C4 1_555 1_555
H4 C6 1_555 1_555
H5 C7 1_555 1_555
H6 C8 1_555 1_555
H7 C9 1_555 1_555
H8 C10 1_555 1_555
H9 C11 1_555 1_555
H10 C12 1_555 1_555
H11 C13 1_555 1_555
H12 C14 1_555 1_555
H13 C17 1_555 1_555
H14 C22 1_555 1_555
F1A C15A 1_555 1_555
F2A C15A 1_555 1_555
F3A C15A 1_555 1_555
F4A C19A 1_555 1_555
F5A C19A 1_555 1_555
F6A C19A 1_555 1_555
O1A Cu1 1_555 1_555
O2A Cu1 1_555 1_555
C15A C16A 1_555 1_555
C16A O1A 1_555 1_555
C17A C16A 1_555 1_555
C18A O2A 1_555 1_555
C19A C18A 1_555 1_555
H13A C17A 1_555 1_555
N1A Cu1 1_555 1_555
N2A C1A 1_555 1_555
C1A N1A 1_555 1_555
C2A N1A 1_555 1_555
C3A C2A 1_555 1_555
C4A N2A 1_555 1_555
C5A C3A 1_555 1_555
C6A C5A 1_555 1_555
C7A C6A 1_555 1_555
C8A C7A 1_555 1_555
C9A C5A 1_555 1_555
H1A C1A 1_555 1_555
H2A C2A 1_555 1_555
H3A C4A 1_555 1_555
H4A C6A 1_555 1_555
H5A C7A 1_555 1_555
H6A C8A 1_555 1_555
H7A C9A 1_555 1_555
Fe1A C5A 1_555 1_555
F7A C20A 1_555 1_555
F8A C20A 1_555 1_555
F9A C20A 1_555 1_555
F10A C24A 1_555 1_555
F11A C24A 1_555 1_555
F12A C24A 1_555 1_555
O3A Cu2 1_555 1_555
O4A Cu2 1_555 1_555
C20A C21A 1_555 1_555
C21A O3A 1_555 1_555
C22A C21A 1_555 1_555
C23A O4A 1_555 1_555
C24A C23A 1_555 1_555
H14A C22A 1_555 1_555
C10A Fe1A 1_555 1_555
C11A Fe1A 1_555 1_555
C12A Fe1A 1_555 1_555
C13A Fe1A 1_555 1_555
C14A Fe1A 1_555 1_555
H8A C10A 1_555 1_555
H9A C11A 1_555 1_555
H10A C12A 1_555 1_555
H11A C13A 1_555 1_555
H12A C14A 1_555 1_555
N2A_2 Cu2 1_555 1_555
Cu2_2 N2A 1_555 1_555
N2 C1 1_555 1_555
C3 C4 1_555 1_555
C5 C6 1_555 1_555
C5 C9 1_555 1_555
C6 C7 1_555 1_555
C7 C8 1_555 1_555
C8 C9 1_555 1_555
C10 C11 1_555 1_555
C10 C14 1_555 1_555
C11 C12 1_555 1_555
C12 C13 1_555 1_555
C13 C14 1_555 1_555
C17A C18A 1_555 1_555
C3A C4A 1_555 1_555
C6A Fe1A 1_555 1_555
C7A Fe1A 1_555 1_555
C8A C9A 1_555 1_555
C8A Fe1A 1_555 1_555
C9A Fe1A 1_555 1_555
C22A C23A 1_555 1_555
C10A C11A 1_555 1_555
C10A C14A 1_555 1_555
C11A C12A 1_555 1_555
C12A C13A 1_555 1_555
C13A C14A 1_555 1_555

#END
