
#######################################################################
#
#                 Cambridge Crystallographic Data Centre
#                                CCDC 
#
#######################################################################
#
# If this CIF has been generated from an entry in the Cambridge 
# Structural Database, then it will include bibliographic, chemical, 
# crystal, experimental, refinement or atomic coordinate data resulting 
# from the CCDC's data processing and validation procedures.
#
#######################################################################

data_IHIGIP
_symmetry_cell_setting           orthorhombic
_symmetry_space_group_name_H-M   'P 21 c n'
_symmetry_Int_Tables_number      33
_space_group_name_Hall           'P -2n 2a'
loop_
_symmetry_equiv_pos_site_id
_symmetry_equiv_pos_as_xyz
1 x,y,z
2 1/2+x,-y,-z
3 x,1/2-y,1/2+z
4 1/2+x,1/2+y,1/2-z
_cell_length_a                   7.2540(10)
_cell_length_b                   7.7270(10)
_cell_length_c                   24.4130(10)
_cell_angle_alpha                90
_cell_angle_beta                 90
_cell_angle_gamma                90
_cell_volume                     1368.39
loop_
_atom_site_label
_atom_site_type_symbol
_atom_site_fract_x
_atom_site_fract_y
_atom_site_fract_z
Mn1 Mn 0.7960(5) 0.05592(14) 0.71876(4)
O1 O 0.9856(16) 0.2190(15) 0.7625(5)
O2 O 1.0718(15) 0.4197(15) 0.8218(5)
O3 O 0.5848(16) 0.2108(14) 0.7624(5)
O4 O 0.5145(17) 0.4181(13) 0.8223(5)
O5 O 0.803(3) -0.1447(9) 0.7853(2)
N1 N 0.789(5) 0.2540(13) 0.6509(4)
N2 N 0.730(4) 0.5511(13) 0.4676(4)
C1 C 0.972(2) 0.2980(15) 0.8059(6)
C2 C 0.789(3) 0.2643(11) 0.8385(3)
H1 H 0.7827 0.1435 0.8491
H2 H 0.7883 0.3338 0.8716
C3 C 0.627(2) 0.3075(17) 0.8055(6)
C4 C 0.797(7) 0.4213(15) 0.6580(5)
H3 H 0.8116 0.4608 0.6937
C5 C 0.785(7) 0.5438(15) 0.6176(4)
H4 H 0.7600 0.6590 0.6258
C6 C 0.811(5) 0.4901(16) 0.5643(4)
C7 C 0.708(4) 0.3178(17) 0.5577(5)
H5 H 0.6414 0.2926 0.5261
C8 C 0.718(4) 0.2043(17) 0.5996(5)
H6 H 0.6785 0.0911 0.5944
C9 C 0.725(4) 0.6145(16) 0.5181(5)
C10 C 0.666(5) 0.7852(18) 0.5272(5)
H7 H 0.6429 0.8258 0.5624
C11 C 0.643(3) 0.8888(12) 0.4830(4)
H8 H 0.5862 0.9961 0.4864
C12 C 0.707(3) 0.8314(12) 0.4320(4)
H9 H 0.7417 0.9083 0.4046
C13 C 0.704(4) 0.6605(16) 0.4245(5)
H10 H 0.6837 0.6157 0.3897
O2C O 0.5718(15) -0.0803(15) 0.6782(5)
O4C O 1.0145(17) -0.0819(13) 0.6777(5)
Mn1C Mn 1.2960(5) 0.55592(14) 0.78124(4)
Mn1C_2 Mn 0.2960(5) 0.55592(14) 0.78124(4)
loop_
_geom_bond_atom_site_label_1
_geom_bond_atom_site_label_2
_geom_bond_site_symmetry_1
_geom_bond_site_symmetry_2
Mn1 O1 1_555 1_555
O1 C1 1_555 1_555
O2 C1 1_555 1_555
O3 Mn1 1_555 1_555
O4 C3 1_555 1_555
O5 Mn1 1_555 1_555
N1 Mn1 1_555 1_555
N2 C9 1_555 1_555
C1 C2 1_555 1_555
C2 H1 1_555 1_555
H2 C2 1_555 1_555
C3 O3 1_555 1_555
C4 N1 1_555 1_555
H3 C4 1_555 1_555
C5 C4 1_555 1_555
H4 C5 1_555 1_555
C6 C5 1_555 1_555
C7 C6 1_555 1_555
H5 C7 1_555 1_555
C8 N1 1_555 1_555
H6 C8 1_555 1_555
C9 C6 1_555 1_555
C10 C9 1_555 1_555
H7 C10 1_555 1_555
C11 C10 1_555 1_555
H8 C11 1_555 1_555
C12 C11 1_555 1_555
H9 C12 1_555 1_555
C13 N2 1_555 1_555
H10 C13 1_555 1_555
O2C Mn1 1_555 1_555
O4C Mn1 1_555 1_555
Mn1C O2 1_555 1_555
Mn1C_2 O4 1_555 1_555
C2 C3 1_555 1_555
C7 C8 1_555 1_555
C12 C13 1_555 1_555

#END
