
#######################################################################
#
#                 Cambridge Crystallographic Data Centre
#                                CCDC 
#
#######################################################################
#
# If this CIF has been generated from an entry in the Cambridge 
# Structural Database, then it will include bibliographic, chemical, 
# crystal, experimental, refinement or atomic coordinate data resulting 
# from the CCDC's data processing and validation procedures.
#
#######################################################################

data_IHIGUD
_symmetry_cell_setting           monoclinic
_symmetry_space_group_name_H-M   'P 21/n'
_symmetry_Int_Tables_number      14
_space_group_name_Hall           '-P 2yn'
loop_
_symmetry_equiv_pos_site_id
_symmetry_equiv_pos_as_xyz
1 x,y,z
2 1/2-x,1/2+y,1/2-z
3 -x,-y,-z
4 1/2+x,1/2-y,1/2+z
_cell_length_a                   11.1603(7)
_cell_length_b                   17.3367(11)
_cell_length_c                   11.2345(7)
_cell_angle_alpha                90
_cell_angle_beta                 116.081(1)
_cell_angle_gamma                90
_cell_volume                     1952.34
loop_
_atom_site_label
_atom_site_type_symbol
_atom_site_fract_x
_atom_site_fract_y
_atom_site_fract_z
Ni1 Ni 0.36576(2) 0.277787(13) 0.18220(2)
O1 O 0.19348(13) 0.32361(8) 0.02675(15)
O2 O 0.29813(13) 0.38770(8) 0.21146(14)
O3 O 0.40583(14) 0.17246(8) 0.12360(15)
O4 O 0.21805(14) 0.11750(9) -0.02559(15)
O5 O 0.52381(16) 0.27350(9) 0.36205(17)
H1 H 0.561(3) 0.2350(13) 0.408(3)
H2 H 0.580(2) 0.3083(13) 0.400(3)
N1 N 0.24869(18) 0.22143(9) 0.25933(18)
N2 N 0.17275(17) 0.15986(10) 0.19515(17)
H3 H 0.172(2) 0.1420(14) 0.1219(15)
N3 N -0.01548(17) 0.17170(10) 0.59896(18)
N4 N 0.10431(19) 0.13770(12) 0.67197(19)
H4 H 0.125(3) 0.1247(15) 0.7539(13)
C1 C 0.20219(18) 0.38216(11) 0.0984(2)
C2 C 0.09733(19) 0.44350(11) 0.0473(2)
C3 C 0.0975(2) 0.50261(12) 0.1296(2)
H5 H 0.1633 0.5043 0.2167
C4 C 0.0006(2) 0.55935(12) 0.0835(2)
H6 H 0.0007 0.5990 0.1393
C5 C 0.3431(2) 0.12127(11) 0.0413(2)
C6 C 0.42497(19) 0.05760(12) 0.0211(2)
C7 C 0.3661(2) -0.01133(13) -0.0363(3)
H7 H 0.2760 -0.0193 -0.0602
C8 C 0.4405(2) -0.06880(13) -0.0584(2)
H8 H 0.4000 -0.1148 -0.0983
C9 C 0.2976(3) 0.29163(17) 0.4676(3)
H9 H 0.3063 0.3368 0.4226
H10 H 0.3844 0.2748 0.5306
H11 H 0.2445 0.3036 0.5131
C10 C 0.2318(2) 0.22909(12) 0.3692(2)
C11 C 0.1447(2) 0.17158(12) 0.3746(2)
C12 C 0.1100(2) 0.12834(12) 0.2614(2)
C13 C 0.0226(2) 0.05878(14) 0.2117(3)
H12 H -0.0315 0.0634 0.1180
H13 H -0.0339 0.0549 0.2558
H14 H 0.0771 0.0134 0.2296
C14 C -0.1337(3) 0.22052(18) 0.3690(3)
H15 H -0.2020 0.2318 0.3964
H16 H -0.1677 0.1850 0.2960
H17 H -0.1066 0.2673 0.3419
C15 C -0.0169(2) 0.18548(13) 0.4814(2)
C16 C 0.1032(2) 0.16093(13) 0.4805(2)
C17 C 0.1780(2) 0.13039(15) 0.6040(2)
C18 C 0.3125(3) 0.0935(2) 0.6595(3)
H18 H 0.3648 0.1117 0.7481
H19 H 0.3563 0.1065 0.6053
H20 H 0.3029 0.0385 0.6606
O1B O -0.19348(13) 0.67639(8) -0.02675(15)
O2B O -0.29813(13) 0.61230(8) -0.21146(14)
C1B C -0.20219(18) 0.61784(11) -0.0984(2)
C2B C -0.09733(19) 0.55650(11) -0.0473(2)
C3B C -0.0975(2) 0.49739(12) -0.1296(2)
H5B H -0.1633 0.4957 -0.2167
C4B C -0.0006(2) 0.44065(12) -0.0835(2)
H6B H -0.0007 0.4010 -0.1393
O3B O 0.59417(14) -0.17246(8) -0.12360(15)
O4B O 0.78195(14) -0.11750(9) 0.02559(15)
C5B C 0.6569(2) -0.12127(11) -0.0413(2)
C6B C 0.57503(19) -0.05760(12) -0.0211(2)
C7B C 0.6339(2) 0.01133(13) 0.0363(3)
H7B H 0.7240 0.0193 0.0602
C8B C 0.5595(2) 0.06880(13) 0.0584(2)
H8B H 0.6000 0.1148 0.0983
Ni1B Ni -0.36576(2) 0.722213(13) -0.18220(2)
O5B O -0.52381(16) 0.72650(9) -0.36205(17)
H1B H -0.561(3) 0.7650(13) -0.408(3)
H2B H -0.580(2) 0.6917(13) -0.400(3)
N1B N -0.24869(18) 0.77857(9) -0.25933(18)
N2B N -0.17275(17) 0.84014(10) -0.19515(17)
H3B H -0.172(2) 0.8580(14) -0.1219(15)
N3B N 0.01548(17) 0.82830(10) -0.59896(18)
N4B N -0.10431(19) 0.86230(12) -0.67197(19)
H4B H -0.125(3) 0.8753(15) -0.7539(13)
C9B C -0.2976(3) 0.70837(17) -0.4676(3)
H9B H -0.3063 0.6632 -0.4226
H10B H -0.3844 0.7252 -0.5306
H11B H -0.2445 0.6964 -0.5131
C10B C -0.2318(2) 0.77091(12) -0.3692(2)
C11B C -0.1447(2) 0.82842(12) -0.3746(2)
C12B C -0.1100(2) 0.87166(12) -0.2614(2)
C13B C -0.0226(2) 0.94122(14) -0.2117(3)
H12B H 0.0315 0.9366 -0.1180
H13B H 0.0339 0.9451 -0.2558
H14B H -0.0771 0.9866 -0.2296
C14B C 0.1337(3) 0.77948(18) -0.3690(3)
H15B H 0.2020 0.7682 -0.3964
H16B H 0.1677 0.8150 -0.2960
H17B H 0.1066 0.7327 -0.3419
C15B C 0.0169(2) 0.81452(13) -0.4814(2)
C16B C -0.1032(2) 0.83907(13) -0.4805(2)
C17B C -0.1780(2) 0.86961(15) -0.6040(2)
C18B C -0.3125(3) 0.9065(2) -0.6595(3)
H18B H -0.3648 0.8883 -0.7481
H19B H -0.3563 0.8935 -0.6053
H20B H -0.3029 0.9615 -0.6606
Ni1A Ni 0.13424(2) 0.777787(13) -0.68220(2)
Ni1B_2 Ni 0.63424(2) -0.277787(13) -0.18220(2)
Ni1C Ni -0.13424(2) 0.222213(13) 0.68220(2)
O3B_2 O -0.40583(14) 0.82754(8) -0.12360(15)
N3A N -0.48452(17) 0.67170(10) -0.09896(18)
N3C N 0.48452(17) 0.32830(10) 0.09896(18)
loop_
_geom_bond_atom_site_label_1
_geom_bond_atom_site_label_2
_geom_bond_site_symmetry_1
_geom_bond_site_symmetry_2
Ni1 O1 1_555 1_555
O1 C1 1_555 1_555
O2 Ni1 1_555 1_555
O3 Ni1 1_555 1_555
O4 C5 1_555 1_555
O5 Ni1 1_555 1_555
H1 O5 1_555 1_555
H2 O5 1_555 1_555
N1 Ni1 1_555 1_555
N2 N1 1_555 1_555
H3 N2 1_555 1_555
N3 N4 1_555 1_555
N4 H4 1_555 1_555
C1 O2 1_555 1_555
C2 C1 1_555 1_555
C3 C2 1_555 1_555
H5 C3 1_555 1_555
C4 C3 1_555 1_555
H6 C4 1_555 1_555
C5 O3 1_555 1_555
C6 C5 1_555 1_555
C7 C6 1_555 1_555
H7 C7 1_555 1_555
C8 C7 1_555 1_555
H8 C8 1_555 1_555
C9 H9 1_555 1_555
H10 C9 1_555 1_555
H11 C9 1_555 1_555
C10 N1 1_555 1_555
C11 C10 1_555 1_555
C12 N2 1_555 1_555
C13 C12 1_555 1_555
H12 C13 1_555 1_555
H13 C13 1_555 1_555
H14 C13 1_555 1_555
C14 H15 1_555 1_555
H16 C14 1_555 1_555
H17 C14 1_555 1_555
C15 N3 1_555 1_555
C16 C11 1_555 1_555
C17 N4 1_555 1_555
C18 C17 1_555 1_555
H18 C18 1_555 1_555
H19 C18 1_555 1_555
H20 C18 1_555 1_555
O1B C1B 1_555 1_555
O2B C1B 1_555 1_555
C1B C2B 1_555 1_555
C2B C4 1_555 1_555
C3B C2B 1_555 1_555
H5B C3B 1_555 1_555
C4B C2 1_555 1_555
H6B C4B 1_555 1_555
O3B C5B 1_555 1_555
O4B C5B 1_555 1_555
C5B C6B 1_555 1_555
C6B C8 1_555 1_555
C7B C6B 1_555 1_555
H7B C7B 1_555 1_555
C8B C6 1_555 1_555
H8B C8B 1_555 1_555
Ni1B O1B 1_555 1_555
O5B Ni1B 1_555 1_555
H1B O5B 1_555 1_555
H2B O5B 1_555 1_555
N1B Ni1B 1_555 1_555
N2B N1B 1_555 1_555
H3B N2B 1_555 1_555
N3B N4B 1_555 1_555
N4B H4B 1_555 1_555
C9B H9B 1_555 1_555
H10B C9B 1_555 1_555
H11B C9B 1_555 1_555
C10B N1B 1_555 1_555
C11B C10B 1_555 1_555
C12B N2B 1_555 1_555
C13B C12B 1_555 1_555
H12B C13B 1_555 1_555
H13B C13B 1_555 1_555
H14B C13B 1_555 1_555
C14B H15B 1_555 1_555
H16B C14B 1_555 1_555
H17B C14B 1_555 1_555
C15B N3B 1_555 1_555
C16B C11B 1_555 1_555
C17B N4B 1_555 1_555
C18B C17B 1_555 1_555
H18B C18B 1_555 1_555
H19B C18B 1_555 1_555
H20B C18B 1_555 1_555
Ni1A N3B 1_555 1_555
Ni1B_2 O3B 1_555 1_555
Ni1C N3 1_555 1_555
O3B_2 Ni1B 1_555 1_555
N3A Ni1B 1_555 1_555
N3C Ni1 1_555 1_555
C9 C10 1_555 1_555
C11 C12 1_555 1_555
C14 C15 1_555 1_555
C15 C16 1_555 1_555
C16 C17 1_555 1_555
O2B Ni1B 1_555 1_555
C3B C4B 1_555 1_555
C7B C8B 1_555 1_555
C9B C10B 1_555 1_555
C11B C12B 1_555 1_555
C14B C15B 1_555 1_555
C15B C16B 1_555 1_555
C16B C17B 1_555 1_555

#END
