
#######################################################################
#
#                 Cambridge Crystallographic Data Centre
#                                CCDC 
#
#######################################################################
#
# If this CIF has been generated from an entry in the Cambridge 
# Structural Database, then it will include bibliographic, chemical, 
# crystal, experimental, refinement or atomic coordinate data resulting 
# from the CCDC's data processing and validation procedures.
#
#######################################################################

data_IHIHAK
_symmetry_cell_setting           monoclinic
_symmetry_space_group_name_H-M   'P 21/c'
_symmetry_Int_Tables_number      14
_space_group_name_Hall           '-P 2ybc'
loop_
_symmetry_equiv_pos_site_id
_symmetry_equiv_pos_as_xyz
1 x,y,z
2 -x,1/2+y,1/2-z
3 -x,-y,-z
4 x,1/2-y,1/2+z
_cell_length_a                   11.162(2)
_cell_length_b                   9.1537(18)
_cell_length_c                   16.348(5)
_cell_angle_alpha                90
_cell_angle_beta                 127.64(2)
_cell_angle_gamma                90
_cell_volume                     1322.68
loop_
_atom_site_label
_atom_site_type_symbol
_atom_site_fract_x
_atom_site_fract_y
_atom_site_fract_z
Mn1 Mn 0.5000 0.5000 0.5000
S1 S 0.81608(7) 0.46962(7) 0.87351(4)
N1 N 0.65366(18) 0.54780(19) 0.66632(12)
N2 N 0.57121(17) 0.23899(17) 0.03144(11)
N3 N 0.70992(16) 0.42944(16) 0.12555(11)
N4 N 0.76649(16) 0.52693(16) 0.27661(12)
N5 N 0.81056(16) 0.60929(16) 0.42664(11)
N6 N 0.67951(17) 0.55953(17) 0.48336(12)
C1 C 0.7205(2) 0.51519(19) 0.75239(15)
C2 C 0.63745(19) 0.3065(2) 0.12052(14)
H1 H 0.6349 0.2734 0.1745
C3 C 0.6862(2) 0.4414(2) 0.03229(14)
H2 H 0.7227 0.5159 0.0123
C4 C 0.6003(2) 0.3253(2) -0.02438(14)
H3 H 0.5648 0.3055 -0.0929
C5 C 0.6894(2) 0.5380(2) 0.40831(14)
H4 H 0.6209 0.4801 0.3489
C6 C 0.7993(2) 0.6490(2) 0.55326(15)
H5 H 0.8212 0.6832 0.6160
C7 C 0.8813(2) 0.6813(2) 0.51993(14)
H6 H 0.9691 0.7409 0.5536
C8 C 0.8566(2) 0.60534(19) 0.36256(14)
C9 C 0.9847(2) 0.6783(2) 0.38965(15)
H7 H 1.0430 0.7366 0.4502
C10 C 1.0241(2) 0.6626(2) 0.32485(15)
H8 H 1.1126 0.7092 0.3414
C11 C 0.9357(2) 0.5796(2) 0.23609(15)
H9 H 0.9620 0.5663 0.1912
C12 C 0.8071(2) 0.51664(19) 0.21537(14)
S1B S 0.18392(7) 0.53038(7) 0.12649(4)
N1B N 0.34634(18) 0.45220(19) 0.33368(12)
N2B N 0.42879(17) 0.76101(17) 0.96856(11)
N3B N 0.29008(16) 0.57056(16) 0.87445(11)
N4B N 0.23351(16) 0.47307(16) 0.72339(12)
N5B N 0.18944(16) 0.39071(16) 0.57336(11)
N6B N 0.32049(17) 0.44047(17) 0.51664(12)
C1B C 0.2795(2) 0.48481(19) 0.24761(15)
C2B C 0.36255(19) 0.6935(2) 0.87948(14)
H1B H 0.3651 0.7266 0.8255
C3B C 0.3138(2) 0.5586(2) 0.96771(14)
H2B H 0.2773 0.4841 0.9877
C4B C 0.3997(2) 0.6747(2) 1.02438(14)
H3B H 0.4352 0.6945 1.0929
C5B C 0.3106(2) 0.4620(2) 0.59169(14)
H4B H 0.3791 0.5199 0.6511
C6B C 0.2007(2) 0.3510(2) 0.44674(15)
H5B H 0.1788 0.3168 0.3840
C7B C 0.1187(2) 0.3187(2) 0.48007(14)
H6B H 0.0309 0.2591 0.4464
C8B C 0.1434(2) 0.39466(19) 0.63744(14)
C9B C 0.0153(2) 0.3217(2) 0.61035(15)
H7B H -0.0430 0.2634 0.5498
C10B C -0.0241(2) 0.3374(2) 0.67515(15)
H8B H -0.1126 0.2908 0.6586
C11B C 0.0643(2) 0.4204(2) 0.76391(15)
H9B H 0.0380 0.4337 0.8088
C12B C 0.1929(2) 0.48336(19) 0.78463(14)
Mn1A Mn 0.5000 0.0000 0.0000
Mn1A_2 Mn 0.5000 1.0000 1.0000
N2A N 0.42879(17) 0.73899(17) 0.46856(11)
N2C N 0.57121(17) 0.26101(17) 0.53144(11)
loop_
_geom_bond_atom_site_label_1
_geom_bond_atom_site_label_2
_geom_bond_site_symmetry_1
_geom_bond_site_symmetry_2
Mn1 N1 1_555 1_555
S1 C1 1_555 1_555
N1 C1 1_555 1_555
N2 C2 1_555 1_555
N3 C2 1_555 1_555
N4 C8 1_555 1_555
N5 C5 1_555 1_555
N6 Mn1 1_555 1_555
C2 H1 1_555 1_555
C3 N3 1_555 1_555
H2 C3 1_555 1_555
C4 N2 1_555 1_555
H3 C4 1_555 1_555
C5 N6 1_555 1_555
H4 C5 1_555 1_555
C6 N6 1_555 1_555
H5 C6 1_555 1_555
C7 N5 1_555 1_555
H6 C7 1_555 1_555
C8 N5 1_555 1_555
C9 C8 1_555 1_555
H7 C9 1_555 1_555
C10 C9 1_555 1_555
H8 C10 1_555 1_555
C11 C10 1_555 1_555
H9 C11 1_555 1_555
C12 N3 1_555 1_555
S1B C1B 1_555 1_555
N1B Mn1 1_555 1_555
N2B C2B 1_555 1_555
N3B C2B 1_555 1_555
N4B C8B 1_555 1_555
N5B C5B 1_555 1_555
N6B Mn1 1_555 1_555
C1B N1B 1_555 1_555
C2B H1B 1_555 1_555
C3B N3B 1_555 1_555
H2B C3B 1_555 1_555
C4B N2B 1_555 1_555
H3B C4B 1_555 1_555
C5B N6B 1_555 1_555
H4B C5B 1_555 1_555
C6B N6B 1_555 1_555
H5B C6B 1_555 1_555
C7B N5B 1_555 1_555
H6B C7B 1_555 1_555
C8B N5B 1_555 1_555
C9B C8B 1_555 1_555
H7B C9B 1_555 1_555
C10B C9B 1_555 1_555
H8B C10B 1_555 1_555
C11B C10B 1_555 1_555
H9B C11B 1_555 1_555
C12B N3B 1_555 1_555
Mn1A N2 1_555 1_555
Mn1A_2 N2B 1_555 1_555
N2A Mn1 1_555 1_555
N2C Mn1 1_555 1_555
N4 C12 1_555 1_555
C3 C4 1_555 1_555
C6 C7 1_555 1_555
C11 C12 1_555 1_555
N4B C12B 1_555 1_555
C3B C4B 1_555 1_555
C6B C7B 1_555 1_555
C11B C12B 1_555 1_555

#END
