
#######################################################################
#
#                 Cambridge Crystallographic Data Centre
#                                CCDC 
#
#######################################################################
#
# If this CIF has been generated from an entry in the Cambridge 
# Structural Database, then it will include bibliographic, chemical, 
# crystal, experimental, refinement or atomic coordinate data resulting 
# from the CCDC's data processing and validation procedures.
#
#######################################################################

data_IHIJOY
_symmetry_cell_setting           orthorhombic
_symmetry_space_group_name_H-M   'P n a 21'
_symmetry_Int_Tables_number      33
_space_group_name_Hall           'P 2c -2n'
loop_
_symmetry_equiv_pos_site_id
_symmetry_equiv_pos_as_xyz
1 x,y,z
2 -x,-y,1/2+z
3 1/2+x,1/2-y,z
4 1/2-x,1/2+y,1/2+z
_cell_length_a                   15.491(2)
_cell_length_b                   15.0327(19)
_cell_length_c                   16.746(2)
_cell_angle_alpha                90
_cell_angle_beta                 90
_cell_angle_gamma                90
_cell_volume                     3899.67
loop_
_atom_site_label
_atom_site_type_symbol
_atom_site_fract_x
_atom_site_fract_y
_atom_site_fract_z
Cu1 Cu 0.92950(9) 0.38230(11) 0.71148(10)
N1 N 0.8438(7) 0.4723(7) 0.7556(6)
Cu2 Cu 0.74324(10) 0.11825(11) 0.80120(11)
C1 C 0.8475(10) 0.5618(10) 0.7605(8)
H1 H 0.9000 0.5914 0.7480
C2 C 0.7768(11) 0.6109(10) 0.7831(9)
H2 H 0.7824 0.6737 0.7869
C3 C 0.7002(11) 0.5737(10) 0.8001(11)
H3 H 0.6516 0.6084 0.8152
C4 C 0.6957(9) 0.4793(11) 0.7943(10)
H4 H 0.6429 0.4492 0.8042
C5 C 0.7674(9) 0.4327(10) 0.7746(8)
C6 C 0.7685(9) 0.3338(10) 0.7692(8)
H5 H 0.7196 0.2996 0.7844
N2 N 0.8350(7) 0.2973(8) 0.7443(6)
N3 N 0.8311(6) 0.2051(9) 0.7512(6)
C7 C 0.8993(8) 0.1630(10) 0.7242(9)
H6 H 0.9446 0.1946 0.6985
C8 C 0.9042(9) 0.0661(9) 0.7345(7)
C9 C 0.9734(8) 0.0182(10) 0.7098(10)
H7 H 1.0197 0.0454 0.6817
C10 C 0.9738(10) -0.0716(12) 0.7270(11)
H8 H 1.0217 -0.1068 0.7111
C11 C 0.9061(12) -0.1109(12) 0.7667(10)
H9 H 0.9068 -0.1726 0.7788
C12 C 0.8364(9) -0.0573(11) 0.7886(10)
H10 H 0.7893 -0.0827 0.8169
N4 N 0.8351(7) 0.0312(9) 0.7699(7)
N5 N 0.9606(8) 0.4052(7) 0.5971(8)
C13 C 0.9116(11) 0.4172(10) 0.5341(12)
H11 H 0.8510 0.4170 0.5425
C14 C 0.9398(13) 0.4300(12) 0.4564(11)
H12 H 0.9003 0.4352 0.4132
C15 C 1.0255(14) 0.4349(12) 0.4449(11)
H13 H 1.0486 0.4453 0.3932
C16 C 1.0798(12) 0.4244(10) 0.5112(14)
H14 H 1.1406 0.4278 0.5045
C17 C 1.0464(11) 0.4093(9) 0.5847(10)
C18 C 1.0983(9) 0.3982(8) 0.6569(8)
H15 H 1.1594 0.4033 0.6551
N6 N 1.0589(6) 0.3815(6) 0.7230(8)
N7 N 1.1144(8) 0.3753(6) 0.7900(7)
C19 C 1.0732(9) 0.3619(8) 0.8545(10)
H16 H 1.0124 0.3539 0.8544
C20 C 1.1218(9) 0.3594(8) 0.9274(10)
C21 C 1.0847(11) 0.3462(9) 1.0015(11)
H17 H 1.0244 0.3357 1.0061
C22 C 1.1358(13) 0.3484(13) 1.0686(11)
H18 H 1.1112 0.3397 1.1200
C23 C 1.2220(13) 0.3632(14) 1.0608(12)
H19 H 1.2585 0.3665 1.1063
C24 C 1.2553(11) 0.3733(11) 0.9835(12)
H20 H 1.3156 0.3833 0.9783
N8 N 1.2084(7) 0.3700(7) 0.9167(7)
N7B N 0.6144(8) 0.1247(6) 0.7900(7)
N8B N 0.7084(7) 0.1300(7) 0.9167(7)
Cu2B Cu 1.24324(10) 0.38175(11) 0.80120(11)
P1 P 1.1005(2) 0.6725(3) 0.7129(3)
F1 F 1.1879(6) 0.6411(10) 0.6857(8)
F2 F 1.0096(6) 0.7058(7) 0.7362(8)
F3 F 1.1391(10) 0.7194(9) 0.7869(8)
F4 F 1.1120(7) 0.7595(7) 0.6622(7)
F5 F 1.0626(9) 0.6248(8) 0.6408(7)
F6 F 1.0862(9) 0.5879(6) 0.7668(7)
P2 P 0.6433(3) 0.3529(3) 0.5394(4)
F7 F 0.7111(6) 0.3909(8) 0.4786(6)
F8 F 0.5742(7) 0.3166(7) 0.5984(8)
F9 F 0.6661(8) 0.4288(8) 0.5996(7)
F10 F 0.7154(7) 0.2936(10) 0.5776(8)
F11 F 0.6184(8) 0.2780(8) 0.4773(8)
F12 F 0.5729(7) 0.4137(8) 0.5005(9)
N9 N 0.8786(11) 0.3213(13) 0.9381(11)
C25 C 0.8169(14) 0.3421(13) 0.9701(12)
C26 C 0.7401(11) 0.3669(13) 1.0119(11)
H21 H 0.7427 0.4303 1.0255
H22 H 0.7351 0.3317 1.0609
H23 H 0.6897 0.3559 0.9778
N10 N 1.0352(12) 0.1510(12) 0.8739(11)
C27 C 1.0180(13) 0.1387(14) 0.9366(14)
C28 C 1.0023(7) 0.1167(11) 1.0194(6)
H24 H 0.9617 0.0668 1.0225
H25 H 0.9778 0.1684 1.0468
H26 H 1.0569 0.0999 1.0449
N11 N 1.3210(8) 0.4318(8) 0.5392(6)
C29 C 1.3506(6) 0.3675(9) 0.5165(7)
C30 C 1.3878(6) 0.2962(10) 0.4774(7)
H27 H 1.4423 0.3151 0.4529
H28 H 1.3485 0.2747 0.4358
H29 H 1.3991 0.2484 0.5157
loop_
_geom_bond_atom_site_label_1
_geom_bond_atom_site_label_2
_geom_bond_site_symmetry_1
_geom_bond_site_symmetry_2
Cu1 N1 1_555 1_555
N1 C1 1_555 1_555
Cu2 N3 1_555 1_555
C1 H1 1_555 1_555
C2 C1 1_555 1_555
H2 C2 1_555 1_555
C3 C2 1_555 1_555
H3 C3 1_555 1_555
C4 C3 1_555 1_555
H4 C4 1_555 1_555
C5 N1 1_555 1_555
C6 C5 1_555 1_555
H5 C6 1_555 1_555
N2 Cu1 1_555 1_555
N3 N2 1_555 1_555
C7 N3 1_555 1_555
H6 C7 1_555 1_555
C8 C7 1_555 1_555
C9 C8 1_555 1_555
H7 C9 1_555 1_555
C10 C9 1_555 1_555
H8 C10 1_555 1_555
C11 C10 1_555 1_555
H9 C11 1_555 1_555
C12 C11 1_555 1_555
H10 C12 1_555 1_555
N4 Cu2 1_555 1_555
N5 Cu1 1_555 1_555
C13 N5 1_555 1_555
H11 C13 1_555 1_555
C14 C13 1_555 1_555
H12 C14 1_555 1_555
C15 C14 1_555 1_555
H13 C15 1_555 1_555
C16 C15 1_555 1_555
H14 C16 1_555 1_555
C17 N5 1_555 1_555
C18 C17 1_555 1_555
H15 C18 1_555 1_555
N6 Cu1 1_555 1_555
N7 N6 1_555 1_555
C19 N7 1_555 1_555
H16 C19 1_555 1_555
C20 C19 1_555 1_555
C21 C20 1_555 1_555
H17 C21 1_555 1_555
C22 C21 1_555 1_555
H18 C22 1_555 1_555
C23 C22 1_555 1_555
H19 C23 1_555 1_555
C24 C23 1_555 1_555
H20 C24 1_555 1_555
N8 C20 1_555 1_555
P1 F1 1_555 1_555
F2 P1 1_555 1_555
F3 P1 1_555 1_555
F4 P1 1_555 1_555
F5 P1 1_555 1_555
F6 P1 1_555 1_555
P2 F7 1_555 1_555
F8 P2 1_555 1_555
F9 P2 1_555 1_555
F10 P2 1_555 1_555
F11 P2 1_555 1_555
F12 P2 1_555 1_555
N9 C25 1_555 1_555
C25 C26 1_555 1_555
C26 H21 1_555 1_555
H22 C26 1_555 1_555
H23 C26 1_555 1_555
N10 C27 1_555 1_555
C27 C28 1_555 1_555
C28 H24 1_555 1_555
H25 C28 1_555 1_555
H26 C28 1_555 1_555
N11 C29 1_555 1_555
C29 C30 1_555 1_555
C30 H27 1_555 1_555
H28 C30 1_555 1_555
H29 C30 1_555 1_555
N7B Cu2 1_555 1_555
N8B Cu2 1_555 1_555
Cu2B N7 1_555 1_555
C4 C5 1_555 1_555
C6 N2 1_555 1_555
C8 N4 1_555 1_555
C12 N4 1_555 1_555
C16 C17 1_555 1_555
C18 N6 1_555 1_555
C24 N8 1_555 1_555
N8 Cu2B 1_555 1_555

#END
