
#######################################################################
#
#                 Cambridge Crystallographic Data Centre
#                                CCDC 
#
#######################################################################
#
# If this CIF has been generated from an entry in the Cambridge 
# Structural Database, then it will include bibliographic, chemical, 
# crystal, experimental, refinement or atomic coordinate data resulting 
# from the CCDC's data processing and validation procedures.
#
#######################################################################

data_IHILEQ
_symmetry_cell_setting           triclinic
_symmetry_space_group_name_H-M   'P -1'
_symmetry_Int_Tables_number      2
_space_group_name_Hall           '-P 1'
loop_
_symmetry_equiv_pos_site_id
_symmetry_equiv_pos_as_xyz
1 x,y,z
2 -x,-y,-z
_cell_length_a                   10.931(4)
_cell_length_b                   17.269(9)
_cell_length_c                   19.955(9)
_cell_angle_alpha                85.08(3)
_cell_angle_beta                 89.47(3)
_cell_angle_gamma                86.35(3)
_cell_volume                     3745.34
loop_
_atom_site_label
_atom_site_type_symbol
_atom_site_fract_x
_atom_site_fract_y
_atom_site_fract_z
Mn1 Mn 0.39032(11) 0.60324(7) 0.38056(6)
Mn2 Mn 0.36791(11) 0.91994(7) 0.36950(6)
Mn3 Mn 0.12949(11) 1.10731(7) 0.12245(6)
Mn4 Mn 0.13073(11) 1.42022(7) 0.12682(6)
O1 O 0.2287(5) 0.5392(3) 0.4152(3)
H1 H 0.2058 0.5016 0.3922
O2 O 0.5202(5) 0.9932(3) 0.3354(3)
H2 H 0.5463 1.0275 0.3614
O3 O -0.0318(5) 1.0434(3) 0.1537(3)
H3 H -0.0256 1.0020 0.1311
O4 O 0.2749(5) 1.4957(3) 0.0893(3)
H4 H 0.3019 1.5314 0.1136
N1 N 0.4912(6) 0.8179(4) 0.3681(3)
C1 C 0.5260(8) 0.7515(5) 0.3681(4)
N2 N 0.5570(6) 0.6790(4) 0.3710(3)
C2 C 0.6765(7) 0.6549(5) 0.3494(4)
C3 C 0.7400(8) 0.7010(5) 0.3014(4)
H5 H 0.7046 0.7488 0.2840
C4 C 0.8564(8) 0.6755(5) 0.2796(5)
H6 H 0.8976 0.7062 0.2473
C5 C 0.9107(9) 0.6052(5) 0.3056(5)
H7 H 0.9891 0.5891 0.2920
C6 C 0.8472(9) 0.5588(6) 0.3522(5)
H8 H 0.8808 0.5100 0.3682
C7 C 0.7328(8) 0.5856(5) 0.3749(5)
H9 H 0.6934 0.5555 0.4083
N3 N 0.3996(7) 0.5696(4) 0.2805(4)
C8 C 0.3996(7) 0.5835(4) 0.2225(4)
N4 N 0.3954(7) 0.5954(4) 0.1581(3)
C9 C 0.4669(8) 0.6553(5) 0.1279(4)
C10 C 0.4505(8) 0.6763(5) 0.0590(4)
H10 H 0.3963 0.6505 0.0345
C11 C 0.5158(8) 0.7357(5) 0.0274(5)
H11 H 0.5049 0.7495 -0.0183
C12 C 0.5963(8) 0.7745(5) 0.0631(4)
H12 H 0.6393 0.8142 0.0414
C13 C 0.6135(8) 0.7544(5) 0.1309(4)
H13 H 0.6683 0.7803 0.1550
C14 C 0.5474(7) 0.6947(5) 0.1636(4)
H14 H 0.5579 0.6815 0.2095
N5 N 0.2725(6) 0.7063(4) 0.3797(4)
C15 C 0.2385(8) 0.7702(5) 0.3835(4)
N6 N 0.2040(6) 0.8435(4) 0.3875(3)
C16 C 0.0769(7) 0.8613(4) 0.4010(4)
C17 C -0.0096(8) 0.8060(5) 0.3964(4)
H15 H 0.0146 0.7562 0.3852
C18 C -0.1313(9) 0.8262(6) 0.4088(5)
H16 H -0.1891 0.7896 0.4050
C19 C -0.1702(9) 0.9006(5) 0.4269(5)
H17 H -0.2527 0.9136 0.4346
C20 C -0.0831(9) 0.9539(6) 0.4330(5)
H18 H -0.1065 1.0034 0.4454
C21 C 0.0404(9) 0.9336(5) 0.4204(4)
H19 H 0.0987 0.9696 0.4253
N7 N 0.3614(7) 0.9556(4) 0.4685(4)
C22 C 0.3566(7) 0.9337(4) 0.5262(4)
N8 N 0.3571(6) 0.9138(4) 0.5897(3)
C23 C 0.2804(8) 0.8532(5) 0.6135(4)
C24 C 0.2901(8) 0.8262(5) 0.6812(4)
H20 H 0.3432 0.8482 0.7092
C25 C 0.2187(8) 0.7651(5) 0.7067(5)
H21 H 0.2236 0.7475 0.7521
C26 C 0.1410(8) 0.7308(5) 0.6647(4)
H22 H 0.0954 0.6897 0.6814
C27 C 0.1326(8) 0.7588(5) 0.5975(4)
H23 H 0.0796 0.7367 0.5694
C28 C 0.2016(7) 0.8190(5) 0.5713(4)
H24 H 0.1956 0.8366 0.5261
N9 N 0.3298(6) 0.9194(4) 0.2550(3)
C29 C 0.3661(7) 0.8624(5) 0.2149(4)
H25 H 0.4115 0.8186 0.2337
C30 C 0.3383(7) 0.8673(5) 0.1482(4)
H26 H 0.3621 0.8273 0.1216
C31 C 0.2731(7) 0.9341(4) 0.1215(4)
H27 H 0.2541 0.9394 0.0759
N10 N 0.2368(6) 0.9915(4) 0.1603(3)
C32 C 0.2671(7) 0.9803(4) 0.2247(4)
C33 C 0.2239(7) 1.0436(4) 0.2683(4)
N11 N 0.2520(6) 1.0328(4) 0.3330(3)
C34 C 0.2129(8) 1.0884(5) 0.3718(4)
H28 H 0.2314 1.0828 0.4174
C35 C 0.1449(7) 1.1551(5) 0.3453(4)
H29 H 0.1172 1.1938 0.3724
C36 C 0.1209(7) 1.1610(5) 0.2787(4)
H30 H 0.0754 1.2049 0.2602
N12 N 0.1593(6) 1.1071(4) 0.2384(3)
N13 N 0.2525(7) 1.3155(4) 0.1335(4)
C37 C 0.2782(8) 1.2507(5) 0.1260(4)
N14 N 0.2973(6) 1.1781(4) 0.1173(3)
C38 C 0.4218(7) 1.1464(5) 0.1142(4)
C39 C 0.4471(8) 1.0827(4) 0.0770(4)
H31 H 0.3832 1.0607 0.0564
C40 C 0.5663(8) 1.0515(5) 0.0701(4)
H32 H 0.5815 1.0080 0.0462
C41 C 0.6629(9) 1.0850(5) 0.0989(4)
H33 H 0.7432 1.0656 0.0931
C42 C 0.6372(9) 1.1485(5) 0.1368(4)
H34 H 0.7013 1.1708 0.1568
C43 C 0.5183(7) 1.1789(5) 0.1452(4)
H35 H 0.5027 1.2206 0.1712
N15 N 0.1333(7) 1.0713(4) 0.0236(4)
C44 C 0.1006(7) 1.0806(4) -0.0324(4)
N16 N 0.0700(7) 1.0859(4) -0.0940(3)
C45 C -0.0057(8) 1.1517(5) -0.1198(4)
C46 C -0.0613(8) 1.2060(5) -0.0799(5)
H36 H -0.0494 1.2011 -0.0336
C47 C -0.1345(9) 1.2674(6) -0.1095(5)
H37 H -0.1726 1.3033 -0.0828
C48 C -0.1517(9) 1.2762(6) -0.1773(5)
H38 H -0.1998 1.3185 -0.1967
C49 C -0.0976(9) 1.2223(6) -0.2171(5)
H39 H -0.1095 1.2281 -0.2634
C50 C -0.0259(8) 1.1598(5) -0.1887(4)
H40 H 0.0090 1.1230 -0.2157
N17 N 0.0167(6) 1.2133(4) 0.1143(4)
C51 C -0.0114(8) 1.2766(5) 0.1272(4)
N18 N -0.0316(6) 1.3471(4) 0.1438(4)
C52 C -0.1560(7) 1.3749(4) 0.1526(4)
C53 C -0.1814(8) 1.4315(5) 0.1971(4)
H41 H -0.1179 1.4509 0.2200
C54 C -0.3020(8) 1.4591(5) 0.2076(5)
H42 H -0.3189 1.4973 0.2371
C55 C -0.3961(9) 1.4297(5) 0.1743(5)
H43 H -0.4765 1.4483 0.1815
C56 C -0.3726(8) 1.3732(5) 0.1301(4)
H44 H -0.4365 1.3533 0.1079
C57 C -0.2516(8) 1.3463(5) 0.1195(4)
H45 H -0.2350 1.3085 0.0896
N19 N 0.1371(6) 1.4619(4) 0.2236(4)
C58 C 0.1573(8) 1.4405(5) 0.2797(4)
N20 N 0.1735(7) 1.4228(4) 0.3432(4)
C59 C 0.2487(8) 1.3553(5) 0.3638(4)
C60 C 0.2586(8) 1.3331(5) 0.4326(5)
H46 H 0.2166 1.3622 0.4635
C61 C 0.3327(9) 1.2663(5) 0.4548(5)
H47 H 0.3376 1.2504 0.5005
C62 C 0.3987(9) 1.2240(6) 0.4086(5)
H48 H 0.4496 1.1811 0.4239
C63 C 0.3897(9) 1.2443(5) 0.3418(5)
H49 H 0.4323 1.2146 0.3115
C64 C 0.3161(8) 1.3104(5) 0.3181(5)
H50 H 0.3115 1.3248 0.2722
N21 N 0.0001(6) 1.5241(4) 0.0860(3)
C65 C -0.0479(7) 1.5800(4) 0.1223(4)
H51 H -0.0297 1.5778 0.1679
C66 C -0.1242(8) 1.6414(5) 0.0942(4)
H52 H -0.1584 1.6796 0.1200
C67 C -0.1468(7) 1.6430(5) 0.0267(4)
H53 H -0.1963 1.6839 0.0063
N22 N -0.0995(6) 1.5872(3) -0.0113(3)
C68 C -0.0269(8) 1.5304(5) 0.0204(4)
N23 N 0.4258(6) 0.5966(3) 0.4942(3)
C69 C 0.3919(8) 0.6511(5) 0.5358(4)
H54 H 0.3536 0.6978 0.5179
C70 C 0.4119(7) 0.6401(5) 0.6048(4)
H55 H 0.3850 0.6773 0.6336
C71 C 0.4735(7) 0.5715(5) 0.6279(4)
H56 H 0.4919 0.5633 0.6735
N24 N 0.5083(6) 0.5161(4) 0.5877(3)
C72 C 0.4826(8) 0.5308(4) 0.5227(4)
C73 C 0.1296(8) 0.5654(5) 0.4575(4)
H57 H 0.1017 0.5218 0.4853
H58 H 0.0634 0.5887 0.4299
H59 H 0.1578 0.6031 0.4855
C74 C 0.6095(8) 0.9719(5) 0.2861(4)
H60 H 0.6902 0.9778 0.3028
H61 H 0.5962 1.0049 0.2453
H62 H 0.6019 0.9186 0.2773
C75 C -0.0968(8) 1.0405(5) 0.2157(4)
H63 H -0.0477 1.0113 0.2499
H64 H -0.1721 1.0158 0.2109
H65 H -0.1146 1.0925 0.2283
C76 C 0.3629(8) 1.4765(5) 0.0388(4)
H66 H 0.4393 1.4979 0.0479
H67 H 0.3334 1.4978 -0.0045
H68 H 0.3749 1.4209 0.0391
C68A C 0.0269(8) 1.4696(5) -0.0204(4)
N21A N -0.0001(6) 1.4759(4) -0.0860(3)
C65A C 0.0479(7) 1.4200(4) -0.1223(4)
H51A H 0.0297 1.4222 -0.1679
C66A C 0.1242(8) 1.3586(5) -0.0942(4)
H52A H 0.1584 1.3204 -0.1200
C67A C 0.1468(7) 1.3570(5) -0.0267(4)
H53A H 0.1963 1.3161 -0.0063
N22A N 0.0995(6) 1.4128(3) 0.0113(3)
C72A C 0.5174(8) 0.4692(4) 0.4773(4)
N23A N 0.5742(6) 0.4034(3) 0.5058(3)
C69A C 0.6081(8) 0.3489(5) 0.4642(4)
H54A H 0.6464 0.3022 0.4821
C70A C 0.5881(7) 0.3599(5) 0.3952(4)
H55A H 0.6150 0.3227 0.3664
C71A C 0.5265(7) 0.4285(5) 0.3721(4)
H56A H 0.5081 0.4367 0.3265
N24A N 0.4917(6) 0.4839(4) 0.4123(3)
Mn1A Mn 0.60968(11) 0.39676(7) 0.61944(6)
O1A O 0.7713(5) 0.4608(3) 0.5848(3)
H1A H 0.7942 0.4984 0.6078
C73A C 0.8704(8) 0.4346(5) 0.5425(4)
H57A H 0.8983 0.4782 0.5147
H58A H 0.9366 0.4113 0.5701
H59A H 0.8422 0.3969 0.5145
N1A N 0.5088(6) 0.1821(4) 0.6319(3)
C1A C 0.4740(8) 0.2485(5) 0.6319(4)
N2A N 0.4430(6) 0.3210(4) 0.6290(3)
C2A C 0.3235(7) 0.3451(5) 0.6506(4)
C3A C 0.2600(8) 0.2990(5) 0.6986(4)
H5A H 0.2954 0.2512 0.7160
C4A C 0.1436(8) 0.3245(5) 0.7204(5)
H6A H 0.1024 0.2938 0.7527
C5A C 0.0893(9) 0.3948(5) 0.6944(5)
H7A H 0.0109 0.4109 0.7080
C6A C 0.1528(9) 0.4412(6) 0.6478(5)
H8A H 0.1192 0.4900 0.6318
C7A C 0.2672(8) 0.4144(5) 0.6251(5)
H9A H 0.3066 0.4445 0.5917
N3A N 0.6004(7) 0.4304(4) 0.7195(4)
C8A C 0.6004(7) 0.4165(4) 0.7775(4)
N4A N 0.6046(7) 0.4046(4) 0.8419(3)
C9A C 0.5331(8) 0.3447(5) 0.8721(4)
C10A C 0.5495(8) 0.3237(5) 0.9410(4)
H10A H 0.6037 0.3495 0.9655
C11A C 0.4842(8) 0.2643(5) 0.9726(5)
H11A H 0.4951 0.2505 1.0183
C12A C 0.4037(8) 0.2255(5) 0.9369(4)
H12A H 0.3607 0.1858 0.9586
C13A C 0.3865(8) 0.2456(5) 0.8691(4)
H13A H 0.3317 0.2197 0.8450
C14A C 0.4526(7) 0.3053(5) 0.8364(4)
H14A H 0.4421 0.3185 0.7905
N5A N 0.7275(6) 0.2937(4) 0.6203(4)
C15A C 0.7615(8) 0.2298(5) 0.6165(4)
N6A N 0.7960(6) 0.1565(4) 0.6125(3)
C16A C 0.9231(7) 0.1387(4) 0.5990(4)
C17A C 1.0096(8) 0.1940(5) 0.6036(4)
H15A H 0.9854 0.2438 0.6148
C18A C 1.1313(9) 0.1738(6) 0.5912(5)
H16A H 1.1891 0.2104 0.5950
C19A C 1.1702(9) 0.0994(5) 0.5731(5)
H17A H 1.2527 0.0864 0.5654
C20A C 1.0831(9) 0.0461(6) 0.5670(5)
H18A H 1.1065 -0.0034 0.5546
C21A C 0.9596(9) 0.0664(5) 0.5796(4)
H19A H 0.9013 0.0304 0.5747
Mn2A Mn 0.63209(11) 0.08006(7) 0.63050(6)
O2A O 0.4798(5) 0.0068(3) 0.6646(3)
H2A H 0.4537 -0.0275 0.6386
C74A C 0.3905(8) 0.0281(5) 0.7139(4)
H60A H 0.3098 0.0222 0.6972
H61A H 0.4038 -0.0049 0.7547
H62A H 0.3981 0.0814 0.7227
N7A N 0.6386(7) 0.0444(4) 0.5315(4)
C22A C 0.6434(7) 0.0663(4) 0.4738(4)
N8A N 0.6429(6) 0.0862(4) 0.4103(3)
C23A C 0.7196(8) 0.1468(5) 0.3865(4)
C24A C 0.7099(8) 0.1738(5) 0.3188(4)
H20A H 0.6568 0.1518 0.2908
C25A C 0.7813(8) 0.2349(5) 0.2933(5)
H21A H 0.7764 0.2525 0.2479
C26A C 0.8590(8) 0.2692(5) 0.3353(4)
H22A H 0.9046 0.3103 0.3186
C27A C 0.8674(8) 0.2412(5) 0.4025(4)
H23A H 0.9204 0.2633 0.4306
C28A C 0.7984(7) 0.1810(5) 0.4287(4)
H24A H 0.8044 0.1634 0.4739
N9A N 0.6702(6) 0.0806(4) 0.7450(3)
C29A C 0.6339(7) 0.1376(5) 0.7851(4)
H25A H 0.5885 0.1814 0.7663
C30A C 0.6617(7) 0.1327(5) 0.8518(4)
H26A H 0.6379 0.1727 0.8784
C31A C 0.7269(7) 0.0659(4) 0.8785(4)
H27A H 0.7459 0.0606 0.9241
N10A N 0.7632(6) 0.0085(4) 0.8397(3)
C32A C 0.7329(7) 0.0197(4) 0.7753(4)
C33A C 0.7761(7) -0.0436(4) 0.7317(4)
N11A N 0.7480(6) -0.0328(4) 0.6670(3)
C34A C 0.7871(8) -0.0884(5) 0.6282(4)
H28A H 0.7686 -0.0828 0.5826
C35A C 0.8551(7) -0.1551(5) 0.6547(4)
H29A H 0.8828 -0.1938 0.6276
C36A C 0.8791(7) -0.1610(5) 0.7213(4)
H30A H 0.9246 -0.2049 0.7398
N12A N 0.8407(6) -0.1071(4) 0.7616(3)
Mn3A Mn 0.87051(11) -0.10731(7) 0.87755(6)
O3A O 1.0318(5) -0.0434(3) 0.8463(3)
H3A H 1.0256 -0.0020 0.8689
C75A C 1.0968(8) -0.0405(5) 0.7843(4)
H63A H 1.0477 -0.0113 0.7501
H64A H 1.1721 -0.0158 0.7891
H65A H 1.1146 -0.0925 0.7717
N13A N 0.7475(7) -0.3155(4) 0.8665(4)
C37A C 0.7218(8) -0.2507(5) 0.8740(4)
N14A N 0.7027(6) -0.1781(4) 0.8827(3)
C38A C 0.5782(7) -0.1464(5) 0.8858(4)
C39A C 0.5529(8) -0.0827(4) 0.9230(4)
H31A H 0.6168 -0.0607 0.9436
C40A C 0.4337(8) -0.0515(5) 0.9299(4)
H32A H 0.4185 -0.0080 0.9538
C41A C 0.3371(9) -0.0850(5) 0.9011(4)
H33A H 0.2568 -0.0656 0.9069
C42A C 0.3628(9) -0.1485(5) 0.8632(4)
H34A H 0.2987 -0.1708 0.8432
C43A C 0.4817(7) -0.1789(5) 0.8548(4)
H35A H 0.4973 -0.2206 0.8288
N15A N 0.8667(7) -0.0713(4) 0.9764(4)
C44A C 0.8994(7) -0.0806(4) 1.0324(4)
N16A N 0.9300(7) -0.0859(4) 1.0940(3)
C45A C 1.0057(8) -0.1517(5) 1.1198(4)
C46A C 1.0613(8) -0.2060(5) 1.0799(5)
H36A H 1.0494 -0.2011 1.0336
C47A C 1.1345(9) -0.2674(6) 1.1095(5)
H37A H 1.1726 -0.3033 1.0828
C48A C 1.1517(9) -0.2762(6) 1.1773(5)
H38A H 1.1998 -0.3185 1.1967
C49A C 1.0976(9) -0.2223(6) 1.2171(5)
H39A H 1.1095 -0.2281 1.2634
C50A C 1.0259(8) -0.1598(5) 1.1887(4)
H40A H 0.9910 -0.1230 1.2157
N17A N 0.9833(6) -0.2133(4) 0.8857(4)
C51A C 1.0114(8) -0.2766(5) 0.8728(4)
N18A N 1.0316(6) -0.3471(4) 0.8562(4)
C52A C 1.1560(7) -0.3749(4) 0.8474(4)
C53A C 1.1814(8) -0.4315(5) 0.8029(4)
H41A H 1.1179 -0.4509 0.7800
C54A C 1.3020(8) -0.4591(5) 0.7924(5)
H42A H 1.3189 -0.4973 0.7629
C55A C 1.3961(9) -0.4297(5) 0.8257(5)
H43A H 1.4765 -0.4483 0.8185
C56A C 1.3726(8) -0.3732(5) 0.8699(4)
H44A H 1.4365 -0.3533 0.8921
C57A C 1.2516(8) -0.3463(5) 0.8805(4)
H45A H 1.2350 -0.3085 0.9104
Mn4A Mn 0.86927(11) -0.42022(7) 0.87318(6)
O4A O 0.7251(5) -0.4957(3) 0.9107(3)
H4A H 0.6981 -0.5314 0.8864
C76A C 0.6371(8) -0.4765(5) 0.9612(4)
H66A H 0.5607 -0.4979 0.9521
H67A H 0.6666 -0.4978 1.0045
H68A H 0.6251 -0.4209 0.9609
N19A N 0.8629(6) -0.4619(4) 0.7764(4)
C58A C 0.8427(8) -0.4405(5) 0.7203(4)
N20A N 0.8265(7) -0.4228(4) 0.6568(4)
C59A C 0.7513(8) -0.3553(5) 0.6362(4)
C60A C 0.7414(8) -0.3331(5) 0.5674(5)
H46A H 0.7834 -0.3622 0.5365
C61A C 0.6673(9) -0.2663(5) 0.5452(5)
H47A H 0.6624 -0.2504 0.4995
C62A C 0.6013(9) -0.2240(6) 0.5914(5)
H48A H 0.5504 -0.1811 0.5761
C63A C 0.6103(9) -0.2443(5) 0.6582(5)
H49A H 0.5677 -0.2146 0.6885
C64A C 0.6839(8) -0.3104(5) 0.6819(5)
H50A H 0.6885 -0.3248 0.7278
Mn4A_2 Mn -0.13073(11) 1.57978(7) -0.12682(6)
N21A_2 N 0.9999(6) -0.5241(4) 0.9140(3)
N22_2 N 0.9005(6) -0.4128(3) 0.9887(3)
loop_
_geom_bond_atom_site_label_1
_geom_bond_atom_site_label_2
_geom_bond_site_symmetry_1
_geom_bond_site_symmetry_2
Mn1 O1 1_555 1_555
Mn2 O2 1_555 1_555
Mn3 O3 1_555 1_555
Mn4 O4 1_555 1_555
O1 H1 1_555 1_555
O2 H2 1_555 1_555
O3 H3 1_555 1_555
O4 H4 1_555 1_555
N1 Mn2 1_555 1_555
C1 N1 1_555 1_555
N2 Mn1 1_555 1_555
C2 N2 1_555 1_555
C3 C2 1_555 1_555
H5 C3 1_555 1_555
C4 C3 1_555 1_555
H6 C4 1_555 1_555
C5 C4 1_555 1_555
H7 C5 1_555 1_555
C6 C5 1_555 1_555
H8 C6 1_555 1_555
C7 C2 1_555 1_555
H9 C7 1_555 1_555
N3 Mn1 1_555 1_555
C8 N3 1_555 1_555
N4 C8 1_555 1_555
C9 N4 1_555 1_555
C10 C9 1_555 1_555
H10 C10 1_555 1_555
C11 C10 1_555 1_555
H11 C11 1_555 1_555
C12 C11 1_555 1_555
H12 C12 1_555 1_555
C13 C12 1_555 1_555
H13 C13 1_555 1_555
C14 C9 1_555 1_555
H14 C14 1_555 1_555
N5 Mn1 1_555 1_555
C15 N5 1_555 1_555
N6 Mn2 1_555 1_555
C16 N6 1_555 1_555
C17 C16 1_555 1_555
H15 C17 1_555 1_555
C18 C17 1_555 1_555
H16 C18 1_555 1_555
C19 C18 1_555 1_555
H17 C19 1_555 1_555
C20 C19 1_555 1_555
H18 C20 1_555 1_555
C21 C16 1_555 1_555
H19 C21 1_555 1_555
N7 Mn2 1_555 1_555
C22 N7 1_555 1_555
N8 C22 1_555 1_555
C23 N8 1_555 1_555
C24 C23 1_555 1_555
H20 C24 1_555 1_555
C25 C24 1_555 1_555
H21 C25 1_555 1_555
C26 C25 1_555 1_555
H22 C26 1_555 1_555
C27 C26 1_555 1_555
H23 C27 1_555 1_555
C28 C23 1_555 1_555
H24 C28 1_555 1_555
N9 Mn2 1_555 1_555
C29 N9 1_555 1_555
H25 C29 1_555 1_555
C30 C29 1_555 1_555
H26 C30 1_555 1_555
C31 C30 1_555 1_555
H27 C31 1_555 1_555
N10 Mn3 1_555 1_555
C32 N9 1_555 1_555
C33 C32 1_555 1_555
N11 Mn2 1_555 1_555
C34 N11 1_555 1_555
H28 C34 1_555 1_555
C35 C34 1_555 1_555
H29 C35 1_555 1_555
C36 C35 1_555 1_555
H30 C36 1_555 1_555
N12 Mn3 1_555 1_555
N13 Mn4 1_555 1_555
C37 N13 1_555 1_555
N14 Mn3 1_555 1_555
C38 N14 1_555 1_555
C39 C38 1_555 1_555
H31 C39 1_555 1_555
C40 C39 1_555 1_555
H32 C40 1_555 1_555
C41 C40 1_555 1_555
H33 C41 1_555 1_555
C42 C41 1_555 1_555
H34 C42 1_555 1_555
C43 C38 1_555 1_555
H35 C43 1_555 1_555
N15 Mn3 1_555 1_555
C44 N15 1_555 1_555
N16 C44 1_555 1_555
C45 N16 1_555 1_555
C46 C45 1_555 1_555
H36 C46 1_555 1_555
C47 C46 1_555 1_555
H37 C47 1_555 1_555
C48 C47 1_555 1_555
H38 C48 1_555 1_555
C49 C48 1_555 1_555
H39 C49 1_555 1_555
C50 C45 1_555 1_555
H40 C50 1_555 1_555
N17 Mn3 1_555 1_555
C51 N17 1_555 1_555
N18 Mn4 1_555 1_555
C52 N18 1_555 1_555
C53 C52 1_555 1_555
H41 C53 1_555 1_555
C54 C53 1_555 1_555
H42 C54 1_555 1_555
C55 C54 1_555 1_555
H43 C55 1_555 1_555
C56 C55 1_555 1_555
H44 C56 1_555 1_555
C57 C52 1_555 1_555
H45 C57 1_555 1_555
N19 Mn4 1_555 1_555
C58 N19 1_555 1_555
N20 C58 1_555 1_555
C59 N20 1_555 1_555
C60 C59 1_555 1_555
H46 C60 1_555 1_555
C61 C60 1_555 1_555
H47 C61 1_555 1_555
C62 C61 1_555 1_555
H48 C62 1_555 1_555
C63 C62 1_555 1_555
H49 C63 1_555 1_555
C64 C59 1_555 1_555
H50 C64 1_555 1_555
N21 Mn4 1_555 1_555
C65 N21 1_555 1_555
H51 C65 1_555 1_555
C66 C65 1_555 1_555
H52 C66 1_555 1_555
C67 C66 1_555 1_555
H53 C67 1_555 1_555
N22 C67 1_555 1_555
C68 N21 1_555 1_555
N23 Mn1 1_555 1_555
C69 N23 1_555 1_555
H54 C69 1_555 1_555
C70 C69 1_555 1_555
H55 C70 1_555 1_555
C71 C70 1_555 1_555
H56 C71 1_555 1_555
N24 C71 1_555 1_555
C72 N23 1_555 1_555
C73 O1 1_555 1_555
H57 C73 1_555 1_555
H58 C73 1_555 1_555
H59 C73 1_555 1_555
C74 O2 1_555 1_555
H60 C74 1_555 1_555
H61 C74 1_555 1_555
H62 C74 1_555 1_555
C75 O3 1_555 1_555
H63 C75 1_555 1_555
H64 C75 1_555 1_555
H65 C75 1_555 1_555
C76 O4 1_555 1_555
H66 C76 1_555 1_555
H67 C76 1_555 1_555
H68 C76 1_555 1_555
C68A C68 1_555 1_555
N21A C68A 1_555 1_555
C65A N21A 1_555 1_555
H51A C65A 1_555 1_555
C66A C65A 1_555 1_555
H52A C66A 1_555 1_555
C67A C66A 1_555 1_555
H53A C67A 1_555 1_555
N22A Mn4 1_555 1_555
C72A C72 1_555 1_555
N23A C72A 1_555 1_555
C69A N23A 1_555 1_555
H54A C69A 1_555 1_555
C70A C69A 1_555 1_555
H55A C70A 1_555 1_555
C71A C70A 1_555 1_555
H56A C71A 1_555 1_555
N24A Mn1 1_555 1_555
Mn1A N24 1_555 1_555
O1A Mn1A 1_555 1_555
H1A O1A 1_555 1_555
C73A O1A 1_555 1_555
H57A C73A 1_555 1_555
H58A C73A 1_555 1_555
H59A C73A 1_555 1_555
N1A C1A 1_555 1_555
C1A N2A 1_555 1_555
N2A Mn1A 1_555 1_555
C2A N2A 1_555 1_555
C3A C2A 1_555 1_555
H5A C3A 1_555 1_555
C4A C3A 1_555 1_555
H6A C4A 1_555 1_555
C5A C4A 1_555 1_555
H7A C5A 1_555 1_555
C6A C5A 1_555 1_555
H8A C6A 1_555 1_555
C7A C2A 1_555 1_555
H9A C7A 1_555 1_555
N3A Mn1A 1_555 1_555
C8A N3A 1_555 1_555
N4A C8A 1_555 1_555
C9A N4A 1_555 1_555
C10A C9A 1_555 1_555
H10A C10A 1_555 1_555
C11A C10A 1_555 1_555
H11A C11A 1_555 1_555
C12A C11A 1_555 1_555
H12A C12A 1_555 1_555
C13A C12A 1_555 1_555
H13A C13A 1_555 1_555
C14A C9A 1_555 1_555
H14A C14A 1_555 1_555
N5A Mn1A 1_555 1_555
C15A N5A 1_555 1_555
N6A C15A 1_555 1_555
C16A N6A 1_555 1_555
C17A C16A 1_555 1_555
H15A C17A 1_555 1_555
C18A C17A 1_555 1_555
H16A C18A 1_555 1_555
C19A C18A 1_555 1_555
H17A C19A 1_555 1_555
C20A C19A 1_555 1_555
H18A C20A 1_555 1_555
C21A C16A 1_555 1_555
H19A C21A 1_555 1_555
Mn2A N1A 1_555 1_555
O2A Mn2A 1_555 1_555
H2A O2A 1_555 1_555
C74A O2A 1_555 1_555
H60A C74A 1_555 1_555
H61A C74A 1_555 1_555
H62A C74A 1_555 1_555
N7A Mn2A 1_555 1_555
C22A N7A 1_555 1_555
N8A C22A 1_555 1_555
C23A N8A 1_555 1_555
C24A C23A 1_555 1_555
H20A C24A 1_555 1_555
C25A C24A 1_555 1_555
H21A C25A 1_555 1_555
C26A C25A 1_555 1_555
H22A C26A 1_555 1_555
C27A C26A 1_555 1_555
H23A C27A 1_555 1_555
C28A C23A 1_555 1_555
H24A C28A 1_555 1_555
N9A Mn2A 1_555 1_555
C29A N9A 1_555 1_555
H25A C29A 1_555 1_555
C30A C29A 1_555 1_555
H26A C30A 1_555 1_555
C31A C30A 1_555 1_555
H27A C31A 1_555 1_555
N10A C31A 1_555 1_555
C32A N9A 1_555 1_555
C33A C32A 1_555 1_555
N11A Mn2A 1_555 1_555
C34A N11A 1_555 1_555
H28A C34A 1_555 1_555
C35A C34A 1_555 1_555
H29A C35A 1_555 1_555
C36A C35A 1_555 1_555
H30A C36A 1_555 1_555
N12A C33A 1_555 1_555
Mn3A N10A 1_555 1_555
O3A Mn3A 1_555 1_555
H3A O3A 1_555 1_555
C75A O3A 1_555 1_555
H63A C75A 1_555 1_555
H64A C75A 1_555 1_555
H65A C75A 1_555 1_555
N13A C37A 1_555 1_555
C37A N14A 1_555 1_555
N14A Mn3A 1_555 1_555
C38A N14A 1_555 1_555
C39A C38A 1_555 1_555
H31A C39A 1_555 1_555
C40A C39A 1_555 1_555
H32A C40A 1_555 1_555
C41A C40A 1_555 1_555
H33A C41A 1_555 1_555
C42A C41A 1_555 1_555
H34A C42A 1_555 1_555
C43A C38A 1_555 1_555
H35A C43A 1_555 1_555
N15A Mn3A 1_555 1_555
C44A N15A 1_555 1_555
N16A C44A 1_555 1_555
C45A N16A 1_555 1_555
C46A C45A 1_555 1_555
H36A C46A 1_555 1_555
C47A C46A 1_555 1_555
H37A C47A 1_555 1_555
C48A C47A 1_555 1_555
H38A C48A 1_555 1_555
C49A C48A 1_555 1_555
H39A C49A 1_555 1_555
C50A C45A 1_555 1_555
H40A C50A 1_555 1_555
N17A Mn3A 1_555 1_555
C51A N17A 1_555 1_555
N18A C51A 1_555 1_555
C52A N18A 1_555 1_555
C53A C52A 1_555 1_555
H41A C53A 1_555 1_555
C54A C53A 1_555 1_555
H42A C54A 1_555 1_555
C55A C54A 1_555 1_555
H43A C55A 1_555 1_555
C56A C55A 1_555 1_555
H44A C56A 1_555 1_555
C57A C52A 1_555 1_555
H45A C57A 1_555 1_555
Mn4A N13A 1_555 1_555
O4A Mn4A 1_555 1_555
H4A O4A 1_555 1_555
C76A O4A 1_555 1_555
H66A C76A 1_555 1_555
H67A C76A 1_555 1_555
H68A C76A 1_555 1_555
N19A Mn4A 1_555 1_555
C58A N19A 1_555 1_555
N20A C58A 1_555 1_555
C59A N20A 1_555 1_555
C60A C59A 1_555 1_555
H46A C60A 1_555 1_555
C61A C60A 1_555 1_555
H47A C61A 1_555 1_555
C62A C61A 1_555 1_555
H48A C62A 1_555 1_555
C63A C62A 1_555 1_555
H49A C63A 1_555 1_555
C64A C59A 1_555 1_555
H50A C64A 1_555 1_555
Mn4A_2 N22 1_555 1_555
N21A_2 Mn4A 1_555 1_555
N22_2 Mn4A 1_555 1_555
C1 N2 1_555 1_555
C6 C7 1_555 1_555
C13 C14 1_555 1_555
C15 N6 1_555 1_555
C20 C21 1_555 1_555
C27 C28 1_555 1_555
C31 N10 1_555 1_555
N10 C32 1_555 1_555
C33 N11 1_555 1_555
C33 N12 1_555 1_555
C36 N12 1_555 1_555
C37 N14 1_555 1_555
C42 C43 1_555 1_555
C49 C50 1_555 1_555
C51 N18 1_555 1_555
C56 C57 1_555 1_555
C63 C64 1_555 1_555
N22 C68 1_555 1_555
N24 C72 1_555 1_555
C68A N22A 1_555 1_555
N21A Mn4A_2 1_555 1_555
C67A N22A 1_555 1_555
C72A N24A 1_555 1_555
N23A Mn1A 1_555 1_555
C71A N24A 1_555 1_555
C6A C7A 1_555 1_555
C13A C14A 1_555 1_555
N6A Mn2A 1_555 1_555
C20A C21A 1_555 1_555
C27A C28A 1_555 1_555
N10A C32A 1_555 1_555
C33A N11A 1_555 1_555
C36A N12A 1_555 1_555
N12A Mn3A 1_555 1_555
C42A C43A 1_555 1_555
C49A C50A 1_555 1_555
N18A Mn4A 1_555 1_555
C56A C57A 1_555 1_555
C63A C64A 1_555 1_555

#END
