
#######################################################################
#
#                 Cambridge Crystallographic Data Centre
#                                CCDC 
#
#######################################################################
#
# If this CIF has been generated from an entry in the Cambridge 
# Structural Database, then it will include bibliographic, chemical, 
# crystal, experimental, refinement or atomic coordinate data resulting 
# from the CCDC's data processing and validation procedures.
#
#######################################################################

data_IHINES
_symmetry_cell_setting           triclinic
_symmetry_space_group_name_H-M   'P -1'
_symmetry_Int_Tables_number      2
_space_group_name_Hall           '-P 1'
loop_
_symmetry_equiv_pos_site_id
_symmetry_equiv_pos_as_xyz
1 x,y,z
2 -x,-y,-z
_cell_length_a                   8.515(2)
_cell_length_b                   10.197(3)
_cell_length_c                   11.823(3)
_cell_angle_alpha                106.341(3)
_cell_angle_beta                 95.614(3)
_cell_angle_gamma                99.685(4)
_cell_volume                     959.551
loop_
_atom_site_label
_atom_site_type_symbol
_atom_site_fract_x
_atom_site_fract_y
_atom_site_fract_z
Ag1 Ag 0.17088(6) 0.41386(6) 0.42668(5)
Ag2 Ag 0.48331(6) 0.63579(6) 0.57526(5)
I1 I 0.17461(5) 0.62121(5) 0.64984(4)
I2 I 0.39790(5) 0.57714(5) 0.31956(4)
I3 I 0.24518(5) 0.14683(5) 0.34712(4)
Ag2A Ag 0.51669(6) 0.36421(6) 0.42474(5)
I1A I -0.17461(5) 0.37879(5) 0.35016(4)
Ag1A Ag 0.82912(6) 0.58614(6) 0.57332(5)
I2A I 0.60210(5) 0.42286(5) 0.68044(4)
I3A I 0.75482(5) 0.85317(5) 0.65288(4)
Ag1A_2 Ag -0.17088(6) 0.58614(6) 0.57332(5)
Ag3 Ag 0.29355(6) 0.80602(6) 0.15550(5)
C1 C 0.5319(8) 0.8796(7) 0.1385(6)
C2 C 0.7922(9) 0.9873(8) 0.1705(7)
H1 H 0.8956 1.0396 0.2107
C3 C 0.7473(8) 0.9354(8) 0.0531(7)
H2 H 0.8129 0.9422 -0.0064
C4 C 0.6563(10) 0.9835(9) 0.3515(6)
H3 H 0.5565 1.0151 0.3693
H4 H 0.7492 1.0573 0.3953
H5 H 0.6602 0.8996 0.3757
C5 C 0.4956(9) 0.7943(8) -0.0835(6)
H6 H 0.5274 0.7043 -0.1135
H7 H 0.5166 0.8490 -0.1385
H8 H 0.3805 0.7784 -0.0773
C6 C 0.0478(8) 0.7254(7) 0.1422(6)
C7 C -0.1998(9) 0.6475(8) 0.1787(7)
H9 H -0.2855 0.6266 0.2207
C8 C -0.2075(8) 0.6164(8) 0.0607(7)
H10 H -0.3000 0.5698 0.0027
C9 C 0.0190(9) 0.7691(8) 0.3556(6)
H11 H 0.0540 0.6945 0.3823
H12 H -0.0660 0.8012 0.3997
H13 H 0.1107 0.8471 0.3703
C10 C -0.0154(9) 0.6554(9) -0.0804(6)
H14 H 0.0969 0.7028 -0.0732
H15 H -0.0866 0.7003 -0.1205
H16 H -0.0291 0.5571 -0.1271
N1 N 0.6609(7) 0.9512(6) 0.2231(5)
N2 N 0.5889(6) 0.8705(6) 0.0343(5)
N3 N -0.0431(7) 0.7161(6) 0.2284(5)
N4 N -0.0565(6) 0.6645(6) 0.0389(5)
loop_
_geom_bond_atom_site_label_1
_geom_bond_atom_site_label_2
_geom_bond_site_symmetry_1
_geom_bond_site_symmetry_2
Ag1 I1 1_555 1_555
Ag2 I1 1_555 1_555
Ag3 C1 1_555 1_555
C1 N1 1_555 1_555
C2 H1 1_555 1_555
C3 C2 1_555 1_555
H2 C3 1_555 1_555
C4 H3 1_555 1_555
H4 C4 1_555 1_555
H5 C4 1_555 1_555
C5 H6 1_555 1_555
H7 C5 1_555 1_555
H8 C5 1_555 1_555
C6 Ag3 1_555 1_555
C7 H9 1_555 1_555
C8 C7 1_555 1_555
H10 C8 1_555 1_555
C9 H11 1_555 1_555
H12 C9 1_555 1_555
H13 C9 1_555 1_555
C10 H14 1_555 1_555
H15 C10 1_555 1_555
H16 C10 1_555 1_555
I1 Ag1A_2 1_555 1_555
I2 Ag1 1_555 1_555
I3 Ag1 1_555 1_555
N1 C2 1_555 1_555
N2 C1 1_555 1_555
N3 C6 1_555 1_555
N4 C6 1_555 1_555
Ag2A Ag1 1_555 1_555
I1A Ag1 1_555 1_555
Ag1A Ag2 1_555 1_555
I2A Ag2 1_555 1_555
I3A Ag2 1_555 1_555
Ag1A_2 I1A 1_555 1_555
Ag2 I2 1_555 1_555
Ag2 Ag2A 1_555 1_555
C3 N2 1_555 1_555
C4 N1 1_555 1_555
C5 N2 1_555 1_555
C7 N3 1_555 1_555
C8 N4 1_555 1_555
C9 N3 1_555 1_555
C10 N4 1_555 1_555
I2 Ag2A 1_555 1_555
I3 Ag2A 1_555 1_555
Ag2A I2A 1_555 1_555
Ag1A I2A 1_555 1_555
Ag1A I3A 1_555 1_555

#END
