
#######################################################################
#
#                 Cambridge Crystallographic Data Centre
#                                CCDC 
#
#######################################################################
#
# If this CIF has been generated from an entry in the Cambridge 
# Structural Database, then it will include bibliographic, chemical, 
# crystal, experimental, refinement or atomic coordinate data resulting 
# from the CCDC's data processing and validation procedures.
#
#######################################################################

data_IHIPEW
_symmetry_cell_setting           triclinic
_symmetry_space_group_name_H-M   'P -1'
_symmetry_Int_Tables_number      2
_space_group_name_Hall           '-P 1'
loop_
_symmetry_equiv_pos_site_id
_symmetry_equiv_pos_as_xyz
1 x,y,z
2 -x,-y,-z
_cell_length_a                   14.372(3)
_cell_length_b                   19.388(3)
_cell_length_c                   19.648(4)
_cell_angle_alpha                96.034(5)
_cell_angle_beta                 100.883(5)
_cell_angle_gamma                102.490(5)
_cell_volume                     5187.93
loop_
_atom_site_label
_atom_site_type_symbol
_atom_site_fract_x
_atom_site_fract_y
_atom_site_fract_z
Bi1 Bi 0.54598(6) 0.72964(4) 0.30131(4)
Bi2 Bi 1.05184(6) 0.80435(4) 0.23559(4)
Bi3 Bi 1.22510(6) 0.63641(4) 0.22176(4)
Bi4 Bi 0.72985(6) 0.72459(4) 0.13808(4)
Bi5 Bi 1.38023(6) 0.90297(4) 0.31597(4)
Bi6 Bi 0.86906(6) 0.80028(4) 0.40004(4)
I1 I 1.08011(10) 0.69294(7) 0.12059(7)
I2 I 1.20700(10) 0.76499(7) 0.34317(7)
I3 I 0.57278(10) 0.61764(7) 0.18686(7)
I4 I 0.89346(10) 0.68483(7) 0.26629(7)
I5 I 0.71024(10) 0.84339(7) 0.27015(7)
I6 I 0.40037(10) 0.77185(7) 0.19113(7)
I7 I 0.52520(11) 0.84206(8) 0.41430(7)
I8 I 1.02470(10) 0.91208(7) 0.35064(7)
I9 I 0.90519(11) 0.84289(7) 0.11894(8)
I10 I 0.69277(10) 0.68343(7) 0.41354(7)
I11 I 0.38991(10) 0.61160(7) 0.33678(8)
I12 I 1.21014(10) 0.92224(7) 0.20080(8)
I13 I 1.24633(12) 0.53234(8) 0.11336(8)
I14 I 0.74619(12) 0.61526(8) 0.03339(8)
I15 I 0.59281(12) 0.77512(8) 0.04649(8)
I16 I 0.84827(11) 0.90262(8) 0.50841(8)
I17 I 1.07852(12) 0.54066(9) 0.26614(9)
I18 I 1.00903(11) 0.74732(9) 0.48699(9)
I19 I 1.34162(12) 0.99103(8) 0.42662(9)
I20 I 1.53083(11) 1.01238(8) 0.28701(8)
Bi3_2 Bi 0.22510(6) 0.63641(4) 0.22176(4)
Bi5_2 Bi 0.38023(6) 0.90297(4) 0.31597(4)
I6_2 I 1.40037(10) 0.77185(7) 0.19113(7)
I7_2 I 1.52520(11) 0.84206(8) 0.41430(7)
I11_2 I 1.38991(10) 0.61160(7) 0.33678(8)
Na1 Na 0.9315(6) 1.1570(4) 0.1373(4)
O1 O 1.1003(11) 1.2369(7) 0.1353(7)
O2 O 0.9281(11) 1.2559(8) 0.0582(8)
O3 O 0.7528(11) 1.0613(7) 0.1266(8)
O4 O 1.0944(11) 1.1493(8) 0.2217(7)
O5 O 0.7556(11) 1.1575(8) 0.0481(7)
O6 O 0.9180(10) 1.0660(7) 0.2257(8)
N1 N 0.8929(14) 1.2396(10) 0.2238(10)
C1 C 1.2654(15) 1.2286(11) 0.1212(11)
H1 H 1.2683 1.2609 0.0881
C2 C 0.6947(15) 1.0931(10) 0.0161(11)
C3 C 0.6944(16) 1.0398(11) 0.0621(12)
C4 C 0.9885(16) 1.0963(12) 0.2881(12)
H2 H 0.9803 1.0656 0.3248
H3 H 0.9807 1.1441 0.3054
C5 C 1.3422(16) 1.1539(11) 0.1901(11)
H4 H 1.3969 1.1346 0.2043
C6 C 1.1773(18) 1.1638(12) 0.1975(12)
C7 C 0.7530(18) 1.0073(11) 0.1691(15)
H5 H 0.7754 0.9675 0.1469
H6 H 0.6866 0.9884 0.1766
C8 C 0.8817(15) 1.2798(11) 0.2653(11)
C9 C 0.8213(16) 1.0414(12) 0.2367(12)
H7 H 0.7993 1.0822 0.2574
H8 H 0.8215 1.0064 0.2699
C10 C 1.3417(18) 1.1997(11) 0.1412(11)
H9 H 1.3969 1.2114 0.1209
C11 C 0.7609(17) 1.2131(12) 0.0069(12)
H10 H 0.6976 1.2264 -0.0033
H11 H 0.7773 1.1977 -0.0381
C12 C 1.2586(15) 1.1369(11) 0.2182(11)
H12 H 1.2577 1.1059 0.2526
N2 N 0.9385(17) 1.0674(12) 0.0471(12)
C13 C 0.842(2) 0.9599(15) -0.0460(13)
H13 H 0.8227 0.9758 -0.0912
H14 H 0.7832 0.9359 -0.0313
H15 H 0.8834 0.9266 -0.0508
C14 C 0.6374(19) 1.0748(14) -0.0498(12)
H16 H 0.6367 1.1107 -0.0792
C15 C 1.1845(17) 1.2117(11) 0.1483(12)
C16 C 1.0870(19) 1.1024(11) 0.2721(12)
H17 H 1.1385 1.1218 0.3151
H18 H 1.0942 1.0550 0.2531
C17 C 0.5783(19) 0.9559(13) -0.0326(15)
H19 H 0.5375 0.9094 -0.0497
C18 C 1.0089(16) 1.3155(12) 0.0877(12)
H20 H 1.0052 1.3342 0.1357
H21 H 1.0079 1.3543 0.0588
C19 C 0.8403(15) 1.2761(11) 0.0490(11)
H22 H 0.8441 1.3179 0.0237
H23 H 0.8255 1.2896 0.0951
C20 C 0.635(2) 0.9714(14) 0.0354(13)
H24 H 0.6331 0.9350 0.0642
C21 C 0.5817(18) 1.0087(13) -0.0755(14)
H25 H 0.5450 0.9981 -0.1225
C22 C 0.894(2) 1.0201(14) 0.0051(14)
C23 C 1.1000(17) 1.2905(12) 0.0893(12)
H26 H 1.1021 1.2698 0.0416
H27 H 1.1578 1.3310 0.1069
C24 C 0.8651(18) 1.3324(13) 0.3166(14)
H28 H 0.8723 1.3784 0.2993
H29 H 0.9127 1.3376 0.3608
H30 H 0.7989 1.3168 0.3245
Na2 Na 0.5472(7) 0.3502(4) 0.3491(4)
O7 O 0.7249(10) 0.4386(7) 0.3514(7)
O8 O 0.3855(10) 0.3608(7) 0.2708(7)
O9 O 0.5453(10) 0.2515(8) 0.4307(7)
O10 O 0.5610(12) 0.4363(8) 0.2542(8)
O11 O 0.3765(10) 0.2707(8) 0.3542(8)
O12 O 0.7170(11) 0.3491(8) 0.4351(8)
N3 N 0.5868(15) 0.2648(10) 0.2657(10)
C25 C 0.2949(15) 0.2960(11) 0.3412(11)
C26 C 0.3006(16) 0.3458(11) 0.2946(11)
C27 C 0.7102(17) 0.2968(11) 0.4814(11)
H31 H 0.6916 0.3156 0.5244
H32 H 0.7739 0.2847 0.4952
C28 C 0.7269(16) 0.4869(12) 0.2983(12)
H33 H 0.7111 0.5320 0.3152
H34 H 0.7918 0.4983 0.2863
C29 C 0.4664(15) 0.1927(11) 0.3982(10)
H35 H 0.4674 0.1521 0.4248
H36 H 0.4721 0.1770 0.3498
C30 C 0.3729(16) 0.2155(11) 0.3966(11)
H37 H 0.3159 0.1750 0.3761
H38 H 0.3680 0.2336 0.4445
C31 C 0.8490(18) 0.5292(12) 0.4367(15)
H39 H 0.8499 0.5629 0.4049
C32 C 0.7831(18) 0.4138(15) 0.4635(13)
C33 C 0.1389(19) 0.3563(12) 0.3034(12)
H40 H 0.0839 0.3754 0.2896
C34 C 0.6532(16) 0.4471(12) 0.2387(12)
H41 H 0.6545 0.4736 0.1984
H42 H 0.6672 0.4003 0.2255
C35 C 0.3893(17) 0.4072(12) 0.2188(12)
H43 H 0.3888 0.4561 0.2388
H44 H 0.3328 0.3893 0.1787
C36 C 0.902(2) 0.4993(14) 0.5471(13)
H45 H 0.9407 0.5122 0.5935
C37 C 0.2123(15) 0.2768(11) 0.3681(10)
H46 H 0.2080 0.2417 0.3985
C38 C 0.2232(17) 0.3767(11) 0.2755(13)
H47 H 0.2264 0.4109 0.2442
C39 C 0.6644(18) 0.5387(14) 0.5444(14)
H48 H 0.7175 0.5691 0.5286
H49 H 0.6919 0.5155 0.5827
H50 H 0.6231 0.5679 0.5609
C40 C 0.7882(14) 0.4622(10) 0.4163(11)
C41 C 0.6094(14) 0.2255(11) 0.2305(11)
C42 C 0.4827(17) 0.4070(12) 0.1959(12)
H51 H 0.4841 0.3576 0.1784
H52 H 0.4883 0.4359 0.1575
C43 C 0.6348(14) 0.2324(11) 0.4435(10)
H53 H 0.6507 0.2157 0.3987
H54 H 0.6316 0.1933 0.4722
C44 C 0.8406(15) 0.4300(13) 0.5280(11)
H55 H 0.8399 0.3961 0.5596
N4 N 0.554(2) 0.4421(13) 0.4408(14)
C45 C 0.1372(18) 0.3085(11) 0.3507(12)
H56 H 0.0824 0.2976 0.3717
C46 C 0.609(2) 0.4871(16) 0.4892(17)
C47 C 0.9095(18) 0.5486(12) 0.5034(12)
H57 H 0.9537 0.5943 0.5174
C48 C 0.635(2) 0.1728(12) 0.1847(14)
H58 H 0.5874 0.1611 0.1398
H59 H 0.6346 0.1296 0.2065
H60 H 0.7002 0.1920 0.1768
N5 N 1.2162(15) 0.8318(11) 0.6394(11)
C49 C 1.2065(17) 0.8770(13) 0.6091(13)
C50 C 1.188(2) 0.9303(15) 0.5656(15)
H61 H 1.1865 0.9122 0.5168
H62 H 1.2404 0.9741 0.5815
H63 H 1.1254 0.9408 0.5690
C51 C 0.615(2) 0.3537(16) 0.0616(16)
N6 N 0.626(2) 0.3061(14) 0.0891(15)
C52 C 0.583(3) 0.4097(18) 0.0255(19)
H64 H 0.6149 0.4160 -0.0142
H65 H 0.6017 0.4547 0.0582
H66 H 0.5123 0.3959 0.0085
C53 C 0.875(3) 0.463(2) 0.122(2)
N7 N 0.842(3) 0.4361(19) 0.166(2)
C54 C 0.936(2) 0.4904(17) 0.0776(17)
H67 H 0.9092 0.4645 0.0298
H68 H 1.0014 0.4842 0.0945
H69 H 0.9382 0.5413 0.0775
loop_
_geom_bond_atom_site_label_1
_geom_bond_atom_site_label_2
_geom_bond_site_symmetry_1
_geom_bond_site_symmetry_2
Bi1 I3 1_555 1_555
Bi2 I1 1_555 1_555
Bi3 I1 1_555 1_555
Bi4 I3 1_555 1_555
Bi5 I2 1_555 1_555
Bi6 I4 1_555 1_555
I2 Bi2 1_555 1_555
I4 Bi2 1_555 1_555
I5 Bi1 1_555 1_555
I6 Bi1 1_555 1_555
I7 Bi1 1_555 1_555
I8 Bi2 1_555 1_555
I9 Bi2 1_555 1_555
I10 Bi1 1_555 1_555
I11 Bi1 1_555 1_555
I12 Bi2 1_555 1_555
I13 Bi3 1_555 1_555
I14 Bi4 1_555 1_555
I15 Bi4 1_555 1_555
I16 Bi6 1_555 1_555
I17 Bi3 1_555 1_555
I18 Bi6 1_555 1_555
I19 Bi5 1_555 1_555
I20 Bi5 1_555 1_555
Na1 O1 1_555 1_555
O1 C15 1_555 1_555
O2 Na1 1_555 1_555
O3 Na1 1_555 1_555
O4 Na1 1_555 1_555
O5 Na1 1_555 1_555
O6 Na1 1_555 1_555
N1 Na1 1_555 1_555
C1 H1 1_555 1_555
C2 O5 1_555 1_555
C3 O3 1_555 1_555
C4 O6 1_555 1_555
H2 C4 1_555 1_555
H3 C4 1_555 1_555
C5 H4 1_555 1_555
C6 O4 1_555 1_555
C7 O3 1_555 1_555
H5 C7 1_555 1_555
H6 C7 1_555 1_555
C8 N1 1_555 1_555
C9 O6 1_555 1_555
H7 C9 1_555 1_555
H8 C9 1_555 1_555
C10 C1 1_555 1_555
H9 C10 1_555 1_555
C11 O5 1_555 1_555
H10 C11 1_555 1_555
H11 C11 1_555 1_555
C12 C5 1_555 1_555
H12 C12 1_555 1_555
N2 Na1 1_555 1_555
C13 H13 1_555 1_555
H14 C13 1_555 1_555
H15 C13 1_555 1_555
C14 C2 1_555 1_555
H16 C14 1_555 1_555
C15 C1 1_555 1_555
C16 O4 1_555 1_555
H17 C16 1_555 1_555
H18 C16 1_555 1_555
C17 H19 1_555 1_555
C18 O2 1_555 1_555
H20 C18 1_555 1_555
H21 C18 1_555 1_555
C19 O2 1_555 1_555
H22 C19 1_555 1_555
H23 C19 1_555 1_555
C20 C3 1_555 1_555
H24 C20 1_555 1_555
C21 C14 1_555 1_555
H25 C21 1_555 1_555
C22 N2 1_555 1_555
C23 O1 1_555 1_555
H26 C23 1_555 1_555
H27 C23 1_555 1_555
C24 C8 1_555 1_555
H28 C24 1_555 1_555
H29 C24 1_555 1_555
H30 C24 1_555 1_555
Na2 O7 1_555 1_555
O7 C28 1_555 1_555
O8 Na2 1_555 1_555
O9 Na2 1_555 1_555
O10 Na2 1_555 1_555
O11 Na2 1_555 1_555
O12 Na2 1_555 1_555
N3 Na2 1_555 1_555
C25 O11 1_555 1_555
C26 O8 1_555 1_555
C27 O12 1_555 1_555
H31 C27 1_555 1_555
H32 C27 1_555 1_555
C28 H33 1_555 1_555
H34 C28 1_555 1_555
C29 O9 1_555 1_555
H35 C29 1_555 1_555
H36 C29 1_555 1_555
C30 O11 1_555 1_555
H37 C30 1_555 1_555
H38 C30 1_555 1_555
C31 H39 1_555 1_555
C32 O12 1_555 1_555
C33 H40 1_555 1_555
C34 O10 1_555 1_555
H41 C34 1_555 1_555
H42 C34 1_555 1_555
C35 O8 1_555 1_555
H43 C35 1_555 1_555
H44 C35 1_555 1_555
C36 H45 1_555 1_555
C37 C25 1_555 1_555
H46 C37 1_555 1_555
C38 C26 1_555 1_555
H47 C38 1_555 1_555
C39 H48 1_555 1_555
H49 C39 1_555 1_555
H50 C39 1_555 1_555
C40 O7 1_555 1_555
C41 N3 1_555 1_555
C42 O10 1_555 1_555
H51 C42 1_555 1_555
H52 C42 1_555 1_555
C43 O9 1_555 1_555
H53 C43 1_555 1_555
H54 C43 1_555 1_555
C44 C32 1_555 1_555
H55 C44 1_555 1_555
N4 Na2 1_555 1_555
C45 C33 1_555 1_555
H56 C45 1_555 1_555
C46 C39 1_555 1_555
C47 C31 1_555 1_555
H57 C47 1_555 1_555
C48 C41 1_555 1_555
H58 C48 1_555 1_555
H59 C48 1_555 1_555
H60 C48 1_555 1_555
N5 C49 1_555 1_555
C49 C50 1_555 1_555
C50 H61 1_555 1_555
H62 C50 1_555 1_555
H63 C50 1_555 1_555
C51 N6 1_555 1_555
C52 C51 1_555 1_555
H64 C52 1_555 1_555
H65 C52 1_555 1_555
H66 C52 1_555 1_555
C53 N7 1_555 1_555
C54 C53 1_555 1_555
H67 C54 1_555 1_555
H68 C54 1_555 1_555
H69 C54 1_555 1_555
Bi3_2 I6 1_555 1_555
Bi5_2 I6 1_555 1_555
I6_2 Bi3 1_555 1_555
I7_2 Bi5 1_555 1_555
I11_2 Bi3 1_555 1_555
Bi3 I2 1_555 1_555
Bi4 I4 1_555 1_555
Bi4 I5 1_555 1_555
Bi4 I9 1_555 1_555
Bi5 I12 1_555 1_555
Bi5 I6_2 1_555 1_555
Bi6 I5 1_555 1_555
Bi6 I8 1_555 1_555
Bi6 I10 1_555 1_555
I7 Bi5_2 1_555 1_555
I11 Bi3_2 1_555 1_555
C2 C3 1_555 1_555
C4 C16 1_555 1_555
C5 C10 1_555 1_555
C6 C12 1_555 1_555
C6 C15 1_555 1_555
C7 C9 1_555 1_555
C11 C19 1_555 1_555
C13 C22 1_555 1_555
C17 C20 1_555 1_555
C17 C21 1_555 1_555
C18 C23 1_555 1_555
C25 C26 1_555 1_555
C27 C43 1_555 1_555
C28 C34 1_555 1_555
C29 C30 1_555 1_555
C31 C40 1_555 1_555
C32 C40 1_555 1_555
C33 C38 1_555 1_555
C35 C42 1_555 1_555
C36 C44 1_555 1_555
C36 C47 1_555 1_555
C37 C45 1_555 1_555
N4 C46 1_555 1_555

#END
