
#######################################################################
#
#                 Cambridge Crystallographic Data Centre
#                                CCDC 
#
#######################################################################
#
# If this CIF has been generated from an entry in the Cambridge 
# Structural Database, then it will include bibliographic, chemical, 
# crystal, experimental, refinement or atomic coordinate data resulting 
# from the CCDC's data processing and validation procedures.
#
#######################################################################

data_IHITEY
_symmetry_cell_setting           monoclinic
_symmetry_space_group_name_H-M   'P 21/a'
_symmetry_Int_Tables_number      14
_space_group_name_Hall           '-P 2yab'
loop_
_symmetry_equiv_pos_site_id
_symmetry_equiv_pos_as_xyz
1 x,y,z
2 1/2+x,1/2-y,z
3 -x,-y,-z
4 1/2-x,1/2+y,-z
_cell_length_a                   18.6920(16)
_cell_length_b                   10.6070(6)
_cell_length_c                   24.0520(18)
_cell_angle_alpha                90
_cell_angle_beta                 111.354(3)
_cell_angle_gamma                90
_cell_volume                     4441.32
loop_
_atom_site_label
_atom_site_type_symbol
_atom_site_fract_x
_atom_site_fract_y
_atom_site_fract_z
Cu1 Cu -0.69432(11) -0.23754(19) -0.03990(8)
C1 C -0.7262(9) -0.4768(13) 0.0268(6)
H1 H -0.7460 -0.5049 -0.0153
H2 H -0.7697 -0.4385 0.0349
N1 N -0.6681(6) -0.3776(14) 0.0335(5)
C2 C -0.6492(8) -0.2984(14) 0.0887(6)
H3 H -0.6966 -0.2791 0.0963
H4 H -0.6136 -0.3446 0.1236
C3 C -0.6125(8) -0.1790(15) 0.0796(6)
C4 C -0.5780(8) -0.097(2) 0.1270(8)
H5 H -0.5799 -0.1179 0.1649
C5 C -0.5426(8) 0.0077(16) 0.1217(7)
H6 H -0.5130 0.0541 0.1563
C6 C -0.5490(9) 0.0487(14) 0.0665(7)
H7 H -0.5312 0.1292 0.0599
C7 C -0.5829(9) -0.0346(19) 0.0210(9)
H8 H -0.5811 -0.0155 -0.0171
N2 N -0.6183(7) -0.1408(13) 0.0262(5)
C8 C -0.5929(8) -0.4381(14) 0.0321(7)
H9 H -0.6027 -0.4763 -0.0075
H10 H -0.5530 -0.3723 0.0389
N3 N -0.5651(6) -0.5365(12) 0.0791(6)
C9 C -0.4945(8) -0.5854(17) 0.0853(7)
H11 H -0.4627 -0.5171 0.0784
H12 H -0.5018 -0.6499 0.0540
C10 C -0.4508(10) -0.6450(19) 0.1457(11)
C11 C -0.4519(10) -0.587(2) 0.1993(10)
H13 H -0.4764 -0.5084 0.2001
C12 C -0.4147(13) -0.655(2) 0.2478(9)
H14 H -0.4165 -0.6252 0.2846
C13 C -0.3775(12) -0.754(3) 0.2494(10)
H15 H -0.3508 -0.7937 0.2866
C14 C -0.3750(11) -0.805(2) 0.1973(12)
H16 H -0.3464 -0.8800 0.1992
N4 N -0.4140(7) -0.7490(15) 0.1419(6)
C15 C -0.6266(8) -0.6327(15) 0.0629(7)
H17 H -0.6360 -0.6617 0.0217
H18 H -0.6080 -0.7060 0.0897
N5 N -0.7001(7) -0.5915(13) 0.0659(6)
C16 C -0.6934(10) -0.5739(15) 0.1289(6)
H19 H -0.7365 -0.5216 0.1304
H20 H -0.6447 -0.5304 0.1516
C17 C -0.6953(9) -0.7055(16) 0.1565(8)
C18 C -0.6501(9) -0.7317(14) 0.2150(6)
H21 H -0.6142 -0.6700 0.2372
C19 C -0.6548(10) -0.8408(18) 0.2419(7)
H22 H -0.6225 -0.8601 0.2818
C20 C -0.7145(9) -0.9286(15) 0.2041(7)
H23 H -0.7245 -1.0056 0.2201
C21 C -0.7544(10) -0.8975(15) 0.1469(7)
H24 H -0.7901 -0.9574 0.1230
N6 N -0.7473(6) -0.7871(13) 0.1208(6)
N5C N -0.7999(7) -0.0915(13) -0.0659(6)
Cu1C Cu -0.80568(11) -0.73754(19) 0.03990(8)
N6C N -0.7527(6) -0.2871(13) -0.1208(6)
Cu2 Cu -0.34405(11) 0.77636(18) 0.45937(8)
C22 C -0.1839(8) 0.6739(16) 0.4384(7)
H25 H -0.1547 0.7033 0.4795
H26 H -0.1904 0.7468 0.4113
N7 N -0.2592(7) 0.6332(10) 0.4354(5)
C23 C -0.3127(8) 0.6061(14) 0.3725(7)
H27 H -0.3546 0.5493 0.3728
H28 H -0.2844 0.5648 0.3498
C24 C -0.3459(8) 0.7322(18) 0.3435(7)
C25 C -0.3623(9) 0.7422(17) 0.2838(7)
H29 H -0.3514 0.6781 0.2605
C26 C -0.3958(9) 0.853(2) 0.2611(9)
H30 H -0.4007 0.8722 0.2213
C27 C -0.4223(11) 0.9379(19) 0.2884(8)
H31 H -0.4530 1.0074 0.2683
C28 C -0.4022(8) 0.9178(12) 0.3483(6)
H32 H -0.4131 0.9813 0.3720
N8 N -0.3677(7) 0.8117(14) 0.3749(5)
C29 C -0.2431(7) 0.5117(13) 0.4743(6)
H33 H -0.2251 0.5374 0.5167
H34 H -0.2924 0.4665 0.4654
N9 N -0.1880(8) 0.4241(13) 0.4672(5)
C30 C -0.2232(8) 0.3348(15) 0.4132(7)
H35 H -0.2769 0.3152 0.4084
H36 H -0.2239 0.3778 0.3765
C31 C -0.1798(7) 0.2178(15) 0.4207(6)
C32 C -0.1820(11) 0.1462(19) 0.3701(9)
H37 H -0.2088 0.1763 0.3307
C33 C -0.1444(9) 0.032(2) 0.3796(8)
H38 H -0.1463 -0.0192 0.3467
C34 C -0.1044(7) -0.0065(15) 0.4362(8)
H39 H -0.0771 -0.0840 0.4433
C35 C -0.1040(8) 0.0679(15) 0.4832(8)
H40 H -0.0763 0.0396 0.5227
N10 N -0.1414(8) 0.1797(15) 0.4754(6)
C36 C -0.1213(9) 0.4818(13) 0.4678(7)
H41 H -0.0869 0.4178 0.4608
H42 H -0.0942 0.5200 0.5075
N11 N -0.1382(6) 0.5776(12) 0.4226(5)
C37 C -0.0706(8) 0.6345(18) 0.4159(7)
H43 H -0.0340 0.5655 0.4181
H44 H -0.0460 0.6891 0.4511
C38 C -0.0787(8) 0.7116(15) 0.3613(7)
C39 C -0.1362(11) 0.695(2) 0.3079(8)
H45 H -0.1720 0.6285 0.3043
C40 C -0.1457(12) 0.770(2) 0.2571(7)
H46 H -0.1900 0.7675 0.2215
C41 C -0.0862(12) 0.846(2) 0.2645(9)
H47 H -0.0820 0.8850 0.2303
C42 C -0.0376(11) 0.8674(19) 0.3123(9)
H48 H -0.0030 0.9349 0.3153
N12 N -0.0286(9) 0.7951(13) 0.3665(6)
N9C N -0.3120(8) 0.9241(13) 0.5328(5)
Cu2C Cu -0.15595(11) 0.27636(18) 0.54063(8)
N10C N -0.3586(8) 0.6797(15) 0.5246(6)
B1 B -0.8564(11) 0.743(3) 0.1104(8)
F1 F -0.8139(7) 0.8107(15) 0.0903(7)
F2 F -0.9236(7) 0.7470(12) 0.0584(7)
F3 F -0.8375(8) 0.6315(13) 0.1258(7)
F4 F -0.8711(12) 0.8202(14) 0.1535(7)
B2 B -0.9567(14) 0.241(2) 0.3923(8)
F5 F -0.9825(6) 0.2606(13) 0.4386(6)
F6 F -1.0096(9) 0.272(3) 0.3449(9)
F7 F -0.8882(6) 0.2969(11) 0.4013(6)
F8 F -0.9462(10) 0.1229(17) 0.3924(9)
loop_
_geom_bond_atom_site_label_1
_geom_bond_atom_site_label_2
_geom_bond_site_symmetry_1
_geom_bond_site_symmetry_2
Cu1 N1 1_555 1_555
C1 H1 1_555 1_555
H2 C1 1_555 1_555
N1 C1 1_555 1_555
C2 N1 1_555 1_555
H3 C2 1_555 1_555
H4 C2 1_555 1_555
C3 C2 1_555 1_555
C4 C3 1_555 1_555
H5 C4 1_555 1_555
C5 C4 1_555 1_555
H6 C5 1_555 1_555
C6 C5 1_555 1_555
H7 C6 1_555 1_555
C7 C6 1_555 1_555
H8 C7 1_555 1_555
N2 Cu1 1_555 1_555
C8 N1 1_555 1_555
H9 C8 1_555 1_555
H10 C8 1_555 1_555
N3 C8 1_555 1_555
C9 N3 1_555 1_555
H11 C9 1_555 1_555
H12 C9 1_555 1_555
C10 C9 1_555 1_555
C11 C10 1_555 1_555
H13 C11 1_555 1_555
C12 C11 1_555 1_555
H14 C12 1_555 1_555
C13 C12 1_555 1_555
H15 C13 1_555 1_555
C14 C13 1_555 1_555
H16 C14 1_555 1_555
N4 C10 1_555 1_555
C15 N3 1_555 1_555
H17 C15 1_555 1_555
H18 C15 1_555 1_555
N5 C1 1_555 1_555
C16 N5 1_555 1_555
H19 C16 1_555 1_555
H20 C16 1_555 1_555
C17 C16 1_555 1_555
C18 C17 1_555 1_555
H21 C18 1_555 1_555
C19 C18 1_555 1_555
H22 C19 1_555 1_555
C20 C19 1_555 1_555
H23 C20 1_555 1_555
C21 C20 1_555 1_555
H24 C21 1_555 1_555
N6 C17 1_555 1_555
Cu2 N7 1_555 1_555
C22 H25 1_555 1_555
H26 C22 1_555 1_555
N7 C22 1_555 1_555
C23 N7 1_555 1_555
H27 C23 1_555 1_555
H28 C23 1_555 1_555
C24 C23 1_555 1_555
C25 C24 1_555 1_555
H29 C25 1_555 1_555
C26 C25 1_555 1_555
H30 C26 1_555 1_555
C27 C26 1_555 1_555
H31 C27 1_555 1_555
C28 C27 1_555 1_555
H32 C28 1_555 1_555
N8 Cu2 1_555 1_555
C29 N7 1_555 1_555
H33 C29 1_555 1_555
H34 C29 1_555 1_555
N9 C29 1_555 1_555
C30 N9 1_555 1_555
H35 C30 1_555 1_555
H36 C30 1_555 1_555
C31 C30 1_555 1_555
C32 C31 1_555 1_555
H37 C32 1_555 1_555
C33 C32 1_555 1_555
H38 C33 1_555 1_555
C34 C33 1_555 1_555
H39 C34 1_555 1_555
C35 C34 1_555 1_555
H40 C35 1_555 1_555
N10 C31 1_555 1_555
C36 N9 1_555 1_555
H41 C36 1_555 1_555
H42 C36 1_555 1_555
N11 C22 1_555 1_555
C37 N11 1_555 1_555
H43 C37 1_555 1_555
H44 C37 1_555 1_555
C38 C37 1_555 1_555
C39 C38 1_555 1_555
H45 C39 1_555 1_555
C40 C39 1_555 1_555
H46 C40 1_555 1_555
C41 C40 1_555 1_555
H47 C41 1_555 1_555
C42 C41 1_555 1_555
H48 C42 1_555 1_555
N12 C38 1_555 1_555
B1 F1 1_555 1_555
F2 B1 1_555 1_555
F3 B1 1_555 1_555
F4 B1 1_555 1_555
B2 F5 1_555 1_555
F6 B2 1_555 1_555
F7 B2 1_555 1_555
F8 B2 1_555 1_555
N5C Cu1 1_555 1_555
Cu1C N5 1_555 1_555
N6C Cu1 1_555 1_555
N9C Cu2 1_555 1_555
Cu2C N9 1_555 1_555
N10C Cu2 1_555 1_555
C3 N2 1_555 1_555
C7 N2 1_555 1_555
C14 N4 1_555 1_555
C15 N5 1_555 1_555
C21 N6 1_555 1_555
N6 Cu1C 1_555 1_555
C24 N8 1_555 1_555
C28 N8 1_555 1_555
C35 N10 1_555 1_555
N10 Cu2C 1_555 1_555
C36 N11 1_555 1_555
C42 N12 1_555 1_555

#END
