
#######################################################################
#
#                 Cambridge Crystallographic Data Centre
#                                CCDC 
#
#######################################################################
#
# If this CIF has been generated from an entry in the Cambridge 
# Structural Database, then it will include bibliographic, chemical, 
# crystal, experimental, refinement or atomic coordinate data resulting 
# from the CCDC's data processing and validation procedures.
#
#######################################################################

data_IHIWIF
_symmetry_cell_setting           triclinic
_symmetry_space_group_name_H-M   'P -1'
_symmetry_Int_Tables_number      2
_space_group_name_Hall           '-P 1'
loop_
_symmetry_equiv_pos_site_id
_symmetry_equiv_pos_as_xyz
1 x,y,z
2 -x,-y,-z
_cell_length_a                   10.9413(6)
_cell_length_b                   17.5954(10)
_cell_length_c                   18.5773(10)
_cell_angle_alpha                88.8500(10)
_cell_angle_beta                 85.8130(10)
_cell_angle_gamma                76.5460(10)
_cell_volume                     3468.99
loop_
_atom_site_label
_atom_site_type_symbol
_atom_site_fract_x
_atom_site_fract_y
_atom_site_fract_z
Ba1 Ba 0.401550(17) 0.392440(11) -0.507720(10)
Ba2 Ba 0.557550(17) 0.534330(10) -0.243340(10)
Ba3 Ba 0.857280(17) 0.351850(10) -0.032390(10)
Ba4 Ba 0.797160(17) 0.095480(10) -0.014350(10)
Ba5 Ba 0.113000(17) -0.040480(11) -0.737350(10)
Ba6 Ba 0.202220(17) 0.177120(11) -0.541880(10)
Cr1 Cr 0.11069(5) 0.63525(3) -0.63339(3)
Cr2 Cr 0.39490(4) 0.32218(3) -0.17455(3)
Cr3 Cr 0.25948(4) 0.14482(3) -0.87411(3)
Cr4 Cr 0.74499(5) 0.14622(3) -0.67656(3)
O1 O 0.2107(2) 0.56423(12) -0.56534(12)
O2 O 0.3774(2) 0.55485(13) -0.50088(12)
O3 O 0.2221(2) 0.70355(12) -0.61098(12)
O4 O 0.3708(2) 0.71000(13) -0.53590(13)
O5 O 0.0164(2) 0.31361(13) -0.44187(12)
O6 O 0.1873(2) 0.33154(13) -0.50565(12)
O7 O 0.0048(2) 0.43627(13) -0.36194(12)
O8 O 0.1766(2) 0.46112(14) -0.42198(13)
O9 O 0.7756(2) 0.41428(13) -0.28470(11)
O10 O 0.7391(2) 0.40124(14) -0.16607(12)
O11 O 0.9684(2) 0.29518(13) -0.29060(11)
O12 O 0.9505(2) 0.27789(13) -0.17053(12)
O13 O 0.4733(2) 0.39095(12) -0.24078(11)
O14 O 0.4762(2) 0.42923(13) -0.35635(12)
O15 O 0.3644(2) 0.27899(13) -0.26699(12)
O16 O 0.3644(2) 0.30703(14) -0.38471(12)
O17 O 0.5621(2) 0.24908(12) -0.16395(11)
O18 O 0.7269(2) 0.23373(13) -0.09540(12)
O19 O 0.4377(2) 0.36888(13) -0.08827(12)
O20 O 0.5973(2) 0.36220(15) -0.01821(13)
O21 O 0.2323(2) 0.40090(12) -0.16859(12)
O22 O 0.0454(2) 0.42412(14) -0.10474(14)
O23 O 0.2968(2) 0.25903(12) -0.11871(11)
O24 O 0.1118(2) 0.27150(13) -0.05440(12)
O25 O 1.0933(2) 0.21014(12) 0.10136(11)
O26 O 0.9349(2) 0.20618(13) 0.03217(12)
O27 O 1.21625(19) 0.07096(12) 0.05930(11)
O28 O 1.0666(2) 0.05933(13) -0.01112(12)
O29 O 0.3529(2) 0.19175(12) 0.05079(12)
O30 O 0.5412(2) 0.16891(14) -0.01082(13)
O31 O 0.4228(2) 0.07034(13) 0.13335(12)
O32 O 0.6106(2) 0.03440(14) 0.07086(14)
O33 O 0.1798(2) 0.09942(12) -0.78973(11)
O34 O 0.1449(2) 0.11114(13) -0.67061(11)
O35 O 0.2868(2) 0.21723(13) -0.80009(11)
O36 O 0.2584(2) 0.23787(14) -0.68067(12)
O37 O 0.6772(2) 0.18730(13) -0.76771(12)
O38 O 0.7110(2) 0.17336(15) -0.88644(12)
O39 O 0.8658(2) 0.07242(13) -0.74209(12)
O40 O 0.9185(3) 0.05216(14) -0.85997(14)
O41 O 0.6212(2) 0.08046(12) -0.66013(12)
O42 O 0.4266(2) 0.08565(14) -0.60989(14)
O43 O 0.6133(2) 0.22202(12) -0.62146(12)
O44 O 0.4252(2) 0.23575(13) -0.56205(12)
O45 O -0.1472(2) 0.22161(13) -0.67744(11)
O46 O -0.0224(2) 0.26332(13) -0.60508(13)
O47 O -0.1687(2) 0.10701(13) -0.58955(12)
O48 O -0.0248(2) 0.13328(15) -0.52003(12)
O49 O 0.7036(2) 0.60509(15) -0.35219(13)
H1 H 0.7893 0.5758 -0.3556
H2 H 0.7025 0.6573 -0.3382
O50 O 0.4327(2) 0.61659(13) -0.36036(12)
H3 H 0.3623 0.5954 -0.3695
H4 H 0.4010 0.6703 -0.3473
O51 O 0.5223(3) 0.68876(15) -0.21505(19)
H5 H 0.454(3) 0.730(2) -0.226(2)
H6 H 0.585(3) 0.715(2) -0.207(2)
O52 O 0.7530(3) 0.5725(2) -0.18330(17)
H7 H 0.757(5) 0.604(2) -0.1440(19)
H8 H 0.816(4) 0.589(3) -0.212(2)
O53 O 0.5037(3) 0.53369(15) -0.09759(13)
H9 H 0.578(3) 0.516(2) -0.076(2)
H10 H 0.458(3) 0.5796(16) -0.076(2)
O54 O 0.2891(2) 0.54995(14) -0.21996(14)
H11 H 0.269(4) 0.5066(16) -0.200(2)
H12 H 0.243(3) 0.565(2) -0.2600(15)
O55 O 0.7170(3) 0.50196(15) -0.00151(15)
H13 H 0.654(3) 0.504(2) 0.0344(18)
H14 H 0.740(4) 0.5491(16) -0.014(2)
O56 O 0.7427(3) 0.34034(16) 0.10631(14)
H15 H 0.739(4) 0.366(2) 0.1495(15)
H16 H 0.716(4) 0.2959(17) 0.119(2)
O57 O 0.9741(3) 0.41096(15) 0.08201(14)
H17 H 0.971(4) 0.390(2) 0.1282(13)
H18 H 0.964(4) 0.4643(13) 0.094(2)
O58 O 0.6822(2) 0.07332(13) -0.14727(12)
H19 H 0.6206 0.1194 -0.1585
H20 H 0.6419 0.0306 -0.1420
O59 O 0.9575(2) 0.11574(13) -0.14401(12)
H21 H 0.9481 0.1702 -0.1543
H22 H 1.0440 0.0937 -0.1359
O60 O 0.2489(3) -0.18995(15) -0.72224(15)
H23 H 0.328(2) -0.210(2) -0.742(2)
H24 H 0.256(4) -0.223(2) -0.6832(17)
O61 O 0.3499(3) -0.04044(17) -0.68883(17)
H25 H 0.382(4) -0.077(2) -0.655(2)
H26 H 0.377(4) -0.005(2) -0.663(2)
O62 O 0.0839(3) -0.03913(18) -0.59423(15)
H27 H 0.132(4) -0.011(2) -0.571(2)
H28 H 0.071(4) -0.076(2) -0.5594(19)
O63 O -0.0535(3) -0.12731(16) -0.68490(18)
H29 H -0.141(2) -0.110(3) -0.689(2)
H30 H -0.031(4) -0.1813(11) -0.687(2)
O64 O 0.2414(3) 0.01924(15) -0.49741(15)
H31 H 0.210(4) -0.007(2) -0.4599(17)
H32 H 0.307(3) -0.0229(18) -0.514(2)
O65 O 0.3251(3) 0.16508(15) -0.41638(13)
H33 H 0.325(4) 0.2131(14) -0.399(2)
H34 H 0.322(4) 0.135(2) -0.3748(15)
C1 C 0.2972(3) 0.59150(18) -0.53955(16)
C2 C 0.2993(3) 0.67634(18) -0.56243(17)
C3 C 0.1022(3) 0.35052(18) -0.45774(16)
C4 C 0.0961(3) 0.42305(18) -0.41079(17)
C5 C 0.8012(3) 0.38134(18) -0.22286(17)
C6 C 0.9170(3) 0.31160(18) -0.22646(17)
C7 C 0.4510(3) 0.38584(18) -0.30729(17)
C8 C 0.3878(3) 0.31831(19) -0.32262(17)
C9 C 0.6215(3) 0.26744(18) -0.11158(16)
C10 C 0.5479(3) 0.33877(18) -0.06740(17)
C11 C 0.1482(3) 0.38173(18) -0.12460(17)
C12 C 0.1857(3) 0.29664(19) -0.09559(16)
C13 C 1.0379(3) 0.17850(17) 0.05579(16)
C14 C 1.1106(3) 0.09655(17) 0.03086(16)
C15 C 0.4667(3) 0.15264(18) 0.03569(17)
C16 C 0.5065(3) 0.07843(18) 0.08327(17)
C17 C 0.2478(3) 0.20305(18) -0.73511(17)
C18 C 0.1850(3) 0.13262(18) -0.72915(17)
C19 C 0.7375(3) 0.15401(19) -0.82491(17)
C20 C 0.8513(3) 0.08646(18) -0.81026(18)
C21 C 0.5179(3) 0.11378(18) -0.62372(17)
C22 C 0.5154(3) 0.19760(18) -0.59895(16)
C23 C -0.0841(3) 0.21724(18) -0.62130(17)
C24 C -0.0910(3) 0.14678(19) -0.57132(16)
O2A O 0.6226(2) 0.44515(13) -0.49912(12)
O4A O 0.6292(2) 0.29000(13) -0.46410(13)
O49A O 0.2964(2) 0.39491(15) -0.64781(13)
O50A O 0.5673(2) 0.38341(13) -0.63964(12)
O22_2 O 1.0454(2) 0.42412(14) -0.10474(14)
O24_2 O 1.1118(2) 0.27150(13) -0.05440(12)
O27A O 0.78375(19) -0.07096(12) -0.05930(11)
O28A O 0.9334(2) -0.05933(13) 0.01112(12)
O38_2 O 0.7110(2) 0.17336(15) 0.11356(12)
O40_2 O 0.9185(3) 0.05216(14) 0.14003(14)
O39_2 O -0.1342(2) 0.07242(13) -0.74209(12)
O58A O 0.3178(2) -0.07332(13) -0.85273(12)
O59A O 0.0425(2) -0.11574(13) -0.85599(12)
O5A O -0.0164(2) 0.68639(13) -0.55813(12)
O7A O -0.0048(2) 0.56373(13) -0.63806(12)
O9A O 0.2244(2) 0.58572(13) -0.71530(11)
O11A O 0.0316(2) 0.70482(13) -0.70940(11)
O25_2 O 0.0933(2) 0.21014(12) -0.89864(11)
O27_2 O 0.21625(19) 0.07096(12) -0.94070(11)
O29_2 O 0.3529(2) 0.19175(12) -0.94921(12)
O31_2 O 0.4228(2) 0.07034(13) -0.86665(12)
O45_2 O 0.8528(2) 0.22161(13) -0.67744(11)
O47_2 O 0.8313(2) 0.10701(13) -0.58955(12)
Ba1A Ba 0.598450(17) 0.607560(11) -0.492280(10)
Cr1A Cr -0.11069(5) 0.36475(3) -0.36661(3)
Cr1A_2 Cr 0.88931(5) 0.36475(3) -0.36661(3)
Ba3_2 Ba -0.142720(17) 0.351850(10) -0.032390(10)
Cr3_2 Cr 1.25948(4) 0.14482(3) 0.12589(3)
Ba4A Ba 1.202840(17) -0.095480(10) 0.014350(10)
Cr3_3 Cr 0.25948(4) 0.14482(3) 0.12589(3)
Ba4_2 Ba 0.797160(17) 0.095480(10) -1.014350(10)
Ba5_2 Ba 1.113000(17) -0.040480(11) -0.737350(10)
Cr4_2 Cr -0.25501(5) 0.14622(3) -0.67656(3)
Ba2A Ba 0.442450(17) 0.465670(10) -0.756660(10)
Ba5A Ba 0.887000(17) 0.040480(11) -0.262650(10)
H1A H 0.2107 0.4242 -0.6444
H2A H 0.2975 0.3427 -0.6618
H3A H 0.6377 0.4046 -0.6305
H4A H 0.5990 0.3297 -0.6527
H19A H 0.3794 -0.1194 -0.8415
H20A H 0.3581 -0.0306 -0.8580
H21A H 0.0519 -0.1702 -0.8457
H22A H -0.0440 -0.0937 -0.8641
O66 O -0.5935(3) 0.87568(18) -1.55091(19)
H35 H -0.5052(19) 0.866(3) -1.556(3)
H36 H -0.621(4) 0.8297(18) -1.547(3)
O67 O -0.3085(3) 0.92389(15) -1.70515(15)
H37 H -0.353(4) 0.9731(14) -1.697(2)
H38 H -0.316(4) 0.916(2) -1.7529(12)
O68 O 0.0260(3) 0.68896(19) -1.21565(17)
H39 H -0.015(4) 0.727(2) -1.180(2)
H40 H 0.075(4) 0.712(3) -1.251(2)
O69 O 0.2391(2) 0.35730(15) -0.94796(15)
H41 H 0.154(2) 0.358(2) -0.943(2)
H42 H 0.267(4) 0.3033(12) -0.954(2)
O70 O 0.0693(4) 0.4231(3) -0.7142(3)
H43 H 0.015(5) 0.389(3) -0.735(3)
H44 H 0.005(5) 0.467(3) -0.689(3)
O71 O 0.1879(2) 0.59327(15) -0.35261(15)
H45 H 0.166(4) 0.5511(17) -0.374(2)
H46 H 0.124(3) 0.6354(17) -0.365(2)
O72 O -0.3915(7) 0.8990(3) -1.8397(3)
H47 H -0.394(10) 0.948(3) -1.863(5)
H48 H -0.332(8) 0.855(4) -1.860(6)
O73? O -0.2647(7) 0.9007(3) -1.8512(3)
H49? H -0.317(8) 0.940(4) -1.877(5)
H50? H -0.277(9) 0.854(4) -1.870(5)
loop_
_geom_bond_atom_site_label_1
_geom_bond_atom_site_label_2
_geom_bond_site_symmetry_1
_geom_bond_site_symmetry_2
Ba1 O2 1_555 1_555
Ba2 O9 1_555 1_555
Ba3 O10 1_555 1_555
Ba4 O18 1_555 1_555
Ba5 O33 1_555 1_555
Ba6 O5 1_555 1_555
Cr1 O1 1_555 1_555
Cr2 O13 1_555 1_555
Cr3 O33 1_555 1_555
Cr4 O37 1_555 1_555
O1 C1 1_555 1_555
O2 C1 1_555 1_555
O3 Cr1 1_555 1_555
O4 C2 1_555 1_555
O5 C3 1_555 1_555
O6 Ba1 1_555 1_555
O7 C4 1_555 1_555
O8 Ba1 1_555 1_555
O9 C5 1_555 1_555
O10 Ba2 1_555 1_555
O11 C6 1_555 1_555
O12 Ba3 1_555 1_555
O13 Ba2 1_555 1_555
O14 Ba1 1_555 1_555
O15 Cr2 1_555 1_555
O16 Ba1 1_555 1_555
O17 Cr2 1_555 1_555
O18 Ba3 1_555 1_555
O19 Cr2 1_555 1_555
O20 Ba3 1_555 1_555
O21 Cr2 1_555 1_555
O22 C11 1_555 1_555
O23 Cr2 1_555 1_555
O24 C12 1_555 1_555
O25 C13 1_555 1_555
O26 Ba3 1_555 1_555
O27 C14 1_555 1_555
O28 Ba4 1_555 1_555
O29 C15 1_555 1_555
O30 Ba4 1_555 1_555
O31 C16 1_555 1_555
O32 Ba4 1_555 1_555
O33 C18 1_555 1_555
O34 Ba5 1_555 1_555
O35 Cr3 1_555 1_555
O36 Ba6 1_555 1_555
O37 C19 1_555 1_555
O38 C19 1_555 1_555
O39 Cr4 1_555 1_555
O40 C20 1_555 1_555
O41 Cr4 1_555 1_555
O42 Ba6 1_555 1_555
O43 Cr4 1_555 1_555
O44 Ba1 1_555 1_555
O45 C23 1_555 1_555
O46 Ba6 1_555 1_555
O47 C24 1_555 1_555
O48 Ba6 1_555 1_555
O49 Ba2 1_555 1_555
H1 O49 1_555 1_555
H2 O49 1_555 1_555
O50 Ba2 1_555 1_555
H3 O50 1_555 1_555
H4 O50 1_555 1_555
O51 Ba2 1_555 1_555
H5 O51 1_555 1_555
H6 O51 1_555 1_555
O52 Ba2 1_555 1_555
H7 O52 1_555 1_555
H8 O52 1_555 1_555
O53 Ba2 1_555 1_555
H9 O53 1_555 1_555
H10 O53 1_555 1_555
O54 Ba2 1_555 1_555
H11 O54 1_555 1_555
H12 O54 1_555 1_555
O55 Ba3 1_555 1_555
H13 O55 1_555 1_555
H14 O55 1_555 1_555
O56 Ba3 1_555 1_555
H15 O56 1_555 1_555
H16 O56 1_555 1_555
O57 Ba3 1_555 1_555
H17 O57 1_555 1_555
H18 O57 1_555 1_555
O58 Ba4 1_555 1_555
H19 O58 1_555 1_555
H20 O58 1_555 1_555
O59 Ba4 1_555 1_555
H21 O59 1_555 1_555
H22 O59 1_555 1_555
O60 Ba5 1_555 1_555
H23 O60 1_555 1_555
H24 O60 1_555 1_555
O61 Ba5 1_555 1_555
H25 O61 1_555 1_555
H26 O61 1_555 1_555
O62 Ba5 1_555 1_555
H27 O62 1_555 1_555
H28 O62 1_555 1_555
O63 Ba5 1_555 1_555
H29 O63 1_555 1_555
H30 O63 1_555 1_555
O64 Ba6 1_555 1_555
H31 O64 1_555 1_555
H32 O64 1_555 1_555
O65 Ba6 1_555 1_555
H33 O65 1_555 1_555
H34 O65 1_555 1_555
C1 C2 1_555 1_555
C2 O3 1_555 1_555
C3 O6 1_555 1_555
C4 O8 1_555 1_555
C5 O10 1_555 1_555
C6 O12 1_555 1_555
C7 O13 1_555 1_555
C8 O15 1_555 1_555
C9 O17 1_555 1_555
C10 O19 1_555 1_555
C11 O21 1_555 1_555
C12 O23 1_555 1_555
C13 O26 1_555 1_555
C14 O28 1_555 1_555
C15 O30 1_555 1_555
C16 O32 1_555 1_555
C17 O35 1_555 1_555
C18 O34 1_555 1_555
C19 C20 1_555 1_555
C20 O39 1_555 1_555
C21 O41 1_555 1_555
C22 O43 1_555 1_555
C23 O46 1_555 1_555
C24 O48 1_555 1_555
O66 H35 1_555 1_555
H36 O66 1_555 1_555
O67 H37 1_555 1_555
H38 O67 1_555 1_555
O68 H39 1_555 1_555
H40 O68 1_555 1_555
O69 H41 1_555 1_555
H42 O69 1_555 1_555
O70 H43 1_555 1_555
H44 O70 1_555 1_555
O71 H45 1_555 1_555
H46 O71 1_555 1_555
O72 H47 1_555 1_555
H48 O72 1_555 1_555
O2A Ba1 1_555 1_555
O4A Ba1 1_555 1_555
O49A Ba1 1_555 1_555
O50A Ba1 1_555 1_555
O22_2 Ba3 1_555 1_555
O24_2 Ba3 1_555 1_555
O27A Ba4 1_555 1_555
O28A Ba4 1_555 1_555
O38_2 Ba4 1_555 1_555
O40_2 Ba4 1_555 1_555
O39_2 Ba5 1_555 1_555
O58A Ba5 1_555 1_555
O59A Ba5 1_555 1_555
O5A Cr1 1_555 1_555
O7A Cr1 1_555 1_555
O9A Cr1 1_555 1_555
O11A Cr1 1_555 1_555
O25_2 Cr3 1_555 1_555
O27_2 Cr3 1_555 1_555
O29_2 Cr3 1_555 1_555
O31_2 Cr3 1_555 1_555
O45_2 Cr4 1_555 1_555
O47_2 Cr4 1_555 1_555
Ba1A O2 1_555 1_555
Cr1A O5 1_555 1_555
Cr1A_2 O9 1_555 1_555
Ba3_2 O22 1_555 1_555
Cr3_2 O25 1_555 1_555
Ba4A O27 1_555 1_555
Cr3_3 O29 1_555 1_555
Ba4_2 O38 1_555 1_555
Ba5_2 O39 1_555 1_555
Cr4_2 O45 1_555 1_555
Ba2A O49A 1_555 1_555
Ba5A O58 1_555 1_555
H1A O49A 1_555 1_555
H2A O49A 1_555 1_555
H3A O50A 1_555 1_555
H4A O50A 1_555 1_555
H19A O58A 1_555 1_555
H20A O58A 1_555 1_555
H21A O59A 1_555 1_555
H22A O59A 1_555 1_555
Ba2 O14 1_555 1_555
Ba4 O26 1_555 1_555
Ba6 O6 1_555 1_555
Ba6 O34 1_555 1_555
Ba6 O44 1_555 1_555
O4 Ba1A 1_555 1_555
O7 Cr1A 1_555 1_555
O11 Cr1A_2 1_555 1_555
O14 C7 1_555 1_555
O16 C8 1_555 1_555
O18 C9 1_555 1_555
O20 C10 1_555 1_555
O24 Ba3_2 1_555 1_555
O27 Cr3_2 1_555 1_555
O28 Ba4A 1_555 1_555
O31 Cr3_3 1_555 1_555
O36 C17 1_555 1_555
O40 Ba4_2 1_555 1_555
O42 C21 1_555 1_555
O44 C22 1_555 1_555
O47 Cr4_2 1_555 1_555
O49 Ba1A 1_555 1_555
O50 Ba1A 1_555 1_555
O59 Ba5A 1_555 1_555
C3 C4 1_555 1_555
C5 C6 1_555 1_555
C7 C8 1_555 1_555
C9 C10 1_555 1_555
C11 C12 1_555 1_555
C13 C14 1_555 1_555
C15 C16 1_555 1_555
C17 C18 1_555 1_555
C21 C22 1_555 1_555
C23 C24 1_555 1_555
O2A Ba1A 1_555 1_555
O50A Ba2A 1_555 1_555
O28A Ba4A 1_555 1_555
O39_2 Cr4_2 1_555 1_555
O9A Ba2A 1_555 1_555

#END
