
#######################################################################
#
#                 Cambridge Crystallographic Data Centre
#                                CCDC 
#
#######################################################################
#
# If this CIF has been generated from an entry in the Cambridge 
# Structural Database, then it will include bibliographic, chemical, 
# crystal, experimental, refinement or atomic coordinate data resulting 
# from the CCDC's data processing and validation procedures.
#
#######################################################################

data_IHIYIH
_symmetry_cell_setting           monoclinic
_symmetry_space_group_name_H-M   'P n'
_symmetry_Int_Tables_number      7
_space_group_name_Hall           'P -2yac'
loop_
_symmetry_equiv_pos_site_id
_symmetry_equiv_pos_as_xyz
1 x,y,z
2 1/2+x,-y,1/2+z
_cell_length_a                   10.668(2)
_cell_length_b                   5.5754(9)
_cell_length_c                   13.323(2)
_cell_angle_alpha                90
_cell_angle_beta                 111.963(15)
_cell_angle_gamma                90
_cell_volume                     734.92
loop_
_atom_site_label
_atom_site_type_symbol
_atom_site_fract_x
_atom_site_fract_y
_atom_site_fract_z
Ag1 Ag 0.4639(2) 0.19474(17) 0.2857(2)
Cl1 Cl 0.3749(4) 0.6649(7) 0.3894(3)
O1 O 0.2803(15) 0.509(3) 0.3151(13)
O2 O 0.4851(12) 0.686(3) 0.3510(12)
O3 O 0.3204(12) 0.897(2) 0.3837(8)
O4 O 0.418(2) 0.589(3) 0.493(1)
N1 N 0.3068(12) 0.123(3) 0.121(1)
N2 N 0.1536(13) -0.135(3) -0.0624(11)
C1 C 0.2105(13) -0.029(3) 0.119(1)
C2 C 0.1296(14) -0.146(3) 0.0267(11)
C3 C 0.3218(11) 0.154(2) 0.0244(8)
C4 C 0.2538(11) 0.005(2) -0.0647(8)
C5 C 0.294(1) 0.005(2) -0.1563(7)
C6 C 0.249(1) -0.183(2) -0.2345(7)
C7 C 0.2903(11) -0.190(2) -0.3199(9)
C8 C 0.3810(13) -0.023(3) -0.328(1)
C9 C 0.4288(11) 0.154(2) -0.2518(8)
C10 C 0.389(1) 0.171(2) -0.1638(8)
C11 C 0.4459(11) 0.346(2) -0.0779(9)
C12 C 0.5364(12) 0.525(2) -0.0850(9)
C13 C 0.5847(12) 0.698(3) -0.0057(9)
C14 C 0.5489(12) 0.695(3) 0.081(1)
C15 C 0.4627(12) 0.515(2) 0.0925(9)
C16 C 0.413(1) 0.341(2) 0.0134(8)
H1 H 0.1980(13) -0.058(3) 0.185(1)
H2 H 0.0566(14) -0.240(3) 0.0289(11)
H3 H 0.190(1) -0.304(2) -0.2272(7)
H4 H 0.2569(11) -0.309(2) -0.3741(9)
H5 H 0.4098(13) -0.029(3) -0.387(1)
H6 H 0.4911(11) 0.267(2) -0.2592(8)
H7 H 0.5619(12) 0.526(2) -0.1462(9)
H8 H 0.6444(12) 0.815(3) -0.0146(9)
H9 H 0.5867(12) 0.813(3) 0.135(1)
H10 H 0.4306(12) 0.521(2) 0.1500(9)
N2A N 0.6536(13) 0.135(3) 0.4376(11)
Ag1A Ag -0.0361(2) -0.19474(17) -0.2143(2)
loop_
_geom_bond_atom_site_label_1
_geom_bond_atom_site_label_2
_geom_bond_site_symmetry_1
_geom_bond_site_symmetry_2
Ag1 O1 1_555 1_555
Cl1 O1 1_555 1_555
O2 Cl1 1_555 1_555
O3 Cl1 1_555 1_555
O4 Cl1 1_555 1_555
N1 Ag1 1_555 1_555
N2 C2 1_555 1_555
C1 N1 1_555 1_555
C2 C1 1_555 1_555
C3 N1 1_555 1_555
C4 N2 1_555 1_555
C5 C4 1_555 1_555
C6 C5 1_555 1_555
C7 C6 1_555 1_555
C8 C7 1_555 1_555
C9 C8 1_555 1_555
C10 C5 1_555 1_555
C11 C10 1_555 1_555
C12 C11 1_555 1_555
C13 C12 1_555 1_555
C14 C13 1_555 1_555
C15 C14 1_555 1_555
C16 C3 1_555 1_555
H1 C1 1_555 1_555
H2 C2 1_555 1_555
H3 C6 1_555 1_555
H4 C7 1_555 1_555
H5 C8 1_555 1_555
H6 C9 1_555 1_555
H7 C12 1_555 1_555
H8 C13 1_555 1_555
H9 C14 1_555 1_555
H10 C15 1_555 1_555
N2A Ag1 1_555 1_555
Ag1A N2 1_555 1_555
C3 C4 1_555 1_555
C9 C10 1_555 1_555
C11 C16 1_555 1_555
C15 C16 1_555 1_555

#END
