
#######################################################################
#
#                 Cambridge Crystallographic Data Centre
#                                CCDC 
#
#######################################################################
#
# If this CIF has been generated from an entry in the Cambridge 
# Structural Database, then it will include bibliographic, chemical, 
# crystal, experimental, refinement or atomic coordinate data resulting 
# from the CCDC's data processing and validation procedures.
#
#######################################################################

data_IHOCIT01
_symmetry_cell_setting           monoclinic
_symmetry_space_group_name_H-M   'P 21/c'
_symmetry_Int_Tables_number      14
_space_group_name_Hall           '-P 2ybc'
loop_
_symmetry_equiv_pos_site_id
_symmetry_equiv_pos_as_xyz
1 x,y,z
2 -x,1/2+y,1/2-z
3 -x,-y,-z
4 x,1/2-y,1/2+z
_cell_length_a                   14.2277(6)
_cell_length_b                   23.6078(10)
_cell_length_c                   14.7147(7)
_cell_angle_alpha                90
_cell_angle_beta                 106.725(3)
_cell_angle_gamma                90
_cell_volume                     4733.36
loop_
_atom_site_label
_atom_site_type_symbol
_atom_site_fract_x
_atom_site_fract_y
_atom_site_fract_z
Zn1 Zn 0.36937(4) 0.33679(2) 0.52158(4)
Zn2 Zn 0.29512(4) 0.34243(2) 0.28585(4)
O1 O 0.2396(2) 0.37117(13) 0.5082(2)
O2 O 0.2201(3) 0.38532(14) 0.3540(3)
O3 O -0.1825(3) 0.48283(15) 0.3744(3)
O4 O 0.3276(2) 0.25807(13) 0.4907(2)
O5 O 0.2977(2) 0.26417(13) 0.3339(2)
O6 O 0.2785(2) -0.00053(14) 0.3841(3)
O7 O 0.5789(2) -0.15913(16) 0.2578(2)
O8 O 0.6561(3) -0.07935(16) 0.2708(3)
N1 N 0.4494(3) 0.33594(18) 0.6589(3)
C1 C 0.4535(4) 0.2898(2) 0.7126(4)
H1 H 0.4097 0.2595 0.6878
C2 C 0.5178(4) 0.2839(2) 0.8020(4)
H2 H 0.5166 0.2509 0.8386
C3 C 0.5846(4) 0.3273(3) 0.8379(4)
C4 C 0.5815(4) 0.3740(2) 0.7814(5)
H3 H 0.6268 0.4040 0.8029
C5 C 0.5134(4) 0.3774(2) 0.6946(4)
H4 H 0.5115 0.4107 0.6579
C6 C 0.6602(5) 0.3246(3) 0.9300(5)
H5 H 0.7123 0.3513 0.9424
C7 C 0.6599(4) 0.2882(3) 0.9947(4)
H6 H 0.6057 0.2629 0.9820
C8 C 0.7366(5) 0.2816(3) 1.0885(5)
C9 C 0.7203(5) 0.2421(3) 1.1506(5)
H7 H 0.6611 0.2208 1.1334
C10 C 0.7883(5) 0.2325(3) 1.2380(5)
H8 H 0.7753 0.2054 1.2806
C11 C 0.8759(5) 0.2631(3) 1.2626(4)
C12 C 0.8924(5) 0.3038(3) 1.2017(4)
H9 H 0.9509 0.3257 1.2197
C13 C 0.8239(4) 0.3130(3) 1.1141(4)
H10 H 0.8363 0.3405 1.0718
C14 C 0.9530(5) 0.2535(3) 1.3533(4)
H11 H 1.0001 0.2827 1.3750
C15 C 0.9616(5) 0.2076(3) 1.4063(4)
H12 H 0.9139 0.1787 1.3852
C16 C 1.0385(4) 0.1979(3) 1.4947(4)
C17 C 1.0517(5) 0.1443(3) 1.5349(4)
H13 H 1.0095 0.1142 1.5053
C18 C 1.1256(4) 0.1342(2) 1.6174(4)
H14 H 1.1332 0.0969 1.6424
C19 C 1.1740(4) 0.2254(2) 1.6242(4)
H15 H 1.2174 0.2546 1.6553
C20 C 1.1031(4) 0.2390(2) 1.5419(4)
H16 H 1.0986 0.2765 1.5176
N2 N 1.1864(3) 0.17399(18) 1.6635(3)
C21 C 0.1919(4) 0.3884(2) 0.4269(4)
C22 C 0.0934(3) 0.41373(19) 0.4154(4)
C23 C 0.0505(4) 0.4122(2) 0.4886(4)
H17 H 0.0846 0.3955 0.5476
C24 C -0.0418(4) 0.4350(2) 0.4760(4)
H18 H -0.0708 0.4350 0.5266
C25 C -0.0911(4) 0.4575(2) 0.3897(4)
C26 C -0.0493(4) 0.4600(2) 0.3173(4)
H19 H -0.0836 0.4768 0.2584
C27 C 0.0427(4) 0.4381(2) 0.3306(4)
H20 H 0.0721 0.4397 0.2803
O9 O -0.4818(6) 0.3085(5) 0.4820(7)
O10 O -0.5738(6) 0.3833(6) 0.4481(6)
C28 C -0.4963(11) 0.3575(7) 0.4520(14)
C29 C -0.4105(8) 0.3903(5) 0.4341(9)
C30 C -0.3273(11) 0.3617(7) 0.4325(14)
H21 H -0.3231 0.3219 0.4428
C31 C -0.2497(13) 0.3905(9) 0.4160(15)
H22 H -0.1926 0.3707 0.4131
C32 C -0.2556(15) 0.4483(9) 0.404(2)
C33 C -0.3381(12) 0.4782(7) 0.4046(14)
H23 H -0.3419 0.5181 0.3954
C34 C -0.4157(10) 0.4477(6) 0.4194(11)
H24 H -0.4742 0.4671 0.4194
C35 C 0.3065(3) 0.2371(2) 0.4094(4)
C36 C 0.2919(3) 0.1744(2) 0.4012(3)
C37 C 0.2678(4) 0.1479(2) 0.3146(4)
H25 H 0.2551 0.1698 0.2583
C38 C 0.2618(4) 0.0896(2) 0.3087(4)
H26 H 0.2451 0.0713 0.2486
C39 C 0.2799(3) 0.0586(2) 0.3893(4)
C40 C 0.2991(4) 0.0839(2) 0.4741(4)
H27 H 0.3086 0.0617 0.5298
C41 C 0.3051(4) 0.1414(2) 0.4805(4)
H28 H 0.3186 0.1590 0.5410
C42 C 0.5845(4) -0.1078(3) 0.2785(4)
C43 C 0.5058(4) -0.0799(2) 0.3112(3)
C44 C 0.5120(4) -0.0230(2) 0.3315(4)
H29 H 0.5681 -0.0024 0.3276
C45 C 0.4389(4) 0.0047(2) 0.3574(4)
H30 H 0.4441 0.0440 0.3719
C46 C 0.3581(4) -0.0255(2) 0.3617(4)
C47 C 0.3530(4) -0.0821(2) 0.3444(4)
H31 H 0.2977 -0.1031 0.3496
C48 C 0.4270(4) -0.1089(2) 0.3198(4)
H32 H 0.4231 -0.1486 0.3084
Zn1_2 Zn -0.63063(4) 0.33679(2) 0.52158(4)
Zn2A Zn 0.70488(4) -0.15757(2) 0.21415(4)
Zn2C Zn 1.29512(4) 0.15757(2) 1.78585(4)
O7A O 0.4211(2) 0.34087(16) 0.2422(2)
O8A O 0.3439(3) 0.42065(16) 0.2292(3)
N2C N 0.1864(3) 0.32601(18) 0.1635(3)
O9_2 O 0.5182(6) 0.3085(5) 0.4820(7)
O10_2 O 0.4262(6) 0.3833(6) 0.4481(6)
O11 O 0.6628(4) 0.4867(2) 0.6559(4)
O12 O 1.1469(9) 0.5487(5) 0.9814(9)
O13 O 0.9196(10) 0.4760(5) 0.8693(9)
O14 O 1.0894(8) 0.5284(4) 0.9319(8)
O15 O 0.8257(15) 0.4222(8) 0.7238(17)
O16 O 0.8190(14) 0.4191(8) 0.6653(16)
O17 O 0.9650(19) 0.4356(11) 0.819(2)
O18 O 0.843(3) 0.4339(16) 0.816(3)
O19 O 0.7948(18) 0.4727(10) 0.8647(18)
O20 O 0.978(2) 0.4958(11) 0.9155(18)
O21 O 0.953(4) 0.389(2) 0.732(4)
O22? O -0.5145(10) 0.3393(5) 0.4626(11)
O23? O -0.5528(6) 0.4222(5) 0.4995(9)
C49? C -0.4996(10) 0.3915(6) 0.4672(9)
C50? C -0.4133(8) 0.4157(5) 0.4416(8)
C51? C -0.3491(13) 0.3803(7) 0.4149(14)
H33? H -0.3591 0.3405 0.4139
C52? C -0.2703(13) 0.4022(9) 0.3897(16)
H34? H -0.2273 0.3778 0.3692
C53? C -0.2546(16) 0.4599(10) 0.394(2)
C54? C -0.3166(13) 0.4962(7) 0.4226(14)
H35? H -0.3049 0.5359 0.4265
C55? C -0.3960(10) 0.4733(5) 0.4449(10)
H36? H -0.4404 0.4979 0.4630
O24? O 0.7328(17) 0.4802(9) 0.7255(17)
loop_
_geom_bond_atom_site_label_1
_geom_bond_atom_site_label_2
_geom_bond_site_symmetry_1
_geom_bond_site_symmetry_2
Zn1 O1 1_555 1_555
Zn2 O2 1_555 1_555
O1 C21 1_555 1_555
O2 C21 1_555 1_555
O3 C25 1_555 1_555
O4 Zn1 1_555 1_555
O5 Zn2 1_555 1_555
O6 C39 1_555 1_555
O7 C42 1_555 1_555
O8 C42 1_555 1_555
N1 Zn1 1_555 1_555
C1 N1 1_555 1_555
H1 C1 1_555 1_555
C2 C1 1_555 1_555
H2 C2 1_555 1_555
C3 C2 1_555 1_555
C4 C3 1_555 1_555
H3 C4 1_555 1_555
C5 N1 1_555 1_555
H4 C5 1_555 1_555
C6 C3 1_555 1_555
H5 C6 1_555 1_555
C7 C6 1_555 1_555
H6 C7 1_555 1_555
C8 C7 1_555 1_555
C9 C8 1_555 1_555
H7 C9 1_555 1_555
C10 C9 1_555 1_555
H8 C10 1_555 1_555
C11 C10 1_555 1_555
C12 C11 1_555 1_555
H9 C12 1_555 1_555
C13 C8 1_555 1_555
H10 C13 1_555 1_555
C14 C11 1_555 1_555
H11 C14 1_555 1_555
C15 C14 1_555 1_555
H12 C15 1_555 1_555
C16 C15 1_555 1_555
C17 C16 1_555 1_555
H13 C17 1_555 1_555
C18 C17 1_555 1_555
H14 C18 1_555 1_555
C19 H15 1_555 1_555
C20 C16 1_555 1_555
H16 C20 1_555 1_555
N2 C18 1_555 1_555
C21 C22 1_555 1_555
C22 C23 1_555 1_555
C23 H17 1_555 1_555
C24 C23 1_555 1_555
H18 C24 1_555 1_555
C25 C24 1_555 1_555
C26 C25 1_555 1_555
H19 C26 1_555 1_555
C27 C22 1_555 1_555
H20 C27 1_555 1_555
O9 C28 1_555 1_555
O10 C28 1_555 1_555
C28 C29 1_555 1_555
C29 C30 1_555 1_555
C30 H21 1_555 1_555
C31 C30 1_555 1_555
H22 C31 1_555 1_555
C32 O3 1_555 1_555
C33 C32 1_555 1_555
H23 C33 1_555 1_555
C34 C29 1_555 1_555
H24 C34 1_555 1_555
C35 O4 1_555 1_555
C36 C35 1_555 1_555
C37 C36 1_555 1_555
H25 C37 1_555 1_555
C38 C37 1_555 1_555
H26 C38 1_555 1_555
C39 C38 1_555 1_555
C40 C39 1_555 1_555
H27 C40 1_555 1_555
C41 C36 1_555 1_555
H28 C41 1_555 1_555
C42 C43 1_555 1_555
C43 C44 1_555 1_555
C44 H29 1_555 1_555
C45 C44 1_555 1_555
H30 C45 1_555 1_555
C46 O6 1_555 1_555
C47 C46 1_555 1_555
H31 C47 1_555 1_555
C48 C43 1_555 1_555
H32 C48 1_555 1_555
Zn1_2 O9 1_555 1_555
Zn2A O7 1_555 1_555
Zn2C N2 1_555 1_555
O7A Zn2 1_555 1_555
O8A Zn2 1_555 1_555
N2C Zn2 1_555 1_555
O9_2 Zn1 1_555 1_555
O10_2 Zn1 1_555 1_555
O5 C35 1_555 1_555
O8 Zn2A 1_555 1_555
C4 C5 1_555 1_555
C12 C13 1_555 1_555
C19 C20 1_555 1_555
C19 N2 1_555 1_555
C26 C27 1_555 1_555
O10 Zn1_2 1_555 1_555
C31 C32 1_555 1_555
C33 C34 1_555 1_555
C40 C41 1_555 1_555
C45 C46 1_555 1_555
C47 C48 1_555 1_555

#END
