
#######################################################################
#
#                 Cambridge Crystallographic Data Centre
#                                CCDC 
#
#######################################################################
#
# If this CIF has been generated from an entry in the Cambridge 
# Structural Database, then it will include bibliographic, chemical, 
# crystal, experimental, refinement or atomic coordinate data resulting 
# from the CCDC's data processing and validation procedures.
#
#######################################################################

data_IHOCOZ
_symmetry_cell_setting           monoclinic
_symmetry_space_group_name_H-M   'P 21/c'
_symmetry_Int_Tables_number      14
_space_group_name_Hall           '-P 2ybc'
loop_
_symmetry_equiv_pos_site_id
_symmetry_equiv_pos_as_xyz
1 x,y,z
2 -x,1/2+y,1/2-z
3 -x,-y,-z
4 x,1/2-y,1/2+z
_cell_length_a                   13.7087(15)
_cell_length_b                   24.978(3)
_cell_length_c                   14.4518(16)
_cell_angle_alpha                90
_cell_angle_beta                 109.946(7)
_cell_angle_gamma                90
_cell_volume                     4651.69
loop_
_atom_site_label
_atom_site_type_symbol
_atom_site_fract_x
_atom_site_fract_y
_atom_site_fract_z
O11 O 0.796(2) 0.5512(11) 1.4926(19)
O12 O 1.224(2) 0.4946(11) 1.7105(19)
O13 O 0.830(3) 0.593(2) 1.224(3)
Zn1 Zn 0.37377(10) 0.82267(6) 0.56973(10)
Zn2 Zn 0.31745(10) 0.84154(6) 0.33489(10)
N1 N 0.4826(8) 0.8100(5) 0.7043(8)
C1 C 0.5077(13) 0.7609(6) 0.7247(10)
H1 H 0.4686 0.7330 0.6840
C2 C 0.5952(15) 0.7488(7) 0.8092(11)
H2 H 0.6097 0.7122 0.8257
C3 C 0.6571(13) 0.7844(7) 0.8660(10)
C4 C 0.6273(14) 0.8373(7) 0.8409(11)
H3 H 0.6651 0.8653 0.8821
C5 C 0.5452(12) 0.8500(7) 0.7584(11)
H4 H 0.5315 0.8864 0.7387
C6 C 0.7457(14) 0.7667(8) 0.9500(11)
H5 H 0.7255 0.7338 0.9786
C7 C 0.7975(12) 0.8051(8) 1.0319(11)
H6 H 0.7589 0.8398 1.0230
C8 C 0.8206(12) 0.7829(8) 1.1350(12)
C9 C 0.8174(18) 0.7300(10) 1.1575(14)
H7 H 0.8017 0.7034 1.1076
C10 C 0.8391(16) 0.7156(9) 1.2611(13)
H8 H 0.8466 0.6792 1.2811
C11 C 0.8484(14) 0.7561(9) 1.3292(15)
C12 C 0.8597(13) 0.8058(8) 1.3043(12)
H9 H 0.8769 0.8327 1.3537
C13 C 0.8476(17) 0.8200(8) 1.2106(13)
H10 H 0.8579 0.8562 1.1964
C14 C 0.8535(14) 0.7440(7) 1.4341(12)
H11 H 0.8910 0.7737 1.4784
C15 C 0.8873(12) 0.6928(7) 1.4834(12)
H12 H 0.8720 0.6634 1.4333
N2 N 1.1891(8) 0.6688(5) 1.7042(8)
C16 C 1.1644(13) 0.7133(7) 1.6555(11)
H13 H 1.2157 0.7405 1.6704
C17 C 1.0663(15) 0.7250(7) 1.5813(11)
H14 H 1.0515 0.7592 1.5508
C18 C 0.9981(13) 0.6858(8) 1.5577(12)
C19 C 1.0290(13) 0.6376(7) 1.5965(12)
H15 H 0.9839 0.6079 1.5742
C20 C 1.1228(12) 0.6300(7) 1.6669(12)
H16 H 1.1417 0.5947 1.6905
O1 O 0.2378(6) 0.8513(3) 0.5551(6)
O2 O 0.2224(5) 0.8748(3) 0.4015(6)
O3 O -0.1853(7) 0.9812(4) 0.4272(8)
O4 O -0.5503(6) 0.8471(3) 0.4867(6)
O5 O -0.5427(7) 0.9151(4) 0.5866(8)
O6 O 0.3412(6) 0.7492(3) 0.5192(5)
O7 O 0.3166(6) 0.7630(3) 0.3604(5)
O8 O 0.2945(7) 0.5107(4) 0.3663(6)
O9 O 0.6406(6) 0.4208(3) 0.2066(6)
O10 O 0.5737(6) 0.3479(4) 0.2361(6)
C21 C 0.1914(9) 0.8746(5) 0.4714(10)
C22 C 0.0893(9) 0.8997(5) 0.4610(10)
C23 C 0.0452(9) 0.8951(5) 0.5323(10)
H17 H 0.0787 0.8743 0.5895
C24 C -0.0491(10) 0.9207(6) 0.5218(11)
H18 H -0.0811 0.9169 0.5702
C25 C -0.0933(10) 0.9514(6) 0.4400(12)
C26 C -0.0495(10) 0.9561(5) 0.3699(10)
H19 H -0.0824 0.9774 0.3133
C27 C 0.0437(9) 0.9302(5) 0.3796(10)
H20 H 0.0747 0.9337 0.3303
C28 C -0.5109(10) 0.8906(6) 0.5279(10)
C29 C -0.4181(9) 0.9142(6) 0.5029(9)
C30 C -0.3722(9) 0.8859(5) 0.4556(9)
H21 H -0.3979 0.8510 0.4350
C31 C -0.2868(9) 0.9038(6) 0.4332(9)
H22 H -0.2484 0.8813 0.4050
C32 C -0.2621(9) 0.9579(6) 0.4558(12)
C33 C -0.3087(11) 0.9880(6) 0.5086(12)
H23 H -0.2860 1.0235 0.5286
C34 C -0.3844(11) 0.9669(7) 0.5306(13)
H24 H -0.4179 0.9875 0.5662
C35 C 0.3244(9) 0.7361(6) 0.4342(9)
C36 C 0.3112(10) 0.6737(5) 0.4158(9)
C37 C 0.2751(10) 0.6548(5) 0.3183(10)
H25 H 0.2537 0.6795 0.2650
C38 C 0.2708(10) 0.5992(6) 0.2994(10)
H26 H 0.2509 0.5853 0.2344
C39 C 0.2966(10) 0.5666(6) 0.3793(11)
C40 C 0.3265(12) 0.5870(6) 0.4730(11)
H27 H 0.3442 0.5629 0.5271
C41 C 0.3314(11) 0.6399(6) 0.4906(11)
H28 H 0.3493 0.6530 0.5560
C42 C 0.5754(9) 0.3983(5) 0.2402(9)
C43 C 0.5047(9) 0.4290(6) 0.2747(9)
C44 C 0.4358(9) 0.4017(6) 0.3100(9)
H29 H 0.4364 0.3637 0.3137
C45 C 0.3673(10) 0.4314(6) 0.3391(10)
H30 H 0.3195 0.4132 0.3627
C46 C 0.3651(10) 0.4862(6) 0.3356(9)
C47 C 0.4346(11) 0.5110(6) 0.3057(13)
H31 H 0.4368 0.5490 0.3066
C48 C 0.5034(11) 0.4833(6) 0.2735(12)
H32 H 0.5504 0.5023 0.2502
Zn1_2 Zn -0.62623(10) 0.82267(6) 0.56973(10)
Zn2_2 Zn -0.68255(10) 0.84154(6) 0.33489(10)
Zn2A Zn 0.68255(10) 0.34154(6) 0.16511(10)
Zn2C Zn 1.31745(10) 0.65846(6) 1.83489(10)
C6C C 0.7457(14) 0.7333(8) 1.4500(11)
C7C C 0.7975(12) 0.6949(8) 1.5319(11)
C14C C 0.8535(14) 0.7560(7) 0.9341(12)
C15C C 0.8873(12) 0.8072(7) 0.9834(12)
N2C N 0.1891(8) 0.8312(5) 0.2042(8)
O4_2 O 0.4497(6) 0.8471(3) 0.4867(6)
O5_2 O 0.4573(7) 0.9151(4) 0.5866(8)
O9A O 0.3594(6) 0.9208(3) 0.2934(6)
O10A O 0.4263(6) 0.8479(4) 0.2639(6)
loop_
_geom_bond_atom_site_label_1
_geom_bond_atom_site_label_2
_geom_bond_site_symmetry_1
_geom_bond_site_symmetry_2
Zn1 N1 1_555 1_555
Zn2 O2 1_555 1_555
N1 C1 1_555 1_555
C1 H1 1_555 1_555
C2 C1 1_555 1_555
H2 C2 1_555 1_555
C3 C2 1_555 1_555
C4 C3 1_555 1_555
H3 C4 1_555 1_555
C5 N1 1_555 1_555
H4 C5 1_555 1_555
C6 C3 1_555 1_555
H5 C6 1_555 1_555
C7 C6 1_555 1_555
H6 C7 1_555 1_555
C8 C7 1_555 1_555
C9 C8 1_555 1_555
H7 C9 1_555 1_555
C10 C9 1_555 1_555
H8 C10 1_555 1_555
C11 C10 1_555 1_555
C12 C11 1_555 1_555
H9 C12 1_555 1_555
C13 C8 1_555 1_555
H10 C13 1_555 1_555
C14 C11 1_555 1_555
H11 C14 1_555 1_555
C15 C14 1_555 1_555
H12 C15 1_555 1_555
N2 C16 1_555 1_555
C16 H13 1_555 1_555
C17 C16 1_555 1_555
H14 C17 1_555 1_555
C18 C15 1_555 1_555
C19 C18 1_555 1_555
H15 C19 1_555 1_555
C20 N2 1_555 1_555
H16 C20 1_555 1_555
O1 Zn1 1_555 1_555
O2 C21 1_555 1_555
O3 C25 1_555 1_555
O4 C28 1_555 1_555
O5 C28 1_555 1_555
O6 Zn1 1_555 1_555
O7 Zn2 1_555 1_555
O8 C39 1_555 1_555
O9 C42 1_555 1_555
O10 C42 1_555 1_555
C21 O1 1_555 1_555
C22 C21 1_555 1_555
C23 C22 1_555 1_555
H17 C23 1_555 1_555
C24 C23 1_555 1_555
H18 C24 1_555 1_555
C25 C24 1_555 1_555
C26 C25 1_555 1_555
H19 C26 1_555 1_555
C27 C22 1_555 1_555
H20 C27 1_555 1_555
C28 C29 1_555 1_555
C29 C30 1_555 1_555
C30 H21 1_555 1_555
C31 C30 1_555 1_555
H22 C31 1_555 1_555
C32 O3 1_555 1_555
C33 C32 1_555 1_555
H23 C33 1_555 1_555
C34 C29 1_555 1_555
H24 C34 1_555 1_555
C35 O6 1_555 1_555
C36 C35 1_555 1_555
C37 C36 1_555 1_555
H25 C37 1_555 1_555
C38 C37 1_555 1_555
H26 C38 1_555 1_555
C39 C38 1_555 1_555
C40 C39 1_555 1_555
H27 C40 1_555 1_555
C41 C36 1_555 1_555
H28 C41 1_555 1_555
C42 C43 1_555 1_555
C43 C44 1_555 1_555
C44 H29 1_555 1_555
C45 C44 1_555 1_555
H30 C45 1_555 1_555
C46 O8 1_555 1_555
C47 C46 1_555 1_555
H31 C47 1_555 1_555
C48 C43 1_555 1_555
H32 C48 1_555 1_555
Zn1_2 O4 1_555 1_555
Zn2_2 O4 1_555 1_555
Zn2A O9 1_555 1_555
Zn2C N2 1_555 1_555
C6C C14 1_555 1_555
C7C C15 1_555 1_555
C14C C6 1_555 1_555
C15C C7 1_555 1_555
N2C Zn2 1_555 1_555
O4_2 Zn1 1_555 1_555
O5_2 Zn1 1_555 1_555
O9A Zn2 1_555 1_555
O10A Zn2 1_555 1_555
Zn2 O4_2 1_555 1_555
C4 C5 1_555 1_555
C12 C13 1_555 1_555
C17 C18 1_555 1_555
C19 C20 1_555 1_555
O5 Zn1_2 1_555 1_555
O7 C35 1_555 1_555
O10 Zn2A 1_555 1_555
C26 C27 1_555 1_555
C31 C32 1_555 1_555
C33 C34 1_555 1_555
C40 C41 1_555 1_555
C45 C46 1_555 1_555
C47 C48 1_555 1_555
C6C C7C 1_555 1_555
C14C C15C 1_555 1_555

#END
