
#######################################################################
#
#                 Cambridge Crystallographic Data Centre
#                                CCDC 
#
#######################################################################
#
# If this CIF has been generated from an entry in the Cambridge 
# Structural Database, then it will include bibliographic, chemical, 
# crystal, experimental, refinement or atomic coordinate data resulting 
# from the CCDC's data processing and validation procedures.
#
#######################################################################

data_IHOCEP
_symmetry_cell_setting           monoclinic
_symmetry_space_group_name_H-M   'P 21/c'
_symmetry_Int_Tables_number      14
_space_group_name_Hall           '-P 2ybc'
loop_
_symmetry_equiv_pos_site_id
_symmetry_equiv_pos_as_xyz
1 x,y,z
2 -x,1/2+y,1/2-z
3 -x,-y,-z
4 x,1/2-y,1/2+z
_cell_length_a                   14.1607(4)
_cell_length_b                   23.8744(6)
_cell_length_c                   14.7933(4)
_cell_angle_alpha                90
_cell_angle_beta                 107.129(2)
_cell_angle_gamma                90
_cell_volume                     4779.46
loop_
_atom_site_label
_atom_site_type_symbol
_atom_site_fract_x
_atom_site_fract_y
_atom_site_fract_z
Zn1 Zn 0.37330(5) 0.33670(3) 0.52524(5)
Zn2 Zn 0.30437(6) 0.34238(3) 0.29207(5)
O1 O 0.2417(3) 0.36994(16) 0.5093(3)
O2 O 0.2238(3) 0.38439(18) 0.3570(3)
O3 O -0.1820(3) 0.48287(19) 0.3714(4)
O4 O 0.3335(3) 0.25808(16) 0.4945(3)
O5 O 0.3048(3) 0.26417(15) 0.3389(3)
O6 O 0.2777(3) 0.00240(15) 0.3859(3)
O7 O 0.5713(3) -0.15992(16) 0.2586(3)
O8 O 0.6465(4) -0.08107(18) 0.2606(4)
N1 N 0.4547(4) 0.33510(19) 0.6627(4)
C1 C 0.4595(5) 0.2885(3) 0.7144(4)
H1 H 0.4171 0.2581 0.6876
C2 C 0.5224(5) 0.2825(3) 0.8041(5)
H2 H 0.5219 0.2494 0.8396
C3 C 0.5878(5) 0.3267(3) 0.8424(5)
C4 C 0.5824(5) 0.3738(3) 0.7878(6)
H3 H 0.6258 0.4043 0.8113
C5 C 0.5160(5) 0.3773(3) 0.7011(5)
H4 H 0.5127 0.4109 0.6659
C6 C 0.6622(6) 0.3239(3) 0.9353(6)
H5 H 0.7135 0.3511 0.9495
C7 C 0.6625(6) 0.2865(4) 0.9998(6)
H6 H 0.6089 0.2609 0.9857
C8 C 0.7391(6) 0.2801(4) 1.0938(6)
C9 C 0.7222(7) 0.2409(5) 1.1547(7)
H7 H 0.6638 0.2188 1.1372
C10 C 0.7924(7) 0.2338(5) 1.2434(7)
H8 H 0.7793 0.2079 1.2869
C11 C 0.8799(6) 0.2633(4) 1.2691(6)
C12 C 0.8965(7) 0.3027(4) 1.2074(6)
H9 H 0.9560 0.3238 1.2244
C13 C 0.8260(6) 0.3117(4) 1.1199(6)
H10 H 0.8373 0.3394 1.0781
C14 C 0.9585(6) 0.2527(4) 1.3601(6)
H11 H 1.0084 0.2804 1.3810
C15 C 0.9639(7) 0.2079(4) 1.4136(6)
H12 H 0.9133 0.1805 1.3941
C16 C 1.0439(6) 0.1978(4) 1.5017(5)
C17 C 1.0572(7) 0.1454(4) 1.5413(6)
H13 H 1.0147 0.1158 1.5113
C18 C 1.1303(6) 0.1350(3) 1.6227(5)
H14 H 1.1366 0.0981 1.6479
C19 C 1.1824(5) 0.2249(3) 1.6287(5)
H15 H 1.2274 0.2534 1.6588
C20 C 1.1101(6) 0.2384(3) 1.5468(5)
H16 H 1.1060 0.2752 1.5217
N2 N 1.1937(4) 0.1740(2) 1.6690(4)
C21 C 0.1950(5) 0.3875(2) 0.4284(5)
C22 C 0.0956(4) 0.4135(2) 0.4160(4)
C23 C 0.0524(4) 0.4122(3) 0.4883(5)
H17 H 0.0866 0.3956 0.5472
C24 C -0.0406(5) 0.4348(3) 0.4750(5)
H18 H -0.0703 0.4348 0.5248
C25 C -0.0891(4) 0.4573(2) 0.3885(5)
C26 C -0.0458(5) 0.4605(3) 0.3162(5)
H19 H -0.0789 0.4781 0.2579
C27 C 0.0463(5) 0.4374(3) 0.3311(5)
H20 H 0.0764 0.4380 0.2816
O9 O -0.5227(8) 0.3446(4) 0.4539(8)
O10 O -0.5451(6) 0.4253(4) 0.5121(7)
C28 C -0.4987(9) 0.3957(4) 0.4711(8)
C29 C -0.4137(8) 0.4188(5) 0.4438(8)
C30 C -0.3539(12) 0.3837(6) 0.4140(11)
H21 H -0.3667 0.3446 0.4117
C31 C -0.2737(11) 0.4038(8) 0.3866(13)
H22 H -0.2332 0.3790 0.3640
C32 C -0.2548(16) 0.4610(7) 0.393(2)
C33 C -0.3142(12) 0.4976(7) 0.4233(15)
H23 H -0.3019 0.5368 0.4266
C34 C -0.3936(10) 0.4748(6) 0.4488(10)
H24 H -0.4352 0.4993 0.4705
C35 C 0.3125(4) 0.2373(2) 0.4141(4)
C36 C 0.2968(4) 0.1755(2) 0.4046(4)
C37 C 0.2695(5) 0.1496(3) 0.3179(5)
H25 H 0.2559 0.1715 0.2619
C38 C 0.2617(5) 0.0915(3) 0.3112(5)
H26 H 0.2432 0.0737 0.2511
C39 C 0.2808(4) 0.0607(2) 0.3917(5)
C40 C 0.3046(6) 0.0852(3) 0.4778(5)
H27 H 0.3162 0.0632 0.5335
C41 C 0.3116(5) 0.1424(3) 0.4834(5)
H28 H 0.3273 0.1598 0.5438
C42 C 0.5760(5) -0.1084(3) 0.2740(4)
C43 C 0.5020(5) -0.0798(2) 0.3095(4)
C44 C 0.5073(5) -0.0229(3) 0.3252(5)
H29 H 0.5617 -0.0026 0.3166
C45 C 0.4355(5) 0.0057(2) 0.3532(5)
H30 H 0.4412 0.0448 0.3657
C46 C 0.3560(5) -0.0238(2) 0.3625(4)
C47 C 0.3492(5) -0.0795(2) 0.3484(6)
H31 H 0.2941 -0.0994 0.3562
C48 C 0.4220(5) -0.1076(2) 0.3227(5)
H32 H 0.4170 -0.1471 0.3138
Zn1_2 Zn -0.62670(5) 0.33670(3) 0.52524(5)
Zn2A Zn 0.69563(6) -0.15762(3) 0.20793(5)
Zn2C Zn 1.30437(6) 0.15762(3) 1.79207(5)
O7A O 0.4287(3) 0.34008(16) 0.2414(3)
O8A O 0.3535(4) 0.41893(18) 0.2394(4)
N2C N 0.1937(4) 0.3260(2) 0.1690(4)
O9_2 O 0.4773(8) 0.3446(4) 0.4539(8)
O10_2 O 0.4549(6) 0.4253(4) 0.5121(7)
O11 O 0.842(3) 0.4484(17) 1.012(3)
O12 O 0.9039(12) 0.4693(7) 1.0578(12)
O13? O -0.4773(7) 0.3105(4) 0.4851(7)
O14? O -0.5694(6) 0.3825(5) 0.4512(7)
C49? C -0.4890(10) 0.3594(6) 0.4587(12)
C50? C -0.4060(8) 0.3907(5) 0.4391(8)
C51? C -0.3248(10) 0.3624(6) 0.4337(11)
H33? H -0.3214 0.3230 0.4431
C52? C -0.2464(11) 0.3903(7) 0.4146(14)
H34? H -0.1907 0.3703 0.4082
C53? C -0.2521(15) 0.4480(8) 0.405(2)
C54? C -0.3339(13) 0.4781(6) 0.4100(16)
H35? H -0.3371 0.5177 0.4037
C55? C -0.4116(10) 0.4467(7) 0.4244(11)
H36? H -0.4708 0.4655 0.4239
O15? O 0.6589(9) 0.4848(5) 0.6599(8)
O16? O 0.7260(16) 0.4802(8) 0.7187(16)
O17? O 0.9251(13) 0.4734(7) 0.8769(12)
O18? O 0.849(4) 0.437(3) 0.779(6)
O19? O 0.829(3) 0.4231(14) 0.712(3)
O20? O 1.009(4) 0.434(2) 0.851(4)
O21? O 0.849(4) 0.449(2) 0.842(5)
O22? O 0.798(4) 0.484(2) 0.799(4)
O23? O 0.966(2) 0.4965(13) 0.950(2)
O24? O 0.950(4) 0.397(2) 0.748(4)
loop_
_geom_bond_atom_site_label_1
_geom_bond_atom_site_label_2
_geom_bond_site_symmetry_1
_geom_bond_site_symmetry_2
Zn1 O1 1_555 1_555
Zn2 O2 1_555 1_555
O1 C21 1_555 1_555
O2 C21 1_555 1_555
O3 C25 1_555 1_555
O4 Zn1 1_555 1_555
O5 Zn2 1_555 1_555
O6 C39 1_555 1_555
O7 C42 1_555 1_555
O8 C42 1_555 1_555
N1 Zn1 1_555 1_555
C1 N1 1_555 1_555
H1 C1 1_555 1_555
C2 C1 1_555 1_555
H2 C2 1_555 1_555
C3 C2 1_555 1_555
C4 C3 1_555 1_555
H3 C4 1_555 1_555
C5 N1 1_555 1_555
H4 C5 1_555 1_555
C6 C3 1_555 1_555
H5 C6 1_555 1_555
C7 C6 1_555 1_555
H6 C7 1_555 1_555
C8 C7 1_555 1_555
C9 C8 1_555 1_555
H7 C9 1_555 1_555
C10 C9 1_555 1_555
H8 C10 1_555 1_555
C11 C10 1_555 1_555
C12 C11 1_555 1_555
H9 C12 1_555 1_555
C13 C8 1_555 1_555
H10 C13 1_555 1_555
C14 C11 1_555 1_555
H11 C14 1_555 1_555
C15 C14 1_555 1_555
H12 C15 1_555 1_555
C16 C15 1_555 1_555
C17 C16 1_555 1_555
H13 C17 1_555 1_555
C18 C17 1_555 1_555
H14 C18 1_555 1_555
C19 H15 1_555 1_555
C20 C16 1_555 1_555
H16 C20 1_555 1_555
N2 C18 1_555 1_555
C21 C22 1_555 1_555
C22 C23 1_555 1_555
C23 H17 1_555 1_555
C24 C23 1_555 1_555
H18 C24 1_555 1_555
C25 C24 1_555 1_555
C26 C25 1_555 1_555
H19 C26 1_555 1_555
C27 C22 1_555 1_555
H20 C27 1_555 1_555
O9 C28 1_555 1_555
O10 C28 1_555 1_555
C28 C29 1_555 1_555
C29 C30 1_555 1_555
C30 H21 1_555 1_555
C31 C30 1_555 1_555
H22 C31 1_555 1_555
C32 O3 1_555 1_555
C33 C32 1_555 1_555
H23 C33 1_555 1_555
C34 C29 1_555 1_555
H24 C34 1_555 1_555
C35 O4 1_555 1_555
C36 C35 1_555 1_555
C37 C36 1_555 1_555
H25 C37 1_555 1_555
C38 C37 1_555 1_555
H26 C38 1_555 1_555
C39 C38 1_555 1_555
C40 C39 1_555 1_555
H27 C40 1_555 1_555
C41 C36 1_555 1_555
H28 C41 1_555 1_555
C42 C43 1_555 1_555
C43 C44 1_555 1_555
C44 H29 1_555 1_555
C45 C44 1_555 1_555
H30 C45 1_555 1_555
C46 O6 1_555 1_555
C47 C46 1_555 1_555
H31 C47 1_555 1_555
C48 C43 1_555 1_555
H32 C48 1_555 1_555
Zn1_2 O9 1_555 1_555
Zn2A O7 1_555 1_555
Zn2C N2 1_555 1_555
O7A Zn2 1_555 1_555
O8A Zn2 1_555 1_555
N2C Zn2 1_555 1_555
O9_2 Zn1 1_555 1_555
O10_2 Zn1 1_555 1_555
O5 C35 1_555 1_555
O8 Zn2A 1_555 1_555
C4 C5 1_555 1_555
C12 C13 1_555 1_555
C19 C20 1_555 1_555
C19 N2 1_555 1_555
C26 C27 1_555 1_555
O10 Zn1_2 1_555 1_555
C31 C32 1_555 1_555
C33 C34 1_555 1_555
C40 C41 1_555 1_555
C45 C46 1_555 1_555
C47 C48 1_555 1_555

#END
