
#######################################################################
#
#                 Cambridge Crystallographic Data Centre
#                                CCDC 
#
#######################################################################
#
# If this CIF has been generated from an entry in the Cambridge 
# Structural Database, then it will include bibliographic, chemical, 
# crystal, experimental, refinement or atomic coordinate data resulting 
# from the CCDC's data processing and validation procedures.
#
#######################################################################

data_IHOCIT
_symmetry_cell_setting           monoclinic
_symmetry_space_group_name_H-M   'P 21/c'
_symmetry_Int_Tables_number      14
_space_group_name_Hall           '-P 2ybc'
loop_
_symmetry_equiv_pos_site_id
_symmetry_equiv_pos_as_xyz
1 x,y,z
2 -x,1/2+y,1/2-z
3 -x,-y,-z
4 x,1/2-y,1/2+z
_cell_length_a                   14.2908(4)
_cell_length_b                   23.5027(8)
_cell_length_c                   14.7566(4)
_cell_angle_alpha                90
_cell_angle_beta                 106.851(2)
_cell_angle_gamma                90
_cell_volume                     4743.52
loop_
_atom_site_label
_atom_site_type_symbol
_atom_site_fract_x
_atom_site_fract_y
_atom_site_fract_z
Zn1 Zn 0.36570(7) 0.33653(4) 0.51728(6)
Zn2 Zn 0.28536(8) 0.34235(5) 0.28056(7)
O1 O 0.2367(4) 0.3709(2) 0.5041(4)
O2 O 0.2136(5) 0.3859(3) 0.3503(4)
O3 O -0.1841(4) 0.4834(3) 0.3784(5)
O4 O 0.3221(4) 0.2578(2) 0.4863(4)
O5 O 0.2906(4) 0.2637(2) 0.3302(4)
O6 O 0.2816(4) -0.0024(3) 0.3800(5)
O7 O 0.5884(5) -0.1569(3) 0.2585(4)
O8 O 0.6668(6) -0.0770(3) 0.2786(6)
N1 N 0.4458(5) 0.3352(3) 0.6546(4)
C1 C 0.4483(6) 0.2902(4) 0.7097(5)
H1 H 0.4033 0.2602 0.6859
C2 C 0.5131(6) 0.2842(4) 0.8006(6)
H2 H 0.5111 0.2518 0.8384
C3 C 0.5804(7) 0.3276(5) 0.8333(7)
C4 C 0.5773(8) 0.3737(5) 0.7761(7)
H3 H 0.6224 0.4040 0.7967
C5 C 0.5093(7) 0.3762(4) 0.6890(6)
H4 H 0.5077 0.4092 0.6514
C6 C 0.6545(8) 0.3242(5) 0.9251(7)
H5 H 0.7072 0.3504 0.9363
C7 C 0.6554(8) 0.2897(5) 0.9912(7)
H6 H 0.6009 0.2648 0.9798
C8 C 0.7308(8) 0.2831(5) 1.0847(7)
C9 C 0.7129(9) 0.2442(6) 1.1464(7)
H7 H 0.6528 0.2239 1.1306
C10 C 0.7840(8) 0.2343(6) 1.2335(8)
H8 H 0.7729 0.2057 1.2747
C11 C 0.8704(8) 0.2656(5) 1.2604(7)
C12 C 0.8859(8) 0.3061(5) 1.1990(7)
H9 H 0.9431 0.3290 1.2166
C13 C 0.8161(8) 0.3135(5) 1.1096(7)
H10 H 0.8287 0.3401 1.0660
C14 C 0.9468(8) 0.2550(5) 1.3497(7)
H11 H 0.9949 0.2837 1.3718
C15 C 0.9537(9) 0.2086(5) 1.4015(7)
H12 H 0.9053 0.1800 1.3804
C16 C 1.0323(7) 0.1985(5) 1.4902(7)
C17 C 1.0450(8) 0.1443(5) 1.5300(7)
H13 H 1.0039 0.1140 1.4994
C18 C 1.1147(8) 0.1346(5) 1.6110(6)
H14 H 1.1200 0.0973 1.6368
C19 C 1.1681(8) 0.2262(4) 1.6200(6)
H15 H 1.2119 0.2554 1.6508
C20 C 1.0966(8) 0.2392(4) 1.5370(6)
H16 H 1.0920 0.2768 1.5124
N2 N 1.1782(5) 0.1743(3) 1.6585(5)
C21 C 0.1868(6) 0.3889(4) 0.4247(6)
C22 C 0.0897(6) 0.4138(4) 0.4143(6)
C23 C 0.0489(6) 0.4124(4) 0.4886(6)
H17 H 0.0849 0.3966 0.5477
C24 C -0.0442(6) 0.4340(4) 0.4773(7)
H18 H -0.0728 0.4326 0.5280
C25 C -0.0943(6) 0.4574(4) 0.3916(7)
C26 C -0.0541(7) 0.4604(4) 0.3193(7)
H19 H -0.0889 0.4779 0.2614
C27 C 0.0364(7) 0.4382(4) 0.3297(6)
H20 H 0.0635 0.4395 0.2780
O9 O -0.4900(12) 0.3099(9) 0.4767(14)
O10 O -0.5761(9) 0.3854(11) 0.4493(11)
C28 C -0.4987(16) 0.3602(11) 0.450(2)
C29 C -0.4148(11) 0.3928(9) 0.4352(13)
C30 C -0.3303(15) 0.3637(12) 0.4362(19)
H21 H -0.3256 0.3238 0.4476
C31 C -0.2524(16) 0.3935(15) 0.420(2)
H22 H -0.1957 0.3735 0.4170
C32 C -0.2567(19) 0.4517(15) 0.410(3)
C33 C -0.3408(19) 0.4810(12) 0.408(2)
H23 H -0.3450 0.5210 0.3980
C34 C -0.4195(16) 0.4504(11) 0.4210(19)
H24 H -0.4778 0.4701 0.4201
C35 C 0.3006(5) 0.2363(4) 0.4047(6)
C36 C 0.2872(6) 0.1734(4) 0.3967(6)
C37 C 0.2679(7) 0.1462(4) 0.3107(6)
H25 H 0.2584 0.1683 0.2548
C38 C 0.2619(7) 0.0874(4) 0.3036(7)
H26 H 0.2454 0.0692 0.2436
C39 C 0.2800(6) 0.0564(4) 0.3847(7)
C40 C 0.2973(7) 0.0823(4) 0.4703(7)
H27 H 0.3077 0.0600 0.5260
C41 C 0.2997(7) 0.1398(4) 0.4761(6)
H28 H 0.3104 0.1575 0.5362
C42 C 0.5933(8) -0.1058(5) 0.2812(6)
C43 C 0.5140(7) -0.0791(4) 0.3124(6)
C44 C 0.5179(7) -0.0220(4) 0.3337(7)
H29 H 0.5732 -0.0004 0.3310
C45 C 0.4426(7) 0.0046(4) 0.3589(7)
H30 H 0.4467 0.0437 0.3754
C46 C 0.3624(7) -0.0267(4) 0.3596(6)
C47 C 0.3583(8) -0.0833(4) 0.3402(8)
H31 H 0.3033 -0.1051 0.3433
C48 C 0.4337(8) -0.1085(4) 0.3163(7)
H32 H 0.4298 -0.1480 0.3019
Zn1_2 Zn -0.63430(7) 0.33653(4) 0.51728(6)
Zn2A Zn 0.71464(8) -0.15765(5) 0.21944(7)
Zn2C Zn 1.28536(8) 0.15765(5) 1.78056(7)
O7A O 0.4116(5) 0.3431(3) 0.2415(4)
O8A O 0.3332(6) 0.4230(3) 0.2214(6)
N2C N 0.1782(5) 0.3257(3) 0.1585(5)
O9_2 O 0.5100(12) 0.3099(9) 0.4767(14)
O10_2 O 0.4239(9) 0.3854(11) 0.4493(11)
O11 O 0.6622(8) 0.4872(5) 0.6538(8)
O12 O 1.144(2) 0.5466(11) 0.9718(19)
O13 O 0.906(3) 0.4788(17) 0.868(3)
O14 O 1.0862(16) 0.5256(9) 0.9261(15)
O15 O 0.835(3) 0.4193(17) 0.732(3)
O16 O 0.816(2) 0.4189(13) 0.657(2)
O17 O 0.949(3) 0.4499(17) 0.837(3)
O18 O 0.839(5) 0.434(3) 0.820(5)
O19 O 0.792(2) 0.4733(13) 0.885(2)
O20 O 0.974(3) 0.4904(18) 0.905(3)
O21 O 1.000(4) 0.412(2) 0.784(4)
O22 O 0.916(8) 0.362(5) 0.672(8)
O23? O -0.5142(15) 0.3352(10) 0.4615(18)
O24? O -0.5614(11) 0.4181(9) 0.4865(17)
C49? C -0.5020(16) 0.3877(10) 0.4626(18)
C50? C -0.4164(11) 0.4130(10) 0.4387(13)
C51? C -0.3507(18) 0.3770(11) 0.4155(19)
H33? H -0.3599 0.3369 0.4158
C52? C -0.2706(17) 0.3996(15) 0.392(2)
H34? H -0.2256 0.3750 0.3748
C53? C -0.257(2) 0.4576(16) 0.393(3)
C54? C -0.321(2) 0.4936(12) 0.419(3)
H35? H -0.3101 0.5335 0.4222
C55? C -0.4020(18) 0.4707(10) 0.4401(19)
H36? H -0.4477 0.4953 0.4557
O25? O 0.718(4) 0.478(2) 0.709(3)
loop_
_geom_bond_atom_site_label_1
_geom_bond_atom_site_label_2
_geom_bond_site_symmetry_1
_geom_bond_site_symmetry_2
Zn1 O1 1_555 1_555
Zn2 O2 1_555 1_555
O1 C21 1_555 1_555
O2 C21 1_555 1_555
O3 C25 1_555 1_555
O4 Zn1 1_555 1_555
O5 Zn2 1_555 1_555
O6 C39 1_555 1_555
O7 C42 1_555 1_555
O8 C42 1_555 1_555
N1 Zn1 1_555 1_555
C1 N1 1_555 1_555
H1 C1 1_555 1_555
C2 C1 1_555 1_555
H2 C2 1_555 1_555
C3 C2 1_555 1_555
C4 C3 1_555 1_555
H3 C4 1_555 1_555
C5 N1 1_555 1_555
H4 C5 1_555 1_555
C6 C3 1_555 1_555
H5 C6 1_555 1_555
C7 C6 1_555 1_555
H6 C7 1_555 1_555
C8 C7 1_555 1_555
C9 C8 1_555 1_555
H7 C9 1_555 1_555
C10 C9 1_555 1_555
H8 C10 1_555 1_555
C11 C10 1_555 1_555
C12 C11 1_555 1_555
H9 C12 1_555 1_555
C13 C8 1_555 1_555
H10 C13 1_555 1_555
C14 C11 1_555 1_555
H11 C14 1_555 1_555
C15 C14 1_555 1_555
H12 C15 1_555 1_555
C16 C15 1_555 1_555
C17 C16 1_555 1_555
H13 C17 1_555 1_555
C18 C17 1_555 1_555
H14 C18 1_555 1_555
C19 H15 1_555 1_555
C20 C16 1_555 1_555
H16 C20 1_555 1_555
N2 C18 1_555 1_555
C21 C22 1_555 1_555
C22 C23 1_555 1_555
C23 H17 1_555 1_555
C24 C23 1_555 1_555
H18 C24 1_555 1_555
C25 C24 1_555 1_555
C26 C25 1_555 1_555
H19 C26 1_555 1_555
C27 C22 1_555 1_555
H20 C27 1_555 1_555
O9 C28 1_555 1_555
O10 C28 1_555 1_555
C28 C29 1_555 1_555
C29 C30 1_555 1_555
C30 H21 1_555 1_555
C31 C30 1_555 1_555
H22 C31 1_555 1_555
C32 O3 1_555 1_555
C33 C32 1_555 1_555
H23 C33 1_555 1_555
C34 C29 1_555 1_555
H24 C34 1_555 1_555
C35 O4 1_555 1_555
C36 C35 1_555 1_555
C37 C36 1_555 1_555
H25 C37 1_555 1_555
C38 C37 1_555 1_555
H26 C38 1_555 1_555
C39 C38 1_555 1_555
C40 C39 1_555 1_555
H27 C40 1_555 1_555
C41 C36 1_555 1_555
H28 C41 1_555 1_555
C42 C43 1_555 1_555
C43 C44 1_555 1_555
C44 H29 1_555 1_555
C45 C44 1_555 1_555
H30 C45 1_555 1_555
C46 O6 1_555 1_555
C47 C46 1_555 1_555
H31 C47 1_555 1_555
C48 C43 1_555 1_555
H32 C48 1_555 1_555
Zn1_2 O9 1_555 1_555
Zn2A O7 1_555 1_555
Zn2C N2 1_555 1_555
O7A Zn2 1_555 1_555
O8A Zn2 1_555 1_555
N2C Zn2 1_555 1_555
O9_2 Zn1 1_555 1_555
O10_2 Zn1 1_555 1_555
O5 C35 1_555 1_555
O8 Zn2A 1_555 1_555
C4 C5 1_555 1_555
C12 C13 1_555 1_555
C19 C20 1_555 1_555
C19 N2 1_555 1_555
C26 C27 1_555 1_555
O10 Zn1_2 1_555 1_555
C31 C32 1_555 1_555
C33 C34 1_555 1_555
C40 C41 1_555 1_555
C45 C46 1_555 1_555
C47 C48 1_555 1_555

#END
