
#######################################################################
#
#                 Cambridge Crystallographic Data Centre
#                                CCDC 
#
#######################################################################
#
# If this CIF has been generated from an entry in the Cambridge 
# Structural Database, then it will include bibliographic, chemical, 
# crystal, experimental, refinement or atomic coordinate data resulting 
# from the CCDC's data processing and validation procedures.
#
#######################################################################

data_IHOFOC
_symmetry_cell_setting           triclinic
_symmetry_space_group_name_H-M   'P -1'
_symmetry_Int_Tables_number      2
_space_group_name_Hall           '-P 1'
loop_
_symmetry_equiv_pos_site_id
_symmetry_equiv_pos_as_xyz
1 x,y,z
2 -x,-y,-z
_cell_length_a                   6.3900(3)
_cell_length_b                   9.8657(6)
_cell_length_c                   12.5336(9)
_cell_angle_alpha                92.036(3)
_cell_angle_beta                 97.215(4)
_cell_angle_gamma                94.435(4)
_cell_volume                     780.719
loop_
_atom_site_label
_atom_site_type_symbol
_atom_site_fract_x
_atom_site_fract_y
_atom_site_fract_z
U1 U -0.00761(2) 0.24989(2) 0.41421(2)
O1 O -0.1467(5) 0.1504(2) 0.3048(2)
O2 O 0.1314(5) 0.3531(2) 0.5239(2)
O3 O 0.0229(5) 0.4342(2) 0.2880(2)
O4 O 0.2958(5) 0.3115(2) 0.3175(2)
O5 O 0.2002(4) 1.0757(2) 0.4504(2)
O6 O 0.2138(5) 0.8548(2) 0.4651(2)
O7 O -0.3101(5) 0.3844(2) 0.4194(2)
H1 H -0.2729 0.4678 0.4158
H2 H -0.3988 0.3448 0.3550
C1 C 0.2824(6) 0.6239(3) 0.1598(3)
C2 C 0.3528(6) 0.7147(3) 0.2620(3)
H3 H 0.5015 0.7009 0.2893
H4 H 0.2637 0.6887 0.3183
C3 C 0.3339(6) 0.8665(3) 0.2384(3)
C4 C 0.1061(6) 0.8887(3) 0.1934(3)
H5 H 0.0958 0.9857 0.1773
H6 H 0.0110 0.8659 0.2480
C5 C 0.0359(6) 0.7994(3) 0.0906(3)
H7 H -0.1138 0.8138 0.0626
C6 C 0.0530(6) 0.6482(3) 0.1172(3)
H8 H -0.0404 0.6237 0.1720
H9 H 0.0056 0.5895 0.0516
C7 C 0.4230(6) 0.6650(3) 0.0730(3)
H10 H 0.5719 0.6496 0.0985
H11 H 0.3776 0.6076 0.0065
C8 C 0.4075(7) 0.8147(3) 0.0482(3)
H12 H 0.5019 0.8397 -0.0072
C9 C 0.4779(6) 0.9031(3) 0.1512(3)
H13 H 0.4709 1.0003 0.1352
H14 H 0.6265 0.8887 0.1784
C10 C 0.1810(7) 0.8373(3) 0.0052(3)
H15 H 0.1359 0.7804 -0.0616
H16 H 0.1706 0.9339 -0.0121
C11 C 0.3121(7) 0.4734(3) 0.1807(3)
H17 H 0.2651 0.4203 0.1122
H18 H 0.4658 0.4647 0.1983
C12 C 0.2027(7) 0.4061(3) 0.2671(3)
C13 C 0.4112(6) 0.9617(3) 0.3378(3)
H19 H 0.5491 0.9339 0.3713
H20 H 0.4357 1.0553 0.3134
C14 C 0.2637(6) 0.9644(3) 0.4224(3)
U1_2 U -0.00761(2) 1.24989(2) 0.41421(2)
U1A U 0.00761(2) 0.75011(2) 0.58579(2)
O5_2 O 0.2002(4) 0.0757(2) 0.4504(2)
O6A O -0.2138(5) 0.1452(2) 0.5349(2)
loop_
_geom_bond_atom_site_label_1
_geom_bond_atom_site_label_2
_geom_bond_site_symmetry_1
_geom_bond_site_symmetry_2
U1 O1 1_555 1_555
O2 U1 1_555 1_555
O3 U1 1_555 1_555
O4 U1 1_555 1_555
O5 C14 1_555 1_555
O6 C14 1_555 1_555
O7 U1 1_555 1_555
H1 O7 1_555 1_555
H2 O7 1_555 1_555
C1 C2 1_555 1_555
C2 H3 1_555 1_555
H4 C2 1_555 1_555
C3 C2 1_555 1_555
C4 C3 1_555 1_555
H5 C4 1_555 1_555
H6 C4 1_555 1_555
C5 C4 1_555 1_555
H7 C5 1_555 1_555
C6 C1 1_555 1_555
H8 C6 1_555 1_555
H9 C6 1_555 1_555
C7 C1 1_555 1_555
H10 C7 1_555 1_555
H11 C7 1_555 1_555
C8 C7 1_555 1_555
H12 C8 1_555 1_555
C9 C3 1_555 1_555
H13 C9 1_555 1_555
H14 C9 1_555 1_555
C10 C5 1_555 1_555
H15 C10 1_555 1_555
H16 C10 1_555 1_555
C11 C1 1_555 1_555
H17 C11 1_555 1_555
H18 C11 1_555 1_555
C12 O3 1_555 1_555
C13 C3 1_555 1_555
H19 C13 1_555 1_555
H20 C13 1_555 1_555
C14 C13 1_555 1_555
U1_2 O5 1_555 1_555
U1A O6 1_555 1_555
O5_2 U1 1_555 1_555
O6A U1 1_555 1_555
O4 C12 1_555 1_555
C5 C6 1_555 1_555
C8 C9 1_555 1_555
C8 C10 1_555 1_555
C11 C12 1_555 1_555

#END
