
#######################################################################
#
#                 Cambridge Crystallographic Data Centre
#                                CCDC 
#
#######################################################################
#
# If this CIF has been generated from an entry in the Cambridge 
# Structural Database, then it will include bibliographic, chemical, 
# crystal, experimental, refinement or atomic coordinate data resulting 
# from the CCDC's data processing and validation procedures.
#
#######################################################################

data_IHOGIX
_symmetry_cell_setting           monoclinic
_symmetry_space_group_name_H-M   'P 21/n'
_symmetry_Int_Tables_number      14
_space_group_name_Hall           '-P 2yn'
loop_
_symmetry_equiv_pos_site_id
_symmetry_equiv_pos_as_xyz
1 x,y,z
2 1/2-x,1/2+y,1/2-z
3 -x,-y,-z
4 1/2+x,1/2-y,1/2+z
_cell_length_a                   16.5765(4)
_cell_length_b                   13.5501(4)
_cell_length_c                   24.0775(8)
_cell_angle_alpha                90
_cell_angle_beta                 95.800(2)
_cell_angle_gamma                90
_cell_volume                     5380.44
loop_
_atom_site_label
_atom_site_type_symbol
_atom_site_fract_x
_atom_site_fract_y
_atom_site_fract_z
U1 U 0.36746(2) 0.32919(2) 0.49501(2)
U2 U 0.97171(2) 0.06414(2) 0.64571(2)
O1 O 0.38431(19) 0.2017(3) 0.48943(13)
O2 O 0.3497(2) 0.4575(3) 0.50020(15)
O3 O 0.87370(18) 0.0587(3) 0.66692(13)
O4 O 1.07118(17) 0.0699(3) 0.62585(13)
O5 O 0.49456(18) 0.3574(3) 0.45291(14)
O6 O 0.50509(19) 0.3416(3) 0.54332(13)
O7 O 0.91186(18) 0.1595(3) 0.56394(13)
O8 O 0.92087(18) -0.0001(3) 0.55416(12)
O9 O 0.36433(19) 0.3156(3) 0.59564(13)
O10 O 0.2468(2) 0.3070(4) 0.54699(14)
O11 O 0.52561(19) 0.3804(3) 0.86240(13)
O12 O 0.4850(2) 0.4430(3) 0.78017(13)
O13 O 1.01055(18) 0.1487(3) 0.73654(12)
O14 O 0.98594(17) 0.2438(3) 0.66367(12)
O15 O 0.74311(17) 0.2051(3) 0.93131(12)
O16 O 0.84806(18) 0.1534(3) 0.89220(12)
C1 C 0.6463(2) 0.2145(4) 0.48286(18)
C2 C 0.7391(2) 0.2014(4) 0.48787(17)
H1 H 0.7626 0.2495 0.4631
H2 H 0.7615 0.2157 0.5267
C3 C 0.7638(2) 0.0978(4) 0.47242(16)
C4 C 0.7296(2) 0.0766(4) 0.41267(17)
H3 H 0.7450 0.0090 0.4022
H4 H 0.7529 0.1236 0.3872
C5 C 0.6369(3) 0.0861(4) 0.40628(17)
H5 H 0.6156 0.0719 0.3667
C6 C 0.6130(3) 0.1902(4) 0.42171(18)
H6 H 0.5531 0.1961 0.4176
H7 H 0.6349 0.2381 0.3960
C7 C 0.6110(2) 0.1384(4) 0.52124(18)
H8 H 0.6314 0.1522 0.5605
H9 H 0.5511 0.1444 0.5177
C8 C 0.6346(2) 0.0327(4) 0.50593(18)
H10 H 0.6116 -0.0155 0.5315
C9 C 0.7272(2) 0.0238(4) 0.51135(17)
H11 H 0.7426 -0.0441 0.5017
H12 H 0.7490 0.0369 0.5505
C10 C 0.6009(3) 0.0114(4) 0.44536(18)
H13 H 0.5411 0.0170 0.4415
H14 H 0.6154 -0.0566 0.4351
C11 C 0.6280(2) 0.3202(4) 0.49848(19)
H15 H 0.6556 0.3341 0.5360
H16 H 0.6510 0.3652 0.4718
C12 C 0.5391(3) 0.3429(4) 0.4988(2)
C13 C 0.8567(2) 0.0884(4) 0.47493(17)
H17 H 0.8700 0.0284 0.4542
H18 H 0.8782 0.1459 0.4558
C14 C 0.8994(2) 0.0824(5) 0.53401(19)
C15 C 0.2842(3) 0.2523(4) 0.69644(19)
C16 C 0.3686(2) 0.2912(4) 0.71867(17)
H19 H 0.3639 0.3610 0.7301
H20 H 0.4048 0.2886 0.6884
C17 C 0.4063(3) 0.2305(4) 0.76890(18)
C18 C 0.3509(3) 0.2402(4) 0.81656(19)
H21 H 0.3738 0.2016 0.8494
H22 H 0.3477 0.3102 0.8279
C19 C 0.2655(3) 0.2015(5) 0.7961(2)
H23 H 0.2295 0.2081 0.8268
C20 C 0.2291(3) 0.2611(5) 0.7446(2)
H24 H 0.2240 0.3314 0.7550
H25 H 0.1743 0.2358 0.7320
C21 C 0.2892(3) 0.1431(5) 0.6813(2)
H26 H 0.3239 0.1349 0.6505
H27 H 0.2343 0.1182 0.6684
C22 C 0.3247(3) 0.0828(4) 0.7326(2)
H28 H 0.3286 0.0118 0.7218
C23 C 0.4090(3) 0.1216(4) 0.7517(2)
H29 H 0.4441 0.1144 0.7210
H30 H 0.4330 0.0820 0.7838
C24 C 0.2706(4) 0.0919(5) 0.7794(2)
H31 H 0.2932 0.0525 0.8119
H32 H 0.2158 0.0665 0.7669
C25 C 0.2457(3) 0.3130(4) 0.64665(19)
H33 H 0.1895 0.2892 0.6373
H34 H 0.2423 0.3825 0.6588
C26 C 0.2878(3) 0.3110(4) 0.5942(2)
C27 C 0.4924(3) 0.2646(4) 0.7874(2)
H35 H 0.5165 0.2186 0.8165
H36 H 0.5247 0.2595 0.7552
C28 C 0.5005(3) 0.3676(5) 0.8100(2)
C29 C 0.9230(2) 0.3615(4) 0.76781(17)
C30 C 0.8736(2) 0.2772(4) 0.79191(17)
H37 H 0.8633 0.2247 0.7635
H38 H 0.9056 0.2481 0.8248
C31 C 0.7922(3) 0.3156(4) 0.80908(18)
C32 C 0.7439(3) 0.3602(5) 0.75616(19)
H39 H 0.7335 0.3083 0.7274
H40 H 0.6909 0.3850 0.7658
C33 C 0.7910(3) 0.4441(4) 0.7330(2)
H41 H 0.7590 0.4722 0.6993
C34 C 0.8736(2) 0.4045(5) 0.71651(18)
H42 H 0.8638 0.3528 0.6875
H43 H 0.9042 0.4589 0.7009
C35 C 0.9363(3) 0.4409(4) 0.81253(19)
H44 H 0.9691 0.4949 0.7986
H45 H 0.9672 0.4124 0.8461
C36 C 0.8560(3) 0.4836(4) 0.8289(2)
H46 H 0.8668 0.5365 0.8576
C37 C 0.8079(3) 0.3975(4) 0.85258(18)
H47 H 0.8391 0.3706 0.8864
H48 H 0.7555 0.4226 0.8633
C38 C 0.8089(3) 0.5252(5) 0.7765(2)
H49 H 0.8408 0.5782 0.7608
H50 H 0.7573 0.5542 0.7862
C39 C 1.0062(2) 0.3228(4) 0.75422(19)
H51 H 1.0350 0.3765 0.7365
H52 H 1.0388 0.3052 0.7896
C40 C 1.0013(2) 0.2348(4) 0.71637(19)
C41 C 0.7429(3) 0.2319(4) 0.83223(18)
H53 H 0.6873 0.2559 0.8361
H54 H 0.7386 0.1766 0.8052
C42 C 0.7794(3) 0.1949(4) 0.88724(19)
U1C U 0.86746(2) 0.17081(2) 0.99501(2)
U2A U 0.52829(2) 0.56414(2) 0.85429(2)
O11A O 0.97439(19) -0.1196(3) 0.63760(13)
O12A O 1.0150(2) -0.0570(3) 0.71983(13)
O15C O 0.24311(17) 0.2949(3) 0.43131(12)
O16C O 0.34806(18) 0.3466(3) 0.39220(12)
O17 O 0.8912(3) 0.3759(5) 0.5327(2)
H55 H 0.9020 0.3144 0.5489
H56 H 0.9340 0.4070 0.5536
O18 O 0.1526(4) 0.5074(5) 0.5583(2)
H57 H 0.2014 0.4661 0.5561
H58 H 0.1497 0.5320 0.5228
O19 O 1.0163(3) 0.4402(4) 0.6113(2)
H59 H 1.0237 0.3887 0.6346
H60 H 1.0594 0.4793 0.6207
N1 N 0.5911(3) 0.2619(4) 0.95502(19)
H61 H 0.5596 0.2830 0.9200
H62 H 0.6410 0.2456 0.9439
C43 C 0.5518(4) 0.1610(7) 0.9400(3)
H63 H 0.5704 0.1126 0.9687
H64 H 0.5675 0.1392 0.9038
H65 H 0.4927 0.1671 0.9379
C44 C 0.5823(4) 0.2925(6) 1.0116(2)
H66 H 0.5245 0.2984 1.0167
H67 H 0.6088 0.3565 1.0188
H68 H 0.6075 0.2434 1.0378
N2 N 0.9931(3) 0.0586(4) 0.8431(2)
H69 H 0.9881 0.0862 0.8074
H70 H 0.9741 0.0994 0.8725
C45 C 0.9359(3) -0.0242(5) 0.8389(2)
H71 H 0.9475 -0.0673 0.8080
H72 H 0.8804 0.0011 0.8320
H73 H 0.9416 -0.0618 0.8738
C46 C 1.0773(3) 0.0355(5) 0.8534(2)
H74 H 1.0872 -0.0006 0.8886
H75 H 1.1090 0.0967 0.8556
H76 H 1.0937 -0.0053 0.8228
loop_
_geom_bond_atom_site_label_1
_geom_bond_atom_site_label_2
_geom_bond_site_symmetry_1
_geom_bond_site_symmetry_2
U1 O1 1_555 1_555
U2 O3 1_555 1_555
O2 U1 1_555 1_555
O4 U2 1_555 1_555
O5 U1 1_555 1_555
O6 U1 1_555 1_555
O7 U2 1_555 1_555
O8 U2 1_555 1_555
O9 U1 1_555 1_555
O10 U1 1_555 1_555
O11 C28 1_555 1_555
O12 C28 1_555 1_555
O13 U2 1_555 1_555
O14 U2 1_555 1_555
O15 C42 1_555 1_555
O16 C42 1_555 1_555
C1 C2 1_555 1_555
C2 H1 1_555 1_555
H2 C2 1_555 1_555
C3 C2 1_555 1_555
C4 C3 1_555 1_555
H3 C4 1_555 1_555
H4 C4 1_555 1_555
C5 C4 1_555 1_555
H5 C5 1_555 1_555
C6 C1 1_555 1_555
H6 C6 1_555 1_555
H7 C6 1_555 1_555
C7 C1 1_555 1_555
H8 C7 1_555 1_555
H9 C7 1_555 1_555
C8 C7 1_555 1_555
H10 C8 1_555 1_555
C9 C3 1_555 1_555
H11 C9 1_555 1_555
H12 C9 1_555 1_555
C10 C5 1_555 1_555
H13 C10 1_555 1_555
H14 C10 1_555 1_555
C11 C1 1_555 1_555
H15 C11 1_555 1_555
H16 C11 1_555 1_555
C12 O5 1_555 1_555
C13 C3 1_555 1_555
H17 C13 1_555 1_555
H18 C13 1_555 1_555
C14 O7 1_555 1_555
C15 C16 1_555 1_555
C16 H19 1_555 1_555
H20 C16 1_555 1_555
C17 C16 1_555 1_555
C18 C17 1_555 1_555
H21 C18 1_555 1_555
H22 C18 1_555 1_555
C19 C18 1_555 1_555
H23 C19 1_555 1_555
C20 C15 1_555 1_555
H24 C20 1_555 1_555
H25 C20 1_555 1_555
C21 C15 1_555 1_555
H26 C21 1_555 1_555
H27 C21 1_555 1_555
C22 C21 1_555 1_555
H28 C22 1_555 1_555
C23 C17 1_555 1_555
H29 C23 1_555 1_555
H30 C23 1_555 1_555
C24 C19 1_555 1_555
H31 C24 1_555 1_555
H32 C24 1_555 1_555
C25 C15 1_555 1_555
H33 C25 1_555 1_555
H34 C25 1_555 1_555
C26 O9 1_555 1_555
C27 C17 1_555 1_555
H35 C27 1_555 1_555
H36 C27 1_555 1_555
C28 C27 1_555 1_555
C29 C30 1_555 1_555
C30 H37 1_555 1_555
H38 C30 1_555 1_555
C31 C30 1_555 1_555
C32 C31 1_555 1_555
H39 C32 1_555 1_555
H40 C32 1_555 1_555
C33 C32 1_555 1_555
H41 C33 1_555 1_555
C34 C29 1_555 1_555
H42 C34 1_555 1_555
H43 C34 1_555 1_555
C35 C29 1_555 1_555
H44 C35 1_555 1_555
H45 C35 1_555 1_555
C36 C35 1_555 1_555
H46 C36 1_555 1_555
C37 C31 1_555 1_555
H47 C37 1_555 1_555
H48 C37 1_555 1_555
C38 C33 1_555 1_555
H49 C38 1_555 1_555
H50 C38 1_555 1_555
C39 C29 1_555 1_555
H51 C39 1_555 1_555
H52 C39 1_555 1_555
C40 O13 1_555 1_555
C41 C31 1_555 1_555
H53 C41 1_555 1_555
H54 C41 1_555 1_555
C42 C41 1_555 1_555
O17 H55 1_555 1_555
H56 O17 1_555 1_555
O18 H57 1_555 1_555
H58 O18 1_555 1_555
O19 H59 1_555 1_555
H60 O19 1_555 1_555
N1 H61 1_555 1_555
H62 N1 1_555 1_555
C43 N1 1_555 1_555
H63 C43 1_555 1_555
H64 C43 1_555 1_555
H65 C43 1_555 1_555
C44 N1 1_555 1_555
H66 C44 1_555 1_555
H67 C44 1_555 1_555
H68 C44 1_555 1_555
N2 H69 1_555 1_555
H70 N2 1_555 1_555
C45 N2 1_555 1_555
H71 C45 1_555 1_555
H72 C45 1_555 1_555
H73 C45 1_555 1_555
C46 N2 1_555 1_555
H74 C46 1_555 1_555
H75 C46 1_555 1_555
H76 C46 1_555 1_555
U1C O15 1_555 1_555
U2A O11 1_555 1_555
O11A U2 1_555 1_555
O12A U2 1_555 1_555
O15C U1 1_555 1_555
O16C U1 1_555 1_555
O6 C12 1_555 1_555
O8 C14 1_555 1_555
O10 C26 1_555 1_555
O12 U2A 1_555 1_555
O14 C40 1_555 1_555
O16 U1C 1_555 1_555
C5 C6 1_555 1_555
C8 C9 1_555 1_555
C8 C10 1_555 1_555
C11 C12 1_555 1_555
C13 C14 1_555 1_555
C19 C20 1_555 1_555
C22 C23 1_555 1_555
C22 C24 1_555 1_555
C25 C26 1_555 1_555
C33 C34 1_555 1_555
C36 C37 1_555 1_555
C36 C38 1_555 1_555
C39 C40 1_555 1_555

#END
