
#######################################################################
#
#                 Cambridge Crystallographic Data Centre
#                                CCDC 
#
#######################################################################
#
# If this CIF has been generated from an entry in the Cambridge 
# Structural Database, then it will include bibliographic, chemical, 
# crystal, experimental, refinement or atomic coordinate data resulting 
# from the CCDC's data processing and validation procedures.
#
#######################################################################

data_IHOGET
_symmetry_cell_setting           monoclinic
_symmetry_space_group_name_H-M   'P 21/n'
_symmetry_Int_Tables_number      14
_space_group_name_Hall           '-P 2yn'
loop_
_symmetry_equiv_pos_site_id
_symmetry_equiv_pos_as_xyz
1 x,y,z
2 1/2-x,1/2+y,1/2-z
3 -x,-y,-z
4 1/2+x,1/2-y,1/2+z
_cell_length_a                   8.4491(6)
_cell_length_b                   25.5329(14)
_cell_length_c                   9.3969(8)
_cell_angle_alpha                90
_cell_angle_beta                 94.063(5)
_cell_angle_gamma                90
_cell_volume                     2022.1
loop_
_atom_site_label
_atom_site_type_symbol
_atom_site_fract_x
_atom_site_fract_y
_atom_site_fract_z
U1 U 0.21474(7) 0.44005(2) 0.15462(6)
O1 O 0.1384(13) 0.4736(4) 0.2951(11)
O2 O 0.2935(12) 0.4070(4) 0.0095(10)
O3 O 0.3186(12) 0.3757(5) 0.3295(11)
O4 O 0.0766(13) 0.3614(4) 0.2308(12)
O5 O 0.4682(14) 0.0550(5) 0.5336(14)
O6 O 0.2372(13) 0.0230(4) 0.4560(11)
O7 O 0.4776(13) 0.4648(5) 0.2309(13)
N1 N 0.7021(15) 0.5035(5) 0.3227(13)
C1 C 0.2159(19) 0.2488(6) 0.3491(15)
C2 C 0.2131(18) 0.2064(6) 0.4648(15)
H1 H 0.1065 0.2056 0.5022
H2 H 0.2907 0.2156 0.5447
C3 C 0.2533(18) 0.1508(6) 0.4076(15)
C4 C 0.4185(19) 0.1536(6) 0.3526(15)
H3 H 0.4474 0.1191 0.3141
H4 H 0.4971 0.1625 0.4321
C5 C 0.4222(18) 0.1966(6) 0.2314(15)
H5 H 0.5308 0.1979 0.1955
C6 C 0.3820(16) 0.2500(7) 0.2930(15)
H6 H 0.3859 0.2771 0.2180
H7 H 0.4613 0.2591 0.3716
C7 C 0.0951(18) 0.2333(7) 0.2258(15)
H8 H -0.0125 0.2322 0.2611
H9 H 0.0952 0.2600 0.1497
C8 C 0.134(2) 0.1798(7) 0.1641(17)
H10 H 0.0559 0.1706 0.0832
C9 C 0.131(2) 0.1374(6) 0.2851(15)
H11 H 0.0242 0.1359 0.3211
H12 H 0.1557 0.1025 0.2459
C10 C 0.305(2) 0.1820(8) 0.1116(18)
H13 H 0.3326 0.1474 0.0730
H14 H 0.3080 0.2081 0.0340
C11 C 0.1737(18) 0.3019(6) 0.4175(15)
H15 H 0.0627 0.3003 0.4447
H16 H 0.2429 0.3069 0.5059
C12 C 0.191(2) 0.3490(7) 0.3203(16)
C13 C 0.2477(17) 0.1119(6) 0.5357(15)
H17 H 0.3046 0.1277 0.6210
H18 H 0.1358 0.1066 0.5573
C14 C 0.3205(19) 0.0599(6) 0.5065(14)
C15 C 0.5697(19) 0.5029(7) 0.2425(16)
H19 H 0.5415 0.5335 0.1893
C16 C 0.746(2) 0.4564(7) 0.4100(19)
H20 H 0.6708 0.4281 0.3859
H21 H 0.7445 0.4650 0.5115
H22 H 0.8534 0.4450 0.3899
C17 C 0.8060(19) 0.5495(7) 0.3305(17)
H23 H 0.7660 0.5755 0.2602
H24 H 0.9136 0.5390 0.3101
H25 H 0.8078 0.5646 0.4264
U1A U 0.28526(7) -0.05995(2) 0.34538(6)
U1C U 0.71474(7) 0.05995(2) 0.65462(6)
O5C O -0.0318(14) 0.4450(5) 0.0336(14)
O6A O 0.2628(13) 0.5230(4) 0.0440(11)
loop_
_geom_bond_atom_site_label_1
_geom_bond_atom_site_label_2
_geom_bond_site_symmetry_1
_geom_bond_site_symmetry_2
U1 O1 1_555 1_555
O2 U1 1_555 1_555
O3 U1 1_555 1_555
O4 U1 1_555 1_555
O5 C14 1_555 1_555
O6 C14 1_555 1_555
O7 U1 1_555 1_555
N1 C15 1_555 1_555
C1 C2 1_555 1_555
C2 H1 1_555 1_555
H2 C2 1_555 1_555
C3 C2 1_555 1_555
C4 C3 1_555 1_555
H3 C4 1_555 1_555
H4 C4 1_555 1_555
C5 C4 1_555 1_555
H5 C5 1_555 1_555
C6 C1 1_555 1_555
H6 C6 1_555 1_555
H7 C6 1_555 1_555
C7 C1 1_555 1_555
H8 C7 1_555 1_555
H9 C7 1_555 1_555
C8 C7 1_555 1_555
H10 C8 1_555 1_555
C9 C3 1_555 1_555
H11 C9 1_555 1_555
H12 C9 1_555 1_555
C10 C5 1_555 1_555
H13 C10 1_555 1_555
H14 C10 1_555 1_555
C11 C1 1_555 1_555
H15 C11 1_555 1_555
H16 C11 1_555 1_555
C12 O3 1_555 1_555
C13 C3 1_555 1_555
H17 C13 1_555 1_555
H18 C13 1_555 1_555
C14 C13 1_555 1_555
C15 O7 1_555 1_555
H19 C15 1_555 1_555
C16 N1 1_555 1_555
H20 C16 1_555 1_555
H21 C16 1_555 1_555
H22 C16 1_555 1_555
C17 N1 1_555 1_555
H23 C17 1_555 1_555
H24 C17 1_555 1_555
H25 C17 1_555 1_555
U1A O6 1_555 1_555
U1C O5 1_555 1_555
O5C U1 1_555 1_555
O6A U1 1_555 1_555
O4 C12 1_555 1_555
C5 C6 1_555 1_555
C8 C9 1_555 1_555
C8 C10 1_555 1_555
C11 C12 1_555 1_555

#END
