
#######################################################################
#
#                 Cambridge Crystallographic Data Centre
#                                CCDC 
#
#######################################################################
#
# If this CIF has been generated from an entry in the Cambridge 
# Structural Database, then it will include bibliographic, chemical, 
# crystal, experimental, refinement or atomic coordinate data resulting 
# from the CCDC's data processing and validation procedures.
#
#######################################################################

data_IHOPIE
_symmetry_cell_setting           triclinic
_symmetry_space_group_name_H-M   'P -1'
_symmetry_Int_Tables_number      2
_space_group_name_Hall           '-P 1'
loop_
_symmetry_equiv_pos_site_id
_symmetry_equiv_pos_as_xyz
1 x,y,z
2 -x,-y,-z
_cell_length_a                   7.7439(4)
_cell_length_b                   9.3388(5)
_cell_length_c                   10.1779(5)
_cell_angle_alpha                86.014(2)
_cell_angle_beta                 88.505(2)
_cell_angle_gamma                73.623(2)
_cell_volume                     704.465
loop_
_atom_site_label
_atom_site_type_symbol
_atom_site_fract_x
_atom_site_fract_y
_atom_site_fract_z
Cu1 Cu 0.0000 0.0000 0.5000
Cu2 Cu 0.33652(3) 0.27891(3) 0.08026(2)
N1 N 0.3715(2) 0.10300(19) 0.22328(16)
C1 C 0.5197(3) -0.1395(3) 0.3159(3)
H1 H 0.6198 -0.2228 0.3203
N2 N 0.5758(2) 0.1823(2) 0.00534(18)
C2 C 0.5160(3) -0.0168(2) 0.2309(2)
H2 H 0.6158 -0.0174 0.1778
N3 N 0.3184(3) 0.4439(2) -0.0544(2)
N4 N 0.0131(3) 0.1917(2) 0.5623(2)
N5 N 0.2273(2) -0.01344(19) 0.38829(17)
C3 C 0.2331(3) 0.0987(2) 0.3032(2)
H3 H 0.1325 0.1816 0.2985
N6 N 0.8559(3) 0.1804(3) -0.1094(2)
C4 C 0.7121(3) 0.1830(2) -0.0423(2)
C5 C 0.0151(3) 0.2964(2) 0.6131(2)
C6 C 0.3711(3) -0.1348(3) 0.3939(2)
H4 H 0.3698 -0.2165 0.4512
C7 C 0.3343(3) 0.5242(3) -0.1406(2)
N7 N 0.3710(4) 0.6048(3) -0.2410(3)
C8 C -0.0773(3) 0.4990(2) 0.7371(2)
N8 N 0.0422(3) 0.4107(3) 0.6650(3)
N9 N -0.1692(3) 0.5861(2) 0.8006(2)
C9 C 0.2647(3) 0.7355(3) -0.2779(2)
N10 N 0.1860(3) -0.1483(3) 0.6797(2)
C10 C 1.0035(3) 0.1868(2) -0.0542(2)
N11 N 1.1401(3) 0.1913(2) -0.0160(2)
N4A N -0.0131(3) -0.1917(2) 0.4377(2)
N5A N -0.2273(2) 0.01344(19) 0.61171(17)
N10A N -0.1860(3) 0.1483(3) 0.3203(2)
N9A N 0.1692(3) 0.4139(2) 0.1994(2)
N10_2 N 0.1860(3) 0.8517(3) -0.3203(2)
C9_2 C 0.2647(3) -0.2645(3) 0.7221(2)
N11_2 N 0.1401(3) 0.1913(2) -0.0160(2)
C5A C -0.0151(3) -0.2964(2) 0.3869(2)
C3A C -0.2331(3) -0.0987(2) 0.6968(2)
C6A C -0.3711(3) 0.1348(3) 0.6061(2)
C9A C -0.2647(3) 0.2645(3) 0.2779(2)
Cu2A Cu -0.33652(3) 0.72109(3) 0.91974(2)
Cu1_2 Cu 0.0000 1.0000 -0.5000
N7_2 N 0.3710(4) -0.3952(3) 0.7590(3)
Cu2_2 Cu 1.33652(3) 0.27891(3) 0.08026(2)
N8A N -0.0422(3) -0.4107(3) 0.3350(3)
N1A N -0.3715(2) -0.10300(19) 0.77672(16)
H3A H -0.1325 -0.1816 0.7015
C1A C -0.5197(3) 0.1395(3) 0.6841(3)
H4A H -0.3698 0.2165 0.5488
N7A N -0.3710(4) 0.3952(3) 0.2410(3)
C7_2 C 0.3343(3) -0.4758(3) 0.8594(2)
C8A C 0.0773(3) -0.4990(2) 0.2629(2)
Cu2A_2 Cu -0.33652(3) -0.27891(3) 0.91974(2)
C2A C -0.5160(3) 0.0168(2) 0.7691(2)
H1A H -0.6198 0.2228 0.6797
C7A C -0.3343(3) 0.4758(3) 0.1406(2)
N3_2 N 0.3184(3) -0.5561(2) 0.9456(2)
N9A_2 N 0.1692(3) -0.5861(2) 0.1994(2)
N2A N -0.5758(2) -0.1823(2) 0.99466(18)
N3A N -0.3184(3) -0.4439(2) 1.0544(2)
N9_2 N -0.1692(3) -0.4139(2) 0.8006(2)
N11A N -0.1401(3) -0.1913(2) 1.0160(2)
H2A H -0.6158 0.0174 0.8222
N3A_2 N -0.3184(3) 0.5561(2) 0.0544(2)
Cu2_3 Cu 0.33652(3) -0.72109(3) 1.08026(2)
Cu2_4 Cu 0.33652(3) -0.72109(3) 0.08026(2)
Cu2A_3 Cu -0.33652(3) 0.72109(3) -0.08026(2)
O1 O 0.6138(12) -0.4623(10) 0.5225(9)
loop_
_geom_bond_atom_site_label_1
_geom_bond_atom_site_label_2
_geom_bond_site_symmetry_1
_geom_bond_site_symmetry_2
Cu1 N4 1_555 1_555
Cu2 N1 1_555 1_555
N1 C2 1_555 1_555
C1 H1 1_555 1_555
N2 Cu2 1_555 1_555
C2 C1 1_555 1_555
H2 C2 1_555 1_555
N3 Cu2 1_555 1_555
N4 C5 1_555 1_555
N5 Cu1 1_555 1_555
C3 N1 1_555 1_555
H3 C3 1_555 1_555
N6 C4 1_555 1_555
C4 N2 1_555 1_555
C5 N8 1_555 1_555
C6 C1 1_555 1_555
H4 C6 1_555 1_555
C7 N3 1_555 1_555
N7 C7 1_555 1_555
C8 N8 1_555 1_555
N9 C8 1_555 1_555
C9 N7 1_555 1_555
N10 Cu1 1_555 1_555
C10 N6 1_555 1_555
N11 C10 1_555 1_555
N4A Cu1 1_555 1_555
N5A Cu1 1_555 1_555
N10A Cu1 1_555 1_555
N9A Cu2 1_555 1_555
N10_2 C9 1_555 1_555
C9_2 N10 1_555 1_555
N11_2 Cu2 1_555 1_555
C5A N4A 1_555 1_555
C3A N5A 1_555 1_555
C6A N5A 1_555 1_555
C9A N10A 1_555 1_555
Cu2A N9 1_555 1_555
Cu1_2 N10_2 1_555 1_555
N7_2 C9_2 1_555 1_555
Cu2_2 N11 1_555 1_555
N8A C5A 1_555 1_555
N1A C3A 1_555 1_555
H3A C3A 1_555 1_555
C1A C6A 1_555 1_555
H4A C6A 1_555 1_555
N7A C9A 1_555 1_555
C7_2 N7_2 1_555 1_555
C8A N8A 1_555 1_555
Cu2A_2 N1A 1_555 1_555
C2A N1A 1_555 1_555
H1A C1A 1_555 1_555
C7A N7A 1_555 1_555
N3_2 C7_2 1_555 1_555
N9A_2 C8A 1_555 1_555
N2A Cu2A_2 1_555 1_555
N3A Cu2A_2 1_555 1_555
N9_2 Cu2A_2 1_555 1_555
N11A Cu2A_2 1_555 1_555
H2A C2A 1_555 1_555
N3A_2 C7A 1_555 1_555
Cu2_3 N3_2 1_555 1_555
Cu2_4 N9A_2 1_555 1_555
Cu2A_3 N3A_2 1_555 1_555
N5 C3 1_555 1_555
N5 C6 1_555 1_555
C1A C2A 1_555 1_555

#END
