
#######################################################################
#
#                 Cambridge Crystallographic Data Centre
#                                CCDC 
#
#######################################################################
#
# If this CIF has been generated from an entry in the Cambridge 
# Structural Database, then it will include bibliographic, chemical, 
# crystal, experimental, refinement or atomic coordinate data resulting 
# from the CCDC's data processing and validation procedures.
#
#######################################################################

data_IHOSOO
_symmetry_cell_setting           orthorhombic
_symmetry_space_group_name_H-M   'P 21 21 21'
_symmetry_Int_Tables_number      19
_space_group_name_Hall           'P 2ac 2ab'
loop_
_symmetry_equiv_pos_site_id
_symmetry_equiv_pos_as_xyz
1 x,y,z
2 1/2-x,-y,1/2+z
3 1/2+x,1/2-y,-z
4 -x,1/2+y,1/2-z
_cell_length_a                   7.8630(4)
_cell_length_b                   11.0034(7)
_cell_length_c                   14.3323(7)
_cell_angle_alpha                90
_cell_angle_beta                 90
_cell_angle_gamma                90
_cell_volume                     1240.03
loop_
_atom_site_label
_atom_site_type_symbol
_atom_site_fract_x
_atom_site_fract_y
_atom_site_fract_z
C1 C -0.0887(3) -0.9870(2) 0.12331(15)
C2 C -0.1024(4) -0.9877(2) 0.21919(16)
H1 H -0.1657 -0.9288 0.2502
C3 C -0.0194(4) -1.0785(2) 0.26788(15)
H2 H -0.0274 -1.0810 0.3326
C4 C 0.0753(4) -1.1653(2) 0.22174(16)
H3 H 0.1343 -1.2247 0.2546
C5 C 0.0802(3) -1.16165(19) 0.12599(14)
C6 C 0.1808(3) -1.24327(19) 0.06089(16)
C7 C -0.1542(3) -0.89152(18) 0.05621(17)
C8 C 0.4960(3) -1.0427(2) 0.26651(15)
H4 H 0.5473 -1.1064 0.2985
C9 C 0.4860(3) -1.0480(2) 0.17014(15)
H5 H 0.5310 -1.1143 0.1384
C10 C 0.4104(3) -0.9560(2) 0.12187(14)
C11 C 0.3388(4) -0.8622(2) 0.17219(17)
H6 H 0.2809 -0.8000 0.1418
C12 C 0.3539(4) -0.8615(2) 0.26763(17)
H7 H 0.3064 -0.7975 0.3010
C13 C 0.4107(4) -0.9543(3) 0.01637(15)
H8 H 0.4956 -0.8969 -0.0052
H9 H 0.4423 -1.0342 -0.0065
Cu1 Cu 0.02225(3) -1.06462(2) -0.051390(16)
N1 N -0.0025(2) -1.07428(14) 0.08035(11)
N2 N 0.4345(2) -0.94953(17) 0.31449(12)
O1 O -0.1270(2) -0.91275(14) -0.02968(10)
O2 O 0.1690(3) -1.21521(15) -0.02562(11)
O3 O 0.2646(3) -1.32620(16) 0.09430(12)
O4 O -0.2259(2) -0.80180(16) 0.08925(12)
O5 O 0.2516(2) -0.92219(18) -0.02103(12)
H10 H 0.256(4) -0.8522(17) -0.039(2)
Cu1A Cu 0.47775(3) -0.93538(2) 0.448610(16)
Cu1B Cu 0.52225(3) -1.43538(2) 0.051390(16)
N2A N 0.0655(2) -1.05047(17) -0.18551(12)
O3B O -0.2354(3) -1.17380(16) -0.09430(12)
loop_
_geom_bond_atom_site_label_1
_geom_bond_atom_site_label_2
_geom_bond_site_symmetry_1
_geom_bond_site_symmetry_2
C1 C2 1_555 1_555
C2 H1 1_555 1_555
C3 C2 1_555 1_555
H2 C3 1_555 1_555
C4 C3 1_555 1_555
H3 C4 1_555 1_555
C5 C4 1_555 1_555
C6 C5 1_555 1_555
C7 C1 1_555 1_555
C8 H4 1_555 1_555
C9 C8 1_555 1_555
H5 C9 1_555 1_555
C10 C9 1_555 1_555
C11 C10 1_555 1_555
H6 C11 1_555 1_555
C12 C11 1_555 1_555
H7 C12 1_555 1_555
C13 C10 1_555 1_555
H8 C13 1_555 1_555
H9 C13 1_555 1_555
Cu1 N1 1_555 1_555
N1 C1 1_555 1_555
N2 C8 1_555 1_555
O1 C7 1_555 1_555
O2 C6 1_555 1_555
O3 C6 1_555 1_555
O4 C7 1_555 1_555
O5 C13 1_555 1_555
H10 O5 1_555 1_555
Cu1A N2 1_555 1_555
Cu1B O3 1_555 1_555
N2A Cu1 1_555 1_555
O3B Cu1 1_555 1_555
C5 N1 1_555 1_555
C12 N2 1_555 1_555
Cu1 O1 1_555 1_555
Cu1 O2 1_555 1_555
Cu1 O5 1_555 1_555

#END
