
#######################################################################
#
#                 Cambridge Crystallographic Data Centre
#                                CCDC 
#
#######################################################################
#
# If this CIF has been generated from an entry in the Cambridge 
# Structural Database, then it will include bibliographic, chemical, 
# crystal, experimental, refinement or atomic coordinate data resulting 
# from the CCDC's data processing and validation procedures.
#
#######################################################################

data_IHOSUV
_symmetry_cell_setting           tetragonal
_symmetry_space_group_name_H-M   'I 41/a'
_symmetry_Int_Tables_number      88
_space_group_name_Hall           '-I 4ad'
loop_
_symmetry_equiv_pos_site_id
_symmetry_equiv_pos_as_xyz
1 x,y,z
2 1/2-x,-y,1/2+z
3 3/4-y,1/4+x,1/4+z
4 3/4+y,3/4-x,3/4+z
5 1/2+x,1/2+y,1/2+z
6 -x,1/2-y,z
7 1/4-y,3/4+x,3/4+z
8 1/4+y,1/4-x,1/4+z
9 -x,-y,-z
10 1/2+x,y,1/2-z
11 1/4+y,3/4-x,3/4-z
12 1/4-y,1/4+x,1/4-z
13 1/2-x,1/2-y,1/2-z
14 x,1/2+y,-z
15 3/4+y,1/4-x,1/4-z
16 3/4-y,3/4+x,3/4-z
_cell_length_a                   23.1520(10)
_cell_length_b                   23.1520(10)
_cell_length_c                   12.5491(7)
_cell_angle_alpha                90
_cell_angle_beta                 90
_cell_angle_gamma                90
_cell_volume                     6726.51
loop_
_atom_site_label
_atom_site_type_symbol
_atom_site_fract_x
_atom_site_fract_y
_atom_site_fract_z
Mg1 Mg 0.13259(2) 0.45907(2) 0.50171(4)
Mg2 Mg 0.0000 0.5000 0.5000
Mg3 Mg 0.23020(2) 0.54538(2) 0.45249(4)
O1 O -0.15298(5) 0.42571(5) 0.64186(10)
O2 O -0.07978(5) 0.47575(5) 0.57513(10)
O3 O 0.20409(5) 0.46188(5) 0.39914(10)
O4 O 0.26945(6) 0.44532(5) 0.27276(11)
O5 O 0.09290(6) 0.39610(5) 0.42085(11)
O6 O 0.00034(5) 0.42243(6) 0.41811(11)
O7 O 0.06180(5) 0.46904(5) 0.60969(10)
O8 O 0.11868(5) 0.48128(6) 0.75236(10)
O9 O 0.17835(5) 0.52184(5) 0.57118(9)
H1 H 0.1614(13) 0.5495(13) 0.585(2)
C1 C -0.10057(7) 0.43041(7) 0.61755(13)
C2 C -0.06123(8) 0.37964(9) 0.63793(18)
H2 H -0.0648 0.3676 0.7125
H3 H -0.0212 0.3908 0.6233
H4 H -0.0722 0.3475 0.5912
C3 C 0.23223(8) 0.42869(8) 0.33677(15)
C4 C 0.22061(12) 0.36480(9) 0.3432(3)
H5 H 0.2335 0.3461 0.2773
H6 H 0.1791 0.3583 0.3527
H7 H 0.2416 0.3484 0.4039
C5 C 0.04088(8) 0.38713(8) 0.40015(16)
C6 C 0.02586(10) 0.32934(10) 0.3509(2)
H8 H 0.0132 0.3351 0.2772
H9 H -0.0053 0.3112 0.3919
H10 H 0.0600 0.3043 0.3518
C7 C 0.07045(8) 0.47899(8) 0.70944(14)
C8 C 0.01829(8) 0.48724(11) 0.78014(16)
H11 H 0.0064 0.4499 0.8095
H12 H -0.0135 0.5036 0.7382
H13 H 0.0281 0.5136 0.8385
Mg1H Mg -0.13259(2) 0.54093(2) 0.49829(4)
Mg3H Mg -0.23020(2) 0.45462(2) 0.54751(4)
O1H O 0.15298(5) 0.57429(5) 0.35814(10)
O2H O 0.07978(5) 0.52425(5) 0.42487(10)
O3H O -0.20409(5) 0.53812(5) 0.60086(10)
O4H O -0.26945(6) 0.55468(5) 0.72724(11)
O5H O -0.09290(6) 0.60390(5) 0.57915(11)
O6H O -0.00034(5) 0.57757(6) 0.58189(11)
O7H O -0.06180(5) 0.53096(5) 0.39031(10)
O8H O -0.11868(5) 0.51872(6) 0.24764(10)
O9H O -0.17835(5) 0.47816(5) 0.42882(9)
H1H H -0.1614(13) 0.4505(13) 0.415(2)
C1H C 0.10057(7) 0.56959(7) 0.38245(13)
C2H C 0.06123(8) 0.62036(9) 0.36207(18)
H2H H 0.0648 0.6324 0.2875
H3H H 0.0212 0.6092 0.3767
H4H H 0.0722 0.6525 0.4088
C3H C -0.23223(8) 0.57131(8) 0.66323(15)
C4H C -0.22061(12) 0.63520(9) 0.6568(3)
H5H H -0.2335 0.6539 0.7227
H6H H -0.1791 0.6417 0.6473
H7H H -0.2416 0.6516 0.5961
C5H C -0.04088(8) 0.61287(8) 0.59985(16)
C6H C -0.02586(10) 0.67066(10) 0.6491(2)
H8H H -0.0132 0.6649 0.7228
H9H H 0.0053 0.6888 0.6081
H10H H -0.0600 0.6957 0.6482
C7H C -0.07045(8) 0.52101(8) 0.29056(14)
C8H C -0.01829(8) 0.51276(11) 0.21986(16)
H11H H -0.0064 0.5501 0.1905
H12H H 0.0135 0.4964 0.2618
H13H H -0.0281 0.4864 0.1615
Mg1C Mg 0.20907(2) 0.61741(2) 0.25171(4)
Mg1K Mg -0.20907(2) 0.38259(2) 0.74829(4)
Mg3B Mg 0.20462(2) 0.48020(2) 0.70249(4)
Mg3C Mg 0.29538(2) 0.51980(2) 0.20249(4)
Mg3J Mg -0.20462(2) 0.51980(2) 0.29751(4)
Mg3K Mg -0.29538(2) 0.48020(2) 0.79751(4)
O1F O -0.17571(5) 0.59702(5) 0.39186(10)
O1N O 0.17571(5) 0.40298(5) 0.60814(10)
O4B O 0.30468(5) 0.51945(6) 0.52276(11)
O4J O -0.30468(5) 0.48055(6) 0.47724(11)
O8C O 0.23128(6) 0.63132(5) 0.50236(10)
O8K O -0.23128(6) 0.36868(5) 0.49764(10)
O9C O 0.27184(5) 0.57165(5) 0.32118(9)
O9K O -0.27184(5) 0.42835(5) 0.67882(9)
O10 O 0.11045(7) 0.61780(8) 0.62399(16)
H14 H 0.064(2) 0.6125(18) 0.623(3)
C9 C 0.12617(12) 0.65444(12) 0.7092(2)
H15 H 0.1073 0.6924 0.6993
H16 H 0.1685 0.6607 0.7073
C10 C 0.10976(15) 0.63080(17) 0.8171(3)
H17 H 0.0677 0.6271 0.8216
H18 H 0.1234 0.6571 0.8728
H19 H 0.1276 0.5928 0.8270
loop_
_geom_bond_atom_site_label_1
_geom_bond_atom_site_label_2
_geom_bond_site_symmetry_1
_geom_bond_site_symmetry_2
Mg1 O3 1_555 1_555
Mg2 O2 1_555 1_555
Mg3 O3 1_555 1_555
O1 C1 1_555 1_555
O2 C1 1_555 1_555
O3 C3 1_555 1_555
O4 C3 1_555 1_555
O5 Mg1 1_555 1_555
O6 Mg2 1_555 1_555
O7 Mg1 1_555 1_555
O8 C7 1_555 1_555
O9 Mg1 1_555 1_555
H1 O9 1_555 1_555
C1 C2 1_555 1_555
C2 H2 1_555 1_555
H3 C2 1_555 1_555
H4 C2 1_555 1_555
C3 C4 1_555 1_555
C4 H5 1_555 1_555
H6 C4 1_555 1_555
H7 C4 1_555 1_555
C5 O5 1_555 1_555
C6 C5 1_555 1_555
H8 C6 1_555 1_555
H9 C6 1_555 1_555
H10 C6 1_555 1_555
C7 O7 1_555 1_555
C8 C7 1_555 1_555
H11 C8 1_555 1_555
H12 C8 1_555 1_555
H13 C8 1_555 1_555
O10 H14 1_555 1_555
C9 O10 1_555 1_555
H15 C9 1_555 1_555
H16 C9 1_555 1_555
C10 C9 1_555 1_555
H17 C10 1_555 1_555
H18 C10 1_555 1_555
H19 C10 1_555 1_555
Mg1H O2 1_555 1_555
Mg3H O1 1_555 1_555
O1H Mg3 1_555 1_555
O2H Mg1 1_555 1_555
O3H Mg1H 1_555 1_555
O4H C3H 1_555 1_555
O5H Mg1H 1_555 1_555
O6H Mg2 1_555 1_555
O7H Mg2 1_555 1_555
O8H C7H 1_555 1_555
O9H Mg1H 1_555 1_555
H1H O9H 1_555 1_555
C1H O1H 1_555 1_555
C2H C1H 1_555 1_555
H2H C2H 1_555 1_555
H3H C2H 1_555 1_555
H4H C2H 1_555 1_555
C3H O3H 1_555 1_555
C4H C3H 1_555 1_555
H5H C4H 1_555 1_555
H6H C4H 1_555 1_555
H7H C4H 1_555 1_555
C5H O5H 1_555 1_555
C6H C5H 1_555 1_555
H8H C6H 1_555 1_555
H9H C6H 1_555 1_555
H10H C6H 1_555 1_555
C7H O7H 1_555 1_555
C8H C7H 1_555 1_555
H11H C8H 1_555 1_555
H12H C8H 1_555 1_555
H13H C8H 1_555 1_555
Mg1C O1H 1_555 1_555
Mg1K O1 1_555 1_555
Mg3B O8 1_555 1_555
Mg3C O4 1_555 1_555
Mg3J O8H 1_555 1_555
Mg3K O4H 1_555 1_555
O1F Mg1H 1_555 1_555
O1N Mg1 1_555 1_555
O4B Mg3 1_555 1_555
O4J Mg3H 1_555 1_555
O8C Mg3 1_555 1_555
O8K Mg3H 1_555 1_555
O9C Mg3 1_555 1_555
O9K Mg3H 1_555 1_555
Mg2 O7 1_555 1_555
Mg2 O2H 1_555 1_555
Mg3 O9 1_555 1_555
O6 C5 1_555 1_555
O9 Mg3B 1_555 1_555
Mg1H O7H 1_555 1_555
Mg3H O3H 1_555 1_555
Mg3H O9H 1_555 1_555
O2H C1H 1_555 1_555
O6H C5H 1_555 1_555
O9H Mg3J 1_555 1_555
Mg1C O9C 1_555 1_555
Mg1K O9K 1_555 1_555
Mg3B O1N 1_555 1_555
Mg3C O9C 1_555 1_555
Mg3J O1F 1_555 1_555
Mg3K O9K 1_555 1_555

#END
