
#######################################################################
#
#                 Cambridge Crystallographic Data Centre
#                                CCDC 
#
#######################################################################
#
# If this CIF has been generated from an entry in the Cambridge 
# Structural Database, then it will include bibliographic, chemical, 
# crystal, experimental, refinement or atomic coordinate data resulting 
# from the CCDC's data processing and validation procedures.
#
#######################################################################

data_IHOTUV
_symmetry_cell_setting           triclinic
_symmetry_space_group_name_H-M   'P -1'
_symmetry_Int_Tables_number      2
_space_group_name_Hall           '-P 1'
loop_
_symmetry_equiv_pos_site_id
_symmetry_equiv_pos_as_xyz
1 x,y,z
2 -x,-y,-z
_cell_length_a                   9.1356(3)
_cell_length_b                   11.4262(3)
_cell_length_c                   12.1770(3)
_cell_angle_alpha                92.244(2)
_cell_angle_beta                 110.609(2)
_cell_angle_gamma                100.812(2)
_cell_volume                     1160.96
loop_
_atom_site_label
_atom_site_type_symbol
_atom_site_fract_x
_atom_site_fract_y
_atom_site_fract_z
Co1 Co 0.35741(5) 0.33988(3) 0.52477(3)
N1 N 0.3962(3) 0.2124(2) 0.4077(2)
N2 N 0.6700(3) 0.5234(2) 0.3589(2)
O1 O 0.5962(2) 0.37198(18) 0.61876(19)
O2 O 0.7000(3) 0.56205(18) 0.61062(19)
O3 O 1.3067(3) 0.20086(19) 0.6318(2)
O4 O 1.1095(3) 0.25247(19) 0.49326(19)
C1 C 0.9111(3) 0.3497(2) 0.7937(2)
C2 C 0.9448(3) 0.2916(2) 0.6920(2)
H1 H 1.0204 0.3492 0.6711
H2 H 0.8463 0.2693 0.6234
C3 C 1.0136(3) 0.1795(2) 0.7261(3)
C4 C 1.1698(3) 0.2161(3) 0.8352(3)
H3 H 1.2136 0.1459 0.8583
H4 H 1.2480 0.2727 0.8158
C5 C 1.1379(4) 0.2728(3) 0.9369(3)
H5 H 1.2385 0.2970 1.0050
C6 C 1.0684(3) 0.3827(3) 0.9003(3)
H6 H 1.1450 0.4409 0.8810
H7 H 1.0497 0.4194 0.9660
C7 C 0.7934(4) 0.2585(3) 0.8284(3)
H8 H 0.7736 0.2948 0.8937
H9 H 0.6923 0.2351 0.7622
C8 C 0.8622(4) 0.1478(3) 0.8642(3)
H10 H 0.7852 0.0895 0.8846
C9 C 0.8939(4) 0.0915(2) 0.7612(3)
H11 H 0.7941 0.0673 0.6940
H12 H 0.9358 0.0204 0.7834
C10 C 1.0192(4) 0.1825(3) 0.9704(3)
H13 H 1.0620 0.1118 0.9931
H14 H 1.0009 0.2177 1.0369
C11 C 0.8529(3) 0.4666(2) 0.7619(3)
H15 H 0.9091 0.5384 0.8091
C12 C 0.7052(3) 0.4648(2) 0.6547(2)
C13 C 1.0402(4) 0.1174(3) 0.6221(3)
H16 H 1.0772 0.0448 0.6460
H17 H 0.9383 0.0939 0.5567
C14 C 1.1589(4) 0.1935(2) 0.5795(3)
C15 C 0.3364(4) 0.2113(3) 0.2915(3)
H18 H 0.2542 0.2515 0.2590
C16 C 0.3898(4) 0.1534(3) 0.2160(3)
H19 H 0.3433 0.1549 0.1349
C17 C 0.5084(4) 0.1488(2) 0.4509(3)
H20 H 0.5483 0.1451 0.5320
C18 C 0.5676(4) 0.0887(3) 0.3825(3)
H21 H 0.6447 0.0449 0.4171
C19 C 0.5125(4) 0.0933(3) 0.2613(3)
C20 C 0.5859(4) 0.0405(3) 0.1841(3)
H22 H 0.5086 0.0238 0.1038
H23 H 0.6099 -0.0352 0.2105
C21 C 0.7397(5) 0.1224(3) 0.1846(4)
H24 H 0.8165 0.1387 0.2651
H25 H 0.7849 0.0795 0.1386
C22 C 0.7192(5) 0.2415(3) 0.1359(3)
H26 H 0.7163 0.2536 0.0602
C23 C 0.7037(4) 0.3394(3) 0.2160(3)
C24 C 0.5963(4) 0.4128(3) 0.1702(3)
H27 H 0.5334 0.4021 0.0902
C25 C 0.5836(4) 0.5020(3) 0.2445(3)
H28 H 0.5103 0.5494 0.2122
C26 C 0.7953(4) 0.3643(3) 0.3351(3)
H29 H 0.8701 0.3187 0.3700
C27 C 0.7768(4) 0.4552(3) 0.4021(3)
H30 H 0.8417 0.4705 0.4817
Co1A Co 0.64259(5) 0.66012(3) 0.47523(3)
Co1_2 Co 1.35741(5) 0.33988(3) 0.52477(3)
N2A N 0.3300(3) 0.4766(2) 0.6411(2)
O2A O 0.3000(3) 0.43795(18) 0.38938(19)
O3_2 O 0.3067(3) 0.20086(19) 0.6318(2)
O4_2 O 0.1095(3) 0.25247(19) 0.49326(19)
loop_
_geom_bond_atom_site_label_1
_geom_bond_atom_site_label_2
_geom_bond_site_symmetry_1
_geom_bond_site_symmetry_2
Co1 N1 1_555 1_555
N1 C15 1_555 1_555
N2 C25 1_555 1_555
O1 Co1 1_555 1_555
O2 C12 1_555 1_555
O3 C14 1_555 1_555
O4 C14 1_555 1_555
C1 C2 1_555 1_555
C2 H1 1_555 1_555
H2 C2 1_555 1_555
C3 C2 1_555 1_555
C4 C3 1_555 1_555
H3 C4 1_555 1_555
H4 C4 1_555 1_555
C5 C4 1_555 1_555
H5 C5 1_555 1_555
C6 C1 1_555 1_555
H6 C6 1_555 1_555
H7 C6 1_555 1_555
C7 C1 1_555 1_555
H8 C7 1_555 1_555
H9 C7 1_555 1_555
C8 C7 1_555 1_555
H10 C8 1_555 1_555
C9 C3 1_555 1_555
H11 C9 1_555 1_555
H12 C9 1_555 1_555
C10 C5 1_555 1_555
H13 C10 1_555 1_555
H14 C10 1_555 1_555
C11 C1 1_555 1_555
H15 C11 1_555 1_555
C12 O1 1_555 1_555
C13 C3 1_555 1_555
H16 C13 1_555 1_555
H17 C13 1_555 1_555
C14 C13 1_555 1_555
C15 H18 1_555 1_555
C16 C15 1_555 1_555
H19 C16 1_555 1_555
C17 N1 1_555 1_555
H20 C17 1_555 1_555
C18 C17 1_555 1_555
H21 C18 1_555 1_555
C19 C16 1_555 1_555
C20 C19 1_555 1_555
H22 C20 1_555 1_555
H23 C20 1_555 1_555
C21 C20 1_555 1_555
H24 C21 1_555 1_555
H25 C21 1_555 1_555
C22 C21 1_555 1_555
H26 C22 1_555 1_555
C23 C22 1_555 1_555
C24 C23 1_555 1_555
H27 C24 1_555 1_555
C25 C24 1_555 1_555
H28 C25 1_555 1_555
C26 C23 1_555 1_555
H29 C26 1_555 1_555
C27 N2 1_555 1_555
H30 C27 1_555 1_555
Co1A N2 1_555 1_555
Co1_2 O3 1_555 1_555
N2A Co1 1_555 1_555
O2A Co1 1_555 1_555
O3_2 Co1 1_555 1_555
O4_2 Co1 1_555 1_555
O2 Co1A 1_555 1_555
O4 Co1_2 1_555 1_555
C5 C6 1_555 1_555
C8 C9 1_555 1_555
C8 C10 1_555 1_555
C11 C12 1_555 1_555
C18 C19 1_555 1_555
C26 C27 1_555 1_555

#END
