
#######################################################################
#
#                 Cambridge Crystallographic Data Centre
#                                CCDC 
#
#######################################################################
#
# If this CIF has been generated from an entry in the Cambridge 
# Structural Database, then it will include bibliographic, chemical, 
# crystal, experimental, refinement or atomic coordinate data resulting 
# from the CCDC's data processing and validation procedures.
#
#######################################################################

data_IHOVAD
_symmetry_cell_setting           monoclinic
_symmetry_space_group_name_H-M   'C 2/c'
_symmetry_Int_Tables_number      15
_space_group_name_Hall           '-C 2yn'
loop_
_symmetry_equiv_pos_site_id
_symmetry_equiv_pos_as_xyz
1 x,y,z
2 -x,y,1/2-z
3 1/2+x,1/2+y,z
4 1/2-x,1/2+y,1/2-z
5 -x,-y,-z
6 x,-y,1/2+z
7 1/2-x,1/2-y,-z
8 1/2+x,1/2-y,1/2+z
_cell_length_a                   35.140(11)
_cell_length_b                   11.676(3)
_cell_length_c                   15.340(4)
_cell_angle_alpha                90
_cell_angle_beta                 114.102(7)
_cell_angle_gamma                90
_cell_volume                     5745.22
loop_
_atom_site_label
_atom_site_type_symbol
_atom_site_fract_x
_atom_site_fract_y
_atom_site_fract_z
Mn1 Mn 0.29186(3) 0.20173(7) 0.44826(7)
O1 O 0.22881(14) 0.2010(4) 0.3526(4)
O2 O 0.18796(15) 0.3002(3) 0.4025(3)
O3 O 0.14035(14) 0.6848(4) 0.0351(4)
O4 O 0.19006(16) 0.6877(4) 0.1790(4)
N1 N 0.28840(15) 1.0064(4) 0.4529(4)
N2 N 0.29329(14) 0.3967(4) 0.4479(4)
C1 C 0.12539(19) 0.3207(6) 0.2021(5)
C2 C 0.14139(17) 0.4439(5) 0.2033(5)
H3 H 0.1584 0.4463 0.1670
H4 H 0.1588 0.4654 0.2686
C3 C 0.1053(2) 0.5317(6) 0.1604(5)
C4 C 0.0795(3) 0.4961(8) 0.0561(7)
H5 H 0.0566 0.5494 0.0266
H6 H 0.0969 0.4986 0.0207
C5 C 0.0624(3) 0.3761(8) 0.0523(8)
H7 H 0.0456 0.3553 -0.0143
C6 C 0.0351(3) 0.3716(9) 0.1090(11)
H8 H 0.0236 0.2953 0.1049
H9 H 0.0122 0.4251 0.0818
C7 C 0.0612(3) 0.4023(9) 0.2143(9)
H10 H 0.0438 0.3997 0.2505
C8 C 0.0978(2) 0.3164(6) 0.2568(7)
H11 H 0.1142 0.3349 0.3234
H12 H 0.0868 0.2396 0.2537
C9 C 0.0782(2) 0.5221(7) 0.2167(8)
H13 H 0.0945 0.5439 0.2826
H14 H 0.0550 0.5753 0.1904
C10 C 0.0978(3) 0.2929(6) 0.0946(6)
H15 H 0.1149 0.2954 0.0585
H16 H 0.0866 0.2160 0.0896
C11 C 0.1605(2) 0.2332(6) 0.2390(5)
H17 H 0.1736 0.2311 0.1943
H18 H 0.1480 0.1587 0.2367
C12 C 0.19524(18) 0.2481(5) 0.3395(4)
C13 C 0.1220(2) 0.6544(6) 0.1684(6)
H19 H 0.0985 0.7055 0.1389
H20 H 0.1353 0.6742 0.2356
C14 C 0.1520(2) 0.6770(5) 0.1254(5)
C15 C 0.3186(2) 0.9473(6) 0.5201(5)
H21 H 0.3396 0.9876 0.5681
C16 C 0.3204(2) 0.8291(6) 0.5221(5)
H22 H 0.3417 0.7919 0.5717
C17 C 0.29037(18) 0.7660(5) 0.4502(4)
C18 C 0.25955(19) 0.8266(5) 0.3804(5)
H23 H 0.2385 0.7885 0.3307
C19 C 0.2599(2) 0.9460(5) 0.3844(5)
H24 H 0.2387 0.9854 0.3360
C20 C 0.29162(18) 0.6376(5) 0.4491(4)
C21 C 0.3199(2) 0.5751(6) 0.5247(6)
H25 H 0.3391 0.6134 0.5775
C22 C 0.3200(2) 0.4570(6) 0.5227(6)
H26 H 0.3393 0.4177 0.5748
C23 C 0.2674(2) 0.4576(5) 0.3752(5)
H27 H 0.2496 0.4177 0.3216
C24 C 0.2646(2) 0.5748(5) 0.3722(5)
H28 H 0.2448 0.6116 0.3193
Mn1C Mn 0.20814(3) 0.70173(7) 0.05174(7)
Mn1_2 Mn 0.29186(3) 1.20173(7) 0.44826(7)
Mn1F Mn 0.20814(3) 0.29827(7) 0.55174(7)
O2F O 0.31204(15) 0.1998(3) 0.5975(3)
O3C O 0.35965(14) 0.1848(4) 0.4649(4)
O4C O 0.30994(16) 0.1877(4) 0.3210(4)
N1_2 N 0.28840(15) 0.0064(4) 0.4529(4)
O5 O 0.0967(4) -0.0700(9) 0.0388(9)
O6 O 0.0673(3) -0.2132(8) -0.0654(6)
C25 C 0.0131(3) 0.0189(10) -0.1617(8)
C26 C 0.0490(4) 0.0921(10) -0.1567(8)
H29 H 0.0707 0.0437 -0.1605
H30 H 0.0604 0.1316 -0.0958
C27 C 0.0356(4) 0.1808(10) -0.2381(10)
H31 H 0.0588 0.2314 -0.2316
C28 C 0.0000 0.244(2) -0.2500
H32 H 0.0069 0.2935 -0.1947
C29 C -0.0246(4) 0.0944(12) -0.1713(9)
H33 H -0.0181 0.1383 -0.1132
H34 H -0.0485 0.0463 -0.1809
C30 C 0.0000 -0.0552(12) -0.2500
H35 H -0.0230 -0.1040 -0.2541
C31 C 0.0239(4) -0.0543(12) -0.0720(10)
H36 H 0.0023 -0.1121 -0.0862
H37 H 0.0221 -0.0054 -0.0226
C32 C 0.0661(4) -0.1157(12) -0.0294(9)
H38 H 0.0923(10) -0.232(7) -0.035(5)
O5A O -0.0967(4) -0.0700(9) -0.5388(9)
O6A O -0.0673(3) -0.2132(8) -0.4346(6)
C25A C -0.0131(3) 0.0189(10) -0.3383(8)
C26A C -0.0490(4) 0.0921(10) -0.3433(8)
H29A H -0.0707 0.0437 -0.3395
H30A H -0.0604 0.1316 -0.4042
C27A C -0.0356(4) 0.1808(10) -0.2619(10)
H31A H -0.0588 0.2314 -0.2684
H32A H -0.0069 0.2935 -0.3053
C29A C 0.0246(4) 0.0944(12) -0.3287(9)
H33A H 0.0181 0.1383 -0.3868
H34A H 0.0485 0.0463 -0.3191
H35A H 0.0230 -0.1040 -0.2459
C31A C -0.0239(4) -0.0543(12) -0.4280(10)
H36A H -0.0023 -0.1121 -0.4138
H37A H -0.0221 -0.0054 -0.4774
C32A C -0.0661(4) -0.1157(12) -0.4706(9)
H38A H -0.0923(10) -0.232(7) -0.465(5)
O7 O 0.1537(5) -0.0720(10) 0.2322(9)
H1 H 0.136(5) -0.123(14) 0.230(13)
H2 H 0.156(6) -0.079(17) 0.180(8)
loop_
_geom_bond_atom_site_label_1
_geom_bond_atom_site_label_2
_geom_bond_site_symmetry_1
_geom_bond_site_symmetry_2
Mn1 O1 1_555 1_555
O1 C12 1_555 1_555
O2 C12 1_555 1_555
O3 C14 1_555 1_555
O4 C14 1_555 1_555
O5 C32 1_555 1_555
O6 C32 1_555 1_555
O7 H1 1_555 1_555
H2 O7 1_555 1_555
N1 C15 1_555 1_555
N2 Mn1 1_555 1_555
C1 C2 1_555 1_555
C2 H3 1_555 1_555
H4 C2 1_555 1_555
C3 C2 1_555 1_555
C4 C3 1_555 1_555
H5 C4 1_555 1_555
H6 C4 1_555 1_555
C5 C4 1_555 1_555
H7 C5 1_555 1_555
C6 C5 1_555 1_555
H8 C6 1_555 1_555
H9 C6 1_555 1_555
C7 C6 1_555 1_555
H10 C7 1_555 1_555
C8 C1 1_555 1_555
H11 C8 1_555 1_555
H12 C8 1_555 1_555
C9 C3 1_555 1_555
H13 C9 1_555 1_555
H14 C9 1_555 1_555
C10 C1 1_555 1_555
H15 C10 1_555 1_555
H16 C10 1_555 1_555
C11 C1 1_555 1_555
H17 C11 1_555 1_555
H18 C11 1_555 1_555
C12 C11 1_555 1_555
C13 C3 1_555 1_555
H19 C13 1_555 1_555
H20 C13 1_555 1_555
C14 C13 1_555 1_555
C15 H21 1_555 1_555
C16 C15 1_555 1_555
H22 C16 1_555 1_555
C17 C16 1_555 1_555
C18 C17 1_555 1_555
H23 C18 1_555 1_555
C19 N1 1_555 1_555
H24 C19 1_555 1_555
C20 C17 1_555 1_555
C21 C20 1_555 1_555
H25 C21 1_555 1_555
C22 N2 1_555 1_555
H26 C22 1_555 1_555
C23 N2 1_555 1_555
H27 C23 1_555 1_555
C24 C20 1_555 1_555
H28 C24 1_555 1_555
C25 C26 1_555 1_555
C26 H29 1_555 1_555
H30 C26 1_555 1_555
C27 C26 1_555 1_555
H31 C27 1_555 1_555
C28 C27 1_555 1_555
H32 C28 1_555 1_555
C29 C25 1_555 1_555
H33 C29 1_555 1_555
H34 C29 1_555 1_555
C30 C25 1_555 1_555
H35 C30 1_555 1_555
C31 C25 1_555 1_555
H36 C31 1_555 1_555
H37 C31 1_555 1_555
C32 C31 1_555 1_555
H38 O6 1_555 1_555
Mn1C O3 1_555 1_555
Mn1_2 N1 1_555 1_555
Mn1F O2 1_555 1_555
O2F Mn1 1_555 1_555
O3C Mn1 1_555 1_555
O4C Mn1 1_555 1_555
O5A C32A 1_555 1_555
O6A C32A 1_555 1_555
N1_2 Mn1 1_555 1_555
C25A C30 1_555 1_555
C26A C25A 1_555 1_555
H29A C26A 1_555 1_555
H30A C26A 1_555 1_555
C27A C28 1_555 1_555
H31A C27A 1_555 1_555
H32A C28 1_555 1_555
C29A C27 1_555 1_555
H33A C29A 1_555 1_555
H34A C29A 1_555 1_555
H35A C30 1_555 1_555
C31A C25A 1_555 1_555
H36A C31A 1_555 1_555
H37A C31A 1_555 1_555
C32A C31A 1_555 1_555
H38A O6A 1_555 1_555
O4 Mn1C 1_555 1_555
C5 C10 1_555 1_555
C7 C8 1_555 1_555
C7 C9 1_555 1_555
C18 C19 1_555 1_555
C21 C22 1_555 1_555
C23 C24 1_555 1_555
C29 C27A 1_555 1_555
C25A C29A 1_555 1_555
C26A C27A 1_555 1_555

#END
