
#######################################################################
#
#                 Cambridge Crystallographic Data Centre
#                                CCDC 
#
#######################################################################
#
# If this CIF has been generated from an entry in the Cambridge 
# Structural Database, then it will include bibliographic, chemical, 
# crystal, experimental, refinement or atomic coordinate data resulting 
# from the CCDC's data processing and validation procedures.
#
#######################################################################

data_IHOZOV
_symmetry_cell_setting           triclinic
_symmetry_space_group_name_H-M   'P -1'
_symmetry_Int_Tables_number      2
_space_group_name_Hall           '-P 1'
loop_
_symmetry_equiv_pos_site_id
_symmetry_equiv_pos_as_xyz
1 x,y,z
2 -x,-y,-z
_cell_length_a                   9.757(2)
_cell_length_b                   10.620(2)
_cell_length_c                   12.297(3)
_cell_angle_alpha                87.17(3)
_cell_angle_beta                 77.24(3)
_cell_angle_gamma                69.65(3)
_cell_volume                     1164.65
loop_
_atom_site_label
_atom_site_type_symbol
_atom_site_fract_x
_atom_site_fract_y
_atom_site_fract_z
Cu1 Cu 0.56141(6) 0.09705(5) 0.13005(4)
S1 S 0.71000(13) -0.12103(11) 0.01225(9)
S2 S 0.00160(14) 0.21727(14) 0.55521(10)
S3 S -0.09602(19) 0.45592(14) 0.41066(12)
S4 S -0.15206(14) 0.55506(13) 0.18689(11)
O1 O 0.6583(4) -0.1682(3) -0.0747(3)
O2 O 0.8546(4) -0.2142(3) 0.0246(3)
O3 O 0.7136(3) 0.0182(3) -0.0094(3)
O4 O 0.5977(4) -0.0992(3) 0.1209(3)
N1 N 0.4515(4) 0.1197(4) 0.2884(3)
N2 N 0.2881(4) 0.0949(4) 0.4367(3)
N3 N -0.0293(5) 0.2159(4) 0.3424(4)
N4 N -0.0676(5) 0.2962(4) 0.2530(3)
N5 N -0.2923(4) 0.4199(3) 0.0931(3)
N6 N -0.4082(4) 0.2704(3) 0.1207(3)
C1 C 0.3393(5) 0.0777(4) 0.3249(4)
H2 H 0.2989 0.0399 0.2791
C2 C 0.4765(5) 0.1700(4) 0.3826(4)
C3 C 0.5806(5) 0.2283(5) 0.3924(4)
H3 H 0.6503 0.2387 0.3309
C4 C 0.5751(6) 0.2700(6) 0.4988(5)
H4 H 0.6410 0.3121 0.5083
C5 C 0.4748(6) 0.2512(6) 0.5916(4)
H5 H 0.4774 0.2788 0.6615
C6 C 0.3709(5) 0.1926(5) 0.5835(4)
H6 H 0.3036 0.1795 0.6456
C7 C 0.3743(5) 0.1548(5) 0.4762(4)
C8 C 0.1608(5) 0.0667(5) 0.5026(4)
H7 H 0.1907 0.0134 0.5653
H8 H 0.1300 0.0135 0.4575
C9 C -0.0383(5) 0.2849(5) 0.4277(4)
C10 C -0.1025(5) 0.4223(5) 0.2759(4)
C11 C -0.1682(5) 0.4706(5) 0.0681(4)
H9 H -0.1816 0.5328 0.0076
H10 H -0.0756 0.3961 0.0429
C12 C -0.4424(5) 0.4932(4) 0.1284(3)
C13 C -0.5205(5) 0.6304(4) 0.1432(4)
H11 H -0.4721 0.6930 0.1287
C14 C -0.6733(6) 0.6686(5) 0.1806(5)
H12 H -0.7294 0.7595 0.1930
C15 C -0.7471(6) 0.5750(5) 0.2006(4)
H13 H -0.8506 0.6052 0.2261
C16 C -0.6697(5) 0.4387(5) 0.1835(4)
H14 H -0.7186 0.3765 0.1958
C17 C -0.5152(5) 0.3991(4) 0.1470(3)
C18 C -0.2778(5) 0.2890(4) 0.0898(3)
H15 H -0.1865 0.2196 0.0683
Cu1A Cu 0.43859(6) -0.09705(5) -0.13005(4)
Cu1_2 Cu -0.43859(6) 0.09705(5) 0.13005(4)
O1A O 0.3417(4) 0.1682(3) 0.0747(3)
N6_2 N 0.5918(4) 0.2704(3) 0.1207(3)
O5 O 0.9004(9) 0.8819(9) 0.2220(4)
H1 H 0.8777 0.8493 0.1726
C19 C 0.9697(8) 0.9652(6) 0.1780(6)
H16 H 0.8975 1.0535 0.1766
H17 H 1.0236 0.9349 0.1033
H18 H 1.0386 0.9677 0.2221
loop_
_geom_bond_atom_site_label_1
_geom_bond_atom_site_label_2
_geom_bond_site_symmetry_1
_geom_bond_site_symmetry_2
Cu1 O3 1_555 1_555
S1 O1 1_555 1_555
S2 C8 1_555 1_555
S3 C9 1_555 1_555
S4 C10 1_555 1_555
O1 Cu1A 1_555 1_555
O2 S1 1_555 1_555
O3 S1 1_555 1_555
O4 Cu1 1_555 1_555
O5 H1 1_555 1_555
N1 Cu1 1_555 1_555
N2 C1 1_555 1_555
N3 N4 1_555 1_555
N4 C10 1_555 1_555
N5 C11 1_555 1_555
N6 C17 1_555 1_555
C1 N1 1_555 1_555
H2 C1 1_555 1_555
C2 N1 1_555 1_555
C3 C2 1_555 1_555
H3 C3 1_555 1_555
C4 C3 1_555 1_555
H4 C4 1_555 1_555
C5 C4 1_555 1_555
H5 C5 1_555 1_555
C6 C5 1_555 1_555
H6 C6 1_555 1_555
C7 N2 1_555 1_555
C8 N2 1_555 1_555
H7 C8 1_555 1_555
H8 C8 1_555 1_555
C9 S2 1_555 1_555
C10 S3 1_555 1_555
C11 S4 1_555 1_555
H9 C11 1_555 1_555
H10 C11 1_555 1_555
C12 N5 1_555 1_555
C13 C12 1_555 1_555
H11 C13 1_555 1_555
C14 C13 1_555 1_555
H12 C14 1_555 1_555
C15 C14 1_555 1_555
H13 C15 1_555 1_555
C16 C15 1_555 1_555
H14 C16 1_555 1_555
C17 C12 1_555 1_555
C18 N5 1_555 1_555
H15 C18 1_555 1_555
C19 O5 1_555 1_555
H16 C19 1_555 1_555
H17 C19 1_555 1_555
H18 C19 1_555 1_555
Cu1_2 N6 1_555 1_555
O1A Cu1 1_555 1_555
N6_2 Cu1 1_555 1_555
S1 O4 1_555 1_555
N3 C9 1_555 1_555
N6 C18 1_555 1_555
C2 C7 1_555 1_555
C6 C7 1_555 1_555
C16 C17 1_555 1_555

#END
