
#######################################################################
#
#                 Cambridge Crystallographic Data Centre
#                                CCDC 
#
#######################################################################
#
# If this CIF has been generated from an entry in the Cambridge 
# Structural Database, then it will include bibliographic, chemical, 
# crystal, experimental, refinement or atomic coordinate data resulting 
# from the CCDC's data processing and validation procedures.
#
#######################################################################

data_IHUPAE
_symmetry_cell_setting           monoclinic
_symmetry_space_group_name_H-M   'P 21/c'
_symmetry_Int_Tables_number      14
_space_group_name_Hall           '-P 2ybc'
loop_
_symmetry_equiv_pos_site_id
_symmetry_equiv_pos_as_xyz
1 x,y,z
2 -x,1/2+y,1/2-z
3 -x,-y,-z
4 x,1/2-y,1/2+z
_cell_length_a                   12.2062(5)
_cell_length_b                   8.4766(2)
_cell_length_c                   25.2247(10)
_cell_angle_alpha                90
_cell_angle_beta                 101.542(3)
_cell_angle_gamma                90
_cell_volume                     2557.15
loop_
_atom_site_label
_atom_site_type_symbol
_atom_site_fract_x
_atom_site_fract_y
_atom_site_fract_z
C1 C 0.3236(3) 0.8810(5) 0.38524(17)
H1 H 0.2989 0.9483 0.3535
C2 C 0.4183(4) 0.7814(6) 0.3719(2)
H2 H 0.4451 0.7099 0.4017
H3 H 0.3900 0.7183 0.3400
C3 C 0.5139(5) 0.8813(8) 0.3618(2)
H4 H 0.4900 0.9395 0.3284
H5 H 0.5750 0.8129 0.3573
C4 C 0.5557(4) 0.9968(7) 0.4071(2)
H6 H 0.5897 0.9392 0.4395
H7 H 0.6126 1.0639 0.3970
C5 C 0.4632(5) 1.0964(6) 0.4189(2)
H8 H 0.4347 1.1629 0.3879
H9 H 0.4915 1.1645 0.4495
C6 C 0.3677(4) 0.9942(6) 0.43174(19)
H10 H 0.3945 0.9344 0.4645
H11 H 0.3073 1.0618 0.4379
C7 C 0.0967(3) 0.9042(5) 0.40815(15)
H12 H 0.1266 0.9479 0.4441
C8 C 0.0764(4) 1.0413(6) 0.36772(18)
H13 H 0.1458 1.0981 0.3687
H14 H 0.0514 1.0003 0.3314
C9 C -0.0109(5) 1.1530(6) 0.3812(2)
H15 H 0.0173 1.2007 0.4162
H16 H -0.0242 1.2367 0.3545
C10 C -0.1190(4) 1.0706(7) 0.3824(2)
H17 H -0.1508 1.0309 0.3466
H18 H -0.1714 1.1451 0.3926
C11 C -0.1014(4) 0.9345(7) 0.4224(2)
H19 H -0.1714 0.8786 0.4205
H20 H -0.0781 0.9755 0.4588
C12 C -0.0131(4) 0.8205(6) 0.4102(2)
H21 H -0.0409 0.7693 0.3757
H22 H 0.0005 0.7395 0.4379
C13 C 0.2451(5) 0.6363(6) 0.45140(18)
H23 H 0.3249 0.6210 0.4522
C14 C 0.2435(5) 0.7077(6) 0.50648(18)
H24 H 0.1670 0.7315 0.5089
H25 H 0.2851 0.8059 0.5102
C15 C 0.2944(7) 0.5967(8) 0.5528(2)
H26 H 0.3745 0.5908 0.5547
H27 H 0.2826 0.6417 0.5866
C16 C 0.2503(8) 0.4424(9) 0.5479(3)
H28 H 0.1741 0.4454 0.5537
H29 H 0.2937 0.3769 0.5760
C17 C 0.2505(8) 0.3676(7) 0.4932(3)
H30 H 0.2080 0.2702 0.4902
H31 H 0.3267 0.3417 0.4908
C18 C 0.2008(7) 0.4756(8) 0.4467(2)
H32 H 0.2141 0.4298 0.4134
H33 H 0.1205 0.4804 0.4442
C19 C 0.1196(3) 0.2700(5) 0.25161(14)
C20 C 0.1939(3) 0.1451(4) 0.23633(14)
C21 C 0.1677(3) -0.0085(5) 0.22085(17)
H34 H 0.0952 -0.0461 0.2181
C22 C 0.2502(4) -0.1052(5) 0.20957(19)
H35 H 0.2333 -0.2089 0.1989
C23 C 0.3582(4) -0.0498(6) 0.21389(19)
H36 H 0.4127 -0.1171 0.2057
C24 C 0.3870(3) 0.1019(5) 0.22990(18)
H37 H 0.4598 0.1387 0.2329
C25 C 0.3032(3) 0.1973(5) 0.24134(16)
N1 N 0.1757(3) 0.4049(4) 0.26797(13)
O1 O 0.0191(2) 0.2505(3) 0.24962(12)
O2 O 0.3395(3) 0.5043(4) 0.23052(15)
O3 O 0.3751(3) 0.3930(4) 0.32087(14)
P1 P 0.19968(9) 0.76273(13) 0.39174(4)
S1 S 0.30920(8) 0.39065(12) 0.26723(4)
Ag1 Ag 0.13498(3) 0.61225(4) 0.311994(12)
O1A O -0.0191(2) 0.7505(3) 0.25038(12)
Ag1A Ag -0.13498(3) 0.11225(4) 0.188006(12)
loop_
_geom_bond_atom_site_label_1
_geom_bond_atom_site_label_2
_geom_bond_site_symmetry_1
_geom_bond_site_symmetry_2
C1 H1 1_555 1_555
C2 C1 1_555 1_555
H2 C2 1_555 1_555
H3 C2 1_555 1_555
C3 C2 1_555 1_555
H4 C3 1_555 1_555
H5 C3 1_555 1_555
C4 C3 1_555 1_555
H6 C4 1_555 1_555
H7 C4 1_555 1_555
C5 C4 1_555 1_555
H8 C5 1_555 1_555
H9 C5 1_555 1_555
C6 C1 1_555 1_555
H10 C6 1_555 1_555
H11 C6 1_555 1_555
C7 H12 1_555 1_555
C8 C7 1_555 1_555
H13 C8 1_555 1_555
H14 C8 1_555 1_555
C9 C8 1_555 1_555
H15 C9 1_555 1_555
H16 C9 1_555 1_555
C10 C9 1_555 1_555
H17 C10 1_555 1_555
H18 C10 1_555 1_555
C11 C10 1_555 1_555
H19 C11 1_555 1_555
H20 C11 1_555 1_555
C12 C7 1_555 1_555
H21 C12 1_555 1_555
H22 C12 1_555 1_555
C13 H23 1_555 1_555
C14 C13 1_555 1_555
H24 C14 1_555 1_555
H25 C14 1_555 1_555
C15 C14 1_555 1_555
H26 C15 1_555 1_555
H27 C15 1_555 1_555
C16 C15 1_555 1_555
H28 C16 1_555 1_555
H29 C16 1_555 1_555
C17 C16 1_555 1_555
H30 C17 1_555 1_555
H31 C17 1_555 1_555
C18 C13 1_555 1_555
H32 C18 1_555 1_555
H33 C18 1_555 1_555
C19 C20 1_555 1_555
C20 C21 1_555 1_555
C21 H34 1_555 1_555
C22 C21 1_555 1_555
H35 C22 1_555 1_555
C23 C22 1_555 1_555
H36 C23 1_555 1_555
C24 C23 1_555 1_555
H37 C24 1_555 1_555
C25 C20 1_555 1_555
N1 C19 1_555 1_555
O1 C19 1_555 1_555
O2 S1 1_555 1_555
O3 S1 1_555 1_555
P1 C1 1_555 1_555
S1 C25 1_555 1_555
Ag1 N1 1_555 1_555
O1A Ag1 1_555 1_555
Ag1A O1 1_555 1_555
C5 C6 1_555 1_555
C7 P1 1_555 1_555
C11 C12 1_555 1_555
C13 P1 1_555 1_555
C17 C18 1_555 1_555
C24 C25 1_555 1_555
N1 S1 1_555 1_555
P1 Ag1 1_555 1_555

#END
