
#######################################################################
#
#                 Cambridge Crystallographic Data Centre
#                                CCDC 
#
#######################################################################
#
# If this CIF has been generated from an entry in the Cambridge 
# Structural Database, then it will include bibliographic, chemical, 
# crystal, experimental, refinement or atomic coordinate data resulting 
# from the CCDC's data processing and validation procedures.
#
#######################################################################

data_IHUPUW
_symmetry_cell_setting           monoclinic
_symmetry_space_group_name_H-M   'C 2/c'
_symmetry_Int_Tables_number      15
_space_group_name_Hall           '-C 2yn'
loop_
_symmetry_equiv_pos_site_id
_symmetry_equiv_pos_as_xyz
1 x,y,z
2 1/2+x,1/2+y,z
3 x,-y,1/2+z
4 1/2+x,1/2-y,1/2+z
5 -x,-y,-z
6 1/2-x,1/2-y,-z
7 -x,y,1/2-z
8 1/2-x,1/2+y,1/2-z
_cell_length_a                   20.3610(5)
_cell_length_b                   12.9980(4)
_cell_length_c                   15.5010(7)
_cell_angle_alpha                90
_cell_angle_beta                 98.5490(14)
_cell_angle_gamma                90
_cell_volume                     4056.79
loop_
_atom_site_label
_atom_site_type_symbol
_atom_site_fract_x
_atom_site_fract_y
_atom_site_fract_z
Cl1 Cl 0.33135(9) 0.05246(15) 0.31879(12)
O1 O 0.3317(4) 0.1216(7) 0.3885(5)
O2 O 0.3594(4) -0.0427(5) 0.3507(5)
O3 O 0.3700(4) 0.0925(7) 0.2581(4)
O4 O 0.2673(3) 0.0348(6) 0.2719(7)
Cl2 Cl 0.0000 0.0814(2) 0.2500
O5 O -0.0390(6) 0.0195(13) 0.1975(7)
O6 O 0.0323(6) 0.1412(7) 0.1948(8)
O5F O 0.0390(6) 0.0195(13) 0.3025(7)
O6F O -0.0323(6) 0.1412(7) 0.3052(8)
Ag1 Ag 0.31874(3) 0.02801(4) 0.03474(4)
Ag2 Ag 0.00188(7) -0.01369(12) 0.02815(9)
N1 N 0.2249(3) 0.1151(4) -0.0037(4)
C1 C 0.2010 0.1337(8) -0.0920
H1 H 0.2197 0.0986 -0.1363
C2 C 0.1514(6) 0.2018(10) -0.1134(7)
H2 H 0.1394 0.2191 -0.1732
C3 C 0.1178(3) 0.2467(5) -0.0552(5)
C4 C 0.1365(5) 0.2227(11) 0.0293(6)
H3 H 0.1131 0.2499 0.0727
C5 C 0.1907(5) 0.1576(9) 0.0525(6)
H4 H 0.2038 0.1431 0.1127
C6 C 0.0626(4) 0.3204(6) -0.0864(5)
C7 C -0.0009(5) 0.2753(10) -0.1286(12)
H5 H 0.0080 0.2226 -0.1706
H6 H -0.0240 0.2439 -0.0841
H7 H -0.0288 0.3294 -0.1591
N2 N 0.4249(3) 0.0842(5) 0.0774(4)
C8 C 0.4768(4) 0.0094(6) 0.1102(5)
H8 H 0.4888 0.0188 0.1740
H9 H 0.5169 0.0242 0.0831
C9 C 0.4569(4) -0.1016(6) 0.0921(5)
H10 H 0.4976 -0.1443 0.1013
H11 H 0.4376 -0.1076 0.0298
C10 C 0.4074(4) -0.1464(6) 0.1469(5)
H12 H 0.4127 -0.2220 0.1497
H13 H 0.4176 -0.1193 0.2071
N3 N 0.3380(3) -0.1216(5) 0.1118(4)
C11 C 0.2913(5) -0.1642(6) 0.1454(5)
C12 C 0.3024(6) -0.2396(9) 0.2213(6)
H14 H 0.3256 -0.3006 0.2040
H15 H 0.2594 -0.2600 0.2372
H16 H 0.3293 -0.2068 0.2714
C13 C 0.2225(4) -0.1365(7) 0.1093(6)
C14 C 0.1759(6) -0.1063(12) 0.1619(8)
H17 H 0.1874 -0.1097 0.2235
C15 C 0.1145(7) -0.0722(15) 0.1273(13)
H18 H 0.0849 -0.0504 0.1657
N4 N 0.0940(4) -0.0681(9) 0.0412(10)
C16 C 0.1360(5) -0.0996(7) -0.0099(8)
H19 H 0.1217 -0.1001 -0.0711
C17 C 0.1996(4) -0.1319(6) 0.0207(6)
H20 H 0.2283 -0.1513 -0.0196
Ag2D Ag -0.00188(7) 0.01369(12) -0.02815(9)
N4D N -0.0940(4) 0.0681(9) -0.0412(10)
N2E N 0.0751(3) 0.4158(5) -0.0774(4)
C6E C 0.4374(4) 0.1796(6) 0.0864(5)
loop_
_geom_bond_atom_site_label_1
_geom_bond_atom_site_label_2
_geom_bond_site_symmetry_1
_geom_bond_site_symmetry_2
Ag1 N1 1_555 1_555
Ag2 N4 1_555 1_555
Cl1 O1 1_555 1_555
Cl2 O5 1_555 1_555
O2 Cl1 1_555 1_555
O3 Cl1 1_555 1_555
O4 Cl1 1_555 1_555
O6 Cl2 1_555 1_555
N1 C1 1_555 1_555
C1 H1 1_555 1_555
C2 C1 1_555 1_555
H2 C2 1_555 1_555
C3 C2 1_555 1_555
C4 C3 1_555 1_555
H3 C4 1_555 1_555
C5 N1 1_555 1_555
H4 C5 1_555 1_555
C6 C3 1_555 1_555
C7 C6 1_555 1_555
H5 C7 1_555 1_555
H6 C7 1_555 1_555
H7 C7 1_555 1_555
N2 Ag1 1_555 1_555
C8 N2 1_555 1_555
H8 C8 1_555 1_555
H9 C8 1_555 1_555
C9 C8 1_555 1_555
H10 C9 1_555 1_555
H11 C9 1_555 1_555
C10 C9 1_555 1_555
H12 C10 1_555 1_555
H13 C10 1_555 1_555
N3 Ag1 1_555 1_555
C11 N3 1_555 1_555
C12 C11 1_555 1_555
H14 C12 1_555 1_555
H15 C12 1_555 1_555
H16 C12 1_555 1_555
C13 C11 1_555 1_555
C14 C13 1_555 1_555
H17 C14 1_555 1_555
C15 C14 1_555 1_555
H18 C15 1_555 1_555
N4 C15 1_555 1_555
C16 N4 1_555 1_555
H19 C16 1_555 1_555
C17 C13 1_555 1_555
H20 C17 1_555 1_555
Ag2D Ag2 1_555 1_555
N4D Ag2 1_555 1_555
O5F Cl2 1_555 1_555
O6F Cl2 1_555 1_555
N2E C6 1_555 1_555
C6E N2 1_555 1_555
C4 C5 1_555 1_555
C10 N3 1_555 1_555
N4 Ag2D 1_555 1_555
C16 C17 1_555 1_555
Ag2D N4D 1_555 1_555

#END
