
#######################################################################
#
#                 Cambridge Crystallographic Data Centre
#                                CCDC 
#
#######################################################################
#
# If this CIF has been generated from an entry in the Cambridge 
# Structural Database, then it will include bibliographic, chemical, 
# crystal, experimental, refinement or atomic coordinate data resulting 
# from the CCDC's data processing and validation procedures.
#
#######################################################################

data_IHUQIL
_symmetry_cell_setting           tetragonal
_symmetry_space_group_name_H-M   'I 41/a'
_symmetry_Int_Tables_number      88
_space_group_name_Hall           '-I 4ad'
loop_
_symmetry_equiv_pos_site_id
_symmetry_equiv_pos_as_xyz
1 x,y,z
2 3/4-y,1/4+x,1/4+z
3 1/4+y,1/4-x,1/4+z
4 1/2+x,1/2+y,1/2+z
5 1/4-y,3/4+x,3/4+z
6 x,1/2+y,-z
7 1/2+x,y,1/2-z
8 1/4-y,1/4+x,1/4-z
9 -x,-y,-z
10 1/4+y,3/4-x,3/4-z
11 3/4-y,3/4+x,3/4-z
12 1/2-x,1/2-y,1/2-z
13 3/4+y,1/4-x,1/4-z
14 -x,1/2-y,z
15 1/2-x,-y,1/2+z
16 3/4+y,3/4-x,3/4+z
_cell_length_a                   11.4530(3)
_cell_length_b                   11.4530(3)
_cell_length_c                   49.6740(13)
_cell_angle_alpha                90
_cell_angle_beta                 90
_cell_angle_gamma                90
_cell_volume                     6515.8
loop_
_atom_site_label
_atom_site_type_symbol
_atom_site_fract_x
_atom_site_fract_y
_atom_site_fract_z
C1 C -0.2149(4) 0.0100(3) 0.56768(8)
C2 C -0.1818(4) -0.0779(4) 0.54897(10)
H1 H -0.2403 -0.1175 0.5389
C3 C -0.0675(4) -0.1064(4) 0.54521(11)
H2 H -0.0471 -0.1636 0.5322
C4 C 0.0207(4) -0.0520(4) 0.56039(9)
H3 H 0.0997 -0.0750 0.5581
C5 C -0.0063(4) 0.0329(4) 0.57826(8)
H4 H 0.0539 0.0695 0.5883
C6 C -0.1245(4) 0.0676(3) 0.58209(8)
N1 N -0.1458(3) 0.1581(3) 0.59979(6)
C7 C -0.2547(4) 0.1926(4) 0.60261(9)
H5 H -0.2703 0.2559 0.6144
C8 C -0.3498(4) 0.1403(4) 0.58902(9)
H6 H -0.4265 0.1694 0.5918
C9 C -0.3322(4) 0.0480(4) 0.57189(8)
C10 C -0.4359(4) 0.0017(4) 0.55824(8)
H7 H -0.5061 0.0455 0.5594
N2 N -0.4381(3) -0.0936(3) 0.54489(8)
N3 N -0.5470(3) -0.1106(3) 0.53225(7)
C11 C -0.5503(3) -0.2076(3) 0.51889(8)
C12 C -0.6531(3) -0.2326(3) 0.50185(8)
C13 C -0.7503(3) -0.1604(4) 0.50249(8)
H8 H -0.7523 -0.0953 0.5143
C14 C -0.8446(4) -0.1835(4) 0.48579(9)
H9 H -0.9118 -0.1350 0.4864
C15 C -0.8410(4) -0.2779(4) 0.46804(8)
H10 H -0.9053 -0.2928 0.4565
C16 C -0.7451(4) -0.3489(4) 0.46723(8)
H11 H -0.7425 -0.4124 0.4549
C17 C -0.6510(3) -0.3284(3) 0.48446(8)
H12 H -0.5857 -0.3795 0.4844
Ag1 Ag 0.0000 0.2500 0.6250
C11M C -0.4497(3) -0.2924(3) 0.51889(8)
N3M N -0.4530(3) -0.3894(3) 0.53225(7)
N2M N -0.5619(3) -0.4064(3) 0.54489(8)
C10M C -0.5641(4) -0.5017(4) 0.55824(8)
C9M C -0.6678(4) -0.5480(4) 0.57189(8)
C1M C -0.7851(4) -0.5100(3) 0.56768(8)
C2M C -0.8182(4) -0.4221(4) 0.54897(10)
H1M H -0.7597 -0.3825 0.5389
C3M C -0.9325(4) -0.3936(4) 0.54521(11)
H2M H -0.9529 -0.3364 0.5322
C4M C -1.0207(4) -0.4480(4) 0.56039(9)
H3M H -1.0997 -0.4250 0.5581
C5M C -0.9937(4) -0.5329(4) 0.57826(8)
H4M H -1.0539 -0.5695 0.5883
C6M C -0.8755(4) -0.5676(3) 0.58209(8)
N1M N -0.8542(3) -0.6581(3) 0.59979(6)
C7M C -0.7453(4) -0.6926(4) 0.60261(9)
H5M H -0.7297 -0.7559 0.6144
C8M C -0.6502(4) -0.6403(4) 0.58902(9)
H6M H -0.5735 -0.6694 0.5918
H7M H -0.4939 -0.5455 0.5594
C12M C -0.3469(3) -0.2674(3) 0.50185(8)
C13M C -0.2497(3) -0.3396(4) 0.50249(8)
H8M H -0.2477 -0.4047 0.5143
C14M C -0.1554(4) -0.3165(4) 0.48579(9)
H9M H -0.0882 -0.3650 0.4864
C15M C -0.1590(4) -0.2221(4) 0.46804(8)
H10M H -0.0947 -0.2072 0.4565
C16M C -0.2549(4) -0.1511(4) 0.46723(8)
H11M H -0.2575 -0.0876 0.4549
C17M C -0.3490(3) -0.1716(3) 0.48446(8)
H12M H -0.4143 -0.1205 0.4844
C1G C 0.2400(3) 0.0351(4) 0.68232(8)
C2G C 0.3279(4) 0.0682(4) 0.70103(10)
H1G H 0.3675 0.0097 0.7111
C3G C 0.3564(4) 0.1825(4) 0.70479(11)
H2G H 0.4136 0.2029 0.7178
C4G C 0.3020(4) 0.2707(4) 0.68961(9)
H3G H 0.3250 0.3497 0.6919
C5G C 0.2171(4) 0.2437(4) 0.67174(8)
H4G H 0.1805 0.3039 0.6617
C6G C 0.1824(3) 0.1255(4) 0.66791(8)
N1G N 0.0919(3) 0.1042(3) 0.65021(6)
C7G C 0.0574(4) -0.0047(4) 0.64739(9)
H5G H -0.0059 -0.0203 0.6356
C8G C 0.1097(4) -0.0998(4) 0.66098(9)
H6G H 0.0806 -0.1765 0.6582
C9G C 0.2020(4) -0.0822(4) 0.67811(8)
C10G C 0.2483(4) -0.1859(4) 0.69176(8)
H7G H 0.2045 -0.2561 0.6906
N2G N 0.3436(3) -0.1881(3) 0.70511(8)
N3G N 0.3606(3) -0.2970(3) 0.71775(7)
C11G C 0.4576(3) -0.3003(3) 0.73111(8)
C12G C 0.4826(3) -0.4031(3) 0.74815(8)
C13G C 0.4104(4) -0.5003(3) 0.74751(8)
H8G H 0.3453 -0.5023 0.7357
C14G C 0.4335(4) -0.5946(4) 0.76421(9)
H9G H 0.3850 -0.6618 0.7636
C15G C 0.5279(4) -0.5910(4) 0.78196(8)
H10G H 0.5428 -0.6553 0.7935
C16G C 0.5989(4) -0.4951(4) 0.78277(8)
H11G H 0.6624 -0.4925 0.7951
C17G C 0.5784(3) -0.4010(3) 0.76554(8)
H12G H 0.6295 -0.3357 0.7656
C11L C 0.5424(3) -0.1997(3) 0.73111(8)
N3L N 0.6394(3) -0.2030(3) 0.71775(7)
N2L N 0.6564(3) -0.3119(3) 0.70511(8)
C10L C 0.7517(4) -0.3141(4) 0.69176(8)
C9L C 0.7980(4) -0.4178(4) 0.67811(8)
C1L C 0.7600(3) -0.5351(4) 0.68232(8)
C2L C 0.6721(4) -0.5682(4) 0.70103(10)
H1L H 0.6325 -0.5097 0.7111
C3L C 0.6436(4) -0.6825(4) 0.70479(11)
H2L H 0.5864 -0.7029 0.7178
C4L C 0.6980(4) -0.7707(4) 0.68961(9)
H3L H 0.6750 -0.8497 0.6919
C5L C 0.7829(4) -0.7437(4) 0.67174(8)
H4L H 0.8195 -0.8039 0.6617
C6L C 0.8176(3) -0.6255(4) 0.66791(8)
N1L N 0.9081(3) -0.6042(3) 0.65021(6)
C7L C 0.9426(4) -0.4953(4) 0.64739(9)
H5L H 1.0059 -0.4797 0.6356
C8L C 0.8903(4) -0.4002(4) 0.66098(9)
H6L H 0.9194 -0.3235 0.6582
H7L H 0.7955 -0.2439 0.6906
C12L C 0.5174(3) -0.0969(3) 0.74815(8)
C13L C 0.5896(4) 0.0003(3) 0.74751(8)
H8L H 0.6547 0.0023 0.7357
C14L C 0.5665(4) 0.0946(4) 0.76421(9)
H9L H 0.6150 0.1618 0.7636
C15L C 0.4721(4) 0.0910(4) 0.78196(8)
H10L H 0.4572 0.1553 0.7935
C16L C 0.4011(4) -0.0049(4) 0.78277(8)
H11L H 0.3376 -0.0075 0.7951
C17L C 0.4216(3) -0.0990(3) 0.76554(8)
H12L H 0.3705 -0.1643 0.7656
N1L_2 N -0.0919(3) 0.3958(3) 0.65021(6)
N1M_2 N 0.1458(3) 0.3419(3) 0.59979(6)
Ag1_2 Ag -1.0000 -0.7500 0.6250
Ag1_3 Ag 1.0000 -0.7500 0.6250
Cl1 Cl -0.6790(5) -0.0953(6) 0.60000(10)
O1 O -0.6770(16) 0.0238(16) 0.6038(3)
O2 O -0.7136(16) -0.2125(17) 0.5926(4)
O3 O -0.544(2) -0.141(2) 0.6019(4)
O4 O -0.7103(15) 0.0027(17) 0.5974(3)
O5? O -0.6626(19) -0.038(2) 0.6051(4)
loop_
_geom_bond_atom_site_label_1
_geom_bond_atom_site_label_2
_geom_bond_site_symmetry_1
_geom_bond_site_symmetry_2
C1 C2 1_555 1_555
C2 H1 1_555 1_555
C3 C2 1_555 1_555
H2 C3 1_555 1_555
C4 C3 1_555 1_555
H3 C4 1_555 1_555
C5 C4 1_555 1_555
H4 C5 1_555 1_555
C6 C1 1_555 1_555
N1 C6 1_555 1_555
C7 N1 1_555 1_555
H5 C7 1_555 1_555
C8 C7 1_555 1_555
H6 C8 1_555 1_555
C9 C1 1_555 1_555
C10 C9 1_555 1_555
H7 C10 1_555 1_555
N2 C10 1_555 1_555
N3 N2 1_555 1_555
C11 N3 1_555 1_555
C12 C11 1_555 1_555
C13 C12 1_555 1_555
H8 C13 1_555 1_555
C14 C13 1_555 1_555
H9 C14 1_555 1_555
C15 C14 1_555 1_555
H10 C15 1_555 1_555
C16 C15 1_555 1_555
H11 C16 1_555 1_555
C17 C12 1_555 1_555
H12 C17 1_555 1_555
Ag1 N1 1_555 1_555
Cl1 O1 1_555 1_555
O2 Cl1 1_555 1_555
O3 Cl1 1_555 1_555
O4 Cl1 1_555 1_555
C11M C11 1_555 1_555
N3M C11M 1_555 1_555
N2M N3M 1_555 1_555
C10M N2M 1_555 1_555
C9M C10M 1_555 1_555
C1M C9M 1_555 1_555
C2M C1M 1_555 1_555
H1M C2M 1_555 1_555
C3M C2M 1_555 1_555
H2M C3M 1_555 1_555
C4M C3M 1_555 1_555
H3M C4M 1_555 1_555
C5M C4M 1_555 1_555
H4M C5M 1_555 1_555
C6M C1M 1_555 1_555
N1M C6M 1_555 1_555
C7M N1M 1_555 1_555
H5M C7M 1_555 1_555
C8M C9M 1_555 1_555
H6M C8M 1_555 1_555
H7M C10M 1_555 1_555
C12M C11M 1_555 1_555
C13M C12M 1_555 1_555
H8M C13M 1_555 1_555
C14M C13M 1_555 1_555
H9M C14M 1_555 1_555
C15M C14M 1_555 1_555
H10M C15M 1_555 1_555
C16M C15M 1_555 1_555
H11M C16M 1_555 1_555
C17M C12M 1_555 1_555
H12M C17M 1_555 1_555
C1G C2G 1_555 1_555
C2G H1G 1_555 1_555
C3G C2G 1_555 1_555
H2G C3G 1_555 1_555
C4G C3G 1_555 1_555
H3G C4G 1_555 1_555
C5G C4G 1_555 1_555
H4G C5G 1_555 1_555
C6G C1G 1_555 1_555
N1G Ag1 1_555 1_555
C7G N1G 1_555 1_555
H5G C7G 1_555 1_555
C8G C7G 1_555 1_555
H6G C8G 1_555 1_555
C9G C1G 1_555 1_555
C10G C9G 1_555 1_555
H7G C10G 1_555 1_555
N2G C10G 1_555 1_555
N3G N2G 1_555 1_555
C11G N3G 1_555 1_555
C12G C11G 1_555 1_555
C13G C12G 1_555 1_555
H8G C13G 1_555 1_555
C14G C13G 1_555 1_555
H9G C14G 1_555 1_555
C15G C14G 1_555 1_555
H10G C15G 1_555 1_555
C16G C15G 1_555 1_555
H11G C16G 1_555 1_555
C17G C12G 1_555 1_555
H12G C17G 1_555 1_555
C11L C11G 1_555 1_555
N3L C11L 1_555 1_555
N2L N3L 1_555 1_555
C10L N2L 1_555 1_555
C9L C10L 1_555 1_555
C1L C9L 1_555 1_555
C2L C1L 1_555 1_555
H1L C2L 1_555 1_555
C3L C2L 1_555 1_555
H2L C3L 1_555 1_555
C4L C3L 1_555 1_555
H3L C4L 1_555 1_555
C5L C4L 1_555 1_555
H4L C5L 1_555 1_555
C6L C1L 1_555 1_555
N1L C6L 1_555 1_555
C7L N1L 1_555 1_555
H5L C7L 1_555 1_555
C8L C9L 1_555 1_555
H6L C8L 1_555 1_555
H7L C10L 1_555 1_555
C12L C11L 1_555 1_555
C13L C12L 1_555 1_555
H8L C13L 1_555 1_555
C14L C13L 1_555 1_555
H9L C14L 1_555 1_555
C15L C14L 1_555 1_555
H10L C15L 1_555 1_555
C16L C15L 1_555 1_555
H11L C16L 1_555 1_555
C17L C12L 1_555 1_555
H12L C17L 1_555 1_555
N1L_2 Ag1 1_555 1_555
N1M_2 Ag1 1_555 1_555
Ag1_2 N1M 1_555 1_555
Ag1_3 N1L 1_555 1_555
C5 C6 1_555 1_555
C8 C9 1_555 1_555
C16 C17 1_555 1_555
C5M C6M 1_555 1_555
C7M C8M 1_555 1_555
C16M C17M 1_555 1_555
C5G C6G 1_555 1_555
C6G N1G 1_555 1_555
C8G C9G 1_555 1_555
C16G C17G 1_555 1_555
C5L C6L 1_555 1_555
C7L C8L 1_555 1_555
C16L C17L 1_555 1_555

#END
