
#######################################################################
#
#                 Cambridge Crystallographic Data Centre
#                                CCDC 
#
#######################################################################
#
# If this CIF has been generated from an entry in the Cambridge 
# Structural Database, then it will include bibliographic, chemical, 
# crystal, experimental, refinement or atomic coordinate data resulting 
# from the CCDC's data processing and validation procedures.
#
#######################################################################

data_IHUQAD
_symmetry_cell_setting           tetragonal
_symmetry_space_group_name_H-M   'P -4 c 2'
_symmetry_Int_Tables_number      116
_space_group_name_Hall           'P -4 -2c'
loop_
_symmetry_equiv_pos_site_id
_symmetry_equiv_pos_as_xyz
1 x,y,z
2 -x,-y,z
3 -y,-x,1/2-z
4 y,x,1/2-z
5 -x,y,1/2+z
6 x,-y,1/2+z
7 -y,x,-z
8 y,-x,-z
_cell_length_a                   10.5950(3)
_cell_length_b                   10.5950(3)
_cell_length_c                   18.5580(4)
_cell_angle_alpha                90
_cell_angle_beta                 90
_cell_angle_gamma                90
_cell_volume                     2083.21
loop_
_atom_site_label
_atom_site_type_symbol
_atom_site_fract_x
_atom_site_fract_y
_atom_site_fract_z
P1 P 0.0000 0.0000 0.4829(4)
F1 F -0.1352(8) 0.0618(8) 0.5120(6)
F2 F -0.1139(10) 0.0532(10) 0.4641(7)
F3 F -0.0461(17) -0.1015(15) 0.4377(9)
F4 F -0.0906(15) 0.0320(16) 0.4181(10)
P1F P 0.0000 0.0000 0.5171(4)
F1F F -0.0618(8) -0.1352(8) 0.4880(6)
F1G F 0.0618(8) 0.1352(8) 0.4880(6)
F1A F 0.1352(8) -0.0618(8) 0.5120(6)
F2F F -0.0532(10) -0.1139(10) 0.5359(7)
F2G F 0.0532(10) 0.1139(10) 0.5359(7)
F2A F 0.1139(10) -0.0532(10) 0.4641(7)
F3F F 0.1015(15) -0.0461(17) 0.5623(9)
F3G F -0.1015(15) 0.0461(17) 0.5623(9)
F3A F 0.0461(17) 0.1015(15) 0.4377(9)
F4F F -0.0320(16) -0.0906(15) 0.5819(10)
F4A F 0.0906(15) -0.0320(16) 0.4181(10)
F4G F 0.0320(16) 0.0906(15) 0.5819(10)
N3 N 0.8681(11) -0.1319(11) -0.2500
C10 C 0.947(2) -0.053(2) -0.2500
C10A C 1.053(2) 0.053(2) -0.2500
N3A N 1.1319(11) 0.1319(11) -0.2500
Ag1 Ag 0.5000 0.5000 0.2500
N1 N 0.5372(4) 0.1318(4) -0.0836(2)
N2 N 0.5384(4) 0.3524(4) 0.15672(19)
C1 C 0.6430(4) 0.2821(4) 0.1502(2)
H1 H 0.7037 0.2860 0.1878
C2 C 0.4541(4) 0.3448(4) 0.1020(2)
H2 H 0.3785 0.3928 0.1053
C3 C 0.6045(5) 0.1186(5) -0.0283(2)
H3 H 0.6699 0.0574 -0.0278
C4 C 0.5819(4) 0.1986(4) 0.0362(2)
C5 C 0.4727(4) 0.2709(4) 0.0421(2)
H4 H 0.4113 0.2693 0.0048
C6 C 0.5608(6) 0.1249(5) -0.2140(2)
H5 H 0.6381 0.1774 -0.2142
H6 H 0.4871 0.1823 -0.2151
C7 C 0.5570(6) 0.0470(5) -0.1451(2)
H7 H 0.6380 -0.0003 -0.1391
C8 C 0.6681(4) 0.2037(4) 0.0917(2)
H8 H 0.7432 0.1547 0.0901
C9 C 0.5592(7) 0.0415(5) -0.2817(3)
H9 H 0.5599 0.0953 -0.3253
H10 H 0.6355 -0.0124 -0.2826
C9A C 0.4408(7) -0.0415(5) -0.2817(3)
C6A C 0.4392(6) -0.1249(5) -0.2140(2)
H5A H 0.3619 -0.1774 -0.2142
H6A H 0.5129 -0.1823 -0.2151
C7A C 0.4430(6) -0.0470(5) -0.1451(2)
N1A N 0.4628(4) -0.1318(4) -0.0836(2)
C3A C 0.3955(5) -0.1186(5) -0.0283(2)
H3A H 0.3301 -0.0574 -0.0278
C4A C 0.4181(4) -0.1986(4) 0.0362(2)
C5A C 0.5273(4) -0.2709(4) 0.0421(2)
C2A C 0.5459(4) -0.3448(4) 0.1020(2)
N2A N 0.4616(4) -0.3524(4) 0.15672(19)
C1A C 0.3570(4) -0.2821(4) 0.1502(2)
H1A H 0.2963 -0.2860 0.1878
C8A C 0.3319(4) -0.2037(4) 0.0917(2)
H8A H 0.2568 -0.1547 0.0901
H2A H 0.6215 -0.3928 0.1053
H4A H 0.5887 -0.2693 0.0048
H7A H 0.3620 0.0003 -0.1391
H9A H 0.4401 -0.0953 -0.3253
H10A H 0.3645 0.0124 -0.2826
N1A_2 N 0.4628(4) 0.8682(4) -0.0836(2)
N2A_2 N 0.4616(4) 0.6476(4) 0.15672(19)
C1A_2 C 0.3570(4) 0.7179(4) 0.1502(2)
H1A_2 H 0.2963 0.7140 0.1878
C2A_2 C 0.5459(4) 0.6552(4) 0.1020(2)
H2A_2 H 0.6215 0.6072 0.1053
C3A_2 C 0.3955(5) 0.8814(5) -0.0283(2)
H3A_2 H 0.3301 0.9426 -0.0278
C4A_2 C 0.4181(4) 0.8014(4) 0.0362(2)
C5A_2 C 0.5273(4) 0.7291(4) 0.0421(2)
H4A_2 H 0.5887 0.7307 0.0048
C6A_2 C 0.4392(6) 0.8751(5) -0.2140(2)
H5A_2 H 0.3619 0.8226 -0.2142
H6A_2 H 0.5129 0.8177 -0.2151
C7A_2 C 0.4430(6) 0.9530(5) -0.1451(2)
H7A_2 H 0.3620 1.0003 -0.1391
C8A_2 C 0.3319(4) 0.7963(4) 0.0917(2)
H8A_2 H 0.2568 0.8453 0.0901
C9A_2 C 0.4408(7) 0.9585(5) -0.2817(3)
H9A_2 H 0.4401 0.9047 -0.3253
H10A_2 H 0.3645 1.0124 -0.2826
C9_2 C 0.5592(7) 1.0415(5) -0.2817(3)
C6_2 C 0.5608(6) 1.1249(5) -0.2140(2)
H5_2 H 0.6381 1.1774 -0.2142
H6_2 H 0.4871 1.1823 -0.2151
C7_2 C 0.5570(6) 1.0470(5) -0.1451(2)
N1_2 N 0.5372(4) 1.1318(4) -0.0836(2)
C3_2 C 0.6045(5) 1.1186(5) -0.0283(2)
H3_2 H 0.6699 1.0574 -0.0278
C4_2 C 0.5819(4) 1.1986(4) 0.0362(2)
C5_2 C 0.4727(4) 1.2709(4) 0.0421(2)
C2_2 C 0.4541(4) 1.3448(4) 0.1020(2)
N2_2 N 0.5384(4) 1.3524(4) 0.15672(19)
C1_2 C 0.6430(4) 1.2821(4) 0.1502(2)
H1_2 H 0.7037 1.2860 0.1878
C8_2 C 0.6681(4) 1.2037(4) 0.0917(2)
H8_2 H 0.7432 1.1547 0.0901
H2_2 H 0.3785 1.3928 0.1053
H4_2 H 0.4113 1.2693 0.0048
H7_2 H 0.6380 0.9997 -0.1391
H9_2 H 0.5599 1.0953 -0.3253
H10_2 H 0.6355 0.9876 -0.2826
N2B N 0.6476(4) 0.4616(4) 0.34328(19)
N2C N 0.3524(4) 0.5384(4) 0.34328(19)
Ag1_2 Ag 0.5000 -0.5000 0.2500
Ag1_3 Ag 0.5000 1.5000 0.2500
loop_
_geom_bond_atom_site_label_1
_geom_bond_atom_site_label_2
_geom_bond_site_symmetry_1
_geom_bond_site_symmetry_2
Ag1 N2 1_555 1_555
P1 F1 1_555 1_555
N1 C3 1_555 1_555
N2 C1 1_555 1_555
C1 H1 1_555 1_555
C2 N2 1_555 1_555
H2 C2 1_555 1_555
C3 H3 1_555 1_555
C4 C3 1_555 1_555
C5 C2 1_555 1_555
H4 C5 1_555 1_555
C6 H5 1_555 1_555
H6 C6 1_555 1_555
C7 N1 1_555 1_555
H7 C7 1_555 1_555
C8 C1 1_555 1_555
H8 C8 1_555 1_555
C9 C6 1_555 1_555
H9 C9 1_555 1_555
H10 C9 1_555 1_555
F1 F2 1_555 1_555
F2 P1 1_555 1_555
N3 C10 1_555 1_555
C10 C10A 1_555 1_555
F3 P1 1_555 1_555
F4 P1 1_555 1_555
P1F P1 1_555 1_555
F1F P1 1_555 1_555
F1G P1 1_555 1_555
F1A P1 1_555 1_555
F2F P1 1_555 1_555
F2G P1 1_555 1_555
F2A P1 1_555 1_555
F3F P1 1_555 1_555
F3G P1 1_555 1_555
F3A P1 1_555 1_555
F4F P1F 1_555 1_555
F4A P1 1_555 1_555
F4G P1F 1_555 1_555
C9A C9 1_555 1_555
C6A C9A 1_555 1_555
H5A C6A 1_555 1_555
H6A C6A 1_555 1_555
C7A C7 1_555 1_555
N1A C7A 1_555 1_555
C3A N1A 1_555 1_555
H3A C3A 1_555 1_555
C4A C3A 1_555 1_555
C5A C4A 1_555 1_555
C2A C5A 1_555 1_555
N2A C2A 1_555 1_555
C1A N2A 1_555 1_555
H1A C1A 1_555 1_555
C8A C4A 1_555 1_555
H8A C8A 1_555 1_555
H2A C2A 1_555 1_555
H4A C5A 1_555 1_555
H7A C7A 1_555 1_555
H9A C9A 1_555 1_555
H10A C9A 1_555 1_555
C10A N3A 1_555 1_555
N1A_2 C3A_2 1_555 1_555
N2A_2 Ag1 1_555 1_555
C1A_2 N2A_2 1_555 1_555
H1A_2 C1A_2 1_555 1_555
C2A_2 N2A_2 1_555 1_555
H2A_2 C2A_2 1_555 1_555
C3A_2 H3A_2 1_555 1_555
C4A_2 C3A_2 1_555 1_555
C5A_2 C2A_2 1_555 1_555
H4A_2 C5A_2 1_555 1_555
C6A_2 H5A_2 1_555 1_555
H6A_2 C6A_2 1_555 1_555
C7A_2 N1A_2 1_555 1_555
H7A_2 C7A_2 1_555 1_555
C8A_2 C1A_2 1_555 1_555
H8A_2 C8A_2 1_555 1_555
C9A_2 C6A_2 1_555 1_555
H9A_2 C9A_2 1_555 1_555
H10A_2 C9A_2 1_555 1_555
C9_2 C9A_2 1_555 1_555
C6_2 C9_2 1_555 1_555
H5_2 C6_2 1_555 1_555
H6_2 C6_2 1_555 1_555
C7_2 C7A_2 1_555 1_555
N1_2 C7_2 1_555 1_555
C3_2 N1_2 1_555 1_555
H3_2 C3_2 1_555 1_555
C4_2 C3_2 1_555 1_555
C5_2 C4_2 1_555 1_555
C2_2 C5_2 1_555 1_555
N2_2 C2_2 1_555 1_555
C1_2 N2_2 1_555 1_555
H1_2 C1_2 1_555 1_555
C8_2 C4_2 1_555 1_555
H8_2 C8_2 1_555 1_555
H2_2 C2_2 1_555 1_555
H4_2 C5_2 1_555 1_555
H7_2 C7_2 1_555 1_555
H9_2 C9_2 1_555 1_555
H10_2 C9_2 1_555 1_555
N2B Ag1 1_555 1_555
N2C Ag1 1_555 1_555
Ag1_2 N2A 1_555 1_555
Ag1_3 N2_2 1_555 1_555
C4 C5 1_555 1_555
C4 C8 1_555 1_555
C6 C7 1_555 1_555
F1 P1F 1_555 1_555
F1 F3G 1_555 1_555
F2 P1F 1_555 1_555
F2 F4 1_555 1_555
F3 F4 1_555 1_555
F3 P1F 1_555 1_555
F3 F1F 1_555 1_555
F3 F4A 1_555 1_555
F4 F3A 1_555 1_555
P1F F1F 1_555 1_555
P1F F1G 1_555 1_555
P1F F2F 1_555 1_555
P1F F2G 1_555 1_555
P1F F3F 1_555 1_555
P1F F3G 1_555 1_555
P1F F1A 1_555 1_555
P1F F2A 1_555 1_555
P1F F3A 1_555 1_555
F1F F2F 1_555 1_555
F1G F3A 1_555 1_555
F1G F2G 1_555 1_555
F1A F2A 1_555 1_555
F1A F3F 1_555 1_555
F2F F4F 1_555 1_555
F2G F4G 1_555 1_555
F2A F4A 1_555 1_555
F3F F4F 1_555 1_555
F3F F4G 1_555 1_555
F3G F4F 1_555 1_555
F3G F4G 1_555 1_555
F3A F4A 1_555 1_555
C6A C7A 1_555 1_555
C1A C8A 1_555 1_555
C4A_2 C5A_2 1_555 1_555
C4A_2 C8A_2 1_555 1_555
C6A_2 C7A_2 1_555 1_555
C6_2 C7_2 1_555 1_555
C1_2 C8_2 1_555 1_555

#END
