
#######################################################################
#
#                 Cambridge Crystallographic Data Centre
#                                CCDC 
#
#######################################################################
#
# If this CIF has been generated from an entry in the Cambridge 
# Structural Database, then it will include bibliographic, chemical, 
# crystal, experimental, refinement or atomic coordinate data resulting 
# from the CCDC's data processing and validation procedures.
#
#######################################################################

data_IHUQEH
_symmetry_cell_setting           monoclinic
_symmetry_space_group_name_H-M   'C c'
_symmetry_Int_Tables_number      9
_space_group_name_Hall           'C -2yc'
loop_
_symmetry_equiv_pos_site_id
_symmetry_equiv_pos_as_xyz
1 x,y,z
2 x,-y,1/2+z
3 1/2+x,1/2+y,z
4 1/2+x,1/2-y,1/2+z
_cell_length_a                   24.0940(3)
_cell_length_b                   18.0610(2)
_cell_length_c                   17.9020(3)
_cell_angle_alpha                90
_cell_angle_beta                 119.2571(7)
_cell_angle_gamma                90
_cell_volume                     6796.5
loop_
_atom_site_label
_atom_site_type_symbol
_atom_site_fract_x
_atom_site_fract_y
_atom_site_fract_z
Ag1 Ag 0.223488(15) 0.19504(2) 1.157007(19)
Ag2 Ag 0.31774(2) 0.381765(18) 1.55606(2)
Ag3 Ag 0.406419(15) 0.19006(2) 0.92955(2)
N1 N 0.23969(19) 0.3266(2) 1.4397(2)
C1 C 0.1835(2) 0.3613(3) 1.3860(3)
C2 C 0.1697(2) 0.4287(3) 1.4125(3)
H1 H 0.1982 0.4480 1.4676
C3 C 0.1147(3) 0.4670(3) 1.3589(4)
H2 H 0.1060 0.5127 1.3773
C4 C 0.0717(3) 0.4394(3) 1.2776(3)
H3 H 0.0342 0.4664 1.2414
C5 C 0.0840(2) 0.3730(3) 1.2501(3)
H4 H 0.0550 0.3548 1.1946
C6 C 0.1396(2) 0.3317(3) 1.3041(3)
C7 C 0.1548(2) 0.2633(3) 1.2806(3)
C8 C 0.2106(2) 0.2283(3) 1.3366(3)
H5 H 0.2212 0.1815 1.3227
C9 C 0.2517(2) 0.2631(3) 1.4147(3)
H6 H 0.2906 0.2390 1.4520
C10 C 0.1096(2) 0.2269(3) 1.1984(3)
H7 H 0.0652 0.2309 1.1785
N2 N 0.12826(18) 0.1908(2) 1.1541(2)
C11 C 0.0789(2) 0.1546(3) 1.0760(3)
H8 H 0.0372 0.1594 1.0737
H9 H 0.0887 0.1012 1.0777
C12 C 0.0752(2) 0.1893(3) 0.9961(3)
H10 H 0.0437 0.1619 0.9450
H11 H 0.0603 0.2411 0.9909
N3 N 0.13683(18) 0.1885(2) 0.9982(2)
C13 C 0.1391(2) 0.1608(3) 0.9342(3)
H12 H 0.1023 0.1375 0.8900
C14 C 0.1981(2) 0.1643(3) 0.9274(3)
C15 C 0.2125(2) 0.1103(3) 0.8812(3)
C16 C 0.1744(2) 0.0481(3) 0.8395(3)
H13 H 0.1347 0.0422 0.8382
C17 C 0.1932(3) -0.0035(3) 0.8013(4)
H14 H 0.1666 -0.0447 0.7732
C18 C 0.2528(3) 0.0042(3) 0.8035(3)
H15 H 0.2670 -0.0334 0.7798
C19 C 0.2894(2) 0.0651(3) 0.8393(3)
H16 H 0.3279 0.0710 0.8375
C20 C 0.2708(2) 0.1192(3) 0.8790(3)
N4 N 0.30985(19) 0.1787(2) 0.9162(3)
C21 C 0.2937(2) 0.2278(3) 0.9560(3)
H17 H 0.3207 0.2693 0.9806
C22 C 0.2391(2) 0.2228(3) 0.9644(3)
H18 H 0.2303 0.2594 0.9953
N5 N 0.29815(18) 0.1286(2) 1.1476(2)
C23 C 0.2852(2) 0.0605(3) 1.1088(3)
C24 C 0.2305(2) 0.0220(3) 1.0962(3)
H19 H 0.2031 0.0438 1.1143
C25 C 0.2160(2) -0.0462(3) 1.0583(3)
H20 H 0.1796 -0.0722 1.0518
C26 C 0.2556(2) -0.0782(3) 1.0288(3)
H21 H 0.2451 -0.1253 1.0017
C27 C 0.3081(3) -0.0422(2) 1.0391(3)
H22 H 0.3338 -0.0644 1.0185
C28 C 0.3257(2) 0.0278(3) 1.0797(3)
C29 C 0.3798(2) 0.0691(3) 1.0913(3)
C30 C 0.3909(2) 0.1366(3) 1.1313(3)
H23 H 0.4271 0.1647 1.1406
C31 C 0.3497(2) 0.1645(3) 1.1583(3)
H24 H 0.3588 0.2115 1.1856
C32 C 0.4230(2) 0.0401(3) 1.0622(3)
H25 H 0.4248 -0.0118 1.0548
N6 N 0.4574(2) 0.0825(2) 1.0470(3)
C33 C 0.5001(2) 0.0475(3) 1.0193(3)
H26 H 0.4748 0.0174 0.9674
H27 H 0.5307 0.0145 1.0651
C34 C 0.5358(2) 0.1071(3) 1.0005(3)
H28 H 0.5585 0.1395 1.0512
H29 H 0.5679 0.0838 0.9885
N7 N 0.49160(19) 0.1520(2) 0.9262(3)
C35 C 0.5120(2) 0.1756(3) 0.8769(3)
H30 H 0.5547 0.1658 0.8908
C36 C 0.4700(2) 0.2181(3) 0.7981(3)
C37 C 0.4922(2) 0.2848(3) 0.7799(3)
C38 C 0.5512(2) 0.3181(3) 0.8362(3)
H31 H 0.5786 0.2948 0.8893
C39 C 0.5695(2) 0.3833(3) 0.8158(3)
H32 H 0.6091 0.4051 0.8548
C40 C 0.5296(2) 0.4179(3) 0.7368(3)
H33 H 0.5428 0.4627 0.7224
C41 C 0.4720(2) 0.3875(3) 0.6808(3)
H34 H 0.4458 0.4107 0.6271
C42 C 0.4515(2) 0.3221(3) 0.7025(3)
N8 N 0.3909(2) 0.2963(2) 0.6469(3)
C43 C 0.3718(2) 0.2344(3) 0.6670(3)
H35 H 0.3300 0.2171 0.6297
C44 C 0.4108(3) 0.1929(3) 0.7415(3)
H36 H 0.3958 0.1477 0.7520
N9 N 0.27710(19) 0.3054(2) 1.2285(2)
C45 C 0.2417(2) 0.3698(3) 1.2022(3)
C46 C 0.1909(2) 0.3741(3) 1.1172(3)
H37 H 0.1812 0.3327 1.0801
C47 C 0.1559(2) 0.4369(3) 1.0882(3)
H38 H 0.1226 0.4398 1.0305
C48 C 0.1686(3) 0.4977(3) 1.1432(4)
H39 H 0.1437 0.5414 1.1227
C49 C 0.2167(2) 0.4940(3) 1.2262(3)
H40 H 0.2240 0.5350 1.2631
C50 C 0.2555(2) 0.4315(2) 1.2582(3)
C51 C 0.3079(2) 0.4256(3) 1.3427(3)
C52 C 0.3436(2) 0.3621(3) 1.3659(3)
H41 H 0.3797 0.3577 1.4212
C53 C 0.3260(2) 0.3031(3) 1.3063(3)
H42 H 0.3510 0.2593 1.3237
C54 C 0.3244(2) 0.4891(3) 1.4030(3)
H43 H 0.3174 0.5381 1.3808
N10 N 0.34759(19) 0.4799(2) 1.4830(2)
C55 C 0.3642(2) 0.5487(3) 1.5346(3)
H44 H 0.3565 0.5920 1.4969
H45 H 0.4100 0.5479 1.5778
C56 C 0.3244(2) 0.5558(2) 1.5794(3)
H46 H 0.3374 0.6007 1.6157
H47 H 0.2789 0.5608 1.5361
N11 N 0.33339(18) 0.4903(2) 1.6325(2)
C57 C 0.3638(2) 0.4995(3) 1.7136(3)
H48 H 0.3799 0.5471 1.7362
C58 C 0.3747(2) 0.4367(2) 1.7734(3)
C59 C 0.4301(2) 0.4339(2) 1.8549(3)
C60 C 0.4808(2) 0.4851(3) 1.8838(3)
H49 H 0.4786 0.5253 1.8483
C61 C 0.5331(2) 0.4765(3) 1.9631(3)
H50 H 0.5670 0.5111 1.9817
C62 C 0.5380(2) 0.4181(3) 2.0173(3)
H51 H 0.5746 0.4138 2.0722
C63 C 0.4900(2) 0.3674(3) 1.9909(3)
H52 H 0.4933 0.3277 2.0277
C64 C 0.4354(2) 0.3734(2) 1.9095(3)
N12 N 0.38951(18) 0.3191(2) 1.8855(2)
C65 C 0.3388(2) 0.3245(3) 1.8090(3)
H53 H 0.3070 0.2873 1.7920
C66 C 0.3290(2) 0.3825(3) 1.7510(3)
H54 H 0.2912 0.3841 1.6971
N8_2 N 0.3909(2) 0.2963(2) 1.6469(3)
N12_2 N 0.38951(18) 0.3191(2) 0.8855(2)
Ag2_2 Ag 0.31774(2) 0.381765(18) 0.55606(2)
Ag3_2 Ag 0.406419(15) 0.19006(2) 1.92955(2)
Cl1 Cl 0.47467(6) 0.32479(6) 0.22612(7)
O1 O 0.5040(2) 0.3958(2) 0.2394(3)
O2 O 0.4327(2) 0.3255(3) 0.2626(3)
O3 O 0.4380(2) 0.3092(2) 0.1365(2)
O4 O 0.5212(2) 0.2684(2) 0.2681(3)
Cl2 Cl 0.44526(6) 0.17281(7) 0.51218(8)
O5 O 0.4420(2) 0.2516(2) 0.5058(3)
O6 O 0.50803(19) 0.1502(3) 0.5292(3)
O7 O 0.3969(2) 0.1404(3) 0.4353(3)
O8 O 0.4369(2) 0.1498(2) 0.5828(3)
Cl3 Cl 0.17779(7) 0.25224(8) 0.59327(10)
O9 O 0.1165(2) 0.2355(3) 0.5809(4)
O10 O 0.1793(3) 0.2265(3) 0.5185(3)
O11 O 0.1876(2) 0.3309(2) 0.6021(4)
O12 O 0.2267(3) 0.2157(3) 0.6654(3)
N13 N 0.4181(4) -0.0016(4) 0.2954(4)
C67 C 0.4499(4) 0.0514(4) 0.3162(4)
C68 C 0.4897(4) 0.1180(4) 0.3429(4)
H55 H 0.5142 0.1198 0.4056
H56 H 0.4627 0.1620 0.3215
H57 H 0.5190 0.1167 0.3195
N14 N 0.7099(6) 0.1166(7) 0.3819(8)
C69 C 0.6671(5) 0.1445(6) 0.3243(7)
C70 C 0.6262(7) 0.1800(7) 0.2475(9)
H58 H 0.6474 0.2237 0.2405
H59 H 0.5875 0.1955 0.2485
H60 H 0.6148 0.1460 0.1996
loop_
_geom_bond_atom_site_label_1
_geom_bond_atom_site_label_2
_geom_bond_site_symmetry_1
_geom_bond_site_symmetry_2
Ag1 N2 1_555 1_555
Ag2 N1 1_555 1_555
Ag3 N4 1_555 1_555
Cl1 O1 1_555 1_555
O2 Cl1 1_555 1_555
O3 Cl1 1_555 1_555
O4 Cl1 1_555 1_555
Cl2 O5 1_555 1_555
O6 Cl2 1_555 1_555
O7 Cl2 1_555 1_555
O8 Cl2 1_555 1_555
Cl3 O9 1_555 1_555
O10 Cl3 1_555 1_555
O11 Cl3 1_555 1_555
O12 Cl3 1_555 1_555
N1 C1 1_555 1_555
C1 C2 1_555 1_555
C2 H1 1_555 1_555
C3 C2 1_555 1_555
H2 C3 1_555 1_555
C4 C3 1_555 1_555
H3 C4 1_555 1_555
C5 C4 1_555 1_555
H4 C5 1_555 1_555
C6 C1 1_555 1_555
C7 C6 1_555 1_555
C8 C7 1_555 1_555
H5 C8 1_555 1_555
C9 N1 1_555 1_555
H6 C9 1_555 1_555
C10 C7 1_555 1_555
H7 C10 1_555 1_555
N2 C10 1_555 1_555
C11 N2 1_555 1_555
H8 C11 1_555 1_555
H9 C11 1_555 1_555
C12 C11 1_555 1_555
H10 C12 1_555 1_555
H11 C12 1_555 1_555
N3 Ag1 1_555 1_555
C13 N3 1_555 1_555
H12 C13 1_555 1_555
C14 C13 1_555 1_555
C15 C14 1_555 1_555
C16 C15 1_555 1_555
H13 C16 1_555 1_555
C17 C16 1_555 1_555
H14 C17 1_555 1_555
C18 C17 1_555 1_555
H15 C18 1_555 1_555
C19 C18 1_555 1_555
H16 C19 1_555 1_555
C20 C15 1_555 1_555
N4 C20 1_555 1_555
C21 N4 1_555 1_555
H17 C21 1_555 1_555
C22 C14 1_555 1_555
H18 C22 1_555 1_555
N5 Ag1 1_555 1_555
C23 N5 1_555 1_555
C24 C23 1_555 1_555
H19 C24 1_555 1_555
C25 C24 1_555 1_555
H20 C25 1_555 1_555
C26 C25 1_555 1_555
H21 C26 1_555 1_555
C27 C26 1_555 1_555
H22 C27 1_555 1_555
C28 C23 1_555 1_555
C29 C28 1_555 1_555
C30 C29 1_555 1_555
H23 C30 1_555 1_555
C31 N5 1_555 1_555
H24 C31 1_555 1_555
C32 C29 1_555 1_555
H25 C32 1_555 1_555
N6 Ag3 1_555 1_555
C33 N6 1_555 1_555
H26 C33 1_555 1_555
H27 C33 1_555 1_555
C34 C33 1_555 1_555
H28 C34 1_555 1_555
H29 C34 1_555 1_555
N7 Ag3 1_555 1_555
C35 N7 1_555 1_555
H30 C35 1_555 1_555
C36 C35 1_555 1_555
C37 C36 1_555 1_555
C38 C37 1_555 1_555
H31 C38 1_555 1_555
C39 C38 1_555 1_555
H32 C39 1_555 1_555
C40 C39 1_555 1_555
H33 C40 1_555 1_555
C41 C40 1_555 1_555
H34 C41 1_555 1_555
C42 C37 1_555 1_555
N8 C42 1_555 1_555
C43 N8 1_555 1_555
H35 C43 1_555 1_555
C44 C36 1_555 1_555
H36 C44 1_555 1_555
N9 Ag1 1_555 1_555
C45 N9 1_555 1_555
C46 C45 1_555 1_555
H37 C46 1_555 1_555
C47 C46 1_555 1_555
H38 C47 1_555 1_555
C48 C47 1_555 1_555
H39 C48 1_555 1_555
C49 C48 1_555 1_555
H40 C49 1_555 1_555
C50 C45 1_555 1_555
C51 C50 1_555 1_555
C52 C51 1_555 1_555
H41 C52 1_555 1_555
C53 N9 1_555 1_555
H42 C53 1_555 1_555
C54 C51 1_555 1_555
H43 C54 1_555 1_555
N10 Ag2 1_555 1_555
C55 N10 1_555 1_555
H44 C55 1_555 1_555
H45 C55 1_555 1_555
C56 C55 1_555 1_555
H46 C56 1_555 1_555
H47 C56 1_555 1_555
N11 Ag2 1_555 1_555
C57 N11 1_555 1_555
H48 C57 1_555 1_555
C58 C57 1_555 1_555
C59 C58 1_555 1_555
C60 C59 1_555 1_555
H49 C60 1_555 1_555
C61 C60 1_555 1_555
H50 C61 1_555 1_555
C62 C61 1_555 1_555
H51 C62 1_555 1_555
C63 C62 1_555 1_555
H52 C63 1_555 1_555
C64 C59 1_555 1_555
N12 C64 1_555 1_555
C65 N12 1_555 1_555
H53 C65 1_555 1_555
C66 C58 1_555 1_555
H54 C66 1_555 1_555
N13 C67 1_555 1_555
C67 C68 1_555 1_555
C68 H55 1_555 1_555
H56 C68 1_555 1_555
H57 C68 1_555 1_555
N14 C69 1_555 1_555
C69 C70 1_555 1_555
C70 H58 1_555 1_555
H59 C70 1_555 1_555
H60 C70 1_555 1_555
N8_2 Ag2 1_555 1_555
N12_2 Ag3 1_555 1_555
Ag2_2 N8 1_555 1_555
Ag3_2 N12 1_555 1_555
C5 C6 1_555 1_555
C8 C9 1_555 1_555
C12 N3 1_555 1_555
C19 C20 1_555 1_555
C21 C22 1_555 1_555
C27 C28 1_555 1_555
C30 C31 1_555 1_555
C32 N6 1_555 1_555
C34 N7 1_555 1_555
C41 C42 1_555 1_555
C43 C44 1_555 1_555
C49 C50 1_555 1_555
C52 C53 1_555 1_555
C54 N10 1_555 1_555
C56 N11 1_555 1_555
C63 C64 1_555 1_555
C65 C66 1_555 1_555

#END
