
#######################################################################
#
#                 Cambridge Crystallographic Data Centre
#                                CCDC 
#
#######################################################################
#
# If this CIF has been generated from an entry in the Cambridge 
# Structural Database, then it will include bibliographic, chemical, 
# crystal, experimental, refinement or atomic coordinate data resulting 
# from the CCDC's data processing and validation procedures.
#
#######################################################################

data_IHUTOW
_symmetry_cell_setting           monoclinic
_symmetry_space_group_name_H-M   'P 21/c'
_symmetry_Int_Tables_number      14
_space_group_name_Hall           '-P 2ybc'
loop_
_symmetry_equiv_pos_site_id
_symmetry_equiv_pos_as_xyz
1 x,y,z
2 -x,1/2+y,1/2-z
3 -x,-y,-z
4 x,1/2-y,1/2+z
_cell_length_a                   9.479(4)
_cell_length_b                   13.704(6)
_cell_length_c                   14.455(6)
_cell_angle_alpha                90
_cell_angle_beta                 99.424(6)
_cell_angle_gamma                90
_cell_volume                     1852.37
loop_
_atom_site_label
_atom_site_type_symbol
_atom_site_fract_x
_atom_site_fract_y
_atom_site_fract_z
Co1 Co 0.63414(4) 0.04180(3) 0.40842(3)
C1 C 0.7393(4) 0.2495(2) 0.4566(2)
H1 H 0.8187 0.2158 0.4872
C2 C 0.7414(4) 0.3497(2) 0.4595(2)
H2 H 0.8212 0.3820 0.4913
C3 C 0.6249(4) 0.4033(2) 0.4151(2)
C4 C 0.5114(4) 0.3489(2) 0.3706(2)
H3 H 0.4299 0.3805 0.3403
C5 C 0.5169(4) 0.2489(2) 0.3703(2)
H4 H 0.4384 0.2148 0.3392
C6 C 0.6135(4) 0.5099(3) 0.4104(3)
H5 H 0.5290 0.5344 0.3766
C7 C 0.7059(4) 0.5744(2) 0.4471(2)
H6 H 0.7894 0.5522 0.4839
C8 C 0.6874(4) 0.6809(2) 0.4346(2)
C9 C 0.7940(4) 0.7447(2) 0.4722(2)
H7 H 0.8791 0.7208 0.5057
C10 C 0.7747(4) 0.8439(2) 0.4604(2)
H8 H 0.8485 0.8851 0.4866
C11 C 0.5530(4) 0.8225(3) 0.3757(2)
H9 H 0.4692 0.8483 0.3423
C12 C 0.5648(4) 0.7221(2) 0.3839(2)
H10 H 0.4907 0.6823 0.3555
C13 C 0.6927(3) 0.0044(2) 0.6192(2)
C14 C 0.8117(3) 0.0045(2) 0.7031(2)
H11 H 0.7685 0.0171 0.7591
C15 C 0.9233(3) 0.0826(2) 0.6981(2)
H12 H 0.8784 0.1463 0.6968
H13 H 0.9620 0.0749 0.6404
C16 C 1.0450(4) 0.0776(3) 0.7813(3)
H14 H 1.0077 0.0928 0.8383
H15 H 1.1160 0.1265 0.7735
C17 C 1.1173(3) -0.0233(3) 0.7920(2)
H16 H 1.1812 -0.0242 0.8526
C18 C 1.0053(4) -0.1022(3) 0.7945(2)
H17 H 1.0508 -0.1655 0.7935
H18 H 0.9684 -0.0971 0.8531
C19 C 0.8808(3) -0.0971(3) 0.7138(2)
H19 H 0.8092 -0.1446 0.7241
H20 H 0.9144 -0.1142 0.6561
C20 C 1.2084(3) -0.0388(2) 0.7163(2)
N1 N 0.6291(3) 0.19818(18) 0.41229(18)
N2 N 0.6554(3) 0.88427(19) 0.41319(18)
O1 O 0.7128(2) 0.04868(15) 0.54653(15)
O2 O 0.5803(2) -0.04093(16) 0.62837(16)
O3 O 1.1539(2) -0.04999(16) 0.63181(15)
O4 O 1.3427(2) -0.03735(17) 0.73956(15)
Co1_2 Co 0.63414(4) 1.04180(3) 0.40842(3)
Co1B Co 0.36586(4) -0.04180(3) 0.59158(3)
Co1B_2 Co 1.36586(4) -0.04180(3) 0.59158(3)
N2_2 N 0.6554(3) -0.11573(19) 0.41319(18)
O2B O 0.4197(2) 0.04093(16) 0.37163(16)
O3B O 0.8461(2) 0.04999(16) 0.36819(15)
O4B O 0.6573(2) 0.03735(17) 0.26044(15)
loop_
_geom_bond_atom_site_label_1
_geom_bond_atom_site_label_2
_geom_bond_site_symmetry_1
_geom_bond_site_symmetry_2
Co1 N1 1_555 1_555
C1 H1 1_555 1_555
C2 C1 1_555 1_555
H2 C2 1_555 1_555
C3 C2 1_555 1_555
C4 C3 1_555 1_555
H3 C4 1_555 1_555
C5 C4 1_555 1_555
H4 C5 1_555 1_555
C6 C3 1_555 1_555
H5 C6 1_555 1_555
C7 C6 1_555 1_555
H6 C7 1_555 1_555
C8 C7 1_555 1_555
C9 C8 1_555 1_555
H7 C9 1_555 1_555
C10 C9 1_555 1_555
H8 C10 1_555 1_555
C11 H9 1_555 1_555
C12 C8 1_555 1_555
H10 C12 1_555 1_555
C13 C14 1_555 1_555
C14 H11 1_555 1_555
C15 C14 1_555 1_555
H12 C15 1_555 1_555
H13 C15 1_555 1_555
C16 C15 1_555 1_555
H14 C16 1_555 1_555
H15 C16 1_555 1_555
C17 C16 1_555 1_555
H16 C17 1_555 1_555
C18 C17 1_555 1_555
H17 C18 1_555 1_555
H18 C18 1_555 1_555
C19 C14 1_555 1_555
H19 C19 1_555 1_555
H20 C19 1_555 1_555
C20 C17 1_555 1_555
N1 C1 1_555 1_555
N2 C10 1_555 1_555
O1 Co1 1_555 1_555
O2 C13 1_555 1_555
O3 C20 1_555 1_555
O4 C20 1_555 1_555
Co1_2 N2 1_555 1_555
Co1B O2 1_555 1_555
Co1B_2 O3 1_555 1_555
N2_2 Co1 1_555 1_555
O2B Co1 1_555 1_555
O3B Co1 1_555 1_555
O4B Co1 1_555 1_555
C5 N1 1_555 1_555
C11 C12 1_555 1_555
C11 N2 1_555 1_555
C13 O1 1_555 1_555
C18 C19 1_555 1_555
O4 Co1B_2 1_555 1_555

#END
