
#######################################################################
#
#                 Cambridge Crystallographic Data Centre
#                                CCDC 
#
#######################################################################
#
# If this CIF has been generated from an entry in the Cambridge 
# Structural Database, then it will include bibliographic, chemical, 
# crystal, experimental, refinement or atomic coordinate data resulting 
# from the CCDC's data processing and validation procedures.
#
#######################################################################

data_IHUWOZ
_symmetry_cell_setting           monoclinic
_symmetry_space_group_name_H-M   'C 2/c'
_symmetry_Int_Tables_number      15
_space_group_name_Hall           '-C 2yn'
loop_
_symmetry_equiv_pos_site_id
_symmetry_equiv_pos_as_xyz
1 x,y,z
2 -x,y,1/2-z
3 1/2+x,1/2+y,z
4 1/2-x,1/2+y,1/2-z
5 -x,-y,-z
6 x,-y,1/2+z
7 1/2-x,1/2-y,-z
8 1/2+x,1/2-y,1/2+z
_cell_length_a                   37.216(12)
_cell_length_b                   8.160(2)
_cell_length_c                   39.271(13)
_cell_angle_alpha                90
_cell_angle_beta                 110.39(4)
_cell_angle_gamma                90
_cell_volume                     11178.7
loop_
_atom_site_label
_atom_site_type_symbol
_atom_site_fract_x
_atom_site_fract_y
_atom_site_fract_z
Hg1 Hg 0.11161(3) 1.66633(13) 0.23395(3)
Hg2 Hg 0.48479(3) 1.25450(13) 0.35363(3)
Hg3 Hg 0.39624(3) -0.16997(11) 0.52534(3)
Hg4 Hg 0.02692(2) 0.21184(11) 0.39498(3)
Zn1 Zn 0.25591(7) 0.7543(3) 0.38053(7)
Cl1 Cl 0.0770(2) 1.9078(8) 0.2137(2)
Cl2 Cl 0.53436(19) 1.3935(9) 0.3434(2)
Cl3 Cl 0.4179(2) -0.4132(8) 0.55584(19)
Cl4 Cl -0.02393(17) 0.0867(8) 0.4052(2)
O1 O 0.2588(4) 0.864(2) 0.4305(5)
N1 N 0.2680(5) 0.943(2) 0.3509(5)
N2 N 0.3128(5) 0.679(2) 0.3949(5)
N3 N 0.2427(5) 0.529(2) 0.3961(5)
N4 N 0.1985(5) 0.802(2) 0.3539(5)
N5 N 0.2304(6) 0.942(3) 0.4697(6)
C1 C 0.2031(6) 1.056(2) 0.3208(7)
C2 C 0.2433(6) 1.044(3) 0.3289(6)
C3 C 0.2622(7) 1.153(3) 0.3105(6)
H1 H 0.2508 1.2343 0.2937
C4 C 0.2995(6) 1.111(3) 0.3230(6)
H2 H 0.3187 1.1578 0.3162
C5 C 0.3043(6) 0.979(2) 0.3491(6)
C6 C 0.3380(6) 0.905(3) 0.3689(6)
C7 C 0.3428(6) 0.764(3) 0.3908(6)
C8 C 0.3788(6) 0.682(3) 0.4109(6)
H3 H 0.4033 0.7140 0.4123
C9 C 0.3698(6) 0.551(3) 0.4269(7)
H4 H 0.3871 0.4772 0.4419
C10 C 0.3287(6) 0.546(2) 0.4168(6)
C11 C 0.3094(6) 0.420(3) 0.4299(6)
C12 C 0.2695(6) 0.416(2) 0.4186(5)
C13 C 0.2482(7) 0.303(3) 0.4316(7)
H5 H 0.2590 0.2183 0.4476
C14 C 0.2108(6) 0.335(3) 0.4178(7)
H6 H 0.1912 0.2741 0.4212
C15 C 0.2068(6) 0.483(3) 0.3965(6)
C16 C 0.1725(5) 0.565(2) 0.3783(5)
C17 C 0.1688(6) 0.710(3) 0.3587(6)
C18 C 0.1325(6) 0.789(3) 0.3384(6)
H7 H 0.1082 0.7516 0.3363
C19 C 0.1404(6) 0.924(3) 0.3234(7)
H8 H 0.1228 1.0002 0.3095
C20 C 0.1815(6) 0.931(2) 0.3330(5)
C21 C 0.1800(5) 1.183(3) 0.2968(6)
C22 C 0.1508(5) 1.159(3) 0.2661(5)
H9 H 0.1428 1.0548 0.2570
C23 C 0.1326(6) 1.305(3) 0.2477(6)
H10 H 0.1121 1.2907 0.2261
C24 C 0.1417(6) 1.458(3) 0.2582(7)
C25 C 0.1724(6) 1.485(3) 0.2906(6)
H11 H 0.1802 1.5900 0.2992
C26 C 0.1914(5) 1.340(3) 0.3099(6)
H12 H 0.2119 1.3528 0.3316
C27 C 0.3746(5) 0.980(3) 0.3663(5)
C28 C 0.3820(6) 1.146(3) 0.3767(5)
H13 H 0.3654 1.2047 0.3852
C29 C 0.4142(6) 1.221(3) 0.3740(5)
H14 H 0.4190 1.3303 0.3808
C30 C 0.4390(6) 1.139(2) 0.3618(5)
C31 C 0.4315(5) 0.972(2) 0.3517(6)
H15 H 0.4482 0.9125 0.3433
C32 C 0.3995(6) 0.898(3) 0.3543(6)
H16 H 0.3947 0.7886 0.3477
C33 C 0.3317(5) 0.279(3) 0.4511(6)
C34 C 0.3567(5) 0.329(3) 0.4850(6)
H17 H 0.3603 0.4377 0.4926
C35 C 0.3765(5) 0.191(3) 0.5074(6)
H18 H 0.3939 0.2110 0.5306
C36 C 0.3702(6) 0.027(3) 0.4949(7)
C37 C 0.3445(5) 0.003(3) 0.4606(6)
H19 H 0.3401 -0.1047 0.4522
C38 C 0.3243(5) 0.126(2) 0.4375(6)
H20 H 0.3070 0.1051 0.4143
C39 C 0.1370(5) 0.485(2) 0.3792(5)
C40 C 0.1282(6) 0.325(3) 0.3703(5)
H21 H 0.1445 0.2652 0.3616
C41 C 0.0970(6) 0.244(3) 0.3734(6)
H22 H 0.0923 0.1352 0.3665
C42 C 0.0732(5) 0.327(3) 0.3866(5)
C43 C 0.0788(6) 0.491(3) 0.3952(6)
H23 H 0.0613 0.5488 0.4026
C44 C 0.1115(5) 0.569(3) 0.3925(5)
H24 H 0.1164 0.6779 0.3997
C45 C 0.2661(9) 0.954(4) 0.5002(8)
H25 H 0.2654 0.8816 0.5192
H26 H 0.2695 1.0648 0.5091
H27 H 0.2871 0.9244 0.4925
C46 C 0.1958(9) 0.988(4) 0.4767(9)
H28 H 0.1737 0.9663 0.4555
H29 H 0.1967 1.1029 0.4823
H30 H 0.1941 0.9258 0.4968
C47 C 0.2293(8) 0.899(3) 0.4372(7)
H31 H 0.2056 0.8942 0.4185
O2 O 0.1832(5) 1.811(2) 0.2453(5)
N6 N 0.2000(6) 2.002(2) 0.2104(6)
C48 C 0.2308(10) 2.103(3) 0.2065(9)
H32 H 0.2534 2.0894 0.2276
H33 H 0.2231 2.2156 0.2041
H34 H 0.2360 2.0688 0.1853
C49 C 0.1626(9) 2.007(4) 0.1825(8)
H35 H 0.1648 1.9801 0.1595
H36 H 0.1520 2.1153 0.1813
H37 H 0.1461 1.9296 0.1881
C50 C 0.2061(7) 1.906(3) 0.2385(7)
H38 H 0.2307 1.9097 0.2557
O3 O 0.4722(6) -0.026(3) 0.5509(6)
N7 N 0.5150(11) -0.152(4) 0.5327(8)
C51 C 0.5466(12) -0.217(5) 0.5295(11)
H39 H 0.5396 -0.2992 0.5110
H40 H 0.5610 -0.1321 0.5231
H41 H 0.5619 -0.2648 0.5523
C52 C 0.480(2) -0.254(10) 0.505(2)
H42 H 0.4896 -0.3337 0.4925
H43 H 0.4664 -0.3098 0.5186
H44 H 0.4628 -0.1810 0.4880
C53 C 0.5051(18) -0.032(6) 0.5510(14)
H45 H 0.5231 0.0466 0.5635
Hg2B Hg -0.01521(3) -0.24550(13) 0.35363(3)
Hg2C Hg 0.01521(3) 1.75450(13) 0.14637(3)
Hg4B Hg 0.52692(2) 1.71184(11) 0.39498(3)
Hg4F Hg 0.47308(2) -0.71184(11) 0.60502(3)
Cl1C Cl 0.4230(2) 1.4078(8) 0.2863(2)
Cl2B Cl 0.03436(19) -0.1065(9) 0.3434(2)
Cl3F Cl 0.0821(2) -0.0868(8) 0.44416(19)
Cl4B Cl 0.47607(17) 1.5867(8) 0.4052(2)
C54 C 0.4862(10) 0.991(4) 0.3055(9)
H46 H 0.4897 1.1032 0.3131
H47 H 0.4836 0.9244 0.3247
H48 H 0.4635 0.9809 0.2843
N8 N 0.517(2) 0.940(12) 0.298(2)
C55 C 0.518(4) 0.787(14) 0.286(4)
H49 H 0.4998 0.7109 0.2856
O4 O 0.547(3) 0.740(13) 0.274(3)
C56 C 0.537(3) 1.044(13) 0.280(3)
H50 H 0.5569 0.9830 0.2766
H51 H 0.5469 1.1366 0.2956
H52 H 0.5189 1.0805 0.2573
loop_
_geom_bond_atom_site_label_1
_geom_bond_atom_site_label_2
_geom_bond_site_symmetry_1
_geom_bond_site_symmetry_2
Hg1 Cl1 1_555 1_555
Hg2 Cl2 1_555 1_555
Hg3 Cl3 1_555 1_555
Hg4 Cl4 1_555 1_555
Zn1 O1 1_555 1_555
Cl1 Hg2C 1_555 1_555
Cl2 Hg4B 1_555 1_555
Cl3 Hg4F 1_555 1_555
Cl4 Hg2B 1_555 1_555
O1 C47 1_555 1_555
N1 Zn1 1_555 1_555
N2 Zn1 1_555 1_555
N3 Zn1 1_555 1_555
N4 Zn1 1_555 1_555
N5 C45 1_555 1_555
C1 C2 1_555 1_555
C2 N1 1_555 1_555
C3 C2 1_555 1_555
H1 C3 1_555 1_555
C4 C3 1_555 1_555
H2 C4 1_555 1_555
C5 N1 1_555 1_555
C6 C5 1_555 1_555
C7 N2 1_555 1_555
C8 C7 1_555 1_555
H3 C8 1_555 1_555
C9 C8 1_555 1_555
H4 C9 1_555 1_555
C10 N2 1_555 1_555
C11 C10 1_555 1_555
C12 N3 1_555 1_555
C13 C12 1_555 1_555
H5 C13 1_555 1_555
C14 C13 1_555 1_555
H6 C14 1_555 1_555
C15 N3 1_555 1_555
C16 C15 1_555 1_555
C17 N4 1_555 1_555
C18 C17 1_555 1_555
H7 C18 1_555 1_555
C19 C18 1_555 1_555
H8 C19 1_555 1_555
C20 N4 1_555 1_555
C21 C1 1_555 1_555
C22 C21 1_555 1_555
H9 C22 1_555 1_555
C23 C22 1_555 1_555
H10 C23 1_555 1_555
C24 Hg1 1_555 1_555
C25 C24 1_555 1_555
H11 C25 1_555 1_555
C26 C21 1_555 1_555
H12 C26 1_555 1_555
C27 C6 1_555 1_555
C28 C27 1_555 1_555
H13 C28 1_555 1_555
C29 C28 1_555 1_555
H14 C29 1_555 1_555
C30 Hg2 1_555 1_555
C31 C30 1_555 1_555
H15 C31 1_555 1_555
C32 C27 1_555 1_555
H16 C32 1_555 1_555
C33 C11 1_555 1_555
C34 C33 1_555 1_555
H17 C34 1_555 1_555
C35 C34 1_555 1_555
H18 C35 1_555 1_555
C36 Hg3 1_555 1_555
C37 C36 1_555 1_555
H19 C37 1_555 1_555
C38 C33 1_555 1_555
H20 C38 1_555 1_555
C39 C16 1_555 1_555
C40 C39 1_555 1_555
H21 C40 1_555 1_555
C41 C40 1_555 1_555
H22 C41 1_555 1_555
C42 Hg4 1_555 1_555
C43 C42 1_555 1_555
H23 C43 1_555 1_555
C44 C39 1_555 1_555
H24 C44 1_555 1_555
C45 H25 1_555 1_555
H26 C45 1_555 1_555
H27 C45 1_555 1_555
C46 N5 1_555 1_555
H28 C46 1_555 1_555
H29 C46 1_555 1_555
H30 C46 1_555 1_555
C47 N5 1_555 1_555
H31 C47 1_555 1_555
O2 Hg1 1_555 1_555
N6 C48 1_555 1_555
C48 H32 1_555 1_555
H33 C48 1_555 1_555
H34 C48 1_555 1_555
C49 N6 1_555 1_555
H35 C49 1_555 1_555
H36 C49 1_555 1_555
H37 C49 1_555 1_555
C50 O2 1_555 1_555
H38 C50 1_555 1_555
O3 Hg3 1_555 1_555
N7 C51 1_555 1_555
C51 H39 1_555 1_555
H40 C51 1_555 1_555
H41 C51 1_555 1_555
C52 N7 1_555 1_555
H42 C52 1_555 1_555
H43 C52 1_555 1_555
H44 C52 1_555 1_555
C53 O3 1_555 1_555
H45 C53 1_555 1_555
C54 H46 1_555 1_555
H47 C54 1_555 1_555
H48 C54 1_555 1_555
N8 C54 1_555 1_555
C55 N8 1_555 1_555
H49 C55 1_555 1_555
O4 C55 1_555 1_555
C56 N8 1_555 1_555
H50 C56 1_555 1_555
H51 C56 1_555 1_555
H52 C56 1_555 1_555
Hg2B Cl2B 1_555 1_555
Hg4B Cl4B 1_555 1_555
Cl1C Hg2 1_555 1_555
Cl2B Hg4 1_555 1_555
Cl3F Hg4 1_555 1_555
Cl4B Hg2 1_555 1_555
C1 C20 1_555 1_555
C4 C5 1_555 1_555
C6 C7 1_555 1_555
C9 C10 1_555 1_555
C11 C12 1_555 1_555
C14 C15 1_555 1_555
C16 C17 1_555 1_555
C19 C20 1_555 1_555
C23 C24 1_555 1_555
C25 C26 1_555 1_555
C29 C30 1_555 1_555
C31 C32 1_555 1_555
C35 C36 1_555 1_555
C37 C38 1_555 1_555
C41 C42 1_555 1_555
C43 C44 1_555 1_555
N6 C50 1_555 1_555
N7 C53 1_555 1_555

#END
