
#######################################################################
#
#                 Cambridge Crystallographic Data Centre
#                                CCDC 
#
#######################################################################
#
# If this CIF has been generated from an entry in the Cambridge 
# Structural Database, then it will include bibliographic, chemical, 
# crystal, experimental, refinement or atomic coordinate data resulting 
# from the CCDC's data processing and validation procedures.
#
#######################################################################

data_IHUZAO
_symmetry_cell_setting           orthorhombic
_symmetry_space_group_name_H-M   'P 21 21 21'
_symmetry_Int_Tables_number      19
_space_group_name_Hall           'P 2ac 2ab'
loop_
_symmetry_equiv_pos_site_id
_symmetry_equiv_pos_as_xyz
1 x,y,z
2 1/2+x,1/2-y,-z
3 -x,1/2+y,1/2-z
4 1/2-x,-y,1/2+z
_cell_length_a                   4.9525(15)
_cell_length_b                   9.100(3)
_cell_length_c                   15.704(2)
_cell_angle_alpha                90
_cell_angle_beta                 90
_cell_angle_gamma                90
_cell_volume                     707.744
loop_
_atom_site_label
_atom_site_type_symbol
_atom_site_fract_x
_atom_site_fract_y
_atom_site_fract_z
Li1 Li 0.4760(3) 0.58706(15) 0.55699(9)
B1 B 0.02936(14) 0.56795(8) 0.43284(5)
F1 F 0.19402(8) 0.48938(5) 0.49012(3)
F2 F -0.23838(8) 0.56141(4) 0.45910(3)
F3 F 0.11936(9) 0.71427(5) 0.43340(3)
F4 F 0.05644(8) 0.50887(5) 0.35241(3)
N1 N 0.20474(14) 0.63741(7) 0.66001(4)
N2 N 0.33513(13) 0.90694(7) 0.88337(4)
C1 C 0.04239(14) 0.67865(8) 0.70562(5)
C2 C -0.16533(13) 0.72964(8) 0.76521(5)
H1 H -0.3221(18) 0.6634(11) 0.7597(6)
H2 H -0.2273(17) 0.8284(10) 0.7490(6)
C3 C -0.06606(13) 0.72736(8) 0.85767(5)
H3 H -0.216(2) 0.7624(10) 0.8930(6)
H4 H -0.008(2) 0.6288(12) 0.8737(7)
C4 C 0.16100(13) 0.82666(8) 0.87206(4)
Li1_2 Li -0.5240(3) 0.58706(15) 0.55699(9)
Li1A Li -0.0240(3) 0.91294(15) 0.44301(9)
Li1B Li 0.5240(3) 1.08706(15) 0.94301(9)
F2_2 F 0.76162(8) 0.56141(4) 0.45910(3)
F3A F 0.61936(9) 0.78573(5) 0.56660(3)
N2B N 0.66487(13) 0.40694(7) 0.61663(4)
loop_
_geom_bond_atom_site_label_1
_geom_bond_atom_site_label_2
_geom_bond_site_symmetry_1
_geom_bond_site_symmetry_2
Li1 F1 1_555 1_555
B1 F1 1_555 1_555
F2 B1 1_555 1_555
F3 B1 1_555 1_555
F4 B1 1_555 1_555
N1 Li1 1_555 1_555
N2 C4 1_555 1_555
C1 N1 1_555 1_555
C2 C1 1_555 1_555
H1 C2 1_555 1_555
H2 C2 1_555 1_555
C3 C2 1_555 1_555
H3 C3 1_555 1_555
H4 C3 1_555 1_555
C4 C3 1_555 1_555
Li1_2 F2 1_555 1_555
Li1A F3 1_555 1_555
Li1B N2 1_555 1_555
F2_2 Li1 1_555 1_555
F3A Li1 1_555 1_555
N2B Li1 1_555 1_555

#END
