
#######################################################################
#
#                 Cambridge Crystallographic Data Centre
#                                CCDC 
#
#######################################################################
#
# If this CIF has been generated from an entry in the Cambridge 
# Structural Database, then it will include bibliographic, chemical, 
# crystal, experimental, refinement or atomic coordinate data resulting 
# from the CCDC's data processing and validation procedures.
#
#######################################################################

data_IHUZIW
_symmetry_cell_setting           monoclinic
_symmetry_space_group_name_H-M   'P 21/c'
_symmetry_Int_Tables_number      14
_space_group_name_Hall           '-P 2ybc'
loop_
_symmetry_equiv_pos_site_id
_symmetry_equiv_pos_as_xyz
1 x,y,z
2 -x,1/2+y,1/2-z
3 -x,-y,-z
4 x,1/2-y,1/2+z
_cell_length_a                   9.0057(6)
_cell_length_b                   9.1739(6)
_cell_length_c                   9.6690(6)
_cell_angle_alpha                90
_cell_angle_beta                 110.862(3)
_cell_angle_gamma                90
_cell_volume                     746.457
loop_
_atom_site_label
_atom_site_type_symbol
_atom_site_fract_x
_atom_site_fract_y
_atom_site_fract_z
Li1 Li 0.9657(6) 0.3426(5) 0.1371(6)
B1 B 1.1410(4) 0.1679(4) 0.4194(4)
F1 F 1.0467(3) 0.2763(2) 0.3300(2)
F2 F 1.1261(2) 0.1761(2) 0.5581(2)
F3 F 1.0796(3) 0.0362(2) 0.3556(2)
F4 F 1.2931(3) 0.1841(3) 0.4335(3)
O1 O 0.7810(3) 0.2409(2) 0.0178(2)
C1 C 0.6569(4) 0.3005(4) -0.1101(4)
H1 H 0.7030 0.3610 -0.1695
H2 H 0.5835 0.3616 -0.0793
C2 C 0.5716(6) 0.1727(5) -0.1972(5)
H3 H 0.4604 0.1710 -0.2008
H4 H 0.5706 0.1784 -0.2998
C3 C 0.6509(7) 0.0473(5) -0.1282(6)
H5 H 0.6972 -0.0026 -0.1942
H6 H 0.5746 -0.0202 -0.1091
C4 C 0.7763(4) 0.0839(4) 0.0105(4)
H7 H 0.7528 0.0429 0.0952
H8 H 0.8795 0.0448 0.0127
Li1A Li 1.0343(6) -0.1574(5) 0.3629(6)
Li1C Li 0.9657(6) 0.1574(5) 0.6371(6)
F2C F 1.1261(2) 0.3239(2) 0.0581(2)
F3A F 0.9204(3) 0.5362(2) 0.1444(2)
loop_
_geom_bond_atom_site_label_1
_geom_bond_atom_site_label_2
_geom_bond_site_symmetry_1
_geom_bond_site_symmetry_2
Li1 F1 1_555 1_555
B1 F1 1_555 1_555
F2 B1 1_555 1_555
F3 B1 1_555 1_555
F4 B1 1_555 1_555
O1 Li1 1_555 1_555
C1 O1 1_555 1_555
H1 C1 1_555 1_555
H2 C1 1_555 1_555
C2 C1 1_555 1_555
H3 C2 1_555 1_555
H4 C2 1_555 1_555
C3 C2 1_555 1_555
H5 C3 1_555 1_555
H6 C3 1_555 1_555
C4 O1 1_555 1_555
H7 C4 1_555 1_555
H8 C4 1_555 1_555
Li1A F3 1_555 1_555
Li1C F2 1_555 1_555
F2C Li1 1_555 1_555
F3A Li1 1_555 1_555
C3 C4 1_555 1_555

#END
