
#######################################################################
#
#                 Cambridge Crystallographic Data Centre
#                                CCDC 
#
#######################################################################
#
# If this CIF has been generated from an entry in the Cambridge 
# Structural Database, then it will include bibliographic, chemical, 
# crystal, experimental, refinement or atomic coordinate data resulting 
# from the CCDC's data processing and validation procedures.
#
#######################################################################

data_IJACEB
_symmetry_cell_setting           orthorhombic
_symmetry_space_group_name_H-M   'P 21 21 21'
_symmetry_Int_Tables_number      19
_space_group_name_Hall           'P 2ac 2ab'
loop_
_symmetry_equiv_pos_site_id
_symmetry_equiv_pos_as_xyz
1 x,y,z
2 1/2-x,-y,1/2+z
3 -x,1/2+y,1/2-z
4 1/2+x,1/2-y,-z
_cell_length_a                   9.805(1)
_cell_length_b                   11.677(2)
_cell_length_c                   14.064(3)
_cell_angle_alpha                90
_cell_angle_beta                 90
_cell_angle_gamma                90
_cell_volume                     1610.23
loop_
_atom_site_label
_atom_site_type_symbol
_atom_site_fract_x
_atom_site_fract_y
_atom_site_fract_z
Cu1 Cu 0.61359(3) 0.16815(3) 0.50556(3)
O1 O 0.6973(2) 0.3034(2) 0.45003(18)
O2 O 0.9084(2) 0.25666(19) 0.4947(3)
N1 N 1.1576(3) 0.3029(3) 0.3586(2)
N2 N 1.0840(3) 0.4118(3) 0.6170(2)
N3 N 1.0121(3) 0.4706(2) 0.4374(2)
C1 C 1.2003(4) 0.2032(4) 0.3200(3)
H1 H 1.2132 0.1399 0.3591
C2 C 1.2252(4) 0.1936(4) 0.2237(3)
H2 H 1.2571 0.1250 0.1985
C3 C 1.2029(5) 0.2853(5) 0.1656(3)
H3 H 1.2188 0.2795 0.1006
C4 C 1.1563(5) 0.3872(4) 0.2042(3)
H4 H 1.1392 0.4504 0.1658
C5 C 1.1359(4) 0.3925(3) 0.3015(3)
C6 C 1.0897(4) 0.5001(3) 0.3510(3)
H5 H 1.1684 0.5460 0.3680
H6 H 1.0328 0.5448 0.3085
C7 C 1.0164(4) 0.5631(3) 0.5096(3)
H7 H 0.9355 0.6103 0.5035
H8 H 1.0954 0.6112 0.4981
C8 C 1.0238(4) 0.5154(3) 0.6090(3)
C9 C 0.9796(4) 0.5748(4) 0.6884(3)
H9 H 0.9358 0.6450 0.6816
C10 C 1.0009(4) 0.5296(4) 0.7769(3)
H10 H 0.9729 0.5692 0.8308
C11 C 1.0646(4) 0.4240(4) 0.7853(3)
H11 H 1.0798 0.3917 0.8448
C12 C 1.1045(4) 0.3684(3) 0.7044(2)
H12 H 1.1476 0.2977 0.7100
C13 C 0.8248(3) 0.3220(3) 0.4574(2)
C14 C 0.8703(3) 0.4349(3) 0.4140(2)
H13 H 0.8623 0.4292 0.3454
H14 H 0.8084 0.4945 0.4349
O2C O 0.4084(2) 0.24334(19) 0.5053(3)
N1C N 0.6576(3) 0.1971(3) 0.6414(2)
N2C N 0.5840(3) 0.0882(3) 0.3830(2)
N3C N 0.5121(3) 0.0294(2) 0.5626(2)
Cu1C Cu 1.11359(3) 0.33185(3) 0.49444(3)
N4 N 0.8371(4) 0.3502(3) 1.0937(4)
O3 O 0.8919(7) 0.3647(6) 1.0120(4)
O4 O 0.8480(6) 0.4295(5) 1.1498(5)
O5 O 0.7756(7) 0.2625(4) 1.1036(6)
O6 O 0.3738(4) 0.4838(3) 0.4998(3)
H15 H 0.406(5) 0.422(3) 0.505(5)
H16 H 0.448(4) 0.508(5) 0.508(5)
O7? O 0.841(2) 0.323(2) 1.1838(10)
O8? O 0.850(3) 0.4439(12) 1.0728(16)
O9? O 0.783(3) 0.2731(16) 1.0508(15)
loop_
_geom_bond_atom_site_label_1
_geom_bond_atom_site_label_2
_geom_bond_site_symmetry_1
_geom_bond_site_symmetry_2
Cu1 O1 1_555 1_555
O1 C13 1_555 1_555
O2 C13 1_555 1_555
N1 C1 1_555 1_555
N2 C8 1_555 1_555
N3 C6 1_555 1_555
C1 H1 1_555 1_555
C2 C1 1_555 1_555
H2 C2 1_555 1_555
C3 C2 1_555 1_555
H3 C3 1_555 1_555
C4 C3 1_555 1_555
H4 C4 1_555 1_555
C5 N1 1_555 1_555
C6 C5 1_555 1_555
H5 C6 1_555 1_555
H6 C6 1_555 1_555
C7 N3 1_555 1_555
H7 C7 1_555 1_555
H8 C7 1_555 1_555
C8 C7 1_555 1_555
C9 C8 1_555 1_555
H9 C9 1_555 1_555
C10 C9 1_555 1_555
H10 C10 1_555 1_555
C11 C10 1_555 1_555
H11 C11 1_555 1_555
C12 N2 1_555 1_555
H12 C12 1_555 1_555
C13 C14 1_555 1_555
C14 N3 1_555 1_555
H13 C14 1_555 1_555
H14 C14 1_555 1_555
N4 O3 1_555 1_555
O4 N4 1_555 1_555
O5 N4 1_555 1_555
O6 H15 1_555 1_555
H16 O6 1_555 1_555
O2C Cu1 1_555 1_555
N1C Cu1 1_555 1_555
N2C Cu1 1_555 1_555
N3C Cu1 1_555 1_555
Cu1C O2 1_555 1_555
N1 Cu1C 1_555 1_555
N2 Cu1C 1_555 1_555
N3 Cu1C 1_555 1_555
C4 C5 1_555 1_555
C11 C12 1_555 1_555

#END
