
#######################################################################
#
#                 Cambridge Crystallographic Data Centre
#                                CCDC 
#
#######################################################################
#
# If this CIF has been generated from an entry in the Cambridge 
# Structural Database, then it will include bibliographic, chemical, 
# crystal, experimental, refinement or atomic coordinate data resulting 
# from the CCDC's data processing and validation procedures.
#
#######################################################################

data_IJACEB01
_symmetry_cell_setting           orthorhombic
_symmetry_space_group_name_H-M   'P 21 21 21'
_symmetry_Int_Tables_number      19
_space_group_name_Hall           'P 2ac 2ab'
loop_
_symmetry_equiv_pos_site_id
_symmetry_equiv_pos_as_xyz
1 x,y,z
2 1/2-x,-y,1/2+z
3 -x,1/2+y,1/2-z
4 1/2+x,1/2-y,-z
_cell_length_a                   9.7458(8)
_cell_length_b                   11.5723(10)
_cell_length_c                   13.9449(12)
_cell_angle_alpha                90
_cell_angle_beta                 90
_cell_angle_gamma                90
_cell_volume                     1572.72
loop_
_atom_site_label
_atom_site_type_symbol
_atom_site_fract_x
_atom_site_fract_y
_atom_site_fract_z
Cu1 Cu 0.11598(3) 0.16601(3) 0.50655(2)
O1 O -0.08977(19) 0.24257(16) 0.50541(19)
O2 O -0.3027(2) 0.19638(17) 0.54978(15)
N1 N 0.0848(2) 0.0863(2) 0.38276(17)
N2 N 0.0129(2) 0.0267(2) 0.56346(18)
N3 N 0.1596(3) 0.1960(2) 0.64289(17)
C1 C 0.1048(3) 0.1321(2) 0.2952(2)
H1 H 0.1484 0.2052 0.2899
C2 C 0.0634(3) 0.0755(3) 0.2128(2)
H2 H 0.0793 0.1089 0.1515
C3 C -0.0018(3) -0.0308(3) 0.2209(2)
H3 H -0.0318 -0.0709 0.1652
C4 C -0.0224(3) -0.0775(3) 0.3105(2)
H4 H -0.0675 -0.1498 0.3177
C5 C 0.0241(3) -0.0170(2) 0.3909(2)
C6 C 0.0172(3) -0.0671(2) 0.4908(2)
H5 H -0.0659 -0.1159 0.4969
H6 H 0.0984 -0.1166 0.5023
C7 C 0.0914(3) -0.0043(3) 0.6516(2)
H7 H 0.1725 -0.0513 0.6343
H8 H 0.0328 -0.0504 0.6952
C8 C 0.1364(3) 0.1050(3) 0.7009(2)
C9 C 0.1579(3) 0.1111(3) 0.7991(2)
H9 H 0.1407 0.0460 0.8389
C10 C 0.2050(3) 0.2138(3) 0.8381(2)
H10 H 0.2210 0.2202 0.9051
C11 C 0.2283(3) 0.3068(3) 0.7782(2)
H11 H 0.2610 0.3778 0.8036
C12 C 0.2039(3) 0.2960(3) 0.6816(2)
H12 H 0.2186 0.3607 0.6410
C13 C -0.1299(3) 0.0628(2) 0.5869(2)
H13 H -0.1385 0.0687 0.6575
H14 H -0.1935 0.0015 0.5652
C14 C -0.1758(3) 0.1776(2) 0.54273(19)
Cu1C Cu -0.38402(3) 0.33399(3) 0.49345(2)
O2C O 0.1973(2) 0.30362(17) 0.45022(15)
O3 O 0.8913(3) 0.1280(2) 0.9921(2)
O4 O 0.7723(3) 0.2368(2) 0.9006(2)
O5 O 0.8485(3) 0.0720(3) 0.8474(2)
N4 N 0.8376(3) 0.1462(2) 0.9115(2)
O6 O 0.8695(2) 0.48196(18) 0.49867(19)
H15 H 0.936(3) 0.520(3) 0.501(3)
H16 H 0.896(4) 0.4163(19) 0.502(3)
loop_
_geom_bond_atom_site_label_1
_geom_bond_atom_site_label_2
_geom_bond_site_symmetry_1
_geom_bond_site_symmetry_2
Cu1 O1 1_555 1_555
O1 C14 1_555 1_555
O2 C14 1_555 1_555
O3 N4 1_555 1_555
O4 N4 1_555 1_555
O5 N4 1_555 1_555
O6 H15 1_555 1_555
N1 Cu1 1_555 1_555
N2 Cu1 1_555 1_555
N3 Cu1 1_555 1_555
C1 N1 1_555 1_555
H1 C1 1_555 1_555
C2 C1 1_555 1_555
H2 C2 1_555 1_555
C3 C2 1_555 1_555
H3 C3 1_555 1_555
C4 C3 1_555 1_555
H4 C4 1_555 1_555
C5 N1 1_555 1_555
C6 N2 1_555 1_555
H5 C6 1_555 1_555
H6 C6 1_555 1_555
C7 N2 1_555 1_555
H7 C7 1_555 1_555
H8 C7 1_555 1_555
C8 N3 1_555 1_555
C9 C8 1_555 1_555
H9 C9 1_555 1_555
C10 C9 1_555 1_555
H10 C10 1_555 1_555
C11 C10 1_555 1_555
H11 C11 1_555 1_555
C12 N3 1_555 1_555
H12 C12 1_555 1_555
C13 N2 1_555 1_555
H13 C13 1_555 1_555
H14 C13 1_555 1_555
C14 C13 1_555 1_555
H16 O6 1_555 1_555
Cu1C O2 1_555 1_555
O2C Cu1 1_555 1_555
C4 C5 1_555 1_555
C5 C6 1_555 1_555
C7 C8 1_555 1_555
C11 C12 1_555 1_555

#END
