
#######################################################################
#
#                 Cambridge Crystallographic Data Centre
#                                CCDC 
#
#######################################################################
#
# If this CIF has been generated from an entry in the Cambridge 
# Structural Database, then it will include bibliographic, chemical, 
# crystal, experimental, refinement or atomic coordinate data resulting 
# from the CCDC's data processing and validation procedures.
#
#######################################################################

data_IJAKUA
_symmetry_cell_setting           monoclinic
_symmetry_space_group_name_H-M   'C c'
_symmetry_Int_Tables_number      9
_space_group_name_Hall           'C -2yc'
loop_
_symmetry_equiv_pos_site_id
_symmetry_equiv_pos_as_xyz
1 x,y,z
2 x,-y,1/2+z
3 1/2+x,1/2+y,z
4 1/2+x,1/2-y,1/2+z
_cell_length_a                   22.546(4)
_cell_length_b                   11.674(2)
_cell_length_c                   14.712(3)
_cell_angle_alpha                90
_cell_angle_beta                 97.809(2)
_cell_angle_gamma                90
_cell_volume                     3836.32
loop_
_atom_site_label
_atom_site_type_symbol
_atom_site_fract_x
_atom_site_fract_y
_atom_site_fract_z
C1 C 0.48773(19) -0.0763(4) 0.4133(3)
H1 H 0.4505 -0.0890 0.4320
C2 C 0.5305(2) -0.0148(4) 0.4686(3)
H2 H 0.5214 0.0152 0.5236
C3 C 0.5858(2) 0.0029(4) 0.4442(4)
C4 C 0.6321(3) 0.0706(5) 0.5064(5)
H3 H 0.6242 0.1510 0.4983
H4 H 0.6713 0.0538 0.4911
H5 H 0.6303 0.0499 0.5691
C5 C 0.5972(2) -0.0362(5) 0.3608(5)
H6 H 0.6338 -0.0206 0.3412
C6 C 0.5539(2) -0.0999(5) 0.3045(4)
H7 H 0.5625 -0.1290 0.2489
C7 C 0.49971(16) -0.1189(3) 0.3314(2)
C8 C 0.39923(13) -0.0559(2) 0.1332(2)
H8 H 0.4413 -0.0337 0.1358
C9 C 0.36167(13) 0.0542(2) 0.1305(2)
C10 C 0.38226(14) -0.1262(3) 0.0464(2)
H9 H 0.3898 -0.0811 -0.0062
H10 H 0.4075 -0.1937 0.0490
C11 C 0.31736(14) -0.1630(3) 0.0336(2)
H11 H 0.2920 -0.0962 0.0362
H12 H 0.3105 -0.2141 0.0831
C12 C 0.30062(15) -0.2235(2) -0.0577(2)
C13 C 0.20295(14) 0.0208(3) 0.1870(2)
H13 H 0.2369 -0.0239 0.2029
C14 C 0.15035(15) -0.0335(3) 0.1562(3)
H14 H 0.1495 -0.1130 0.1515
C15 C 0.09849(14) 0.0283(3) 0.1321(2)
C16 C 0.10367(16) 0.1452(3) 0.1424(3)
H15 H 0.0702 0.1916 0.1281
C17 C 0.04017(14) -0.0259(3) 0.0969(2)
C18 C -0.00825(16) 0.0358(4) 0.0569(3)
H16 H -0.0053 0.1149 0.0517
C19 C -0.06089(16) -0.0180(4) 0.0246(3)
H17 H -0.0936 0.0233 -0.0036
C20 C -0.06408(17) -0.1341(4) 0.0350(3)
H18 H -0.0992 -0.1735 0.0145
C21 C -0.0152(2) -0.1901(4) 0.0754(3)
H19 H -0.0181 -0.2691 0.0818
C22 C 0.39403(14) 0.4030(2) 0.2554(2)
H20 H 0.3646 0.4503 0.2250
C23 C 0.45013(15) 0.4481(3) 0.2814(2)
H21 H 0.4577 0.5243 0.2688
C24 C 0.49510(14) 0.3805(3) 0.3260(2)
C25 C 0.48058(15) 0.2683(3) 0.3424(2)
H22 H 0.5094 0.2190 0.3718
C26 C 0.42344(15) 0.2297(2) 0.3151(2)
H23 H 0.4146 0.1539 0.3275
C27 C 0.55636(15) 0.4248(3) 0.3564(2)
C28 C 0.56720(19) 0.5409(3) 0.3685(3)
H24 H 0.5363 0.5940 0.3575
C29 C 0.6252(3) 0.5756(5) 0.3973(3)
H25 H 0.6340 0.6530 0.4055
C30 C 0.6690(2) 0.4970(6) 0.4136(3)
H26 H 0.7083 0.5192 0.4335
C31 C 0.6548(2) 0.3842(6) 0.4001(4)
H27 H 0.6854 0.3306 0.4116
Co1 Co 0.291648(17) 0.22242(3) 0.23391(2)
N1 N 0.39313(12) -0.1211(2) 0.21583(17)
H28 H 0.3604 -0.1154 0.2396
N2 N 0.20836(11) 0.13394(19) 0.19565(18)
N3 N 0.37970(11) 0.29529(19) 0.27159(18)
N4 N 0.59958(14) 0.3458(3) 0.3715(3)
O1 O 0.33576(9) 0.07363(15) 0.19920(14)
O2 O 0.36078(12) 0.11529(18) 0.06135(16)
O3 O 0.29693(9) -0.16375(16) -0.12933(13)
O4 O 0.41883(14) -0.27605(19) 0.3259(2)
O5 O 0.47349(14) -0.2534(3) 0.1934(2)
O6 O 0.28358(11) 0.28475(17) 0.09887(16)
H29 H 0.2994 0.2381 0.0656
H30 H 0.2880 0.3545 0.0998
O7 O 0.24765(11) 0.37051(17) 0.27289(16)
H31 H 0.2532 0.3768 0.3289
H32 H 0.2400 0.4361 0.2477
N5 N 0.03709(7) -0.14064(11) 0.10699(10)
O9 O 0.29255(7) -0.32850(11) -0.05757(10)
C32 C 0.15834(7) 0.19351(11) 0.17381(10)
H35 H 0.1603 0.2727 0.1801
S1 S 0.44506(4) -0.20296(7) 0.26397(6)
Co1A Co 0.291648(17) -0.22242(3) -0.26609(2)
O3A O 0.29693(9) 0.16375(16) 0.37067(13)
O8 O 0.28920(7) 0.51715(11) 0.08245(10)
H33 H 0.2936 0.5574 0.0354
H34 H 0.2664 0.5500 0.1162
O10 O 0.21590(15) 0.5882(2) 0.2117(2)
H36 H 0.1820 0.6163 0.1921
H37 H 0.2390 0.6247 0.2516
O11 O 0.10212(16) 0.6788(3) 0.2103(3)
H38 H 0.1006 0.7053 0.2643
H39 H 0.0874 0.7245 0.1682
O12 O 0.2923(2) 0.7023(4) 0.3365(5)
H40 H 0.2837 0.7714 0.3475
H41 H 0.3303 0.6966 0.3434
O13 O 0.32334(12) 0.92992(18) 0.37374(16)
H42 H 0.3391 0.9040 0.4246
H43 H 0.3182 1.0015 0.3686
loop_
_geom_bond_atom_site_label_1
_geom_bond_atom_site_label_2
_geom_bond_site_symmetry_1
_geom_bond_site_symmetry_2
C1 H1 1_555 1_555
C2 C1 1_555 1_555
H2 C2 1_555 1_555
C3 C2 1_555 1_555
C4 C3 1_555 1_555
H3 C4 1_555 1_555
H4 C4 1_555 1_555
H5 C4 1_555 1_555
C5 C3 1_555 1_555
H6 C5 1_555 1_555
C6 C5 1_555 1_555
H7 C6 1_555 1_555
C7 C1 1_555 1_555
C8 H8 1_555 1_555
C9 C8 1_555 1_555
C10 C8 1_555 1_555
H9 C10 1_555 1_555
H10 C10 1_555 1_555
C11 C10 1_555 1_555
H11 C11 1_555 1_555
H12 C11 1_555 1_555
C12 C11 1_555 1_555
C13 H13 1_555 1_555
C14 C13 1_555 1_555
H14 C14 1_555 1_555
C15 C14 1_555 1_555
C16 C15 1_555 1_555
H15 C16 1_555 1_555
C17 C15 1_555 1_555
C18 C17 1_555 1_555
H16 C18 1_555 1_555
C19 C18 1_555 1_555
H17 C19 1_555 1_555
C20 C19 1_555 1_555
H18 C20 1_555 1_555
C21 C20 1_555 1_555
H19 C21 1_555 1_555
C22 H20 1_555 1_555
C23 C22 1_555 1_555
H21 C23 1_555 1_555
C24 C23 1_555 1_555
C25 C24 1_555 1_555
H22 C25 1_555 1_555
C26 C25 1_555 1_555
H23 C26 1_555 1_555
C27 C24 1_555 1_555
C28 C27 1_555 1_555
H24 C28 1_555 1_555
C29 C28 1_555 1_555
H25 C29 1_555 1_555
C30 C29 1_555 1_555
H26 C30 1_555 1_555
C31 C30 1_555 1_555
H27 C31 1_555 1_555
Co1 N2 1_555 1_555
N1 C8 1_555 1_555
H28 N1 1_555 1_555
N2 C13 1_555 1_555
N3 C22 1_555 1_555
N4 C27 1_555 1_555
O1 C9 1_555 1_555
O2 C9 1_555 1_555
O3 C12 1_555 1_555
O4 S1 1_555 1_555
O5 S1 1_555 1_555
O6 Co1 1_555 1_555
H29 O6 1_555 1_555
H30 O6 1_555 1_555
O7 Co1 1_555 1_555
H31 O7 1_555 1_555
H32 O7 1_555 1_555
O8 H33 1_555 1_555
H34 O8 1_555 1_555
N5 C17 1_555 1_555
O9 C12 1_555 1_555
C32 C16 1_555 1_555
H35 C32 1_555 1_555
O10 H36 1_555 1_555
H37 O10 1_555 1_555
O11 H38 1_555 1_555
H39 O11 1_555 1_555
O12 H40 1_555 1_555
H41 O12 1_555 1_555
O13 H42 1_555 1_555
H43 O13 1_555 1_555
S1 C7 1_555 1_555
Co1A O3 1_555 1_555
O3A Co1 1_555 1_555
C6 C7 1_555 1_555
C21 N5 1_555 1_555
C26 N3 1_555 1_555
C31 N4 1_555 1_555
Co1 N3 1_555 1_555
Co1 O1 1_555 1_555
N1 S1 1_555 1_555
N2 C32 1_555 1_555

#END
