
#######################################################################
#
#                 Cambridge Crystallographic Data Centre
#                                CCDC 
#
#######################################################################
#
# If this CIF has been generated from an entry in the Cambridge 
# Structural Database, then it will include bibliographic, chemical, 
# crystal, experimental, refinement or atomic coordinate data resulting 
# from the CCDC's data processing and validation procedures.
#
#######################################################################

data_IJAKOU
_symmetry_cell_setting           monoclinic
_symmetry_space_group_name_H-M   'C c'
_symmetry_Int_Tables_number      9
_space_group_name_Hall           'C -2yc'
loop_
_symmetry_equiv_pos_site_id
_symmetry_equiv_pos_as_xyz
1 x,y,z
2 x,-y,1/2+z
3 1/2+x,1/2+y,z
4 1/2+x,1/2-y,1/2+z
_cell_length_a                   22.452(4)
_cell_length_b                   11.663(2)
_cell_length_c                   14.688(3)
_cell_angle_alpha                90
_cell_angle_beta                 97.580(2)
_cell_angle_gamma                90
_cell_volume                     3812.56
loop_
_atom_site_label
_atom_site_type_symbol
_atom_site_fract_x
_atom_site_fract_y
_atom_site_fract_z
C1 C 0.74632(13) 0.5553(3) 0.5151(2)
C2 C 0.78293(14) 0.4449(3) 0.5172(2)
H1 H 0.8253 0.4665 0.5199
C3 C 0.76620(14) 0.3747(3) 0.4298(2)
H2 H 0.7748 0.4194 0.3774
H3 H 0.7909 0.3062 0.4328
C4 C 0.70088(14) 0.3402(3) 0.4157(2)
H4 H 0.6760 0.4081 0.4168
H5 H 0.6927 0.2905 0.4655
C5 C 0.68478(15) 0.2781(3) 0.3244(2)
C6 C 0.88403(16) 0.3800(4) 0.7131(3)
C7 C 0.87224(19) 0.4234(4) 0.7956(3)
H6 H 0.8347 0.4118 0.8144
C8 C 0.9152(2) 0.4836(5) 0.8504(3)
H7 H 0.9062 0.5126 0.9060
C9 C 0.9704(2) 0.5021(4) 0.8261(4)
C10 C 1.0173(3) 0.5691(6) 0.8870(5)
H8 H 1.0514 0.5210 0.9053
H9 H 1.0008 0.5948 0.9405
H10 H 1.0294 0.6341 0.8539
H11 H 0.6299 0.9324 0.6302
H12 H 0.6698 0.8535 0.4706
C11 C 0.9826(2) 0.4615(6) 0.7412(5)
H13 H 1.0196 0.4754 0.7213
C12 C 0.9375(2) 0.3987(5) 0.6860(4)
H14 H 0.9453 0.3700 0.6297
C13 C 0.80618(15) 0.7292(3) 0.6978(3)
H15 H 0.7974 0.6534 0.7106
C14 C 0.86347(14) 0.7682(3) 0.7251(3)
H16 H 0.8925 0.7193 0.7547
C15 C 0.87753(14) 0.8812(3) 0.7082(2)
C16 C 0.83286(15) 0.9481(3) 0.6633(2)
H17 H 0.8404 1.0242 0.6499
C17 C 0.77662(15) 0.9019(3) 0.6381(2)
H18 H 0.7469 0.9492 0.6082
C18 C 0.93901(16) 0.9267(4) 0.7392(2)
C19 C 0.9496(2) 1.0418(4) 0.7509(3)
H19 H 0.9185 1.0949 0.7399
C20 C 1.0080(3) 1.0764(5) 0.7798(3)
H20 H 1.0168 1.1540 0.7871
C21 C 1.0521(2) 0.9984(6) 0.7972(3)
H21 H 1.0912 1.0209 0.8180
C22 C 1.0379(2) 0.8860(6) 0.7837(4)
H22 H 1.0688 0.8327 0.7951
C23 C 0.54468(17) 0.6957(4) 0.5552(3)
H23 H 0.5470 0.7753 0.5587
C24 C 0.48983(16) 0.6474(3) 0.5243(3)
H24 H 0.4564 0.6939 0.5088
C25 C 0.48456(15) 0.5311(3) 0.5163(2)
C26 C 0.53663(15) 0.4692(3) 0.5434(3)
H25 H 0.5357 0.3895 0.5404
C27 C 0.58883(15) 0.5236(3) 0.5741(3)
H26 H 0.6227 0.4790 0.5919
C28 C 0.42635(15) 0.4753(3) 0.4807(2)
C29 C 0.37757(16) 0.5382(4) 0.4412(3)
H27 H 0.3801 0.6175 0.4365
C30 C 0.32511(17) 0.4819(5) 0.4087(3)
H28 H 0.2922 0.5228 0.3807
C31 C 0.32172(18) 0.3675(5) 0.4178(3)
H29 H 0.2865 0.3284 0.3967
C32 C 0.3708(2) 0.3105(4) 0.4585(3)
H30 H 0.3680 0.2315 0.4648
N1 N 0.76232(11) 0.7940(2) 0.65389(18)
N2 N 0.59437(11) 0.6364(2) 0.58027(19)
N3 N 0.98256(14) 0.8462(4) 0.7551(3)
N4 N 0.42345(14) 0.3609(3) 0.4902(2)
N5 N 0.77682(12) 0.3785(3) 0.59949(18)
H31 H 0.7440 0.3839 0.6235
Ni1 Ni 0.676462(17) 0.72229(3) 0.61740(2)
O1 O 0.71998(9) 0.57521(18) 0.58388(14)
O2 O 0.74585(12) 0.6165(2) 0.44556(16)
O3 O 0.68117(9) 0.33803(18) 0.25202(13)
O4 O 0.67736(17) 0.1731(2) 0.32528(18)
O5 O 0.80213(15) 0.2236(2) 0.7098(2)
O6 O 0.85759(14) 0.2470(3) 0.5762(2)
O7 O 0.63210(11) 0.86721(19) 0.65631(16)
H32 H 0.6390 0.8751 0.7122
O8 O 0.66871(10) 0.78410(19) 0.48397(16)
H33 H 0.6840 0.7383 0.4517
S1 S 0.82871(5) 0.29620(9) 0.64687(7)
Ni1A Ni 0.676462(17) 0.27771(3) 0.11740(2)
O3A O 0.68117(9) 0.66197(18) 0.75202(13)
H34 H 0.6678 0.1775 0.7716
H35 H 0.7109 0.1707 0.7159
O9 O 0.6770(2) 0.2024(5) 0.7205(5)
H36 H 0.7230 0.3992 0.8071
H37 H 0.6927 0.4941 0.7570
O10 O 0.70735(13) 0.4287(2) 0.75754(18)
H38 H 0.6748 0.0523 0.4143
H39 H 0.6513 0.0536 0.4980
O11 O 0.67367(14) 0.0175(2) 0.4650(2)
H40 H 0.5664 0.1100 0.5845
H41 H 0.6290 0.1176 0.6318
O12 O 0.60154(16) 0.0871(3) 0.5963(2)
O13 O 0.98703(16) 0.6801(3) 0.5933(3)
H42 H 1.0159 0.7175 0.6241
H43 H 0.9607 0.6713 0.6306
loop_
_geom_bond_atom_site_label_1
_geom_bond_atom_site_label_2
_geom_bond_site_symmetry_1
_geom_bond_site_symmetry_2
C1 C2 1_555 1_555
C2 H1 1_555 1_555
C3 C2 1_555 1_555
H2 C3 1_555 1_555
H3 C3 1_555 1_555
C4 C3 1_555 1_555
H4 C4 1_555 1_555
H5 C4 1_555 1_555
C5 C4 1_555 1_555
C6 C7 1_555 1_555
C7 H6 1_555 1_555
C8 C7 1_555 1_555
H7 C8 1_555 1_555
C9 C8 1_555 1_555
C10 C9 1_555 1_555
H8 C10 1_555 1_555
H9 C10 1_555 1_555
H10 C10 1_555 1_555
H11 O7 1_555 1_555
H12 O8 1_555 1_555
C11 C9 1_555 1_555
H13 C11 1_555 1_555
C12 C6 1_555 1_555
H14 C12 1_555 1_555
C13 H15 1_555 1_555
C14 C13 1_555 1_555
H16 C14 1_555 1_555
C15 C14 1_555 1_555
C16 C15 1_555 1_555
H17 C16 1_555 1_555
C17 C16 1_555 1_555
H18 C17 1_555 1_555
C18 C15 1_555 1_555
C19 C18 1_555 1_555
H19 C19 1_555 1_555
C20 C19 1_555 1_555
H20 C20 1_555 1_555
C21 C20 1_555 1_555
H21 C21 1_555 1_555
C22 C21 1_555 1_555
H22 C22 1_555 1_555
C23 H23 1_555 1_555
C24 C23 1_555 1_555
H24 C24 1_555 1_555
C25 C24 1_555 1_555
C26 C25 1_555 1_555
H25 C26 1_555 1_555
C27 C26 1_555 1_555
H26 C27 1_555 1_555
C28 C25 1_555 1_555
C29 C28 1_555 1_555
H27 C29 1_555 1_555
C30 C29 1_555 1_555
H28 C30 1_555 1_555
C31 C30 1_555 1_555
H29 C31 1_555 1_555
C32 C31 1_555 1_555
H30 C32 1_555 1_555
N1 C13 1_555 1_555
N2 C23 1_555 1_555
N3 C18 1_555 1_555
N4 C28 1_555 1_555
N5 C2 1_555 1_555
H31 N5 1_555 1_555
Ni1 N1 1_555 1_555
O1 C1 1_555 1_555
O2 C1 1_555 1_555
O3 C5 1_555 1_555
O4 C5 1_555 1_555
O5 S1 1_555 1_555
O6 S1 1_555 1_555
O7 Ni1 1_555 1_555
H32 O7 1_555 1_555
O8 Ni1 1_555 1_555
H33 O8 1_555 1_555
S1 C6 1_555 1_555
H34 O9 1_555 1_555
H35 O9 1_555 1_555
H36 O10 1_555 1_555
H37 O10 1_555 1_555
H38 O11 1_555 1_555
H39 O11 1_555 1_555
H40 O12 1_555 1_555
H41 O12 1_555 1_555
O13 H42 1_555 1_555
H43 O13 1_555 1_555
Ni1A O3 1_555 1_555
O3A Ni1 1_555 1_555
C11 C12 1_555 1_555
C17 N1 1_555 1_555
C22 N3 1_555 1_555
C27 N2 1_555 1_555
C32 N4 1_555 1_555
N2 Ni1 1_555 1_555
N5 S1 1_555 1_555
Ni1 O1 1_555 1_555

#END
