
#######################################################################
#
#                 Cambridge Crystallographic Data Centre
#                                CCDC 
#
#######################################################################
#
# If this CIF has been generated from an entry in the Cambridge 
# Structural Database, then it will include bibliographic, chemical, 
# crystal, experimental, refinement or atomic coordinate data resulting 
# from the CCDC's data processing and validation procedures.
#
#######################################################################

data_IJALEL
_symmetry_cell_setting           orthorhombic
_symmetry_space_group_name_H-M   'P b c a'
_symmetry_Int_Tables_number      61
_space_group_name_Hall           '-P 2ac 2ab'
loop_
_symmetry_equiv_pos_site_id
_symmetry_equiv_pos_as_xyz
1 x,y,z
2 1/2-x,-y,1/2+z
3 -x,1/2+y,1/2-z
4 1/2+x,1/2-y,-z
5 -x,-y,-z
6 1/2+x,y,1/2-z
7 x,1/2-y,1/2+z
8 1/2-x,1/2+y,z
_cell_length_a                   13.9626(5)
_cell_length_b                   16.2685(6)
_cell_length_c                   19.2912(8)
_cell_angle_alpha                90
_cell_angle_beta                 90
_cell_angle_gamma                90
_cell_volume                     4382.01
loop_
_atom_site_label
_atom_site_type_symbol
_atom_site_fract_x
_atom_site_fract_y
_atom_site_fract_z
Zn1 Zn 0.72317(2) 0.13464(2) 0.573325(16)
O1 O 0.85695(14) 0.16806(15) 0.58324(11)
O2 O 0.87252(17) 0.08729(16) 0.67538(13)
O3 O 1.14764(15) 0.15019(13) 0.84079(10)
O4 O 1.2141(2) 0.27267(15) 0.82316(12)
O5 O 1.26173(15) 0.34482(14) 0.57316(11)
O6 O 1.15974(14) 0.29549(13) 0.49619(10)
N1 N 0.70860(17) 0.01340(15) 0.55470(13)
N2 N 0.72523(19) -0.11955(16) 0.57530(14)
H1 H 0.7441 -0.1641 0.5950
C1 C 0.6551(2) -0.02994(18) 0.50591(16)
C2 C 0.6662(2) -0.11393(18) 0.51842(16)
C3 C 0.6210(2) -0.1736(2) 0.47825(18)
H2 H 0.6296 -0.2294 0.4866
C4 C 0.5633(3) -0.1458(2) 0.4257(2)
H3 H 0.5319 -0.1837 0.3976
C5 C 0.5506(3) -0.0622(2) 0.4136(2)
H4 H 0.5100 -0.0458 0.3780
C6 C 0.5961(3) -0.0031(2) 0.4526(2)
H5 H 0.5876 0.0525 0.4435
C7 C 0.7480(2) -0.0427(2) 0.59444(17)
H6 H 0.7875 -0.0305 0.6319
C8 C 0.99701(19) 0.18211(18) 0.65138(14)
C9 C 1.0361(2) 0.17663(18) 0.71772(15)
H7 H 1.0041 0.1475 0.7521
C10 C 1.1229(2) 0.21466(18) 0.73258(14)
C11 C 1.1719(2) 0.25492(19) 0.68012(14)
H8 H 1.2301 0.2801 0.6899
C12 C 1.1357(2) 0.25829(18) 0.61334(14)
C13 C 1.0470(2) 0.22309(18) 0.59964(15)
H9 H 1.0209 0.2270 0.5554
C14 C 0.9013(2) 0.14199(19) 0.63690(15)
C15 C 1.1651(2) 0.2131(2) 0.80498(15)
C16 C 1.1906(2) 0.30258(18) 0.55756(15)
Zn1C Zn 1.22317(2) 0.36536(2) 0.426675(16)
Zn1E Zn 1.22317(2) 0.13464(2) 0.926675(16)
O3E O 0.64764(15) 0.15019(13) 0.65921(10)
O6C O 0.65974(14) 0.20451(13) 0.50381(10)
C17 C 0.4076(4) 0.3697(3) 0.7257(3)
H10 H 0.3496 0.3548 0.7504
H11 H 0.4375 0.3193 0.7098
N3 N 0.3810(3) 0.4203(2) 0.6641(2)
H12 H 0.3409 0.3889 0.6380
C18 C 0.4738(5) 0.4114(4) 0.7748(4)
H13 H 0.5289 0.4310 0.7501
H14 H 0.4937 0.3732 0.8099
H15 H 0.4414 0.4569 0.7962
C19 C 0.5005(5) 0.3912(5) 0.5734(4)
H16 H 0.5279 0.3480 0.6008
H17 H 0.5499 0.4177 0.5470
H18 H 0.4536 0.3685 0.5424
C20 C 0.3279(7) 0.4968(4) 0.6807(5)
H19 H 0.3639 0.5259 0.7160
H20 H 0.3283 0.5311 0.6395
C21 C 0.4559(6) 0.4496(5) 0.6176(5)
H21 H 0.4287 0.4924 0.5887
H22 H 0.5054 0.4749 0.6457
C22 C 0.2361(8) 0.4912(8) 0.7028(6)
H23 H 0.2022 0.4521 0.6747
H24 H 0.2058 0.5439 0.6992
H25 H 0.2352 0.4734 0.7503
loop_
_geom_bond_atom_site_label_1
_geom_bond_atom_site_label_2
_geom_bond_site_symmetry_1
_geom_bond_site_symmetry_2
Zn1 O1 1_555 1_555
O1 C14 1_555 1_555
O2 C14 1_555 1_555
O3 C15 1_555 1_555
O4 C15 1_555 1_555
O5 C16 1_555 1_555
O6 C16 1_555 1_555
N1 Zn1 1_555 1_555
N2 H1 1_555 1_555
C1 N1 1_555 1_555
C2 N2 1_555 1_555
C3 C2 1_555 1_555
H2 C3 1_555 1_555
C4 C3 1_555 1_555
H3 C4 1_555 1_555
C5 C4 1_555 1_555
H4 C5 1_555 1_555
C6 C1 1_555 1_555
H5 C6 1_555 1_555
C7 N1 1_555 1_555
H6 C7 1_555 1_555
C8 C9 1_555 1_555
C9 H7 1_555 1_555
C10 C9 1_555 1_555
C11 C10 1_555 1_555
H8 C11 1_555 1_555
C12 C11 1_555 1_555
C13 C8 1_555 1_555
H9 C13 1_555 1_555
C14 C8 1_555 1_555
C15 C10 1_555 1_555
C16 C12 1_555 1_555
C17 H10 1_555 1_555
H11 C17 1_555 1_555
N3 C17 1_555 1_555
H12 N3 1_555 1_555
C18 C17 1_555 1_555
H13 C18 1_555 1_555
H14 C18 1_555 1_555
H15 C18 1_555 1_555
C19 H16 1_555 1_555
H17 C19 1_555 1_555
H18 C19 1_555 1_555
C20 N3 1_555 1_555
H19 C20 1_555 1_555
H20 C20 1_555 1_555
C21 N3 1_555 1_555
H21 C21 1_555 1_555
H22 C21 1_555 1_555
C22 C20 1_555 1_555
H23 C22 1_555 1_555
H24 C22 1_555 1_555
H25 C22 1_555 1_555
Zn1C O6 1_555 1_555
Zn1E O3 1_555 1_555
O3E Zn1 1_555 1_555
O6C Zn1 1_555 1_555
N2 C7 1_555 1_555
C1 C2 1_555 1_555
C5 C6 1_555 1_555
C12 C13 1_555 1_555
C19 C21 1_555 1_555

#END
