
#######################################################################
#
#                 Cambridge Crystallographic Data Centre
#                                CCDC 
#
#######################################################################
#
# If this CIF has been generated from an entry in the Cambridge 
# Structural Database, then it will include bibliographic, chemical, 
# crystal, experimental, refinement or atomic coordinate data resulting 
# from the CCDC's data processing and validation procedures.
#
#######################################################################

data_IJALOV
_symmetry_cell_setting           triclinic
_symmetry_space_group_name_H-M   'P -1'
_symmetry_Int_Tables_number      2
_space_group_name_Hall           '-P 1'
loop_
_symmetry_equiv_pos_site_id
_symmetry_equiv_pos_as_xyz
1 x,y,z
2 -x,-y,-z
_cell_length_a                   10.2458(4)
_cell_length_b                   10.5562(4)
_cell_length_c                   13.1060(5)
_cell_angle_alpha                70.9210(10)
_cell_angle_beta                 74.4520(10)
_cell_angle_gamma                85.1680(10)
_cell_volume                     1290.61
loop_
_atom_site_label
_atom_site_type_symbol
_atom_site_fract_x
_atom_site_fract_y
_atom_site_fract_z
Cd1 Cd 0.5000 -0.5000 0.5000
Cd2 Cd 1.145129(14) 0.325076(14) 0.263226(12)
O1 O 0.86466(15) 0.34747(14) 0.29053(13)
O2 O 0.98226(14) 0.16031(15) 0.31429(13)
O3 O 0.75336(16) -0.27983(15) 0.43097(15)
O4 O 0.53426(17) -0.28158(16) 0.43715(17)
O5 O 0.29156(16) 0.13500(17) 0.30266(16)
O6 O 0.38111(16) 0.32873(16) 0.27184(16)
O7 O 1.06334(16) 0.29661(17) 0.45359(13)
H1 H 1.1307 0.2915 0.4810
H2 H 1.0104 0.2293 0.4799
O8 O 0.73011(17) -0.54581(17) 0.46814(15)
H3 H 0.7580 -0.4667 0.4536
H4 H 0.7607 -0.5840 0.4186
O9 O 0.5093(2) -0.48520(18) 0.31688(16)
H5 H 0.4653 -0.5415 0.3051
H6 H 0.5057 -0.4035 0.2779
N1 N 1.16486(19) 0.54913(19) 0.23611(17)
N2 N 1.1616(2) 0.7242(2) 0.29483(19)
H7 H 1.1335 0.7781 0.3331
N3 N 1.1563(2) 0.3538(2) 0.08048(16)
N4 N 1.1637(2) 0.4514(2) -0.09825(17)
H8 H 1.1667 0.5141 -0.1603
C1 C 1.2775(2) 0.6308(2) 0.17058(19)
C2 C 1.2763(2) 0.7398(2) 0.2089(2)
C3 C 1.3796(3) 0.8353(3) 0.1636(3)
H9 H 1.3790 0.9068 0.1905
C4 C 1.4824(3) 0.8184(3) 0.0772(3)
H10 H 1.5536 0.8797 0.0450
C5 C 1.4830(3) 0.7115(3) 0.0364(3)
H11 H 1.5530 0.7049 -0.0237
C6 C 1.3824(2) 0.6158(3) 0.0831(2)
H12 H 1.3846 0.5435 0.0569
C7 C 1.1011(3) 0.6100(2) 0.3085(2)
H13 H 1.0222 0.5771 0.3635
C8 C 1.1575(2) 0.2545(2) 0.03145(19)
C9 C 1.1627(3) 0.3157(3) -0.0813(2)
C10 C 1.1662(3) 0.2414(4) -0.1523(2)
H14 H 1.1693 0.2826 -0.2274
C11 C 1.1650(3) 0.1047(4) -0.1062(3)
H15 H 1.1671 0.0519 -0.1512
C12 C 1.1606(3) 0.0426(3) 0.0059(3)
H16 H 1.1607 -0.0505 0.0338
C13 C 1.1563(3) 0.1154(3) 0.0768(2)
H17 H 1.1527 0.0734 0.1519
C14 C 1.1593(2) 0.4676(3) -0.0003(2)
H18 H 1.1584 0.5511 0.0096
C15 C 0.7483(2) 0.1425(2) 0.32941(17)
C16 C 0.7516(2) 0.0030(2) 0.36612(18)
H19 H 0.8307 -0.0407 0.3801
C17 C 0.6382(2) -0.0716(2) 0.38216(17)
C18 C 0.5208(2) -0.0052(2) 0.36002(18)
H20 H 0.4444 -0.0545 0.3708
C19 C 0.5164(2) 0.1337(2) 0.32206(18)
C20 C 0.6301(2) 0.2072(2) 0.30810(18)
H21 H 0.6269 0.3004 0.2843
C21 C 0.8725(2) 0.2226(2) 0.31048(16)
C22 C 0.6427(2) -0.2224(2) 0.42041(18)
C23 C 0.3886(2) 0.2037(2) 0.29764(18)
Cd2A Cd -0.145129(14) -1.325076(14) 0.736774(12)
Cd2_2 Cd 0.145129(14) 0.325076(14) 0.263226(12)
Cd2A_2 Cd 0.854871(14) -1.325076(14) 0.736774(12)
O1A O 0.13534(15) -1.34747(14) 0.70947(13)
O2A O 0.01774(14) -1.16031(15) 0.68571(13)
O3A O 0.24664(16) -0.72017(15) 0.56903(15)
O4A O 0.46574(17) -0.71842(16) 0.56285(17)
O5A O 0.70844(16) -1.13500(17) 0.69734(16)
O5_2 O 1.29156(16) 0.13500(17) 0.30266(16)
O5A_2 O -0.29156(16) -1.13500(17) 0.69734(16)
O6A O 0.61889(16) -1.32873(16) 0.72816(16)
O6_2 O 1.38111(16) 0.32873(16) 0.27184(16)
O6A_2 O -0.38111(16) -1.32873(16) 0.72816(16)
O7A O -0.06334(16) -1.29661(17) 0.54641(13)
H1A H -0.1307 -1.2915 0.5190
H2A H -0.0104 -1.2293 0.5201
O8A O 0.26989(17) -0.45419(17) 0.53186(15)
H3A H 0.2420 -0.5333 0.5464
H4A H 0.2393 -0.4160 0.5814
O9A O 0.4907(2) -0.51480(18) 0.68312(16)
H5A H 0.5347 -0.4585 0.6949
H6A H 0.4943 -0.5965 0.7221
N1A N -0.16486(19) -1.54913(19) 0.76389(17)
N2A N -0.1616(2) -1.7242(2) 0.70517(19)
H7A H -0.1335 -1.7781 0.6669
N3A N -0.1563(2) -1.3538(2) 0.91952(16)
N4A N -0.1637(2) -1.4514(2) 1.09825(17)
H8A H -0.1667 -1.5141 1.1603
C1A C -0.2775(2) -1.6308(2) 0.82942(19)
C2A C -0.2763(2) -1.7398(2) 0.7911(2)
C3A C -0.3796(3) -1.8353(3) 0.8364(3)
H9A H -0.3790 -1.9068 0.8095
C4A C -0.4824(3) -1.8184(3) 0.9228(3)
H10A H -0.5536 -1.8797 0.9550
C5A C -0.4830(3) -1.7115(3) 0.9636(3)
H11A H -0.5530 -1.7049 1.0237
C6A C -0.3824(2) -1.6158(3) 0.9169(2)
H12A H -0.3846 -1.5435 0.9431
C7A C -0.1011(3) -1.6100(2) 0.6915(2)
H13A H -0.0222 -1.5771 0.6365
C8A C -0.1575(2) -1.2545(2) 0.96855(19)
C9A C -0.1627(3) -1.3157(3) 1.0813(2)
C10A C -0.1662(3) -1.2414(4) 1.1523(2)
H14A H -0.1693 -1.2826 1.2274
C11A C -0.1650(3) -1.1047(4) 1.1062(3)
H15A H -0.1671 -1.0519 1.1512
C12A C -0.1606(3) -1.0426(3) 0.9941(3)
H16A H -0.1607 -0.9495 0.9662
C13A C -0.1563(3) -1.1154(3) 0.9232(2)
H17A H -0.1527 -1.0734 0.8481
C14A C -0.1593(2) -1.4676(3) 1.0003(2)
H18A H -0.1584 -1.5511 0.9904
C15A C 0.2517(2) -1.1425(2) 0.67059(17)
C16A C 0.2484(2) -1.0030(2) 0.63388(18)
H19A H 0.1693 -0.9593 0.6199
C17A C 0.3618(2) -0.9284(2) 0.61784(17)
C18A C 0.4792(2) -0.9948(2) 0.63998(18)
H20A H 0.5556 -0.9455 0.6292
C19A C 0.4836(2) -1.1337(2) 0.67794(18)
C20A C 0.3699(2) -1.2072(2) 0.69190(18)
H21A H 0.3731 -1.3004 0.7157
C21A C 0.1275(2) -1.2226(2) 0.68952(16)
C22A C 0.3573(2) -0.7776(2) 0.57959(18)
C23A C 0.6114(2) -1.2037(2) 0.70236(18)
O10 O 0.89472(17) 0.07573(16) 0.59630(15)
H22 H 0.9540 0.0165 0.6122
H23 H 0.8223 0.0512 0.5896
loop_
_geom_bond_atom_site_label_1
_geom_bond_atom_site_label_2
_geom_bond_site_symmetry_1
_geom_bond_site_symmetry_2
Cd1 O4 1_555 1_555
Cd2 O1 1_555 1_555
O1 C21 1_555 1_555
O2 Cd2 1_555 1_555
O3 C22 1_555 1_555
O4 C22 1_555 1_555
O5 C23 1_555 1_555
O6 C23 1_555 1_555
O7 Cd2 1_555 1_555
H1 O7 1_555 1_555
H2 O7 1_555 1_555
O8 Cd1 1_555 1_555
H3 O8 1_555 1_555
H4 O8 1_555 1_555
O9 Cd1 1_555 1_555
H5 O9 1_555 1_555
H6 O9 1_555 1_555
N1 Cd2 1_555 1_555
N2 H7 1_555 1_555
N3 Cd2 1_555 1_555
N4 H8 1_555 1_555
C1 N1 1_555 1_555
C2 N2 1_555 1_555
C3 C2 1_555 1_555
H9 C3 1_555 1_555
C4 C3 1_555 1_555
H10 C4 1_555 1_555
C5 C4 1_555 1_555
H11 C5 1_555 1_555
C6 C1 1_555 1_555
H12 C6 1_555 1_555
C7 N1 1_555 1_555
H13 C7 1_555 1_555
C8 N3 1_555 1_555
C9 N4 1_555 1_555
C10 C9 1_555 1_555
H14 C10 1_555 1_555
C11 C10 1_555 1_555
H15 C11 1_555 1_555
C12 C11 1_555 1_555
H16 C12 1_555 1_555
C13 C8 1_555 1_555
H17 C13 1_555 1_555
C14 N3 1_555 1_555
H18 C14 1_555 1_555
C15 C16 1_555 1_555
C16 H19 1_555 1_555
C17 C16 1_555 1_555
C18 C17 1_555 1_555
H20 C18 1_555 1_555
C19 C18 1_555 1_555
C20 C15 1_555 1_555
H21 C20 1_555 1_555
C21 O2 1_555 1_555
C22 C17 1_555 1_555
C23 C19 1_555 1_555
O10 H22 1_555 1_555
H23 O10 1_555 1_555
Cd2A O1A 1_555 1_555
Cd2_2 O5 1_555 1_555
Cd2A_2 O5A 1_555 1_555
O1A C21A 1_555 1_555
O2A Cd2A 1_555 1_555
O3A C22A 1_555 1_555
O4A Cd1 1_555 1_555
O5A C23A 1_555 1_555
O5_2 Cd2 1_555 1_555
O5A_2 Cd2A 1_555 1_555
O6A Cd2A_2 1_555 1_555
O6_2 Cd2 1_555 1_555
O6A_2 Cd2A 1_555 1_555
O7A Cd2A 1_555 1_555
H1A O7A 1_555 1_555
H2A O7A 1_555 1_555
O8A Cd1 1_555 1_555
H3A O8A 1_555 1_555
H4A O8A 1_555 1_555
O9A Cd1 1_555 1_555
H5A O9A 1_555 1_555
H6A O9A 1_555 1_555
N1A Cd2A 1_555 1_555
N2A H7A 1_555 1_555
N3A Cd2A 1_555 1_555
N4A H8A 1_555 1_555
C1A N1A 1_555 1_555
C2A N2A 1_555 1_555
C3A C2A 1_555 1_555
H9A C3A 1_555 1_555
C4A C3A 1_555 1_555
H10A C4A 1_555 1_555
C5A C4A 1_555 1_555
H11A C5A 1_555 1_555
C6A C1A 1_555 1_555
H12A C6A 1_555 1_555
C7A N1A 1_555 1_555
H13A C7A 1_555 1_555
C8A N3A 1_555 1_555
C9A N4A 1_555 1_555
C10A C9A 1_555 1_555
H14A C10A 1_555 1_555
C11A C10A 1_555 1_555
H15A C11A 1_555 1_555
C12A C11A 1_555 1_555
H16A C12A 1_555 1_555
C13A C8A 1_555 1_555
H17A C13A 1_555 1_555
C14A N3A 1_555 1_555
H18A C14A 1_555 1_555
C15A C16A 1_555 1_555
C16A H19A 1_555 1_555
C17A C16A 1_555 1_555
C18A C17A 1_555 1_555
H20A C18A 1_555 1_555
C19A C18A 1_555 1_555
C20A C15A 1_555 1_555
H21A C20A 1_555 1_555
C21A O2A 1_555 1_555
C22A O4A 1_555 1_555
C23A O6A 1_555 1_555
O6 Cd2_2 1_555 1_555
N2 C7 1_555 1_555
N4 C14 1_555 1_555
C1 C2 1_555 1_555
C5 C6 1_555 1_555
C8 C9 1_555 1_555
C12 C13 1_555 1_555
C15 C21 1_555 1_555
C19 C20 1_555 1_555
N2A C7A 1_555 1_555
N4A C14A 1_555 1_555
C1A C2A 1_555 1_555
C5A C6A 1_555 1_555
C8A C9A 1_555 1_555
C12A C13A 1_555 1_555
C15A C21A 1_555 1_555
C17A C22A 1_555 1_555
C19A C20A 1_555 1_555
C19A C23A 1_555 1_555

#END
