
#######################################################################
#
#                 Cambridge Crystallographic Data Centre
#                                CCDC 
#
#######################################################################
#
# If this CIF has been generated from an entry in the Cambridge 
# Structural Database, then it will include bibliographic, chemical, 
# crystal, experimental, refinement or atomic coordinate data resulting 
# from the CCDC's data processing and validation procedures.
#
#######################################################################

data_IJASER
_symmetry_cell_setting           triclinic
_symmetry_space_group_name_H-M   'P -1'
_symmetry_Int_Tables_number      2
_space_group_name_Hall           '-P 1'
loop_
_symmetry_equiv_pos_site_id
_symmetry_equiv_pos_as_xyz
1 x,y,z
2 -x,-y,-z
_cell_length_a                   8.2266(4)
_cell_length_b                   9.2895(4)
_cell_length_c                   9.7934(5)
_cell_angle_alpha                75.3470(10)
_cell_angle_beta                 69.7080(10)
_cell_angle_gamma                72.6650(10)
_cell_volume                     660.664
loop_
_atom_site_label
_atom_site_type_symbol
_atom_site_fract_x
_atom_site_fract_y
_atom_site_fract_z
Sm1 Sm -0.21832(4) 0.70699(4) 0.88973(3)
Co1 Co 0.0000 0.5000 0.5000
O1 O 0.0208(6) 0.5542(5) 0.6999(5)
O2 O 0.1587(6) 0.4380(5) 0.8724(5)
O3 O 0.0898(6) 0.6912(6) 0.3371(5)
N1 N 0.2589(7) 0.3884(6) 0.5031(6)
O4 O -0.3140(6) 0.8900(5) 1.0578(5)
O5 O -0.2667(6) 0.4396(5) 0.9341(5)
O6 O -0.5563(6) 1.0586(5) 1.1685(5)
O7 O 0.3616(6) 0.3218(6) 0.2745(5)
O8 O -0.4782(6) 0.3224(6) 0.9560(5)
O9 O 0.0559(7) 0.7621(6) 0.8931(6)
C1 C -0.4279(8) 0.4317(8) 0.9688(7)
N2 N 0.5500(7) 0.2401(7) 0.4156(6)
H1 H 0.6246 0.1868 0.3501
C2 C -0.4638(9) 0.9863(7) 1.0654(7)
C3 C 0.6018(8) 0.2419(8) 0.5334(7)
C4 C 0.3023(8) 0.3845(7) 0.6270(7)
C5 C 0.3856(9) 0.3181(8) 0.3936(7)
C6 C 0.1507(8) 0.4643(7) 0.7446(7)
O10 O -0.0996(7) 0.8786(6) 0.6637(6)
O11 O 0.7588(6) 0.1745(5) 0.5378(5)
C7 C 0.4648(8) 0.3193(8) 0.6455(7)
H2 H 0.4878 0.3247 0.7304
C2A C -0.5362(9) 1.0137(7) 0.9346(7)
O4A O -0.6860(6) 1.1100(5) 0.9422(5)
O6A O -0.4437(6) 0.9414(5) 0.8315(5)
C1A C -0.5721(8) 0.5683(8) 1.0312(7)
O5A O -0.7333(6) 0.5604(5) 1.0659(5)
O8A O -0.5218(6) 0.6776(6) 1.0440(5)
O1A O -0.0208(6) 0.4458(5) 0.3001(5)
O2A O -0.1587(6) 0.5620(5) 0.1276(5)
N1A N -0.2589(7) 0.6116(6) 0.4969(6)
O7A O -0.3616(6) 0.6782(6) 0.7255(5)
N2A N -0.5500(7) 0.7599(7) 0.5844(6)
H1A H -0.6246 0.8132 0.6499
C3A C -0.6018(8) 0.7581(8) 0.4666(7)
C4A C -0.3023(8) 0.6155(7) 0.3730(7)
C5A C -0.3856(9) 0.6819(8) 0.6064(7)
C6A C -0.1507(8) 0.5357(7) 0.2554(7)
O11A O -0.7588(6) 0.8255(5) 0.4622(5)
C7A C -0.4648(8) 0.6807(8) 0.3545(7)
H2A H -0.4878 0.6753 0.2696
O3A O -0.0898(6) 0.3088(6) 0.6629(5)
Sm1A Sm 0.21832(4) 0.29301(4) 0.11027(3)
O9A O -0.0559(7) 0.2379(6) 0.1069(6)
O10A O 0.0996(7) 0.1214(6) 0.3363(6)
O2A_2 O -0.1587(6) 0.5620(5) 1.1276(5)
Sm1A_2 Sm 0.21832(4) 0.29301(4) 1.11027(3)
Sm1A_3 Sm -0.78168(4) 1.29301(4) 1.11027(3)
Sm1A_4 Sm -0.78168(4) 0.29301(4) 1.11027(3)
Sm1_2 Sm -0.21832(4) 0.70699(4) -0.11027(3)
O2_2 O 0.1587(6) 0.4380(5) -0.1276(5)
O4A_2 O 0.3140(6) 0.1100(5) -0.0578(5)
O5A_2 O 0.2667(6) 0.5604(5) 0.0659(5)
O6_2 O 0.4437(6) 0.0586(5) 0.1685(5)
O8_2 O 0.5218(6) 0.3224(6) -0.0440(5)
O12 O -0.1806(8) -0.0207(7) 0.2458(7)
loop_
_geom_bond_atom_site_label_1
_geom_bond_atom_site_label_2
_geom_bond_site_symmetry_1
_geom_bond_site_symmetry_2
Sm1 O1 1_555 1_555
Co1 O1 1_555 1_555
O1 C6 1_555 1_555
O2 C6 1_555 1_555
O3 Co1 1_555 1_555
N1 Co1 1_555 1_555
O4 Sm1 1_555 1_555
O5 Sm1 1_555 1_555
O6 C2 1_555 1_555
O7 C5 1_555 1_555
O8 C1 1_555 1_555
O9 Sm1 1_555 1_555
C1 O5 1_555 1_555
N2 H1 1_555 1_555
C2 O4 1_555 1_555
C3 N2 1_555 1_555
C4 N1 1_555 1_555
C5 N1 1_555 1_555
C6 C4 1_555 1_555
O10 Sm1 1_555 1_555
O11 C3 1_555 1_555
C7 C3 1_555 1_555
H2 C7 1_555 1_555
C2A C2 1_555 1_555
O4A C2A 1_555 1_555
O6A Sm1 1_555 1_555
C1A C1 1_555 1_555
O5A C1A 1_555 1_555
O8A Sm1 1_555 1_555
O1A Co1 1_555 1_555
O2A C6A 1_555 1_555
N1A Co1 1_555 1_555
O7A Sm1 1_555 1_555
N2A H1A 1_555 1_555
C3A N2A 1_555 1_555
C4A N1A 1_555 1_555
C5A N1A 1_555 1_555
C6A O1A 1_555 1_555
O11A C3A 1_555 1_555
C7A C3A 1_555 1_555
H2A C7A 1_555 1_555
O3A Co1 1_555 1_555
Sm1A O7 1_555 1_555
O9A Sm1A 1_555 1_555
O10A Sm1A 1_555 1_555
O2A_2 Sm1 1_555 1_555
Sm1A_2 O2 1_555 1_555
Sm1A_3 O6 1_555 1_555
Sm1A_4 O8 1_555 1_555
Sm1_2 O2A 1_555 1_555
O2_2 Sm1A 1_555 1_555
O4A_2 Sm1A 1_555 1_555
O5A_2 Sm1A 1_555 1_555
O6_2 Sm1A 1_555 1_555
O8_2 Sm1A 1_555 1_555
N2 C5 1_555 1_555
C4 C7 1_555 1_555
C2A O6A 1_555 1_555
O4A Sm1A_3 1_555 1_555
C1A O8A 1_555 1_555
O5A Sm1A_4 1_555 1_555
O1A Sm1A 1_555 1_555
O7A C5A 1_555 1_555
N2A C5A 1_555 1_555
C4A C6A 1_555 1_555
C4A C7A 1_555 1_555

#END
