
#######################################################################
#
#                 Cambridge Crystallographic Data Centre
#                                CCDC 
#
#######################################################################
#
# If this CIF has been generated from an entry in the Cambridge 
# Structural Database, then it will include bibliographic, chemical, 
# crystal, experimental, refinement or atomic coordinate data resulting 
# from the CCDC's data processing and validation procedures.
#
#######################################################################

data_IJASAN
_symmetry_cell_setting           monoclinic
_symmetry_space_group_name_H-M   'P 21/c'
_symmetry_Int_Tables_number      14
_space_group_name_Hall           '-P 2ybc'
loop_
_symmetry_equiv_pos_site_id
_symmetry_equiv_pos_as_xyz
1 x,y,z
2 x,1/2-y,1/2+z
3 -x,-y,-z
4 -x,1/2+y,1/2-z
_cell_length_a                   8.137(1)
_cell_length_b                   15.942(3)
_cell_length_c                   15.971(2)
_cell_angle_alpha                90
_cell_angle_beta                 93.39(2)
_cell_angle_gamma                90
_cell_volume                     2068.13
loop_
_atom_site_label
_atom_site_type_symbol
_atom_site_fract_x
_atom_site_fract_y
_atom_site_fract_z
Cu1 Cu 1.0000 0.50000 0.00000
Cu2 Cu 0.9254(2) 0.16469(11) 0.03848(12)
O1 O 1.0647(11) 0.3971(5) 0.0972(6)
O2 O 0.8419(10) 0.4104(5) -0.0377(6)
O3 O 0.7833(11) 0.2739(5) -0.0276(6)
O4 O 1.0214(10) 0.2587(5) 0.1036(6)
O5 O 0.8378(10) 0.0698(5) -0.0324(6)
O6 O 0.9016(11) -0.0547(5) -0.0841(6)
C1 C 0.9935(16) 0.3326(9) 0.0720(9)
C2 C 0.8602(16) 0.3366(9) -0.0028(9)
C3 C 0.9222(15) 0.0040(9) -0.0346(8)
N1 N 1.1662(12) 0.4505(6) -0.0790(7)
C4 C 1.3288(16) 0.4419(8) -0.0537(10)
H1 H 1.3623 0.4512 0.0022
C5 C 1.4434(17) 0.4196(8) -0.1093(9)
H2 H 1.5529 0.4127 -0.0904
C6 C 1.3983(16) 0.4076(8) -0.1929(9)
C7 C 1.2295(16) 0.4119(8) -0.2191(9)
H3 H 1.1937 0.4005 -0.2743
C8 C 1.1194(16) 0.4338(8) -0.1603(9)
H4 H 1.0082 0.4371 -0.1771
C9 C 1.5248(16) 0.3897(7) -0.2550(9)
C10 C 1.6743(15) 0.3501(7) -0.2321(9)
H5 H 1.6984 0.3330 -0.1770
C11 C 1.7852(15) 0.3371(9) -0.2928(8)
H6 H 1.8848 0.3113 -0.2772
N2 N 1.7563(14) 0.3600(7) -0.3736(8)
C12 C 1.6125(16) 0.3988(8) -0.3973(9)
H7 H 1.5927 0.4151 -0.4529
C13 C 1.4935(18) 0.4148(9) -0.3396(10)
H8 H 1.3954 0.4414 -0.3565
N3 N 1.1020(12) 0.1819(7) -0.0506(7)
C14 C 1.2661(16) 0.1901(8) -0.0289(9)
H9 H 1.2984 0.1988 0.0273
C15 C 1.3846(16) 0.1862(7) -0.0856(8)
H10 H 1.4952 0.1929 -0.0688
C16 C 1.3337(15) 0.1714(9) -0.1726(8)
C17 C 1.1665(17) 0.1716(10) -0.1944(10)
H11 H 1.1301 0.1663 -0.2505
C18 C 1.0522(17) 0.1796(9) -0.1331(9)
H12 H 0.9406 0.1834 -0.1490
C19 C 1.4586(15) 0.1608(9) -0.2358(8)
C20 C 1.6167(15) 0.1298(7) -0.2136(9)
H13 H 1.6463 0.1163 -0.1581
C21 C 1.7273(17) 0.1196(8) -0.2744(9)
H14 H 1.8315 0.0987 -0.2591
N4 N 1.6895(13) 0.1391(6) -0.3571(7)
C22 C 1.5365(16) 0.1726(9) -0.3765(9)
H15 H 1.5113 0.1885 -0.4318
C23 C 1.4187(18) 0.1840(9) -0.3200(9)
H16 H 1.3161 0.2063 -0.3364
C3B C 1.0778(15) -0.0040(9) 0.0346(8)
O5B O 1.1622(10) -0.0698(5) 0.0324(6)
O6B O 1.0984(11) 0.0547(5) 0.0841(6)
O1B O 0.9353(11) 0.6029(5) -0.0972(6)
O2B O 1.1581(10) 0.5896(5) 0.0377(6)
O3B O 1.2167(11) 0.7261(5) 0.0276(6)
O4B O 0.9786(10) 0.7413(5) -0.1036(6)
C1B C 1.0065(16) 0.6674(9) -0.0720(9)
C2B C 1.1398(16) 0.6634(9) 0.0028(9)
N1B N 0.8338(12) 0.5495(6) 0.0790(7)
C4B C 0.6712(16) 0.5581(8) 0.0537(10)
H1B H 0.6377 0.5488 -0.0022
C5B C 0.5566(17) 0.5804(8) 0.1093(9)
H2B H 0.4471 0.5873 0.0904
C6B C 0.6017(16) 0.5924(8) 0.1929(9)
C7B C 0.7705(16) 0.5881(8) 0.2191(9)
H3B H 0.8063 0.5995 0.2743
C8B C 0.8806(16) 0.5662(8) 0.1603(9)
H4B H 0.9918 0.5629 0.1771
C9B C 0.4752(16) 0.6103(7) 0.2550(9)
C10B C 0.3257(15) 0.6499(7) 0.2321(9)
H5B H 0.3016 0.6670 0.1770
C11B C 0.2148(15) 0.6629(9) 0.2928(8)
H6B H 0.1152 0.6887 0.2772
N2B N 0.2437(14) 0.6400(7) 0.3736(8)
C12B C 0.3875(16) 0.6012(8) 0.3973(9)
H7B H 0.4073 0.5849 0.4529
C13B C 0.5065(18) 0.5852(9) 0.3396(10)
H8B H 0.6046 0.5586 0.3565
Cu2B Cu 1.0746(2) 0.83531(11) -0.03848(12)
N3B N 0.8980(12) 0.8181(7) 0.0506(7)
C14B C 0.7339(16) 0.8099(8) 0.0289(9)
H9B H 0.7016 0.8012 -0.0273
C15B C 0.6154(16) 0.8138(7) 0.0856(8)
H10B H 0.5048 0.8071 0.0688
C16B C 0.6663(15) 0.8286(9) 0.1726(8)
C17B C 0.8335(17) 0.8284(10) 0.1944(10)
H11B H 0.8699 0.8337 0.2505
C18B C 0.9478(17) 0.8204(9) 0.1331(9)
H12B H 1.0594 0.8166 0.1490
C19B C 0.5414(15) 0.8392(9) 0.2358(8)
C20B C 0.3833(15) 0.8702(7) 0.2136(9)
H13B H 0.3537 0.8837 0.1581
C21B C 0.2727(17) 0.8804(8) 0.2744(9)
H14B H 0.1685 0.9013 0.2591
N4B N 0.3105(13) 0.8609(6) 0.3571(7)
C22B C 0.4635(16) 0.8274(9) 0.3765(9)
H15B H 0.4887 0.8115 0.4318
C23B C 0.5813(18) 0.8160(9) 0.3200(9)
H16B H 0.6839 0.7937 0.3364
N2A N 0.7563(14) 0.1400(7) 0.1264(8)
Cu2B_2 Cu 1.0746(2) -0.16469(11) -0.03848(12)
Cu2A Cu 1.9254(2) 0.33531(11) -0.46152(12)
Cu2C Cu 0.0746(2) 0.66469(11) 0.46152(12)
O5B_2 O 1.1622(10) 0.9302(5) 0.0324(6)
O6_2 O 0.9016(11) 0.9453(5) -0.0841(6)
N2C N 1.2437(14) 0.8600(7) -0.1264(8)
loop_
_geom_bond_atom_site_label_1
_geom_bond_atom_site_label_2
_geom_bond_site_symmetry_1
_geom_bond_site_symmetry_2
Cu1 O1 1_555 1_555
Cu2 O3 1_555 1_555
O1 C1 1_555 1_555
O2 Cu1 1_555 1_555
O3 C2 1_555 1_555
O4 Cu2 1_555 1_555
O5 Cu2 1_555 1_555
O6 C3 1_555 1_555
C1 O4 1_555 1_555
C2 O2 1_555 1_555
C3 O5 1_555 1_555
N1 Cu1 1_555 1_555
C4 N1 1_555 1_555
H1 C4 1_555 1_555
C5 C4 1_555 1_555
H2 C5 1_555 1_555
C6 C5 1_555 1_555
C7 C6 1_555 1_555
H3 C7 1_555 1_555
C8 N1 1_555 1_555
H4 C8 1_555 1_555
C9 C6 1_555 1_555
C10 C9 1_555 1_555
H5 C10 1_555 1_555
C11 C10 1_555 1_555
H6 C11 1_555 1_555
N2 C11 1_555 1_555
C12 N2 1_555 1_555
H7 C12 1_555 1_555
C13 C9 1_555 1_555
H8 C13 1_555 1_555
N3 Cu2 1_555 1_555
C14 N3 1_555 1_555
H9 C14 1_555 1_555
C15 C14 1_555 1_555
H10 C15 1_555 1_555
C16 C15 1_555 1_555
C17 C16 1_555 1_555
H11 C17 1_555 1_555
C18 N3 1_555 1_555
H12 C18 1_555 1_555
C19 C16 1_555 1_555
C20 C19 1_555 1_555
H13 C20 1_555 1_555
C21 C20 1_555 1_555
H14 C21 1_555 1_555
N4 C21 1_555 1_555
C22 N4 1_555 1_555
H15 C22 1_555 1_555
C23 C19 1_555 1_555
H16 C23 1_555 1_555
C3B C3 1_555 1_555
O5B C3B 1_555 1_555
O6B Cu2 1_555 1_555
O1B Cu1 1_555 1_555
O2B Cu1 1_555 1_555
O3B C2B 1_555 1_555
O4B C1B 1_555 1_555
C1B O1B 1_555 1_555
C2B O2B 1_555 1_555
N1B Cu1 1_555 1_555
C4B N1B 1_555 1_555
H1B C4B 1_555 1_555
C5B C4B 1_555 1_555
H2B C5B 1_555 1_555
C6B C5B 1_555 1_555
C7B C6B 1_555 1_555
H3B C7B 1_555 1_555
C8B N1B 1_555 1_555
H4B C8B 1_555 1_555
C9B C6B 1_555 1_555
C10B C9B 1_555 1_555
H5B C10B 1_555 1_555
C11B C10B 1_555 1_555
H6B C11B 1_555 1_555
N2B C11B 1_555 1_555
C12B N2B 1_555 1_555
H7B C12B 1_555 1_555
C13B C9B 1_555 1_555
H8B C13B 1_555 1_555
Cu2B O3B 1_555 1_555
N3B Cu2B 1_555 1_555
C14B N3B 1_555 1_555
H9B C14B 1_555 1_555
C15B C14B 1_555 1_555
H10B C15B 1_555 1_555
C16B C15B 1_555 1_555
C17B C16B 1_555 1_555
H11B C17B 1_555 1_555
C18B N3B 1_555 1_555
H12B C18B 1_555 1_555
C19B C16B 1_555 1_555
C20B C19B 1_555 1_555
H13B C20B 1_555 1_555
C21B C20B 1_555 1_555
H14B C21B 1_555 1_555
N4B C21B 1_555 1_555
C22B N4B 1_555 1_555
H15B C22B 1_555 1_555
C23B C19B 1_555 1_555
H16B C23B 1_555 1_555
N2A Cu2 1_555 1_555
Cu2B_2 O6 1_555 1_555
Cu2A N2 1_555 1_555
Cu2C N2B 1_555 1_555
O5B_2 Cu2B 1_555 1_555
O6_2 Cu2B 1_555 1_555
N2C Cu2B 1_555 1_555
C1 C2 1_555 1_555
C7 C8 1_555 1_555
C12 C13 1_555 1_555
C17 C18 1_555 1_555
C22 C23 1_555 1_555
C3B O6B 1_555 1_555
O5B Cu2B_2 1_555 1_555
O4B Cu2B 1_555 1_555
C1B C2B 1_555 1_555
C7B C8B 1_555 1_555
C12B C13B 1_555 1_555
C17B C18B 1_555 1_555
C22B C23B 1_555 1_555

#END
