
#######################################################################
#
#                 Cambridge Crystallographic Data Centre
#                                CCDC 
#
#######################################################################
#
# If this CIF has been generated from an entry in the Cambridge 
# Structural Database, then it will include bibliographic, chemical, 
# crystal, experimental, refinement or atomic coordinate data resulting 
# from the CCDC's data processing and validation procedures.
#
#######################################################################

data_IJASIV
_symmetry_cell_setting           monoclinic
_symmetry_space_group_name_H-M   'C 2/c'
_symmetry_Int_Tables_number      15
_space_group_name_Hall           '-C 2yn'
loop_
_symmetry_equiv_pos_site_id
_symmetry_equiv_pos_as_xyz
1 x,y,z
2 x,-y,1/2+z
3 1/2+x,1/2+y,z
4 1/2+x,1/2-y,1/2+z
5 -x,-y,-z
6 -x,y,1/2-z
7 1/2-x,1/2-y,-z
8 1/2-x,1/2+y,1/2-z
_cell_length_a                   11.2867(10)
_cell_length_b                   11.3866(11)
_cell_length_c                   18.9282(18)
_cell_angle_alpha                90
_cell_angle_beta                 106.002(2)
_cell_angle_gamma                90
_cell_volume                     2338.34
loop_
_atom_site_label
_atom_site_type_symbol
_atom_site_fract_x
_atom_site_fract_y
_atom_site_fract_z
Co1 Co 0.0000 0.56360(9) 0.2500
P1 P 0.10314(14) 0.58081(14) 0.10146(8)
N1 N 0.0000 0.7517(6) 0.2500
N2 N 0.0000 1.3739(6) 0.2500
O1 O 0.1175(3) 0.5691(3) 0.1822(2)
O2 O -0.0252(4) 0.6140(4) 0.0561(2)
O3 O 0.1435(5) 0.4612(4) 0.0729(3)
H1 H 0.110(9) 0.438(9) 0.036(6)
O4 O -0.1546(5) 0.5723(5) 0.1555(3)
H2 H -0.213(6) 0.542(5) 0.145(3)
H3 H -0.127(7) 0.589(6) 0.121(4)
C1 C 0.2110(6) 0.6864(6) 0.0861(3)
H8 H 0.198(6) 0.764(6) 0.107(4)
H9 H 0.296(7) 0.657(6) 0.114(4)
C2 C 0.2015(7) 0.7074(7) 0.0059(4)
H10 H 0.125(7) 0.747(7) -0.017(4)
H11 H 0.206(7) 0.639(7) -0.015(4)
C3 C -0.1024(6) 0.8138(5) 0.2469(4)
H12 H -0.170(6) 0.769(6) 0.249(3)
C4 C -0.1062(6) 0.9340(5) 0.2472(4)
H13 H -0.172(6) 0.971(5) 0.247(3)
C5 C 0.0000 0.9976(7) 0.2500
C6 C 0.0000 1.1273(7) 0.2500
C7 C -0.0638(6) 1.1915(5) 0.2900(4)
H14 H -0.107(6) 1.150(5) 0.322(3)
C8 C -0.0600(6) 1.3117(5) 0.2893(4)
H15 H -0.099(5) 1.349(5) 0.316(3)
C2F C 0.2985(7) 0.7926(7) -0.0059(4)
C1F C 0.2890(6) 0.8136(6) -0.0861(3)
P1F P 0.39686(14) 0.91919(14) -0.10146(8)
O1F O 0.3825(3) 0.9309(3) -0.1822(2)
O2F O 0.5252(4) 0.8860(4) -0.0561(2)
O3F O 0.3565(5) 1.0388(4) -0.0729(3)
H1F H 0.390(9) 1.062(9) -0.036(6)
H8F H 0.302(6) 0.736(6) -0.107(4)
H9F H 0.204(7) 0.843(6) -0.114(4)
H10F H 0.375(7) 0.753(7) 0.017(4)
H11F H 0.294(7) 0.861(7) 0.015(4)
C4E C 0.1062(6) 0.9340(5) 0.2528(4)
C3E C 0.1024(6) 0.8138(5) 0.2531(4)
H12E H 0.170(6) 0.769(6) 0.251(3)
H13E H 0.172(6) 0.971(5) 0.253(3)
C8E C 0.0600(6) 1.3117(5) 0.2107(4)
C7E C 0.0638(6) 1.1915(5) 0.2100(4)
H14E H 0.107(6) 1.150(5) 0.178(3)
H15E H 0.099(5) 1.349(5) 0.184(3)
O4E O 0.1546(5) 0.5723(5) 0.3445(3)
H2E H 0.213(6) 0.542(5) 0.355(3)
H3E H 0.127(7) 0.589(6) 0.379(4)
N2_2 N 0.0000 0.3739(6) 0.2500
O1E O -0.1175(3) 0.5691(3) 0.3178(2)
Co1_2 Co 0.0000 1.56360(9) 0.2500
Co1C Co 0.5000 0.93640(9) -0.2500
O5 O -0.1029(8) 0.8591(6) 0.0493(4)
H4 H -0.074(17) 0.764(18) 0.051(11)
H5 H -0.161(8) 0.850(8) 0.048(5)
O6 O -0.3858(6) 0.5018(7) 0.0808(4)
H6 H -0.397(8) 0.549(8) 0.043(5)
H7 H -0.469(14) 0.460(12) 0.060(8)
loop_
_geom_bond_atom_site_label_1
_geom_bond_atom_site_label_2
_geom_bond_site_symmetry_1
_geom_bond_site_symmetry_2
Co1 N1 1_555 1_555
P1 O1 1_555 1_555
N1 C3 1_555 1_555
N2 C8 1_555 1_555
O1 Co1 1_555 1_555
O2 P1 1_555 1_555
O3 P1 1_555 1_555
H1 O3 1_555 1_555
O4 Co1 1_555 1_555
H2 O4 1_555 1_555
H3 O4 1_555 1_555
O5 H4 1_555 1_555
H5 O5 1_555 1_555
O6 H6 1_555 1_555
H7 O6 1_555 1_555
C1 P1 1_555 1_555
H8 C1 1_555 1_555
H9 C1 1_555 1_555
C2 C1 1_555 1_555
H10 C2 1_555 1_555
H11 C2 1_555 1_555
C3 H12 1_555 1_555
C4 C3 1_555 1_555
H13 C4 1_555 1_555
C5 C4 1_555 1_555
C6 C5 1_555 1_555
C7 C6 1_555 1_555
H14 C7 1_555 1_555
C8 C7 1_555 1_555
H15 C8 1_555 1_555
C2F C2 1_555 1_555
C1F C2F 1_555 1_555
P1F C1F 1_555 1_555
O1F P1F 1_555 1_555
O2F P1F 1_555 1_555
O3F P1F 1_555 1_555
H1F O3F 1_555 1_555
H8F C1F 1_555 1_555
H9F C1F 1_555 1_555
H10F C2F 1_555 1_555
H11F C2F 1_555 1_555
C4E C5 1_555 1_555
C3E N1 1_555 1_555
H12E C3E 1_555 1_555
H13E C4E 1_555 1_555
C8E N2 1_555 1_555
C7E C6 1_555 1_555
H14E C7E 1_555 1_555
H15E C8E 1_555 1_555
O4E Co1 1_555 1_555
H2E O4E 1_555 1_555
H3E O4E 1_555 1_555
N2_2 Co1 1_555 1_555
O1E Co1 1_555 1_555
Co1_2 N2 1_555 1_555
Co1C O1F 1_555 1_555
C4E C3E 1_555 1_555
C8E C7E 1_555 1_555

#END
