
#######################################################################
#
#                 Cambridge Crystallographic Data Centre
#                                CCDC 
#
#######################################################################
#
# If this CIF has been generated from an entry in the Cambridge 
# Structural Database, then it will include bibliographic, chemical, 
# crystal, experimental, refinement or atomic coordinate data resulting 
# from the CCDC's data processing and validation procedures.
#
#######################################################################

data_IJASES01
_symmetry_cell_setting           triclinic
_symmetry_space_group_name_H-M   'P -1'
_symmetry_Int_Tables_number      2
_space_group_name_Hall           '-P 1'
loop_
_symmetry_equiv_pos_site_id
_symmetry_equiv_pos_as_xyz
1 x,y,z
2 -x,-y,-z
_cell_length_a                   8.6514(9)
_cell_length_b                   10.1531(11)
_cell_length_c                   11.1703(12)
_cell_angle_alpha                65.4370(10)
_cell_angle_beta                 71.666(2)
_cell_angle_gamma                78.421(2)
_cell_volume                     844.306
loop_
_atom_site_label
_atom_site_type_symbol
_atom_site_fract_x
_atom_site_fract_y
_atom_site_fract_z
Tm1 Tm 0.86789(3) 0.55973(2) 0.34722(2)
C1 C 0.6742(7) 0.7686(5) 0.1791(5)
C2 C 0.5819(7) 0.8882(6) 0.0890(5)
C3 C 0.4207(7) 0.9326(6) 0.1356(6)
H1 H 0.3664 0.8882 0.2269
C4 C 0.6607(7) 0.9578(7) -0.0481(6)
H2 H 0.7697 0.9298 -0.0811
C5 C 1.1798(6) 0.5385(5) 0.1691(5)
C6 C 1.3458(6) 0.5171(6) 0.0826(5)
C7 C 1.4739(7) 0.5871(6) 0.0734(6)
H3 H 1.4561 0.6455 0.1231
C8 C 1.3721(7) 0.4292(6) 0.0091(6)
H4 H 1.2868 0.3817 0.0153
C9 C 1.0701(6) 0.2339(5) 0.5524(5)
C10 C 1.0339(6) 0.1140(5) 0.5236(5)
C11 C 1.0449(7) 0.1308(6) 0.3920(6)
H5 H 1.0741 0.2179 0.3199
C12 C 0.9880(7) -0.0165(6) 0.6319(6)
H6 H 0.9793 -0.0271 0.7205
C13 C 0.7615(10) 0.3283(7) 0.2445(8)
H7 H 0.8533 0.3490 0.1707
C14 C 0.5260(19) 0.1987(14) 0.3707(15)
H8 H 0.5428 0.2070 0.4481
H9 H 0.5001 0.1017 0.3950
H10 H 0.4374 0.2665 0.3423
C15 C 0.7201(19) 0.1501(10) 0.1706(14)
H11 H 0.6432 0.1763 0.1168
H12 H 0.7221 0.0476 0.2237
H13 H 0.8269 0.1741 0.1115
N1 N 0.6715(12) 0.2297(7) 0.2614(9)
O1 O 0.6022(4) 0.7011(4) 0.3039(4)
O2 O 0.6804(5) 0.4552(5) 0.5700(4)
H14 H 0.6440 0.3805 0.5756
H15 H 0.7300 0.4317 0.6317
O3 O 0.8213(5) 0.7344(4) 0.1315(4)
O4 O 1.1567(4) 0.6187(4) 0.2363(4)
O5 O 1.0645(4) 0.4764(4) 0.1749(4)
O6 O 1.0377(4) 0.3657(4) 0.4811(4)
O7 O 1.1320(6) 0.2006(4) 0.6500(5)
O8 O 0.7328(5) 0.3954(4) 0.3196(5)
C1A C 0.3258(7) 1.2314(5) -0.1791(5)
C2A C 0.4181(7) 1.1118(6) -0.0890(5)
C3A C 0.5793(7) 1.0674(6) -0.1356(6)
H1A H 0.6336 1.1118 -0.2269
C4A C 0.3393(7) 1.0422(7) 0.0481(6)
H2A H 0.2303 1.0702 0.0811
O1A O 0.3978(4) 1.2989(4) -0.3039(4)
O3A O 0.1787(5) 1.2656(4) -0.1315(4)
C5A C 1.8202(6) 0.4615(5) -0.1691(5)
C6A C 1.6542(6) 0.4829(6) -0.0826(5)
C7A C 1.5261(7) 0.4129(6) -0.0734(6)
H3A H 1.5439 0.3545 -0.1231
C8A C 1.6279(7) 0.5708(6) -0.0091(6)
H4A H 1.7132 0.6183 -0.0153
O4A O 1.8433(4) 0.3813(4) -0.2363(4)
O5A O 1.9355(4) 0.5236(4) -0.1749(4)
C9A C 0.9299(6) -0.2339(5) 0.4476(5)
C10A C 0.9661(6) -0.1140(5) 0.4764(5)
C11A C 0.9551(7) -0.1308(6) 0.6080(6)
H5A H 0.9259 -0.2179 0.6801
C12A C 1.0120(7) 0.0165(6) 0.3681(6)
H6A H 1.0207 0.0271 0.2795
O6A O 0.9623(4) -0.3657(4) 0.5189(4)
O7A O 0.8680(6) -0.2006(4) 0.3500(5)
Tm1A Tm 0.13211(3) 1.44027(2) -0.34722(2)
C13A C 0.2385(10) 1.6717(7) -0.2445(8)
H7A H 0.1467 1.6510 -0.1707
C14A C 0.4740(19) 1.8013(14) -0.3707(15)
H8A H 0.4572 1.7930 -0.4481
H9A H 0.4999 1.8983 -0.3950
H10A H 0.5626 1.7335 -0.3423
C15A C 0.2799(19) 1.8499(10) -0.1706(14)
H11A H 0.3568 1.8237 -0.1168
H12A H 0.2779 1.9524 -0.2237
H13A H 0.1731 1.8259 -0.1115
N1A N 0.3285(12) 1.7703(7) -0.2614(9)
O2A O 0.3196(5) 1.5448(5) -0.5700(4)
H14A H 0.3560 1.6195 -0.5756
H15A H 0.2700 1.5683 -0.6317
O8A O 0.2672(5) 1.6046(4) -0.3196(5)
Tm1_2 Tm 0.86789(3) -0.44027(2) 0.34722(2)
Tm1A_2 Tm 1.13211(3) -0.55973(2) 0.65278(2)
Tm1A_3 Tm 1.13211(3) 0.44027(2) 0.65278(2)
Tm1A_4 Tm 2.13211(3) 0.44027(2) -0.34722(2)
O4A_2 O -0.1567(4) 1.3813(4) -0.2363(4)
O5A_2 O -0.0645(4) 1.5236(4) -0.1749(4)
O6_2 O 0.0377(4) 1.3657(4) -0.5189(4)
O6A_2 O -0.0377(4) 1.6343(4) -0.4811(4)
O6A_3 O 0.9623(4) 0.6343(4) 0.5189(4)
O7_2 O 0.1320(6) 1.2006(4) -0.3500(5)
O7A_2 O 0.8680(6) 0.7994(4) 0.3500(5)
loop_
_geom_bond_atom_site_label_1
_geom_bond_atom_site_label_2
_geom_bond_site_symmetry_1
_geom_bond_site_symmetry_2
Tm1 O1 1_555 1_555
C1 C2 1_555 1_555
C2 C3 1_555 1_555
C3 H1 1_555 1_555
C4 C2 1_555 1_555
H2 C4 1_555 1_555
C5 C6 1_555 1_555
C6 C7 1_555 1_555
C7 H3 1_555 1_555
C8 C6 1_555 1_555
H4 C8 1_555 1_555
C9 C10 1_555 1_555
C10 C11 1_555 1_555
C11 H5 1_555 1_555
C12 C10 1_555 1_555
H6 C12 1_555 1_555
C13 H7 1_555 1_555
C14 H8 1_555 1_555
H9 C14 1_555 1_555
H10 C14 1_555 1_555
C15 H11 1_555 1_555
H12 C15 1_555 1_555
H13 C15 1_555 1_555
N1 C13 1_555 1_555
O1 C1 1_555 1_555
O2 Tm1 1_555 1_555
H14 O2 1_555 1_555
H15 O2 1_555 1_555
O3 Tm1 1_555 1_555
O4 Tm1 1_555 1_555
O5 Tm1 1_555 1_555
O6 Tm1 1_555 1_555
O7 C9 1_555 1_555
O8 Tm1 1_555 1_555
C1A C2A 1_555 1_555
C2A C3A 1_555 1_555
C3A C4 1_555 1_555
H1A C3A 1_555 1_555
C4A C3 1_555 1_555
H2A C4A 1_555 1_555
O1A C1A 1_555 1_555
O3A C1A 1_555 1_555
C5A C6A 1_555 1_555
C6A C7A 1_555 1_555
C7A C8 1_555 1_555
H3A C7A 1_555 1_555
C8A C7 1_555 1_555
H4A C8A 1_555 1_555
O4A C5A 1_555 1_555
O5A C5A 1_555 1_555
C9A C10A 1_555 1_555
C10A C11A 1_555 1_555
C11A C12 1_555 1_555
H5A C11A 1_555 1_555
C12A C11 1_555 1_555
H6A C12A 1_555 1_555
O6A C9A 1_555 1_555
O7A C9A 1_555 1_555
Tm1A O1A 1_555 1_555
C13A H7A 1_555 1_555
C14A H8A 1_555 1_555
H9A C14A 1_555 1_555
H10A C14A 1_555 1_555
C15A H11A 1_555 1_555
H12A C15A 1_555 1_555
H13A C15A 1_555 1_555
N1A C13A 1_555 1_555
O2A Tm1A 1_555 1_555
H14A O2A 1_555 1_555
H15A O2A 1_555 1_555
O8A Tm1A 1_555 1_555
Tm1_2 O6A 1_555 1_555
Tm1A_2 O6A 1_555 1_555
Tm1A_3 O6 1_555 1_555
Tm1A_4 O4A 1_555 1_555
O4A_2 Tm1A 1_555 1_555
O5A_2 Tm1A 1_555 1_555
O6_2 Tm1A 1_555 1_555
O6A_2 Tm1A 1_555 1_555
O6A_3 Tm1 1_555 1_555
O7_2 Tm1A 1_555 1_555
O7A_2 Tm1 1_555 1_555
C1 O3 1_555 1_555
C5 O4 1_555 1_555
C5 O5 1_555 1_555
C9 O6 1_555 1_555
C13 O8 1_555 1_555
C14 N1 1_555 1_555
C15 N1 1_555 1_555
O7 Tm1A_3 1_555 1_555
C2A C4A 1_555 1_555
O3A Tm1A 1_555 1_555
C6A C8A 1_555 1_555
O5A Tm1A_4 1_555 1_555
C10A C12A 1_555 1_555
O7A Tm1_2 1_555 1_555
C13A O8A 1_555 1_555
C14A N1A 1_555 1_555
C15A N1A 1_555 1_555
Tm1A_3 O6A_3 1_555 1_555

#END
