
#######################################################################
#
#                 Cambridge Crystallographic Data Centre
#                                CCDC 
#
#######################################################################
#
# If this CIF has been generated from an entry in the Cambridge 
# Structural Database, then it will include bibliographic, chemical, 
# crystal, experimental, refinement or atomic coordinate data resulting 
# from the CCDC's data processing and validation procedures.
#
#######################################################################

data_IJATUJ
_symmetry_cell_setting           monoclinic
_symmetry_space_group_name_H-M   'C c'
_symmetry_Int_Tables_number      9
_space_group_name_Hall           'C -2yc'
loop_
_symmetry_equiv_pos_site_id
_symmetry_equiv_pos_as_xyz
1 x,y,z
2 x,-y,1/2+z
3 1/2+x,1/2+y,z
4 1/2+x,1/2-y,1/2+z
_cell_length_a                   16.1224(6)
_cell_length_b                   29.4322(10)
_cell_length_c                   23.6489(8)
_cell_angle_alpha                90
_cell_angle_beta                 108.111(2)
_cell_angle_gamma                90
_cell_volume                     10665.8
loop_
_atom_site_label
_atom_site_type_symbol
_atom_site_fract_x
_atom_site_fract_y
_atom_site_fract_z
Ag1 Ag 1.02676(3) 0.668677(14) 0.582552(17)
Ag2 Ag 0.48997(3) 0.586135(13) 0.500536(16)
N1 N 0.7468(3) 0.64038(17) 0.5155(3)
N2 N 0.9539(4) 0.69894(18) 0.6484(2)
N3 N 0.8752(4) 0.72007(19) 0.6270(2)
N4 N 0.9110(3) 0.69110(18) 0.5082(2)
N5 N 0.8482(3) 0.71717(17) 0.5197(2)
N6 N 0.5753(4) 0.52846(19) 0.4772(2)
N7 N 0.6368(4) 0.5360(2) 0.4472(3)
N8 N 0.5501(3) 0.63292(17) 0.4490(2)
N9 N 0.6036(3) 0.61506(17) 0.4201(2)
C1 C 0.7925(5) 0.6555(2) 0.5692(3)
C2 C 0.8138(5) 0.6294(2) 0.6205(3)
H1 H 0.8442 0.6419 0.6583
C3 C 0.7887(4) 0.5844(2) 0.6141(3)
H2 H 0.8029 0.5652 0.6480
C4 C 0.7436(5) 0.5672(2) 0.5594(3)
H3 H 0.7277 0.5360 0.5546
C5 C 0.7216(5) 0.5966(2) 0.5109(3)
C6 C 0.8166(4) 0.7057(2) 0.5689(3)
H4 H 0.7612 0.7232 0.5625
C7 C 0.6696(4) 0.5819(2) 0.4484(3)
H5 H 0.7116 0.5813 0.4250
C8 C 0.9848(4) 0.7120(2) 0.7047(3)
C9 C 0.9256(4) 0.7395(2) 0.7202(3)
H6 H 0.9324 0.7523 0.7583
C10 C 0.8545(5) 0.7449(2) 0.6695(3)
C11 C 0.9185(6) 0.7084(3) 0.4580(3)
C12 C 0.8611(5) 0.7440(2) 0.4375(3)
H7 H 0.8541 0.7612 0.4023
C13 C 0.8167(5) 0.7496(2) 0.4772(3)
C14 C 0.5712(4) 0.4840(2) 0.4804(3)
C15 C 0.6264(5) 0.4624(2) 0.4540(3)
H8 H 0.6336 0.4306 0.4507
C16 C 0.6685(5) 0.4964(3) 0.4337(3)
C17 C 0.5032(4) 0.6639(2) 0.4126(3)
C18 C 0.5246(4) 0.6655(2) 0.3596(3)
H9 H 0.4993 0.6847 0.3265
C19 C 0.5885(5) 0.6342(2) 0.3647(3)
C20 C 1.0714(5) 0.6942(2) 0.7435(3)
H10 H 1.0968 0.6753 0.7178
C21 C 0.7708(5) 0.7714(3) 0.6574(3)
H11 H 0.7563 0.7846 0.6165
C22 C 0.9879(8) 0.6892(4) 0.4317(4)
H12 H 1.0432 0.6965 0.4639
C23 C 0.7449(5) 0.7824(2) 0.4783(3)
H13 H 0.7509 0.7894 0.5208
C24 C 0.5123(5) 0.4638(2) 0.5132(3)
H14 H 0.4806 0.4894 0.5252
C25 C 0.7385(5) 0.4945(3) 0.4030(4)
H15 H 0.7239 0.5173 0.3700
C26 C 0.4315(5) 0.6900(2) 0.4285(3)
H16 H 0.3812 0.6689 0.4233
C27 C 0.6405(6) 0.6214(2) 0.3241(3)
H17 H 0.6534 0.5881 0.3284
C28 C 1.1359(5) 0.7327(3) 0.7695(3)
H18 H 1.1429 0.7516 0.7371
H19 H 1.1926 0.7198 0.7921
H20 H 1.1137 0.7514 0.7959
C29 C 1.0619(5) 0.6641(2) 0.7925(3)
H21 H 1.0209 0.6395 0.7753
H22 H 1.0398 0.6820 0.8197
H23 H 1.1189 0.6512 0.8145
C30 C 0.6964(5) 0.7406(3) 0.6592(4)
H24 H 0.6901 0.7160 0.6303
H25 H 0.6421 0.7581 0.6494
H26 H 0.7088 0.7277 0.6992
C31 C 0.7822(6) 0.8102(3) 0.7009(4)
H27 H 0.8309 0.8294 0.6990
H28 H 0.7944 0.7981 0.7412
H29 H 0.7286 0.8284 0.6907
C32 C 0.9967(10) 0.7166(5) 0.3833(6)
H30 H 1.0387 0.7024 0.3665
H31 H 1.0175 0.7470 0.3982
H32 H 0.9399 0.7192 0.3525
C33 C 0.9909(7) 0.6387(3) 0.4309(6)
H33 H 1.0347 0.6288 0.4126
H34 H 0.9336 0.6269 0.4077
H35 H 1.0064 0.6271 0.4717
C34 C 0.7505(5) 0.8268(2) 0.4469(3)
H36 H 0.8060 0.8418 0.4671
H37 H 0.7021 0.8467 0.4478
H38 H 0.7469 0.8206 0.4055
C35 C 0.6561(5) 0.7596(3) 0.4503(4)
H39 H 0.6531 0.7315 0.4719
H40 H 0.6489 0.7523 0.4086
H41 H 0.6095 0.7802 0.4523
C36 C 0.5687(5) 0.4402(2) 0.5701(3)
H42 H 0.5310 0.4270 0.5912
H43 H 0.6081 0.4624 0.5957
H44 H 0.6031 0.4160 0.5596
C37 C 0.4450(5) 0.4321(2) 0.4742(4)
H45 H 0.4079 0.4202 0.4966
H46 H 0.4744 0.4068 0.4613
H47 H 0.4090 0.4486 0.4392
C38 C 0.8276(6) 0.5056(3) 0.4455(4)
H48 H 0.8709 0.5046 0.4243
H49 H 0.8429 0.4834 0.4779
H50 H 0.8266 0.5361 0.4619
C39 C 0.7404(5) 0.4477(3) 0.3766(3)
H51 H 0.7863 0.4467 0.3575
H52 H 0.6838 0.4414 0.3469
H53 H 0.7523 0.4248 0.4082
C40 C 0.3988(6) 0.7306(3) 0.3871(4)
H54 H 0.3791 0.7201 0.3457
H55 H 0.4463 0.7526 0.3924
H56 H 0.3501 0.7451 0.3967
C41 C 0.4625(5) 0.7056(3) 0.4940(4)
H57 H 0.4154 0.7223 0.5028
H58 H 0.5135 0.7254 0.5007
H59 H 0.4782 0.6790 0.5200
C42 C 0.5878(5) 0.6312(3) 0.2590(3)
H60 H 0.5334 0.6137 0.2482
H61 H 0.6222 0.6224 0.2331
H62 H 0.5743 0.6637 0.2542
C43 C 0.7284(5) 0.6478(3) 0.3413(3)
H63 H 0.7619 0.6409 0.3827
H64 H 0.7167 0.6805 0.3371
H65 H 0.7620 0.6386 0.3151
N10 N 1.2714(3) 0.61505(17) 0.5701(2)
N11 N 1.3591(4) 0.55398(18) 0.4371(2)
N12 N 1.2956(4) 0.53531(18) 0.4577(2)
N13 N 1.4431(3) 0.56608(17) 0.5767(2)
N14 N 1.3693(4) 0.53796(18) 0.5636(2)
N15 N 1.1326(4) 0.62244(18) 0.6337(2)
N16 N 1.2144(4) 0.63982(17) 0.6647(2)
N17 N 1.1343(4) 0.72570(18) 0.6068(2)
N18 N 1.2207(4) 0.71902(19) 0.6369(3)
C44 C 1.2702(5) 0.5995(2) 0.5168(3)
C45 C 1.2478(5) 0.6264(2) 0.4663(3)
H66 H 1.2438 0.6138 0.4286
C46 C 1.2314(4) 0.6716(2) 0.4717(3)
H67 H 1.2179 0.6910 0.4380
C47 C 1.2346(5) 0.6888(2) 0.5273(3)
H68 H 1.2266 0.7202 0.5328
C48 C 1.2499(5) 0.6587(2) 0.5738(3)
C49 C 1.2927(4) 0.5492(2) 0.5162(3)
H69 H 1.2436 0.5320 0.5236
C50 C 1.2557(4) 0.6731(2) 0.6365(3)
H70 H 1.3190 0.6742 0.6602
C51 C 1.3387(4) 0.5407(2) 0.3812(3)
C52 C 1.2632(4) 0.5137(2) 0.3655(3)
H71 H 1.2358 0.5002 0.3278
C53 C 1.2365(5) 0.5105(2) 0.4155(3)
C54 C 1.4978(5) 0.5492(2) 0.6266(3)
C55 C 1.4613(5) 0.5118(2) 0.6458(3)
H72 H 1.4878 0.4941 0.6803
C56 C 1.3813(5) 0.5051(2) 0.6065(3)
C57 C 1.1208(5) 0.5902(2) 0.6689(3)
C58 C 1.1913(5) 0.5861(2) 0.7217(3)
H73 H 1.1972 0.5654 0.7535
C59 C 1.2498(5) 0.6188(2) 0.7170(3)
C60 C 1.1247(5) 0.7711(2) 0.6071(3)
C61 C 1.2042(5) 0.7923(2) 0.6380(3)
H74 H 1.2140 0.8240 0.6443
C62 C 1.2641(5) 0.7585(2) 0.6569(3)
C63 C 1.3937(5) 0.5565(2) 0.3435(3)
H75 H 1.4445 0.5737 0.3700
C64 C 1.1602(5) 0.4870(3) 0.4252(3)
H76 H 1.1809 0.4730 0.4657
C65 C 1.5864(5) 0.5693(3) 0.6532(3)
H77 H 1.6266 0.5542 0.6342
C66 C 1.3083(5) 0.4715(2) 0.6051(3)
H78 H 1.2744 0.4659 0.5624
C67 C 1.0354(5) 0.5641(3) 0.6510(4)
H79 H 0.9888 0.5857 0.6535
C68 C 1.3393(5) 0.6297(2) 0.7583(3)
H80 H 1.3492 0.6631 0.7565
C69 C 1.0356(6) 0.7911(2) 0.5733(3)
H81 H 0.9938 0.7652 0.5603
C70 C 1.3612(6) 0.7614(2) 0.6857(4)
H82 H 1.3787 0.7360 0.7151
C71 C 1.4302(5) 0.5162(2) 0.3175(3)
H83 H 1.4632 0.4962 0.3499
H84 H 1.4688 0.5274 0.2957
H85 H 1.3819 0.4991 0.2903
C72 C 1.3413(5) 0.5893(2) 0.2954(3)
H86 H 1.3213 0.6150 0.3142
H87 H 1.2907 0.5734 0.2688
H88 H 1.3783 0.6005 0.2725
C73 C 1.1281(6) 0.4490(3) 0.3814(4)
H89 H 1.1767 0.4287 0.3826
H90 H 1.1039 0.4616 0.3413
H91 H 1.0827 0.4320 0.3918
C74 C 1.0867(5) 0.5194(3) 0.4247(4)
H92 H 1.1091 0.5434 0.4543
H93 H 1.0403 0.5027 0.4344
H94 H 1.0632 0.5331 0.3852
C75 C 1.6217(5) 0.5609(4) 0.7198(3)
H95 H 1.6197 0.5282 0.7276
H96 H 1.5859 0.5773 0.7398
H97 H 1.6821 0.5716 0.7348
C76 C 1.5893(6) 0.6223(3) 0.6421(4)
H98 H 1.5694 0.6283 0.5993
H99 H 1.6493 0.6333 0.6593
H100 H 1.5512 0.6380 0.6609
C77 C 1.3479(5) 0.4262(2) 0.6325(4)
H101 H 1.3009 0.4047 0.6312
H102 H 1.3835 0.4311 0.6739
H103 H 1.3844 0.4139 0.6099
C78 C 1.2469(5) 0.4912(3) 0.6350(4)
H104 H 1.2007 0.4691 0.6334
H105 H 1.2210 0.5191 0.6146
H106 H 1.2790 0.4980 0.6766
C79 C 1.0351(8) 0.5251(4) 0.6921(4)
H107 H 0.9775 0.5106 0.6799
H108 H 1.0482 0.5364 0.7329
H109 H 1.0794 0.5028 0.6903
C80 C 1.0106(6) 0.5475(3) 0.5881(4)
H110 H 1.0025 0.5736 0.5611
H111 H 0.9561 0.5302 0.5789
H112 H 1.0571 0.5280 0.5831
C81 C 1.3472(6) 0.6171(3) 0.8224(3)
H113 H 1.3015 0.6326 0.8343
H114 H 1.4046 0.6264 0.8487
H115 H 1.3406 0.5841 0.8254
C82 C 1.4077(5) 0.6052(3) 0.7384(4)
H116 H 1.4013 0.6133 0.6971
H117 H 1.4004 0.5723 0.7414
H118 H 1.4659 0.6141 0.7639
C83 C 1.0418(5) 0.8148(2) 0.5171(3)
H119 H 0.9850 0.8278 0.4952
H120 H 1.0590 0.7927 0.4918
H121 H 1.0855 0.8391 0.5282
C84 C 1.0005(5) 0.8221(2) 0.6113(3)
H122 H 0.9437 0.8341 0.5875
H123 H 1.0412 0.8472 0.6260
H124 H 0.9936 0.8049 0.6451
C85 C 1.4112(7) 0.7562(4) 0.6424(5)
H125 H 1.4738 0.7592 0.6634
H126 H 1.3930 0.7797 0.6117
H127 H 1.3996 0.7261 0.6237
C86 C 1.3828(6) 0.8067(3) 0.7209(5)
H128 H 1.4462 0.8095 0.7388
H129 H 1.3551 0.8070 0.7524
H130 H 1.3609 0.8323 0.6939
Ag2_2 Ag 1.48997(3) 0.586135(13) 0.500536(16)
N11_2 N 0.3591(4) 0.55398(18) 0.4371(2)
N13_2 N 0.4431(3) 0.56608(17) 0.5767(2)
S1 S 0.09945(15) 0.62037(10) 0.04791(12)
O1 O 0.1457(5) 0.6624(3) 0.0597(3)
O2 O 0.1366(6) 0.5849(3) 0.0247(3)
O3 O 0.0676(7) 0.6055(4) 0.0962(4)
C87 C -0.0003(8) 0.6324(4) -0.0128(5)
F1 F 0.0178(5) 0.6453(2) -0.0604(3)
F2 F -0.0437(6) 0.6658(3) 0.0048(5)
F3 F -0.0527(6) 0.5959(3) -0.0237(4)
S2 S 0.7650(2) 0.54662(9) 0.22032(13)
O4 O 0.7786(13) 0.5163(5) 0.1714(7)
O5 O 0.7689(12) 0.5908(4) 0.2039(5)
O6 O 0.7020(6) 0.5393(3) 0.2497(5)
C88 C 0.8680(9) 0.5411(5) 0.2763(5)
F4 F 0.9376(7) 0.5461(4) 0.2615(5)
F5 F 0.8776(7) 0.4947(4) 0.2976(5)
F6 F 0.8758(8) 0.5649(4) 0.3269(4)
N19 N 0.1639(6) 0.6671(4) 0.3191(4)
C89 C 0.1288(7) 0.6426(4) 0.2839(5)
C90 C 0.0818(9) 0.6101(5) 0.2340(7)
H131 H 0.0921 0.5787 0.2483
H132 H 0.1041 0.6143 0.2002
H133 H 0.0191 0.6165 0.2213
N20 N 0.755(2) 0.3309(15) 0.493(2)
C91 C 0.7723(19) 0.3708(8) 0.5298(12)
C92 C 0.8330(19) 0.4074(12) 0.5763(13)
H134 H 0.8417 0.3970 0.6172
H135 H 0.8041 0.4371 0.5704
H136 H 0.8897 0.4099 0.5694
O7 O 0.6712(12) 0.7026(8) 0.8284(11)
C93 C 0.5862(12) 0.7049(6) 0.7923(9)
C94 C 0.5359(15) 0.6889(7) 0.8112(15)
C95 C 0.741(3) 0.6745(11) 0.8105(16)
C96 C 0.8422(18) 0.6415(10) 0.7976(13)
C97? C 0.8415(11) 0.5508(5) 0.2688(6)
F7? F 0.7825(18) 0.5356(7) 0.2891(9)
F8? F 0.9031(13) 0.5131(7) 0.2782(7)
F9? F 0.8900(12) 0.5859(6) 0.2971(8)
O8? O 0.7553(18) 0.5130(6) 0.1745(10)
O9? O 0.7519(14) 0.5945(5) 0.1800(8)
O10? O 0.8795(10) 0.5684(6) 0.1733(6)
S3? S 0.8046(6) 0.5581(2) 0.1907(3)
loop_
_geom_bond_atom_site_label_1
_geom_bond_atom_site_label_2
_geom_bond_site_symmetry_1
_geom_bond_site_symmetry_2
Ag1 N2 1_555 1_555
Ag2 N6 1_555 1_555
N1 C1 1_555 1_555
N2 N3 1_555 1_555
N3 C6 1_555 1_555
N4 Ag1 1_555 1_555
N5 N4 1_555 1_555
N6 N7 1_555 1_555
N7 C7 1_555 1_555
N8 Ag2 1_555 1_555
N9 N8 1_555 1_555
C1 C2 1_555 1_555
C2 H1 1_555 1_555
C3 C2 1_555 1_555
H2 C3 1_555 1_555
C4 C3 1_555 1_555
H3 C4 1_555 1_555
C5 N1 1_555 1_555
C6 N5 1_555 1_555
H4 C6 1_555 1_555
C7 N9 1_555 1_555
H5 C7 1_555 1_555
C8 N2 1_555 1_555
C9 C8 1_555 1_555
H6 C9 1_555 1_555
C10 N3 1_555 1_555
C11 N4 1_555 1_555
C12 C11 1_555 1_555
H7 C12 1_555 1_555
C13 N5 1_555 1_555
C14 N6 1_555 1_555
C15 C14 1_555 1_555
H8 C15 1_555 1_555
C16 N7 1_555 1_555
C17 N8 1_555 1_555
C18 C17 1_555 1_555
H9 C18 1_555 1_555
C19 N9 1_555 1_555
C20 C8 1_555 1_555
H10 C20 1_555 1_555
C21 C10 1_555 1_555
H11 C21 1_555 1_555
C22 C11 1_555 1_555
H12 C22 1_555 1_555
C23 C13 1_555 1_555
H13 C23 1_555 1_555
C24 C14 1_555 1_555
H14 C24 1_555 1_555
C25 C16 1_555 1_555
H15 C25 1_555 1_555
C26 C17 1_555 1_555
H16 C26 1_555 1_555
C27 C19 1_555 1_555
H17 C27 1_555 1_555
C28 C20 1_555 1_555
H18 C28 1_555 1_555
H19 C28 1_555 1_555
H20 C28 1_555 1_555
C29 C20 1_555 1_555
H21 C29 1_555 1_555
H22 C29 1_555 1_555
H23 C29 1_555 1_555
C30 C21 1_555 1_555
H24 C30 1_555 1_555
H25 C30 1_555 1_555
H26 C30 1_555 1_555
C31 C21 1_555 1_555
H27 C31 1_555 1_555
H28 C31 1_555 1_555
H29 C31 1_555 1_555
C32 C22 1_555 1_555
H30 C32 1_555 1_555
H31 C32 1_555 1_555
H32 C32 1_555 1_555
C33 C22 1_555 1_555
H33 C33 1_555 1_555
H34 C33 1_555 1_555
H35 C33 1_555 1_555
C34 C23 1_555 1_555
H36 C34 1_555 1_555
H37 C34 1_555 1_555
H38 C34 1_555 1_555
C35 C23 1_555 1_555
H39 C35 1_555 1_555
H40 C35 1_555 1_555
H41 C35 1_555 1_555
C36 C24 1_555 1_555
H42 C36 1_555 1_555
H43 C36 1_555 1_555
H44 C36 1_555 1_555
C37 C24 1_555 1_555
H45 C37 1_555 1_555
H46 C37 1_555 1_555
H47 C37 1_555 1_555
C38 C25 1_555 1_555
H48 C38 1_555 1_555
H49 C38 1_555 1_555
H50 C38 1_555 1_555
C39 C25 1_555 1_555
H51 C39 1_555 1_555
H52 C39 1_555 1_555
H53 C39 1_555 1_555
C40 C26 1_555 1_555
H54 C40 1_555 1_555
H55 C40 1_555 1_555
H56 C40 1_555 1_555
C41 C26 1_555 1_555
H57 C41 1_555 1_555
H58 C41 1_555 1_555
H59 C41 1_555 1_555
C42 C27 1_555 1_555
H60 C42 1_555 1_555
H61 C42 1_555 1_555
H62 C42 1_555 1_555
C43 C27 1_555 1_555
H63 C43 1_555 1_555
H64 C43 1_555 1_555
H65 C43 1_555 1_555
N10 C44 1_555 1_555
N11 N12 1_555 1_555
N12 C49 1_555 1_555
N13 N14 1_555 1_555
N14 C49 1_555 1_555
N15 Ag1 1_555 1_555
N16 N15 1_555 1_555
N17 Ag1 1_555 1_555
N18 N17 1_555 1_555
C44 C45 1_555 1_555
C45 H66 1_555 1_555
C46 C45 1_555 1_555
H67 C46 1_555 1_555
C47 C46 1_555 1_555
H68 C47 1_555 1_555
C48 N10 1_555 1_555
C49 C44 1_555 1_555
H69 C49 1_555 1_555
C50 N16 1_555 1_555
H70 C50 1_555 1_555
C51 N11 1_555 1_555
C52 C51 1_555 1_555
H71 C52 1_555 1_555
C53 N12 1_555 1_555
C54 N13 1_555 1_555
C55 C54 1_555 1_555
H72 C55 1_555 1_555
C56 N14 1_555 1_555
C57 N15 1_555 1_555
C58 C57 1_555 1_555
H73 C58 1_555 1_555
C59 N16 1_555 1_555
C60 N17 1_555 1_555
C61 C60 1_555 1_555
H74 C61 1_555 1_555
C62 N18 1_555 1_555
C63 C51 1_555 1_555
H75 C63 1_555 1_555
C64 C53 1_555 1_555
H76 C64 1_555 1_555
C65 C54 1_555 1_555
H77 C65 1_555 1_555
C66 C56 1_555 1_555
H78 C66 1_555 1_555
C67 C57 1_555 1_555
H79 C67 1_555 1_555
C68 C59 1_555 1_555
H80 C68 1_555 1_555
C69 C60 1_555 1_555
H81 C69 1_555 1_555
C70 C62 1_555 1_555
H82 C70 1_555 1_555
C71 C63 1_555 1_555
H83 C71 1_555 1_555
H84 C71 1_555 1_555
H85 C71 1_555 1_555
C72 C63 1_555 1_555
H86 C72 1_555 1_555
H87 C72 1_555 1_555
H88 C72 1_555 1_555
C73 C64 1_555 1_555
H89 C73 1_555 1_555
H90 C73 1_555 1_555
H91 C73 1_555 1_555
C74 C64 1_555 1_555
H92 C74 1_555 1_555
H93 C74 1_555 1_555
H94 C74 1_555 1_555
C75 C65 1_555 1_555
H95 C75 1_555 1_555
H96 C75 1_555 1_555
H97 C75 1_555 1_555
C76 C65 1_555 1_555
H98 C76 1_555 1_555
H99 C76 1_555 1_555
H100 C76 1_555 1_555
C77 C66 1_555 1_555
H101 C77 1_555 1_555
H102 C77 1_555 1_555
H103 C77 1_555 1_555
C78 C66 1_555 1_555
H104 C78 1_555 1_555
H105 C78 1_555 1_555
H106 C78 1_555 1_555
C79 C67 1_555 1_555
H107 C79 1_555 1_555
H108 C79 1_555 1_555
H109 C79 1_555 1_555
C80 C67 1_555 1_555
H110 C80 1_555 1_555
H111 C80 1_555 1_555
H112 C80 1_555 1_555
C81 C68 1_555 1_555
H113 C81 1_555 1_555
H114 C81 1_555 1_555
H115 C81 1_555 1_555
C82 C68 1_555 1_555
H116 C82 1_555 1_555
H117 C82 1_555 1_555
H118 C82 1_555 1_555
C83 C69 1_555 1_555
H119 C83 1_555 1_555
H120 C83 1_555 1_555
H121 C83 1_555 1_555
C84 C69 1_555 1_555
H122 C84 1_555 1_555
H123 C84 1_555 1_555
H124 C84 1_555 1_555
C85 C70 1_555 1_555
H125 C85 1_555 1_555
H126 C85 1_555 1_555
H127 C85 1_555 1_555
C86 C70 1_555 1_555
H128 C86 1_555 1_555
H129 C86 1_555 1_555
H130 C86 1_555 1_555
S1 O1 1_555 1_555
O2 S1 1_555 1_555
O3 S1 1_555 1_555
C87 S1 1_555 1_555
F1 C87 1_555 1_555
F2 C87 1_555 1_555
F3 C87 1_555 1_555
S2 O4 1_555 1_555
O5 S2 1_555 1_555
O6 S2 1_555 1_555
C88 S2 1_555 1_555
F4 C88 1_555 1_555
F5 C88 1_555 1_555
F6 C88 1_555 1_555
N19 C89 1_555 1_555
C89 C90 1_555 1_555
C90 H131 1_555 1_555
H132 C90 1_555 1_555
H133 C90 1_555 1_555
N20 C91 1_555 1_555
C91 C92 1_555 1_555
C92 H134 1_555 1_555
H135 C92 1_555 1_555
H136 C92 1_555 1_555
O7 C93 1_555 1_555
C93 C94 1_555 1_555
C95 O7 1_555 1_555
C96 C95 1_555 1_555
Ag2_2 N11 1_555 1_555
N11_2 Ag2 1_555 1_555
N13_2 Ag2 1_555 1_555
C1 C6 1_555 1_555
C4 C5 1_555 1_555
C5 C7 1_555 1_555
C9 C10 1_555 1_555
C12 C13 1_555 1_555
C15 C16 1_555 1_555
C18 C19 1_555 1_555
N13 Ag2_2 1_555 1_555
N18 C50 1_555 1_555
C47 C48 1_555 1_555
C48 C50 1_555 1_555
C52 C53 1_555 1_555
C55 C56 1_555 1_555
C58 C59 1_555 1_555
C61 C62 1_555 1_555

#END
