
#######################################################################
#
#                 Cambridge Crystallographic Data Centre
#                                CCDC 
#
#######################################################################
#
# If this CIF has been generated from an entry in the Cambridge 
# Structural Database, then it will include bibliographic, chemical, 
# crystal, experimental, refinement or atomic coordinate data resulting 
# from the CCDC's data processing and validation procedures.
#
#######################################################################

data_IJEBOP
_symmetry_cell_setting           triclinic
_symmetry_space_group_name_H-M   'P -1'
_symmetry_Int_Tables_number      2
_space_group_name_Hall           '-P 1'
loop_
_symmetry_equiv_pos_site_id
_symmetry_equiv_pos_as_xyz
1 x,y,z
2 -x,-y,-z
_cell_length_a                   8.2588(12)
_cell_length_b                   9.6887(14)
_cell_length_c                   13.0447(19)
_cell_angle_alpha                71.193(2)
_cell_angle_beta                 81.694(2)
_cell_angle_gamma                72.739(2)
_cell_volume                     942.194
loop_
_atom_site_label
_atom_site_type_symbol
_atom_site_fract_x
_atom_site_fract_y
_atom_site_fract_z
C1 C 1.1653(6) 0.3636(6) 0.0842(4)
H1 H 1.1724 0.3993 0.1411
C2 C 1.1084(9) 0.2340(7) -0.0060(5)
H2 H 1.0700 0.1652 -0.0254
C3 C 1.1907(9) 0.3326(7) -0.0710(5)
H3 H 1.2194 0.3432 -0.1442
C4 C 1.0130(6) 0.1758(5) 0.1894(4)
C5 C 1.0170(7) 0.0277(6) 0.2244(4)
H4 H 1.0774 -0.0426 0.1887
C6 C 0.9182(7) -0.0068(6) 0.3218(4)
H5 H 0.9056 -0.1036 0.3567
C7 C 0.8425(6) 0.1125(5) 0.3609(4)
C8 C 0.7371(6) 0.1175(6) 0.4587(4)
C9 C 0.6359(9) 0.2368(6) 0.4867(5)
H6 H 0.6228 0.3360 0.4428
C10 C 0.5503(8) 0.1978(6) 0.5897(4)
H7 H 0.4762 0.2680 0.6211
C11 C 0.5885(6) 0.0485(6) 0.6366(4)
C12 C 0.4949(6) -0.1684(6) 0.7625(4)
H8 H 0.5136 -0.2251 0.7143
C13 C 0.4271(8) -0.0967(8) 0.9056(5)
H9 H 0.3877 -0.0950 0.9758
C14 C 0.4852(9) 0.0124(8) 0.8305(5)
H10 H 0.4956 0.1008 0.8394
C15 C 1.6704(11) 0.3925(8) -0.2211(6)
C16 C 1.7909(10) 0.4350(8) -0.3124(7)
F1 F 1.9521(10) 0.3569(10) -0.2886(8)
F2 F 1.7901(12) 0.4003(12) -0.3924(5)
F3 F 1.8137(9) 0.5652(6) -0.3336(5)
N1 N 1.2260(5) 0.4144(5) -0.0149(4)
N2 N 1.0918(5) 0.2540(5) 0.0937(3)
N3 N 0.5259(5) -0.0317(5) 0.7385(3)
N4 N 0.4345(5) -0.2103(6) 0.8634(3)
O1 O 1.7081(10) 0.2735(8) -0.1531(6)
O2 O 1.5359(13) 0.4745(10) -0.2332(8)
S1 S 0.89046(16) 0.27419(14) 0.27486(10)
S2 S 0.72872(16) -0.04889(14) 0.55770(10)
Ag1A Ag 1.35393(5) 0.58802(5) -0.07189(4)
Ag1A_2 Ag 0.35393(5) -0.41198(5) 0.92811(4)
N4_2 N 1.4345(5) 0.7897(6) -0.1366(3)
Ag1 Ag 1.64607(5) 0.41198(5) 0.07189(4)
loop_
_geom_bond_atom_site_label_1
_geom_bond_atom_site_label_2
_geom_bond_site_symmetry_1
_geom_bond_site_symmetry_2
C1 H1 1_555 1_555
C2 H2 1_555 1_555
C3 C2 1_555 1_555
H3 C3 1_555 1_555
C4 C5 1_555 1_555
C5 H4 1_555 1_555
C6 C5 1_555 1_555
H5 C6 1_555 1_555
C7 C6 1_555 1_555
C8 C7 1_555 1_555
C9 C8 1_555 1_555
H6 C9 1_555 1_555
C10 C9 1_555 1_555
H7 C10 1_555 1_555
C11 C10 1_555 1_555
C12 H8 1_555 1_555
C13 H9 1_555 1_555
C14 C13 1_555 1_555
H10 C14 1_555 1_555
C15 C16 1_555 1_555
C16 F1 1_555 1_555
F2 C16 1_555 1_555
F3 C16 1_555 1_555
N1 C1 1_555 1_555
N2 C1 1_555 1_555
N3 C11 1_555 1_555
N4 C12 1_555 1_555
O1 C15 1_555 1_555
O2 C15 1_555 1_555
S1 C4 1_555 1_555
S2 C8 1_555 1_555
Ag1A N1 1_555 1_555
Ag1A_2 N4 1_555 1_555
N4_2 Ag1A 1_555 1_555
C2 N2 1_555 1_555
C3 N1 1_555 1_555
C4 N2 1_555 1_555
C7 S1 1_555 1_555
C11 S2 1_555 1_555
C12 N3 1_555 1_555
C13 N4 1_555 1_555
C14 N3 1_555 1_555
O2 Ag1A 1_555 1_555

#END
