
#######################################################################
#
#                 Cambridge Crystallographic Data Centre
#                                CCDC 
#
#######################################################################
#
# If this CIF has been generated from an entry in the Cambridge 
# Structural Database, then it will include bibliographic, chemical, 
# crystal, experimental, refinement or atomic coordinate data resulting 
# from the CCDC's data processing and validation procedures.
#
#######################################################################

data_IJEBEF
_symmetry_cell_setting           monoclinic
_symmetry_space_group_name_H-M   'P 2/c'
_symmetry_Int_Tables_number      13
_space_group_name_Hall           '-P 2yc'
loop_
_symmetry_equiv_pos_site_id
_symmetry_equiv_pos_as_xyz
1 x,y,z
2 -x,y,1/2-z
3 -x,-y,-z
4 x,-y,1/2+z
_cell_length_a                   3.8169(14)
_cell_length_b                   7.901(3)
_cell_length_c                   26.283(9)
_cell_angle_alpha                90
_cell_angle_beta                 96.527(6)
_cell_angle_gamma                90
_cell_volume                     787.488
loop_
_atom_site_label
_atom_site_type_symbol
_atom_site_fract_x
_atom_site_fract_y
_atom_site_fract_z
Ag1 Ag 1.5000 1.11238(11) 0.2500
C1 C 0.7447(17) 0.7503(9) 0.0911(2)
C2 C 0.6287(19) 0.6065(9) 0.1104(3)
H1 H 0.6198 0.5877 0.1452
C3 C 0.5227(18) 0.4879(9) 0.0723(2)
H2 H 0.4383 0.3810 0.0793
C4 C 0.5536(18) 0.5419(8) 0.0243(2)
C5 C 1.0722(19) 0.8925(9) 0.1664(3)
H3 H 1.1360 0.7952 0.1851
C6 C 1.0181(19) 1.1522(9) 0.1429(3)
H4 H 1.0405 1.2694 0.1433
C7 C 0.850(2) 1.0605(9) 0.1033(3)
H5 H 0.7369 1.1019 0.0726
N1 N 0.8830(15) 0.8937(7) 0.1184(2)
N2 N 1.1494(15) 1.0460(7) 0.1820(2)
N3 N 1.5000 1.5075(13) 0.2500
O1 O 1.370(2) 1.4322(9) 0.2116(2)
O2 O 1.5000 1.6616(11) 0.2500
S1 S 0.7285(5) 0.7441(2) 0.02552(6)
Ag1B Ag -0.5000 -0.11238(11) -0.2500
C1B C 0.2553(17) 0.2497(9) -0.0911(2)
C2B C 0.3713(19) 0.3935(9) -0.1104(3)
H1B H 0.3802 0.4123 -0.1452
C3B C 0.4773(18) 0.5121(9) -0.0723(2)
H2B H 0.5617 0.6190 -0.0793
C4B C 0.4464(18) 0.4581(8) -0.0243(2)
C5B C -0.0722(19) 0.1075(9) -0.1664(3)
H3B H -0.1360 0.2048 -0.1851
C6B C -0.0181(19) -0.1522(9) -0.1429(3)
H4B H -0.0405 -0.2694 -0.1433
C7B C 0.150(2) -0.0605(9) -0.1033(3)
H5B H 0.2631 -0.1019 -0.0726
N1B N 0.1170(15) 0.1063(7) -0.1184(2)
N2B N -0.1494(15) -0.0460(7) -0.1820(2)
N2A N 1.8506(15) 1.0460(7) 0.3180(2)
O1A O 1.630(2) 1.4322(9) 0.2884(2)
S1B S 0.2715(5) 0.2559(2) -0.02552(6)
loop_
_geom_bond_atom_site_label_1
_geom_bond_atom_site_label_2
_geom_bond_site_symmetry_1
_geom_bond_site_symmetry_2
Ag1 N2 1_555 1_555
C1 C2 1_555 1_555
C2 H1 1_555 1_555
C3 C2 1_555 1_555
H2 C3 1_555 1_555
C4 C3 1_555 1_555
C5 H3 1_555 1_555
C6 H4 1_555 1_555
C7 C6 1_555 1_555
H5 C7 1_555 1_555
N1 C1 1_555 1_555
N2 C5 1_555 1_555
N3 O1 1_555 1_555
O1 Ag1 1_555 1_555
O2 N3 1_555 1_555
S1 C1 1_555 1_555
Ag1B N2B 1_555 1_555
C1B C2B 1_555 1_555
C2B H1B 1_555 1_555
C3B C2B 1_555 1_555
H2B C3B 1_555 1_555
C4B C4 1_555 1_555
C5B H3B 1_555 1_555
C6B H4B 1_555 1_555
C7B C6B 1_555 1_555
H5B C7B 1_555 1_555
N1B C1B 1_555 1_555
N2B C5B 1_555 1_555
N2A Ag1 1_555 1_555
O1A Ag1 1_555 1_555
S1B C1B 1_555 1_555
C4 S1 1_555 1_555
C5 N1 1_555 1_555
C6 N2 1_555 1_555
C7 N1 1_555 1_555
N3 O1A 1_555 1_555
C3B C4B 1_555 1_555
C4B S1B 1_555 1_555
C5B N1B 1_555 1_555
C6B N2B 1_555 1_555
C7B N1B 1_555 1_555

#END
