
#######################################################################
#
#                 Cambridge Crystallographic Data Centre
#                                CCDC 
#
#######################################################################
#
# If this CIF has been generated from an entry in the Cambridge 
# Structural Database, then it will include bibliographic, chemical, 
# crystal, experimental, refinement or atomic coordinate data resulting 
# from the CCDC's data processing and validation procedures.
#
#######################################################################

data_IJEBIJ
_symmetry_cell_setting           monoclinic
_symmetry_space_group_name_H-M   'P 21/n'
_symmetry_Int_Tables_number      14
_space_group_name_Hall           '-P 2yn'
loop_
_symmetry_equiv_pos_site_id
_symmetry_equiv_pos_as_xyz
1 x,y,z
2 1/2-x,1/2+y,1/2-z
3 -x,-y,-z
4 1/2+x,1/2-y,1/2+z
_cell_length_a                   13.731(4)
_cell_length_b                   8.046(3)
_cell_length_c                   15.458(5)
_cell_angle_alpha                90
_cell_angle_beta                 101.940(4)
_cell_angle_gamma                90
_cell_volume                     1670.85
loop_
_atom_site_label
_atom_site_type_symbol
_atom_site_fract_x
_atom_site_fract_y
_atom_site_fract_z
O1 O -0.0204(6) 0.6763(10) 0.2824(5)
Cl1 Cl 0.00167(15) 0.5289(2) 0.24234(15)
Ag1 Ag 0.00644(4) 0.09035(8) 0.23088(4)
C1 C -0.1768(5) -0.1049(9) 0.1444(5)
H1 H -0.1395 -0.2007 0.1603
C2 C -0.2181(6) 0.1505(10) 0.1242(5)
H2 H -0.2142 0.2659 0.1235
C3 C -0.3009(6) 0.0615(9) 0.0933(6)
H3 H -0.3637 0.1025 0.0682
C4 C -0.3341(5) -0.2461(9) 0.0907(5)
C5 C -0.3260(6) -0.3847(9) 0.1394(5)
H4 H -0.2782 -0.3999 0.1910
C6 C -0.3974(5) -0.5043(9) 0.1043(5)
H5 H -0.4021 -0.6069 0.1309
C7 C -0.4598(6) -0.4564(8) 0.0271(5)
C8 C 0.1938(6) -0.1034(9) 0.3172(5)
H6 H 0.1782 -0.1843 0.2735
C9 C 0.1934(6) 0.1227(9) 0.3904(6)
H7 H 0.1771 0.2287 0.4068
C10 C 0.2668(6) 0.0251(9) 0.4370(6)
H8 H 0.3090 0.0506 0.4905
C11 C 0.3233(5) -0.2625(9) 0.4126(5)
C12 C 0.2955(6) -0.4212(9) 0.3949(6)
H9 H 0.2330 -0.4523 0.3632
C13 C 0.3704(6) -0.5334(10) 0.4290(5)
H10 H 0.3635 -0.6476 0.4205
C14 C 0.4538(5) -0.4625(8) 0.4756(5)
N1 N -0.1410(4) 0.0471(7) 0.1565(4)
N2 N -0.2734(4) -0.1042(7) 0.1064(4)
N3 N 0.1471(5) 0.0403(8) 0.3152(4)
N4 N 0.2658(4) -0.1190(7) 0.3888(4)
O2 O -0.0794(6) 0.4737(12) 0.1792(7)
O3 O 0.0328(12) 0.4144(13) 0.3054(11)
O4 O 0.0773(8) 0.5627(18) 0.2009(9)
S1 S 0.44360(14) -0.2474(2) 0.47380(15)
S2 S -0.42798(14) -0.2583(2) -0.00264(13)
O1B O -0.9796(6) -1.6763(10) -0.2824(5)
Cl1B Cl -1.00167(15) -1.5289(2) -0.24234(15)
Ag1B Ag -1.00644(4) -1.09035(8) -0.23088(4)
Ag1B_2 Ag 0.99356(4) -1.09035(8) 0.76912(4)
C1B C -0.8232(5) -0.8951(9) -0.1444(5)
H1B H -0.8605 -0.7993 -0.1603
C2B C -0.7819(6) -1.1505(10) -0.1242(5)
H2B H -0.7858 -1.2659 -0.1235
C3B C -0.6991(6) -1.0615(9) -0.0933(6)
H3B H -0.6363 -1.1025 -0.0682
C4B C -0.6659(5) -0.7539(9) -0.0907(5)
C5B C -0.6740(6) -0.6153(9) -0.1394(5)
H4B H -0.7218 -0.6001 -0.1910
C6B C -0.6026(5) -0.4957(9) -0.1043(5)
H5B H -0.5979 -0.3931 -0.1309
C7B C -0.5402(6) -0.5436(8) -0.0271(5)
C8B C 0.8062(6) -0.8966(9) 0.6828(5)
H6B H 0.8218 -0.8157 0.7265
C9B C 0.8066(6) -1.1227(9) 0.6096(6)
H7B H 0.8229 -1.2287 0.5932
C10B C 0.7332(6) -1.0251(9) 0.5630(6)
H8B H 0.6910 -1.0506 0.5095
C11B C 0.6767(5) -0.7375(9) 0.5874(5)
C12B C 0.7045(6) -0.5788(9) 0.6051(6)
H9B H 0.7670 -0.5477 0.6368
C13B C 0.6296(6) -0.4666(10) 0.5710(5)
H10B H 0.6365 -0.3524 0.5795
C14B C 0.5462(5) -0.5375(8) 0.5244(5)
N1B N -0.8590(4) -1.0471(7) -0.1565(4)
N2B N -0.7266(4) -0.8958(7) -0.1064(4)
N3B N 0.8529(5) -1.0403(8) 0.6848(4)
N3B_2 N -1.1471(5) -1.0403(8) -0.3152(4)
N4B N 0.7342(4) -0.8810(7) 0.6112(4)
O2B O -0.9206(6) -1.4737(12) -0.1792(7)
O3B O -1.0328(12) -1.4144(13) -0.3054(11)
O4B O -1.0773(8) -1.5627(18) -0.2009(9)
S1B S 0.55640(14) -0.7526(2) 0.52620(15)
S2B S -0.57202(14) -0.7417(2) 0.00264(13)
loop_
_geom_bond_atom_site_label_1
_geom_bond_atom_site_label_2
_geom_bond_site_symmetry_1
_geom_bond_site_symmetry_2
O1 Cl1 1_555 1_555
Cl1 O2 1_555 1_555
Ag1 N1 1_555 1_555
C1 H1 1_555 1_555
C2 H2 1_555 1_555
C3 C2 1_555 1_555
H3 C3 1_555 1_555
C4 C5 1_555 1_555
C5 H4 1_555 1_555
C6 C5 1_555 1_555
H5 C6 1_555 1_555
C7 C6 1_555 1_555
C8 H6 1_555 1_555
C9 H7 1_555 1_555
C10 C9 1_555 1_555
H8 C10 1_555 1_555
C11 C12 1_555 1_555
C12 H9 1_555 1_555
C13 C12 1_555 1_555
H10 C13 1_555 1_555
C14 C13 1_555 1_555
N1 C1 1_555 1_555
N2 C1 1_555 1_555
N3 Ag1 1_555 1_555
N4 C8 1_555 1_555
O3 Cl1 1_555 1_555
O4 Cl1 1_555 1_555
S1 C11 1_555 1_555
S2 C4 1_555 1_555
O1B Cl1B 1_555 1_555
Cl1B O2B 1_555 1_555
Ag1B N1B 1_555 1_555
Ag1B_2 N3B 1_555 1_555
C1B H1B 1_555 1_555
C2B H2B 1_555 1_555
C3B C2B 1_555 1_555
H3B C3B 1_555 1_555
C4B C5B 1_555 1_555
C5B H4B 1_555 1_555
C6B C5B 1_555 1_555
H5B C6B 1_555 1_555
C7B C7 1_555 1_555
C8B H6B 1_555 1_555
C9B H7B 1_555 1_555
C10B C9B 1_555 1_555
H8B C10B 1_555 1_555
C11B C12B 1_555 1_555
C12B H9B 1_555 1_555
C13B C12B 1_555 1_555
H10B C13B 1_555 1_555
C14B C14 1_555 1_555
N1B C1B 1_555 1_555
N2B C1B 1_555 1_555
N3B C8B 1_555 1_555
N3B_2 Ag1B 1_555 1_555
N4B C8B 1_555 1_555
O3B Cl1B 1_555 1_555
O4B Cl1B 1_555 1_555
S1B C11B 1_555 1_555
S2B C4B 1_555 1_555
Ag1 O3 1_555 1_555
C2 N1 1_555 1_555
C3 N2 1_555 1_555
C4 N2 1_555 1_555
C7 S2 1_555 1_555
C8 N3 1_555 1_555
C9 N3 1_555 1_555
C10 N4 1_555 1_555
C11 N4 1_555 1_555
C14 S1 1_555 1_555
Ag1B O3B 1_555 1_555
C2B N1B 1_555 1_555
C3B N2B 1_555 1_555
C4B N2B 1_555 1_555
C6B C7B 1_555 1_555
C7B S2B 1_555 1_555
C9B N3B 1_555 1_555
C10B N4B 1_555 1_555
C11B N4B 1_555 1_555
C13B C14B 1_555 1_555
C14B S1B 1_555 1_555

#END
