
#######################################################################
#
#                 Cambridge Crystallographic Data Centre
#                                CCDC 
#
#######################################################################
#
# If this CIF has been generated from an entry in the Cambridge 
# Structural Database, then it will include bibliographic, chemical, 
# crystal, experimental, refinement or atomic coordinate data resulting 
# from the CCDC's data processing and validation procedures.
#
#######################################################################

data_IJECAC
_symmetry_cell_setting           orthorhombic
_symmetry_space_group_name_H-M   'P n n a'
_symmetry_Int_Tables_number      52
_space_group_name_Hall           '-P 2a 2bc'
loop_
_symmetry_equiv_pos_site_id
_symmetry_equiv_pos_as_xyz
1 x,y,z
2 1/2-x,-y,z
3 1/2-x,1/2+y,1/2-z
4 x,1/2-y,1/2-z
5 -x,-y,-z
6 1/2+x,y,-z
7 1/2+x,1/2-y,1/2+z
8 -x,1/2+y,1/2+z
_cell_length_a                   13.607(2)
_cell_length_b                   17.518(3)
_cell_length_c                   9.3722(16)
_cell_angle_alpha                90
_cell_angle_beta                 90
_cell_angle_gamma                90
_cell_volume                     2234.03
loop_
_atom_site_label
_atom_site_type_symbol
_atom_site_fract_x
_atom_site_fract_y
_atom_site_fract_z
N1 N 0.19809(17) 0.70336(15) 0.0996(3)
Cd1 Cd 0.30917(2) 0.7500 0.2500
C1 C 0.4013(2) 1.01106(17) 0.0272(3)
H1 H 0.3350 1.0188 0.0461
O1 O 0.29026(15) 0.88185(13) 0.1127(3)
C2 C 0.4583(2) 1.07108(18) -0.0195(3)
H2 H 0.4300 1.1188 -0.0333
N2 N 0.05598(17) 0.65329(15) 0.0381(3)
O2 O 0.42500(15) 0.81452(11) 0.1380(3)
C3 C -0.0333(2) 0.61013(18) 0.0442(4)
C4 C 0.3802(2) 0.87443(18) 0.1006(3)
C5 C -0.2045(2) 0.52330(18) 0.0527(4)
C6 C 0.1228(2) 0.66226(18) 0.1418(4)
H3 H 0.1165 0.6418 0.2329
C7 C 0.1787(2) 0.7212(2) -0.0400(4)
H4 H 0.2192 0.7505 -0.0983
C8 C -0.0872(2) 0.6066(2) 0.1682(4)
H5 H -0.0671 0.6337 0.2484
C9 C -0.1719(2) 0.5625(2) 0.1729(4)
H6 H -0.2073 0.5590 0.2575
C10 C 0.4421(2) 0.93935(17) 0.0461(3)
C11 C 0.0921(2) 0.69020(18) -0.0803(4)
H7 H 0.0629 0.6932 -0.1698
C12 C -0.1483(2) 0.52878(18) -0.0704(4)
H8 H -0.1689 0.5033 -0.1522
C13 C -0.0626(2) 0.57093(18) -0.0749(4)
H9 H -0.0252 0.5727 -0.1579
N1A N -0.69809(17) 0.29664(15) 0.0996(3)
N1C N 0.19809(17) 0.79664(15) 0.4004(3)
Cd1A Cd -0.80917(2) 0.2500 0.2500
Cd1D Cd 0.69083(2) 1.2500 -0.2500
C1D C 0.5987(2) 0.98894(17) -0.0272(3)
H1D H 0.6650 0.9812 -0.0461
O1D O 0.70974(15) 1.11815(13) -0.1127(3)
C2D C 0.5417(2) 0.92892(18) 0.0195(3)
H2D H 0.5700 0.8812 0.0333
N2A N -0.55598(17) 0.34671(15) 0.0381(3)
O2D O 0.57500(15) 1.18548(11) -0.1380(3)
O2C O 0.42500(15) 0.68548(11) 0.3620(3)
C3A C -0.4667(2) 0.38987(18) 0.0442(4)
C4D C 0.6198(2) 1.12557(18) -0.1006(3)
C5A C -0.2955(2) 0.47670(18) 0.0527(4)
C6A C -0.6228(2) 0.33774(18) 0.1418(4)
H3A H -0.6165 0.3582 0.2329
C7A C -0.6787(2) 0.2788(2) -0.0400(4)
H4A H -0.7192 0.2495 -0.0983
C8A C -0.4128(2) 0.3934(2) 0.1682(4)
H5A H -0.4329 0.3663 0.2484
C9A C -0.3281(2) 0.4375(2) 0.1729(4)
H6A H -0.2927 0.4410 0.2575
C10D C 0.5579(2) 1.06065(17) -0.0461(3)
C11A C -0.5921(2) 0.30980(18) -0.0803(4)
H7A H -0.5629 0.3068 -0.1698
C12A C -0.3517(2) 0.47122(18) -0.0704(4)
H8A H -0.3311 0.4967 -0.1522
C13A C -0.4374(2) 0.42907(18) -0.0749(4)
H9A H -0.4748 0.4273 -0.1579
loop_
_geom_bond_atom_site_label_1
_geom_bond_atom_site_label_2
_geom_bond_site_symmetry_1
_geom_bond_site_symmetry_2
N1 Cd1 1_555 1_555
Cd1 O2 1_555 1_555
C1 H1 1_555 1_555
O1 C4 1_555 1_555
C2 C1 1_555 1_555
H2 C2 1_555 1_555
N2 C3 1_555 1_555
O2 C4 1_555 1_555
C3 C8 1_555 1_555
C4 C10 1_555 1_555
C5 C9 1_555 1_555
C6 N1 1_555 1_555
H3 C6 1_555 1_555
C7 N1 1_555 1_555
H4 C7 1_555 1_555
C8 H5 1_555 1_555
C9 C8 1_555 1_555
H6 C9 1_555 1_555
C10 C1 1_555 1_555
C11 N2 1_555 1_555
H7 C11 1_555 1_555
C12 C5 1_555 1_555
H8 C12 1_555 1_555
C13 C3 1_555 1_555
H9 C13 1_555 1_555
N1A Cd1A 1_555 1_555
N1C Cd1 1_555 1_555
Cd1D O2D 1_555 1_555
C1D H1D 1_555 1_555
O1D C4D 1_555 1_555
C2D C10 1_555 1_555
H2D C2D 1_555 1_555
N2A C3A 1_555 1_555
O2D C4D 1_555 1_555
O2C Cd1 1_555 1_555
C3A C8A 1_555 1_555
C4D C10D 1_555 1_555
C5A C5 1_555 1_555
C6A N1A 1_555 1_555
H3A C6A 1_555 1_555
C7A N1A 1_555 1_555
H4A C7A 1_555 1_555
C8A H5A 1_555 1_555
C9A C5A 1_555 1_555
H6A C9A 1_555 1_555
C10D C2 1_555 1_555
C11A N2A 1_555 1_555
H7A C11A 1_555 1_555
C12A C5A 1_555 1_555
H8A C12A 1_555 1_555
C13A C3A 1_555 1_555
H9A C13A 1_555 1_555
N2 C6 1_555 1_555
C7 C11 1_555 1_555
C12 C13 1_555 1_555
C1D C2D 1_555 1_555
C1D C10D 1_555 1_555
N2A C6A 1_555 1_555
C7A C11A 1_555 1_555
C8A C9A 1_555 1_555
C12A C13A 1_555 1_555

#END
