
#######################################################################
#
#                 Cambridge Crystallographic Data Centre
#                                CCDC 
#
#######################################################################
#
# If this CIF has been generated from an entry in the Cambridge 
# Structural Database, then it will include bibliographic, chemical, 
# crystal, experimental, refinement or atomic coordinate data resulting 
# from the CCDC's data processing and validation procedures.
#
#######################################################################

data_IJECUV
_symmetry_cell_setting           triclinic
_symmetry_space_group_name_H-M   'P 1'
_symmetry_Int_Tables_number      1
_space_group_name_Hall           'P 1'
loop_
_symmetry_equiv_pos_site_id
_symmetry_equiv_pos_as_xyz
1 x,y,z
_cell_length_a                   5.2961(2)
_cell_length_b                   7.8521(3)
_cell_length_c                   7.9506(4)
_cell_angle_alpha                90.030(2)
_cell_angle_beta                 106.037(2)
_cell_angle_gamma                95.972(3)
_cell_volume                     315.89
loop_
_atom_site_label
_atom_site_type_symbol
_atom_site_fract_x
_atom_site_fract_y
_atom_site_fract_z
N1 N 0.5623(4) 0.7987(3) -0.3282(3)
Li1 Li 0.0643(8) 0.5023(5) -0.2458(5)
N2 N -0.1250(5) 0.3234(3) 0.3083(3)
Li2 Li 0.2663(9) 1.0219(5) 0.1945(5)
O1 O 0.1939(4) 0.9349(2) -0.0384(2)
C1 C 0.2473(5) 0.8582(3) -0.1596(3)
O2 O 0.0887(3) 0.7523(2) -0.2684(2)
C2 C 0.5282(5) 0.8975(3) -0.1772(3)
O3 O 0.7162(3) 1.4086(2) -0.3455(2)
C3 C 0.5998(5) 1.0893(3) -0.1920(3)
O4 O 0.2984(3) 1.4590(2) -0.3891(2)
C4 C 0.4006(5) 1.1715(3) -0.3355(3)
C5 C 0.4806(4) 1.3599(3) -0.3571(3)
C6 C 0.1755(4) 0.3761(3) 0.1189(3)
O5 O 0.3112(3) 0.2747(2) 0.2195(2)
C7 C -0.0662(5) 0.4325(3) 0.1659(3)
O6 O 0.2260(4) 0.4398(2) -0.0134(2)
O7 O -0.4237(3) 0.9370(2) 0.3447(2)
C8 C -0.0200(5) 0.6226(3) 0.2211(3)
O8 O -0.0475(3) 0.9750(2) 0.2708(2)
C9 C -0.2530(5) 0.6871(3) 0.2721(3)
C10 C -0.2366(5) 0.8797(3) 0.2988(3)
H1 H 0.153(6) 0.643(4) 0.325(4)
H2 H -0.287(5) 0.633(3) 0.383(3)
H3 H 0.600(6) 1.151(4) -0.077(4)
H4 H 0.373(7) 1.115(4) -0.456(5)
H5 H 0.217(7) 1.165(4) -0.307(4)
H6 H -0.411(6) 0.660(4) 0.176(4)
H7 H 0.775(6) 1.114(4) -0.208(4)
H8 H 0.644(6) 0.857(3) -0.074(4)
H9 H 0.018(6) 0.687(4) 0.126(4)
H10 H -0.216(6) 0.408(3) 0.067(4)
H11 H -0.286(8) 0.327(4) 0.309(5)
H12 H 0.733(7) 0.779(3) -0.316(4)
H13 H 0.473(6) 0.702(4) -0.343(3)
H14 H -0.097(6) 0.214(4) 0.291(4)
H15 H 0.520(5) 0.853(4) -0.431(4)
H16 H -0.018(8) 0.364(5) 0.414(6)
O3_2 O -0.2838(3) 0.4086(2) -0.3455(2)
O4_2 O 0.2984(3) 0.4590(2) -0.3891(2)
O5_2 O 0.3112(3) 1.2747(2) 0.2195(2)
O7_2 O 0.5763(3) 0.9370(2) 0.3447(2)
Li1_2 Li 1.0643(8) 1.5023(5) -0.2458(5)
Li1_3 Li 0.0643(8) 1.5023(5) -0.2458(5)
Li2_2 Li 0.2663(9) 0.0219(5) 0.1945(5)
Li2_3 Li -0.7337(9) 1.0219(5) 0.1945(5)
loop_
_geom_bond_atom_site_label_1
_geom_bond_atom_site_label_2
_geom_bond_site_symmetry_1
_geom_bond_site_symmetry_2
N1 C2 1_555 1_555
Li1 O2 1_555 1_555
N2 C7 1_555 1_555
Li2 O1 1_555 1_555
O1 C1 1_555 1_555
C1 O2 1_555 1_555
C2 C1 1_555 1_555
O3 C5 1_555 1_555
C3 C2 1_555 1_555
O4 C5 1_555 1_555
C4 C3 1_555 1_555
C5 C4 1_555 1_555
C6 O5 1_555 1_555
O5 Li2_2 1_555 1_555
C7 C6 1_555 1_555
O6 Li1 1_555 1_555
O7 C10 1_555 1_555
C8 C7 1_555 1_555
O8 Li2 1_555 1_555
C9 C8 1_555 1_555
C10 O8 1_555 1_555
H1 C8 1_555 1_555
H2 C9 1_555 1_555
H3 C3 1_555 1_555
H4 C4 1_555 1_555
H5 C4 1_555 1_555
H6 C9 1_555 1_555
H7 C3 1_555 1_555
H8 C2 1_555 1_555
H9 C8 1_555 1_555
H10 C7 1_555 1_555
H11 N2 1_555 1_555
H12 N1 1_555 1_555
H13 N1 1_555 1_555
H14 N2 1_555 1_555
H15 N1 1_555 1_555
H16 N2 1_555 1_555
O3_2 Li1 1_555 1_555
O4_2 Li1 1_555 1_555
O5_2 Li2 1_555 1_555
O7_2 Li2 1_555 1_555
Li1_2 O3 1_555 1_555
Li1_3 O4 1_555 1_555
Li2_3 O7 1_555 1_555
C6 O6 1_555 1_555
C9 C10 1_555 1_555

#END
