
#######################################################################
#
#                 Cambridge Crystallographic Data Centre
#                                CCDC 
#
#######################################################################
#
# If this CIF has been generated from an entry in the Cambridge 
# Structural Database, then it will include bibliographic, chemical, 
# crystal, experimental, refinement or atomic coordinate data resulting 
# from the CCDC's data processing and validation procedures.
#
#######################################################################

data_IJEDEH
_symmetry_cell_setting           monoclinic
_symmetry_space_group_name_H-M   'P 21/c'
_symmetry_Int_Tables_number      14
_space_group_name_Hall           '-P 2ybc'
loop_
_symmetry_equiv_pos_site_id
_symmetry_equiv_pos_as_xyz
1 x,y,z
2 -x,1/2+y,1/2-z
3 -x,-y,-z
4 x,1/2-y,1/2+z
_cell_length_a                   9.6342(14)
_cell_length_b                   12.1379(17)
_cell_length_c                   13.3493(19)
_cell_angle_alpha                90
_cell_angle_beta                 104.034(2)
_cell_angle_gamma                90
_cell_volume                     1514.46
loop_
_atom_site_label
_atom_site_type_symbol
_atom_site_fract_x
_atom_site_fract_y
_atom_site_fract_z
Cu1 Cu 0.35350(5) 0.97815(4) 0.54270(4)
O1 O 0.5048(3) 0.8076(2) 0.9040(2)
O2 O 0.7681(4) 1.0607(3) 1.0269(3)
O3 O 0.4375(4) 0.9823(2) 0.6876(2)
O4 O 0.3312(4) 0.8243(3) 0.7124(3)
O5 O 0.4852(3) 0.6266(2) 1.0061(2)
O6 O 0.6336(4) 0.6932(3) 1.1501(2)
C1 C 0.5144(4) 0.9005(3) 0.8475(3)
C2 C 0.5996(5) 0.9854(4) 0.8858(3)
H1 H 0.6007 1.0469 0.8445
C3 C 0.6894(5) 0.9838(4) 0.9891(4)
C4 C 0.6752(4) 0.8833(3) 1.0448(3)
H2 H 0.7299 0.8745 1.1120
C5 C 0.5859(4) 0.8038(3) 1.0017(3)
C6 C 0.4170(5) 0.8987(4) 0.7404(3)
C7 C 0.5667(4) 0.6991(3) 1.0609(3)
N1 N 0.2138(4) 1.0947(3) 0.5540(3)
N2 N 0.2248(4) 0.9656(3) 0.4018(3)
C8 C 0.2232(5) 1.1611(3) 0.6360(3)
H3 H 0.3013 1.1540 0.6924
C9 C 0.1207(5) 1.2392(4) 0.6392(4)
H4 H 0.1300 1.2853 0.6961
C10 C 0.0042(6) 1.2476(4) 0.5562(4)
H5 H -0.0676 1.2984 0.5576
C11 C -0.0065(5) 1.1811(4) 0.4709(4)
H6 H -0.0848 1.1865 0.4145
C12 C 0.1020(4) 1.1061(3) 0.4711(3)
C13 C 0.1096(4) 1.0338(3) 0.3829(3)
C14 C 0.0123(5) 1.0361(4) 0.2888(4)
H7 H -0.0675 1.0817 0.2779
C15 C 0.0356(5) 0.9687(4) 0.2099(4)
H8 H -0.0269 0.9706 0.1448
C16 C 0.1513(5) 0.8998(4) 0.2293(4)
H9 H 0.1671 0.8532 0.1779
C17 C 0.2451(5) 0.8998(4) 0.3265(3)
H10 H 0.3238 0.8530 0.3393
Cu1A Cu 0.64650(5) 0.47815(4) 0.95730(4)
Cu1C Cu 0.35350(5) 0.52185(4) 1.04270(4)
O5A O 0.5148(3) 1.1266(2) 0.4939(2)
O5C O 0.4852(3) 0.8734(2) 0.5061(2)
loop_
_geom_bond_atom_site_label_1
_geom_bond_atom_site_label_2
_geom_bond_site_symmetry_1
_geom_bond_site_symmetry_2
Cu1 O3 1_555 1_555
O1 C1 1_555 1_555
O2 C3 1_555 1_555
O3 C6 1_555 1_555
O4 C6 1_555 1_555
O5 C7 1_555 1_555
O6 C7 1_555 1_555
C1 C2 1_555 1_555
C2 H1 1_555 1_555
C3 C2 1_555 1_555
C4 C3 1_555 1_555
H2 C4 1_555 1_555
C5 O1 1_555 1_555
C6 C1 1_555 1_555
C7 C5 1_555 1_555
N1 Cu1 1_555 1_555
N2 Cu1 1_555 1_555
C8 N1 1_555 1_555
H3 C8 1_555 1_555
C9 C8 1_555 1_555
H4 C9 1_555 1_555
C10 C9 1_555 1_555
H5 C10 1_555 1_555
C11 C10 1_555 1_555
H6 C11 1_555 1_555
C12 N1 1_555 1_555
C13 N2 1_555 1_555
C14 C13 1_555 1_555
H7 C14 1_555 1_555
C15 C14 1_555 1_555
H8 C15 1_555 1_555
C16 C15 1_555 1_555
H9 C16 1_555 1_555
C17 N2 1_555 1_555
H10 C17 1_555 1_555
Cu1A O5 1_555 1_555
Cu1C O5 1_555 1_555
O5A Cu1 1_555 1_555
O5C Cu1 1_555 1_555
C4 C5 1_555 1_555
C11 C12 1_555 1_555
C12 C13 1_555 1_555
C16 C17 1_555 1_555

#END
