
#######################################################################
#
#                 Cambridge Crystallographic Data Centre
#                                CCDC 
#
#######################################################################
#
# If this CIF has been generated from an entry in the Cambridge 
# Structural Database, then it will include bibliographic, chemical, 
# crystal, experimental, refinement or atomic coordinate data resulting 
# from the CCDC's data processing and validation procedures.
#
#######################################################################

data_IJEDIL
_symmetry_cell_setting           triclinic
_symmetry_space_group_name_H-M   'P -1'
_symmetry_Int_Tables_number      2
_space_group_name_Hall           '-P 1'
loop_
_symmetry_equiv_pos_site_id
_symmetry_equiv_pos_as_xyz
1 x,y,z
2 -x,-y,-z
_cell_length_a                   8.872(3)
_cell_length_b                   14.004(5)
_cell_length_c                   15.346(5)
_cell_angle_alpha                71.070(6)
_cell_angle_beta                 73.666(7)
_cell_angle_gamma                76.130(7)
_cell_volume                     1707.42
loop_
_atom_site_label
_atom_site_type_symbol
_atom_site_fract_x
_atom_site_fract_y
_atom_site_fract_z
Zn1 Zn 0.96657(10) 0.26139(6) 0.35287(6)
Zn2 Zn 1.63767(10) 0.23302(6) 0.78139(6)
O1 O 1.3322(5) 0.1659(3) 0.5825(3)
O2 O 1.4254(6) -0.1427(4) 0.6302(4)
O3 O 1.5458(6) 0.1356(4) 0.7458(4)
O4 O 1.5592(6) 0.2521(4) 0.6063(4)
O5 O 1.0951(6) 0.1609(4) 0.4403(4)
O6 O 1.0802(9) 0.2749(5) 0.5134(5)
O7 O 0.8157(5) 0.1858(3) 0.0838(3)
O8 O 0.9129(6) -0.1257(4) 0.1715(4)
O9 O 0.9478(6) 0.1650(4) 0.2852(3)
O10 O 0.8551(7) 0.3021(4) 0.1794(4)
O11 O 0.7005(6) 0.1421(4) -0.0988(3)
O12 O 0.7234(7) 0.2857(4) -0.0750(4)
N1 N 1.4135(7) 0.2934(5) 0.8547(5)
N2 N 1.6237(7) 0.3909(5) 0.7190(4)
N3 N 0.9165(7) 0.4208(4) 0.3305(4)
N4 N 1.1643(7) 0.3143(5) 0.2470(5)
C1 C 1.4368(8) 0.1079(5) 0.6353(5)
C2 C 1.4685(8) 0.0058(6) 0.6547(5)
H1 H 1.5397 -0.0310 0.6930
C3 C 1.3928(9) -0.0480(6) 0.6168(5)
C4 C 1.2815(8) 0.0181(5) 0.5623(5)
H2 H 1.2275 -0.0103 0.5356
C5 C 1.2537(8) 0.1175(5) 0.5492(5)
C6 C 1.5215(9) 0.1717(6) 0.6643(6)
C7 C 0.8734(8) 0.1368(5) 0.1630(5)
C8 C 0.9080(8) 0.0352(6) 0.1931(5)
H3 H 0.9499 0.0057 0.2467
C9 C 0.8822(8) -0.0304(6) 0.1447(5)
C10 C 0.8181(8) 0.0256(5) 0.0622(5)
H4 H 0.7956 -0.0106 0.0275
C11 C 0.7901(8) 0.1274(5) 0.0342(5)
C12 C 1.1325(10) 0.1936(6) 0.4971(5)
C13 C 0.8933(8) 0.2091(6) 0.2127(5)
C14 C 0.7331(9) 0.1929(6) -0.0542(5)
C15 C 1.3138(10) 0.2387(8) 0.9201(7)
H5 H 1.3347 0.1680 0.9308
C16 C 1.1781(12) 0.2820(10) 0.9742(7)
H6 H 1.1096 0.2414 1.0210
C17 C 1.1478(12) 0.3862(9) 0.9567(8)
H7 H 1.0572 0.4172 0.9917
C18 C 1.2492(11) 0.4443(7) 0.8887(7)
H8 H 1.2302 0.5150 0.8778
C19 C 1.3825(9) 0.3969(6) 0.8354(6)
C20 C 1.4989(9) 0.4510(6) 0.7573(5)
C21 C 1.4807(11) 0.5557(6) 0.7220(7)
H9 H 1.3924 0.5964 0.7489
C22 C 1.5910(12) 0.5996(7) 0.6484(7)
H10 H 1.5804 0.6705 0.6253
C23 C 1.7195(11) 0.5384(7) 0.6079(6)
H11 H 1.7967 0.5668 0.5571
C24 C 1.7302(10) 0.4340(7) 0.6446(6)
H12 H 1.8148 0.3919 0.6167
C25 C 1.2859(11) 0.2532(8) 0.2084(7)
H13 H 1.2889 0.1827 0.2313
C26 C 1.4079(11) 0.2910(10) 0.1351(8)
H14 H 1.4950 0.2470 0.1116
C27 C 1.3967(13) 0.3933(10) 0.0988(8)
H15 H 1.4741 0.4204 0.0473
C28 C 1.2728(11) 0.4578(8) 0.1370(7)
H16 H 1.2672 0.5283 0.1132
C29 C 1.1557(9) 0.4160(6) 0.2119(6)
C30 C 1.0199(9) 0.4748(6) 0.2612(5)
C31 C 0.9906(11) 0.5819(6) 0.2411(6)
H17 H 1.0592 0.6203 0.1918
C32 C 0.8605(11) 0.6307(7) 0.2938(7)
H18 H 0.8425 0.7016 0.2808
C33 C 0.7590(11) 0.5745(7) 0.3648(7)
H19 H 0.6702 0.6055 0.4010
C34 C 0.7931(10) 0.4697(6) 0.3808(6)
H20 H 0.7253 0.4306 0.4299
O13 O 0.7381(6) 0.2389(4) 0.4326(4)
O14 O 1.8745(6) 0.1987(4) 0.7115(4)
Zn2_2 Zn 0.63767(10) 0.23302(6) -0.21861(6)
O11_2 O 1.7005(6) 0.1421(4) 0.9012(3)
O15 O 0.1299(11) 0.9551(8) 0.3820(7)
O16 O 0.378(3) 0.0506(12) 0.1075(14)
loop_
_geom_bond_atom_site_label_1
_geom_bond_atom_site_label_2
_geom_bond_site_symmetry_1
_geom_bond_site_symmetry_2
Zn1 O5 1_555 1_555
Zn2 O3 1_555 1_555
O1 C1 1_555 1_555
O2 C3 1_555 1_555
O3 C6 1_555 1_555
O4 C6 1_555 1_555
O5 C12 1_555 1_555
O6 C12 1_555 1_555
O7 C7 1_555 1_555
O8 C9 1_555 1_555
O9 Zn1 1_555 1_555
O10 C13 1_555 1_555
O11 C14 1_555 1_555
O12 C14 1_555 1_555
N1 Zn2 1_555 1_555
N2 Zn2 1_555 1_555
N3 Zn1 1_555 1_555
N4 Zn1 1_555 1_555
C1 C2 1_555 1_555
C2 H1 1_555 1_555
C3 C2 1_555 1_555
C4 C3 1_555 1_555
H2 C4 1_555 1_555
C5 O1 1_555 1_555
C6 C1 1_555 1_555
C7 C8 1_555 1_555
C8 H3 1_555 1_555
C9 C8 1_555 1_555
C10 C9 1_555 1_555
H4 C10 1_555 1_555
C11 O7 1_555 1_555
C12 C5 1_555 1_555
C13 O9 1_555 1_555
C14 C11 1_555 1_555
C15 N1 1_555 1_555
H5 C15 1_555 1_555
C16 C15 1_555 1_555
H6 C16 1_555 1_555
C17 C16 1_555 1_555
H7 C17 1_555 1_555
C18 C17 1_555 1_555
H8 C18 1_555 1_555
C19 N1 1_555 1_555
C20 N2 1_555 1_555
C21 C20 1_555 1_555
H9 C21 1_555 1_555
C22 C21 1_555 1_555
H10 C22 1_555 1_555
C23 C22 1_555 1_555
H11 C23 1_555 1_555
C24 N2 1_555 1_555
H12 C24 1_555 1_555
C25 N4 1_555 1_555
H13 C25 1_555 1_555
C26 C25 1_555 1_555
H14 C26 1_555 1_555
C27 C26 1_555 1_555
H15 C27 1_555 1_555
C28 C27 1_555 1_555
H16 C28 1_555 1_555
C29 N4 1_555 1_555
C30 N3 1_555 1_555
C31 C30 1_555 1_555
H17 C31 1_555 1_555
C32 C31 1_555 1_555
H18 C32 1_555 1_555
C33 C32 1_555 1_555
H19 C33 1_555 1_555
C34 N3 1_555 1_555
H20 C34 1_555 1_555
O13 Zn1 1_555 1_555
O14 Zn2 1_555 1_555
Zn2_2 O11 1_555 1_555
O11_2 Zn2 1_555 1_555
C4 C5 1_555 1_555
C7 C13 1_555 1_555
C10 C11 1_555 1_555
C18 C19 1_555 1_555
C19 C20 1_555 1_555
C23 C24 1_555 1_555
C28 C29 1_555 1_555
C29 C30 1_555 1_555
C33 C34 1_555 1_555

#END
