
#######################################################################
#
#                 Cambridge Crystallographic Data Centre
#                                CCDC 
#
#######################################################################
#
# If this CIF has been generated from an entry in the Cambridge 
# Structural Database, then it will include bibliographic, chemical, 
# crystal, experimental, refinement or atomic coordinate data resulting 
# from the CCDC's data processing and validation procedures.
#
#######################################################################

data_IJEDAD
_symmetry_cell_setting           monoclinic
_symmetry_space_group_name_H-M   'P 21/n'
_symmetry_Int_Tables_number      14
_space_group_name_Hall           '-P 2yn'
loop_
_symmetry_equiv_pos_site_id
_symmetry_equiv_pos_as_xyz
1 x,y,z
2 1/2-x,1/2+y,1/2-z
3 -x,-y,-z
4 1/2+x,1/2-y,1/2+z
_cell_length_a                   9.7125(16)
_cell_length_b                   18.472(3)
_cell_length_c                   11.850(2)
_cell_angle_alpha                90
_cell_angle_beta                 94.310(2)
_cell_angle_gamma                90
_cell_volume                     2119.99
loop_
_atom_site_label
_atom_site_type_symbol
_atom_site_fract_x
_atom_site_fract_y
_atom_site_fract_z
Cu1 Cu 0.659341(18) 0.107573(10) 0.111653(16)
Cu2 Cu 1.650580(19) 0.320720(10) -0.161050(17)
O1 O 0.66349(11) 0.01958(6) 0.02041(10)
N1 N 0.53354(13) -0.09177(6) -0.15385(11)
O2 O 0.51702(12) -0.26661(6) -0.27636(11)
N2 N 1.47803(13) 0.28062(7) -0.10367(12)
N3 N 0.84685(13) 0.14318(7) 0.07055(11)
O3 O 0.36759(12) -0.20133(7) -0.18714(12)
O4 O 0.94462(12) -0.08735(6) -0.29929(11)
C1 C 0.63660(15) -0.04162(8) -0.15302(13)
O5 O 0.91552(13) 0.01855(7) -0.21214(13)
C2 C 0.48269(16) -0.21002(8) -0.22968(14)
C3 C 0.87411(16) -0.04176(9) -0.24372(14)
N4 N 0.69895(13) -0.13563(7) -0.25613(11)
C4 C 0.63841(15) 0.02739(8) -0.08524(14)
C5 C 0.73718(15) -0.06870(8) -0.21694(13)
O6 O 0.62003(14) 0.08561(6) -0.13481(12)
C6 C 0.57546(15) -0.14701(8) -0.21676(13)
C7 C 1.42802(17) 0.21636(9) -0.13962(15)
H1 H 1.4743 0.1912 -0.1933
C8 C 1.06430(16) 0.12246(9) -0.00555(14)
H2 H 1.1229 0.0901 -0.0383
C9 C 1.10531(15) 0.19380(9) 0.01394(13)
C10 C 0.93626(16) 0.09978(8) 0.02387(14)
H3 H 0.9112 0.0518 0.0104
C11 C 1.01242(17) 0.23832(9) 0.06433(16)
H4 H 1.0352 0.2863 0.0802
C12 C 1.23710(16) 0.22307(9) -0.02323(14)
C13 C 0.88670(16) 0.21149(9) 0.09081(15)
H5 H 0.8264 0.2425 0.1245
C14 C 1.29019(18) 0.28933(10) 0.01413(16)
H6 H 1.2461 0.3157 0.0677
C15 C 1.31103(17) 0.18592(9) -0.10059(15)
H7 H 1.2816 0.1405 -0.1261
C16 C 1.40832(18) 0.31597(10) -0.02819(16)
H8 H 1.4411 0.3609 -0.0028
O7 O 1.73783(15) 0.36630(8) 0.00877(12)
H9 H 1.6890 0.3752 0.0655
H10 H 1.7758 0.4080 -0.0004
O8 O 1.73164(12) 0.22355(6) -0.16866(12)
H11 H 1.8212 0.2239 -0.1896
H12 H 1.7136 0.1860 -0.1429
O9 O 0.77158(14) 0.04646(8) 0.26910(12)
H13 H 0.8434 0.0696 0.2937
H14 H 0.7976 0.0107 0.2311
Cu1B Cu 0.340659(18) -0.107573(10) -0.111653(16)
Cu2A Cu 0.849420(19) -0.179280(10) -0.338950(17)
N1B N 0.46646(13) 0.09177(6) 0.15385(11)
O3B O 0.63241(12) 0.20133(7) 0.18714(12)
O4A O 1.55538(12) 0.41265(6) -0.20071(11)
N4A N 1.80105(13) 0.36437(7) -0.24387(11)
O10 O -0.10523(15) -0.10630(7) 0.29885(12)
H15 H -0.0445 -0.0782 0.2843
H16 H -0.0922 -0.1386 0.2685
O11 O 0.4555(4) -0.08444(13) 0.3686(2)
O12 O 0.3672(5) -0.0029(2) 0.5367(4)
O13? O 0.2390(7) -0.0234(4) 0.4901(6)
loop_
_geom_bond_atom_site_label_1
_geom_bond_atom_site_label_2
_geom_bond_site_symmetry_1
_geom_bond_site_symmetry_2
Cu1 O1 1_555 1_555
Cu2 N2 1_555 1_555
O1 C4 1_555 1_555
N1 C1 1_555 1_555
O2 C2 1_555 1_555
N2 C7 1_555 1_555
N3 Cu1 1_555 1_555
O3 C2 1_555 1_555
O4 C3 1_555 1_555
C1 C4 1_555 1_555
O5 C3 1_555 1_555
C2 C6 1_555 1_555
C3 C5 1_555 1_555
N4 C5 1_555 1_555
C4 O6 1_555 1_555
C5 C1 1_555 1_555
C6 N1 1_555 1_555
C7 H1 1_555 1_555
C8 H2 1_555 1_555
C9 C8 1_555 1_555
C10 N3 1_555 1_555
H3 C10 1_555 1_555
C11 C9 1_555 1_555
H4 C11 1_555 1_555
C12 C9 1_555 1_555
C13 N3 1_555 1_555
H5 C13 1_555 1_555
C14 C12 1_555 1_555
H6 C14 1_555 1_555
C15 C7 1_555 1_555
H7 C15 1_555 1_555
C16 N2 1_555 1_555
H8 C16 1_555 1_555
O7 Cu2 1_555 1_555
H9 O7 1_555 1_555
H10 O7 1_555 1_555
O8 Cu2 1_555 1_555
H11 O8 1_555 1_555
H12 O8 1_555 1_555
O9 Cu1 1_555 1_555
H13 O9 1_555 1_555
H14 O9 1_555 1_555
O10 H15 1_555 1_555
H16 O10 1_555 1_555
Cu1B N1 1_555 1_555
Cu2A O4 1_555 1_555
N1B Cu1 1_555 1_555
O3B Cu1 1_555 1_555
O4A Cu2 1_555 1_555
N4A Cu2 1_555 1_555
O3 Cu1B 1_555 1_555
N4 C6 1_555 1_555
N4 Cu2A 1_555 1_555
C8 C10 1_555 1_555
C11 C13 1_555 1_555
C12 C15 1_555 1_555
C14 C16 1_555 1_555

#END
