
#######################################################################
#
#                 Cambridge Crystallographic Data Centre
#                                CCDC 
#
#######################################################################
#
# If this CIF has been generated from an entry in the Cambridge 
# Structural Database, then it will include bibliographic, chemical, 
# crystal, experimental, refinement or atomic coordinate data resulting 
# from the CCDC's data processing and validation procedures.
#
#######################################################################

data_IJEFIN
_symmetry_cell_setting           monoclinic
_symmetry_space_group_name_H-M   'C 2/c'
_symmetry_Int_Tables_number      15
_space_group_name_Hall           '-C 2yn'
loop_
_symmetry_equiv_pos_site_id
_symmetry_equiv_pos_as_xyz
1 x,y,z
2 -x,y,1/2-z
3 1/2+x,1/2+y,z
4 1/2-x,1/2+y,1/2-z
5 -x,-y,-z
6 x,-y,1/2+z
7 1/2-x,1/2-y,-z
8 1/2+x,1/2-y,1/2+z
_cell_length_a                   13.1695(11)
_cell_length_b                   17.1480(11)
_cell_length_c                   14.6239(16)
_cell_angle_alpha                90
_cell_angle_beta                 107.9160(10)
_cell_angle_gamma                90
_cell_volume                     3142.38
loop_
_atom_site_label
_atom_site_type_symbol
_atom_site_fract_x
_atom_site_fract_y
_atom_site_fract_z
C1 C 0.5604(3) 0.16153(18) 0.8583(2)
C2 C 0.4877(2) 0.09349(17) 0.8549(2)
C3 C 0.4331(3) 0.09214(19) 0.9225(2)
H1 H 0.4375 0.1349 0.9626
C4 C 0.3724(3) 0.0286(2) 0.9311(3)
H2 H 0.3350 0.0291 0.9756
C5 C 0.3677(3) -0.03615(19) 0.8728(2)
C6 C 0.4180(3) -0.03394(18) 0.8025(2)
H3 H 0.4124 -0.0768 0.7623
C7 C 0.4768(2) 0.03063(17) 0.7902(2)
C8 C 0.3084(3) -0.1079(2) 0.8866(3)
Cu1 Cu 0.74601(3) 0.23552(2) 0.84179(3)
O1 O 0.64697(18) 0.14904(13) 0.83904(19)
O2 O 0.5347(2) 0.22696(13) 0.8818(2)
O3 O 0.3364(2) -0.17191(14) 0.8560(2)
O4 O 0.2380(2) -0.10213(17) 0.9252(2)
O5 O 0.8366(2) 0.19494(15) 0.96479(18)
H4 H 0.8694 0.2325 0.9994
H5 H 0.8034 0.1666 0.9939
O6 O 0.8376(3) 0.1586(2) 0.7672(3)
H6 H 0.8246 0.1726 0.7112
H7 H 0.8825 0.1884 0.8007
O7 O 0.6543(2) 0.28326(18) 0.7231(2)
H8 H 0.6927 0.3004 0.6902
H9 H 0.6042 0.2578 0.6840
C1A C 0.4396(3) 0.16153(18) 0.6417(2)
C2A C 0.5123(2) 0.09349(17) 0.6451(2)
C3A C 0.5669(3) 0.09214(19) 0.5775(2)
H1A H 0.5625 0.1349 0.5374
C4A C 0.6276(3) 0.0286(2) 0.5689(3)
H2A H 0.6650 0.0291 0.5244
C5A C 0.6323(3) -0.03615(19) 0.6272(2)
C6A C 0.5820(3) -0.03394(18) 0.6975(2)
H3A H 0.5876 -0.0768 0.7377
C7A C 0.5232(2) 0.03063(17) 0.7098(2)
C8A C 0.6916(3) -0.1079(2) 0.6134(3)
Cu1A Cu 0.25399(3) 0.23552(2) 0.65821(3)
Cu1B Cu 0.24601(3) -0.26448(2) 0.84179(3)
Cu1C Cu 0.75399(3) -0.26448(2) 0.65821(3)
O1A O 0.35303(18) 0.14904(13) 0.66096(19)
O2A O 0.4653(2) 0.22696(13) 0.6182(2)
O3A O 0.6636(2) -0.17191(14) 0.6440(2)
O3B O 0.8364(2) 0.32809(14) 0.8560(2)
O3C O 0.1636(2) 0.32809(14) 0.6440(2)
O4A O 0.7620(2) -0.10213(17) 0.5748(2)
O5A O 0.1634(2) 0.19494(15) 0.53521(18)
H4A H 0.1306 0.2325 0.5006
H5A H 0.1966 0.1666 0.5061
O6A O 0.1624(3) 0.1586(2) 0.7328(3)
H6A H 0.1754 0.1726 0.7888
H7A H 0.1175 0.1884 0.6993
O7A O 0.3457(2) 0.28326(18) 0.7769(2)
H8A H 0.3073 0.3004 0.8098
H9A H 0.3958 0.2578 0.8160
O8 O 0.7463(3) 0.1474(2) 0.3930(3)
H10 H 0.6834 0.1612 0.3906
H11 H 0.7822 0.1553 0.4516
O9 O 0.8720(4) 0.1477(3) 0.5855(4)
H12 H 0.9060 0.1335 0.5501
H13 H 0.8953 0.1256 0.6375
O10 O 0.9575(3) 0.2901(2) 0.6477(3)
H14 H 0.9337 0.2500 0.6128
H15 H 1.0124 0.3023 0.6322
O11 O 0.5000 0.4120(5) 0.7500
O12 O 0.4983(12) 0.5207(6) 0.8872(10)
H18 H 0.4644 0.5137 0.9251
H19 H 0.5566 0.4946 0.9099
O13 O 0.7879(5) -0.0110(3) 0.3943(4)
H20 H 0.7683 0.0345 0.3851
H21 H 0.7417 -0.0352 0.4093
H16? H 0.5245 0.3701 0.7397
H17? H 0.4505 0.4232 0.7021
loop_
_geom_bond_atom_site_label_1
_geom_bond_atom_site_label_2
_geom_bond_site_symmetry_1
_geom_bond_site_symmetry_2
C1 C2 1_555 1_555
C2 C3 1_555 1_555
C3 H1 1_555 1_555
C4 C3 1_555 1_555
H2 C4 1_555 1_555
C5 C4 1_555 1_555
C6 C5 1_555 1_555
H3 C6 1_555 1_555
C7 C2 1_555 1_555
C8 C5 1_555 1_555
Cu1 O1 1_555 1_555
O1 C1 1_555 1_555
O2 C1 1_555 1_555
O3 C8 1_555 1_555
O4 C8 1_555 1_555
O5 Cu1 1_555 1_555
H4 O5 1_555 1_555
H5 O5 1_555 1_555
O6 Cu1 1_555 1_555
H6 O6 1_555 1_555
H7 O6 1_555 1_555
O7 Cu1 1_555 1_555
H8 O7 1_555 1_555
H9 O7 1_555 1_555
O8 H10 1_555 1_555
H11 O8 1_555 1_555
O9 H12 1_555 1_555
H13 O9 1_555 1_555
O10 H14 1_555 1_555
H15 O10 1_555 1_555
O12 H18 1_555 1_555
H19 O12 1_555 1_555
O13 H20 1_555 1_555
H21 O13 1_555 1_555
C1A C2A 1_555 1_555
C2A C3A 1_555 1_555
C3A H1A 1_555 1_555
C4A C3A 1_555 1_555
H2A C4A 1_555 1_555
C5A C4A 1_555 1_555
C6A C5A 1_555 1_555
H3A C6A 1_555 1_555
C7A C7 1_555 1_555
C8A C5A 1_555 1_555
Cu1A O1A 1_555 1_555
Cu1B O3 1_555 1_555
Cu1C O3A 1_555 1_555
O1A C1A 1_555 1_555
O2A C1A 1_555 1_555
O3A C8A 1_555 1_555
O3B Cu1 1_555 1_555
O3C Cu1A 1_555 1_555
O4A C8A 1_555 1_555
O5A Cu1A 1_555 1_555
H4A O5A 1_555 1_555
H5A O5A 1_555 1_555
O6A Cu1A 1_555 1_555
H6A O6A 1_555 1_555
H7A O6A 1_555 1_555
O7A Cu1A 1_555 1_555
H8A O7A 1_555 1_555
H9A O7A 1_555 1_555
C6 C7 1_555 1_555
C2A C7A 1_555 1_555
C6A C7A 1_555 1_555

#END
