
#######################################################################
#
#                 Cambridge Crystallographic Data Centre
#                                CCDC 
#
#######################################################################
#
# If this CIF has been generated from an entry in the Cambridge 
# Structural Database, then it will include bibliographic, chemical, 
# crystal, experimental, refinement or atomic coordinate data resulting 
# from the CCDC's data processing and validation procedures.
#
#######################################################################

data_IJEJOX01
_symmetry_cell_setting           triclinic
_symmetry_space_group_name_H-M   'P 1'
_symmetry_Int_Tables_number      1
_space_group_name_Hall           'P 1'
loop_
_symmetry_equiv_pos_site_id
_symmetry_equiv_pos_as_xyz
1 x,y,z
_cell_length_a                   7.9053(2)
_cell_length_b                   11.7211(2)
_cell_length_c                   15.0873(4)
_cell_angle_alpha                111.667(1)
_cell_angle_beta                 95.073(1)
_cell_angle_gamma                102.134(1)
_cell_volume                     1248.78
loop_
_atom_site_label
_atom_site_type_symbol
_atom_site_fract_x
_atom_site_fract_y
_atom_site_fract_z
Ce1 Ce 0.543741 0.721576 0.727396
Ce2 Ce 1.21560(10) 0.94497(7) 0.77469(6)
Ce3 Ce 0.23896(10) 0.48569(7) 0.84670(6)
Ce4 Ce 0.59518(12) 0.31603(8) 0.90811(5)
O1 O 0.6553(9) 1.1135(6) 0.7970(5)
O2 O 0.2023(8) 0.7108(6) 0.6800(4)
O3 O 0.5761(9) 0.5342(6) 0.9212(5)
O4 O 0.3740(8) 0.3123(6) 0.7703(5)
O5 O 0.3425(8) 0.5004(6) 0.7018(4)
O6 O 0.4930(9) 0.9190(6) 0.6998(5)
O7 O 0.4166(10) 0.8708(6) 0.8609(5)
O8 O 0.7765(9) 0.8871(6) 0.8588(5)
O9 O 0.7003(8) 0.6323(6) 0.8315(5)
O10 O 0.7499(9) 1.3426(6) 0.7814(5)
O11 O 0.2976(8) 0.3922(6) 0.9663(5)
O12 O 0.3858(8) 1.1183(6) 0.9294(5)
O13 O 1.0005(9) 1.2903(6) 0.7656(5)
O14 O 0.6682(9) 1.1891(6) 1.0057(5)
O15 O 0.3483(9) 0.6363(7) 0.5601(5)
O16 O 0.5651(9) 0.4951(6) 0.6253(5)
O17 O 0.5291(9) 0.4218(6) 1.0755(5)
O18 O 0.0093(9) 0.5517(6) 0.7596(5)
O19 O 1.0451(9) 0.8613(7) 0.8746(5)
O20 O 1.0175(10) 1.0873(7) 0.8321(5)
O21 O 0.3786(9) 0.7146(7) 0.9089(5)
O22 O 0.2930(9) 0.1037(6) 0.7101(5)
O23 O 0.0250(9) 0.8520(6) 0.6151(5)
O24 O -0.1249(9) 0.4259(7) 1.0084(5)
O25 O 0.0787(9) 0.5597(6) 0.9740(5)
O26 O -0.2342(11) 0.7656(7) 0.6394(6)
C1 C 0.3884(10) 0.8301(6) 0.9237(4)
C2 C 0.4750(15) 1.0540(8) 1.0567(6)
C3 C 0.4185(13) 0.9218(8) 1.0276(5)
C4 C 0.5160(17) 1.1141(7) 0.9883(7)
C5 C 0.3900(15) 0.8695(9) 1.0966(6)
C6 C 0.5053(18) 1.1300(9) 1.1532(7)
C7 C 0.4756(19) 1.0822(11) 1.2214(6)
C8 C 0.4154(17) 0.9503(11) 1.1921(6)
H1 H 0.3519(10) 0.7753(6) 1.0765(4)
H2 H 0.5508(10) 1.2241(6) 1.1744(4)
H3 H 0.4964(10) 1.1403(6) 1.2916(4)
H4 H 0.3905(10) 0.9145(6) 1.2418(4)
C9 C 0.3122(11) 0.2138(7) 0.7007(5)
C10 C 0.3459(16) 0.3025(10) 0.5705(7)
C11 C 0.2882(15) 0.2002(9) 0.5972(6)
C12 C 0.4292(17) 0.4329(11) 0.6419(8)
C13 C 0.2017(17) 0.0793(10) 0.5263(7)
C14 C 0.3128(19) 0.2824(11) 0.4749(8)
C15 C 0.232(2) 0.1659(12) 0.4045(7)
C16 C 0.1781(19) 0.0632(12) 0.4310(7)
H5 H 0.1581(11) 0.0063(7) 0.5449(5)
H6 H 0.3490(11) 0.3560(7) 0.4560(5)
H7 H 0.2120(11) 0.1535(7) 0.3348(5)
H8 H 0.1212(11) -0.0234(7) 0.3795(5)
C17 C 0.8389(11) 1.2771(6) 0.7362(5)
C18 C 0.6572(14) 1.0514(8) 0.6305(7)
C19 C 0.7651(13) 1.1681(8) 0.6399(6)
C20 C 0.6018(16) 1.0272(8) 0.7139(8)
C21 C 0.8064(15) 1.1880(9) 0.5574(7)
C22 C 0.5905(17) 0.9590(9) 0.5397(8)
C23 C 0.6310(18) 0.9747(11) 0.4587(7)
C24 C 0.7419(17) 1.0904(11) 0.4683(7)
H9 H 0.8813(11) 1.2716(6) 0.5635(5)
H10 H 0.5092(11) 0.8771(6) 0.5327(5)
H11 H 0.5823(11) 0.9048(6) 0.3931(5)
H12 H 0.7745(11) 1.1020(6) 0.4090(5)
C25 C 0.3790(9) 0.4466(8) 1.0530(5)
C26 C 0.1359(13) 0.5430(11) 1.1236(8)
C27 C 0.3000(13) 0.5179(10) 1.1363(7)
C28 C 0.0298(13) 0.5057(12) 1.0273(9)
C29 C 0.3994(15) 0.5613(11) 1.2296(7)
C30 C 0.0772(15) 0.6126(13) 1.2034(8)
C31 C 0.1691(18) 0.6539(13) 1.2947(8)
C32 C 0.3313(17) 0.6263(12) 1.3074(8)
H13 H 0.5176(9) 0.5452(8) 1.2391(5)
H14 H -0.0373(9) 0.6340(8) 1.1942(5)
H15 H 0.1217(9) 0.7031(8) 1.3519(5)
H16 H 0.3984(9) 0.6546(8) 1.3745(5)
C33 C 0.9003(11) 0.8639(7) 0.9024(5)
C34 C 0.7748(15) 0.7398(10) 0.9998(7)
C35 C 0.8751(14) 0.8513(10) 0.9960(7)
C36 C 0.6804(17) 0.6273(10) 0.9123(8)
C37 C 0.9549(15) 0.9579(11) 1.0818(7)
C38 C 0.7536(18) 0.7384(11) 1.0882(8)
C39 C 0.8321(19) 0.8393(13) 1.1725(8)
C40 C 0.9353(18) 0.9496(13) 1.1687(7)
H17 H 1.0246(11) 1.0382(7) 1.0796(5)
H18 H 0.6778(11) 0.6604(7) 1.0910(5)
H19 H 0.8164(11) 0.8350(7) 1.2363(5)
H20 H 0.9958(11) 1.0237(7) 1.2304(5)
C41 C -0.1115(9) 0.7575(7) 0.6005(6)
C42 C 0.0363(13) 0.5836(9) 0.5159(8)
C43 C -0.1112(13) 0.6330(8) 0.5224(7)
C44 C 0.2055(14) 0.6518(11) 0.5829(9)
C45 C -0.2664(14) 0.5668(9) 0.4536(8)
C46 C 0.0267(15) 0.4718(11) 0.4403(9)
C47 C -0.1228(17) 0.4044(11) 0.3737(9)
C48 C -0.2713(16) 0.4525(10) 0.3815(8)
H21 H -0.3712(9) 0.6023(7) 0.4571(6)
H22 H 0.1334(9) 0.4383(7) 0.4338(6)
H23 H -0.1269(9) 0.3218(7) 0.3198(6)
H24 H -0.3827(9) 0.4025(7) 0.3336(6)
Ce1_2 Ce -0.456259 0.721576 0.727396
Ce2_2 Ce 0.21560(10) -0.05503(7) 0.77469(6)
Ce2_3 Ce 0.21560(10) 0.94497(7) 0.77469(6)
Ce3_2 Ce 1.23896(10) 1.48569(7) 0.84670(6)
Ce4_2 Ce -0.40482(12) 0.31603(8) 0.90811(5)
Ce4_3 Ce 0.59518(12) 1.31603(8) 0.90811(5)
O1_2 O 0.6553(9) 0.1135(6) 0.7970(5)
O2_2 O 1.2023(8) 0.7108(6) 0.6800(4)
O6_2 O 1.4930(9) 0.9190(6) 0.6998(5)
O7_2 O 1.4166(10) 0.8708(6) 0.8609(5)
O10_2 O 0.7499(9) 0.3426(6) 0.7814(5)
O12_2 O 0.3858(8) 0.1183(6) 0.9294(5)
O12_3 O 1.3858(8) 1.1183(6) 0.9294(5)
O13_2 O 0.0005(9) 0.2903(6) 0.7656(5)
O14_2 O 0.6682(9) 0.1891(6) 1.0057(5)
O22_2 O 1.2930(9) 1.1037(6) 0.7101(5)
O23_2 O 1.0250(9) 0.8520(6) 0.6151(5)
O24_2 O 0.8751(9) 0.4259(7) 1.0084(5)
O26_2 O 0.7658(11) 0.7656(7) 0.6394(6)
loop_
_geom_bond_atom_site_label_1
_geom_bond_atom_site_label_2
_geom_bond_site_symmetry_1
_geom_bond_site_symmetry_2
Ce1 O2 1_555 1_555
Ce2 O19 1_555 1_555
Ce3 O3 1_555 1_555
Ce4 O3 1_555 1_555
O1 C20 1_555 1_555
O2 C44 1_555 1_555
O3 C36 1_555 1_555
O4 Ce3 1_555 1_555
O5 Ce1 1_555 1_555
O6 Ce1 1_555 1_555
O7 Ce1 1_555 1_555
O8 Ce1 1_555 1_555
O9 Ce1 1_555 1_555
O10 C17 1_555 1_555
O11 Ce3 1_555 1_555
O12 C4 1_555 1_555
O13 C17 1_555 1_555
O14 C4 1_555 1_555
O15 Ce1 1_555 1_555
O16 Ce1 1_555 1_555
O17 Ce4 1_555 1_555
O18 Ce3 1_555 1_555
O19 C33 1_555 1_555
O20 Ce2 1_555 1_555
O21 Ce3 1_555 1_555
O22 C9 1_555 1_555
O23 C41 1_555 1_555
O24 C28 1_555 1_555
O25 Ce3 1_555 1_555
O26 C41 1_555 1_555
C1 O7 1_555 1_555
C2 C3 1_555 1_555
C3 C1 1_555 1_555
C4 C2 1_555 1_555
C5 C3 1_555 1_555
C6 C2 1_555 1_555
C7 C6 1_555 1_555
C8 C5 1_555 1_555
H1 C5 1_555 1_555
H2 C6 1_555 1_555
H3 C7 1_555 1_555
H4 C8 1_555 1_555
C9 O4 1_555 1_555
C10 C11 1_555 1_555
C11 C9 1_555 1_555
C12 O5 1_555 1_555
C13 C11 1_555 1_555
C14 C10 1_555 1_555
C15 C14 1_555 1_555
C16 C13 1_555 1_555
H5 C13 1_555 1_555
H6 C14 1_555 1_555
H7 C15 1_555 1_555
H8 C16 1_555 1_555
C17 C19 1_555 1_555
C18 C19 1_555 1_555
C19 C21 1_555 1_555
C20 O6 1_555 1_555
C21 C24 1_555 1_555
C22 C18 1_555 1_555
C23 C22 1_555 1_555
C24 C23 1_555 1_555
H9 C21 1_555 1_555
H10 C22 1_555 1_555
H11 C23 1_555 1_555
H12 C24 1_555 1_555
C25 O11 1_555 1_555
C26 C27 1_555 1_555
C27 C25 1_555 1_555
C28 O25 1_555 1_555
C29 C27 1_555 1_555
C30 C26 1_555 1_555
C31 C30 1_555 1_555
C32 C29 1_555 1_555
H13 C29 1_555 1_555
H14 C30 1_555 1_555
H15 C31 1_555 1_555
H16 C32 1_555 1_555
C33 O8 1_555 1_555
C34 C35 1_555 1_555
C35 C33 1_555 1_555
C36 O9 1_555 1_555
C37 C35 1_555 1_555
C38 C34 1_555 1_555
C39 C38 1_555 1_555
C40 C37 1_555 1_555
H17 C37 1_555 1_555
H18 C38 1_555 1_555
H19 C39 1_555 1_555
H20 C40 1_555 1_555
C41 C43 1_555 1_555
C42 C43 1_555 1_555
C43 C45 1_555 1_555
C44 O15 1_555 1_555
C45 C48 1_555 1_555
C46 C42 1_555 1_555
C47 C46 1_555 1_555
C48 C47 1_555 1_555
H21 C45 1_555 1_555
H22 C46 1_555 1_555
H23 C47 1_555 1_555
H24 C48 1_555 1_555
Ce1_2 O26 1_555 1_555
Ce2_2 O22 1_555 1_555
Ce2_3 O2 1_555 1_555
Ce3_2 O13 1_555 1_555
Ce4_2 O24 1_555 1_555
Ce4_3 O1 1_555 1_555
O1_2 Ce4 1_555 1_555
O2_2 Ce2 1_555 1_555
O6_2 Ce2 1_555 1_555
O7_2 Ce2 1_555 1_555
O10_2 Ce4 1_555 1_555
O12_2 Ce4 1_555 1_555
O12_3 Ce2 1_555 1_555
O13_2 Ce3 1_555 1_555
O14_2 Ce4 1_555 1_555
O22_2 Ce2 1_555 1_555
O23_2 Ce2 1_555 1_555
O24_2 Ce4 1_555 1_555
O26_2 Ce1 1_555 1_555
Ce3 O5 1_555 1_555
Ce4 O4 1_555 1_555
Ce4 O11 1_555 1_555
O6 Ce2_3 1_555 1_555
O7 Ce2_3 1_555 1_555
O10 Ce4_3 1_555 1_555
O12 Ce2_3 1_555 1_555
O12 Ce4_3 1_555 1_555
O14 Ce4_3 1_555 1_555
O16 C12 1_555 1_555
O17 C25 1_555 1_555
O21 C1 1_555 1_555
O23 Ce2_3 1_555 1_555
C7 C8 1_555 1_555
C10 C12 1_555 1_555
C15 C16 1_555 1_555
C18 C20 1_555 1_555
C26 C28 1_555 1_555
C31 C32 1_555 1_555
C34 C36 1_555 1_555
C39 C40 1_555 1_555
C42 C44 1_555 1_555
Ce2_2 O12_2 1_555 1_555

#END
