
#######################################################################
#
#                 Cambridge Crystallographic Data Centre
#                                CCDC 
#
#######################################################################
#
# If this CIF has been generated from an entry in the Cambridge 
# Structural Database, then it will include bibliographic, chemical, 
# crystal, experimental, refinement or atomic coordinate data resulting 
# from the CCDC's data processing and validation procedures.
#
#######################################################################

data_IJEKAK
_symmetry_cell_setting           triclinic
_symmetry_space_group_name_H-M   'P 1'
_symmetry_Int_Tables_number      1
_space_group_name_Hall           'P 1'
loop_
_symmetry_equiv_pos_site_id
_symmetry_equiv_pos_as_xyz
1 x,y,z
_cell_length_a                   7.889(3)
_cell_length_b                   11.570(4)
_cell_length_c                   15.105(5)
_cell_angle_alpha                111.54(2)
_cell_angle_beta                 95.57(3)
_cell_angle_gamma                101.54(2)
_cell_volume                     1234.32
loop_
_atom_site_label
_atom_site_type_symbol
_atom_site_fract_x
_atom_site_fract_y
_atom_site_fract_z
Nd1 Nd -0.45901 -0.2783 0.72715
Nd2 Nd 0.2185(2) -0.05382(10) 0.77785(10)
Nd3 Nd -0.7588(2) -0.51550(10) 0.84696(10)
Nd4 Nd -0.4027(2) -0.68304(10) 0.90791(8)
O1 O -0.338(2) 0.1166(10) 0.8022(10)
O2 O -0.793(2) -0.2847(10) 0.6829(10)
O3 O -0.421(2) -0.4666(10) 0.9176(10)
O4 O -0.073(2) -0.7461(10) 0.9118(10)
O5 O -0.620(2) -0.6854(10) 0.7722(10)
O6 O -0.661(2) -0.4978(10) 0.7048(10)
O7 O -0.513(2) -0.0817(10) 0.7011(10)
O8 O -0.588(2) -0.1367(10) 0.8597(9)
O9 O -0.223(2) -0.1106(10) 0.8566(9)
O10 O -0.312(2) -0.3680(10) 0.8318(10)
O11 O -0.239(2) 0.3463(10) 0.7873(10)
O12 O -0.703(2) -0.6072(10) 0.9661(10)
O13 O -0.611(2) 0.1203(10) 0.9279(10)
O14 O 0.005(2) 0.289(2) 0.7713(10)
O15 O -0.332(2) 0.1956(10) 1.0040(10)
O16 O -0.650(2) -0.3641(10) 0.5639(10)
O17 O -0.432(2) -0.5043(10) 0.6296(10)
O18 O -0.474(2) -0.5727(10) 1.0761(10)
O19 O -0.984(2) -0.4495(10) 0.7628(10)
O20 O 0.049(2) -0.1421(10) 0.8675(9)
O21 O 0.019(2) 0.0871(10) 0.8330(10)
O22 O -0.630(2) -0.2935(10) 0.9104(10)
O23 O -0.713(2) -0.893(2) 0.7121(10)
O24 O -0.984(2) -0.1425(10) 0.6235(10)
O25 O -1.128(2) -0.570(2) 1.0078(10)
O26 O -0.922(2) -0.4461(10) 0.9697(10)
O27 O -0.142(2) -0.3294(10) 0.7291(10)
O28 O -1.249(2) -0.240(2) 0.6372(10)
C1 C -0.614(2) -0.1748(11) 0.9229(8)
C2 C -0.516(3) 0.0536(15) 1.0557(12)
C3 C -0.582(3) -0.0828(15) 1.0265(11)
C4 C -0.479(3) 0.1132(14) 0.9861(14)
C5 C -0.613(3) -0.1299(18) 1.0972(12)
C6 C -0.491(4) 0.1333(18) 1.1521(14)
C7 C -0.529(4) 0.088(2) 1.2231(13)
C8 C -0.584(4) -0.047(2) 1.1951(13)
H1 H -0.656(2) -0.2247(11) 1.0780(8)
H2 H -0.444(2) 0.2279(11) 1.1719(8)
H3 H -0.517(2) 0.1484(11) 1.2919(8)
H4 H -0.603(2) -0.0834(11) 1.2453(8)
C9 C -0.681(2) -0.7914(14) 0.6998(8)
C10 C -0.666(3) -0.694(2) 0.5719(13)
C11 C -0.714(3) -0.8033(19) 0.5972(11)
C12 C -0.578(3) -0.564(2) 0.6441(15)
C13 C -0.796(3) -0.922(2) 0.5241(12)
C14 C -0.698(4) -0.712(2) 0.4759(14)
C15 C -0.773(4) -0.832(3) 0.4016(14)
C16 C -0.829(4) -0.938(3) 0.4270(14)
H5 H -0.832(2) -0.9984(14) 0.5410(8)
H6 H -0.665(2) -0.6356(14) 0.4590(8)
H7 H -0.787(2) -0.8426(14) 0.3322(8)
H8 H -0.892(2) -1.0239(14) 0.3756(8)
C17 C -0.158(2) 0.2776(13) 0.7397(9)
C18 C -0.349(3) 0.0513(17) 0.6312(13)
C19 C -0.233(3) 0.1711(17) 0.6424(12)
C20 C -0.398(3) 0.0230(17) 0.7142(15)
C21 C -0.194(3) 0.189(2) 0.5600(12)
C22 C -0.411(4) -0.044(2) 0.5397(15)
C23 C -0.367(4) -0.029(2) 0.4569(14)
C24 C -0.261(4) 0.092(2) 0.4674(14)
H9 H -0.116(2) 0.2723(13) 0.5668(9)
H10 H -0.492(2) -0.1262(13) 0.5325(9)
H11 H -0.408(2) -0.1019(13) 0.3918(9)
H12 H -0.234(2) 0.1072(13) 0.4088(9)
C25 C -0.6151(19) -0.5527(16) 1.0509(9)
C26 C -0.863(3) -0.457(2) 1.1220(14)
C27 C -0.693(3) -0.484(2) 1.1349(12)
C28 C -0.973(3) -0.498(2) 1.0259(16)
C29 C -0.599(3) -0.441(2) 1.2282(13)
C30 C -0.928(3) -0.394(3) 1.2025(16)
C31 C -0.839(4) -0.356(3) 1.2964(15)
C32 C -0.667(4) -0.376(3) 1.3090(15)
H13 H -0.4803(19) -0.4572(16) 1.2380(9)
H14 H -1.0453(19) -0.3752(16) 1.1928(9)
H15 H -0.8931(19) -0.3160(16) 1.3534(9)
H16 H -0.5957(19) -0.3432(16) 1.3756(9)
C33 C -0.098(2) -0.1354(15) 0.8977(9)
C34 C -0.227(3) -0.257(2) 0.9979(13)
C35 C -0.124(3) -0.1430(19) 0.9924(12)
C36 C -0.319(3) -0.373(2) 0.9114(15)
C37 C -0.043(3) -0.038(2) 1.0779(13)
C38 C -0.248(4) -0.257(2) 1.0874(15)
C39 C -0.174(4) -0.151(3) 1.1734(14)
C40 C -0.063(4) -0.041(3) 1.1683(14)
H17 H 0.032(2) 0.0405(15) 1.0750(9)
H18 H -0.319(2) -0.3367(15) 1.0906(9)
H19 H -0.197(2) -0.1518(15) 1.2370(9)
H20 H 0.000(2) 0.0340(15) 1.2291(9)
C41 C -1.1163(19) -0.2392(12) 0.6052(10)
C42 C -0.959(3) -0.4095(19) 0.5161(15)
C43 C -1.114(3) -0.3613(17) 0.5243(13)
C44 C -0.793(3) -0.345(2) 0.5877(16)
C45 C -1.264(3) -0.4291(19) 0.4536(15)
C46 C -0.966(3) -0.524(2) 0.4406(17)
C47 C -1.117(4) -0.595(2) 0.3717(17)
C48 C -1.267(4) -0.544(2) 0.3765(17)
H21 H -1.3711(19) -0.3954(12) 0.4576(10)
H22 H -0.8574(19) -0.5559(12) 0.4351(10)
H23 H -1.1210(19) -0.6805(12) 0.3201(10)
H24 H -1.3751(19) -0.5898(12) 0.3250(10)
Nd1_2 Nd -1.45901 -0.2783 0.72715
Nd2_2 Nd -0.7815(2) -1.05382(10) 0.77785(10)
Nd2_3 Nd -0.7815(2) -0.05382(10) 0.77785(10)
Nd3_2 Nd 0.2412(2) 0.48450(10) 0.84696(10)
Nd4_2 Nd -1.4027(2) -0.68304(10) 0.90791(8)
Nd4_3 Nd -0.4027(2) 0.31696(10) 0.90791(8)
O1_2 O -0.338(2) -0.8834(10) 0.8022(10)
O2_2 O 0.207(2) -0.2847(10) 0.6829(10)
O7_2 O 0.487(2) -0.0817(10) 0.7011(10)
O8_2 O 0.412(2) -0.1367(10) 0.8597(9)
O11_2 O -0.239(2) -0.6537(10) 0.7873(10)
O13_2 O -0.611(2) -0.8797(10) 0.9279(10)
O13_3 O 0.389(2) 0.1203(10) 0.9279(10)
O14_2 O -0.995(2) -0.711(2) 0.7713(10)
O15_2 O -0.332(2) -0.8044(10) 1.0040(10)
O23_2 O 0.287(2) 0.107(2) 0.7121(10)
O24_2 O 0.016(2) -0.1425(10) 0.6235(10)
O25_2 O -0.128(2) -0.570(2) 1.0078(10)
O28_2 O -0.249(2) -0.240(2) 0.6372(10)
loop_
_geom_bond_atom_site_label_1
_geom_bond_atom_site_label_2
_geom_bond_site_symmetry_1
_geom_bond_site_symmetry_2
Nd1 O2 1_555 1_555
Nd2 O20 1_555 1_555
Nd3 O3 1_555 1_555
Nd4 O3 1_555 1_555
O1 C20 1_555 1_555
O2 C44 1_555 1_555
O3 C36 1_555 1_555
O4 Nd4 1_555 1_555
O5 Nd3 1_555 1_555
O6 Nd1 1_555 1_555
O7 Nd1 1_555 1_555
O8 Nd1 1_555 1_555
O9 Nd1 1_555 1_555
O10 Nd1 1_555 1_555
O11 C17 1_555 1_555
O12 Nd3 1_555 1_555
O13 C4 1_555 1_555
O14 C17 1_555 1_555
O15 C4 1_555 1_555
O16 Nd1 1_555 1_555
O17 Nd1 1_555 1_555
O18 Nd4 1_555 1_555
O19 Nd3 1_555 1_555
O20 C33 1_555 1_555
O21 Nd2 1_555 1_555
O22 Nd3 1_555 1_555
O23 C9 1_555 1_555
O24 C41 1_555 1_555
O25 C28 1_555 1_555
O26 Nd3 1_555 1_555
O27 Nd1 1_555 1_555
O28 C41 1_555 1_555
C1 O8 1_555 1_555
C2 C3 1_555 1_555
C3 C1 1_555 1_555
C4 C2 1_555 1_555
C5 C3 1_555 1_555
C6 C2 1_555 1_555
C7 C6 1_555 1_555
C8 C5 1_555 1_555
H1 C5 1_555 1_555
H2 C6 1_555 1_555
H3 C7 1_555 1_555
H4 C8 1_555 1_555
C9 O5 1_555 1_555
C10 C11 1_555 1_555
C11 C9 1_555 1_555
C12 O6 1_555 1_555
C13 C11 1_555 1_555
C14 C10 1_555 1_555
C15 C14 1_555 1_555
C16 C13 1_555 1_555
H5 C13 1_555 1_555
H6 C14 1_555 1_555
H7 C15 1_555 1_555
H8 C16 1_555 1_555
C17 C19 1_555 1_555
C18 C19 1_555 1_555
C19 C21 1_555 1_555
C20 O7 1_555 1_555
C21 C24 1_555 1_555
C22 C18 1_555 1_555
C23 C22 1_555 1_555
C24 C23 1_555 1_555
H9 C21 1_555 1_555
H10 C22 1_555 1_555
H11 C23 1_555 1_555
H12 C24 1_555 1_555
C25 O12 1_555 1_555
C26 C27 1_555 1_555
C27 C25 1_555 1_555
C28 O26 1_555 1_555
C29 C27 1_555 1_555
C30 C26 1_555 1_555
C31 C30 1_555 1_555
C32 C29 1_555 1_555
H13 C29 1_555 1_555
H14 C30 1_555 1_555
H15 C31 1_555 1_555
H16 C32 1_555 1_555
C33 O9 1_555 1_555
C34 C35 1_555 1_555
C35 C33 1_555 1_555
C36 O10 1_555 1_555
C37 C35 1_555 1_555
C38 C34 1_555 1_555
C39 C38 1_555 1_555
C40 C37 1_555 1_555
H17 C37 1_555 1_555
H18 C38 1_555 1_555
H19 C39 1_555 1_555
H20 C40 1_555 1_555
C41 C43 1_555 1_555
C42 C43 1_555 1_555
C43 C45 1_555 1_555
C44 O16 1_555 1_555
C45 C48 1_555 1_555
C46 C42 1_555 1_555
C47 C46 1_555 1_555
C48 C47 1_555 1_555
H21 C45 1_555 1_555
H22 C46 1_555 1_555
H23 C47 1_555 1_555
H24 C48 1_555 1_555
Nd1_2 O28 1_555 1_555
Nd2_2 O23 1_555 1_555
Nd2_3 O2 1_555 1_555
Nd3_2 O14 1_555 1_555
Nd4_2 O25 1_555 1_555
Nd4_3 O1 1_555 1_555
O1_2 Nd4 1_555 1_555
O2_2 Nd2 1_555 1_555
O7_2 Nd2 1_555 1_555
O8_2 Nd2 1_555 1_555
O11_2 Nd4 1_555 1_555
O13_2 Nd4 1_555 1_555
O13_3 Nd2 1_555 1_555
O14_2 Nd3 1_555 1_555
O15_2 Nd4 1_555 1_555
O23_2 Nd2 1_555 1_555
O24_2 Nd2 1_555 1_555
O25_2 Nd4 1_555 1_555
O28_2 Nd1 1_555 1_555
Nd3 O6 1_555 1_555
Nd4 O5 1_555 1_555
Nd4 O12 1_555 1_555
O7 Nd2_3 1_555 1_555
O8 Nd2_3 1_555 1_555
O11 Nd4_3 1_555 1_555
O13 Nd2_3 1_555 1_555
O13 Nd4_3 1_555 1_555
O15 Nd4_3 1_555 1_555
O17 C12 1_555 1_555
O18 C25 1_555 1_555
O22 C1 1_555 1_555
O24 Nd2_3 1_555 1_555
C7 C8 1_555 1_555
C10 C12 1_555 1_555
C15 C16 1_555 1_555
C18 C20 1_555 1_555
C26 C28 1_555 1_555
C31 C32 1_555 1_555
C34 C36 1_555 1_555
C39 C40 1_555 1_555
C42 C44 1_555 1_555
Nd2_2 O13_2 1_555 1_555

#END
