
#######################################################################
#
#                 Cambridge Crystallographic Data Centre
#                                CCDC 
#
#######################################################################
#
# If this CIF has been generated from an entry in the Cambridge 
# Structural Database, then it will include bibliographic, chemical, 
# crystal, experimental, refinement or atomic coordinate data resulting 
# from the CCDC's data processing and validation procedures.
#
#######################################################################

data_IJEKIS
_symmetry_cell_setting           monoclinic
_symmetry_space_group_name_H-M   'C 2/c'
_symmetry_Int_Tables_number      15
_space_group_name_Hall           '-C 2yn'
loop_
_symmetry_equiv_pos_site_id
_symmetry_equiv_pos_as_xyz
1 x,y,z
2 -x,y,1/2-z
3 1/2+x,1/2+y,z
4 1/2-x,1/2+y,1/2-z
5 -x,-y,-z
6 x,-y,1/2+z
7 1/2-x,1/2-y,-z
8 1/2+x,1/2-y,1/2+z
_cell_length_a                   10.0397(3)
_cell_length_b                   14.7961(5)
_cell_length_c                   14.3794(5)
_cell_angle_alpha                90
_cell_angle_beta                 94.381(3)
_cell_angle_gamma                90
_cell_volume                     2129.8
loop_
_atom_site_label
_atom_site_type_symbol
_atom_site_fract_x
_atom_site_fract_y
_atom_site_fract_z
Hg1 Hg 0.5000 0.294240(7) 0.2500
Cl1 Cl 0.36693(5) 0.38505(4) 0.13405(4)
Cl2 Cl 0.65492(5) 0.18734(3) 0.17634(3)
Cu1 Cu 0.7500 0.2500 0.0000
N1 N 0.92009(17) 0.18744(11) 0.04395(12)
N2 N 1.03557(16) 0.23407(12) 0.06405(12)
N3 N 0.95794(17) 0.38413(11) 0.06526(12)
N4 N 0.82481(16) 0.36606(11) 0.05546(12)
C1 C 0.9347(2) 0.11082(14) 0.09207(15)
H1 H 0.8708 0.0653 0.0919
C2 C 1.0582(2) 0.10789(15) 0.14260(15)
H2 H 1.0921 0.0616 0.1813
C3 C 1.1194(2) 0.18757(15) 0.12330(14)
H3 H 1.2038 0.2061 0.1470
C4 C 0.9827(2) 0.45881(14) 0.11671(15)
H4 H 1.0663 0.4839 0.1327
C5 C 0.8624(2) 0.49142(16) 0.14143(16)
H5 H 0.8475 0.5427 0.1766
C6 C 0.7670(2) 0.43092(14) 0.10223(15)
H6 H 0.6756 0.4354 0.1080
C7 C 1.0504(2) 0.32277(14) 0.02525(15)
H7 H 1.0322 0.3206 -0.0419
H8 H 1.1412 0.3439 0.0388
Cl1A Cl 0.63307(5) 0.38505(4) 0.36595(4)
Cl2A Cl 0.34508(5) 0.18734(3) 0.32366(3)
Cl2F Cl 0.84508(5) 0.31266(3) -0.17634(3)
Cu1A Cu 0.2500 0.2500 0.5000
N1F N 0.57991(17) 0.31256(11) -0.04395(12)
N2F N 0.46443(16) 0.26593(12) -0.06405(12)
N3F N 0.54206(17) 0.11587(11) -0.06526(12)
N4F N 0.67519(16) 0.13394(11) -0.05546(12)
C1F C 0.5653(2) 0.38918(14) -0.09207(15)
H1F H 0.6292 0.4347 -0.0919
C2F C 0.4418(2) 0.39211(15) -0.14260(15)
H2F H 0.4079 0.4384 -0.1813
C3F C 0.3806(2) 0.31243(15) -0.12330(14)
H3F H 0.2962 0.2939 -0.1470
C4F C 0.5173(2) 0.04119(14) -0.11671(15)
H4F H 0.4337 0.0161 -0.1327
C5F C 0.6376(2) 0.00858(16) -0.14143(16)
H5F H 0.6525 -0.0427 -0.1766
C6F C 0.7330(2) 0.06908(14) -0.10223(15)
H6F H 0.8244 0.0646 -0.1080
C7F C 0.4496(2) 0.17723(14) -0.02525(15)
H7F H 0.4678 0.1794 0.0419
H8F H 0.3588 0.1561 -0.0388
loop_
_geom_bond_atom_site_label_1
_geom_bond_atom_site_label_2
_geom_bond_site_symmetry_1
_geom_bond_site_symmetry_2
Hg1 Cl1 1_555 1_555
Cl2 Hg1 1_555 1_555
Cu1 Cl2 1_555 1_555
N1 Cu1 1_555 1_555
N2 N1 1_555 1_555
N3 N4 1_555 1_555
N4 Cu1 1_555 1_555
C1 N1 1_555 1_555
H1 C1 1_555 1_555
C2 C1 1_555 1_555
H2 C2 1_555 1_555
C3 N2 1_555 1_555
H3 C3 1_555 1_555
C4 N3 1_555 1_555
H4 C4 1_555 1_555
C5 C4 1_555 1_555
H5 C5 1_555 1_555
C6 N4 1_555 1_555
H6 C6 1_555 1_555
C7 N2 1_555 1_555
H7 C7 1_555 1_555
H8 C7 1_555 1_555
Cl1A Hg1 1_555 1_555
Cl2A Hg1 1_555 1_555
Cl2F Cu1 1_555 1_555
Cu1A Cl2A 1_555 1_555
N1F Cu1 1_555 1_555
N2F N1F 1_555 1_555
N3F N4F 1_555 1_555
N4F Cu1 1_555 1_555
C1F N1F 1_555 1_555
H1F C1F 1_555 1_555
C2F C1F 1_555 1_555
H2F C2F 1_555 1_555
C3F N2F 1_555 1_555
H3F C3F 1_555 1_555
C4F N3F 1_555 1_555
H4F C4F 1_555 1_555
C5F C4F 1_555 1_555
H5F C5F 1_555 1_555
C6F N4F 1_555 1_555
H6F C6F 1_555 1_555
C7F N2F 1_555 1_555
H7F C7F 1_555 1_555
H8F C7F 1_555 1_555
N3 C7 1_555 1_555
C2 C3 1_555 1_555
C5 C6 1_555 1_555
N3F C7F 1_555 1_555
C2F C3F 1_555 1_555
C5F C6F 1_555 1_555

#END
