
#######################################################################
#
#                 Cambridge Crystallographic Data Centre
#                                CCDC 
#
#######################################################################
#
# If this CIF has been generated from an entry in the Cambridge 
# Structural Database, then it will include bibliographic, chemical, 
# crystal, experimental, refinement or atomic coordinate data resulting 
# from the CCDC's data processing and validation procedures.
#
#######################################################################

data_IJENER
_symmetry_cell_setting           tetragonal
_symmetry_space_group_name_H-M   'P 42/n'
_symmetry_Int_Tables_number      86
_space_group_name_Hall           '-P 4bc'
loop_
_symmetry_equiv_pos_site_id
_symmetry_equiv_pos_as_xyz
1 x,y,z
2 1/2-x,1/2-y,z
3 -y,1/2+x,1/2+z
4 1/2+y,-x,1/2+z
5 -x,-y,-z
6 1/2+x,1/2+y,-z
7 y,1/2-x,1/2-z
8 1/2-y,x,1/2-z
_cell_length_a                   12.9677(6)
_cell_length_b                   12.9677(6)
_cell_length_c                   13.5450(13)
_cell_angle_alpha                90
_cell_angle_beta                 90
_cell_angle_gamma                90
_cell_volume                     2277.74
loop_
_atom_site_label
_atom_site_type_symbol
_atom_site_fract_x
_atom_site_fract_y
_atom_site_fract_z
C1 C 0.8770(5) 0.3776(5) 0.1361(2)
C2 C 0.9426(6) 0.4409(5) 0.0657(2)
C3 C 1.0034(10) 0.5177(11) 0.1023(7)
C4 C 0.9417(9) 0.4188(9) -0.0371(10)
S1 S 1.0114(3) 0.5296(3) 0.2336(3)
S2 S 0.8542(3) 0.3193(3) -0.0735(2)
C5 C 0.9063(11) 0.6197(15) 0.2491(11)
H1 H 0.9242 0.6855 0.2178
H2 H 0.8937 0.6308 0.3197
H3 H 0.8439 0.5917 0.2182
C6 C 0.9388(12) 0.2078(7) -0.0566(11)
H4 H 0.9711 0.2112 0.0088
H5 H 0.8982 0.1443 -0.0619
H6 H 0.9924 0.2081 -0.1076
Ag1 Ag 1.16809(5) 0.66837(5) 0.252596(16)
O3 O 0.9141(4) 0.2947(4) 0.1631(4)
O4 O 0.7904(4) 0.4147(4) 0.1586(4)
C1D C 1.1230(5) 0.6224(5) -0.1361(2)
C2D C 1.0574(6) 0.5591(5) -0.0657(2)
C3D C 0.9966(10) 0.4823(11) -0.1023(7)
C4D C 1.0583(9) 0.5812(9) 0.0371(10)
S1D S 0.9886(3) 0.4704(3) -0.2336(3)
S2D S 1.1458(3) 0.6807(3) 0.0735(2)
C5D C 1.0937(11) 0.3803(15) -0.2491(11)
H1D H 1.0758 0.3145 -0.2178
H2D H 1.1063 0.3692 -0.3197
H3D H 1.1561 0.4083 -0.2182
C6D C 1.0612(12) 0.7922(7) 0.0566(11)
H4D H 1.0289 0.7888 -0.0088
H5D H 1.1018 0.8557 0.0619
H6D H 1.0076 0.7919 0.1076
Ag1D Ag 0.83191(5) 0.33163(5) -0.252596(16)
Ag1G Ag 0.83163(5) 0.16809(5) 0.247404(16)
Ag1F Ag 0.66837(5) 0.33191(5) 0.247404(16)
Ag1C Ag 1.16837(5) 0.83191(5) -0.247404(16)
Ag1B Ag 1.33163(5) 0.66809(5) -0.247404(16)
O3D O 1.0859(4) 0.7053(4) -0.1631(4)
O3F O 1.2947(4) 0.5859(4) 0.3369(4)
O3B O 0.7053(4) 0.4141(4) -0.3369(4)
O4D O 1.2096(4) 0.5853(4) -0.1586(4)
O4G O 1.0853(4) 0.7904(4) 0.3414(4)
O4C O 0.9147(4) 0.2096(4) -0.3414(4)
O1 O 1.297(2) 0.453(2) -0.009(3)
O2 O 1.1140(14) 0.2704(14) 0.225(2)
O5 O 0.7500 0.7500 -0.015(3)
O6 O 1.0000 1.0000 0.0000
C7? C 1.0239(13) 0.5064(13) 0.1013(9)
C8? C 1.0841(11) 0.5619(14) 0.0332(13)
C9? C 1.1217(15) 0.3988(16) 0.2467(13)
C10? C 1.2986(12) 0.5644(11) 0.0618(14)
H7? H 1.1801 0.4014 0.2008
H8? H 1.0801 0.3374 0.2329
H9? H 1.1475 0.3957 0.3146
H10? H 1.3563 0.5998 0.0939
H11? H 1.3164 0.5500 -0.0072
H12? H 1.2846 0.4994 0.0962
O7? O 0.9565(18) 0.795(2) 0.021(3)
S3? S 1.0445(4) 0.5112(4) 0.2316(4)
S4? S 1.1876(4) 0.6439(5) 0.0661(3)
loop_
_geom_bond_atom_site_label_1
_geom_bond_atom_site_label_2
_geom_bond_site_symmetry_1
_geom_bond_site_symmetry_2
C1 C2 1_555 1_555
C2 C3 1_555 1_555
C3 S1 1_555 1_555
C4 C2 1_555 1_555
S1 C5 1_555 1_555
S2 C4 1_555 1_555
C5 H1 1_555 1_555
H2 C5 1_555 1_555
H3 C5 1_555 1_555
C6 S2 1_555 1_555
H4 C6 1_555 1_555
H5 C6 1_555 1_555
H6 C6 1_555 1_555
Ag1 S1 1_555 1_555
O3 C1 1_555 1_555
O4 C1 1_555 1_555
C1D C2D 1_555 1_555
C2D C3D 1_555 1_555
C3D C4 1_555 1_555
C4D C3 1_555 1_555
S1D C3D 1_555 1_555
S2D Ag1 1_555 1_555
C5D S1D 1_555 1_555
H1D C5D 1_555 1_555
H2D C5D 1_555 1_555
H3D C5D 1_555 1_555
C6D S2D 1_555 1_555
H4D C6D 1_555 1_555
H5D C6D 1_555 1_555
H6D C6D 1_555 1_555
Ag1D S2 1_555 1_555
Ag1G O3 1_555 1_555
Ag1F O4 1_555 1_555
Ag1C O3D 1_555 1_555
Ag1B O4D 1_555 1_555
O3D C1D 1_555 1_555
O3F Ag1 1_555 1_555
O3B Ag1D 1_555 1_555
O4D C1D 1_555 1_555
O4G Ag1 1_555 1_555
O4C Ag1D 1_555 1_555
C2D C4D 1_555 1_555
C4D S2D 1_555 1_555
S1D Ag1D 1_555 1_555

#END
