
#######################################################################
#
#                 Cambridge Crystallographic Data Centre
#                                CCDC 
#
#######################################################################
#
# If this CIF has been generated from an entry in the Cambridge 
# Structural Database, then it will include bibliographic, chemical, 
# crystal, experimental, refinement or atomic coordinate data resulting 
# from the CCDC's data processing and validation procedures.
#
#######################################################################

data_IJEWUP
_symmetry_cell_setting           monoclinic
_symmetry_space_group_name_H-M   'P 21/n'
_symmetry_Int_Tables_number      14
_space_group_name_Hall           '-P 2yn'
loop_
_symmetry_equiv_pos_site_id
_symmetry_equiv_pos_as_xyz
1 x,y,z
2 1/2+x,1/2-y,1/2+z
3 -x,-y,-z
4 1/2-x,1/2+y,1/2-z
_cell_length_a                   13.972(2)
_cell_length_b                   9.963(1)
_cell_length_c                   16.719(2)
_cell_angle_alpha                90
_cell_angle_beta                 110.159(2)
_cell_angle_gamma                90
_cell_volume                     2184.76
loop_
_atom_site_label
_atom_site_type_symbol
_atom_site_fract_x
_atom_site_fract_y
_atom_site_fract_z
Na1 Na 0.49512(3) 0.75751(5) 0.08126(3)
Na2 Na -0.00302(3) 0.24951(5) 0.08032(3)
Na3 Na -0.01471(4) 0.54384(6) 0.20195(4)
O1 O 0.07658(6) 0.46564(9) 0.11725(5)
O2 O 0.11120(6) 0.64385(8) 0.05088(5)
O3 O 0.38448(6) 0.64409(8) -0.05378(6)
O4 O 0.42669(6) 0.45808(9) -0.10818(5)
O5 O 0.41467(7) 0.66372(9) 0.28104(5)
O6 O 0.37309(6) 0.67059(9) 0.14015(5)
O7 O 0.08557(7) 1.13928(8) 0.00132(5)
O8 O 0.11791(6) 0.93749(8) -0.04162(5)
O9 O 0.57871(7) 0.85626(9) 0.22111(5)
O10 O 0.62680(6) 0.85295(9) 0.36238(5)
O11 O 0.91175(7) 0.36910(9) 0.49158(6)
O12 O 0.87078(6) 0.56421(9) 0.53652(5)
O14 O 0.08393(12) 0.65139(15) 0.32464(8)
O15 O -0.09327(10) 0.74891(11) 0.15083(7)
N1 N 0.25524(7) 0.51700(10) 0.00734(6)
N2 N 0.23455(8) 0.86094(10) 0.11528(6)
N3 N 0.75381(8) 0.64493(10) 0.38190(6)
C1 C 0.19615(9) 0.43762(13) 0.04912(8)
H1 H 0.2428 0.3946 0.0995
H2 H 0.1588 0.3677 0.0105
C2 C 0.12164(9) 0.52394(12) 0.07438(7)
C3 C 0.31932(9) 0.43367(12) -0.02817(8)
H3 H 0.2759 0.3742 -0.0715
H4 H 0.3649 0.3787 0.0168
C4 C 0.38174(9) 0.52042(12) -0.06708(7)
C5 C 0.28642(10) 0.81572(13) 0.20446(7)
H5 H 0.2361 0.7810 0.2271
H6 H 0.3198 0.8917 0.2391
C6 C 0.36493(9) 0.70739(12) 0.20960(7)
C7 C 0.17179(10) 0.98329(13) 0.10677(7)
H7 H 0.2145 1.0563 0.1377
H8 H 0.1197 0.9673 0.1318
C8 C 0.12138(8) 1.02334(12) 0.01385(7)
C9 C 0.69762(10) 0.69060(13) 0.29375(7)
H9 H 0.6568 0.6170 0.2615
H10 H 0.7461 0.7158 0.2666
C10 C 0.62861(9) 0.80930(12) 0.29169(7)
C11 C 0.81493(10) 0.52117(13) 0.38748(8)
H11 H 0.8644 0.5362 0.3596
H12 H 0.7704 0.4487 0.3580
C12 C 0.87031(9) 0.48094(12) 0.48003(7)
H13 H 0.2928(9) 0.5751(14) 0.0471(8)
H14 H 0.2073(9) 0.5731(14) -0.0403(8)
H15 H 0.1945(9) 0.7961(14) 0.0876(8)
H16 H 0.2894(10) 0.8764(13) 0.0889(8)
H17 H 0.7953(9) 0.7129(14) 0.4107(8)
H18 H 0.7068(10) 0.6293(13) 0.4101(8)
H20 H 0.0902(14) 0.7619(19) 0.3525(11)
H21 H 0.0910(13) 0.6309(19) 0.3853(12)
H22 H -0.0942(12) 0.8021(18) 0.1009(10)
H23 H -0.0766(12) 0.8495(17) 0.1883(10)
O4B O 0.57331(6) 0.54192(9) 0.10818(5)
O11C O 0.58825(7) 0.86910(9) 0.00842(6)
O12A O 0.37078(6) 0.93579(9) 0.03652(5)
O2B O -0.11120(6) 0.35615(8) -0.05088(5)
O5C O 0.08533(7) 0.16372(9) 0.21896(5)
O7_2 O 0.08557(7) 0.13928(8) 0.00132(5)
O8B O -0.11791(6) 0.06251(8) 0.04162(5)
O10C O -0.12680(6) 0.35295(9) 0.13762(5)
O9C O -0.07871(7) 0.35626(9) 0.27889(5)
Na2B Na 0.00302(3) 0.75049(5) -0.08032(3)
Na1B Na 0.50488(3) 0.24249(5) -0.08126(3)
Na2C Na 0.50302(3) 0.74951(5) 0.41968(3)
Na2_2 Na -0.00302(3) 1.24951(5) 0.08032(3)
Na3C Na 0.51471(4) 1.04384(6) 0.29805(4)
Na1C Na 1.00488(3) 0.25751(5) 0.41874(3)
Na1A Na 0.99512(3) 0.74249(5) 0.58126(3)
O13 O 0.48966(9) 0.42371(13) 0.21252(8)
H19 H 0.4980(14) 0.482(2) 0.1944(11)
loop_
_geom_bond_atom_site_label_1
_geom_bond_atom_site_label_2
_geom_bond_site_symmetry_1
_geom_bond_site_symmetry_2
Na1 O3 1_555 1_555
Na2 O1 1_555 1_555
Na3 O1 1_555 1_555
O1 C2 1_555 1_555
O2 C2 1_555 1_555
O3 C4 1_555 1_555
O4 C4 1_555 1_555
O5 C6 1_555 1_555
O6 Na1 1_555 1_555
O7 C8 1_555 1_555
O8 C8 1_555 1_555
O9 Na1 1_555 1_555
O10 C10 1_555 1_555
O11 C12 1_555 1_555
O12 C12 1_555 1_555
O13 H19 1_555 1_555
O14 Na3 1_555 1_555
O15 Na3 1_555 1_555
N1 C1 1_555 1_555
N2 C5 1_555 1_555
N3 C9 1_555 1_555
C1 H1 1_555 1_555
H2 C1 1_555 1_555
C2 C1 1_555 1_555
C3 N1 1_555 1_555
H3 C3 1_555 1_555
H4 C3 1_555 1_555
C4 C3 1_555 1_555
C5 H5 1_555 1_555
H6 C5 1_555 1_555
C6 O6 1_555 1_555
C7 N2 1_555 1_555
H7 C7 1_555 1_555
H8 C7 1_555 1_555
C8 C7 1_555 1_555
C9 H9 1_555 1_555
H10 C9 1_555 1_555
C10 O9 1_555 1_555
C11 N3 1_555 1_555
H11 C11 1_555 1_555
H12 C11 1_555 1_555
C12 C11 1_555 1_555
H13 N1 1_555 1_555
H14 N1 1_555 1_555
H15 N2 1_555 1_555
H16 N2 1_555 1_555
H17 N3 1_555 1_555
H18 N3 1_555 1_555
H20 O14 1_555 1_555
H21 O14 1_555 1_555
H22 O15 1_555 1_555
H23 O15 1_555 1_555
O4B Na1 1_555 1_555
O11C Na1 1_555 1_555
O12A Na1 1_555 1_555
O2B Na2 1_555 1_555
O5C Na2 1_555 1_555
O7_2 Na2 1_555 1_555
O8B Na2 1_555 1_555
O10C Na2 1_555 1_555
O9C Na3 1_555 1_555
Na2B O2 1_555 1_555
Na1B O4 1_555 1_555
Na2C O5 1_555 1_555
Na2_2 O7 1_555 1_555
Na3C O9 1_555 1_555
Na1C O11 1_555 1_555
Na1A O12 1_555 1_555
Na3 O10C 1_555 1_555
O8 Na2B 1_555 1_555
O10 Na2C 1_555 1_555
O10 Na3C 1_555 1_555
C5 C6 1_555 1_555
C9 C10 1_555 1_555

#END
