
#######################################################################
#
#                 Cambridge Crystallographic Data Centre
#                                CCDC 
#
#######################################################################
#
# If this CIF has been generated from an entry in the Cambridge 
# Structural Database, then it will include bibliographic, chemical, 
# crystal, experimental, refinement or atomic coordinate data resulting 
# from the CCDC's data processing and validation procedures.
#
#######################################################################

data_IJEXEB
_symmetry_cell_setting           orthorhombic
_symmetry_space_group_name_H-M   'P b c n'
_symmetry_Int_Tables_number      60
_space_group_name_Hall           '-P 2n 2ab'
loop_
_symmetry_equiv_pos_site_id
_symmetry_equiv_pos_as_xyz
1 x,y,z
2 1/2-x,1/2-y,1/2+z
3 1/2+x,1/2-y,-z
4 -x,y,1/2-z
5 -x,-y,-z
6 1/2+x,1/2+y,1/2-z
7 1/2-x,1/2+y,z
8 x,-y,1/2+z
_cell_length_a                   14.8390(6)
_cell_length_b                   15.7170(6)
_cell_length_c                   22.0810(9)
_cell_angle_alpha                90
_cell_angle_beta                 90
_cell_angle_gamma                90
_cell_volume                     5149.83
loop_
_atom_site_label
_atom_site_type_symbol
_atom_site_fract_x
_atom_site_fract_y
_atom_site_fract_z
Zn1 Zn 0.59226(3) 0.13091(2) 0.850651(14)
Zn2 Zn 0.59929(2) 0.21639(2) 0.722878(14)
O1 O 0.62078(16) 0.02870(13) 0.80169(9)
C1 C 0.6061(2) 0.02350(18) 0.74495(13)
O2 O 0.59746(15) -0.28828(13) 0.76511(10)
C2 C 0.7428(2) -0.30214(19) 0.81412(13)
O3 O 0.59023(16) 0.08533(13) 0.71130(9)
O4 O 0.78401(16) -0.32287(15) 0.86186(9)
C3 C 0.6009(2) -0.21541(18) 0.73142(13)
N1 N 0.65061(19) 0.22366(15) 0.62946(11)
O5 O 0.54928(16) -0.08828(14) 0.42749(9)
O6 O 0.77505(15) -0.29275(15) 0.76272(9)
O7 O 0.53389(13) 0.22344(12) 0.80687(8)
O8 O 0.5537(2) -0.17407(14) 0.57474(9)
O9 O 0.5653(2) -0.22059(15) 0.46207(10)
C4 C 0.6038(2) -0.06393(18) 0.71790(12)
O10 O 0.7413(2) 0.45194(16) 0.47229(11)
C5 C 0.5537(2) -0.1441(2) 0.46947(13)
N2 N 0.7220(2) 0.48816(18) 0.52844(13)
C6 C 0.6944(2) 0.3360(2) 0.55976(14)
C7 C 0.7006(2) 0.4299(2) 0.56679(14)
C8 C 0.6634(2) 0.1684(2) 0.58391(15)
H1 H 0.6534 0.1108 0.5911
C9 C 0.6659(3) 0.5232(2) 0.66415(16)
H2 H 0.6801 0.5764 0.6484
C10 C 0.6741(2) 0.4499(2) 0.62999(14)
N3 N 0.6231(2) 0.36191(17) 0.71403(11)
C11 C 0.6527(2) 0.37317(19) 0.65766(13)
C12 C 0.6151(3) 0.4339(2) 0.74606(16)
H3 H 0.5947 0.4302 0.7858
C13 C 0.6427(2) -0.2903(2) 0.82175(13)
H4 H 0.6188 -0.3366 0.8460
H5 H 0.6315 -0.2376 0.8432
C14 C 0.5463(3) -0.1072(2) 0.53243(13)
H6 H 0.5939 -0.0659 0.5390
H7 H 0.4888 -0.0786 0.5372
C15 C 0.5744(2) -0.1547(2) 0.63360(13)
C16 C 0.6130(2) -0.13405(18) 0.75512(13)
H8 H 0.6273 -0.1270 0.7958
C17 C 0.6910(3) 0.1936(2) 0.52660(16)
H9 H 0.6986 0.1528 0.4965
C18 C 0.5828(2) -0.2252(2) 0.67054(14)
H10 H 0.5763 -0.2795 0.6543
C19 C 0.6655(2) 0.30424(19) 0.61519(13)
C20 C 0.5831(2) -0.0735(2) 0.65650(12)
H11 H 0.5754 -0.0263 0.6317
C21 C 0.6354(3) 0.5134(2) 0.72330(16)
H12 H 0.6286 0.5611 0.7478
C22 C 0.7075(3) 0.2786(2) 0.51338(15)
H13 H 0.7264 0.2959 0.4752
H14 H 0.5493 0.2684 0.8249
H15 H 0.7536 0.4925 0.4475
Zn1F Zn 0.90774(3) -0.36909(2) 0.850651(14)
Zn1G Zn 0.59226(3) -0.13091(2) 0.350651(14)
Zn2F Zn 0.90071(2) -0.28361(2) 0.722878(14)
Zn2C Zn 0.40071(2) 0.21639(2) 0.777122(14)
O4F O 0.71599(16) 0.17713(15) 0.86186(9)
O5G O 0.54928(16) 0.08828(14) 0.92749(9)
O6F O 0.72495(15) 0.20725(15) 0.76272(9)
O7C O 0.46611(13) 0.22344(12) 0.69313(8)
H14C H 0.4507 0.2684 0.6751
O11 O 0.2234(2) 0.42794(17) 0.60843(11)
O12 O 0.5951(2) 0.64099(18) 0.38626(12)
O13 O 0.5755(3) 0.6352(2) 0.54364(17)
O14 O 0.5579(3) 0.4712(3) 0.4120(2)
loop_
_geom_bond_atom_site_label_1
_geom_bond_atom_site_label_2
_geom_bond_site_symmetry_1
_geom_bond_site_symmetry_2
Zn1 O1 1_555 1_555
Zn2 O3 1_555 1_555
O1 C1 1_555 1_555
C1 O3 1_555 1_555
O2 C3 1_555 1_555
C2 O4 1_555 1_555
O4 Zn1F 1_555 1_555
C3 C16 1_555 1_555
N1 Zn2 1_555 1_555
O5 C5 1_555 1_555
O6 C2 1_555 1_555
O7 Zn1 1_555 1_555
O8 C14 1_555 1_555
O9 C5 1_555 1_555
C4 C1 1_555 1_555
O10 N2 1_555 1_555
C5 C14 1_555 1_555
N2 C7 1_555 1_555
C6 C7 1_555 1_555
C7 C10 1_555 1_555
C8 N1 1_555 1_555
H1 C8 1_555 1_555
C9 H2 1_555 1_555
C10 C9 1_555 1_555
N3 Zn2 1_555 1_555
C11 C10 1_555 1_555
C12 N3 1_555 1_555
H3 C12 1_555 1_555
C13 O2 1_555 1_555
H4 C13 1_555 1_555
H5 C13 1_555 1_555
C14 H6 1_555 1_555
H7 C14 1_555 1_555
C15 O8 1_555 1_555
C16 C4 1_555 1_555
H8 C16 1_555 1_555
C17 C8 1_555 1_555
H9 C17 1_555 1_555
C18 C3 1_555 1_555
H10 C18 1_555 1_555
C19 N1 1_555 1_555
C20 C4 1_555 1_555
H11 C20 1_555 1_555
C21 C9 1_555 1_555
H12 C21 1_555 1_555
C22 C6 1_555 1_555
H13 C22 1_555 1_555
H14 O7 1_555 1_555
H15 O10 1_555 1_555
Zn1G O5 1_555 1_555
Zn2F O6 1_555 1_555
Zn2C O7 1_555 1_555
O4F Zn1 1_555 1_555
O5G Zn1 1_555 1_555
O6F Zn2 1_555 1_555
O7C Zn2 1_555 1_555
H14C O7C 1_555 1_555
Zn2 O7 1_555 1_555
C2 C13 1_555 1_555
C6 C19 1_555 1_555
N3 C11 1_555 1_555
C11 C19 1_555 1_555
C12 C21 1_555 1_555
C15 C18 1_555 1_555
C15 C20 1_555 1_555
C17 C22 1_555 1_555
Zn2C O7C 1_555 1_555

#END
