
#######################################################################
#
#                 Cambridge Crystallographic Data Centre
#                                CCDC 
#
#######################################################################
#
# If this CIF has been generated from an entry in the Cambridge 
# Structural Database, then it will include bibliographic, chemical, 
# crystal, experimental, refinement or atomic coordinate data resulting 
# from the CCDC's data processing and validation procedures.
#
#######################################################################

data_IJEXIF01
_symmetry_cell_setting           orthorhombic
_symmetry_space_group_name_H-M   'P b c a'
_symmetry_Int_Tables_number      61
_space_group_name_Hall           '-P 2ac 2ab'
loop_
_symmetry_equiv_pos_site_id
_symmetry_equiv_pos_as_xyz
1 x,y,z
2 1/2-x,-y,1/2+z
3 1/2+x,1/2-y,-z
4 -x,1/2+y,1/2-z
5 -x,-y,-z
6 1/2+x,y,1/2-z
7 1/2-x,1/2+y,z
8 x,1/2-y,1/2+z
_cell_length_a                   16.295(5)
_cell_length_b                   16.295(5)
_cell_length_c                   28.946(5)
_cell_angle_alpha                90
_cell_angle_beta                 90
_cell_angle_gamma                90
_cell_volume                     7685.95
loop_
_atom_site_label
_atom_site_type_symbol
_atom_site_fract_x
_atom_site_fract_y
_atom_site_fract_z
C1 C 0.76518(19) 0.3324(2) 0.57153(11)
C2 C 0.72626(19) 0.2998(2) 0.53324(11)
H1 H 0.7475 0.2534 0.5188
C3 C 0.65577(19) 0.3364(2) 0.51636(11)
C4 C 0.62623(19) 0.4065(2) 0.53724(11)
H2 H 0.5783 0.4305 0.5262
C5 C 0.6665(2) 0.4418(2) 0.57412(11)
C6 C 0.7354(2) 0.4038(2) 0.59158(11)
H3 H 0.7621 0.4262 0.6170
C7 C 0.8392(2) 0.2900(2) 0.59169(12)
C8 C 0.6116(2) 0.3057(2) 0.47464(11)
C9 C 0.6355(2) 0.5218(2) 0.59296(13)
C10 C 0.9004(2) 0.0957(2) 0.76805(11)
C11 C 0.92903(19) 0.0206(2) 0.78223(11)
H4 H 0.9737 -0.0029 0.7672
C12 C 0.89223(19) -0.0204(2) 0.81857(11)
C13 C 0.82612(19) 0.0157(2) 0.84119(11)
H5 H 0.8012 -0.0113 0.8658
C14 C 0.79740(19) 0.0912(2) 0.82739(11)
C15 C 0.83441(19) 0.1305(2) 0.79074(11)
H6 H 0.8146 0.1813 0.7811
C16 C 0.9409(2) 0.1396(2) 0.72901(12)
C17 C 0.9225(2) -0.1027(2) 0.83342(11)
C18 C 0.7268(2) 0.1304(2) 0.85213(12)
O1 O 0.87184(14) 0.23552(16) 0.56768(8)
O2 O 0.86264(14) 0.31397(16) 0.63058(8)
O3 O 0.64976(14) 0.25944(15) 0.44788(8)
O4 O 0.53918(13) 0.32934(16) 0.46956(8)
O5 O 0.57056(17) 0.54736(18) 0.57447(10)
O6 O 0.67374(17) 0.55794(17) 0.62306(10)
O7 O 0.91524(14) 0.21258(14) 0.72211(8)
O8 O 0.99505(16) 0.10514(16) 0.70684(9)
O9 O 0.98565(14) -0.12995(15) 0.81338(8)
O10 O 0.88317(14) -0.13893(14) 0.86430(8)
O11 O 0.71941(14) 0.20737(15) 0.84644(8)
O12 O 0.68018(16) 0.09061(16) 0.87645(9)
O13 O 1.02002(12) 0.19730(13) 0.63449(7)
H43 H 1.0246 0.1607 0.6588
Zn1 Zn 0.95951(2) 0.15787(2) 0.580582(13)
Zn2 Zn 0.95001(2) 0.27515(2) 0.669671(12)
Zn3 Zn 0.62713(2) 0.25505(2) 0.381910(13)
O4B O 1.03918(13) 0.17066(16) 0.53044(8)
O5F O 0.92944(17) 0.04736(18) 0.57447(10)
O9C O 1.01435(14) 0.37005(15) 0.68662(8)
O10A O 0.61683(14) 0.13893(14) 0.36430(8)
O11G O 0.71941(14) 0.29263(15) 0.34644(8)
O13B O 0.52002(12) 0.30270(13) 0.36551(7)
H43B H 0.5246 0.3393 0.3412
Zn1B Zn 0.45951(2) 0.34213(2) 0.419418(13)
Zn1F Zn 0.54049(2) 0.65787(2) 0.580582(13)
Zn2C Zn 1.04999(2) -0.22485(2) 0.830329(12)
Zn3A Zn 0.87287(2) -0.25505(2) 0.881910(13)
Zn3G Zn 0.62713(2) 0.24495(2) 0.881910(13)
Zn3B Zn 1.12713(2) 0.24495(2) 0.618090(13)
C19 C 0.8723(2) 0.3453(3) 0.82377(14)
H7 H 0.8856 0.3017 0.8022
H8 H 0.8161 0.3366 0.8337
C20 C 0.8758(3) 0.4257(3) 0.79796(15)
H9 H 0.8596 0.4701 0.8183
H10 H 0.9316 0.4360 0.7878
C21 C 0.81928(19) 0.4232(2) 0.75671(12)
H11 H 0.7634 0.4147 0.7672
H12 H 0.8342 0.3772 0.7371
C22 C 0.82376(19) 0.5032(2) 0.72833(12)
H13 H 0.8231 0.5494 0.7489
H14 H 0.7775 0.5062 0.7079
H15 H 0.8735 0.5038 0.7106
C23 C 1.0164(2) 0.3513(3) 0.85266(15)
H16 H 1.0504 0.3435 0.8798
H17 H 1.0220 0.4082 0.8432
C24 C 1.0494(3) 0.2962(4) 0.81374(18)
H18 H 1.0380 0.2393 0.8212
H19 H 1.0209 0.3092 0.7853
C25 C 1.1379(2) 0.3062(3) 0.80653(17)
H20 H 1.1662 0.2968 0.8356
H21 H 1.1489 0.3622 0.7970
C26 C 1.1714(2) 0.2487(3) 0.77085(17)
H22 H 1.1587 0.1932 0.7793
H23 H 1.2299 0.2552 0.7689
H24 H 1.1472 0.2609 0.7414
C27 C 0.9169(3) 0.2499(3) 0.88305(16)
H25 H 0.9338 0.2125 0.8588
H26 H 0.8589 0.2408 0.8886
C28 C 0.9637(3) 0.2281(3) 0.92683(17)
H27 H 1.0222 0.2279 0.9208
H28 H 0.9525 0.2683 0.9507
C29 C 0.9361(3) 0.1441(3) 0.94246(19)
H29 H 0.9478 0.1044 0.9184
H30 H 0.8772 0.1446 0.9475
C30 C 0.9790(3) 0.1180(3) 0.98675(19)
H31 H 1.0347 0.1371 0.9864
H32 H 0.9785 0.0592 0.9891
H33 H 0.9508 0.1411 1.0128
C31 C 0.9052(2) 0.3982(3) 0.90251(14)
H34 H 0.9461 0.3962 0.9268
H35 H 0.9072 0.4526 0.8889
C32 C 0.8221(2) 0.3864(3) 0.92395(14)
H36 H 0.8185 0.3318 0.9372
H37 H 0.7800 0.3913 0.9004
C33 C 0.8077(2) 0.4499(2) 0.96125(11)
H38 H 0.8159 0.5041 0.9482
H39 H 0.8481 0.4423 0.9855
C34 C 0.7220(2) 0.4457(2) 0.98250(11)
H40 H 0.6815 0.4491 0.9585
H41 H 0.7148 0.4906 1.0036
H42 H 0.7158 0.3948 0.9988
N1 N 0.92799(19) 0.3363(2) 0.86590(11)
O14 O 0.1549(8) 0.1219(9) 0.8850(4)
loop_
_geom_bond_atom_site_label_1
_geom_bond_atom_site_label_2
_geom_bond_site_symmetry_1
_geom_bond_site_symmetry_2
C1 C2 1_555 1_555
C2 H1 1_555 1_555
C3 C2 1_555 1_555
C4 C3 1_555 1_555
H2 C4 1_555 1_555
C5 C4 1_555 1_555
C6 C1 1_555 1_555
H3 C6 1_555 1_555
C7 C1 1_555 1_555
C8 C3 1_555 1_555
C9 C5 1_555 1_555
C10 C11 1_555 1_555
C11 H4 1_555 1_555
C12 C11 1_555 1_555
C13 C12 1_555 1_555
H5 C13 1_555 1_555
C14 C13 1_555 1_555
C15 C10 1_555 1_555
H6 C15 1_555 1_555
C16 C10 1_555 1_555
C17 C12 1_555 1_555
C18 C14 1_555 1_555
C19 H7 1_555 1_555
H8 C19 1_555 1_555
C20 C19 1_555 1_555
H9 C20 1_555 1_555
H10 C20 1_555 1_555
C21 C20 1_555 1_555
H11 C21 1_555 1_555
H12 C21 1_555 1_555
C22 C21 1_555 1_555
H13 C22 1_555 1_555
H14 C22 1_555 1_555
H15 C22 1_555 1_555
C23 H16 1_555 1_555
H17 C23 1_555 1_555
C24 C23 1_555 1_555
H18 C24 1_555 1_555
H19 C24 1_555 1_555
C25 C24 1_555 1_555
H20 C25 1_555 1_555
H21 C25 1_555 1_555
C26 C25 1_555 1_555
H22 C26 1_555 1_555
H23 C26 1_555 1_555
H24 C26 1_555 1_555
C27 H25 1_555 1_555
H26 C27 1_555 1_555
C28 C27 1_555 1_555
H27 C28 1_555 1_555
H28 C28 1_555 1_555
C29 C28 1_555 1_555
H29 C29 1_555 1_555
H30 C29 1_555 1_555
C30 C29 1_555 1_555
H31 C30 1_555 1_555
H32 C30 1_555 1_555
H33 C30 1_555 1_555
C31 H34 1_555 1_555
H35 C31 1_555 1_555
C32 C31 1_555 1_555
H36 C32 1_555 1_555
H37 C32 1_555 1_555
C33 C32 1_555 1_555
H38 C33 1_555 1_555
H39 C33 1_555 1_555
C34 C33 1_555 1_555
H40 C34 1_555 1_555
H41 C34 1_555 1_555
H42 C34 1_555 1_555
N1 C19 1_555 1_555
O1 C7 1_555 1_555
O2 C7 1_555 1_555
O3 C8 1_555 1_555
O4 C8 1_555 1_555
O5 C9 1_555 1_555
O6 C9 1_555 1_555
O7 C16 1_555 1_555
O8 C16 1_555 1_555
O9 C17 1_555 1_555
O10 C17 1_555 1_555
O11 C18 1_555 1_555
O12 C18 1_555 1_555
O13 H43 1_555 1_555
Zn1 O1 1_555 1_555
Zn2 O2 1_555 1_555
Zn3 O3 1_555 1_555
O4B Zn1 1_555 1_555
O5F Zn1 1_555 1_555
O9C Zn2 1_555 1_555
O10A Zn3 1_555 1_555
O11G Zn3 1_555 1_555
O13B Zn3 1_555 1_555
H43B O13B 1_555 1_555
Zn1B O4 1_555 1_555
Zn1F O5 1_555 1_555
Zn2C O9 1_555 1_555
Zn3A O10 1_555 1_555
Zn3G O11 1_555 1_555
Zn3B O13 1_555 1_555
C5 C6 1_555 1_555
C14 C15 1_555 1_555
C23 N1 1_555 1_555
C27 N1 1_555 1_555
C31 N1 1_555 1_555
O7 Zn2 1_555 1_555
O13 Zn1 1_555 1_555
O13 Zn2 1_555 1_555
O13B Zn1B 1_555 1_555

#END
