
#######################################################################
#
#                 Cambridge Crystallographic Data Centre
#                                CCDC 
#
#######################################################################
#
# If this CIF has been generated from an entry in the Cambridge 
# Structural Database, then it will include bibliographic, chemical, 
# crystal, experimental, refinement or atomic coordinate data resulting 
# from the CCDC's data processing and validation procedures.
#
#######################################################################

data_IJEXIF
_symmetry_cell_setting           orthorhombic
_symmetry_space_group_name_H-M   'P b c a'
_symmetry_Int_Tables_number      61
_space_group_name_Hall           '-P 2ac 2ab'
loop_
_symmetry_equiv_pos_site_id
_symmetry_equiv_pos_as_xyz
1 x,y,z
2 1/2-x,-y,1/2+z
3 1/2+x,1/2-y,-z
4 -x,1/2+y,1/2-z
5 -x,-y,-z
6 1/2+x,y,1/2-z
7 1/2-x,1/2+y,z
8 x,1/2-y,1/2+z
_cell_length_a                   16.3790(5)
_cell_length_b                   16.3610(5)
_cell_length_c                   28.9990(9)
_cell_angle_alpha                90
_cell_angle_beta                 90
_cell_angle_gamma                90
_cell_volume                     7771.06
loop_
_atom_site_label
_atom_site_type_symbol
_atom_site_fract_x
_atom_site_fract_y
_atom_site_fract_z
O1 O 0.8348(7) 0.1357(8) 0.8853(4)
H44 H 0.8633 0.0971 0.8786
H45 H 0.8141 0.1564 0.8615
N1 N 0.57116(15) 0.33902(17) 0.63586(10)
C18 C 0.62644(19) 0.3483(2) 0.67783(11)
H7 H 0.6130 0.3051 0.6995
H8 H 0.6823 0.3395 0.6680
C19 C 0.4834(2) 0.3556(2) 0.64908(14)
H9 H 0.4495 0.3481 0.6220
H10 H 0.4788 0.4123 0.6584
C20 C 0.6227(2) 0.4286(2) 0.70311(13)
H11 H 0.5673 0.4386 0.7134
H12 H 0.6382 0.4725 0.6824
C21 C 0.6930(2) 0.4497(2) 0.53964(13)
H13 H 0.6861 0.5038 0.5528
H14 H 0.6524 0.4433 0.5156
C22 C 0.5569(4) 0.1425(3) 0.56148(19)
H15 H 0.6155 0.1404 0.5565
H16 H 0.5440 0.1052 0.5864
C23 C 0.5944(2) 0.3999(2) 0.59839(12)
H17 H 0.5535 0.3977 0.5743
H18 H 0.5930 0.4545 0.6115
C24 C 0.3269(3) 0.2551(3) 0.7286(2)
H19 H 0.2694 0.2647 0.7317
H20 H 0.3530 0.2623 0.7580
H21 H 0.3359 0.2003 0.7179
C25 C 0.6773(2) 0.3869(2) 0.57668(12)
H22 H 0.7192 0.3908 0.6002
H23 H 0.6798 0.3325 0.5634
C26 C 0.4499(2) 0.3018(3) 0.68789(15)
H24 H 0.4602 0.2448 0.6805
H25 H 0.4786 0.3143 0.7163
C27 C 0.5806(2) 0.2518(2) 0.61897(13)
H26 H 0.5640 0.2153 0.6436
H27 H 0.6381 0.2419 0.6131
C28 C 0.7769(2) 0.4443(3) 0.51823(15)
H28 H 0.7826 0.4861 0.4952
H29 H 0.7838 0.3916 0.5042
H30 H 0.8176 0.4519 0.5417
C29 C 0.6795(2) 0.4280(2) 0.74443(13)
H31 H 0.7352 0.4210 0.7337
H32 H 0.6662 0.3816 0.7638
C30 C 0.3616(3) 0.3136(3) 0.69511(18)
H33 H 0.3335 0.3074 0.6659
H34 H 0.3520 0.3688 0.7060
C31 C 0.6746(2) 0.5056(3) 0.77322(14)
H35 H 0.7115 0.5015 0.7988
H36 H 0.6199 0.5124 0.7844
H37 H 0.6893 0.5517 0.7545
C32 C 0.5330(3) 0.2295(2) 0.57590(14)
H38 H 0.5456 0.2676 0.5513
H39 H 0.4749 0.2321 0.5821
C33 C 0.5154(4) 0.1150(4) 0.5196(3)
H40 H 0.5323 0.0602 0.5124
H41 H 0.5293 0.1506 0.4945
H42 H 0.4574 0.1161 0.5244
O2 O 0.41471(11) 0.71506(11) 0.72163(7)
C1 C 0.44061(17) 0.64204(18) 0.72849(10)
C2 C 0.39975(16) 0.59785(17) 0.76793(10)
C3 C 0.29652(16) 0.59312(17) 0.82711(10)
C4 C 0.42830(15) 0.52215(17) 0.78220(10)
H1 H 0.4725 0.4984 0.7671
C5 C 0.32515(16) 0.51764(17) 0.84116(10)
H2 H 0.3001 0.4908 0.8656
C6 C 0.39151(16) 0.48150(17) 0.81880(10)
C7 C 0.42168(17) 0.39983(17) 0.83397(10)
O3 O 0.48483(11) 0.37227(12) 0.81348(7)
O4 O 0.38343(12) 0.36317(11) 0.86509(7)
O5 O 0.17972(13) 0.59221(13) 0.87606(8)
Zn1 Zn 0.540268(18) 0.159908(19) 0.920011(11)
Zn2 Zn 0.549475(18) 0.277501(19) 0.830717(11)
Zn3 Zn 0.372893(18) 0.24667(2) 0.882339(11)
O6 O 0.35022(11) 0.24145(12) 0.94835(7)
O7 O 0.21953(11) 0.71053(12) 0.84632(7)
O8 O 0.48011(10) 0.19942(10) 0.86589(6)
O9 O 0.42905(12) -0.04939(12) 1.07404(8)
C8 C 0.23347(16) 0.16516(17) 1.07123(10)
O10 O 0.46100(11) 0.17183(12) 0.97040(7)
C9 C 0.26333(16) 0.09348(17) 1.09137(10)
H3 H 0.2363 0.0706 1.1164
C10 C 0.34413(15) 0.16251(17) 1.01659(9)
C11 C 0.27319(16) 0.19836(17) 1.03324(9)
H4 H 0.2522 0.2447 1.0189
C12 C 0.37360(16) 0.09270(17) 1.03740(9)
H5 H 0.4217 0.0694 1.0266
C13 C 0.38813(17) 0.19515(17) 0.97512(10)
C14 C 0.33329(16) 0.05636(17) 1.07406(10)
O11 O 0.49426(13) 0.60692(13) 0.70655(8)
C15 C 0.33400(16) 0.63245(17) 0.79061(10)
H6 H 0.3146 0.6832 0.7811
O12 O 0.32675(16) -0.05999(16) 1.12317(9)
C16 C 0.22637(17) 0.63272(19) 0.85205(10)
C17 C 0.36361(18) -0.02418(19) 1.09318(11)
C34 C 0.15954(16) 0.20638(18) 1.09106(11)
O13 O 0.12666(11) 0.26130(12) 1.06701(7)
O14 O 0.13613(12) 0.18309(12) 1.13019(7)
H43 H 0.4810 0.1653 0.8447
O2C O 0.58529(11) 0.21506(11) 0.77837(7)
Zn1D Zn 0.459732(18) -0.159908(19) 1.079989(11)
Zn1B Zn 0.040268(18) 0.340092(19) 1.079989(11)
Zn2C Zn 0.450525(18) 0.777501(19) 0.669283(11)
Zn2B Zn 0.049475(18) 0.222499(19) 1.169283(11)
Zn3F Zn 0.127107(18) 0.74667(2) 0.882339(11)
O7F O 0.28047(11) 0.21053(12) 0.84632(7)
O9D O 0.57095(12) 0.04939(12) 0.92596(8)
O13B O 0.62666(11) 0.23870(12) 0.93299(7)
O14B O 0.63613(12) 0.31691(12) 0.86981(7)
loop_
_geom_bond_atom_site_label_1
_geom_bond_atom_site_label_2
_geom_bond_site_symmetry_1
_geom_bond_site_symmetry_2
O1 H44 1_555 1_555
N1 C18 1_555 1_555
O2 C1 1_555 1_555
C1 C2 1_555 1_555
C2 C4 1_555 1_555
C3 C5 1_555 1_555
C4 H1 1_555 1_555
C5 H2 1_555 1_555
C6 C4 1_555 1_555
C7 C6 1_555 1_555
O3 C7 1_555 1_555
O4 C7 1_555 1_555
O5 C16 1_555 1_555
Zn1 O8 1_555 1_555
Zn2 O3 1_555 1_555
Zn3 O4 1_555 1_555
O6 Zn3 1_555 1_555
O7 C16 1_555 1_555
O8 Zn2 1_555 1_555
O9 C17 1_555 1_555
C8 C9 1_555 1_555
O10 Zn1 1_555 1_555
C9 H3 1_555 1_555
C10 C11 1_555 1_555
C11 C8 1_555 1_555
H4 C11 1_555 1_555
C12 C10 1_555 1_555
H5 C12 1_555 1_555
C13 O6 1_555 1_555
C14 C9 1_555 1_555
O11 C1 1_555 1_555
C15 C2 1_555 1_555
H6 C15 1_555 1_555
O12 C17 1_555 1_555
C16 C3 1_555 1_555
C17 C14 1_555 1_555
C18 H7 1_555 1_555
H8 C18 1_555 1_555
C19 N1 1_555 1_555
H9 C19 1_555 1_555
H10 C19 1_555 1_555
C20 C18 1_555 1_555
H11 C20 1_555 1_555
H12 C20 1_555 1_555
C21 H13 1_555 1_555
H14 C21 1_555 1_555
C22 H15 1_555 1_555
H16 C22 1_555 1_555
C23 N1 1_555 1_555
H17 C23 1_555 1_555
H18 C23 1_555 1_555
C24 H19 1_555 1_555
H20 C24 1_555 1_555
H21 C24 1_555 1_555
C25 C21 1_555 1_555
H22 C25 1_555 1_555
H23 C25 1_555 1_555
C26 C19 1_555 1_555
H24 C26 1_555 1_555
H25 C26 1_555 1_555
C27 N1 1_555 1_555
H26 C27 1_555 1_555
H27 C27 1_555 1_555
C28 C21 1_555 1_555
H28 C28 1_555 1_555
H29 C28 1_555 1_555
H30 C28 1_555 1_555
C29 C20 1_555 1_555
H31 C29 1_555 1_555
H32 C29 1_555 1_555
C30 C24 1_555 1_555
H33 C30 1_555 1_555
H34 C30 1_555 1_555
C31 C29 1_555 1_555
H35 C31 1_555 1_555
H36 C31 1_555 1_555
H37 C31 1_555 1_555
C32 C22 1_555 1_555
H38 C32 1_555 1_555
H39 C32 1_555 1_555
C33 C22 1_555 1_555
H40 C33 1_555 1_555
H41 C33 1_555 1_555
H42 C33 1_555 1_555
C34 C8 1_555 1_555
O13 C34 1_555 1_555
O14 C34 1_555 1_555
H43 O8 1_555 1_555
H45 O1 1_555 1_555
O2C Zn2 1_555 1_555
Zn1D O9 1_555 1_555
Zn1B O13 1_555 1_555
Zn2C O2 1_555 1_555
Zn2B O14 1_555 1_555
Zn3F O7 1_555 1_555
O7F Zn3 1_555 1_555
O9D Zn1 1_555 1_555
O13B Zn1 1_555 1_555
O14B Zn2 1_555 1_555
C3 C15 1_555 1_555
C5 C6 1_555 1_555
Zn3 O8 1_555 1_555
O10 C13 1_555 1_555
C10 C13 1_555 1_555
C12 C14 1_555 1_555
C23 C25 1_555 1_555
C26 C30 1_555 1_555
C27 C32 1_555 1_555

#END
