
#######################################################################
#
#                 Cambridge Crystallographic Data Centre
#                                CCDC 
#
#######################################################################
#
# If this CIF has been generated from an entry in the Cambridge 
# Structural Database, then it will include bibliographic, chemical, 
# crystal, experimental, refinement or atomic coordinate data resulting 
# from the CCDC's data processing and validation procedures.
#
#######################################################################

data_IJEXOL
_symmetry_cell_setting           monoclinic
_symmetry_space_group_name_H-M   'C 2/c'
_symmetry_Int_Tables_number      15
_space_group_name_Hall           '-C 2yn'
loop_
_symmetry_equiv_pos_site_id
_symmetry_equiv_pos_as_xyz
1 x,y,z
2 -x,y,1/2-z
3 1/2+x,1/2+y,z
4 1/2-x,1/2+y,1/2-z
5 -x,-y,-z
6 x,-y,1/2+z
7 1/2-x,1/2-y,-z
8 1/2+x,1/2-y,1/2+z
_cell_length_a                   19.5062(4)
_cell_length_b                   12.3730(6)
_cell_length_c                   15.0076(5)
_cell_angle_alpha                90
_cell_angle_beta                 113.7170(10)
_cell_angle_gamma                90
_cell_volume                     3316.18
loop_
_atom_site_label
_atom_site_type_symbol
_atom_site_fract_x
_atom_site_fract_y
_atom_site_fract_z
Zn1 Zn 0.898292(16) 0.47377(2) -0.16286(2)
O1 O 0.90966(11) 0.64221(16) 0.20550(14)
O2 O 0.84649(11) 0.57557(16) -0.10625(12)
C1 C 0.83565(13) 0.5717(2) -0.02942(17)
O3 O 0.85669(11) 0.49791(15) 0.03272(13)
Zn2 Zn 0.937944(17) 0.38098(3) 0.06134(2)
N1 N 0.88262(13) 0.26474(19) 0.10610(16)
O4 O 0.81094(10) 0.56363(17) 0.21115(13)
O5 O 0.98065(12) 0.5549(2) -0.16589(15)
O6 O 0.92767(15) 0.35770(19) -0.06949(15)
C2 C 0.79169(13) 0.6843(2) 0.07928(16)
C3 C 0.99119(17) 0.0238(2) 0.1221(2)
C4 C 0.91026(16) 0.1652(2) 0.11536(19)
C5 C 0.98016(16) 0.1347(2) 0.1083(2)
N2 N 1.02570(15) 0.2047(2) 0.09225(18)
C6 C 0.92633(17) -0.0200(2) 0.1373(2)
C7 C 0.87851(16) 0.0730(2) 0.1364(2)
C8 C 0.81855(17) 0.2760(3) 0.1200(2)
H1 H 0.7972 0.3442 0.1144
C9 C 0.81328(17) 0.0857(3) 0.1501(2)
H2 H 0.7896 0.0270 0.1643
C10 C 0.78418(18) 0.1889(3) 0.1422(2)
H3 H 0.7406 0.1998 0.1520
C11 C 1.05656(18) -0.0196(3) 0.1228(2)
H4 H 1.0671 -0.0930 0.1325
C12 C 1.10575(19) 0.0520(3) 0.1081(2)
H5 H 1.1509 0.0270 0.1087
C13 C 1.08795(19) 0.1600(3) 0.0926(2)
H6 H 1.1219 0.2051 0.0816
N3 N 0.90871(14) -0.1169(2) 0.14973(18)
O7 O 0.95852(12) -0.19150(17) 0.14316(15)
H7 H 0.9454 -0.2523 0.1514
C14 C 0.84110(15) 0.6239(2) 0.17066(18)
C15 C 0.79193(13) 0.6639(2) -0.01255(17)
C16 C 0.75031(14) 0.7697(2) 0.08975(17)
H8 H 0.7506 0.7834 0.1509
H9 H 0.952(2) 0.318(3) -0.071(3)
Zn1F Zn 0.601708(16) 1.02623(2) 0.16286(2)
Zn1E Zn 0.898292(16) 0.52623(2) 0.33714(2)
Zn1C Zn 0.601708(16) 0.97377(2) -0.33714(2)
Zn1D Zn 1.101708(16) 0.52623(2) 0.16286(2)
O1F O 0.59034(11) 0.85779(16) -0.20550(14)
O1E O 0.90966(11) 0.35779(16) -0.29450(14)
O1C O 0.59034(11) 1.14221(16) 0.29450(14)
O2F O 0.65351(11) 0.92443(16) 0.10625(12)
C1F C 0.66435(13) 0.9283(2) 0.02942(17)
O3F O 0.64331(11) 1.00209(15) -0.03272(13)
Zn2F Zn 0.562056(17) 1.11902(3) -0.06134(2)
Zn2D Zn 1.062056(17) 0.61902(3) -0.06134(2)
N1F N 0.61738(13) 1.23526(19) -0.10610(16)
O4F O 0.68906(10) 0.93637(17) -0.21115(13)
O4E O 0.81094(10) 0.43637(17) -0.28885(13)
O4C O 0.68906(10) 1.06363(17) 0.28885(13)
O5D O 1.01935(12) 0.4451(2) 0.16589(15)
O5F O 0.51935(12) 0.9451(2) 0.16589(15)
O5B O 0.48065(12) 1.0549(2) -0.16589(15)
O6F O 0.57233(15) 1.14230(19) 0.06949(15)
C2F C 0.70831(13) 0.8157(2) -0.07928(16)
C3F C 0.50881(17) 1.4762(2) -0.1221(2)
C4F C 0.58974(16) 1.3348(2) -0.11536(19)
C5F C 0.51984(16) 1.3653(2) -0.1083(2)
N2F N 0.47430(15) 1.2953(2) -0.09225(18)
C6F C 0.57367(17) 1.5200(2) -0.1373(2)
C7F C 0.62149(16) 1.4270(2) -0.1364(2)
C8F C 0.68145(17) 1.2240(3) -0.1200(2)
H1F H 0.7028 1.1558 -0.1144
C9F C 0.68672(17) 1.4143(3) -0.1501(2)
H2F H 0.7104 1.4730 -0.1643
C10F C 0.71582(18) 1.3111(3) -0.1422(2)
H3F H 0.7594 1.3002 -0.1520
C11F C 0.44344(18) 1.5196(3) -0.1228(2)
H4F H 0.4329 1.5930 -0.1325
C12F C 0.39425(19) 1.4480(3) -0.1081(2)
H5F H 0.3491 1.4730 -0.1087
C13F C 0.41205(19) 1.3400(3) -0.0926(2)
H6F H 0.3781 1.2949 -0.0816
N3F N 0.59129(14) 1.6169(2) -0.14973(18)
O7F O 0.54148(12) 1.69150(17) -0.14316(15)
H7F H 0.5546 1.7523 -0.1514
C14F C 0.65890(15) 0.8761(2) -0.17066(18)
C15F C 0.70807(13) 0.8361(2) 0.01255(17)
C16F C 0.74969(14) 0.7303(2) -0.08975(17)
H8F H 0.7494 0.7166 -0.1509
H9F H 0.548(2) 1.182(3) 0.071(3)
loop_
_geom_bond_atom_site_label_1
_geom_bond_atom_site_label_2
_geom_bond_site_symmetry_1
_geom_bond_site_symmetry_2
Zn1 O2 1_555 1_555
O1 C14 1_555 1_555
O2 C1 1_555 1_555
C1 O3 1_555 1_555
O3 Zn2 1_555 1_555
Zn2 N1 1_555 1_555
N1 C4 1_555 1_555
O4 C14 1_555 1_555
O5 Zn1 1_555 1_555
O6 Zn1 1_555 1_555
C2 C14 1_555 1_555
C3 C5 1_555 1_555
C4 C5 1_555 1_555
C5 N2 1_555 1_555
N2 C13 1_555 1_555
C6 C3 1_555 1_555
C7 C4 1_555 1_555
C8 N1 1_555 1_555
H1 C8 1_555 1_555
C9 C7 1_555 1_555
H2 C9 1_555 1_555
C10 C8 1_555 1_555
H3 C10 1_555 1_555
C11 C3 1_555 1_555
H4 C11 1_555 1_555
C12 C11 1_555 1_555
H5 C12 1_555 1_555
C13 C12 1_555 1_555
H6 C13 1_555 1_555
N3 C6 1_555 1_555
O7 N3 1_555 1_555
H7 O7 1_555 1_555
C15 C1 1_555 1_555
C16 C2 1_555 1_555
H8 C16 1_555 1_555
H9 O6 1_555 1_555
Zn1F O1C 1_555 1_555
Zn1E O1 1_555 1_555
Zn1C O1F 1_555 1_555
Zn1D O5D 1_555 1_555
O1F C14F 1_555 1_555
O1E Zn1 1_555 1_555
O2F Zn1F 1_555 1_555
C1F O2F 1_555 1_555
O3F C1F 1_555 1_555
Zn2F O3F 1_555 1_555
Zn2D O5 1_555 1_555
N1F Zn2F 1_555 1_555
O4F Zn1C 1_555 1_555
O4E Zn1 1_555 1_555
O4C Zn1F 1_555 1_555
O5D Zn2 1_555 1_555
O5F Zn1F 1_555 1_555
O5B Zn2F 1_555 1_555
O6F Zn1F 1_555 1_555
C2F C14F 1_555 1_555
C3F C5F 1_555 1_555
C4F N1F 1_555 1_555
C5F C4F 1_555 1_555
N2F C5F 1_555 1_555
C6F C3F 1_555 1_555
C7F C4F 1_555 1_555
C8F N1F 1_555 1_555
H1F C8F 1_555 1_555
C9F C7F 1_555 1_555
H2F C9F 1_555 1_555
C10F C8F 1_555 1_555
H3F C10F 1_555 1_555
C11F C3F 1_555 1_555
H4F C11F 1_555 1_555
C12F C11F 1_555 1_555
H5F C12F 1_555 1_555
C13F N2F 1_555 1_555
H6F C13F 1_555 1_555
N3F C6F 1_555 1_555
O7F N3F 1_555 1_555
H7F O7F 1_555 1_555
C14F O4F 1_555 1_555
C15F C16 1_555 1_555
C16F C15 1_555 1_555
H8F C16F 1_555 1_555
H9F O6F 1_555 1_555
Zn2 O6 1_555 1_555
O4 Zn1E 1_555 1_555
C2 C15 1_555 1_555
C6 C7 1_555 1_555
C9 C10 1_555 1_555
C1F C15F 1_555 1_555
Zn2F O6F 1_555 1_555
C2F C15F 1_555 1_555
C2F C16F 1_555 1_555
C6F C7F 1_555 1_555
C9F C10F 1_555 1_555
C12F C13F 1_555 1_555

#END
