
#######################################################################
#
#                 Cambridge Crystallographic Data Centre
#                                CCDC 
#
#######################################################################
#
# If this CIF has been generated from an entry in the Cambridge 
# Structural Database, then it will include bibliographic, chemical, 
# crystal, experimental, refinement or atomic coordinate data resulting 
# from the CCDC's data processing and validation procedures.
#
#######################################################################

data_IJEYOM
_symmetry_cell_setting           triclinic
_symmetry_space_group_name_H-M   'P -1'
_symmetry_Int_Tables_number      2
_space_group_name_Hall           '-P 1'
loop_
_symmetry_equiv_pos_site_id
_symmetry_equiv_pos_as_xyz
1 x,y,z
2 -x,-y,-z
_cell_length_a                   8.7544(7)
_cell_length_b                   10.1037(7)
_cell_length_c                   10.4206(6)
_cell_angle_alpha                72.928(5)
_cell_angle_beta                 79.968(5)
_cell_angle_gamma                69.699(7)
_cell_volume                     823.681
loop_
_atom_site_label
_atom_site_type_symbol
_atom_site_fract_x
_atom_site_fract_y
_atom_site_fract_z
Cu1 Cu 0.78333(4) 0.21491(3) 0.11589(3)
Cu2 Cu 0.09367(4) 0.95618(4) 0.12374(3)
Cu3 Cu 0.87209(4) -0.02181(3) 0.41685(3)
C1 C 0.4651(4) 0.3562(3) 0.4410(3)
C2 C 0.4310(4) 0.3038(3) 0.5780(3)
H1 H 0.4999 0.2163 0.6251
C3 C 0.2947(4) 0.3818(3) 0.6442(3)
C4 C 0.1912(4) 0.5136(3) 0.5767(3)
H2 H 0.0982 0.5645 0.6217
C5 C 0.2294(4) 0.5685(3) 0.4403(3)
C6 C 0.3649(4) 0.4895(3) 0.3714(3)
H3 H 0.3881 0.5255 0.2798
C7 C 0.6096(4) 0.2645(3) 0.3694(3)
C8 C 0.1262(4) 0.7170(3) 0.3687(3)
C9 C 0.1920(4) 1.0888(3) 0.2939(3)
C10 C 0.3107(5) 1.1574(5) 0.3154(4)
H4 H 0.3256 1.1321 0.4097
H5 H 0.2681 1.2615 0.2835
H6 H 0.4138 1.1223 0.2667
O1 O 0.6999(3) 0.1541(2) 0.4432(2)
O2 O 0.6273(3) 0.3078(2) 0.2436(2)
O3 O 0.1847(3) 0.7738(2) 0.2553(2)
O4 O -0.0069(2) 0.7725(2) 0.4306(2)
O5 O 0.1983(3) 1.0696(2) 0.1792(2)
O6 O 0.0935(2) 1.0544(2) 0.39127(19)
O7 O 0.8387(2) 0.01905(19) 0.23198(19)
H7 H 0.7864 -0.0286 0.2155
O8 O 0.6295(3) 0.1417(2) 0.0093(2)
H8 H 0.5583 0.2132 -0.0285
O9 O 0.9697(2) 0.13456(19) -0.00500(19)
H9 H 1.0094 0.1932 -0.0648
O10 O 0.7627(3) 0.4131(2) 0.0019(2)
H10 H 0.7218 0.4896 -0.0586
H11 H 0.8567 0.4128 0.0130
O11 O 0.3111(3) 0.1529(2) 0.8407(2)
O12 O 0.3580(3) 0.3553(2) 0.8863(2)
O13 O 0.0844(3) 0.3721(2) 0.8530(2)
S1 S 0.25796(9) 0.31042(7) 0.81989(7)
Cu2_2 Cu 1.09367(4) -0.04382(4) 0.12374(3)
Cu2A Cu 0.90633(4) 0.04382(4) -0.12374(3)
Cu3_2 Cu -0.12791(4) 0.97819(3) 0.41685(3)
Cu3A Cu 0.12791(4) 1.02181(3) 0.58315(3)
O4_2 O 0.9931(2) -0.2275(2) 0.4306(2)
O6A O 0.9065(2) -0.0544(2) 0.60873(19)
O6_2 O 1.0935(2) 0.0544(2) 0.39127(19)
O7_2 O -0.1613(2) 1.01905(19) 0.23198(19)
H7_2 H -0.2136 0.9714 0.2155
O8A O 0.3705(3) 0.8583(2) -0.0093(2)
H8A H 0.4417 0.7868 0.0285
O9A O 0.0303(2) 0.86544(19) 0.00500(19)
O9_2 O -0.0303(2) 1.13456(19) -0.00500(19)
H9A H -0.0094 0.8068 0.0648
H9_2 H 0.0094 1.1932 -0.0648
loop_
_geom_bond_atom_site_label_1
_geom_bond_atom_site_label_2
_geom_bond_site_symmetry_1
_geom_bond_site_symmetry_2
Cu1 O2 1_555 1_555
Cu2 O3 1_555 1_555
Cu3 O1 1_555 1_555
C1 C2 1_555 1_555
C2 H1 1_555 1_555
C3 C2 1_555 1_555
C4 C3 1_555 1_555
H2 C4 1_555 1_555
C5 C4 1_555 1_555
C6 C1 1_555 1_555
H3 C6 1_555 1_555
C7 C1 1_555 1_555
C8 C5 1_555 1_555
C9 C10 1_555 1_555
C10 H4 1_555 1_555
H5 C10 1_555 1_555
H6 C10 1_555 1_555
O1 C7 1_555 1_555
O2 C7 1_555 1_555
O3 C8 1_555 1_555
O4 C8 1_555 1_555
O5 Cu2 1_555 1_555
O6 C9 1_555 1_555
O7 Cu1 1_555 1_555
H7 O7 1_555 1_555
O8 Cu1 1_555 1_555
H8 O8 1_555 1_555
O9 Cu1 1_555 1_555
H9 O9 1_555 1_555
O10 Cu1 1_555 1_555
H10 O10 1_555 1_555
H11 O10 1_555 1_555
O11 S1 1_555 1_555
O12 S1 1_555 1_555
O13 S1 1_555 1_555
S1 C3 1_555 1_555
Cu2_2 O7 1_555 1_555
Cu2A O8 1_555 1_555
Cu3_2 O4 1_555 1_555
Cu3A O6 1_555 1_555
O4_2 Cu3 1_555 1_555
O6A Cu3 1_555 1_555
O6_2 Cu3 1_555 1_555
O7_2 Cu2 1_555 1_555
H7_2 O7_2 1_555 1_555
O8A Cu2 1_555 1_555
H8A O8A 1_555 1_555
O9A Cu2 1_555 1_555
O9_2 Cu2 1_555 1_555
H9A O9A 1_555 1_555
H9_2 O9_2 1_555 1_555
Cu3 O7 1_555 1_555
C5 C6 1_555 1_555
C9 O5 1_555 1_555
O6 Cu3_2 1_555 1_555
O9 Cu2_2 1_555 1_555
O9 Cu2A 1_555 1_555
Cu3_2 O7_2 1_555 1_555

#END
