
#######################################################################
#
#                 Cambridge Crystallographic Data Centre
#                                CCDC 
#
#######################################################################
#
# If this CIF has been generated from an entry in the Cambridge 
# Structural Database, then it will include bibliographic, chemical, 
# crystal, experimental, refinement or atomic coordinate data resulting 
# from the CCDC's data processing and validation procedures.
#
#######################################################################

data_IJEYEC
_symmetry_cell_setting           monoclinic
_symmetry_space_group_name_H-M   'C 2/m'
_symmetry_Int_Tables_number      12
_space_group_name_Hall           '-C 2y'
loop_
_symmetry_equiv_pos_site_id
_symmetry_equiv_pos_as_xyz
1 x,y,z
2 -x,y,-z
3 1/2+x,1/2+y,z
4 1/2-x,1/2+y,-z
5 -x,-y,-z
6 x,-y,z
7 1/2-x,1/2-y,-z
8 1/2+x,1/2-y,z
_cell_length_a                   25.0558(7)
_cell_length_b                   6.88418(18)
_cell_length_c                   11.5251(3)
_cell_angle_alpha                90
_cell_angle_beta                 108.977(3)
_cell_angle_gamma                90
_cell_volume                     1879.9
loop_
_atom_site_label
_atom_site_type_symbol
_atom_site_fract_x
_atom_site_fract_y
_atom_site_fract_z
Cd1 Cd 0.5000 -0.5000 0.0000
Cd2 Cd 0.745900(17) -1.0000 -0.04374(4)
Cd3 Cd 0.520630(17) -1.0000 0.19478(4)
Cd4 Cd 0.381470(12) -0.24215(4) -0.03499(3)
C1 C 0.2808(2) -0.5000 -0.3996(5)
C2 C 0.2267(2) -0.5000 -0.4884(5)
H1 H 0.1949 -0.5000 -0.4638
C3 C 0.2206(2) -0.5000 -0.6136(5)
C4 C 0.2684(2) -0.5000 -0.6503(5)
H2 H 0.2647 -0.5000 -0.7333
C5 C 0.3214(2) -0.5000 -0.5630(6)
C6 C 0.3277(2) -0.5000 -0.4387(5)
H3 H 0.3637 -0.5000 -0.3810
C7 C 0.2868(2) -0.5000 -0.2664(5)
C8 C 0.1623(2) -0.5000 -0.7091(5)
O1 O 0.33679(17) -0.5000 -0.1901(4)
O2 O 0.24301(17) -0.5000 -0.2385(4)
O3 O 0.12020(16) -0.5000 -0.6742(4)
O4 O 0.16221(17) -0.5000 -0.8214(4)
O5 O 0.41320(14) -0.3250(6) -0.5595(3)
O6 O 0.36229(18) -0.5000 -0.7429(4)
O7 O 0.30923(12) -0.2567(4) 0.0396(3)
O8 O 0.42771(16) -1.0000 0.0909(4)
O9 O 0.42534(17) -0.5000 0.0700(4)
O10 O 0.50728(16) -0.7707(6) 0.3368(3)
O11 O 0.55177(12) -0.7362(4) 0.1257(3)
S1 S 0.38196(6) -0.5000 -0.61010(14)
H6 H 0.325(2) -0.295(8) 0.091(4)
H7 H 0.565(2) -0.696(8) 0.177(5)
H8 H 0.5346(10) -0.728(6) 0.397(3)
H9 H 0.4758(8) -0.784(6) 0.351(3)
H10 H 0.430(3) -0.5000 0.132(6)
H11 H 0.411(3) -1.0000 0.143(6)
Cd2_2 Cd 0.745900(17) 0.0000 -0.04374(4)
Cd2B Cd 0.245900(17) -0.5000 -0.04374(4)
Cd2C Cd 0.754100(17) -0.5000 0.04374(4)
Cd2A Cd 0.254100(17) 0.0000 0.04374(4)
Cd2A_2 Cd 0.254100(17) -1.0000 0.04374(4)
Cd2A_3 Cd 0.254100(17) -1.0000 -0.95626(4)
Cd3A Cd 0.479370(17) -1.0000 -0.19478(4)
Cd3A_2 Cd 0.479370(17) 0.0000 -0.19478(4)
Cd3_2 Cd 0.520630(17) 0.0000 0.19478(4)
Cd3B Cd 0.020630(17) -0.5000 -0.80522(4)
Cd4A Cd 0.618530(12) -0.24215(4) 0.03499(3)
Cd4D Cd 0.618530(12) -0.75785(4) 0.03499(3)
Cd4E Cd 0.381470(12) -0.75785(4) -0.03499(3)
Cd4A_2 Cd 0.618530(12) -1.24215(4) 0.03499(3)
Cd4_2 Cd 0.381470(12) -1.24215(4) -0.03499(3)
Cd4F Cd 0.118530(12) -0.25785(4) -0.96501(3)
Cd4C Cd 0.118530(12) -0.74215(4) -0.96501(3)
Cd4F_2 Cd 0.118530(12) -1.25785(4) -0.96501(3)
C1C C 0.2192(2) -1.0000 -0.6004(5)
C2C C 0.2733(2) -1.0000 -0.5116(5)
H1C H 0.3051 -1.0000 -0.5362
C3C C 0.2794(2) -1.0000 -0.3864(5)
C4C C 0.2316(2) -1.0000 -0.3497(5)
H2C H 0.2353 -1.0000 -0.2667
C5C C 0.1786(2) -1.0000 -0.4370(6)
C6C C 0.1723(2) -1.0000 -0.5613(5)
H3C H 0.1363 -1.0000 -0.6190
C7C C 0.2132(2) -1.0000 -0.7336(5)
C8C C 0.3377(2) -1.0000 -0.2909(5)
O1A O 0.66321(17) -0.5000 0.1901(4)
O1C O 0.16321(17) -1.0000 -0.8099(4)
O2B O 0.74301(17) -1.0000 -0.2385(4)
O2C O 0.25699(17) -1.0000 0.2385(4)
O2C_2 O 0.25699(17) -1.0000 -0.7615(4)
O3B O 0.62020(16) -1.0000 0.3258(4)
O3C O 0.37980(16) -1.0000 -0.3258(4)
O4B O 0.66221(17) -1.0000 0.1786(4)
O4C O 0.33779(17) 0.0000 -0.1786(4)
O4B_2 O 0.66221(17) 0.0000 0.1786(4)
O4C_2 O 0.33779(17) -1.0000 -0.1786(4)
O5E O 0.41320(14) -0.6750(6) -0.5595(3)
O5F O 0.08680(14) -1.1750(6) -0.4405(3)
O5C O 0.08680(14) -0.8250(6) -0.4405(3)
O6C O 0.13771(18) -1.0000 -0.2571(4)
O7A O 0.69077(12) -0.2567(4) -0.0396(3)
O7D O 0.69077(12) -0.7433(4) -0.0396(3)
O7E O 0.30923(12) -0.7433(4) 0.0396(3)
O7A_2 O 0.69077(12) -1.2567(4) -0.0396(3)
O7C O 0.19077(12) -0.7567(4) -0.0396(3)
O7_2 O 0.30923(12) -1.2567(4) 0.0396(3)
O7B O 0.80923(12) -0.7567(4) 0.0396(3)
O7G O 0.80923(12) -1.2433(4) 0.0396(3)
O7F O 0.19077(12) -1.2433(4) -0.0396(3)
O8_2 O 0.42771(16) 0.0000 0.0909(4)
O8A O 0.57229(16) -1.0000 -0.0909(4)
O8A_2 O 0.57229(16) 0.0000 -0.0909(4)
O9A O 0.57466(17) -0.5000 -0.0700(4)
O10E O 0.50728(16) -1.2293(6) 0.3368(3)
O10A O 0.49272(16) -0.7707(6) -0.3368(3)
O10D O 0.49272(16) -1.2293(6) -0.3368(3)
O11A O 0.44823(12) -0.7362(4) -0.1257(3)
O11D O 0.44823(12) -0.2638(4) -0.1257(3)
O11E O 0.55177(12) -0.2638(4) 0.1257(3)
O11E_2 O 0.55177(12) -1.2638(4) 0.1257(3)
O11D_2 O 0.44823(12) -1.2638(4) -0.1257(3)
S1C S 0.11804(6) -1.0000 -0.38990(14)
H6A H 0.675(2) -0.295(8) -0.091(4)
H6D H 0.675(2) -0.705(8) -0.091(4)
H6E H 0.325(2) -0.705(8) 0.091(4)
H6A_2 H 0.675(2) -1.295(8) -0.091(4)
H6C H 0.175(2) -0.795(8) -0.091(4)
H6_2 H 0.325(2) -1.295(8) 0.091(4)
H6B H 0.825(2) -0.795(8) 0.091(4)
H6G H 0.825(2) -1.205(8) 0.091(4)
H6F H 0.175(2) -1.205(8) -0.091(4)
H7A H 0.435(2) -0.696(8) -0.177(5)
H7D H 0.435(2) -0.304(8) -0.177(5)
H7E H 0.565(2) -0.304(8) 0.177(5)
H7E_2 H 0.565(2) -1.304(8) 0.177(5)
H7D_2 H 0.435(2) -1.304(8) -0.177(5)
H8E H 0.5346(10) -1.272(6) 0.397(3)
H8A H 0.4654(10) -0.728(6) -0.397(3)
H8D H 0.4654(10) -1.272(6) -0.397(3)
H9E H 0.4758(8) -1.216(6) 0.351(3)
H9A H 0.5242(8) -0.784(6) -0.351(3)
H9D H 0.5242(8) -1.216(6) -0.351(3)
H10A H 0.570(3) -0.5000 -0.132(6)
H11_2 H 0.411(3) 0.0000 0.143(6)
H11A H 0.589(3) -1.0000 -0.143(6)
H11A_2 H 0.589(3) 0.0000 -0.143(6)
O12 O 0.3842(2) 0.0000 0.2854(5)
H4? H 0.3627 0.0877 0.2428
H5? H 0.3694 -0.1094 0.2594
loop_
_geom_bond_atom_site_label_1
_geom_bond_atom_site_label_2
_geom_bond_site_symmetry_1
_geom_bond_site_symmetry_2
Cd1 O9 1_555 1_555
Cd2 O2B 1_555 1_555
Cd3 O8 1_555 1_555
Cd4 O1 1_555 1_555
C1 C2 1_555 1_555
C2 H1 1_555 1_555
C3 C2 1_555 1_555
C4 C3 1_555 1_555
H2 C4 1_555 1_555
C5 C4 1_555 1_555
C6 C1 1_555 1_555
H3 C6 1_555 1_555
C7 C1 1_555 1_555
C8 C3 1_555 1_555
O1 C7 1_555 1_555
O2 C7 1_555 1_555
O3 C8 1_555 1_555
O4 C8 1_555 1_555
O5 S1 1_555 1_555
O6 S1 1_555 1_555
O7 Cd4 1_555 1_555
O8 H11 1_555 1_555
O9 Cd4 1_555 1_555
O10 Cd3 1_555 1_555
O11 Cd1 1_555 1_555
S1 C5 1_555 1_555
H6 O7 1_555 1_555
H7 O11 1_555 1_555
H8 O10 1_555 1_555
H9 O10 1_555 1_555
H10 O9 1_555 1_555
Cd2_2 O7A 1_555 1_555
Cd2B O2 1_555 1_555
Cd2C O7A 1_555 1_555
Cd2A O7 1_555 1_555
Cd2A_2 O2C 1_555 1_555
Cd2A_3 O2C_2 1_555 1_555
Cd3A O3C 1_555 1_555
Cd3A_2 O8A_2 1_555 1_555
Cd3_2 O8_2 1_555 1_555
Cd3B O3 1_555 1_555
Cd4A O1A 1_555 1_555
Cd4D O11 1_555 1_555
Cd4E O1 1_555 1_555
Cd4A_2 O4B 1_555 1_555
Cd4_2 O8 1_555 1_555
Cd4F O4 1_555 1_555
Cd4C O4 1_555 1_555
Cd4F_2 O1C 1_555 1_555
C1C C2C 1_555 1_555
C2C H1C 1_555 1_555
C3C C2C 1_555 1_555
C4C C3C 1_555 1_555
H2C C4C 1_555 1_555
C5C C4C 1_555 1_555
C6C C1C 1_555 1_555
H3C C6C 1_555 1_555
C7C C1C 1_555 1_555
C8C C3C 1_555 1_555
O1A Cd4D 1_555 1_555
O1C Cd4C 1_555 1_555
O2C_2 C7C 1_555 1_555
O3B Cd3 1_555 1_555
O3C C8C 1_555 1_555
O4B Cd4D 1_555 1_555
O4C Cd4 1_555 1_555
O4B_2 Cd4A 1_555 1_555
O4C_2 Cd4E 1_555 1_555
O5E S1 1_555 1_555
O5F S1C 1_555 1_555
O5C S1C 1_555 1_555
O6C S1C 1_555 1_555
O7A Cd4A 1_555 1_555
O7D Cd2 1_555 1_555
O7E Cd2B 1_555 1_555
O7A_2 Cd2 1_555 1_555
O7C Cd2B 1_555 1_555
O7_2 Cd2A_2 1_555 1_555
O7B Cd2 1_555 1_555
O7G Cd2 1_555 1_555
O7F Cd2A_2 1_555 1_555
O8_2 Cd4 1_555 1_555
O8A Cd3A 1_555 1_555
O8A_2 Cd4A 1_555 1_555
O9A Cd1 1_555 1_555
O10E Cd3 1_555 1_555
O10A Cd3A 1_555 1_555
O10D Cd3A 1_555 1_555
O11A Cd1 1_555 1_555
O11D Cd1 1_555 1_555
O11E Cd1 1_555 1_555
O11E_2 Cd3 1_555 1_555
O11D_2 Cd3A 1_555 1_555
S1C C5C 1_555 1_555
H6A O7A 1_555 1_555
H6D O7D 1_555 1_555
H6E O7E 1_555 1_555
H6A_2 O7A_2 1_555 1_555
H6C O7C 1_555 1_555
H6_2 O7_2 1_555 1_555
H6B O7B 1_555 1_555
H6G O7G 1_555 1_555
H6F O7F 1_555 1_555
H7A O11A 1_555 1_555
H7D O11D 1_555 1_555
H7E O11E 1_555 1_555
H7E_2 O11E_2 1_555 1_555
H7D_2 O11D_2 1_555 1_555
H8E O10E 1_555 1_555
H8A O10A 1_555 1_555
H8D O10D 1_555 1_555
H9E O10E 1_555 1_555
H9A O10A 1_555 1_555
H9D O10D 1_555 1_555
H10A O9A 1_555 1_555
H11_2 O8_2 1_555 1_555
H11A O8A 1_555 1_555
H11A_2 O8A_2 1_555 1_555
Cd3 O11 1_555 1_555
Cd4 O11D 1_555 1_555
C5 C6 1_555 1_555
O7 Cd2B 1_555 1_555
O8 Cd4E 1_555 1_555
O9 Cd4E 1_555 1_555
Cd2C O7D 1_555 1_555
Cd2C O7B 1_555 1_555
Cd2A_2 O7E 1_555 1_555
Cd2A_2 O7C 1_555 1_555
Cd3A O11A 1_555 1_555
Cd3A_2 O11D 1_555 1_555
Cd3_2 O11E 1_555 1_555
Cd4A O9A 1_555 1_555
Cd4A O11E 1_555 1_555
Cd4D O7D 1_555 1_555
Cd4D O8A 1_555 1_555
Cd4D O9A 1_555 1_555
Cd4E O7E 1_555 1_555
Cd4E O11A 1_555 1_555
Cd4A_2 O7A_2 1_555 1_555
Cd4A_2 O8A 1_555 1_555
Cd4A_2 O11E_2 1_555 1_555
Cd4_2 O4C_2 1_555 1_555
Cd4_2 O7_2 1_555 1_555
Cd4_2 O11D_2 1_555 1_555
C5C C6C 1_555 1_555
C7C O1C 1_555 1_555
C8C O4C_2 1_555 1_555

#END
