
#######################################################################
#
#                 Cambridge Crystallographic Data Centre
#                                CCDC 
#
#######################################################################
#
# If this CIF has been generated from an entry in the Cambridge 
# Structural Database, then it will include bibliographic, chemical, 
# crystal, experimental, refinement or atomic coordinate data resulting 
# from the CCDC's data processing and validation procedures.
#
#######################################################################

data_IJIDUA
_symmetry_cell_setting           monoclinic
_symmetry_space_group_name_H-M   'C c'
_symmetry_Int_Tables_number      9
_space_group_name_Hall           'C -2yc'
loop_
_symmetry_equiv_pos_site_id
_symmetry_equiv_pos_as_xyz
1 x,y,z
2 x,-y,1/2+z
3 1/2+x,1/2+y,z
4 1/2+x,1/2-y,1/2+z
_cell_length_a                   22.180(4)
_cell_length_b                   14.288(3)
_cell_length_c                   8.0823(16)
_cell_angle_alpha                90
_cell_angle_beta                 108.13(3)
_cell_angle_gamma                90
_cell_volume                     2434.18
loop_
_atom_site_label
_atom_site_type_symbol
_atom_site_fract_x
_atom_site_fract_y
_atom_site_fract_z
S1 S -0.4170(4) 0.5971(5) 0.1330(11)
S2 S -0.6532(3) 0.6377(5) 0.2170(10)
S3 S -0.2220(3) 0.3946(5) 0.0750(10)
S4 S 0.0205(3) 0.3728(5) 0.0193(11)
O1 O -0.6989(9) 0.5652(13) 0.2590(30)
O2 O -0.6275(8) 0.6940(12) 0.3600(20)
O3 O -0.6811(7) 0.6743(11) 0.0490(20)
O4 O 0.0608(8) 0.3761(11) 0.2060(20)
O5 O 0.0040(8) 0.2654(13) -0.0340(20)
O6 O 0.0500(9) 0.4180(13) -0.0900(30)
N1 N -0.3380(12) 0.4583(17) 0.1230(30)
N2 N -0.4327(10) 0.4173(15) 0.1750(30)
N3 N -0.3054(11) 0.5359(17) 0.0840(30)
N4 N -0.2104(10) 0.5698(15) 0.0340(30)
C1 C -0.3898(15) 0.4840(20) 0.1520(40)
C2 C -0.4835(13) 0.4621(18) 0.1790(40)
C3 C -0.5330(15) 0.4130(20) 0.2210(40)
C4 C -0.5882(15) 0.4730(20) 0.2370(40)
C5 C -0.5873(13) 0.5696(19) 0.2180(40)
C6 C -0.5363(15) 0.6130(20) 0.1770(40)
C7 C -0.4855(14) 0.5605(19) 0.1690(40)
C8 C -0.4172(14) 0.3148(19) 0.1950(40)
C9 C -0.4509(14) 0.2680(20) 0.0390(40)
C10 C -0.2481(13) 0.5079(19) 0.0690(40)
C11 C -0.1515(12) 0.5316(17) 0.0260(40)
C12 C -0.1017(13) 0.5784(19) -0.0080(40)
C13 C -0.0499(16) 0.5320(20) -0.0100(40)
C14 C -0.0464(13) 0.4376(18) 0.0170(40)
C15 C -0.1024(17) 0.3870(20) 0.0380(50)
C16 C -0.1525(11) 0.4408(16) 0.0500(30)
C17 C -0.2254(15) 0.6686(19) 0.0150(40)
C18 C -0.1995(15) 0.7300(20) 0.1710(50)
Ca1 Ca 0.1335(5) 0.4812(7) 0.3893(17)
O7 O 0.1385(11) 0.5439(16) 0.1550(30)
O8 O 0.2378(11) 0.5617(15) 0.4800(30)
O9 O 0.1854(16) 0.3320(20) 0.4230(40)
Ca1A Ca 0.1335(5) 0.5188(7) -0.1107(17)
O6A O 0.0500(9) 0.5820(13) 0.4100(30)
O7A O 0.1385(11) 0.4561(16) 0.6550(30)
loop_
_geom_bond_atom_site_label_1
_geom_bond_atom_site_label_2
_geom_bond_site_symmetry_1
_geom_bond_site_symmetry_2
S1 C1 1_555 1_555
S2 O1 1_555 1_555
S3 C10 1_555 1_555
S4 O4 1_555 1_555
O2 S2 1_555 1_555
O3 S2 1_555 1_555
O4 Ca1 1_555 1_555
O5 S4 1_555 1_555
O6 S4 1_555 1_555
N1 N3 1_555 1_555
N2 C1 1_555 1_555
N3 C10 1_555 1_555
N4 C10 1_555 1_555
C1 N1 1_555 1_555
C2 N2 1_555 1_555
C3 C2 1_555 1_555
C4 C3 1_555 1_555
C5 S2 1_555 1_555
C6 C5 1_555 1_555
C7 S1 1_555 1_555
C8 N2 1_555 1_555
C9 C8 1_555 1_555
C11 N4 1_555 1_555
C12 C11 1_555 1_555
C13 C12 1_555 1_555
C14 S4 1_555 1_555
C15 C14 1_555 1_555
C16 S3 1_555 1_555
C17 N4 1_555 1_555
C18 C17 1_555 1_555
Ca1 O7 1_555 1_555
O7 Ca1A 1_555 1_555
O8 Ca1 1_555 1_555
O9 Ca1 1_555 1_555
Ca1A O6 1_555 1_555
O6A Ca1 1_555 1_555
O7A Ca1 1_555 1_555
C2 C7 1_555 1_555
C4 C5 1_555 1_555
C6 C7 1_555 1_555
C11 C16 1_555 1_555
C13 C14 1_555 1_555
C15 C16 1_555 1_555

#END
