
#######################################################################
#
#                 Cambridge Crystallographic Data Centre
#                                CCDC 
#
#######################################################################
#
# If this CIF has been generated from an entry in the Cambridge 
# Structural Database, then it will include bibliographic, chemical, 
# crystal, experimental, refinement or atomic coordinate data resulting 
# from the CCDC's data processing and validation procedures.
#
#######################################################################

data_IJISEZ
_symmetry_cell_setting           monoclinic
_symmetry_space_group_name_H-M   'C 2/c'
_symmetry_Int_Tables_number      15
_space_group_name_Hall           '-C 2yn'
loop_
_symmetry_equiv_pos_site_id
_symmetry_equiv_pos_as_xyz
1 x,y,z
2 -x,y,1/2-z
3 1/2+x,1/2+y,z
4 1/2-x,1/2+y,1/2-z
5 -x,-y,-z
6 x,-y,1/2+z
7 1/2-x,1/2-y,-z
8 1/2+x,1/2-y,1/2+z
_cell_length_a                   14.4939(1)
_cell_length_b                   10.2595(2)
_cell_length_c                   18.6782(3)
_cell_angle_alpha                90
_cell_angle_beta                 98.991(1)
_cell_angle_gamma                90
_cell_volume                     2743.32
loop_
_atom_site_label
_atom_site_type_symbol
_atom_site_fract_x
_atom_site_fract_y
_atom_site_fract_z
V1 V 0.1549(1) 0.8840(1) 0.0872(1)
V2 V -0.2630(1) 0.5543(1) -0.2194(1)
P1 P 0.2174(1) 0.8764(1) -0.0760(1)
P2 P -0.1648(1) 0.8334(1) -0.1684(1)
O1 O 0.2086(3) 0.9239(4) 0.0001(2)
O2 O -0.2421(3) 0.7310(4) -0.1747(2)
O3 O -0.1795(3) 0.9290(3) -0.1080(2)
O4 O 0.2148(3) 0.9977(3) -0.1234(2)
O5 O -0.1617(3) 0.9036(4) -0.2401(2)
O6 O 0.3078(3) 0.8001(3) -0.0765(2)
O7 O 0.0445(3) 0.8723(4) 0.0674(3)
O8 O 0.1899(4) 0.8510(4) 0.1908(2)
O9 O -0.1611(4) 0.5079(5) -0.2281(3)
C1 C 0.1204(4) 0.7717(5) -0.1086(3)
C2 C -0.0547(3) 0.7527(5) -0.1436(3)
C3 C 0.0284(4) 0.8455(5) -0.1247(3)
O3D O 0.1795(3) 1.0710(3) 0.1080(2)
O6F O 0.1922(3) 0.6999(3) 0.0765(2)
O4B O -0.2852(3) 0.4977(3) -0.1234(2)
O5C O -0.3383(3) 0.4036(4) -0.2599(2)
O8G O -0.3101(4) 0.6490(4) -0.3092(2)
V1D V -0.1549(1) 1.1160(1) -0.0872(1)
V2B V 0.2370(1) 1.0543(1) -0.2194(1)
V2C V -0.2370(1) 1.0543(1) -0.2806(1)
V1F V 0.3451(1) 0.6160(1) -0.0872(1)
V2G V 0.2370(1) 0.9457(1) 0.2806(1)
K1 K 0.3438(4) 0.3059(4) 0.0425(3)
O10 O 0.4373(10) 0.3555(12) 0.2041(9)
O11 O 0.3828(9) 0.1093(9) 0.1286(10)
O12 O 0.5116(10) 0.0837(16) 0.0648(12)
loop_
_geom_bond_atom_site_label_1
_geom_bond_atom_site_label_2
_geom_bond_site_symmetry_1
_geom_bond_site_symmetry_2
V1 O1 1_555 1_555
V2 O2 1_555 1_555
P1 O1 1_555 1_555
P2 O2 1_555 1_555
O3 P2 1_555 1_555
O4 P1 1_555 1_555
O5 P2 1_555 1_555
O6 P1 1_555 1_555
O7 V1 1_555 1_555
O8 V1 1_555 1_555
O9 V2 1_555 1_555
C1 P1 1_555 1_555
C2 P2 1_555 1_555
C3 C1 1_555 1_555
O3D V1 1_555 1_555
O6F V1 1_555 1_555
O4B V2 1_555 1_555
O5C V2 1_555 1_555
O8G V2 1_555 1_555
V1D O3 1_555 1_555
V2B O4 1_555 1_555
V2C O5 1_555 1_555
V1F O6 1_555 1_555
V2G O8 1_555 1_555
C2 C3 1_555 1_555

#END
