
#######################################################################
#
#                 Cambridge Crystallographic Data Centre
#                                CCDC 
#
#######################################################################
#
# If this CIF has been generated from an entry in the Cambridge 
# Structural Database, then it will include bibliographic, chemical, 
# crystal, experimental, refinement or atomic coordinate data resulting 
# from the CCDC's data processing and validation procedures.
#
#######################################################################

data_IJISUQ
_symmetry_cell_setting           orthorhombic
_symmetry_space_group_name_H-M   'P n a 21'
_symmetry_Int_Tables_number      33
_space_group_name_Hall           'P 2c -2n'
loop_
_symmetry_equiv_pos_site_id
_symmetry_equiv_pos_as_xyz
1 x,y,z
2 1/2-x,1/2+y,1/2+z
3 1/2+x,1/2-y,z
4 -x,-y,1/2+z
_cell_length_a                   7.0461(11)
_cell_length_b                   26.607(4)
_cell_length_c                   16.224(2)
_cell_angle_alpha                90
_cell_angle_beta                 90
_cell_angle_gamma                90
_cell_volume                     3041.6
loop_
_atom_site_label
_atom_site_type_symbol
_atom_site_fract_x
_atom_site_fract_y
_atom_site_fract_z
Ag1 Ag 0.56267(4) 0.112950(11) 0.60778(3)
O1 O 0.5652(4) 0.36599(10) 0.54314(17)
O2 O 0.7398(4) 0.53713(11) 0.5008(2)
O3 O 0.6860(4) 0.47184(11) 0.7743(2)
N1 N 0.4974(5) 0.18743(13) 0.5462(2)
N2 N 0.9074(5) 0.61637(15) 0.2463(2)
N3 N 0.8332(5) 0.54837(14) 1.0323(2)
C1 C 0.6183(9) 0.4116(2) 0.5786(3)
C2 C 0.6546(8) 0.4495(2) 0.5216(4)
H1 H 0.6470 0.4432 0.4640
C3 C 0.7019(8) 0.4965(2) 0.5511(3)
C4 C 0.7132(8) 0.5062(2) 0.6356(3)
H2 H 0.7440 0.5388 0.6556
C5 C 0.6781(8) 0.4668(2) 0.6895(4)
C6 C 0.6257(8) 0.4189(2) 0.6614(3)
H3 H 0.5965 0.3926 0.6989
C7 C 0.5324(6) 0.32490(12) 0.5997(5)
H4 H 0.4208 0.3320 0.6349
H5 H 0.6444 0.3199 0.6356
C8 C 0.5273(5) 0.23192(15) 0.5842(3)
H6 H 0.5716 0.2313 0.6395
C9 C 0.4975(6) 0.27879(16) 0.5476(3)
C10 C 0.4425(7) 0.27928(16) 0.4654(3)
H7 H 0.4241 0.3103 0.4376
C11 C 0.4148(7) 0.23465(16) 0.4244(3)
H8 H 0.3782 0.2343 0.3680
C12 C 0.4417(6) 0.18989(17) 0.4674(3)
H9 H 0.4191 0.1592 0.4391
C13 C 0.7521(8) 0.52855(19) 0.4146(3)
H10 H 0.6255 0.5198 0.3923
H11 H 0.8396 0.5003 0.4033
C14 C 0.8343(7) 0.57719(18) 0.2883(3)
H12 H 0.7873 0.5493 0.2579
C15 C 0.8239(6) 0.57541(17) 0.3748(3)
C16 C 0.8923(6) 0.61618(18) 0.4176(3)
H13 H 0.8918 0.6159 0.4762
C17 C 0.9623(7) 0.65783(17) 0.3753(3)
H14 H 1.0024 0.6870 0.4042
C18 C 0.9718(7) 0.65555(17) 0.2903(3)
H15 H 1.0266 0.6831 0.2616
C19 C 0.7564(8) 0.51773(19) 0.8081(3)
H16 H 0.6698 0.5459 0.7947
H17 H 0.8835 0.5254 0.7854
C20 C 0.8118(7) 0.55149(18) 0.9498(3)
H18 H 0.8277 0.5833 0.9241
C21 C 0.7677(6) 0.51034(18) 0.9008(3)
C22 C 0.7405(8) 0.4648(2) 0.9391(3)
H19 H 0.7097 0.4360 0.9073
C23 C 0.7576(6) 0.46094(18) 1.0230(3)
H20 H 0.7371 0.4297 1.0499
C24 C 0.8052(6) 0.50333(17) 1.0679(3)
H21 H 0.8187 0.5005 1.1259
Ag1A Ag 0.93733(4) 0.612950(11) 0.10778(3)
Ag1A_2 Ag 0.93733(4) 0.612950(11) 1.10778(3)
N2A N 0.5926(5) 0.11637(15) 0.7463(2)
N3A N 0.6668(5) 0.04837(14) 0.5323(2)
P1 P 0.2345(2) 0.10981(5) 0.25612(9)
F1 F 0.2029(5) 0.05042(11) 0.2564(3)
F2 F 0.3860(5) 0.10337(14) 0.32825(19)
F3 F 0.0733(5) 0.11552(13) 0.32399(18)
F4 F 0.3980(4) 0.10284(12) 0.18975(19)
F5 F 0.2636(5) 0.16867(10) 0.2587(2)
F6 F 0.0811(4) 0.11471(12) 0.18582(19)
N4 N 0.4556(14) 0.7002(4) 0.3087(5)
C25 C 0.4608(13) 0.6916(4) 0.3743(6)
C26 C 0.4542(10) 0.6801(2) 0.4626(5)
H22 H 0.5835 0.6796 0.4848
H23 H 0.3949 0.6472 0.4708
H24 H 0.3797 0.7059 0.4911
N5 N 0.0389(12) 0.2920(3) 0.0643(4)
C27 C 0.1152(12) 0.2955(3) 0.1227(6)
C28 C 0.2219(8) 0.2995(2) 0.2015(4)
H25 H 0.2116 0.3339 0.2228
H26 H 0.3557 0.2914 0.1918
H27 H 0.1687 0.2760 0.2417
loop_
_geom_bond_atom_site_label_1
_geom_bond_atom_site_label_2
_geom_bond_site_symmetry_1
_geom_bond_site_symmetry_2
Ag1 N1 1_555 1_555
P1 F1 1_555 1_555
F2 P1 1_555 1_555
F3 P1 1_555 1_555
F4 P1 1_555 1_555
F5 P1 1_555 1_555
F6 P1 1_555 1_555
O1 C1 1_555 1_555
O2 C3 1_555 1_555
O3 C5 1_555 1_555
N1 C8 1_555 1_555
N2 C14 1_555 1_555
N3 C20 1_555 1_555
N4 C25 1_555 1_555
N5 C27 1_555 1_555
C1 C2 1_555 1_555
C2 H1 1_555 1_555
C3 C2 1_555 1_555
C4 C3 1_555 1_555
H2 C4 1_555 1_555
C5 C4 1_555 1_555
C6 C1 1_555 1_555
H3 C6 1_555 1_555
C7 O1 1_555 1_555
H4 C7 1_555 1_555
H5 C7 1_555 1_555
C8 H6 1_555 1_555
C9 C7 1_555 1_555
C10 C9 1_555 1_555
H7 C10 1_555 1_555
C11 C10 1_555 1_555
H8 C11 1_555 1_555
C12 N1 1_555 1_555
H9 C12 1_555 1_555
C13 O2 1_555 1_555
H10 C13 1_555 1_555
H11 C13 1_555 1_555
C14 H12 1_555 1_555
C15 C13 1_555 1_555
C16 C15 1_555 1_555
H13 C16 1_555 1_555
C17 C16 1_555 1_555
H14 C17 1_555 1_555
C18 N2 1_555 1_555
H15 C18 1_555 1_555
C19 O3 1_555 1_555
H16 C19 1_555 1_555
H17 C19 1_555 1_555
C20 H18 1_555 1_555
C21 C19 1_555 1_555
C22 C21 1_555 1_555
H19 C22 1_555 1_555
C23 C22 1_555 1_555
H20 C23 1_555 1_555
C24 N3 1_555 1_555
H21 C24 1_555 1_555
C25 C26 1_555 1_555
C26 H22 1_555 1_555
H23 C26 1_555 1_555
H24 C26 1_555 1_555
C27 C28 1_555 1_555
C28 H25 1_555 1_555
H26 C28 1_555 1_555
H27 C28 1_555 1_555
Ag1A N2 1_555 1_555
Ag1A_2 N3 1_555 1_555
N2A Ag1 1_555 1_555
N3A Ag1 1_555 1_555
C5 C6 1_555 1_555
C8 C9 1_555 1_555
C11 C12 1_555 1_555
C14 C15 1_555 1_555
C17 C18 1_555 1_555
C20 C21 1_555 1_555
C23 C24 1_555 1_555

#END
