
#######################################################################
#
#                 Cambridge Crystallographic Data Centre
#                                CCDC 
#
#######################################################################
#
# If this CIF has been generated from an entry in the Cambridge 
# Structural Database, then it will include bibliographic, chemical, 
# crystal, experimental, refinement or atomic coordinate data resulting 
# from the CCDC's data processing and validation procedures.
#
#######################################################################

data_IJITUQ
_symmetry_cell_setting           monoclinic
_symmetry_space_group_name_H-M   'C 2/c'
_symmetry_Int_Tables_number      15
_space_group_name_Hall           '-C 2yn'
loop_
_symmetry_equiv_pos_site_id
_symmetry_equiv_pos_as_xyz
1 x,y,z
2 -x,y,1/2-z
3 1/2+x,1/2+y,z
4 1/2-x,1/2+y,1/2-z
5 -x,-y,-z
6 x,-y,1/2+z
7 1/2-x,1/2-y,-z
8 1/2+x,1/2-y,1/2+z
_cell_length_a                   20.807(6)
_cell_length_b                   11.533(4)
_cell_length_c                   16.416(4)
_cell_angle_alpha                90
_cell_angle_beta                 96.221(6)
_cell_angle_gamma                90
_cell_volume                     3916.1
loop_
_atom_site_label
_atom_site_type_symbol
_atom_site_fract_x
_atom_site_fract_y
_atom_site_fract_z
Co1 Co 0.0000 0.3314(1) 0.7500
S1 S 0.0788(1) 0.3148(2) 0.4831(1)
N1 N 0.0961(2) 0.3376(5) 0.8158(3)
N2 N 0.4188(3) 0.3994(7) 1.0005(4)
N3 N 0.0000 0.5231(5) 0.7500
N4 N 0.0000 1.1387(6) 0.7500
N5 N 0.0385(2) 0.3304(4) 0.6392(3)
C1 C 0.1433(3) 0.2668(5) 0.7978(3)
C2 C 0.2055(3) 0.2737(6) 0.8334(3)
C3 C 0.2229(3) 0.3615(5) 0.8898(3)
C4 C 0.1741(3) 0.4350(6) 0.9097(3)
C5 C 0.1123(3) 0.4200(5) 0.8708(3)
C6 C 0.2905(3) 0.3747(6) 0.9293(3)
C7 C 0.3311(3) 0.2789(6) 0.9416(3)
C8 C 0.3938(3) 0.2968(7) 0.9776(4)
C9 C 0.3791(4) 0.4873(8) 0.9870(5)
C10 C 0.3166(4) 0.4805(6) 0.9533(4)
C11 C -0.0426(3) 0.5850(5) 0.7869(3)
C12 C -0.0439(3) 0.7040(5) 0.7891(3)
C13 C 0.0000 0.7676(8) 0.7500
C14 C 0.0000 0.8942(8) 0.7500
C15 C -0.0027(2) 0.9582(5) 0.8211(3)
C16 C -0.0022(3) 1.0764(5) 0.8188(3)
C17 C 0.0551(2) 0.3242(5) 0.5741(4)
C12A C 0.0439(3) 0.7040(5) 0.7109(3)
C11A C 0.0426(3) 0.5850(5) 0.7131(3)
C16A C 0.0022(3) 1.0764(5) 0.6812(3)
C15A C 0.0027(2) 0.9582(5) 0.6789(3)
N1A N -0.0961(2) 0.3376(5) 0.6842(3)
N2A N -0.4188(3) 0.3994(7) 0.4995(4)
C1A C -0.1433(3) 0.2668(5) 0.7022(3)
C2A C -0.2055(3) 0.2737(6) 0.6666(3)
C3A C -0.2229(3) 0.3615(5) 0.6102(3)
C4A C -0.1741(3) 0.4350(6) 0.5903(3)
C5A C -0.1123(3) 0.4200(5) 0.6292(3)
C6A C -0.2905(3) 0.3747(6) 0.5707(3)
C7A C -0.3311(3) 0.2789(6) 0.5584(3)
C8A C -0.3938(3) 0.2968(7) 0.5224(4)
C9A C -0.3791(4) 0.4873(8) 0.5130(5)
C10A C -0.3166(4) 0.4805(6) 0.5467(4)
S1A S -0.0788(1) 0.3148(2) 1.0169(1)
N5A N -0.0385(2) 0.3304(4) 0.8608(3)
C17A C -0.0551(2) 0.3242(5) 0.9259(4)
N4_2 N 0.0000 0.1387(6) 0.7500
Co1_2 Co 0.0000 1.3314(1) 0.7500
N6 N 0.2652(3) 0.3889(6) 0.6622(4)
O1 O 0.2066(3) 0.5440(6) 0.6903(4)
C18 C 0.2110(4) 0.4496(8) 0.6602(5)
C19 C 0.2657(4) 0.2761(8) 0.6261(5)
C20 C 0.3245(4) 0.4321(8) 0.7031(5)
loop_
_geom_bond_atom_site_label_1
_geom_bond_atom_site_label_2
_geom_bond_site_symmetry_1
_geom_bond_site_symmetry_2
Co1 N1 1_555 1_555
S1 C17 1_555 1_555
N1 C1 1_555 1_555
N2 C8 1_555 1_555
N3 Co1 1_555 1_555
N4 C16 1_555 1_555
N5 Co1 1_555 1_555
N6 C18 1_555 1_555
O1 C18 1_555 1_555
C1 C2 1_555 1_555
C2 C3 1_555 1_555
C3 C4 1_555 1_555
C4 C5 1_555 1_555
C5 N1 1_555 1_555
C6 C3 1_555 1_555
C7 C6 1_555 1_555
C8 C7 1_555 1_555
C9 N2 1_555 1_555
C10 C6 1_555 1_555
C11 N3 1_555 1_555
C12 C11 1_555 1_555
C13 C12 1_555 1_555
C14 C13 1_555 1_555
C15 C14 1_555 1_555
C16 C15 1_555 1_555
C17 N5 1_555 1_555
C19 N6 1_555 1_555
C20 N6 1_555 1_555
C12A C13 1_555 1_555
C11A N3 1_555 1_555
C16A N4 1_555 1_555
C15A C14 1_555 1_555
N1A Co1 1_555 1_555
N2A C8A 1_555 1_555
C1A N1A 1_555 1_555
C2A C1A 1_555 1_555
C3A C2A 1_555 1_555
C4A C3A 1_555 1_555
C5A N1A 1_555 1_555
C6A C3A 1_555 1_555
C7A C6A 1_555 1_555
C8A C7A 1_555 1_555
C9A N2A 1_555 1_555
C10A C6A 1_555 1_555
S1A C17A 1_555 1_555
N5A Co1 1_555 1_555
C17A N5A 1_555 1_555
N4_2 Co1 1_555 1_555
Co1_2 N4 1_555 1_555
C9 C10 1_555 1_555
C12A C11A 1_555 1_555
C16A C15A 1_555 1_555
C4A C5A 1_555 1_555
C9A C10A 1_555 1_555

#END
