
#######################################################################
#
#                 Cambridge Crystallographic Data Centre
#                                CCDC 
#
#######################################################################
#
# If this CIF has been generated from an entry in the Cambridge 
# Structural Database, then it will include bibliographic, chemical, 
# crystal, experimental, refinement or atomic coordinate data resulting 
# from the CCDC's data processing and validation procedures.
#
#######################################################################

data_IJIWOO
_symmetry_cell_setting           monoclinic
_symmetry_space_group_name_H-M   'C 2/m'
_symmetry_Int_Tables_number      12
_space_group_name_Hall           '-C 2y'
loop_
_symmetry_equiv_pos_site_id
_symmetry_equiv_pos_as_xyz
1 x,y,z
2 -x,y,-z
3 1/2+x,1/2+y,z
4 1/2-x,1/2+y,-z
5 -x,-y,-z
6 x,-y,z
7 1/2-x,1/2-y,-z
8 1/2+x,1/2-y,z
_cell_length_a                   7.5514(4)
_cell_length_b                   7.2632(4)
_cell_length_c                   9.0675(5)
_cell_angle_alpha                90
_cell_angle_beta                 93.422(2)
_cell_angle_gamma                90
_cell_volume                     496.441
loop_
_atom_site_label
_atom_site_type_symbol
_atom_site_fract_x
_atom_site_fract_y
_atom_site_fract_z
K1 K 0.20681(7) 0.5000 -0.05926(6)
O1 O 0.08625(19) 0.2924(2) 0.17095(15)
H1 H 0.025(4) 0.196(5) 0.182(3)
O2 O 0.4099(3) 0.5000 0.1948(2)
C1 C 0.1812(3) 0.3246(3) 0.3086(2)
H2 H 0.2604 0.2186 0.3318
H3 H 0.0958 0.3329 0.3871
C2 C 0.2919(4) 0.5000 0.3097(3)
H4 H 0.3665 0.5000 0.4046
K1A K -0.20681(7) 0.5000 0.05926(6)
K1C K 0.29319(7) 0.0000 0.05926(6)
K1C_2 K 0.29319(7) 1.0000 0.05926(6)
O1E O 0.08625(19) 0.7076(2) 0.17095(15)
O1A O -0.08625(19) 0.2924(2) -0.17095(15)
O1C O 0.41375(19) 0.7924(2) -0.17095(15)
O1D O -0.08625(19) 0.7076(2) -0.17095(15)
O1F O 0.41375(19) 0.2076(2) -0.17095(15)
H1E H 0.025(4) 0.804(5) 0.182(3)
H1A H -0.025(4) 0.196(5) -0.182(3)
H1C H 0.475(4) 0.696(5) -0.182(3)
H1D H -0.025(4) 0.804(5) -0.182(3)
H1F H 0.475(4) 0.304(5) -0.182(3)
C1E C 0.1812(3) 0.6754(3) 0.3086(2)
H2E H 0.2604 0.7814 0.3318
H3E H 0.0958 0.6671 0.3871
loop_
_geom_bond_atom_site_label_1
_geom_bond_atom_site_label_2
_geom_bond_site_symmetry_1
_geom_bond_site_symmetry_2
K1 O1 1_555 1_555
O1 H1 1_555 1_555
O2 K1 1_555 1_555
C1 O1 1_555 1_555
H2 C1 1_555 1_555
H3 C1 1_555 1_555
C2 O2 1_555 1_555
H4 C2 1_555 1_555
K1A O1 1_555 1_555
K1C O1 1_555 1_555
K1C_2 O1E 1_555 1_555
O1E K1 1_555 1_555
O1A K1 1_555 1_555
O1C K1 1_555 1_555
O1D K1 1_555 1_555
O1F K1 1_555 1_555
H1E O1E 1_555 1_555
H1A O1A 1_555 1_555
H1C O1C 1_555 1_555
H1D O1D 1_555 1_555
H1F O1F 1_555 1_555
C1E C2 1_555 1_555
H2E C1E 1_555 1_555
H3E C1E 1_555 1_555
C1 C2 1_555 1_555
K1A O1E 1_555 1_555
K1A O1A 1_555 1_555
K1A O1D 1_555 1_555
K1C O1F 1_555 1_555
K1C_2 O1C 1_555 1_555
O1E C1E 1_555 1_555

#END
