
#######################################################################
#
#                 Cambridge Crystallographic Data Centre
#                                CCDC 
#
#######################################################################
#
# If this CIF has been generated from an entry in the Cambridge 
# Structural Database, then it will include bibliographic, chemical, 
# crystal, experimental, refinement or atomic coordinate data resulting 
# from the CCDC's data processing and validation procedures.
#
#######################################################################

data_IJIWAZ
_symmetry_cell_setting           triclinic
_symmetry_space_group_name_H-M   'P -1'
_symmetry_Int_Tables_number      2
_space_group_name_Hall           '-P 1'
loop_
_symmetry_equiv_pos_site_id
_symmetry_equiv_pos_as_xyz
1 x,y,z
2 -x,-y,-z
_cell_length_a                   5.5971(8)
_cell_length_b                   6.5388(5)
_cell_length_c                   15.267(2)
_cell_angle_alpha                77.855(8)
_cell_angle_beta                 85.90(1)
_cell_angle_gamma                84.95(1)
_cell_volume                     543.315
loop_
_atom_site_label
_atom_site_type_symbol
_atom_site_fract_x
_atom_site_fract_y
_atom_site_fract_z
S1 S 1.09833(7) -0.09267(6) 0.62691(2)
Na1 Na 0.6529(1) -0.2671(1) 0.50507(4)
O1 O 0.3971(2) -0.3818(2) 0.40861(8)
O2 O 0.8963(2) -0.2012(2) 0.61273(9)
O3 O 1.0459(3) 0.1327(2) 0.61878(8)
O4 O 1.3155(3) -0.1359(2) 0.57486(8)
O5 O 1.3122(3) -0.5504(2) 0.7523(1)
O6 O 1.3187(3) -0.2917(3) 0.916(1)
O7 O 0.9358(2) -0.4759(2) 0.80260(9)
O8 O 1.6508(2) -0.1225(2) 0.88089(8)
C1 C 1.1605(3) -0.1889(2) 0.7439(1)
C2 C 1.4000(3) -0.1205(3) 0.7637(1)
C3 C 1.1491(3) -0.4257(2) 0.7662(1)
C4 C 1.4476(3) -0.1895(3) 0.8617(1)
C5 C 0.8917(4) -0.6951(3) 0.8237(2)
C6 C 1.7304(4) -0.2039(4) 0.9704(1)
H1 H 1.028(4) -0.129(3) 0.777(1)
H2 H 1.403(4) 0.034(3) 0.745(1)
H3 H 1.528(4) -0.174(3) 0.731(1)
H4 H 0.740(4) -0.732(3) 0.848(1)
H5 H 0.912(4) -0.753(4) 0.770(1)
H6 H 0.999(5) -0.771(3) 0.860(1)
H7 H 1.876(4) -0.155(3) 0.974(1)
H8 H 1.619(5) -0.161(4) 1.014(2)
H9 H 1.747(5) -0.351(4) 0.982(2)
H10 H 0.452(4) -0.390(3) 0.358(1)
H11 H 0.279(5) -0.305(4) 0.393(2)
O1A O 0.6029(2) -0.6182(2) 0.59139(8)
O3A O 0.9541(3) -0.1327(2) 0.38122(8)
O4_2 O 0.3155(3) -0.1359(2) 0.57486(8)
O4A O 0.6845(3) 0.1359(2) 0.42514(8)
Na1A Na 0.3471(1) -0.7329(1) 0.49493(4)
Na1A_2 Na 1.3471(1) 0.2671(1) 0.49493(4)
Na1_2 Na 1.6529(1) -0.2671(1) 0.50507(4)
H10A H 0.548(4) -0.610(3) 0.642(1)
H11A H 0.721(5) -0.695(4) 0.607(2)
loop_
_geom_bond_atom_site_label_1
_geom_bond_atom_site_label_2
_geom_bond_site_symmetry_1
_geom_bond_site_symmetry_2
S1 O2 1_555 1_555
Na1 O1 1_555 1_555
O1 H10 1_555 1_555
O2 Na1 1_555 1_555
O3 S1 1_555 1_555
O4 S1 1_555 1_555
O5 C3 1_555 1_555
O6 C4 1_555 1_555
O7 C3 1_555 1_555
O8 C4 1_555 1_555
C1 S1 1_555 1_555
C2 C1 1_555 1_555
C3 C1 1_555 1_555
C4 C2 1_555 1_555
C5 O7 1_555 1_555
C6 O8 1_555 1_555
H1 C1 1_555 1_555
H2 C2 1_555 1_555
H3 C2 1_555 1_555
H4 C5 1_555 1_555
H5 C5 1_555 1_555
H6 C5 1_555 1_555
H7 C6 1_555 1_555
H8 C6 1_555 1_555
H9 C6 1_555 1_555
H11 O1 1_555 1_555
O1A Na1 1_555 1_555
O3A Na1 1_555 1_555
O4_2 Na1 1_555 1_555
O4A Na1 1_555 1_555
Na1A O1 1_555 1_555
Na1A_2 O3 1_555 1_555
Na1_2 O4 1_555 1_555
H10A O1A 1_555 1_555
H11A O1A 1_555 1_555
O4 Na1A_2 1_555 1_555
O1A Na1A 1_555 1_555

#END
