
#######################################################################
#
#                 Cambridge Crystallographic Data Centre
#                                CCDC 
#
#######################################################################
#
# If this CIF has been generated from an entry in the Cambridge 
# Structural Database, then it will include bibliographic, chemical, 
# crystal, experimental, refinement or atomic coordinate data resulting 
# from the CCDC's data processing and validation procedures.
#
#######################################################################

data_IJIWAA
_symmetry_cell_setting           monoclinic
_symmetry_space_group_name_H-M   'C 2/c'
_symmetry_Int_Tables_number      15
_space_group_name_Hall           '-C 2yn'
loop_
_symmetry_equiv_pos_site_id
_symmetry_equiv_pos_as_xyz
1 x,y,z
2 -x,y,1/2-z
3 1/2+x,1/2+y,z
4 1/2-x,1/2+y,1/2-z
5 -x,-y,-z
6 x,-y,1/2+z
7 1/2-x,1/2-y,-z
8 1/2+x,1/2-y,1/2+z
_cell_length_a                   28.835(4)
_cell_length_b                   5.4057(8)
_cell_length_c                   10.6425(16)
_cell_angle_alpha                90
_cell_angle_beta                 98.126(2)
_cell_angle_gamma                90
_cell_volume                     1642.23
loop_
_atom_site_label
_atom_site_type_symbol
_atom_site_fract_x
_atom_site_fract_y
_atom_site_fract_z
Co1 Co 0.0000 0.16787(6) 0.7500
O1 O 0.05242(5) 0.4611(3) 0.74548(12)
O2 O 0.03451(5) 0.2091(3) 0.58828(13)
O3 O 0.18305(5) 1.0014(3) 0.61283(14)
O4 O 0.04626(5) -0.0762(3) 0.84698(12)
H1 H 0.0494 -0.2161 0.8127
H2 H 0.0419 -0.1122 0.9221
C1 C 0.05869(7) 0.3883(4) 0.63762(18)
C2 C 0.09363(8) 0.5074(5) 0.5643(2)
H3 H 0.1135 0.3785 0.5375
H4 H 0.0766 0.5807 0.4882
C3 C 0.12459(8) 0.7026(4) 0.6324(2)
H5 H 0.1437 0.6303 0.7056
H6 H 0.1054 0.8315 0.6622
C4 C 0.15584(7) 0.8131(4) 0.5448(2)
H7 H 0.1761 0.6868 0.5174
H8 H 0.1371 0.8823 0.4703
C5 C 0.21584(7) 1.1201(4) 0.55206(19)
C6 C 0.24618(8) 1.2756(5) 0.6269(2)
H9 H 0.2437 1.2927 0.7126
C7 C 0.28037(8) 1.4066(4) 0.5754(2)
H10 H 0.3006 1.5115 0.6262
Co1F Co 0.5000 2.33213(6) 0.2500
O1F O 0.44758(5) 2.0389(3) 0.25452(12)
O1A O -0.05242(5) 0.4611(3) 0.75452(12)
O2F O 0.46549(5) 2.2909(3) 0.41172(13)
O2A O -0.03451(5) 0.2091(3) 0.91172(13)
O3F O 0.31695(5) 1.4986(3) 0.38717(14)
O4A O -0.04626(5) -0.0762(3) 0.65302(12)
H1A H -0.0494 -0.2161 0.6873
H2A H -0.0419 -0.1122 0.5779
C1F C 0.44131(7) 2.1117(4) 0.36238(18)
C2F C 0.40637(8) 1.9926(5) 0.4357(2)
H3F H 0.3865 2.1215 0.4625
H4F H 0.4234 1.9193 0.5118
C3F C 0.37541(8) 1.7974(4) 0.3676(2)
H5F H 0.3563 1.8697 0.2944
H6F H 0.3946 1.6685 0.3378
C4F C 0.34416(7) 1.6869(4) 0.4552(2)
H7F H 0.3239 1.8132 0.4826
H8F H 0.3629 1.6177 0.5297
C5F C 0.28416(7) 1.3799(4) 0.44794(19)
C6F C 0.25382(8) 1.2244(5) 0.3731(2)
H9F H 0.2563 1.2073 0.2874
C7F C 0.21963(8) 1.0934(4) 0.4246(2)
H10F H 0.1994 0.9885 0.3738
loop_
_geom_bond_atom_site_label_1
_geom_bond_atom_site_label_2
_geom_bond_site_symmetry_1
_geom_bond_site_symmetry_2
Co1 O1 1_555 1_555
O1 C1 1_555 1_555
O2 Co1 1_555 1_555
O3 C4 1_555 1_555
O4 Co1 1_555 1_555
H1 O4 1_555 1_555
H2 O4 1_555 1_555
C1 O2 1_555 1_555
C2 C1 1_555 1_555
H3 C2 1_555 1_555
H4 C2 1_555 1_555
C3 C2 1_555 1_555
H5 C3 1_555 1_555
H6 C3 1_555 1_555
C4 C3 1_555 1_555
H7 C4 1_555 1_555
H8 C4 1_555 1_555
C5 O3 1_555 1_555
C6 C5 1_555 1_555
H9 C6 1_555 1_555
C7 C6 1_555 1_555
H10 C7 1_555 1_555
Co1F O1F 1_555 1_555
O1F C1F 1_555 1_555
O1A Co1 1_555 1_555
O2F Co1F 1_555 1_555
O2A Co1 1_555 1_555
O3F C4F 1_555 1_555
O4A Co1 1_555 1_555
H1A O4A 1_555 1_555
H2A O4A 1_555 1_555
C1F O2F 1_555 1_555
C2F C1F 1_555 1_555
H3F C2F 1_555 1_555
H4F C2F 1_555 1_555
C3F C2F 1_555 1_555
H5F C3F 1_555 1_555
H6F C3F 1_555 1_555
C4F C3F 1_555 1_555
H7F C4F 1_555 1_555
H8F C4F 1_555 1_555
C5F C7 1_555 1_555
C6F C5F 1_555 1_555
H9F C6F 1_555 1_555
C7F C5 1_555 1_555
H10F C7F 1_555 1_555
O3F C5F 1_555 1_555
C6F C7F 1_555 1_555

#END
