
#######################################################################
#
#                 Cambridge Crystallographic Data Centre
#                                CCDC 
#
#######################################################################
#
# If this CIF has been generated from an entry in the Cambridge 
# Structural Database, then it will include bibliographic, chemical, 
# crystal, experimental, refinement or atomic coordinate data resulting 
# from the CCDC's data processing and validation procedures.
#
#######################################################################

data_IJIYOQ
_symmetry_cell_setting           monoclinic
_symmetry_space_group_name_H-M   'P 21/c'
_symmetry_Int_Tables_number      14
_space_group_name_Hall           '-P 2ybc'
loop_
_symmetry_equiv_pos_site_id
_symmetry_equiv_pos_as_xyz
1 x,y,z
2 -x,1/2+y,1/2-z
3 -x,-y,-z
4 x,1/2-y,1/2+z
_cell_length_a                   11.6943(9)
_cell_length_b                   4.5392(4)
_cell_length_c                   14.1636(12)
_cell_angle_alpha                90
_cell_angle_beta                 90.046(2)
_cell_angle_gamma                90
_cell_volume                     751.843
loop_
_atom_site_label
_atom_site_type_symbol
_atom_site_fract_x
_atom_site_fract_y
_atom_site_fract_z
Pb1 Pb 0.60762(4) 0.01636(10) 0.85892(3)
O1 O 0.3993(6) -0.1600(19) 0.9409(4)
O2 O 0.4619(7) -0.380(2) 0.8117(5)
O3 O 0.3095(9) -0.561(2) 1.0894(6)
O4 O 0.1778(6) -0.2137(17) 1.0706(4)
N1 N 0.2563(6) -0.6315(19) 0.7830(5)
C1 C 0.2792(12) -0.5178(18) 0.8679(9)
C2 C 0.2049(11) -0.558(3) 0.9474(9)
C3 C 0.1068(8) -0.716(2) 0.9285(6)
C4 C 0.0808(9) -0.825(3) 0.8397(7)
C5 C 0.1617(9) -0.788(3) 0.7700(6)
C6 C 0.3859(8) -0.337(3) 0.8769(6)
C7 C 0.2313(9) -0.432(2) 1.0420(7)
H1 H 0.05590 -0.75180 0.97760
H2 H 0.01180 -0.91980 0.82770
H3 H 0.14940 -0.87490 0.71150
Pb1B Pb 0.39238(4) -0.01636(10) 1.14108(3)
Pb1A Pb 0.39238(4) -0.48364(10) 0.64108(3)
Pb1B_2 Pb 0.39238(4) -1.01636(10) 1.14108(3)
O1B O 0.6007(6) 0.1600(19) 1.0591(4)
O2A O 0.5381(7) 0.120(2) 0.6883(5)
O3B O 0.6905(9) -0.439(2) 0.9106(6)
O3B_2 O 0.6905(9) 0.561(2) 0.9106(6)
O4B O 0.8222(6) 0.2137(17) 0.9294(4)
N1A N 0.7437(6) -0.1315(19) 0.7170(5)
loop_
_geom_bond_atom_site_label_1
_geom_bond_atom_site_label_2
_geom_bond_site_symmetry_1
_geom_bond_site_symmetry_2
Pb1 O1 1_555 1_555
O1 C6 1_555 1_555
O2 Pb1 1_555 1_555
O3 C7 1_555 1_555
O4 C7 1_555 1_555
N1 C1 1_555 1_555
C1 C2 1_555 1_555
C2 C3 1_555 1_555
C3 C4 1_555 1_555
C4 C5 1_555 1_555
C5 N1 1_555 1_555
C6 O2 1_555 1_555
C7 C2 1_555 1_555
H1 C3 1_555 1_555
H2 C4 1_555 1_555
H3 C5 1_555 1_555
Pb1B O1 1_555 1_555
Pb1A O2 1_555 1_555
Pb1B_2 O3 1_555 1_555
O1B Pb1 1_555 1_555
O2A Pb1 1_555 1_555
O3B Pb1 1_555 1_555
O3B_2 Pb1 1_555 1_555
O4B Pb1 1_555 1_555
N1A Pb1 1_555 1_555
O3 Pb1B 1_555 1_555
O4 Pb1B 1_555 1_555
N1 Pb1A 1_555 1_555
C1 C6 1_555 1_555
Pb1B O1B 1_555 1_555

#END
