
#######################################################################
#
#                 Cambridge Crystallographic Data Centre
#                                CCDC 
#
#######################################################################
#
# If this CIF has been generated from an entry in the Cambridge 
# Structural Database, then it will include bibliographic, chemical, 
# crystal, experimental, refinement or atomic coordinate data resulting 
# from the CCDC's data processing and validation procedures.
#
#######################################################################

data_IJIYUW
_symmetry_cell_setting           triclinic
_symmetry_space_group_name_H-M   'P -1'
_symmetry_Int_Tables_number      2
_space_group_name_Hall           '-P 1'
loop_
_symmetry_equiv_pos_site_id
_symmetry_equiv_pos_as_xyz
1 x,y,z
2 -x,-y,-z
_cell_length_a                   12.6167(14)
_cell_length_b                   12.6183(14)
_cell_length_c                   13.5274(15)
_cell_angle_alpha                74.801(2)
_cell_angle_beta                 69.388(2)
_cell_angle_gamma                85.582(2)
_cell_volume                     1944.93
loop_
_atom_site_label
_atom_site_type_symbol
_atom_site_fract_x
_atom_site_fract_y
_atom_site_fract_z
Mn1 Mn 0.77799(3) 0.67916(3) 0.73266(3)
Cl1 Cl 0.96491(6) 0.77037(6) 0.59685(5)
O1 O 0.8288(2) -0.10963(14) 0.97544(16)
O2 O 0.67208(19) 1.45186(14) 0.49834(14)
O3 O 0.60727(16) 0.60189(14) 0.84342(14)
N1 N 0.83399(18) 1.64559(16) -0.12340(16)
N2 N 0.83490(17) 1.59740(15) 0.04514(15)
N3 N 0.65781(17) 1.01475(15) 0.72708(16)
N4 N 0.69914(18) 0.83954(15) 0.76500(16)
N5 N 0.83206(16) 0.50934(15) 0.71176(15)
N6 N 0.85574(16) 0.33001(15) 0.74462(15)
N7 N 0.71164(18) -0.29343(16) 1.59221(16)
N8 N 0.69930(17) -0.24606(16) 1.42776(16)
C1 C 0.9383(2) 1.6657(2) -0.1235(2)
C2 C 0.7740(2) 1.6045(2) -0.0203(2)
C3 C 0.9399(2) 1.6361(3) -0.0219(2)
C4 C 0.6801(2) 1.5476(2) 0.2179(2)
C5 C 0.7940(2) 1.55776(18) 0.16115(19)
C6 C 0.8683(3) 1.5293(3) 0.2169(2)
C7 C 0.8280(3) 1.4919(3) 0.3293(2)
C8 C 0.7149(3) 1.48293(19) 0.3842(2)
C9 C 0.6396(3) 1.5097(2) 0.3302(2)
C10 C 0.6700(2) 1.34167(18) 0.54990(19)
C11 C 0.6346(2) 1.31692(19) 0.66134(19)
C12 C 0.6999(2) 1.2599(2) 0.4957(2)
C13 C 0.6945(2) 1.1517(2) 0.5548(2)
C14 C 0.63090(19) 1.20996(18) 0.72022(19)
C15 C 0.66031(19) 1.12626(18) 0.66690(19)
C16 C 0.5957(2) 0.9700(2) 0.8342(2)
C17 C 0.6216(3) 0.8632(2) 0.8561(2)
C18 C 0.7187(2) 0.93270(19) 0.6901(2)
C19 C 0.8186(2) 0.41719(19) 0.78742(19)
C20 C 0.8798(2) 0.4799(2) 0.6154(2)
C21 C 0.8948(2) 0.3713(2) 0.6331(2)
C22 C 0.84856(19) 0.21715(18) 0.80412(19)
C23 C 0.7961(3) 0.1899(2) 0.9157(2)
C24 C 0.7895(3) 0.0817(2) 0.9744(2)
C25 C 0.8900(2) 0.13555(19) 0.7517(2)
C26 C 0.8822(2) 0.0267(2) 0.8120(2)
C27 C 0.8334(2) 0.0012(2) 0.9223(2)
C28 C 0.7946(3) -0.1378(2) 1.0886(2)
C29 C 0.8731(3) -0.1478(4) 1.1373(3)
C30 C 0.6857(3) -0.1647(3) 1.1507(3)
C31 C 0.6537(3) -0.1984(3) 1.2625(3)
C32 C 0.8403(3) -0.1825(4) 1.2488(3)
C33 C 0.7314(2) -0.20775(19) 1.3121(2)
C34 C 0.5980(2) -0.2919(3) 1.5001(3)
C35 C 0.7643(2) -0.2506(2) 1.4885(2)
C36 C 0.6072(2) -0.3191(3) 1.5991(2)
H1 H 0.99960 1.69570 -0.18530
H2 H 0.69830 1.58280 0.00450
H3 H 1.00170 1.64100 -0.00090
H4 H 0.563(2) 0.622(2) 0.8997(19)
H5 H 0.598(3) 0.5332(15) 0.853(2)
H6 H 0.62940 1.56650 0.18050
H7 H 0.94590 1.53510 0.17900
H8 H 0.87840 1.47300 0.36710
H9 H 0.56210 1.50250 0.36840
H10 H 0.61310 1.37280 0.69730
H11 H 0.72360 1.27710 0.42000
H12 H 0.71400 1.09580 0.51870
H13 H 0.60870 1.19350 0.79590
H14 H 0.54520 1.00650 0.88260
H15 H 0.59120 0.81280 0.92320
H16 H 0.76920 0.94090 0.61910
H17 H 0.78720 0.41230 0.86190
H18 H 0.89910 0.52870 0.54670
H19 H 0.92550 0.33170 0.58070
H20 H 0.76510 0.24460 0.95170
H21 H 0.75490 0.06380 1.04990
H22 H 0.92330 0.15280 0.67610
H23 H 0.91060 -0.02870 0.77650
H24 H 0.94890 -0.13140 1.09540
H25 H 0.63170 -0.16050 1.11760
H26 H 0.57800 -0.21480 1.30440
H27 H 0.89470 -0.18870 1.28170
H28 H 0.53450 -0.30220 1.48370
H29 H 0.83920 -0.22590 1.45970
H30 H 0.54970 -0.35110 1.66360
Mn1_2 Mn 0.77799(3) -0.32084(3) 1.73266(3)
Mn1_3 Mn 0.77799(3) 1.67916(3) -0.26734(3)
N1_2 N 0.83399(18) 0.64559(16) 0.87660(16)
N7_2 N 0.71164(18) 0.70657(16) 0.59221(16)
O4 O 0.7709(4) 0.3324(4) 0.0926(4)
N9 N 0.6951(4) 0.1770(4) 0.2291(4)
C37 C 0.8015(5) 0.1377(5) 0.2378(5)
C38 C 0.5998(6) 0.1098(5) 0.3003(5)
C39 C 0.6847(6) 0.2690(5) 0.1628(5)
H31 H 0.85450 0.13770 0.16660
H32 H 0.79180 0.06440 0.28380
H33 H 0.82970 0.18470 0.26880
H34 H 0.53170 0.14790 0.29720
H35 H 0.60040 0.09310 0.37350
H36 H 0.60270 0.04280 0.27840
H37 H 0.61220 0.29140 0.16490
O5 O 0.0859(3) 1.0060(3) 0.5680(3)
H38 H 0.020(3) 1.036(4) 0.569(5)
H39 H 0.075(4) 0.9290(15) 0.588(5)
Cl2 Cl 0.53260(6) 0.35717(5) 0.92795(5)
loop_
_geom_bond_atom_site_label_1
_geom_bond_atom_site_label_2
_geom_bond_site_symmetry_1
_geom_bond_site_symmetry_2
Mn1 Cl1 1_555 1_555
O1 C27 1_555 1_555
O2 C8 1_555 1_555
O3 Mn1 1_555 1_555
N1 C1 1_555 1_555
N2 C2 1_555 1_555
N3 C15 1_555 1_555
N4 Mn1 1_555 1_555
N5 Mn1 1_555 1_555
N6 C19 1_555 1_555
N7 C35 1_555 1_555
N8 C33 1_555 1_555
C1 C3 1_555 1_555
C2 N1 1_555 1_555
C3 N2 1_555 1_555
C4 C5 1_555 1_555
C5 N2 1_555 1_555
C6 C5 1_555 1_555
C7 C6 1_555 1_555
C8 C7 1_555 1_555
C9 C4 1_555 1_555
C10 O2 1_555 1_555
C11 C10 1_555 1_555
C12 C10 1_555 1_555
C13 C12 1_555 1_555
C14 C11 1_555 1_555
C15 C13 1_555 1_555
C16 N3 1_555 1_555
C17 N4 1_555 1_555
C18 N3 1_555 1_555
C19 N5 1_555 1_555
C20 N5 1_555 1_555
C21 N6 1_555 1_555
C22 N6 1_555 1_555
C23 C22 1_555 1_555
C24 C23 1_555 1_555
C25 C22 1_555 1_555
C26 C25 1_555 1_555
C27 C24 1_555 1_555
C28 O1 1_555 1_555
C29 C28 1_555 1_555
C30 C28 1_555 1_555
C31 C30 1_555 1_555
C32 C29 1_555 1_555
C33 C31 1_555 1_555
C34 N8 1_555 1_555
C35 N8 1_555 1_555
C36 N7 1_555 1_555
O4 C39 1_555 1_555
N9 C37 1_555 1_555
C37 H31 1_555 1_555
C38 N9 1_555 1_555
C39 N9 1_555 1_555
O5 H38 1_555 1_555
H1 C1 1_555 1_555
H2 C2 1_555 1_555
H3 C3 1_555 1_555
H4 O3 1_555 1_555
H5 O3 1_555 1_555
H6 C4 1_555 1_555
H7 C6 1_555 1_555
H8 C7 1_555 1_555
H9 C9 1_555 1_555
H10 C11 1_555 1_555
H11 C12 1_555 1_555
H12 C13 1_555 1_555
H13 C14 1_555 1_555
H14 C16 1_555 1_555
H15 C17 1_555 1_555
H16 C18 1_555 1_555
H17 C19 1_555 1_555
H18 C20 1_555 1_555
H19 C21 1_555 1_555
H20 C23 1_555 1_555
H21 C24 1_555 1_555
H22 C25 1_555 1_555
H23 C26 1_555 1_555
H24 C29 1_555 1_555
H25 C30 1_555 1_555
H26 C31 1_555 1_555
H27 C32 1_555 1_555
H28 C34 1_555 1_555
H29 C35 1_555 1_555
H30 C36 1_555 1_555
H32 C37 1_555 1_555
H33 C37 1_555 1_555
H34 C38 1_555 1_555
H35 C38 1_555 1_555
H36 C38 1_555 1_555
H37 C39 1_555 1_555
H39 O5 1_555 1_555
Mn1_2 N7 1_555 1_555
Mn1_3 N1 1_555 1_555
N1_2 Mn1 1_555 1_555
N7_2 Mn1 1_555 1_555
N4 C18 1_555 1_555
C8 C9 1_555 1_555
C14 C15 1_555 1_555
C16 C17 1_555 1_555
C20 C21 1_555 1_555
C26 C27 1_555 1_555
C32 C33 1_555 1_555
C34 C36 1_555 1_555

#END
