
#######################################################################
#
#                 Cambridge Crystallographic Data Centre
#                                CCDC 
#
#######################################################################
#
# If this CIF has been generated from an entry in the Cambridge 
# Structural Database, then it will include bibliographic, chemical, 
# crystal, experimental, refinement or atomic coordinate data resulting 
# from the CCDC's data processing and validation procedures.
#
#######################################################################

data_IJIZUX
_symmetry_cell_setting           orthorhombic
_symmetry_space_group_name_H-M   'P 21 21 21'
_symmetry_Int_Tables_number      19
_space_group_name_Hall           'P 2ac 2ab'
loop_
_symmetry_equiv_pos_site_id
_symmetry_equiv_pos_as_xyz
1 x,y,z
2 1/2-x,-y,1/2+z
3 -x,1/2+y,1/2-z
4 1/2+x,1/2-y,-z
_cell_length_a                   14.12(2)
_cell_length_b                   15.44(2)
_cell_length_c                   21.25(3)
_cell_angle_alpha                90
_cell_angle_beta                 90
_cell_angle_gamma                90
_cell_volume                     4632.77
loop_
_atom_site_label
_atom_site_type_symbol
_atom_site_fract_x
_atom_site_fract_y
_atom_site_fract_z
Cu1 Cu 0.25158(5) 0.08464(4) 0.09864(3)
Cu2 Cu 0.00319(5) 0.39015(4) 0.11651(3)
O1 O 0.3151(3) -0.0237(3) 0.1022(2)
O2 O 0.1746(2) 0.1914(2) 0.11032(19)
O3 O 0.0238(3) 0.2396(3) 0.1001(2)
O4 O 0.5751(3) 0.0953(3) -0.1923(2)
O5 O 0.4182(2) 0.1018(3) -0.04239(17)
O6 O 0.2651(3) 0.1160(3) -0.01337(19)
N1 N 0.1280(3) 0.0283(3) 0.0830(2)
N2 N 0.3845(3) 0.1268(3) -0.1645(2)
N3 N 0.1192(3) 0.4188(3) 0.0654(2)
N4 N 0.1979(3) 0.3673(3) 0.0691(2)
H3 H 0.2001 0.3200 0.0904
N5 N 0.3720(3) 0.1457(3) 0.1255(3)
N6 N 0.4471(3) 0.1506(3) 0.0852(2)
H4 H 0.4478 0.1298 0.0476
C1 C 0.2882(5) -0.0935(5) 0.0706(3)
C2 C 0.3572(5) -0.1620(6) 0.0619(4)
H5 H 0.4172 -0.1566 0.0795
C3 C 0.3344(7) -0.2360(6) 0.0273(6)
H6 H 0.3806 -0.2783 0.0219
C4 C 0.2467(8) -0.2491(6) 0.0009(5)
H7 H 0.2342 -0.2984 -0.0228
C5 C 0.1762(6) -0.1862(5) 0.0105(4)
H8 H 0.1161 -0.1959 -0.0059
C6 C 0.1934(5) -0.1082(4) 0.0445(3)
C7 C 0.1147(4) -0.0466(4) 0.0553(3)
C8 C 0.0473(4) 0.0867(4) 0.0983(3)
H9 H 0.0013 0.0834 0.0639
C9 C 0.0830(4) 0.1800(4) 0.1027(3)
C10 C -0.0032(5) 0.0571(4) 0.1607(3)
H10 H -0.0113 -0.0058 0.1580
C11 C 0.0586(5) 0.0748(5) 0.2189(3)
H11 H 0.0705 0.1358 0.2223
H12 H 0.1177 0.0445 0.2147
H13 H 0.0263 0.0550 0.2559
C12 C -0.1034(4) 0.0967(5) 0.1674(4)
H14 H -0.1301 0.0800 0.2072
H15 H -0.1430 0.0759 0.1340
H16 H -0.0992 0.1587 0.1653
C13 C 0.0147(4) -0.0743(4) 0.0329(3)
H17 H -0.0319 -0.0367 0.0511
H18 H 0.0027 -0.1329 0.0458
H19 H 0.0114 -0.0706 -0.0122
C14 C 0.5568(5) 0.1413(5) -0.2436(3)
C15 C 0.6329(5) 0.1566(5) -0.2870(4)
H20 H 0.6914 0.1310 -0.2792
C16 C 0.6225(7) 0.2081(6) -0.3399(4)
H21 H 0.6747 0.2188 -0.3654
C17 C 0.5353(7) 0.2443(6) -0.3556(4)
H22 H 0.5280 0.2786 -0.3912
C18 C 0.4598(5) 0.2268(5) -0.3158(4)
H23 H 0.4014 0.2508 -0.3261
C19 C 0.4645(5) 0.1746(4) -0.2598(3)
C20 C 0.3776(5) 0.1583(4) -0.2217(3)
C21 C 0.2810(4) 0.1801(5) -0.2517(3)
H24 H 0.2313 0.1538 -0.2275
H25 H 0.2792 0.1583 -0.2940
H26 H 0.2724 0.2418 -0.2522
C22 C 0.2981(4) 0.1092(4) -0.1250(3)
H27 H 0.2518 0.1554 -0.1322
C23 C 0.3272(4) 0.1096(4) -0.0544(3)
C24 C 0.2522(5) 0.0202(4) -0.1436(3)
H28 H 0.2502 0.0182 -0.1896
C25 C 0.3118(5) -0.0574(5) -0.1217(4)
H29 H 0.3756 -0.0508 -0.1364
H30 H 0.2854 -0.1098 -0.1385
H31 H 0.3115 -0.0600 -0.0766
C26 C 0.1487(5) 0.0140(5) -0.1202(4)
H32 H 0.1239 -0.0423 -0.1298
H33 H 0.1111 0.0575 -0.1407
H34 H 0.1470 0.0231 -0.0755
C27 C 0.3314(5) 0.1887(6) 0.2353(3)
H35 H 0.2788 0.2261 0.2263
H36 H 0.3655 0.2107 0.2710
H37 H 0.3085 0.1316 0.2445
C28 C 0.3973(5) 0.1852(5) 0.1781(3)
C29 C 0.4918(5) 0.2168(5) 0.1726(3)
H38 H 0.5264 0.2470 0.2027
C30 C 0.5211(4) 0.1931(4) 0.1128(4)
C31 C 0.6134(5) 0.2107(6) 0.0764(4)
H39 H 0.6236 0.2720 0.0735
H40 H 0.6087 0.1866 0.0349
H41 H 0.6656 0.1844 0.0982
C32 C 0.0749(6) 0.5596(5) 0.0159(5)
H42 H 0.0122 0.5356 0.0136
H43 H 0.0905 0.5862 -0.0236
H44 H 0.0773 0.6023 0.0487
C33 C 0.1462(5) 0.4871(5) 0.0302(4)
C34 C 0.2404(5) 0.4760(5) 0.0111(4)
H45 H 0.2756 0.5138 -0.0137
C35 C 0.2713(5) 0.3982(5) 0.0360(4)
C36 C 0.3655(5) 0.3518(5) 0.0341(5)
H46 H 0.3769 0.3244 0.0740
H47 H 0.4150 0.3927 0.0256
H48 H 0.3644 0.3086 0.0016
Cu2C Cu 0.50319(5) 0.10985(4) -0.11651(3)
O4C O 0.0751(3) 0.4047(3) 0.1923(2)
O5C O -0.0818(2) 0.3982(3) 0.04239(17)
N2C N -0.1155(3) 0.3732(3) 0.1645(2)
O7 O 0.4396(9) 0.9321(8) 0.2125(4)
H1 H 0.4058 0.9581 0.1874
C38 C 0.5428(9) 0.9492(12) 0.1950(9)
H52 H 0.5767 0.9684 0.2316
H53 H 0.5455 0.9932 0.1631
H54 H 0.5709 0.8969 0.1794
O8 O 0.2448(12) 0.5282(14) 0.1852(6)
H2 H 0.1976 0.4942 0.1873
C37 C 0.3268(13) 0.5866(11) 0.1693(9)
H49 H 0.3451 0.5776 0.1263
H50 H 0.3793 0.5735 0.1964
H51 H 0.3083 0.6459 0.1751
loop_
_geom_bond_atom_site_label_1
_geom_bond_atom_site_label_2
_geom_bond_site_symmetry_1
_geom_bond_site_symmetry_2
Cu1 O1 1_555 1_555
Cu2 O3 1_555 1_555
O1 C1 1_555 1_555
O2 Cu1 1_555 1_555
O3 C9 1_555 1_555
O4 C14 1_555 1_555
O5 C23 1_555 1_555
O6 Cu1 1_555 1_555
O7 H1 1_555 1_555
O8 H2 1_555 1_555
N1 Cu1 1_555 1_555
N2 C20 1_555 1_555
N3 Cu2 1_555 1_555
N4 N3 1_555 1_555
H3 N4 1_555 1_555
N5 Cu1 1_555 1_555
N6 N5 1_555 1_555
H4 N6 1_555 1_555
C1 C2 1_555 1_555
C2 H5 1_555 1_555
C3 C2 1_555 1_555
H6 C3 1_555 1_555
C4 C3 1_555 1_555
H7 C4 1_555 1_555
C5 C4 1_555 1_555
H8 C5 1_555 1_555
C6 C1 1_555 1_555
C7 N1 1_555 1_555
C8 N1 1_555 1_555
H9 C8 1_555 1_555
C9 O2 1_555 1_555
C10 C8 1_555 1_555
H10 C10 1_555 1_555
C11 C10 1_555 1_555
H11 C11 1_555 1_555
H12 C11 1_555 1_555
H13 C11 1_555 1_555
C12 C10 1_555 1_555
H14 C12 1_555 1_555
H15 C12 1_555 1_555
H16 C12 1_555 1_555
C13 C7 1_555 1_555
H17 C13 1_555 1_555
H18 C13 1_555 1_555
H19 C13 1_555 1_555
C14 C15 1_555 1_555
C15 H20 1_555 1_555
C16 C15 1_555 1_555
H21 C16 1_555 1_555
C17 C16 1_555 1_555
H22 C17 1_555 1_555
C18 C17 1_555 1_555
H23 C18 1_555 1_555
C19 C14 1_555 1_555
C20 C19 1_555 1_555
C21 C20 1_555 1_555
H24 C21 1_555 1_555
H25 C21 1_555 1_555
H26 C21 1_555 1_555
C22 N2 1_555 1_555
H27 C22 1_555 1_555
C23 O6 1_555 1_555
C24 C22 1_555 1_555
H28 C24 1_555 1_555
C25 C24 1_555 1_555
H29 C25 1_555 1_555
H30 C25 1_555 1_555
H31 C25 1_555 1_555
C26 C24 1_555 1_555
H32 C26 1_555 1_555
H33 C26 1_555 1_555
H34 C26 1_555 1_555
C27 H35 1_555 1_555
H36 C27 1_555 1_555
H37 C27 1_555 1_555
C28 N5 1_555 1_555
C29 C28 1_555 1_555
H38 C29 1_555 1_555
C30 N6 1_555 1_555
C31 C30 1_555 1_555
H39 C31 1_555 1_555
H40 C31 1_555 1_555
H41 C31 1_555 1_555
C32 H42 1_555 1_555
H43 C32 1_555 1_555
H44 C32 1_555 1_555
C33 N3 1_555 1_555
C34 C33 1_555 1_555
H45 C34 1_555 1_555
C35 N4 1_555 1_555
C36 C35 1_555 1_555
H46 C36 1_555 1_555
H47 C36 1_555 1_555
H48 C36 1_555 1_555
C37 O8 1_555 1_555
H49 C37 1_555 1_555
H50 C37 1_555 1_555
H51 C37 1_555 1_555
C38 O7 1_555 1_555
H52 C38 1_555 1_555
H53 C38 1_555 1_555
H54 C38 1_555 1_555
Cu2C O4 1_555 1_555
O4C Cu2 1_555 1_555
O5C Cu2 1_555 1_555
N2C Cu2 1_555 1_555
O5 Cu2C 1_555 1_555
N2 Cu2C 1_555 1_555
C5 C6 1_555 1_555
C6 C7 1_555 1_555
C8 C9 1_555 1_555
C18 C19 1_555 1_555
C22 C23 1_555 1_555
C27 C28 1_555 1_555
C29 C30 1_555 1_555
C32 C33 1_555 1_555
C34 C35 1_555 1_555

#END
