
#######################################################################
#
#                 Cambridge Crystallographic Data Centre
#                                CCDC 
#
#######################################################################
#
# If this CIF has been generated from an entry in the Cambridge 
# Structural Database, then it will include bibliographic, chemical, 
# crystal, experimental, refinement or atomic coordinate data resulting 
# from the CCDC's data processing and validation procedures.
#
#######################################################################

data_IJOCUG
_symmetry_cell_setting           monoclinic
_symmetry_space_group_name_H-M   'P 21/c'
_symmetry_Int_Tables_number      14
_space_group_name_Hall           '-P 2ybc'
loop_
_symmetry_equiv_pos_site_id
_symmetry_equiv_pos_as_xyz
1 x,y,z
2 -x,1/2+y,1/2-z
3 -x,-y,-z
4 x,1/2-y,1/2+z
_cell_length_a                   7.3327(4)
_cell_length_b                   17.3786(9)
_cell_length_c                   13.3859(7)
_cell_angle_alpha                90
_cell_angle_beta                 98.149(2)
_cell_angle_gamma                90
_cell_volume                     1688.57
loop_
_atom_site_label
_atom_site_type_symbol
_atom_site_fract_x
_atom_site_fract_y
_atom_site_fract_z
Cd1 Cd 0.285437(18) 0.580935(8) 0.487418(10)
C1 C 0.7094(3) 0.77702(15) 0.51077(19)
H1 H 0.8100 0.7885 0.4782
O1 O 0.0364(2) 0.58252(8) 0.36403(11)
O2 O -0.5668(2) 0.58687(9) 0.34228(12)
O3 O -0.17615(18) 0.53099(8) 0.44813(10)
O4 O -0.5555(2) 0.46627(10) 0.39678(11)
C2 C -0.3977(3) 0.49745(11) 0.25949(14)
N1 N 0.1434(2) 0.65808(10) 0.60339(13)
C3 C -0.1086(2) 0.54537(11) 0.36940(14)
N2 N -0.0788(3) 0.42256(11) 0.03958(15)
C4 C -0.2082(2) 0.51311(11) 0.27149(13)
N3 N 0.4489(3) 0.69724(10) 0.52417(14)
C5 C -0.1054(3) 0.49169(11) 0.19624(14)
H2 H 0.0194 0.5034 0.2021
C6 C -0.1915(3) 0.45283(13) 0.11304(15)
C7 C 0.2403(3) 0.71869(12) 0.64530(15)
C8 C -0.3784(3) 0.43823(15) 0.09862(17)
H3 H -0.4336 0.4131 0.0407
C9 C -0.4821(3) 0.46153(14) 0.17168(16)
H4 H -0.6086 0.4532 0.1623
C10 C 0.0198(4) 0.73882(15) 0.75846(19)
H5 H -0.0202 0.7655 0.8115
C11 C -0.0804(3) 0.67790(14) 0.71452(18)
H6 H -0.1898 0.6630 0.7365
C12 C -0.0145(3) 0.63920(12) 0.63669(16)
H7 H -0.0828 0.5983 0.6062
C13 C 0.1801(4) 0.76022(14) 0.72341(18)
H8 H 0.2477 0.8021 0.7517
O5 O 0.0883(3) 0.42916(11) 0.05737(14)
C14 C -0.5143(2) 0.51850(12) 0.33931(14)
C15 C 0.4092(3) 0.74003(12) 0.60168(16)
O6 O -0.1566(3) 0.39232(16) -0.03689(18)
C16 C 0.5195(3) 0.80256(13) 0.63640(18)
H9 H 0.4917 0.8317 0.6905
C17 C 0.5963(3) 0.71551(14) 0.48055(19)
H10 H 0.6238 0.6853 0.4273
C18 C 0.6697(3) 0.82089(14) 0.5902(2)
H11 H 0.7437 0.8627 0.6125
Cd1_2 Cd -0.714563(18) 0.580935(8) 0.487418(10)
Cd1B Cd -0.285437(18) 0.419065(8) 0.512582(10)
O2_2 O 0.4332(2) 0.58687(9) 0.34228(12)
O3B O 0.17615(18) 0.46901(8) 0.55187(10)
O4B O 0.5555(2) 0.53373(10) 0.60322(11)
loop_
_geom_bond_atom_site_label_1
_geom_bond_atom_site_label_2
_geom_bond_site_symmetry_1
_geom_bond_site_symmetry_2
Cd1 O1 1_555 1_555
C1 H1 1_555 1_555
O1 C3 1_555 1_555
O2 C14 1_555 1_555
O3 C3 1_555 1_555
O4 C14 1_555 1_555
C2 C4 1_555 1_555
N1 Cd1 1_555 1_555
C3 C4 1_555 1_555
N2 C6 1_555 1_555
C4 C5 1_555 1_555
N3 Cd1 1_555 1_555
C5 H2 1_555 1_555
C6 C5 1_555 1_555
C7 N1 1_555 1_555
C8 C6 1_555 1_555
H3 C8 1_555 1_555
C9 C2 1_555 1_555
H4 C9 1_555 1_555
C10 H5 1_555 1_555
C11 C10 1_555 1_555
H6 C11 1_555 1_555
C12 N1 1_555 1_555
H7 C12 1_555 1_555
C13 C7 1_555 1_555
H8 C13 1_555 1_555
O5 N2 1_555 1_555
C14 C2 1_555 1_555
C15 N3 1_555 1_555
O6 N2 1_555 1_555
C16 C15 1_555 1_555
H9 C16 1_555 1_555
C17 C1 1_555 1_555
H10 C17 1_555 1_555
C18 C1 1_555 1_555
H11 C18 1_555 1_555
Cd1_2 O2 1_555 1_555
Cd1B O3 1_555 1_555
O2_2 Cd1 1_555 1_555
O3B Cd1 1_555 1_555
O4B Cd1 1_555 1_555
O4 Cd1B 1_555 1_555
N3 C17 1_555 1_555
C7 C15 1_555 1_555
C8 C9 1_555 1_555
C10 C13 1_555 1_555
C11 C12 1_555 1_555
C16 C18 1_555 1_555

#END
