
#######################################################################
#
#                 Cambridge Crystallographic Data Centre
#                                CCDC 
#
#######################################################################
#
# If this CIF has been generated from an entry in the Cambridge 
# Structural Database, then it will include bibliographic, chemical, 
# crystal, experimental, refinement or atomic coordinate data resulting 
# from the CCDC's data processing and validation procedures.
#
#######################################################################

data_IJOMAW
_symmetry_cell_setting           orthorhombic
_symmetry_space_group_name_H-M   'P b c a'
_symmetry_Int_Tables_number      61
_space_group_name_Hall           '-P 2ac 2ab'
loop_
_symmetry_equiv_pos_site_id
_symmetry_equiv_pos_as_xyz
1 x,y,z
2 1/2-x,-y,1/2+z
3 1/2+x,1/2-y,-z
4 -x,1/2+y,1/2-z
5 -x,-y,-z
6 1/2+x,y,1/2-z
7 1/2-x,1/2+y,z
8 x,1/2-y,1/2+z
_cell_length_a                   6.6181(7)
_cell_length_b                   11.8477(11)
_cell_length_c                   22.386(2)
_cell_angle_alpha                90
_cell_angle_beta                 90
_cell_angle_gamma                90
_cell_volume                     1755.27
loop_
_atom_site_label
_atom_site_type_symbol
_atom_site_fract_x
_atom_site_fract_y
_atom_site_fract_z
Ag1 Ag 0.10659(6) 0.25916(4) 0.431564(16)
Ag2 Ag 0.72008(6) 0.65476(4) 0.203580(16)
Ag3 Ag 0.57985(6) 0.82800(4) 0.283750(16)
C1 C 0.7295(7) 0.5962(4) 0.33652(19)
C2 C 0.4709(7) 0.3885(4) 0.3454(2)
C3 C 0.5610(7) 0.4467(4) 0.39995(19)
C4 C 0.7567(7) 0.5110(4) 0.38916(18)
C5 C 0.8155(7) 0.5769(4) 0.44573(19)
C6 C 1.0229(7) 0.6305(4) 0.4444(2)
O1 O 0.5862(5) 0.6651(3) 0.34287(14)
O2 O 0.8489(5) 0.5926(3) 0.29317(14)
O3 O 0.3092(5) 0.3355(3) 0.35141(15)
O4 O 0.5631(5) 0.3974(3) 0.29684(14)
O5 O 0.9113(5) 0.4296(3) 0.37668(14)
O6 O 1.0678(5) 0.7019(3) 0.48333(15)
O7 O 1.1480(5) 0.6006(3) 0.40461(15)
H1 H 0.4617 0.4990 0.4157
H2 H 0.5856 0.3900 0.4304
H3 H 0.7161 0.6359 0.4522
H4 H 0.8089 0.5260 0.4796
H5 H 1.012(5) 0.468(4) 0.379(2)
Ag1D Ag 0.89341(6) 0.74084(4) 0.568436(16)
Ag1F Ag 1.39341(6) 0.75916(4) 0.431564(16)
Ag2E Ag 1.22008(6) 0.65476(4) 0.296420(16)
Ag2C Ag 0.27992(6) 0.15476(4) 0.296420(16)
Ag3C Ag 0.42015(6) 0.32800(4) 0.216250(16)
Ag3F Ag 0.92015(6) 0.32800(4) 0.283750(16)
O2E O 0.3489(5) 0.5926(3) 0.20683(14)
O3C O 0.6908(5) 0.8355(3) 0.14859(15)
O4C O 0.4369(5) 0.8974(3) 0.20316(14)
O4F O 0.9369(5) 0.8974(3) 0.29684(14)
O5F O 0.5887(5) 0.9296(3) 0.37668(14)
O6D O -0.0678(5) 0.2981(3) 0.51667(15)
O6F O 0.4322(5) 0.2019(3) 0.48333(15)
O7F O 0.3520(5) 0.1006(3) 0.40461(15)
O7E O 0.6480(5) 0.6006(3) 0.09539(15)
H5F H 0.488(5) 0.968(4) 0.379(2)
loop_
_geom_bond_atom_site_label_1
_geom_bond_atom_site_label_2
_geom_bond_site_symmetry_1
_geom_bond_site_symmetry_2
Ag1 O3 1_555 1_555
Ag2 O2 1_555 1_555
Ag3 O1 1_555 1_555
C1 C4 1_555 1_555
C2 C3 1_555 1_555
C3 C4 1_555 1_555
C4 C5 1_555 1_555
C5 C6 1_555 1_555
C6 O6 1_555 1_555
O1 C1 1_555 1_555
O2 C1 1_555 1_555
O3 C2 1_555 1_555
O4 C2 1_555 1_555
O5 C4 1_555 1_555
O6 Ag1D 1_555 1_555
O7 C6 1_555 1_555
H1 C3 1_555 1_555
H2 C3 1_555 1_555
H3 C5 1_555 1_555
H4 C5 1_555 1_555
H5 O5 1_555 1_555
Ag1F O6 1_555 1_555
Ag2E O2 1_555 1_555
Ag2C O3 1_555 1_555
Ag3C O4 1_555 1_555
Ag3F O4 1_555 1_555
O2E Ag2 1_555 1_555
O3C Ag2 1_555 1_555
O4C Ag3 1_555 1_555
O4F Ag3 1_555 1_555
O5F Ag3 1_555 1_555
O6D Ag1 1_555 1_555
O6F Ag1 1_555 1_555
O7F Ag1 1_555 1_555
O7E Ag2 1_555 1_555
H5F O5F 1_555 1_555
O5 Ag3F 1_555 1_555
O7 Ag1F 1_555 1_555
O7 Ag2E 1_555 1_555
Ag2C O7F 1_555 1_555

#END
