
#######################################################################
#
#                 Cambridge Crystallographic Data Centre
#                                CCDC 
#
#######################################################################
#
# If this CIF has been generated from an entry in the Cambridge 
# Structural Database, then it will include bibliographic, chemical, 
# crystal, experimental, refinement or atomic coordinate data resulting 
# from the CCDC's data processing and validation procedures.
#
#######################################################################

data_IJOPAZ
_symmetry_cell_setting           orthorhombic
_symmetry_space_group_name_H-M   'P n n a'
_symmetry_Int_Tables_number      52
_space_group_name_Hall           '-P 2a 2bc'
loop_
_symmetry_equiv_pos_site_id
_symmetry_equiv_pos_as_xyz
1 x,y,z
2 1/2-x,-y,z
3 x,1/2-y,1/2-z
4 1/2-x,1/2+y,1/2-z
5 -x,-y,-z
6 1/2+x,y,-z
7 -x,1/2+y,1/2+z
8 1/2+x,1/2-y,1/2+z
_cell_length_a                   8.720(5)
_cell_length_b                   20.102(4)
_cell_length_c                   13.483(5)
_cell_angle_alpha                90
_cell_angle_beta                 90
_cell_angle_gamma                90
_cell_volume                     2363.43
loop_
_atom_site_label
_atom_site_type_symbol
_atom_site_fract_x
_atom_site_fract_y
_atom_site_fract_z
Cd1 Cd 0.96428(5) 0.2500 0.7500
O1 O 1.1284(4) 0.33138(14) 0.7049(2)
C1 C 1.2020(5) 0.44358(18) 0.6952(3)
O2 O 1.1291(4) 0.39000(15) 0.8440(2)
C2 C 0.7428(5) 0.1504(2) 0.6230(4)
C3 C 1.2500 0.5000 0.7444(4)
H1 H 1.2500 0.5000 0.8133
N1 N 0.7725(5) 0.16257(19) 0.7191(3)
N2 N 0.7945(5) 0.1991(2) 0.4546(3)
C4 C 0.7096(7) 0.1223(3) 0.7857(4)
H2 H 0.7293 0.1300 0.8525
N3 N 0.9098(5) 0.24430(17) 0.5842(3)
C5 C 0.8139(5) 0.1966(2) 0.5556(3)
C6 C 0.9516(6) 0.2781(3) 0.4998(4)
H3 H 1.0177 0.3144 0.4980
C7 C 1.1489(6) 0.3835(2) 0.7533(3)
C8 C 1.2024(6) 0.4443(2) 0.5936(3)
H4 H 1.1702 0.4070 0.5587
C9 C 0.6521(6) 0.0978(3) 0.5917(4)
H5 H 0.6344 0.0903 0.5246
C10 C 0.5901(6) 0.0577(3) 0.6615(5)
H6 H 0.5292 0.0218 0.6429
C11 C 0.6178(8) 0.0702(3) 0.7606(4)
H7 H 0.5744 0.0435 0.8094
C12 C 0.8821(8) 0.2507(3) 0.4193(4)
H8 H 0.8919 0.2642 0.3537
C13 C 1.2500 0.5000 0.5431(5)
H9 H 1.2500 0.5000 0.4741
H10 H 0.735(6) 0.174(3) 0.409(4)
Cd1A Cd 1.53572(5) 0.7500 0.7500
O1A O 1.3716(4) 0.66862(14) 0.7049(2)
O1B O 1.1284(4) 0.16862(14) 0.7951(2)
C1A C 1.2980(5) 0.55642(18) 0.6952(3)
O2A O 1.3709(4) 0.61000(15) 0.8440(2)
C2B C 0.7428(5) 0.3496(2) 0.8770(4)
N1B N 0.7725(5) 0.33743(19) 0.7809(3)
N2B N 0.7945(5) 0.3009(2) 1.0454(3)
C4B C 0.7096(7) 0.3777(3) 0.7143(4)
H2B H 0.7293 0.3700 0.6475
N3B N 0.9098(5) 0.25570(17) 0.9158(3)
C5B C 0.8139(5) 0.3034(2) 0.9444(3)
C6B C 0.9516(6) 0.2219(3) 1.0002(4)
H3B H 1.0177 0.1856 1.0020
C7A C 1.3511(6) 0.6165(2) 0.7533(3)
C8A C 1.2976(6) 0.5557(2) 0.5936(3)
H4A H 1.3298 0.5930 0.5587
C9B C 0.6521(6) 0.4022(3) 0.9083(4)
H5B H 0.6344 0.4097 0.9754
C10B C 0.5901(6) 0.4423(3) 0.8385(5)
H6B H 0.5292 0.4782 0.8571
C11B C 0.6178(8) 0.4298(3) 0.7394(4)
H7B H 0.5744 0.4565 0.6906
C12B C 0.8821(8) 0.2493(3) 1.0807(4)
H8B H 0.8919 0.2358 1.1463
H10B H 0.735(6) 0.326(3) 1.091(4)
loop_
_geom_bond_atom_site_label_1
_geom_bond_atom_site_label_2
_geom_bond_site_symmetry_1
_geom_bond_site_symmetry_2
Cd1 O1 1_555 1_555
O1 C7 1_555 1_555
C1 C3 1_555 1_555
O2 C7 1_555 1_555
C2 N1 1_555 1_555
C3 H1 1_555 1_555
N1 Cd1 1_555 1_555
N2 C5 1_555 1_555
C4 N1 1_555 1_555
H2 C4 1_555 1_555
N3 Cd1 1_555 1_555
C5 C2 1_555 1_555
C6 N3 1_555 1_555
H3 C6 1_555 1_555
C7 C1 1_555 1_555
C8 C1 1_555 1_555
H4 C8 1_555 1_555
C9 C2 1_555 1_555
H5 C9 1_555 1_555
C10 C9 1_555 1_555
H6 C10 1_555 1_555
C11 C4 1_555 1_555
H7 C11 1_555 1_555
C12 N2 1_555 1_555
H8 C12 1_555 1_555
C13 C8 1_555 1_555
H9 C13 1_555 1_555
H10 N2 1_555 1_555
Cd1A O1A 1_555 1_555
O1A C7A 1_555 1_555
O1B Cd1 1_555 1_555
C1A C3 1_555 1_555
O2A C7A 1_555 1_555
C2B N1B 1_555 1_555
N1B Cd1 1_555 1_555
N2B C5B 1_555 1_555
C4B N1B 1_555 1_555
H2B C4B 1_555 1_555
N3B Cd1 1_555 1_555
C5B C2B 1_555 1_555
C6B N3B 1_555 1_555
H3B C6B 1_555 1_555
C7A C1A 1_555 1_555
C8A C13 1_555 1_555
H4A C8A 1_555 1_555
C9B C2B 1_555 1_555
H5B C9B 1_555 1_555
C10B C9B 1_555 1_555
H6B C10B 1_555 1_555
C11B C4B 1_555 1_555
H7B C11B 1_555 1_555
C12B N2B 1_555 1_555
H8B C12B 1_555 1_555
H10B N2B 1_555 1_555
N3 C5 1_555 1_555
C6 C12 1_555 1_555
C10 C11 1_555 1_555
C1A C8A 1_555 1_555
N3B C5B 1_555 1_555
C6B C12B 1_555 1_555
C10B C11B 1_555 1_555

#END
