
#######################################################################
#
#                 Cambridge Crystallographic Data Centre
#                                CCDC 
#
#######################################################################
#
# If this CIF has been generated from an entry in the Cambridge 
# Structural Database, then it will include bibliographic, chemical, 
# crystal, experimental, refinement or atomic coordinate data resulting 
# from the CCDC's data processing and validation procedures.
#
#######################################################################

data_IJOQII
_symmetry_cell_setting           triclinic
_symmetry_space_group_name_H-M   'P -1'
_symmetry_Int_Tables_number      2
_space_group_name_Hall           '-P 1'
loop_
_symmetry_equiv_pos_site_id
_symmetry_equiv_pos_as_xyz
1 x,y,z
2 -x,-y,-z
_cell_length_a                   7.6294(15)
_cell_length_b                   9.5964(19)
_cell_length_c                   10.202(2)
_cell_angle_alpha                84.19(3)
_cell_angle_beta                 80.63(3)
_cell_angle_gamma                70.93(3)
_cell_volume                     695.601
loop_
_atom_site_label
_atom_site_type_symbol
_atom_site_fract_x
_atom_site_fract_y
_atom_site_fract_z
Cu1 Cu -0.03943(3) 0.83530(3) 0.16964(3)
S1 S -0.00326(7) 0.67390(7) 0.37486(5)
S2 S 0.11161(9) 0.47767(7) 0.28919(5)
N1 N -0.3026(2) 0.9293(2) 0.16879(19)
N2 N -0.8869(2) 0.9633(2) 0.17961(19)
N3 N -0.6377(2) 1.0592(2) 0.2077(2)
N4 N 0.3589(3) 0.6469(2) 0.38308(18)
N5 N 0.1249(2) 0.65814(18) 0.06703(15)
C1 C -0.4605(3) 0.9840(2) 0.1839(2)
C2 C -0.7639(3) 1.0016(2) 0.1905(2)
C3 C 0.1841(3) 0.7106(2) 0.43562(18)
C4 C 0.1311(3) 0.8103(3) 0.5330(2)
H1 H 0.0059 0.8499 0.5684
C5 C 0.2682(4) 0.8504(3) 0.5770(2)
H2 H 0.2372 0.9197 0.6414
C6 C 0.4516(4) 0.7863(3) 0.5242(2)
H3 H 0.5475 0.8109 0.5519
C7 C 0.4889(3) 0.6858(3) 0.4302(2)
H4 H 0.6136 0.6409 0.3963
C8 C 0.1811(3) 0.5212(2) 0.11824(18)
C9 C 0.2919(4) 0.4027(2) 0.0454(2)
H5 H 0.3245 0.3078 0.0850
C10 C 0.3528(4) 0.4264(3) -0.0852(2)
H6 H 0.4289 0.3484 -0.1362
C11 C 0.2996(4) 0.5682(3) -0.1403(2)
H7 H 0.3402 0.5877 -0.2292
C12 C 0.1868(3) 0.6795(2) -0.0633(2)
H8 H 0.1505 0.7748 -0.1019
Cu1_2 Cu -1.03943(3) 0.83530(3) 0.16964(3)
N2_2 N 0.1131(2) 0.9633(2) 0.17961(19)
loop_
_geom_bond_atom_site_label_1
_geom_bond_atom_site_label_2
_geom_bond_site_symmetry_1
_geom_bond_site_symmetry_2
Cu1 S1 1_555 1_555
S1 S2 1_555 1_555
S2 C8 1_555 1_555
N1 Cu1 1_555 1_555
N2 C2 1_555 1_555
N3 C1 1_555 1_555
N4 C3 1_555 1_555
N5 Cu1 1_555 1_555
C1 N1 1_555 1_555
C2 N3 1_555 1_555
C3 S1 1_555 1_555
C4 C3 1_555 1_555
H1 C4 1_555 1_555
C5 C4 1_555 1_555
H2 C5 1_555 1_555
C6 C5 1_555 1_555
H3 C6 1_555 1_555
C7 N4 1_555 1_555
H4 C7 1_555 1_555
C8 N5 1_555 1_555
C9 C8 1_555 1_555
H5 C9 1_555 1_555
C10 C9 1_555 1_555
H6 C10 1_555 1_555
C11 C10 1_555 1_555
H7 C11 1_555 1_555
C12 N5 1_555 1_555
H8 C12 1_555 1_555
Cu1_2 N2 1_555 1_555
N2_2 Cu1 1_555 1_555
C6 C7 1_555 1_555
C11 C12 1_555 1_555

#END
