
#######################################################################
#
#                 Cambridge Crystallographic Data Centre
#                                CCDC 
#
#######################################################################
#
# If this CIF has been generated from an entry in the Cambridge 
# Structural Database, then it will include bibliographic, chemical, 
# crystal, experimental, refinement or atomic coordinate data resulting 
# from the CCDC's data processing and validation procedures.
#
#######################################################################

data_IJOQEE
_symmetry_cell_setting           monoclinic
_symmetry_space_group_name_H-M   'P 21'
_symmetry_Int_Tables_number      4
_space_group_name_Hall           'P 2yb'
loop_
_symmetry_equiv_pos_site_id
_symmetry_equiv_pos_as_xyz
1 x,y,z
2 -x,1/2+y,-z
_cell_length_a                   7.5652(10)
_cell_length_b                   29.263(3)
_cell_length_c                   7.6067(10)
_cell_angle_alpha                90
_cell_angle_beta                 118.741(2)
_cell_angle_gamma                90
_cell_volume                     1476.51
loop_
_atom_site_label
_atom_site_type_symbol
_atom_site_fract_x
_atom_site_fract_y
_atom_site_fract_z
Ba1 Ba 0.77811(9) 0.366622(19) 0.36016(9)
Ba2 Ba 1.10429(9) 0.394536(18) 0.03210(9)
N1 N 0.8301(16) 0.2639(3) 0.3451(15)
N2 N 0.888(2) 0.1707(4) 0.308(2)
N3 N 1.0849(15) 0.4975(4) 0.0828(17)
N4 N 1.045(2) 0.5910(4) 0.137(2)
O1 O 0.8792(14) 0.3243(3) 0.0951(15)
O2 O 0.9048(17) 0.2671(3) -0.0797(14)
O3 O 0.8422(13) 0.4370(3) 0.1352(14)
O4 O 0.6620(16) 0.4940(3) 0.1590(18)
O9 O 1.1777(11) 0.3806(3) 0.4331(11)
H1 H 1.2515 0.3573 0.4865
H2 H 1.2312 0.4040 0.5061
O10 O 0.6963(12) 0.3775(3) 0.6959(12)
H3 H 0.6450 0.3534 0.7149
H4 H 0.6182 0.4000 0.6777
O11 O 0.4867(12) 0.4342(3) 0.2934(13)
H5 H 0.5066 0.4577 0.2396
H6 H 0.4921 0.4421 0.4035
O12 O 0.4417(12) 0.3857(3) -0.0462(12)
H7 H 0.4241 0.3637 -0.1259
H8 H 0.4614 0.4102 -0.0945
O13 O 0.9582(12) 0.4406(3) 0.6526(12)
H9 H 0.8706 0.4607 0.6372
H10 H 1.0541 0.4533 0.6426
O14 O 0.3952(12) 0.3203(3) 0.2065(13)
H11 H 0.3838 0.3071 0.3001
H12 H 0.3806 0.3006 0.1182
O15 O 1.0377(12) 0.3263(3) 0.7417(12)
H13 H 1.1486 0.3182 0.7481
H14 H 0.9823 0.3029 0.7608
C1 C 0.8864(17) 0.2828(4) 0.0620(17)
C2 C 0.874(2) 0.2485(4) 0.2049(19)
C3 C 0.896(2) 0.2017(4) 0.184(2)
H15 H 0.9171 0.1918 0.0790
C4 C 0.847(3) 0.1868(6) 0.449(3)
H16 H 0.8360 0.1666 0.5373
C5 C 0.822(2) 0.2336(5) 0.467(2)
H17 H 0.7979 0.2435 0.5695
C6 C 0.804(2) 0.4782(5) 0.1384(19)
C7 C 0.944(2) 0.5124(4) 0.1270(19)
C8 C 0.923(2) 0.5590(5) 0.149(2)
H18 H 0.8193 0.5685 0.1736
C9 C 1.187(2) 0.5754(5) 0.100(3)
H19 H 1.2768 0.5960 0.0932
C10 C 1.207(2) 0.5296(5) 0.071(2)
H20 H 1.3088 0.5205 0.0432
Ba2_2 Ba 1.10429(9) 0.394536(18) 1.03210(9)
Ba2_3 Ba 0.10429(9) 0.394536(18) 0.03210(9)
O10_2 O 0.6963(12) 0.3775(3) -0.3041(12)
H3_2 H 0.6450 0.3534 -0.2851
H4_2 H 0.6182 0.4000 -0.3223
O11_2 O 1.4867(12) 0.4342(3) 0.2934(13)
H5_2 H 1.5066 0.4577 0.2396
H6_2 H 1.4921 0.4421 0.4035
O12_2 O 1.4417(12) 0.3857(3) -0.0462(12)
H7_2 H 1.4241 0.3637 -0.1259
H8_2 H 1.4614 0.4102 -0.0945
O13_2 O 0.9582(12) 0.4406(3) -0.3474(12)
H9_2 H 0.8706 0.4607 -0.3628
H10_2 H 1.0541 0.4533 -0.3574
O14_2 O 1.3952(12) 0.3203(3) 0.2065(13)
H11_2 H 1.3838 0.3071 0.3001
H12_2 H 1.3806 0.3006 0.1182
O15_2 O 1.0377(12) 0.3263(3) -0.2583(12)
H13_2 H 1.1486 0.3182 -0.2519
H14_2 H 0.9823 0.3029 -0.2392
N5 N 0.6725(18) 0.5151(4) 0.6133(18)
N6 N 0.5658(18) 0.6073(4) 0.610(2)
O5 O 0.4326(14) 0.4487(3) 0.6353(16)
O6 O 0.2265(14) 0.5026(4) 0.6485(15)
C11 C 0.3801(19) 0.4890(4) 0.640(2)
C12 C 0.5088(18) 0.5268(4) 0.6264(17)
C13 C 0.461(2) 0.5730(5) 0.624(2)
H21 H 0.3458 0.5801 0.6341
C14 C 0.727(2) 0.5944(5) 0.592(2)
H22 H 0.8058 0.6168 0.5771
C15 C 0.779(2) 0.5490(5) 0.595(2)
H23 H 0.8932 0.5419 0.5840
N7 N 0.3586(18) 0.2445(4) 0.9189(19)
N8 N 0.400(2) 0.1538(4) 0.828(2)
O7 O 0.3818(16) 0.3133(3) 0.6871(15)
O8 O 0.4035(18) 0.2619(4) 0.4835(15)
C16 C 0.396(2) 0.2731(4) 0.636(2)
C17 C 0.3868(17) 0.2347(4) 0.7658(19)
C18 C 0.409(2) 0.1888(5) 0.723(2)
H24 H 0.4321 0.1828 0.6159
C19 C 0.363(2) 0.1655(6) 0.977(2)
H25 H 0.3494 0.1424 1.0533
C20 C 0.346(2) 0.2099(5) 1.022(2)
H26 H 0.3232 0.2159 1.1296
loop_
_geom_bond_atom_site_label_1
_geom_bond_atom_site_label_2
_geom_bond_site_symmetry_1
_geom_bond_site_symmetry_2
Ba1 N1 1_555 1_555
Ba2 N3 1_555 1_555
N1 C2 1_555 1_555
N2 C3 1_555 1_555
N3 C7 1_555 1_555
N4 C8 1_555 1_555
N5 C12 1_555 1_555
N6 C13 1_555 1_555
N7 C17 1_555 1_555
N8 C18 1_555 1_555
O1 Ba1 1_555 1_555
O2 C1 1_555 1_555
O3 Ba1 1_555 1_555
O4 C6 1_555 1_555
O5 C11 1_555 1_555
O6 C11 1_555 1_555
O7 C16 1_555 1_555
O8 C16 1_555 1_555
O9 Ba1 1_555 1_555
H1 O9 1_555 1_555
H2 O9 1_555 1_555
O10 Ba1 1_555 1_555
H3 O10 1_555 1_555
H4 O10 1_555 1_555
O11 Ba1 1_555 1_555
H5 O11 1_555 1_555
H6 O11 1_555 1_555
O12 Ba1 1_555 1_555
H7 O12 1_555 1_555
H8 O12 1_555 1_555
O13 Ba1 1_555 1_555
H9 O13 1_555 1_555
H10 O13 1_555 1_555
O14 Ba1 1_555 1_555
H11 O14 1_555 1_555
H12 O14 1_555 1_555
O15 Ba1 1_555 1_555
H13 O15 1_555 1_555
H14 O15 1_555 1_555
C1 O1 1_555 1_555
C2 C1 1_555 1_555
C3 C2 1_555 1_555
H15 C3 1_555 1_555
C4 N2 1_555 1_555
H16 C4 1_555 1_555
C5 N1 1_555 1_555
H17 C5 1_555 1_555
C6 O3 1_555 1_555
C7 C6 1_555 1_555
C8 C7 1_555 1_555
H18 C8 1_555 1_555
C9 N4 1_555 1_555
H19 C9 1_555 1_555
C10 N3 1_555 1_555
H20 C10 1_555 1_555
C11 C12 1_555 1_555
C12 C13 1_555 1_555
C13 H21 1_555 1_555
C14 N6 1_555 1_555
H22 C14 1_555 1_555
C15 N5 1_555 1_555
H23 C15 1_555 1_555
C16 C17 1_555 1_555
C17 C18 1_555 1_555
C18 H24 1_555 1_555
C19 N8 1_555 1_555
H25 C19 1_555 1_555
C20 N7 1_555 1_555
H26 C20 1_555 1_555
Ba2_2 O10 1_555 1_555
Ba2_3 O11 1_555 1_555
O10_2 Ba2 1_555 1_555
H3_2 O10_2 1_555 1_555
H4_2 O10_2 1_555 1_555
O11_2 Ba2 1_555 1_555
H5_2 O11_2 1_555 1_555
H6_2 O11_2 1_555 1_555
O12_2 Ba2 1_555 1_555
H7_2 O12_2 1_555 1_555
H8_2 O12_2 1_555 1_555
O13_2 Ba2 1_555 1_555
H9_2 O13_2 1_555 1_555
H10_2 O13_2 1_555 1_555
O14_2 Ba2 1_555 1_555
H11_2 O14_2 1_555 1_555
H12_2 O14_2 1_555 1_555
O15_2 Ba2 1_555 1_555
H13_2 O15_2 1_555 1_555
H14_2 O15_2 1_555 1_555
Ba2 O1 1_555 1_555
Ba2 O3 1_555 1_555
Ba2 O9 1_555 1_555
O12 Ba2_3 1_555 1_555
O13 Ba2_2 1_555 1_555
O14 Ba2_3 1_555 1_555
O15 Ba2_2 1_555 1_555
C4 C5 1_555 1_555
C9 C10 1_555 1_555
C14 C15 1_555 1_555
C19 C20 1_555 1_555

#END
