
#######################################################################
#
#                 Cambridge Crystallographic Data Centre
#                                CCDC 
#
#######################################################################
#
# If this CIF has been generated from an entry in the Cambridge 
# Structural Database, then it will include bibliographic, chemical, 
# crystal, experimental, refinement or atomic coordinate data resulting 
# from the CCDC's data processing and validation procedures.
#
#######################################################################

data_IJORUV
_symmetry_cell_setting           triclinic
_symmetry_space_group_name_H-M   'P -1'
_symmetry_Int_Tables_number      2
_space_group_name_Hall           '-P 1'
loop_
_symmetry_equiv_pos_site_id
_symmetry_equiv_pos_as_xyz
1 x,y,z
2 -x,-y,-z
_cell_length_a                   8.959(3)
_cell_length_b                   9.429(3)
_cell_length_c                   14.582(4)
_cell_angle_alpha                98.115(6)
_cell_angle_beta                 95.501(6)
_cell_angle_gamma                105.030(6)
_cell_volume                     1166.39
loop_
_atom_site_label
_atom_site_type_symbol
_atom_site_fract_x
_atom_site_fract_y
_atom_site_fract_z
Ce1 Ce -0.04398(5) 0.35570(5) 0.33964(3)
Ce2 Ce -0.64090(5) 0.23588(5) 0.22599(3)
O1 O -0.2438(6) 0.1610(6) 0.3726(3)
O2 O -0.4960(6) 0.1188(6) 0.3240(3)
O3 O -0.2578(5) -0.3334(5) 0.6235(3)
O4 O -0.0764(6) -0.2234(5) 0.5428(3)
O5 O -0.1974(5) 0.5268(5) 0.3614(3)
O6 O -0.4502(6) 0.4654(5) 0.3038(3)
O7 O 0.0313(6) 1.1587(5) 0.2310(3)
O8 O 0.1594(6) 0.9953(6) 0.2628(4)
O9 O -0.2542(6) 0.2878(6) 0.1987(3)
O10 O -0.4582(6) 0.3168(6) 0.1098(3)
O11 O -0.0774(6) 0.4892(6) -0.2348(3)
O12 O -0.2635(6) 0.5672(5) -0.1697(3)
O13 O 0.1027(6) 0.5939(6) 0.4542(3)
O14 O -0.6009(6) -0.0037(6) 0.1307(4)
O15 O -0.7741(7) 0.1451(7) 0.0501(4)
N1 N -0.6058(7) -0.2665(7) 0.4362(4)
N2 N -0.3912(7) 0.8335(7) 0.1751(4)
N3 N -0.0159(7) 0.2521(7) -0.0258(4)
C1 C -0.5675(9) -0.1464(8) 0.3946(4)
C2 C -0.4160(8) -0.0545(7) 0.4047(4)
C3 C -0.3002(8) -0.0911(7) 0.4569(4)
C4 C -0.3367(8) -0.2156(8) 0.5002(5)
C5 C -0.4931(9) -0.2967(8) 0.4883(5)
C6 C -0.3835(10) 0.0854(8) 0.3626(5)
C7 C -0.2161(9) -0.2597(8) 0.5590(5)
C8 C -0.4043(9) 0.7107(8) 0.2140(5)
C9 C -0.2820(8) 0.6843(8) 0.2669(4)
C10 C -0.1376(8) 0.7858(8) 0.2774(5)
C11 C -0.1195(8) 0.9120(8) 0.2375(5)
C12 C -0.2506(9) 0.9311(8) 0.1882(5)
C13 C -0.3132(8) 0.5458(8) 0.3137(5)
C14 C 0.0358(9) 1.0273(9) 0.2447(5)
C15 C -0.1092(9) 0.2494(8) 0.0402(5)
C16 C -0.2283(8) 0.3167(8) 0.0422(5)
C17 C -0.2543(8) 0.3915(8) -0.0296(5)
C18 C -0.1586(8) 0.3997(8) -0.0992(4)
C19 C -0.0426(8) 0.3287(8) -0.0939(5)
C20 C -0.3221(9) 0.3057(8) 0.1236(5)
C21 C -0.1691(9) 0.4919(8) -0.1739(5)
H1 H -0.64560 -0.12380 0.35750
H2 H -0.19750 -0.03280 0.46330
H3 H -0.51990 -0.37760 0.51910
H4 H -0.50090 0.64000 0.20470
H5 H -0.05230 0.76910 0.31130
H6 H -0.23990 1.01760 0.16270
H7 H 0.05900 0.65940 0.44730
H8 H 0.19210 0.62040 0.44390
H9 H -0.57700 -0.08900 0.13360
H10 H -0.52200 0.05300 0.10900
H11 H -0.09260 0.19820 0.08850
H12 H -0.69980 0.16410 0.02050
H13 H -0.84020 0.18250 0.03010
H14 H -0.33550 0.43610 -0.03150
H15 H 0.02160 0.33400 -0.14060
Ce1A Ce 0.04398(5) -0.35570(5) 0.66036(3)
Ce1_2 Ce -0.04398(5) 1.35570(5) 0.33964(3)
Ce1A_2 Ce 0.04398(5) 0.64430(5) -0.33964(3)
Ce1A_3 Ce 0.04398(5) 0.64430(5) 0.66036(3)
Ce2A Ce -0.35910(5) -0.23588(5) 0.77401(3)
Ce2_2 Ce 0.35910(5) 1.23588(5) 0.22599(3)
Ce2A_2 Ce -0.35910(5) 0.76412(5) -0.22599(3)
O3A O 0.2578(5) 0.3334(5) 0.3765(3)
O3A_2 O -0.7422(5) 0.3334(5) 0.3765(3)
O4A O 0.0764(6) 0.2234(5) 0.4572(3)
O7_2 O 0.0313(6) 0.1587(5) 0.2310(3)
O7_3 O -0.9687(6) 0.1587(5) 0.2310(3)
O8_2 O -0.8406(6) -0.0047(6) 0.2628(4)
O11A O 0.0774(6) 0.5108(6) 0.2348(3)
O12A O -0.7365(6) 0.4328(5) 0.1697(3)
O13A O -0.1027(6) 0.4061(6) 0.5458(3)
H7A H -0.05900 0.34060 0.55270
H8A H -0.19210 0.37960 0.55610
loop_
_geom_bond_atom_site_label_1
_geom_bond_atom_site_label_2
_geom_bond_site_symmetry_1
_geom_bond_site_symmetry_2
Ce1 O1 1_555 1_555
Ce2 O2 1_555 1_555
O1 C6 1_555 1_555
O2 C6 1_555 1_555
O3 C7 1_555 1_555
O4 C7 1_555 1_555
O5 Ce1 1_555 1_555
O6 Ce2 1_555 1_555
O7 C14 1_555 1_555
O8 C14 1_555 1_555
O9 Ce1 1_555 1_555
O10 Ce2 1_555 1_555
O11 C21 1_555 1_555
O12 C21 1_555 1_555
O13 Ce1 1_555 1_555
O14 Ce2 1_555 1_555
O15 Ce2 1_555 1_555
N1 C1 1_555 1_555
N2 C8 1_555 1_555
N3 C15 1_555 1_555
C1 C2 1_555 1_555
C2 C3 1_555 1_555
C3 C4 1_555 1_555
C4 C5 1_555 1_555
C5 N1 1_555 1_555
C6 C2 1_555 1_555
C7 C4 1_555 1_555
C8 C9 1_555 1_555
C9 C10 1_555 1_555
C10 C11 1_555 1_555
C11 C12 1_555 1_555
C12 N2 1_555 1_555
C13 O5 1_555 1_555
C14 C11 1_555 1_555
C15 C16 1_555 1_555
C16 C17 1_555 1_555
C17 C18 1_555 1_555
C18 C19 1_555 1_555
C19 N3 1_555 1_555
C20 O9 1_555 1_555
C21 C18 1_555 1_555
H1 C1 1_555 1_555
H2 C3 1_555 1_555
H3 C5 1_555 1_555
H4 C8 1_555 1_555
H5 C10 1_555 1_555
H6 C12 1_555 1_555
H7 O13 1_555 1_555
H8 O13 1_555 1_555
H9 O14 1_555 1_555
H10 O14 1_555 1_555
H11 C15 1_555 1_555
H12 O15 1_555 1_555
H13 O15 1_555 1_555
H14 C17 1_555 1_555
H15 C19 1_555 1_555
Ce1A O3 1_555 1_555
Ce1_2 O7 1_555 1_555
Ce1A_2 O11 1_555 1_555
Ce1A_3 O13 1_555 1_555
Ce2A O3 1_555 1_555
Ce2_2 O7 1_555 1_555
Ce2A_2 O12 1_555 1_555
O3A Ce1 1_555 1_555
O3A_2 Ce2 1_555 1_555
O4A Ce1 1_555 1_555
O7_2 Ce1 1_555 1_555
O7_3 Ce2 1_555 1_555
O8_2 Ce2 1_555 1_555
O11A Ce1 1_555 1_555
O12A Ce2 1_555 1_555
O13A Ce1 1_555 1_555
H7A O13A 1_555 1_555
H8A O13A 1_555 1_555
O4 Ce1A 1_555 1_555
O6 C13 1_555 1_555
O8 Ce2_2 1_555 1_555
O10 C20 1_555 1_555
C9 C13 1_555 1_555
C16 C20 1_555 1_555
Ce1A_3 O13A 1_555 1_555

#END
