
#######################################################################
#
#                 Cambridge Crystallographic Data Centre
#                                CCDC 
#
#######################################################################
#
# If this CIF has been generated from an entry in the Cambridge 
# Structural Database, then it will include bibliographic, chemical, 
# crystal, experimental, refinement or atomic coordinate data resulting 
# from the CCDC's data processing and validation procedures.
#
#######################################################################

data_IJOSIK
_symmetry_cell_setting           monoclinic
_symmetry_space_group_name_H-M   'P 21/c'
_symmetry_Int_Tables_number      14
_space_group_name_Hall           '-P 2ybc'
loop_
_symmetry_equiv_pos_site_id
_symmetry_equiv_pos_as_xyz
1 x,y,z
2 -x,1/2+y,1/2-z
3 -x,-y,-z
4 x,1/2-y,1/2+z
_cell_length_a                   7.7802(9)
_cell_length_b                   16.7299(16)
_cell_length_c                   8.4684(10)
_cell_angle_alpha                90
_cell_angle_beta                 114.409(5)
_cell_angle_gamma                90
_cell_volume                     1003.74
loop_
_atom_site_label
_atom_site_type_symbol
_atom_site_fract_x
_atom_site_fract_y
_atom_site_fract_z
Cd1 Cd 0.0000 0.5000 0.5000
Br1 Br 0.19066(4) 0.538566(18) 0.30452(4)
C1 C 0.2617(4) 0.57653(19) 0.8969(4)
H1 H 0.1582 0.5731 0.9248
C2 C 0.4305(4) 0.56459(17) 0.7599(4)
H2 H 0.4757 0.5526 0.6768
C3 C 0.7295(4) 0.61998(17) 0.9870(4)
H3 H 0.7919 0.5889 0.9293
H4 H 0.7836 0.6045 1.1082
C4 C 0.7711(4) 0.70758(15) 0.9750(4)
C5 C 0.6428(4) 0.76858(18) 0.9397(5)
H5 H 0.5176 0.7576 0.9173
C6 C 0.7013(4) 0.84676(17) 0.9379(4)
H6 H 0.6129 0.8875 0.9146
C7 C 1.0005(4) 0.8062(2) 1.0007(5)
H7 H 1.1243 0.8186 1.0204
C8 C 0.9543(5) 0.72732(18) 1.0071(5)
H8 H 1.0458 0.6877 1.0329
N1 N 0.5308(3) 0.59953(13) 0.9121(3)
N2 N 0.4232(4) 0.60782(17) 1.0010(3)
N3 N 0.2588(3) 0.54957(14) 0.7446(3)
N4 N 0.8769(3) 0.86608(13) 0.9675(3)
Cd1A Cd 1.0000 1.0000 1.0000
Cd1A_2 Cd -1.0000 0.0000 0.0000
Br1B Br -0.19066(4) 0.461434(18) 0.69548(4)
C1B C -0.2617(4) 0.42347(19) 0.1031(4)
H1B H -0.1582 0.4269 0.0752
C2B C -0.4305(4) 0.43541(17) 0.2401(4)
H2B H -0.4757 0.4474 0.3232
C3B C -0.7295(4) 0.38002(17) 0.0130(4)
H3B H -0.7919 0.4111 0.0707
H4B H -0.7836 0.3955 -0.1082
C4B C -0.7711(4) 0.29242(15) 0.0250(4)
C5B C -0.6428(4) 0.23142(18) 0.0603(5)
H5B H -0.5176 0.2424 0.0827
C6B C -0.7013(4) 0.15324(17) 0.0621(4)
H6B H -0.6129 0.1125 0.0854
C7B C -1.0005(4) 0.1938(2) -0.0007(5)
H7B H -1.1243 0.1814 -0.0204
C8B C -0.9543(5) 0.27268(18) -0.0071(5)
H8B H -1.0458 0.3123 -0.0329
N1B N -0.5308(3) 0.40047(13) 0.0879(3)
N2B N -0.4232(4) 0.39218(17) -0.0010(3)
N3B N -0.2588(3) 0.45043(14) 0.2554(3)
N4B N -0.8769(3) 0.13392(13) 0.0325(3)
N4A N 0.1231(3) 0.36608(13) 0.5325(3)
N4C N -0.1231(3) 0.63392(13) 0.4675(3)
loop_
_geom_bond_atom_site_label_1
_geom_bond_atom_site_label_2
_geom_bond_site_symmetry_1
_geom_bond_site_symmetry_2
Cd1 Br1 1_555 1_555
C1 H1 1_555 1_555
C2 H2 1_555 1_555
C3 H3 1_555 1_555
H4 C3 1_555 1_555
C4 C3 1_555 1_555
C5 C4 1_555 1_555
H5 C5 1_555 1_555
C6 C5 1_555 1_555
H6 C6 1_555 1_555
C7 H7 1_555 1_555
C8 C4 1_555 1_555
H8 C8 1_555 1_555
N1 C2 1_555 1_555
N2 C1 1_555 1_555
N3 Cd1 1_555 1_555
N4 C6 1_555 1_555
Cd1A N4 1_555 1_555
Cd1A_2 N4B 1_555 1_555
Br1B Cd1 1_555 1_555
C1B H1B 1_555 1_555
C2B H2B 1_555 1_555
C3B H3B 1_555 1_555
H4B C3B 1_555 1_555
C4B C3B 1_555 1_555
C5B C4B 1_555 1_555
H5B C5B 1_555 1_555
C6B C5B 1_555 1_555
H6B C6B 1_555 1_555
C7B H7B 1_555 1_555
C8B C4B 1_555 1_555
H8B C8B 1_555 1_555
N1B C2B 1_555 1_555
N2B C1B 1_555 1_555
N3B Cd1 1_555 1_555
N4B C6B 1_555 1_555
N4A Cd1 1_555 1_555
N4C Cd1 1_555 1_555
C1 N3 1_555 1_555
C2 N3 1_555 1_555
C3 N1 1_555 1_555
C7 C8 1_555 1_555
C7 N4 1_555 1_555
N1 N2 1_555 1_555
C1B N3B 1_555 1_555
C2B N3B 1_555 1_555
C3B N1B 1_555 1_555
C7B C8B 1_555 1_555
C7B N4B 1_555 1_555
N1B N2B 1_555 1_555

#END
