
#######################################################################
#
#                 Cambridge Crystallographic Data Centre
#                                CCDC 
#
#######################################################################
#
# If this CIF has been generated from an entry in the Cambridge 
# Structural Database, then it will include bibliographic, chemical, 
# crystal, experimental, refinement or atomic coordinate data resulting 
# from the CCDC's data processing and validation procedures.
#
#######################################################################

data_IJOWAG
_symmetry_cell_setting           monoclinic
_symmetry_space_group_name_H-M   'P 21/c'
_symmetry_Int_Tables_number      14
_space_group_name_Hall           '-P 2ybc'
loop_
_symmetry_equiv_pos_site_id
_symmetry_equiv_pos_as_xyz
1 x,y,z
2 -x,1/2+y,1/2-z
3 -x,-y,-z
4 x,1/2-y,1/2+z
_cell_length_a                   10.449(2)
_cell_length_b                   11.450(2)
_cell_length_c                   10.325(2)
_cell_angle_alpha                90
_cell_angle_beta                 95.93(3)
_cell_angle_gamma                90
_cell_volume                     1228.68
loop_
_atom_site_label
_atom_site_type_symbol
_atom_site_fract_x
_atom_site_fract_y
_atom_site_fract_z
Ca1 Ca 0.67926(4) 1.08747(3) 0.15351(3)
S1 S 1.00299(7) 0.95463(8) 0.23803(8)
O1 O 0.89654(19) 1.04175(19) 0.2093(2)
C1 C 0.9931(4) 0.8533(4) 0.1082(4)
H1 H 0.9068 0.8237 0.0933
H2 H 1.0515 0.7899 0.1298
H3 H 1.0155 0.8914 0.0308
C2 C 0.9511(5) 0.8595(5) 0.3569(5)
H4 H 0.9386 0.9031 0.4340
H5 H 1.0151 0.8003 0.3777
H6 H 0.8715 0.8234 0.3237
N1 N 0.63254(17) 0.97721(13) 0.36682(15)
C3 C 0.6057(2) 0.86315(16) 0.37822(17)
H7 H 0.5735 0.8228 0.3037
C4 C 0.67172(18) 1.03533(15) 0.47695(17)
C5 C 0.6660(2) 0.86337(17) 0.60687(18)
H8 H 0.6803 0.8252 0.6866
C6 C 0.6872(2) 0.98248(17) 0.59788(18)
H9 H 0.7114 1.0262 0.6723
C7 C 0.62317(19) 0.80212(15) 0.49489(17)
C8 C 0.59970(19) 0.67151(16) 0.49754(18)
O2 O 0.53823(15) 0.62711(12) 0.39822(14)
O3 O 0.64566(17) 0.61761(13) 0.59638(14)
O4 O 0.72123(17) 1.22148(12) 0.56666(14)
O5 O 0.69341(17) 1.20480(12) 0.34958(13)
C9 C 0.6974(2) 1.16520(15) 0.46351(18)
O6 O 0.7022(2) 1.06481(15) -0.07874(15)
H10 H 0.685(3) 1.127(3) -0.116(3)
H11 H 0.643(3) 1.019(3) -0.106(3)
Ca1A Ca 0.32074(4) 0.58747(3) 0.34649(3)
Ca1C Ca 0.67926(4) 0.41253(3) 0.65351(3)
Ca1C_2 Ca 0.67926(4) 1.41253(3) 0.65351(3)
O2A O 0.46177(15) 1.12711(12) 0.10178(14)
O3C O 0.64566(17) 0.88239(13) 0.09638(14)
O4C O 0.72123(17) 1.27852(12) 0.06666(14)
loop_
_geom_bond_atom_site_label_1
_geom_bond_atom_site_label_2
_geom_bond_site_symmetry_1
_geom_bond_site_symmetry_2
Ca1 O1 1_555 1_555
S1 O1 1_555 1_555
C1 S1 1_555 1_555
H1 C1 1_555 1_555
H2 C1 1_555 1_555
H3 C1 1_555 1_555
C2 S1 1_555 1_555
H4 C2 1_555 1_555
H5 C2 1_555 1_555
H6 C2 1_555 1_555
N1 Ca1 1_555 1_555
C3 N1 1_555 1_555
H7 C3 1_555 1_555
C4 N1 1_555 1_555
C5 H8 1_555 1_555
C6 C4 1_555 1_555
H9 C6 1_555 1_555
C7 C3 1_555 1_555
C8 C7 1_555 1_555
O2 C8 1_555 1_555
O3 C8 1_555 1_555
O4 C9 1_555 1_555
O5 Ca1 1_555 1_555
C9 C4 1_555 1_555
O6 Ca1 1_555 1_555
H10 O6 1_555 1_555
H11 O6 1_555 1_555
Ca1A O2 1_555 1_555
Ca1C O3 1_555 1_555
Ca1C_2 O4 1_555 1_555
O2A Ca1 1_555 1_555
O3C Ca1 1_555 1_555
O4C Ca1 1_555 1_555
C5 C6 1_555 1_555
C5 C7 1_555 1_555
O5 C9 1_555 1_555

#END
