
#######################################################################
#
#                 Cambridge Crystallographic Data Centre
#                                CCDC 
#
#######################################################################
#
# If this CIF has been generated from an entry in the Cambridge 
# Structural Database, then it will include bibliographic, chemical, 
# crystal, experimental, refinement or atomic coordinate data resulting 
# from the CCDC's data processing and validation procedures.
#
#######################################################################

data_IJUBUK
_symmetry_cell_setting           monoclinic
_symmetry_space_group_name_H-M   'P 21/n'
_symmetry_Int_Tables_number      14
_space_group_name_Hall           '-P 2yn'
loop_
_symmetry_equiv_pos_site_id
_symmetry_equiv_pos_as_xyz
1 x,y,z
2 1/2+x,1/2-y,1/2+z
3 -x,-y,-z
4 1/2-x,1/2+y,1/2-z
_cell_length_a                   5.6850(2)
_cell_length_b                   6.9277(3)
_cell_length_c                   14.3575(6)
_cell_angle_alpha                90
_cell_angle_beta                 93.435(1)
_cell_angle_gamma                90
_cell_volume                     564.44
loop_
_atom_site_label
_atom_site_type_symbol
_atom_site_fract_x
_atom_site_fract_y
_atom_site_fract_z
Cu1 Cu 0.61246(5) 0.17050(5) 0.32890(2)
N1 N 0.8236(3) 0.0569(3) 0.43389(13)
C1 C 0.9883(4) -0.0727(4) 0.41464(16)
H1 H 0.9833 -0.1272 0.3538
C2 C 0.8337(4) 0.1318(4) 0.52101(17)
C3 C 0.6569(4) 0.2806(4) 0.54435(17)
H2 H 0.7041 0.4063 0.5204
H3 H 0.6484 0.2879 0.6122
H4 H 0.5021 0.2452 0.5157
S1 S 0.64833(10) -0.04844(9) 0.19929(4)
C4 C 0.3854(4) -0.1539(4) 0.18920(16)
N2 N 0.2038(4) -0.2299(3) 0.17965(14)
C2B C 1.1663(4) -0.1318(4) 0.47899(17)
N1B N 1.1764(3) -0.0569(3) 0.56611(13)
C1B C 1.0117(4) 0.0727(4) 0.58536(16)
H1B H 1.0167 0.1272 0.6462
C3B C 1.3431(4) -0.2806(4) 0.45565(17)
H2B H 1.2959 -0.4063 0.4796
H3B H 1.3516 -0.2879 0.3878
H4B H 1.4979 -0.2452 0.4843
S1C S 0.85167(10) 0.45156(9) 0.30071(4)
C4C C 1.1146(4) 0.3461(4) 0.31080(16)
N2C N 1.2962(4) 0.2701(3) 0.32035(14)
Cu1B Cu 1.38754(5) -0.17050(5) 0.67110(2)
N2C_2 N 0.2962(4) 0.2701(3) 0.32035(14)
Cu1C Cu 0.88754(5) -0.32950(5) 0.17110(2)
Cu1C_2 Cu -0.11246(5) -0.32950(5) 0.17110(2)
Cu1C_3 Cu 0.88754(5) 0.67050(5) 0.17110(2)
Cu1_2 Cu 1.61246(5) 0.17050(5) 0.32890(2)
S1A S 1.14833(10) -0.45156(9) 0.69929(4)
S1B S 1.35167(10) 0.04844(9) 0.80071(4)
N2A N 1.7038(4) -0.2701(3) 0.67965(14)
loop_
_geom_bond_atom_site_label_1
_geom_bond_atom_site_label_2
_geom_bond_site_symmetry_1
_geom_bond_site_symmetry_2
Cu1 N1 1_555 1_555
N1 C1 1_555 1_555
C1 H1 1_555 1_555
C2 N1 1_555 1_555
C3 C2 1_555 1_555
H2 C3 1_555 1_555
H3 C3 1_555 1_555
H4 C3 1_555 1_555
S1 Cu1 1_555 1_555
C4 S1 1_555 1_555
N2 C4 1_555 1_555
C2B C1 1_555 1_555
N1B C2B 1_555 1_555
C1B C2 1_555 1_555
H1B C1B 1_555 1_555
C3B C2B 1_555 1_555
H2B C3B 1_555 1_555
H3B C3B 1_555 1_555
H4B C3B 1_555 1_555
S1C Cu1 1_555 1_555
C4C S1C 1_555 1_555
N2C C4C 1_555 1_555
Cu1B N1B 1_555 1_555
N2C_2 Cu1 1_555 1_555
Cu1C S1 1_555 1_555
Cu1C_2 N2 1_555 1_555
Cu1C_3 S1C 1_555 1_555
Cu1_2 N2C 1_555 1_555
S1A Cu1B 1_555 1_555
S1B Cu1B 1_555 1_555
N2A Cu1B 1_555 1_555
N1B C1B 1_555 1_555

#END
