
#######################################################################
#
#                 Cambridge Crystallographic Data Centre
#                                CCDC 
#
#######################################################################
#
# If this CIF has been generated from an entry in the Cambridge 
# Structural Database, then it will include bibliographic, chemical, 
# crystal, experimental, refinement or atomic coordinate data resulting 
# from the CCDC's data processing and validation procedures.
#
#######################################################################

data_IJUCIZ
_symmetry_cell_setting           monoclinic
_symmetry_space_group_name_H-M   'C 2/c'
_symmetry_Int_Tables_number      15
_space_group_name_Hall           '-C 2yn'
loop_
_symmetry_equiv_pos_site_id
_symmetry_equiv_pos_as_xyz
1 x,y,z
2 1/2+x,1/2+y,z
3 x,-y,1/2+z
4 1/2+x,1/2-y,1/2+z
5 -x,-y,-z
6 1/2-x,1/2-y,-z
7 -x,y,1/2-z
8 1/2-x,1/2+y,1/2-z
_cell_length_a                   22.121(6)
_cell_length_b                   9.3086(17)
_cell_length_c                   10.014(3)
_cell_angle_alpha                90
_cell_angle_beta                 112.895(18)
_cell_angle_gamma                90
_cell_volume                     1899.59
loop_
_atom_site_label
_atom_site_type_symbol
_atom_site_fract_x
_atom_site_fract_y
_atom_site_fract_z
V1 V 0.73875(3) 1.00144(7) 0.17445(7)
V2 V 0.68431(3) 1.18172(8) 0.38967(7)
V3 V 0.68282(3) 0.82012(8) 0.38919(7)
O1 O 0.80109(15) 1.0005(3) 0.3231(3)
O2 O 0.68129(14) 1.1336(3) 0.2224(3)
O3 O 0.67985(14) 0.8642(3) 0.2232(3)
O4 O 0.75778(14) 0.8479(3) 0.5796(3)
O5 O 0.75590(14) 0.8450(3) 0.0819(3)
O6 O 0.61860(14) 1.2687(4) 0.3667(3)
O7 O 0.66194(14) 0.9994(3) 0.4394(3)
O8 O 0.61543(13) 0.7344(4) 0.3654(3)
Cu1 Cu 0.50000 0.74861(10) 0.25000
N1 N 0.49891(18) 0.5965(4) 0.3938(4)
N2 N 0.49849(18) 0.9005(4) 0.1031(4)
C1 C 0.5488(2) 0.5044(5) 0.4522(5)
C2 C 0.4502(2) 0.5917(5) 0.4423(5)
C3 C 0.5395(2) 1.0119(5) 0.1401(5)
C4 C 0.4586(2) 0.8882(5) -0.0392(5)
H1 H 0.584 0.506 0.420
H2 H 0.414 0.657 0.403
H3 H 0.569 1.023 0.240
H4 H 0.429 0.809 -0.070
C2D C 0.5498(2) 0.4083(5) 0.5577(5)
N1D N 0.50109(18) 0.4035(4) 0.6062(4)
C1D C 0.4512(2) 0.4956(5) 0.5478(5)
H1D H 0.416 0.494 0.580
H2D H 0.586 0.343 0.597
C4D C 0.5414(2) 1.1118(5) 0.0392(5)
N2D N 0.50151(18) 1.0995(4) -0.1031(4)
C3D C 0.4605(2) 0.9881(5) -0.1401(5)
H3D H 0.431 0.977 -0.240
H4D H 0.571 1.191 0.070
O8F O 0.38457(13) 0.7344(4) 0.1346(3)
V3F V 0.31718(3) 0.82012(8) 0.11081(7)
O4E O 0.74222(14) 0.6521(3) 0.4204(3)
O3F O 0.32015(14) 0.8642(3) 0.2768(3)
O7F O 0.33806(14) 0.9994(3) 0.0606(3)
V1F V 0.26125(3) 1.00144(7) 0.32555(7)
V2F V 0.31569(3) 1.18172(8) 0.11033(7)
O5B O 0.75590(14) 1.1550(3) 0.5819(3)
O1F O 0.19891(15) 1.0005(3) 0.1769(3)
O2F O 0.31871(14) 1.1336(3) 0.2776(3)
O6F O 0.38140(14) 1.2687(4) 0.1333(3)
O4B O 0.75778(14) 1.1521(3) 0.0796(3)
O7B O 0.66194(14) 1.0006(3) -0.0606(3)
O5G O 0.74410(14) 1.3450(3) 0.4181(3)
V1B V 0.73875(3) 0.99856(7) 0.67445(7)
V3E V 0.81718(3) 0.67988(8) 0.61081(7)
V2B V 0.68431(3) 0.81828(8) -0.11033(7)
V2G V 0.81569(3) 0.68172(8) 0.11033(7)
N1F N 0.50109(18) 0.5965(4) 0.1062(4)
N2F N 0.50151(18) 0.9005(4) 0.3969(4)
Cu1B Cu 0.50000 0.25139(10) 0.75000
Cu1B_2 Cu 0.50000 1.25139(10) -0.25000
O4C O 0.25778(14) 0.6521(3) 0.0796(3)
O4F O 0.24222(14) 0.8479(3) -0.0796(3)
V1G V 0.76125(3) 0.50144(7) 0.32555(7)
V1D V 0.26125(3) 0.99856(7) -0.17445(7)
O4D O 0.24222(14) 1.1521(3) 0.4204(3)
O5F O 0.24410(14) 0.8450(3) 0.4181(3)
O7D O 0.33806(14) 1.0006(3) 0.5606(3)
O5A O 0.25590(14) 1.3450(3) 0.0819(3)
O5D O 0.24410(14) 1.1550(3) -0.0819(3)
V2E V 0.81569(3) 1.31828(8) 0.61033(7)
O9 O 0.50000 0.249(3) 0.25000
H5 H 0.539 0.280 0.266
H5F H 0.461 0.280 0.234
loop_
_geom_bond_atom_site_label_1
_geom_bond_atom_site_label_2
_geom_bond_site_symmetry_1
_geom_bond_site_symmetry_2
V1 O1 1_555 1_555
V2 O2 1_555 1_555
V3 O3 1_555 1_555
O2 V1 1_555 1_555
O3 V1 1_555 1_555
O4 V3 1_555 1_555
O5 V1 1_555 1_555
O6 V2 1_555 1_555
O7 V2 1_555 1_555
O8 V3 1_555 1_555
Cu1 O8 1_555 1_555
N1 Cu1 1_555 1_555
N2 Cu1 1_555 1_555
C1 N1 1_555 1_555
C2 N1 1_555 1_555
C3 N2 1_555 1_555
C4 N2 1_555 1_555
H1 C1 1_555 1_555
H2 C2 1_555 1_555
H3 C3 1_555 1_555
H4 C4 1_555 1_555
O9 H5 1_555 1_555
C2D C1 1_555 1_555
N1D C2D 1_555 1_555
C1D C2 1_555 1_555
H1D C1D 1_555 1_555
H2D C2D 1_555 1_555
C4D C3 1_555 1_555
N2D C4D 1_555 1_555
C3D C4 1_555 1_555
H3D C3D 1_555 1_555
H4D C4D 1_555 1_555
H5F O9 1_555 1_555
O8F Cu1 1_555 1_555
V3F O8F 1_555 1_555
O4E V3 1_555 1_555
O3F V3F 1_555 1_555
O7F V3F 1_555 1_555
V1F O3F 1_555 1_555
V2F O7F 1_555 1_555
O5B V2 1_555 1_555
O1F V1F 1_555 1_555
O2F V1F 1_555 1_555
O6F V2F 1_555 1_555
O4B V1 1_555 1_555
O7B V1 1_555 1_555
O5G V2 1_555 1_555
V1B O4 1_555 1_555
V3E O4 1_555 1_555
V2B O5 1_555 1_555
V2G O5 1_555 1_555
N1F Cu1 1_555 1_555
N2F Cu1 1_555 1_555
Cu1B N1D 1_555 1_555
Cu1B_2 N2D 1_555 1_555
O4C V3F 1_555 1_555
O4F V3F 1_555 1_555
V1G O4E 1_555 1_555
V1D O7F 1_555 1_555
O4D V1F 1_555 1_555
O5F V1F 1_555 1_555
O7D V1F 1_555 1_555
O5A V2F 1_555 1_555
O5D V2F 1_555 1_555
V2E O5B 1_555 1_555
V3 O7 1_555 1_555
O7 V1B 1_555 1_555
N1D C1D 1_555 1_555
N2D C3D 1_555 1_555
O4E V3E 1_555 1_555
V2F O2F 1_555 1_555
O5B V1B 1_555 1_555
O7B V2B 1_555 1_555
O5G V2E 1_555 1_555
O4F V1D 1_555 1_555
V1D O5D 1_555 1_555

#END
