
#######################################################################
#
#                 Cambridge Crystallographic Data Centre
#                                CCDC 
#
#######################################################################
#
# If this CIF has been generated from an entry in the Cambridge 
# Structural Database, then it will include bibliographic, chemical, 
# crystal, experimental, refinement or atomic coordinate data resulting 
# from the CCDC's data processing and validation procedures.
#
#######################################################################

data_IJUXUG01
_symmetry_cell_setting           monoclinic
_symmetry_space_group_name_H-M   'C 2/c'
_symmetry_Int_Tables_number      15
_space_group_name_Hall           '-C 2yn'
loop_
_symmetry_equiv_pos_site_id
_symmetry_equiv_pos_as_xyz
1 x,y,z
2 1/2+x,1/2+y,z
3 x,-y,1/2+z
4 1/2+x,1/2-y,1/2+z
5 -x,-y,-z
6 1/2-x,1/2-y,-z
7 -x,y,1/2-z
8 1/2-x,1/2+y,1/2-z
_cell_length_a                   18.151(7)
_cell_length_b                   9.636(3)
_cell_length_c                   18.712(7)
_cell_angle_alpha                90
_cell_angle_beta                 112.672(5)
_cell_angle_gamma                90
_cell_volume                     3019.89
loop_
_atom_site_label
_atom_site_type_symbol
_atom_site_fract_x
_atom_site_fract_y
_atom_site_fract_z
Zn1 Zn 0.13128(3) -0.15714(4) 0.22939(2)
N1 N 0.00192(19) 0.2763(3) 0.44598(16)
O1 O 0.11049(15) -0.0033(2) 0.28480(13)
O2 O 0.14500(15) 0.1439(2) 0.21232(14)
O3 O 0.10397(16) 0.6518(2) 0.24801(13)
O4 O 0.11231(16) 0.7121(2) 0.36462(14)
O5 O -0.0363(2) 0.3677(3) 0.4607(2)
O6 O 0.00754(18) 0.1600(3) 0.47214(16)
C1 C 0.09720(18) 0.2331(3) 0.30481(16)
C2 C 0.10824(18) 0.3708(3) 0.28972(17)
H1 H 0.1298 0.3918 0.2533
C3 C 0.08782(19) 0.4768(3) 0.32789(17)
C4 C 0.05303(18) 0.4459(3) 0.38011(17)
H2 H 0.0382 0.5161 0.4059
C5 C 0.04108(19) 0.3096(3) 0.39267(17)
C6 C 0.06324(18) 0.2013(3) 0.35762(17)
H3 H 0.0557 0.1097 0.3689
C7 C 0.12006(19) 0.1173(3) 0.26333(18)
C8 C 0.1027(2) 0.6249(3) 0.31346(19)
C9 C 0.1872(2) -0.0817(4) 0.10318(19)
H4 H 0.1768 0.0088 0.1138
N2 N 0.17283(16) -0.1845(3) 0.14368(14)
C10 C 0.2167(2) -0.1029(4) 0.04662(19)
H5 H 0.2255 -0.0277 0.0198
C11 C 0.23323(18) -0.2368(3) 0.02951(16)
C12 C 0.2165(2) -0.3430(4) 0.07058(18)
H6 H 0.2250 -0.4347 0.0602
C13 C 0.1875(2) -0.3137(3) 0.12635(19)
H7 H 0.1775 -0.3872 0.1536
O7 O 0.01211(15) -0.1234(2) 0.13627(14)
H8 H -0.0242 -0.1705 0.1427
H9 H 0.0081 -0.1257 0.0898
O8 O 0.25356(14) -0.1688(3) 0.31300(13)
H10 H 0.2512 -0.1782 0.3571
H11 H 0.2802 -0.2216 0.3018
C11E C 0.26677(18) -0.2632(3) -0.02951(16)
C10E C 0.2833(2) -0.3971(4) -0.04662(19)
C9E C 0.3128(2) -0.4183(4) -0.10318(19)
H4E H 0.3232 -0.5088 -0.1138
N2E N 0.32717(16) -0.3155(3) -0.14368(14)
C13E C 0.3125(2) -0.1863(3) -0.12635(19)
C12E C 0.2835(2) -0.1570(4) -0.07058(18)
H6E H 0.2750 -0.0653 -0.0602
H7E H 0.3225 -0.1128 -0.1536
H5E H 0.2745 -0.4723 -0.0198
N1_2 N 0.00192(19) -0.7237(3) 0.44598(16)
O1_2 O 0.11049(15) -1.0033(2) 0.28480(13)
O2_2 O 0.14500(15) -0.8561(2) 0.21232(14)
O3_2 O 0.10397(16) -0.3482(2) 0.24801(13)
O4_2 O 0.11231(16) -0.2879(2) 0.36462(14)
O5_2 O -0.0363(2) -0.6323(3) 0.4607(2)
O6_2 O 0.00754(18) -0.8400(3) 0.47214(16)
C1_2 C 0.09720(18) -0.7669(3) 0.30481(16)
C2_2 C 0.10824(18) -0.6292(3) 0.28972(17)
H1_2 H 0.1298 -0.6082 0.2533
C3_2 C 0.08782(19) -0.5232(3) 0.32789(17)
C4_2 C 0.05303(18) -0.5541(3) 0.38011(17)
H2_2 H 0.0382 -0.4839 0.4059
C5_2 C 0.04108(19) -0.6904(3) 0.39267(17)
C6_2 C 0.06324(18) -0.7987(3) 0.35762(17)
H3_2 H 0.0557 -0.8903 0.3689
C7_2 C 0.12006(19) -0.8827(3) 0.26333(18)
C8_2 C 0.1027(2) -0.3751(3) 0.31346(19)
Zn1_2 Zn 0.13128(3) -1.15714(4) 0.22939(2)
O7_2 O 0.01211(15) -1.1234(2) 0.13627(14)
H8_2 H -0.0242 -1.1705 0.1427
H9_2 H 0.0081 -1.1257 0.0898
O8_2 O 0.25356(14) -1.1688(3) 0.31300(13)
H10_2 H 0.2512 -1.1782 0.3571
H11_2 H 0.2802 -1.2216 0.3018
Zn1_3 Zn 0.13128(3) 0.84286(4) 0.22939(2)
Zn1E Zn 0.36872(3) -0.34286(4) -0.22939(2)
O3_3 O 0.10397(16) -1.3482(2) 0.24801(13)
N2_2 N 0.17283(16) -1.1845(3) 0.14368(14)
O9 O 0.3125(2) 0.7901(5) 0.47599(18)
H12 H 0.2666 0.8249 0.4620
H13 H 0.3467 0.8432 0.4705
loop_
_geom_bond_atom_site_label_1
_geom_bond_atom_site_label_2
_geom_bond_site_symmetry_1
_geom_bond_site_symmetry_2
Zn1 O1 1_555 1_555
N1 O5 1_555 1_555
O1 C7 1_555 1_555
O2 C7 1_555 1_555
O3 C8 1_555 1_555
O4 C8 1_555 1_555
O6 N1 1_555 1_555
C1 C2 1_555 1_555
C2 H1 1_555 1_555
C3 C2 1_555 1_555
C4 C3 1_555 1_555
H2 C4 1_555 1_555
C5 N1 1_555 1_555
C6 C1 1_555 1_555
H3 C6 1_555 1_555
C7 C1 1_555 1_555
C8 C3 1_555 1_555
C9 H4 1_555 1_555
N2 Zn1 1_555 1_555
C10 C9 1_555 1_555
H5 C10 1_555 1_555
C11 C10 1_555 1_555
C12 C11 1_555 1_555
H6 C12 1_555 1_555
C13 N2 1_555 1_555
H7 C13 1_555 1_555
O7 Zn1 1_555 1_555
H8 O7 1_555 1_555
H9 O7 1_555 1_555
O8 Zn1 1_555 1_555
H10 O8 1_555 1_555
H11 O8 1_555 1_555
O9 H12 1_555 1_555
H13 O9 1_555 1_555
C11E C11 1_555 1_555
C10E C11E 1_555 1_555
C9E C10E 1_555 1_555
H4E C9E 1_555 1_555
N2E C9E 1_555 1_555
C13E N2E 1_555 1_555
C12E C11E 1_555 1_555
H6E C12E 1_555 1_555
H7E C13E 1_555 1_555
H5E C10E 1_555 1_555
N1_2 O5_2 1_555 1_555
O1_2 C7_2 1_555 1_555
O2_2 C7_2 1_555 1_555
O3_2 Zn1 1_555 1_555
O4_2 C8_2 1_555 1_555
O6_2 N1_2 1_555 1_555
C1_2 C2_2 1_555 1_555
C2_2 H1_2 1_555 1_555
C3_2 C2_2 1_555 1_555
C4_2 C3_2 1_555 1_555
H2_2 C4_2 1_555 1_555
C5_2 N1_2 1_555 1_555
C6_2 C1_2 1_555 1_555
H3_2 C6_2 1_555 1_555
C7_2 C1_2 1_555 1_555
C8_2 O3_2 1_555 1_555
Zn1_2 O1_2 1_555 1_555
O7_2 Zn1_2 1_555 1_555
H8_2 O7_2 1_555 1_555
H9_2 O7_2 1_555 1_555
O8_2 Zn1_2 1_555 1_555
H10_2 O8_2 1_555 1_555
H11_2 O8_2 1_555 1_555
Zn1_3 O3 1_555 1_555
Zn1E N2E 1_555 1_555
O3_3 Zn1_2 1_555 1_555
N2_2 Zn1_2 1_555 1_555
C4 C5 1_555 1_555
C5 C6 1_555 1_555
C9 N2 1_555 1_555
C12 C13 1_555 1_555
C13E C12E 1_555 1_555
C3_2 C8_2 1_555 1_555
C4_2 C5_2 1_555 1_555
C5_2 C6_2 1_555 1_555

#END
