
#######################################################################
#
#                 Cambridge Crystallographic Data Centre
#                                CCDC 
#
#######################################################################
#
# If this CIF has been generated from an entry in the Cambridge 
# Structural Database, then it will include bibliographic, chemical, 
# crystal, experimental, refinement or atomic coordinate data resulting 
# from the CCDC's data processing and validation procedures.
#
#######################################################################

data_IJUYIV
_symmetry_cell_setting           triclinic
_symmetry_space_group_name_H-M   'P -1'
_symmetry_Int_Tables_number      2
_space_group_name_Hall           '-P 1'
loop_
_symmetry_equiv_pos_site_id
_symmetry_equiv_pos_as_xyz
1 x,y,z
2 -x,-y,-z
_cell_length_a                   8.4259(4)
_cell_length_b                   9.7094(4)
_cell_length_c                   10.1815(5)
_cell_angle_alpha                73.994(2)
_cell_angle_beta                 88.189(2)
_cell_angle_gamma                75.117(2)
_cell_volume                     773.111
loop_
_atom_site_label
_atom_site_type_symbol
_atom_site_fract_x
_atom_site_fract_y
_atom_site_fract_z
Zn1 Zn 0.52631(4) 0.76190(3) 0.62159(3)
O1 O 0.4121(3) 0.8718(2) 0.44217(18)
O2 O 0.3992(3) 0.8744(2) -0.25819(17)
O3 O 0.5348(3) 0.6645(2) 0.3891(2)
O4 O 0.6030(3) 0.7223(2) -0.11709(19)
O5 O 0.4875(3) 0.5648(2) 0.7029(2)
H1 H 0.418(4) 0.565(4) 0.764(3)
H2 H 0.487(4) 0.499(3) 0.663(3)
N1 N 0.0545(4) 1.1927(3) 0.0208(3)
N2 N 0.7691(3) 0.7291(3) 0.5923(2)
C1 C 0.4482(4) 0.7933(3) 0.3582(3)
C2 C 0.3783(3) 0.8672(3) 0.2140(2)
C3 C 0.4473(3) 0.8099(3) 0.1078(2)
H5 H 0.5346 0.7252 0.1270
C4 C 0.3876(3) 0.8774(3) -0.0261(2)
C5 C 0.4709(4) 0.8182(3) -0.1401(2)
C6 C 0.2558(4) 1.0018(3) -0.0550(3)
H6 H 0.2123 1.0467 -0.1439
C7 C 0.1903(3) 1.0576(3) 0.0517(3)
C8 C 0.2494(3) 0.9934(3) 0.1856(3)
H7 H 0.2033 1.0342 0.2550
C9 C 0.8758(4) 0.6082(4) 0.6676(3)
H8 H 0.8370 0.5462 0.7410
C10 C 1.0402(5) 0.5709(5) 0.6420(4)
H9 H 1.1106 0.4845 0.6955
C11 C 1.0974(5) 0.6636(6) 0.5364(5)
H10 H 1.2081 0.6415 0.5166
C12 C 0.9905(5) 0.7893(5) 0.4598(5)
H11 H 1.0280 0.8542 0.3880
C13 C 0.8272(5) 0.8192(4) 0.4897(4)
H12 H 0.7550 0.9049 0.4368
O7 O -0.0094(4) 1.2342(3) 0.1166(3)
O8 O 0.0095(4) 1.2556(3) -0.0966(3)
O2_2 O 0.3992(3) 0.8744(2) 0.74181(17)
Zn1_2 Zn 0.52631(4) 0.76190(3) -0.37841(3)
O6 O 0.3084(4) 0.5378(4) 0.9186(3)
H3 H 0.325(5) 0.463(3) 0.988(3)
H4 H 0.221(3) 0.601(4) 0.923(4)
loop_
_geom_bond_atom_site_label_1
_geom_bond_atom_site_label_2
_geom_bond_site_symmetry_1
_geom_bond_site_symmetry_2
Zn1 O1 1_555 1_555
O1 C1 1_555 1_555
O2 C5 1_555 1_555
O3 C1 1_555 1_555
O4 C5 1_555 1_555
O5 Zn1 1_555 1_555
H1 O5 1_555 1_555
H2 O5 1_555 1_555
O6 H3 1_555 1_555
H4 O6 1_555 1_555
N1 C7 1_555 1_555
N2 Zn1 1_555 1_555
C1 C2 1_555 1_555
C2 C3 1_555 1_555
C3 H5 1_555 1_555
C4 C3 1_555 1_555
C5 C4 1_555 1_555
C6 C4 1_555 1_555
H6 C6 1_555 1_555
C7 C6 1_555 1_555
C8 C2 1_555 1_555
H7 C8 1_555 1_555
C9 N2 1_555 1_555
H8 C9 1_555 1_555
C10 C9 1_555 1_555
H9 C10 1_555 1_555
C11 C10 1_555 1_555
H10 C11 1_555 1_555
C12 C11 1_555 1_555
H11 C12 1_555 1_555
C13 N2 1_555 1_555
H12 C13 1_555 1_555
O7 N1 1_555 1_555
O8 N1 1_555 1_555
O2_2 Zn1 1_555 1_555
Zn1_2 O2 1_555 1_555
C7 C8 1_555 1_555
C12 C13 1_555 1_555

#END
