
#######################################################################
#
#                 Cambridge Crystallographic Data Centre
#                                CCDC 
#
#######################################################################
#
# If this CIF has been generated from an entry in the Cambridge 
# Structural Database, then it will include bibliographic, chemical, 
# crystal, experimental, refinement or atomic coordinate data resulting 
# from the CCDC's data processing and validation procedures.
#
#######################################################################

data_IKAVIZ
_symmetry_cell_setting           cubic
_symmetry_space_group_name_H-M   'I 2 3'
_symmetry_Int_Tables_number      197
_space_group_name_Hall           'I 2 2 3'
loop_
_symmetry_equiv_pos_site_id
_symmetry_equiv_pos_as_xyz
1 x,y,z
2 -x,-y,z
3 -x,y,-z
4 x,-y,-z
5 z,x,y
6 z,-x,-y
7 -z,-x,y
8 -z,x,-y
9 y,z,x
10 -y,z,-x
11 y,-z,-x
12 -y,-z,x
13 1/2+x,1/2+y,1/2+z
14 1/2-x,1/2-y,1/2+z
15 1/2-x,1/2+y,1/2-z
16 1/2+x,1/2-y,1/2-z
17 1/2+z,1/2+x,1/2+y
18 1/2+z,1/2-x,1/2-y
19 1/2-z,1/2-x,1/2+y
20 1/2-z,1/2+x,1/2-y
21 1/2+y,1/2+z,1/2+x
22 1/2-y,1/2+z,1/2-x
23 1/2+y,1/2-z,1/2-x
24 1/2-y,1/2-z,1/2+x
_cell_length_a                   16.3198(11)
_cell_length_b                   16.3198(11)
_cell_length_c                   16.3198(11)
_cell_angle_alpha                90
_cell_angle_beta                 90
_cell_angle_gamma                90
_cell_volume                     4346.55
loop_
_atom_site_label
_atom_site_type_symbol
_atom_site_fract_x
_atom_site_fract_y
_atom_site_fract_z
C10 C 0.0000 1.0000 -0.0458(16)
C11 C 0.0000 1.0000 -0.137(4)
C10B C 0.0000 1.0000 0.0458(16)
C10G C 0.0458(16) 1.0000 0.0000
C10E C -0.0458(16) 1.0000 0.0000
C10J C 0.0000 1.0458(16) 0.0000
C10H C 0.0000 0.9542(16) 0.0000
C11E C -0.137(4) 1.0000 0.0000
C11H C 0.0000 0.863(4) 0.0000
C11B C 0.0000 1.0000 0.137(4)
C11G C 0.137(4) 1.0000 0.0000
C11J C 0.0000 1.137(4) 0.0000
Cu1 Cu 0.0000 0.5000 0.0000
O1 O 0.0030(6) 0.5847(2) -0.08241(18)
C1 C 0.0082(5) 0.5764(3) -0.1587(3)
C2 C 0.0000 0.5000 -0.1986(4)
C3 C 0.0215(3) 0.6552(4) -0.2028(4)
C4 C 0.0789(5) 0.6645(5) -0.2638(4)
H1 H 0.1079 0.6192 -0.2826
C5 C 0.0937(7) 0.7413(6) -0.2973(5)
H2 H 0.1338 0.7472 -0.3373
C6 C 0.0512(8) 0.8065(7) -0.2730(7)
H3 H 0.0612 0.8572 -0.2970
C7 C -0.0083(11) 0.7995(5) -0.2118(6)
H4 H -0.0386 0.8447 -0.1949
C8 C -0.0203(6) 0.7230(4) -0.1774(4)
H5 H -0.0584 0.7176 -0.1354
C9 C 0.0000 0.5000 -0.2865(5)
N1 N 0.0000 0.5000 -0.3571(4)
C1A C -0.0082(5) 0.4236(3) -0.1587(3)
O1A O -0.0030(6) 0.4153(2) -0.08241(18)
C3A C -0.0215(3) 0.3448(4) -0.2028(4)
C4A C -0.0789(5) 0.3355(5) -0.2638(4)
H1A H -0.1079 0.3808 -0.2826
C5A C -0.0937(7) 0.2587(6) -0.2973(5)
H2A H -0.1338 0.2528 -0.3373
C6A C -0.0512(8) 0.1935(7) -0.2730(7)
H3A H -0.0612 0.1428 -0.2970
C7A C 0.0083(11) 0.2005(5) -0.2118(6)
H4A H 0.0386 0.1553 -0.1949
C8A C 0.0203(6) 0.2770(4) -0.1774(4)
H5A H 0.0584 0.2824 -0.1354
O1B O -0.0030(6) 0.5847(2) 0.08241(18)
C1B C -0.0082(5) 0.5764(3) 0.1587(3)
C2B C 0.0000 0.5000 0.1986(4)
C3B C -0.0215(3) 0.6552(4) 0.2028(4)
C4B C -0.0789(5) 0.6645(5) 0.2638(4)
H1B H -0.1079 0.6192 0.2826
C5B C -0.0937(7) 0.7413(6) 0.2973(5)
H2B H -0.1338 0.7472 0.3373
C6B C -0.0512(8) 0.8065(7) 0.2730(7)
H3B H -0.0612 0.8572 0.2970
C7B C 0.0083(11) 0.7995(5) 0.2118(6)
H4B H 0.0386 0.8447 0.1949
C8B C 0.0203(6) 0.7230(4) 0.1774(4)
H5B H 0.0584 0.7176 0.1354
C9B C 0.0000 0.5000 0.2865(5)
N1B N 0.0000 0.5000 0.3571(4)
C1C C 0.0082(5) 0.4236(3) 0.1587(3)
O1C O 0.0030(6) 0.4153(2) 0.08241(18)
C3C C 0.0215(3) 0.3448(4) 0.2028(4)
C4C C 0.0789(5) 0.3355(5) 0.2638(4)
H1C H 0.1079 0.3808 0.2826
C5C C 0.0937(7) 0.2587(6) 0.2973(5)
H2C H 0.1338 0.2528 0.3373
C6C C 0.0512(8) 0.1935(7) 0.2730(7)
H3C H 0.0612 0.1428 0.2970
C7C C -0.0083(11) 0.2005(5) 0.2118(6)
H4C H -0.0386 0.1553 0.1949
C8C C -0.0203(6) 0.2770(4) 0.1774(4)
H5C H -0.0584 0.2824 0.1354
O1P O 0.41759(18) 0.5030(6) 0.0847(2)
C1P C 0.3413(3) 0.5082(5) 0.0764(3)
C2P C 0.3014(4) 0.5000 0.0000
C3P C 0.2972(4) 0.5215(3) 0.1552(4)
C4P C 0.2362(4) 0.5789(5) 0.1645(5)
H1P H 0.2174 0.6079 0.1192
C5P C 0.2027(5) 0.5937(7) 0.2413(6)
H2P H 0.1627 0.6338 0.2472
C6P C 0.2270(7) 0.5512(8) 0.3065(7)
H3P H 0.2030 0.5612 0.3572
C7P C 0.2882(6) 0.4917(11) 0.2995(5)
H4P H 0.3051 0.4614 0.3447
C8P C 0.3226(4) 0.4797(6) 0.2230(4)
H5P H 0.3646 0.4416 0.2176
C9P C 0.2135(5) 0.5000 0.0000
N1P N 0.1429(4) 0.5000 0.0000
C1Q C 0.3413(3) 0.4918(5) -0.0764(3)
O1Q O 0.41759(18) 0.4970(6) -0.0847(2)
C3Q C 0.2972(4) 0.4785(3) -0.1552(4)
C4Q C 0.2362(4) 0.4211(5) -0.1645(5)
H1Q H 0.2174 0.3921 -0.1192
C5Q C 0.2027(5) 0.4063(7) -0.2413(6)
H2Q H 0.1627 0.3662 -0.2472
C6Q C 0.2270(7) 0.4488(8) -0.3065(7)
H3Q H 0.2030 0.4388 -0.3572
C7Q C 0.2882(6) 0.5083(11) -0.2995(5)
H4Q H 0.3051 0.5386 -0.3447
C8Q C 0.3226(4) 0.5203(6) -0.2230(4)
H5Q H 0.3646 0.5584 -0.2176
O1R O -0.41759(18) 0.4970(6) 0.0847(2)
C1R C -0.3413(3) 0.4918(5) 0.0764(3)
C2R C -0.3014(4) 0.5000 0.0000
C3R C -0.2972(4) 0.4785(3) 0.1552(4)
C4R C -0.2362(4) 0.4211(5) 0.1645(5)
H1R H -0.2174 0.3921 0.1192
C5R C -0.2027(5) 0.4063(7) 0.2413(6)
H2R H -0.1627 0.3662 0.2472
C6R C -0.2270(7) 0.4488(8) 0.3065(7)
H3R H -0.2030 0.4388 0.3572
C7R C -0.2882(6) 0.5083(11) 0.2995(5)
H4R H -0.3051 0.5386 0.3447
C8R C -0.3226(4) 0.5203(6) 0.2230(4)
H5R H -0.3646 0.5584 0.2176
C9R C -0.2135(5) 0.5000 0.0000
N1R N -0.1429(4) 0.5000 0.0000
C1S C -0.3413(3) 0.5082(5) -0.0764(3)
O1S O -0.41759(18) 0.5030(6) -0.0847(2)
C3S C -0.2972(4) 0.5215(3) -0.1552(4)
C4S C -0.2362(4) 0.5789(5) -0.1645(5)
H1S H -0.2174 0.6079 -0.1192
C5S C -0.2027(5) 0.5937(7) -0.2413(6)
H2S H -0.1627 0.6338 -0.2472
C6S C -0.2270(7) 0.5512(8) -0.3065(7)
H3S H -0.2030 0.5612 -0.3572
C7S C -0.2882(6) 0.4917(11) -0.2995(5)
H4S H -0.3051 0.4614 -0.3447
C8S C -0.3226(4) 0.4797(6) -0.2230(4)
H5S H -0.3646 0.4416 -0.2176
Cu1P Cu 0.5000 0.5000 0.0000
Cu1R Cu -0.5000 0.5000 0.0000
O1R_2 O 0.58241(18) 0.4970(6) 0.0847(2)
C1R_2 C 0.6587(3) 0.4918(5) 0.0764(3)
C2R_2 C 0.6986(4) 0.5000 0.0000
C3R_2 C 0.7028(4) 0.4785(3) 0.1552(4)
C4R_2 C 0.7638(4) 0.4211(5) 0.1645(5)
H1R_2 H 0.7826 0.3921 0.1192
C5R_2 C 0.7973(5) 0.4063(7) 0.2413(6)
H2R_2 H 0.8373 0.3662 0.2472
C6R_2 C 0.7730(7) 0.4488(8) 0.3065(7)
H3R_2 H 0.7970 0.4388 0.3572
C7R_2 C 0.7118(6) 0.5083(11) 0.2995(5)
H4R_2 H 0.6949 0.5386 0.3447
C8R_2 C 0.6774(4) 0.5203(6) 0.2230(4)
H5R_2 H 0.6354 0.5584 0.2176
C9R_2 C 0.7865(5) 0.5000 0.0000
N1R_2 N 0.8571(4) 0.5000 0.0000
C1S_2 C 0.6587(3) 0.5082(5) -0.0764(3)
O1S_2 O 0.58241(18) 0.5030(6) -0.0847(2)
C3S_2 C 0.7028(4) 0.5215(3) -0.1552(4)
C4S_2 C 0.7638(4) 0.5789(5) -0.1645(5)
H1S_2 H 0.7826 0.6079 -0.1192
C5S_2 C 0.7973(5) 0.5937(7) -0.2413(6)
H2S_2 H 0.8373 0.6338 -0.2472
C6S_2 C 0.7730(7) 0.5512(8) -0.3065(7)
H3S_2 H 0.7970 0.5612 -0.3572
C7S_2 C 0.7118(6) 0.4917(11) -0.2995(5)
H4S_2 H 0.6949 0.4614 -0.3447
C8S_2 C 0.6774(4) 0.4797(6) -0.2230(4)
H5S_2 H 0.6354 0.4416 -0.2176
O1H O 0.5847(2) 0.91759(18) 0.0030(6)
C1H C 0.5764(3) 0.8413(3) 0.0082(5)
C2H C 0.5000 0.8014(4) 0.0000
C3H C 0.6552(4) 0.7972(4) 0.0215(3)
C4H C 0.6645(5) 0.7362(4) 0.0789(5)
H1H H 0.6192 0.7174 0.1079
C5H C 0.7413(6) 0.7027(5) 0.0937(7)
H2H H 0.7472 0.6627 0.1338
C6H C 0.8065(7) 0.7270(7) 0.0512(8)
H3H H 0.8572 0.7030 0.0612
C7H C 0.7995(5) 0.7882(6) -0.0083(11)
H4H H 0.8447 0.8051 -0.0386
C8H C 0.7230(4) 0.8226(4) -0.0203(6)
H5H H 0.7176 0.8646 -0.0584
C9H C 0.5000 0.7135(5) 0.0000
N1H N 0.5000 0.6429(4) 0.0000
C1I C 0.4236(3) 0.8413(3) -0.0082(5)
O1I O 0.4153(2) 0.91759(18) -0.0030(6)
C3I C 0.3448(4) 0.7972(4) -0.0215(3)
C4I C 0.3355(5) 0.7362(4) -0.0789(5)
H1I H 0.3808 0.7174 -0.1079
C5I C 0.2587(6) 0.7027(5) -0.0937(7)
H2I H 0.2528 0.6627 -0.1338
C6I C 0.1935(7) 0.7270(7) -0.0512(8)
H3I H 0.1428 0.7030 -0.0612
C7I C 0.2005(5) 0.7882(6) 0.0083(11)
H4I H 0.1553 0.8051 0.0386
C8I C 0.2770(4) 0.8226(4) 0.0203(6)
H5I H 0.2824 0.8646 0.0584
Cu1T Cu 0.0000 0.5000 -0.5000
Cu1T_2 Cu 0.0000 0.5000 0.5000
N1J N 0.5000 0.3571(4) 0.0000
O1P_2 O -0.58241(18) 0.5030(6) 0.0847(2)
O1Q_2 O -0.58241(18) 0.4970(6) -0.0847(2)
N1H_2 N -0.5000 0.6429(4) 0.0000
N1J_2 N -0.5000 0.3571(4) 0.0000
Cu1_2 Cu 1.0000 0.5000 0.0000
Cu1H Cu 0.5000 1.0000 0.0000
loop_
_geom_bond_atom_site_label_1
_geom_bond_atom_site_label_2
_geom_bond_site_symmetry_1
_geom_bond_site_symmetry_2
Cu1 O1 1_555 1_555
O1 C1 1_555 1_555
C1 C2 1_555 1_555
C2 C9 1_555 1_555
C3 C1 1_555 1_555
C4 C3 1_555 1_555
H1 C4 1_555 1_555
C5 C4 1_555 1_555
H2 C5 1_555 1_555
C6 C5 1_555 1_555
H3 C6 1_555 1_555
C7 C6 1_555 1_555
H4 C7 1_555 1_555
C8 C3 1_555 1_555
H5 C8 1_555 1_555
C9 N1 1_555 1_555
N1 Cu1T 1_555 1_555
C10 C11 1_555 1_555
C1A C2 1_555 1_555
O1A Cu1 1_555 1_555
C3A C1A 1_555 1_555
C4A C3A 1_555 1_555
H1A C4A 1_555 1_555
C5A C4A 1_555 1_555
H2A C5A 1_555 1_555
C6A C5A 1_555 1_555
H3A C6A 1_555 1_555
C7A C6A 1_555 1_555
H4A C7A 1_555 1_555
C8A C3A 1_555 1_555
H5A C8A 1_555 1_555
C10B C10 1_555 1_555
C10G C10 1_555 1_555
C10E C10 1_555 1_555
C10J C10 1_555 1_555
C10H C10 1_555 1_555
C11E C10E 1_555 1_555
C11H C10H 1_555 1_555
C11B C10B 1_555 1_555
C11G C10G 1_555 1_555
C11J C10J 1_555 1_555
O1B Cu1 1_555 1_555
C1B O1B 1_555 1_555
C2B C1B 1_555 1_555
C3B C1B 1_555 1_555
C4B C3B 1_555 1_555
H1B C4B 1_555 1_555
C5B C4B 1_555 1_555
H2B C5B 1_555 1_555
C6B C5B 1_555 1_555
H3B C6B 1_555 1_555
C7B C6B 1_555 1_555
H4B C7B 1_555 1_555
C8B C3B 1_555 1_555
H5B C8B 1_555 1_555
C9B C2B 1_555 1_555
N1B C9B 1_555 1_555
C1C C2B 1_555 1_555
O1C Cu1 1_555 1_555
C3C C1C 1_555 1_555
C4C C3C 1_555 1_555
H1C C4C 1_555 1_555
C5C C4C 1_555 1_555
H2C C5C 1_555 1_555
C6C C5C 1_555 1_555
H3C C6C 1_555 1_555
C7C C6C 1_555 1_555
H4C C7C 1_555 1_555
C8C C3C 1_555 1_555
H5C C8C 1_555 1_555
O1P C1P 1_555 1_555
C1P C2P 1_555 1_555
C2P C9P 1_555 1_555
C3P C1P 1_555 1_555
C4P C3P 1_555 1_555
H1P C4P 1_555 1_555
C5P C4P 1_555 1_555
H2P C5P 1_555 1_555
C6P C5P 1_555 1_555
H3P C6P 1_555 1_555
C7P C6P 1_555 1_555
H4P C7P 1_555 1_555
C8P C3P 1_555 1_555
H5P C8P 1_555 1_555
C9P N1P 1_555 1_555
N1P Cu1 1_555 1_555
C1Q C2P 1_555 1_555
O1Q C1Q 1_555 1_555
C3Q C1Q 1_555 1_555
C4Q C3Q 1_555 1_555
H1Q C4Q 1_555 1_555
C5Q C4Q 1_555 1_555
H2Q C5Q 1_555 1_555
C6Q C5Q 1_555 1_555
H3Q C6Q 1_555 1_555
C7Q C6Q 1_555 1_555
H4Q C7Q 1_555 1_555
C8Q C3Q 1_555 1_555
H5Q C8Q 1_555 1_555
O1R C1R 1_555 1_555
C1R C2R 1_555 1_555
C2R C9R 1_555 1_555
C3R C1R 1_555 1_555
C4R C3R 1_555 1_555
H1R C4R 1_555 1_555
C5R C4R 1_555 1_555
H2R C5R 1_555 1_555
C6R C5R 1_555 1_555
H3R C6R 1_555 1_555
C7R C6R 1_555 1_555
H4R C7R 1_555 1_555
C8R C3R 1_555 1_555
H5R C8R 1_555 1_555
C9R N1R 1_555 1_555
N1R Cu1 1_555 1_555
C1S C2R 1_555 1_555
O1S C1S 1_555 1_555
C3S C1S 1_555 1_555
C4S C3S 1_555 1_555
H1S C4S 1_555 1_555
C5S C4S 1_555 1_555
H2S C5S 1_555 1_555
C6S C5S 1_555 1_555
H3S C6S 1_555 1_555
C7S C6S 1_555 1_555
H4S C7S 1_555 1_555
C8S C3S 1_555 1_555
H5S C8S 1_555 1_555
Cu1P O1P 1_555 1_555
Cu1R O1R 1_555 1_555
O1R_2 Cu1P 1_555 1_555
C1R_2 O1R_2 1_555 1_555
C2R_2 C1R_2 1_555 1_555
C3R_2 C1R_2 1_555 1_555
C4R_2 C3R_2 1_555 1_555
H1R_2 C4R_2 1_555 1_555
C5R_2 C4R_2 1_555 1_555
H2R_2 C5R_2 1_555 1_555
C6R_2 C5R_2 1_555 1_555
H3R_2 C6R_2 1_555 1_555
C7R_2 C6R_2 1_555 1_555
H4R_2 C7R_2 1_555 1_555
C8R_2 C3R_2 1_555 1_555
H5R_2 C8R_2 1_555 1_555
C9R_2 C2R_2 1_555 1_555
N1R_2 C9R_2 1_555 1_555
C1S_2 C2R_2 1_555 1_555
O1S_2 Cu1P 1_555 1_555
C3S_2 C1S_2 1_555 1_555
C4S_2 C3S_2 1_555 1_555
H1S_2 C4S_2 1_555 1_555
C5S_2 C4S_2 1_555 1_555
H2S_2 C5S_2 1_555 1_555
C6S_2 C5S_2 1_555 1_555
H3S_2 C6S_2 1_555 1_555
C7S_2 C6S_2 1_555 1_555
H4S_2 C7S_2 1_555 1_555
C8S_2 C3S_2 1_555 1_555
H5S_2 C8S_2 1_555 1_555
O1H C1H 1_555 1_555
C1H C2H 1_555 1_555
C2H C9H 1_555 1_555
C3H C1H 1_555 1_555
C4H C3H 1_555 1_555
H1H C4H 1_555 1_555
C5H C4H 1_555 1_555
H2H C5H 1_555 1_555
C6H C5H 1_555 1_555
H3H C6H 1_555 1_555
C7H C6H 1_555 1_555
H4H C7H 1_555 1_555
C8H C3H 1_555 1_555
H5H C8H 1_555 1_555
C9H N1H 1_555 1_555
N1H Cu1P 1_555 1_555
C1I C2H 1_555 1_555
O1I C1I 1_555 1_555
C3I C1I 1_555 1_555
C4I C3I 1_555 1_555
H1I C4I 1_555 1_555
C5I C4I 1_555 1_555
H2I C5I 1_555 1_555
C6I C5I 1_555 1_555
H3I C6I 1_555 1_555
C7I C6I 1_555 1_555
H4I C7I 1_555 1_555
C8I C3I 1_555 1_555
H5I C8I 1_555 1_555
Cu1T_2 N1B 1_555 1_555
N1J Cu1P 1_555 1_555
O1P_2 Cu1R 1_555 1_555
O1Q_2 Cu1R 1_555 1_555
N1H_2 Cu1R 1_555 1_555
N1J_2 Cu1R 1_555 1_555
Cu1_2 N1R_2 1_555 1_555
Cu1H O1H 1_555 1_555
C7 C8 1_555 1_555
C1A O1A 1_555 1_555
C7A C8A 1_555 1_555
C10B C10G 1_555 1_555
C10B C10E 1_555 1_555
C10B C10H 1_555 1_555
C10B C10J 1_555 1_555
C10G C10E 1_555 1_555
C10G C10H 1_555 1_555
C10G C10J 1_555 1_555
C10E C10J 1_555 1_555
C10E C10H 1_555 1_555
C10J C10H 1_555 1_555
C7B C8B 1_555 1_555
C1C O1C 1_555 1_555
C7C C8C 1_555 1_555
C7P C8P 1_555 1_555
O1Q Cu1P 1_555 1_555
C7Q C8Q 1_555 1_555
C7R C8R 1_555 1_555
O1S Cu1R 1_555 1_555
C7S C8S 1_555 1_555
C7R_2 C8R_2 1_555 1_555
C1S_2 O1S_2 1_555 1_555
C7S_2 C8S_2 1_555 1_555
C7H C8H 1_555 1_555
O1I Cu1H 1_555 1_555
C7I C8I 1_555 1_555

#END
