
#######################################################################
#
#                 Cambridge Crystallographic Data Centre
#                                CCDC 
#
#######################################################################
#
# If this CIF has been generated from an entry in the Cambridge 
# Structural Database, then it will include bibliographic, chemical, 
# crystal, experimental, refinement or atomic coordinate data resulting 
# from the CCDC's data processing and validation procedures.
#
#######################################################################

data_IKAXUN
_symmetry_cell_setting           monoclinic
_symmetry_space_group_name_H-M   'P 21/c'
_symmetry_Int_Tables_number      14
_space_group_name_Hall           '-P 2ybc'
loop_
_symmetry_equiv_pos_site_id
_symmetry_equiv_pos_as_xyz
1 x,y,z
2 -x,1/2+y,1/2-z
3 -x,-y,-z
4 x,1/2-y,1/2+z
_cell_length_a                   12.565(6)
_cell_length_b                   16.005(8)
_cell_length_c                   12.891(6)
_cell_angle_alpha                90
_cell_angle_beta                 102.173(8)
_cell_angle_gamma                90
_cell_volume                     2534.13
loop_
_atom_site_label
_atom_site_type_symbol
_atom_site_fract_x
_atom_site_fract_y
_atom_site_fract_z
Eu1 Eu 0.54712(3) 0.076436(19) 0.38722(2)
N1 N 0.7343(5) 0.0392(3) 0.3338(4)
N2 N 0.5402(5) -0.0053(3) 0.2091(4)
C1 C 0.8293(7) 0.0639(5) 0.3900(6)
H1 H 0.8297 0.1001 0.4466
C2 C 0.9301(7) 0.0387(5) 0.3693(7)
H2 H 0.9950 0.0591 0.4097
C3 C 0.9305(7) -0.0165(6) 0.2888(6)
H3 H 0.9961 -0.0355 0.2752
C4 C 0.8323(7) -0.0443(5) 0.2268(6)
C5 C 0.8258(8) -0.1030(5) 0.1398(6)
H4 H 0.8895 -0.1246 0.1245
C6 C 0.7286(7) -0.1267(5) 0.0807(6)
H5 H 0.7265 -0.1644 0.0254
C7 C 0.6298(6) -0.0953(4) 0.1015(5)
C8 C 0.5291(7) -0.1173(4) 0.0407(5)
H6 H 0.5244 -0.1558 -0.0141
C9 C 0.4353(7) -0.0816(4) 0.0620(5)
H7 H 0.3670 -0.0950 0.0216
C10 C 0.4465(6) -0.0251(4) 0.1453(5)
H8 H 0.3838 0.0006 0.1572
C11 C 0.6326(6) -0.0400(4) 0.1889(5)
C12 C 0.7355(6) -0.0149(4) 0.2521(5)
C13 C 0.7872(7) 0.2168(4) 0.6470(5)
C14 C 0.8080(6) 0.1572(4) 0.7391(5)
C15 C 0.8737(6) 0.1875(5) 0.8344(5)
H9 H 0.8971 0.2428 0.8383
C16 C 0.9034(7) 0.1366(5) 0.9210(6)
H10 H 0.9438 0.1583 0.9841
C17 C 0.8737(6) 0.0528(5) 0.9156(6)
H11 H 0.8970 0.0177 0.9734
C18 C 0.8086(6) 0.0222(5) 0.8226(5)
H12 H 0.7886 -0.0338 0.8184
C19 C 0.7727(5) 0.0749(4) 0.7349(5)
C20 C 0.6893(5) 0.0401(4) 0.6416(5)
O1 O 0.8555(5) 0.2287(4) 0.5948(5)
O2 O 0.6943(5) 0.2580(3) 0.6253(4)
O3 O 0.6770(4) 0.0812(3) 0.5555(3)
O4 O 0.6379(4) -0.0236(3) 0.6578(3)
C21 C 0.5907(5) -0.1383(4) 0.4632(5)
C22 C 0.6800(5) -0.1766(4) 0.4176(5)
C23 C 0.7870(6) -0.1573(4) 0.4630(6)
H13 H 0.8017 -0.1180 0.5173
C24 C 0.8726(6) -0.1953(5) 0.4292(7)
H14 H 0.9442 -0.1820 0.4606
C25 C 0.8498(7) -0.2539(5) 0.3473(6)
H15 H 0.9067 -0.2792 0.3232
C26 C 0.7460(6) -0.2741(4) 0.3027(5)
H16 H 0.7325 -0.3133 0.2483
C27 C 0.6568(6) -0.2368(4) 0.3373(5)
C28 C 0.5433(6) -0.2626(4) 0.2889(4)
O5 O 0.5618(4) -0.0626(2) 0.4401(3)
O6 O 0.5518(4) -0.1795(3) 0.5286(3)
O7 O 0.4680(4) -0.2119(3) 0.2860(3)
O8 O 0.5316(4) -0.3370(3) 0.2549(3)
O9 O 0.6564(4) 0.2067(3) 0.3966(4)
H17 H 0.618(5) 0.250(3) 0.364(4)
H18 H 0.647(6) 0.243(6) 0.665(6)
H19 H 0.684(7) 0.235(5) 0.456(4)
O4B O 0.3621(4) 0.0236(3) 0.3422(3)
O6B O 0.4482(4) 0.1795(3) 0.4714(3)
O8A O 0.4684(4) 0.1630(3) 0.2451(3)
Eu1B Eu 0.45288(3) -0.076436(19) 0.61278(2)
Eu1A Eu 0.45288(3) -0.423564(19) 0.11278(2)
loop_
_geom_bond_atom_site_label_1
_geom_bond_atom_site_label_2
_geom_bond_site_symmetry_1
_geom_bond_site_symmetry_2
Eu1 N1 1_555 1_555
N1 C1 1_555 1_555
N2 Eu1 1_555 1_555
C1 H1 1_555 1_555
C2 C1 1_555 1_555
H2 C2 1_555 1_555
C3 C2 1_555 1_555
H3 C3 1_555 1_555
C4 C3 1_555 1_555
C5 C4 1_555 1_555
H4 C5 1_555 1_555
C6 C5 1_555 1_555
H5 C6 1_555 1_555
C7 C6 1_555 1_555
C8 C7 1_555 1_555
H6 C8 1_555 1_555
C9 C8 1_555 1_555
H7 C9 1_555 1_555
C10 N2 1_555 1_555
H8 C10 1_555 1_555
C11 N2 1_555 1_555
C12 N1 1_555 1_555
C13 C14 1_555 1_555
C14 C15 1_555 1_555
C15 H9 1_555 1_555
C16 C15 1_555 1_555
H10 C16 1_555 1_555
C17 C16 1_555 1_555
H11 C17 1_555 1_555
C18 C17 1_555 1_555
H12 C18 1_555 1_555
C19 C14 1_555 1_555
C20 C19 1_555 1_555
O1 C13 1_555 1_555
O2 C13 1_555 1_555
O3 Eu1 1_555 1_555
O4 C20 1_555 1_555
C21 C22 1_555 1_555
C22 C23 1_555 1_555
C23 H13 1_555 1_555
C24 C23 1_555 1_555
H14 C24 1_555 1_555
C25 C24 1_555 1_555
H15 C25 1_555 1_555
C26 C25 1_555 1_555
H16 C26 1_555 1_555
C27 C22 1_555 1_555
C28 C27 1_555 1_555
O5 Eu1 1_555 1_555
O6 C21 1_555 1_555
O7 C28 1_555 1_555
O8 C28 1_555 1_555
O9 Eu1 1_555 1_555
H17 O9 1_555 1_555
H18 O2 1_555 1_555
H19 O9 1_555 1_555
O4B Eu1 1_555 1_555
O6B Eu1 1_555 1_555
O8A Eu1 1_555 1_555
Eu1B O4 1_555 1_555
Eu1A O8 1_555 1_555
C4 C12 1_555 1_555
C7 C11 1_555 1_555
C9 C10 1_555 1_555
C11 C12 1_555 1_555
C18 C19 1_555 1_555
C20 O3 1_555 1_555
C21 O5 1_555 1_555
C26 C27 1_555 1_555
O6 Eu1B 1_555 1_555

#END
