
#######################################################################
#
#                 Cambridge Crystallographic Data Centre
#                                CCDC 
#
#######################################################################
#
# If this CIF has been generated from an entry in the Cambridge 
# Structural Database, then it will include bibliographic, chemical, 
# crystal, experimental, refinement or atomic coordinate data resulting 
# from the CCDC's data processing and validation procedures.
#
#######################################################################

data_IKAYIC
_symmetry_cell_setting           triclinic
_symmetry_space_group_name_H-M   'P -1'
_symmetry_Int_Tables_number      2
_space_group_name_Hall           '-P 1'
loop_
_symmetry_equiv_pos_site_id
_symmetry_equiv_pos_as_xyz
1 x,y,z
2 -x,-y,-z
_cell_length_a                   11.517(5)
_cell_length_b                   13.339(5)
_cell_length_c                   13.595(6)
_cell_angle_alpha                87.888(7)
_cell_angle_beta                 67.759(6)
_cell_angle_gamma                68.070(6)
_cell_volume                     1779.93
loop_
_atom_site_label
_atom_site_type_symbol
_atom_site_fract_x
_atom_site_fract_y
_atom_site_fract_z
Yb1 Yb 0.83097(4) 0.42584(3) 0.46240(3)
Yb2 Yb 0.49200(4) 0.23764(3) 0.36330(3)
O1 O 1.0061(7) 0.2484(5) 0.3924(6)
O2 O 0.7982(7) 0.2648(5) 0.4552(6)
O3 O 0.7358(7) 0.1880(5) 0.2954(5)
O4 O 0.6457(7) 0.0917(5) 0.4089(6)
O5 O 0.6453(6) 0.4408(5) 0.6099(6)
O6 O 0.5088(8) 0.6054(5) 0.6889(6)
O7 O 0.3528(6) 0.5144(5) 0.5974(6)
O8 O 0.1449(6) 0.5692(5) 0.7162(5)
O9 O 0.6634(7) 0.7866(5) 0.4818(5)
O10 O 0.7546(6) 0.6117(4) 0.4830(5)
O11 O 1.0289(6) 0.4571(5) 0.3856(5)
O12 O 1.1053(7) 0.5798(5) 0.3998(5)
O13 O 0.3034(8) 0.2955(7) 0.3178(6)
O14 O 0.5291(7) 0.3115(5) 0.4980(5)
N1 N 0.5907(8) 0.1903(6) 0.1667(6)
N2 N 0.4856(8) 0.0668(6) 0.3046(7)
C1 C 0.9207(10) 0.2072(7) 0.4071(8)
C2 C 0.9663(9) 0.0884(7) 0.3739(8)
C3 C 1.0931(10) 0.0170(7) 0.3701(9)
H1 H 1.1523 0.0447 0.3786
C4 C 1.1309(10) -0.0926(8) 0.3541(8)
H2 H 1.2157 -0.1396 0.3514
C5 C 1.0449(11) -0.1330(8) 0.3423(10)
H3 H 1.0707 -0.2080 0.3321
C6 C 0.9213(11) -0.0655(8) 0.3452(9)
H4 H 0.8637 -0.0953 0.3372
C7 C 0.8787(10) 0.0465(7) 0.3597(7)
C8 C 0.7475(9) 0.1132(7) 0.3533(8)
C9 C 0.5436(10) 0.5051(8) 0.6794(8)
C10 C 0.4518(9) 0.4673(7) 0.7687(8)
C11 C 0.4957(11) 0.4226(9) 0.8462(9)
H5 H 0.5837 0.4101 0.8389
C12 C 0.4100(11) 0.3958(9) 0.9354(9)
H6 H 0.4409 0.3661 0.9882
C13 C 0.2814(12) 0.4118(8) 0.9477(8)
H7 H 0.2243 0.3937 1.0084
C14 C 0.2367(11) 0.4557(8) 0.8683(9)
H8 H 0.1488 0.4670 0.8760
C15 C 0.3201(10) 0.4825(7) 0.7789(7)
C16 C 0.2687(10) 0.5253(8) 0.6949(9)
C17 C 0.7513(9) 0.6954(7) 0.4376(7)
C18 C 0.8506(9) 0.6860(8) 0.3263(8)
C19 C 0.8113(10) 0.7528(7) 0.2553(8)
H9 H 0.7237 0.8065 0.2795
C20 C 0.8955(11) 0.7430(8) 0.1521(8)
H10 H 0.8661 0.7876 0.1049
C21 C 1.0274(10) 0.6646(9) 0.1178(8)
H11 H 1.0861 0.6553 0.0463
C22 C 1.0717(10) 0.6013(8) 0.1870(8)
H12 H 1.1616 0.5518 0.1630
C23 C 0.9860(9) 0.6094(7) 0.2916(7)
C24 C 1.0408(8) 0.5442(7) 0.3665(7)
C25 C 0.6450(12) 0.2492(10) 0.0958(10)
H13 H 0.6381 0.3158 0.1213
C26 C 0.7104(12) 0.2167(10) -0.0130(9)
H14 H 0.7487 0.2598 -0.0587
C27 C 0.7185(11) 0.1209(10) -0.0529(10)
H15 H 0.7600 0.0991 -0.1263
C28 C 0.6652(10) 0.0571(9) 0.0156(9)
C29 C 0.6720(12) -0.0453(10) -0.0186(10)
H16 H 0.7155 -0.0711 -0.0912
C30 C 0.6182(12) -0.1053(9) 0.0497(11)
H17 H 0.6252 -0.1718 0.0241
C31 C 0.5510(10) -0.0697(8) 0.1600(8)
C32 C 0.4961(11) -0.1284(9) 0.2347(9)
H18 H 0.4961 -0.1933 0.2121
C33 C 0.4426(11) -0.0947(8) 0.3394(10)
H19 H 0.4091 -0.1368 0.3896
C34 C 0.4383(10) 0.0049(8) 0.3717(8)
H20 H 0.3999 0.0287 0.4445
C35 C 0.5440(9) 0.0298(8) 0.2009(8)
C36 C 0.6009(9) 0.0955(8) 0.1256(7)
O7A O 0.6472(6) 0.4856(5) 0.4026(6)
O8A O 0.8551(6) 0.4308(5) 0.2838(5)
O12A O 0.8947(7) 0.4202(5) 0.6002(5)
O6A O 0.4912(8) 0.3946(5) 0.3111(6)
O9A O 0.3366(7) 0.2134(5) 0.5182(5)
Yb2A Yb 0.50800(4) 0.76236(3) 0.63670(3)
Yb1A Yb 0.16903(4) 0.57416(3) 0.53760(3)
Yb1A_2 Yb 1.16903(4) 0.57416(3) 0.53760(3)
O15 O 0.9135(16) 0.6999(11) 0.8733(13)
O16 O 0.7776(16) 0.7905(15) 0.7842(12)
O17 O 0.0458(12) 0.8192(14) 0.8905(10)
O18 O 0.039(3) 0.015(3) 0.939(2)
loop_
_geom_bond_atom_site_label_1
_geom_bond_atom_site_label_2
_geom_bond_site_symmetry_1
_geom_bond_site_symmetry_2
Yb1 O1 1_555 1_555
Yb2 O3 1_555 1_555
O1 C1 1_555 1_555
O2 Yb1 1_555 1_555
O3 C8 1_555 1_555
O4 Yb2 1_555 1_555
O5 Yb1 1_555 1_555
O6 C9 1_555 1_555
O7 C16 1_555 1_555
O8 C16 1_555 1_555
O9 C17 1_555 1_555
O10 Yb1 1_555 1_555
O11 Yb1 1_555 1_555
O12 C24 1_555 1_555
O13 Yb2 1_555 1_555
O14 Yb2 1_555 1_555
N1 Yb2 1_555 1_555
N2 Yb2 1_555 1_555
C1 O2 1_555 1_555
C2 C1 1_555 1_555
C3 C2 1_555 1_555
H1 C3 1_555 1_555
C4 C3 1_555 1_555
H2 C4 1_555 1_555
C5 C4 1_555 1_555
H3 C5 1_555 1_555
C6 C5 1_555 1_555
H4 C6 1_555 1_555
C7 C2 1_555 1_555
C8 O4 1_555 1_555
C9 O5 1_555 1_555
C10 C9 1_555 1_555
C11 C10 1_555 1_555
H5 C11 1_555 1_555
C12 C11 1_555 1_555
H6 C12 1_555 1_555
C13 C12 1_555 1_555
H7 C13 1_555 1_555
C14 C13 1_555 1_555
H8 C14 1_555 1_555
C15 C10 1_555 1_555
C16 C15 1_555 1_555
C17 O10 1_555 1_555
C18 C17 1_555 1_555
C19 C18 1_555 1_555
H9 C19 1_555 1_555
C20 C19 1_555 1_555
H10 C20 1_555 1_555
C21 C20 1_555 1_555
H11 C21 1_555 1_555
C22 C21 1_555 1_555
H12 C22 1_555 1_555
C23 C18 1_555 1_555
C24 O11 1_555 1_555
C25 N1 1_555 1_555
H13 C25 1_555 1_555
C26 C25 1_555 1_555
H14 C26 1_555 1_555
C27 C26 1_555 1_555
H15 C27 1_555 1_555
C28 C27 1_555 1_555
C29 C28 1_555 1_555
H16 C29 1_555 1_555
C30 C29 1_555 1_555
H17 C30 1_555 1_555
C31 C30 1_555 1_555
C32 C31 1_555 1_555
H18 C32 1_555 1_555
C33 C32 1_555 1_555
H19 C33 1_555 1_555
C34 N2 1_555 1_555
H20 C34 1_555 1_555
C35 N2 1_555 1_555
C36 N1 1_555 1_555
O7A Yb1 1_555 1_555
O8A Yb1 1_555 1_555
O12A Yb1 1_555 1_555
O6A Yb2 1_555 1_555
O9A Yb2 1_555 1_555
Yb2A O6 1_555 1_555
Yb1A O7 1_555 1_555
Yb1A_2 O12 1_555 1_555
O8 Yb1A 1_555 1_555
O9 Yb2A 1_555 1_555
C6 C7 1_555 1_555
C7 C8 1_555 1_555
C14 C15 1_555 1_555
C22 C23 1_555 1_555
C23 C24 1_555 1_555
C28 C36 1_555 1_555
C31 C35 1_555 1_555
C33 C34 1_555 1_555
C35 C36 1_555 1_555

#END
