
#######################################################################
#
#                 Cambridge Crystallographic Data Centre
#                                CCDC 
#
#######################################################################
#
# If this CIF has been generated from an entry in the Cambridge 
# Structural Database, then it will include bibliographic, chemical, 
# crystal, experimental, refinement or atomic coordinate data resulting 
# from the CCDC's data processing and validation procedures.
#
#######################################################################

data_IKAYOI
_symmetry_cell_setting           orthorhombic
_symmetry_space_group_name_H-M   'C 2 2 21'
_symmetry_Int_Tables_number      20
_space_group_name_Hall           'C 2n 2'
loop_
_symmetry_equiv_pos_site_id
_symmetry_equiv_pos_as_xyz
1 x,y,z
2 -x,-y,1/2+z
3 -x,y,1/2-z
4 x,-y,-z
5 1/2+x,1/2+y,z
6 1/2-x,1/2-y,1/2+z
7 1/2-x,1/2+y,1/2-z
8 1/2+x,1/2-y,-z
_cell_length_a                   8.174(2)
_cell_length_b                   24.497(7)
_cell_length_c                   29.161(8)
_cell_angle_alpha                90
_cell_angle_beta                 90
_cell_angle_gamma                90
_cell_volume                     5839.15
loop_
_atom_site_label
_atom_site_type_symbol
_atom_site_fract_x
_atom_site_fract_y
_atom_site_fract_z
Yb1 Yb 0.01664(6) 0.245605(18) 0.482176(16)
Yb2 Yb 0.5000 -0.02099(2) 0.2500
Yb3 Yb 0.0000 0.04540(2) 0.2500
O1 O 0.2989(12) 0.0038(4) 0.2994(3)
O2 O 0.1338(12) 0.0718(4) 0.3154(3)
O3 O 0.1685(11) 0.1764(3) 0.4584(3)
O4 O 0.4151(10) 0.1767(3) 0.4912(3)
O5 O 0.4045(11) 0.0563(4) 0.2127(3)
O6 O 0.1729(12) 0.1036(4) 0.2172(3)
O7 O 0.1513(11) 0.2293(4) 0.0764(3)
O8 O 0.3850(10) 0.2655(3) 0.0520(3)
O9 O 0.3445(11) -0.0531(3) 0.1912(3)
O10 O 0.0968(11) -0.0187(4) 0.2029(3)
O11 O 0.3740(12) -0.1968(4) 0.0705(3)
O12 O 0.1993(11) -0.2006(3) 0.0152(3)
N1 N 0.6447(13) -0.1097(4) 0.2261(4)
C1 C 0.2489(18) 0.0409(5) 0.3264(5)
C2 C 0.3253(16) 0.0490(5) 0.3728(5)
C3 C 0.2735(17) 0.0925(5) 0.3997(5)
H1 H 0.1846 0.1134 0.3903
C4 C 0.3520(16) 0.1052(5) 0.4403(4)
C5 C 0.476(2) 0.0721(5) 0.4550(4)
H2 H 0.5303 0.0806 0.4820
C6 C 0.523(2) 0.0255(5) 0.4301(5)
H3 H 0.6031 0.0023 0.4415
C7 C 0.4476(16) 0.0147(5) 0.3886(5)
H4 H 0.4791 -0.0154 0.3714
C8 C 0.3089(16) 0.1578(5) 0.4652(5)
C9 C 0.3210(16) 0.0973(5) 0.2056(4)
C10 C 0.3980(15) 0.1429(5) 0.1794(5)
C11 C 0.5567(14) 0.1600(5) 0.1878(4)
H5 H 0.6155 0.1422 0.2107
C12 C 0.6333(16) 0.2018(5) 0.1643(5)
H6 H 0.7380 0.2132 0.1723
C13 C 0.5489(15) 0.2266(5) 0.1281(4)
H7 H 0.5991 0.2535 0.1105
C14 C 0.3907(15) 0.2107(5) 0.1186(4)
C15 C 0.3121(15) 0.1700(5) 0.1439(4)
H8 H 0.2041 0.1607 0.1374
C16 C 0.3062(15) 0.2369(5) 0.0794(4)
C17 C 0.2031(17) -0.0428(5) 0.1783(5)
C18 C 0.1491(16) -0.0628(5) 0.1316(5)
C19 C 0.023(2) -0.0378(5) 0.1089(5)
H9 H -0.0281 -0.0078 0.1222
C20 C -0.029(3) -0.0562(6) 0.0665(6)
H10 H -0.1151 -0.0387 0.0515
C21 C 0.048(2) -0.1018(6) 0.0463(6)
H11 H 0.0186 -0.1138 0.0172
C22 C 0.1712(16) -0.1284(5) 0.0715(5)
C23 C 0.2218(16) -0.1078(5) 0.1130(5)
H12 H 0.3068 -0.1248 0.1287
C24 C 0.2537(16) -0.1768(5) 0.0509(5)
C25 C 0.7930(19) -0.1102(6) 0.2054(5)
H13 H 0.8386 -0.0770 0.1965
C26 C 0.8797(19) -0.1574(6) 0.1968(6)
H14 H 0.9806 -0.1563 0.1822
C27 C 0.8134(18) -0.2060(6) 0.2104(5)
H15 H 0.8734 -0.2379 0.2067
C28 C 0.6558(17) -0.2086(5) 0.2299(5)
C29 C 0.5802(15) -0.1583(4) 0.2385(4)
C30 C 0.5756(14) -0.2588(5) 0.2412(5)
H16 H 0.6292 -0.2918 0.2363
C29B C 0.4198(15) -0.1583(4) 0.2615(4)
N1B N 0.3553(13) -0.1097(4) 0.2739(4)
C25B C 0.2070(19) -0.1102(6) 0.2946(5)
H13B H 0.1614 -0.0770 0.3035
C26B C 0.1203(19) -0.1574(6) 0.3032(6)
H14B H 0.0194 -0.1563 0.3178
C27B C 0.1866(18) -0.2060(6) 0.2896(5)
H15B H 0.1266 -0.2379 0.2933
C28B C 0.3442(17) -0.2086(5) 0.2701(5)
C30B C 0.4244(14) -0.2588(5) 0.2588(5)
H16B H 0.3708 -0.2918 0.2637
O1B O 0.7011(12) 0.0038(4) 0.2006(3)
O2B O 0.8662(12) 0.0718(4) 0.1846(3)
O3B O 0.8315(11) 0.1764(3) 0.0416(3)
O4B O 0.5849(10) 0.1767(3) 0.0088(3)
C1B C 0.7511(18) 0.0409(5) 0.1736(5)
C2B C 0.6747(16) 0.0490(5) 0.1272(5)
C3B C 0.7265(17) 0.0925(5) 0.1003(5)
H1B H 0.8154 0.1134 0.1097
C4B C 0.6480(16) 0.1052(5) 0.0597(4)
C5B C 0.524(2) 0.0721(5) 0.0450(4)
H2B H 0.4697 0.0806 0.0180
C6B C 0.477(2) 0.0255(5) 0.0699(5)
H3B H 0.3969 0.0023 0.0585
C7B C 0.5524(16) 0.0147(5) 0.1114(5)
H4B H 0.5209 -0.0154 0.1286
C8B C 0.6911(16) 0.1578(5) 0.0348(5)
O5B O 0.5955(11) 0.0563(4) 0.2873(3)
O6B O 0.8271(12) 0.1036(4) 0.2828(3)
O7B O 0.8487(11) 0.2293(4) 0.4236(3)
O8B O 0.6150(10) 0.2655(3) 0.4480(3)
C9B C 0.6790(16) 0.0973(5) 0.2944(4)
C10B C 0.6020(15) 0.1429(5) 0.3206(5)
C11B C 0.4433(14) 0.1600(5) 0.3122(4)
H5B H 0.3845 0.1422 0.2893
C12B C 0.3667(16) 0.2018(5) 0.3357(5)
H6B H 0.2620 0.2132 0.3277
C13B C 0.4511(15) 0.2266(5) 0.3719(4)
H7B H 0.4009 0.2535 0.3895
C14B C 0.6093(15) 0.2107(5) 0.3814(4)
C15B C 0.6879(15) 0.1700(5) 0.3561(4)
H8B H 0.7959 0.1607 0.3626
C16B C 0.6938(15) 0.2369(5) 0.4206(4)
O9B O 0.6555(11) -0.0531(3) 0.3088(3)
O10B O 0.9032(11) -0.0187(4) 0.2971(3)
O11B O 0.6260(12) -0.1968(4) 0.4295(3)
O12B O 0.8007(11) -0.2006(3) 0.4848(3)
C17B C 0.7969(17) -0.0428(5) 0.3217(5)
C18B C 0.8509(16) -0.0628(5) 0.3684(5)
C19B C 0.977(2) -0.0378(5) 0.3911(5)
H9B H 1.0281 -0.0078 0.3778
C20B C 1.029(3) -0.0562(6) 0.4335(6)
H10B H 1.1151 -0.0387 0.4485
C21B C 0.952(2) -0.1018(6) 0.4537(6)
H11B H 0.9814 -0.1138 0.4828
C22B C 0.8288(16) -0.1284(5) 0.4285(5)
C23B C 0.7782(16) -0.1078(5) 0.3870(5)
H12B H 0.6932 -0.1248 0.3713
C24B C 0.7463(16) -0.1768(5) 0.4491(5)
Yb1B Yb 0.98336(6) 0.245605(18) 0.017824(16)
O4G O -0.0849(10) 0.3233(3) 0.5088(3)
O7B_2 O -0.1513(11) 0.2293(4) 0.4236(3)
O8E O 0.1150(10) 0.2345(3) 0.5520(3)
O11F O 0.1260(12) 0.3032(4) 0.4295(3)
O12A O -0.1993(11) 0.2006(3) 0.5152(3)
O12F O 0.3007(11) 0.2994(3) 0.4848(3)
O2B_2 O -0.1338(12) 0.0718(4) 0.1846(3)
O6B_2 O -0.1729(12) 0.1036(4) 0.2828(3)
O10B_2 O -0.0968(11) -0.0187(4) 0.2971(3)
Yb1G Yb 0.51664(6) 0.254395(18) 0.517824(16)
Yb1B_2 Yb -0.01664(6) 0.245605(18) 0.017824(16)
Yb1E Yb 0.48336(6) 0.254395(18) -0.017824(16)
Yb1F Yb 0.48336(6) -0.254395(18) 0.017824(16)
Yb1A Yb -0.01664(6) -0.245605(18) -0.017824(16)
Yb3_2 Yb 1.0000 0.04540(2) 0.2500
Yb1_2 Yb 1.01664(6) 0.245605(18) 0.482176(16)
Yb1D Yb 0.51664(6) -0.254395(18) 0.482176(16)
Yb1C Yb 1.01664(6) -0.245605(18) 0.517824(16)
O4E O 1.0849(10) 0.3233(3) -0.0088(3)
O7_2 O 1.1513(11) 0.2293(4) 0.0764(3)
O8G O 0.8850(10) 0.2345(3) -0.0520(3)
O11D O 0.8740(12) 0.3032(4) 0.0705(3)
O12C O 1.1993(11) 0.2006(3) -0.0152(3)
O12D O 0.6993(11) 0.2994(3) 0.0152(3)
loop_
_geom_bond_atom_site_label_1
_geom_bond_atom_site_label_2
_geom_bond_site_symmetry_1
_geom_bond_site_symmetry_2
Yb1 O3 1_555 1_555
Yb2 O1 1_555 1_555
Yb3 O2 1_555 1_555
O1 C1 1_555 1_555
O2 C1 1_555 1_555
O3 C8 1_555 1_555
O4 C8 1_555 1_555
O5 Yb2 1_555 1_555
O6 Yb3 1_555 1_555
O7 C16 1_555 1_555
O8 C16 1_555 1_555
O9 Yb2 1_555 1_555
O10 Yb3 1_555 1_555
O11 C24 1_555 1_555
O12 C24 1_555 1_555
N1 Yb2 1_555 1_555
C1 C2 1_555 1_555
C2 C3 1_555 1_555
C3 H1 1_555 1_555
C4 C3 1_555 1_555
C5 C4 1_555 1_555
H2 C5 1_555 1_555
C6 C5 1_555 1_555
H3 C6 1_555 1_555
C7 C2 1_555 1_555
H4 C7 1_555 1_555
C8 C4 1_555 1_555
C9 O5 1_555 1_555
C10 C9 1_555 1_555
C11 C10 1_555 1_555
H5 C11 1_555 1_555
C12 C11 1_555 1_555
H6 C12 1_555 1_555
C13 C12 1_555 1_555
H7 C13 1_555 1_555
C14 C13 1_555 1_555
C15 C10 1_555 1_555
H8 C15 1_555 1_555
C16 C14 1_555 1_555
C17 O9 1_555 1_555
C18 C17 1_555 1_555
C19 C18 1_555 1_555
H9 C19 1_555 1_555
C20 C19 1_555 1_555
H10 C20 1_555 1_555
C21 C20 1_555 1_555
H11 C21 1_555 1_555
C22 C21 1_555 1_555
C23 C18 1_555 1_555
H12 C23 1_555 1_555
C24 C22 1_555 1_555
C25 N1 1_555 1_555
H13 C25 1_555 1_555
C26 C25 1_555 1_555
H14 C26 1_555 1_555
C27 C26 1_555 1_555
H15 C27 1_555 1_555
C28 C27 1_555 1_555
C29 N1 1_555 1_555
C30 C28 1_555 1_555
H16 C30 1_555 1_555
C29B C29 1_555 1_555
N1B Yb2 1_555 1_555
C25B N1B 1_555 1_555
H13B C25B 1_555 1_555
C26B C25B 1_555 1_555
H14B C26B 1_555 1_555
C27B C26B 1_555 1_555
H15B C27B 1_555 1_555
C28B C29B 1_555 1_555
C30B C30 1_555 1_555
H16B C30B 1_555 1_555
O1B Yb2 1_555 1_555
O2B C1B 1_555 1_555
O3B C8B 1_555 1_555
O4B C8B 1_555 1_555
C1B O1B 1_555 1_555
C2B C1B 1_555 1_555
C3B C2B 1_555 1_555
H1B C3B 1_555 1_555
C4B C3B 1_555 1_555
C5B C4B 1_555 1_555
H2B C5B 1_555 1_555
C6B C5B 1_555 1_555
H3B C6B 1_555 1_555
C7B C2B 1_555 1_555
H4B C7B 1_555 1_555
C8B C4B 1_555 1_555
O5B Yb2 1_555 1_555
O6B C9B 1_555 1_555
O7B C16B 1_555 1_555
O8B C16B 1_555 1_555
C9B O5B 1_555 1_555
C10B C9B 1_555 1_555
C11B C10B 1_555 1_555
H5B C11B 1_555 1_555
C12B C11B 1_555 1_555
H6B C12B 1_555 1_555
C13B C12B 1_555 1_555
H7B C13B 1_555 1_555
C14B C13B 1_555 1_555
C15B C10B 1_555 1_555
H8B C15B 1_555 1_555
C16B C14B 1_555 1_555
O9B Yb2 1_555 1_555
O10B C17B 1_555 1_555
O11B C24B 1_555 1_555
O12B C24B 1_555 1_555
C17B O9B 1_555 1_555
C18B C17B 1_555 1_555
C19B C18B 1_555 1_555
H9B C19B 1_555 1_555
C20B C19B 1_555 1_555
H10B C20B 1_555 1_555
C21B C20B 1_555 1_555
H11B C21B 1_555 1_555
C22B C21B 1_555 1_555
C23B C18B 1_555 1_555
H12B C23B 1_555 1_555
C24B C22B 1_555 1_555
Yb1B O3B 1_555 1_555
O4G Yb1 1_555 1_555
O7B_2 Yb1 1_555 1_555
O8E Yb1 1_555 1_555
O11F Yb1 1_555 1_555
O12A Yb1 1_555 1_555
O12F Yb1 1_555 1_555
O2B_2 Yb3 1_555 1_555
O6B_2 Yb3 1_555 1_555
O10B_2 Yb3 1_555 1_555
Yb1G O4 1_555 1_555
Yb1B_2 O7 1_555 1_555
Yb1E O8 1_555 1_555
Yb1F O11 1_555 1_555
Yb1A O12 1_555 1_555
Yb3_2 O2B 1_555 1_555
Yb1_2 O7B 1_555 1_555
Yb1D O11B 1_555 1_555
Yb1C O12B 1_555 1_555
O4E Yb1B 1_555 1_555
O7_2 Yb1B 1_555 1_555
O8G Yb1B 1_555 1_555
O11D Yb1B 1_555 1_555
O12C Yb1B 1_555 1_555
O12D Yb1B 1_555 1_555
O6 C9 1_555 1_555
O10 C17 1_555 1_555
O12 Yb1F 1_555 1_555
C6 C7 1_555 1_555
C14 C15 1_555 1_555
C22 C23 1_555 1_555
C28 C29 1_555 1_555
C29B N1B 1_555 1_555
C27B C28B 1_555 1_555
C28B C30B 1_555 1_555
O4B Yb1E 1_555 1_555
C6B C7B 1_555 1_555
O6B Yb3_2 1_555 1_555
O8B Yb1G 1_555 1_555
C14B C15B 1_555 1_555
O10B Yb3_2 1_555 1_555
O12B Yb1D 1_555 1_555
C22B C23B 1_555 1_555
O12F Yb1G 1_555 1_555
Yb1E O12D 1_555 1_555

#END
