
#######################################################################
#
#                 Cambridge Crystallographic Data Centre
#                                CCDC 
#
#######################################################################
#
# If this CIF has been generated from an entry in the Cambridge 
# Structural Database, then it will include bibliographic, chemical, 
# crystal, experimental, refinement or atomic coordinate data resulting 
# from the CCDC's data processing and validation procedures.
#
#######################################################################

data_IKAYEY
_symmetry_cell_setting           triclinic
_symmetry_space_group_name_H-M   'P -1'
_symmetry_Int_Tables_number      2
_space_group_name_Hall           '-P 1'
loop_
_symmetry_equiv_pos_site_id
_symmetry_equiv_pos_as_xyz
1 x,y,z
2 -x,-y,-z
_cell_length_a                   10.331(5)
_cell_length_b                   10.887(5)
_cell_length_c                   11.404(5)
_cell_angle_alpha                107.660(7)
_cell_angle_beta                 91.787(7)
_cell_angle_gamma                112.946(6)
_cell_volume                     1109.05
loop_
_atom_site_label
_atom_site_type_symbol
_atom_site_fract_x
_atom_site_fract_y
_atom_site_fract_z
Eu1 Eu 0.58719(3) 0.99659(3) 0.82930(3)
O1 O 0.3458(6) 0.8202(6) 0.7708(5)
O2 O 0.2965(7) 0.8628(6) 0.9616(5)
O3 O -0.2619(6) 0.1929(6) 0.7767(5)
O4 O -0.3024(7) 0.2039(7) 0.5891(6)
O5 O 0.5865(7) 0.8094(6) 0.8986(5)
O6 O 0.5304(7) 0.8617(6) 1.0908(6)
O7 O 0.4615(6) 1.0091(6) 0.6436(5)
N1 N 0.6131(8) 0.8137(7) 0.6340(6)
N2 N 0.8442(7) 1.0028(7) 0.8142(8)
C1 C 0.2696(8) 0.7885(7) 0.8506(7)
C2 C 0.1405(7) 0.6497(7) 0.8072(6)
C3 C 0.1155(9) 0.5624(9) 0.8789(8)
H1 H 0.1785 0.5907 0.9518
C4 C -0.0039(8) 0.4324(8) 0.8415(7)
H2 H -0.0198 0.3738 0.8893
C5 C -0.1010(8) 0.3894(7) 0.7314(7)
C6 C -0.2304(8) 0.2519(7) 0.6965(7)
C7 C -0.0727(8) 0.4762(9) 0.6610(7)
H3 H -0.1361 0.4491 0.5886
C8 C 0.0479(9) 0.6031(8) 0.6951(8)
H4 H 0.0675 0.6577 0.6436
C9 C 0.5021(12) 0.7179(11) 0.5454(10)
H5 H 0.4111 0.7086 0.5592
C10 C 0.5162(17) 0.6332(15) 0.4355(11)
H6 H 0.4348 0.5637 0.3794
C11 C 0.646(2) 0.6480(18) 0.4061(10)
H7 H 0.6545 0.5923 0.3294
C12 C 0.7661(15) 0.7478(15) 0.4928(11)
C13 C 0.914(2) 0.775(2) 0.4735(17)
H8 H 0.9304 0.7254 0.3977
C14 C 1.0230(18) 0.868(2) 0.5612(17)
H9 H 1.1144 0.8831 0.5445
C15 C 1.0082(12) 0.9479(14) 0.6816(13)
C16 C 1.1219(12) 1.0435(17) 0.7810(15)
H10 H 1.2155 1.0601 0.7705
C17 C 1.0950(12) 1.1088(16) 0.8878(19)
H11 H 1.1698 1.1683 0.9542
C18 C 0.9537(10) 1.0902(12) 0.9038(13)
H12 H 0.9383 1.1410 0.9795
C19 C 0.8681(9) 0.9279(10) 0.7056(9)
C20 C 0.7455(11) 0.8298(11) 0.6103(8)
C21 C 0.5499(7) 0.7802(7) 0.9954(8)
C22 C 0.5244(8) 0.6339(7) 0.9984(6)
C23 C 0.5672(10) 0.5459(8) 0.9058(8)
H13 H 0.6118 0.5766 0.8439
C24 C 0.4590(9) 0.5889(8) 1.0909(8)
H14 H 0.4322 0.6491 1.1517
H15 H 0.436(9) 0.922(4) 0.581(3)
H16 H 0.534(3) 1.071(8) 0.616(6)
C24A C 0.5410(9) 0.4111(8) 0.9091(8)
C22A C 0.4756(8) 0.3661(7) 1.0016(6)
C21A C 0.4501(7) 0.2198(7) 1.0046(8)
O5A O 0.4135(7) 0.1906(6) 1.1014(5)
O6A O 0.4696(7) 0.1383(6) 0.9092(6)
C23A C 0.4328(10) 0.4541(8) 1.0942(8)
H13A H 0.3882 0.4234 1.1561
H14A H 0.5678 0.3509 0.8483
O1A O 0.6542(6) 1.1798(6) 1.2292(5)
O2A O 0.7035(7) 1.1372(6) 1.0384(5)
O3A O 1.2619(6) 1.8071(6) 1.2233(5)
O4A O 1.3024(7) 1.7961(7) 1.4109(6)
C1A C 0.7304(8) 1.2115(7) 1.1494(7)
C2A C 0.8595(7) 1.3503(7) 1.1928(6)
C3A C 0.8845(9) 1.4376(9) 1.1211(8)
H1A H 0.8215 1.4093 1.0482
C4A C 1.0039(8) 1.5676(8) 1.1585(7)
H2A H 1.0198 1.6262 1.1107
C5A C 1.1010(8) 1.6106(7) 1.2686(7)
C6A C 1.2304(8) 1.7481(7) 1.3035(7)
C7A C 1.0727(8) 1.5238(9) 1.3390(7)
H3A H 1.1361 1.5509 1.4114
C8A C 0.9521(9) 1.3969(8) 1.3049(8)
H4A H 0.9325 1.3423 1.3564
Eu1A Eu 0.41281(3) 1.00341(3) 1.17070(3)
O7A O 0.5385(6) 0.9909(6) 1.3564(5)
H15A H 0.564(9) 1.078(4) 1.419(3)
H16A H 0.466(3) 0.929(8) 1.384(6)
N1A N 0.3869(8) 1.1863(7) 1.3660(6)
N2A N 0.1558(7) 0.9972(7) 1.1858(8)
C9A C 0.4979(12) 1.2821(11) 1.4546(10)
H5A H 0.5889 1.2914 1.4408
C10A C 0.4838(17) 1.3668(15) 1.5645(11)
H6A H 0.5652 1.4363 1.6206
C11A C 0.354(2) 1.3520(18) 1.5939(10)
H7A H 0.3455 1.4077 1.6706
C12A C 0.2339(15) 1.2522(15) 1.5072(11)
C13A C 0.086(2) 1.225(2) 1.5265(17)
H8A H 0.0696 1.2746 1.6023
C14A C -0.0230(18) 1.132(2) 1.4388(17)
H9A H -0.1144 1.1169 1.4555
C15A C -0.0082(12) 1.0521(14) 1.3184(13)
C16A C -0.1219(12) 0.9565(17) 1.2190(15)
H10A H -0.2155 0.9399 1.2295
C17A C -0.0950(12) 0.8912(16) 1.1122(19)
H11A H -0.1698 0.8317 1.0458
C18A C 0.0463(10) 0.9098(12) 1.0962(13)
H12A H 0.0617 0.8590 1.0205
C19A C 0.1319(9) 1.0721(10) 1.2944(9)
C20A C 0.2545(11) 1.1702(11) 1.3897(8)
O3_2 O 0.7381(6) 1.1929(6) 0.7767(5)
O6A_2 O 0.4696(7) 1.1383(6) 0.9092(6)
Eu1_2 Eu -0.41281(3) -0.00341(3) 0.82930(3)
Eu1A_2 Eu 0.41281(3) 0.00341(3) 1.17070(3)
Eu1_3 Eu 0.58719(3) -0.00341(3) 0.82930(3)
Eu1A_3 Eu 1.41281(3) 2.00341(3) 1.17070(3)
O3A_2 O 0.2619(6) 0.8071(6) 1.2233(5)
O5A_2 O 0.4135(7) 1.1906(6) 1.1014(5)
loop_
_geom_bond_atom_site_label_1
_geom_bond_atom_site_label_2
_geom_bond_site_symmetry_1
_geom_bond_site_symmetry_2
Eu1 O1 1_555 1_555
O1 C1 1_555 1_555
O2 C1 1_555 1_555
O3 C6 1_555 1_555
O4 C6 1_555 1_555
O5 Eu1 1_555 1_555
O6 C21 1_555 1_555
O7 Eu1 1_555 1_555
N1 Eu1 1_555 1_555
N2 Eu1 1_555 1_555
C1 C2 1_555 1_555
C2 C3 1_555 1_555
C3 H1 1_555 1_555
C4 C3 1_555 1_555
H2 C4 1_555 1_555
C5 C4 1_555 1_555
C6 C5 1_555 1_555
C7 C5 1_555 1_555
H3 C7 1_555 1_555
C8 C2 1_555 1_555
H4 C8 1_555 1_555
C9 N1 1_555 1_555
H5 C9 1_555 1_555
C10 C9 1_555 1_555
H6 C10 1_555 1_555
C11 C10 1_555 1_555
H7 C11 1_555 1_555
C12 C11 1_555 1_555
C13 C12 1_555 1_555
H8 C13 1_555 1_555
C14 C13 1_555 1_555
H9 C14 1_555 1_555
C15 C14 1_555 1_555
C16 C15 1_555 1_555
H10 C16 1_555 1_555
C17 C16 1_555 1_555
H11 C17 1_555 1_555
C18 N2 1_555 1_555
H12 C18 1_555 1_555
C19 N2 1_555 1_555
C20 N1 1_555 1_555
C21 O5 1_555 1_555
C22 C21 1_555 1_555
C23 C22 1_555 1_555
H13 C23 1_555 1_555
C24 C22 1_555 1_555
H14 C24 1_555 1_555
H15 O7 1_555 1_555
H16 O7 1_555 1_555
C24A C23 1_555 1_555
C22A C24A 1_555 1_555
C21A C22A 1_555 1_555
O5A C21A 1_555 1_555
O6A C21A 1_555 1_555
C23A C24 1_555 1_555
H13A C23A 1_555 1_555
H14A C24A 1_555 1_555
O1A C1A 1_555 1_555
O2A Eu1 1_555 1_555
O3A C6A 1_555 1_555
O4A C6A 1_555 1_555
C1A O2A 1_555 1_555
C2A C1A 1_555 1_555
C3A C2A 1_555 1_555
H1A C3A 1_555 1_555
C4A C3A 1_555 1_555
H2A C4A 1_555 1_555
C5A C4A 1_555 1_555
C6A C5A 1_555 1_555
C7A C5A 1_555 1_555
H3A C7A 1_555 1_555
C8A C2A 1_555 1_555
H4A C8A 1_555 1_555
Eu1A O2 1_555 1_555
O7A Eu1A 1_555 1_555
H15A O7A 1_555 1_555
H16A O7A 1_555 1_555
N1A Eu1A 1_555 1_555
N2A Eu1A 1_555 1_555
C9A N1A 1_555 1_555
H5A C9A 1_555 1_555
C10A C9A 1_555 1_555
H6A C10A 1_555 1_555
C11A C10A 1_555 1_555
H7A C11A 1_555 1_555
C12A C11A 1_555 1_555
C13A C12A 1_555 1_555
H8A C13A 1_555 1_555
C14A C13A 1_555 1_555
H9A C14A 1_555 1_555
C15A C14A 1_555 1_555
C16A C15A 1_555 1_555
H10A C16A 1_555 1_555
C17A C16A 1_555 1_555
H11A C17A 1_555 1_555
C18A N2A 1_555 1_555
H12A C18A 1_555 1_555
C19A N2A 1_555 1_555
C20A N1A 1_555 1_555
O3_2 Eu1 1_555 1_555
O6A_2 Eu1 1_555 1_555
Eu1_2 O3 1_555 1_555
Eu1A_2 O5A 1_555 1_555
Eu1_3 O6A 1_555 1_555
Eu1A_3 O3A 1_555 1_555
O3A_2 Eu1A 1_555 1_555
O5A_2 Eu1A 1_555 1_555
O6 Eu1A 1_555 1_555
C7 C8 1_555 1_555
C12 C20 1_555 1_555
C15 C19 1_555 1_555
C17 C18 1_555 1_555
C19 C20 1_555 1_555
C22A C23A 1_555 1_555
O1A Eu1A 1_555 1_555
C7A C8A 1_555 1_555
C12A C20A 1_555 1_555
C15A C19A 1_555 1_555
C17A C18A 1_555 1_555
C19A C20A 1_555 1_555

#END
