
#######################################################################
#
#                 Cambridge Crystallographic Data Centre
#                                CCDC 
#
#######################################################################
#
# If this CIF has been generated from an entry in the Cambridge 
# Structural Database, then it will include bibliographic, chemical, 
# crystal, experimental, refinement or atomic coordinate data resulting 
# from the CCDC's data processing and validation procedures.
#
#######################################################################

data_IKAYUO
_symmetry_cell_setting           triclinic
_symmetry_space_group_name_H-M   'P -1'
_symmetry_Int_Tables_number      2
_space_group_name_Hall           '-P 1'
loop_
_symmetry_equiv_pos_site_id
_symmetry_equiv_pos_as_xyz
1 x,y,z
2 -x,-y,-z
_cell_length_a                   10.349(3)
_cell_length_b                   11.052(3)
_cell_length_c                   19.431(6)
_cell_angle_alpha                105.464(4)
_cell_angle_beta                 91.300(5)
_cell_angle_gamma                93.655(5)
_cell_volume                     2135.83
loop_
_atom_site_label
_atom_site_type_symbol
_atom_site_fract_x
_atom_site_fract_y
_atom_site_fract_z
Yb1 Yb 0.13133(3) 0.33943(3) 0.257941(15)
Yb2 Yb 0.33205(3) 0.67550(3) 0.248287(15)
O1 O 0.3470(4) 0.4667(5) 0.1911(3)
O2 O 0.2932(5) 0.2668(5) 0.1849(3)
O3 O 0.6010(5) 0.2846(5) -0.1463(3)
O4 O 0.6672(6) 0.1128(6) -0.1214(3)
O5 O 0.1781(5) 0.7174(5) 0.3329(3)
O6 O 0.0896(5) 0.5269(5) 0.3276(3)
O7 O -0.1584(6) 0.9538(6) 0.6419(3)
O8 O -0.1066(5) 0.7886(5) 0.6761(3)
O9 O 0.0655(4) 0.4081(5) 0.1638(3)
O10 O 0.1474(4) 0.6052(5) 0.1793(3)
O11 O 0.3078(5) 0.3987(6) 0.3334(3)
O12 O 0.3978(5) 0.5906(5) 0.3401(3)
O13 O 0.2405(5) 0.8639(5) 0.2437(2)
N1 N -0.1124(6) 0.3172(7) 0.2639(3)
N2 N 0.0271(6) 0.1430(6) 0.1731(3)
N3 N 0.4607(6) 0.8504(6) 0.3367(3)
N4 N 0.5776(6) 0.6702(6) 0.2417(3)
C1 C -0.1815(8) 0.4039(10) 0.3057(5)
H1 H -0.1392 0.4805 0.3304
C2 C -0.3135(9) 0.3846(12) 0.3140(6)
H2 H -0.3581 0.4482 0.3429
C3 C -0.3777(9) 0.2722(13) 0.2797(6)
H3 H -0.4654 0.2572 0.2863
C4 C -0.3098(8) 0.1804(11) 0.2347(5)
C5 C -0.3686(9) 0.0612(11) 0.1949(6)
H4 H -0.4560 0.0423 0.2003
C6 C -0.3020(10) -0.0247(11) 0.1500(7)
H5 H -0.3435 -0.1017 0.1253
C7 C -0.1681(9) 0.0017(9) 0.1401(6)
C8 C -0.0951(11) -0.0838(9) 0.0929(6)
H6 H -0.1342 -0.1603 0.0659
C9 C 0.0335(10) -0.0542(10) 0.0867(6)
H7 H 0.0824 -0.1099 0.0551
C10 C 0.0907(9) 0.0605(8) 0.1284(5)
H8 H 0.1786 0.0789 0.1241
C11 C -0.1760(7) 0.2063(9) 0.2275(5)
C12 C -0.1025(8) 0.1145(8) 0.1798(5)
C13 C 0.4062(8) 0.9369(8) 0.3864(4)
H9 H 0.3193 0.9221 0.3948
C14 C 0.4712(10) 1.0483(9) 0.4266(5)
H10 H 0.4295 1.1049 0.4618
C15 C 0.5970(11) 1.0720(11) 0.4132(6)
H11 H 0.6404 1.1483 0.4374
C16 C 0.6625(9) 0.9838(10) 0.3635(6)
C17 C 0.7941(10) 0.9996(13) 0.3467(7)
H12 H 0.8408 1.0754 0.3686
C18 C 0.8526(10) 0.9126(12) 0.3019(7)
H13 H 0.9397 0.9267 0.2935
C19 C 0.7835(8) 0.7952(10) 0.2653(5)
C20 C 0.8407(9) 0.6976(12) 0.2162(7)
H14 H 0.9276 0.7069 0.2060
C21 C 0.7688(9) 0.5906(12) 0.1841(6)
H15 H 0.8070 0.5240 0.1535
C22 C 0.6365(8) 0.5798(10) 0.1968(5)
H16 H 0.5878 0.5064 0.1728
C23 C 0.5897(7) 0.8737(8) 0.3274(5)
C24 C 0.6504(7) 0.7747(9) 0.2757(5)
C25 C 0.3480(6) 0.3501(7) 0.1605(4)
C26 C 0.4132(6) 0.3113(7) 0.0899(4)
C27 C 0.4019(7) 0.3801(8) 0.0424(4)
H17 H 0.3541 0.4507 0.0533
C28 C 0.4617(8) 0.3453(8) -0.0229(4)
H18 H 0.4506 0.3905 -0.0564
C29 C 0.5379(6) 0.2429(7) -0.0380(4)
C30 C 0.5463(8) 0.1734(8) 0.0099(5)
H19 H 0.5961 0.1042 0.0000
C31 C 0.4809(8) 0.2047(8) 0.0740(4)
H20 H 0.4832 0.1541 0.1053
C32 C 0.6078(7) 0.2092(8) -0.1076(4)
C33 C 0.1084(6) 0.6433(8) 0.3565(4)
C34 C 0.0455(7) 0.6946(7) 0.4266(4)
C35 C -0.0072(13) 0.8034(11) 0.4420(5)
H21 H -0.0044 0.8503 0.4087
C36 C -0.0667(13) 0.8508(12) 0.5057(5)
H22 H -0.1088 0.9246 0.5123
C37 C -0.0652(6) 0.7936(7) 0.5574(4)
C38 C -0.0033(14) 0.6861(11) 0.5445(5)
H23 H 0.0061 0.6460 0.5805
C39 C 0.0466(16) 0.6348(11) 0.4778(6)
H24 H 0.0817 0.5570 0.4689
C40 C -0.1151(7) 0.8503(8) 0.6309(4)
C41 C 0.0889(6) 0.5066(8) 0.1429(4)
C42 C 0.0417(6) 0.5024(7) 0.0687(4)
C43 C -0.0315(7) 0.3985(7) 0.0270(4)
H25 H -0.0526 0.3301 0.0450
C44 C 0.0734(7) 0.6039(7) 0.0418(4)
H26 H 0.1228 0.6736 0.0697
C45 C 0.3773(7) 0.4981(8) 0.3634(4)
C46 C 0.4421(6) 0.4985(7) 0.4342(4)
C47 C 0.5206(7) 0.6009(8) 0.4714(4)
H27 H 0.5332 0.6705 0.4533
C48 C 0.4188(7) 0.3990(8) 0.4642(4)
H28 H 0.3617 0.3313 0.4408
C44A C -0.0734(7) 0.3961(7) -0.0418(4)
C42A C -0.0417(6) 0.4976(7) -0.0687(4)
C41A C -0.0889(6) 0.4934(8) -0.1429(4)
O9A O -0.0655(4) 0.5919(5) -0.1638(3)
O10A O -0.1474(4) 0.3948(5) -0.1793(3)
C43A C 0.0315(7) 0.6015(7) -0.0270(4)
H25A H 0.0526 0.6699 -0.0450
H26A H -0.1228 0.3264 -0.0697
C48A C 0.5812(7) 0.6010(8) 0.5358(4)
C46A C 0.5579(6) 0.5015(7) 0.5658(4)
C45A C 0.6227(7) 0.5019(8) 0.6366(4)
O11A O 0.6922(5) 0.6013(6) 0.6666(3)
O12A O 0.6022(5) 0.4094(5) 0.6599(3)
C47A C 0.4794(7) 0.3991(8) 0.5286(4)
H27A H 0.4668 0.3295 0.5467
H28A H 0.6383 0.6687 0.5592
O5A O -0.1781(5) 0.2826(5) 0.6671(3)
O6A O -0.0896(5) 0.4731(5) 0.6724(3)
O7A O 0.1584(6) 0.0462(6) 0.3581(3)
O8A O 0.1066(5) 0.2114(5) 0.3239(3)
C33A C -0.1084(6) 0.3567(8) 0.6435(4)
C34A C -0.0455(7) 0.3054(7) 0.5734(4)
C35A C 0.0072(13) 0.1966(11) 0.5580(5)
H21A H 0.0044 0.1497 0.5913
C36A C 0.0667(13) 0.1492(12) 0.4943(5)
H22A H 0.1088 0.0754 0.4877
C37A C 0.0652(6) 0.2064(7) 0.4426(4)
C38A C 0.0033(14) 0.3139(11) 0.4555(5)
H23A H -0.0061 0.3540 0.4195
C39A C -0.0466(16) 0.3652(11) 0.5222(6)
H24A H -0.0817 0.4430 0.5311
C40A C 0.1151(7) 0.1497(8) 0.3691(4)
Yb1A Yb -0.13133(3) 0.66057(3) 0.742059(15)
Yb2A Yb 0.66795(3) 0.32450(3) -0.248287(15)
O1A O 0.6530(4) 0.5333(5) -0.1911(3)
O2A O 0.7068(5) 0.7332(5) -0.1849(3)
O3A O 0.3990(5) 0.7154(5) 0.1463(3)
O4A O 0.3328(6) 0.8872(6) 0.1214(3)
C25A C 0.6520(6) 0.6499(7) -0.1605(4)
C26A C 0.5868(6) 0.6887(7) -0.0899(4)
C27A C 0.5981(7) 0.6199(8) -0.0424(4)
H17A H 0.6459 0.5493 -0.0533
C28A C 0.5383(8) 0.6547(8) 0.0229(4)
H18A H 0.5494 0.6095 0.0564
C29A C 0.4621(6) 0.7571(7) 0.0380(4)
C30A C 0.4537(8) 0.8266(8) -0.0099(5)
H19A H 0.4039 0.8958 0.0000
C31A C 0.5191(8) 0.7953(8) -0.0740(4)
H20A H 0.5168 0.8459 -0.1053
C32A C 0.3922(7) 0.7908(8) 0.1076(4)
N1A N 0.1124(6) 0.6828(7) 0.7361(3)
N2A N -0.0271(6) 0.8570(6) 0.8269(3)
C1A C 0.1815(8) 0.5961(10) 0.6943(5)
H1A H 0.1392 0.5195 0.6696
C2A C 0.3135(9) 0.6154(12) 0.6860(6)
H2A H 0.3581 0.5518 0.6571
C3A C 0.3777(9) 0.7278(13) 0.7203(6)
H3A H 0.4654 0.7428 0.7137
C4A C 0.3098(8) 0.8196(11) 0.7653(5)
C5A C 0.3686(9) 0.9388(11) 0.8051(6)
H4A H 0.4560 0.9577 0.7997
C6A C 0.3020(10) 1.0247(11) 0.8500(7)
H5A H 0.3435 1.1017 0.8747
C7A C 0.1681(9) 0.9983(9) 0.8599(6)
C8A C 0.0951(11) 1.0838(9) 0.9071(6)
H6A H 0.1342 1.1603 0.9341
C9A C -0.0335(10) 1.0542(10) 0.9133(6)
H7A H -0.0824 1.1099 0.9449
C10A C -0.0907(9) 0.9395(8) 0.8716(5)
H8A H -0.1786 0.9211 0.8759
C11A C 0.1760(7) 0.7937(9) 0.7725(5)
C12A C 0.1025(8) 0.8855(8) 0.8202(5)
O13A O 0.7595(5) 0.1361(5) -0.2437(2)
N3A N 0.5393(6) 0.1496(6) -0.3367(3)
N4A N 0.4224(6) 0.3298(6) -0.2417(3)
C13A C 0.5938(8) 0.0631(8) -0.3864(4)
H9A H 0.6807 0.0779 -0.3948
C14A C 0.5288(10) -0.0483(9) -0.4266(5)
H10A H 0.5705 -0.1049 -0.4618
C15A C 0.4030(11) -0.0720(11) -0.4132(6)
H11A H 0.3596 -0.1483 -0.4374
C16A C 0.3375(9) 0.0162(10) -0.3635(6)
C17A C 0.2059(10) 0.0004(13) -0.3467(7)
H12A H 0.1592 -0.0754 -0.3686
C18A C 0.1474(10) 0.0874(12) -0.3019(7)
H13A H 0.0603 0.0733 -0.2935
C19A C 0.2165(8) 0.2048(10) -0.2653(5)
C20A C 0.1593(9) 0.3024(12) -0.2162(7)
H14A H 0.0724 0.2931 -0.2060
C21A C 0.2312(9) 0.4094(12) -0.1841(6)
H15A H 0.1930 0.4760 -0.1535
C22A C 0.3635(8) 0.4202(10) -0.1968(5)
H16A H 0.4122 0.4936 -0.1728
C23A C 0.4103(7) 0.1263(8) -0.3274(5)
C24A C 0.3496(7) 0.2253(9) -0.2757(5)
Yb1A_2 Yb -0.13133(3) 0.66057(3) -0.257941(15)
Yb2A_2 Yb -0.33205(3) 0.32450(3) -0.248287(15)
Yb1A_3 Yb 0.86867(3) 0.66057(3) 0.742059(15)
Yb2A_3 Yb 0.66795(3) 0.32450(3) 0.751713(15)
Yb2A_4 Yb -0.33205(3) 0.32450(3) 0.751713(15)
O2A_2 O -0.2932(5) 0.7332(5) 0.8151(3)
O9A_2 O -0.0655(4) 0.5919(5) 0.8362(3)
O11A_2 O -0.3078(5) 0.6013(6) 0.6666(3)
O5A_2 O 0.8219(5) 0.2826(5) -0.3329(3)
O10A_2 O 0.8526(4) 0.3948(5) -0.1793(3)
O12A_2 O 0.6022(5) 0.4094(5) -0.3401(3)
Yb1A_4 Yb 0.86867(3) 0.66057(3) -0.257941(15)
loop_
_geom_bond_atom_site_label_1
_geom_bond_atom_site_label_2
_geom_bond_site_symmetry_1
_geom_bond_site_symmetry_2
Yb1 O2 1_555 1_555
Yb2 O1 1_555 1_555
O1 C25 1_555 1_555
O2 C25 1_555 1_555
O3 C32 1_555 1_555
O4 C32 1_555 1_555
O5 Yb2 1_555 1_555
O6 Yb1 1_555 1_555
O7 C40 1_555 1_555
O8 C40 1_555 1_555
O9 Yb1 1_555 1_555
O10 Yb2 1_555 1_555
O11 Yb1 1_555 1_555
O12 Yb2 1_555 1_555
O13 Yb2 1_555 1_555
N1 Yb1 1_555 1_555
N2 Yb1 1_555 1_555
N3 Yb2 1_555 1_555
N4 Yb2 1_555 1_555
C1 N1 1_555 1_555
H1 C1 1_555 1_555
C2 C1 1_555 1_555
H2 C2 1_555 1_555
C3 C2 1_555 1_555
H3 C3 1_555 1_555
C4 C3 1_555 1_555
C5 C4 1_555 1_555
H4 C5 1_555 1_555
C6 C5 1_555 1_555
H5 C6 1_555 1_555
C7 C6 1_555 1_555
C8 C7 1_555 1_555
H6 C8 1_555 1_555
C9 C8 1_555 1_555
H7 C9 1_555 1_555
C10 N2 1_555 1_555
H8 C10 1_555 1_555
C11 N1 1_555 1_555
C12 N2 1_555 1_555
C13 N3 1_555 1_555
H9 C13 1_555 1_555
C14 C13 1_555 1_555
H10 C14 1_555 1_555
C15 C14 1_555 1_555
H11 C15 1_555 1_555
C16 C15 1_555 1_555
C17 C16 1_555 1_555
H12 C17 1_555 1_555
C18 C17 1_555 1_555
H13 C18 1_555 1_555
C19 C18 1_555 1_555
C20 C19 1_555 1_555
H14 C20 1_555 1_555
C21 C20 1_555 1_555
H15 C21 1_555 1_555
C22 N4 1_555 1_555
H16 C22 1_555 1_555
C23 N3 1_555 1_555
C24 N4 1_555 1_555
C25 C26 1_555 1_555
C26 C27 1_555 1_555
C27 H17 1_555 1_555
C28 C27 1_555 1_555
H18 C28 1_555 1_555
C29 C28 1_555 1_555
C30 C29 1_555 1_555
H19 C30 1_555 1_555
C31 C26 1_555 1_555
H20 C31 1_555 1_555
C32 C29 1_555 1_555
C33 O5 1_555 1_555
C34 C33 1_555 1_555
C35 C34 1_555 1_555
H21 C35 1_555 1_555
C36 C35 1_555 1_555
H22 C36 1_555 1_555
C37 C36 1_555 1_555
C38 C37 1_555 1_555
H23 C38 1_555 1_555
C39 C34 1_555 1_555
H24 C39 1_555 1_555
C40 C37 1_555 1_555
C41 O9 1_555 1_555
C42 C41 1_555 1_555
C43 C42 1_555 1_555
H25 C43 1_555 1_555
C44 C42 1_555 1_555
H26 C44 1_555 1_555
C45 O11 1_555 1_555
C46 C45 1_555 1_555
C47 C46 1_555 1_555
H27 C47 1_555 1_555
C48 C46 1_555 1_555
H28 C48 1_555 1_555
C44A C43 1_555 1_555
C42A C44A 1_555 1_555
C41A C42A 1_555 1_555
O9A C41A 1_555 1_555
O10A C41A 1_555 1_555
C43A C44 1_555 1_555
H25A C43A 1_555 1_555
H26A C44A 1_555 1_555
C48A C47 1_555 1_555
C46A C48A 1_555 1_555
C45A C46A 1_555 1_555
O11A C45A 1_555 1_555
O12A C45A 1_555 1_555
C47A C48 1_555 1_555
H27A C47A 1_555 1_555
H28A C48A 1_555 1_555
O5A C33A 1_555 1_555
O6A C33A 1_555 1_555
O7A C40A 1_555 1_555
O8A Yb1 1_555 1_555
C33A C34A 1_555 1_555
C34A C35A 1_555 1_555
C35A H21A 1_555 1_555
C36A C35A 1_555 1_555
H22A C36A 1_555 1_555
C37A C36A 1_555 1_555
C38A C37A 1_555 1_555
H23A C38A 1_555 1_555
C39A C34A 1_555 1_555
H24A C39A 1_555 1_555
C40A O8A 1_555 1_555
Yb1A O8 1_555 1_555
Yb2A O3 1_555 1_555
O1A Yb2A 1_555 1_555
O2A C25A 1_555 1_555
O3A Yb2 1_555 1_555
O4A C32A 1_555 1_555
C25A O1A 1_555 1_555
C26A C25A 1_555 1_555
C27A C26A 1_555 1_555
H17A C27A 1_555 1_555
C28A C27A 1_555 1_555
H18A C28A 1_555 1_555
C29A C28A 1_555 1_555
C30A C29A 1_555 1_555
H19A C30A 1_555 1_555
C31A C26A 1_555 1_555
H20A C31A 1_555 1_555
C32A O3A 1_555 1_555
N1A Yb1A 1_555 1_555
N2A Yb1A 1_555 1_555
C1A N1A 1_555 1_555
H1A C1A 1_555 1_555
C2A C1A 1_555 1_555
H2A C2A 1_555 1_555
C3A C2A 1_555 1_555
H3A C3A 1_555 1_555
C4A C3A 1_555 1_555
C5A C4A 1_555 1_555
H4A C5A 1_555 1_555
C6A C5A 1_555 1_555
H5A C6A 1_555 1_555
C7A C6A 1_555 1_555
C8A C7A 1_555 1_555
H6A C8A 1_555 1_555
C9A C8A 1_555 1_555
H7A C9A 1_555 1_555
C10A N2A 1_555 1_555
H8A C10A 1_555 1_555
C11A N1A 1_555 1_555
C12A N2A 1_555 1_555
O13A Yb2A 1_555 1_555
N3A Yb2A 1_555 1_555
N4A Yb2A 1_555 1_555
C13A N3A 1_555 1_555
H9A C13A 1_555 1_555
C14A C13A 1_555 1_555
H10A C14A 1_555 1_555
C15A C14A 1_555 1_555
H11A C15A 1_555 1_555
C16A C15A 1_555 1_555
C17A C16A 1_555 1_555
H12A C17A 1_555 1_555
C18A C17A 1_555 1_555
H13A C18A 1_555 1_555
C19A C18A 1_555 1_555
C20A C19A 1_555 1_555
H14A C20A 1_555 1_555
C21A C20A 1_555 1_555
H15A C21A 1_555 1_555
C22A N4A 1_555 1_555
H16A C22A 1_555 1_555
C23A N3A 1_555 1_555
C24A N4A 1_555 1_555
Yb1A_2 O9A 1_555 1_555
Yb2A_2 O10A 1_555 1_555
Yb1A_3 O11A 1_555 1_555
Yb2A_3 O12A 1_555 1_555
Yb2A_4 O5A 1_555 1_555
O2A_2 Yb1A 1_555 1_555
O9A_2 Yb1A 1_555 1_555
O11A_2 Yb1A 1_555 1_555
O5A_2 Yb2A 1_555 1_555
O10A_2 Yb2A 1_555 1_555
O12A_2 Yb2A 1_555 1_555
Yb1A_4 O2A 1_555 1_555
O6 C33 1_555 1_555
O10 C41 1_555 1_555
O12 C45 1_555 1_555
C4 C11 1_555 1_555
C7 C12 1_555 1_555
C9 C10 1_555 1_555
C11 C12 1_555 1_555
C16 C23 1_555 1_555
C19 C24 1_555 1_555
C21 C22 1_555 1_555
C23 C24 1_555 1_555
C30 C31 1_555 1_555
C38 C39 1_555 1_555
C42A C43A 1_555 1_555
C46A C47A 1_555 1_555
O6A Yb1A 1_555 1_555
C37A C40A 1_555 1_555
C38A C39A 1_555 1_555
C29A C32A 1_555 1_555
C30A C31A 1_555 1_555
C4A C11A 1_555 1_555
C7A C12A 1_555 1_555
C9A C10A 1_555 1_555
C11A C12A 1_555 1_555
C16A C23A 1_555 1_555
C19A C24A 1_555 1_555
C21A C22A 1_555 1_555
C23A C24A 1_555 1_555

#END
