
#######################################################################
#
#                 Cambridge Crystallographic Data Centre
#                                CCDC 
#
#######################################################################
#
# If this CIF has been generated from an entry in the Cambridge 
# Structural Database, then it will include bibliographic, chemical, 
# crystal, experimental, refinement or atomic coordinate data resulting 
# from the CCDC's data processing and validation procedures.
#
#######################################################################

data_IKAYEY01
_symmetry_cell_setting           triclinic
_symmetry_space_group_name_H-M   'P -1'
_symmetry_Int_Tables_number      2
_space_group_name_Hall           '-P 1'
loop_
_symmetry_equiv_pos_site_id
_symmetry_equiv_pos_as_xyz
1 x,y,z
2 -x,-y,-z
_cell_length_a                   10.847(2)
_cell_length_b                   11.367(1)
_cell_length_c                   10.293(2)
_cell_angle_alpha                91.80(1)
_cell_angle_beta                 112.91(1)
_cell_angle_gamma                107.65(1)
_cell_volume                     1097.7
loop_
_atom_site_label
_atom_site_type_symbol
_atom_site_fract_x
_atom_site_fract_y
_atom_site_fract_z
Eu1 Eu -0.00342(1) -0.17081(1) 0.08703(1)
O1 O -0.1791(2) -0.2298(2) -0.1543(2)
O2 O -0.1367(2) -0.0371(2) -0.2023(3)
O3 O -0.7975(3) -0.4108(2) -0.8031(3)
O4 O -0.8072(2) -0.2223(2) -0.7621(2)
O5 O 0.1380(2) -0.0910(2) -0.0311(3)
O6 O 0.1903(2) 0.0996(2) -0.0873(3)
O7 O 0.0081(2) -0.3560(2) -0.0389(2)
N1 N -0.1862(3) -0.3668(2) 0.1138(3)
N2 N 0.0018(3) -0.1849(3) 0.3435(3)
C1 C -0.2114(3) -0.1508(3) -0.2296(3)
C2 C -0.3512(3) -0.1936(3) -0.3593(3)
C3 C -0.3955(3) -0.3033(3) -0.4519(4)
C4 C -0.5234(4) -0.3398(3) -0.5731(3)
C5 C -0.6099(3) -0.2676(3) -0.6009(3)
C6 C -0.5674(3) -0.1601(3) -0.5043(3)
C7 C -0.4388(4) -0.1226(3) -0.3856(3)
C8 C -0.7491(3) -0.3039(3) -0.7322(3)
C9 C 0.2206(3) 0.0059(3) -0.0489(3)
C10 C 0.3659(3) 0.0025(3) -0.0238(3)
C11 C 0.4542(3) 0.0923(3) -0.0667(4)
C12 C 0.4113(3) -0.0899(3) 0.0423(4)
C13 C -0.2837(4) -0.4518(3) 0.0022(4)
C14 C -0.3688(6) -0.5668(4) 0.0147(6)
C15 C -0.3514(7) -0.5937(4) 0.1468(7)
C16 C -0.2510(6) -0.5062(4) 0.2676(6)
C17 C -0.2265(8) -0.5269(5) 0.4112(7)
C18 C -0.1329(8) -0.4381(6) 0.5239(6)
C19 C -0.0528(6) -0.3192(5) 0.5067(5)
C20 C 0.0419(7) -0.2225(6) 0.6212(5)
C21 C 0.1111(6) -0.1124(6) 0.5968(5)
C22 C 0.0903(5) -0.0950(4) 0.4545(4)
C23 C -0.0706(4) -0.2953(4) 0.3676(4)
C24 C -0.1703(4) -0.3905(3) 0.2466(4)
H1 H -0.3374 -0.3516 -0.4340
H2 H -0.5520 -0.4221 -0.6380
H3 H -0.6350 -0.1135 -0.5240
H4 H -0.3947 -0.0375 -0.3193
H5 H 0.4100 0.1500 -0.1245
H6 H 0.3418 -0.1623 0.0655
H7 H -0.2888 -0.4330 -0.0953
H8 H -0.4465 -0.6159 -0.0701
H9 H -0.4157 -0.6715 0.1544
H10 H -0.3029 -0.6180 0.4113
H11 H -0.1101 -0.4479 0.6309
H12 H 0.0523 -0.2304 0.7238
H13 H 0.1893 -0.0299 0.6726
H14 H 0.1388 -0.0189 0.4192
H15 H 0.0652 -0.3886 0.0257
H16 H -0.0618 -0.4195 -0.0914
C12A C 0.5887(3) 0.0899(3) -0.0423(4)
C10A C 0.6341(3) -0.0025(3) 0.0238(3)
C9A C 0.7794(3) -0.0059(3) 0.0489(3)
O5A O 0.8620(2) 0.0910(2) 0.0311(3)
O6A O 0.8097(2) -0.0996(2) 0.0873(3)
C11A C 0.5458(3) -0.0923(3) 0.0667(4)
H5A H 0.5900 -0.1500 0.1245
H6A H 0.6582 0.1623 -0.0655
O1A O 0.1791(2) 0.2298(2) 0.1543(2)
O2A O 0.1367(2) 0.0371(2) 0.2023(3)
O3A O 0.7975(3) 0.4108(2) 0.8031(3)
O4A O 0.8072(2) 0.2223(2) 0.7621(2)
C1A C 0.2114(3) 0.1508(3) 0.2296(3)
C2A C 0.3512(3) 0.1936(3) 0.3593(3)
C3A C 0.3955(3) 0.3033(3) 0.4519(4)
C4A C 0.5234(4) 0.3398(3) 0.5731(3)
C5A C 0.6099(3) 0.2676(3) 0.6009(3)
C6A C 0.5674(3) 0.1601(3) 0.5043(3)
C7A C 0.4388(4) 0.1226(3) 0.3856(3)
C8A C 0.7491(3) 0.3039(3) 0.7322(3)
H1A H 0.3374 0.3516 0.4340
H2A H 0.5520 0.4221 0.6380
H3A H 0.6350 0.1135 0.5240
H4A H 0.3947 0.0375 0.3193
Eu1A Eu 0.00342(1) 0.17081(1) -0.08703(1)
O7A O -0.0081(2) 0.3560(2) 0.0389(2)
H15A H -0.0652 0.3886 -0.0257
H16A H 0.0618 0.4195 0.0914
N1A N 0.1862(3) 0.3668(2) -0.1138(3)
N2A N -0.0018(3) 0.1849(3) -0.3435(3)
C13A C 0.2837(4) 0.4518(3) -0.0022(4)
C14A C 0.3688(6) 0.5668(4) -0.0147(6)
C15A C 0.3514(7) 0.5937(4) -0.1468(7)
C16A C 0.2510(6) 0.5062(4) -0.2676(6)
C17A C 0.2265(8) 0.5269(5) -0.4112(7)
C18A C 0.1329(8) 0.4381(6) -0.5239(6)
C19A C 0.0528(6) 0.3192(5) -0.5067(5)
C20A C -0.0419(7) 0.2225(6) -0.6212(5)
C21A C -0.1111(6) 0.1124(6) -0.5968(5)
C22A C -0.0903(5) 0.0950(4) -0.4545(4)
C23A C 0.0706(4) 0.2953(4) -0.3676(4)
C24A C 0.1703(4) 0.3905(3) -0.2466(4)
H7A H 0.2888 0.4330 0.0953
H8A H 0.4465 0.6159 0.0701
H9A H 0.4157 0.6715 -0.1544
H10A H 0.3029 0.6180 -0.4113
H11A H 0.1101 0.4479 -0.6309
H12A H -0.0523 0.2304 -0.7238
H13A H -0.1893 0.0299 -0.6726
H14A H -0.1388 0.0189 -0.4192
O4_2 O 0.1928(2) -0.2223(2) 0.2379(2)
O6A_2 O -0.1903(2) -0.0996(2) 0.0873(3)
Eu1_2 Eu -1.00342(1) -0.17081(1) -0.91297(1)
Eu1A_2 Eu 1.00342(1) 0.17081(1) -0.08703(1)
Eu1_3 Eu 0.99658(1) -0.17081(1) 0.08703(1)
Eu1A_3 Eu 1.00342(1) 0.17081(1) 0.91297(1)
O4A_2 O -0.1928(2) 0.2223(2) -0.2379(2)
O5A_2 O -0.1380(2) 0.0910(2) 0.0311(3)
loop_
_geom_bond_atom_site_label_1
_geom_bond_atom_site_label_2
_geom_bond_site_symmetry_1
_geom_bond_site_symmetry_2
Eu1 O1 1_555 1_555
O1 C1 1_555 1_555
O2 C1 1_555 1_555
O3 C8 1_555 1_555
O4 C8 1_555 1_555
O5 Eu1 1_555 1_555
O6 C9 1_555 1_555
O7 Eu1 1_555 1_555
N1 Eu1 1_555 1_555
N2 Eu1 1_555 1_555
C1 C2 1_555 1_555
C2 C3 1_555 1_555
C3 C4 1_555 1_555
C4 C5 1_555 1_555
C5 C6 1_555 1_555
C6 C7 1_555 1_555
C7 C2 1_555 1_555
C8 C5 1_555 1_555
C9 O5 1_555 1_555
C10 C9 1_555 1_555
C11 C10 1_555 1_555
C12 C10 1_555 1_555
C13 N1 1_555 1_555
C14 C13 1_555 1_555
C15 C14 1_555 1_555
C16 C15 1_555 1_555
C17 C16 1_555 1_555
C18 C17 1_555 1_555
C19 C18 1_555 1_555
C20 C19 1_555 1_555
C21 C20 1_555 1_555
C22 N2 1_555 1_555
C23 N2 1_555 1_555
C24 N1 1_555 1_555
H1 C3 1_555 1_555
H2 C4 1_555 1_555
H3 C6 1_555 1_555
H4 C7 1_555 1_555
H5 C11 1_555 1_555
H6 C12 1_555 1_555
H7 C13 1_555 1_555
H8 C14 1_555 1_555
H9 C15 1_555 1_555
H10 C17 1_555 1_555
H11 C18 1_555 1_555
H12 C20 1_555 1_555
H13 C21 1_555 1_555
H14 C22 1_555 1_555
H15 O7 1_555 1_555
H16 O7 1_555 1_555
C12A C11 1_555 1_555
C10A C12A 1_555 1_555
C9A C10A 1_555 1_555
O5A C9A 1_555 1_555
O6A C9A 1_555 1_555
C11A C12 1_555 1_555
H5A C11A 1_555 1_555
H6A C12A 1_555 1_555
O1A C1A 1_555 1_555
O2A Eu1 1_555 1_555
O3A C8A 1_555 1_555
O4A C8A 1_555 1_555
C1A O2A 1_555 1_555
C2A C1A 1_555 1_555
C3A C2A 1_555 1_555
C4A C3A 1_555 1_555
C5A C4A 1_555 1_555
C6A C5A 1_555 1_555
C7A C2A 1_555 1_555
C8A C5A 1_555 1_555
H1A C3A 1_555 1_555
H2A C4A 1_555 1_555
H3A C6A 1_555 1_555
H4A C7A 1_555 1_555
Eu1A O2 1_555 1_555
O7A Eu1A 1_555 1_555
H15A O7A 1_555 1_555
H16A O7A 1_555 1_555
N1A Eu1A 1_555 1_555
N2A Eu1A 1_555 1_555
C13A N1A 1_555 1_555
C14A C13A 1_555 1_555
C15A C14A 1_555 1_555
C16A C15A 1_555 1_555
C17A C16A 1_555 1_555
C18A C17A 1_555 1_555
C19A C18A 1_555 1_555
C20A C19A 1_555 1_555
C21A C20A 1_555 1_555
C22A N2A 1_555 1_555
C23A N2A 1_555 1_555
C24A N1A 1_555 1_555
H7A C13A 1_555 1_555
H8A C14A 1_555 1_555
H9A C15A 1_555 1_555
H10A C17A 1_555 1_555
H11A C18A 1_555 1_555
H12A C20A 1_555 1_555
H13A C21A 1_555 1_555
H14A C22A 1_555 1_555
O4_2 Eu1 1_555 1_555
O6A_2 Eu1 1_555 1_555
Eu1_2 O4 1_555 1_555
Eu1A_2 O5A 1_555 1_555
Eu1_3 O6A 1_555 1_555
Eu1A_3 O4A 1_555 1_555
O4A_2 Eu1A 1_555 1_555
O5A_2 Eu1A 1_555 1_555
O6 Eu1A 1_555 1_555
C16 C24 1_555 1_555
C19 C23 1_555 1_555
C21 C22 1_555 1_555
C23 C24 1_555 1_555
C10A C11A 1_555 1_555
O1A Eu1A 1_555 1_555
C6A C7A 1_555 1_555
C16A C24A 1_555 1_555
C19A C23A 1_555 1_555
C21A C22A 1_555 1_555
C23A C24A 1_555 1_555

#END
