
#######################################################################
#
#                 Cambridge Crystallographic Data Centre
#                                CCDC 
#
#######################################################################
#
# If this CIF has been generated from an entry in the Cambridge 
# Structural Database, then it will include bibliographic, chemical, 
# crystal, experimental, refinement or atomic coordinate data resulting 
# from the CCDC's data processing and validation procedures.
#
#######################################################################

data_IKAZOJ
_symmetry_cell_setting           triclinic
_symmetry_space_group_name_H-M   'P -1'
_symmetry_Int_Tables_number      2
_space_group_name_Hall           '-P 1'
loop_
_symmetry_equiv_pos_site_id
_symmetry_equiv_pos_as_xyz
1 x,y,z
2 -x,-y,-z
_cell_length_a                   10.924(2)
_cell_length_b                   12.205(2)
_cell_length_c                   16.393(3)
_cell_angle_alpha                90.82(3)
_cell_angle_beta                 107.16(3)
_cell_angle_gamma                101.97(3)
_cell_volume                     2036.26
loop_
_atom_site_label
_atom_site_type_symbol
_atom_site_fract_x
_atom_site_fract_y
_atom_site_fract_z
Pb1 Pb 0.62733(3) 0.88768(2) 0.58111(2)
Fe1 Fe 0.69306(14) 0.58528(11) 0.90456(9)
Fe2 Fe 0.23005(13) 0.89447(9) 0.09609(7)
N1 N 0.4307(7) 0.7120(5) 0.5444(4)
N2 N -0.2185(7) 0.0737(5) 0.5524(5)
O1 O 0.7257(6) 0.7188(5) 0.6365(4)
O2 O 0.8659(7) 0.8813(5) 0.6590(5)
O3 O 0.7617(9) 0.4530(5) 0.7219(5)
O4 O 0.6672(6) 0.8197(4) 0.4610(3)
O5 O 0.5215(6) 0.9214(4) 0.4040(3)
O6 O 0.5163(7) 1.0874(5) 0.2549(4)
C1 C 0.8179(21) 0.6343(11) 1.0218(11)
H1 H 0.8620(21) 0.7118(11) 1.0446(11)
C2 C 0.7052(23) 0.5763(24) 1.0311(10)
H2 H 0.6499(23) 0.6050(24) 1.0598(10)
C3 C 0.6760(17) 0.4714(16) 0.9882(12)
H3 H 0.5988(17) 0.4111(16) 0.9834(12)
C4 C 0.7835(21) 0.4637(15) 0.9590(9)
H4 H 0.7969(21) 0.3983(15) 0.9302(9)
C5 C 0.8677(14) 0.5617(15) 0.9868(11)
H5 H 0.9519(14) 0.5824(15) 0.9747(11)
C6 C 0.7190(12) 0.7099(9) 0.8238(7)
H6 H 0.7967(12) 0.7712(9) 0.8334(7)
C7 C 0.6058(16) 0.7131(10) 0.8493(9)
H7 H 0.5923(16) 0.7768(10) 0.8800(9)
C8 C 0.5196(13) 0.6076(13) 0.8255(9)
H8 H 0.4347(13) 0.5862(13) 0.8365(9)
C9 C 0.5729(12) 0.5363(11) 0.7823(7)
H9 H 0.5316(12) 0.4592(11) 0.7574(7)
C10 C 0.6980(10) 0.6019(7) 0.7805(6)
C11 C 0.7912(11) 0.5516(7) 0.7492(6)
C12 C 0.9177(10) 0.6210(8) 0.7520(6)
C13 C 1.0278(12) 0.5745(11) 0.7928(7)
H10 H 1.0134(12) 0.5053(11) 0.8155(7)
C14 C 1.1514(15) 0.6276(13) 0.7996(7)
H11 H 1.2202(15) 0.5934(13) 0.8251(7)
C15 C 1.1787(11) 0.7340(11) 0.7689(7)
H12 H 1.2651(11) 0.7705(11) 0.7757(7)
C16 C 1.0783(11) 0.7835(10) 0.7292(6)
H13 H 1.0953(11) 0.8537(10) 0.7084(6)
C17 C 0.9463(9) 0.7257(8) 0.7199(5)
C18 C 0.8330(9) 0.7786(7) 0.6671(5)
C19 C 0.1714(14) 0.8234(10) -0.0267(6)
H14 H 0.1256(14) 0.7452(10) -0.0459(6)
C20 C 0.1116(12) 0.9144(9) -0.0237(6)
H15 H 0.0170(12) 0.9112(9) -0.0401(6)
C21 C 0.2104(11) 1.0082(9) 0.0071(6)
H16 H 0.1973(11) 1.0839(9) 0.0164(6)
C22 C 0.3326(10) 0.9801(8) 0.0231(6)
H17 H 0.4186(10) 1.0322(8) 0.0443(6)
C23 C 0.3104(12) 0.8648(9) 0.0037(6)
H18 H 0.3775(12) 0.8210(9) 0.0080(6)
C24 C 0.2371(10) 0.9732(8) 0.2081(6)
H19 H 0.2424(10) 1.0538(8) 0.2177(6)
C25 C 0.1198(10) 0.8904(9) 0.1790(6)
H20 H 0.0299(10) 0.9015(9) 0.1657(6)
C26 C 0.1586(10) 0.7869(9) 0.1755(6)
H21 H 0.0979(10) 0.7136(9) 0.1565(6)
C27 C 0.2973(10) 0.8054(7) 0.1985(5)
H22 H 0.3486(10) 0.7480(7) 0.2004(5)
C28 C 0.3480(8) 0.9222(6) 0.2210(5)
C29 C 0.4840(9) 0.9837(7) 0.2434(5)
C30 C 0.5887(9) 0.9170(8) 0.2475(5)
C31 C 0.6346(12) 0.9174(11) 0.1776(7)
H23 H 0.6042(12) 0.9595(11) 0.1322(7)
C32 C 0.7244(16) 0.8562(14) 0.1752(8)
H24 H 0.7558(16) 0.8580(14) 0.1283(8)
C33 C 0.7696(15) 0.7919(14) 0.2408(8)
H25 H 0.8251(15) 0.7452(14) 0.2364(8)
C34 C 0.7314(11) 0.7981(10) 0.3124(7)
H26 H 0.7689(11) 0.7611(10) 0.3594(7)
C35 C 0.6373(8) 0.8585(7) 0.3173(5)
C36 C 0.6025(7) 0.8673(6) 0.3985(5)
C37 C 0.4170(8) 0.6229(6) 0.4899(6)
H27 H 0.4701(8) 0.6295(6) 0.4543(6)
C38 C 0.3290(9) 0.5236(6) 0.4846(6)
H28 H 0.3241(9) 0.4652(6) 0.4459(6)
C39 C 0.2480(8) 0.5085(6) 0.5350(5)
C40 C 0.2608(9) 0.6020(6) 0.5911(6)
H29 H 0.2065(9) 0.5983(6) 0.6258(6)
C41 C 0.3542(9) 0.6992(7) 0.5942(6)
H30 H 0.3635(9) 0.7585(7) 0.6334(6)
C42 C 0.1534(9) 0.4029(7) 0.5277(6)
H31 H 0.1698(85) 0.3525(68) 0.4934(57)
C43 C -0.1305(9) 0.0811(6) 0.5104(6)
H32 H -0.1283(9) 0.0169(6) 0.4800(6)
C44 C -0.0420(8) 0.1799(6) 0.5098(6)
H33 H 0.0144(8) 0.1820(6) 0.4768(6)
C45 C -0.0368(8) 0.2759(6) 0.5582(5)
C46 C -0.1261(8) 0.2680(6) 0.6019(5)
H34 H -0.1264(8) 0.3306(6) 0.6347(5)
C47 C -0.2163(8) 0.1691(6) 0.5986(5)
H35 H -0.2770(8) 0.1670(6) 0.6284(5)
C48 C 0.0585(9) 0.3820(7) 0.5643(6)
H36 H 0.0456(74) 0.4426(61) 0.6017(49)
N2_2 N 0.7815(7) 1.0737(5) 0.5524(5)
Pb1_2 Pb -0.37267(3) -0.11232(2) 0.58111(2)
loop_
_geom_bond_atom_site_label_1
_geom_bond_atom_site_label_2
_geom_bond_site_symmetry_1
_geom_bond_site_symmetry_2
Pb1 N1 1_555 1_555
Fe1 C1 1_555 1_555
Fe2 C19 1_555 1_555
N1 C37 1_555 1_555
N2 C43 1_555 1_555
O1 Pb1 1_555 1_555
O2 Pb1 1_555 1_555
O3 C11 1_555 1_555
O4 Pb1 1_555 1_555
O5 C36 1_555 1_555
O6 C29 1_555 1_555
C1 H1 1_555 1_555
C2 Fe1 1_555 1_555
H2 C2 1_555 1_555
C3 Fe1 1_555 1_555
H3 C3 1_555 1_555
C4 Fe1 1_555 1_555
H4 C4 1_555 1_555
C5 Fe1 1_555 1_555
H5 C5 1_555 1_555
C6 Fe1 1_555 1_555
H6 C6 1_555 1_555
C7 Fe1 1_555 1_555
H7 C7 1_555 1_555
C8 Fe1 1_555 1_555
H8 C8 1_555 1_555
C9 Fe1 1_555 1_555
H9 C9 1_555 1_555
C10 Fe1 1_555 1_555
C11 C10 1_555 1_555
C12 C11 1_555 1_555
C13 C12 1_555 1_555
H10 C13 1_555 1_555
C14 C13 1_555 1_555
H11 C14 1_555 1_555
C15 C14 1_555 1_555
H12 C15 1_555 1_555
C16 C15 1_555 1_555
H13 C16 1_555 1_555
C17 C12 1_555 1_555
C18 O1 1_555 1_555
C19 H14 1_555 1_555
C20 Fe2 1_555 1_555
H15 C20 1_555 1_555
C21 Fe2 1_555 1_555
H16 C21 1_555 1_555
C22 Fe2 1_555 1_555
H17 C22 1_555 1_555
C23 Fe2 1_555 1_555
H18 C23 1_555 1_555
C24 Fe2 1_555 1_555
H19 C24 1_555 1_555
C25 Fe2 1_555 1_555
H20 C25 1_555 1_555
C26 Fe2 1_555 1_555
H21 C26 1_555 1_555
C27 Fe2 1_555 1_555
H22 C27 1_555 1_555
C28 Fe2 1_555 1_555
C29 C28 1_555 1_555
C30 C29 1_555 1_555
C31 C30 1_555 1_555
H23 C31 1_555 1_555
C32 C31 1_555 1_555
H24 C32 1_555 1_555
C33 C32 1_555 1_555
H25 C33 1_555 1_555
C34 C33 1_555 1_555
H26 C34 1_555 1_555
C35 C30 1_555 1_555
C36 O4 1_555 1_555
C37 H27 1_555 1_555
C38 C37 1_555 1_555
H28 C38 1_555 1_555
C39 C38 1_555 1_555
C40 C39 1_555 1_555
H29 C40 1_555 1_555
C41 N1 1_555 1_555
H30 C41 1_555 1_555
C42 C39 1_555 1_555
H31 C42 1_555 1_555
C43 H32 1_555 1_555
C44 C43 1_555 1_555
H33 C44 1_555 1_555
C45 C44 1_555 1_555
C46 C45 1_555 1_555
H34 C46 1_555 1_555
C47 N2 1_555 1_555
H35 C47 1_555 1_555
C48 C42 1_555 1_555
H36 C48 1_555 1_555
N2_2 Pb1 1_555 1_555
Pb1_2 N2 1_555 1_555
O2 C18 1_555 1_555
C1 C2 1_555 1_555
C1 C5 1_555 1_555
C2 C3 1_555 1_555
C3 C4 1_555 1_555
C4 C5 1_555 1_555
C6 C7 1_555 1_555
C6 C10 1_555 1_555
C7 C8 1_555 1_555
C8 C9 1_555 1_555
C9 C10 1_555 1_555
C16 C17 1_555 1_555
C17 C18 1_555 1_555
C19 C20 1_555 1_555
C19 C23 1_555 1_555
C20 C21 1_555 1_555
C21 C22 1_555 1_555
C22 C23 1_555 1_555
C24 C25 1_555 1_555
C24 C28 1_555 1_555
C25 C26 1_555 1_555
C26 C27 1_555 1_555
C27 C28 1_555 1_555
C34 C35 1_555 1_555
C35 C36 1_555 1_555
C40 C41 1_555 1_555
C45 C48 1_555 1_555
C46 C47 1_555 1_555

#END
