
#######################################################################
#
#                 Cambridge Crystallographic Data Centre
#                                CCDC 
#
#######################################################################
#
# If this CIF has been generated from an entry in the Cambridge 
# Structural Database, then it will include bibliographic, chemical, 
# crystal, experimental, refinement or atomic coordinate data resulting 
# from the CCDC's data processing and validation procedures.
#
#######################################################################

data_IKAZEZ
_symmetry_cell_setting           monoclinic
_symmetry_space_group_name_H-M   'C 2/c'
_symmetry_Int_Tables_number      15
_space_group_name_Hall           '-C 2yn'
loop_
_symmetry_equiv_pos_site_id
_symmetry_equiv_pos_as_xyz
1 x,y,z
2 1/2+x,1/2+y,z
3 -x,y,1/2-z
4 1/2-x,1/2+y,1/2-z
5 -x,-y,-z
6 1/2-x,1/2-y,-z
7 x,-y,1/2+z
8 1/2+x,1/2-y,1/2+z
_cell_length_a                   34.191(7)
_cell_length_b                   11.470(2)
_cell_length_c                   12.100(2)
_cell_angle_alpha                90
_cell_angle_beta                 104.57(3)
_cell_angle_gamma                90
_cell_volume                     4592.66
loop_
_atom_site_label
_atom_site_type_symbol
_atom_site_fract_x
_atom_site_fract_y
_atom_site_fract_z
Fe1 Fe 0.15831(3) 0.02626(10) 1.21109(8)
Zn1 Zn 0.0000 0.27769(9) 0.7500
O1 O 0.06211(12) 0.2754(4) 0.8198(3)
O2 O 0.06505(14) 0.3441(4) 0.9947(3)
O3 O 0.13917(16) 0.3390(5) 1.2301(4)
O4 O 0.01195(18) 0.2772(5) 0.5838(4)
N1 N 0.0000 0.4711(6) 0.7500
N2 N 0.0000 1.0909(6) 0.7500
C1 C 0.08119(19) 0.3153(5) 0.9159(5)
C2 C 0.12606(19) 0.3335(6) 0.9361(5)
C3 C 0.1413(2) 0.3707(6) 0.8471(5)
H1 H 0.1244 0.3777 0.7740
C4 C 0.1820(2) 0.3977(7) 0.8673(6)
H2 H 0.1922 0.4246 0.8077
C5 C 0.2075(2) 0.3849(7) 0.9750(6)
H3 H 0.2349 0.4014 0.9881
C6 C 0.1913(2) 0.3469(7) 1.0639(6)
H4 H 0.2081 0.3390 1.1370
C7 C 0.1511(2) 0.3210(6) 1.0454(5)
C8 C 0.1357(2) 0.2771(7) 1.1465(5)
C9 C 0.1205(2) 0.1566(7) 1.1396(5)
C10 C 0.1220(2) 0.0700(6) 1.0545(5)
H5 H 0.1309 0.0830 0.9846
C11 C 0.1095(2) -0.0378(7) 1.0909(6)
H6 H 0.1083 -0.1125 1.0508
C12 C 0.0988(2) -0.0186(8) 1.1967(7)
H7 H 0.0893 -0.0782 1.2419
C13 C 0.1059(2) 0.1001(7) 1.2272(6)
H8 H 0.1016 0.1372 1.2961
C14 C 0.2178(3) 0.0247(18) 1.2064(11)
H9 H 0.2291 0.0450 1.1421
C15 C 0.2052(4) -0.0888(14) 1.2358(12)
H10 H 0.2055 -0.1608 1.1926
C16 C 0.1927(3) -0.0793(10) 1.3311(9)
H11 H 0.1825 -0.1435 1.3693
C17 C 0.1973(3) 0.0325(10) 1.3688(8)
H12 H 0.1908 0.0617 1.4382
C18 C 0.2115(3) 0.0987(11) 1.2929(11)
H13 H 0.2174 0.1823 1.2997
C19 C 0.0305(2) 0.5306(6) 0.7267(5)
H14 H 0.0520 0.4898 0.7109
C20 C 0.0311(2) 0.6511(5) 0.7253(5)
H15 H 0.0526 0.6901 0.7076
C21 C 0.0000 0.7134(8) 0.7500
C22 C 0.0000 0.8438(8) 0.7500
C23 C 0.0128(2) 0.9080(6) 0.8495(5)
H16 H 0.0213 0.8697 0.9192
C24 C 0.0130(2) 1.0278(6) 0.8462(5)
H17 H 0.0228 1.0678 0.9145
H18 H 0.0365(18) 0.316(5) 0.562(4)
H19 H -0.0052(18) 0.303(5) 0.553(5)
C20B C -0.0311(2) 0.6511(5) 0.7747(5)
C19B C -0.0305(2) 0.5306(6) 0.7733(5)
H14B H -0.0520 0.4898 0.7891
H15B H -0.0526 0.6901 0.7924
C24B C -0.0130(2) 1.0278(6) 0.6538(5)
C23B C -0.0128(2) 0.9080(6) 0.6505(5)
H16B H -0.0213 0.8697 0.5808
H17B H -0.0228 1.0678 0.5855
O1B O -0.06211(12) 0.2754(4) 0.6802(3)
O2B O -0.06505(14) 0.3441(4) 0.5053(3)
O3B O -0.13917(16) 0.3390(5) 0.2699(4)
C1B C -0.08119(19) 0.3153(5) 0.5841(5)
C2B C -0.12606(19) 0.3335(6) 0.5639(5)
C3B C -0.1413(2) 0.3707(6) 0.6529(5)
H1B H -0.1244 0.3777 0.7260
C4B C -0.1820(2) 0.3977(7) 0.6327(6)
H2B H -0.1922 0.4246 0.6923
C5B C -0.2075(2) 0.3849(7) 0.5250(6)
H3B H -0.2349 0.4014 0.5119
C6B C -0.1913(2) 0.3469(7) 0.4361(6)
H4B H -0.2081 0.3390 0.3630
C7B C -0.1511(2) 0.3210(6) 0.4546(5)
C8B C -0.1357(2) 0.2771(7) 0.3535(5)
C9B C -0.1205(2) 0.1566(7) 0.3604(5)
C10B C -0.1220(2) 0.0700(6) 0.4455(5)
H5B H -0.1309 0.0830 0.5154
C11B C -0.1095(2) -0.0378(7) 0.4091(6)
H6B H -0.1083 -0.1125 0.4492
C12B C -0.0988(2) -0.0186(8) 0.3033(7)
H7B H -0.0893 -0.0782 0.2581
C13B C -0.1059(2) 0.1001(7) 0.2728(6)
H8B H -0.1016 0.1372 0.2039
O4B O -0.01195(18) 0.2772(5) 0.9162(4)
H18B H -0.0365(18) 0.316(5) 0.938(4)
H19B H 0.0052(18) 0.303(5) 0.947(5)
Fe1B Fe -0.15831(3) 0.02626(10) 0.28891(8)
C14B C -0.2178(3) 0.0247(18) 0.2936(11)
H9B H -0.2291 0.0450 0.3579
C15B C -0.2052(4) -0.0888(14) 0.2642(12)
H10B H -0.2055 -0.1608 0.3074
C16B C -0.1927(3) -0.0793(10) 0.1689(9)
H11B H -0.1825 -0.1435 0.1307
C17B C -0.1973(3) 0.0325(10) 0.1312(8)
H12B H -0.1908 0.0617 0.0618
C18B C -0.2115(3) 0.0987(11) 0.2071(11)
H13B H -0.2174 0.1823 0.2003
N2_2 N 0.0000 0.0909(6) 0.7500
Zn1_2 Zn 0.0000 1.27769(9) 0.7500
O5 O 0.0742(2) 0.5945(6) 0.0419(6)
H20 H 0.1067(13) 0.633(4) 0.010(3)
H21 H 0.0774(16) 0.533(4) 0.039(4)
O6 O 0.1329(3) 0.6960(9) 0.9510(7)
C25 C 0.1727(8) 0.6672(18) 1.0242(15)
H22 H 0.1929 0.6806 0.9831
H23 H 0.1731 0.5867 1.0462
H24 H 0.1781 0.7154 1.0911
loop_
_geom_bond_atom_site_label_1
_geom_bond_atom_site_label_2
_geom_bond_site_symmetry_1
_geom_bond_site_symmetry_2
Fe1 C9 1_555 1_555
Zn1 O1 1_555 1_555
O1 C1 1_555 1_555
O2 C1 1_555 1_555
O3 C8 1_555 1_555
O4 Zn1 1_555 1_555
N1 Zn1 1_555 1_555
N2 C24 1_555 1_555
C1 C2 1_555 1_555
C2 C3 1_555 1_555
C3 H1 1_555 1_555
C4 C3 1_555 1_555
H2 C4 1_555 1_555
C5 C4 1_555 1_555
H3 C5 1_555 1_555
C6 C5 1_555 1_555
H4 C6 1_555 1_555
C7 C2 1_555 1_555
C8 C7 1_555 1_555
C9 C8 1_555 1_555
C10 Fe1 1_555 1_555
H5 C10 1_555 1_555
C11 Fe1 1_555 1_555
H6 C11 1_555 1_555
C12 Fe1 1_555 1_555
H7 C12 1_555 1_555
C13 Fe1 1_555 1_555
H8 C13 1_555 1_555
C14 Fe1 1_555 1_555
H9 C14 1_555 1_555
C15 Fe1 1_555 1_555
H10 C15 1_555 1_555
C16 Fe1 1_555 1_555
H11 C16 1_555 1_555
C17 Fe1 1_555 1_555
H12 C17 1_555 1_555
C18 Fe1 1_555 1_555
H13 C18 1_555 1_555
C19 N1 1_555 1_555
H14 C19 1_555 1_555
C20 C19 1_555 1_555
H15 C20 1_555 1_555
C21 C20 1_555 1_555
C22 C21 1_555 1_555
C23 C22 1_555 1_555
H16 C23 1_555 1_555
C24 C23 1_555 1_555
H17 C24 1_555 1_555
H18 O4 1_555 1_555
H19 O4 1_555 1_555
O5 H20 1_555 1_555
H21 O5 1_555 1_555
O6 C25 1_555 1_555
C25 H22 1_555 1_555
H23 C25 1_555 1_555
H24 C25 1_555 1_555
C20B C21 1_555 1_555
C19B N1 1_555 1_555
H14B C19B 1_555 1_555
H15B C20B 1_555 1_555
C24B N2 1_555 1_555
C23B C22 1_555 1_555
H16B C23B 1_555 1_555
H17B C24B 1_555 1_555
O1B Zn1 1_555 1_555
O2B C1B 1_555 1_555
O3B C8B 1_555 1_555
C1B O1B 1_555 1_555
C2B C1B 1_555 1_555
C3B C2B 1_555 1_555
H1B C3B 1_555 1_555
C4B C3B 1_555 1_555
H2B C4B 1_555 1_555
C5B C4B 1_555 1_555
H3B C5B 1_555 1_555
C6B C5B 1_555 1_555
H4B C6B 1_555 1_555
C7B C2B 1_555 1_555
C8B C7B 1_555 1_555
C9B C8B 1_555 1_555
C10B C9B 1_555 1_555
H5B C10B 1_555 1_555
C11B C10B 1_555 1_555
H6B C11B 1_555 1_555
C12B C11B 1_555 1_555
H7B C12B 1_555 1_555
C13B C9B 1_555 1_555
H8B C13B 1_555 1_555
O4B Zn1 1_555 1_555
H18B O4B 1_555 1_555
H19B O4B 1_555 1_555
Fe1B C9B 1_555 1_555
C14B Fe1B 1_555 1_555
H9B C14B 1_555 1_555
C15B Fe1B 1_555 1_555
H10B C15B 1_555 1_555
C16B Fe1B 1_555 1_555
H11B C16B 1_555 1_555
C17B Fe1B 1_555 1_555
H12B C17B 1_555 1_555
C18B Fe1B 1_555 1_555
H13B C18B 1_555 1_555
N2_2 Zn1 1_555 1_555
Zn1_2 N2 1_555 1_555
C6 C7 1_555 1_555
C9 C10 1_555 1_555
C9 C13 1_555 1_555
C10 C11 1_555 1_555
C11 C12 1_555 1_555
C12 C13 1_555 1_555
C14 C15 1_555 1_555
C14 C18 1_555 1_555
C15 C16 1_555 1_555
C16 C17 1_555 1_555
C17 C18 1_555 1_555
C20B C19B 1_555 1_555
C24B C23B 1_555 1_555
C6B C7B 1_555 1_555
C10B Fe1B 1_555 1_555
C11B Fe1B 1_555 1_555
C12B C13B 1_555 1_555
C12B Fe1B 1_555 1_555
C13B Fe1B 1_555 1_555
C14B C15B 1_555 1_555
C14B C18B 1_555 1_555
C15B C16B 1_555 1_555
C16B C17B 1_555 1_555
C17B C18B 1_555 1_555

#END
