
#######################################################################
#
#                 Cambridge Crystallographic Data Centre
#                                CCDC 
#
#######################################################################
#
# If this CIF has been generated from an entry in the Cambridge 
# Structural Database, then it will include bibliographic, chemical, 
# crystal, experimental, refinement or atomic coordinate data resulting 
# from the CCDC's data processing and validation procedures.
#
#######################################################################

data_IKEQOE
_symmetry_cell_setting           orthorhombic
_symmetry_space_group_name_H-M   'C c c a'
_symmetry_Int_Tables_number      68
_space_group_name_Hall           '-C 2b 2bc'
loop_
_symmetry_equiv_pos_site_id
_symmetry_equiv_pos_as_xyz
1 x,y,z
2 1/2+x,1/2+y,z
3 1/2+x,y,-z
4 x,-y,1/2+z
5 1/2-x,y,1/2+z
6 x,1/2+y,-z
7 1/2+x,1/2-y,1/2+z
8 -x,1/2+y,1/2+z
9 -x,-y,-z
10 1/2-x,1/2-y,-z
11 1/2-x,-y,z
12 -x,y,1/2-z
13 1/2+x,-y,1/2-z
14 -x,1/2-y,z
15 1/2-x,1/2+y,1/2-z
16 x,1/2-y,1/2-z
_cell_length_a                   21.5695(6)
_cell_length_b                   24.0989(6)
_cell_length_c                   9.8985(3)
_cell_angle_alpha                90
_cell_angle_beta                 90
_cell_angle_gamma                90
_cell_volume                     5145.25
loop_
_atom_site_label
_atom_site_type_symbol
_atom_site_fract_x
_atom_site_fract_y
_atom_site_fract_z
Zn1 Zn 0.0000 0.2500 1.2500
O1 O -0.25539(8) 0.41263(10) 1.05832(18)
O2 O -0.5000 0.53072(11) 1.2500
O4 O 0.0000 0.2500 1.0325(3)
H1 H -0.0075 0.2182 0.9964
N1 N -0.07342(11) 0.31220(10) 1.2522(2)
N2 N -0.27660(10) 0.41533(10) 1.2822(2)
H2 H -0.2637 0.4064 1.3615
C1 C -0.07896(12) 0.34785(12) 1.1500(3)
H3 H -0.0450 0.3532 1.0937
C2 C -0.13220(12) 0.37706(12) 1.1235(3)
H4 H -0.1340 0.4010 1.0499
C3 C -0.18323(11) 0.37058(11) 1.2074(3)
C4 C -0.17726(12) 0.33486(13) 1.3170(3)
H5 H -0.2099 0.3300 1.3774
C5 C -0.12215(13) 0.30673(13) 1.3346(3)
H6 H -0.1187 0.2827 1.4077
C6 C -0.24213(11) 0.40110(11) 1.1758(2)
C7 C -0.33378(12) 0.44472(12) 1.2709(2)
C8 C -0.37950(12) 0.42609(12) 1.1840(3)
H7 H -0.3728 0.3948 1.1309
C9 C -0.43552(12) 0.45443(12) 1.1768(3)
H8 H -0.4664 0.4425 1.1180
C10 C -0.44521(11) 0.50043(11) 1.2573(3)
C11 C -0.40025(12) 0.51870(12) 1.3445(3)
H9 H -0.4073 0.5497 1.3984
C12 C -0.34389(12) 0.49047(11) 1.3517(3)
H10 H -0.3132 0.5025 1.4109
C10K C -0.55479(11) 0.50043(11) 1.2427(3)
C9K C -0.56448(12) 0.45443(12) 1.3232(3)
C8K C -0.62050(12) 0.42609(12) 1.3160(3)
C7K C -0.66622(12) 0.44472(12) 1.2291(2)
N2K N -0.72340(10) 0.41533(10) 1.2178(2)
H2K H -0.7363 0.4064 1.1385
C6K C -0.75787(11) 0.40110(11) 1.3242(2)
O1K O -0.74461(8) 0.41263(10) 1.44168(18)
C3K C -0.81677(11) 0.37058(11) 1.2926(3)
C2K C -0.86780(12) 0.37706(12) 1.3765(3)
C1K C -0.92104(12) 0.34785(12) 1.3500(3)
N1K N -0.92658(11) 0.31220(10) 1.2478(2)
C5K C -0.87785(13) 0.30673(13) 1.1654(3)
C4K C -0.82274(12) 0.33486(13) 1.1830(3)
H5K H -0.7901 0.3300 1.1226
H6K H -0.8813 0.2827 1.0923
H3K H -0.9550 0.3532 1.4063
H4K H -0.8660 0.4010 1.4501
C12K C -0.65611(12) 0.49047(11) 1.1483(3)
C11K C -0.59975(12) 0.51870(12) 1.1555(3)
H9K H -0.5927 0.5497 1.1016
H10K H -0.6868 0.5025 1.0891
H7K H -0.6272 0.3948 1.3691
H8K H -0.5336 0.4425 1.3820
H1M H 0.0075 0.2818 0.9964
O4K O 0.0000 0.2500 1.4675(3)
H1K H 0.0075 0.2182 1.5036
H1O H -0.0075 0.2818 1.5036
O1K_2 O 0.25539(8) 0.41263(10) 1.44168(18)
O2K O 0.5000 0.53072(11) 1.2500
N1K_2 N 0.07342(11) 0.31220(10) 1.2478(2)
N2K_2 N 0.27660(10) 0.41533(10) 1.2178(2)
H2K_2 H 0.2637 0.4064 1.1385
C1K_2 C 0.07896(12) 0.34785(12) 1.3500(3)
H3K_2 H 0.0450 0.3532 1.4063
C2K_2 C 0.13220(12) 0.37706(12) 1.3765(3)
H4K_2 H 0.1340 0.4010 1.4501
C3K_2 C 0.18323(11) 0.37058(11) 1.2926(3)
C4K_2 C 0.17726(12) 0.33486(13) 1.1830(3)
H5K_2 H 0.2099 0.3300 1.1226
C5K_2 C 0.12215(13) 0.30673(13) 1.1654(3)
H6K_2 H 0.1187 0.2827 1.0923
C6K_2 C 0.24213(11) 0.40110(11) 1.3242(2)
C7K_2 C 0.33378(12) 0.44472(12) 1.2291(2)
C8K_2 C 0.37950(12) 0.42609(12) 1.3160(3)
H7K_2 H 0.3728 0.3948 1.3691
C9K_2 C 0.43552(12) 0.45443(12) 1.3232(3)
H8K_2 H 0.4664 0.4425 1.3820
C10K_2 C 0.44521(11) 0.50043(11) 1.2427(3)
C11K_2 C 0.40025(12) 0.51870(12) 1.1555(3)
H9K_2 H 0.4073 0.5497 1.1016
C12K_2 C 0.34389(12) 0.49047(11) 1.1483(3)
H10K_2 H 0.3132 0.5025 1.0891
C10_2 C 0.55479(11) 0.50043(11) 1.2573(3)
C9_2 C 0.56448(12) 0.45443(12) 1.1768(3)
C8_2 C 0.62050(12) 0.42609(12) 1.1840(3)
C7_2 C 0.66622(12) 0.44472(12) 1.2709(2)
N2_2 N 0.72340(10) 0.41533(10) 1.2822(2)
H2_2 H 0.7363 0.4064 1.3615
C6_2 C 0.75787(11) 0.40110(11) 1.1758(2)
O1_2 O 0.74461(8) 0.41263(10) 1.05832(18)
C3_2 C 0.81677(11) 0.37058(11) 1.2074(3)
C2_2 C 0.86780(12) 0.37706(12) 1.1235(3)
C1_2 C 0.92104(12) 0.34785(12) 1.1500(3)
N1_2 N 0.92658(11) 0.31220(10) 1.2522(2)
C5_2 C 0.87785(13) 0.30673(13) 1.3346(3)
C4_2 C 0.82274(12) 0.33486(13) 1.3170(3)
H5_2 H 0.7901 0.3300 1.3774
H6_2 H 0.8813 0.2827 1.4077
H3_2 H 0.9550 0.3532 1.0937
H4_2 H 0.8660 0.4010 1.0499
C12_2 C 0.65611(12) 0.49047(11) 1.3517(3)
C11_2 C 0.59975(12) 0.51870(12) 1.3445(3)
H9_2 H 0.5927 0.5497 1.3984
H10_2 H 0.6868 0.5025 1.4109
H7_2 H 0.6272 0.3948 1.1309
H8_2 H 0.5336 0.4425 1.1180
N1M N 0.07342(11) 0.18780(10) 1.2522(2)
N1O N -0.07342(11) 0.18780(10) 1.2478(2)
Zn1_2 Zn -1.0000 0.2500 1.2500
Zn1_3 Zn 1.0000 0.2500 1.2500
Cl1 Cl 0.14043(10) 0.2500 0.7500
O5 O 0.1845(8) 0.2333(10) 0.8713(19)
O7 O 0.1054(7) 0.2116(5) 0.8306(11)
O5O O 0.1845(8) 0.2667(10) 0.6287(19)
O7O O 0.1054(7) 0.2884(5) 0.6694(11)
O8 O 0.0015(3) 0.1683(3) 0.8547(6)
O3? O 0.1746(8) 0.2821(5) 0.8329(11)
O6? O 0.1066(8) 0.2141(5) 0.6816(15)
loop_
_geom_bond_atom_site_label_1
_geom_bond_atom_site_label_2
_geom_bond_site_symmetry_1
_geom_bond_site_symmetry_2
Zn1 O4 1_555 1_555
Cl1 O5 1_555 1_555
O1 C6 1_555 1_555
O2 C10 1_555 1_555
O4 H1 1_555 1_555
N1 Zn1 1_555 1_555
N2 H2 1_555 1_555
C1 N1 1_555 1_555
H3 C1 1_555 1_555
C2 C1 1_555 1_555
H4 C2 1_555 1_555
C3 C2 1_555 1_555
C4 C3 1_555 1_555
H5 C4 1_555 1_555
C5 N1 1_555 1_555
H6 C5 1_555 1_555
C6 N2 1_555 1_555
C7 N2 1_555 1_555
C8 C7 1_555 1_555
H7 C8 1_555 1_555
C9 C8 1_555 1_555
H8 C9 1_555 1_555
C10 C9 1_555 1_555
C11 C10 1_555 1_555
H9 C11 1_555 1_555
C12 C7 1_555 1_555
H10 C12 1_555 1_555
O7 Cl1 1_555 1_555
O5O Cl1 1_555 1_555
O7O Cl1 1_555 1_555
C10K O2 1_555 1_555
C9K C10K 1_555 1_555
C8K C9K 1_555 1_555
C7K C8K 1_555 1_555
N2K C7K 1_555 1_555
H2K N2K 1_555 1_555
C6K N2K 1_555 1_555
O1K C6K 1_555 1_555
C3K C6K 1_555 1_555
C2K C3K 1_555 1_555
C1K C2K 1_555 1_555
N1K C1K 1_555 1_555
C5K N1K 1_555 1_555
C4K C3K 1_555 1_555
H5K C4K 1_555 1_555
H6K C5K 1_555 1_555
H3K C1K 1_555 1_555
H4K C2K 1_555 1_555
C12K C7K 1_555 1_555
C11K C10K 1_555 1_555
H9K C11K 1_555 1_555
H10K C12K 1_555 1_555
H7K C8K 1_555 1_555
H8K C9K 1_555 1_555
H1M O4 1_555 1_555
O4K Zn1 1_555 1_555
H1K O4K 1_555 1_555
H1O O4K 1_555 1_555
O1K_2 C6K_2 1_555 1_555
O2K C10K_2 1_555 1_555
N1K_2 Zn1 1_555 1_555
N2K_2 H2K_2 1_555 1_555
C1K_2 N1K_2 1_555 1_555
H3K_2 C1K_2 1_555 1_555
C2K_2 C1K_2 1_555 1_555
H4K_2 C2K_2 1_555 1_555
C3K_2 C2K_2 1_555 1_555
C4K_2 C3K_2 1_555 1_555
H5K_2 C4K_2 1_555 1_555
C5K_2 N1K_2 1_555 1_555
H6K_2 C5K_2 1_555 1_555
C6K_2 N2K_2 1_555 1_555
C7K_2 N2K_2 1_555 1_555
C8K_2 C7K_2 1_555 1_555
H7K_2 C8K_2 1_555 1_555
C9K_2 C8K_2 1_555 1_555
H8K_2 C9K_2 1_555 1_555
C10K_2 C9K_2 1_555 1_555
C11K_2 C10K_2 1_555 1_555
H9K_2 C11K_2 1_555 1_555
C12K_2 C7K_2 1_555 1_555
H10K_2 C12K_2 1_555 1_555
C10_2 O2K 1_555 1_555
C9_2 C10_2 1_555 1_555
C8_2 C9_2 1_555 1_555
C7_2 C8_2 1_555 1_555
N2_2 C7_2 1_555 1_555
H2_2 N2_2 1_555 1_555
C6_2 N2_2 1_555 1_555
O1_2 C6_2 1_555 1_555
C3_2 C6_2 1_555 1_555
C2_2 C3_2 1_555 1_555
C1_2 C2_2 1_555 1_555
N1_2 C1_2 1_555 1_555
C5_2 N1_2 1_555 1_555
C4_2 C3_2 1_555 1_555
H5_2 C4_2 1_555 1_555
H6_2 C5_2 1_555 1_555
H3_2 C1_2 1_555 1_555
H4_2 C2_2 1_555 1_555
C12_2 C7_2 1_555 1_555
C11_2 C10_2 1_555 1_555
H9_2 C11_2 1_555 1_555
H10_2 C12_2 1_555 1_555
H7_2 C8_2 1_555 1_555
H8_2 C9_2 1_555 1_555
N1M Zn1 1_555 1_555
N1O Zn1 1_555 1_555
Zn1_2 N1K 1_555 1_555
Zn1_3 N1_2 1_555 1_555
C3 C6 1_555 1_555
C4 C5 1_555 1_555
C11 C12 1_555 1_555
C5K C4K 1_555 1_555
C12K C11K 1_555 1_555
C3K_2 C6K_2 1_555 1_555
C4K_2 C5K_2 1_555 1_555
C11K_2 C12K_2 1_555 1_555
C5_2 C4_2 1_555 1_555
C12_2 C11_2 1_555 1_555

#END
