
#######################################################################
#
#                 Cambridge Crystallographic Data Centre
#                                CCDC 
#
#######################################################################
#
# If this CIF has been generated from an entry in the Cambridge 
# Structural Database, then it will include bibliographic, chemical, 
# crystal, experimental, refinement or atomic coordinate data resulting 
# from the CCDC's data processing and validation procedures.
#
#######################################################################

data_IKEQIY
_symmetry_cell_setting           orthorhombic
_symmetry_space_group_name_H-M   'C c c a'
_symmetry_Int_Tables_number      68
_space_group_name_Hall           '-C 2b 2bc'
loop_
_symmetry_equiv_pos_site_id
_symmetry_equiv_pos_as_xyz
1 x,y,z
2 1/2+x,1/2+y,z
3 1/2+x,y,-z
4 x,-y,1/2+z
5 1/2-x,y,1/2+z
6 x,1/2+y,-z
7 1/2+x,1/2-y,1/2+z
8 -x,1/2+y,1/2+z
9 -x,-y,-z
10 1/2-x,1/2-y,-z
11 1/2-x,-y,z
12 -x,y,1/2-z
13 1/2+x,-y,1/2-z
14 -x,1/2-y,z
15 1/2-x,1/2+y,1/2-z
16 x,1/2-y,1/2-z
_cell_length_a                   21.9887(7)
_cell_length_b                   24.0417(7)
_cell_length_c                   9.8536(3)
_cell_angle_alpha                90
_cell_angle_beta                 90
_cell_angle_gamma                90
_cell_volume                     5209.06
loop_
_atom_site_label
_atom_site_type_symbol
_atom_site_fract_x
_atom_site_fract_y
_atom_site_fract_z
Cd1 Cd 0.0000 0.2500 1.2500
O1 O -0.25844(8) 0.41435(9) 1.05236(17)
O2 O -0.5000 0.52976(12) 1.2500
O3 O 0.0000 0.2500 1.0116(5)
H1 H -0.0075 0.2182 0.9754
N1 N -0.07854(11) 0.31599(10) 1.2480(2)
N2 N -0.27881(9) 0.41734(10) 1.27719(18)
H2 H -0.2656 0.4090 1.3568
C1 C -0.08470(11) 0.35016(12) 1.1427(3)
H3 H -0.0518 0.3549 1.0846
C2 C -0.13748(12) 0.37886(12) 1.1156(3)
H4 H -0.1399 0.4022 1.0405
C3 C -0.18719(11) 0.37266(11) 1.2016(3)
C4 C -0.18058(11) 0.33755(12) 1.3126(3)
H5 H -0.2124 0.3325 1.3735
C5 C -0.12591(13) 0.31024(13) 1.3313(3)
H6 H -0.1220 0.2867 1.4056
C6 C -0.24474(10) 0.40290(10) 1.1703(2)
C7 C -0.33544(11) 0.44555(11) 1.26707(19)
C8 C -0.38073(11) 0.42566(12) 1.1831(3)
H7 H -0.3742 0.3940 1.1309
C9 C -0.43645(11) 0.45333(12) 1.1772(3)
H8 H -0.4669 0.4404 1.1198
C10 C -0.44637(12) 0.49982(11) 1.2563(2)
C11 C -0.40140(11) 0.51933(11) 1.3411(3)
H9 H -0.4082 0.5507 1.3942
C12 C -0.34548(11) 0.49186(11) 1.3471(2)
H10 H -0.3151 0.5047 1.4048
C10K C -0.55363(12) 0.49982(11) 1.2437(2)
C9K C -0.56355(11) 0.45333(12) 1.3228(3)
C8K C -0.61927(11) 0.42566(12) 1.3169(3)
C7K C -0.66456(11) 0.44555(11) 1.23293(19)
N2K N -0.72119(9) 0.41734(10) 1.22281(18)
H2K H -0.7344 0.4090 1.1432
C6K C -0.75526(10) 0.40290(10) 1.3297(2)
O1K O -0.74156(8) 0.41435(9) 1.44764(17)
C3K C -0.81281(11) 0.37266(11) 1.2984(3)
C2K C -0.86252(12) 0.37886(12) 1.3844(3)
C1K C -0.91530(11) 0.35016(12) 1.3573(3)
N1K N -0.92146(11) 0.31599(10) 1.2520(2)
C5K C -0.87409(13) 0.31024(13) 1.1687(3)
C4K C -0.81942(11) 0.33755(12) 1.1874(3)
H5K H -0.7876 0.3325 1.1265
H6K H -0.8780 0.2867 1.0944
H3K H -0.9482 0.3549 1.4154
H4K H -0.8601 0.4022 1.4595
C12K C -0.65452(11) 0.49186(11) 1.1529(2)
C11K C -0.59860(11) 0.51933(11) 1.1589(3)
H9K H -0.5918 0.5507 1.1058
H10K H -0.6849 0.5047 1.0952
H7K H -0.6258 0.3940 1.3691
H8K H -0.5331 0.4404 1.3802
H1M H 0.0075 0.2818 0.9754
O3K O 0.0000 0.2500 1.4884(5)
H1K H 0.0075 0.2182 1.5246
H1O H -0.0075 0.2818 1.5246
O1K_2 O 0.25844(8) 0.41435(9) 1.44764(17)
O2K O 0.5000 0.52976(12) 1.2500
N1K_2 N 0.07854(11) 0.31599(10) 1.2520(2)
N2K_2 N 0.27881(9) 0.41734(10) 1.22281(18)
H2K_2 H 0.2656 0.4090 1.1432
C1K_2 C 0.08470(11) 0.35016(12) 1.3573(3)
H3K_2 H 0.0518 0.3549 1.4154
C2K_2 C 0.13748(12) 0.37886(12) 1.3844(3)
H4K_2 H 0.1399 0.4022 1.4595
C3K_2 C 0.18719(11) 0.37266(11) 1.2984(3)
C4K_2 C 0.18058(11) 0.33755(12) 1.1874(3)
H5K_2 H 0.2124 0.3325 1.1265
C5K_2 C 0.12591(13) 0.31024(13) 1.1687(3)
H6K_2 H 0.1220 0.2867 1.0944
C6K_2 C 0.24474(10) 0.40290(10) 1.3297(2)
C7K_2 C 0.33544(11) 0.44555(11) 1.23293(19)
C8K_2 C 0.38073(11) 0.42566(12) 1.3169(3)
H7K_2 H 0.3742 0.3940 1.3691
C9K_2 C 0.43645(11) 0.45333(12) 1.3228(3)
H8K_2 H 0.4669 0.4404 1.3802
C10K_2 C 0.44637(12) 0.49982(11) 1.2437(2)
C11K_2 C 0.40140(11) 0.51933(11) 1.1589(3)
H9K_2 H 0.4082 0.5507 1.1058
C12K_2 C 0.34548(11) 0.49186(11) 1.1529(2)
H10K_2 H 0.3151 0.5047 1.0952
C10_2 C 0.55363(12) 0.49982(11) 1.2563(2)
C9_2 C 0.56355(11) 0.45333(12) 1.1772(3)
C8_2 C 0.61927(11) 0.42566(12) 1.1831(3)
C7_2 C 0.66456(11) 0.44555(11) 1.26707(19)
N2_2 N 0.72119(9) 0.41734(10) 1.27719(18)
H2_2 H 0.7344 0.4090 1.3568
C6_2 C 0.75526(10) 0.40290(10) 1.1703(2)
O1_2 O 0.74156(8) 0.41435(9) 1.05236(17)
C3_2 C 0.81281(11) 0.37266(11) 1.2016(3)
C2_2 C 0.86252(12) 0.37886(12) 1.1156(3)
C1_2 C 0.91530(11) 0.35016(12) 1.1427(3)
N1_2 N 0.92146(11) 0.31599(10) 1.2480(2)
C5_2 C 0.87409(13) 0.31024(13) 1.3313(3)
C4_2 C 0.81942(11) 0.33755(12) 1.3126(3)
H5_2 H 0.7876 0.3325 1.3735
H6_2 H 0.8780 0.2867 1.4056
H3_2 H 0.9482 0.3549 1.0846
H4_2 H 0.8601 0.4022 1.0405
C12_2 C 0.65452(11) 0.49186(11) 1.3471(2)
C11_2 C 0.59860(11) 0.51933(11) 1.3411(3)
H9_2 H 0.5918 0.5507 1.3942
H10_2 H 0.6849 0.5047 1.4048
H7_2 H 0.6258 0.3940 1.1309
H8_2 H 0.5331 0.4404 1.1198
N1M N 0.07854(11) 0.18401(10) 1.2480(2)
N1O N -0.07854(11) 0.18401(10) 1.2520(2)
Cd1_2 Cd -1.0000 0.2500 1.2500
Cd1_3 Cd 1.0000 0.2500 1.2500
Cl1 Cl 0.13895(10) 0.2500 0.7500
O4 O 0.1744(5) 0.2138(5) 0.6756(13)
O5 O 0.1651(14) 0.2146(15) 0.842(3)
O4O O 0.1744(5) 0.2862(5) 0.8244(13)
O5O O 0.1651(14) 0.2854(15) 0.658(3)
O8 O 0.0048(4) 0.1667(8) 0.8522(11)
O6? O 0.1145(10) 0.2209(8) 0.6615(15)
O7? O 0.1069(6) 0.2164(6) 0.8378(13)
loop_
_geom_bond_atom_site_label_1
_geom_bond_atom_site_label_2
_geom_bond_site_symmetry_1
_geom_bond_site_symmetry_2
Cd1 O3 1_555 1_555
O1 C6 1_555 1_555
O2 C10 1_555 1_555
O3 H1 1_555 1_555
N1 Cd1 1_555 1_555
N2 H2 1_555 1_555
C1 N1 1_555 1_555
H3 C1 1_555 1_555
C2 C1 1_555 1_555
H4 C2 1_555 1_555
C3 C2 1_555 1_555
C4 C3 1_555 1_555
H5 C4 1_555 1_555
C5 N1 1_555 1_555
H6 C5 1_555 1_555
C6 N2 1_555 1_555
C7 N2 1_555 1_555
C8 C7 1_555 1_555
H7 C8 1_555 1_555
C9 C8 1_555 1_555
H8 C9 1_555 1_555
C10 C9 1_555 1_555
C11 C10 1_555 1_555
H9 C11 1_555 1_555
C12 C7 1_555 1_555
H10 C12 1_555 1_555
Cl1 O4 1_555 1_555
O5 Cl1 1_555 1_555
C10K O2 1_555 1_555
C9K C10K 1_555 1_555
C8K C9K 1_555 1_555
C7K C8K 1_555 1_555
N2K C7K 1_555 1_555
H2K N2K 1_555 1_555
C6K N2K 1_555 1_555
O1K C6K 1_555 1_555
C3K C6K 1_555 1_555
C2K C3K 1_555 1_555
C1K C2K 1_555 1_555
N1K C1K 1_555 1_555
C5K N1K 1_555 1_555
C4K C3K 1_555 1_555
H5K C4K 1_555 1_555
H6K C5K 1_555 1_555
H3K C1K 1_555 1_555
H4K C2K 1_555 1_555
C12K C7K 1_555 1_555
C11K C10K 1_555 1_555
H9K C11K 1_555 1_555
H10K C12K 1_555 1_555
H7K C8K 1_555 1_555
H8K C9K 1_555 1_555
H1M O3 1_555 1_555
O4O Cl1 1_555 1_555
O5O Cl1 1_555 1_555
O3K Cd1 1_555 1_555
H1K O3K 1_555 1_555
H1O O3K 1_555 1_555
O1K_2 C6K_2 1_555 1_555
O2K C10K_2 1_555 1_555
N1K_2 Cd1 1_555 1_555
N2K_2 H2K_2 1_555 1_555
C1K_2 N1K_2 1_555 1_555
H3K_2 C1K_2 1_555 1_555
C2K_2 C1K_2 1_555 1_555
H4K_2 C2K_2 1_555 1_555
C3K_2 C2K_2 1_555 1_555
C4K_2 C3K_2 1_555 1_555
H5K_2 C4K_2 1_555 1_555
C5K_2 N1K_2 1_555 1_555
H6K_2 C5K_2 1_555 1_555
C6K_2 N2K_2 1_555 1_555
C7K_2 N2K_2 1_555 1_555
C8K_2 C7K_2 1_555 1_555
H7K_2 C8K_2 1_555 1_555
C9K_2 C8K_2 1_555 1_555
H8K_2 C9K_2 1_555 1_555
C10K_2 C9K_2 1_555 1_555
C11K_2 C10K_2 1_555 1_555
H9K_2 C11K_2 1_555 1_555
C12K_2 C7K_2 1_555 1_555
H10K_2 C12K_2 1_555 1_555
C10_2 O2K 1_555 1_555
C9_2 C10_2 1_555 1_555
C8_2 C9_2 1_555 1_555
C7_2 C8_2 1_555 1_555
N2_2 C7_2 1_555 1_555
H2_2 N2_2 1_555 1_555
C6_2 N2_2 1_555 1_555
O1_2 C6_2 1_555 1_555
C3_2 C6_2 1_555 1_555
C2_2 C3_2 1_555 1_555
C1_2 C2_2 1_555 1_555
N1_2 C1_2 1_555 1_555
C5_2 N1_2 1_555 1_555
C4_2 C3_2 1_555 1_555
H5_2 C4_2 1_555 1_555
H6_2 C5_2 1_555 1_555
H3_2 C1_2 1_555 1_555
H4_2 C2_2 1_555 1_555
C12_2 C7_2 1_555 1_555
C11_2 C10_2 1_555 1_555
H9_2 C11_2 1_555 1_555
H10_2 C12_2 1_555 1_555
H7_2 C8_2 1_555 1_555
H8_2 C9_2 1_555 1_555
N1M Cd1 1_555 1_555
N1O Cd1 1_555 1_555
Cd1_2 N1K 1_555 1_555
Cd1_3 N1_2 1_555 1_555
C3 C6 1_555 1_555
C4 C5 1_555 1_555
C11 C12 1_555 1_555
C5K C4K 1_555 1_555
C12K C11K 1_555 1_555
C3K_2 C6K_2 1_555 1_555
C4K_2 C5K_2 1_555 1_555
C11K_2 C12K_2 1_555 1_555
C5_2 C4_2 1_555 1_555
C12_2 C11_2 1_555 1_555

#END
