
#######################################################################
#
#                 Cambridge Crystallographic Data Centre
#                                CCDC 
#
#######################################################################
#
# If this CIF has been generated from an entry in the Cambridge 
# Structural Database, then it will include bibliographic, chemical, 
# crystal, experimental, refinement or atomic coordinate data resulting 
# from the CCDC's data processing and validation procedures.
#
#######################################################################

data_IKETEX
_symmetry_cell_setting           triclinic
_symmetry_space_group_name_H-M   'P 1'
_symmetry_Int_Tables_number      1
_space_group_name_Hall           'P 1'
loop_
_symmetry_equiv_pos_site_id
_symmetry_equiv_pos_as_xyz
1 x,y,z
_cell_length_a                   9.2279(8)
_cell_length_b                   9.4014(8)
_cell_length_c                   13.3663(12)
_cell_angle_alpha                107.445(2)
_cell_angle_beta                 106.707(2)
_cell_angle_gamma                93.479(2)
_cell_volume                     1045.79
loop_
_atom_site_label
_atom_site_type_symbol
_atom_site_fract_x
_atom_site_fract_y
_atom_site_fract_z
I1 I 1.18064(4) 0.49985(3) 0.74454(3)
I2 I 0.80611(4) 0.72035(3) 0.60169(3)
Cu1 Cu 0.93533(17) 0.61837(15) 0.77394(13)
Cu2 Cu 1.05259(17) 0.60150(15) 0.57260(13)
P1 P 0.9807(3) 0.8140(3) 0.9300(3)
P2 P 1.0029(4) 0.4061(3) 0.4147(3)
N1 N 0.7699(13) 0.4335(11) 0.7382(9)
N2 N 0.2105(13) -0.2090(12) 0.6073(9)
C1 C 0.8088(13) 0.3128(14) 0.7660(10)
H1 H 0.9119 0.3106 0.7984
C2 C 0.6994(14) 0.1880(15) 0.7482(13)
H2 H 0.7288 0.1133 0.7788
C3 C 0.5563(13) 0.1779(12) 0.6886(10)
C4 C 0.5123(14) 0.3079(14) 0.6600(13)
H3 H 0.4101 0.3144 0.6286
C5 C 0.6264(14) 0.4204(14) 0.6810(10)
H4 H 0.5996 0.4966 0.6515
C6 C 0.4373(11) 0.0436(13) 0.6594(9)
C7 C 0.4723(15) -0.0779(14) 0.6904(14)
H5 H 0.5719 -0.0761 0.7335
C8 C 0.2768(14) 0.0401(15) 0.6061(13)
H6 H 0.2426 0.1259 0.5929
C9 C 0.3608(13) -0.2084(14) 0.6587(13)
H7 H 0.3914 -0.2946 0.6733
C10 C 0.1733(16) -0.0904(16) 0.5744(13)
H8 H 0.0743 -0.0965 0.5286
C11 C 0.9150(12) 0.4383(12) 0.2837(10)
C12 C 0.9577(18) 0.3994(16) 0.1938(13)
H9 H 1.0422 0.3498 0.1967
C13 C 0.889(2) 0.4256(15) 0.0977(13)
H10 H 0.9318 0.4045 0.0407
C14 C 0.751(2) 0.4855(19) 0.0872(15)
H11 H 0.6940 0.4896 0.0187
C15 C 0.699(2) 0.539(2) 0.1782(17)
H12 H 0.6178 0.5935 0.1747
C16 C 0.7790(15) 0.5057(19) 0.2815(13)
H13 H 0.7422 0.5276 0.3414
C17 C 0.8855(14) 0.2321(11) 0.3966(10)
C18 C 0.8110(17) 0.1223(15) 0.2962(12)
H14 H 0.8166 0.1431 0.2335
C19 C 0.7302(17) -0.0132(16) 0.2790(12)
H15 H 0.6811 -0.0830 0.2089
C20 C 0.7278(19) -0.0393(18) 0.3830(14)
H16 H 0.6773 -0.1303 0.3793
C21 C 0.7960(19) 0.0645(15) 0.4799(15)
H17 H 0.7915 0.0452 0.5433
C22 C 0.8707(15) 0.1950(15) 0.4904(12)
H18 H 0.9153 0.2654 0.5609
C23 C 1.1822(14) 0.3398(15) 0.3930(11)
C24 C 1.2054(14) 0.1940(14) 0.3632(12)
H19 H 1.1277 0.1169 0.3513
C25 C 1.3433(18) 0.1598(19) 0.3507(16)
H20 H 1.3601 0.0601 0.3305
C26 C 1.4644(17) 0.285(2) 0.3701(15)
H21 H 1.5567 0.2656 0.3580
C27 C 1.438(2) 0.426(2) 0.4055(17)
H22 H 1.5148 0.5058 0.4217
C28 C 1.3046(16) 0.4568(14) 0.4182(11)
H23 H 1.2912 0.5569 0.4442
C29 C 1.0990(12) 0.9908(13) 0.9493(10)
C30 C 1.1047(15) 1.0199(14) 0.8568(12)
H24 H 1.0503 0.9523 0.7869
C31 C 1.1966(18) 1.1571(16) 0.8689(13)
H25 H 1.2039 1.1790 0.8070
C32 C 1.2757(16) 1.2583(14) 0.9769(13)
H26 H 1.3310 1.3503 0.9869
C33 C 1.2698(18) 1.2220(17) 1.0586(14)
H27 H 1.3278 1.2885 1.1280
C34 C 1.1827(18) 1.0879(16) 1.0562(13)
H28 H 1.1820 1.0675 1.1200
C35 C 1.0781(14) 0.7777(13) 1.0590(8)
C36 C 1.208(2) 0.7158(19) 1.0753(15)
H29 H 1.2436 0.6773 1.0157
C37 C 1.282(3) 0.708(2) 1.167(2)
H30 H 1.3807 0.6863 1.1775
C38 C 1.227(3) 0.730(2) 1.2512(17)
H31 H 1.2770 0.7033 1.3123
C39 C 1.103(2) 0.7901(19) 1.2466(11)
H32 H 1.0717 0.8180 1.3092
C40 C 1.0127(19) 0.8138(17) 1.1491(12)
H33 H 0.9198 0.8495 1.1431
C41 C 0.8035(13) 0.8709(12) 0.9448(10)
C42 C 0.7803(15) 1.0211(15) 0.9785(11)
H34 H 0.8595 1.0981 0.9931
C43 C 0.6404(19) 1.058(2) 0.9906(17)
H35 H 0.6278 1.1588 1.0109
C44 C 0.5296(16) 0.9568(17) 0.9745(14)
H36 H 0.4376 0.9851 0.9824
C45 C 0.5452(12) 0.8000(16) 0.9443(12)
H37 H 0.4657 0.7268 0.9353
C46 C 0.6845(12) 0.7592(13) 0.9285(10)
H38 H 0.6963 0.6581 0.9073
Cu2_2 Cu 0.05259(17) -0.39850(15) 0.57260(13)
N2_2 N 1.2105(13) 0.7910(12) 0.6073(9)
loop_
_geom_bond_atom_site_label_1
_geom_bond_atom_site_label_2
_geom_bond_site_symmetry_1
_geom_bond_site_symmetry_2
I1 Cu1 1_555 1_555
I2 Cu1 1_555 1_555
Cu1 P1 1_555 1_555
Cu2 I1 1_555 1_555
P1 C29 1_555 1_555
P2 Cu2 1_555 1_555
N1 Cu1 1_555 1_555
N2 C9 1_555 1_555
C1 N1 1_555 1_555
H1 C1 1_555 1_555
C2 C1 1_555 1_555
H2 C2 1_555 1_555
C3 C2 1_555 1_555
C4 C3 1_555 1_555
H3 C4 1_555 1_555
C5 N1 1_555 1_555
H4 C5 1_555 1_555
C6 C3 1_555 1_555
C7 C6 1_555 1_555
H5 C7 1_555 1_555
C8 C6 1_555 1_555
H6 C8 1_555 1_555
C9 C7 1_555 1_555
H7 C9 1_555 1_555
C10 N2 1_555 1_555
H8 C10 1_555 1_555
C11 P2 1_555 1_555
C12 C11 1_555 1_555
H9 C12 1_555 1_555
C13 C12 1_555 1_555
H10 C13 1_555 1_555
C14 C13 1_555 1_555
H11 C14 1_555 1_555
C15 C14 1_555 1_555
H12 C15 1_555 1_555
C16 C11 1_555 1_555
H13 C16 1_555 1_555
C17 P2 1_555 1_555
C18 C17 1_555 1_555
H14 C18 1_555 1_555
C19 C18 1_555 1_555
H15 C19 1_555 1_555
C20 C19 1_555 1_555
H16 C20 1_555 1_555
C21 C20 1_555 1_555
H17 C21 1_555 1_555
C22 C17 1_555 1_555
H18 C22 1_555 1_555
C23 P2 1_555 1_555
C24 C23 1_555 1_555
H19 C24 1_555 1_555
C25 C24 1_555 1_555
H20 C25 1_555 1_555
C26 C25 1_555 1_555
H21 C26 1_555 1_555
C27 C26 1_555 1_555
H22 C27 1_555 1_555
C28 C23 1_555 1_555
H23 C28 1_555 1_555
C29 C30 1_555 1_555
C30 H24 1_555 1_555
C31 C30 1_555 1_555
H25 C31 1_555 1_555
C32 C31 1_555 1_555
H26 C32 1_555 1_555
C33 C32 1_555 1_555
H27 C33 1_555 1_555
C34 C29 1_555 1_555
H28 C34 1_555 1_555
C35 P1 1_555 1_555
C36 C35 1_555 1_555
H29 C36 1_555 1_555
C37 C36 1_555 1_555
H30 C37 1_555 1_555
C38 C37 1_555 1_555
H31 C38 1_555 1_555
C39 C38 1_555 1_555
H32 C39 1_555 1_555
C40 C35 1_555 1_555
H33 C40 1_555 1_555
C41 P1 1_555 1_555
C42 C41 1_555 1_555
H34 C42 1_555 1_555
C43 C42 1_555 1_555
H35 C43 1_555 1_555
C44 C43 1_555 1_555
H36 C44 1_555 1_555
C45 C44 1_555 1_555
H37 C45 1_555 1_555
C46 C41 1_555 1_555
H38 C46 1_555 1_555
Cu2_2 N2 1_555 1_555
N2_2 Cu2 1_555 1_555
I2 Cu2 1_555 1_555
C4 C5 1_555 1_555
C8 C10 1_555 1_555
C15 C16 1_555 1_555
C21 C22 1_555 1_555
C27 C28 1_555 1_555
C33 C34 1_555 1_555
C39 C40 1_555 1_555
C45 C46 1_555 1_555

#END
