
#######################################################################
#
#                 Cambridge Crystallographic Data Centre
#                                CCDC 
#
#######################################################################
#
# If this CIF has been generated from an entry in the Cambridge 
# Structural Database, then it will include bibliographic, chemical, 
# crystal, experimental, refinement or atomic coordinate data resulting 
# from the CCDC's data processing and validation procedures.
#
#######################################################################

data_IKETOH
_symmetry_cell_setting           cubic
_symmetry_space_group_name_H-M   'F m -3 m'
_symmetry_Int_Tables_number      225
_space_group_name_Hall           '-F 4 2 3'
loop_
_symmetry_equiv_pos_site_id
_symmetry_equiv_pos_as_xyz
1 x,y,z
2 z,x,y
3 y,z,x
4 x,z,y
5 y,x,z
6 z,y,x
7 -x,y,z
8 -z,x,y
9 -y,z,x
10 -x,z,y
11 -y,x,z
12 -z,y,x
13 x,-y,z
14 z,-x,y
15 y,-z,x
16 x,-z,y
17 y,-x,z
18 z,-y,x
19 x,y,-z
20 z,x,-y
21 y,z,-x
22 x,z,-y
23 y,x,-z
24 z,y,-x
25 x,1/2+y,1/2+z
26 z,1/2+x,1/2+y
27 y,1/2+z,1/2+x
28 x,1/2+z,1/2+y
29 y,1/2+x,1/2+z
30 z,1/2+y,1/2+x
31 -x,1/2+y,1/2+z
32 -z,1/2+x,1/2+y
33 -y,1/2+z,1/2+x
34 -x,1/2+z,1/2+y
35 -y,1/2+x,1/2+z
36 -z,1/2+y,1/2+x
37 x,1/2-y,1/2+z
38 z,1/2-x,1/2+y
39 y,1/2-z,1/2+x
40 x,1/2-z,1/2+y
41 y,1/2-x,1/2+z
42 z,1/2-y,1/2+x
43 x,1/2+y,1/2-z
44 z,1/2+x,1/2-y
45 y,1/2+z,1/2-x
46 x,1/2+z,1/2-y
47 y,1/2+x,1/2-z
48 z,1/2+y,1/2-x
49 1/2+x,y,1/2+z
50 1/2+z,x,1/2+y
51 1/2+y,z,1/2+x
52 1/2+x,z,1/2+y
53 1/2+y,x,1/2+z
54 1/2+z,y,1/2+x
55 1/2-x,y,1/2+z
56 1/2-z,x,1/2+y
57 1/2-y,z,1/2+x
58 1/2-x,z,1/2+y
59 1/2-y,x,1/2+z
60 1/2-z,y,1/2+x
61 1/2+x,-y,1/2+z
62 1/2+z,-x,1/2+y
63 1/2+y,-z,1/2+x
64 1/2+x,-z,1/2+y
65 1/2+y,-x,1/2+z
66 1/2+z,-y,1/2+x
67 1/2+x,y,1/2-z
68 1/2+z,x,1/2-y
69 1/2+y,z,1/2-x
70 1/2+x,z,1/2-y
71 1/2+y,x,1/2-z
72 1/2+z,y,1/2-x
73 1/2+x,1/2+y,z
74 1/2+z,1/2+x,y
75 1/2+y,1/2+z,x
76 1/2+x,1/2+z,y
77 1/2+y,1/2+x,z
78 1/2+z,1/2+y,x
79 1/2-x,1/2+y,z
80 1/2-z,1/2+x,y
81 1/2-y,1/2+z,x
82 1/2-x,1/2+z,y
83 1/2-y,1/2+x,z
84 1/2-z,1/2+y,x
85 1/2+x,1/2-y,z
86 1/2+z,1/2-x,y
87 1/2+y,1/2-z,x
88 1/2+x,1/2-z,y
89 1/2+y,1/2-x,z
90 1/2+z,1/2-y,x
91 1/2+x,1/2+y,-z
92 1/2+z,1/2+x,-y
93 1/2+y,1/2+z,-x
94 1/2+x,1/2+z,-y
95 1/2+y,1/2+x,-z
96 1/2+z,1/2+y,-x
97 -x,-y,-z
98 -z,-x,-y
99 -y,-z,-x
100 -x,-z,-y
101 -y,-x,-z
102 -z,-y,-x
103 x,-y,-z
104 z,-x,-y
105 y,-z,-x
106 x,-z,-y
107 y,-x,-z
108 z,-y,-x
109 -x,y,-z
110 -z,x,-y
111 -y,z,-x
112 -x,z,-y
113 -y,x,-z
114 -z,y,-x
115 -x,-y,z
116 -z,-x,y
117 -y,-z,x
118 -x,-z,y
119 -y,-x,z
120 -z,-y,x
121 -x,1/2-y,1/2-z
122 -z,1/2-x,1/2-y
123 -y,1/2-z,1/2-x
124 -x,1/2-z,1/2-y
125 -y,1/2-x,1/2-z
126 -z,1/2-y,1/2-x
127 x,1/2-y,1/2-z
128 z,1/2-x,1/2-y
129 y,1/2-z,1/2-x
130 x,1/2-z,1/2-y
131 y,1/2-x,1/2-z
132 z,1/2-y,1/2-x
133 -x,1/2+y,1/2-z
134 -z,1/2+x,1/2-y
135 -y,1/2+z,1/2-x
136 -x,1/2+z,1/2-y
137 -y,1/2+x,1/2-z
138 -z,1/2+y,1/2-x
139 -x,1/2-y,1/2+z
140 -z,1/2-x,1/2+y
141 -y,1/2-z,1/2+x
142 -x,1/2-z,1/2+y
143 -y,1/2-x,1/2+z
144 -z,1/2-y,1/2+x
145 1/2-x,-y,1/2-z
146 1/2-z,-x,1/2-y
147 1/2-y,-z,1/2-x
148 1/2-x,-z,1/2-y
149 1/2-y,-x,1/2-z
150 1/2-z,-y,1/2-x
151 1/2+x,-y,1/2-z
152 1/2+z,-x,1/2-y
153 1/2+y,-z,1/2-x
154 1/2+x,-z,1/2-y
155 1/2+y,-x,1/2-z
156 1/2+z,-y,1/2-x
157 1/2-x,y,1/2-z
158 1/2-z,x,1/2-y
159 1/2-y,z,1/2-x
160 1/2-x,z,1/2-y
161 1/2-y,x,1/2-z
162 1/2-z,y,1/2-x
163 1/2-x,-y,1/2+z
164 1/2-z,-x,1/2+y
165 1/2-y,-z,1/2+x
166 1/2-x,-z,1/2+y
167 1/2-y,-x,1/2+z
168 1/2-z,-y,1/2+x
169 1/2-x,1/2-y,-z
170 1/2-z,1/2-x,-y
171 1/2-y,1/2-z,-x
172 1/2-x,1/2-z,-y
173 1/2-y,1/2-x,-z
174 1/2-z,1/2-y,-x
175 1/2+x,1/2-y,-z
176 1/2+z,1/2-x,-y
177 1/2+y,1/2-z,-x
178 1/2+x,1/2-z,-y
179 1/2+y,1/2-x,-z
180 1/2+z,1/2-y,-x
181 1/2-x,1/2+y,-z
182 1/2-z,1/2+x,-y
183 1/2-y,1/2+z,-x
184 1/2-x,1/2+z,-y
185 1/2-y,1/2+x,-z
186 1/2-z,1/2+y,-x
187 1/2-x,1/2-y,z
188 1/2-z,1/2-x,y
189 1/2-y,1/2-z,x
190 1/2-x,1/2-z,y
191 1/2-y,1/2-x,z
192 1/2-z,1/2-y,x
_cell_length_a                   26.338(1)
_cell_length_b                   26.338(1)
_cell_length_c                   26.338(1)
_cell_angle_alpha                90
_cell_angle_beta                 90
_cell_angle_gamma                90
_cell_volume                     18270.4
loop_
_atom_site_label
_atom_site_type_symbol
_atom_site_fract_x
_atom_site_fract_y
_atom_site_fract_z
Cu1 Cu 0.28511(3) 0.0000 0.2149
O1 O 0.2434(1) 0.0524(1) 0.1830(1)
O2 O 0.3444(2) 0.0000 0.1556
C1 C 0.2031(2) 0.0689(3) 0.2031
C2 C 0.1773(2) 0.1124(3) 0.1773
C3 C 0.1995(3) 0.1334(2) 0.1334
O1E O 0.1830(1) 0.0524(1) 0.2434(1)
C2A C 0.1773 0.1773(2) 0.1124(3)
C1A C 0.2031 0.2031(2) 0.0689(3)
O1A O 0.1830(1) 0.2434(1) 0.0524(1)
O1C O 0.2434(1) 0.1830(1) 0.0524(1)
C3A C 0.1334 0.1995(3) 0.1334(2)
C2B C 0.1124(3) 0.1773 0.1773(2)
C1B C 0.0689(3) 0.2031 0.2031(2)
O1B O 0.0524(1) 0.1830(1) 0.2434(1)
O1D O 0.0524(1) 0.2434(1) 0.1830(1)
C3B C 0.1334(2) 0.1334 0.1995(3)
O1L O 0.2434(1) -0.0524(1) 0.1830(1)
C1L C 0.2031(2) -0.0689(3) 0.2031
C2L C 0.1773(2) -0.1124(3) 0.1773
C3L C 0.1995(3) -0.1334(2) 0.1334
O1Q O 0.1830(1) -0.0524(1) 0.2434(1)
C2M C 0.1773 -0.1773(2) 0.1124(3)
C1M C 0.2031 -0.2031(2) 0.0689(3)
O1M O 0.1830(1) -0.2434(1) 0.0524(1)
O1O O 0.2434(1) -0.1830(1) 0.0524(1)
C3M C 0.1334 -0.1995(3) 0.1334(2)
C2N C 0.1124(3) -0.1773 0.1773(2)
C1N C 0.0689(3) -0.2031 0.2031(2)
O1N O 0.0524(1) -0.1830(1) 0.2434(1)
O1P O 0.0524(1) -0.2434(1) 0.1830(1)
C3N C 0.1334(2) -0.1334 0.1995(3)
O1SE O 0.3170(1) -0.0524(1) 0.2566(1)
O1NE O 0.2566(1) -0.0524(1) 0.3170(1)
O1EF O 0.3170(1) 0.0524(1) 0.2566(1)
O1ZE O 0.2566(1) 0.0524(1) 0.3170(1)
Cu1E Cu 0.2149 0.0000 0.28511(3)
Cu1A Cu 0.2149 0.28511(3) 0.0000
Cu1C Cu 0.28511(3) 0.2149 0.0000
Cu1B Cu 0.0000 0.2149 0.28511(3)
Cu1D Cu 0.0000 0.28511(3) 0.2149
Cu1M Cu 0.2149 -0.28511(3) 0.0000
Cu1O Cu 0.28511(3) -0.2149 0.0000
Cu1N Cu 0.0000 -0.2149 0.28511(3)
Cu1P Cu 0.0000 -0.28511(3) 0.2149
O2E O 0.1556 0.0000 0.3444(2)
O2N O 0.0000 -0.1556 0.3444(2)
O1TA O 0.0524(1) -0.2566(1) 0.3170(1)
O1LD O -0.0524(1) -0.1830(1) 0.2434(1)
O1FE O -0.0524(1) -0.2566(1) 0.3170(1)
O6 O 0.2503(7) 0.0000 0.0771(5)
O7 O 0.270(2) 0.0000 0.0000
N1 N 0.340(2) 0.1597 0.1597
C4 C 0.309(2) 0.1909 0.1909
C5 C 0.325(3) 0.121(2) 0.1208
C5BF C 0.379(2) 0.1208 0.175(3)
C5EG C 0.3792 0.175(3) 0.121(2)
W1 W 0.09553(1) 0.0000 0.0955
P1 P 0.0000 0.0000 0.0000
O3 O 0.1400(2) 0.0000 0.1400
O4 O 0.1192(3) 0.0499(2) 0.0499
O5 O 0.0342(4) 0.0342 0.0342
O5F O -0.0342(4) 0.0342 0.0342
O5L O 0.0342(4) -0.0342 0.0342
O5R O 0.0342(4) 0.0342 -0.0342
O5RC O -0.0342(4) -0.0342 -0.0342
O5XC O 0.0342(4) -0.0342 -0.0342
O5DD O -0.0342(4) 0.0342 -0.0342
O5JD O -0.0342(4) -0.0342 0.0342
O4B O 0.0499(2) 0.0499 0.1192(3)
O4L O 0.1192(3) -0.0499(2) 0.0499
O4N O 0.0499(2) -0.0499 0.1192(3)
W1B W 0.0000 0.0955 0.09553(1)
W1N W 0.0000 -0.0955 0.09553(1)
W1A W 0.0955 0.09553(1) 0.0000
W1M W 0.0955 -0.09553(1) 0.0000
W1F W -0.09553(1) 0.0000 0.0955
W1R W 0.09553(1) 0.0000 -0.0955
W1RC W -0.09553(1) 0.0000 -0.0955
W1T W 0.0000 0.0955 -0.09553(1)
W1TC W 0.0000 -0.0955 -0.09553(1)
W1G W -0.0955 0.09553(1) 0.0000
W1SC W -0.0955 -0.09553(1) 0.0000
O3B O 0.0000 0.1400 0.1400(2)
O4A O 0.0499 0.1192(3) 0.0499(2)
O4H O -0.0499(2) 0.0499 0.1192(3)
O4G O -0.0499 0.1192(3) 0.0499(2)
O3N O 0.0000 -0.1400 0.1400(2)
O4M O 0.0499 -0.1192(3) 0.0499(2)
O4LD O -0.0499(2) -0.0499 0.1192(3)
O4KD O -0.0499 -0.1192(3) 0.0499(2)
O3A O 0.1400 0.1400(2) 0.0000
O4S O 0.0499 0.1192(3) -0.0499(2)
O4R O 0.1192(3) 0.0499(2) -0.0499
O3M O 0.1400 -0.1400(2) 0.0000
O4YC O 0.0499 -0.1192(3) -0.0499(2)
O4XC O 0.1192(3) -0.0499(2) -0.0499
O3F O -0.1400(2) 0.0000 0.1400
O4F O -0.1192(3) 0.0499(2) 0.0499
O4JD O -0.1192(3) -0.0499(2) 0.0499
O3R O 0.1400(2) 0.0000 -0.1400
O4T O 0.0499(2) 0.0499 -0.1192(3)
O4ZC O 0.0499(2) -0.0499 -0.1192(3)
O3RC O -0.1400(2) 0.0000 -0.1400
O4RC O -0.1192(3) -0.0499(2) -0.0499
O4TC O -0.0499(2) -0.0499 -0.1192(3)
O4DD O -0.1192(3) 0.0499(2) -0.0499
O4FD O -0.0499(2) 0.0499 -0.1192(3)
O3T O 0.0000 0.1400 -0.1400(2)
O4ED O -0.0499 0.1192(3) -0.0499(2)
O3TC O 0.0000 -0.1400 -0.1400(2)
O4SC O -0.0499 -0.1192(3) -0.0499(2)
O3G O -0.1400 0.1400(2) 0.0000
O3SC O -0.1400 -0.1400(2) 0.0000
loop_
_geom_bond_atom_site_label_1
_geom_bond_atom_site_label_2
_geom_bond_site_symmetry_1
_geom_bond_site_symmetry_2
W1 O3 1_555 1_555
Cu1 O1 1_555 1_555
P1 O5 1_555 1_555
O1 C1 1_555 1_555
O2 Cu1 1_555 1_555
O4 W1 1_555 1_555
O5 W1 1_555 1_555
N1 C4 1_555 1_555
C1 C2 1_555 1_555
C2 C3 1_555 1_555
C3 C2A 1_555 1_555
C5 N1 1_555 1_555
O5F P1 1_555 1_555
O5L W1 1_555 1_555
O5R P1 1_555 1_555
O5RC P1 1_555 1_555
O5XC P1 1_555 1_555
O5DD P1 1_555 1_555
O5JD P1 1_555 1_555
O1E C1 1_555 1_555
C2A C1A 1_555 1_555
C1A O1A 1_555 1_555
O1A Cu1A 1_555 1_555
O1C C1A 1_555 1_555
C3A C2A 1_555 1_555
C2B C3A 1_555 1_555
C1B C2B 1_555 1_555
O1B C1B 1_555 1_555
O1D C1B 1_555 1_555
C3B C2 1_555 1_555
C5BF N1 1_555 1_555
C5EG N1 1_555 1_555
O4B W1 1_555 1_555
O4L W1 1_555 1_555
O4N W1 1_555 1_555
W1B O5 1_555 1_555
W1N O5L 1_555 1_555
W1A O4 1_555 1_555
W1M O5L 1_555 1_555
W1F O5F 1_555 1_555
W1R O5R 1_555 1_555
W1RC O5RC 1_555 1_555
W1T O5R 1_555 1_555
W1TC O5RC 1_555 1_555
W1G O5F 1_555 1_555
W1SC O5RC 1_555 1_555
O3B W1B 1_555 1_555
O4A W1B 1_555 1_555
O4H W1B 1_555 1_555
O4G W1B 1_555 1_555
O3N W1N 1_555 1_555
O4M W1N 1_555 1_555
O4LD W1N 1_555 1_555
O4KD W1N 1_555 1_555
O3A W1A 1_555 1_555
O4S W1A 1_555 1_555
O4R W1A 1_555 1_555
O3M W1M 1_555 1_555
O4YC W1M 1_555 1_555
O4XC W1M 1_555 1_555
O3F W1F 1_555 1_555
O4F W1F 1_555 1_555
O4JD W1F 1_555 1_555
O3R W1R 1_555 1_555
O4T W1R 1_555 1_555
O4ZC W1R 1_555 1_555
O3RC W1RC 1_555 1_555
O4RC W1RC 1_555 1_555
O4TC W1RC 1_555 1_555
O4DD W1RC 1_555 1_555
O4FD W1RC 1_555 1_555
O3T W1T 1_555 1_555
O4ED W1T 1_555 1_555
O3TC W1TC 1_555 1_555
O4SC W1TC 1_555 1_555
O3G W1G 1_555 1_555
O3SC W1SC 1_555 1_555
O1L Cu1 1_555 1_555
C1L O1L 1_555 1_555
C2L C1L 1_555 1_555
C3L C2L 1_555 1_555
O1Q C1L 1_555 1_555
C2M C3L 1_555 1_555
C1M C2M 1_555 1_555
O1M C1M 1_555 1_555
O1O C1M 1_555 1_555
C3M C2M 1_555 1_555
C2N C3M 1_555 1_555
C1N C2N 1_555 1_555
O1N C1N 1_555 1_555
O1P C1N 1_555 1_555
C3N C2L 1_555 1_555
O1SE Cu1 1_555 1_555
O1NE Cu1E 1_555 1_555
O1EF Cu1 1_555 1_555
O1ZE Cu1E 1_555 1_555
Cu1E Cu1 1_555 1_555
Cu1A Cu1C 1_555 1_555
Cu1C O1C 1_555 1_555
Cu1B O1B 1_555 1_555
Cu1D O1D 1_555 1_555
Cu1M O1M 1_555 1_555
Cu1O O1O 1_555 1_555
Cu1N O1N 1_555 1_555
Cu1P O1P 1_555 1_555
O2E Cu1E 1_555 1_555
O2N Cu1N 1_555 1_555
O1TA Cu1N 1_555 1_555
O1LD Cu1N 1_555 1_555
O1FE Cu1N 1_555 1_555
P1 O5L 1_555 1_555
O5 W1A 1_555 1_555
O5F W1B 1_555 1_555
O5R W1A 1_555 1_555
O5XC W1R 1_555 1_555
O5XC W1TC 1_555 1_555
O5XC W1M 1_555 1_555
O5DD W1RC 1_555 1_555
O5DD W1T 1_555 1_555
O5DD W1G 1_555 1_555
O5JD W1F 1_555 1_555
O5JD W1N 1_555 1_555
O5JD W1SC 1_555 1_555
O1E Cu1E 1_555 1_555
C2B C3B 1_555 1_555
O4B W1B 1_555 1_555
O4L W1M 1_555 1_555
O4N W1N 1_555 1_555
W1A O4A 1_555 1_555
W1M O4M 1_555 1_555
W1F O4H 1_555 1_555
W1F O4LD 1_555 1_555
W1R O4R 1_555 1_555
W1R O4XC 1_555 1_555
W1T O4T 1_555 1_555
W1T O4S 1_555 1_555
W1T O4FD 1_555 1_555
W1TC O4TC 1_555 1_555
W1TC O4ZC 1_555 1_555
W1TC O4YC 1_555 1_555
W1G O4G 1_555 1_555
W1G O4ED 1_555 1_555
W1G O4F 1_555 1_555
W1G O4DD 1_555 1_555
W1SC O4KD 1_555 1_555
W1SC O4SC 1_555 1_555
W1SC O4JD 1_555 1_555
W1SC O4RC 1_555 1_555
O1Q Cu1E 1_555 1_555
C2N C3N 1_555 1_555
Cu1B Cu1D 1_555 1_555
Cu1M Cu1O 1_555 1_555
Cu1N Cu1P 1_555 1_555

#END
