
#######################################################################
#
#                 Cambridge Crystallographic Data Centre
#                                CCDC 
#
#######################################################################
#
# If this CIF has been generated from an entry in the Cambridge 
# Structural Database, then it will include bibliographic, chemical, 
# crystal, experimental, refinement or atomic coordinate data resulting 
# from the CCDC's data processing and validation procedures.
#
#######################################################################

data_IKEVUQ
_symmetry_cell_setting           monoclinic
_symmetry_space_group_name_H-M   'P 21/c'
_symmetry_Int_Tables_number      14
_space_group_name_Hall           '-P 2ybc'
loop_
_symmetry_equiv_pos_site_id
_symmetry_equiv_pos_as_xyz
1 x,y,z
2 -x,1/2+y,1/2-z
3 -x,-y,-z
4 x,1/2-y,1/2+z
_cell_length_a                   5.9955(14)
_cell_length_b                   18.987(4)
_cell_length_c                   12.101(3)
_cell_angle_alpha                90
_cell_angle_beta                 119.371(9)
_cell_angle_gamma                90
_cell_volume                     1200.47
loop_
_atom_site_label
_atom_site_type_symbol
_atom_site_fract_x
_atom_site_fract_y
_atom_site_fract_z
Tb1 Tb 0.45599(4) 0.596988(10) 0.194796(18)
C1 C 1.0063(8) 0.5267(2) 0.2700(4)
C2 C 1.0075(8) 0.5122(2) 0.3935(4)
C3 C 1.2066(8) 0.4775(2) 0.4953(4)
H1 H 1.3474 0.4625 0.4888
C4 C 0.8621(9) 0.7353(2) 0.2845(4)
C5 C 0.6027(9) 0.7723(2) 0.2133(4)
C6 C 0.5642(11) 0.8439(3) 0.2026(5)
H2 H 0.7057 0.8736 0.2374
C7 C 0.1348(10) 0.8267(3) 0.0950(5)
H3 H -0.0313 0.8443 0.0544
C8 C 0.1689(9) 0.7552(2) 0.1023(4)
C9 C -0.0420(9) 0.7019(2) 0.0494(4)
N1 N 0.8008(7) 0.53463(18) 0.3985(3)
N2 N 0.4041(7) 0.72873(19) 0.1625(3)
N3 N 0.3293(9) 0.8722(2) 0.1434(5)
O1 O 0.7907(6) 0.53839(16) 0.1761(3)
O2 O 1.2184(6) 0.52510(17) 0.2721(3)
O3 O 0.8478(6) 0.66911(16) 0.2901(3)
O4 O 1.0564(6) 0.77116(19) 0.3297(3)
O5 O 0.0268(6) 0.63867(16) 0.0673(3)
O6 O -0.2681(6) 0.72303(18) -0.0094(3)
O7 O 0.4382(6) 0.65546(16) 0.3750(3)
H4 H 0.5156 0.6944 0.4061
H5 H 0.2884 0.6675 0.3604
O8 O 0.4060(6) 0.62336(17) -0.0133(3)
H6 H 0.5274 0.6510 -0.0045
H7 H 0.2789 0.6493 -0.0623
O9 O 0.2780(8) 0.49439(19) 0.0648(4)
H8 H 0.2818 0.4870 -0.0037
H9 H 0.1994 0.4572 0.0663
Tb1B Tb 1.54401(4) 0.403012(10) 0.805204(18)
Tb1_2 Tb 1.45599(4) 0.596988(10) 0.194796(18)
Tb1B_2 Tb 0.54401(4) 0.403012(10) 0.805204(18)
C1B C 0.9937(8) 0.4733(2) 0.7300(4)
C2B C 0.9925(8) 0.4878(2) 0.6065(4)
C3B C 0.7934(8) 0.5225(2) 0.5047(4)
H1B H 0.6526 0.5375 0.5112
C4B C 1.1379(9) 0.2647(2) 0.7155(4)
C5B C 1.3973(9) 0.2277(2) 0.7867(4)
C6B C 1.4358(11) 0.1561(3) 0.7974(5)
H2B H 1.2943 0.1264 0.7626
C7B C 1.8652(10) 0.1733(3) 0.9050(5)
H3B H 2.0313 0.1557 0.9456
C8B C 1.8311(9) 0.2448(2) 0.8977(4)
C9B C 2.0420(9) 0.2981(2) 0.9506(4)
N1B N 1.1992(7) 0.46537(18) 0.6015(3)
N2B N 1.5959(7) 0.27127(19) 0.8375(3)
N3B N 1.6707(9) 0.1278(2) 0.8566(5)
O1B O 1.2093(6) 0.46161(16) 0.8239(3)
O2B O 0.7816(6) 0.47490(17) 0.7279(3)
O2_2 O 0.2184(6) 0.52510(17) 0.2721(3)
O2B_2 O 1.7816(6) 0.47490(17) 0.7279(3)
O3B O 1.1522(6) 0.33089(16) 0.7099(3)
O4B O 0.9436(6) 0.22884(19) 0.6703(3)
O5B O 1.9732(6) 0.36133(16) 0.9327(3)
O6B O 2.2681(6) 0.27697(18) 1.0094(3)
O7B O 1.5618(6) 0.34454(16) 0.6250(3)
H4B H 1.4844 0.3056 0.5939
H5B H 1.7116 0.3325 0.6396
O8B O 1.5940(6) 0.37664(17) 1.0133(3)
H6B H 1.4726 0.3490 1.0045
H7B H 1.7211 0.3507 1.0623
O9B O 1.7220(8) 0.50561(19) 0.9352(4)
H8B H 1.7182 0.5130 1.0037
H9B H 1.8006 0.5428 0.9337
loop_
_geom_bond_atom_site_label_1
_geom_bond_atom_site_label_2
_geom_bond_site_symmetry_1
_geom_bond_site_symmetry_2
Tb1 N1 1_555 1_555
C1 C2 1_555 1_555
C2 C3 1_555 1_555
C3 H1 1_555 1_555
C4 C5 1_555 1_555
C5 C6 1_555 1_555
C6 H2 1_555 1_555
C7 H3 1_555 1_555
C8 C7 1_555 1_555
C9 C8 1_555 1_555
N1 C2 1_555 1_555
N2 Tb1 1_555 1_555
N3 C6 1_555 1_555
O1 Tb1 1_555 1_555
O2 C1 1_555 1_555
O3 Tb1 1_555 1_555
O4 C4 1_555 1_555
O5 Tb1 1_555 1_555
O6 C9 1_555 1_555
O7 Tb1 1_555 1_555
H4 O7 1_555 1_555
H5 O7 1_555 1_555
O8 Tb1 1_555 1_555
H6 O8 1_555 1_555
H7 O8 1_555 1_555
O9 Tb1 1_555 1_555
H8 O9 1_555 1_555
H9 O9 1_555 1_555
Tb1B N1B 1_555 1_555
Tb1_2 O2 1_555 1_555
Tb1B_2 O2B 1_555 1_555
C1B C2B 1_555 1_555
C2B C3B 1_555 1_555
C3B N1 1_555 1_555
H1B C3B 1_555 1_555
C4B C5B 1_555 1_555
C5B C6B 1_555 1_555
C6B H2B 1_555 1_555
C7B H3B 1_555 1_555
C8B C7B 1_555 1_555
C9B C8B 1_555 1_555
N1B C3 1_555 1_555
N2B Tb1B 1_555 1_555
N3B C6B 1_555 1_555
O1B Tb1B 1_555 1_555
O2B C1B 1_555 1_555
O2_2 Tb1 1_555 1_555
O2B_2 Tb1B 1_555 1_555
O3B Tb1B 1_555 1_555
O4B C4B 1_555 1_555
O5B Tb1B 1_555 1_555
O6B C9B 1_555 1_555
O7B Tb1B 1_555 1_555
H4B O7B 1_555 1_555
H5B O7B 1_555 1_555
O8B Tb1B 1_555 1_555
H6B O8B 1_555 1_555
H7B O8B 1_555 1_555
O9B Tb1B 1_555 1_555
H8B O9B 1_555 1_555
H9B O9B 1_555 1_555
C1 O1 1_555 1_555
C4 O3 1_555 1_555
C5 N2 1_555 1_555
C7 N3 1_555 1_555
C8 N2 1_555 1_555
C9 O5 1_555 1_555
C1B O1B 1_555 1_555
C2B N1B 1_555 1_555
C4B O3B 1_555 1_555
C5B N2B 1_555 1_555
C7B N3B 1_555 1_555
C8B N2B 1_555 1_555
C9B O5B 1_555 1_555

#END
