
#######################################################################
#
#                 Cambridge Crystallographic Data Centre
#                                CCDC 
#
#######################################################################
#
# If this CIF has been generated from an entry in the Cambridge 
# Structural Database, then it will include bibliographic, chemical, 
# crystal, experimental, refinement or atomic coordinate data resulting 
# from the CCDC's data processing and validation procedures.
#
#######################################################################

data_IKEVID
_symmetry_cell_setting           triclinic
_symmetry_space_group_name_H-M   'P -1'
_symmetry_Int_Tables_number      2
_space_group_name_Hall           '-P 1'
loop_
_symmetry_equiv_pos_site_id
_symmetry_equiv_pos_as_xyz
1 x,y,z
2 -x,-y,-z
_cell_length_a                   7.2491(8)
_cell_length_b                   11.113(1)
_cell_length_c                   19.572(2)
_cell_angle_alpha                93.847(6)
_cell_angle_beta                 100.202(3)
_cell_angle_gamma                97.277(5)
_cell_volume                     1532.79
loop_
_atom_site_label
_atom_site_type_symbol
_atom_site_fract_x
_atom_site_fract_y
_atom_site_fract_z
Cu1 Cu 0.03293(6) 0.31661(4) 0.24424(3)
O1 O 0.2336(3) 0.3426(2) 0.3265(1)
O2 O 0.4315(4) 0.3013(3) 0.2561(2)
O3 O 0.7796(4) 0.3047(3) 0.3058(2)
O4 O -0.1815(4) 0.2818(2) 0.1675(2)
O5 O 0.0068(5) 0.2904(3) 0.0902(2)
O6 O -0.1294(9) 0.2291(6) -0.0376(3)
N1 N 0.0334(4) 0.4982(3) 0.2433(2)
N2 N 0.0457(4) 1.1362(3) 0.2448(2)
C1 C 0.3974(5) 0.3262(3) 0.3162(2)
C2 C 0.5518(5) 0.3354(3) 0.3778(2)
C3 C 0.7379(5) 0.3260(3) 0.3697(2)
C4 C 0.8832(5) 0.3370(4) 0.4275(2)
C5 C 0.8436(6) 0.3565(5) 0.4938(3)
C6 C 0.6592(6) 0.3640(5) 0.5026(2)
C7 C 0.5165(6) 0.3548(4) 0.4451(3)
C8 C -0.1545(7) 0.2669(4) 0.1055(2)
C9 C -0.3205(7) 0.2187(4) 0.0507(2)
C10 C -0.300(1) 0.2046(6) -0.0189(3)
C11 C -0.462(2) 0.1594(8) -0.0704(4)
C12 C -0.632(1) 0.1286(7) -0.0519(5)
C13 C -0.6543(10) 0.1425(7) 0.0169(5)
C14 C -0.4993(8) 0.1889(5) 0.0678(3)
C15 C -0.0171(7) 0.5516(4) 0.1853(3)
C16 C -0.0165(8) 0.6758(4) 0.1839(3)
C17 C 0.0365(5) 0.7502(3) 0.2462(2)
C18 C 0.0844(6) 0.6953(3) 0.3057(2)
C19 C 0.0829(6) 0.5709(3) 0.3031(2)
C20 C 0.0846(6) 1.0701(3) 0.1902(2)
C21 C 0.0823(6) 0.9448(3) 0.1902(2)
C22 C 0.0423(5) 0.8844(3) 0.2463(2)
C23 C 0.0091(6) 0.9539(3) 0.3027(2)
C24 C 0.0120(6) 1.0792(3) 0.3001(2)
H1 H 0.6601 0.3057 0.2714
H2 H 1.0232 0.3316 0.4168
H3 H 0.9457 0.3616 0.5360
H4 H 0.6249 0.3702 0.5523
H5 H 0.3896 0.3607 0.4512
H6 H -0.4202 0.1627 -0.1202
H7 H -0.7624 0.0826 -0.0814
H8 H -0.8108 0.1135 0.0223
H9 H -0.5279 0.1934 0.1286
H10 H -0.0489 0.4960 0.1407
H11 H -0.0849 0.7028 0.1377
H12 H 0.1319 0.7440 0.3520
H13 H 0.1296 0.5300 0.3471
H14 H 0.1310 1.1287 0.1422
H15 H 0.1251 0.8976 0.1533
H16 H -0.0085 0.9126 0.3546
H17 H -0.0118 1.1379 0.3407
O3_2 O -0.2204(4) 0.3047(3) 0.3058(2)
N2_2 N 0.0457(4) 0.1362(3) 0.2448(2)
Cu1_2 Cu 1.03293(6) 0.31661(4) 0.24424(3)
Cu1_3 Cu 0.03293(6) 1.31661(4) 0.24424(3)
H1_2 H -0.3399 0.3057 0.2714
O7 O 0.3981(6) 0.4209(3) 0.6983(3)
O8 O 0.5230(7) 0.3174(4) 0.7829(3)
O9 O 0.2711(6) 0.3178(4) 0.5758(2)
C25 C 0.4424(7) 0.3263(5) 0.7181(4)
C26 C 0.4121(6) 0.2132(5) 0.6708(4)
C27 C 0.3280(7) 0.2153(6) 0.6024(4)
C28 C 0.304(1) 0.1064(8) 0.5576(4)
C29 C 0.364(1) 0.0022(7) 0.5837(6)
C30 C 0.443(1) 0.0012(6) 0.6506(6)
C31 C 0.4680(8) 0.1043(5) 0.6957(4)
H18 H 0.2121 0.1305 0.5125
H19 H 0.3482 -0.0689 0.5525
H20 H 0.4808 -0.0705 0.6688
H21 H 0.5262 0.1043 0.7441
O10 O 0.412(1) 0.4678(6) 0.1492(3)
H22 H 0.4183 0.3857 0.1883
H23 H 0.3865 0.4971 0.1038
loop_
_geom_bond_atom_site_label_1
_geom_bond_atom_site_label_2
_geom_bond_site_symmetry_1
_geom_bond_site_symmetry_2
Cu1 O1 1_555 1_555
O1 C1 1_555 1_555
O2 C1 1_555 1_555
O3 C3 1_555 1_555
O4 Cu1 1_555 1_555
O5 C8 1_555 1_555
O6 C10 1_555 1_555
O7 C25 1_555 1_555
O8 C25 1_555 1_555
O9 C27 1_555 1_555
O10 H22 1_555 1_555
N1 Cu1 1_555 1_555
N2 C20 1_555 1_555
C1 C2 1_555 1_555
C2 C3 1_555 1_555
C3 C4 1_555 1_555
C4 C5 1_555 1_555
C5 C6 1_555 1_555
C6 C7 1_555 1_555
C7 C2 1_555 1_555
C8 O4 1_555 1_555
C9 C8 1_555 1_555
C10 C9 1_555 1_555
C11 C10 1_555 1_555
C12 C11 1_555 1_555
C13 C12 1_555 1_555
C14 C9 1_555 1_555
C15 N1 1_555 1_555
C16 C15 1_555 1_555
C17 C16 1_555 1_555
C18 C17 1_555 1_555
C19 N1 1_555 1_555
C20 C21 1_555 1_555
C21 C22 1_555 1_555
C22 C17 1_555 1_555
C23 C22 1_555 1_555
C24 N2 1_555 1_555
C25 C26 1_555 1_555
C26 C27 1_555 1_555
C27 C28 1_555 1_555
C28 C29 1_555 1_555
C29 C30 1_555 1_555
C30 C31 1_555 1_555
C31 C26 1_555 1_555
H1 O3 1_555 1_555
H2 C4 1_555 1_555
H3 C5 1_555 1_555
H4 C6 1_555 1_555
H5 C7 1_555 1_555
H6 C11 1_555 1_555
H7 C12 1_555 1_555
H8 C13 1_555 1_555
H9 C14 1_555 1_555
H10 C15 1_555 1_555
H11 C16 1_555 1_555
H12 C18 1_555 1_555
H13 C19 1_555 1_555
H14 C20 1_555 1_555
H15 C21 1_555 1_555
H16 C23 1_555 1_555
H17 C24 1_555 1_555
H18 C28 1_555 1_555
H19 C29 1_555 1_555
H20 C30 1_555 1_555
H21 C31 1_555 1_555
H23 O10 1_555 1_555
O3_2 Cu1 1_555 1_555
N2_2 Cu1 1_555 1_555
Cu1_2 O3 1_555 1_555
Cu1_3 N2 1_555 1_555
H1_2 O3_2 1_555 1_555
C13 C14 1_555 1_555
C18 C19 1_555 1_555
C23 C24 1_555 1_555

#END
