
#######################################################################
#
#                 Cambridge Crystallographic Data Centre
#                                CCDC 
#
#######################################################################
#
# If this CIF has been generated from an entry in the Cambridge 
# Structural Database, then it will include bibliographic, chemical, 
# crystal, experimental, refinement or atomic coordinate data resulting 
# from the CCDC's data processing and validation procedures.
#
#######################################################################

data_IKEVEA
_symmetry_cell_setting           monoclinic
_symmetry_space_group_name_H-M   'P 21/c'
_symmetry_Int_Tables_number      14
_space_group_name_Hall           '-P 2ybc'
loop_
_symmetry_equiv_pos_site_id
_symmetry_equiv_pos_as_xyz
1 x,y,z
2 -x,1/2+y,1/2-z
3 -x,-y,-z
4 x,1/2-y,1/2+z
_cell_length_a                   5.9950(5)
_cell_length_b                   19.0242(16)
_cell_length_c                   12.1311(8)
_cell_angle_alpha                90
_cell_angle_beta                 119.201(3)
_cell_angle_gamma                90
_cell_volume                     1207.72
loop_
_atom_site_label
_atom_site_type_symbol
_atom_site_fract_x
_atom_site_fract_y
_atom_site_fract_z
Eu1 Eu 0.45478(3) 0.596852(8) 0.194693(14)
C1 C 1.0078(6) 0.52628(16) 0.2704(3)
C2 C 1.0085(6) 0.51238(16) 0.3937(3)
C3 C 1.2041(6) 0.47740(16) 0.4945(3)
H1 H 1.3439 0.4619 0.4876
C4 C 0.8571(7) 0.73610(19) 0.2832(3)
C5 C 0.6005(7) 0.77220(17) 0.2128(3)
C6 C 0.5616(8) 0.8444(2) 0.2022(4)
H2 H 0.7025 0.8742 0.2373
C7 C 0.1322(8) 0.8272(2) 0.0949(4)
H3 H -0.0335 0.8448 0.0555
C8 C 0.1674(7) 0.75547(18) 0.1016(3)
C9 C -0.0434(7) 0.70199(19) 0.0483(3)
N1 N 0.8013(5) 0.53482(13) 0.3988(3)
N2 N 0.4024(5) 0.72856(14) 0.1621(3)
N3 N 0.3279(7) 0.87222(17) 0.1430(4)
O1 O 0.7930(4) 0.53821(12) 0.1779(2)
O2 O 1.2187(5) 0.52455(13) 0.2730(2)
O3 O 0.8463(5) 0.66962(12) 0.2895(2)
O4 O 1.0538(5) 0.77198(15) 0.3289(3)
O5 O 0.0246(5) 0.63843(13) 0.0667(2)
O6 O -0.2698(5) 0.72339(14) -0.0091(3)
O7 O 0.4333(5) 0.65570(12) 0.3744(2)
H4 H 0.5107 0.6946 0.4054
H5 H 0.2834 0.6677 0.3598
O8 O 0.4056(5) 0.62335(13) -0.0142(2)
H6 H 0.5270 0.6510 -0.0053
H7 H 0.2785 0.6493 -0.0631
O9 O 0.2777(6) 0.49340(15) 0.0643(3)
H8 H 0.2816 0.4860 -0.0042
H9 H 0.1991 0.4563 0.0658
Eu1B Eu 1.54522(3) 0.403148(8) 0.805307(14)
Eu1_2 Eu 1.45478(3) 0.596852(8) 0.194693(14)
Eu1B_2 Eu 0.54522(3) 0.403148(8) 0.805307(14)
C1B C 0.9922(6) 0.47372(16) 0.7296(3)
C2B C 0.9915(6) 0.48762(16) 0.6063(3)
C3B C 0.7959(6) 0.52260(16) 0.5055(3)
H1B H 0.6561 0.5381 0.5124
C4B C 1.1429(7) 0.26390(19) 0.7168(3)
C5B C 1.3995(7) 0.22780(17) 0.7872(3)
C6B C 1.4384(8) 0.1556(2) 0.7978(4)
H2B H 1.2975 0.1258 0.7627
C7B C 1.8678(8) 0.1728(2) 0.9051(4)
H3B H 2.0335 0.1552 0.9445
C8B C 1.8326(7) 0.24453(18) 0.8984(3)
C9B C 2.0434(7) 0.29801(19) 0.9517(3)
N1B N 1.1987(5) 0.46518(13) 0.6012(3)
N2B N 1.5976(5) 0.27144(14) 0.8379(3)
N3B N 1.6721(7) 0.12778(17) 0.8570(4)
O1B O 1.2070(4) 0.46179(12) 0.8221(2)
O2B O 0.7813(5) 0.47545(13) 0.7270(2)
O2_2 O 0.2187(5) 0.52455(13) 0.2730(2)
O2B_2 O 1.7813(5) 0.47545(13) 0.7270(2)
O3B O 1.1537(5) 0.33038(12) 0.7105(2)
O4B O 0.9462(5) 0.22802(15) 0.6711(3)
O5B O 1.9754(5) 0.36157(13) 0.9333(2)
O6B O 2.2698(5) 0.27661(14) 1.0091(3)
O7B O 1.5667(5) 0.34430(12) 0.6256(2)
H4B H 1.4893 0.3054 0.5946
H5B H 1.7166 0.3323 0.6402
O8B O 1.5944(5) 0.37665(13) 1.0142(2)
H6B H 1.4730 0.3490 1.0053
H7B H 1.7215 0.3507 1.0631
O9B O 1.7223(6) 0.50660(15) 0.9357(3)
H8B H 1.7184 0.5140 1.0042
H9B H 1.8009 0.5437 0.9342
loop_
_geom_bond_atom_site_label_1
_geom_bond_atom_site_label_2
_geom_bond_site_symmetry_1
_geom_bond_site_symmetry_2
Eu1 N1 1_555 1_555
C1 C2 1_555 1_555
C2 C3 1_555 1_555
C3 H1 1_555 1_555
C4 C5 1_555 1_555
C5 C6 1_555 1_555
C6 H2 1_555 1_555
C7 H3 1_555 1_555
C8 C7 1_555 1_555
C9 C8 1_555 1_555
N1 C2 1_555 1_555
N2 Eu1 1_555 1_555
N3 C6 1_555 1_555
O1 Eu1 1_555 1_555
O2 C1 1_555 1_555
O3 Eu1 1_555 1_555
O4 C4 1_555 1_555
O5 Eu1 1_555 1_555
O6 C9 1_555 1_555
O7 Eu1 1_555 1_555
H4 O7 1_555 1_555
H5 O7 1_555 1_555
O8 Eu1 1_555 1_555
H6 O8 1_555 1_555
H7 O8 1_555 1_555
O9 Eu1 1_555 1_555
H8 O9 1_555 1_555
H9 O9 1_555 1_555
Eu1B N1B 1_555 1_555
Eu1_2 O2 1_555 1_555
Eu1B_2 O2B 1_555 1_555
C1B C2B 1_555 1_555
C2B C3B 1_555 1_555
C3B N1 1_555 1_555
H1B C3B 1_555 1_555
C4B C5B 1_555 1_555
C5B C6B 1_555 1_555
C6B H2B 1_555 1_555
C7B H3B 1_555 1_555
C8B C7B 1_555 1_555
C9B C8B 1_555 1_555
N1B C3 1_555 1_555
N2B Eu1B 1_555 1_555
N3B C6B 1_555 1_555
O1B Eu1B 1_555 1_555
O2B C1B 1_555 1_555
O2_2 Eu1 1_555 1_555
O2B_2 Eu1B 1_555 1_555
O3B Eu1B 1_555 1_555
O4B C4B 1_555 1_555
O5B Eu1B 1_555 1_555
O6B C9B 1_555 1_555
O7B Eu1B 1_555 1_555
H4B O7B 1_555 1_555
H5B O7B 1_555 1_555
O8B Eu1B 1_555 1_555
H6B O8B 1_555 1_555
H7B O8B 1_555 1_555
O9B Eu1B 1_555 1_555
H8B O9B 1_555 1_555
H9B O9B 1_555 1_555
C1 O1 1_555 1_555
C4 O3 1_555 1_555
C5 N2 1_555 1_555
C7 N3 1_555 1_555
C8 N2 1_555 1_555
C9 O5 1_555 1_555
C1B O1B 1_555 1_555
C2B N1B 1_555 1_555
C4B O3B 1_555 1_555
C5B N2B 1_555 1_555
C7B N3B 1_555 1_555
C8B N2B 1_555 1_555
C9B O5B 1_555 1_555

#END
