
#######################################################################
#
#                 Cambridge Crystallographic Data Centre
#                                CCDC 
#
#######################################################################
#
# If this CIF has been generated from an entry in the Cambridge 
# Structural Database, then it will include bibliographic, chemical, 
# crystal, experimental, refinement or atomic coordinate data resulting 
# from the CCDC's data processing and validation procedures.
#
#######################################################################

data_IKEVIE
_symmetry_cell_setting           monoclinic
_symmetry_space_group_name_H-M   'P 21/c'
_symmetry_Int_Tables_number      14
_space_group_name_Hall           '-P 2ybc'
loop_
_symmetry_equiv_pos_site_id
_symmetry_equiv_pos_as_xyz
1 x,y,z
2 -x,1/2+y,1/2-z
3 -x,-y,-z
4 x,1/2-y,1/2+z
_cell_length_a                   6.002(2)
_cell_length_b                   19.161(7)
_cell_length_c                   12.255(4)
_cell_angle_alpha                90
_cell_angle_beta                 118.793(13)
_cell_angle_gamma                90
_cell_volume                     1235.13
loop_
_atom_site_label
_atom_site_type_symbol
_atom_site_fract_x
_atom_site_fract_y
_atom_site_fract_z
Pr1 Pr 0.44932(7) 0.59630(2) 0.19309(3)
C1 C 1.0107(14) 0.5245(4) 0.2739(6)
C2 C 1.0096(13) 0.5115(4) 0.3953(6)
C3 C 1.2020(14) 0.4761(4) 0.4946(6)
H1 H 1.3396 0.4593 0.4872
C4 C 0.8461(14) 0.7393(4) 0.2792(7)
C5 C 0.5840(15) 0.7735(4) 0.2087(7)
C6 C 0.5430(19) 0.8450(5) 0.1978(8)
H2 H 0.6821 0.8749 0.2342
C7 C 0.1192(18) 0.8266(5) 0.0900(9)
H3 H -0.0465 0.8435 0.0498
C8 C 0.1578(15) 0.7557(4) 0.0987(7)
C9 C -0.0527(14) 0.7028(4) 0.0456(7)
N1 N 0.8052(12) 0.5345(3) 0.4012(5)
N2 N 0.3913(12) 0.7309(3) 0.1581(6)
N3 N 0.3123(16) 0.8720(4) 0.1376(8)
O1 O 0.8008(10) 0.5368(3) 0.1824(4)
O2 O 1.2217(10) 0.5211(3) 0.2752(5)
O3 O 0.8391(10) 0.6733(3) 0.2858(5)
O4 O 1.0343(11) 0.7754(3) 0.3233(6)
O5 O 0.0149(10) 0.6399(3) 0.0626(5)
O6 O -0.2786(10) 0.7248(3) -0.0110(5)
O7 O 0.4181(12) 0.6574(3) 0.3730(5)
H4 H 0.4955 0.6964 0.4041
H5 H 0.2682 0.6695 0.3584
O8 O 0.3976(11) 0.6241(3) -0.0194(5)
H6 H 0.5190 0.6518 -0.0106
H7 H 0.2706 0.6500 -0.0683
O9 O 0.2796(16) 0.4908(4) 0.0614(7)
H8 H 0.2834 0.4834 -0.0071
H9 H 0.2010 0.4537 0.0629
Pr1B Pr 1.55068(7) 0.40370(2) 0.80691(3)
Pr1_2 Pr 1.44932(7) 0.59630(2) 0.19309(3)
Pr1B_2 Pr 0.55068(7) 0.40370(2) 0.80691(3)
C1B C 0.9893(14) 0.4755(4) 0.7261(6)
C2B C 0.9904(13) 0.4885(4) 0.6047(6)
C3B C 0.7980(14) 0.5239(4) 0.5054(6)
H1B H 0.6604 0.5407 0.5128
C4B C 1.1539(14) 0.2607(4) 0.7208(7)
C5B C 1.4160(15) 0.2265(4) 0.7913(7)
C6B C 1.4570(19) 0.1550(5) 0.8022(8)
H2B H 1.3179 0.1251 0.7658
C7B C 1.8808(18) 0.1734(5) 0.9100(9)
H3B H 2.0465 0.1565 0.9502
C8B C 1.8422(15) 0.2443(4) 0.9013(7)
C9B C 2.0527(14) 0.2972(4) 0.9544(7)
N1B N 1.1948(12) 0.4655(3) 0.5988(5)
N2B N 1.6087(12) 0.2691(3) 0.8419(6)
N3B N 1.6877(16) 0.1280(4) 0.8624(8)
O1B O 1.1992(10) 0.4632(3) 0.8176(4)
O2B O 0.7783(10) 0.4789(3) 0.7248(5)
O2_2 O 0.2217(10) 0.5211(3) 0.2752(5)
O2B_2 O 1.7783(10) 0.4789(3) 0.7248(5)
O3B O 1.1609(10) 0.3267(3) 0.7142(5)
O4B O 0.9657(11) 0.2246(3) 0.6767(6)
O5B O 1.9851(10) 0.3601(3) 0.9374(5)
O6B O 2.2786(10) 0.2752(3) 1.0110(5)
O7B O 1.5819(12) 0.3426(3) 0.6270(5)
H4B H 1.5045 0.3036 0.5959
H5B H 1.7318 0.3305 0.6416
O8B O 1.6024(11) 0.3759(3) 1.0194(5)
H6B H 1.4810 0.3482 1.0106
H7B H 1.7294 0.3500 1.0683
O9B O 1.7204(16) 0.5092(4) 0.9386(7)
H8B H 1.7166 0.5166 1.0071
H9B H 1.7990 0.5463 0.9371
loop_
_geom_bond_atom_site_label_1
_geom_bond_atom_site_label_2
_geom_bond_site_symmetry_1
_geom_bond_site_symmetry_2
Pr1 N1 1_555 1_555
C1 C2 1_555 1_555
C2 C3 1_555 1_555
C3 H1 1_555 1_555
C4 C5 1_555 1_555
C5 C6 1_555 1_555
C6 H2 1_555 1_555
C7 H3 1_555 1_555
C8 C7 1_555 1_555
C9 C8 1_555 1_555
N1 C2 1_555 1_555
N2 Pr1 1_555 1_555
N3 C6 1_555 1_555
O1 Pr1 1_555 1_555
O2 C1 1_555 1_555
O3 Pr1 1_555 1_555
O4 C4 1_555 1_555
O5 Pr1 1_555 1_555
O6 C9 1_555 1_555
O7 Pr1 1_555 1_555
H4 O7 1_555 1_555
H5 O7 1_555 1_555
O8 Pr1 1_555 1_555
H6 O8 1_555 1_555
H7 O8 1_555 1_555
O9 Pr1 1_555 1_555
H8 O9 1_555 1_555
H9 O9 1_555 1_555
Pr1B N1B 1_555 1_555
Pr1_2 O2 1_555 1_555
Pr1B_2 O2B 1_555 1_555
C1B C2B 1_555 1_555
C2B C3B 1_555 1_555
C3B N1 1_555 1_555
H1B C3B 1_555 1_555
C4B C5B 1_555 1_555
C5B C6B 1_555 1_555
C6B H2B 1_555 1_555
C7B H3B 1_555 1_555
C8B C7B 1_555 1_555
C9B C8B 1_555 1_555
N1B C3 1_555 1_555
N2B Pr1B 1_555 1_555
N3B C6B 1_555 1_555
O1B Pr1B 1_555 1_555
O2B C1B 1_555 1_555
O2_2 Pr1 1_555 1_555
O2B_2 Pr1B 1_555 1_555
O3B Pr1B 1_555 1_555
O4B C4B 1_555 1_555
O5B Pr1B 1_555 1_555
O6B C9B 1_555 1_555
O7B Pr1B 1_555 1_555
H4B O7B 1_555 1_555
H5B O7B 1_555 1_555
O8B Pr1B 1_555 1_555
H6B O8B 1_555 1_555
H7B O8B 1_555 1_555
O9B Pr1B 1_555 1_555
H8B O9B 1_555 1_555
H9B O9B 1_555 1_555
C1 O1 1_555 1_555
C4 O3 1_555 1_555
C5 N2 1_555 1_555
C7 N3 1_555 1_555
C8 N2 1_555 1_555
C9 O5 1_555 1_555
C1B O1B 1_555 1_555
C2B N1B 1_555 1_555
C4B O3B 1_555 1_555
C5B N2B 1_555 1_555
C7B N3B 1_555 1_555
C8B N2B 1_555 1_555
C9B O5B 1_555 1_555

#END
