
#######################################################################
#
#                 Cambridge Crystallographic Data Centre
#                                CCDC 
#
#######################################################################
#
# If this CIF has been generated from an entry in the Cambridge 
# Structural Database, then it will include bibliographic, chemical, 
# crystal, experimental, refinement or atomic coordinate data resulting 
# from the CCDC's data processing and validation procedures.
#
#######################################################################

data_IKEVOK
_symmetry_cell_setting           monoclinic
_symmetry_space_group_name_H-M   'P 21/c'
_symmetry_Int_Tables_number      14
_space_group_name_Hall           '-P 2ybc'
loop_
_symmetry_equiv_pos_site_id
_symmetry_equiv_pos_as_xyz
1 x,y,z
2 -x,1/2+y,1/2-z
3 -x,-y,-z
4 x,1/2-y,1/2+z
_cell_length_a                   6.0008(4)
_cell_length_b                   19.0754(14)
_cell_length_c                   12.1796(7)
_cell_angle_alpha                90
_cell_angle_beta                 119.050(3)
_cell_angle_gamma                90
_cell_volume                     1218.78
loop_
_atom_site_label
_atom_site_type_symbol
_atom_site_fract_x
_atom_site_fract_y
_atom_site_fract_z
Sm1 Sm 0.45280(4) 0.596645(9) 0.194294(17)
C1 C 1.0085(7) 0.5257(2) 0.2723(4)
C2 C 1.0087(7) 0.51221(19) 0.3944(3)
C3 C 1.2043(7) 0.47732(19) 0.4942(3)
H1 H 1.3439 0.4620 0.4871
C4 C 0.8524(8) 0.7373(2) 0.2820(4)
C5 C 0.5949(8) 0.7728(2) 0.2113(4)
C6 C 0.5547(10) 0.8447(2) 0.2003(4)
H2 H 0.6950 0.8745 0.2350
C7 C 0.1280(9) 0.8270(2) 0.0931(4)
H3 H -0.0377 0.8444 0.0527
C8 C 0.1639(8) 0.7556(2) 0.1005(4)
C9 C -0.0475(8) 0.7020(2) 0.0477(4)
N1 N 0.8023(6) 0.53496(16) 0.3995(3)
N2 N 0.3977(6) 0.72865(17) 0.1604(3)
N3 N 0.3218(8) 0.8724(2) 0.1417(4)
O1 O 0.7946(5) 0.53747(15) 0.1787(2)
O2 O 1.2192(5) 0.52354(16) 0.2738(3)
O3 O 0.8444(5) 0.67084(15) 0.2885(3)
O4 O 1.0466(6) 0.77345(18) 0.3270(3)
O5 O 0.0206(5) 0.63903(15) 0.0654(3)
O6 O -0.2721(6) 0.72353(17) -0.0101(3)
O7 O 0.4283(6) 0.65623(15) 0.3745(3)
H4 H 0.5057 0.6951 0.4055
H5 H 0.2785 0.6682 0.3599
O8 O 0.4036(6) 0.62358(16) -0.0155(3)
H6 H 0.5250 0.6512 -0.0067
H7 H 0.2766 0.6495 -0.0645
O9 O 0.2791(8) 0.49239(19) 0.0632(4)
H8 H 0.2830 0.4850 -0.0053
H9 H 0.2005 0.4552 0.0647
Sm1B Sm 1.54720(4) 0.403355(9) 0.805706(17)
Sm1_2 Sm 1.45280(4) 0.596645(9) 0.194294(17)
Sm1B_2 Sm 0.54720(4) 0.403355(9) 0.805706(17)
C1B C 0.9915(7) 0.4743(2) 0.7277(4)
C2B C 0.9913(7) 0.48779(19) 0.6056(3)
C3B C 0.7957(7) 0.52268(19) 0.5058(3)
H1B H 0.6561 0.5380 0.5129
C4B C 1.1476(8) 0.2627(2) 0.7180(4)
C5B C 1.4051(8) 0.2272(2) 0.7887(4)
C6B C 1.4453(10) 0.1553(2) 0.7997(4)
H2B H 1.3050 0.1255 0.7650
C7B C 1.8720(9) 0.1730(2) 0.9069(4)
H3B H 2.0377 0.1556 0.9473
C8B C 1.8361(8) 0.2444(2) 0.8995(4)
C9B C 2.0475(8) 0.2980(2) 0.9523(4)
N1B N 1.1977(6) 0.46504(16) 0.6005(3)
N2B N 1.6023(6) 0.27135(17) 0.8396(3)
N3B N 1.6782(8) 0.1276(2) 0.8583(4)
O1B O 1.2054(5) 0.46253(15) 0.8213(2)
O2B O 0.7808(5) 0.47646(16) 0.7262(3)
O2_2 O 0.2192(5) 0.52354(16) 0.2738(3)
O2B_2 O 1.7808(5) 0.47646(16) 0.7262(3)
O3B O 1.1556(5) 0.32916(15) 0.7115(3)
O4B O 0.9534(6) 0.22655(18) 0.6730(3)
O5B O 1.9794(5) 0.36097(15) 0.9346(3)
O6B O 2.2721(6) 0.27647(17) 1.0101(3)
O7B O 1.5717(6) 0.34377(15) 0.6255(3)
H4B H 1.4943 0.3049 0.5945
H5B H 1.7215 0.3318 0.6401
O8B O 1.5964(6) 0.37642(16) 1.0155(3)
H6B H 1.4750 0.3488 1.0067
H7B H 1.7234 0.3505 1.0645
O9B O 1.7209(8) 0.50761(19) 0.9368(4)
H8B H 1.7170 0.5150 1.0053
H9B H 1.7995 0.5448 0.9353
loop_
_geom_bond_atom_site_label_1
_geom_bond_atom_site_label_2
_geom_bond_site_symmetry_1
_geom_bond_site_symmetry_2
Sm1 N1 1_555 1_555
C1 C2 1_555 1_555
C2 C3 1_555 1_555
C3 H1 1_555 1_555
C4 C5 1_555 1_555
C5 C6 1_555 1_555
C6 H2 1_555 1_555
C7 H3 1_555 1_555
C8 C7 1_555 1_555
C9 C8 1_555 1_555
N1 C2 1_555 1_555
N2 Sm1 1_555 1_555
N3 C6 1_555 1_555
O1 Sm1 1_555 1_555
O2 C1 1_555 1_555
O3 Sm1 1_555 1_555
O4 C4 1_555 1_555
O5 Sm1 1_555 1_555
O6 C9 1_555 1_555
O7 Sm1 1_555 1_555
H4 O7 1_555 1_555
H5 O7 1_555 1_555
O8 Sm1 1_555 1_555
H6 O8 1_555 1_555
H7 O8 1_555 1_555
O9 Sm1 1_555 1_555
H8 O9 1_555 1_555
H9 O9 1_555 1_555
Sm1B N1B 1_555 1_555
Sm1_2 O2 1_555 1_555
Sm1B_2 O2B 1_555 1_555
C1B C2B 1_555 1_555
C2B C3B 1_555 1_555
C3B N1 1_555 1_555
H1B C3B 1_555 1_555
C4B C5B 1_555 1_555
C5B C6B 1_555 1_555
C6B H2B 1_555 1_555
C7B H3B 1_555 1_555
C8B C7B 1_555 1_555
C9B C8B 1_555 1_555
N1B C3 1_555 1_555
N2B Sm1B 1_555 1_555
N3B C6B 1_555 1_555
O1B Sm1B 1_555 1_555
O2B C1B 1_555 1_555
O2_2 Sm1 1_555 1_555
O2B_2 Sm1B 1_555 1_555
O3B Sm1B 1_555 1_555
O4B C4B 1_555 1_555
O5B Sm1B 1_555 1_555
O6B C9B 1_555 1_555
O7B Sm1B 1_555 1_555
H4B O7B 1_555 1_555
H5B O7B 1_555 1_555
O8B Sm1B 1_555 1_555
H6B O8B 1_555 1_555
H7B O8B 1_555 1_555
O9B Sm1B 1_555 1_555
H8B O9B 1_555 1_555
H9B O9B 1_555 1_555
C1 O1 1_555 1_555
C4 O3 1_555 1_555
C5 N2 1_555 1_555
C7 N3 1_555 1_555
C8 N2 1_555 1_555
C9 O5 1_555 1_555
C1B O1B 1_555 1_555
C2B N1B 1_555 1_555
C4B O3B 1_555 1_555
C5B N2B 1_555 1_555
C7B N3B 1_555 1_555
C8B N2B 1_555 1_555
C9B O5B 1_555 1_555

#END
