
#######################################################################
#
#                 Cambridge Crystallographic Data Centre
#                                CCDC 
#
#######################################################################
#
# If this CIF has been generated from an entry in the Cambridge 
# Structural Database, then it will include bibliographic, chemical, 
# crystal, experimental, refinement or atomic coordinate data resulting 
# from the CCDC's data processing and validation procedures.
#
#######################################################################

data_IKEWIF
_symmetry_cell_setting           monoclinic
_symmetry_space_group_name_H-M   'P 21/c'
_symmetry_Int_Tables_number      14
_space_group_name_Hall           '-P 2ybc'
loop_
_symmetry_equiv_pos_site_id
_symmetry_equiv_pos_as_xyz
1 x,y,z
2 -x,1/2+y,1/2-z
3 -x,-y,-z
4 x,1/2-y,1/2+z
_cell_length_a                   9.7471(2)
_cell_length_b                   22.0918(4)
_cell_length_c                   9.0346(2)
_cell_angle_alpha                90
_cell_angle_beta                 113.2432(9)
_cell_angle_gamma                90
_cell_volume                     1787.53
loop_
_atom_site_label
_atom_site_type_symbol
_atom_site_fract_x
_atom_site_fract_y
_atom_site_fract_z
Ag1 Ag 0.66612(2) 0.024217(9) 0.14839(3)
N1 N 0.5504(3) 0.23569(10) 0.2149(3)
N2 N 0.7193(2) 0.27187(10) 0.1212(2)
H1 H 0.6877 0.3070 0.1412
N3 N 0.8887(2) 0.22399(10) 0.0341(2)
N4 N 1.0453(2) 0.16983(10) -0.0429(3)
H2 H 1.0020 0.1399 -0.0135
N5 N 1.2274(2) 0.19271(10) -0.1450(3)
N6 N 0.6119(3) 0.11630(10) 0.1685(3)
N7 N 1.2695(2) 0.06866(9) -0.1683(3)
C1 C 0.4845(3) 0.18909(12) 0.2556(4)
H3 H 0.4136 0.1976 0.3008
C2 C 0.5141(3) 0.12998(12) 0.2353(3)
H4 H 0.4659 0.0985 0.2683
C3 C 0.6791(3) 0.16171(12) 0.1260(3)
H5 H 0.7469 0.1530 0.0767
C4 C 0.6511(3) 0.22233(12) 0.1531(3)
C5 C 0.8313(3) 0.27517(12) 0.0619(3)
C6 C 0.8767(3) 0.33241(12) 0.0321(3)
H6 H 0.8339 0.3684 0.0529
C7 C 0.9861(3) 0.33440(12) -0.0288(3)
H7 H 1.0187 0.3725 -0.0515
C8 C 1.0494(3) 0.28189(12) -0.0575(3)
H8 H 1.1250 0.2830 -0.0991
C9 C 0.9969(3) 0.22756(11) -0.0226(3)
C10 C 1.1497(3) 0.15219(11) -0.1012(3)
C11 C 1.1722(3) 0.08950(12) -0.1104(3)
H9 H 1.1172 0.0617 -0.0748
C12 C 1.3432(3) 0.10966(12) -0.2200(3)
H10 H 1.4102 0.0964 -0.2663
C13 C 1.3219(3) 0.16997(13) -0.2061(3)
H11 H 1.3771 0.1976 -0.2417
Ag1B Ag 1.33388(2) -0.024217(9) -0.14839(3)
N7B N 0.7305(2) -0.06866(9) 0.1683(3)
S1 S 0.72002(7) 0.45428(3) 0.29354(8)
O1 O 0.6635(2) 0.40261(9) 0.1904(3)
O2 O 0.6084(2) 0.48904(8) 0.3238(2)
O3 O 0.8547(2) 0.44380(9) 0.4354(2)
C14 C 0.7784(3) 0.50626(14) 0.1711(4)
F1 F 0.8890(2) 0.48311(9) 0.1381(3)
F2 F 0.6669(2) 0.51835(10) 0.0335(2)
F3 F 0.8267(2) 0.55840(8) 0.2473(2)
loop_
_geom_bond_atom_site_label_1
_geom_bond_atom_site_label_2
_geom_bond_site_symmetry_1
_geom_bond_site_symmetry_2
Ag1 N6 1_555 1_555
N1 C1 1_555 1_555
N2 H1 1_555 1_555
N3 C5 1_555 1_555
N4 H2 1_555 1_555
N5 C10 1_555 1_555
N6 C2 1_555 1_555
N7 C11 1_555 1_555
C1 H3 1_555 1_555
C2 C1 1_555 1_555
H4 C2 1_555 1_555
C3 N6 1_555 1_555
H5 C3 1_555 1_555
C4 N1 1_555 1_555
C5 N2 1_555 1_555
C6 C5 1_555 1_555
H6 C6 1_555 1_555
C7 C6 1_555 1_555
H7 C7 1_555 1_555
C8 C7 1_555 1_555
H8 C8 1_555 1_555
C9 N3 1_555 1_555
C10 N4 1_555 1_555
C11 C10 1_555 1_555
H9 C11 1_555 1_555
C12 N7 1_555 1_555
H10 C12 1_555 1_555
C13 N5 1_555 1_555
H11 C13 1_555 1_555
S1 O1 1_555 1_555
O2 S1 1_555 1_555
O3 S1 1_555 1_555
C14 S1 1_555 1_555
F1 C14 1_555 1_555
F2 C14 1_555 1_555
F3 C14 1_555 1_555
Ag1B N7 1_555 1_555
N7B Ag1 1_555 1_555
N2 C4 1_555 1_555
N4 C9 1_555 1_555
C3 C4 1_555 1_555
C8 C9 1_555 1_555
C12 C13 1_555 1_555

#END
