
#######################################################################
#
#                 Cambridge Crystallographic Data Centre
#                                CCDC 
#
#######################################################################
#
# If this CIF has been generated from an entry in the Cambridge 
# Structural Database, then it will include bibliographic, chemical, 
# crystal, experimental, refinement or atomic coordinate data resulting 
# from the CCDC's data processing and validation procedures.
#
#######################################################################

data_IKEWAX
_symmetry_cell_setting           monoclinic
_symmetry_space_group_name_H-M   'P 21/c'
_symmetry_Int_Tables_number      14
_space_group_name_Hall           '-P 2ybc'
loop_
_symmetry_equiv_pos_site_id
_symmetry_equiv_pos_as_xyz
1 x,y,z
2 -x,1/2+y,1/2-z
3 -x,-y,-z
4 x,1/2-y,1/2+z
_cell_length_a                   9.785(2)
_cell_length_b                   8.0179(16)
_cell_length_c                   19.629(4)
_cell_angle_alpha                90
_cell_angle_beta                 93.61(3)
_cell_angle_gamma                90
_cell_volume                     1536.94
loop_
_atom_site_label
_atom_site_type_symbol
_atom_site_fract_x
_atom_site_fract_y
_atom_site_fract_z
Ag1 Ag 0.77683(3) 1.18065(3) 0.345124(13)
N1 N 0.3090(3) 0.9633(3) 0.30830(13)
N2 N 0.3235(3) 0.8430(3) 0.41387(13)
H1 H 0.2339 0.8371 0.4068
N3 N 0.5097(3) 0.7836(3) 0.49009(13)
N4 N 0.7024(3) 0.7344(3) 0.55649(13)
H2 H 0.7346 0.8067 0.5278
N5 N 0.7658(3) 0.5561(4) 0.64807(13)
N6 N 0.5796(3) 1.0695(3) 0.32198(13)
N7 N 1.0262(3) 0.7028(3) 0.65324(13)
C1 C 0.3669(4) 1.0514(5) 0.26000(17)
H3 H 0.3133 1.0775 0.2194
C2 C 0.4994(3) 1.1059(5) 0.26617(17)
H4 H 0.5349 1.1700 0.2306
C3 C 0.5255(3) 0.9816(4) 0.37107(16)
H5 H 0.5805 0.9540 0.4111
C4 C 0.3893(3) 0.9290(4) 0.36482(15)
C5 C 0.3770(3) 0.7637(4) 0.47314(16)
C6 C 0.2903(3) 0.6659(4) 0.51039(16)
H6 H 0.1948 0.6591 0.4984
C7 C 0.3492(3) 0.5799(4) 0.56532(16)
H7 H 0.2939 0.5091 0.5909
C8 C 0.4866(3) 0.5944(4) 0.58388(15)
H8 H 0.5273 0.5351 0.6219
C9 C 0.5638(3) 0.6992(4) 0.54487(15)
C10 C 0.7976(3) 0.6757(4) 0.60501(15)
C11 C 0.9297(3) 0.7472(4) 0.60667(16)
H9 H 0.9495 0.8289 0.5736
C12 C 0.9942(3) 0.5841(5) 0.69862(16)
H10 H 1.0598 0.5514 0.7338
C13 C 0.8687(4) 0.5118(5) 0.69402(18)
H11 H 0.8517 0.4243 0.7250
Ag1B Ag 1.22317(3) 0.81935(3) 0.654876(13)
N7B N 0.9738(3) 1.2972(3) 0.34676(13)
Cl1 Cl -0.09379(8) 0.80350(10) 0.40560(4)
O1 O 0.0260(2) 0.8647(3) 0.37519(12)
O2 O -0.0589(2) 0.6619(3) 0.44802(12)
O3 O -0.1486(2) 0.9352(3) 0.44697(11)
O4 O -0.1954(2) 0.7580(3) 0.35332(12)
loop_
_geom_bond_atom_site_label_1
_geom_bond_atom_site_label_2
_geom_bond_site_symmetry_1
_geom_bond_site_symmetry_2
Ag1 N6 1_555 1_555
N1 C1 1_555 1_555
N2 H1 1_555 1_555
N3 C5 1_555 1_555
N4 H2 1_555 1_555
N5 C10 1_555 1_555
N6 C2 1_555 1_555
N7 C11 1_555 1_555
C1 H3 1_555 1_555
C2 C1 1_555 1_555
H4 C2 1_555 1_555
C3 N6 1_555 1_555
H5 C3 1_555 1_555
C4 N1 1_555 1_555
C5 N2 1_555 1_555
C6 C5 1_555 1_555
H6 C6 1_555 1_555
C7 C6 1_555 1_555
H7 C7 1_555 1_555
C8 C7 1_555 1_555
H8 C8 1_555 1_555
C9 N3 1_555 1_555
C10 N4 1_555 1_555
C11 C10 1_555 1_555
H9 C11 1_555 1_555
C12 N7 1_555 1_555
H10 C12 1_555 1_555
C13 N5 1_555 1_555
H11 C13 1_555 1_555
Cl1 O1 1_555 1_555
O2 Cl1 1_555 1_555
O3 Cl1 1_555 1_555
O4 Cl1 1_555 1_555
Ag1B N7 1_555 1_555
N7B Ag1 1_555 1_555
N2 C4 1_555 1_555
N4 C9 1_555 1_555
C3 C4 1_555 1_555
C8 C9 1_555 1_555
C12 C13 1_555 1_555

#END
