
#######################################################################
#
#                 Cambridge Crystallographic Data Centre
#                                CCDC 
#
#######################################################################
#
# If this CIF has been generated from an entry in the Cambridge 
# Structural Database, then it will include bibliographic, chemical, 
# crystal, experimental, refinement or atomic coordinate data resulting 
# from the CCDC's data processing and validation procedures.
#
#######################################################################

data_IKEWAW
_symmetry_cell_setting           orthorhombic
_symmetry_space_group_name_H-M   'P 21 21 21'
_symmetry_Int_Tables_number      19
_space_group_name_Hall           'P 2ac 2ab'
loop_
_symmetry_equiv_pos_site_id
_symmetry_equiv_pos_as_xyz
1 x,y,z
2 1/2-x,-y,1/2+z
3 -x,1/2+y,1/2-z
4 1/2+x,1/2-y,-z
_cell_length_a                   5.5944(1)
_cell_length_b                   14.7903(2)
_cell_length_c                   15.485
_cell_angle_alpha                90
_cell_angle_beta                 90
_cell_angle_gamma                90
_cell_volume                     1281.27
loop_
_atom_site_label
_atom_site_type_symbol
_atom_site_fract_x
_atom_site_fract_y
_atom_site_fract_z
Pb1 Pb 0.34661(3) 0.587504(13) 0.573397(13)
N1 N 0.3518(10) 0.4578(3) 0.4623(3)
C1 C 0.4818(13) 0.3815(4) 0.4697(5)
H1 H 0.6070 0.3795 0.5102
C2 C 0.4368(13) 0.3059(4) 0.4195(5)
H2 H 0.5326 0.2539 0.4244
C3 C 0.2500(14) 0.3086(4) 0.3629(5)
H3 H 0.2136 0.2575 0.3292
C4 C 0.1155(12) 0.3854(4) 0.3549(4)
H4 H -0.0116 0.3876 0.3153
C5 C 0.1679(11) 0.4602(4) 0.4058(3)
C6 C 0.0228(11) 0.5467(4) 0.3999(4)
H5 H -0.0169 0.5585 0.3393
H6 H -0.1273 0.5389 0.4317
C7 C 0.3332(10) 0.6604(3) 0.3716(3)
H7 H 0.4005 0.6073 0.3412
N2 N 0.1537(8) 0.6250(3) 0.4355(3)
H8 H 0.0444 0.6702 0.4459
C8 C 0.2217(11) 0.7206(4) 0.3034(4)
H9 H 0.0922 0.6885 0.2753
H10 H 0.3418 0.7369 0.2610
H11 H 0.1600 0.7750 0.3305
C9 C 0.5422(9) 0.7070(3) 0.4186(4)
O1 O 0.5995(6) 0.6804(3) 0.4944(2)
O2 O 0.6565(8) 0.7653(3) 0.3780(2)
Cl1 Cl -0.1349(3) 0.47352(9) 0.66990(9)
O3 O -0.1503(8) 0.5376(3) 0.5989(3)
O4 O -0.0787(12) 0.5214(4) 0.7466(3)
O5 O -0.3601(9) 0.4295(3) 0.6782(3)
O6 O 0.0480(11) 0.4098(4) 0.6506(4)
O2C O 0.1565(8) 0.7347(3) 0.6220(2)
O3_2 O 0.8497(8) 0.5376(3) 0.5989(3)
Pb1C Pb 0.84661(3) 0.912496(13) 0.426603(13)
Pb1_2 Pb -0.65339(3) 0.587504(13) 0.573397(13)
loop_
_geom_bond_atom_site_label_1
_geom_bond_atom_site_label_2
_geom_bond_site_symmetry_1
_geom_bond_site_symmetry_2
Pb1 N1 1_555 1_555
N1 C1 1_555 1_555
C1 H1 1_555 1_555
C2 C1 1_555 1_555
H2 C2 1_555 1_555
C3 C2 1_555 1_555
H3 C3 1_555 1_555
C4 C3 1_555 1_555
H4 C4 1_555 1_555
C5 N1 1_555 1_555
C6 C5 1_555 1_555
H5 C6 1_555 1_555
H6 C6 1_555 1_555
C7 H7 1_555 1_555
N2 Pb1 1_555 1_555
H8 N2 1_555 1_555
C8 C7 1_555 1_555
H9 C8 1_555 1_555
H10 C8 1_555 1_555
H11 C8 1_555 1_555
C9 C7 1_555 1_555
O1 Pb1 1_555 1_555
O2 C9 1_555 1_555
Cl1 O3 1_555 1_555
O3 Pb1 1_555 1_555
O4 Cl1 1_555 1_555
O5 Cl1 1_555 1_555
O6 Cl1 1_555 1_555
O2C Pb1 1_555 1_555
O3_2 Pb1 1_555 1_555
Pb1C O2 1_555 1_555
Pb1_2 O3 1_555 1_555
C4 C5 1_555 1_555
C6 N2 1_555 1_555
C7 N2 1_555 1_555
C9 O1 1_555 1_555

#END
