
#######################################################################
#
#                 Cambridge Crystallographic Data Centre
#                                CCDC 
#
#######################################################################
#
# If this CIF has been generated from an entry in the Cambridge 
# Structural Database, then it will include bibliographic, chemical, 
# crystal, experimental, refinement or atomic coordinate data resulting 
# from the CCDC's data processing and validation procedures.
#
#######################################################################

data_IKEWEB
_symmetry_cell_setting           triclinic
_symmetry_space_group_name_H-M   'P -1'
_symmetry_Int_Tables_number      2
_space_group_name_Hall           '-P 1'
loop_
_symmetry_equiv_pos_site_id
_symmetry_equiv_pos_as_xyz
1 x,y,z
2 -x,-y,-z
_cell_length_a                   9.6693(10)
_cell_length_b                   10.2699(11)
_cell_length_c                   11.6983(13)
_cell_angle_alpha                79.178(2)
_cell_angle_beta                 72.441(2)
_cell_angle_gamma                64.003(2)
_cell_volume                     993.391
loop_
_atom_site_label
_atom_site_type_symbol
_atom_site_fract_x
_atom_site_fract_y
_atom_site_fract_z
Ag1 Ag 0.53657(5) 0.86023(4) 0.59760(4)
N1 N 1.0334(5) 0.5457(5) 0.3280(4)
N2 N 0.9227(5) 0.3838(5) 0.3279(4)
H1 H 0.8359 0.3676 0.3525
N3 N 1.0119(5) 0.1784(5) 0.2323(4)
N4 N 1.0884(5) -0.0347(5) 0.1414(4)
H2 H 1.1693 -0.1067 0.1020
N5 N 0.9508(6) -0.1543(5) 0.1170(4)
N6 N 0.7526(5) 0.7114(5) 0.4852(4)
N7 N 0.6720(5) 0.0213(5) 0.2673(4)
C1 C 1.0139(7) 0.6672(6) 0.3712(5)
H3 H 1.0991 0.6973 0.3466
C2 C 0.8760(7) 0.7496(6) 0.4494(5)
H4 H 0.8682 0.8338 0.4781
C3 C 0.7683(6) 0.5912(5) 0.4453(4)
H5 H 0.6828 0.5617 0.4703
C4 C 0.9113(6) 0.5074(5) 0.3662(5)
C5 C 1.0520(6) 0.2801(5) 0.2556(4)
C6 C 1.2025(6) 0.2784(6) 0.2130(5)
H6 H 1.2262 0.3526 0.2293
C7 C 1.3190(6) 0.1621(6) 0.1446(5)
H7 H 1.4242 0.1564 0.1137
C8 C 1.2816(6) 0.0576(6) 0.1225(5)
H8 H 1.3603 -0.0221 0.0773
C9 C 1.1262(6) 0.0693(6) 0.1672(5)
C10 C 0.9444(6) -0.0438(6) 0.1673(5)
C11 C 0.8048(6) 0.0443(6) 0.2423(5)
H9 H 0.8031 0.1220 0.2765
C12 C 0.6784(7) -0.0899(6) 0.2165(5)
H10 H 0.5867 -0.1095 0.2330
C13 C 0.8177(7) -0.1746(6) 0.1411(5)
H11 H 0.8190 -0.2506 0.1049
Ag1A Ag 0.46343(5) 0.13977(4) 0.40240(4)
N7A N 0.3280(5) 0.9787(5) 0.7327(4)
Cl1 Cl 0.31447(17) 0.81347(15) 0.44497(13)
O1 O 0.3640(5) 0.9311(4) 0.4407(4)
O2 O 0.3361(5) 0.6948(4) 0.5389(4)
O3 O 0.1397(5) 0.8810(5) 0.4370(4)
O4 O 0.3901(5) 0.7473(5) 0.3201(4)
O5 O 1.3470(5) -0.2513(5) -0.0150(4)
N8 N 1.3734(6) -0.4401(5) -0.1064(5)
C14 C 1.3080(7) -0.3478(7) -0.0211(6)
H12 H 1.2227 -0.3571 0.0414
C15 C 1.5034(8) -0.4340(7) -0.2068(6)
H13 H 1.5248 -0.3509 -0.2009
H14 H 1.4743 -0.4231 -0.2824
H15 H 1.5987 -0.5238 -0.2046
C16 C 1.3190(8) -0.5512(7) -0.1044(6)
H16 H 1.2367 -0.5486 -0.0303
H17 H 1.4084 -0.6466 -0.1078
H18 H 1.2749 -0.5336 -0.1739
loop_
_geom_bond_atom_site_label_1
_geom_bond_atom_site_label_2
_geom_bond_site_symmetry_1
_geom_bond_site_symmetry_2
Ag1 N6 1_555 1_555
Cl1 O1 1_555 1_555
O2 Cl1 1_555 1_555
O3 Cl1 1_555 1_555
O4 Cl1 1_555 1_555
N1 C1 1_555 1_555
N2 H1 1_555 1_555
N3 C5 1_555 1_555
N4 H2 1_555 1_555
N5 C10 1_555 1_555
N6 C2 1_555 1_555
N7 C11 1_555 1_555
C1 H3 1_555 1_555
C2 C1 1_555 1_555
H4 C2 1_555 1_555
C3 N6 1_555 1_555
H5 C3 1_555 1_555
C4 N1 1_555 1_555
C5 N2 1_555 1_555
C6 C5 1_555 1_555
H6 C6 1_555 1_555
C7 C6 1_555 1_555
H7 C7 1_555 1_555
C8 C7 1_555 1_555
H8 C8 1_555 1_555
C9 N3 1_555 1_555
C10 N4 1_555 1_555
C11 C10 1_555 1_555
H9 C11 1_555 1_555
C12 N7 1_555 1_555
H10 C12 1_555 1_555
C13 N5 1_555 1_555
H11 C13 1_555 1_555
O5 C14 1_555 1_555
N8 C14 1_555 1_555
C14 H12 1_555 1_555
C15 N8 1_555 1_555
H13 C15 1_555 1_555
H14 C15 1_555 1_555
H15 C15 1_555 1_555
C16 N8 1_555 1_555
H16 C16 1_555 1_555
H17 C16 1_555 1_555
H18 C16 1_555 1_555
Ag1A N7 1_555 1_555
N7A Ag1 1_555 1_555
N2 C4 1_555 1_555
N4 C9 1_555 1_555
C3 C4 1_555 1_555
C8 C9 1_555 1_555
C12 C13 1_555 1_555

#END
