
#######################################################################
#
#                 Cambridge Crystallographic Data Centre
#                                CCDC 
#
#######################################################################
#
# If this CIF has been generated from an entry in the Cambridge 
# Structural Database, then it will include bibliographic, chemical, 
# crystal, experimental, refinement or atomic coordinate data resulting 
# from the CCDC's data processing and validation procedures.
#
#######################################################################

data_IKEYUT
_symmetry_cell_setting           monoclinic
_symmetry_space_group_name_H-M   'P 21/n'
_symmetry_Int_Tables_number      14
_space_group_name_Hall           '-P 2yn'
loop_
_symmetry_equiv_pos_site_id
_symmetry_equiv_pos_as_xyz
1 x,y,z
2 1/2-x,1/2+y,1/2-z
3 -x,-y,-z
4 1/2+x,1/2-y,1/2+z
_cell_length_a                   13.6132(6)
_cell_length_b                   16.6458(5)
_cell_length_c                   19.4962(7)
_cell_angle_alpha                90
_cell_angle_beta                 97.980(3)
_cell_angle_gamma                90
_cell_volume                     4375.11
loop_
_atom_site_label
_atom_site_type_symbol
_atom_site_fract_x
_atom_site_fract_y
_atom_site_fract_z
C1 C 0.1700(3) 0.3592(2) 0.53141(18)
H1 H 0.1775 0.4110 0.5494
C2 C 0.2228(3) 0.2974(3) 0.5669(2)
H2 H 0.2648 0.3072 0.6078
C3 C 0.2115(3) 0.2211(3) 0.5400(2)
H3 H 0.2470 0.1784 0.5621
C4 C 0.1471(3) 0.2084(2) 0.4800(2)
H4 H 0.1374 0.1570 0.4618
C5 C 0.0971(2) 0.27309(19) 0.44721(16)
C6 C 0.0195(3) 0.26504(19) 0.38478(18)
C7 C 0.0127(3) 0.1920(2) 0.34169(18)
C8 C 0.0948(4) 0.1501(3) 0.3281(2)
H5 H 0.1580 0.1666 0.3471
C9 C 0.0820(6) 0.0823(3) 0.2852(3)
H6 H 0.1369 0.0537 0.2749
C10 C -0.0114(7) 0.0583(3) 0.2585(3)
H7 H -0.0197 0.0121 0.2315
C11 C -0.0919(5) 0.1003(3) 0.2704(3)
H8 H -0.1549 0.0836 0.2511
C12 C -0.0808(4) 0.1675(2) 0.3110(2)
H9 H -0.1363 0.1972 0.3182
C13 C -0.1758(3) 0.6251(2) 0.12850(17)
H10 H -0.1960 0.5735 0.1148
C14 C -0.1983(3) 0.6877(3) 0.0826(2)
H11 H -0.2334 0.6784 0.0390
C15 C -0.1681(4) 0.7642(3) 0.1023(2)
H12 H -0.1817 0.8072 0.0720
C16 C -0.1172(3) 0.7756(2) 0.1678(2)
H13 H -0.0957 0.8266 0.1824
C17 C -0.0987(2) 0.71066(19) 0.21141(16)
C18 C -0.0401(3) 0.71662(19) 0.28308(17)
C19 C -0.0398(3) 0.7905(2) 0.32413(18)
C20 C -0.1168(3) 0.8453(2) 0.3150(2)
H14 H -0.1705 0.8367 0.2808
C21 C -0.1147(4) 0.9128(3) 0.3563(3)
H15 H -0.1676 0.9486 0.3508
C22 C -0.0353(5) 0.9268(3) 0.4049(3)
H16 H -0.0325 0.9736 0.4312
C23 C 0.0403(4) 0.8726(3) 0.4156(3)
H17 H 0.0938 0.8823 0.4497
C24 C 0.0383(3) 0.8033(3) 0.3762(2)
H18 H 0.0890 0.7658 0.3847
C25 C 0.1860(3) 0.3661(2) 0.18829(19)
H19 H 0.1962 0.4181 0.2052
C26 C 0.2486(3) 0.3055(3) 0.2168(2)
H20 H 0.2990 0.3164 0.2528
C27 C 0.2349(3) 0.2293(3) 0.1909(2)
H21 H 0.2770 0.1879 0.2084
C28 C 0.1579(3) 0.2145(2) 0.1387(2)
H22 H 0.1478 0.1632 0.1201
C29 C 0.0959(2) 0.27711(19) 0.11436(15)
C30 C 0.0091(3) 0.2680(2) 0.05841(17)
C31 C -0.0309(3) 0.1885(2) 0.03547(18)
C32 C -0.0378(3) 0.1257(2) 0.0809(2)
H23 H -0.0119 0.1310 0.1274
C33 C -0.0835(4) 0.0545(3) 0.0568(3)
H24 H -0.0892 0.0125 0.0874
C34 C -0.1203(4) 0.0463(3) -0.0121(3)
H25 H -0.1501 -0.0017 -0.0280
C35 C -0.1134(4) 0.1081(3) -0.0574(3)
H26 H -0.1379 0.1021 -0.1041
C36 C -0.0699(3) 0.1795(3) -0.0333(2)
H27 H -0.0668 0.2221 -0.0638
N1 N 0.0875(2) 0.54829(16) 0.49169(13)
N2 N 0.1405(2) 0.60113(18) 0.47909(13)
N3 N 0.1932(3) 0.6509(3) 0.4674(2)
N4 N 0.0927(2) 0.47638(18) 0.32632(13)
N5 N 0.1772(2) 0.49648(17) 0.32614(13)
N6 N 0.2575(3) 0.5138(3) 0.3241(2)
N7 N -0.1165(2) 0.49790(17) 0.33940(12)
N8 N -0.1993(2) 0.47281(16) 0.33639(13)
N9 N -0.2785(3) 0.4510(3) 0.3351(2)
N10 N -0.0977(2) 0.43697(16) 0.16692(12)
N11 N -0.1118(2) 0.36794(17) 0.18028(13)
N12 N -0.1259(3) 0.3014(2) 0.1905(2)
N13 N 0.0752(2) 0.54818(15) 0.16662(13)
N14 N 0.1085(2) 0.61316(18) 0.15846(14)
N15 N 0.1416(3) 0.6755(2) 0.1529(2)
N16 N 0.1059(2) 0.49224(18) -0.00050(13)
N17 N 0.1932(2) 0.50248(17) 0.00448(14)
N18 N 0.2766(3) 0.5103(3) 0.0076(2)
N19 N 0.1090(2) 0.34792(16) 0.47256(13)
N20 N -0.1264(2) 0.63587(16) 0.19160(13)
N21 N 0.1118(2) 0.35257(16) 0.13765(13)
O1 O -0.0410(2) 0.31935(15) 0.37190(14)
O2 O -0.0294(2) 0.32852(15) 0.03079(13)
O3 O 0.0084(2) 0.65761(15) 0.30517(13)
Cd1 Cd 0.010873(16) 0.450503(13) 0.420040(9)
Cd2 Cd -0.033671(17) 0.529108(13) 0.248920(9)
Cd3 Cd 0.012511(17) 0.456500(13) 0.084203(9)
N1B N -0.0875(2) 0.45171(16) 0.50831(13)
N16B N -0.1059(2) 0.50776(18) 0.00050(13)
Cd1B Cd -0.010873(16) 0.549497(13) 0.579960(9)
Cd3B Cd -0.012511(17) 0.543500(13) -0.084203(9)
loop_
_geom_bond_atom_site_label_1
_geom_bond_atom_site_label_2
_geom_bond_site_symmetry_1
_geom_bond_site_symmetry_2
C1 H1 1_555 1_555
C2 C1 1_555 1_555
H2 C2 1_555 1_555
C3 C2 1_555 1_555
H3 C3 1_555 1_555
C4 C3 1_555 1_555
H4 C4 1_555 1_555
C5 C4 1_555 1_555
C6 C5 1_555 1_555
C7 C6 1_555 1_555
C8 C7 1_555 1_555
H5 C8 1_555 1_555
C9 C8 1_555 1_555
H6 C9 1_555 1_555
C10 C9 1_555 1_555
H7 C10 1_555 1_555
C11 C10 1_555 1_555
H8 C11 1_555 1_555
C12 C7 1_555 1_555
H9 C12 1_555 1_555
C13 H10 1_555 1_555
C14 C13 1_555 1_555
H11 C14 1_555 1_555
C15 C14 1_555 1_555
H12 C15 1_555 1_555
C16 C15 1_555 1_555
H13 C16 1_555 1_555
C17 C16 1_555 1_555
C18 C17 1_555 1_555
C19 C18 1_555 1_555
C20 C19 1_555 1_555
H14 C20 1_555 1_555
C21 C20 1_555 1_555
H15 C21 1_555 1_555
C22 C21 1_555 1_555
H16 C22 1_555 1_555
C23 C22 1_555 1_555
H17 C23 1_555 1_555
C24 C19 1_555 1_555
H18 C24 1_555 1_555
C25 H19 1_555 1_555
C26 C25 1_555 1_555
H20 C26 1_555 1_555
C27 C26 1_555 1_555
H21 C27 1_555 1_555
C28 C27 1_555 1_555
H22 C28 1_555 1_555
C29 C28 1_555 1_555
C30 C29 1_555 1_555
C31 C30 1_555 1_555
C32 C31 1_555 1_555
H23 C32 1_555 1_555
C33 C32 1_555 1_555
H24 C33 1_555 1_555
C34 C33 1_555 1_555
H25 C34 1_555 1_555
C35 C34 1_555 1_555
H26 C35 1_555 1_555
C36 C31 1_555 1_555
H27 C36 1_555 1_555
N1 N2 1_555 1_555
N2 N3 1_555 1_555
N4 N5 1_555 1_555
N5 N6 1_555 1_555
N7 N8 1_555 1_555
N8 N9 1_555 1_555
N10 N11 1_555 1_555
N11 N12 1_555 1_555
N13 N14 1_555 1_555
N14 N15 1_555 1_555
N16 N17 1_555 1_555
N17 N18 1_555 1_555
N19 C1 1_555 1_555
N20 C13 1_555 1_555
N21 C25 1_555 1_555
O1 C6 1_555 1_555
O2 C30 1_555 1_555
O3 C18 1_555 1_555
Cd1 N1 1_555 1_555
Cd2 N4 1_555 1_555
Cd3 N10 1_555 1_555
N1B Cd1 1_555 1_555
N16B Cd3 1_555 1_555
Cd1B N1 1_555 1_555
Cd3B N16 1_555 1_555
C5 N19 1_555 1_555
C11 C12 1_555 1_555
C17 N20 1_555 1_555
C23 C24 1_555 1_555
C29 N21 1_555 1_555
C35 C36 1_555 1_555
N4 Cd1 1_555 1_555
N7 Cd1 1_555 1_555
N7 Cd2 1_555 1_555
N10 Cd2 1_555 1_555
N13 Cd2 1_555 1_555
N13 Cd3 1_555 1_555
N16 Cd3 1_555 1_555
N19 Cd1 1_555 1_555
N20 Cd2 1_555 1_555
N21 Cd3 1_555 1_555
O1 Cd1 1_555 1_555
O2 Cd3 1_555 1_555
O3 Cd2 1_555 1_555
N1B Cd1B 1_555 1_555
N16B Cd3B 1_555 1_555

#END
