
#######################################################################
#
#                 Cambridge Crystallographic Data Centre
#                                CCDC 
#
#######################################################################
#
# If this CIF has been generated from an entry in the Cambridge 
# Structural Database, then it will include bibliographic, chemical, 
# crystal, experimental, refinement or atomic coordinate data resulting 
# from the CCDC's data processing and validation procedures.
#
#######################################################################

data_IKEZOO
_symmetry_cell_setting           triclinic
_symmetry_space_group_name_H-M   'P -1'
_symmetry_Int_Tables_number      2
_space_group_name_Hall           '-P 1'
loop_
_symmetry_equiv_pos_site_id
_symmetry_equiv_pos_as_xyz
1 x,y,z
2 -x,-y,-z
_cell_length_a                   7.6319(15)
_cell_length_b                   8.4352(17)
_cell_length_c                   10.971(2)
_cell_angle_alpha                84.41(3)
_cell_angle_beta                 76.83(3)
_cell_angle_gamma                68.48(3)
_cell_volume                     639.685
loop_
_atom_site_label
_atom_site_type_symbol
_atom_site_fract_x
_atom_site_fract_y
_atom_site_fract_z
Co1 Co 0.5000 0.0000 1.0000
C1 C 0.4418(5) 0.1525(5) 0.8009(3)
C2 C 0.4090(6) 0.2445(5) 0.6790(4)
C3 C 0.2628(6) 0.4022(5) 0.6792(4)
H1 H 0.1907 0.4530 0.7549
C4 C 0.2228(6) 0.4853(5) 0.5672(4)
H2 H 0.1245 0.5910 0.5683
C5 C 0.3302(6) 0.4098(5) 0.4536(4)
C6 C 0.4823(6) 0.2549(5) 0.4537(4)
H3 H 0.5582 0.2061 0.3782
C7 C 0.5214(6) 0.1727(5) 0.5656(4)
H4 H 0.6231 0.0693 0.5647
C8 C 0.2792(5) 0.4920(5) 0.3345(4)
C9 C 0.1681(6) 0.6640(5) 0.3267(4)
H5 H 0.1302 0.7321 0.3966
C10 C 0.1141(6) 0.7340(5) 0.2165(4)
H6 H 0.0381 0.8487 0.2127
C11 C 0.2796(6) 0.4724(5) 0.1173(4)
H7 H 0.3192 0.4081 0.0452
C12 C 0.3339(6) 0.3969(5) 0.2263(4)
H8 H 0.4077 0.2815 0.2278
C13 C 0.1161(6) 0.7192(5) -0.0044(4)
H9 H -0.0212 0.7835 0.0115
H10 H 0.1430 0.6314 -0.0641
C14 C 0.2247(5) 0.8386(5) -0.0615(3)
O1 O 0.5772(4) 0.0111(3) 0.8005(3)
O2 O 0.3321(4) 0.2173(4) 0.9020(2)
O3 O 0.3301(5) 0.8603(4) 0.0025(3)
O4 O 0.1964(4) 0.9017(4) -0.1653(3)
N1 N 0.1704(5) 0.6376(4) 0.1139(3)
Co1_2 Co 0.5000 1.0000 0.0000
C1A C 0.5582(5) 0.8475(5) 0.1991(3)
C2A C 0.5910(6) 0.7555(5) 0.3210(4)
C3A C 0.7372(6) 0.5978(5) 0.3208(4)
H1A H 0.8093 0.5470 0.2451
C4A C 0.7772(6) 0.5147(5) 0.4328(4)
H2A H 0.8755 0.4090 0.4317
C5A C 0.6698(6) 0.5902(5) 0.5464(4)
C6A C 0.5177(6) 0.7451(5) 0.5463(4)
H3A H 0.4418 0.7939 0.6218
C7A C 0.4786(6) 0.8273(5) 0.4344(4)
H4A H 0.3769 0.9307 0.4353
C8A C 0.7208(5) 0.5080(5) 0.6655(4)
C9A C 0.8319(6) 0.3360(5) 0.6733(4)
H5A H 0.8698 0.2679 0.6034
C10A C 0.8859(6) 0.2660(5) 0.7835(4)
H6A H 0.9619 0.1513 0.7873
C11A C 0.7204(6) 0.5276(5) 0.8827(4)
H7A H 0.6808 0.5919 0.9548
C12A C 0.6661(6) 0.6031(5) 0.7737(4)
H8A H 0.5923 0.7185 0.7722
C13A C 0.8839(6) 0.2808(5) 1.0044(4)
H9A H 1.0212 0.2165 0.9885
H10A H 0.8570 0.3686 1.0641
C14A C 0.7753(5) 0.1614(5) 1.0615(3)
O1A O 0.4228(4) 0.9889(3) 0.1995(3)
O1A_2 O 0.4228(4) -0.0111(3) 1.1995(3)
O2A O 0.6679(4) 0.7827(4) 0.0980(2)
O2A_2 O 0.6679(4) -0.2173(4) 1.0980(2)
O3A O 0.6699(5) 0.1397(4) 0.9975(3)
O3_2 O 0.3301(5) -0.1397(4) 1.0025(3)
O4A O 0.8036(4) 0.0983(4) 1.1653(3)
N1A N 0.8296(5) 0.3624(4) 0.8861(3)
O5 O 0.0327(6) 0.1394(7) 0.3287(5)
H11 H -0.0399 0.1623 0.2740
H12 H 0.1496 0.1105 0.2871
loop_
_geom_bond_atom_site_label_1
_geom_bond_atom_site_label_2
_geom_bond_site_symmetry_1
_geom_bond_site_symmetry_2
Co1 O1 1_555 1_555
C1 C2 1_555 1_555
C2 C3 1_555 1_555
C3 H1 1_555 1_555
C4 C3 1_555 1_555
H2 C4 1_555 1_555
C5 C4 1_555 1_555
C6 C5 1_555 1_555
H3 C6 1_555 1_555
C7 C2 1_555 1_555
H4 C7 1_555 1_555
C8 C5 1_555 1_555
C9 C8 1_555 1_555
H5 C9 1_555 1_555
C10 C9 1_555 1_555
H6 C10 1_555 1_555
C11 H7 1_555 1_555
C12 C8 1_555 1_555
H8 C12 1_555 1_555
C13 H9 1_555 1_555
H10 C13 1_555 1_555
C14 C13 1_555 1_555
O1 C1 1_555 1_555
O2 Co1 1_555 1_555
O3 C14 1_555 1_555
O4 C14 1_555 1_555
O5 H11 1_555 1_555
H12 O5 1_555 1_555
N1 C10 1_555 1_555
Co1_2 O3 1_555 1_555
C1A C2A 1_555 1_555
C2A C3A 1_555 1_555
C3A H1A 1_555 1_555
C4A C3A 1_555 1_555
H2A C4A 1_555 1_555
C5A C4A 1_555 1_555
C6A C5A 1_555 1_555
H3A C6A 1_555 1_555
C7A C2A 1_555 1_555
H4A C7A 1_555 1_555
C8A C5A 1_555 1_555
C9A C8A 1_555 1_555
H5A C9A 1_555 1_555
C10A C9A 1_555 1_555
H6A C10A 1_555 1_555
C11A H7A 1_555 1_555
C12A C8A 1_555 1_555
H8A C12A 1_555 1_555
C13A H9A 1_555 1_555
H10A C13A 1_555 1_555
C14A C13A 1_555 1_555
O1A Co1_2 1_555 1_555
O1A_2 Co1 1_555 1_555
O2A Co1_2 1_555 1_555
O2A_2 Co1 1_555 1_555
O3A Co1 1_555 1_555
O3_2 Co1 1_555 1_555
O4A C14A 1_555 1_555
N1A C10A 1_555 1_555
C1 O2 1_555 1_555
C6 C7 1_555 1_555
C11 C12 1_555 1_555
C11 N1 1_555 1_555
C13 N1 1_555 1_555
C1A O1A 1_555 1_555
C1A O2A 1_555 1_555
C6A C7A 1_555 1_555
C11A C12A 1_555 1_555
C11A N1A 1_555 1_555
C13A N1A 1_555 1_555
C14A O3A 1_555 1_555

#END
