
#######################################################################
#
#                 Cambridge Crystallographic Data Centre
#                                CCDC 
#
#######################################################################
#
# If this CIF has been generated from an entry in the Cambridge 
# Structural Database, then it will include bibliographic, chemical, 
# crystal, experimental, refinement or atomic coordinate data resulting 
# from the CCDC's data processing and validation procedures.
#
#######################################################################

data_IKEZII
_symmetry_cell_setting           monoclinic
_symmetry_space_group_name_H-M   'C 2/c'
_symmetry_Int_Tables_number      15
_space_group_name_Hall           '-C 2yn'
loop_
_symmetry_equiv_pos_site_id
_symmetry_equiv_pos_as_xyz
1 x,y,z
2 -x,y,1/2-z
3 1/2+x,1/2+y,z
4 1/2-x,1/2+y,1/2-z
5 -x,-y,-z
6 x,-y,1/2+z
7 1/2-x,1/2-y,-z
8 1/2+x,1/2-y,1/2+z
_cell_length_a                   14.3571(5)
_cell_length_b                   8.3297(3)
_cell_length_c                   20.4974(8)
_cell_angle_alpha                90
_cell_angle_beta                 91.6990(10)
_cell_angle_gamma                90
_cell_volume                     2450.21
loop_
_atom_site_label
_atom_site_type_symbol
_atom_site_fract_x
_atom_site_fract_y
_atom_site_fract_z
Mn1 Mn 0.0000 0.07280(5) -0.2500
O1 O 0.11601(17) 0.2374(3) -0.20708(9)
O2 O 0.00299(15) 0.1572(3) -0.14767(9)
O3 O 0.39508(13) 0.5957(2) 0.26426(9)
O4 O 0.42922(14) 0.8128(2) 0.32365(9)
N1 N 0.30884(15) 0.7588(2) 0.16887(9)
C1 C 0.0780(2) 0.2304(3) -0.15376(12)
C2 C 0.12348(19) 0.3119(3) -0.09536(11)
C3 C 0.2099(2) 0.3814(3) -0.09974(11)
H1 H 0.2420 0.3737 -0.1384
C4 C 0.2498(2) 0.4632(3) -0.04655(11)
H2 H 0.3086 0.5091 -0.0498
C5 C 0.20221(17) 0.4765(3) 0.01126(10)
C6 C 0.1167(2) 0.4004(3) 0.01568(12)
H3 H 0.0854 0.4038 0.0547
C7 C 0.0775(2) 0.3194(3) -0.03743(12)
H4 H 0.0199 0.2698 -0.0339
C8 C 0.24060(17) 0.5723(2) 0.06671(10)
C9 C 0.33443(18) 0.6105(3) 0.07316(11)
H5 H 0.3757 0.5733 0.0425
C10 C 0.36717(18) 0.7035(3) 0.12479(12)
H6 H 0.4303 0.7275 0.1288
C11 C 0.21814(19) 0.7236(3) 0.16455(12)
H7 H 0.1784 0.7623 0.1959
C12 C 0.18298(19) 0.6307(3) 0.11409(12)
H8 H 0.1197 0.6068 0.1118
C13 C 0.34552(19) 0.8509(3) 0.22576(11)
H9 H 0.2944 0.9060 0.2461
H10 H 0.3888 0.9315 0.2109
C14 C 0.39485(17) 0.7434(3) 0.27605(11)
Mn1F Mn 0.5000 0.42720(5) 0.2500
Mn1F_2 Mn -0.5000 0.42720(5) -0.7500
O1G O -0.38399(17) 0.2626(3) -0.70708(9)
O1A O -0.11601(17) 0.2374(3) -0.29292(9)
O2G O -0.49701(15) 0.3428(3) -0.64767(9)
O2A O -0.00299(15) 0.1572(3) -0.35233(9)
O3G O -0.10492(13) -0.0957(2) -0.23574(9)
O3F O 0.10492(13) -0.0957(2) -0.26426(9)
O4G O -0.07078(14) -0.3128(2) -0.17635(9)
N1G N -0.19116(15) -0.2588(2) -0.33113(9)
C1G C -0.4220(2) 0.2696(3) -0.65376(12)
C2G C -0.37652(19) 0.1881(3) -0.59536(11)
C3G C -0.2901(2) 0.1186(3) -0.59974(11)
H1G H -0.2580 0.1263 -0.6384
C4G C -0.2502(2) 0.0368(3) -0.54655(11)
H2G H -0.1914 -0.0091 -0.5498
C5G C -0.29779(17) 0.0235(3) -0.48874(10)
C6G C -0.3833(2) 0.0996(3) -0.48432(12)
H3G H -0.4146 0.0962 -0.4453
C7G C -0.4225(2) 0.1806(3) -0.53743(12)
H4G H -0.4801 0.2302 -0.5339
C8G C -0.25940(17) -0.0723(2) -0.43329(10)
C9G C -0.16557(18) -0.1105(3) -0.42684(11)
H5G H -0.1243 -0.0733 -0.4575
C10G C -0.13283(18) -0.2035(3) -0.37521(12)
H6G H -0.0697 -0.2275 -0.3712
C11G C -0.28186(19) -0.2236(3) -0.33545(12)
H7G H -0.3216 -0.2623 -0.3041
C12G C -0.31702(19) -0.1307(3) -0.38591(12)
H8G H -0.3803 -0.1068 -0.3882
C13G C -0.15448(19) -0.3509(3) -0.27424(11)
H9G H -0.2056 -0.4060 -0.2539
H10G H -0.1112 -0.4315 -0.2891
C14G C -0.10515(17) -0.2434(3) -0.22395(11)
O5 O 0.0467(5) 0.0511(8) 0.0658(3)
loop_
_geom_bond_atom_site_label_1
_geom_bond_atom_site_label_2
_geom_bond_site_symmetry_1
_geom_bond_site_symmetry_2
Mn1 O1 1_555 1_555
O1 C1 1_555 1_555
O2 Mn1 1_555 1_555
O3 C14 1_555 1_555
O4 C14 1_555 1_555
N1 C10 1_555 1_555
C1 O2 1_555 1_555
C2 C1 1_555 1_555
C3 C2 1_555 1_555
H1 C3 1_555 1_555
C4 C3 1_555 1_555
H2 C4 1_555 1_555
C5 C4 1_555 1_555
C6 C5 1_555 1_555
H3 C6 1_555 1_555
C7 C2 1_555 1_555
H4 C7 1_555 1_555
C8 C5 1_555 1_555
C9 C8 1_555 1_555
H5 C9 1_555 1_555
C10 C9 1_555 1_555
H6 C10 1_555 1_555
C11 N1 1_555 1_555
H7 C11 1_555 1_555
C12 C8 1_555 1_555
H8 C12 1_555 1_555
C13 N1 1_555 1_555
H9 C13 1_555 1_555
H10 C13 1_555 1_555
C14 C13 1_555 1_555
Mn1F O3 1_555 1_555
Mn1F_2 O1G 1_555 1_555
O1G C1G 1_555 1_555
O1A Mn1 1_555 1_555
O2G Mn1F_2 1_555 1_555
O2A Mn1 1_555 1_555
O3G Mn1 1_555 1_555
O3F Mn1 1_555 1_555
O4G C14G 1_555 1_555
N1G C10G 1_555 1_555
C1G O2G 1_555 1_555
C2G C1G 1_555 1_555
C3G C2G 1_555 1_555
H1G C3G 1_555 1_555
C4G C3G 1_555 1_555
H2G C4G 1_555 1_555
C5G C4G 1_555 1_555
C6G C5G 1_555 1_555
H3G C6G 1_555 1_555
C7G C2G 1_555 1_555
H4G C7G 1_555 1_555
C8G C5G 1_555 1_555
C9G C8G 1_555 1_555
H5G C9G 1_555 1_555
C10G C9G 1_555 1_555
H6G C10G 1_555 1_555
C11G N1G 1_555 1_555
H7G C11G 1_555 1_555
C12G C8G 1_555 1_555
H8G C12G 1_555 1_555
C13G N1G 1_555 1_555
H9G C13G 1_555 1_555
H10G C13G 1_555 1_555
C14G O3G 1_555 1_555
C6 C7 1_555 1_555
C11 C12 1_555 1_555
C6G C7G 1_555 1_555
C11G C12G 1_555 1_555
C13G C14G 1_555 1_555

#END
