
#######################################################################
#
#                 Cambridge Crystallographic Data Centre
#                                CCDC 
#
#######################################################################
#
# If this CIF has been generated from an entry in the Cambridge 
# Structural Database, then it will include bibliographic, chemical, 
# crystal, experimental, refinement or atomic coordinate data resulting 
# from the CCDC's data processing and validation procedures.
#
#######################################################################

data_IKEZIH
_symmetry_cell_setting           triclinic
_symmetry_space_group_name_H-M   'P -1'
_symmetry_Int_Tables_number      2
_space_group_name_Hall           '-P 1'
loop_
_symmetry_equiv_pos_site_id
_symmetry_equiv_pos_as_xyz
1 x,y,z
2 -x,-y,-z
_cell_length_a                   7.2005(5)
_cell_length_b                   8.0322(5)
_cell_length_c                   9.3735(6)
_cell_angle_alpha                96.1750(10)
_cell_angle_beta                 101.8720(10)
_cell_angle_gamma                116.2450(10)
_cell_volume                     463.504
loop_
_atom_site_label
_atom_site_type_symbol
_atom_site_fract_x
_atom_site_fract_y
_atom_site_fract_z
Ni1 Ni 0.60108(8) 0.81218(8) 0.67559(6)
O1 O 0.6582(5) 0.5750(5) 0.6851(4)
O2 O 0.8599(5) 0.8424(4) 0.8517(4)
O3 O 1.4044(5) 0.7005(5) 0.8036(4)
O4 O 1.0963(5) 0.6653(6) 0.6597(4)
N1 N 0.8301(6) 0.9266(6) 0.5624(4)
O5 O 0.3494(5) 0.7163(5) 0.4853(4)
O6 O 0.6017(6) 1.0632(5) 0.7309(4)
C1 C 0.8069(7) 0.6716(6) 0.8048(5)
C2 C 0.9098(7) 0.5810(6) 0.9020(5)
C3 C 0.8153(7) 0.5061(6) 1.0095(5)
C4 C 1.0995(7) 0.5759(7) 0.8913(5)
C5 C 1.2056(7) 0.6545(7) 0.7753(5)
C6 C 1.0016(8) 1.0989(7) 0.6229(6)
C7 C 0.8302(8) 0.8267(7) 0.4382(5)
H1 H 0.242(6) 0.689(7) 0.519(6)
H2 H 0.309(8) 0.607(4) 0.433(5)
H3 H 0.520(8) 1.076(8) 0.779(6)
H4 H 0.620(9) 1.135(7) 0.669(5)
H7 H 0.6903 0.5105 1.0160
H8 H 1.0065 1.1707 0.7097
H9 H 0.7149 0.7059 0.3932
C4A C 0.9005(7) 0.4241(7) 1.1087(5)
C2A C 1.0902(7) 0.4190(6) 1.0980(5)
C1A C 1.1931(7) 0.3284(6) 1.1952(5)
O1A O 1.3418(5) 0.4250(5) 1.3149(4)
O2A O 1.1401(5) 0.1576(4) 1.1483(4)
C3A C 1.1847(7) 0.4939(6) 0.9905(5)
H7A H 1.3097 0.4895 0.9840
C5A C 0.7944(7) 0.3455(7) 1.2247(5)
O3A O 0.5956(5) 0.2995(5) 1.1964(4)
O4A O 0.9037(5) 0.3347(6) 1.3403(4)
C7A C 1.1698(8) 1.1733(7) 0.5618(5)
N1A N 1.1699(6) 1.0734(6) 0.4376(4)
C6A C 0.9984(8) 0.9011(7) 0.3771(6)
H8A H 0.9935 0.8293 0.2903
H9A H 1.2851 1.2941 0.6068
Ni1A Ni 1.39892(8) 0.18782(8) 1.32441(6)
O5A O 1.6506(5) 0.2837(5) 1.5147(4)
H1A H 1.758(6) 0.311(7) 1.481(6)
H2A H 1.691(8) 0.393(4) 1.567(5)
O6A O 1.3983(6) -0.0632(5) 1.2691(4)
H3A H 1.480(8) -0.076(8) 1.221(6)
H4A H 1.380(9) -0.135(7) 1.331(5)
O3_2 O 0.4044(5) 0.7005(5) 0.8036(4)
Ni1_2 Ni 1.60108(8) 0.81218(8) 0.67559(6)
Ni1A_2 Ni 0.39892(8) 0.18782(8) 1.32441(6)
Ni1A_3 Ni 1.39892(8) 1.18782(8) 0.32441(6)
O3A_2 O 1.5956(5) 0.2995(5) 1.1964(4)
N1A_2 N 1.1699(6) 0.0734(6) 1.4376(4)
O7 O 1.3406(7) 1.0949(7) 0.8959(5)
H5 H 1.222(6) 1.021(8) 0.911(8)
H6 H 1.418(9) 1.163(8) 0.983(3)
loop_
_geom_bond_atom_site_label_1
_geom_bond_atom_site_label_2
_geom_bond_site_symmetry_1
_geom_bond_site_symmetry_2
Ni1 O1 1_555 1_555
O1 C1 1_555 1_555
O2 Ni1 1_555 1_555
O3 C5 1_555 1_555
O4 C5 1_555 1_555
N1 Ni1 1_555 1_555
O5 Ni1 1_555 1_555
O6 Ni1 1_555 1_555
O7 H5 1_555 1_555
C1 O2 1_555 1_555
C2 C1 1_555 1_555
C3 C2 1_555 1_555
C4 C2 1_555 1_555
C5 C4 1_555 1_555
C6 N1 1_555 1_555
C7 N1 1_555 1_555
H1 O5 1_555 1_555
H2 O5 1_555 1_555
H3 O6 1_555 1_555
H4 O6 1_555 1_555
H6 O7 1_555 1_555
H7 C3 1_555 1_555
H8 C6 1_555 1_555
H9 C7 1_555 1_555
C4A C3 1_555 1_555
C2A C4A 1_555 1_555
C1A C2A 1_555 1_555
O1A C1A 1_555 1_555
O2A C1A 1_555 1_555
C3A C4 1_555 1_555
H7A C3A 1_555 1_555
C5A C4A 1_555 1_555
O3A C5A 1_555 1_555
O4A C5A 1_555 1_555
C7A C6 1_555 1_555
N1A C7A 1_555 1_555
C6A C7 1_555 1_555
H8A C6A 1_555 1_555
H9A C7A 1_555 1_555
Ni1A O1A 1_555 1_555
O5A Ni1A 1_555 1_555
H1A O5A 1_555 1_555
H2A O5A 1_555 1_555
O6A Ni1A 1_555 1_555
H3A O6A 1_555 1_555
H4A O6A 1_555 1_555
O3_2 Ni1 1_555 1_555
Ni1_2 O3 1_555 1_555
Ni1A_2 O3A 1_555 1_555
Ni1A_3 N1A 1_555 1_555
O3A_2 Ni1A 1_555 1_555
N1A_2 Ni1A 1_555 1_555
C2A C3A 1_555 1_555
O2A Ni1A 1_555 1_555
N1A C6A 1_555 1_555

#END
