
#######################################################################
#
#                 Cambridge Crystallographic Data Centre
#                                CCDC 
#
#######################################################################
#
# If this CIF has been generated from an entry in the Cambridge 
# Structural Database, then it will include bibliographic, chemical, 
# crystal, experimental, refinement or atomic coordinate data resulting 
# from the CCDC's data processing and validation procedures.
#
#######################################################################

data_IKIBUZ
_symmetry_cell_setting           triclinic
_symmetry_space_group_name_H-M   'P -1'
_symmetry_Int_Tables_number      2
_space_group_name_Hall           '-P 1'
loop_
_symmetry_equiv_pos_site_id
_symmetry_equiv_pos_as_xyz
1 x,y,z
2 -x,-y,-z
_cell_length_a                   7.0668(10)
_cell_length_b                   8.5150(12)
_cell_length_c                   8.7929(13)
_cell_angle_alpha                99.358(11)
_cell_angle_beta                 113.322(13)
_cell_angle_gamma                102.787(12)
_cell_volume                     454.949
loop_
_atom_site_label
_atom_site_type_symbol
_atom_site_fract_x
_atom_site_fract_y
_atom_site_fract_z
Co1 Co 0.5000 0.5000 0.5000
O1 O 0.2738(5) 0.2672(4) 0.4332(4)
O2 O 0.1069(5) 0.3189(4) 0.5978(4)
O3 O 0.2983(5) 0.6180(4) 0.5682(4)
N1 N 0.7701(6) 0.5607(5) 1.0466(5)
H1 H 0.8158 0.6230 1.1493
N2 N 0.6309(6) 0.4838(5) 0.7561(5)
C1 C 0.6941(8) 0.6059(6) 0.8993(6)
H2 H 0.6862 0.7132 0.8974
C2 C 0.6366(8) 0.1839(6) 0.7264(6)
H3 H 0.5786 0.1505 0.6068
C3 C 0.6938(9) 0.0747(7) 0.8255(7)
H4 H 0.6712 -0.0352 0.7697
C4 C 0.7858(8) 0.1247(7) 1.0094(6)
H5 H 0.8256 0.0485 1.0706
C5 C 0.8158(8) 0.2843(7) 1.0963(7)
H6 H 0.8717 0.3170 1.2158
C6 C 0.7606(7) 0.3943(6) 1.0008(6)
C7 C 0.6715(8) 0.3471(6) 0.8175(6)
C8 C 0.1553(8) 0.2211(6) 0.5030(6)
C9 C 0.0596(8) 0.0350(6) 0.4656(6)
H7 H 0.0862 -0.0350 0.3889
H8 H 0.2250 0.5256 0.6003
H9 H 0.1829 0.6475 0.5039
C9A C -0.0596(8) -0.0350(6) 0.5344(6)
C8A C -0.1553(8) -0.2211(6) 0.4970(6)
O1A O -0.2738(5) -0.2672(4) 0.5668(4)
O2A O -0.1069(5) -0.3189(4) 0.4022(4)
H7A H -0.0862 0.0350 0.6111
O3A O 0.7017(5) 0.3820(4) 0.4318(4)
H8A H 0.7750 0.4744 0.3997
H9A H 0.8171 0.3525 0.4961
N1A N 0.2299(6) 0.4393(5) -0.0466(5)
H1A H 0.1842 0.3770 -0.1493
N2A N 0.3691(6) 0.5162(5) 0.2439(5)
C1A C 0.3059(8) 0.3941(6) 0.1007(6)
H2A H 0.3138 0.2868 0.1026
C2A C 0.3634(8) 0.8161(6) 0.2736(6)
H3A H 0.4214 0.8495 0.3932
C3A C 0.3062(9) 0.9253(7) 0.1745(7)
H4A H 0.3288 1.0352 0.2303
C4A C 0.2142(8) 0.8753(7) -0.0094(6)
H5A H 0.1744 0.9515 -0.0706
C5A C 0.1842(8) 0.7157(7) -0.0963(7)
H6A H 0.1283 0.6830 -0.2158
C6A C 0.2394(7) 0.6057(6) -0.0008(6)
C7A C 0.3285(8) 0.6529(6) 0.1825(6)
O1A_2 O 0.7262(5) 0.7328(4) 0.5668(4)
Co1_2 Co -0.5000 -0.5000 0.5000
loop_
_geom_bond_atom_site_label_1
_geom_bond_atom_site_label_2
_geom_bond_site_symmetry_1
_geom_bond_site_symmetry_2
Co1 O1 1_555 1_555
O1 C8 1_555 1_555
O2 C8 1_555 1_555
O3 Co1 1_555 1_555
N1 H1 1_555 1_555
N2 Co1 1_555 1_555
C1 N1 1_555 1_555
H2 C1 1_555 1_555
C2 H3 1_555 1_555
C3 C2 1_555 1_555
H4 C3 1_555 1_555
C4 C3 1_555 1_555
H5 C4 1_555 1_555
C5 C4 1_555 1_555
H6 C5 1_555 1_555
C6 N1 1_555 1_555
C7 N2 1_555 1_555
C8 C9 1_555 1_555
C9 H7 1_555 1_555
H8 O3 1_555 1_555
H9 O3 1_555 1_555
C9A C9 1_555 1_555
C8A C9A 1_555 1_555
O1A C8A 1_555 1_555
O2A C8A 1_555 1_555
H7A C9A 1_555 1_555
O3A Co1 1_555 1_555
H8A O3A 1_555 1_555
H9A O3A 1_555 1_555
N1A H1A 1_555 1_555
N2A Co1 1_555 1_555
C1A N1A 1_555 1_555
H2A C1A 1_555 1_555
C2A H3A 1_555 1_555
C3A C2A 1_555 1_555
H4A C3A 1_555 1_555
C4A C3A 1_555 1_555
H5A C4A 1_555 1_555
C5A C4A 1_555 1_555
H6A C5A 1_555 1_555
C6A N1A 1_555 1_555
C7A N2A 1_555 1_555
O1A_2 Co1 1_555 1_555
Co1_2 O1A 1_555 1_555
N2 C1 1_555 1_555
C2 C7 1_555 1_555
C5 C6 1_555 1_555
C6 C7 1_555 1_555
N2A C1A 1_555 1_555
C2A C7A 1_555 1_555
C5A C6A 1_555 1_555
C6A C7A 1_555 1_555

#END
