
#######################################################################
#
#                 Cambridge Crystallographic Data Centre
#                                CCDC 
#
#######################################################################
#
# If this CIF has been generated from an entry in the Cambridge 
# Structural Database, then it will include bibliographic, chemical, 
# crystal, experimental, refinement or atomic coordinate data resulting 
# from the CCDC's data processing and validation procedures.
#
#######################################################################

data_IKIBOT
_symmetry_cell_setting           monoclinic
_symmetry_space_group_name_H-M   'P 21/n'
_symmetry_Int_Tables_number      14
_space_group_name_Hall           '-P 2yn'
loop_
_symmetry_equiv_pos_site_id
_symmetry_equiv_pos_as_xyz
1 x,y,z
2 1/2+x,1/2-y,1/2+z
3 -x,-y,-z
4 1/2-x,1/2+y,1/2-z
_cell_length_a                   6.7654(10)
_cell_length_b                   21.9841(18)
_cell_length_c                   7.4945(14)
_cell_angle_alpha                90
_cell_angle_beta                 91.944(2)
_cell_angle_gamma                90
_cell_volume                     1114.02
loop_
_atom_site_label
_atom_site_type_symbol
_atom_site_fract_x
_atom_site_fract_y
_atom_site_fract_z
Co1 Co 0.26052(7) 0.289972(19) 0.63585(6)
O1 O 0.4298(4) 0.24088(11) 0.8214(3)
O2 O 0.6051(4) 0.16303(11) 0.9275(3)
O3 O 0.4191(4) 0.24378(11) 0.4439(3)
O4 O 0.6116(4) 0.17026(11) 0.3451(3)
O5 O 0.0569(4) 0.21376(11) 0.6355(3)
N1 N 0.4732(4) 0.36040(13) 0.6495(4)
N2 N 0.7638(5) 0.40225(16) 0.6099(5)
H1 H 0.8860 0.4051 0.5829
C1 C 0.6553(6) 0.35196(18) 0.5971(5)
H2 H 0.7025 0.3150 0.5560
C2 C 0.6855(7) 0.5098(2) 0.7054(6)
H3 H 0.8075 0.5276 0.6857
C3 C 0.5322(8) 0.5430(2) 0.7686(7)
H4 H 0.5500 0.5843 0.7914
C4 C 0.3503(8) 0.5164(2) 0.7995(7)
H5 H 0.2501 0.5403 0.8445
C5 C 0.3136(6) 0.45587(18) 0.7655(6)
H6 H 0.1909 0.4386 0.7861
C6 C 0.4671(6) 0.42154(16) 0.6991(5)
C7 C 0.6530(6) 0.44825(18) 0.6716(5)
C8 C 0.5074(5) 0.18934(15) 0.8041(4)
C9 C 0.4775(6) 0.15551(15) 0.6285(4)
H7 H 0.3448 0.1387 0.6235
H8 H 0.5693 0.1216 0.6276
C10 C 0.5052(5) 0.19316(15) 0.4609(4)
H9 H -0.0311 0.2197 0.5455
H10 H -0.0252 0.2131 0.7403
O2A O 0.1051(4) 0.33697(11) 0.4275(3)
O4A O 0.1116(4) 0.32974(11) 0.8451(3)
Co1A Co 0.76052(7) 0.210028(19) 1.13585(6)
Co1A_2 Co 0.76052(7) 0.210028(19) 0.13585(6)
loop_
_geom_bond_atom_site_label_1
_geom_bond_atom_site_label_2
_geom_bond_site_symmetry_1
_geom_bond_site_symmetry_2
Co1 O1 1_555 1_555
O1 C8 1_555 1_555
O2 C8 1_555 1_555
O3 Co1 1_555 1_555
O4 C10 1_555 1_555
O5 Co1 1_555 1_555
N1 Co1 1_555 1_555
N2 H1 1_555 1_555
C1 N1 1_555 1_555
H2 C1 1_555 1_555
C2 H3 1_555 1_555
C3 C2 1_555 1_555
H4 C3 1_555 1_555
C4 C3 1_555 1_555
H5 C4 1_555 1_555
C5 C4 1_555 1_555
H6 C5 1_555 1_555
C6 N1 1_555 1_555
C7 N2 1_555 1_555
C8 C9 1_555 1_555
C9 H7 1_555 1_555
H8 C9 1_555 1_555
C10 O3 1_555 1_555
H9 O5 1_555 1_555
H10 O5 1_555 1_555
O2A Co1 1_555 1_555
O4A Co1 1_555 1_555
Co1A O2 1_555 1_555
Co1A_2 O4 1_555 1_555
N2 C1 1_555 1_555
C2 C7 1_555 1_555
C5 C6 1_555 1_555
C6 C7 1_555 1_555
C9 C10 1_555 1_555

#END
