
#######################################################################
#
#                 Cambridge Crystallographic Data Centre
#                                CCDC 
#
#######################################################################
#
# If this CIF has been generated from an entry in the Cambridge 
# Structural Database, then it will include bibliographic, chemical, 
# crystal, experimental, refinement or atomic coordinate data resulting 
# from the CCDC's data processing and validation procedures.
#
#######################################################################

data_IKICOV
_symmetry_cell_setting           orthorhombic
_symmetry_space_group_name_H-M   'P b c a'
_symmetry_Int_Tables_number      61
_space_group_name_Hall           '-P 2ac 2ab'
loop_
_symmetry_equiv_pos_site_id
_symmetry_equiv_pos_as_xyz
1 x,y,z
2 1/2-x,-y,1/2+z
3 -x,1/2+y,1/2-z
4 1/2+x,1/2-y,-z
5 -x,-y,-z
6 1/2+x,y,1/2-z
7 x,1/2-y,1/2+z
8 1/2-x,1/2+y,z
_cell_length_a                   16.4763(14)
_cell_length_b                   13.2934(11)
_cell_length_c                   17.2155(15)
_cell_angle_alpha                90
_cell_angle_beta                 90
_cell_angle_gamma                90
_cell_volume                     3770.64
loop_
_atom_site_label
_atom_site_type_symbol
_atom_site_fract_x
_atom_site_fract_y
_atom_site_fract_z
Zn1 Zn 0.290873(19) 0.19056(2) 0.120308(18)
O1 O 0.16436(13) 0.05679(17) 0.18260(13)
O2 O 0.17914(12) 0.16574(15) 0.08559(13)
O3 O -0.05192(13) 0.23654(17) -0.09158(14)
O4 O -0.17497(12) 0.20422(15) -0.04589(12)
O5 O -0.12818(13) -0.06621(19) 0.14961(15)
N1 N 0.29611(14) 0.24386(18) 0.22862(13)
N2 N 0.30719(14) 0.34094(19) 0.33077(14)
N3 N 0.54856(15) 0.45040(18) 0.40040(16)
N4 N 0.64793(14) 0.55984(18) 0.39285(14)
C1 C 0.05063(16) 0.0894(2) 0.10137(16)
C2 C 0.01838(17) 0.1433(2) 0.04001(17)
H1 H 0.0508 0.1884 0.0129
C3 C -0.06264(16) 0.1302(2) 0.01856(16)
C4 C -0.10951(17) 0.0606(2) 0.05755(17)
H2 H -0.1636 0.0517 0.0436
C5 C -0.07675(18) 0.0036(2) 0.11733(17)
C6 C 0.00261(17) 0.0191(2) 0.14050(17)
H3 H 0.0240 -0.0172 0.1819
C7 C 0.13739(17) 0.1035(2) 0.12647(18)
C8 C -0.09735(18) 0.1943(2) -0.04504(16)
C9 C -0.0956(2) -0.1340(3) 0.2044(2)
H4 H -0.0488 -0.1666 0.1828
H5 H -0.1357 -0.1837 0.2174
H6 H -0.0802 -0.0980 0.2504
C10 C 0.31040(18) 0.3361(2) 0.25321(18)
H7 H 0.3213 0.3905 0.2209
C11 C 0.2833(2) 0.1887(3) 0.29400(19)
H8 H 0.2716 0.1203 0.2948
C12 C 0.2901(2) 0.2468(3) 0.35699(19)
H9 H 0.2843 0.2269 0.4085
C13 C 0.31793(18) 0.4312(3) 0.3790(2)
H10 H 0.3060 0.4141 0.4326
H11 H 0.2789 0.4816 0.3627
C14 C 0.4024(2) 0.4764(3) 0.3751(2)
H12 H 0.4134 0.4974 0.3221
H13 H 0.4043 0.5358 0.4078
C15 C 0.4665(2) 0.4054(3) 0.4002(2)
H14 H 0.4539 0.3817 0.4521
H15 H 0.4663 0.3476 0.3658
C16 C 0.56913(18) 0.5462(2) 0.3859(2)
H16 H 0.5324 0.5965 0.3727
C17 C 0.67886(19) 0.4671(2) 0.41272(18)
H17 H 0.7334 0.4534 0.4218
C18 C 0.61857(19) 0.3993(2) 0.41696(19)
H18 H 0.6234 0.3313 0.4288
Zn1B Zn 0.709127(19) 0.69056(2) 0.379692(18)
Zn1C Zn -0.209127(19) 0.30944(2) -0.120308(18)
O4C O 0.32503(12) 0.29578(15) 0.04589(12)
N4B N 0.35207(14) 0.05984(18) 0.10715(14)
loop_
_geom_bond_atom_site_label_1
_geom_bond_atom_site_label_2
_geom_bond_site_symmetry_1
_geom_bond_site_symmetry_2
Zn1 O2 1_555 1_555
O1 C7 1_555 1_555
O2 C7 1_555 1_555
O3 C8 1_555 1_555
O4 C8 1_555 1_555
O5 C5 1_555 1_555
N1 Zn1 1_555 1_555
N2 C10 1_555 1_555
N3 C15 1_555 1_555
N4 C16 1_555 1_555
C1 C2 1_555 1_555
C2 H1 1_555 1_555
C3 C2 1_555 1_555
C4 C3 1_555 1_555
H2 C4 1_555 1_555
C5 C4 1_555 1_555
C6 C1 1_555 1_555
H3 C6 1_555 1_555
C7 C1 1_555 1_555
C8 C3 1_555 1_555
C9 O5 1_555 1_555
H4 C9 1_555 1_555
H5 C9 1_555 1_555
H6 C9 1_555 1_555
C10 N1 1_555 1_555
H7 C10 1_555 1_555
C11 N1 1_555 1_555
H8 C11 1_555 1_555
C12 N2 1_555 1_555
H9 C12 1_555 1_555
C13 N2 1_555 1_555
H10 C13 1_555 1_555
H11 C13 1_555 1_555
C14 C13 1_555 1_555
H12 C14 1_555 1_555
H13 C14 1_555 1_555
C15 C14 1_555 1_555
H14 C15 1_555 1_555
H15 C15 1_555 1_555
C16 N3 1_555 1_555
H16 C16 1_555 1_555
C17 N4 1_555 1_555
H17 C17 1_555 1_555
C18 N3 1_555 1_555
H18 C18 1_555 1_555
Zn1B N4 1_555 1_555
Zn1C O4 1_555 1_555
O4C Zn1 1_555 1_555
N4B Zn1 1_555 1_555
C5 C6 1_555 1_555
C11 C12 1_555 1_555
C17 C18 1_555 1_555

#END
