
#######################################################################
#
#                 Cambridge Crystallographic Data Centre
#                                CCDC 
#
#######################################################################
#
# If this CIF has been generated from an entry in the Cambridge 
# Structural Database, then it will include bibliographic, chemical, 
# crystal, experimental, refinement or atomic coordinate data resulting 
# from the CCDC's data processing and validation procedures.
#
#######################################################################

data_IKICEL
_symmetry_cell_setting           monoclinic
_symmetry_space_group_name_H-M   'P 21/c'
_symmetry_Int_Tables_number      14
_space_group_name_Hall           '-P 2ybc'
loop_
_symmetry_equiv_pos_site_id
_symmetry_equiv_pos_as_xyz
1 x,y,z
2 -x,1/2+y,1/2-z
3 -x,-y,-z
4 x,1/2-y,1/2+z
_cell_length_a                   9.4664(10)
_cell_length_b                   14.5654(15)
_cell_length_c                   15.1276(16)
_cell_angle_alpha                90
_cell_angle_beta                 102.2470(10)
_cell_angle_gamma                90
_cell_volume                     2038.35
loop_
_atom_site_label
_atom_site_type_symbol
_atom_site_fract_x
_atom_site_fract_y
_atom_site_fract_z
Zn1 Zn 0.76009(3) -0.161506(19) 0.45516(2)
N1 N 0.7731(2) -0.03739(15) 0.40042(15)
N2 N 0.7319(2) 0.10470(15) 0.35422(15)
N3 N 0.7250(2) 0.59276(15) 0.21445(15)
N4 N 0.7623(2) 0.64853(13) 0.08702(15)
O1 O 0.59224(16) -0.23488(12) 0.40163(12)
O2 O 0.45021(18) -0.12544(12) 0.43801(13)
O3 O -0.1013(2) -0.34998(15) 0.47841(18)
O4 O -0.06107(17) -0.21047(13) 0.43265(13)
C1 C 0.3588(2) -0.27788(16) 0.41669(16)
C2 C 0.2216(2) -0.25368(17) 0.42849(16)
H1 H 0.1981 -0.1921 0.4328
C3 C 0.1201(2) -0.32067(16) 0.43385(16)
C4 C 0.1548(3) -0.41239(18) 0.42720(18)
H2 H 0.0875 -0.4572 0.4331
C5 C 0.2888(3) -0.43842(17) 0.41184(19)
C6 C 0.3896(3) -0.36999(17) 0.40763(18)
H3 H 0.4803 -0.3865 0.3985
C7 C 0.4726(2) -0.20561(18) 0.41844(16)
C8 C -0.0258(3) -0.2940(2) 0.45099(18)
C9 C 0.3239(3) -0.53855(19) 0.4007(2)
H4 H 0.2756 -0.5756 0.4377
H5 H 0.4264 -0.5476 0.4189
H6 H 0.2920 -0.5560 0.3385
C10 C 0.8765(3) -0.0114(2) 0.3544(2)
H7 H 0.9521 -0.0481 0.3445
C11 C 0.8510(4) 0.0761(2) 0.3256(2)
H8 H 0.9049 0.1102 0.2925
C12 C 0.6892(3) 0.03476(19) 0.39801(18)
H9 H 0.6087 0.0365 0.4241
C13 C 0.6578(3) 0.19351(19) 0.3374(2)
H10 H 0.6123 0.2076 0.3875
H11 H 0.5822 0.1890 0.2831
C14 C 0.7583(3) 0.27062(18) 0.32619(19)
H12 H 0.7940 0.2611 0.2713
H13 H 0.8405 0.2708 0.3769
C15 C 0.6813(3) 0.36271(19) 0.3212(2)
H14 H 0.5862 0.3568 0.2822
H15 H 0.6685 0.3792 0.3811
C16 C 0.7627(3) 0.43854(19) 0.2856(2)
H16 H 0.7780 0.4215 0.2264
H17 H 0.8566 0.4460 0.3256
C17 C 0.6816(3) 0.5289(2) 0.2785(2)
H18 H 0.5788 0.5169 0.2597
H19 H 0.6984 0.5575 0.3378
C18 C 0.7202(3) 0.57707(18) 0.12722(18)
H20 H 0.6905 0.5219 0.0982
C19 C 0.7949(3) 0.71397(19) 0.1525(2)
H21 H 0.8278 0.7728 0.1440
C20 C 0.7725(3) 0.68072(19) 0.2311(2)
H22 H 0.7866 0.7116 0.2861
Zn1_2 Zn -0.23991(3) -0.161506(19) 0.45516(2)
Zn1C Zn 0.76009(3) 0.661506(19) -0.04484(2)
N4C N 0.7623(2) -0.14853(13) 0.58702(15)
O4_2 O 0.93893(17) -0.21047(13) 0.43265(13)
loop_
_geom_bond_atom_site_label_1
_geom_bond_atom_site_label_2
_geom_bond_site_symmetry_1
_geom_bond_site_symmetry_2
Zn1 N1 1_555 1_555
N1 C10 1_555 1_555
N2 C11 1_555 1_555
N3 C17 1_555 1_555
N4 C18 1_555 1_555
O1 Zn1 1_555 1_555
O2 C7 1_555 1_555
O3 C8 1_555 1_555
O4 C8 1_555 1_555
C1 C2 1_555 1_555
C2 H1 1_555 1_555
C3 C2 1_555 1_555
C4 C3 1_555 1_555
H2 C4 1_555 1_555
C5 C4 1_555 1_555
C6 C1 1_555 1_555
H3 C6 1_555 1_555
C7 O1 1_555 1_555
C8 C3 1_555 1_555
C9 C5 1_555 1_555
H4 C9 1_555 1_555
H5 C9 1_555 1_555
H6 C9 1_555 1_555
C10 H7 1_555 1_555
C11 C10 1_555 1_555
H8 C11 1_555 1_555
C12 N1 1_555 1_555
H9 C12 1_555 1_555
C13 N2 1_555 1_555
H10 C13 1_555 1_555
H11 C13 1_555 1_555
C14 C13 1_555 1_555
H12 C14 1_555 1_555
H13 C14 1_555 1_555
C15 C14 1_555 1_555
H14 C15 1_555 1_555
H15 C15 1_555 1_555
C16 C15 1_555 1_555
H16 C16 1_555 1_555
H17 C16 1_555 1_555
C17 C16 1_555 1_555
H18 C17 1_555 1_555
H19 C17 1_555 1_555
C18 N3 1_555 1_555
H20 C18 1_555 1_555
C19 N4 1_555 1_555
H21 C19 1_555 1_555
C20 N3 1_555 1_555
H22 C20 1_555 1_555
Zn1_2 O4 1_555 1_555
Zn1C N4 1_555 1_555
N4C Zn1 1_555 1_555
O4_2 Zn1 1_555 1_555
N2 C12 1_555 1_555
C1 C7 1_555 1_555
C5 C6 1_555 1_555
C19 C20 1_555 1_555

#END
