
#######################################################################
#
#                 Cambridge Crystallographic Data Centre
#                                CCDC 
#
#######################################################################
#
# If this CIF has been generated from an entry in the Cambridge 
# Structural Database, then it will include bibliographic, chemical, 
# crystal, experimental, refinement or atomic coordinate data resulting 
# from the CCDC's data processing and validation procedures.
#
#######################################################################

data_IKICAH
_symmetry_cell_setting           monoclinic
_symmetry_space_group_name_H-M   'P 21/c'
_symmetry_Int_Tables_number      14
_space_group_name_Hall           '-P 2ybc'
loop_
_symmetry_equiv_pos_site_id
_symmetry_equiv_pos_as_xyz
1 x,y,z
2 -x,1/2+y,1/2-z
3 -x,-y,-z
4 x,1/2-y,1/2+z
_cell_length_a                   8.1512(7)
_cell_length_b                   15.0605(13)
_cell_length_c                   14.8508(12)
_cell_angle_alpha                90
_cell_angle_beta                 93.7260(10)
_cell_angle_gamma                90
_cell_volume                     1819.25
loop_
_atom_site_label
_atom_site_type_symbol
_atom_site_fract_x
_atom_site_fract_y
_atom_site_fract_z
Zn1 Zn 0.03564(2) 1.194098(13) 0.323595(13)
O1 O -0.09871(19) 1.15801(9) 0.21927(9)
O2 O -0.23446(19) 1.03929(10) 0.26558(9)
O3 O -0.05489(17) 1.22900(9) -0.08864(9)
O4 O -0.08859(19) 1.12812(9) -0.19719(9)
N1 N 0.11241(18) 1.08725(9) 0.39769(10)
N2 N 0.18822(18) 0.95167(9) 0.43376(10)
N3 N 0.5447(2) 0.81280(11) 0.26968(12)
N4 N 0.74485(18) 0.73724(10) 0.21452(11)
C1 C -0.2016(2) 1.05891(11) 0.10825(11)
C2 C -0.1439(2) 1.11395(11) 0.04243(11)
H1 H -0.0943 1.1676 0.0591
C3 C -0.1591(2) 1.08990(11) -0.04805(11)
C4 C -0.2298(2) 1.00823(12) -0.07197(12)
H2 H -0.2381 0.9912 -0.1323
C5 C -0.2881(2) 0.95167(12) -0.00705(13)
C6 C -0.2749(2) 0.97851(12) 0.08236(12)
H3 H -0.3159 0.9420 0.1261
C7 C -0.1785(2) 1.08485(12) 0.20611(12)
C8 C -0.0968(2) 1.15117(12) -0.11779(12)
C9 C -0.3608(3) 0.86249(15) -0.03341(17)
H4 H -0.2751 0.8187 -0.0321
H5 H -0.4128 0.8660 -0.0932
H6 H -0.4407 0.8461 0.0083
C10 C 0.1247(2) 1.00497(12) 0.36840(12)
H7 H 0.0934 0.9865 0.3100
C11 C 0.2181(2) 1.00241(14) 0.50995(13)
H8 H 0.2614 0.9832 0.5661
C12 C 0.1716(2) 1.08613(13) 0.48671(13)
H9 H 0.1785 1.1351 0.5249
C13 C 0.2211(3) 0.85636(12) 0.42454(15)
H10 H 0.1518 0.8328 0.3746
H11 H 0.1927 0.8260 0.4790
C14 C 0.3989(3) 0.83771(17) 0.40843(16)
H12 H 0.4153 0.7740 0.4069
H13 H 0.4677 0.8611 0.4587
C15 C 0.4545(3) 0.87816(15) 0.32039(16)
H14 H 0.3591 0.8985 0.2836
H15 H 0.5245 0.9291 0.3344
C16 C 0.7067(2) 0.80912(12) 0.25962(13)
H16 H 0.7821 0.8515 0.2815
C17 C 0.4749(3) 0.73933(16) 0.22877(17)
H17 H 0.3640 0.7243 0.2249
C18 C 0.5982(3) 0.69326(14) 0.19532(17)
H18 H 0.5866 0.6399 0.1640
Zn1C Zn 0.03564(2) 1.305902(13) -0.176405(13)
Zn1A Zn 0.96436(2) 0.694098(13) 0.176405(13)
O3C O -0.05489(17) 1.27100(9) 0.41136(9)
N4A N 0.25515(18) 1.23724(10) 0.28548(11)
loop_
_geom_bond_atom_site_label_1
_geom_bond_atom_site_label_2
_geom_bond_site_symmetry_1
_geom_bond_site_symmetry_2
Zn1 O1 1_555 1_555
O1 C7 1_555 1_555
O2 C7 1_555 1_555
O3 C8 1_555 1_555
O4 C8 1_555 1_555
N1 Zn1 1_555 1_555
N2 C10 1_555 1_555
N3 C15 1_555 1_555
N4 C16 1_555 1_555
C1 C2 1_555 1_555
C2 H1 1_555 1_555
C3 C2 1_555 1_555
C4 C3 1_555 1_555
H2 C4 1_555 1_555
C5 C4 1_555 1_555
C6 C1 1_555 1_555
H3 C6 1_555 1_555
C7 C1 1_555 1_555
C8 C3 1_555 1_555
C9 C5 1_555 1_555
H4 C9 1_555 1_555
H5 C9 1_555 1_555
H6 C9 1_555 1_555
C10 N1 1_555 1_555
H7 C10 1_555 1_555
C11 N2 1_555 1_555
H8 C11 1_555 1_555
C12 N1 1_555 1_555
H9 C12 1_555 1_555
C13 N2 1_555 1_555
H10 C13 1_555 1_555
H11 C13 1_555 1_555
C14 C13 1_555 1_555
H12 C14 1_555 1_555
H13 C14 1_555 1_555
C15 C14 1_555 1_555
H14 C15 1_555 1_555
H15 C15 1_555 1_555
C16 N3 1_555 1_555
H16 C16 1_555 1_555
C17 N3 1_555 1_555
H17 C17 1_555 1_555
C18 N4 1_555 1_555
H18 C18 1_555 1_555
Zn1C O3 1_555 1_555
Zn1A N4 1_555 1_555
O3C Zn1 1_555 1_555
N4A Zn1 1_555 1_555
C5 C6 1_555 1_555
C11 C12 1_555 1_555
C17 C18 1_555 1_555

#END
