
#######################################################################
#
#                 Cambridge Crystallographic Data Centre
#                                CCDC 
#
#######################################################################
#
# If this CIF has been generated from an entry in the Cambridge 
# Structural Database, then it will include bibliographic, chemical, 
# crystal, experimental, refinement or atomic coordinate data resulting 
# from the CCDC's data processing and validation procedures.
#
#######################################################################

data_IKIMOE
_symmetry_cell_setting           monoclinic
_symmetry_space_group_name_H-M   'P 21/c'
_symmetry_Int_Tables_number      14
_space_group_name_Hall           '-P 2ybc'
loop_
_symmetry_equiv_pos_site_id
_symmetry_equiv_pos_as_xyz
1 x,y,z
2 -x,1/2+y,1/2-z
3 -x,-y,-z
4 x,1/2-y,1/2+z
_cell_length_a                   6.6607(11)
_cell_length_b                   17.922(3)
_cell_length_c                   20.035(3)
_cell_angle_alpha                90
_cell_angle_beta                 90.360(5)
_cell_angle_gamma                90
_cell_volume                     2391.59
loop_
_atom_site_label
_atom_site_type_symbol
_atom_site_fract_x
_atom_site_fract_y
_atom_site_fract_z
K1 K 0.17403(12) 0.89793(4) 0.49229(3)
K2 K 0.31644(11) 0.49464(3) 0.41934(3)
N1 N 0.0293(4) 0.78831(12) 0.38484(11)
C1 C 0.0499(5) 0.71578(15) 0.39477(13)
C2 C 0.0112(4) 0.66504(15) 0.34141(14)
N2 N -0.0177(4) 0.69041(12) 0.28101(11)
C3 C -0.0200(4) 0.76524(15) 0.26725(14)
C4 C -0.0142(4) 0.81231(15) 0.32451(14)
N3 N -0.0652(4) 0.89235(13) 0.32170(12)
O1 O -0.1580(3) 0.91270(10) 0.27194(10)
O2 O -0.0194(3) 0.93287(10) 0.36920(10)
N4 N 0.1166(4) 0.69330(13) 0.46118(12)
O3 O 0.1265(4) 0.62607(11) 0.47343(10)
O4 O 0.1642(4) 0.74235(11) 0.50153(10)
C5 C -0.0173(5) 0.77903(15) 0.19760(14)
C6 C -0.0050(5) 0.84747(16) 0.16261(14)
N5 N 0.0101(4) 0.89828(13) 0.12712(12)
C7 C -0.0092(5) 0.71423(16) 0.15437(14)
N6 N -0.0046(4) 0.66498(14) 0.11789(12)
O5 O -0.0002(3) 0.59181(10) 0.35078(9)
C8 C -0.0553(8) 0.5504(2) 0.29021(17)
H1 H -0.063(5) 0.4991(17) 0.3039(14)
H2 H -0.169(6) 0.571(2) 0.2767(18)
H3 H 0.048(7) 0.561(2) 0.2579(19)
N7 N 0.5245(4) 0.84209(12) 0.13790(11)
C9 C 0.5485(5) 0.77720(15) 0.10741(14)
C10 C 0.5088(5) 0.70951(15) 0.14140(14)
N8 N 0.4825(4) 0.70947(12) 0.20649(11)
C11 C 0.4794(4) 0.77530(15) 0.24095(13)
C12 C 0.4810(5) 0.84167(14) 0.20159(14)
N9 N 0.4313(4) 0.91572(13) 0.22803(12)
O6 O 0.3131(3) 0.91803(10) 0.27511(10)
O7 O 0.5031(3) 0.97178(10) 0.20136(10)
N10 N 0.6174(4) 0.78329(14) 0.03808(12)
O8 O 0.6425(4) 0.72461(11) 0.00676(10)
O9 O 0.6542(4) 0.84539(11) 0.01584(10)
C13 C 0.4854(5) 0.76835(15) 0.31166(13)
C14 C 0.5010(4) 0.82807(15) 0.35850(14)
N11 N 0.5163(4) 0.87391(13) 0.39828(12)
C15 C 0.4933(5) 0.69478(16) 0.33973(14)
N12 N 0.4977(4) 0.63623(14) 0.36361(12)
O10 O 0.4984(3) 0.64430(10) 0.10851(9)
C16 C 0.4603(7) 0.57802(17) 0.14929(18)
H4 H 0.471(4) 0.5398(16) 0.1174(14)
H5 H 0.330(6) 0.5840(17) 0.1756(17)
H6 H 0.560(6) 0.576(2) 0.1805(19)
O11 O -0.2331(4) 0.94498(14) 0.50698(16)
O12 O 0.7216(4) 0.50366(14) 0.44705(11)
H7 H 0.761(6) 0.546(2) 0.4316(17)
H8 H 0.784(7) 0.470(2) 0.434(2)
H9 H -0.237(6) 0.919(2) 0.5365(19)
H10 H -0.294(9) 0.936(3) 0.481(3)
K1B K -0.17403(12) 1.10207(4) 0.50771(3)
N6C N -0.0046(4) 0.83502(14) 0.61789(12)
O10C O 0.4984(3) 0.85570(10) 0.60851(9)
O11B O 0.2331(4) 1.05502(14) 0.49302(16)
K2B K 0.68356(11) 0.50536(3) 0.58066(3)
N5A N -0.0101(4) 0.39828(13) 0.37288(12)
N7A N 0.4755(4) 0.34209(12) 0.36210(11)
O7A O 0.4969(3) 0.47178(10) 0.29864(10)
O9A O 0.3458(4) 0.34539(11) 0.48416(10)
O12B O 0.2784(4) 0.49634(14) 0.55295(11)
K2A K -0.31644(11) 0.99464(3) 0.08066(3)
K1C K 0.17403(12) 0.60207(4) -0.00771(3)
K2A_2 K 0.68356(11) 0.99464(3) 0.08066(3)
H9B H 0.237(6) 1.081(2) 0.4635(19)
H10B H 0.294(9) 1.064(3) 0.519(3)
H7B H 0.239(6) 0.454(2) 0.5684(17)
H8B H 0.216(7) 0.530(2) 0.566(2)
loop_
_geom_bond_atom_site_label_1
_geom_bond_atom_site_label_2
_geom_bond_site_symmetry_1
_geom_bond_site_symmetry_2
K1 N1 1_555 1_555
K2 O3 1_555 1_555
N1 C1 1_555 1_555
C1 C2 1_555 1_555
C2 N2 1_555 1_555
N2 C3 1_555 1_555
C3 C4 1_555 1_555
C4 N1 1_555 1_555
N3 C4 1_555 1_555
O1 N3 1_555 1_555
O2 K1 1_555 1_555
N4 C1 1_555 1_555
O3 N4 1_555 1_555
O4 K1 1_555 1_555
C5 C3 1_555 1_555
C6 C5 1_555 1_555
N5 C6 1_555 1_555
C7 C5 1_555 1_555
N6 C7 1_555 1_555
O5 K2 1_555 1_555
C8 O5 1_555 1_555
H1 C8 1_555 1_555
H2 C8 1_555 1_555
H3 C8 1_555 1_555
N7 C9 1_555 1_555
C9 C10 1_555 1_555
C10 N8 1_555 1_555
N8 C11 1_555 1_555
C11 C12 1_555 1_555
C12 N7 1_555 1_555
N9 C12 1_555 1_555
O6 N9 1_555 1_555
O7 N9 1_555 1_555
N10 C9 1_555 1_555
O8 N10 1_555 1_555
O9 N10 1_555 1_555
C13 C11 1_555 1_555
C14 C13 1_555 1_555
N11 K1 1_555 1_555
C15 C13 1_555 1_555
N12 K2 1_555 1_555
O10 C10 1_555 1_555
C16 O10 1_555 1_555
H4 C16 1_555 1_555
H5 C16 1_555 1_555
H6 C16 1_555 1_555
O11 K1 1_555 1_555
O12 K2 1_555 1_555
H7 O12 1_555 1_555
H8 O12 1_555 1_555
H9 O11 1_555 1_555
H10 O11 1_555 1_555
K1B O11 1_555 1_555
N6C K1 1_555 1_555
O10C K1 1_555 1_555
O11B K1 1_555 1_555
K2B O12 1_555 1_555
N5A K2 1_555 1_555
N7A K2 1_555 1_555
O7A K2 1_555 1_555
O9A K2 1_555 1_555
O12B K2 1_555 1_555
K2A N5 1_555 1_555
K1C N6 1_555 1_555
K2A_2 N7 1_555 1_555
H9B O11B 1_555 1_555
H10B O11B 1_555 1_555
H7B O12B 1_555 1_555
H8B O12B 1_555 1_555
C2 O5 1_555 1_555
N3 O2 1_555 1_555
N4 O4 1_555 1_555
O7 K2A_2 1_555 1_555
O9 K2A_2 1_555 1_555
C14 N11 1_555 1_555
C15 N12 1_555 1_555
O10 K1C 1_555 1_555
K1B O11B 1_555 1_555
K2B O12B 1_555 1_555

#END
