
#######################################################################
#
#                 Cambridge Crystallographic Data Centre
#                                CCDC 
#
#######################################################################
#
# If this CIF has been generated from an entry in the Cambridge 
# Structural Database, then it will include bibliographic, chemical, 
# crystal, experimental, refinement or atomic coordinate data resulting 
# from the CCDC's data processing and validation procedures.
#
#######################################################################

data_IKOBEP
_symmetry_cell_setting           tetragonal
_symmetry_space_group_name_H-M   'I 4/m'
_symmetry_Int_Tables_number      87
_space_group_name_Hall           '-I 4'
loop_
_symmetry_equiv_pos_site_id
_symmetry_equiv_pos_as_xyz
1 x,y,z
2 -y,x,z
3 y,-x,z
4 1/2+x,1/2+y,1/2+z
5 1/2-y,1/2+x,1/2+z
6 1/2+y,1/2-x,1/2+z
7 x,y,-z
8 1/2+x,1/2+y,1/2-z
9 -x,-y,-z
10 y,-x,-z
11 -y,x,-z
12 1/2-x,1/2-y,1/2-z
13 1/2+y,1/2-x,1/2-z
14 1/2-y,1/2+x,1/2-z
15 -x,-y,z
16 1/2-x,1/2-y,1/2+z
_cell_length_a                   17.952(3)
_cell_length_b                   17.952(3)
_cell_length_c                   25.388
_cell_angle_alpha                90
_cell_angle_beta                 90
_cell_angle_gamma                90
_cell_volume                     8181.9
loop_
_atom_site_label
_atom_site_type_symbol
_atom_site_fract_x
_atom_site_fract_y
_atom_site_fract_z
Sb1 Sb 0.5000 0.5000 0.86215(13)
F1 F 0.5014(8) 0.5954(10) 0.8566(10)
F2 F 0.5000 0.5000 0.7957(10)
F3 F 0.5000 0.5000 0.9282(10)
F1A F 0.4046(10) 0.5014(8) 0.8566(10)
F1B F 0.5954(10) 0.4986(8) 0.8566(10)
F1N F 0.4986(8) 0.4046(10) 0.8566(10)
Sb2 Sb 0.0000 0.0000 0.0000
F4 F 0.1002(5) 0.0150(6) 0.0000
F5 F 0.0000 0.0000 0.0719(6)
F4A F -0.0150(6) 0.1002(5) 0.0000
F4B F 0.0150(6) -0.1002(5) 0.0000
F4H F -0.1002(5) -0.0150(6) 0.0000
F5F F 0.0000 0.0000 -0.0719(6)
Cl2 Cl 0.7612(8) 0.4577(7) 1.0000
Cl3 Cl 0.7161(10) 0.5961(17) 1.0000
C20 C 0.739(2) 0.5274(12) 0.9500(16)
H15 H 0.7814 0.5414 0.9281
H16 H 0.6960 0.5136 0.9280
C20F C 0.739(2) 0.5274(12) 1.0500(16)
Au1 Au 0.562269(18) 0.904116(19) 0.847625(13)
Ag1 Ag 0.5000 1.0000 0.7500
Cl1 Cl 0.44082(12) 0.90602(13) 0.81719(9)
P1 P 0.68117(12) 0.89281(12) 0.87325(8)
C1 C 0.5765(5) 1.0660(5) 0.9730(4)
H1 H 0.5496 1.1028 0.9548
C2 C 0.6148(5) 1.0134(5) 0.9450(4)
H2 H 0.6140 1.0143 0.9080
C3 C 0.6558(4) 0.9575(4) 0.9717(3)
C4 C 0.6985(4) 0.9046(4) 0.9444(3)
C5 C 0.7515(4) 0.8619(5) 0.9719(3)
C6 C 0.8102(5) 0.8213(5) 0.9464(3)
H3 H 0.8116 0.8210 0.9094
C7 C 0.8636(5) 0.7833(5) 0.9727(4)
H4 H 0.9004 0.7571 0.9541
C8 C 0.7441(4) 0.9558(4) 0.8402(3)
C9 C 0.8081(5) 0.9825(5) 0.8658(4)
H5 H 0.8179 0.9697 0.9011
C10 C 0.8571(6) 1.0287(6) 0.8377(5)
H6 H 0.9003 1.0470 0.8541
C11 C 0.8419(6) 1.0476(5) 0.7855(4)
H7 H 0.8751 1.0782 0.7667
C12 C 0.7784(6) 1.0214(6) 0.7616(4)
H8 H 0.7680 1.0348 0.7266
C13 C 0.7303(5) 0.9763(5) 0.7883(3)
H9 H 0.6873 0.9587 0.7713
C14 C 0.7046(5) 0.7985(5) 0.8542(3)
C15 C 0.7630(5) 0.7806(6) 0.8215(4)
H10 H 0.7932 0.8188 0.8079
C16 C 0.7782(7) 0.7082(6) 0.8082(4)
H11 H 0.8184 0.6977 0.7858
C17 C 0.7358(8) 0.6514(7) 0.8271(6)
H12 H 0.7463 0.6017 0.8181
C18 C 0.6772(8) 0.6689(6) 0.8597(6)
H13 H 0.6471 0.6303 0.8728
C19 C 0.6611(6) 0.7411(6) 0.8739(5)
H14 H 0.6211 0.7514 0.8966
Cl1L Cl 0.40602(13) 1.05918(12) 0.68281(9)
Cl1M Cl 0.59398(13) 0.94082(12) 0.68281(9)
Cl1N Cl 0.55918(12) 1.09398(13) 0.81719(9)
Au1M Au 0.595884(19) 1.062269(18) 0.652375(13)
Au1L Au 0.404116(19) 0.937731(18) 0.652375(13)
Au1N Au 0.437731(18) 1.095884(19) 0.847625(13)
C1F C 0.5765(5) 1.0660(5) 1.0270(4)
C3F C 0.6558(4) 0.9575(4) 1.0283(3)
C5F C 0.7515(4) 0.8619(5) 1.0281(3)
C7F C 0.8636(5) 0.7833(5) 1.0273(4)
loop_
_geom_bond_atom_site_label_1
_geom_bond_atom_site_label_2
_geom_bond_site_symmetry_1
_geom_bond_site_symmetry_2
Au1 Ag1 1_555 1_555
Ag1 Cl1 1_555 1_555
Cl1 Au1 1_555 1_555
P1 Au1 1_555 1_555
C1 H1 1_555 1_555
C2 C1 1_555 1_555
H2 C2 1_555 1_555
C3 C2 1_555 1_555
C4 P1 1_555 1_555
C5 C4 1_555 1_555
C6 C5 1_555 1_555
H3 C6 1_555 1_555
C7 C6 1_555 1_555
H4 C7 1_555 1_555
C8 P1 1_555 1_555
C9 C8 1_555 1_555
H5 C9 1_555 1_555
C10 C9 1_555 1_555
H6 C10 1_555 1_555
C11 C10 1_555 1_555
H7 C11 1_555 1_555
C12 C11 1_555 1_555
H8 C12 1_555 1_555
C13 C8 1_555 1_555
H9 C13 1_555 1_555
C14 P1 1_555 1_555
C15 C14 1_555 1_555
H10 C15 1_555 1_555
C16 C15 1_555 1_555
H11 C16 1_555 1_555
C17 C16 1_555 1_555
H12 C17 1_555 1_555
C18 C17 1_555 1_555
H13 C18 1_555 1_555
C19 C14 1_555 1_555
H14 C19 1_555 1_555
Sb1 F1 1_555 1_555
F2 Sb1 1_555 1_555
F3 Sb1 1_555 1_555
Sb2 F4 1_555 1_555
F5 Sb2 1_555 1_555
Cl2 C20 1_555 1_555
Cl3 C20 1_555 1_555
C20 H15 1_555 1_555
H16 C20 1_555 1_555
Cl1L Ag1 1_555 1_555
Cl1M Ag1 1_555 1_555
Cl1N Ag1 1_555 1_555
Au1M Ag1 1_555 1_555
Au1L Ag1 1_555 1_555
Au1N Ag1 1_555 1_555
C1F C1 1_555 1_555
C3F C3 1_555 1_555
C5F C5 1_555 1_555
C7F C7 1_555 1_555
F1A Sb1 1_555 1_555
F1B Sb1 1_555 1_555
F1N Sb1 1_555 1_555
F4A Sb2 1_555 1_555
F4B Sb2 1_555 1_555
F4H Sb2 1_555 1_555
F5F Sb2 1_555 1_555
C20F Cl2 1_555 1_555
C3 C4 1_555 1_555
C12 C13 1_555 1_555
C18 C19 1_555 1_555
Cl3 C20F 1_555 1_555
Cl1L Au1L 1_555 1_555
Cl1M Au1M 1_555 1_555
Cl1N Au1N 1_555 1_555

#END
