
#######################################################################
#
#                 Cambridge Crystallographic Data Centre
#                                CCDC 
#
#######################################################################
#
# If this CIF has been generated from an entry in the Cambridge 
# Structural Database, then it will include bibliographic, chemical, 
# crystal, experimental, refinement or atomic coordinate data resulting 
# from the CCDC's data processing and validation procedures.
#
#######################################################################

data_IKOBIT
_symmetry_cell_setting           tetragonal
_symmetry_space_group_name_H-M   'I 4/m'
_symmetry_Int_Tables_number      87
_space_group_name_Hall           '-I 4'
loop_
_symmetry_equiv_pos_site_id
_symmetry_equiv_pos_as_xyz
1 x,y,z
2 -y,x,z
3 y,-x,z
4 1/2+x,1/2+y,1/2+z
5 1/2-y,1/2+x,1/2+z
6 1/2+y,1/2-x,1/2+z
7 x,y,-z
8 1/2+x,1/2+y,1/2-z
9 -x,-y,-z
10 y,-x,-z
11 -y,x,-z
12 1/2-x,1/2-y,1/2-z
13 1/2+y,1/2-x,1/2-z
14 1/2-y,1/2+x,1/2-z
15 -x,-y,z
16 1/2-x,1/2-y,1/2+z
_cell_length_a                   18.0180(5)
_cell_length_b                   18.0180(5)
_cell_length_c                   25.7020(13)
_cell_angle_alpha                90
_cell_angle_beta                 90
_cell_angle_gamma                90
_cell_volume                     8344.11
loop_
_atom_site_label
_atom_site_type_symbol
_atom_site_fract_x
_atom_site_fract_y
_atom_site_fract_z
Sb1 Sb 0.0000 0.0000 0.0000
F1 F 0.0147(7) 0.1019(6) 0.0000
F2 F 0.0000 0.0000 0.0699(6)
F1A F -0.1019(6) 0.0147(7) 0.0000
F1B F 0.1019(6) -0.0147(7) 0.0000
F1H F -0.0147(7) -0.1019(6) 0.0000
F2F F 0.0000 0.0000 -0.0699(6)
Sb2 Sb 0.0000 0.0000 0.3572(2)
F3 F 0.0985(14) 0.0015(11) 0.3527(13)
F4 F 0.0000 0.0000 0.303(4)
F5 F 0.0000 0.0000 0.410(4)
F3A F -0.0015(11) 0.0985(14) 0.3527(13)
F3B F 0.0015(11) -0.0985(14) 0.3527(13)
F3N F -0.0985(14) -0.0015(11) 0.3527(13)
C20 C 0.021(3) 0.253(4) 0.4508(13)
H15 H 0.0370 0.3001 0.4349
H16 H 0.0065 0.2168 0.4244
Cl1 Cl -0.0400(11) 0.2631(12) 0.5000
Cl2 Cl 0.085(2) 0.2175(16) 0.5000
C20F C 0.021(3) 0.253(4) 0.5492(13)
Ag1 Ag 0.5000 0.0000 0.2500
Au1 Au 0.40456(3) 0.06269(3) 0.348894(15)
Br1 Br 0.40325(8) -0.06350(7) 0.31757(5)
P1 P 0.39264(17) 0.18116(16) 0.37487(10)
C1 C 0.5654(7) 0.0761(7) 0.4737(5)
H1 H 0.6020 0.0492 0.4557
C2 C 0.5131(7) 0.1147(6) 0.4463(4)
H2 H 0.5148 0.1142 0.4097
C3 C 0.4558(6) 0.1555(6) 0.4716(3)
C4 C 0.4043(6) 0.1981(6) 0.4448(3)
C5 C 0.3614(6) 0.2523(6) 0.4709(4)
C6 C 0.3196(6) 0.3097(6) 0.4473(4)
H3 H 0.3185 0.3116 0.4107
C7 C 0.2813(7) 0.3619(7) 0.4736(4)
H4 H 0.2546 0.3983 0.4554
C8 C 0.4552(6) 0.2453(6) 0.3424(4)
C9 C 0.4831(7) 0.3085(7) 0.3689(4)
H5 H 0.4698 0.3183 0.4036
C10 C 0.5304(8) 0.3552(8) 0.3420(5)
H6 H 0.5514 0.3960 0.3594
C11 C 0.5474(7) 0.3435(8) 0.2906(6)
H7 H 0.5762 0.3783 0.2723
C12 C 0.5221(7) 0.2805(8) 0.2661(4)
H8 H 0.5368 0.2702 0.2318
C13 C 0.4759(6) 0.2331(7) 0.2915(4)
H9 H 0.4576 0.1911 0.2740
C14 C 0.2981(7) 0.2027(6) 0.3565(4)
C15 C 0.2432(8) 0.1589(8) 0.3749(6)
H10 H 0.2546 0.1205 0.3984
C16 C 0.1719(10) 0.1699(11) 0.3598(7)
H11 H 0.1345 0.1394 0.3738
C17 C 0.1526(11) 0.2236(11) 0.3250(7)
H12 H 0.1035 0.2276 0.3131
C18 C 0.2080(9) 0.2735(10) 0.3072(5)
H13 H 0.1961 0.3145 0.2862
C19 C 0.2815(8) 0.2587(8) 0.3221(4)
H14 H 0.3202 0.2878 0.3084
Au1L Au 0.56269(3) 0.09544(3) 0.151106(15)
Au1M Au 0.43731(3) -0.09544(3) 0.151106(15)
Au1N Au 0.59544(3) -0.06269(3) 0.348894(15)
Br1L Br 0.43650(7) 0.09675(8) 0.18243(5)
Br1M Br 0.56350(7) -0.09675(8) 0.18243(5)
Br1N Br 0.59675(8) 0.06350(7) 0.31757(5)
C1F C 0.5654(7) 0.0761(7) 0.5263(5)
C3F C 0.4558(6) 0.1555(6) 0.5284(3)
C5F C 0.3614(6) 0.2523(6) 0.5291(4)
C7F C 0.2813(7) 0.3619(7) 0.5264(4)
loop_
_geom_bond_atom_site_label_1
_geom_bond_atom_site_label_2
_geom_bond_site_symmetry_1
_geom_bond_site_symmetry_2
Ag1 Au1 1_555 1_555
Au1 Br1 1_555 1_555
Br1 Ag1 1_555 1_555
P1 Au1 1_555 1_555
C1 H1 1_555 1_555
C2 C1 1_555 1_555
H2 C2 1_555 1_555
C3 C2 1_555 1_555
C4 P1 1_555 1_555
C5 C4 1_555 1_555
C6 C5 1_555 1_555
H3 C6 1_555 1_555
C7 C6 1_555 1_555
H4 C7 1_555 1_555
C8 P1 1_555 1_555
C9 C8 1_555 1_555
H5 C9 1_555 1_555
C10 C9 1_555 1_555
H6 C10 1_555 1_555
C11 C10 1_555 1_555
H7 C11 1_555 1_555
C12 C11 1_555 1_555
H8 C12 1_555 1_555
C13 C8 1_555 1_555
H9 C13 1_555 1_555
C14 P1 1_555 1_555
C15 C14 1_555 1_555
H10 C15 1_555 1_555
C16 C15 1_555 1_555
H11 C16 1_555 1_555
C17 C16 1_555 1_555
H12 C17 1_555 1_555
C18 C17 1_555 1_555
H13 C18 1_555 1_555
C19 C14 1_555 1_555
H14 C19 1_555 1_555
Sb1 F1 1_555 1_555
F2 Sb1 1_555 1_555
Sb2 F3 1_555 1_555
F4 Sb2 1_555 1_555
F5 Sb2 1_555 1_555
C20 H15 1_555 1_555
H16 C20 1_555 1_555
Cl1 C20 1_555 1_555
Cl2 C20 1_555 1_555
Au1L Ag1 1_555 1_555
Au1M Ag1 1_555 1_555
Au1N Ag1 1_555 1_555
Br1L Ag1 1_555 1_555
Br1M Ag1 1_555 1_555
Br1N Ag1 1_555 1_555
C1F C1 1_555 1_555
C3F C3 1_555 1_555
C5F C5 1_555 1_555
C7F C7 1_555 1_555
F1A Sb1 1_555 1_555
F1B Sb1 1_555 1_555
F1H Sb1 1_555 1_555
F2F Sb1 1_555 1_555
F3A Sb2 1_555 1_555
F3B Sb2 1_555 1_555
F3N Sb2 1_555 1_555
C20F Cl1 1_555 1_555
C3 C4 1_555 1_555
C12 C13 1_555 1_555
C18 C19 1_555 1_555
Cl2 C20F 1_555 1_555
Au1L Br1L 1_555 1_555
Au1M Br1M 1_555 1_555
Au1N Br1N 1_555 1_555

#END
