
#######################################################################
#
#                 Cambridge Crystallographic Data Centre
#                                CCDC 
#
#######################################################################
#
# If this CIF has been generated from an entry in the Cambridge 
# Structural Database, then it will include bibliographic, chemical, 
# crystal, experimental, refinement or atomic coordinate data resulting 
# from the CCDC's data processing and validation procedures.
#
#######################################################################

data_IKOLUP
_symmetry_cell_setting           monoclinic
_symmetry_space_group_name_H-M   'P c'
_symmetry_Int_Tables_number      7
_space_group_name_Hall           'P -2yc'
loop_
_symmetry_equiv_pos_site_id
_symmetry_equiv_pos_as_xyz
1 x,y,z
2 x,-y,1/2+z
_cell_length_a                   11.027(2)
_cell_length_b                   6.1166(12)
_cell_length_c                   10.191(2)
_cell_angle_alpha                90
_cell_angle_beta                 112.88(3)
_cell_angle_gamma                90
_cell_volume                     633.279
loop_
_atom_site_label
_atom_site_type_symbol
_atom_site_fract_x
_atom_site_fract_y
_atom_site_fract_z
Sr1 Sr -0.00445(9) 0.44032(3) 0.13936(10)
O1 O 0.0944(6) 0.1043(11) 0.0572(7)
H1 H 0.0422 -0.0234 0.0413
H2 H 0.1721 0.0577 0.1303
O2 O 0.3398(5) 0.0998(11) 0.7532(7)
O3 O -0.1045(6) 0.0995(10) 0.2221(6)
H3 H -0.1786 0.0633 0.1530
H4 H -0.0489 -0.0160 0.2419
O4 O 0.6484(4) 0.1069(11) 0.5215(6)
O5 O 0.1090(5) 0.7692(11) 0.2990(6)
H5 H 0.1862 0.8342 0.2983
H6 H 0.1128 0.7730 0.3864
O6 O 0.1909(5) 0.2710(10) 0.3542(5)
O7 O -0.1141(5) 0.7748(10) -0.0213(6)
H7 H -0.1191 0.7676 -0.1100
H8 H -0.1928 0.8174 -0.0243
O8 O 0.1525(5) 0.4064(10) 0.5378(7)
O9 O 0.8377(5) 0.4096(12) 0.7379(7)
O10 O 0.8052(5) 0.2666(10) 0.9255(5)
C1 C 0.3748(5) 0.3292(12) 0.5745(8)
C2 C 0.4156(7) 0.2126(14) 0.7123(8)
N1 N 0.5407(5) 0.2252(11) 0.7829(6)
H9 H 0.5921 0.1540 0.8629
C3 C 0.6222(5) 0.3362(12) 0.7132(6)
C4 C 0.5785(6) 0.2075(12) 0.5655(8)
N2 N 0.4435(4) 0.2299(12) 0.4952(7)
H10 H 0.4010 0.1482 0.4201
C5 C 0.4245(7) 0.5710(11) 0.6061(8)
H11 H 0.3894 0.6670 0.5155
H12 H 0.3753 0.6464 0.6674
C6 C 0.5745(6) 0.5739(13) 0.6796(8)
H13 H 0.6038 0.6657 0.7625
H14 H 0.6189 0.6483 0.6226
C7 C 0.2262(7) 0.3356(12) 0.4817(9)
C8 C 0.7709(5) 0.3308(12) 0.8020(7)
O8A O 0.1525(5) 0.5936(10) 0.0378(7)
Sr1A Sr -0.00445(9) 0.55968(3) 0.63936(10)
O9A O -0.1623(5) 0.5904(12) 0.2379(7)
O10_2 O -0.1948(5) 0.2666(10) -0.0745(5)
Sr1A_2 Sr 0.99555(9) 0.55968(3) 0.63936(10)
Sr1_2 Sr 0.99555(9) 0.44032(3) 1.13936(10)
loop_
_geom_bond_atom_site_label_1
_geom_bond_atom_site_label_2
_geom_bond_site_symmetry_1
_geom_bond_site_symmetry_2
Sr1 O1 1_555 1_555
O1 H1 1_555 1_555
H2 O1 1_555 1_555
O2 C2 1_555 1_555
O3 Sr1 1_555 1_555
H3 O3 1_555 1_555
H4 O3 1_555 1_555
O4 C4 1_555 1_555
O5 Sr1 1_555 1_555
H5 O5 1_555 1_555
H6 O5 1_555 1_555
O6 Sr1 1_555 1_555
O7 Sr1 1_555 1_555
H7 O7 1_555 1_555
H8 O7 1_555 1_555
O8 C7 1_555 1_555
O9 C8 1_555 1_555
O10 C8 1_555 1_555
C1 C2 1_555 1_555
C2 N1 1_555 1_555
N1 H9 1_555 1_555
C3 N1 1_555 1_555
C4 C3 1_555 1_555
N2 C1 1_555 1_555
H10 N2 1_555 1_555
C5 C1 1_555 1_555
H11 C5 1_555 1_555
H12 C5 1_555 1_555
C6 C3 1_555 1_555
H13 C6 1_555 1_555
H14 C6 1_555 1_555
C7 O6 1_555 1_555
C8 C3 1_555 1_555
O8A Sr1 1_555 1_555
Sr1A O8 1_555 1_555
O9A Sr1 1_555 1_555
O10_2 Sr1 1_555 1_555
Sr1A_2 O9 1_555 1_555
Sr1_2 O10 1_555 1_555
C1 C7 1_555 1_555
C4 N2 1_555 1_555
C5 C6 1_555 1_555

#END
