
#######################################################################
#
#                 Cambridge Crystallographic Data Centre
#                                CCDC 
#
#######################################################################
#
# If this CIF has been generated from an entry in the Cambridge 
# Structural Database, then it will include bibliographic, chemical, 
# crystal, experimental, refinement or atomic coordinate data resulting 
# from the CCDC's data processing and validation procedures.
#
#######################################################################

data_IKOLOJ
_symmetry_cell_setting           monoclinic
_symmetry_space_group_name_H-M   'P 2/c'
_symmetry_Int_Tables_number      13
_space_group_name_Hall           '-P 2yc'
loop_
_symmetry_equiv_pos_site_id
_symmetry_equiv_pos_as_xyz
1 x,y,z
2 x,-y,1/2+z
3 -x,-y,-z
4 -x,y,1/2-z
_cell_length_a                   10.851(2)
_cell_length_b                   5.9870(12)
_cell_length_c                   9.980(2)
_cell_angle_alpha                90
_cell_angle_beta                 112.393(5)
_cell_angle_gamma                90
_cell_volume                     599.46
loop_
_atom_site_label
_atom_site_type_symbol
_atom_site_fract_x
_atom_site_fract_y
_atom_site_fract_z
Ca1 Ca 0.0000 -0.44158(9) 0.2500
O1 O -0.10344(15) -0.7666(2) 0.09658(16)
H1 H -0.177(3) -0.801(5) 0.098(3)
H2 H -0.108(3) -0.780(5) 0.019(4)
O2 O 0.09374(15) -0.1129(2) 0.16697(16)
H3 H 0.045(3) -0.006(6) 0.154(4)
H4 H 0.159(4) -0.067(6) 0.221(4)
O3 O -0.34304(14) -0.1045(3) -0.36956(16)
O4 O -0.18697(14) -0.2841(2) 0.04033(15)
O5 O -0.15380(14) -0.4174(2) -0.15437(16)
C1 C -0.37452(18) -0.3405(3) -0.18028(19)
N1 N -0.45027(16) -0.2326(3) -0.10315(18)
H5 H -0.412(3) -0.161(5) -0.026(3)
C2 C -0.41731(18) -0.2143(3) -0.3255(2)
C3 C -0.42356(19) -0.5852(3) -0.2134(2)
H6 H -0.378(3) -0.655(5) -0.270(3)
H7 H -0.397(3) -0.678(5) -0.125(3)
C4 C -0.22307(18) -0.3427(3) -0.0895(2)
O1C O 0.10344(15) -0.7666(2) 0.40342(16)
H1C H 0.177(3) -0.801(5) 0.402(3)
H2C H 0.108(3) -0.780(5) 0.481(4)
O2C O -0.09374(15) -0.1129(2) 0.33303(16)
H3C H -0.045(3) -0.006(6) 0.346(4)
H4C H -0.159(4) -0.067(6) 0.279(4)
O5A O -0.15380(14) -0.5826(2) 0.34563(16)
Ca1A Ca 0.0000 -0.55842(9) -0.2500
O5B O 0.15380(14) -0.5826(2) 0.15437(16)
O4C O 0.18697(14) -0.2841(2) 0.45967(15)
C2C C -0.58269(18) -0.2143(3) -0.1745(2)
N1C N -0.54973(16) -0.2326(3) -0.39685(18)
C3C C -0.57644(19) -0.5852(3) -0.2866(2)
C1C C -0.62548(18) -0.3405(3) -0.31972(19)
H6C H -0.622(3) -0.655(5) -0.230(3)
H7C H -0.603(3) -0.678(5) -0.375(3)
C4C C -0.77693(18) -0.3427(3) -0.4105(2)
O3C O -0.65696(14) -0.1045(3) -0.13044(16)
H5C H -0.588(3) -0.161(5) -0.474(3)
O4C_2 O -0.81303(14) -0.2841(2) -0.54033(15)
O5C O -0.84620(14) -0.4174(2) -0.34563(16)
Ca1_2 Ca -1.0000 -0.44158(9) -0.7500
Ca1A_2 Ca -1.0000 -0.55842(9) -0.2500
loop_
_geom_bond_atom_site_label_1
_geom_bond_atom_site_label_2
_geom_bond_site_symmetry_1
_geom_bond_site_symmetry_2
Ca1 O1 1_555 1_555
O1 H1 1_555 1_555
H2 O1 1_555 1_555
O2 Ca1 1_555 1_555
H3 O2 1_555 1_555
H4 O2 1_555 1_555
O3 C2 1_555 1_555
O4 Ca1 1_555 1_555
O5 C4 1_555 1_555
C1 N1 1_555 1_555
N1 H5 1_555 1_555
C2 C1 1_555 1_555
C3 C1 1_555 1_555
H6 C3 1_555 1_555
H7 C3 1_555 1_555
C4 O4 1_555 1_555
O1C Ca1 1_555 1_555
H1C O1C 1_555 1_555
H2C O1C 1_555 1_555
O2C Ca1 1_555 1_555
H3C O2C 1_555 1_555
H4C O2C 1_555 1_555
O5A Ca1 1_555 1_555
Ca1A O5 1_555 1_555
O5B Ca1 1_555 1_555
O4C Ca1 1_555 1_555
C2C N1 1_555 1_555
N1C C2 1_555 1_555
C3C C3 1_555 1_555
C1C C2C 1_555 1_555
H6C C3C 1_555 1_555
H7C C3C 1_555 1_555
C4C C1C 1_555 1_555
O3C C2C 1_555 1_555
H5C N1C 1_555 1_555
O4C_2 C4C 1_555 1_555
O5C C4C 1_555 1_555
Ca1_2 O4C_2 1_555 1_555
Ca1A_2 O5C 1_555 1_555
C1 C4 1_555 1_555
N1C C1C 1_555 1_555
C3C C1C 1_555 1_555

#END
