
#######################################################################
#
#                 Cambridge Crystallographic Data Centre
#                                CCDC 
#
#######################################################################
#
# If this CIF has been generated from an entry in the Cambridge 
# Structural Database, then it will include bibliographic, chemical, 
# crystal, experimental, refinement or atomic coordinate data resulting 
# from the CCDC's data processing and validation procedures.
#
#######################################################################

data_IKOMAW
_symmetry_cell_setting           triclinic
_symmetry_space_group_name_H-M   'P -1'
_symmetry_Int_Tables_number      2
_space_group_name_Hall           '-P 1'
loop_
_symmetry_equiv_pos_site_id
_symmetry_equiv_pos_as_xyz
1 x,y,z
2 -x,-y,-z
_cell_length_a                   5.8040(14)
_cell_length_b                   10.261(2)
_cell_length_c                   11.449(3)
_cell_angle_alpha                77.582(4)
_cell_angle_beta                 79.037(4)
_cell_angle_gamma                75.162(4)
_cell_volume                     637.061
loop_
_atom_site_label
_atom_site_type_symbol
_atom_site_fract_x
_atom_site_fract_y
_atom_site_fract_z
Co1 Co 0.5000 0.5000 0.5000
Co2 Co 0.5000 1.5000 0.0000
O1 O 0.3999(4) 1.1617(2) 0.40483(18)
O2 O 0.4594(4) 0.8457(2) 0.11018(19)
O3 O 0.3591(4) 0.7021(2) 0.43439(19)
O4 O 0.1438(4) 0.6894(2) 0.29559(18)
O5 O 0.4221(4) 1.3201(2) 0.10608(18)
O6 O 0.0827(4) 1.3935(2) 0.22600(19)
O7 O 0.4466(4) 0.4271(3) 0.35305(19)
H1 H 0.446(7) 0.351(4) 0.366(3)
H2 H 0.348(8) 0.469(4) 0.330(4)
O8 O 0.1717(4) 0.4813(3) 0.5952(2)
H3 H 0.094(7) 0.539(4) 0.638(3)
H4 H 0.114(8) 0.422(5) 0.605(4)
O9 O 0.1616(4) 1.6274(2) 0.0537(2)
H5 H 0.075(10) 1.580(6) 0.087(5)
H6 H 0.165(9) 1.676(5) 0.101(4)
O10 O 0.3475(4) 1.4379(3) -0.1256(2)
H7 H 0.346(7) 1.483(4) -0.181(4)
H8 H 0.399(7) 1.365(5) -0.129(3)
C1 C 0.2204(5) 0.9043(3) 0.3012(2)
N1 N 0.3186(4) 0.9646(2) 0.3797(2)
H9 H 0.372(7) 0.917(4) 0.439(3)
C2 C 0.3237(5) 1.0964(3) 0.3477(2)
C3 C 0.2187(5) 1.1551(3) 0.2284(2)
N2 N 0.3547(4) 1.0664(2) 0.1423(2)
H10 H 0.420(7) 1.101(4) 0.076(4)
C4 C 0.3601(5) 0.9329(3) 0.1733(2)
C5 C -0.0430(5) 0.9847(3) 0.2921(3)
H11 H -0.111(6) 0.954(3) 0.236(3)
H12 H -0.137(6) 0.966(3) 0.368(3)
C6 C -0.0447(5) 1.1387(3) 0.2545(3)
H13 H -0.130(6) 1.189(3) 0.313(3)
H14 H -0.119(6) 1.179(3) 0.181(3)
C7 C 0.2426(5) 0.7510(3) 0.3479(2)
C8 C 0.2421(5) 1.3034(3) 0.1825(2)
O5A O 0.5779(4) 1.6799(2) -0.10608(18)
C8A C 0.7579(5) 1.6966(3) -0.1825(2)
O6A O 0.9173(4) 1.6065(2) -0.22600(19)
C3A C 0.7813(5) 1.8449(3) -0.2284(2)
C2A C 0.6763(5) 1.9036(3) -0.3477(2)
O1A O 0.6001(4) 1.8383(2) -0.40483(18)
N1A N 0.6814(4) 2.0354(2) -0.3797(2)
C1A C 0.7796(5) 2.0957(3) -0.3012(2)
C4A C 0.6399(5) 2.0671(3) -0.1733(2)
O2A O 0.5406(4) 2.1543(2) -0.11018(19)
N2A N 0.6453(4) 1.9336(2) -0.1423(2)
C6A C 1.0447(5) 1.8613(3) -0.2545(3)
C5A C 1.0430(5) 2.0153(3) -0.2921(3)
C7A C 0.7574(5) 2.2490(3) -0.3479(2)
O3A O 0.6409(4) 2.2979(2) -0.43439(19)
Co1A Co 0.5000 2.5000 -0.5000
O4A O 0.8562(4) 2.3106(2) -0.29559(18)
H11A H 1.111(6) 2.046(3) -0.236(3)
H12A H 1.137(6) 2.034(3) -0.368(3)
H13A H 1.130(6) 1.811(3) -0.313(3)
H14A H 1.119(6) 1.821(3) -0.181(3)
H10A H 0.580(7) 1.899(4) -0.076(4)
H9A H 0.628(7) 2.083(4) -0.439(3)
O9A O 0.8384(4) 1.3726(2) -0.0537(2)
H5A H 0.925(10) 1.420(6) -0.087(5)
H6A H 0.835(9) 1.324(5) -0.101(4)
O10A O 0.6525(4) 1.5621(3) 0.1256(2)
H7A H 0.654(7) 1.517(4) 0.181(4)
H8A H 0.601(7) 1.635(5) 0.129(3)
O3A_2 O 0.6409(4) 0.2979(2) 0.56561(19)
O7A O 0.5534(4) 0.5729(3) 0.64695(19)
O8A O 0.8283(4) 0.5187(3) 0.4048(2)
H1A H 0.554(7) 0.649(4) 0.634(3)
H2A H 0.652(8) 0.531(4) 0.670(4)
H3A H 0.906(7) 0.461(4) 0.362(3)
H4A H 0.886(8) 0.578(5) 0.395(4)
loop_
_geom_bond_atom_site_label_1
_geom_bond_atom_site_label_2
_geom_bond_site_symmetry_1
_geom_bond_site_symmetry_2
Co1 O3 1_555 1_555
Co2 O5 1_555 1_555
O1 C2 1_555 1_555
O2 C4 1_555 1_555
O3 C7 1_555 1_555
O4 C7 1_555 1_555
O5 C8 1_555 1_555
O6 C8 1_555 1_555
O7 Co1 1_555 1_555
H1 O7 1_555 1_555
H2 O7 1_555 1_555
O8 Co1 1_555 1_555
H3 O8 1_555 1_555
H4 O8 1_555 1_555
O9 Co2 1_555 1_555
H5 O9 1_555 1_555
H6 O9 1_555 1_555
O10 Co2 1_555 1_555
H7 O10 1_555 1_555
H8 O10 1_555 1_555
C1 N1 1_555 1_555
N1 H9 1_555 1_555
C2 N1 1_555 1_555
C3 C2 1_555 1_555
N2 C3 1_555 1_555
H10 N2 1_555 1_555
C4 C1 1_555 1_555
C5 C1 1_555 1_555
H11 C5 1_555 1_555
H12 C5 1_555 1_555
C6 C3 1_555 1_555
H13 C6 1_555 1_555
H14 C6 1_555 1_555
C7 C1 1_555 1_555
C8 C3 1_555 1_555
O5A Co2 1_555 1_555
C8A O5A 1_555 1_555
O6A C8A 1_555 1_555
C3A C8A 1_555 1_555
C2A C3A 1_555 1_555
O1A C2A 1_555 1_555
N1A C2A 1_555 1_555
C1A N1A 1_555 1_555
C4A C1A 1_555 1_555
O2A C4A 1_555 1_555
N2A C3A 1_555 1_555
C6A C3A 1_555 1_555
C5A C1A 1_555 1_555
C7A C1A 1_555 1_555
O3A C7A 1_555 1_555
Co1A O3A 1_555 1_555
O4A C7A 1_555 1_555
H11A C5A 1_555 1_555
H12A C5A 1_555 1_555
H13A C6A 1_555 1_555
H14A C6A 1_555 1_555
H10A N2A 1_555 1_555
H9A N1A 1_555 1_555
O9A Co2 1_555 1_555
H5A O9A 1_555 1_555
H6A O9A 1_555 1_555
O10A Co2 1_555 1_555
H7A O10A 1_555 1_555
H8A O10A 1_555 1_555
O3A_2 Co1 1_555 1_555
O7A Co1 1_555 1_555
O8A Co1 1_555 1_555
H1A O7A 1_555 1_555
H2A O7A 1_555 1_555
H3A O8A 1_555 1_555
H4A O8A 1_555 1_555
N2 C4 1_555 1_555
C5 C6 1_555 1_555
C4A N2A 1_555 1_555
C6A C5A 1_555 1_555

#END
