
#######################################################################
#
#                 Cambridge Crystallographic Data Centre
#                                CCDC 
#
#######################################################################
#
# If this CIF has been generated from an entry in the Cambridge 
# Structural Database, then it will include bibliographic, chemical, 
# crystal, experimental, refinement or atomic coordinate data resulting 
# from the CCDC's data processing and validation procedures.
#
#######################################################################

data_IKOMIE
_symmetry_cell_setting           monoclinic
_symmetry_space_group_name_H-M   'C 2/c'
_symmetry_Int_Tables_number      15
_space_group_name_Hall           '-C 2yn'
loop_
_symmetry_equiv_pos_site_id
_symmetry_equiv_pos_as_xyz
1 x,y,z
2 1/2+x,1/2+y,z
3 x,-y,1/2+z
4 1/2+x,1/2-y,1/2+z
5 -x,-y,-z
6 1/2-x,1/2-y,-z
7 -x,y,1/2-z
8 1/2-x,1/2+y,1/2-z
_cell_length_a                   43.554(5)
_cell_length_b                   5.9568(7)
_cell_length_c                   10.3708(12)
_cell_angle_alpha                90
_cell_angle_beta                 99.047(3)
_cell_angle_gamma                90
_cell_volume                     2657.15
loop_
_atom_site_label
_atom_site_type_symbol
_atom_site_fract_x
_atom_site_fract_y
_atom_site_fract_z
Sr1 Sr 0.5000 0.44019(10) 0.2500
O1 O 0.52607(7) 0.7773(5) 0.3849(3)
H1 H 0.5426 0.8263 0.3684
H2 H 0.5305 0.7804 0.4826
O2 O 0.47720(9) 0.0995(5) 0.3601(3)
H3 H 0.4583(12) 0.071(8) 0.330(5)
H4 H 0.4891(14) -0.019(12) 0.365(6)
O3 O 0.58023(7) 0.9222(5) 0.2614(3)
O4 O 0.65263(7) 0.8740(6) -0.0639(3)
O5 O 0.53789(7) 0.5812(5) 0.1125(3)
O6 O 0.54420(7) 0.7256(5) -0.0818(3)
O7 O 0.70105(8) 0.6064(6) 0.1769(4)
O8 O 0.68657(7) 0.9593(6) 0.2178(3)
C1 C 0.58863(10) 0.6725(7) 0.0794(4)
C2 C 0.59825(10) 0.8179(7) 0.2013(4)
N1 N 0.62883(9) 0.8218(7) 0.2328(4)
H5 H 0.6376(10) 0.907(8) 0.288(4)
C3 C 0.64697(10) 0.7040(7) 0.1455(4)
C4 C 0.63532(10) 0.7940(7) 0.0073(4)
N2 N 0.60490(9) 0.7696(6) -0.0203(4)
H6 H 0.5938(10) 0.814(8) -0.085(5)
C5 C 0.60248(11) 0.4346(8) 0.1116(5)
H7 H 0.5961(10) 0.332(8) 0.035(5)
H8 H 0.5928(10) 0.374(8) 0.181(5)
C6 C 0.63830(11) 0.4516(8) 0.1449(5)
H9 H 0.6489(10) 0.387(7) 0.078(4)
H10 H 0.6449(13) 0.403(10) 0.215(6)
C7 C 0.55364(11) 0.6604(7) 0.0330(4)
C8 C 0.68139(11) 0.7464(8) 0.1826(4)
C9 C 0.71873(12) 1.0300(11) 0.2605(6)
H11 H 0.7320(13) 0.958(10) 0.203(6)
H12 H 0.7184(18) 1.189(15) 0.246(8)
C10 C 0.72728(15) 0.9891(16) 0.4022(6)
H13 H 0.7484(11) 1.042(8) 0.434(4)
H14 H 0.7290(13) 0.823(12) 0.426(6)
H15 H 0.7165(16) 1.069(13) 0.451(8)
O1F O 0.47393(7) 0.7773(5) 0.1151(3)
H1F H 0.4574 0.8263 0.1316
H2F H 0.4695 0.7804 0.0174
O2F O 0.52280(9) 0.0995(5) 0.1399(3)
H3F H 0.5417(12) 0.071(8) 0.170(5)
H4F H 0.5109(14) -0.019(12) 0.135(6)
O3F O 0.41977(7) 0.9222(5) 0.2386(3)
O4F O 0.34737(7) 0.8740(6) 0.5639(3)
O5F O 0.46211(7) 0.5812(5) 0.3875(3)
O6F O 0.45580(7) 0.7256(5) 0.5818(3)
O7F O 0.29895(8) 0.6064(6) 0.3231(4)
O8F O 0.31343(7) 0.9593(6) 0.2822(3)
C1F C 0.41137(10) 0.6725(7) 0.4206(4)
C2F C 0.40175(10) 0.8179(7) 0.2987(4)
N1F N 0.37117(9) 0.8218(7) 0.2672(4)
H5F H 0.3624(10) 0.907(8) 0.212(4)
C3F C 0.35303(10) 0.7040(7) 0.3545(4)
C4F C 0.36468(10) 0.7940(7) 0.4927(4)
N2F N 0.39510(9) 0.7696(6) 0.5203(4)
H6F H 0.4062(10) 0.814(8) 0.585(5)
C5F C 0.39752(11) 0.4346(8) 0.3884(5)
H7F H 0.4039(10) 0.332(8) 0.465(5)
H8F H 0.4072(10) 0.374(8) 0.319(5)
C6F C 0.36170(11) 0.4516(8) 0.3551(5)
H9F H 0.3511(10) 0.387(7) 0.422(4)
H10F H 0.3551(13) 0.403(10) 0.285(6)
C7F C 0.44636(11) 0.6604(7) 0.4670(4)
C8F C 0.31861(11) 0.7464(8) 0.3174(4)
C9F C 0.28127(12) 1.0300(11) 0.2395(6)
H11F H 0.2680(13) 0.958(10) 0.297(6)
H12F H 0.2816(18) 1.189(15) 0.254(8)
C10F C 0.27272(15) 0.9891(16) 0.0978(6)
H13F H 0.2516(11) 1.042(8) 0.066(4)
H14F H 0.2710(13) 0.823(12) 0.074(6)
H15F H 0.2835(16) 1.069(13) 0.049(8)
O6B O 0.54420(7) 0.2744(5) 0.4182(3)
O6D O 0.45580(7) 0.2744(5) 0.0818(3)
Sr1B Sr 0.5000 0.55981(10) -0.2500
Sr1B_2 Sr 0.5000 0.55981(10) 0.7500
loop_
_geom_bond_atom_site_label_1
_geom_bond_atom_site_label_2
_geom_bond_site_symmetry_1
_geom_bond_site_symmetry_2
Sr1 O1 1_555 1_555
O1 H1 1_555 1_555
H2 O1 1_555 1_555
O2 Sr1 1_555 1_555
H3 O2 1_555 1_555
H4 O2 1_555 1_555
O3 C2 1_555 1_555
O4 C4 1_555 1_555
O5 Sr1 1_555 1_555
O6 C7 1_555 1_555
O7 C8 1_555 1_555
O8 C8 1_555 1_555
C1 C2 1_555 1_555
C2 N1 1_555 1_555
N1 H5 1_555 1_555
C3 N1 1_555 1_555
C4 C3 1_555 1_555
N2 C1 1_555 1_555
H6 N2 1_555 1_555
C5 C1 1_555 1_555
H7 C5 1_555 1_555
H8 C5 1_555 1_555
C6 C3 1_555 1_555
H9 C6 1_555 1_555
H10 C6 1_555 1_555
C7 O5 1_555 1_555
C8 C3 1_555 1_555
C9 O8 1_555 1_555
H11 C9 1_555 1_555
H12 C9 1_555 1_555
C10 C9 1_555 1_555
H13 C10 1_555 1_555
H14 C10 1_555 1_555
H15 C10 1_555 1_555
O1F Sr1 1_555 1_555
H1F O1F 1_555 1_555
H2F O1F 1_555 1_555
O2F Sr1 1_555 1_555
H3F O2F 1_555 1_555
H4F O2F 1_555 1_555
O3F C2F 1_555 1_555
O4F C4F 1_555 1_555
O5F Sr1 1_555 1_555
O6F C7F 1_555 1_555
O7F C8F 1_555 1_555
O8F C8F 1_555 1_555
C1F C2F 1_555 1_555
C2F N1F 1_555 1_555
N1F H5F 1_555 1_555
C3F N1F 1_555 1_555
C4F C3F 1_555 1_555
N2F C1F 1_555 1_555
H6F N2F 1_555 1_555
C5F C1F 1_555 1_555
H7F C5F 1_555 1_555
H8F C5F 1_555 1_555
C6F C3F 1_555 1_555
H9F C6F 1_555 1_555
H10F C6F 1_555 1_555
C7F O5F 1_555 1_555
C8F C3F 1_555 1_555
C9F O8F 1_555 1_555
H11F C9F 1_555 1_555
H12F C9F 1_555 1_555
C10F C9F 1_555 1_555
H13F C10F 1_555 1_555
H14F C10F 1_555 1_555
H15F C10F 1_555 1_555
O6B Sr1 1_555 1_555
O6D Sr1 1_555 1_555
Sr1B O6 1_555 1_555
Sr1B_2 O6F 1_555 1_555
C1 C7 1_555 1_555
C4 N2 1_555 1_555
C5 C6 1_555 1_555
C1F C7F 1_555 1_555
C4F N2F 1_555 1_555
C5F C6F 1_555 1_555

#END
