
#######################################################################
#
#                 Cambridge Crystallographic Data Centre
#                                CCDC 
#
#######################################################################
#
# If this CIF has been generated from an entry in the Cambridge 
# Structural Database, then it will include bibliographic, chemical, 
# crystal, experimental, refinement or atomic coordinate data resulting 
# from the CCDC's data processing and validation procedures.
#
#######################################################################

data_IKOMEA
_symmetry_cell_setting           orthorhombic
_symmetry_space_group_name_H-M   'P c a 21'
_symmetry_Int_Tables_number      29
_space_group_name_Hall           'P 2c -2ac'
loop_
_symmetry_equiv_pos_site_id
_symmetry_equiv_pos_as_xyz
1 x,y,z
2 -x,-y,1/2+z
3 1/2+x,-y,z
4 1/2-x,y,1/2+z
_cell_length_a                   11.429(2)
_cell_length_b                   5.4932(11)
_cell_length_c                   20.021(4)
_cell_angle_alpha                90
_cell_angle_beta                 90
_cell_angle_gamma                90
_cell_volume                     1256.95
loop_
_atom_site_label
_atom_site_type_symbol
_atom_site_fract_x
_atom_site_fract_y
_atom_site_fract_z
K1 K 0.90097(5) 0.19744(11) 0.43126(3)
O1 O 1.1269(2) 0.5639(5) 0.27232(12)
O2 O 0.7377(2) 0.0603(5) 0.36362(15)
H1 H 0.6908 -0.0664 0.3773
H2 H 0.7092 0.1437 0.3412
C1 C 0.9346(3) 0.7550(6) 0.25989(14)
O3 O 0.7715(2) 0.5558(5) 0.11790(12)
O4 O 0.7113(2) 0.3409(5) 0.48805(13)
H3 H 0.7128 0.4186 0.5280
H4 H 0.6535 0.2394 0.5062
C2 C 1.0496(3) 0.6444(6) 0.23477(15)
O5 O 0.8685(2) 0.5234(5) 0.35327(11)
O6 O 1.0982(2) 0.3371(5) 0.39727(13)
H5 H 1.1328 0.4270 0.4286
H6 H 1.1066 0.4115 0.3633
N1 N 1.0554(2) 0.6537(5) 0.16853(14)
H7 H 1.1061 0.5721 0.1493
O7 O 0.9758(2) 0.8600(4) 0.37237(12)
O8 O 0.8425(3) -0.1221(5) 0.50918(16)
H8 H 0.8701 -0.2823 0.5249
H9 H 0.7777 -0.1391 0.5347
C3 C 0.9571(3) 0.7722(6) 0.13384(15)
O9 O 1.0456(2) 0.6044(5) 0.03584(12)
C4 C 0.8454(3) 0.6408(6) 0.15629(15)
O10 O 0.9165(2) 0.9034(5) 0.02356(12)
C5 C 0.9395(4) 1.0266(6) 0.23803(17)
H10 H 0.8796 1.1266 0.2597
H11 H 1.0189 1.1016 0.2560
C6 C 0.9470(4) 1.0344(7) 0.16081(18)
H12 H 1.0360 1.1295 0.1489
H13 H 0.8809 1.1157 0.1421
C7 C 0.9227(3) 0.7105(6) 0.33613(15)
C8 C 0.9745(3) 0.7568(6) 0.05801(15)
N2 N 0.8400(2) 0.6357(5) 0.22276(13)
H14 H 0.7814 0.5750 0.2442
O7_2 O 0.9758(2) -0.1400(4) 0.37237(12)
O9A O 0.9544(2) 0.3956(5) 0.53584(12)
O10A O 1.0835(2) 0.0966(5) 0.52356(12)
K1_2 K 0.90097(5) 1.19744(11) 0.43126(3)
K1A K 1.09903(5) 0.80256(11) -0.06874(3)
loop_
_geom_bond_atom_site_label_1
_geom_bond_atom_site_label_2
_geom_bond_site_symmetry_1
_geom_bond_site_symmetry_2
K1 O2 1_555 1_555
O1 C2 1_555 1_555
O2 H1 1_555 1_555
H2 O2 1_555 1_555
C1 C2 1_555 1_555
O3 C4 1_555 1_555
O4 K1 1_555 1_555
H3 O4 1_555 1_555
H4 O4 1_555 1_555
C2 N1 1_555 1_555
O5 K1 1_555 1_555
O6 K1 1_555 1_555
H5 O6 1_555 1_555
H6 O6 1_555 1_555
N1 H7 1_555 1_555
O7 C7 1_555 1_555
O8 K1 1_555 1_555
H8 O8 1_555 1_555
H9 O8 1_555 1_555
C3 N1 1_555 1_555
O9 C8 1_555 1_555
C4 C3 1_555 1_555
O10 C8 1_555 1_555
C5 C1 1_555 1_555
H10 C5 1_555 1_555
H11 C5 1_555 1_555
C6 C3 1_555 1_555
H12 C6 1_555 1_555
H13 C6 1_555 1_555
C7 C1 1_555 1_555
C8 C3 1_555 1_555
N2 C1 1_555 1_555
H14 N2 1_555 1_555
O7_2 K1 1_555 1_555
O9A K1 1_555 1_555
O10A K1 1_555 1_555
K1_2 O7 1_555 1_555
K1A O9 1_555 1_555
O5 C7 1_555 1_555
C4 N2 1_555 1_555
O10 K1A 1_555 1_555
C5 C6 1_555 1_555

#END
