
#######################################################################
#
#                 Cambridge Crystallographic Data Centre
#                                CCDC 
#
#######################################################################
#
# If this CIF has been generated from an entry in the Cambridge 
# Structural Database, then it will include bibliographic, chemical, 
# crystal, experimental, refinement or atomic coordinate data resulting 
# from the CCDC's data processing and validation procedures.
#
#######################################################################

data_IKOTAD
_symmetry_cell_setting           tetragonal
_symmetry_space_group_name_H-M   'P 42/n'
_symmetry_Int_Tables_number      86
_space_group_name_Hall           '-P 4bc'
loop_
_symmetry_equiv_pos_site_id
_symmetry_equiv_pos_as_xyz
1 x,y,z
2 -y,1/2+x,1/2+z
3 1/2+y,-x,1/2+z
4 1/2+x,1/2+y,-z
5 -x,-y,-z
6 y,1/2-x,1/2-z
7 1/2-y,x,1/2-z
8 1/2-x,1/2-y,z
_cell_length_a                   13.3320(10)
_cell_length_b                   13.3320(10)
_cell_length_c                   25.418(2)
_cell_angle_alpha                90
_cell_angle_beta                 90
_cell_angle_gamma                90
_cell_volume                     4517.85
loop_
_atom_site_label
_atom_site_type_symbol
_atom_site_fract_x
_atom_site_fract_y
_atom_site_fract_z
C1 C 0.2500 0.7500 0.3643(3)
C2 C 0.1583(5) 0.7257(4) 0.3309(2)
H1 H 0.0962 0.7037 0.3556
H2 H 0.1362 0.7902 0.3080
C3 C 0.1112(14) 0.6038(13) 0.2680(6)
C5 C 0.1528(5) 0.5245(5) 0.2309(2)
C6 C 0.2461(5) 0.4794(5) 0.2365(2)
H3 H 0.2992 0.5069 0.2652
C7 C 0.2698(4) 0.3988(5) 0.2047(2)
H4 H 0.3428 0.3647 0.2091
N1 N 0.2069(3) 0.3606(4) 0.16877(18)
C8 C 0.1169(4) 0.4042(5) 0.1635(2)
H5 H 0.0652 0.3742 0.1349
C9 C 0.0872(5) 0.4859(5) 0.1932(2)
H6 H 0.0143 0.5194 0.1873
C10 C 0.2271(4) 0.8420(4) 0.3989(2)
H7 H 0.2937 0.8637 0.4202
H8 H 0.2048 0.9043 0.3743
C11 C 0.0602(5) 0.8666(5) 0.4311(2)
C12 C -0.0091(4) 0.8409(5) 0.4750(2)
C13 C -0.1059(5) 0.8790(5) 0.4737(3)
H9 H -0.1295 0.9281 0.4423
C14 C -0.1718(5) 0.8528(5) 0.5137(2)
H10 H -0.2468 0.8834 0.5131
C15 C -0.0509(4) 0.7553(5) 0.5536(2)
H11 H -0.0285 0.7061 0.5853
C16 C 0.0185(5) 0.7790(5) 0.5158(2)
H12 H 0.0938 0.7495 0.5180
O1 O 0.1876(3) 0.6431(3) 0.29642(15)
O2 O 0.0277(15) 0.6286(18) 0.2691(10)
O4 O 0.1473(3) 0.8184(3) 0.43564(15)
O5 O 0.0402(4) 0.9227(4) 0.3952(2)
N2 N -0.1460(4) 0.7905(4) 0.55321(18)
Cl1 Cl 0.08255(11) 0.18064(12) 0.11367(7)
Ni1 Ni 0.2500 0.2500 0.11259(4)
C2G C 0.3417(5) 0.7743(4) 0.3309(2)
H1G H 0.4038 0.7963 0.3556
H2G H 0.3638 0.7098 0.3080
O1G O 0.3124(3) 0.8569(3) 0.29642(15)
C3G C 0.3888(14) 0.8962(13) 0.2680(6)
C5G C 0.3472(5) 0.9755(5) 0.2309(2)
C6G C 0.2539(5) 1.0206(5) 0.2365(2)
H3G H 0.2008 0.9931 0.2652
C7G C 0.2302(4) 1.1012(5) 0.2047(2)
H4G H 0.1572 1.1353 0.2091
N1G N 0.2931(3) 1.1394(4) 0.16877(18)
C8G C 0.3831(4) 1.0958(5) 0.1635(2)
H5G H 0.4348 1.1258 0.1349
C9G C 0.4128(5) 1.0141(5) 0.1932(2)
H6G H 0.4857 0.9806 0.1873
O2G O 0.4723(15) 0.8714(18) 0.2691(10)
C10G C 0.2729(4) 0.6580(4) 0.3989(2)
H7G H 0.2063 0.6363 0.4202
H8G H 0.2952 0.5957 0.3743
O4G O 0.3527(3) 0.6816(3) 0.43564(15)
C11G C 0.4398(5) 0.6334(5) 0.4311(2)
C12G C 0.5091(4) 0.6591(5) 0.4750(2)
C13G C 0.6059(5) 0.6210(5) 0.4737(3)
H9G H 0.6295 0.5719 0.4423
C14G C 0.6718(5) 0.6472(5) 0.5137(2)
H10G H 0.7468 0.6166 0.5131
N2G N 0.6460(4) 0.7095(4) 0.55321(18)
C15G C 0.5509(4) 0.7447(5) 0.5536(2)
H11G H 0.5285 0.7939 0.5853
C16G C 0.4815(5) 0.7210(5) 0.5158(2)
H12G H 0.4062 0.7505 0.5180
O5G O 0.4598(4) 0.5773(4) 0.3952(2)
C1G C 0.2500 -0.2500 0.3643(3)
C2G_2 C 0.3417(5) -0.2257(4) 0.3309(2)
H1G_2 H 0.4038 -0.2037 0.3556
H2G_2 H 0.3638 -0.2902 0.3080
C3G_2 C 0.3888(14) -0.1038(13) 0.2680(6)
C5G_2 C 0.3472(5) -0.0245(5) 0.2309(2)
C6G_2 C 0.2539(5) 0.0206(5) 0.2365(2)
H3G_2 H 0.2008 -0.0069 0.2652
C7G_2 C 0.2302(4) 0.1012(5) 0.2047(2)
H4G_2 H 0.1572 0.1353 0.2091
N1G_2 N 0.2931(3) 0.1394(4) 0.16877(18)
C8G_2 C 0.3831(4) 0.0958(5) 0.1635(2)
H5G_2 H 0.4348 0.1258 0.1349
C9G_2 C 0.4128(5) 0.0141(5) 0.1932(2)
H6G_2 H 0.4857 -0.0194 0.1873
C10G_2 C 0.2729(4) -0.3420(4) 0.3989(2)
H7G_2 H 0.2063 -0.3637 0.4202
H8G_2 H 0.2952 -0.4043 0.3743
C11G_2 C 0.4398(5) -0.3666(5) 0.4311(2)
C12G_2 C 0.5091(4) -0.3409(5) 0.4750(2)
C13G_2 C 0.6059(5) -0.3790(5) 0.4737(3)
H9G_2 H 0.6295 -0.4281 0.4423
C14G_2 C 0.6718(5) -0.3528(5) 0.5137(2)
H10G_2 H 0.7468 -0.3834 0.5131
C15G_2 C 0.5509(4) -0.2553(5) 0.5536(2)
H11G_2 H 0.5285 -0.2061 0.5853
C16G_2 C 0.4815(5) -0.2790(5) 0.5158(2)
H12G_2 H 0.4062 -0.2495 0.5180
O1G_2 O 0.3124(3) -0.1431(3) 0.29642(15)
O2G_2 O 0.4723(15) -0.1286(18) 0.2691(10)
O4G_2 O 0.3527(3) -0.3184(3) 0.43564(15)
O5G_2 O 0.4598(4) -0.4227(4) 0.3952(2)
N2G_2 N 0.6460(4) -0.2905(4) 0.55321(18)
C2_2 C 0.1583(5) -0.2743(4) 0.3309(2)
H1_2 H 0.0962 -0.2963 0.3556
H2_2 H 0.1362 -0.2098 0.3080
O1_2 O 0.1876(3) -0.3569(3) 0.29642(15)
C3_2 C 0.1112(14) -0.3962(13) 0.2680(6)
C5_2 C 0.1528(5) -0.4755(5) 0.2309(2)
C6_2 C 0.2461(5) -0.5206(5) 0.2365(2)
H3_2 H 0.2992 -0.4931 0.2652
C7_2 C 0.2698(4) -0.6012(5) 0.2047(2)
H4_2 H 0.3428 -0.6353 0.2091
N1_2 N 0.2069(3) -0.6394(4) 0.16877(18)
C8_2 C 0.1169(4) -0.5958(5) 0.1635(2)
H5_2 H 0.0652 -0.6258 0.1349
C9_2 C 0.0872(5) -0.5141(5) 0.1932(2)
H6_2 H 0.0143 -0.4806 0.1873
O2_2 O 0.0277(15) -0.3714(18) 0.2691(10)
C10_2 C 0.2271(4) -0.1580(4) 0.3989(2)
H7_2 H 0.2937 -0.1363 0.4202
H8_2 H 0.2048 -0.0957 0.3743
O4_2 O 0.1473(3) -0.1816(3) 0.43564(15)
C11_2 C 0.0602(5) -0.1334(5) 0.4311(2)
C12_2 C -0.0091(4) -0.1591(5) 0.4750(2)
C13_2 C -0.1059(5) -0.1210(5) 0.4737(3)
H9_2 H -0.1295 -0.0719 0.4423
C14_2 C -0.1718(5) -0.1472(5) 0.5137(2)
H10_2 H -0.2468 -0.1166 0.5131
N2_2 N -0.1460(4) -0.2095(4) 0.55321(18)
C15_2 C -0.0509(4) -0.2447(5) 0.5536(2)
H11_2 H -0.0285 -0.2939 0.5853
C16_2 C 0.0185(5) -0.2210(5) 0.5158(2)
H12_2 H 0.0938 -0.2505 0.5180
O5_2 O 0.0402(4) -0.0773(4) 0.3952(2)
Cl1G Cl 0.41745(11) 0.31936(12) 0.11367(7)
Ni1G Ni 0.2500 1.2500 0.11259(4)
Cl1G_2 Cl 0.41745(11) 1.31936(12) 0.11367(7)
Cl1_2 Cl 0.08255(11) 1.18064(12) 0.11367(7)
Ni1A Ni -0.2500 0.7500 0.61259(4)
N2A N 0.2095(4) 0.3540(4) 0.05321(18)
N2B N 0.2905(4) 0.1460(4) 0.05321(18)
Ni1A_2 Ni 0.7500 0.7500 0.61259(4)
Ni1A_3 Ni 0.7500 -0.2500 0.61259(4)
Ni1_2 Ni 0.2500 -0.7500 0.11259(4)
Ni1A_4 Ni -0.2500 -0.2500 0.61259(4)
N1_3 N 0.2069(3) 1.3606(4) 0.16877(18)
N2A_2 N 0.2095(4) 1.3540(4) 0.05321(18)
N2B_2 N 0.2905(4) 1.1460(4) 0.05321(18)
C17 C -0.2500 0.7500 0.2500
C18 C -0.1580(14) 0.7395(14) 0.2842(7)
H13 H -0.1494 0.8041 0.3094
H14 H -0.0914 0.7316 0.2604
O6 O -0.1760(8) 0.6454(8) 0.3167(4)
C19 C -0.1285(11) 0.6414(11) 0.3633(6)
O7 O -0.0738(10) 0.6992(10) 0.3793(5)
C20 C -0.1551(12) 0.5515(12) 0.3905(6)
C21 C -0.2145(13) 0.4759(14) 0.3713(8)
H15 H -0.2428 0.4801 0.3316
C22 C -0.2381(17) 0.3951(17) 0.4022(9)
H16 H -0.2819 0.3346 0.3858
N3 N -0.2078(18) 0.3896(17) 0.4529(8)
C23 C -0.1458(19) 0.4555(18) 0.4707(9)
H17 H -0.1139 0.4451 0.5094
C24 C -0.1190(16) 0.5394(16) 0.4417(7)
H18 H -0.0702 0.5953 0.4586
C18E C -0.2605(14) 0.6580(14) 0.2158(7)
H13E H -0.1959 0.6494 0.1906
H14E H -0.2684 0.5914 0.2396
O6E O -0.3546(8) 0.6760(8) 0.1833(4)
C19E C -0.3586(11) 0.6285(11) 0.1367(6)
O7E O -0.3008(10) 0.5738(10) 0.1207(5)
C20E C -0.4485(12) 0.6551(12) 0.1095(6)
C21E C -0.5241(14) 0.7145(13) 0.1287(8)
H15E H -0.5199 0.7428 0.1684
C22E C -0.6049(17) 0.7381(17) 0.0978(9)
H16E H -0.6654 0.7819 0.1142
N3E N -0.6104(17) 0.7078(18) 0.0471(8)
C23E C -0.5445(18) 0.6458(19) 0.0293(9)
H17E H -0.5549 0.6139 -0.0094
C24E C -0.4606(16) 0.6190(16) 0.0583(7)
H18E H -0.4047 0.5702 0.0414
C18F C -0.2395(14) 0.8420(14) 0.2158(7)
H13F H -0.3041 0.8506 0.1906
H14F H -0.2316 0.9086 0.2396
O6F O -0.1454(8) 0.8240(8) 0.1833(4)
C19F C -0.1414(11) 0.8715(11) 0.1367(6)
O7F O -0.1992(10) 0.9262(10) 0.1207(5)
C20F C -0.0515(12) 0.8449(12) 0.1095(6)
C21F C 0.0241(14) 0.7855(13) 0.1287(8)
H15F H 0.0199 0.7572 0.1684
C22F C 0.1049(17) 0.7619(17) 0.0978(9)
H16F H 0.1654 0.7181 0.1142
N3F N 0.1104(17) 0.7922(18) 0.0471(8)
C23F C 0.0445(18) 0.8542(19) 0.0293(9)
H17F H 0.0549 0.8861 -0.0094
C24F C -0.0394(16) 0.8810(16) 0.0583(7)
H18F H -0.0953 0.9298 0.0414
C18G C -0.3420(14) 0.7605(14) 0.2842(7)
H13G H -0.3506 0.6959 0.3094
H14G H -0.4086 0.7684 0.2604
O6G O -0.3240(8) 0.8546(8) 0.3167(4)
C19G C -0.3715(11) 0.8586(11) 0.3633(6)
O7G O -0.4262(10) 0.8008(10) 0.3793(5)
C20G C -0.3449(12) 0.9485(12) 0.3905(6)
C21G C -0.2855(13) 1.0241(14) 0.3713(8)
H15G H -0.2572 1.0199 0.3316
C22G C -0.2619(17) 1.1049(17) 0.4022(9)
H16G H -0.2181 1.1654 0.3858
N3G N -0.2922(18) 1.1104(17) 0.4529(8)
C23G C -0.3542(19) 1.0445(18) 0.4707(9)
H17G H -0.3861 1.0549 0.5094
C24G C -0.3810(16) 0.9606(16) 0.4417(7)
H18G H -0.4298 0.9047 0.4586
O12 O 0.025(2) 0.857(2) 0.2304(13)
C4? C 0.1274(14) 0.6196(13) 0.2566(6)
O3? O 0.0556(17) 0.6675(16) 0.2489(10)
O8? O -0.1087(12) 0.4890(12) 0.5072(7)
O9? O -0.2296(18) 0.3618(16) 0.4357(10)
O10? O 0.123(6) 0.810(6) 0.165(3)
O11? O -0.270(2) 0.514(2) 0.3554(13)
loop_
_geom_bond_atom_site_label_1
_geom_bond_atom_site_label_2
_geom_bond_site_symmetry_1
_geom_bond_site_symmetry_2
C1 C2 1_555 1_555
C2 H1 1_555 1_555
H2 C2 1_555 1_555
C3 C5 1_555 1_555
C5 C6 1_555 1_555
C6 H3 1_555 1_555
C7 C6 1_555 1_555
H4 C7 1_555 1_555
N1 C7 1_555 1_555
C8 N1 1_555 1_555
H5 C8 1_555 1_555
C9 C5 1_555 1_555
H6 C9 1_555 1_555
C10 C1 1_555 1_555
H7 C10 1_555 1_555
H8 C10 1_555 1_555
C11 C12 1_555 1_555
C12 C13 1_555 1_555
C13 H9 1_555 1_555
C14 C13 1_555 1_555
H10 C14 1_555 1_555
C15 H11 1_555 1_555
C16 C12 1_555 1_555
H12 C16 1_555 1_555
O1 C2 1_555 1_555
O2 C3 1_555 1_555
O4 C10 1_555 1_555
O5 C11 1_555 1_555
N2 C14 1_555 1_555
Cl1 Ni1 1_555 1_555
Ni1 N1 1_555 1_555
C17 C18 1_555 1_555
C18 H13 1_555 1_555
H14 C18 1_555 1_555
O6 C18 1_555 1_555
C19 O6 1_555 1_555
O7 C19 1_555 1_555
C20 C19 1_555 1_555
C21 C20 1_555 1_555
H15 C21 1_555 1_555
C22 C21 1_555 1_555
H16 C22 1_555 1_555
N3 C22 1_555 1_555
C23 N3 1_555 1_555
H17 C23 1_555 1_555
C24 C20 1_555 1_555
H18 C24 1_555 1_555
C2G C1 1_555 1_555
H1G C2G 1_555 1_555
H2G C2G 1_555 1_555
O1G C2G 1_555 1_555
C3G O1G 1_555 1_555
C5G C3G 1_555 1_555
C6G C5G 1_555 1_555
H3G C6G 1_555 1_555
C7G C6G 1_555 1_555
H4G C7G 1_555 1_555
N1G C7G 1_555 1_555
C8G N1G 1_555 1_555
H5G C8G 1_555 1_555
C9G C5G 1_555 1_555
H6G C9G 1_555 1_555
O2G C3G 1_555 1_555
C10G C1 1_555 1_555
H7G C10G 1_555 1_555
H8G C10G 1_555 1_555
O4G C10G 1_555 1_555
C11G O4G 1_555 1_555
C12G C11G 1_555 1_555
C13G C12G 1_555 1_555
H9G C13G 1_555 1_555
C14G C13G 1_555 1_555
H10G C14G 1_555 1_555
N2G C14G 1_555 1_555
C15G N2G 1_555 1_555
H11G C15G 1_555 1_555
C16G C12G 1_555 1_555
H12G C16G 1_555 1_555
O5G C11G 1_555 1_555
C18E C17 1_555 1_555
H13E C18E 1_555 1_555
H14E C18E 1_555 1_555
O6E C18E 1_555 1_555
C19E O6E 1_555 1_555
O7E C19E 1_555 1_555
C20E C19E 1_555 1_555
C21E C20E 1_555 1_555
H15E C21E 1_555 1_555
C22E C21E 1_555 1_555
H16E C22E 1_555 1_555
N3E C22E 1_555 1_555
C23E N3E 1_555 1_555
H17E C23E 1_555 1_555
C24E C20E 1_555 1_555
H18E C24E 1_555 1_555
C18F C17 1_555 1_555
H13F C18F 1_555 1_555
H14F C18F 1_555 1_555
O6F C18F 1_555 1_555
C19F O6F 1_555 1_555
O7F C19F 1_555 1_555
C20F C19F 1_555 1_555
C21F C20F 1_555 1_555
H15F C21F 1_555 1_555
C22F C21F 1_555 1_555
H16F C22F 1_555 1_555
N3F C22F 1_555 1_555
C23F N3F 1_555 1_555
H17F C23F 1_555 1_555
C24F C20F 1_555 1_555
H18F C24F 1_555 1_555
C18G C17 1_555 1_555
H13G C18G 1_555 1_555
H14G C18G 1_555 1_555
O6G C18G 1_555 1_555
C19G O6G 1_555 1_555
O7G C19G 1_555 1_555
C20G C19G 1_555 1_555
C21G C20G 1_555 1_555
H15G C21G 1_555 1_555
C22G C21G 1_555 1_555
H16G C22G 1_555 1_555
N3G C22G 1_555 1_555
C23G N3G 1_555 1_555
H17G C23G 1_555 1_555
C24G C20G 1_555 1_555
H18G C24G 1_555 1_555
C1G C2G_2 1_555 1_555
C2G_2 H1G_2 1_555 1_555
H2G_2 C2G_2 1_555 1_555
C3G_2 C5G_2 1_555 1_555
C5G_2 C6G_2 1_555 1_555
C6G_2 H3G_2 1_555 1_555
C7G_2 C6G_2 1_555 1_555
H4G_2 C7G_2 1_555 1_555
N1G_2 Ni1 1_555 1_555
C8G_2 N1G_2 1_555 1_555
H5G_2 C8G_2 1_555 1_555
C9G_2 C5G_2 1_555 1_555
H6G_2 C9G_2 1_555 1_555
C10G_2 C1G 1_555 1_555
H7G_2 C10G_2 1_555 1_555
H8G_2 C10G_2 1_555 1_555
C11G_2 C12G_2 1_555 1_555
C12G_2 C13G_2 1_555 1_555
C13G_2 H9G_2 1_555 1_555
C14G_2 C13G_2 1_555 1_555
H10G_2 C14G_2 1_555 1_555
C15G_2 H11G_2 1_555 1_555
C16G_2 C12G_2 1_555 1_555
H12G_2 C16G_2 1_555 1_555
O1G_2 C2G_2 1_555 1_555
O2G_2 C3G_2 1_555 1_555
O4G_2 C10G_2 1_555 1_555
O5G_2 C11G_2 1_555 1_555
N2G_2 C14G_2 1_555 1_555
C2_2 C1G 1_555 1_555
H1_2 C2_2 1_555 1_555
H2_2 C2_2 1_555 1_555
O1_2 C2_2 1_555 1_555
C3_2 O1_2 1_555 1_555
C5_2 C3_2 1_555 1_555
C6_2 C5_2 1_555 1_555
H3_2 C6_2 1_555 1_555
C7_2 C6_2 1_555 1_555
H4_2 C7_2 1_555 1_555
N1_2 C7_2 1_555 1_555
C8_2 N1_2 1_555 1_555
H5_2 C8_2 1_555 1_555
C9_2 C5_2 1_555 1_555
H6_2 C9_2 1_555 1_555
O2_2 C3_2 1_555 1_555
C10_2 C1G 1_555 1_555
H7_2 C10_2 1_555 1_555
H8_2 C10_2 1_555 1_555
O4_2 C10_2 1_555 1_555
C11_2 O4_2 1_555 1_555
C12_2 C11_2 1_555 1_555
C13_2 C12_2 1_555 1_555
H9_2 C13_2 1_555 1_555
C14_2 C13_2 1_555 1_555
H10_2 C14_2 1_555 1_555
N2_2 C14_2 1_555 1_555
C15_2 N2_2 1_555 1_555
H11_2 C15_2 1_555 1_555
C16_2 C12_2 1_555 1_555
H12_2 C16_2 1_555 1_555
O5_2 C11_2 1_555 1_555
Cl1G Ni1 1_555 1_555
Ni1G N1G 1_555 1_555
Cl1G_2 Ni1G 1_555 1_555
Cl1_2 Ni1G 1_555 1_555
Ni1A N2 1_555 1_555
N2A Ni1 1_555 1_555
N2B Ni1 1_555 1_555
Ni1A_2 N2G 1_555 1_555
Ni1A_3 N2G_2 1_555 1_555
Ni1_2 N1_2 1_555 1_555
Ni1A_4 N2_2 1_555 1_555
N1_3 Ni1G 1_555 1_555
N2A_2 Ni1G 1_555 1_555
N2B_2 Ni1G 1_555 1_555
C3 O1 1_555 1_555
C8 C9 1_555 1_555
C11 O4 1_555 1_555
C15 N2 1_555 1_555
C15 C16 1_555 1_555
C23 C24 1_555 1_555
C8G C9G 1_555 1_555
C15G C16G 1_555 1_555
C23E C24E 1_555 1_555
C23F C24F 1_555 1_555
C23G C24G 1_555 1_555
C3G_2 O1G_2 1_555 1_555
C7G_2 N1G_2 1_555 1_555
C8G_2 C9G_2 1_555 1_555
C11G_2 O4G_2 1_555 1_555
C15G_2 N2G_2 1_555 1_555
C15G_2 C16G_2 1_555 1_555
C8_2 C9_2 1_555 1_555
C15_2 C16_2 1_555 1_555

#END
