
#######################################################################
#
#                 Cambridge Crystallographic Data Centre
#                                CCDC 
#
#######################################################################
#
# If this CIF has been generated from an entry in the Cambridge 
# Structural Database, then it will include bibliographic, chemical, 
# crystal, experimental, refinement or atomic coordinate data resulting 
# from the CCDC's data processing and validation procedures.
#
#######################################################################

data_IKOXEL
_symmetry_cell_setting           monoclinic
_symmetry_space_group_name_H-M   'P 21/n'
_symmetry_Int_Tables_number      14
_space_group_name_Hall           '-P 2yn'
loop_
_symmetry_equiv_pos_site_id
_symmetry_equiv_pos_as_xyz
1 x,y,z
2 1/2+x,1/2-y,1/2+z
3 -x,-y,-z
4 1/2-x,1/2+y,1/2-z
_cell_length_a                   10.5410(11)
_cell_length_b                   21.859(2)
_cell_length_c                   10.9825(11)
_cell_angle_alpha                90
_cell_angle_beta                 100.434(2)
_cell_angle_gamma                90
_cell_volume                     2488.7
loop_
_atom_site_label
_atom_site_type_symbol
_atom_site_fract_x
_atom_site_fract_y
_atom_site_fract_z
Ag1 Ag 0.604548(19) 0.202368(10) 0.96664(2)
Ag2 Ag 0.48381(2) 0.059398(11) 1.05538(2)
F1 F 0.1738(2) 0.23693(10) 0.9512(2)
F2 F 0.1873(2) 0.22808(11) 1.1460(2)
F3 F 0.3304(2) 0.27939(10) 1.0721(2)
F4 F 0.7701(2) 0.05661(10) 0.6924(3)
F5 F 0.6902(3) 0.14163(11) 0.7289(4)
F6 F 0.5775(3) 0.0800(2) 0.6049(3)
O1 O 0.4532(2) 0.17296(12) 1.1022(2)
O2 O 0.2746(3) 0.12628(13) 1.0113(4)
O3 O 0.56577(19) 0.08996(10) 0.8875(2)
O4 O 0.6026(2) -0.00278(10) 0.8119(2)
N1 N 0.7695(2) 0.23051(11) 1.1086(2)
N2 N 0.9554(2) 0.26872(11) 1.3055(2)
C1 C 0.7925(3) 0.29073(13) 1.1306(3)
C2 C 0.8843(3) 0.30914(13) 1.2299(3)
H1 H 0.8976 0.3516 1.2452
C3 C 0.7184(3) 0.33703(12) 1.0464(3)
C4 C 0.7616(3) 0.35272(15) 0.9368(3)
C5 C 0.8750(3) 0.3202(2) 0.9008(3)
H2 H 0.8975 0.3398 0.8273
H3 H 0.8526 0.2773 0.8824
H4 H 0.9488 0.3224 0.9692
C6 C 0.6977(3) 0.39940(16) 0.8633(3)
H5 H 0.7261 0.4108 0.7892
C7 C 0.5939(3) 0.42908(15) 0.8971(3)
H6 H 0.5517 0.4609 0.8463
C8 C 0.5508(3) 0.41271(14) 1.0049(3)
H7 H 0.4784 0.4331 1.0263
C9 C 0.6125(3) 0.36660(13) 1.0825(3)
C10 C 0.5687(3) 0.34933(16) 1.2010(3)
H8 H 0.4870 0.3699 1.2050
H9 H 0.6341 0.3619 1.2717
H10 H 0.5565 0.3049 1.2033
C11 C 0.8385(3) 0.18977(13) 1.1850(3)
C12 C 0.9323(3) 0.20952(14) 1.2827(3)
H11 H 0.9814 0.1800 1.3347
C13 C 0.8131(3) 0.12292(13) 1.1637(3)
C14 C 0.8646(3) 0.09168(15) 1.0724(3)
C15 C 0.9420(3) 0.12466(18) 0.9911(4)
H12 H 0.9517 0.0985 0.9209
H13 H 1.0273 0.1346 1.0388
H14 H 0.8975 0.1625 0.9603
C16 C 0.8432(3) 0.02885(16) 1.0586(4)
H15 H 0.8760 0.0072 0.9960
C17 C 0.7752(4) -0.00192(16) 1.1346(4)
H16 H 0.7630 -0.0448 1.1252
C18 C 0.7241(3) 0.02870(15) 1.2249(4)
H17 H 0.6765 0.0067 1.2761
C19 C 0.7419(3) 0.09203(14) 1.2416(3)
C20 C 0.6880(3) 0.12429(17) 1.3409(3)
H18 H 0.6281 0.0971 1.3733
H19 H 0.6421 0.1612 1.3065
H20 H 0.7586 0.1358 1.4080
C21 C 0.3369(3) 0.17053(15) 1.0566(3)
C22 C 0.2578(3) 0.22960(15) 1.0564(3)
C23 C 0.6054(3) 0.05351(14) 0.8149(3)
C24 C 0.6637(4) 0.08337(18) 0.7107(4)
N2A N 0.4554(2) 0.23128(11) 0.8055(2)
Ag2B Ag 0.51619(2) -0.059398(11) 0.94462(2)
O4B O 0.3974(2) 0.00278(10) 1.1881(2)
Ag1A Ag 1.104548(19) 0.297632(10) 1.46664(2)
loop_
_geom_bond_atom_site_label_1
_geom_bond_atom_site_label_2
_geom_bond_site_symmetry_1
_geom_bond_site_symmetry_2
Ag1 O1 1_555 1_555
Ag2 O1 1_555 1_555
F1 C22 1_555 1_555
F2 C22 1_555 1_555
F3 C22 1_555 1_555
F4 C24 1_555 1_555
F5 C24 1_555 1_555
F6 C24 1_555 1_555
O1 C21 1_555 1_555
O2 Ag2 1_555 1_555
O3 Ag1 1_555 1_555
O4 C23 1_555 1_555
N1 Ag1 1_555 1_555
N2 C2 1_555 1_555
C1 N1 1_555 1_555
C2 C1 1_555 1_555
H1 C2 1_555 1_555
C3 C1 1_555 1_555
C4 C3 1_555 1_555
C5 C4 1_555 1_555
H2 C5 1_555 1_555
H3 C5 1_555 1_555
H4 C5 1_555 1_555
C6 C4 1_555 1_555
H5 C6 1_555 1_555
C7 C6 1_555 1_555
H6 C7 1_555 1_555
C8 C7 1_555 1_555
H7 C8 1_555 1_555
C9 C3 1_555 1_555
C10 C9 1_555 1_555
H8 C10 1_555 1_555
H9 C10 1_555 1_555
H10 C10 1_555 1_555
C11 N1 1_555 1_555
C12 N2 1_555 1_555
H11 C12 1_555 1_555
C13 C11 1_555 1_555
C14 C13 1_555 1_555
C15 C14 1_555 1_555
H12 C15 1_555 1_555
H13 C15 1_555 1_555
H14 C15 1_555 1_555
C16 C14 1_555 1_555
H15 C16 1_555 1_555
C17 C16 1_555 1_555
H16 C17 1_555 1_555
C18 C17 1_555 1_555
H17 C18 1_555 1_555
C19 C13 1_555 1_555
C20 C19 1_555 1_555
H18 C20 1_555 1_555
H19 C20 1_555 1_555
H20 C20 1_555 1_555
C21 O2 1_555 1_555
C22 C21 1_555 1_555
C23 O3 1_555 1_555
C24 C23 1_555 1_555
N2A Ag1 1_555 1_555
Ag2B Ag2 1_555 1_555
O4B Ag2 1_555 1_555
Ag1A N2 1_555 1_555
Ag2 O3 1_555 1_555
O4 Ag2B 1_555 1_555
C8 C9 1_555 1_555
C11 C12 1_555 1_555
C18 C19 1_555 1_555

#END
