
#######################################################################
#
#                 Cambridge Crystallographic Data Centre
#                                CCDC 
#
#######################################################################
#
# If this CIF has been generated from an entry in the Cambridge 
# Structural Database, then it will include bibliographic, chemical, 
# crystal, experimental, refinement or atomic coordinate data resulting 
# from the CCDC's data processing and validation procedures.
#
#######################################################################

data_IKOXUB
_symmetry_cell_setting           triclinic
_symmetry_space_group_name_H-M   'P -1'
_symmetry_Int_Tables_number      2
_space_group_name_Hall           '-P 1'
loop_
_symmetry_equiv_pos_site_id
_symmetry_equiv_pos_as_xyz
1 x,y,z
2 -x,-y,-z
_cell_length_a                   9.708
_cell_length_b                   10.6039(2)
_cell_length_c                   19.6897(3)
_cell_angle_alpha                82.8210(10)
_cell_angle_beta                 83.6570(10)
_cell_angle_gamma                64.3720(10)
_cell_volume                     1809.57
loop_
_atom_site_label
_atom_site_type_symbol
_atom_site_fract_x
_atom_site_fract_y
_atom_site_fract_z
Gd1 Gd -0.717090(12) 0.089520(11) 0.244500(6)
Fe1 Fe -0.27197(4) -0.45785(4) 0.226820(18)
O1 O -0.6811(2) 0.2835(2) 0.18151(10)
H1 H -0.7367 0.3267 0.1489
H2 H -0.6379 0.3361 0.1849
O2 O -0.7446(3) -0.0131(2) 0.35461(11)
H3 H -0.7557 -0.0877 0.3615
H4 H -0.7199 0.0021 0.3918
O3 O -0.7164(2) 0.0742(2) 0.12333(10)
H5 H -0.7647 0.1451 0.0978
H6 H -0.7487 0.0161 0.1148
O4 O -0.8621(2) -0.03801(19) 0.23305(10)
H7 H -0.9145 -0.0145 0.1984
H8 H -0.8307 -0.1248 0.2344
N1 N -0.5262(3) -0.1562(2) 0.23045(12)
N2 N -0.3320(4) -0.4951(3) 0.38365(14)
N3 N -0.0392(3) -0.3417(3) 0.24418(16)
N4 N 0.0171(2) -0.7371(2) 0.22744(12)
N5 N -0.1994(3) -0.4246(3) 0.07096(13)
N6 N -0.5021(3) -0.5803(2) 0.20978(13)
N7 N -0.4769(2) 0.0883(2) 0.28409(11)
N8 N -0.7570(3) 0.2598(2) 0.33473(12)
C1 C -0.4355(3) -0.2704(3) 0.22842(13)
C2 C -0.3076(3) -0.4821(3) 0.32552(15)
C3 C -0.1280(3) -0.3820(3) 0.23829(15)
C4 C -0.0965(3) -0.6371(3) 0.22649(13)
C5 C -0.2316(3) -0.4347(3) 0.12834(14)
C6 C -0.4152(3) -0.5368(3) 0.21533(13)
C7 C -0.3390(3) 0.0024(3) 0.25822(15)
H21 H -0.3340 -0.0596 0.2261
C8 C -0.2037(3) -0.0006(3) 0.27589(17)
H22 H -0.1081 -0.0638 0.2566
C9 C -0.2100(4) 0.0890(4) 0.32163(19)
H23 H -0.1187 0.0896 0.3344
C10 C -0.3501(4) 0.1782(3) 0.34886(17)
H24 H -0.3565 0.2410 0.3808
C11 C -0.4830(3) 0.1762(3) 0.32944(14)
C12 C -0.6368(3) 0.2699(3) 0.35722(14)
C13 C -0.6562(4) 0.3626(4) 0.40548(18)
H25 H -0.5698 0.3686 0.4206
C14 C -0.8005(5) 0.4451(4) 0.43107(18)
H26 H -0.8152 0.5092 0.4638
C15 C -0.9240(4) 0.4339(3) 0.40879(16)
H27 H -1.0252 0.4896 0.4260
C16 C -0.8974(3) 0.3401(3) 0.36098(15)
H28 H -0.9826 0.3319 0.3459
N4_2 N -0.9829(2) 0.2629(2) 0.22744(12)
Gd1_2 Gd 0.282910(12) -0.910480(11) 0.244500(6)
O5 O -0.8621(2) 0.3472(2) 0.06720(10)
H9 H -0.8321 0.3616 0.0262
H10 H -0.9505 0.4106 0.0655
O6 O -0.7729(2) -0.3196(2) 0.25829(12)
H11 H -0.7015 -0.3885 0.2412
H12 H -0.8425 -0.3443 0.2530
O7 O -0.5782(6) -0.3949(6) 0.4848(3)
H13 H -0.5623 -0.4603 0.4602
H14 H -0.5719 -0.4101 0.5278
O8 O -0.7800(8) -0.2399(6) 0.3869(3)
H15 H -0.7190 -0.2848 0.4174
H16 H -0.7331 -0.2968 0.3569
N9 N 0.2417(3) -0.1502(2) 0.08763(12)
N10 N -0.0446(3) 0.0442(3) 0.11701(14)
C17 C 0.3837(3) -0.2502(3) 0.08087(14)
H29 H 0.4662 -0.2274 0.0863
C18 C 0.4178(3) -0.3851(3) 0.06645(15)
H30 H 0.5210 -0.4528 0.0610
C19 C 0.2984(4) -0.4186(3) 0.06022(16)
H31 H 0.3177 -0.5106 0.0506
C20 C 0.1496(3) -0.3173(3) 0.06799(16)
H32 H 0.0656 -0.3391 0.0645
C21 C 0.1252(3) -0.1829(3) 0.08098(14)
C22 C -0.0316(3) -0.0675(3) 0.08741(14)
C23 C -0.1566(4) -0.0755(4) 0.06322(18)
H33 H -0.1448 -0.1570 0.0433
C24 C -0.2980(4) 0.0368(4) 0.06857(18)
H34 H -0.3854 0.0331 0.0531
C25 C -0.3112(3) 0.1543(4) 0.09658(16)
H35 H -0.4068 0.2343 0.0994
C26 C -0.1824(3) 0.1533(3) 0.12045(17)
H36 H -0.1919 0.2341 0.1403
N11 N -0.6942(4) 0.0396(3) 0.48283(14)
C27 C -0.8364(5) 0.1121(4) 0.50799(19)
H37 H -0.9179 0.1079 0.4871
C28 C -0.8729(5) 0.1934(4) 0.56279(18)
H38 H -0.9758 0.2408 0.5802
C29 C -0.7551(5) 0.2032(4) 0.59112(17)
H39 H -0.7762 0.2615 0.6274
C30 C -0.6070(5) 0.1285(4) 0.56675(17)
H40 H -0.5245 0.1340 0.5861
C31 C -0.5791(4) 0.0441(3) 0.51308(15)
C31A C -0.4209(4) -0.0441(3) 0.48692(15)
N11A N -0.3058(4) -0.0396(3) 0.51717(14)
C27A C -0.1636(5) -0.1121(4) 0.49201(19)
H37A H -0.0821 -0.1079 0.5129
C28A C -0.1271(5) -0.1934(4) 0.43721(18)
H38A H -0.0242 -0.2408 0.4198
C29A C -0.2449(5) -0.2032(4) 0.40888(17)
H39A H -0.2238 -0.2615 0.3726
C30A C -0.3930(5) -0.1285(4) 0.43325(17)
H40A H -0.4755 -0.1340 0.4139
O9? O -0.7999(12) -0.2551(10) 0.5209(5)
H17? H -0.7531 -0.3227 0.5485
H18? H -0.7196 -0.2624 0.4971
O10? O -0.6776(7) -0.2965(5) 0.3804(3)
H19? H -0.7132 -0.2884 0.4218
H20? H -0.7248 -0.3100 0.3504
loop_
_geom_bond_atom_site_label_1
_geom_bond_atom_site_label_2
_geom_bond_site_symmetry_1
_geom_bond_site_symmetry_2
Gd1 O1 1_555 1_555
Fe1 C1 1_555 1_555
O1 H1 1_555 1_555
H2 O1 1_555 1_555
O2 Gd1 1_555 1_555
H3 O2 1_555 1_555
H4 O2 1_555 1_555
O3 Gd1 1_555 1_555
H5 O3 1_555 1_555
H6 O3 1_555 1_555
O4 Gd1 1_555 1_555
H7 O4 1_555 1_555
H8 O4 1_555 1_555
O5 H9 1_555 1_555
H10 O5 1_555 1_555
O6 H11 1_555 1_555
H12 O6 1_555 1_555
O7 H13 1_555 1_555
H14 O7 1_555 1_555
O8 H15 1_555 1_555
H16 O8 1_555 1_555
N1 Gd1 1_555 1_555
N2 C2 1_555 1_555
N3 C3 1_555 1_555
N4 C4 1_555 1_555
N5 C5 1_555 1_555
N6 C6 1_555 1_555
N7 Gd1 1_555 1_555
N8 Gd1 1_555 1_555
N9 C17 1_555 1_555
N10 C22 1_555 1_555
N11 C27 1_555 1_555
C1 N1 1_555 1_555
C2 Fe1 1_555 1_555
C3 Fe1 1_555 1_555
C4 Fe1 1_555 1_555
C5 Fe1 1_555 1_555
C6 Fe1 1_555 1_555
C7 N7 1_555 1_555
H21 C7 1_555 1_555
C8 C7 1_555 1_555
H22 C8 1_555 1_555
C9 C8 1_555 1_555
H23 C9 1_555 1_555
C10 C9 1_555 1_555
H24 C10 1_555 1_555
C11 N7 1_555 1_555
C12 N8 1_555 1_555
C13 C12 1_555 1_555
H25 C13 1_555 1_555
C14 C13 1_555 1_555
H26 C14 1_555 1_555
C15 C14 1_555 1_555
H27 C15 1_555 1_555
C16 N8 1_555 1_555
H28 C16 1_555 1_555
C17 H29 1_555 1_555
C18 C17 1_555 1_555
H30 C18 1_555 1_555
C19 C18 1_555 1_555
H31 C19 1_555 1_555
C20 C19 1_555 1_555
H32 C20 1_555 1_555
C21 N9 1_555 1_555
C22 C21 1_555 1_555
C23 C22 1_555 1_555
H33 C23 1_555 1_555
C24 C23 1_555 1_555
H34 C24 1_555 1_555
C25 C24 1_555 1_555
H35 C25 1_555 1_555
C26 N10 1_555 1_555
H36 C26 1_555 1_555
C27 H37 1_555 1_555
C28 C27 1_555 1_555
H38 C28 1_555 1_555
C29 C28 1_555 1_555
H39 C29 1_555 1_555
C30 C29 1_555 1_555
H40 C30 1_555 1_555
C31 N11 1_555 1_555
C31A C31 1_555 1_555
N11A C31A 1_555 1_555
C27A N11A 1_555 1_555
H37A C27A 1_555 1_555
C28A C27A 1_555 1_555
H38A C28A 1_555 1_555
C29A C28A 1_555 1_555
H39A C29A 1_555 1_555
C30A C31A 1_555 1_555
H40A C30A 1_555 1_555
N4_2 Gd1 1_555 1_555
Gd1_2 N4 1_555 1_555
C10 C11 1_555 1_555
C11 C12 1_555 1_555
C15 C16 1_555 1_555
C20 C21 1_555 1_555
C25 C26 1_555 1_555
C30 C31 1_555 1_555
C29A C30A 1_555 1_555

#END
