
#######################################################################
#
#                 Cambridge Crystallographic Data Centre
#                                CCDC 
#
#######################################################################
#
# If this CIF has been generated from an entry in the Cambridge 
# Structural Database, then it will include bibliographic, chemical, 
# crystal, experimental, refinement or atomic coordinate data resulting 
# from the CCDC's data processing and validation procedures.
#
#######################################################################

data_IKOXIP
_symmetry_cell_setting           monoclinic
_symmetry_space_group_name_H-M   'P 21/c'
_symmetry_Int_Tables_number      14
_space_group_name_Hall           '-P 2ybc'
loop_
_symmetry_equiv_pos_site_id
_symmetry_equiv_pos_as_xyz
1 x,y,z
2 x,1/2-y,1/2+z
3 -x,-y,-z
4 -x,1/2+y,1/2-z
_cell_length_a                   11.7717(6)
_cell_length_b                   24.9539(12)
_cell_length_c                   12.8210(6)
_cell_angle_alpha                90
_cell_angle_beta                 110.828(2)
_cell_angle_gamma                90
_cell_volume                     3520.06
loop_
_atom_site_label
_atom_site_type_symbol
_atom_site_fract_x
_atom_site_fract_y
_atom_site_fract_z
Ag1 Ag -0.206440(18) 0.321850(7) 0.341330(16)
Ag2 Ag -0.285360(18) 0.435860(8) 0.306100(17)
Ag3 Ag -0.55393(2) 0.466130(9) 0.062810(18)
F1 F -0.69220(19) 0.37095(9) 0.1089(2)
F2 F -0.6251(2) 0.30342(13) 0.0543(2)
F3 F -0.6581(2) 0.29942(18) 0.2057(3)
F4 F 0.18067(16) 0.41770(8) 0.37757(17)
F5 F 0.10214(17) 0.48317(7) 0.26832(17)
F6 F 0.09246(18) 0.40347(8) 0.20198(17)
F7 F -0.35913(19) 0.58185(9) 0.36783(16)
F8 F -0.19107(18) 0.57310(12) 0.3433(2)
F9 F -0.3034(3) 0.64113(8) 0.27838(19)
O1 O -0.46056(18) 0.39507(8) 0.19865(17)
O2 O -0.41604(19) 0.31081(8) 0.26190(19)
O3 O -0.10582(18) 0.45943(8) 0.29234(19)
O4 O -0.04779(19) 0.37351(7) 0.32730(18)
O5 O -0.40494(17) 0.51201(7) 0.19803(17)
O6 O -0.36680(18) 0.57991(8) 0.09860(17)
N1 N -0.16661(19) 0.28888(8) 0.51921(17)
N2 N -0.1804(2) 0.23463(9) 0.70339(18)
C1 C -0.1082(2) 0.24205(10) 0.5514(2)
C2 C -0.1163(2) 0.21532(10) 0.6449(2)
H1 H -0.0746 0.1823 0.6671
C3 C -0.2349(2) 0.28209(10) 0.6720(2)
H2 H -0.2792 0.2973 0.7138
C4 C -0.2287(2) 0.30971(10) 0.5800(2)
C5 C -0.0372(2) 0.21896(10) 0.4877(2)
C6 C 0.0341(2) 0.25234(10) 0.4474(2)
H3 H 0.0364 0.2899 0.4606
C7 C 0.1013(2) 0.23031(10) 0.3879(2)
C8 C 0.0988(2) 0.17512(11) 0.3721(2)
H4 H 0.1455 0.1600 0.3324
C9 C 0.0300(2) 0.14138(10) 0.4126(2)
C10 C -0.0388(2) 0.16382(10) 0.4701(2)
H5 H -0.0871 0.1414 0.4975
C11 C 0.1786(3) 0.26560(12) 0.3440(3)
H6 H 0.1717 0.3029 0.3649
H7 H 0.1505 0.2627 0.2625
H8 H 0.2636 0.2541 0.3761
C12 C 0.0318(3) 0.08149(11) 0.3977(3)
H9 H 0.0529 0.0639 0.4705
H10 H 0.0923 0.0723 0.3644
H11 H -0.0486 0.0694 0.3486
C13 C -0.2891(2) 0.36228(10) 0.5428(2)
C14 C -0.2168(2) 0.40709(10) 0.5427(2)
C15 C -0.2746(2) 0.45564(10) 0.5005(2)
H12 H -0.2271 0.4864 0.5000
C16 C -0.4008(3) 0.45931(10) 0.4592(2)
H13 H -0.4390 0.4922 0.4287
C17 C -0.4712(2) 0.41509(11) 0.4625(2)
H14 H -0.5572 0.4182 0.4360
C18 C -0.4168(2) 0.36602(10) 0.5042(2)
C19 C -0.0794(2) 0.40475(11) 0.5893(2)
H15 H -0.0466 0.4409 0.6105
H16 H -0.0498 0.3904 0.5325
H17 H -0.0527 0.3814 0.6552
C20 C -0.4964(3) 0.31837(11) 0.5021(3)
H18 H -0.4796 0.2897 0.4574
H19 H -0.5820 0.3289 0.4690
H20 H -0.4794 0.3056 0.5784
C21 C -0.4840(2) 0.34681(11) 0.2096(2)
C22 C -0.6177(3) 0.33005(12) 0.1464(3)
C23 C -0.0361(2) 0.42101(10) 0.3043(2)
C24 C 0.0856(2) 0.43187(10) 0.2875(2)
C25 C -0.3658(2) 0.55745(10) 0.1850(2)
C26 C -0.3046(3) 0.58901(11) 0.2943(3)
Ag3B Ag -0.44607(2) 0.533870(9) -0.062810(18)
O6B O -0.63320(18) 0.42009(8) -0.09860(17)
N2A N -0.1804(2) 0.26537(9) 0.20339(18)
Ag1A Ag -0.206440(18) 0.178150(7) 0.841330(16)
C27 C -0.6425(3) 0.62011(12) 0.0832(3)
C28 C -0.6961(3) 0.58788(12) -0.0097(3)
H21 H -0.7009 0.6005 -0.0811
C29 C -0.7428(3) 0.53770(12) -0.0009(3)
H22 H -0.7799 0.5165 -0.0656
C30 C -0.7349(3) 0.51873(13) 0.1038(3)
H23 H -0.7658 0.4843 0.1109
C31 C -0.6812(3) 0.55054(14) 0.1979(3)
H24 H -0.6757 0.5378 0.2694
C32 C -0.6360(3) 0.60057(13) 0.1872(3)
H25 H -0.5999 0.6220 0.2518
C33 C -0.5914(3) 0.67443(13) 0.0728(3)
H26 H -0.6154 0.7004 0.1185
H27 H -0.6231 0.6859 -0.0054
H28 H -0.5026 0.6723 0.0986
loop_
_geom_bond_atom_site_label_1
_geom_bond_atom_site_label_2
_geom_bond_site_symmetry_1
_geom_bond_site_symmetry_2
Ag1 Ag2 1_555 1_555
Ag2 O1 1_555 1_555
Ag3 O1 1_555 1_555
F1 C22 1_555 1_555
F2 C22 1_555 1_555
F3 C22 1_555 1_555
F4 C24 1_555 1_555
F5 C24 1_555 1_555
F6 C24 1_555 1_555
F7 C26 1_555 1_555
F8 C26 1_555 1_555
F9 C26 1_555 1_555
O1 C21 1_555 1_555
O2 Ag1 1_555 1_555
O3 Ag2 1_555 1_555
O4 Ag1 1_555 1_555
O5 Ag2 1_555 1_555
O6 C25 1_555 1_555
N1 Ag1 1_555 1_555
N2 C2 1_555 1_555
C1 N1 1_555 1_555
C2 C1 1_555 1_555
H1 C2 1_555 1_555
C3 N2 1_555 1_555
H2 C3 1_555 1_555
C4 N1 1_555 1_555
C5 C1 1_555 1_555
C6 C5 1_555 1_555
H3 C6 1_555 1_555
C7 C6 1_555 1_555
C8 C7 1_555 1_555
H4 C8 1_555 1_555
C9 C8 1_555 1_555
C10 C5 1_555 1_555
H5 C10 1_555 1_555
C11 C7 1_555 1_555
H6 C11 1_555 1_555
H7 C11 1_555 1_555
H8 C11 1_555 1_555
C12 C9 1_555 1_555
H9 C12 1_555 1_555
H10 C12 1_555 1_555
H11 C12 1_555 1_555
C13 C4 1_555 1_555
C14 C13 1_555 1_555
C15 C14 1_555 1_555
H12 C15 1_555 1_555
C16 C15 1_555 1_555
H13 C16 1_555 1_555
C17 C16 1_555 1_555
H14 C17 1_555 1_555
C18 C13 1_555 1_555
C19 C14 1_555 1_555
H15 C19 1_555 1_555
H16 C19 1_555 1_555
H17 C19 1_555 1_555
C20 C18 1_555 1_555
H18 C20 1_555 1_555
H19 C20 1_555 1_555
H20 C20 1_555 1_555
C21 O2 1_555 1_555
C22 C21 1_555 1_555
C23 O3 1_555 1_555
C24 C23 1_555 1_555
C25 O5 1_555 1_555
C26 C25 1_555 1_555
C27 C28 1_555 1_555
C28 H21 1_555 1_555
C29 C28 1_555 1_555
H22 C29 1_555 1_555
C30 C29 1_555 1_555
H23 C30 1_555 1_555
C31 C30 1_555 1_555
H24 C31 1_555 1_555
C32 C27 1_555 1_555
H25 C32 1_555 1_555
C33 C27 1_555 1_555
H26 C33 1_555 1_555
H27 C33 1_555 1_555
H28 C33 1_555 1_555
Ag3B Ag3 1_555 1_555
O6B Ag3 1_555 1_555
N2A Ag1 1_555 1_555
Ag1A N2 1_555 1_555
Ag3 O5 1_555 1_555
O4 C23 1_555 1_555
O6 Ag3B 1_555 1_555
C3 C4 1_555 1_555
C9 C10 1_555 1_555
C17 C18 1_555 1_555
C31 C32 1_555 1_555

#END
