
#######################################################################
#
#                 Cambridge Crystallographic Data Centre
#                                CCDC 
#
#######################################################################
#
# If this CIF has been generated from an entry in the Cambridge 
# Structural Database, then it will include bibliographic, chemical, 
# crystal, experimental, refinement or atomic coordinate data resulting 
# from the CCDC's data processing and validation procedures.
#
#######################################################################

data_IKOYEM
_symmetry_cell_setting           triclinic
_symmetry_space_group_name_H-M   'P -1'
_symmetry_Int_Tables_number      2
_space_group_name_Hall           '-P 1'
loop_
_symmetry_equiv_pos_site_id
_symmetry_equiv_pos_as_xyz
1 x,y,z
2 -x,-y,-z
_cell_length_a                   9.7061(3)
_cell_length_b                   10.6014(3)
_cell_length_c                   19.7520(5)
_cell_angle_alpha                82.98
_cell_angle_beta                 83.7840(10)
_cell_angle_gamma                64.2720(10)
_cell_volume                     1813.76
loop_
_atom_site_label
_atom_site_type_symbol
_atom_site_fract_x
_atom_site_fract_y
_atom_site_fract_z
Gd1 Gd -0.715170(12) 0.089750(10) 0.243950(5)
Co1 Co -0.27012(4) -0.45756(3) 0.226410(16)
O1 O -0.6807(2) 0.28648(19) 0.18225(10)
H1 H -0.7363 0.3296 0.1496
H2 H -0.6375 0.3391 0.1857
O2 O -0.7407(3) -0.0156(2) 0.35360(10)
H3 H -0.7518 -0.0902 0.3605
H4 H -0.7160 -0.0004 0.3908
O3 O -0.7149(2) 0.07592(19) 0.12287(9)
H5 H -0.7633 0.1468 0.0973
H6 H -0.7472 0.0178 0.1144
O4 O -0.8593(2) -0.03848(19) 0.23190(9)
H7 H -0.9118 -0.0150 0.1972
H8 H -0.8279 -0.1252 0.2332
N1 N -0.5220(3) -0.1579(2) 0.22931(12)
N2 N -0.3292(3) -0.4946(3) 0.38086(14)
N3 N -0.0402(3) -0.3423(3) 0.24386(15)
N4 N 0.0155(2) -0.7354(2) 0.22769(12)
N5 N -0.1997(3) -0.4240(3) 0.07263(13)
N6 N -0.4978(3) -0.5788(2) 0.20998(12)
N7 N -0.4741(2) 0.0875(2) 0.28363(11)
N8 N -0.7560(3) 0.2594(2) 0.33459(11)
C1 C -0.4308(3) -0.2724(3) 0.22717(13)
C2 C -0.3045(3) -0.4820(3) 0.32280(14)
C3 C -0.1288(3) -0.3830(3) 0.23772(14)
C4 C -0.0980(3) -0.6352(3) 0.22699(13)
C5 C -0.2317(3) -0.4340(3) 0.13036(14)
C6 C -0.4105(3) -0.5350(2) 0.21550(12)
C7 C -0.3355(3) 0.0014(3) 0.25776(15)
H21 H -0.3305 -0.0603 0.2256
C8 C -0.1991(3) -0.0025(3) 0.27545(17)
H22 H -0.1034 -0.0662 0.2564
C9 C -0.2058(4) 0.0882(4) 0.32130(18)
H23 H -0.1146 0.0894 0.3338
C10 C -0.3472(4) 0.1777(3) 0.34886(17)
H24 H -0.3538 0.2400 0.3811
C11 C -0.4807(3) 0.1761(3) 0.32904(14)
C12 C -0.6348(3) 0.2694(3) 0.35708(13)
C13 C -0.6539(4) 0.3616(4) 0.40552(18)
H25 H -0.5674 0.3675 0.4206
C14 C -0.7995(5) 0.4445(4) 0.43148(18)
H26 H -0.8142 0.5085 0.4642
C15 C -0.9235(4) 0.4332(3) 0.40928(15)
H27 H -1.0247 0.4886 0.4266
C16 C -0.8963(3) 0.3391(3) 0.36113(14)
H28 H -0.9815 0.3306 0.3462
N4_2 N -0.9845(2) 0.2646(2) 0.22769(12)
Gd1_2 Gd 0.284830(12) -0.910250(10) 0.243950(5)
O5 O -0.8615(2) 0.3493(2) 0.06592(10)
H9 H -0.8315 0.3637 0.0249
H10 H -0.9499 0.4127 0.0642
O6 O -0.7727(2) -0.3203(2) 0.25757(12)
H11 H -0.7012 -0.3892 0.2405
H12 H -0.8423 -0.3450 0.2523
O9 O -0.7914(11) -0.2613(9) 0.5206(4)
H17 H -0.7446 -0.3290 0.5483
H18 H -0.7110 -0.2687 0.4969
O10 O -0.6732(6) -0.2983(5) 0.3795(2)
H19 H -0.7089 -0.2902 0.4208
H20 H -0.7205 -0.3118 0.3494
N9 N 0.2431(3) -0.1493(2) 0.08706(11)
N10 N -0.0447(3) 0.0463(3) 0.11642(13)
C17 C 0.3860(3) -0.2499(3) 0.08031(14)
H29 H 0.4684 -0.2268 0.0854
C18 C 0.4209(3) -0.3859(3) 0.06633(14)
H30 H 0.5242 -0.4536 0.0609
C19 C 0.3001(4) -0.4198(3) 0.06051(15)
H31 H 0.3193 -0.5121 0.0514
C20 C 0.1510(3) -0.3174(3) 0.06814(15)
H32 H 0.0669 -0.3392 0.0647
C21 C 0.1256(3) -0.1819(3) 0.08087(13)
C22 C -0.0316(3) -0.0667(3) 0.08728(13)
C23 C -0.1575(4) -0.0749(3) 0.06385(17)
H33 H -0.1461 -0.1569 0.0445
C24 C -0.3004(4) 0.0389(4) 0.06923(17)
H34 H -0.3882 0.0349 0.0544
C25 C -0.3129(3) 0.1572(3) 0.09627(16)
H35 H -0.4084 0.2376 0.0989
C26 C -0.1829(4) 0.1559(3) 0.11956(16)
H36 H -0.1919 0.2372 0.1388
N11 N -0.6945(4) 0.0385(3) 0.48206(13)
C27 C -0.8386(5) 0.1105(4) 0.50667(18)
H37 H -0.9191 0.1057 0.4853
C28 C -0.8768(5) 0.1921(4) 0.56184(18)
H38 H -0.9801 0.2386 0.5791
C29 C -0.7592(5) 0.2032(4) 0.59072(17)
H39 H -0.7812 0.2617 0.6269
C30 C -0.6100(5) 0.1288(3) 0.56651(16)
H40 H -0.5284 0.1354 0.5861
C31 C -0.5791(4) 0.0436(3) 0.51297(15)
C31A C -0.4209(4) -0.0436(3) 0.48703(15)
N11A N -0.3055(4) -0.0385(3) 0.51794(13)
C27A C -0.1614(5) -0.1105(4) 0.49333(18)
H37A H -0.0809 -0.1057 0.5147
C28A C -0.1232(5) -0.1921(4) 0.43816(18)
H38A H -0.0199 -0.2386 0.4209
C29A C -0.2408(5) -0.2032(4) 0.40928(17)
H39A H -0.2188 -0.2617 0.3731
C30A C -0.3900(5) -0.1288(3) 0.43349(16)
H40A H -0.4716 -0.1354 0.4139
O7? O -0.5771(7) -0.3968(6) 0.4850(3)
H13? H -0.5612 -0.4622 0.4604
H14? H -0.5708 -0.4120 0.5280
O8? O -0.7797(8) -0.2405(6) 0.3857(3)
H15? H -0.7187 -0.2854 0.4162
H16? H -0.7328 -0.2974 0.3557
loop_
_geom_bond_atom_site_label_1
_geom_bond_atom_site_label_2
_geom_bond_site_symmetry_1
_geom_bond_site_symmetry_2
Gd1 O1 1_555 1_555
Co1 C1 1_555 1_555
O1 H1 1_555 1_555
H2 O1 1_555 1_555
O2 Gd1 1_555 1_555
H3 O2 1_555 1_555
H4 O2 1_555 1_555
O3 Gd1 1_555 1_555
H5 O3 1_555 1_555
H6 O3 1_555 1_555
O4 Gd1 1_555 1_555
H7 O4 1_555 1_555
H8 O4 1_555 1_555
O5 H9 1_555 1_555
H10 O5 1_555 1_555
O6 H11 1_555 1_555
H12 O6 1_555 1_555
O9 H17 1_555 1_555
H18 O9 1_555 1_555
O10 H19 1_555 1_555
H20 O10 1_555 1_555
N1 Gd1 1_555 1_555
N2 C2 1_555 1_555
N3 C3 1_555 1_555
N4 C4 1_555 1_555
N5 C5 1_555 1_555
N6 C6 1_555 1_555
N7 Gd1 1_555 1_555
N8 Gd1 1_555 1_555
N9 C17 1_555 1_555
N10 C22 1_555 1_555
N11 C27 1_555 1_555
C1 N1 1_555 1_555
C2 Co1 1_555 1_555
C3 Co1 1_555 1_555
C4 Co1 1_555 1_555
C5 Co1 1_555 1_555
C6 Co1 1_555 1_555
C7 N7 1_555 1_555
H21 C7 1_555 1_555
C8 C7 1_555 1_555
H22 C8 1_555 1_555
C9 C8 1_555 1_555
H23 C9 1_555 1_555
C10 C9 1_555 1_555
H24 C10 1_555 1_555
C11 N7 1_555 1_555
C12 N8 1_555 1_555
C13 C12 1_555 1_555
H25 C13 1_555 1_555
C14 C13 1_555 1_555
H26 C14 1_555 1_555
C15 C14 1_555 1_555
H27 C15 1_555 1_555
C16 N8 1_555 1_555
H28 C16 1_555 1_555
C17 H29 1_555 1_555
C18 C17 1_555 1_555
H30 C18 1_555 1_555
C19 C18 1_555 1_555
H31 C19 1_555 1_555
C20 C19 1_555 1_555
H32 C20 1_555 1_555
C21 N9 1_555 1_555
C22 C21 1_555 1_555
C23 C22 1_555 1_555
H33 C23 1_555 1_555
C24 C23 1_555 1_555
H34 C24 1_555 1_555
C25 C24 1_555 1_555
H35 C25 1_555 1_555
C26 N10 1_555 1_555
H36 C26 1_555 1_555
C27 H37 1_555 1_555
C28 C27 1_555 1_555
H38 C28 1_555 1_555
C29 C28 1_555 1_555
H39 C29 1_555 1_555
C30 C29 1_555 1_555
H40 C30 1_555 1_555
C31 N11 1_555 1_555
C31A C31 1_555 1_555
N11A C31A 1_555 1_555
C27A N11A 1_555 1_555
H37A C27A 1_555 1_555
C28A C27A 1_555 1_555
H38A C28A 1_555 1_555
C29A C28A 1_555 1_555
H39A C29A 1_555 1_555
C30A C31A 1_555 1_555
H40A C30A 1_555 1_555
N4_2 Gd1 1_555 1_555
Gd1_2 N4 1_555 1_555
C10 C11 1_555 1_555
C11 C12 1_555 1_555
C15 C16 1_555 1_555
C20 C21 1_555 1_555
C25 C26 1_555 1_555
C30 C31 1_555 1_555
C29A C30A 1_555 1_555

#END
