
#######################################################################
#
#                 Cambridge Crystallographic Data Centre
#                                CCDC 
#
#######################################################################
#
# If this CIF has been generated from an entry in the Cambridge 
# Structural Database, then it will include bibliographic, chemical, 
# crystal, experimental, refinement or atomic coordinate data resulting 
# from the CCDC's data processing and validation procedures.
#
#######################################################################

data_IKOYAI
_symmetry_cell_setting           triclinic
_symmetry_space_group_name_H-M   'P -1'
_symmetry_Int_Tables_number      2
_space_group_name_Hall           '-P 1'
loop_
_symmetry_equiv_pos_site_id
_symmetry_equiv_pos_as_xyz
1 x,y,z
2 -x,-y,-z
_cell_length_a                   9.71470(10)
_cell_length_b                   10.58370(10)
_cell_length_c                   19.7555(3)
_cell_angle_alpha                83.3130(10)
_cell_angle_beta                 84.39
_cell_angle_gamma                63.89
_cell_volume                     1809.05
loop_
_atom_site_label
_atom_site_type_symbol
_atom_site_fract_x
_atom_site_fract_y
_atom_site_fract_z
Yb1 Yb -0.715660(13) 0.090580(12) 0.245310(6)
Fe1 Fe -0.27056(5) -0.45676(4) 0.22698(2)
O1 O -0.6814(3) 0.2810(2) 0.18489(11)
H1 H -0.7370 0.3242 0.1523
H2 H -0.6382 0.3336 0.1883
O2 O -0.7391(3) -0.0116(3) 0.35103(11)
H3 H -0.7502 -0.0862 0.3580
H4 H -0.7144 0.0036 0.3883
O3 O -0.7114(3) 0.0738(2) 0.12777(11)
H5 H -0.7598 0.1447 0.1022
H6 H -0.7437 0.0157 0.1193
O4 O -0.8602(2) -0.0309(2) 0.23368(11)
H7 H -0.9126 -0.0074 0.1990
H8 H -0.8288 -0.1176 0.2350
N1 N -0.5299(3) -0.1514(3) 0.23184(13)
N2 N -0.3284(4) -0.4949(4) 0.38369(16)
N3 N -0.0366(4) -0.3408(4) 0.24420(18)
N4 N 0.0249(3) -0.7367(3) 0.22748(13)
N5 N -0.1994(3) -0.4222(3) 0.07102(15)
N6 N -0.5005(3) -0.5812(3) 0.21079(14)
N7 N -0.4770(3) 0.0861(3) 0.28201(13)
N8 N -0.7580(3) 0.2574(3) 0.33388(13)
C1 C -0.4372(3) -0.2672(3) 0.22904(15)
C2 C -0.3048(4) -0.4819(3) 0.32559(16)
C3 C -0.1257(4) -0.3813(3) 0.23825(17)
C4 C -0.0913(3) -0.6372(3) 0.22656(15)
C5 C -0.2313(3) -0.4333(3) 0.12846(16)
C6 C -0.4130(3) -0.5373(3) 0.21599(15)
C7 C -0.3395(4) 0.0014(3) 0.25508(16)
H21 H -0.3351 -0.0605 0.2229
C8 C -0.2034(4) -0.0007(4) 0.27173(19)
H22 H -0.1082 -0.0625 0.2513
C9 C -0.2087(4) 0.0887(4) 0.3185(2)
H23 H -0.1171 0.0895 0.3310
C10 C -0.3489(4) 0.1767(4) 0.34676(18)
H24 H -0.3550 0.2388 0.3792
C11 C -0.4820(4) 0.1745(3) 0.32761(16)
C12 C -0.6364(4) 0.2680(3) 0.35610(16)
C13 C -0.6548(5) 0.3609(4) 0.4045(2)
H25 H -0.5679 0.3672 0.4191
C14 C -0.7996(5) 0.4437(4) 0.4309(2)
H26 H -0.8138 0.5084 0.4634
C15 C -0.9241(4) 0.4311(4) 0.40948(18)
H27 H -1.0251 0.4854 0.4275
C16 C -0.8974(4) 0.3373(3) 0.36108(16)
H28 H -0.9830 0.3291 0.3462
N4_2 N -0.9751(3) 0.2633(3) 0.22748(13)
Yb1_2 Yb 0.284340(13) -0.909420(12) 0.245310(6)
O5 O -0.8606(3) 0.3462(2) 0.06756(12)
H9 H -0.8307 0.3606 0.0265
H10 H -0.9491 0.4096 0.0659
O6 O -0.7712(3) -0.3152(2) 0.25711(13)
H11 H -0.6997 -0.3841 0.2400
H12 H -0.8408 -0.3398 0.2518
O7 O -0.5772(7) -0.3936(7) 0.4857(3)
H13 H -0.5612 -0.4591 0.4612
H14 H -0.5709 -0.4089 0.5288
O8 O -0.7775(10) -0.2377(7) 0.3854(3)
H15 H -0.7165 -0.2826 0.4159
H16 H -0.7305 -0.2946 0.3554
N9 N 0.2444(3) -0.1492(3) 0.08877(13)
N10 N -0.0442(3) 0.0505(3) 0.11619(14)
C17 C 0.3872(4) -0.2510(3) 0.08154(16)
H29 H 0.4702 -0.2289 0.0867
C18 C 0.4211(4) -0.3868(3) 0.06699(17)
H30 H 0.5244 -0.4553 0.0611
C19 C 0.2997(4) -0.4201(4) 0.06133(18)
H31 H 0.3186 -0.5127 0.0524
C20 C 0.1510(4) -0.3168(4) 0.06887(17)
H32 H 0.0664 -0.3375 0.0654
C21 C 0.1272(4) -0.1812(3) 0.08177(15)
C22 C -0.0308(4) -0.0639(3) 0.08768(16)
C23 C -0.1572(4) -0.0710(4) 0.06376(19)
H33 H -0.1456 -0.1534 0.0444
C24 C -0.3000(4) 0.0434(4) 0.06854(19)
H34 H -0.3876 0.0395 0.0532
C25 C -0.3138(4) 0.1627(4) 0.09566(18)
H35 H -0.4099 0.2433 0.0985
C26 C -0.1827(4) 0.1612(4) 0.11879(19)
H36 H -0.1916 0.2433 0.1375
N11 N -0.6939(4) 0.0378(3) 0.48153(15)
C27 C -0.8380(6) 0.1075(5) 0.5065(2)
H37 H -0.9179 0.1009 0.4853
C28 C -0.8777(6) 0.1890(4) 0.5619(2)
H38 H -0.9812 0.2353 0.5788
C29 C -0.7603(6) 0.2001(4) 0.5914(2)
H39 H -0.7829 0.2576 0.6282
C30 C -0.6108(6) 0.1278(4) 0.56731(18)
H40 H -0.5298 0.1352 0.5872
C31 C -0.5794(5) 0.0430(4) 0.51314(17)
C31A C -0.4206(5) -0.0430(4) 0.48686(17)
N11A N -0.3061(4) -0.0378(3) 0.51847(15)
C27A C -0.1620(6) -0.1075(5) 0.4935(2)
H37A H -0.0821 -0.1009 0.5147
C28A C -0.1223(6) -0.1890(4) 0.4381(2)
H38A H -0.0188 -0.2353 0.4212
C29A C -0.2397(6) -0.2001(4) 0.4086(2)
H39A H -0.2171 -0.2576 0.3718
C30A C -0.3892(6) -0.1278(4) 0.43269(18)
H40A H -0.4702 -0.1352 0.4128
O9? O -0.7947(14) -0.2544(12) 0.5203(5)
H17? H -0.7479 -0.3220 0.5479
H18? H -0.7143 -0.2618 0.4965
O10? O -0.6749(7) -0.2937(6) 0.3802(3)
H19? H -0.7106 -0.2857 0.4216
H20? H -0.7222 -0.3073 0.3502
loop_
_geom_bond_atom_site_label_1
_geom_bond_atom_site_label_2
_geom_bond_site_symmetry_1
_geom_bond_site_symmetry_2
Yb1 O1 1_555 1_555
Fe1 C1 1_555 1_555
O1 H1 1_555 1_555
H2 O1 1_555 1_555
O2 Yb1 1_555 1_555
H3 O2 1_555 1_555
H4 O2 1_555 1_555
O3 Yb1 1_555 1_555
H5 O3 1_555 1_555
H6 O3 1_555 1_555
O4 Yb1 1_555 1_555
H7 O4 1_555 1_555
H8 O4 1_555 1_555
O5 H9 1_555 1_555
H10 O5 1_555 1_555
O6 H11 1_555 1_555
H12 O6 1_555 1_555
O7 H13 1_555 1_555
H14 O7 1_555 1_555
O8 H15 1_555 1_555
H16 O8 1_555 1_555
N1 Yb1 1_555 1_555
N2 C2 1_555 1_555
N3 C3 1_555 1_555
N4 C4 1_555 1_555
N5 C5 1_555 1_555
N6 C6 1_555 1_555
N7 Yb1 1_555 1_555
N8 Yb1 1_555 1_555
N9 C17 1_555 1_555
N10 C22 1_555 1_555
N11 C27 1_555 1_555
C1 N1 1_555 1_555
C2 Fe1 1_555 1_555
C3 Fe1 1_555 1_555
C4 Fe1 1_555 1_555
C5 Fe1 1_555 1_555
C6 Fe1 1_555 1_555
C7 N7 1_555 1_555
H21 C7 1_555 1_555
C8 C7 1_555 1_555
H22 C8 1_555 1_555
C9 C8 1_555 1_555
H23 C9 1_555 1_555
C10 C9 1_555 1_555
H24 C10 1_555 1_555
C11 N7 1_555 1_555
C12 N8 1_555 1_555
C13 C12 1_555 1_555
H25 C13 1_555 1_555
C14 C13 1_555 1_555
H26 C14 1_555 1_555
C15 C14 1_555 1_555
H27 C15 1_555 1_555
C16 N8 1_555 1_555
H28 C16 1_555 1_555
C17 H29 1_555 1_555
C18 C17 1_555 1_555
H30 C18 1_555 1_555
C19 C18 1_555 1_555
H31 C19 1_555 1_555
C20 C19 1_555 1_555
H32 C20 1_555 1_555
C21 N9 1_555 1_555
C22 C21 1_555 1_555
C23 C22 1_555 1_555
H33 C23 1_555 1_555
C24 C23 1_555 1_555
H34 C24 1_555 1_555
C25 C24 1_555 1_555
H35 C25 1_555 1_555
C26 N10 1_555 1_555
H36 C26 1_555 1_555
C27 H37 1_555 1_555
C28 C27 1_555 1_555
H38 C28 1_555 1_555
C29 C28 1_555 1_555
H39 C29 1_555 1_555
C30 C29 1_555 1_555
H40 C30 1_555 1_555
C31 N11 1_555 1_555
C31A C31 1_555 1_555
N11A C31A 1_555 1_555
C27A N11A 1_555 1_555
H37A C27A 1_555 1_555
C28A C27A 1_555 1_555
H38A C28A 1_555 1_555
C29A C28A 1_555 1_555
H39A C29A 1_555 1_555
C30A C31A 1_555 1_555
H40A C30A 1_555 1_555
N4_2 Yb1 1_555 1_555
Yb1_2 N4 1_555 1_555
C10 C11 1_555 1_555
C11 C12 1_555 1_555
C15 C16 1_555 1_555
C20 C21 1_555 1_555
C25 C26 1_555 1_555
C30 C31 1_555 1_555
C29A C30A 1_555 1_555

#END
