
#######################################################################
#
#                 Cambridge Crystallographic Data Centre
#                                CCDC 
#
#######################################################################
#
# If this CIF has been generated from an entry in the Cambridge 
# Structural Database, then it will include bibliographic, chemical, 
# crystal, experimental, refinement or atomic coordinate data resulting 
# from the CCDC's data processing and validation procedures.
#
#######################################################################

data_IKUGUQ
_symmetry_cell_setting           monoclinic
_symmetry_space_group_name_H-M   'P 21/n'
_symmetry_Int_Tables_number      14
_space_group_name_Hall           '-P 2yn'
loop_
_symmetry_equiv_pos_site_id
_symmetry_equiv_pos_as_xyz
1 x,y,z
2 1/2-x,1/2+y,1/2-z
3 -x,-y,-z
4 1/2+x,1/2-y,1/2+z
_cell_length_a                   10.626(5)
_cell_length_b                   11.599(5)
_cell_length_c                   13.583(6)
_cell_angle_alpha                90
_cell_angle_beta                 111.114(7)
_cell_angle_gamma                90
_cell_volume                     1561.73
loop_
_atom_site_label
_atom_site_type_symbol
_atom_site_fract_x
_atom_site_fract_y
_atom_site_fract_z
Mn1 Mn 0.5000 1.0000 0.0000
O1 O 0.6576(2) 0.9472(2) 0.15137(12)
N1 N 0.5625(2) 1.18466(13) 0.02693(12)
N2 N 0.6451(2) 1.3529(1) 0.00432(12)
N3 N 1.1046(2) 1.8154(2) 0.1073(1)
N4 N 0.9416(2) 1.68508(13) 0.05086(12)
N5 N 0.8595(2) 1.47492(13) -0.41180(12)
N6 N 0.7844(2) 1.47621(13) -0.27997(12)
C1 C 0.6345(2) 1.2389(2) -0.0192(2)
C2 C 0.5242(2) 1.2687(2) 0.0825(2)
C3 C 0.5755(2) 1.3724(2) 0.0712(2)
C4 C 1.0411(2) 1.7449(2) 0.0312(2)
C5 C 1.0421(2) 1.8026(2) 0.1804(2)
C6 C 0.9426(2) 1.7229(2) 0.1471(2)
C7 C 0.8870(2) 1.5039(2) -0.3128(1)
C8 C 0.7317(2) 1.4269(2) -0.4452(2)
C9 C 0.6845(2) 1.4269(2) -0.3648(2)
C10 C 0.7144(2) 1.4348(2) -0.0364(2)
C11 C 0.7890(2) 1.5222(2) 0.0278(2)
C12 C 0.8598(2) 1.5969(2) -0.0132(2)
C13 C 0.8552(2) 1.5846(2) -0.1168(2)
C14 C 0.7828(2) 1.4939(2) -0.1768(1)
C15 C 0.7100(2) 1.4193(2) -0.1389(2)
H1 H 0.6750(2) 1.2021(2) -0.0647(2)
H2 H 0.4679(2) 1.2548(2) 0.1238(2)
H3 H 0.5656(2) 1.4450(2) 0.1031(2)
H4 H 1.0627(2) 1.7353(2) -0.0319(2)
H5 H 1.0667(2) 1.8451(2) 0.2461(2)
H6 H 0.8841(2) 1.6976(2) 0.1836(2)
H7 H 0.9702(2) 1.5406(2) -0.2687(1)
H8 H 0.6835(2) 1.3973(2) -0.5155(2)
H9 H 0.5978(2) 1.3986(2) -0.3666(2)
H10 H 0.7914(2) 1.5311(2) 0.0995(2)
H11 H 0.9014(2) 1.6390(2) -0.1462(2)
H12 H 0.6568(2) 1.3580(2) -0.1830(2)
H13 H 0.729(3) 0.982(2) 0.175(2)
H14 H 0.663(3) 0.886(2) 0.168(2)
O1B O 0.3424(2) 1.0528(2) -0.15137(12)
H13B H 0.271(3) 1.018(2) -0.175(2)
H14B H 0.337(3) 1.114(2) -0.168(2)
N1B N 0.4375(2) 0.81534(13) -0.02693(12)
N2B N 0.3549(2) 0.6471(1) -0.00432(12)
N3B N -0.1046(2) 0.1846(2) -0.1073(1)
N4B N 0.0584(2) 0.31492(13) -0.05086(12)
N5B N 0.1405(2) 0.52508(13) 0.41180(12)
N6B N 0.2156(2) 0.52379(13) 0.27997(12)
C1B C 0.3655(2) 0.7611(2) 0.0192(2)
C2B C 0.4758(2) 0.7313(2) -0.0825(2)
C3B C 0.4245(2) 0.6276(2) -0.0712(2)
C4B C -0.0411(2) 0.2551(2) -0.0312(2)
C5B C -0.0421(2) 0.1974(2) -0.1804(2)
C6B C 0.0574(2) 0.2771(2) -0.1471(2)
C7B C 0.1130(2) 0.4961(2) 0.3128(1)
C8B C 0.2683(2) 0.5731(2) 0.4452(2)
C9B C 0.3155(2) 0.5731(2) 0.3648(2)
C10B C 0.2856(2) 0.5652(2) 0.0364(2)
C11B C 0.2110(2) 0.4778(2) -0.0278(2)
C12B C 0.1402(2) 0.4031(2) 0.0132(2)
C13B C 0.1448(2) 0.4154(2) 0.1168(2)
C14B C 0.2172(2) 0.5061(2) 0.1768(1)
C15B C 0.2900(2) 0.5807(2) 0.1389(2)
H1B H 0.3250(2) 0.7979(2) 0.0647(2)
H2B H 0.5321(2) 0.7452(2) -0.1238(2)
H3B H 0.4344(2) 0.5550(2) -0.1031(2)
H4B H -0.0627(2) 0.2647(2) 0.0319(2)
H5B H -0.0667(2) 0.1549(2) -0.2461(2)
H6B H 0.1159(2) 0.3024(2) -0.1836(2)
H7B H 0.0298(2) 0.4594(2) 0.2687(1)
H8B H 0.3165(2) 0.6027(2) 0.5155(2)
H9B H 0.4022(2) 0.6014(2) 0.3666(2)
H10B H 0.2086(2) 0.4689(2) -0.0995(2)
H11B H 0.0986(2) 0.3610(2) 0.1462(2)
H12B H 0.3432(2) 0.6420(2) 0.1830(2)
N5C N 0.3595(2) 1.02508(13) 0.08820(12)
N5A N 0.6405(2) 0.97492(13) -0.08820(12)
Mn1C Mn 1.0000 1.5000 -0.5000
Mn1C_2 Mn 0.0000 0.5000 0.5000
O2 O 1.0553(2) 1.7407(1) -0.21087(13)
O3 O 1.1783(2) 1.7982(2) -0.2959(1)
O4 O 1.1095(2) 1.9192(1) -0.2062(2)
N7 N 1.1157(2) 1.8195(2) -0.23683(13)
loop_
_geom_bond_atom_site_label_1
_geom_bond_atom_site_label_2
_geom_bond_site_symmetry_1
_geom_bond_site_symmetry_2
Mn1 O1 1_555 1_555
O1 H13 1_555 1_555
N1 Mn1 1_555 1_555
N2 C1 1_555 1_555
N3 C4 1_555 1_555
N4 C4 1_555 1_555
N5 C7 1_555 1_555
N6 C7 1_555 1_555
C1 N1 1_555 1_555
C2 N1 1_555 1_555
C3 N2 1_555 1_555
C4 H4 1_555 1_555
C5 N3 1_555 1_555
C6 N4 1_555 1_555
C7 H7 1_555 1_555
C8 N5 1_555 1_555
C9 N6 1_555 1_555
C10 N2 1_555 1_555
C11 C10 1_555 1_555
C12 N4 1_555 1_555
C13 C12 1_555 1_555
C14 N6 1_555 1_555
C15 C10 1_555 1_555
H1 C1 1_555 1_555
H2 C2 1_555 1_555
H3 C3 1_555 1_555
H5 C5 1_555 1_555
H6 C6 1_555 1_555
H8 C8 1_555 1_555
H9 C9 1_555 1_555
H10 C11 1_555 1_555
H11 C13 1_555 1_555
H12 C15 1_555 1_555
H14 O1 1_555 1_555
O2 N7 1_555 1_555
O3 N7 1_555 1_555
O4 N7 1_555 1_555
O1B Mn1 1_555 1_555
H13B O1B 1_555 1_555
H14B O1B 1_555 1_555
N1B Mn1 1_555 1_555
N2B C1B 1_555 1_555
N3B C4B 1_555 1_555
N4B C4B 1_555 1_555
N5B C7B 1_555 1_555
N6B C7B 1_555 1_555
C1B N1B 1_555 1_555
C2B N1B 1_555 1_555
C3B N2B 1_555 1_555
C4B H4B 1_555 1_555
C5B N3B 1_555 1_555
C6B N4B 1_555 1_555
C7B H7B 1_555 1_555
C8B N5B 1_555 1_555
C9B N6B 1_555 1_555
C10B N2B 1_555 1_555
C11B C10B 1_555 1_555
C12B N4B 1_555 1_555
C13B C12B 1_555 1_555
C14B N6B 1_555 1_555
C15B C10B 1_555 1_555
H1B C1B 1_555 1_555
H2B C2B 1_555 1_555
H3B C3B 1_555 1_555
H5B C5B 1_555 1_555
H6B C6B 1_555 1_555
H8B C8B 1_555 1_555
H9B C9B 1_555 1_555
H10B C11B 1_555 1_555
H11B C13B 1_555 1_555
H12B C15B 1_555 1_555
N5C Mn1 1_555 1_555
N5A Mn1 1_555 1_555
Mn1C N5 1_555 1_555
Mn1C_2 N5B 1_555 1_555
C2 C3 1_555 1_555
C5 C6 1_555 1_555
C8 C9 1_555 1_555
C11 C12 1_555 1_555
C13 C14 1_555 1_555
C14 C15 1_555 1_555
C2B C3B 1_555 1_555
C5B C6B 1_555 1_555
C8B C9B 1_555 1_555
C11B C12B 1_555 1_555
C13B C14B 1_555 1_555
C14B C15B 1_555 1_555

#END
