
#######################################################################
#
#                 Cambridge Crystallographic Data Centre
#                                CCDC 
#
#######################################################################
#
# If this CIF has been generated from an entry in the Cambridge 
# Structural Database, then it will include bibliographic, chemical, 
# crystal, experimental, refinement or atomic coordinate data resulting 
# from the CCDC's data processing and validation procedures.
#
#######################################################################

data_IKUGOK
_symmetry_cell_setting           monoclinic
_symmetry_space_group_name_H-M   'P 21/n'
_symmetry_Int_Tables_number      14
_space_group_name_Hall           '-P 2yn'
loop_
_symmetry_equiv_pos_site_id
_symmetry_equiv_pos_as_xyz
1 x,y,z
2 1/2-x,1/2+y,1/2-z
3 -x,-y,-z
4 1/2+x,1/2-y,1/2+z
_cell_length_a                   9.233(1)
_cell_length_b                   11.613(2)
_cell_length_c                   17.989(3)
_cell_angle_alpha                90
_cell_angle_beta                 90.63(1)
_cell_angle_gamma                90
_cell_volume                     1928.71
loop_
_atom_site_label
_atom_site_type_symbol
_atom_site_fract_x
_atom_site_fract_y
_atom_site_fract_z
Mn1 Mn 0.0000 0.0000 0.5000
O1 O 0.2016(3) -0.0146(2) 0.56345(14)
N1 N 0.0402(3) 0.1910(2) 0.49687(14)
N2 N 0.1503(3) 0.3530(2) 0.46516(13)
N3 N 0.3108(3) 0.4778(2) 0.22395(14)
N4 N 0.3802(3) 0.4773(2) 0.10744(14)
N5 N 0.4624(3) 0.6876(2) 0.44521(14)
N6 N 0.6060(3) 0.8385(3) 0.45922(17)
C1 C 0.0242(4) 0.2717(3) 0.55237(19)
H1 H -0.0257 0.2593 0.5963
C2 C 0.0907(4) 0.3707(3) 0.53436(18)
H2 H 0.0955 0.4376 0.5627
C3 C 0.1162(4) 0.2431(3) 0.44614(17)
H3 H 0.1440 0.2086 0.4019
C4 C 0.2326(3) 0.4306(2) 0.42181(16)
C5 C 0.2332(4) 0.4163(3) 0.34530(17)
H4 H 0.1803 0.3574 0.3229
C6 C 0.3144(4) 0.4915(3) 0.30307(17)
C7 C 0.3898(4) 0.5815(3) 0.33437(17)
H5 H 0.4410 0.6328 0.3049
C8 C 0.3877(3) 0.5940(3) 0.41158(17)
C9 C 0.3105(3) 0.5182(2) 0.45550(16)
H6 H 0.3111 0.5262 0.5069
C10 C 0.1938(4) 0.4406(3) 0.18193(18)
H7 H 0.1030 0.4193 0.1991
C11 C 0.2384(4) 0.4415(3) 0.11101(18)
H8 H 0.1815 0.4208 0.0702
C12 C 0.4197(4) 0.4977(3) 0.17645(17)
H9 H 0.5115 0.5228 0.1908
C13 C 0.4388(4) 0.7323(3) 0.51562(18)
H10 H 0.3745 0.7048 0.5509
C14 C 0.5272(4) 0.8230(3) 0.5225(2)
H11 H 0.5342 0.8693 0.5645
C15 C 0.5643(4) 0.7563(3) 0.4139(2)
H12 H 0.5999 0.7462 0.3661
H13 H 0.227(3) -0.057(2) 0.5986(13)
H14 H 0.257(4) 0.041(3) 0.561(2)
O1B O -0.2016(3) 0.0146(2) 0.43655(14)
H13B H -0.227(3) 0.057(2) 0.4014(13)
H14B H -0.257(4) -0.041(3) 0.439(2)
N1B N -0.0402(3) -0.1910(2) 0.50313(14)
N2B N -0.1503(3) -0.3530(2) 0.53484(13)
N3B N -0.3108(3) -0.4778(2) 0.77605(14)
N4B N -0.3802(3) -0.4773(2) 0.89256(14)
N5B N -0.4624(3) -0.6876(2) 0.55479(14)
N6B N -0.6060(3) -0.8385(3) 0.54078(17)
C1B C -0.0242(4) -0.2717(3) 0.44763(19)
H1B H 0.0257 -0.2593 0.4037
C2B C -0.0907(4) -0.3707(3) 0.46564(18)
H2B H -0.0955 -0.4376 0.4373
C3B C -0.1162(4) -0.2431(3) 0.55386(17)
H3B H -0.1440 -0.2086 0.5981
C4B C -0.2326(3) -0.4306(2) 0.57819(16)
C5B C -0.2332(4) -0.4163(3) 0.65470(17)
H4B H -0.1803 -0.3574 0.6771
C6B C -0.3144(4) -0.4915(3) 0.69693(17)
C7B C -0.3898(4) -0.5815(3) 0.66563(17)
H5B H -0.4410 -0.6328 0.6951
C8B C -0.3877(3) -0.5940(3) 0.58842(17)
C9B C -0.3105(3) -0.5182(2) 0.54450(16)
H6B H -0.3111 -0.5262 0.4931
C10B C -0.1938(4) -0.4406(3) 0.81807(18)
H7B H -0.1030 -0.4193 0.8009
C11B C -0.2384(4) -0.4415(3) 0.88899(18)
H8B H -0.1815 -0.4208 0.9298
C12B C -0.4197(4) -0.4977(3) 0.82355(17)
H9B H -0.5115 -0.5228 0.8092
C13B C -0.4388(4) -0.7323(3) 0.48438(18)
H10B H -0.3745 -0.7048 0.4491
C14B C -0.5272(4) -0.8230(3) 0.4775(2)
H11B H -0.5342 -0.8693 0.4355
C15B C -0.5643(4) -0.7563(3) 0.5861(2)
H12B H -0.5999 -0.7462 0.6339
N4C N -0.1198(3) 0.0227(2) 0.60744(14)
N4A N 0.1198(3) -0.0227(2) 0.39256(14)
Mn1C Mn 0.5000 0.5000 0.0000
Mn1C_2 Mn -0.5000 -0.5000 1.0000
Cl1 Cl 0.1941(3) 0.6907(2) 0.69213(13)
O2 O 0.0525(6) 0.7165(7) 0.7186(5)
O3 O 0.1856(13) 0.6087(7) 0.6341(4)
O4 O 0.2778(9) 0.6450(8) 0.7524(5)
O5 O 0.2600(7) 0.7943(5) 0.6666(4)
O6 O 0.0746(18) 0.7061(12) 0.2461(9)
H15 H 0.020(7) 0.657(5) 0.265(3)
H16 H 0.077(11) 0.699(8) 0.2010(13)
Cl2? Cl 0.1832(4) 0.6121(5) 0.7024(2)
O7? O 0.0965(11) 0.6996(8) 0.7360(5)
O8? O 0.1359(15) 0.5024(7) 0.7266(6)
O9? O 0.1672(9) 0.6207(7) 0.6235(3)
O10? O 0.3309(7) 0.6300(13) 0.7221(6)
loop_
_geom_bond_atom_site_label_1
_geom_bond_atom_site_label_2
_geom_bond_site_symmetry_1
_geom_bond_site_symmetry_2
Mn1 O1 1_555 1_555
O1 H13 1_555 1_555
N1 Mn1 1_555 1_555
N2 C2 1_555 1_555
N3 C6 1_555 1_555
N4 C11 1_555 1_555
N5 C8 1_555 1_555
N6 C14 1_555 1_555
C1 N1 1_555 1_555
H1 C1 1_555 1_555
C2 C1 1_555 1_555
H2 C2 1_555 1_555
C3 N1 1_555 1_555
H3 C3 1_555 1_555
C4 N2 1_555 1_555
C5 C4 1_555 1_555
H4 C5 1_555 1_555
C6 C5 1_555 1_555
C7 C6 1_555 1_555
H5 C7 1_555 1_555
C8 C7 1_555 1_555
C9 C4 1_555 1_555
H6 C9 1_555 1_555
C10 N3 1_555 1_555
H7 C10 1_555 1_555
C11 C10 1_555 1_555
H8 C11 1_555 1_555
C12 N3 1_555 1_555
H9 C12 1_555 1_555
C13 N5 1_555 1_555
H10 C13 1_555 1_555
C14 C13 1_555 1_555
H11 C14 1_555 1_555
C15 N5 1_555 1_555
H12 C15 1_555 1_555
H14 O1 1_555 1_555
Cl1 O2 1_555 1_555
O3 Cl1 1_555 1_555
O4 Cl1 1_555 1_555
O5 Cl1 1_555 1_555
O6 H15 1_555 1_555
H16 O6 1_555 1_555
O1B Mn1 1_555 1_555
H13B O1B 1_555 1_555
H14B O1B 1_555 1_555
N1B Mn1 1_555 1_555
N2B C2B 1_555 1_555
N3B C6B 1_555 1_555
N4B C11B 1_555 1_555
N5B C8B 1_555 1_555
N6B C14B 1_555 1_555
C1B N1B 1_555 1_555
H1B C1B 1_555 1_555
C2B C1B 1_555 1_555
H2B C2B 1_555 1_555
C3B N1B 1_555 1_555
H3B C3B 1_555 1_555
C4B N2B 1_555 1_555
C5B C4B 1_555 1_555
H4B C5B 1_555 1_555
C6B C5B 1_555 1_555
C7B C6B 1_555 1_555
H5B C7B 1_555 1_555
C8B C7B 1_555 1_555
C9B C4B 1_555 1_555
H6B C9B 1_555 1_555
C10B N3B 1_555 1_555
H7B C10B 1_555 1_555
C11B C10B 1_555 1_555
H8B C11B 1_555 1_555
C12B N3B 1_555 1_555
H9B C12B 1_555 1_555
C13B N5B 1_555 1_555
H10B C13B 1_555 1_555
C14B C13B 1_555 1_555
H11B C14B 1_555 1_555
C15B N5B 1_555 1_555
H12B C15B 1_555 1_555
N4C Mn1 1_555 1_555
N4A Mn1 1_555 1_555
Mn1C N4 1_555 1_555
Mn1C_2 N4B 1_555 1_555
N2 C3 1_555 1_555
N4 C12 1_555 1_555
N6 C15 1_555 1_555
C8 C9 1_555 1_555
N2B C3B 1_555 1_555
N4B C12B 1_555 1_555
N6B C15B 1_555 1_555
C8B C9B 1_555 1_555

#END
