
#######################################################################
#
#                 Cambridge Crystallographic Data Centre
#                                CCDC 
#
#######################################################################
#
# If this CIF has been generated from an entry in the Cambridge 
# Structural Database, then it will include bibliographic, chemical, 
# crystal, experimental, refinement or atomic coordinate data resulting 
# from the CCDC's data processing and validation procedures.
#
#######################################################################

data_IKUHIF
_symmetry_cell_setting           triclinic
_symmetry_space_group_name_H-M   'P -1'
_symmetry_Int_Tables_number      2
_space_group_name_Hall           '-P 1'
loop_
_symmetry_equiv_pos_site_id
_symmetry_equiv_pos_as_xyz
1 x,y,z
2 -x,-y,-z
_cell_length_a                   12.542(6)
_cell_length_b                   12.942(5)
_cell_length_c                   13.708(6)
_cell_angle_alpha                65.00(2)
_cell_angle_beta                 80.33(3)
_cell_angle_gamma                66.23(2)
_cell_volume                     1845.52
loop_
_atom_site_label
_atom_site_type_symbol
_atom_site_fract_x
_atom_site_fract_y
_atom_site_fract_z
Mn1 Mn 0.5000 0.0000 -0.5000
Mn2 Mn 1.0000 -1.0000 0.0000
S1 S 0.7201(1) 0.0841(1) -0.6874(1)
O1 O 0.6443(4) 0.0295(5) -0.6072(3)
O2 O 0.8346(4) -0.0128(4) -0.6827(4)
O3 O 0.6697(4) 0.1351(4) -0.7949(3)
O4 O 0.7314(5) 0.1814(5) -0.6678(5)
O5 O 0.9240(4) -1.0874(4) 0.1562(3)
N1 N 0.6168(5) -0.0849(5) -0.3534(4)
N2 N 0.6717(5) -0.1573(4) -0.1867(4)
N3 N 0.9574(4) -0.8286(4) 0.0283(4)
N4 N 0.8578(4) -0.6471(4) 0.0364(4)
N5 N 0.2703(5) -0.4391(5) 0.1927(4)
N6 N 0.4552(4) -0.4811(4) 0.1377(4)
N7 N 0.8289(4) -0.9297(5) -0.0825(4)
N8 N 0.7057(5) -0.8762(4) -0.2086(4)
N9 N 0.5687(5) -0.1862(5) -0.5039(4)
N10 N 0.5731(4) -0.3764(5) -0.4445(4)
N11 N 0.0916(5) -0.5481(5) -0.2437(5)
N12 N 0.2594(5) -0.5219(4) -0.2882(4)
C1 C 0.5842(6) -0.1201(6) -0.2539(5)
C2 C 0.7333(6) -0.1023(6) -0.3502(6)
C3 C 0.7684(6) -0.1487(6) -0.2468(5)
C4 C 0.6609(6) -0.1977(5) -0.0693(5)
C5 C 0.8559(5) -0.7585(5) 0.0540(5)
C6 C 1.0274(5) -0.7618(6) -0.0049(5)
C7 C 0.9653(5) -0.6475(6) -0.0022(5)
C8 C 0.3512(5) -0.3951(5) 0.1444(5)
C9 C 0.3279(5) -0.5644(6) 0.2201(5)
C10 C 0.4404(5) -0.5930(5) 0.1891(4)
C11 C 0.6617(5) -0.3266(5) -0.0131(4)
C12 C 0.7605(5) -0.4275(5) -0.0121(4)
C13 C 0.7578(5) -0.5446(5) 0.0395(4)
C14 C 0.6599(5) -0.5635(5) 0.0930(4)
C15 C 0.5594(5) -0.4634(5) 0.0894(4)
C16 C 0.5598(5) -0.3450(5) 0.0365(5)
C17 C 0.8119(5) -0.8879(5) -0.1880(5)
C18 C 0.7276(6) -0.9458(6) -0.0350(6)
C19 C 0.6498(6) -0.9110(6) -0.1134(6)
C20 C 0.5075(5) -0.2580(5) -0.4611(5)
C21 C 0.6808(6) -0.2632(7) -0.5147(5)
C22 C 0.6840(6) -0.3790(7) -0.4791(5)
C23 C 0.2012(6) -0.5993(6) -0.2610(6)
C24 C 0.0750(6) -0.4296(6) -0.2604(5)
C25 C 0.1766(5) -0.4123(6) -0.2869(5)
C26 C 0.6518(6) -0.8196(6) -0.3128(6)
C27 C 0.5684(6) -0.6892(6) -0.3348(5)
C28 C 0.6095(6) -0.5964(6) -0.3798(5)
C29 C 0.5337(5) -0.4767(5) -0.3959(4)
C30 C 0.4174(5) -0.4509(5) -0.3637(4)
C31 C 0.3788(6) -0.5480(5) -0.3170(5)
C32 C 0.4539(6) -0.6671(6) -0.3020(5)
H1 H 0.5067(6) -0.1199(6) -0.2308(5)
H2 H 0.7823(6) -0.0848(6) -0.4131(6)
H3 H 0.8450(6) -0.1700(6) -0.2212(5)
H4 H 0.7262(6) -0.1954(5) -0.0421(5)
H5 H 0.5887(6) -0.1420(5) -0.0522(5)
H6 H 0.7888(5) -0.7819(5) 0.0803(5)
H7 H 1.1079(5) -0.7896(6) -0.0275(5)
H8 H 0.9921(5) -0.5805(6) -0.0232(5)
H9 H 0.3377(5) -0.3082(5) 0.1147(5)
H10 H 0.2918(5) -0.6244(6) 0.2580(5)
H11 H 0.4986(5) -0.6739(5) 0.1996(4)
H12 H 0.8311(5) -0.4158(5) -0.0469(4)
H13 H 0.6616(5) -0.6464(5) 0.1338(4)
H14 H 0.4894(5) -0.2748(5) 0.0334(5)
H15 H 0.8688(5) -0.8687(5) -0.2430(5)
H16 H 0.7135(6) -0.9770(6) 0.0419(6)
H17 H 0.5713(6) -0.9109(6) -0.1031(6)
H18 H 0.7130(6) -0.8177(6) -0.3665(6)
H19 H 0.6108(6) -0.8669(6) -0.3173(6)
H20 H 0.4253(5) -0.2293(5) -0.4439(5)
H21 H 0.7466(6) -0.2379(7) -0.5428(5)
H22 H 0.7513(6) -0.4510(7) -0.4780(5)
H23 H 0.2376(6) -0.6840(6) -0.2539(6)
H24 H 0.0008(6) -0.3683(6) -0.2536(5)
H25 H 0.1896(5) -0.3380(6) -0.3022(5)
H26 H 0.6907(6) -0.6127(6) -0.4003(5)
H27 H 0.3654(5) -0.3677(5) -0.3741(4)
H28 H 0.4264(6) -0.7345(6) -0.2684(5)
S1A S 0.2799(1) -0.0841(1) -0.3126(1)
O1A O 0.3557(4) -0.0295(5) -0.3928(3)
O2A O 0.1654(4) 0.0128(4) -0.3173(4)
O3A O 0.3303(4) -0.1351(4) -0.2051(3)
O4A O 0.2686(5) -0.1814(5) -0.3322(5)
N1A N 0.3832(5) 0.0849(5) -0.6466(4)
N2A N 0.3283(5) 0.1573(4) -0.8133(4)
N3A N 0.0426(4) 0.8286(4) -1.0283(4)
N4A N 0.1422(4) 0.6471(4) -1.0364(4)
N5A N 0.7297(5) 0.4391(5) -1.1927(4)
N6A N 0.5448(4) 0.4811(4) -1.1377(4)
C1A C 0.4158(6) 0.1201(6) -0.7461(5)
C2A C 0.2667(6) 0.1023(6) -0.6498(6)
C3A C 0.2316(6) 0.1487(6) -0.7532(5)
C4A C 0.3391(6) 0.1977(5) -0.9307(5)
C5A C 0.1441(5) 0.7585(5) -1.0540(5)
C6A C -0.0274(5) 0.7618(6) -0.9951(5)
C7A C 0.0347(5) 0.6475(6) -0.9978(5)
C8A C 0.6488(5) 0.3951(5) -1.1444(5)
C9A C 0.6721(5) 0.5644(6) -1.2201(5)
C10A C 0.5596(5) 0.5930(5) -1.1891(4)
C11A C 0.3383(5) 0.3266(5) -0.9869(4)
C12A C 0.2395(5) 0.4275(5) -0.9879(4)
C13A C 0.2422(5) 0.5446(5) -1.0395(4)
C14A C 0.3401(5) 0.5635(5) -1.0930(4)
C15A C 0.4406(5) 0.4634(5) -1.0894(4)
C16A C 0.4402(5) 0.3450(5) -1.0365(5)
H1A H 0.4933(6) 0.1199(6) -0.7692(5)
H2A H 0.2177(6) 0.0848(6) -0.5869(6)
H3A H 0.1550(6) 0.1700(6) -0.7788(5)
H4A H 0.2738(6) 0.1954(5) -0.9579(5)
H5A H 0.4113(6) 0.1420(5) -0.9478(5)
H6A H 0.2112(5) 0.7819(5) -1.0803(5)
H7A H -0.1079(5) 0.7896(6) -0.9725(5)
H8A H 0.0079(5) 0.5805(6) -0.9768(5)
H9A H 0.6623(5) 0.3082(5) -1.1147(5)
H10A H 0.7082(5) 0.6244(6) -1.2580(5)
H11A H 0.5014(5) 0.6739(5) -1.1996(4)
H12A H 0.1689(5) 0.4158(5) -0.9531(4)
H13A H 0.3384(5) 0.6464(5) -1.1338(4)
H14A H 0.5106(5) 0.2748(5) -1.0334(5)
N7A N 0.1711(4) 0.9297(5) -0.9175(4)
N8A N 0.2943(5) 0.8762(4) -0.7914(4)
N9A N 0.4313(5) 0.1862(5) -0.4961(4)
N10A N 0.4269(4) 0.3764(5) -0.5555(4)
N11A N 0.9084(5) 0.5481(5) -0.7563(5)
N12A N 0.7406(5) 0.5219(4) -0.7118(4)
C17A C 0.1881(5) 0.8879(5) -0.8120(5)
C18A C 0.2724(6) 0.9458(6) -0.9650(6)
C19A C 0.3502(6) 0.9110(6) -0.8866(6)
C20A C 0.4925(5) 0.2580(5) -0.5389(5)
C21A C 0.3192(6) 0.2632(7) -0.4853(5)
C22A C 0.3160(6) 0.3790(7) -0.5209(5)
C23A C 0.7988(6) 0.5993(6) -0.7390(6)
C24A C 0.9250(6) 0.4296(6) -0.7396(5)
C25A C 0.8234(5) 0.4123(6) -0.7131(5)
C26A C 0.3482(6) 0.8196(6) -0.6872(6)
C27A C 0.4316(6) 0.6892(6) -0.6652(5)
C28A C 0.3905(6) 0.5964(6) -0.6202(5)
C29A C 0.4663(5) 0.4767(5) -0.6041(4)
C30A C 0.5826(5) 0.4509(5) -0.6363(4)
C31A C 0.6212(6) 0.5480(5) -0.6830(5)
C32A C 0.5461(6) 0.6671(6) -0.6980(5)
H15A H 0.1312(5) 0.8687(5) -0.7570(5)
H16A H 0.2865(6) 0.9770(6) -1.0419(6)
H17A H 0.4287(6) 0.9109(6) -0.8969(6)
H18A H 0.2870(6) 0.8177(6) -0.6335(6)
H19A H 0.3892(6) 0.8669(6) -0.6827(6)
H20A H 0.5747(5) 0.2293(5) -0.5561(5)
H21A H 0.2534(6) 0.2379(7) -0.4572(5)
H22A H 0.2487(6) 0.4510(7) -0.5220(5)
H23A H 0.7624(6) 0.6840(6) -0.7461(6)
H24A H 0.9992(6) 0.3683(6) -0.7464(5)
H25A H 0.8104(5) 0.3380(6) -0.6978(5)
H26A H 0.3093(6) 0.6127(6) -0.5997(5)
H27A H 0.6346(5) 0.3677(5) -0.6259(4)
H28A H 0.5736(6) 0.7345(6) -0.7316(5)
O5A O 1.0760(4) -0.9126(4) -0.1562(3)
N3A_2 N 1.0426(4) -1.1714(4) -0.0283(4)
N7A_2 N 1.1711(4) -1.0703(5) 0.0825(4)
Mn2_2 Mn 0.0000 1.0000 -1.0000
O6 O 1.3526(7) 0.0972(6) -0.2242(5)
O7 O 0.9549(4) 0.3325(4) -0.2515(3)
O8 O 0.9438(8) 0.4075(6) -0.4684(5)
O9 O 0.852(1) 0.1277(10) -0.473(1)
O10 O 0.9887(10) 0.121(1) -0.655(1)
O11 O 0.962(1) 0.802(1) -0.4999(9)
C33 C 1.042(1) 0.836(2) -0.556(1)
H29 H 1.118(1) 0.772(2) -0.534(1)
H30 H 1.031(1) 0.860(2) -0.632(1)
H31 H 1.037(1) 0.907(2) -0.544(1)
loop_
_geom_bond_atom_site_label_1
_geom_bond_atom_site_label_2
_geom_bond_site_symmetry_1
_geom_bond_site_symmetry_2
Mn1 O1 1_555 1_555
Mn2 O5 1_555 1_555
S1 O1 1_555 1_555
O2 S1 1_555 1_555
O3 S1 1_555 1_555
O4 S1 1_555 1_555
N1 Mn1 1_555 1_555
N2 C1 1_555 1_555
N3 Mn2 1_555 1_555
N4 C5 1_555 1_555
N5 C8 1_555 1_555
N6 C8 1_555 1_555
N7 Mn2 1_555 1_555
N8 C17 1_555 1_555
N9 Mn1 1_555 1_555
N10 C20 1_555 1_555
N11 C23 1_555 1_555
N12 C23 1_555 1_555
C1 N1 1_555 1_555
C2 N1 1_555 1_555
C3 N2 1_555 1_555
C4 N2 1_555 1_555
C5 N3 1_555 1_555
C6 N3 1_555 1_555
C7 N4 1_555 1_555
C8 H9 1_555 1_555
C9 N5 1_555 1_555
C10 N6 1_555 1_555
C11 C4 1_555 1_555
C12 C11 1_555 1_555
C13 N4 1_555 1_555
C14 C13 1_555 1_555
C15 N6 1_555 1_555
C16 C11 1_555 1_555
C17 N7 1_555 1_555
C18 N7 1_555 1_555
C19 N8 1_555 1_555
C20 N9 1_555 1_555
C21 N9 1_555 1_555
C22 N10 1_555 1_555
C23 H23 1_555 1_555
C24 N11 1_555 1_555
C25 N12 1_555 1_555
C26 N8 1_555 1_555
C27 C26 1_555 1_555
C28 C27 1_555 1_555
C29 N10 1_555 1_555
C30 C29 1_555 1_555
C31 N12 1_555 1_555
C32 C27 1_555 1_555
H1 C1 1_555 1_555
H2 C2 1_555 1_555
H3 C3 1_555 1_555
H4 C4 1_555 1_555
H5 C4 1_555 1_555
H6 C5 1_555 1_555
H7 C6 1_555 1_555
H8 C7 1_555 1_555
H10 C9 1_555 1_555
H11 C10 1_555 1_555
H12 C12 1_555 1_555
H13 C14 1_555 1_555
H14 C16 1_555 1_555
H15 C17 1_555 1_555
H16 C18 1_555 1_555
H17 C19 1_555 1_555
H18 C26 1_555 1_555
H19 C26 1_555 1_555
H20 C20 1_555 1_555
H21 C21 1_555 1_555
H22 C22 1_555 1_555
H24 C24 1_555 1_555
H25 C25 1_555 1_555
H26 C28 1_555 1_555
H27 C30 1_555 1_555
H28 C32 1_555 1_555
O11 C33 1_555 1_555
C33 H29 1_555 1_555
H30 C33 1_555 1_555
H31 C33 1_555 1_555
S1A O1A 1_555 1_555
O1A Mn1 1_555 1_555
O2A S1A 1_555 1_555
O3A S1A 1_555 1_555
O4A S1A 1_555 1_555
N1A Mn1 1_555 1_555
N2A C1A 1_555 1_555
N3A C5A 1_555 1_555
N4A C5A 1_555 1_555
N5A C8A 1_555 1_555
N6A C8A 1_555 1_555
C1A N1A 1_555 1_555
C2A N1A 1_555 1_555
C3A N2A 1_555 1_555
C4A N2A 1_555 1_555
C5A H6A 1_555 1_555
C6A N3A 1_555 1_555
C7A N4A 1_555 1_555
C8A H9A 1_555 1_555
C9A N5A 1_555 1_555
C10A N6A 1_555 1_555
C11A C4A 1_555 1_555
C12A C11A 1_555 1_555
C13A N4A 1_555 1_555
C14A C13A 1_555 1_555
C15A N6A 1_555 1_555
C16A C11A 1_555 1_555
H1A C1A 1_555 1_555
H2A C2A 1_555 1_555
H3A C3A 1_555 1_555
H4A C4A 1_555 1_555
H5A C4A 1_555 1_555
H7A C6A 1_555 1_555
H8A C7A 1_555 1_555
H10A C9A 1_555 1_555
H11A C10A 1_555 1_555
H12A C12A 1_555 1_555
H13A C14A 1_555 1_555
H14A C16A 1_555 1_555
N7A C17A 1_555 1_555
N8A C17A 1_555 1_555
N9A Mn1 1_555 1_555
N10A C20A 1_555 1_555
N11A C23A 1_555 1_555
N12A C23A 1_555 1_555
C17A H15A 1_555 1_555
C18A N7A 1_555 1_555
C19A N8A 1_555 1_555
C20A N9A 1_555 1_555
C21A N9A 1_555 1_555
C22A N10A 1_555 1_555
C23A H23A 1_555 1_555
C24A N11A 1_555 1_555
C25A N12A 1_555 1_555
C26A N8A 1_555 1_555
C27A C26A 1_555 1_555
C28A C27A 1_555 1_555
C29A N10A 1_555 1_555
C30A C29A 1_555 1_555
C31A N12A 1_555 1_555
C32A C27A 1_555 1_555
H16A C18A 1_555 1_555
H17A C19A 1_555 1_555
H18A C26A 1_555 1_555
H19A C26A 1_555 1_555
H20A C20A 1_555 1_555
H21A C21A 1_555 1_555
H22A C22A 1_555 1_555
H24A C24A 1_555 1_555
H25A C25A 1_555 1_555
H26A C28A 1_555 1_555
H27A C30A 1_555 1_555
H28A C32A 1_555 1_555
O5A Mn2 1_555 1_555
N3A_2 Mn2 1_555 1_555
N7A_2 Mn2 1_555 1_555
Mn2_2 N3A 1_555 1_555
C2 C3 1_555 1_555
C6 C7 1_555 1_555
C9 C10 1_555 1_555
C12 C13 1_555 1_555
C14 C15 1_555 1_555
C15 C16 1_555 1_555
C18 C19 1_555 1_555
C21 C22 1_555 1_555
C24 C25 1_555 1_555
C28 C29 1_555 1_555
C30 C31 1_555 1_555
C31 C32 1_555 1_555
C2A C3A 1_555 1_555
C6A C7A 1_555 1_555
C9A C10A 1_555 1_555
C12A C13A 1_555 1_555
C14A C15A 1_555 1_555
C15A C16A 1_555 1_555
N7A Mn2_2 1_555 1_555
C18A C19A 1_555 1_555
C21A C22A 1_555 1_555
C24A C25A 1_555 1_555
C28A C29A 1_555 1_555
C30A C31A 1_555 1_555
C31A C32A 1_555 1_555

#END
