
#######################################################################
#
#                 Cambridge Crystallographic Data Centre
#                                CCDC 
#
#######################################################################
#
# If this CIF has been generated from an entry in the Cambridge 
# Structural Database, then it will include bibliographic, chemical, 
# crystal, experimental, refinement or atomic coordinate data resulting 
# from the CCDC's data processing and validation procedures.
#
#######################################################################

data_IKUHOL
_symmetry_cell_setting           monoclinic
_symmetry_space_group_name_H-M   'C c'
_symmetry_Int_Tables_number      9
_space_group_name_Hall           'C -2yc'
loop_
_symmetry_equiv_pos_site_id
_symmetry_equiv_pos_as_xyz
1 x,y,z
2 x,-y,1/2+z
3 1/2+x,1/2+y,z
4 1/2+x,1/2-y,1/2+z
_cell_length_a                   12.116(6)
_cell_length_b                   17.728(8)
_cell_length_c                   17.415(8)
_cell_angle_alpha                90
_cell_angle_beta                 96.068(7)
_cell_angle_gamma                90
_cell_volume                     3719.65
loop_
_atom_site_label
_atom_site_type_symbol
_atom_site_fract_x
_atom_site_fract_y
_atom_site_fract_z
Mn1 Mn 0.2999(1) 0.03210(4) 0.25281(9)
N1 N 0.3570(4) -0.0235(3) 0.1483(3)
N2 N 0.4744(4) -0.0347(3) 0.0607(3)
N3 N 1.1128(4) 0.0225(3) 0.2199(3)
N4 N 0.9407(4) -0.0098(3) 0.1759(3)
N5 N 0.7845(4) -0.3638(3) 0.1775(3)
N6 N 0.7622(4) -0.2517(2) 0.1246(3)
N7 N 0.2456(4) 0.0906(3) 0.3568(3)
N8 N 0.1283(4) 0.1070(3) 0.4447(3)
N9 N -0.1934(4) 0.4270(3) 0.3272(3)
N10 N -0.1702(4) 0.3157(2) 0.3823(3)
N11 N -0.5129(4) 0.0389(3) 0.2956(3)
N12 N -0.3409(4) 0.0699(3) 0.3374(3)
C1 C 0.4415(5) 0.0080(3) 0.1178(3)
C2 C 0.3359(5) -0.0893(3) 0.1082(4)
C3 C 0.4085(5) -0.0975(4) 0.0548(4)
C4 C 0.5752(5) -0.0210(3) 0.0218(3)
C5 C 1.0487(5) -0.0329(3) 0.1917(3)
C6 C 1.0441(5) 0.0843(4) 0.2227(4)
C7 C 0.9376(5) 0.0660(3) 0.1963(4)
C8 C 0.8058(5) -0.2918(3) 0.1867(3)
C9 C 0.7259(5) -0.3714(3) 0.1052(4)
C10 C 0.7097(5) -0.3026(3) 0.0717(3)
C11 C 0.6743(4) -0.0589(3) 0.0654(3)
C12 C 0.7627(5) -0.0166(3) 0.0995(3)
C13 C 0.8507(4) -0.0528(3) 0.1416(3)
C14 C 0.8519(5) -0.1302(3) 0.1503(3)
C15 C 0.7642(5) -0.1713(3) 0.1156(3)
C16 C 0.6754(4) -0.1374(3) 0.0722(3)
C17 C 0.1660(5) 0.0593(3) 0.3936(3)
C18 C 0.2585(5) 0.1623(3) 0.3871(3)
C19 C 0.1862(5) 0.1738(3) 0.4412(3)
C20 C 0.0319(4) 0.0925(3) 0.4868(3)
C21 C -0.2086(5) 0.3543(3) 0.3179(3)
C22 C -0.1423(5) 0.4349(3) 0.4024(3)
C23 C -0.1268(5) 0.3674(3) 0.4360(3)
C24 C -0.4478(4) 0.0933(3) 0.3233(3)
C25 C -0.4451(5) -0.0231(3) 0.2910(4)
C26 C -0.3393(5) -0.0049(3) 0.3173(4)
C27 C -0.0715(4) 0.1268(3) 0.4440(3)
C28 C -0.0777(5) 0.2034(3) 0.4362(3)
C29 C -0.1679(4) 0.2361(3) 0.3921(3)
C30 C -0.2556(5) 0.1922(3) 0.3582(3)
C31 C -0.2491(5) 0.1155(3) 0.3693(3)
C32 C -0.1579(5) 0.0818(3) 0.4109(3)
H1 H 0.4753(5) 0.0556(3) 0.1348(3)
H2 H 0.2777(5) -0.1248(3) 0.1172(4)
H3 H 0.4133(5) -0.1396(4) 0.0197(4)
H4 H 0.5641(5) -0.0412(3) -0.0302(3)
H5 H 0.5889(5) 0.0328(3) 0.0196(3)
H6 H 1.0742(5) -0.0839(3) 0.1834(3)
H7 H 1.0679(5) 0.1337(4) 0.2419(4)
H8 H 0.8730(5) 0.0986(3) 0.1924(4)
H9 H 0.8476(5) -0.2700(3) 0.2320(3)
H10 H 0.6995(5) -0.4187(3) 0.0823(4)
H11 H 0.6712(5) -0.2911(3) 0.0213(3)
H12 H 0.7624(5) 0.0378(3) 0.0935(3)
H13 H 0.9131(5) -0.1554(3) 0.1803(3)
H14 H 0.6154(4) -0.1673(3) 0.0466(3)
H15 H 0.1382(5) 0.0085(3) 0.3839(3)
H16 H 0.3119(5) 0.1987(3) 0.3720(3)
H17 H 0.1776(5) 0.2192(3) 0.4712(3)
H18 H 0.0217(4) 0.0385(3) 0.4912(3)
H19 H 0.0448(4) 0.1145(3) 0.5380(3)
H20 H -0.2433(5) 0.3310(3) 0.2710(3)
H21 H -0.1209(5) 0.4826(3) 0.4270(3)
H22 H -0.0915(5) 0.3569(3) 0.4875(3)
H23 H -0.4730(4) 0.1443(3) 0.3318(3)
H24 H -0.4703(5) -0.0721(3) 0.2715(4)
H25 H -0.2754(5) -0.0382(3) 0.3210(4)
H26 H -0.0199(5) 0.2352(3) 0.4617(3)
H27 H -0.3192(5) 0.2152(3) 0.3287(3)
H28 H -0.1545(5) 0.0275(3) 0.4170(3)
N3_2 N 0.1128(4) 0.0225(3) 0.2199(3)
N5B N 0.2845(4) 0.1362(3) 0.1775(3)
N9B N 0.3066(4) -0.0730(3) 0.3272(3)
N11_2 N 0.4871(4) 0.0389(3) 0.2956(3)
Mn1_2 Mn 1.2999(1) 0.03210(4) 0.25281(9)
Mn1B Mn 0.7999(1) -0.46790(4) 0.25281(9)
Mn1B_2 Mn -0.2001(1) 0.53210(4) 0.25281(9)
Mn1_3 Mn -0.7001(1) 0.03210(4) 0.25281(9)
Cl1 Cl 0.4842(2) 0.3339(1) 0.3826(1)
O1 O 0.5634(8) 0.3835(5) 0.4140(6)
O2 O 0.3744(7) 0.3549(7) 0.3685(7)
O3 O 0.4979(6) 0.2665(4) 0.4290(5)
O4 O 0.5162(9) 0.3067(6) 0.3097(5)
Cl2 Cl 0.6298(2) 0.20819(8) 0.1301(1)
O5 O 0.6232(8) 0.2869(5) 0.1364(5)
O6 O 0.515(2) 0.200(1) 0.101(1)
O7 O 0.659(1) 0.1502(8) 0.1838(8)
O8 O 0.719(3) 0.197(2) 0.078(3)
O9? O 0.562(1) 0.1758(10) 0.1837(10)
O10? O 0.741(1) 0.1992(9) 0.1620(9)
O11? O 0.6151(8) 0.1793(6) 0.0542(6)
loop_
_geom_bond_atom_site_label_1
_geom_bond_atom_site_label_2
_geom_bond_site_symmetry_1
_geom_bond_site_symmetry_2
Mn1 N1 1_555 1_555
N1 C1 1_555 1_555
N2 C1 1_555 1_555
N3 C5 1_555 1_555
N4 C5 1_555 1_555
N5 C8 1_555 1_555
N6 C8 1_555 1_555
N7 Mn1 1_555 1_555
N8 C17 1_555 1_555
N9 C21 1_555 1_555
N10 C21 1_555 1_555
N11 C24 1_555 1_555
N12 C24 1_555 1_555
C1 H1 1_555 1_555
C2 N1 1_555 1_555
C3 N2 1_555 1_555
C4 N2 1_555 1_555
C5 H6 1_555 1_555
C6 N3 1_555 1_555
C7 N4 1_555 1_555
C8 H9 1_555 1_555
C9 N5 1_555 1_555
C10 N6 1_555 1_555
C11 C4 1_555 1_555
C12 C11 1_555 1_555
C13 N4 1_555 1_555
C14 C13 1_555 1_555
C15 N6 1_555 1_555
C16 C11 1_555 1_555
C17 N7 1_555 1_555
C18 N7 1_555 1_555
C19 N8 1_555 1_555
C20 N8 1_555 1_555
C21 H20 1_555 1_555
C22 N9 1_555 1_555
C23 N10 1_555 1_555
C24 H23 1_555 1_555
C25 N11 1_555 1_555
C26 N12 1_555 1_555
C27 C20 1_555 1_555
C28 C27 1_555 1_555
C29 N10 1_555 1_555
C30 C29 1_555 1_555
C31 N12 1_555 1_555
C32 C27 1_555 1_555
H2 C2 1_555 1_555
H3 C3 1_555 1_555
H4 C4 1_555 1_555
H5 C4 1_555 1_555
H7 C6 1_555 1_555
H8 C7 1_555 1_555
H10 C9 1_555 1_555
H11 C10 1_555 1_555
H12 C12 1_555 1_555
H13 C14 1_555 1_555
H14 C16 1_555 1_555
H15 C17 1_555 1_555
H16 C18 1_555 1_555
H17 C19 1_555 1_555
H18 C20 1_555 1_555
H19 C20 1_555 1_555
H21 C22 1_555 1_555
H22 C23 1_555 1_555
H24 C25 1_555 1_555
H25 C26 1_555 1_555
H26 C28 1_555 1_555
H27 C30 1_555 1_555
H28 C32 1_555 1_555
Cl1 O1 1_555 1_555
O2 Cl1 1_555 1_555
O3 Cl1 1_555 1_555
O4 Cl1 1_555 1_555
Cl2 O5 1_555 1_555
O6 Cl2 1_555 1_555
O7 Cl2 1_555 1_555
O8 Cl2 1_555 1_555
N3_2 Mn1 1_555 1_555
N5B Mn1 1_555 1_555
N9B Mn1 1_555 1_555
N11_2 Mn1 1_555 1_555
Mn1_2 N3 1_555 1_555
Mn1B N5 1_555 1_555
Mn1B_2 N9 1_555 1_555
Mn1_3 N11 1_555 1_555
C2 C3 1_555 1_555
C6 C7 1_555 1_555
C9 C10 1_555 1_555
C12 C13 1_555 1_555
C14 C15 1_555 1_555
C15 C16 1_555 1_555
C18 C19 1_555 1_555
C22 C23 1_555 1_555
C25 C26 1_555 1_555
C28 C29 1_555 1_555
C30 C31 1_555 1_555
C31 C32 1_555 1_555

#END
