
#######################################################################
#
#                 Cambridge Crystallographic Data Centre
#                                CCDC 
#
#######################################################################
#
# If this CIF has been generated from an entry in the Cambridge 
# Structural Database, then it will include bibliographic, chemical, 
# crystal, experimental, refinement or atomic coordinate data resulting 
# from the CCDC's data processing and validation procedures.
#
#######################################################################

data_IKUHAX
_symmetry_cell_setting           monoclinic
_symmetry_space_group_name_H-M   'P 21/n'
_symmetry_Int_Tables_number      14
_space_group_name_Hall           '-P 2yn'
loop_
_symmetry_equiv_pos_site_id
_symmetry_equiv_pos_as_xyz
1 x,y,z
2 1/2-x,1/2+y,1/2-z
3 -x,-y,-z
4 1/2+x,1/2-y,1/2+z
_cell_length_a                   10.056(1)
_cell_length_b                   12.280(2)
_cell_length_c                   13.665(2)
_cell_angle_alpha                90
_cell_angle_beta                 108.56(1)
_cell_angle_gamma                90
_cell_volume                     1599.7
loop_
_atom_site_label
_atom_site_type_symbol
_atom_site_fract_x
_atom_site_fract_y
_atom_site_fract_z
Mn1 Mn 0.0000 0.0000 0.5000
N1 N 0.05464(16) 0.17721(12) 0.52541(11)
N2 N 0.12937(15) 0.34128(11) 0.50353(11)
N3 N 0.25714(15) 0.48027(11) 0.21508(11)
N4 N 0.34186(16) 0.48104(11) 0.08471(11)
N5 N 0.41498(16) 0.66981(12) 0.54286(11)
N6 N 0.58314(17) 0.79354(13) 0.59829(13)
N7 N 0.16050(18) -0.04465(14) 0.65292(13)
N8 N 0.25560(18) 0.01100(14) 0.69643(13)
N9 N 0.3505(2) 0.06461(18) 0.74148(19)
C1 C 0.0116(2) 0.25131(15) 0.58480(15)
H1 H -0.0422 0.2343 0.6269
C2 C 0.0582(2) 0.35199(15) 0.57348(15)
H2 H 0.0449 0.4155 0.6063
C3 C 0.1249(2) 0.23439(14) 0.47789(14)
H3 H 0.1668 0.2053 0.4320
C4 C 0.19437(18) 0.42430(13) 0.46133(13)
C5 C 0.18678(18) 0.41547(14) 0.35870(13)
H4 H 0.1360 0.3596 0.3176
C6 C 0.25650(18) 0.49178(14) 0.31885(13)
C7 C 0.32783(19) 0.57807(14) 0.37775(13)
H5 H 0.3702 0.6309 0.3489
C8 C 0.33489(18) 0.58437(14) 0.48079(14)
C9 C 0.26889(18) 0.50743(14) 0.52398(13)
H6 H 0.2745 0.5115 0.5931
C10 C 0.1543(2) 0.43826(16) 0.13149(14)
H7 H 0.0661 0.4137 0.1298
C11 C 0.2076(2) 0.43993(16) 0.05229(15)
H8 H 0.1602 0.4166 -0.0145
C12 C 0.36742(19) 0.50410(14) 0.18267(13)
H9 H 0.4514 0.5334 0.2248
C13 C 0.4035(2) 0.71177(16) 0.63337(15)
H10 H 0.3386 0.6923 0.6659
C14 C 0.5062(2) 0.78695(16) 0.66491(15)
H11 H 0.5227 0.8289 0.7242
C15 C 0.52461(19) 0.72296(15) 0.52575(15)
H12 H 0.5544 0.7104 0.4689
N1B N -0.05464(16) -0.17721(12) 0.47459(11)
N2B N -0.12937(15) -0.34128(11) 0.49647(11)
N3B N -0.25714(15) -0.48027(11) 0.78492(11)
N4B N -0.34186(16) -0.48104(11) 0.91529(11)
N5B N -0.41498(16) -0.66981(12) 0.45714(11)
N6B N -0.58314(17) -0.79354(13) 0.40171(13)
C1B C -0.0116(2) -0.25131(15) 0.41520(15)
H1B H 0.0422 -0.2343 0.3731
C2B C -0.0582(2) -0.35199(15) 0.42652(15)
H2B H -0.0449 -0.4155 0.3937
C3B C -0.1249(2) -0.23439(14) 0.52211(14)
H3B H -0.1668 -0.2053 0.5680
C4B C -0.19437(18) -0.42430(13) 0.53867(13)
C5B C -0.18678(18) -0.41547(14) 0.64130(13)
H4B H -0.1360 -0.3596 0.6824
C6B C -0.25650(18) -0.49178(14) 0.68115(13)
C7B C -0.32783(19) -0.57807(14) 0.62225(13)
H5B H -0.3702 -0.6309 0.6511
C8B C -0.33489(18) -0.58437(14) 0.51921(14)
C9B C -0.26889(18) -0.50743(14) 0.47602(13)
H6B H -0.2745 -0.5115 0.4069
C10B C -0.1543(2) -0.43826(16) 0.86851(14)
H7B H -0.0661 -0.4137 0.8702
C11B C -0.2076(2) -0.43993(16) 0.94771(15)
H8B H -0.1602 -0.4166 1.0145
C12B C -0.36742(19) -0.50410(14) 0.81733(13)
H9B H -0.4514 -0.5334 0.7752
C13B C -0.4035(2) -0.71177(16) 0.36663(15)
H10B H -0.3386 -0.6923 0.3341
C14B C -0.5062(2) -0.78695(16) 0.33509(15)
H11B H -0.5227 -0.8289 0.2758
C15B C -0.52461(19) -0.72296(15) 0.47425(15)
H12B H -0.5544 -0.7104 0.5311
N7B N -0.16050(18) 0.04465(14) 0.34708(13)
N8B N -0.25560(18) -0.01100(14) 0.30357(13)
N9B N -0.3505(2) -0.06461(18) 0.25852(19)
N4C N -0.15814(16) 0.01896(11) 0.58471(11)
N4A N 0.15814(16) -0.01896(11) 0.41529(11)
Mn1C Mn 0.5000 0.5000 0.0000
Mn1C_2 Mn -0.5000 -0.5000 1.0000
O1 O 0.0789(2) -0.21105(15) 0.78564(15)
H13 H 0.106(3) -0.2751(9) 0.783(2)
H14 H 0.109(3) -0.1721(16) 0.746(2)
loop_
_geom_bond_atom_site_label_1
_geom_bond_atom_site_label_2
_geom_bond_site_symmetry_1
_geom_bond_site_symmetry_2
Mn1 N1 1_555 1_555
N1 C1 1_555 1_555
N2 C2 1_555 1_555
N3 C6 1_555 1_555
N4 C11 1_555 1_555
N5 C8 1_555 1_555
N6 C14 1_555 1_555
N7 Mn1 1_555 1_555
N8 N7 1_555 1_555
N9 N8 1_555 1_555
C1 H1 1_555 1_555
C2 C1 1_555 1_555
H2 C2 1_555 1_555
C3 N1 1_555 1_555
H3 C3 1_555 1_555
C4 N2 1_555 1_555
C5 C4 1_555 1_555
H4 C5 1_555 1_555
C6 C5 1_555 1_555
C7 C6 1_555 1_555
H5 C7 1_555 1_555
C8 C7 1_555 1_555
C9 C4 1_555 1_555
H6 C9 1_555 1_555
C10 N3 1_555 1_555
H7 C10 1_555 1_555
C11 C10 1_555 1_555
H8 C11 1_555 1_555
C12 N3 1_555 1_555
H9 C12 1_555 1_555
C13 N5 1_555 1_555
H10 C13 1_555 1_555
C14 C13 1_555 1_555
H11 C14 1_555 1_555
C15 N5 1_555 1_555
H12 C15 1_555 1_555
O1 H13 1_555 1_555
H14 O1 1_555 1_555
N1B Mn1 1_555 1_555
N2B C2B 1_555 1_555
N3B C6B 1_555 1_555
N4B C11B 1_555 1_555
N5B C8B 1_555 1_555
N6B C14B 1_555 1_555
C1B N1B 1_555 1_555
H1B C1B 1_555 1_555
C2B C1B 1_555 1_555
H2B C2B 1_555 1_555
C3B N1B 1_555 1_555
H3B C3B 1_555 1_555
C4B N2B 1_555 1_555
C5B C4B 1_555 1_555
H4B C5B 1_555 1_555
C6B C5B 1_555 1_555
C7B C6B 1_555 1_555
H5B C7B 1_555 1_555
C8B C7B 1_555 1_555
C9B C4B 1_555 1_555
H6B C9B 1_555 1_555
C10B N3B 1_555 1_555
H7B C10B 1_555 1_555
C11B C10B 1_555 1_555
H8B C11B 1_555 1_555
C12B N3B 1_555 1_555
H9B C12B 1_555 1_555
C13B N5B 1_555 1_555
H10B C13B 1_555 1_555
C14B C13B 1_555 1_555
H11B C14B 1_555 1_555
C15B N5B 1_555 1_555
H12B C15B 1_555 1_555
N7B Mn1 1_555 1_555
N8B N7B 1_555 1_555
N9B N8B 1_555 1_555
N4C Mn1 1_555 1_555
N4A Mn1 1_555 1_555
Mn1C N4 1_555 1_555
Mn1C_2 N4B 1_555 1_555
N2 C3 1_555 1_555
N4 C12 1_555 1_555
N6 C15 1_555 1_555
C8 C9 1_555 1_555
N2B C3B 1_555 1_555
N4B C12B 1_555 1_555
N6B C15B 1_555 1_555
C8B C9B 1_555 1_555

#END
