
#######################################################################
#
#                 Cambridge Crystallographic Data Centre
#                                CCDC 
#
#######################################################################
#
# If this CIF has been generated from an entry in the Cambridge 
# Structural Database, then it will include bibliographic, chemical, 
# crystal, experimental, refinement or atomic coordinate data resulting 
# from the CCDC's data processing and validation procedures.
#
#######################################################################

data_IKUKOO
_symmetry_cell_setting           monoclinic
_symmetry_space_group_name_H-M   'P 21/c'
_symmetry_Int_Tables_number      14
_space_group_name_Hall           '-P 2ybc'
loop_
_symmetry_equiv_pos_site_id
_symmetry_equiv_pos_as_xyz
1 x,y,z
2 x,1/2-y,1/2+z
3 -x,-y,-z
4 -x,1/2+y,1/2-z
_cell_length_a                   10.469(5)
_cell_length_b                   24.607(13)
_cell_length_c                   7.818(4)
_cell_angle_alpha                90.00
_cell_angle_beta                 96.506(9)
_cell_angle_gamma                90.00
_cell_volume                     2001.03
loop_
_atom_site_label
_atom_site_type_symbol
_atom_site_fract_x
_atom_site_fract_y
_atom_site_fract_z
Co1 Co 0.5000 0.0000 0.5000
Co2 Co 1.0000 0.5000 0.5000
O1 O 0.6331(4) -0.0365(2) 0.1308(5)
O2 O 0.6514(4) -0.04318(16) 0.4185(5)
O3 O 0.9370(4) -0.07053(17) 0.5224(5)
O4 O 0.8241(5) -0.12023(18) 0.6932(5)
O5 O 0.4078(5) -0.0012(3) 0.2493(6)
O6 O 0.8249(4) 0.54123(18) 0.4180(5)
O7 O 0.9627(5) 0.5035(2) 0.7537(5)
N1 N 0.5907(5) 0.0781(2) 0.4563(7)
N2 N 0.7754(5) 0.2297(2) 0.4564(8)
N3 N 0.7080(6) 0.2707(2) 0.4667(8)
N4 N 0.9033(5) 0.4210(2) 0.4828(6)
C1 C 0.8564(6) -0.1074(2) 0.5494(8)
C2 C 0.8019(6) -0.1401(2) 0.3937(8)
C3 C 0.8429(7) -0.1942(3) 0.3818(9)
H1 H 0.9020 -0.2087 0.4675
C4 C 0.7954(8) -0.2261(3) 0.2424(10)
H2 H 0.8207 -0.2622 0.2371
C5 C 0.7121(8) -0.2049(3) 0.1136(11)
H3 H 0.6815 -0.2264 0.0200
C6 C 0.6727(7) -0.1509(3) 0.1217(9)
H4 H 0.6163 -0.1367 0.0325
C7 C 0.7169(5) -0.1175(3) 0.2629(7)
C8 C 0.6643(5) -0.0613(3) 0.2704(8)
C9 C 0.7175(6) 0.0829(3) 0.4879(10)
H5 H 0.7664 0.0517 0.5121
C10 C 0.7803(7) 0.1329(3) 0.4863(10)
H6 H 0.8695 0.1351 0.5061
C11 C 0.7067(6) 0.1789(3) 0.4545(9)
C12 C 0.5741(6) 0.1746(3) 0.4222(10)
H7 H 0.5228 0.2051 0.3997
C13 C 0.5210(6) 0.1230(3) 0.4245(9)
H8 H 0.4322 0.1196 0.4026
C14 C 0.9607(6) 0.3757(3) 0.4310(9)
H9 H 1.0435 0.3787 0.3999
C15 C 0.9031(7) 0.3258(3) 0.4221(9)
H10 H 0.9462 0.2956 0.3859
C16 C 0.7794(6) 0.3210(3) 0.4679(9)
C17 C 0.7194(7) 0.3666(3) 0.5211(10)
H11 H 0.6360 0.3645 0.5510
C18 C 0.7838(6) 0.4159(3) 0.5302(9)
H12 H 0.7436 0.4463 0.5700
H13 H 0.763(5) 0.540(2) 0.490(7)
H14 H 0.473(5) -0.002(4) 0.183(8)
H15 H 0.992(7) 0.4731(17) 0.808(8)
H16 H 0.840(6) 0.5704(17) 0.353(8)
H17 H 0.328(3) 0.011(4) 0.215(9)
H18 H 0.950(12) 0.5355(19) 0.805(9)
O1B O 0.3669(4) 0.0365(2) 0.8692(5)
O2B O 0.3486(4) 0.04318(16) 0.5815(5)
O3B O 0.0630(4) 0.07053(17) 0.4776(5)
O4B O 0.1759(5) 0.12023(18) 0.3068(5)
C1B C 0.1436(6) 0.1074(2) 0.4506(8)
C2B C 0.1981(6) 0.1401(2) 0.6063(8)
C3B C 0.1571(7) 0.1942(3) 0.6182(9)
H1B H 0.0980 0.2087 0.5325
C4B C 0.2046(8) 0.2261(3) 0.7576(10)
H2B H 0.1793 0.2622 0.7629
C5B C 0.2879(8) 0.2049(3) 0.8864(11)
H3B H 0.3185 0.2264 0.9800
C6B C 0.3273(7) 0.1509(3) 0.8783(9)
H4B H 0.3837 0.1367 0.9675
C7B C 0.2831(5) 0.1175(3) 0.7371(7)
C8B C 0.3357(5) 0.0613(3) 0.7296(8)
O5B O 0.5922(5) 0.0012(3) 0.7507(6)
H14B H 0.527(5) 0.002(4) 0.817(8)
H17B H 0.672(3) -0.011(4) 0.785(9)
N1B N 0.4093(5) -0.0781(2) 0.5437(7)
N2B N 0.2246(5) -0.2297(2) 0.5436(8)
N3B N 0.2920(6) -0.2707(2) 0.5333(8)
N4B N 0.0967(5) -0.4210(2) 0.5172(6)
C9B C 0.2825(6) -0.0829(3) 0.5121(10)
H5B H 0.2336 -0.0517 0.4879
C10B C 0.2197(7) -0.1329(3) 0.5137(10)
H6B H 0.1305 -0.1351 0.4939
C11B C 0.2933(6) -0.1789(3) 0.5455(9)
C12B C 0.4259(6) -0.1746(3) 0.5778(10)
H7B H 0.4772 -0.2051 0.6003
C13B C 0.4790(6) -0.1230(3) 0.5755(9)
H8B H 0.5678 -0.1196 0.5974
C14B C 0.0393(6) -0.3757(3) 0.5690(9)
H9B H -0.0435 -0.3787 0.6001
C15B C 0.0969(7) -0.3258(3) 0.5779(9)
H10B H 0.0538 -0.2956 0.6141
C16B C 0.2206(6) -0.3210(3) 0.5321(9)
C17B C 0.2806(7) -0.3666(3) 0.4789(10)
H11B H 0.3640 -0.3645 0.4490
C18B C 0.2162(6) -0.4159(3) 0.4698(9)
H12B H 0.2564 -0.4463 0.4300
O6B O 1.1751(4) 0.45877(18) 0.5820(5)
H13B H 1.237(5) 0.460(2) 0.510(7)
H16B H 1.160(6) 0.4296(17) 0.647(8)
O7B O 1.0373(5) 0.4965(2) 0.2463(5)
H15B H 1.008(7) 0.5269(17) 0.192(8)
H18B H 1.050(12) 0.4645(19) 0.195(9)
N4B_2 N 1.0967(5) 0.5790(2) 0.5172(6)
Co2_2 Co 0.0000 -0.5000 0.5000
loop_
_geom_bond_atom_site_label_1
_geom_bond_atom_site_label_2
_geom_bond_site_symmetry_1
_geom_bond_site_symmetry_2
Co1 O2 1_555 1_555
Co2 O6 1_555 1_555
O1 C8 1_555 1_555
O2 C8 1_555 1_555
O3 C1 1_555 1_555
O4 C1 1_555 1_555
O5 Co1 1_555 1_555
O6 H13 1_555 1_555
O7 Co2 1_555 1_555
N1 Co1 1_555 1_555
N2 N3 1_555 1_555
N3 C16 1_555 1_555
N4 Co2 1_555 1_555
C1 C2 1_555 1_555
C2 C3 1_555 1_555
C3 H1 1_555 1_555
C4 C3 1_555 1_555
H2 C4 1_555 1_555
C5 C4 1_555 1_555
H3 C5 1_555 1_555
C6 C5 1_555 1_555
H4 C6 1_555 1_555
C7 C2 1_555 1_555
C8 C7 1_555 1_555
C9 N1 1_555 1_555
H5 C9 1_555 1_555
C10 C9 1_555 1_555
H6 C10 1_555 1_555
C11 N2 1_555 1_555
C12 C11 1_555 1_555
H7 C12 1_555 1_555
C13 N1 1_555 1_555
H8 C13 1_555 1_555
C14 N4 1_555 1_555
H9 C14 1_555 1_555
C15 C14 1_555 1_555
H10 C15 1_555 1_555
C16 C15 1_555 1_555
C17 C16 1_555 1_555
H11 C17 1_555 1_555
C18 N4 1_555 1_555
H12 C18 1_555 1_555
H14 O5 1_555 1_555
H15 O7 1_555 1_555
H16 O6 1_555 1_555
H17 O5 1_555 1_555
H18 O7 1_555 1_555
O1B C8B 1_555 1_555
O2B Co1 1_555 1_555
O3B C1B 1_555 1_555
O4B C1B 1_555 1_555
C1B C2B 1_555 1_555
C2B C3B 1_555 1_555
C3B H1B 1_555 1_555
C4B C3B 1_555 1_555
H2B C4B 1_555 1_555
C5B C4B 1_555 1_555
H3B C5B 1_555 1_555
C6B C5B 1_555 1_555
H4B C6B 1_555 1_555
C7B C2B 1_555 1_555
C8B O2B 1_555 1_555
O5B Co1 1_555 1_555
H14B O5B 1_555 1_555
H17B O5B 1_555 1_555
N1B Co1 1_555 1_555
N2B N3B 1_555 1_555
N3B C16B 1_555 1_555
N4B C14B 1_555 1_555
C9B N1B 1_555 1_555
H5B C9B 1_555 1_555
C10B C9B 1_555 1_555
H6B C10B 1_555 1_555
C11B N2B 1_555 1_555
C12B C11B 1_555 1_555
H7B C12B 1_555 1_555
C13B N1B 1_555 1_555
H8B C13B 1_555 1_555
C14B H9B 1_555 1_555
C15B C14B 1_555 1_555
H10B C15B 1_555 1_555
C16B C15B 1_555 1_555
C17B C16B 1_555 1_555
H11B C17B 1_555 1_555
C18B N4B 1_555 1_555
H12B C18B 1_555 1_555
O6B Co2 1_555 1_555
H13B O6B 1_555 1_555
H16B O6B 1_555 1_555
O7B Co2 1_555 1_555
H15B O7B 1_555 1_555
H18B O7B 1_555 1_555
N4B_2 Co2 1_555 1_555
Co2_2 N4B 1_555 1_555
C6 C7 1_555 1_555
C10 C11 1_555 1_555
C12 C13 1_555 1_555
C17 C18 1_555 1_555
C6B C7B 1_555 1_555
C7B C8B 1_555 1_555
C10B C11B 1_555 1_555
C12B C13B 1_555 1_555
C17B C18B 1_555 1_555

#END
