
#######################################################################
#
#                 Cambridge Crystallographic Data Centre
#                                CCDC 
#
#######################################################################
#
# If this CIF has been generated from an entry in the Cambridge 
# Structural Database, then it will include bibliographic, chemical, 
# crystal, experimental, refinement or atomic coordinate data resulting 
# from the CCDC's data processing and validation procedures.
#
#######################################################################

data_IKULOP
_symmetry_cell_setting           orthorhombic
_symmetry_space_group_name_H-M   'P n a 21'
_symmetry_Int_Tables_number      33
_space_group_name_Hall           'P 2c -2n'
loop_
_symmetry_equiv_pos_site_id
_symmetry_equiv_pos_as_xyz
1 x,y,z
2 -x,-y,1/2+z
3 1/2+x,1/2-y,z
4 1/2-x,1/2+y,1/2+z
_cell_length_a                   18.3415(14)
_cell_length_b                   10.9172(8)
_cell_length_c                   22.4764(17)
_cell_angle_alpha                90
_cell_angle_beta                 90
_cell_angle_gamma                90
_cell_volume                     4500.63
loop_
_atom_site_label
_atom_site_type_symbol
_atom_site_fract_x
_atom_site_fract_y
_atom_site_fract_z
K1 K 0.13597(5) 0.79772(8) 0.35444(4)
P1 P 0.31600(6) 0.83629(9) 0.35468(5)
C1 C 0.3119(2) 1.0008(4) 0.36970(16)
C2 C 0.2598(3) 1.0584(4) 0.40590(19)
H1 H 0.2251 1.0099 0.4266
C3 C 0.2581(3) 1.1841(4) 0.4120(2)
H2 H 0.2229 1.2208 0.4373
C4 C 0.3075(3) 1.2577(4) 0.3813(2)
H3 H 0.3059 1.3443 0.3853
C5 C 0.3579(3) 1.2038(4) 0.3456(2)
H4 H 0.3915 1.2533 0.3243
C6 C 0.3608(3) 1.0769(4) 0.33992(19)
H5 H 0.3971 1.0414 0.3151
C7 C 0.3101(2) 0.7692(3) 0.42815(19)
C8 C 0.3215(2) 0.8302(4) 0.4826(2)
H6 H 0.3288 0.9163 0.4823
C9 C 0.3223(2) 0.7682(4) 0.5367(2)
H7 H 0.3307 0.8122 0.5725
C10 C 0.3110(2) 0.6431(4) 0.5386(2)
H8 H 0.3115 0.6008 0.5755
C11 C 0.2989(3) 0.5810(4) 0.4867(2)
H9 H 0.2915 0.4949 0.4877
C12 C 0.2973(2) 0.6417(4) 0.4327(2)
H10 H 0.2873 0.5964 0.3976
N1 N 0.0878(2) 0.5475(4) 0.37290(19)
N2 N 0.0664(2) 0.7516(3) 0.46524(16)
N3 N 0.0290(2) 0.9838(3) 0.39744(15)
C13 C 0.0504(3) 0.5223(5) 0.3162(3)
H11 H 0.0861 0.5212 0.2838
H12 H 0.0141 0.5864 0.3086
H13 H 0.0260 0.4426 0.3184
C14 C 0.1410(3) 0.4520(5) 0.3798(3)
H14 H 0.1734 0.4720 0.4131
H15 H 0.1697 0.4447 0.3432
H16 H 0.1162 0.3743 0.3878
C15 C 0.0289(4) 0.5579(5) 0.4169(3)
H17 H -0.0120 0.6043 0.3991
H18 H 0.0108 0.4748 0.4266
C16 C 0.0514(4) 0.6185(5) 0.4719(2)
H19 H 0.0959 0.5779 0.4871
H20 H 0.0126 0.6075 0.5021
C17 C 0.1219(3) 0.7867(5) 0.5086(2)
H21 H 0.1365 0.8718 0.5016
H22 H 0.1644 0.7330 0.5043
H23 H 0.1020 0.7788 0.5488
C18 C -0.0004(2) 0.8234(4) 0.47286(19)
H24 H -0.0171 0.8155 0.5146
H25 H -0.0389 0.7888 0.4469
C19 C 0.0084(3) 0.9563(4) 0.4586(2)
H26 H -0.0381 0.9985 0.4674
H27 H 0.0459 0.9910 0.4854
C20 C -0.0301(3) 0.9558(4) 0.3567(2)
H28 H -0.0416 0.8682 0.3590
H29 H -0.0153 0.9765 0.3160
H30 H -0.0733 1.0037 0.3676
C21 C 0.0472(3) 1.1145(4) 0.3929(2)
H31 H 0.0579 1.1349 0.3514
H32 H 0.0900 1.1320 0.4176
H33 H 0.0059 1.1636 0.4068
K2 K 0.39597(5) 0.74862(8) 0.22395(4)
P2 P 0.07483(7) 0.83501(10) 0.21743(5)
C22 C 0.0831(2) 1.0001(4) 0.20638(17)
C23 C 0.0417(2) 1.0683(4) 0.1645(2)
H34 H 0.0090 1.0269 0.1387
C24 C 0.0483(3) 1.1945(4) 0.1610(2)
H35 H 0.0211 1.2377 0.1317
C25 C 0.0931(3) 1.2587(5) 0.1986(2)
H36 H 0.0967 1.3453 0.1960
C26 C 0.1322(3) 1.1956(5) 0.2397(2)
H37 H 0.1625 1.2393 0.2666
C27 C 0.1289(3) 1.0675(4) 0.2435(2)
H38 H 0.1583 1.0260 0.2719
C28 C 0.0815(2) 0.7695(4) 0.14359(18)
C29 C 0.0983(2) 0.8298(4) 0.08987(18)
H39 H 0.1070 0.9156 0.0905
C30 C 0.1025(2) 0.7685(4) 0.03656(19)
H40 H 0.1132 0.8130 0.0013
C31 C 0.0915(2) 0.6439(4) 0.0332(2)
H41 H 0.0948 0.6023 -0.0038
C32 C 0.0757(2) 0.5805(4) 0.0849(2)
H42 H 0.0684 0.4944 0.0835
C33 C 0.0703(2) 0.6418(4) 0.13871(19)
H43 H 0.0586 0.5965 0.1735
N4 N 0.3084(2) 0.5369(3) 0.19996(16)
N5 N 0.33618(19) 0.7224(3) 0.10534(15)
N6 N 0.3602(2) 0.9709(3) 0.16171(16)
C34 C 0.3351(3) 0.4282(5) 0.2303(3)
H44 H 0.3018 0.3597 0.2230
H45 H 0.3379 0.4442 0.2731
H46 H 0.3837 0.4075 0.2152
C35 C 0.2404(3) 0.5768(5) 0.2271(2)
H47 H 0.2028 0.5142 0.2208
H48 H 0.2248 0.6540 0.2088
H49 H 0.2478 0.5890 0.2698
C36 C 0.3003(3) 0.5128(4) 0.13621(19)
H50 H 0.2613 0.4512 0.1306
H51 H 0.3462 0.4768 0.1211
C37 C 0.2822(3) 0.6244(5) 0.0994(2)
H52 H 0.2788 0.6002 0.0570
H53 H 0.2339 0.6561 0.1117
C38 C 0.4042(2) 0.6899(5) 0.0756(2)
H54 H 0.4389 0.7576 0.0794
H55 H 0.3946 0.6739 0.0335
H56 H 0.4247 0.6163 0.0942
C39 C 0.3085(3) 0.8366(4) 0.08143(19)
H57 H 0.2579 0.8483 0.0957
H58 H 0.3067 0.8299 0.0375
C40 C 0.3524(3) 0.9485(4) 0.09757(19)
H59 H 0.4016 0.9403 0.0800
H60 H 0.3290 1.0211 0.0793
C41 C 0.4083(3) 1.0762(4) 0.1707(2)
H61 H 0.4152 1.0897 0.2135
H62 H 0.3862 1.1491 0.1528
H63 H 0.4555 1.0602 0.1519
C42 C 0.2887(3) 0.9966(5) 0.1883(2)
H64 H 0.2951 1.0221 0.2298
H65 H 0.2585 0.9226 0.1869
H66 H 0.2646 1.0623 0.1660
P2B P 0.57483(7) 0.66499(10) 0.21743(5)
K2B K -0.10403(5) 0.75138(8) 0.22395(4)
loop_
_geom_bond_atom_site_label_1
_geom_bond_atom_site_label_2
_geom_bond_site_symmetry_1
_geom_bond_site_symmetry_2
K1 P1 1_555 1_555
P1 C1 1_555 1_555
C1 C2 1_555 1_555
C2 H1 1_555 1_555
C3 C2 1_555 1_555
H2 C3 1_555 1_555
C4 C3 1_555 1_555
H3 C4 1_555 1_555
C5 C4 1_555 1_555
H4 C5 1_555 1_555
C6 C1 1_555 1_555
H5 C6 1_555 1_555
C7 P1 1_555 1_555
C8 C7 1_555 1_555
H6 C8 1_555 1_555
C9 C8 1_555 1_555
H7 C9 1_555 1_555
C10 C9 1_555 1_555
H8 C10 1_555 1_555
C11 C10 1_555 1_555
H9 C11 1_555 1_555
C12 C7 1_555 1_555
H10 C12 1_555 1_555
N1 K1 1_555 1_555
N2 K1 1_555 1_555
N3 K1 1_555 1_555
C13 N1 1_555 1_555
H11 C13 1_555 1_555
H12 C13 1_555 1_555
H13 C13 1_555 1_555
C14 N1 1_555 1_555
H14 C14 1_555 1_555
H15 C14 1_555 1_555
H16 C14 1_555 1_555
C15 N1 1_555 1_555
H17 C15 1_555 1_555
H18 C15 1_555 1_555
C16 N2 1_555 1_555
H19 C16 1_555 1_555
H20 C16 1_555 1_555
C17 N2 1_555 1_555
H21 C17 1_555 1_555
H22 C17 1_555 1_555
H23 C17 1_555 1_555
C18 N2 1_555 1_555
H24 C18 1_555 1_555
H25 C18 1_555 1_555
C19 N3 1_555 1_555
H26 C19 1_555 1_555
H27 C19 1_555 1_555
C20 N3 1_555 1_555
H28 C20 1_555 1_555
H29 C20 1_555 1_555
H30 C20 1_555 1_555
C21 N3 1_555 1_555
H31 C21 1_555 1_555
H32 C21 1_555 1_555
H33 C21 1_555 1_555
K2 P1 1_555 1_555
P2 K1 1_555 1_555
C22 P2 1_555 1_555
C23 C22 1_555 1_555
H34 C23 1_555 1_555
C24 C23 1_555 1_555
H35 C24 1_555 1_555
C25 C24 1_555 1_555
H36 C25 1_555 1_555
C26 C25 1_555 1_555
H37 C26 1_555 1_555
C27 C22 1_555 1_555
H38 C27 1_555 1_555
C28 P2 1_555 1_555
C29 C28 1_555 1_555
H39 C29 1_555 1_555
C30 C29 1_555 1_555
H40 C30 1_555 1_555
C31 C30 1_555 1_555
H41 C31 1_555 1_555
C32 C31 1_555 1_555
H42 C32 1_555 1_555
C33 C28 1_555 1_555
H43 C33 1_555 1_555
N4 K2 1_555 1_555
N5 K2 1_555 1_555
N6 K2 1_555 1_555
C34 N4 1_555 1_555
H44 C34 1_555 1_555
H45 C34 1_555 1_555
H46 C34 1_555 1_555
C35 N4 1_555 1_555
H47 C35 1_555 1_555
H48 C35 1_555 1_555
H49 C35 1_555 1_555
C36 N4 1_555 1_555
H50 C36 1_555 1_555
H51 C36 1_555 1_555
C37 N5 1_555 1_555
H52 C37 1_555 1_555
H53 C37 1_555 1_555
C38 N5 1_555 1_555
H54 C38 1_555 1_555
H55 C38 1_555 1_555
H56 C38 1_555 1_555
C39 N5 1_555 1_555
H57 C39 1_555 1_555
H58 C39 1_555 1_555
C40 N6 1_555 1_555
H59 C40 1_555 1_555
H60 C40 1_555 1_555
C41 N6 1_555 1_555
H61 C41 1_555 1_555
H62 C41 1_555 1_555
H63 C41 1_555 1_555
C42 N6 1_555 1_555
H64 C42 1_555 1_555
H65 C42 1_555 1_555
H66 C42 1_555 1_555
P2B K2 1_555 1_555
K2B P2 1_555 1_555
C5 C6 1_555 1_555
C11 C12 1_555 1_555
C15 C16 1_555 1_555
C18 C19 1_555 1_555
C26 C27 1_555 1_555
C32 C33 1_555 1_555
C36 C37 1_555 1_555
C39 C40 1_555 1_555

#END
