
#######################################################################
#
#                 Cambridge Crystallographic Data Centre
#                                CCDC 
#
#######################################################################
#
# If this CIF has been generated from an entry in the Cambridge 
# Structural Database, then it will include bibliographic, chemical, 
# crystal, experimental, refinement or atomic coordinate data resulting 
# from the CCDC's data processing and validation procedures.
#
#######################################################################

data_IKURIP
_symmetry_cell_setting           triclinic
_symmetry_space_group_name_H-M   'P -1'
_symmetry_Int_Tables_number      2
_space_group_name_Hall           '-P 1'
loop_
_symmetry_equiv_pos_site_id
_symmetry_equiv_pos_as_xyz
1 x,y,z
2 -x,-y,-z
_cell_length_a                   9.556(3)
_cell_length_b                   10.318(4)
_cell_length_c                   11.079(5)
_cell_angle_alpha                70.18(3)
_cell_angle_beta                 66.12(3)
_cell_angle_gamma                63.02(3)
_cell_volume                     873.814
loop_
_atom_site_label
_atom_site_type_symbol
_atom_site_fract_x
_atom_site_fract_y
_atom_site_fract_z
Rh1 Rh 0.62292(9) 0.50669(7) 0.49742(8)
O1 O 0.6436(7) 0.6181(7) 0.3039(7)
O2 O 0.4143(7) 0.6005(6) 0.3082(6)
O3 O 0.7494(7) 0.3085(6) 0.4379(6)
O4 O 0.5174(7) 0.2946(6) 0.4416(6)
N1 N 0.8546(9) 0.5027(8) 0.4987(8)
C1 C 0.557(1) 0.7185(10) 0.1066(10)
C2 C 0.677(1) 0.784(1) 0.041(1)
C3 C 0.695(1) 0.856(1) -0.093(1)
C4 C 0.602(1) 0.859(1) -0.160(1)
C5 C 0.484(1) 0.794(1) -0.095(1)
C6 C 0.460(1) 0.726(1) 0.037(1)
C7 C 0.5380(10) 0.6393(9) 0.2509(10)
C8 C 0.769(1) 0.0973(9) 0.3824(9)
C9 C 0.941(1) 0.0327(10) 0.3610(10)
C10 C 1.031(1) -0.1014(10) 0.321(1)
C11 C 0.955(1) -0.1784(10) 0.3063(9)
C12 C 0.785(1) -0.1190(10) 0.3320(9)
C13 C 0.693(1) 0.0180(9) 0.3679(9)
C14 C 0.6718(10) 0.2453(9) 0.4220(9)
C15 C 0.8567(10) 0.5665(9) 0.5853(8)
C16 C 0.9969(10) 0.4403(9) 0.4115(9)
H1 H 0.7446 0.7798 0.0872
H2 H 0.7721 0.9037 -0.1379
H3 H 0.6170 0.9048 -0.2522
H4 H 0.4191 0.7968 -0.1426
H5 H 0.3777 0.6842 0.0815
H6 H 0.9945 0.0826 0.3747
H7 H 1.1476 -0.1414 0.3022
H8 H 1.0180 -0.2716 0.2791
H9 H 0.7322 -0.1734 0.3248
H10 H 0.5777 0.0585 0.3827
H11 H 0.7559 0.6171 0.6453
H12 H 0.9962 0.4149 0.3350
C16A C 1.0031(10) 0.5597(9) 0.5885(9)
N1A N 1.1454(9) 0.4973(8) 0.5013(8)
C15A C 1.1433(10) 0.4335(9) 0.4147(8)
H11A H 1.2441 0.3829 0.3547
H12A H 1.0038 0.5851 0.6650
O1A O 0.3564(7) 0.3819(7) 0.6961(7)
O2A O 0.5857(7) 0.3995(6) 0.6918(6)
C1A C 0.443(1) 0.2815(10) 0.8934(10)
C2A C 0.323(1) 0.216(1) 0.959(1)
C3A C 0.305(1) 0.144(1) 1.093(1)
C4A C 0.398(1) 0.141(1) 1.160(1)
C5A C 0.516(1) 0.206(1) 1.095(1)
C6A C 0.540(1) 0.274(1) 0.963(1)
C7A C 0.4620(10) 0.3607(9) 0.7491(10)
H1A H 0.2554 0.2202 0.9128
H2A H 0.2279 0.0963 1.1379
H3A H 0.3830 0.0952 1.2522
H4A H 0.5809 0.2032 1.1426
H5A H 0.6223 0.3158 0.9185
O3A O 0.2506(7) 0.6915(6) 0.5621(6)
O4A O 0.4826(7) 0.7054(6) 0.5584(6)
C8A C 0.231(1) 0.9027(9) 0.6176(9)
C9A C 0.059(1) 0.9673(10) 0.6390(10)
C10A C -0.031(1) 1.1014(10) 0.679(1)
C11A C 0.045(1) 1.1784(10) 0.6937(9)
C12A C 0.215(1) 1.1190(10) 0.6680(9)
C13A C 0.307(1) 0.9820(9) 0.6321(9)
C14A C 0.3282(10) 0.7547(9) 0.5780(9)
H6A H 0.0055 0.9174 0.6253
H7A H -0.1476 1.1414 0.6978
H8A H -0.0180 1.2716 0.7209
H9A H 0.2678 1.1734 0.6752
H10A H 0.4223 0.9415 0.6173
Rh1A Rh 0.37708(9) 0.49331(7) 0.50258(8)
Rh1A_2 Rh 1.37708(9) 0.49331(7) 0.50258(8)
N1A_2 N 0.1454(9) 0.4973(8) 0.5013(8)
O5 O 1.026(2) 0.889(1) 0.9796(10)
C17 C 1.0000 1.0000 1.0000
O5A O 0.974(2) 1.111(1) 1.0204(10)
O6 O 1.160(1) 0.552(1) 1.0914(10)
O7 O 1.102(1) 0.602(1) 0.895(1)
C18 C 1.132(2) 0.579(1) 0.996(1)
loop_
_geom_bond_atom_site_label_1
_geom_bond_atom_site_label_2
_geom_bond_site_symmetry_1
_geom_bond_site_symmetry_2
Rh1 O1 1_555 1_555
O1 C7 1_555 1_555
O2 C7 1_555 1_555
O3 Rh1 1_555 1_555
O4 C14 1_555 1_555
O5 C17 1_555 1_555
O6 C18 1_555 1_555
O7 C18 1_555 1_555
N1 Rh1 1_555 1_555
C1 C2 1_555 1_555
C2 C3 1_555 1_555
C3 C4 1_555 1_555
C4 C5 1_555 1_555
C5 C6 1_555 1_555
C6 C1 1_555 1_555
C7 C1 1_555 1_555
C8 C9 1_555 1_555
C9 C10 1_555 1_555
C10 C11 1_555 1_555
C11 C12 1_555 1_555
C12 C13 1_555 1_555
C13 C8 1_555 1_555
C14 O3 1_555 1_555
C15 N1 1_555 1_555
C16 N1 1_555 1_555
C17 O5A 1_555 1_555
H1 C2 1_555 1_555
H2 C3 1_555 1_555
H3 C4 1_555 1_555
H4 C5 1_555 1_555
H5 C6 1_555 1_555
H6 C9 1_555 1_555
H7 C10 1_555 1_555
H8 C11 1_555 1_555
H9 C12 1_555 1_555
H10 C13 1_555 1_555
H11 C15 1_555 1_555
H12 C16 1_555 1_555
C16A C15 1_555 1_555
N1A C16A 1_555 1_555
C15A C16 1_555 1_555
H11A C15A 1_555 1_555
H12A C16A 1_555 1_555
O1A C7A 1_555 1_555
O2A Rh1 1_555 1_555
C1A C2A 1_555 1_555
C2A C3A 1_555 1_555
C3A C4A 1_555 1_555
C4A C5A 1_555 1_555
C5A C6A 1_555 1_555
C6A C1A 1_555 1_555
C7A O2A 1_555 1_555
H1A C2A 1_555 1_555
H2A C3A 1_555 1_555
H3A C4A 1_555 1_555
H4A C5A 1_555 1_555
H5A C6A 1_555 1_555
O3A C14A 1_555 1_555
O4A Rh1 1_555 1_555
C8A C9A 1_555 1_555
C9A C10A 1_555 1_555
C10A C11A 1_555 1_555
C11A C12A 1_555 1_555
C12A C13A 1_555 1_555
C13A C8A 1_555 1_555
C14A O4A 1_555 1_555
H6A C9A 1_555 1_555
H7A C10A 1_555 1_555
H8A C11A 1_555 1_555
H9A C12A 1_555 1_555
H10A C13A 1_555 1_555
Rh1A Rh1 1_555 1_555
Rh1A_2 N1A 1_555 1_555
N1A_2 Rh1A 1_555 1_555
O2 Rh1A 1_555 1_555
O4 Rh1A 1_555 1_555
C8 C14 1_555 1_555
N1A C15A 1_555 1_555
O1A Rh1A 1_555 1_555
C1A C7A 1_555 1_555
O3A Rh1A 1_555 1_555
C8A C14A 1_555 1_555

#END
