
#######################################################################
#
#                 Cambridge Crystallographic Data Centre
#                                CCDC 
#
#######################################################################
#
# If this CIF has been generated from an entry in the Cambridge 
# Structural Database, then it will include bibliographic, chemical, 
# crystal, experimental, refinement or atomic coordinate data resulting 
# from the CCDC's data processing and validation procedures.
#
#######################################################################

data_IKUWAM
_symmetry_cell_setting           triclinic
_symmetry_space_group_name_H-M   'P -1'
_symmetry_Int_Tables_number      2
_space_group_name_Hall           '-P 1'
loop_
_symmetry_equiv_pos_site_id
_symmetry_equiv_pos_as_xyz
1 x,y,z
2 -x,-y,-z
_cell_length_a                   7.3914(17)
_cell_length_b                   9.863(2)
_cell_length_c                   10.311(2)
_cell_angle_alpha                107.030(4)
_cell_angle_beta                 105.119(4)
_cell_angle_gamma                98.158(4)
_cell_volume                     674.167
loop_
_atom_site_label
_atom_site_type_symbol
_atom_site_fract_x
_atom_site_fract_y
_atom_site_fract_z
Cu1 Cu 0.38305(14) 0.50920(10) 0.25142(9)
N1 N 0.2632(8) 0.3929(6) 0.0472(6)
C1 C 0.2215(12) 0.2466(9) 0.0110(8)
H1 H 0.287(8) 0.205(6) 0.089(4)
C2 C 0.1167(12) 0.1510(9) -0.1218(8)
H2 H 0.089(10) 0.041(2) -0.128(7)
C3 C 0.0468(12) 0.2062(10) -0.2264(8)
H3 H -0.061(7) 0.144(7) -0.324(4)
C4 C 0.0825(12) 0.3528(10) -0.1958(8)
H4 H 0.022(9) 0.412(7) -0.258(6)
C5 C 0.1962(10) 0.4432(9) -0.0562(8)
N2 N 0.2287(9) 0.5935(8) -0.0286(6)
H5 H 0.152(7) 0.606(6) -0.112(3)
C6 C 0.3353(10) 0.7125(8) 0.0893(7)
C7 C 0.3564(12) 0.8503(9) 0.0765(8)
H6 H 0.267(8) 0.870(7) -0.010(5)
C8 C 0.4615(12) 0.9696(8) 0.1922(10)
H7 H 0.428(9) 1.055(5) 0.156(6)
C9 C 0.5490(12) 0.9534(8) 0.3171(8)
H8 H 0.652(6) 1.021(5) 0.415(3)
C10 C 0.5277(11) 0.8166(9) 0.3250(7)
H9 H 0.588(6) 0.810(5) 0.426(2)
N3 N 0.4182(8) 0.6942(6) 0.2120(6)
P1 P 0.6683(3) 0.3960(2) 0.4330(2)
O1 O 0.5053(7) 0.3590(5) 0.2991(4)
O2 O 0.6102(7) 0.3921(5) 0.5589(4)
O3 O 0.7968(6) 0.5493(5) 0.4608(4)
O4 O 0.7971(7) 0.2845(5) 0.4087(5)
V1 V 0.96535(18) 0.70064(13) 0.61460(13)
O5 O 0.9044(7) 0.8501(5) 0.6210(5)
O6 O 0.9723(8) 0.6687(6) 0.7581(5)
O2A O 0.3898(7) 0.6079(5) 0.4411(4)
Cu1A Cu 0.61695(14) 0.49080(10) 0.74858(9)
V1A V 1.03465(18) 0.29936(13) 0.38540(13)
O4A O 1.2029(7) 0.7155(5) 0.5913(5)
loop_
_geom_bond_atom_site_label_1
_geom_bond_atom_site_label_2
_geom_bond_site_symmetry_1
_geom_bond_site_symmetry_2
Cu1 N1 1_555 1_555
N1 C1 1_555 1_555
C1 H1 1_555 1_555
C2 C1 1_555 1_555
H2 C2 1_555 1_555
C3 C2 1_555 1_555
H3 C3 1_555 1_555
C4 C3 1_555 1_555
H4 C4 1_555 1_555
C5 N1 1_555 1_555
N2 C5 1_555 1_555
H5 N2 1_555 1_555
C6 N2 1_555 1_555
C7 C6 1_555 1_555
H6 C7 1_555 1_555
C8 C7 1_555 1_555
H7 C8 1_555 1_555
C9 C8 1_555 1_555
H8 C9 1_555 1_555
C10 C9 1_555 1_555
H9 C10 1_555 1_555
N3 Cu1 1_555 1_555
P1 O1 1_555 1_555
O1 Cu1 1_555 1_555
O2 P1 1_555 1_555
O3 P1 1_555 1_555
O4 P1 1_555 1_555
V1 O3 1_555 1_555
O5 V1 1_555 1_555
O6 V1 1_555 1_555
O2A Cu1 1_555 1_555
Cu1A O2 1_555 1_555
V1A O4 1_555 1_555
O4A V1 1_555 1_555
C4 C5 1_555 1_555
C6 N3 1_555 1_555
C10 N3 1_555 1_555

#END
