
#######################################################################
#
#                 Cambridge Crystallographic Data Centre
#                                CCDC 
#
#######################################################################
#
# If this CIF has been generated from an entry in the Cambridge 
# Structural Database, then it will include bibliographic, chemical, 
# crystal, experimental, refinement or atomic coordinate data resulting 
# from the CCDC's data processing and validation procedures.
#
#######################################################################

data_ILAFEH
_symmetry_cell_setting           monoclinic
_symmetry_space_group_name_H-M   'P 21/m'
_symmetry_Int_Tables_number      11
_space_group_name_Hall           '-P 2yb'
loop_
_symmetry_equiv_pos_site_id
_symmetry_equiv_pos_as_xyz
1 x,y,z
2 -x,1/2+y,-z
3 -x,-y,-z
4 x,1/2-y,z
_cell_length_a                   6.427(4)
_cell_length_b                   22.074(15)
_cell_length_c                   7.176(5)
_cell_angle_alpha                90
_cell_angle_beta                 114.609(17)
_cell_angle_gamma                90
_cell_volume                     925.587
loop_
_atom_site_label
_atom_site_type_symbol
_atom_site_fract_x
_atom_site_fract_y
_atom_site_fract_z
Ag2 Ag 0.3960(3) 0.7500 1.3481(2)
C1 C 1.0961(19) 0.4878(5) 1.2622(17)
C2 C 1.3055(19) 0.4015(5) 1.3359(16)
H1 H 1.4378 0.3808 1.3516
C3 C 1.1339(19) 0.3694(5) 1.3552(18)
H2 H 1.1480 0.3284 1.3887
C4 C 0.944(2) 0.4011(5) 1.3226(19)
H3 H 0.8218 0.3804 1.3311
C5 C 0.6491(18) 0.6956(4) 1.1075(16)
H4 H 0.7969 0.7006 1.2222
H5 H 0.6749 0.6912 0.9843
C6 C 0.5352(17) 0.6377(4) 1.1397(16)
C7 C 0.299(3) 0.7500 0.903(2)
H6 H 0.1577 0.7500 0.9102
C8 C 0.314(3) 0.7500 0.694(3)
N1 N 0.9168(16) 0.4605(4) 1.2783(14)
N2 N 1.2954(15) 0.4600(4) 1.2964(14)
N3 N 1.0775(16) 0.5470(4) 1.2216(14)
H7 H 0.9549 0.5660 1.2070
H8 H 1.1881 0.5661 1.2101
N4 N 0.5108(19) 0.7500 1.0889(17)
O1 O 0.3842(14) 0.6388(3) 1.1972(12)
O2 O 0.6323(13) 0.5900(3) 1.1081(13)
O3 O 0.511(2) 0.7500 0.6924(18)
O4 O 0.137(2) 0.7500 0.5413(19)
Ag1B Ag 0.56418(15) 0.50185(4) 1.22771(15)
Ag1A Ag 0.56418(15) 0.99815(4) 1.22771(15)
Ag1B_2 Ag 1.56418(15) 0.50185(4) 1.22771(15)
Ag1B_3 Ag -0.43582(15) 0.50185(4) 1.22771(15)
Ag2_2 Ag 0.3960(3) 0.7500 0.3481(2)
C1_2 C 0.0961(19) 0.4878(5) 1.2622(17)
C2_2 C 0.3055(19) 0.4015(5) 1.3359(16)
H1_2 H 0.4378 0.3808 1.3516
C3_2 C 0.1339(19) 0.3694(5) 1.3552(18)
H2_2 H 0.1480 0.3284 1.3887
C4_2 C -0.056(2) 0.4011(5) 1.3226(19)
H3_2 H -0.1782 0.3804 1.3311
C5C C 0.6491(18) 0.8044(4) 1.1075(16)
H4C H 0.7969 0.7994 1.2222
H5C H 0.6749 0.8088 0.9843
C6C C 0.5352(17) 0.8623(4) 1.1397(16)
N1_2 N -0.0832(16) 0.4605(4) 1.2783(14)
N1C N 0.9168(16) 1.0395(4) 1.2783(14)
N2_2 N 0.2954(15) 0.4600(4) 1.2964(14)
N2C N 0.2954(15) 1.0400(4) 1.2964(14)
N3_2 N 0.0775(16) 0.5470(4) 1.2216(14)
H7_2 H -0.0451 0.5660 1.2070
H8_2 H 0.1881 0.5661 1.2101
O1C O 0.3842(14) 0.8612(3) 1.1972(12)
O2C O 0.6323(13) 0.9100(3) 1.1081(13)
O3_2 O 0.511(2) 0.7500 1.6924(18)
O4_2 O 0.137(2) 0.7500 1.5413(19)
Ag1C Ag 0.43582(15) 1.00185(4) 0.77229(15)
Ag1 Ag 0.43582(15) 0.49815(4) 0.77229(15)
loop_
_geom_bond_atom_site_label_1
_geom_bond_atom_site_label_2
_geom_bond_site_symmetry_1
_geom_bond_site_symmetry_2
Ag2 N4 1_555 1_555
C1 N1 1_555 1_555
C2 H1 1_555 1_555
C3 C2 1_555 1_555
H2 C3 1_555 1_555
C4 C3 1_555 1_555
H3 C4 1_555 1_555
C5 H4 1_555 1_555
H5 C5 1_555 1_555
C6 C5 1_555 1_555
C7 H6 1_555 1_555
C8 C7 1_555 1_555
N1 C4 1_555 1_555
N2 C1 1_555 1_555
N3 C1 1_555 1_555
H7 N3 1_555 1_555
H8 N3 1_555 1_555
N4 C5 1_555 1_555
O1 Ag2 1_555 1_555
O2 C6 1_555 1_555
O3 C8 1_555 1_555
O4 C8 1_555 1_555
Ag1B N1 1_555 1_555
Ag1A N1C 1_555 1_555
Ag1B_2 N2 1_555 1_555
Ag1B_3 N1_2 1_555 1_555
Ag2_2 O3 1_555 1_555
C1_2 N1_2 1_555 1_555
C2_2 H1_2 1_555 1_555
C3_2 C2_2 1_555 1_555
H2_2 C3_2 1_555 1_555
C4_2 C3_2 1_555 1_555
H3_2 C4_2 1_555 1_555
C5C N4 1_555 1_555
H4C C5C 1_555 1_555
H5C C5C 1_555 1_555
C6C C5C 1_555 1_555
N1_2 C4_2 1_555 1_555
N2_2 Ag1B 1_555 1_555
N2C Ag1A 1_555 1_555
N3_2 C1_2 1_555 1_555
H7_2 N3_2 1_555 1_555
H8_2 N3_2 1_555 1_555
O1C Ag2 1_555 1_555
O2C Ag1A 1_555 1_555
O3_2 Ag2 1_555 1_555
O4_2 Ag2 1_555 1_555
C2 N2 1_555 1_555
C6 O1 1_555 1_555
C7 N4 1_555 1_555
O2 Ag1B 1_555 1_555
O4 Ag2_2 1_555 1_555
C1_2 N2_2 1_555 1_555
C2_2 N2_2 1_555 1_555
C6C O1C 1_555 1_555
C6C O2C 1_555 1_555

#END
