
#######################################################################
#
#                 Cambridge Crystallographic Data Centre
#                                CCDC 
#
#######################################################################
#
# If this CIF has been generated from an entry in the Cambridge 
# Structural Database, then it will include bibliographic, chemical, 
# crystal, experimental, refinement or atomic coordinate data resulting 
# from the CCDC's data processing and validation procedures.
#
#######################################################################

data_ILAFOQ
_symmetry_cell_setting           monoclinic
_symmetry_space_group_name_H-M   'P 21/c'
_symmetry_Int_Tables_number      14
_space_group_name_Hall           '-P 2ybc'
loop_
_symmetry_equiv_pos_site_id
_symmetry_equiv_pos_as_xyz
1 x,y,z
2 x,1/2-y,1/2+z
3 -x,-y,-z
4 -x,1/2+y,1/2-z
_cell_length_a                   20.500(3)
_cell_length_b                   10.1594(16)
_cell_length_c                   13.386(2)
_cell_angle_alpha                90
_cell_angle_beta                 104.987(3)
_cell_angle_gamma                90
_cell_volume                     2693.04
loop_
_atom_site_label
_atom_site_type_symbol
_atom_site_fract_x
_atom_site_fract_y
_atom_site_fract_z
Na1 Na 0.18306(5) 0.26320(9) 0.98537(6)
O1 O 0.08190(9) 0.15900(17) 0.87125(13)
N1 N 0.08969(9) 0.0978(2) 0.79241(14)
C1 C 0.05494(12) -0.0310(2) 0.75865(18)
C2 C -0.01839(13) 0.0043(3) 0.7069(3)
H1 H -0.0355(17) 0.044(4) 0.759(2)
H2 H -0.0479(18) -0.077(4) 0.670(3)
H3 H -0.0190(16) 0.069(3) 0.639(2)
C3 C 0.0599(2) -0.1185(4) 0.8516(3)
H4 H 0.1068(16) -0.140(3) 0.885(2)
H5 H 0.045(2) -0.209(5) 0.834(3)
H6 H 0.0394(17) -0.080(3) 0.897(3)
C4 C 0.09467(11) -0.0800(2) 0.68172(17)
C5 C 0.05240(17) -0.1516(3) 0.5865(2)
H7 H 0.0785(15) -0.170(3) 0.534(2)
H8 H 0.0133(16) -0.094(3) 0.544(2)
H9 H 0.0328(19) -0.225(4) 0.611(3)
C6 C 0.15739(16) -0.1584(3) 0.7313(3)
H10 H 0.1833(16) -0.172(3) 0.696(2)
H11 H 0.1473(17) -0.248(4) 0.736(2)
H12 H 0.1839(15) -0.114(3) 0.789(2)
N2 N 0.11877(9) 0.05037(19) 0.65068(14)
O2 O 0.14080(10) 0.06113(17) 0.56969(13)
C7 C 0.12102(11) 0.1436(2) 0.72178(16)
C8 C 0.14863(10) 0.2757(2) 0.72350(16)
N3 N 0.16428(9) 0.35144(18) 0.80771(14)
N4 N 0.18406(10) 0.4650(2) 0.77510(15)
N5 N 0.18053(11) 0.4572(2) 0.67643(15)
N6 N 0.15884(11) 0.3369(2) 0.64118(15)
O3 O 0.24438(15) 0.0955(3) 0.9356(2)
H13 H 0.2700(16) 0.069(3) 0.906(2)
H14 H 0.2449(18) 0.040(4) 0.972(3)
O4 O 0.28919(11) 0.3753(2) 1.05055(19)
H15 H 0.310(3) 0.405(7) 0.999(4)
H16 H 0.2964(17) 0.411(4) 1.112(3)
O2A O 0.14080(10) 0.43887(17) 1.06969(13)
N6A N 0.15884(11) 0.1631(2) 1.14118(15)
Na1A Na 0.18306(5) 0.23680(9) 0.48537(6)
Na2 Na 0.32379(5) 0.73522(10) 0.02024(6)
O5 O 0.41306(10) 0.86153(19) 0.12880(13)
N7 N 0.40596(9) 0.9209(2) 0.20887(14)
C9 C 0.43824(12) 1.0514(3) 0.24066(19)
C10 C 0.51401(15) 1.0184(4) 0.2861(3)
H17 H 0.532(2) 0.970(5) 0.229(3)
H18 H 0.515(2) 0.945(4) 0.359(3)
H19 H 0.546(2) 1.104(4) 0.323(3)
C11 C 0.4287(2) 1.1401(4) 0.1486(3)
H20 H 0.3763(14) 1.143(3) 0.1186(18)
H21 H 0.450(2) 1.104(4) 0.104(3)
H22 H 0.4451(18) 1.225(4) 0.168(3)
C12 C 0.40351(12) 1.0941(2) 0.32453(18)
C13 C 0.4484(2) 1.1613(4) 0.4196(3)
H23 H 0.4907(18) 1.098(4) 0.451(2)
H24 H 0.4236(14) 1.178(3) 0.477(2)
H25 H 0.467(2) 1.238(5) 0.397(3)
C14 C 0.33936(18) 1.1740(4) 0.2812(3)
H26 H 0.3080(18) 1.126(4) 0.217(3)
H27 H 0.3495(15) 1.267(3) 0.269(2)
H28 H 0.3174(19) 1.184(4) 0.320(3)
N8 N 0.38076(9) 0.96184(19) 0.35444(14)
O6 O 0.36128(10) 0.94734(17) 0.43780(12)
C15 C 0.37787(11) 0.8706(2) 0.28169(16)
C16 C 0.35293(10) 0.7366(2) 0.28084(16)
N9 N 0.33900(9) 0.65964(19) 0.19745(14)
N10 N 0.32162(10) 0.5445(2) 0.23093(15)
N11 N 0.32498(11) 0.5521(2) 0.32938(16)
N12 N 0.34412(11) 0.6740(2) 0.36379(15)
O7 O 0.23546(13) 0.8731(2) 0.05431(18)
H29 H 0.2187(17) 0.919(3) 0.101(2)
H30 H 0.2735(18) 0.930(4) 0.081(2)
O8 O 0.20523(12) 0.6327(2) -0.04354(19)
H31 H 0.181(3) 0.592(8) -0.007(5)
H32 H 0.1993(16) 0.591(4) -0.102(3)
O6A O 0.36128(10) 0.55266(17) -0.06220(12)
N12A N 0.34412(11) 0.8260(2) -0.13621(15)
Na2A Na 0.32379(5) 0.76478(10) 0.52024(6)
loop_
_geom_bond_atom_site_label_1
_geom_bond_atom_site_label_2
_geom_bond_site_symmetry_1
_geom_bond_site_symmetry_2
Na1 O1 1_555 1_555
O1 N1 1_555 1_555
N1 C1 1_555 1_555
C1 C2 1_555 1_555
C2 H1 1_555 1_555
H2 C2 1_555 1_555
H3 C2 1_555 1_555
C3 C1 1_555 1_555
H4 C3 1_555 1_555
H5 C3 1_555 1_555
H6 C3 1_555 1_555
C4 C1 1_555 1_555
C5 C4 1_555 1_555
H7 C5 1_555 1_555
H8 C5 1_555 1_555
H9 C5 1_555 1_555
C6 C4 1_555 1_555
H10 C6 1_555 1_555
H11 C6 1_555 1_555
H12 C6 1_555 1_555
N2 C4 1_555 1_555
O2 N2 1_555 1_555
C7 N1 1_555 1_555
C8 C7 1_555 1_555
N3 Na1 1_555 1_555
N4 N3 1_555 1_555
N5 N4 1_555 1_555
N6 C8 1_555 1_555
O3 Na1 1_555 1_555
H13 O3 1_555 1_555
H14 O3 1_555 1_555
O4 Na1 1_555 1_555
H15 O4 1_555 1_555
H16 O4 1_555 1_555
Na2 O5 1_555 1_555
O5 N7 1_555 1_555
N7 C9 1_555 1_555
C9 C10 1_555 1_555
C10 H17 1_555 1_555
H18 C10 1_555 1_555
H19 C10 1_555 1_555
C11 C9 1_555 1_555
H20 C11 1_555 1_555
H21 C11 1_555 1_555
H22 C11 1_555 1_555
C12 C9 1_555 1_555
C13 C12 1_555 1_555
H23 C13 1_555 1_555
H24 C13 1_555 1_555
H25 C13 1_555 1_555
C14 C12 1_555 1_555
H26 C14 1_555 1_555
H27 C14 1_555 1_555
H28 C14 1_555 1_555
N8 C12 1_555 1_555
O6 N8 1_555 1_555
C15 N7 1_555 1_555
C16 C15 1_555 1_555
N9 Na2 1_555 1_555
N10 N9 1_555 1_555
N11 N10 1_555 1_555
N12 C16 1_555 1_555
O7 Na2 1_555 1_555
H29 O7 1_555 1_555
H30 O7 1_555 1_555
O8 Na2 1_555 1_555
H31 O8 1_555 1_555
H32 O8 1_555 1_555
O2A Na1 1_555 1_555
N6A Na1 1_555 1_555
Na1A O2 1_555 1_555
O6A Na2 1_555 1_555
N12A Na2 1_555 1_555
Na2A O6 1_555 1_555
N2 C7 1_555 1_555
C8 N3 1_555 1_555
N5 N6 1_555 1_555
N6 Na1A 1_555 1_555
N8 C15 1_555 1_555
C16 N9 1_555 1_555
N11 N12 1_555 1_555
N12 Na2A 1_555 1_555

#END
