
#######################################################################
#
#                 Cambridge Crystallographic Data Centre
#                                CCDC 
#
#######################################################################
#
# If this CIF has been generated from an entry in the Cambridge 
# Structural Database, then it will include bibliographic, chemical, 
# crystal, experimental, refinement or atomic coordinate data resulting 
# from the CCDC's data processing and validation procedures.
#
#######################################################################

data_ILAFAC
_symmetry_cell_setting           monoclinic
_symmetry_space_group_name_H-M   'C 2/m'
_symmetry_Int_Tables_number      12
_space_group_name_Hall           '-C 2y'
loop_
_symmetry_equiv_pos_site_id
_symmetry_equiv_pos_as_xyz
1 x,y,z
2 1/2+x,1/2+y,z
3 -x,y,-z
4 1/2-x,1/2+y,-z
5 -x,-y,-z
6 1/2-x,1/2-y,-z
7 x,-y,z
8 1/2+x,1/2-y,z
_cell_length_a                   10.76728(15)
_cell_length_b                   6.96853(7)
_cell_length_c                   5.68972(10)
_cell_angle_alpha                90
_cell_angle_beta                 90.9445(11)
_cell_angle_gamma                90
_cell_volume                     426.854
loop_
_atom_site_label
_atom_site_type_symbol
_atom_site_fract_x
_atom_site_fract_y
_atom_site_fract_z
Cu1 Cu 0.00000 0.00000 0.0000
N1 N 0.00000 0.30022(28) 0.0000
N2 N -0.10235(23) 0.00000 0.2722(4)
C1 C 0.04890(23) 0.39925(28) 0.1773(5)
C2 C -0.15708(32) 0.00000 0.4488(6)
S1 S -0.2324(7) 0.00000 0.7036(12)
H1 H 0.0835(6) 0.3252(7) 0.3222(9)
C1F C 0.04890(23) 0.60075(28) 0.1773(5)
N1F N 0.00000 0.69978(28) 0.0000
C1D C -0.04890(23) 0.60075(28) -0.1773(5)
C1B C -0.04890(23) 0.39925(28) -0.1773(5)
H1B H -0.0835(6) 0.3252(7) -0.3222(9)
H1D H -0.0835(6) 0.6748(7) -0.3222(9)
H1F H 0.0835(6) 0.6748(7) 0.3222(9)
N2D N 0.10235(23) 0.00000 -0.2722(4)
C2D C 0.15708(32) 0.00000 -0.4488(6)
S1D S 0.2324(7) 0.00000 -0.7036(12)
N1F_2 N 0.00000 -0.30022(28) 0.0000
Cu1_2 Cu 0.00000 1.00000 0.0000
loop_
_geom_bond_atom_site_label_1
_geom_bond_atom_site_label_2
_geom_bond_site_symmetry_1
_geom_bond_site_symmetry_2
Cu1 N1 1_555 1_555
N1 C1 1_555 1_555
N2 Cu1 1_555 1_555
C1 H1 1_555 1_555
C2 N2 1_555 1_555
S1 C2 1_555 1_555
C1F C1 1_555 1_555
N1F C1F 1_555 1_555
C1D N1F 1_555 1_555
C1B N1 1_555 1_555
H1B C1B 1_555 1_555
H1D C1D 1_555 1_555
H1F C1F 1_555 1_555
N2D Cu1 1_555 1_555
C2D N2D 1_555 1_555
S1D C2D 1_555 1_555
N1F_2 Cu1 1_555 1_555
Cu1_2 N1F 1_555 1_555
C1D C1B 1_555 1_555

#END
