
#######################################################################
#
#                 Cambridge Crystallographic Data Centre
#                                CCDC 
#
#######################################################################
#
# If this CIF has been generated from an entry in the Cambridge 
# Structural Database, then it will include bibliographic, chemical, 
# crystal, experimental, refinement or atomic coordinate data resulting 
# from the CCDC's data processing and validation procedures.
#
#######################################################################

data_ILAFIL
_symmetry_cell_setting           orthorhombic
_symmetry_space_group_name_H-M   'P c c n'
_symmetry_Int_Tables_number      56
_space_group_name_Hall           '-P 2ab 2ac'
loop_
_symmetry_equiv_pos_site_id
_symmetry_equiv_pos_as_xyz
1 x,y,z
2 1/2-x,1/2-y,z
3 -x,1/2+y,1/2-z
4 1/2+x,-y,1/2-z
5 -x,-y,-z
6 1/2+x,1/2+y,-z
7 x,1/2-y,1/2+z
8 1/2-x,y,1/2+z
_cell_length_a                   24.864(5)
_cell_length_b                   10.098(2)
_cell_length_c                   15.504(3)
_cell_angle_alpha                90
_cell_angle_beta                 90
_cell_angle_gamma                90
_cell_volume                     3892.69
loop_
_atom_site_label
_atom_site_type_symbol
_atom_site_fract_x
_atom_site_fract_y
_atom_site_fract_z
Ag1 Ag 0.551199(15) 0.47561(4) 0.29244(3)
Ag2 Ag 0.468940(15) 0.90450(4) 0.56901(3)
C1 C 0.49687(18) 0.6641(4) 0.4272(3)
C2 C 0.41724(19) 0.6358(5) 0.4983(3)
H1 H 0.3922 0.6639 0.5389
C3 C 0.4072(2) 0.5215(5) 0.4548(4)
H2 H 0.3760 0.4730 0.4649
C4 C 0.44493(18) 0.4793(4) 0.3946(3)
C5 C 0.4376(2) 0.3575(5) 0.3424(4)
H3 H 0.4678 0.2997 0.3508
H4 H 0.4052 0.3132 0.3600
H5 H 0.4350 0.3807 0.2825
C6 C 0.6282(2) 0.2774(4) 0.1999(3)
H6 H 0.6634 0.2490 0.1803
H7 H 0.6035 0.2697 0.1517
C7 C 0.6096(2) 0.1852(4) 0.2718(4)
C8 C 0.67652(19) 0.4356(5) 0.2868(4)
H8 H 0.7098 0.4321 0.2543
H9 H 0.6767 0.3618 0.3269
C9 C 0.6756(2) 0.5628(5) 0.3381(4)
C10 C 0.63785(18) 0.5013(5) 0.1491(4)
H10 H 0.6659 0.4637 0.1132
H11 H 0.6496 0.5888 0.1669
C11 C 0.58674(19) 0.5150(4) 0.0956(3)
N1 N 0.54199(16) 0.7342(4) 0.4149(3)
H12 H 0.5474 0.8056 0.4439
H13 H 0.5655 0.7078 0.3781
N2 N 0.46138(14) 0.7102(4) 0.4858(3)
N3 N 0.48987(14) 0.5512(3) 0.3808(3)
N4 N 0.63125(15) 0.4178(3) 0.2264(3)
O1 O 0.57463(17) 0.2262(3) 0.3226(3)
O3 O 0.62969(18) 0.0711(4) 0.2715(3)
O5 O 0.71304(16) 0.5749(4) 0.3942(3)
O7 O 0.63967(14) 0.6453(3) 0.3270(3)
O8 O 0.54216(12) 0.5018(3) 0.1336(2)
O9 O 0.59236(14) 0.5436(3) 0.0172(2)
Ag2D Ag 0.531060(15) 0.09550(4) 0.43099(3)
Ag2F Ag 0.468940(15) 0.59550(4) 0.06901(3)
Ag2B Ag 0.531060(15) 0.40450(4) -0.06901(3)
O1D O 0.42537(17) 0.7738(3) 0.6774(3)
O8F O 0.54216(12) 0.9982(3) 0.6336(2)
O9B O 0.40764(14) 1.0436(3) 0.4828(2)
N5 N 0.82747(17) 0.6018(4) 0.3914(3)
H14 H 0.7914 0.5932 0.3920
H15 H 0.8397 0.6089 0.4458
H16 H 0.8422 0.5302 0.3662
H17 H 0.8365 0.6749 0.3615
O2 O 0.7949(4) 0.7206(9) 0.0506(7)
H18 H 0.8130 0.7912 0.0573
H19 H 0.8076 0.6802 0.0071
O4 O 0.7873(2) 0.5121(8) 0.1642(5)
H20 H 0.8212 0.5071 0.1717
H21 H 0.7848 0.5897 0.1433
O6 O 0.7622(4) 0.3779(8) 0.0175(7)
H22 H 0.7380 0.4183 0.0458
H23 H 0.7642 0.4112 -0.0327
loop_
_geom_bond_atom_site_label_1
_geom_bond_atom_site_label_2
_geom_bond_site_symmetry_1
_geom_bond_site_symmetry_2
Ag1 N3 1_555 1_555
Ag2 N2 1_555 1_555
C1 N1 1_555 1_555
C2 H1 1_555 1_555
C3 C2 1_555 1_555
H2 C3 1_555 1_555
C4 C3 1_555 1_555
C5 C4 1_555 1_555
H3 C5 1_555 1_555
H4 C5 1_555 1_555
H5 C5 1_555 1_555
C6 H6 1_555 1_555
H7 C6 1_555 1_555
C7 C6 1_555 1_555
C8 H8 1_555 1_555
H9 C8 1_555 1_555
C9 C8 1_555 1_555
C10 H10 1_555 1_555
H11 C10 1_555 1_555
C11 C10 1_555 1_555
N1 H12 1_555 1_555
H13 N1 1_555 1_555
N2 C1 1_555 1_555
N3 C1 1_555 1_555
N4 Ag1 1_555 1_555
N5 H14 1_555 1_555
H15 N5 1_555 1_555
H16 N5 1_555 1_555
H17 N5 1_555 1_555
O1 Ag1 1_555 1_555
O2 H18 1_555 1_555
H19 O2 1_555 1_555
O3 C7 1_555 1_555
O4 H20 1_555 1_555
H21 O4 1_555 1_555
O5 C9 1_555 1_555
O6 H22 1_555 1_555
H23 O6 1_555 1_555
O7 C9 1_555 1_555
O8 Ag1 1_555 1_555
O9 C11 1_555 1_555
Ag2D O1 1_555 1_555
Ag2F O8 1_555 1_555
Ag2B O9 1_555 1_555
O1D Ag2 1_555 1_555
O8F Ag2 1_555 1_555
O9B Ag2 1_555 1_555
C2 N2 1_555 1_555
C4 N3 1_555 1_555
C6 N4 1_555 1_555
C7 O1 1_555 1_555
C8 N4 1_555 1_555
C10 N4 1_555 1_555
C11 O8 1_555 1_555

#END
