
#######################################################################
#
#                 Cambridge Crystallographic Data Centre
#                                CCDC 
#
#######################################################################
#
# If this CIF has been generated from an entry in the Cambridge 
# Structural Database, then it will include bibliographic, chemical, 
# crystal, experimental, refinement or atomic coordinate data resulting 
# from the CCDC's data processing and validation procedures.
#
#######################################################################

data_ILAFOR
_symmetry_cell_setting           monoclinic
_symmetry_space_group_name_H-M   'P 21/c'
_symmetry_Int_Tables_number      14
_space_group_name_Hall           '-P 2ybc'
loop_
_symmetry_equiv_pos_site_id
_symmetry_equiv_pos_as_xyz
1 x,y,z
2 -x,1/2+y,1/2-z
3 -x,-y,-z
4 x,1/2-y,1/2+z
_cell_length_a                   7.566(4)
_cell_length_b                   12.274(6)
_cell_length_c                   31.737(15)
_cell_angle_alpha                90
_cell_angle_beta                 103.349(14)
_cell_angle_gamma                90
_cell_volume                     2867.63
loop_
_atom_site_label
_atom_site_type_symbol
_atom_site_fract_x
_atom_site_fract_y
_atom_site_fract_z
Ag1 Ag 0.35553(10) 0.10686(5) 0.41281(2)
Ag2 Ag 0.66206(8) 0.69990(6) 0.35083(2)
C1 C 0.1263(10) 0.1244(5) 0.3161(3)
C2 C 0.3967(10) 0.0395(5) 0.3194(2)
C3 C 0.3366(11) 0.0132(6) 0.2762(3)
H1 H 0.4128 -0.0232 0.2617
C4 C 0.1639(10) 0.0410(5) 0.2548(2)
C5 C 0.5782(11) 0.0088(7) 0.3449(3)
H2 H 0.6346 0.0707 0.3610
H3 H 0.6515 -0.0153 0.3257
H4 H 0.5670 -0.0490 0.3644
C6 C 0.0878(12) 0.0120(6) 0.2092(3)
H5 H -0.0352 0.0376 0.2006
H6 H 0.0897 -0.0658 0.2060
H7 H 0.1591 0.0451 0.1913
C7 C 0.3058(9) 0.0331(5) 0.5057(2)
C8 C 0.1777(10) -0.1217(5) 0.5250(3)
C9 C 0.0847(10) -0.1348(5) 0.4822(3)
H8 H -0.0008 -0.1900 0.4742
C10 C 0.1224(10) -0.0641(6) 0.4521(3)
C11 C 0.1553(13) -0.2007(7) 0.5589(3)
H9 H 0.1527 -0.1621 0.5851
H10 H 0.2551 -0.2511 0.5644
H11 H 0.0435 -0.2399 0.5492
C12 C 0.0422(13) -0.0772(6) 0.4051(3)
H12 H -0.0392 -0.0177 0.3951
H13 H -0.0235 -0.1447 0.4002
H14 H 0.1373 -0.0776 0.3897
C13 C 0.4215(10) 0.7267(6) 0.2562(3)
C14 C 0.7040(10) 0.8042(6) 0.2630(2)
C15 C 0.6506(10) 0.8384(6) 0.2216(3)
H15 H 0.7306 0.8775 0.2090
C16 C 0.4775(11) 0.8155(5) 0.1977(3)
C17 C 0.8894(12) 0.8258(7) 0.2905(3)
H16 H 0.9233 0.7679 0.3111
H17 H 0.8890 0.8936 0.3055
H18 H 0.9750 0.8297 0.2724
C18 C 0.4123(14) 0.8508(8) 0.1526(3)
H19 H 0.2820 0.8478 0.1448
H20 H 0.4607 0.8036 0.1339
H21 H 0.4515 0.9242 0.1495
C19 C 0.2924(11) 0.6542(5) 0.4322(3)
H22 H 0.3820 0.6639 0.4592
H23 H 0.1948 0.7058 0.4318
C20 C 0.3787(10) 0.6785(6) 0.3951(3)
C21 C 0.3673(10) 0.4617(5) 0.4476(3)
H24 H 0.3886 0.4589 0.4789
H25 H 0.4785 0.4860 0.4403
C22 C 0.3203(11) 0.3487(5) 0.4293(3)
C23 C 0.0690(10) 0.5302(6) 0.4527(3)
H26 H 0.1048 0.5636 0.4810
H27 H 0.0490 0.4533 0.4568
C24 C -0.1074(11) 0.5810(7) 0.4284(3)
N1 N 0.0185(9) 0.1839(5) 0.3358(2)
H28 H -0.0887 0.2021 0.3218
H29 H 0.0572 0.2035 0.3624
N2 N 0.3120(9) 0.6695(6) 0.2748(2)
H30 H 0.2040 0.6538 0.2605
H31 H 0.3489 0.6480 0.3011
N3 N 0.2890(8) 0.0937(4) 0.3406(2)
N4 N 0.3985(8) 0.1253(5) 0.5190(2)
H32 H 0.4098 0.1743 0.5004
H33 H 0.4465 0.1351 0.5461
N5 N 0.0543(9) 0.0979(5) 0.2748(2)
N6 N 0.2344(7) 0.0215(4) 0.46378(19)
N7 N 0.2918(9) -0.0377(5) 0.5378(2)
N8 N 0.3635(9) 0.7591(5) 0.2157(2)
N9 N 0.5892(8) 0.7490(4) 0.28194(19)
N10 N 0.2188(7) 0.5420(4) 0.43041(19)
H34 H 0.1733 0.5256 0.4020
O1 O 0.3625(8) 0.6072(4) 0.36599(19)
O2 O 0.4615(8) 0.7660(4) 0.3958(2)
O3 O 0.1836(8) 0.3384(4) 0.3996(2)
O4 O 0.4280(8) 0.2762(4) 0.4475(2)
O5 O -0.2345(9) 0.5796(6) 0.4459(3)
O6 O -0.1017(8) 0.6205(5) 0.3920(2)
Ag2_2 Ag -0.33794(8) 0.69990(6) 0.35083(2)
O6_2 O 0.8983(8) 0.6205(5) 0.3920(2)
loop_
_geom_bond_atom_site_label_1
_geom_bond_atom_site_label_2
_geom_bond_site_symmetry_1
_geom_bond_site_symmetry_2
Ag1 N3 1_555 1_555
Ag2 N9 1_555 1_555
C1 N1 1_555 1_555
C2 C3 1_555 1_555
C3 H1 1_555 1_555
C4 C3 1_555 1_555
C5 C2 1_555 1_555
H2 C5 1_555 1_555
H3 C5 1_555 1_555
H4 C5 1_555 1_555
C6 C4 1_555 1_555
H5 C6 1_555 1_555
H6 C6 1_555 1_555
H7 C6 1_555 1_555
C7 N4 1_555 1_555
C8 C9 1_555 1_555
C9 H8 1_555 1_555
C10 C9 1_555 1_555
C11 C8 1_555 1_555
H9 C11 1_555 1_555
H10 C11 1_555 1_555
H11 C11 1_555 1_555
C12 C10 1_555 1_555
H12 C12 1_555 1_555
H13 C12 1_555 1_555
H14 C12 1_555 1_555
C13 N2 1_555 1_555
C14 C15 1_555 1_555
C15 H15 1_555 1_555
C16 C15 1_555 1_555
C17 C14 1_555 1_555
H16 C17 1_555 1_555
H17 C17 1_555 1_555
H18 C17 1_555 1_555
C18 C16 1_555 1_555
H19 C18 1_555 1_555
H20 C18 1_555 1_555
H21 C18 1_555 1_555
C19 H22 1_555 1_555
H23 C19 1_555 1_555
C20 C19 1_555 1_555
C21 H24 1_555 1_555
H25 C21 1_555 1_555
C22 C21 1_555 1_555
C23 H26 1_555 1_555
H27 C23 1_555 1_555
C24 C23 1_555 1_555
N1 H28 1_555 1_555
H29 N1 1_555 1_555
N2 H30 1_555 1_555
H31 N2 1_555 1_555
N3 C1 1_555 1_555
N4 H32 1_555 1_555
H33 N4 1_555 1_555
N5 C1 1_555 1_555
N6 Ag1 1_555 1_555
N7 C7 1_555 1_555
N8 C13 1_555 1_555
N9 C13 1_555 1_555
N10 C19 1_555 1_555
H34 N10 1_555 1_555
O1 Ag2 1_555 1_555
O2 Ag2 1_555 1_555
O3 C22 1_555 1_555
O4 Ag1 1_555 1_555
O5 C24 1_555 1_555
O6 C24 1_555 1_555
Ag2_2 O6 1_555 1_555
O6_2 Ag2 1_555 1_555
C2 N3 1_555 1_555
C4 N5 1_555 1_555
C7 N6 1_555 1_555
C8 N7 1_555 1_555
C10 N6 1_555 1_555
C14 N9 1_555 1_555
C16 N8 1_555 1_555
C20 O1 1_555 1_555
C20 O2 1_555 1_555
C21 N10 1_555 1_555
C22 O4 1_555 1_555
C23 N10 1_555 1_555

#END
