
#######################################################################
#
#                 Cambridge Crystallographic Data Centre
#                                CCDC 
#
#######################################################################
#
# If this CIF has been generated from an entry in the Cambridge 
# Structural Database, then it will include bibliographic, chemical, 
# crystal, experimental, refinement or atomic coordinate data resulting 
# from the CCDC's data processing and validation procedures.
#
#######################################################################

data_ILAGUY
_symmetry_cell_setting           orthorhombic
_symmetry_space_group_name_H-M   'P n a 21'
_symmetry_Int_Tables_number      33
_space_group_name_Hall           'P 2c -2n'
loop_
_symmetry_equiv_pos_site_id
_symmetry_equiv_pos_as_xyz
1 x,y,z
2 -x,-y,1/2+z
3 1/2+x,1/2-y,z
4 1/2-x,1/2+y,1/2+z
_cell_length_a                   21.4448(14)
_cell_length_b                   18.3196(12)
_cell_length_c                   22.3854(15)
_cell_angle_alpha                90
_cell_angle_beta                 90
_cell_angle_gamma                90
_cell_volume                     8794.33
loop_
_atom_site_label
_atom_site_type_symbol
_atom_site_fract_x
_atom_site_fract_y
_atom_site_fract_z
Cd1 Cd 0.227495(12) 0.655554(14) 0.432329(15)
Cd2 Cd 0.257619(12) 0.594459(15) 0.597278(14)
Cd3 Cd 0.244590(13) 0.548303(15) 0.767843(15)
O1 O 0.19205(12) 0.57704(17) 0.67899(13)
O4 O 0.14716(13) 0.49095(15) 0.73192(14)
O7 O 0.18323(12) 0.63375(16) 0.52788(12)
O10 O 0.13927(13) 0.72372(15) 0.47807(13)
O13 O 0.18704(16) 0.56112(16) 0.85704(15)
O15 O 0.19849(15) 0.65899(15) 0.80080(13)
O17 O 0.15557(13) 0.64850(14) 0.34819(13)
O19 O 0.16921(12) 0.55464(13) 0.40875(13)
O20 O 0.30571(13) 0.59655(15) 0.50002(13)
O21 O 0.29982(14) 0.62798(16) 0.35691(15)
H13 H 0.3282(17) 0.602(2) 0.3742(19)
H14 H 0.285(2) 0.605(2) 0.3256(14)
O22 O 0.35386(15) 0.53154(18) 0.42959(17)
O23 O 0.32173(13) 0.57890(18) 0.68525(14)
O24 O 0.40115(16) 0.6170(2) 0.74157(16)
O25 O 0.23586(14) 0.74306(16) 0.94717(15)
O26 O 0.31453(15) 0.67229(15) 0.92057(15)
O27 O 0.26174(14) 0.54061(17) 0.26327(18)
O28 O 0.18267(14) 0.46374(16) 0.25179(14)
O29 O 0.33064(15) 0.57220(17) 0.83038(15)
H15 H 0.326(2) 0.603(2) 0.8588(15)
H16 H 0.3589(18) 0.585(2) 0.8038(16)
N1 N 0.72026(15) 0.57093(16) 0.26603(17)
N2 N 0.53681(17) 0.64986(19) 0.33278(17)
H17 H 0.543(2) 0.6032(12) 0.340(2)
N3 N 0.46020(15) 0.76760(17) 0.38034(16)
N4 N 0.27289(14) 0.76993(16) 0.43031(19)
N5 N 0.26164(15) 0.71448(18) 0.61947(16)
N6 N 0.24858(17) 0.85761(19) 0.79079(16)
H18 H 0.2635(19) 0.8982(16) 0.774(2)
N7 N 0.30302(16) 0.84765(17) 0.90863(15)
H19 H 0.2783(17) 0.8089(16) 0.9164(19)
N8 N 0.26106(15) 0.97532(19) 1.07699(15)
C1 C 0.10474(18) 0.7833(2) 0.5930(2)
H20 H 0.1182 0.8184 0.5645
C2 C 0.0796(2) 0.8063(3) 0.6466(2)
H21 H 0.0762 0.8569 0.6549
C3 C 0.0597(2) 0.7565(3) 0.6876(2)
H22 H 0.0437 0.7722 0.7250
C4 C 0.0630(2) 0.6819(3) 0.6741(2)
H23 H 0.0483 0.6475 0.7024
C5 C 0.08721(18) 0.6574(2) 0.62078(19)
C6 C 0.11052(17) 0.7088(2) 0.58013(18)
C7 C 0.07884(17) 0.5783(2) 0.60397(19)
C8 C 0.10146(18) 0.5203(2) 0.63780(19)
C9 C 0.14878(18) 0.5303(2) 0.68665(19)
C10 C 0.0837(2) 0.4489(2) 0.6248(2)
H24 H 0.0978 0.4099 0.6493
C11 C 0.0454(2) 0.4344(3) 0.5759(2)
H25 H 0.0331 0.3858 0.5671
C12 C 0.0256(2) 0.4920(3) 0.5402(2)
H26 H 0.0010 0.4825 0.5058
C13 C 0.0415(2) 0.5625(3) 0.5546(2)
H27 H 0.0266 0.6014 0.5304
C14 C 0.14486(18) 0.6875(2) 0.52490(19)
C15 C 0.65914(17) 0.5848(2) 0.26717(19)
H28 H 0.6311 0.5448 0.2651
C16 C 0.63438(18) 0.6546(2) 0.27115(19)
C17 C 0.67580(19) 0.7126(2) 0.2729(2)
H29 H 0.6608 0.7613 0.2752
C18 C 0.56489(19) 0.6646(2) 0.2725(2)
H30 H 0.5457 0.6314 0.2428
H31 H 0.5549 0.7153 0.2605
C19 C 0.7385(2) 0.6992(2) 0.2712(2)
H32 H 0.7674 0.7385 0.2725
C20 C 0.75962(18) 0.6278(2) 0.2676(2)
H33 H 0.8032 0.6189 0.2661
C21 C 0.4670(2) 0.6500(2) 0.3303(2)
H34 H 0.4504 0.6251 0.3662
H35 H 0.4532 0.6221 0.2947
C22 C 0.55868(19) 0.7003(2) 0.3815(2)
H36 H 0.6045 0.7063 0.3785
H37 H 0.5493 0.6781 0.4208
C23 C 0.44056(19) 0.7264(2) 0.3272(2)
H38 H 0.4557 0.7512 0.2907
H39 H 0.3945 0.7242 0.3254
C24 C 0.52776(18) 0.7750(2) 0.3778(2)
H40 H 0.5422 0.8058 0.4114
H41 H 0.5398 0.7992 0.3400
C25 C 0.43120(19) 0.8401(2) 0.3834(2)
H42 H 0.4348 0.8639 0.3439
H43 H 0.4544 0.8703 0.4126
C26 C 0.36360(18) 0.8381(2) 0.40136(18)
C27 C 0.33319(17) 0.7732(2) 0.41774(18)
H44 H 0.3570 0.7295 0.4199
C28 C 0.32886(19) 0.9015(2) 0.4022(2)
H45 H 0.3475 0.9468 0.3917
C29 C 0.2667(2) 0.8985(2) 0.4187(2)
H46 H 0.2428 0.9421 0.4209
C30 C 0.23981(16) 0.8329(2) 0.4316(2)
H47 H 0.1968 0.8313 0.4418
C31 C 0.23779(18) 0.7378(2) 0.6721(2)
H48 H 0.2237 0.7026 0.7002
C32 C 0.2807(2) 0.7638(2) 0.58060(19)
H49 H 0.2969 0.7475 0.5435
C33 C 0.2333(2) 0.8109(2) 0.6863(2)
C34 C 0.2781(2) 0.8370(3) 0.5911(2)
H50 H 0.2926 0.8708 0.5621
C35 C 0.2539(2) 0.8612(3) 0.6450(2)
H51 H 0.2515 0.9119 0.6534
C36 C 0.2033(2) 0.8321(2) 0.74465(19)
H52 H 0.1727 0.8715 0.7371
H53 H 0.1802 0.7896 0.7606
C37 C 0.2961(2) 0.8016(2) 0.8058(2)
H54 H 0.3208 0.7899 0.7697
H55 H 0.2750 0.7564 0.8191
C38 C 0.21327(19) 0.8797(2) 0.84523(19)
H56 H 0.1890 0.8376 0.8603
H57 H 0.1836 0.9192 0.8350
C39 C 0.33927(19) 0.8279(2) 0.85444(19)
H58 H 0.3696 0.7890 0.8644
H59 H 0.3628 0.8710 0.8402
C40 C 0.25735(19) 0.9057(2) 0.8930(2)
H60 H 0.2799 0.9495 0.8786
H61 H 0.2334 0.9196 0.9290
C41 C 0.34533(19) 0.8688(2) 0.95889(18)
H62 H 0.3750 0.8285 0.9665
H63 H 0.3698 0.9123 0.9469
C42 C 0.3107(2) 0.8855(2) 1.01517(18)
C43 C 0.29386(19) 0.9573(2) 1.02877(18)
H64 H 0.3064 0.9951 1.0023
C44 C 0.2931(2) 0.8319(2) 1.0554(2)
H65 H 0.3034 0.7822 1.0480
C45 C 0.2608(2) 0.8507(2) 1.1059(2)
H66 H 0.2501 0.8147 1.1347
C46 C 0.2439(2) 0.9222(3) 1.1146(2)
H67 H 0.2193 0.9344 1.1484
C47 C 0.1284(2) 0.6664(2) 0.8825(2)
C48 C 0.1234(2) 0.6573(2) 0.9451(2)
C49 C 0.1747(2) 0.6264(2) 0.8449(2)
C50 C 0.1673(2) 0.6126(2) 0.9809(2)
C51 C 0.14112(18) 0.5856(2) 0.36561(18)
C52 C 0.0867(2) 0.7119(3) 0.8533(2)
H68 H 0.0907 0.7189 0.8114
C53 C 0.1425(3) 0.5595(2) 1.0205(2)
H69 H 0.0986 0.5531 1.0230
C54 C 0.1811(3) 0.5174(3) 1.0551(2)
H70 H 0.1635 0.4833 1.0822
C55 C 0.2632(2) 0.6819(2) 0.9453(2)
C56 C 0.2316(2) 0.6207(2) 0.9786(2)
C57 C 0.34494(19) 0.5478(2) 0.4829(2)
C58 C 0.37925(19) 0.5041(3) 0.5287(2)
C59 C 0.4091(2) 0.5355(3) 0.5782(2)
C60 C 0.41443(19) 0.6161(3) 0.5847(2)
C61 C 0.4018(2) 0.6514(3) 0.6397(2)
C62 C 0.4369(2) 0.6583(3) 0.5383(2)
H71 H 0.4462 0.6354 0.5013
C63 C 0.4129(2) 0.7256(3) 0.6453(2)
H72 H 0.4059 0.7488 0.6827
C64 C 0.4463(2) 0.7315(3) 0.5435(2)
H73 H 0.4612 0.7588 0.5104
C65 C 0.4340(2) 0.7663(3) 0.5977(3)
H74 H 0.4401 0.8174 0.6017
C66 C 0.3737(2) 0.6126(3) 0.6923(2)
C67 C 0.2698(3) 0.5753(2) 1.0130(2)
H75 H 0.3138 0.5796 1.0102
C68 C 0.08711(18) 0.5455(2) 0.33896(19)
C69 C 0.05092(19) 0.5049(2) 0.3783(2)
H76 H 0.0635 0.5016 0.4189
C70 C 0.06924(19) 0.5500(2) 0.2786(2)
C71 C -0.0026(2) 0.4692(2) 0.3605(2)
H77 H -0.0267 0.4421 0.3884
C72 C 0.0147(2) 0.5134(2) 0.2619(2)
H78 H 0.0013 0.5162 0.2215
C73 C 0.1034(2) 0.5929(2) 0.23288(19)
C74 C -0.0203(2) 0.4735(3) 0.3018(2)
H79 H -0.0569 0.4490 0.2886
C75 C 0.0689(3) 0.6444(2) 0.1996(2)
H80 H 0.0256 0.6500 0.2073
C76 C 0.1677(2) 0.5860(2) 0.22045(19)
C77 C 0.0968(3) 0.6876(2) 0.1557(2)
H81 H 0.0728 0.7217 0.1335
C78 C 0.1952(3) 0.6298(2) 0.1777(2)
H82 H 0.2387 0.6260 0.1705
C79 C 0.2075(2) 0.5269(2) 0.24775(19)
C80 C 0.0393(3) 0.7474(3) 0.8839(3)
H83 H 0.0115 0.7790 0.8634
C81 C 0.0328(3) 0.7360(3) 0.9457(3)
H84 H -0.0002 0.7584 0.9673
C82 C 0.0742(3) 0.6928(3) 0.9738(3)
H85 H 0.0697 0.6861 1.0156
C83 C 0.2436(3) 0.5235(3) 1.0514(2)
H86 H 0.2697 0.4928 1.0748
C84 C 0.1597(3) 0.6797(3) 0.1449(2)
H87 H 0.1792 0.7085 0.1149
C85 C 0.3821(2) 0.4273(3) 0.5203(2)
H88 H 0.3634 0.4056 0.4862
C86 C 0.4123(3) 0.3841(3) 0.5620(3)
H89 H 0.4128 0.3326 0.5572
C87 C 0.4414(3) 0.4150(3) 0.6099(3)
H90 H 0.4628 0.3849 0.6378
C88 C 0.4400(2) 0.4897(3) 0.6185(2)
H91 H 0.4604 0.5103 0.6522
Cd2C Cd 0.242381(12) 1.094459(15) 1.097278(14)
Cd3A Cd 0.755410(13) 0.451697(15) 0.267843(15)
N1A N 0.27974(15) 0.42907(16) 0.76603(17)
N8C N 0.23894(15) 0.47532(19) 0.57699(15)
Cl1 Cl 0.40455(8) 0.71596(9) 1.15019(9)
O2 O 0.3595(3) 0.6791(3) 1.1205(3)
O5 O 0.4395(3) 0.6709(4) 1.1858(3)
O8 O 0.3743(3) 0.7727(3) 1.1852(3)
O11 O 0.4434(4) 0.7484(4) 1.1096(5)
O3 O 0.39117(19) 0.4552(2) 0.89291(17)
H1 H 0.4257(11) 0.465(2) 0.8719(9)
H2 H 0.4087 0.4725 0.9254
O6 O 0.49526(19) 0.5127(2) 0.7810(2)
H3 H 0.5065 0.5166 0.8173
H4 H 0.5220 0.5383 0.7541
O9 O 0.3836(2) 0.4799(3) 1.2275(3)
H5 H 0.366(3) 0.519(3) 1.205(3)
H6 H 0.4192(19) 0.507(3) 1.232(3)
O12 O 0.3871(3) 0.5160(3) 1.1074(3)
H7 H 0.390(4) 0.5661(13) 1.117(3)
H8 H 0.401(4) 0.498(4) 1.144(2)
O14 O 0.4447(3) 0.5178(6) 0.9939(3)
H9 H 0.4364 0.5632 0.9926
H10 H 0.444(6) 0.512(4) 1.0349(11)
O16 O 0.5318(2) 0.5276(4) 0.8969(2)
H11 H 0.5671 0.5102 0.9069
H12 H 0.5205 0.5237 0.8607
O18 O 0.4195(3) 0.6597(5) 0.9889(3)
loop_
_geom_bond_atom_site_label_1
_geom_bond_atom_site_label_2
_geom_bond_site_symmetry_1
_geom_bond_site_symmetry_2
Cd1 O7 1_555 1_555
Cd2 O1 1_555 1_555
Cd3 O1 1_555 1_555
Cl1 O2 1_555 1_555
O1 C9 1_555 1_555
O3 H1 1_555 1_555
H2 O3 1_555 1_555
O4 Cd3 1_555 1_555
O5 Cl1 1_555 1_555
O6 H3 1_555 1_555
H4 O6 1_555 1_555
O7 Cd2 1_555 1_555
O8 Cl1 1_555 1_555
O9 H5 1_555 1_555
H6 O9 1_555 1_555
O10 Cd1 1_555 1_555
O11 Cl1 1_555 1_555
O12 H7 1_555 1_555
H8 O12 1_555 1_555
O13 Cd3 1_555 1_555
O14 H9 1_555 1_555
H10 O14 1_555 1_555
O15 Cd3 1_555 1_555
O16 H11 1_555 1_555
H12 O16 1_555 1_555
O17 Cd1 1_555 1_555
O19 Cd1 1_555 1_555
O20 Cd1 1_555 1_555
O21 Cd1 1_555 1_555
H13 O21 1_555 1_555
H14 O21 1_555 1_555
O22 C57 1_555 1_555
O23 Cd2 1_555 1_555
O24 C66 1_555 1_555
O25 C55 1_555 1_555
O26 C55 1_555 1_555
O27 C79 1_555 1_555
O28 C79 1_555 1_555
O29 Cd3 1_555 1_555
H15 O29 1_555 1_555
H16 O29 1_555 1_555
N1 C15 1_555 1_555
N2 H17 1_555 1_555
N3 C23 1_555 1_555
N4 Cd1 1_555 1_555
N5 Cd2 1_555 1_555
N6 H18 1_555 1_555
N7 H19 1_555 1_555
N8 C43 1_555 1_555
C1 H20 1_555 1_555
C2 C1 1_555 1_555
H21 C2 1_555 1_555
C3 C2 1_555 1_555
H22 C3 1_555 1_555
C4 C3 1_555 1_555
H23 C4 1_555 1_555
C5 C4 1_555 1_555
C6 C1 1_555 1_555
C7 C5 1_555 1_555
C8 C7 1_555 1_555
C9 O4 1_555 1_555
C10 C8 1_555 1_555
H24 C10 1_555 1_555
C11 C10 1_555 1_555
H25 C11 1_555 1_555
C12 C11 1_555 1_555
H26 C12 1_555 1_555
C13 C7 1_555 1_555
H27 C13 1_555 1_555
C14 O7 1_555 1_555
C15 H28 1_555 1_555
C16 C15 1_555 1_555
C17 C16 1_555 1_555
H29 C17 1_555 1_555
C18 N2 1_555 1_555
H30 C18 1_555 1_555
H31 C18 1_555 1_555
C19 C17 1_555 1_555
H32 C19 1_555 1_555
C20 N1 1_555 1_555
H33 C20 1_555 1_555
C21 N2 1_555 1_555
H34 C21 1_555 1_555
H35 C21 1_555 1_555
C22 N2 1_555 1_555
H36 C22 1_555 1_555
H37 C22 1_555 1_555
C23 C21 1_555 1_555
H38 C23 1_555 1_555
H39 C23 1_555 1_555
C24 N3 1_555 1_555
H40 C24 1_555 1_555
H41 C24 1_555 1_555
C25 N3 1_555 1_555
H42 C25 1_555 1_555
H43 C25 1_555 1_555
C26 C25 1_555 1_555
C27 N4 1_555 1_555
H44 C27 1_555 1_555
C28 C26 1_555 1_555
H45 C28 1_555 1_555
C29 C28 1_555 1_555
H46 C29 1_555 1_555
C30 N4 1_555 1_555
H47 C30 1_555 1_555
C31 N5 1_555 1_555
H48 C31 1_555 1_555
C32 N5 1_555 1_555
H49 C32 1_555 1_555
C33 C31 1_555 1_555
C34 C32 1_555 1_555
H50 C34 1_555 1_555
C35 C33 1_555 1_555
H51 C35 1_555 1_555
C36 N6 1_555 1_555
H52 C36 1_555 1_555
H53 C36 1_555 1_555
C37 N6 1_555 1_555
H54 C37 1_555 1_555
H55 C37 1_555 1_555
C38 N6 1_555 1_555
H56 C38 1_555 1_555
H57 C38 1_555 1_555
C39 N7 1_555 1_555
H58 C39 1_555 1_555
H59 C39 1_555 1_555
C40 N7 1_555 1_555
H60 C40 1_555 1_555
H61 C40 1_555 1_555
C41 N7 1_555 1_555
H62 C41 1_555 1_555
H63 C41 1_555 1_555
C42 C41 1_555 1_555
C43 C42 1_555 1_555
H64 C43 1_555 1_555
C44 C42 1_555 1_555
H65 C44 1_555 1_555
C45 C44 1_555 1_555
H66 C45 1_555 1_555
C46 N8 1_555 1_555
H67 C46 1_555 1_555
C47 C48 1_555 1_555
C48 C50 1_555 1_555
C49 O13 1_555 1_555
C50 C53 1_555 1_555
C51 O17 1_555 1_555
C52 C47 1_555 1_555
H68 C52 1_555 1_555
C53 H69 1_555 1_555
C54 C53 1_555 1_555
H70 C54 1_555 1_555
C55 C56 1_555 1_555
C56 C50 1_555 1_555
C57 O20 1_555 1_555
C58 C57 1_555 1_555
C59 C58 1_555 1_555
C60 C59 1_555 1_555
C61 C60 1_555 1_555
C62 C60 1_555 1_555
H71 C62 1_555 1_555
C63 C61 1_555 1_555
H72 C63 1_555 1_555
C64 C62 1_555 1_555
H73 C64 1_555 1_555
C65 C63 1_555 1_555
H74 C65 1_555 1_555
C66 O23 1_555 1_555
C67 C56 1_555 1_555
H75 C67 1_555 1_555
C68 C51 1_555 1_555
C69 C68 1_555 1_555
H76 C69 1_555 1_555
C70 C68 1_555 1_555
C71 C69 1_555 1_555
H77 C71 1_555 1_555
C72 C70 1_555 1_555
H78 C72 1_555 1_555
C73 C70 1_555 1_555
C74 C71 1_555 1_555
H79 C74 1_555 1_555
C75 C73 1_555 1_555
H80 C75 1_555 1_555
C76 C73 1_555 1_555
C77 C75 1_555 1_555
H81 C77 1_555 1_555
C78 C76 1_555 1_555
H82 C78 1_555 1_555
C79 C76 1_555 1_555
C80 C52 1_555 1_555
H83 C80 1_555 1_555
C81 C80 1_555 1_555
H84 C81 1_555 1_555
C82 C48 1_555 1_555
H85 C82 1_555 1_555
C83 C54 1_555 1_555
H86 C83 1_555 1_555
C84 C77 1_555 1_555
H87 C84 1_555 1_555
C85 C58 1_555 1_555
H88 C85 1_555 1_555
C86 C85 1_555 1_555
H89 C86 1_555 1_555
C87 C86 1_555 1_555
H90 C87 1_555 1_555
C88 C59 1_555 1_555
H91 C88 1_555 1_555
Cd2C N8 1_555 1_555
Cd3A N1 1_555 1_555
N1A Cd3 1_555 1_555
N8C Cd2 1_555 1_555
Cd2 O20 1_555 1_555
Cd3 O23 1_555 1_555
O10 C14 1_555 1_555
O15 C49 1_555 1_555
O19 C51 1_555 1_555
C5 C6 1_555 1_555
C6 C14 1_555 1_555
C8 C9 1_555 1_555
C12 C13 1_555 1_555
C16 C18 1_555 1_555
C19 C20 1_555 1_555
C22 C24 1_555 1_555
C26 C27 1_555 1_555
C29 C30 1_555 1_555
C33 C36 1_555 1_555
C34 C35 1_555 1_555
C37 C39 1_555 1_555
C38 C40 1_555 1_555
C45 C46 1_555 1_555
C47 C49 1_555 1_555
C61 C66 1_555 1_555
C64 C65 1_555 1_555
C67 C83 1_555 1_555
C72 C74 1_555 1_555
C78 C84 1_555 1_555
C81 C82 1_555 1_555
C87 C88 1_555 1_555

#END
