
#######################################################################
#
#                 Cambridge Crystallographic Data Centre
#                                CCDC 
#
#######################################################################
#
# If this CIF has been generated from an entry in the Cambridge 
# Structural Database, then it will include bibliographic, chemical, 
# crystal, experimental, refinement or atomic coordinate data resulting 
# from the CCDC's data processing and validation procedures.
#
#######################################################################

data_ILAGOS
_symmetry_cell_setting           triclinic
_symmetry_space_group_name_H-M   'P -1'
_symmetry_Int_Tables_number      2
_space_group_name_Hall           '-P 1'
loop_
_symmetry_equiv_pos_site_id
_symmetry_equiv_pos_as_xyz
1 x,y,z
2 -x,-y,-z
_cell_length_a                   9.1238(19)
_cell_length_b                   13.178(3)
_cell_length_c                   14.076(5)
_cell_angle_alpha                107.240(3)
_cell_angle_beta                 105.588(3)
_cell_angle_gamma                107.876(2)
_cell_volume                     1412.76
loop_
_atom_site_label
_atom_site_type_symbol
_atom_site_fract_x
_atom_site_fract_y
_atom_site_fract_z
O6 O 0.0055(8) 0.5232(4) -0.4363(4)
O6A O -0.0055(8) 0.4768(4) -0.5637(4)
Cd1 Cd 0.14740(2) 0.830869(14) 0.438271(13)
O1 O -0.60175(19) 0.83992(14) 0.40787(13)
O2 O -0.8345(2) 0.67995(14) 0.30450(13)
O3 O -0.0835(2) 0.84146(14) 0.48328(13)
O4 O -0.0506(2) 0.67924(15) 0.46109(14)
O5 O 0.2656(2) 1.03086(15) 0.50297(18)
H1 H 0.212(3) 1.076(2) 0.506(2)
H2 H 0.371(2) 1.076(2) 0.530(2)
N1 N -0.0148(3) 0.84312(18) 0.27880(16)
N2 N -0.0168(3) 0.70822(18) -0.04223(16)
N3 N 0.1833(3) 0.71830(18) -0.16842(16)
N4 N 0.3253(2) 0.86158(17) -0.38516(16)
C1 C -0.0433(3) 0.7769(2) 0.17745(19)
H3 H 0.0018 0.7203 0.1670
C2 C -0.1351(3) 0.7861(2) 0.0865(2)
C3 C -0.1980(4) 0.8693(3) 0.1033(2)
H4 H -0.2597 0.8797 0.0436
C4 C -0.1712(4) 0.9377(3) 0.2074(2)
H5 H -0.2152 0.9948 0.2200
C5 C -0.0802(4) 0.9220(2) 0.2922(2)
H6 H -0.0626 0.9690 0.3635
C6 C -0.1688(3) 0.7025(3) -0.0246(2)
H7 H -0.2347 0.6217 -0.0354
H8 H -0.2377 0.7201 -0.0795
C7 C 0.0633(3) 0.8152(2) -0.0549(2)
H9 H 0.0911 0.8845 0.0106
H10 H -0.0151 0.8173 -0.1178
C8 C 0.2212(3) 0.8198(2) -0.0720(2)
H11 H 0.2744 0.8925 -0.0804
H12 H 0.3014 0.8211 -0.0078
C9 C 0.1022(3) 0.6109(2) -0.1562(2)
H13 H 0.1805 0.6084 -0.0937
H14 H 0.0740 0.5419 -0.2220
C10 C -0.0551(3) 0.6061(2) -0.1388(2)
H15 H -0.1359 0.6045 -0.2030
H16 H -0.1076 0.5336 -0.1300
C11 C 0.3327(3) 0.7220(2) -0.1881(2)
H17 H 0.3097 0.6429 -0.2384
H18 H 0.4242 0.7433 -0.1189
C12 C 0.2817(3) 0.7964(2) -0.33214(19)
H19 H 0.1696 0.7387 -0.3626
C13 C 0.3903(3) 0.8080(2) -0.23531(19)
C14 C 0.5520(4) 0.8938(3) -0.1912(2)
H20 H 0.6301 0.9061 -0.1241
C15 C 0.5992(4) 0.9615(3) -0.2455(2)
H21 H 0.7102 1.0205 -0.2164
C16 C 0.4846(3) 0.9427(2) -0.3412(2)
H22 H 0.5186 0.9889 -0.3785
C17 C -0.6812(3) 0.7385(2) 0.33298(18)
C18 C -0.5898(3) 0.68637(19) 0.27283(18)
C19 C -0.6187(3) 0.6798(2) 0.16889(19)
H23 H -0.6963 0.7065 0.1370
C20 C -0.5356(3) 0.6347(2) 0.1112(2)
H24 H -0.5533 0.6327 0.0409
C21 C -0.4265(3) 0.5923(2) 0.1564(2)
H25 H -0.3705 0.5601 0.1165
C22 C -0.3989(3) 0.5969(2) 0.25904(19)
H26 H -0.3254 0.5662 0.2886
C23 C -0.4771(3) 0.64593(19) 0.32048(18)
C24 C -0.4431(3) 0.65200(19) 0.43220(18)
C25 C -0.5748(3) 0.6131(2) 0.46361(19)
H27 H -0.6870 0.5833 0.4133
C26 C -0.5456(3) 0.6170(2) 0.5664(2)
H28 H -0.6370 0.5904 0.5863
C27 C -0.3830(3) 0.6598(2) 0.6403(2)
H29 H -0.3624 0.6636 0.7114
C28 C -0.2500(3) 0.6970(2) 0.6104(2)
H30 H -0.1384 0.7248 0.6608
C29 C -0.2785(3) 0.69400(19) 0.50760(18)
C30 C -0.1288(3) 0.7404(2) 0.48147(18)
Cd1_2 Cd -0.85260(2) 0.830869(14) 0.438271(13)
Cd1_3 Cd 0.14740(2) 0.830869(14) -0.561729(13)
O1_2 O 0.39825(19) 0.83992(14) 0.40787(13)
O2_2 O 0.1655(2) 0.67995(14) 0.30450(13)
N4_2 N 0.3253(2) 0.86158(17) 0.61484(16)
loop_
_geom_bond_atom_site_label_1
_geom_bond_atom_site_label_2
_geom_bond_site_symmetry_1
_geom_bond_site_symmetry_2
Cd1 O3 1_555 1_555
O1 C17 1_555 1_555
O2 C17 1_555 1_555
O3 C30 1_555 1_555
O4 Cd1 1_555 1_555
O5 Cd1 1_555 1_555
H1 O5 1_555 1_555
H2 O5 1_555 1_555
O6 O6A 1_555 1_555
N1 Cd1 1_555 1_555
N2 C6 1_555 1_555
N3 C8 1_555 1_555
N4 C12 1_555 1_555
C1 N1 1_555 1_555
H3 C1 1_555 1_555
C2 C1 1_555 1_555
C3 C2 1_555 1_555
H4 C3 1_555 1_555
C4 C3 1_555 1_555
H5 C4 1_555 1_555
C5 N1 1_555 1_555
H6 C5 1_555 1_555
C6 C2 1_555 1_555
H7 C6 1_555 1_555
H8 C6 1_555 1_555
C7 N2 1_555 1_555
H9 C7 1_555 1_555
H10 C7 1_555 1_555
C8 C7 1_555 1_555
H11 C8 1_555 1_555
H12 C8 1_555 1_555
C9 N3 1_555 1_555
H13 C9 1_555 1_555
H14 C9 1_555 1_555
C10 N2 1_555 1_555
H15 C10 1_555 1_555
H16 C10 1_555 1_555
C11 N3 1_555 1_555
H17 C11 1_555 1_555
H18 C11 1_555 1_555
C12 H19 1_555 1_555
C13 C11 1_555 1_555
C14 C13 1_555 1_555
H20 C14 1_555 1_555
C15 C14 1_555 1_555
H21 C15 1_555 1_555
C16 N4 1_555 1_555
H22 C16 1_555 1_555
C17 C18 1_555 1_555
C18 C19 1_555 1_555
C19 H23 1_555 1_555
C20 C19 1_555 1_555
H24 C20 1_555 1_555
C21 C20 1_555 1_555
H25 C21 1_555 1_555
C22 C21 1_555 1_555
H26 C22 1_555 1_555
C23 C18 1_555 1_555
C24 C23 1_555 1_555
C25 C24 1_555 1_555
H27 C25 1_555 1_555
C26 C25 1_555 1_555
H28 C26 1_555 1_555
C27 C26 1_555 1_555
H29 C27 1_555 1_555
C28 C27 1_555 1_555
H30 C28 1_555 1_555
C29 C24 1_555 1_555
C30 O4 1_555 1_555
Cd1_2 O1 1_555 1_555
Cd1_3 N4 1_555 1_555
O1_2 Cd1 1_555 1_555
O2_2 Cd1 1_555 1_555
N4_2 Cd1 1_555 1_555
O2 Cd1_2 1_555 1_555
C4 C5 1_555 1_555
C9 C10 1_555 1_555
C12 C13 1_555 1_555
C15 C16 1_555 1_555
C22 C23 1_555 1_555
C28 C29 1_555 1_555
C29 C30 1_555 1_555

#END
