
#######################################################################
#
#                 Cambridge Crystallographic Data Centre
#                                CCDC 
#
#######################################################################
#
# If this CIF has been generated from an entry in the Cambridge 
# Structural Database, then it will include bibliographic, chemical, 
# crystal, experimental, refinement or atomic coordinate data resulting 
# from the CCDC's data processing and validation procedures.
#
#######################################################################

data_ILAHIN
_symmetry_cell_setting           orthorhombic
_symmetry_space_group_name_H-M   'P b c a'
_symmetry_Int_Tables_number      61
_space_group_name_Hall           '-P 2ac 2ab'
loop_
_symmetry_equiv_pos_site_id
_symmetry_equiv_pos_as_xyz
1 x,y,z
2 1/2-x,-y,1/2+z
3 -x,1/2+y,1/2-z
4 1/2+x,1/2-y,-z
5 -x,-y,-z
6 1/2+x,y,1/2-z
7 x,1/2-y,1/2+z
8 1/2-x,1/2+y,z
_cell_length_a                   17.9032(3)
_cell_length_b                   12.4570(2)
_cell_length_c                   25.1645(3)
_cell_angle_alpha                90
_cell_angle_beta                 90
_cell_angle_gamma                90
_cell_volume                     5612.19
loop_
_atom_site_label
_atom_site_type_symbol
_atom_site_fract_x
_atom_site_fract_y
_atom_site_fract_z
Zn1 Zn -0.004304(15) 0.78967(2) 0.276376(11)
O1 O 0.03655(9) 0.73698(13) 0.20914(7)
O3 O -0.07910(9) 0.68454(15) 0.19073(7)
O4 O 0.07519(10) 0.40803(14) 0.23107(7)
O5 O 0.06218(10) 0.42307(14) 0.14359(8)
N1 N 0.09745(11) 0.83774(16) 0.30701(8)
N2 N 0.31376(11) 0.99231(17) 0.41090(8)
N3 N 0.37558(11) 1.03324(17) 0.51284(8)
N4 N 0.46512(11) 0.83332(16) 0.67447(8)
C1 C 0.10772(15) 0.9271(2) 0.33561(11)
H1 H 0.0664 0.9696 0.3434
C2 C 0.17659(15) 0.9589(2) 0.35391(11)
H2 H 0.1813 1.0225 0.3730
C3 C 0.23874(14) 0.8965(2) 0.34392(10)
C4 C 0.22852(14) 0.8037(2) 0.31495(11)
H3 H 0.2688 0.7589 0.3077
C5 C 0.15814(15) 0.7778(2) 0.29685(11)
H4 H 0.1524 0.7158 0.2766
C6 C 0.31552(15) 0.9321(3) 0.36102(11)
H5 H 0.3472 0.8695 0.3653
H6 H 0.3372 0.9767 0.3334
C7 C 0.30068(15) 0.9202(2) 0.45546(10)
H7 H 0.3386 0.8646 0.4557
H8 H 0.2524 0.8858 0.4514
C8 C 0.30271(15) 0.9808(2) 0.50743(10)
H9 H 0.2633 1.0342 0.5081
H10 H 0.2948 0.9316 0.5368
C9 C 0.38500(16) 1.1102(2) 0.46992(10)
H11 H 0.4320 1.1480 0.4740
H12 H 0.3449 1.1624 0.4707
C10 C 0.38411(15) 1.0504(2) 0.41786(11)
H13 H 0.3906 1.1008 0.3889
H14 H 0.4254 1.0000 0.4169
C11 C 0.38883(16) 1.0760(2) 0.56566(10)
H15 H 0.3430 1.1077 0.5790
H16 H 0.4262 1.1323 0.5636
C12 C 0.45242(13) 0.9342(2) 0.69085(10)
H17 H 0.4607 0.9510 0.7264
C13 C 0.42766(13) 1.0138(2) 0.65725(10)
H18 H 0.4194 1.0827 0.6702
C14 C 0.41511(13) 0.99086(19) 0.60401(10)
C15 C 0.42988(14) 0.8871(2) 0.58716(10)
H19 H 0.4231 0.8687 0.5517
C16 C 0.45435(14) 0.8119(2) 0.62255(10)
H20 H 0.4640 0.7429 0.6103
C17 C -0.01334(13) 0.69710(18) 0.17811(10)
C18 C 0.01278(13) 0.66776(18) 0.12269(10)
C19 C -0.04054(14) 0.67325(19) 0.08232(10)
H21 H -0.0895 0.6915 0.0908
C20 C -0.02217(17) 0.6521(2) 0.03015(11)
H22 H -0.0583 0.6564 0.0037
C21 C 0.05035(17) 0.6246(2) 0.01758(11)
H23 H 0.0635 0.6108 -0.0175
C22 C 0.10322(15) 0.6176(2) 0.05718(11)
H24 H 0.1518 0.5985 0.0482
C23 C 0.08615(13) 0.63805(18) 0.11031(9)
C24 C 0.14766(13) 0.62337(19) 0.15036(10)
C25 C 0.20716(14) 0.6958(2) 0.15123(11)
H25 H 0.2071 0.7531 0.1276
C26 C 0.26613(14) 0.6848(2) 0.18617(12)
H26 H 0.3047 0.7349 0.1861
C27 C 0.26798(14) 0.6001(2) 0.22109(11)
H27 H 0.3077 0.5920 0.2445
C28 C 0.20989(14) 0.5270(2) 0.22085(10)
H28 H 0.2110 0.4697 0.2445
C29 C 0.14977(13) 0.53697(19) 0.18617(10)
C30 C 0.09120(14) 0.4507(2) 0.18582(11)
Zn1B Zn 0.004304(15) 0.28967(2) 0.223624(11)
Zn1C Zn 0.495696(15) 0.71033(2) 0.723624(11)
O4B O -0.07519(10) 0.90803(14) 0.26893(7)
N4C N -0.03488(11) 0.66668(16) 0.32553(8)
O2 O 0.1721(6) 0.3447(9) 0.0658(4)
loop_
_geom_bond_atom_site_label_1
_geom_bond_atom_site_label_2
_geom_bond_site_symmetry_1
_geom_bond_site_symmetry_2
Zn1 O1 1_555 1_555
O1 C17 1_555 1_555
O3 C17 1_555 1_555
O4 C30 1_555 1_555
O5 C30 1_555 1_555
N1 Zn1 1_555 1_555
N2 C6 1_555 1_555
N3 C8 1_555 1_555
N4 C12 1_555 1_555
C1 N1 1_555 1_555
H1 C1 1_555 1_555
C2 C1 1_555 1_555
H2 C2 1_555 1_555
C3 C2 1_555 1_555
C4 C3 1_555 1_555
H3 C4 1_555 1_555
C5 N1 1_555 1_555
H4 C5 1_555 1_555
C6 C3 1_555 1_555
H5 C6 1_555 1_555
H6 C6 1_555 1_555
C7 N2 1_555 1_555
H7 C7 1_555 1_555
H8 C7 1_555 1_555
C8 C7 1_555 1_555
H9 C8 1_555 1_555
H10 C8 1_555 1_555
C9 N3 1_555 1_555
H11 C9 1_555 1_555
H12 C9 1_555 1_555
C10 N2 1_555 1_555
H13 C10 1_555 1_555
H14 C10 1_555 1_555
C11 N3 1_555 1_555
H15 C11 1_555 1_555
H16 C11 1_555 1_555
C12 H17 1_555 1_555
C13 C12 1_555 1_555
H18 C13 1_555 1_555
C14 C11 1_555 1_555
C15 C14 1_555 1_555
H19 C15 1_555 1_555
C16 N4 1_555 1_555
H20 C16 1_555 1_555
C17 C18 1_555 1_555
C18 C19 1_555 1_555
C19 H21 1_555 1_555
C20 C19 1_555 1_555
H22 C20 1_555 1_555
C21 C20 1_555 1_555
H23 C21 1_555 1_555
C22 C21 1_555 1_555
H24 C22 1_555 1_555
C23 C18 1_555 1_555
C24 C23 1_555 1_555
C25 C24 1_555 1_555
H25 C25 1_555 1_555
C26 C25 1_555 1_555
H26 C26 1_555 1_555
C27 C26 1_555 1_555
H27 C27 1_555 1_555
C28 C27 1_555 1_555
H28 C28 1_555 1_555
C29 C24 1_555 1_555
C30 C29 1_555 1_555
Zn1B O4 1_555 1_555
Zn1C N4 1_555 1_555
O4B Zn1 1_555 1_555
N4C Zn1 1_555 1_555
C4 C5 1_555 1_555
C9 C10 1_555 1_555
C13 C14 1_555 1_555
C15 C16 1_555 1_555
C22 C23 1_555 1_555
C28 C29 1_555 1_555

#END
