
#######################################################################
#
#                 Cambridge Crystallographic Data Centre
#                                CCDC 
#
#######################################################################
#
# If this CIF has been generated from an entry in the Cambridge 
# Structural Database, then it will include bibliographic, chemical, 
# crystal, experimental, refinement or atomic coordinate data resulting 
# from the CCDC's data processing and validation procedures.
#
#######################################################################

data_ILAHAF
_symmetry_cell_setting           monoclinic
_symmetry_space_group_name_H-M   'C 2/c'
_symmetry_Int_Tables_number      15
_space_group_name_Hall           '-C 2yn'
loop_
_symmetry_equiv_pos_site_id
_symmetry_equiv_pos_as_xyz
1 x,y,z
2 -x,y,1/2-z
3 1/2+x,1/2+y,z
4 1/2-x,1/2+y,1/2-z
5 -x,-y,-z
6 x,-y,1/2+z
7 1/2-x,1/2-y,-z
8 1/2+x,1/2-y,1/2+z
_cell_length_a                   31.609(2)
_cell_length_b                   9.0777(6)
_cell_length_c                   9.9712(6)
_cell_angle_alpha                90
_cell_angle_beta                 96.7000(10)
_cell_angle_gamma                90
_cell_volume                     2841.57
loop_
_atom_site_label
_atom_site_type_symbol
_atom_site_fract_x
_atom_site_fract_y
_atom_site_fract_z
Cd1 Cd 0.5000 0.04690(3) 0.2500
O1 O 0.51629(5) -0.12112(19) 0.42051(16)
O2 O 0.48654(6) -0.2252(2) 0.58954(17)
O3 O 0.27324(8) 0.1026(3) 0.3203(3)
N1 N 0.42603(7) 0.0669(3) 0.2556(2)
N2 N 0.27210(9) 0.2035(6) 0.1165(4)
C1 C 0.46150(7) -0.2986(3) 0.3684(2)
C2 C 0.47674(7) -0.3675(3) 0.2585(2)
C3 C 0.44831(8) -0.4440(3) 0.1659(3)
H1 H 0.4585 -0.4932 0.0920
C4 C 0.41833(8) -0.3081(3) 0.3847(3)
H2 H 0.4080 -0.2636 0.4608
C5 C 0.39045(8) -0.3819(3) 0.2910(3)
H3 H 0.3610 -0.3868 0.3019
C6 C 0.40542(9) -0.4487(3) 0.1811(3)
H4 H 0.3862 -0.4980 0.1157
C7 C 0.49035(7) -0.2073(3) 0.4668(2)
C8 C 0.39922(9) -0.0140(4) 0.1739(4)
H5 H 0.4104 -0.0908 0.1238
C9 C 0.35565(10) 0.0088(4) 0.1588(4)
H6 H 0.3374 -0.0505 0.0987
C10 C 0.33926(9) 0.1193(4) 0.2326(3)
C11 C 0.36675(10) 0.2019(4) 0.3185(3)
H7 H 0.3563 0.2774 0.3719
C12 C 0.40995(9) 0.1733(4) 0.3261(3)
H8 H 0.4290 0.2322 0.3843
C13 C 0.29176(10) 0.1416(4) 0.2255(4)
C14 C 0.2908(2) 0.2084(13) -0.0302(13)
H9 H 0.3187 0.2587 -0.0153
H10 H 0.2967 0.1051 -0.0541
C15 C 0.22535(17) 0.2451(9) 0.1140(7)
H11 H 0.2098 0.1546 0.1339
H12 H 0.2232 0.3137 0.1901
Cd1D Cd 0.5000 -0.04690(3) -0.2500
Cd1D_2 Cd 0.5000 -0.04690(3) 0.7500
Cd1F Cd 0.0000 0.45310(3) -0.2500
O1A O 0.48371(5) -0.12112(19) 0.07949(16)
O2A O 0.51346(6) -0.2252(2) -0.08954(17)
O2D O 0.51346(6) 0.2252(2) 0.41046(17)
O2E O 0.48654(6) 0.2252(2) 0.08954(17)
O3F O 0.22676(8) 0.3974(3) -0.3203(3)
N1F N 0.07397(7) 0.4331(3) -0.2556(2)
N1A N 0.57397(7) 0.0669(3) 0.2444(2)
N2F N 0.22790(9) 0.2965(6) -0.1165(4)
C1A C 0.53850(7) -0.2986(3) 0.1316(2)
C2A C 0.52326(7) -0.3675(3) 0.2415(2)
C3A C 0.55169(8) -0.4440(3) 0.3341(3)
H1A H 0.5415 -0.4932 0.4080
C4A C 0.58167(8) -0.3081(3) 0.1153(3)
H2A H 0.5920 -0.2636 0.0392
C5A C 0.60955(8) -0.3819(3) 0.2090(3)
H3A H 0.6390 -0.3868 0.1981
C6A C 0.59458(9) -0.4487(3) 0.3189(3)
H4A H 0.6138 -0.4980 0.3843
C7A C 0.50965(7) -0.2073(3) 0.0332(2)
C8F C 0.10078(9) 0.5140(4) -0.1739(4)
H5F H 0.0896 0.5908 -0.1238
C9F C 0.14435(10) 0.4912(4) -0.1588(4)
H6F H 0.1626 0.5505 -0.0987
C10F C 0.16074(9) 0.3807(4) -0.2326(3)
C11F C 0.13325(10) 0.2981(4) -0.3185(3)
H7F H 0.1437 0.2226 -0.3719
C12F C 0.09005(9) 0.3267(4) -0.3261(3)
H8F H 0.0710 0.2678 -0.3843
C13F C 0.20824(10) 0.3584(4) -0.2255(4)
C14F C 0.2092(2) 0.2916(13) 0.0302(13)
H9F H 0.1813 0.2413 0.0153
H10F H 0.2033 0.3949 0.0541
C15F C 0.27465(17) 0.2549(9) -0.1140(7)
H11F H 0.2902 0.3454 -0.1339
H12F H 0.2768 0.1863 -0.1901
O4 O 0.2112(2) -0.7701(13) 0.4614(8)
C16? C 0.29247(17) 0.3092(7) 0.0284(7)
C17? C 0.2245(3) 0.1475(13) 0.0588(16)
H13? H 0.3029 0.3936 0.0858
H14? H 0.3179 0.2596 0.0004
H15? H 0.2266 0.0399 0.0442
H16? H 0.2065 0.1611 0.1325
loop_
_geom_bond_atom_site_label_1
_geom_bond_atom_site_label_2
_geom_bond_site_symmetry_1
_geom_bond_site_symmetry_2
Cd1 O1 1_555 1_555
O1 C7 1_555 1_555
O2 C7 1_555 1_555
O3 C13 1_555 1_555
N1 Cd1 1_555 1_555
N2 C13 1_555 1_555
C1 C2 1_555 1_555
C2 C3 1_555 1_555
C3 H1 1_555 1_555
C4 C1 1_555 1_555
H2 C4 1_555 1_555
C5 C4 1_555 1_555
H3 C5 1_555 1_555
C6 C3 1_555 1_555
H4 C6 1_555 1_555
C7 C1 1_555 1_555
C8 N1 1_555 1_555
H5 C8 1_555 1_555
C9 C8 1_555 1_555
H6 C9 1_555 1_555
C10 C9 1_555 1_555
C11 C10 1_555 1_555
H7 C11 1_555 1_555
C12 N1 1_555 1_555
H8 C12 1_555 1_555
C13 C10 1_555 1_555
C14 N2 1_555 1_555
H9 C14 1_555 1_555
H10 C14 1_555 1_555
C15 N2 1_555 1_555
H11 C15 1_555 1_555
H12 C15 1_555 1_555
Cd1D O2A 1_555 1_555
Cd1D_2 O2 1_555 1_555
Cd1F N1F 1_555 1_555
O1A Cd1 1_555 1_555
O2A C7A 1_555 1_555
O2D Cd1 1_555 1_555
O2E Cd1 1_555 1_555
O3F C13F 1_555 1_555
N1F C8F 1_555 1_555
N1A Cd1 1_555 1_555
N2F C13F 1_555 1_555
C1A C2A 1_555 1_555
C2A C2 1_555 1_555
C3A C2A 1_555 1_555
H1A C3A 1_555 1_555
C4A C1A 1_555 1_555
H2A C4A 1_555 1_555
C5A C4A 1_555 1_555
H3A C5A 1_555 1_555
C6A C3A 1_555 1_555
H4A C6A 1_555 1_555
C7A O1A 1_555 1_555
C8F H5F 1_555 1_555
C9F C8F 1_555 1_555
H6F C9F 1_555 1_555
C10F C9F 1_555 1_555
C11F C10F 1_555 1_555
H7F C11F 1_555 1_555
C12F N1F 1_555 1_555
H8F C12F 1_555 1_555
C13F C10F 1_555 1_555
C14F C15 1_555 1_555
H9F C14F 1_555 1_555
H10F C14F 1_555 1_555
C15F C14 1_555 1_555
H11F C15F 1_555 1_555
H12F C15F 1_555 1_555
C5 C6 1_555 1_555
C11 C12 1_555 1_555
N2F C14F 1_555 1_555
N2F C15F 1_555 1_555
C1A C7A 1_555 1_555
C5A C6A 1_555 1_555
C11F C12F 1_555 1_555

#END
