
#######################################################################
#
#                 Cambridge Crystallographic Data Centre
#                                CCDC 
#
#######################################################################
#
# If this CIF has been generated from an entry in the Cambridge 
# Structural Database, then it will include bibliographic, chemical, 
# crystal, experimental, refinement or atomic coordinate data resulting 
# from the CCDC's data processing and validation procedures.
#
#######################################################################

data_ILAHEJ
_symmetry_cell_setting           triclinic
_symmetry_space_group_name_H-M   'P -1'
_symmetry_Int_Tables_number      2
_space_group_name_Hall           '-P 1'
loop_
_symmetry_equiv_pos_site_id
_symmetry_equiv_pos_as_xyz
1 x,y,z
2 -x,-y,-z
_cell_length_a                   9.2542(6)
_cell_length_b                   12.5330(9)
_cell_length_c                   12.7302(9)
_cell_angle_alpha                91.0550(10)
_cell_angle_beta                 105.0160(10)
_cell_angle_gamma                100.9930(10)
_cell_volume                     1396.32
loop_
_atom_site_label
_atom_site_type_symbol
_atom_site_fract_x
_atom_site_fract_y
_atom_site_fract_z
Cd1 Cd -0.246620(17) 0.422407(12) 0.130552(13)
O1 O -0.11137(18) 0.29008(13) 0.18230(15)
O2 O 0.02306(18) 0.40099(14) 0.09532(14)
O3 O 0.65698(17) 0.40549(13) 0.29075(13)
O4 O 0.53577(18) 0.48831(13) 0.15462(13)
O5 O -0.2605(2) 0.49372(18) -0.03191(15)
H1 H -0.347(2) 0.497(2) -0.073(2)
H2 H -0.190(3) 0.533(2) -0.055(2)
N1 N -0.0842(2) 0.58552(15) 0.21795(15)
N2 N 0.1921(2) 0.91954(14) 0.47549(15)
N3 N 0.2975(2) 0.98954(16) 0.70317(16)
N4 N 0.5668(2) 1.27995(16) 1.01490(16)
C1 C -0.1028(3) 0.63290(18) 0.30743(19)
H3 H -0.1805 0.5967 0.3380
C2 C -0.0159(3) 0.73087(18) 0.35749(19)
H4 H -0.0361 0.7618 0.4196
C3 C 0.1013(3) 0.78423(18) 0.31684(19)
C4 C 0.1219(3) 0.7346(2) 0.2249(2)
H5 H 0.2011 0.7680 0.1942
C5 C 0.0288(3) 0.6378(2) 0.1783(2)
H6 H 0.0449 0.6062 0.1150
C6 C 0.2012(3) 0.8924(2) 0.3668(2)
H7 H 0.3086 0.8905 0.3696
H8 H 0.1709 0.9504 0.3193
C7 C 0.2669(3) 0.85258(18) 0.55633(18)
H9 H 0.3784 0.8692 0.5643
H10 H 0.2278 0.7745 0.5318
C8 C 0.2366(3) 0.87491(19) 0.6644(2)
H11 H 0.1252 0.8576 0.6565
H12 H 0.2851 0.8278 0.7184
C9 C 0.2330(3) 1.05976(19) 0.6207(2)
H13 H 0.2808 1.1368 0.6452
H14 H 0.1220 1.0505 0.6131
C10 C 0.2579(3) 1.03410(18) 0.5114(2)
H15 H 0.2093 1.0811 0.4573
H16 H 0.3687 1.0491 0.5170
C11 C 0.2619(3) 1.0109(2) 0.8060(2)
H17 H 0.2686 0.9462 0.8491
H18 H 0.1554 1.0218 0.7901
C12 C 0.4182(3) 1.2773(2) 0.9795(2)
H19 H 0.3794 1.3355 1.0035
C13 C 0.3168(3) 1.1947(2) 0.9098(2)
H20 H 0.2114 1.1974 0.8869
C14 C 0.3667(3) 1.1092(2) 0.8734(2)
C15 C 0.5217(4) 1.1133(3) 0.9093(3)
H21 H 0.5638 1.0565 0.8863
C16 C 0.6152(3) 1.1983(3) 0.9777(3)
H22 H 0.7215 1.1986 0.9999
C17 C 0.0054(2) 0.32003(18) 0.14897(18)
C18 C 0.1255(2) 0.25100(18) 0.17437(18)
C19 C 0.0920(3) 0.14767(18) 0.1216(2)
H23 H -0.0055 0.1221 0.0720
C20 C 0.1985(3) 0.08155(19) 0.1403(2)
H24 H 0.1748 0.0115 0.1030
C21 C 0.3397(3) 0.11816(19) 0.2136(2)
H25 H 0.4134 0.0731 0.2271
C22 C 0.3735(3) 0.22005(18) 0.26712(19)
H26 H 0.4702 0.2440 0.3181
C23 C 0.2687(2) 0.28886(17) 0.24810(18)
C24 C 0.3077(2) 0.39741(18) 0.31007(17)
C25 C 0.2115(3) 0.4247(2) 0.37001(18)
H27 H 0.1207 0.3741 0.3697
C26 C 0.2455(3) 0.5236(2) 0.42973(19)
H28 H 0.1796 0.5402 0.4711
C27 C 0.3757(3) 0.5982(2) 0.4290(2)
H29 H 0.3995 0.6665 0.4696
C28 C 0.4715(3) 0.57363(19) 0.3693(2)
H30 H 0.5603 0.6258 0.3684
C29 C 0.4397(2) 0.47332(18) 0.31049(17)
C30 C 0.5508(2) 0.45267(17) 0.24803(18)
Cd1_2 Cd 0.753380(17) 0.422407(12) 0.130552(13)
Cd1_3 Cd 0.753380(17) 1.422407(12) 1.130552(13)
O3_2 O -0.34302(17) 0.40549(13) 0.29075(13)
O4_2 O -0.46423(18) 0.48831(13) 0.15462(13)
N4_2 N -0.4332(2) 0.27995(16) 0.01490(16)
loop_
_geom_bond_atom_site_label_1
_geom_bond_atom_site_label_2
_geom_bond_site_symmetry_1
_geom_bond_site_symmetry_2
Cd1 O1 1_555 1_555
O1 C17 1_555 1_555
O2 Cd1 1_555 1_555
O3 C30 1_555 1_555
O4 C30 1_555 1_555
O5 Cd1 1_555 1_555
H1 O5 1_555 1_555
H2 O5 1_555 1_555
N1 Cd1 1_555 1_555
N2 C6 1_555 1_555
N3 C8 1_555 1_555
N4 C12 1_555 1_555
C1 N1 1_555 1_555
H3 C1 1_555 1_555
C2 C1 1_555 1_555
H4 C2 1_555 1_555
C3 C2 1_555 1_555
C4 C3 1_555 1_555
H5 C4 1_555 1_555
C5 N1 1_555 1_555
H6 C5 1_555 1_555
C6 C3 1_555 1_555
H7 C6 1_555 1_555
H8 C6 1_555 1_555
C7 N2 1_555 1_555
H9 C7 1_555 1_555
H10 C7 1_555 1_555
C8 C7 1_555 1_555
H11 C8 1_555 1_555
H12 C8 1_555 1_555
C9 N3 1_555 1_555
H13 C9 1_555 1_555
H14 C9 1_555 1_555
C10 N2 1_555 1_555
H15 C10 1_555 1_555
H16 C10 1_555 1_555
C11 N3 1_555 1_555
H17 C11 1_555 1_555
H18 C11 1_555 1_555
C12 H19 1_555 1_555
C13 C12 1_555 1_555
H20 C13 1_555 1_555
C14 C11 1_555 1_555
C15 C14 1_555 1_555
H21 C15 1_555 1_555
C16 N4 1_555 1_555
H22 C16 1_555 1_555
C17 O2 1_555 1_555
C18 C17 1_555 1_555
C19 C18 1_555 1_555
H23 C19 1_555 1_555
C20 C19 1_555 1_555
H24 C20 1_555 1_555
C21 C20 1_555 1_555
H25 C21 1_555 1_555
C22 C21 1_555 1_555
H26 C22 1_555 1_555
C23 C18 1_555 1_555
C24 C23 1_555 1_555
C25 C24 1_555 1_555
H27 C25 1_555 1_555
C26 C25 1_555 1_555
H28 C26 1_555 1_555
C27 C26 1_555 1_555
H29 C27 1_555 1_555
C28 C27 1_555 1_555
H30 C28 1_555 1_555
C29 C24 1_555 1_555
C30 C29 1_555 1_555
Cd1_2 O3 1_555 1_555
Cd1_3 N4 1_555 1_555
O3_2 Cd1 1_555 1_555
O4_2 Cd1 1_555 1_555
N4_2 Cd1 1_555 1_555
O4 Cd1_2 1_555 1_555
C4 C5 1_555 1_555
C9 C10 1_555 1_555
C13 C14 1_555 1_555
C15 C16 1_555 1_555
C22 C23 1_555 1_555
C28 C29 1_555 1_555

#END
