
#######################################################################
#
#                 Cambridge Crystallographic Data Centre
#                                CCDC 
#
#######################################################################
#
# If this CIF has been generated from an entry in the Cambridge 
# Structural Database, then it will include bibliographic, chemical, 
# crystal, experimental, refinement or atomic coordinate data resulting 
# from the CCDC's data processing and validation procedures.
#
#######################################################################

data_ILAKAH
_symmetry_cell_setting           monoclinic
_symmetry_space_group_name_H-M   'C 2/c'
_symmetry_Int_Tables_number      15
_space_group_name_Hall           '-C 2yn'
loop_
_symmetry_equiv_pos_site_id
_symmetry_equiv_pos_as_xyz
1 x,y,z
2 1/2+x,1/2+y,z
3 x,-y,1/2+z
4 1/2+x,1/2-y,1/2+z
5 -x,-y,-z
6 1/2-x,1/2-y,-z
7 -x,y,1/2-z
8 1/2-x,1/2+y,1/2-z
_cell_length_a                   14.90090(10)
_cell_length_b                   19.0579(4)
_cell_length_c                   15.0144(2)
_cell_angle_alpha                90
_cell_angle_beta                 102.9450(10)
_cell_angle_gamma                90
_cell_volume                     4155.43
loop_
_atom_site_label
_atom_site_type_symbol
_atom_site_fract_x
_atom_site_fract_y
_atom_site_fract_z
Mn1 Mn 0.5000 0.29526(3) 0.2500
Mn2 Mn 0.36095(2) 0.712920(18) 0.53291(2)
N1 N 0.6128(6) -0.1102(3) 0.1643(4)
H1 H 0.5571(16) -0.1209(13) 0.1899(17)
H2 H 0.630(7) -0.130(5) 0.227(7)
N2 N 0.0944(2) 0.2773(2) 0.4667(2)
H3 H 0.125(3) 0.2964(18) 0.511(3)
H4 H 0.061(3) 0.243(2) 0.472(3)
N3 N 0.27104(16) 0.60888(11) 0.52183(19)
H5 H 0.256(2) 0.6031(18) 0.575(3)
H6 H 0.224(2) 0.6192(16) 0.481(2)
O1 O 0.40593(12) 0.18166(9) 0.05467(12)
O2 O 0.52784(13) 0.21771(10) 0.15816(14)
O3 O 0.22857(12) 0.23690(10) 0.09574(12)
O4 O 0.34882(11) 0.29231(8) 0.17649(11)
O5 O 0.48460(13) 0.37533(9) 0.34517(13)
O6 O 0.52599(12) 0.34288(9) 0.49191(13)
C1 C 0.48021(17) 0.16976(13) 0.11301(17)
C2 C 0.5128(2) 0.09640(14) 0.12749(18)
C3 C 0.4579(3) 0.04048(17) 0.0909(3)
H7 H 0.399(3) 0.050(2) 0.058(3)
C4 C 0.4859(4) -0.0281(2) 0.1049(3)
H8 H 0.441(3) -0.068(3) 0.079(3)
C5 C 0.5728(5) -0.0422(2) 0.1554(3)
C6 C 0.6287(5) 0.0123(3) 0.1921(3)
H9 H 0.674(4) 0.002(3) 0.223(4)
C7 C 0.5989(3) 0.0810(2) 0.1791(3)
H10 H 0.636(3) 0.117(2) 0.201(3)
C8 C 0.27139(16) 0.26186(12) 0.17140(16)
C9 C 0.23062(15) 0.25952(13) 0.25243(16)
C10 C 0.15280(19) 0.21935(15) 0.2530(2)
H11 H 0.129(2) 0.1900(15) 0.201(2)
C11 C 0.1103(2) 0.22326(16) 0.3260(2)
H12 H 0.060(2) 0.1946(17) 0.329(2)
C12 C 0.14204(19) 0.26897(17) 0.39845(19)
C13 C 0.2206(2) 0.30837(18) 0.3981(2)
H13 H 0.241(2) 0.3439(16) 0.446(2)
C14 C 0.26408(19) 0.30305(15) 0.32651(18)
H14 H 0.315(2) 0.3310(14) 0.3252(18)
C15 C 0.48001(16) 0.38064(13) 0.42754(18)
C16 C 0.41790(16) 0.43590(12) 0.45179(17)
C17 C 0.3699(2) 0.48087(14) 0.38499(19)
H15 H 0.3760(19) 0.4739(14) 0.326(2)
C18 C 0.31860(19) 0.53575(15) 0.40714(19)
H16 H 0.291(2) 0.5655(16) 0.364(2)
C19 C 0.31430(16) 0.54743(12) 0.49753(17)
C20 C 0.35969(19) 0.50163(14) 0.5644(2)
H17 H 0.3556(17) 0.5082(13) 0.6260(19)
C21 C 0.41120(18) 0.44652(14) 0.54135(18)
H18 H 0.442(2) 0.4170(15) 0.587(2)
N1F N 0.3872(6) -0.1102(3) 0.3357(4)
H1F H 0.4429(16) -0.1209(13) 0.3101(17)
H2F H 0.370(7) -0.130(5) 0.273(7)
O1F O 0.59407(12) 0.18166(9) 0.44533(12)
O2F O 0.47216(13) 0.21771(10) 0.34184(14)
C1F C 0.51979(17) 0.16976(13) 0.38699(17)
C2F C 0.4872(2) 0.09640(14) 0.37251(18)
C3F C 0.5421(3) 0.04048(17) 0.4091(3)
H7F H 0.601(3) 0.050(2) 0.442(3)
C4F C 0.5141(4) -0.0281(2) 0.3951(3)
H8F H 0.559(3) -0.068(3) 0.421(3)
C5F C 0.4272(5) -0.0422(2) 0.3446(3)
C6F C 0.3713(5) 0.0123(3) 0.3079(3)
H9F H 0.326(4) 0.002(3) 0.277(4)
C7F C 0.4011(3) 0.0810(2) 0.3209(3)
H10F H 0.364(3) 0.117(2) 0.299(3)
N2F N 0.9056(2) 0.2773(2) 0.0333(2)
H3F H 0.875(3) 0.2964(18) -0.011(3)
H4F H 0.939(3) 0.243(2) 0.028(3)
O3F O 0.77143(12) 0.23690(10) 0.40426(12)
O4F O 0.65118(11) 0.29231(8) 0.32351(11)
C8F C 0.72861(16) 0.26186(12) 0.32860(16)
C9F C 0.76938(15) 0.25952(13) 0.24757(16)
C10F C 0.84720(19) 0.21935(15) 0.2470(2)
H11F H 0.871(2) 0.1900(15) 0.299(2)
C11F C 0.8897(2) 0.22326(16) 0.1740(2)
H12F H 0.940(2) 0.1946(17) 0.171(2)
C12F C 0.85796(19) 0.26897(17) 0.10155(19)
C13F C 0.7794(2) 0.30837(18) 0.1019(2)
H13F H 0.759(2) 0.3439(16) 0.054(2)
C14F C 0.73592(19) 0.30305(15) 0.17349(18)
H14F H 0.685(2) 0.3310(14) 0.1748(18)
N3F N 0.72896(16) 0.60888(11) -0.02183(19)
H5F H 0.744(2) 0.6031(18) -0.075(3)
H6F H 0.776(2) 0.6192(16) 0.019(2)
O5F O 0.51540(13) 0.37533(9) 0.15483(13)
O6F O 0.47401(12) 0.34288(9) 0.00809(13)
C15F C 0.51999(16) 0.38064(13) 0.07246(18)
C16F C 0.58210(16) 0.43590(12) 0.04821(17)
C17F C 0.6301(2) 0.48087(14) 0.11501(19)
H15F H 0.6240(19) 0.4739(14) 0.174(2)
C18F C 0.68140(19) 0.53575(15) 0.09286(19)
H16F H 0.709(2) 0.5655(16) 0.136(2)
C19F C 0.68570(16) 0.54743(12) 0.00247(17)
C20F C 0.64031(19) 0.50163(14) -0.0644(2)
H17F H 0.6444(17) 0.5082(13) -0.1260(19)
C21F C 0.58880(18) 0.44652(14) -0.04135(18)
H18F H 0.558(2) 0.4170(15) -0.087(2)
Mn2F Mn 0.63905(2) 0.712920(18) -0.03291(2)
O1B O 0.40593(12) 0.81834(9) 0.55467(12)
O3G O 0.27143(12) 0.73690(10) 0.40426(12)
O4B O 0.34882(11) 0.70769(8) 0.67649(11)
O6D O 0.47401(12) 0.65712(9) 0.50809(13)
Mn2B Mn 0.36095(2) 0.287080(18) 0.03291(2)
Mn2G Mn 0.13905(2) 0.212920(18) -0.03291(2)
Mn2D Mn 0.63905(2) 0.287080(18) 0.46709(2)
Mn2A Mn 0.86095(2) 0.212920(18) 0.53291(2)
O1D O 0.59407(12) 0.81834(9) -0.05467(12)
O3A O 0.72857(12) 0.73690(10) 0.09574(12)
O4D O 0.65118(11) 0.70769(8) -0.17649(11)
O6B O 0.52599(12) 0.65712(9) -0.00809(13)
loop_
_geom_bond_atom_site_label_1
_geom_bond_atom_site_label_2
_geom_bond_site_symmetry_1
_geom_bond_site_symmetry_2
Mn1 O2 1_555 1_555
Mn2 N3 1_555 1_555
N1 H1 1_555 1_555
H2 N1 1_555 1_555
N2 H3 1_555 1_555
H4 N2 1_555 1_555
N3 H5 1_555 1_555
H6 N3 1_555 1_555
O1 C1 1_555 1_555
O2 C1 1_555 1_555
O3 C8 1_555 1_555
O4 Mn1 1_555 1_555
O5 Mn1 1_555 1_555
O6 C15 1_555 1_555
C1 C2 1_555 1_555
C2 C3 1_555 1_555
C3 H7 1_555 1_555
C4 C3 1_555 1_555
H8 C4 1_555 1_555
C5 N1 1_555 1_555
C6 C5 1_555 1_555
H9 C6 1_555 1_555
C7 C2 1_555 1_555
H10 C7 1_555 1_555
C8 O4 1_555 1_555
C9 C8 1_555 1_555
C10 C9 1_555 1_555
H11 C10 1_555 1_555
C11 C10 1_555 1_555
H12 C11 1_555 1_555
C12 N2 1_555 1_555
C13 C12 1_555 1_555
H13 C13 1_555 1_555
C14 C9 1_555 1_555
H14 C14 1_555 1_555
C15 O5 1_555 1_555
C16 C15 1_555 1_555
C17 C16 1_555 1_555
H15 C17 1_555 1_555
C18 C17 1_555 1_555
H16 C18 1_555 1_555
C19 N3 1_555 1_555
C20 C19 1_555 1_555
H17 C20 1_555 1_555
C21 C16 1_555 1_555
H18 C21 1_555 1_555
N1F H1F 1_555 1_555
H2F N1F 1_555 1_555
O1F C1F 1_555 1_555
O2F Mn1 1_555 1_555
C1F O2F 1_555 1_555
C2F C1F 1_555 1_555
C3F C2F 1_555 1_555
H7F C3F 1_555 1_555
C4F C3F 1_555 1_555
H8F C4F 1_555 1_555
C5F N1F 1_555 1_555
C6F C5F 1_555 1_555
H9F C6F 1_555 1_555
C7F C2F 1_555 1_555
H10F C7F 1_555 1_555
N2F H3F 1_555 1_555
H4F N2F 1_555 1_555
O3F C8F 1_555 1_555
O4F Mn1 1_555 1_555
C8F O4F 1_555 1_555
C9F C8F 1_555 1_555
C10F C9F 1_555 1_555
H11F C10F 1_555 1_555
C11F C10F 1_555 1_555
H12F C11F 1_555 1_555
C12F N2F 1_555 1_555
C13F C12F 1_555 1_555
H13F C13F 1_555 1_555
C14F C9F 1_555 1_555
H14F C14F 1_555 1_555
N3F H5F 1_555 1_555
H6F N3F 1_555 1_555
O5F Mn1 1_555 1_555
O6F C15F 1_555 1_555
C15F O5F 1_555 1_555
C16F C15F 1_555 1_555
C17F C16F 1_555 1_555
H15F C17F 1_555 1_555
C18F C17F 1_555 1_555
H16F C18F 1_555 1_555
C19F N3F 1_555 1_555
C20F C19F 1_555 1_555
H17F C20F 1_555 1_555
C21F C16F 1_555 1_555
H18F C21F 1_555 1_555
Mn2F N3F 1_555 1_555
O1B Mn2 1_555 1_555
O3G Mn2 1_555 1_555
O4B Mn2 1_555 1_555
O6D Mn2 1_555 1_555
Mn2B O1 1_555 1_555
Mn2G O3 1_555 1_555
Mn2D O6 1_555 1_555
Mn2A O3F 1_555 1_555
O1D Mn2F 1_555 1_555
O3A Mn2F 1_555 1_555
O4D Mn2F 1_555 1_555
O6B Mn2F 1_555 1_555
O4 Mn2B 1_555 1_555
C4 C5 1_555 1_555
C6 C7 1_555 1_555
C11 C12 1_555 1_555
C13 C14 1_555 1_555
C18 C19 1_555 1_555
C20 C21 1_555 1_555
O1F Mn2D 1_555 1_555
C4F C5F 1_555 1_555
C6F C7F 1_555 1_555
O4F Mn2D 1_555 1_555
C11F C12F 1_555 1_555
C13F C14F 1_555 1_555
O6F Mn2B 1_555 1_555
C18F C19F 1_555 1_555
C20F C21F 1_555 1_555

#END
