
#######################################################################
#
#                 Cambridge Crystallographic Data Centre
#                                CCDC 
#
#######################################################################
#
# If this CIF has been generated from an entry in the Cambridge 
# Structural Database, then it will include bibliographic, chemical, 
# crystal, experimental, refinement or atomic coordinate data resulting 
# from the CCDC's data processing and validation procedures.
#
#######################################################################

data_ILALOW
_symmetry_cell_setting           monoclinic
_symmetry_space_group_name_H-M   'P 21/n'
_symmetry_Int_Tables_number      14
_space_group_name_Hall           '-P 2yn'
loop_
_symmetry_equiv_pos_site_id
_symmetry_equiv_pos_as_xyz
1 x,y,z
2 1/2+x,1/2-y,1/2+z
3 -x,-y,-z
4 1/2-x,1/2+y,1/2-z
_cell_length_a                   11.4146(2)
_cell_length_b                   22.1549(3)
_cell_length_c                   26.9979(5)
_cell_angle_alpha                90
_cell_angle_beta                 100.8008(7)
_cell_angle_gamma                90
_cell_volume                     6706.53
loop_
_atom_site_label
_atom_site_type_symbol
_atom_site_fract_x
_atom_site_fract_y
_atom_site_fract_z
Co1 Co 0.5000 0.5000 0.0000
Co2 Co -0.13491(6) 0.20650(3) -0.28075(2)
S1 S 0.84071(11) 0.52021(7) 0.13204(5)
S2 S 0.0085(4) 0.35483(10) -0.38345(12)
S3 S -0.2301(5) 0.0836(2) -0.14904(15)
N1 N 0.4813(3) 0.40224(16) 0.01575(14)
N2 N 0.3482(3) 0.51926(16) 0.03752(13)
N3 N 0.6200(3) 0.50743(16) 0.06864(14)
N4 N 0.0029(4) 0.24009(17) -0.21913(16)
N5 N -0.0168(3) 0.13134(16) -0.28939(15)
N6 N -0.2545(4) -0.21507(19) -0.22984(18)
N7 N -0.0625(4) 0.2584(2) -0.33032(17)
N8 N -0.2061(4) 0.1579(2) -0.22831(18)
N9 N 0.1297(5) 0.2208(2) -0.13962(18)
N10 N -0.2270(3) 0.67136(18) -0.15928(16)
N11 N -0.1590(4) 0.6467(2) -0.07274(16)
N12 N -0.1771(5) -0.1478(2) -0.2852(2)
C1 C 0.5494(4) 0.3726(2) 0.05358(17)
H1 H 0.6046 0.3944 0.0765
C2 C 0.5418(5) 0.3118(2) 0.0602(2)
H2 H 0.5917 0.2927 0.0868
C3 C 0.4594(5) 0.2788(2) 0.0270(2)
H3 H 0.4523 0.2374 0.0314
C4 C 0.3874(5) 0.3079(2) -0.01275(19)
C5 C 0.4016(4) 0.3694(2) -0.01552(19)
H4 H 0.3516 0.3898 -0.0413
C6 C 0.2960(6) 0.2748(2) -0.0499(2)
C7 C 0.2592(5) 0.2981(2) -0.09411(19)
H5 H 0.2956 0.3345 -0.0994
C8 C 0.1700(5) 0.2775(2) -0.1377(2)
C9 C 0.1286(6) 0.3157(2) -0.1770(2)
H6 H 0.1572 0.3551 -0.1765
C10 C 0.0447(6) 0.2959(2) -0.2172(2)
H7 H 0.0168 0.3223 -0.2435
C11 C 0.0487(5) 0.2058(2) -0.1803(2)
H8 H 0.0211 0.1662 -0.1814
C12 C 0.2448(12) 0.2216(4) -0.0305(4)
H9 H 0.1648 0.2158 -0.0486
H10 H 0.2438 0.2270 0.0047
H11 H 0.2921 0.1868 -0.0349
C13 C 0.3452(4) 0.4968(2) 0.08354(18)
H12 H 0.4096 0.4743 0.1000
C14 C 0.2484(5) 0.5063(3) 0.1072(2)
H13 H 0.2497 0.4920 0.1396
C15 C 0.1506(5) 0.5374(2) 0.08179(19)
H14 H 0.0844 0.5430 0.0968
C16 C 0.1507(4) 0.5601(2) 0.03426(17)
C17 C 0.2519(4) 0.5500(2) 0.01480(17)
H15 H 0.2537 0.5659 -0.0169
C18 C 0.0456(4) 0.5920(2) 0.00472(19)
C19 C 0.0325(4) 0.5935(3) -0.0456(2)
H16 H 0.0916 0.5732 -0.0585
C20 C -0.0596(4) 0.6218(2) -0.0840(2)
C21 C -0.2366(5) 0.6694(3) -0.1108(2)
H17 H -0.3058 0.6858 -0.1028
C22 C -0.0410(5) 0.6232(3) -0.1324(2)
H18 H 0.0285 0.6074 -0.1406
C23 C -0.0364(6) 0.6217(4) 0.0348(3)
H19 H -0.0674 0.6584 0.0184
H20 H 0.0069 0.6309 0.0680
H21 H -0.1012 0.5950 0.0374
C24 C -0.1277(5) 0.6485(3) -0.1691(2)
H22 H -0.1153 0.6495 -0.2021
C25 C 0.0951(5) 0.1430(2) -0.2958(2)
H23 H 0.1184 0.1829 -0.2983
C26 C 0.1752(5) 0.0984(2) -0.2989(2)
H24 H 0.2507 0.1075 -0.3050
C27 C 0.1419(5) 0.0386(2) -0.2927(2)
H25 H 0.1973 0.0078 -0.2927
C28 C 0.0300(5) 0.0252(2) -0.28679(19)
C29 C -0.0482(4) 0.0738(2) -0.28542(17)
H26 H -0.1259 0.0655 -0.2816
C30 C -0.0115(5) -0.0385(2) -0.2839(2)
C31 C -0.0873(5) -0.0505(2) -0.2535(2)
H27 H -0.1093 -0.0181 -0.2353
C32 C 0.7116(4) 0.51260(19) 0.09468(16)
C33 C -0.1407(5) -0.1095(2) -0.2455(2)
C34 C -0.1611(5) -0.1237(2) -0.1998(2)
H28 H -0.1379 -0.0975 -0.1728
C35 C -0.2143(6) -0.1750(3) -0.1934(2)
H29 H -0.2248 -0.1843 -0.1609
C36 C -0.2354(6) -0.2003(3) -0.2757(3)
H30 H -0.2623 -0.2264 -0.3024
C37 C 0.0397(6) -0.0834(2) -0.3124(3)
H31 H 0.0126 -0.1228 -0.3048
H32 H 0.1251 -0.0818 -0.3034
H33 H 0.0155 -0.0755 -0.3478
C38 C -0.0318(6) 0.2990(3) -0.3533(3)
C39 C -0.2187(6) 0.1286(3) -0.1958(3)
N1B N 0.5187(3) 0.59776(16) -0.01575(14)
N4B N 0.9971(4) 0.75991(17) 0.21913(16)
N9B N 0.8703(5) 0.7792(2) 0.13962(18)
C1B C 0.4506(4) 0.6274(2) -0.05358(17)
H1B H 0.3954 0.6056 -0.0765
C2B C 0.4582(5) 0.6882(2) -0.0602(2)
H2B H 0.4083 0.7073 -0.0868
C3B C 0.5406(5) 0.7212(2) -0.0270(2)
H3B H 0.5477 0.7626 -0.0314
C4B C 0.6126(5) 0.6921(2) 0.01275(19)
C5B C 0.5984(4) 0.6306(2) 0.01552(19)
H4B H 0.6484 0.6102 0.0413
C6B C 0.7040(6) 0.7252(2) 0.0499(2)
C7B C 0.7408(5) 0.7019(2) 0.09411(19)
H5B H 0.7044 0.6655 0.0994
C8B C 0.8300(5) 0.7225(2) 0.1377(2)
C9B C 0.8714(6) 0.6843(2) 0.1770(2)
H6B H 0.8428 0.6449 0.1765
C10B C 0.9553(6) 0.7041(2) 0.2172(2)
H7B H 0.9832 0.6777 0.2435
C11B C 0.9513(5) 0.7942(2) 0.1803(2)
H8B H 0.9789 0.8338 0.1814
C12B C 0.7552(12) 0.7784(4) 0.0305(4)
H9B H 0.8352 0.7842 0.0486
H10B H 0.7562 0.7730 -0.0047
H11B H 0.7079 0.8132 0.0349
N2B N 0.6518(3) 0.48074(16) -0.03752(13)
N10B N 1.2270(3) 0.32864(18) 0.15928(16)
N11B N 1.1590(4) 0.3533(2) 0.07274(16)
C13B C 0.6548(4) 0.5032(2) -0.08354(18)
H12B H 0.5904 0.5257 -0.1000
C14B C 0.7516(5) 0.4937(3) -0.1072(2)
H13B H 0.7503 0.5080 -0.1396
C15B C 0.8494(5) 0.4626(2) -0.08179(19)
H14B H 0.9156 0.4570 -0.0968
C16B C 0.8493(4) 0.4399(2) -0.03426(17)
C17B C 0.7481(4) 0.4500(2) -0.01480(17)
H15B H 0.7463 0.4341 0.0169
C18B C 0.9544(4) 0.4080(2) -0.00472(19)
C19B C 0.9675(4) 0.4065(3) 0.0456(2)
H16B H 0.9084 0.4268 0.0585
C20B C 1.0596(4) 0.3782(2) 0.0840(2)
C21B C 1.2366(5) 0.3306(3) 0.1108(2)
H17B H 1.3058 0.3142 0.1028
C22B C 1.0410(5) 0.3768(3) 0.1324(2)
H18B H 0.9715 0.3926 0.1406
C23B C 1.0364(6) 0.3783(4) -0.0348(3)
H19B H 1.0674 0.3416 -0.0184
H20B H 0.9931 0.3691 -0.0680
H21B H 1.1012 0.4050 -0.0374
C24B C 1.1277(5) 0.3515(3) 0.1691(2)
H22B H 1.1153 0.3505 0.2021
S1B S 0.15929(11) 0.47979(7) -0.13204(5)
N3B N 0.3800(3) 0.49257(16) -0.06864(14)
C32B C 0.2884(4) 0.48740(19) -0.09468(16)
Co2B Co 1.13491(6) 0.79350(3) 0.28075(2)
N5C N -0.4832(3) 0.63134(16) -0.21061(15)
N6C N -0.2455(4) 0.28493(19) -0.27016(18)
N12C N -0.3229(5) 0.3522(2) -0.2148(2)
C25C C -0.5951(5) 0.6430(2) -0.2042(2)
H23C H -0.6184 0.6829 -0.2017
C26C C -0.6752(5) 0.5984(2) -0.2011(2)
H24C H -0.7507 0.6075 -0.1950
C27C C -0.6419(5) 0.5386(2) -0.2073(2)
H25C H -0.6973 0.5078 -0.2073
C28C C -0.5300(5) 0.5252(2) -0.21321(19)
C29C C -0.4518(4) 0.5738(2) -0.21458(17)
H26C H -0.3741 0.5655 -0.2184
C30C C -0.4885(5) 0.4615(2) -0.2161(2)
C31C C -0.4127(5) 0.4495(2) -0.2465(2)
H27C H -0.3907 0.4819 -0.2647
C33C C -0.3593(5) 0.3905(2) -0.2545(2)
C34C C -0.3389(5) 0.3763(2) -0.3002(2)
H28C H -0.3621 0.4025 -0.3272
C35C C -0.2857(6) 0.3250(3) -0.3066(2)
H29C H -0.2752 0.3157 -0.3391
C36C C -0.2646(6) 0.2997(3) -0.2243(3)
H30C H -0.2377 0.2736 -0.1976
C37C C -0.5397(6) 0.4166(2) -0.1876(3)
H31C H -0.5126 0.3772 -0.1952
H32C H -0.6251 0.4182 -0.1966
H33C H -0.5155 0.4245 -0.1522
S2B S 0.9915(4) 0.64517(10) 0.38345(12)
N7B N 1.0625(4) 0.7416(2) 0.33032(17)
C38B C 1.0318(6) 0.7010(3) 0.3533(3)
S3B S 1.2301(5) 0.9164(2) 0.14904(15)
N8B N 1.2061(4) 0.8421(2) 0.22831(18)
C39B C 1.2187(6) 0.8714(3) 0.1958(3)
N10C N -0.2730(3) 0.17136(18) -0.34072(16)
Co2C Co -0.36509(6) -0.29350(3) -0.21925(2)
Co2C_2 Co -0.36509(6) 0.70650(3) -0.21925(2)
Co2A Co 1.36509(6) 0.29350(3) 0.21925(2)
N5B N 1.0168(3) 0.86866(16) 0.28939(15)
N6A N 1.2455(4) 0.71507(19) 0.27016(18)
N10A N 1.2730(3) 0.82864(18) 0.34072(16)
N13 N 0.0689(12) 0.5140(6) 0.2416(6)
O1 O 0.1303(12) 0.4867(5) 0.2175(5)
O2 O 0.0124(15) 0.5172(7) 0.2818(6)
C40 C 0.0814(12) 0.5697(6) 0.2211(5)
O3 O 0.2374(19) 0.7186(8) 0.0854(6)
C41 C 0.354(2) 0.6980(10) 0.0817(9)
O4 O 0.578(2) 0.8105(10) 0.1952(10)
C42 C 0.566(3) 0.8216(12) 0.2461(13)
O5 O 0.795(2) 0.2691(11) 0.1506(9)
C43 C 0.858(4) 0.2131(16) 0.1370(14)
O6 O 0.452(3) 0.9174(16) 0.0346(14)
C44 C 0.495(8) 0.977(2) 0.049(3)
O7 O 0.770(4) 0.9984(15) 0.1554(16)
C45 C 0.852(4) 0.9626(17) 0.1312(14)
loop_
_geom_bond_atom_site_label_1
_geom_bond_atom_site_label_2
_geom_bond_site_symmetry_1
_geom_bond_site_symmetry_2
Co1 N1 1_555 1_555
Co2 N4 1_555 1_555
S1 C32 1_555 1_555
S2 C38 1_555 1_555
S3 C39 1_555 1_555
N1 C1 1_555 1_555
N2 Co1 1_555 1_555
N3 Co1 1_555 1_555
N4 C10 1_555 1_555
N5 Co2 1_555 1_555
N6 C35 1_555 1_555
N7 Co2 1_555 1_555
N8 Co2 1_555 1_555
N9 C8 1_555 1_555
N10 C21 1_555 1_555
N11 C20 1_555 1_555
N12 C33 1_555 1_555
C1 H1 1_555 1_555
C2 C1 1_555 1_555
H2 C2 1_555 1_555
C3 C2 1_555 1_555
H3 C3 1_555 1_555
C4 C3 1_555 1_555
C5 N1 1_555 1_555
H4 C5 1_555 1_555
C6 C4 1_555 1_555
C7 C6 1_555 1_555
H5 C7 1_555 1_555
C8 C7 1_555 1_555
C9 C8 1_555 1_555
H6 C9 1_555 1_555
C10 C9 1_555 1_555
H7 C10 1_555 1_555
C11 N4 1_555 1_555
H8 C11 1_555 1_555
C12 C6 1_555 1_555
H9 C12 1_555 1_555
H10 C12 1_555 1_555
H11 C12 1_555 1_555
C13 N2 1_555 1_555
H12 C13 1_555 1_555
C14 C13 1_555 1_555
H13 C14 1_555 1_555
C15 C14 1_555 1_555
H14 C15 1_555 1_555
C16 C15 1_555 1_555
C17 N2 1_555 1_555
H15 C17 1_555 1_555
C18 C16 1_555 1_555
C19 C18 1_555 1_555
H16 C19 1_555 1_555
C20 C19 1_555 1_555
C21 N11 1_555 1_555
H17 C21 1_555 1_555
C22 C20 1_555 1_555
H18 C22 1_555 1_555
C23 C18 1_555 1_555
H19 C23 1_555 1_555
H20 C23 1_555 1_555
H21 C23 1_555 1_555
C24 N10 1_555 1_555
H22 C24 1_555 1_555
C25 N5 1_555 1_555
H23 C25 1_555 1_555
C26 C25 1_555 1_555
H24 C26 1_555 1_555
C27 C26 1_555 1_555
H25 C27 1_555 1_555
C28 C27 1_555 1_555
C29 N5 1_555 1_555
H26 C29 1_555 1_555
C30 C28 1_555 1_555
C31 C30 1_555 1_555
H27 C31 1_555 1_555
C32 N3 1_555 1_555
C33 C31 1_555 1_555
C34 C33 1_555 1_555
H28 C34 1_555 1_555
C35 C34 1_555 1_555
H29 C35 1_555 1_555
C36 N6 1_555 1_555
H30 C36 1_555 1_555
C37 C30 1_555 1_555
H31 C37 1_555 1_555
H32 C37 1_555 1_555
H33 C37 1_555 1_555
C38 N7 1_555 1_555
C39 N8 1_555 1_555
N13 O1 1_555 1_555
O2 N13 1_555 1_555
C40 N13 1_555 1_555
O3 C41 1_555 1_555
O4 C42 1_555 1_555
O5 C43 1_555 1_555
O6 C44 1_555 1_555
O7 C45 1_555 1_555
N1B Co1 1_555 1_555
N4B C10B 1_555 1_555
N9B C8B 1_555 1_555
C1B N1B 1_555 1_555
H1B C1B 1_555 1_555
C2B C1B 1_555 1_555
H2B C2B 1_555 1_555
C3B C2B 1_555 1_555
H3B C3B 1_555 1_555
C4B C3B 1_555 1_555
C5B N1B 1_555 1_555
H4B C5B 1_555 1_555
C6B C4B 1_555 1_555
C7B C6B 1_555 1_555
H5B C7B 1_555 1_555
C8B C7B 1_555 1_555
C9B C8B 1_555 1_555
H6B C9B 1_555 1_555
C10B C9B 1_555 1_555
H7B C10B 1_555 1_555
C11B N4B 1_555 1_555
H8B C11B 1_555 1_555
C12B C6B 1_555 1_555
H9B C12B 1_555 1_555
H10B C12B 1_555 1_555
H11B C12B 1_555 1_555
N2B Co1 1_555 1_555
N10B C21B 1_555 1_555
N11B C20B 1_555 1_555
C13B N2B 1_555 1_555
H12B C13B 1_555 1_555
C14B C13B 1_555 1_555
H13B C14B 1_555 1_555
C15B C14B 1_555 1_555
H14B C15B 1_555 1_555
C16B C15B 1_555 1_555
C17B N2B 1_555 1_555
H15B C17B 1_555 1_555
C18B C16B 1_555 1_555
C19B C18B 1_555 1_555
H16B C19B 1_555 1_555
C20B C19B 1_555 1_555
C21B N11B 1_555 1_555
H17B C21B 1_555 1_555
C22B C20B 1_555 1_555
H18B C22B 1_555 1_555
C23B C18B 1_555 1_555
H19B C23B 1_555 1_555
H20B C23B 1_555 1_555
H21B C23B 1_555 1_555
C24B N10B 1_555 1_555
H22B C24B 1_555 1_555
S1B C32B 1_555 1_555
N3B Co1 1_555 1_555
C32B N3B 1_555 1_555
Co2B N4B 1_555 1_555
N5C C25C 1_555 1_555
N6C Co2 1_555 1_555
N12C C33C 1_555 1_555
C25C H23C 1_555 1_555
C26C C25C 1_555 1_555
H24C C26C 1_555 1_555
C27C C26C 1_555 1_555
H25C C27C 1_555 1_555
C28C C27C 1_555 1_555
C29C N5C 1_555 1_555
H26C C29C 1_555 1_555
C30C C28C 1_555 1_555
C31C C30C 1_555 1_555
H27C C31C 1_555 1_555
C33C C31C 1_555 1_555
C34C C33C 1_555 1_555
H28C C34C 1_555 1_555
C35C N6C 1_555 1_555
H29C C35C 1_555 1_555
C36C N6C 1_555 1_555
H30C C36C 1_555 1_555
C37C C30C 1_555 1_555
H31C C37C 1_555 1_555
H32C C37C 1_555 1_555
H33C C37C 1_555 1_555
S2B C38B 1_555 1_555
N7B Co2B 1_555 1_555
C38B N7B 1_555 1_555
S3B C39B 1_555 1_555
N8B Co2B 1_555 1_555
C39B N8B 1_555 1_555
N10C Co2 1_555 1_555
Co2C N6 1_555 1_555
Co2C_2 N10 1_555 1_555
Co2A N10B 1_555 1_555
N5B Co2B 1_555 1_555
N6A Co2B 1_555 1_555
N10A Co2B 1_555 1_555
N9 C11 1_555 1_555
N12 C36 1_555 1_555
C4 C5 1_555 1_555
C16 C17 1_555 1_555
C22 C24 1_555 1_555
C28 C29 1_555 1_555
N9B C11B 1_555 1_555
C4B C5B 1_555 1_555
C16B C17B 1_555 1_555
C22B C24B 1_555 1_555
N5C Co2C_2 1_555 1_555
N12C C36C 1_555 1_555
C28C C29C 1_555 1_555
C34C C35C 1_555 1_555

#END
