
#######################################################################
#
#                 Cambridge Crystallographic Data Centre
#                                CCDC 
#
#######################################################################
#
# If this CIF has been generated from an entry in the Cambridge 
# Structural Database, then it will include bibliographic, chemical, 
# crystal, experimental, refinement or atomic coordinate data resulting 
# from the CCDC's data processing and validation procedures.
#
#######################################################################

data_ILALUC
_symmetry_cell_setting           monoclinic
_symmetry_space_group_name_H-M   'P 21/n'
_symmetry_Int_Tables_number      14
_space_group_name_Hall           '-P 2yn'
loop_
_symmetry_equiv_pos_site_id
_symmetry_equiv_pos_as_xyz
1 x,y,z
2 1/2+x,1/2-y,1/2+z
3 -x,-y,-z
4 1/2-x,1/2+y,1/2-z
_cell_length_a                   10.7798(10)
_cell_length_b                   14.1407(13)
_cell_length_c                   34.336(3)
_cell_angle_alpha                90
_cell_angle_beta                 90.014(2)
_cell_angle_gamma                90
_cell_volume                     5233.97
loop_
_atom_site_label
_atom_site_type_symbol
_atom_site_fract_x
_atom_site_fract_y
_atom_site_fract_z
Co1 Co -0.00259(4) 1.03428(2) 0.245631(10)
Co2 Co 0.5000 0.5000 0.0000
Co3 Co 0.5000 0.5000 0.5000
N1 N -0.0383(2) 0.88822(17) 0.22117(7)
N2 N 0.3659(3) 0.55920(18) 0.04000(7)
N3 N 0.1142(3) 0.97357(18) 0.29038(7)
N4 N 0.5304(2) 0.64224(18) 0.47129(7)
N5 N 0.8779(3) 0.09806(18) 0.20192(7)
N6 N 0.4474(3) 0.35572(17) 0.01930(7)
N7 N 0.0441(2) 1.17672(17) 0.27047(7)
N8 N -0.3873(3) 1.43330(18) 0.45550(7)
N9 N 0.1466(3) 1.04965(19) 0.20798(7)
N10 N -0.1574(3) 1.02034(18) 0.28097(7)
N11 N 0.6381(3) 0.50945(18) 0.04273(7)
N12 N 0.3427(3) 0.47768(19) 0.46659(8)
S1 S 0.31622(16) 1.08772(12) 0.14961(5)
S2 S -0.39755(10) 0.94811(7) 0.28681(4)
S3 S 0.77934(11) 0.52057(7) 0.11124(3)
S4 S 0.12503(15) 0.39839(9) 0.43865(6)
C1 C 0.0311(3) 0.8571(2) 0.19125(8)
H1 H 0.0883 0.9001 0.1799
C2 C 0.0245(3) 0.7650(2) 0.17564(9)
C3 C -0.0628(4) 0.7042(2) 0.19183(10)
H2 H -0.0715 0.6416 0.1821
C4 C -0.1362(4) 0.7352(2) 0.22190(11)
H3 H -0.1970 0.6946 0.2329
C5 C -0.1206(3) 0.8264(2) 0.23607(10)
H4 H -0.1706 0.8462 0.2574
C6 C 0.1110(3) 0.7383(2) 0.14496(9)
H5 H 0.1802 0.7785 0.1406
C7 C 0.1006(3) 0.6616(2) 0.12253(9)
H6 H 0.0274 0.6247 0.1254
C8 C 0.1918(3) 0.6293(2) 0.09397(9)
C9 C 0.3162(4) 0.6596(3) 0.09401(10)
H7 H 0.3434 0.7053 0.1124
C10 C 0.3978(4) 0.6232(2) 0.06756(10)
H8 H 0.4816 0.6440 0.0685
C11 C 0.2478(3) 0.5304(2) 0.04002(9)
H9 H 0.2233 0.4846 0.0213
C12 C 0.1598(3) 0.5635(2) 0.06564(10)
H10 H 0.0768 0.5412 0.0640
C13 C 0.0816(4) 0.9020(3) 0.31416(10)
H11 H 0.0006 0.8763 0.3115
C14 C 0.1587(4) 0.8636(3) 0.34219(11)
H12 H 0.1303 0.8134 0.3583
C15 C 0.2790(3) 0.8993(2) 0.34666(9)
C16 C 0.3108(3) 0.9740(2) 0.32208(9)
H13 H 0.3904 1.0022 0.3243
C17 C 0.2287(3) 1.0074(2) 0.29476(9)
H14 H 0.2549 1.0572 0.2781
C18 C 0.3707(3) 0.8656(2) 0.37499(9)
H15 H 0.4444 0.9019 0.3775
C19 C 0.3613(3) 0.7892(2) 0.39772(9)
H16 H 0.2899 0.7504 0.3951
C20 C 0.4563(3) 0.7621(2) 0.42667(9)
C21 C 0.4496(3) 0.6733(2) 0.44424(8)
H17 H 0.3842 0.6322 0.4367
C22 C 0.6223(3) 0.7015(2) 0.48143(9)
H18 H 0.6806 0.6810 0.5004
C23 C 0.6364(3) 0.7908(2) 0.46577(9)
H19 H 0.7026 0.8305 0.4739
C24 C 0.5528(3) 0.8211(2) 0.43809(9)
H20 H 0.5611 0.8822 0.4269
C25 C 0.9081(4) 0.1799(2) 0.18466(10)
H21 H 0.9849 0.2088 0.1912
C26 C 0.8326(4) 0.2241(2) 0.15779(10)
H22 H 0.8572 0.2828 0.1468
C27 C 0.7206(3) 0.1833(2) 0.14665(9)
C28 C 0.6885(3) 0.1000(2) 0.16550(9)
H23 H 0.6112 0.0705 0.1601
C29 C 0.7685(3) 0.0601(2) 0.19198(10)
H24 H 0.7449 0.0023 0.2039
C30 C 0.6468(3) 0.2276(2) 0.11576(9)
H25 H 0.6644 0.2918 0.1096
C31 C 0.5574(3) 0.1853(2) 0.09574(9)
H26 H 0.5365 0.1227 0.1034
C32 C 0.4873(3) 0.2253(2) 0.06289(8)
C33 C 0.5057(4) 0.31793(19) 0.04985(8)
H27 H 0.5633 0.3563 0.0636
C34 C 0.3639(3) 0.3004(2) 0.00066(9)
H28 H 0.3201 0.3260 -0.0209
C35 C 0.3395(4) 0.2085(2) 0.01162(10)
H29 H 0.2804 0.1719 -0.0023
C36 C 0.4014(3) 0.1702(2) 0.04296(9)
H30 H 0.3856 0.1069 0.0509
C37 C -0.0181(3) 1.2093(2) 0.30147(8)
H31 H -0.0820 1.1711 0.3122
C38 C 0.0069(3) 1.2974(2) 0.31877(8)
C39 C 0.1014(3) 1.3520(2) 0.30282(9)
H32 H 0.1209 1.4120 0.3136
C40 C 0.1660(3) 1.3181(2) 0.27144(10)
H33 H 0.2314 1.3543 0.2604
C41 C 0.1357(3) 1.2316(2) 0.25599(9)
H34 H 0.1812 1.2093 0.2341
C42 C -0.0641(3) 1.3358(2) 0.35164(9)
H35 H -0.0379 1.3955 0.3613
C43 C -0.1603(3) 1.2968(2) 0.36929(9)
H36 H -0.1835 1.2345 0.3618
C44 C -0.2339(3) 1.3439(2) 0.39985(9)
C45 C -0.3455(4) 1.3043(3) 0.41215(10)
H37 H -0.3712 1.2448 0.4022
C46 C -0.4189(3) 1.3514(2) 0.43880(9)
H38 H -0.4963 1.3239 0.4457
C47 C -0.2771(3) 1.4706(2) 0.44428(10)
H39 H -0.2514 1.5285 0.4558
C48 C -0.1998(3) 1.4288(2) 0.41697(9)
H40 H -0.1238 1.4583 0.4100
C49 C 0.2173(4) 1.0666(2) 0.18394(10)
C50 C -0.2576(3) 0.9917(2) 0.28424(9)
C51 C 0.6984(3) 0.5153(2) 0.07114(9)
C52 C 0.2531(4) 0.4464(2) 0.45404(11)
N1B N 1.0383(2) 0.11178(17) -0.22117(7)
N2B N 0.6341(3) 0.44080(18) -0.04000(7)
C1B C 0.9689(3) 0.1429(2) -0.19125(8)
H1B H 0.9117 0.0999 -0.1799
C2B C 0.9755(3) 0.2350(2) -0.17564(9)
C3B C 1.0628(4) 0.2958(2) -0.19183(10)
H2B H 1.0715 0.3584 -0.1821
C4B C 1.1362(4) 0.2648(2) -0.22190(11)
H3B H 1.1970 0.3054 -0.2329
C5B C 1.1206(3) 0.1736(2) -0.23607(10)
H4B H 1.1706 0.1538 -0.2574
C6B C 0.8890(3) 0.2617(2) -0.14496(9)
H5B H 0.8198 0.2215 -0.1406
C7B C 0.8994(3) 0.3384(2) -0.12253(9)
H6B H 0.9726 0.3753 -0.1254
C8B C 0.8082(3) 0.3707(2) -0.09397(9)
C9B C 0.6838(4) 0.3404(3) -0.09401(10)
H7B H 0.6566 0.2947 -0.1124
C10B C 0.6022(4) 0.3768(2) -0.06756(10)
H8B H 0.5184 0.3560 -0.0685
C11B C 0.7522(3) 0.4696(2) -0.04002(9)
H9B H 0.7767 0.5154 -0.0213
C12B C 0.8402(3) 0.4365(2) -0.06564(10)
H10B H 0.9232 0.4588 -0.0640
N5B N 0.1221(3) 0.90194(18) -0.20192(7)
N6B N 0.5526(3) 0.64428(17) -0.01930(7)
C25B C 0.0919(4) 0.8201(2) -0.18466(10)
H21B H 0.0151 0.7912 -0.1912
C26B C 0.1674(4) 0.7759(2) -0.15779(10)
H22B H 0.1428 0.7172 -0.1468
C27B C 0.2794(3) 0.8167(2) -0.14665(9)
C28B C 0.3115(3) 0.9000(2) -0.16550(9)
H23B H 0.3888 0.9295 -0.1601
C29B C 0.2315(3) 0.9399(2) -0.19198(10)
H24B H 0.2551 0.9977 -0.2039
C30B C 0.3532(3) 0.7724(2) -0.11576(9)
H25B H 0.3356 0.7082 -0.1096
C31B C 0.4426(3) 0.8147(2) -0.09574(9)
H26B H 0.4635 0.8773 -0.1034
C32B C 0.5127(3) 0.7747(2) -0.06289(8)
C33B C 0.4943(4) 0.68207(19) -0.04985(8)
H27B H 0.4367 0.6437 -0.0636
C34B C 0.6361(3) 0.6996(2) -0.00066(9)
H28B H 0.6799 0.6740 0.0209
C35B C 0.6605(4) 0.7915(2) -0.01162(10)
H29B H 0.7196 0.8281 0.0023
C36B C 0.5986(3) 0.8298(2) -0.04296(9)
H30B H 0.6144 0.8931 -0.0509
N11B N 0.3619(3) 0.49055(18) -0.04273(7)
S3B S 0.22066(11) 0.47943(7) -0.11124(3)
C51B C 0.3016(3) 0.4847(2) -0.07114(9)
Co1B Co 1.00259(4) -0.03428(2) -0.245631(10)
N3B N 0.8858(3) 0.02643(18) -0.29038(7)
N4B N 0.4696(2) 0.35776(18) -0.47129(7)
C13B C 0.9184(4) 0.0980(3) -0.31416(10)
H11B H 0.9994 0.1237 -0.3115
C14B C 0.8413(4) 0.1364(3) -0.34219(11)
H12B H 0.8697 0.1866 -0.3583
C15B C 0.7210(3) 0.1007(2) -0.34666(9)
C16B C 0.6892(3) 0.0260(2) -0.32208(9)
H13B H 0.6096 -0.0022 -0.3243
C17B C 0.7713(3) -0.0074(2) -0.29476(9)
H14B H 0.7451 -0.0572 -0.2781
C18B C 0.6293(3) 0.1344(2) -0.37499(9)
H15B H 0.5556 0.0981 -0.3775
C19B C 0.6387(3) 0.2108(2) -0.39772(9)
H16B H 0.7101 0.2496 -0.3951
C20B C 0.5437(3) 0.2379(2) -0.42667(9)
C21B C 0.5504(3) 0.3267(2) -0.44424(8)
H17B H 0.6158 0.3678 -0.4367
C22B C 0.3777(3) 0.2985(2) -0.48143(9)
H18B H 0.3194 0.3190 -0.5004
C23B C 0.3636(3) 0.2092(2) -0.46577(9)
H19B H 0.2974 0.1695 -0.4739
C24B C 0.4472(3) 0.1789(2) -0.43809(9)
H20B H 0.4389 0.1178 -0.4269
N7B N 0.9559(2) -0.17672(17) -0.27047(7)
N8B N 1.3873(3) -0.43330(18) -0.45550(7)
C37B C 1.0181(3) -0.2093(2) -0.30147(8)
H31B H 1.0820 -0.1711 -0.3122
C38B C 0.9931(3) -0.2974(2) -0.31877(8)
C39B C 0.8986(3) -0.3520(2) -0.30282(9)
H32B H 0.8791 -0.4120 -0.3136
C40B C 0.8340(3) -0.3181(2) -0.27144(10)
H33B H 0.7686 -0.3543 -0.2604
C41B C 0.8643(3) -0.2316(2) -0.25599(9)
H34B H 0.8188 -0.2093 -0.2341
C42B C 1.0641(3) -0.3358(2) -0.35164(9)
H35B H 1.0379 -0.3955 -0.3613
C43B C 1.1603(3) -0.2968(2) -0.36929(9)
H36B H 1.1835 -0.2345 -0.3618
C44B C 1.2339(3) -0.3439(2) -0.39985(9)
C45B C 1.3455(4) -0.3043(3) -0.41215(10)
H37B H 1.3712 -0.2448 -0.4022
C46B C 1.4189(3) -0.3514(2) -0.43880(9)
H38B H 1.4963 -0.3239 -0.4457
C47B C 1.2771(3) -0.4706(2) -0.44428(10)
H39B H 1.2514 -0.5285 -0.4558
C48B C 1.1998(3) -0.4288(2) -0.41697(9)
H40B H 1.1238 -0.4583 -0.4100
N9B N 0.8534(3) -0.04965(19) -0.20798(7)
S1B S 0.68378(16) -0.08772(12) -0.14961(5)
C49B C 0.7827(4) -0.0666(2) -0.18394(10)
N10B N 1.1574(3) -0.02034(18) -0.28097(7)
S2B S 1.39755(10) 0.05189(7) -0.28681(4)
C50B C 1.2576(3) 0.0083(2) -0.28424(9)
N12B N 0.6573(3) 0.52232(19) 0.53341(8)
S4B S 0.87497(15) 0.60161(9) 0.56135(6)
C52B C 0.7469(4) 0.5536(2) 0.54596(11)
N5_2 N -0.1221(3) 1.09806(18) 0.20192(7)
N4B_2 N 0.4696(2) 0.35776(18) 0.52871(7)
N8_2 N 0.6127(3) 0.43330(18) 0.45550(7)
N8B_2 N 0.3873(3) 0.56670(18) 0.54450(7)
Co1_2 Co 0.99741(4) 0.03428(2) 0.245631(10)
Co3_2 Co -0.5000 1.5000 0.5000
Co1B_2 Co 0.00259(4) 0.96572(2) -0.245631(10)
N5B_2 N 1.1221(3) -0.09806(18) -0.20192(7)
Co3_3 Co 0.5000 0.5000 -0.5000
Co3_4 Co 1.5000 -0.5000 -0.5000
loop_
_geom_bond_atom_site_label_1
_geom_bond_atom_site_label_2
_geom_bond_site_symmetry_1
_geom_bond_site_symmetry_2
Co1 N1 1_555 1_555
Co2 N2 1_555 1_555
Co3 N4 1_555 1_555
N1 C1 1_555 1_555
N2 C10 1_555 1_555
N3 Co1 1_555 1_555
N4 C21 1_555 1_555
N5 C25 1_555 1_555
N6 Co2 1_555 1_555
N7 Co1 1_555 1_555
N8 C46 1_555 1_555
N9 Co1 1_555 1_555
N10 Co1 1_555 1_555
N11 Co2 1_555 1_555
N12 Co3 1_555 1_555
S1 C49 1_555 1_555
S2 C50 1_555 1_555
S3 C51 1_555 1_555
S4 C52 1_555 1_555
C1 H1 1_555 1_555
C2 C1 1_555 1_555
C3 C2 1_555 1_555
H2 C3 1_555 1_555
C4 C3 1_555 1_555
H3 C4 1_555 1_555
C5 N1 1_555 1_555
H4 C5 1_555 1_555
C6 C2 1_555 1_555
H5 C6 1_555 1_555
C7 C6 1_555 1_555
H6 C7 1_555 1_555
C8 C7 1_555 1_555
C9 C8 1_555 1_555
H7 C9 1_555 1_555
C10 C9 1_555 1_555
H8 C10 1_555 1_555
C11 N2 1_555 1_555
H9 C11 1_555 1_555
C12 C8 1_555 1_555
H10 C12 1_555 1_555
C13 N3 1_555 1_555
H11 C13 1_555 1_555
C14 C13 1_555 1_555
H12 C14 1_555 1_555
C15 C14 1_555 1_555
C16 C15 1_555 1_555
H13 C16 1_555 1_555
C17 N3 1_555 1_555
H14 C17 1_555 1_555
C18 C15 1_555 1_555
H15 C18 1_555 1_555
C19 C18 1_555 1_555
H16 C19 1_555 1_555
C20 C19 1_555 1_555
C21 C20 1_555 1_555
H17 C21 1_555 1_555
C22 N4 1_555 1_555
H18 C22 1_555 1_555
C23 C22 1_555 1_555
H19 C23 1_555 1_555
C24 C20 1_555 1_555
H20 C24 1_555 1_555
C25 H21 1_555 1_555
C26 C25 1_555 1_555
H22 C26 1_555 1_555
C27 C26 1_555 1_555
C28 C27 1_555 1_555
H23 C28 1_555 1_555
C29 N5 1_555 1_555
H24 C29 1_555 1_555
C30 C27 1_555 1_555
H25 C30 1_555 1_555
C31 C30 1_555 1_555
H26 C31 1_555 1_555
C32 C31 1_555 1_555
C33 N6 1_555 1_555
H27 C33 1_555 1_555
C34 N6 1_555 1_555
H28 C34 1_555 1_555
C35 C34 1_555 1_555
H29 C35 1_555 1_555
C36 C32 1_555 1_555
H30 C36 1_555 1_555
C37 N7 1_555 1_555
H31 C37 1_555 1_555
C38 C37 1_555 1_555
C39 C38 1_555 1_555
H32 C39 1_555 1_555
C40 C39 1_555 1_555
H33 C40 1_555 1_555
C41 N7 1_555 1_555
H34 C41 1_555 1_555
C42 C38 1_555 1_555
H35 C42 1_555 1_555
C43 C42 1_555 1_555
H36 C43 1_555 1_555
C44 C43 1_555 1_555
C45 C44 1_555 1_555
H37 C45 1_555 1_555
C46 C45 1_555 1_555
H38 C46 1_555 1_555
C47 N8 1_555 1_555
H39 C47 1_555 1_555
C48 C44 1_555 1_555
H40 C48 1_555 1_555
C49 N9 1_555 1_555
C50 N10 1_555 1_555
C51 N11 1_555 1_555
C52 N12 1_555 1_555
N1B C1B 1_555 1_555
N2B Co2 1_555 1_555
C1B H1B 1_555 1_555
C2B C1B 1_555 1_555
C3B C2B 1_555 1_555
H2B C3B 1_555 1_555
C4B C3B 1_555 1_555
H3B C4B 1_555 1_555
C5B N1B 1_555 1_555
H4B C5B 1_555 1_555
C6B C2B 1_555 1_555
H5B C6B 1_555 1_555
C7B C6B 1_555 1_555
H6B C7B 1_555 1_555
C8B C7B 1_555 1_555
C9B C8B 1_555 1_555
H7B C9B 1_555 1_555
C10B N2B 1_555 1_555
H8B C10B 1_555 1_555
C11B N2B 1_555 1_555
H9B C11B 1_555 1_555
C12B C8B 1_555 1_555
H10B C12B 1_555 1_555
N5B C25B 1_555 1_555
N6B Co2 1_555 1_555
C25B H21B 1_555 1_555
C26B C25B 1_555 1_555
H22B C26B 1_555 1_555
C27B C26B 1_555 1_555
C28B C27B 1_555 1_555
H23B C28B 1_555 1_555
C29B N5B 1_555 1_555
H24B C29B 1_555 1_555
C30B C27B 1_555 1_555
H25B C30B 1_555 1_555
C31B C30B 1_555 1_555
H26B C31B 1_555 1_555
C32B C31B 1_555 1_555
C33B N6B 1_555 1_555
H27B C33B 1_555 1_555
C34B N6B 1_555 1_555
H28B C34B 1_555 1_555
C35B C34B 1_555 1_555
H29B C35B 1_555 1_555
C36B C32B 1_555 1_555
H30B C36B 1_555 1_555
N11B Co2 1_555 1_555
S3B C51B 1_555 1_555
C51B N11B 1_555 1_555
Co1B N1B 1_555 1_555
N3B Co1B 1_555 1_555
N4B C21B 1_555 1_555
C13B N3B 1_555 1_555
H11B C13B 1_555 1_555
C14B C13B 1_555 1_555
H12B C14B 1_555 1_555
C15B C14B 1_555 1_555
C16B C15B 1_555 1_555
H13B C16B 1_555 1_555
C17B N3B 1_555 1_555
H14B C17B 1_555 1_555
C18B C15B 1_555 1_555
H15B C18B 1_555 1_555
C19B C18B 1_555 1_555
H16B C19B 1_555 1_555
C20B C19B 1_555 1_555
C21B C20B 1_555 1_555
H17B C21B 1_555 1_555
C22B N4B 1_555 1_555
H18B C22B 1_555 1_555
C23B C22B 1_555 1_555
H19B C23B 1_555 1_555
C24B C20B 1_555 1_555
H20B C24B 1_555 1_555
N7B Co1B 1_555 1_555
N8B C46B 1_555 1_555
C37B N7B 1_555 1_555
H31B C37B 1_555 1_555
C38B C37B 1_555 1_555
C39B C38B 1_555 1_555
H32B C39B 1_555 1_555
C40B C39B 1_555 1_555
H33B C40B 1_555 1_555
C41B N7B 1_555 1_555
H34B C41B 1_555 1_555
C42B C38B 1_555 1_555
H35B C42B 1_555 1_555
C43B C42B 1_555 1_555
H36B C43B 1_555 1_555
C44B C43B 1_555 1_555
C45B C44B 1_555 1_555
H37B C45B 1_555 1_555
C46B C45B 1_555 1_555
H38B C46B 1_555 1_555
C47B N8B 1_555 1_555
H39B C47B 1_555 1_555
C48B C44B 1_555 1_555
H40B C48B 1_555 1_555
N9B Co1B 1_555 1_555
S1B C49B 1_555 1_555
C49B N9B 1_555 1_555
N10B Co1B 1_555 1_555
S2B C50B 1_555 1_555
C50B N10B 1_555 1_555
N12B Co3 1_555 1_555
S4B C52B 1_555 1_555
C52B N12B 1_555 1_555
N5_2 Co1 1_555 1_555
N4B_2 Co3 1_555 1_555
N8_2 Co3 1_555 1_555
N8B_2 Co3 1_555 1_555
Co1_2 N5 1_555 1_555
Co3_2 N8 1_555 1_555
Co1B_2 N5B 1_555 1_555
N5B_2 Co1B 1_555 1_555
Co3_3 N4B 1_555 1_555
Co3_4 N8B 1_555 1_555
C4 C5 1_555 1_555
C11 C12 1_555 1_555
C16 C17 1_555 1_555
C23 C24 1_555 1_555
C28 C29 1_555 1_555
C32 C33 1_555 1_555
C35 C36 1_555 1_555
C40 C41 1_555 1_555
C47 C48 1_555 1_555
C4B C5B 1_555 1_555
C9B C10B 1_555 1_555
C11B C12B 1_555 1_555
C28B C29B 1_555 1_555
C32B C33B 1_555 1_555
C35B C36B 1_555 1_555
C16B C17B 1_555 1_555
C23B C24B 1_555 1_555
C40B C41B 1_555 1_555
C47B C48B 1_555 1_555

#END
