
#######################################################################
#
#                 Cambridge Crystallographic Data Centre
#                                CCDC 
#
#######################################################################
#
# If this CIF has been generated from an entry in the Cambridge 
# Structural Database, then it will include bibliographic, chemical, 
# crystal, experimental, refinement or atomic coordinate data resulting 
# from the CCDC's data processing and validation procedures.
#
#######################################################################

data_ILALOX
_symmetry_cell_setting           monoclinic
_symmetry_space_group_name_H-M   'P 21/n'
_symmetry_Int_Tables_number      14
_space_group_name_Hall           '-P 2yn'
loop_
_symmetry_equiv_pos_site_id
_symmetry_equiv_pos_as_xyz
1 x,y,z
2 1/2-x,1/2+y,1/2-z
3 -x,-y,-z
4 1/2+x,1/2-y,1/2+z
_cell_length_a                   9.2994(15)
_cell_length_b                   22.066(4)
_cell_length_c                   13.8764(15)
_cell_angle_alpha                90
_cell_angle_beta                 90.412(6)
_cell_angle_gamma                90
_cell_volume                     2847.37
loop_
_atom_site_label
_atom_site_type_symbol
_atom_site_fract_x
_atom_site_fract_y
_atom_site_fract_z
Co1 Co 0.0000 0.0000 0.5000
O1 O 0.2226(4) -0.01173(19) 0.4664(3)
N1 N -0.0498(5) 0.02748(17) 0.3560(3)
N2 N -0.1697(5) 0.05182(18) 0.2242(3)
N3 N -0.3316(5) 0.3276(2) 0.0820(3)
N4 N -0.4541(5) 0.40735(19) 0.0354(3)
N5 N 0.0485(5) 0.1333(2) -0.1487(3)
N6 N 0.2648(6) 0.0982(2) -0.1893(4)
C1 C -0.1789(6) 0.0345(2) 0.3165(4)
H1 H -0.2667 0.0280 0.3494
C2 C 0.0474(6) 0.0410(2) 0.2834(4)
H2 H 0.1492 0.0398 0.2893
C3 C -0.0273(6) 0.0562(2) 0.2029(4)
H3 H 0.0122 0.0678 0.1427
C4 C -0.2912(5) 0.0648(2) 0.1589(3)
H4 H -0.3777 0.0746 0.1970
H5 H -0.3126 0.0287 0.1190
C5 C -0.2535(6) 0.1181(2) 0.0942(4)
C6 C -0.2574(6) 0.1781(2) 0.1322(4)
C7 C -0.2154(6) 0.2254(2) 0.0731(4)
C8 C -0.1770(6) 0.2167(2) -0.0230(4)
C9 C -0.1672(6) 0.1570(2) -0.0573(4)
C10 C -0.2035(6) 0.1073(2) 0.0010(4)
C11 C -0.3054(6) 0.1886(2) 0.2365(4)
H6 H -0.3676 0.1544 0.2563
H7 H -0.3641 0.2260 0.2388
C12 C -0.1809(6) 0.1945(2) 0.3091(3)
H8 H -0.1242 0.1570 0.3093
H9 H -0.2195 0.2016 0.3737
H10 H -0.1194 0.2286 0.2908
C13 C -0.2100(6) 0.2903(2) 0.1156(4)
H11 H -0.2116 0.2879 0.1868
H12 H -0.1188 0.3099 0.0966
C14 C -0.3245(6) 0.3860(2) 0.0555(3)
H13 H -0.2381 0.4089 0.0517
C15 C -0.4744(6) 0.3107(3) 0.0786(4)
H14 H -0.5123 0.2718 0.0933
C16 C -0.5507(6) 0.3602(2) 0.0502(4)
H15 H -0.6521 0.3622 0.0419
C17 C -0.1442(6) 0.2694(2) -0.0898(4)
H16 H -0.0624 0.2584 -0.1316
H17 H -0.1154 0.3050 -0.0508
C18 C -0.2737(6) 0.2861(2) -0.1528(4)
H18 H -0.3015 0.2511 -0.1923
H19 H -0.2484 0.3201 -0.1948
H20 H -0.3543 0.2978 -0.1117
C19 C -0.1054(6) 0.1460(2) -0.1567(4)
H21 H -0.1549 0.1112 -0.1874
H22 H -0.1210 0.1822 -0.1976
C20 C 0.1250(7) 0.0993(2) -0.2105(4)
H23 H 0.0835 0.0783 -0.2636
C21 C 0.1481(7) 0.1554(3) -0.0833(4)
H24 H 0.1284 0.1811 -0.0300
C22 C 0.2770(7) 0.1341(3) -0.1084(5)
H25 H 0.3645 0.1426 -0.0753
C23 C -0.1877(6) 0.0432(2) -0.0382(4)
H26 H -0.1641 0.0153 0.0155
H27 H -0.1071 0.0421 -0.0844
C24 C -0.3252(6) 0.0215(2) -0.0886(4)
H28 H -0.4062 0.0248 -0.0442
H29 H -0.3136 -0.0208 -0.1085
H30 H -0.3438 0.0467 -0.1455
H31 H 0.294(5) 0.012(3) 0.440(4)
H34 H 0.296(6) -0.041(3) 0.473(5)
Co1A Co -0.5000 0.5000 0.0000
Co1A_2 Co 0.5000 -0.5000 1.0000
O1B O -0.2226(4) 0.01173(19) 0.5336(3)
N1B N 0.0498(5) -0.02748(17) 0.6440(3)
N2B N 0.1697(5) -0.05182(18) 0.7758(3)
N3B N 0.3316(5) -0.3276(2) 0.9180(3)
N4B N 0.4541(5) -0.40735(19) 0.9646(3)
N4A N -0.0459(5) -0.09265(19) 0.4646(3)
N4C N 0.0459(5) 0.09265(19) 0.5354(3)
N5B N -0.0485(5) -0.1333(2) 1.1487(3)
N6B N -0.2648(6) -0.0982(2) 1.1893(4)
C1B C 0.1789(6) -0.0345(2) 0.6835(4)
H1B H 0.2667 -0.0280 0.6506
C2B C -0.0474(6) -0.0410(2) 0.7166(4)
H2B H -0.1492 -0.0398 0.7107
C3B C 0.0273(6) -0.0562(2) 0.7971(4)
H3B H -0.0122 -0.0678 0.8573
C4B C 0.2912(5) -0.0648(2) 0.8411(3)
H4B H 0.3777 -0.0746 0.8030
H5B H 0.3126 -0.0287 0.8810
C5B C 0.2535(6) -0.1181(2) 0.9058(4)
C6B C 0.2574(6) -0.1781(2) 0.8678(4)
C7B C 0.2154(6) -0.2254(2) 0.9269(4)
C8B C 0.1770(6) -0.2167(2) 1.0230(4)
C9B C 0.1672(6) -0.1570(2) 1.0573(4)
C10B C 0.2035(6) -0.1073(2) 0.9990(4)
C11B C 0.3054(6) -0.1886(2) 0.7635(4)
H6B H 0.3676 -0.1544 0.7437
H7B H 0.3641 -0.2260 0.7612
C12B C 0.1809(6) -0.1945(2) 0.6909(3)
H8B H 0.1242 -0.1570 0.6907
H9B H 0.2195 -0.2016 0.6263
H10B H 0.1194 -0.2286 0.7092
C13B C 0.2100(6) -0.2903(2) 0.8844(4)
H11B H 0.2116 -0.2879 0.8132
H12B H 0.1188 -0.3099 0.9034
C14B C 0.3245(6) -0.3860(2) 0.9445(3)
H13B H 0.2381 -0.4089 0.9483
C15B C 0.4744(6) -0.3107(3) 0.9214(4)
H14B H 0.5123 -0.2718 0.9067
C16B C 0.5507(6) -0.3602(2) 0.9498(4)
H15B H 0.6521 -0.3622 0.9581
C17B C 0.1442(6) -0.2694(2) 1.0898(4)
H16B H 0.0624 -0.2584 1.1316
H17B H 0.1154 -0.3050 1.0508
C18B C 0.2737(6) -0.2861(2) 1.1528(4)
H18B H 0.3015 -0.2511 1.1923
H19B H 0.2484 -0.3201 1.1948
H20B H 0.3543 -0.2978 1.1117
C19B C 0.1054(6) -0.1460(2) 1.1567(4)
H21B H 0.1549 -0.1112 1.1874
H22B H 0.1210 -0.1822 1.1976
C20B C -0.1250(7) -0.0993(2) 1.2105(4)
H23B H -0.0835 -0.0783 1.2636
C21B C -0.1481(7) -0.1554(3) 1.0833(4)
H24B H -0.1284 -0.1811 1.0300
C22B C -0.2770(7) -0.1341(3) 1.1084(5)
H25B H -0.3645 -0.1426 1.0753
C23B C 0.1877(6) -0.0432(2) 1.0382(4)
H26B H 0.1641 -0.0153 0.9845
H27B H 0.1071 -0.0421 1.0844
C24B C 0.3252(6) -0.0215(2) 1.0886(4)
H28B H 0.4062 -0.0248 1.0442
H29B H 0.3136 0.0208 1.1085
H30B H 0.3438 -0.0467 1.1455
H31B H -0.294(5) -0.012(3) 0.560(4)
H34B H -0.296(6) 0.041(3) 0.527(5)
Cl1 Cl 0.42832(16) 0.06656(7) 0.34222(11)
O2 O 0.5120(6) -0.0704(2) 0.3165(4)
H32 H 0.499(6) -0.0303(9) 0.313(3)
H35 H 0.576(4) -0.080(3) 0.272(3)
O3 O 0.3961(5) -0.1141(2) 0.4799(3)
H33 H 0.449(4) -0.106(2) 0.429(2)
H36 H 0.400(6) -0.104(2) 0.5378(17)
loop_
_geom_bond_atom_site_label_1
_geom_bond_atom_site_label_2
_geom_bond_site_symmetry_1
_geom_bond_site_symmetry_2
Co1 O1 1_555 1_555
O1 H31 1_555 1_555
O2 H32 1_555 1_555
O3 H33 1_555 1_555
N1 Co1 1_555 1_555
N2 C1 1_555 1_555
N3 C13 1_555 1_555
N4 C14 1_555 1_555
N5 C19 1_555 1_555
N6 C20 1_555 1_555
C1 N1 1_555 1_555
H1 C1 1_555 1_555
C2 N1 1_555 1_555
H2 C2 1_555 1_555
C3 N2 1_555 1_555
H3 C3 1_555 1_555
C4 N2 1_555 1_555
H4 C4 1_555 1_555
H5 C4 1_555 1_555
C5 C4 1_555 1_555
C6 C5 1_555 1_555
C7 C6 1_555 1_555
C8 C7 1_555 1_555
C9 C8 1_555 1_555
C10 C5 1_555 1_555
C11 C6 1_555 1_555
H6 C11 1_555 1_555
H7 C11 1_555 1_555
C12 C11 1_555 1_555
H8 C12 1_555 1_555
H9 C12 1_555 1_555
H10 C12 1_555 1_555
C13 C7 1_555 1_555
H11 C13 1_555 1_555
H12 C13 1_555 1_555
C14 N3 1_555 1_555
H13 C14 1_555 1_555
C15 N3 1_555 1_555
H14 C15 1_555 1_555
C16 N4 1_555 1_555
H15 C16 1_555 1_555
C17 C8 1_555 1_555
H16 C17 1_555 1_555
H17 C17 1_555 1_555
C18 C17 1_555 1_555
H18 C18 1_555 1_555
H19 C18 1_555 1_555
H20 C18 1_555 1_555
C19 C9 1_555 1_555
H21 C19 1_555 1_555
H22 C19 1_555 1_555
C20 N5 1_555 1_555
H23 C20 1_555 1_555
C21 N5 1_555 1_555
H24 C21 1_555 1_555
C22 N6 1_555 1_555
H25 C22 1_555 1_555
C23 C10 1_555 1_555
H26 C23 1_555 1_555
H27 C23 1_555 1_555
C24 C23 1_555 1_555
H28 C24 1_555 1_555
H29 C24 1_555 1_555
H30 C24 1_555 1_555
H34 O1 1_555 1_555
H35 O2 1_555 1_555
H36 O3 1_555 1_555
Co1A N4 1_555 1_555
Co1A_2 N4B 1_555 1_555
O1B Co1 1_555 1_555
N1B Co1 1_555 1_555
N2B C1B 1_555 1_555
N3B C13B 1_555 1_555
N4B C14B 1_555 1_555
N4A Co1 1_555 1_555
N4C Co1 1_555 1_555
N5B C19B 1_555 1_555
N6B C20B 1_555 1_555
C1B N1B 1_555 1_555
H1B C1B 1_555 1_555
C2B N1B 1_555 1_555
H2B C2B 1_555 1_555
C3B N2B 1_555 1_555
H3B C3B 1_555 1_555
C4B N2B 1_555 1_555
H4B C4B 1_555 1_555
H5B C4B 1_555 1_555
C5B C4B 1_555 1_555
C6B C5B 1_555 1_555
C7B C6B 1_555 1_555
C8B C7B 1_555 1_555
C9B C8B 1_555 1_555
C10B C5B 1_555 1_555
C11B C6B 1_555 1_555
H6B C11B 1_555 1_555
H7B C11B 1_555 1_555
C12B C11B 1_555 1_555
H8B C12B 1_555 1_555
H9B C12B 1_555 1_555
H10B C12B 1_555 1_555
C13B C7B 1_555 1_555
H11B C13B 1_555 1_555
H12B C13B 1_555 1_555
C14B N3B 1_555 1_555
H13B C14B 1_555 1_555
C15B N3B 1_555 1_555
H14B C15B 1_555 1_555
C16B N4B 1_555 1_555
H15B C16B 1_555 1_555
C17B C8B 1_555 1_555
H16B C17B 1_555 1_555
H17B C17B 1_555 1_555
C18B C17B 1_555 1_555
H18B C18B 1_555 1_555
H19B C18B 1_555 1_555
H20B C18B 1_555 1_555
C19B C9B 1_555 1_555
H21B C19B 1_555 1_555
H22B C19B 1_555 1_555
C20B N5B 1_555 1_555
H23B C20B 1_555 1_555
C21B N5B 1_555 1_555
H24B C21B 1_555 1_555
C22B N6B 1_555 1_555
H25B C22B 1_555 1_555
C23B C10B 1_555 1_555
H26B C23B 1_555 1_555
H27B C23B 1_555 1_555
C24B C23B 1_555 1_555
H28B C24B 1_555 1_555
H29B C24B 1_555 1_555
H30B C24B 1_555 1_555
H31B O1B 1_555 1_555
H34B O1B 1_555 1_555
C2 C3 1_555 1_555
C9 C10 1_555 1_555
C15 C16 1_555 1_555
C21 C22 1_555 1_555
C2B C3B 1_555 1_555
C9B C10B 1_555 1_555
C15B C16B 1_555 1_555
C21B C22B 1_555 1_555

#END
