
#######################################################################
#
#                 Cambridge Crystallographic Data Centre
#                                CCDC 
#
#######################################################################
#
# If this CIF has been generated from an entry in the Cambridge 
# Structural Database, then it will include bibliographic, chemical, 
# crystal, experimental, refinement or atomic coordinate data resulting 
# from the CCDC's data processing and validation procedures.
#
#######################################################################

data_ILAMOY
_symmetry_cell_setting           orthorhombic
_symmetry_space_group_name_H-M   'P n a m'
_symmetry_Int_Tables_number      62
_space_group_name_Hall           '-P 2c 2n'
loop_
_symmetry_equiv_pos_site_id
_symmetry_equiv_pos_as_xyz
1 x,y,z
2 -x,-y,1/2+z
3 1/2+x,1/2-y,1/2-z
4 1/2-x,1/2+y,-z
5 -x,-y,-z
6 x,y,1/2-z
7 1/2-x,1/2+y,1/2+z
8 1/2+x,1/2-y,z
_cell_length_a                   9.1574(12)
_cell_length_b                   21.172(3)
_cell_length_c                   12.8437(15)
_cell_angle_alpha                90
_cell_angle_beta                 90
_cell_angle_gamma                90
_cell_volume                     2490.14
loop_
_atom_site_label
_atom_site_type_symbol
_atom_site_fract_x
_atom_site_fract_y
_atom_site_fract_z
Cd1 Cd 0.43135(8) 0.61430(4) 0.2500
Cl1 Cl 0.4910(3) 0.49409(11) 0.2500
Cl2 Cl 0.3696(3) 0.73149(12) 0.2500
N1 N 0.4332(7) 0.3708(3) -0.1034(4)
N2 N -0.0145(10) 0.5306(4) 0.2500
N3 N 0.1887(9) 0.5882(4) 0.2500
N4 N 0.2707(6) 0.3381(3) 0.0115(4)
C1 C 0.1324(13) 0.5301(5) 0.2500
H1 H 0.1895 0.4926 0.2500
C2 C 0.0698(13) 0.6279(5) 0.2500
H2 H 0.0741 0.6727 0.2500
C3 C -0.0562(14) 0.5926(5) 0.2500
H3 H -0.1535 0.6083 0.2500
C4 C -0.1150(12) 0.4751(5) 0.2500
H4 H -0.1784 0.4769 0.1876
C5 C -0.0315(10) 0.4138(4) 0.2500
C6 C 0.0117(7) 0.3860(4) 0.1544(5)
C7 C -0.0355(8) 0.4172(4) 0.0533(5)
H5 H -0.0339 0.4636 0.0619
H6 H 0.0345 0.4060 -0.0025
C8 C -0.1878(10) 0.3964(5) 0.0215(5)
H7 H -0.1864 0.3514 0.0035
H8 H -0.2198 0.4210 -0.0390
H9 H -0.2555 0.4033 0.0795
C9 C 0.0928(8) 0.3308(3) 0.1550(5)
C10 C 0.1440(8) 0.3037(3) 0.0525(5)
H10 H 0.1703 0.2588 0.0623
H11 H 0.0633 0.3058 0.0013
C11 C 0.3365(8) 0.3281(4) -0.0812(5)
H12 H 0.3143 0.2934 -0.1254
C12 C 0.4363(9) 0.4112(3) -0.0185(6)
H13 H 0.4965 0.4475 -0.0116
C13 C 0.3390(8) 0.3901(4) 0.0531(6)
H14 H 0.3213 0.4080 0.1198
C14 C 0.1347(11) 0.3055(5) 0.2500
C15 C 0.2253(12) 0.2426(5) 0.2500
H15 H 0.2887 0.2413 0.1876
C16 C 0.1225(12) 0.1846(5) 0.2500
H16 H 0.1808 0.1458 0.2500
H17 H 0.0607 0.1856 0.1877
Cd1A Cd 0.56865(8) 0.38570(4) -0.2500
Cd1A_2 Cd 0.56865(8) 0.38570(4) 0.7500
N1E N 0.4332(7) 0.3708(3) 0.6034(4)
N1A N 0.5668(7) 0.6292(3) 0.3966(4)
N1D N 0.5668(7) 0.6292(3) 0.1034(4)
N4E N 0.2707(6) 0.3381(3) 0.4885(4)
H4E H -0.1784 0.4769 0.3124
C6E C 0.0117(7) 0.3860(4) 0.3456(5)
C7E C -0.0355(8) 0.4172(4) 0.4467(5)
H5E H -0.0339 0.4636 0.4381
H6E H 0.0345 0.4060 0.5025
C8E C -0.1878(10) 0.3964(5) 0.4785(5)
H7E H -0.1864 0.3514 0.4965
H8E H -0.2198 0.4210 0.5390
H9E H -0.2555 0.4033 0.4205
C9E C 0.0928(8) 0.3308(3) 0.3450(5)
C10E C 0.1440(8) 0.3037(3) 0.4475(5)
H10E H 0.1703 0.2588 0.4377
H11E H 0.0633 0.3058 0.4987
C11E C 0.3365(8) 0.3281(4) 0.5812(5)
H12E H 0.3143 0.2934 0.6254
C12E C 0.4363(9) 0.4112(3) 0.5185(6)
H13E H 0.4965 0.4475 0.5116
C13E C 0.3390(8) 0.3901(4) 0.4469(6)
H14E H 0.3213 0.4080 0.3802
H15E H 0.2887 0.2413 0.3124
H17E H 0.0607 0.1856 0.3123
loop_
_geom_bond_atom_site_label_1
_geom_bond_atom_site_label_2
_geom_bond_site_symmetry_1
_geom_bond_site_symmetry_2
Cd1 Cl1 1_555 1_555
Cl2 Cd1 1_555 1_555
N1 C11 1_555 1_555
N2 C1 1_555 1_555
N3 Cd1 1_555 1_555
N4 C10 1_555 1_555
C1 N3 1_555 1_555
H1 C1 1_555 1_555
C2 N3 1_555 1_555
H2 C2 1_555 1_555
C3 N2 1_555 1_555
H3 C3 1_555 1_555
C4 N2 1_555 1_555
H4 C4 1_555 1_555
C5 C4 1_555 1_555
C6 C5 1_555 1_555
C7 C6 1_555 1_555
H5 C7 1_555 1_555
H6 C7 1_555 1_555
C8 C7 1_555 1_555
H7 C8 1_555 1_555
H8 C8 1_555 1_555
H9 C8 1_555 1_555
C9 C6 1_555 1_555
C10 C9 1_555 1_555
H10 C10 1_555 1_555
H11 C10 1_555 1_555
C11 N4 1_555 1_555
H12 C11 1_555 1_555
C12 N1 1_555 1_555
H13 C12 1_555 1_555
C13 N4 1_555 1_555
H14 C13 1_555 1_555
C14 C9 1_555 1_555
C15 C14 1_555 1_555
H15 C15 1_555 1_555
C16 C15 1_555 1_555
H16 C16 1_555 1_555
H17 C16 1_555 1_555
Cd1A N1 1_555 1_555
Cd1A_2 N1E 1_555 1_555
N1E C11E 1_555 1_555
N1A Cd1 1_555 1_555
N1D Cd1 1_555 1_555
N4E C10E 1_555 1_555
H4E C4 1_555 1_555
C6E C5 1_555 1_555
C7E C6E 1_555 1_555
H5E C7E 1_555 1_555
H6E C7E 1_555 1_555
C8E C7E 1_555 1_555
H7E C8E 1_555 1_555
H8E C8E 1_555 1_555
H9E C8E 1_555 1_555
C9E C14 1_555 1_555
C10E C9E 1_555 1_555
H10E C10E 1_555 1_555
H11E C10E 1_555 1_555
C11E N4E 1_555 1_555
H12E C11E 1_555 1_555
C12E N1E 1_555 1_555
H13E C12E 1_555 1_555
C13E N4E 1_555 1_555
H14E C13E 1_555 1_555
H15E C15 1_555 1_555
H17E C16 1_555 1_555
C2 C3 1_555 1_555
C12 C13 1_555 1_555
C6E C9E 1_555 1_555
C12E C13E 1_555 1_555

#END
