
#######################################################################
#
#                 Cambridge Crystallographic Data Centre
#                                CCDC 
#
#######################################################################
#
# If this CIF has been generated from an entry in the Cambridge 
# Structural Database, then it will include bibliographic, chemical, 
# crystal, experimental, refinement or atomic coordinate data resulting 
# from the CCDC's data processing and validation procedures.
#
#######################################################################

data_ILAMAJ
_symmetry_cell_setting           orthorhombic
_symmetry_space_group_name_H-M   'P 21 21 21'
_symmetry_Int_Tables_number      19
_space_group_name_Hall           'P 2ac 2ab'
loop_
_symmetry_equiv_pos_site_id
_symmetry_equiv_pos_as_xyz
1 x,y,z
2 1/2-x,-y,1/2+z
3 -x,1/2+y,1/2-z
4 1/2+x,1/2-y,-z
_cell_length_a                   9.9962(11)
_cell_length_b                   17.432(2)
_cell_length_c                   20.285(2)
_cell_angle_alpha                90
_cell_angle_beta                 90
_cell_angle_gamma                90
_cell_volume                     3534.74
loop_
_atom_site_label
_atom_site_type_symbol
_atom_site_fract_x
_atom_site_fract_y
_atom_site_fract_z
Cu1 Cu 0.05150(4) 0.39583(3) 0.17849(2)
Cu2 Cu 0.08335(4) 0.11282(3) 0.18163(2)
Cl1 Cl 0.03910(11) 0.25353(5) 0.16127(5)
O1 O 0.0754(3) 0.58751(15) 0.26256(12)
O2 O 0.0068(3) 0.41072(14) 0.27364(13)
N1 N 0.1105(3) 0.41524(19) 0.08414(15)
N2 N 0.2467(3) 0.39584(18) 0.19992(16)
N3 N 0.1443(3) 0.55660(18) 0.16066(15)
N4 N -0.1723(3) 0.62295(19) 0.23009(16)
N5 N -0.2478(3) 0.60659(19) 0.37636(16)
N6 N 0.0174(3) 0.58632(18) 0.39950(15)
N7 N -0.1496(3) 0.45035(18) 0.34479(15)
N8 N -0.1528(3) 0.40390(18) 0.16854(15)
C1 C 0.2575(4) 0.4036(2) 0.0771(2)
H1 H 0.3008 0.4534 0.0675
H2 H 0.2749 0.3688 0.0395
C2 C 0.3185(4) 0.3694(2) 0.1396(2)
H3 H 0.3145 0.3127 0.1372
H4 H 0.4138 0.3845 0.1426
C3 C 0.2931(4) 0.4692(2) 0.22958(19)
H5 H 0.3886 0.4634 0.2416
H6 H 0.2426 0.4777 0.2709
C4 C 0.2792(4) 0.5398(2) 0.1873(2)
H7 H 0.3085 0.5846 0.2136
H8 H 0.3417 0.5349 0.1497
C5 C 0.1273(4) 0.5596(2) 0.08799(18)
H9 H 0.2164 0.5677 0.0678
H10 H 0.0718 0.6049 0.0771
C6 C 0.0641(4) 0.4897(2) 0.05647(18)
H11 H -0.0341 0.4931 0.0618
H12 H 0.0837 0.4905 0.0086
C7 C 0.0556(4) 0.5874(2) 0.20274(18)
C8 C -0.0733(4) 0.6262(2) 0.17684(18)
H13 H -0.1072 0.5990 0.1368
C9 C -0.0397(4) 0.7105(2) 0.1605(2)
H14 H -0.1186 0.7355 0.1415
H15 H 0.0341 0.7122 0.1287
H16 H -0.0133 0.7373 0.2009
C10 C -0.2100(5) 0.6028(3) 0.4458(2)
H17 H -0.2358 0.5521 0.4637
H18 H -0.2603 0.6424 0.4705
C11 C -0.0600(4) 0.6150(2) 0.45699(18)
H19 H -0.0418 0.6704 0.4634
H20 H -0.0317 0.5875 0.4973
C12 C 0.0627(4) 0.5056(2) 0.40090(18)
H21 H 0.1166 0.4976 0.4413
H22 H 0.1222 0.4968 0.3626
C13 C -0.0499(4) 0.4449(2) 0.39942(17)
H23 H -0.0076 0.3936 0.3972
H24 H -0.0989 0.4478 0.4417
C14 C -0.2912(4) 0.4652(2) 0.3637(2)
H25 H -0.3490 0.4302 0.3379
H26 H -0.3021 0.4515 0.4108
C15 C -0.3413(5) 0.5443(3) 0.3545(3)
H27 H -0.4263 0.5498 0.3791
H28 H -0.3615 0.5520 0.3072
C16 C -0.1148(4) 0.4234(2) 0.28583(18)
C17 C -0.2175(4) 0.4030(2) 0.23407(18)
H29 H -0.2922 0.4411 0.2350
C18 C -0.2719(4) 0.3228(2) 0.2488(2)
H30 H -0.3471 0.3117 0.2194
H31 H -0.3022 0.3205 0.2947
H32 H -0.2010 0.2848 0.2419
H38 H 0.066(3) 0.3853(18) 0.0600(17)
H39 H 0.271(4) 0.3605(16) 0.2280(15)
H40 H -0.227(3) 0.5859(11) 0.225(2)
H41 H -0.200(4) 0.6685(9) 0.226(2)
H42 H -0.278(4) 0.6535(12) 0.373(2)
H43 H 0.079(3) 0.6207(16) 0.396(2)
H44 H -0.176(4) 0.4417(11) 0.1427(15)
H45 H -0.180(4) 0.3594(10) 0.1548(19)
O1B O -0.0754(3) 0.08751(15) 0.23744(12)
N4B N 0.1723(3) 0.12295(19) 0.26991(16)
N5B N 0.2478(3) 0.10659(19) 0.12364(16)
N6B N -0.0174(3) 0.08632(18) 0.10050(15)
Cu2B Cu -0.08335(4) 0.61282(3) 0.31837(2)
H40B H 0.227(3) 0.0859(11) 0.275(2)
H41B H 0.200(4) 0.1685(9) 0.274(2)
H42B H 0.278(4) 0.1535(12) 0.127(2)
H43B H -0.079(3) 0.1207(16) 0.104(2)
Cl2 Cl -0.63333(9) 0.37430(5) 0.39366(4)
O3 O -0.7551(3) 0.35758(17) 0.35901(16)
O4 O -0.5258(3) 0.32952(17) 0.36484(14)
O5 O -0.6462(4) 0.3552(2) 0.46198(15)
O6 O -0.6016(3) 0.45384(17) 0.38793(16)
Cl3 Cl 0.61807(10) 0.56195(6) 0.09697(5)
O7 O 0.4979(3) 0.54721(18) 0.05988(14)
O8 O 0.7294(3) 0.5225(2) 0.06662(18)
O9 O 0.6028(3) 0.53165(19) 0.16279(16)
O10 O 0.6455(3) 0.64148(19) 0.10060(16)
Cl4 Cl 0.60081(10) 1.20707(6) 0.08545(5)
O11 O 0.7050(4) 1.1520(3) 0.0826(2)
O12 O 0.5172(4) 1.1969(2) 0.02824(19)
O13 O 0.5211(4) 1.1958(3) 0.14342(19)
O14 O 0.6521(4) 1.2838(2) 0.08644(18)
O15 O -0.2307(4) 0.3007(2) 0.4304(2)
O16 O -0.3059(5) 0.2003(2) 0.3861(2)
N9 N -0.3018(4) 0.2479(2) 0.4307(2)
C19 C -0.3962(5) 0.2359(3) 0.4857(2)
H33 H -0.4132 0.2849 0.5078
H34 H -0.3577 0.1995 0.5172
H35 H -0.4806 0.2154 0.4685
O17 O -0.6289(3) 0.24542(19) 0.25487(14)
H36 H -0.568(3) 0.2166(18) 0.2337(13)
H37 H -0.602(4) 0.253(2) 0.2962(9)
loop_
_geom_bond_atom_site_label_1
_geom_bond_atom_site_label_2
_geom_bond_site_symmetry_1
_geom_bond_site_symmetry_2
Cu1 Cl1 1_555 1_555
Cu2 Cl1 1_555 1_555
Cl2 O3 1_555 1_555
Cl3 O7 1_555 1_555
Cl4 O11 1_555 1_555
O1 C7 1_555 1_555
O2 Cu1 1_555 1_555
O4 Cl2 1_555 1_555
O5 Cl2 1_555 1_555
O6 Cl2 1_555 1_555
O8 Cl3 1_555 1_555
O9 Cl3 1_555 1_555
O10 Cl3 1_555 1_555
O12 Cl4 1_555 1_555
O13 Cl4 1_555 1_555
O14 Cl4 1_555 1_555
O15 N9 1_555 1_555
O16 N9 1_555 1_555
O17 H36 1_555 1_555
N1 Cu1 1_555 1_555
N2 Cu1 1_555 1_555
N3 C4 1_555 1_555
N4 C8 1_555 1_555
N5 C10 1_555 1_555
N6 C11 1_555 1_555
N7 C13 1_555 1_555
N8 Cu1 1_555 1_555
N9 C19 1_555 1_555
C1 N1 1_555 1_555
H1 C1 1_555 1_555
H2 C1 1_555 1_555
C2 N2 1_555 1_555
H3 C2 1_555 1_555
H4 C2 1_555 1_555
C3 N2 1_555 1_555
H5 C3 1_555 1_555
H6 C3 1_555 1_555
C4 C3 1_555 1_555
H7 C4 1_555 1_555
H8 C4 1_555 1_555
C5 N3 1_555 1_555
H9 C5 1_555 1_555
H10 C5 1_555 1_555
C6 N1 1_555 1_555
H11 C6 1_555 1_555
H12 C6 1_555 1_555
C7 N3 1_555 1_555
C8 C7 1_555 1_555
H13 C8 1_555 1_555
C9 C8 1_555 1_555
H14 C9 1_555 1_555
H15 C9 1_555 1_555
H16 C9 1_555 1_555
C10 H17 1_555 1_555
H18 C10 1_555 1_555
C11 C10 1_555 1_555
H19 C11 1_555 1_555
H20 C11 1_555 1_555
C12 N6 1_555 1_555
H21 C12 1_555 1_555
H22 C12 1_555 1_555
C13 C12 1_555 1_555
H23 C13 1_555 1_555
H24 C13 1_555 1_555
C14 N7 1_555 1_555
H25 C14 1_555 1_555
H26 C14 1_555 1_555
C15 N5 1_555 1_555
H27 C15 1_555 1_555
H28 C15 1_555 1_555
C16 O2 1_555 1_555
C17 N8 1_555 1_555
H29 C17 1_555 1_555
C18 C17 1_555 1_555
H30 C18 1_555 1_555
H31 C18 1_555 1_555
H32 C18 1_555 1_555
C19 H33 1_555 1_555
H34 C19 1_555 1_555
H35 C19 1_555 1_555
H37 O17 1_555 1_555
H38 N1 1_555 1_555
H39 N2 1_555 1_555
H40 N4 1_555 1_555
H41 N4 1_555 1_555
H42 N5 1_555 1_555
H43 N6 1_555 1_555
H44 N8 1_555 1_555
H45 N8 1_555 1_555
O1B Cu2 1_555 1_555
N4B Cu2 1_555 1_555
N5B Cu2 1_555 1_555
N6B Cu2 1_555 1_555
Cu2B O1 1_555 1_555
H40B N4B 1_555 1_555
H41B N4B 1_555 1_555
H42B N5B 1_555 1_555
H43B N6B 1_555 1_555
N4 Cu2B 1_555 1_555
N5 Cu2B 1_555 1_555
N6 Cu2B 1_555 1_555
N7 C16 1_555 1_555
C1 C2 1_555 1_555
C5 C6 1_555 1_555
C14 C15 1_555 1_555
C16 C17 1_555 1_555

#END
