
#######################################################################
#
#                 Cambridge Crystallographic Data Centre
#                                CCDC 
#
#######################################################################
#
# If this CIF has been generated from an entry in the Cambridge 
# Structural Database, then it will include bibliographic, chemical, 
# crystal, experimental, refinement or atomic coordinate data resulting 
# from the CCDC's data processing and validation procedures.
#
#######################################################################

data_ILANOZ
_symmetry_cell_setting           triclinic
_symmetry_space_group_name_H-M   'P -1'
_symmetry_Int_Tables_number      2
_space_group_name_Hall           '-P 1'
loop_
_symmetry_equiv_pos_site_id
_symmetry_equiv_pos_as_xyz
1 x,y,z
2 -x,-y,-z
_cell_length_a                   10.9897(10)
_cell_length_b                   11.2381(9)
_cell_length_c                   12.9222(15)
_cell_angle_alpha                102.700(8)
_cell_angle_beta                 105.272(9)
_cell_angle_gamma                91.721(7)
_cell_volume                     1495.34
loop_
_atom_site_label
_atom_site_type_symbol
_atom_site_fract_x
_atom_site_fract_y
_atom_site_fract_z
C1 C -0.2271(7) 0.0898(6) -0.1467(6)
H1 H -0.2026 0.0687 -0.2115
C2 C -0.2347(8) 0.1181(8) 0.0131(7)
H2 H -0.2125 0.1195 0.0880
C3 C -0.4337(6) 0.1728(7) -0.2247(6)
H3 H -0.5117 0.1257 -0.2309
H4 H -0.4152 0.1508 -0.2955
C4 C -0.2519(7) 0.3536(7) -0.2475(7)
H5 H -0.2455 0.2681 -0.2499
H6 H -0.1803 0.4008 -0.1925
H7 H -0.2536 0.3682 -0.3183
C5 C -0.6455(7) 0.2561(7) -0.1388(7)
H8 H -0.7238 0.2910 -0.1368
H9 H -0.6075 0.2368 -0.0693
H10 H -0.6618 0.1827 -0.1968
C6 C -0.5293(7) 0.6821(7) -0.1659(6)
H11 H -0.5838 0.6886 -0.2355
H12 H -0.4518 0.7333 -0.1493
H13 H -0.5706 0.7079 -0.1090
C7 C -0.4532(6) 0.3091(6) -0.1992(5)
C8 C -0.3725(6) 0.3909(7) -0.2190(5)
C9 C -0.3977(6) 0.5129(7) -0.2092(5)
C10 C -0.5006(6) 0.5530(7) -0.1720(6)
C11 C -0.5778(6) 0.4711(7) -0.1434(5)
C12 C -0.5566(6) 0.3470(7) -0.1601(5)
C13 C -0.3178(7) 0.5992(7) -0.2449(6)
H14 H -0.2737 0.5521 -0.2937
H15 H -0.3723 0.6496 -0.2856
C14 C -0.1853(7) 0.7926(7) -0.1367(6)
H16 H -0.2169 0.8384 -0.1880
C15 C -0.0860(7) 0.7364(8) 0.0010(6)
H17 H -0.0310 0.7379 0.0698
C16 C -0.6816(6) 0.5187(8) -0.0946(5)
H18 H -0.7020 0.4649 -0.0510
H19 H -0.6539 0.5996 -0.0466
C17 C -0.8074(7) 0.5026(7) -0.2904(6)
H20 H -0.7444 0.4780 -0.3243
C18 C -0.9750(8) 0.5496(9) -0.2597(8)
H21 H -1.0598 0.5644 -0.2712
N1 N -0.9240(6) 0.5204(6) -0.3424(5)
N2 N -0.9013(7) 0.5567(7) -0.1614(6)
N3 N -0.7943(5) 0.5246(5) -0.1845(5)
N4 N -0.3295(5) 0.1391(5) -0.1397(5)
N5 N -0.3389(6) 0.1601(7) -0.0344(5)
N6 N -0.1612(6) 0.0728(5) -0.0511(5)
N7 N -0.2241(5) 0.6791(6) -0.1484(5)
N8 N -0.0956(5) 0.8357(5) -0.0434(5)
N9 N -0.1595(6) 0.6381(6) -0.0596(5)
O1 O -1.7097(5) 1.1547(5) -0.6325(4)
O2 O -1.8640(4) 1.2443(4) -0.3883(4)
O3 O -1.9214(5) 1.2593(5) -0.5969(4)
O4 O -2.0866(4) 0.9593(5) -0.4505(4)
O5 O -2.0014(5) 1.0619(5) -0.7883(4)
O6 O -1.9768(5) 0.8137(5) -0.7231(4)
O7 O -2.1464(4) 0.9777(4) -0.6647(4)
O8 O -2.1724(5) 1.2047(5) -0.7226(4)
O9 O -2.1110(4) 1.1684(4) -0.5076(4)
O10 O -2.3237(4) 0.8802(5) -0.5764(4)
O11 O -1.6949(5) 0.9005(5) -0.5752(4)
O12 O -1.6313(5) 0.8987(5) -0.3597(4)
O13 O -1.6744(5) 1.3576(5) -0.4674(4)
Cu1 Cu -1.0000 0.5000 -0.5000
Cu2 Cu -2.0000 1.0000 -1.0000
Mo1 Mo -2.04976(6) 1.12764(7) -0.67331(6)
Mo2 Mo -1.97523(6) 1.13194(6) -0.38878(5)
Mo3 Mo -1.75896(7) 1.21755(7) -0.51975(6)
Mo4 Mo -2.26347(6) 1.04638(7) -0.54377(6)
O14 O -0.8466(6) 0.5865(6) -0.5181(5)
H22 H -0.773(6) 0.574(9) -0.479(9)
H23 H -0.845(10) 0.665(3) -0.495(10)
C1A C -1.7729(7) 0.9102(6) -0.8533(6)
H1A H -1.7974 0.9313 -0.7885
C2A C -1.7653(8) 0.8819(8) -1.0131(7)
H2A H -1.7875 0.8805 -1.0880
C3A C -1.5663(6) 0.8272(7) -0.7753(6)
H3A H -1.4883 0.8743 -0.7691
H4A H -1.5848 0.8492 -0.7045
C4A C -1.7481(7) 0.6464(7) -0.7525(7)
H5A H -1.7545 0.7319 -0.7501
H6A H -1.8197 0.5992 -0.8075
H7A H -1.7464 0.6318 -0.6817
C5A C -1.3545(7) 0.7439(7) -0.8612(7)
H8A H -1.2762 0.7090 -0.8632
H9A H -1.3925 0.7632 -0.9307
H10A H -1.3382 0.8173 -0.8032
C6A C -1.4707(7) 0.3179(7) -0.8341(6)
H11A H -1.4162 0.3114 -0.7645
H12A H -1.5482 0.2667 -0.8507
H13A H -1.4294 0.2921 -0.8910
C7A C -1.5468(6) 0.6909(6) -0.8008(5)
C8A C -1.6275(6) 0.6091(7) -0.7810(5)
C9A C -1.6023(6) 0.4871(7) -0.7908(5)
C10A C -1.4994(6) 0.4470(7) -0.8280(6)
C11A C -1.4222(6) 0.5289(7) -0.8566(5)
C12A C -1.4434(6) 0.6530(7) -0.8399(5)
C13A C -1.6822(7) 0.4008(7) -0.7551(6)
H14A H -1.7263 0.4479 -0.7063
H15A H -1.6277 0.3504 -0.7144
C14A C -1.8147(7) 0.2074(7) -0.8633(6)
H16A H -1.7831 0.1616 -0.8120
C15A C -1.9140(7) 0.2636(8) -1.0010(6)
H17A H -1.9690 0.2621 -1.0698
C16A C -1.3184(6) 0.4813(8) -0.9054(5)
H18A H -1.2980 0.5351 -0.9490
H19A H -1.3461 0.4004 -0.9534
C17A C -1.1926(7) 0.4974(7) -0.7096(6)
H20A H -1.2556 0.5220 -0.6757
C18A C -1.0250(8) 0.4504(9) -0.7403(8)
H21A H -0.9402 0.4356 -0.7288
N1A N -1.0760(6) 0.4796(6) -0.6576(5)
N2A N -1.0987(7) 0.4433(7) -0.8386(6)
N3A N -1.2057(5) 0.4754(5) -0.8155(5)
N4A N -1.6705(5) 0.8609(5) -0.8603(5)
N5A N -1.6611(6) 0.8399(7) -0.9656(5)
N6A N -1.8388(6) 0.9272(5) -0.9489(5)
N6_2 N -2.1612(6) 1.0728(5) -1.0511(5)
N7A N -1.7759(5) 0.3209(6) -0.8516(5)
N8A N -1.9044(5) 1.1643(5) -0.9566(5)
N8_2 N -2.0956(5) 0.8357(5) -1.0434(5)
N8A_2 N -1.9044(5) 0.1643(5) -0.9566(5)
N9A N -1.8405(6) 0.3619(6) -0.9404(5)
O1A O -2.2903(5) 0.8453(5) -0.3675(4)
O2A O -2.1360(4) 0.7557(4) -0.6117(4)
O3A O -2.0786(5) 0.7407(5) -0.4031(4)
O4A O -1.9134(4) 1.0407(5) -0.5495(4)
O5A O -1.9986(5) 0.9381(5) -0.2117(4)
O5A_2 O -1.9986(5) 0.9381(5) -1.2117(4)
O6A O -2.0232(5) 1.1863(5) -0.2769(4)
O7A O -1.8536(4) 1.0223(4) -0.3353(4)
O8A O -1.8276(5) 0.7953(5) -0.2774(4)
O9A O -1.8890(4) 0.8316(4) -0.4924(4)
O10A O -1.6763(4) 1.1198(5) -0.4236(4)
O11A O -2.3051(5) 1.0995(5) -0.4248(4)
O12A O -2.3687(5) 1.1013(5) -0.6403(4)
O13A O -2.3256(5) 0.6424(5) -0.5326(4)
Cu2_2 Cu 0.0000 0.0000 0.0000
Cu2_3 Cu -2.0000 1.0000 0.0000
Cu2_4 Cu 0.0000 1.0000 0.0000
Cu2_5 Cu -2.0000 0.0000 -1.0000
Mo1A Mo -1.95024(6) 0.87236(7) -0.32669(6)
Mo2A Mo -2.02477(6) 0.86806(6) -0.61122(5)
Mo3A Mo -2.24104(7) 0.78245(7) -0.48025(6)
Mo4A Mo -1.73653(6) 0.95362(7) -0.45623(6)
O14A O -1.1534(6) 0.4135(6) -0.4819(5)
H22A H -1.227(6) 0.426(9) -0.521(9)
H23A H -1.155(10) 0.335(3) -0.505(10)
O15 O 0.4198(8) -0.3625(8) -0.4604(9)
H24 H 0.469(11) -0.398(12) -0.497(10)
H25 H 0.430(14) -0.285(2) -0.448(12)
loop_
_geom_bond_atom_site_label_1
_geom_bond_atom_site_label_2
_geom_bond_site_symmetry_1
_geom_bond_site_symmetry_2
C1 H1 1_555 1_555
C2 H2 1_555 1_555
C3 H3 1_555 1_555
H4 C3 1_555 1_555
C4 H5 1_555 1_555
H6 C4 1_555 1_555
H7 C4 1_555 1_555
C5 H8 1_555 1_555
H9 C5 1_555 1_555
H10 C5 1_555 1_555
C6 H11 1_555 1_555
H12 C6 1_555 1_555
H13 C6 1_555 1_555
C7 C3 1_555 1_555
C8 C4 1_555 1_555
C9 C8 1_555 1_555
C10 C6 1_555 1_555
C11 C10 1_555 1_555
C12 C5 1_555 1_555
C13 C9 1_555 1_555
H14 C13 1_555 1_555
H15 C13 1_555 1_555
C14 H16 1_555 1_555
C15 H17 1_555 1_555
C16 C11 1_555 1_555
H18 C16 1_555 1_555
H19 C16 1_555 1_555
C17 H20 1_555 1_555
C18 H21 1_555 1_555
N1 C17 1_555 1_555
N2 C18 1_555 1_555
N3 C16 1_555 1_555
N4 C1 1_555 1_555
N5 C2 1_555 1_555
N6 C1 1_555 1_555
N7 C13 1_555 1_555
N8 C14 1_555 1_555
N9 C15 1_555 1_555
O1 Mo3 1_555 1_555
O2 Mo2 1_555 1_555
O3 Mo1 1_555 1_555
O4 Mo2 1_555 1_555
O5 Cu2 1_555 1_555
O6 Mo2A 1_555 1_555
O7 Mo1 1_555 1_555
O8 Mo1 1_555 1_555
O9 Mo1 1_555 1_555
O10 Mo4 1_555 1_555
O11 Mo4A 1_555 1_555
O12 Mo4A 1_555 1_555
O13 Mo3 1_555 1_555
Cu1 N1 1_555 1_555
Cu2 N6A 1_555 1_555
Mo1 O5 1_555 1_555
Mo2 O9 1_555 1_555
Mo3 O2 1_555 1_555
Mo4 O4 1_555 1_555
O14 Cu1 1_555 1_555
O15 H24 1_555 1_555
H22 O14 1_555 1_555
H23 O14 1_555 1_555
H25 O15 1_555 1_555
C1A H1A 1_555 1_555
C2A H2A 1_555 1_555
C3A H3A 1_555 1_555
H4A C3A 1_555 1_555
C4A H5A 1_555 1_555
H6A C4A 1_555 1_555
H7A C4A 1_555 1_555
C5A H8A 1_555 1_555
H9A C5A 1_555 1_555
H10A C5A 1_555 1_555
C6A H11A 1_555 1_555
H12A C6A 1_555 1_555
H13A C6A 1_555 1_555
C7A C3A 1_555 1_555
C8A C4A 1_555 1_555
C9A C8A 1_555 1_555
C10A C6A 1_555 1_555
C11A C10A 1_555 1_555
C12A C5A 1_555 1_555
C13A C9A 1_555 1_555
H14A C13A 1_555 1_555
H15A C13A 1_555 1_555
C14A H16A 1_555 1_555
C15A H17A 1_555 1_555
C16A C11A 1_555 1_555
H18A C16A 1_555 1_555
H19A C16A 1_555 1_555
C17A H20A 1_555 1_555
C18A H21A 1_555 1_555
N1A Cu1 1_555 1_555
N2A C18A 1_555 1_555
N3A C16A 1_555 1_555
N4A C1A 1_555 1_555
N5A C2A 1_555 1_555
N6A C1A 1_555 1_555
N6_2 Cu2 1_555 1_555
N7A C13A 1_555 1_555
N8A Cu2 1_555 1_555
N8_2 Cu2 1_555 1_555
N8A_2 C14A 1_555 1_555
N9A C15A 1_555 1_555
O1A Mo3A 1_555 1_555
O2A Mo2A 1_555 1_555
O3A Mo1A 1_555 1_555
O4A Mo1 1_555 1_555
O5A Cu2_3 1_555 1_555
O5A_2 Cu2 1_555 1_555
O6A Mo2 1_555 1_555
O7A Mo2 1_555 1_555
O8A Mo1A 1_555 1_555
O9A Mo1A 1_555 1_555
O10A Mo3 1_555 1_555
O11A Mo4 1_555 1_555
O12A Mo4 1_555 1_555
O13A Mo3A 1_555 1_555
Cu2_2 N6 1_555 1_555
Cu2_4 N8 1_555 1_555
Cu2_5 N8A_2 1_555 1_555
Mo1A O4 1_555 1_555
Mo2A O4 1_555 1_555
Mo3A O4 1_555 1_555
Mo4A O4A 1_555 1_555
O14A Cu1 1_555 1_555
H22A O14A 1_555 1_555
H23A O14A 1_555 1_555
C2 N6 1_555 1_555
C3 N4 1_555 1_555
C7 C8 1_555 1_555
C7 C12 1_555 1_555
C9 C10 1_555 1_555
C11 C12 1_555 1_555
C14 N7 1_555 1_555
C15 N8 1_555 1_555
C17 N3 1_555 1_555
C18 N1 1_555 1_555
N2 N3 1_555 1_555
N4 N5 1_555 1_555
N7 N9 1_555 1_555
O3 Mo3 1_555 1_555
O7 Mo4 1_555 1_555
O7 Mo2A 1_555 1_555
O9 Mo4 1_555 1_555
O10 Mo3A 1_555 1_555
Mo2 O4A 1_555 1_555
Mo3 O4A 1_555 1_555
C2A N6A 1_555 1_555
C3A N4A 1_555 1_555
C7A C8A 1_555 1_555
C7A C12A 1_555 1_555
C9A C10A 1_555 1_555
C11A C12A 1_555 1_555
C14A N7A 1_555 1_555
C15A N8A_2 1_555 1_555
C17A N1A 1_555 1_555
C17A N3A 1_555 1_555
C18A N1A 1_555 1_555
N2A N3A 1_555 1_555
N4A N5A 1_555 1_555
N7A N9A 1_555 1_555
O2A Mo3A 1_555 1_555
O3A Mo3A 1_555 1_555
O4A Mo2A 1_555 1_555
O5A Mo1A 1_555 1_555
O7A Mo1A 1_555 1_555
O7A Mo4A 1_555 1_555
O9A Mo2A 1_555 1_555
O9A Mo4A 1_555 1_555
O10A Mo4A 1_555 1_555

#END
