
#######################################################################
#
#                 Cambridge Crystallographic Data Centre
#                                CCDC 
#
#######################################################################
#
# If this CIF has been generated from an entry in the Cambridge 
# Structural Database, then it will include bibliographic, chemical, 
# crystal, experimental, refinement or atomic coordinate data resulting 
# from the CCDC's data processing and validation procedures.
#
#######################################################################

data_ILANUF
_symmetry_cell_setting           triclinic
_symmetry_space_group_name_H-M   'P -1'
_symmetry_Int_Tables_number      2
_space_group_name_Hall           '-P 1'
loop_
_symmetry_equiv_pos_site_id
_symmetry_equiv_pos_as_xyz
1 x,y,z
2 -x,-y,-z
_cell_length_a                   10.9539(4)
_cell_length_b                   11.4171(4)
_cell_length_c                   12.3377(5)
_cell_angle_alpha                85.654(3)
_cell_angle_beta                 72.963(3)
_cell_angle_gamma                69.624(3)
_cell_volume                     1382.36
loop_
_atom_site_label
_atom_site_type_symbol
_atom_site_fract_x
_atom_site_fract_y
_atom_site_fract_z
Cu1 Cu 0.46384(11) 0.58271(10) 0.21598(9)
Cu2 Cu 0.33558(14) 0.99723(15) -0.48298(10)
Mo1 Mo 0.16800(7) 0.48287(6) 0.26686(5)
Mo2 Mo -0.14737(7) 0.45716(6) 0.35489(5)
Mo3 Mo -0.04082(7) 0.66297(6) 0.48071(5)
Mo4 Mo 0.36201(7) 0.36320(7) 0.43091(6)
C1 C 0.3233(8) 0.8551(7) 0.2280(7)
H1 H 0.3068 0.8595 0.1577
C2 C 0.3929(10) 0.7884(9) 0.3677(8)
H2 H 0.4350 0.7335 0.4161
C3 C 0.1942(8) 1.0830(7) 0.2960(6)
H3 H 0.2487 1.1348 0.2937
H4 H 0.1185 1.1061 0.3644
C4 C 0.1393(8) 1.1096(7) 0.1934(6)
C5 C 0.2121(7) 1.1520(7) 0.0950(6)
C6 C 0.1498(8) 1.1960(7) 0.0078(6)
C7 C 0.0248(8) 1.1883(7) 0.0144(6)
C8 C -0.0421(8) 1.1360(7) 0.1101(6)
C9 C 0.0119(8) 1.0998(7) 0.2017(6)
C10 C -0.0606(10) 1.0497(9) 0.3107(8)
H5 H -0.0302 1.0643 0.3723
H6 H -0.0400 0.9616 0.3011
H7 H -0.1569 1.0918 0.3271
C11 C -0.1716(9) 1.1162(8) 0.1100(8)
H8 H -0.1538 1.0661 0.0434
H9 H -0.1990 1.0698 0.1763
C12 C 0.3535(8) 1.1504(8) 0.0845(7)
H10 H 0.3486 1.2119 0.1360
H11 H 0.3946 1.1691 0.0082
H12 H 0.4072 1.0691 0.1025
C13 C -0.3217(8) 1.3409(8) 0.1670(7)
H13 H -0.2786 1.3556 0.2166
C14 C -0.4550(9) 1.3586(8) 0.0674(7)
H14 H -0.5267 1.3925 0.0357
C15 C 0.2230(9) 1.2521(8) -0.0946(6)
H15 H 0.1578 1.3237 -0.1181
H16 H 0.2872 1.2810 -0.0745
C16 C 0.2694(11) 1.1626(10) -0.2877(7)
H17 H 0.2061 1.2286 -0.3122
C17 C -0.0398(9) 1.2301(9) -0.0794(8)
H18 H -0.0981 1.3158 -0.0657
H19 H -0.0924 1.1791 -0.0826
H20 H 0.0294 1.2221 -0.1501
C18 C 0.4256(8) 0.9920(9) -0.2773(7)
H21 H 0.4942 0.9147 -0.2966
N1 N 0.3950(7) 0.7535(6) 0.2688(5)
N2 N 0.3257(8) 0.9091(7) 0.3937(6)
N3 N 0.2775(6) 0.9507(6) 0.3013(5)
N4 N -0.2849(6) 1.2347(6) 0.1105(5)
N5 N -0.3690(7) 1.2447(7) 0.0449(6)
N6 N -0.4291(7) 1.4233(6) 0.1424(6)
N7 N 0.2956(7) 1.1600(6) -0.1890(5)
N8 N 0.3910(7) 1.0539(7) -0.1786(6)
N9 N 0.3478(8) 1.0561(7) -0.3467(5)
O1 O 0.2407(6) 0.5948(5) 0.2336(5)
O2 O 0.1639(6) 0.4381(5) 0.1418(4)
O3 O -0.0227(5) 0.5960(5) 0.3338(4)
O4 O -0.1273(6) 0.4668(5) 0.2137(4)
O5 O -0.2194(6) 0.3455(5) 0.3960(5)
O6 O 0.1321(5) 0.5019(4) 0.4660(4)
O7 O 0.0399(5) 0.3605(5) 0.3604(4)
O8 O 0.3137(5) 0.3474(5) 0.2969(4)
O9 O 0.2163(5) 0.2513(5) 0.4892(4)
O10 O 0.4274(6) 0.4813(5) 0.3903(5)
O11 O 0.0358(6) 0.7704(5) 0.4429(4)
O12 O 0.2983(5) 0.3962(5) 0.5904(4)
O13 O 0.4994(6) 0.2300(6) 0.4220(5)
O14 O 0.5000 1.0000 -0.5000
Cu1_2 Cu 1.46384(11) -0.41729(10) 0.21598(9)
Cu1_3 Cu -0.53616(11) 1.58271(10) 0.21598(9)
Cu1A Cu -0.46384(11) 0.41729(10) 0.78402(9)
Cu2_2 Cu 1.33558(14) -0.00277(15) -0.48298(10)
Cu2_3 Cu 0.33558(14) 0.99723(15) 0.51702(10)
Cu2A Cu 0.66442(14) 1.00277(15) -0.51702(10)
Cu2_4 Cu 1.33558(14) -0.00277(15) 0.51702(10)
Mo1A Mo -0.16800(7) 0.51713(6) 0.73314(5)
Mo2A Mo 0.14737(7) 0.54284(6) 0.64511(5)
Mo3A Mo 0.04082(7) 0.33703(6) 0.51929(5)
Mo4A Mo -0.36201(7) 0.63680(7) 0.56909(6)
C1_2 C 1.3233(8) -0.1449(7) 0.2280(7)
H1_2 H 1.3068 -0.1405 0.1577
C2_2 C 1.3929(10) -0.2116(9) 0.3677(8)
H2_2 H 1.4350 -0.2665 0.4161
C3_2 C 1.1942(8) 0.0830(7) 0.2960(6)
H3_2 H 1.2487 0.1348 0.2937
H4_2 H 1.1185 0.1061 0.3644
C4_2 C 1.1393(8) 0.1096(7) 0.1934(6)
C5_2 C 1.2121(7) 0.1520(7) 0.0950(6)
C6_2 C 1.1498(8) 0.1960(7) 0.0078(6)
C7_2 C 1.0248(8) 0.1883(7) 0.0144(6)
C8_2 C 0.9579(8) 0.1360(7) 0.1101(6)
C9_2 C 1.0119(8) 0.0998(7) 0.2017(6)
C10_2 C 0.9394(10) 0.0497(9) 0.3107(8)
H5_2 H 0.9698 0.0643 0.3723
H6_2 H 0.9600 -0.0384 0.3011
H7_2 H 0.8431 0.0918 0.3271
C11_2 C 0.8284(9) 0.1162(8) 0.1100(8)
H8_2 H 0.8462 0.0661 0.0434
H9_2 H 0.8010 0.0698 0.1763
C12_2 C 1.3535(8) 0.1504(8) 0.0845(7)
H10_2 H 1.3486 0.2119 0.1360
H11_2 H 1.3946 0.1691 0.0082
H12_2 H 1.4072 0.0691 0.1025
C13_2 C 0.6783(8) 0.3409(8) 0.1670(7)
H13_2 H 0.7214 0.3556 0.2166
C14_2 C 0.5450(9) 0.3586(8) 0.0674(7)
H14_2 H 0.4733 0.3925 0.0357
C15_2 C 1.2230(9) 0.2521(8) -0.0946(6)
H15_2 H 1.1578 0.3237 -0.1181
H16_2 H 1.2872 0.2810 -0.0745
C16_2 C 1.2694(11) 0.1626(10) -0.2877(7)
H17_2 H 1.2061 0.2286 -0.3122
C17_2 C 0.9602(9) 0.2301(9) -0.0794(8)
H18_2 H 0.9019 0.3158 -0.0657
H19_2 H 0.9076 0.1791 -0.0826
H20_2 H 1.0294 0.2221 -0.1501
C18_2 C 1.4256(8) -0.0080(9) -0.2773(7)
H21_2 H 1.4942 -0.0853 -0.2966
N1_2 N 1.3950(7) -0.2465(6) 0.2688(5)
N2_2 N 1.3257(8) -0.0909(7) 0.3937(6)
N2_3 N 0.3257(8) 0.9091(7) -0.6063(6)
N2_4 N 1.3257(8) -0.0909(7) -0.6063(6)
N3_2 N 1.2775(6) -0.0493(6) 0.3013(5)
N4_2 N 0.7151(6) 0.2347(6) 0.1105(5)
N5_2 N 0.6310(7) 0.2447(7) 0.0449(6)
N6_2 N 0.5709(7) 0.4233(6) 0.1424(6)
N6_3 N 1.5709(7) -0.5767(6) 0.1424(6)
N7_2 N 1.2956(7) 0.1600(6) -0.1890(5)
N8_2 N 1.3910(7) 0.0539(7) -0.1786(6)
N9_2 N 1.3478(8) 0.0561(7) -0.3467(5)
O1_2 O 1.2407(6) -0.4052(5) 0.2336(5)
O1A O -0.2407(6) 0.4052(5) 0.7664(5)
O2A O -0.1639(6) 0.5619(5) 0.8582(4)
O3A O 0.0227(5) 0.4040(5) 0.6662(4)
O4A O 0.1273(6) 0.5332(5) 0.7863(4)
O5A O 0.2194(6) 0.6545(5) 0.6040(5)
O6A O -0.1321(5) 0.4981(4) 0.5340(4)
O7A O -0.0399(5) 0.6395(5) 0.6396(4)
O8A O -0.3137(5) 0.6526(5) 0.7031(4)
O9A O -0.2163(5) 0.7487(5) 0.5108(4)
O10_2 O 1.4274(6) -0.5187(5) 0.3903(5)
O10A O -0.4274(6) 0.5187(5) 0.6097(5)
O11A O -0.0358(6) 0.2296(5) 0.5571(4)
O12A O -0.2983(5) 0.6038(5) 0.4096(4)
O13A O -0.4994(6) 0.7700(6) 0.5780(5)
O14_2 O 1.5000 0.0000 -0.5000
loop_
_geom_bond_atom_site_label_1
_geom_bond_atom_site_label_2
_geom_bond_site_symmetry_1
_geom_bond_site_symmetry_2
Cu1 N1 1_555 1_555
Cu2 N9 1_555 1_555
Mo1 O1 1_555 1_555
Mo2 O3 1_555 1_555
Mo3 O3 1_555 1_555
Mo4 O6 1_555 1_555
C1 H1 1_555 1_555
C2 H2 1_555 1_555
C3 H3 1_555 1_555
H4 C3 1_555 1_555
C4 C3 1_555 1_555
C5 C4 1_555 1_555
C6 C5 1_555 1_555
C7 C6 1_555 1_555
C8 C7 1_555 1_555
C9 C4 1_555 1_555
C10 C9 1_555 1_555
H5 C10 1_555 1_555
H6 C10 1_555 1_555
H7 C10 1_555 1_555
C11 C8 1_555 1_555
H8 C11 1_555 1_555
H9 C11 1_555 1_555
C12 C5 1_555 1_555
H10 C12 1_555 1_555
H11 C12 1_555 1_555
H12 C12 1_555 1_555
C13 H13 1_555 1_555
C14 H14 1_555 1_555
C15 C6 1_555 1_555
H15 C15 1_555 1_555
H16 C15 1_555 1_555
C16 H17 1_555 1_555
C17 C7 1_555 1_555
H18 C17 1_555 1_555
H19 C17 1_555 1_555
H20 C17 1_555 1_555
C18 H21 1_555 1_555
N1 C1 1_555 1_555
N2 C2 1_555 1_555
N3 C1 1_555 1_555
N4 C11 1_555 1_555
N5 C14 1_555 1_555
N6 C13 1_555 1_555
N7 C15 1_555 1_555
N8 C18 1_555 1_555
N9 C16 1_555 1_555
O1 Cu1 1_555 1_555
O2 Mo1 1_555 1_555
O3 Mo1 1_555 1_555
O4 Mo2 1_555 1_555
O5 Mo2 1_555 1_555
O6 Mo1 1_555 1_555
O7 Mo1 1_555 1_555
O8 Mo1 1_555 1_555
O9 Mo4 1_555 1_555
O10 Cu1 1_555 1_555
O11 Mo3 1_555 1_555
O12 Mo4 1_555 1_555
O13 Mo4 1_555 1_555
O14 Cu2 1_555 1_555
Cu1_2 N1_2 1_555 1_555
Cu1_3 N6 1_555 1_555
Cu1A O1A 1_555 1_555
Cu2_2 N2_4 1_555 1_555
Cu2_3 N2 1_555 1_555
Cu2A O14 1_555 1_555
Cu2_4 N2_2 1_555 1_555
Mo1A O1A 1_555 1_555
Mo2A O6 1_555 1_555
Mo3A O6 1_555 1_555
Mo4A O6A 1_555 1_555
C1_2 H1_2 1_555 1_555
C2_2 H2_2 1_555 1_555
C3_2 H3_2 1_555 1_555
H4_2 C3_2 1_555 1_555
C4_2 C3_2 1_555 1_555
C5_2 C4_2 1_555 1_555
C6_2 C5_2 1_555 1_555
C7_2 C6_2 1_555 1_555
C8_2 C7_2 1_555 1_555
C9_2 C4_2 1_555 1_555
C10_2 C9_2 1_555 1_555
H5_2 C10_2 1_555 1_555
H6_2 C10_2 1_555 1_555
H7_2 C10_2 1_555 1_555
C11_2 C8_2 1_555 1_555
H8_2 C11_2 1_555 1_555
H9_2 C11_2 1_555 1_555
C12_2 C5_2 1_555 1_555
H10_2 C12_2 1_555 1_555
H11_2 C12_2 1_555 1_555
H12_2 C12_2 1_555 1_555
C13_2 H13_2 1_555 1_555
C14_2 H14_2 1_555 1_555
C15_2 C6_2 1_555 1_555
H15_2 C15_2 1_555 1_555
H16_2 C15_2 1_555 1_555
C16_2 H17_2 1_555 1_555
C17_2 C7_2 1_555 1_555
H18_2 C17_2 1_555 1_555
H19_2 C17_2 1_555 1_555
H20_2 C17_2 1_555 1_555
C18_2 H21_2 1_555 1_555
N1_2 C1_2 1_555 1_555
N2_2 C2_2 1_555 1_555
N2_3 Cu2 1_555 1_555
N3_2 C1_2 1_555 1_555
N4_2 C11_2 1_555 1_555
N5_2 C14_2 1_555 1_555
N6_2 Cu1 1_555 1_555
N6_3 Cu1_2 1_555 1_555
N7_2 C15_2 1_555 1_555
N8_2 C18_2 1_555 1_555
N9_2 Cu2_2 1_555 1_555
O1_2 Cu1_2 1_555 1_555
O2A Mo1A 1_555 1_555
O3A Mo1A 1_555 1_555
O4A Mo2A 1_555 1_555
O5A Mo2A 1_555 1_555
O6A Mo2 1_555 1_555
O7A Mo3 1_555 1_555
O8A Mo1A 1_555 1_555
O9A Mo3 1_555 1_555
O10_2 Cu1_2 1_555 1_555
O10A Cu1A 1_555 1_555
O11A Mo3A 1_555 1_555
O12A Mo2 1_555 1_555
O13A Mo4A 1_555 1_555
O14_2 Cu2_2 1_555 1_555
Mo2 O7 1_555 1_555
Mo3 O6 1_555 1_555
Mo3 O6A 1_555 1_555
Mo4 O8 1_555 1_555
Mo4 O10 1_555 1_555
C2 N1 1_555 1_555
C3 N3 1_555 1_555
C8 C9 1_555 1_555
C13 N4 1_555 1_555
C14 N6 1_555 1_555
C16 N7 1_555 1_555
C18 N9 1_555 1_555
N2 N3 1_555 1_555
N4 N5 1_555 1_555
N7 N8 1_555 1_555
O7 Mo3A 1_555 1_555
O9 Mo3A 1_555 1_555
O12 Mo2A 1_555 1_555
Mo1A O6A 1_555 1_555
Mo1A O7A 1_555 1_555
Mo2A O3A 1_555 1_555
Mo2A O7A 1_555 1_555
Mo3A O3A 1_555 1_555
Mo3A O6A 1_555 1_555
Mo4A O8A 1_555 1_555
Mo4A O9A 1_555 1_555
Mo4A O10A 1_555 1_555
Mo4A O12A 1_555 1_555
C2_2 N1_2 1_555 1_555
C3_2 N3_2 1_555 1_555
C8_2 C9_2 1_555 1_555
C13_2 N4_2 1_555 1_555
C13_2 N6_2 1_555 1_555
C14_2 N6_2 1_555 1_555
C16_2 N7_2 1_555 1_555
C16_2 N9_2 1_555 1_555
C18_2 N9_2 1_555 1_555
N2_2 N3_2 1_555 1_555
N4_2 N5_2 1_555 1_555
N7_2 N8_2 1_555 1_555

#END
