
#######################################################################
#
#                 Cambridge Crystallographic Data Centre
#                                CCDC 
#
#######################################################################
#
# If this CIF has been generated from an entry in the Cambridge 
# Structural Database, then it will include bibliographic, chemical, 
# crystal, experimental, refinement or atomic coordinate data resulting 
# from the CCDC's data processing and validation procedures.
#
#######################################################################

data_ILAPIV
_symmetry_cell_setting           monoclinic
_symmetry_space_group_name_H-M   'P 21/n'
_symmetry_Int_Tables_number      14
_space_group_name_Hall           '-P 2yn'
loop_
_symmetry_equiv_pos_site_id
_symmetry_equiv_pos_as_xyz
1 x,y,z
2 1/2-x,1/2+y,1/2-z
3 -x,-y,-z
4 1/2+x,1/2-y,1/2+z
_cell_length_a                   11.5822(4)
_cell_length_b                   13.0529(4)
_cell_length_c                   19.6111(6)
_cell_angle_alpha                90
_cell_angle_beta                 94.749(3)
_cell_angle_gamma                90
_cell_volume                     2954.65
loop_
_atom_site_label
_atom_site_type_symbol
_atom_site_fract_x
_atom_site_fract_y
_atom_site_fract_z
C1 C 1.0982(4) 0.1455(4) 0.6679(2)
H1 H 1.1190 0.0800 0.6549
C2 C 1.0309(4) 0.2680(4) 0.7197(2)
H2 H 0.9939 0.3059 0.7516
C3 C 1.1799(4) 0.2402(3) 0.5726(2)
H3 H 1.2010 0.1729 0.5567
H4 H 1.2509 0.2789 0.5823
C4 C 1.1369(4) 0.3897(3) 0.4946(2)
C5 C 1.0745(4) 0.4352(3) 0.4381(2)
C6 C 0.9864(4) 0.3822(3) 0.4022(2)
C7 C 0.9496(4) 0.2888(3) 0.4277(2)
C8 C 1.0104(4) 0.2425(3) 0.4836(2)
C9 C 1.1066(4) 0.2932(3) 0.5163(2)
C10 C 1.2385(4) 0.4472(3) 0.5312(2)
H5 H 1.2452 0.4290 0.5788
H6 H 1.2257 0.5196 0.5267
H7 H 1.3086 0.4292 0.5112
C11 C 0.9763(5) 0.1374(3) 0.5088(3)
H8 H 0.9363 0.1450 0.5495
H9 H 1.0447 0.0967 0.5189
H10 H 0.9265 0.1042 0.4741
C12 C 0.9303(4) 0.4221(3) 0.3350(2)
H11 H 0.8778 0.4766 0.3437
H12 H 0.8884 0.3676 0.3112
H13 H 0.9890 0.4473 0.3076
C13 C 0.8432(4) 0.2376(3) 0.3932(2)
H14 H 0.8084 0.1944 0.4261
H15 H 0.7871 0.2897 0.3780
C14 C 0.9615(4) 0.1184(3) 0.3246(3)
H16 H 1.0287 0.1147 0.3540
C15 C 0.8359(4) 0.0945(4) 0.2418(3)
H17 H 0.7988 0.0691 0.2015
C16 C 1.1039(4) 0.5418(3) 0.4158(2)
H18 H 1.0339 0.5750 0.3962
H19 H 1.1331 0.5810 0.4555
C17 C 1.2571(4) 0.4685(3) 0.3462(2)
H20 H 1.2557 0.4011 0.3614
C18 C 1.2975(4) 0.6031(3) 0.2954(2)
H21 H 1.3336 0.6484 0.2674
N1 N 1.0393(3) 0.1656(3) 0.72177(18)
N2 N 1.0799(3) 0.3101(3) 0.66817(19)
N3 N 1.1231(3) 0.2287(3) 0.63559(19)
N4 N 0.8694(3) 0.1756(3) 0.3348(2)
N5 N 0.7888(4) 0.1622(4) 0.2820(2)
N6 N 0.9429(3) 0.0674(3) 0.2662(2)
N7 N 1.1902(3) 0.5422(2) 0.36547(18)
N8 N 1.3266(3) 0.5043(3) 0.30196(17)
N9 N 1.2135(3) 0.6299(2) 0.3323(2)
Zn1 Zn 0.97067(5) 0.05659(4) 0.77388(3)
O14 O 1.0641(3) 0.0381(3) 0.86650(19)
H22 H 1.113(3) 0.087(3) 0.8728(16)
H23 H 1.016(4) -0.003(3) 0.877(3)
N6B N 1.0571(3) -0.0674(3) 0.7338(2)
N8C N 0.8266(3) -0.0043(3) 0.80196(17)
Zn1B Zn 1.02933(5) -0.05659(4) 0.22612(3)
Zn1C Zn 1.47067(5) 0.44341(4) 0.27388(3)
O1 O 1.1045(3) 0.1598(2) 0.98010(16)
O2 O 1.0016(3) 0.1701(2) 1.09875(16)
O3 O 0.8947(2) 0.26731(19) 0.98639(13)
O4 O 1.1682(2) 0.3205(2) 1.06971(14)
O5 O 0.9207(2) 0.2291(2) 0.84854(14)
O6 O 0.7211(2) 0.3098(2) 0.88620(16)
O7 O 1.0575(2) 0.37319(19) 0.94080(16)
O8 O 0.8892(2) 0.44037(19) 0.84128(13)
O9 O 0.8398(3) 0.4729(2) 0.96582(15)
O10 O 1.3164(3) 0.4478(2) 1.15059(16)
O11 O 0.9738(2) 0.4077(2) 1.08965(16)
O12 O 1.1379(3) 0.3605(2) 1.20835(15)
O13 O 1.2473(3) 0.4967(2) 0.90595(17)
Mo1 Mo 1.04162(4) 0.24345(3) 1.03232(2)
Mo2 Mo 0.86719(3) 0.32502(3) 0.896517(19)
Mo3 Mo 1.12245(3) 0.49697(3) 0.946675(19)
Mo4 Mo 1.17013(4) 0.42575(3) 1.13833(2)
O1B O 0.8955(3) 0.8402(2) 1.01990(16)
O2B O 0.9984(3) 0.8299(2) 0.90125(16)
O3B O 1.1053(2) 0.73269(19) 1.01361(13)
O4B O 0.8318(2) 0.6795(2) 0.93029(14)
O5B O 1.0793(2) 0.7709(2) 1.15146(14)
O6B O 1.2789(2) 0.6902(2) 1.11380(16)
O7B O 0.9425(2) 0.62681(19) 1.05920(16)
O8B O 1.1108(2) 0.55963(19) 1.15872(13)
O9B O 1.1602(3) 0.5271(2) 1.03418(15)
O10B O 0.6836(3) 0.5522(2) 0.84941(16)
O11B O 1.0262(2) 0.5923(2) 0.91035(16)
O12B O 0.8621(3) 0.6395(2) 0.79165(15)
O13B O 0.7527(3) 0.5033(2) 1.09405(17)
Mo1B Mo 0.95838(4) 0.75655(3) 0.96768(2)
Mo2B Mo 1.13281(3) 0.67498(3) 1.103483(19)
Mo3B Mo 0.87755(3) 0.50303(3) 1.053325(19)
Mo4B Mo 0.82987(4) 0.57425(3) 0.86167(2)
loop_
_geom_bond_atom_site_label_1
_geom_bond_atom_site_label_2
_geom_bond_site_symmetry_1
_geom_bond_site_symmetry_2
C1 H1 1_555 1_555
C2 H2 1_555 1_555
C3 H3 1_555 1_555
H4 C3 1_555 1_555
C4 C5 1_555 1_555
C5 C6 1_555 1_555
C6 C7 1_555 1_555
C7 C8 1_555 1_555
C8 C9 1_555 1_555
C9 C3 1_555 1_555
C10 C4 1_555 1_555
H5 C10 1_555 1_555
H6 C10 1_555 1_555
H7 C10 1_555 1_555
C11 C8 1_555 1_555
H8 C11 1_555 1_555
H9 C11 1_555 1_555
H10 C11 1_555 1_555
C12 C6 1_555 1_555
H11 C12 1_555 1_555
H12 C12 1_555 1_555
H13 C12 1_555 1_555
C13 C7 1_555 1_555
H14 C13 1_555 1_555
H15 C13 1_555 1_555
C14 H16 1_555 1_555
C15 H17 1_555 1_555
C16 C5 1_555 1_555
H18 C16 1_555 1_555
H19 C16 1_555 1_555
C17 H20 1_555 1_555
C18 H21 1_555 1_555
N1 C1 1_555 1_555
N2 C2 1_555 1_555
N3 C1 1_555 1_555
N4 C13 1_555 1_555
N5 C15 1_555 1_555
N6 C14 1_555 1_555
N7 C16 1_555 1_555
N8 C17 1_555 1_555
N9 C18 1_555 1_555
O1 Mo1 1_555 1_555
O2 Mo1 1_555 1_555
O3 Mo1 1_555 1_555
O4 Mo1 1_555 1_555
O5 Mo2 1_555 1_555
O6 Mo2 1_555 1_555
O7 Mo1 1_555 1_555
O8 Mo2 1_555 1_555
O9 Mo2 1_555 1_555
O10 Mo4 1_555 1_555
O11 Mo1 1_555 1_555
O12 Mo4 1_555 1_555
O13 Mo3 1_555 1_555
Zn1 N1 1_555 1_555
Mo2 O3 1_555 1_555
Mo3 O7 1_555 1_555
Mo4 O4 1_555 1_555
O14 Zn1 1_555 1_555
H22 O14 1_555 1_555
H23 O14 1_555 1_555
N6B Zn1 1_555 1_555
N8C Zn1 1_555 1_555
O1B Mo1B 1_555 1_555
O2B Mo1B 1_555 1_555
O3B Mo1B 1_555 1_555
O4B Mo1B 1_555 1_555
O5B Mo2B 1_555 1_555
O6B Mo2B 1_555 1_555
O7B Mo1B 1_555 1_555
O8B Mo4 1_555 1_555
O9B Mo3 1_555 1_555
O10B Mo4B 1_555 1_555
O11B Mo3 1_555 1_555
O12B Mo4B 1_555 1_555
O13B Mo3B 1_555 1_555
Zn1B N6 1_555 1_555
Zn1C N8 1_555 1_555
Mo1B O11B 1_555 1_555
Mo2B O3B 1_555 1_555
Mo3B O9 1_555 1_555
Mo4B O8 1_555 1_555
C2 N1 1_555 1_555
C3 N3 1_555 1_555
C4 C9 1_555 1_555
C14 N4 1_555 1_555
C15 N6 1_555 1_555
C17 N7 1_555 1_555
C18 N8 1_555 1_555
N2 N3 1_555 1_555
N4 N5 1_555 1_555
N7 N9 1_555 1_555
O7 Mo2 1_555 1_555
O9 Mo4B 1_555 1_555
O11 Mo4 1_555 1_555
O11 Mo3B 1_555 1_555
Mo4 O9B 1_555 1_555
O4B Mo4B 1_555 1_555
O7B Mo2B 1_555 1_555
O7B Mo3B 1_555 1_555
O8B Mo2B 1_555 1_555
O9B Mo2B 1_555 1_555
O11B Mo4B 1_555 1_555

#END
