
#######################################################################
#
#                 Cambridge Crystallographic Data Centre
#                                CCDC 
#
#######################################################################
#
# If this CIF has been generated from an entry in the Cambridge 
# Structural Database, then it will include bibliographic, chemical, 
# crystal, experimental, refinement or atomic coordinate data resulting 
# from the CCDC's data processing and validation procedures.
#
#######################################################################

data_ILAPOB
_symmetry_cell_setting           triclinic
_symmetry_space_group_name_H-M   'P -1'
_symmetry_Int_Tables_number      2
_space_group_name_Hall           '-P 1'
loop_
_symmetry_equiv_pos_site_id
_symmetry_equiv_pos_as_xyz
1 x,y,z
2 -x,-y,-z
_cell_length_a                   11.4063(14)
_cell_length_b                   11.8303(16)
_cell_length_c                   12.2270(14)
_cell_angle_alpha                115.199(12)
_cell_angle_beta                 93.897(10)
_cell_angle_gamma                101.029(11)
_cell_volume                     1444.44
loop_
_atom_site_label
_atom_site_type_symbol
_atom_site_fract_x
_atom_site_fract_y
_atom_site_fract_z
C1 C -0.3223(11) -0.0026(10) 0.5069(10)
H1 H -0.2812 0.0812 0.5616
C2 C -0.3878(9) -0.1727(9) 0.3423(9)
H2 H -0.4035 -0.2342 0.2607
C3 C -0.5173(9) -0.3061(9) 0.4249(8)
H3 H -0.6006 -0.3011 0.4122
H4 H -0.5064 -0.3806 0.3547
C4 C -0.4936(8) -0.3232(8) 0.5391(9)
C5 C -0.3804(8) -0.3400(8) 0.5700(9)
C6 C -0.3534(8) -0.3466(8) 0.6813(8)
C7 C -0.5583(8) 0.3450(9) 1.2432(9)
C8 C -0.4431(7) 0.3324(8) 1.2792(8)
C9 C -0.4192(7) 0.3183(8) 1.3859(8)
C10 C -0.2972(9) 0.2986(12) 1.4222(9)
H5 H -0.2726 0.3462 1.5095
H6 H -0.2379 0.3286 1.3823
H7 H -0.3041 0.2087 1.3978
C11 C -0.4134(10) -0.3554(11) 0.8742(10)
H8 H -0.3439 -0.2880 0.9255
H9 H -0.4817 -0.3470 0.9163
H10 H -0.3967 -0.4376 0.8554
C12 C -0.2259(9) -0.3476(11) 0.7218(12)
H11 H -0.7958 0.4215 1.3398
H12 H -0.7784 0.3553 1.2022
C13 C -0.7131(9) 0.3480(9) 1.5126(10)
H13 H -0.7647 0.2638 1.4869
H14 H -0.7609 0.4049 1.5079
H15 H -0.6733 0.3805 1.5955
C14 C -0.3463(9) 0.3315(10) 1.2009(9)
H16 H -0.6451 -0.3883 0.8360
H17 H -0.7325 -0.3654 0.7471
C15 C -0.0252(9) -0.2162(10) 0.7193(9)
H18 H 0.0145 -0.2824 0.6911
C16 C -0.9285(11) 0.0358(11) 1.2258(14)
H19 H -0.9328 -0.0489 1.2110
C17 C -0.3157(14) 0.0204(12) 1.0191(13)
H20 H -0.2892 -0.0533 1.0061
C18 C -0.6058(10) -0.1529(11) 1.0120(10)
H21 H -0.5666 -0.1925 1.0495
N1 N -0.4354(7) -0.1885(7) 0.4332(7)
N2 N -0.3939(8) -0.0824(8) 0.5379(7)
N3 N -0.3162(8) -0.0581(9) 0.3856(8)
N4 N -0.3511(7) 0.2041(8) 1.1042(7)
N5 N -0.2988(11) 0.1217(11) 1.1293(9)
N6 N -0.3744(10) 0.0354(9) 0.9295(9)
N7 N -0.1392(7) -0.2284(7) 0.7403(7)
N8 N -0.8307(8) 0.1145(9) 1.2212(10)
N9 N 0.0221(8) -0.0947(8) 0.7450(9)
O1 O -0.9870(5) -0.3933(5) 1.1118(5)
O2 O -0.8205(5) -0.3954(5) 0.9765(5)
O3 O -0.7701(7) -0.1786(7) 1.2020(7)
O4 O -1.3694(6) -0.6531(8) 0.8363(6)
O5 O -0.8176(6) -0.3523(8) 1.2974(6)
O6 O -1.0191(7) -0.6397(13) 0.5372(7)
O7 O -1.0454(8) -0.8230(10) 0.6167(11)
O8 O -0.8543(6) -0.6109(7) 0.7369(6)
O9 O -1.3405(6) -0.4374(7) 1.0912(7)
O10 O -1.1632(7) -0.2256(7) 1.1533(7)
O11 O -0.8406(5) -0.5606(6) 1.0609(6)
O12 O -0.9929(6) -0.4461(7) 0.7818(6)
O13 O -1.0319(6) -0.7740(6) 1.0121(7)
Mo1 Mo -0.97856(7) -0.33839(9) 1.33418(7)
Mo2 Mo -0.81235(6) -0.61536(7) 0.88838(6)
Mo3 Mo -1.01482(6) -0.61509(6) 1.05961(6)
Mo4 Mo -0.77748(6) -0.33725(7) 1.15626(6)
Ag1 Ag 0.17519(8) -0.01196(8) 0.69283(9)
Ag2 Ag -0.36767(8) -0.05671(8) 0.73352(7)
C1A C -0.6777(11) 0.0026(10) 1.4931(10)
H1A H -0.7188 -0.0812 1.4384
C2A C -0.6122(9) 0.1727(9) 1.6577(9)
H2A H -0.5965 0.2342 1.7393
C3A C -0.4827(9) 0.3061(9) 1.5751(8)
H3A H -0.3994 0.3011 1.5878
H4A H -0.4936 0.3806 1.6453
C4A C -0.5064(8) 0.3232(8) 1.4609(9)
C5A C -0.6196(8) 0.3400(8) 1.4300(9)
C6A C -0.6466(8) 0.3466(8) 1.3187(8)
C7A C -0.4417(8) -0.3450(9) 0.7568(9)
C8A C -0.5569(7) -0.3324(8) 0.7208(8)
C9A C -0.5808(7) -0.3183(8) 0.6141(8)
C10A C -0.7028(9) -0.2986(12) 0.5778(9)
H5A H -0.7274 -0.3462 0.4905
H6A H -0.7621 -0.3286 0.6177
H7A H -0.6959 -0.2087 0.6022
C11A C -0.5866(10) 0.3554(11) 1.1258(10)
H8A H -0.6561 0.2880 1.0745
H9A H -0.5183 0.3470 1.0837
H10A H -0.6033 0.4376 1.1446
C12A C -0.7741(9) 0.3476(11) 1.2782(12)
H11A H -0.2042 -0.4215 0.6602
H12A H -0.2216 -0.3553 0.7978
C13A C -0.2869(9) -0.3480(9) 0.4874(10)
H13A H -0.2353 -0.2638 0.5131
H14A H -0.2391 -0.4049 0.4921
H15A H -0.3267 -0.3805 0.4045
C14A C -0.6537(9) -0.3315(10) 0.7991(9)
H16A H -0.3549 0.3883 1.1640
H17A H -0.2675 0.3654 1.2529
C15A C -0.9748(9) 0.2162(10) 1.2807(9)
H18A H -1.0145 0.2824 1.3089
C16A C -0.0715(11) -0.0358(11) 0.7742(14)
H19A H -0.0672 0.0489 0.7890
C17A C -0.6843(14) -0.0204(12) 0.9809(13)
H20A H -0.7108 0.0533 0.9939
C18A C -0.3942(10) 0.1529(11) 0.9880(10)
H21A H -0.4334 0.1925 0.9505
N1A N -0.5646(7) 0.1885(7) 1.5668(7)
N2A N -0.6061(8) 0.0824(8) 1.4621(7)
N3A N 0.3162(8) 0.0581(9) 0.6144(8)
N3_2 N -1.3162(8) -0.0581(9) 1.3856(8)
N3A_2 N -0.6838(8) 0.0581(9) 1.6144(8)
N4A N -0.6489(7) -0.2041(8) 0.8958(7)
N5A N -0.7012(11) -0.1217(11) 0.8707(9)
N6A N -0.6256(10) -0.0354(9) 1.0705(9)
N7A N -0.8608(7) 0.2284(7) 1.2597(7)
N8A N -0.1693(8) -0.1145(9) 0.7788(10)
N9A N -1.0221(8) 0.0947(8) 1.2550(9)
O1A O -1.0130(5) -0.6067(5) 0.8882(5)
O2A O -1.1795(5) -0.6046(5) 1.0235(5)
O3A O -0.2299(7) 0.1786(7) 0.7980(7)
O3A_2 O -1.2299(7) -0.8214(7) 0.7980(7)
O4A O -0.6306(6) -0.3469(8) 1.1637(6)
O5A O -1.1824(6) -0.6477(8) 0.7026(6)
O6A O -0.9809(7) -0.3603(13) 1.4628(7)
O7A O -0.9546(8) -0.1770(10) 1.3833(11)
O8A O -1.1457(6) -0.3891(7) 1.2631(6)
O9A O -0.6595(6) -0.5626(7) 0.9088(7)
O10A O 0.1632(7) 0.2256(7) 0.8467(7)
O10A_2 O -0.8368(7) -0.7744(7) 0.8467(7)
O11A O -1.1594(5) -0.4394(6) 0.9391(6)
O12A O -1.0071(6) -0.5539(7) 1.2182(6)
O13A O -0.9681(6) -0.2260(6) 0.9879(7)
Mo1A Mo -1.02144(7) -0.66161(9) 0.66582(7)
Mo2A Mo -1.18765(6) -0.38464(7) 1.11162(6)
Mo3A Mo -0.98518(6) -0.38491(6) 0.94039(6)
Mo4A Mo -1.22252(6) -0.66275(7) 0.84374(6)
Ag1A Ag -1.17519(8) 0.01196(8) 1.30717(9)
Ag1_2 Ag -0.82481(8) -1.01196(8) 0.69283(9)
Ag1A_2 Ag -0.17519(8) 0.01196(8) 0.30717(9)
Ag1_3 Ag -0.82481(8) -0.01196(8) 1.69283(9)
Ag2A Ag -0.63233(8) 0.05671(8) 1.26648(7)
Ag2_2 Ag -1.36767(8) -1.05671(8) 0.73352(7)
loop_
_geom_bond_atom_site_label_1
_geom_bond_atom_site_label_2
_geom_bond_site_symmetry_1
_geom_bond_site_symmetry_2
C1 H1 1_555 1_555
C2 H2 1_555 1_555
C3 H3 1_555 1_555
H4 C3 1_555 1_555
C4 C3 1_555 1_555
C5 C4 1_555 1_555
C6 C5 1_555 1_555
C7 C8 1_555 1_555
C8 C9 1_555 1_555
C9 C10 1_555 1_555
C10 H5 1_555 1_555
H6 C10 1_555 1_555
H7 C10 1_555 1_555
C11 H8 1_555 1_555
H9 C11 1_555 1_555
H10 C11 1_555 1_555
C12 C6 1_555 1_555
H11 C12A 1_555 1_555
H12 C12A 1_555 1_555
C13 H13 1_555 1_555
H14 C13 1_555 1_555
H15 C13 1_555 1_555
C14 C8 1_555 1_555
H16 C14A 1_555 1_555
H17 C14A 1_555 1_555
C15 H18 1_555 1_555
C16 H19 1_555 1_555
C17 H20 1_555 1_555
C18 H21 1_555 1_555
N1 C2 1_555 1_555
N2 C1 1_555 1_555
N3 C1 1_555 1_555
N4 C14 1_555 1_555
N5 C17 1_555 1_555
N6 C17 1_555 1_555
N7 C12 1_555 1_555
N8 C16 1_555 1_555
N9 C15 1_555 1_555
O1 Mo1 1_555 1_555
O2 Mo2 1_555 1_555
O3 Mo4 1_555 1_555
O4 Mo4A 1_555 1_555
O5 Mo1 1_555 1_555
O6 Mo1A 1_555 1_555
O7 Mo1A 1_555 1_555
O8 Mo2 1_555 1_555
O9 Mo2A 1_555 1_555
O10 Mo2A 1_555 1_555
O11 Mo2 1_555 1_555
O12 Mo1A 1_555 1_555
O13 Mo3 1_555 1_555
Mo1 O6A 1_555 1_555
Mo2 O1A 1_555 1_555
Mo3 O1 1_555 1_555
Mo4 O1 1_555 1_555
Ag1 N9 1_555 1_555
Ag2 N2 1_555 1_555
C1A H1A 1_555 1_555
C2A H2A 1_555 1_555
C3A H3A 1_555 1_555
H4A C3A 1_555 1_555
C4A C9 1_555 1_555
C5A C13 1_555 1_555
C6A C7 1_555 1_555
C7A C6 1_555 1_555
C8A C7A 1_555 1_555
C9A C4 1_555 1_555
C10A C9A 1_555 1_555
H5A C10A 1_555 1_555
H6A C10A 1_555 1_555
H7A C10A 1_555 1_555
C11A C7 1_555 1_555
H8A C11A 1_555 1_555
H9A C11A 1_555 1_555
H10A C11A 1_555 1_555
C12A C6A 1_555 1_555
H11A C12 1_555 1_555
H12A C12 1_555 1_555
C13A C5 1_555 1_555
H13A C13A 1_555 1_555
H14A C13A 1_555 1_555
H15A C13A 1_555 1_555
C14A C8A 1_555 1_555
H16A C14 1_555 1_555
H17A C14 1_555 1_555
C15A H18A 1_555 1_555
C16A N9 1_555 1_555
H19A C16A 1_555 1_555
C17A H20A 1_555 1_555
C18A N4 1_555 1_555
H21A C18A 1_555 1_555
N1A C2A 1_555 1_555
N2A C1A 1_555 1_555
N3A Ag1 1_555 1_555
N3_2 Ag1A 1_555 1_555
N3A_2 C1A 1_555 1_555
N4A C18 1_555 1_555
N5A C17A 1_555 1_555
N6A C18 1_555 1_555
N7A N8 1_555 1_555
N8A N7 1_555 1_555
N9A C16 1_555 1_555
O1A Mo3 1_555 1_555
O2A Mo3 1_555 1_555
O3A Ag2 1_555 1_555
O3A_2 Mo4A 1_555 1_555
O4A Mo4 1_555 1_555
O5A Mo1A 1_555 1_555
O7A Mo1 1_555 1_555
O8A Mo1 1_555 1_555
O9A Mo2 1_555 1_555
O10A Ag1 1_555 1_555
O10A_2 Mo2 1_555 1_555
O11A Mo2A 1_555 1_555
O12A Mo1 1_555 1_555
O13A Mo3A 1_555 1_555
Mo1A O8 1_555 1_555
Mo2A O1 1_555 1_555
Mo3A O1 1_555 1_555
Mo4A O1A 1_555 1_555
Ag1A O10 1_555 1_555
Ag1_2 O10A_2 1_555 1_555
Ag1A_2 N3 1_555 1_555
Ag1_3 N3A_2 1_555 1_555
Ag2A N8 1_555 1_555
Ag2_2 O3A_2 1_555 1_555
C2 N3 1_555 1_555
C3 N1 1_555 1_555
C11 C7A 1_555 1_555
C15 N7 1_555 1_555
N1 N2 1_555 1_555
N4 N5 1_555 1_555
N6 Ag2 1_555 1_555
N6 C18A 1_555 1_555
O2 Mo4 1_555 1_555
O2 Mo3A 1_555 1_555
O3 Ag2A 1_555 1_555
O5 Mo4 1_555 1_555
O11 Mo3 1_555 1_555
O11 Mo4 1_555 1_555
O12 Mo3A 1_555 1_555
Mo3 O12A 1_555 1_555
Ag2 N8A 1_555 1_555
C2A N3A_2 1_555 1_555
C3A C4A 1_555 1_555
C3A N1A 1_555 1_555
C4A C5A 1_555 1_555
C5A C6A 1_555 1_555
C8A C9A 1_555 1_555
C12A N7A 1_555 1_555
C14A N4A 1_555 1_555
C15A N7A 1_555 1_555
C15A N9A 1_555 1_555
C16A N8A 1_555 1_555
C17A N6A 1_555 1_555
N1A N2A 1_555 1_555
N2A Ag2A 1_555 1_555
N4A N5A 1_555 1_555
N6A Ag2A 1_555 1_555
N9A Ag1A 1_555 1_555
O1A Mo1A 1_555 1_555
O1A Mo3A 1_555 1_555
O2A Mo2A 1_555 1_555
O2A Mo4A 1_555 1_555
O5A Mo4A 1_555 1_555
O8A Mo2A 1_555 1_555
O11A Mo3A 1_555 1_555
O11A Mo4A 1_555 1_555

#END
