
#######################################################################
#
#                 Cambridge Crystallographic Data Centre
#                                CCDC 
#
#######################################################################
#
# If this CIF has been generated from an entry in the Cambridge 
# Structural Database, then it will include bibliographic, chemical, 
# crystal, experimental, refinement or atomic coordinate data resulting 
# from the CCDC's data processing and validation procedures.
#
#######################################################################

data_ILAXOJ
_symmetry_cell_setting           triclinic
_symmetry_space_group_name_H-M   'P -1'
_symmetry_Int_Tables_number      2
_space_group_name_Hall           '-P 1'
loop_
_symmetry_equiv_pos_site_id
_symmetry_equiv_pos_as_xyz
1 x,y,z
2 -x,-y,-z
_cell_length_a                   8.7553(18)
_cell_length_b                   13.375(3)
_cell_length_c                   16.391(3)
_cell_angle_alpha                83.88(3)
_cell_angle_beta                 84.39(3)
_cell_angle_gamma                76.03(3)
_cell_volume                     1846.87
loop_
_atom_site_label
_atom_site_type_symbol
_atom_site_fract_x
_atom_site_fract_y
_atom_site_fract_z
Er1 Er 0.41631(6) 0.63785(4) 0.04674(3)
Er2 Er 0.63505(6) 0.86075(4) 0.52428(3)
N1 N 0.3541(13) 0.7955(8) -0.0669(7)
N2 N 0.1285(12) 0.7348(8) 0.0386(7)
N3 N 0.8073(12) 0.7132(7) 0.4404(7)
N4 N 0.6286(13) 0.6779(8) 0.5822(7)
O1 O 0.2830(10) 0.5148(6) 0.1026(5)
O2 O 0.3544(11) 0.3709(6) 0.0347(5)
O3 O -0.3781(10) 0.5630(7) 0.1382(6)
O4 O -0.3671(11) 0.4378(7) 0.0627(5)
O5 O 0.4591(10) 0.7854(7) 0.1001(5)
O6 O 0.3154(10) 0.6943(7) 0.1805(5)
O7 O 0.4024(10) 0.9702(6) 0.4465(5)
O8 O 0.4753(10) 0.8020(6) 0.4367(6)
O9 O 0.4030(9) 0.8867(5) 0.6056(5)
O10 O 0.2663(10) 1.0548(6) 0.5892(5)
O11 O -0.1054(10) 0.8233(7) 0.5658(6)
O12 O -0.2862(10) 0.8409(7) 0.6661(5)
C1 C 0.2703(14) 0.4280(9) 0.0881(7)
C2 C 0.1371(14) 0.3876(9) 0.1382(8)
H1 H 0.1558 0.3134 0.1355
H2 H 0.1347 0.4010 0.1953
C3 C -0.0207(14) 0.4411(10) 0.1037(8)
H3 H -0.0322 0.5153 0.1015
H4 H -0.0184 0.4233 0.0477
C4 C -0.1718(16) 0.4132(10) 0.1543(8)
H5 H -0.1744 0.4286 0.2110
H6 H -0.1659 0.3399 0.1539
C5 C 0.3932(17) 0.7679(10) 0.1684(8)
C6 C 0.3879(17) 0.8332(10) 0.2381(8)
H7 H 0.3700 0.9051 0.2164
H8 H 0.4901 0.8147 0.2610
C7 C 0.2589(15) 0.8227(9) 0.3087(7)
H9 H 0.1582 0.8316 0.2854
H10 H 0.2852 0.7538 0.3367
C8 C 0.2439(15) 0.9028(10) 0.3709(9)
H11 H 0.2251 0.9710 0.3416
H12 H 0.1522 0.9002 0.4086
C9 C 0.3851(14) 0.8888(9) 0.4202(8)
C10 C 0.2798(17) 0.9582(9) 0.6102(8)
C11 C 0.1215(14) 0.9302(8) 0.6438(8)
H13 H 0.0751 0.9731 0.6882
H14 H 0.0496 0.9473 0.6003
C12 C 0.1347(13) 0.8186(9) 0.6753(8)
H15 H 0.1831 0.7745 0.6320
H16 H 0.2017 0.8012 0.7209
C13 C -0.0250(15) 0.7993(10) 0.7031(8)
H17 H -0.0463 0.7737 0.7570
C14 C -0.1513(17) 0.8222(9) 0.6421(9)
C15 C 0.4574(16) 0.8256(10) -0.1187(9)
H18 H 0.5615 0.7879 -0.1183
C16 C 0.4220(17) 0.9116(11) -0.1756(9)
H19 H 0.5034 0.9269 -0.2119
C17 C 0.285(2) 0.9705(11) -0.1806(9)
H20 H 0.2678 1.0307 -0.2158
C18 C 0.1525(17) 0.9401(10) -0.1286(8)
C19 C -0.0110(17) 0.9954(11) -0.1291(10)
H21 H -0.0403 1.0553 -0.1640
C20 C -0.118(2) 0.9607(12) -0.0802(10)
H22 H -0.2227 0.9955 -0.0842
C21 C 0.0182(18) 0.7099(10) 0.0908(9)
H23 H 0.0507 0.6582 0.1323
C22 C 0.0767(15) 0.8172(10) -0.0163(8)
C23 C 0.1954(15) 0.8506(9) -0.0707(8)
C24 C 0.9012(18) 0.7277(11) 0.3763(9)
H24 H 0.9139 0.7942 0.3604
C25 C 0.983(2) 0.6478(12) 0.3306(9)
H25 H 1.0478 0.6634 0.2851
C26 C 0.9740(17) 0.5504(11) 0.3479(9)
H26 H 1.0336 0.4979 0.3173
C27 C 0.870(2) 0.5308(10) 0.4152(10)
C28 C 0.837(2) 0.4299(10) 0.4438(12)
H27 H 0.8866 0.3736 0.4144
C29 C 0.743(2) 0.4145(12) 0.5087(13)
H28 H 0.7216 0.3496 0.5221
C30 C 0.6720(18) 0.4974(11) 0.5595(11)
C31 C 0.593(2) 0.4824(12) 0.6334(12)
H29 H 0.5772 0.4173 0.6522
C32 C 0.537(2) 0.5632(11) 0.6793(11)
H30 H 0.4838 0.5517 0.7299
C33 C 0.5556(16) 0.6623(11) 0.6553(10)
H31 H 0.5180 0.7158 0.6893
C34 C 0.6873(15) 0.5976(9) 0.5357(9)
C35 C 0.7927(15) 0.6175(9) 0.4634(8)
C36 C -0.3160(14) 0.4731(11) 0.1177(7)
C37 C -0.1959(14) 0.8346(13) 0.0319(10)
H32 H -0.3028 0.8638 0.0274
C38 C -0.0837(19) 0.8727(11) -0.0208(10)
C39 C -0.1489(15) 0.7546(12) 0.0901(10)
H33 H -0.2213 0.7302 0.1275
Er1A Er 0.58369(6) 0.36215(4) -0.04674(3)
Er1_2 Er -0.58369(6) 0.63785(4) 0.04674(3)
Er1A_2 Er -0.41631(6) 0.36215(4) -0.04674(3)
Er2A Er 0.36495(6) 1.13925(4) 0.47572(3)
Er2_2 Er -0.36495(6) 0.86075(4) 0.52428(3)
O2A O 0.6456(11) 0.6291(6) -0.0347(5)
O3_2 O 0.6219(10) 0.5630(7) 0.1382(6)
O4A O 0.3671(11) 0.5622(7) -0.0627(5)
O4_2 O 0.6329(11) 0.4378(7) 0.0627(5)
O7A O 0.5976(10) 1.0298(6) 0.5535(5)
O10A O 0.7337(10) 0.9452(6) 0.4108(5)
O11_2 O 0.8946(10) 0.8233(7) 0.5658(6)
O12_2 O 0.7138(10) 0.8409(7) 0.6661(5)
loop_
_geom_bond_atom_site_label_1
_geom_bond_atom_site_label_2
_geom_bond_site_symmetry_1
_geom_bond_site_symmetry_2
Er1 N1 1_555 1_555
Er2 N3 1_555 1_555
N1 C15 1_555 1_555
N2 Er1 1_555 1_555
N3 C24 1_555 1_555
N4 Er2 1_555 1_555
O1 Er1 1_555 1_555
O2 C1 1_555 1_555
O3 C36 1_555 1_555
O4 C36 1_555 1_555
O5 Er1 1_555 1_555
O6 Er1 1_555 1_555
O7 Er2 1_555 1_555
O8 Er2 1_555 1_555
O9 Er2 1_555 1_555
O10 C10 1_555 1_555
O11 C14 1_555 1_555
O12 C14 1_555 1_555
C1 O1 1_555 1_555
C2 C1 1_555 1_555
H1 C2 1_555 1_555
H2 C2 1_555 1_555
C3 C2 1_555 1_555
H3 C3 1_555 1_555
H4 C3 1_555 1_555
C4 C3 1_555 1_555
H5 C4 1_555 1_555
H6 C4 1_555 1_555
C5 O5 1_555 1_555
C6 C5 1_555 1_555
H7 C6 1_555 1_555
H8 C6 1_555 1_555
C7 C6 1_555 1_555
H9 C7 1_555 1_555
H10 C7 1_555 1_555
C8 C7 1_555 1_555
H11 C8 1_555 1_555
H12 C8 1_555 1_555
C9 O7 1_555 1_555
C10 O9 1_555 1_555
C11 C10 1_555 1_555
H13 C11 1_555 1_555
H14 C11 1_555 1_555
C12 C11 1_555 1_555
H15 C12 1_555 1_555
H16 C12 1_555 1_555
C13 C12 1_555 1_555
H17 C13 1_555 1_555
C14 C13 1_555 1_555
C15 H18 1_555 1_555
C16 C15 1_555 1_555
H19 C16 1_555 1_555
C17 C16 1_555 1_555
H20 C17 1_555 1_555
C18 C17 1_555 1_555
C19 C18 1_555 1_555
H21 C19 1_555 1_555
C20 C19 1_555 1_555
H22 C20 1_555 1_555
C21 N2 1_555 1_555
H23 C21 1_555 1_555
C22 N2 1_555 1_555
C23 N1 1_555 1_555
C24 H24 1_555 1_555
C25 C24 1_555 1_555
H25 C25 1_555 1_555
C26 C25 1_555 1_555
H26 C26 1_555 1_555
C27 C26 1_555 1_555
C28 C27 1_555 1_555
H27 C28 1_555 1_555
C29 C28 1_555 1_555
H28 C29 1_555 1_555
C30 C29 1_555 1_555
C31 C30 1_555 1_555
H29 C31 1_555 1_555
C32 C31 1_555 1_555
H30 C32 1_555 1_555
C33 N4 1_555 1_555
H31 C33 1_555 1_555
C34 N4 1_555 1_555
C35 N3 1_555 1_555
C36 C4 1_555 1_555
C37 H32 1_555 1_555
C38 C20 1_555 1_555
C39 C21 1_555 1_555
H33 C39 1_555 1_555
Er1A O2 1_555 1_555
Er1_2 O3 1_555 1_555
Er1A_2 O4 1_555 1_555
Er2A O7 1_555 1_555
Er2_2 O11 1_555 1_555
O2A Er1 1_555 1_555
O3_2 Er1 1_555 1_555
O4A Er1 1_555 1_555
O4_2 Er1 1_555 1_555
O7A Er2 1_555 1_555
O10A Er2 1_555 1_555
O11_2 Er2 1_555 1_555
O12_2 Er2 1_555 1_555
O4 Er1_2 1_555 1_555
O6 C5 1_555 1_555
O8 C9 1_555 1_555
O10 Er2A 1_555 1_555
O12 Er2_2 1_555 1_555
C8 C9 1_555 1_555
C18 C23 1_555 1_555
C22 C23 1_555 1_555
C22 C38 1_555 1_555
C27 C35 1_555 1_555
C30 C34 1_555 1_555
C32 C33 1_555 1_555
C34 C35 1_555 1_555
C37 C38 1_555 1_555
C37 C39 1_555 1_555
Er1A O4A 1_555 1_555
Er1A O4_2 1_555 1_555
Er2A O7A 1_555 1_555

#END
