
#######################################################################
#
#                 Cambridge Crystallographic Data Centre
#                                CCDC 
#
#######################################################################
#
# If this CIF has been generated from an entry in the Cambridge 
# Structural Database, then it will include bibliographic, chemical, 
# crystal, experimental, refinement or atomic coordinate data resulting 
# from the CCDC's data processing and validation procedures.
#
#######################################################################

data_ILAXUP
_symmetry_cell_setting           triclinic
_symmetry_space_group_name_H-M   'P -1'
_symmetry_Int_Tables_number      2
_space_group_name_Hall           '-P 1'
loop_
_symmetry_equiv_pos_site_id
_symmetry_equiv_pos_as_xyz
1 x,y,z
2 -x,-y,-z
_cell_length_a                   8.8124(18)
_cell_length_b                   13.483(3)
_cell_length_c                   16.405(3)
_cell_angle_alpha                84.07(3)
_cell_angle_beta                 84.35(3)
_cell_angle_gamma                74.99(3)
_cell_volume                     1867.4
loop_
_atom_site_label
_atom_site_type_symbol
_atom_site_fract_x
_atom_site_fract_y
_atom_site_fract_z
Eu1 Eu 0.41391(2) 0.636587(14) 0.046322(12)
Eu2 Eu 0.63693(2) 0.859723(13) 0.524408(12)
N1 N 0.3474(5) 0.7943(3) -0.0702(2)
N2 N 0.1188(4) 0.7390(3) 0.0341(2)
N3 N 0.6340(5) 0.6743(3) 0.5808(2)
N4 N 0.8073(4) 0.7091(3) 0.4392(2)
O1 O 0.2660(4) 0.5156(2) 0.0994(2)
O2 O 0.3479(3) 0.3701(2) 0.03647(19)
O3 O -0.3786(4) 0.5693(2) 0.1438(2)
O4 O -0.3891(4) 0.4484(2) 0.06783(18)
O5 O 0.4449(4) 0.7902(2) 0.1022(2)
O6 O 0.3065(4) 0.6987(2) 0.1807(2)
O7 O 0.4033(4) 0.9660(2) 0.44640(19)
O8 O 0.4677(4) 0.7994(2) 0.4366(2)
O9 O 0.4012(3) 0.8892(2) 0.61032(19)
O10 O 0.2627(4) 1.0545(2) 0.59411(19)
O11 O -0.0950(4) 0.8224(3) 0.5676(2)
O12 O -0.2813(4) 0.8374(3) 0.6675(2)
C1 C 0.2578(5) 0.4274(3) 0.0856(3)
C2 C 0.1265(5) 0.3865(3) 0.1332(3)
H1 H 0.1291 0.3929 0.1914
H2 H 0.1437 0.3140 0.1254
C3 C -0.0331(5) 0.4444(4) 0.1055(3)
H3 H -0.0442 0.5174 0.1086
H4 H -0.0363 0.4333 0.0483
C4 C -0.1737(5) 0.4154(4) 0.1540(3)
H5 H -0.1720 0.4248 0.2117
H6 H -0.1684 0.3435 0.1490
C5 C -0.3241(5) 0.4825(3) 0.1212(3)
C6 C 0.3745(5) 0.7703(3) 0.1697(3)
C7 C 0.3737(6) 0.8341(4) 0.2402(3)
H7 H 0.3555 0.9059 0.2195
H8 H 0.4769 0.8137 0.2618
C8 C 0.2508(5) 0.8244(3) 0.3100(3)
H9 H 0.2777 0.7549 0.3361
H10 H 0.1495 0.8354 0.2875
C9 C 0.2362(5) 0.9003(3) 0.3745(3)
H11 H 0.2122 0.9695 0.3477
H12 H 0.1479 0.8949 0.4134
C10 C 0.3787(5) 0.8856(3) 0.4209(3)
C11 C 0.2756(5) 0.9593(3) 0.6149(3)
C12 C 0.1255(5) 0.9302(3) 0.6448(3)
H13 H 0.0561 0.9467 0.6003
H14 H 0.0746 0.9729 0.6888
C13 C 0.1410(5) 0.8184(3) 0.6759(3)
H15 H 0.2105 0.8003 0.7203
H16 H 0.1876 0.7747 0.6319
C14 C -0.0188(5) 0.7994(4) 0.7063(3)
H17 H -0.0027 0.7278 0.7275
H18 H -0.0615 0.8413 0.7518
C15 C -0.1397(5) 0.8218(3) 0.6435(3)
C16 C 0.4575(6) 0.8240(4) -0.1215(3)
H19 H 0.5607 0.7842 -0.1199
C17 C 0.4280(7) 0.9104(4) -0.1769(4)
H20 H 0.5091 0.9271 -0.2117
C18 C 0.2777(7) 0.9703(4) -0.1792(3)
H21 H 0.2561 1.0297 -0.2148
C19 C 0.1563(7) 0.9427(4) -0.1285(3)
C20 C -0.0063(7) 0.9999(4) -0.1291(3)
H22 H -0.0332 1.0600 -0.1635
C21 C -0.1192(7) 0.9685(4) -0.0812(4)
H23 H -0.2233 1.0063 -0.0840
C22 C -0.0832(6) 0.8778(4) -0.0254(3)
C23 C -0.1977(6) 0.8436(4) 0.0273(4)
H24 H -0.3037 0.8774 0.0247
C24 C -0.1537(6) 0.7616(4) 0.0817(4)
H25 H -0.2290 0.7377 0.1162
C25 C 0.0065(6) 0.7127(4) 0.0861(3)
H26 H 0.0359 0.6597 0.1268
C26 C 0.0736(5) 0.8218(3) -0.0198(3)
C27 C 0.1967(5) 0.8525(3) -0.0741(3)
C28 C 0.9025(6) 0.7229(4) 0.3730(3)
H27 H 0.9113 0.7896 0.3572
C29 C 0.9895(7) 0.6448(4) 0.3261(4)
H28 H 1.0582 0.6583 0.2821
C30 C 0.9715(7) 0.5474(4) 0.3462(4)
H29 H 1.0264 0.4937 0.3150
C31 C 0.8697(7) 0.5288(4) 0.4140(3)
C32 C 0.8458(9) 0.4277(4) 0.4408(5)
H30 H 0.8984 0.3720 0.4113
C33 C 0.7514(9) 0.4127(4) 0.5060(5)
H31 H 0.7337 0.3477 0.5194
C34 C 0.6764(7) 0.4939(4) 0.5559(4)
C35 C 0.5866(8) 0.4801(5) 0.6303(5)
H32 H 0.5658 0.4165 0.6464
C36 C 0.5317(8) 0.5580(5) 0.6774(5)
H33 H 0.4774 0.5477 0.7278
C37 C 0.5554(7) 0.6563(4) 0.6513(4)
H34 H 0.5144 0.7101 0.6847
C38 C 0.6964(6) 0.5941(3) 0.5344(3)
C39 C 0.7919(5) 0.6114(3) 0.4599(3)
Eu1A Eu 0.58609(2) 0.363413(14) -0.046322(12)
Eu1_2 Eu -0.58609(2) 0.636587(14) 0.046322(12)
Eu1A_2 Eu -0.41391(2) 0.363413(14) -0.046322(12)
Eu2A Eu 0.36307(2) 1.140277(13) 0.475592(12)
Eu2_2 Eu -0.36307(2) 0.859723(13) 0.524408(12)
O2A O 0.6521(3) 0.6299(2) -0.03647(19)
O3_2 O 0.6214(4) 0.5693(2) 0.1438(2)
O4A O 0.3891(4) 0.5516(2) -0.06783(18)
O4_2 O 0.6109(4) 0.4484(2) 0.06783(18)
O7A O 0.5967(4) 1.0340(2) 0.55360(19)
O10A O 0.7373(4) 0.9455(2) 0.40589(19)
O11_2 O 0.9050(4) 0.8224(3) 0.5676(2)
O12_2 O 0.7187(4) 0.8374(3) 0.6675(2)
loop_
_geom_bond_atom_site_label_1
_geom_bond_atom_site_label_2
_geom_bond_site_symmetry_1
_geom_bond_site_symmetry_2
Eu1 N1 1_555 1_555
Eu2 N3 1_555 1_555
N1 C16 1_555 1_555
N2 Eu1 1_555 1_555
N3 C37 1_555 1_555
N4 Eu2 1_555 1_555
O1 Eu1 1_555 1_555
O2 C1 1_555 1_555
O3 C5 1_555 1_555
O4 C5 1_555 1_555
O5 Eu1 1_555 1_555
O6 Eu1 1_555 1_555
O7 Eu2 1_555 1_555
O8 Eu2 1_555 1_555
O9 Eu2 1_555 1_555
O10 C11 1_555 1_555
O11 C15 1_555 1_555
O12 C15 1_555 1_555
C1 O1 1_555 1_555
C2 C1 1_555 1_555
H1 C2 1_555 1_555
H2 C2 1_555 1_555
C3 C2 1_555 1_555
H3 C3 1_555 1_555
H4 C3 1_555 1_555
C4 C3 1_555 1_555
H5 C4 1_555 1_555
H6 C4 1_555 1_555
C5 C4 1_555 1_555
C6 O5 1_555 1_555
C7 C6 1_555 1_555
H7 C7 1_555 1_555
H8 C7 1_555 1_555
C8 C7 1_555 1_555
H9 C8 1_555 1_555
H10 C8 1_555 1_555
C9 C8 1_555 1_555
H11 C9 1_555 1_555
H12 C9 1_555 1_555
C10 O7 1_555 1_555
C11 O9 1_555 1_555
C12 C11 1_555 1_555
H13 C12 1_555 1_555
H14 C12 1_555 1_555
C13 C12 1_555 1_555
H15 C13 1_555 1_555
H16 C13 1_555 1_555
C14 C13 1_555 1_555
H17 C14 1_555 1_555
H18 C14 1_555 1_555
C15 C14 1_555 1_555
C16 H19 1_555 1_555
C17 C16 1_555 1_555
H20 C17 1_555 1_555
C18 C17 1_555 1_555
H21 C18 1_555 1_555
C19 C18 1_555 1_555
C20 C19 1_555 1_555
H22 C20 1_555 1_555
C21 C20 1_555 1_555
H23 C21 1_555 1_555
C22 C21 1_555 1_555
C23 C22 1_555 1_555
H24 C23 1_555 1_555
C24 C23 1_555 1_555
H25 C24 1_555 1_555
C25 N2 1_555 1_555
H26 C25 1_555 1_555
C26 N2 1_555 1_555
C27 N1 1_555 1_555
C28 N4 1_555 1_555
H27 C28 1_555 1_555
C29 C28 1_555 1_555
H28 C29 1_555 1_555
C30 C29 1_555 1_555
H29 C30 1_555 1_555
C31 C30 1_555 1_555
C32 C31 1_555 1_555
H30 C32 1_555 1_555
C33 C32 1_555 1_555
H31 C33 1_555 1_555
C34 C33 1_555 1_555
C35 C34 1_555 1_555
H32 C35 1_555 1_555
C36 C35 1_555 1_555
H33 C36 1_555 1_555
C37 C36 1_555 1_555
H34 C37 1_555 1_555
C38 N3 1_555 1_555
C39 N4 1_555 1_555
Eu1A O2 1_555 1_555
Eu1_2 O3 1_555 1_555
Eu1A_2 O4 1_555 1_555
Eu2A O7 1_555 1_555
Eu2_2 O11 1_555 1_555
O2A Eu1 1_555 1_555
O3_2 Eu1 1_555 1_555
O4A Eu1 1_555 1_555
O4_2 Eu1 1_555 1_555
O7A Eu2 1_555 1_555
O10A Eu2 1_555 1_555
O11_2 Eu2 1_555 1_555
O12_2 Eu2 1_555 1_555
O4 Eu1_2 1_555 1_555
O6 C6 1_555 1_555
O8 C10 1_555 1_555
O10 Eu2A 1_555 1_555
O12 Eu2_2 1_555 1_555
C9 C10 1_555 1_555
C19 C27 1_555 1_555
C22 C26 1_555 1_555
C24 C25 1_555 1_555
C26 C27 1_555 1_555
C31 C39 1_555 1_555
C34 C38 1_555 1_555
C38 C39 1_555 1_555
Eu1A O4A 1_555 1_555
Eu1A O4_2 1_555 1_555
Eu2A O7A 1_555 1_555

#END
