
#######################################################################
#
#                 Cambridge Crystallographic Data Centre
#                                CCDC 
#
#######################################################################
#
# If this CIF has been generated from an entry in the Cambridge 
# Structural Database, then it will include bibliographic, chemical, 
# crystal, experimental, refinement or atomic coordinate data resulting 
# from the CCDC's data processing and validation procedures.
#
#######################################################################

data_ILAYIE
_symmetry_cell_setting           monoclinic
_symmetry_space_group_name_H-M   'P 21/c'
_symmetry_Int_Tables_number      14
_space_group_name_Hall           '-P 2ybc'
loop_
_symmetry_equiv_pos_site_id
_symmetry_equiv_pos_as_xyz
1 x,y,z
2 -x,1/2+y,1/2-z
3 -x,-y,-z
4 x,1/2-y,1/2+z
_cell_length_a                   5.1092(10)
_cell_length_b                   17.386(4)
_cell_length_c                   19.964(4)
_cell_angle_alpha                90
_cell_angle_beta                 95.18(3)
_cell_angle_gamma                90
_cell_volume                     1766.13
loop_
_atom_site_label
_atom_site_type_symbol
_atom_site_fract_x
_atom_site_fract_y
_atom_site_fract_z
Y1 Y -0.32313(16) 0.47556(4) 0.24759(4)
O1 O -0.6467(12) 0.4720(4) 0.3134(3)
O2 O -1.0407(11) 0.4388(3) 0.3420(3)
O3 O -0.6070(11) 0.4299(4) 0.1558(3)
O4 O -1.0117(11) 0.4605(3) 0.1808(3)
O5 O -0.3397(14) 0.3429(4) 0.2586(4)
H1 H -0.2202 0.3104 0.2703
H2 H -0.4633 0.3192 0.2359
O6 O -0.1688(14) 0.5850(3) 0.3034(3)
H3 H -0.0192 0.5821 0.3257
H4 H -0.2042 0.6328 0.3013
O7 O -0.4698(8) 0.5827(3) 0.18478(7)
H5 H -0.4492(17) 0.5866(17) 0.14314(14)
N1 N -0.8326(14) 0.3906(4) 0.4671(3)
N2 N -0.8179(16) 0.4310(5) 0.5256(4)
N3 N -0.9952(17) 0.4008(5) 0.5610(4)
N4 N -1.1171(15) 0.3408(4) 0.5285(3)
N5 N -0.7879(15) 0.3722(5) 0.0332(3)
N6 N -0.7761(19) 0.4161(5) -0.0234(4)
N7 N -0.597(2) 0.3855(6) -0.0555(4)
N8 N -0.4893(16) 0.3233(5) -0.0243(4)
N9 N -0.5592(17) 0.2616(5) 0.0778(4)
H6 H -0.4427 0.2268 0.0730
H7 H -0.6461 0.2614 0.1127
C1 C -0.8025(18) 0.4431(5) 0.3528(4)
C2 C -0.6602(17) 0.4092(6) 0.4165(4)
H8 H -0.5684 0.3630 0.4048
H9 H -0.5298 0.4458 0.4350
C3 C -1.0150(18) 0.3352(5) 0.4695(4)
C4 C -0.8539(15) 0.4303(5) 0.1443(4)
C5 C -0.9715(19) 0.3912(6) 0.0823(4)
H10 H -1.0554 0.3441 0.0953
H11 H -1.1075 0.4241 0.0608
C6 C -0.6049(17) 0.3156(5) 0.0311(4)
C7 C -0.681(2) 0.6312(6) 0.1964(6)
H12 H -0.6373 0.6833 0.1864
H13 H -0.7170 0.6274 0.2426
H14 H -0.8342 0.6158 0.1680
N10 N -1.0762(18) 0.2824(5) 0.4224(4)
H15 H -1.1915 0.2477 0.4287
H16 H -1.0004 0.2829 0.3856
Y1_2 Y -1.32313(16) 0.47556(4) 0.24759(4)
O2_2 O -0.0407(11) 0.4388(3) 0.3420(3)
O4_2 O -0.0117(11) 0.4605(3) 0.1808(3)
Cl1 Cl -0.1473(6) 0.75588(16) 0.2696(2)
loop_
_geom_bond_atom_site_label_1
_geom_bond_atom_site_label_2
_geom_bond_site_symmetry_1
_geom_bond_site_symmetry_2
Y1 O1 1_555 1_555
O1 C1 1_555 1_555
O2 C1 1_555 1_555
O3 Y1 1_555 1_555
O4 C4 1_555 1_555
O5 Y1 1_555 1_555
H1 O5 1_555 1_555
H2 O5 1_555 1_555
O6 Y1 1_555 1_555
H3 O6 1_555 1_555
H4 O6 1_555 1_555
O7 Y1 1_555 1_555
H5 O7 1_555 1_555
N1 N2 1_555 1_555
N2 N3 1_555 1_555
N3 N4 1_555 1_555
N4 C3 1_555 1_555
N5 N6 1_555 1_555
N6 N7 1_555 1_555
N7 N8 1_555 1_555
N8 C6 1_555 1_555
N9 H6 1_555 1_555
H7 N9 1_555 1_555
C1 C2 1_555 1_555
C2 N1 1_555 1_555
H8 C2 1_555 1_555
H9 C2 1_555 1_555
C3 N1 1_555 1_555
C4 O3 1_555 1_555
C5 N5 1_555 1_555
H10 C5 1_555 1_555
H11 C5 1_555 1_555
C6 N5 1_555 1_555
C7 O7 1_555 1_555
H12 C7 1_555 1_555
H13 C7 1_555 1_555
H14 C7 1_555 1_555
N10 C3 1_555 1_555
H15 N10 1_555 1_555
H16 N10 1_555 1_555
Y1_2 O2 1_555 1_555
O2_2 Y1 1_555 1_555
O4_2 Y1 1_555 1_555
O4 Y1_2 1_555 1_555
N9 C6 1_555 1_555
C4 C5 1_555 1_555

#END
