
#######################################################################
#
#                 Cambridge Crystallographic Data Centre
#                                CCDC 
#
#######################################################################
#
# If this CIF has been generated from an entry in the Cambridge 
# Structural Database, then it will include bibliographic, chemical, 
# crystal, experimental, refinement or atomic coordinate data resulting 
# from the CCDC's data processing and validation procedures.
#
#######################################################################

data_ILAYAW
_symmetry_cell_setting           triclinic
_symmetry_space_group_name_H-M   'P -1'
_symmetry_Int_Tables_number      2
_space_group_name_Hall           '-P 1'
loop_
_symmetry_equiv_pos_site_id
_symmetry_equiv_pos_as_xyz
1 x,y,z
2 -x,-y,-z
_cell_length_a                   8.8787(18)
_cell_length_b                   13.595(3)
_cell_length_c                   16.461(3)
_cell_angle_alpha                84.16(3)
_cell_angle_beta                 83.97(3)
_cell_angle_gamma                75.03(3)
_cell_volume                     1903.12
loop_
_atom_site_label
_atom_site_type_symbol
_atom_site_fract_x
_atom_site_fract_y
_atom_site_fract_z
Pr1 Pr 0.41087(4) 0.63796(2) 0.046137(17)
Pr2 Pr 0.63918(4) 0.85859(2) 0.524766(17)
N1 N 0.3430(6) 0.7968(4) -0.0724(3)
N2 N 0.1123(6) 0.7420(4) 0.0300(3)
N3 N 0.8081(6) 0.7055(4) 0.4386(3)
N4 N 0.6345(7) 0.6691(4) 0.5797(3)
O1 O 0.2550(5) 0.5171(3) 0.0972(2)
O2 O 0.3460(5) 0.3699(3) 0.0382(2)
O3 O -0.3780(6) 0.5725(3) 0.1466(2)
O4 O -0.3946(5) 0.4520(3) 0.0714(2)
O5 O 0.4394(6) 0.7938(3) 0.1047(2)
O6 O 0.2977(6) 0.7044(3) 0.1815(2)
O7 O 0.3984(5) 0.9637(3) 0.4483(2)
O8 O 0.4631(6) 0.7984(3) 0.4369(3)
O9 O 0.4025(5) 0.8912(3) 0.6156(2)
O10 O 0.2637(5) 1.0546(3) 0.5975(2)
O11 O -0.0887(5) 0.8208(3) 0.5696(2)
O12 O -0.2759(5) 0.8350(4) 0.6696(3)
C1 C 0.2524(6) 0.4276(4) 0.0860(3)
C2 C 0.1195(7) 0.3874(5) 0.1321(4)
H1 H 0.1248 0.3889 0.1905
H2 H 0.1332 0.3169 0.1207
C3 C -0.0394(8) 0.4485(6) 0.1090(4)
H3 H -0.0494 0.5195 0.1179
H4 H -0.0441 0.4449 0.0508
C4 C -0.1787(7) 0.4166(5) 0.1541(3)
H5 H -0.1784 0.4215 0.2125
H6 H -0.1726 0.3462 0.1452
C5 C -0.3259(7) 0.4843(5) 0.1237(3)
C6 C 0.3677(7) 0.7734(5) 0.1728(4)
C7 C 0.3661(8) 0.8362(5) 0.2430(4)
H7 H 0.3464 0.9076 0.2229
H8 H 0.4685 0.8166 0.2641
C8 C 0.2434(7) 0.8242(4) 0.3129(3)
H9 H 0.1426 0.8353 0.2910
H10 H 0.2708 0.7550 0.3383
C9 C 0.2307(7) 0.8991(5) 0.3776(4)
H11 H 0.2075 0.9678 0.3512
H12 H 0.1431 0.8940 0.4169
C10 C 0.3752(8) 0.8830(4) 0.4234(3)
C11 C 0.2772(7) 0.9593(4) 0.6188(3)
C12 C 0.1278(7) 0.9303(4) 0.6465(3)
H13 H 0.0617 0.9465 0.6011
H14 H 0.0746 0.9725 0.6901
C13 C 0.1419(7) 0.8186(4) 0.6771(4)
H15 H 0.1882 0.7753 0.6330
H16 H 0.2105 0.8002 0.7214
C14 C -0.0154(7) 0.8006(5) 0.7070(4)
H17 H -0.0001 0.7303 0.7294
H18 H -0.0591 0.8437 0.7516
C15 C -0.1336(7) 0.8205(4) 0.6445(4)
C16 C 0.4542(9) 0.8253(5) -0.1216(4)
H19 H 0.5564 0.7856 -0.1196
C17 C 0.4255(10) 0.9125(6) -0.1769(4)
H20 H 0.5067 0.9285 -0.2117
C18 C 0.2791(10) 0.9726(5) -0.1789(4)
H21 H 0.2598 1.0322 -0.2134
C19 C 0.1570(9) 0.9459(5) -0.1296(4)
C20 C -0.0017(10) 1.0029(6) -0.1300(4)
H22 H -0.0257 1.0629 -0.1638
C21 C -0.1182(10) 0.9735(6) -0.0836(4)
H23 H -0.2207 1.0120 -0.0872
C22 C -0.0858(9) 0.8825(5) -0.0279(4)
C23 C -0.1996(9) 0.8488(6) 0.0240(5)
H24 H -0.3041 0.8839 0.0218
C24 C -0.1606(9) 0.7666(6) 0.0772(5)
H25 H -0.2369 0.7431 0.1110
C25 C -0.0023(8) 0.7172(5) 0.0805(4)
H26 H 0.0250 0.6636 0.1204
C26 C 0.1947(8) 0.8549(4) -0.0770(3)
C27 C 0.0723(8) 0.8257(5) -0.0237(4)
C28 C 0.9044(8) 0.7194(5) 0.3736(4)
H27 H 0.9149 0.7854 0.3590
C29 C 0.9911(10) 0.6422(6) 0.3256(4)
H28 H 1.0591 0.6559 0.2815
C30 C 0.9725(10) 0.5448(6) 0.3457(5)
H29 H 1.0260 0.4916 0.3141
C31 C 0.8734(9) 0.5267(5) 0.4134(5)
C32 C 0.8499(12) 0.4247(6) 0.4393(6)
H30 H 0.9028 0.3696 0.4096
C33 C 0.7550(11) 0.4104(5) 0.5039(6)
H31 H 0.7385 0.3456 0.5172
C34 C 0.6769(10) 0.4907(5) 0.5540(5)
C35 C 0.5886(12) 0.4756(7) 0.6270(6)
H32 H 0.5710 0.4116 0.6430
C36 C 0.5288(13) 0.5538(7) 0.6742(6)
H33 H 0.4701 0.5442 0.7232
C37 C 0.5556(10) 0.6507(5) 0.6489(5)
H34 H 0.5156 0.7037 0.6828
C38 C 0.7950(8) 0.6079(5) 0.4598(4)
C39 C 0.6989(8) 0.5901(5) 0.5328(4)
Pr1A Pr 0.58913(4) 0.36204(2) -0.046137(17)
Pr1_2 Pr -0.58913(4) 0.63796(2) 0.046137(17)
Pr1A_2 Pr -0.41087(4) 0.36204(2) -0.046137(17)
Pr2A Pr 0.36082(4) 1.14141(2) 0.475234(17)
Pr2_2 Pr -0.36082(4) 0.85859(2) 0.524766(17)
O2A O 0.6540(5) 0.6301(3) -0.0382(2)
O3_2 O 0.6220(6) 0.5725(3) 0.1466(2)
O4A O 0.3946(5) 0.5480(3) -0.0714(2)
O4_2 O 0.6054(5) 0.4520(3) 0.0714(2)
O7A O 0.6016(5) 1.0363(3) 0.5517(2)
O10A O 0.7363(5) 0.9454(3) 0.4025(2)
O11_2 O 0.9113(5) 0.8208(3) 0.5696(2)
O12_2 O 0.7241(5) 0.8350(4) 0.6696(3)
loop_
_geom_bond_atom_site_label_1
_geom_bond_atom_site_label_2
_geom_bond_site_symmetry_1
_geom_bond_site_symmetry_2
Pr1 N1 1_555 1_555
Pr2 N3 1_555 1_555
N1 C16 1_555 1_555
N2 Pr1 1_555 1_555
N3 C28 1_555 1_555
N4 Pr2 1_555 1_555
O1 Pr1 1_555 1_555
O2 C1 1_555 1_555
O3 C5 1_555 1_555
O4 C5 1_555 1_555
O5 Pr1 1_555 1_555
O6 Pr1 1_555 1_555
O7 Pr2 1_555 1_555
O8 Pr2 1_555 1_555
O9 Pr2 1_555 1_555
O10 C11 1_555 1_555
O11 C15 1_555 1_555
O12 C15 1_555 1_555
C1 O1 1_555 1_555
C2 C1 1_555 1_555
H1 C2 1_555 1_555
H2 C2 1_555 1_555
C3 C2 1_555 1_555
H3 C3 1_555 1_555
H4 C3 1_555 1_555
C4 C3 1_555 1_555
H5 C4 1_555 1_555
H6 C4 1_555 1_555
C5 C4 1_555 1_555
C6 O5 1_555 1_555
C7 C6 1_555 1_555
H7 C7 1_555 1_555
H8 C7 1_555 1_555
C8 C7 1_555 1_555
H9 C8 1_555 1_555
H10 C8 1_555 1_555
C9 C8 1_555 1_555
H11 C9 1_555 1_555
H12 C9 1_555 1_555
C10 O7 1_555 1_555
C11 O9 1_555 1_555
C12 C11 1_555 1_555
H13 C12 1_555 1_555
H14 C12 1_555 1_555
C13 C12 1_555 1_555
H15 C13 1_555 1_555
H16 C13 1_555 1_555
C14 C13 1_555 1_555
H17 C14 1_555 1_555
H18 C14 1_555 1_555
C15 C14 1_555 1_555
C16 H19 1_555 1_555
C17 C16 1_555 1_555
H20 C17 1_555 1_555
C18 C17 1_555 1_555
H21 C18 1_555 1_555
C19 C18 1_555 1_555
C20 C19 1_555 1_555
H22 C20 1_555 1_555
C21 C20 1_555 1_555
H23 C21 1_555 1_555
C22 C21 1_555 1_555
C23 C22 1_555 1_555
H24 C23 1_555 1_555
C24 C23 1_555 1_555
H25 C24 1_555 1_555
C25 N2 1_555 1_555
H26 C25 1_555 1_555
C26 N1 1_555 1_555
C27 N2 1_555 1_555
C28 H27 1_555 1_555
C29 C28 1_555 1_555
H28 C29 1_555 1_555
C30 C29 1_555 1_555
H29 C30 1_555 1_555
C31 C30 1_555 1_555
C32 C31 1_555 1_555
H30 C32 1_555 1_555
C33 C32 1_555 1_555
H31 C33 1_555 1_555
C34 C33 1_555 1_555
C35 C34 1_555 1_555
H32 C35 1_555 1_555
C36 C35 1_555 1_555
H33 C36 1_555 1_555
C37 N4 1_555 1_555
H34 C37 1_555 1_555
C38 N3 1_555 1_555
C39 N4 1_555 1_555
Pr1A O2 1_555 1_555
Pr1_2 O3 1_555 1_555
Pr1A_2 O4 1_555 1_555
Pr2A O7 1_555 1_555
Pr2_2 O11 1_555 1_555
O2A Pr1 1_555 1_555
O3_2 Pr1 1_555 1_555
O4A Pr1 1_555 1_555
O4_2 Pr1 1_555 1_555
O7A Pr2 1_555 1_555
O10A Pr2 1_555 1_555
O11_2 Pr2 1_555 1_555
O12_2 Pr2 1_555 1_555
O4 Pr1_2 1_555 1_555
O6 C6 1_555 1_555
O8 C10 1_555 1_555
O10 Pr2A 1_555 1_555
O12 Pr2_2 1_555 1_555
C9 C10 1_555 1_555
C19 C26 1_555 1_555
C22 C27 1_555 1_555
C24 C25 1_555 1_555
C26 C27 1_555 1_555
C31 C38 1_555 1_555
C34 C39 1_555 1_555
C36 C37 1_555 1_555
C38 C39 1_555 1_555
Pr1A O4A 1_555 1_555
Pr1A O4_2 1_555 1_555
Pr2A O7A 1_555 1_555

#END
