
#######################################################################
#
#                 Cambridge Crystallographic Data Centre
#                                CCDC 
#
#######################################################################
#
# If this CIF has been generated from an entry in the Cambridge 
# Structural Database, then it will include bibliographic, chemical, 
# crystal, experimental, refinement or atomic coordinate data resulting 
# from the CCDC's data processing and validation procedures.
#
#######################################################################

data_ILAYEA
_symmetry_cell_setting           triclinic
_symmetry_space_group_name_H-M   'P -1'
_symmetry_Int_Tables_number      2
_space_group_name_Hall           '-P 1'
loop_
_symmetry_equiv_pos_site_id
_symmetry_equiv_pos_as_xyz
1 x,y,z
2 -x,-y,-z
_cell_length_a                   8.7288(17)
_cell_length_b                   13.379(3)
_cell_length_c                   16.385(3)
_cell_angle_alpha                83.62(3)
_cell_angle_beta                 84.31(3)
_cell_angle_gamma                75.12(3)
_cell_volume                     1832.89
loop_
_atom_site_label
_atom_site_type_symbol
_atom_site_fract_x
_atom_site_fract_y
_atom_site_fract_z
Yb1 Yb 0.41508(3) 0.64073(2) 0.045704(16)
Yb2 Yb 0.63432(3) 0.86131(2) 0.524609(16)
N1 N 0.3515(7) 0.7975(5) -0.0655(4)
N2 N 0.1264(7) 0.7371(5) 0.0416(4)
N3 N 0.8050(7) 0.7160(4) 0.4416(4)
N4 N 0.6304(7) 0.6811(5) 0.5829(4)
O1 O 0.2909(6) 0.5160(4) 0.1026(3)
O2 O 0.3563(5) 0.3716(4) 0.0374(3)
O3 O -0.3841(6) 0.5589(4) 0.1331(3)
O4 O -0.3572(7) 0.4266(5) 0.0621(3)
O5 O 0.4614(7) 0.7835(4) 0.1001(3)
O6 O 0.3202(6) 0.6943(4) 0.1802(3)
O7 O 0.4058(6) 0.9707(4) 0.4452(3)
O8 O 0.4750(6) 0.8029(4) 0.4368(3)
O9 O 0.4011(5) 0.8876(4) 0.6042(3)
O10 O 0.2645(6) 1.0551(3) 0.5879(3)
O11 O -0.1046(6) 0.8257(4) 0.5650(3)
O12 O -0.2900(6) 0.8405(4) 0.6663(3)
C1 C 0.2737(7) 0.4301(5) 0.0891(4)
C2 C 0.1407(8) 0.3911(6) 0.1392(4)
H1 H 0.1338 0.4098 0.1952
H2 H 0.1658 0.3160 0.1410
C3 C -0.0187(8) 0.4362(7) 0.1031(5)
H3 H -0.0148 0.4087 0.0505
H4 H -0.0334 0.5107 0.0926
C4 C -0.1617(8) 0.4161(7) 0.1546(4)
H5 H -0.1540 0.3421 0.1615
H6 H -0.1649 0.4399 0.2086
C5 C -0.3119(7) 0.4715(6) 0.1143(4)
C6 C 0.3897(8) 0.7655(5) 0.1690(4)
C7 C 0.3891(10) 0.8310(6) 0.2384(5)
H7 H 0.3710 0.9032 0.2165
H8 H 0.4930 0.8108 0.2603
C8 C 0.2646(8) 0.8217(6) 0.3078(4)
H9 H 0.2936 0.7528 0.3364
H10 H 0.1635 0.8295 0.2848
C9 C 0.2452(8) 0.9021(6) 0.3693(5)
H11 H 0.2242 0.9705 0.3396
H12 H 0.1528 0.8991 0.4068
C10 C 0.3844(7) 0.8895(5) 0.4188(4)
C11 C 0.2748(8) 0.9587(5) 0.6098(4)
C12 C 0.1235(8) 0.9312(5) 0.6414(4)
H13 H 0.0512 0.9495 0.5978
H14 H 0.0758 0.9734 0.6861
C13 C 0.1383(8) 0.8173(6) 0.6722(5)
H15 H 0.1832 0.7740 0.6277
H16 H 0.2096 0.7977 0.7163
C14 C -0.0218(8) 0.7996(6) 0.7031(5)
H17 H -0.0627 0.8414 0.7488
H18 H -0.0069 0.7274 0.7243
C15 C -0.1459(8) 0.8238(5) 0.6413(4)
C16 C 0.4607(10) 0.8291(6) -0.1170(5)
H19 H 0.5660 0.7918 -0.1141
C17 C 0.4273(12) 0.9145(7) -0.1751(6)
H20 H 0.5080 0.9327 -0.2103
C18 C 0.2722(12) 0.9713(7) -0.1793(5)
H21 H 0.2469 1.0297 -0.2166
C19 C 0.1539(10) 0.9407(6) -0.1272(5)
C20 C -0.0133(12) 0.9936(7) -0.1277(6)
H22 H -0.0438 1.0523 -0.1642
C21 C -0.1230(11) 0.9622(8) -0.0791(6)
H23 H -0.2287 0.9988 -0.0822
C22 C -0.0837(9) 0.8722(7) -0.0207(5)
C23 C -0.1943(10) 0.8346(8) 0.0340(6)
H24 H -0.3023 0.8649 0.0310
C24 C -0.1457(9) 0.7555(7) 0.0905(6)
H25 H -0.2189 0.7311 0.1272
C25 C 0.0163(9) 0.7100(7) 0.0933(5)
H26 H 0.0486 0.6571 0.1345
C26 C 0.0790(8) 0.8205(6) -0.0158(5)
C27 C 0.2003(9) 0.8539(6) -0.0710(4)
C28 C 0.9015(9) 0.7283(6) 0.3771(5)
H27 H 0.9124 0.7952 0.3615
C29 C 0.9890(10) 0.6504(7) 0.3296(5)
H28 H 1.0589 0.6644 0.2858
C30 C 0.9690(11) 0.5529(7) 0.3494(6)
H29 H 1.0240 0.4992 0.3181
C31 C 0.8643(10) 0.5329(6) 0.4176(5)
C32 C 0.8399(13) 0.4317(7) 0.4435(7)
H30 H 0.8922 0.3756 0.4141
C33 C 0.7422(12) 0.4176(7) 0.5097(8)
H31 H 0.7215 0.3527 0.5230
C34 C 0.6690(10) 0.4992(6) 0.5606(6)
C35 C 0.5848(12) 0.4838(8) 0.6364(8)
H32 H 0.5657 0.4194 0.6544
C36 C 0.5311(12) 0.5669(8) 0.6836(7)
H33 H 0.4805 0.5578 0.7355
C37 C 0.5517(10) 0.6616(6) 0.6544(5)
H34 H 0.5082 0.7167 0.6864
C38 C 0.6927(8) 0.6004(5) 0.5368(5)
C39 C 0.7865(8) 0.6173(5) 0.4624(5)
Yb1A Yb 0.58492(3) 0.35927(2) -0.045704(16)
Yb1_2 Yb -0.58492(3) 0.64073(2) 0.045704(16)
Yb1A_2 Yb -0.41508(3) 0.35927(2) -0.045704(16)
Yb2A Yb 0.36568(3) 1.13869(2) 0.475391(16)
Yb2_2 Yb -0.36568(3) 0.86131(2) 0.524609(16)
O2A O 0.6437(5) 0.6284(4) -0.0374(3)
O3_2 O 0.6159(6) 0.5589(4) 0.1331(3)
O4A O 0.3572(7) 0.5734(5) -0.0621(3)
O7A O 0.5942(6) 1.0293(4) 0.5548(3)
O10A O 0.7355(6) 0.9449(3) 0.4121(3)
O11_2 O 0.8954(6) 0.8257(4) 0.5650(3)
O12_2 O 0.7100(6) 0.8405(4) 0.6663(3)
loop_
_geom_bond_atom_site_label_1
_geom_bond_atom_site_label_2
_geom_bond_site_symmetry_1
_geom_bond_site_symmetry_2
Yb1 N1 1_555 1_555
Yb2 N3 1_555 1_555
N1 C16 1_555 1_555
N2 Yb1 1_555 1_555
N3 C28 1_555 1_555
N4 Yb2 1_555 1_555
O1 Yb1 1_555 1_555
O2 C1 1_555 1_555
O3 C5 1_555 1_555
O4 C5 1_555 1_555
O5 Yb1 1_555 1_555
O6 Yb1 1_555 1_555
O7 Yb2 1_555 1_555
O8 Yb2 1_555 1_555
O9 Yb2 1_555 1_555
O10 C11 1_555 1_555
O11 C15 1_555 1_555
O12 C15 1_555 1_555
C1 O1 1_555 1_555
C2 C1 1_555 1_555
H1 C2 1_555 1_555
H2 C2 1_555 1_555
C3 C2 1_555 1_555
H3 C3 1_555 1_555
H4 C3 1_555 1_555
C4 C3 1_555 1_555
H5 C4 1_555 1_555
H6 C4 1_555 1_555
C5 C4 1_555 1_555
C6 O5 1_555 1_555
C7 C6 1_555 1_555
H7 C7 1_555 1_555
H8 C7 1_555 1_555
C8 C7 1_555 1_555
H9 C8 1_555 1_555
H10 C8 1_555 1_555
C9 C8 1_555 1_555
H11 C9 1_555 1_555
H12 C9 1_555 1_555
C10 O7 1_555 1_555
C11 O9 1_555 1_555
C12 C11 1_555 1_555
H13 C12 1_555 1_555
H14 C12 1_555 1_555
C13 C12 1_555 1_555
H15 C13 1_555 1_555
H16 C13 1_555 1_555
C14 C13 1_555 1_555
H17 C14 1_555 1_555
H18 C14 1_555 1_555
C15 C14 1_555 1_555
C16 H19 1_555 1_555
C17 C16 1_555 1_555
H20 C17 1_555 1_555
C18 C17 1_555 1_555
H21 C18 1_555 1_555
C19 C18 1_555 1_555
C20 C19 1_555 1_555
H22 C20 1_555 1_555
C21 C20 1_555 1_555
H23 C21 1_555 1_555
C22 C21 1_555 1_555
C23 C22 1_555 1_555
H24 C23 1_555 1_555
C24 C23 1_555 1_555
H25 C24 1_555 1_555
C25 N2 1_555 1_555
H26 C25 1_555 1_555
C26 N2 1_555 1_555
C27 N1 1_555 1_555
C28 H27 1_555 1_555
C29 C28 1_555 1_555
H28 C29 1_555 1_555
C30 C29 1_555 1_555
H29 C30 1_555 1_555
C31 C30 1_555 1_555
C32 C31 1_555 1_555
H30 C32 1_555 1_555
C33 C32 1_555 1_555
H31 C33 1_555 1_555
C34 C33 1_555 1_555
C35 C34 1_555 1_555
H32 C35 1_555 1_555
C36 C35 1_555 1_555
H33 C36 1_555 1_555
C37 N4 1_555 1_555
H34 C37 1_555 1_555
C38 N4 1_555 1_555
C39 N3 1_555 1_555
Yb1A O2 1_555 1_555
Yb1_2 O3 1_555 1_555
Yb1A_2 O4 1_555 1_555
Yb2A O7 1_555 1_555
Yb2_2 O11 1_555 1_555
O2A Yb1 1_555 1_555
O3_2 Yb1 1_555 1_555
O4A Yb1 1_555 1_555
O7A Yb2 1_555 1_555
O10A Yb2 1_555 1_555
O11_2 Yb2 1_555 1_555
O12_2 Yb2 1_555 1_555
O6 C6 1_555 1_555
O8 C10 1_555 1_555
O10 Yb2A 1_555 1_555
O12 Yb2_2 1_555 1_555
C9 C10 1_555 1_555
C19 C27 1_555 1_555
C22 C26 1_555 1_555
C24 C25 1_555 1_555
C26 C27 1_555 1_555
C31 C39 1_555 1_555
C34 C38 1_555 1_555
C36 C37 1_555 1_555
C38 C39 1_555 1_555
Yb2A O7A 1_555 1_555

#END
