
#######################################################################
#
#                 Cambridge Crystallographic Data Centre
#                                CCDC 
#
#######################################################################
#
# If this CIF has been generated from an entry in the Cambridge 
# Structural Database, then it will include bibliographic, chemical, 
# crystal, experimental, refinement or atomic coordinate data resulting 
# from the CCDC's data processing and validation procedures.
#
#######################################################################

data_ILAZOL
_symmetry_cell_setting           monoclinic
_symmetry_space_group_name_H-M   'P 21/n'
_symmetry_Int_Tables_number      14
_space_group_name_Hall           '-P 2yn'
loop_
_symmetry_equiv_pos_site_id
_symmetry_equiv_pos_as_xyz
1 x,y,z
2 1/2-x,1/2+y,1/2-z
3 -x,-y,-z
4 1/2+x,1/2-y,1/2+z
_cell_length_a                   10.7838(19)
_cell_length_b                   14.040(2)
_cell_length_c                   13.344(2)
_cell_angle_alpha                90
_cell_angle_beta                 113.389(2)
_cell_angle_gamma                90
_cell_volume                     1854.33
loop_
_atom_site_label
_atom_site_type_symbol
_atom_site_fract_x
_atom_site_fract_y
_atom_site_fract_z
Cu1 Cu 0.70795(3) 0.26136(2) 0.54476(2)
S1 S 1.00327(7) 0.22048(5) 0.76616(5)
O1 O 0.55544(18) 0.26750(12) 0.61045(14)
O2 O 0.8620(2) 0.25241(14) 0.72239(19)
O3 O 1.0668(3) 0.25316(15) 0.87888(17)
O4 O 1.0089(2) 0.11609(14) 0.76094(19)
O5 O 1.0728(2) 0.26064(14) 0.70128(16)
O6 O 0.8670(2) 0.26209(15) 0.50082(18)
H1 H 0.9385 0.2545 0.5587
H2 H 0.8662 0.2312 0.4449
N1 N 0.6800(2) 0.12363(14) 0.56581(16)
N2 N 0.6882(2) 0.39852(14) 0.56273(16)
N3 N 0.6169(2) 0.51853(15) 0.63313(16)
H3 H 0.5742 0.5509 0.6676
C1 C 0.7377(3) 0.05172(18) 0.5378(2)
H4 H 0.7911 0.0643 0.4992
C2 C 0.7221(3) -0.04255(19) 0.5636(2)
H5 H 0.7642 -0.0914 0.5418
C3 C 0.6456(3) -0.06293(19) 0.6204(2)
H6 H 0.6347 -0.1257 0.6375
C4 C 0.5825(2) 0.01145(18) 0.6533(2)
C5 C 0.5025(3) -0.0020(2) 0.7135(2)
H7 H 0.4900 -0.0630 0.7350
C6 C 0.4435(3) 0.0736(2) 0.7404(2)
H8 H 0.3913 0.0636 0.7807
C7 C 0.4595(3) 0.1667(2) 0.7087(2)
H9 H 0.4176 0.2178 0.7270
C8 C 0.5365(2) 0.18095(17) 0.65142(19)
C9 C 0.6016(2) 0.10455(17) 0.62259(19)
C10 C 0.5532(3) 0.35354(17) 0.6668(2)
H10 H 0.6033 0.3464 0.7449
H11 H 0.4612 0.3723 0.6529
C11 C 0.6193(2) 0.42445(17) 0.62048(19)
C12 C 0.7347(2) 0.48229(17) 0.53462(19)
C13 C 0.8110(3) 0.4980(2) 0.4739(2)
H12 H 0.8398 0.4477 0.4430
C14 C 0.8426(3) 0.5906(2) 0.4609(2)
H13 H 0.8933 0.6034 0.4201
C15 C 0.8002(3) 0.6660(2) 0.5078(2)
H14 H 0.8245 0.7277 0.4980
C16 C 0.7238(3) 0.65196(19) 0.5680(2)
H15 H 0.6956 0.7025 0.5988
C17 C 0.6911(2) 0.55851(18) 0.5801(2)
Cu1C Cu 1.20795(3) 0.23864(2) 1.04476(2)
O3C O 0.5668(3) 0.24684(15) 0.37888(17)
O7 O 0.3329(3) 0.3345(2) 0.8186(2)
H16 H 0.247(4) 0.319(3) 0.778(3)
H17 H 0.343(4) 0.390(3) 0.824(3)
O8 O 0.0987(3) 0.0283(3) 0.6182(3)
H18 H 0.056(5) 0.057(3) 0.664(4)
H19 H 0.050(5) -0.007(4) 0.588(4)
loop_
_geom_bond_atom_site_label_1
_geom_bond_atom_site_label_2
_geom_bond_site_symmetry_1
_geom_bond_site_symmetry_2
Cu1 O1 1_555 1_555
S1 O2 1_555 1_555
O1 C8 1_555 1_555
O2 Cu1 1_555 1_555
O3 S1 1_555 1_555
O4 S1 1_555 1_555
O5 S1 1_555 1_555
O6 Cu1 1_555 1_555
H1 O6 1_555 1_555
H2 O6 1_555 1_555
N1 Cu1 1_555 1_555
N2 Cu1 1_555 1_555
N3 H3 1_555 1_555
C1 N1 1_555 1_555
H4 C1 1_555 1_555
C2 C1 1_555 1_555
H5 C2 1_555 1_555
C3 C2 1_555 1_555
H6 C3 1_555 1_555
C4 C3 1_555 1_555
C5 C4 1_555 1_555
H7 C5 1_555 1_555
C6 C5 1_555 1_555
H8 C6 1_555 1_555
C7 C6 1_555 1_555
H9 C7 1_555 1_555
C8 C7 1_555 1_555
C9 N1 1_555 1_555
C10 O1 1_555 1_555
H10 C10 1_555 1_555
H11 C10 1_555 1_555
C11 N2 1_555 1_555
C12 N2 1_555 1_555
C13 C12 1_555 1_555
H12 C13 1_555 1_555
C14 C13 1_555 1_555
H13 C14 1_555 1_555
C15 C14 1_555 1_555
H14 C15 1_555 1_555
C16 C15 1_555 1_555
H15 C16 1_555 1_555
C17 N3 1_555 1_555
O7 H16 1_555 1_555
H17 O7 1_555 1_555
O8 H18 1_555 1_555
H19 O8 1_555 1_555
Cu1C O3 1_555 1_555
O3C Cu1 1_555 1_555
N3 C11 1_555 1_555
C4 C9 1_555 1_555
C8 C9 1_555 1_555
C10 C11 1_555 1_555
C12 C17 1_555 1_555
C16 C17 1_555 1_555

#END
