
#######################################################################
#
#                 Cambridge Crystallographic Data Centre
#                                CCDC 
#
#######################################################################
#
# If this CIF has been generated from an entry in the Cambridge 
# Structural Database, then it will include bibliographic, chemical, 
# crystal, experimental, refinement or atomic coordinate data resulting 
# from the CCDC's data processing and validation procedures.
#
#######################################################################

data_ILEBEH
_symmetry_cell_setting           triclinic
_symmetry_space_group_name_H-M   'P -1'
_symmetry_Int_Tables_number      2
_space_group_name_Hall           '-P 1'
loop_
_symmetry_equiv_pos_site_id
_symmetry_equiv_pos_as_xyz
1 x,y,z
2 -x,-y,-z
_cell_length_a                   11.7397(13)
_cell_length_b                   11.7658(13)
_cell_length_c                   15.2204(17)
_cell_angle_alpha                75.458(1)
_cell_angle_beta                 70.974(1)
_cell_angle_gamma                69.206(1)
_cell_volume                     1836.12
loop_
_atom_site_label
_atom_site_type_symbol
_atom_site_fract_x
_atom_site_fract_y
_atom_site_fract_z
Cd1 Cd 0.16792(2) 0.04183(2) 0.224290(18)
O1 O 0.1550(2) 0.2472(2) 0.16989(18)
O2 O 0.3214(2) 0.2166(2) 0.04442(19)
O3 O 0.2214(2) -0.1697(2) 0.26507(19)
O4 O 0.0805(3) -0.1600(3) 0.4020(2)
O5 O 0.2386(2) 0.0244(2) 0.06431(18)
O6 O 0.0862(3) 0.0687(3) 0.3812(2)
N1 N 0.3198(2) 0.6100(2) 0.1131(2)
N2 N 0.2152(3) -0.6091(3) 0.4102(2)
N3 N 0.3683(2) 0.0280(3) 0.2353(2)
N4 N 0.9640(2) 0.0575(2) 0.2242(2)
C1 C 0.2449(3) 0.2773(3) 0.1077(3)
C2 C 0.2659(3) 0.3962(3) 0.1118(2)
C3 C 0.3768(3) 0.3917(3) 0.1254(2)
H1 H 0.4373 0.3161 0.1336
C4 C 0.1741(3) 0.5125(3) 0.1005(2)
C5 C 0.0562(3) 0.5296(3) 0.0858(2)
H2 H 0.0331 0.4614 0.0865
C6 C -0.0244(3) 0.6447(3) 0.0705(3)
H3 H -0.1018 0.6545 0.0608
C7 C 0.0086(3) 0.7474(3) 0.0694(3)
H4 H -0.0467 0.8255 0.0584
C8 C 0.1209(3) 0.7349(3) 0.0843(3)
H5 H 0.1411 0.8046 0.0842
C9 C 0.2072(3) 0.6171(3) 0.0998(2)
C10 C 0.4010(3) 0.4999(3) 0.1274(2)
C11 C 0.5188(3) 0.4953(3) 0.1468(2)
C12 C 0.6270(3) 0.3944(3) 0.1312(3)
H6 H 0.6261 0.3290 0.1079
C13 C 0.7360(3) 0.3914(4) 0.1504(3)
H7 H 0.8078 0.3243 0.1393
C14 C 0.5227(3) 0.5924(3) 0.1828(3)
H8 H 0.4512 0.6599 0.1941
C15 C 0.6318(4) 0.5888(4) 0.2016(3)
H9 H 0.6335 0.6540 0.2248
C16 C 0.7382(4) 0.4884(4) 0.1861(3)
H10 H 0.8111 0.4856 0.1995
C17 C 0.1605(3) -0.2162(3) 0.3396(3)
C18 C 0.1839(3) -0.3544(3) 0.3584(3)
C19 C 0.2869(3) -0.4333(3) 0.3863(3)
H11 H 0.3494 -0.4034 0.3883
C20 C 0.0909(4) -0.4034(3) 0.3538(3)
C21 C -0.0198(4) -0.3305(4) 0.3249(3)
H12 H -0.0339 -0.2461 0.3066
C22 C -0.1060(4) -0.3827(5) 0.3237(3)
H13 H -0.1779 -0.3341 0.3040
C23 C -0.0863(5) -0.5094(5) 0.3520(3)
H14 H -0.1464 -0.5439 0.3522
C24 C 0.0187(5) -0.5825(4) 0.3792(3)
H15 H 0.0304 -0.6666 0.3970
C25 C 0.1112(4) -0.5320(4) 0.3807(3)
C26 C 0.3003(4) -0.5611(3) 0.4125(3)
C27 C 0.4109(4) -0.6450(3) 0.4474(3)
C28 C 0.4029(4) -0.7507(4) 0.5117(3)
H16 H 0.3279 -0.7713 0.5322
C29 C 0.5055(5) -0.8260(5) 0.5456(3)
H17 H 0.4986 -0.8968 0.5882
C30 C 0.5263(4) -0.6201(4) 0.4184(3)
H18 H 0.5354 -0.5506 0.3747
C31 C 0.6275(4) -0.6961(4) 0.4531(4)
H19 H 0.7036 -0.6777 0.4323
C32 C 0.6163(5) -0.7978(4) 0.5175(3)
H20 H 0.6837 -0.8478 0.5421
C33 C 0.3780(3) 0.1079(3) 0.2797(2)
H21 H 0.3043 0.1602 0.3119
C34 C 0.4930(3) 0.1163(3) 0.2800(2)
H22 H 0.4958 0.1713 0.3131
C35 C 0.4747(3) -0.0461(3) 0.1883(3)
H23 H 0.4690 -0.1026 0.1580
C36 C 0.5937(3) -0.0419(3) 0.1831(3)
H24 H 0.6659 -0.0936 0.1489
C37 C 0.6035(3) 0.0410(3) 0.2298(2)
C38 C 0.7286(3) 0.0480(3) 0.2272(2)
C39 C 0.7520(3) 0.0602(4) 0.3070(3)
H25 H 0.6892 0.0649 0.3633
C40 C 0.8699(3) 0.0651(4) 0.3023(3)
H26 H 0.8841 0.0743 0.3564
C41 C 0.8253(3) 0.0434(3) 0.1458(3)
H27 H 0.8128 0.0376 0.0900
C42 C 0.9406(3) 0.0475(3) 0.1472(3)
H28 H 1.0050 0.0430 0.0918
H29 H 0.302(2) -0.037(2) 0.051(2)
H30 H 0.266(3) 0.087(2) 0.0429(13)
H31 H 0.104(4) 0.098(4) 0.419(2)
H32 H 0.082(7) -0.003(3) 0.4079(14)
Cd1_2 Cd 1.16792(2) 0.04183(2) 0.224290(18)
N4_2 N -0.0360(2) 0.0575(2) 0.2242(2)
O7 O 0.4124(3) -0.1841(2) 0.0155(2)
H33 H 0.4921(18) -0.203(3) 0.004(3)
H34 H 0.394(4) -0.247(3) 0.051(3)
O8 O 0.1647(3) 0.1516(3) 0.4939(2)
H35 H 0.098(9) 0.172(10) 0.538(8)
H36 H 0.185(9) 0.217(6) 0.467(7)
loop_
_geom_bond_atom_site_label_1
_geom_bond_atom_site_label_2
_geom_bond_site_symmetry_1
_geom_bond_site_symmetry_2
Cd1 O1 1_555 1_555
O1 C1 1_555 1_555
O2 C1 1_555 1_555
O3 Cd1 1_555 1_555
O4 C17 1_555 1_555
O5 Cd1 1_555 1_555
O6 Cd1 1_555 1_555
O7 H33 1_555 1_555
O8 H35 1_555 1_555
N1 C9 1_555 1_555
N2 C25 1_555 1_555
N3 Cd1 1_555 1_555
N4 C40 1_555 1_555
C1 C2 1_555 1_555
C2 C3 1_555 1_555
C3 H1 1_555 1_555
C4 C2 1_555 1_555
C5 C4 1_555 1_555
H2 C5 1_555 1_555
C6 C5 1_555 1_555
H3 C6 1_555 1_555
C7 C6 1_555 1_555
H4 C7 1_555 1_555
C8 C7 1_555 1_555
H5 C8 1_555 1_555
C9 C4 1_555 1_555
C10 N1 1_555 1_555
C11 C10 1_555 1_555
C12 C11 1_555 1_555
H6 C12 1_555 1_555
C13 C12 1_555 1_555
H7 C13 1_555 1_555
C14 C11 1_555 1_555
H8 C14 1_555 1_555
C15 C14 1_555 1_555
H9 C15 1_555 1_555
C16 C13 1_555 1_555
H10 C16 1_555 1_555
C17 O3 1_555 1_555
C18 C17 1_555 1_555
C19 C18 1_555 1_555
H11 C19 1_555 1_555
C20 C18 1_555 1_555
C21 C20 1_555 1_555
H12 C21 1_555 1_555
C22 C21 1_555 1_555
H13 C22 1_555 1_555
C23 C22 1_555 1_555
H14 C23 1_555 1_555
C24 C23 1_555 1_555
H15 C24 1_555 1_555
C25 C20 1_555 1_555
C26 N2 1_555 1_555
C27 C26 1_555 1_555
C28 C27 1_555 1_555
H16 C28 1_555 1_555
C29 C28 1_555 1_555
H17 C29 1_555 1_555
C30 C27 1_555 1_555
H18 C30 1_555 1_555
C31 C30 1_555 1_555
H19 C31 1_555 1_555
C32 C29 1_555 1_555
H20 C32 1_555 1_555
C33 N3 1_555 1_555
H21 C33 1_555 1_555
C34 C33 1_555 1_555
H22 C34 1_555 1_555
C35 N3 1_555 1_555
H23 C35 1_555 1_555
C36 C35 1_555 1_555
H24 C36 1_555 1_555
C37 C34 1_555 1_555
C38 C37 1_555 1_555
C39 C38 1_555 1_555
H25 C39 1_555 1_555
C40 C39 1_555 1_555
H26 C40 1_555 1_555
C41 C38 1_555 1_555
H27 C41 1_555 1_555
C42 N4 1_555 1_555
H28 C42 1_555 1_555
H29 O5 1_555 1_555
H30 O5 1_555 1_555
H31 O6 1_555 1_555
H32 O6 1_555 1_555
H34 O7 1_555 1_555
H36 O8 1_555 1_555
Cd1_2 N4 1_555 1_555
N4_2 Cd1 1_555 1_555
C3 C10 1_555 1_555
C8 C9 1_555 1_555
C15 C16 1_555 1_555
C19 C26 1_555 1_555
C24 C25 1_555 1_555
C31 C32 1_555 1_555
C36 C37 1_555 1_555
C41 C42 1_555 1_555

#END
