
#######################################################################
#
#                 Cambridge Crystallographic Data Centre
#                                CCDC 
#
#######################################################################
#
# If this CIF has been generated from an entry in the Cambridge 
# Structural Database, then it will include bibliographic, chemical, 
# crystal, experimental, refinement or atomic coordinate data resulting 
# from the CCDC's data processing and validation procedures.
#
#######################################################################

data_ILECEI
_symmetry_cell_setting           monoclinic
_symmetry_space_group_name_H-M   'C 2/c'
_symmetry_Int_Tables_number      15
_space_group_name_Hall           '-C 2yn'
loop_
_symmetry_equiv_pos_site_id
_symmetry_equiv_pos_as_xyz
1 x,y,z
2 -x,y,1/2-z
3 1/2+x,1/2+y,z
4 1/2-x,1/2+y,1/2-z
5 -x,-y,-z
6 x,-y,1/2+z
7 1/2-x,1/2-y,-z
8 1/2+x,1/2-y,1/2+z
_cell_length_a                   12.2302(8)
_cell_length_b                   11.4007(6)
_cell_length_c                   10.1791(6)
_cell_angle_alpha                90
_cell_angle_beta                 118.409(1)
_cell_angle_gamma                90
_cell_volume                     1248.38
loop_
_atom_site_label
_atom_site_type_symbol
_atom_site_fract_x
_atom_site_fract_y
_atom_site_fract_z
C1 C 0.1300(3) 0.1255(3) 0.6546(4)
H1 H 0.2064 0.1007 0.7306
C2 C -0.0113(3) 0.2101(3) 0.4557(4)
H2 H -0.0492 0.2550 0.3691
C3 C -0.0717(3) 0.1514(3) 0.5177(4)
H3 H -0.1571 0.1477 0.4821
C4 C 0.0000 0.0267(4) 0.7500
H4 H -0.0718 -0.0233 0.6958
C5 C 0.1332(3) 0.4554(3) 0.4159(4)
C6 C 0.0321(5) 0.5414(4) 0.3283(6)
H5 H 0.0679 0.6190 0.3589
H6 H -0.0298 0.5330 0.3616
Cu1 Cu 0.2500 0.2500 0.5000
N1 N 0.1148(2) 0.1928(2) 0.5407(3)
N2 N 0.0191(2) 0.0982(2) 0.6443(3)
O1 O 0.1358(2) 0.3597(2) 0.3521(3)
O2 O 0.2049(3) 0.4758(3) 0.5485(3)
C1A C -0.1300(3) 0.1255(3) 0.8454(4)
H1A H -0.2064 0.1007 0.7694
C2A C 0.0113(3) 0.2101(3) 1.0443(4)
H2A H 0.0492 0.2550 1.1309
C3A C 0.0717(3) 0.1514(3) 0.9823(4)
H3A H 0.1571 0.1477 1.0179
H4A H 0.0718 -0.0233 0.8042
C5A C -0.1332(3) 0.4554(3) 0.0841(4)
C6A C -0.0321(5) 0.5414(4) 0.1717(6)
H5A H -0.0679 0.6190 0.1411
H6A H 0.0298 0.5330 0.1384
Cu1A Cu -0.2500 0.2500 1.0000
Cu1A_2 Cu -0.2500 0.2500 0.0000
N1A N -0.1148(2) 0.1928(2) 0.9593(3)
N1F N 0.3852(2) 0.3072(2) 0.4593(3)
N2A N -0.0191(2) 0.0982(2) 0.8557(3)
O1A O -0.1358(2) 0.3597(2) 0.1479(3)
O1F O 0.3642(2) 0.1403(2) 0.6479(3)
O2A O -0.2049(3) 0.4758(3) -0.0485(3)
loop_
_geom_bond_atom_site_label_1
_geom_bond_atom_site_label_2
_geom_bond_site_symmetry_1
_geom_bond_site_symmetry_2
C1 H1 1_555 1_555
C2 H2 1_555 1_555
C3 C2 1_555 1_555
H3 C3 1_555 1_555
C4 H4 1_555 1_555
C5 C6 1_555 1_555
C6 H5 1_555 1_555
H6 C6 1_555 1_555
Cu1 N1 1_555 1_555
N1 C1 1_555 1_555
N2 C1 1_555 1_555
O1 C5 1_555 1_555
O2 C5 1_555 1_555
C1A H1A 1_555 1_555
C2A H2A 1_555 1_555
C3A C2A 1_555 1_555
H3A C3A 1_555 1_555
H4A C4 1_555 1_555
C5A C6A 1_555 1_555
C6A C6 1_555 1_555
H5A C6A 1_555 1_555
H6A C6A 1_555 1_555
Cu1A N1A 1_555 1_555
Cu1A_2 O1A 1_555 1_555
N1A C1A 1_555 1_555
N1F Cu1 1_555 1_555
N2A C4 1_555 1_555
O1A C5A 1_555 1_555
O1F Cu1 1_555 1_555
O2A C5A 1_555 1_555
C2 N1 1_555 1_555
C3 N2 1_555 1_555
C4 N2 1_555 1_555
Cu1 O1 1_555 1_555
C1A N2A 1_555 1_555
C2A N1A 1_555 1_555
C3A N2A 1_555 1_555

#END
