
#######################################################################
#
#                 Cambridge Crystallographic Data Centre
#                                CCDC 
#
#######################################################################
#
# If this CIF has been generated from an entry in the Cambridge 
# Structural Database, then it will include bibliographic, chemical, 
# crystal, experimental, refinement or atomic coordinate data resulting 
# from the CCDC's data processing and validation procedures.
#
#######################################################################

data_ILECAE
_symmetry_cell_setting           monoclinic
_symmetry_space_group_name_H-M   'P 21/c'
_symmetry_Int_Tables_number      14
_space_group_name_Hall           '-P 2ybc'
loop_
_symmetry_equiv_pos_site_id
_symmetry_equiv_pos_as_xyz
1 x,y,z
2 -x,1/2+y,1/2-z
3 -x,-y,-z
4 x,1/2-y,1/2+z
_cell_length_a                   14.6052(13)
_cell_length_b                   11.2097(7)
_cell_length_c                   18.6370(18)
_cell_angle_alpha                90
_cell_angle_beta                 109.431(11)
_cell_angle_gamma                90
_cell_volume                     2877.46
loop_
_atom_site_label
_atom_site_type_symbol
_atom_site_fract_x
_atom_site_fract_y
_atom_site_fract_z
C1 C 0.8268(3) 0.1376(3) 0.9870(2)
C2 C 0.7656(3) 0.2094(3) 1.0208(2)
C3 C 0.6711(3) 0.2392(3) 0.9790(2)
C4 C 0.6238(3) 0.3264(3) 1.0070(2)
H1 H 0.5619 0.3504 0.9774
C5 C 0.6661(3) 0.3775(3) 1.0770(2)
C6 C 0.7584(3) 0.3391(3) 1.1224(2)
C7 C 0.8077(3) 0.2576(3) 1.0933(2)
H2 H 0.8702 0.2344 1.1225
C8 C 0.6152(3) 0.1923(4) 0.9006(2)
C9 C 0.5871(3) 0.0635(4) 0.8925(3)
C10 C 0.5926(3) -0.0094(4) 0.9540(3)
H3 H 0.6182 0.0204 1.0032
C11 C 0.5608(4) -0.1247(5) 0.9427(4)
H4 H 0.5671 -0.1740 0.9842
C12 C 0.5197(5) -0.1676(6) 0.8705(5)
H5 H 0.4959 -0.2451 0.8628
C13 C 0.5138(4) -0.0974(7) 0.8101(4)
H6 H 0.4869 -0.1285 0.7613
C14 C 0.5464(3) 0.0187(5) 0.8187(3)
H7 H 0.5414 0.0660 0.7766
C15 C 0.6160(3) 0.4788(4) 1.1005(2)
C16 C 0.6657(3) 0.5985(4) 1.1125(2)
C17 C 0.6356(3) 0.6865(4) 1.1515(2)
H8 H 0.5879 0.6694 1.1728
C18 C 0.6748(4) 0.7976(5) 1.1592(3)
H9 H 0.6535 0.8559 1.1855
C19 C 0.7450(4) 0.8242(5) 1.1285(3)
H10 H 0.7724 0.9000 1.1346
C20 C 0.7748(4) 0.7398(5) 1.0892(3)
H11 H 0.8215 0.7587 1.0672
C21 C 0.7365(3) 0.6258(4) 1.0815(2)
H12 H 0.7584 0.5678 1.0554
C22 C 0.8020(3) 0.3775(3) 1.2041(2)
C23 C 0.8065(3) 0.8576(3) 0.8687(2)
H13 H 0.7657 0.8983 0.8893
C24 C 0.8053(3) 0.7340(3) 0.8693(2)
H14 H 0.7644 0.6936 0.8900
C25 C 0.8639(3) 0.6723(3) 0.8393(3)
C26 C 0.9214(3) 0.7365(3) 0.8076(2)
H15 H 0.9616 0.6979 0.7855
C27 C 0.9179(3) 0.8588(3) 0.8096(2)
H16 H 0.9568 0.9011 0.7879
C28 C 0.9487(3) 0.3525(3) 0.8470(2)
H17 H 1.0062 0.3118 0.8527
C29 C 0.9493(3) 0.4764(3) 0.8458(2)
H18 H 1.0062 0.5169 0.8492
C30 C 0.8662(4) 0.5392(3) 0.8395(3)
C31 C 0.7844(3) 0.4723(3) 0.8307(2)
H19 H 0.7258 0.5105 0.8249
C32 C 0.7879(3) 0.3501(3) 0.8303(2)
H20 H 0.7306 0.3079 0.8227
N1 N 0.8687(3) 0.2896(2) 0.8403(2)
N2 N 0.8632(2) 0.9206(2) 0.84024(19)
Ni1 Ni 0.86504(4) 0.10344(4) 0.84102(3)
O1 O 0.79289(15) 0.1166(2) 0.91682(12)
O2 O 0.91196(18) 0.1103(3) 1.02949(14)
O3 O 0.89299(17) 0.3853(2) 1.23500(12)
O4 O 0.74434(15) 0.3922(2) 1.24119(12)
O5 O 0.5903(2) 0.2594(2) 0.84779(14)
O6 O 0.5351(2) 0.4674(2) 1.10371(17)
O7 O 1.00340(14) 0.1045(3) 0.92321(12)
H21 H 0.9984 0.1093 0.9657
N2_2 N 0.8632(2) -0.0794(2) 0.84024(19)
Ni1_2 Ni 0.86504(4) 1.10344(4) 0.84102(3)
Ni1C Ni 0.86504(4) 0.39656(4) 1.34102(3)
O3C O 0.89299(17) 0.1147(2) 0.73500(12)
O4C O 0.74434(15) 0.1078(2) 0.74119(12)
loop_
_geom_bond_atom_site_label_1
_geom_bond_atom_site_label_2
_geom_bond_site_symmetry_1
_geom_bond_site_symmetry_2
C1 C2 1_555 1_555
C2 C3 1_555 1_555
C3 C4 1_555 1_555
C4 H1 1_555 1_555
C5 C4 1_555 1_555
C6 C5 1_555 1_555
C7 C2 1_555 1_555
H2 C7 1_555 1_555
C8 C3 1_555 1_555
C9 C8 1_555 1_555
C10 C9 1_555 1_555
H3 C10 1_555 1_555
C11 C10 1_555 1_555
H4 C11 1_555 1_555
C12 C11 1_555 1_555
H5 C12 1_555 1_555
C13 C12 1_555 1_555
H6 C13 1_555 1_555
C14 C9 1_555 1_555
H7 C14 1_555 1_555
C15 C5 1_555 1_555
C16 C15 1_555 1_555
C17 C16 1_555 1_555
H8 C17 1_555 1_555
C18 C17 1_555 1_555
H9 C18 1_555 1_555
C19 C18 1_555 1_555
H10 C19 1_555 1_555
C20 C19 1_555 1_555
H11 C20 1_555 1_555
C21 C16 1_555 1_555
H12 C21 1_555 1_555
C22 C6 1_555 1_555
C23 H13 1_555 1_555
C24 C23 1_555 1_555
H14 C24 1_555 1_555
C25 C24 1_555 1_555
C26 C25 1_555 1_555
H15 C26 1_555 1_555
C27 C26 1_555 1_555
H16 C27 1_555 1_555
C28 H17 1_555 1_555
C29 C28 1_555 1_555
H18 C29 1_555 1_555
C30 C25 1_555 1_555
C31 C30 1_555 1_555
H19 C31 1_555 1_555
C32 C31 1_555 1_555
H20 C32 1_555 1_555
N1 C28 1_555 1_555
N2 C23 1_555 1_555
Ni1 N1 1_555 1_555
O1 C1 1_555 1_555
O2 C1 1_555 1_555
O3 C22 1_555 1_555
O4 C22 1_555 1_555
O5 C8 1_555 1_555
O6 C15 1_555 1_555
O7 Ni1 1_555 1_555
H21 O7 1_555 1_555
N2_2 Ni1 1_555 1_555
Ni1_2 N2 1_555 1_555
Ni1C O3 1_555 1_555
O3C Ni1 1_555 1_555
O4C Ni1 1_555 1_555
C6 C7 1_555 1_555
C13 C14 1_555 1_555
C20 C21 1_555 1_555
C27 N2 1_555 1_555
C29 C30 1_555 1_555
C32 N1 1_555 1_555
Ni1 O1 1_555 1_555
O4 Ni1C 1_555 1_555

#END
