
#######################################################################
#
#                 Cambridge Crystallographic Data Centre
#                                CCDC 
#
#######################################################################
#
# If this CIF has been generated from an entry in the Cambridge 
# Structural Database, then it will include bibliographic, chemical, 
# crystal, experimental, refinement or atomic coordinate data resulting 
# from the CCDC's data processing and validation procedures.
#
#######################################################################

data_ILEDAF
_symmetry_cell_setting           triclinic
_symmetry_space_group_name_H-M   'P -1'
_symmetry_Int_Tables_number      2
_space_group_name_Hall           '-P 1'
loop_
_symmetry_equiv_pos_site_id
_symmetry_equiv_pos_as_xyz
1 x,y,z
2 -x,-y,-z
_cell_length_a                   8.4601(10)
_cell_length_b                   10.1500(13)
_cell_length_c                   11.6109(15)
_cell_angle_alpha                85.995(2)
_cell_angle_beta                 77.371(1)
_cell_angle_gamma                78.703(1)
_cell_volume                     953.676
loop_
_atom_site_label
_atom_site_type_symbol
_atom_site_fract_x
_atom_site_fract_y
_atom_site_fract_z
Cu1 Cu 0.0000 0.5000 0.5000
N2 N 0.3262(3) 0.6393(2) 0.2168(2)
N3 N 0.1284(3) 0.5722(2) 0.35035(19)
N4 N 0.1865(3) 1.1492(2) 0.3048(2)
N5 N 0.0652(3) 1.3151(2) 0.4253(2)
O4 O 0.2558(3) 0.4502(2) 0.58136(19)
H1 H 0.2952 0.5095 0.6084
H2 H 0.3342 0.3856 0.5573
C8 C 0.4762(4) 0.6924(3) 0.1661(3)
H9 H 0.5350 0.6430 0.0962
H10 H 0.5473 0.6789 0.2228
C9 C 0.4387(4) 0.8412(3) 0.1334(3)
H11 H 0.3779 0.8534 0.0704
H12 H 0.5416 0.8727 0.1038
C10 C 0.3390(4) 0.9256(3) 0.2371(3)
H13 H 0.2380 0.8919 0.2682
H14 H 0.4015 0.9153 0.2990
C11 C 0.2958(4) 1.0732(3) 0.2055(3)
H15 H 0.3963 1.1096 0.1820
H16 H 0.2421 1.0836 0.1388
C12 C 0.2747(4) 0.6076(3) 0.3309(2)
H17 H 0.3341 0.6101 0.3891
C13 C 0.0865(4) 0.5804(3) 0.2416(3)
H18 H -0.0102 0.5610 0.2272
C14 C 0.2078(4) 0.6211(3) 0.1594(3)
H19 H 0.2104 0.6343 0.0790
C15 C 0.1891(4) 1.2728(3) 0.3373(3)
H20 H 0.2687 1.3229 0.3020
C16 C -0.0216(4) 1.2120(3) 0.4495(3)
H21 H -0.1167 1.2125 0.5077
C17 C 0.0508(4) 1.1104(3) 0.3766(3)
H22 H 0.0158 1.0293 0.3752
Cu1_2 Cu 0.0000 1.5000 0.5000
Cu1_3 Cu 0.0000 -0.5000 0.5000
N2A N -0.3262(3) 0.3607(2) 0.7832(2)
N3A N -0.1284(3) 0.4278(2) 0.64965(19)
N4A N -0.1865(3) -0.1492(2) 0.6952(2)
N5A N -0.0652(3) -0.3151(2) 0.5747(2)
N5_2 N 0.0652(3) 0.3151(2) 0.4253(2)
N5A_2 N -0.0652(3) 0.6849(2) 0.5747(2)
O4A O -0.2558(3) 0.5498(2) 0.41864(19)
H1A H -0.2952 0.4905 0.3916
H2A H -0.3342 0.6144 0.4427
C8A C -0.4762(4) 0.3076(3) 0.8339(3)
H9A H -0.5350 0.3570 0.9038
H10A H -0.5473 0.3211 0.7772
C9A C -0.4387(4) 0.1588(3) 0.8666(3)
H11A H -0.3779 0.1466 0.9296
H12A H -0.5416 0.1273 0.8962
C10A C -0.3390(4) 0.0744(3) 0.7629(3)
H13A H -0.2380 0.1081 0.7318
H14A H -0.4015 0.0847 0.7010
C11A C -0.2958(4) -0.0732(3) 0.7945(3)
H15A H -0.3963 -0.1096 0.8180
H16A H -0.2421 -0.0836 0.8612
C12A C -0.2747(4) 0.3924(3) 0.6691(2)
H17A H -0.3341 0.3899 0.6109
C13A C -0.0865(4) 0.4196(3) 0.7584(3)
H18A H 0.0102 0.4390 0.7728
C14A C -0.2078(4) 0.3789(3) 0.8406(3)
H19A H -0.2104 0.3657 0.9210
C15A C -0.1891(4) -0.2728(3) 0.6627(3)
H20A H -0.2687 -0.3229 0.6980
C16A C 0.0216(4) -0.2120(3) 0.5505(3)
H21A H 0.1167 -0.2125 0.4923
C17A C -0.0508(4) -0.1104(3) 0.6234(3)
H22A H -0.0158 -0.0293 0.6248
N1 N 0.5907(3) 0.3532(2) 0.3276(2)
O1 O 0.8164(3) 0.3814(3) 0.1510(2)
O2 O 0.5567(3) 0.3402(3) 0.1187(2)
O3 O 0.5286(3) 0.2415(2) 0.50466(18)
S1 S 0.67532(10) 0.31674(8) 0.19297(7)
C1 C 0.5904(4) 0.2414(3) 0.3982(3)
C2 C 0.6741(4) 0.1145(3) 0.3335(3)
C3 C 0.7347(4) 0.1415(3) 0.2165(3)
C4 C 0.8206(5) 0.0424(4) 0.1386(3)
H5 H 0.8609 0.0623 0.0595
C5 C 0.8438(5) -0.0883(4) 0.1844(4)
H6 H 0.9006 -0.1580 0.1349
C6 C 0.7845(4) -0.1167(3) 0.3013(4)
H7 H 0.8028 -0.2052 0.3296
C7 C 0.6979(4) -0.0165(3) 0.3782(3)
H8 H 0.6570 -0.0363 0.4572
O5 O 0.8598(5) 0.6638(5) 0.9978(4)
H3 H 0.8469 0.5920 1.0380
H4 H 0.9558 0.6508 0.9538
loop_
_geom_bond_atom_site_label_1
_geom_bond_atom_site_label_2
_geom_bond_site_symmetry_1
_geom_bond_site_symmetry_2
Cu1 N3 1_555 1_555
N1 S1 1_555 1_555
N2 C8 1_555 1_555
N3 C12 1_555 1_555
N4 C11 1_555 1_555
N5 C15 1_555 1_555
O1 S1 1_555 1_555
O2 S1 1_555 1_555
O3 C1 1_555 1_555
O4 Cu1 1_555 1_555
H1 O4 1_555 1_555
H2 O4 1_555 1_555
O5 H3 1_555 1_555
H4 O5 1_555 1_555
S1 C3 1_555 1_555
C1 N1 1_555 1_555
C2 C1 1_555 1_555
C3 C2 1_555 1_555
C4 C3 1_555 1_555
H5 C4 1_555 1_555
C5 C4 1_555 1_555
H6 C5 1_555 1_555
C6 C5 1_555 1_555
H7 C6 1_555 1_555
C7 C2 1_555 1_555
H8 C7 1_555 1_555
C8 H9 1_555 1_555
H10 C8 1_555 1_555
C9 C8 1_555 1_555
H11 C9 1_555 1_555
H12 C9 1_555 1_555
C10 C9 1_555 1_555
H13 C10 1_555 1_555
H14 C10 1_555 1_555
C11 C10 1_555 1_555
H15 C11 1_555 1_555
H16 C11 1_555 1_555
C12 N2 1_555 1_555
H17 C12 1_555 1_555
C13 N3 1_555 1_555
H18 C13 1_555 1_555
C14 N2 1_555 1_555
H19 C14 1_555 1_555
C15 N4 1_555 1_555
H20 C15 1_555 1_555
C16 N5 1_555 1_555
H21 C16 1_555 1_555
C17 N4 1_555 1_555
H22 C17 1_555 1_555
Cu1_2 N5 1_555 1_555
Cu1_3 N5A 1_555 1_555
N2A C8A 1_555 1_555
N3A Cu1 1_555 1_555
N4A C11A 1_555 1_555
N5A C15A 1_555 1_555
N5_2 Cu1 1_555 1_555
N5A_2 Cu1 1_555 1_555
O4A Cu1 1_555 1_555
H1A O4A 1_555 1_555
H2A O4A 1_555 1_555
C8A H9A 1_555 1_555
H10A C8A 1_555 1_555
C9A C8A 1_555 1_555
H11A C9A 1_555 1_555
H12A C9A 1_555 1_555
C10A C9A 1_555 1_555
H13A C10A 1_555 1_555
H14A C10A 1_555 1_555
C11A C10A 1_555 1_555
H15A C11A 1_555 1_555
H16A C11A 1_555 1_555
C12A N2A 1_555 1_555
H17A C12A 1_555 1_555
C13A N3A 1_555 1_555
H18A C13A 1_555 1_555
C14A N2A 1_555 1_555
H19A C14A 1_555 1_555
C15A N4A 1_555 1_555
H20A C15A 1_555 1_555
C16A N5A 1_555 1_555
H21A C16A 1_555 1_555
C17A N4A 1_555 1_555
H22A C17A 1_555 1_555
C6 C7 1_555 1_555
C13 C14 1_555 1_555
C16 C17 1_555 1_555
N3A C12A 1_555 1_555
C13A C14A 1_555 1_555
C16A C17A 1_555 1_555

#END
