
#######################################################################
#
#                 Cambridge Crystallographic Data Centre
#                                CCDC 
#
#######################################################################
#
# If this CIF has been generated from an entry in the Cambridge 
# Structural Database, then it will include bibliographic, chemical, 
# crystal, experimental, refinement or atomic coordinate data resulting 
# from the CCDC's data processing and validation procedures.
#
#######################################################################

data_ILEHOX
_symmetry_cell_setting           monoclinic
_symmetry_space_group_name_H-M   'P 21/n'
_symmetry_Int_Tables_number      14
_space_group_name_Hall           '-P 2yn'
loop_
_symmetry_equiv_pos_site_id
_symmetry_equiv_pos_as_xyz
1 x,y,z
2 1/2-x,1/2+y,1/2-z
3 -x,-y,-z
4 1/2+x,1/2-y,1/2+z
_cell_length_a                   8.9974(12)
_cell_length_b                   18.013(2)
_cell_length_c                   16.632(2)
_cell_angle_alpha                90
_cell_angle_beta                 100.462(2)
_cell_angle_gamma                90
_cell_volume                     2650.74
loop_
_atom_site_label
_atom_site_type_symbol
_atom_site_fract_x
_atom_site_fract_y
_atom_site_fract_z
Zn1 Zn 1.05985(10) 0.02323(4) 0.15488(5)
Zn2 Zn 1.58950(10) -0.17578(5) 0.24627(5)
P1 P 1.3261(2) -0.01923(10) 0.06700(10)
P2 P 0.8468(3) 0.25150(11) 0.07836(11)
P3 P 0.8420(2) -0.20136(10) 0.13474(11)
O1 O 1.1868(6) 0.0271(3) 0.0655(3)
O2 O 1.3424(5) -0.0466(3) -0.0171(3)
O3 O 1.4693(5) 0.0229(3) 0.1093(3)
H1 H 1.5262 0.0291 0.0766
O4 O 1.4321(6) -0.1509(3) 0.1232(3)
H2 H 1.4020 -0.1819 0.0852
O5 O 1.4200(6) -0.1071(3) 0.2726(3)
O6 O 1.2220(6) -0.0341(3) 0.2345(3)
O7 O 0.8047(6) 0.3081(3) 0.1367(3)
O8 O 0.7281(7) 0.2354(3) 0.0058(3)
O9 O 1.0005(7) 0.2766(3) 0.0546(3)
H3 H 1.0189 0.2492 0.0159
O10 O 0.9114(6) 0.1052(3) 0.0874(3)
H4 H 0.8262 0.0852 0.0695
O11 O 1.1204(6) 0.1205(3) 0.2145(3)
O12 O 1.0433(6) 0.2288(3) 0.2508(3)
O13 O 0.7190(6) -0.2298(3) 0.1771(3)
O14 O 0.8395(6) -0.2342(3) 0.0514(3)
O15 O 0.9996(6) -0.2107(3) 0.1902(3)
H5 H 1.0543 -0.2380 0.1657
O16 O 0.9407(5) -0.0713(3) 0.0872(3)
H6 H 0.9070 -0.0565 0.0388
O17 O 0.8986(6) -0.0040(3) 0.2218(3)
O18 O 0.7172(6) -0.0803(3) 0.2440(3)
C1 C 1.3139(8) -0.1009(4) 0.1308(4)
H11 H 1.2192 -0.1251 0.1113
C2 C 1.3188(9) -0.0799(4) 0.2186(4)
C3 C 0.8897(9) 0.1663(4) 0.1378(4)
H12 H 0.8045 0.1554 0.1631
C4 C 1.0285(8) 0.1727(4) 0.2058(4)
C5 C 0.8185(8) -0.1004(4) 0.1228(4)
H13 H 0.7253 -0.0911 0.0858
C6 C 0.8142(9) -0.0583(4) 0.2027(4)
Zn2A Zn 0.91050(10) 0.32422(5) 0.25373(5)
Zn2_2 Zn 0.58950(10) -0.17578(5) 0.24627(5)
O7A O 1.6953(6) -0.1919(3) 0.3633(3)
O12A O 1.4567(6) -0.2712(3) 0.2492(3)
O13_2 O 1.7190(6) -0.2298(3) 0.1771(3)
O18_2 O 1.7172(6) -0.0803(3) 0.2440(3)
N1 N 0.9206(13) 0.2189(6) 0.5661(6)
H7 H 0.8213 0.2260 0.5474
H8 H 0.9376 0.2189 0.5144
C7 C 0.9201(15) 0.2852(6) 0.6169(8)
H14 H 0.9437 0.3279 0.5871
H15 H 0.8231 0.2919 0.6322
H16 H 0.9958 0.2793 0.6652
C8 C 0.8834(16) 0.1517(7) 0.6095(8)
H17 H 0.8819 0.1091 0.5748
H18 H 0.9589 0.1450 0.6578
H19 H 0.7862 0.1576 0.6248
N2 N 0.8344(15) 0.5325(7) 0.1457(6)
H9 H 0.8217 0.4940 0.1783
H10 H 0.7441 0.5552 0.1329
C9 C 0.937(2) 0.5852(9) 0.1962(11)
H20 H 0.8919 0.6021 0.2409
H21 H 0.9557 0.6268 0.1634
H22 H 1.0313 0.5608 0.2173
C10 C 0.865(2) 0.5030(11) 0.0750(13)
H23 H 0.7811 0.4727 0.0500
H24 H 0.9543 0.4731 0.0869
H25 H 0.8796 0.5423 0.0384
O19 O 0.3017(7) 0.2104(3) 0.3621(4)
H26 H 0.2192 0.2005 0.3301
H27 H 0.3013 0.1913 0.4088
O20 O 0.9184(12) 0.1374(6) 0.3997(6)
H28 H 0.9640 0.1152 0.4422
H29 H 0.9434 0.1830 0.4019
O21 O 0.1921(17) 0.0538(7) 0.3847(5)
H30 H 0.1206 0.0304 0.3547
H31 H 0.2093 0.0346 0.4321
loop_
_geom_bond_atom_site_label_1
_geom_bond_atom_site_label_2
_geom_bond_site_symmetry_1
_geom_bond_site_symmetry_2
Zn1 O1 1_555 1_555
Zn2 O4 1_555 1_555
P1 O1 1_555 1_555
P2 O7 1_555 1_555
P3 O13 1_555 1_555
O2 P1 1_555 1_555
O3 P1 1_555 1_555
H1 O3 1_555 1_555
O4 H2 1_555 1_555
O5 Zn2 1_555 1_555
O6 Zn1 1_555 1_555
O7 Zn2A 1_555 1_555
O8 P2 1_555 1_555
O9 P2 1_555 1_555
H3 O9 1_555 1_555
O10 Zn1 1_555 1_555
H4 O10 1_555 1_555
O11 Zn1 1_555 1_555
O12 C4 1_555 1_555
O13 Zn2_2 1_555 1_555
O14 P3 1_555 1_555
O15 P3 1_555 1_555
H5 O15 1_555 1_555
O16 Zn1 1_555 1_555
H6 O16 1_555 1_555
O17 Zn1 1_555 1_555
O18 C6 1_555 1_555
N1 H7 1_555 1_555
H8 N1 1_555 1_555
N2 H9 1_555 1_555
H10 N2 1_555 1_555
C1 P1 1_555 1_555
H11 C1 1_555 1_555
C2 O5 1_555 1_555
C3 P2 1_555 1_555
H12 C3 1_555 1_555
C4 O11 1_555 1_555
C5 P3 1_555 1_555
H13 C5 1_555 1_555
C6 O17 1_555 1_555
C7 N1 1_555 1_555
H14 C7 1_555 1_555
H15 C7 1_555 1_555
H16 C7 1_555 1_555
C8 N1 1_555 1_555
H17 C8 1_555 1_555
H18 C8 1_555 1_555
H19 C8 1_555 1_555
C9 N2 1_555 1_555
H20 C9 1_555 1_555
H21 C9 1_555 1_555
H22 C9 1_555 1_555
C10 N2 1_555 1_555
H23 C10 1_555 1_555
H24 C10 1_555 1_555
H25 C10 1_555 1_555
O19 H26 1_555 1_555
H27 O19 1_555 1_555
O20 H28 1_555 1_555
H29 O20 1_555 1_555
O21 H30 1_555 1_555
H31 O21 1_555 1_555
Zn2A O12 1_555 1_555
Zn2_2 O18 1_555 1_555
O7A Zn2 1_555 1_555
O12A Zn2 1_555 1_555
O13_2 Zn2 1_555 1_555
O18_2 Zn2 1_555 1_555
O4 C1 1_555 1_555
O6 C2 1_555 1_555
O10 C3 1_555 1_555
O16 C5 1_555 1_555
C1 C2 1_555 1_555
C3 C4 1_555 1_555
C5 C6 1_555 1_555

#END
