
#######################################################################
#
#                 Cambridge Crystallographic Data Centre
#                                CCDC 
#
#######################################################################
#
# If this CIF has been generated from an entry in the Cambridge 
# Structural Database, then it will include bibliographic, chemical, 
# crystal, experimental, refinement or atomic coordinate data resulting 
# from the CCDC's data processing and validation procedures.
#
#######################################################################

data_ILEJEP
_symmetry_cell_setting           orthorhombic
_symmetry_space_group_name_H-M   'P n n a'
_symmetry_Int_Tables_number      52
_space_group_name_Hall           '-P 2a 2bc'
loop_
_symmetry_equiv_pos_site_id
_symmetry_equiv_pos_as_xyz
1 x,y,z
2 1/2-x,-y,z
3 1/2-x,1/2+y,1/2-z
4 x,1/2-y,1/2-z
5 -x,-y,-z
6 1/2+x,y,-z
7 1/2+x,1/2-y,1/2+z
8 -x,1/2+y,1/2+z
_cell_length_a                   18.3752(13)
_cell_length_b                   24.0954(18)
_cell_length_c                   9.9398(7)
_cell_angle_alpha                90
_cell_angle_beta                 90
_cell_angle_gamma                90
_cell_volume                     4400.92
loop_
_atom_site_label
_atom_site_type_symbol
_atom_site_fract_x
_atom_site_fract_y
_atom_site_fract_z
Ni1 Ni 0.17352(3) 0.2500 0.7500
Ni2 Ni 0.2500 0.5000 0.57874(5)
O1 O 0.25818(10) 0.31155(8) 0.7309(2)
O2 O 0.19824(11) 0.29878(8) 0.91823(19)
O3 O 0.34264(11) 0.45505(9) 0.6352(2)
O4 O 0.23853(10) 0.44073(8) 0.7377(2)
N1 N 0.09919(12) 0.30532(9) 0.6711(2)
N2 N 0.21044(14) 0.44452(10) 0.4420(3)
N3 N 0.03851(13) 0.38387(10) 0.6282(3)
N4 N 0.18519(15) 0.36144(11) 0.3577(3)
C1 C 0.03822(16) 0.29286(12) 0.5941(3)
C2 C 0.0156(2) 0.24248(14) 0.5411(4)
H1 H 0.0415 0.2099 0.5560
C3 C -0.0472(2) 0.24319(17) 0.4650(5)
H2 H -0.0636 0.2102 0.4271
C4 C -0.0869(2) 0.29137(17) 0.4429(5)
H3 H -0.1295 0.2895 0.3924
C5 C -0.06483(19) 0.34186(15) 0.4939(4)
H4 H -0.0914 0.3742 0.4798
C6 C -0.00093(17) 0.34170(12) 0.5674(3)
C7 C 0.09681(16) 0.35997(12) 0.6882(3)
H5 H 0.1316 0.3798 0.7364
C8 C 0.02023(19) 0.44314(13) 0.6324(3)
H6 H 0.0582 0.4625 0.6814
H7 H -0.0247 0.4477 0.6823
C9 C 0.01145(19) 0.47008(12) 0.4965(3)
H8 H 0.0573 0.4677 0.4485
H9 H -0.0245 0.4495 0.4454
C10 C 0.17625(17) 0.45161(13) 0.3178(3)
C11 C 0.1573(2) 0.49956(16) 0.2490(4)
H10 H 0.1667 0.5346 0.2841
C12 C 0.1240(2) 0.4926(2) 0.1265(5)
H11 H 0.1113 0.5239 0.0770
C13 C 0.1086(3) 0.4403(2) 0.0740(4)
H12 H 0.0858 0.4377 -0.0093
C14 C 0.1260(2) 0.39276(19) 0.1412(4)
H13 H 0.1156 0.3579 0.1061
C15 C 0.16010(18) 0.39934(14) 0.2653(3)
C16 C 0.21459(18) 0.39023(12) 0.4589(3)
H14 H 0.2359 0.3737 0.5338
C17 C 0.1857(2) 0.30063(13) 0.3444(4)
H15 H 0.1402 0.2885 0.3048
H16 H 0.1898 0.2840 0.4329
C18 C 0.2477(2) 0.28151(14) 0.2586(4)
H17 H 0.2932 0.2930 0.2994
H18 H 0.2443 0.2990 0.1709
C19 C 0.24781(15) 0.32309(11) 0.8526(3)
C20 C 0.29435(17) 0.36566(12) 0.9246(3)
H19 H 0.2626 0.3910 0.9727
H20 H 0.3241 0.3467 0.9907
C21 C 0.34315(16) 0.39886(12) 0.8346(3)
C22 C 0.30614(17) 0.43301(12) 0.7302(3)
C23 C 0.4127(2) 0.40284(16) 0.8540(4)
H21 H 0.4402 0.4273 0.8023
H22 H 0.4351 0.3813 0.9195
Ni1D Ni -0.17352(3) 0.7500 0.2500
Ni2B Ni 0.2500 0.0000 -0.07874(5)
Ni2B_2 Ni 0.2500 0.0000 0.92126(5)
O1C O 0.25818(10) 0.18845(8) 0.7691(2)
O2C O 0.19824(11) 0.20122(8) 0.58177(19)
O3C O 0.34264(11) 0.04495(9) 0.8648(2)
O3A O 0.15736(11) 0.54495(9) 0.6352(2)
O4C O 0.23853(10) 0.05927(8) 0.7623(2)
O4A O 0.26147(10) 0.55927(8) 0.7377(2)
N1D N -0.09919(12) 0.69468(9) 0.3289(2)
N1C N 0.09919(12) 0.19468(9) 0.8289(2)
N2C N 0.21044(14) 0.05548(10) 0.0580(3)
N2A N 0.28956(14) 0.55548(10) 0.4420(3)
N3D N -0.03851(13) 0.61613(10) 0.3718(3)
N4C N 0.18519(15) 0.13856(11) 0.1423(3)
C1D C -0.03822(16) 0.70714(12) 0.4059(3)
C2D C -0.0156(2) 0.75752(14) 0.4589(4)
H1D H -0.0415 0.7901 0.4440
C3D C 0.0472(2) 0.75681(17) 0.5350(5)
H2D H 0.0636 0.7898 0.5729
C4D C 0.0869(2) 0.70863(17) 0.5571(5)
H3D H 0.1295 0.7105 0.6076
C5D C 0.06483(19) 0.65814(15) 0.5061(4)
H4D H 0.0914 0.6258 0.5202
C6D C 0.00093(17) 0.65830(12) 0.4326(3)
C7D C -0.09681(16) 0.64003(12) 0.3118(3)
H5D H -0.1316 0.6202 0.2636
C8D C -0.02023(19) 0.55686(13) 0.3676(3)
H6D H -0.0582 0.5375 0.3186
H7D H 0.0247 0.5523 0.3177
C9D C -0.01145(19) 0.52992(12) 0.5035(3)
H8D H -0.0573 0.5323 0.5515
H9D H 0.0245 0.5505 0.5546
C10C C 0.17625(17) 0.04839(13) 0.1822(3)
C11C C 0.1573(2) 0.00044(16) 0.2510(4)
H10C H 0.1667 -0.0346 0.2159
C12C C 0.1240(2) 0.0074(2) 0.3735(5)
H11C H 0.1113 -0.0239 0.4230
C13C C 0.1086(3) 0.0597(2) 0.4260(4)
H12C H 0.0858 0.0623 0.5093
C14C C 0.1260(2) 0.10724(19) 0.3588(4)
H13C H 0.1156 0.1421 0.3939
C15C C 0.16010(18) 0.10066(14) 0.2347(3)
C16C C 0.21459(18) 0.10977(12) 0.0411(3)
H14C H 0.2359 0.1263 -0.0338
C17C C 0.1857(2) 0.19937(13) 0.1556(4)
H15C H 0.1402 0.2115 0.1952
H16C H 0.1898 0.2160 0.0671
C18C C 0.2477(2) 0.21849(14) 0.2414(4)
H17C H 0.2932 0.2070 0.2006
H18C H 0.2443 0.2010 0.3291
C19C C 0.24781(15) 0.17691(11) 0.6474(3)
C20C C 0.29435(17) 0.13434(12) 0.5754(3)
H19C H 0.2626 0.1090 0.5273
H20C H 0.3241 0.1533 0.5093
C21C C 0.34315(16) 0.10114(12) 0.6654(3)
C22C C 0.30614(17) 0.06699(12) 0.7698(3)
C23C C 0.4127(2) 0.09716(16) 0.6460(4)
H21C H 0.4402 0.0727 0.6977
H22C H 0.4351 0.1187 0.5805
loop_
_geom_bond_atom_site_label_1
_geom_bond_atom_site_label_2
_geom_bond_site_symmetry_1
_geom_bond_site_symmetry_2
Ni1 O1 1_555 1_555
Ni2 O3 1_555 1_555
O1 C19 1_555 1_555
O2 Ni1 1_555 1_555
O3 C22 1_555 1_555
O4 Ni2 1_555 1_555
N1 Ni1 1_555 1_555
N2 Ni2 1_555 1_555
N3 C6 1_555 1_555
N4 C15 1_555 1_555
C1 N1 1_555 1_555
C2 C1 1_555 1_555
H1 C2 1_555 1_555
C3 C2 1_555 1_555
H2 C3 1_555 1_555
C4 C3 1_555 1_555
H3 C4 1_555 1_555
C5 C4 1_555 1_555
H4 C5 1_555 1_555
C6 C1 1_555 1_555
C7 N1 1_555 1_555
H5 C7 1_555 1_555
C8 N3 1_555 1_555
H6 C8 1_555 1_555
H7 C8 1_555 1_555
C9 C8 1_555 1_555
H8 C9 1_555 1_555
H9 C9 1_555 1_555
C10 N2 1_555 1_555
C11 C10 1_555 1_555
H10 C11 1_555 1_555
C12 C11 1_555 1_555
H11 C12 1_555 1_555
C13 C12 1_555 1_555
H12 C13 1_555 1_555
C14 C13 1_555 1_555
H13 C14 1_555 1_555
C15 C10 1_555 1_555
C16 N2 1_555 1_555
H14 C16 1_555 1_555
C17 N4 1_555 1_555
H15 C17 1_555 1_555
H16 C17 1_555 1_555
C18 C17 1_555 1_555
H17 C18 1_555 1_555
H18 C18 1_555 1_555
C19 O2 1_555 1_555
C20 C19 1_555 1_555
H19 C20 1_555 1_555
H20 C20 1_555 1_555
C21 C20 1_555 1_555
C22 O4 1_555 1_555
C23 C21 1_555 1_555
H21 C23 1_555 1_555
H22 C23 1_555 1_555
Ni1D N1D 1_555 1_555
Ni2B N2C 1_555 1_555
Ni2B_2 O3C 1_555 1_555
O1C Ni1 1_555 1_555
O2C Ni1 1_555 1_555
O3C C22C 1_555 1_555
O3A Ni2 1_555 1_555
O4C Ni2B_2 1_555 1_555
O4A Ni2 1_555 1_555
N1D C1D 1_555 1_555
N1C Ni1 1_555 1_555
N2C C10C 1_555 1_555
N2A Ni2 1_555 1_555
N3D C6D 1_555 1_555
N4C C15C 1_555 1_555
C1D C2D 1_555 1_555
C2D H1D 1_555 1_555
C3D C2D 1_555 1_555
H2D C3D 1_555 1_555
C4D C3D 1_555 1_555
H3D C4D 1_555 1_555
C5D C4D 1_555 1_555
H4D C5D 1_555 1_555
C6D C1D 1_555 1_555
C7D N1D 1_555 1_555
H5D C7D 1_555 1_555
C8D N3D 1_555 1_555
H6D C8D 1_555 1_555
H7D C8D 1_555 1_555
C9D C9 1_555 1_555
H8D C9D 1_555 1_555
H9D C9D 1_555 1_555
C10C C11C 1_555 1_555
C11C H10C 1_555 1_555
C12C C11C 1_555 1_555
H11C C12C 1_555 1_555
C13C C12C 1_555 1_555
H12C C13C 1_555 1_555
C14C C13C 1_555 1_555
H13C C14C 1_555 1_555
C15C C10C 1_555 1_555
C16C N2C 1_555 1_555
H14C C16C 1_555 1_555
C17C N4C 1_555 1_555
H15C C17C 1_555 1_555
H16C C17C 1_555 1_555
C18C C18 1_555 1_555
H17C C18C 1_555 1_555
H18C C18C 1_555 1_555
C19C O1C 1_555 1_555
C20C C19C 1_555 1_555
H19C C20C 1_555 1_555
H20C C20C 1_555 1_555
C21C C20C 1_555 1_555
C22C O4C 1_555 1_555
C23C C21C 1_555 1_555
H21C C23C 1_555 1_555
H22C C23C 1_555 1_555
N3 C7 1_555 1_555
N4 C16 1_555 1_555
C5 C6 1_555 1_555
C14 C15 1_555 1_555
C21 C22 1_555 1_555
O2C C19C 1_555 1_555
N3D C7D 1_555 1_555
N4C C16C 1_555 1_555
C5D C6D 1_555 1_555
C8D C9D 1_555 1_555
C14C C15C 1_555 1_555
C17C C18C 1_555 1_555
C21C C22C 1_555 1_555

#END
