
#######################################################################
#
#                 Cambridge Crystallographic Data Centre
#                                CCDC 
#
#######################################################################
#
# If this CIF has been generated from an entry in the Cambridge 
# Structural Database, then it will include bibliographic, chemical, 
# crystal, experimental, refinement or atomic coordinate data resulting 
# from the CCDC's data processing and validation procedures.
#
#######################################################################

data_ILEJIT
_symmetry_cell_setting           monoclinic
_symmetry_space_group_name_H-M   'P 21/c'
_symmetry_Int_Tables_number      14
_space_group_name_Hall           '-P 2ybc'
loop_
_symmetry_equiv_pos_site_id
_symmetry_equiv_pos_as_xyz
1 x,y,z
2 -x,1/2+y,1/2-z
3 -x,-y,-z
4 x,1/2-y,1/2+z
_cell_length_a                   9.5912(7)
_cell_length_b                   13.2601(10)
_cell_length_c                   19.3958(13)
_cell_angle_alpha                90
_cell_angle_beta                 111.134(3)
_cell_angle_gamma                90
_cell_volume                     2300.85
loop_
_atom_site_label
_atom_site_type_symbol
_atom_site_fract_x
_atom_site_fract_y
_atom_site_fract_z
Co1 Co 0.46311(2) 0.089461(15) 0.096892(10)
O1 O 0.39067(14) 0.07626(12) 0.18340(7)
O2 O 0.53213(13) 0.35709(9) 0.51532(6)
O3 O 0.49863(15) 0.43879(9) 0.40940(7)
O4 O 0.43619(17) 0.24006(13) 0.18437(7)
O5 O 0.3108(2) -0.07569(11) 0.39621(10)
O6 O 0.32566(19) 0.01352(12) 0.49078(8)
N1 N 0.24042(16) 0.09265(10) 0.01905(8)
N2 N -0.31603(15) 0.37864(10) -0.32882(7)
N3 N 0.04418(14) 0.04333(10) -0.07859(7)
N4 N -0.10553(14) 0.29012(10) -0.27578(7)
N5 N 0.33670(18) 0.00381(11) 0.43070(9)
C1 C 0.11772(17) 0.15395(12) 0.01335(8)
C2 C 0.1056(2) 0.23625(14) 0.05559(9)
H1 H 0.1866 0.2584 0.0960
C3 C -0.0319(2) 0.28338(14) 0.03478(10)
H2 H -0.0428 0.3390 0.0616
C4 C -0.1551(2) 0.25032(15) -0.02518(11)
H3 H -0.2457 0.2840 -0.0368
C5 C -0.14551(18) 0.16909(14) -0.06746(10)
H4 H -0.2276 0.1464 -0.1071
C6 C -0.00570(17) 0.12251(12) -0.04749(8)
C7 C 0.19053(17) 0.02977(12) -0.03722(9)
H5 H 0.2499 -0.0191 -0.0475
C8 C -0.03593(19) -0.00162(12) -0.15109(9)
H6 H -0.1278 -0.0320 -0.1509
H7 H 0.0249 -0.0546 -0.1603
C9 C -0.07314(19) 0.07632(13) -0.21319(9)
H8 H -0.1038 0.0412 -0.2602
H9 H -0.1572 0.1166 -0.2126
C10 C 0.05537(18) 0.14609(13) -0.20775(9)
H10 H 0.0843 0.1827 -0.1614
H11 H 0.1403 0.1059 -0.2071
C11 C 0.0183(2) 0.22136(14) -0.27081(10)
H12 H -0.0073 0.1846 -0.3170
H13 H 0.1067 0.2612 -0.2649
C12 C -0.11157(18) 0.35925(12) -0.22334(8)
C13 C -0.0149(2) 0.37988(14) -0.15121(9)
H14 H 0.0744 0.3449 -0.1296
C14 C -0.0579(2) 0.45396(16) -0.11378(10)
H15 H 0.0038 0.4694 -0.0657
C15 C -0.1930(2) 0.50746(14) -0.14601(10)
H16 H -0.2194 0.5564 -0.1186
C16 C -0.2865(2) 0.48826(13) -0.21764(10)
H17 H -0.3749 0.5242 -0.2393
C17 C -0.24458(18) 0.41344(11) -0.25654(9)
C18 C -0.22966(17) 0.30543(11) -0.33681(8)
H18 H -0.2517 0.2680 -0.3800
C19 C 0.41330(17) 0.16807(13) 0.29203(8)
C20 C 0.44711(17) 0.25834(12) 0.33111(8)
H19 H 0.4673 0.3155 0.3085
C21 C 0.45120(16) 0.26454(11) 0.40348(8)
C22 C 0.41577(17) 0.18041(11) 0.43679(8)
H20 H 0.4163 0.1837 0.4848
C23 C 0.37981(19) 0.09188(11) 0.39663(9)
C24 C 0.38117(19) 0.08309(12) 0.32546(9)
H21 H 0.3610 0.0216 0.3008
C25 C 0.41335(18) 0.16278(17) 0.21416(9)
C26 C 0.49640(16) 0.36202(11) 0.44605(8)
Co1C Co 0.46311(2) 0.410539(15) 0.596892(10)
Co1A Co 0.53689(2) 0.589461(15) 0.403108(10)
Co1C_2 Co -0.53689(2) 0.410539(15) -0.403108(10)
O2C O 0.53213(13) 0.14291(9) 0.01532(6)
O3A O 0.50137(15) -0.06121(9) 0.09060(7)
N2C N 0.68397(15) 0.12136(10) 0.17118(7)
loop_
_geom_bond_atom_site_label_1
_geom_bond_atom_site_label_2
_geom_bond_site_symmetry_1
_geom_bond_site_symmetry_2
Co1 O1 1_555 1_555
O1 C25 1_555 1_555
O2 C26 1_555 1_555
O3 C26 1_555 1_555
O4 C25 1_555 1_555
O5 N5 1_555 1_555
O6 N5 1_555 1_555
N1 Co1 1_555 1_555
N2 C17 1_555 1_555
N3 C6 1_555 1_555
N4 C11 1_555 1_555
N5 C23 1_555 1_555
C1 N1 1_555 1_555
C2 C1 1_555 1_555
H1 C2 1_555 1_555
C3 C2 1_555 1_555
H2 C3 1_555 1_555
C4 C3 1_555 1_555
H3 C4 1_555 1_555
C5 C4 1_555 1_555
H4 C5 1_555 1_555
C6 C1 1_555 1_555
C7 N1 1_555 1_555
H5 C7 1_555 1_555
C8 N3 1_555 1_555
H6 C8 1_555 1_555
H7 C8 1_555 1_555
C9 C8 1_555 1_555
H8 C9 1_555 1_555
H9 C9 1_555 1_555
C10 C9 1_555 1_555
H10 C10 1_555 1_555
H11 C10 1_555 1_555
C11 C10 1_555 1_555
H12 C11 1_555 1_555
H13 C11 1_555 1_555
C12 N4 1_555 1_555
C13 C12 1_555 1_555
H14 C13 1_555 1_555
C14 C13 1_555 1_555
H15 C14 1_555 1_555
C15 C14 1_555 1_555
H16 C15 1_555 1_555
C16 C15 1_555 1_555
H17 C16 1_555 1_555
C17 C12 1_555 1_555
C18 N2 1_555 1_555
H18 C18 1_555 1_555
C19 C20 1_555 1_555
C20 H19 1_555 1_555
C21 C20 1_555 1_555
C22 C21 1_555 1_555
H20 C22 1_555 1_555
C23 C22 1_555 1_555
C24 C19 1_555 1_555
H21 C24 1_555 1_555
C25 C19 1_555 1_555
C26 C21 1_555 1_555
Co1C O2 1_555 1_555
Co1A O3 1_555 1_555
Co1C_2 N2 1_555 1_555
O2C Co1 1_555 1_555
O3A Co1 1_555 1_555
N2C Co1 1_555 1_555
N3 C7 1_555 1_555
N4 C18 1_555 1_555
C5 C6 1_555 1_555
C16 C17 1_555 1_555
C23 C24 1_555 1_555

#END
