
#######################################################################
#
#                 Cambridge Crystallographic Data Centre
#                                CCDC 
#
#######################################################################
#
# If this CIF has been generated from an entry in the Cambridge 
# Structural Database, then it will include bibliographic, chemical, 
# crystal, experimental, refinement or atomic coordinate data resulting 
# from the CCDC's data processing and validation procedures.
#
#######################################################################

data_ILEJAL
_symmetry_cell_setting           orthorhombic
_symmetry_space_group_name_H-M   'P n n a'
_symmetry_Int_Tables_number      52
_space_group_name_Hall           '-P 2a 2bc'
loop_
_symmetry_equiv_pos_site_id
_symmetry_equiv_pos_as_xyz
1 x,y,z
2 1/2-x,-y,z
3 1/2-x,1/2+y,1/2-z
4 x,1/2-y,1/2-z
5 -x,-y,-z
6 1/2+x,y,-z
7 1/2+x,1/2-y,1/2+z
8 -x,1/2+y,1/2+z
_cell_length_a                   18.287(2)
_cell_length_b                   24.361(3)
_cell_length_c                   9.9112(13)
_cell_angle_alpha                90
_cell_angle_beta                 90
_cell_angle_gamma                90
_cell_volume                     4415.34
loop_
_atom_site_label
_atom_site_type_symbol
_atom_site_fract_x
_atom_site_fract_y
_atom_site_fract_z
Co1 Co 0.17011(4) 0.7500 0.2500
Co2 Co 0.2500 0.5000 0.42336(7)
O1 O 0.19769(14) 0.70243(9) 0.0797(2)
O2 O 0.23521(14) 0.56147(9) 0.2547(3)
N1 N 0.09642(16) 0.69335(10) 0.3316(3)
N2 N 0.21062(18) 0.55697(11) 0.5601(3)
O3 O 0.25854(13) 0.68715(9) 0.2655(3)
N3 N 0.03636(17) 0.61537(11) 0.3731(3)
N4 N 0.18552(19) 0.63965(11) 0.6418(3)
C1 C 0.2147(2) 0.61078(14) 0.5405(4)
H1 H 0.2356 0.6267 0.4645
C2 C 0.0944(2) 0.63956(14) 0.3126(4)
H2 H 0.1292 0.6204 0.2629
C3 C 0.3408(2) 0.60072(13) 0.1559(4)
C4 C 0.2926(2) 0.63524(14) 0.0679(4)
H3 H 0.2598 0.6113 0.0183
H4 H 0.3228 0.6543 0.0026
C5 C 0.1760(2) 0.55085(15) 0.6852(4)
C6 C 0.0180(2) 0.55652(13) 0.3685(4)
H5 H 0.0556 0.5375 0.3175
H6 H -0.0278 0.5521 0.3204
C7 C 0.3030(2) 0.56672(13) 0.2595(4)
C8 C 0.4125(2) 0.59725(15) 0.1403(4)
H7 H 0.4395 0.5735 0.1941
H8 H 0.4358 0.6186 0.0755
C9 C 0.2471(2) 0.67737(13) 0.1443(4)
C10 C -0.0030(2) 0.65662(14) 0.4364(4)
C11 C 0.1603(2) 0.60277(14) 0.7369(4)
C12 C 0.0353(2) 0.70496(13) 0.4105(4)
C13 C 0.1867(3) 0.69965(13) 0.6536(4)
H9 H 0.1409 0.7122 0.6920
H10 H 0.1916 0.7158 0.5645
C14 C 0.1262(3) 0.60979(19) 0.8604(4)
H11 H 0.1158 0.6445 0.8942
C15 C -0.0670(2) 0.65632(16) 0.5122(5)
H12 H -0.0933 0.6242 0.5266
C16 C 0.1087(3) 0.5634(2) 0.9302(5)
H13 H 0.0862 0.5665 1.0139
C17 C 0.0116(2) 0.75433(17) 0.4641(4)
H14 H 0.0369 0.7868 0.4481
C18 C 0.2490(2) 0.71856(13) 0.7411(4)
H15 H 0.2949 0.7072 0.7007
H16 H 0.2452 0.7012 0.8289
C19 C -0.0895(3) 0.70537(17) 0.5646(5)
H17 H -0.1318 0.7067 0.6167
C20 C 0.1579(2) 0.50399(16) 0.7578(5)
H18 H 0.1685 0.4690 0.7254
C21 C 0.1238(3) 0.5117(2) 0.8789(5)
H19 H 0.1101 0.4810 0.9289
C22 C -0.0501(3) 0.75355(19) 0.5413(5)
H20 H -0.0665 0.7862 0.5796
O4 O 0.34016(15) 0.54303(9) 0.3516(3)
C23 C 0.0111(2) 0.52989(12) 0.5037(4)
H21 H -0.0248 0.5498 0.5565
H22 H 0.0577 0.5326 0.5503
Co1D Co -0.17011(4) 0.2500 0.7500
Co2B Co 0.2500 1.0000 1.07664(7)
Co2B_2 Co 0.2500 1.0000 0.07664(7)
O1C O 0.19769(14) 0.79757(9) 0.4203(2)
O2C O 0.23521(14) 0.93853(9) 0.2453(3)
O2A O 0.26479(14) 0.43853(9) 0.2547(3)
N1D N -0.09642(16) 0.30665(10) 0.6684(3)
N1C N 0.09642(16) 0.80665(10) 0.1684(3)
N2C N 0.21062(18) 0.94303(11) 0.9399(3)
N2A N 0.28938(18) 0.44303(11) 0.5601(3)
O3C O 0.25854(13) 0.81285(9) 0.2345(3)
N3D N -0.03636(17) 0.38463(11) 0.6269(3)
N4C N 0.18552(19) 0.86035(11) 0.8582(3)
C1C C 0.2147(2) 0.88922(14) 0.9595(4)
H1C H 0.2356 0.8733 1.0355
C2D C -0.0944(2) 0.36044(14) 0.6874(4)
H2D H -0.1292 0.3796 0.7371
C3C C 0.3408(2) 0.89928(13) 0.3441(4)
C4C C 0.2926(2) 0.86476(14) 0.4321(4)
H3C H 0.2598 0.8887 0.4817
H4C H 0.3228 0.8457 0.4974
C5C C 0.1760(2) 0.94915(15) 0.8148(4)
C6D C -0.0180(2) 0.44348(13) 0.6315(4)
H5D H -0.0556 0.4625 0.6825
H6D H 0.0278 0.4479 0.6796
C7C C 0.3030(2) 0.93328(13) 0.2405(4)
C8C C 0.4125(2) 0.90275(15) 0.3597(4)
H7C H 0.4395 0.9265 0.3059
H8C H 0.4358 0.8814 0.4245
C9C C 0.2471(2) 0.82263(13) 0.3557(4)
C10D C 0.0030(2) 0.34338(14) 0.5636(4)
C11C C 0.1603(2) 0.89723(14) 0.7631(4)
C12D C -0.0353(2) 0.29504(13) 0.5895(4)
C13C C 0.1867(3) 0.80035(13) 0.8464(4)
H9C H 0.1409 0.7878 0.8080
H10C H 0.1916 0.7842 0.9355
C14C C 0.1262(3) 0.89021(19) 0.6396(4)
H11C H 0.1158 0.8555 0.6058
C15D C 0.0670(2) 0.34368(16) 0.4878(5)
H12D H 0.0933 0.3758 0.4734
C16C C 0.1087(3) 0.9366(2) 0.5698(5)
H13C H 0.0862 0.9335 0.4861
C17D C -0.0116(2) 0.24567(17) 0.5359(4)
H14D H -0.0369 0.2132 0.5519
C18C C 0.2490(2) 0.78144(13) 0.7589(4)
H15C H 0.2949 0.7928 0.7993
H16C H 0.2452 0.7988 0.6711
C19D C 0.0895(3) 0.29463(17) 0.4354(5)
H17D H 0.1318 0.2933 0.3833
C20C C 0.1579(2) 0.99601(16) 0.7422(5)
H18C H 0.1685 1.0310 0.7746
C21C C 0.1238(3) 0.9883(2) 0.6211(5)
H19C H 0.1101 1.0190 0.5711
C22D C 0.0501(3) 0.24645(19) 0.4587(5)
H20D H 0.0665 0.2138 0.4204
O4C O 0.34016(15) 0.95697(9) 0.1484(3)
O4A O 0.15984(15) 0.45697(9) 0.3516(3)
C23D C -0.0111(2) 0.47011(12) 0.4963(4)
H21D H 0.0248 0.4502 0.4435
H22D H -0.0577 0.4674 0.4497
loop_
_geom_bond_atom_site_label_1
_geom_bond_atom_site_label_2
_geom_bond_site_symmetry_1
_geom_bond_site_symmetry_2
Co1 O1 1_555 1_555
Co2 O2 1_555 1_555
O1 C9 1_555 1_555
O2 C7 1_555 1_555
N1 Co1 1_555 1_555
N2 Co2 1_555 1_555
O3 Co1 1_555 1_555
N3 C2 1_555 1_555
N4 C1 1_555 1_555
C1 N2 1_555 1_555
H1 C1 1_555 1_555
C2 N1 1_555 1_555
H2 C2 1_555 1_555
C3 C4 1_555 1_555
C4 H3 1_555 1_555
H4 C4 1_555 1_555
C5 N2 1_555 1_555
C6 N3 1_555 1_555
H5 C6 1_555 1_555
H6 C6 1_555 1_555
C7 C3 1_555 1_555
C8 C3 1_555 1_555
H7 C8 1_555 1_555
H8 C8 1_555 1_555
C9 O3 1_555 1_555
C10 N3 1_555 1_555
C11 N4 1_555 1_555
C12 N1 1_555 1_555
C13 N4 1_555 1_555
H9 C13 1_555 1_555
H10 C13 1_555 1_555
C14 C11 1_555 1_555
H11 C14 1_555 1_555
C15 C10 1_555 1_555
H12 C15 1_555 1_555
C16 C14 1_555 1_555
H13 C16 1_555 1_555
C17 C12 1_555 1_555
H14 C17 1_555 1_555
C18 C13 1_555 1_555
H15 C18 1_555 1_555
H16 C18 1_555 1_555
C19 C15 1_555 1_555
H17 C19 1_555 1_555
C20 C5 1_555 1_555
H18 C20 1_555 1_555
C21 C16 1_555 1_555
H19 C21 1_555 1_555
C22 C17 1_555 1_555
H20 C22 1_555 1_555
O4 Co2 1_555 1_555
C23 C6 1_555 1_555
H21 C23 1_555 1_555
H22 C23 1_555 1_555
Co1D N1D 1_555 1_555
Co2B N2C 1_555 1_555
Co2B_2 O2C 1_555 1_555
O1C Co1 1_555 1_555
O2C C7C 1_555 1_555
O2A Co2 1_555 1_555
N1D C2D 1_555 1_555
N1C Co1 1_555 1_555
N2C C1C 1_555 1_555
N2A Co2 1_555 1_555
O3C Co1 1_555 1_555
N3D C2D 1_555 1_555
N4C C1C 1_555 1_555
C1C H1C 1_555 1_555
C2D H2D 1_555 1_555
C3C C4C 1_555 1_555
C4C H3C 1_555 1_555
H4C C4C 1_555 1_555
C5C N2C 1_555 1_555
C6D N3D 1_555 1_555
H5D C6D 1_555 1_555
H6D C6D 1_555 1_555
C7C C3C 1_555 1_555
C8C C3C 1_555 1_555
H7C C8C 1_555 1_555
H8C C8C 1_555 1_555
C9C O1C 1_555 1_555
C10D N3D 1_555 1_555
C11C N4C 1_555 1_555
C12D N1D 1_555 1_555
C13C N4C 1_555 1_555
H9C C13C 1_555 1_555
H10C C13C 1_555 1_555
C14C C11C 1_555 1_555
H11C C14C 1_555 1_555
C15D C10D 1_555 1_555
H12D C15D 1_555 1_555
C16C C14C 1_555 1_555
H13C C16C 1_555 1_555
C17D C12D 1_555 1_555
H14D C17D 1_555 1_555
C18C C18 1_555 1_555
H15C C18C 1_555 1_555
H16C C18C 1_555 1_555
C19D C15D 1_555 1_555
H17D C19D 1_555 1_555
C20C C5C 1_555 1_555
H18C C20C 1_555 1_555
C21C C16C 1_555 1_555
H19C C21C 1_555 1_555
C22D C17D 1_555 1_555
H20D C22D 1_555 1_555
O4C Co2B_2 1_555 1_555
O4A Co2 1_555 1_555
C23D C23 1_555 1_555
H21D C23D 1_555 1_555
H22D C23D 1_555 1_555
C4 C9 1_555 1_555
C5 C11 1_555 1_555
C7 O4 1_555 1_555
C10 C12 1_555 1_555
C19 C22 1_555 1_555
C20 C21 1_555 1_555
O3C C9C 1_555 1_555
C4C C9C 1_555 1_555
C5C C11C 1_555 1_555
C6D C23D 1_555 1_555
C7C O4C 1_555 1_555
C10D C12D 1_555 1_555
C13C C18C 1_555 1_555
C19D C22D 1_555 1_555
C20C C21C 1_555 1_555

#END
