
#######################################################################
#
#                 Cambridge Crystallographic Data Centre
#                                CCDC 
#
#######################################################################
#
# If this CIF has been generated from an entry in the Cambridge 
# Structural Database, then it will include bibliographic, chemical, 
# crystal, experimental, refinement or atomic coordinate data resulting 
# from the CCDC's data processing and validation procedures.
#
#######################################################################

data_ILIGIU
_symmetry_cell_setting           monoclinic
_symmetry_space_group_name_H-M   'C 2/c'
_symmetry_Int_Tables_number      15
_space_group_name_Hall           '-C 2yn'
loop_
_symmetry_equiv_pos_site_id
_symmetry_equiv_pos_as_xyz
1 x,y,z
2 -x,y,1/2-z
3 1/2+x,1/2+y,z
4 1/2-x,1/2+y,1/2-z
5 -x,-y,-z
6 x,-y,1/2+z
7 1/2-x,1/2-y,-z
8 1/2+x,1/2-y,1/2+z
_cell_length_a                   18.408(17)
_cell_length_b                   8.665(3)
_cell_length_c                   14.682(12)
_cell_angle_alpha                90
_cell_angle_beta                 115.396(2)
_cell_angle_gamma                90
_cell_volume                     2115.55
loop_
_atom_site_label
_atom_site_type_symbol
_atom_site_fract_x
_atom_site_fract_y
_atom_site_fract_z
Cd1 Cd 0.328096(7) -0.097893(15) 0.188694(9)
O1 O 0.20444(9) -0.13102(17) 0.04555(11)
O2 O 0.23589(9) 0.10287(16) 0.10484(12)
O3 O 0.33053(9) -0.3764(2) 0.20514(12)
O4 O 0.43921(10) -0.2716(2) 0.31195(13)
O5 O 0.42445(13) -0.5195(2) 0.30861(18)
N1 N 0.39935(12) -0.3924(2) 0.27625(14)
N2 N -0.08194(10) 0.41731(19) -0.21501(12)
N3 N 0.03099(9) 0.30078(19) -0.11627(11)
C1 C -0.01293(10) 0.3606(2) -0.20932(12)
C2 C -0.08139(14) 0.3910(2) -0.12267(16)
H1 H -0.1234 0.4181 -0.1045
C3 C -0.01225(13) 0.3208(3) -0.06161(14)
H2 H 0.0034 0.2911 0.0065
C4 C 0.11046(11) 0.2276(3) -0.07566(15)
H3 H 0.1294 0.2212 -0.1293
H4 H 0.1491 0.2918 -0.0204
C5 C 0.10804(12) 0.0667(3) -0.03609(16)
H5 H 0.0883 -0.0063 -0.0935
H6 H 0.0690 0.0660 -0.0062
C6 C 0.18798(10) 0.0101(2) 0.04180(13)
O6 O 0.38950(9) -0.15340(19) 0.08539(11)
H7 H 0.3589 -0.2232 0.0402
H8 H 0.4372 -0.1894 0.1212
O7 O 0.27178(10) -0.12321(19) 0.30127(14)
H9 H 0.2669 -0.2166 0.3201
H10 H 0.2395 -0.0476 0.2952
Cd1A Cd -0.328096(7) -0.097893(15) -0.688694(9)
Cd1G Cd -0.171904(7) 0.597893(15) -0.311306(9)
Cd1F Cd 0.171904(7) 0.597893(15) -0.188694(9)
O1A O -0.20444(9) -0.13102(17) -0.54555(11)
O2A O -0.23589(9) 0.10287(16) -0.60484(12)
O3A O -0.33053(9) -0.3764(2) -0.70514(12)
O4A O -0.43921(10) -0.2716(2) -0.81195(13)
O5A O -0.42445(13) -0.5195(2) -0.80861(18)
N1A N -0.39935(12) -0.3924(2) -0.77625(14)
N2A N 0.08194(10) 0.41731(19) -0.28499(12)
N2G N 0.41806(10) 0.08269(19) 0.28499(12)
N2F N -0.41806(10) 0.08269(19) -0.78499(12)
N3A N -0.03099(9) 0.30078(19) -0.38373(11)
C1A C 0.01293(10) 0.3606(2) -0.29068(12)
C2A C 0.08139(14) 0.3910(2) -0.37733(16)
H1A H 0.1234 0.4181 -0.3955
C3A C 0.01225(13) 0.3208(3) -0.43839(14)
H2A H -0.0034 0.2911 -0.5065
C4A C -0.11046(11) 0.2276(3) -0.42434(15)
H3A H -0.1294 0.2212 -0.3707
H4A H -0.1491 0.2918 -0.4796
C5A C -0.10804(12) 0.0667(3) -0.46391(16)
H5A H -0.0883 -0.0063 -0.4065
H6A H -0.0690 0.0660 -0.4938
C6A C -0.18798(10) 0.0101(2) -0.54180(13)
O6A O -0.38950(9) -0.15340(19) -0.58539(11)
H7A H -0.3589 -0.2232 -0.5402
H8A H -0.4372 -0.1894 -0.6212
O7A O -0.27178(10) -0.12321(19) -0.80127(14)
H9A H -0.2669 -0.2166 -0.8201
H10A H -0.2395 -0.0476 -0.7952
loop_
_geom_bond_atom_site_label_1
_geom_bond_atom_site_label_2
_geom_bond_site_symmetry_1
_geom_bond_site_symmetry_2
Cd1 O1 1_555 1_555
O1 C6 1_555 1_555
O2 Cd1 1_555 1_555
O3 Cd1 1_555 1_555
O4 Cd1 1_555 1_555
O5 N1 1_555 1_555
N1 O3 1_555 1_555
N2 C1 1_555 1_555
N3 C1 1_555 1_555
C1 C1A 1_555 1_555
C2 N2 1_555 1_555
H1 C2 1_555 1_555
C3 N3 1_555 1_555
H2 C3 1_555 1_555
C4 N3 1_555 1_555
H3 C4 1_555 1_555
H4 C4 1_555 1_555
C5 C4 1_555 1_555
H5 C5 1_555 1_555
H6 C5 1_555 1_555
C6 O2 1_555 1_555
O6 Cd1 1_555 1_555
H7 O6 1_555 1_555
H8 O6 1_555 1_555
O7 Cd1 1_555 1_555
H9 O7 1_555 1_555
H10 O7 1_555 1_555
Cd1A O1A 1_555 1_555
Cd1G N2 1_555 1_555
Cd1F N2A 1_555 1_555
O1A C6A 1_555 1_555
O2A Cd1A 1_555 1_555
O3A Cd1A 1_555 1_555
O4A Cd1A 1_555 1_555
O5A N1A 1_555 1_555
N1A O3A 1_555 1_555
N2A C1A 1_555 1_555
N2G Cd1 1_555 1_555
N2F Cd1A 1_555 1_555
N3A C1A 1_555 1_555
C2A N2A 1_555 1_555
H1A C2A 1_555 1_555
C3A N3A 1_555 1_555
H2A C3A 1_555 1_555
C4A N3A 1_555 1_555
H3A C4A 1_555 1_555
H4A C4A 1_555 1_555
C5A C4A 1_555 1_555
H5A C5A 1_555 1_555
H6A C5A 1_555 1_555
C6A O2A 1_555 1_555
O6A Cd1A 1_555 1_555
H7A O6A 1_555 1_555
H8A O6A 1_555 1_555
O7A Cd1A 1_555 1_555
H9A O7A 1_555 1_555
H10A O7A 1_555 1_555
O4 N1 1_555 1_555
C2 C3 1_555 1_555
C5 C6 1_555 1_555
O4A N1A 1_555 1_555
C2A C3A 1_555 1_555
C5A C6A 1_555 1_555

#END
