
#######################################################################
#
#                 Cambridge Crystallographic Data Centre
#                                CCDC 
#
#######################################################################
#
# If this CIF has been generated from an entry in the Cambridge 
# Structural Database, then it will include bibliographic, chemical, 
# crystal, experimental, refinement or atomic coordinate data resulting 
# from the CCDC's data processing and validation procedures.
#
#######################################################################

data_ILIGEQ
_symmetry_cell_setting           triclinic
_symmetry_space_group_name_H-M   'P -1'
_symmetry_Int_Tables_number      2
_space_group_name_Hall           '-P 1'
loop_
_symmetry_equiv_pos_site_id
_symmetry_equiv_pos_as_xyz
1 x,y,z
2 -x,-y,-z
_cell_length_a                   9.0525(17)
_cell_length_b                   10.041(2)
_cell_length_c                   10.068(2)
_cell_angle_alpha                103.330(8)
_cell_angle_beta                 109.713(6)
_cell_angle_gamma                93.728(4)
_cell_volume                     828.052
loop_
_atom_site_label
_atom_site_type_symbol
_atom_site_fract_x
_atom_site_fract_y
_atom_site_fract_z
Cd1 Cd -0.50998(5) 0.61480(4) 0.26148(4)
Cl1 Cl -0.36520(18) 0.80774(15) 0.21962(16)
O1 O 0.0315(6) 0.2039(4) 0.2672(5)
O2 O 0.0436(6) -0.0169(4) 0.2401(5)
H1 H 0.1238 0.0131 0.3137
O3 O -0.3275(5) 0.6560(4) 0.5026(4)
O4 O 0.3211(4) 0.7596(4) 0.3503(4)
O5 O 0.2964(4) 0.5445(4) 0.3599(3)
N1 N -0.2796(5) 0.4866(4) -0.0396(4)
N2 N -0.1086(5) 0.5625(4) 0.1892(4)
N3 N -0.4120(5) 0.4078(4) 0.2235(4)
N4 N -0.3207(5) 0.2330(4) 0.1109(4)
C1 C -0.1715(6) 0.5962(5) -0.0281(5)
H2 H -0.1708 0.6325 -0.1050
C2 C -0.0669(6) 0.6430(5) 0.1111(5)
H3 H 0.0172 0.7158 0.1468
C3 C -0.2382(5) 0.4691(5) 0.0943(5)
C4 C -0.4676(6) 0.2866(5) 0.2443(5)
H4 H -0.5332 0.2795 0.2971
C5 C -0.3242(6) 0.3720(5) 0.1408(5)
C6 C -0.0303(6) 0.5690(6) 0.3457(5)
H5 H -0.1069 0.5835 0.3936
H6 H 0.0045 0.4809 0.3538
C7 C -0.2467(6) 0.1558(5) 0.0149(5)
H7 H -0.1665 0.2191 0.0068
H8 H -0.3267 0.1174 -0.0822
C8 C -0.1701(6) 0.0393(5) 0.0696(5)
H9 H -0.2470 -0.0165 0.0903
H10 H -0.1446 -0.0196 -0.0081
C9 C -0.0236(7) 0.0850(6) 0.2029(6)
C10 C -0.4128(6) 0.1788(5) 0.1768(5)
H11 H -0.4332 0.0863 0.1751
C11 C 0.2511(6) 0.6614(5) 0.3757(5)
C12 C 0.1115(6) 0.6836(6) 0.4244(5)
H12 H 0.1463 0.6921 0.5287
H13 H 0.0780 0.7704 0.4090
H14 H -0.3207 0.5852 0.5357
H15 H -0.2593 0.7257 0.5595
Cd1A Cd -0.49002(5) 0.38520(4) -0.26148(4)
Cd1_2 Cd 0.49002(5) 0.61480(4) 0.26148(4)
O4_2 O -0.6789(4) 0.7596(4) 0.3503(4)
O5_2 O -0.7036(4) 0.5445(4) 0.3599(3)
N1A N -0.7204(5) 0.5134(4) 0.0396(4)
O6 O 0.3141(6) 0.0333(5) 0.4467(5)
H16 H 0.3366 -0.0485 0.4328
H17 H 0.2868 0.0572 0.5209
loop_
_geom_bond_atom_site_label_1
_geom_bond_atom_site_label_2
_geom_bond_site_symmetry_1
_geom_bond_site_symmetry_2
Cd1 Cl1 1_555 1_555
O1 C9 1_555 1_555
O2 H1 1_555 1_555
O3 Cd1 1_555 1_555
O4 C11 1_555 1_555
O5 C11 1_555 1_555
N1 C1 1_555 1_555
N2 C2 1_555 1_555
N3 Cd1 1_555 1_555
N4 C5 1_555 1_555
C1 H2 1_555 1_555
C2 C1 1_555 1_555
H3 C2 1_555 1_555
C3 N1 1_555 1_555
C4 N3 1_555 1_555
H4 C4 1_555 1_555
C5 N3 1_555 1_555
C6 N2 1_555 1_555
H5 C6 1_555 1_555
H6 C6 1_555 1_555
C7 N4 1_555 1_555
H7 C7 1_555 1_555
H8 C7 1_555 1_555
C8 C7 1_555 1_555
H9 C8 1_555 1_555
H10 C8 1_555 1_555
C9 O2 1_555 1_555
C10 N4 1_555 1_555
H11 C10 1_555 1_555
C11 C12 1_555 1_555
C12 C6 1_555 1_555
H12 C12 1_555 1_555
H13 C12 1_555 1_555
O6 H16 1_555 1_555
H14 O3 1_555 1_555
H15 O3 1_555 1_555
H17 O6 1_555 1_555
Cd1A N1 1_555 1_555
Cd1_2 O4 1_555 1_555
O4_2 Cd1 1_555 1_555
O5_2 Cd1 1_555 1_555
N1A Cd1 1_555 1_555
O5 Cd1_2 1_555 1_555
N2 C3 1_555 1_555
C3 C5 1_555 1_555
C4 C10 1_555 1_555
C8 C9 1_555 1_555

#END
