
#######################################################################
#
#                 Cambridge Crystallographic Data Centre
#                                CCDC 
#
#######################################################################
#
# If this CIF has been generated from an entry in the Cambridge 
# Structural Database, then it will include bibliographic, chemical, 
# crystal, experimental, refinement or atomic coordinate data resulting 
# from the CCDC's data processing and validation procedures.
#
#######################################################################

data_ILIXIL
_symmetry_cell_setting           tetragonal
_symmetry_space_group_name_H-M   'P -4 21 c'
_symmetry_Int_Tables_number      114
_space_group_name_Hall           'P -4 2n'
loop_
_symmetry_equiv_pos_site_id
_symmetry_equiv_pos_as_xyz
1 x,y,z
2 y,-x,-z
3 1/2+x,1/2-y,1/2-z
4 -x,-y,z
5 1/2-y,1/2-x,1/2+z
6 -y,x,-z
7 1/2-x,1/2+y,1/2-z
8 1/2+y,1/2+x,1/2+z
_cell_length_a                   32.987(5)
_cell_length_b                   32.987(5)
_cell_length_c                   31.918(6)
_cell_angle_alpha                90
_cell_angle_beta                 90
_cell_angle_gamma                90
_cell_volume                     34731.3
loop_
_atom_site_label
_atom_site_type_symbol
_atom_site_fract_x
_atom_site_fract_y
_atom_site_fract_z
Pt1 Pt -0.179959(15) -0.249469(18) -0.354572(18)
Pt2 Pt -0.33512(2) -0.466767(18) -0.10950(2)
Pt3 Pt -0.895791(18) -0.36608(3) -0.36789(3)
N1 N -0.3713(4) -0.4363(3) -0.1538(3)
N2 N -0.8352(3) -0.3483(4) -0.3629(4)
N3 N -0.2418(3) -0.2576(4) -0.3559(3)
N4 N -0.7101(4) -0.1836(3) -0.5943(3)
N5 N -0.6538(3) -0.4853(3) -0.1504(4)
N6 N -0.3980(5) -0.1290(4) -0.5820(5)
C1 C -0.4663(4) -0.4040(4) -0.2745(4)
H1 H -0.4667 -0.4327 -0.2715
C2 C -0.4425(4) -0.3814(4) -0.2469(4)
C3 C -0.4170(4) -0.4003(4) -0.2146(4)
C4 C -0.4435(4) -0.3390(4) -0.2516(4)
H2 H -0.4277 -0.3224 -0.2336
C5 C -0.4893(4) -0.3863(4) -0.3059(4)
H3 H -0.5046 -0.4025 -0.3248
C6 C -0.4894(4) -0.3451(4) -0.3092(4)
C7 C -0.4674(4) -0.3213(4) -0.2826(4)
H4 H -0.4684 -0.2927 -0.2851
C8 C -0.5152(4) -0.3244(4) -0.3421(4)
C9 C -0.5705(4) -0.3490(4) -0.2700(4)
H5 H -0.5560 -0.3251 -0.2627
C10 C -0.5762(3) -0.3570(5) -0.3117(4)
C11 C -0.6070(4) -0.4093(4) -0.2485(4)
C12 C -0.6220(4) -0.4338(4) -0.2140(4)
C13 C -0.6135(4) -0.4174(5) -0.2887(4)
H6 H -0.6296 -0.4402 -0.2960
C14 C -0.5971(4) -0.3926(5) -0.3210(5)
H7 H -0.6004 -0.4005 -0.3495
C15 C -0.5560(3) -0.3318(4) -0.3440(4)
C16 C -0.4971(4) -0.3001(4) -0.3736(4)
C17 C -0.3766(4) -0.3935(5) -0.2123(4)
H8 H -0.3634 -0.3767 -0.2323
C18 C -0.4110(5) -0.4439(5) -0.1554(4)
H9 H -0.4230 -0.4618 -0.1356
C19 C -0.4349(4) -0.4255(4) -0.1860(4)
H10 H -0.4633 -0.4303 -0.1871
C20 C -0.3549(4) -0.4116(4) -0.1803(4)
H11 H -0.3269 -0.4056 -0.1776
C21 C -0.5859(4) -0.2673(4) -0.4379(4)
C22 C -0.5193(4) -0.2813(4) -0.4043(4)
C23 C -0.5799(4) -0.3120(4) -0.3762(4)
C24 C -0.4485(7) -0.2423(6) -0.4883(6)
H12 H -0.4262 -0.2524 -0.5039
C25 C -0.4590(5) -0.2018(5) -0.4926(5)
C26 C -0.4849(6) -0.1873(5) -0.4632(5)
H13 H -0.4897 -0.1590 -0.4616
C27 C -0.5047(6) -0.2131(5) -0.4353(5)
H14 H -0.5230 -0.2017 -0.4156
C28 C -0.4991(4) -0.2531(4) -0.4351(4)
C29 C -0.4697(6) -0.2692(6) -0.4615(6)
H15 H -0.4639 -0.2974 -0.4615
C30 C -0.4513(4) -0.2929(5) -0.3728(4)
C31 C -0.4245(4) -0.3256(5) -0.3743(4)
H16 H -0.4344 -0.3524 -0.3783
C32 C -0.4376(4) -0.2527(5) -0.3661(5)
H17 H -0.4562 -0.2310 -0.3632
C33 C -0.3949(4) -0.2461(5) -0.3639(4)
H18 H -0.3845 -0.2194 -0.3613
C34 C -0.3835(4) -0.3187(5) -0.3700(4)
H19 H -0.3651 -0.3408 -0.3700
C35 C -0.3690(4) -0.2788(5) -0.3656(4)
C36 C -0.5615(4) -0.2881(4) -0.4054(4)
C37 C -0.6242(4) -0.3181(5) -0.3772(4)
C38 C -0.6841(4) -0.3548(6) -0.3948(5)
H20 H -0.6965 -0.3773 -0.4084
C39 C -0.6427(4) -0.3507(5) -0.3964(5)
H21 H -0.6268 -0.3703 -0.4106
C40 C -0.6909(4) -0.2942(5) -0.3534(5)
H22 H -0.7073 -0.2753 -0.3386
C41 C -0.7086(4) -0.3266(5) -0.3738(4)
C42 C -0.7527(4) -0.3333(5) -0.3697(4)
C43 C -0.6037(4) -0.4377(4) -0.1771(4)
H23 H -0.5793 -0.4232 -0.1720
C44 C -0.6594(5) -0.4569(5) -0.2190(5)
H24 H -0.6744 -0.4555 -0.2443
C45 C -0.7658(4) -0.3713(6) -0.3536(5)
H25 H -0.7471 -0.3919 -0.3458
C46 C -0.8093(5) -0.3770(6) -0.3495(6)
H26 H -0.8195 -0.4012 -0.3372
C47 C -0.8210(4) -0.3127(6) -0.3755(5)
H27 H -0.8403 -0.2919 -0.3805
C48 C -0.2651(4) -0.2334(5) -0.3790(5)
H28 H -0.2530 -0.2111 -0.3933
C49 C -0.3240(4) -0.2718(4) -0.3608(4)
C50 C -0.3016(4) -0.2952(5) -0.3362(4)
H29 H -0.3135 -0.3165 -0.3205
C51 C -0.6712(4) -0.1894(4) -0.6030(4)
H30 H -0.6619 -0.1843 -0.6307
C52 C -0.7247(5) -0.1899(5) -0.5568(4)
H31 H -0.7527 -0.1853 -0.5517
C53 C -0.6435(5) -0.2027(5) -0.5734(5)
H32 H -0.6154 -0.2053 -0.5795
C54 C -0.6603(4) -0.2123(4) -0.5320(4)
C55 C -0.6324(4) -0.2289(5) -0.4995(5)
C56 C -0.6197(4) -0.4626(4) -0.1455(4)
H33 H -0.6060 -0.4637 -0.1194
C57 C -0.6487(4) -0.2892(5) -0.3545(5)
H34 H -0.6364 -0.2671 -0.3405
C58 C -0.7820(4) -0.3033(5) -0.3819(5)
H35 H -0.7741 -0.2781 -0.3938
C59 C -0.2586(4) -0.2874(5) -0.3338(5)
H36 H -0.2421 -0.3038 -0.3162
C60 C -0.4387(5) -0.1777(6) -0.5232(6)
C61 C -0.3990(7) -0.1668(7) -0.5170(6)
H37 H -0.3856 -0.1744 -0.4918
C62 C -0.5845(5) -0.2803(6) -0.4787(5)
H38 H -0.5684 -0.3031 -0.4858
C63 C -0.6113(5) -0.2332(5) -0.4278(5)
H39 H -0.6118 -0.2230 -0.4000
C64 C -0.7002(5) -0.2032(5) -0.5244(4)
H40 H -0.7109 -0.2059 -0.4969
C65 C -0.6062(5) -0.2607(5) -0.5096(5)
H41 H -0.6034 -0.2690 -0.5380
C66 C -0.5845(4) -0.3733(4) -0.2380(4)
H42 H -0.5793 -0.3665 -0.2096
C67 C -0.3078(4) -0.2399(5) -0.3829(5)
H43 H -0.3242 -0.2230 -0.4000
C68 C -0.6726(4) -0.4810(4) -0.1862(5)
H44 H -0.6972 -0.4955 -0.1900
C69 C -0.6351(5) -0.2150(5) -0.4582(5)
H45 H -0.6529 -0.1934 -0.4511
C70 C -0.4357(7) -0.1370(9) -0.5858(9)
H46 H -0.4504 -0.1282 -0.6097
C71 C -0.4560(8) -0.1604(9) -0.5523(8)
H47 H -0.4847 -0.1622 -0.5533
C72 C -0.3779(7) -0.1442(7) -0.5480(6)
H48 H -0.3496 -0.1396 -0.5451
P1 P -0.11152(10) -0.24861(13) -0.36282(13)
C73 C -0.0938(6) -0.2995(4) -0.3675(6)
H49 H -0.1081 -0.3126 -0.3911
H50 H -0.0646 -0.2988 -0.3744
C74 C -0.0996(7) -0.3252(6) -0.3286(6)
H51 H -0.0892 -0.3526 -0.3339
H52 H -0.1285 -0.3267 -0.3218
H53 H -0.0849 -0.3131 -0.3051
C75 C -0.1001(5) -0.2230(6) -0.4124(5)
H54 H -0.0703 -0.2198 -0.4144
H55 H -0.1086 -0.2409 -0.4356
C76 C -0.1196(7) -0.1813(6) -0.4191(7)
H56 H -0.1123 -0.1711 -0.4469
H57 H -0.1098 -0.1624 -0.3977
H58 H -0.1491 -0.1838 -0.4170
C77 C -0.0792(3) -0.2244(6) -0.3256(5)
H59 H -0.0866 -0.1954 -0.3241
H60 H -0.0844 -0.2364 -0.2977
C78 C -0.0343(4) -0.2274(6) -0.3345(5)
H61 H -0.0191 -0.2133 -0.3125
H62 H -0.0284 -0.2149 -0.3617
H63 H -0.0262 -0.2560 -0.3352
P2 P -0.18587(10) -0.20610(11) -0.29937(11)
C79 C -0.2385(3) -0.2005(5) -0.2821(4)
H64 H -0.2550 -0.1911 -0.3062
H65 H -0.2489 -0.2275 -0.2737
C80 C -0.2444(5) -0.1712(5) -0.2458(5)
H66 H -0.2731 -0.1709 -0.2376
H67 H -0.2362 -0.1439 -0.2545
H68 H -0.2278 -0.1799 -0.2220
C81 C -0.1719(4) -0.1544(3) -0.3121(4)
H69 H -0.1728 -0.1381 -0.2860
H70 H -0.1435 -0.1543 -0.3221
C82 C -0.1981(5) -0.1336(5) -0.3449(5)
H71 H -0.1883 -0.1059 -0.3494
H72 H -0.2263 -0.1328 -0.3351
H73 H -0.1967 -0.1488 -0.3712
C83 C -0.1579(4) -0.2207(4) -0.2535(4)
H74 H -0.1285 -0.2192 -0.2595
H75 H -0.1639 -0.2015 -0.2304
C84 C -0.1688(5) -0.2640(4) -0.2395(5)
H76 H -0.1528 -0.2712 -0.2146
H77 H -0.1626 -0.2831 -0.2621
H78 H -0.1977 -0.2654 -0.2327
P3 P -0.33548(18) -0.41080(13) -0.06765(15)
C85 C -0.3656(6) -0.4220(9) -0.0213(5)
H79 H -0.3531 -0.4451 -0.0063
H80 H -0.3648 -0.3982 -0.0023
C86 C -0.4100(7) -0.4322(11) -0.0311(11)
H81 H -0.4246 -0.4375 -0.0049
H82 H -0.4112 -0.4564 -0.0490
H83 H -0.4227 -0.4094 -0.0457
C87 C -0.3614(8) -0.3680(5) -0.0915(5)
H84 H -0.3441 -0.3579 -0.1146
H85 H -0.3867 -0.3784 -0.1043
C88 C -0.3726(7) -0.3321(5) -0.0644(6)
H86 H -0.3874 -0.3121 -0.0813
H87 H -0.3479 -0.3196 -0.0533
H88 H -0.3897 -0.3411 -0.0412
C89 C -0.2888(5) -0.3907(6) -0.0486(6)
H89 H -0.2940 -0.3691 -0.0278
H90 H -0.2727 -0.4123 -0.0350
P4 P -0.2964(2) -0.50721(16) -0.06822(19)
C90 C -0.2601(8) -0.5323(10) -0.1018(8)
H91 H -0.2457 -0.5545 -0.0873
H92 H -0.2726 -0.5425 -0.1279
C91 C -0.2660(8) -0.3736(9) -0.0859(8)
H93 H -0.2404 -0.3618 -0.0764
H94 H -0.2825 -0.3526 -0.0994
H95 H -0.2605 -0.3954 -0.1060
C92 C -0.2324(13) -0.4950(12) -0.1097(14)
H96 H -0.2095 -0.5030 -0.1275
H97 H -0.2221 -0.4848 -0.0829
H98 H -0.2480 -0.4736 -0.1237
C93 C -0.3221(9) -0.5535(6) -0.0536(11)
H99 H -0.3297 -0.5686 -0.0792
H100 H -0.3035 -0.5707 -0.0370
C94 C -0.3602(13) -0.5444(15) -0.0279(14)
H101 H -0.3734 -0.5700 -0.0201
H102 H -0.3789 -0.5280 -0.0446
H103 H -0.3527 -0.5296 -0.0024
C95 C -0.2866(10) -0.4936(7) -0.0143(5)
H104 H -0.2675 -0.4704 -0.0142
H105 H -0.3124 -0.4840 -0.0019
C96 C -0.2694(8) -0.5264(7) 0.0141(8)
H106 H -0.2675 -0.5160 0.0428
H107 H -0.2424 -0.5341 0.0043
H108 H -0.2873 -0.5501 0.0136
P5 P -0.91302(15) -0.33110(19) -0.30908(18)
C97 C -0.9432(7) -0.2865(6) -0.3139(9)
H109 H -0.9706 -0.2944 -0.3237
H110 H -0.9463 -0.2741 -0.2859
C98 C -0.9265(10) -0.2545(9) -0.3439(10)
H111 H -0.9456 -0.2319 -0.3459
H112 H -0.9226 -0.2665 -0.3717
H113 H -0.9004 -0.2445 -0.3333
C99 C -0.8692(5) -0.3112(7) -0.2826(6)
H114 H -0.8494 -0.3335 -0.2790
H115 H -0.8565 -0.2905 -0.3009
C100 C -0.8771(9) -0.2922(9) -0.2399(6)
H116 H -0.8514 -0.2830 -0.2278
H117 H -0.8895 -0.3123 -0.2213
H118 H -0.8955 -0.2690 -0.2431
C101 C -0.9402(7) -0.3593(7) -0.2696(8)
H119 H -0.9460 -0.3412 -0.2456
H120 H -0.9665 -0.3683 -0.2813
C102 C -0.9164(9) -0.3967(8) -0.2538(9)
H121 H -0.9331 -0.4118 -0.2338
H122 H -0.8914 -0.3877 -0.2400
H123 H -0.9096 -0.4141 -0.2776
P6 P -0.95885(16) -0.3912(2) -0.3822(3)
C103 C -0.9583(8) -0.4246(10) -0.4261(9)
H124 H -0.9556 -0.4084 -0.4521
H125 H -0.9344 -0.4426 -0.4241
C104 C -0.9971(10) -0.4507(9) -0.4287(9)
H126 H -0.9971 -0.4660 -0.4550
H127 H -1.0210 -0.4331 -0.4277
H128 H -0.9978 -0.4696 -0.4050
C105 C -0.9956(5) -0.3533(8) -0.3760(10)
H129 H -1.0235 -0.3638 -0.3793
H130 H -0.9930 -0.3390 -0.3489
C106 C -0.9826(8) -0.3264(12) -0.4133(11)
H131 H -0.9944 -0.2993 -0.4102
H132 H -0.9921 -0.3386 -0.4395
H133 H -0.9529 -0.3243 -0.4139
C107 C -0.9785(10) -0.4278(9) -0.3450(11)
H134 H -0.9793 -0.4156 -0.3166
H135 H -1.0065 -0.4355 -0.3528
C108 C -0.9513(10) -0.4654(10) -0.3447(9)
H136 H -0.9621 -0.4853 -0.3248
H137 H -0.9238 -0.4576 -0.3363
H138 H -0.9506 -0.4773 -0.3728
Pt1E Pt -0.750531(18) -0.179959(15) -0.645428(18)
Pt2C Pt -0.66488(2) -0.533233(18) -0.10950(2)
Pt3A Pt -0.36608(3) -0.104209(18) -0.63211(3)
N4A N -0.1836(3) -0.2899(4) -0.4057(3)
N5C N -0.3462(3) -0.5147(3) -0.1504(4)
N6E N -0.8710(4) -0.3980(5) -0.4180(5)
P7 P -1.03791(16) -0.29886(16) -0.21118(16)
F1 F -1.0815(4) -0.3211(5) -0.2185(5)
F2 F -0.9951(5) -0.2810(5) -0.2086(5)
F3 F -1.0472(6) -0.2892(5) -0.1671(5)
F4 F -1.0220(5) -0.3417(5) -0.2010(6)
F5 F -1.0573(5) -0.2574(5) -0.2258(5)
F6 F -1.0266(4) -0.3106(5) -0.2584(4)
P8 P -0.79439(15) -0.20482(16) -0.30284(16)
F7 F -0.7553(4) -0.2105(3) -0.3297(3)
F8 F -0.8213(4) -0.2158(5) -0.3409(4)
F9 F -0.7928(4) -0.2510(4) -0.2910(4)
F10 F -0.7672(3) -0.1945(3) -0.2617(4)
F11 F -0.7953(3) -0.1577(3) -0.3135(4)
F12 F -0.8339(4) -0.1989(4) -0.2727(5)
P9 P -0.3843(2) -0.48130(18) 0.10033(19)
F13 F -0.4231(5) -0.4866(5) 0.1285(5)
F14 F -0.4046(4) -0.4396(4) 0.0828(4)
F15 F -0.3663(4) -0.4548(5) 0.1366(4)
F16 F -0.4060(6) -0.4991(6) 0.0601(6)
F17 F -0.3429(4) -0.4732(4) 0.0743(4)
F18 F -0.3699(6) -0.5248(5) 0.1126(6)
P10 P -0.7793(4) -0.4560(4) -0.2516(4)
F19 F -0.7579(6) -0.4408(5) -0.2090(6)
F20 F -0.7522(9) -0.4953(7) -0.2534(8)
F21 F -0.7409(6) -0.4353(6) -0.2802(6)
F22 F -0.8121(8) -0.4735(8) -0.2246(9)
F23 F -0.8006(8) -0.4737(8) -0.2880(9)
F24 F -0.8044(6) -0.4156(7) -0.2532(6)
P11 P -0.1676(2) -0.41976(18) 0.0004(2)
F25 F -0.1578(7) -0.3925(7) 0.0391(6)
F26 F -0.2086(6) -0.3993(6) 0.0038(6)
F27 F -0.1532(6) -0.3890(6) -0.0274(7)
F28 F -0.1867(6) -0.4511(7) 0.0341(8)
F29 F -0.1880(8) -0.4436(8) -0.0292(8)
F30 F -0.1324(6) -0.4443(6) -0.0024(7)
P12 P -0.2630(3) -0.1576(3) -0.4833(2)
F31 F -0.2539(7) -0.1510(7) -0.4363(4)
F32 F -0.3001(6) -0.1818(7) -0.4682(7)
F33 F -0.2715(7) -0.1683(7) -0.5293(4)
F34 F -0.2321(5) -0.1264(5) -0.4960(6)
F35 F -0.2914(7) -0.1218(6) -0.4912(7)
F36 F -0.2334(6) -0.1925(6) -0.4798(7)
loop_
_geom_bond_atom_site_label_1
_geom_bond_atom_site_label_2
_geom_bond_site_symmetry_1
_geom_bond_site_symmetry_2
Pt1 N3 1_555 1_555
Pt2 N1 1_555 1_555
Pt3 N2 1_555 1_555
N1 C18 1_555 1_555
N2 C46 1_555 1_555
N3 C48 1_555 1_555
N4 C51 1_555 1_555
N5 C56 1_555 1_555
N6 C70 1_555 1_555
C1 H1 1_555 1_555
C2 C1 1_555 1_555
C3 C2 1_555 1_555
C4 C2 1_555 1_555
H2 C4 1_555 1_555
C5 C1 1_555 1_555
H3 C5 1_555 1_555
C6 C5 1_555 1_555
C7 C4 1_555 1_555
H4 C7 1_555 1_555
C8 C6 1_555 1_555
C9 H5 1_555 1_555
C10 C9 1_555 1_555
C11 C12 1_555 1_555
C12 C43 1_555 1_555
C13 C11 1_555 1_555
H6 C13 1_555 1_555
C14 C10 1_555 1_555
H7 C14 1_555 1_555
C15 C8 1_555 1_555
C16 C8 1_555 1_555
C17 C3 1_555 1_555
H8 C17 1_555 1_555
C18 H9 1_555 1_555
C19 C3 1_555 1_555
H10 C19 1_555 1_555
C20 N1 1_555 1_555
H11 C20 1_555 1_555
C21 C36 1_555 1_555
C22 C16 1_555 1_555
C23 C15 1_555 1_555
C24 H12 1_555 1_555
C25 C24 1_555 1_555
C26 C25 1_555 1_555
H13 C26 1_555 1_555
C27 C26 1_555 1_555
H14 C27 1_555 1_555
C28 C22 1_555 1_555
C29 C24 1_555 1_555
H15 C29 1_555 1_555
C30 C16 1_555 1_555
C31 C30 1_555 1_555
H16 C31 1_555 1_555
C32 C30 1_555 1_555
H17 C32 1_555 1_555
C33 C32 1_555 1_555
H18 C33 1_555 1_555
C34 C31 1_555 1_555
H19 C34 1_555 1_555
C35 C33 1_555 1_555
C36 C22 1_555 1_555
C37 C23 1_555 1_555
C38 H20 1_555 1_555
C39 C37 1_555 1_555
H21 C39 1_555 1_555
C40 H22 1_555 1_555
C41 C38 1_555 1_555
C42 C41 1_555 1_555
C43 H23 1_555 1_555
C44 C12 1_555 1_555
H24 C44 1_555 1_555
C45 C42 1_555 1_555
H25 C45 1_555 1_555
C46 C45 1_555 1_555
H26 C46 1_555 1_555
C47 N2 1_555 1_555
H27 C47 1_555 1_555
C48 H28 1_555 1_555
C49 C35 1_555 1_555
C50 C49 1_555 1_555
H29 C50 1_555 1_555
C51 H30 1_555 1_555
C52 N4 1_555 1_555
H31 C52 1_555 1_555
C53 C51 1_555 1_555
H32 C53 1_555 1_555
C54 C53 1_555 1_555
C55 C54 1_555 1_555
C56 C43 1_555 1_555
H33 C56 1_555 1_555
C57 C37 1_555 1_555
H34 C57 1_555 1_555
C58 C42 1_555 1_555
H35 C58 1_555 1_555
C59 N3 1_555 1_555
H36 C59 1_555 1_555
C60 C25 1_555 1_555
C61 C60 1_555 1_555
H37 C61 1_555 1_555
C62 C21 1_555 1_555
H38 C62 1_555 1_555
C63 C21 1_555 1_555
H39 C63 1_555 1_555
C64 C52 1_555 1_555
H40 C64 1_555 1_555
C65 C55 1_555 1_555
H41 C65 1_555 1_555
C66 C9 1_555 1_555
H42 C66 1_555 1_555
C67 C48 1_555 1_555
H43 C67 1_555 1_555
C68 N5 1_555 1_555
H44 C68 1_555 1_555
C69 C55 1_555 1_555
H45 C69 1_555 1_555
C70 H46 1_555 1_555
C71 C60 1_555 1_555
H47 C71 1_555 1_555
C72 N6 1_555 1_555
H48 C72 1_555 1_555
P1 Pt1 1_555 1_555
C73 P1 1_555 1_555
H49 C73 1_555 1_555
H50 C73 1_555 1_555
C74 C73 1_555 1_555
H51 C74 1_555 1_555
H52 C74 1_555 1_555
H53 C74 1_555 1_555
C75 P1 1_555 1_555
H54 C75 1_555 1_555
H55 C75 1_555 1_555
C76 C75 1_555 1_555
H56 C76 1_555 1_555
H57 C76 1_555 1_555
H58 C76 1_555 1_555
C77 P1 1_555 1_555
H59 C77 1_555 1_555
H60 C77 1_555 1_555
C78 C77 1_555 1_555
H61 C78 1_555 1_555
H62 C78 1_555 1_555
H63 C78 1_555 1_555
P2 Pt1 1_555 1_555
C79 P2 1_555 1_555
H64 C79 1_555 1_555
H65 C79 1_555 1_555
C80 C79 1_555 1_555
H66 C80 1_555 1_555
H67 C80 1_555 1_555
H68 C80 1_555 1_555
C81 P2 1_555 1_555
H69 C81 1_555 1_555
H70 C81 1_555 1_555
C82 C81 1_555 1_555
H71 C82 1_555 1_555
H72 C82 1_555 1_555
H73 C82 1_555 1_555
C83 P2 1_555 1_555
H74 C83 1_555 1_555
H75 C83 1_555 1_555
C84 C83 1_555 1_555
H76 C84 1_555 1_555
H77 C84 1_555 1_555
H78 C84 1_555 1_555
P3 Pt2 1_555 1_555
C85 P3 1_555 1_555
H79 C85 1_555 1_555
H80 C85 1_555 1_555
C86 C85 1_555 1_555
H81 C86 1_555 1_555
H82 C86 1_555 1_555
H83 C86 1_555 1_555
C87 P3 1_555 1_555
H84 C87 1_555 1_555
H85 C87 1_555 1_555
C88 C87 1_555 1_555
H86 C88 1_555 1_555
H87 C88 1_555 1_555
H88 C88 1_555 1_555
C89 P3 1_555 1_555
H89 C89 1_555 1_555
H90 C89 1_555 1_555
P4 Pt2 1_555 1_555
C90 P4 1_555 1_555
H91 C90 1_555 1_555
H92 C90 1_555 1_555
C91 C89 1_555 1_555
H93 C91 1_555 1_555
H94 C91 1_555 1_555
H95 C91 1_555 1_555
C92 C90 1_555 1_555
H96 C92 1_555 1_555
H97 C92 1_555 1_555
H98 C92 1_555 1_555
C93 P4 1_555 1_555
H99 C93 1_555 1_555
H100 C93 1_555 1_555
C94 C93 1_555 1_555
H101 C94 1_555 1_555
H102 C94 1_555 1_555
H103 C94 1_555 1_555
C95 P4 1_555 1_555
H104 C95 1_555 1_555
H105 C95 1_555 1_555
C96 C95 1_555 1_555
H106 C96 1_555 1_555
H107 C96 1_555 1_555
H108 C96 1_555 1_555
P5 Pt3 1_555 1_555
C97 P5 1_555 1_555
H109 C97 1_555 1_555
H110 C97 1_555 1_555
C98 C97 1_555 1_555
H111 C98 1_555 1_555
H112 C98 1_555 1_555
H113 C98 1_555 1_555
C99 P5 1_555 1_555
H114 C99 1_555 1_555
H115 C99 1_555 1_555
C100 C99 1_555 1_555
H116 C100 1_555 1_555
H117 C100 1_555 1_555
H118 C100 1_555 1_555
C101 P5 1_555 1_555
H119 C101 1_555 1_555
H120 C101 1_555 1_555
C102 C101 1_555 1_555
H121 C102 1_555 1_555
H122 C102 1_555 1_555
H123 C102 1_555 1_555
P6 Pt3 1_555 1_555
C103 P6 1_555 1_555
H124 C103 1_555 1_555
H125 C103 1_555 1_555
C104 C103 1_555 1_555
H126 C104 1_555 1_555
H127 C104 1_555 1_555
H128 C104 1_555 1_555
C105 P6 1_555 1_555
H129 C105 1_555 1_555
H130 C105 1_555 1_555
C106 C105 1_555 1_555
H131 C106 1_555 1_555
H132 C106 1_555 1_555
H133 C106 1_555 1_555
C107 P6 1_555 1_555
H134 C107 1_555 1_555
H135 C107 1_555 1_555
C108 C107 1_555 1_555
H136 C108 1_555 1_555
H137 C108 1_555 1_555
H138 C108 1_555 1_555
P7 F1 1_555 1_555
F2 P7 1_555 1_555
F3 P7 1_555 1_555
F4 P7 1_555 1_555
F5 P7 1_555 1_555
F6 P7 1_555 1_555
P8 F7 1_555 1_555
F8 P8 1_555 1_555
F9 P8 1_555 1_555
F10 P8 1_555 1_555
F11 P8 1_555 1_555
F12 P8 1_555 1_555
P9 F13 1_555 1_555
F14 P9 1_555 1_555
F15 P9 1_555 1_555
F16 P9 1_555 1_555
F17 P9 1_555 1_555
F18 P9 1_555 1_555
P10 F19 1_555 1_555
F20 P10 1_555 1_555
F21 P10 1_555 1_555
F22 P10 1_555 1_555
F23 P10 1_555 1_555
F24 P10 1_555 1_555
P11 F25 1_555 1_555
F26 P11 1_555 1_555
F27 P11 1_555 1_555
F28 P11 1_555 1_555
F29 P11 1_555 1_555
F30 P11 1_555 1_555
P12 F31 1_555 1_555
F32 P12 1_555 1_555
F33 P12 1_555 1_555
F34 P12 1_555 1_555
F35 P12 1_555 1_555
F36 P12 1_555 1_555
Pt1E N4 1_555 1_555
Pt2C N5 1_555 1_555
Pt3A N6 1_555 1_555
N4A Pt1 1_555 1_555
N5C Pt2 1_555 1_555
N6E Pt3 1_555 1_555
C6 C7 1_555 1_555
C10 C15 1_555 1_555
C11 C66 1_555 1_555
C13 C14 1_555 1_555
C17 C20 1_555 1_555
C18 C19 1_555 1_555
C23 C36 1_555 1_555
C27 C28 1_555 1_555
C28 C29 1_555 1_555
C34 C35 1_555 1_555
C38 C39 1_555 1_555
C40 C41 1_555 1_555
C40 C57 1_555 1_555
C44 C68 1_555 1_555
C47 C58 1_555 1_555
C49 C67 1_555 1_555
C50 C59 1_555 1_555
C54 C64 1_555 1_555
C61 C72 1_555 1_555
C62 C65 1_555 1_555
C63 C69 1_555 1_555
C70 C71 1_555 1_555

#END
