
#######################################################################
#
#                 Cambridge Crystallographic Data Centre
#                                CCDC 
#
#######################################################################
#
# If this CIF has been generated from an entry in the Cambridge 
# Structural Database, then it will include bibliographic, chemical, 
# crystal, experimental, refinement or atomic coordinate data resulting 
# from the CCDC's data processing and validation procedures.
#
#######################################################################

data_ILIZIN
_symmetry_cell_setting           triclinic
_symmetry_space_group_name_H-M   'P -1'
_symmetry_Int_Tables_number      2
_space_group_name_Hall           '-P 1'
loop_
_symmetry_equiv_pos_site_id
_symmetry_equiv_pos_as_xyz
1 x,y,z
2 -x,-y,-z
_cell_length_a                   9.1494(19)
_cell_length_b                   10.667(2)
_cell_length_c                   12.596(3)
_cell_angle_alpha                68.585(8)
_cell_angle_beta                 75.534(10)
_cell_angle_gamma                67.117(9)
_cell_volume                     1046.02
loop_
_atom_site_label
_atom_site_type_symbol
_atom_site_fract_x
_atom_site_fract_y
_atom_site_fract_z
Zn1 Zn -1.02649(3) 0.85392(3) 0.71079(2)
O1 O -1.1597(2) 0.85937(19) 0.59508(16)
H1 H -1.1019 0.8809 0.5350
O2 O 0.0112(2) 0.06341(19) 0.62129(16)
O3 O -0.2128(2) 0.04954(18) 0.73107(17)
N1 N -0.6725(2) 0.6997(2) 0.63695(19)
N2 N -0.8277(2) 0.7113(2) 0.65108(19)
N3 N -0.8419(2) 0.5886(2) 0.6623(2)
N4 N -0.6967(2) 0.4935(2) 0.65559(19)
N5 N -0.9228(3) 0.8352(2) 0.85444(19)
N6 N -1.1410(3) 0.7297(2) 0.85359(19)
C1 C -0.4210(3) 0.4949(2) 0.6337(2)
C2 C -0.3551(3) 0.3492(3) 0.6484(2)
H2 H -0.4180 0.3067 0.6599
C3 C -0.1911(3) 0.2809(3) 0.6444(2)
C4 C -0.0905(3) 0.3580(3) 0.6263(2)
H3 H 0.0315 0.3034 0.6348
C5 C -0.1548(3) 0.5022(3) 0.6144(3)
H4 H -0.0948 0.5552 0.6112
C6 C -0.3179(3) 0.5709(3) 0.6173(2)
H5 H -0.3703 0.6771 0.6061
C7 C -0.5951(3) 0.5635(2) 0.6401(2)
C8 C -0.1277(3) 0.1232(3) 0.6660(2)
C9 C -1.2477(4) 0.6787(3) 0.8460(3)
H6 H -1.2731 0.6960 0.7736
C10 C -0.8104(4) 0.8886(4) 0.8474(3)
H7 H -0.7917 0.9637 0.7673
C11 C -0.7522(5) 0.8771(5) 0.9429(3)
H8 H -0.6688 0.9024 0.9333
C12 C -0.8142(5) 0.8076(5) 1.0484(4)
H9 H -0.7887 0.8371 1.0894
C13 C -0.9327(5) 0.7555(5) 1.0576(3)
H10 H -0.9886 0.6979 1.1317
C14 C -0.9842(4) 0.7683(3) 0.9575(2)
C15 C -1.1079(3) 0.7102(3) 0.9574(2)
C16 C -1.1820(4) 0.6370(4) 1.0562(3)
H11 H -1.1573 0.6228 1.1279
C17 C -1.2931(5) 0.5854(5) 1.0471(3)
C18 C -1.3269(5) 0.6058(4) 0.9423(4)
H12 H -1.3795 0.5686 0.9249
H13 H -1.249(5) 0.917(4) 0.590(4)
H14 H -1.340(4) 0.520(4) 1.123(3)
Zn1_2 Zn -0.02649(3) -0.14608(3) 0.71079(2)
O2_2 O -0.9888(2) 1.06341(19) 0.62129(16)
O3_2 O -1.2128(2) 1.04954(18) 0.73107(17)
O4 O 0.4425(2) -0.0776(2) 0.46284(18)
O5 O 0.5068(3) 0.0695(3) -0.1160(2)
O6 O 0.6781(2) -0.2024(2) 0.3006(2)
loop_
_geom_bond_atom_site_label_1
_geom_bond_atom_site_label_2
_geom_bond_site_symmetry_1
_geom_bond_site_symmetry_2
Zn1 O1 1_555 1_555
O1 H1 1_555 1_555
O2 C8 1_555 1_555
O3 C8 1_555 1_555
N1 N2 1_555 1_555
N2 Zn1 1_555 1_555
N3 N2 1_555 1_555
N4 N3 1_555 1_555
N5 Zn1 1_555 1_555
N6 Zn1 1_555 1_555
C1 C2 1_555 1_555
C2 H2 1_555 1_555
C3 C2 1_555 1_555
C4 C3 1_555 1_555
H3 C4 1_555 1_555
C5 C4 1_555 1_555
H4 C5 1_555 1_555
C6 C1 1_555 1_555
H5 C6 1_555 1_555
C7 N1 1_555 1_555
C8 C3 1_555 1_555
C9 N6 1_555 1_555
H6 C9 1_555 1_555
C10 N5 1_555 1_555
H7 C10 1_555 1_555
C11 C10 1_555 1_555
H8 C11 1_555 1_555
C12 C11 1_555 1_555
H9 C12 1_555 1_555
C13 C12 1_555 1_555
H10 C13 1_555 1_555
C14 N5 1_555 1_555
C15 N6 1_555 1_555
C16 C15 1_555 1_555
H11 C16 1_555 1_555
C17 C16 1_555 1_555
C18 C9 1_555 1_555
H12 C18 1_555 1_555
H13 O1 1_555 1_555
H14 C17 1_555 1_555
Zn1_2 O2 1_555 1_555
O2_2 Zn1 1_555 1_555
O3_2 Zn1 1_555 1_555
O3 Zn1_2 1_555 1_555
N4 C7 1_555 1_555
C1 C7 1_555 1_555
C5 C6 1_555 1_555
C13 C14 1_555 1_555
C14 C15 1_555 1_555
C17 C18 1_555 1_555

#END
