
#######################################################################
#
#                 Cambridge Crystallographic Data Centre
#                                CCDC 
#
#######################################################################
#
# If this CIF has been generated from an entry in the Cambridge 
# Structural Database, then it will include bibliographic, chemical, 
# crystal, experimental, refinement or atomic coordinate data resulting 
# from the CCDC's data processing and validation procedures.
#
#######################################################################

data_ILIZUZ
_symmetry_cell_setting           orthorhombic
_symmetry_space_group_name_H-M   'P n a 21'
_symmetry_Int_Tables_number      33
_space_group_name_Hall           'P 2c -2n'
loop_
_symmetry_equiv_pos_site_id
_symmetry_equiv_pos_as_xyz
1 x,y,z
2 -x,-y,1/2+z
3 1/2+x,1/2-y,z
4 1/2-x,1/2+y,1/2+z
_cell_length_a                   17.680(3)
_cell_length_b                   24.516(4)
_cell_length_c                   12.4655(18)
_cell_angle_alpha                90
_cell_angle_beta                 90
_cell_angle_gamma                90
_cell_volume                     5403.08
loop_
_atom_site_label
_atom_site_type_symbol
_atom_site_fract_x
_atom_site_fract_y
_atom_site_fract_z
Cd1 Cd 0.778750(14) 0.355601(8) -0.00164(2)
Cd2 Cd 0.779960(15) 0.306970(9) -0.49919(3)
Cd3 Cd 0.873370(14) 0.387850(10) -0.258970(19)
Cd4 Cd 0.687826(14) 0.392799(10) 0.26090(2)
N1 N 0.30522(16) 0.15002(11) 0.2503(2)
N2 N 0.33507(17) 0.18063(13) 0.3274(2)
N3 N 0.91008(18) 0.39071(12) -0.4992(3)
N4 N 0.6859(2) 0.36450(14) -0.5622(3)
N5 N 0.70726(19) 0.23151(13) -0.5394(3)
N6 N 0.6580(2) 0.39602(12) -0.4992(3)
N7 N 0.72219(17) 0.32168(13) -0.3281(2)
N8 N 0.75237(16) 0.34926(11) -0.2503(2)
N9 N 0.40239(17) 0.20013(13) 0.2956(2)
N10 N 0.65210(18) 0.30665(13) -0.3016(2)
N11 N 0.8519(2) 0.22792(14) -0.4651(3)
N12 N 0.87533(18) 0.36249(14) -0.4385(3)
N13 N 0.35245(17) 0.14992(12) 0.1649(2)
N14 N 0.70378(17) 0.35260(13) -0.1684(2)
N15 N 0.7133(2) 0.42378(14) 0.0894(3)
N16 N 0.6777(2) 0.45927(14) 0.0497(3)
N17 N 0.9441(2) 0.41734(16) -0.5576(3)
N18 N 0.6416(2) 0.49386(16) 0.0131(4)
N19 N 0.6307(2) 0.42654(17) -0.4420(3)
N20 N 0.8560(2) 0.41814(13) -0.0827(3)
N21 N 0.8446(2) 0.46420(14) -0.0668(3)
N22 N 0.8344(3) 0.51073(16) -0.0540(3)
C1 C 0.6423(2) 0.32622(15) -0.2024(3)
C2 C 0.4115(2) 0.18043(15) 0.1961(3)
C3 C 0.4553(2) 0.26981(15) -0.1105(3)
C4 C 0.48180(19) 0.35085(14) -0.0083(3)
H1 H 0.4675 0.3761 0.0434
C5 C 0.56458(19) 0.16283(14) -0.0109(3)
H2 H 0.5766 0.1397 -0.0675
C6 C 0.8186(2) 0.17998(16) -0.4922(4)
C7 C 0.6132(2) 0.20485(15) 0.0171(3)
H3 H 0.6580 0.2096 -0.0207
C8 C 0.7373(2) 0.18187(16) -0.5209(3)
C9 C 0.4805(2) 0.18953(15) 0.1322(3)
C10 C 0.4354(2) 0.30784(14) -0.0300(3)
H4 H 0.3906 0.3035 0.0082
C11 C 0.4977(2) 0.15544(15) 0.0463(3)
H5 H 0.4644 0.1277 0.0270
C12 C 0.4071(2) 0.22031(15) -0.1302(3)
C13 C 0.6469(2) 0.28711(16) 0.1269(3)
C14 C 0.5714(2) 0.32008(15) -0.1427(3)
C15 C 0.5303(2) 0.23173(15) 0.1592(3)
H6 H 0.5192 0.2544 0.2169
C16 C 0.5227(2) 0.27718(15) -0.1657(3)
H7 H 0.5356 0.2527 -0.2197
C17 C 0.9244(2) 0.22780(18) -0.4363(4)
H8 H 0.9463 0.2607 -0.4159
C18 C 0.6168(3) 0.13926(18) -0.5526(4)
H9 H 0.5870 0.1080 -0.5565
C19 C 0.9347(3) 0.1328(2) -0.4634(4)
H10 H 0.9626 0.1007 -0.4620
C20 C 0.6337(2) 0.23515(17) -0.5646(3)
H11 H 0.6137 0.2696 -0.5778
C21 C 0.5850(3) 0.18998(17) -0.5721(4)
H12 H 0.5341 0.1939 -0.5892
C22 C 0.6936(2) 0.13498(17) -0.5269(4)
H13 H 0.7151 0.1010 -0.5140
C23 C 0.8603(2) 0.13174(17) -0.4934(4)
H14 H 0.8378 0.0992 -0.5145
C24 C 0.5510(2) 0.35783(15) -0.0627(3)
H15 H 0.5827 0.3869 -0.0460
C25 C 0.5956(2) 0.23991(16) 0.1011(3)
C26 C 0.9686(3) 0.18170(18) -0.4351(4)
H16 H 1.0194 0.1833 -0.4161
N23 N 0.8544(2) 0.48026(15) -0.3106(3)
C27 C 0.7838(2) 0.50512(19) -0.3162(5)
H17 H 0.7407 0.4841 -0.3269
C28 C 0.7777(3) 0.56140(19) -0.3058(6)
H18 H 0.7305 0.5780 -0.3096
C29 C 0.8422(4) 0.59283(15) -0.2899(5)
H19 H 0.8381 0.6305 -0.2830
C30 C 0.9128(3) 0.56797(18) -0.2843(5)
H20 H 0.9559 0.5890 -0.2736
C31 C 0.9188(2) 0.51169(18) -0.2947(5)
N24 N 0.9898(2) 0.42917(15) -0.2837(3)
C32 C 0.9887(2) 0.48513(15) -0.3015(4)
C33 C 1.0556(3) 0.51283(16) -0.3226(5)
H21 H 1.0549 0.5503 -0.3345
C34 C 1.1237(2) 0.4846(2) -0.3259(5)
H22 H 1.1685 0.5031 -0.3400
C35 C 1.1249(2) 0.4286(2) -0.3081(5)
H23 H 1.1705 0.4097 -0.3104
C36 C 1.0579(2) 0.40090(15) -0.2870(4)
H24 H 1.0587 0.3635 -0.2751
N25 N 0.5700(2) 0.43402(18) 0.2776(4)
C37 C 0.5046(3) 0.40356(19) 0.2621(5)
H25 H 0.5078 0.3661 0.2507
C38 C 0.4343(2) 0.4290(2) 0.2636(6)
H26 H 0.3906 0.4086 0.2533
C39 C 0.4295(3) 0.4849(3) 0.2807(6)
H27 H 0.3825 0.5020 0.2817
C40 C 0.4949(3) 0.51540(19) 0.2962(6)
H28 H 0.4917 0.5528 0.3076
C41 C 0.5651(3) 0.48995(18) 0.2946(5)
N26 N 0.7030(3) 0.47914(17) 0.3341(4)
C42 C 0.6410(3) 0.5136(2) 0.3234(5)
C43 C 0.6463(3) 0.56778(19) 0.3551(6)
H29 H 0.6048 0.5908 0.3480
C44 C 0.7137(4) 0.58760(18) 0.3974(6)
H30 H 0.7173 0.6239 0.4185
C45 C 0.7757(3) 0.5532(2) 0.4080(6)
H31 H 0.8208 0.5664 0.4363
C46 C 0.7704(3) 0.4989(2) 0.3763(5)
H32 H 0.8119 0.4759 0.3834
O1 O 0.70843(14) 0.29011(11) 0.0746(2)
O2 O 0.34890(14) 0.21419(10) -0.0723(2)
O3 O 0.62446(15) 0.32017(12) 0.1977(2)
O4 O 0.42860(15) 0.18925(11) -0.2038(2)
Cd1B Cd 0.278750(14) 0.144399(8) -0.00164(2)
Cd2B Cd 0.279960(15) 0.193030(9) 0.50081(3)
Cd3B Cd 0.373370(14) 0.112150(10) -0.258970(19)
Cd4B Cd 0.187826(14) 0.107201(10) 0.26090(2)
Cd4_2 Cd 0.687826(14) 0.392799(10) -0.73910(2)
N1B N 0.80522(16) 0.34998(11) 0.2503(2)
N2B N 0.83507(17) 0.31937(13) -0.6726(2)
N4_2 N 0.6859(2) 0.36450(14) 0.4378(3)
N13B N 0.85245(17) 0.35008(12) 0.1649(2)
O2B O 0.84890(14) 0.28581(10) -0.0723(2)
O4B O 0.92860(15) 0.31075(11) -0.2038(2)
O5 O 0.7951(2) 0.20041(14) 0.1766(3)
C47? C 1.0498(2) 0.41748(16) 0.7081(4)
C48? C 0.7655(2) 0.49884(19) 0.7078(5)
C49? C 0.7492(3) 0.5542(2) 0.7139(6)
C50? C 0.8076(4) 0.59220(16) 0.7128(6)
C51? C 0.8823(3) 0.57480(17) 0.7056(6)
C52? C 0.8985(2) 0.51942(19) 0.6995(5)
C53? C 0.9712(2) 0.49764(15) 0.7050(4)
C54? C 1.0348(3) 0.52989(15) 0.6881(5)
C55? C 1.1058(3) 0.5059(2) 0.6811(5)
C56? C 1.1134(2) 0.4497(2) 0.6911(5)
C57? C 0.7986(3) 0.4862(2) 0.3903(5)
C58? C 0.5187(3) 0.4415(2) 0.2264(5)
C59? C 0.4641(3) 0.4812(3) 0.2075(6)
C60? C 0.4792(3) 0.5355(2) 0.2317(6)
C61? C 0.5489(4) 0.55005(17) 0.2748(6)
C62? C 0.6034(3) 0.51035(18) 0.2937(5)
C63? C 0.6764(3) 0.5204(2) 0.3383(5)
C64? C 0.6922(4) 0.5697(2) 0.3889(6)
C65? C 0.7613(4) 0.5771(2) 0.4402(5)
C66? C 0.8145(3) 0.5354(2) 0.4409(6)
H33? H 1.0549 0.3799 0.7148
H34? H 0.7265 0.4734 0.7085
H35? H 0.6993 0.5659 0.7187
H36? H 0.7967 0.6293 0.7169
H37? H 0.9213 0.6002 0.7048
H38? H 1.0297 0.5675 0.6814
H39? H 1.1484 0.5275 0.6698
H40? H 1.1609 0.4337 0.6864
H41? H 0.8342 0.4582 0.3907
H42? H 0.5085 0.4052 0.2102
H43? H 0.4175 0.4715 0.1787
H44? H 0.4428 0.5621 0.2190
H45? H 0.5590 0.5864 0.2910
H46? H 0.6566 0.5976 0.3884
H47? H 0.7719 0.6101 0.4740
H48? H 0.8607 0.5404 0.4752
N27? N 0.8402(3) 0.48144(16) 0.7006(4)
N28? N 0.9788(2) 0.44143(15) 0.7150(3)
N29? N 0.5883(2) 0.45609(17) 0.2695(4)
N30? N 0.7296(3) 0.47870(17) 0.3390(4)
loop_
_geom_bond_atom_site_label_1
_geom_bond_atom_site_label_2
_geom_bond_site_symmetry_1
_geom_bond_site_symmetry_2
Cd1 N14 1_555 1_555
Cd2 N4 1_555 1_555
Cd3 N8 1_555 1_555
Cd4 N15 1_555 1_555
N1 N2 1_555 1_555
N2 N9 1_555 1_555
N3 N12 1_555 1_555
N4 N6 1_555 1_555
N5 Cd2 1_555 1_555
N6 N19 1_555 1_555
N7 Cd2 1_555 1_555
N8 N7 1_555 1_555
N9 C2 1_555 1_555
N10 N7 1_555 1_555
N11 Cd2 1_555 1_555
N12 Cd2 1_555 1_555
N13 N1 1_555 1_555
N14 N8 1_555 1_555
N15 Cd1 1_555 1_555
N16 N15 1_555 1_555
N17 N3 1_555 1_555
N18 N16 1_555 1_555
N20 Cd1 1_555 1_555
N21 N20 1_555 1_555
N22 N21 1_555 1_555
C1 N10 1_555 1_555
C2 N13 1_555 1_555
C3 C10 1_555 1_555
C4 H1 1_555 1_555
C5 H2 1_555 1_555
C6 N11 1_555 1_555
C7 C5 1_555 1_555
H3 C7 1_555 1_555
C8 N5 1_555 1_555
C9 C2 1_555 1_555
C10 C4 1_555 1_555
H4 C10 1_555 1_555
C11 C5 1_555 1_555
H5 C11 1_555 1_555
C12 C3 1_555 1_555
C13 C25 1_555 1_555
C14 C1 1_555 1_555
C15 C9 1_555 1_555
H6 C15 1_555 1_555
C16 C3 1_555 1_555
H7 C16 1_555 1_555
C17 N11 1_555 1_555
H8 C17 1_555 1_555
C18 H9 1_555 1_555
C19 H10 1_555 1_555
C20 N5 1_555 1_555
H11 C20 1_555 1_555
C21 C18 1_555 1_555
H12 C21 1_555 1_555
C22 C8 1_555 1_555
H13 C22 1_555 1_555
C23 C6 1_555 1_555
H14 C23 1_555 1_555
C24 C4 1_555 1_555
H15 C24 1_555 1_555
C25 C7 1_555 1_555
C26 C17 1_555 1_555
H16 C26 1_555 1_555
N23 Cd3 1_555 1_555
C27 N23 1_555 1_555
H17 C27 1_555 1_555
C28 C27 1_555 1_555
H18 C28 1_555 1_555
C29 C28 1_555 1_555
H19 C29 1_555 1_555
C30 C29 1_555 1_555
H20 C30 1_555 1_555
C31 N23 1_555 1_555
N24 Cd3 1_555 1_555
C32 C31 1_555 1_555
C33 C32 1_555 1_555
H21 C33 1_555 1_555
C34 C33 1_555 1_555
H22 C34 1_555 1_555
C35 C34 1_555 1_555
H23 C35 1_555 1_555
C36 N24 1_555 1_555
H24 C36 1_555 1_555
N25 Cd4 1_555 1_555
C37 N25 1_555 1_555
H25 C37 1_555 1_555
C38 C37 1_555 1_555
H26 C38 1_555 1_555
C39 C38 1_555 1_555
H27 C39 1_555 1_555
C40 C39 1_555 1_555
H28 C40 1_555 1_555
C41 N25 1_555 1_555
N26 Cd4 1_555 1_555
C42 C41 1_555 1_555
C43 C42 1_555 1_555
H29 C43 1_555 1_555
C44 C43 1_555 1_555
H30 C44 1_555 1_555
C45 C44 1_555 1_555
H31 C45 1_555 1_555
C46 N26 1_555 1_555
H32 C46 1_555 1_555
O1 Cd1 1_555 1_555
O2 C12 1_555 1_555
O3 Cd4 1_555 1_555
O4 C12 1_555 1_555
Cd1B N13 1_555 1_555
Cd2B N2 1_555 1_555
Cd3B O4 1_555 1_555
Cd4B N1 1_555 1_555
Cd4_2 N4 1_555 1_555
N1B Cd4 1_555 1_555
N2B Cd2 1_555 1_555
N4_2 Cd4 1_555 1_555
N13B Cd1 1_555 1_555
O2B Cd1 1_555 1_555
O4B Cd3 1_555 1_555
Cd3 N12 1_555 1_555
Cd3 N20 1_555 1_555
N14 C1 1_555 1_555
C6 C8 1_555 1_555
C9 C11 1_555 1_555
C13 O1 1_555 1_555
C13 O3 1_555 1_555
C14 C16 1_555 1_555
C14 C24 1_555 1_555
C15 C25 1_555 1_555
C18 C22 1_555 1_555
C19 C23 1_555 1_555
C19 C26 1_555 1_555
C20 C21 1_555 1_555
C30 C31 1_555 1_555
N24 C32 1_555 1_555
C35 C36 1_555 1_555
C40 C41 1_555 1_555
N26 C42 1_555 1_555
C45 C46 1_555 1_555
O2 Cd1B 1_555 1_555
N1B N13B 1_555 1_555

#END
