
#######################################################################
#
#                 Cambridge Crystallographic Data Centre
#                                CCDC 
#
#######################################################################
#
# If this CIF has been generated from an entry in the Cambridge 
# Structural Database, then it will include bibliographic, chemical, 
# crystal, experimental, refinement or atomic coordinate data resulting 
# from the CCDC's data processing and validation procedures.
#
#######################################################################

data_ILOJID
_symmetry_cell_setting           monoclinic
_symmetry_space_group_name_H-M   'P 21/c'
_symmetry_Int_Tables_number      14
_space_group_name_Hall           '-P 2ybc'
loop_
_symmetry_equiv_pos_site_id
_symmetry_equiv_pos_as_xyz
1 x,y,z
2 -x,1/2+y,1/2-z
3 -x,-y,-z
4 x,1/2-y,1/2+z
_cell_length_a                   15.237(7)
_cell_length_b                   10.469(5)
_cell_length_c                   15.889(7)
_cell_angle_alpha                90
_cell_angle_beta                 91.075(7)
_cell_angle_gamma                90
_cell_volume                     2534.11
loop_
_atom_site_label
_atom_site_type_symbol
_atom_site_fract_x
_atom_site_fract_y
_atom_site_fract_z
Co1 Co 0.05095(4) 0.04315(6) 0.35254(4)
C1 C 0.2534(4) -0.0014(5) 0.3665(4)
H1 H 0.2457 -0.0887 0.3744
C2 C 0.2255(4) 0.1901(5) 0.3446(3)
H2 H 0.1966 0.2671 0.3345
C3 C 0.3782(4) 0.2772(6) 0.3552(4)
H3 H 0.3525 0.3562 0.3346
H4 H 0.4245 0.2531 0.3173
C4 C 0.4174(4) 0.2996(5) 0.4414(4)
C5 C 0.3671(4) 0.3269(6) 0.5098(4)
H5 H 0.3063 0.3303 0.5040
C6 C 0.4065(4) 0.3491(5) 0.5872(4)
H6 H 0.3713 0.3659 0.6330
C7 C 0.4963(4) 0.3472(5) 0.5987(4)
C8 C 0.5452(4) 0.3213(6) 0.5293(4)
H7 H 0.6061 0.3200 0.5348
C9 C 0.5071(4) 0.2972(6) 0.4515(4)
H8 H 0.5422 0.2793 0.4057
C10 C 0.5393(3) 0.3751(5) 0.6810(4)
C11 C 0.5095(4) 0.4684(5) 0.7340(4)
H9 H 0.4577 0.5115 0.7207
C12 C 0.5558(4) 0.4988(6) 0.8070(4)
H10 H 0.5345 0.5623 0.8421
C13 C 0.6324(4) 0.4372(6) 0.8285(3)
C14 C 0.6608(4) 0.3397(6) 0.7782(4)
H11 H 0.7112 0.2943 0.7933
C15 C 0.6148(4) 0.3087(6) 0.7049(4)
H12 H 0.6348 0.2426 0.6711
C16 C 0.6855(4) 0.4744(6) 0.9052(3)
H13 H 0.6572 0.5456 0.9328
H14 H 0.6875 0.4033 0.9442
C17 C 0.8478(4) 0.4477(5) 0.8985(3)
H15 H 0.8521 0.3739 0.9309
C18 C 0.8756(4) 0.6036(5) 0.8237(4)
H16 H 0.9070 0.6632 0.7929
C19 C -0.0705(3) 0.4593(4) 0.3309(3)
C20 C -0.0331(3) 0.4797(4) 0.4180(3)
C21 C 0.0113(3) 0.3823(4) 0.4613(3)
C22 C 0.0270(3) 0.2572(4) 0.4211(3)
C23 C 0.0429(3) 0.4033(4) 0.5427(3)
H17 H 0.0714 0.3374 0.5714
N1 N 0.1863(3) 0.0794(4) 0.3512(2)
N2 N 0.3113(3) 0.1782(4) 0.3541(3)
N3 N 0.3297(3) 0.0534(5) 0.3693(4)
N4 N 0.9144(3) 0.5032(4) 0.8609(2)
N5 N 0.7750(3) 0.5107(4) 0.8839(3)
N6 N 0.7914(3) 0.6126(5) 0.8334(3)
O1 O 0.0363(2) 0.1585(3) 0.46635(18)
O2 O 0.0321(2) 0.2484(3) 0.34272(19)
O3 O -0.1336(2) 0.3889(3) 0.3203(2)
O4 O -0.0330(2) 0.5236(3) 0.27365(19)
O5 O 0.0781(2) -0.1276(3) 0.4098(2)
H18 H 0.0388 -0.1452 0.4424
H19 H 0.086(4) -0.182(5) 0.379(3)
Co1B Co -0.05095(4) 0.95685(6) 0.64746(4)
Co1A Co -1.05095(4) 0.54315(6) 0.14746(4)
Co1A_2 Co -0.05095(4) 0.54315(6) 0.14746(4)
Co1C Co 0.05095(4) 0.45685(6) 0.85254(4)
Co1C_2 Co 1.05095(4) 0.45685(6) 0.85254(4)
C1B C -0.2534(4) 1.0014(5) 0.6335(4)
H1B H -0.2457 1.0887 0.6256
C2B C -0.2255(4) 0.8099(5) 0.6554(3)
H2B H -0.1966 0.7329 0.6655
C3B C -0.3782(4) 0.7228(6) 0.6448(4)
H3B H -0.3525 0.6438 0.6654
H4B H -0.4245 0.7469 0.6827
C4B C -0.4174(4) 0.7004(5) 0.5586(4)
C5B C -0.3671(4) 0.6731(6) 0.4902(4)
H5B H -0.3063 0.6697 0.4960
C6B C -0.4065(4) 0.6509(5) 0.4128(4)
H6B H -0.3713 0.6341 0.3670
C7B C -0.4963(4) 0.6528(5) 0.4013(4)
C8B C -0.5452(4) 0.6787(6) 0.4707(4)
H7B H -0.6061 0.6800 0.4652
C9B C -0.5071(4) 0.7028(6) 0.5485(4)
H8B H -0.5422 0.7207 0.5943
C10B C -0.5393(3) 0.6249(5) 0.3190(4)
C11B C -0.5095(4) 0.5316(5) 0.2660(4)
H9B H -0.4577 0.4885 0.2793
C12B C -0.5558(4) 0.5012(6) 0.1930(4)
H10B H -0.5345 0.4377 0.1579
C13B C -0.6324(4) 0.5628(6) 0.1715(3)
C14B C -0.6608(4) 0.6603(6) 0.2218(4)
H11B H -0.7112 0.7057 0.2067
C15B C -0.6148(4) 0.6913(6) 0.2951(4)
H12B H -0.6348 0.7574 0.3289
C16B C -0.6855(4) 0.5256(6) 0.0948(3)
H13B H -0.6572 0.4544 0.0672
H14B H -0.6875 0.5967 0.0558
C17B C -0.8478(4) 0.5523(5) 0.1015(3)
H15B H -0.8521 0.6261 0.0691
C18B C -0.8756(4) 0.3964(5) 0.1763(4)
H16B H -0.9070 0.3368 0.2071
C19B C 0.0705(3) 0.5407(4) 0.6691(3)
C20B C 0.0331(3) 0.5203(4) 0.5820(3)
C21B C -0.0113(3) 0.6177(4) 0.5387(3)
C22B C -0.0270(3) 0.7428(4) 0.5789(3)
C23B C -0.0429(3) 0.5967(4) 0.4573(3)
H17B H -0.0714 0.6626 0.4286
N1B N -0.1863(3) 0.9206(4) 0.6488(2)
N2B N -0.3113(3) 0.8218(4) 0.6459(3)
N3B N -0.3297(3) 0.9466(5) 0.6307(4)
N4B N -0.9144(3) 0.4968(4) 0.1391(2)
N4A N 0.0856(3) 1.0032(4) 0.6391(2)
N4C N -0.0856(3) -0.0032(4) 0.3609(2)
N5B N -0.7750(3) 0.4893(4) 0.1161(3)
N6B N -0.7914(3) 0.3874(5) 0.1666(3)
O1B O -0.0363(2) 0.8415(3) 0.53365(18)
O2B O -0.0321(2) 0.7516(3) 0.65728(19)
O3B O 0.1336(2) 0.6111(3) 0.6797(2)
O4B O 0.0330(2) 0.4764(3) 0.72635(19)
O4A O 0.0330(2) 0.0236(3) 0.22635(19)
O4C O -0.0330(2) 0.9764(3) 0.77365(19)
O5B O -0.0781(2) 1.1276(3) 0.5902(2)
H18B H -0.0388 1.1452 0.5576
H19B H -0.086(4) 1.182(5) 0.621(3)
O6 O 0.2168(4) 0.5136(5) 0.3918(4)
H24 H 0.1838 0.5624 0.3632
H25 H 0.204(5) 0.438(2) 0.378(4)
O7 O 0.1129(3) 0.6902(4) 0.2985(2)
H21 H 0.064(3) 0.650(6) 0.301(4)
H22 H 0.112(2) 0.728(3) 0.2529(15)
O8 O 0.2422(4) 0.8334(7) 0.0446(4)
H20 H 0.205(6) 0.870(9) 0.076(3)
H23 H 0.2358 0.8729 -0.0036
loop_
_geom_bond_atom_site_label_1
_geom_bond_atom_site_label_2
_geom_bond_site_symmetry_1
_geom_bond_site_symmetry_2
Co1 N1 1_555 1_555
C1 H1 1_555 1_555
C2 H2 1_555 1_555
C3 H3 1_555 1_555
H4 C3 1_555 1_555
C4 C3 1_555 1_555
C5 C4 1_555 1_555
H5 C5 1_555 1_555
C6 C5 1_555 1_555
H6 C6 1_555 1_555
C7 C6 1_555 1_555
C8 C7 1_555 1_555
H7 C8 1_555 1_555
C9 C4 1_555 1_555
H8 C9 1_555 1_555
C10 C7 1_555 1_555
C11 C10 1_555 1_555
H9 C11 1_555 1_555
C12 C11 1_555 1_555
H10 C12 1_555 1_555
C13 C12 1_555 1_555
C14 C13 1_555 1_555
H11 C14 1_555 1_555
C15 C10 1_555 1_555
H12 C15 1_555 1_555
C16 C13 1_555 1_555
H13 C16 1_555 1_555
H14 C16 1_555 1_555
C17 H15 1_555 1_555
C18 H16 1_555 1_555
C19 C20 1_555 1_555
C20 C21 1_555 1_555
C21 C22 1_555 1_555
C22 O1 1_555 1_555
C23 C21 1_555 1_555
H17 C23 1_555 1_555
N1 C1 1_555 1_555
N2 C2 1_555 1_555
N3 C1 1_555 1_555
N4 C17 1_555 1_555
N5 C16 1_555 1_555
N6 C18 1_555 1_555
O1 Co1 1_555 1_555
O2 Co1 1_555 1_555
O3 C19 1_555 1_555
O4 C19 1_555 1_555
O5 Co1 1_555 1_555
H18 O5 1_555 1_555
O6 H24 1_555 1_555
O7 H21 1_555 1_555
O8 H20 1_555 1_555
H19 O5 1_555 1_555
H22 O7 1_555 1_555
H23 O8 1_555 1_555
H25 O6 1_555 1_555
Co1B N1B 1_555 1_555
Co1A N4B 1_555 1_555
Co1A_2 O4 1_555 1_555
Co1C O4B 1_555 1_555
Co1C_2 N4 1_555 1_555
C1B H1B 1_555 1_555
C2B H2B 1_555 1_555
C3B H3B 1_555 1_555
H4B C3B 1_555 1_555
C4B C3B 1_555 1_555
C5B C4B 1_555 1_555
H5B C5B 1_555 1_555
C6B C5B 1_555 1_555
H6B C6B 1_555 1_555
C7B C6B 1_555 1_555
C8B C7B 1_555 1_555
H7B C8B 1_555 1_555
C9B C4B 1_555 1_555
H8B C9B 1_555 1_555
C10B C7B 1_555 1_555
C11B C10B 1_555 1_555
H9B C11B 1_555 1_555
C12B C11B 1_555 1_555
H10B C12B 1_555 1_555
C13B C12B 1_555 1_555
C14B C13B 1_555 1_555
H11B C14B 1_555 1_555
C15B C10B 1_555 1_555
H12B C15B 1_555 1_555
C16B C13B 1_555 1_555
H13B C16B 1_555 1_555
H14B C16B 1_555 1_555
C17B H15B 1_555 1_555
C18B H16B 1_555 1_555
C19B C20B 1_555 1_555
C20B C23 1_555 1_555
C21B C20B 1_555 1_555
C22B C21B 1_555 1_555
C23B C20 1_555 1_555
H17B C23B 1_555 1_555
N1B C1B 1_555 1_555
N2B C2B 1_555 1_555
N3B C1B 1_555 1_555
N4B C17B 1_555 1_555
N4A Co1B 1_555 1_555
N4C Co1 1_555 1_555
N5B C16B 1_555 1_555
N6B C18B 1_555 1_555
O1B Co1B 1_555 1_555
O2B Co1B 1_555 1_555
O3B C19B 1_555 1_555
O4B C19B 1_555 1_555
O4A Co1 1_555 1_555
O4C Co1B 1_555 1_555
O5B Co1B 1_555 1_555
H18B O5B 1_555 1_555
H19B O5B 1_555 1_555
C2 N1 1_555 1_555
C3 N2 1_555 1_555
C8 C9 1_555 1_555
C14 C15 1_555 1_555
C17 N5 1_555 1_555
C18 N4 1_555 1_555
C22 O2 1_555 1_555
N2 N3 1_555 1_555
N5 N6 1_555 1_555
C2B N1B 1_555 1_555
C3B N2B 1_555 1_555
C8B C9B 1_555 1_555
C14B C15B 1_555 1_555
C17B N5B 1_555 1_555
C18B N4B 1_555 1_555
C21B C23B 1_555 1_555
C22B O1B 1_555 1_555
C22B O2B 1_555 1_555
N2B N3B 1_555 1_555
N5B N6B 1_555 1_555

#END
