
#######################################################################
#
#                 Cambridge Crystallographic Data Centre
#                                CCDC 
#
#######################################################################
#
# If this CIF has been generated from an entry in the Cambridge 
# Structural Database, then it will include bibliographic, chemical, 
# crystal, experimental, refinement or atomic coordinate data resulting 
# from the CCDC's data processing and validation procedures.
#
#######################################################################

data_ILOKOJ
_symmetry_cell_setting           orthorhombic
_symmetry_space_group_name_H-M   'P b c a'
_symmetry_Int_Tables_number      61
_space_group_name_Hall           '-P 2ac 2ab'
loop_
_symmetry_equiv_pos_site_id
_symmetry_equiv_pos_as_xyz
1 x,y,z
2 1/2+x,y,1/2-z
3 x,1/2-y,1/2+z
4 1/2-x,1/2+y,z
5 -x,-y,-z
6 1/2-x,-y,1/2+z
7 -x,1/2+y,1/2-z
8 1/2+x,1/2-y,-z
_cell_length_a                   6.5705(9)
_cell_length_b                   13.5065(18)
_cell_length_c                   31.332(4)
_cell_angle_alpha                90
_cell_angle_beta                 90
_cell_angle_gamma                90
_cell_volume                     2780.54
loop_
_atom_site_label
_atom_site_type_symbol
_atom_site_fract_x
_atom_site_fract_y
_atom_site_fract_z
V1 V 0.04455(6) 0.26706(3) 0.172632(10)
K1 K 0.51747(8) 0.17791(6) 0.219780(18)
S1 S -0.18540(13) 0.40297(6) 0.17823(2)
S2 S -0.51775(12) 0.46567(6) 0.12195(2)
O1 O 0.2804(2) 0.20984(12) 0.14582(4)
O2 O 0.1681(3) 0.30797(13) 0.21490(5)
O3 O -0.0972(3) 0.17596(12) 0.18840(5)
N1 N -0.0533(3) 0.28966(13) 0.10685(5)
N2 N -0.2314(3) 0.34293(13) 0.09676(6)
C1 C 0.2084(3) 0.19325(15) 0.07134(6)
C2 C 0.3309(3) 0.17637(15) 0.10756(7)
C3 C 0.5161(4) 0.12550(18) 0.10222(8)
H1 H 0.5974 0.1119 0.1258
C4 C 0.5776(4) 0.09570(19) 0.06211(9)
H2 H 0.7006 0.0624 0.0591
C5 C 0.4597(4) 0.11444(17) 0.02611(8)
H3 H 0.5047 0.0951 -0.0008
C6 C 0.2767(4) 0.16162(16) 0.03076(7)
H4 H 0.1960 0.1731 0.0069
C7 C 0.0215(3) 0.24718(15) 0.07337(6)
H5 H -0.0532 0.2522 0.0483
C8 C -0.2974(4) 0.39396(17) 0.12844(7)
C9 C -0.5937(4) 0.43573(19) 0.06855(10)
H6 H -0.7153 0.4715 0.0615
H7 H -0.6193 0.3659 0.0665
H8 H -0.4871 0.4537 0.0491
O4 O 0.2133(4) 0.03318(19) 0.22597(8)
H9 H 0.273(9) -0.019(4) 0.2290(14)
H10 H 0.131(10) 0.031(4) 0.2096(18)
O2A O 0.6681(3) 0.30797(13) 0.28510(5)
O3_2 O 0.9028(3) 0.17596(12) 0.18840(5)
O3A O 0.4028(3) 0.17596(12) 0.31160(5)
O4A O 0.7133(4) 0.03318(19) 0.27403(8)
K1A K 0.01747(8) 0.17791(6) 0.280220(18)
K1_2 K -0.48253(8) 0.17791(6) 0.219780(18)
H9A H 0.773(9) -0.019(4) 0.2710(14)
H10A H 0.631(10) 0.031(4) 0.2904(18)
loop_
_geom_bond_atom_site_label_1
_geom_bond_atom_site_label_2
_geom_bond_site_symmetry_1
_geom_bond_site_symmetry_2
V1 S1 1_555 1_555
K1 O1 1_555 1_555
S1 C8 1_555 1_555
S2 C8 1_555 1_555
O1 V1 1_555 1_555
O2 V1 1_555 1_555
O3 V1 1_555 1_555
N1 V1 1_555 1_555
N2 N1 1_555 1_555
C1 C2 1_555 1_555
C2 O1 1_555 1_555
C3 C2 1_555 1_555
H1 C3 1_555 1_555
C4 C3 1_555 1_555
H2 C4 1_555 1_555
C5 C4 1_555 1_555
H3 C5 1_555 1_555
C6 C1 1_555 1_555
H4 C6 1_555 1_555
C7 N1 1_555 1_555
H5 C7 1_555 1_555
C8 N2 1_555 1_555
C9 S2 1_555 1_555
H6 C9 1_555 1_555
H7 C9 1_555 1_555
H8 C9 1_555 1_555
O4 K1 1_555 1_555
H9 O4 1_555 1_555
H10 O4 1_555 1_555
O2A K1 1_555 1_555
O3_2 K1 1_555 1_555
O3A K1 1_555 1_555
O4A K1 1_555 1_555
K1A O2 1_555 1_555
K1_2 O3 1_555 1_555
H9A O4A 1_555 1_555
H10A O4A 1_555 1_555
K1 O2 1_555 1_555
O3 K1A 1_555 1_555
C1 C7 1_555 1_555
C5 C6 1_555 1_555
O4 K1A 1_555 1_555
O3A K1A 1_555 1_555

#END
