
#######################################################################
#
#                 Cambridge Crystallographic Data Centre
#                                CCDC 
#
#######################################################################
#
# If this CIF has been generated from an entry in the Cambridge 
# Structural Database, then it will include bibliographic, chemical, 
# crystal, experimental, refinement or atomic coordinate data resulting 
# from the CCDC's data processing and validation procedures.
#
#######################################################################

data_ILOKEA
_symmetry_cell_setting           orthorhombic
_symmetry_space_group_name_H-M   'P n m a'
_symmetry_Int_Tables_number      62
_space_group_name_Hall           '-P 2ac 2n'
loop_
_symmetry_equiv_pos_site_id
_symmetry_equiv_pos_as_xyz
1 x,y,z
2 1/2-x,-y,1/2+z
3 1/2+x,1/2-y,1/2-z
4 -x,1/2+y,-z
5 -x,-y,-z
6 1/2+x,y,1/2-z
7 1/2-x,1/2+y,1/2+z
8 x,1/2-y,z
_cell_length_a                   14.8802(15)
_cell_length_b                   18.6040(19)
_cell_length_c                   9.5356(10)
_cell_angle_alpha                90
_cell_angle_beta                 90
_cell_angle_gamma                90
_cell_volume                     2639.75
loop_
_atom_site_label
_atom_site_type_symbol
_atom_site_fract_x
_atom_site_fract_y
_atom_site_fract_z
Co1 Co -0.51886(5) -0.2500 0.34896(7)
O1 O -0.6178(3) -0.2500 0.2109(4)
O2 O -0.5003(3) -0.2500 0.0724(5)
O3 O -0.8993(4) -0.2500 -0.3636(6)
H1 H -0.9366 -0.2500 -0.4310
O4 O -0.7930(4) -0.2500 -0.5013(7)
N1 N -0.4415(3) -0.1599(3) 0.3375(4)
N2 N -0.3946(4) -0.0493(4) 0.3842(8)
N3 N -0.3484(3) -0.0761(3) 0.2741(5)
C1 C -0.5834(4) -0.2500 0.0886(6)
C2 C -0.6448(4) -0.2500 -0.0342(6)
C3 C -0.6107(5) -0.2500 -0.1675(7)
H2 H -0.5467 -0.2500 -0.1805
C4 C -0.6664(4) -0.2500 -0.2850(7)
C5 C -0.7579(4) -0.2500 -0.2648(6)
C6 C -0.7929(4) -0.2500 -0.1305(7)
H3 H -0.8569 -0.2500 -0.1180
C7 C -0.7363(4) -0.2500 -0.0158(7)
H4 H -0.7603 -0.2500 0.0742
C8 C -0.8183(4) -0.2500 -0.3878(7)
C9 C -0.4500(4) -0.1017(4) 0.4206(7)
H5 H -0.4924 -0.0982 0.4961
C10 C -0.3778(3) -0.1420(4) 0.2481(6)
H6 H -0.3559 -0.1732 0.1756
C11 C -0.2779(4) -0.0370(5) 0.2014(8)
H7 H -0.2611 -0.0619 0.1172
H8 H -0.3014 0.0091 0.1751
C12 C -0.1950(4) -0.0257(4) 0.2924(7)
C13 C -0.1537(5) 0.0397(5) 0.2965(9)
H9 H -0.1778 0.0794 0.2443
C14 C -0.0759(6) 0.0484(4) 0.3772(8)
H10 H -0.0465 0.0943 0.3788
C15 C -0.0408(3) -0.0051(3) 0.4557(6)
C16 C -0.0852(5) -0.0677(4) 0.4513(12)
H11 H -0.0601 -0.1082 0.5000
C17 C -0.1601(5) -0.0776(4) 0.3717(12)
H12 H -0.1905 -0.1230 0.3775
O5 O -0.5647(4) -0.2500 -0.4641(5)
C18 C -0.6259(6) -0.2175(6) -0.4246(9)
O6 O -0.6459(6) -0.1593(9) -0.4826(10)
Co1_2 Co -0.51886(5) -0.2500 -0.65104(7)
Co1C Co 0.51886(5) 0.2500 0.65104(7)
N1D N 0.4415(3) 0.1599(3) 0.6625(4)
N1G N -0.4415(3) -0.3401(3) 0.3375(4)
N2D N 0.3946(4) 0.0493(4) 0.6158(8)
N3D N 0.3484(3) 0.0761(3) 0.7259(5)
C9D C 0.4500(4) 0.1017(4) 0.5794(7)
H5D H 0.4924 0.0982 0.5039
C10D C 0.3778(3) 0.1420(4) 0.7519(6)
H6D H 0.3559 0.1732 0.8244
C11D C 0.2779(4) 0.0370(5) 0.7986(8)
H7D H 0.2611 0.0619 0.8828
H8D H 0.3014 -0.0091 0.8249
C12D C 0.1950(4) 0.0257(4) 0.7076(7)
C13D C 0.1537(5) -0.0397(5) 0.7035(9)
H9D H 0.1778 -0.0794 0.7557
C14D C 0.0759(6) -0.0484(4) 0.6228(8)
H10D H 0.0465 -0.0943 0.6212
C15D C 0.0408(3) 0.0051(3) 0.5443(6)
C16D C 0.0852(5) 0.0677(4) 0.5487(12)
H11D H 0.0601 0.1082 0.5000
C17D C 0.1601(5) 0.0776(4) 0.6283(12)
H12D H 0.1905 0.1230 0.6225
O5_2 O -0.5647(4) -0.2500 0.5359(5)
C18G C -0.6259(6) -0.2825(6) -0.4246(9)
O6G O -0.6459(6) -0.3407(9) -0.4826(10)
loop_
_geom_bond_atom_site_label_1
_geom_bond_atom_site_label_2
_geom_bond_site_symmetry_1
_geom_bond_site_symmetry_2
Co1 O1 1_555 1_555
O1 C1 1_555 1_555
O2 C1 1_555 1_555
O3 H1 1_555 1_555
O4 C8 1_555 1_555
N1 Co1 1_555 1_555
N2 N3 1_555 1_555
N3 C10 1_555 1_555
C1 C2 1_555 1_555
C2 C3 1_555 1_555
C3 H2 1_555 1_555
C4 C3 1_555 1_555
C5 C4 1_555 1_555
C6 C5 1_555 1_555
H3 C6 1_555 1_555
C7 C2 1_555 1_555
H4 C7 1_555 1_555
C8 O3 1_555 1_555
C9 N1 1_555 1_555
H5 C9 1_555 1_555
C10 N1 1_555 1_555
H6 C10 1_555 1_555
C11 N3 1_555 1_555
H7 C11 1_555 1_555
H8 C11 1_555 1_555
C12 C11 1_555 1_555
C13 C12 1_555 1_555
H9 C13 1_555 1_555
C14 C13 1_555 1_555
H10 C14 1_555 1_555
C15 C14 1_555 1_555
C16 C15 1_555 1_555
H11 C16 1_555 1_555
C17 C12 1_555 1_555
H12 C17 1_555 1_555
O5 C18 1_555 1_555
C18 C4 1_555 1_555
O6 C18 1_555 1_555
Co1_2 O5 1_555 1_555
Co1C N1D 1_555 1_555
N1D C9D 1_555 1_555
N1G Co1 1_555 1_555
N2D N3D 1_555 1_555
N3D C10D 1_555 1_555
C9D N2D 1_555 1_555
H5D C9D 1_555 1_555
C10D N1D 1_555 1_555
H6D C10D 1_555 1_555
C11D N3D 1_555 1_555
H7D C11D 1_555 1_555
H8D C11D 1_555 1_555
C12D C11D 1_555 1_555
C13D C12D 1_555 1_555
H9D C13D 1_555 1_555
C14D C13D 1_555 1_555
H10D C14D 1_555 1_555
C15D C15 1_555 1_555
C16D C15D 1_555 1_555
H11D C16D 1_555 1_555
C17D C12D 1_555 1_555
H12D C17D 1_555 1_555
O5_2 Co1 1_555 1_555
C18G C4 1_555 1_555
O6G C18G 1_555 1_555
N2 C9 1_555 1_555
C5 C8 1_555 1_555
C6 C7 1_555 1_555
C16 C17 1_555 1_555
O5 C18G 1_555 1_555
C18 C18G 1_555 1_555
C14D C15D 1_555 1_555
C16D C17D 1_555 1_555

#END
