
#######################################################################
#
#                 Cambridge Crystallographic Data Centre
#                                CCDC 
#
#######################################################################
#
# If this CIF has been generated from an entry in the Cambridge 
# Structural Database, then it will include bibliographic, chemical, 
# crystal, experimental, refinement or atomic coordinate data resulting 
# from the CCDC's data processing and validation procedures.
#
#######################################################################

data_ILOKAW
_symmetry_cell_setting           triclinic
_symmetry_space_group_name_H-M   'P -1'
_symmetry_Int_Tables_number      2
_space_group_name_Hall           '-P 1'
loop_
_symmetry_equiv_pos_site_id
_symmetry_equiv_pos_as_xyz
1 x,y,z
2 -x,-y,-z
_cell_length_a                   9.301(2)
_cell_length_b                   10.576(3)
_cell_length_c                   14.184(3)
_cell_angle_alpha                86.683(3)
_cell_angle_beta                 84.712(4)
_cell_angle_gamma                77.508(3)
_cell_volume                     1355.38
loop_
_atom_site_label
_atom_site_type_symbol
_atom_site_fract_x
_atom_site_fract_y
_atom_site_fract_z
Co1 Co 0.62050(8) 1.16589(7) 0.46627(6)
Co2 Co -0.5000 1.5000 0.5000
C1 C 0.2663(6) 1.3371(6) 0.3723(5)
C2 C 0.2235(6) 1.2282(5) 0.4192(5)
C3 C 0.0754(6) 1.2366(6) 0.4513(5)
H1 H 0.0478 1.1647 0.4826
C4 C -0.0318(6) 1.3478(5) 0.4383(5)
C5 C 0.0097(7) 1.4530(6) 0.3904(5)
H2 H -0.0607 1.5288 0.3811
C6 C 0.1547(7) 1.4471(6) 0.3558(5)
H3 H 0.1791 1.5177 0.3208
C7 C 0.4211(7) 1.3449(6) 0.3392(5)
C8 C 0.3308(7) 1.1016(6) 0.4361(5)
C9 C -0.1869(7) 1.3514(6) 0.4787(5)
C10 C 0.7968(9) 1.1862(8) 0.2610(6)
H4 H 0.7238 1.2517 0.2372
C11 C 0.9019(7) 1.0375(7) 0.3462(5)
H5 H 0.9234 0.9747 0.3945
C12 C 1.1487(8) 0.9885(7) 0.2539(6)
H6 H 1.1892 0.9540 0.3130
H7 H 1.2052 1.0506 0.2266
C13 C 1.1670(7) 0.8792(7) 0.1871(5)
C14 C 1.2354(9) 0.7553(8) 0.2139(6)
H8 H 1.2681 0.7391 0.2743
C15 C 1.2565(9) 0.6548(7) 0.1532(6)
H9 H 1.3077 0.5731 0.1721
C16 C 1.2024(9) 0.6735(7) 0.0639(6)
C17 C 1.1347(13) 0.8000(8) 0.0369(7)
H10 H 1.1006 0.8172 -0.0232
C18 C 1.1178(13) 0.9004(9) 0.0988(7)
H11 H 1.0719 0.9837 0.0795
C19 C 1.2187(10) 0.5647(8) -0.0004(6)
C20 C 1.3223(12) 0.4520(8) 0.0100(7)
H12 H 1.3849 0.4430 0.0586
C21 C 1.3356(13) 0.3495(9) -0.0517(8)
H13 H 1.4090 0.2751 -0.0450
C22 C 1.2405(12) 0.3592(8) -0.1218(7)
C23 C 1.1324(11) 0.4710(9) -0.1304(7)
H14 H 1.0665 0.4780 -0.1769
C24 C 1.1208(11) 0.5723(9) -0.0712(6)
H15 H 1.0472 0.6465 -0.0782
C25 C 1.2554(12) 0.2510(8) -0.1883(6)
H16 H 1.2938 0.1690 -0.1559
H17 H 1.1589 0.2484 -0.2079
C26 C 1.4181(8) 0.1777(6) -0.3370(5)
H18 H 1.4097 0.0915 -0.3318
N1 N 1.4797(6) 0.3586(5) -0.3871(4)
N2 N 0.7735(6) 1.1203(5) 0.3414(4)
N3 N 0.9275(8) 1.1537(7) 0.2176(5)
N4 N 0.9944(6) 1.0559(5) 0.2743(4)
N5 N 1.4911(5) 0.2300(5) -0.4068(4)
C27 C 1.4007(8) 0.3785(6) -0.3075(5)
H19 H 1.3771 0.4572 -0.2777
N6 N 1.3567(7) 0.2695(6) -0.2734(4)
O1 O 0.4652(4) 1.0929(4) 0.4061(3)
O2 O 0.2794(4) 1.0111(4) 0.4767(3)
O3 O 0.5091(4) 1.3486(3) 0.4045(3)
O4 O 0.4577(5) 1.3542(5) 0.2550(4)
O5 O -0.2175(4) 1.2470(4) 0.5133(3)
O6 O -0.2747(4) 1.4589(4) 0.4745(3)
Co1A Co -1.62050(8) 1.83411(7) 0.53373(6)
Co1_2 Co -1.37950(8) 2.16589(7) 0.46627(6)
Co1_3 Co -0.37950(8) 1.16589(7) 0.46627(6)
Co1_4 Co 1.62050(8) 0.16589(7) -0.53373(6)
Co1A_2 Co -2.62050(8) 2.83411(7) 1.53373(6)
Co1A_3 Co -0.62050(8) 1.83411(7) 0.53373(6)
Co1A_4 Co 0.37950(8) 0.83411(7) 0.53373(6)
Co2_2 Co -2.5000 2.5000 1.5000
Co2_3 Co -1.5000 1.5000 0.5000
Co2_4 Co 0.5000 1.5000 0.5000
Co2_5 Co 1.5000 0.5000 -0.5000
C1A C -1.2663(6) 1.6629(6) 0.6277(5)
C2A C -1.2235(6) 1.7718(5) 0.5808(5)
C3A C -1.0754(6) 1.7634(6) 0.5487(5)
H1A H -1.0478 1.8353 0.5174
C4A C -0.9682(6) 1.6522(5) 0.5617(5)
C5A C -1.0097(7) 1.5470(6) 0.6096(5)
H2A H -0.9393 1.4712 0.6189
C6A C -1.1547(7) 1.5529(6) 0.6442(5)
H3A H -1.1791 1.4823 0.6792
C7A C -1.4211(7) 1.6551(6) 0.6608(5)
C8A C -1.3308(7) 1.8984(6) 0.5639(5)
C9A C -0.8131(7) 1.6486(6) 0.5213(5)
C10A C -1.7968(9) 1.8138(8) 0.7390(6)
H4A H -1.7238 1.7483 0.7628
C11A C -1.9019(7) 1.9625(7) 0.6538(5)
H5A H -1.9234 2.0253 0.6055
C12A C -2.1487(8) 2.0115(7) 0.7461(6)
H6A H -2.1892 2.0460 0.6870
H7A H -2.2052 1.9494 0.7734
C13A C -2.1670(7) 2.1208(7) 0.8129(5)
C14A C -2.2354(9) 2.2447(8) 0.7861(6)
H8A H -2.2681 2.2609 0.7257
C15A C -2.2565(9) 2.3452(7) 0.8468(6)
H9A H -2.3077 2.4269 0.8279
C16A C -2.2024(9) 2.3265(7) 0.9361(6)
C17A C -2.1347(13) 2.2000(8) 0.9631(7)
H10A H -2.1006 2.1828 1.0232
C18A C -2.1178(13) 2.0996(9) 0.9012(7)
H11A H -2.0719 2.0163 0.9205
C19A C -2.2187(10) 2.4353(8) 1.0004(6)
C20A C -2.3223(12) 2.5480(8) 0.9900(7)
H12A H -2.3849 2.5570 0.9414
C21A C -2.3356(13) 2.6505(9) 1.0517(8)
H13A H -2.4090 2.7249 1.0450
C22A C -2.2405(12) 2.6408(8) 1.1218(7)
C23A C -2.1324(11) 2.5290(9) 1.1304(7)
H14A H -2.0665 2.5220 1.1769
C24A C -2.1208(11) 2.4277(9) 1.0712(6)
H15A H -2.0472 2.3535 1.0782
C25A C -2.2554(12) 2.7490(8) 1.1883(6)
H16A H -2.2938 2.8310 1.1559
H17A H -2.1589 2.7516 1.2079
C26A C -2.4181(8) 2.8223(6) 1.3370(5)
H18A H -2.4097 2.9085 1.3318
N1A N -2.4797(6) 2.6414(5) 1.3871(4)
N1_2 N -0.5203(6) 1.3586(5) 0.6129(4)
N1A_2 N -0.4797(6) 1.6414(5) 0.3871(4)
N2A N -1.7735(6) 1.8797(5) 0.6586(4)
N3A N -1.9275(8) 1.8463(7) 0.7824(5)
N4A N -1.9944(6) 1.9441(5) 0.7257(4)
N5A N -2.4911(5) 2.7700(5) 1.4068(4)
N5_2 N 0.4911(5) 1.2300(5) 0.5932(4)
N5A_2 N -1.4911(5) 1.7700(5) 0.4068(4)
C27A C -2.4007(8) 2.6215(6) 1.3075(5)
H19A H -2.3771 2.5428 1.2777
N6A N -2.3567(7) 2.7305(6) 1.2734(4)
O1A O -1.4652(4) 1.9071(4) 0.5939(3)
O2A O -1.2794(4) 1.9889(4) 0.5233(3)
O2_2 O -1.7206(4) 2.0111(4) 0.4767(3)
O2A_2 O 0.7206(4) 0.9889(4) 0.5233(3)
O3A O -1.5091(4) 1.6514(3) 0.5955(3)
O3_2 O -0.4909(4) 1.3486(3) 0.4045(3)
O3A_2 O -0.5091(4) 1.6514(3) 0.5955(3)
O4A O -1.4577(5) 1.6458(5) 0.7450(4)
O5A O -0.7825(4) 1.7530(4) 0.4867(3)
O5_2 O 0.7825(4) 1.2470(4) 0.5133(3)
O5A_2 O -1.7825(4) 1.7530(4) 0.4867(3)
O6A O -0.7253(4) 1.5411(4) 0.5255(3)
O7 O 0.500(2) 0.0826(18) 0.1606(15)
loop_
_geom_bond_atom_site_label_1
_geom_bond_atom_site_label_2
_geom_bond_site_symmetry_1
_geom_bond_site_symmetry_2
Co1 N2 1_555 1_555
Co2 O6 1_555 1_555
C1 C2 1_555 1_555
C2 C3 1_555 1_555
C3 H1 1_555 1_555
C4 C3 1_555 1_555
C5 C4 1_555 1_555
H2 C5 1_555 1_555
C6 C1 1_555 1_555
H3 C6 1_555 1_555
C7 C1 1_555 1_555
C8 C2 1_555 1_555
C9 C4 1_555 1_555
C10 H4 1_555 1_555
C11 H5 1_555 1_555
C12 H6 1_555 1_555
H7 C12 1_555 1_555
C13 C12 1_555 1_555
C14 C13 1_555 1_555
H8 C14 1_555 1_555
C15 C14 1_555 1_555
H9 C15 1_555 1_555
C16 C15 1_555 1_555
C17 C16 1_555 1_555
H10 C17 1_555 1_555
C18 C13 1_555 1_555
H11 C18 1_555 1_555
C19 C16 1_555 1_555
C20 C19 1_555 1_555
H12 C20 1_555 1_555
C21 C20 1_555 1_555
H13 C21 1_555 1_555
C22 C21 1_555 1_555
C23 C22 1_555 1_555
H14 C23 1_555 1_555
C24 C19 1_555 1_555
H15 C24 1_555 1_555
C25 C22 1_555 1_555
H16 C25 1_555 1_555
H17 C25 1_555 1_555
C26 H18 1_555 1_555
N1 N5 1_555 1_555
N2 C10 1_555 1_555
N3 C10 1_555 1_555
N4 C11 1_555 1_555
N5 C26 1_555 1_555
C27 N1 1_555 1_555
H19 C27 1_555 1_555
N6 C25 1_555 1_555
O1 Co1 1_555 1_555
O2 C8 1_555 1_555
O3 Co1 1_555 1_555
O4 C7 1_555 1_555
O5 C9 1_555 1_555
O6 C9 1_555 1_555
Co1A N2A 1_555 1_555
Co1_2 O2A 1_555 1_555
Co1_3 O5 1_555 1_555
Co1_4 N5 1_555 1_555
Co1A_2 N5A 1_555 1_555
Co1A_3 O3A_2 1_555 1_555
Co1A_4 O2 1_555 1_555
Co2_2 N1A 1_555 1_555
Co2_3 O3A 1_555 1_555
Co2_4 O3 1_555 1_555
Co2_5 N1 1_555 1_555
C1A C2A 1_555 1_555
C2A C3A 1_555 1_555
C3A H1A 1_555 1_555
C4A C3A 1_555 1_555
C5A C4A 1_555 1_555
H2A C5A 1_555 1_555
C6A C1A 1_555 1_555
H3A C6A 1_555 1_555
C7A C1A 1_555 1_555
C8A C2A 1_555 1_555
C9A C4A 1_555 1_555
C10A H4A 1_555 1_555
C11A H5A 1_555 1_555
C12A H6A 1_555 1_555
H7A C12A 1_555 1_555
C13A C12A 1_555 1_555
C14A C13A 1_555 1_555
H8A C14A 1_555 1_555
C15A C14A 1_555 1_555
H9A C15A 1_555 1_555
C16A C15A 1_555 1_555
C17A C16A 1_555 1_555
H10A C17A 1_555 1_555
C18A C13A 1_555 1_555
H11A C18A 1_555 1_555
C19A C16A 1_555 1_555
C20A C19A 1_555 1_555
H12A C20A 1_555 1_555
C21A C20A 1_555 1_555
H13A C21A 1_555 1_555
C22A C21A 1_555 1_555
C23A C22A 1_555 1_555
H14A C23A 1_555 1_555
C24A C19A 1_555 1_555
H15A C24A 1_555 1_555
C25A C22A 1_555 1_555
H16A C25A 1_555 1_555
H17A C25A 1_555 1_555
C26A H18A 1_555 1_555
N1A N5A 1_555 1_555
N1_2 Co2 1_555 1_555
N1A_2 Co2 1_555 1_555
N2A C10A 1_555 1_555
N3A C10A 1_555 1_555
N4A C11A 1_555 1_555
N5A C26A 1_555 1_555
N5_2 Co1 1_555 1_555
N5A_2 Co1A 1_555 1_555
C27A N1A 1_555 1_555
H19A C27A 1_555 1_555
N6A C25A 1_555 1_555
O1A Co1A 1_555 1_555
O2A C8A 1_555 1_555
O2_2 Co1A 1_555 1_555
O2A_2 Co1 1_555 1_555
O3A Co1A 1_555 1_555
O3_2 Co2 1_555 1_555
O3A_2 Co2 1_555 1_555
O4A C7A 1_555 1_555
O5A Co1A_3 1_555 1_555
O5_2 Co1 1_555 1_555
O5A_2 Co1A 1_555 1_555
O6A Co2 1_555 1_555
C5 C6 1_555 1_555
C7 O3 1_555 1_555
C8 O1 1_555 1_555
C11 N2 1_555 1_555
C12 N4 1_555 1_555
C17 C18 1_555 1_555
C23 C24 1_555 1_555
C26 N6 1_555 1_555
N3 N4 1_555 1_555
C27 N6 1_555 1_555
Co1_3 O3_2 1_555 1_555
C5A C6A 1_555 1_555
C7A O3A 1_555 1_555
C8A O1A 1_555 1_555
C9A O5A 1_555 1_555
C9A O6A 1_555 1_555
C11A N2A 1_555 1_555
C12A N4A 1_555 1_555
C17A C18A 1_555 1_555
C23A C24A 1_555 1_555
C26A N6A 1_555 1_555
N3A N4A 1_555 1_555
C27A N6A 1_555 1_555

#END
