
#######################################################################
#
#                 Cambridge Crystallographic Data Centre
#                                CCDC 
#
#######################################################################
#
# If this CIF has been generated from an entry in the Cambridge 
# Structural Database, then it will include bibliographic, chemical, 
# crystal, experimental, refinement or atomic coordinate data resulting 
# from the CCDC's data processing and validation procedures.
#
#######################################################################

data_ILOLAW
_symmetry_cell_setting           triclinic
_symmetry_space_group_name_H-M   'P -1'
_symmetry_Int_Tables_number      2
_space_group_name_Hall           '-P 1'
loop_
_symmetry_equiv_pos_site_id
_symmetry_equiv_pos_as_xyz
1 x,y,z
2 -x,-y,-z
_cell_length_a                   7.4650(9)
_cell_length_b                   8.3921(10)
_cell_length_c                   12.5586(15)
_cell_angle_alpha                91.738(2)
_cell_angle_beta                 92.002(2)
_cell_angle_gamma                107.074(2)
_cell_volume                     750.946
loop_
_atom_site_label
_atom_site_type_symbol
_atom_site_fract_x
_atom_site_fract_y
_atom_site_fract_z
Rb1 Rb -0.31091(3) -0.14075(3) -0.063880(19)
V1 V -0.17393(6) 0.66309(5) -0.29079(3)
S1 S -0.26322(9) 0.43845(7) -0.17462(5)
S2 S -0.52741(9) 0.10330(8) -0.20557(5)
O1 O -0.0207(2) 0.7378(2) -0.40794(14)
O2 O -0.3485(2) 0.7427(2) -0.29367(15)
O3 O -0.0235(2) 0.7652(2) -0.19421(14)
O4 O -0.2834(3) 0.1929(3) 0.04933(18)
H1 H -0.198(5) 0.211(4) 0.093(3)
H2 H -0.247(6) 0.251(5) 0.015(3)
O5 O -0.0355(3) 0.8267(3) -0.89692(15)
O6 O -0.2542(3) 0.5910(3) -0.89306(16)
N1 N -0.2981(3) 0.4473(2) -0.40255(17)
N2 N -0.4119(3) 0.2948(2) -0.36717(17)
N3 N -0.1330(3) 0.7083(3) -0.84800(18)
C1 C -0.1894(3) 0.5880(3) -0.5645(2)
C2 C -0.0515(3) 0.7260(3) -0.5120(2)
C3 C 0.0589(4) 0.8534(3) -0.5739(2)
H3 H 0.1527 0.9443 -0.5397
C4 C 0.0319(4) 0.8470(3) -0.6831(2)
H4 H 0.1049 0.9337 -0.7242
C5 C -0.1047(4) 0.7108(3) -0.7327(2)
C6 C -0.2130(3) 0.5823(3) -0.6758(2)
H5 H -0.3030 0.4906 -0.7119
C7 C -0.2990(3) 0.4507(3) -0.5056(2)
H6 H -0.3774 0.3562 -0.5452
C8 C -0.4006(3) 0.2865(3) -0.2652(2)
C9 C -0.6367(4) -0.0291(3) -0.3194(2)
H7 H -0.7157 0.0245 -0.3602
H8 H -0.7143 -0.1364 -0.2954
H9 H -0.5398 -0.0474 -0.3647
Rb1A Rb -0.68909(3) 0.14075(3) 0.063880(19)
O4A O -0.7166(3) -0.1929(3) -0.04933(18)
O5_2 O -0.0355(3) -0.1733(3) 0.10308(15)
O5A O 0.0355(3) 0.1733(3) -0.10308(15)
O6_2 O -0.2542(3) -0.4090(3) 0.10694(16)
O2_2 O -0.3485(2) -0.2573(2) -0.29367(15)
O3_2 O -0.0235(2) -0.2348(2) -0.19421(14)
Rb1_2 Rb -0.31091(3) 0.85925(3) -1.063880(19)
Rb1A_2 Rb 0.31091(3) 1.14075(3) -0.936120(19)
H1A H -0.802(5) -0.211(4) -0.093(3)
H2A H -0.753(6) -0.251(5) -0.015(3)
Rb1_3 Rb -0.31091(3) 0.85925(3) -0.063880(19)
loop_
_geom_bond_atom_site_label_1
_geom_bond_atom_site_label_2
_geom_bond_site_symmetry_1
_geom_bond_site_symmetry_2
Rb1 S2 1_555 1_555
V1 S1 1_555 1_555
S1 C8 1_555 1_555
S2 C8 1_555 1_555
O1 V1 1_555 1_555
O2 V1 1_555 1_555
O3 V1 1_555 1_555
O4 Rb1 1_555 1_555
H1 O4 1_555 1_555
H2 O4 1_555 1_555
O5 N3 1_555 1_555
O6 N3 1_555 1_555
N1 V1 1_555 1_555
N2 N1 1_555 1_555
N3 C5 1_555 1_555
C1 C2 1_555 1_555
C2 O1 1_555 1_555
C3 C2 1_555 1_555
H3 C3 1_555 1_555
C4 C3 1_555 1_555
H4 C4 1_555 1_555
C5 C4 1_555 1_555
C6 C1 1_555 1_555
H5 C6 1_555 1_555
C7 N1 1_555 1_555
H6 C7 1_555 1_555
C8 N2 1_555 1_555
C9 S2 1_555 1_555
H7 C9 1_555 1_555
H8 C9 1_555 1_555
H9 C9 1_555 1_555
Rb1A O4 1_555 1_555
O4A Rb1 1_555 1_555
O5_2 Rb1 1_555 1_555
O5A Rb1 1_555 1_555
O6_2 Rb1 1_555 1_555
O2_2 Rb1 1_555 1_555
O3_2 Rb1 1_555 1_555
Rb1_2 O5 1_555 1_555
Rb1A_2 O5 1_555 1_555
H1A O4A 1_555 1_555
H2A O4A 1_555 1_555
Rb1_3 O2 1_555 1_555
O3 Rb1_3 1_555 1_555
O6 Rb1_2 1_555 1_555
C1 C7 1_555 1_555
C5 C6 1_555 1_555
Rb1A O4A 1_555 1_555

#END
