
#######################################################################
#
#                 Cambridge Crystallographic Data Centre
#                                CCDC 
#
#######################################################################
#
# If this CIF has been generated from an entry in the Cambridge 
# Structural Database, then it will include bibliographic, chemical, 
# crystal, experimental, refinement or atomic coordinate data resulting 
# from the CCDC's data processing and validation procedures.
#
#######################################################################

data_ILOSIM
_symmetry_cell_setting           triclinic
_symmetry_space_group_name_H-M   'P -1'
_symmetry_Int_Tables_number      2
_space_group_name_Hall           '-P 1'
loop_
_symmetry_equiv_pos_site_id
_symmetry_equiv_pos_as_xyz
1 x,y,z
2 -x,-y,-z
_cell_length_a                   13.784(2)
_cell_length_b                   15.939(3)
_cell_length_c                   17.512(3)
_cell_angle_alpha                79.346(2)
_cell_angle_beta                 81.562(2)
_cell_angle_gamma                79.064(2)
_cell_volume                     3687.51
loop_
_atom_site_label
_atom_site_type_symbol
_atom_site_fract_x
_atom_site_fract_y
_atom_site_fract_z
Cu1 Cu 0.6921(2) -0.8115(2) -0.93548(18)
Cu2 Cu 0.8728(2) -0.92352(19) -0.82756(17)
Cu3 Cu 0.9098(2) -0.81386(19) -0.68242(15)
Cu4 Cu 0.9499(2) -0.6423(2) -0.59500(17)
Si1 Si 0.5000 -1.0000 -0.5000
Si2 Si 1.0000 -0.5000 -1.0000
W1 W 0.66603(8) -0.86652(8) -0.47654(6)
W2 W 0.54821(7) -1.11781(8) -0.65751(6)
W3 W 0.56956(7) -1.22710(7) -0.46417(6)
W4 W 0.71796(7) -0.98870(7) -0.63078(5)
W5 W 0.73451(6) -1.09451(7) -0.43711(5)
W6 W 0.48500(6) -0.88949(6) -0.69368(5)
W7 W 0.92873(7) -0.70578(6) -0.97331(5)
W8 W 0.83075(6) -0.31247(6) -1.06229(5)
W9 W 0.96000(7) -0.61566(7) -0.81014(5)
W10 W 0.76637(6) -0.51918(6) -1.04734(5)
W11 W 0.98424(7) -0.59494(6) -1.16435(5)
W12 W 0.78246(6) -0.43725(6) -0.87591(5)
S1 S 0.5580(4) -0.6274(4) -0.8125(4)
S2 S 0.4699(5) -0.6746(6) -1.0313(4)
S3 S 0.8730(6) -1.1639(4) -0.8434(5)
S4 S 1.1416(5) -1.0399(5) -0.8904(5)
S5 S 0.9915(6) -0.7484(5) -0.3929(4)
S6 S 0.7323(6) -0.5371(7) -0.3825(7)
S7 S 0.5717(5) -0.4258(6) -0.6049(4)
O1 O 0.7441(11) -0.8029(11) -0.4626(8)
O2 O 0.5701(11) -1.1721(11) -0.7304(8)
O3 O 0.6024(13) -1.3340(12) -0.4467(10)
O4 O 0.8204(10) -0.9826(11) -0.6944(9)
O5 O 0.8460(10) -1.1372(14) -0.4122(9)
O6 O 0.4786(14) -0.8394(13) -0.7868(9)
O7 O 0.8950(10) -0.8042(9) -0.9609(8)
O8 O 0.7681(13) -0.4010(10) -1.0807(8)
O9 O 0.9349(11) -0.6728(10) -0.7204(8)
O10 O 0.6544(11) -0.5285(12) -1.0672(8)
O11 O 0.9773(11) -0.6418(10) -1.2432(8)
O12 O 0.6834(11) -0.4060(11) -0.8158(8)
O13 O 0.5060(16) -0.9064(18) -0.4734(14)
O14 O 0.6188(17) -0.9938(17) -0.5094(14)
O15 O 0.5577(17) -1.0823(17) -0.4482(14)
O16 O 0.5470(18) -0.9956(17) -0.5885(14)
O17 O 0.8885(16) -0.4615(16) -0.9952(12)
O18 O 0.9393(18) -0.5616(17) -1.0325(14)
O19 O 1.0154(18) -0.5989(18) -0.9469(15)
O20 O 1.0503(18) -0.5116(18) -1.0882(15)
O21 O 0.7311(16) -0.9761(15) -0.4296(12)
O22 O 0.6737(14) -1.0756(14) -0.6646(13)
O23 O 0.6922(11) -1.1909(12) -0.4608(10)
O24 O 0.7688(16) -1.0687(14) -0.5481(12)
O25 O 0.7175(14) -0.8963(12) -0.5763(10)
O26 O 0.5930(12) -1.2048(13) -0.5763(10)
O27 O 0.6236(13) -0.9106(13) -0.6891(11)
O28 O 0.4983(12) -1.0042(13) -0.7079(11)
O29 O 0.5682(13) -0.7882(14) -0.5244(11)
O30 O 0.5815(12) -0.8664(14) -0.3779(11)
O31 O 0.5272(10) -1.2053(11) -0.3596(9)
O32 O 0.6514(10) -1.1043(11) -0.3417(9)
O33 O 0.9087(12) -0.6847(13) -0.8703(10)
O34 O 0.8101(12) -0.6341(12) -0.9937(9)
O35 O 0.9699(12) -0.6872(11) -1.0839(10)
O36 O 0.8462(12) -0.5502(11) -1.1339(10)
O37 O 0.8316(13) -0.5430(12) -0.8202(11)
O38 O 0.7327(12) -0.4922(10) -0.9421(9)
O39 O 1.0684(12) -0.7366(13) -0.9631(10)
O40 O 1.0833(12) -0.6648(13) -0.8422(10)
O41 O 0.7791(12) -0.3383(11) -0.9574(9)
O42 O 0.7509(13) -0.2262(10) -1.0910(9)
O43 O 1.0072(12) -0.5254(11) -0.7872(12)
O44 O 0.8785(13) -0.3891(13) -0.8392(11)
N1 N 0.7043(12) -0.7691(11) -0.8371(9)
N2 N 0.7800(12) -0.8157(11) -0.7993(10)
N3 N 0.7831(12) -0.7832(11) -0.7380(9)
N4 N 0.7085(12) -0.7197(11) -0.7329(9)
N5 N 0.6659(17) -0.7577(11) -1.0396(12)
N6 N 0.7441(16) -0.7716(18) -1.0994(13)
N7 N 0.7108(17) -0.7308(19) -1.1663(16)
N8 N 0.6158(19) -0.6989(16) -1.1492(12)
N9 N 0.7956(14) -0.9898(12) -0.8757(10)
N10 N 0.7116(15) -0.9431(13) -0.9088(12)
N11 N 0.6589(18) -0.9930(17) -0.9247(14)
N12 N 0.7063(16) -1.0752(15) -0.9021(12)
N13 N 1.0065(13) -0.9237(11) -0.8065(9)
N14 N 1.0185(14) -0.8726(12) -0.7542(9)
N15 N 1.1126(14) -0.8795(13) -0.7468(10)
N16 N 1.1630(13) -0.9366(13) -0.7944(10)
N17 N 0.9461(11) -0.7597(11) -0.5371(9)
N18 N 0.9311(11) -0.8241(12) -0.5700(10)
N19 N 0.9362(13) -0.8994(11) -0.5233(9)
N20 N 0.9568(11) -0.8777(10) -0.4572(9)
N21 N 0.8935(16) -0.4520(16) -0.4111(16)
N22 N 0.9155(16) -0.3868(15) -0.3874(14)
N23 N 0.8499(18) -0.3577(16) -0.3275(14)
N24 N 0.7777(16) -0.4056(15) -0.3176(12)
N25 N 0.7430(16) -0.5466(15) -0.5809(12)
N26 N 0.8417(16) -0.5382(14) -0.5977(10)
N27 N 0.8597(19) -0.4640(17) -0.6219(13)
N28 N 0.7667(17) -0.4132(13) -0.6335(11)
C1 C 0.6599(16) -0.7076(14) -0.7968(12)
C2 C 0.5469(16) -0.6263(16) -0.9127(13)
H1 H 0.6129 -0.6393 -0.9402
H2 H 0.5175 -0.5685 -0.9352
C3 C 0.4864(17) -0.6882(17) -0.9258(13)
H3 H 0.5188 -0.7468 -0.9086
H4 H 0.4218 -0.6790 -0.8952
C4 C 0.5856(17) -0.7114(15) -1.0738(13)
C5 C 0.6860(16) -0.6686(14) -0.6724(12)
H5 H 0.7314 -0.6906 -0.6338
H6 H 0.6924 -0.6097 -0.6939
H7 H 0.6191 -0.6710 -0.6484
C6 C 0.555(2) -0.648(3) -1.2119(16)
H8 H 0.4881 -0.6299 -1.1891
H9 H 0.5836 -0.5979 -1.2364
H10 H 0.5537 -0.6835 -1.2503
C7 C 0.7942(19) -1.0684(16) -0.8741(13)
C8 C 0.984(2) -1.1242(16) -0.8271(14)
H11 H 1.0335 -1.1729 -0.8084
H12 H 0.9665 -1.0871 -0.7874
C9 C 1.0300(17) -1.0719(17) -0.9053(13)
H13 H 1.0439 -1.1077 -0.9460
H14 H 0.9825 -1.0210 -0.9221
C10 C 1.0984(15) -0.9628(14) -0.8275(12)
C11 C 0.670(2) -1.151(2) -0.9139(17)
H15 H 0.6069 -1.1331 -0.9344
H16 H 0.7167 -1.1805 -0.9503
H17 H 0.6618 -1.1888 -0.8649
C12 C 1.2702(16) -0.9609(17) -0.7959(14)
H18 H 1.2944 -1.0009 -0.8319
H19 H 1.3007 -0.9102 -0.8123
H20 H 1.2863 -0.9877 -0.7445
C13 C 0.9621(14) -0.7922(13) -0.4641(11)
C14 C 0.923(3) -0.641(2) -0.4093(15)
H21 H 0.9150 -0.6232 -0.4644
H22 H 0.9571 -0.6009 -0.3931
C15 C 0.823(3) -0.641(3) -0.362(2)
H23 H 0.7939 -0.6884 -0.3734
H24 H 0.8314 -0.6530 -0.3073
C16 C 0.808(2) -0.4604(19) -0.3714(17)
C17 C 0.9611(16) -0.9446(15) -0.3870(12)
H25 H 0.9548 -0.9990 -0.4003
H26 H 1.0235 -0.9501 -0.3669
H27 H 0.9077 -0.9285 -0.3479
C18 C 0.690(2) -0.388(2) -0.2681(14)
H28 H 0.6961 -0.3447 -0.2381
H29 H 0.6353 -0.3664 -0.2988
H30 H 0.6776 -0.4397 -0.2333
C19 C 0.6965(18) -0.4662(14) -0.6042(12)
C20 C 0.526(2) -0.511(2) -0.5321(18)
H31 H 0.5824 -0.5548 -0.5175
H32 H 0.4844 -0.5391 -0.5568
C21 C 0.7606(19) -0.3217(16) -0.6623(15)
H33 H 0.6924 -0.2960 -0.6672
H34 H 0.7860 -0.2949 -0.6264
H35 H 0.7992 -0.3132 -0.7126
Cu1A Cu 1.3079(2) -0.1885(2) -1.06452(18)
Cu2A Cu 1.1272(2) -0.07648(19) -1.17244(17)
Cu3A Cu 1.0902(2) -0.18614(19) -1.31758(15)
Cu3A_2 Cu 1.0902(2) -0.18614(19) -0.31758(15)
Cu4A Cu 1.0501(2) -0.3577(2) -1.40500(17)
Cu4A_2 Cu 1.0501(2) -0.3577(2) -0.40500(17)
Cu4A_3 Cu 0.0501(2) -0.3577(2) -0.40500(17)
W1A W 0.33397(8) -1.13348(8) -0.52346(6)
W2A W 0.45179(7) -0.88219(8) -0.34249(6)
W3A W 0.43044(7) -0.77290(7) -0.53583(6)
W4A W 0.28204(7) -1.01130(7) -0.36922(5)
W4A_2 W 1.28204(7) -0.01130(7) -1.36922(5)
W5A W 0.26549(6) -0.90549(7) -0.56289(5)
W6A W 0.51500(6) -1.11051(6) -0.30632(5)
W7A W 1.07127(7) -0.29422(6) -1.02669(5)
W8A W 1.16925(6) -0.68753(6) -0.93771(5)
W9A W 1.04000(7) -0.38434(7) -1.18986(5)
W10A W 1.23363(6) -0.48082(6) -0.95266(5)
W11A W 1.01576(7) -0.40506(6) -0.83565(5)
W12A W 1.21754(6) -0.56275(6) -1.12409(5)
S1A S 1.4420(4) -0.3726(4) -1.1875(4)
S2A S 1.5301(5) -0.3254(6) -0.9687(4)
S3A S 1.1270(6) 0.1639(4) -1.1566(5)
S4A S 0.8584(5) 0.0399(5) -1.1096(5)
S5A S 1.0085(6) -0.2516(5) -0.6071(4)
S6A S 1.2677(6) -0.4629(7) -0.6175(7)
S7A S 0.4283(5) -0.5742(6) -0.3951(4)
O1A O 0.2559(11) -1.1971(11) -0.5374(8)
O2A O 0.4299(11) -0.8279(11) -0.2696(8)
O3A O 0.3976(13) -0.6660(12) -0.5533(10)
O4A O 1.1796(10) -0.0174(11) -1.3056(9)
O4A_2 O 0.1796(10) -1.0174(11) -0.3056(9)
O5A O 0.1540(10) -0.8628(14) -0.5878(9)
O6A O 0.5214(14) -1.1606(13) -0.2132(9)
O7A O 1.1050(10) -0.1958(9) -1.0391(8)
O8A O 1.2319(13) -0.5990(10) -0.9193(8)
O9A O 1.0651(11) -0.3272(10) -1.2796(8)
O10A O 1.3456(11) -0.4715(12) -0.9328(8)
O11A O 1.0227(11) -0.3582(10) -0.7568(8)
O12A O 1.3166(11) -0.5940(11) -1.1842(8)
O13A O 0.4940(16) -1.0936(18) -0.5266(14)
O14A O 0.3812(17) -1.0062(17) -0.4906(14)
O15A O 0.4423(17) -0.9177(17) -0.5518(14)
O16A O 0.4530(18) -1.0044(17) -0.4115(14)
O17A O 1.1115(16) -0.5385(16) -1.0048(12)
O18A O 1.0607(18) -0.4384(17) -0.9675(14)
O19A O 0.9846(18) -0.4011(18) -1.0531(15)
O20A O 0.9497(18) -0.4884(18) -0.9118(15)
O21A O 0.2689(16) -1.0239(15) -0.5704(12)
O22A O 0.3263(14) -0.9244(14) -0.3354(13)
O23A O 0.3078(11) -0.8091(12) -0.5392(10)
O24A O 0.2312(16) -0.9313(14) -0.4519(12)
O25A O 0.2825(14) -1.1037(12) -0.4237(10)
O26A O 0.4070(12) -0.7952(13) -0.4237(10)
O27A O 0.3764(13) -1.0894(13) -0.3109(11)
O28A O 0.5017(12) -0.9958(13) -0.2921(11)
O29A O 0.4318(13) -1.2118(14) -0.4756(11)
O30A O 0.4185(12) -1.1336(14) -0.6221(11)
O31A O 0.4728(10) -0.7947(11) -0.6404(9)
O32A O 0.3486(10) -0.8957(11) -0.6583(9)
O33A O 1.0913(12) -0.3153(13) -1.1297(10)
O34A O 1.1899(12) -0.3659(12) -1.0063(9)
O35A O 1.0301(12) -0.3128(11) -0.9161(10)
O36A O 1.1538(12) -0.4498(11) -0.8661(10)
O37A O 1.1684(13) -0.4570(12) -1.1798(11)
O38A O 1.2673(12) -0.5078(10) -1.0579(9)
O39A O 0.9316(12) -0.2634(13) -1.0369(10)
O40A O 0.9167(12) -0.3352(13) -1.1578(10)
O41A O 1.2209(12) -0.6617(11) -1.0426(9)
O42A O 1.2491(13) -0.7738(10) -0.9090(9)
O43A O 0.9928(12) -0.4746(11) -1.2128(12)
O44A O 1.1215(13) -0.6109(13) -1.1608(11)
N1A N 1.2957(12) -0.2309(11) -1.1629(9)
N2A N 1.2200(12) -0.1843(11) -1.2007(10)
N3A N 1.2169(12) -0.2168(11) -1.2620(9)
N4A N 1.2915(12) -0.2803(11) -1.2671(9)
N5A N 1.3341(17) -0.2423(11) -0.9604(12)
N6A N 1.2559(16) -0.2284(18) -0.9006(13)
N7A N 1.2892(17) -0.2692(19) -0.8337(16)
N8A N 1.3842(19) -0.3011(16) -0.8508(12)
N9A N 1.2044(14) -0.0102(12) -1.1243(10)
N10A N 1.2884(15) -0.0569(13) -1.0912(12)
N11A N 1.3411(18) -0.0070(17) -1.0753(14)
N12A N 1.2937(16) 0.0752(15) -1.0979(12)
N13A N 0.9935(13) -0.0763(11) -1.1935(9)
N14A N 0.9815(14) -0.1274(12) -1.2458(9)
N15A N 0.8874(14) -0.1205(13) -1.2532(10)
N16A N 0.8370(13) -0.0634(13) -1.2056(10)
N17A N 1.0539(11) -0.2403(11) -0.4629(9)
N17A_2 N 1.0539(11) -0.2403(11) -1.4629(9)
N18A N 1.0689(11) -0.1759(12) -0.4300(10)
N18A_2 N 1.0689(11) -0.1759(12) -1.4300(10)
N19A N 1.0638(13) -0.1006(11) -0.4767(9)
N20A N 1.0432(11) -0.1223(10) -0.5428(9)
N21A N 1.1065(16) -0.5480(16) -0.5889(16)
N22A N 1.0845(16) -0.6132(15) -0.6126(14)
N22_2 N 0.9155(16) -0.3868(15) -1.3874(14)
N23A N 1.1501(18) -0.6423(16) -0.6725(14)
N24A N 1.2223(16) -0.5944(15) -0.6824(12)
N25A N 0.2570(16) -0.4534(15) -0.4191(12)
N26A N 0.1583(16) -0.4618(14) -0.4023(10)
N26A_2 N 1.1583(16) -0.4618(14) -1.4023(10)
N27A N 0.1403(19) -0.5360(17) -0.3781(13)
N28A N 0.2333(17) -0.5868(13) -0.3665(11)
C1A C 1.3401(16) -0.2924(14) -1.2032(12)
C2A C 1.4531(16) -0.3737(16) -1.0873(13)
H1A H 1.3871 -0.3607 -1.0598
H2A H 1.4825 -0.4315 -1.0648
C3A C 1.5136(17) -0.3118(17) -1.0742(13)
H3A H 1.4812 -0.2532 -1.0914
H4A H 1.5782 -0.3210 -1.1048
C4A C 1.4144(17) -0.2886(15) -0.9262(13)
C5A C 1.3140(16) -0.3314(14) -1.3276(12)
H5A H 1.2686 -0.3094 -1.3662
H6A H 1.3076 -0.3903 -1.3061
H7A H 1.3809 -0.3290 -1.3516
C6A C 1.445(2) -0.352(3) -0.7881(16)
H8A H 1.5119 -0.3701 -0.8109
H9A H 1.4164 -0.4021 -0.7636
H10A H 1.4463 -0.3165 -0.7497
C7A C 1.2058(19) 0.0684(16) -1.1259(13)
C8A C 1.016(2) 0.1242(16) -1.1729(14)
H11A H 0.9665 0.1729 -1.1916
H12A H 1.0335 0.0871 -1.2126
C9A C 0.9700(17) 0.0719(17) -1.0947(13)
H13A H 0.9561 0.1077 -1.0540
H14A H 1.0175 0.0210 -1.0779
C10A C 0.9016(15) -0.0372(14) -1.1725(12)
C11A C 1.330(2) 0.151(2) -1.0861(17)
H15A H 1.3931 0.1331 -1.0656
H16A H 1.2833 0.1805 -1.0497
H17A H 1.3382 0.1888 -1.1351
C12A C 0.7298(16) -0.0391(17) -1.2041(14)
H18A H 0.7056 0.0009 -1.1681
H19A H 0.6993 -0.0898 -1.1877
H20A H 0.7137 -0.0123 -1.2555
C13A C 1.0379(14) -0.2078(13) -0.5359(11)
C14A C 1.077(3) -0.359(2) -0.5907(15)
H21A H 1.0850 -0.3768 -0.5356
H22A H 1.0429 -0.3991 -0.6069
C15A C 1.177(3) -0.359(3) -0.638(2)
H23A H 1.2061 -0.3116 -0.6266
H24A H 1.1686 -0.3470 -0.6927
C16A C 1.192(2) -0.5396(19) -0.6286(17)
C17A C 1.0389(16) -0.0554(15) -0.6130(12)
H25A H 1.0452 -0.0010 -0.5997
H26A H 0.9765 -0.0499 -0.6331
H27A H 1.0923 -0.0715 -0.6521
C18A C 1.310(2) -0.612(2) -0.7319(14)
H28A H 1.3039 -0.6553 -0.7619
H29A H 1.3647 -0.6336 -0.7012
H30A H 1.3224 -0.5603 -0.7667
C19A C 0.3035(18) -0.5338(14) -0.3958(12)
C20A C 0.474(2) -0.489(2) -0.4679(18)
H31A H 0.4176 -0.4452 -0.4825
H32A H 0.5156 -0.4609 -0.4432
C21A C 0.2394(19) -0.6783(16) -0.3377(15)
H33A H 0.3076 -0.7040 -0.3328
H34A H 0.2140 -0.7051 -0.3736
H35A H 0.2008 -0.6868 -0.2874
loop_
_geom_bond_atom_site_label_1
_geom_bond_atom_site_label_2
_geom_bond_site_symmetry_1
_geom_bond_site_symmetry_2
Cu1 O7 1_555 1_555
Cu2 O4 1_555 1_555
Cu3 O9 1_555 1_555
Cu4 O9 1_555 1_555
Si1 O13 1_555 1_555
Si2 O17 1_555 1_555
W1 O1 1_555 1_555
W2 O2 1_555 1_555
W3 O3 1_555 1_555
W4 O4 1_555 1_555
W5 O5 1_555 1_555
W6 O6 1_555 1_555
W7 O7 1_555 1_555
W8 O8 1_555 1_555
W9 O9 1_555 1_555
W10 O8 1_555 1_555
W11 O11 1_555 1_555
W12 O12 1_555 1_555
S1 C1 1_555 1_555
S2 C3 1_555 1_555
S3 C7 1_555 1_555
S4 C9 1_555 1_555
S5 C13 1_555 1_555
S6 C15 1_555 1_555
S7 C19 1_555 1_555
O7 Cu2 1_555 1_555
O10 W10 1_555 1_555
O13 W1 1_555 1_555
O14 Si1 1_555 1_555
O15 Si1 1_555 1_555
O16 Si1 1_555 1_555
O17 W12 1_555 1_555
O18 Si2 1_555 1_555
O19 Si2 1_555 1_555
O20 Si2 1_555 1_555
O21 W1 1_555 1_555
O22 W2 1_555 1_555
O23 W3 1_555 1_555
O24 W4 1_555 1_555
O25 W1 1_555 1_555
O26 W2 1_555 1_555
O27 W4 1_555 1_555
O28 W2 1_555 1_555
O29 W1 1_555 1_555
O30 W1 1_555 1_555
O31 W3 1_555 1_555
O32 W5 1_555 1_555
O33 W7 1_555 1_555
O34 W7 1_555 1_555
O35 W7 1_555 1_555
O36 W10 1_555 1_555
O37 W9 1_555 1_555
O38 W10 1_555 1_555
O39 W7 1_555 1_555
O40 W9 1_555 1_555
O41 W8 1_555 1_555
O42 W8 1_555 1_555
O43 W9 1_555 1_555
O44 W12 1_555 1_555
N1 Cu1 1_555 1_555
N2 Cu2 1_555 1_555
N3 Cu3 1_555 1_555
N4 N3 1_555 1_555
N5 Cu1 1_555 1_555
N6 N5 1_555 1_555
N7 N6 1_555 1_555
N8 N7 1_555 1_555
N9 Cu2 1_555 1_555
N10 Cu1 1_555 1_555
N11 N10 1_555 1_555
N12 N11 1_555 1_555
N13 Cu2 1_555 1_555
N14 Cu3 1_555 1_555
N15 N14 1_555 1_555
N16 N15 1_555 1_555
N17 Cu4 1_555 1_555
N18 Cu3 1_555 1_555
N19 N18 1_555 1_555
N20 N19 1_555 1_555
N21 N22 1_555 1_555
N22 N23 1_555 1_555
N23 N24 1_555 1_555
N24 C16 1_555 1_555
N25 N26 1_555 1_555
N26 Cu4 1_555 1_555
N27 N26 1_555 1_555
N28 N27 1_555 1_555
C1 N1 1_555 1_555
C2 S1 1_555 1_555
H1 C2 1_555 1_555
H2 C2 1_555 1_555
C3 C2 1_555 1_555
H3 C3 1_555 1_555
H4 C3 1_555 1_555
C4 S2 1_555 1_555
C5 N4 1_555 1_555
H5 C5 1_555 1_555
H6 C5 1_555 1_555
H7 C5 1_555 1_555
C6 N8 1_555 1_555
H8 C6 1_555 1_555
H9 C6 1_555 1_555
H10 C6 1_555 1_555
C7 N9 1_555 1_555
C8 S3 1_555 1_555
H11 C8 1_555 1_555
H12 C8 1_555 1_555
C9 C8 1_555 1_555
H13 C9 1_555 1_555
H14 C9 1_555 1_555
C10 S4 1_555 1_555
C11 N12 1_555 1_555
H15 C11 1_555 1_555
H16 C11 1_555 1_555
H17 C11 1_555 1_555
C12 N16 1_555 1_555
H18 C12 1_555 1_555
H19 C12 1_555 1_555
H20 C12 1_555 1_555
C13 N17 1_555 1_555
C14 S5 1_555 1_555
H21 C14 1_555 1_555
H22 C14 1_555 1_555
C15 C14 1_555 1_555
H23 C15 1_555 1_555
H24 C15 1_555 1_555
C16 S6 1_555 1_555
C17 N20 1_555 1_555
H25 C17 1_555 1_555
H26 C17 1_555 1_555
H27 C17 1_555 1_555
C18 N24 1_555 1_555
H28 C18 1_555 1_555
H29 C18 1_555 1_555
H30 C18 1_555 1_555
C19 N25 1_555 1_555
C20 S7 1_555 1_555
H31 C20 1_555 1_555
H32 C20 1_555 1_555
C21 N28 1_555 1_555
H33 C21 1_555 1_555
H34 C21 1_555 1_555
H35 C21 1_555 1_555
Cu1A O7A 1_555 1_555
Cu2A O4A 1_555 1_555
Cu3A O9A 1_555 1_555
Cu3A_2 N18A 1_555 1_555
Cu4A O9A 1_555 1_555
Cu4A_2 N22 1_555 1_555
Cu4A_3 N26A 1_555 1_555
W1A O1A 1_555 1_555
W2A O13 1_555 1_555
W3A O13 1_555 1_555
W4A O4A_2 1_555 1_555
W4A_2 O4A 1_555 1_555
W5A O5A 1_555 1_555
W6A O31 1_555 1_555
W7A O7A 1_555 1_555
W8A O19 1_555 1_555
W9A O9A 1_555 1_555
W10A O8A 1_555 1_555
W11A O43 1_555 1_555
W12A O20 1_555 1_555
S1A C1A 1_555 1_555
S2A C3A 1_555 1_555
S3A C7A 1_555 1_555
S4A C9A 1_555 1_555
S5A C13A 1_555 1_555
S6A C15A 1_555 1_555
S7A C19A 1_555 1_555
O2A W2A 1_555 1_555
O3A W3A 1_555 1_555
O6A W6A 1_555 1_555
O7A Cu2A 1_555 1_555
O8A W8A 1_555 1_555
O10A W10A 1_555 1_555
O11A W11A 1_555 1_555
O12A W12A 1_555 1_555
O13A Si1 1_555 1_555
O14A Si1 1_555 1_555
O15A Si1 1_555 1_555
O16A Si1 1_555 1_555
O17A Si2 1_555 1_555
O18A Si2 1_555 1_555
O19A Si2 1_555 1_555
O20A Si2 1_555 1_555
O21A W1A 1_555 1_555
O22A W2A 1_555 1_555
O23A W3A 1_555 1_555
O24A W4A 1_555 1_555
O25A W1A 1_555 1_555
O26A W2A 1_555 1_555
O27A W4A 1_555 1_555
O28A W2A 1_555 1_555
O29A W3 1_555 1_555
O30A W2 1_555 1_555
O31A W6 1_555 1_555
O32A W6 1_555 1_555
O33A W7A 1_555 1_555
O34A W7A 1_555 1_555
O35A W7A 1_555 1_555
O36A W10A 1_555 1_555
O37A W9A 1_555 1_555
O38A W10A 1_555 1_555
O39A W8 1_555 1_555
O40A W8 1_555 1_555
O41A W8A 1_555 1_555
O42A W8A 1_555 1_555
O43A W11 1_555 1_555
O44A W11 1_555 1_555
N1A Cu1A 1_555 1_555
N2A Cu2A 1_555 1_555
N3A Cu3A 1_555 1_555
N4A N3A 1_555 1_555
N5A Cu1A 1_555 1_555
N6A N5A 1_555 1_555
N7A N6A 1_555 1_555
N8A N7A 1_555 1_555
N9A Cu2A 1_555 1_555
N10A Cu1A 1_555 1_555
N11A N10A 1_555 1_555
N12A N11A 1_555 1_555
N13A Cu2A 1_555 1_555
N14A Cu3A 1_555 1_555
N15A N14A 1_555 1_555
N16A N15A 1_555 1_555
N17A Cu4A_2 1_555 1_555
N17A_2 Cu4A 1_555 1_555
N18A N17A 1_555 1_555
N18A_2 Cu3A 1_555 1_555
N19A N18A 1_555 1_555
N20A N19A 1_555 1_555
N21A N22A 1_555 1_555
N22A Cu4 1_555 1_555
N22_2 Cu4A 1_555 1_555
N23A N22A 1_555 1_555
N24A N23A 1_555 1_555
N25A N26A 1_555 1_555
N26A N27A 1_555 1_555
N26A_2 Cu4A 1_555 1_555
N27A N28A 1_555 1_555
N28A C19A 1_555 1_555
C1A N1A 1_555 1_555
C2A S1A 1_555 1_555
H1A C2A 1_555 1_555
H2A C2A 1_555 1_555
C3A C2A 1_555 1_555
H3A C3A 1_555 1_555
H4A C3A 1_555 1_555
C4A S2A 1_555 1_555
C5A N4A 1_555 1_555
H5A C5A 1_555 1_555
H6A C5A 1_555 1_555
H7A C5A 1_555 1_555
C6A N8A 1_555 1_555
H8A C6A 1_555 1_555
H9A C6A 1_555 1_555
H10A C6A 1_555 1_555
C7A N9A 1_555 1_555
C8A S3A 1_555 1_555
H11A C8A 1_555 1_555
H12A C8A 1_555 1_555
C9A C8A 1_555 1_555
H13A C9A 1_555 1_555
H14A C9A 1_555 1_555
C10A S4A 1_555 1_555
C11A N12A 1_555 1_555
H15A C11A 1_555 1_555
H16A C11A 1_555 1_555
H17A C11A 1_555 1_555
C12A N16A 1_555 1_555
H18A C12A 1_555 1_555
H19A C12A 1_555 1_555
H20A C12A 1_555 1_555
C13A N17A 1_555 1_555
C14A S5A 1_555 1_555
H21A C14A 1_555 1_555
H22A C14A 1_555 1_555
C15A C14A 1_555 1_555
H23A C15A 1_555 1_555
H24A C15A 1_555 1_555
C16A S6A 1_555 1_555
C17A N20A 1_555 1_555
H25A C17A 1_555 1_555
H26A C17A 1_555 1_555
H27A C17A 1_555 1_555
C18A N24A 1_555 1_555
H28A C18A 1_555 1_555
H29A C18A 1_555 1_555
H30A C18A 1_555 1_555
C19A N25A 1_555 1_555
C20A C20 1_555 1_555
H31A C20A 1_555 1_555
H32A C20A 1_555 1_555
C21A N28A 1_555 1_555
H33A C21A 1_555 1_555
H34A C21A 1_555 1_555
H35A C21A 1_555 1_555
W2 O13A 1_555 1_555
W3 O15 1_555 1_555
W3 O26 1_555 1_555
W3 O13A 1_555 1_555
W4 O14 1_555 1_555
W4 O16 1_555 1_555
W4 O22 1_555 1_555
W4 O25 1_555 1_555
W5 O14 1_555 1_555
W5 O21 1_555 1_555
W5 O23 1_555 1_555
W5 O24 1_555 1_555
W6 O16 1_555 1_555
W6 O27 1_555 1_555
W6 O28 1_555 1_555
W7 O18 1_555 1_555
W7 O19 1_555 1_555
W8 O19A 1_555 1_555
W9 O19 1_555 1_555
W9 O33 1_555 1_555
W10 O18 1_555 1_555
W10 O34 1_555 1_555
W11 O20 1_555 1_555
W11 O35 1_555 1_555
W11 O36 1_555 1_555
W12 O37 1_555 1_555
W12 O38 1_555 1_555
W12 O41 1_555 1_555
W12 O20A 1_555 1_555
O13 O14 1_555 1_555
O13 O29 1_555 1_555
O13 O15A 1_555 1_555
O13 O16A 1_555 1_555
O14 O15 1_555 1_555
O14 O16 1_555 1_555
O15 O13A 1_555 1_555
O15 O16A 1_555 1_555
O16 O13A 1_555 1_555
O16 O15A 1_555 1_555
O17 O18 1_555 1_555
O17 O19A 1_555 1_555
O17 O20A 1_555 1_555
O18 O19 1_555 1_555
O18 O20 1_555 1_555
O19 O40 1_555 1_555
O19 O17A 1_555 1_555
O19 O20A 1_555 1_555
O20 O17A 1_555 1_555
O20 O19A 1_555 1_555
O20 O44A 1_555 1_555
O29 W3A 1_555 1_555
O30 W2A 1_555 1_555
O32 W6A 1_555 1_555
O39 W8A 1_555 1_555
O40 W8A 1_555 1_555
O44 W11A 1_555 1_555
O44 O20A 1_555 1_555
N1 N2 1_555 1_555
N2 N3 1_555 1_555
N4 C1 1_555 1_555
N5 C4 1_555 1_555
N8 C4 1_555 1_555
N9 N10 1_555 1_555
N12 C7 1_555 1_555
N13 N14 1_555 1_555
N13 C10 1_555 1_555
N16 C10 1_555 1_555
N17 N18 1_555 1_555
N20 C13 1_555 1_555
N21 C16 1_555 1_555
N28 C19 1_555 1_555
W1A O13A 1_555 1_555
W1A O29A 1_555 1_555
W1A O30A 1_555 1_555
W3A O15A 1_555 1_555
W3A O26A 1_555 1_555
W3A O31A 1_555 1_555
W4A O14A 1_555 1_555
W4A O16A 1_555 1_555
W4A O22A 1_555 1_555
W4A O25A 1_555 1_555
W5A O14A 1_555 1_555
W5A O21A 1_555 1_555
W5A O23A 1_555 1_555
W5A O24A 1_555 1_555
W5A O32A 1_555 1_555
W6A O16A 1_555 1_555
W6A O27A 1_555 1_555
W6A O28A 1_555 1_555
W7A O18A 1_555 1_555
W7A O19A 1_555 1_555
W7A O39A 1_555 1_555
W9A O19A 1_555 1_555
W9A O33A 1_555 1_555
W9A O40A 1_555 1_555
W9A O43A 1_555 1_555
W10A O18A 1_555 1_555
W10A O34A 1_555 1_555
W11A O20A 1_555 1_555
W11A O35A 1_555 1_555
W11A O36A 1_555 1_555
W12A O17A 1_555 1_555
W12A O37A 1_555 1_555
W12A O38A 1_555 1_555
W12A O41A 1_555 1_555
W12A O44A 1_555 1_555
S7A C20A 1_555 1_555
O13A O14A 1_555 1_555
O13A O29A 1_555 1_555
O14A O15A 1_555 1_555
O14A O16A 1_555 1_555
O17A O18A 1_555 1_555
O18A O19A 1_555 1_555
O18A O20A 1_555 1_555
O19A O40A 1_555 1_555
N1A N2A 1_555 1_555
N2A N3A 1_555 1_555
N4A C1A 1_555 1_555
N5A C4A 1_555 1_555
N8A C4A 1_555 1_555
N9A N10A 1_555 1_555
N12A C7A 1_555 1_555
N13A N14A 1_555 1_555
N13A C10A 1_555 1_555
N16A C10A 1_555 1_555
N17A_2 N18A_2 1_555 1_555
N20A C13A 1_555 1_555
N21A C16A 1_555 1_555
N24A C16A 1_555 1_555

#END
