
#######################################################################
#
#                 Cambridge Crystallographic Data Centre
#                                CCDC 
#
#######################################################################
#
# If this CIF has been generated from an entry in the Cambridge 
# Structural Database, then it will include bibliographic, chemical, 
# crystal, experimental, refinement or atomic coordinate data resulting 
# from the CCDC's data processing and validation procedures.
#
#######################################################################

data_ILOSEI
_symmetry_cell_setting           triclinic
_symmetry_space_group_name_H-M   'P -1'
_symmetry_Int_Tables_number      2
_space_group_name_Hall           '-P 1'
loop_
_symmetry_equiv_pos_site_id
_symmetry_equiv_pos_as_xyz
1 x,y,z
2 -x,-y,-z
_cell_length_a                   12.3635(13)
_cell_length_b                   13.2905(14)
_cell_length_c                   13.9050(15)
_cell_angle_alpha                88.053(2)
_cell_angle_beta                 68.5830(10)
_cell_angle_gamma                64.3260(10)
_cell_volume                     1895.93
loop_
_atom_site_label
_atom_site_type_symbol
_atom_site_fract_x
_atom_site_fract_y
_atom_site_fract_z
O2 O -0.029(5) -0.039(5) -0.618(4)
Cu1 Cu -0.3230(6) -0.0510(6) -0.0553(5)
Cu2 Cu -0.4324(6) 0.3654(6) 0.0463(5)
Si1 Si 0.0000 -0.5000 -0.5000
W1 W 0.21433(18) -0.78565(15) -0.51252(14)
W2 W 0.29477(15) -0.57247(15) -0.46839(13)
W3 W -0.16950(19) -0.31508(18) -0.26012(15)
W4 W 0.03667(18) -0.60361(15) -0.27260(14)
W5 W -0.08456(19) -0.71253(16) -0.53769(14)
W6 W -0.25950(16) -0.52359(16) -0.30078(15)
S1 S -0.2613(13) 0.0438(12) -0.3041(10)
S2 S -0.2766(14) 0.1865(11) -0.1237(12)
S3 S -0.1411(10) 0.3509(10) 0.0584(9)
S4 S -0.3643(10) 0.3911(10) 0.2738(9)
O1 O 0.312(3) -0.921(3) -0.515(3)
O3 O 0.433(3) -0.606(3) -0.452(3)
O4 O -0.250(3) -0.227(3) -0.147(2)
O5 O 0.058(4) -0.656(3) -0.165(3)
O6 O -0.123(4) -0.811(3) -0.557(3)
O7 O -0.381(3) -0.538(2) -0.207(2)
O8 O -0.071(5) -0.494(4) -0.371(4)
O9 O 0.059(5) -0.633(5) -0.551(4)
O10 O 0.120(5) -0.474(4) -0.516(4)
O11 O 0.103(5) -0.586(5) -0.461(4)
O12 O -0.119(6) -0.597(6) -0.265(5)
O13 O -0.030(4) -0.281(4) -0.326(3)
O14 O 0.188(3) -0.580(3) -0.332(3)
O15 O -0.064(5) -0.445(5) -0.218(4)
O16 O 0.212(4) -0.414(3) -0.436(3)
O17 O -0.185(4) -0.661(3) -0.391(3)
O18 O 0.058(4) -0.794(4) -0.501(3)
O19 O -0.253(5) -0.227(4) -0.347(4)
O20 O -0.276(5) -0.391(4) -0.248(4)
O21 O 0.320(4) -0.722(4) -0.515(3)
O22 O 0.126(4) -0.736(3) -0.368(3)
O23 O -0.342(5) -0.446(3) -0.387(3)
N1 N -0.447(4) 0.038(3) -0.128(3)
N2 N -0.576(3) 0.066(3) -0.088(3)
N3 N -0.621(4) 0.107(3) -0.157(3)
N4 N -0.523(4) 0.108(4) -0.239(3)
N5 N -0.161(3) -0.032(3) -0.094(3)
N6 N -0.046(4) -0.108(3) -0.094(3)
N7 N 0.039(4) -0.066(4) -0.121(3)
N8 N -0.033(4) 0.044(3) -0.137(3)
N9 N -0.361(3) 0.474(3) 0.019(2)
N10 N -0.429(3) 0.585(3) 0.008(3)
N11 N -0.372(3) 0.646(3) 0.015(3)
N12 N -0.260(4) 0.570(4) 0.031(3)
N13 N -0.395(4) 0.260(3) 0.147(3)
N14 N -0.395(5) 0.160(4) 0.146(4)
N15 N -0.380(5) 0.119(4) 0.227(4)
N16 N -0.359(3) 0.186(3) 0.274(3)
C1 C -0.417(4) 0.061(4) -0.219(3)
C2 C -0.262(5) 0.174(4) -0.253(4)
H1 H -0.1812 0.1754 -0.2976
H2 H -0.3326 0.2393 -0.2606
C3 C -0.148(5) 0.062(4) -0.121(4)
C4 C -0.547(5) 0.143(4) -0.332(4)
H3 H -0.4692 0.1387 -0.3850
H4 H -0.6153 0.2187 -0.3157
H5 H -0.5733 0.0935 -0.3562
C5 C 0.027(6) 0.124(5) -0.184(5)
H6 H -0.0399 0.1945 -0.1867
H7 H 0.0915 0.0901 -0.2532
H8 H 0.0676 0.1359 -0.1411
C6 C -0.255(3) 0.475(3) 0.034(3)
C7 C -0.198(3) 0.366(3) 0.198(3)
H9 H -0.1409 0.2974 0.2156
H10 H -0.1868 0.4271 0.2209
C8 C -0.368(3) 0.268(3) 0.229(3)
C9 C -0.183(6) 0.614(5) 0.048(5)
H11 H -0.1103 0.5541 0.0584
H12 H -0.2338 0.6704 0.1088
H13 H -0.1508 0.6468 -0.0117
C10 C -0.337(5) 0.152(4) 0.372(4)
H14 H -0.3227 0.2080 0.4012
H15 H -0.4114 0.1473 0.4217
H16 H -0.2613 0.0804 0.3558
Cu1A Cu 0.3230(6) -0.9490(6) -0.9447(5)
Cu1A_2 Cu -0.6770(6) 0.0510(6) 0.0553(5)
Cu2A Cu -0.5676(6) -0.3654(6) -0.0463(5)
Cu2A_2 Cu -0.5676(6) 0.6346(6) -0.0463(5)
Cu2_2 Cu 0.5676(6) -0.6346(6) -0.9537(5)
W1A W -0.21433(18) -0.21435(15) -0.48748(14)
W2A W -0.29477(15) -0.42753(15) -0.53161(13)
W3A W 0.16950(19) -0.68492(18) -0.73988(15)
W4A W -0.03667(18) -0.39639(15) -0.72740(14)
W5A W 0.08456(19) -0.28747(16) -0.46231(14)
W6A W 0.25950(16) -0.47641(16) -0.69922(15)
S1A S -0.7387(13) -0.0438(12) 0.3041(10)
S2A S -0.7234(14) -0.1865(11) 0.1237(12)
S3A S -0.8589(10) 0.6491(10) -0.0584(9)
S4A S -0.6357(10) 0.6089(10) -0.2738(9)
O1A O -0.312(3) -0.079(3) -0.485(3)
O3A O -0.433(3) -0.394(3) -0.548(3)
O4A O 0.250(3) -0.773(3) -0.853(2)
O5A O -0.058(4) -0.344(3) -0.835(3)
O6A O 0.123(4) -0.189(3) -0.443(3)
O7A O 0.381(3) -0.462(2) -0.793(2)
O7A_2 O -0.619(3) 0.538(2) 0.207(2)
O8A O 0.071(5) -0.506(4) -0.629(4)
O9A O -0.059(5) -0.367(5) -0.449(4)
O10A O -0.120(5) -0.526(4) -0.484(4)
O11A O -0.103(5) -0.414(5) -0.539(4)
O12A O 0.119(6) -0.403(6) -0.735(5)
O13A O 0.030(4) -0.719(4) -0.674(3)
O14A O -0.188(3) -0.420(3) -0.668(3)
O15A O 0.064(5) -0.555(5) -0.782(4)
O16A O -0.212(4) -0.586(3) -0.564(3)
O17A O 0.185(4) -0.339(3) -0.609(3)
O18A O -0.058(4) -0.206(4) -0.499(3)
O19A O 0.253(5) -0.773(4) -0.653(4)
O20A O 0.276(5) -0.609(4) -0.752(4)
O21A O -0.320(4) -0.278(4) -0.485(3)
O22A O -0.126(4) -0.264(3) -0.632(3)
O23A O 0.342(5) -0.554(3) -0.613(3)
N1A N -0.553(4) -0.038(3) 0.128(3)
N1A_2 N 0.447(4) -1.038(3) -0.872(3)
N2A N -0.424(3) -0.066(3) 0.088(3)
N2_2 N 0.424(3) -0.934(3) -1.088(3)
N3A N -0.379(4) -0.107(3) 0.157(3)
N4A N -0.477(4) -0.108(4) 0.239(3)
N5A N -0.839(3) 0.032(3) 0.094(3)
N5A_2 N 0.161(3) -0.968(3) -0.906(3)
N6A N -0.954(4) 0.108(3) 0.094(3)
N7A N -1.039(4) 0.066(4) 0.121(3)
N8A N -0.967(4) -0.044(3) 0.137(3)
N9A N -0.639(3) 0.526(3) -0.019(2)
N9A_2 N -0.639(3) -0.474(3) -0.019(2)
N10A N -0.571(3) 0.415(3) -0.008(3)
N10_2 N -0.429(3) -0.415(3) 0.008(3)
N11A N -0.628(3) 0.354(3) -0.015(3)
N12A N -0.740(4) 0.430(4) -0.031(3)
N13A N -0.605(4) 0.740(3) -0.147(3)
N13A_2 N -0.605(4) -0.260(3) -0.147(3)
N14A N -0.605(5) 0.840(4) -0.146(4)
N15A N -0.620(5) 0.881(4) -0.227(4)
N16A N -0.641(3) 0.814(3) -0.274(3)
C1A C -0.583(4) -0.061(4) 0.219(3)
C2A C -0.738(5) -0.174(4) 0.253(4)
H1A H -0.8188 -0.1754 0.2976
H2A H -0.6674 -0.2393 0.2606
C3A C -0.852(5) -0.062(4) 0.121(4)
C4A C -0.453(5) -0.143(4) 0.332(4)
H3A H -0.5308 -0.1387 0.3850
H4A H -0.3847 -0.2187 0.3157
H5A H -0.4267 -0.0935 0.3562
C5A C -1.027(6) -0.124(5) 0.184(5)
H6A H -0.9601 -0.1945 0.1867
H7A H -1.0915 -0.0901 0.2532
H8A H -1.0676 -0.1359 0.1411
C6A C -0.745(3) 0.525(3) -0.034(3)
C7A C -0.802(3) 0.634(3) -0.198(3)
H9A H -0.8591 0.7026 -0.2156
H10A H -0.8132 0.5729 -0.2209
C8A C -0.632(3) 0.732(3) -0.229(3)
C9A C -0.817(6) 0.386(5) -0.048(5)
H11A H -0.8897 0.4459 -0.0584
H12A H -0.7662 0.3296 -0.1088
H13A H -0.8492 0.3532 0.0117
C10A C -0.663(5) 0.848(4) -0.372(4)
H14A H -0.6773 0.7920 -0.4012
H15A H -0.5886 0.8527 -0.4217
H16A H -0.7387 0.9196 -0.3558
loop_
_geom_bond_atom_site_label_1
_geom_bond_atom_site_label_2
_geom_bond_site_symmetry_1
_geom_bond_site_symmetry_2
Cu1 O4 1_555 1_555
Cu2 S2 1_555 1_555
Si1 O8 1_555 1_555
W1 O1 1_555 1_555
W2 O3 1_555 1_555
W3 O4 1_555 1_555
W4 O5 1_555 1_555
W5 O6 1_555 1_555
W6 O7 1_555 1_555
S1 C1 1_555 1_555
S2 C2 1_555 1_555
S3 C6 1_555 1_555
S4 C7 1_555 1_555
O7 Cu2A 1_555 1_555
O8 W3 1_555 1_555
O9 Si1 1_555 1_555
O10 Si1 1_555 1_555
O11 Si1 1_555 1_555
O12 W4 1_555 1_555
O13 W3 1_555 1_555
O14 W2 1_555 1_555
O15 W3 1_555 1_555
O16 W2 1_555 1_555
O17 W5 1_555 1_555
O18 W1 1_555 1_555
O19 W3 1_555 1_555
O20 W3 1_555 1_555
O21 W1 1_555 1_555
O22 W1 1_555 1_555
O23 W6 1_555 1_555
N1 Cu1 1_555 1_555
N2 N1 1_555 1_555
N3 N2 1_555 1_555
N4 N3 1_555 1_555
N5 Cu1 1_555 1_555
N6 N5 1_555 1_555
N7 N6 1_555 1_555
N8 N7 1_555 1_555
N9 Cu2 1_555 1_555
N10 N9 1_555 1_555
N11 N10 1_555 1_555
N12 N11 1_555 1_555
N13 Cu2 1_555 1_555
N14 N13 1_555 1_555
N15 N14 1_555 1_555
N16 N15 1_555 1_555
C1 N1 1_555 1_555
C2 S1 1_555 1_555
H1 C2 1_555 1_555
H2 C2 1_555 1_555
C3 S2 1_555 1_555
C4 N4 1_555 1_555
H3 C4 1_555 1_555
H4 C4 1_555 1_555
H5 C4 1_555 1_555
C5 N8 1_555 1_555
H6 C5 1_555 1_555
H7 C5 1_555 1_555
H8 C5 1_555 1_555
C6 N9 1_555 1_555
C7 S3 1_555 1_555
H9 C7 1_555 1_555
H10 C7 1_555 1_555
C8 S4 1_555 1_555
C9 N12 1_555 1_555
H11 C9 1_555 1_555
H12 C9 1_555 1_555
H13 C9 1_555 1_555
C10 N16 1_555 1_555
H14 C10 1_555 1_555
H15 C10 1_555 1_555
H16 C10 1_555 1_555
Cu1A O4A 1_555 1_555
Cu1A_2 N2 1_555 1_555
Cu2A S2A 1_555 1_555
Cu2A_2 N10 1_555 1_555
Cu2_2 O7A 1_555 1_555
W1A O19 1_555 1_555
W2A O23 1_555 1_555
W3A O4A 1_555 1_555
W4A O5A 1_555 1_555
W5A O10 1_555 1_555
W6A O7A 1_555 1_555
S1A C1A 1_555 1_555
S2A C2A 1_555 1_555
S3A C6A 1_555 1_555
S4A C7A 1_555 1_555
O1A W1A 1_555 1_555
O3A W2A 1_555 1_555
O6A W5A 1_555 1_555
O7A_2 Cu2 1_555 1_555
O8A Si1 1_555 1_555
O9A Si1 1_555 1_555
O10A Si1 1_555 1_555
O11A Si1 1_555 1_555
O12A W4A 1_555 1_555
O13A W5 1_555 1_555
O14A W2A 1_555 1_555
O15A W3A 1_555 1_555
O16A W5 1_555 1_555
O17A W5A 1_555 1_555
O18A W1A 1_555 1_555
O19A W1 1_555 1_555
O20A W3A 1_555 1_555
O21A W1A 1_555 1_555
O22A W1A 1_555 1_555
O23A W2 1_555 1_555
N1A Cu1A_2 1_555 1_555
N1A_2 Cu1A 1_555 1_555
N2A Cu1 1_555 1_555
N2_2 Cu1A 1_555 1_555
N3A N2A 1_555 1_555
N4A N3A 1_555 1_555
N5A Cu1A_2 1_555 1_555
N5A_2 Cu1A 1_555 1_555
N6A N5A 1_555 1_555
N7A N6A 1_555 1_555
N8A N7A 1_555 1_555
N9A Cu2A_2 1_555 1_555
N9A_2 Cu2A 1_555 1_555
N10A Cu2 1_555 1_555
N10_2 Cu2A 1_555 1_555
N11A N10A 1_555 1_555
N12A N11A 1_555 1_555
N13A Cu2A_2 1_555 1_555
N13A_2 Cu2A 1_555 1_555
N14A N13A 1_555 1_555
N15A N14A 1_555 1_555
N16A N15A 1_555 1_555
C1A N1A 1_555 1_555
C2A S1A 1_555 1_555
H1A C2A 1_555 1_555
H2A C2A 1_555 1_555
C3A S2A 1_555 1_555
C4A N4A 1_555 1_555
H3A C4A 1_555 1_555
H4A C4A 1_555 1_555
H5A C4A 1_555 1_555
C5A N8A 1_555 1_555
H6A C5A 1_555 1_555
H7A C5A 1_555 1_555
H8A C5A 1_555 1_555
C6A N9A 1_555 1_555
C7A S3A 1_555 1_555
H9A C7A 1_555 1_555
H10A C7A 1_555 1_555
C8A S4A 1_555 1_555
C9A N12A 1_555 1_555
H11A C9A 1_555 1_555
H12A C9A 1_555 1_555
H13A C9A 1_555 1_555
C10A N16A 1_555 1_555
H14A C10A 1_555 1_555
H15A C10A 1_555 1_555
H16A C10A 1_555 1_555
W1 O9 1_555 1_555
W1 O11 1_555 1_555
W2 O10 1_555 1_555
W2 O11 1_555 1_555
W2 O21 1_555 1_555
W4 O8 1_555 1_555
W4 O14 1_555 1_555
W4 O15 1_555 1_555
W4 O22 1_555 1_555
W5 O9 1_555 1_555
W5 O18 1_555 1_555
W5 O10A 1_555 1_555
W6 O8 1_555 1_555
W6 O12 1_555 1_555
W6 O17 1_555 1_555
W6 O20 1_555 1_555
O9 O11 1_555 1_555
O10 O11 1_555 1_555
O13 W5A 1_555 1_555
O16 W5A 1_555 1_555
N4 C1 1_555 1_555
N5 C3 1_555 1_555
N8 C3 1_555 1_555
N12 C6 1_555 1_555
N13 C8 1_555 1_555
N16 C8 1_555 1_555
W1A O9A 1_555 1_555
W1A O11A 1_555 1_555
W2A O10A 1_555 1_555
W2A O11A 1_555 1_555
W2A O16A 1_555 1_555
W2A O21A 1_555 1_555
W3A O8A 1_555 1_555
W3A O13A 1_555 1_555
W3A O19A 1_555 1_555
W4A O8A 1_555 1_555
W4A O14A 1_555 1_555
W4A O15A 1_555 1_555
W4A O22A 1_555 1_555
W5A O9A 1_555 1_555
W5A O18A 1_555 1_555
W6A O8A 1_555 1_555
W6A O12A 1_555 1_555
W6A O17A 1_555 1_555
W6A O20A 1_555 1_555
W6A O23A 1_555 1_555
O9A O11A 1_555 1_555
O10A O11A 1_555 1_555
N1A N2A 1_555 1_555
N4A C1A 1_555 1_555
N5A C3A 1_555 1_555
N8A C3A 1_555 1_555
N9A N10A 1_555 1_555
N12A C6A 1_555 1_555
N13A C8A 1_555 1_555
N16A C8A 1_555 1_555

#END
