
#######################################################################
#
#                 Cambridge Crystallographic Data Centre
#                                CCDC 
#
#######################################################################
#
# If this CIF has been generated from an entry in the Cambridge 
# Structural Database, then it will include bibliographic, chemical, 
# crystal, experimental, refinement or atomic coordinate data resulting 
# from the CCDC's data processing and validation procedures.
#
#######################################################################

data_ILOVOV
_symmetry_cell_setting           monoclinic
_symmetry_space_group_name_H-M   'C 2/c'
_symmetry_Int_Tables_number      15
_space_group_name_Hall           '-C 2yn'
loop_
_symmetry_equiv_pos_site_id
_symmetry_equiv_pos_as_xyz
1 x,y,z
2 -x,y,1/2-z
3 1/2+x,1/2+y,z
4 1/2-x,1/2+y,1/2-z
5 -x,-y,-z
6 x,-y,1/2+z
7 1/2-x,1/2-y,-z
8 1/2+x,1/2-y,1/2+z
_cell_length_a                   16.588(5)
_cell_length_b                   9.661(3)
_cell_length_c                   12.970(5)
_cell_angle_alpha                90
_cell_angle_beta                 123.16(3)
_cell_angle_gamma                90
_cell_volume                     1740.03
loop_
_atom_site_label
_atom_site_type_symbol
_atom_site_fract_x
_atom_site_fract_y
_atom_site_fract_z
Fe1 Fe 0.2500 -0.7500 0.5000
N1 N 0.2001(2) -0.5379(3) 0.4386(3)
N2 N 0.5491(3) -0.6395(4) 0.5998(3)
C1 C 0.4607(4) -0.6753(4) 0.5575(4)
C2 C 0.3840(3) -0.6690(4) 0.7876(5)
C3 C 0.1586(3) -0.3564(5) 0.2933(4)
H1 H 0.1632 -0.3214 0.2299
N3 N 0.3815(3) -0.7020(3) 0.5114(3)
C4 C 0.1074(3) -0.2846(4) 0.3309(4)
N4 N 0.3187(3) -0.6863(3) 0.6900(3)
C5 C 0.0523(3) -0.1541(4) 0.2671(4)
H2 H 0.0520 -0.1415 0.1927
H3 H 0.0858 -0.0758 0.3206
C6 C 0.1538(4) -0.4667(5) 0.4785(4)
H4 H 0.1524 -0.5031 0.5439
C7 C 0.2028(3) -0.4782(5) 0.3482(5)
H5 H 0.2372 -0.5227 0.3205
C8 C 0.1077(3) -0.3419(5) 0.4292(4)
H6 H 0.0770 -0.2966 0.4618
Fe1A Fe -0.2500 -0.7500 0.0000
Fe1A_2 Fe 0.7500 -0.7500 1.0000
N1F N 0.2999(2) -0.9621(3) 0.5614(3)
N1A N -0.2001(2) -0.5379(3) 0.0614(3)
N2A N 0.4509(3) -0.6395(4) 0.9002(3)
C1A C 0.5393(4) -0.6753(4) 0.9425(4)
C2A C 0.6160(3) -0.6690(4) 0.7124(5)
C3A C -0.1586(3) -0.3564(5) 0.2067(4)
H1A H -0.1632 -0.3214 0.2701
N3F N 0.1185(3) -0.7980(3) 0.4886(3)
N3A N 0.6185(3) -0.7020(3) 0.9886(3)
C4A C -0.1074(3) -0.2846(4) 0.1691(4)
N4F N 0.1813(3) -0.8137(3) 0.3100(3)
N4A N 0.6813(3) -0.6863(3) 0.8100(3)
C5A C -0.0523(3) -0.1541(4) 0.2329(4)
H2A H -0.0520 -0.1415 0.3073
H3A H -0.0858 -0.0758 0.1794
C6A C -0.1538(4) -0.4667(5) 0.0215(4)
H4A H -0.1524 -0.5031 -0.0439
C7A C -0.2028(3) -0.4782(5) 0.1518(5)
H5A H -0.2372 -0.5227 0.1795
C8A C -0.1077(3) -0.3419(5) 0.0708(4)
H6A H -0.0770 -0.2966 0.0382
loop_
_geom_bond_atom_site_label_1
_geom_bond_atom_site_label_2
_geom_bond_site_symmetry_1
_geom_bond_site_symmetry_2
Fe1 N1 1_555 1_555
N1 C6 1_555 1_555
N2 C1 1_555 1_555
C1 N3 1_555 1_555
C2 N4 1_555 1_555
C3 H1 1_555 1_555
N3 Fe1 1_555 1_555
C4 C3 1_555 1_555
N4 Fe1 1_555 1_555
C5 C4 1_555 1_555
H2 C5 1_555 1_555
H3 C5 1_555 1_555
C6 H4 1_555 1_555
C7 N1 1_555 1_555
H5 C7 1_555 1_555
C8 C4 1_555 1_555
H6 C8 1_555 1_555
Fe1A N1A 1_555 1_555
Fe1A_2 N3A 1_555 1_555
N1F Fe1 1_555 1_555
N1A C6A 1_555 1_555
N2A C2 1_555 1_555
C1A N2A 1_555 1_555
C2A N2 1_555 1_555
C3A H1A 1_555 1_555
N3F Fe1 1_555 1_555
N3A C1A 1_555 1_555
C4A C3A 1_555 1_555
N4F Fe1 1_555 1_555
N4A Fe1A_2 1_555 1_555
C5A C5 1_555 1_555
H2A C5A 1_555 1_555
H3A C5A 1_555 1_555
C6A H4A 1_555 1_555
C7A N1A 1_555 1_555
H5A C7A 1_555 1_555
C8A C4A 1_555 1_555
H6A C8A 1_555 1_555
C3 C7 1_555 1_555
C6 C8 1_555 1_555
C2A N4A 1_555 1_555
C3A C7A 1_555 1_555
C4A C5A 1_555 1_555
C6A C8A 1_555 1_555

#END
