
#######################################################################
#
#                 Cambridge Crystallographic Data Centre
#                                CCDC 
#
#######################################################################
#
# If this CIF has been generated from an entry in the Cambridge 
# Structural Database, then it will include bibliographic, chemical, 
# crystal, experimental, refinement or atomic coordinate data resulting 
# from the CCDC's data processing and validation procedures.
#
#######################################################################

data_ILUCOI
_symmetry_cell_setting           trigonal
_symmetry_space_group_name_H-M   'P -3'
_symmetry_Int_Tables_number      147
_space_group_name_Hall           '-P 3'
loop_
_symmetry_equiv_pos_site_id
_symmetry_equiv_pos_as_xyz
1 x,y,z
2 -y,x-y,z
3 -x+y,-x,z
4 -x,-y,-z
5 y,-x+y,-z
6 x-y,x,-z
_cell_length_a                   19.9067(7)
_cell_length_b                   19.9067(7)
_cell_length_c                   11.0186(4)
_cell_angle_alpha                90
_cell_angle_beta                 90
_cell_angle_gamma                120
_cell_volume                     3781.43
loop_
_atom_site_label
_atom_site_type_symbol
_atom_site_fract_x
_atom_site_fract_y
_atom_site_fract_z
Eu1 Eu 0.3333 0.6667 0.63459(3)
C1 C 0.5618(4) 0.7143(5) 0.1528(6)
H1 H 0.5306 0.6742 0.1000
C2 C 0.6367(7) 0.7612(9) 0.1234(11)
H2 H 0.6586 0.7534 0.0541
C3 C 0.6794(6) 0.8221(8) 0.2030(16)
H3 H 0.7308 0.8572 0.1842
C4 C 0.6496(7) 0.8327(6) 0.3065(16)
H4 H 0.6799 0.8740 0.3579
C5 C 0.5728(5) 0.7806(4) 0.3345(8)
H5 H 0.5516 0.7858 0.4066
C6 C 0.5292(3) 0.7230(3) 0.2581(5)
C7 C 0.4453(3) 0.6673(3) 0.2856(5)
H6 H 0.4254 0.6918 0.3397
H7 H 0.4154 0.6539 0.2111
C8 C 0.3982(2) 0.5663(2) 0.4429(4)
C9 C 0.3908(2) 0.4928(2) 0.4881(4)
C10 C 0.3646(3) 0.4711(3) 0.6065(4)
H8 H 0.3558 0.5043 0.6546
C11 C 0.3515(4) 0.4014(3) 0.6544(5)
H9 H 0.3339 0.3879 0.7337
C12 C 0.3646(3) 0.3523(3) 0.5836(5)
H10 H 0.3537 0.3043 0.6142
C13 C 0.3936(3) 0.3732(3) 0.4680(4)
H11 H 0.4046 0.3405 0.4226
C14 C 0.4063(2) 0.4421(2) 0.4192(4)
C15 C 0.4406(3) 0.4132(3) 0.2239(4)
H12 H 0.3903 0.3673 0.2126
H13 H 0.4764 0.3977 0.2549
C16 C 0.4703(3) 0.4575(3) 0.1050(4)
C17 C 0.5446(3) 0.4825(3) 0.0712(4)
H14 H 0.5751 0.4702 0.1201
C18 C 0.4229(3) 0.4744(3) 0.0333(4)
C19 C 0.3400(4) 0.4486(5) 0.0666(7)
H15 H 0.3185 0.4684 0.0081
H16 H 0.3385 0.4679 0.1457
H17 H 0.3102 0.3929 0.0671
N1 N 0.4362(2) 0.5967(2) 0.3424(4)
H19 H 0.4574 0.5735 0.3070
N2 N 0.2489(2) 0.5222(2) 0.7737(4)
O1 O 0.36551(17) 0.59664(17) 0.4998(3)
O2 O 0.4353(2) 0.46658(19) 0.3056(3)
O3 O 0.31820(19) 0.57457(18) 0.8015(3)
O4 O 0.22149(18) 0.53391(18) 0.6796(3)
O5 O 0.2117(3) 0.4645(3) 0.8360(5)
Eu1C Eu 0.6667 0.3333 -0.63459(3)
Eu1D Eu 0.6667 1.3334 -0.63459(3)
Eu1E Eu -0.3334 0.3333 -0.63459(3)
C1C C 0.4382(4) 0.2857(5) -0.1528(6)
C1A C 0.2857(5) 0.8475(6) 0.1528(6)
C1D C 0.7143(5) 1.1525(6) -0.1528(6)
C1B C 0.1525(6) 0.4382(4) 0.1528(6)
C1E C -0.1525(6) 0.5618(4) -0.1528(6)
H1C H 0.4694 0.3258 -0.1000
H1A H 0.3258 0.8564 0.1000
H1D H 0.6742 1.1436 -0.1000
H1B H 0.1436 0.4694 0.1000
H1E H -0.1436 0.5306 -0.1000
C2C C 0.3633(7) 0.2388(9) -0.1234(11)
C2A C 0.2388(9) 0.8755(11) 0.1234(11)
C2D C 0.7612(9) 1.1245(11) -0.1234(11)
C2B C 0.1245(11) 0.3633(7) 0.1234(11)
C2E C -0.1245(11) 0.6367(7) -0.1234(11)
H2C H 0.3414 0.2466 -0.0541
H2A H 0.2466 0.9052 0.0541
H2D H 0.7534 1.0948 -0.0541
H2B H 0.0948 0.3414 0.0541
H2E H -0.0948 0.6586 -0.0541
C3C C 0.3206(6) 0.1779(8) -0.2030(16)
C3A C 0.1779(8) 0.8573(10) 0.2030(16)
C3D C 0.8221(8) 1.1427(10) -0.2030(16)
C3B C 0.1427(10) 0.3206(6) 0.2030(16)
C3E C -0.1427(10) 0.6794(6) -0.2030(16)
H3C H 0.2692 0.1428 -0.1842
H3A H 0.1428 0.8736 0.1842
H3D H 0.8572 1.1264 -0.1842
H3B H 0.1264 0.2692 0.1842
H3E H -0.1264 0.7308 -0.1842
C4C C 0.3504(7) 0.1673(6) -0.3065(16)
C4A C 0.1673(6) 0.8169(9) 0.3065(16)
C4D C 0.8327(6) 1.1831(9) -0.3065(16)
C4B C 0.1831(9) 0.3504(7) 0.3065(16)
C4E C -0.1831(9) 0.6496(7) -0.3065(16)
H4C H 0.3201 0.1260 -0.3579
H4A H 0.1260 0.8059 0.3579
H4D H 0.8740 1.1941 -0.3579
H4B H 0.1941 0.3201 0.3579
H4E H -0.1941 0.6799 -0.3579
C5C C 0.4272(5) 0.2194(4) -0.3345(8)
C5A C 0.2194(4) 0.7922(6) 0.3345(8)
C5D C 0.7806(4) 1.2078(6) -0.3345(8)
C5B C 0.2078(6) 0.4272(5) 0.3345(8)
C5E C -0.2078(6) 0.5728(5) -0.3345(8)
H5C H 0.4484 0.2142 -0.4066
H5A H 0.2142 0.7658 0.4066
H5D H 0.7858 1.2342 -0.4066
H5B H 0.2342 0.4484 0.4066
H5E H -0.2342 0.5516 -0.4066
C6C C 0.4708(3) 0.2770(3) -0.2581(5)
C6A C 0.2770(3) 0.8062(4) 0.2581(5)
C6D C 0.7230(3) 1.1938(4) -0.2581(5)
C6B C 0.1938(4) 0.4708(3) 0.2581(5)
C6E C -0.1938(4) 0.5292(3) -0.2581(5)
C7C C 0.5547(3) 0.3327(3) -0.2856(5)
C7A C 0.3327(3) 0.7780(4) 0.2856(5)
C7D C 0.6673(3) 1.2220(4) -0.2856(5)
C7B C 0.2220(4) 0.5547(3) 0.2856(5)
C7E C -0.2220(4) 0.4453(3) -0.2856(5)
H6C H 0.5746 0.3082 -0.3397
H6A H 0.3082 0.7336 0.3397
H6D H 0.6918 1.2664 -0.3397
H6B H 0.2664 0.5746 0.3397
H6E H -0.2664 0.4254 -0.3397
H7C H 0.5846 0.3461 -0.2111
H7A H 0.3461 0.7615 0.2111
H7D H 0.6539 1.2385 -0.2111
H7B H 0.2385 0.5846 0.2111
H7E H -0.2385 0.4154 -0.2111
C8C C 0.6018(2) 0.4337(2) -0.4429(4)
C8A C 0.4337(2) 0.8319(3) 0.4429(4)
C8D C 0.5663(2) 1.1681(3) -0.4429(4)
C8B C 0.1681(3) 0.6018(2) 0.4429(4)
C8E C -0.1681(3) 0.3982(2) -0.4429(4)
C9C C 0.6092(2) 0.5072(2) -0.4881(4)
C9A C 0.5072(2) 0.8980(3) 0.4881(4)
C9D C 0.4928(2) 1.1020(3) -0.4881(4)
C9B C 0.1020(3) 0.6092(2) 0.4881(4)
C9E C -0.1020(3) 0.3908(2) -0.4881(4)
C10C C 0.6354(3) 0.5289(3) -0.6065(4)
C10A C 0.5289(3) 0.8935(4) 0.6065(4)
C10D C 0.4711(3) 1.1065(4) -0.6065(4)
C10B C 0.1065(4) 0.6354(3) 0.6065(4)
C10E C -0.1065(4) 0.3646(3) -0.6065(4)
H8C H 0.6442 0.4957 -0.6546
H8A H 0.4957 0.8515 0.6546
H8D H 0.5043 1.1485 -0.6546
H8B H 0.1485 0.6442 0.6546
H8E H -0.1485 0.3558 -0.6546
C11C C 0.6485(4) 0.5986(3) -0.6544(5)
C11A C 0.5986(3) 0.9501(5) 0.6544(5)
C11D C 0.4014(3) 1.0499(5) -0.6544(5)
C11B C 0.0499(5) 0.6485(4) 0.6544(5)
C11E C -0.0499(5) 0.3515(4) -0.6544(5)
H9C H 0.6661 0.6121 -0.7337
H9A H 0.6121 0.9460 0.7337
H9D H 0.3879 1.0540 -0.7337
H9B H 0.0540 0.6661 0.7337
H9E H -0.0540 0.3339 -0.7337
C12C C 0.6354(3) 0.6477(3) -0.5836(5)
C12A C 0.6477(3) 1.0123(4) 0.5836(5)
C12D C 0.3523(3) 0.9877(4) -0.5836(5)
C12B C -0.0123(4) 0.6354(3) 0.5836(5)
C12E C 0.0123(4) 0.3646(3) -0.5836(5)
H10C H 0.6463 0.6957 -0.6142
H10A H 0.6957 1.0494 0.6142
H10D H 0.3043 0.9506 -0.6142
H10B H -0.0494 0.6463 0.6142
H10E H 0.0494 0.3537 -0.6142
C13C C 0.6064(3) 0.6268(3) -0.4680(4)
C13A C 0.6268(3) 1.0204(4) 0.4680(4)
C13D C 0.3732(3) 0.9796(4) -0.4680(4)
C13B C -0.0204(4) 0.6064(3) 0.4680(4)
C13E C 0.0204(4) 0.3936(3) -0.4680(4)
H11C H 0.5954 0.6595 -0.4226
H11A H 0.6595 1.0641 0.4226
H11D H 0.3405 0.9359 -0.4226
H11B H -0.0641 0.5954 0.4226
H11E H 0.0641 0.4046 -0.4226
C14C C 0.5937(2) 0.5579(2) -0.4192(4)
C14A C 0.5579(2) 0.9642(3) 0.4192(4)
C14D C 0.4421(2) 1.0358(3) -0.4192(4)
C14B C 0.0358(3) 0.5937(2) 0.4192(4)
C14E C -0.0358(3) 0.4063(2) -0.4192(4)
C15C C 0.5594(3) 0.5868(3) -0.2239(4)
C15A C 0.5868(3) 1.0274(4) 0.2239(4)
C15D C 0.4132(3) 0.9726(4) -0.2239(4)
C15B C -0.0274(4) 0.5594(3) 0.2239(4)
C15E C 0.0274(4) 0.4406(3) -0.2239(4)
H12C H 0.6097 0.6327 -0.2126
H12A H 0.6327 1.0230 0.2126
H12D H 0.3673 0.9770 -0.2126
H12B H -0.0230 0.6097 0.2126
H12E H 0.0230 0.3903 -0.2126
H13C H 0.5236 0.6023 -0.2549
H13A H 0.6023 1.0787 0.2549
H13D H 0.3977 0.9213 -0.2549
H13B H -0.0787 0.5236 0.2549
H13E H 0.0787 0.4764 -0.2549
C16C C 0.5297(3) 0.5425(3) -0.1050(4)
C16A C 0.5425(3) 1.0128(4) 0.1050(4)
C16D C 0.4575(3) 0.9872(4) -0.1050(4)
C16B C -0.0128(4) 0.5297(3) 0.1050(4)
C16E C 0.0128(4) 0.4703(3) -0.1050(4)
C17C C 0.4554(3) 0.5175(3) -0.0712(4)
C17A C 0.5175(3) 1.0621(4) 0.0712(4)
C17D C 0.4825(3) 0.9379(4) -0.0712(4)
C17B C -0.0621(4) 0.4554(3) 0.0712(4)
C17E C 0.0621(4) 0.5446(3) -0.0712(4)
H14C H 0.4249 0.5298 -0.1201
H14A H 0.5298 1.1049 0.1201
H14D H 0.4702 0.8951 -0.1201
H14B H -0.1049 0.4249 0.1201
H14E H 0.1049 0.5751 -0.1201
C18C C 0.5771(3) 0.5256(3) -0.0333(4)
C18A C 0.5256(3) 0.9485(4) 0.0333(4)
C18D C 0.4744(3) 1.0515(4) -0.0333(4)
C18B C 0.0515(4) 0.5771(3) 0.0333(4)
C18E C -0.0515(4) 0.4229(3) -0.0333(4)
C19C C 0.6600(4) 0.5514(5) -0.0666(7)
C19A C 0.5514(5) 0.8914(6) 0.0666(7)
C19D C 0.4486(5) 1.1086(6) -0.0666(7)
C19B C 0.1086(6) 0.6600(4) 0.0666(7)
C19E C -0.1086(6) 0.3400(4) -0.0666(7)
H15C H 0.6815 0.5316 -0.0081
H15A H 0.5316 0.8501 0.0081
H15D H 0.4684 1.1499 -0.0081
H15B H 0.1499 0.6815 0.0081
H15E H -0.1499 0.3185 -0.0081
H16C H 0.6615 0.5321 -0.1457
H16A H 0.5321 0.8706 0.1457
H16D H 0.4679 1.1294 -0.1457
H16B H 0.1294 0.6615 0.1457
H16E H -0.1294 0.3385 -0.1457
H17C H 0.6898 0.6071 -0.0671
H17A H 0.6071 0.9173 0.0671
H17D H 0.3929 1.0827 -0.0671
H17B H 0.0827 0.6898 0.0671
H17E H -0.0827 0.3102 -0.0671
N1C N 0.5638(2) 0.4033(2) -0.3424(4)
N1A N 0.4033(2) 0.8395(3) 0.3424(4)
N1D N 0.5967(2) 1.1605(3) -0.3424(4)
N1B N 0.1605(3) 0.5638(2) 0.3424(4)
N1E N -0.1605(3) 0.4362(2) -0.3424(4)
H19C H 0.5426 0.4265 -0.3070
H19A H 0.4265 0.8839 0.3070
H19D H 0.5735 1.1161 -0.3070
H19B H 0.1161 0.5426 0.3070
H19E H -0.1161 0.4574 -0.3070
N2A N 0.4778(2) 0.7267(3) 0.7737(4)
N2B N 0.2733(3) 0.7511(2) 0.7737(4)
N2C N 0.7511(2) 0.4778(2) -0.7737(4)
N2D N 0.5222(2) 0.2733(3) -0.7737(4)
N2E N 0.7267(3) 0.2489(2) -0.7737(4)
O1C O 0.63449(17) 0.40336(17) -0.4998(3)
O1A O 0.40336(17) 0.76887(24) 0.4998(3)
O1D O 0.59664(17) 1.23113(24) -0.4998(3)
O1B O 0.23113(24) 0.63449(17) 0.4998(3)
O1E O -0.23113(24) 0.36551(17) -0.4998(3)
O1D_2 O 0.59664(17) 0.23113(24) -0.4998(3)
O1E_2 O 0.76887(24) 0.36551(17) -0.4998(3)
O2C O 0.5647(2) 0.53342(19) -0.3056(3)
O2A O 0.53342(19) 0.96872(28) 0.3056(3)
O2D O 0.46658(19) 1.03128(28) -0.3056(3)
O2B O 0.03128(28) 0.5647(2) 0.3056(3)
O2E O -0.03128(28) 0.4353(2) -0.3056(3)
O3A O 0.42543(18) 0.74363(26) 0.8015(3)
O3B O 0.25637(26) 0.68180(19) 0.8015(3)
O3C O 0.68180(19) 0.42543(18) -0.8015(3)
O3D O 0.57457(18) 0.25637(26) -0.8015(3)
O3E O 0.74363(26) 0.31820(19) -0.8015(3)
O4A O 0.46609(18) 0.68758(25) 0.6796(3)
O4B O 0.31242(25) 0.77851(18) 0.6796(3)
O4C O 0.77851(18) 0.46609(18) -0.6796(3)
O4D O 0.53391(18) 0.31242(25) -0.6796(3)
O4E O 0.68758(25) 0.22149(18) -0.6796(3)
O5A O 0.5355(3) 0.7472(4) 0.8360(5)
O5B O 0.2528(4) 0.7883(3) 0.8360(5)
O5C O 0.7883(3) 0.5355(3) -0.8360(5)
O5D O 0.4645(3) 0.2528(4) -0.8360(5)
O5E O 0.7472(4) 0.2117(3) -0.8360(5)
C20 C 0.1294(8) 0.2859(9) 0.718(4)
H18 H 0.1551 0.3396 0.6890
Cl1 Cl 0.0391(5) 0.2330(5) 0.8140(14)
Cl2 Cl 0.0919(17) 0.182(2) 0.6178(16)
Cl3 Cl 0.1700(5) 0.2368(6) 0.8303(12)
O6 O 0.3333 0.6667 0.0398(13)
O7 O 0.0000 0.0000 0.168(12)
loop_
_geom_bond_atom_site_label_1
_geom_bond_atom_site_label_2
_geom_bond_site_symmetry_1
_geom_bond_site_symmetry_2
Eu1 O1 1_555 1_555
C1 H1 1_555 1_555
C2 C1 1_555 1_555
H2 C2 1_555 1_555
C3 C2 1_555 1_555
H3 C3 1_555 1_555
C4 C3 1_555 1_555
H4 C4 1_555 1_555
C5 C4 1_555 1_555
H5 C5 1_555 1_555
C6 C1 1_555 1_555
C7 C6 1_555 1_555
H6 C7 1_555 1_555
H7 C7 1_555 1_555
C8 C9 1_555 1_555
C9 C10 1_555 1_555
C10 H8 1_555 1_555
C11 C10 1_555 1_555
H9 C11 1_555 1_555
C12 C11 1_555 1_555
H10 C12 1_555 1_555
C13 C12 1_555 1_555
H11 C13 1_555 1_555
C14 C9 1_555 1_555
C15 H12 1_555 1_555
H13 C15 1_555 1_555
C16 C15 1_555 1_555
C17 C16 1_555 1_555
H14 C17 1_555 1_555
C18 C16 1_555 1_555
C19 C18 1_555 1_555
H15 C19 1_555 1_555
H16 C19 1_555 1_555
H17 C19 1_555 1_555
C20 H18 1_555 1_555
Cl1 C20 1_555 1_555
Cl2 C20 1_555 1_555
Cl3 C20 1_555 1_555
N1 C7 1_555 1_555
H19 N1 1_555 1_555
N2 O3 1_555 1_555
O1 C8 1_555 1_555
O2 C14 1_555 1_555
O3 Eu1 1_555 1_555
O4 Eu1 1_555 1_555
O5 N2 1_555 1_555
Eu1C O1C 1_555 1_555
Eu1D O1D 1_555 1_555
Eu1E O1E 1_555 1_555
C1C H1C 1_555 1_555
C1A H1A 1_555 1_555
C1D H1D 1_555 1_555
C1B H1B 1_555 1_555
C1E H1E 1_555 1_555
C2C C1C 1_555 1_555
C2A C1A 1_555 1_555
C2D C1D 1_555 1_555
C2B C1B 1_555 1_555
C2E C1E 1_555 1_555
H2C C2C 1_555 1_555
H2A C2A 1_555 1_555
H2D C2D 1_555 1_555
H2B C2B 1_555 1_555
H2E C2E 1_555 1_555
C3C C2C 1_555 1_555
C3A C2A 1_555 1_555
C3D C2D 1_555 1_555
C3B C2B 1_555 1_555
C3E C2E 1_555 1_555
H3C C3C 1_555 1_555
H3A C3A 1_555 1_555
H3D C3D 1_555 1_555
H3B C3B 1_555 1_555
H3E C3E 1_555 1_555
C4C C3C 1_555 1_555
C4A C3A 1_555 1_555
C4D C3D 1_555 1_555
C4B C3B 1_555 1_555
C4E C3E 1_555 1_555
H4C C4C 1_555 1_555
H4A C4A 1_555 1_555
H4D C4D 1_555 1_555
H4B C4B 1_555 1_555
H4E C4E 1_555 1_555
C5C C4C 1_555 1_555
C5A C4A 1_555 1_555
C5D C4D 1_555 1_555
C5B C4B 1_555 1_555
C5E C4E 1_555 1_555
H5C C5C 1_555 1_555
H5A C5A 1_555 1_555
H5D C5D 1_555 1_555
H5B C5B 1_555 1_555
H5E C5E 1_555 1_555
C6C C1C 1_555 1_555
C6A C1A 1_555 1_555
C6D C1D 1_555 1_555
C6B C1B 1_555 1_555
C6E C1E 1_555 1_555
C7C C6C 1_555 1_555
C7A C6A 1_555 1_555
C7D C6D 1_555 1_555
C7B C6B 1_555 1_555
C7E C6E 1_555 1_555
H6C C7C 1_555 1_555
H6A C7A 1_555 1_555
H6D C7D 1_555 1_555
H6B C7B 1_555 1_555
H6E C7E 1_555 1_555
H7C C7C 1_555 1_555
H7A C7A 1_555 1_555
H7D C7D 1_555 1_555
H7B C7B 1_555 1_555
H7E C7E 1_555 1_555
C8C C9C 1_555 1_555
C8A C9A 1_555 1_555
C8D C9D 1_555 1_555
C8B C9B 1_555 1_555
C8E C9E 1_555 1_555
C9C C10C 1_555 1_555
C9A C10A 1_555 1_555
C9D C10D 1_555 1_555
C9B C10B 1_555 1_555
C9E C10E 1_555 1_555
C10C H8C 1_555 1_555
C10A H8A 1_555 1_555
C10D H8D 1_555 1_555
C10B H8B 1_555 1_555
C10E H8E 1_555 1_555
C11C C10C 1_555 1_555
C11A C10A 1_555 1_555
C11D C10D 1_555 1_555
C11B C10B 1_555 1_555
C11E C10E 1_555 1_555
H9C C11C 1_555 1_555
H9A C11A 1_555 1_555
H9D C11D 1_555 1_555
H9B C11B 1_555 1_555
H9E C11E 1_555 1_555
C12C C11C 1_555 1_555
C12A C11A 1_555 1_555
C12D C11D 1_555 1_555
C12B C11B 1_555 1_555
C12E C11E 1_555 1_555
H10C C12C 1_555 1_555
H10A C12A 1_555 1_555
H10D C12D 1_555 1_555
H10B C12B 1_555 1_555
H10E C12E 1_555 1_555
C13C C12C 1_555 1_555
C13A C12A 1_555 1_555
C13D C12D 1_555 1_555
C13B C12B 1_555 1_555
C13E C12E 1_555 1_555
H11C C13C 1_555 1_555
H11A C13A 1_555 1_555
H11D C13D 1_555 1_555
H11B C13B 1_555 1_555
H11E C13E 1_555 1_555
C14C C9C 1_555 1_555
C14A C9A 1_555 1_555
C14D C9D 1_555 1_555
C14B C9B 1_555 1_555
C14E C9E 1_555 1_555
C15C H12C 1_555 1_555
C15A H12A 1_555 1_555
C15D H12D 1_555 1_555
C15B H12B 1_555 1_555
C15E H12E 1_555 1_555
H13C C15C 1_555 1_555
H13A C15A 1_555 1_555
H13D C15D 1_555 1_555
H13B C15B 1_555 1_555
H13E C15E 1_555 1_555
C16C C15C 1_555 1_555
C16A C15A 1_555 1_555
C16D C15D 1_555 1_555
C16B C15B 1_555 1_555
C16E C15E 1_555 1_555
C17C C18 1_555 1_555
C17A C16A 1_555 1_555
C17D C16D 1_555 1_555
C17B C16B 1_555 1_555
C17E C16E 1_555 1_555
H14C C17C 1_555 1_555
H14A C17A 1_555 1_555
H14D C17D 1_555 1_555
H14B C17B 1_555 1_555
H14E C17E 1_555 1_555
C18C C17 1_555 1_555
C18A C16A 1_555 1_555
C18D C16D 1_555 1_555
C18B C16B 1_555 1_555
C18E C16E 1_555 1_555
C19C C18C 1_555 1_555
C19A C18A 1_555 1_555
C19D C18D 1_555 1_555
C19B C18B 1_555 1_555
C19E C18E 1_555 1_555
H15C C19C 1_555 1_555
H15A C19A 1_555 1_555
H15D C19D 1_555 1_555
H15B C19B 1_555 1_555
H15E C19E 1_555 1_555
H16C C19C 1_555 1_555
H16A C19A 1_555 1_555
H16D C19D 1_555 1_555
H16B C19B 1_555 1_555
H16E C19E 1_555 1_555
H17C C19C 1_555 1_555
H17A C19A 1_555 1_555
H17D C19D 1_555 1_555
H17B C19B 1_555 1_555
H17E C19E 1_555 1_555
N1C C7C 1_555 1_555
N1A C7A 1_555 1_555
N1D C7D 1_555 1_555
N1B C7B 1_555 1_555
N1E C7E 1_555 1_555
H19C N1C 1_555 1_555
H19A N1A 1_555 1_555
H19D N1D 1_555 1_555
H19B N1B 1_555 1_555
H19E N1E 1_555 1_555
N2A O3A 1_555 1_555
N2B O3B 1_555 1_555
N2C O3C 1_555 1_555
N2D O3D 1_555 1_555
N2E O3E 1_555 1_555
O1C C8C 1_555 1_555
O1A Eu1 1_555 1_555
O1D C8D 1_555 1_555
O1B Eu1 1_555 1_555
O1E C8E 1_555 1_555
O1D_2 Eu1C 1_555 1_555
O1E_2 Eu1C 1_555 1_555
O2C C14C 1_555 1_555
O2A C14A 1_555 1_555
O2D C14D 1_555 1_555
O2B C14B 1_555 1_555
O2E C14E 1_555 1_555
O3A Eu1 1_555 1_555
O3B Eu1 1_555 1_555
O3C Eu1C 1_555 1_555
O3D Eu1C 1_555 1_555
O3E Eu1C 1_555 1_555
O4A Eu1 1_555 1_555
O4B Eu1 1_555 1_555
O4C Eu1C 1_555 1_555
O4D Eu1C 1_555 1_555
O4E Eu1C 1_555 1_555
O5A N2A 1_555 1_555
O5B N2B 1_555 1_555
O5C N2C 1_555 1_555
O5D N2D 1_555 1_555
O5E N2E 1_555 1_555
C5 C6 1_555 1_555
C8 N1 1_555 1_555
C13 C14 1_555 1_555
C15 O2 1_555 1_555
N2 O4 1_555 1_555
C5C C6C 1_555 1_555
C5A C6A 1_555 1_555
C5D C6D 1_555 1_555
C5B C6B 1_555 1_555
C5E C6E 1_555 1_555
C8C N1C 1_555 1_555
C8A N1A 1_555 1_555
C8A O1A 1_555 1_555
C8D N1D 1_555 1_555
C8B N1B 1_555 1_555
C8B O1B 1_555 1_555
C8E N1E 1_555 1_555
C13C C14C 1_555 1_555
C13A C14A 1_555 1_555
C13D C14D 1_555 1_555
C13B C14B 1_555 1_555
C13E C14E 1_555 1_555
C15C O2C 1_555 1_555
C15A O2A 1_555 1_555
C15D O2D 1_555 1_555
C15B O2B 1_555 1_555
C15E O2E 1_555 1_555
C16C C17C 1_555 1_555
C16C C18C 1_555 1_555
C17A C18D 1_555 1_555
C17D C18A 1_555 1_555
C17B C18E 1_555 1_555
C17E C18B 1_555 1_555
N2A O4A 1_555 1_555
N2B O4B 1_555 1_555
N2C O4C 1_555 1_555
N2D O4D 1_555 1_555
N2E O4E 1_555 1_555

#END
