
#######################################################################
#
#                 Cambridge Crystallographic Data Centre
#                                CCDC 
#
#######################################################################
#
# If this CIF has been generated from an entry in the Cambridge 
# Structural Database, then it will include bibliographic, chemical, 
# crystal, experimental, refinement or atomic coordinate data resulting 
# from the CCDC's data processing and validation procedures.
#
#######################################################################

data_ILUCUO
_symmetry_cell_setting           trigonal
_symmetry_space_group_name_H-M   'P -3'
_symmetry_Int_Tables_number      147
_space_group_name_Hall           '-P 3'
loop_
_symmetry_equiv_pos_site_id
_symmetry_equiv_pos_as_xyz
1 x,y,z
2 -y,x-y,z
3 -x+y,-x,z
4 -x,-y,-z
5 y,-x+y,-z
6 x-y,x,-z
_cell_length_a                   19.9784(12)
_cell_length_b                   19.9784(12)
_cell_length_c                   11.0176(14)
_cell_angle_alpha                90
_cell_angle_beta                 90
_cell_angle_gamma                120
_cell_volume                     3808.37
loop_
_atom_site_label
_atom_site_type_symbol
_atom_site_fract_x
_atom_site_fract_y
_atom_site_fract_z
Sm1 Sm 0.3333 0.6667 -0.13629(3)
O1 O 0.4662(2) 0.7788(2) -0.1811(4)
C1 C 0.3908(3) 0.8981(2) 0.0110(4)
O2 O 0.36568(19) 0.76891(17) -0.0002(3)
O3 O 0.4354(2) 0.9690(2) 0.1935(3)
O4 O 0.4267(2) 0.6830(2) -0.3042(3)
N1 N 0.4361(3) 0.8394(2) 0.1582(4)
H1 H 0.4573 0.8836 0.1939
C2 C 0.4062(3) 0.9635(3) 0.0797(4)
C3 C 0.3637(3) 0.8926(3) -0.1064(5)
H2 H 0.3535 0.8499 -0.1535
C4 C 0.3932(3) 1.0204(3) 0.0309(5)
H3 H 0.4037 1.0638 0.0766
C5 C 0.3515(4) 0.9498(3) -0.1549(5)
H4 H 0.3343 0.9458 -0.2344
C6 C 0.3647(4) 1.0120(3) -0.0857(5)
H5 H 0.3544 1.0491 -0.1174
C7 C 0.3982(2) 0.8324(3) 0.0565(4)
C8 C 0.4701(3) 1.0124(3) 0.3951(5)
C9 C 0.5449(3) 1.0622(3) 0.4288(5)
H6 H 0.5754 1.1047 0.3798
C10 C 0.4400(4) 1.0271(3) 0.2763(5)
H7 H 0.3895 1.0220 0.2880
H8 H 0.4752 1.0785 0.2458
C11 C 0.4232(3) 0.9487(3) 0.4660(5)
C12 C 0.3403(4) 0.8917(5) 0.4327(7)
H9 H 0.3175 0.8530 0.4948
H10 H 0.3391 0.8675 0.3568
H11 H 0.3117 0.9184 0.4252
C13 C 0.5294(4) 0.8063(3) 0.2404(6)
C14 C 0.4448(4) 0.7781(3) 0.2152(6)
H12 H 0.4242 0.7335 0.1619
H13 H 0.4160 0.7625 0.2906
C15 C 0.5727(5) 0.7922(4) 0.1635(9)
H14 H 0.5507 0.7656 0.0918
C16 C 0.5616(5) 0.8465(5) 0.3458(7)
H15 H 0.5302 0.8541 0.3995
O5 O 0.5362(3) 0.7897(3) -0.3378(6)
N2 N 0.4782(3) 0.7516(3) -0.2759(5)
C17 C 0.6784(8) 0.8563(9) 0.294(2)
H16 H 0.7293 0.8716 0.3140
C18 C 0.6369(8) 0.8756(8) 0.3749(13)
H17 H 0.6592 0.9061 0.4433
C19 C 0.6497(9) 0.8165(7) 0.188(2)
H18 H 0.6799 0.8062 0.1356
Sm1C Sm 0.6667 1.3333 1.13629(3)
Sm1D Sm -0.3333 0.3334 1.13629(3)
Sm1E Sm 0.6666 0.3333 1.13629(3)
O1A O 0.2212(2) 0.6874(3) -0.1811(4)
O1B O 0.3126(3) 0.5338(2) -0.1811(4)
O1C O 0.5338(2) 1.2212(2) 1.1811(4)
O1D O 0.7788(2) 1.3126(3) 1.1811(4)
O1E O 0.6874(3) 1.4662(2) 1.1811(4)
C1C C 0.6092(3) 1.1019(2) 0.9890(4)
C1A C 0.1019(2) 0.4927(4) 0.0110(4)
C1D C -0.1019(2) 0.5073(4) 0.9890(4)
C1B C 0.5073(4) 0.6092(3) 0.0110(4)
C1E C 0.4927(4) 0.3908(3) 0.9890(4)
O2C O 0.63432(19) 1.23109(17) 1.0002(3)
O2A O 0.23109(17) 0.59677(25) -0.0002(3)
O2D O -0.23109(17) 0.40323(25) 1.0002(3)
O2B O 0.40323(25) 0.63432(19) -0.0002(3)
O2E O 0.59677(25) 0.36568(19) 1.0002(3)
O2D_2 O 0.76891(17) 1.40323(25) 1.0002(3)
O2E_2 O 0.59677(25) 1.36568(19) 1.0002(3)
O3C O 0.5646(2) 1.0310(2) 0.8065(3)
O3A O 0.0310(2) 0.4664(3) 0.1935(3)
O3D O -0.0310(2) 0.5336(3) 0.8065(3)
O3B O 0.5336(3) 0.5646(2) 0.1935(3)
O3E O 0.4664(3) 0.4354(2) 0.8065(3)
O4A O 0.3170(2) 0.7437(3) -0.3042(3)
O4B O 0.2563(3) 0.5733(2) -0.3042(3)
O4C O 0.5733(2) 1.3170(2) 1.3042(3)
O4D O 0.6830(2) 1.2563(3) 1.3042(3)
O4E O 0.7437(3) 1.4267(2) 1.3042(3)
N1C N 0.5639(3) 1.1606(2) 0.8418(4)
N1A N 0.1606(2) 0.5967(4) 0.1582(4)
N1D N -0.1606(2) 0.4033(4) 0.8418(4)
N1B N 0.4033(4) 0.5639(3) 0.1582(4)
N1E N 0.5967(4) 0.4361(3) 0.8418(4)
H1C H 0.5427 1.1164 0.8061
H1A H 0.1164 0.5737 0.1939
H1D H -0.1164 0.4263 0.8061
H1B H 0.4263 0.5427 0.1939
H1E H 0.5737 0.4573 0.8061
C2C C 0.5938(3) 1.0365(3) 0.9203(4)
C2A C 0.0365(3) 0.4427(4) 0.0797(4)
C2D C -0.0365(3) 0.5573(4) 0.9203(4)
C2B C 0.5573(4) 0.5938(3) 0.0797(4)
C2E C 0.4427(4) 0.4062(3) 0.9203(4)
C3C C 0.6363(3) 1.1074(3) 1.1064(5)
C3A C 0.1074(3) 0.4711(4) -0.1064(5)
C3D C -0.1074(3) 0.5289(4) 1.1064(5)
C3B C 0.5289(4) 0.6363(3) -0.1064(5)
C3E C 0.4711(4) 0.3637(3) 1.1064(5)
H2C H 0.6465 1.1501 1.1535
H2A H 0.1501 0.5036 -0.1535
H2D H -0.1501 0.4964 1.1535
H2B H 0.4964 0.6465 -0.1535
H2E H 0.5036 0.3535 1.1535
C4C C 0.6068(3) 0.9796(3) 0.9691(5)
C4A C -0.0204(3) 0.3728(4) 0.0309(5)
C4D C 0.0204(3) 0.6272(4) 0.9691(5)
C4B C 0.6272(4) 0.6068(3) 0.0309(5)
C4E C 0.3728(4) 0.3932(3) 0.9691(5)
H3C H 0.5963 0.9362 0.9234
H3A H -0.0638 0.3399 0.0766
H3D H 0.0638 0.6601 0.9234
H3B H 0.6601 0.5963 0.0766
H3E H 0.3399 0.4037 0.9234
C5C C 0.6485(4) 1.0502(3) 1.1549(5)
C5A C 0.0502(3) 0.4017(5) -0.1549(5)
C5D C -0.0502(3) 0.5983(5) 1.1549(5)
C5B C 0.5983(5) 0.6485(4) -0.1549(5)
C5E C 0.4017(5) 0.3515(4) 1.1549(5)
H4C H 0.6657 1.0542 1.2344
H4A H 0.0542 0.3885 -0.2344
H4D H -0.0542 0.6115 1.2344
H4B H 0.6115 0.6657 -0.2344
H4E H 0.3885 0.3343 1.2344
C6C C 0.6353(4) 0.9880(3) 1.0857(5)
C6A C -0.0120(3) 0.3527(5) -0.0857(5)
C6D C 0.0120(3) 0.6473(5) 1.0857(5)
C6B C 0.6473(5) 0.6353(4) -0.0857(5)
C6E C 0.3527(5) 0.3647(4) 1.0857(5)
H5C H 0.6456 0.9509 1.1174
H5A H -0.0491 0.3053 -0.1174
H5D H 0.0491 0.6947 1.1174
H5B H 0.6947 0.6456 -0.1174
H5E H 0.3053 0.3544 1.1174
C7C C 0.6018(2) 1.1676(3) 0.9435(4)
C7A C 0.1676(3) 0.5658(4) 0.0565(4)
C7D C -0.1676(3) 0.4342(4) 0.9435(4)
C7B C 0.4342(4) 0.6018(2) 0.0565(4)
C7E C 0.5658(4) 0.3982(2) 0.9435(4)
C8C C 0.5299(3) 0.9876(3) 0.6049(5)
C8A C -0.0124(3) 0.4577(4) 0.3951(5)
C8D C 0.0124(3) 0.5423(4) 0.6049(5)
C8B C 0.5423(4) 0.5299(3) 0.3951(5)
C8E C 0.4577(4) 0.4701(3) 0.6049(5)
C9C C 0.4551(3) 0.9378(3) 0.5712(5)
C9A C -0.0622(3) 0.4827(4) 0.4288(5)
C9D C 0.0622(3) 0.5173(4) 0.5712(5)
C9B C 0.5173(4) 0.4551(3) 0.4288(5)
C9E C 0.4827(4) 0.5449(3) 0.5712(5)
H6C H 0.4246 0.8953 0.6202
H6A H -0.1047 0.4707 0.3798
H6D H 0.1047 0.5293 0.6202
H6B H 0.5293 0.4246 0.3798
H6E H 0.4707 0.5754 0.6202
C10C C 0.5600(4) 0.9729(3) 0.7237(5)
C10A C -0.0271(3) 0.4129(5) 0.2763(5)
C10D C 0.0271(3) 0.5871(5) 0.7237(5)
C10B C 0.5871(5) 0.5600(4) 0.2763(5)
C10E C 0.4129(5) 0.4400(4) 0.7237(5)
H7C H 0.6105 0.9780 0.7120
H7A H -0.0220 0.3675 0.2880
H7D H 0.0220 0.6325 0.7120
H7B H 0.6325 0.6105 0.2880
H7E H 0.3675 0.3895 0.7120
H8C H 0.5248 0.9215 0.7542
H8A H -0.0785 0.3967 0.2458
H8D H 0.0785 0.6033 0.7542
H8B H 0.6033 0.5248 0.2458
H8E H 0.3967 0.4752 0.7542
C11C C 0.5768(3) 1.0513(3) 0.5340(5)
C11A C 0.0513(3) 0.4745(4) 0.4660(5)
C11D C -0.0513(3) 0.5255(4) 0.5340(5)
C11B C 0.5255(4) 0.5768(3) 0.4660(5)
C11E C 0.4745(4) 0.4232(3) 0.5340(5)
C12C C 0.6597(4) 1.1083(5) 0.5673(7)
C12A C 0.1083(5) 0.4486(6) 0.4327(7)
C12D C -0.1083(5) 0.5514(6) 0.5673(7)
C12B C 0.5514(6) 0.6597(4) 0.4327(7)
C12E C 0.4486(6) 0.3403(4) 0.5673(7)
H9C H 0.6825 1.1470 0.5052
H9A H 0.1470 0.4645 0.4948
H9D H -0.1470 0.5355 0.5052
H9B H 0.5355 0.6825 0.4948
H9E H 0.4645 0.3175 0.5052
H10C H 0.6609 1.1325 0.6432
H10A H 0.1325 0.4716 0.3568
H10D H -0.1325 0.5284 0.6432
H10B H 0.5284 0.6609 0.3568
H10E H 0.4716 0.3391 0.6432
H11C H 0.6883 1.0816 0.5748
H11A H 0.0816 0.3933 0.4252
H11D H -0.0816 0.6067 0.5748
H11B H 0.6067 0.6883 0.4252
H11E H 0.3933 0.3117 0.5748
C13C C 0.4706(4) 1.1937(3) 0.7596(6)
C13A C 0.1937(3) 0.7231(5) 0.2404(6)
C13D C -0.1937(3) 0.2769(5) 0.7596(6)
C13B C 0.2769(5) 0.4706(4) 0.2404(6)
C13E C 0.7231(5) 0.5294(4) 0.7596(6)
C14C C 0.5552(4) 1.2219(3) 0.7848(6)
C14A C 0.2219(3) 0.6667(5) 0.2152(6)
C14D C -0.2219(3) 0.3333(5) 0.7848(6)
C14B C 0.3333(5) 0.5552(4) 0.2152(6)
C14E C 0.6667(5) 0.4448(4) 0.7848(6)
H12C H 0.5758 1.2665 0.8381
H12A H 0.2665 0.6907 0.1619
H12D H -0.2665 0.3093 0.8381
H12B H 0.3093 0.5758 0.1619
H12E H 0.6907 0.4242 0.8381
H13C H 0.5840 1.2375 0.7094
H13A H 0.2375 0.6535 0.2906
H13D H -0.2375 0.3465 0.7094
H13B H 0.3465 0.5840 0.2906
H13E H 0.6535 0.4160 0.7094
C15C C 0.4273(5) 1.2078(4) 0.8365(9)
C15A C 0.2078(4) 0.7805(6) 0.1635(9)
C15D C -0.2078(4) 0.2195(6) 0.8365(9)
C15B C 0.2195(6) 0.4273(5) 0.1635(9)
C15E C 0.7805(6) 0.5727(5) 0.8365(9)
H14C H 0.4493 1.2344 0.9082
H14A H 0.2344 0.7851 0.0918
H14D H -0.2344 0.2149 0.9082
H14B H 0.2149 0.4493 0.0918
H14E H 0.7851 0.5507 0.9082
C16C C 0.4384(5) 1.1535(5) 0.6542(7)
C16A C 0.1535(5) 0.7151(7) 0.3458(7)
C16D C -0.1535(5) 0.2849(7) 0.6542(7)
C16B C 0.2849(7) 0.4384(5) 0.3458(7)
C16E C 0.7151(7) 0.5616(5) 0.6542(7)
H15C H 0.4698 1.1459 0.6005
H15A H 0.1459 0.6761 0.3995
H15D H -0.1459 0.3239 0.6005
H15B H 0.3239 0.4698 0.3995
H15E H 0.6761 0.5302 0.6005
O5A O 0.2103(3) 0.7465(4) -0.3378(6)
O5B O 0.2535(4) 0.4638(3) -0.3378(6)
O5C O 0.4638(3) 1.2103(3) 1.3378(6)
O5D O 0.7897(3) 1.2535(4) 1.3378(6)
O5E O 0.7465(4) 1.5362(3) 1.3378(6)
N2A N 0.2484(3) 0.7266(4) -0.2759(5)
N2B N 0.2734(4) 0.5218(3) -0.2759(5)
N2C N 0.5218(3) 1.2484(3) 1.2759(5)
N2D N 0.7516(3) 1.2734(4) 1.2759(5)
N2E N 0.7266(4) 1.4782(3) 1.2759(5)
C17C C 0.3216(8) 1.1437(9) 0.706(2)
C17A C 0.1437(9) 0.8221(12) 0.294(2)
C17D C -0.1437(9) 0.1779(12) 0.706(2)
C17B C 0.1779(12) 0.3216(8) 0.294(2)
C17E C 0.8221(12) 0.6784(8) 0.706(2)
H16C H 0.2707 1.1284 0.6860
H16A H 0.1284 0.8577 0.3140
H16D H -0.1284 0.1423 0.6860
H16B H 0.1423 0.2707 0.3140
H16E H 0.8577 0.7293 0.6860
C18C C 0.3631(8) 1.1244(8) 0.6251(13)
C18A C 0.1244(8) 0.7613(11) 0.3749(13)
C18D C -0.1244(8) 0.2387(11) 0.6251(13)
C18B C 0.2387(11) 0.3631(8) 0.3749(13)
C18E C 0.7613(11) 0.6369(8) 0.6251(13)
H17C H 0.3408 1.0939 0.5567
H17A H 0.0939 0.7531 0.4433
H17D H -0.0939 0.2469 0.5567
H17B H 0.2469 0.3408 0.4433
H17E H 0.7531 0.6592 0.5567
C19C C 0.3503(9) 1.1835(7) 0.812(2)
C19A C 0.1835(7) 0.8332(11) 0.188(2)
C19D C -0.1835(7) 0.1668(11) 0.812(2)
C19B C 0.1668(11) 0.3503(9) 0.188(2)
C19E C 0.8332(11) 0.6497(9) 0.812(2)
H18C H 0.3201 1.1938 0.8644
H18A H 0.1938 0.8737 0.1356
H18D H -0.1938 0.1263 0.8644
H18B H 0.1263 0.3201 0.1356
H18E H 0.8737 0.6799 0.8644
Cl1 Cl 0.8298(6) 0.0677(6) 0.3320(13)
Cl2 Cl 0.8917(16) 0.1102(19) 0.1201(15)
C20 C 0.8696(8) 0.1569(9) 0.240(2)
H19 H 0.8430 0.1864 0.2274
Cl3 Cl 0.9604(5) 0.1944(6) 0.3163(14)
O6 O 0.3333 0.6667 0.4605(19)
O7 O 0.0000 0.0000 0.206(15)
loop_
_geom_bond_atom_site_label_1
_geom_bond_atom_site_label_2
_geom_bond_site_symmetry_1
_geom_bond_site_symmetry_2
Sm1 O1 1_555 1_555
O1 N2 1_555 1_555
C1 C2 1_555 1_555
O2 Sm1 1_555 1_555
O3 C2 1_555 1_555
O4 Sm1 1_555 1_555
N1 H1 1_555 1_555
C2 C4 1_555 1_555
C3 C1 1_555 1_555
H2 C3 1_555 1_555
C4 H3 1_555 1_555
C5 C3 1_555 1_555
H4 C5 1_555 1_555
C6 C4 1_555 1_555
H5 C6 1_555 1_555
C7 C1 1_555 1_555
C8 C9 1_555 1_555
C9 H6 1_555 1_555
C10 O3 1_555 1_555
H7 C10 1_555 1_555
H8 C10 1_555 1_555
C11 C8 1_555 1_555
C12 C11 1_555 1_555
H9 C12 1_555 1_555
H10 C12 1_555 1_555
H11 C12 1_555 1_555
C13 C14 1_555 1_555
C14 N1 1_555 1_555
H12 C14 1_555 1_555
H13 C14 1_555 1_555
C15 C13 1_555 1_555
H14 C15 1_555 1_555
C16 C13 1_555 1_555
H15 C16 1_555 1_555
O5 N2 1_555 1_555
N2 O4 1_555 1_555
C17 H16 1_555 1_555
C18 C16 1_555 1_555
H17 C18 1_555 1_555
C19 C15 1_555 1_555
H18 C19 1_555 1_555
Cl1 C20 1_555 1_555
Cl2 C20 1_555 1_555
C20 H19 1_555 1_555
Cl3 C20 1_555 1_555
Sm1C O1C 1_555 1_555
Sm1D O2D 1_555 1_555
Sm1E O2E 1_555 1_555
O1A Sm1 1_555 1_555
O1B Sm1 1_555 1_555
O1C N2C 1_555 1_555
O1D Sm1C 1_555 1_555
O1E Sm1C 1_555 1_555
C1C C2C 1_555 1_555
C1A C2A 1_555 1_555
C1D C2D 1_555 1_555
C1B C2B 1_555 1_555
C1E C2E 1_555 1_555
O2C Sm1C 1_555 1_555
O2A Sm1 1_555 1_555
O2D C7D 1_555 1_555
O2B Sm1 1_555 1_555
O2E C7E 1_555 1_555
O2D_2 Sm1C 1_555 1_555
O2E_2 Sm1C 1_555 1_555
O3C C2C 1_555 1_555
O3A C2A 1_555 1_555
O3D C2D 1_555 1_555
O3B C2B 1_555 1_555
O3E C2E 1_555 1_555
O4A Sm1 1_555 1_555
O4B Sm1 1_555 1_555
O4C Sm1C 1_555 1_555
O4D Sm1C 1_555 1_555
O4E Sm1C 1_555 1_555
N1C H1C 1_555 1_555
N1A H1A 1_555 1_555
N1D H1D 1_555 1_555
N1B H1B 1_555 1_555
N1E H1E 1_555 1_555
C2C C4C 1_555 1_555
C2A C4A 1_555 1_555
C2D C4D 1_555 1_555
C2B C4B 1_555 1_555
C2E C4E 1_555 1_555
C3C C1C 1_555 1_555
C3A C1A 1_555 1_555
C3D C1D 1_555 1_555
C3B C1B 1_555 1_555
C3E C1E 1_555 1_555
H2C C3C 1_555 1_555
H2A C3A 1_555 1_555
H2D C3D 1_555 1_555
H2B C3B 1_555 1_555
H2E C3E 1_555 1_555
C4C H3C 1_555 1_555
C4A H3A 1_555 1_555
C4D H3D 1_555 1_555
C4B H3B 1_555 1_555
C4E H3E 1_555 1_555
C5C C3C 1_555 1_555
C5A C3A 1_555 1_555
C5D C3D 1_555 1_555
C5B C3B 1_555 1_555
C5E C3E 1_555 1_555
H4C C5C 1_555 1_555
H4A C5A 1_555 1_555
H4D C5D 1_555 1_555
H4B C5B 1_555 1_555
H4E C5E 1_555 1_555
C6C C4C 1_555 1_555
C6A C4A 1_555 1_555
C6D C4D 1_555 1_555
C6B C4B 1_555 1_555
C6E C4E 1_555 1_555
H5C C6C 1_555 1_555
H5A C6A 1_555 1_555
H5D C6D 1_555 1_555
H5B C6B 1_555 1_555
H5E C6E 1_555 1_555
C7C C1C 1_555 1_555
C7A C1A 1_555 1_555
C7D C1D 1_555 1_555
C7B C1B 1_555 1_555
C7E C1E 1_555 1_555
C8C C9C 1_555 1_555
C8A C9A 1_555 1_555
C8D C9D 1_555 1_555
C8B C9B 1_555 1_555
C8E C9E 1_555 1_555
C9C C11 1_555 1_555
C9A H6A 1_555 1_555
C9D H6D 1_555 1_555
C9B H6B 1_555 1_555
C9E H6E 1_555 1_555
H6C C9C 1_555 1_555
C10C O3C 1_555 1_555
C10A O3A 1_555 1_555
C10D O3D 1_555 1_555
C10B O3B 1_555 1_555
C10E O3E 1_555 1_555
H7C C10C 1_555 1_555
H7A C10A 1_555 1_555
H7D C10D 1_555 1_555
H7B C10B 1_555 1_555
H7E C10E 1_555 1_555
H8C C10C 1_555 1_555
H8A C10A 1_555 1_555
H8D C10D 1_555 1_555
H8B C10B 1_555 1_555
H8E C10E 1_555 1_555
C11C C9 1_555 1_555
C11A C8A 1_555 1_555
C11D C8D 1_555 1_555
C11B C8B 1_555 1_555
C11E C8E 1_555 1_555
C12C C11C 1_555 1_555
C12A C11A 1_555 1_555
C12D C11D 1_555 1_555
C12B C11B 1_555 1_555
C12E C11E 1_555 1_555
H9C C12C 1_555 1_555
H9A C12A 1_555 1_555
H9D C12D 1_555 1_555
H9B C12B 1_555 1_555
H9E C12E 1_555 1_555
H10C C12C 1_555 1_555
H10A C12A 1_555 1_555
H10D C12D 1_555 1_555
H10B C12B 1_555 1_555
H10E C12E 1_555 1_555
H11C C12C 1_555 1_555
H11A C12A 1_555 1_555
H11D C12D 1_555 1_555
H11B C12B 1_555 1_555
H11E C12E 1_555 1_555
C13C C14C 1_555 1_555
C13A C14A 1_555 1_555
C13D C14D 1_555 1_555
C13B C14B 1_555 1_555
C13E C14E 1_555 1_555
C14C N1C 1_555 1_555
C14A N1A 1_555 1_555
C14D N1D 1_555 1_555
C14B N1B 1_555 1_555
C14E N1E 1_555 1_555
H12C C14C 1_555 1_555
H12A C14A 1_555 1_555
H12D C14D 1_555 1_555
H12B C14B 1_555 1_555
H12E C14E 1_555 1_555
H13C C14C 1_555 1_555
H13A C14A 1_555 1_555
H13D C14D 1_555 1_555
H13B C14B 1_555 1_555
H13E C14E 1_555 1_555
C15C C13C 1_555 1_555
C15A C13A 1_555 1_555
C15D C13D 1_555 1_555
C15B C13B 1_555 1_555
C15E C13E 1_555 1_555
H14C C15C 1_555 1_555
H14A C15A 1_555 1_555
H14D C15D 1_555 1_555
H14B C15B 1_555 1_555
H14E C15E 1_555 1_555
C16C C13C 1_555 1_555
C16A C13A 1_555 1_555
C16D C13D 1_555 1_555
C16B C13B 1_555 1_555
C16E C13E 1_555 1_555
H15C C16C 1_555 1_555
H15A C16A 1_555 1_555
H15D C16D 1_555 1_555
H15B C16B 1_555 1_555
H15E C16E 1_555 1_555
O5A N2A 1_555 1_555
O5B N2B 1_555 1_555
O5C N2C 1_555 1_555
O5D N2D 1_555 1_555
O5E N2E 1_555 1_555
N2A O1A 1_555 1_555
N2B O1B 1_555 1_555
N2C O4C 1_555 1_555
N2D O1D 1_555 1_555
N2E O1E 1_555 1_555
C17C H16C 1_555 1_555
C17A H16A 1_555 1_555
C17D H16D 1_555 1_555
C17B H16B 1_555 1_555
C17E H16E 1_555 1_555
C18C C16C 1_555 1_555
C18A C16A 1_555 1_555
C18D C16D 1_555 1_555
C18B C16B 1_555 1_555
C18E C16E 1_555 1_555
H17C C18C 1_555 1_555
H17A C18A 1_555 1_555
H17D C18D 1_555 1_555
H17B C18B 1_555 1_555
H17E C18E 1_555 1_555
C19C C15C 1_555 1_555
C19A C15A 1_555 1_555
C19D C15D 1_555 1_555
C19B C15B 1_555 1_555
C19E C15E 1_555 1_555
H18C C19C 1_555 1_555
H18A C19A 1_555 1_555
H18D C19D 1_555 1_555
H18B C19B 1_555 1_555
H18E C19E 1_555 1_555
O2 C7 1_555 1_555
N1 C7 1_555 1_555
C5 C6 1_555 1_555
C8 C10 1_555 1_555
C17 C18 1_555 1_555
C17 C19 1_555 1_555
O2C C7C 1_555 1_555
O2A C7A 1_555 1_555
O2B C7B 1_555 1_555
O4A N2A 1_555 1_555
O4B N2B 1_555 1_555
O4D N2D 1_555 1_555
O4E N2E 1_555 1_555
N1C C7C 1_555 1_555
N1A C7A 1_555 1_555
N1D C7D 1_555 1_555
N1B C7B 1_555 1_555
N1E C7E 1_555 1_555
C5C C6C 1_555 1_555
C5A C6A 1_555 1_555
C5D C6D 1_555 1_555
C5B C6B 1_555 1_555
C5E C6E 1_555 1_555
C8C C10C 1_555 1_555
C8C C11C 1_555 1_555
C8A C10A 1_555 1_555
C8D C10D 1_555 1_555
C8B C10B 1_555 1_555
C8E C10E 1_555 1_555
C9A C11D 1_555 1_555
C9D C11A 1_555 1_555
C9B C11E 1_555 1_555
C9E C11B 1_555 1_555
C17C C18C 1_555 1_555
C17C C19C 1_555 1_555
C17A C18A 1_555 1_555
C17A C19A 1_555 1_555
C17D C18D 1_555 1_555
C17D C19D 1_555 1_555
C17B C18B 1_555 1_555
C17B C19B 1_555 1_555
C17E C18E 1_555 1_555
C17E C19E 1_555 1_555

#END
