
#######################################################################
#
#                 Cambridge Crystallographic Data Centre
#                                CCDC 
#
#######################################################################
#
# If this CIF has been generated from an entry in the Cambridge 
# Structural Database, then it will include bibliographic, chemical, 
# crystal, experimental, refinement or atomic coordinate data resulting 
# from the CCDC's data processing and validation procedures.
#
#######################################################################

data_ILUCIC
_symmetry_cell_setting           trigonal
_symmetry_space_group_name_H-M   'P -3'
_symmetry_Int_Tables_number      147
_space_group_name_Hall           '-P 3'
loop_
_symmetry_equiv_pos_site_id
_symmetry_equiv_pos_as_xyz
1 x,y,z
2 -y,x-y,z
3 -x+y,-x,z
4 -x,-y,-z
5 y,-x+y,-z
6 x-y,x,-z
_cell_length_a                   19.8946(2)
_cell_length_b                   19.8946(2)
_cell_length_c                   10.9951(2)
_cell_angle_alpha                90
_cell_angle_beta                 90
_cell_angle_gamma                120
_cell_volume                     3768.78
loop_
_atom_site_label
_atom_site_type_symbol
_atom_site_fract_x
_atom_site_fract_y
_atom_site_fract_z
C1 C 0.1670(8) 0.8188(7) 0.3048(18)
H1 H 0.1261 0.8090 0.3564
C2 C 0.1776(8) 0.8581(9) 0.201(2)
H2 H 0.1433 0.8754 0.1817
C3 C 0.2370(8) 0.8739(9) 0.1239(12)
H3 H 0.2444 0.9027 0.0535
C4 C 0.2848(5) 0.8462(6) 0.1520(7)
H4 H 0.3244 0.8547 0.0983
C5 C 0.2766(4) 0.8061(4) 0.2573(6)
C6 C 0.2183(6) 0.7928(5) 0.3341(9)
H5 H 0.2124 0.7663 0.4066
C7 C 0.3319(4) 0.7767(4) 0.2862(6)
H6 H 0.3066 0.7322 0.3401
H7 H 0.3455 0.7601 0.2118
C8 C 0.4330(3) 0.8299(3) 0.4444(5)
C9 C 0.5062(3) 0.8964(3) 0.4913(4)
C10 C 0.5569(3) 0.9626(3) 0.4204(5)
C11 C 0.6267(4) 1.0193(3) 0.4702(6)
H8 H 0.6599 1.0627 0.4243
C12 C 0.6468(4) 1.0117(4) 0.5860(6)
H9 H 0.6943 1.0493 0.6174
C13 C 0.5979(4) 0.9494(4) 0.6565(6)
H10 H 0.6114 0.9457 0.7361
C14 C 0.5284(4) 0.8922(3) 0.6087(5)
H11 H 0.4958 0.8499 0.6568
C15 C 0.5861(4) 1.0259(4) 0.2242(5)
H12 H 0.6322 1.0217 0.2125
H13 H 0.6017 1.0773 0.2554
C16 C 0.5423(4) 1.0118(3) 0.1058(5)
C17 C 0.5183(4) 1.0626(4) 0.0706(5)
H14 H 0.5316 1.1058 0.1189
C18 C 0.5248(3) 0.9476(4) 0.0334(6)
C19 C 0.5496(4) 0.8896(6) 0.0657(8)
H15 H 0.6052 0.9154 0.0707
H16 H 0.5318 0.8501 0.0042
H17 H 0.5276 0.8663 0.1427
Er1 Er 0.3333 0.6667 0.63210(3)
N1 N 0.4751(3) 0.7250(3) 0.7705(5)
N2 N 0.4024(3) 0.8379(3) 0.3444(4)
H18 H 0.4254 0.8827 0.3098
O1 O 0.4231(2) 0.7423(2) 0.7956(3)
O2 O 0.4631(2) 0.6859(2) 0.6747(4)
O3 O 0.5327(3) 0.7457(4) 0.8331(5)
O4 O 0.5330(3) 0.9669(2) 0.3069(4)
O5 O 0.4030(2) 0.7663(2) 0.5005(3)
C1C C 0.8330(8) 1.1812(7) -0.3048(18)
C1A C 0.1812(7) 0.3482(11) 0.3048(18)
C1D C -0.1812(7) 0.6518(11) -0.3048(18)
C1B C 0.6518(11) 0.8330(8) 0.3048(18)
C1E C 0.3482(11) 0.1670(8) -0.3048(18)
H1C H 0.8739 1.1910 -0.3564
H1A H 0.1910 0.3171 0.3564
H1D H -0.1910 0.6829 -0.3564
H1B H 0.6829 0.8739 0.3564
H1E H 0.3171 0.1261 -0.3564
C2C C 0.8224(8) 1.1419(9) -0.201(2)
C2A C 0.1419(9) 0.3195(12) 0.201(2)
C2D C -0.1419(9) 0.6805(12) -0.201(2)
C2B C 0.6805(12) 0.8224(8) 0.201(2)
C2E C 0.3195(12) 0.1776(8) -0.201(2)
H2C H 0.8567 1.1246 -0.1817
H2A H 0.1246 0.2679 0.1817
H2D H -0.1246 0.7321 -0.1817
H2B H 0.7321 0.8567 0.1817
H2E H 0.2679 0.1433 -0.1817
C3C C 0.7630(8) 1.1261(9) -0.1239(12)
C3A C 0.1261(9) 0.3631(12) 0.1239(12)
C3D C -0.1261(9) 0.6369(12) -0.1239(12)
C3B C 0.6369(12) 0.7630(8) 0.1239(12)
C3E C 0.3631(12) 0.2370(8) -0.1239(12)
H3C H 0.7556 1.0973 -0.0535
H3A H 0.0973 0.3417 0.0535
H3D H -0.0973 0.6583 -0.0535
H3B H 0.6583 0.7556 0.0535
H3E H 0.3417 0.2444 -0.0535
C4C C 0.7152(5) 1.1538(6) -0.1520(7)
C4A C 0.1538(6) 0.4386(8) 0.1520(7)
C4D C -0.1538(6) 0.5614(8) -0.1520(7)
C4B C 0.5614(8) 0.7152(5) 0.1520(7)
C4E C 0.4386(8) 0.2848(5) -0.1520(7)
H4C H 0.6756 1.1453 -0.0983
H4A H 0.1453 0.4697 0.0983
H4D H -0.1453 0.5303 -0.0983
H4B H 0.5303 0.6756 0.0983
H4E H 0.4697 0.3244 -0.0983
C5C C 0.7234(4) 1.1939(4) -0.2573(6)
C5A C 0.1939(4) 0.4705(6) 0.2573(6)
C5D C -0.1939(4) 0.5295(6) -0.2573(6)
C5B C 0.5295(6) 0.7234(4) 0.2573(6)
C5E C 0.4705(6) 0.2766(4) -0.2573(6)
C6C C 0.7817(6) 1.2072(5) -0.3341(9)
C6A C 0.2072(5) 0.4255(8) 0.3341(9)
C6D C -0.2072(5) 0.5745(8) -0.3341(9)
C6B C 0.5745(8) 0.7817(6) 0.3341(9)
C6E C 0.4255(8) 0.2183(6) -0.3341(9)
H5C H 0.7876 1.2337 -0.4066
H5A H 0.2337 0.4461 0.4066
H5D H -0.2337 0.5539 -0.4066
H5B H 0.5539 0.7876 0.4066
H5E H 0.4461 0.2124 -0.4066
C7C C 0.6681(4) 1.2233(4) -0.2862(6)
C7A C 0.2233(4) 0.5552(6) 0.2862(6)
C7D C -0.2233(4) 0.4448(6) -0.2862(6)
C7B C 0.4448(6) 0.6681(4) 0.2862(6)
C7E C 0.5552(6) 0.3319(4) -0.2862(6)
H6C H 0.6934 1.2678 -0.3401
H6A H 0.2678 0.5744 0.3401
H6D H -0.2678 0.4256 -0.3401
H6B H 0.4256 0.6934 0.3401
H6E H 0.5744 0.3066 -0.3401
H7C H 0.6545 1.2399 -0.2118
H7A H 0.2399 0.5854 0.2118
H7D H -0.2399 0.4146 -0.2118
H7B H 0.4146 0.6545 0.2118
H7E H 0.5854 0.3455 -0.2118
C8C C 0.5670(3) 1.1701(3) -0.4444(5)
C8A C 0.1701(3) 0.6031(4) 0.4444(5)
C8D C -0.1701(3) 0.3969(4) -0.4444(5)
C8B C 0.3969(4) 0.5670(3) 0.4444(5)
C8E C 0.6031(4) 0.4330(3) -0.4444(5)
C9C C 0.4938(3) 1.1036(3) -0.4913(4)
C9A C 0.1036(3) 0.6098(4) 0.4913(4)
C9D C -0.1036(3) 0.3902(4) -0.4913(4)
C9B C 0.3902(4) 0.4938(3) 0.4913(4)
C9E C 0.6098(4) 0.5062(3) -0.4913(4)
C10C C 0.4431(3) 1.0374(3) -0.4204(5)
C10A C 0.0374(3) 0.5943(4) 0.4204(5)
C10D C -0.0374(3) 0.4057(4) -0.4204(5)
C10B C 0.4057(4) 0.4431(3) 0.4204(5)
C10E C 0.5943(4) 0.5569(3) -0.4204(5)
C11C C 0.3733(4) 0.9807(3) -0.4702(6)
C11A C -0.0193(3) 0.6074(5) 0.4702(6)
C11D C 0.0193(3) 0.3926(5) -0.4702(6)
C11B C 0.3926(5) 0.3733(4) 0.4702(6)
C11E C 0.6074(5) 0.6267(4) -0.4702(6)
H8C H 0.3401 0.9373 -0.4243
H8A H -0.0627 0.5972 0.4243
H8D H 0.0627 0.4028 -0.4243
H8B H 0.4028 0.3401 0.4243
H8E H 0.5972 0.6599 -0.4243
C12C C 0.3532(4) 0.9883(4) -0.5860(6)
C12A C -0.0117(4) 0.6351(6) 0.5860(6)
C12D C 0.0117(4) 0.3649(6) -0.5860(6)
C12B C 0.3649(6) 0.3532(4) 0.5860(6)
C12E C 0.6351(6) 0.6468(4) -0.5860(6)
H9C H 0.3057 0.9507 -0.6174
H9A H -0.0493 0.6450 0.6174
H9D H 0.0493 0.3550 -0.6174
H9B H 0.3550 0.3057 0.6174
H9E H 0.6450 0.6943 -0.6174
C13C C 0.4021(4) 1.0506(4) -0.6565(6)
C13A C 0.0506(4) 0.6485(6) 0.6565(6)
C13D C -0.0506(4) 0.3515(6) -0.6565(6)
C13B C 0.3515(6) 0.4021(4) 0.6565(6)
C13E C 0.6485(6) 0.5979(4) -0.6565(6)
H10C H 0.3886 1.0543 -0.7361
H10A H 0.0543 0.6657 0.7361
H10D H -0.0543 0.3343 -0.7361
H10B H 0.3343 0.3886 0.7361
H10E H 0.6657 0.6114 -0.7361
C14C C 0.4716(4) 1.1078(3) -0.6087(5)
C14A C 0.1078(3) 0.6362(5) 0.6087(5)
C14D C -0.1078(3) 0.3638(5) -0.6087(5)
C14B C 0.3638(5) 0.4716(4) 0.6087(5)
C14E C 0.6362(5) 0.5284(4) -0.6087(5)
H11C H 0.5042 1.1501 -0.6568
H11A H 0.1501 0.6459 0.6568
H11D H -0.1501 0.3541 -0.6568
H11B H 0.3541 0.5042 0.6568
H11E H 0.6459 0.4958 -0.6568
C15C C 0.4139(4) 0.9741(4) -0.2242(5)
C15A C -0.0259(4) 0.5602(6) 0.2242(5)
C15D C 0.0259(4) 0.4398(6) -0.2242(5)
C15B C 0.4398(6) 0.4139(4) 0.2242(5)
C15E C 0.5602(6) 0.5861(4) -0.2242(5)
H12C H 0.3678 0.9783 -0.2125
H12A H -0.0217 0.6105 0.2125
H12D H 0.0217 0.3895 -0.2125
H12B H 0.3895 0.3678 0.2125
H12E H 0.6105 0.6322 -0.2125
H13C H 0.3983 0.9227 -0.2554
H13A H -0.0773 0.5244 0.2554
H13D H 0.0773 0.4756 -0.2554
H13B H 0.4756 0.3983 0.2554
H13E H 0.5244 0.6017 -0.2554
C16C C 0.4577(4) 0.9882(3) -0.1058(5)
C16A C -0.0118(3) 0.5305(5) 0.1058(5)
C16D C 0.0118(3) 0.4695(5) -0.1058(5)
C16B C 0.4695(5) 0.4577(4) 0.1058(5)
C16E C 0.5305(5) 0.5423(4) -0.1058(5)
C17C C 0.4817(4) 0.9374(4) -0.0706(5)
C17A C -0.0626(4) 0.4557(6) 0.0706(5)
C17D C 0.0626(4) 0.5443(6) -0.0706(5)
C17B C 0.5443(6) 0.4817(4) 0.0706(5)
C17E C 0.4557(6) 0.5183(4) -0.0706(5)
H14C H 0.4684 0.8942 -0.1189
H14A H -0.1058 0.4258 0.1189
H14D H 0.1058 0.5742 -0.1189
H14B H 0.5742 0.4684 0.1189
H14E H 0.4258 0.5316 -0.1189
C18C C 0.4752(3) 1.0524(4) -0.0334(6)
C18A C 0.0524(4) 0.5772(5) 0.0334(6)
C18D C -0.0524(4) 0.4228(5) -0.0334(6)
C18B C 0.4228(5) 0.4752(3) 0.0334(6)
C18E C 0.5772(5) 0.5248(3) -0.0334(6)
C19C C 0.4504(4) 1.1104(6) -0.0657(8)
C19A C 0.1104(6) 0.6600(7) 0.0657(8)
C19D C -0.1104(6) 0.3400(7) -0.0657(8)
C19B C 0.3400(7) 0.4504(4) 0.0657(8)
C19E C 0.6600(7) 0.5496(4) -0.0657(8)
H15C H 0.3948 1.0846 -0.0707
H15A H 0.0846 0.6898 0.0707
H15D H -0.0846 0.3102 -0.0707
H15B H 0.3102 0.3948 0.0707
H15E H 0.6898 0.6052 -0.0707
H16C H 0.4682 1.1499 -0.0042
H16A H 0.1499 0.6817 0.0042
H16D H -0.1499 0.3183 -0.0042
H16B H 0.3183 0.4682 0.0042
H16E H 0.6817 0.5318 -0.0042
H17C H 0.4724 1.1337 -0.1427
H17A H 0.1337 0.6613 0.1427
H17D H -0.1337 0.3387 -0.1427
H17B H 0.3387 0.4724 0.1427
H17E H 0.6613 0.5276 -0.1427
Er1C Er 0.6667 1.3333 -0.63210(3)
Er1D Er -0.3333 0.3334 -0.63210(3)
Er1E Er 0.6666 0.3333 -0.63210(3)
N1A N 0.2750(3) 0.7501(4) 0.7705(5)
N1B N 0.2499(4) 0.5249(3) 0.7705(5)
N1C N 0.5249(3) 1.2750(3) -0.7705(5)
N1D N 0.7250(3) 1.2499(4) -0.7705(5)
N1E N 0.7501(4) 1.4751(3) -0.7705(5)
N2C N 0.5976(3) 1.1621(3) -0.3444(4)
N2A N 0.1621(3) 0.5645(4) 0.3444(4)
N2D N -0.1621(3) 0.4355(4) -0.3444(4)
N2B N 0.4355(4) 0.5976(3) 0.3444(4)
N2E N 0.5645(4) 0.4024(3) -0.3444(4)
H18C H 0.5746 1.1173 -0.3098
H18A H 0.1173 0.5427 0.3098
H18D H -0.1173 0.4573 -0.3098
H18B H 0.4573 0.5746 0.3098
H18E H 0.5427 0.4254 -0.3098
O1A O 0.2577(2) 0.6808(3) 0.7956(3)
O1B O 0.3192(3) 0.5769(2) 0.7956(3)
O1C O 0.5769(2) 1.2577(2) -0.7956(3)
O1D O 0.7423(2) 1.3192(3) -0.7956(3)
O1E O 0.6808(3) 1.4231(2) -0.7956(3)
O2A O 0.3141(2) 0.7772(3) 0.6747(4)
O2B O 0.2228(3) 0.5369(2) 0.6747(4)
O2C O 0.5369(2) 1.3141(2) -0.6747(4)
O2D O 0.6859(2) 1.2228(3) -0.6747(4)
O2E O 0.7772(3) 1.4631(2) -0.6747(4)
O3A O 0.2543(4) 0.7870(5) 0.8331(5)
O3B O 0.2130(5) 0.4673(3) 0.8331(5)
O3C O 0.4673(3) 1.2543(4) -0.8331(5)
O3D O 0.7457(4) 1.2130(5) -0.8331(5)
O3E O 0.7870(5) 1.5327(3) -0.8331(5)
O4C O 0.4670(3) 1.0331(2) -0.3069(4)
O4A O 0.0331(2) 0.5661(4) 0.3069(4)
O4D O -0.0331(2) 0.4339(4) -0.3069(4)
O4B O 0.4339(4) 0.4670(3) 0.3069(4)
O4E O 0.5661(4) 0.5330(3) -0.3069(4)
O5C O 0.5970(2) 1.2337(2) -0.5005(3)
O5A O 0.2337(2) 0.6367(3) 0.5005(3)
O5D O -0.2337(2) 0.3633(3) -0.5005(3)
O5B O 0.3633(3) 0.5970(2) 0.5005(3)
O5E O 0.6367(3) 0.4030(2) -0.5005(3)
O5D_2 O 0.7663(2) 1.3633(3) -0.5005(3)
O5E_2 O 0.6367(3) 1.4030(2) -0.5005(3)
C20 C 0.8435(8) 0.1329(8) 0.271(2)
H19 H 0.8160 0.1603 0.2940
Cl1 Cl 0.9310(6) 0.1696(6) 0.1712(13)
Cl2 Cl 0.893(2) 0.0993(18) 0.3710(16)
Cl3 Cl 0.8043(6) 0.0420(6) 0.1892(14)
O6 O 0.3333 0.6667 0.0385(16)
O7 O 1.0000 1.0000 0.892(11)
O8? O 0.0000 0.0000 0.459(3)
loop_
_geom_bond_atom_site_label_1
_geom_bond_atom_site_label_2
_geom_bond_site_symmetry_1
_geom_bond_site_symmetry_2
C1 H1 1_555 1_555
C2 C1 1_555 1_555
H2 C2 1_555 1_555
C3 C2 1_555 1_555
H3 C3 1_555 1_555
C4 C3 1_555 1_555
H4 C4 1_555 1_555
C5 C4 1_555 1_555
C6 C1 1_555 1_555
H5 C6 1_555 1_555
C7 C5 1_555 1_555
H6 C7 1_555 1_555
H7 C7 1_555 1_555
C8 C9 1_555 1_555
C9 C10 1_555 1_555
C10 C11 1_555 1_555
C11 H8 1_555 1_555
C12 C11 1_555 1_555
H9 C12 1_555 1_555
C13 C12 1_555 1_555
H10 C13 1_555 1_555
C14 C9 1_555 1_555
H11 C14 1_555 1_555
C15 H12 1_555 1_555
H13 C15 1_555 1_555
C16 C15 1_555 1_555
C17 C16 1_555 1_555
H14 C17 1_555 1_555
C18 C16 1_555 1_555
C19 C18 1_555 1_555
H15 C19 1_555 1_555
H16 C19 1_555 1_555
H17 C19 1_555 1_555
Er1 O1 1_555 1_555
N1 O1 1_555 1_555
N2 C7 1_555 1_555
H18 N2 1_555 1_555
O2 Er1 1_555 1_555
O3 N1 1_555 1_555
O4 C10 1_555 1_555
O5 C8 1_555 1_555
C20 H19 1_555 1_555
Cl1 C20 1_555 1_555
Cl2 C20 1_555 1_555
Cl3 C20 1_555 1_555
C1C H1C 1_555 1_555
C1A H1A 1_555 1_555
C1D H1D 1_555 1_555
C1B H1B 1_555 1_555
C1E H1E 1_555 1_555
C2C C1C 1_555 1_555
C2A C1A 1_555 1_555
C2D C1D 1_555 1_555
C2B C1B 1_555 1_555
C2E C1E 1_555 1_555
H2C C2C 1_555 1_555
H2A C2A 1_555 1_555
H2D C2D 1_555 1_555
H2B C2B 1_555 1_555
H2E C2E 1_555 1_555
C3C C2C 1_555 1_555
C3A C2A 1_555 1_555
C3D C2D 1_555 1_555
C3B C2B 1_555 1_555
C3E C2E 1_555 1_555
H3C C3C 1_555 1_555
H3A C3A 1_555 1_555
H3D C3D 1_555 1_555
H3B C3B 1_555 1_555
H3E C3E 1_555 1_555
C4C C3C 1_555 1_555
C4A C3A 1_555 1_555
C4D C3D 1_555 1_555
C4B C3B 1_555 1_555
C4E C3E 1_555 1_555
H4C C4C 1_555 1_555
H4A C4A 1_555 1_555
H4D C4D 1_555 1_555
H4B C4B 1_555 1_555
H4E C4E 1_555 1_555
C5C C4C 1_555 1_555
C5A C4A 1_555 1_555
C5D C4D 1_555 1_555
C5B C4B 1_555 1_555
C5E C4E 1_555 1_555
C6C C1C 1_555 1_555
C6A C1A 1_555 1_555
C6D C1D 1_555 1_555
C6B C1B 1_555 1_555
C6E C1E 1_555 1_555
H5C C6C 1_555 1_555
H5A C6A 1_555 1_555
H5D C6D 1_555 1_555
H5B C6B 1_555 1_555
H5E C6E 1_555 1_555
C7C C5C 1_555 1_555
C7A C5A 1_555 1_555
C7D C5D 1_555 1_555
C7B C5B 1_555 1_555
C7E C5E 1_555 1_555
H6C C7C 1_555 1_555
H6A C7A 1_555 1_555
H6D C7D 1_555 1_555
H6B C7B 1_555 1_555
H6E C7E 1_555 1_555
H7C C7C 1_555 1_555
H7A C7A 1_555 1_555
H7D C7D 1_555 1_555
H7B C7B 1_555 1_555
H7E C7E 1_555 1_555
C8C C9C 1_555 1_555
C8A C9A 1_555 1_555
C8D C9D 1_555 1_555
C8B C9B 1_555 1_555
C8E C9E 1_555 1_555
C9C C10C 1_555 1_555
C9A C10A 1_555 1_555
C9D C10D 1_555 1_555
C9B C10B 1_555 1_555
C9E C10E 1_555 1_555
C10C C11C 1_555 1_555
C10A C11A 1_555 1_555
C10D C11D 1_555 1_555
C10B C11B 1_555 1_555
C10E C11E 1_555 1_555
C11C H8C 1_555 1_555
C11A H8A 1_555 1_555
C11D H8D 1_555 1_555
C11B H8B 1_555 1_555
C11E H8E 1_555 1_555
C12C C11C 1_555 1_555
C12A C11A 1_555 1_555
C12D C11D 1_555 1_555
C12B C11B 1_555 1_555
C12E C11E 1_555 1_555
H9C C12C 1_555 1_555
H9A C12A 1_555 1_555
H9D C12D 1_555 1_555
H9B C12B 1_555 1_555
H9E C12E 1_555 1_555
C13C C12C 1_555 1_555
C13A C12A 1_555 1_555
C13D C12D 1_555 1_555
C13B C12B 1_555 1_555
C13E C12E 1_555 1_555
H10C C13C 1_555 1_555
H10A C13A 1_555 1_555
H10D C13D 1_555 1_555
H10B C13B 1_555 1_555
H10E C13E 1_555 1_555
C14C C9C 1_555 1_555
C14A C9A 1_555 1_555
C14D C9D 1_555 1_555
C14B C9B 1_555 1_555
C14E C9E 1_555 1_555
H11C C14C 1_555 1_555
H11A C14A 1_555 1_555
H11D C14D 1_555 1_555
H11B C14B 1_555 1_555
H11E C14E 1_555 1_555
C15C H12C 1_555 1_555
C15A H12A 1_555 1_555
C15D H12D 1_555 1_555
C15B H12B 1_555 1_555
C15E H12E 1_555 1_555
H13C C15C 1_555 1_555
H13A C15A 1_555 1_555
H13D C15D 1_555 1_555
H13B C15B 1_555 1_555
H13E C15E 1_555 1_555
C16C C15C 1_555 1_555
C16A C15A 1_555 1_555
C16D C15D 1_555 1_555
C16B C15B 1_555 1_555
C16E C15E 1_555 1_555
C17C C18 1_555 1_555
C17A C16A 1_555 1_555
C17D C16D 1_555 1_555
C17B C16B 1_555 1_555
C17E C16E 1_555 1_555
H14C C17C 1_555 1_555
H14A C17A 1_555 1_555
H14D C17D 1_555 1_555
H14B C17B 1_555 1_555
H14E C17E 1_555 1_555
C18C C17 1_555 1_555
C18A C16A 1_555 1_555
C18D C16D 1_555 1_555
C18B C16B 1_555 1_555
C18E C16E 1_555 1_555
C19C C18C 1_555 1_555
C19A C18A 1_555 1_555
C19D C18D 1_555 1_555
C19B C18B 1_555 1_555
C19E C18E 1_555 1_555
H15C C19C 1_555 1_555
H15A C19A 1_555 1_555
H15D C19D 1_555 1_555
H15B C19B 1_555 1_555
H15E C19E 1_555 1_555
H16C C19C 1_555 1_555
H16A C19A 1_555 1_555
H16D C19D 1_555 1_555
H16B C19B 1_555 1_555
H16E C19E 1_555 1_555
H17C C19C 1_555 1_555
H17A C19A 1_555 1_555
H17D C19D 1_555 1_555
H17B C19B 1_555 1_555
H17E C19E 1_555 1_555
Er1C O1C 1_555 1_555
Er1D O5D 1_555 1_555
Er1E O5E 1_555 1_555
N1A O1A 1_555 1_555
N1B O1B 1_555 1_555
N1C O1C 1_555 1_555
N1D O1D 1_555 1_555
N1E O1E 1_555 1_555
N2C C7C 1_555 1_555
N2A C7A 1_555 1_555
N2D C7D 1_555 1_555
N2B C7B 1_555 1_555
N2E C7E 1_555 1_555
H18C N2C 1_555 1_555
H18A N2A 1_555 1_555
H18D N2D 1_555 1_555
H18B N2B 1_555 1_555
H18E N2E 1_555 1_555
O1A Er1 1_555 1_555
O1B Er1 1_555 1_555
O1D Er1C 1_555 1_555
O1E Er1C 1_555 1_555
O2A Er1 1_555 1_555
O2B Er1 1_555 1_555
O2C Er1C 1_555 1_555
O2D Er1C 1_555 1_555
O2E Er1C 1_555 1_555
O3A N1A 1_555 1_555
O3B N1B 1_555 1_555
O3C N1C 1_555 1_555
O3D N1D 1_555 1_555
O3E N1E 1_555 1_555
O4C C10C 1_555 1_555
O4A C10A 1_555 1_555
O4D C10D 1_555 1_555
O4B C10B 1_555 1_555
O4E C10E 1_555 1_555
O5C C8C 1_555 1_555
O5A Er1 1_555 1_555
O5D C8D 1_555 1_555
O5B Er1 1_555 1_555
O5E C8E 1_555 1_555
O5D_2 Er1C 1_555 1_555
O5E_2 Er1C 1_555 1_555
C5 C6 1_555 1_555
C8 N2 1_555 1_555
C13 C14 1_555 1_555
C15 O4 1_555 1_555
Er1 O5 1_555 1_555
N1 O2 1_555 1_555
C5C C6C 1_555 1_555
C5A C6A 1_555 1_555
C5D C6D 1_555 1_555
C5B C6B 1_555 1_555
C5E C6E 1_555 1_555
C8C N2C 1_555 1_555
C8A N2A 1_555 1_555
C8A O5A 1_555 1_555
C8D N2D 1_555 1_555
C8B N2B 1_555 1_555
C8B O5B 1_555 1_555
C8E N2E 1_555 1_555
C13C C14C 1_555 1_555
C13A C14A 1_555 1_555
C13D C14D 1_555 1_555
C13B C14B 1_555 1_555
C13E C14E 1_555 1_555
C15C O4C 1_555 1_555
C15A O4A 1_555 1_555
C15D O4D 1_555 1_555
C15B O4B 1_555 1_555
C15E O4E 1_555 1_555
C16C C17C 1_555 1_555
C16C C18C 1_555 1_555
C17A C18D 1_555 1_555
C17D C18A 1_555 1_555
C17B C18E 1_555 1_555
C17E C18B 1_555 1_555
Er1C O5C 1_555 1_555
N1A O2A 1_555 1_555
N1B O2B 1_555 1_555
N1C O2C 1_555 1_555
N1D O2D 1_555 1_555
N1E O2E 1_555 1_555

#END
