
#######################################################################
#
#                 Cambridge Crystallographic Data Centre
#                                CCDC 
#
#######################################################################
#
# If this CIF has been generated from an entry in the Cambridge 
# Structural Database, then it will include bibliographic, chemical, 
# crystal, experimental, refinement or atomic coordinate data resulting 
# from the CCDC's data processing and validation procedures.
#
#######################################################################

data_ILUDAV
_symmetry_cell_setting           trigonal
_symmetry_space_group_name_H-M   'P -3'
_symmetry_Int_Tables_number      147
_space_group_name_Hall           '-P 3'
loop_
_symmetry_equiv_pos_site_id
_symmetry_equiv_pos_as_xyz
1 x,y,z
2 -y,x-y,z
3 -x+y,-x,z
4 -x,-y,-z
5 y,-x+y,-z
6 x-y,x,-z
_cell_length_a                   19.9167(2)
_cell_length_b                   19.9167(2)
_cell_length_c                   10.9841(2)
_cell_angle_alpha                90
_cell_angle_beta                 90
_cell_angle_gamma                120
_cell_volume                     3773.37
loop_
_atom_site_label
_atom_site_type_symbol
_atom_site_fract_x
_atom_site_fract_y
_atom_site_fract_z
Tb1 Tb 0.3333 0.6667 -0.13445(2)
C1 C 0.2188(4) 0.4268(4) 0.1643(8)
H1 H 0.2133 0.4479 0.0920
C2 C 0.1667(5) 0.3492(7) 0.1931(15)
H2 H 0.1253 0.3184 0.1420
C3 C 0.1784(7) 0.3204(6) 0.2977(17)
H3 H 0.1443 0.2688 0.3170
C4 C 0.2380(8) 0.3634(7) 0.3763(11)
H4 H 0.2455 0.3418 0.4463
C5 C 0.2850(5) 0.4382(4) 0.3479(6)
H5 H 0.3246 0.4694 0.4015
C6 C 0.2766(3) 0.4705(3) 0.2416(4)
C7 C 0.3326(3) 0.5549(3) 0.2151(5)
H6 H 0.3080 0.5752 0.1619
H7 H 0.3462 0.5842 0.2905
C8 C 0.4338(2) 0.6030(2) 0.0557(3)
C9 C 0.5069(2) 0.6096(2) 0.0102(3)
C10 C 0.5287(3) 0.6361(3) -0.1085(4)
H8 H 0.4955 0.6449 -0.1568
C11 C 0.5986(3) 0.6496(3) -0.1563(4)
H9 H 0.6123 0.6676 -0.2357
C12 C 0.6476(3) 0.6364(3) -0.0858(5)
H10 H 0.6954 0.6472 -0.1170
C13 C 0.6272(3) 0.6074(3) 0.0304(4)
H11 H 0.6601 0.5966 0.0758
C14 C 0.5574(2) 0.5942(2) 0.0795(3)
C15 C 0.5870(3) 0.5605(3) 0.2759(4)
H12 H 0.6324 0.6113 0.2877
H13 H 0.6035 0.5254 0.2450
C16 C 0.5428(3) 0.5303(3) 0.3943(4)
C17 C 0.5254(3) 0.5773(3) 0.4663(4)
C18 C 0.5504(5) 0.6600(3) 0.4332(6)
H14 H 0.5343 0.6825 0.4958
H15 H 0.5271 0.6610 0.3573
H16 H 0.6058 0.6891 0.4255
C19 C 0.5184(3) 0.4556(3) 0.4288(4)
H17 H 0.5314 0.4255 0.3803
N1 N 0.4030(2) 0.5642(2) 0.1568(3)
H18 H 0.4261 0.5426 0.1915
N2 N 0.2744(2) 0.5236(2) -0.2727(3)
O1 O 0.40329(15) 0.63569(16) -0.0003(2)
O2 O 0.53330(18) 0.5650(2) 0.1932(3)
O3 O 0.25718(17) 0.57523(17) -0.3005(3)
O4 O 0.31333(18) 0.53536(17) -0.1781(3)
O5 O 0.2543(3) 0.4661(3) -0.3357(4)
Tb1C Tb 0.6667 0.3333 1.13445(2)
Tb1D Tb 0.6667 1.3334 1.13445(2)
Tb1E Tb -0.3334 0.3333 1.13445(2)
C1C C 0.7812(4) 0.5732(4) 0.8357(8)
C1A C 0.5732(4) 0.7920(6) 0.1643(8)
C1D C 0.4268(4) 1.2080(6) 0.8357(8)
C1B C 0.2080(6) 0.7812(4) 0.1643(8)
C1E C -0.2080(6) 0.2188(4) 0.8357(8)
H1C H 0.7867 0.5521 0.9080
H1A H 0.5521 0.7654 0.0920
H1D H 0.4479 1.2346 0.9080
H1B H 0.2346 0.7867 0.0920
H1E H -0.2346 0.2133 0.9080
C2C C 0.8333(5) 0.6508(7) 0.8069(15)
C2A C 0.6508(7) 0.8175(9) 0.1931(15)
C2D C 0.3492(7) 1.1825(9) 0.8069(15)
C2B C 0.1825(9) 0.8333(5) 0.1931(15)
C2E C -0.1825(9) 0.1667(5) 0.8069(15)
H2C H 0.8747 0.6816 0.8580
H2A H 0.6816 0.8069 0.1420
H2D H 0.3184 1.1931 0.8580
H2B H 0.1931 0.8747 0.1420
H2E H -0.1931 0.1253 0.8580
C3C C 0.8216(7) 0.6796(6) 0.7023(17)
C3A C 0.6796(6) 0.8580(9) 0.2977(17)
C3D C 0.3204(6) 1.1420(9) 0.7023(17)
C3B C 0.1420(9) 0.8216(7) 0.2977(17)
C3E C -0.1420(9) 0.1784(7) 0.7023(17)
H3C H 0.8557 0.7312 0.6830
H3A H 0.7312 0.8755 0.3170
H3D H 0.2688 1.1245 0.6830
H3B H 0.1245 0.8557 0.3170
H3E H -0.1245 0.1443 0.6830
C4C C 0.7620(8) 0.6366(7) 0.6237(11)
C4A C 0.6366(7) 0.8746(11) 0.3763(11)
C4D C 0.3634(7) 1.1254(11) 0.6237(11)
C4B C 0.1254(11) 0.7620(8) 0.3763(11)
C4E C -0.1254(11) 0.2380(8) 0.6237(11)
H4C H 0.7545 0.6582 0.5537
H4A H 0.6582 0.9037 0.4463
H4D H 0.3418 1.0963 0.5537
H4B H 0.0963 0.7545 0.4463
H4E H -0.0963 0.2455 0.5537
C5C C 0.7150(5) 0.5618(4) 0.6521(6)
C5A C 0.5618(4) 0.8468(6) 0.3479(6)
C5D C 0.4382(4) 1.1532(6) 0.6521(6)
C5B C 0.1532(6) 0.7150(5) 0.3479(6)
C5E C -0.1532(6) 0.2850(5) 0.6521(6)
H5C H 0.6754 0.5306 0.5985
H5A H 0.5306 0.8552 0.4015
H5D H 0.4694 1.1448 0.5985
H5B H 0.1448 0.6754 0.4015
H5E H -0.1448 0.3246 0.5985
C6C C 0.7234(3) 0.5295(3) 0.7584(4)
C6A C 0.5295(3) 0.8061(4) 0.2416(4)
C6D C 0.4705(3) 1.1939(4) 0.7584(4)
C6B C 0.1939(4) 0.7234(3) 0.2416(4)
C6E C -0.1939(4) 0.2766(3) 0.7584(4)
C7C C 0.6674(3) 0.4451(3) 0.7849(5)
C7A C 0.4451(3) 0.7777(4) 0.2151(5)
C7D C 0.5549(3) 1.2223(4) 0.7849(5)
C7B C 0.2223(4) 0.6674(3) 0.2151(5)
C7E C -0.2223(4) 0.3326(3) 0.7849(5)
H6C H 0.6920 0.4248 0.8381
H6A H 0.4248 0.7328 0.1619
H6D H 0.5752 1.2672 0.8381
H6B H 0.2672 0.6920 0.1619
H6E H -0.2672 0.3080 0.8381
H7C H 0.6538 0.4158 0.7095
H7A H 0.4158 0.7620 0.2905
H7D H 0.5842 1.2380 0.7095
H7B H 0.2380 0.6538 0.2905
H7E H -0.2380 0.3462 0.7095
C8C C 0.5662(2) 0.3970(2) 0.9443(3)
C8A C 0.3970(2) 0.8308(3) 0.0557(3)
C8D C 0.6030(2) 1.1692(3) 0.9443(3)
C8B C 0.1692(3) 0.5662(2) 0.0557(3)
C8E C -0.1692(3) 0.4338(2) 0.9443(3)
C9C C 0.4931(2) 0.3904(2) 0.9898(3)
C9A C 0.3904(2) 0.8973(3) 0.0102(3)
C9D C 0.6096(2) 1.1027(3) 0.9898(3)
C9B C 0.1027(3) 0.4931(2) 0.0102(3)
C9E C -0.1027(3) 0.5069(2) 0.9898(3)
C10C C 0.4713(3) 0.3639(3) 1.1085(4)
C10A C 0.3639(3) 0.8926(4) -0.1085(4)
C10D C 0.6361(3) 1.1074(4) 1.1085(4)
C10B C 0.1074(4) 0.4713(3) -0.1085(4)
C10E C -0.1074(4) 0.5287(3) 1.1085(4)
H8C H 0.5045 0.3551 1.1568
H8A H 0.3551 0.8506 -0.1568
H8D H 0.6449 1.1494 1.1568
H8B H 0.1494 0.5045 -0.1568
H8E H -0.1494 0.4955 1.1568
C11C C 0.4014(3) 0.3504(3) 1.1563(4)
C11A C 0.3504(3) 0.9490(4) -0.1563(4)
C11D C 0.6496(3) 1.0510(4) 1.1563(4)
C11B C 0.0510(4) 0.4014(3) -0.1563(4)
C11E C -0.0510(4) 0.5986(3) 1.1563(4)
H9C H 0.3877 0.3324 1.2357
H9A H 0.3324 0.9447 -0.2357
H9D H 0.6676 1.0553 1.2357
H9B H 0.0553 0.3877 -0.2357
H9E H -0.0553 0.6123 1.2357
C12C C 0.3524(3) 0.3636(3) 1.0858(5)
C12A C 0.3636(3) 1.0112(4) -0.0858(5)
C12D C 0.6364(3) 0.9888(4) 1.0858(5)
C12B C -0.0112(4) 0.3524(3) -0.0858(5)
C12E C 0.0112(4) 0.6476(3) 1.0858(5)
H10C H 0.3046 0.3528 1.1170
H10A H 0.3528 1.0482 -0.1170
H10D H 0.6472 0.9518 1.1170
H10B H -0.0482 0.3046 -0.1170
H10E H 0.0482 0.6954 1.1170
C13C C 0.3728(3) 0.3926(3) 0.9696(4)
C13A C 0.3926(3) 1.0198(4) 0.0304(4)
C13D C 0.6074(3) 0.9802(4) 0.9696(4)
C13B C -0.0198(4) 0.3728(3) 0.0304(4)
C13E C 0.0198(4) 0.6272(3) 0.9696(4)
H11C H 0.3399 0.4034 0.9242
H11A H 0.4034 1.0635 0.0758
H11D H 0.5966 0.9365 0.9242
H11B H -0.0635 0.3399 0.0758
H11E H 0.0635 0.6601 0.9242
C14C C 0.4426(2) 0.4058(2) 0.9205(3)
C14A C 0.4058(2) 0.9632(3) 0.0795(3)
C14D C 0.5942(2) 1.0368(3) 0.9205(3)
C14B C 0.0368(3) 0.4426(2) 0.0795(3)
C14E C -0.0368(3) 0.5574(2) 0.9205(3)
C15C C 0.4130(3) 0.4395(3) 0.7241(4)
C15A C 0.4395(3) 1.0265(4) 0.2759(4)
C15D C 0.5605(3) 0.9735(4) 0.7241(4)
C15B C -0.0265(4) 0.4130(3) 0.2759(4)
C15E C 0.0265(4) 0.5870(3) 0.7241(4)
H12C H 0.3676 0.3887 0.7123
H12A H 0.3887 1.0211 0.2877
H12D H 0.6113 0.9789 0.7123
H12B H -0.0211 0.3676 0.2877
H12E H 0.0211 0.6324 0.7123
H13C H 0.3965 0.4746 0.7550
H13A H 0.4746 1.0781 0.2450
H13D H 0.5254 0.9219 0.7550
H13B H -0.0781 0.3965 0.2450
H13E H 0.0781 0.6035 0.7550
C16C C 0.4572(3) 0.4697(3) 0.6057(4)
C16A C 0.4697(3) 1.0125(4) 0.3943(4)
C16D C 0.5303(3) 0.9875(4) 0.6057(4)
C16B C -0.0125(4) 0.4572(3) 0.3943(4)
C16E C 0.0125(4) 0.5428(3) 0.6057(4)
C17C C 0.4746(3) 0.4227(3) 0.5337(4)
C17A C 0.4227(3) 0.9481(4) 0.4663(4)
C17D C 0.5773(3) 1.0519(4) 0.5337(4)
C17B C 0.0519(4) 0.4746(3) 0.4663(4)
C17E C -0.0519(4) 0.5254(3) 0.5337(4)
C18C C 0.4496(5) 0.3400(3) 0.5668(6)
C18A C 0.3400(3) 0.8904(6) 0.4332(6)
C18D C 0.6600(3) 1.1096(6) 0.5668(6)
C18B C 0.1096(6) 0.4496(5) 0.4332(6)
C18E C -0.1096(6) 0.5504(5) 0.5668(6)
H14C H 0.4657 0.3175 0.5042
H14A H 0.3175 0.8518 0.4958
H14D H 0.6825 1.1482 0.5042
H14B H 0.1482 0.4657 0.4958
H14E H -0.1482 0.5343 0.5042
H15C H 0.4729 0.3390 0.6427
H15A H 0.3390 0.8661 0.3573
H15D H 0.6610 1.1339 0.6427
H15B H 0.1339 0.4729 0.3573
H15E H -0.1339 0.5271 0.6427
H16C H 0.3942 0.3109 0.5745
H16A H 0.3109 0.9167 0.4255
H16D H 0.6891 1.0833 0.5745
H16B H 0.0833 0.3942 0.4255
H16E H -0.0833 0.6058 0.5745
C19C C 0.4816(3) 0.5444(3) 0.5712(4)
C19A C 0.5444(3) 1.0628(4) 0.4288(4)
C19D C 0.4556(3) 0.9372(4) 0.5712(4)
C19B C -0.0628(4) 0.4816(3) 0.4288(4)
C19E C 0.0628(4) 0.5184(3) 0.5712(4)
H17C H 0.4686 0.5745 0.6197
H17A H 0.5745 1.1059 0.3803
H17D H 0.4255 0.8941 0.6197
H17B H -0.1059 0.4686 0.3803
H17E H 0.1059 0.5314 0.6197
N1C N 0.5970(2) 0.4358(2) 0.8432(3)
N1A N 0.4358(2) 0.8388(3) 0.1568(3)
N1D N 0.5642(2) 1.1612(3) 0.8432(3)
N1B N 0.1612(3) 0.5970(2) 0.1568(3)
N1E N -0.1612(3) 0.4030(2) 0.8432(3)
H18C H 0.5739 0.4574 0.8085
H18A H 0.4574 0.8835 0.1915
H18D H 0.5426 1.1165 0.8085
H18B H 0.1165 0.5739 0.1915
H18E H -0.1165 0.4261 0.8085
N2A N 0.4764(2) 0.7508(3) -0.2727(3)
N2B N 0.2492(3) 0.7256(2) -0.2727(3)
N2C N 0.7256(2) 0.4764(2) 1.2727(3)
N2D N 0.5236(2) 0.2492(3) 1.2727(3)
N2E N 0.7508(3) 0.2744(2) 1.2727(3)
O1C O 0.59671(15) 0.36431(16) 1.0003(2)
O1A O 0.36431(16) 0.76760(22) -0.0003(2)
O1D O 0.63569(16) 1.23240(22) 1.0003(2)
O1B O 0.23240(22) 0.59671(15) -0.0003(2)
O1E O -0.23240(22) 0.40329(15) 1.0003(2)
O1D_2 O 0.63569(16) 0.23240(22) 1.0003(2)
O1E_2 O 0.76760(22) 0.40329(15) 1.0003(2)
O2C O 0.46670(18) 0.4350(2) 0.8068(3)
O2A O 0.4350(2) 0.96830(27) 0.1932(3)
O2D O 0.5650(2) 1.03170(27) 0.8068(3)
O2B O 0.03170(27) 0.46670(18) 0.1932(3)
O2E O -0.03170(27) 0.53330(18) 0.8068(3)
O3A O 0.42477(17) 0.68195(24) -0.3005(3)
O3B O 0.31805(24) 0.74282(17) -0.3005(3)
O3C O 0.74282(17) 0.42477(17) 1.3005(3)
O3D O 0.57523(17) 0.31805(24) 1.3005(3)
O3E O 0.68195(24) 0.25718(17) 1.3005(3)
O4A O 0.46464(17) 0.77797(25) -0.1781(3)
O4B O 0.22203(25) 0.68667(18) -0.1781(3)
O4C O 0.68667(18) 0.46464(17) 1.1781(3)
O4D O 0.53536(17) 0.22203(25) 1.1781(3)
O4E O 0.77797(25) 0.31333(18) 1.1781(3)
O5A O 0.5339(3) 0.7882(4) -0.3357(4)
O5B O 0.2118(4) 0.7457(3) -0.3357(4)
O5C O 0.7457(3) 0.5339(3) 1.3357(4)
O5D O 0.4661(3) 0.2118(4) 1.3357(4)
O5E O 0.7882(4) 0.2543(3) 1.3357(4)
O6 O 0.3333 0.6667 0.4599(15)
Cl1 Cl 0.206(2) 0.0990(17) 0.1214(14)
Cl2 Cl 0.2361(6) 0.1690(5) 0.3321(12)
Cl3 Cl 0.2339(6) 0.0399(5) 0.3129(13)
C20 C 0.2865(10) 0.1293(9) 0.233(4)
H19 H 0.3420 0.1558 0.2139
loop_
_geom_bond_atom_site_label_1
_geom_bond_atom_site_label_2
_geom_bond_site_symmetry_1
_geom_bond_site_symmetry_2
Tb1 O1 1_555 1_555
C1 H1 1_555 1_555
C2 C1 1_555 1_555
H2 C2 1_555 1_555
C3 C2 1_555 1_555
H3 C3 1_555 1_555
C4 C3 1_555 1_555
H4 C4 1_555 1_555
C5 C4 1_555 1_555
H5 C5 1_555 1_555
C6 C1 1_555 1_555
C7 C6 1_555 1_555
H6 C7 1_555 1_555
H7 C7 1_555 1_555
C8 C9 1_555 1_555
C9 C10 1_555 1_555
C10 H8 1_555 1_555
C11 C10 1_555 1_555
H9 C11 1_555 1_555
C12 C11 1_555 1_555
H10 C12 1_555 1_555
C13 C12 1_555 1_555
H11 C13 1_555 1_555
C14 C9 1_555 1_555
C15 H12 1_555 1_555
H13 C15 1_555 1_555
C16 C15 1_555 1_555
C17 C16 1_555 1_555
C18 C17 1_555 1_555
H14 C18 1_555 1_555
H15 C18 1_555 1_555
H16 C18 1_555 1_555
C19 C16 1_555 1_555
H17 C19 1_555 1_555
N1 C7 1_555 1_555
H18 N1 1_555 1_555
N2 O3 1_555 1_555
O1 C8 1_555 1_555
O2 C14 1_555 1_555
O3 Tb1 1_555 1_555
O4 Tb1 1_555 1_555
O5 N2 1_555 1_555
Cl1 C20 1_555 1_555
Cl2 C20 1_555 1_555
Cl3 C20 1_555 1_555
C20 H19 1_555 1_555
Tb1C O1C 1_555 1_555
Tb1D O1D 1_555 1_555
Tb1E O1E 1_555 1_555
C1C H1C 1_555 1_555
C1A H1A 1_555 1_555
C1D H1D 1_555 1_555
C1B H1B 1_555 1_555
C1E H1E 1_555 1_555
C2C C1C 1_555 1_555
C2A C1A 1_555 1_555
C2D C1D 1_555 1_555
C2B C1B 1_555 1_555
C2E C1E 1_555 1_555
H2C C2C 1_555 1_555
H2A C2A 1_555 1_555
H2D C2D 1_555 1_555
H2B C2B 1_555 1_555
H2E C2E 1_555 1_555
C3C C2C 1_555 1_555
C3A C2A 1_555 1_555
C3D C2D 1_555 1_555
C3B C2B 1_555 1_555
C3E C2E 1_555 1_555
H3C C3C 1_555 1_555
H3A C3A 1_555 1_555
H3D C3D 1_555 1_555
H3B C3B 1_555 1_555
H3E C3E 1_555 1_555
C4C C3C 1_555 1_555
C4A C3A 1_555 1_555
C4D C3D 1_555 1_555
C4B C3B 1_555 1_555
C4E C3E 1_555 1_555
H4C C4C 1_555 1_555
H4A C4A 1_555 1_555
H4D C4D 1_555 1_555
H4B C4B 1_555 1_555
H4E C4E 1_555 1_555
C5C C4C 1_555 1_555
C5A C4A 1_555 1_555
C5D C4D 1_555 1_555
C5B C4B 1_555 1_555
C5E C4E 1_555 1_555
H5C C5C 1_555 1_555
H5A C5A 1_555 1_555
H5D C5D 1_555 1_555
H5B C5B 1_555 1_555
H5E C5E 1_555 1_555
C6C C1C 1_555 1_555
C6A C1A 1_555 1_555
C6D C1D 1_555 1_555
C6B C1B 1_555 1_555
C6E C1E 1_555 1_555
C7C C6C 1_555 1_555
C7A C6A 1_555 1_555
C7D C6D 1_555 1_555
C7B C6B 1_555 1_555
C7E C6E 1_555 1_555
H6C C7C 1_555 1_555
H6A C7A 1_555 1_555
H6D C7D 1_555 1_555
H6B C7B 1_555 1_555
H6E C7E 1_555 1_555
H7C C7C 1_555 1_555
H7A C7A 1_555 1_555
H7D C7D 1_555 1_555
H7B C7B 1_555 1_555
H7E C7E 1_555 1_555
C8C C9C 1_555 1_555
C8A C9A 1_555 1_555
C8D C9D 1_555 1_555
C8B C9B 1_555 1_555
C8E C9E 1_555 1_555
C9C C10C 1_555 1_555
C9A C10A 1_555 1_555
C9D C10D 1_555 1_555
C9B C10B 1_555 1_555
C9E C10E 1_555 1_555
C10C H8C 1_555 1_555
C10A H8A 1_555 1_555
C10D H8D 1_555 1_555
C10B H8B 1_555 1_555
C10E H8E 1_555 1_555
C11C C10C 1_555 1_555
C11A C10A 1_555 1_555
C11D C10D 1_555 1_555
C11B C10B 1_555 1_555
C11E C10E 1_555 1_555
H9C C11C 1_555 1_555
H9A C11A 1_555 1_555
H9D C11D 1_555 1_555
H9B C11B 1_555 1_555
H9E C11E 1_555 1_555
C12C C11C 1_555 1_555
C12A C11A 1_555 1_555
C12D C11D 1_555 1_555
C12B C11B 1_555 1_555
C12E C11E 1_555 1_555
H10C C12C 1_555 1_555
H10A C12A 1_555 1_555
H10D C12D 1_555 1_555
H10B C12B 1_555 1_555
H10E C12E 1_555 1_555
C13C C12C 1_555 1_555
C13A C12A 1_555 1_555
C13D C12D 1_555 1_555
C13B C12B 1_555 1_555
C13E C12E 1_555 1_555
H11C C13C 1_555 1_555
H11A C13A 1_555 1_555
H11D C13D 1_555 1_555
H11B C13B 1_555 1_555
H11E C13E 1_555 1_555
C14C C9C 1_555 1_555
C14A C9A 1_555 1_555
C14D C9D 1_555 1_555
C14B C9B 1_555 1_555
C14E C9E 1_555 1_555
C15C H12C 1_555 1_555
C15A H12A 1_555 1_555
C15D H12D 1_555 1_555
C15B H12B 1_555 1_555
C15E H12E 1_555 1_555
H13C C15C 1_555 1_555
H13A C15A 1_555 1_555
H13D C15D 1_555 1_555
H13B C15B 1_555 1_555
H13E C15E 1_555 1_555
C16C C15C 1_555 1_555
C16A C15A 1_555 1_555
C16D C15D 1_555 1_555
C16B C15B 1_555 1_555
C16E C15E 1_555 1_555
C17C C19 1_555 1_555
C17A C16A 1_555 1_555
C17D C16D 1_555 1_555
C17B C16B 1_555 1_555
C17E C16E 1_555 1_555
C18C C17C 1_555 1_555
C18A C17A 1_555 1_555
C18D C17D 1_555 1_555
C18B C17B 1_555 1_555
C18E C17E 1_555 1_555
H14C C18C 1_555 1_555
H14A C18A 1_555 1_555
H14D C18D 1_555 1_555
H14B C18B 1_555 1_555
H14E C18E 1_555 1_555
H15C C18C 1_555 1_555
H15A C18A 1_555 1_555
H15D C18D 1_555 1_555
H15B C18B 1_555 1_555
H15E C18E 1_555 1_555
H16C C18C 1_555 1_555
H16A C18A 1_555 1_555
H16D C18D 1_555 1_555
H16B C18B 1_555 1_555
H16E C18E 1_555 1_555
C19C C17 1_555 1_555
C19A C16A 1_555 1_555
C19D C16D 1_555 1_555
C19B C16B 1_555 1_555
C19E C16E 1_555 1_555
H17C C19C 1_555 1_555
H17A C19A 1_555 1_555
H17D C19D 1_555 1_555
H17B C19B 1_555 1_555
H17E C19E 1_555 1_555
N1C C7C 1_555 1_555
N1A C7A 1_555 1_555
N1D C7D 1_555 1_555
N1B C7B 1_555 1_555
N1E C7E 1_555 1_555
H18C N1C 1_555 1_555
H18A N1A 1_555 1_555
H18D N1D 1_555 1_555
H18B N1B 1_555 1_555
H18E N1E 1_555 1_555
N2A O3A 1_555 1_555
N2B O3B 1_555 1_555
N2C O3C 1_555 1_555
N2D O3D 1_555 1_555
N2E O3E 1_555 1_555
O1C C8C 1_555 1_555
O1A Tb1 1_555 1_555
O1D C8D 1_555 1_555
O1B Tb1 1_555 1_555
O1E C8E 1_555 1_555
O1D_2 Tb1C 1_555 1_555
O1E_2 Tb1C 1_555 1_555
O2C C14C 1_555 1_555
O2A C14A 1_555 1_555
O2D C14D 1_555 1_555
O2B C14B 1_555 1_555
O2E C14E 1_555 1_555
O3A Tb1 1_555 1_555
O3B Tb1 1_555 1_555
O3C Tb1C 1_555 1_555
O3D Tb1C 1_555 1_555
O3E Tb1C 1_555 1_555
O4A Tb1 1_555 1_555
O4B Tb1 1_555 1_555
O4C Tb1C 1_555 1_555
O4D Tb1C 1_555 1_555
O4E Tb1C 1_555 1_555
O5A N2A 1_555 1_555
O5B N2B 1_555 1_555
O5C N2C 1_555 1_555
O5D N2D 1_555 1_555
O5E N2E 1_555 1_555
C5 C6 1_555 1_555
C8 N1 1_555 1_555
C13 C14 1_555 1_555
C15 O2 1_555 1_555
N2 O4 1_555 1_555
C5C C6C 1_555 1_555
C5A C6A 1_555 1_555
C5D C6D 1_555 1_555
C5B C6B 1_555 1_555
C5E C6E 1_555 1_555
C8C N1C 1_555 1_555
C8A N1A 1_555 1_555
C8A O1A 1_555 1_555
C8D N1D 1_555 1_555
C8B N1B 1_555 1_555
C8B O1B 1_555 1_555
C8E N1E 1_555 1_555
C13C C14C 1_555 1_555
C13A C14A 1_555 1_555
C13D C14D 1_555 1_555
C13B C14B 1_555 1_555
C13E C14E 1_555 1_555
C15C O2C 1_555 1_555
C15A O2A 1_555 1_555
C15D O2D 1_555 1_555
C15B O2B 1_555 1_555
C15E O2E 1_555 1_555
C16C C17C 1_555 1_555
C16C C19C 1_555 1_555
C17A C19D 1_555 1_555
C17D C19A 1_555 1_555
C17B C19E 1_555 1_555
C17E C19B 1_555 1_555
N2A O4A 1_555 1_555
N2B O4B 1_555 1_555
N2C O4C 1_555 1_555
N2D O4D 1_555 1_555
N2E O4E 1_555 1_555

#END
