
#######################################################################
#
#                 Cambridge Crystallographic Data Centre
#                                CCDC 
#
#######################################################################
#
# If this CIF has been generated from an entry in the Cambridge 
# Structural Database, then it will include bibliographic, chemical, 
# crystal, experimental, refinement or atomic coordinate data resulting 
# from the CCDC's data processing and validation procedures.
#
#######################################################################

data_ILUFEB
_symmetry_cell_setting           triclinic
_symmetry_space_group_name_H-M   'P -1'
_symmetry_Int_Tables_number      2
_space_group_name_Hall           '-P 1'
loop_
_symmetry_equiv_pos_site_id
_symmetry_equiv_pos_as_xyz
1 x,y,z
2 -x,-y,-z
_cell_length_a                   13.7819(5)
_cell_length_b                   15.1675(7)
_cell_length_c                   15.1690(7)
_cell_angle_alpha                73.9240(10)
_cell_angle_beta                 75.939(2)
_cell_angle_gamma                67.0170(10)
_cell_volume                     2772.25
loop_
_atom_site_label
_atom_site_type_symbol
_atom_site_fract_x
_atom_site_fract_y
_atom_site_fract_z
Cd1 Cd 0.0000 1.0000 0.5000
Cd2 Cd -0.19099(3) 1.19559(3) 0.30767(2)
N1 N -0.1693(3) 1.1132(3) 0.5341(3)
N2 N -0.2342(3) 1.1807(3) 0.4706(3)
N3 N -0.3048(3) 1.2132(3) 0.6093(3)
N4 N -0.7514(4) 1.5932(3) 0.6358(3)
N5 N -0.7401(3) 1.6343(3) 0.7028(3)
N6 N -0.6182(3) 1.4890(3) 0.7070(3)
N7 N -0.0443(3) 0.8802(3) 0.6207(3)
N8 N 0.0242(3) 0.8075(3) 0.6778(3)
N9 N -0.1305(3) 0.7881(3) 0.7155(3)
N10 N -0.6468(3) 0.8130(4) 0.6922(3)
N11 N -0.5968(4) 0.8646(4) 0.6170(3)
N12 N -0.4915(3) 0.7906(3) 0.7242(3)
N13 N 0.0564(3) 1.0468(3) 0.6088(3)
N14 N 0.1212(3) 0.9773(3) 0.6711(3)
N15 N 0.0773(3) 1.1211(3) 0.7032(3)
N16 N -0.0853(4) 1.2234(4) 0.9986(3)
N17 N -0.1566(4) 1.2116(4) 1.1452(3)
C1 C -0.1421(6) 1.1568(5) 1.0236(5)
H1 H -0.1457 1.1210 0.9827
C2 C -0.0986(6) 1.2487(6) 1.0768(4)
H2 H -0.0674 1.2921 1.0832
N18 N -0.1882(5) 1.1514(5) 1.1092(4)
C3 C -0.2137(4) 1.1348(4) 0.6153(3)
H3 H -0.1858 1.0999 0.6713
C4 C -0.3149(4) 1.2397(4) 0.5183(3)
H4 H -0.3718 1.2931 0.4923
C5 C -0.6771(5) 1.5064(4) 0.6404(4)
H5 H -0.6662 1.4620 0.6024
C6 C -0.6619(4) 1.5705(4) 0.7436(4)
H6 H -0.6379 1.5795 0.7930
C7 C -0.3717(4) 1.2595(4) 0.6893(3)
C8 C -0.4620(4) 1.3521(4) 0.6539(3)
H7 H -0.4320 1.3992 0.6081
H8 H -0.5066 1.3355 0.6234
C9 C -0.5302(4) 1.3977(4) 0.7384(4)
C10 C -0.5777(5) 1.3249(5) 0.8073(4)
H9 H -0.6249 1.3547 0.8598
H10 H -0.6203 1.3062 0.7764
C11 C -0.4838(6) 1.2328(5) 0.8434(4)
H11 H -0.5135 1.1849 0.8898
C12 C -0.4196(5) 1.1873(4) 0.7569(4)
H12 H -0.4675 1.1740 0.7270
H13 H -0.3624 1.1248 0.7761
C13 C -0.3007(5) 1.2853(5) 0.7339(4)
H14 H -0.2409 1.2257 0.7544
H15 H -0.2705 1.3324 0.6882
C14 C -0.3678(5) 1.3306(6) 0.8172(5)
H16 H -0.3220 1.3465 0.8480
C15 C -0.4585(5) 1.4241(5) 0.7842(4)
H17 H -0.5014 1.4545 0.8376
H18 H -0.4287 1.4715 0.7388
C16 C -0.4162(6) 1.2577(6) 0.8867(4)
H19 H -0.4592 1.2868 0.9409
H20 H -0.3582 1.1975 0.9092
C17 C -0.1360(4) 0.8660(4) 0.6452(3)
H21 H -0.1978 0.9053 0.6171
C18 C -0.0302(4) 0.7545(4) 0.7336(4)
H22 H -0.0025 0.6997 0.7807
C19 C -0.5821(4) 0.7711(4) 0.7547(4)
H23 H -0.5977 0.7323 0.8135
C20 C -0.5047(5) 0.8494(5) 0.6393(4)
H24 H -0.4534 0.8764 0.6007
C21 C -0.2182(4) 0.7516(4) 0.7722(3)
C22 C -0.3111(4) 0.7911(4) 0.7171(3)
H25 H -0.3373 0.8635 0.7027
H26 H -0.2876 0.7678 0.6580
C23 C -0.3998(4) 0.7542(4) 0.7767(4)
C24 C -0.4370(4) 0.7924(4) 0.8667(4)
H27 H -0.4631 0.8648 0.8525
H28 H -0.4963 0.7708 0.9042
C25 C -0.3421(4) 0.7522(5) 0.9218(4)
H29 H -0.3655 0.7765 0.9812
C26 C -0.2529(4) 0.7875(4) 0.8628(3)
H30 H -0.1916 0.7625 0.8969
H31 H -0.2780 0.8599 0.8496
C27 C -0.1765(4) 0.6401(4) 0.7913(4)
H32 H -0.1537 0.6169 0.7321
H33 H -0.1142 0.6140 0.8245
C28 C -0.2665(5) 0.6042(4) 0.8512(4)
H34 H -0.2401 0.5311 0.8653
C29 C -0.3601(4) 0.6432(4) 0.7966(4)
H35 H -0.4183 0.6193 0.8332
H36 H -0.3366 0.6196 0.7375
C30 C -0.3021(5) 0.6416(5) 0.9424(4)
H37 H -0.2414 0.6159 0.9773
H38 H -0.3596 0.6180 0.9812
C31 C 0.0327(4) 1.1322(4) 0.6288(3)
H39 H -0.0095 1.1929 0.5959
C32 C 0.1310(4) 1.0241(4) 0.7261(4)
H40 H 0.1710 0.9941 0.7761
C33 C 0.0631(4) 1.1947(4) 0.7576(4)
C34 C -0.0040(4) 1.1729(4) 0.8503(3)
H41 H -0.0741 1.1768 0.8405
H42 H 0.0320 1.1058 0.8838
C35 C -0.0198(4) 1.2475(4) 0.9084(3)
C36 C -0.0749(5) 1.3502(4) 0.8571(4)
H43 H -0.1455 1.3562 0.8465
H44 H -0.0858 1.3983 0.8946
C37 C -0.0043(7) 1.3712(5) 0.7624(4)
H45 H -0.0392 1.4392 0.7284
C38 C 0.0077(6) 1.2971(4) 0.7049(4)
H46 H 0.0505 1.3101 0.6433
H47 H -0.0633 1.3030 0.6954
C39 C 0.1741(5) 1.1842(5) 0.7745(4)
H48 H 0.2201 1.1958 0.7145
H49 H 0.2091 1.1174 0.8088
C40 C 0.1575(5) 1.2601(5) 0.8314(4)
H50 H 0.2285 1.2544 0.8424
C41 C 0.0895(4) 1.2386(5) 0.9250(4)
H51 H 0.1254 1.1717 0.9589
H52 H 0.0804 1.2856 0.9631
C42 C 0.1067(7) 1.3598(6) 0.7787(4)
H53 H 0.0993 1.4088 0.8139
H54 H 0.1521 1.3714 0.7183
Cd2A Cd 0.19099(3) 0.80441(3) 0.69233(2)
Cd2A_2 Cd -0.80901(3) 1.80441(3) 0.69233(2)
Cd2A_3 Cd -0.80901(3) 0.80441(3) 0.69233(2)
Cd2_2 Cd -0.19099(3) 1.19559(3) 1.30767(2)
Cd2_3 Cd 0.80901(3) 0.19559(3) 0.30767(2)
Cd2_4 Cd 0.80901(3) 1.19559(3) 0.30767(2)
Cd2A_4 Cd 0.19099(3) 0.80441(3) -0.30767(2)
N1A N 0.1693(3) 0.8868(3) 0.4659(3)
N2A N 0.2342(3) 0.8193(3) 0.5294(3)
N3A N 0.3048(3) 0.7868(3) 0.3907(3)
N4A N 0.7514(4) 0.4068(3) 0.3642(3)
N5A N 0.7401(3) 0.3657(3) 0.2972(3)
N5A_2 N -0.2599(3) 1.3657(3) 0.2972(3)
N5_2 N 0.2599(3) 0.6343(3) 0.7028(3)
N6A N 0.6182(3) 0.5110(3) 0.2930(3)
N7A N 0.0443(3) 1.1198(3) 0.3793(3)
N8A N -0.0242(3) 1.1925(3) 0.3222(3)
N9A N 0.1305(3) 1.2119(3) 0.2845(3)
N10A N 0.6468(3) 1.1870(4) 0.3078(3)
N10A_2 N -0.3532(3) 1.1870(4) 0.3078(3)
N10_2 N 0.3532(3) 0.8130(4) 0.6922(3)
N11A N 0.5968(4) 1.1354(4) 0.3830(3)
N12A N 0.4915(3) 1.2094(3) 0.2758(3)
N13A N -0.0564(3) 0.9532(3) 0.3912(3)
N14A N -0.1212(3) 1.0227(3) 0.3289(3)
N15A N -0.0773(3) 0.8789(3) 0.2968(3)
N16A N 0.0853(4) 0.7766(4) 0.0014(3)
N17A N 0.1566(4) 0.7884(4) -0.1452(3)
N17_2 N -0.1566(4) 1.2116(4) 0.1452(3)
N17A_2 N 0.1566(4) 0.7884(4) 0.8548(3)
C1A C 0.1421(6) 0.8432(5) -0.0236(5)
H1A H 0.1457 0.8790 0.0173
C2A C 0.0986(6) 0.7513(6) -0.0768(4)
H2A H 0.0674 0.7079 -0.0832
N18A N 0.1882(5) 0.8486(5) -0.1092(4)
C3A C 0.2137(4) 0.8652(4) 0.3847(3)
H3A H 0.1858 0.9001 0.3287
C4A C 0.3149(4) 0.7603(4) 0.4817(3)
H4A H 0.3718 0.7069 0.5077
C5A C 0.6771(5) 0.4936(4) 0.3596(4)
H5A H 0.6662 0.5380 0.3976
C6A C 0.6619(4) 0.4295(4) 0.2564(4)
H6A H 0.6379 0.4205 0.2070
C7A C 0.3717(4) 0.7405(4) 0.3107(3)
C8A C 0.4620(4) 0.6479(4) 0.3461(3)
H7A H 0.4320 0.6008 0.3919
H8A H 0.5066 0.6645 0.3766
C9A C 0.5302(4) 0.6023(4) 0.2616(4)
C10A C 0.5777(5) 0.6751(5) 0.1927(4)
H9A H 0.6249 0.6453 0.1402
H10A H 0.6203 0.6938 0.2236
C11A C 0.4838(6) 0.7672(5) 0.1566(4)
H11A H 0.5135 0.8151 0.1102
C12A C 0.4196(5) 0.8127(4) 0.2431(4)
H12A H 0.4675 0.8260 0.2730
H13A H 0.3624 0.8752 0.2239
C13A C 0.3007(5) 0.7147(5) 0.2661(4)
H14A H 0.2409 0.7743 0.2456
H15A H 0.2705 0.6676 0.3118
C14A C 0.3678(5) 0.6694(6) 0.1828(5)
H16A H 0.3220 0.6535 0.1520
C15A C 0.4585(5) 0.5759(5) 0.2158(4)
H17A H 0.5014 0.5455 0.1624
H18A H 0.4287 0.5285 0.2612
C16A C 0.4162(6) 0.7423(6) 0.1133(4)
H19A H 0.4592 0.7132 0.0591
H20A H 0.3582 0.8025 0.0908
C17A C 0.1360(4) 1.1340(4) 0.3548(3)
H21A H 0.1978 1.0947 0.3829
C18A C 0.0302(4) 1.2455(4) 0.2664(4)
H22A H 0.0025 1.3003 0.2193
C19A C 0.5821(4) 1.2289(4) 0.2453(4)
H23A H 0.5977 1.2677 0.1865
C20A C 0.5047(5) 1.1506(5) 0.3607(4)
H24A H 0.4534 1.1236 0.3993
C21A C 0.2182(4) 1.2484(4) 0.2278(3)
C22A C 0.3111(4) 1.2089(4) 0.2829(3)
H25A H 0.3373 1.1365 0.2973
H26A H 0.2876 1.2322 0.3420
C23A C 0.3998(4) 1.2458(4) 0.2233(4)
C24A C 0.4370(4) 1.2076(4) 0.1333(4)
H27A H 0.4631 1.1352 0.1475
H28A H 0.4963 1.2292 0.0958
C25A C 0.3421(4) 1.2478(5) 0.0782(4)
H29A H 0.3655 1.2235 0.0188
C26A C 0.2529(4) 1.2125(4) 0.1372(3)
H30A H 0.1916 1.2375 0.1031
H31A H 0.2780 1.1401 0.1504
C27A C 0.1765(4) 1.3599(4) 0.2087(4)
H32A H 0.1537 1.3831 0.2679
H33A H 0.1142 1.3860 0.1755
C28A C 0.2665(5) 1.3958(4) 0.1488(4)
H34A H 0.2401 1.4689 0.1347
C29A C 0.3601(4) 1.3568(4) 0.2034(4)
H35A H 0.4183 1.3807 0.1668
H36A H 0.3366 1.3804 0.2625
C30A C 0.3021(5) 1.3584(5) 0.0576(4)
H37A H 0.2414 1.3841 0.0227
H38A H 0.3596 1.3820 0.0188
C31A C -0.0327(4) 0.8678(4) 0.3712(3)
H39A H 0.0095 0.8071 0.4041
C32A C -0.1310(4) 0.9759(4) 0.2739(4)
H40A H -0.1710 1.0059 0.2239
C33A C -0.0631(4) 0.8053(4) 0.2424(4)
C34A C 0.0040(4) 0.8271(4) 0.1497(3)
H41A H 0.0741 0.8232 0.1595
H42A H -0.0320 0.8942 0.1162
C35A C 0.0198(4) 0.7525(4) 0.0916(3)
C36A C 0.0749(5) 0.6498(4) 0.1429(4)
H43A H 0.1455 0.6438 0.1535
H44A H 0.0858 0.6017 0.1054
C37A C 0.0043(7) 0.6288(5) 0.2376(4)
H45A H 0.0392 0.5608 0.2716
C38A C -0.0077(6) 0.7029(4) 0.2951(4)
H46A H -0.0505 0.6899 0.3567
H47A H 0.0633 0.6970 0.3046
C39A C -0.1741(5) 0.8158(5) 0.2255(4)
H48A H -0.2201 0.8042 0.2855
H49A H -0.2091 0.8826 0.1912
C40A C -0.1575(5) 0.7399(5) 0.1686(4)
H50A H -0.2285 0.7456 0.1576
C41A C -0.0895(4) 0.7614(5) 0.0750(4)
H51A H -0.1254 0.8283 0.0411
H52A H -0.0804 0.7144 0.0369
C42A C -0.1067(7) 0.6402(6) 0.2213(4)
H53A H -0.0993 0.5912 0.1861
H54A H -0.1521 0.6286 0.2817
Se1 Se 0.11864(6) 1.01544(6) 0.15430(6)
C43 C 0.2430(6) 1.0104(6) 0.0754(5)
N19 N 0.3201(6) 1.0058(5) 0.0229(6)
O1 O 0.8974(4) 0.3338(4) 0.5031(3)
O2 O 0.6529(4) 1.0023(4) 0.5509(4)
O3 O 0.4659(7) 1.0509(6) 0.6858(6)
O4 O -0.4713(9) 0.9663(8) 0.1238(7)
O5 O 0.8920(7) 0.6698(8) 0.5483(6)
O6 O 0.7323(10) 0.8452(9) 0.4667(7)
Se2? Se 0.2129(6) 0.9479(4) -0.0136(4)
C44? C 0.175(2) 0.975(2) 0.1048(9)
N20? N 0.157(4) 0.961(3) 0.1850(10)
Se3? Se -0.08682(16) 0.45791(10) 0.08201(11)
C45? C 0.0086(12) 0.4804(11) 0.0114(10)
N21? N 0.0362(11) 0.5587(12) -0.0701(9)
Se4? Se 0.6167(3) 0.41497(17) 0.02772(11)
C46? C 0.5122(10) 0.4873(11) 0.0068(13)
N22? N 0.4170(13) 0.5658(15) -0.0389(16)
C47? C -0.1873(10) 1.2903(12) 1.0096(11)
C48? C -0.0714(10) 1.1764(10) 1.0874(7)
H55? H -0.2216 1.3355 0.9596
H56? H -0.0083 1.1250 1.1050
N23? N -0.2310(9) 1.2845(11) 1.0960(8)
loop_
_geom_bond_atom_site_label_1
_geom_bond_atom_site_label_2
_geom_bond_site_symmetry_1
_geom_bond_site_symmetry_2
Cd1 N1 1_555 1_555
Cd2 N2 1_555 1_555
N1 N2 1_555 1_555
N2 C4 1_555 1_555
N3 C3 1_555 1_555
N4 N5 1_555 1_555
N5 C6 1_555 1_555
N6 C5 1_555 1_555
N7 Cd1 1_555 1_555
N8 N7 1_555 1_555
N9 C17 1_555 1_555
N10 N11 1_555 1_555
N11 C20 1_555 1_555
N12 C19 1_555 1_555
N13 Cd1 1_555 1_555
N14 N13 1_555 1_555
N15 C31 1_555 1_555
N16 C1 1_555 1_555
N17 C2 1_555 1_555
C1 H1 1_555 1_555
C2 N16 1_555 1_555
H2 C2 1_555 1_555
N18 N17 1_555 1_555
C3 N1 1_555 1_555
H3 C3 1_555 1_555
C4 N3 1_555 1_555
H4 C4 1_555 1_555
C5 N4 1_555 1_555
H5 C5 1_555 1_555
C6 N6 1_555 1_555
H6 C6 1_555 1_555
C7 N3 1_555 1_555
C8 C7 1_555 1_555
H7 C8 1_555 1_555
H8 C8 1_555 1_555
C9 N6 1_555 1_555
C10 C9 1_555 1_555
H9 C10 1_555 1_555
H10 C10 1_555 1_555
C11 C10 1_555 1_555
H11 C11 1_555 1_555
C12 C7 1_555 1_555
H12 C12 1_555 1_555
H13 C12 1_555 1_555
C13 C7 1_555 1_555
H14 C13 1_555 1_555
H15 C13 1_555 1_555
C14 C13 1_555 1_555
H16 C14 1_555 1_555
C15 C9 1_555 1_555
H17 C15 1_555 1_555
H18 C15 1_555 1_555
C16 C11 1_555 1_555
H19 C16 1_555 1_555
H20 C16 1_555 1_555
C17 N7 1_555 1_555
H21 C17 1_555 1_555
C18 N8 1_555 1_555
H22 C18 1_555 1_555
C19 N10 1_555 1_555
H23 C19 1_555 1_555
C20 N12 1_555 1_555
H24 C20 1_555 1_555
C21 N9 1_555 1_555
C22 C21 1_555 1_555
H25 C22 1_555 1_555
H26 C22 1_555 1_555
C23 N12 1_555 1_555
C24 C23 1_555 1_555
H27 C24 1_555 1_555
H28 C24 1_555 1_555
C25 C24 1_555 1_555
H29 C25 1_555 1_555
C26 C21 1_555 1_555
H30 C26 1_555 1_555
H31 C26 1_555 1_555
C27 C21 1_555 1_555
H32 C27 1_555 1_555
H33 C27 1_555 1_555
C28 C27 1_555 1_555
H34 C28 1_555 1_555
C29 C23 1_555 1_555
H35 C29 1_555 1_555
H36 C29 1_555 1_555
C30 C25 1_555 1_555
H37 C30 1_555 1_555
H38 C30 1_555 1_555
C31 N13 1_555 1_555
H39 C31 1_555 1_555
C32 N14 1_555 1_555
H40 C32 1_555 1_555
C33 N15 1_555 1_555
C34 C33 1_555 1_555
H41 C34 1_555 1_555
H42 C34 1_555 1_555
C35 N16 1_555 1_555
C36 C35 1_555 1_555
H43 C36 1_555 1_555
H44 C36 1_555 1_555
C37 C36 1_555 1_555
H45 C37 1_555 1_555
C38 C33 1_555 1_555
H46 C38 1_555 1_555
H47 C38 1_555 1_555
C39 C33 1_555 1_555
H48 C39 1_555 1_555
H49 C39 1_555 1_555
C40 C39 1_555 1_555
H50 C40 1_555 1_555
C41 C35 1_555 1_555
H51 C41 1_555 1_555
H52 C41 1_555 1_555
C42 C37 1_555 1_555
H53 C42 1_555 1_555
H54 C42 1_555 1_555
Se1 C43 1_555 1_555
C43 N19 1_555 1_555
Cd2A N8 1_555 1_555
Cd2A_2 N5 1_555 1_555
Cd2A_3 N10 1_555 1_555
Cd2_2 N17 1_555 1_555
Cd2_3 N5A 1_555 1_555
Cd2_4 N10A 1_555 1_555
Cd2A_4 N17A 1_555 1_555
N1A Cd1 1_555 1_555
N2A Cd2A 1_555 1_555
N3A C3A 1_555 1_555
N4A N5A 1_555 1_555
N5A C6A 1_555 1_555
N5A_2 Cd2 1_555 1_555
N5_2 Cd2A 1_555 1_555
N6A C5A 1_555 1_555
N7A Cd1 1_555 1_555
N8A Cd2 1_555 1_555
N9A C17A 1_555 1_555
N10A N11A 1_555 1_555
N10A_2 Cd2 1_555 1_555
N10_2 Cd2A 1_555 1_555
N11A C20A 1_555 1_555
N12A C19A 1_555 1_555
N13A Cd1 1_555 1_555
N14A Cd2 1_555 1_555
N15A C31A 1_555 1_555
N16A C1A 1_555 1_555
N17A C2A 1_555 1_555
N17_2 Cd2 1_555 1_555
N17A_2 Cd2A 1_555 1_555
C1A H1A 1_555 1_555
C2A N16A 1_555 1_555
H2A C2A 1_555 1_555
N18A N17A 1_555 1_555
C3A N1A 1_555 1_555
H3A C3A 1_555 1_555
C4A N2A 1_555 1_555
H4A C4A 1_555 1_555
C5A N4A 1_555 1_555
H5A C5A 1_555 1_555
C6A N6A 1_555 1_555
H6A C6A 1_555 1_555
C7A N3A 1_555 1_555
C8A C7A 1_555 1_555
H7A C8A 1_555 1_555
H8A C8A 1_555 1_555
C9A N6A 1_555 1_555
C10A C9A 1_555 1_555
H9A C10A 1_555 1_555
H10A C10A 1_555 1_555
C11A C10A 1_555 1_555
H11A C11A 1_555 1_555
C12A C7A 1_555 1_555
H12A C12A 1_555 1_555
H13A C12A 1_555 1_555
C13A C7A 1_555 1_555
H14A C13A 1_555 1_555
H15A C13A 1_555 1_555
C14A C13A 1_555 1_555
H16A C14A 1_555 1_555
C15A C9A 1_555 1_555
H17A C15A 1_555 1_555
H18A C15A 1_555 1_555
C16A C11A 1_555 1_555
H19A C16A 1_555 1_555
H20A C16A 1_555 1_555
C17A N7A 1_555 1_555
H21A C17A 1_555 1_555
C18A N8A 1_555 1_555
H22A C18A 1_555 1_555
C19A N10A 1_555 1_555
H23A C19A 1_555 1_555
C20A N12A 1_555 1_555
H24A C20A 1_555 1_555
C21A N9A 1_555 1_555
C22A C21A 1_555 1_555
H25A C22A 1_555 1_555
H26A C22A 1_555 1_555
C23A N12A 1_555 1_555
C24A C23A 1_555 1_555
H27A C24A 1_555 1_555
H28A C24A 1_555 1_555
C25A C24A 1_555 1_555
H29A C25A 1_555 1_555
C26A C21A 1_555 1_555
H30A C26A 1_555 1_555
H31A C26A 1_555 1_555
C27A C21A 1_555 1_555
H32A C27A 1_555 1_555
H33A C27A 1_555 1_555
C28A C27A 1_555 1_555
H34A C28A 1_555 1_555
C29A C23A 1_555 1_555
H35A C29A 1_555 1_555
H36A C29A 1_555 1_555
C30A C25A 1_555 1_555
H37A C30A 1_555 1_555
H38A C30A 1_555 1_555
C31A N13A 1_555 1_555
H39A C31A 1_555 1_555
C32A N14A 1_555 1_555
H40A C32A 1_555 1_555
C33A N15A 1_555 1_555
C34A C33A 1_555 1_555
H41A C34A 1_555 1_555
H42A C34A 1_555 1_555
C35A N16A 1_555 1_555
C36A C35A 1_555 1_555
H43A C36A 1_555 1_555
H44A C36A 1_555 1_555
C37A C36A 1_555 1_555
H45A C37A 1_555 1_555
C38A C33A 1_555 1_555
H46A C38A 1_555 1_555
H47A C38A 1_555 1_555
C39A C33A 1_555 1_555
H48A C39A 1_555 1_555
H49A C39A 1_555 1_555
C40A C39A 1_555 1_555
H50A C40A 1_555 1_555
C41A C35A 1_555 1_555
H51A C41A 1_555 1_555
H52A C41A 1_555 1_555
C42A C37A 1_555 1_555
H53A C42A 1_555 1_555
H54A C42A 1_555 1_555
N9 C18 1_555 1_555
N14 Cd2A 1_555 1_555
N15 C32 1_555 1_555
C1 N18 1_555 1_555
C8 C9 1_555 1_555
C11 C12 1_555 1_555
C14 C15 1_555 1_555
C14 C16 1_555 1_555
C22 C23 1_555 1_555
C25 C26 1_555 1_555
C28 C29 1_555 1_555
C28 C30 1_555 1_555
C34 C35 1_555 1_555
C37 C38 1_555 1_555
C40 C41 1_555 1_555
C40 C42 1_555 1_555
N1A N2A 1_555 1_555
N3A C4A 1_555 1_555
N7A N8A 1_555 1_555
N9A C18A 1_555 1_555
N13A N14A 1_555 1_555
N15A C32A 1_555 1_555
C1A N18A 1_555 1_555
C8A C9A 1_555 1_555
C11A C12A 1_555 1_555
C14A C15A 1_555 1_555
C14A C16A 1_555 1_555
C22A C23A 1_555 1_555
C25A C26A 1_555 1_555
C28A C29A 1_555 1_555
C28A C30A 1_555 1_555
C34A C35A 1_555 1_555
C37A C38A 1_555 1_555
C40A C41A 1_555 1_555
C40A C42A 1_555 1_555

#END
