
#######################################################################
#
#                 Cambridge Crystallographic Data Centre
#                                CCDC 
#
#######################################################################
#
# If this CIF has been generated from an entry in the Cambridge 
# Structural Database, then it will include bibliographic, chemical, 
# crystal, experimental, refinement or atomic coordinate data resulting 
# from the CCDC's data processing and validation procedures.
#
#######################################################################

data_ILUGUS
_symmetry_cell_setting           monoclinic
_symmetry_space_group_name_H-M   'P 21/c'
_symmetry_Int_Tables_number      14
_space_group_name_Hall           '-P 2ybc'
loop_
_symmetry_equiv_pos_site_id
_symmetry_equiv_pos_as_xyz
1 x,y,z
2 -x,1/2+y,1/2-z
3 -x,-y,-z
4 x,1/2-y,1/2+z
_cell_length_a                   8.9767(4)
_cell_length_b                   23.9151(10)
_cell_length_c                   18.6746(9)
_cell_angle_alpha                90
_cell_angle_beta                 111.497(4)
_cell_angle_gamma                90
_cell_volume                     3730.16
loop_
_atom_site_label
_atom_site_type_symbol
_atom_site_fract_x
_atom_site_fract_y
_atom_site_fract_z
Eu1 Eu 0.44627(6) 0.80955(2) 0.40905(3)
Co1 Co 1.06306(17) 0.90215(6) 0.55650(9)
Co2 Co -0.00749(17) 0.66350(7) 0.46378(9)
C1 C 0.7559(12) 0.8475(4) 0.5633(6)
C2 C 0.6822(13) 0.8043(5) 0.5989(6)
C3 C 0.7451(13) 0.7882(5) 0.6771(7)
H1 H 0.8359 0.8055 0.7116
C4 C 0.6677(14) 0.7456(5) 0.7013(7)
C5 C 0.5255(12) 0.7235(5) 0.6492(6)
H2 H 0.4688 0.6968 0.6649
C6 C 0.4691(12) 0.7422(5) 0.5725(6)
C7 C 0.3220(12) 0.7213(5) 0.5117(6)
C8 C 0.6382(13) 0.6961(5) 0.3878(7)
C9 C 0.4827(13) 0.6931(5) 0.3164(6)
C10 C 0.4521(13) 0.6505(5) 0.2648(7)
H3 H 0.5254 0.6216 0.2718
C11 C 0.3050(13) 0.6509(5) 0.1995(6)
C12 C 0.2011(13) 0.6966(5) 0.1937(6)
H4 H 0.1030 0.6991 0.1531
C13 C 0.2488(13) 0.7375(5) 0.2497(6)
C14 C 0.1427(13) 0.7875(5) 0.2488(6)
C15 C 0.5749(12) 0.8941(5) 0.3002(6)
C16 C 0.4984(12) 0.9355(5) 0.3375(6)
C17 C 0.5154(12) 0.9925(5) 0.3331(6)
H5 H 0.5694 1.0073 0.3034
C18 C 0.4510(12) 1.0277(5) 0.3736(6)
C19 C 0.3644(12) 1.0035(5) 0.4147(6)
H6 H 0.3141 1.0255 0.4402
C20 C 0.3562(12) 0.9465(5) 0.4161(6)
C21 C 0.2765(13) 0.9149(5) 0.4633(6)
N1 N 0.5480(10) 0.7820(4) 0.5480(5)
N2 N 0.3841(10) 0.7376(4) 0.3101(5)
N3 N 0.4232(11) 0.9115(4) 0.3794(6)
O1 O 0.6845(9) 0.8556(3) 0.4926(4)
O2 O 0.8873(9) 0.8693(3) 0.6033(4)
O3 O 0.7283(9) 0.7295(4) 0.7740(4)
H7 H 0.6553 0.7218 0.7888
O4 O 0.2336(9) 0.6869(3) 0.5298(5)
O5 O 0.2909(9) 0.7413(3) 0.4439(4)
O6 O 0.6509(9) 0.7392(3) 0.4297(4)
O7 O 0.7394(9) 0.6578(3) 0.4002(5)
O8 O 0.2700(9) 0.6097(3) 0.1485(4)
O9 O 0.0196(9) 0.7967(3) 0.1896(5)
O10 O 0.1896(9) 0.8183(3) 0.3084(5)
O11 O 0.5666(8) 0.8429(3) 0.3183(4)
O12 O 0.6431(11) 0.9100(4) 0.2566(5)
O13 O 0.4669(9) 1.0827(3) 0.3753(5)
H8 H 0.5459 1.0925 0.3628
O14 O 0.2011(9) 0.9426(3) 0.4969(4)
O15 O 0.2954(8) 0.8623(3) 0.4673(4)
O16 O 1.0358(9) 0.9814(3) 0.5935(5)
H9 H 1.0467 0.9864 0.6436
H10 H 1.1166 1.0017 0.5917
O17 O 0.8736(9) 0.9187(3) 0.4495(4)
H11 H 0.8084 0.8976 0.4625
H12 H 0.8666 0.9044 0.4040
O18 O 1.0692(11) 0.8247(3) 0.5109(5)
H13 H 1.0430 0.7929 0.5260
H14 H 1.1638 0.8194 0.5095
O19 O -0.0602(9) 0.7259(3) 0.5340(4)
H15 H -0.0362 0.7184 0.5820
H16 H -0.1628 0.7302 0.5138
O20 O -0.0141(10) 0.7168(5) 0.3773(5)
H17 H 0.0425 0.7479 0.3979
H18 H -0.0039 0.7170 0.3317
O21 O 0.0437(12) 0.6007(4) 0.4016(5)
H19 H 0.1115 0.5732 0.4036
H20 H 0.0338 0.6166 0.3557
O22 O -0.0033(10) 0.6034(4) 0.5395(5)
H21 H -0.0541 0.6053 0.5716
H22 H 0.0310 0.5691 0.5449
Co1_2 Co 0.06306(17) 0.90215(6) 0.55650(9)
Co1C Co 0.06306(17) 0.59785(6) 0.05650(9)
Co2_2 Co 0.99251(17) 0.66350(7) 0.46378(9)
O7_2 O -0.2606(9) 0.6578(3) 0.4002(5)
O8C O 1.2700(9) 0.8903(3) 0.6485(4)
O14_2 O 1.2011(9) 0.9426(3) 0.4969(4)
O23 O 0.9696(10) 0.8903(4) 0.3314(5)
H23 H 0.9181 0.8756 0.2851
H24 H 1.0711 0.8821 0.3445
O24 O 0.3277(12) 0.5177(5) 0.3154(6)
H25 H 0.3187 0.4836 0.2975
H26 H 0.2581 0.5411 0.2897
O25 O 1.0226(14) 0.5764(4) 0.2536(5)
H27 H 0.9718 0.6007 0.2172
H28 H 0.9545 0.5524 0.2612
O26 O 0.2893(12) 0.5243(5) 0.4603(6)
H29 H 0.3378 0.5542 0.4838
H30 H 0.3139 0.5132 0.4217
O27 O 0.0667(12) 0.9665(5) 0.2362(6)
H31 H 0.0927 0.9575 0.2848
H32 H -0.0341 0.9799 0.2206
O28 O 0.8390(12) 0.6065(4) 0.6378(6)
H33 H 0.7376 0.6038 0.6160
H34 H 0.8695 0.6303 0.6763
O29 O 0.6436(13) 0.5439(5) 0.4098(6)
H35 H 0.6919 0.5641 0.3860
H36 H 0.5469 0.5356 0.3833
O30 O 0.2599(13) 0.5535(5) 0.6427(6)
H37 H 0.2392 0.5637 0.6828
H38 H 0.2475 0.5171 0.6340
O31 O 0.5139(14) 0.9092(5) 0.0798(7)
H39 H 0.5154 0.8740 0.0653
H40 H 0.4280 0.9143 0.0916
loop_
_geom_bond_atom_site_label_1
_geom_bond_atom_site_label_2
_geom_bond_site_symmetry_1
_geom_bond_site_symmetry_2
Eu1 N1 1_555 1_555
Co1 O2 1_555 1_555
Co2 O4 1_555 1_555
C1 C2 1_555 1_555
C2 C3 1_555 1_555
C3 H1 1_555 1_555
C4 C3 1_555 1_555
C5 C4 1_555 1_555
H2 C5 1_555 1_555
C6 C5 1_555 1_555
C7 C6 1_555 1_555
C8 C9 1_555 1_555
C9 C10 1_555 1_555
C10 H3 1_555 1_555
C11 C10 1_555 1_555
C12 C11 1_555 1_555
H4 C12 1_555 1_555
C13 C12 1_555 1_555
C14 C13 1_555 1_555
C15 C16 1_555 1_555
C16 C17 1_555 1_555
C17 H5 1_555 1_555
C18 C17 1_555 1_555
C19 C18 1_555 1_555
H6 C19 1_555 1_555
C20 C19 1_555 1_555
C21 C20 1_555 1_555
N1 C2 1_555 1_555
N2 Eu1 1_555 1_555
N3 Eu1 1_555 1_555
O1 Eu1 1_555 1_555
O2 C1 1_555 1_555
O3 C4 1_555 1_555
H7 O3 1_555 1_555
O4 C7 1_555 1_555
O5 Eu1 1_555 1_555
O6 Eu1 1_555 1_555
O7 C8 1_555 1_555
O8 C11 1_555 1_555
O9 C14 1_555 1_555
O10 Eu1 1_555 1_555
O11 Eu1 1_555 1_555
O12 C15 1_555 1_555
O13 C18 1_555 1_555
H8 O13 1_555 1_555
O14 C21 1_555 1_555
O15 Eu1 1_555 1_555
O16 Co1 1_555 1_555
H9 O16 1_555 1_555
H10 O16 1_555 1_555
O17 Co1 1_555 1_555
H11 O17 1_555 1_555
H12 O17 1_555 1_555
O18 Co1 1_555 1_555
H13 O18 1_555 1_555
H14 O18 1_555 1_555
O19 Co2 1_555 1_555
H15 O19 1_555 1_555
H16 O19 1_555 1_555
O20 Co2 1_555 1_555
H17 O20 1_555 1_555
H18 O20 1_555 1_555
O21 Co2 1_555 1_555
H19 O21 1_555 1_555
H20 O21 1_555 1_555
O22 Co2 1_555 1_555
H21 O22 1_555 1_555
H22 O22 1_555 1_555
O23 H23 1_555 1_555
H24 O23 1_555 1_555
O24 H25 1_555 1_555
H26 O24 1_555 1_555
O25 H27 1_555 1_555
H28 O25 1_555 1_555
O26 H29 1_555 1_555
H30 O26 1_555 1_555
O27 H31 1_555 1_555
H32 O27 1_555 1_555
O28 H33 1_555 1_555
H34 O28 1_555 1_555
O29 H35 1_555 1_555
H36 O29 1_555 1_555
O30 H37 1_555 1_555
H38 O30 1_555 1_555
O31 H39 1_555 1_555
H40 O31 1_555 1_555
Co1_2 O14 1_555 1_555
Co1C O8 1_555 1_555
Co2_2 O7 1_555 1_555
O7_2 Co2 1_555 1_555
O8C Co1 1_555 1_555
O14_2 Co1 1_555 1_555
C1 O1 1_555 1_555
C6 N1 1_555 1_555
C7 O5 1_555 1_555
C8 O6 1_555 1_555
C9 N2 1_555 1_555
C13 N2 1_555 1_555
C14 O10 1_555 1_555
C15 O11 1_555 1_555
C16 N3 1_555 1_555
C20 N3 1_555 1_555
C21 O15 1_555 1_555

#END
