
#######################################################################
#
#                 Cambridge Crystallographic Data Centre
#                                CCDC 
#
#######################################################################
#
# If this CIF has been generated from an entry in the Cambridge 
# Structural Database, then it will include bibliographic, chemical, 
# crystal, experimental, refinement or atomic coordinate data resulting 
# from the CCDC's data processing and validation procedures.
#
#######################################################################

data_ILUGEC
_symmetry_cell_setting           monoclinic
_symmetry_space_group_name_H-M   'P 21/c'
_symmetry_Int_Tables_number      14
_space_group_name_Hall           '-P 2ybc'
loop_
_symmetry_equiv_pos_site_id
_symmetry_equiv_pos_as_xyz
1 x,y,z
2 -x,1/2+y,1/2-z
3 -x,-y,-z
4 x,1/2-y,1/2+z
_cell_length_a                   8.939(5)
_cell_length_b                   24.460(14)
_cell_length_c                   18.213(9)
_cell_angle_alpha                90
_cell_angle_beta                 110.34(2)
_cell_angle_gamma                90
_cell_volume                     3733.93
loop_
_atom_site_label
_atom_site_type_symbol
_atom_site_fract_x
_atom_site_fract_y
_atom_site_fract_z
Dy1 Dy 0.45778(6) -0.31367(2) 0.42194(3)
Co1 Co 0.00225(18) -0.16829(7) 0.48509(9)
Co2 Co 1.07286(17) -0.40972(6) 0.57413(8)
C1 C 0.6468(14) -0.1986(5) 0.4034(6)
C2 C 0.4929(13) -0.1953(5) 0.3326(6)
C3 C 0.4601(13) -0.1508(5) 0.2816(7)
H1 H 0.5315 -0.1218 0.2902
C4 C 0.3150(12) -0.1506(4) 0.2160(6)
C5 C 0.2156(12) -0.1969(5) 0.2095(6)
H2 H 0.1183 -0.1988 0.1685
C6 C 0.2600(12) -0.2389(5) 0.2623(6)
C7 C 0.1612(12) -0.2895(5) 0.2566(6)
C8 C 0.5891(14) -0.3914(5) 0.3056(7)
C9 C 0.5100(12) -0.4345(5) 0.3392(6)
C10 C 0.5160(13) -0.4889(5) 0.3281(6)
H3 H 0.5715 -0.5021 0.2970
C11 C 0.4406(13) -0.5255(4) 0.3623(6)
C12 C 0.3588(14) -0.5045(4) 0.4081(6)
H4 H 0.3052 -0.5278 0.4309
C13 C 0.3573(12) -0.4494(4) 0.4196(6)
C14 C 0.2850(13) -0.4212(5) 0.4734(6)
C15 C 0.7665(13) -0.3521(4) 0.5794(6)
C16 C 0.6958(12) -0.3090(4) 0.6147(6)
C17 C 0.7628(13) -0.2903(5) 0.6913(6)
H5 H 0.8567 -0.3056 0.7250
C18 C 0.6864(13) -0.2475(5) 0.7174(6)
C19 C 0.5441(13) -0.2269(5) 0.6652(7)
H6 H 0.4905 -0.1992 0.6808
C20 C 0.4827(12) -0.2476(4) 0.5903(6)
C21 C 0.3314(13) -0.2272(5) 0.5276(6)
N1 N 0.3988(11) -0.2375(4) 0.3245(5)
N2 N 0.4334(10) -0.4136(4) 0.3857(5)
N3 N 0.5542(10) -0.2859(4) 0.5644(5)
O1 O 0.6561(9) -0.2413(3) 0.4457(4)
O2 O 0.7482(9) -0.1610(3) 0.4177(4)
O3 O 0.2793(9) -0.1094(3) 0.1656(4)
O4 O 0.2094(9) -0.3219(3) 0.3144(4)
O5 O 0.0383(9) -0.2970(3) 0.1964(4)
O6 O 0.5877(9) -0.3418(3) 0.3312(4)
O7 O 0.6528(12) -0.4051(4) 0.2582(5)
O8 O 0.4542(9) -0.5805(3) 0.3572(5)
H7 H 0.5405 -0.5837 0.3452
O9 O 0.3034(9) -0.3682(3) 0.4776(4)
O10 O 0.2117(8) -0.4478(3) 0.5087(4)
O11 O 0.6933(8) -0.3611(3) 0.5050(4)
O12 O 0.8992(8) -0.3737(3) 0.6206(4)
O13 O 0.7529(9) -0.2292(3) 0.7908(4)
H8 H 0.8501 -0.2279 0.8024
O14 O 0.2492(9) -0.1913(3) 0.5474(5)
O15 O 0.2952(9) -0.2488(3) 0.4605(4)
O16 O -0.0030(13) -0.1201(4) 0.5793(6)
H9 H -0.0906 -0.1062 0.5787
H10 H 0.0822 -0.1143 0.6179
O17 O 0.0537(13) -0.0977(4) 0.4356(6)
H11 H -0.0219 -0.0802 0.4024
H12 H 0.1491 -0.0863 0.4482
O18 O 0.0077(10) -0.2123(4) 0.3893(5)
H13 H -0.0775 -0.2173 0.3504
H14 H 0.0954 -0.2254 0.3888
O19 O -0.0495(9) -0.2364(3) 0.5456(4)
H15 H -0.1452 -0.2470 0.5348
H16 H 0.0259 -0.2529 0.5805
O20 O 1.0512(11) -0.3360(3) 0.5108(5)
H17 H 0.9893 -0.3108 0.5150
H18 H 1.1051 -0.3317 0.4808
O21 O 0.8735(10) -0.4398(4) 0.4775(5)
H19 H 0.7698 -0.4414 0.4532
H20 H 0.9081 -0.4710 0.5015
O22 O 1.0707(11) -0.4834(4) 0.6306(5)
H21 H 1.0115 -0.4866 0.6582
H22 H 1.1280 -0.5102 0.6266
Co1_2 Co 1.00225(18) -0.16829(7) 0.48509(9)
Co2_2 Co 0.07286(17) -0.40972(6) 0.57413(8)
Co2C Co 0.07286(17) -0.09028(6) 0.07413(8)
O2_2 O -0.2518(9) -0.1610(3) 0.4177(4)
O3C O 1.2793(9) -0.3906(3) 0.6656(4)
O10_2 O 1.2117(8) -0.4478(3) 0.5087(4)
O23 O 0.9994(18) -0.9100(7) 0.1982(12)
O24 O 0.960(4) -0.0750(10) 0.2756(10)
loop_
_geom_bond_atom_site_label_1
_geom_bond_atom_site_label_2
_geom_bond_site_symmetry_1
_geom_bond_site_symmetry_2
Dy1 N1 1_555 1_555
Co1 O14 1_555 1_555
Co2 O12 1_555 1_555
C1 C2 1_555 1_555
C2 C3 1_555 1_555
C3 H1 1_555 1_555
C4 C3 1_555 1_555
C5 C4 1_555 1_555
H2 C5 1_555 1_555
C6 C5 1_555 1_555
C7 C6 1_555 1_555
C8 C9 1_555 1_555
C9 C10 1_555 1_555
C10 H3 1_555 1_555
C11 C10 1_555 1_555
C12 C11 1_555 1_555
H4 C12 1_555 1_555
C13 C12 1_555 1_555
C14 C13 1_555 1_555
C15 C16 1_555 1_555
C16 C17 1_555 1_555
C17 H5 1_555 1_555
C18 C17 1_555 1_555
C19 C18 1_555 1_555
H6 C19 1_555 1_555
C20 C19 1_555 1_555
C21 C20 1_555 1_555
N1 C2 1_555 1_555
N2 Dy1 1_555 1_555
N3 Dy1 1_555 1_555
O1 Dy1 1_555 1_555
O2 C1 1_555 1_555
O3 C4 1_555 1_555
O4 Dy1 1_555 1_555
O5 C7 1_555 1_555
O6 Dy1 1_555 1_555
O7 C8 1_555 1_555
O8 C11 1_555 1_555
H7 O8 1_555 1_555
O9 Dy1 1_555 1_555
O10 C14 1_555 1_555
O11 Dy1 1_555 1_555
O12 C15 1_555 1_555
O13 C18 1_555 1_555
H8 O13 1_555 1_555
O14 C21 1_555 1_555
O15 Dy1 1_555 1_555
O16 Co1 1_555 1_555
H9 O16 1_555 1_555
H10 O16 1_555 1_555
O17 Co1 1_555 1_555
H11 O17 1_555 1_555
H12 O17 1_555 1_555
O18 Co1 1_555 1_555
H13 O18 1_555 1_555
H14 O18 1_555 1_555
O19 Co1 1_555 1_555
H15 O19 1_555 1_555
H16 O19 1_555 1_555
O20 Co2 1_555 1_555
H17 O20 1_555 1_555
H18 O20 1_555 1_555
O21 Co2 1_555 1_555
H19 O21 1_555 1_555
H20 O21 1_555 1_555
O22 Co2 1_555 1_555
H21 O22 1_555 1_555
H22 O22 1_555 1_555
Co1_2 O2 1_555 1_555
Co2_2 O10 1_555 1_555
Co2C O3 1_555 1_555
O2_2 Co1 1_555 1_555
O3C Co2 1_555 1_555
O10_2 Co2 1_555 1_555
C1 O1 1_555 1_555
C6 N1 1_555 1_555
C7 O4 1_555 1_555
C8 O6 1_555 1_555
C9 N2 1_555 1_555
C13 N2 1_555 1_555
C14 O9 1_555 1_555
C15 O11 1_555 1_555
C16 N3 1_555 1_555
C20 N3 1_555 1_555
C21 O15 1_555 1_555

#END
