
#######################################################################
#
#                 Cambridge Crystallographic Data Centre
#                                CCDC 
#
#######################################################################
#
# If this CIF has been generated from an entry in the Cambridge 
# Structural Database, then it will include bibliographic, chemical, 
# crystal, experimental, refinement or atomic coordinate data resulting 
# from the CCDC's data processing and validation procedures.
#
#######################################################################

data_ILUHED
_symmetry_cell_setting           monoclinic
_symmetry_space_group_name_H-M   'P 21/c'
_symmetry_Int_Tables_number      14
_space_group_name_Hall           '-P 2ybc'
loop_
_symmetry_equiv_pos_site_id
_symmetry_equiv_pos_as_xyz
1 x,y,z
2 -x,1/2+y,1/2-z
3 -x,-y,-z
4 x,1/2-y,1/2+z
_cell_length_a                   8.9629(18)
_cell_length_b                   24.304(5)
_cell_length_c                   18.353(5)
_cell_angle_alpha                90
_cell_angle_beta                 110.35(3)
_cell_angle_gamma                90
_cell_volume                     3748.39
loop_
_atom_site_label
_atom_site_type_symbol
_atom_site_fract_x
_atom_site_fract_y
_atom_site_fract_z
Co1 Co -0.00009(16) 0.32987(7) 0.47178(9)
Co2 Co 1.07476(15) 0.09588(6) 0.56651(8)
Ho1 Ho 0.45733(5) 0.188782(18) 0.41511(2)
C1 C 0.3267(11) 0.2748(4) 0.5173(6)
C2 C 0.4790(11) 0.2542(4) 0.5797(6)
C3 C 0.5317(11) 0.2740(5) 0.6552(6)
H1 H 0.4753 0.3007 0.6711
C4 C 0.6721(11) 0.2522(4) 0.7052(5)
C5 C 0.7518(11) 0.2107(5) 0.6805(5)
H2 H 0.8458 0.1954 0.7140
C6 C 0.6868(10) 0.1940(4) 0.6039(5)
C7 C 0.7633(10) 0.1518(4) 0.5684(5)
C8 C 0.2894(11) 0.0842(4) 0.4686(6)
C9 C 0.3621(10) 0.0557(4) 0.4191(5)
C10 C 0.3666(11) -0.0008(4) 0.4126(5)
H3 H 0.3127 -0.0232 0.4363
C11 C 0.4530(11) -0.0242(4) 0.3710(6)
C12 C 0.5221(12) 0.0120(5) 0.3304(6)
H4 H 0.5753 -0.0020 0.2990
C13 C 0.5106(11) 0.0682(4) 0.3399(5)
C14 C 0.5836(13) 0.1095(5) 0.3025(6)
C15 C 0.1591(11) 0.2117(4) 0.2542(5)
C16 C 0.2604(10) 0.2616(4) 0.2586(6)
C17 C 0.2141(11) 0.3038(4) 0.2046(6)
H5 H 0.1160 0.3020 0.1646
C18 C 0.3127(11) 0.3484(5) 0.2100(5)
C19 C 0.4593(11) 0.3478(4) 0.2735(6)
H6 H 0.5315 0.3764 0.2798
C20 C 0.4941(12) 0.3054(4) 0.3251(6)
C21 C 0.6469(11) 0.3010(4) 0.3942(6)
N1 N 0.5526(8) 0.2155(4) 0.5540(4)
N2 N 0.4356(9) 0.0899(3) 0.3848(4)
N3 N 0.3979(8) 0.2613(3) 0.3182(4)
O1 O 0.2422(7) 0.3092(3) 0.5354(4)
O2 O 0.2992(8) 0.2540(3) 0.4502(4)
O3 O 0.7379(8) 0.2701(3) 0.7794(4)
H7 H 0.6729 0.2887 0.7907
O4 O 0.8940(7) 0.1303(3) 0.6098(4)
O5 O 0.6931(7) 0.1431(3) 0.4972(4)
O6 O 0.3065(7) 0.1367(3) 0.4717(4)
O7 O 0.2134(8) 0.0585(3) 0.5039(4)
O8 O 0.4627(8) -0.0785(3) 0.3659(4)
H8 H 0.5396 -0.0881 0.3504
O9 O 0.5792(8) 0.1588(3) 0.3249(4)
O10 O 0.6385(11) 0.0957(4) 0.2526(5)
O11 O 0.2097(7) 0.1789(3) 0.3118(4)
O12 O 0.0349(9) 0.2038(3) 0.1971(4)
O13 O 0.2793(8) 0.3905(3) 0.1603(4)
O14 O 0.6570(7) 0.2591(3) 0.4374(4)
O15 O 0.7501(8) 0.3377(3) 0.4067(4)
O16 O -0.0544(8) 0.2697(3) 0.5419(4)
H9 H -0.0161 0.2882 0.5844
H10 H -0.1563 0.2722 0.5192
O17 O -0.0022(9) 0.2755(5) 0.3864(5)
H11 H 0.0930 0.2683 0.3870
H12 H -0.0662 0.2478 0.3749
O18 O 0.0598(13) 0.3921(5) 0.4104(6)
H13 H 0.1339 0.4038 0.4509
H14 H 0.0651 0.4022 0.3660
O19 O -0.0007(13) 0.3887(4) 0.5511(7)
H15 H 0.0974 0.3967 0.5762
H16 H -0.0699 0.4043 0.5670
O20 O 1.0539(10) 0.0200(4) 0.6087(6)
H17 H 0.9851 -0.0024 0.5808
H18 H 1.1138 0.0108 0.6541
O21 O 0.8897(9) 0.0776(5) 0.4602(5)
H19 H 0.9123 0.0661 0.4215
H20 H 0.7931 0.0818 0.4563
O22 O 1.0762(12) 0.1715(4) 0.5175(6)
H21 H 1.0266 0.2040 0.5107
H22 H 1.1651 0.1739 0.5082
Co1_2 Co 0.99991(16) 0.32987(7) 0.47178(9)
Co2_2 Co 0.07476(15) 0.09588(6) 0.56651(8)
Co2C Co 0.07476(15) 0.40412(6) 0.06651(8)
O7_2 O 1.2134(8) 0.0585(3) 0.5039(4)
O13C O 1.2793(8) 0.1095(3) 0.6603(4)
O15_2 O -0.2499(8) 0.3377(3) 0.4067(4)
O23 O 0.9816(13) 0.1104(6) 0.3299(7)
O24 O 0.918(3) 0.4192(7) 0.2579(8)
O25 O 0.805(3) 0.3802(11) 0.6404(18)
loop_
_geom_bond_atom_site_label_1
_geom_bond_atom_site_label_2
_geom_bond_site_symmetry_1
_geom_bond_site_symmetry_2
Co1 O1 1_555 1_555
Co2 O4 1_555 1_555
Ho1 N1 1_555 1_555
C1 C2 1_555 1_555
C2 C3 1_555 1_555
C3 H1 1_555 1_555
C4 C3 1_555 1_555
C5 C4 1_555 1_555
H2 C5 1_555 1_555
C6 C5 1_555 1_555
C7 C6 1_555 1_555
C8 C9 1_555 1_555
C9 C10 1_555 1_555
C10 H3 1_555 1_555
C11 C10 1_555 1_555
C12 C11 1_555 1_555
H4 C12 1_555 1_555
C13 C12 1_555 1_555
C14 C13 1_555 1_555
C15 C16 1_555 1_555
C16 C17 1_555 1_555
C17 H5 1_555 1_555
C18 C17 1_555 1_555
C19 C18 1_555 1_555
H6 C19 1_555 1_555
C20 C19 1_555 1_555
C21 C20 1_555 1_555
N1 C2 1_555 1_555
N2 Ho1 1_555 1_555
N3 Ho1 1_555 1_555
O1 C1 1_555 1_555
O2 Ho1 1_555 1_555
O3 C4 1_555 1_555
H7 O3 1_555 1_555
O4 C7 1_555 1_555
O5 Ho1 1_555 1_555
O6 Ho1 1_555 1_555
O7 C8 1_555 1_555
O8 C11 1_555 1_555
H8 O8 1_555 1_555
O9 Ho1 1_555 1_555
O10 C14 1_555 1_555
O11 Ho1 1_555 1_555
O12 C15 1_555 1_555
O13 C18 1_555 1_555
O14 Ho1 1_555 1_555
O15 C21 1_555 1_555
O16 Co1 1_555 1_555
H9 O16 1_555 1_555
H10 O16 1_555 1_555
O17 Co1 1_555 1_555
H11 O17 1_555 1_555
H12 O17 1_555 1_555
O18 Co1 1_555 1_555
H13 O18 1_555 1_555
H14 O18 1_555 1_555
O19 Co1 1_555 1_555
H15 O19 1_555 1_555
H16 O19 1_555 1_555
O20 Co2 1_555 1_555
H17 O20 1_555 1_555
H18 O20 1_555 1_555
O21 Co2 1_555 1_555
H19 O21 1_555 1_555
H20 O21 1_555 1_555
O22 Co2 1_555 1_555
H21 O22 1_555 1_555
H22 O22 1_555 1_555
Co1_2 O15 1_555 1_555
Co2_2 O7 1_555 1_555
Co2C O13 1_555 1_555
O7_2 Co2 1_555 1_555
O13C Co2 1_555 1_555
O15_2 Co1 1_555 1_555
C1 O2 1_555 1_555
C6 N1 1_555 1_555
C7 O5 1_555 1_555
C8 O6 1_555 1_555
C9 N2 1_555 1_555
C13 N2 1_555 1_555
C14 O9 1_555 1_555
C15 O11 1_555 1_555
C16 N3 1_555 1_555
C20 N3 1_555 1_555
C21 O14 1_555 1_555

#END
