
#######################################################################
#
#                 Cambridge Crystallographic Data Centre
#                                CCDC 
#
#######################################################################
#
# If this CIF has been generated from an entry in the Cambridge 
# Structural Database, then it will include bibliographic, chemical, 
# crystal, experimental, refinement or atomic coordinate data resulting 
# from the CCDC's data processing and validation procedures.
#
#######################################################################

data_ILUMAD
_symmetry_cell_setting           monoclinic
_symmetry_space_group_name_H-M   'P 21/c'
_symmetry_Int_Tables_number      14
_space_group_name_Hall           '-P 2ybc'
loop_
_symmetry_equiv_pos_site_id
_symmetry_equiv_pos_as_xyz
1 x,y,z
2 -x,1/2+y,1/2-z
3 -x,-y,-z
4 x,1/2-y,1/2+z
_cell_length_a                   8.5549(5)
_cell_length_b                   12.7949(8)
_cell_length_c                   18.8553(12)
_cell_angle_alpha                90
_cell_angle_beta                 90.6640(10)
_cell_angle_gamma                90
_cell_volume                     2063.75
loop_
_atom_site_label
_atom_site_type_symbol
_atom_site_fract_x
_atom_site_fract_y
_atom_site_fract_z
Cd1 Cd 1.13379(5) 0.27201(3) -0.03800(2)
Cd2 Cd 0.67932(5) 0.26815(3) -0.02391(2)
I1 I 0.89384(5) 0.11807(3) -0.07561(2)
I2 I 1.40345(5) 0.15563(3) -0.07821(2)
C1 C 1.0619(6) 0.2905(4) 0.1246(3)
C2 C 1.0623(7) 0.2750(4) 0.1970(3)
H1 H 1.0026 0.3188 0.2251
C3 C 1.2358(7) 0.1402(4) 0.1871(3)
C4 C 1.2391(6) 0.1584(4) 0.1145(3)
H2 H 1.3057 0.1185 0.0868
C5 C 0.9499(6) 0.3665(4) 0.0894(3)
C6 C 1.3251(7) 0.0527(4) 0.2223(3)
H3 H 1.3823 0.0794 0.2624
H4 H 1.3966 0.0228 0.1891
H5 H 1.2533 -0.0001 0.2378
C7 C 0.6097(6) 0.2760(4) 0.1409(3)
C8 C 0.6137(7) 0.2591(4) 0.2128(3)
H6 H 0.5669 0.3077 0.2425
C9 C 0.7477(6) 0.1064(4) 0.1975(3)
C10 C 0.7437(6) 0.1244(4) 0.1241(3)
H7 H 0.7900 0.0760 0.0941
C11 C 0.5311(6) 0.3726(4) 0.1080(3)
C12 C 0.8205(7) 0.0099(4) 0.2287(3)
H8 H 0.8943 0.0293 0.2651
H9 H 0.8733 -0.0282 0.1922
H10 H 0.7405 -0.0333 0.2487
N1 N 1.1517(5) 0.2299(3) 0.0835(2)
N2 N 1.1453(6) 0.1995(4) 0.2278(2)
N3 N 0.6762(5) 0.2080(3) 0.0962(2)
N4 N 0.6823(5) 0.1754(3) 0.2414(2)
O1 O 0.9278(4) 0.3564(3) 0.02313(19)
O2 O 0.8874(5) 0.4309(3) 0.1286(2)
O3 O 0.5450(4) 0.3840(3) 0.04191(18)
O4 O 0.4590(5) 0.4291(3) 0.1482(2)
O5 O 1.2503(7) 0.4281(4) -0.0060(3)
H11 H 1.208(10) 0.480(5) -0.021(5)
H12 H 1.343(6) 0.432(6) -0.013(4)
O6 O 1.0667(7) 0.3599(4) -0.1351(3)
H13 H 1.090(8) 0.418(3) -0.132(3)
H14 H 1.098(8) 0.351(5) -0.173(2)
O7 O 0.6766(6) 0.3834(3) -0.1117(2)
H15 H 0.638(5) 0.439(3) -0.116(2)
H16 H 0.662(8) 0.355(4) -0.147(2)
I2_2 I 0.40345(5) 0.15563(3) -0.07821(2)
Cd2_2 Cd 1.67932(5) 0.26815(3) -0.02391(2)
loop_
_geom_bond_atom_site_label_1
_geom_bond_atom_site_label_2
_geom_bond_site_symmetry_1
_geom_bond_site_symmetry_2
Cd1 I1 1_555 1_555
Cd2 I1 1_555 1_555
I2 Cd1 1_555 1_555
C1 C2 1_555 1_555
C2 H1 1_555 1_555
C3 C4 1_555 1_555
C4 H2 1_555 1_555
C5 C1 1_555 1_555
C6 C3 1_555 1_555
H3 C6 1_555 1_555
H4 C6 1_555 1_555
H5 C6 1_555 1_555
C7 C8 1_555 1_555
C8 H6 1_555 1_555
C9 C10 1_555 1_555
C10 H7 1_555 1_555
C11 C7 1_555 1_555
C12 C9 1_555 1_555
H8 C12 1_555 1_555
H9 C12 1_555 1_555
H10 C12 1_555 1_555
N1 Cd1 1_555 1_555
N2 C2 1_555 1_555
N3 Cd2 1_555 1_555
N4 C8 1_555 1_555
O1 Cd1 1_555 1_555
O2 C5 1_555 1_555
O3 Cd2 1_555 1_555
O4 C11 1_555 1_555
O5 Cd1 1_555 1_555
H11 O5 1_555 1_555
H12 O5 1_555 1_555
O6 Cd1 1_555 1_555
H13 O6 1_555 1_555
H14 O6 1_555 1_555
O7 Cd2 1_555 1_555
H15 O7 1_555 1_555
H16 O7 1_555 1_555
I2_2 Cd2 1_555 1_555
Cd2_2 I2 1_555 1_555
Cd2 O1 1_555 1_555
C1 N1 1_555 1_555
C3 N2 1_555 1_555
C4 N1 1_555 1_555
C5 O1 1_555 1_555
C7 N3 1_555 1_555
C9 N4 1_555 1_555
C10 N3 1_555 1_555
C11 O3 1_555 1_555

#END
