
#######################################################################
#
#                 Cambridge Crystallographic Data Centre
#                                CCDC 
#
#######################################################################
#
# If this CIF has been generated from an entry in the Cambridge 
# Structural Database, then it will include bibliographic, chemical, 
# crystal, experimental, refinement or atomic coordinate data resulting 
# from the CCDC's data processing and validation procedures.
#
#######################################################################

data_ILUWUH
_symmetry_cell_setting           monoclinic
_symmetry_space_group_name_H-M   'P 21/c'
_symmetry_Int_Tables_number      14
_space_group_name_Hall           '-P 2ybc'
loop_
_symmetry_equiv_pos_site_id
_symmetry_equiv_pos_as_xyz
1 x,y,z
2 -x,1/2+y,1/2-z
3 -x,-y,-z
4 x,1/2-y,1/2+z
_cell_length_a                   11.583(2)
_cell_length_b                   5.8110(10)
_cell_length_c                   13.226(3)
_cell_angle_alpha                90
_cell_angle_beta                 99.900(9)
_cell_angle_gamma                90
_cell_volume                     876.97
loop_
_atom_site_label
_atom_site_type_symbol
_atom_site_fract_x
_atom_site_fract_y
_atom_site_fract_z
Cs1 Cs 0.396697(8) 0.276723(18) 0.566485(7)
O1 O 0.35651(11) -0.0316(2) 0.75294(10)
O2 O 0.31497(11) -0.1429(2) 0.90424(10)
O3 O 0.19835(12) -0.5051(3) 0.91696(10)
H1 H 0.243(2) -0.371(6) 0.930(2)
C1 C 0.30219(13) -0.1578(3) 0.80689(12)
C2 C 0.22174(13) -0.3393(3) 0.75497(12)
C3 C 0.19302(14) -0.3474(3) 0.64828(12)
H2 H 0.2212 -0.2303 0.6087
C4 C 0.12421(14) -0.5226(4) 0.59870(14)
H3 H 0.1059 -0.5266 0.5259
C5 C 0.08216(16) -0.6932(3) 0.65734(17)
H4 H 0.0360 -0.8151 0.6239
C6 C 0.10672(15) -0.6873(3) 0.76328(16)
H5 H 0.0766 -0.8032 0.8023
C7 C 0.17621(14) -0.5098(3) 0.81285(13)
O4 O 0.49373(14) 0.2103(3) 0.36748(12)
H6 H 0.443(3) 0.284(5) 0.329(3)
H7 H 0.536(3) 0.177(5) 0.332(2)
Cs1B Cs 0.603303(8) -0.276723(18) 0.433515(7)
Cs1B_2 Cs 0.603303(8) 0.723277(18) 0.433515(7)
O1A O 0.64349(11) 0.4684(2) 0.74706(10)
O2C O 0.31497(11) 0.6429(2) 0.40424(10)
O2A O 0.68503(11) 0.3571(2) 0.59576(10)
O3C O 0.19835(12) 0.0051(3) 0.41696(10)
O4B O 0.50627(14) -0.2103(3) 0.63252(12)
O4B_2 O 0.50627(14) 0.7897(3) 0.63252(12)
Cs1A Cs 0.603303(8) -0.223277(18) 0.933515(7)
Cs1C Cs 0.396697(8) 0.223277(18) 1.066485(7)
Cs1C_2 Cs 0.396697(8) -0.776723(18) 1.066485(7)
H1C H 0.243(2) -0.129(6) 0.430(2)
H6B H 0.557(3) -0.284(5) 0.671(3)
H7B H 0.464(3) -0.177(5) 0.668(2)
H6B_2 H 0.557(3) 0.716(5) 0.671(3)
H7B_2 H 0.464(3) 0.823(5) 0.668(2)
loop_
_geom_bond_atom_site_label_1
_geom_bond_atom_site_label_2
_geom_bond_site_symmetry_1
_geom_bond_site_symmetry_2
Cs1 O1 1_555 1_555
O1 C1 1_555 1_555
O2 C1 1_555 1_555
O3 H1 1_555 1_555
C1 C2 1_555 1_555
C2 C3 1_555 1_555
C3 H2 1_555 1_555
C4 C3 1_555 1_555
H3 C4 1_555 1_555
C5 C4 1_555 1_555
H4 C5 1_555 1_555
C6 C5 1_555 1_555
H5 C6 1_555 1_555
C7 O3 1_555 1_555
O4 Cs1 1_555 1_555
H6 O4 1_555 1_555
H7 O4 1_555 1_555
Cs1B O4 1_555 1_555
Cs1B_2 O4 1_555 1_555
O1A Cs1 1_555 1_555
O2C Cs1 1_555 1_555
O2A Cs1 1_555 1_555
O3C Cs1 1_555 1_555
O4B Cs1 1_555 1_555
O4B_2 Cs1 1_555 1_555
Cs1A O1 1_555 1_555
Cs1C O2 1_555 1_555
Cs1C_2 O3 1_555 1_555
H1C O3C 1_555 1_555
H6B O4B 1_555 1_555
H7B O4B 1_555 1_555
H6B_2 O4B_2 1_555 1_555
H7B_2 O4B_2 1_555 1_555
O2 Cs1A 1_555 1_555
C2 C7 1_555 1_555
C6 C7 1_555 1_555
Cs1B O4B 1_555 1_555
Cs1B_2 O2C 1_555 1_555
Cs1B_2 O2A 1_555 1_555
Cs1B_2 O4B_2 1_555 1_555

#END
