
#######################################################################
#
#                 Cambridge Crystallographic Data Centre
#                                CCDC 
#
#######################################################################
#
# If this CIF has been generated from an entry in the Cambridge 
# Structural Database, then it will include bibliographic, chemical, 
# crystal, experimental, refinement or atomic coordinate data resulting 
# from the CCDC's data processing and validation procedures.
#
#######################################################################

data_IMADAC
_symmetry_cell_setting           triclinic
_symmetry_space_group_name_H-M   'P -1'
_symmetry_Int_Tables_number      2
_space_group_name_Hall           '-P 1'
loop_
_symmetry_equiv_pos_site_id
_symmetry_equiv_pos_as_xyz
1 x,y,z
2 -x,-y,-z
_cell_length_a                   9.0416(9)
_cell_length_b                   9.3803(10)
_cell_length_c                   12.6479(14)
_cell_angle_alpha                75.385(2)
_cell_angle_beta                 86.376(3)
_cell_angle_gamma                80.736(3)
_cell_volume                     1024.17
loop_
_atom_site_label
_atom_site_type_symbol
_atom_site_fract_x
_atom_site_fract_y
_atom_site_fract_z
N1 N 0.41703(17) 0.67775(19) 0.25537(13)
O1 O 0.70302(16) 0.23501(17) 0.53542(11)
O2 O 0.89140(16) 0.11871(18) 0.44116(12)
C1 C 0.61579(19) 0.4752(2) 0.26412(15)
C2 C 0.8299(2) 0.2805(2) 0.25893(16)
H1 H 0.9059 0.2335 0.2210
C3 C 0.6921(2) 0.3054(2) 0.42233(15)
C4 C 0.3392(2) 0.8217(2) 0.20687(14)
C5 C 0.5260(2) 0.6138(2) 0.20395(15)
C6 C 0.4053(2) 0.9494(2) 0.20356(15)
C7 C 0.5910(2) 0.4265(2) 0.38003(15)
C8 C 0.7310(2) 0.4027(2) 0.20729(16)
H2 H 0.7408 0.4386 0.1320
C9 C 0.1149(2) 0.9769(3) 0.13197(16)
H3 H 0.0183 0.9874 0.1068
C10 C 0.1920(2) 0.8357(2) 0.17199(15)
C11 C 0.8087(2) 0.2328(2) 0.36989(16)
C12 C 0.5660(2) 0.6801(2) 0.08611(16)
H4 H 0.4978 0.7699 0.0588
H5 H 0.5592 0.6101 0.0435
H6 H 0.6664 0.7027 0.0810
C13 C 0.3215(2) 1.0879(2) 0.16530(16)
H7 H 0.3629 1.1728 0.1644
C14 C 0.5644(2) 0.9388(3) 0.24095(18)
H8 H 0.6120 0.8347 0.2529
C15 C 0.1779(2) 1.1035(3) 0.12843(17)
H9 H 0.1241 1.1977 0.1015
C16 C 0.6562(2) 1.0336(3) 0.1530(2)
H10 H 0.6565 1.0024 0.0863
H11 H 0.7573 1.0215 0.1767
H12 H 0.6125 1.1366 0.1408
C17 C 0.8253(2) 0.1195(3) 0.54643(17)
H13 H 0.7917 0.0246 0.5791
H14 H 0.8987 0.1344 0.5938
C18 C -0.0478(2) 0.7211(3) 0.1864(2)
H15 H -0.0797 0.7620 0.2478
H16 H -0.0840 0.6278 0.1957
H17 H -0.0872 0.7892 0.1207
C19 C 0.5652(3) 0.9845(3) 0.3489(2)
H18 H 0.5083 0.9233 0.4035
H19 H 0.5213 1.0871 0.3386
H20 H 0.6666 0.9717 0.3722
C20 C 0.2045(3) 0.3428(3) 0.3924(2)
H21 H 0.1125 0.3016 0.4039
H22 H 0.2854 0.2675 0.4240
H23 H 0.2237 0.3776 0.3155
O3 O 0.19233(15) 0.46405(17) 0.44283(12)
C21 C 0.1235(2) 0.6960(3) 0.17815(17)
H24 H 0.1605 0.6213 0.2439
C22 C 0.1717(3) 0.6312(3) 0.0796(2)
H25 H 0.2791 0.6142 0.0737
H26 H 0.1320 0.7001 0.0143
H27 H 0.1341 0.5386 0.0889
C23 C 0.0740(2) 0.4614(3) 0.52479(18)
Li1 Li 0.3891(4) 0.5635(4) 0.4227(3)
H28 H 0.106(3) 0.514(3) 0.578(2)
H29 H 0.055(3) 0.356(3) 0.555(2)
N1A N -0.41703(17) 0.32225(19) 0.74463(13)
O1A O 0.29698(16) 0.76499(17) 0.46458(11)
O1_2 O -0.29698(16) 0.23501(17) 0.53542(11)
O1A_2 O -0.70302(16) 0.76499(17) 0.46458(11)
O2A O -0.89140(16) 0.88129(18) 0.55884(12)
C1A C -0.61579(19) 0.5248(2) 0.73588(15)
C2A C -0.8299(2) 0.7195(2) 0.74107(16)
H1A H -0.9059 0.7665 0.7790
C3A C -0.6921(2) 0.6946(2) 0.57767(15)
C4A C -0.3392(2) 0.1783(2) 0.79313(14)
C5A C -0.5260(2) 0.3862(2) 0.79605(15)
C6A C -0.4053(2) 0.0506(2) 0.79644(15)
C7A C 0.4090(2) 0.5735(2) 0.61997(15)
C7A_2 C -0.5910(2) 0.5735(2) 0.61997(15)
C7_2 C -0.4090(2) 0.4265(2) 0.38003(15)
C8A C -0.7310(2) 0.5973(2) 0.79271(16)
H2A H -0.7408 0.5614 0.8680
C9A C -0.1149(2) 0.0231(3) 0.86803(16)
H3A H -0.0183 0.0126 0.8932
C10A C -0.1920(2) 0.1643(2) 0.82801(15)
C11A C -0.8087(2) 0.7672(2) 0.63011(16)
C12A C -0.5660(2) 0.3199(2) 0.91389(16)
H4A H -0.4978 0.2301 0.9412
H5A H -0.5592 0.3899 0.9565
H6A H -0.6664 0.2973 0.9190
C13A C -0.3215(2) -0.0879(2) 0.83470(16)
H7A H -0.3629 -0.1728 0.8356
C14A C -0.5644(2) 0.0612(3) 0.75905(18)
H8A H -0.6120 0.1653 0.7471
C15A C -0.1779(2) -0.1035(3) 0.87157(17)
H9A H -0.1241 -0.1977 0.8985
C16A C -0.6562(2) -0.0336(3) 0.8470(2)
H10A H -0.6565 -0.0024 0.9137
H11A H -0.7573 -0.0215 0.8233
H12A H -0.6125 -0.1366 0.8592
C17A C -0.8253(2) 0.8805(3) 0.45357(17)
H13A H -0.7917 0.9754 0.4209
H14A H -0.8987 0.8656 0.4062
C18A C 0.0478(2) 0.2789(3) 0.8136(2)
H15A H 0.0797 0.2380 0.7522
H16A H 0.0840 0.3722 0.8043
H17A H 0.0872 0.2108 0.8793
C19A C -0.5652(3) 0.0155(3) 0.6511(2)
H18A H -0.5083 0.0767 0.5965
H19A H -0.5213 -0.0871 0.6614
H20A H -0.6666 0.0283 0.6278
C20A C -0.2045(3) 0.6572(3) 0.6076(2)
H21A H -0.1125 0.6984 0.5961
H22A H -0.2854 0.7325 0.5760
H23A H -0.2237 0.6224 0.6845
O3A O -0.19233(15) 0.53595(17) 0.55717(12)
C21A C -0.1235(2) 0.3040(3) 0.82185(17)
H24A H -0.1605 0.3787 0.7561
C22A C -0.1717(3) 0.3688(3) 0.9204(2)
H25A H -0.2791 0.3858 0.9263
H26A H -0.1320 0.2999 0.9857
H27A H -0.1341 0.4614 0.9111
C23A C -0.0740(2) 0.5386(3) 0.47521(18)
Li1A Li 0.6109(4) 0.4365(4) 0.5773(3)
Li1A_2 Li -0.3891(4) 0.4365(4) 0.5773(3)
Li1_2 Li -0.6109(4) 0.5635(4) 0.4227(3)
H28A H -0.106(3) 0.486(3) 0.422(2)
H29A H -0.055(3) 0.644(3) 0.445(2)
loop_
_geom_bond_atom_site_label_1
_geom_bond_atom_site_label_2
_geom_bond_site_symmetry_1
_geom_bond_site_symmetry_2
N1 C4 1_555 1_555
O1 C3 1_555 1_555
O2 C11 1_555 1_555
C1 C5 1_555 1_555
C2 H1 1_555 1_555
C3 C7 1_555 1_555
C4 C6 1_555 1_555
C5 N1 1_555 1_555
C6 C13 1_555 1_555
C7 C1 1_555 1_555
C8 C1 1_555 1_555
H2 C8 1_555 1_555
C9 H3 1_555 1_555
C10 C4 1_555 1_555
C11 C2 1_555 1_555
C12 C5 1_555 1_555
H4 C12 1_555 1_555
H5 C12 1_555 1_555
H6 C12 1_555 1_555
C13 H7 1_555 1_555
C14 C6 1_555 1_555
H8 C14 1_555 1_555
C15 C9 1_555 1_555
H9 C15 1_555 1_555
C16 C14 1_555 1_555
H10 C16 1_555 1_555
H11 C16 1_555 1_555
H12 C16 1_555 1_555
C17 O1 1_555 1_555
H13 C17 1_555 1_555
H14 C17 1_555 1_555
C18 H15 1_555 1_555
H16 C18 1_555 1_555
H17 C18 1_555 1_555
C19 C14 1_555 1_555
H18 C19 1_555 1_555
H19 C19 1_555 1_555
H20 C19 1_555 1_555
C20 H21 1_555 1_555
H22 C20 1_555 1_555
H23 C20 1_555 1_555
O3 C20 1_555 1_555
C21 C10 1_555 1_555
H24 C21 1_555 1_555
C22 C21 1_555 1_555
H25 C22 1_555 1_555
H26 C22 1_555 1_555
H27 C22 1_555 1_555
C23 O3 1_555 1_555
Li1 N1 1_555 1_555
H28 C23 1_555 1_555
H29 C23 1_555 1_555
N1A C4A 1_555 1_555
O1A Li1 1_555 1_555
O1_2 Li1A_2 1_555 1_555
O1A_2 C3A 1_555 1_555
O2A C11A 1_555 1_555
C1A C5A 1_555 1_555
C2A H1A 1_555 1_555
C3A C7A_2 1_555 1_555
C4A C6A 1_555 1_555
C5A N1A 1_555 1_555
C6A C13A 1_555 1_555
C7A Li1 1_555 1_555
C7A_2 C1A 1_555 1_555
C7_2 Li1A_2 1_555 1_555
C8A C1A 1_555 1_555
H2A C8A 1_555 1_555
C9A H3A 1_555 1_555
C10A C4A 1_555 1_555
C11A C2A 1_555 1_555
C12A C5A 1_555 1_555
H4A C12A 1_555 1_555
H5A C12A 1_555 1_555
H6A C12A 1_555 1_555
C13A H7A 1_555 1_555
C14A C6A 1_555 1_555
H8A C14A 1_555 1_555
C15A C9A 1_555 1_555
H9A C15A 1_555 1_555
C16A C14A 1_555 1_555
H10A C16A 1_555 1_555
H11A C16A 1_555 1_555
H12A C16A 1_555 1_555
C17A O1A_2 1_555 1_555
H13A C17A 1_555 1_555
H14A C17A 1_555 1_555
C18A H15A 1_555 1_555
H16A C18A 1_555 1_555
H17A C18A 1_555 1_555
C19A C14A 1_555 1_555
H18A C19A 1_555 1_555
H19A C19A 1_555 1_555
H20A C19A 1_555 1_555
C20A H21A 1_555 1_555
H22A C20A 1_555 1_555
H23A C20A 1_555 1_555
O3A C20A 1_555 1_555
C21A C10A 1_555 1_555
H24A C21A 1_555 1_555
C22A C21A 1_555 1_555
H25A C22A 1_555 1_555
H26A C22A 1_555 1_555
H27A C22A 1_555 1_555
C23A C23 1_555 1_555
Li1A O1 1_555 1_555
Li1A_2 N1A 1_555 1_555
Li1_2 O1A_2 1_555 1_555
H28A C23A 1_555 1_555
H29A C23A 1_555 1_555
O2 C17 1_555 1_555
C2 C8 1_555 1_555
C3 C11 1_555 1_555
C7 Li1 1_555 1_555
C7 Li1A 1_555 1_555
C9 C10 1_555 1_555
C13 C15 1_555 1_555
C18 C21 1_555 1_555
O3 Li1 1_555 1_555
O2A C17A 1_555 1_555
C2A C8A 1_555 1_555
C3A C11A 1_555 1_555
C7A Li1A 1_555 1_555
C7A_2 Li1A_2 1_555 1_555
C7A_2 Li1_2 1_555 1_555
C7_2 Li1_2 1_555 1_555
C9A C10A 1_555 1_555
C13A C15A 1_555 1_555
C18A C21A 1_555 1_555
O3A C23A 1_555 1_555
O3A Li1A_2 1_555 1_555

#END
