
#######################################################################
#
#                 Cambridge Crystallographic Data Centre
#                                CCDC 
#
#######################################################################
#
# If this CIF has been generated from an entry in the Cambridge 
# Structural Database, then it will include bibliographic, chemical, 
# crystal, experimental, refinement or atomic coordinate data resulting 
# from the CCDC's data processing and validation procedures.
#
#######################################################################

data_IMAFEI
_symmetry_cell_setting           orthorhombic
_symmetry_space_group_name_H-M   'P n m a'
_symmetry_Int_Tables_number      62
_space_group_name_Hall           '-P 2ac 2n'
loop_
_symmetry_equiv_pos_site_id
_symmetry_equiv_pos_as_xyz
1 x,y,z
2 1/2-x,-y,1/2+z
3 -x,1/2+y,-z
4 1/2+x,1/2-y,1/2-z
5 -x,-y,-z
6 1/2+x,y,1/2-z
7 x,1/2-y,z
8 1/2-x,1/2+y,1/2+z
_cell_length_a                   23.0307(8)
_cell_length_b                   7.3474(2)
_cell_length_c                   6.3121(3)
_cell_angle_alpha                90
_cell_angle_beta                 90
_cell_angle_gamma                90
_cell_volume                     1068.11
loop_
_atom_site_label
_atom_site_type_symbol
_atom_site_fract_x
_atom_site_fract_y
_atom_site_fract_z
Co1 Co 0.32868(2) 0.7500 0.78432(8)
N1 N 0.40986(14) 0.7500 0.9493(5)
N2 N 0.45849(16) 0.7500 0.8339(6)
C1 C 0.5087(2) 0.7500 0.9359(8)
H1 H 0.5426 0.7500 0.8559
C2 C 0.5138(2) 0.7500 1.1539(9)
H2 H 0.5500 0.7500 1.2193
C3 C 0.4640(2) 0.7500 1.2694(8)
H3 H 0.4647 0.7500 1.4167
C4 C 0.4126(2) 0.7500 1.1587(7)
H4 H 0.3780 0.7500 1.2348
N3 N 0.24503(15) 0.7500 0.6060(6)
N4 N 0.20412(11) 0.4582(3) 0.4843(4)
C5 C 0.22173(11) 0.5966(4) 0.5374(4)
N5 N 0.35600(11) 0.5422(3) 0.5818(4)
N6 N 0.37547(19) 0.2500 0.4085(6)
C6 C 0.36371(12) 0.4020(4) 0.5064(4)
Co1A Co 0.17132(2) 0.2500 0.28432(8)
Co1A_2 Co 0.17132(2) 1.2500 0.28432(8)
Co1_2 Co 0.32868(2) -0.2500 0.78432(8)
N4F N 0.20412(11) 1.0418(3) 0.4843(4)
N4A N 0.29588(11) 0.5418(3) 0.9843(4)
N4G N 0.29588(11) 0.9582(3) 0.9843(4)
C5F C 0.22173(11) 0.9034(4) 0.5374(4)
N5F N 0.35600(11) -0.0422(3) 0.5818(4)
N5F_2 N 0.35600(11) 0.9578(3) 0.5818(4)
C6F C 0.36371(12) 0.0980(4) 0.5064(4)
loop_
_geom_bond_atom_site_label_1
_geom_bond_atom_site_label_2
_geom_bond_site_symmetry_1
_geom_bond_site_symmetry_2
Co1 N1 1_555 1_555
N1 N2 1_555 1_555
N2 C1 1_555 1_555
C1 H1 1_555 1_555
C2 C1 1_555 1_555
H2 C2 1_555 1_555
C3 C2 1_555 1_555
H3 C3 1_555 1_555
C4 N1 1_555 1_555
H4 C4 1_555 1_555
N3 Co1 1_555 1_555
N4 C5 1_555 1_555
C5 N3 1_555 1_555
N5 Co1 1_555 1_555
N6 C6 1_555 1_555
C6 N5 1_555 1_555
Co1A N4 1_555 1_555
Co1A_2 N4F 1_555 1_555
Co1_2 N5F 1_555 1_555
N4F C5F 1_555 1_555
N4A Co1 1_555 1_555
N4G Co1 1_555 1_555
C5F N3 1_555 1_555
N5F C6F 1_555 1_555
N5F_2 Co1 1_555 1_555
C6F N6 1_555 1_555
C3 C4 1_555 1_555

#END
