
#######################################################################
#
#                 Cambridge Crystallographic Data Centre
#                                CCDC 
#
#######################################################################
#
# If this CIF has been generated from an entry in the Cambridge 
# Structural Database, then it will include bibliographic, chemical, 
# crystal, experimental, refinement or atomic coordinate data resulting 
# from the CCDC's data processing and validation procedures.
#
#######################################################################

data_IMAFOS
_symmetry_cell_setting           orthorhombic
_symmetry_space_group_name_H-M   'P n m a'
_symmetry_Int_Tables_number      62
_space_group_name_Hall           '-P 2ac 2n'
loop_
_symmetry_equiv_pos_site_id
_symmetry_equiv_pos_as_xyz
1 x,y,z
2 1/2-x,-y,1/2+z
3 -x,1/2+y,-z
4 1/2+x,1/2-y,1/2-z
5 -x,-y,-z
6 1/2+x,y,1/2-z
7 x,1/2-y,z
8 1/2-x,1/2+y,1/2+z
_cell_length_a                   23.39830(17)
_cell_length_b                   7.5143(4)
_cell_length_c                   6.3676(4)
_cell_angle_alpha                90
_cell_angle_beta                 90
_cell_angle_gamma                90
_cell_volume                     1119.56
loop_
_atom_site_label
_atom_site_type_symbol
_atom_site_fract_x
_atom_site_fract_y
_atom_site_fract_z
Mn1 Mn 0.331175(14) 0.7500 0.78385(6)
N1 N 0.41534(8) 0.7500 0.9573(3)
N2 N 0.46389(9) 0.7500 0.8444(4)
C1 C 0.51304(12) 0.7500 0.9484(5)
H1 H 0.5474 0.7500 0.8690
C2 C 0.51738(13) 0.7500 1.1653(6)
H2 H 0.5536 0.7500 1.2326
C3 C 0.46786(14) 0.7500 1.2798(5)
H3 H 0.4682 0.7500 1.4290
C4 C 0.41703(11) 0.7500 1.1661(4)
H4 H 0.3819 0.7500 1.2411
N3 N 0.24433(9) 0.7500 0.6004(4)
N4 N 0.20268(7) 0.4622(2) 0.4917(3)
C5 C 0.22067(7) 0.5999(2) 0.5383(3)
N5 N 0.35793(7) 0.5380(2) 0.5701(3)
N6 N 0.37317(11) 0.2500 0.3953(4)
C6 C 0.36391(7) 0.3989(2) 0.4943(3)
Mn1_2 Mn 0.331175(14) -0.2500 0.78385(6)
Mn1A Mn 0.168825(14) 0.2500 0.28385(6)
Mn1A_2 Mn 0.168825(14) 1.2500 0.28385(6)
N4F N 0.20268(7) 1.0378(2) 0.4917(3)
N4A N 0.29732(7) 0.5378(2) 0.9917(3)
N4G N 0.29732(7) 0.9622(2) 0.9917(3)
C5F C 0.22067(7) 0.9001(2) 0.5383(3)
N5F N 0.35793(7) -0.0380(2) 0.5701(3)
N5F_2 N 0.35793(7) 0.9620(2) 0.5701(3)
C6F C 0.36391(7) 0.1011(2) 0.4943(3)
loop_
_geom_bond_atom_site_label_1
_geom_bond_atom_site_label_2
_geom_bond_site_symmetry_1
_geom_bond_site_symmetry_2
Mn1 N1 1_555 1_555
N1 N2 1_555 1_555
N2 C1 1_555 1_555
C1 H1 1_555 1_555
C2 C1 1_555 1_555
H2 C2 1_555 1_555
C3 C2 1_555 1_555
H3 C3 1_555 1_555
C4 N1 1_555 1_555
H4 C4 1_555 1_555
N3 Mn1 1_555 1_555
N4 C5 1_555 1_555
C5 N3 1_555 1_555
N5 Mn1 1_555 1_555
N6 C6 1_555 1_555
C6 N5 1_555 1_555
Mn1_2 N5F 1_555 1_555
Mn1A N4 1_555 1_555
Mn1A_2 N4F 1_555 1_555
N4F C5F 1_555 1_555
N4A Mn1 1_555 1_555
N4G Mn1 1_555 1_555
C5F N3 1_555 1_555
N5F C6F 1_555 1_555
N5F_2 Mn1 1_555 1_555
C6F N6 1_555 1_555
C3 C4 1_555 1_555

#END
