
#######################################################################
#
#                 Cambridge Crystallographic Data Centre
#                                CCDC 
#
#######################################################################
#
# If this CIF has been generated from an entry in the Cambridge 
# Structural Database, then it will include bibliographic, chemical, 
# crystal, experimental, refinement or atomic coordinate data resulting 
# from the CCDC's data processing and validation procedures.
#
#######################################################################

data_IMAGIN
_symmetry_cell_setting           monoclinic
_symmetry_space_group_name_H-M   'C 2/c'
_symmetry_Int_Tables_number      15
_space_group_name_Hall           '-C 2yn'
loop_
_symmetry_equiv_pos_site_id
_symmetry_equiv_pos_as_xyz
1 x,y,z
2 -x,y,1/2-z
3 1/2+x,1/2+y,z
4 1/2-x,1/2+y,1/2-z
5 -x,-y,-z
6 x,-y,1/2+z
7 1/2-x,1/2-y,-z
8 1/2+x,1/2-y,1/2+z
_cell_length_a                   21.761(7)
_cell_length_b                   17.151(6)
_cell_length_c                   10.831(3)
_cell_angle_alpha                90
_cell_angle_beta                 106.841(7)
_cell_angle_gamma                90
_cell_volume                     3869.01
loop_
_atom_site_label
_atom_site_type_symbol
_atom_site_fract_x
_atom_site_fract_y
_atom_site_fract_z
Mn1 Mn 0.2500 0.2500 0.0000
C1 C 0.1544(7) 0.0454(8) -0.5187(12)
H1 H 0.1227 0.0128 -0.5685
C2 C 0.2049(8) 0.0818(8) -0.5542(14)
H2 H 0.2090 0.0734 -0.6363
C3 C 0.2485(6) 0.1267(6) -0.4784(9)
H3 H 0.2824 0.1525 -0.4967
C4 C 0.2324(6) 0.1305(6) -0.3658(11)
C5 C 0.2644(6) 0.1708(7) -0.2443(11)
C6 C 0.3185(8) 0.2164(8) -0.2398(13)
H4 H 0.3328 0.2153 -0.3128
C7 C 0.3529(7) 0.2621(9) -0.1402(16)
C8 C 0.4139(10) 0.3001(13) -0.144(2)
C9 C 0.2926(4) 0.0945(6) 0.1594(7)
H5 H 0.2624 0.0737 0.0879
C10 C 0.3231(4) 0.0451(5) 0.2559(7)
H6 H 0.3131 -0.0078 0.2494
C11 C 0.3482(4) 0.1972(5) 0.2647(7)
H7 H 0.3578 0.2501 0.2676
C12 C 0.3811(4) 0.1516(5) 0.3667(7)
H8 H 0.4113 0.1741 0.4365
C13 C 0.3692(4) 0.0726(5) 0.3650(6)
C14 C 0.4024(3) 0.0225(5) 0.4702(6)
C15 C 0.4043(4) -0.0557(5) 0.4711(6)
H9 H 0.3816 -0.0834 0.3983
C16 C 0.4781(3) -0.0213(4) 0.6913(5)
F1 F 0.4145(5) 0.3754(6) -0.1321(10)
F2 F 0.4228(4) 0.2927(6) -0.2647(10)
F3 F 0.4646(4) 0.2757(6) -0.0644(10)
N1 N 0.3038(3) 0.1702(5) 0.1615(6)
O1 O 0.3378(3) 0.2779(4) -0.0379(6)
O2 O 0.2425(3) 0.1648(3) -0.1494(5)
S1 S 0.1678(2) 0.0760(2) -0.3617(3)
S2 S 0.44804(11) -0.10519(11) 0.60430(17)
S3 S 0.44697(11) 0.06662(12) 0.61520(16)
Mn1A Mn 0.7500 0.2500 1.5000
C1F C 0.3456(7) 0.4546(8) 0.5187(12)
H1F H 0.3773 0.4872 0.5685
C2F C 0.2951(8) 0.4182(8) 0.5542(14)
H2F H 0.2910 0.4266 0.6363
C3F C 0.2515(6) 0.3733(6) 0.4784(9)
H3F H 0.2176 0.3475 0.4967
C4F C 0.2676(6) 0.3695(6) 0.3658(11)
C5F C 0.2356(6) 0.3292(7) 0.2443(11)
C6F C 0.1815(8) 0.2836(8) 0.2398(13)
H4F H 0.1672 0.2847 0.3128
C7F C 0.1471(7) 0.2379(9) 0.1402(16)
C8F C 0.0861(10) 0.1999(13) 0.144(2)
C9A C 0.7074(4) 0.0945(6) 1.3406(7)
H5A H 0.7376 0.0737 1.4121
C10A C 0.6769(4) 0.0451(5) 1.2441(7)
H6A H 0.6869 -0.0078 1.2506
C11A C 0.6518(4) 0.1972(5) 1.2353(7)
H7A H 0.6422 0.2501 1.2324
C12A C 0.6189(4) 0.1516(5) 1.1333(7)
H8A H 0.5887 0.1741 1.0635
C13A C 0.6308(4) 0.0726(5) 1.1350(6)
C14A C 0.5976(3) 0.0225(5) 1.0298(6)
C15A C 0.5957(4) -0.0557(5) 1.0289(6)
H9A H 0.6184 -0.0834 1.1017
C16A C 0.5219(3) -0.0213(4) 0.8087(5)
F1F F 0.0855(5) 0.1246(6) 0.1321(10)
F2F F 0.0772(4) 0.2073(6) 0.2647(10)
F3F F 0.0354(4) 0.2243(6) 0.0644(10)
N1A N 0.6962(3) 0.1702(5) 1.3385(6)
N1F N 0.1962(3) 0.3298(5) -0.1615(6)
O1F O 0.1622(3) 0.2221(4) 0.0379(6)
O2F O 0.2575(3) 0.3352(3) 0.1494(5)
S1F S 0.3322(2) 0.4240(2) 0.3617(3)
S2A S 0.55196(11) -0.10519(11) 0.89570(17)
S3A S 0.55303(11) 0.06662(12) 0.88480(16)
loop_
_geom_bond_atom_site_label_1
_geom_bond_atom_site_label_2
_geom_bond_site_symmetry_1
_geom_bond_site_symmetry_2
Mn1 N1 1_555 1_555
C1 H1 1_555 1_555
C2 C1 1_555 1_555
H2 C2 1_555 1_555
C3 C2 1_555 1_555
H3 C3 1_555 1_555
C4 C3 1_555 1_555
C5 C4 1_555 1_555
C6 C5 1_555 1_555
H4 C6 1_555 1_555
C7 C6 1_555 1_555
C8 C7 1_555 1_555
C9 H5 1_555 1_555
C10 C9 1_555 1_555
H6 C10 1_555 1_555
C11 H7 1_555 1_555
C12 C11 1_555 1_555
H8 C12 1_555 1_555
C13 C10 1_555 1_555
C14 C13 1_555 1_555
C15 C14 1_555 1_555
H9 C15 1_555 1_555
C16 S2 1_555 1_555
F1 C8 1_555 1_555
F2 C8 1_555 1_555
F3 C8 1_555 1_555
N1 C9 1_555 1_555
O1 Mn1 1_555 1_555
O2 Mn1 1_555 1_555
S1 C1 1_555 1_555
S2 C15 1_555 1_555
S3 C14 1_555 1_555
Mn1A N1A 1_555 1_555
C1F H1F 1_555 1_555
C2F C1F 1_555 1_555
H2F C2F 1_555 1_555
C3F C2F 1_555 1_555
H3F C3F 1_555 1_555
C4F C3F 1_555 1_555
C5F C4F 1_555 1_555
C6F C5F 1_555 1_555
H4F C6F 1_555 1_555
C7F C6F 1_555 1_555
C8F C7F 1_555 1_555
C9A H5A 1_555 1_555
C10A C9A 1_555 1_555
H6A C10A 1_555 1_555
C11A H7A 1_555 1_555
C12A C11A 1_555 1_555
H8A C12A 1_555 1_555
C13A C10A 1_555 1_555
C14A C13A 1_555 1_555
C15A C14A 1_555 1_555
H9A C15A 1_555 1_555
C16A C16 1_555 1_555
F1F C8F 1_555 1_555
F2F C8F 1_555 1_555
F3F C8F 1_555 1_555
N1A C9A 1_555 1_555
N1F Mn1 1_555 1_555
O1F Mn1 1_555 1_555
O2F Mn1 1_555 1_555
S1F C1F 1_555 1_555
S2A C15A 1_555 1_555
S3A C14A 1_555 1_555
C4 S1 1_555 1_555
C5 O2 1_555 1_555
C7 O1 1_555 1_555
C11 N1 1_555 1_555
C12 C13 1_555 1_555
C16 S3 1_555 1_555
C4F S1F 1_555 1_555
C5F O2F 1_555 1_555
C7F O1F 1_555 1_555
C11A N1A 1_555 1_555
C12A C13A 1_555 1_555
C16A S2A 1_555 1_555
C16A S3A 1_555 1_555

#END
