
#######################################################################
#
#                 Cambridge Crystallographic Data Centre
#                                CCDC 
#
#######################################################################
#
# If this CIF has been generated from an entry in the Cambridge 
# Structural Database, then it will include bibliographic, chemical, 
# crystal, experimental, refinement or atomic coordinate data resulting 
# from the CCDC's data processing and validation procedures.
#
#######################################################################

data_IMARAP
_symmetry_cell_setting           monoclinic
_symmetry_space_group_name_H-M   'P 21/c'
_symmetry_Int_Tables_number      14
_space_group_name_Hall           '-P 2ybc'
loop_
_symmetry_equiv_pos_site_id
_symmetry_equiv_pos_as_xyz
1 x,y,z
2 x,1/2-y,1/2+z
3 -x,-y,-z
4 -x,1/2+y,1/2-z
_cell_length_a                   20.8506(9)
_cell_length_b                   22.8656(10)
_cell_length_c                   21.1403(9)
_cell_angle_alpha                90
_cell_angle_beta                 118.7087(8)
_cell_angle_gamma                90
_cell_volume                     8839.92
loop_
_atom_site_label
_atom_site_type_symbol
_atom_site_fract_x
_atom_site_fract_y
_atom_site_fract_z
Mo1 Mo 0.31929(3) 0.33967(3) 0.08763(3)
Mo2 Mo 0.02685(3) 0.30086(3) 0.10421(3)
Mo3 Mo 0.04808(3) 0.15566(3) 0.11083(3)
Mo4 Mo 0.34145(3) 0.19405(3) 0.09496(3)
Mo5 Mo 0.17055(4) 0.37921(3) 0.26151(4)
Mo6 Mo 0.36758(4) 0.12775(3) 0.26602(4)
Mo7 Mo 0.21228(4) 0.10418(3) 0.27365(4)
Mo8 Mo 0.32297(4) 0.40359(3) 0.24903(4)
Mo9 Mo 0.78110(4) 0.22685(6) 0.11142(4)
Mo10 Mo 0.60237(4) 0.26598(6) 0.09538(4)
P1 P 0.38219(10) 0.26846(10) 0.25578(10)
P2 P 0.16709(10) 0.35352(8) 0.09548(10)
P3 P 0.15385(10) 0.23861(9) 0.26949(10)
P4 P 0.20169(11) 0.14073(8) 0.10486(11)
P5 P -0.03648(10) 0.21911(8) 0.18862(10)
P6 P 0.48306(10) 0.28120(9) 0.16283(10)
P7 P 0.27142(14) 0.00843(9) 0.19710(15)
P8 P 0.72616(14) 0.18219(9) 0.23117(16)
P9 P 0.18200(13) 0.49287(9) 0.17264(15)
P10 P 0.76130(13) 0.32341(10) 0.22328(18)
O1 O 0.1233(3) 0.1621(2) 0.0773(3)
O2 O 0.2157(3) 0.3293(2) 0.0656(3)
O3 O 0.6506(3) 0.2067(3) 0.1856(4)
O4 O 0.2095(3) 0.3632(2) 0.1766(3)
O5 O 0.3124(3) 0.2639(2) 0.0424(3)
O6 O 0.1987(3) 0.2951(3) 0.2907(3)
O7 O 0.1055(3) 0.2340(2) 0.1882(3)
O8 O 0.8037(3) 0.2966(3) 0.1905(4)
O9 O 0.2438(3) 0.1381(2) 0.1870(3)
O10 O 0.0063(3) 0.2254(2) 0.0600(3)
O11 O 0.2378(3) 0.1826(2) 0.0746(3)
O12 O 0.0805(3) 0.3522(2) 0.1849(3)
O13 O 0.1159(3) 0.1132(2) 0.1922(3)
O14 O 0.3570(3) 0.3210(3) 0.2826(3)
O15 O 0.1472(3) 0.4571(2) 0.2101(4)
O16 O 0.3468(3) 0.2673(2) 0.1737(3)
O17 O 0.2210(4) 0.0287(3) 0.2272(4)
O18 O 0.3424(3) 0.1466(3) 0.0351(3)
O19 O 0.2087(3) 0.1884(3) 0.3001(3)
O20 O 0.1049(3) 0.3098(2) 0.0756(3)
O21 O -0.0364(3) 0.3443(2) 0.0425(3)
O22 O 0.3732(3) 0.1482(2) 0.1793(3)
O23 O 0.2624(3) 0.4760(2) 0.1998(4)
O24 O 0.6792(3) 0.3226(2) 0.1778(4)
O25 O 0.4467(3) 0.2216(2) 0.1325(3)
O26 O 0.1981(3) 0.0706(3) 0.3360(4)
O27 O -0.0341(3) 0.2756(2) 0.1513(3)
O28 O 0.5464(3) 0.2922(3) 0.1485(3)
O29 O -0.1119(3) 0.2088(2) 0.1801(3)
O30 O 0.3352(3) 0.3904(3) 0.1664(3)
O31 O 0.3979(4) 0.4412(4) 0.3051(4)
O32 O 0.7972(6) 0.2762(7) 0.0615(6)
O33 O -0.0128(3) 0.1653(2) 0.1618(3)
O34 O 0.2703(3) 0.3991(3) 0.3036(3)
O35 O 0.3092(3) 0.3862(2) 0.0224(3)
O36 O 0.3417(4) 0.0448(3) 0.2247(4)
O37 O 0.3635(3) 0.2140(3) 0.2855(3)
O38 O 0.3155(3) 0.1110(3) 0.3177(3)
O39 O 0.4297(3) 0.3330(2) 0.1332(3)
O40 O 0.7725(3) 0.1779(2) 0.1941(4)
O41 O 0.1493(4) 0.3981(3) 0.3256(4)
O42 O 0.7875(5) 0.3877(4) 0.2419(9)
H1 H 0.7656 0.4036 0.2607
O43 O 0.6807(4) 0.2446(6) 0.0804(4)
O44 O 0.2900(4) -0.0553(3) 0.2148(4)
H2 H 0.2523 -0.0747 0.1971
O45 O 0.5684(5) 0.3209(7) 0.0365(6)
O46 O 0.7162(6) 0.1212(3) 0.2565(8)
H3 H 0.7564 0.1061 0.2810
O47 O -0.0050(3) 0.1037(3) 0.0545(3)
O48 O 0.7677(4) 0.1607(7) 0.0597(5)
H4 H 0.8047 0.1537 0.0566
O49 O 0.5404(5) 0.2107(8) 0.0475(6)
O50 O 0.4546(4) 0.1130(3) 0.3259(4)
O51 O 0.1748(4) 0.5572(3) 0.1830(5)
H5 H 0.1940 0.5760 0.1636
C1 C 0.0234(4) 0.2294(3) 0.2837(4)
C2 C 0.5212(4) 0.2782(4) 0.2590(4)
C3 C 0.0996(4) 0.2393(3) 0.3153(4)
C4 C 0.1265(5) 0.4202(3) 0.0473(5)
C5 C 0.1321(5) 0.4761(4) 0.0780(6)
C6 C 0.4806(4) 0.2716(5) 0.2962(4)
C7 C -0.0101(5) 0.2304(4) 0.3279(5)
H6 H -0.0600 0.2230 0.3078
C8 C 0.1395(4) 0.2498(4) 0.3897(4)
H7 H 0.1897 0.2556 0.4109
C9 C 0.0954(7) 0.5225(4) 0.0300(7)
H8 H 0.0987 0.5600 0.0485
C10 C 0.5977(5) 0.2813(6) 0.2993(5)
H9 H 0.6250 0.2875 0.2757
C11 C 0.0853(6) 0.4126(4) -0.0272(5)
H10 H 0.0820 0.3757 -0.0469
C12 C 0.5169(6) 0.2659(7) 0.3713(5)
H11 H 0.4902 0.2604 0.3957
C13 C 0.1061(5) 0.2517(4) 0.4324(4)
H12 H 0.1334 0.2592 0.4815
C14 C 0.0304(5) 0.2422(4) 0.4008(5)
H13 H 0.0074 0.2438 0.4291
C15 C 0.1607(5) 0.0718(4) -0.0116(5)
H14 H 0.1455 0.1074 -0.0355
C16 C 0.2080(7) -0.0342(4) 0.0580(7)
H15 H 0.2248 -0.0700 0.0812
C17 C 0.6330(5) 0.2754(8) 0.3733(6)
H16 H 0.6839 0.2760 0.3991
C18 C 0.0493(8) 0.4592(5) -0.0721(7)
H17 H 0.0215 0.4535 -0.1215
C19 C 0.5923(6) 0.2684(9) 0.4092(6)
H18 H 0.6162 0.2655 0.4592
C20 C 0.1956(5) 0.0704(3) 0.0636(5)
C21 C 0.2209(5) 0.0167(3) 0.1001(5)
C22 C 0.1483(7) 0.0202(4) -0.0515(6)
H19 H 0.1246 0.0214 -0.1016
C23 C 0.1719(7) -0.0330(4) -0.0152(7)
H20 H 0.1629 -0.0676 -0.0412
C24 C 0.0550(8) 0.5140(5) -0.0432(7)
H21 H 0.0313 0.5455 -0.0733
C25 C 0.7867(5) 0.2880(6) 0.3061(5)
C26 C 0.7745(6) 0.2277(6) 0.3111(5)
C27 C 0.8215(6) 0.3201(10) 0.3700(8)
H22 H 0.8265 0.3598 0.3636
C28 C 0.8001(9) 0.2030(10) 0.3797(8)
H23 H 0.7954 0.1634 0.3869
C29 C 0.8374(6) 0.2478(7) 0.4436(5)
H24 H 0.8536 0.2347 0.4905
C30 C 0.8467(8) 0.3049(9) 0.4329(8)
H25 H 0.8707 0.3309 0.4709
O29_2 O 0.8881(3) 0.2088(2) 0.1801(3)
Mo9_2 Mo -0.21890(4) 0.22685(6) 0.11142(4)
C31 C 0.3651(9) 0.0025(8) 0.4146(9)
C32 C 0.4389(10) 0.0475(8) 0.5312(10)
N1 N 0.3940(7) 0.0500(6) 0.4589(7)
C33 C 0.4299(10) -0.0590(8) 0.5199(10)
C34 C 0.4586(10) -0.0108(8) 0.5626(10)
C35 C 0.3841(10) -0.0543(8) 0.4446(10)
C36 C 0.3181(11) 0.5701(10) 0.0920(11)
C37 C 0.3069(16) 0.6197(11) 0.0494(19)
N2 N 0.2653(19) 0.6158(13) -0.0256(19)
C38 C 0.2349(16) 0.5623(14) -0.0579(13)
C39 C 0.2460(11) 0.5127(9) -0.0153(10)
C40 C 0.2876(8) 0.5166(7) 0.0597(8)
C41 C 0.3028(16) -0.0271(18) -0.0897(14)
C42 C 0.3145(16) 0.0248(12) -0.041(2)
C43 C 0.3606(18) 0.0184(15) 0.0396(19)
C44 C 0.3949(18) -0.040(2) 0.0716(16)
C45 C 0.383(2) -0.0917(16) 0.023(2)
N3 N 0.337(2) -0.0853(15) -0.058(2)
C46 C -0.0450(12) 0.0463(10) -0.1573(12)
C47 C -0.0363(13) 0.1100(11) -0.1847(13)
C48 C -0.0323(16) 0.1005(13) -0.2493(16)
C49 C -0.013(2) 0.0611(19) -0.278(2)
N4 N 0.003(2) -0.0090(17) -0.239(2)
C50 C -0.0340(15) 0.0071(12) -0.1944(15)
O52 O 0.4202(5) -0.0846(4) 0.3099(5)
O53 O 0.3554(7) 0.2743(7) 0.4200(6)
O54 O 0.1035(8) -0.0824(5) -0.2349(9)
O55 O 0.4157(8) 0.1651(7) 0.4558(7)
O56 O 0.4769(7) 0.4563(6) 0.2118(8)
loop_
_geom_bond_atom_site_label_1
_geom_bond_atom_site_label_2
_geom_bond_site_symmetry_1
_geom_bond_site_symmetry_2
Mo1 O2 1_555 1_555
Mo2 O7 1_555 1_555
Mo3 O1 1_555 1_555
Mo4 O5 1_555 1_555
Mo5 O4 1_555 1_555
Mo6 O9 1_555 1_555
Mo7 O9 1_555 1_555
Mo8 O4 1_555 1_555
Mo9 O8 1_555 1_555
Mo10 O3 1_555 1_555
P1 O14 1_555 1_555
P2 O2 1_555 1_555
P3 O6 1_555 1_555
P4 O1 1_555 1_555
P5 O27 1_555 1_555
P6 O25 1_555 1_555
P7 O17 1_555 1_555
P8 O3 1_555 1_555
P9 O15 1_555 1_555
P10 O8 1_555 1_555
O4 P2 1_555 1_555
O5 Mo1 1_555 1_555
O6 Mo5 1_555 1_555
O7 Mo3 1_555 1_555
O9 P4 1_555 1_555
O10 Mo2 1_555 1_555
O11 Mo4 1_555 1_555
O12 Mo2 1_555 1_555
O13 Mo3 1_555 1_555
O14 Mo8 1_555 1_555
O15 Mo5 1_555 1_555
O16 Mo1 1_555 1_555
O17 Mo7 1_555 1_555
O18 Mo4 1_555 1_555
O19 Mo7 1_555 1_555
O20 Mo2 1_555 1_555
O21 Mo2 1_555 1_555
O22 Mo4 1_555 1_555
O23 Mo8 1_555 1_555
O24 Mo10 1_555 1_555
O25 Mo4 1_555 1_555
O26 Mo7 1_555 1_555
O27 Mo2 1_555 1_555
O28 Mo10 1_555 1_555
O29 P5 1_555 1_555
O30 Mo1 1_555 1_555
O31 Mo8 1_555 1_555
O32 Mo9 1_555 1_555
O33 Mo3 1_555 1_555
O34 Mo5 1_555 1_555
O35 Mo1 1_555 1_555
O36 Mo6 1_555 1_555
O37 Mo6 1_555 1_555
O38 Mo6 1_555 1_555
O39 Mo1 1_555 1_555
O40 Mo9 1_555 1_555
O41 Mo5 1_555 1_555
O42 P10 1_555 1_555
H1 O42 1_555 1_555
O43 Mo9 1_555 1_555
O44 P7 1_555 1_555
H2 O44 1_555 1_555
O45 Mo10 1_555 1_555
O46 P8 1_555 1_555
H3 O46 1_555 1_555
O47 Mo3 1_555 1_555
O48 Mo9 1_555 1_555
H4 O48 1_555 1_555
O49 Mo10 1_555 1_555
O50 Mo6 1_555 1_555
O51 P9 1_555 1_555
H5 O51 1_555 1_555
C1 P5 1_555 1_555
C2 P6 1_555 1_555
C3 P3 1_555 1_555
C4 P2 1_555 1_555
C5 P9 1_555 1_555
C6 P1 1_555 1_555
C7 C1 1_555 1_555
H6 C7 1_555 1_555
C8 C3 1_555 1_555
H7 C8 1_555 1_555
C9 C5 1_555 1_555
H8 C9 1_555 1_555
C10 C2 1_555 1_555
H9 C10 1_555 1_555
C11 C4 1_555 1_555
H10 C11 1_555 1_555
C12 C6 1_555 1_555
H11 C12 1_555 1_555
C13 C8 1_555 1_555
H12 C13 1_555 1_555
C14 C7 1_555 1_555
H13 C14 1_555 1_555
C15 H14 1_555 1_555
C16 H15 1_555 1_555
C17 C10 1_555 1_555
H16 C17 1_555 1_555
C18 C11 1_555 1_555
H17 C18 1_555 1_555
C19 C12 1_555 1_555
H18 C19 1_555 1_555
C20 P4 1_555 1_555
C21 P7 1_555 1_555
C22 C15 1_555 1_555
H19 C22 1_555 1_555
C23 C16 1_555 1_555
H20 C23 1_555 1_555
C24 C9 1_555 1_555
H21 C24 1_555 1_555
C25 P10 1_555 1_555
C26 P8 1_555 1_555
C27 C25 1_555 1_555
H22 C27 1_555 1_555
C28 C26 1_555 1_555
H23 C28 1_555 1_555
C29 C28 1_555 1_555
H24 C29 1_555 1_555
C30 C27 1_555 1_555
H25 C30 1_555 1_555
C31 N1 1_555 1_555
C32 N1 1_555 1_555
C33 C34 1_555 1_555
C34 C32 1_555 1_555
C35 C31 1_555 1_555
C36 C37 1_555 1_555
C37 N2 1_555 1_555
N2 C38 1_555 1_555
C38 C39 1_555 1_555
C39 C40 1_555 1_555
C40 C36 1_555 1_555
C41 C42 1_555 1_555
C42 C43 1_555 1_555
C43 C44 1_555 1_555
C44 C45 1_555 1_555
C45 N3 1_555 1_555
N3 C41 1_555 1_555
C46 C47 1_555 1_555
C47 C48 1_555 1_555
C48 C49 1_555 1_555
C49 N4 1_555 1_555
N4 C50 1_555 1_555
C50 C46 1_555 1_555
O29_2 Mo9 1_555 1_555
Mo9_2 O29 1_555 1_555
Mo3 O10 1_555 1_555
Mo4 O16 1_555 1_555
Mo5 O12 1_555 1_555
Mo6 O22 1_555 1_555
Mo7 O38 1_555 1_555
Mo7 O13 1_555 1_555
Mo8 O30 1_555 1_555
Mo8 O34 1_555 1_555
Mo10 O43 1_555 1_555
P1 O16 1_555 1_555
P1 O37 1_555 1_555
P2 O20 1_555 1_555
P3 O7 1_555 1_555
P3 O19 1_555 1_555
P4 O11 1_555 1_555
P5 O33 1_555 1_555
P6 O28 1_555 1_555
P6 O39 1_555 1_555
P7 O36 1_555 1_555
P8 O40 1_555 1_555
P9 O23 1_555 1_555
P10 O24 1_555 1_555
C1 C3 1_555 1_555
C2 C6 1_555 1_555
C4 C5 1_555 1_555
C13 C14 1_555 1_555
C15 C20 1_555 1_555
C16 C21 1_555 1_555
C17 C19 1_555 1_555
C18 C24 1_555 1_555
C20 C21 1_555 1_555
C22 C23 1_555 1_555
C25 C26 1_555 1_555
C29 C30 1_555 1_555
C33 C35 1_555 1_555

#END
