
#######################################################################
#
#                 Cambridge Crystallographic Data Centre
#                                CCDC 
#
#######################################################################
#
# If this CIF has been generated from an entry in the Cambridge 
# Structural Database, then it will include bibliographic, chemical, 
# crystal, experimental, refinement or atomic coordinate data resulting 
# from the CCDC's data processing and validation procedures.
#
#######################################################################

data_IMASUL
_symmetry_cell_setting           monoclinic
_symmetry_space_group_name_H-M   'C 2/c'
_symmetry_Int_Tables_number      15
_space_group_name_Hall           '-C 2yn'
loop_
_symmetry_equiv_pos_site_id
_symmetry_equiv_pos_as_xyz
1 x,y,z
2 1/2+x,1/2+y,z
3 -x,y,1/2-z
4 1/2-x,1/2+y,1/2-z
5 -x,-y,-z
6 1/2-x,1/2-y,-z
7 x,-y,1/2+z
8 1/2+x,1/2-y,1/2+z
_cell_length_a                   14.474(3)
_cell_length_b                   6.9490(12)
_cell_length_c                   17.450(3)
_cell_angle_alpha                90
_cell_angle_beta                 96.255(4)
_cell_angle_gamma                90
_cell_volume                     1744.67
loop_
_atom_site_label
_atom_site_type_symbol
_atom_site_fract_x
_atom_site_fract_y
_atom_site_fract_z
S1 S 0.61252(6) 1.03735(15) 0.22940(6)
Cu1 Cu 0.5000 1.28604(11) 0.2500
Cu2 Cu 0.94203(4) 0.83829(8) 0.50882(3)
N1 N 0.8230(2) 0.9053(5) 0.4360(2)
N2 N 0.4691(3) 1.4059(5) 0.1499(2)
C1 C 0.7691(3) 0.7674(6) 0.4032(2)
H1 H 0.7774 0.6429 0.4222
C2 C 0.7015(3) 0.7977(6) 0.3426(2)
H2 H 0.6657 0.6957 0.3214
C3 C 0.6875(2) 0.9819(6) 0.3137(2)
C4 C 0.7405(3) 1.1289(6) 0.3491(3)
H3 H 0.7315 1.2555 0.3326
C5 C 0.8066(3) 1.0852(7) 0.4090(3)
H4 H 0.8421 1.1852 0.4322
C6 C 0.5338(3) 0.8349(5) 0.2200(2)
H5 H 0.4993 0.8374 0.1691
H6 H 0.5696 0.7167 0.2244
C7 C 0.4594(3) 1.4822(6) 0.0931(2)
C8 C 0.9863(3) 0.5678(6) 0.5013(2)
N3 N 1.0137(3) 0.4322(6) 0.4987(2)
S1B S 0.38748(6) 1.03735(15) 0.27060(6)
Cu2B Cu 0.05797(4) 0.83829(8) -0.00882(3)
Cu2G Cu 0.44203(4) 1.66171(8) 0.00882(3)
Cu2D Cu 1.05797(4) 0.16171(8) 0.49118(3)
Cu2E Cu 0.55797(4) 1.66171(8) 0.49118(3)
Cu2F Cu -0.05797(4) 0.16171(8) 0.00882(3)
N1B N 0.1770(2) 0.9053(5) 0.0640(2)
N2B N 0.5309(3) 1.4059(5) 0.3501(2)
C1B C 0.2309(3) 0.7674(6) 0.0968(2)
H1B H 0.2226 0.6429 0.0778
C2B C 0.2985(3) 0.7977(6) 0.1574(2)
H2B H 0.3343 0.6957 0.1786
C3B C 0.3125(2) 0.9819(6) 0.1863(2)
C4B C 0.2595(3) 1.1289(6) 0.1509(3)
H3B H 0.2685 1.2555 0.1674
C5B C 0.1934(3) 1.0852(7) 0.0910(3)
H4B H 0.1579 1.1852 0.0678
C6B C 0.4662(3) 0.8349(5) 0.2800(2)
H5B H 0.5007 0.8374 0.3309
H6B H 0.4304 0.7167 0.2756
C7B C 0.5406(3) 1.4822(6) 0.4069(2)
C7G C 0.9594(3) 1.0178(6) 0.5931(2)
C7E C 0.0406(3) 1.0178(6) -0.0931(2)
C8B C 0.0137(3) 0.5678(6) -0.0013(2)
N3B N -0.0137(3) 0.4322(6) 0.0013(2)
loop_
_geom_bond_atom_site_label_1
_geom_bond_atom_site_label_2
_geom_bond_site_symmetry_1
_geom_bond_site_symmetry_2
S1 Cu1 1_555 1_555
Cu1 N2 1_555 1_555
Cu2 N1 1_555 1_555
N1 C1 1_555 1_555
N2 C7 1_555 1_555
C1 H1 1_555 1_555
C2 C1 1_555 1_555
H2 C2 1_555 1_555
C3 S1 1_555 1_555
C4 C3 1_555 1_555
H3 C4 1_555 1_555
C5 N1 1_555 1_555
H4 C5 1_555 1_555
C6 S1 1_555 1_555
H5 C6 1_555 1_555
H6 C6 1_555 1_555
C7 Cu2G 1_555 1_555
C8 Cu2 1_555 1_555
N3 C8 1_555 1_555
S1B Cu1 1_555 1_555
Cu2B N1B 1_555 1_555
Cu2D N3 1_555 1_555
Cu2E C7B 1_555 1_555
Cu2F N3B 1_555 1_555
N1B C1B 1_555 1_555
N2B Cu1 1_555 1_555
C1B H1B 1_555 1_555
C2B C1B 1_555 1_555
H2B C2B 1_555 1_555
C3B S1B 1_555 1_555
C4B C3B 1_555 1_555
H3B C4B 1_555 1_555
C5B N1B 1_555 1_555
H4B C5B 1_555 1_555
C6B C6 1_555 1_555
H5B C6B 1_555 1_555
H6B C6B 1_555 1_555
C7B N2B 1_555 1_555
C7G Cu2 1_555 1_555
C7E Cu2B 1_555 1_555
C8B Cu2B 1_555 1_555
N3B C8B 1_555 1_555
C2 C3 1_555 1_555
C4 C5 1_555 1_555
S1B C6B 1_555 1_555
C2B C3B 1_555 1_555
C4B C5B 1_555 1_555

#END
