
#######################################################################
#
#                 Cambridge Crystallographic Data Centre
#                                CCDC 
#
#######################################################################
#
# If this CIF has been generated from an entry in the Cambridge 
# Structural Database, then it will include bibliographic, chemical, 
# crystal, experimental, refinement or atomic coordinate data resulting 
# from the CCDC's data processing and validation procedures.
#
#######################################################################

data_IMATAS
_symmetry_cell_setting           monoclinic
_symmetry_space_group_name_H-M   'P 21/c'
_symmetry_Int_Tables_number      14
_space_group_name_Hall           '-P 2ybc'
loop_
_symmetry_equiv_pos_site_id
_symmetry_equiv_pos_as_xyz
1 x,y,z
2 -x,1/2+y,1/2-z
3 -x,-y,-z
4 x,1/2-y,1/2+z
_cell_length_a                   9.579(1)
_cell_length_b                   21.462(2)
_cell_length_c                   15.801(1)
_cell_angle_alpha                90
_cell_angle_beta                 102.339(6)
_cell_angle_gamma                90
_cell_volume                     3173.4
loop_
_atom_site_label
_atom_site_type_symbol
_atom_site_fract_x
_atom_site_fract_y
_atom_site_fract_z
Hg1 Hg 0.04828(5) 0.53971(2) 0.49834(3)
Cl1 Cl 0.26827(19) 0.59066(9) 0.55811(13)
Cl2 Cl -0.1301(3) 0.62612(19) 0.4503(2)
Cl4 Cl 0.0479(4) 0.4981(2) 0.3525(3)
Hg1B Hg -0.04828(5) 0.46029(2) 0.50166(3)
Hg3 Hg 0.472061(17) 0.730515(8) 0.636008(11)
Cl6 Cl 0.24427(10) 0.77868(4) 0.55782(6)
Cl7 Cl 0.63695(10) 0.81597(4) 0.70332(6)
Cl8 Cl 0.45771(11) 0.66602(5) 0.76373(7)
Cl9 Cl 0.5609(2) 0.66911(7) 0.52896(9)
O7 O 0.05868(7) 0.25153(3) 0.07299(17)
H18 H -0.01286(9) 0.28053(4) 0.0529(2)
O8 O 0.33183(9) 0.22069(3) 0.57204(7)
H19 H 0.39235(12) 0.19155(4) 0.60465(10)
Nd1 Nd 0.226532(14) 0.013670(7) 0.494735(9)
O1 O 0.0397(2) -0.05365(10) 0.42532(14)
O2 O 0.1827(2) 0.08900(10) 0.60477(13)
O3 O 0.1742(2) -0.05057(10) 0.61060(13)
O4 O 0.0539(2) 0.07867(10) 0.39789(14)
O5 O 0.4555(2) 0.01830(10) 0.59350(13)
O6 O 0.3176(2) 0.00993(10) 0.36163(13)
C1 C -0.1317(4) -0.1577(2) 0.2528(2)
H1 H -0.2218 -0.1618 0.2654
N1 N -0.1005(5) -0.1884(3) 0.1828(3)
H2 H -0.1622 -0.2133 0.1526
C2 C 0.0275(4) -0.1795(2) 0.1615(3)
H3 H 0.0490 -0.1992 0.1134
C3 C 0.1200(3) -0.14305(19) 0.2096(2)
H4 H 0.2064 -0.1362 0.1933
C4 C 0.0985(4) -0.1145(2) 0.2816(3)
H5 H 0.1707 -0.0909 0.3155
C5 C -0.0303(3) -0.12082(14) 0.30420(19)
C6 C 0.0276(4) -0.14595(17) 0.7556(2)
H6 H -0.0690 -0.1365 0.7382
N2 N 0.0753(4) -0.18287(16) 0.82490(19)
H7 H 0.0139 -0.1974 0.8523
C7 C 0.2117(5) -0.1980(2) 0.8532(3)
H8 H 0.2393 -0.2228 0.9022
C8 C 0.3104(4) -0.17684(18) 0.8099(2)
H9 H 0.4060 -0.1879 0.8280
C9 C 0.2679(3) -0.13898(14) 0.7390(2)
H10 H 0.3351 -0.1242 0.7093
C10 C 0.1254(3) -0.12273(13) 0.71160(18)
C11 C 0.6328(4) -0.04260(16) 0.7993(2)
H11 H 0.7183 -0.0558 0.7864
N3 N 0.6018(4) -0.05616(16) 0.8772(2)
H12 H 0.6618 -0.0778 0.9139
C12 C 0.4816(5) -0.0370(2) 0.8989(2)
H13 H 0.4621 -0.0482 0.9521
C13 C 0.3897(4) -0.00197(19) 0.8439(2)
H14 H 0.3085 0.0133 0.8602
C14 C 0.4134(3) 0.01163(16) 0.7648(2)
H15 H 0.3468 0.0352 0.7265
C15 C 0.5358(3) -0.00911(14) 0.73978(18)
C16 C -0.0579(3) -0.08587(13) 0.38173(18)
C17 C 0.0764(3) -0.08061(13) 0.63417(18)
C18 C 0.5593(3) 0.00087(13) 0.65042(18)
O9 O 0.3514(2) 0.11611(10) 0.47475(14)
H16 H 0.3338 0.1420 0.5091
O10 O 0.3401(2) -0.09178(10) 0.48565(16)
H17 H 0.4099 -0.0879 0.4637
Nd1B Nd -0.226532(14) -0.013670(7) 0.505265(9)
O2B O -0.1827(2) -0.08900(10) 0.39523(13)
O4B O -0.0539(2) -0.07867(10) 0.60211(14)
O6B O 0.6824(2) -0.00993(10) 0.63837(13)
C16B C 0.0579(3) 0.08587(13) 0.61827(18)
C17B C -0.0764(3) 0.08061(13) 0.36583(18)
C18B C 0.4407(3) -0.00087(13) 0.34958(18)
Hg2? Hg 0.06747(18) 0.50723(9) 0.50232(12)
Cl3? Cl -0.1464(12) 0.5732(5) 0.5363(7)
Cl5? Cl 0.0431(7) 0.5318(3) 0.4103(4)
loop_
_geom_bond_atom_site_label_1
_geom_bond_atom_site_label_2
_geom_bond_site_symmetry_1
_geom_bond_site_symmetry_2
Nd1 O1 1_555 1_555
Hg1 Cl1 1_555 1_555
Hg3 Cl6 1_555 1_555
Cl2 Hg1 1_555 1_555
Cl4 Hg1 1_555 1_555
Cl7 Hg3 1_555 1_555
Cl8 Hg3 1_555 1_555
Cl9 Hg3 1_555 1_555
O1 C16 1_555 1_555
O2 Nd1 1_555 1_555
O3 Nd1 1_555 1_555
O4 Nd1 1_555 1_555
O5 Nd1 1_555 1_555
O6 Nd1 1_555 1_555
C1 H1 1_555 1_555
N1 C1 1_555 1_555
H2 N1 1_555 1_555
C2 N1 1_555 1_555
H3 C2 1_555 1_555
C3 C2 1_555 1_555
H4 C3 1_555 1_555
C4 C3 1_555 1_555
H5 C4 1_555 1_555
C5 C1 1_555 1_555
C6 H6 1_555 1_555
N2 C6 1_555 1_555
H7 N2 1_555 1_555
C7 N2 1_555 1_555
H8 C7 1_555 1_555
C8 C7 1_555 1_555
H9 C8 1_555 1_555
C9 C8 1_555 1_555
H10 C9 1_555 1_555
C10 C6 1_555 1_555
C11 H11 1_555 1_555
N3 C11 1_555 1_555
H12 N3 1_555 1_555
C12 N3 1_555 1_555
H13 C12 1_555 1_555
C13 C12 1_555 1_555
H14 C13 1_555 1_555
C14 C13 1_555 1_555
H15 C14 1_555 1_555
C15 C11 1_555 1_555
C16 C5 1_555 1_555
C17 O3 1_555 1_555
C18 O5 1_555 1_555
O7 H18 1_555 1_555
O8 H19 1_555 1_555
O9 Nd1 1_555 1_555
H16 O9 1_555 1_555
O10 Nd1 1_555 1_555
H17 O10 1_555 1_555
Nd1B Nd1 1_555 1_555
Hg1B Hg1 1_555 1_555
O2B C16 1_555 1_555
O4B C17 1_555 1_555
O6B C18 1_555 1_555
C16B O2 1_555 1_555
C17B O4 1_555 1_555
C18B O6 1_555 1_555
C4 C5 1_555 1_555
C9 C10 1_555 1_555
C10 C17 1_555 1_555
C14 C15 1_555 1_555
C15 C18 1_555 1_555
Nd1B O2B 1_555 1_555
Nd1B O4B 1_555 1_555

#END
