
#######################################################################
#
#                 Cambridge Crystallographic Data Centre
#                                CCDC 
#
#######################################################################
#
# If this CIF has been generated from an entry in the Cambridge 
# Structural Database, then it will include bibliographic, chemical, 
# crystal, experimental, refinement or atomic coordinate data resulting 
# from the CCDC's data processing and validation procedures.
#
#######################################################################

data_IMATEV
_symmetry_cell_setting           monoclinic
_symmetry_space_group_name_H-M   'C 2/c'
_symmetry_Int_Tables_number      15
_space_group_name_Hall           '-C 2yn'
loop_
_symmetry_equiv_pos_site_id
_symmetry_equiv_pos_as_xyz
1 x,y,z
2 1/2+x,1/2+y,z
3 x,-y,1/2+z
4 1/2+x,1/2-y,1/2+z
5 -x,-y,-z
6 1/2-x,1/2-y,-z
7 -x,y,1/2-z
8 1/2-x,1/2+y,1/2-z
_cell_length_a                   14.0250(11)
_cell_length_b                   14.5901(11)
_cell_length_c                   15.6995(12)
_cell_angle_alpha                90
_cell_angle_beta                 91.809(4)
_cell_angle_gamma                90
_cell_volume                     3210.93
loop_
_atom_site_label
_atom_site_type_symbol
_atom_site_fract_x
_atom_site_fract_y
_atom_site_fract_z
Cs1 Cs 0.5000 0.626350(17) 0.2500
Cs2 Cs 0.252850(12) 0.419800(11) 0.511320(10)
Ag1 Ag 0.2500 0.7500 0.5000
N1 N 0.40165(15) 0.74559(15) 0.51614(15)
S1 S 0.45760(5) 0.64971(5) 0.50430(4)
S2 S 0.45916(5) 0.84241(5) 0.52545(4)
O1 O 0.38678(15) 0.58487(14) 0.47371(15)
O2 O 0.54058(14) 0.66024(15) 0.45270(14)
O3 O 0.38859(15) 0.90915(14) 0.54929(14)
O4 O 0.54320(15) 0.83440(15) 0.58041(14)
C1 C 0.4976(2) 0.6148(2) 0.6067(2)
H1 H 0.4426 0.6041 0.6424
H2 H 0.5381 0.6628 0.6325
H3 H 0.5345 0.5580 0.6023
C2 C 0.4955(2) 0.8699(2) 0.42258(19)
H4 H 0.5210 0.9324 0.4223
H5 H 0.4407 0.8657 0.3825
H6 H 0.5450 0.8268 0.4056
N2 N 0.73094(17) 0.39500(16) 0.19778(15)
S3 S 0.75780(5) 0.46334(5) 0.27405(4)
S4 S 0.77021(5) 0.29217(5) 0.20355(4)
O5 O 0.69397(15) 0.54064(15) 0.26704(16)
O6 O 0.76153(16) 0.41968(15) 0.35740(13)
O7 O 0.75805(18) 0.25473(15) 0.11857(14)
O8 O 0.86582(14) 0.28642(14) 0.24085(14)
C3 C 0.87413(19) 0.5041(2) 0.25494(19)
H7 H 0.8745 0.5345 0.1993
H8 H 0.9188 0.4524 0.2553
H9 H 0.8935 0.5478 0.2996
C4 C 0.6942(2) 0.2322(2) 0.2708(2)
H10 H 0.6304 0.2281 0.2438
H11 H 0.6904 0.2648 0.3252
H12 H 0.7194 0.1704 0.2809
N1F N 0.59835(15) 0.74559(15) -0.01614(15)
S1F S 0.54240(5) 0.64971(5) -0.00430(4)
S2F S 0.54084(5) 0.84241(5) -0.02545(4)
O1F O 0.61322(15) 0.58487(14) 0.02629(15)
O2F O 0.45942(14) 0.66024(15) 0.04730(14)
O3F O 0.61141(15) 0.90915(14) -0.04929(14)
O4F O 0.45680(15) 0.83440(15) -0.08041(14)
C1F C 0.5024(2) 0.6148(2) -0.1067(2)
H1F H 0.5574 0.6041 -0.1424
H2F H 0.4619 0.6628 -0.1325
H3F H 0.4655 0.5580 -0.1023
C2F C 0.5045(2) 0.8699(2) 0.07742(19)
H4F H 0.4790 0.9324 0.0777
H5F H 0.5593 0.8657 0.1175
H6F H 0.4550 0.8268 0.0944
N2F N 0.26906(17) 0.39500(16) 0.30222(15)
S3F S 0.24220(5) 0.46334(5) 0.22595(4)
S4F S 0.22979(5) 0.29217(5) 0.29645(4)
O5F O 0.30603(15) 0.54064(15) 0.23296(16)
O6F O 0.23847(16) 0.41968(15) 0.14260(13)
O7F O 0.24195(18) 0.25473(15) 0.38143(14)
O8F O 0.13418(14) 0.28642(14) 0.25915(14)
C3F C 0.12587(19) 0.5041(2) 0.24506(19)
H7F H 0.1255 0.5345 0.3007
H8F H 0.0812 0.4524 0.2447
H9F H 0.1065 0.5478 0.2004
C4F C 0.3058(2) 0.2322(2) 0.2292(2)
H10F H 0.3696 0.2281 0.2562
H11F H 0.3096 0.2648 0.1748
H12F H 0.2806 0.1704 0.2191
Cs2F Cs 0.747150(12) 0.419800(11) -0.011320(10)
O8A O 0.36582(14) 0.78642(14) 0.24085(14)
O8G O 0.63418(14) 0.78642(14) 0.25915(14)
O2D O 0.45942(14) 0.33976(15) 0.54730(14)
O3E O 0.11141(15) 0.59085(14) 0.45071(14)
O4A O 0.04320(15) 0.33440(15) 0.58041(14)
O6D O 0.23847(16) 0.58032(15) 0.64260(13)
O7C O 0.25805(18) 0.24527(15) 0.61857(14)
N1E N 0.09835(15) 0.75441(15) 0.48386(15)
Cs2D Cs 0.747150(12) 0.580200(11) 0.488680(10)
Cs2E Cs 0.247150(12) 1.080200(11) 0.488680(10)
Cs2A Cs 0.752850(12) 0.919800(11) 0.511320(10)
Cs2C Cs 0.752850(12) 0.080200(11) 0.011320(10)
Cs1A Cs 1.0000 0.126350(17) 0.2500
Ag1C Ag 0.7500 0.7500 0.0000
Cs2B Cs 0.252850(12) 0.580200(11) 0.011320(10)
Cs2C_2 Cs 0.752850(12) 1.080200(11) 0.011320(10)
Cs2G Cs 0.247150(12) 0.919800(11) -0.011320(10)
Cs2E_2 Cs 0.247150(12) 0.080200(11) 0.488680(10)
Cs1A_2 Cs 0.0000 0.126350(17) 0.2500
O2B O 0.54058(14) 0.33976(15) -0.04730(14)
O3C O 0.88859(15) 0.59085(14) 0.04929(14)
O4G O 0.95680(15) 0.33440(15) -0.08041(14)
O6B O 0.76153(16) 0.58032(15) -0.14260(13)
O7E O 0.74195(18) 0.24527(15) -0.11857(14)
loop_
_geom_bond_atom_site_label_1
_geom_bond_atom_site_label_2
_geom_bond_site_symmetry_1
_geom_bond_site_symmetry_2
Cs1 O2 1_555 1_555
Cs2 O1 1_555 1_555
Ag1 N1 1_555 1_555
N1 S1 1_555 1_555
S1 O1 1_555 1_555
S2 N1 1_555 1_555
O2 S1 1_555 1_555
O3 S2 1_555 1_555
O4 S2 1_555 1_555
C1 S1 1_555 1_555
H1 C1 1_555 1_555
H2 C1 1_555 1_555
H3 C1 1_555 1_555
C2 S2 1_555 1_555
H4 C2 1_555 1_555
H5 C2 1_555 1_555
H6 C2 1_555 1_555
N2 S3 1_555 1_555
S3 O5 1_555 1_555
S4 N2 1_555 1_555
O5 Cs1 1_555 1_555
O6 S3 1_555 1_555
O7 S4 1_555 1_555
O8 S4 1_555 1_555
C3 S3 1_555 1_555
H7 C3 1_555 1_555
H8 C3 1_555 1_555
H9 C3 1_555 1_555
C4 S4 1_555 1_555
H10 C4 1_555 1_555
H11 C4 1_555 1_555
H12 C4 1_555 1_555
N1F S1F 1_555 1_555
S1F O1F 1_555 1_555
S2F N1F 1_555 1_555
O1F Cs2F 1_555 1_555
O2F Cs1 1_555 1_555
O3F S2F 1_555 1_555
O4F S2F 1_555 1_555
C1F S1F 1_555 1_555
H1F C1F 1_555 1_555
H2F C1F 1_555 1_555
H3F C1F 1_555 1_555
C2F S2F 1_555 1_555
H4F C2F 1_555 1_555
H5F C2F 1_555 1_555
H6F C2F 1_555 1_555
N2F Cs2 1_555 1_555
S3F N2F 1_555 1_555
S4F N2F 1_555 1_555
O5F Cs1 1_555 1_555
O6F S3F 1_555 1_555
O7F Cs2 1_555 1_555
O8F S4F 1_555 1_555
C3F S3F 1_555 1_555
H7F C3F 1_555 1_555
H8F C3F 1_555 1_555
H9F C3F 1_555 1_555
C4F S4F 1_555 1_555
H10F C4F 1_555 1_555
H11F C4F 1_555 1_555
H12F C4F 1_555 1_555
Cs2F N2 1_555 1_555
O8A Cs1 1_555 1_555
O8G Cs1 1_555 1_555
O2D Cs2 1_555 1_555
O3E Cs2 1_555 1_555
O4A Cs2 1_555 1_555
O6D Cs2 1_555 1_555
O7C Cs2 1_555 1_555
N1E Ag1 1_555 1_555
Cs2D O2 1_555 1_555
Cs2E O3 1_555 1_555
Cs2A O4 1_555 1_555
Cs2C O7 1_555 1_555
Cs1A O8 1_555 1_555
Ag1C N1F 1_555 1_555
Cs2B O2F 1_555 1_555
Cs2C_2 O3F 1_555 1_555
Cs2G O4F 1_555 1_555
Cs2E_2 O7F 1_555 1_555
Cs1A_2 O8F 1_555 1_555
O2B Cs2F 1_555 1_555
O3C Cs2F 1_555 1_555
O4G Cs2F 1_555 1_555
O6B Cs2F 1_555 1_555
O7E Cs2F 1_555 1_555
O6 Cs2D 1_555 1_555
O7 Cs2F 1_555 1_555
S1F O2F 1_555 1_555
S3F O5F 1_555 1_555
S4F O7F 1_555 1_555
O6F Cs2B 1_555 1_555
O7C Cs2E_2 1_555 1_555
Cs2C O7E 1_555 1_555

#END
