
#######################################################################
#
#                 Cambridge Crystallographic Data Centre
#                                CCDC 
#
#######################################################################
#
# If this CIF has been generated from an entry in the Cambridge 
# Structural Database, then it will include bibliographic, chemical, 
# crystal, experimental, refinement or atomic coordinate data resulting 
# from the CCDC's data processing and validation procedures.
#
#######################################################################

data_IMATIZ
_symmetry_cell_setting           monoclinic
_symmetry_space_group_name_H-M   'C 2/c'
_symmetry_Int_Tables_number      15
_space_group_name_Hall           '-C 2yn'
loop_
_symmetry_equiv_pos_site_id
_symmetry_equiv_pos_as_xyz
1 x,y,z
2 1/2+x,1/2+y,z
3 x,-y,1/2+z
4 1/2+x,1/2-y,1/2+z
5 -x,-y,-z
6 1/2-x,1/2-y,-z
7 -x,y,1/2-z
8 1/2-x,1/2+y,1/2-z
_cell_length_a                   19.4657(11)
_cell_length_b                   5.4335(3)
_cell_length_c                   16.2349(8)
_cell_angle_alpha                90
_cell_angle_beta                 117.252(4)
_cell_angle_gamma                90
_cell_volume                     1526.52
loop_
_atom_site_label
_atom_site_type_symbol
_atom_site_fract_x
_atom_site_fract_y
_atom_site_fract_z
Cs1 Cs 0.5000 0.33768(2) 0.7500
Ag1 Ag 0.5000 0.5000 0.5000
N1 N 0.40879(7) 0.2412(3) 0.43216(9)
S1 S 0.34392(2) 0.22878(7) 0.46913(2)
S2 S 0.39663(2) 0.11655(7) 0.33643(3)
O1 O 0.37579(7) 0.3777(2) 0.55222(8)
O2 O 0.26845(7) 0.2951(2) 0.39752(9)
O3 O 0.46667(7) 0.1709(2) 0.32907(8)
O4 O 0.37676(7) -0.1414(2) 0.33205(9)
C1 C 0.34018(10) -0.0772(3) 0.50183(12)
H1 H 0.3045 -0.0889 0.5290
H2 H 0.3919 -0.1295 0.5476
H3 H 0.3221 -0.1838 0.4472
C2 C 0.31996(9) 0.2693(3) 0.24432(11)
H4 H 0.3138 0.2026 0.1852
H5 H 0.3314 0.4456 0.2473
H6 H 0.2721 0.2444 0.2492
N1F N 0.59121(7) 0.2412(3) 1.06784(9)
S1F S 0.65608(2) 0.22878(7) 1.03087(2)
S2F S 0.60337(2) 0.11655(7) 1.16357(3)
O1F O 0.62421(7) 0.3777(2) 0.94778(8)
O2F O 0.73155(7) 0.2951(2) 1.10248(9)
O3F O 0.53333(7) 0.1709(2) 1.17093(8)
O4F O 0.62324(7) -0.1414(2) 1.16795(9)
C1F C 0.65982(10) -0.0772(3) 0.99817(12)
H1F H 0.6955 -0.0889 0.9710
H2F H 0.6081 -0.1295 0.9524
H3F H 0.6779 -0.1838 1.0528
C2F C 0.68004(9) 0.2693(3) 1.25568(11)
H4F H 0.6862 0.2026 1.3148
H5F H 0.6686 0.4456 1.2527
H6F H 0.7279 0.2444 1.2508
O3B O 0.46667(7) -0.1709(2) 0.82907(8)
O3B_2 O 0.46667(7) 0.8291(2) 0.82907(8)
O3D O 0.53333(7) -0.1709(2) 0.67093(8)
O3D_2 O 0.53333(7) 0.8291(2) 0.67093(8)
O4B O 0.37676(7) 0.1414(2) 0.83205(9)
O4D O 0.62324(7) 0.1414(2) 0.66795(9)
N1D N 0.59121(7) 0.7588(3) 0.56784(9)
Cs1B Cs 0.5000 -0.33768(2) 0.2500
Cs1B_2 Cs 0.5000 0.66232(2) 0.2500
Ag1B Ag 0.5000 0.5000 1.0000
Cs1B_3 Cs 0.5000 -0.33768(2) 1.2500
Cs1B_4 Cs 0.5000 0.66232(2) 1.2500
loop_
_geom_bond_atom_site_label_1
_geom_bond_atom_site_label_2
_geom_bond_site_symmetry_1
_geom_bond_site_symmetry_2
Cs1 O1 1_555 1_555
Ag1 N1 1_555 1_555
N1 S1 1_555 1_555
S1 O1 1_555 1_555
S2 N1 1_555 1_555
O2 S1 1_555 1_555
O3 S2 1_555 1_555
O4 S2 1_555 1_555
C1 S1 1_555 1_555
H1 C1 1_555 1_555
H2 C1 1_555 1_555
H3 C1 1_555 1_555
C2 S2 1_555 1_555
H4 C2 1_555 1_555
H5 C2 1_555 1_555
H6 C2 1_555 1_555
N1F S1F 1_555 1_555
S1F O1F 1_555 1_555
S2F N1F 1_555 1_555
O1F Cs1 1_555 1_555
O2F S1F 1_555 1_555
O3F S2F 1_555 1_555
O4F S2F 1_555 1_555
C1F S1F 1_555 1_555
H1F C1F 1_555 1_555
H2F C1F 1_555 1_555
H3F C1F 1_555 1_555
C2F S2F 1_555 1_555
H4F C2F 1_555 1_555
H5F C2F 1_555 1_555
H6F C2F 1_555 1_555
O3B Cs1 1_555 1_555
O3B_2 Cs1 1_555 1_555
O3D Cs1 1_555 1_555
O3D_2 Cs1 1_555 1_555
O4B Cs1 1_555 1_555
O4D Cs1 1_555 1_555
N1D Ag1 1_555 1_555
Cs1B O3 1_555 1_555
Cs1B_2 O3 1_555 1_555
Ag1B N1F 1_555 1_555
Cs1B_3 O3F 1_555 1_555
Cs1B_4 O3F 1_555 1_555
O4 Cs1B 1_555 1_555
O4F Cs1B_3 1_555 1_555

#END
