
#######################################################################
#
#                 Cambridge Crystallographic Data Centre
#                                CCDC 
#
#######################################################################
#
# If this CIF has been generated from an entry in the Cambridge 
# Structural Database, then it will include bibliographic, chemical, 
# crystal, experimental, refinement or atomic coordinate data resulting 
# from the CCDC's data processing and validation procedures.
#
#######################################################################

data_IMAVIB
_symmetry_cell_setting           monoclinic
_symmetry_space_group_name_H-M   'P 21/a'
_symmetry_Int_Tables_number      14
_space_group_name_Hall           '-P 2yab'
loop_
_symmetry_equiv_pos_site_id
_symmetry_equiv_pos_as_xyz
1 x,y,z
2 1/2+x,1/2-y,z
3 -x,-y,-z
4 1/2-x,1/2+y,-z
_cell_length_a                   7.7171(1)
_cell_length_b                   10.6202(2)
_cell_length_c                   11.1644(2)
_cell_angle_alpha                90
_cell_angle_beta                 104.866(1)
_cell_angle_gamma                90
_cell_volume                     884.376
loop_
_atom_site_label
_atom_site_type_symbol
_atom_site_fract_x
_atom_site_fract_y
_atom_site_fract_z
Tl1 Tl 0.326053(16) 0.362717(12) 0.382448(11)
S1 S 0.21591(10) 0.51825(8) 0.72616(7)
S2 S 0.21746(11) 0.17697(8) 0.55394(7)
O1 O 0.3873(3) 0.5784(2) 0.7772(2)
O2 O 0.0659(3) 0.6029(3) 0.6860(2)
N1 N 0.2303(4) 0.4202(3) 0.6146(3)
C1 C 0.1695(4) 0.4026(3) 0.8280(3)
C2 C 0.1442(4) 0.4149(3) 0.9454(3)
H1 H 0.1510 0.4945 0.9851
C3 C 0.1084(5) 0.3051(3) 1.0030(3)
H2 H 0.0904 0.3095 1.0839
C4 C 0.0984(4) 0.1890(3) 0.9436(3)
H3 H 0.0715 0.1158 0.9843
C5 C 0.1271(4) 0.1780(3) 0.8252(3)
H4 H 0.1228 0.0984 0.7857
C6 C 0.1623(4) 0.2875(3) 0.7675(3)
C7 C 0.2023(4) 0.3032(3) 0.6449(3)
Tl1A Tl -0.173947(16) 0.137283(12) 0.382448(11)
Tl1A_2 Tl 0.826053(16) 0.137283(12) 0.382448(11)
Tl1B Tl 0.673947(16) 0.637283(12) 0.617552(11)
S2A S 0.71746(11) 0.32303(8) 0.55394(7)
S2C S 0.28254(11) 0.67697(8) 0.44606(7)
O1B O 0.6127(3) 0.4216(2) 0.2228(2)
O1C O 0.1127(3) 0.0784(2) 0.2228(2)
O2B O -0.0659(3) 0.3971(3) 0.3140(2)
O2C O 0.4341(3) 0.1029(3) 0.3140(2)
Tl1C Tl 0.173947(16) -0.137283(12) 0.617552(11)
Tl1C_2 Tl 0.173947(16) 0.862717(12) 0.617552(11)
Tl1B_2 Tl -0.326053(16) 0.637283(12) 0.617552(11)
loop_
_geom_bond_atom_site_label_1
_geom_bond_atom_site_label_2
_geom_bond_site_symmetry_1
_geom_bond_site_symmetry_2
Tl1 S2 1_555 1_555
S1 O1 1_555 1_555
S2 C7 1_555 1_555
O1 Tl1B 1_555 1_555
O2 S1 1_555 1_555
N1 Tl1 1_555 1_555
C1 S1 1_555 1_555
C2 C1 1_555 1_555
H1 C2 1_555 1_555
C3 C2 1_555 1_555
H2 C3 1_555 1_555
C4 C3 1_555 1_555
H3 C4 1_555 1_555
C5 C4 1_555 1_555
H4 C5 1_555 1_555
C6 C1 1_555 1_555
C7 N1 1_555 1_555
Tl1A S2 1_555 1_555
Tl1A_2 S2A 1_555 1_555
Tl1B S2A 1_555 1_555
S2A Tl1 1_555 1_555
S2C Tl1 1_555 1_555
O1B Tl1 1_555 1_555
O1C Tl1 1_555 1_555
O2B Tl1 1_555 1_555
O2C Tl1 1_555 1_555
Tl1C S2 1_555 1_555
Tl1C_2 O1 1_555 1_555
Tl1B_2 O2 1_555 1_555
S1 N1 1_555 1_555
O2 Tl1C_2 1_555 1_555
C5 C6 1_555 1_555
C6 C7 1_555 1_555
Tl1A O1C 1_555 1_555
Tl1A O2B 1_555 1_555
Tl1A_2 O1B 1_555 1_555
Tl1A_2 O2C 1_555 1_555
Tl1B S2C 1_555 1_555
S2C Tl1C_2 1_555 1_555

#END
