
#######################################################################
#
#                 Cambridge Crystallographic Data Centre
#                                CCDC 
#
#######################################################################
#
# If this CIF has been generated from an entry in the Cambridge 
# Structural Database, then it will include bibliographic, chemical, 
# crystal, experimental, refinement or atomic coordinate data resulting 
# from the CCDC's data processing and validation procedures.
#
#######################################################################

data_IMAWOI
_symmetry_cell_setting           orthorhombic
_symmetry_space_group_name_H-M   'P n m a'
_symmetry_Int_Tables_number      62
_space_group_name_Hall           '-P 2ac 2n'
loop_
_symmetry_equiv_pos_site_id
_symmetry_equiv_pos_as_xyz
1 x,y,z
2 1/2-x,-y,1/2+z
3 -x,1/2+y,-z
4 1/2+x,1/2-y,1/2-z
5 -x,-y,-z
6 1/2+x,y,1/2-z
7 x,1/2-y,z
8 1/2-x,1/2+y,1/2+z
_cell_length_a                   9.6144(6)
_cell_length_b                   11.3465(7)
_cell_length_c                   11.4810(7)
_cell_angle_alpha                90
_cell_angle_beta                 90
_cell_angle_gamma                90
_cell_volume                     1252.46
loop_
_atom_site_label
_atom_site_type_symbol
_atom_site_fract_x
_atom_site_fract_y
_atom_site_fract_z
Ag1 Ag 0.13337(5) 0.2500 0.58002(4)
N1 N 0.1555(3) 0.4387(3) 0.5785(3)
C1 C 0.0314(4) 0.5130(4) 0.5590(3)
H1 H 0.056(5) 0.593(5) 0.565(4)
H2 H -0.033(5) 0.496(5) 0.620(4)
H3 H 0.211(5) 0.454(4) 0.527(4)
H4 H 0.185(6) 0.456(5) 0.647(4)
C1D C -0.0314(4) 0.4870(4) 0.4410(3)
N1D N -0.1555(3) 0.5613(3) 0.4215(3)
H3D H -0.211(5) 0.546(4) 0.473(4)
H4D H -0.185(6) 0.544(5) 0.353(4)
H1D H -0.056(5) 0.407(5) 0.435(4)
H2D H 0.033(5) 0.504(5) 0.380(4)
N1F N 0.1555(3) 0.0613(3) 0.5785(3)
Ag1D Ag -0.13337(5) 0.7500 0.41998(4)
H3F H 0.211(5) 0.046(4) 0.527(4)
H4F H 0.185(6) 0.044(5) 0.647(4)
Ag2 Ag 0.46338(5) 0.2500 0.65146(4)
O1 O 0.4491(3) 0.4410(2) 0.6418(3)
O2 O 0.6806(3) 0.4447(3) 0.6432(3)
C2 C 0.6803(4) 0.6891(3) 0.6737(3)
C3 C 0.5617(3) 0.6267(3) 0.6420(3)
C4 C 0.4418(3) 0.6894(3) 0.6107(3)
C5 C 0.5649(4) 0.4939(3) 0.6418(3)
H5 H 0.767(5) 0.641(4) 0.697(4)
H6 H 0.360(5) 0.643(4) 0.588(4)
C2F C 0.6803(4) 0.8109(3) 0.6737(3)
C3F C 0.5617(3) 0.8733(3) 0.6420(3)
C4F C 0.4418(3) 0.8106(3) 0.6107(3)
H6F H 0.360(5) 0.857(4) 0.588(4)
C5F C 0.5649(4) 1.0061(3) 0.6418(3)
O1F O 0.4491(3) 1.0590(2) 0.6418(3)
O2F O 0.6806(3) 1.0553(3) 0.6432(3)
H5F H 0.767(5) 0.859(4) 0.697(4)
O1F_2 O 0.4491(3) 0.0590(2) 0.6418(3)
Ag2_2 Ag 0.46338(5) 1.2500 0.65146(4)
O3 O 0.3510(5) 0.2500 0.8692(6)
H7 H 0.308(7) 0.305(6) 0.863(5)
H7F H 0.308(7) 0.195(6) 0.863(5)
loop_
_geom_bond_atom_site_label_1
_geom_bond_atom_site_label_2
_geom_bond_site_symmetry_1
_geom_bond_site_symmetry_2
Ag1 N1 1_555 1_555
N1 C1 1_555 1_555
C1 H1 1_555 1_555
H2 C1 1_555 1_555
H3 N1 1_555 1_555
H4 N1 1_555 1_555
Ag2 O1 1_555 1_555
O1 C5 1_555 1_555
O2 C5 1_555 1_555
C2 C3 1_555 1_555
C3 C4 1_555 1_555
C4 H6 1_555 1_555
C5 C3 1_555 1_555
H5 C2 1_555 1_555
O3 H7 1_555 1_555
C1D C1 1_555 1_555
N1D C1D 1_555 1_555
H3D N1D 1_555 1_555
H4D N1D 1_555 1_555
H1D C1D 1_555 1_555
H2D C1D 1_555 1_555
N1F Ag1 1_555 1_555
Ag1D N1D 1_555 1_555
H3F N1F 1_555 1_555
H4F N1F 1_555 1_555
C2F C2 1_555 1_555
C3F C2F 1_555 1_555
C4F C4 1_555 1_555
H6F C4F 1_555 1_555
C5F C3F 1_555 1_555
O1F C5F 1_555 1_555
O2F C5F 1_555 1_555
H5F C2F 1_555 1_555
O1F_2 Ag2 1_555 1_555
Ag2_2 O1F 1_555 1_555
H7F O3 1_555 1_555
C3F C4F 1_555 1_555

#END
