
#######################################################################
#
#                 Cambridge Crystallographic Data Centre
#                                CCDC 
#
#######################################################################
#
# If this CIF has been generated from an entry in the Cambridge 
# Structural Database, then it will include bibliographic, chemical, 
# crystal, experimental, refinement or atomic coordinate data resulting 
# from the CCDC's data processing and validation procedures.
#
#######################################################################

data_IMAWIC
_symmetry_cell_setting           monoclinic
_symmetry_space_group_name_H-M   'P 21/c'
_symmetry_Int_Tables_number      14
_space_group_name_Hall           '-P 2ybc'
loop_
_symmetry_equiv_pos_site_id
_symmetry_equiv_pos_as_xyz
1 x,y,z
2 x,1/2-y,1/2+z
3 -x,-y,-z
4 -x,1/2+y,1/2-z
_cell_length_a                   11.3221(5)
_cell_length_b                   7.1522(3)
_cell_length_c                   14.8128(5)
_cell_angle_alpha                90
_cell_angle_beta                 122.132(2)
_cell_angle_gamma                90
_cell_volume                     1015.77
loop_
_atom_site_label
_atom_site_type_symbol
_atom_site_fract_x
_atom_site_fract_y
_atom_site_fract_z
Ag1 Ag 0.13855(2) 0.47439(2) 0.162039(17)
N1 N 0.1408(2) 0.1773(3) 0.14474(18)
N2 N 0.1408(2) -0.2372(3) 0.19967(17)
C1 C 0.2621(2) 0.0746(3) 0.23068(18)
C2 C 0.2562(2) -0.1325(3) 0.2042(2)
C3 C 0.3959(3) 0.1606(4) 0.2491(2)
H1 H 0.4000 0.2900 0.2678
H2 H 0.3976 0.1505 0.1852
H3 H 0.4746 0.0956 0.3060
H4 H 0.259(3) 0.091(4) 0.298(2)
H5 H 0.145(3) -0.233(4) 0.259(2)
H6 H 0.064(3) 0.134(4) 0.136(2)
H7 H 0.131(3) 0.157(4) 0.085(2)
H9 H 0.057(3) -0.188(4) 0.153(2)
H10 H 0.337(3) -0.195(4) 0.255(2)
H11 H 0.247(3) -0.148(4) 0.134(2)
N1_2 N 0.1408(2) 1.1773(3) 0.14474(18)
N2_2 N 0.1408(2) 0.7628(3) 0.19967(17)
C1_2 C 0.2621(2) 1.0746(3) 0.23068(18)
C2_2 C 0.2562(2) 0.8675(3) 0.2042(2)
C3_2 C 0.3959(3) 1.1606(4) 0.2491(2)
H1_2 H 0.4000 1.2900 0.2678
H2_2 H 0.3976 1.1505 0.1852
H3_2 H 0.4746 1.0956 0.3060
H4_2 H 0.259(3) 1.091(4) 0.298(2)
H5_2 H 0.145(3) 0.767(4) 0.259(2)
H6_2 H 0.064(3) 1.134(4) 0.136(2)
H7_2 H 0.131(3) 1.157(4) 0.085(2)
H9_2 H 0.057(3) 0.812(4) 0.153(2)
H10_2 H 0.337(3) 0.805(4) 0.255(2)
H11_2 H 0.247(3) 0.852(4) 0.134(2)
Ag1_2 Ag 0.13855(2) 1.47439(2) 0.162039(17)
Ag1_3 Ag 0.13855(2) -0.52561(2) 0.162039(17)
N2_3 N 0.1408(2) 1.7628(3) 0.19967(17)
H5_3 H 0.145(3) 1.767(4) 0.259(2)
H9_3 H 0.057(3) 1.812(4) 0.153(2)
O1 O 0.14164(17) 0.6522(3) 0.39764(15)
O2 O 0.15602(17) 0.3549(3) 0.44386(15)
C4 C 0.2071(2) 0.5018(3) 0.43364(17)
C5 C 0.3590(2) 0.5000(3) 0.46817(17)
C6 C 0.4256(2) 0.6655(3) 0.47040(19)
C7 C 0.4351(2) 0.3345(3) 0.49848(19)
H8 H 0.375(3) 0.778(4) 0.452(2)
H12 H 0.393(3) 0.217(5) 0.498(2)
C7B C 0.5649(2) 0.6655(3) 0.50152(19)
C5B C 0.6410(2) 0.5000(3) 0.53183(17)
C4B C 0.7929(2) 0.4982(3) 0.56636(17)
O1B O 0.85836(17) 0.3478(3) 0.60236(15)
O2B O 0.84398(17) 0.6451(3) 0.55614(15)
C6B C 0.5744(2) 0.3345(3) 0.52960(19)
H8B H 0.625(3) 0.222(4) 0.548(2)
H12B H 0.607(3) 0.783(5) 0.502(2)
O3 O 0.2144(4) 0.5152(4) 0.0177(3)
H13 H 0.192(5) 0.596(7) -0.025(3)
H14 H 0.202(4) 0.418(6) -0.014(3)
loop_
_geom_bond_atom_site_label_1
_geom_bond_atom_site_label_2
_geom_bond_site_symmetry_1
_geom_bond_site_symmetry_2
Ag1 N1 1_555 1_555
O1 C4 1_555 1_555
O2 C4 1_555 1_555
N1 C1 1_555 1_555
N2 C2 1_555 1_555
C1 C2 1_555 1_555
C2 H10 1_555 1_555
C3 C1 1_555 1_555
H1 C3 1_555 1_555
H2 C3 1_555 1_555
H3 C3 1_555 1_555
C4 C5 1_555 1_555
C5 C6 1_555 1_555
C6 H8 1_555 1_555
C7 C5 1_555 1_555
O3 H13 1_555 1_555
H4 C1 1_555 1_555
H5 N2 1_555 1_555
H6 N1 1_555 1_555
H7 N1 1_555 1_555
H9 N2 1_555 1_555
H11 C2 1_555 1_555
H12 C7 1_555 1_555
H14 O3 1_555 1_555
C7B C6 1_555 1_555
C5B C7B 1_555 1_555
C4B C5B 1_555 1_555
O1B C4B 1_555 1_555
O2B C4B 1_555 1_555
C6B C7 1_555 1_555
H8B C6B 1_555 1_555
H12B C7B 1_555 1_555
N1_2 C1_2 1_555 1_555
N2_2 Ag1 1_555 1_555
C1_2 C2_2 1_555 1_555
C2_2 N2_2 1_555 1_555
C3_2 C1_2 1_555 1_555
H1_2 C3_2 1_555 1_555
H2_2 C3_2 1_555 1_555
H3_2 C3_2 1_555 1_555
H4_2 C1_2 1_555 1_555
H5_2 N2_2 1_555 1_555
H6_2 N1_2 1_555 1_555
H7_2 N1_2 1_555 1_555
H9_2 N2_2 1_555 1_555
H10_2 C2_2 1_555 1_555
H11_2 C2_2 1_555 1_555
Ag1_2 N1_2 1_555 1_555
Ag1_3 N2 1_555 1_555
N2_3 Ag1_2 1_555 1_555
H5_3 N2_3 1_555 1_555
H9_3 N2_3 1_555 1_555
C5B C6B 1_555 1_555

#END
