
#######################################################################
#
#                 Cambridge Crystallographic Data Centre
#                                CCDC 
#
#######################################################################
#
# If this CIF has been generated from an entry in the Cambridge 
# Structural Database, then it will include bibliographic, chemical, 
# crystal, experimental, refinement or atomic coordinate data resulting 
# from the CCDC's data processing and validation procedures.
#
#######################################################################

data_IMEDAF
_symmetry_cell_setting           triclinic
_symmetry_space_group_name_H-M   'P -1'
_symmetry_Int_Tables_number      2
_space_group_name_Hall           '-P 1'
loop_
_symmetry_equiv_pos_site_id
_symmetry_equiv_pos_as_xyz
1 x,y,z
2 -x,-y,-z
_cell_length_a                   7.765(1)
_cell_length_b                   10.625(1)
_cell_length_c                   12.228(1)
_cell_angle_alpha                87.914(2)
_cell_angle_beta                 77.659(2)
_cell_angle_gamma                69.291(2)
_cell_volume                     921.012
loop_
_atom_site_label
_atom_site_type_symbol
_atom_site_fract_x
_atom_site_fract_y
_atom_site_fract_z
Zn1 Zn 0.5000 0.5000 0.5000
Zn2 Zn 0.80895(8) -0.26618(6) 0.71454(5)
O1 O 0.8186(5) -0.0813(4) 0.6963(3)
O2 O 1.0679(6) -0.1821(4) 0.7692(4)
O3 O 0.7329(5) 0.3818(3) 0.5609(3)
O4 O 0.9596(5) 0.3645(4) 0.4109(3)
O5 O 1.3584(5) 0.2789(4) 0.3854(3)
O6 O 1.3776(5) 0.3460(3) 0.5513(3)
O7 O 0.3939(5) 0.5930(3) 0.6583(3)
H1 H 0.4693 0.5590 0.6983
H2 H 0.2770 0.6621 0.6741
N1 N 0.5912(6) -0.2097(4) 0.8686(4)
N2 N 0.8818(6) -0.4407(4) 0.8072(3)
C1 C 0.6153(7) -0.3075(5) 0.9439(4)
C2 C 0.6778(9) -0.5211(7) 1.0914(5)
H3 H 0.6965 -0.5923 1.1394
C3 C 0.4481(9) -0.0942(6) 0.8987(5)
H4 H 0.4308 -0.0250 0.8488
C4 C 0.3478(9) -0.1699(7) 1.0786(5)
H5 H 0.2661 -0.1549 1.1485
C5 C 0.3228(9) -0.0732(7) 1.0029(5)
H6 H 0.2219 0.0079 1.0200
C6 C 0.5362(9) -0.4035(7) 1.1252(5)
H7 H 0.4620 -0.3932 1.1972
C7 C 1.0595(9) -0.6678(6) 0.8416(5)
H8 H 1.1583 -0.7477 0.8157
C8 C 0.4988(8) -0.2942(6) 1.0512(5)
C9 C 0.9498(8) -0.6582(6) 0.9455(5)
H9 H 0.9747 -0.7313 0.9915
C10 C 1.0232(8) -0.5562(5) 0.7731(5)
H10 H 1.1000 -0.5633 0.7022
C11 C 0.7990(8) -0.5386(6) 0.9840(4)
C12 C 0.7700(7) -0.4315(5) 0.9109(4)
C13 C 0.8986(7) 0.3306(5) 0.5066(4)
C14 C 1.2189(7) 0.1938(5) 0.5527(4)
C15 C 0.9764(8) -0.0898(5) 0.7155(4)
C16 C 1.2462(7) -0.0059(5) 0.6600(4)
H11 H 1.3197 -0.0798 0.6931
C17 C 0.9497(7) 0.1262(5) 0.6159(4)
H12 H 0.8223 0.1420 0.6216
C18 C 1.3235(7) 0.0844(5) 0.6066(4)
H13 H 1.4481 0.0722 0.6066
C19 C 1.3222(6) 0.2820(5) 0.4922(4)
C20 C 1.0277(7) 0.2153(5) 0.5595(4)
C21 C 1.0579(7) 0.0138(5) 0.6640(4)
O1A O 0.1814(5) 1.0813(4) 0.3037(3)
O2A O -0.0679(6) 1.1821(4) 0.2308(4)
O3A O 0.2671(5) 0.6182(3) 0.4391(3)
O4A O 0.0404(5) 0.6355(4) 0.5891(3)
O5A O -0.3584(5) 0.7211(4) 0.6146(3)
O6A O -0.3776(5) 0.6540(3) 0.4487(3)
C13A C 0.1014(7) 0.6694(5) 0.4934(4)
C14A C -0.2189(7) 0.8062(5) 0.4473(4)
C15A C 0.0236(8) 1.0898(5) 0.2845(4)
C16A C -0.2462(7) 1.0059(5) 0.3400(4)
H11A H -0.3197 1.0798 0.3069
C17A C 0.0503(7) 0.8738(5) 0.3841(4)
H12A H 0.1777 0.8580 0.3784
C18A C -0.3235(7) 0.9156(5) 0.3934(4)
H13A H -0.4481 0.9278 0.3934
C19A C -0.3222(6) 0.7180(5) 0.5078(4)
C20A C -0.0277(7) 0.7847(5) 0.4405(4)
C21A C -0.0579(7) 0.9862(5) 0.3360(4)
O7A O 0.6061(5) 0.4070(3) 0.3417(3)
H1A H 0.5307 0.4410 0.3017
H2A H 0.7230 0.3379 0.3259
Zn2A Zn 0.19105(8) 1.26618(6) 0.28546(5)
N1A N 0.4088(6) 1.2097(4) 0.1314(4)
N2A N 0.1182(6) 1.4407(4) 0.1928(3)
C1A C 0.3847(7) 1.3075(5) 0.0561(4)
C2A C 0.3222(9) 1.5211(7) -0.0914(5)
H3A H 0.3035 1.5923 -0.1394
C3A C 0.5519(9) 1.0942(6) 0.1013(5)
H4A H 0.5692 1.0250 0.1512
C4A C 0.6522(9) 1.1699(7) -0.0786(5)
H5A H 0.7339 1.1549 -0.1485
C5A C 0.6772(9) 1.0732(7) -0.0029(5)
H6A H 0.7781 0.9921 -0.0200
C6A C 0.4638(9) 1.4035(7) -0.1252(5)
H7A H 0.5380 1.3932 -0.1972
C7A C -0.0595(9) 1.6678(6) 0.1584(5)
H8A H -0.1583 1.7477 0.1843
C8A C 0.5012(8) 1.2942(6) -0.0512(5)
C9A C 0.0502(8) 1.6582(6) 0.0545(5)
H9A H 0.0253 1.7313 0.0085
C10A C -0.0232(8) 1.5562(5) 0.2269(5)
H10A H -0.1000 1.5633 0.2978
C11A C 0.2010(8) 1.5386(6) 0.0160(4)
C12A C 0.2300(7) 1.4315(5) 0.0891(4)
O6_2 O 0.3776(5) 0.3460(3) 0.5513(3)
O6A_2 O 0.6224(5) 0.6540(3) 0.4487(3)
O4A_2 O 1.0404(5) -0.3645(4) 0.5891(3)
O5A_2 O 0.6416(5) -0.2789(4) 0.6146(3)
Zn2A_2 Zn 1.19105(8) 0.26618(6) 0.28546(5)
Zn1_2 Zn 1.5000 0.5000 0.5000
Zn2_2 Zn -0.19105(8) 0.73382(6) 0.71454(5)
Zn1_3 Zn -0.5000 0.5000 0.5000
O4_2 O -0.0404(5) 1.3645(4) 0.4109(3)
O5_2 O 0.3584(5) 1.2789(4) 0.3854(3)
loop_
_geom_bond_atom_site_label_1
_geom_bond_atom_site_label_2
_geom_bond_site_symmetry_1
_geom_bond_site_symmetry_2
Zn1 O3 1_555 1_555
Zn2 O1 1_555 1_555
O1 C15 1_555 1_555
O2 C15 1_555 1_555
O3 C13 1_555 1_555
O4 C13 1_555 1_555
O5 C19 1_555 1_555
O6 C19 1_555 1_555
O7 Zn1 1_555 1_555
H1 O7 1_555 1_555
H2 O7 1_555 1_555
N1 Zn2 1_555 1_555
N2 Zn2 1_555 1_555
C1 N1 1_555 1_555
C2 H3 1_555 1_555
C3 N1 1_555 1_555
H4 C3 1_555 1_555
C4 H5 1_555 1_555
C5 C3 1_555 1_555
H6 C5 1_555 1_555
C6 C2 1_555 1_555
H7 C6 1_555 1_555
C7 H8 1_555 1_555
C8 C1 1_555 1_555
C9 C7 1_555 1_555
H9 C9 1_555 1_555
C10 N2 1_555 1_555
H10 C10 1_555 1_555
C11 C2 1_555 1_555
C12 N2 1_555 1_555
C13 C20 1_555 1_555
C14 C18 1_555 1_555
C15 C21 1_555 1_555
C16 H11 1_555 1_555
C17 H12 1_555 1_555
C18 C16 1_555 1_555
H13 C18 1_555 1_555
C19 C14 1_555 1_555
C20 C14 1_555 1_555
C21 C16 1_555 1_555
O1A C15A 1_555 1_555
O2A C15A 1_555 1_555
O3A Zn1 1_555 1_555
O4A C13A 1_555 1_555
O5A C19A 1_555 1_555
O6A C19A 1_555 1_555
C13A O3A 1_555 1_555
C14A C18A 1_555 1_555
C15A C21A 1_555 1_555
C16A H11A 1_555 1_555
C17A H12A 1_555 1_555
C18A C16A 1_555 1_555
H13A C18A 1_555 1_555
C19A C14A 1_555 1_555
C20A C13A 1_555 1_555
C21A C16A 1_555 1_555
O7A Zn1 1_555 1_555
H1A O7A 1_555 1_555
H2A O7A 1_555 1_555
Zn2A O1A 1_555 1_555
N1A Zn2A 1_555 1_555
N2A Zn2A 1_555 1_555
C1A N1A 1_555 1_555
C2A H3A 1_555 1_555
C3A N1A 1_555 1_555
H4A C3A 1_555 1_555
C4A H5A 1_555 1_555
C5A C3A 1_555 1_555
H6A C5A 1_555 1_555
C6A C2A 1_555 1_555
H7A C6A 1_555 1_555
C7A H8A 1_555 1_555
C8A C1A 1_555 1_555
C9A C7A 1_555 1_555
H9A C9A 1_555 1_555
C10A N2A 1_555 1_555
H10A C10A 1_555 1_555
C11A C2A 1_555 1_555
C12A N2A 1_555 1_555
O6_2 Zn1 1_555 1_555
O6A_2 Zn1 1_555 1_555
O4A_2 Zn2 1_555 1_555
O5A_2 Zn2 1_555 1_555
Zn2A_2 O4 1_555 1_555
Zn1_2 O6 1_555 1_555
Zn2_2 O4A 1_555 1_555
Zn1_3 O6A 1_555 1_555
O4_2 Zn2A 1_555 1_555
O5_2 Zn2A 1_555 1_555
O5 Zn2A_2 1_555 1_555
C1 C12 1_555 1_555
C4 C5 1_555 1_555
C4 C8 1_555 1_555
C6 C8 1_555 1_555
C7 C10 1_555 1_555
C9 C11 1_555 1_555
C11 C12 1_555 1_555
C17 C20 1_555 1_555
C17 C21 1_555 1_555
O5A Zn2_2 1_555 1_555
C14A C20A 1_555 1_555
C17A C20A 1_555 1_555
C17A C21A 1_555 1_555
C1A C12A 1_555 1_555
C4A C5A 1_555 1_555
C4A C8A 1_555 1_555
C6A C8A 1_555 1_555
C7A C10A 1_555 1_555
C9A C11A 1_555 1_555
C11A C12A 1_555 1_555

#END
