
#######################################################################
#
#                 Cambridge Crystallographic Data Centre
#                                CCDC 
#
#######################################################################
#
# If this CIF has been generated from an entry in the Cambridge 
# Structural Database, then it will include bibliographic, chemical, 
# crystal, experimental, refinement or atomic coordinate data resulting 
# from the CCDC's data processing and validation procedures.
#
#######################################################################

data_IMEDEJ01
_symmetry_cell_setting           triclinic
_symmetry_space_group_name_H-M   'P -1'
_symmetry_Int_Tables_number      2
_space_group_name_Hall           '-P 1'
loop_
_symmetry_equiv_pos_site_id
_symmetry_equiv_pos_as_xyz
1 x,y,z
2 -x,-y,-z
_cell_length_a                   7.7548(12)
_cell_length_b                   10.5687(16)
_cell_length_c                   12.1678(19)
_cell_angle_alpha                88.238(3)
_cell_angle_beta                 77.760(2)
_cell_angle_gamma                69.813(2)
_cell_volume                     913.735
loop_
_atom_site_label
_atom_site_type_symbol
_atom_site_fract_x
_atom_site_fract_y
_atom_site_fract_z
Co1 Co -0.81822(9) 0.77024(7) 0.78642(5)
Co2 Co -0.5000 1.0000 1.0000
O1 O -0.6424(5) 0.7775(4) 0.8855(3)
O2 O -0.6209(5) 0.8464(3) 1.0513(3)
O3 O -1.0393(5) 0.8701(4) 0.9137(3)
O4 O -1.2674(4) 0.8877(3) 1.0634(3)
O5 O -1.1972(5) 0.4266(4) 1.1925(3)
O6 O -0.9490(6) 0.3142(4) 1.2596(4)
O7 O -0.3920(5) 0.9036(4) 0.8417(3)
H1 H -0.2831 0.8534 0.8379
H2 H -0.4486 0.8531 0.8334
N1 N -0.5997(6) 0.7110(4) 0.6358(4)
N2 N -0.8856(6) 0.9428(4) 0.6922(3)
C1 C -0.4577(8) 0.5953(6) 0.6097(5)
H3 H -0.4442 0.5281 0.6617
C2 C -0.3267(9) 0.5704(7) 0.5066(6)
H4 H -0.2260 0.4892 0.4920
C3 C -0.3486(9) 0.6661(7) 0.4284(6)
H5 H -0.2649 0.6494 0.3589
C4 C -0.4959(9) 0.7891(7) 0.4522(5)
C5 C -0.5300(10) 0.8974(8) 0.3765(5)
H6 H -0.4525 0.8857 0.3051
C6 C -0.6721(10) 1.0159(7) 0.4065(5)
H7 H -0.6887 1.0851 0.3564
C7 C -0.7966(9) 1.0363(6) 0.5136(5)
C8 C -0.9472(9) 1.1576(6) 0.5500(5)
H8 H -0.9703 1.2300 0.5032
C9 C -1.0572(9) 1.1674(6) 0.6533(5)
H9 H -1.1555 1.2476 0.6786
C10 C -1.0246(8) 1.0583(6) 0.7224(5)
H10 H -1.1041 1.0671 0.7929
C11 C -0.7711(8) 0.9318(5) 0.5888(4)
C12 C -0.6181(8) 0.8062(6) 0.5578(4)
C13 C -0.6775(6) 0.7818(5) 0.9921(4)
C14 C -0.7840(6) 0.6951(5) 1.0539(4)
C15 C -0.9758(6) 0.7190(5) 1.0617(4)
C16 C -1.0561(7) 0.6300(5) 1.1167(4)
H11 H -1.1837 0.6472 1.1222
C17 C -0.9521(7) 0.5166(5) 1.1635(4)
C18 C -0.7624(7) 0.4946(5) 1.1587(4)
H12 H -0.6907 0.4192 1.1909
C19 C -0.6808(7) 0.5841(5) 1.1064(4)
H13 H -0.5556 0.5702 1.1062
C20 C -1.1014(7) 0.8355(5) 1.0094(4)
C21 C -1.0376(8) 0.4127(5) 1.2095(4)
O1A O -0.3576(5) 1.2225(4) 1.1145(3)
O2A O -0.3791(5) 1.1536(3) 0.9487(3)
O3A O 0.0393(5) 1.1299(4) 1.0863(3)
O4A O 0.2674(4) 1.1123(3) 0.9366(3)
O5A O 0.1972(5) 1.5734(4) 0.8075(3)
O6A O -0.0510(6) 1.6858(4) 0.7404(4)
C13A C -0.3225(6) 1.2182(5) 1.0079(4)
C14A C -0.2160(6) 1.3049(5) 0.9461(4)
C15A C -0.0242(6) 1.2810(5) 0.9383(4)
C16A C 0.0561(7) 1.3700(5) 0.8833(4)
H11A H 0.1837 1.3528 0.8778
C17A C -0.0479(7) 1.4834(5) 0.8365(4)
C18A C -0.2376(7) 1.5054(5) 0.8413(4)
H12A H -0.3093 1.5808 0.8091
C19A C -0.3192(7) 1.4159(5) 0.8936(4)
H13A H -0.4444 1.4298 0.8938
C20A C 0.1014(7) 1.1645(5) 0.9906(4)
C21A C 0.0376(8) 1.5873(5) 0.7905(4)
O7A O -0.6080(5) 1.0964(4) 1.1583(3)
H1A H -0.7169 1.1466 1.1621
H2A H -0.5514 1.1469 1.1666
Co1A Co -0.18178(9) 1.22976(7) 1.21358(5)
N1A N -0.4003(6) 1.2890(4) 1.3642(4)
N2A N -0.1144(6) 1.0572(4) 1.3078(3)
C1A C -0.5423(8) 1.4047(6) 1.3903(5)
H3A H -0.5558 1.4719 1.3383
C2A C -0.6733(9) 1.4296(7) 1.4934(6)
H4A H -0.7740 1.5108 1.5080
C3A C -0.6514(9) 1.3339(7) 1.5716(6)
H5A H -0.7351 1.3506 1.6411
C4A C -0.5041(9) 1.2109(7) 1.5478(5)
C5A C -0.4700(10) 1.1026(8) 1.6235(5)
H6A H -0.5475 1.1143 1.6949
C6A C -0.3279(10) 0.9841(7) 1.5935(5)
H7A H -0.3113 0.9149 1.6436
C7A C -0.2034(9) 0.9637(6) 1.4864(5)
C8A C -0.0528(9) 0.8424(6) 1.4500(5)
H8A H -0.0297 0.7700 1.4968
C9A C 0.0572(9) 0.8326(6) 1.3467(5)
H9A H 0.1555 0.7524 1.3214
C10A C 0.0246(8) 0.9417(6) 1.2776(5)
H10A H 0.1041 0.9329 1.2071
C11A C -0.2289(8) 1.0682(5) 1.4112(4)
C12A C -0.3819(8) 1.1938(6) 1.4422(4)
O5A_2 O -0.8028(5) 0.5734(4) 0.8075(3)
O4_2 O -0.2674(4) 0.8877(3) 1.0634(3)
O4A_2 O -0.7326(4) 1.1123(3) 0.9366(3)
Co2_2 Co -1.5000 1.0000 1.0000
Co1A_2 Co -1.18178(9) 0.22976(7) 1.21358(5)
Co2_3 Co 0.5000 1.0000 1.0000
Co1_2 Co 0.18178(9) 1.77024(7) 0.78642(5)
O5_2 O -0.1972(5) 1.4266(4) 1.1925(3)
loop_
_geom_bond_atom_site_label_1
_geom_bond_atom_site_label_2
_geom_bond_site_symmetry_1
_geom_bond_site_symmetry_2
Co1 O1 1_555 1_555
Co2 O2 1_555 1_555
O1 C13 1_555 1_555
O2 C13 1_555 1_555
O3 Co1 1_555 1_555
O4 C20 1_555 1_555
O5 C21 1_555 1_555
O6 C21 1_555 1_555
O7 Co2 1_555 1_555
H1 O7 1_555 1_555
H2 O7 1_555 1_555
N1 Co1 1_555 1_555
N2 Co1 1_555 1_555
C1 N1 1_555 1_555
H3 C1 1_555 1_555
C2 C1 1_555 1_555
H4 C2 1_555 1_555
C3 C2 1_555 1_555
H5 C3 1_555 1_555
C4 C3 1_555 1_555
C5 C4 1_555 1_555
H6 C5 1_555 1_555
C6 C5 1_555 1_555
H7 C6 1_555 1_555
C7 C6 1_555 1_555
C8 C7 1_555 1_555
H8 C8 1_555 1_555
C9 C8 1_555 1_555
H9 C9 1_555 1_555
C10 N2 1_555 1_555
H10 C10 1_555 1_555
C11 N2 1_555 1_555
C12 N1 1_555 1_555
C13 C14 1_555 1_555
C14 C15 1_555 1_555
C15 C16 1_555 1_555
C16 H11 1_555 1_555
C17 C16 1_555 1_555
C18 C17 1_555 1_555
H12 C18 1_555 1_555
C19 C14 1_555 1_555
H13 C19 1_555 1_555
C20 O3 1_555 1_555
C21 C17 1_555 1_555
O1A C13A 1_555 1_555
O2A Co2 1_555 1_555
O3A C20A 1_555 1_555
O4A C20A 1_555 1_555
O5A C21A 1_555 1_555
O6A C21A 1_555 1_555
C13A O2A 1_555 1_555
C14A C13A 1_555 1_555
C15A C14A 1_555 1_555
C16A C15A 1_555 1_555
H11A C16A 1_555 1_555
C17A C16A 1_555 1_555
C18A C17A 1_555 1_555
H12A C18A 1_555 1_555
C19A C14A 1_555 1_555
H13A C19A 1_555 1_555
C20A C15A 1_555 1_555
C21A C17A 1_555 1_555
O7A Co2 1_555 1_555
H1A O7A 1_555 1_555
H2A O7A 1_555 1_555
Co1A O1A 1_555 1_555
N1A Co1A 1_555 1_555
N2A Co1A 1_555 1_555
C1A N1A 1_555 1_555
H3A C1A 1_555 1_555
C2A C1A 1_555 1_555
H4A C2A 1_555 1_555
C3A C2A 1_555 1_555
H5A C3A 1_555 1_555
C4A C3A 1_555 1_555
C5A C4A 1_555 1_555
H6A C5A 1_555 1_555
C6A C5A 1_555 1_555
H7A C6A 1_555 1_555
C7A C6A 1_555 1_555
C8A C7A 1_555 1_555
H8A C8A 1_555 1_555
C9A C8A 1_555 1_555
H9A C9A 1_555 1_555
C10A N2A 1_555 1_555
H10A C10A 1_555 1_555
C11A N2A 1_555 1_555
C12A N1A 1_555 1_555
O5A_2 Co1 1_555 1_555
O4_2 Co2 1_555 1_555
O4A_2 Co2 1_555 1_555
Co2_2 O4 1_555 1_555
Co1A_2 O5 1_555 1_555
Co2_3 O4A 1_555 1_555
Co1_2 O5A 1_555 1_555
O5_2 Co1A 1_555 1_555
C4 C12 1_555 1_555
C7 C11 1_555 1_555
C9 C10 1_555 1_555
C11 C12 1_555 1_555
C15 C20 1_555 1_555
C18 C19 1_555 1_555
O3A Co1A 1_555 1_555
C18A C19A 1_555 1_555
C4A C12A 1_555 1_555
C7A C11A 1_555 1_555
C9A C10A 1_555 1_555
C11A C12A 1_555 1_555

#END
