
#######################################################################
#
#                 Cambridge Crystallographic Data Centre
#                                CCDC 
#
#######################################################################
#
# If this CIF has been generated from an entry in the Cambridge 
# Structural Database, then it will include bibliographic, chemical, 
# crystal, experimental, refinement or atomic coordinate data resulting 
# from the CCDC's data processing and validation procedures.
#
#######################################################################

data_IMEFAI
_symmetry_cell_setting           triclinic
_symmetry_space_group_name_H-M   'P -1'
_symmetry_Int_Tables_number      2
_space_group_name_Hall           '-P 1'
loop_
_symmetry_equiv_pos_site_id
_symmetry_equiv_pos_as_xyz
1 x,y,z
2 -x,-y,-z
_cell_length_a                   7.7597(16)
_cell_length_b                   8.4998(17)
_cell_length_c                   10.641(2)
_cell_angle_alpha                70.98(3)
_cell_angle_beta                 87.90(3)
_cell_angle_gamma                70.32(3)
_cell_volume                     622.652
loop_
_atom_site_label
_atom_site_type_symbol
_atom_site_fract_x
_atom_site_fract_y
_atom_site_fract_z
Gd1 Gd 0.66614(2) 0.22407(2) 0.109705(15)
S1 S 0.28821(12) 0.19343(12) 0.30992(9)
O1 O 0.1660(4) 0.2985(4) 0.1893(3)
O2 O 0.2243(4) 0.0586(4) 0.4002(3)
O3 O 0.4356(3) 0.4811(3) 0.1272(3)
O4 O 0.4775(3) 0.1175(3) 0.2785(3)
O5 O 0.4167(3) 0.2256(3) -0.0225(3)
C1 C 0.2501(8) 0.4105(7) 0.5982(5)
H1 H 0.2378 0.3755 0.6895
C2 C 0.4154(5) 0.0836(4) -0.0341(3)
C3 C 0.2906(5) 0.5137(5) 0.3255(4)
C4 C 0.2862(5) 0.3444(5) 0.3935(4)
C5 C 0.3201(5) 0.5788(5) 0.1808(4)
C6 C 0.2708(7) 0.6300(6) 0.3961(4)
H2 H 0.2708 0.7441 0.3516
C7 C 0.2674(7) 0.2938(6) 0.5296(4)
H3 H 0.2663 0.1803 0.5751
C8 C 0.2511(9) 0.5780(7) 0.5315(5)
H4 H 0.2386 0.6568 0.5776
O6 O 0.8132(4) 0.4267(3) 0.1107(3)
H5 H 0.924(3) 0.405(6) 0.131(5)
H6 H 0.763(5) 0.536(3) 0.082(5)
O7 O 0.9997(4) 0.0655(4) 0.1193(3)
H7 H 1.060(6) -0.041(3) 0.124(5)
H8 H 1.066(6) 0.124(5) 0.080(5)
O8 O 0.8250(4) 0.1000(4) 0.3335(3)
H9 H 0.941(3) 0.065(7) 0.347(5)
H10 H 0.789(6) 0.057(7) 0.409(3)
O9 O 0.2318(4) 0.7378(3) 0.1138(3)
O10 O 0.2925(3) 0.0631(3) -0.0929(3)
Gd1A Gd 0.33386(2) 0.77593(2) -0.109705(15)
Gd1A_2 Gd 0.33386(2) -0.22407(2) -0.109705(15)
S1A S 0.71179(12) 0.80657(12) -0.30992(9)
O1A O 0.8340(4) 0.7015(4) -0.1893(3)
O2A O 0.7757(4) 0.9414(4) -0.4002(3)
O3A O 0.5644(3) 0.5189(3) -0.1272(3)
O4A O 0.5225(3) 0.8825(3) -0.2785(3)
O5A O 0.5833(3) -0.2256(3) 0.0225(3)
O5A_2 O 0.5833(3) 0.7744(3) 0.0225(3)
C1A C 0.7499(8) 0.5895(7) -0.5982(5)
H1A H 0.7622 0.6245 -0.6895
C2A C 0.5846(5) -0.0836(4) 0.0341(3)
C3A C 0.7094(5) 0.4863(5) -0.3255(4)
C4A C 0.7138(5) 0.6556(5) -0.3935(4)
C5A C 0.6799(5) 0.4212(5) -0.1808(4)
C6A C 0.7292(7) 0.3700(6) -0.3961(4)
H2A H 0.7292 0.2559 -0.3516
C7A C 0.7326(7) 0.7062(6) -0.5296(4)
H3A H 0.7337 0.8197 -0.5751
C8A C 0.7489(9) 0.4220(7) -0.5315(5)
H4A H 0.7614 0.3432 -0.5776
O6A O 0.1868(4) 0.5733(3) -0.1107(3)
H5A H 0.076(3) 0.595(6) -0.131(5)
H6A H 0.237(5) 0.464(3) -0.082(5)
O7A O 0.0003(4) 0.9345(4) -0.1193(3)
H7A H -0.060(6) 1.041(3) -0.124(5)
H8A H -0.066(6) 0.876(5) -0.080(5)
O8A O 0.1750(4) 0.9000(4) -0.3335(3)
H9A H 0.059(3) 0.935(7) -0.347(5)
H10A H 0.211(6) 0.943(7) -0.409(3)
O9A O 0.7682(4) 0.2622(3) -0.1138(3)
O10A O 0.7075(3) -0.0631(3) 0.0929(3)
O10_2 O 0.2925(3) 1.0631(3) -0.0929(3)
loop_
_geom_bond_atom_site_label_1
_geom_bond_atom_site_label_2
_geom_bond_site_symmetry_1
_geom_bond_site_symmetry_2
Gd1 O3 1_555 1_555
S1 O1 1_555 1_555
O2 S1 1_555 1_555
O3 C5 1_555 1_555
O4 Gd1 1_555 1_555
O5 Gd1 1_555 1_555
C1 H1 1_555 1_555
C2 O5 1_555 1_555
C3 C4 1_555 1_555
C4 S1 1_555 1_555
C5 C3 1_555 1_555
C6 C3 1_555 1_555
H2 C6 1_555 1_555
C7 C1 1_555 1_555
H3 C7 1_555 1_555
C8 C1 1_555 1_555
H4 C8 1_555 1_555
O6 Gd1 1_555 1_555
H5 O6 1_555 1_555
H6 O6 1_555 1_555
O7 Gd1 1_555 1_555
H7 O7 1_555 1_555
H8 O7 1_555 1_555
O8 Gd1 1_555 1_555
H9 O8 1_555 1_555
H10 O8 1_555 1_555
O9 C5 1_555 1_555
O10 C2 1_555 1_555
Gd1A O3 1_555 1_555
Gd1A_2 O10 1_555 1_555
S1A O1A 1_555 1_555
O2A S1A 1_555 1_555
O3A Gd1 1_555 1_555
O4A Gd1A 1_555 1_555
O5A Gd1A_2 1_555 1_555
O5A_2 Gd1A 1_555 1_555
C1A H1A 1_555 1_555
C2A C2 1_555 1_555
C3A C4A 1_555 1_555
C4A S1A 1_555 1_555
C5A O3A 1_555 1_555
C6A C3A 1_555 1_555
H2A C6A 1_555 1_555
C7A C1A 1_555 1_555
H3A C7A 1_555 1_555
C8A C1A 1_555 1_555
H4A C8A 1_555 1_555
O6A Gd1A 1_555 1_555
H5A O6A 1_555 1_555
H6A O6A 1_555 1_555
O7A Gd1A 1_555 1_555
H7A O7A 1_555 1_555
H8A O7A 1_555 1_555
O8A Gd1A 1_555 1_555
H9A O8A 1_555 1_555
H10A O8A 1_555 1_555
O9A Gd1 1_555 1_555
O10A Gd1 1_555 1_555
O10_2 Gd1A 1_555 1_555
S1 O4 1_555 1_555
C4 C7 1_555 1_555
C6 C8 1_555 1_555
O9 Gd1A 1_555 1_555
Gd1A O3A 1_555 1_555
S1A O4A 1_555 1_555
O5A C2A 1_555 1_555
C2A O10A 1_555 1_555
C3A C5A 1_555 1_555
C4A C7A 1_555 1_555
C5A O9A 1_555 1_555
C6A C8A 1_555 1_555

#END
