
#######################################################################
#
#                 Cambridge Crystallographic Data Centre
#                                CCDC 
#
#######################################################################
#
# If this CIF has been generated from an entry in the Cambridge 
# Structural Database, then it will include bibliographic, chemical, 
# crystal, experimental, refinement or atomic coordinate data resulting 
# from the CCDC's data processing and validation procedures.
#
#######################################################################

data_IMEFOW
_symmetry_cell_setting           monoclinic
_symmetry_space_group_name_H-M   'C 2/c'
_symmetry_Int_Tables_number      15
_space_group_name_Hall           '-C 2yn'
loop_
_symmetry_equiv_pos_site_id
_symmetry_equiv_pos_as_xyz
1 x,y,z
2 -x,y,1/2-z
3 1/2+x,1/2+y,z
4 1/2-x,1/2+y,1/2-z
5 -x,-y,-z
6 x,-y,1/2+z
7 1/2-x,1/2-y,-z
8 1/2+x,1/2-y,1/2+z
_cell_length_a                   19.098(4)
_cell_length_b                   6.7985(14)
_cell_length_c                   12.251(3)
_cell_angle_alpha                90
_cell_angle_beta                 111.85(3)
_cell_angle_gamma                90
_cell_volume                     1476.37
loop_
_atom_site_label
_atom_site_type_symbol
_atom_site_fract_x
_atom_site_fract_y
_atom_site_fract_z
Cd1 Cd 0.039725(14) 0.15289(4) 0.40032(2)
Cd2 Cd -0.109950(14) 0.51117(4) 0.28098(2)
S1 S -0.06795(5) 0.32686(13) 0.56168(7)
O1 O -0.12596(15) 0.3806(4) 0.4492(2)
O2 O -0.10217(16) 0.2612(4) 0.6442(2)
O3 O -0.01887(15) 0.1678(4) 0.5473(2)
O4 O -0.01889(15) 0.5001(4) 0.6126(2)
O5 O 0.07342(15) 0.1948(4) 0.2432(2)
N1 N 0.26806(18) 0.0767(5) 0.6701(3)
N2 N 0.15246(18) 0.1526(5) 0.5476(3)
N3 N 0.15957(18) 0.2137(5) 0.6580(3)
C1 C 0.2289(2) 0.1646(6) 0.7269(3)
H1 H 0.2486 0.1889 0.8074
C2 C 0.2180(2) 0.0717(6) 0.5585(3)
H2 H 0.2281 0.0177 0.4961
H3 H 0.100(3) 0.108(7) 0.232(5)
Cd1D Cd -0.039725(14) -0.15289(4) 0.59968(2)
Cd1D_2 Cd -0.039725(14) 0.84711(4) 0.59968(2)
Cd1A Cd -0.039725(14) 0.15289(4) 0.09968(2)
Cd2E Cd -0.109950(14) 0.48883(4) 0.78098(2)
Cd2D Cd 0.109950(14) 0.48883(4) 0.71902(2)
Cd2A Cd 0.109950(14) 0.51117(4) 0.21902(2)
Cd2G Cd 0.390050(14) -0.01117(4) 0.78098(2)
O2E O -0.10217(16) 0.7388(4) 0.1442(2)
O3D O 0.01887(15) -0.1678(4) 0.4527(2)
O4D O 0.01889(15) 0.4999(4) 0.3874(2)
O5A O -0.07342(15) 0.1948(4) 0.2568(2)
N1G N -0.23194(18) 0.4233(5) 0.1701(3)
N3D N -0.15957(18) 0.7863(5) 0.3420(3)
H3A H -0.100(3) 0.108(7) 0.268(5)
loop_
_geom_bond_atom_site_label_1
_geom_bond_atom_site_label_2
_geom_bond_site_symmetry_1
_geom_bond_site_symmetry_2
Cd1 O3 1_555 1_555
Cd2 O1 1_555 1_555
S1 O1 1_555 1_555
O2 S1 1_555 1_555
O3 S1 1_555 1_555
O4 S1 1_555 1_555
O5 Cd1 1_555 1_555
N1 C1 1_555 1_555
N2 Cd1 1_555 1_555
N3 N2 1_555 1_555
C1 N3 1_555 1_555
H1 C1 1_555 1_555
C2 N1 1_555 1_555
H2 C2 1_555 1_555
H3 O5 1_555 1_555
Cd1D O3 1_555 1_555
Cd1D_2 O4 1_555 1_555
Cd1A O5 1_555 1_555
Cd2E O2 1_555 1_555
Cd2D O4 1_555 1_555
Cd2A O5 1_555 1_555
Cd2G N1 1_555 1_555
O2E Cd2 1_555 1_555
O3D Cd1 1_555 1_555
O4D Cd1 1_555 1_555
O5A Cd1 1_555 1_555
N1G Cd2 1_555 1_555
N3D Cd2 1_555 1_555
H3A O5A 1_555 1_555
Cd2 O4D 1_555 1_555
Cd2 O5A 1_555 1_555
N2 C2 1_555 1_555
N3 Cd2D 1_555 1_555
Cd1D O3D 1_555 1_555
Cd1A O5A 1_555 1_555

#END
