
#######################################################################
#
#                 Cambridge Crystallographic Data Centre
#                                CCDC 
#
#######################################################################
#
# If this CIF has been generated from an entry in the Cambridge 
# Structural Database, then it will include bibliographic, chemical, 
# crystal, experimental, refinement or atomic coordinate data resulting 
# from the CCDC's data processing and validation procedures.
#
#######################################################################

data_IMETOK
_symmetry_cell_setting           monoclinic
_symmetry_space_group_name_H-M   'P 21/c'
_symmetry_Int_Tables_number      14
_space_group_name_Hall           '-P 2ybc'
loop_
_symmetry_equiv_pos_site_id
_symmetry_equiv_pos_as_xyz
1 x,y,z
2 -x,1/2+y,1/2-z
3 -x,-y,-z
4 x,1/2-y,1/2+z
_cell_length_a                   12.526(2)
_cell_length_b                   20.654(4)
_cell_length_c                   6.9239(12)
_cell_angle_alpha                90
_cell_angle_beta                 102.710(3)
_cell_angle_gamma                90
_cell_volume                     1747.4
loop_
_atom_site_label
_atom_site_type_symbol
_atom_site_fract_x
_atom_site_fract_y
_atom_site_fract_z
Cu1 Cu 0.75352(3) 0.148220(17) 0.68691(6)
Cu2 Cu 0.77017(3) 0.297042(18) 0.71594(6)
Cu3 Cu 0.76498(3) 0.002725(17) 0.78244(6)
C1 C 0.6092(3) -0.09981(18) 0.7256(6)
H1 H 0.5695 -0.0694 0.6294
H2 H 0.5561 -0.1253 0.7757
C2 C 0.6769(3) -0.14435(18) 0.6252(6)
H3 H 0.7014 -0.1807 0.7125
H4 H 0.6300 -0.1614 0.5056
C3 C 0.7751(3) -0.11378(17) 0.5713(5)
H5 H 0.8192 -0.1472 0.5287
H6 H 0.7510 -0.0844 0.4611
C4 C 0.8611(3) -0.11388(16) 0.9284(5)
H7 H 0.9262 -0.0979 1.0187
H8 H 0.8716 -0.1595 0.9047
C5 C 0.7612(3) -0.10503(17) 1.0203(5)
H9 H 0.7293 -0.1469 1.0367
H10 H 0.7836 -0.0851 1.1498
N1 N 0.6791(2) -0.06373(12) 0.8911(4)
H11 H 0.6364 -0.0441 0.9644
N2 N 0.8434(2) -0.07773(11) 0.7393(4)
H12 H 0.9090 -0.0676 0.7111
N3 N 0.6621(2) 0.07754(12) 0.7601(4)
N4 N 0.5749(2) 0.08310(12) 0.8069(4)
N5 N 0.4939(3) 0.08820(17) 0.8504(6)
N6 N 0.8470(2) 0.07092(12) 0.6701(4)
N7 N 0.9312(2) 0.07046(11) 0.6142(4)
N8 N 1.0115(3) 0.07101(14) 0.5635(5)
N9 N 0.6717(2) 0.22409(12) 0.7469(5)
N10 N 0.5771(3) 0.23128(12) 0.7637(4)
N11 N 0.4911(3) 0.23882(17) 0.7834(6)
N12 N 0.8540(2) 0.21936(12) 0.6453(5)
N13 N 0.9527(3) 0.22012(12) 0.6699(4)
N14 N 1.0445(3) 0.22201(16) 0.6882(7)
N15 N 0.8732(3) 0.35437(14) 0.6323(6)
N16 N 0.8742(2) 0.41145(13) 0.6236(4)
N17 N 0.8807(3) 0.46678(13) 0.6072(5)
N18 N 0.6805(3) 0.14125(12) 0.3230(4)
N19 N 0.6684(3) 0.08445(14) 0.2836(4)
N20 N 0.6532(3) 0.03057(15) 0.2569(6)
Cu2C Cu 0.77017(3) 0.202958(18) 0.21594(6)
Cu3C Cu 0.76498(3) 0.497275(17) 0.28244(6)
N17C N 0.8807(3) 0.03322(13) 1.1072(5)
N18C N 0.6805(3) 0.35875(12) 0.8230(4)
loop_
_geom_bond_atom_site_label_1
_geom_bond_atom_site_label_2
_geom_bond_site_symmetry_1
_geom_bond_site_symmetry_2
Cu1 N3 1_555 1_555
Cu2 N9 1_555 1_555
Cu3 N1 1_555 1_555
C1 H1 1_555 1_555
H2 C1 1_555 1_555
C2 C1 1_555 1_555
H3 C2 1_555 1_555
H4 C2 1_555 1_555
C3 C2 1_555 1_555
H5 C3 1_555 1_555
H6 C3 1_555 1_555
C4 H7 1_555 1_555
H8 C4 1_555 1_555
C5 C4 1_555 1_555
H9 C5 1_555 1_555
H10 C5 1_555 1_555
N1 C1 1_555 1_555
H11 N1 1_555 1_555
N2 Cu3 1_555 1_555
H12 N2 1_555 1_555
N3 Cu3 1_555 1_555
N4 N3 1_555 1_555
N5 N4 1_555 1_555
N6 Cu1 1_555 1_555
N7 N6 1_555 1_555
N8 N7 1_555 1_555
N9 Cu1 1_555 1_555
N10 N9 1_555 1_555
N11 N10 1_555 1_555
N12 Cu1 1_555 1_555
N13 N12 1_555 1_555
N14 N13 1_555 1_555
N15 Cu2 1_555 1_555
N16 N15 1_555 1_555
N17 N16 1_555 1_555
N18 Cu1 1_555 1_555
N19 N18 1_555 1_555
N20 N19 1_555 1_555
Cu2C N18 1_555 1_555
Cu3C N17 1_555 1_555
N17C Cu3 1_555 1_555
N18C Cu2 1_555 1_555
Cu2 N12 1_555 1_555
Cu3 N6 1_555 1_555
C3 N2 1_555 1_555
C4 N2 1_555 1_555
C5 N1 1_555 1_555

#END
