
#######################################################################
#
#                 Cambridge Crystallographic Data Centre
#                                CCDC 
#
#######################################################################
#
# If this CIF has been generated from an entry in the Cambridge 
# Structural Database, then it will include bibliographic, chemical, 
# crystal, experimental, refinement or atomic coordinate data resulting 
# from the CCDC's data processing and validation procedures.
#
#######################################################################

data_IMEZUW
_symmetry_cell_setting           monoclinic
_symmetry_space_group_name_H-M   'P 21/c'
_symmetry_Int_Tables_number      14
_space_group_name_Hall           '-P 2ybc'
loop_
_symmetry_equiv_pos_site_id
_symmetry_equiv_pos_as_xyz
1 x,y,z
2 -x,1/2+y,1/2-z
3 -x,-y,-z
4 x,1/2-y,1/2+z
_cell_length_a                   10.431(2)
_cell_length_b                   8.0600(16)
_cell_length_c                   12.671(3)
_cell_angle_alpha                90
_cell_angle_beta                 104.742(3)
_cell_angle_gamma                90
_cell_volume                     1030.23
loop_
_atom_site_label
_atom_site_type_symbol
_atom_site_fract_x
_atom_site_fract_y
_atom_site_fract_z
Mn1 Mn 0.08106(4) 0.23044(5) -0.12343(3)
P1 P 0.08989(7) 0.13864(9) 0.12896(5)
O1 O 0.0389(2) 0.2522(2) 0.03087(16)
O2 O 0.1478(2) 0.2402(2) 0.23143(16)
O3 O -0.0170(2) 0.0204(2) 0.14629(16)
O4 O 0.1233(2) 0.5172(3) -0.09679(18)
H1 H 0.0706 0.5852 -0.0703
H2 H 0.1422 0.5459 -0.1598
O5 O -0.1222(2) 0.2962(3) -0.22362(18)
H3 H -0.0901 0.3598 -0.2695
H4 H -0.1775 0.3448 -0.1888
N1 N 0.2958(2) 0.1846(3) -0.0291(2)
C1 C 0.3913(3) 0.2655(4) -0.0614(3)
H5 H 0.3689 0.3187 -0.1288
C2 C 0.5193(4) 0.2744(5) -0.0013(3)
H6 H 0.5827 0.3314 -0.0270
C3 C 0.5527(4) 0.1964(5) 0.0991(3)
H7 H 0.6391 0.2011 0.1426
C4 C 0.4571(3) 0.1124(5) 0.1335(3)
H8 H 0.4783 0.0590 0.2008
C5 C 0.3289(3) 0.1066(4) 0.0685(2)
C6 C 0.2219(3) 0.0120(4) 0.1013(2)
H9 H 0.2617 -0.0521 0.1661
H10 H 0.1831 -0.0658 0.0436
Mn1C Mn 0.08106(4) 0.26956(5) 0.37657(3)
Mn1B Mn -0.08106(4) -0.23044(5) 0.12343(3)
O2C O 0.1478(2) 0.2598(2) -0.26857(16)
O3B O 0.0170(2) -0.0204(2) -0.14629(16)
O6 O 0.7200(3) 0.4981(3) 0.8573(2)
H11 H 0.7231 0.5958 0.8328
H12 H 0.7481 0.4987 0.9306
loop_
_geom_bond_atom_site_label_1
_geom_bond_atom_site_label_2
_geom_bond_site_symmetry_1
_geom_bond_site_symmetry_2
Mn1 O1 1_555 1_555
P1 O1 1_555 1_555
O2 P1 1_555 1_555
O3 P1 1_555 1_555
O4 Mn1 1_555 1_555
H1 O4 1_555 1_555
H2 O4 1_555 1_555
O5 Mn1 1_555 1_555
H3 O5 1_555 1_555
H4 O5 1_555 1_555
N1 Mn1 1_555 1_555
C1 N1 1_555 1_555
H5 C1 1_555 1_555
C2 C1 1_555 1_555
H6 C2 1_555 1_555
C3 C2 1_555 1_555
H7 C3 1_555 1_555
C4 C3 1_555 1_555
H8 C4 1_555 1_555
C5 N1 1_555 1_555
C6 P1 1_555 1_555
H9 C6 1_555 1_555
H10 C6 1_555 1_555
O6 H11 1_555 1_555
H12 O6 1_555 1_555
Mn1C O2 1_555 1_555
Mn1B O3 1_555 1_555
O2C Mn1 1_555 1_555
O3B Mn1 1_555 1_555
C4 C5 1_555 1_555
C5 C6 1_555 1_555

#END
