
#######################################################################
#
#                 Cambridge Crystallographic Data Centre
#                                CCDC 
#
#######################################################################
#
# If this CIF has been generated from an entry in the Cambridge 
# Structural Database, then it will include bibliographic, chemical, 
# crystal, experimental, refinement or atomic coordinate data resulting 
# from the CCDC's data processing and validation procedures.
#
#######################################################################

data_IMEZIK
_symmetry_cell_setting           monoclinic
_symmetry_space_group_name_H-M   'P 21/c'
_symmetry_Int_Tables_number      14
_space_group_name_Hall           '-P 2ybc'
loop_
_symmetry_equiv_pos_site_id
_symmetry_equiv_pos_as_xyz
1 x,y,z
2 -x,1/2+y,1/2-z
3 -x,-y,-z
4 x,1/2-y,1/2+z
_cell_length_a                   7.4341(4)
_cell_length_b                   13.3890(6)
_cell_length_c                   19.1036(9)
_cell_angle_alpha                90
_cell_angle_beta                 98.813(1)
_cell_angle_gamma                90
_cell_volume                     1879.03
loop_
_atom_site_label
_atom_site_type_symbol
_atom_site_fract_x
_atom_site_fract_y
_atom_site_fract_z
U1 U -0.72745(3) -0.478733(16) 0.300641(10)
O1 O -0.6366(6) -0.3174(3) 0.3600(2)
O2 O -0.7472(6) -0.4261(3) 0.4259(2)
O3 O -0.6199(7) -0.1464(3) 0.7260(2)
O4 O -0.7068(7) -0.0066(3) 0.6742(2)
O5 O -0.5069(7) -0.5245(3) 0.3251(2)
O6 O -0.9497(6) -0.4342(3) 0.2779(2)
O9 O -0.8280(8) -0.6395(3) 0.2468(2)
O10 O -0.8472(7) -0.6059(3) 0.3779(2)
C1 C -0.9280(17) -0.6948(7) 0.3516(4)
H3 H -1.0556 -0.6936 0.3571
H4 H -0.8712 -0.7498 0.3798
C2 C -0.7354(10) 0.0008(5) 0.5225(3)
H5 H -0.7318 0.0418 0.5620
C3 C -0.7844(12) -0.0189(5) 0.3963(4)
H6 H -0.8130 0.0097 0.3517
C4 C -0.6588(9) -0.0970(5) 0.6697(3)
C5 C -0.6979(8) -0.1024(4) 0.5320(3)
C6 C -0.6848(9) -0.3398(4) 0.4183(3)
C7 C -0.6184(9) -0.2495(5) 0.6056(3)
H7 H -0.5871 -0.2783 0.6501
C8 C -0.7507(10) -0.1175(5) 0.4028(3)
H8 H -0.7585 -0.1565 0.3621
C9 C -0.7762(12) 0.0406(5) 0.4573(4)
H9 H -0.7993 0.1087 0.4526
C10 C -0.6272(9) -0.3093(5) 0.5453(3)
H10 H -0.6033 -0.3773 0.5499
C11 C -0.6711(8) -0.2676(4) 0.4788(3)
C12 C -0.6552(8) -0.1485(4) 0.6004(3)
C13 C -0.7033(8) -0.1637(4) 0.4703(3)
C16 C -0.9152(17) -0.7134(9) 0.2788(5)
H15 H -0.8508 -0.7758 0.2755
H16 H -1.0371 -0.7215 0.2529
U1C U -0.72745(3) -0.021267(16) 0.800641(10)
O3C O -0.6199(7) -0.3536(3) 0.2260(2)
O4C O -0.7068(7) -0.4934(3) 0.1742(2)
O7 O -0.9303(7) 0.3976(4) 0.5085(2)
H1 H -0.8745 0.3915 0.4749
O8 O -0.6996(9) 0.2410(5) 0.6500(3)
H2 H -0.7660 0.2102 0.6729
C14 C -0.8127(12) 0.3758(7) 0.5723(4)
H11 H -0.6923 0.4014 0.5689
H12 H -0.8565 0.4102 0.6111
C15 C -0.7998(15) 0.2739(8) 0.5876(7)
H13 H -0.9228 0.2490 0.5861
H14 H -0.7504 0.2418 0.5491
loop_
_geom_bond_atom_site_label_1
_geom_bond_atom_site_label_2
_geom_bond_site_symmetry_1
_geom_bond_site_symmetry_2
U1 O1 1_555 1_555
O1 C6 1_555 1_555
O2 U1 1_555 1_555
O3 C4 1_555 1_555
O4 C4 1_555 1_555
O5 U1 1_555 1_555
O6 U1 1_555 1_555
O7 H1 1_555 1_555
O8 H2 1_555 1_555
O9 U1 1_555 1_555
O10 U1 1_555 1_555
C1 O10 1_555 1_555
H3 C1 1_555 1_555
H4 C1 1_555 1_555
C2 H5 1_555 1_555
C3 H6 1_555 1_555
C4 C12 1_555 1_555
C5 C2 1_555 1_555
C6 O2 1_555 1_555
C7 H7 1_555 1_555
C8 C3 1_555 1_555
H8 C8 1_555 1_555
C9 C2 1_555 1_555
H9 C9 1_555 1_555
C10 C7 1_555 1_555
H10 C10 1_555 1_555
C11 C6 1_555 1_555
C12 C5 1_555 1_555
C13 C5 1_555 1_555
C14 O7 1_555 1_555
H11 C14 1_555 1_555
H12 C14 1_555 1_555
C15 O8 1_555 1_555
H13 C15 1_555 1_555
H14 C15 1_555 1_555
C16 O9 1_555 1_555
H15 C16 1_555 1_555
H16 C16 1_555 1_555
U1C O3 1_555 1_555
O3C U1 1_555 1_555
O4C U1 1_555 1_555
O4 U1C 1_555 1_555
C1 C16 1_555 1_555
C3 C9 1_555 1_555
C7 C12 1_555 1_555
C8 C13 1_555 1_555
C10 C11 1_555 1_555
C11 C13 1_555 1_555
C14 C15 1_555 1_555

#END
