
#######################################################################
#
#                 Cambridge Crystallographic Data Centre
#                                CCDC 
#
#######################################################################
#
# If this CIF has been generated from an entry in the Cambridge 
# Structural Database, then it will include bibliographic, chemical, 
# crystal, experimental, refinement or atomic coordinate data resulting 
# from the CCDC's data processing and validation procedures.
#
#######################################################################

data_IMEZEG
_symmetry_cell_setting           monoclinic
_symmetry_space_group_name_H-M   'P 21/n'
_symmetry_Int_Tables_number      14
_space_group_name_Hall           '-P 2yn'
loop_
_symmetry_equiv_pos_site_id
_symmetry_equiv_pos_as_xyz
1 x,y,z
2 1/2-x,1/2+y,1/2-z
3 -x,-y,-z
4 1/2+x,1/2-y,1/2+z
_cell_length_a                   7.8208(16)
_cell_length_b                   24.616(5)
_cell_length_c                   10.961(2)
_cell_angle_alpha                90
_cell_angle_beta                 104.91(3)
_cell_angle_gamma                90
_cell_volume                     2039.13
loop_
_atom_site_label
_atom_site_type_symbol
_atom_site_fract_x
_atom_site_fract_y
_atom_site_fract_z
U1 U -0.32514(5) 0.137258(15) -0.60300(3)
S1 S -0.6046(4) 0.08546(12) -0.4260(3)
C1 C -0.7711(13) 0.0808(4) -1.0346(9)
O1 O -0.5816(10) 0.1005(3) -0.7621(7)
C2 C -0.6908(13) 0.1307(4) -0.9775(10)
C3 C -0.9129(12) 0.0850(4) -1.1480(9)
C4 C -0.7442(14) 0.1798(5) -1.0332(10)
H1 H -0.6892 0.2122 -0.9950
C5 C -0.5616(14) 0.1315(5) -0.8480(11)
O2 O -0.4366(10) 0.1654(3) -0.8261(7)
C6 C -0.8784(15) 0.1830(5) -1.1454(10)
H2 H -0.9084 0.2171 -1.1856
O3 O -0.4706(11) 0.0742(3) -0.5038(7)
C7 C -0.9909(15) 0.0366(4) -1.2036(10)
H3 H -1.0863 0.0385 -1.2774
C8 C -0.7918(16) -0.0166(5) -1.0464(11)
H4 H -0.7504 -0.0513 -1.0139
C9 C -0.9333(16) -0.0128(5) -1.1546(12)
H5 H -0.9892 -0.0449 -1.1938
C10 C -0.7135(14) 0.0288(5) -0.9876(11)
H6 H -0.6186 0.0256 -0.9138
C11 C -0.9660(14) 0.1374(4) -1.1972(10)
C12 C -0.5286(17) 0.0443(6) -0.2912(11)
H7 H -0.4210 0.0603 -0.2366
H8 H -0.5024 0.0078 -0.3172
H9 H -0.6201 0.0421 -0.2449
C13 C -0.7904(18) 0.0462(6) -0.5019(14)
H10 H -0.8520 0.0638 -0.5812
H11 H -0.8708 0.0431 -0.4468
H12 H -0.7515 0.0099 -0.5197
O4 O -0.4560(9) 0.1899(3) -0.5641(7)
O5 O -0.1996(10) 0.0842(3) -0.6443(8)
O6 O -0.1229(10) 0.2024(3) -0.6452(8)
C14 C 0.171(2) 0.2492(10) -0.531(2)
H13 H 0.1229 0.2837 -0.5691
H14 H 0.2996 0.2488 -0.5186
H15 H 0.1437 0.2450 -0.4489
C15 C 0.110(3) 0.2208(11) -0.773(2)
H16 H 0.0450 0.1980 -0.8427
H17 H 0.2366 0.2198 -0.7691
H18 H 0.0672 0.2583 -0.7859
S2 S 0.0770(5) 0.19599(15) -0.6293(4)
O7 O -1.111(2) 0.1384(7) -1.4129(12)
O8 O -1.2760(17) 0.1518(6) -1.2826(13)
C16 C -1.119(2) 0.1415(5) -1.3133(19)
U1_2 U -1.32514(5) 0.137258(15) -1.60300(3)
O7_2 O -0.111(2) 0.1384(7) -0.4129(12)
loop_
_geom_bond_atom_site_label_1
_geom_bond_atom_site_label_2
_geom_bond_site_symmetry_1
_geom_bond_site_symmetry_2
U1 O1 1_555 1_555
S1 O3 1_555 1_555
C1 C2 1_555 1_555
O1 C5 1_555 1_555
C2 C4 1_555 1_555
C3 C1 1_555 1_555
C4 H1 1_555 1_555
C5 C2 1_555 1_555
O2 U1 1_555 1_555
C6 C4 1_555 1_555
H2 C6 1_555 1_555
O3 U1 1_555 1_555
C7 C3 1_555 1_555
H3 C7 1_555 1_555
C8 H4 1_555 1_555
C9 C7 1_555 1_555
H5 C9 1_555 1_555
C10 C1 1_555 1_555
H6 C10 1_555 1_555
C11 C3 1_555 1_555
C12 S1 1_555 1_555
H7 C12 1_555 1_555
H8 C12 1_555 1_555
H9 C12 1_555 1_555
C13 S1 1_555 1_555
H10 C13 1_555 1_555
H11 C13 1_555 1_555
H12 C13 1_555 1_555
O4 U1 1_555 1_555
O5 U1 1_555 1_555
O6 U1 1_555 1_555
C14 H13 1_555 1_555
H14 C14 1_555 1_555
H15 C14 1_555 1_555
C15 H16 1_555 1_555
H17 C15 1_555 1_555
H18 C15 1_555 1_555
S2 O6 1_555 1_555
O7 C16 1_555 1_555
O8 C16 1_555 1_555
C16 C11 1_555 1_555
U1_2 O7 1_555 1_555
O7_2 U1 1_555 1_555
C5 O2 1_555 1_555
C6 C11 1_555 1_555
C8 C9 1_555 1_555
C8 C10 1_555 1_555
C14 S2 1_555 1_555
C15 S2 1_555 1_555

#END
