
#######################################################################
#
#                 Cambridge Crystallographic Data Centre
#                                CCDC 
#
#######################################################################
#
# If this CIF has been generated from an entry in the Cambridge 
# Structural Database, then it will include bibliographic, chemical, 
# crystal, experimental, refinement or atomic coordinate data resulting 
# from the CCDC's data processing and validation procedures.
#
#######################################################################

data_IMIBIQ
_symmetry_cell_setting           monoclinic
_symmetry_space_group_name_H-M   'C 2/c'
_symmetry_Int_Tables_number      15
_space_group_name_Hall           '-C 2yn'
loop_
_symmetry_equiv_pos_site_id
_symmetry_equiv_pos_as_xyz
1 x,y,z
2 -x,y,1/2-z
3 1/2+x,1/2+y,z
4 1/2-x,1/2+y,1/2-z
5 -x,-y,-z
6 x,-y,1/2+z
7 1/2-x,1/2-y,-z
8 1/2+x,1/2-y,1/2+z
_cell_length_a                   24.193(2)
_cell_length_b                   19.0897(16)
_cell_length_c                   7.1598(6)
_cell_angle_alpha                90
_cell_angle_beta                 100.712(2)
_cell_angle_gamma                90
_cell_volume                     3249.04
loop_
_atom_site_label
_atom_site_type_symbol
_atom_site_fract_x
_atom_site_fract_y
_atom_site_fract_z
S1 S 0.77968(5) 0.60130(5) -1.06201(15)
Ag1 Ag 0.5000 0.22047(4) -0.7500
N1 N 0.59016(18) 0.4126(2) -0.9802(6)
N2 N 0.5382(3) 0.4288(5) -1.029(2)
N3 N 0.5090(3) 0.3722(5) -1.0003(19)
N4 N 0.5422(3) 0.3229(3) -0.9244(9)
N5 N 0.88247(16) 0.69873(18) -0.2880(5)
N6 N 0.8668(2) 0.7613(2) -0.2241(6)
N7 N 0.8948(2) 0.7695(2) -0.0547(7)
N8 N 0.92956(19) 0.7135(2) -0.0033(6)
N9 N 0.5000 0.0154(2) -0.7500
O1 O 0.82014(15) 0.56009(18) -1.1376(5)
O2 O 0.75542(17) 0.66199(17) -1.1640(5)
O3 O 0.5000 0.0847(6) -0.7500
O4 O 0.5343(6) -0.0227(6) -0.878(4)
C1 C 0.72291(18) 0.5458(2) -1.0314(5)
C2 C 0.6722(2) 0.5741(2) -1.0133(6)
H1 H 0.6677 0.6225 -1.0134
C3 C 0.62764(19) 0.5308(3) -0.9949(6)
H2 H 0.5931 0.5495 -0.9809
C4 C 0.6358(2) 0.4589(2) -0.9979(6)
C5 C 0.68653(19) 0.4303(2) -1.0171(6)
H3 H 0.6908 0.3819 -1.0202
C6 C 0.73103(18) 0.4737(2) -1.0319(6)
H4 H 0.7659 0.4550 -1.0420
C7 C 0.5915(3) 0.3477(3) -0.9135(9)
H5 H 0.6244 0.3234 -0.8649
C8 C 0.81064(19) 0.6289(2) -0.8306(6)
C9 C 0.8571(2) 0.5940(2) -0.7313(7)
H6 H 0.8720 0.5557 -0.7852
C10 C 0.8813(2) 0.6168(3) -0.5504(7)
H7 H 0.9126 0.5941 -0.4819
C11 C 0.85821(19) 0.6737(2) -0.4734(6)
C12 C 0.8117(2) 0.7083(2) -0.5722(7)
H8 H 0.7968 0.7466 -0.5182
C13 C 0.7878(2) 0.6858(2) -0.7510(7)
H9 H 0.7563 0.7085 -0.8186
C14 C 0.9206(2) 0.6706(2) -0.1495(7)
H10 H 0.9381 0.6275 -0.1555
S1A S 0.22032(5) 0.60130(5) -0.43799(15)
Ag1B Ag 1.0000 0.72047(4) 0.2500
Ag1B_2 Ag 0.0000 0.72047(4) -1.7500
N1A N 0.40984(18) 0.4126(2) -0.5198(6)
N2A N 0.4618(3) 0.4288(5) -0.471(2)
N3A N 0.4910(3) 0.3722(5) -0.4997(19)
N4A N 0.4578(3) 0.3229(3) -0.5756(9)
N5A N 0.11753(16) 0.69873(18) -1.2120(5)
N6A N 0.1332(2) 0.7613(2) -1.2759(6)
N7A N 0.1052(2) 0.7695(2) -1.4453(7)
N8A N 0.07044(19) 0.7135(2) -1.4967(6)
N8B N 0.42956(19) 0.2135(2) -1.0033(6)
N8C N 0.57044(19) 0.2135(2) -0.4967(6)
O1A O 0.17986(15) 0.56009(18) -0.3624(5)
O2A O 0.24458(17) 0.66199(17) -0.3360(5)
O4A O 0.4657(6) -0.0227(6) -0.622(4)
C1A C 0.27709(18) 0.5458(2) -0.4686(5)
C2A C 0.3278(2) 0.5741(2) -0.4867(6)
H1A H 0.3323 0.6225 -0.4866
C3A C 0.37236(19) 0.5308(3) -0.5051(6)
H2A H 0.4069 0.5495 -0.5191
C4A C 0.3642(2) 0.4589(2) -0.5021(6)
C5A C 0.31347(19) 0.4303(2) -0.4829(6)
H3A H 0.3092 0.3819 -0.4798
C6A C 0.26897(18) 0.4737(2) -0.4681(6)
H4A H 0.2341 0.4550 -0.4580
C7A C 0.4085(3) 0.3477(3) -0.5865(9)
H5A H 0.3756 0.3234 -0.6351
C8A C 0.18936(19) 0.6289(2) -0.6694(6)
C9A C 0.1429(2) 0.5940(2) -0.7687(7)
H6A H 0.1280 0.5557 -0.7148
C10A C 0.1187(2) 0.6168(3) -0.9496(7)
H7A H 0.0874 0.5941 -1.0181
C11A C 0.14179(19) 0.6737(2) -1.0266(6)
C12A C 0.1883(2) 0.7083(2) -0.9278(7)
H8A H 0.2032 0.7466 -0.9818
C13A C 0.2122(2) 0.6858(2) -0.7490(7)
H9A H 0.2437 0.7085 -0.6814
C14A C 0.0794(2) 0.6706(2) -1.3505(7)
H10A H 0.0619 0.6275 -1.3445
loop_
_geom_bond_atom_site_label_1
_geom_bond_atom_site_label_2
_geom_bond_site_symmetry_1
_geom_bond_site_symmetry_2
S1 O1 1_555 1_555
Ag1 N4 1_555 1_555
N1 N2 1_555 1_555
N2 N3 1_555 1_555
N3 N4 1_555 1_555
N4 C7 1_555 1_555
N5 N6 1_555 1_555
N6 N7 1_555 1_555
N7 N8 1_555 1_555
N8 C14 1_555 1_555
N9 O3 1_555 1_555
O2 S1 1_555 1_555
O3 Ag1 1_555 1_555
O4 N9 1_555 1_555
C1 S1 1_555 1_555
C2 C1 1_555 1_555
H1 C2 1_555 1_555
C3 C2 1_555 1_555
H2 C3 1_555 1_555
C4 N1 1_555 1_555
C5 C4 1_555 1_555
H3 C5 1_555 1_555
C6 C1 1_555 1_555
H4 C6 1_555 1_555
C7 N1 1_555 1_555
H5 C7 1_555 1_555
C8 S1 1_555 1_555
C9 C8 1_555 1_555
H6 C9 1_555 1_555
C10 C9 1_555 1_555
H7 C10 1_555 1_555
C11 N5 1_555 1_555
C12 C11 1_555 1_555
H8 C12 1_555 1_555
C13 C8 1_555 1_555
H9 C13 1_555 1_555
C14 N5 1_555 1_555
H10 C14 1_555 1_555
S1A O1A 1_555 1_555
Ag1B N8 1_555 1_555
Ag1B_2 N8A 1_555 1_555
N1A N2A 1_555 1_555
N2A N3A 1_555 1_555
N3A N4A 1_555 1_555
N4A Ag1 1_555 1_555
N5A N6A 1_555 1_555
N6A N7A 1_555 1_555
N7A N8A 1_555 1_555
N8A C14A 1_555 1_555
N8B Ag1 1_555 1_555
N8C Ag1 1_555 1_555
O2A S1A 1_555 1_555
O4A N9 1_555 1_555
C1A S1A 1_555 1_555
C2A C1A 1_555 1_555
H1A C2A 1_555 1_555
C3A C2A 1_555 1_555
H2A C3A 1_555 1_555
C4A N1A 1_555 1_555
C5A C4A 1_555 1_555
H3A C5A 1_555 1_555
C6A C1A 1_555 1_555
H4A C6A 1_555 1_555
C7A N1A 1_555 1_555
H5A C7A 1_555 1_555
C8A S1A 1_555 1_555
C9A C8A 1_555 1_555
H6A C9A 1_555 1_555
C10A C9A 1_555 1_555
H7A C10A 1_555 1_555
C11A N5A 1_555 1_555
C12A C11A 1_555 1_555
H8A C12A 1_555 1_555
C13A C8A 1_555 1_555
H9A C13A 1_555 1_555
C14A N5A 1_555 1_555
H10A C14A 1_555 1_555
C3 C4 1_555 1_555
C5 C6 1_555 1_555
C10 C11 1_555 1_555
C12 C13 1_555 1_555
N4A C7A 1_555 1_555
C3A C4A 1_555 1_555
C5A C6A 1_555 1_555
C10A C11A 1_555 1_555
C12A C13A 1_555 1_555

#END
