
#######################################################################
#
#                 Cambridge Crystallographic Data Centre
#                                CCDC 
#
#######################################################################
#
# If this CIF has been generated from an entry in the Cambridge 
# Structural Database, then it will include bibliographic, chemical, 
# crystal, experimental, refinement or atomic coordinate data resulting 
# from the CCDC's data processing and validation procedures.
#
#######################################################################

data_IMIBEM
_symmetry_cell_setting           monoclinic
_symmetry_space_group_name_H-M   'C 2/c'
_symmetry_Int_Tables_number      15
_space_group_name_Hall           '-C 2yn'
loop_
_symmetry_equiv_pos_site_id
_symmetry_equiv_pos_as_xyz
1 x,y,z
2 -x,y,1/2-z
3 1/2+x,1/2+y,z
4 1/2-x,1/2+y,1/2-z
5 -x,-y,-z
6 x,-y,1/2+z
7 1/2-x,1/2-y,-z
8 1/2+x,1/2-y,1/2+z
_cell_length_a                   31.229(3)
_cell_length_b                   5.6630(5)
_cell_length_c                   23.419(2)
_cell_angle_alpha                90
_cell_angle_beta                 125.764(1)
_cell_angle_gamma                90
_cell_volume                     3360.66
loop_
_atom_site_label
_atom_site_type_symbol
_atom_site_fract_x
_atom_site_fract_y
_atom_site_fract_z
O4 O -0.1648(2) 0.2891(17) -0.4408(3)
H1 H -0.1878 0.1905 -0.4701
H2 H -0.1710 0.3755 -0.4168
Ag1 Ag 0.5000 0.64521(7) 0.2500
N2 N 0.46788(10) 1.1533(4) 0.08408(13)
N3 N 0.51035(11) 1.0383(6) 0.09644(15)
N4 N 0.52294(12) 0.8817(5) 0.14377(16)
N5 N 0.48956(11) 0.8905(5) 0.16260(14)
N6 N 0.15321(9) 2.0447(5) -0.19801(13)
N7 N 0.13123(12) 2.2600(6) -0.21610(19)
N8 N 0.08566(12) 2.2409(6) -0.22727(19)
N9 N 0.07774(10) 2.0188(5) -0.21658(15)
C1 C 0.38703(11) 1.6716(5) -0.07376(16)
C2 C 0.38327(14) 1.6640(6) -0.01762(17)
C3 C 0.41052(13) 1.4979(6) 0.03508(17)
C4 C 0.44133(11) 1.3351(5) 0.03112(15)
C5 C 0.44626(12) 1.3384(6) -0.02369(17)
C6 C 0.41895(11) 1.5075(6) -0.07591(16)
C7 C 0.45617(13) 1.0597(7) 0.12535(17)
C8 C 0.35729(13) 1.8538(6) -0.13174(19)
C9 C 0.30330(11) 1.9097(5) -0.14919(15)
C10 C 0.29390(12) 2.1129(5) -0.12558(17)
C11 C 0.24487(13) 2.1597(6) -0.14080(18)
C12 C 0.20482(10) 2.0002(5) -0.18121(15)
C13 C 0.21281(13) 1.7957(6) -0.20582(18)
C14 C 0.26188(12) 1.7525(6) -0.18936(17)
C15 C 0.11992(14) 1.8999(6) -0.1981(2)
H3 H 0.3606(16) 1.772(7) -0.0171(19)
H4 H 0.4094(13) 1.499(6) 0.0722(18)
H5 H 0.4675(13) 1.221(6) -0.0252(16)
H6 H 0.4195(11) 1.513(5) -0.1162(15)
H7 H 0.4339(18) 1.112(7) 0.132(2)
H8 H 0.3546(14) 1.800(6) -0.171(2)
H9 H 0.3796(13) 2.008(6) -0.1199(16)
H10 H 0.3198(18) 2.210(7) -0.099(2)
H11 H 0.2427(14) 2.290(7) -0.1227(18)
H12 H 0.1850(16) 1.686(7) -0.234(2)
H13 H 0.2656(14) 1.611(6) -0.2034(18)
H14 H 0.1246(16) 1.730(8) -0.182(2)
N2F N 0.03212(10) 1.3467(4) -0.08408(13)
N3F N -0.01035(11) 1.4617(6) -0.09644(15)
N4F N -0.02294(12) 1.6183(5) -0.14377(16)
N5F N 0.01044(11) 1.6095(5) -0.16260(14)
N6F N 0.34679(9) 0.4553(5) 0.19801(13)
N7F N 0.36877(12) 0.2400(6) 0.21610(19)
N8F N 0.41434(12) 0.2591(6) 0.22727(19)
N9F N 0.42226(10) 0.4812(5) 0.21658(15)
C1F C 0.11297(11) 0.8284(5) 0.07376(16)
C2F C 0.11673(14) 0.8360(6) 0.01762(17)
C3F C 0.08948(13) 1.0021(6) -0.03508(17)
C4F C 0.05867(11) 1.1649(5) -0.03112(15)
C5F C 0.05374(12) 1.1616(6) 0.02369(17)
C6F C 0.08105(11) 0.9925(6) 0.07591(16)
C7F C 0.04383(13) 1.4403(7) -0.12535(17)
C8F C 0.14271(13) 0.6462(6) 0.13174(19)
C9F C 0.19670(11) 0.5903(5) 0.14919(15)
C10F C 0.20610(12) 0.3871(5) 0.12558(17)
C11F C 0.25513(13) 0.3403(6) 0.14080(18)
C12F C 0.29518(10) 0.4998(5) 0.18121(15)
C13F C 0.28719(13) 0.7043(6) 0.20582(18)
C14F C 0.23812(12) 0.7475(6) 0.18936(17)
C15F C 0.38008(14) 0.6001(6) 0.1981(2)
H3F H 0.1394(16) 0.728(7) 0.0171(19)
H4F H 0.0906(13) 1.001(6) -0.0722(18)
H5F H 0.0325(13) 1.279(6) 0.0252(16)
H6F H 0.0805(11) 0.987(5) 0.1162(15)
H7F H 0.0661(18) 1.388(7) -0.132(2)
H8F H 0.1454(14) 0.700(6) 0.171(2)
H9F H 0.1204(13) 0.492(6) 0.1199(16)
H10F H 0.1802(18) 0.290(7) 0.099(2)
H11F H 0.2573(14) 0.210(7) 0.1227(18)
H12F H 0.3150(16) 0.814(7) 0.234(2)
H13F H 0.2344(14) 0.889(6) 0.2034(18)
H14F H 0.3754(16) 0.770(8) 0.182(2)
N5A N 0.51044(11) 0.8905(5) 0.33740(14)
N9G N 0.57774(10) 0.4812(5) 0.28342(15)
Ag1F Ag 0.0000 1.85479(7) -0.2500
N1 N -0.2500 -0.2500 -0.5000
O1 O -0.3005(2) -0.276(7) -0.5429(9)
O2 O -0.2080(8) -0.380(4) -0.4520(12)
O3 O -0.2419(11) -0.0527(17) -0.5174(17)
O1F O -0.1995(2) -0.224(7) -0.4571(9)
O2F O -0.2920(8) -0.120(4) -0.5480(12)
O3F O -0.2581(11) -0.4473(17) -0.4826(17)
loop_
_geom_bond_atom_site_label_1
_geom_bond_atom_site_label_2
_geom_bond_site_symmetry_1
_geom_bond_site_symmetry_2
N1 O1 1_555 1_555
O2 N1 1_555 1_555
O3 N1 1_555 1_555
O4 H1 1_555 1_555
H2 O4 1_555 1_555
Ag1 N5 1_555 1_555
N2 N3 1_555 1_555
N3 N4 1_555 1_555
N4 N5 1_555 1_555
N5 C7 1_555 1_555
N6 N7 1_555 1_555
N7 N8 1_555 1_555
N8 N9 1_555 1_555
N9 C15 1_555 1_555
C1 C2 1_555 1_555
C2 C3 1_555 1_555
C3 C4 1_555 1_555
C4 N2 1_555 1_555
C5 C4 1_555 1_555
C6 C1 1_555 1_555
C7 N2 1_555 1_555
C8 C1 1_555 1_555
C9 C8 1_555 1_555
C10 C9 1_555 1_555
C11 C10 1_555 1_555
C12 N6 1_555 1_555
C13 C12 1_555 1_555
C14 C9 1_555 1_555
C15 N6 1_555 1_555
H3 C2 1_555 1_555
H4 C3 1_555 1_555
H5 C5 1_555 1_555
H6 C6 1_555 1_555
H7 C7 1_555 1_555
H8 C8 1_555 1_555
H9 C8 1_555 1_555
H10 C10 1_555 1_555
H11 C11 1_555 1_555
H12 C13 1_555 1_555
H13 C14 1_555 1_555
H14 C15 1_555 1_555
O1F N1 1_555 1_555
O2F N1 1_555 1_555
O3F N1 1_555 1_555
N2F N3F 1_555 1_555
N3F N4F 1_555 1_555
N4F N5F 1_555 1_555
N5F C7F 1_555 1_555
N6F N7F 1_555 1_555
N7F N8F 1_555 1_555
N8F N9F 1_555 1_555
N9F Ag1 1_555 1_555
C1F C2F 1_555 1_555
C2F C3F 1_555 1_555
C3F C4F 1_555 1_555
C4F N2F 1_555 1_555
C5F C4F 1_555 1_555
C6F C1F 1_555 1_555
C7F N2F 1_555 1_555
C8F C1F 1_555 1_555
C9F C8F 1_555 1_555
C10F C9F 1_555 1_555
C11F C10F 1_555 1_555
C12F N6F 1_555 1_555
C13F C12F 1_555 1_555
C14F C9F 1_555 1_555
C15F N6F 1_555 1_555
H3F C2F 1_555 1_555
H4F C3F 1_555 1_555
H5F C5F 1_555 1_555
H6F C6F 1_555 1_555
H7F C7F 1_555 1_555
H8F C8F 1_555 1_555
H9F C8F 1_555 1_555
H10F C10F 1_555 1_555
H11F C11F 1_555 1_555
H12F C13F 1_555 1_555
H13F C14F 1_555 1_555
H14F C15F 1_555 1_555
N5A Ag1 1_555 1_555
N9G Ag1 1_555 1_555
Ag1F N9 1_555 1_555
C5 C6 1_555 1_555
C11 C12 1_555 1_555
C13 C14 1_555 1_555
N5F Ag1F 1_555 1_555
N9F C15F 1_555 1_555
C5F C6F 1_555 1_555
C11F C12F 1_555 1_555
C13F C14F 1_555 1_555

#END
