
#######################################################################
#
#                 Cambridge Crystallographic Data Centre
#                                CCDC 
#
#######################################################################
#
# If this CIF has been generated from an entry in the Cambridge 
# Structural Database, then it will include bibliographic, chemical, 
# crystal, experimental, refinement or atomic coordinate data resulting 
# from the CCDC's data processing and validation procedures.
#
#######################################################################

data_IMIBAI
_symmetry_cell_setting           orthorhombic
_symmetry_space_group_name_H-M   'P b c a'
_symmetry_Int_Tables_number      61
_space_group_name_Hall           '-P 2ac 2ab'
loop_
_symmetry_equiv_pos_site_id
_symmetry_equiv_pos_as_xyz
1 x,y,z
2 1/2-x,-y,1/2+z
3 -x,1/2+y,1/2-z
4 1/2+x,1/2-y,-z
5 -x,-y,-z
6 1/2+x,y,1/2-z
7 x,1/2-y,1/2+z
8 1/2-x,1/2+y,z
_cell_length_a                   7.5322(15)
_cell_length_b                   12.251(2)
_cell_length_c                   17.096(3)
_cell_angle_alpha                90
_cell_angle_beta                 90
_cell_angle_gamma                90
_cell_volume                     1577.57
loop_
_atom_site_label
_atom_site_type_symbol
_atom_site_fract_x
_atom_site_fract_y
_atom_site_fract_z
Cu1 Cu 0.24274(6) 0.37347(3) 0.43957(3)
P1 P 0.14872(13) 0.61832(7) 0.44451(5)
O1 O 0.2858(3) 0.5281(2) 0.45912(16)
O2 O 0.0347(4) 0.6429(2) 0.51534(15)
O3 O 0.2438(3) 0.7190(2) 0.41415(16)
O4 O 0.3892(4) 0.3494(2) 0.53479(14)
H1 H 0.4094 0.2774 0.5404
H2 H 0.4828 0.3947 0.5389
N1 N 0.1664(4) 0.4049(2) 0.32723(17)
C1 C 0.2237(6) 0.3379(4) 0.2708(2)
H3 H 0.2812 0.2739 0.2854
C2 C 0.2018(6) 0.3589(4) 0.1918(3)
H4 H 0.2431 0.3101 0.1543
C3 C 0.1178(6) 0.4531(4) 0.1704(2)
H5 H 0.1021 0.4697 0.1178
C4 C 0.0562(5) 0.5238(3) 0.2275(2)
H6 H -0.0006 0.5883 0.2135
C5 C 0.0801(5) 0.4974(3) 0.3064(2)
C6 C 0.0022(5) 0.5658(3) 0.3703(2)
H7 H -0.0886 0.5228 0.3961
H8 H -0.0569 0.6275 0.3460
Cu1D Cu -0.24274(6) 0.62653(3) 0.56043(3)
Cu1G Cu 0.25726(6) 0.87347(3) 0.43957(3)
O2D O -0.0347(4) 0.3571(2) 0.48466(15)
O3G O 0.2562(3) 0.2190(2) 0.41415(16)
loop_
_geom_bond_atom_site_label_1
_geom_bond_atom_site_label_2
_geom_bond_site_symmetry_1
_geom_bond_site_symmetry_2
Cu1 O1 1_555 1_555
P1 O1 1_555 1_555
O2 P1 1_555 1_555
O3 P1 1_555 1_555
O4 Cu1 1_555 1_555
H1 O4 1_555 1_555
H2 O4 1_555 1_555
N1 Cu1 1_555 1_555
C1 N1 1_555 1_555
H3 C1 1_555 1_555
C2 C1 1_555 1_555
H4 C2 1_555 1_555
C3 C2 1_555 1_555
H5 C3 1_555 1_555
C4 C3 1_555 1_555
H6 C4 1_555 1_555
C5 N1 1_555 1_555
C6 P1 1_555 1_555
H7 C6 1_555 1_555
H8 C6 1_555 1_555
Cu1D O2 1_555 1_555
Cu1G O3 1_555 1_555
O2D Cu1 1_555 1_555
O3G Cu1 1_555 1_555
C4 C5 1_555 1_555
C5 C6 1_555 1_555

#END
