
#######################################################################
#
#                 Cambridge Crystallographic Data Centre
#                                CCDC 
#
#######################################################################
#
# If this CIF has been generated from an entry in the Cambridge 
# Structural Database, then it will include bibliographic, chemical, 
# crystal, experimental, refinement or atomic coordinate data resulting 
# from the CCDC's data processing and validation procedures.
#
#######################################################################

data_IMIDZB12
_symmetry_cell_setting           orthorhombic
_symmetry_space_group_name_H-M   'P b c a'
_symmetry_Int_Tables_number      61
_space_group_name_Hall           '-P 2ac 2ab'
loop_
_symmetry_equiv_pos_site_id
_symmetry_equiv_pos_as_xyz
1 x,y,z
2 -x,1/2+y,1/2-z
3 1/2-x,-y,1/2+z
4 1/2+x,1/2-y,-z
5 -x,-y,-z
6 x,1/2-y,1/2+z
7 1/2+x,y,1/2-z
8 1/2-x,1/2+y,z
_cell_length_a                   14.26692(10)
_cell_length_b                   14.28433(9)
_cell_length_c                   16.41267(12)
_cell_angle_alpha                90
_cell_angle_beta                 90
_cell_angle_gamma                90
_cell_volume                     3344.79
loop_
_atom_site_label
_atom_site_type_symbol
_atom_site_fract_x
_atom_site_fract_y
_atom_site_fract_z
Zn1 Zn 0.25898(15) 0.33566(14) 0.06971(10)
Zn2 Zn -0.02667(12) 0.10106(14) 0.22514(10)
N1 N 0.1241(12) 0.3096(6) 0.1109(7)
N2 N 0.0247(7) 0.2215(10) 0.1775(6)
C1 C 0.0974(6) 0.2237(5) 0.1290(5)
C2 C -0.0003(13) 0.3181(12) 0.1915(9)
C3 C 0.0621(18) 0.3698(6) 0.1496(10)
N3 N 0.3133(15) 0.423(3) 0.1555(7)
N4 N 0.4262(14) 0.5091(13) 0.2101(5)
C4 C 0.3969(6) 0.4630(6) 0.1459(4)
C5 C 0.3519(11) 0.4963(18) 0.2717(5)
C6 C 0.2845(15) 0.443(4) 0.2343(9)
N5 N 0.3349(10) 0.2137(8) 0.0839(6)
N6 N 0.4275(6) 0.1360(9) 0.1680(9)
C7 C 0.3459(5) 0.1798(6) 0.1580(5)
C8 C 0.4710(9) 0.1452(11) 0.0952(12)
C9 C 0.4148(13) 0.1929(11) 0.0430(7)
N7 N 0.2885(8) 0.4007(7) -0.0267(7)
N8 N 0.3740(8) 0.4343(6) -0.1370(8)
C10 C 0.3365(6) 0.3677(3) -0.0886(6)
C11 C 0.3491(13) 0.5198(3) -0.1015(12)
C12 C 0.2959(12) 0.4981(7) -0.0329(11)
Zn2G Zn 0.52667(12) 0.60106(14) 0.22514(10)
Zn2C Zn 0.47333(12) 0.39894(14) -0.22514(10)
Zn2F Zn 0.47333(12) 0.10106(14) 0.27486(10)
N4G N 0.0738(14) 0.0091(13) 0.2101(5)
N6F N -0.0725(6) 0.1360(9) 0.3320(9)
N8C N -0.1260(8) 0.0657(6) 0.1370(8)
loop_
_geom_bond_atom_site_label_1
_geom_bond_atom_site_label_2
_geom_bond_site_symmetry_1
_geom_bond_site_symmetry_2
Zn1 N1 1_555 1_555
Zn2 N2 1_555 1_555
N1 C1 1_555 1_555
N2 C1 1_555 1_555
C2 N2 1_555 1_555
C3 N1 1_555 1_555
N3 Zn1 1_555 1_555
N4 C4 1_555 1_555
C4 N3 1_555 1_555
C5 N4 1_555 1_555
C6 N3 1_555 1_555
N5 Zn1 1_555 1_555
N6 C7 1_555 1_555
C7 N5 1_555 1_555
C8 N6 1_555 1_555
C9 N5 1_555 1_555
N7 Zn1 1_555 1_555
N8 C10 1_555 1_555
C10 N7 1_555 1_555
C11 N8 1_555 1_555
C12 N7 1_555 1_555
Zn2G N4 1_555 1_555
Zn2C N8 1_555 1_555
Zn2F N6 1_555 1_555
N4G Zn2 1_555 1_555
N6F Zn2 1_555 1_555
N8C Zn2 1_555 1_555
C2 C3 1_555 1_555
C5 C6 1_555 1_555
C8 C9 1_555 1_555
C11 C12 1_555 1_555

#END
