
#######################################################################
#
#                 Cambridge Crystallographic Data Centre
#                                CCDC 
#
#######################################################################
#
# If this CIF has been generated from an entry in the Cambridge 
# Structural Database, then it will include bibliographic, chemical, 
# crystal, experimental, refinement or atomic coordinate data resulting 
# from the CCDC's data processing and validation procedures.
#
#######################################################################

data_IMIDZB
_symmetry_cell_setting           tetragonal
_symmetry_space_group_name_H-M   'I 41 c d'
_symmetry_Int_Tables_number      110
_space_group_name_Hall           'I 4bw -2c'
loop_
_symmetry_equiv_pos_site_id
_symmetry_equiv_pos_as_xyz
1 x,y,z
2 1/2+x,1/2+y,1/2+z
3 -y,1/2+x,1/4+z
4 1/2-y,x,3/4+z
5 -x,-y,z
6 1/2-x,1/2-y,1/2+z
7 y,1/2-x,1/4+z
8 1/2+y,-x,3/4+z
9 -x,y,1/2+z
10 1/2-x,1/2+y,z
11 y,1/2+x,3/4+z
12 1/2+y,x,1/4+z
13 x,-y,1/2+z
14 1/2+x,1/2-y,z
15 -y,1/2-x,3/4+z
16 1/2-y,-x,1/4+z
_cell_length_a                   23.481
_cell_length_b                   23.481
_cell_length_c                   12.461
_cell_angle_alpha                90
_cell_angle_beta                 90
_cell_angle_gamma                90
_cell_volume                     6870.46
loop_
_atom_site_label
_atom_site_type_symbol
_atom_site_fract_x
_atom_site_fract_y
_atom_site_fract_z
Zn1 Zn 0.35170 0.09660 0.27290
Zn2 Zn 0.39930 -0.14990 0.22720
N1 N 0.34560 0.01550 0.30570
N2 N 0.37100 -0.08030 0.29330
N3 N 0.29110 0.12070 0.17240
N4 N 0.21560 0.12250 0.06780
N5 N 0.36380 0.15550 0.58930
N6 N 0.34330 0.13860 0.41400
N7 N 0.51710 0.14250 0.19610
N8 N 0.42800 0.11660 0.20920
C1 C 0.38290 -0.02320 0.25250
C2 C 0.33270 -0.06900 0.37910
C3 C 0.31850 -0.01360 0.38830
C4 C 0.24690 0.09140 0.12850
C5 C 0.24470 0.17610 0.05770
C6 C 0.28730 0.17410 0.12710
C7 C 0.35940 0.11770 0.50940
C8 C 0.35920 0.20840 0.52810
C9 C 0.34230 0.19440 0.41940
C10 C 0.47510 0.12620 0.25870
C11 C 0.43660 0.14030 0.11230
C12 C 0.49380 0.14960 0.10740
Zn2N Zn 0.14990 0.10070 -0.02280
Zn2L Zn 0.39930 0.14990 0.72720
Zn2D Zn 0.60070 0.14990 0.22720
N4O N 0.37750 -0.21560 0.31780
N5L N 0.36380 -0.15550 0.08930
N7D N 0.48290 -0.14250 0.19610
loop_
_geom_bond_atom_site_label_1
_geom_bond_atom_site_label_2
_geom_bond_site_symmetry_1
_geom_bond_site_symmetry_2
Zn1 N1 1_555 1_555
Zn2 N2 1_555 1_555
N1 C1 1_555 1_555
N2 C1 1_555 1_555
N3 Zn1 1_555 1_555
N4 C4 1_555 1_555
N5 C7 1_555 1_555
N6 Zn1 1_555 1_555
N7 C10 1_555 1_555
N8 Zn1 1_555 1_555
C2 N2 1_555 1_555
C3 N1 1_555 1_555
C4 N3 1_555 1_555
C5 N4 1_555 1_555
C6 N3 1_555 1_555
C7 N6 1_555 1_555
C8 N5 1_555 1_555
C9 N6 1_555 1_555
C10 N8 1_555 1_555
C11 N8 1_555 1_555
C12 N7 1_555 1_555
Zn2N N4 1_555 1_555
Zn2L N5 1_555 1_555
Zn2D N7 1_555 1_555
N4O Zn2 1_555 1_555
N5L Zn2 1_555 1_555
N7D Zn2 1_555 1_555
C2 C3 1_555 1_555
C5 C6 1_555 1_555
C8 C9 1_555 1_555
C11 C12 1_555 1_555

#END
