
#######################################################################
#
#                 Cambridge Crystallographic Data Centre
#                                CCDC 
#
#######################################################################
#
# If this CIF has been generated from an entry in the Cambridge 
# Structural Database, then it will include bibliographic, chemical, 
# crystal, experimental, refinement or atomic coordinate data resulting 
# from the CCDC's data processing and validation procedures.
#
#######################################################################

data_IMIDZB05
_symmetry_cell_setting           tetragonal
_symmetry_space_group_name_H-M   'I 41 c d'
_symmetry_Int_Tables_number      110
_space_group_name_Hall           'I 4bw -2c'
loop_
_symmetry_equiv_pos_site_id
_symmetry_equiv_pos_as_xyz
1 x,y,z
2 1/2-x,1/2-y,1/2+z
3 -y,1/2+x,1/4+z
4 1/2+y,-x,3/4+z
5 x,-y,1/2+z
6 1/2-x,1/2+y,z
7 -y,1/2-x,3/4+z
8 1/2+y,x,1/4+z
9 1/2+x,1/2+y,1/2+z
10 -x,-y,z
11 1/2-y,x,3/4+z
12 y,1/2-x,1/4+z
13 1/2+x,1/2-y,z
14 -x,y,1/2+z
15 1/2-y,-x,1/4+z
16 y,1/2+x,3/4+z
_cell_length_a                   23.2297(4)
_cell_length_b                   23.2297(4)
_cell_length_c                   12.4296(5)
_cell_angle_alpha                90
_cell_angle_beta                 90
_cell_angle_gamma                90
_cell_volume                     6707.25
loop_
_atom_site_label
_atom_site_type_symbol
_atom_site_fract_x
_atom_site_fract_y
_atom_site_fract_z
Zn1 Zn 1.6471(2) 1.40196(19) -0.0045(4)
Zn2 Zn 1.8490(2) 1.39612(18) 0.2908(4)
C1 C 1.6214(9) 1.5264(10) 0.0127(16)
H1 H 1.5951 1.5200 0.0679
C2 C 1.6816(8) 1.5108(11) -0.1102(17)
H2 H 1.7078 1.4934 -0.1565
C3 C 1.6687(10) 1.5673(10) -0.1093(17)
H3 H 1.6825 1.5941 -0.1585
C4 C 1.5257(14) 1.3767(11) 0.0163(14)
H4 H 1.5218 1.3831 -0.0572
C5 C 1.5633(12) 1.3691(10) 0.1694(17)
H5 H 1.5887 1.3706 0.2272
C6 C 1.5084(12) 1.3508(13) 0.1749(18)
H6 H 1.4912 1.3351 0.2358
C7 C 1.6441(9) 1.3802(6) -0.236(2)
H7 H 1.6409 1.4191 -0.2517
C8 C 1.6528(9) 1.3031(8) -0.1503(15)
H8 H 1.6587 1.2762 -0.0959
C9 C 1.6424(7) 1.2906(9) -0.2542(17)
H9 H 1.6377 1.2537 -0.2819
C10 C 1.7502(12) 1.4016(6) 0.138(2)
H10 H 1.7590 1.4388 0.1163
C11 C 1.7064(8) 1.3227(8) 0.1536(18)
H11 H 1.6799 1.2930 0.1467
C12 C 1.7523(9) 1.3228(7) 0.2199(14)
H12 H 1.7625 1.2926 0.2651
N1 N 1.6503(8) 1.4827(8) -0.0327(19)
N2 N 1.6319(8) 1.5797(10) -0.0245(18)
N3 N 1.5761(10) 1.3852(10) 0.067(2)
N4 N 1.4810(10) 1.3585(11) 0.077(3)
N5 N 1.6532(9) 1.3613(10) -0.1374(18)
N6 N 1.6398(11) 1.3393(11) -0.3117(17)
N7 N 1.7055(10) 1.3724(10) 0.0992(17)
N8 N 1.7813(10) 1.3733(9) 0.2110(18)
Zn2B Zn 1.60388(18) 1.3490(2) -0.4592(4)
Zn2F Zn 1.60388(18) 1.6510(2) 0.0408(4)
Zn2O Zn 1.39612(18) 1.3490(2) 0.0408(4)
N2N N 1.9203(10) 1.3681(8) 0.2255(18)
N4G N 1.8585(11) 1.4810(10) 0.327(3)
N6C N 1.8393(11) 1.3602(11) 0.4383(17)
loop_
_geom_bond_atom_site_label_1
_geom_bond_atom_site_label_2
_geom_bond_site_symmetry_1
_geom_bond_site_symmetry_2
Zn1 N1 1_555 1_555
Zn2 N8 1_555 1_555
C1 H1 1_555 1_555
C2 H2 1_555 1_555
C3 C2 1_555 1_555
H3 C3 1_555 1_555
C4 H4 1_555 1_555
C5 H5 1_555 1_555
C6 C5 1_555 1_555
H6 C6 1_555 1_555
C7 H7 1_555 1_555
C8 H8 1_555 1_555
C9 C8 1_555 1_555
H9 C9 1_555 1_555
C10 H10 1_555 1_555
C11 H11 1_555 1_555
C12 C11 1_555 1_555
H12 C12 1_555 1_555
N1 C1 1_555 1_555
N2 C1 1_555 1_555
N3 Zn1 1_555 1_555
N4 C4 1_555 1_555
N5 Zn1 1_555 1_555
N6 C7 1_555 1_555
N7 Zn1 1_555 1_555
N8 C10 1_555 1_555
Zn2B N6 1_555 1_555
Zn2F N2 1_555 1_555
Zn2O N4 1_555 1_555
N2N Zn2 1_555 1_555
N4G Zn2 1_555 1_555
N6C Zn2 1_555 1_555
C2 N1 1_555 1_555
C3 N2 1_555 1_555
C4 N3 1_555 1_555
C5 N3 1_555 1_555
C6 N4 1_555 1_555
C7 N5 1_555 1_555
C8 N5 1_555 1_555
C9 N6 1_555 1_555
C10 N7 1_555 1_555
C11 N7 1_555 1_555
C12 N8 1_555 1_555

#END
