
#######################################################################
#
#                 Cambridge Crystallographic Data Centre
#                                CCDC 
#
#######################################################################
#
# If this CIF has been generated from an entry in the Cambridge 
# Structural Database, then it will include bibliographic, chemical, 
# crystal, experimental, refinement or atomic coordinate data resulting 
# from the CCDC's data processing and validation procedures.
#
#######################################################################

data_IMIDZB01
_symmetry_cell_setting           tetragonal
_symmetry_space_group_name_H-M   'I 41 c d'
_symmetry_Int_Tables_number      110
_space_group_name_Hall           'I 4bw -2c'
loop_
_symmetry_equiv_pos_site_id
_symmetry_equiv_pos_as_xyz
1 x,y,z
2 -y,1/2+x,1/4+z
3 -x,y,1/2+z
4 1/2-x,1/2-y,1/2+z
5 -y,1/2-x,3/4+z
6 1/2+y,-x,3/4+z
7 1/2+x,1/2-y,z
8 1/2+y,x,1/4+z
9 1/2+x,1/2+y,1/2+z
10 1/2-y,x,3/4+z
11 1/2-x,1/2+y,z
12 -x,-y,z
13 1/2-y,-x,1/4+z
14 y,1/2-x,1/4+z
15 x,-y,1/2+z
16 y,1/2+x,3/4+z
_cell_length_a                   23.572(3)
_cell_length_b                   23.572(3)
_cell_length_c                   12.467(2)
_cell_angle_alpha                90
_cell_angle_beta                 90
_cell_angle_gamma                90
_cell_volume                     6927.15
loop_
_atom_site_label
_atom_site_type_symbol
_atom_site_fract_x
_atom_site_fract_y
_atom_site_fract_z
Zn1 Zn 0.35021(2) 0.10079(3) 0.0000
Zn2 Zn 0.40391(3) -0.14814(2) -0.04504(4)
N1 N 0.3589(2) 0.0180(2) 0.0305(4)
N2 N 0.3828(2) -0.0732(2) 0.0207(4)
C1 C 0.3781(3) -0.0241(2) -0.0297(5)
H1 H 0.3880(3) -0.0194(2) -0.1039(5)
C2 C 0.3647(4) -0.0614(3) 0.1210(5)
H2 H 0.3631(4) -0.0884(3) 0.1785(5)
C3 C 0.3503(3) -0.0069(3) 0.1280(5)
H3 H 0.3354(3) 0.0118(3) 0.1903(5)
N3 N 0.3409(2) 0.1355(2) 0.1461(4)
N4 N 0.3621(2) 0.1529(2) 0.3172(4)
C4 C 0.3810(2) 0.1412(2) 0.2198(4)
H4 H 0.4205(2) 0.1358(2) 0.2041(4)
C5 C 0.3047(2) 0.1546(3) 0.3040(5)
H5 H 0.2776(2) 0.1615(3) 0.3599(5)
N5 N 0.2822(2) 0.1233(2) -0.0841(3)
N6 N 0.2070(2) 0.1220(2) -0.1929(3)
C6 C 0.2926(3) 0.1439(3) 0.2003(5)
H6 H 0.2554(3) 0.1432(3) 0.1691(5)
C7 C 0.2518(3) 0.0934(2) -0.1539(5)
H7 H 0.2618(3) 0.0556(2) -0.1759(5)
C8 C 0.2550(2) 0.1742(2) -0.0769(4)
H8 H 0.2673(2) 0.2059(2) -0.0344(4)
N7 N 0.5139(2) 0.1507(2) -0.0784(4)
N8 N 0.4217(2) 0.1284(2) -0.0676(4)
C9 C 0.2094(2) 0.1739(2) -0.1419(4)
H9 H 0.1823(2) 0.2040(2) -0.1501(4)
C10 C 0.4744(3) 0.1203(2) -0.0286(5)
H10 H 0.4824(3) 0.0949(2) 0.0298(5)
C11 C 0.4292(2) 0.1654(3) -0.1508(5)
H11 H 0.3997(2) 0.1789(3) -0.1973(5)
C12 C 0.4850(2) 0.1795(3) -0.1548(4)
H12 H 0.5016(2) 0.2056(3) -0.2049(4)
Zn2N Zn 0.40391(3) 0.14814(2) 0.45496(4)
Zn2D Zn 0.14814(2) 0.09609(3) -0.29504(4)
Zn2K Zn 0.59609(3) 0.14814(2) -0.04504(4)
N4N N 0.3621(2) -0.1529(2) -0.1828(4)
N6L N 0.3780(2) -0.2070(2) 0.0571(3)
N7K N 0.4861(2) -0.1507(2) -0.0784(4)
loop_
_geom_bond_atom_site_label_1
_geom_bond_atom_site_label_2
_geom_bond_site_symmetry_1
_geom_bond_site_symmetry_2
Zn1 N1 1_555 1_555
Zn2 N2 1_555 1_555
N1 C1 1_555 1_555
N2 C1 1_555 1_555
C1 H1 1_555 1_555
C2 N2 1_555 1_555
H2 C2 1_555 1_555
C3 N1 1_555 1_555
H3 C3 1_555 1_555
N3 Zn1 1_555 1_555
N4 C4 1_555 1_555
C4 N3 1_555 1_555
H4 C4 1_555 1_555
C5 N4 1_555 1_555
H5 C5 1_555 1_555
N5 Zn1 1_555 1_555
N6 C7 1_555 1_555
C6 N3 1_555 1_555
H6 C6 1_555 1_555
C7 N5 1_555 1_555
H7 C7 1_555 1_555
C8 N5 1_555 1_555
H8 C8 1_555 1_555
N7 C10 1_555 1_555
N8 Zn1 1_555 1_555
C9 N6 1_555 1_555
H9 C9 1_555 1_555
C10 N8 1_555 1_555
H10 C10 1_555 1_555
C11 N8 1_555 1_555
H11 C11 1_555 1_555
C12 N7 1_555 1_555
H12 C12 1_555 1_555
Zn2N N4 1_555 1_555
Zn2D N6 1_555 1_555
Zn2K N7 1_555 1_555
N4N Zn2 1_555 1_555
N6L Zn2 1_555 1_555
N7K Zn2 1_555 1_555
C2 C3 1_555 1_555
C5 C6 1_555 1_555
C8 C9 1_555 1_555
C11 C12 1_555 1_555

#END
