
#######################################################################
#
#                 Cambridge Crystallographic Data Centre
#                                CCDC 
#
#######################################################################
#
# If this CIF has been generated from an entry in the Cambridge 
# Structural Database, then it will include bibliographic, chemical, 
# crystal, experimental, refinement or atomic coordinate data resulting 
# from the CCDC's data processing and validation procedures.
#
#######################################################################

data_IMIDFE01
_symmetry_cell_setting           monoclinic
_symmetry_space_group_name_H-M   'P 21/c'
_symmetry_Int_Tables_number      14
_space_group_name_Hall           '-P 2ybc'
loop_
_symmetry_equiv_pos_site_id
_symmetry_equiv_pos_as_xyz
1 x,y,z
2 x,1/2-y,1/2+z
3 -x,-y,-z
4 -x,1/2+y,1/2-z
_cell_length_a                   10.5912(9)
_cell_length_b                   12.958(2)
_cell_length_c                   10.617(1)
_cell_angle_alpha                90
_cell_angle_beta                 92.696(9)
_cell_angle_gamma                90
_cell_volume                     1455.47
loop_
_atom_site_label
_atom_site_type_symbol
_atom_site_fract_x
_atom_site_fract_y
_atom_site_fract_z
C1 C 0.2327(3) 0.0501(3) 0.3639(3)
C2 C 0.2660(3) 0.1025(3) 0.1775(3)
C3 C 0.3760(3) 0.0685(3) 0.2325(3)
C4 C -0.2616(3) 0.0725(3) 0.3499(3)
C5 C -0.2008(3) -0.0545(3) 0.2389(3)
C6 C -0.3106(3) -0.0798(3) 0.2936(3)
C7 C 0.6162(3) 0.2137(3) 0.6079(3)
C8 C 0.5579(4) 0.3347(3) 0.4759(4)
C9 C 0.4948(4) 0.2480(3) 0.4477(3)
C10 C -0.0061(3) 0.2448(3) 0.4925(3)
C11 C -0.0944(3) 0.3913(2) 0.4610(3)
C12 C -0.0915(3) 0.3405(3) 0.3495(3)
N1 N 0.3561(2) 0.0357(2) 0.3525(2)
N2 N 0.1716(2) 0.0900(2) 0.2620(2)
N3 N -0.3496(2) 0.0011(2) 0.3643(2)
N4 N -0.1675(2) 0.0441(2) 0.2746(2)
N5 N 0.5317(2) 0.1704(2) 0.5291(2)
N6 N 0.6341(3) 0.3122(3) 0.5793(3)
N7 N -0.0347(2) 0.2462(2) 0.3682(2)
N8 N -0.0392(2) 0.3298(2) 0.5532(2)
Fe1 Fe 0.5000 0.0000 0.5000
Fe2 Fe -0.01220(4) 0.13074(4) 0.23981(4)
H1 H 0.6876 0.3567 0.6212
H2 H 0.1899 0.0328 0.4410
H3 H 0.2550 0.1311 0.0922
H4 H 0.4575 0.0675 0.1925
H5 H -0.2644 0.1403 0.3904
H6 H -0.1535 -0.0993 0.1834
H7 H -0.3548 -0.1459 0.2836
H8 H 0.6600 0.1777 0.6783
H9 H 0.5509 0.4009 0.4314
H10 H 0.4310 0.2408 0.3785
H11 H 0.0356 0.1861 0.5352
H12 H -0.1299 0.4602 0.4735
H13 H -0.1248 0.3671 0.2681
C1B C 0.7673(3) -0.0501(3) 0.6361(3)
C2B C 0.7340(3) -0.1025(3) 0.8225(3)
C3B C 0.6240(3) -0.0685(3) 0.7675(3)
N1B N 0.6439(2) -0.0357(2) 0.6475(2)
N2B N 0.8284(2) -0.0900(2) 0.7380(2)
H2B H 0.8101 -0.0328 0.5590
H3B H 0.7450 -0.1311 0.9078
H4B H 0.5425 -0.0675 0.8075
N3B N 0.3496(2) -0.0011(2) 0.6357(2)
C7B C 0.3838(3) -0.2137(3) 0.3921(3)
C8B C 0.4421(4) -0.3347(3) 0.5241(4)
C9B C 0.5052(4) -0.2480(3) 0.5523(3)
N5B N 0.4683(2) -0.1704(2) 0.4709(2)
N6B N 0.3659(3) -0.3122(3) 0.4207(3)
H1B H 0.3124 -0.3567 0.3788
H8B H 0.3400 -0.1777 0.3217
H9B H 0.4491 -0.4009 0.5686
H10B H 0.5690 -0.2408 0.6215
Fe2B Fe 1.01220(4) -0.13074(4) 0.76019(4)
N3_2 N 0.6504(2) 0.0011(2) 0.3643(2)
N8A N -0.0392(2) 0.1702(2) 0.0532(2)
C4B C 1.2616(3) -0.0725(3) 0.6501(3)
C5B C 1.2008(3) 0.0545(3) 0.7611(3)
C6B C 1.3106(3) 0.0798(3) 0.7064(3)
N3B_2 N 1.3496(2) -0.0011(2) 0.6357(2)
N4B N 1.1675(2) -0.0441(2) 0.7254(2)
H5B H 1.2644 -0.1403 0.6096
H6B H 1.1535 0.0993 0.8166
H7B H 1.3548 0.1459 0.7164
C10B C 1.0061(3) -0.2448(3) 0.5075(3)
C11B C 1.0944(3) -0.3913(2) 0.5390(3)
C12B C 1.0915(3) -0.3405(3) 0.6505(3)
N7B N 1.0347(2) -0.2462(2) 0.6318(2)
N8B N 1.0392(2) -0.3298(2) 0.4468(2)
H11B H 0.9644 -0.1861 0.4648
H12B H 1.1299 -0.4602 0.5265
H13B H 1.1248 -0.3671 0.7319
N8C N 1.0392(2) -0.1702(2) 0.9468(2)
Fe1_2 Fe -0.5000 0.0000 0.5000
Fe1B Fe 1.5000 0.0000 0.5000
Fe2A Fe -0.01220(4) 0.36926(4) 0.73981(4)
Fe2C Fe 1.01220(4) -0.36926(4) 0.26019(4)
loop_
_geom_bond_atom_site_label_1
_geom_bond_atom_site_label_2
_geom_bond_site_symmetry_1
_geom_bond_site_symmetry_2
C1 N1 1_555 1_555
C2 C3 1_555 1_555
C3 N1 1_555 1_555
C4 N3 1_555 1_555
C5 C6 1_555 1_555
C6 N3 1_555 1_555
C7 N5 1_555 1_555
C8 C9 1_555 1_555
C9 N5 1_555 1_555
C10 N7 1_555 1_555
C11 C12 1_555 1_555
C12 N7 1_555 1_555
N1 Fe1 1_555 1_555
N2 C1 1_555 1_555
N3 Fe1_2 1_555 1_555
N4 C4 1_555 1_555
N5 Fe1 1_555 1_555
N6 C7 1_555 1_555
N7 Fe2 1_555 1_555
N8 C10 1_555 1_555
Fe1 N1B 1_555 1_555
Fe2 N2 1_555 1_555
H1 N6 1_555 1_555
H2 C1 1_555 1_555
H3 C2 1_555 1_555
H4 C3 1_555 1_555
H5 C4 1_555 1_555
H6 C5 1_555 1_555
H7 C6 1_555 1_555
H8 C7 1_555 1_555
H9 C8 1_555 1_555
H10 C9 1_555 1_555
H11 C10 1_555 1_555
H12 C11 1_555 1_555
H13 C12 1_555 1_555
C1B N1B 1_555 1_555
C2B C3B 1_555 1_555
C3B N1B 1_555 1_555
N2B C1B 1_555 1_555
H2B C1B 1_555 1_555
H3B C2B 1_555 1_555
H4B C3B 1_555 1_555
N3B Fe1 1_555 1_555
C7B N5B 1_555 1_555
C8B C9B 1_555 1_555
C9B N5B 1_555 1_555
N5B Fe1 1_555 1_555
N6B C7B 1_555 1_555
H1B N6B 1_555 1_555
H8B C7B 1_555 1_555
H9B C8B 1_555 1_555
H10B C9B 1_555 1_555
Fe2B N2B 1_555 1_555
N3_2 Fe1 1_555 1_555
N8A Fe2 1_555 1_555
C4B N3B_2 1_555 1_555
C5B C6B 1_555 1_555
C6B N3B_2 1_555 1_555
N3B_2 Fe1B 1_555 1_555
N4B Fe2B 1_555 1_555
H5B C4B 1_555 1_555
H6B C5B 1_555 1_555
H7B C6B 1_555 1_555
C10B N7B 1_555 1_555
C11B C12B 1_555 1_555
C12B N7B 1_555 1_555
N7B Fe2B 1_555 1_555
N8B C10B 1_555 1_555
H11B C10B 1_555 1_555
H12B C11B 1_555 1_555
H13B C12B 1_555 1_555
N8C Fe2B 1_555 1_555
Fe2A N8 1_555 1_555
Fe2C N8B 1_555 1_555
C2 N2 1_555 1_555
C5 N4 1_555 1_555
C8 N6 1_555 1_555
C11 N8 1_555 1_555
N4 Fe2 1_555 1_555
C2B N2B 1_555 1_555
C8B N6B 1_555 1_555
C4B N4B 1_555 1_555
C5B N4B 1_555 1_555
C11B N8B 1_555 1_555

#END
