
#######################################################################
#
#                 Cambridge Crystallographic Data Centre
#                                CCDC 
#
#######################################################################
#
# If this CIF has been generated from an entry in the Cambridge 
# Structural Database, then it will include bibliographic, chemical, 
# crystal, experimental, refinement or atomic coordinate data resulting 
# from the CCDC's data processing and validation procedures.
#
#######################################################################

data_IMIDZB02
_symmetry_cell_setting           tetragonal
_symmetry_space_group_name_H-M   'I 41 c d'
_symmetry_Int_Tables_number      110
_space_group_name_Hall           'I 4bw -2c'
loop_
_symmetry_equiv_pos_site_id
_symmetry_equiv_pos_as_xyz
1 x,y,z
2 1/2-x,1/2-y,1/2+z
3 -y,1/2+x,1/4+z
4 1/2+y,-x,3/4+z
5 x,-y,1/2+z
6 1/2-x,1/2+y,z
7 -y,1/2-x,3/4+z
8 1/2+y,x,1/4+z
9 1/2+x,1/2+y,1/2+z
10 -x,-y,z
11 1/2-y,x,3/4+z
12 y,1/2-x,1/4+z
13 1/2+x,1/2-y,z
14 -x,y,1/2+z
15 1/2-y,-x,1/4+z
16 y,1/2+x,3/4+z
_cell_length_a                   23.5028(4)
_cell_length_b                   23.5028(4)
_cell_length_c                   12.4607(3)
_cell_angle_alpha                90
_cell_angle_beta                 90
_cell_angle_gamma                90
_cell_volume                     6883.06
loop_
_atom_site_label
_atom_site_type_symbol
_atom_site_fract_x
_atom_site_fract_y
_atom_site_fract_z
C1 C 1.6209(2) 1.5261(2) 0.0136(4)
H1 H 1.5964 1.5183 0.0703
C2 C 1.68014(18) 1.5149(2) -0.1119(4)
H2 H 1.7057 1.4990 -0.1603
C3 C 1.6659(2) 1.57030(18) -0.1074(4)
H3 H 1.6795 1.5986 -0.1529
C4 C 1.5241(2) 1.3773(2) 0.0135(4)
H4 H 1.5197 1.3858 -0.0589
C5 C 1.5628(2) 1.3653(3) 0.1623(4)
H5 H 1.5890 1.3637 0.2181
C6 C 1.5070(2) 1.3501(3) 0.1688(4)
H6 H 1.4891 1.3358 0.2297
C7 C 1.64114(15) 1.38055(16) -0.2374(5)
H7 H 1.6366 1.4190 -0.2525
C8 C 1.6547(2) 1.30482(19) -0.1538(3)
H8 H 1.6625 1.2783 -0.1005
C9 C 1.64340(19) 1.2927(2) -0.2574(4)
H9 H 1.6410 1.2563 -0.2863
C10 C 1.7517(3) 1.40635(13) 0.1387(6)
H10 H 1.7608 1.4433 0.1181
C11 C 1.70919(17) 1.32618(16) 0.1502(3)
H11 H 1.6835 1.2965 0.1412
C12 C 1.75517(16) 1.32570(15) 0.2149(3)
H12 H 1.7667 1.2951 0.2569
N1 N 1.65151(15) 1.48600(15) -0.0355(4)
N2 N 1.62849(17) 1.57829(17) -0.0256(4)
N3 N 1.57362(18) 1.38295(18) 0.0625(4)
N4 N 1.48170(16) 1.35915(16) 0.0720(4)
N5 N 1.65303(18) 1.36198(19) -0.1401(3)
N6 N 1.63610(19) 1.34083(19) -0.3122(4)
N7 N 1.70694(17) 1.37809(17) 0.1002(3)
N8 N 1.78220(15) 1.37675(16) 0.2093(3)
Zn1 Zn 1.64817(2) 1.40383(2) -0.00277(3)
Zn2 Zn 1.85020(2) 1.39911(2) 0.29239(2)
N2N N 1.92171(17) 1.37151(17) 0.2244(4)
N4G N 1.85915(16) 1.48170(16) 0.3220(4)
N6C N 1.84083(19) 1.36390(19) 0.4378(4)
Zn2F Zn 1.60089(2) 1.64980(2) 0.04239(2)
Zn2O Zn 1.39911(2) 1.35020(2) 0.04239(2)
Zn2B Zn 1.60089(2) 1.35020(2) -0.45761(2)
loop_
_geom_bond_atom_site_label_1
_geom_bond_atom_site_label_2
_geom_bond_site_symmetry_1
_geom_bond_site_symmetry_2
C1 H1 1_555 1_555
C2 H2 1_555 1_555
C3 C2 1_555 1_555
H3 C3 1_555 1_555
C4 H4 1_555 1_555
C5 H5 1_555 1_555
C6 C5 1_555 1_555
H6 C6 1_555 1_555
C7 H7 1_555 1_555
C8 H8 1_555 1_555
C9 C8 1_555 1_555
H9 C9 1_555 1_555
C10 H10 1_555 1_555
C11 H11 1_555 1_555
C12 C11 1_555 1_555
H12 C12 1_555 1_555
N1 C1 1_555 1_555
N2 C1 1_555 1_555
N3 C4 1_555 1_555
N4 C4 1_555 1_555
N5 C7 1_555 1_555
N6 C7 1_555 1_555
N7 C10 1_555 1_555
N8 C10 1_555 1_555
Zn1 N1 1_555 1_555
Zn2 N8 1_555 1_555
N2N Zn2 1_555 1_555
N4G Zn2 1_555 1_555
N6C Zn2 1_555 1_555
Zn2F N2 1_555 1_555
Zn2O N4 1_555 1_555
Zn2B N6 1_555 1_555
C2 N1 1_555 1_555
C3 N2 1_555 1_555
C5 N3 1_555 1_555
C6 N4 1_555 1_555
C8 N5 1_555 1_555
C9 N6 1_555 1_555
C11 N7 1_555 1_555
C12 N8 1_555 1_555
N3 Zn1 1_555 1_555
N5 Zn1 1_555 1_555
N7 Zn1 1_555 1_555

#END
