
#######################################################################
#
#                 Cambridge Crystallographic Data Centre
#                                CCDC 
#
#######################################################################
#
# If this CIF has been generated from an entry in the Cambridge 
# Structural Database, then it will include bibliographic, chemical, 
# crystal, experimental, refinement or atomic coordinate data resulting 
# from the CCDC's data processing and validation procedures.
#
#######################################################################

data_IMIDZB07
_symmetry_cell_setting           tetragonal
_symmetry_space_group_name_H-M   'I 41'
_symmetry_Int_Tables_number      80
_space_group_name_Hall           'I 4bw'
loop_
_symmetry_equiv_pos_site_id
_symmetry_equiv_pos_as_xyz
1 x,y,z
2 -y,1/2+x,1/4+z
3 1/2-x,1/2-y,1/2+z
4 1/2+y,-x,3/4+z
5 1/2+x,1/2+y,1/2+z
6 1/2-y,x,3/4+z
7 -x,-y,z
8 y,1/2-x,1/4+z
_cell_length_a                   22.7482(3)
_cell_length_b                   22.7482(3)
_cell_length_c                   13.0168(3)
_cell_angle_alpha                90
_cell_angle_beta                 90
_cell_angle_gamma                90
_cell_volume                     6735.94
loop_
_atom_site_label
_atom_site_type_symbol
_atom_site_fract_x
_atom_site_fract_y
_atom_site_fract_z
C1 C -0.0311(3) 0.3734(3) 0.2608(6)
H1 H -0.0198 0.3831 0.3273
C2 C 0.2731(4) 0.5043(3) -0.0841(6)
H2 H 0.2396 0.5266 -0.0717
C3 C -0.0277(4) 0.3484(4) 0.1076(6)
H3 H -0.0146 0.3367 0.0431
C4 C 0.3617(4) 0.4776(4) -0.0850(8)
H4 H 0.4023 0.4762 -0.0759
C5 C -0.0817(4) 0.3588(4) 0.1311(6)
H5 H -0.1134 0.3555 0.0864
C6 C 0.3285(4) 0.4363(4) -0.1305(7)
H6 H 0.3426 0.4011 -0.1571
C7 C 0.1291(3) 0.4750(4) 0.2438(7)
H7 H 0.1123 0.4879 0.1827
C8 C 0.1425(4) 0.5268(3) -0.2442(6)
H8 H 0.1682 0.5324 -0.2989
C9 C 0.1570(4) 0.4198(4) 0.3611(6)
H9 H 0.1646 0.3872 0.4020
C10 C 0.0767(5) 0.5417(4) -0.1382(8)
H10 H 0.0466 0.5585 -0.0999
C11 C 0.1725(4) 0.4763(4) 0.3840(7)
H11 H 0.1925 0.4880 0.4428
C12 C 0.0975(4) 0.4867(4) -0.1247(9)
H12 H 0.0840 0.4598 -0.0764
C13 C 0.1610(3) 0.3725(4) 0.0095(6)
H13 H 0.1779 0.4057 0.0388
C14 C -0.1286(3) 0.3611(3) 0.5163(6)
H14 H -0.0886 0.3625 0.5017
C15 C 0.1113(5) 0.2952(4) -0.0104(7)
H15 H 0.0864 0.2635 0.0015
C16 C -0.2075(4) 0.3516(4) 0.5979(6)
H16 H -0.2356 0.3440 0.6482
C17 C -0.2187(4) 0.3680(4) 0.4995(7)
H17 H -0.2557 0.3756 0.4722
C18 C 0.1367(4) 0.3065(4) -0.1004(7)
H18 H 0.1331 0.2844 -0.1601
C19 C 0.0891(4) 0.2614(3) 0.3668(6)
H19 H 0.0497 0.2703 0.3773
C20 C -0.2536(3) 0.4016(3) 0.1448(6)
H20 H -0.2425 0.4389 0.1229
C21 C 0.1716(3) 0.2579(3) 0.3000(7)
H21 H 0.2028 0.2626 0.2545
C22 C -0.2991(3) 0.3201(3) 0.1544(6)
H22 H -0.3253 0.2895 0.1424
C23 C -0.2568(3) 0.3211(3) 0.2274(6)
H23 H -0.2488 0.2908 0.2733
C24 C 0.1728(4) 0.2240(3) 0.3849(6)
H24 H 0.2052 0.2033 0.4094
N1 N 0.0070(3) 0.3569(3) 0.1904(5)
N2 N 0.3259(3) 0.5213(3) -0.0549(5)
N3 N -0.0851(3) 0.3753(2) 0.2310(5)
N4 N 0.2714(3) 0.4536(3) -0.1318(5)
N5 N 0.1287(3) 0.4188(3) 0.2697(5)
N6 N 0.1053(3) 0.5682(2) -0.2137(5)
N7 N 0.1545(3) 0.5124(2) 0.3086(5)
N8 N 0.1407(2) 0.4773(2) -0.1923(5)
N9 N 0.1260(3) 0.3348(3) 0.0606(5)
N10 N -0.1496(3) 0.3484(3) 0.6100(5)
N11 N -0.1682(3) 0.3712(2) 0.4488(5)
N12 N 0.1687(3) 0.3563(3) -0.0888(5)
N13 N 0.1198(3) 0.2834(3) 0.2906(5)
N14 N -0.2965(3) 0.3717(3) 0.1015(4)
N15 N -0.2274(2) 0.3738(3) 0.2233(5)
N16 N 0.1192(3) 0.2252(3) 0.4283(5)
Zn1 Zn 0.09469(4) 0.34892(4) 0.20077(5)
Zn2 Zn 0.34920(4) 0.60120(4) -0.01000(6)
Zn3 Zn -0.15843(4) 0.40058(4) 0.30468(5)
Zn4 Zn 0.19996(4) 0.41336(3) -0.18893(7)
N6A N 0.4318(2) 0.6053(3) 0.0363(5)
N7F N -0.1545(3) 0.4876(2) 0.3086(5)
N10G N 0.3484(3) 0.6496(3) -0.1400(5)
N14F N 0.2965(3) 0.6283(3) 0.1015(4)
N16G N 0.2252(3) 0.3808(3) -0.3217(5)
Zn2C Zn 0.10120(4) 0.65080(4) -0.26000(6)
Zn2E Zn -0.10120(4) 0.34920(4) 0.74000(6)
Zn2F Zn -0.34920(4) 0.39880(4) -0.01000(6)
Zn3F Zn 0.15843(4) 0.59942(4) 0.30468(5)
Zn4E Zn 0.08664(3) 0.19996(4) 0.56107(7)
loop_
_geom_bond_atom_site_label_1
_geom_bond_atom_site_label_2
_geom_bond_site_symmetry_1
_geom_bond_site_symmetry_2
C1 H1 1_555 1_555
C2 H2 1_555 1_555
C3 H3 1_555 1_555
C4 H4 1_555 1_555
C5 C3 1_555 1_555
H5 C5 1_555 1_555
C6 C4 1_555 1_555
H6 C6 1_555 1_555
C7 H7 1_555 1_555
C8 H8 1_555 1_555
C9 H9 1_555 1_555
C10 H10 1_555 1_555
C11 C9 1_555 1_555
H11 C11 1_555 1_555
C12 C10 1_555 1_555
H12 C12 1_555 1_555
C13 H13 1_555 1_555
C14 H14 1_555 1_555
C15 H15 1_555 1_555
C16 H16 1_555 1_555
C17 C16 1_555 1_555
H17 C17 1_555 1_555
C18 C15 1_555 1_555
H18 C18 1_555 1_555
C19 H19 1_555 1_555
C20 H20 1_555 1_555
C21 H21 1_555 1_555
C22 H22 1_555 1_555
C23 C22 1_555 1_555
H23 C23 1_555 1_555
C24 C21 1_555 1_555
H24 C24 1_555 1_555
N1 C1 1_555 1_555
N2 C2 1_555 1_555
N3 C1 1_555 1_555
N4 C2 1_555 1_555
N5 C7 1_555 1_555
N6 C8 1_555 1_555
N7 C7 1_555 1_555
N8 C8 1_555 1_555
N9 C13 1_555 1_555
N10 C14 1_555 1_555
N11 C14 1_555 1_555
N12 C13 1_555 1_555
N13 C19 1_555 1_555
N14 C20 1_555 1_555
N15 C20 1_555 1_555
N16 C19 1_555 1_555
Zn1 N1 1_555 1_555
Zn2 N2 1_555 1_555
Zn3 N3 1_555 1_555
Zn4 N4 1_555 1_555
N6A Zn2 1_555 1_555
N7F Zn3 1_555 1_555
N10G Zn2 1_555 1_555
N14F Zn2 1_555 1_555
N16G Zn4 1_555 1_555
Zn2C N6 1_555 1_555
Zn2E N10 1_555 1_555
Zn2F N14 1_555 1_555
Zn3F N7 1_555 1_555
Zn4E N16 1_555 1_555
C3 N1 1_555 1_555
C4 N2 1_555 1_555
C5 N3 1_555 1_555
C6 N4 1_555 1_555
C9 N5 1_555 1_555
C10 N6 1_555 1_555
C11 N7 1_555 1_555
C12 N8 1_555 1_555
C15 N9 1_555 1_555
C16 N10 1_555 1_555
C17 N11 1_555 1_555
C18 N12 1_555 1_555
C21 N13 1_555 1_555
C22 N14 1_555 1_555
C23 N15 1_555 1_555
C24 N16 1_555 1_555
N5 Zn1 1_555 1_555
N8 Zn4 1_555 1_555
N9 Zn1 1_555 1_555
N11 Zn3 1_555 1_555
N12 Zn4 1_555 1_555
N13 Zn1 1_555 1_555
N15 Zn3 1_555 1_555

#END
