
#######################################################################
#
#                 Cambridge Crystallographic Data Centre
#                                CCDC 
#
#######################################################################
#
# If this CIF has been generated from an entry in the Cambridge 
# Structural Database, then it will include bibliographic, chemical, 
# crystal, experimental, refinement or atomic coordinate data resulting 
# from the CCDC's data processing and validation procedures.
#
#######################################################################

data_IMIQOL
_symmetry_cell_setting           monoclinic
_symmetry_space_group_name_H-M   'P 21/n'
_symmetry_Int_Tables_number      14
_space_group_name_Hall           '-P 2yn'
loop_
_symmetry_equiv_pos_site_id
_symmetry_equiv_pos_as_xyz
1 x,y,z
2 1/2-x,1/2+y,1/2-z
3 -x,-y,-z
4 1/2+x,1/2-y,1/2+z
_cell_length_a                   12.7726(10)
_cell_length_b                   14.4219(12)
_cell_length_c                   12.8058(10)
_cell_angle_alpha                90
_cell_angle_beta                 100.272(5)
_cell_angle_gamma                90
_cell_volume                     2321.09
loop_
_atom_site_label
_atom_site_type_symbol
_atom_site_fract_x
_atom_site_fract_y
_atom_site_fract_z
Ag1 Ag -0.3400(3) -0.1237(2) 0.3397(3)
O20 O -0.260(2) -0.2387(16) 0.256(2)
C5 C -0.436(3) 0.044(2) 0.436(3)
H5 H -0.3952 0.0772 0.3952
C6 C -0.500(3) 0.093(2) 0.501(3)
H6 H -0.4970 0.1574 0.5010
N3 N -0.436(3) -0.0513(19) 0.436(2)
Ag1B Ag -0.6600(3) 0.1237(2) 0.6603(3)
O20B O -0.740(2) 0.2387(16) 0.744(2)
C5B C -0.564(3) -0.044(2) 0.564(3)
H5B H -0.6048 -0.0772 0.6048
C6B C -0.500(3) -0.093(2) 0.499(3)
H6B H -0.5030 -0.1574 0.4990
N3B N -0.564(3) 0.0513(19) 0.564(2)
Ag2 Ag -0.5086(2) -0.24975(17) 0.0087(2)
C1 C -0.513(3) -0.045(2) 0.087(3)
H1 H -0.5237 -0.0745 0.1489
C2 C -0.507(3) 0.051(2) 0.083(3)
H2 H -0.5117 0.0849 0.1434
C3 C -0.589(3) -0.454(2) 0.012(3)
H3 H -0.6513 -0.4236 0.0211
C4 C -0.585(3) -0.553(2) 0.007(3)
H4 H -0.6459 -0.5872 0.0117
N1 N -0.505(2) -0.095(2) 0.002(2)
N2 N -0.501(2) -0.405(2) 0.005(2)
Ag2B Ag -0.4914(2) 0.24975(17) -0.0087(2)
Ag2B_2 Ag -0.4914(2) -0.75025(17) -0.0087(2)
C1B C -0.487(3) 0.045(2) -0.087(3)
H1B H -0.4763 0.0745 -0.1489
C2B C -0.493(3) -0.051(2) -0.083(3)
H2B H -0.4883 -0.0849 -0.1434
C3B C -0.411(3) -0.546(2) -0.012(3)
H3B H -0.3487 -0.5764 -0.0211
C4B C -0.415(3) -0.447(2) -0.007(3)
H4B H -0.3541 -0.4128 -0.0117
N1B N -0.495(2) 0.095(2) -0.002(2)
N2B N -0.499(2) -0.595(2) -0.005(2)
N2B_2 N -0.499(2) 0.405(2) -0.005(2)
W1 W 0.21703(11) 0.00006(11) 0.21709(11)
W2 W 0.02451(10) 0.17691(9) 0.19281(9)
W3 W -0.17926(10) 0.01002(9) 0.17923(10)
W4 W 0.19285(9) -0.17690(9) 0.02468(10)
W5 W 0.01328(12) -0.16739(9) 0.20348(10)
W6 W 0.20350(10) 0.16739(9) 0.01336(12)
Si1 Si 0.0000 0.0000 0.0000
O1 O 0.081(4) -0.070(4) 0.084(4)
O2 O -0.066(4) 0.063(3) 0.068(4)
O3 O 0.083(4) 0.069(4) 0.081(4)
O4 O -0.074(4) -0.054(3) 0.073(4)
O5 O -0.269(2) 0.017(3) 0.268(2)
O6 O 0.139(3) 0.101(2) 0.267(3)
O7 O -0.084(3) 0.226(2) 0.088(3)
O8 O -0.240(3) 0.098(2) 0.075(3)
O9 O -0.104(3) -0.213(2) 0.102(3)
O10 O -0.073(3) 0.097(2) 0.237(3)
O11 O 0.299(2) 0.2481(17) 0.016(2)
O12 O 0.316(3) -0.0006(17) 0.319(2)
O13 O 0.013(2) -0.2493(17) 0.300(2)
O14 O 0.276(3) 0.098(2) 0.138(3)
O15 O 0.027(2) 0.2651(17) 0.283(2)
O16 O 0.265(3) -0.098(3) 0.136(3)
O17 O -0.078(3) -0.075(2) 0.248(3)
O18 O -0.247(3) -0.078(2) 0.081(3)
O19 O 0.137(3) -0.099(2) 0.275(3)
O21 O 0.283(2) -0.2625(17) 0.029(2)
O22 O 0.123(3) 0.221(2) 0.108(3)
O23 O 0.111(3) -0.221(2) 0.122(3)
W1B W -0.21703(11) -0.00006(11) -0.21709(11)
W2B W -0.02451(10) -0.17691(9) -0.19281(9)
W3B W 0.17926(10) -0.01002(9) -0.17923(10)
W4B W -0.19285(9) 0.17690(9) -0.02468(10)
W5B W -0.01328(12) 0.16739(9) -0.20348(10)
W6B W -0.20350(10) -0.16739(9) -0.01336(12)
O1B O -0.081(4) 0.070(4) -0.084(4)
O2B O 0.066(4) -0.063(3) -0.068(4)
O3B O -0.083(4) -0.069(4) -0.081(4)
O4B O 0.074(4) 0.054(3) -0.073(4)
O5B O 0.269(2) -0.017(3) -0.268(2)
O6B O -0.139(3) -0.101(2) -0.267(3)
O7B O 0.084(3) -0.226(2) -0.088(3)
O8B O 0.240(3) -0.098(2) -0.075(3)
O9B O 0.104(3) 0.213(2) -0.102(3)
O10B O 0.073(3) -0.097(2) -0.237(3)
O11B O -0.299(2) -0.2481(17) -0.016(2)
O12B O -0.316(3) 0.0006(17) -0.319(2)
O13B O -0.013(2) 0.2493(17) -0.300(2)
O14B O -0.276(3) -0.098(2) -0.138(3)
O15B O -0.027(2) -0.2651(17) -0.283(2)
O16B O -0.265(3) 0.098(3) -0.136(3)
O17B O 0.078(3) 0.075(2) -0.248(3)
O18B O 0.247(3) 0.078(2) -0.081(3)
O19B O -0.137(3) 0.099(2) -0.275(3)
O21B O -0.283(2) 0.2625(17) -0.029(2)
O22B O -0.123(3) -0.221(2) -0.108(3)
O23B O -0.111(3) 0.221(2) -0.122(3)
loop_
_geom_bond_atom_site_label_1
_geom_bond_atom_site_label_2
_geom_bond_site_symmetry_1
_geom_bond_site_symmetry_2
W1 O1 1_555 1_555
W2 O2 1_555 1_555
W3 O2 1_555 1_555
W4 O1 1_555 1_555
W5 O1 1_555 1_555
W6 O3 1_555 1_555
Ag1 O20 1_555 1_555
Ag2 N1 1_555 1_555
Si1 O1 1_555 1_555
O2 Si1 1_555 1_555
O3 W1 1_555 1_555
O4 W3 1_555 1_555
O5 W3 1_555 1_555
O6 W1 1_555 1_555
O7 W2 1_555 1_555
O8 W3 1_555 1_555
O9 W5 1_555 1_555
O10 W2 1_555 1_555
O11 W6 1_555 1_555
O12 W1 1_555 1_555
O13 W5 1_555 1_555
O14 W1 1_555 1_555
O15 W2 1_555 1_555
O16 W1 1_555 1_555
O17 W3 1_555 1_555
O18 W3 1_555 1_555
O19 W1 1_555 1_555
C1 H1 1_555 1_555
C2 C1 1_555 1_555
H2 C2 1_555 1_555
C3 H3 1_555 1_555
C4 C3 1_555 1_555
H4 C4 1_555 1_555
C5 H5 1_555 1_555
C6 C5 1_555 1_555
H6 C6 1_555 1_555
N1 C1 1_555 1_555
N2 Ag2 1_555 1_555
N3 Ag1 1_555 1_555
O21 W4 1_555 1_555
O22 W2 1_555 1_555
O23 W4 1_555 1_555
W1B O1B 1_555 1_555
W2B O2B 1_555 1_555
W3B O2B 1_555 1_555
W4B O7 1_555 1_555
W5B O1B 1_555 1_555
W6B O9 1_555 1_555
Ag1B O20B 1_555 1_555
Ag2B N1B 1_555 1_555
Ag2B_2 N2B 1_555 1_555
O1B Si1 1_555 1_555
O2B Si1 1_555 1_555
O3B Si1 1_555 1_555
O4B Si1 1_555 1_555
O5B W3B 1_555 1_555
O6B W1B 1_555 1_555
O7B W4 1_555 1_555
O8B W4 1_555 1_555
O9B W6 1_555 1_555
O10B W2B 1_555 1_555
O11B W6B 1_555 1_555
O12B W1B 1_555 1_555
O13B W5B 1_555 1_555
O14B W1B 1_555 1_555
O15B W2B 1_555 1_555
O16B W1B 1_555 1_555
O17B W3B 1_555 1_555
O18B W6 1_555 1_555
O19B W1B 1_555 1_555
C1B H1B 1_555 1_555
C2B N1 1_555 1_555
H2B C2B 1_555 1_555
C3B H3B 1_555 1_555
C4B N2 1_555 1_555
H4B C4B 1_555 1_555
C5B H5B 1_555 1_555
C6B N3 1_555 1_555
H6B C6B 1_555 1_555
N1B C2 1_555 1_555
N2B C4 1_555 1_555
N2B_2 Ag2B 1_555 1_555
N3B C6 1_555 1_555
O21B W4B 1_555 1_555
O22B W2B 1_555 1_555
O23B W4B 1_555 1_555
W2 O3 1_555 1_555
W2 O6 1_555 1_555
W3 O10 1_555 1_555
W4 O16 1_555 1_555
W5 O17 1_555 1_555
W5 O19 1_555 1_555
W5 O23 1_555 1_555
W6 O14 1_555 1_555
W6 O22 1_555 1_555
Si1 O3 1_555 1_555
Si1 O4 1_555 1_555
O2 O4 1_555 1_555
O8 W4B 1_555 1_555
O18 W6B 1_555 1_555
C3 N2 1_555 1_555
C5 N3 1_555 1_555
W1B O3B 1_555 1_555
W2B O3B 1_555 1_555
W2B O6B 1_555 1_555
W2B O7B 1_555 1_555
W3B O4B 1_555 1_555
W3B O8B 1_555 1_555
W3B O10B 1_555 1_555
W3B O18B 1_555 1_555
W4B O1B 1_555 1_555
W4B O16B 1_555 1_555
W5B O9B 1_555 1_555
W5B O17B 1_555 1_555
W5B O19B 1_555 1_555
W5B O23B 1_555 1_555
W6B O3B 1_555 1_555
W6B O14B 1_555 1_555
W6B O22B 1_555 1_555
Ag1B N3B 1_555 1_555
O2B O4B 1_555 1_555
C1B C2B 1_555 1_555
C1B N1B 1_555 1_555
C3B C4B 1_555 1_555
C3B N2B 1_555 1_555
C5B C6B 1_555 1_555
C5B N3B 1_555 1_555

#END
