
#######################################################################
#
#                 Cambridge Crystallographic Data Centre
#                                CCDC 
#
#######################################################################
#
# If this CIF has been generated from an entry in the Cambridge 
# Structural Database, then it will include bibliographic, chemical, 
# crystal, experimental, refinement or atomic coordinate data resulting 
# from the CCDC's data processing and validation procedures.
#
#######################################################################

data_IMIQUR
_symmetry_cell_setting           monoclinic
_symmetry_space_group_name_H-M   'C 2/c'
_symmetry_Int_Tables_number      15
_space_group_name_Hall           '-C 2yn'
loop_
_symmetry_equiv_pos_site_id
_symmetry_equiv_pos_as_xyz
1 x,y,z
2 -x,y,1/2-z
3 1/2+x,1/2+y,z
4 1/2-x,1/2+y,1/2-z
5 -x,-y,-z
6 x,-y,1/2+z
7 1/2-x,1/2-y,-z
8 1/2+x,1/2-y,1/2+z
_cell_length_a                   21.2493(18)
_cell_length_b                   13.2016(18)
_cell_length_c                   14.7117(15)
_cell_angle_alpha                90
_cell_angle_beta                 102.573(2)
_cell_angle_gamma                90
_cell_volume                     4028.03
loop_
_atom_site_label
_atom_site_type_symbol
_atom_site_fract_x
_atom_site_fract_y
_atom_site_fract_z
Mo1 Mo -0.31838(2) -0.41689(3) 0.15435(3)
Mo2 Mo -0.29328(2) -0.17188(3) 0.15609(3)
Mo3 Mo -0.32542(2) -0.30071(3) -0.05725(3)
Mo4 Mo -0.19356(2) -0.44139(3) 0.05723(3)
Cu1 Cu 0.00233(5) -0.06742(8) 0.37338(8)
Cu2 Cu -0.17319(4) -0.41117(7) 0.30909(8)
O1 O -0.26364(19) -0.4199(3) 0.2596(3)
O2 O -0.34885(17) -0.2821(3) 0.1656(3)
O3 O -0.23754(17) -0.1031(3) 0.0805(3)
O4 O -0.2377(2) -0.1813(3) 0.2565(3)
O5 O -0.37663(19) -0.2982(3) -0.1624(3)
O6 O -0.1418(2) -0.4373(3) 0.1642(3)
O7 O -0.24813(17) -0.2966(3) 0.0840(3)
O8 O -0.26867(18) -0.4959(3) 0.0875(3)
O9 O -0.34657(17) -0.1745(3) -0.0033(3)
O10 O -0.34032(19) -0.0711(3) 0.1715(3)
O11 O -0.38019(18) -0.4917(3) 0.1683(3)
O12 O -0.36439(17) -0.3805(3) 0.0084(3)
N1 N -0.0976(2) -0.3302(4) 0.3561(4)
O13 O -0.1681(2) -0.5401(3) 0.0007(3)
N2 N 0.1127(2) 0.1808(4) 0.3933(4)
N3 N -0.0300(3) -0.1998(5) 0.3724(5)
N4 N -0.0363(3) -0.3655(4) 0.3656(4)
N5 N 0.0413(3) 0.0609(5) 0.3785(4)
C1 C 0.0019(4) -0.2874(6) 0.3731(7)
H1 H 0.0462 -0.2919 0.3783
C2 C -0.0918(3) -0.2309(5) 0.3592(4)
H2 H -0.1267 -0.1868 0.3529
C3 C 0.1748(3) 0.2346(5) 0.4027(5)
H3 H 0.1663 0.3052 0.3864
H4 H 0.1981 0.2059 0.3590
N6 N 0.0566(3) 0.2274(5) 0.3899(6)
C4 C 0.0158(4) 0.1551(6) 0.3828(7)
H5 H -0.0277 0.1660 0.3807
C5 C 0.1030(3) 0.0810(5) 0.3853(5)
H6 H 0.1349 0.0329 0.3846
C6 C 0.2165(3) 0.2286(5) 0.4991(5)
H7 H 0.2202 0.1586 0.5196
H8 H 0.1966 0.2667 0.5418
C7 C -0.0220(3) -0.5234(5) 0.4580(5)
H9 H -0.0108 -0.5943 0.4550
H10 H -0.0660 -0.5201 0.4666
C8 C -0.0196(3) -0.4742(5) 0.3665(5)
H11 H 0.0234 -0.4816 0.3550
H12 H -0.0494 -0.5085 0.3167
Mo1C Mo -0.18162(2) 0.08311(3) 0.34565(3)
Mo1F Mo -0.18162(2) -0.08311(3) -0.15435(3)
Mo2F Mo -0.20672(2) -0.32812(3) -0.15609(3)
Mo2C Mo -0.20672(2) -0.67188(3) 0.34391(3)
Mo3F Mo -0.17458(2) -0.19929(3) 0.05725(3)
Mo4F Mo -0.30644(2) -0.05861(3) -0.05723(3)
Cu1D Cu -0.00233(5) -0.93258(8) 0.62662(8)
Cu1F Cu 0.49767(5) 0.56742(8) 0.62662(8)
Cu2C Cu -0.32681(4) 0.08883(7) 0.19091(8)
Cu2D Cu 0.17319(4) -0.58883(7) 0.69091(8)
Cu2F Cu -0.32681(4) -0.08883(7) -0.30909(8)
O1C O -0.23636(19) 0.0801(3) 0.2404(3)
O2F O -0.15115(17) -0.2179(3) -0.1656(3)
O2C O -0.15115(17) 0.2179(3) 0.3344(3)
O3F O -0.26246(17) -0.3969(3) -0.0805(3)
O4F O -0.2623(2) -0.3187(3) -0.2565(3)
O5F O -0.12337(19) -0.2018(3) 0.1624(3)
O6F O -0.3582(2) -0.0627(3) -0.1642(3)
O6C O -0.3582(2) 0.0627(3) 0.3358(3)
O7F O -0.25187(17) -0.2034(3) -0.0840(3)
O8F O -0.23133(18) -0.0041(3) -0.0875(3)
O8C O -0.23133(18) 0.0041(3) 0.4125(3)
O9F O -0.15343(17) -0.3255(3) 0.0033(3)
O10C O -0.15968(19) -0.5711(3) 0.3285(3)
O10F O -0.15968(19) -0.4289(3) -0.1715(3)
O11C O -0.11981(18) 0.0083(3) 0.3317(3)
O12F O -0.13561(17) -0.1195(3) -0.0084(3)
O12C O -0.13561(17) 0.1195(3) 0.4916(3)
N1D N 0.0976(2) -0.6698(4) 0.6439(4)
N1C N -0.4024(2) 0.1698(4) 0.1439(4)
O13F O -0.3319(2) 0.0401(3) -0.0007(3)
N2F N 0.3873(2) 0.3192(4) 0.6067(4)
N3D N 0.0300(3) -0.8002(5) 0.6276(5)
N4D N 0.0363(3) -0.6345(4) 0.6344(4)
N5F N 0.4587(3) 0.4391(5) 0.6215(4)
N5D N -0.0413(3) -1.0609(5) 0.6215(4)
C1D C -0.0019(4) -0.7126(6) 0.6269(7)
H1D H -0.0462 -0.7081 0.6217
C2D C 0.0918(3) -0.7691(5) 0.6408(4)
H2D H 0.1267 -0.8132 0.6471
C3F C 0.3252(3) 0.2654(5) 0.5973(5)
H3F H 0.3337 0.1948 0.6136
H4F H 0.3019 0.2941 0.6410
N6F N 0.4434(3) 0.2726(5) 0.6101(6)
C4F C 0.4842(4) 0.3449(6) 0.6172(7)
H5F H 0.5277 0.3340 0.6193
C5F C 0.3970(3) 0.4190(5) 0.6147(5)
H6F H 0.3651 0.4671 0.6154
C6F C 0.2835(3) 0.2714(5) 0.5009(5)
H7F H 0.2798 0.3414 0.4804
H8F H 0.3034 0.2333 0.4582
C7D C 0.0220(3) -0.4766(5) 0.5420(5)
H9D H 0.0108 -0.4057 0.5450
H10D H 0.0660 -0.4799 0.5334
C8D C 0.0196(3) -0.5258(5) 0.6335(5)
H11D H -0.0234 -0.5184 0.6450
H12D H 0.0494 -0.4915 0.6833
loop_
_geom_bond_atom_site_label_1
_geom_bond_atom_site_label_2
_geom_bond_site_symmetry_1
_geom_bond_site_symmetry_2
Mo1 O1 1_555 1_555
Mo2 O2 1_555 1_555
Mo3 O5 1_555 1_555
Mo4 O6 1_555 1_555
Cu1 N3 1_555 1_555
Cu2 O1 1_555 1_555
O2 Mo1 1_555 1_555
O3 Mo2 1_555 1_555
O4 Mo2 1_555 1_555
O6 Cu2 1_555 1_555
O7 Mo2 1_555 1_555
O8 Mo1 1_555 1_555
O9 Mo2 1_555 1_555
O10 Mo2 1_555 1_555
O11 Mo1 1_555 1_555
O12 Mo1 1_555 1_555
N1 Cu2 1_555 1_555
O13 Mo4 1_555 1_555
N2 C3 1_555 1_555
N3 C1 1_555 1_555
N4 N1 1_555 1_555
N5 Cu1 1_555 1_555
C1 N4 1_555 1_555
H1 C1 1_555 1_555
C2 N1 1_555 1_555
H2 C2 1_555 1_555
C3 H3 1_555 1_555
H4 C3 1_555 1_555
N6 N2 1_555 1_555
C4 N5 1_555 1_555
H5 C4 1_555 1_555
C5 N2 1_555 1_555
H6 C5 1_555 1_555
C6 C3 1_555 1_555
H7 C6 1_555 1_555
H8 C6 1_555 1_555
C7 H9 1_555 1_555
H10 C7 1_555 1_555
C8 N4 1_555 1_555
H11 C8 1_555 1_555
H12 C8 1_555 1_555
Mo1C O1C 1_555 1_555
Mo1F O2F 1_555 1_555
Mo2F O2F 1_555 1_555
Mo2C O10C 1_555 1_555
Mo3F O3 1_555 1_555
Mo4F O3 1_555 1_555
Cu1D N3D 1_555 1_555
Cu1F N5F 1_555 1_555
Cu2C O10 1_555 1_555
Cu2D N1D 1_555 1_555
Cu2F O6F 1_555 1_555
O1C Cu2C 1_555 1_555
O2C Mo1C 1_555 1_555
O3F Mo3 1_555 1_555
O4F Mo2F 1_555 1_555
O5F Mo3F 1_555 1_555
O6F Mo4F 1_555 1_555
O6C Cu2C 1_555 1_555
O7F Mo3 1_555 1_555
O8F Mo1F 1_555 1_555
O8C Mo1C 1_555 1_555
O9F Mo4 1_555 1_555
O10C Cu2 1_555 1_555
O10F Mo2F 1_555 1_555
O11C Mo1C 1_555 1_555
O12F Mo1F 1_555 1_555
O12C Mo1C 1_555 1_555
N1D N4D 1_555 1_555
N1C Cu2C 1_555 1_555
O13F Mo4F 1_555 1_555
N2F C3F 1_555 1_555
N3D C1D 1_555 1_555
N4D C1D 1_555 1_555
N5F C4F 1_555 1_555
N5D Cu1D 1_555 1_555
C1D H1D 1_555 1_555
C2D N1D 1_555 1_555
H2D C2D 1_555 1_555
C3F H3F 1_555 1_555
H4F C3F 1_555 1_555
N6F N2F 1_555 1_555
C4F N6F 1_555 1_555
H5F C4F 1_555 1_555
C5F N2F 1_555 1_555
H6F C5F 1_555 1_555
C6F C6 1_555 1_555
H7F C6F 1_555 1_555
H8F C6F 1_555 1_555
C7D C7 1_555 1_555
H9D C7D 1_555 1_555
H10D C7D 1_555 1_555
C8D N4D 1_555 1_555
H11D C8D 1_555 1_555
H12D C8D 1_555 1_555
Mo3 O7 1_555 1_555
Mo3 O9 1_555 1_555
Mo3 O12 1_555 1_555
Mo4 O7 1_555 1_555
Mo4 O8 1_555 1_555
Mo4 O3F 1_555 1_555
O7 Mo3F 1_555 1_555
O9 Mo4F 1_555 1_555
N3 C2 1_555 1_555
N5 C5 1_555 1_555
N6 C4 1_555 1_555
C7 C8 1_555 1_555
Mo2F O3F 1_555 1_555
Mo2F O7F 1_555 1_555
Mo2F O9F 1_555 1_555
Mo3F O7F 1_555 1_555
Mo3F O9F 1_555 1_555
Mo3F O12F 1_555 1_555
Mo4F O7F 1_555 1_555
Mo4F O8F 1_555 1_555
N3D C2D 1_555 1_555
N5F C5F 1_555 1_555
C3F C6F 1_555 1_555
C7D C8D 1_555 1_555

#END
