
#######################################################################
#
#                 Cambridge Crystallographic Data Centre
#                                CCDC 
#
#######################################################################
#
# If this CIF has been generated from an entry in the Cambridge 
# Structural Database, then it will include bibliographic, chemical, 
# crystal, experimental, refinement or atomic coordinate data resulting 
# from the CCDC's data processing and validation procedures.
#
#######################################################################

data_IMIREC
_symmetry_cell_setting           monoclinic
_symmetry_space_group_name_H-M   'P 21/n'
_symmetry_Int_Tables_number      14
_space_group_name_Hall           '-P 2yn'
loop_
_symmetry_equiv_pos_site_id
_symmetry_equiv_pos_as_xyz
1 x,y,z
2 1/2-x,1/2+y,1/2-z
3 -x,-y,-z
4 1/2+x,1/2-y,1/2+z
_cell_length_a                   13.814(3)
_cell_length_b                   15.169(3)
_cell_length_c                   15.946(4)
_cell_angle_alpha                90
_cell_angle_beta                 96.006(3)
_cell_angle_gamma                90
_cell_volume                     3323.06
loop_
_atom_site_label
_atom_site_type_symbol
_atom_site_fract_x
_atom_site_fract_y
_atom_site_fract_z
Mo1 Mo 0.48795(6) -0.07400(5) 0.08490(5)
Mo2 Mo 0.69912(6) 0.00960(5) 0.06989(5)
Mo3 Mo 0.51439(6) 0.15693(5) 0.09970(5)
Mo4 Mo 0.30160(7) 0.06925(6) 0.12176(6)
Cu1 Cu 0.82514(9) -0.18614(8) 0.22337(8)
N1 N 0.5915(7) -0.1166(7) 0.3480(7)
N2 N 0.2238(6) -0.1217(5) 0.5540(5)
N3 N 1.5421(6) -0.4584(6) 0.1810(7)
N4 N 1.0889(7) -0.1947(7) 0.1263(7)
N5 N 0.9454(9) -0.1796(9) 0.0740(8)
N6 N 0.7129(7) -0.1739(6) 0.2913(6)
N7 N 1.5422(7) -0.5030(7) 0.1048(7)
N8 N 0.9408(6) -0.1936(6) 0.1596(6)
N9 N 0.2702(6) -0.2076(5) 0.6587(5)
N10 N 1.6089(6) -0.5848(5) 0.2128(5)
N11 N 0.2726(8) -0.0682(6) 0.6119(6)
N12 N 0.6158(10) -0.1834(8) 0.3977(9)
O1 O 0.4215(5) 0.1222(5) 0.1712(4)
O2 O 0.5802(5) 0.0164(4) 0.1319(4)
O3 O 0.7487(5) 0.0113(4) -0.0337(4)
O4 O 0.4022(4) -0.1210(4) -0.0101(4)
O5 O 0.4254(4) 0.0548(4) 0.0169(4)
O6 O 0.7416(5) -0.0877(4) 0.1126(4)
O7 O 0.3972(5) -0.0506(4) 0.1496(4)
O8 O 0.7652(5) 0.0868(4) 0.1242(5)
O9 O 0.5994(5) 0.2044(4) 0.1708(4)
O10 O 0.4586(5) 0.2436(4) 0.0478(4)
O11 O 0.2394(6) 0.0442(6) 0.2028(6)
O12 O 0.5419(5) -0.1663(4) 0.1245(4)
O13 O 0.2494(6) 0.1620(5) 0.0800(5)
C1 C 1.0359(9) -0.1802(9) 0.0562(8)
H1 H 1.0576 -0.1718 0.0035
C2 C 1.2346(8) -0.2887(7) 0.1358(8)
H2 H 1.2151 -0.3167 0.0820
H3 H 1.2071 -0.3225 0.1792
C3 C 1.3473(9) -0.2906(8) 0.1528(11)
H4 H 1.3736 -0.2547 0.1103
H5 H 1.3656 -0.2629 0.2070
C4 C 1.5829(9) -0.5762(8) 0.1288(7)
H6 H 1.5938 -0.6208 0.0908
C5 C 1.0323(8) -0.2008(8) 0.1892(8)
H7 H 1.0548 -0.2090 0.2457
C6 C 0.2984(9) -0.1243(6) 0.6749(7)
H8 H 0.3329 -0.1071 0.7255
C7 C 1.5817(7) -0.5073(6) 0.2435(7)
H9 H 1.5896 -0.4908 0.2999
C8 C 1.1952(10) -0.1993(9) 0.1347(10)
H10 H 1.2186 -0.1674 0.0881
H11 H 1.2201 -0.1698 0.1864
C9 C 1.3913(8) -0.3724(8) 0.1532(9)
H12 H 1.3826 -0.3965 0.0966
H13 H 1.3590 -0.4116 0.1895
C10 C 0.5121(8) -0.0609(9) 0.3699(11)
H14 H 0.5276 -0.0381 0.4265
H15 H 0.5049 -0.0111 0.3315
C11 C 1.5001(9) -0.3703(7) 0.1835(10)
H16 H 1.5331 -0.3310 0.1478
H17 H 1.5096 -0.3478 0.2407
C12 C 0.4176(9) -0.1112(9) 0.3652(8)
H18 H 0.4303 -0.1705 0.3864
H19 H 0.3905 -0.1157 0.3068
C13 C 0.3446(8) -0.0681(7) 0.4151(8)
H20 H 0.3686 -0.0703 0.4745
H21 H 0.3385 -0.0065 0.3989
C14 C 0.2437(9) -0.1109(8) 0.4030(7)
H22 H 0.2513 -0.1744 0.4012
H23 H 0.2108 -0.0922 0.3493
C15 C 0.1818(9) -0.0879(7) 0.4715(7)
H24 H 0.1173 -0.1127 0.4580
H25 H 0.1753 -0.0244 0.4745
C16 C 0.6491(8) -0.1085(7) 0.2907(7)
H26 H 0.6465 -0.0618 0.2528
C17 C 0.2240(7) -0.2042(6) 0.5823(6)
H27 H 0.1958 -0.2521 0.5527
C18 C 0.6898(11) -0.2154(10) 0.3608(10)
H28 H 0.7242 -0.2645 0.3822
Mo1B Mo 0.51205(6) 0.07400(5) -0.08490(5)
Mo2B Mo 0.30088(6) -0.00960(5) -0.06989(5)
Mo3B Mo 0.48561(6) -0.15693(5) -0.09970(5)
Mo4B Mo 0.69840(7) -0.06925(6) -0.12176(6)
Cu1C Cu 0.32514(9) -0.31386(8) 0.72337(8)
Cu1A Cu 1.67486(9) -0.68614(8) 0.27663(8)
Cu1A_2 Cu 0.67486(9) 0.31386(8) 0.27663(8)
N9C N 0.7702(6) -0.2924(5) 0.1587(5)
N10A N 0.8911(6) -0.0848(5) 0.2872(5)
O3B O 0.2513(5) -0.0113(4) 0.0337(4)
O4B O 0.5978(4) 0.1210(4) 0.0101(4)
O5B O 0.5746(4) -0.0548(4) -0.0169(4)
O9A O 0.9006(5) -0.2956(4) 0.3292(4)
loop_
_geom_bond_atom_site_label_1
_geom_bond_atom_site_label_2
_geom_bond_site_symmetry_1
_geom_bond_site_symmetry_2
Mo1 O2 1_555 1_555
Mo2 O2 1_555 1_555
Mo3 O1 1_555 1_555
Mo4 O1 1_555 1_555
Cu1 N6 1_555 1_555
N1 N12 1_555 1_555
N2 N11 1_555 1_555
N3 N7 1_555 1_555
N4 C1 1_555 1_555
N5 N8 1_555 1_555
N6 C16 1_555 1_555
N7 C4 1_555 1_555
N8 Cu1 1_555 1_555
N9 C6 1_555 1_555
N10 C4 1_555 1_555
N11 C6 1_555 1_555
N12 C18 1_555 1_555
O2 Mo3 1_555 1_555
O3 Mo2 1_555 1_555
O4 Mo1 1_555 1_555
O5 Mo1 1_555 1_555
O6 Mo2 1_555 1_555
O7 Mo1 1_555 1_555
O8 Mo2 1_555 1_555
O9 Mo3 1_555 1_555
O10 Mo3 1_555 1_555
O11 Mo4 1_555 1_555
O12 Mo1 1_555 1_555
O13 Mo4 1_555 1_555
C1 N5 1_555 1_555
H1 C1 1_555 1_555
C2 H2 1_555 1_555
H3 C2 1_555 1_555
C3 C2 1_555 1_555
H4 C3 1_555 1_555
H5 C3 1_555 1_555
C4 H6 1_555 1_555
C5 N4 1_555 1_555
H7 C5 1_555 1_555
C6 H8 1_555 1_555
C7 N3 1_555 1_555
H9 C7 1_555 1_555
C8 N4 1_555 1_555
H10 C8 1_555 1_555
H11 C8 1_555 1_555
C9 C3 1_555 1_555
H12 C9 1_555 1_555
H13 C9 1_555 1_555
C10 N1 1_555 1_555
H14 C10 1_555 1_555
H15 C10 1_555 1_555
C11 N3 1_555 1_555
H16 C11 1_555 1_555
H17 C11 1_555 1_555
C12 C10 1_555 1_555
H18 C12 1_555 1_555
H19 C12 1_555 1_555
C13 C12 1_555 1_555
H20 C13 1_555 1_555
H21 C13 1_555 1_555
C14 C13 1_555 1_555
H22 C14 1_555 1_555
H23 C14 1_555 1_555
C15 N2 1_555 1_555
H24 C15 1_555 1_555
H25 C15 1_555 1_555
C16 N1 1_555 1_555
H26 C16 1_555 1_555
C17 N2 1_555 1_555
H27 C17 1_555 1_555
C18 N6 1_555 1_555
H28 C18 1_555 1_555
Mo1B O5 1_555 1_555
Mo2B O4 1_555 1_555
Mo3B O4 1_555 1_555
Mo4B O3 1_555 1_555
Cu1C N9 1_555 1_555
Cu1A N10 1_555 1_555
Cu1A_2 O9 1_555 1_555
N9C Cu1 1_555 1_555
N10A Cu1 1_555 1_555
O3B Mo4 1_555 1_555
O4B Mo2 1_555 1_555
O5B Mo1 1_555 1_555
O9A Cu1 1_555 1_555
Mo2 O5B 1_555 1_555
Mo3 O5 1_555 1_555
Mo3 O4B 1_555 1_555
Mo4 O5 1_555 1_555
Mo4 O7 1_555 1_555
Cu1 O6 1_555 1_555
N8 C5 1_555 1_555
N9 C17 1_555 1_555
N10 C7 1_555 1_555
O5 Mo2B 1_555 1_555
C2 C8 1_555 1_555
C9 C11 1_555 1_555
C14 C15 1_555 1_555
Mo1B O4B 1_555 1_555
Mo1B O5B 1_555 1_555
Mo2B O3B 1_555 1_555
Mo3B O5B 1_555 1_555
Mo4B O5B 1_555 1_555

#END
