
#######################################################################
#
#                 Cambridge Crystallographic Data Centre
#                                CCDC 
#
#######################################################################
#
# If this CIF has been generated from an entry in the Cambridge 
# Structural Database, then it will include bibliographic, chemical, 
# crystal, experimental, refinement or atomic coordinate data resulting 
# from the CCDC's data processing and validation procedures.
#
#######################################################################

data_IMIRUS
_symmetry_cell_setting           tetragonal
_symmetry_space_group_name_H-M   'I -4'
_symmetry_Int_Tables_number      82
_space_group_name_Hall           'I -4'
loop_
_symmetry_equiv_pos_site_id
_symmetry_equiv_pos_as_xyz
1 x,y,z
2 -x,-y,z
3 y,-x,-z
4 -y,x,-z
5 1/2+x,1/2+y,1/2+z
6 1/2-x,1/2-y,1/2+z
7 1/2+y,1/2-x,1/2-z
8 1/2-y,1/2+x,1/2-z
_cell_length_a                   13.2978(19)
_cell_length_b                   13.2978(19)
_cell_length_c                   9.944(2)
_cell_angle_alpha                90
_cell_angle_beta                 90
_cell_angle_gamma                90
_cell_volume                     1758.41
loop_
_atom_site_label
_atom_site_type_symbol
_atom_site_fract_x
_atom_site_fract_y
_atom_site_fract_z
Cu1 Cu -0.39995(5) 0.45375(5) 0.09502(8)
Br1 Br -0.43892(4) 0.62958(3) 0.16390(5)
N1 N -0.2723(3) 0.3817(3) 0.1502(5)
N2 N -0.1468(3) 0.2644(3) 0.0741(5)
N3 N -0.2418(3) 0.4899(3) 0.3349(5)
C1 C -0.2061(4) 0.4126(3) 0.2461(5)
C2 C -0.2384(4) 0.3067(4) 0.0749(6)
H1 H -0.2854 0.2792 0.0130
C3 C -0.2003(3) 0.5823(3) 0.3322(5)
C4 C -0.1105(3) 0.3752(3) 0.2588(5)
H2 H -0.0656 0.3992 0.3259
C5 C -0.3255(4) 0.4649(4) 0.4224(6)
H3 H -0.3822 0.5097 0.4031
H4 H -0.3457 0.3950 0.4068
H5 H -0.3050 0.4731 0.5164
Cu1A Cu -0.60005(5) 0.54625(5) 0.09502(8)
Cu1B Cu -0.54625(5) 0.39995(5) -0.09502(8)
Cu1C Cu -0.45375(5) 0.60005(5) -0.09502(8)
Cu1F Cu -0.04625(5) 0.89995(5) 0.40498(8)
Cu1A_2 Cu 0.39995(5) 0.54625(5) 0.09502(8)
Cu1G Cu 0.04625(5) 0.10005(5) 0.40498(8)
Br1A Br -0.56108(4) 0.37042(3) 0.16390(5)
Br1B Br -0.37042(3) 0.43892(4) -0.16390(5)
Br1C Br -0.62958(3) 0.56108(4) -0.16390(5)
N1F N -0.1183(3) 0.7723(3) 0.3498(5)
N1A N 0.2723(3) 0.6183(3) 0.1502(5)
N1G N 0.1183(3) 0.2277(3) 0.3498(5)
N1A_2 N -0.7277(3) 0.6183(3) 0.1502(5)
N1B N -0.6183(3) 0.2723(3) -0.1502(5)
N1C N -0.3817(3) 0.7277(3) -0.1502(5)
N2F N -0.2356(3) 0.6468(3) 0.4259(5)
N2A N 0.1468(3) 0.7356(3) 0.0741(5)
N2G N 0.2356(3) 0.3532(3) 0.4259(5)
N3F N -0.0101(3) 0.7418(3) 0.1651(5)
N3A N 0.2418(3) 0.5101(3) 0.3349(5)
N3G N 0.0101(3) 0.2582(3) 0.1651(5)
C1F C -0.0874(3) 0.7061(4) 0.2539(5)
C1A C 0.2061(4) 0.5874(3) 0.2461(5)
C1G C 0.0874(3) 0.2939(4) 0.2539(5)
C2F C -0.1933(4) 0.7384(4) 0.4251(6)
C2A C 0.2384(4) 0.6933(4) 0.0749(6)
C2G C 0.1933(4) 0.2616(4) 0.4251(6)
H1G H 0.2208 0.2146 0.4870
H1A H 0.2854 0.7208 0.0130
H1F H -0.2208 0.7854 0.4870
C3F C 0.0823(3) 0.7003(3) 0.1678(5)
C3A C 0.2003(3) 0.4177(3) 0.3322(5)
C3G C -0.0823(3) 0.2997(3) 0.1678(5)
C4G C 0.1248(3) 0.3895(3) 0.2412(5)
C4A C 0.1105(3) 0.6248(3) 0.2588(5)
C4F C -0.1248(3) 0.6105(3) 0.2412(5)
H2G H 0.1008 0.4344 0.1741
H2A H 0.0656 0.6008 0.3259
H2F H -0.1008 0.5656 0.1741
C5G C 0.0351(4) 0.1745(4) 0.0776(6)
C5A C 0.3255(4) 0.5351(4) 0.4224(6)
C5F C -0.0351(4) 0.8255(4) 0.0776(6)
H3G H -0.0097 0.1178 0.0969
H3A H 0.3822 0.4903 0.4031
H3F H 0.0097 0.8822 0.0969
H4G H 0.1050 0.1543 0.0932
H4A H 0.3457 0.6050 0.4068
H4F H -0.1050 0.8457 0.0932
H5G H 0.0269 0.1950 -0.0164
H5A H 0.3050 0.5269 0.5164
H5F H -0.0269 0.8050 -0.0164
loop_
_geom_bond_atom_site_label_1
_geom_bond_atom_site_label_2
_geom_bond_site_symmetry_1
_geom_bond_site_symmetry_2
Cu1 Br1 1_555 1_555
Br1 Cu1A 1_555 1_555
N1 Cu1 1_555 1_555
N2 C2 1_555 1_555
N3 C1 1_555 1_555
C1 N1 1_555 1_555
C2 N1 1_555 1_555
H1 C2 1_555 1_555
C3 N3 1_555 1_555
C4 C1 1_555 1_555
H2 C4 1_555 1_555
C5 N3 1_555 1_555
H3 C5 1_555 1_555
H4 C5 1_555 1_555
H5 C5 1_555 1_555
Cu1A Cu1 1_555 1_555
Cu1B Cu1 1_555 1_555
Cu1C Cu1 1_555 1_555
Cu1F N1F 1_555 1_555
Cu1A_2 N1A 1_555 1_555
Cu1G N1G 1_555 1_555
Br1A Cu1 1_555 1_555
Br1B Cu1 1_555 1_555
Br1C Cu1A 1_555 1_555
N1F C1F 1_555 1_555
N1A C1A 1_555 1_555
N1G C1G 1_555 1_555
N1A_2 Cu1A 1_555 1_555
N1B Cu1B 1_555 1_555
N1C Cu1C 1_555 1_555
N2F C3 1_555 1_555
N2A C2A 1_555 1_555
N2G C2G 1_555 1_555
N3F C1F 1_555 1_555
N3A C1A 1_555 1_555
N3G C1G 1_555 1_555
C1F C4F 1_555 1_555
C1A C4A 1_555 1_555
C1G C4G 1_555 1_555
C2F N1F 1_555 1_555
C2A N1A 1_555 1_555
C2G N1G 1_555 1_555
H1G C2G 1_555 1_555
H1A C2A 1_555 1_555
H1F C2F 1_555 1_555
C3F N2A 1_555 1_555
C3A N2G 1_555 1_555
C3G N2 1_555 1_555
C4G C3A 1_555 1_555
C4A C3F 1_555 1_555
C4F C3 1_555 1_555
H2G C4G 1_555 1_555
H2A C4A 1_555 1_555
H2F C4F 1_555 1_555
C5G N3G 1_555 1_555
C5A N3A 1_555 1_555
C5F N3F 1_555 1_555
H3G C5G 1_555 1_555
H3A C5A 1_555 1_555
H3F C5F 1_555 1_555
H4G C5G 1_555 1_555
H4A C5A 1_555 1_555
H4F C5F 1_555 1_555
H5G C5G 1_555 1_555
H5A C5A 1_555 1_555
H5F C5F 1_555 1_555
Br1 Cu1C 1_555 1_555
C4 C3G 1_555 1_555
Cu1A Cu1B 1_555 1_555
Cu1A Cu1C 1_555 1_555
Cu1A Br1A 1_555 1_555
Cu1B Cu1C 1_555 1_555
Cu1B Br1A 1_555 1_555
Cu1B Br1B 1_555 1_555
Cu1B Br1C 1_555 1_555
Cu1C Br1B 1_555 1_555
Cu1C Br1C 1_555 1_555
N2F C2F 1_555 1_555
N3F C3F 1_555 1_555
N3A C3A 1_555 1_555
N3G C3G 1_555 1_555

#END
