
#######################################################################
#
#                 Cambridge Crystallographic Data Centre
#                                CCDC 
#
#######################################################################
#
# If this CIF has been generated from an entry in the Cambridge 
# Structural Database, then it will include bibliographic, chemical, 
# crystal, experimental, refinement or atomic coordinate data resulting 
# from the CCDC's data processing and validation procedures.
#
#######################################################################

data_IMISON
_symmetry_cell_setting           tetragonal
_symmetry_space_group_name_H-M   'I -4'
_symmetry_Int_Tables_number      82
_space_group_name_Hall           'I -4'
loop_
_symmetry_equiv_pos_site_id
_symmetry_equiv_pos_as_xyz
1 x,y,z
2 -x,-y,z
3 y,-x,-z
4 -y,x,-z
5 1/2+x,1/2+y,1/2+z
6 1/2-x,1/2-y,1/2+z
7 1/2+y,1/2-x,1/2-z
8 1/2-y,1/2+x,1/2-z
_cell_length_a                   12.6690(18)
_cell_length_b                   12.6690(18)
_cell_length_c                   11.982(2)
_cell_angle_alpha                90
_cell_angle_beta                 90
_cell_angle_gamma                90
_cell_volume                     1923.15
loop_
_atom_site_label
_atom_site_type_symbol
_atom_site_fract_x
_atom_site_fract_y
_atom_site_fract_z
Cu1 Cu 0.54648(5) 0.59911(5) 0.91996(6)
I1 I 0.65353(3) 0.42656(3) 0.86137(3)
N1 N 0.6289(4) 0.7233(4) 0.8504(4)
N2 N 0.3588(4) 0.7463(4) 0.6015(4)
N3 N 0.5177(3) 0.7418(4) 0.6913(4)
C1 C 0.5953(4) 0.7850(4) 0.7655(4)
C2 C 0.6355(4) 0.8848(4) 0.7449(5)
H1 H 0.6108 0.9267 0.6846
C3 C 0.4211(4) 0.7852(4) 0.6821(4)
C4 C 0.7079(4) 0.7621(5) 0.9089(6)
H2 H 0.7362 0.7173 0.9649
C5 C 0.5496(4) 0.6485(5) 0.6260(5)
H3 H 0.4870 0.6157 0.5928
H4 H 0.5983 0.6701 0.5667
H5 H 0.5848 0.5976 0.6752
Cu1A Cu 0.45352(5) 0.40089(5) 0.91996(6)
Cu1C Cu 0.40089(5) 0.54648(5) 1.08004(6)
Cu1B Cu 0.59911(5) 0.45352(5) 1.08004(6)
Cu1F Cu 0.09911(5) 0.95352(5) 0.58004(6)
Cu1A_2 Cu 0.45352(5) 1.40089(5) 0.91996(6)
Cu1G Cu 0.90089(5) 1.04648(5) 0.58004(6)
I1A I 0.34647(3) 0.57344(3) 0.86137(3)
I1C I 0.57344(3) 0.65353(3) 1.13863(3)
I1B I 0.42656(3) 0.34647(3) 1.13863(3)
N1F N 0.2233(4) 0.8711(4) 0.6496(4)
N1A N 0.3711(4) 1.2767(4) 0.8504(4)
N1G N 0.7767(4) 1.1289(4) 0.6496(4)
N1A_2 N 0.3711(4) 0.2767(4) 0.8504(4)
N1C N 0.2767(4) 0.6289(4) 1.1496(4)
N1B N 0.7233(4) 0.3711(4) 1.1496(4)
N2F N 0.2463(4) 1.1412(4) 0.8985(4)
N2A N 0.6412(4) 1.2537(4) 0.6015(4)
N2G N 0.7537(4) 0.8588(4) 0.8985(4)
N3F N 0.2418(4) 0.9823(3) 0.8087(4)
N3A N 0.4823(3) 1.2582(4) 0.6913(4)
N3G N 0.7582(4) 1.0177(3) 0.8087(4)
C1F C 0.2850(4) 0.9047(4) 0.7345(4)
C1A C 0.4047(4) 1.2150(4) 0.7655(4)
C1G C 0.7150(4) 1.0953(4) 0.7345(4)
C2G C 0.6152(4) 1.1355(4) 0.7551(5)
C2A C 0.3645(4) 1.1152(4) 0.7449(5)
C2F C 0.3848(4) 0.8645(4) 0.7551(5)
H1G H 0.5733 1.1108 0.8154
H1A H 0.3892 1.0733 0.6846
H1F H 0.4267 0.8892 0.8154
C3F C 0.2852(4) 1.0789(4) 0.8179(4)
C3A C 0.5789(4) 1.2148(4) 0.6821(4)
C3G C 0.7148(4) 0.9211(4) 0.8179(4)
C4F C 0.2621(5) 0.7921(4) 0.5911(6)
C4A C 0.2921(4) 1.2379(5) 0.9089(6)
C4G C 0.7379(5) 1.2079(4) 0.5911(6)
H2G H 0.7827 1.2362 0.5351
H2A H 0.2638 1.2827 0.9649
H2F H 0.2173 0.7638 0.5351
C5G C 0.8515(5) 1.0496(4) 0.8740(5)
C5A C 0.4504(4) 1.3515(5) 0.6260(5)
C5F C 0.1485(5) 0.9504(4) 0.8740(5)
H3G H 0.8843 0.9870 0.9072
H3A H 0.5130 1.3843 0.5928
H3F H 0.1157 1.0130 0.9072
H4G H 0.8299 1.0983 0.9333
H4A H 0.4017 1.3299 0.5667
H4F H 0.1701 0.9017 0.9333
H5G H 0.9024 1.0848 0.8248
H5A H 0.4152 1.4024 0.6752
H5F H 0.0976 0.9152 0.8248
loop_
_geom_bond_atom_site_label_1
_geom_bond_atom_site_label_2
_geom_bond_site_symmetry_1
_geom_bond_site_symmetry_2
Cu1 I1 1_555 1_555
I1 Cu1A 1_555 1_555
N1 Cu1 1_555 1_555
N2 C3 1_555 1_555
N3 C1 1_555 1_555
C1 N1 1_555 1_555
C2 C1 1_555 1_555
H1 C2 1_555 1_555
C3 N3 1_555 1_555
C4 N1 1_555 1_555
H2 C4 1_555 1_555
C5 N3 1_555 1_555
H3 C5 1_555 1_555
H4 C5 1_555 1_555
H5 C5 1_555 1_555
Cu1A Cu1 1_555 1_555
Cu1C Cu1 1_555 1_555
Cu1B Cu1 1_555 1_555
Cu1F N1F 1_555 1_555
Cu1A_2 N1A 1_555 1_555
Cu1G N1G 1_555 1_555
I1A Cu1 1_555 1_555
I1C Cu1 1_555 1_555
I1B Cu1A 1_555 1_555
N1F C1F 1_555 1_555
N1A C1A 1_555 1_555
N1G C1G 1_555 1_555
N1A_2 Cu1A 1_555 1_555
N1C Cu1C 1_555 1_555
N1B Cu1B 1_555 1_555
N2F C3F 1_555 1_555
N2A C3A 1_555 1_555
N2G C4 1_555 1_555
N3F C1F 1_555 1_555
N3A C1A 1_555 1_555
N3G C1G 1_555 1_555
C1F C2F 1_555 1_555
C1A C2A 1_555 1_555
C1G C2G 1_555 1_555
C2G H1G 1_555 1_555
C2A H1A 1_555 1_555
C2F C3 1_555 1_555
H1F C2F 1_555 1_555
C3F N3F 1_555 1_555
C3A N3A 1_555 1_555
C3G C2 1_555 1_555
C4F N2 1_555 1_555
C4A N1A 1_555 1_555
C4G N1G 1_555 1_555
H2G C4G 1_555 1_555
H2A C4A 1_555 1_555
H2F C4F 1_555 1_555
C5G N3G 1_555 1_555
C5A N3A 1_555 1_555
C5F N3F 1_555 1_555
H3G C5G 1_555 1_555
H3A C5A 1_555 1_555
H3F C5F 1_555 1_555
H4G C5G 1_555 1_555
H4A C5A 1_555 1_555
H4F C5F 1_555 1_555
H5G C5G 1_555 1_555
H5A C5A 1_555 1_555
H5F C5F 1_555 1_555
I1 Cu1B 1_555 1_555
Cu1A Cu1C 1_555 1_555
Cu1A Cu1B 1_555 1_555
Cu1A I1A 1_555 1_555
Cu1C Cu1B 1_555 1_555
Cu1C I1A 1_555 1_555
Cu1C I1C 1_555 1_555
Cu1C I1B 1_555 1_555
Cu1B I1C 1_555 1_555
Cu1B I1B 1_555 1_555
N1F C4F 1_555 1_555
N2F C4A 1_555 1_555
N2A C4G 1_555 1_555
N2G C3G 1_555 1_555
N3G C3G 1_555 1_555
C2G C3A 1_555 1_555
C2A C3F 1_555 1_555

#END
