
#######################################################################
#
#                 Cambridge Crystallographic Data Centre
#                                CCDC 
#
#######################################################################
#
# If this CIF has been generated from an entry in the Cambridge 
# Structural Database, then it will include bibliographic, chemical, 
# crystal, experimental, refinement or atomic coordinate data resulting 
# from the CCDC's data processing and validation procedures.
#
#######################################################################

data_IMIXEI
_symmetry_cell_setting           monoclinic
_symmetry_space_group_name_H-M   'P 21/c'
_symmetry_Int_Tables_number      14
_space_group_name_Hall           '-P 2ybc'
loop_
_symmetry_equiv_pos_site_id
_symmetry_equiv_pos_as_xyz
1 x,y,z
2 -x,1/2+y,1/2-z
3 -x,-y,-z
4 x,1/2-y,1/2+z
_cell_length_a                   14.0966(5)
_cell_length_b                   14.1845(7)
_cell_length_c                   24.6706(11)
_cell_angle_alpha                90
_cell_angle_beta                 92.5110(10)
_cell_angle_gamma                90
_cell_volume                     4928.23
loop_
_atom_site_label
_atom_site_type_symbol
_atom_site_fract_x
_atom_site_fract_y
_atom_site_fract_z
Cu1 Cu 0.85956(3) 0.66522(3) 0.33858(2)
Cu2 Cu 0.81741(3) 0.44552(4) 0.27765(2)
Cu3 Cu 0.52166(4) 0.96297(4) 0.42878(2)
N1 N 0.7671(2) 0.7668(2) 0.36012(14)
N2 N 0.6237(2) 0.8811(2) 0.39524(14)
N3 N 0.7440(3) 0.5898(3) 0.34244(16)
C1 C 0.7831(3) 0.8561(3) 0.36962(17)
H1 H 0.8447 0.8810 0.3648
C2 C 0.7108(3) 0.9161(3) 0.38695(18)
H2 H 0.7234 0.9812 0.3928
C3 C 0.6081(3) 0.7909(3) 0.38415(19)
H3 H 0.5461 0.7661 0.3879
C4 C 0.6780(3) 0.7322(3) 0.36758(16)
C5 C 0.6702(3) 0.6312(4) 0.3576(2)
C6 C 0.5717(4) 0.5787(4) 0.3610(3)
H4 H 0.5199 0.6237 0.3538
H5 H 0.5664 0.5517 0.3973
H6 H 0.5677 0.5282 0.3339
O1 O 0.73762(19) 0.4977(2) 0.33023(13)
N4 N 0.9058(2) 0.3657(2) 0.23489(14)
N5 N 1.0407(2) 0.2557(2) 0.18982(13)
N6 N 0.9438(2) 0.4918(2) 0.30510(13)
C7 C 0.8812(3) 0.2999(3) 0.19856(18)
H7 H 0.8160 0.2910 0.1884
C8 C 0.9463(3) 0.2461(3) 0.17625(17)
H8 H 0.9265 0.1999 0.1502
C9 C 1.0639(2) 0.3182(2) 0.22844(14)
H9 H 1.1282 0.3239 0.2412
C10 C 0.9950(2) 0.3755(3) 0.25033(15)
C11 C 1.0172(3) 0.4516(3) 0.28993(17)
C12 C 1.1176(3) 0.4756(3) 0.3074(2)
H10 H 1.1181 0.5099 0.3419
H11 H 1.1456 0.5152 0.2798
H12 H 1.1547 0.4175 0.3120
O2 O 0.95300(18) 0.56512(19) 0.34033(11)
N7 N 0.7105(2) 0.4457(2) 0.21864(13)
N8 N 0.5652(2) 0.4570(2) 0.13851(15)
N9 N 0.5941(2) 0.5129(3) 0.04087(16)
C13 C 0.6191(3) 0.4233(3) 0.22867(17)
H13 H 0.6027 0.4068 0.2644
C14 C 0.5500(3) 0.4245(3) 0.1872(2)
H14 H 0.4887 0.4008 0.1942
C15 C 0.6549(3) 0.4830(3) 0.12924(18)
C16 C 0.7277(3) 0.4772(3) 0.16838(17)
H15 H 0.7901 0.4956 0.1599
C17 C 0.6732(3) 0.5204(4) 0.0730(2)
C18 C 0.7667(4) 0.5520(5) 0.0561(2)
H16 H 0.8055 0.4970 0.0476
H17 H 0.7984 0.5879 0.0856
H18 H 0.7587 0.5921 0.0239
O3 O 0.6040(2) 0.5515(3) -0.00815(14)
Cu1A Cu 1.14044(3) 0.16522(3) 0.16142(2)
Cu3A Cu 0.47834(4) 0.46297(4) 0.07122(2)
Cu3C Cu 0.52166(4) 0.53703(4) -0.07122(2)
N5A N 0.9593(2) 0.7557(2) 0.31018(13)
N8A N 0.4348(2) 0.9570(2) 0.36149(15)
N9A N 0.4059(2) 1.0129(3) 0.45913(16)
O3C O 0.6040(2) 0.9485(3) 0.49185(14)
loop_
_geom_bond_atom_site_label_1
_geom_bond_atom_site_label_2
_geom_bond_site_symmetry_1
_geom_bond_site_symmetry_2
Cu1 N1 1_555 1_555
Cu2 O1 1_555 1_555
Cu3 N2 1_555 1_555
N1 C1 1_555 1_555
N2 C2 1_555 1_555
N3 Cu1 1_555 1_555
C1 H1 1_555 1_555
C2 C1 1_555 1_555
H2 C2 1_555 1_555
C3 N2 1_555 1_555
H3 C3 1_555 1_555
C4 N1 1_555 1_555
C5 N3 1_555 1_555
C6 C5 1_555 1_555
H4 C6 1_555 1_555
H5 C6 1_555 1_555
H6 C6 1_555 1_555
O1 N3 1_555 1_555
N4 Cu2 1_555 1_555
N5 C8 1_555 1_555
N6 Cu2 1_555 1_555
C7 N4 1_555 1_555
H7 C7 1_555 1_555
C8 C7 1_555 1_555
H8 C8 1_555 1_555
C9 N5 1_555 1_555
H9 C9 1_555 1_555
C10 N4 1_555 1_555
C11 N6 1_555 1_555
C12 C11 1_555 1_555
H10 C12 1_555 1_555
H11 C12 1_555 1_555
H12 C12 1_555 1_555
O2 Cu1 1_555 1_555
N7 Cu2 1_555 1_555
N8 C14 1_555 1_555
N9 C17 1_555 1_555
C13 N7 1_555 1_555
H13 C13 1_555 1_555
C14 C13 1_555 1_555
H14 C14 1_555 1_555
C15 N8 1_555 1_555
C16 N7 1_555 1_555
H15 C16 1_555 1_555
C17 C15 1_555 1_555
C18 C17 1_555 1_555
H16 C18 1_555 1_555
H17 C18 1_555 1_555
H18 C18 1_555 1_555
O3 N9 1_555 1_555
Cu1A N5 1_555 1_555
Cu3A N8 1_555 1_555
Cu3C O3 1_555 1_555
N5A Cu1 1_555 1_555
N8A Cu3 1_555 1_555
N9A Cu3 1_555 1_555
O3C Cu3 1_555 1_555
C3 C4 1_555 1_555
C4 C5 1_555 1_555
N6 O2 1_555 1_555
C9 C10 1_555 1_555
C10 C11 1_555 1_555
N9 Cu3A 1_555 1_555
C15 C16 1_555 1_555

#END
