
#######################################################################
#
#                 Cambridge Crystallographic Data Centre
#                                CCDC 
#
#######################################################################
#
# If this CIF has been generated from an entry in the Cambridge 
# Structural Database, then it will include bibliographic, chemical, 
# crystal, experimental, refinement or atomic coordinate data resulting 
# from the CCDC's data processing and validation procedures.
#
#######################################################################

data_IMOPEG
_symmetry_cell_setting           orthorhombic
_symmetry_space_group_name_H-M   'P b c n'
_symmetry_Int_Tables_number      60
_space_group_name_Hall           '-P 2n 2ab'
loop_
_symmetry_equiv_pos_site_id
_symmetry_equiv_pos_as_xyz
1 x,y,z
2 1/2-x,1/2-y,1/2+z
3 1/2+x,1/2-y,-z
4 -x,y,1/2-z
5 -x,-y,-z
6 1/2+x,1/2+y,1/2-z
7 1/2-x,1/2+y,z
8 x,-y,1/2+z
_cell_length_a                   16.579(2)
_cell_length_b                   9.5355(11)
_cell_length_c                   13.8432(18)
_cell_angle_alpha                90
_cell_angle_beta                 90
_cell_angle_gamma                90
_cell_volume                     2188.46
loop_
_atom_site_label
_atom_site_type_symbol
_atom_site_fract_x
_atom_site_fract_y
_atom_site_fract_z
Zn1 Zn 0.0000 0.49105(5) -0.2500
C1 C 0.04770(16) 0.2235(3) -0.0345(2)
C2 C 0.09309(17) 0.1074(3) 0.01067(19)
C3 C 0.07296(17) 0.0625(3) 0.1034(2)
H1 H 0.0322 0.1079 0.1375
C4 C 0.11334(18) -0.0491(3) 0.1450(2)
H2 H 0.0997 -0.0784 0.2069
C5 C 0.17402(17) -0.1177(3) 0.0949(2)
C6 C 0.19388(19) -0.0733(3) 0.0034(2)
H3 H 0.2343 -0.1194 -0.0306
C7 C 0.15436(18) 0.0392(3) -0.0387(2)
H4 H 0.1690 0.0690 -0.1003
C8 C 0.21607(19) -0.2419(3) 0.1402(3)
H5 H 0.1787 -0.2904 0.1826
H6 H 0.2325 -0.3067 0.0899
C9 C 0.34861(17) -0.1195(3) 0.1699(2)
H7 H 0.3551 -0.0789 0.1093
C10 C 0.3658(2) -0.1860(5) 0.3119(2)
H8 H 0.3892 -0.1984 0.3723
N1 N 0.06317(15) 0.2738(3) -0.12210(17)
N2 N 0.00589(14) 0.3718(3) -0.13379(17)
N3 N -0.04178(15) 0.3799(2) -0.05772(18)
N4 N -0.01569(15) 0.2868(3) 0.00660(17)
N5 N 0.28724(13) -0.1982(2) 0.19582(17)
N6 N 0.39953(14) -0.1068(3) 0.24231(16)
N7 N 0.29728(18) -0.2441(4) 0.2875(2)
Zn1A Zn -0.5000 0.00895(5) -0.7500
Zn1A_2 Zn 0.5000 0.00895(5) 0.2500
C1C C -0.04770(16) 0.2235(3) -0.4655(2)
C2C C -0.09309(17) 0.1074(3) -0.51067(19)
C3C C -0.07296(17) 0.0625(3) -0.6034(2)
H1C H -0.0322 0.1079 -0.6375
C4C C -0.11334(18) -0.0491(3) -0.6450(2)
H2C H -0.0997 -0.0784 -0.7069
C5C C -0.17402(17) -0.1177(3) -0.5949(2)
C6C C -0.19388(19) -0.0733(3) -0.5034(2)
H3C H -0.2343 -0.1194 -0.4694
C7C C -0.15436(18) 0.0392(3) -0.4613(2)
H4C H -0.1690 0.0690 -0.3997
C8C C -0.21607(19) -0.2419(3) -0.6402(3)
H5C H -0.1787 -0.2904 -0.6826
H6C H -0.2325 -0.3067 -0.5899
C9C C -0.34861(17) -0.1195(3) -0.6699(2)
H7C H -0.3551 -0.0789 -0.6093
C10C C -0.3658(2) -0.1860(5) -0.8119(2)
H8C H -0.3892 -0.1984 -0.8723
N1C N -0.06317(15) 0.2738(3) -0.37790(17)
N2C N -0.00589(14) 0.3718(3) -0.36621(17)
N3C N 0.04178(15) 0.3799(2) -0.44228(18)
N4C N 0.01569(15) 0.2868(3) -0.50660(17)
N5C N -0.28724(13) -0.1982(2) -0.69582(17)
N6C N -0.39953(14) -0.1068(3) -0.74231(16)
N6A N 0.10047(14) 0.6068(3) -0.25769(16)
N6B N -0.10047(14) 0.6068(3) -0.24231(16)
N7C N -0.29728(18) -0.2441(4) -0.7875(2)
loop_
_geom_bond_atom_site_label_1
_geom_bond_atom_site_label_2
_geom_bond_site_symmetry_1
_geom_bond_site_symmetry_2
Zn1 N2 1_555 1_555
C1 C2 1_555 1_555
C2 C3 1_555 1_555
C3 H1 1_555 1_555
C4 C3 1_555 1_555
H2 C4 1_555 1_555
C5 C4 1_555 1_555
C6 C5 1_555 1_555
H3 C6 1_555 1_555
C7 C2 1_555 1_555
H4 C7 1_555 1_555
C8 C5 1_555 1_555
H5 C8 1_555 1_555
H6 C8 1_555 1_555
C9 H7 1_555 1_555
C10 H8 1_555 1_555
N1 C1 1_555 1_555
N2 N1 1_555 1_555
N3 N2 1_555 1_555
N4 C1 1_555 1_555
N5 C8 1_555 1_555
N6 C9 1_555 1_555
N7 C10 1_555 1_555
Zn1A N6C 1_555 1_555
Zn1A_2 N6 1_555 1_555
C1C C2C 1_555 1_555
C2C C3C 1_555 1_555
C3C H1C 1_555 1_555
C4C C3C 1_555 1_555
H2C C4C 1_555 1_555
C5C C4C 1_555 1_555
C6C C5C 1_555 1_555
H3C C6C 1_555 1_555
C7C C2C 1_555 1_555
H4C C7C 1_555 1_555
C8C C5C 1_555 1_555
H5C C8C 1_555 1_555
H6C C8C 1_555 1_555
C9C H7C 1_555 1_555
C10C H8C 1_555 1_555
N1C C1C 1_555 1_555
N2C Zn1 1_555 1_555
N3C N2C 1_555 1_555
N4C C1C 1_555 1_555
N5C C8C 1_555 1_555
N6C C9C 1_555 1_555
N6A Zn1 1_555 1_555
N6B Zn1 1_555 1_555
N7C C10C 1_555 1_555
C6 C7 1_555 1_555
C9 N5 1_555 1_555
C10 N6 1_555 1_555
N3 N4 1_555 1_555
N5 N7 1_555 1_555
C6C C7C 1_555 1_555
C9C N5C 1_555 1_555
C10C N6C 1_555 1_555
N1C N2C 1_555 1_555
N3C N4C 1_555 1_555
N5C N7C 1_555 1_555

#END
