
#######################################################################
#
#                 Cambridge Crystallographic Data Centre
#                                CCDC 
#
#######################################################################
#
# If this CIF has been generated from an entry in the Cambridge 
# Structural Database, then it will include bibliographic, chemical, 
# crystal, experimental, refinement or atomic coordinate data resulting 
# from the CCDC's data processing and validation procedures.
#
#######################################################################

data_IMOPOQ
_symmetry_cell_setting           triclinic
_symmetry_space_group_name_H-M   'P -1'
_symmetry_Int_Tables_number      2
_space_group_name_Hall           '-P 1'
loop_
_symmetry_equiv_pos_site_id
_symmetry_equiv_pos_as_xyz
1 x,y,z
2 -x,-y,-z
_cell_length_a                   9.942(5)
_cell_length_b                   11.405(5)
_cell_length_c                   14.653(5)
_cell_angle_alpha                106.754(5)
_cell_angle_beta                 95.531(5)
_cell_angle_gamma                106.056(5)
_cell_volume                     1500.63
loop_
_atom_site_label
_atom_site_type_symbol
_atom_site_fract_x
_atom_site_fract_y
_atom_site_fract_z
Co1 Co 0.66767(3) 1.00710(3) -0.09182(2)
O1 O 1.24325(18) 1.0334(2) 0.22373(13)
O2 O 0.53761(17) 1.05556(17) 0.16243(12)
O3 O 0.5698(2) 1.0302(3) 0.37379(16)
O4 O 1.10350(18) 0.94252(18) 0.07997(13)
N1 N 0.6616(2) 0.8167(2) -0.08717(17)
O5 O 0.67285(19) 1.07633(19) 0.05246(13)
C1 C 0.9890(3) 1.0172(3) 0.3109(2)
N2 N 0.6793(2) 0.1972(2) -0.09437(16)
C2 C 0.6708(3) 0.4425(2) -0.0883(2)
C3 C 0.7678(3) 1.0666(3) 0.29574(19)
C4 C 0.8902(3) 1.0352(3) 0.16145(19)
H1 H 0.8966 1.0337 0.0982
C5 C 0.6660(3) 0.5719(2) -0.0855(2)
C6 C 0.9973(3) 1.0126(3) 0.21569(18)
C7 C 0.7739(3) 1.0599(3) 0.19915(18)
C8 C 0.5914(4) 0.3327(3) -0.1642(2)
H2 H 0.5320 0.3389 -0.2144
C9 C 1.1220(2) 0.9932(2) 0.17081(18)
C10 C 0.6527(3) 1.1056(3) 0.34559(19)
C11 C 0.5425(3) 0.5921(3) -0.1201(3)
H3 H 0.4579 0.5233 -0.1439
C12 C 0.6007(4) 0.2136(3) -0.1652(2)
H4 H 0.5492 0.1413 -0.2182
C13 C 0.6530(2) 1.0647(2) 0.13280(16)
O6 O 1.1615(3) 1.0769(3) 0.45083(19)
C14 C 0.7873(3) 0.6790(3) -0.0507(2)
H5 H 0.8725 0.6714 -0.0249
C15 C 0.6535(3) 1.2405(4) 0.3626(2)
C16 C 0.7816(3) 0.7972(3) -0.0542(2)
H6 H 0.8653 0.8671 -0.0325
C17 C 1.0997(3) 0.9933(4) 0.3750(2)
C18 C 0.7573(3) 0.3037(3) -0.0213(2)
H7 H 0.8147 0.2945 0.0285
C19 C 0.7568(4) 0.4262(3) -0.0159(2)
H8 H 0.8139 0.4974 0.0359
C20 C 0.8744(3) 1.0443(4) 0.3503(2)
H9 H 0.8693 1.0475 0.4139
C21 C 0.5444(3) 0.7137(3) -0.1195(3)
H10 H 0.4597 0.7244 -0.1427
C22 C 1.2376(4) 0.8511(5) 0.3980(3)
H11 H 1.3077 0.9236 0.4414
C23 C 1.1186(4) 0.8637(4) 0.3487(2)
C24 C 0.5287(4) 1.2701(4) 0.3721(3)
H12 H 0.4455 1.2057 0.3691
C25 C 0.7766(5) 1.3378(5) 0.3706(3)
H13 H 0.8616 1.3195 0.3653
C26 C 1.0209(4) 0.7558(5) 0.2811(3)
H14 H 0.9435 0.7640 0.2456
C27 C 1.2504(6) 0.7288(6) 0.3817(3)
H15 H 1.3294 0.7206 0.4156
C28 C 1.1495(6) 0.6186(6) 0.3165(4)
C29 C 0.6527(10) 1.6311(7) 0.4077(6)
H16 H 0.7194 1.6878 0.4659
H17 H 0.5595 1.6378 0.4132
H18 H 0.6816 1.6550 0.3532
C30 C 1.0362(6) 0.6357(5) 0.2654(4)
H19 H 0.9686 0.5642 0.2193
C31 C 0.6490(7) 1.4924(5) 0.3931(4)
C32 C 0.7744(7) 1.4634(5) 0.3867(4)
H20 H 0.8587 1.5289 0.3933
C33 C 0.5266(6) 1.3951(5) 0.3860(4)
H21 H 0.4414 1.4132 0.3906
C34 C 1.1614(8) 0.4864(7) 0.3034(5)
H22 H 1.2553 0.4865 0.2931
H23 H 1.0921 0.4244 0.2482
H24 H 1.1444 0.4639 0.3605
Co1A Co 1.33233(3) 0.99290(3) 0.09182(2)
Co1A_2 Co 0.33233(3) 0.99290(3) 0.09182(2)
Co1_2 Co 0.66767(3) 0.00710(3) -0.09182(2)
O1A O 0.75675(18) 0.9666(2) -0.22373(13)
O2A O 0.46239(17) 0.94444(17) -0.16243(12)
O4A O 0.89650(18) 1.05748(18) -0.07997(13)
N2_2 N 0.6793(2) 1.1972(2) -0.09437(16)
loop_
_geom_bond_atom_site_label_1
_geom_bond_atom_site_label_2
_geom_bond_site_symmetry_1
_geom_bond_site_symmetry_2
Co1 N1 1_555 1_555
O1 C9 1_555 1_555
O2 C13 1_555 1_555
O3 C10 1_555 1_555
O4 C9 1_555 1_555
N1 C16 1_555 1_555
O5 Co1 1_555 1_555
C1 C6 1_555 1_555
N2 C12 1_555 1_555
C2 C5 1_555 1_555
C3 C7 1_555 1_555
C4 H1 1_555 1_555
C5 C11 1_555 1_555
C6 C4 1_555 1_555
C7 C4 1_555 1_555
C8 C2 1_555 1_555
H2 C8 1_555 1_555
C9 C6 1_555 1_555
C10 C3 1_555 1_555
C11 H3 1_555 1_555
C12 C8 1_555 1_555
H4 C12 1_555 1_555
C13 O5 1_555 1_555
O6 C17 1_555 1_555
C14 C5 1_555 1_555
H5 C14 1_555 1_555
C15 C10 1_555 1_555
C16 C14 1_555 1_555
H6 C16 1_555 1_555
C17 C1 1_555 1_555
C18 N2 1_555 1_555
H7 C18 1_555 1_555
C19 C2 1_555 1_555
H8 C19 1_555 1_555
C20 C1 1_555 1_555
H9 C20 1_555 1_555
C21 N1 1_555 1_555
H10 C21 1_555 1_555
C22 H11 1_555 1_555
C23 C17 1_555 1_555
C24 C15 1_555 1_555
H12 C24 1_555 1_555
C25 C15 1_555 1_555
H13 C25 1_555 1_555
C26 C23 1_555 1_555
H14 C26 1_555 1_555
C27 C22 1_555 1_555
H15 C27 1_555 1_555
C28 C27 1_555 1_555
C29 H16 1_555 1_555
H17 C29 1_555 1_555
H18 C29 1_555 1_555
C30 C26 1_555 1_555
H19 C30 1_555 1_555
C31 C29 1_555 1_555
C32 C25 1_555 1_555
H20 C32 1_555 1_555
C33 C24 1_555 1_555
H21 C33 1_555 1_555
C34 C28 1_555 1_555
H22 C34 1_555 1_555
H23 C34 1_555 1_555
H24 C34 1_555 1_555
Co1A O1 1_555 1_555
Co1A_2 O2 1_555 1_555
Co1_2 N2 1_555 1_555
O1A Co1 1_555 1_555
O2A Co1 1_555 1_555
O4A Co1 1_555 1_555
N2_2 Co1 1_555 1_555
O4 Co1A 1_555 1_555
C3 C20 1_555 1_555
C7 C13 1_555 1_555
C11 C21 1_555 1_555
C18 C19 1_555 1_555
C22 C23 1_555 1_555
C28 C30 1_555 1_555
C31 C32 1_555 1_555
C31 C33 1_555 1_555

#END
