
#######################################################################
#
#                 Cambridge Crystallographic Data Centre
#                                CCDC 
#
#######################################################################
#
# If this CIF has been generated from an entry in the Cambridge 
# Structural Database, then it will include bibliographic, chemical, 
# crystal, experimental, refinement or atomic coordinate data resulting 
# from the CCDC's data processing and validation procedures.
#
#######################################################################

data_IMOTAG
_symmetry_cell_setting           monoclinic
_symmetry_space_group_name_H-M   'P 21/n'
_symmetry_Int_Tables_number      14
_space_group_name_Hall           '-P 2yn'
loop_
_symmetry_equiv_pos_site_id
_symmetry_equiv_pos_as_xyz
1 x,y,z
2 1/2-x,1/2+y,1/2-z
3 -x,-y,-z
4 1/2+x,1/2-y,1/2+z
_cell_length_a                   17.0525(6)
_cell_length_b                   8.4867(3)
_cell_length_c                   22.6931(8)
_cell_angle_alpha                90
_cell_angle_beta                 111.708(2)
_cell_angle_gamma                90
_cell_volume                     3051.23
loop_
_atom_site_label
_atom_site_type_symbol
_atom_site_fract_x
_atom_site_fract_y
_atom_site_fract_z
Cu1 Cu 0.57341(3) 0.75772(6) 0.61252(2)
Cu2 Cu -0.07583(3) 0.97588(7) 0.35928(2)
O1 O 0.4953(2) 0.9551(4) 0.62755(15)
H1 H 0.4689 0.9260 0.6507
H2 H 0.4590 0.9955 0.5938
O2 O -0.1421(2) 0.8998(4) 0.42212(16)
H3 H -0.1790 0.8299 0.4031
H4 H -0.1227 0.8758 0.4614
N1 N 0.6785(2) 0.8910(4) 0.64409(16)
N2 N 0.4719(2) 0.6235(4) 0.57043(17)
N3 N 0.0005(2) 0.7877(5) 0.36946(18)
N4 N -0.1304(2) 1.1920(5) 0.35164(17)
O3 O 0.8403(2) 0.9606(4) 0.82954(15)
O4 O 0.89747(19) 1.1720(4) 0.80213(14)
O5 O 0.57115(18) 0.8362(4) 0.53032(14)
O6 O 0.63274(19) 1.0049(4) 0.48575(14)
O7 O 0.0176(2) 1.0876(4) 0.42191(16)
O8 O 0.0469(2) 1.2986(4) 0.48522(16)
O9 O -0.3376(2) 1.3859(4) 0.21406(14)
O10 O -0.3609(2) 1.5521(4) 0.28239(16)
S1 S 0.23366(8) 0.32937(15) 0.48519(6)
S2 S 0.17858(8) 0.37356(15) 0.39128(6)
C1 C 0.7297(3) 0.9163(5) 0.7041(2)
H5 H 0.7209 0.8596 0.7362
C2 C 0.7957(3) 1.0244(5) 0.7204(2)
C3 C 0.8081(3) 1.1072(6) 0.6719(2)
H6 H 0.8521 1.1791 0.6808
C4 C 0.7540(3) 1.0812(6) 0.6099(2)
H7 H 0.7602 1.1382 0.5769
C5 C 0.6910(3) 0.9709(5) 0.5975(2)
C6 C 0.8491(3) 1.0528(5) 0.7898(2)
C7 C 0.6271(3) 0.9368(5) 0.53260(19)
C8 C 0.4281(3) 0.6272(5) 0.5073(2)
H8 H 0.4486 0.6906 0.4827
C9 C 0.3555(3) 0.5438(5) 0.4769(2)
H9 H 0.3275 0.5514 0.4332
C10 C 0.3248(3) 0.4477(5) 0.5130(2)
C11 C 0.3699(3) 0.4427(6) 0.5779(2)
H10 H 0.3512 0.3798 0.6036
C12 C 0.4418(3) 0.5304(6) 0.6040(2)
H11 H 0.4711 0.5244 0.6476
C13 C 0.0632(3) 0.7614(5) 0.4254(2)
H12 H 0.0699 0.8308 0.4586
C14 C 0.1183(3) 0.6358(6) 0.4359(2)
H13 H 0.1604 0.6203 0.4755
C15 C 0.1100(3) 0.5333(5) 0.3864(2)
C16 C 0.0458(3) 0.5617(6) 0.3283(2)
H14 H 0.0386 0.4959 0.2939
C17 C -0.0069(3) 0.6879(5) 0.3221(2)
H15 H -0.0501 0.7048 0.2831
C18 C -0.2054(3) 1.2454(6) 0.3121(2)
H16 H -0.2381 1.1789 0.2797
C19 C -0.2376(3) 1.3943(6) 0.3164(2)
C20 C -0.1876(3) 1.4922(6) 0.3649(2)
H17 H -0.2065 1.5923 0.3699
C21 C -0.1086(3) 1.4391(6) 0.4061(2)
H18 H -0.0740 1.5037 0.4384
C22 C -0.0833(3) 1.2902(6) 0.3980(2)
C23 C 0.0001(3) 1.2218(6) 0.4385(2)
C24 C -0.3194(3) 1.4496(5) 0.2687(2)
Cu1A Cu 0.92659(3) 1.25772(6) 0.88748(2)
Cu2A Cu -0.42417(3) 1.47588(7) 0.14072(2)
O4A O 0.60253(19) 0.6720(4) 0.69787(14)
O9A O -0.1624(2) 0.8859(4) 0.28594(14)
C25 C 0.3508(6) 1.0554(7) 0.6860(5)
H19 H 0.3211 1.0570 0.7146
H20 H 0.3163 1.1023 0.6464
H21 H 0.4024 1.1137 0.7041
O11 O 0.3711(3) 0.8825(6) 0.6746(2)
H22 H 0.3519 0.7940 0.6598
O12 O -0.2426(2) 1.1313(5) 0.44635(17)
H23 H -0.2611 1.1224 0.4062
H24 H -0.2789 1.1778 0.4567
O13 O 0.5902(2) 1.1832(5) 0.70126(19)
H25 H 0.6384 1.2275 0.7211
H26 H 0.5986 1.1136 0.6773
O14 O 0.5229(3) 1.3417(5) 0.7761(2)
H27 H 0.4658 1.3545 0.7579
H28 H 0.5435 1.3529 0.8190
loop_
_geom_bond_atom_site_label_1
_geom_bond_atom_site_label_2
_geom_bond_site_symmetry_1
_geom_bond_site_symmetry_2
Cu1 O1 1_555 1_555
Cu2 O2 1_555 1_555
O1 H1 1_555 1_555
H2 O1 1_555 1_555
O2 H3 1_555 1_555
H4 O2 1_555 1_555
N1 Cu1 1_555 1_555
N2 Cu1 1_555 1_555
N3 Cu2 1_555 1_555
N4 Cu2 1_555 1_555
O3 C6 1_555 1_555
O4 C6 1_555 1_555
O5 Cu1 1_555 1_555
O6 C7 1_555 1_555
O7 Cu2 1_555 1_555
O8 C23 1_555 1_555
O9 C24 1_555 1_555
O10 C24 1_555 1_555
S1 S2 1_555 1_555
S2 C15 1_555 1_555
C1 N1 1_555 1_555
H5 C1 1_555 1_555
C2 C1 1_555 1_555
C3 C2 1_555 1_555
H6 C3 1_555 1_555
C4 C3 1_555 1_555
H7 C4 1_555 1_555
C5 N1 1_555 1_555
C6 C2 1_555 1_555
C7 O5 1_555 1_555
C8 N2 1_555 1_555
H8 C8 1_555 1_555
C9 C8 1_555 1_555
H9 C9 1_555 1_555
C10 S1 1_555 1_555
C11 C10 1_555 1_555
H10 C11 1_555 1_555
C12 N2 1_555 1_555
H11 C12 1_555 1_555
C13 N3 1_555 1_555
H12 C13 1_555 1_555
C14 C13 1_555 1_555
H13 C14 1_555 1_555
C15 C14 1_555 1_555
C16 C15 1_555 1_555
H14 C16 1_555 1_555
C17 N3 1_555 1_555
H15 C17 1_555 1_555
C18 N4 1_555 1_555
H16 C18 1_555 1_555
C19 C18 1_555 1_555
C20 C19 1_555 1_555
H17 C20 1_555 1_555
C21 C20 1_555 1_555
H18 C21 1_555 1_555
C22 N4 1_555 1_555
C23 O7 1_555 1_555
C24 C19 1_555 1_555
C25 H19 1_555 1_555
H20 C25 1_555 1_555
H21 C25 1_555 1_555
O11 C25 1_555 1_555
H22 O11 1_555 1_555
O12 H23 1_555 1_555
H24 O12 1_555 1_555
O13 H25 1_555 1_555
H26 O13 1_555 1_555
O14 H27 1_555 1_555
H28 O14 1_555 1_555
Cu1A O4 1_555 1_555
Cu2A O9 1_555 1_555
O4A Cu1 1_555 1_555
O9A Cu2 1_555 1_555
C4 C5 1_555 1_555
C5 C7 1_555 1_555
C9 C10 1_555 1_555
C11 C12 1_555 1_555
C16 C17 1_555 1_555
C21 C22 1_555 1_555
C22 C23 1_555 1_555

#END
