
#######################################################################
#
#                 Cambridge Crystallographic Data Centre
#                                CCDC 
#
#######################################################################
#
# If this CIF has been generated from an entry in the Cambridge 
# Structural Database, then it will include bibliographic, chemical, 
# crystal, experimental, refinement or atomic coordinate data resulting 
# from the CCDC's data processing and validation procedures.
#
#######################################################################

data_IMOTEK
_symmetry_cell_setting           monoclinic
_symmetry_space_group_name_H-M   'P 21/n'
_symmetry_Int_Tables_number      14
_space_group_name_Hall           '-P 2yn'
loop_
_symmetry_equiv_pos_site_id
_symmetry_equiv_pos_as_xyz
1 x,y,z
2 1/2-x,1/2+y,1/2-z
3 -x,-y,-z
4 1/2+x,1/2-y,1/2+z
_cell_length_a                   7.4694(6)
_cell_length_b                   19.2355(15)
_cell_length_c                   10.1193(8)
_cell_angle_alpha                90
_cell_angle_beta                 91.2950(10)
_cell_angle_gamma                90
_cell_volume                     1453.55
loop_
_atom_site_label
_atom_site_type_symbol
_atom_site_fract_x
_atom_site_fract_y
_atom_site_fract_z
Cu1 Cu 0.06908(7) 0.06681(2) 0.45630(5)
Cu2 Cu -0.14813(8) 0.07525(3) 0.73209(5)
S1 S -0.12320(16) 0.40075(6) 0.20620(10)
O1 O -0.0123(5) 0.16181(16) 0.4561(3)
N1 N -0.1617(6) 0.12413(19) 0.9008(4)
N2 N -0.1537(9) 0.2093(3) 1.0494(6)
H1 H -0.1340 0.2495 1.0840
C1 C -0.1386(6) 0.2683(2) 0.5170(4)
C2 C -0.2004(6) 0.3113(2) 0.6155(4)
H2 H -0.2170 0.2934 0.6997
C3 C -0.2382(6) 0.3807(2) 0.5903(4)
C4 C -0.2209(7) 0.4067(2) 0.4631(4)
H3 H -0.2531 0.4524 0.4439
C5 C -0.1550(6) 0.3637(2) 0.3646(4)
C6 C -0.1114(6) 0.2955(2) 0.3905(4)
H4 H -0.0644 0.2676 0.3247
C7 C -0.0951(6) 0.1934(2) 0.5445(4)
C8 C -0.2980(6) 0.4280(2) 0.6986(4)
C9 C -0.2341(11) 0.1011(4) 1.0197(7)
H5 H -0.2811 0.0569 1.0322
C10 C -0.2275(11) 0.1508(4) 1.1142(7)
H6 H -0.2630 0.1475 1.2014
C11 C -0.1201(9) 0.1909(4) 0.9252(6)
H7 H -0.0733 0.2209 0.8627
O3 O -0.1457(5) 0.16890(15) 0.6522(3)
O4 O -0.2792(4) 0.40377(15) 0.8144(3)
O5 O -0.3592(5) 0.48664(15) 0.6679(3)
O6 O -0.2935(5) 0.43375(19) 0.1697(3)
O7 O -0.0771(6) 0.34466(19) 0.1182(3)
O8 O 0.0202(5) 0.45132(18) 0.2222(3)
O9 O -0.1325(4) 0.03130(14) 0.5592(3)
H10 H -0.235(4) 0.042(3) 0.516(4)
Cu1B Cu -0.06908(7) -0.06681(2) 0.54370(5)
Cu1A Cu 0.43092(7) -0.43319(2) 0.04370(5)
Cu1A_2 Cu 0.43092(7) -0.43319(2) 1.04370(5)
Cu1C Cu -0.43092(7) 0.43319(2) -0.04370(5)
Cu1C_2 Cu -0.43092(7) 0.43319(2) 0.95630(5)
Cu2B Cu 0.14813(8) -0.07525(3) 0.26791(5)
Cu2A Cu -0.35187(8) -0.42475(3) 0.76791(5)
Cu2A_2 Cu -0.35187(8) 0.57525(3) 0.76791(5)
Cu2A_3 Cu 0.64813(8) -0.42475(3) 0.76791(5)
Cu2C Cu -0.64813(8) 0.42475(3) 0.23209(5)
Cu2C_2 Cu 0.35187(8) -0.57525(3) 0.23209(5)
Cu2C_3 Cu 0.35187(8) 0.42475(3) 0.23209(5)
S1B S 0.12320(16) -0.40075(6) 0.79380(10)
O1B O 0.0123(5) -0.16181(16) 0.5439(3)
N1B N 0.1617(6) -0.12413(19) 0.0992(4)
N2B N 0.1537(9) -0.2093(3) -0.0494(6)
H1B H 0.1340 -0.2495 -0.0840
C1B C 0.1386(6) -0.2683(2) 0.4830(4)
C2B C 0.2004(6) -0.3113(2) 0.3845(4)
H2B H 0.2170 -0.2934 0.3003
C3B C 0.2382(6) -0.3807(2) 0.4097(4)
C4B C 0.2209(7) -0.4067(2) 0.5369(4)
H3B H 0.2531 -0.4524 0.5561
C5B C 0.1550(6) -0.3637(2) 0.6354(4)
C6B C 0.1114(6) -0.2955(2) 0.6095(4)
H4B H 0.0644 -0.2676 0.6753
C7B C 0.0951(6) -0.1934(2) 0.4555(4)
C8B C 0.2980(6) -0.4280(2) 0.3014(4)
C9B C 0.2341(11) -0.1011(4) -0.0197(7)
H5B H 0.2811 -0.0569 -0.0322
C10B C 0.2275(11) -0.1508(4) -0.1142(7)
H6B H 0.2630 -0.1475 -0.2014
C11B C 0.1201(9) -0.1909(4) 0.0748(6)
H7B H 0.0733 -0.2209 0.1373
O3B O 0.1457(5) -0.16890(15) 0.3478(3)
O4B O 0.2792(4) -0.40377(15) 0.1856(3)
O4A O -0.2208(4) -0.09623(15) 0.6856(3)
O4C O 0.2208(4) 0.09623(15) 0.3144(3)
O5B O 0.3592(5) -0.48664(15) 0.3321(3)
O5A O -0.1408(5) -0.01336(15) 0.8321(3)
O5C O 0.1408(5) 0.01336(15) 0.1679(3)
O6B O 0.2935(5) -0.43375(19) 0.8303(3)
O6A O -0.2065(5) -0.06625(19) 0.3303(3)
O6C O 0.2065(5) 0.06625(19) 0.6697(3)
O7B O 0.0771(6) -0.34466(19) 0.8818(3)
O8B O -0.0202(5) -0.45132(18) 0.7778(3)
O8A O 0.4798(5) -0.04868(18) 0.2778(3)
O8C O -0.4798(5) 0.04868(18) 0.7222(3)
O9B O 0.1325(4) -0.03130(14) 0.4408(3)
H10B H 0.235(4) -0.042(3) 0.484(4)
O2 O -0.1079(6) 0.5802(2) 1.1024(4)
H8 H -0.067(9) 0.6220(17) 1.078(6)
H9 H -0.058(9) 0.549(3) 1.157(6)
loop_
_geom_bond_atom_site_label_1
_geom_bond_atom_site_label_2
_geom_bond_site_symmetry_1
_geom_bond_site_symmetry_2
Cu1 O1 1_555 1_555
Cu2 N1 1_555 1_555
S1 C5 1_555 1_555
O1 C7 1_555 1_555
N1 C9 1_555 1_555
N2 H1 1_555 1_555
C1 C2 1_555 1_555
C2 H2 1_555 1_555
C3 C2 1_555 1_555
C4 C3 1_555 1_555
H3 C4 1_555 1_555
C5 C4 1_555 1_555
C6 C1 1_555 1_555
H4 C6 1_555 1_555
C7 C1 1_555 1_555
C8 C3 1_555 1_555
C9 H5 1_555 1_555
C10 N2 1_555 1_555
H6 C10 1_555 1_555
C11 N1 1_555 1_555
H7 C11 1_555 1_555
O2 H8 1_555 1_555
H9 O2 1_555 1_555
O3 Cu2 1_555 1_555
O4 C8 1_555 1_555
O5 C8 1_555 1_555
O6 S1 1_555 1_555
O7 S1 1_555 1_555
O8 S1 1_555 1_555
O9 Cu1 1_555 1_555
H10 O9 1_555 1_555
Cu1B O9 1_555 1_555
Cu1A O4B 1_555 1_555
Cu1A_2 O6B 1_555 1_555
Cu1C O6 1_555 1_555
Cu1C_2 O4 1_555 1_555
Cu2B N1B 1_555 1_555
Cu2A O8B 1_555 1_555
Cu2A_2 O5 1_555 1_555
Cu2A_3 O6B 1_555 1_555
Cu2C O6 1_555 1_555
Cu2C_2 O5B 1_555 1_555
Cu2C_3 O8 1_555 1_555
S1B C5B 1_555 1_555
O1B Cu1B 1_555 1_555
N1B C9B 1_555 1_555
N2B H1B 1_555 1_555
C1B C2B 1_555 1_555
C2B H2B 1_555 1_555
C3B C2B 1_555 1_555
C4B C3B 1_555 1_555
H3B C4B 1_555 1_555
C5B C4B 1_555 1_555
C6B C1B 1_555 1_555
H4B C6B 1_555 1_555
C7B O1B 1_555 1_555
C8B C3B 1_555 1_555
C9B H5B 1_555 1_555
C10B N2B 1_555 1_555
H6B C10B 1_555 1_555
C11B N1B 1_555 1_555
H7B C11B 1_555 1_555
O3B Cu2B 1_555 1_555
O4B C8B 1_555 1_555
O4A Cu1B 1_555 1_555
O4C Cu1 1_555 1_555
O5B C8B 1_555 1_555
O5A Cu2 1_555 1_555
O5C Cu2B 1_555 1_555
O6B S1B 1_555 1_555
O6A Cu1B 1_555 1_555
O6C Cu1 1_555 1_555
O7B S1B 1_555 1_555
O8B S1B 1_555 1_555
O8A Cu2B 1_555 1_555
O8C Cu2 1_555 1_555
O9B Cu1 1_555 1_555
H10B O9B 1_555 1_555
Cu2 O9 1_555 1_555
Cu2 O6C 1_555 1_555
N2 C11 1_555 1_555
C5 C6 1_555 1_555
C7 O3 1_555 1_555
C9 C10 1_555 1_555
Cu1B O9B 1_555 1_555
Cu2B O6A 1_555 1_555
Cu2B O9B 1_555 1_555
N2B C11B 1_555 1_555
C1B C7B 1_555 1_555
C5B C6B 1_555 1_555
C7B O3B 1_555 1_555
C9B C10B 1_555 1_555

#END
