
#######################################################################
#
#                 Cambridge Crystallographic Data Centre
#                                CCDC 
#
#######################################################################
#
# If this CIF has been generated from an entry in the Cambridge 
# Structural Database, then it will include bibliographic, chemical, 
# crystal, experimental, refinement or atomic coordinate data resulting 
# from the CCDC's data processing and validation procedures.
#
#######################################################################

data_IMOVOW
_symmetry_cell_setting           monoclinic
_symmetry_space_group_name_H-M   'P 21/c'
_symmetry_Int_Tables_number      14
_space_group_name_Hall           '-P 2ybc'
loop_
_symmetry_equiv_pos_site_id
_symmetry_equiv_pos_as_xyz
1 x,y,z
2 -x,1/2+y,1/2-z
3 -x,-y,-z
4 x,1/2-y,1/2+z
_cell_length_a                   13.967(2)
_cell_length_b                   5.9130(9)
_cell_length_c                   10.2611(15)
_cell_angle_alpha                90
_cell_angle_beta                 104.4740(10)
_cell_angle_gamma                90
_cell_volume                     820.536
loop_
_atom_site_label
_atom_site_type_symbol
_atom_site_fract_x
_atom_site_fract_y
_atom_site_fract_z
Ag1 Ag 0.453715(10) 0.06319(2) 0.312643(13)
C1 C 0.34622(13) 0.4327(3) 0.45257(18)
C2 C 0.35214(13) 0.6131(3) 0.54705(18)
C3 C 0.27098(13) 0.4110(3) 0.32200(18)
C4 C 0.17318(13) 0.5405(3) 0.30095(18)
C5 C 0.10813(15) 0.4812(4) 0.1620(2)
C6 C 0.12209(15) 0.4635(4) 0.4096(2)
C7 C 0.18953(15) 0.7977(3) 0.3087(2)
H1 H 0.0952(16) 0.325(4) 0.150(2)
H2 H 0.1107(17) 0.303(5) 0.403(2)
H3 H 0.2245(17) 0.856(4) 0.394(2)
H4 H 0.0439(17) 0.561(4) 0.145(3)
H5 H 0.0589(19) 0.543(4) 0.398(3)
H6 H 0.1264(18) 0.875(4) 0.289(2)
H7 H 0.1381(17) 0.523(4) 0.092(2)
H8 H 0.1565(19) 0.497(5) 0.497(3)
H9 H 0.2243(19) 0.845(5) 0.249(3)
N1 N 0.41495(10) 0.2746(3) 0.48331(14)
N2 N 0.36971(12) 0.7489(3) 0.62979(16)
O1 O 0.47911(9) 0.2872(2) 0.59954(12)
O2 O 0.28567(9) 0.2794(2) 0.23795(12)
Ag1B Ag 0.546285(10) -0.06319(2) 0.687357(13)
Ag1C Ag 0.453715(10) 0.43681(2) 0.812643(13)
O1B O 0.52089(9) -0.2872(2) 0.40046(12)
O1C O 0.47911(9) 0.2128(2) 0.09954(12)
loop_
_geom_bond_atom_site_label_1
_geom_bond_atom_site_label_2
_geom_bond_site_symmetry_1
_geom_bond_site_symmetry_2
Ag1 N1 1_555 1_555
C1 C2 1_555 1_555
C2 N2 1_555 1_555
C3 C1 1_555 1_555
C4 C3 1_555 1_555
C5 C4 1_555 1_555
C6 C4 1_555 1_555
C7 C4 1_555 1_555
H1 C5 1_555 1_555
H2 C6 1_555 1_555
H3 C7 1_555 1_555
H4 C5 1_555 1_555
H5 C6 1_555 1_555
H6 C7 1_555 1_555
H7 C5 1_555 1_555
H8 C6 1_555 1_555
H9 C7 1_555 1_555
N1 C1 1_555 1_555
O1 N1 1_555 1_555
O2 C3 1_555 1_555
Ag1B O1 1_555 1_555
Ag1C O1 1_555 1_555
O1B Ag1 1_555 1_555
O1C Ag1 1_555 1_555

#END
