
#######################################################################
#
#                 Cambridge Crystallographic Data Centre
#                                CCDC 
#
#######################################################################
#
# If this CIF has been generated from an entry in the Cambridge 
# Structural Database, then it will include bibliographic, chemical, 
# crystal, experimental, refinement or atomic coordinate data resulting 
# from the CCDC's data processing and validation procedures.
#
#######################################################################

data_IMPACU01
_symmetry_cell_setting           orthorhombic
_symmetry_space_group_name_H-M   'P 21 21 21'
_symmetry_Int_Tables_number      19
_space_group_name_Hall           'P 2ac 2ab'
loop_
_symmetry_equiv_pos_site_id
_symmetry_equiv_pos_as_xyz
1 x,y,z
2 1/2+x,1/2-y,-z
3 -x,1/2+y,1/2-z
4 1/2-x,-y,1/2+z
_cell_length_a                   17.412(3)
_cell_length_b                   15.772(3)
_cell_length_c                   5.077(1)
_cell_angle_alpha                90
_cell_angle_beta                 90
_cell_angle_gamma                90
_cell_volume                     1394.26
loop_
_atom_site_label
_atom_site_type_symbol
_atom_site_fract_x
_atom_site_fract_y
_atom_site_fract_z
Cu1 Cu 0.19120 0.42890 0.66000
P1 P 0.13530 0.51540 1.10900
O1 O 0.10870 0.44620 0.92300
O2 O 0.13700 0.49500 1.39500
O3 O 0.20990 0.54850 0.99100
O4 O 0.07180 0.59140 1.10000
O5 O 0.12910 0.75050 0.91400
O6 O 0.04000 0.90300 0.74500
O7 O -0.05260 0.76680 0.59700
O8 O 0.37060 0.73150 -0.13500
N1 N 0.27100 0.67900 0.32000
N2 N 0.20500 0.77200 0.54500
N3 N 0.33730 0.87000 -0.03600
N4 N 0.25120 0.90170 0.31800
C1 C 0.14900 0.81200 0.73300
C2 C 0.07700 0.84000 0.57900
C3 C 0.05000 0.71800 0.87300
C4 C 0.02600 0.75500 0.59200
C5 C 0.04800 0.62600 0.84400
C6 C 0.29800 0.92300 0.12300
C7 C 0.24600 0.81500 0.36000
C8 C 0.28700 0.75600 0.21800
C9 C 0.33500 0.77900 0.00900
C10 C 0.22100 0.68600 0.51300
O2_2 O 0.13700 0.49500 0.39500
O3C O 0.29010 0.45150 0.49100
N1C N 0.22900 0.32100 0.82000
Cu1_2 Cu 0.19120 0.42890 1.66000
Cu1C Cu 0.30880 0.57110 1.16000
Cu1C_2 Cu 0.30880 0.57110 0.16000
O9 O 0.06770 0.03350 0.12900
loop_
_geom_bond_atom_site_label_1
_geom_bond_atom_site_label_2
_geom_bond_site_symmetry_1
_geom_bond_site_symmetry_2
Cu1 O1 1_555 1_555
P1 O1 1_555 1_555
O2 P1 1_555 1_555
O3 P1 1_555 1_555
O4 P1 1_555 1_555
O5 C1 1_555 1_555
O6 C2 1_555 1_555
O7 C4 1_555 1_555
O8 C9 1_555 1_555
N1 C8 1_555 1_555
N2 C1 1_555 1_555
N3 C6 1_555 1_555
N4 C6 1_555 1_555
C1 C2 1_555 1_555
C2 C4 1_555 1_555
C3 O5 1_555 1_555
C4 C3 1_555 1_555
C5 O4 1_555 1_555
C7 N2 1_555 1_555
C8 C7 1_555 1_555
C9 N3 1_555 1_555
C10 N1 1_555 1_555
O2_2 Cu1 1_555 1_555
O3C Cu1 1_555 1_555
N1C Cu1 1_555 1_555
Cu1_2 O2 1_555 1_555
Cu1C O3 1_555 1_555
Cu1C_2 N1 1_555 1_555
N2 C10 1_555 1_555
N4 C7 1_555 1_555
C3 C5 1_555 1_555
C8 C9 1_555 1_555

#END
