
#######################################################################
#
#                 Cambridge Crystallographic Data Centre
#                                CCDC 
#
#######################################################################
#
# If this CIF has been generated from an entry in the Cambridge 
# Structural Database, then it will include bibliographic, chemical, 
# crystal, experimental, refinement or atomic coordinate data resulting 
# from the CCDC's data processing and validation procedures.
#
#######################################################################

data_IMSQNI
_symmetry_cell_setting           monoclinic
_symmetry_space_group_name_H-M   'P 21/c'
_symmetry_Int_Tables_number      14
_space_group_name_Hall           '-P 2ybc'
loop_
_symmetry_equiv_pos_site_id
_symmetry_equiv_pos_as_xyz
1 x,y,z
2 -x,1/2+y,1/2-z
3 -x,-y,-z
4 x,1/2-y,1/2+z
_cell_length_a                   7.478(1)
_cell_length_b                   11.539(2)
_cell_length_c                   8.101(2)
_cell_angle_alpha                90
_cell_angle_beta                 109.27(2)
_cell_angle_gamma                90
_cell_volume                     659.861
loop_
_atom_site_label
_atom_site_type_symbol
_atom_site_fract_x
_atom_site_fract_y
_atom_site_fract_z
Ni1 Ni 0.00000 0.00000 0.50000
N1 N -0.24200 -0.09960 0.45870
N2 N -0.54300 -0.14550 0.38790
O1 O 0.15000 -0.16190 -0.05130
O2 O 0.04920 -0.06920 0.27630
O3 O -0.17140 0.13480 0.36990
C1 C -0.44440 -0.22680 0.50430
C2 C -0.26030 -0.19870 0.54660
C3 C -0.41670 -0.07050 0.36490
C4 C 0.06790 -0.07310 -0.02430
C5 C 0.02040 -0.02960 0.12590
H1 H -0.50600 -0.28000 0.53900
H2 H -0.15800 -0.23900 0.62300
H3 H -0.44600 -0.00600 0.29200
H4 H -0.66200 -0.13800 0.35300
H5 H -0.16800 0.19600 0.42300
H6 H -0.16800 0.14900 0.26800
C4B C -0.06790 0.07310 0.02430
O1B O -0.15000 0.16190 0.05130
C5B C -0.02040 0.02960 -0.12590
O2B O -0.04920 0.06920 -0.27630
N1B N 0.24200 0.09960 0.54130
N2B N 0.54300 0.14550 0.61210
C1B C 0.44440 0.22680 0.49570
C2B C 0.26030 0.19870 0.45340
C3B C 0.41670 0.07050 0.63510
H1B H 0.50600 0.28000 0.46100
H2B H 0.15800 0.23900 0.37700
H3B H 0.44600 0.00600 0.70800
H4B H 0.66200 0.13800 0.64700
O3B O 0.17140 -0.13480 0.63010
H5B H 0.16800 -0.19600 0.57700
H6B H 0.16800 -0.14900 0.73200
O2B_2 O -0.04920 0.06920 0.72370
Ni1_2 Ni 0.00000 0.00000 -0.50000
loop_
_geom_bond_atom_site_label_1
_geom_bond_atom_site_label_2
_geom_bond_site_symmetry_1
_geom_bond_site_symmetry_2
Ni1 N1 1_555 1_555
N1 C2 1_555 1_555
N2 C1 1_555 1_555
O1 C4 1_555 1_555
O2 Ni1 1_555 1_555
O3 Ni1 1_555 1_555
C1 C2 1_555 1_555
C2 H2 1_555 1_555
C3 N1 1_555 1_555
C4 C5 1_555 1_555
C5 O2 1_555 1_555
H1 C1 1_555 1_555
H3 C3 1_555 1_555
H4 N2 1_555 1_555
H5 O3 1_555 1_555
H6 O3 1_555 1_555
C4B C5 1_555 1_555
O1B C4B 1_555 1_555
C5B C4 1_555 1_555
O2B C5B 1_555 1_555
N1B Ni1 1_555 1_555
N2B C1B 1_555 1_555
C1B C2B 1_555 1_555
C2B N1B 1_555 1_555
C3B N1B 1_555 1_555
H1B C1B 1_555 1_555
H2B C2B 1_555 1_555
H3B C3B 1_555 1_555
H4B N2B 1_555 1_555
O3B Ni1 1_555 1_555
H5B O3B 1_555 1_555
H6B O3B 1_555 1_555
O2B_2 Ni1 1_555 1_555
Ni1_2 O2B 1_555 1_555
N2 C3 1_555 1_555
C4B C5B 1_555 1_555
N2B C3B 1_555 1_555

#END
