
#######################################################################
#
#                 Cambridge Crystallographic Data Centre
#                                CCDC 
#
#######################################################################
#
# If this CIF has been generated from an entry in the Cambridge 
# Structural Database, then it will include bibliographic, chemical, 
# crystal, experimental, refinement or atomic coordinate data resulting 
# from the CCDC's data processing and validation procedures.
#
#######################################################################

data_IMUBAU
_symmetry_cell_setting           triclinic
_symmetry_space_group_name_H-M   'P -1'
_symmetry_Int_Tables_number      2
_space_group_name_Hall           '-P 1'
loop_
_symmetry_equiv_pos_site_id
_symmetry_equiv_pos_as_xyz
1 x,y,z
2 -x,-y,-z
_cell_length_a                   8.2902(17)
_cell_length_b                   8.3224(17)
_cell_length_c                   10.284(2)
_cell_angle_alpha                87.99(3)
_cell_angle_beta                 67.88(3)
_cell_angle_gamma                79.07(3)
_cell_volume                     644.875
loop_
_atom_site_label
_atom_site_type_symbol
_atom_site_fract_x
_atom_site_fract_y
_atom_site_fract_z
Co1 Co 0.31181(8) 0.51516(7) 0.47471(6)
N1 N 0.2024(5) 0.3291(4) 0.6390(4)
N2 N 0.3996(4) -0.3112(4) 0.3026(4)
N3 N 0.5776(4) 0.3799(4) 0.4009(3)
N4 N 0.6567(5) 0.3009(4) 0.2929(4)
N5 N 0.7320(6) 0.2266(5) 0.1880(4)
N6 N 0.0850(5) 0.3660(4) 0.3822(4)
N7 N 0.2293(5) 0.3966(4) 0.3377(4)
N8 N -0.0571(5) 0.3319(4) 0.4256(4)
C1 C 0.1047(6) 0.4005(5) 0.7672(4)
H1 H 0.1192 0.5049 0.7840
C2 C -0.0155(6) 0.3307(6) 0.8755(5)
H2 H -0.0769 0.3855 0.9625
C3 C -0.0419(7) 0.1768(6) 0.8511(5)
H3 H -0.1254 0.1278 0.9201
C4 C 0.0576(6) 0.0985(6) 0.7230(5)
H4 H 0.0421 -0.0050 0.7048
C5 C 0.1827(6) 0.1735(5) 0.6192(4)
C6 C 0.3020(5) 0.0862(5) 0.4856(5)
H5 H 0.3919 0.1362 0.4253
C7 C 0.2894(6) -0.0599(5) 0.4457(5)
H6 H 0.2003 -0.1097 0.5074
C8 C 0.4049(6) -0.1492(5) 0.3117(5)
C9 C 0.5070(6) -0.0704(6) 0.1978(5)
H7 H 0.5091 0.0399 0.2071
C10 C 0.6056(6) -0.1548(6) 0.0706(5)
H8 H 0.6774 -0.1035 -0.0050
C11 C 0.5949(6) -0.3175(6) 0.0583(5)
H9 H 0.6556 -0.3767 -0.0267
C12 C 0.4923(6) -0.3892(5) 0.1750(4)
H10 H 0.4860 -0.4984 0.1659
Co1_2 Co 0.31181(8) -0.48484(7) 0.47471(6)
Co1A Co 0.68819(8) 0.48484(7) 0.52529(6)
Co1A_2 Co -0.31181(8) 0.48484(7) 0.52529(6)
N2_2 N 0.3996(4) 0.6888(4) 0.3026(4)
N3A N 0.4224(4) 0.6201(4) 0.5991(3)
N8A N 0.0571(5) 0.6681(4) 0.5744(4)
loop_
_geom_bond_atom_site_label_1
_geom_bond_atom_site_label_2
_geom_bond_site_symmetry_1
_geom_bond_site_symmetry_2
Co1 N1 1_555 1_555
N1 C1 1_555 1_555
N2 C8 1_555 1_555
N3 Co1 1_555 1_555
N4 N3 1_555 1_555
N5 N4 1_555 1_555
N6 N7 1_555 1_555
N7 Co1 1_555 1_555
N8 N6 1_555 1_555
C1 H1 1_555 1_555
C2 C1 1_555 1_555
H2 C2 1_555 1_555
C3 C2 1_555 1_555
H3 C3 1_555 1_555
C4 C3 1_555 1_555
H4 C4 1_555 1_555
C5 N1 1_555 1_555
C6 C5 1_555 1_555
H5 C6 1_555 1_555
C7 C6 1_555 1_555
H6 C7 1_555 1_555
C8 C7 1_555 1_555
C9 C8 1_555 1_555
H7 C9 1_555 1_555
C10 C9 1_555 1_555
H8 C10 1_555 1_555
C11 C10 1_555 1_555
H9 C11 1_555 1_555
C12 N2 1_555 1_555
H10 C12 1_555 1_555
Co1_2 N2 1_555 1_555
Co1A N3 1_555 1_555
Co1A_2 N8 1_555 1_555
N2_2 Co1 1_555 1_555
N3A Co1 1_555 1_555
N8A Co1 1_555 1_555
C4 C5 1_555 1_555
C11 C12 1_555 1_555
Co1A N3A 1_555 1_555

#END
