
#######################################################################
#
#                 Cambridge Crystallographic Data Centre
#                                CCDC 
#
#######################################################################
#
# If this CIF has been generated from an entry in the Cambridge 
# Structural Database, then it will include bibliographic, chemical, 
# crystal, experimental, refinement or atomic coordinate data resulting 
# from the CCDC's data processing and validation procedures.
#
#######################################################################

data_IMUBEY
_symmetry_cell_setting           triclinic
_symmetry_space_group_name_H-M   'P -1'
_symmetry_Int_Tables_number      2
_space_group_name_Hall           '-P 1'
loop_
_symmetry_equiv_pos_site_id
_symmetry_equiv_pos_as_xyz
1 x,y,z
2 -x,-y,-z
_cell_length_a                   8.8038(18)
_cell_length_b                   11.541(2)
_cell_length_c                   12.422(3)
_cell_angle_alpha                117.61(3)
_cell_angle_beta                 100.91(3)
_cell_angle_gamma                96.17(3)
_cell_volume                     1070.2
loop_
_atom_site_label
_atom_site_type_symbol
_atom_site_fract_x
_atom_site_fract_y
_atom_site_fract_z
Co1 Co 0.37667(5) 0.08731(4) 0.55308(4)
Co2 Co 0.0000 0.0000 0.5000
N1 N 0.1654(3) 0.1390(3) 0.4869(3)
N2 N 0.1504(4) 0.1700(3) 0.4057(3)
N3 N 0.1386(5) 0.2025(4) 0.3304(4)
N4 N 0.2201(4) -0.0235(3) 0.5884(3)
N5 N 0.2545(4) -0.0873(3) 0.6402(3)
N6 N 0.2876(4) -0.1479(4) 0.6894(4)
N7 N 0.4248(3) -0.0207(3) 0.3848(3)
N8 N 0.3390(4) -0.0611(3) 0.2804(3)
N9 N 0.2610(4) -0.1004(3) 0.1800(3)
N10 N 0.5058(4) 0.2837(3) 0.6259(3)
N11 N 0.1961(4) 0.1655(3) 0.8840(3)
C1 C 0.5373(4) 0.3155(4) 0.5393(4)
H1 H 0.4966 0.2523 0.4542
C2 C 0.6279(5) 0.4389(4) 0.5729(4)
H2 H 0.6479 0.4577 0.5111
C3 C 0.6882(5) 0.5338(4) 0.6991(4)
H3 H 0.7480 0.6177 0.7236
C4 C 0.6581(5) 0.5016(4) 0.7882(4)
H4 H 0.6989 0.5637 0.8737
C5 C 0.5666(4) 0.3759(4) 0.7501(3)
C6 C 0.5317(5) 0.3384(4) 0.8422(3)
H5 H 0.6112 0.3662 0.9157
C7 C 0.3922(5) 0.2668(4) 0.8257(3)
H6 H 0.3116 0.2486 0.7560
C8 C 0.3513(5) 0.2130(4) 0.9058(3)
C9 C 0.4673(5) 0.2061(4) 0.9965(4)
H7 H 0.5744 0.2371 1.0086
C10 C 0.4204(6) 0.1530(4) 1.0671(4)
H8 H 0.4951 0.1490 1.1285
C11 C 0.2597(5) 0.1055(4) 1.0451(4)
H9 H 0.2248 0.0698 1.0919
C12 C 0.1522(5) 0.1123(4) 0.9524(4)
H10 H 0.0448 0.0786 0.9368
O1 O -0.0169(3) 0.1446(2) 0.6730(2)
H16 H -0.009(6) 0.236(3) 0.694(4)
H17 H 0.046(5) 0.147(5) 0.743(4)
Co1A Co -0.37667(5) -0.08731(4) 0.44692(4)
Co1A_2 Co 0.62333(5) -0.08731(4) 0.44692(4)
N1A N -0.1654(3) -0.1390(3) 0.5131(3)
N2A N -0.1504(4) -0.1700(3) 0.5943(3)
N3A N -0.1386(5) -0.2025(4) 0.6696(4)
N4A N -0.2201(4) 0.0235(3) 0.4116(3)
N5A N -0.2545(4) 0.0873(3) 0.3598(3)
N6A N -0.2876(4) 0.1479(4) 0.3106(4)
N7A N 0.5752(3) 0.0207(3) 0.6152(3)
N7A_2 N -0.4248(3) 0.0207(3) 0.6152(3)
N7_2 N -0.5752(3) -0.0207(3) 0.3848(3)
N8A N 0.6610(4) 0.0611(3) 0.7196(3)
N9A N 0.7390(4) 0.1004(3) 0.8200(3)
N10A N -0.5058(4) -0.2837(3) 0.3741(3)
N11A N -0.1961(4) -0.1655(3) 0.1160(3)
C1A C -0.5373(4) -0.3155(4) 0.4607(4)
H1A H -0.4966 -0.2523 0.5458
C2A C -0.6279(5) -0.4389(4) 0.4271(4)
H2A H -0.6479 -0.4577 0.4889
C3A C -0.6882(5) -0.5338(4) 0.3009(4)
H3A H -0.7480 -0.6177 0.2764
C4A C -0.6581(5) -0.5016(4) 0.2118(4)
H4A H -0.6989 -0.5637 0.1263
C5A C -0.5666(4) -0.3759(4) 0.2499(3)
C6A C -0.5317(5) -0.3384(4) 0.1578(3)
H5A H -0.6112 -0.3662 0.0843
C7A C -0.3922(5) -0.2668(4) 0.1743(3)
H6A H -0.3116 -0.2486 0.2440
C8A C -0.3513(5) -0.2130(4) 0.0942(3)
C9A C -0.4673(5) -0.2061(4) 0.0035(4)
H7A H -0.5744 -0.2371 -0.0086
C10A C -0.4204(6) -0.1530(4) -0.0671(4)
H8A H -0.4951 -0.1490 -0.1285
C11A C -0.2597(5) -0.1055(4) -0.0451(4)
H9A H -0.2248 -0.0698 -0.0919
C12A C -0.1522(5) -0.1123(4) 0.0476(4)
H10A H -0.0448 -0.0786 0.0632
O1A O 0.0169(3) -0.1446(2) 0.3270(2)
H16A H 0.009(6) -0.236(3) 0.306(4)
H17A H -0.046(5) -0.147(5) 0.257(4)
N12 N 0.0345(5) 0.4111(3) 0.7387(3)
C13 C 0.0658(6) 0.4475(4) 0.6553(4)
H11 H 0.0576 0.3804 0.5738
C14 C 0.1093(5) 0.5793(4) 0.6847(4)
H12 H 0.1327 0.6005 0.6251
C15 C 0.0841(5) 0.6437(4) 0.8914(4)
H13 H 0.0892 0.7096 0.9728
C16 C 0.0426(5) 0.5083(4) 0.8560(4)
C17 C 0.1174(5) 0.6795(4) 0.8052(4)
H14 H 0.1449 0.7694 0.8276
C18 C 0.0020(5) 0.4612(4) 0.9405(4)
H15 H -0.0234 0.3689 0.9083
N12A N -0.0345(5) 0.5889(3) 1.2613(3)
C13A C -0.0658(6) 0.5525(4) 1.3447(4)
H11A H -0.0576 0.6196 1.4262
C14A C -0.1093(5) 0.4207(4) 1.3153(4)
H12A H -0.1327 0.3995 1.3749
C15A C -0.0841(5) 0.3563(4) 1.1086(4)
H13A H -0.0892 0.2904 1.0272
C16A C -0.0426(5) 0.4917(4) 1.1440(4)
C17A C -0.1174(5) 0.3205(4) 1.1948(4)
H14A H -0.1449 0.2306 1.1724
C18A C -0.0020(5) 0.5388(4) 1.0595(4)
H15A H 0.0234 0.6311 1.0917
loop_
_geom_bond_atom_site_label_1
_geom_bond_atom_site_label_2
_geom_bond_site_symmetry_1
_geom_bond_site_symmetry_2
Co1 N1 1_555 1_555
Co2 N1 1_555 1_555
N1 N2 1_555 1_555
N2 N3 1_555 1_555
N4 Co1 1_555 1_555
N5 N4 1_555 1_555
N6 N5 1_555 1_555
N7 Co1 1_555 1_555
N8 N7 1_555 1_555
N9 N8 1_555 1_555
N10 Co1 1_555 1_555
N11 C8 1_555 1_555
N12 C13 1_555 1_555
C1 N10 1_555 1_555
H1 C1 1_555 1_555
C2 C1 1_555 1_555
H2 C2 1_555 1_555
C3 C2 1_555 1_555
H3 C3 1_555 1_555
C4 C3 1_555 1_555
H4 C4 1_555 1_555
C5 N10 1_555 1_555
C6 C5 1_555 1_555
H5 C6 1_555 1_555
C7 C6 1_555 1_555
H6 C7 1_555 1_555
C8 C7 1_555 1_555
C9 C8 1_555 1_555
H7 C9 1_555 1_555
C10 C9 1_555 1_555
H8 C10 1_555 1_555
C11 C10 1_555 1_555
H9 C11 1_555 1_555
C12 N11 1_555 1_555
H10 C12 1_555 1_555
C13 H11 1_555 1_555
C14 C13 1_555 1_555
H12 C14 1_555 1_555
C15 H13 1_555 1_555
C16 N12 1_555 1_555
C17 C14 1_555 1_555
H14 C17 1_555 1_555
C18 C16 1_555 1_555
H15 C18 1_555 1_555
O1 Co2 1_555 1_555
H16 O1 1_555 1_555
H17 O1 1_555 1_555
Co1A N1A 1_555 1_555
Co1A_2 N7 1_555 1_555
N1A Co2 1_555 1_555
N2A N1A 1_555 1_555
N3A N2A 1_555 1_555
N4A Co2 1_555 1_555
N5A N4A 1_555 1_555
N6A N5A 1_555 1_555
N7A Co1 1_555 1_555
N7A_2 Co1A 1_555 1_555
N7_2 Co1A 1_555 1_555
N8A N7A 1_555 1_555
N9A N8A 1_555 1_555
N10A Co1A 1_555 1_555
N11A C8A 1_555 1_555
N12A C13A 1_555 1_555
C1A N10A 1_555 1_555
H1A C1A 1_555 1_555
C2A C1A 1_555 1_555
H2A C2A 1_555 1_555
C3A C2A 1_555 1_555
H3A C3A 1_555 1_555
C4A C3A 1_555 1_555
H4A C4A 1_555 1_555
C5A N10A 1_555 1_555
C6A C5A 1_555 1_555
H5A C6A 1_555 1_555
C7A C6A 1_555 1_555
H6A C7A 1_555 1_555
C8A C7A 1_555 1_555
C9A C8A 1_555 1_555
H7A C9A 1_555 1_555
C10A C9A 1_555 1_555
H8A C10A 1_555 1_555
C11A C10A 1_555 1_555
H9A C11A 1_555 1_555
C12A N11A 1_555 1_555
H10A C12A 1_555 1_555
C13A H11A 1_555 1_555
C14A C13A 1_555 1_555
H12A C14A 1_555 1_555
C15A H13A 1_555 1_555
C16A N12A 1_555 1_555
C17A C14A 1_555 1_555
H14A C17A 1_555 1_555
C18A C18 1_555 1_555
H15A C18A 1_555 1_555
O1A Co2 1_555 1_555
H16A O1A 1_555 1_555
H17A O1A 1_555 1_555
Co2 N4 1_555 1_555
C4 C5 1_555 1_555
C11 C12 1_555 1_555
C15 C16 1_555 1_555
C15 C17 1_555 1_555
Co1A N4A 1_555 1_555
Co1A_2 N7A 1_555 1_555
C4A C5A 1_555 1_555
C11A C12A 1_555 1_555
C15A C16A 1_555 1_555
C15A C17A 1_555 1_555
C16A C18A 1_555 1_555

#END
