
#######################################################################
#
#                 Cambridge Crystallographic Data Centre
#                                CCDC 
#
#######################################################################
#
# If this CIF has been generated from an entry in the Cambridge 
# Structural Database, then it will include bibliographic, chemical, 
# crystal, experimental, refinement or atomic coordinate data resulting 
# from the CCDC's data processing and validation procedures.
#
#######################################################################

data_IMUCID
_symmetry_cell_setting           monoclinic
_symmetry_space_group_name_H-M   'P 21/c'
_symmetry_Int_Tables_number      14
_space_group_name_Hall           '-P 2ybc'
loop_
_symmetry_equiv_pos_site_id
_symmetry_equiv_pos_as_xyz
1 x,y,z
2 -x,1/2+y,1/2-z
3 -x,-y,-z
4 x,1/2-y,1/2+z
_cell_length_a                   13.6380(3)
_cell_length_b                   23.6172(5)
_cell_length_c                   7.2459(1)
_cell_angle_alpha                90
_cell_angle_beta                 96.1919(12)
_cell_angle_gamma                90
_cell_volume                     2320.23
loop_
_atom_site_label
_atom_site_type_symbol
_atom_site_fract_x
_atom_site_fract_y
_atom_site_fract_z
Cu1 Cu -0.047420(19) 0.109100(11) -0.32220(4)
O1 O 0.06324(11) 0.06880(6) -0.1768(2)
O2 O -0.16396(11) 0.13840(6) -0.4518(2)
O3 O -0.30636(13) 0.19958(8) -0.6075(3)
O4 O 0.19604(13) 0.36427(8) -0.1454(3)
O5 O 0.04755(11) 0.39007(6) -0.0748(2)
N1 N -0.02684(14) -0.00713(8) -0.2795(3)
H4 H -0.0347(19) -0.0429(13) -0.318(4)
N2 N -0.09531(13) 0.03230(7) -0.3528(2)
N3 N 0.00043(13) 0.18510(7) -0.2323(2)
C1 C 0.05511(16) 0.01569(9) -0.1901(3)
C2 C 0.13435(17) -0.02162(10) -0.1076(3)
C3 C 0.22446(18) 0.00288(11) -0.0474(3)
H5 H 0.2332 0.0426 -0.0581
C4 C 0.3019(2) -0.03073(13) 0.0285(4)
H6 H 0.3638 -0.0139 0.0686
C5 C 0.2897(2) -0.08802(13) 0.0461(4)
H7 H 0.3431 -0.1107 0.0988
C6 C 0.1999(2) -0.11274(11) -0.0128(4)
H8 H 0.1918 -0.1525 -0.0007
C7 C 0.12214(19) -0.08010(10) -0.0889(3)
H9 H 0.0604 -0.0972 -0.1286
C8 C -0.18261(16) 0.01493(9) -0.4157(3)
H10 H -0.1961 -0.0245 -0.4119
C9 C -0.25965(16) 0.05193(10) -0.4904(3)
C10 C -0.24568(16) 0.11090(10) -0.5053(3)
C11 C -0.32783(17) 0.14350(10) -0.5867(3)
C12 C -0.41815(18) 0.11865(12) -0.6379(3)
H11 H -0.4722 0.1413 -0.6880
C13 C -0.43058(19) 0.06052(12) -0.6165(4)
H12 H -0.4932 0.0437 -0.6505
C14 C -0.35297(17) 0.02781(11) -0.5470(3)
H13 H -0.3617 -0.0119 -0.5364
C15 C -0.3801(2) 0.23329(14) -0.7102(5)
H14 H -0.3994 0.2155 -0.8309
H15 H -0.3537 0.2712 -0.7291
H16 H -0.4378 0.2363 -0.6411
C16 C 0.09590(17) 0.19410(9) -0.1759(3)
H17 H 0.1392 0.1625 -0.1620
C17 C 0.13400(17) 0.24756(9) -0.1369(3)
H18 H 0.2025 0.2525 -0.1007
C18 C 0.07117(16) 0.29402(9) -0.1510(3)
C19 C -0.02852(16) 0.28398(9) -0.2002(3)
H19 H -0.0743 0.3144 -0.2040
C20 C -0.06083(16) 0.22992(9) -0.2433(3)
H20 H -0.1288 0.2240 -0.2822
C21 C 0.10975(17) 0.35381(9) -0.1206(3)
Cu1C Cu -0.047420(19) 0.390900(11) 0.17780(4)
O5C O 0.04755(11) 0.10993(6) -0.5748(2)
O6 O 0.3757(3) 0.20094(15) -0.1383(4)
H1 H 0.373(2) 0.2303(14) -0.165(4)
C22 C 0.4095(4) 0.1627(2) -0.2646(6)
H21 H 0.4704 0.1777 -0.3098
H22 H 0.3591 0.1584 -0.3727
C23 C 0.4296(4) 0.10831(19) -0.1781(8)
H23 H 0.4857 0.1117 -0.0821
H24 H 0.4454 0.0809 -0.2720
H25 H 0.3714 0.0955 -0.1216
O7 O 0.35686(18) 0.30828(12) -0.2683(4)
H2 H 0.361(3) 0.3048(19) -0.367(6)
H3 H 0.305(3) 0.3276(18) -0.243(5)
loop_
_geom_bond_atom_site_label_1
_geom_bond_atom_site_label_2
_geom_bond_site_symmetry_1
_geom_bond_site_symmetry_2
Cu1 O1 1_555 1_555
O1 C1 1_555 1_555
O2 Cu1 1_555 1_555
O3 C11 1_555 1_555
O4 C21 1_555 1_555
O5 C21 1_555 1_555
O6 H1 1_555 1_555
O7 H2 1_555 1_555
H3 O7 1_555 1_555
N1 H4 1_555 1_555
N2 Cu1 1_555 1_555
N3 Cu1 1_555 1_555
C1 N1 1_555 1_555
C2 C1 1_555 1_555
C3 C2 1_555 1_555
H5 C3 1_555 1_555
C4 C3 1_555 1_555
H6 C4 1_555 1_555
C5 C4 1_555 1_555
H7 C5 1_555 1_555
C6 C5 1_555 1_555
H8 C6 1_555 1_555
C7 C2 1_555 1_555
H9 C7 1_555 1_555
C8 N2 1_555 1_555
H10 C8 1_555 1_555
C9 C8 1_555 1_555
C10 O2 1_555 1_555
C11 C10 1_555 1_555
C12 C11 1_555 1_555
H11 C12 1_555 1_555
C13 C12 1_555 1_555
H12 C13 1_555 1_555
C14 C9 1_555 1_555
H13 C14 1_555 1_555
C15 O3 1_555 1_555
H14 C15 1_555 1_555
H15 C15 1_555 1_555
H16 C15 1_555 1_555
C16 N3 1_555 1_555
H17 C16 1_555 1_555
C17 C16 1_555 1_555
H18 C17 1_555 1_555
C18 C17 1_555 1_555
C19 C18 1_555 1_555
H19 C19 1_555 1_555
C20 N3 1_555 1_555
H20 C20 1_555 1_555
C21 C18 1_555 1_555
C22 O6 1_555 1_555
H21 C22 1_555 1_555
H22 C22 1_555 1_555
C23 C22 1_555 1_555
H23 C23 1_555 1_555
H24 C23 1_555 1_555
H25 C23 1_555 1_555
Cu1C O5 1_555 1_555
O5C Cu1 1_555 1_555
N1 N2 1_555 1_555
C6 C7 1_555 1_555
C9 C10 1_555 1_555
C13 C14 1_555 1_555
C19 C20 1_555 1_555

#END
