
#######################################################################
#
#                 Cambridge Crystallographic Data Centre
#                                CCDC 
#
#######################################################################
#
# If this CIF has been generated from an entry in the Cambridge 
# Structural Database, then it will include bibliographic, chemical, 
# crystal, experimental, refinement or atomic coordinate data resulting 
# from the CCDC's data processing and validation procedures.
#
#######################################################################

data_IMUDAW
_symmetry_cell_setting           monoclinic
_symmetry_space_group_name_H-M   'P 21/c'
_symmetry_Int_Tables_number      14
_space_group_name_Hall           '-P 2ybc'
loop_
_symmetry_equiv_pos_site_id
_symmetry_equiv_pos_as_xyz
1 x,y,z
2 -x,1/2+y,1/2-z
3 -x,-y,-z
4 x,1/2-y,1/2+z
_cell_length_a                   11.764(2)
_cell_length_b                   7.2014(13)
_cell_length_c                   24.274(4)
_cell_angle_alpha                90
_cell_angle_beta                 100.887(3)
_cell_angle_gamma                90
_cell_volume                     2019.41
loop_
_atom_site_label
_atom_site_type_symbol
_atom_site_fract_x
_atom_site_fract_y
_atom_site_fract_z
C1 C 0.7116(5) 0.2365(9) 0.0013(3)
C2 C 0.6283(6) 0.2026(11) -0.0457(3)
H1 H 0.6511 0.1662 -0.0787
C3 C 0.5130(7) 0.2209(12) -0.0451(4)
H2 H 0.4592 0.1997 -0.0778
C4 C 0.4752(6) 0.2696(13) 0.0025(3)
H3 H 0.3966 0.2790 0.0030
C5 C 0.5567(6) 0.3046(11) 0.0500(3)
H4 H 0.5323 0.3379 0.0829
C6 C 0.6731(6) 0.2917(9) 0.0500(3)
C7 C 0.7558(6) 0.3391(9) 0.1038(3)
C8 C 1.2403(5) 0.6096(9) 0.1797(2)
C9 C 1.3298(6) 0.7327(10) 0.1992(3)
H5 H 1.3127 0.8499 0.2115
C10 C 1.4427(6) 0.6842(11) 0.2006(3)
H6 H 1.5014 0.7692 0.2134
C11 C 1.4704(6) 0.5102(11) 0.1831(3)
H7 H 1.5473 0.4773 0.1844
C12 C 1.3818(6) 0.3843(11) 0.1636(3)
H8 H 1.3996 0.2662 0.1522
C13 C 1.2674(5) 0.4351(9) 0.1610(2)
C14 C 1.1758(5) 0.2999(9) 0.1366(3)
Zn1 Zn 0.97346(6) 0.54607(10) 0.06094(3)
Zn2 Zn 0.88641(7) 0.38749(12) 0.19648(3)
Zn3 Zn 1.04687(7) 0.01155(10) 0.10376(3)
O1 O 0.9289(3) 0.3521(6) -0.00324(17)
O2 O 0.8983(4) 0.0697(6) 0.05541(19)
O3 O 0.8554(4) 0.0518(6) -0.04948(19)
O4 O 0.8488(4) 0.4301(6) 0.10460(18)
O5 O 0.7306(4) 0.2836(7) 0.14885(19)
O6 O 1.0412(4) 0.4912(6) 0.20205(18)
O7 O 1.0285(4) 0.7339(5) 0.12517(16)
O8 O 1.0970(4) 0.8263(6) 0.22437(17)
O9 O 1.0992(4) 0.3445(6) 0.09524(18)
O10 O 1.1797(4) 0.1394(6) 0.15728(18)
O11 O 0.8353(4) 0.7091(6) 0.0197(2)
H9 H 0.8558 0.7670 -0.0074
H10 H 0.8178 0.7846 0.0420
O12 O 0.7949(5) 0.6248(8) 0.2179(2)
H11 H 0.8388 0.7197 0.2189
H12 H 0.7783 0.6106 0.2502
O13 O 0.9465(4) 0.0955(7) 0.1741(2)
H13 H 0.8863 0.0273 0.1681
H14 H 0.9881 0.0549 0.2041
P1 P 0.85928(15) 0.1756(2) 0.00067(7)
P2 P 1.09272(14) 0.6673(2) 0.18350(6)
Zn1B Zn 1.02654(6) 0.45393(10) -0.06094(3)
Zn2A Zn 1.11359(7) 0.88749(12) 0.30352(3)
Zn3B Zn 0.95313(7) -0.01155(10) -0.10376(3)
Zn3_2 Zn 1.04687(7) 1.01155(10) 0.10376(3)
O1B O 1.0711(3) 0.6479(6) 0.00324(17)
O3B O 1.1446(4) -0.0518(6) 0.04948(19)
O7_2 O 1.0285(4) -0.2661(5) 0.12517(16)
O8A O 0.9030(4) 0.3263(6) 0.27563(17)
O14 O 0.7454(7) 0.8881(11) 0.1358(3)
H15 H 0.7055 0.9553 0.1104
H16 H 0.7006 0.8196 0.1507
loop_
_geom_bond_atom_site_label_1
_geom_bond_atom_site_label_2
_geom_bond_site_symmetry_1
_geom_bond_site_symmetry_2
C1 C2 1_555 1_555
C2 H1 1_555 1_555
C3 C2 1_555 1_555
H2 C3 1_555 1_555
C4 C3 1_555 1_555
H3 C4 1_555 1_555
C5 C4 1_555 1_555
H4 C5 1_555 1_555
C6 C1 1_555 1_555
C7 C6 1_555 1_555
C8 C9 1_555 1_555
C9 H5 1_555 1_555
C10 C9 1_555 1_555
H6 C10 1_555 1_555
C11 C10 1_555 1_555
H7 C11 1_555 1_555
C12 C11 1_555 1_555
H8 C12 1_555 1_555
C13 C8 1_555 1_555
C14 C13 1_555 1_555
Zn1 O1 1_555 1_555
Zn2 O4 1_555 1_555
Zn3 O2 1_555 1_555
O1 P1 1_555 1_555
O2 P1 1_555 1_555
O3 P1 1_555 1_555
O4 C7 1_555 1_555
O5 C7 1_555 1_555
O6 Zn2 1_555 1_555
O7 Zn1 1_555 1_555
O8 P2 1_555 1_555
O9 C14 1_555 1_555
O10 C14 1_555 1_555
O11 Zn1 1_555 1_555
H9 O11 1_555 1_555
H10 O11 1_555 1_555
O12 Zn2 1_555 1_555
H11 O12 1_555 1_555
H12 O12 1_555 1_555
O13 Zn2 1_555 1_555
H13 O13 1_555 1_555
H14 O13 1_555 1_555
O14 H15 1_555 1_555
H16 O14 1_555 1_555
P1 C1 1_555 1_555
P2 C8 1_555 1_555
Zn1B O1 1_555 1_555
Zn2A O8 1_555 1_555
Zn3B O3 1_555 1_555
Zn3_2 O7 1_555 1_555
O1B Zn1 1_555 1_555
O3B Zn3 1_555 1_555
O7_2 Zn3 1_555 1_555
O8A Zn2 1_555 1_555
C5 C6 1_555 1_555
C12 C13 1_555 1_555
Zn1 O4 1_555 1_555
Zn1 O9 1_555 1_555
Zn2 O5 1_555 1_555
Zn3 O9 1_555 1_555
Zn3 O10 1_555 1_555
Zn3 O13 1_555 1_555
O6 P2 1_555 1_555
O7 P2 1_555 1_555
Zn1B O1B 1_555 1_555

#END
