
#######################################################################
#
#                 Cambridge Crystallographic Data Centre
#                                CCDC 
#
#######################################################################
#
# If this CIF has been generated from an entry in the Cambridge 
# Structural Database, then it will include bibliographic, chemical, 
# crystal, experimental, refinement or atomic coordinate data resulting 
# from the CCDC's data processing and validation procedures.
#
#######################################################################

data_IMULAD
_symmetry_cell_setting           tetragonal
_symmetry_space_group_name_H-M   'P -4 21 c'
_symmetry_Int_Tables_number      114
_space_group_name_Hall           'P -4 2n'
loop_
_symmetry_equiv_pos_site_id
_symmetry_equiv_pos_as_xyz
1 x,y,z
2 -x,-y,z
3 -y,x,-z
4 y,-x,-z
5 1/2-x,1/2+y,1/2-z
6 1/2+x,1/2-y,1/2-z
7 1/2-y,1/2-x,1/2+z
8 1/2+y,1/2+x,1/2+z
_cell_length_a                   21.3100(10)
_cell_length_b                   21.3100(10)
_cell_length_c                   17.2600(10)
_cell_angle_alpha                90
_cell_angle_beta                 90
_cell_angle_gamma                90
_cell_volume                     7838.04
loop_
_atom_site_label
_atom_site_type_symbol
_atom_site_fract_x
_atom_site_fract_y
_atom_site_fract_z
Co1 Co 0.0000 0.0000 0.23460(8)
Co2 Co -0.5000 0.0000 -0.26450(9)
S1 S 0.0635(7) 0.2172(3) 0.2166(4)
S2 S -0.4475(6) -0.2179(3) -0.2538(7)
N1 N -0.0726(3) 0.0059(4) 0.1458(4)
N2 N 0.0121(4) 0.0957(4) 0.2361(5)
N3 N 0.0730(3) -0.0094(4) 0.3259(4)
N4 N -0.4298(3) 0.0046(5) -0.1727(4)
N5 N 0.4267(3) -0.0092(4) 0.6481(4)
N6 N -0.4903(4) -0.0975(6) -0.2672(6)
C1 C -0.1132(5) 0.0541(6) 0.1486(6)
H1 H -0.1071 0.0859 0.1846
C2 C -0.1664(4) 0.0572(6) 0.0962(7)
H2 H -0.1944 0.0905 0.1001
C3 C -0.1756(4) 0.0139(5) 0.0434(5)
C4 C -0.1289(6) -0.0319(6) 0.0405(7)
H3 H -0.1320 -0.0625 0.0022
C5 C -0.0804(4) -0.0349(5) 0.0887(5)
H4 H -0.0510 -0.0667 0.0822
C6 C -0.2287(5) 0.0106(5) -0.0087(5)
H5 H -0.2194 -0.0050 -0.0576
C7 C -0.2859(6) 0.0255(6) 0.0011(6)
C8 C -0.3086(6) 0.0580(9) 0.0744(9)
H6 H -0.2827 0.0455 0.1173
H7 H -0.3513 0.0462 0.0845
H8 H -0.3060 0.1026 0.0678
C9 C -0.3358(5) 0.0198(7) -0.0559(6)
C10 C -0.3362(5) -0.0312(7) -0.1131(8)
H9 H -0.3050 -0.0617 -0.1112
C11 C -0.3798(4) -0.0344(5) -0.1672(6)
H10 H -0.3758 -0.0658 -0.2044
C12 C -0.4304(5) 0.0487(7) -0.1197(6)
H11 H -0.4643 0.0761 -0.1215
C13 C -0.3862(6) 0.0600(7) -0.0601(6)
H12 H -0.3911 0.0931 -0.0254
C14 C 0.1186(4) 0.0299(6) 0.3285(6)
H13 H 0.1204 0.0610 0.2908
C15 C 0.1657(5) 0.0285(6) 0.3847(6)
H14 H 0.1980 0.0578 0.3849
C16 C 0.1622(5) -0.0195(6) 0.4414(5)
C17 C 0.1121(5) -0.0616(8) 0.4345(7)
H15 H 0.1087 -0.0945 0.4697
C18 C 0.0698(6) -0.0559(8) 0.3798(8)
H16 H 0.0368 -0.0843 0.3777
C19 C 0.2111(6) -0.0327(8) 0.5023(6)
C20 C 0.1860(6) -0.0610(8) 0.5775(6)
H17 H 0.1873 -0.1060 0.5742
H18 H 0.1435 -0.0476 0.5855
H19 H 0.2115 -0.0474 0.6202
C21 C 0.2656(5) -0.0107(6) 0.4940(6)
H20 H 0.2726 0.0079 0.4460
C22 C 0.3216(4) -0.0089(6) 0.5478(5)
C23 C 0.3287(5) -0.0525(6) 0.6076(6)
H21 H 0.2986 -0.0833 0.6164
C24 C 0.3804(5) -0.0486(6) 0.6524(6)
H22 H 0.3834 -0.0783 0.6917
C25 C 0.4196(5) 0.0329(6) 0.5917(6)
H23 H 0.4504 0.0634 0.5857
C26 C 0.3676(5) 0.0337(6) 0.5400(6)
H24 H 0.3655 0.0637 0.5010
C27 C 0.0286(7) 0.1463(6) 0.2336(7)
C28 C -0.484(2) -0.1439(18) -0.2613(17)
N1A N 0.0726(3) -0.0059(4) 0.1458(4)
N4A N 0.4298(3) -0.0046(5) -0.1727(4)
C1A C 0.1132(5) -0.0541(6) 0.1486(6)
H1A H 0.1071 -0.0859 0.1846
C2A C 0.1664(4) -0.0572(6) 0.0962(7)
H2A H 0.1944 -0.0905 0.1001
C3A C 0.1756(4) -0.0139(5) 0.0434(5)
C4A C 0.1289(6) 0.0319(6) 0.0405(7)
H3A H 0.1320 0.0625 0.0022
C5A C 0.0804(4) 0.0349(5) 0.0887(5)
H4A H 0.0510 0.0667 0.0822
C6A C 0.2287(5) -0.0106(5) -0.0087(5)
H5A H 0.2194 0.0050 -0.0576
C7A C 0.2859(6) -0.0255(6) 0.0011(6)
C8A C 0.3086(6) -0.0580(9) 0.0744(9)
H6A H 0.2827 -0.0455 0.1173
H7A H 0.3513 -0.0462 0.0845
H8A H 0.3060 -0.1026 0.0678
C9A C 0.3358(5) -0.0198(7) -0.0559(6)
C10A C 0.3362(5) 0.0312(7) -0.1131(8)
H9A H 0.3050 0.0617 -0.1112
C11A C 0.3798(4) 0.0344(5) -0.1672(6)
H10A H 0.3758 0.0658 -0.2044
C12A C 0.4304(5) -0.0487(7) -0.1197(6)
H11A H 0.4643 -0.0761 -0.1215
C13A C 0.3862(6) -0.0600(7) -0.0601(6)
H12A H 0.3911 -0.0931 -0.0254
S1A S -0.0635(7) -0.2172(3) 0.2166(4)
N2A N -0.0121(4) -0.0957(4) 0.2361(5)
C27A C -0.0286(7) -0.1463(6) 0.2336(7)
N3A N -0.0730(3) 0.0094(4) 0.3259(4)
N5A N -0.4267(3) 0.0092(4) 0.6481(4)
C14A C -0.1186(4) -0.0299(6) 0.3285(6)
H13A H -0.1204 -0.0610 0.2908
C15A C -0.1657(5) -0.0285(6) 0.3847(6)
H14A H -0.1980 -0.0578 0.3849
C16A C -0.1622(5) 0.0195(6) 0.4414(5)
C17A C -0.1121(5) 0.0616(8) 0.4345(7)
H15A H -0.1087 0.0945 0.4697
C18A C -0.0698(6) 0.0559(8) 0.3798(8)
H16A H -0.0368 0.0843 0.3777
C19A C -0.2111(6) 0.0327(8) 0.5023(6)
C20A C -0.1860(6) 0.0610(8) 0.5775(6)
H17A H -0.1873 0.1060 0.5742
H18A H -0.1435 0.0476 0.5855
H19A H -0.2115 0.0474 0.6202
C21A C -0.2656(5) 0.0107(6) 0.4940(6)
H20A H -0.2726 -0.0079 0.4460
C22A C -0.3216(4) 0.0089(6) 0.5478(5)
C23A C -0.3287(5) 0.0525(6) 0.6076(6)
H21A H -0.2986 0.0833 0.6164
C24A C -0.3804(5) 0.0486(6) 0.6524(6)
H22A H -0.3834 0.0783 0.6917
C25A C -0.4196(5) -0.0329(6) 0.5917(6)
H23A H -0.4504 -0.0634 0.5857
C26A C -0.3676(5) -0.0337(6) 0.5400(6)
H24A H -0.3655 -0.0637 0.5010
S2A S -0.5525(6) 0.2179(3) -0.2538(7)
N6A N -0.5097(4) 0.0975(6) -0.2672(6)
C28A C -0.516(2) 0.1439(18) -0.2613(17)
N4A_2 N -0.5702(3) -0.0046(5) -0.1727(4)
N5_2 N -0.5733(3) -0.0092(4) -0.3519(4)
N5A_2 N -0.4267(3) 0.0092(4) -0.3519(4)
Co2_2 Co 0.5000 0.0000 0.73550(9)
Co2_3 Co 0.5000 0.0000 -0.26450(9)
Co2_4 Co -0.5000 0.0000 0.73550(9)
loop_
_geom_bond_atom_site_label_1
_geom_bond_atom_site_label_2
_geom_bond_site_symmetry_1
_geom_bond_site_symmetry_2
Co1 N1 1_555 1_555
Co2 N4 1_555 1_555
S1 C27 1_555 1_555
S2 C28 1_555 1_555
N1 C1 1_555 1_555
N2 Co1 1_555 1_555
N3 Co1 1_555 1_555
N4 C11 1_555 1_555
N5 C24 1_555 1_555
N6 Co2 1_555 1_555
C1 H1 1_555 1_555
C2 C1 1_555 1_555
H2 C2 1_555 1_555
C3 C2 1_555 1_555
C4 C3 1_555 1_555
H3 C4 1_555 1_555
C5 N1 1_555 1_555
H4 C5 1_555 1_555
C6 C3 1_555 1_555
H5 C6 1_555 1_555
C7 C6 1_555 1_555
C8 C7 1_555 1_555
H6 C8 1_555 1_555
H7 C8 1_555 1_555
H8 C8 1_555 1_555
C9 C7 1_555 1_555
C10 C9 1_555 1_555
H9 C10 1_555 1_555
C11 C10 1_555 1_555
H10 C11 1_555 1_555
C12 N4 1_555 1_555
H11 C12 1_555 1_555
C13 C9 1_555 1_555
H12 C13 1_555 1_555
C14 N3 1_555 1_555
H13 C14 1_555 1_555
C15 C14 1_555 1_555
H14 C15 1_555 1_555
C16 C15 1_555 1_555
C17 C16 1_555 1_555
H15 C17 1_555 1_555
C18 N3 1_555 1_555
H16 C18 1_555 1_555
C19 C16 1_555 1_555
C20 C19 1_555 1_555
H17 C20 1_555 1_555
H18 C20 1_555 1_555
H19 C20 1_555 1_555
C21 C19 1_555 1_555
H20 C21 1_555 1_555
C22 C21 1_555 1_555
C23 C22 1_555 1_555
H21 C23 1_555 1_555
C24 C23 1_555 1_555
H22 C24 1_555 1_555
C25 N5 1_555 1_555
H23 C25 1_555 1_555
C26 C22 1_555 1_555
H24 C26 1_555 1_555
C27 N2 1_555 1_555
C28 N6 1_555 1_555
N1A Co1 1_555 1_555
N4A C11A 1_555 1_555
C1A N1A 1_555 1_555
H1A C1A 1_555 1_555
C2A C1A 1_555 1_555
H2A C2A 1_555 1_555
C3A C2A 1_555 1_555
C4A C3A 1_555 1_555
H3A C4A 1_555 1_555
C5A N1A 1_555 1_555
H4A C5A 1_555 1_555
C6A C3A 1_555 1_555
H5A C6A 1_555 1_555
C7A C6A 1_555 1_555
C8A C7A 1_555 1_555
H6A C8A 1_555 1_555
H7A C8A 1_555 1_555
H8A C8A 1_555 1_555
C9A C7A 1_555 1_555
C10A C9A 1_555 1_555
H9A C10A 1_555 1_555
C11A C10A 1_555 1_555
H10A C11A 1_555 1_555
C12A N4A 1_555 1_555
H11A C12A 1_555 1_555
C13A C9A 1_555 1_555
H12A C13A 1_555 1_555
S1A C27A 1_555 1_555
N2A Co1 1_555 1_555
C27A N2A 1_555 1_555
N3A Co1 1_555 1_555
N5A C24A 1_555 1_555
C14A N3A 1_555 1_555
H13A C14A 1_555 1_555
C15A C14A 1_555 1_555
H14A C15A 1_555 1_555
C16A C15A 1_555 1_555
C17A C16A 1_555 1_555
H15A C17A 1_555 1_555
C18A N3A 1_555 1_555
H16A C18A 1_555 1_555
C19A C16A 1_555 1_555
C20A C19A 1_555 1_555
H17A C20A 1_555 1_555
H18A C20A 1_555 1_555
H19A C20A 1_555 1_555
C21A C19A 1_555 1_555
H20A C21A 1_555 1_555
C22A C21A 1_555 1_555
C23A C22A 1_555 1_555
H21A C23A 1_555 1_555
C24A C23A 1_555 1_555
H22A C24A 1_555 1_555
C25A N5A 1_555 1_555
H23A C25A 1_555 1_555
C26A C22A 1_555 1_555
H24A C26A 1_555 1_555
S2A C28A 1_555 1_555
N6A Co2 1_555 1_555
C28A N6A 1_555 1_555
N4A_2 Co2 1_555 1_555
N5_2 Co2 1_555 1_555
N5A_2 Co2 1_555 1_555
Co2_2 N5 1_555 1_555
Co2_3 N4A 1_555 1_555
Co2_4 N5A 1_555 1_555
C4 C5 1_555 1_555
C12 C13 1_555 1_555
C17 C18 1_555 1_555
C25 C26 1_555 1_555
C4A C5A 1_555 1_555
C12A C13A 1_555 1_555
C17A C18A 1_555 1_555
C25A C26A 1_555 1_555

#END
