
#######################################################################
#
#                 Cambridge Crystallographic Data Centre
#                                CCDC 
#
#######################################################################
#
# If this CIF has been generated from an entry in the Cambridge 
# Structural Database, then it will include bibliographic, chemical, 
# crystal, experimental, refinement or atomic coordinate data resulting 
# from the CCDC's data processing and validation procedures.
#
#######################################################################

data_IMULUX
_symmetry_cell_setting           triclinic
_symmetry_space_group_name_H-M   'P -1'
_symmetry_Int_Tables_number      2
_space_group_name_Hall           '-P 1'
loop_
_symmetry_equiv_pos_site_id
_symmetry_equiv_pos_as_xyz
1 x,y,z
2 -x,-y,-z
_cell_length_a                   8.0465(16)
_cell_length_b                   13.454(3)
_cell_length_c                   13.770(3)
_cell_angle_alpha                64.097(3)
_cell_angle_beta                 79.996(4)
_cell_angle_gamma                81.448(4)
_cell_volume                     1316.09
loop_
_atom_site_label
_atom_site_type_symbol
_atom_site_fract_x
_atom_site_fract_y
_atom_site_fract_z
Cu1 Cu 0.46039(10) 0.09369(6) 0.62380(6)
Cu2 Cu 0.20196(10) 0.10617(6) 0.48239(6)
Cu3 Cu 0.70142(10) 0.21425(6) 0.33241(6)
I1 I 0.36792(5) 0.15989(3) 0.77743(3)
I2 I 0.73381(6) 0.38413(3) 0.14733(3)
I3 I -0.06373(5) 0.24540(3) 0.45345(3)
S1 S 0.45392(16) 0.21967(10) 0.44482(10)
S2 S 0.23469(17) -0.03736(10) 0.65066(10)
S3 S 0.69465(17) -0.03080(10) 0.63928(10)
N1 N 0.4919(6) 0.4346(4) 0.3601(4)
H1 H 0.5736 0.4081 0.3235
N2 N -0.0290(6) 0.0601(4) 0.7310(4)
H2 H -0.0036 0.1100 0.6577
N3 N 0.5516(6) -0.1215(4) 0.8448(4)
H3 H 0.4820 -0.0632 0.8264
C1 C 0.4035(7) 0.3522(4) 0.4369(4)
C2 C 0.2728(7) 0.3810(5) 0.5044(5)
H4 H 0.2067 0.3272 0.5582
C3 C 0.2430(8) 0.4894(5) 0.4899(6)
H5 H 0.1570 0.5091 0.5344
C4 C 0.3412(9) 0.5715(5) 0.4090(6)
H6 H 0.3218 0.6448 0.3997
C5 C 0.4625(9) 0.5415(5) 0.3459(5)
H7 H 0.5283 0.5948 0.2910
C6 C 0.0841(6) -0.0288(4) 0.7542(4)
C7 C 0.0751(8) -0.1065(5) 0.8621(4)
H8 H 0.1510 -0.1693 0.8822
C8 C -0.0436(9) -0.0905(6) 0.9394(5)
H9 H -0.0488 -0.1425 1.0115
C9 C -0.1581(8) 0.0031(6) 0.9094(5)
H10 H -0.2402 0.0147 0.9608
C10 C -0.1466(8) 0.0771(6) 0.8051(5)
H11 H -0.2218 0.1403 0.7842
C11 C 0.6708(7) -0.1362(4) 0.7692(4)
C12 C 0.7718(8) -0.2346(5) 0.8033(5)
H12 H 0.8538 -0.2498 0.7539
C13 C 0.7510(11) -0.3098(6) 0.9095(6)
H13 H 0.8215 -0.3751 0.9328
C14 C 0.6264(11) -0.2905(6) 0.9845(6)
H14 H 0.6112 -0.3423 1.0566
C15 C 0.5295(9) -0.1946(6) 0.9497(5)
H15 H 0.4461 -0.1785 0.9979
S3A S 0.30535(17) 0.03080(10) 0.36072(10)
I3_2 I 0.93627(5) 0.24540(3) 0.45345(3)
S2A S 0.76531(17) 0.03736(10) 0.34934(10)
Cu3_2 Cu -0.29858(10) 0.21425(6) 0.33241(6)
Cu3A Cu 0.29858(10) -0.21425(6) 0.66759(6)
Cu2A Cu 0.79804(10) -0.10617(6) 0.51761(6)
N4 N 0.2082(13) 0.7069(8) 0.1393(8)
C16 C 0.1512(17) 0.6319(10) 0.1634(9)
C17 C 0.092(4) 0.5290(17) 0.1942(14)
H16 H 0.1749 0.4699 0.2276
H17 H 0.0637 0.5241 0.1315
H18 H -0.0083 0.5232 0.2452
loop_
_geom_bond_atom_site_label_1
_geom_bond_atom_site_label_2
_geom_bond_site_symmetry_1
_geom_bond_site_symmetry_2
Cu1 I1 1_555 1_555
Cu2 I3 1_555 1_555
Cu3 I2 1_555 1_555
I3 Cu3_2 1_555 1_555
S1 Cu1 1_555 1_555
S2 Cu1 1_555 1_555
S3 Cu1 1_555 1_555
N1 H1 1_555 1_555
N2 H2 1_555 1_555
N3 H3 1_555 1_555
C1 S1 1_555 1_555
C2 C1 1_555 1_555
H4 C2 1_555 1_555
C3 C2 1_555 1_555
H5 C3 1_555 1_555
C4 C3 1_555 1_555
H6 C4 1_555 1_555
C5 N1 1_555 1_555
H7 C5 1_555 1_555
C6 S2 1_555 1_555
C7 C6 1_555 1_555
H8 C7 1_555 1_555
C8 C7 1_555 1_555
H9 C8 1_555 1_555
C9 C8 1_555 1_555
H10 C9 1_555 1_555
C10 N2 1_555 1_555
H11 C10 1_555 1_555
C11 S3 1_555 1_555
C12 C11 1_555 1_555
H12 C12 1_555 1_555
C13 C12 1_555 1_555
H13 C13 1_555 1_555
C14 C13 1_555 1_555
H14 C14 1_555 1_555
C15 N3 1_555 1_555
H15 C15 1_555 1_555
N4 C16 1_555 1_555
C16 C17 1_555 1_555
C17 H16 1_555 1_555
H17 C17 1_555 1_555
H18 C17 1_555 1_555
S3A Cu2 1_555 1_555
I3_2 Cu3 1_555 1_555
S2A Cu3 1_555 1_555
Cu3A S2 1_555 1_555
Cu2A S3 1_555 1_555
Cu2 S1 1_555 1_555
Cu2 S2 1_555 1_555
Cu3 S1 1_555 1_555
N1 C1 1_555 1_555
N2 C6 1_555 1_555
N3 C11 1_555 1_555
C4 C5 1_555 1_555
C9 C10 1_555 1_555
C14 C15 1_555 1_555
S2A Cu2A 1_555 1_555

#END
