
#######################################################################
#
#                 Cambridge Crystallographic Data Centre
#                                CCDC 
#
#######################################################################
#
# If this CIF has been generated from an entry in the Cambridge 
# Structural Database, then it will include bibliographic, chemical, 
# crystal, experimental, refinement or atomic coordinate data resulting 
# from the CCDC's data processing and validation procedures.
#
#######################################################################

data_IMUPUC
_symmetry_cell_setting           triclinic
_symmetry_space_group_name_H-M   'P -1'
_symmetry_Int_Tables_number      2
_space_group_name_Hall           '-P 1'
loop_
_symmetry_equiv_pos_site_id
_symmetry_equiv_pos_as_xyz
1 x,y,z
2 -x,-y,-z
_cell_length_a                   5.7785(2)
_cell_length_b                   11.4165(3)
_cell_length_c                   11.4907(3)
_cell_angle_alpha                91.670(2)
_cell_angle_beta                 92.935(2)
_cell_angle_gamma                104.106(2)
_cell_volume                     733.544
loop_
_atom_site_label
_atom_site_type_symbol
_atom_site_fract_x
_atom_site_fract_y
_atom_site_fract_z
Co1 Co 0.5000 0.5000 0.5000
S1 S -0.17537(10) 0.27380(6) 0.22363(5)
O1 O 0.2376(2) 0.45829(11) 0.35925(12)
O2 O 0.4644(3) 0.46862(19) 0.20744(14)
O3 O 0.0256(5) -0.28055(19) 0.1564(2)
O4 O 0.3383(4) -0.17028(17) 0.07385(19)
H1 H 0.371(6) -0.237(2) 0.062(3)
O5 O 0.2155(3) 0.47473(13) 0.61028(13)
H2 H 0.106(3) 0.509(2) 0.6124(19)
H3 H 0.284(4) 0.483(2) 0.6770(15)
N1 N 0.5071(3) 0.68946(13) 0.48761(14)
C1 C 0.0756(4) -0.0677(2) 0.15408(19)
C2 C -0.1320(4) -0.0683(2) 0.2100(2)
H6 H -0.2261 -0.1410 0.2334
C3 C -0.1999(4) 0.0366(2) 0.2309(2)
H7 H -0.3399 0.0346 0.2682
C4 C -0.0607(4) 0.1466(2) 0.19682(18)
C5 C 0.1496(4) 0.1482(2) 0.1429(2)
H8 H 0.2462 0.2211 0.1214
C6 C 0.2154(4) 0.0416(2) 0.1212(2)
H9 H 0.3552 0.0431 0.0840
C7 C 0.1406(5) -0.1841(2) 0.1293(2)
C8 C 0.0439(4) 0.3986(2) 0.17128(18)
H10 H 0.0920 0.3740 0.0966
H11 H -0.0309 0.4648 0.1581
C9 C 0.2676(4) 0.44498(18) 0.25204(18)
C10 C 0.3278(4) 0.72810(17) 0.4388(2)
H12 H 0.2012 0.6713 0.4009
C11 C 0.3186(4) 0.84764(17) 0.4412(2)
H13 H 0.1883 0.8695 0.4053
C12 C 0.5021(3) 0.93513(15) 0.49675(16)
C13 C 0.6912(4) 0.89486(17) 0.54563(19)
H14 H 0.8210 0.9498 0.5832
C14 C 0.6878(4) 0.77379(17) 0.53879(19)
H15 H 0.8184 0.7496 0.5716
Co1_2 Co 0.5000 1.5000 0.5000
S1A S 1.17537(10) 0.72620(6) 0.77637(5)
O1A O 0.7624(2) 0.54171(11) 0.64075(12)
O2A O 0.5356(3) 0.53138(19) 0.79256(14)
O3A O 0.9744(5) 1.28055(19) 0.8436(2)
O4A O 0.6617(4) 1.17028(17) 0.92615(19)
H1A H 0.629(6) 1.237(2) 0.938(3)
O5A O 0.7845(3) 0.52527(13) 0.38972(13)
H2A H 0.894(3) 0.491(2) 0.3876(19)
H3A H 0.716(4) 0.517(2) 0.3230(15)
N1A N 0.4929(3) 1.31054(13) 0.51239(14)
N1A_2 N 0.4929(3) 0.31054(13) 0.51239(14)
C1A C 0.9244(4) 1.0677(2) 0.84592(19)
C2A C 1.1320(4) 1.0683(2) 0.7900(2)
H6A H 1.2261 1.1410 0.7666
C3A C 1.1999(4) 0.9634(2) 0.7691(2)
H7A H 1.3399 0.9654 0.7318
C4A C 1.0607(4) 0.8534(2) 0.80318(18)
C5A C 0.8504(4) 0.8518(2) 0.8571(2)
H8A H 0.7538 0.7789 0.8786
C6A C 0.7846(4) 0.9584(2) 0.8788(2)
H9A H 0.6448 0.9569 0.9160
C7A C 0.8594(5) 1.1841(2) 0.8707(2)
C8A C 0.9561(4) 0.6014(2) 0.82872(18)
H10A H 0.9080 0.6260 0.9034
H11A H 1.0309 0.5352 0.8419
C9A C 0.7324(4) 0.55502(18) 0.74796(18)
C10A C 0.6722(4) 1.27190(17) 0.5612(2)
H12A H 0.7988 1.3287 0.5991
C11A C 0.6814(4) 1.15236(17) 0.5588(2)
H13A H 0.8117 1.1305 0.5947
C12A C 0.4979(3) 1.06487(15) 0.50325(16)
C13A C 0.3088(4) 1.10514(17) 0.45437(19)
H14A H 0.1790 1.0502 0.4168
C14A C 0.3122(4) 1.22621(17) 0.46121(19)
H15A H 0.1816 1.2504 0.4284
O6 O -0.4899(7) -0.6385(2) -0.0298(2)
H4 H -0.588(7) -0.653(4) -0.094(3)
H5 H -0.431(7) -0.5665(19) -0.043(4)
loop_
_geom_bond_atom_site_label_1
_geom_bond_atom_site_label_2
_geom_bond_site_symmetry_1
_geom_bond_site_symmetry_2
Co1 O1 1_555 1_555
S1 C4 1_555 1_555
O1 C9 1_555 1_555
O2 C9 1_555 1_555
O3 C7 1_555 1_555
O4 H1 1_555 1_555
O5 Co1 1_555 1_555
H2 O5 1_555 1_555
H3 O5 1_555 1_555
O6 H4 1_555 1_555
H5 O6 1_555 1_555
N1 Co1 1_555 1_555
C1 C2 1_555 1_555
C2 H6 1_555 1_555
C3 C2 1_555 1_555
H7 C3 1_555 1_555
C4 C3 1_555 1_555
C5 C4 1_555 1_555
H8 C5 1_555 1_555
C6 C1 1_555 1_555
H9 C6 1_555 1_555
C7 O4 1_555 1_555
C8 S1 1_555 1_555
H10 C8 1_555 1_555
H11 C8 1_555 1_555
C9 C8 1_555 1_555
C10 N1 1_555 1_555
H12 C10 1_555 1_555
C11 C10 1_555 1_555
H13 C11 1_555 1_555
C12 C11 1_555 1_555
C13 C12 1_555 1_555
H14 C13 1_555 1_555
C14 N1 1_555 1_555
H15 C14 1_555 1_555
Co1_2 N1A 1_555 1_555
S1A C4A 1_555 1_555
O1A Co1 1_555 1_555
O2A C9A 1_555 1_555
O3A C7A 1_555 1_555
O4A H1A 1_555 1_555
O5A Co1 1_555 1_555
H2A O5A 1_555 1_555
H3A O5A 1_555 1_555
N1A C10A 1_555 1_555
N1A_2 Co1 1_555 1_555
C1A C2A 1_555 1_555
C2A H6A 1_555 1_555
C3A C2A 1_555 1_555
H7A C3A 1_555 1_555
C4A C3A 1_555 1_555
C5A C4A 1_555 1_555
H8A C5A 1_555 1_555
C6A C1A 1_555 1_555
H9A C6A 1_555 1_555
C7A O4A 1_555 1_555
C8A S1A 1_555 1_555
H10A C8A 1_555 1_555
H11A C8A 1_555 1_555
C9A O1A 1_555 1_555
C10A H12A 1_555 1_555
C11A C10A 1_555 1_555
H13A C11A 1_555 1_555
C12A C12 1_555 1_555
C13A C12A 1_555 1_555
H14A C13A 1_555 1_555
C14A N1A 1_555 1_555
H15A C14A 1_555 1_555
C1 C7 1_555 1_555
C5 C6 1_555 1_555
C13 C14 1_555 1_555
C1A C7A 1_555 1_555
C5A C6A 1_555 1_555
C8A C9A 1_555 1_555
C11A C12A 1_555 1_555
C13A C14A 1_555 1_555

#END
