
#######################################################################
#
#                 Cambridge Crystallographic Data Centre
#                                CCDC 
#
#######################################################################
#
# If this CIF has been generated from an entry in the Cambridge 
# Structural Database, then it will include bibliographic, chemical, 
# crystal, experimental, refinement or atomic coordinate data resulting 
# from the CCDC's data processing and validation procedures.
#
#######################################################################

data_IMUSAK
_symmetry_cell_setting           triclinic
_symmetry_space_group_name_H-M   'P -1'
_symmetry_Int_Tables_number      2
_space_group_name_Hall           '-P 1'
loop_
_symmetry_equiv_pos_site_id
_symmetry_equiv_pos_as_xyz
1 x,y,z
2 -x,-y,-z
_cell_length_a                   14.240(4)
_cell_length_b                   16.089(5)
_cell_length_c                   17.644(5)
_cell_angle_alpha                63.302(6)
_cell_angle_beta                 69.002(6)
_cell_angle_gamma                79.220(6)
_cell_volume                     3369.93
loop_
_atom_site_label
_atom_site_type_symbol
_atom_site_fract_x
_atom_site_fract_y
_atom_site_fract_z
Ag1 Ag 0.4945(8) 0.9923(7) 0.0448(7)
I2 I 0.6626(4) 0.9013(3) 0.0041(3)
Ag1A Ag 0.5055(8) 1.0077(7) -0.0448(7)
I2A I 0.3374(4) 1.0987(3) -0.0041(3)
N6 N 0.1196(13) 0.9040(30) 0.1703(11)
C56 C 0.0206(12) 0.8960(30) 0.2273(13)
C57 C 0.0002(12) 0.8400(40) 0.3189(13)
C58 C 0.0789(16) 0.7940(40) 0.3534(14)
C59 C 0.1780(15) 0.8030(40) 0.2964(16)
C60 C 0.1984(12) 0.8580(40) 0.2049(16)
H46 H -0.0329 0.9275 0.2039
H47 H -0.0671 0.8345 0.3576
H48 H 0.0650 0.7564 0.4156
H49 H 0.2315 0.7711 0.3198
H50 H 0.2658 0.8646 0.1662
N7 N 0.1225(17) 0.9639(19) 0.8737(18)
C61 C 0.0990(13) 0.9183(17) 0.8307(19)
C62 C 0.1678(15) 0.9200(20) 0.7480(20)
C63 C 0.2664(16) 0.9469(19) 0.7230(20)
C64 C 0.2854(17) 1.0080(20) 0.7540(30)
C65 C 0.2130(30) 1.0140(40) 0.8310(30)
H51 H 0.0377 0.8864 0.8568
H52 H 0.1472 0.9041 0.7108
H53 H 0.3202 0.9243 0.6856
H54 H 0.3446 1.0431 0.7236
H55 H 0.2246 1.0524 0.8544
Zn1 Zn 0.0748(5) 0.6867(5) 0.8275(5)
Zn2 Zn 0.4245(11) 1.0065(9) 0.4742(9)
Fe1 Fe 0.0057(6) 0.3844(6) 0.8550(6)
Fe2 Fe 0.4416(7) 0.7012(6) 0.7169(6)
I1 I 0.2485(12) 1.0598(12) 0.5129(10)
P1 P -0.1466(12) 0.4384(11) 0.8533(11)
P2 P 0.4546(13) 0.6355(11) 0.6289(10)
N1 N 0.0560(40) 0.5720(40) 0.8240(30)
N2 N 0.0300(30) 0.6780(30) 0.9500(30)
N3 N 0.4620(40) 0.8960(40) 0.5730(40)
N4 N 0.2170(50) 0.7170(30) 0.7710(30)
C1 C 0.0380(40) 0.5000(40) 0.8330(40)
C2 C 0.0200(40) 0.6640(40) 1.0230(40)
C3 C 0.1470(50) 0.3740(40) 0.7670(40)
C4 C 0.1270(50) 0.2920(40) 0.8450(40)
C5 C 0.0420(50) 0.2480(40) 0.8580(40)
C6 C 0.0170(50) 0.3080(40) 0.7830(40)
C7 C 0.0700(50) 0.3850(40) 0.7280(40)
C8 C -0.2510(30) 0.3570(20) 0.9110(30)
C9 C -0.2330(30) 0.2600(20) 0.9540(30)
C10 C -0.3120(30) 0.1990(30) 0.9940(30)
C11 C -0.4090(30) 0.2330(30) 0.9900(40)
C12 C -0.4280(30) 0.3290(20) 0.9490(40)
C13 C -0.3490(30) 0.3910(30) 0.9100(40)
C14 C -0.1470(30) 0.4930(30) 0.7340(30)
C15 C -0.1860(30) 0.4460(30) 0.7030(20)
C16 C -0.1740(40) 0.4820(30) 0.6120(30)
C17 C -0.1230(40) 0.5630(30) 0.5530(30)
C18 C -0.0850(40) 0.6090(30) 0.5840(30)
C19 C -0.0970(40) 0.5750(30) 0.6740(30)
C20 C -0.1990(20) 0.5278(16) 0.8940(20)
C21 C -0.2500(20) 0.6049(16) 0.8490(20)
C22 C -0.2870(30) 0.6737(18) 0.8800(20)
C23 C -0.2740(30) 0.6650(20) 0.9570(20)
C24 C -0.2210(40) 0.5888(19) 1.0010(20)
C25 C -0.1840(40) 0.5210(20) 0.9700(30)
C26 C 0.4560(50) 0.8230(50) 0.6240(50)
C27 C 0.3060(60) 0.7130(40) 0.7480(40)
C28 C 0.4300(20) 0.6580(30) 0.8510(30)
C29 C 0.4900(30) 0.7328(18) 0.7990(30)
C30 C 0.5700(30) 0.7090(30) 0.7410(30)
C31 C 0.5610(30) 0.6190(30) 0.7590(30)
C32 C 0.4710(30) 0.5890(30) 0.8240(30)
C33 C 0.3460(30) 0.6530(30) 0.5850(30)
C34 C 0.3100(30) 0.5790(30) 0.5850(30)
C35 C 0.2330(30) 0.5940(30) 0.5500(30)
C36 C 0.1900(40) 0.6820(30) 0.5170(40)
C37 C 0.2270(40) 0.7560(30) 0.5140(40)
C38 C 0.3040(40) 0.7410(30) 0.5510(40)
C39 C 0.5560(30) 0.6730(30) 0.5220(20)
C40 C 0.5600(30) 0.6540(30) 0.4500(20)
C41 C 0.6420(30) 0.6830(30) 0.3730(30)
C42 C 0.7190(30) 0.7310(40) 0.3640(30)
C43 C 0.7150(30) 0.7490(40) 0.4360(30)
C44 C 0.6360(30) 0.7170(40) 0.5150(30)
C45 C 0.4720(30) 0.5090(20) 0.6780(30)
C46 C 0.5590(30) 0.4620(20) 0.6470(30)
C47 C 0.5730(30) 0.3660(30) 0.6940(30)
C48 C 0.4970(30) 0.3160(30) 0.7730(30)
C49 C 0.4090(30) 0.3620(30) 0.8040(30)
C50 C 0.3970(30) 0.4590(30) 0.7580(30)
N5 N 0.4295(14) 0.9700(12) 0.3807(10)
C51 C 0.4760(20) 0.8917(14) 0.3655(14)
C52 C 0.4930(20) 0.8899(17) 0.2833(16)
C53 C 0.4500(30) 0.9594(19) 0.2213(14)
C54 C 0.3930(30) 1.0320(20) 0.2411(17)
C55 C 0.3830(30) 1.0380(20) 0.3200(20)
N8 N -0.0110(15) 0.7895(15) 0.7666(17)
C66 C -0.0789(17) 0.8454(16) 0.8048(15)
C67 C -0.1443(19) 0.9079(17) 0.7608(18)
C68 C -0.1430(20) 0.9130(20) 0.6790(20)
C69 C -0.0760(20) 0.8560(30) 0.6410(20)
C70 C -0.0100(40) 0.7940(40) 0.6850(30)
H1 H 0.2046 0.4159 0.7420
H2 H 0.1686 0.2661 0.8866
H3 H 0.0134 0.1873 0.9046
H4 H -0.0434 0.2978 0.7728
H5 H 0.0625 0.4336 0.6697
H6 H -0.1668 0.2371 0.9557
H7 H -0.2996 0.1342 1.0243
H8 H -0.4619 0.1908 1.0157
H9 H -0.4939 0.3524 0.9470
H10 H -0.3621 0.4560 0.8835
H11 H -0.2210 0.3904 0.7428
H12 H -0.2008 0.4501 0.5907
H13 H -0.1147 0.5865 0.4907
H14 H -0.0500 0.6644 0.5435
H15 H -0.0699 0.6078 0.6944
H16 H -0.2607 0.6107 0.7965
H17 H -0.3214 0.7271 0.8475
H18 H -0.3014 0.7113 0.9790
H19 H -0.2102 0.5832 1.0536
H20 H -0.1470 0.4683 1.0009
H21 H 0.3658 0.6552 0.9010
H22 H 0.4788 0.7935 0.8045
H23 H 0.6291 0.7483 0.6973
H24 H 0.6104 0.5812 0.7295
H25 H 0.4439 0.5252 0.8513
H26 H 0.3382 0.5180 0.6091
H27 H 0.2096 0.5432 0.5479
H28 H 0.1345 0.6911 0.4954
H29 H 0.2009 0.8174 0.4881
H30 H 0.3282 0.7919 0.5520
H31 H 0.5076 0.6215 0.4551
H32 H 0.6459 0.6687 0.3248
H33 H 0.7740 0.7522 0.3102
H34 H 0.7670 0.7829 0.4305
H35 H 0.6364 0.7246 0.5652
H36 H 0.6102 0.4956 0.5935
H37 H 0.6321 0.3341 0.6722
H38 H 0.5067 0.2507 0.8051
H39 H 0.3568 0.3284 0.8558
H40 H 0.3386 0.4906 0.7806
H41 H 0.4967 0.8399 0.4113
H42 H 0.5341 0.8416 0.2695
H43 H 0.4591 0.9573 0.1661
H44 H 0.3600 1.0774 0.2006
H45 H 0.3446 1.0875 0.3328
H56 H -0.0804 0.8410 0.8608
H57 H -0.2067 0.9243 0.7968
H58 H -0.1868 0.9572 0.6479
H59 H -0.0756 0.8596 0.5857
H60 H 0.0347 0.7542 0.6603
Zn2A Zn 0.5755(11) 0.9935(9) 0.5258(9)
N3A N 0.5380(40) 1.1040(40) 0.4270(40)
C2A C -0.0200(40) 0.3360(40) 0.9770(40)
Fe1A Fe -0.0057(6) 0.6156(6) 1.1450(6)
C71? C -0.092(10) 0.972(10) 0.6830(90)
C72? C -0.007(10) 0.9520(90) 0.640(10)
C73? C 0.039(11) 0.8620(90) 0.6880(90)
H61? H -0.1204 1.0345 0.6624
H62? H 0.0236 0.9889 0.5773
H63? H 0.1104 0.8535 0.6648
loop_
_geom_bond_atom_site_label_1
_geom_bond_atom_site_label_2
_geom_bond_site_symmetry_1
_geom_bond_site_symmetry_2
Zn1 N1 1_555 1_555
Zn2 I1 1_555 1_555
Fe1 P1 1_555 1_555
Fe2 P2 1_555 1_555
Ag1 I2 1_555 1_555
I2 Ag1A 1_555 1_555
P1 C8 1_555 1_555
P2 C33 1_555 1_555
N1 C1 1_555 1_555
N2 Zn1 1_555 1_555
N3 Zn2 1_555 1_555
N4 Zn1 1_555 1_555
C1 Fe1 1_555 1_555
C2 N2 1_555 1_555
C3 Fe1 1_555 1_555
C4 Fe1 1_555 1_555
C5 Fe1 1_555 1_555
C6 Fe1 1_555 1_555
C7 Fe1 1_555 1_555
C8 C9 1_555 1_555
C9 C10 1_555 1_555
C10 C11 1_555 1_555
C11 C12 1_555 1_555
C12 C13 1_555 1_555
C13 C8 1_555 1_555
C14 P1 1_555 1_555
C15 C14 1_555 1_555
C16 C15 1_555 1_555
C17 C16 1_555 1_555
C18 C17 1_555 1_555
C19 C14 1_555 1_555
C20 P1 1_555 1_555
C21 C20 1_555 1_555
C22 C21 1_555 1_555
C23 C22 1_555 1_555
C24 C23 1_555 1_555
C25 C20 1_555 1_555
C26 Fe2 1_555 1_555
C27 Fe2 1_555 1_555
C28 Fe2 1_555 1_555
C29 Fe2 1_555 1_555
C30 Fe2 1_555 1_555
C31 Fe2 1_555 1_555
C32 Fe2 1_555 1_555
C33 C34 1_555 1_555
C34 C35 1_555 1_555
C35 C36 1_555 1_555
C36 C37 1_555 1_555
C37 C38 1_555 1_555
C38 C33 1_555 1_555
C39 P2 1_555 1_555
C40 C39 1_555 1_555
C41 C40 1_555 1_555
C42 C41 1_555 1_555
C43 C42 1_555 1_555
C44 C39 1_555 1_555
C45 P2 1_555 1_555
C46 C45 1_555 1_555
C47 C46 1_555 1_555
C48 C47 1_555 1_555
C49 C48 1_555 1_555
C50 C45 1_555 1_555
N5 Zn2 1_555 1_555
C51 N5 1_555 1_555
C52 C51 1_555 1_555
C53 C52 1_555 1_555
C54 C53 1_555 1_555
C55 N5 1_555 1_555
N6 C56 1_555 1_555
C56 C57 1_555 1_555
C57 C58 1_555 1_555
C58 C59 1_555 1_555
C59 C60 1_555 1_555
C60 N6 1_555 1_555
N7 C61 1_555 1_555
C61 C62 1_555 1_555
C62 C63 1_555 1_555
C63 C64 1_555 1_555
C64 C65 1_555 1_555
C65 N7 1_555 1_555
N8 Zn1 1_555 1_555
C66 N8 1_555 1_555
C67 C66 1_555 1_555
C68 C67 1_555 1_555
C69 C68 1_555 1_555
C70 N8 1_555 1_555
H1 C3 1_555 1_555
H2 C4 1_555 1_555
H3 C5 1_555 1_555
H4 C6 1_555 1_555
H5 C7 1_555 1_555
H6 C9 1_555 1_555
H7 C10 1_555 1_555
H8 C11 1_555 1_555
H9 C12 1_555 1_555
H10 C13 1_555 1_555
H11 C15 1_555 1_555
H12 C16 1_555 1_555
H13 C17 1_555 1_555
H14 C18 1_555 1_555
H15 C19 1_555 1_555
H16 C21 1_555 1_555
H17 C22 1_555 1_555
H18 C23 1_555 1_555
H19 C24 1_555 1_555
H20 C25 1_555 1_555
H21 C28 1_555 1_555
H22 C29 1_555 1_555
H23 C30 1_555 1_555
H24 C31 1_555 1_555
H25 C32 1_555 1_555
H26 C34 1_555 1_555
H27 C35 1_555 1_555
H28 C36 1_555 1_555
H29 C37 1_555 1_555
H30 C38 1_555 1_555
H31 C40 1_555 1_555
H32 C41 1_555 1_555
H33 C42 1_555 1_555
H34 C43 1_555 1_555
H35 C44 1_555 1_555
H36 C46 1_555 1_555
H37 C47 1_555 1_555
H38 C48 1_555 1_555
H39 C49 1_555 1_555
H40 C50 1_555 1_555
H41 C51 1_555 1_555
H42 C52 1_555 1_555
H43 C53 1_555 1_555
H44 C54 1_555 1_555
H45 C55 1_555 1_555
H46 C56 1_555 1_555
H47 C57 1_555 1_555
H48 C58 1_555 1_555
H49 C59 1_555 1_555
H50 C60 1_555 1_555
H51 C61 1_555 1_555
H52 C62 1_555 1_555
H53 C63 1_555 1_555
H54 C64 1_555 1_555
H55 C65 1_555 1_555
H56 C66 1_555 1_555
H57 C67 1_555 1_555
H58 C68 1_555 1_555
H59 C69 1_555 1_555
H60 C70 1_555 1_555
Zn2A Zn2 1_555 1_555
N3A Zn2 1_555 1_555
C2A Fe1 1_555 1_555
Ag1A Ag1 1_555 1_555
I2A Ag1 1_555 1_555
Fe1A C2 1_555 1_555
N3 Zn2A 1_555 1_555
N3 C26 1_555 1_555
N4 C27 1_555 1_555
C3 C4 1_555 1_555
C3 C7 1_555 1_555
C4 C5 1_555 1_555
C5 C6 1_555 1_555
C6 C7 1_555 1_555
C18 C19 1_555 1_555
C24 C25 1_555 1_555
C28 C29 1_555 1_555
C28 C32 1_555 1_555
C29 C30 1_555 1_555
C30 C31 1_555 1_555
C31 C32 1_555 1_555
C43 C44 1_555 1_555
C49 C50 1_555 1_555
C54 C55 1_555 1_555
C69 C70 1_555 1_555
Zn2A N3A 1_555 1_555
Ag1A I2A 1_555 1_555

#END
