
#######################################################################
#
#                 Cambridge Crystallographic Data Centre
#                                CCDC 
#
#######################################################################
#
# If this CIF has been generated from an entry in the Cambridge 
# Structural Database, then it will include bibliographic, chemical, 
# crystal, experimental, refinement or atomic coordinate data resulting 
# from the CCDC's data processing and validation procedures.
#
#######################################################################

data_IMUXIX
_symmetry_cell_setting           monoclinic
_symmetry_space_group_name_H-M   'C c'
_symmetry_Int_Tables_number      9
_space_group_name_Hall           'C -2yc'
loop_
_symmetry_equiv_pos_site_id
_symmetry_equiv_pos_as_xyz
1 x,y,z
2 x,-y,1/2+z
3 1/2+x,1/2+y,z
4 1/2+x,1/2-y,1/2+z
_cell_length_a                   15.948(6)
_cell_length_b                   11.544(5)
_cell_length_c                   13.420(5)
_cell_angle_alpha                90
_cell_angle_beta                 121.083(5)
_cell_angle_gamma                90
_cell_volume                     2115.93
loop_
_atom_site_label
_atom_site_type_symbol
_atom_site_fract_x
_atom_site_fract_y
_atom_site_fract_z
Ag1 Ag 0.348977(16) 0.556294(16) 0.359937(17)
C1 C 0.3392(2) 0.4254(3) 0.5912(3)
H1 H 0.3295 0.3862 0.6510
C2 C 0.4015(3) 0.5347(3) 0.6492(3)
H2 H 0.4212 0.5663 0.5949
N1 N 0.2311(2) 0.5307(3) 0.4092(3)
C3 C 0.2388(3) 0.4553(3) 0.4904(3)
C4 C 0.1558(2) 0.4044(3) 0.4813(3)
H3 H 0.1622 0.3500 0.5380
C5 C 0.0658(3) 0.4332(3) 0.3912(4)
H4 H 0.0090 0.3980 0.3836
C6 C 0.0572(3) 0.5138(4) 0.3105(4)
H5 H -0.0053 0.5370 0.2483
C7 C 0.1421(3) 0.5602(3) 0.3227(4)
H6 H 0.1367 0.6152 0.2670
N2 N 0.4393(2) 0.3844(3) 0.5062(3)
C8 C 0.3930(2) 0.3404(3) 0.5575(3)
C9 C 0.3919(3) 0.2232(3) 0.5774(3)
H7 H 0.3589 0.1943 0.6144
C10 C 0.4398(3) 0.1486(3) 0.5422(3)
H8 H 0.4386 0.0674 0.5530
C11 C 0.4891(3) 0.1930(3) 0.4917(3)
H9 H 0.5233 0.1437 0.4679
C12 C 0.4875(3) 0.3111(3) 0.4766(3)
H10 H 0.5227 0.3422 0.4433
N3 N 0.4857(3) 0.4376(2) 0.8385(3)
C13 C 0.4944(2) 0.5011(3) 0.7601(3)
C14 C 0.5868(3) 0.5321(3) 0.7808(3)
H11 H 0.5927 0.5749 0.7243
C15 C 0.6688(3) 0.5003(4) 0.8831(4)
H12 H 0.7319 0.5221 0.8984
C16 C 0.6596(3) 0.4362(3) 0.9640(3)
H13 H 0.7155 0.4137 1.0356
C17 C 0.5666(3) 0.4062(4) 0.9373(3)
H14 H 0.5596 0.3610 0.9917
N4 N 0.2930(2) 0.6013(3) 0.7150(3)
C18 C 0.3463(2) 0.6301(3) 0.6692(3)
C19 C 0.3542(2) 0.7445(3) 0.6410(3)
H15 H 0.3930 0.7631 0.6083
C20 C 0.3046(3) 0.8297(3) 0.6617(3)
H16 H 0.3097 0.9082 0.6443
C21 C 0.2479(3) 0.8011(3) 0.7074(3)
H17 H 0.2122 0.8586 0.7208
C22 C 0.2440(3) 0.6869(3) 0.7333(4)
H18 H 0.2052 0.6668 0.7656
N3A N 0.4857(3) 0.5624(2) 0.3385(3)
N4A N 0.2930(2) 0.3987(3) 0.2150(3)
Ag1A Ag 0.348977(16) 0.443706(16) 0.859937(17)
N5 N 0.3143(3) 0.8204(3) 0.3026(4)
O1 O 0.3766(3) 0.7838(3) 0.4001(3)
O2 O 0.2505(2) 0.7525(2) 0.2313(2)
O3 O 0.31663(19) 0.92144(19) 0.2738(2)
loop_
_geom_bond_atom_site_label_1
_geom_bond_atom_site_label_2
_geom_bond_site_symmetry_1
_geom_bond_site_symmetry_2
Ag1 N1 1_555 1_555
C1 H1 1_555 1_555
C2 C1 1_555 1_555
H2 C2 1_555 1_555
N1 C3 1_555 1_555
C3 C1 1_555 1_555
C4 C3 1_555 1_555
H3 C4 1_555 1_555
C5 C4 1_555 1_555
H4 C5 1_555 1_555
C6 C5 1_555 1_555
H5 C6 1_555 1_555
C7 N1 1_555 1_555
H6 C7 1_555 1_555
N2 Ag1 1_555 1_555
C8 C1 1_555 1_555
C9 C8 1_555 1_555
H7 C9 1_555 1_555
C10 C9 1_555 1_555
H8 C10 1_555 1_555
C11 C10 1_555 1_555
H9 C11 1_555 1_555
C12 N2 1_555 1_555
H10 C12 1_555 1_555
N3 C13 1_555 1_555
C13 C2 1_555 1_555
C14 C13 1_555 1_555
H11 C14 1_555 1_555
C15 C14 1_555 1_555
H12 C15 1_555 1_555
C16 C15 1_555 1_555
H13 C16 1_555 1_555
C17 N3 1_555 1_555
H14 C17 1_555 1_555
N4 C18 1_555 1_555
C18 C2 1_555 1_555
C19 C18 1_555 1_555
H15 C19 1_555 1_555
C20 C19 1_555 1_555
H16 C20 1_555 1_555
C21 C20 1_555 1_555
H17 C21 1_555 1_555
C22 N4 1_555 1_555
H18 C22 1_555 1_555
N5 O1 1_555 1_555
O2 N5 1_555 1_555
O3 N5 1_555 1_555
N3A Ag1 1_555 1_555
N4A Ag1 1_555 1_555
Ag1A N3 1_555 1_555
C6 C7 1_555 1_555
N2 C8 1_555 1_555
C11 C12 1_555 1_555
C16 C17 1_555 1_555
N4 Ag1A 1_555 1_555
C21 C22 1_555 1_555

#END
