
#######################################################################
#
#                 Cambridge Crystallographic Data Centre
#                                CCDC 
#
#######################################################################
#
# If this CIF has been generated from an entry in the Cambridge 
# Structural Database, then it will include bibliographic, chemical, 
# crystal, experimental, refinement or atomic coordinate data resulting 
# from the CCDC's data processing and validation procedures.
#
#######################################################################

data_IMZCUC
_symmetry_cell_setting           orthorhombic
_symmetry_space_group_name_H-M   'P 21 m n'
_symmetry_Int_Tables_number      31
_space_group_name_Hall           'P -2ab 2ab'
loop_
_symmetry_equiv_pos_site_id
_symmetry_equiv_pos_as_xyz
1 x,y,z
2 x,-y,z
3 1/2+x,1/2+y,-z
4 1/2+x,1/2-y,-z
_cell_length_a                   7.2427(8)
_cell_length_b                   13.7256(10)
_cell_length_c                   6.096(6)
_cell_angle_alpha                90
_cell_angle_beta                 90
_cell_angle_gamma                90
_cell_volume                     606.006
loop_
_atom_site_label
_atom_site_type_symbol
_atom_site_fract_x
_atom_site_fract_y
_atom_site_fract_z
Cl1 Cl 0.35310 0.00000 0.18820
Cu1 Cu 0.00000 0.00000 0.17430
C1 C 0.05000 0.00000 0.67610
C2 C -0.23450 0.00000 0.78500
C3 C -0.23140 0.00000 0.56110
C4 C -0.09220 0.20590 0.01390
C5 C -0.04270 0.30390 0.29880
C6 C 0.00130 0.20900 0.35610
N1 N -0.05220 0.00000 0.49420
N2 N -0.05100 0.00000 0.85810
N3 N -0.03500 0.14880 0.17560
N4 N -0.10050 0.30070 0.08600
N3A N -0.03500 -0.14880 0.17560
N2_2 N -0.05100 0.00000 -0.14190
C4A C -0.09220 -0.20590 0.01390
C6A C 0.00130 -0.20900 0.35610
N4A N -0.10050 -0.30070 0.08600
C5A C -0.04270 -0.30390 0.29880
Cu1_2 Cu 0.00000 0.00000 1.17430
loop_
_geom_bond_atom_site_label_1
_geom_bond_atom_site_label_2
_geom_bond_site_symmetry_1
_geom_bond_site_symmetry_2
Cl1 Cu1 1_555 1_555
Cu1 N1 1_555 1_555
C1 N1 1_555 1_555
C2 C3 1_555 1_555
C3 N1 1_555 1_555
C4 N3 1_555 1_555
C5 C6 1_555 1_555
C6 N3 1_555 1_555
N2 C1 1_555 1_555
N3 Cu1 1_555 1_555
N4 C4 1_555 1_555
N3A Cu1 1_555 1_555
N2_2 Cu1 1_555 1_555
C4A N3A 1_555 1_555
C6A N3A 1_555 1_555
N4A C4A 1_555 1_555
C5A C6A 1_555 1_555
Cu1_2 N2 1_555 1_555
C2 N2 1_555 1_555
C5 N4 1_555 1_555
N4A C5A 1_555 1_555

#END
