
#######################################################################
#
#                 Cambridge Crystallographic Data Centre
#                                CCDC 
#
#######################################################################
#
# If this CIF has been generated from an entry in the Cambridge 
# Structural Database, then it will include bibliographic, chemical, 
# crystal, experimental, refinement or atomic coordinate data resulting 
# from the CCDC's data processing and validation procedures.
#
#######################################################################

data_IMZCUC01
_symmetry_cell_setting           orthorhombic
_symmetry_space_group_name_H-M   'P m n 21'
_symmetry_Int_Tables_number      31
_space_group_name_Hall           'P 2ac -2'
loop_
_symmetry_equiv_pos_site_id
_symmetry_equiv_pos_as_xyz
1 x,y,z
2 1/2-x,-y,1/2+z
3 1/2+x,-y,1/2+z
4 -x,y,z
_cell_length_a                   13.733(3)
_cell_length_b                   6.1020(12)
_cell_length_c                   7.2520(15)
_cell_angle_alpha                90
_cell_angle_beta                 90
_cell_angle_gamma                90
_cell_volume                     607.709
loop_
_atom_site_label
_atom_site_type_symbol
_atom_site_fract_x
_atom_site_fract_y
_atom_site_fract_z
Cu1 Cu 0.5000 0.32550(17) 0.91563(16)
Cl1 Cl 0.5000 0.3130(4) 1.2692(4)
N1 N 0.3508(4) 0.3216(8) 0.8808(10)
N2 N 0.1997(5) 0.4125(13) 0.8205(11)
H1 H 0.1501 0.4899 0.7891
C1 C 0.2906(5) 0.1446(11) 0.912(2)
H2 H 0.3106 0.0077 0.9535
C2 C 0.1983(6) 0.2012(12) 0.8721(14)
H3 H 0.1438 0.1111 0.8791
C3 C 0.2931(6) 0.4817(13) 0.8268(12)
H4 H 0.3138 0.6225 0.7972
N3 N 0.5000 0.0099(11) 0.8719(10)
N4 N 0.5000 -0.3558(13) 0.8621(12)
C4 C 0.5000 -0.0633(18) 0.6927(18)
H5 H 0.5000 0.0275 0.5897
C5 C 0.5000 -0.2847(17) 0.6859(16)
H6 H 0.5000 -0.3713 0.5804
C6 C 0.5000 -0.1750(13) 0.9671(13)
H7 H 0.5000 -0.1793 1.0953
Cu1_2 Cu 0.5000 -0.67450(17) 0.91563(16)
N1C N 0.6492(4) 0.3216(8) 0.8808(10)
N2C N 0.8003(5) 0.4125(13) 0.8205(11)
H1C H 0.8499 0.4899 0.7891
C1C C 0.7094(5) 0.1446(11) 0.912(2)
H2C H 0.6894 0.0077 0.9535
C2C C 0.8017(6) 0.2012(12) 0.8721(14)
H3C H 0.8562 0.1111 0.8791
C3C C 0.7069(6) 0.4817(13) 0.8268(12)
H4C H 0.6862 0.6225 0.7972
N4_2 N 0.5000 0.6442(13) 0.8621(12)
loop_
_geom_bond_atom_site_label_1
_geom_bond_atom_site_label_2
_geom_bond_site_symmetry_1
_geom_bond_site_symmetry_2
Cu1 Cl1 1_555 1_555
N1 Cu1 1_555 1_555
N2 H1 1_555 1_555
C1 N1 1_555 1_555
H2 C1 1_555 1_555
C2 N2 1_555 1_555
H3 C2 1_555 1_555
C3 N1 1_555 1_555
H4 C3 1_555 1_555
N3 Cu1 1_555 1_555
N4 C5 1_555 1_555
C4 N3 1_555 1_555
H5 C4 1_555 1_555
C5 C4 1_555 1_555
H6 C5 1_555 1_555
C6 N3 1_555 1_555
H7 C6 1_555 1_555
Cu1_2 N4 1_555 1_555
N1C Cu1 1_555 1_555
N2C H1C 1_555 1_555
C1C N1C 1_555 1_555
H2C C1C 1_555 1_555
C2C N2C 1_555 1_555
H3C C2C 1_555 1_555
C3C N1C 1_555 1_555
H4C C3C 1_555 1_555
N4_2 Cu1 1_555 1_555
N2 C3 1_555 1_555
C1 C2 1_555 1_555
N4 C6 1_555 1_555
N2C C3C 1_555 1_555
C1C C2C 1_555 1_555

#END
