
#######################################################################
#
#                 Cambridge Crystallographic Data Centre
#                                CCDC 
#
#######################################################################
#
# If this CIF has been generated from an entry in the Cambridge 
# Structural Database, then it will include bibliographic, chemical, 
# crystal, experimental, refinement or atomic coordinate data resulting 
# from the CCDC's data processing and validation procedures.
#
#######################################################################

data_IMZYCO01
_symmetry_cell_setting           tetragonal
_symmetry_space_group_name_H-M   'I 41 c d'
_symmetry_Int_Tables_number      110
_space_group_name_Hall           'I 4bw -2c'
loop_
_symmetry_equiv_pos_site_id
_symmetry_equiv_pos_as_xyz
1 x,y,z
2 1/2-x,1/2-y,1/2+z
3 -y,1/2+x,1/4+z
4 1/2+y,-x,3/4+z
5 x,-y,1/2+z
6 1/2-x,1/2+y,z
7 -y,1/2-x,3/4+z
8 1/2+y,x,1/4+z
9 1/2+x,1/2+y,1/2+z
10 -x,-y,z
11 1/2-y,x,3/4+z
12 y,1/2-x,1/4+z
13 1/2+x,1/2-y,z
14 -x,y,1/2+z
15 1/2-y,-x,1/4+z
16 y,1/2+x,3/4+z
_cell_length_a                   23.450(3)
_cell_length_b                   23.450(3)
_cell_length_c                   12.460(3)
_cell_angle_alpha                90
_cell_angle_beta                 90
_cell_angle_gamma                90
_cell_volume                     6851.79
loop_
_atom_site_label
_atom_site_type_symbol
_atom_site_fract_x
_atom_site_fract_y
_atom_site_fract_z
Co1 Co 0.35071(5) 0.39916(6) -0.17703(7)
Co2 Co 0.59724(5) 0.35165(6) -0.13197(9)
N1 N 0.5143(3) 0.3485(3) -0.1017(9)
N2 N 0.4220(3) 0.3716(4) -0.1133(9)
N3 N 0.3621(4) 0.3472(4) -0.4969(9)
N4 N 0.3407(4) 0.3636(5) -0.3265(9)
N5 N 0.2821(3) 0.3751(4) -0.0959(7)
N6 N 0.3828(4) 0.5731(4) -0.2026(9)
N7 N 0.3590(4) 0.4811(4) -0.2114(9)
C1 C 0.4743(4) 0.3795(4) -0.1510(11)
H1 H 0.4824 0.4044 -0.2069
C2 C 0.4850(5) 0.3197(4) -0.0253(10)
H2 H 0.5008 0.2941 0.0236
C3 C 0.4305(6) 0.3336(4) -0.0311(11)
H3 H 0.4021 0.3197 0.0139
C4 C 0.3810(4) 0.3581(4) -0.3999(9)
H4 H 0.4196 0.3617 -0.3841
C5 C 0.3045(5) 0.3455(6) -0.4825(10)
H5 H 0.2778 0.3384 -0.5360
C6 C 0.2924(5) 0.3559(5) -0.3785(10)
H6 H 0.2561 0.3573 -0.3485
C7 C 0.2516(5) 0.4060(3) -0.0261(15)
H7 H 0.2606 0.4432 -0.0064
C8 C 0.2550(4) 0.3250(4) -0.1046(8)
H8 H 0.2660 0.2949 -0.1487
C9 C 0.2101(4) 0.3254(4) -0.0401(8)
H9 H 0.1847 0.2953 -0.0314
C10 C 0.3773(4) 0.5242(5) -0.1519(12)
H10 H 0.3856 0.5202 -0.0793
C11 C 0.3491(6) 0.5069(5) -0.3072(11)
H11 H 0.3345 0.4890 -0.3679
C12 C 0.3636(6) 0.5627(7) -0.3006(12)
H12 H 0.3606 0.5892 -0.3558
N8 N 0.2066(3) 0.3770(3) 0.0122(7)
N3M N 0.6379(4) 0.3472(4) 0.0031(9)
N6I N 0.6172(4) 0.4269(4) -0.2026(9)
N8F N 0.6230(3) 0.2934(3) -0.2378(7)
Co2M Co 0.40276(5) 0.35165(6) -0.63197(9)
Co2I Co 0.40276(5) 0.64835(6) -0.13197(9)
Co2N Co 0.14835(6) 0.40276(5) 0.11803(9)
loop_
_geom_bond_atom_site_label_1
_geom_bond_atom_site_label_2
_geom_bond_site_symmetry_1
_geom_bond_site_symmetry_2
Co1 N2 1_555 1_555
Co2 N1 1_555 1_555
N1 C1 1_555 1_555
N2 C1 1_555 1_555
N3 C4 1_555 1_555
N4 Co1 1_555 1_555
N5 Co1 1_555 1_555
N6 C10 1_555 1_555
N7 Co1 1_555 1_555
C1 H1 1_555 1_555
C2 N1 1_555 1_555
H2 C2 1_555 1_555
C3 N2 1_555 1_555
H3 C3 1_555 1_555
C4 N4 1_555 1_555
H4 C4 1_555 1_555
C5 N3 1_555 1_555
H5 C5 1_555 1_555
C6 N4 1_555 1_555
H6 C6 1_555 1_555
C7 N5 1_555 1_555
H7 C7 1_555 1_555
C8 N5 1_555 1_555
H8 C8 1_555 1_555
C9 C8 1_555 1_555
H9 C9 1_555 1_555
C10 N7 1_555 1_555
H10 C10 1_555 1_555
C11 N7 1_555 1_555
H11 C11 1_555 1_555
C12 N6 1_555 1_555
H12 C12 1_555 1_555
N8 C7 1_555 1_555
N3M Co2 1_555 1_555
N6I Co2 1_555 1_555
N8F Co2 1_555 1_555
Co2M N3 1_555 1_555
Co2I N6 1_555 1_555
Co2N N8 1_555 1_555
C2 C3 1_555 1_555
C5 C6 1_555 1_555
C9 N8 1_555 1_555
C11 C12 1_555 1_555

#END
