
#######################################################################
#
#                 Cambridge Crystallographic Data Centre
#                                CCDC 
#
#######################################################################
#
# If this CIF has been generated from an entry in the Cambridge 
# Structural Database, then it will include bibliographic, chemical, 
# crystal, experimental, refinement or atomic coordinate data resulting 
# from the CCDC's data processing and validation procedures.
#
#######################################################################

data_IMZZNN
_symmetry_cell_setting           monoclinic
_symmetry_space_group_name_H-M   'P 21/c'
_symmetry_Int_Tables_number      14
_space_group_name_Hall           '-P 2ybc'
loop_
_symmetry_equiv_pos_site_id
_symmetry_equiv_pos_as_xyz
1 x,y,z
2 -x,1/2+y,1/2-z
3 -x,-y,-z
4 x,1/2-y,1/2+z
_cell_length_a                   12.184(3)
_cell_length_b                   10.040(2)
_cell_length_c                   11.354(2)
_cell_angle_alpha                90
_cell_angle_beta                 91.0(2)
_cell_angle_gamma                90
_cell_volume                     1388.69
loop_
_atom_site_label
_atom_site_type_symbol
_atom_site_fract_x
_atom_site_fract_y
_atom_site_fract_z
Zn1 Zn 0.13733 -0.53258 0.27148
N1 N 0.02180 -0.40130 0.22750
C1 C -0.05760 -0.42030 0.14580
C2 C -0.11570 -0.30600 0.13360
N2 N -0.07510 -0.21490 0.21050
C3 C 0.00730 -0.27820 0.26440
N3 N 0.24710 -0.52900 0.14270
C4 C 0.30690 -0.62930 0.10650
N4 N 0.36420 -0.59590 0.01330
C5 C 0.34080 -0.46780 -0.01340
C6 C 0.26700 -0.42460 0.06780
N5 N 0.21130 -0.49010 0.42460
C7 C 0.31310 -0.44860 0.43960
N6 N 0.33870 -0.43740 0.55370
C8 C 0.25020 -0.47310 0.61580
C9 C 0.17120 -0.50690 0.53670
H1 H -0.06700 -0.51600 0.09900
H2 H -0.17700 -0.26500 0.07700
H3 H 0.05400 -0.23700 0.32800
H4 H 0.30100 -0.72300 0.14800
H5 H 0.41600 -0.65700 -0.02800
H6 H 0.37200 -0.42600 -0.05900
H7 H 0.23700 -0.32700 0.08200
H8 H 0.36100 -0.43000 0.38500
H9 H 0.41000 -0.40600 0.58600
H10 H 0.24300 -0.46200 0.70400
H11 H 0.10700 -0.52200 0.53300
N2A N 0.07510 -0.71490 0.28950
Zn1A Zn -0.13733 -0.03258 0.22852
N7 N 0.50610 -0.77130 0.28680
O1 O 0.47590 -0.71460 0.38060
O2 O 0.58030 -0.72260 0.23110
O3 O 0.46130 -0.87420 0.25660
loop_
_geom_bond_atom_site_label_1
_geom_bond_atom_site_label_2
_geom_bond_site_symmetry_1
_geom_bond_site_symmetry_2
Zn1 N1 1_555 1_555
N1 C1 1_555 1_555
C1 C2 1_555 1_555
C2 N2 1_555 1_555
N2 C3 1_555 1_555
C3 N1 1_555 1_555
N3 Zn1 1_555 1_555
C4 N3 1_555 1_555
N4 C4 1_555 1_555
C5 N4 1_555 1_555
C6 N3 1_555 1_555
N5 Zn1 1_555 1_555
C7 N5 1_555 1_555
N6 C7 1_555 1_555
C8 N6 1_555 1_555
C9 N5 1_555 1_555
H1 C1 1_555 1_555
H2 C2 1_555 1_555
H3 C3 1_555 1_555
H4 C4 1_555 1_555
H5 N4 1_555 1_555
H6 C5 1_555 1_555
H7 C6 1_555 1_555
H8 C7 1_555 1_555
H9 N6 1_555 1_555
H10 C8 1_555 1_555
H11 C9 1_555 1_555
N7 O1 1_555 1_555
O2 N7 1_555 1_555
O3 N7 1_555 1_555
N2A Zn1 1_555 1_555
Zn1A N2 1_555 1_555
C5 C6 1_555 1_555
C8 C9 1_555 1_555

#END
