
#######################################################################
#
#                 Cambridge Crystallographic Data Centre
#                                CCDC 
#
#######################################################################
#
# If this CIF has been generated from an entry in the Cambridge 
# Structural Database, then it will include bibliographic, chemical, 
# crystal, experimental, refinement or atomic coordinate data resulting 
# from the CCDC's data processing and validation procedures.
#
#######################################################################

data_INABOP
_symmetry_cell_setting           triclinic
_symmetry_space_group_name_H-M   'P -1'
_symmetry_Int_Tables_number      2
_space_group_name_Hall           '-P 1'
loop_
_symmetry_equiv_pos_site_id
_symmetry_equiv_pos_as_xyz
1 x,y,z
2 -x,-y,-z
_cell_length_a                   8.7523(15)
_cell_length_b                   9.9715(17)
_cell_length_c                   17.610(3)
_cell_angle_alpha                92.857(2)
_cell_angle_beta                 104.123(2)
_cell_angle_gamma                107.665(2)
_cell_volume                     1407.33
loop_
_atom_site_label
_atom_site_type_symbol
_atom_site_fract_x
_atom_site_fract_y
_atom_site_fract_z
Cu1 Cu 1.07021(7) 0.58700(6) 0.33522(3)
Cu2 Cu 0.80907(6) 0.42901(6) 0.16113(3)
O1 O 0.8477(4) 0.5135(3) 0.26716(16)
O4 O 1.1382(4) 0.7571(3) 0.28681(18)
O5 O 0.9703(4) 0.8534(3) 0.3292(2)
N1 N 1.2816(5) 0.6585(4) 0.4259(2)
N2 N 1.0296(5) 0.4254(4) 0.3999(2)
N3 N 0.7463(5) 0.5897(4) 0.1083(2)
N4 N 0.7975(5) 0.3701(4) 0.0481(2)
C1 C 1.4075(6) 0.7799(6) 0.4334(3)
H1 H 1.4028 0.8360 0.3928
C2 C 1.5425(7) 0.8246(6) 0.4983(3)
H2 H 1.6272 0.9099 0.5020
C3 C 1.5507(7) 0.7407(7) 0.5583(3)
H3 H 1.6413 0.7687 0.6030
C4 C 1.4232(7) 0.6149(6) 0.5513(3)
H4 H 1.4265 0.5570 0.5911
C5 C 1.2893(6) 0.5759(5) 0.4837(3)
C6 C 1.1489(6) 0.4414(5) 0.4688(3)
C7 C 1.1354(7) 0.3375(6) 0.5187(3)
H5 H 1.2159 0.3509 0.5665
C8 C 1.0007(7) 0.2141(6) 0.4964(3)
H6 H 0.9903 0.1430 0.5288
C9 C 0.8812(7) 0.1967(6) 0.4254(3)
H7 H 0.7907 0.1134 0.4092
C10 C 0.8990(6) 0.3056(5) 0.3790(3)
H8 H 0.8178 0.2951 0.3318
C11 C 0.8238(7) 0.2515(6) 0.0230(3)
H9 H 0.8434 0.1888 0.0585
C12 C 0.8222(8) 0.2207(7) -0.0552(4)
H10 H 0.8424 0.1392 -0.0716
C13 C 0.7903(8) 0.3130(7) -0.1079(3)
H11 H 0.7906 0.2953 -0.1602
C14 C 0.7578(7) 0.4319(6) -0.0822(3)
H12 H 0.7343 0.4943 -0.1172
C15 C 0.7607(6) 0.4574(5) -0.0038(3)
C16 C 0.7293(6) 0.5802(5) 0.0301(3)
C17 C 0.6828(7) 0.6817(6) -0.0128(3)
H13 H 0.6692 0.6733 -0.0671
C18 C 0.6568(8) 0.7936(7) 0.0238(3)
H14 H 0.6251 0.8610 -0.0049
C19 C 0.6785(7) 0.8042(6) 0.1044(3)
H15 H 0.6647 0.8804 0.1314
C20 C 0.7212(7) 0.6996(6) 0.1442(3)
H16 H 0.7332 0.7056 0.1983
C21 C 1.1619(5) 0.9932(5) 0.2660(2)
C22 C 1.0915(5) 1.1011(5) 0.2597(2)
H17 H 0.9883 1.0869 0.2694
C23 C 1.1751(5) 1.2306(4) 0.2388(2)
C24 C 1.3270(5) 1.2493(5) 0.2223(2)
H18 H 1.3858 1.3374 0.2112
C25 C 1.3923(5) 1.1393(4) 0.2220(2)
C26 C 1.3102(5) 1.0119(4) 0.2457(2)
H19 H 1.3554 0.9385 0.2479
C27 C 1.0803(5) 0.8584(5) 0.2964(2)
C28 C 1.1009(6) 1.3484(5) 0.2322(3)
O6 O 1.1910(4) 1.4725(3) 0.2602(2)
O7 O 0.9489(4) 1.3097(3) 0.19691(19)
C29 C 1.5467(5) 1.1586(5) 0.1937(3)
O8 O 1.5842(4) 1.2624(3) 0.15727(19)
O9 O 1.6206(5) 1.0696(4) 0.2070(2)
Cu1_2 Cu 1.07021(7) 1.58700(6) 0.33522(3)
Cu2_2 Cu 0.80907(6) 1.42901(6) 0.16113(3)
Cu2_3 Cu 1.80907(6) 1.42901(6) 0.16113(3)
O6_2 O 1.1910(4) 0.4725(3) 0.2602(2)
O7_2 O 0.9489(4) 0.3097(3) 0.19691(19)
O8_2 O 0.5842(4) 0.2624(3) 0.15727(19)
O2 O 1.5457(4) 0.5940(4) 0.3016(2)
O3 O 0.6622(4) 0.8886(4) 0.3135(2)
loop_
_geom_bond_atom_site_label_1
_geom_bond_atom_site_label_2
_geom_bond_site_symmetry_1
_geom_bond_site_symmetry_2
Cu1 O1 1_555 1_555
Cu2 O1 1_555 1_555
O4 Cu1 1_555 1_555
O5 C27 1_555 1_555
N1 Cu1 1_555 1_555
N2 Cu1 1_555 1_555
N3 Cu2 1_555 1_555
N4 Cu2 1_555 1_555
C1 N1 1_555 1_555
H1 C1 1_555 1_555
C2 C1 1_555 1_555
H2 C2 1_555 1_555
C3 C2 1_555 1_555
H3 C3 1_555 1_555
C4 C3 1_555 1_555
H4 C4 1_555 1_555
C5 N1 1_555 1_555
C6 N2 1_555 1_555
C7 C6 1_555 1_555
H5 C7 1_555 1_555
C8 C7 1_555 1_555
H6 C8 1_555 1_555
C9 C8 1_555 1_555
H7 C9 1_555 1_555
C10 N2 1_555 1_555
H8 C10 1_555 1_555
C11 N4 1_555 1_555
H9 C11 1_555 1_555
C12 C11 1_555 1_555
H10 C12 1_555 1_555
C13 C12 1_555 1_555
H11 C13 1_555 1_555
C14 C13 1_555 1_555
H12 C14 1_555 1_555
C15 N4 1_555 1_555
C16 N3 1_555 1_555
C17 C16 1_555 1_555
H13 C17 1_555 1_555
C18 C17 1_555 1_555
H14 C18 1_555 1_555
C19 C18 1_555 1_555
H15 C19 1_555 1_555
C20 N3 1_555 1_555
H16 C20 1_555 1_555
C21 C22 1_555 1_555
C22 H17 1_555 1_555
C23 C22 1_555 1_555
C24 C23 1_555 1_555
H18 C24 1_555 1_555
C25 C24 1_555 1_555
C26 C21 1_555 1_555
H19 C26 1_555 1_555
C27 O4 1_555 1_555
C28 C23 1_555 1_555
O6 C28 1_555 1_555
O7 C28 1_555 1_555
C29 C25 1_555 1_555
O8 C29 1_555 1_555
O9 C29 1_555 1_555
Cu1_2 O6 1_555 1_555
Cu2_2 O7 1_555 1_555
Cu2_3 O8 1_555 1_555
O6_2 Cu1 1_555 1_555
O7_2 Cu2 1_555 1_555
O8_2 Cu2 1_555 1_555
C4 C5 1_555 1_555
C5 C6 1_555 1_555
C9 C10 1_555 1_555
C14 C15 1_555 1_555
C15 C16 1_555 1_555
C19 C20 1_555 1_555
C21 C27 1_555 1_555
C25 C26 1_555 1_555

#END
