
#######################################################################
#
#                 Cambridge Crystallographic Data Centre
#                                CCDC 
#
#######################################################################
#
# If this CIF has been generated from an entry in the Cambridge 
# Structural Database, then it will include bibliographic, chemical, 
# crystal, experimental, refinement or atomic coordinate data resulting 
# from the CCDC's data processing and validation procedures.
#
#######################################################################

data_INABIJ
_symmetry_cell_setting           triclinic
_symmetry_space_group_name_H-M   'P -1'
_symmetry_Int_Tables_number      2
_space_group_name_Hall           '-P 1'
loop_
_symmetry_equiv_pos_site_id
_symmetry_equiv_pos_as_xyz
1 x,y,z
2 -x,-y,-z
_cell_length_a                   9.222(6)
_cell_length_b                   10.094(7)
_cell_length_c                   10.107(7)
_cell_angle_alpha                77.489(9)
_cell_angle_beta                 72.452(9)
_cell_angle_gamma                79.864(8)
_cell_volume                     869.534
loop_
_atom_site_label
_atom_site_type_symbol
_atom_site_fract_x
_atom_site_fract_y
_atom_site_fract_z
O1 O 0.5604(6) 0.3426(5) 0.0929(5)
O2 O 0.6851(6) 0.2028(4) 0.2314(6)
O3 O 0.5796(6) 0.8424(5) 0.0188(5)
O4 O 0.6302(5) 0.9294(4) 0.1809(5)
N1 N 0.7571(6) 0.1326(5) -0.0839(5)
N2 N 1.3677(6) 0.1249(5) -0.7168(5)
Co1 Co 0.56591(10) 0.12868(8) 0.10221(9)
C1 C 1.1198(7) 0.1290(6) -0.4715(6)
C2 C 1.2424(9) 0.0291(7) -0.4797(7)
H1 H 1.2449 -0.0403 -0.4028
C3 C 1.3632(9) 0.0306(7) -0.6020(7)
H2 H 1.4450 -0.0380 -0.6032
C4 C 1.2463(10) 0.2213(8) -0.7100(8)
H3 H 1.2457 0.2885 -0.7891
C5 C 1.1219(9) 0.2267(9) -0.5922(8)
H4 H 1.0404 0.2953 -0.5938
C6 C 0.9942(7) 0.1305(6) -0.3377(7)
C7 C 0.9860(9) 0.0242(7) -0.2267(8)
H5 H 1.0596 -0.0517 -0.2340
C8 C 0.8808(9) 0.2389(8) -0.3186(8)
H6 H 0.8808 0.3139 -0.3907
C9 C 0.8687(9) 0.0289(8) -0.1033(8)
H7 H 0.8677 -0.0447 -0.0296
C10 C 0.7662(9) 0.2366(8) -0.1920(9)
H8 H 0.6918 0.3118 -0.1821
C11 C 0.6152(7) 0.8293(6) 0.1309(6)
C12 C 0.6460(8) 0.6886(6) 0.2102(7)
C13 C 0.6853(11) 0.6712(7) 0.3349(9)
H9 H 0.6943 0.7470 0.3690
C14 C 0.6289(8) 0.5735(6) 0.1624(7)
H10 H 0.5987 0.5847 0.0804
C15 C 0.6564(8) 0.4440(6) 0.2354(7)
C16 C 0.6992(12) 0.4264(8) 0.3595(10)
H11 H 0.7193 0.3389 0.4081
C17 C 0.6333(9) 0.3222(6) 0.1827(7)
C18 C 0.7116(14) 0.5392(9) 0.4104(10)
H12 H 0.7374 0.5278 0.4946
O3A O 0.4204(6) 0.1576(5) -0.0188(5)
O4_2 O 0.6302(5) -0.0706(4) 0.1809(5)
N2_2 N 0.3677(6) 0.1249(5) 0.2832(5)
Co1A Co 0.43409(10) 0.87132(8) -0.10221(9)
Co1_2 Co 0.56591(10) 1.12868(8) 0.10221(9)
Co1_3 Co 1.56591(10) 0.12868(8) -0.89779(9)
loop_
_geom_bond_atom_site_label_1
_geom_bond_atom_site_label_2
_geom_bond_site_symmetry_1
_geom_bond_site_symmetry_2
O1 Co1 1_555 1_555
O2 Co1 1_555 1_555
O3 C11 1_555 1_555
O4 C11 1_555 1_555
N1 Co1 1_555 1_555
N2 C3 1_555 1_555
Co1 O3A 1_555 1_555
C1 C2 1_555 1_555
C2 H1 1_555 1_555
C3 C2 1_555 1_555
H2 C3 1_555 1_555
C4 N2 1_555 1_555
H3 C4 1_555 1_555
C5 C1 1_555 1_555
H4 C5 1_555 1_555
C6 C1 1_555 1_555
C7 C6 1_555 1_555
H5 C7 1_555 1_555
C8 C6 1_555 1_555
H6 C8 1_555 1_555
C9 N1 1_555 1_555
H7 C9 1_555 1_555
C10 N1 1_555 1_555
H8 C10 1_555 1_555
C11 C12 1_555 1_555
C12 C13 1_555 1_555
C13 H9 1_555 1_555
C14 C12 1_555 1_555
H10 C14 1_555 1_555
C15 C14 1_555 1_555
C16 C15 1_555 1_555
H11 C16 1_555 1_555
C17 O1 1_555 1_555
C18 C13 1_555 1_555
H12 C18 1_555 1_555
O4_2 Co1 1_555 1_555
N2_2 Co1 1_555 1_555
Co1A O3 1_555 1_555
Co1_2 O4 1_555 1_555
Co1_3 N2 1_555 1_555
O2 C17 1_555 1_555
C4 C5 1_555 1_555
C7 C9 1_555 1_555
C8 C10 1_555 1_555
C15 C17 1_555 1_555
C16 C18 1_555 1_555

#END
