
#######################################################################
#
#                 Cambridge Crystallographic Data Centre
#                                CCDC 
#
#######################################################################
#
# If this CIF has been generated from an entry in the Cambridge 
# Structural Database, then it will include bibliographic, chemical, 
# crystal, experimental, refinement or atomic coordinate data resulting 
# from the CCDC's data processing and validation procedures.
#
#######################################################################

data_INAGEK
_symmetry_cell_setting           triclinic
_symmetry_space_group_name_H-M   'P -1'
_symmetry_Int_Tables_number      2
_space_group_name_Hall           '-P 1'
loop_
_symmetry_equiv_pos_site_id
_symmetry_equiv_pos_as_xyz
1 x,y,z
2 -x,-y,-z
_cell_length_a                   8.1452(11)
_cell_length_b                   10.5171(15)
_cell_length_c                   11.6507(16)
_cell_angle_alpha                101.448(2)
_cell_angle_beta                 98.692(3)
_cell_angle_gamma                110.586(2)
_cell_volume                     888.788
loop_
_atom_site_label
_atom_site_type_symbol
_atom_site_fract_x
_atom_site_fract_y
_atom_site_fract_z
Cr1 Cr 0.0000 0.0000 0.0000
Mo1 Mo 0.20594(11) 0.14667(8) 0.29149(7)
Mo2 Mo 0.28863(11) -0.11857(10) 0.12947(9)
Mo3 Mo 0.07917(11) -0.26312(9) -0.15981(9)
Co1 Co 0.5000 0.5000 0.5000
O1 O 0.3592(8) 0.3185(7) 0.3593(6)
O2 O 0.1906(10) 0.0635(8) 0.4022(6)
O3 O -0.0193(8) 0.1662(7) 0.2760(6)
O4 O 0.0505(7) -0.0596(6) 0.1492(5)
O5 O 0.2782(9) -0.1916(8) 0.2458(7)
O6 O 0.3777(8) 0.0845(7) 0.2187(6)
O7 O 0.2784(9) -0.2547(8) -0.1930(7)
O8 O 0.1210(8) -0.2790(7) 0.0046(7)
O9 O -0.0696(10) -0.4319(7) -0.2287(8)
O10 O 0.2101(7) -0.0392(6) -0.0332(5)
O11 O 0.1373(7) 0.1917(6) 0.1083(5)
O12 O 0.2872(9) 0.5667(9) 0.4597(6)
O13 O 0.4926(8) -0.1042(7) 0.0971(6)
N1 N 0.3637(10) 0.3910(8) 0.6178(7)
N2 N 0.1650(10) 0.2303(9) 0.7501(7)
C1 C 0.2344(18) 0.4174(12) 0.6607(11)
H1 H 0.2069 0.4916 0.6443
C2 C 0.1398(18) 0.3410(13) 0.7278(12)
H2 H 0.0546 0.3676 0.7589
C3 C 0.3886(15) 0.2802(15) 0.6417(11)
H3 H 0.4750 0.2538 0.6119
C4 C 0.2922(16) 0.2031(13) 0.7084(10)
H4 H 0.3184 0.1283 0.7247
Mo1A Mo -0.20594(11) -0.14667(8) -0.29149(7)
Mo2A Mo -0.28863(11) 0.11857(10) -0.12947(9)
Mo3A Mo -0.07917(11) 0.26312(9) 0.15981(9)
Co1_2 Co -0.5000 -0.5000 -0.5000
O1A O -0.3592(8) -0.3185(7) -0.3593(6)
O1A_2 O 0.6408(8) 0.6815(7) 0.6407(6)
O2A O -0.1906(10) -0.0635(8) -0.4022(6)
O3A O 0.0193(8) -0.1662(7) -0.2760(6)
O4A O -0.0505(7) 0.0596(6) -0.1492(5)
O5A O -0.2782(9) 0.1916(8) -0.2458(7)
O6A O -0.3777(8) -0.0845(7) -0.2187(6)
O7A O -0.2784(9) 0.2547(8) 0.1930(7)
O8A O -0.1210(8) 0.2790(7) -0.0046(7)
O9A O 0.0696(10) 0.4319(7) 0.2287(8)
O10A O -0.2101(7) 0.0392(6) 0.0332(5)
O11A O -0.1373(7) -0.1917(6) -0.1083(5)
O12A O 0.7128(9) 0.4333(9) 0.5403(6)
O13A O -0.4926(8) 0.1042(7) -0.0971(6)
N1A N 0.6363(10) 0.6090(8) 0.3822(7)
N2A N 0.8350(10) 0.7697(9) 0.2499(7)
C1A C 0.7656(18) 0.5826(12) 0.3393(11)
H1A H 0.7931 0.5084 0.3557
C2A C 0.8602(18) 0.6590(13) 0.2722(12)
H2A H 0.9454 0.6324 0.2411
C3A C 0.6114(15) 0.7198(15) 0.3583(11)
H3A H 0.5250 0.7462 0.3881
C4A C 0.7078(16) 0.7969(13) 0.2916(10)
H4A H 0.6816 0.8717 0.2753
N3 N 0.3856(11) 0.4017(8) 0.0470(7)
C5 C 0.5411(15) 0.4007(11) 0.0308(11)
H5 H 0.5761 0.3317 0.0519
C6 C 0.3451(16) 0.5030(13) 0.0160(12)
H6 H 0.2369 0.5095 0.0259
N3A N 0.6144(11) 0.5983(8) -0.0470(7)
C5A C 0.4589(15) 0.5993(11) -0.0308(11)
H5A H 0.4239 0.6683 -0.0519
C6A C 0.6549(16) 0.4970(13) -0.0160(12)
H6A H 0.7631 0.4905 -0.0259
O14 O 0.2561(18) 0.8162(16) 0.5488(13)
loop_
_geom_bond_atom_site_label_1
_geom_bond_atom_site_label_2
_geom_bond_site_symmetry_1
_geom_bond_site_symmetry_2
Cr1 O4 1_555 1_555
Mo1 O1 1_555 1_555
Mo2 O4 1_555 1_555
Mo3 O7 1_555 1_555
Co1 O1 1_555 1_555
O2 Mo1 1_555 1_555
O3 Mo1 1_555 1_555
O4 Mo1 1_555 1_555
O5 Mo2 1_555 1_555
O6 Mo1 1_555 1_555
O8 Mo2 1_555 1_555
O9 Mo3 1_555 1_555
O10 Cr1 1_555 1_555
O11 Cr1 1_555 1_555
O12 Co1 1_555 1_555
O13 Mo2 1_555 1_555
N1 Co1 1_555 1_555
N2 C2 1_555 1_555
C1 N1 1_555 1_555
H1 C1 1_555 1_555
C2 C1 1_555 1_555
H2 C2 1_555 1_555
C3 N1 1_555 1_555
H3 C3 1_555 1_555
C4 N2 1_555 1_555
H4 C4 1_555 1_555
N3 C5 1_555 1_555
C5 H5 1_555 1_555
C6 N3 1_555 1_555
H6 C6 1_555 1_555
Mo1A O1A 1_555 1_555
Mo2A O4A 1_555 1_555
Mo3A O3 1_555 1_555
Co1_2 O1A 1_555 1_555
O1A_2 Co1 1_555 1_555
O2A Mo1A 1_555 1_555
O3A Mo3 1_555 1_555
O4A Cr1 1_555 1_555
O5A Mo2A 1_555 1_555
O6A Mo1A 1_555 1_555
O7A Mo3A 1_555 1_555
O8A Mo2A 1_555 1_555
O9A Mo3A 1_555 1_555
O10A Cr1 1_555 1_555
O11A Cr1 1_555 1_555
O12A Co1 1_555 1_555
O13A Mo2A 1_555 1_555
N1A Co1 1_555 1_555
N2A C2A 1_555 1_555
C1A N1A 1_555 1_555
H1A C1A 1_555 1_555
C2A C1A 1_555 1_555
H2A C2A 1_555 1_555
C3A N1A 1_555 1_555
H3A C3A 1_555 1_555
C4A N2A 1_555 1_555
H4A C4A 1_555 1_555
N3A C5A 1_555 1_555
C5A C6 1_555 1_555
H5A C5A 1_555 1_555
C6A C5 1_555 1_555
H6A C6A 1_555 1_555
Mo1 O11 1_555 1_555
Mo2 O6 1_555 1_555
Mo2 O10 1_555 1_555
Mo3 O8 1_555 1_555
Mo3 O10 1_555 1_555
Mo3 O11A 1_555 1_555
O11 Mo3A 1_555 1_555
C3 C4 1_555 1_555
Mo1A O3A 1_555 1_555
Mo1A O4A 1_555 1_555
Mo1A O11A 1_555 1_555
Mo2A O6A 1_555 1_555
Mo2A O10A 1_555 1_555
Mo3A O8A 1_555 1_555
Mo3A O10A 1_555 1_555
C3A C4A 1_555 1_555
N3A C6A 1_555 1_555

#END
