
#######################################################################
#
#                 Cambridge Crystallographic Data Centre
#                                CCDC 
#
#######################################################################
#
# If this CIF has been generated from an entry in the Cambridge 
# Structural Database, then it will include bibliographic, chemical, 
# crystal, experimental, refinement or atomic coordinate data resulting 
# from the CCDC's data processing and validation procedures.
#
#######################################################################

data_INAGAG
_symmetry_cell_setting           triclinic
_symmetry_space_group_name_H-M   'P -1'
_symmetry_Int_Tables_number      2
_space_group_name_Hall           '-P 1'
loop_
_symmetry_equiv_pos_site_id
_symmetry_equiv_pos_as_xyz
1 x,y,z
2 -x,-y,-z
_cell_length_a                   8.161(2)
_cell_length_b                   10.483(3)
_cell_length_c                   11.595(3)
_cell_angle_alpha                101.791(4)
_cell_angle_beta                 98.159(3)
_cell_angle_gamma                110.274(4)
_cell_volume                     886.102
loop_
_atom_site_label
_atom_site_type_symbol
_atom_site_fract_x
_atom_site_fract_y
_atom_site_fract_z
Cr1 Cr 0.5000 0.0000 0.0000
Mo1 Mo 0.70609(12) 0.14649(10) 0.29144(8)
Mo2 Mo 0.42052(12) 0.26379(11) 0.16357(10)
Mo3 Mo 0.21229(12) 0.12035(11) -0.12642(9)
O1 O 0.8572(10) 0.3185(10) 0.3570(8)
O2 O 0.8770(9) 0.0832(8) 0.2156(7)
O3 O 0.6939(12) 0.0654(10) 0.4045(8)
O4 O 0.4814(10) 0.1671(9) 0.2791(7)
O5 O 0.6358(8) 0.1916(7) 0.1087(6)
O6 O 0.5639(12) 0.4305(10) 0.2321(9)
O7 O 0.2198(12) 0.2538(11) 0.1981(9)
O8 O 0.3786(9) 0.2804(8) 0.0004(8)
O9 O 0.2234(11) 0.1947(10) -0.2426(8)
O10 O 0.0087(10) 0.1053(9) -0.0942(7)
O11 O 0.4480(8) 0.0586(7) -0.1486(6)
O12 O 0.2916(8) 0.0414(7) 0.0361(6)
Zn1 Zn 1.0000 0.5000 0.5000
O13 O 1.2138(12) 0.4294(12) 0.5385(8)
N1 N 1.1393(12) 0.6097(10) 0.3838(8)
N2 N 1.3338(13) 0.7695(12) 0.2510(9)
C1 C 1.1079(17) 0.7194(19) 0.3585(13)
H1 H 1.0194 0.7443 0.3874
C2 C 1.269(2) 0.5857(16) 0.3422(16)
H2 H 1.2951 0.5099 0.3569
C3 C 1.371(2) 0.6656(17) 0.2782(16)
H3 H 1.4656 0.6461 0.2542
C4 C 1.2047(18) 0.7957(17) 0.2903(13)
H4 H 1.1766 0.8689 0.2716
Mo1A Mo 0.29391(12) -0.14649(10) -0.29144(8)
Mo2A Mo 0.57948(12) -0.26379(11) -0.16357(10)
Mo3A Mo 0.78771(12) -0.12035(11) 0.12642(9)
O1A O 0.1428(10) -0.3185(10) -0.3570(8)
O1A_2 O 1.1428(10) 0.6815(10) 0.6430(8)
O2A O 0.1230(9) -0.0832(8) -0.2156(7)
O3A O 0.3061(12) -0.0654(10) -0.4045(8)
O4A O 0.5186(10) -0.1671(9) -0.2791(7)
O5A O 0.3642(8) -0.1916(7) -0.1087(6)
O6A O 0.4361(12) -0.4305(10) -0.2321(9)
O7A O 0.7802(12) -0.2538(11) -0.1981(9)
O8A O 0.6214(9) -0.2804(8) -0.0004(8)
O9A O 0.7766(11) -0.1947(10) 0.2426(8)
O10A O 0.9913(10) -0.1053(9) 0.0942(7)
O11A O 0.5520(8) -0.0586(7) 0.1486(6)
O12A O 0.7084(8) -0.0414(7) -0.0361(6)
Zn1_2 Zn 0.0000 -0.5000 -0.5000
O13A O 0.7862(12) 0.5706(12) 0.4615(8)
N1A N 0.8607(12) 0.3903(10) 0.6162(8)
N2A N 0.6662(13) 0.2305(12) 0.7490(9)
C1A C 0.8921(17) 0.2806(19) 0.6415(13)
H1A H 0.9806 0.2557 0.6126
C2A C 0.731(2) 0.4143(16) 0.6578(16)
H2A H 0.7049 0.4901 0.6431
C3A C 0.629(2) 0.3344(17) 0.7218(16)
H3A H 0.5344 0.3539 0.7458
C4A C 0.7953(18) 0.2043(17) 0.7097(13)
H4A H 0.8234 0.1311 0.7284
N3 N 0.8864(13) 0.4024(11) 0.0462(9)
C5 C 0.840(2) 0.4994(15) 0.0103(14)
H5 H 0.7281 0.5010 0.0146
C6 C 1.044(2) 0.4022(14) 0.0334(13)
H6 H 1.0785 0.3327 0.0547
N3A N 1.1136(13) 0.5976(11) -0.0462(9)
C5A C 1.160(2) 0.5006(15) -0.0103(14)
H5A H 1.2719 0.4990 -0.0146
C6A C 0.956(2) 0.5978(14) -0.0334(13)
H6A H 0.9215 0.6673 -0.0547
O14 O 0.757(3) 0.829(2) 0.5447(18)
loop_
_geom_bond_atom_site_label_1
_geom_bond_atom_site_label_2
_geom_bond_site_symmetry_1
_geom_bond_site_symmetry_2
Cr1 O5 1_555 1_555
Mo1 O1 1_555 1_555
Mo2 O4 1_555 1_555
Mo3 O8 1_555 1_555
O1 Zn1 1_555 1_555
O2 Mo1 1_555 1_555
O3 Mo1 1_555 1_555
O4 Mo1 1_555 1_555
O5 Mo1 1_555 1_555
O6 Mo2 1_555 1_555
O7 Mo2 1_555 1_555
O8 Mo2 1_555 1_555
O9 Mo3 1_555 1_555
O10 Mo3 1_555 1_555
O11 Cr1 1_555 1_555
O12 Cr1 1_555 1_555
Zn1 O13 1_555 1_555
N1 Zn1 1_555 1_555
N2 C3 1_555 1_555
C1 N1 1_555 1_555
H1 C1 1_555 1_555
C2 N1 1_555 1_555
H2 C2 1_555 1_555
C3 C2 1_555 1_555
H3 C3 1_555 1_555
C4 N2 1_555 1_555
H4 C4 1_555 1_555
N3 C5 1_555 1_555
C5 H5 1_555 1_555
C6 N3 1_555 1_555
H6 C6 1_555 1_555
Mo1A O11 1_555 1_555
Mo2A O4A 1_555 1_555
Mo3A O2 1_555 1_555
O1A Mo1A 1_555 1_555
O1A_2 Zn1 1_555 1_555
O2A Mo3 1_555 1_555
O3A Mo1A 1_555 1_555
O4A Mo1A 1_555 1_555
O5A Cr1 1_555 1_555
O6A Mo2A 1_555 1_555
O7A Mo2A 1_555 1_555
O8A Mo2A 1_555 1_555
O9A Mo3A 1_555 1_555
O10A Mo3A 1_555 1_555
O11A Cr1 1_555 1_555
O12A Cr1 1_555 1_555
Zn1_2 O1A 1_555 1_555
O13A Zn1 1_555 1_555
N1A Zn1 1_555 1_555
N2A C3A 1_555 1_555
C1A N1A 1_555 1_555
H1A C1A 1_555 1_555
C2A N1A 1_555 1_555
H2A C2A 1_555 1_555
C3A C2A 1_555 1_555
H3A C3A 1_555 1_555
C4A N2A 1_555 1_555
H4A C4A 1_555 1_555
N3A C5A 1_555 1_555
C5A C6 1_555 1_555
H5A C5A 1_555 1_555
C6A C5 1_555 1_555
H6A C6A 1_555 1_555
Mo1 O11A 1_555 1_555
Mo2 O5 1_555 1_555
Mo2 O12 1_555 1_555
Mo3 O11 1_555 1_555
Mo3 O12 1_555 1_555
C1 C4 1_555 1_555
Mo1A O2A 1_555 1_555
Mo1A O5A 1_555 1_555
Mo2A O5A 1_555 1_555
Mo2A O12A 1_555 1_555
Mo3A O8A 1_555 1_555
Mo3A O11A 1_555 1_555
Mo3A O12A 1_555 1_555
C1A C4A 1_555 1_555
N3A C6A 1_555 1_555

#END
