
#######################################################################
#
#                 Cambridge Crystallographic Data Centre
#                                CCDC 
#
#######################################################################
#
# If this CIF has been generated from an entry in the Cambridge 
# Structural Database, then it will include bibliographic, chemical, 
# crystal, experimental, refinement or atomic coordinate data resulting 
# from the CCDC's data processing and validation procedures.
#
#######################################################################

data_INAGOU
_symmetry_cell_setting           triclinic
_symmetry_space_group_name_H-M   'P -1'
_symmetry_Int_Tables_number      2
_space_group_name_Hall           '-P 1'
loop_
_symmetry_equiv_pos_site_id
_symmetry_equiv_pos_as_xyz
1 x,y,z
2 -x,-y,-z
_cell_length_a                   8.119(3)
_cell_length_b                   10.480(3)
_cell_length_c                   11.544(4)
_cell_angle_alpha                101.758(5)
_cell_angle_beta                 98.320(6)
_cell_angle_gamma                110.541(6)
_cell_volume                     875.097
loop_
_atom_site_label
_atom_site_type_symbol
_atom_site_fract_x
_atom_site_fract_y
_atom_site_fract_z
Cr1 Cr 0.0000 0.0000 0.0000
Mo1 Mo -0.07981(16) 0.26511(13) 0.16027(12)
Mo2 Mo 0.20379(15) 0.14882(12) 0.29335(10)
Mo3 Mo 0.28728(16) -0.11796(13) 0.13119(11)
Ni1 Ni 0.5000 0.5000 0.5000
O1 O 0.0696(14) 0.4324(11) 0.2283(10)
O2 O -0.2790(15) 0.2575(12) 0.1937(10)
O3 O -0.0202(12) 0.1692(10) 0.2773(8)
O4 O 0.1365(11) 0.1928(9) 0.1095(7)
O5 O 0.3581(12) 0.3208(10) 0.3617(8)
O6 O 0.1846(14) 0.0651(12) 0.4038(8)
O7 O 0.3783(11) 0.0858(9) 0.2204(8)
O8 O 0.0478(10) -0.0593(8) 0.1496(6)
O9 O 0.2759(14) -0.1890(12) 0.2500(10)
O10 O 0.4901(12) -0.1038(11) 0.0993(9)
O11 O -0.1202(13) 0.2806(10) -0.0042(9)
O12 O 0.2114(11) -0.0388(9) -0.0338(8)
O13 O 0.2863(13) 0.5652(11) 0.4625(9)
N1 N 0.3662(15) 0.3922(13) 0.6165(10)
N2 N 0.1710(16) 0.2298(14) 0.7491(11)
C1 C 0.243(3) 0.417(2) 0.6611(18)
H1 H 0.2153 0.4920 0.6459
C2 C 0.151(3) 0.342(2) 0.7291(19)
H2 H 0.0685 0.3709 0.7634
C3 C 0.396(2) 0.283(2) 0.6404(15)
H3 H 0.4874 0.2602 0.6131
C4 C 0.296(2) 0.204(2) 0.7044(15)
H4 H 0.3193 0.1262 0.7166
Mo1A Mo 0.07981(16) -0.26511(13) -0.16027(12)
Mo2A Mo -0.20379(15) -0.14882(12) -0.29335(10)
Mo3A Mo -0.28728(16) 0.11796(13) -0.13119(11)
Ni1_2 Ni -0.5000 -0.5000 -0.5000
O1A O -0.0696(14) -0.4324(11) -0.2283(10)
O2A O 0.2790(15) -0.2575(12) -0.1937(10)
O3A O 0.0202(12) -0.1692(10) -0.2773(8)
O4A O -0.1365(11) -0.1928(9) -0.1095(7)
O5A O -0.3581(12) -0.3208(10) -0.3617(8)
O5A_2 O 0.6419(12) 0.6792(10) 0.6383(8)
O6A O -0.1846(14) -0.0651(12) -0.4038(8)
O7A O -0.3783(11) -0.0858(9) -0.2204(8)
O8A O -0.0478(10) 0.0593(8) -0.1496(6)
O9A O -0.2759(14) 0.1890(12) -0.2500(10)
O10A O -0.4901(12) 0.1038(11) -0.0993(9)
O11A O 0.1202(13) -0.2806(10) 0.0042(9)
O12A O -0.2114(11) 0.0388(9) 0.0338(8)
O13A O 0.7137(13) 0.4348(11) 0.5375(9)
N1A N 0.6338(15) 0.6078(13) 0.3835(10)
N2A N 0.8290(16) 0.7702(14) 0.2509(11)
C1A C 0.757(3) 0.583(2) 0.3389(18)
H1A H 0.7847 0.5080 0.3541
C2A C 0.849(3) 0.658(2) 0.2709(19)
H2A H 0.9315 0.6291 0.2366
C3A C 0.604(2) 0.717(2) 0.3596(15)
H3A H 0.5126 0.7398 0.3869
C4A C 0.704(2) 0.796(2) 0.2956(15)
H4A H 0.6807 0.8738 0.2834
N3 N 0.3865(17) 0.4024(12) 0.0465(11)
C5 C 0.347(2) 0.507(2) 0.0195(18)
H5 H 0.2401 0.5154 0.0329
C6 C 0.539(3) 0.3973(19) 0.0280(17)
H6 H 0.5721 0.3263 0.0476
N3A N 0.6135(17) 0.5976(12) -0.0465(11)
C5A C 0.653(2) 0.493(2) -0.0195(18)
H5A H 0.7599 0.4846 -0.0329
C6A C 0.461(3) 0.6027(19) -0.0280(17)
H6A H 0.4279 0.6737 -0.0476
O14 O 0.258(3) 0.8145(19) 0.550(2)
loop_
_geom_bond_atom_site_label_1
_geom_bond_atom_site_label_2
_geom_bond_site_symmetry_1
_geom_bond_site_symmetry_2
Cr1 O4 1_555 1_555
Mo1 O1 1_555 1_555
Mo2 O3 1_555 1_555
Mo3 O7 1_555 1_555
Ni1 O5 1_555 1_555
O2 Mo1 1_555 1_555
O3 Mo1 1_555 1_555
O4 Mo1 1_555 1_555
O5 Mo2 1_555 1_555
O6 Mo2 1_555 1_555
O7 Mo2 1_555 1_555
O8 Cr1 1_555 1_555
O9 Mo3 1_555 1_555
O10 Mo3 1_555 1_555
O11 Mo1 1_555 1_555
O12 Cr1 1_555 1_555
O13 Ni1 1_555 1_555
N1 Ni1 1_555 1_555
N2 C2 1_555 1_555
C1 N1 1_555 1_555
H1 C1 1_555 1_555
C2 C1 1_555 1_555
H2 C2 1_555 1_555
C3 N1 1_555 1_555
H3 C3 1_555 1_555
C4 N2 1_555 1_555
H4 C4 1_555 1_555
N3 C5 1_555 1_555
C5 H5 1_555 1_555
C6 N3 1_555 1_555
H6 C6 1_555 1_555
Mo1A O12 1_555 1_555
Mo2A O3A 1_555 1_555
Mo3A O11 1_555 1_555
Ni1_2 O5A 1_555 1_555
O1A Mo1A 1_555 1_555
O2A Mo1A 1_555 1_555
O3A Mo1A 1_555 1_555
O4A Cr1 1_555 1_555
O5A Mo2A 1_555 1_555
O5A_2 Ni1 1_555 1_555
O6A Mo2A 1_555 1_555
O7A Mo2A 1_555 1_555
O8A Cr1 1_555 1_555
O9A Mo3A 1_555 1_555
O10A Mo3A 1_555 1_555
O11A Mo3 1_555 1_555
O12A Cr1 1_555 1_555
O13A Ni1 1_555 1_555
N1A Ni1 1_555 1_555
N2A C2A 1_555 1_555
C1A N1A 1_555 1_555
H1A C1A 1_555 1_555
C2A C1A 1_555 1_555
H2A C2A 1_555 1_555
C3A N1A 1_555 1_555
H3A C3A 1_555 1_555
C4A N2A 1_555 1_555
H4A C4A 1_555 1_555
N3A C5A 1_555 1_555
C5A C6 1_555 1_555
H5A C5A 1_555 1_555
C6A C5 1_555 1_555
H6A C6A 1_555 1_555
Mo1 O12A 1_555 1_555
Mo2 O4 1_555 1_555
Mo2 O8 1_555 1_555
Mo3 O8 1_555 1_555
Mo3 O12 1_555 1_555
C3 C4 1_555 1_555
Mo1A O4A 1_555 1_555
Mo1A O11A 1_555 1_555
Mo2A O4A 1_555 1_555
Mo2A O8A 1_555 1_555
Mo3A O7A 1_555 1_555
Mo3A O8A 1_555 1_555
Mo3A O12A 1_555 1_555
C3A C4A 1_555 1_555
N3A C6A 1_555 1_555

#END
