
#######################################################################
#
#                 Cambridge Crystallographic Data Centre
#                                CCDC 
#
#######################################################################
#
# If this CIF has been generated from an entry in the Cambridge 
# Structural Database, then it will include bibliographic, chemical, 
# crystal, experimental, refinement or atomic coordinate data resulting 
# from the CCDC's data processing and validation procedures.
#
#######################################################################

data_INAHIP
_symmetry_cell_setting           monoclinic
_symmetry_space_group_name_H-M   'C 2/c'
_symmetry_Int_Tables_number      15
_space_group_name_Hall           '-C 2yn'
loop_
_symmetry_equiv_pos_site_id
_symmetry_equiv_pos_as_xyz
1 x,y,z
2 -x,y,1/2-z
3 1/2+x,1/2+y,z
4 1/2-x,1/2+y,1/2-z
5 -x,-y,-z
6 x,-y,1/2+z
7 1/2-x,1/2-y,-z
8 1/2+x,1/2-y,1/2+z
_cell_length_a                   20.896(2)
_cell_length_b                   21.296(2)
_cell_length_c                   8.1608(8)
_cell_angle_alpha                90
_cell_angle_beta                 104.091(2)
_cell_angle_gamma                90
_cell_volume                     3522.29
loop_
_atom_site_label
_atom_site_type_symbol
_atom_site_fract_x
_atom_site_fract_y
_atom_site_fract_z
C1 C -0.06938(16) 0.34223(14) 0.0484(4)
C2 C -0.09736(18) 0.39852(14) 0.1161(4)
C3 C -0.0688(2) 0.45634(14) 0.0976(5)
H1 H -0.0327 0.4579 0.0497
C4 C -0.0930(3) 0.51143(17) 0.1490(6)
H2 H -0.0726 0.5496 0.1389
C5 C -0.1474(2) 0.50909(17) 0.2152(6)
H3 H -0.1647 0.5460 0.2477
C6 C -0.1764(2) 0.45283(16) 0.2336(5)
H4 H -0.2134 0.4524 0.2778
C7 C -0.15222(19) 0.39578(16) 0.1881(5)
C8 C -0.19014(18) 0.33771(15) 0.2047(4)
C9 C -0.25332(19) 0.33256(18) 0.1015(5)
H5 H -0.2689 0.3633 0.0205
C10 C -0.2936(2) 0.2825(2) 0.1170(6)
H6 H -0.3358 0.2799 0.0464
C11 C -0.2720(2) 0.2369(2) 0.2349(6)
H7 H -0.2996 0.2039 0.2469
C12 C -0.2084(2) 0.24036(18) 0.3369(5)
H8 H -0.1931 0.2088 0.4154
C13 C -0.1670(2) 0.29058(14) 0.3234(5)
C14 C -0.10259(19) 0.29400(14) 0.4509(5)
C15 C 0.05637(17) 0.15827(14) 0.6508(4)
C16 C 0.07809(18) 0.10386(14) 0.7689(4)
C17 C 0.1444(2) 0.10231(16) 0.8574(5)
H9 H 0.1720 0.1354 0.8465
C18 C 0.1694(2) 0.05212(17) 0.9610(5)
H10 H 0.2137 0.0514 1.0182
C19 C 0.1286(2) 0.00343(17) 0.9792(5)
H11 H 0.1455 -0.0306 1.0475
C20 C 0.0628(2) 0.00477(15) 0.8970(5)
H12 H 0.0357 -0.0283 0.9118
C21 C 0.03551(18) 0.05510(14) 0.7908(5)
Ho1 Ho 0.0000 0.213760(8) 0.2500
Ho2 Ho 0.0000 0.292390(8) 0.7500
O1 O -0.06849(13) 0.28991(9) 0.1215(3)
O2 O -0.04773(13) 0.35089(10) -0.0792(3)
O3 O -0.05720(11) 0.25328(10) 0.4529(3)
O4 O -0.09566(13) 0.33395(10) 0.5645(3)
O5 O 0.06592(13) 0.21196(9) 0.7145(3)
O6 O 0.03363(13) 0.14731(10) 0.4972(3)
O7 O 0.09044(14) 0.14269(12) 0.2383(4)
H13 H 0.0951 0.1073 0.2897
H14 H 0.1037 0.1386 0.1471
C1A C 0.06938(16) 0.34223(14) 1.4516(4)
C2A C 0.09736(18) 0.39852(14) 1.3839(4)
C3A C 0.0688(2) 0.45634(14) 1.4024(5)
H1A H 0.0327 0.4579 1.4503
C4A C 0.0930(3) 0.51143(17) 1.3510(6)
H2A H 0.0726 0.5496 1.3611
C5A C 0.1474(2) 0.50909(17) 1.2848(6)
H3A H 0.1647 0.5460 1.2523
C6A C 0.1764(2) 0.45283(16) 1.2664(5)
H4A H 0.2134 0.4524 1.2222
C7A C 0.15222(19) 0.39578(16) 1.3119(5)
C8A C 0.19014(18) 0.33771(15) 1.2953(4)
C9A C 0.25332(19) 0.33256(18) 1.3985(5)
H5A H 0.2689 0.3633 1.4795
C10A C 0.2936(2) 0.2825(2) 1.3830(6)
H6A H 0.3358 0.2799 1.4536
C11A C 0.2720(2) 0.2369(2) 1.2651(6)
H7A H 0.2996 0.2039 1.2531
C12A C 0.2084(2) 0.24036(18) 1.1631(5)
H8A H 0.1931 0.2088 1.0846
C13A C 0.1670(2) 0.29058(14) 1.1766(5)
C14A C 0.10259(19) 0.29400(14) 1.0491(5)
C15A C -0.05637(17) 0.15827(14) 0.8492(4)
C16A C -0.07809(18) 0.10386(14) 0.7311(4)
C17A C -0.1444(2) 0.10231(16) 0.6426(5)
H9A H -0.1720 0.1354 0.6535
C18A C -0.1694(2) 0.05212(17) 0.5390(5)
H10A H -0.2137 0.0514 0.4818
C19A C -0.1286(2) 0.00343(17) 0.5208(5)
H11A H -0.1455 -0.0306 0.4525
C20A C -0.0628(2) 0.00477(15) 0.6030(5)
H12A H -0.0357 -0.0283 0.5882
C21A C -0.03551(18) 0.05510(14) 0.7092(5)
Ho1_2 Ho 0.0000 0.213760(8) 1.2500
Ho2_2 Ho 0.0000 0.292390(8) -0.2500
Ho2_3 Ho 0.0000 0.292390(8) 1.7500
O1A O 0.06849(13) 0.28991(9) 0.3785(3)
O1A_2 O 0.06849(13) 0.28991(9) 1.3785(3)
O2A O 0.04773(13) 0.35089(10) 0.5792(3)
O2_2 O -0.04773(13) 0.35089(10) 0.9208(3)
O2A_2 O 0.04773(13) 0.35089(10) 1.5792(3)
O3A O 0.05720(11) 0.25328(10) 0.0471(3)
O3A_2 O 0.05720(11) 0.25328(10) 1.0471(3)
O4A O 0.09566(13) 0.33395(10) 0.9355(3)
O5A O -0.06592(13) 0.21196(9) 0.7855(3)
O6A O -0.03363(13) 0.14731(10) 1.0028(3)
O6A_2 O -0.03363(13) 0.14731(10) 0.0028(3)
O7A O -0.09044(14) 0.14269(12) 0.2617(4)
H13A H -0.0951 0.1073 0.2103
H14A H -0.1037 0.1386 0.3529
loop_
_geom_bond_atom_site_label_1
_geom_bond_atom_site_label_2
_geom_bond_site_symmetry_1
_geom_bond_site_symmetry_2
C1 C2 1_555 1_555
C2 C3 1_555 1_555
C3 H1 1_555 1_555
C4 C3 1_555 1_555
H2 C4 1_555 1_555
C5 C4 1_555 1_555
H3 C5 1_555 1_555
C6 C5 1_555 1_555
H4 C6 1_555 1_555
C7 C2 1_555 1_555
C8 C7 1_555 1_555
C9 C8 1_555 1_555
H5 C9 1_555 1_555
C10 C9 1_555 1_555
H6 C10 1_555 1_555
C11 C10 1_555 1_555
H7 C11 1_555 1_555
C12 C11 1_555 1_555
H8 C12 1_555 1_555
C13 C8 1_555 1_555
C14 C13 1_555 1_555
C15 C16 1_555 1_555
C16 C17 1_555 1_555
C17 H9 1_555 1_555
C18 C17 1_555 1_555
H10 C18 1_555 1_555
C19 C18 1_555 1_555
H11 C19 1_555 1_555
C20 C19 1_555 1_555
H12 C20 1_555 1_555
C21 C16 1_555 1_555
Ho1 O1 1_555 1_555
Ho2 O3 1_555 1_555
O1 C1 1_555 1_555
O2 C1 1_555 1_555
O3 C14 1_555 1_555
O4 C14 1_555 1_555
O5 C15 1_555 1_555
O6 C15 1_555 1_555
O7 Ho1 1_555 1_555
H13 O7 1_555 1_555
H14 O7 1_555 1_555
C1A C2A 1_555 1_555
C2A C3A 1_555 1_555
C3A H1A 1_555 1_555
C4A C3A 1_555 1_555
H2A C4A 1_555 1_555
C5A C4A 1_555 1_555
H3A C5A 1_555 1_555
C6A C5A 1_555 1_555
H4A C6A 1_555 1_555
C7A C2A 1_555 1_555
C8A C7A 1_555 1_555
C9A C8A 1_555 1_555
H5A C9A 1_555 1_555
C10A C9A 1_555 1_555
H6A C10A 1_555 1_555
C11A C10A 1_555 1_555
H7A C11A 1_555 1_555
C12A C11A 1_555 1_555
H8A C12A 1_555 1_555
C13A C8A 1_555 1_555
C14A C13A 1_555 1_555
C15A C16A 1_555 1_555
C16A C17A 1_555 1_555
C17A H9A 1_555 1_555
C18A C17A 1_555 1_555
H10A C18A 1_555 1_555
C19A C18A 1_555 1_555
H11A C19A 1_555 1_555
C20A C19A 1_555 1_555
H12A C20A 1_555 1_555
C21A C21 1_555 1_555
Ho1_2 O1A_2 1_555 1_555
Ho2_2 O2 1_555 1_555
Ho2_3 O2A_2 1_555 1_555
O1A Ho1 1_555 1_555
O1A_2 C1A 1_555 1_555
O2A Ho2 1_555 1_555
O2_2 Ho2 1_555 1_555
O2A_2 C1A 1_555 1_555
O3A Ho1 1_555 1_555
O3A_2 Ho2 1_555 1_555
O4A Ho2 1_555 1_555
O5A Ho2 1_555 1_555
O6A C15A 1_555 1_555
O6A_2 Ho1 1_555 1_555
O7A Ho1 1_555 1_555
H13A O7A 1_555 1_555
H14A O7A 1_555 1_555
C6 C7 1_555 1_555
C12 C13 1_555 1_555
C20 C21 1_555 1_555
Ho1 O3 1_555 1_555
Ho1 O6 1_555 1_555
Ho2 O4 1_555 1_555
Ho2 O5 1_555 1_555
C6A C7A 1_555 1_555
C12A C13A 1_555 1_555
C14A O3A_2 1_555 1_555
C14A O4A 1_555 1_555
C15A O5A 1_555 1_555
C16A C21A 1_555 1_555
C20A C21A 1_555 1_555
Ho1_2 O3A_2 1_555 1_555
Ho1_2 O6A 1_555 1_555
Ho2_2 O3A 1_555 1_555

#END
