
#######################################################################
#
#                 Cambridge Crystallographic Data Centre
#                                CCDC 
#
#######################################################################
#
# If this CIF has been generated from an entry in the Cambridge 
# Structural Database, then it will include bibliographic, chemical, 
# crystal, experimental, refinement or atomic coordinate data resulting 
# from the CCDC's data processing and validation procedures.
#
#######################################################################

data_INAHOV
_symmetry_cell_setting           monoclinic
_symmetry_space_group_name_H-M   'P 21/n'
_symmetry_Int_Tables_number      14
_space_group_name_Hall           '-P 2yn'
loop_
_symmetry_equiv_pos_site_id
_symmetry_equiv_pos_as_xyz
1 x,y,z
2 1/2-x,1/2+y,1/2-z
3 -x,-y,-z
4 1/2+x,1/2-y,1/2+z
_cell_length_a                   9.7252(8)
_cell_length_b                   16.2120(15)
_cell_length_c                   10.2394(9)
_cell_angle_alpha                90
_cell_angle_beta                 100.525(2)
_cell_angle_gamma                90
_cell_volume                     1587.23
loop_
_atom_site_label
_atom_site_type_symbol
_atom_site_fract_x
_atom_site_fract_y
_atom_site_fract_z
Cd1 Cd 1.0000 0.0000 1.0000
N1 N 0.7819(3) 0.0621(2) 1.0182(3)
N2 N 0.5042(3) 0.1197(2) 0.6801(3)
N3 N 0.4302(3) 0.1491(2) 0.5591(3)
N4 N 0.1232(3) 0.0990(2) 0.1496(3)
C1 C 0.6950(4) 0.0893(3) 0.9102(4)
H1 H 0.7227 0.0835 0.8285
C2 C 0.7412(5) 0.0718(3) 1.1346(4)
H2 H 0.7994 0.0530 1.2111
C3 C 0.6174(5) 0.1084(3) 1.1461(5)
H3 H 0.5929 0.1150 1.2291
C4 C 0.5300(5) 0.1353(3) 1.0340(5)
H4 H 0.4453 0.1602 1.0404
C5 C 0.5676(4) 0.1253(2) 0.9123(4)
C6 C 0.4773(4) 0.1525(3) 0.7856(4)
C7 C 0.3667(5) 0.2151(3) 0.7877(5)
H5 H 0.3543 0.2470 0.7074
H6 H 0.3936 0.2509 0.8627
H7 H 0.2805 0.1880 0.7944
C8 C 0.3494(4) 0.0974(3) 0.4882(4)
C9 C 0.3220(5) 0.0122(3) 0.5296(4)
H8 H 0.3864 -0.0013 0.6094
H9 H 0.3339 -0.0257 0.4604
H10 H 0.2280 0.0085 0.5457
C10 C 0.2797(4) 0.1277(2) 0.3561(4)
C11 C 0.3042(4) 0.2052(3) 0.3089(4)
H11 H 0.3661 0.2411 0.3608
C12 C 0.2361(4) 0.2290(3) 0.1845(4)
H12 H 0.2496 0.2816 0.1528
C13 C 0.1484(4) 0.1745(3) 0.1080(4)
H13 H 0.1046 0.1908 0.0235
C14 C 0.1871(4) 0.0775(3) 0.2723(4)
H14 H 0.1681 0.0256 0.3032
N5 N 1.0110(4) 0.0856(2) 0.8250(4)
C15 C 1.0120(4) 0.1063(3) 0.7187(5)
S1 S 1.00479(15) 0.13501(10) 0.56574(14)
Cd1_2 Cd 0.0000 0.0000 0.0000
N1B N 0.2181(3) -0.0621(2) -0.0182(3)
N1B_2 N 1.2181(3) -0.0621(2) 0.9818(3)
N2B N 0.4958(3) -0.1197(2) 0.3199(3)
N3B N 0.5698(3) -0.1491(2) 0.4409(3)
N4B N 0.8768(3) -0.0990(2) 0.8504(3)
N4_2 N 1.1232(3) 0.0990(2) 1.1496(3)
C1B C 0.3050(4) -0.0893(3) 0.0898(4)
H1B H 0.2773 -0.0835 0.1715
C2B C 0.2588(5) -0.0718(3) -0.1346(4)
H2B H 0.2006 -0.0530 -0.2111
C3B C 0.3826(5) -0.1084(3) -0.1461(5)
H3B H 0.4071 -0.1150 -0.2291
C4B C 0.4700(5) -0.1353(3) -0.0340(5)
H4B H 0.5547 -0.1602 -0.0404
C5B C 0.4324(4) -0.1253(2) 0.0877(4)
C6B C 0.5227(4) -0.1525(3) 0.2144(4)
C7B C 0.6333(5) -0.2151(3) 0.2123(5)
H5B H 0.6457 -0.2470 0.2926
H6B H 0.6064 -0.2509 0.1373
H7B H 0.7195 -0.1880 0.2056
C8B C 0.6506(4) -0.0974(3) 0.5118(4)
C9B C 0.6780(5) -0.0122(3) 0.4704(4)
H8B H 0.6136 0.0013 0.3906
H9B H 0.6661 0.0257 0.5396
H10B H 0.7720 -0.0085 0.4543
C10B C 0.7203(4) -0.1277(2) 0.6439(4)
C11B C 0.6958(4) -0.2052(3) 0.6911(4)
H11B H 0.6339 -0.2411 0.6392
C12B C 0.7639(4) -0.2290(3) 0.8155(4)
H12B H 0.7504 -0.2816 0.8472
C13B C 0.8516(4) -0.1745(3) 0.8920(4)
H13B H 0.8954 -0.1908 0.9765
C14B C 0.8129(4) -0.0775(3) 0.7277(4)
H14B H 0.8319 -0.0256 0.6968
N5B N 0.9890(4) -0.0856(2) 1.1750(4)
C15B C 0.9880(4) -0.1063(3) 1.2813(5)
S1B S 0.99521(15) -0.13501(10) 1.43426(14)
loop_
_geom_bond_atom_site_label_1
_geom_bond_atom_site_label_2
_geom_bond_site_symmetry_1
_geom_bond_site_symmetry_2
Cd1 N1 1_555 1_555
N1 C1 1_555 1_555
N2 N3 1_555 1_555
N3 C8 1_555 1_555
N4 C13 1_555 1_555
C1 H1 1_555 1_555
C2 N1 1_555 1_555
H2 C2 1_555 1_555
C3 C2 1_555 1_555
H3 C3 1_555 1_555
C4 C3 1_555 1_555
H4 C4 1_555 1_555
C5 C1 1_555 1_555
C6 N2 1_555 1_555
C7 C6 1_555 1_555
H5 C7 1_555 1_555
H6 C7 1_555 1_555
H7 C7 1_555 1_555
C8 C9 1_555 1_555
C9 H8 1_555 1_555
H9 C9 1_555 1_555
H10 C9 1_555 1_555
C10 C8 1_555 1_555
C11 C10 1_555 1_555
H11 C11 1_555 1_555
C12 C11 1_555 1_555
H12 C12 1_555 1_555
C13 C12 1_555 1_555
H13 C13 1_555 1_555
C14 N4 1_555 1_555
H14 C14 1_555 1_555
N5 Cd1 1_555 1_555
C15 N5 1_555 1_555
S1 C15 1_555 1_555
Cd1_2 N4 1_555 1_555
N1B Cd1_2 1_555 1_555
N1B_2 Cd1 1_555 1_555
N2B N3B 1_555 1_555
N3B C8B 1_555 1_555
N4B Cd1 1_555 1_555
N4_2 Cd1 1_555 1_555
C1B N1B 1_555 1_555
H1B C1B 1_555 1_555
C2B N1B 1_555 1_555
H2B C2B 1_555 1_555
C3B C2B 1_555 1_555
H3B C3B 1_555 1_555
C4B C3B 1_555 1_555
H4B C4B 1_555 1_555
C5B C1B 1_555 1_555
C6B N2B 1_555 1_555
C7B C6B 1_555 1_555
H5B C7B 1_555 1_555
H6B C7B 1_555 1_555
H7B C7B 1_555 1_555
C8B C9B 1_555 1_555
C9B H8B 1_555 1_555
H9B C9B 1_555 1_555
H10B C9B 1_555 1_555
C10B C8B 1_555 1_555
C11B C10B 1_555 1_555
H11B C11B 1_555 1_555
C12B C11B 1_555 1_555
H12B C12B 1_555 1_555
C13B N4B 1_555 1_555
H13B C13B 1_555 1_555
C14B N4B 1_555 1_555
H14B C14B 1_555 1_555
N5B Cd1 1_555 1_555
C15B N5B 1_555 1_555
S1B C15B 1_555 1_555
C4 C5 1_555 1_555
C5 C6 1_555 1_555
C10 C14 1_555 1_555
C4B C5B 1_555 1_555
C5B C6B 1_555 1_555
C10B C14B 1_555 1_555
C12B C13B 1_555 1_555

#END
