
#######################################################################
#
#                 Cambridge Crystallographic Data Centre
#                                CCDC 
#
#######################################################################
#
# If this CIF has been generated from an entry in the Cambridge 
# Structural Database, then it will include bibliographic, chemical, 
# crystal, experimental, refinement or atomic coordinate data resulting 
# from the CCDC's data processing and validation procedures.
#
#######################################################################

data_INAKUE
_symmetry_cell_setting           orthorhombic
_symmetry_space_group_name_H-M   'C m c a'
_symmetry_Int_Tables_number      64
_space_group_name_Hall           '-C 2ac 2'
loop_
_symmetry_equiv_pos_site_id
_symmetry_equiv_pos_as_xyz
1 x,y,z
2 -x,1/2-y,1/2+z
3 -x,1/2+y,1/2-z
4 x,-y,-z
5 1/2+x,1/2+y,z
6 1/2-x,-y,1/2+z
7 1/2-x,y,1/2-z
8 1/2+x,1/2-y,-z
9 -x,-y,-z
10 x,1/2+y,1/2-z
11 x,1/2-y,1/2+z
12 -x,y,z
13 1/2-x,1/2-y,-z
14 1/2+x,y,1/2-z
15 1/2+x,-y,1/2+z
16 1/2-x,1/2+y,z
_cell_length_a                   35.140(5)
_cell_length_b                   12.3371(16)
_cell_length_c                   15.046(2)
_cell_angle_alpha                90
_cell_angle_beta                 90
_cell_angle_gamma                90
_cell_volume                     6522.83
loop_
_atom_site_label
_atom_site_type_symbol
_atom_site_fract_x
_atom_site_fract_y
_atom_site_fract_z
Ag1 Ag 0.388620(17) 0.61056(5) 0.56405(4)
C1 C 0.34902(19) 0.8000(5) 0.4714(4)
H1 H 0.3280 0.7626 0.4930
Dy1 Dy 0.2500 1.08376(3) 0.2500
N1 N 0.38367(17) 0.7629(5) 0.4925(4)
O1 O 0.29926(13) 1.0005(4) 0.3418(3)
C2 C 0.34277(19) 0.8902(5) 0.4198(4)
N2 N 0.39668(16) 0.4673(5) 0.6455(4)
O2 O 0.27617(14) 0.8757(4) 0.4337(3)
C3 C 0.3741(2) 0.9449(6) 0.3901(5)
H2 H 0.3709 1.0063 0.3550
O3 O 0.33703(13) 0.1857(4) 0.8095(3)
C4 C 0.4105(3) 0.9105(7) 0.4114(6)
H3 H 0.4318 0.9483 0.3922
O4 O 0.30183(13) 0.3043(4) 0.7354(3)
C5 C 0.4137(2) 0.8178(7) 0.4624(6)
H4 H 0.4379 0.7925 0.4763
C6 C 0.3032(2) 0.9259(5) 0.3970(4)
C7 C 0.3659(2) 0.4141(5) 0.6772(4)
H5 H 0.3419 0.4390 0.6615
C8 C 0.3685(2) 0.3246(5) 0.7317(4)
C9 C 0.4047(2) 0.2893(8) 0.7554(6)
H6 H 0.4077 0.2293 0.7922
C10 C 0.4363(2) 0.3448(8) 0.7234(7)
H7 H 0.4607 0.3228 0.7389
C11 C 0.4309(2) 0.4316(7) 0.6693(6)
H8 H 0.4523 0.4677 0.6477
C12 C 0.33299(18) 0.2675(6) 0.7615(4)
O5 O 0.24919(14) 1.1647(4) 0.3955(3)
H9 H 0.2642(15) 1.154(6) 0.438(3)
H10 H 0.2328(17) 1.211(5) 0.409(4)
O6 O 0.28069(14) 0.9509(4) 0.1638(3)
H11 H 0.2996(11) 0.910(4) 0.168(5)
H12 H 0.2650(16) 0.924(6) 0.127(5)
Ag1F Ag 0.111380(17) 0.61056(5) -0.06405(4)
C1F C 0.15098(19) 0.8000(5) 0.0286(4)
H1F H 0.1720 0.7626 0.0070
Dy1J Dy 0.2500 0.41624(3) -0.2500
Dy1J_2 Dy 0.2500 0.41624(3) 0.7500
N1F N 0.11633(17) 0.7629(5) 0.0075(4)
O1F O 0.20074(13) 1.0005(4) 0.1582(3)
C2F C 0.15723(19) 0.8902(5) 0.0802(4)
N2F N 0.10332(16) 0.4673(5) -0.1455(4)
O2F O 0.22383(14) 0.8757(4) 0.0663(3)
C3F C 0.1259(2) 0.9449(6) 0.1099(5)
H2F H 0.1291 1.0063 0.1450
O3F O 0.16297(13) 0.1857(4) -0.3095(3)
C4F C 0.0895(3) 0.9105(7) 0.0886(6)
H3F H 0.0682 0.9483 0.1078
O4F O 0.19817(13) 0.3043(4) -0.2354(3)
O4J O 0.30183(13) 1.1957(4) 0.2354(3)
O4L O 0.19817(13) 1.1957(4) 0.2646(3)
C5F C 0.0863(2) 0.8178(7) 0.0376(6)
H4F H 0.0621 0.7925 0.0237
C6F C 0.1968(2) 0.9259(5) 0.1030(4)
C7F C 0.1341(2) 0.4141(5) -0.1772(4)
H5F H 0.1581 0.4390 -0.1615
C8F C 0.1315(2) 0.3246(5) -0.2317(4)
C9F C 0.0953(2) 0.2893(8) -0.2554(6)
H6F H 0.0923 0.2293 -0.2922
C10F C 0.0637(2) 0.3448(8) -0.2234(7)
H7F H 0.0393 0.3228 -0.2389
C11F C 0.0691(2) 0.4316(7) -0.1693(6)
H8F H 0.0477 0.4677 -0.1477
C12F C 0.16701(18) 0.2675(6) -0.2615(4)
O5F O 0.25081(14) 1.1647(4) 0.1045(3)
H9F H 0.2358(15) 1.154(6) 0.062(3)
H10F H 0.2672(17) 1.211(5) 0.091(4)
O6F O 0.21931(14) 0.9509(4) 0.3362(3)
H11F H 0.2004(11) 0.910(4) 0.332(5)
H12F H 0.2350(16) 0.924(6) 0.373(5)
Cl1 Cl 0.5000 0.6842(3) 0.5912(3)
O7 O 0.4682(3) 0.6417(9) 0.5630(10)
O8 O 0.5000 0.7987(10) 0.5891(10)
O9 O 0.5000 0.6480(14) 0.6839(12)
O7K O 0.5318(3) 0.6417(9) 0.5630(10)
O10 O 0.3218(3) 1.0000 0.0000
H13 H 0.3020 0.9879 0.0298
H13C H 0.3020 1.0121 -0.0298
loop_
_geom_bond_atom_site_label_1
_geom_bond_atom_site_label_2
_geom_bond_site_symmetry_1
_geom_bond_site_symmetry_2
Ag1 N1 1_555 1_555
C1 H1 1_555 1_555
Dy1 O1 1_555 1_555
N1 C1 1_555 1_555
O1 C6 1_555 1_555
C2 C1 1_555 1_555
N2 Ag1 1_555 1_555
O2 C6 1_555 1_555
C3 C2 1_555 1_555
H2 C3 1_555 1_555
O3 C12 1_555 1_555
C4 C3 1_555 1_555
H3 C4 1_555 1_555
O4 C12 1_555 1_555
C5 N1 1_555 1_555
H4 C5 1_555 1_555
C6 C2 1_555 1_555
C7 N2 1_555 1_555
H5 C7 1_555 1_555
C8 C7 1_555 1_555
C9 C8 1_555 1_555
H6 C9 1_555 1_555
C10 C9 1_555 1_555
H7 C10 1_555 1_555
C11 N2 1_555 1_555
H8 C11 1_555 1_555
C12 C8 1_555 1_555
O5 Dy1 1_555 1_555
H9 O5 1_555 1_555
H10 O5 1_555 1_555
O6 Dy1 1_555 1_555
H11 O6 1_555 1_555
H12 O6 1_555 1_555
Cl1 O7 1_555 1_555
O8 Cl1 1_555 1_555
O9 Cl1 1_555 1_555
O10 H13 1_555 1_555
Ag1F N1F 1_555 1_555
C1F H1F 1_555 1_555
Dy1J O4F 1_555 1_555
Dy1J_2 O4 1_555 1_555
N1F C1F 1_555 1_555
O1F Dy1 1_555 1_555
C2F C1F 1_555 1_555
N2F Ag1F 1_555 1_555
O2F C6F 1_555 1_555
C3F C2F 1_555 1_555
H2F C3F 1_555 1_555
O3F C12F 1_555 1_555
C4F C3F 1_555 1_555
H3F C4F 1_555 1_555
O4F C12F 1_555 1_555
O4J Dy1 1_555 1_555
O4L Dy1 1_555 1_555
C5F N1F 1_555 1_555
H4F C5F 1_555 1_555
C6F O1F 1_555 1_555
C7F N2F 1_555 1_555
H5F C7F 1_555 1_555
C8F C7F 1_555 1_555
C9F C8F 1_555 1_555
H6F C9F 1_555 1_555
C10F C9F 1_555 1_555
H7F C10F 1_555 1_555
C11F N2F 1_555 1_555
H8F C11F 1_555 1_555
C12F C8F 1_555 1_555
O5F Dy1 1_555 1_555
H9F O5F 1_555 1_555
H10F O5F 1_555 1_555
O6F Dy1 1_555 1_555
H11F O6F 1_555 1_555
H12F O6F 1_555 1_555
O7K Cl1 1_555 1_555
H13C O10 1_555 1_555
C4 C5 1_555 1_555
C10 C11 1_555 1_555
C2F C6F 1_555 1_555
C4F C5F 1_555 1_555
C10F C11F 1_555 1_555

#END
