
#######################################################################
#
#                 Cambridge Crystallographic Data Centre
#                                CCDC 
#
#######################################################################
#
# If this CIF has been generated from an entry in the Cambridge 
# Structural Database, then it will include bibliographic, chemical, 
# crystal, experimental, refinement or atomic coordinate data resulting 
# from the CCDC's data processing and validation procedures.
#
#######################################################################

data_INALUF
_symmetry_cell_setting           monoclinic
_symmetry_space_group_name_H-M   'C 2/c'
_symmetry_Int_Tables_number      15
_space_group_name_Hall           '-C 2yn'
loop_
_symmetry_equiv_pos_site_id
_symmetry_equiv_pos_as_xyz
1 x,y,z
2 -x,y,1/2-z
3 1/2+x,1/2+y,z
4 1/2-x,1/2+y,1/2-z
5 -x,-y,-z
6 x,-y,1/2+z
7 1/2-x,1/2-y,-z
8 1/2+x,1/2-y,1/2+z
_cell_length_a                   20.9591(3)
_cell_length_b                   21.5769(3)
_cell_length_c                   8.35450(10)
_cell_angle_alpha                90
_cell_angle_beta                 103.8680(10)
_cell_angle_gamma                90
_cell_volume                     3668.04
loop_
_atom_site_label
_atom_site_type_symbol
_atom_site_fract_x
_atom_site_fract_y
_atom_site_fract_z
C1 C 0.39481(11) 0.20418(10) 0.9453(3)
C2 C 0.33035(12) 0.20845(11) 0.8210(3)
C3 C 0.29054(13) 0.25919(14) 0.8332(3)
H1 H 0.3061 0.2904 0.9092
C4 C 0.22709(15) 0.26304(17) 0.7311(4)
H2 H 0.1997 0.2959 0.7418
C5 C 0.20573(14) 0.21819(16) 0.6158(4)
H3 H 0.1643 0.2215 0.5449
C6 C 0.24474(12) 0.16821(14) 0.6032(3)
H4 H 0.2290 0.1380 0.5241
C7 C 0.30730(11) 0.16162(11) 0.7060(3)
C8 C 0.34465(12) 0.10403(11) 0.6919(3)
C9 C 0.32064(15) 0.04835(13) 0.7412(3)
H5 H 0.2841 0.0494 0.7858
C10 C 0.34960(18) -0.00767(13) 0.7254(4)
H6 H 0.3329 -0.0438 0.7607
C11 C 0.40293(19) -0.01061(13) 0.6577(4)
H7 H 0.4231 -0.0484 0.6486
C12 C 0.42642(16) 0.04315(11) 0.6031(3)
H8 H 0.4618 0.0410 0.5541
C13 C 0.39839(12) 0.10046(10) 0.6196(3)
C14 C 0.42616(11) 0.15535(10) 0.5498(3)
C15 C 0.44394(11) 0.34501(9) 1.3516(3)
C16 C 0.42247(11) 0.39746(9) 1.2314(3)
C17 C 0.46437(11) 0.44546(9) 1.2094(3)
C18 C 0.43789(13) 0.49447(11) 1.1037(3)
H9 H 0.4649 0.5271 1.0889
C19 C 0.37272(14) 0.49513(12) 1.0218(3)
H10 H 0.3560 0.5283 0.9537
C20 C 0.33200(14) 0.44680(13) 1.0399(3)
H11 H 0.2881 0.4470 0.9828
C21 C 0.35679(13) 0.39797(12) 1.1436(3)
H12 H 0.3294 0.3652 1.1549
Ce1 Ce 0.5000 0.205511(7) 1.2500
Ce2 Ce 0.5000 0.287763(7) 0.7500
O1 O 0.43826(7) 0.24617(7) 0.95229(18)
O2 O 0.40331(9) 0.16134(8) 1.0480(2)
O3 O 0.42970(8) 0.20682(6) 0.6221(2)
O4 O 0.44509(9) 0.14670(8) 0.4205(2)
O5 O 0.46728(9) 0.35776(7) 1.50000(19)
O6 O 0.43419(8) 0.29120(6) 1.2952(2)
O7 O 0.40479(11) 0.36310(10) 0.7624(3)
H13 H 0.391(2) 0.363(2) 0.848(4)
H14 H 0.401(2) 0.3971(14) 0.710(5)
C1A C 0.60519(11) 0.20418(10) 1.5547(3)
C2A C 0.66965(12) 0.20845(11) 1.6790(3)
C3A C 0.70946(13) 0.25919(14) 1.6668(3)
H1A H 0.6939 0.2904 1.5908
C4A C 0.77291(15) 0.26304(17) 1.7689(4)
H2A H 0.8003 0.2959 1.7582
C5A C 0.79427(14) 0.21819(16) 1.8842(4)
H3A H 0.8357 0.2215 1.9551
C6A C 0.75526(12) 0.16821(14) 1.8968(3)
H4A H 0.7710 0.1380 1.9759
C7A C 0.69270(11) 0.16162(11) 1.7940(3)
C8A C 0.65535(12) 0.10403(11) 1.8081(3)
C9A C 0.67936(15) 0.04835(13) 1.7588(3)
H5A H 0.7159 0.0494 1.7142
C10A C 0.65040(18) -0.00767(13) 1.7746(4)
H6A H 0.6671 -0.0438 1.7393
C11A C 0.59707(19) -0.01061(13) 1.8423(4)
H7A H 0.5769 -0.0484 1.8514
C12A C 0.57358(16) 0.04315(11) 1.8969(3)
H8A H 0.5382 0.0410 1.9459
C13A C 0.60161(12) 0.10046(10) 1.8804(3)
C14A C 0.57384(11) 0.15535(10) 1.9502(3)
C15A C 0.55606(11) 0.34501(9) 1.1484(3)
C16A C 0.57753(11) 0.39746(9) 1.2686(3)
C17A C 0.53563(11) 0.44546(9) 1.2906(3)
C18A C 0.56211(13) 0.49447(11) 1.3963(3)
H9A H 0.5351 0.5271 1.4111
C19A C 0.62728(14) 0.49513(12) 1.4782(3)
H10A H 0.6440 0.5283 1.5463
C20A C 0.66800(14) 0.44680(13) 1.4601(3)
H11A H 0.7119 0.4470 1.5172
C21A C 0.64321(13) 0.39797(12) 1.3564(3)
H12A H 0.6706 0.3652 1.3451
Ce1_2 Ce 0.5000 0.205511(7) 0.2500
Ce1_3 Ce 0.5000 0.205511(7) 2.2500
Ce2_2 Ce 0.5000 0.287763(7) 1.7500
O1A O 0.56174(7) 0.24617(7) 1.54771(18)
O1A_2 O 0.56174(7) 0.24617(7) 0.54771(18)
O2A O 0.59669(9) 0.16134(8) 1.4520(2)
O3A O 0.57030(8) 0.20682(6) 1.8779(2)
O3A_2 O 0.57030(8) 0.20682(6) 0.8779(2)
O4A O 0.55491(9) 0.14670(8) 2.0795(2)
O4_2 O 0.44509(9) 0.14670(8) 1.4205(2)
O4A_2 O 0.55491(9) 0.14670(8) 1.0795(2)
O5A O 0.53272(9) 0.35776(7) 1.00000(19)
O5_2 O 0.46728(9) 0.35776(7) 0.50000(19)
O6A O 0.56581(8) 0.29120(6) 1.2048(2)
O7A O 0.59521(11) 0.36310(10) 0.7376(3)
H13A H 0.609(2) 0.363(2) 0.652(4)
H14A H 0.599(2) 0.3971(14) 0.790(5)
loop_
_geom_bond_atom_site_label_1
_geom_bond_atom_site_label_2
_geom_bond_site_symmetry_1
_geom_bond_site_symmetry_2
C1 C2 1_555 1_555
C2 C3 1_555 1_555
C3 H1 1_555 1_555
C4 C3 1_555 1_555
H2 C4 1_555 1_555
C5 C4 1_555 1_555
H3 C5 1_555 1_555
C6 C5 1_555 1_555
H4 C6 1_555 1_555
C7 C2 1_555 1_555
C8 C7 1_555 1_555
C9 C8 1_555 1_555
H5 C9 1_555 1_555
C10 C9 1_555 1_555
H6 C10 1_555 1_555
C11 C10 1_555 1_555
H7 C11 1_555 1_555
C12 C11 1_555 1_555
H8 C12 1_555 1_555
C13 C8 1_555 1_555
C14 C13 1_555 1_555
C15 C16 1_555 1_555
C16 C17 1_555 1_555
C17 C18 1_555 1_555
C18 H9 1_555 1_555
C19 C18 1_555 1_555
H10 C19 1_555 1_555
C20 C19 1_555 1_555
H11 C20 1_555 1_555
C21 C16 1_555 1_555
H12 C21 1_555 1_555
Ce1 O1 1_555 1_555
Ce2 O1 1_555 1_555
O1 C1 1_555 1_555
O2 C1 1_555 1_555
O3 C14 1_555 1_555
O4 C14 1_555 1_555
O5 C15 1_555 1_555
O6 C15 1_555 1_555
O7 Ce2 1_555 1_555
H13 O7 1_555 1_555
H14 O7 1_555 1_555
C1A C2A 1_555 1_555
C2A C3A 1_555 1_555
C3A H1A 1_555 1_555
C4A C3A 1_555 1_555
H2A C4A 1_555 1_555
C5A C4A 1_555 1_555
H3A C5A 1_555 1_555
C6A C5A 1_555 1_555
H4A C6A 1_555 1_555
C7A C2A 1_555 1_555
C8A C7A 1_555 1_555
C9A C8A 1_555 1_555
H5A C9A 1_555 1_555
C10A C9A 1_555 1_555
H6A C10A 1_555 1_555
C11A C10A 1_555 1_555
H7A C11A 1_555 1_555
C12A C11A 1_555 1_555
H8A C12A 1_555 1_555
C13A C8A 1_555 1_555
C14A C13A 1_555 1_555
C15A C16A 1_555 1_555
C16A C17A 1_555 1_555
C17A C17 1_555 1_555
C18A C17A 1_555 1_555
H9A C18A 1_555 1_555
C19A C18A 1_555 1_555
H10A C19A 1_555 1_555
C20A C19A 1_555 1_555
H11A C20A 1_555 1_555
C21A C16A 1_555 1_555
H12A C21A 1_555 1_555
Ce1_2 O4 1_555 1_555
Ce1_3 O4A 1_555 1_555
Ce2_2 O5 1_555 1_555
O1A Ce1 1_555 1_555
O1A_2 Ce2 1_555 1_555
O2A Ce1 1_555 1_555
O3A C14A 1_555 1_555
O3A_2 Ce2 1_555 1_555
O4A C14A 1_555 1_555
O4_2 Ce1 1_555 1_555
O4A_2 Ce1 1_555 1_555
O5A Ce2 1_555 1_555
O5_2 Ce2 1_555 1_555
O6A Ce1 1_555 1_555
O7A Ce2 1_555 1_555
H13A O7A 1_555 1_555
H14A O7A 1_555 1_555
C6 C7 1_555 1_555
C12 C13 1_555 1_555
C20 C21 1_555 1_555
Ce1 O2 1_555 1_555
Ce1 O6 1_555 1_555
Ce2 O3 1_555 1_555
C1A O1A 1_555 1_555
C1A O2A 1_555 1_555
C6A C7A 1_555 1_555
C12A C13A 1_555 1_555
C15A O5A 1_555 1_555
C15A O6A 1_555 1_555
C20A C21A 1_555 1_555
Ce1_2 O1A_2 1_555 1_555
Ce2_2 O1A 1_555 1_555
Ce2_2 O3A 1_555 1_555

#END
