
#######################################################################
#
#                 Cambridge Crystallographic Data Centre
#                                CCDC 
#
#######################################################################
#
# If this CIF has been generated from an entry in the Cambridge 
# Structural Database, then it will include bibliographic, chemical, 
# crystal, experimental, refinement or atomic coordinate data resulting 
# from the CCDC's data processing and validation procedures.
#
#######################################################################

data_INALIT
_symmetry_cell_setting           monoclinic
_symmetry_space_group_name_H-M   'C c'
_symmetry_Int_Tables_number      9
_space_group_name_Hall           'C -2yc'
loop_
_symmetry_equiv_pos_site_id
_symmetry_equiv_pos_as_xyz
1 x,y,z
2 x,-y,1/2+z
3 1/2+x,1/2+y,z
4 1/2+x,1/2-y,1/2+z
_cell_length_a                   10.756(2)
_cell_length_b                   8.718(2)
_cell_length_c                   14.599(3)
_cell_angle_alpha                90
_cell_angle_beta                 107.711(3)
_cell_angle_gamma                90
_cell_volume                     1304.08
loop_
_atom_site_label
_atom_site_type_symbol
_atom_site_fract_x
_atom_site_fract_y
_atom_site_fract_z
Ag1 Ag 0.77582(3) 0.292288(19) 0.09773(3)
O1 O 0.7877(3) 0.6035(3) 0.44499(18)
O2 O 0.6630(3) 0.8106(3) 0.4115(2)
N1 N 0.8464(3) 0.0729(3) 0.17021(18)
N2 N 0.8505(3) -0.0461(3) 0.0300(2)
N3 N 0.7238(3) 0.5175(3) 0.15336(18)
C1 C 0.8827(3) -0.0479(3) 0.1267(2)
C2 C 0.9532(3) -0.1713(3) 0.1797(2)
H1 H 0.9788 -0.2520 0.1478
C3 C 0.9847(3) -0.1738(3) 0.2781(2)
C4 C 0.9445(3) -0.0488(4) 0.3229(2)
H2 H 0.9632 -0.0461 0.3894
C5 C 0.8780(3) 0.0679(3) 0.2678(2)
H3 H 0.8523 0.1497 0.2988
C6 C 1.0610(4) -0.3031(4) 0.3358(3)
H4 H 1.0688 -0.3843 0.2935
H5 H 1.0169 -0.3407 0.3794
H6 H 1.1464 -0.2674 0.3717
C7 C 0.7385(3) 0.5419(3) 0.2470(2)
H7 H 0.7804 0.4672 0.2911
C8 C 0.6945(3) 0.6724(4) 0.2809(3)
C9 C 0.6298(3) 0.7814(3) 0.2140(3)
H8 H 0.5967 0.8695 0.2340
C10 C 0.6148(3) 0.7585(4) 0.1180(3)
H9 H 0.5725 0.8309 0.0724
C11 C 0.6638(3) 0.6263(4) 0.0909(2)
H10 H 0.6549 0.6119 0.0261
C12 C 0.7164(3) 0.6961(3) 0.3873(3)
H11 H 0.854(5) -0.134(3) 0.000(3)
H12 H 0.789(4) 0.017(4) -0.004(3)
Ag1A Ag 0.77582(3) 0.707712(19) 0.59773(3)
O1A O 0.7877(3) 0.3965(3) -0.05501(18)
O3 O 0.9277(4) 0.3313(4) 0.4570(3)
H13 H 1.001(3) 0.342(5) 0.446(4)
H14 H 0.895(4) 0.420(3) 0.454(4)
loop_
_geom_bond_atom_site_label_1
_geom_bond_atom_site_label_2
_geom_bond_site_symmetry_1
_geom_bond_site_symmetry_2
Ag1 N1 1_555 1_555
O1 C12 1_555 1_555
O2 C12 1_555 1_555
N1 C1 1_555 1_555
N2 C1 1_555 1_555
N3 Ag1 1_555 1_555
C1 C2 1_555 1_555
C2 H1 1_555 1_555
C3 C2 1_555 1_555
C4 C3 1_555 1_555
H2 C4 1_555 1_555
C5 N1 1_555 1_555
H3 C5 1_555 1_555
C6 C3 1_555 1_555
H4 C6 1_555 1_555
H5 C6 1_555 1_555
H6 C6 1_555 1_555
C7 N3 1_555 1_555
H7 C7 1_555 1_555
C8 C7 1_555 1_555
C9 C8 1_555 1_555
H8 C9 1_555 1_555
C10 C9 1_555 1_555
H9 C10 1_555 1_555
C11 N3 1_555 1_555
H10 C11 1_555 1_555
C12 C8 1_555 1_555
H11 N2 1_555 1_555
H12 N2 1_555 1_555
O3 H13 1_555 1_555
H14 O3 1_555 1_555
Ag1A O1 1_555 1_555
O1A Ag1 1_555 1_555
C4 C5 1_555 1_555
C10 C11 1_555 1_555

#END
