
#######################################################################
#
#                 Cambridge Crystallographic Data Centre
#                                CCDC 
#
#######################################################################
#
# If this CIF has been generated from an entry in the Cambridge 
# Structural Database, then it will include bibliographic, chemical, 
# crystal, experimental, refinement or atomic coordinate data resulting 
# from the CCDC's data processing and validation procedures.
#
#######################################################################

data_INAMOZ
_symmetry_cell_setting           triclinic
_symmetry_space_group_name_H-M   'P -1'
_symmetry_Int_Tables_number      2
_space_group_name_Hall           '-P 1'
loop_
_symmetry_equiv_pos_site_id
_symmetry_equiv_pos_as_xyz
1 x,y,z
2 -x,-y,-z
_cell_length_a                   10.1937(8)
_cell_length_b                   11.2160(9)
_cell_length_c                   13.8445(11)
_cell_angle_alpha                103.0620(10)
_cell_angle_beta                 106.4850(10)
_cell_angle_gamma                96.2720(10)
_cell_volume                     1452.85
loop_
_atom_site_label
_atom_site_type_symbol
_atom_site_fract_x
_atom_site_fract_y
_atom_site_fract_z
Ag1 Ag 0.09049(7) 0.84096(6) 0.92046(5)
Ag2 Ag 0.55672(6) 1.04287(6) 0.63981(5)
S1 S -0.02534(19) 1.03966(17) 0.85356(15)
S2 S 0.3065(2) 1.08244(18) 0.54216(15)
N1 N 0.0242(6) 1.2518(6) 0.9950(5)
N2 N 0.1265(6) 1.2532(6) 0.8585(5)
N3 N 0.2359(6) 0.9206(5) 0.8444(4)
N4 N 0.4165(6) 1.0146(6) 0.7501(4)
N5 N 0.2516(6) 0.8811(6) 0.3892(5)
N6 N 0.1217(6) 0.8764(6) 0.5078(5)
N7 N 0.4444(9) 0.6364(7) 0.6291(7)
O1 O 0.4677(7) 0.8109(6) 0.5811(5)
C1 C 0.2573(9) 1.4411(8) 0.8477(7)
H1 H 0.2608 1.3825 0.7865
H2 H 0.3503 1.4765 0.8936
H3 H 0.2113 1.5061 0.8276
C2 C 0.1798(8) 1.3767(8) 0.9024(6)
C3 C 0.1570(9) 1.4370(8) 0.9916(7)
H4 H 0.1932 1.5214 1.0217
C4 C 0.0803(9) 1.3725(8) 1.0370(6)
H5 H 0.0671 1.4141 1.0987
C5 C 0.0523(7) 1.1992(7) 0.9081(6)
C6 C 0.0434(7) 0.9984(7) 0.7468(5)
H6 H -0.0116 0.9199 0.6997
H7 H 0.0315 1.0611 0.7084
C7 C 0.1940(7) 0.9862(6) 0.7769(5)
C8 C 0.3690(7) 0.8976(6) 0.8668(5)
C9 C 0.4162(8) 0.8257(7) 0.9359(6)
H8 H 0.3579 0.7946 0.9689
C10 C 0.5479(9) 0.8016(8) 0.9545(6)
H9 H 0.5779 0.7517 0.9986
C11 C 0.6388(9) 0.8510(9) 0.9078(7)
H10 H 0.7285 0.8339 0.9216
C12 C 0.5969(8) 0.9234(8) 0.8429(6)
H11 H 0.6585 0.9575 0.8138
C13 C 0.4595(7) 0.9471(7) 0.8195(5)
C14 C 0.2873(7) 1.0334(6) 0.7283(5)
C15 C 0.2438(8) 1.1121(7) 0.6531(6)
H12 H 0.2767 1.1992 0.6914
H13 H 0.1429 1.0984 0.6275
C16 C 0.2150(7) 0.9298(7) 0.4741(6)
C17 C 0.1874(8) 0.7633(8) 0.3368(6)
H14 H 0.2100 0.7242 0.2785
C18 C 0.0906(9) 0.6992(8) 0.3657(7)
H15 H 0.0464 0.6184 0.3273
C19 C 0.0592(8) 0.7581(8) 0.4548(7)
C20 C -0.0416(9) 0.6945(9) 0.4948(7)
H16 H -0.0478 0.7501 0.5565
H17 H -0.0106 0.6216 0.5114
H18 H -0.1315 0.6706 0.4422
C21 C 0.5047(15) 0.5326(13) 0.6602(15)
H19 H 0.5985 0.5400 0.6582
H20 H 0.4504 0.4553 0.6129
H21 H 0.5047 0.5348 0.7299
C22 C 0.3036(10) 0.6389(10) 0.6285(8)
H22 H 0.2746 0.7103 0.6075
H23 H 0.2985 0.6437 0.6974
H24 H 0.2436 0.5645 0.5803
C23 C 0.5177(11) 0.7253(10) 0.6063(8)
N1A N -0.0242(6) 0.7482(6) 1.0050(5)
N5A N 0.7484(6) 1.1189(6) 0.6108(5)
Ag1A Ag -0.09049(7) 1.15904(6) 1.07954(5)
Ag2A Ag 0.44328(6) 0.95713(6) 0.36019(5)
N8 N 0.6019(9) 1.2902(7) 0.8347(7)
O5 O 0.5523(9) 1.3421(8) 0.9000(6)
O6 O 0.5480(7) 1.2851(6) 0.7411(5)
O7 O 0.7068(8) 1.2481(7) 0.8662(5)
N9 N -0.0958(11) 0.6486(8) 0.7130(7)
O2 O -0.1750(8) 0.5712(7) 0.6328(5)
O3 O -0.1346(7) 0.7455(7) 0.7484(5)
O4 O 0.0211(8) 0.6296(7) 0.7588(6)
loop_
_geom_bond_atom_site_label_1
_geom_bond_atom_site_label_2
_geom_bond_site_symmetry_1
_geom_bond_site_symmetry_2
Ag1 S1 1_555 1_555
Ag2 S2 1_555 1_555
S1 C5 1_555 1_555
S2 C15 1_555 1_555
N1 C4 1_555 1_555
N2 C2 1_555 1_555
N3 Ag1 1_555 1_555
N4 Ag2 1_555 1_555
N5 C16 1_555 1_555
N6 C16 1_555 1_555
N7 C21 1_555 1_555
N8 O5 1_555 1_555
N9 O2 1_555 1_555
O1 Ag2 1_555 1_555
O3 N9 1_555 1_555
O4 N9 1_555 1_555
O6 N8 1_555 1_555
O7 N8 1_555 1_555
C1 H1 1_555 1_555
H2 C1 1_555 1_555
H3 C1 1_555 1_555
C2 C1 1_555 1_555
C3 C2 1_555 1_555
H4 C3 1_555 1_555
C4 C3 1_555 1_555
H5 C4 1_555 1_555
C5 N1 1_555 1_555
C6 S1 1_555 1_555
H6 C6 1_555 1_555
H7 C6 1_555 1_555
C7 N3 1_555 1_555
C8 N3 1_555 1_555
C9 C8 1_555 1_555
H8 C9 1_555 1_555
C10 C9 1_555 1_555
H9 C10 1_555 1_555
C11 C10 1_555 1_555
H10 C11 1_555 1_555
C12 C11 1_555 1_555
H11 C12 1_555 1_555
C13 N4 1_555 1_555
C14 N4 1_555 1_555
C15 C14 1_555 1_555
H12 C15 1_555 1_555
H13 C15 1_555 1_555
C16 S2 1_555 1_555
C17 N5 1_555 1_555
H14 C17 1_555 1_555
C18 C17 1_555 1_555
H15 C18 1_555 1_555
C19 N6 1_555 1_555
C20 C19 1_555 1_555
H16 C20 1_555 1_555
H17 C20 1_555 1_555
H18 C20 1_555 1_555
C21 H19 1_555 1_555
H20 C21 1_555 1_555
H21 C21 1_555 1_555
C22 N7 1_555 1_555
H22 C22 1_555 1_555
H23 C22 1_555 1_555
H24 C22 1_555 1_555
C23 N7 1_555 1_555
N1A Ag1 1_555 1_555
N5A Ag2 1_555 1_555
Ag1A N1 1_555 1_555
Ag2A N5 1_555 1_555
N2 C5 1_555 1_555
O1 C23 1_555 1_555
C6 C7 1_555 1_555
C7 C14 1_555 1_555
C8 C13 1_555 1_555
C12 C13 1_555 1_555
C18 C19 1_555 1_555

#END
