
#######################################################################
#
#                 Cambridge Crystallographic Data Centre
#                                CCDC 
#
#######################################################################
#
# If this CIF has been generated from an entry in the Cambridge 
# Structural Database, then it will include bibliographic, chemical, 
# crystal, experimental, refinement or atomic coordinate data resulting 
# from the CCDC's data processing and validation procedures.
#
#######################################################################

data_INAMEP
_symmetry_cell_setting           monoclinic
_symmetry_space_group_name_H-M   'C 2/c'
_symmetry_Int_Tables_number      15
_space_group_name_Hall           '-C 2yn'
loop_
_symmetry_equiv_pos_site_id
_symmetry_equiv_pos_as_xyz
1 x,y,z
2 1/2+x,1/2+y,z
3 -x,y,1/2-z
4 1/2-x,1/2+y,1/2-z
5 -x,-y,-z
6 1/2-x,1/2-y,-z
7 x,-y,1/2+z
8 1/2+x,1/2-y,1/2+z
_cell_length_a                   15.156(3)
_cell_length_b                   14.152(3)
_cell_length_c                   6.7010(13)
_cell_angle_alpha                90
_cell_angle_beta                 103.43(3)
_cell_angle_gamma                90
_cell_volume                     1397.98
loop_
_atom_site_label
_atom_site_type_symbol
_atom_site_fract_x
_atom_site_fract_y
_atom_site_fract_z
Zn1 Zn 0.0000 0.80114(2) 0.2500
S1 S 0.0000 0.85877(5) -0.2500
O1 O -0.02652(13) 0.79932(11) -0.0928(2)
O2 O -0.07730(11) 0.91934(12) -0.3506(2)
O3 O -0.10141(12) 0.89832(11) 0.2489(3)
H1 H -0.0964(18) 0.9037(18) 0.377(3)
H2 H -0.0908(19) 0.9484(17) 0.194(4)
N1 N -0.08971(13) 0.68532(13) 0.2323(3)
C1 C -0.17895(18) 0.6872(2) 0.2157(4)
H3 H -0.2052(19) 0.7442(16) 0.227(4)
C2 C -0.2306(2) 0.6045(3) 0.2060(5)
H4 H -0.2884(15) 0.608(2) 0.203(5)
C3 C -0.1890(2) 0.5195(2) 0.2138(4)
H5 H -0.221(2) 0.4661(17) 0.204(4)
C4 C -0.0947(2) 0.51427(17) 0.2319(3)
C5 C -0.04854(16) 0.60069(15) 0.2398(3)
C6 C -0.0448(2) 0.42820(17) 0.2418(4)
H6 H -0.074(2) 0.3753(16) 0.245(5)
O1B O 0.02652(13) 0.79932(11) -0.4072(2)
O2B O 0.07730(11) 0.91934(12) -0.1494(2)
C5B C 0.04854(16) 0.60069(15) 0.2602(3)
N1B N 0.08971(13) 0.68532(13) 0.2677(3)
C1B C 0.17895(18) 0.6872(2) 0.2843(4)
H3B H 0.2052(19) 0.7442(16) 0.273(4)
C2B C 0.2306(2) 0.6045(3) 0.2940(5)
H4B H 0.2884(15) 0.608(2) 0.297(5)
C3B C 0.1890(2) 0.5195(2) 0.2862(4)
H5B H 0.221(2) 0.4661(17) 0.296(4)
C4B C 0.0947(2) 0.51427(17) 0.2681(3)
C6B C 0.0448(2) 0.42820(17) 0.2582(4)
H6B H 0.074(2) 0.3753(16) 0.255(5)
O3B O 0.10141(12) 0.89832(11) 0.2511(3)
H1B H 0.0964(18) 0.9037(18) 0.123(3)
H2B H 0.0908(19) 0.9484(17) 0.306(4)
O1B_2 O 0.02652(13) 0.79932(11) 0.5928(2)
Zn1_2 Zn 0.0000 0.80114(2) -0.7500
loop_
_geom_bond_atom_site_label_1
_geom_bond_atom_site_label_2
_geom_bond_site_symmetry_1
_geom_bond_site_symmetry_2
Zn1 O1 1_555 1_555
S1 O1 1_555 1_555
O2 S1 1_555 1_555
O3 Zn1 1_555 1_555
H1 O3 1_555 1_555
H2 O3 1_555 1_555
N1 Zn1 1_555 1_555
C1 N1 1_555 1_555
H3 C1 1_555 1_555
C2 C1 1_555 1_555
H4 C2 1_555 1_555
C3 C2 1_555 1_555
H5 C3 1_555 1_555
C4 C3 1_555 1_555
C5 N1 1_555 1_555
C6 C4 1_555 1_555
H6 C6 1_555 1_555
O1B S1 1_555 1_555
O2B S1 1_555 1_555
C5B C5 1_555 1_555
N1B Zn1 1_555 1_555
C1B N1B 1_555 1_555
H3B C1B 1_555 1_555
C2B C1B 1_555 1_555
H4B C2B 1_555 1_555
C3B C2B 1_555 1_555
H5B C3B 1_555 1_555
C4B C5B 1_555 1_555
C6B C6 1_555 1_555
H6B C6B 1_555 1_555
O3B Zn1 1_555 1_555
H1B O3B 1_555 1_555
H2B O3B 1_555 1_555
O1B_2 Zn1 1_555 1_555
Zn1_2 O1B 1_555 1_555
C4 C5 1_555 1_555
C5B N1B 1_555 1_555
C3B C4B 1_555 1_555
C4B C6B 1_555 1_555

#END
