
#######################################################################
#
#                 Cambridge Crystallographic Data Centre
#                                CCDC 
#
#######################################################################
#
# If this CIF has been generated from an entry in the Cambridge 
# Structural Database, then it will include bibliographic, chemical, 
# crystal, experimental, refinement or atomic coordinate data resulting 
# from the CCDC's data processing and validation procedures.
#
#######################################################################

data_INAMEP01
_symmetry_cell_setting           monoclinic
_symmetry_space_group_name_H-M   'C 2/c'
_symmetry_Int_Tables_number      15
_space_group_name_Hall           '-C 2yn'
loop_
_symmetry_equiv_pos_site_id
_symmetry_equiv_pos_as_xyz
1 x,y,z
2 -x,y,1/2-z
3 1/2+x,1/2+y,z
4 1/2-x,1/2+y,1/2-z
5 -x,-y,-z
6 x,-y,1/2+z
7 1/2-x,1/2-y,-z
8 1/2+x,1/2-y,1/2+z
_cell_length_a                   15.1333(9)
_cell_length_b                   14.1365(8)
_cell_length_c                   6.6942(4)
_cell_angle_alpha                90
_cell_angle_beta                 103.4400(10)
_cell_angle_gamma                90
_cell_volume                     1392.88
loop_
_atom_site_label
_atom_site_type_symbol
_atom_site_fract_x
_atom_site_fract_y
_atom_site_fract_z
Zn1 Zn 0.0000 0.198805(14) 0.2500
S1 S 0.0000 0.14132(3) 0.7500
O1 O 0.10142(8) 0.10147(7) 0.25092(16)
O2 O 0.02654(9) 0.20057(7) 0.59293(16)
O3 O 0.07738(8) 0.08054(7) 0.85055(16)
N1 N 0.08992(8) 0.31466(8) 0.26789(17)
C1 C 0.17903(11) 0.31283(13) 0.2838(3)
H1 H 0.2080 0.2546 0.2887
C2 C 0.23089(12) 0.39549(15) 0.2934(3)
H2 H 0.2932 0.3920 0.3045
C3 C 0.18905(15) 0.48086(14) 0.2862(3)
H3 H 0.2228 0.5362 0.2932
C4 C 0.09491(13) 0.48566(11) 0.2684(2)
C5 C 0.04819(9) 0.39914(8) 0.25975(17)
C6 C 0.04485(15) 0.57205(11) 0.2582(2)
H4 H 0.0754 0.6294 0.2632
H5 H 0.1008(16) 0.0948(15) 0.1270(16)
H6 H 0.0956(18) 0.0497(10) 0.303(3)
Zn1_2 Zn 0.0000 0.198805(14) 1.2500
O1A O -0.10142(8) 0.10147(7) 0.24908(16)
O2A O -0.02654(9) 0.20057(7) 0.90707(16)
O2A_2 O -0.02654(9) 0.20057(7) -0.09293(16)
O3A O -0.07738(8) 0.08054(7) 0.64945(16)
N1A N -0.08992(8) 0.31466(8) 0.23211(17)
C1A C -0.17903(11) 0.31283(13) 0.2162(3)
H1A H -0.2080 0.2546 0.2113
C2A C -0.23089(12) 0.39549(15) 0.2066(3)
H2A H -0.2932 0.3920 0.1955
C3A C -0.18905(15) 0.48086(14) 0.2138(3)
H3A H -0.2228 0.5362 0.2068
C4A C -0.09491(13) 0.48566(11) 0.2316(2)
C5A C -0.04819(9) 0.39914(8) 0.24025(17)
C6A C -0.04485(15) 0.57205(11) 0.2418(2)
H4A H -0.0754 0.6294 0.2368
H5A H -0.1008(16) 0.0948(15) 0.3730(16)
H6A H -0.0956(18) 0.0497(10) 0.197(3)
loop_
_geom_bond_atom_site_label_1
_geom_bond_atom_site_label_2
_geom_bond_site_symmetry_1
_geom_bond_site_symmetry_2
Zn1 O1 1_555 1_555
S1 O2 1_555 1_555
O1 H5 1_555 1_555
O2 Zn1 1_555 1_555
O3 S1 1_555 1_555
N1 Zn1 1_555 1_555
C1 N1 1_555 1_555
H1 C1 1_555 1_555
C2 C1 1_555 1_555
H2 C2 1_555 1_555
C3 C2 1_555 1_555
H3 C3 1_555 1_555
C4 C3 1_555 1_555
C5 N1 1_555 1_555
C6 C4 1_555 1_555
H4 C6 1_555 1_555
H6 O1 1_555 1_555
Zn1_2 O2A 1_555 1_555
O1A Zn1 1_555 1_555
O2A S1 1_555 1_555
O2A_2 Zn1 1_555 1_555
O3A S1 1_555 1_555
N1A Zn1 1_555 1_555
C1A N1A 1_555 1_555
H1A C1A 1_555 1_555
C2A C1A 1_555 1_555
H2A C2A 1_555 1_555
C3A C2A 1_555 1_555
H3A C3A 1_555 1_555
C4A C3A 1_555 1_555
C5A C5 1_555 1_555
C6A C6 1_555 1_555
H4A C6A 1_555 1_555
H5A O1A 1_555 1_555
H6A O1A 1_555 1_555
C4 C5 1_555 1_555
N1A C5A 1_555 1_555
C4A C5A 1_555 1_555
C4A C6A 1_555 1_555

#END
