
#######################################################################
#
#                 Cambridge Crystallographic Data Centre
#                                CCDC 
#
#######################################################################
#
# If this CIF has been generated from an entry in the Cambridge 
# Structural Database, then it will include bibliographic, chemical, 
# crystal, experimental, refinement or atomic coordinate data resulting 
# from the CCDC's data processing and validation procedures.
#
#######################################################################

data_INAMIU
_symmetry_cell_setting           monoclinic
_symmetry_space_group_name_H-M   'C 2/c'
_symmetry_Int_Tables_number      15
_space_group_name_Hall           '-C 2yn'
loop_
_symmetry_equiv_pos_site_id
_symmetry_equiv_pos_as_xyz
1 x,y,z
2 -x,y,1/2-z
3 1/2+x,1/2+y,z
4 1/2-x,1/2+y,1/2-z
5 -x,-y,-z
6 x,-y,1/2+z
7 1/2-x,1/2-y,-z
8 1/2+x,1/2-y,1/2+z
_cell_length_a                   19.998(4)
_cell_length_b                   9.3119(19)
_cell_length_c                   18.154(4)
_cell_angle_alpha                90
_cell_angle_beta                 95.58(3)
_cell_angle_gamma                90
_cell_volume                     3364.61
loop_
_atom_site_label
_atom_site_type_symbol
_atom_site_fract_x
_atom_site_fract_y
_atom_site_fract_z
Co1 Co 0.5000 0.5000 0.0000
C1 C 0.55597(18) 0.3276(4) 0.13686(17)
C2 C 0.53120(17) 0.2292(4) 0.19543(17)
C3 C 0.5000 0.3014(5) 0.2500
C4 C 0.53240(19) 0.0795(4) 0.19616(18)
C5 C 0.5000 0.0058(5) 0.2500
C6 C 0.5672(2) -0.0066(4) 0.1414(2)
O1 O 0.51749(14) 0.3342(3) 0.07790(12)
O2 O 0.60739(14) 0.4013(3) 0.15362(14)
O3 O 0.5597(2) -0.1366(3) 0.13676(19)
O4 O 0.60600(18) 0.0661(3) 0.10352(18)
H1 H 0.6193 0.0173 0.0665
N1 N 0.43017(15) 0.6045(3) 0.06710(15)
C7 C 0.4444(2) 0.6159(5) 0.1408(2)
H2 H 0.4854 0.5809 0.1618
C8 C 0.4017(2) 0.6763(5) 0.1867(2)
H3 H 0.4139 0.6797 0.2374
C9 C 0.3410(2) 0.7320(4) 0.1582(2)
C10 C 0.3262(2) 0.7223(5) 0.0819(2)
H4 H 0.2858 0.7577 0.0596
C11 C 0.3725(2) 0.6590(5) 0.0393(2)
H5 H 0.3621 0.6553 -0.0117
C12 C 0.2940(2) 0.8046(5) 0.2065(2)
H6 H 0.2556 0.8409 0.1753
H7 H 0.3169 0.8863 0.2306
C13 C 0.2689(3) 0.7085(5) 0.2654(2)
H8 H 0.2414 0.6325 0.2418
H9 H 0.3069 0.6645 0.2941
C14 C 0.2281(3) 0.7924(6) 0.3163(3)
H10 H 0.1901 0.8352 0.2870
H11 H 0.2556 0.8700 0.3382
C15 C 0.2021(2) 0.7055(5) 0.3779(2)
C16 C 0.2445(2) 0.6282(5) 0.4286(3)
H12 H 0.2902 0.6222 0.4231
C17 C 0.2189(2) 0.5610(5) 0.4867(2)
H13 H 0.2482 0.5119 0.5208
N2 N 0.15358(19) 0.5632(4) 0.49632(19)
C18 C 0.1127(2) 0.6347(6) 0.4476(3)
H14 H 0.0670 0.6362 0.4533
C19 C 0.1354(2) 0.7070(6) 0.3888(2)
H15 H 0.1051 0.7573 0.3562
O5 O 0.58129(13) 0.6154(3) 0.05742(13)
H16 H 0.5895 0.5456 0.0885
H17 H 0.5766 0.6689 0.0945
Co1A Co 0.5000 0.5000 0.5000
C1A C 0.44403(18) 0.3276(4) 0.36314(17)
C2A C 0.46880(17) 0.2292(4) 0.30457(17)
C4A C 0.46760(19) 0.0795(4) 0.30384(18)
C6A C 0.4328(2) -0.0066(4) 0.3586(2)
O1A O 0.48251(14) 0.3342(3) 0.42210(12)
O1D O 0.48251(14) 0.6658(3) -0.07790(12)
O2A O 0.39261(14) 0.4013(3) 0.34638(14)
O3A O 0.4403(2) -0.1366(3) 0.36324(19)
O4A O 0.39400(18) 0.0661(3) 0.39648(18)
H1A H 0.3807 0.0173 0.4335
N1D N 0.56983(15) 0.3955(3) -0.06710(15)
C7D C 0.5556(2) 0.3841(5) -0.1408(2)
H2D H 0.5146 0.4191 -0.1618
C8D C 0.5983(2) 0.3237(5) -0.1867(2)
H3D H 0.5861 0.3203 -0.2374
C9D C 0.6590(2) 0.2680(4) -0.1582(2)
C10D C 0.6738(2) 0.2777(5) -0.0819(2)
H4D H 0.7142 0.2423 -0.0596
C11D C 0.6275(2) 0.3410(5) -0.0393(2)
H5D H 0.6379 0.3447 0.0117
C12D C 0.7060(2) 0.1954(5) -0.2065(2)
H6D H 0.7444 0.1591 -0.1753
H7D H 0.6831 0.1137 -0.2306
C13D C 0.7311(3) 0.2915(5) -0.2654(2)
H8D H 0.7586 0.3675 -0.2418
H9D H 0.6931 0.3355 -0.2941
C14D C 0.7719(3) 0.2076(6) -0.3163(3)
H10D H 0.8099 0.1648 -0.2870
H11D H 0.7444 0.1300 -0.3382
C15D C 0.7979(2) 0.2945(5) -0.3779(2)
C16D C 0.7555(2) 0.3718(5) -0.4286(3)
H12D H 0.7098 0.3778 -0.4231
C17D C 0.7811(2) 0.4390(5) -0.4867(2)
H13D H 0.7518 0.4881 -0.5208
N2D N 0.84642(19) 0.4368(4) -0.49632(19)
C18D C 0.8873(2) 0.3653(6) -0.4476(3)
H14D H 0.9330 0.3638 -0.4533
C19D C 0.8646(2) 0.2930(6) -0.3888(2)
H15D H 0.8949 0.2427 -0.3562
O5D O 0.41871(13) 0.3846(3) -0.05742(13)
H16D H 0.4105 0.4544 -0.0885
H17D H 0.4234 0.3311 -0.0945
loop_
_geom_bond_atom_site_label_1
_geom_bond_atom_site_label_2
_geom_bond_site_symmetry_1
_geom_bond_site_symmetry_2
Co1 O1 1_555 1_555
C1 C2 1_555 1_555
C2 C3 1_555 1_555
C3 C2A 1_555 1_555
C4 C2 1_555 1_555
C5 C4 1_555 1_555
C6 C4 1_555 1_555
O1 C1 1_555 1_555
O2 C1 1_555 1_555
O3 C6 1_555 1_555
O4 C6 1_555 1_555
H1 O4 1_555 1_555
N1 Co1 1_555 1_555
C7 N1 1_555 1_555
H2 C7 1_555 1_555
C8 C7 1_555 1_555
H3 C8 1_555 1_555
C9 C8 1_555 1_555
C10 C9 1_555 1_555
H4 C10 1_555 1_555
C11 N1 1_555 1_555
H5 C11 1_555 1_555
C12 C9 1_555 1_555
H6 C12 1_555 1_555
H7 C12 1_555 1_555
C13 C12 1_555 1_555
H8 C13 1_555 1_555
H9 C13 1_555 1_555
C14 C13 1_555 1_555
H10 C14 1_555 1_555
H11 C14 1_555 1_555
C15 C14 1_555 1_555
C16 C15 1_555 1_555
H12 C16 1_555 1_555
C17 C16 1_555 1_555
H13 C17 1_555 1_555
N2 C17 1_555 1_555
C18 N2 1_555 1_555
H14 C18 1_555 1_555
C19 C15 1_555 1_555
H15 C19 1_555 1_555
O5 Co1 1_555 1_555
H16 O5 1_555 1_555
H17 O5 1_555 1_555
Co1A O1A 1_555 1_555
C1A C2A 1_555 1_555
C2A C4A 1_555 1_555
C4A C5 1_555 1_555
C6A C4A 1_555 1_555
O1A C1A 1_555 1_555
O1D Co1 1_555 1_555
O2A C1A 1_555 1_555
O3A C6A 1_555 1_555
O4A C6A 1_555 1_555
H1A O4A 1_555 1_555
N1D Co1 1_555 1_555
C7D N1D 1_555 1_555
H2D C7D 1_555 1_555
C8D C7D 1_555 1_555
H3D C8D 1_555 1_555
C9D C8D 1_555 1_555
C10D C9D 1_555 1_555
H4D C10D 1_555 1_555
C11D N1D 1_555 1_555
H5D C11D 1_555 1_555
C12D C9D 1_555 1_555
H6D C12D 1_555 1_555
H7D C12D 1_555 1_555
C13D C12D 1_555 1_555
H8D C13D 1_555 1_555
H9D C13D 1_555 1_555
C14D C13D 1_555 1_555
H10D C14D 1_555 1_555
H11D C14D 1_555 1_555
C15D C14D 1_555 1_555
C16D C15D 1_555 1_555
H12D C16D 1_555 1_555
C17D C16D 1_555 1_555
H13D C17D 1_555 1_555
N2D C17D 1_555 1_555
C18D N2D 1_555 1_555
H14D C18D 1_555 1_555
C19D C15D 1_555 1_555
H15D C19D 1_555 1_555
O5D Co1 1_555 1_555
H16D O5D 1_555 1_555
H17D O5D 1_555 1_555
C10 C11 1_555 1_555
C18 C19 1_555 1_555
C10D C11D 1_555 1_555
C18D C19D 1_555 1_555

#END
