
#######################################################################
#
#                 Cambridge Crystallographic Data Centre
#                                CCDC 
#
#######################################################################
#
# If this CIF has been generated from an entry in the Cambridge 
# Structural Database, then it will include bibliographic, chemical, 
# crystal, experimental, refinement or atomic coordinate data resulting 
# from the CCDC's data processing and validation procedures.
#
#######################################################################

data_INASOF
_symmetry_cell_setting           orthorhombic
_symmetry_space_group_name_H-M   'P 21 21 21'
_symmetry_Int_Tables_number      19
_space_group_name_Hall           'P 2ac 2ab'
loop_
_symmetry_equiv_pos_site_id
_symmetry_equiv_pos_as_xyz
1 x,y,z
2 1/2-x,-y,1/2+z
3 1/2+x,1/2-y,-z
4 -x,1/2+y,1/2-z
_cell_length_a                   8.6702(7)
_cell_length_b                   9.558(2)
_cell_length_c                   17.009(2)
_cell_angle_alpha                90
_cell_angle_beta                 90
_cell_angle_gamma                90
_cell_volume                     1409.53
loop_
_atom_site_label
_atom_site_type_symbol
_atom_site_fract_x
_atom_site_fract_y
_atom_site_fract_z
Nd1 Nd 0.62573(10) 0.74514(6) 0.14358(3)
Nd2 Nd 0.87346(10) 0.73804(7) 0.36286(3)
O1 O 0.4245(13) 0.6100(12) 0.0744(6)
O2 O 0.5184(12) 0.5310(12) 0.2190(7)
O3 O 0.7461(13) 0.5490(12) 0.0796(6)
O4 O 0.8407(11) 0.6145(12) 0.2294(6)
O5 O 0.8995(13) 0.8117(11) 0.1075(6)
O6 O 0.6735(13) 1.0025(10) 0.1347(7)
O7 O 0.5903(17) 0.8207(13) 0.0068(6)
O8 O 0.3606(18) 0.8418(10) 0.1738(7)
O9 O 0.2567(13) 0.4342(12) 0.0710(6)
O10 O 0.3505(12) 0.3487(10) 0.2160(6)
O11 O 0.6176(16) 0.6315(12) 0.4007(6)
O12 O 0.8787(18) 0.6900(11) 0.5073(5)
O13 O 0.9442(13) 0.3992(13) 0.0695(6)
O14 O 1.0210(13) 0.4397(12) 0.2197(7)
O15 O 1.0776(12) 0.9833(13) 0.1115(7)
O16 O 0.8548(16) 1.1706(12) 0.1486(8)
C1 C 0.3604(17) 0.5040(13) 0.1046(8)
C2 C 0.4149(17) 0.4587(15) 0.1876(8)
C3 C 0.8643(17) 0.4879(14) 0.1055(8)
C4 C 0.9138(16) 0.5191(16) 0.1928(8)
C5 C 0.9425(15) 0.9364(17) 0.1161(8)
C6 C 0.8122(17) 1.0455(17) 0.1348(9)
H1 H 0.638403 0.908328 -0.018525
H2 H 0.307830 0.780583 0.210620
H3 H 0.601210 0.532290 0.409500
H4 H 0.573010 0.709190 0.429400
H5 H 0.857520 0.590430 0.516480
H6 H 0.866420 0.746730 0.554080
H7 H 0.362129 0.854883 0.117320
H8 H 0.524693 0.746528 -0.013135
O10C O 0.6495(12) 0.8487(10) 0.2840(6)
O9C O 0.7433(13) 0.9342(12) 0.4290(6)
O13C O 1.0558(13) 0.8992(13) 0.4305(6)
O14C O 0.9790(13) 0.9397(12) 0.2803(7)
O15C O 0.9224(12) 0.4833(13) 0.3885(7)
O16C O 1.1452(16) 0.6706(12) 0.3514(8)
Nd2C Nd 0.12654(10) 0.23804(7) 0.13714(3)
Nd1C Nd 0.37427(10) 0.24514(6) 0.35642(3)
Nd2C_2 Nd 1.12654(10) 0.23804(7) 0.13714(3)
Nd2C_3 Nd 1.12654(10) 1.23804(7) 0.13714(3)
loop_
_geom_bond_atom_site_label_1
_geom_bond_atom_site_label_2
_geom_bond_site_symmetry_1
_geom_bond_site_symmetry_2
Nd1 O1 1_555 1_555
Nd2 O4 1_555 1_555
O1 C1 1_555 1_555
O2 Nd1 1_555 1_555
O3 Nd1 1_555 1_555
O4 Nd1 1_555 1_555
O5 Nd1 1_555 1_555
O6 Nd1 1_555 1_555
O7 Nd1 1_555 1_555
O8 Nd1 1_555 1_555
O9 C1 1_555 1_555
O10 C2 1_555 1_555
O11 Nd2 1_555 1_555
O12 Nd2 1_555 1_555
O13 C3 1_555 1_555
O14 C4 1_555 1_555
O15 C5 1_555 1_555
O16 C6 1_555 1_555
C1 C2 1_555 1_555
C2 O2 1_555 1_555
C3 O3 1_555 1_555
C4 O4 1_555 1_555
C5 O5 1_555 1_555
C6 O6 1_555 1_555
H1 O7 1_555 1_555
H2 O8 1_555 1_555
H3 O11 1_555 1_555
H4 O11 1_555 1_555
H5 O12 1_555 1_555
H6 O12 1_555 1_555
H7 O8 1_555 1_555
H8 O7 1_555 1_555
O10C Nd1 1_555 1_555
O9C Nd2 1_555 1_555
O13C Nd2 1_555 1_555
O14C Nd2 1_555 1_555
O15C Nd2 1_555 1_555
O16C Nd2 1_555 1_555
Nd2C O9 1_555 1_555
Nd1C O10 1_555 1_555
Nd2C_2 O13 1_555 1_555
Nd2C_3 O15 1_555 1_555
Nd2 O10C 1_555 1_555
O10 Nd2C 1_555 1_555
O14 Nd2C_2 1_555 1_555
O16 Nd2C_3 1_555 1_555
C3 C4 1_555 1_555
C5 C6 1_555 1_555

#END
