
#######################################################################
#
#                 Cambridge Crystallographic Data Centre
#                                CCDC 
#
#######################################################################
#
# If this CIF has been generated from an entry in the Cambridge 
# Structural Database, then it will include bibliographic, chemical, 
# crystal, experimental, refinement or atomic coordinate data resulting 
# from the CCDC's data processing and validation procedures.
#
#######################################################################

data_INATOG
_symmetry_cell_setting           triclinic
_symmetry_space_group_name_H-M   'P -1'
_symmetry_Int_Tables_number      2
_space_group_name_Hall           '-P 1'
loop_
_symmetry_equiv_pos_site_id
_symmetry_equiv_pos_as_xyz
1 x,y,z
2 -x,-y,-z
_cell_length_a                   5.640(5)
_cell_length_b                   9.499(8)
_cell_length_c                   14.844(16)
_cell_angle_alpha                84.244(12)
_cell_angle_beta                 79.049(15)
_cell_angle_gamma                72.731(8)
_cell_volume                     744.762
loop_
_atom_site_label
_atom_site_type_symbol
_atom_site_fract_x
_atom_site_fract_y
_atom_site_fract_z
Ag1 Ag -0.66556(7) -0.62875(4) 0.36665(3)
N1 N -0.3406(7) -0.6531(4) 0.4289(3)
N2 N 0.0855(8) -0.6505(5) 0.2788(3)
C1 C -0.1336(8) -0.7865(5) 0.4032(3)
C2 C -0.0248(9) -0.7759(6) 0.3041(3)
C3 C -0.2272(12) -0.9210(6) 0.4290(5)
H1 H -0.292(8) -0.572(5) 0.422(3)
H2 H -0.380(8) -0.657(4) 0.488(3)
H3 H 0.147(17) -0.670(8) 0.229(6)
H4 H -0.070(11) -0.575(6) 0.266(3)
H5 H -0.002(7) -0.782(3) 0.427(2)
H6 H -0.155(8) -0.776(4) 0.275(3)
H7 H 0.119(9) -0.861(5) 0.291(3)
H8 H -0.074(13) -1.006(7) 0.408(4)
H9 H -0.295(8) -0.908(4) 0.491(3)
H10 H -0.356(12) -0.922(6) 0.400(4)
N2_2 N -0.9145(8) -0.6505(5) 0.2788(3)
Ag1_2 Ag 0.33444(7) -0.62875(4) 0.36665(3)
H3_2 H -0.853(17) -0.670(8) 0.229(6)
H4_2 H -1.070(11) -0.575(6) 0.266(3)
N3 N -0.5684(12) -0.3162(5) -0.0454(3)
N4 N -1.3293(8) -0.0398(4) 0.1560(3)
O1 O -0.6931(5) -0.2946(4) 0.3659(2)
O2 O -0.3295(6) -0.3683(4) 0.2700(2)
O3 O -0.3439(10) -0.3787(5) -0.0557(3)
O4 O -0.6874(11) -0.2923(5) -0.1063(3)
O5 O -1.4326(7) -0.0050(4) 0.0895(3)
O6 O -1.4260(7) 0.0005(4) 0.2321(3)
C4 C -0.5639(7) -0.3137(4) 0.2879(3)
C5 C -0.6996(7) -0.2666(4) 0.2071(2)
C6 C -0.5773(9) -0.3109(4) 0.1185(3)
C7 C -0.7033(10) -0.2687(4) 0.0465(3)
C8 C -0.9499(9) -0.1813(5) 0.0558(3)
C9 C -1.0660(8) -0.1360(4) 0.1435(3)
C10 C -0.9472(7) -0.1784(4) 0.2180(3)
H11 H -0.415(9) -0.374(5) 0.111(3)
H12 H -1.046(8) -0.163(4) 0.011(3)
H13 H -1.034(7) -0.149(4) 0.278(3)
N5 N -0.1506(8) -0.3549(5) 0.4335(3)
H14 H 0.019(2) -0.373(5) 0.412(3)
H15 H -0.220(8) -0.339(5) 0.381(2)
H16 H -0.191(9) -0.262(3) 0.455(3)
loop_
_geom_bond_atom_site_label_1
_geom_bond_atom_site_label_2
_geom_bond_site_symmetry_1
_geom_bond_site_symmetry_2
Ag1 N1 1_555 1_555
N1 C1 1_555 1_555
N2 C2 1_555 1_555
C1 C2 1_555 1_555
C2 H6 1_555 1_555
C3 C1 1_555 1_555
H1 N1 1_555 1_555
H2 N1 1_555 1_555
H3 N2 1_555 1_555
H4 N2 1_555 1_555
H5 C1 1_555 1_555
H7 C2 1_555 1_555
H8 C3 1_555 1_555
H9 C3 1_555 1_555
H10 C3 1_555 1_555
N3 O3 1_555 1_555
N4 O5 1_555 1_555
O1 C4 1_555 1_555
O2 C4 1_555 1_555
O4 N3 1_555 1_555
O6 N4 1_555 1_555
C4 C5 1_555 1_555
C5 C6 1_555 1_555
C6 C7 1_555 1_555
C7 N3 1_555 1_555
C8 C7 1_555 1_555
C9 N4 1_555 1_555
C10 C5 1_555 1_555
H11 C6 1_555 1_555
H12 C8 1_555 1_555
H13 C10 1_555 1_555
N5 H14 1_555 1_555
H15 N5 1_555 1_555
H16 N5 1_555 1_555
N2_2 Ag1 1_555 1_555
Ag1_2 N2 1_555 1_555
H3_2 N2_2 1_555 1_555
H4_2 N2_2 1_555 1_555
C8 C9 1_555 1_555
C9 C10 1_555 1_555

#END
