
#######################################################################
#
#                 Cambridge Crystallographic Data Centre
#                                CCDC 
#
#######################################################################
#
# If this CIF has been generated from an entry in the Cambridge 
# Structural Database, then it will include bibliographic, chemical, 
# crystal, experimental, refinement or atomic coordinate data resulting 
# from the CCDC's data processing and validation procedures.
#
#######################################################################

data_INAZAY
_symmetry_cell_setting           monoclinic
_symmetry_space_group_name_H-M   'P 21/n'
_symmetry_Int_Tables_number      14
_space_group_name_Hall           '-P 2yn'
loop_
_symmetry_equiv_pos_site_id
_symmetry_equiv_pos_as_xyz
1 x,y,z
2 1/2+x,1/2-y,1/2+z
3 -x,-y,-z
4 1/2-x,1/2+y,1/2-z
_cell_length_a                   9.4199(5)
_cell_length_b                   8.6557(5)
_cell_length_c                   10.1261(7)
_cell_angle_alpha                90
_cell_angle_beta                 99.872(4)
_cell_angle_gamma                90
_cell_volume                     813.415
loop_
_atom_site_label
_atom_site_type_symbol
_atom_site_fract_x
_atom_site_fract_y
_atom_site_fract_z
Cu1 Cu 1.0000 0.0000 0.5000
O1 O 0.95412(15) 0.21538(16) 0.54973(14)
O2 O 0.78469(17) 0.27134(19) 0.37361(16)
O3 O 1.1056(2) -0.0229(2) 0.74057(18)
N1 N 0.68873(18) 0.4264(2) 0.95299(16)
C1 C 0.8565(2) 0.3002(2) 0.4861(2)
C2 C 0.8247(3) 0.4528(3) 0.5501(2)
C3 C 0.9140(2) 0.4975(3) 0.6846(2)
C4 C 0.8647(2) 0.4302(2) 0.8067(2)
C5 C 0.7347(2) 0.4762(2) 0.8419(2)
C6 C 0.7727(2) 0.3287(3) 1.0339(2)
C7 C 0.9031(2) 0.2776(3) 1.0061(2)
C8 C 0.9489(2) 0.3283(3) 0.8912(2)
H1 H 1.159(3) -0.106(4) 0.712(3)
H2 H 1.163(4) 0.044(4) 0.775(3)
H3 H 0.839(3) 0.534(3) 0.483(3)
H4 H 0.724(3) 0.452(3) 0.553(3)
H5 H 0.910(3) 0.610(3) 0.693(3)
H6 H 1.014(3) 0.464(3) 0.686(3)
H7 H 0.670(3) 0.541(3) 0.786(2)
H8 H 0.740(3) 0.295(3) 1.113(2)
H9 H 0.960(3) 0.210(3) 1.064(3)
H10 H 1.039(3) 0.294(3) 0.870(3)
O1B O 1.04588(15) -0.21538(16) 0.45027(14)
O2B O 1.21531(17) -0.27134(19) 0.62639(16)
N1B N 1.31127(18) -0.4264(2) 0.04701(16)
C1B C 1.1435(2) -0.3002(2) 0.5139(2)
C2B C 1.1753(3) -0.4528(3) 0.4499(2)
C3B C 1.0860(2) -0.4975(3) 0.3154(2)
C4B C 1.1353(2) -0.4302(2) 0.1933(2)
C5B C 1.2653(2) -0.4762(2) 0.1581(2)
C6B C 1.2273(2) -0.3287(3) -0.0339(2)
C7B C 1.0969(2) -0.2776(3) -0.0061(2)
C8B C 1.0511(2) -0.3283(3) 0.1088(2)
H3B H 1.161(3) -0.534(3) 0.517(3)
H4B H 1.276(3) -0.452(3) 0.447(3)
H5B H 1.090(3) -0.610(3) 0.307(3)
H6B H 0.986(3) -0.464(3) 0.314(3)
H7B H 1.330(3) -0.541(3) 0.214(2)
H8B H 1.260(3) -0.295(3) -0.113(2)
H9B H 1.040(3) -0.210(3) -0.064(3)
H10B H 0.961(3) -0.294(3) 0.130(3)
O3B O 0.8944(2) 0.0229(2) 0.25943(18)
H1B H 0.841(3) 0.106(4) 0.288(3)
H2B H 0.837(4) -0.044(4) 0.225(3)
N1A N 1.18873(18) 0.0736(2) 0.45299(16)
N1C N 0.81127(18) -0.0736(2) 0.54701(16)
Cu1A Cu 0.5000 0.5000 1.0000
Cu1C Cu 1.5000 -0.5000 0.0000
loop_
_geom_bond_atom_site_label_1
_geom_bond_atom_site_label_2
_geom_bond_site_symmetry_1
_geom_bond_site_symmetry_2
Cu1 O1 1_555 1_555
O1 C1 1_555 1_555
O2 C1 1_555 1_555
O3 Cu1 1_555 1_555
N1 C5 1_555 1_555
C1 C2 1_555 1_555
C2 C3 1_555 1_555
C3 C4 1_555 1_555
C4 C5 1_555 1_555
C5 H7 1_555 1_555
C6 N1 1_555 1_555
C7 C6 1_555 1_555
C8 C4 1_555 1_555
H1 O3 1_555 1_555
H2 O3 1_555 1_555
H3 C2 1_555 1_555
H4 C2 1_555 1_555
H5 C3 1_555 1_555
H6 C3 1_555 1_555
H8 C6 1_555 1_555
H9 C7 1_555 1_555
H10 C8 1_555 1_555
O1B Cu1 1_555 1_555
O2B C1B 1_555 1_555
N1B C5B 1_555 1_555
C1B O1B 1_555 1_555
C2B C1B 1_555 1_555
C3B C2B 1_555 1_555
C4B C3B 1_555 1_555
C5B C4B 1_555 1_555
C6B N1B 1_555 1_555
C7B C6B 1_555 1_555
C8B C4B 1_555 1_555
H3B C2B 1_555 1_555
H4B C2B 1_555 1_555
H5B C3B 1_555 1_555
H6B C3B 1_555 1_555
H7B C5B 1_555 1_555
H8B C6B 1_555 1_555
H9B C7B 1_555 1_555
H10B C8B 1_555 1_555
O3B Cu1 1_555 1_555
H1B O3B 1_555 1_555
H2B O3B 1_555 1_555
N1A Cu1 1_555 1_555
N1C Cu1 1_555 1_555
Cu1A N1 1_555 1_555
Cu1C N1B 1_555 1_555
C7 C8 1_555 1_555
C7B C8B 1_555 1_555

#END
