
#######################################################################
#
#                 Cambridge Crystallographic Data Centre
#                                CCDC 
#
#######################################################################
#
# If this CIF has been generated from an entry in the Cambridge 
# Structural Database, then it will include bibliographic, chemical, 
# crystal, experimental, refinement or atomic coordinate data resulting 
# from the CCDC's data processing and validation procedures.
#
#######################################################################

data_INAZAY01
_symmetry_cell_setting           monoclinic
_symmetry_space_group_name_H-M   'P 21/n'
_symmetry_Int_Tables_number      14
_space_group_name_Hall           '-P 2yn'
loop_
_symmetry_equiv_pos_site_id
_symmetry_equiv_pos_as_xyz
1 x,y,z
2 1/2-x,1/2+y,1/2-z
3 -x,-y,-z
4 1/2+x,1/2-y,1/2+z
_cell_length_a                   9.431(2)
_cell_length_b                   8.6523(18)
_cell_length_c                   10.128(2)
_cell_angle_alpha                90
_cell_angle_beta                 99.879(4)
_cell_angle_gamma                90
_cell_volume                     814.189
loop_
_atom_site_label
_atom_site_type_symbol
_atom_site_fract_x
_atom_site_fract_y
_atom_site_fract_z
Cu1 Cu -0.5000 0.0000 0.0000
O1 O -0.45440(13) 0.21545(14) -0.04968(12)
O2 O -0.28441(14) 0.27145(16) 0.12671(13)
O3 O -0.39511(16) 0.02276(19) 0.24067(15)
N1 N -0.18917(15) 0.42655(16) -0.45317(14)
C1 C -0.23464(18) 0.4768(2) -0.34158(17)
C2 C -0.36475(18) 0.4307(2) -0.30671(17)
C3 C -0.44942(19) 0.3287(2) -0.39133(19)
C4 C -0.4038(2) 0.2774(2) -0.5066(2)
C5 C -0.27289(19) 0.3289(2) -0.53405(18)
C6 C -0.4136(2) 0.4980(2) -0.18432(18)
C7 C -0.3242(2) 0.4531(2) -0.04960(19)
C8 C -0.35658(17) 0.30061(19) 0.01355(17)
H1 H -0.172(2) 0.548(2) -0.286(2)
H2 H -0.538(2) 0.293(3) -0.367(2)
H3 H -0.460(2) 0.206(3) -0.568(2)
H4 H -0.241(2) 0.298(2) -0.615(2)
H5 H -0.510(3) 0.465(3) -0.188(2)
H6 H -0.409(2) 0.611(3) -0.193(2)
H7 H -0.336(2) 0.534(3) 0.012(2)
H8 H -0.224(3) 0.450(3) -0.055(2)
H9 H -0.343(3) -0.045(3) 0.274(3)
H10 H -0.346(3) 0.097(3) 0.220(2)
Cu1C Cu 0.0000 0.5000 -0.5000
Cu1C_2 Cu -1.0000 -0.5000 0.5000
O1B O -0.54560(13) -0.21545(14) 0.04968(12)
O2B O -0.71559(14) -0.27145(16) -0.12671(13)
O3B O -0.60489(16) -0.02276(19) -0.24067(15)
N1C N -0.68917(15) 0.07345(16) 0.04683(14)
N1A N -0.31083(15) -0.07345(16) -0.04683(14)
N1B N -0.81083(15) -0.42655(16) 0.45317(14)
C1B C -0.76536(18) -0.4768(2) 0.34158(17)
C2B C -0.63525(18) -0.4307(2) 0.30671(17)
C3B C -0.55058(19) -0.3287(2) 0.39133(19)
C4B C -0.5962(2) -0.2774(2) 0.5066(2)
C5B C -0.72711(19) -0.3289(2) 0.53405(18)
C6B C -0.5864(2) -0.4980(2) 0.18432(18)
C7B C -0.6758(2) -0.4531(2) 0.04960(19)
C8B C -0.64342(17) -0.30061(19) -0.01355(17)
H1B H -0.828(2) -0.548(2) 0.286(2)
H2B H -0.462(2) -0.293(3) 0.367(2)
H3B H -0.540(2) -0.206(3) 0.568(2)
H4B H -0.759(2) -0.298(2) 0.615(2)
H5B H -0.490(3) -0.465(3) 0.188(2)
H6B H -0.591(2) -0.611(3) 0.193(2)
H7B H -0.664(2) -0.534(3) -0.012(2)
H8B H -0.776(3) -0.450(3) 0.055(2)
H9B H -0.657(3) 0.045(3) -0.274(3)
H10B H -0.654(3) -0.097(3) -0.220(2)
loop_
_geom_bond_atom_site_label_1
_geom_bond_atom_site_label_2
_geom_bond_site_symmetry_1
_geom_bond_site_symmetry_2
Cu1 O1 1_555 1_555
O1 C8 1_555 1_555
O2 C8 1_555 1_555
O3 Cu1 1_555 1_555
N1 C1 1_555 1_555
C1 C2 1_555 1_555
C2 C3 1_555 1_555
C3 C4 1_555 1_555
C4 C5 1_555 1_555
C5 N1 1_555 1_555
C6 C2 1_555 1_555
C7 C6 1_555 1_555
C8 C7 1_555 1_555
H1 C1 1_555 1_555
H2 C3 1_555 1_555
H3 C4 1_555 1_555
H4 C5 1_555 1_555
H5 C6 1_555 1_555
H6 C6 1_555 1_555
H7 C7 1_555 1_555
H8 C7 1_555 1_555
H9 O3 1_555 1_555
H10 O3 1_555 1_555
Cu1C N1 1_555 1_555
Cu1C_2 N1B 1_555 1_555
O1B Cu1 1_555 1_555
O2B C8B 1_555 1_555
O3B Cu1 1_555 1_555
N1C Cu1 1_555 1_555
N1A Cu1 1_555 1_555
N1B C1B 1_555 1_555
C1B C2B 1_555 1_555
C2B C3B 1_555 1_555
C3B C4B 1_555 1_555
C4B C5B 1_555 1_555
C5B N1B 1_555 1_555
C6B C2B 1_555 1_555
C7B C6B 1_555 1_555
C8B O1B 1_555 1_555
H1B C1B 1_555 1_555
H2B C3B 1_555 1_555
H3B C4B 1_555 1_555
H4B C5B 1_555 1_555
H5B C6B 1_555 1_555
H6B C6B 1_555 1_555
H7B C7B 1_555 1_555
H8B C7B 1_555 1_555
H9B O3B 1_555 1_555
H10B O3B 1_555 1_555
C7B C8B 1_555 1_555

#END
