
#######################################################################
#
#                 Cambridge Crystallographic Data Centre
#                                CCDC 
#
#######################################################################
#
# If this CIF has been generated from an entry in the Cambridge 
# Structural Database, then it will include bibliographic, chemical, 
# crystal, experimental, refinement or atomic coordinate data resulting 
# from the CCDC's data processing and validation procedures.
#
#######################################################################

data_INAZUS
_symmetry_cell_setting           monoclinic
_symmetry_space_group_name_H-M   'P 21/c'
_symmetry_Int_Tables_number      14
_space_group_name_Hall           '-P 2ybc'
loop_
_symmetry_equiv_pos_site_id
_symmetry_equiv_pos_as_xyz
1 x,y,z
2 x,1/2-y,1/2+z
3 -x,-y,-z
4 -x,1/2+y,1/2-z
_cell_length_a                   8.589(2)
_cell_length_b                   17.585(2)
_cell_length_c                   9.479(2)
_cell_angle_alpha                90
_cell_angle_beta                 115.690(10)
_cell_angle_gamma                90
_cell_volume                     1290.17
loop_
_atom_site_label
_atom_site_type_symbol
_atom_site_fract_x
_atom_site_fract_y
_atom_site_fract_z
Cu1 Cu 0.68077(4) 0.294499(17) 0.27034(4)
S1 S 0.85727(9) 0.43945(4) 0.20767(9)
O1 O 0.8224(3) 0.35685(10) 0.2007(2)
O2 O 0.7577(3) 0.47527(11) 0.0596(3)
O3 O 1.0411(3) 0.45376(12) 0.2727(3)
O4 O 0.5705(2) 0.21826(10) 0.3327(2)
O5 O -0.0095(3) 0.29446(12) 0.5598(3)
O6 O 0.7792(3) 0.21035(11) 0.2050(3)
N1 N 0.5678(3) 0.37876(12) 0.3250(3)
C1 C 0.7845(4) 0.47539(16) 0.3418(4)
H1 H 0.8523 0.4531 0.4440
H2 H 0.8022 0.5300 0.3509
C2 C 0.5969(4) 0.45848(15) 0.2926(4)
H3 H 0.5529 0.4922 0.3478
H4 H 0.5329 0.4684 0.1814
C3 C 0.4524(3) 0.36867(14) 0.3751(3)
H5 H 0.4038 0.4124 0.3944
C4 C 0.3896(3) 0.29738(14) 0.4049(3)
C5 C 0.4535(3) 0.22545(14) 0.3831(3)
C6 C 0.3852(4) 0.15931(15) 0.4196(3)
H6 H 0.4271 0.1119 0.4092
C7 C 0.2590(3) 0.16365(15) 0.4698(3)
H7 H 0.2142 0.1191 0.4906
C8 C 0.1947(3) 0.23476(16) 0.4908(3)
C9 C 0.2622(3) 0.29984(15) 0.4583(3)
H8 H 0.2214 0.3468 0.4726
C10 C 0.0592(4) 0.23707(18) 0.5443(3)
H11 H 0.843(4) 0.2100(18) 0.163(4)
H12 H 0.767(4) 0.1659(8) 0.222(3)
H13 H 0.016(4) 0.1875(16) 0.572(3)
O5_2 O 0.9905(3) 0.29446(12) 0.5598(3)
Cu1_2 Cu -0.31923(4) 0.294499(17) 0.27034(4)
O7 O 0.7509(4) 0.06476(14) 0.2639(4)
H9 H 0.832(5) 0.040(3) 0.267(6)
H10 H 0.765(6) 0.063(2) 0.355(2)
loop_
_geom_bond_atom_site_label_1
_geom_bond_atom_site_label_2
_geom_bond_site_symmetry_1
_geom_bond_site_symmetry_2
Cu1 O1 1_555 1_555
S1 O1 1_555 1_555
O2 S1 1_555 1_555
O3 S1 1_555 1_555
O4 Cu1 1_555 1_555
O5 C10 1_555 1_555
O6 Cu1 1_555 1_555
O7 H9 1_555 1_555
N1 Cu1 1_555 1_555
C1 S1 1_555 1_555
H1 C1 1_555 1_555
H2 C1 1_555 1_555
C2 N1 1_555 1_555
H3 C2 1_555 1_555
H4 C2 1_555 1_555
C3 N1 1_555 1_555
H5 C3 1_555 1_555
C4 C3 1_555 1_555
C5 O4 1_555 1_555
C6 C5 1_555 1_555
H6 C6 1_555 1_555
C7 C6 1_555 1_555
H7 C7 1_555 1_555
C8 C7 1_555 1_555
C9 C4 1_555 1_555
H8 C9 1_555 1_555
C10 C8 1_555 1_555
H10 O7 1_555 1_555
H11 O6 1_555 1_555
H12 O6 1_555 1_555
H13 C10 1_555 1_555
O5_2 Cu1 1_555 1_555
Cu1_2 O5 1_555 1_555
C1 C2 1_555 1_555
C4 C5 1_555 1_555
C8 C9 1_555 1_555

#END
