
#######################################################################
#
#                 Cambridge Crystallographic Data Centre
#                                CCDC 
#
#######################################################################
#
# If this CIF has been generated from an entry in the Cambridge 
# Structural Database, then it will include bibliographic, chemical, 
# crystal, experimental, refinement or atomic coordinate data resulting 
# from the CCDC's data processing and validation procedures.
#
#######################################################################

data_INEBEI
_symmetry_cell_setting           orthorhombic
_symmetry_space_group_name_H-M   'P c a 21'
_symmetry_Int_Tables_number      29
_space_group_name_Hall           'P 2c -2ac'
loop_
_symmetry_equiv_pos_site_id
_symmetry_equiv_pos_as_xyz
1 x,y,z
2 -x,-y,1/2+z
3 1/2+x,-y,z
4 1/2-x,y,1/2+z
_cell_length_a                   16.082(3)
_cell_length_b                   6.7450(10)
_cell_length_c                   8.467(2)
_cell_angle_alpha                90
_cell_angle_beta                 90
_cell_angle_gamma                90
_cell_volume                     918.442
loop_
_atom_site_label
_atom_site_type_symbol
_atom_site_fract_x
_atom_site_fract_y
_atom_site_fract_z
Co1 Co 0.40344(3) 0.42124(7) 0.50000(8)
O1 O 0.2857(2) 0.5111(4) 0.4437(4)
O2 O 0.1518(2) 0.4591(3) 0.4898(5)
O3 O 0.0668(2) 0.2884(4) 0.7847(3)
O4 O 0.0570(2) 0.0870(4) 0.5801(4)
O5 O 0.4560(2) 0.6767(4) 0.4040(4)
O6 O 0.5235(2) 0.3047(4) 0.5730(4)
O7 O 0.4104(2) 0.5760(5) 0.7089(3)
N1 N 0.3301(2) 0.2040(5) 0.6186(4)
C1 C 0.2269(2) 0.4193(5) 0.5079(8)
C2 C 0.2485(3) 0.2468(6) 0.6107(5)
C3 C 0.1893(2) 0.1350(6) 0.6911(5)
C4 C 0.0977(2) 0.1767(6) 0.6825(5)
C5 C 0.2166(3) -0.0231(6) 0.7800(6)
C6 C 0.2994(3) -0.0630(6) 0.7903(6)
C7 C 0.3541(3) 0.0533(6) 0.7062(5)
H1 H 0.489(2) 0.757(5) 0.451(3)
H2 H 0.465(2) 0.682(6) 0.3050(10)
H3 H 0.536(2) 0.184(2) 0.553(5)
H4 H 0.5680(10) 0.373(4) 0.559(5)
H5 H 0.393(2) 0.538(6) 0.798(2)
H6 H 0.4580(10) 0.629(6) 0.716(4)
H7 H 0.1785 -0.1025 0.8331
H8 H 0.3186 -0.1667 0.8528
H9 H 0.4105 0.0241 0.7116
Co1C Co 0.09656(3) 0.42124(7) 1.00000(8)
O3C O 0.4332(2) 0.2884(4) 0.2847(3)
loop_
_geom_bond_atom_site_label_1
_geom_bond_atom_site_label_2
_geom_bond_site_symmetry_1
_geom_bond_site_symmetry_2
Co1 O1 1_555 1_555
O1 C1 1_555 1_555
O2 C1 1_555 1_555
O3 C4 1_555 1_555
O4 C4 1_555 1_555
O5 Co1 1_555 1_555
O6 Co1 1_555 1_555
O7 Co1 1_555 1_555
N1 Co1 1_555 1_555
C1 C2 1_555 1_555
C2 N1 1_555 1_555
C3 C2 1_555 1_555
C4 C3 1_555 1_555
C5 C3 1_555 1_555
C6 C5 1_555 1_555
C7 N1 1_555 1_555
H1 O5 1_555 1_555
H2 O5 1_555 1_555
H3 O6 1_555 1_555
H4 O6 1_555 1_555
H5 O7 1_555 1_555
H6 O7 1_555 1_555
H7 C5 1_555 1_555
H8 C6 1_555 1_555
H9 C7 1_555 1_555
Co1C O3 1_555 1_555
O3C Co1 1_555 1_555
C6 C7 1_555 1_555

#END
