
#######################################################################
#
#                 Cambridge Crystallographic Data Centre
#                                CCDC 
#
#######################################################################
#
# If this CIF has been generated from an entry in the Cambridge 
# Structural Database, then it will include bibliographic, chemical, 
# crystal, experimental, refinement or atomic coordinate data resulting 
# from the CCDC's data processing and validation procedures.
#
#######################################################################

data_INEBEI01
_symmetry_cell_setting           triclinic
_symmetry_space_group_name_H-M   'P -1'
_symmetry_Int_Tables_number      2
_space_group_name_Hall           '-P 1'
loop_
_symmetry_equiv_pos_site_id
_symmetry_equiv_pos_as_xyz
1 x,y,z
2 -x,-y,-z
_cell_length_a                   6.7968(3)
_cell_length_b                   7.3154(2)
_cell_length_c                   10.3869(5)
_cell_angle_alpha                93.063(3)
_cell_angle_beta                 90.517(4)
_cell_angle_gamma                112.923(3)
_cell_volume                     474.736
loop_
_atom_site_label
_atom_site_type_symbol
_atom_site_fract_x
_atom_site_fract_y
_atom_site_fract_z
Co1 Co 0.59084(5) 0.86848(4) 0.69285(3)
N1 N 0.7981(3) 1.0770(3) 0.83110(17)
O1 O 0.8038(3) 0.7168(3) 0.68009(16)
H1 H 0.848(5) 0.706(4) 0.606(2)
H2 H 0.736(4) 0.606(3) 0.701(3)
O2 O 0.4169(3) 0.6889(3) 0.53140(17)
H3 H 0.325(4) 0.583(3) 0.545(3)
H4 H 0.370(5) 0.752(4) 0.489(3)
O3 O 0.3711(3) 1.0049(3) 0.6902(2)
H5 H 0.412(5) 1.124(3) 0.714(3)
H6 H 0.297(5) 0.980(5) 0.625(2)
O4 O 0.8032(3) 1.0726(2) 0.57677(15)
O5 O 1.1161(3) 1.3269(3) 0.57845(16)
O6 O 1.3958(2) 1.6540(2) 0.80763(15)
O7 O 1.4841(3) 1.3936(2) 0.76778(19)
C1 C 0.9757(3) 1.2071(3) 0.7796(2)
C2 C 1.1463(3) 1.3368(3) 0.8559(2)
C3 C 1.1259(4) 1.3393(3) 0.9892(2)
H7 H 1.2358 1.4282 1.0427
C4 C 0.9417(4) 1.2090(3) 1.0419(2)
H8 H 0.9244 1.2105 1.1306
C5 C 0.7840(4) 1.0768(3) 0.9593(2)
H9 H 0.6632 0.9840 0.9943
C6 C 0.9679(3) 1.2035(3) 0.6336(2)
C7 C 1.3582(3) 1.4718(3) 0.8035(2)
Co1_2 Co 1.59084(5) 1.86848(4) 0.69285(3)
O6_2 O 0.3958(2) 0.6540(2) 0.80763(15)
loop_
_geom_bond_atom_site_label_1
_geom_bond_atom_site_label_2
_geom_bond_site_symmetry_1
_geom_bond_site_symmetry_2
Co1 N1 1_555 1_555
N1 C1 1_555 1_555
O1 Co1 1_555 1_555
H1 O1 1_555 1_555
H2 O1 1_555 1_555
O2 Co1 1_555 1_555
H3 O2 1_555 1_555
H4 O2 1_555 1_555
O3 Co1 1_555 1_555
H5 O3 1_555 1_555
H6 O3 1_555 1_555
O4 Co1 1_555 1_555
O5 C6 1_555 1_555
O6 C7 1_555 1_555
O7 C7 1_555 1_555
C1 C2 1_555 1_555
C2 C3 1_555 1_555
C3 H7 1_555 1_555
C4 C3 1_555 1_555
H8 C4 1_555 1_555
C5 N1 1_555 1_555
H9 C5 1_555 1_555
C6 O4 1_555 1_555
C7 C2 1_555 1_555
Co1_2 O6 1_555 1_555
O6_2 Co1 1_555 1_555
C1 C6 1_555 1_555
C4 C5 1_555 1_555

#END
