
#######################################################################
#
#                 Cambridge Crystallographic Data Centre
#                                CCDC 
#
#######################################################################
#
# If this CIF has been generated from an entry in the Cambridge 
# Structural Database, then it will include bibliographic, chemical, 
# crystal, experimental, refinement or atomic coordinate data resulting 
# from the CCDC's data processing and validation procedures.
#
#######################################################################

data_INEBOT
_symmetry_cell_setting           monoclinic
_symmetry_space_group_name_H-M   'P 21/c'
_symmetry_Int_Tables_number      14
_space_group_name_Hall           '-P 2ybc'
loop_
_symmetry_equiv_pos_site_id
_symmetry_equiv_pos_as_xyz
1 x,y,z
2 -x,1/2+y,1/2-z
3 -x,-y,-z
4 x,1/2-y,1/2+z
_cell_length_a                   17.5910(2)
_cell_length_b                   22.7810(3)
_cell_length_c                   19.0580(2)
_cell_angle_alpha                90
_cell_angle_beta                 93.2250(10)
_cell_angle_gamma                90
_cell_volume                     7625.22
loop_
_atom_site_label
_atom_site_type_symbol
_atom_site_fract_x
_atom_site_fract_y
_atom_site_fract_z
N11 N 1.0422(3) 0.1093(2) 0.3828(3)
O15 O 1.0957(6) 0.1042(5) 0.4249(6)
O18 O 1.0746(7) 0.0951(4) 0.3298(7)
O19 O 0.9887(5) 0.1170(4) 0.3850(5)
O13 O 0.5390(3) 0.2182(2) 0.2809(3)
O14 O 1.3916(13) 0.5245(10) 0.1645(10)
O16 O 1.3103(15) 0.0922(14) 0.0804(14)
Cl1 Cl 1.2194(2) 0.54421(12) 0.08682(19)
N1 N 1.0077(3) 0.5022(2) 0.6848(3)
N2 N 1.2423(3) 0.6951(2) 0.8289(3)
N3 N 1.1155(3) 0.6905(2) 0.8114(3)
C1 C 0.6268(16) 0.6649(6) 0.9491(10)
H1 H 0.6084 0.6456 0.9876
N4 N 1.0976(3) 0.6024(2) 0.9031(3)
C2 C 0.6522(14) 0.6316(5) 0.8906(11)
H2 H 0.6461 0.5910 0.8909
C3 C 1.2199(4) 0.7463(3) 0.7936(3)
O1 O 1.4702(3) 0.55000(19) 0.5860(2)
C4 C 1.0879(4) 0.5783(3) 0.6860(3)
C5 C 1.0630(4) 0.5303(3) 0.6473(3)
N5 N 1.0436(3) 0.7329(2) 1.0055(3)
N6 N 0.9477(3) 0.5662(2) 0.8533(3)
C6 C 1.3569(4) 0.6400(3) 0.7970(3)
N7 N 1.0469(3) 0.5805(2) 0.7475(2)
C7 C 0.8793(4) 0.4734(3) 0.6366(3)
C8 C 1.1771(4) 0.6641(3) 0.8372(3)
N8 N 0.9927(3) 0.6937(2) 0.9074(3)
C9 C 1.0000(4) 0.5342(3) 0.7426(3)
C10 C 1.3112(4) 0.7694(3) 1.0622(4)
H3 H 1.3540 0.7637 1.0923
C11 C 1.3921(4) 0.8284(3) 0.9815(4)
C12 C 1.2626(5) 0.7940(3) 0.7702(4)
H4 H 1.3153 0.7956 0.7771
N9 N 0.7893(4) 0.6388(3) 0.7599(4)
C13 C 1.1000(5) 0.7899(3) 0.7506(3)
H5 H 1.0472 0.7892 0.7437
C14 C 0.7487(4) 0.4487(3) 0.6089(3)
H6 H 0.7114 0.4199 0.6030
O2 O 1.5309(3) 0.57767(19) 0.4611(2)
C15 C 0.8029(4) 0.6784(3) 0.7061(4)
C16 C 1.0968(4) 0.6381(3) 0.9690(3)
H7 H 1.1477 0.6529 0.9808
H8 H 1.0822 0.6132 1.0074
C17 C 1.0438(4) 0.6875(3) 0.9611(3)
O3 O 1.5516(3) 0.6725(2) 0.6444(3)
C18 C 1.2419(5) 0.7491(3) 1.0813(4)
H9 H 1.2387 0.7289 1.1233
C19 C 0.7879(4) 0.5494(3) 0.6010(4)
H10 H 0.7766 0.5884 0.5903
O4 O 1.4873(4) 0.4812(2) 0.6698(3)
C20 C 0.9887(5) 0.7725(3) 0.9780(4)
C21 C 0.6833(5) 0.6554(4) 0.8375(5)
C22 C 0.8575(4) 0.6296(3) 0.7959(4)
C23 C 1.0924(5) 0.5163(3) 0.5822(4)
H11 H 1.0743 0.4847 0.5551
C24 C 0.9447(4) 0.5203(3) 0.7971(3)
H12 H 0.9569 0.4823 0.8179
H13 H 0.8936 0.5182 0.7753
C25 C 0.9844(5) 0.5427(3) 0.9207(3)
H14 H 0.9717 0.5675 0.9597
H15 H 0.9659 0.5033 0.9292
O5 O 0.6000(3) 0.8135(2) 0.9983(3)
C26 C 0.6491(4) 0.5247(3) 0.5757(4)
C27 C 0.8810(4) 0.6904(3) 0.7126(4)
C28 C 0.8621(4) 0.5327(3) 0.6217(4)
H16 H 0.9004 0.5608 0.6258
C29 C 1.1428(5) 0.8364(3) 0.7285(4)
H17 H 1.1177 0.8682 0.7071
C30 C 0.7145(5) 0.6172(4) 0.7806(5)
H18 H 0.6789 0.6169 0.7399
H19 H 0.7199 0.5772 0.7977
C31 C 1.1765(5) 0.6001(3) 0.6011(4)
H20 H 1.2163 0.6225 0.5853
C32 C 0.8994(5) 0.7757(4) 0.8780(5)
H21 H 0.8789 0.7594 0.8364
C33 C 1.2217(6) 0.8378(3) 0.7368(4)
H22 H 1.2476 0.8696 0.7190
C34 C 1.1005(4) 0.7421(3) 1.0630(3)
H23 H 1.0831 0.7729 1.0934
H24 H 1.1054 0.7064 1.0907
C35 C 1.1492(5) 0.5520(3) 0.5614(4)
H25 H 1.1707 0.5440 0.5190
C36 C 1.3805(5) 0.6139(3) 0.6779(4)
H26 H 1.3718 0.6208 0.6300
C37 C 1.4644(4) 0.5307(3) 0.6478(4)
O6 O 1.3907(5) 0.5930(3) 0.2895(3)
C38 C 0.8707(4) 0.5915(3) 0.8589(4)
H27 H 0.8327 0.5606 0.8593
H28 H 0.8683 0.6144 0.9017
C39 C 1.4053(6) 0.5953(4) 0.8206(4)
H29 H 1.4133 0.5879 0.8684
C40 C 0.6296(6) 0.7226(4) 0.9482(5)
C41 C 0.9636(6) 0.8275(3) 1.0031(5)
H30 H 0.9858 0.8446 1.0436
C42 C 1.3455(5) 0.6485(4) 0.7263(4)
H31 H 1.3131 0.6785 0.7102
C43 C 0.9120(5) 0.7285(3) 0.6648(4)
H32 H 0.9639 0.7367 0.6676
O7 O 1.5297(5) 0.6465(4) 0.3383(5)
C44 C 0.8654(6) 0.7534(4) 0.6143(5)
H33 H 0.8859 0.7786 0.5820
C45 C 1.4424(6) 0.5610(4) 0.7707(4)
H34 H 1.4770 0.5322 0.7860
C46 C 0.7549(6) 0.7044(4) 0.6541(5)
H35 H 0.7030 0.6964 0.6499
C47 C 0.8744(6) 0.8284(4) 0.9017(6)
H36 H 0.8359 0.8482 0.8760
C48 C 0.9066(7) 0.8537(4) 0.9657(6)
H37 H 0.8874 0.8891 0.9814
C49 C 0.6018(6) 0.7602(4) 1.0064(5)
C50 C 0.6620(10) 0.7460(5) 0.8948(8)
H38 H 0.6673 0.7866 0.8926
C51 C 0.6884(10) 0.7119(5) 0.8416(8)
H39 H 0.7119 0.7312 0.8057
C52 C 0.7887(7) 0.7422(5) 0.6098(6)
H40 H 0.7584 0.7612 0.5752
C53 C 1.1400(4) 0.7439(3) 0.7839(3)
C54 C 1.0694(4) 0.5417(3) 0.9144(3)
H41 H 1.0819 0.5170 0.8752
H42 H 1.0941 0.5255 0.9569
C55 C 1.1730(4) 0.6048(3) 0.8717(4)
H43 H 1.2137 0.6004 0.9078
H44 H 1.1773 0.5738 0.8373
C56 C 1.1446(4) 0.6146(3) 0.6635(3)
H45 H 1.1607 0.6474 0.6893
C57 C 0.7306(4) 0.5067(3) 0.5965(4)
N10 N 0.9136(3) 0.6594(2) 0.7687(3)
C58 C 1.1767(4) 0.7584(3) 1.0388(3)
C59 C 0.8219(4) 0.4333(3) 0.6300(3)
H46 H 0.8327 0.3942 0.6401
O8 O 0.6345(3) 0.5786(2) 0.5800(3)
C60 C 1.1849(4) 0.7852(3) 0.9716(3)
H47 H 1.1429 0.7892 0.9401
C61 C 0.9565(4) 0.7470(3) 0.9179(4)
C62 C 1.2540(4) 0.8046(3) 0.9543(3)
H48 H 1.2584 0.8228 0.9110
O9 O 0.6026(3) 0.4846(2) 0.5575(3)
C63 C 1.3184(4) 0.7984(3) 0.9986(3)
O10 O 1.4436(3) 0.8296(2) 1.0306(3)
O11 O 1.3956(3) 0.8503(2) 0.9212(2)
C64 C 1.4281(4) 0.5696(3) 0.7011(4)
C65 C 1.3195(4) 0.6789(3) 0.8503(4)
H49 H 1.3497 0.7143 0.8575
H50 H 1.3195 0.6583 0.8949
C66 C 0.9579(4) 0.4534(3) 0.6614(4)
H51 H 0.9809 0.4328 0.6235
H52 H 0.9537 0.4260 0.7000
O12 O 0.5859(6) 0.7359(3) 1.0628(4)
Ni1 Ni 1.5000 0.5000 0.5000
Ni2 Ni 1.01784(5) 0.63904(3) 0.82466(4)
Ni3 Ni 1.53936(5) 0.62519(4) 0.54957(5)
Ni4 Ni 1.45882(6) 0.58473(4) 0.38081(5)
N1_2 N 2.0077(3) 0.5022(2) 0.6848(3)
N2_2 N 2.2423(3) 0.6951(2) 0.8289(3)
N3_2 N 2.1155(3) 0.6905(2) 0.8114(3)
C1_2 C 1.6268(16) 0.6649(6) 0.9491(10)
H1_2 H 1.6084 0.6456 0.9876
N4_2 N 2.0976(3) 0.6024(2) 0.9031(3)
C2_2 C 1.6522(14) 0.6316(5) 0.8906(11)
H2_2 H 1.6461 0.5910 0.8909
C3_2 C 2.2199(4) 0.7463(3) 0.7936(3)
O1_2 O 2.4702(3) 0.55000(19) 0.5860(2)
O1B O 1.5298(3) 0.45000(19) 0.4140(2)
C4_2 C 2.0879(4) 0.5783(3) 0.6860(3)
C5_2 C 2.0630(4) 0.5303(3) 0.6473(3)
N5_2 N 2.0436(3) 0.7329(2) 1.0055(3)
N6_2 N 1.9477(3) 0.5662(2) 0.8533(3)
C6_2 C 2.3569(4) 0.6400(3) 0.7970(3)
N7_2 N 2.0469(3) 0.5805(2) 0.7475(2)
C7_2 C 1.8793(4) 0.4734(3) 0.6366(3)
C8_2 C 2.1771(4) 0.6641(3) 0.8372(3)
N8_2 N 1.9927(3) 0.6937(2) 0.9074(3)
C9_2 C 2.0000(4) 0.5342(3) 0.7426(3)
C10_2 C 2.3112(4) 0.7694(3) 1.0622(4)
H3_2 H 2.3540 0.7637 1.0923
C11_2 C 2.3921(4) 0.8284(3) 0.9815(4)
C12_2 C 2.2626(5) 0.7940(3) 0.7702(4)
H4_2 H 2.3153 0.7956 0.7771
N9_2 N 1.7893(4) 0.6388(3) 0.7599(4)
C13_2 C 2.1000(5) 0.7899(3) 0.7506(3)
H5_2 H 2.0472 0.7892 0.7437
C14_2 C 1.7487(4) 0.4487(3) 0.6089(3)
H6_2 H 1.7114 0.4199 0.6030
O2B O 1.4691(3) 0.42233(19) 0.5389(2)
O2_2 O 2.5309(3) 0.57767(19) 0.4611(2)
C15_2 C 1.8029(4) 0.6784(3) 0.7061(4)
C16_2 C 2.0968(4) 0.6381(3) 0.9690(3)
H7_2 H 2.1477 0.6529 0.9808
H8_2 H 2.0822 0.6132 1.0074
C17_2 C 2.0438(4) 0.6875(3) 0.9611(3)
O3_2 O 2.5516(3) 0.6725(2) 0.6444(3)
C18_2 C 2.2419(5) 0.7491(3) 1.0813(4)
H9_2 H 2.2387 0.7289 1.1233
C19_2 C 1.7879(4) 0.5494(3) 0.6010(4)
H10_2 H 1.7766 0.5884 0.5903
O4_2 O 2.4873(4) 0.4812(2) 0.6698(3)
O4B O 1.5127(4) 0.5188(2) 0.3302(3)
C20_2 C 1.9887(5) 0.7725(3) 0.9780(4)
C21_2 C 1.6833(5) 0.6554(4) 0.8375(5)
C22_2 C 1.8575(4) 0.6296(3) 0.7959(4)
C23_2 C 2.0924(5) 0.5163(3) 0.5822(4)
H11_2 H 2.0743 0.4847 0.5551
C24_2 C 1.9447(4) 0.5203(3) 0.7971(3)
H12_2 H 1.9569 0.4823 0.8179
H13_2 H 1.8936 0.5182 0.7753
C25_2 C 1.9844(5) 0.5427(3) 0.9207(3)
H14_2 H 1.9717 0.5675 0.9597
H15_2 H 1.9659 0.5033 0.9292
O5_2 O 1.6000(3) 0.8135(2) 0.9983(3)
O5C O 1.6000(3) 0.6865(2) 0.4983(3)
O5C_2 O 2.6000(3) 0.6865(2) 0.4983(3)
C26_2 C 1.6491(4) 0.5247(3) 0.5757(4)
C27_2 C 1.8810(4) 0.6904(3) 0.7126(4)
C28_2 C 1.8621(4) 0.5327(3) 0.6217(4)
H16_2 H 1.9004 0.5608 0.6258
C29_2 C 2.1428(5) 0.8364(3) 0.7285(4)
H17_2 H 2.1177 0.8682 0.7071
C30_2 C 1.7145(5) 0.6172(4) 0.7806(5)
H18_2 H 1.6789 0.6169 0.7399
H19_2 H 1.7199 0.5772 0.7977
C31_2 C 2.1765(5) 0.6001(3) 0.6011(4)
H20_2 H 2.2163 0.6225 0.5853
C32_2 C 1.8994(5) 0.7757(4) 0.8780(5)
H21_2 H 1.8789 0.7594 0.8364
C33_2 C 2.2217(6) 0.8378(3) 0.7368(4)
H22_2 H 2.2476 0.8696 0.7190
C34_2 C 2.1005(4) 0.7421(3) 1.0630(3)
H23_2 H 2.0831 0.7729 1.0934
H24_2 H 2.1054 0.7064 1.0907
C35_2 C 2.1492(5) 0.5520(3) 0.5614(4)
H25_2 H 2.1707 0.5440 0.5190
C36_2 C 2.3805(5) 0.6139(3) 0.6779(4)
H26_2 H 2.3718 0.6208 0.6300
C37_2 C 2.4644(4) 0.5307(3) 0.6478(4)
O6B O 1.6093(5) 0.4070(3) 0.7105(3)
C38_2 C 1.8707(4) 0.5915(3) 0.8589(4)
H27_2 H 1.8327 0.5606 0.8593
H28_2 H 1.8683 0.6144 0.9017
C39_2 C 2.4053(6) 0.5953(4) 0.8206(4)
H29_2 H 2.4133 0.5879 0.8684
C40_2 C 1.6296(6) 0.7226(4) 0.9482(5)
C41_2 C 1.9636(6) 0.8275(3) 1.0031(5)
H30_2 H 1.9858 0.8446 1.0436
C42_2 C 2.3455(5) 0.6485(4) 0.7263(4)
H31_2 H 2.3131 0.6785 0.7102
C43_2 C 1.9120(5) 0.7285(3) 0.6648(4)
H32_2 H 1.9639 0.7367 0.6676
O7B O 1.4703(5) 0.3535(4) 0.6617(5)
C44_2 C 1.8654(6) 0.7534(4) 0.6143(5)
H33_2 H 1.8859 0.7786 0.5820
C45_2 C 2.4424(6) 0.5610(4) 0.7707(4)
H34_2 H 2.4770 0.5322 0.7860
C46_2 C 1.7549(6) 0.7044(4) 0.6541(5)
H35_2 H 1.7030 0.6964 0.6499
C47_2 C 1.8744(6) 0.8284(4) 0.9017(6)
H36_2 H 1.8359 0.8482 0.8760
C48_2 C 1.9066(7) 0.8537(4) 0.9657(6)
H37_2 H 1.8874 0.8891 0.9814
C49_2 C 1.6018(6) 0.7602(4) 1.0064(5)
C50_2 C 1.6620(10) 0.7460(5) 0.8948(8)
H38_2 H 1.6673 0.7866 0.8926
C51_2 C 1.6884(10) 0.7119(5) 0.8416(8)
H39_2 H 1.7119 0.7312 0.8057
C52_2 C 1.7887(7) 0.7422(5) 0.6098(6)
H40_2 H 1.7584 0.7612 0.5752
C53_2 C 2.1400(4) 0.7439(3) 0.7839(3)
C54_2 C 2.0694(4) 0.5417(3) 0.9144(3)
H41_2 H 2.0819 0.5170 0.8752
H42_2 H 2.0941 0.5255 0.9569
C55_2 C 2.1730(4) 0.6048(3) 0.8717(4)
H43_2 H 2.2137 0.6004 0.9078
H44_2 H 2.1773 0.5738 0.8373
C56_2 C 2.1446(4) 0.6146(3) 0.6635(3)
H45_2 H 2.1607 0.6474 0.6893
C57_2 C 1.7306(4) 0.5067(3) 0.5965(4)
N10_2 N 1.9136(3) 0.6594(2) 0.7687(3)
C58_2 C 2.1767(4) 0.7584(3) 1.0388(3)
C59_2 C 1.8219(4) 0.4333(3) 0.6300(3)
H46_2 H 1.8327 0.3942 0.6401
O8_2 O 1.6345(3) 0.5786(2) 0.5800(3)
O8_3 O 2.6345(3) 0.5786(2) 0.5800(3)
C60_2 C 2.1849(4) 0.7852(3) 0.9716(3)
H47_2 H 2.1429 0.7892 0.9401
C61_2 C 1.9565(4) 0.7470(3) 0.9179(4)
C62_2 C 2.2540(4) 0.8046(3) 0.9543(3)
H48_2 H 2.2584 0.8228 0.9110
O9_2 O 1.6026(3) 0.4846(2) 0.5575(3)
O9B O 1.3974(3) 0.5154(2) 0.4425(3)
C63_2 C 2.3184(4) 0.7984(3) 0.9986(3)
O10_2 O 2.4436(3) 0.8296(2) 1.0306(3)
O10C O 1.4436(3) 0.6704(2) 0.5306(3)
O10C_2 O 2.4436(3) 0.6704(2) 0.5306(3)
O11_2 O 2.3956(3) 0.8503(2) 0.9212(2)
O11C O 1.3956(3) 0.6497(2) 0.4212(2)
O11A O 1.6044(3) 0.3503(2) 0.5788(2)
C64_2 C 2.4281(4) 0.5696(3) 0.7011(4)
C65_2 C 2.3195(4) 0.6789(3) 0.8503(4)
H49_2 H 2.3497 0.7143 0.8575
H50_2 H 2.3195 0.6583 0.8949
C66_2 C 1.9579(4) 0.4534(3) 0.6614(4)
H51_2 H 1.9809 0.4328 0.6235
H52_2 H 1.9537 0.4260 0.7000
O12_2 O 1.5859(6) 0.7359(3) 1.0628(4)
Ni1_2 Ni 0.5000 0.5000 0.5000
Ni1_3 Ni 2.5000 0.5000 0.5000
Ni2_2 Ni 2.01784(5) 0.63904(3) 0.82466(4)
Ni3_2 Ni 2.53936(5) 0.62519(4) 0.54957(5)
Ni3C Ni 0.53936(5) 0.87481(4) 1.04957(5)
Ni3_3 Ni 0.53936(5) 0.62519(4) 0.54957(5)
Ni3C_2 Ni 1.53936(5) 0.87481(4) 1.04957(5)
Ni3C_3 Ni 2.53936(5) 0.87481(4) 1.04957(5)
Ni3B Ni 1.46064(5) 0.37481(4) 0.45043(5)
Ni4B Ni 1.54118(6) 0.41527(4) 0.61919(5)
Ni4B_2 Ni 0.54118(6) 0.41527(4) 0.61919(5)
Ni4C Ni 1.45882(6) 0.91527(4) 0.88081(5)
Ni4B_3 Ni 2.54118(6) 0.41527(4) 0.61919(5)
Ni4C_2 Ni 2.45882(6) 0.91527(4) 0.88081(5)
O17? O 1.520(4) 0.508(3) 0.037(3)
Cl2? Cl 1.2584(17) 0.5286(12) 0.1325(15)
O20? O 1.657(4) 0.593(3) 0.153(3)
loop_
_geom_bond_atom_site_label_1
_geom_bond_atom_site_label_2
_geom_bond_site_symmetry_1
_geom_bond_site_symmetry_2
N1 C5 1_555 1_555
N2 C3 1_555 1_555
N3 C8 1_555 1_555
C1 H1 1_555 1_555
N4 C16 1_555 1_555
C2 C1 1_555 1_555
H2 C2 1_555 1_555
C3 C12 1_555 1_555
O1 C37 1_555 1_555
C4 C5 1_555 1_555
C5 C23 1_555 1_555
N5 C17 1_555 1_555
N6 C24 1_555 1_555
C6 C39 1_555 1_555
N7 C4 1_555 1_555
C7 C28 1_555 1_555
C8 N2 1_555 1_555
N8 C17 1_555 1_555
C9 N1 1_555 1_555
C10 H3 1_555 1_555
C11 C63 1_555 1_555
C12 H4 1_555 1_555
N9 C15 1_555 1_555
C13 H5 1_555 1_555
C14 H6 1_555 1_555
O2 Ni1 1_555 1_555
C15 C27 1_555 1_555
C16 H7 1_555 1_555
H8 C16 1_555 1_555
C17 C16 1_555 1_555
O3 Ni3 1_555 1_555
C18 C10 1_555 1_555
H9 C18 1_555 1_555
C19 H10 1_555 1_555
O4 C37 1_555 1_555
C20 N5 1_555 1_555
C21 C2 1_555 1_555
C22 N9 1_555 1_555
C23 H11 1_555 1_555
C24 C9 1_555 1_555
H12 C24 1_555 1_555
H13 C24 1_555 1_555
C25 N6 1_555 1_555
H14 C25 1_555 1_555
H15 C25 1_555 1_555
O5 C49 1_555 1_555
C26 C57 1_555 1_555
C27 C43 1_555 1_555
C28 C19 1_555 1_555
H16 C28 1_555 1_555
C29 C13 1_555 1_555
H17 C29 1_555 1_555
C30 N9 1_555 1_555
H18 C30 1_555 1_555
H19 C30 1_555 1_555
C31 H20 1_555 1_555
C32 H21 1_555 1_555
C33 C12 1_555 1_555
H22 C33 1_555 1_555
C34 N5 1_555 1_555
H23 C34 1_555 1_555
H24 C34 1_555 1_555
C35 C23 1_555 1_555
H25 C35 1_555 1_555
C36 H26 1_555 1_555
C37 C64 1_555 1_555
O6 Ni4 1_555 1_555
C38 N6 1_555 1_555
H27 C38 1_555 1_555
H28 C38 1_555 1_555
C39 H29 1_555 1_555
C40 C1 1_555 1_555
C41 C20 1_555 1_555
H30 C41 1_555 1_555
C42 C6 1_555 1_555
H31 C42 1_555 1_555
C43 H32 1_555 1_555
O7 Ni4 1_555 1_555
C44 C43 1_555 1_555
H33 C44 1_555 1_555
C45 C39 1_555 1_555
H34 C45 1_555 1_555
C46 C15 1_555 1_555
H35 C46 1_555 1_555
C47 C32 1_555 1_555
H36 C47 1_555 1_555
C48 C41 1_555 1_555
H37 C48 1_555 1_555
C49 C40 1_555 1_555
C50 C40 1_555 1_555
H38 C50 1_555 1_555
C51 C21 1_555 1_555
H39 C51 1_555 1_555
C52 C44 1_555 1_555
H40 C52 1_555 1_555
C53 N3 1_555 1_555
C54 N4 1_555 1_555
H41 C54 1_555 1_555
H42 C54 1_555 1_555
C55 N4 1_555 1_555
H43 C55 1_555 1_555
H44 C55 1_555 1_555
C56 C4 1_555 1_555
H45 C56 1_555 1_555
C57 C14 1_555 1_555
N10 C22 1_555 1_555
C58 C18 1_555 1_555
C59 C7 1_555 1_555
H46 C59 1_555 1_555
O8 C26 1_555 1_555
C60 C58 1_555 1_555
H47 C60 1_555 1_555
C61 N8 1_555 1_555
C62 C60 1_555 1_555
H48 C62 1_555 1_555
O9 C26 1_555 1_555
C63 C10 1_555 1_555
O10 C11 1_555 1_555
O11 C11 1_555 1_555
C64 C36 1_555 1_555
C65 N2 1_555 1_555
H49 C65 1_555 1_555
H50 C65 1_555 1_555
C66 N1 1_555 1_555
H51 C66 1_555 1_555
H52 C66 1_555 1_555
O12 C49 1_555 1_555
Ni1 O1 1_555 1_555
Ni2 N3 1_555 1_555
Ni3 O1 1_555 1_555
Ni4 O2 1_555 1_555
N11 O15 1_555 1_555
O18 N11 1_555 1_555
O19 N11 1_555 1_555
N1_2 C5_2 1_555 1_555
N2_2 C3_2 1_555 1_555
N3_2 C8_2 1_555 1_555
C1_2 H1_2 1_555 1_555
N4_2 C16_2 1_555 1_555
C2_2 C1_2 1_555 1_555
H2_2 C2_2 1_555 1_555
C3_2 C12_2 1_555 1_555
O1_2 C37_2 1_555 1_555
O1B Ni1 1_555 1_555
C4_2 C5_2 1_555 1_555
C5_2 C23_2 1_555 1_555
N5_2 C17_2 1_555 1_555
N6_2 C24_2 1_555 1_555
C6_2 C39_2 1_555 1_555
N7_2 C4_2 1_555 1_555
C7_2 C28_2 1_555 1_555
C8_2 N2_2 1_555 1_555
N8_2 C17_2 1_555 1_555
C9_2 N1_2 1_555 1_555
C10_2 H3_2 1_555 1_555
C11_2 C63_2 1_555 1_555
C12_2 H4_2 1_555 1_555
N9_2 C15_2 1_555 1_555
C13_2 H5_2 1_555 1_555
C14_2 H6_2 1_555 1_555
O2B Ni1 1_555 1_555
O2_2 Ni1_3 1_555 1_555
C15_2 C27_2 1_555 1_555
C16_2 H7_2 1_555 1_555
H8_2 C16_2 1_555 1_555
C17_2 C16_2 1_555 1_555
O3_2 Ni3_2 1_555 1_555
C18_2 C10_2 1_555 1_555
H9_2 C18_2 1_555 1_555
C19_2 H10_2 1_555 1_555
O4_2 C37_2 1_555 1_555
O4B Ni4 1_555 1_555
C20_2 N5_2 1_555 1_555
C21_2 C2_2 1_555 1_555
C22_2 N9_2 1_555 1_555
C23_2 H11_2 1_555 1_555
C24_2 C9_2 1_555 1_555
H12_2 C24_2 1_555 1_555
H13_2 C24_2 1_555 1_555
C25_2 N6_2 1_555 1_555
H14_2 C25_2 1_555 1_555
H15_2 C25_2 1_555 1_555
O5_2 C49_2 1_555 1_555
O5C Ni3 1_555 1_555
O5C_2 Ni3_2 1_555 1_555
C26_2 C57_2 1_555 1_555
C27_2 C43_2 1_555 1_555
C28_2 C19_2 1_555 1_555
H16_2 C28_2 1_555 1_555
C29_2 C13_2 1_555 1_555
H17_2 C29_2 1_555 1_555
C30_2 N9_2 1_555 1_555
H18_2 C30_2 1_555 1_555
H19_2 C30_2 1_555 1_555
C31_2 H20_2 1_555 1_555
C32_2 H21_2 1_555 1_555
C33_2 C12_2 1_555 1_555
H22_2 C33_2 1_555 1_555
C34_2 N5_2 1_555 1_555
H23_2 C34_2 1_555 1_555
H24_2 C34_2 1_555 1_555
C35_2 C23_2 1_555 1_555
H25_2 C35_2 1_555 1_555
C36_2 H26_2 1_555 1_555
C37_2 C64_2 1_555 1_555
O6B Ni4B 1_555 1_555
C38_2 N6_2 1_555 1_555
H27_2 C38_2 1_555 1_555
H28_2 C38_2 1_555 1_555
C39_2 H29_2 1_555 1_555
C40_2 C1_2 1_555 1_555
C41_2 C20_2 1_555 1_555
H30_2 C41_2 1_555 1_555
C42_2 C6_2 1_555 1_555
H31_2 C42_2 1_555 1_555
C43_2 H32_2 1_555 1_555
O7B Ni4B 1_555 1_555
C44_2 C43_2 1_555 1_555
H33_2 C44_2 1_555 1_555
C45_2 C39_2 1_555 1_555
H34_2 C45_2 1_555 1_555
C46_2 C15_2 1_555 1_555
H35_2 C46_2 1_555 1_555
C47_2 C32_2 1_555 1_555
H36_2 C47_2 1_555 1_555
C48_2 C41_2 1_555 1_555
H37_2 C48_2 1_555 1_555
C49_2 C40_2 1_555 1_555
C50_2 C40_2 1_555 1_555
H38_2 C50_2 1_555 1_555
C51_2 C21_2 1_555 1_555
H39_2 C51_2 1_555 1_555
C52_2 C44_2 1_555 1_555
H40_2 C52_2 1_555 1_555
C53_2 N3_2 1_555 1_555
C54_2 N4_2 1_555 1_555
H41_2 C54_2 1_555 1_555
H42_2 C54_2 1_555 1_555
C55_2 N4_2 1_555 1_555
H43_2 C55_2 1_555 1_555
H44_2 C55_2 1_555 1_555
C56_2 C4_2 1_555 1_555
H45_2 C56_2 1_555 1_555
C57_2 C14_2 1_555 1_555
N10_2 C22_2 1_555 1_555
C58_2 C18_2 1_555 1_555
C59_2 C7_2 1_555 1_555
H46_2 C59_2 1_555 1_555
O8_2 Ni3 1_555 1_555
O8_3 Ni3_2 1_555 1_555
C60_2 C58_2 1_555 1_555
H47_2 C60_2 1_555 1_555
C61_2 N8_2 1_555 1_555
C62_2 C60_2 1_555 1_555
H48_2 C62_2 1_555 1_555
O9_2 Ni1 1_555 1_555
O9B Ni1 1_555 1_555
C63_2 C10_2 1_555 1_555
O10_2 C11_2 1_555 1_555
O10C Ni3 1_555 1_555
O10C_2 Ni3_2 1_555 1_555
O11_2 C11_2 1_555 1_555
O11C Ni4 1_555 1_555
O11A Ni4B 1_555 1_555
C64_2 C36_2 1_555 1_555
C65_2 N2_2 1_555 1_555
H49_2 C65_2 1_555 1_555
H50_2 C65_2 1_555 1_555
C66_2 N1_2 1_555 1_555
H51_2 C66_2 1_555 1_555
H52_2 C66_2 1_555 1_555
O12_2 C49_2 1_555 1_555
Ni1_2 O9 1_555 1_555
Ni1_3 O1_2 1_555 1_555
Ni2_2 N3_2 1_555 1_555
Ni3_2 O1_2 1_555 1_555
Ni3C O5 1_555 1_555
Ni3_3 O8 1_555 1_555
Ni3C_2 O10 1_555 1_555
Ni3C_3 O10_2 1_555 1_555
Ni3B O1B 1_555 1_555
Ni4B O4 1_555 1_555
Ni4B_2 O9 1_555 1_555
Ni4C O11 1_555 1_555
Ni4B_3 O4_2 1_555 1_555
Ni4C_2 O11_2 1_555 1_555
N4 Ni2 1_555 1_555
C3 C53 1_555 1_555
N6 Ni2 1_555 1_555
C6 C65 1_555 1_555
N7 C9 1_555 1_555
N7 Ni2 1_555 1_555
C7 C66 1_555 1_555
C8 C55 1_555 1_555
N8 Ni2 1_555 1_555
C13 C53 1_555 1_555
C14 C59 1_555 1_555
O2 Ni3 1_555 1_555
C19 C57 1_555 1_555
C20 C61 1_555 1_555
C21 C30 1_555 1_555
C22 C38 1_555 1_555
C25 C54 1_555 1_555
C27 N10 1_555 1_555
C29 C33 1_555 1_555
C31 C35 1_555 1_555
C31 C56 1_555 1_555
C32 C61 1_555 1_555
C34 C58 1_555 1_555
C36 C42 1_555 1_555
C45 C64 1_555 1_555
C46 C52 1_555 1_555
C47 C48 1_555 1_555
C50 C51 1_555 1_555
N10 Ni2 1_555 1_555
C62 C63 1_555 1_555
Ni4 O9B 1_555 1_555
N4_2 Ni2_2 1_555 1_555
C3_2 C53_2 1_555 1_555
N6_2 Ni2_2 1_555 1_555
C6_2 C65_2 1_555 1_555
N7_2 C9_2 1_555 1_555
N7_2 Ni2_2 1_555 1_555
C7_2 C66_2 1_555 1_555
C8_2 C55_2 1_555 1_555
N8_2 Ni2_2 1_555 1_555
C13_2 C53_2 1_555 1_555
C14_2 C59_2 1_555 1_555
O2B Ni3B 1_555 1_555
O2B Ni4B 1_555 1_555
O2_2 Ni3_2 1_555 1_555
C19_2 C57_2 1_555 1_555
C20_2 C61_2 1_555 1_555
C21_2 C30_2 1_555 1_555
C22_2 C38_2 1_555 1_555
C25_2 C54_2 1_555 1_555
O5_2 Ni3C_2 1_555 1_555
C26_2 O8_2 1_555 1_555
C26_2 O9_2 1_555 1_555
C27_2 N10_2 1_555 1_555
C29_2 C33_2 1_555 1_555
C31_2 C35_2 1_555 1_555
C31_2 C56_2 1_555 1_555
C32_2 C61_2 1_555 1_555
C34_2 C58_2 1_555 1_555
C36_2 C42_2 1_555 1_555
C45_2 C64_2 1_555 1_555
C46_2 C52_2 1_555 1_555
C47_2 C48_2 1_555 1_555
C50_2 C51_2 1_555 1_555
N10_2 Ni2_2 1_555 1_555
C62_2 C63_2 1_555 1_555
O9_2 Ni4B 1_555 1_555

#END
