
#######################################################################
#
#                 Cambridge Crystallographic Data Centre
#                                CCDC 
#
#######################################################################
#
# If this CIF has been generated from an entry in the Cambridge 
# Structural Database, then it will include bibliographic, chemical, 
# crystal, experimental, refinement or atomic coordinate data resulting 
# from the CCDC's data processing and validation procedures.
#
#######################################################################

data_INEFIR
_symmetry_cell_setting           monoclinic
_symmetry_space_group_name_H-M   'C 2'
_symmetry_Int_Tables_number      5
_space_group_name_Hall           'C 2y'
loop_
_symmetry_equiv_pos_site_id
_symmetry_equiv_pos_as_xyz
1 x,y,z
2 -x,y,-z
3 1/2+x,1/2+y,z
4 1/2-x,1/2+y,-z
_cell_length_a                   19.8930(7)
_cell_length_b                   9.0654(3)
_cell_length_c                   9.4049(3)
_cell_angle_alpha                90
_cell_angle_beta                 99.598(3)
_cell_angle_gamma                90
_cell_volume                     1672.32
loop_
_atom_site_label
_atom_site_type_symbol
_atom_site_fract_x
_atom_site_fract_y
_atom_site_fract_z
Cd1 Cd 0.5000 0.3592 0.0000
O1 O 0.31834(17) 0.0011(3) -0.6501(3)
O2 O 0.44189(11) -0.5887(2) -0.82392(19)
O3 O 0.39872(10) -0.4793(3) -1.0244(2)
N1 N 0.44105(12) 0.1857(3) -0.1506(2)
N2 N 0.34480(10) -0.1276(5) -0.44046(19)
H1 H 0.3393 -0.2116 -0.4014
C1 C 0.39689(17) 0.1164(4) -0.3938(3)
H2 H 0.3892 0.1417 -0.4910
C2 C 0.42943(18) 0.2117(4) -0.2930(3)
H3 H 0.4446 0.3008 -0.3251
C3 C 0.41954(15) 0.0567(3) -0.1090(3)
H4 H 0.4266 0.0359 -0.0108
C4 C 0.38745(15) -0.0482(3) -0.2018(3)
H5 H 0.3739 -0.1375 -0.1667
C5 C 0.37556(14) -0.0187(3) -0.3489(3)
C6 C 0.32191(13) -0.1175(5) -0.5874(3)
C7 C 0.3055(2) -0.2635(5) -0.6617(4)
H6 H 0.2821 -0.3252 -0.5996
C8 C 0.25904(15) -0.2486(3) -0.8086(3)
H7 H 0.2128 -0.2782 -0.8018
H8 H 0.2583 -0.1474 -0.8423
C9 C 0.28923(15) -0.3507(4) -0.9116(3)
H9 H 0.2536 -0.4094 -0.9679
H10 H 0.3116 -0.2933 -0.9772
C10 C 0.34059(13) -0.4502(3) -0.8185(3)
C11 C 0.37096(14) -0.3472(3) -0.6899(3)
C12 C 0.42232(17) -0.2385(4) -0.7383(4)
H11 H 0.4002 -0.1830 -0.8198
H12 H 0.4599 -0.2924 -0.7647
H13 H 0.4388 -0.1723 -0.6606
C13 C 0.40566(17) -0.4300(4) -0.5565(3)
H14 H 0.4273 -0.3607 -0.4863
H15 H 0.4393 -0.4960 -0.5829
H16 H 0.3722 -0.4855 -0.5164
C14 C 0.30440(17) -0.5847(3) -0.7681(4)
H17 H 0.3370 -0.6453 -0.7077
H18 H 0.2835 -0.6406 -0.8504
H19 H 0.2700 -0.5526 -0.7146
C15 C 0.39683(14) -0.5083(3) -0.8954(3)
Cd1_2 Cd 0.5000 -0.6408 -1.0000
Cd1_3 Cd 0.5000 -0.6408 1.0000
O1A O 0.68166(17) 0.0011(3) 0.6501(3)
O2_2 O 0.44189(11) 0.4113(2) 0.17608(19)
O2A O 0.55811(11) 0.4113(2) -0.17608(19)
O2A_2 O 0.55811(11) -0.5887(2) 0.82392(19)
O3_2 O 0.39872(10) 0.5207(3) -0.0244(2)
O3A O 0.60128(10) 0.5207(3) 0.0244(2)
O3A_2 O 0.60128(10) -0.4793(3) 1.0244(2)
N1A N 0.55895(12) 0.1857(3) 0.1506(2)
N2A N 0.65520(10) -0.1276(5) 0.44046(19)
H1A H 0.6607 -0.2116 0.4014
C1A C 0.60311(17) 0.1164(4) 0.3938(3)
H2A H 0.6108 0.1417 0.4910
C2A C 0.57057(18) 0.2117(4) 0.2930(3)
H3A H 0.5554 0.3008 0.3251
C3A C 0.58046(15) 0.0567(3) 0.1090(3)
H4A H 0.5734 0.0359 0.0108
C4A C 0.61255(15) -0.0482(3) 0.2018(3)
H5A H 0.6261 -0.1375 0.1667
C5A C 0.62444(14) -0.0187(3) 0.3489(3)
C6A C 0.67809(13) -0.1175(5) 0.5874(3)
C7A C 0.6945(2) -0.2635(5) 0.6617(4)
H6A H 0.7179 -0.3252 0.5996
C8A C 0.74096(15) -0.2486(3) 0.8086(3)
H7A H 0.7872 -0.2782 0.8018
H8A H 0.7417 -0.1474 0.8423
C9A C 0.71077(15) -0.3507(4) 0.9116(3)
H9A H 0.7464 -0.4094 0.9679
H10A H 0.6884 -0.2933 0.9772
C10A C 0.65941(13) -0.4502(3) 0.8185(3)
C11A C 0.62904(14) -0.3472(3) 0.6899(3)
C12A C 0.57768(17) -0.2385(4) 0.7383(4)
H11A H 0.5998 -0.1830 0.8198
H12A H 0.5401 -0.2924 0.7647
H13A H 0.5612 -0.1723 0.6606
C13A C 0.59434(17) -0.4300(4) 0.5565(3)
H14A H 0.5727 -0.3607 0.4863
H15A H 0.5607 -0.4960 0.5829
H16A H 0.6278 -0.4855 0.5164
C14A C 0.69560(17) -0.5847(3) 0.7681(4)
H17A H 0.6630 -0.6453 0.7077
H18A H 0.7165 -0.6406 0.8504
H19A H 0.7300 -0.5526 0.7146
C15A C 0.60317(14) -0.5083(3) 0.8954(3)
O4 O 0.31768(13) -0.3828(3) -1.2779(2)
H20 H 0.3397(13) -0.414(3) -1.203(2)
H21 H 0.2775(10) -0.411(4) -1.291(3)
loop_
_geom_bond_atom_site_label_1
_geom_bond_atom_site_label_2
_geom_bond_site_symmetry_1
_geom_bond_site_symmetry_2
Cd1 N1 1_555 1_555
O1 C6 1_555 1_555
O2 C15 1_555 1_555
O3 C15 1_555 1_555
O4 H20 1_555 1_555
N1 C2 1_555 1_555
N2 H1 1_555 1_555
C1 H2 1_555 1_555
C2 C1 1_555 1_555
H3 C2 1_555 1_555
C3 N1 1_555 1_555
H4 C3 1_555 1_555
C4 C3 1_555 1_555
H5 C4 1_555 1_555
C5 N2 1_555 1_555
C6 N2 1_555 1_555
C7 C6 1_555 1_555
H6 C7 1_555 1_555
C8 C7 1_555 1_555
H7 C8 1_555 1_555
H8 C8 1_555 1_555
C9 C8 1_555 1_555
H9 C9 1_555 1_555
H10 C9 1_555 1_555
C10 C9 1_555 1_555
C11 C7 1_555 1_555
C12 C11 1_555 1_555
H11 C12 1_555 1_555
H12 C12 1_555 1_555
H13 C12 1_555 1_555
C13 C11 1_555 1_555
H14 C13 1_555 1_555
H15 C13 1_555 1_555
H16 C13 1_555 1_555
C14 C10 1_555 1_555
H17 C14 1_555 1_555
H18 C14 1_555 1_555
H19 C14 1_555 1_555
C15 C10 1_555 1_555
H21 O4 1_555 1_555
Cd1_2 O2 1_555 1_555
Cd1_3 O2A_2 1_555 1_555
O1A C6A 1_555 1_555
O2_2 Cd1 1_555 1_555
O2A Cd1 1_555 1_555
O2A_2 C15A 1_555 1_555
O3_2 Cd1 1_555 1_555
O3A Cd1 1_555 1_555
O3A_2 Cd1_3 1_555 1_555
N1A Cd1 1_555 1_555
N2A H1A 1_555 1_555
C1A H2A 1_555 1_555
C2A N1A 1_555 1_555
H3A C2A 1_555 1_555
C3A N1A 1_555 1_555
H4A C3A 1_555 1_555
C4A C3A 1_555 1_555
H5A C4A 1_555 1_555
C5A N2A 1_555 1_555
C6A N2A 1_555 1_555
C7A C6A 1_555 1_555
H6A C7A 1_555 1_555
C8A C7A 1_555 1_555
H7A C8A 1_555 1_555
H8A C8A 1_555 1_555
C9A C8A 1_555 1_555
H9A C9A 1_555 1_555
H10A C9A 1_555 1_555
C10A C9A 1_555 1_555
C11A C7A 1_555 1_555
C12A C11A 1_555 1_555
H11A C12A 1_555 1_555
H12A C12A 1_555 1_555
H13A C12A 1_555 1_555
C13A C11A 1_555 1_555
H14A C13A 1_555 1_555
H15A C13A 1_555 1_555
H16A C13A 1_555 1_555
C14A C10A 1_555 1_555
H17A C14A 1_555 1_555
H18A C14A 1_555 1_555
H19A C14A 1_555 1_555
C15A O3A_2 1_555 1_555
O3 Cd1_2 1_555 1_555
C1 C5 1_555 1_555
C4 C5 1_555 1_555
C10 C11 1_555 1_555
C1A C2A 1_555 1_555
C1A C5A 1_555 1_555
C4A C5A 1_555 1_555
C10A C11A 1_555 1_555
C10A C15A 1_555 1_555

#END
