
#######################################################################
#
#                 Cambridge Crystallographic Data Centre
#                                CCDC 
#
#######################################################################
#
# If this CIF has been generated from an entry in the Cambridge 
# Structural Database, then it will include bibliographic, chemical, 
# crystal, experimental, refinement or atomic coordinate data resulting 
# from the CCDC's data processing and validation procedures.
#
#######################################################################

data_INEHUF
_symmetry_cell_setting           triclinic
_symmetry_space_group_name_H-M   'P -1'
_symmetry_Int_Tables_number      2
_space_group_name_Hall           '-P 1'
loop_
_symmetry_equiv_pos_site_id
_symmetry_equiv_pos_as_xyz
1 x,y,z
2 -x,-y,-z
_cell_length_a                   8.8954(9)
_cell_length_b                   10.7332(10)
_cell_length_c                   14.7779(14)
_cell_angle_alpha                92.014(11)
_cell_angle_beta                 91.693(11)
_cell_angle_gamma                90.566(11)
_cell_volume                     1409.37
loop_
_atom_site_label
_atom_site_type_symbol
_atom_site_fract_x
_atom_site_fract_y
_atom_site_fract_z
Zn1 Zn 0.19396(4) 0.39343(3) 0.30121(2)
O1 O 0.0082(2) 0.44947(18) 0.35603(14)
C1 C -0.1053(4) 0.3803(3) 0.3630(2)
H1 H -0.100(3) 0.285(3) 0.3293(19)
N1 N -0.2310(3) 0.4163(2) 0.40012(16)
C2 C -0.3672(4) 0.3368(3) 0.3973(2)
H2 H -0.3996 0.3254 0.4579
H3 H -0.3451 0.2573 0.3693
H4 H -0.4455 0.3761 0.3629
C3 C -0.2484(4) 0.5443(3) 0.4383(2)
H5 H -0.2996 0.5413 0.4945
H6 H -0.3060 0.5925 0.3965
H7 H -0.1510 0.5823 0.4489
S1 S 0.05787(9) 0.27034(7) 0.12510(5)
O2 O 0.1882(2) 0.33216(17) 0.17430(13)
O3 O -0.0666(2) 0.24923(16) 0.18437(13)
O4 O 0.1101(2) 0.15812(17) 0.07662(13)
C4 C -0.0010(4) 0.3780(3) 0.0421(2)
H8 H -0.081(3) 0.334(2) 0.0038(17)
C5 C -0.0756(4) 0.4909(3) 0.0881(2)
H9 H -0.0042 0.5331 0.1299
H10 H -0.1606 0.4633 0.1222
C6 C 0.1291(4) 0.4191(3) -0.0157(2)
H11 H 0.164(3) 0.347(3) -0.0395(19)
H12 H 0.218(3) 0.455(3) 0.031(2)
S2 S 0.25001(9) 0.16574(6) 0.43083(5)
O5 O 0.2936(2) 0.25697(16) 0.36210(13)
O6 O 0.3603(2) 0.16735(17) 0.50492(13)
O7 O 0.0940(2) 0.18043(17) 0.45611(14)
C7 C 0.2634(4) 0.0179(2) 0.3713(2)
H13 H 0.188(3) 0.022(2) 0.3276(16)
C8 C 0.2340(4) -0.0897(2) 0.4338(2)
H14 H 0.1377 -0.0787 0.4621
H15 H 0.3117 -0.0911 0.4811
C9 C 0.2333(4) -0.2133(3) 0.3772(2)
H16 H 0.2171 -0.2823 0.4166
H17 H 0.1512 -0.2134 0.3326
C10 C 0.3808(4) -0.2311(3) 0.3295(2)
H18 H 0.462(3) -0.241(2) 0.3739(17)
C11 C 0.4160(4) -0.1207(2) 0.2701(2)
H19 H 0.3411 -0.1170 0.2212
H20 H 0.5136 -0.1320 0.2436
C12 C 0.4160(3) 0.0027(2) 0.3280(2)
H21 H 0.4947 0.0010 0.3748
H22 H 0.4355 0.0726 0.2901
S3 S 0.37557(9) -0.37182(6) 0.25816(5)
O8 O 0.2566(2) -0.36050(17) 0.19069(14)
O9 O 0.5247(2) -0.38865(17) 0.22294(15)
O10 O 0.3398(2) -0.47109(16) 0.32370(13)
Zn2 Zn 0.0000 0.0000 0.0000
O11 O -0.0085(2) -0.10714(17) 0.11299(13)
C13 C -0.0573(4) -0.0573(3) 0.1832(2)
H23 H -0.061(3) 0.031(2) 0.1917(18)
N2 N -0.1112(3) -0.1199(2) 0.25160(16)
C14 C -0.1221(4) -0.2559(3) 0.2462(2)
H24 H -0.1067 -0.2879 0.3056
H25 H -0.0468 -0.2883 0.2069
H26 H -0.2200 -0.2808 0.2227
C15 C -0.1624(4) -0.0531(3) 0.3335(2)
H27 H -0.2662 -0.0734 0.3424
H28 H -0.1516 0.0350 0.3265
H29 H -0.1029 -0.0775 0.3850
O12 O 0.2125(2) -0.05959(19) -0.03139(14)
C16 C 0.2880(4) -0.1416(3) 0.0028(2)
H30 H 0.2574 -0.1728 0.0573
N3 N 0.4101(3) -0.1882(3) -0.0334(2)
C17 C 0.4977(5) -0.2860(5) 0.0081(3)
H31 H 0.5165 -0.3507 -0.0365
H32 H 0.4426 -0.3201 0.0565
H33 H 0.5916 -0.2518 0.0316
C18 C 0.4638(5) -0.1406(4) -0.1193(3)
H34 H 0.5716 -0.1343 -0.1165
H35 H 0.4221 -0.0598 -0.1288
H36 H 0.4326 -0.1967 -0.1684
Zn1_2 Zn 0.19396(4) 1.39343(3) 0.30121(2)
Zn1_3 Zn 0.19396(4) -0.60657(3) 0.30121(2)
Zn1A Zn -0.19396(4) 0.60657(3) -0.30121(2)
O1_2 O 0.0082(2) 1.44947(18) 0.35603(14)
C1_2 C -0.1053(4) 1.3803(3) 0.3630(2)
H1_2 H -0.100(3) 1.285(3) 0.3293(19)
N1_2 N -0.2310(3) 1.4163(2) 0.40012(16)
C2_2 C -0.3672(4) 1.3368(3) 0.3973(2)
H2_2 H -0.3996 1.3254 0.4579
H3_2 H -0.3451 1.2573 0.3693
H4_2 H -0.4455 1.3761 0.3629
C3_2 C -0.2484(4) 1.5443(3) 0.4383(2)
H5_2 H -0.2996 1.5413 0.4945
H6_2 H -0.3060 1.5925 0.3965
H7_2 H -0.1510 1.5823 0.4489
S1A S -0.05787(9) 0.72966(7) -0.12510(5)
O2A O -0.1882(2) 0.66784(17) -0.17430(13)
O2_2 O 0.1882(2) 1.33216(17) 0.17430(13)
O3A O 0.0666(2) 0.75077(16) -0.18437(13)
O4A O -0.1101(2) 0.84188(17) -0.07662(13)
O4A_2 O -0.1101(2) -0.15812(17) -0.07662(13)
C4A C 0.0010(4) 0.6220(3) -0.0421(2)
H8A H 0.081(3) 0.666(2) -0.0038(17)
C5A C 0.0756(4) 0.5091(3) -0.0881(2)
H9A H 0.0042 0.4669 -0.1299
H10A H 0.1606 0.5367 -0.1222
C6A C -0.1291(4) 0.5809(3) 0.0157(2)
H11A H -0.164(3) 0.653(3) 0.0395(19)
H12A H -0.218(3) 0.545(3) -0.031(2)
S2_2 S 0.25001(9) 1.16574(6) 0.43083(5)
O5_2 O 0.2936(2) 1.25697(16) 0.36210(13)
O6_2 O 0.3603(2) 1.16735(17) 0.50492(13)
O7_2 O 0.0940(2) 1.18043(17) 0.45611(14)
C7_2 C 0.2634(4) 1.0179(2) 0.3713(2)
H13_2 H 0.188(3) 1.022(2) 0.3276(16)
C8_2 C 0.2340(4) 0.9103(2) 0.4338(2)
H14_2 H 0.1377 0.9213 0.4621
H15_2 H 0.3117 0.9089 0.4811
C9_2 C 0.2333(4) 0.7867(3) 0.3772(2)
H16_2 H 0.2171 0.7177 0.4166
H17_2 H 0.1512 0.7866 0.3326
C10_2 C 0.3808(4) 0.7689(3) 0.3295(2)
H18_2 H 0.462(3) 0.759(2) 0.3739(17)
C11_2 C 0.4160(4) 0.8793(2) 0.2701(2)
H19_2 H 0.3411 0.8830 0.2212
H20_2 H 0.5136 0.8680 0.2436
C12_2 C 0.4160(3) 1.0027(2) 0.3280(2)
H21_2 H 0.4947 1.0010 0.3748
H22_2 H 0.4355 1.0726 0.2901
S3_2 S 0.37557(9) 0.62818(6) 0.25816(5)
O8_2 O 0.2566(2) 0.63950(17) 0.19069(14)
O9_2 O 0.5247(2) 0.61135(17) 0.22294(15)
O10_2 O 0.3398(2) 0.52891(16) 0.32370(13)
O10_3 O 0.3398(2) 1.52891(16) 0.32370(13)
Zn2_2 Zn 0.0000 1.0000 0.0000
O11A O 0.0085(2) 0.10714(17) -0.11299(13)
C13A C 0.0573(4) 0.0573(3) -0.1832(2)
H23A H 0.061(3) -0.031(2) -0.1917(18)
N2A N 0.1112(3) 0.1199(2) -0.25160(16)
C14A C 0.1221(4) 0.2559(3) -0.2462(2)
H24A H 0.1067 0.2879 -0.3056
H25A H 0.0468 0.2883 -0.2069
H26A H 0.2200 0.2808 -0.2227
C15A C 0.1624(4) 0.0531(3) -0.3335(2)
H27A H 0.2662 0.0734 -0.3424
H28A H 0.1516 -0.0350 -0.3265
H29A H 0.1029 0.0775 -0.3850
O12A O -0.2125(2) 0.05959(19) 0.03139(14)
C16A C -0.2880(4) 0.1416(3) -0.0028(2)
H30A H -0.2574 0.1728 -0.0573
N3A N -0.4101(3) 0.1882(3) 0.0334(2)
C17A C -0.4977(5) 0.2860(5) -0.0081(3)
H31A H -0.5165 0.3507 0.0365
H32A H -0.4426 0.3201 -0.0565
H33A H -0.5916 0.2518 -0.0316
C18A C -0.4638(5) 0.1406(4) 0.1193(3)
H34A H -0.5716 0.1343 0.1165
H35A H -0.4221 0.0598 0.1288
H36A H -0.4326 0.1967 0.1684
loop_
_geom_bond_atom_site_label_1
_geom_bond_atom_site_label_2
_geom_bond_site_symmetry_1
_geom_bond_site_symmetry_2
Zn1 O1 1_555 1_555
O1 C1 1_555 1_555
C1 H1 1_555 1_555
N1 C1 1_555 1_555
C2 N1 1_555 1_555
H2 C2 1_555 1_555
H3 C2 1_555 1_555
H4 C2 1_555 1_555
C3 N1 1_555 1_555
H5 C3 1_555 1_555
H6 C3 1_555 1_555
H7 C3 1_555 1_555
S1 O2 1_555 1_555
O2 Zn1 1_555 1_555
O3 S1 1_555 1_555
O4 S1 1_555 1_555
C4 S1 1_555 1_555
H8 C4 1_555 1_555
C5 C4 1_555 1_555
H9 C5 1_555 1_555
H10 C5 1_555 1_555
C6 C4 1_555 1_555
H11 C6 1_555 1_555
H12 C6 1_555 1_555
S2 O5 1_555 1_555
O5 Zn1 1_555 1_555
O6 S2 1_555 1_555
O7 S2 1_555 1_555
C7 S2 1_555 1_555
H13 C7 1_555 1_555
C8 C7 1_555 1_555
H14 C8 1_555 1_555
H15 C8 1_555 1_555
C9 C8 1_555 1_555
H16 C9 1_555 1_555
H17 C9 1_555 1_555
C10 C9 1_555 1_555
H18 C10 1_555 1_555
C11 C10 1_555 1_555
H19 C11 1_555 1_555
H20 C11 1_555 1_555
C12 C7 1_555 1_555
H21 C12 1_555 1_555
H22 C12 1_555 1_555
S3 C10 1_555 1_555
O8 S3 1_555 1_555
O9 S3 1_555 1_555
O10 S3 1_555 1_555
Zn2 O4 1_555 1_555
O11 Zn2 1_555 1_555
C13 O11 1_555 1_555
H23 C13 1_555 1_555
N2 C13 1_555 1_555
C14 N2 1_555 1_555
H24 C14 1_555 1_555
H25 C14 1_555 1_555
H26 C14 1_555 1_555
C15 N2 1_555 1_555
H27 C15 1_555 1_555
H28 C15 1_555 1_555
H29 C15 1_555 1_555
O12 Zn2 1_555 1_555
C16 O12 1_555 1_555
H30 C16 1_555 1_555
N3 C16 1_555 1_555
C17 N3 1_555 1_555
H31 C17 1_555 1_555
H32 C17 1_555 1_555
H33 C17 1_555 1_555
C18 N3 1_555 1_555
H34 C18 1_555 1_555
H35 C18 1_555 1_555
H36 C18 1_555 1_555
Zn1_2 O1_2 1_555 1_555
Zn1_3 O10 1_555 1_555
Zn1A O2A 1_555 1_555
O1_2 C1_2 1_555 1_555
C1_2 H1_2 1_555 1_555
N1_2 C1_2 1_555 1_555
C2_2 N1_2 1_555 1_555
H2_2 C2_2 1_555 1_555
H3_2 C2_2 1_555 1_555
H4_2 C2_2 1_555 1_555
C3_2 N1_2 1_555 1_555
H5_2 C3_2 1_555 1_555
H6_2 C3_2 1_555 1_555
H7_2 C3_2 1_555 1_555
S1A O2A 1_555 1_555
O2_2 Zn1_2 1_555 1_555
O3A S1A 1_555 1_555
O4A S1A 1_555 1_555
O4A_2 Zn2 1_555 1_555
C4A S1A 1_555 1_555
H8A C4A 1_555 1_555
C5A C6 1_555 1_555
H9A C5A 1_555 1_555
H10A C5A 1_555 1_555
C6A C5 1_555 1_555
H11A C6A 1_555 1_555
H12A C6A 1_555 1_555
S2_2 O5_2 1_555 1_555
O5_2 Zn1_2 1_555 1_555
O6_2 S2_2 1_555 1_555
O7_2 S2_2 1_555 1_555
C7_2 S2_2 1_555 1_555
H13_2 C7_2 1_555 1_555
C8_2 C7_2 1_555 1_555
H14_2 C8_2 1_555 1_555
H15_2 C8_2 1_555 1_555
C9_2 C8_2 1_555 1_555
H16_2 C9_2 1_555 1_555
H17_2 C9_2 1_555 1_555
C10_2 C9_2 1_555 1_555
H18_2 C10_2 1_555 1_555
C11_2 C10_2 1_555 1_555
H19_2 C11_2 1_555 1_555
H20_2 C11_2 1_555 1_555
C12_2 C7_2 1_555 1_555
H21_2 C12_2 1_555 1_555
H22_2 C12_2 1_555 1_555
S3_2 C10_2 1_555 1_555
O8_2 S3_2 1_555 1_555
O9_2 S3_2 1_555 1_555
O10_2 Zn1 1_555 1_555
O10_3 Zn1_2 1_555 1_555
Zn2_2 O4A 1_555 1_555
O11A Zn2 1_555 1_555
C13A O11A 1_555 1_555
H23A C13A 1_555 1_555
N2A C13A 1_555 1_555
C14A N2A 1_555 1_555
H24A C14A 1_555 1_555
H25A C14A 1_555 1_555
H26A C14A 1_555 1_555
C15A N2A 1_555 1_555
H27A C15A 1_555 1_555
H28A C15A 1_555 1_555
H29A C15A 1_555 1_555
O12A Zn2 1_555 1_555
C16A O12A 1_555 1_555
H30A C16A 1_555 1_555
N3A C16A 1_555 1_555
C17A N3A 1_555 1_555
H31A C17A 1_555 1_555
H32A C17A 1_555 1_555
H33A C17A 1_555 1_555
C18A N3A 1_555 1_555
H34A C18A 1_555 1_555
H35A C18A 1_555 1_555
H36A C18A 1_555 1_555
C11 C12 1_555 1_555
C4A C5A 1_555 1_555
C4A C6A 1_555 1_555
C11_2 C12_2 1_555 1_555
S3_2 O10_2 1_555 1_555

#END
