
#######################################################################
#
#                 Cambridge Crystallographic Data Centre
#                                CCDC 
#
#######################################################################
#
# If this CIF has been generated from an entry in the Cambridge 
# Structural Database, then it will include bibliographic, chemical, 
# crystal, experimental, refinement or atomic coordinate data resulting 
# from the CCDC's data processing and validation procedures.
#
#######################################################################

data_INESOK
_symmetry_cell_setting           triclinic
_symmetry_space_group_name_H-M   'P -1'
_symmetry_Int_Tables_number      2
_space_group_name_Hall           '-P 1'
loop_
_symmetry_equiv_pos_site_id
_symmetry_equiv_pos_as_xyz
1 x,y,z
2 -x,-y,-z
_cell_length_a                   9.594(5)
_cell_length_b                   13.472(5)
_cell_length_c                   22.475(5)
_cell_angle_alpha                104.079(5)
_cell_angle_beta                 90.007(5)
_cell_angle_gamma                101.209(5)
_cell_volume                     2760.46
loop_
_atom_site_label
_atom_site_type_symbol
_atom_site_fract_x
_atom_site_fract_y
_atom_site_fract_z
La1 La 0.43566(2) 0.265947(16) 0.188564(9)
La2 La 1.38632(2) 0.037017(16) 0.290509(9)
O1 O 0.4547(3) 0.2480(2) 0.29542(11)
O2 O 1.3326(3) 0.0577(2) 0.18539(11)
O3 O 0.4910(3) 0.3267(2) 0.09233(13)
O4 O 0.6184(3) 0.1595(2) 0.17045(14)
O5 O 1.2876(4) 0.1195(2) 0.10736(13)
O6 O 0.5391(3) 0.1956(2) 0.37065(12)
C1 C 1.0997(4) -0.1033(3) 0.06856(17)
O7 O 0.6180(3) 0.0725(2) 0.24338(12)
O8 O 0.2824(3) 0.3491(2) 0.12785(12)
O9 O 0.2069(3) 0.8628(2) 0.23169(12)
C2 C 0.6589(4) 0.0938(3) 0.19370(19)
O10 O 0.1897(3) 0.2445(2) 0.22831(14)
H1 H 0.1789 0.2034 0.2504
H2 H 0.1273 0.2309 0.2007
C3 C 0.9840(4) -0.0543(3) 0.09931(17)
C4 C 0.2970(4) 0.7226(3) 0.16722(18)
O11 O 0.4338(3) 0.8624(2) 0.24191(15)
O12 O 1.1574(3) 0.1060(3) 0.30085(16)
C5 C 0.3234(4) 0.3601(3) 0.02467(17)
N1 N 0.4329(4) 0.4627(3) 0.25334(16)
C6 C 0.8325(4) 0.3531(3) 0.38717(19)
C7 C 0.9410(4) 0.2253(3) 0.31993(18)
H3 H 0.9447 0.1816 0.2812
N2 N 1.5608(4) -0.0140(3) 0.37108(14)
N3 N 0.6852(4) 0.4091(3) 0.21382(17)
C8 C 0.5773(4) 0.3781(3) 0.38025(17)
N4 N 1.2733(4) -0.0783(3) 0.36920(15)
C9 C 0.7670(4) 0.0367(3) 0.15961(17)
C10 C 1.2424(4) -0.0623(3) 0.08762(16)
C11 C 0.9692(4) -0.0442(3) 0.16178(18)
H4 H 1.0338 -0.0661 0.1841
C12 C 0.2712(4) 0.4484(3) 0.01988(18)
C13 C 1.0682(4) -0.1917(3) 0.02002(18)
H5 H 0.9740 -0.2187 0.0060
C14 C 0.2718(5) 0.2821(4) -0.08305(19)
H6 H 0.2720 0.2267 -0.1171
C15 C 0.8850(4) -0.0210(3) 0.06664(19)
H7 H 0.8901 -0.0308 0.0243
C16 C 0.5228(4) 0.2669(3) 0.34715(17)
C17 C 1.0381(4) 0.2278(3) 0.36663(19)
C18 C 1.5072(4) -0.0705(3) 0.41067(16)
O13 O 1.2172(4) 0.1492(3) 0.39933(19)
C19 C 0.8599(4) -0.0021(3) 0.19134(17)
H8 H 0.8482 0.0002 0.2327
C20 C 1.3560(4) -0.1055(3) 0.40950(17)
C21 C 0.1622(4) 0.5890(3) 0.08533(19)
H9 H 0.0770 0.5606 0.0623
C22 C 0.2776(4) 0.5405(3) 0.07212(17)
C23 C 1.3876(5) -0.1916(3) 0.4913(2)
H10 H 1.3483 -0.2315 0.5179
C24 C 1.0340(5) 0.2962(3) 0.42273(19)
H11 H 1.1003 0.3010 0.4540
C25 C 0.1714(4) 0.6790(3) 0.13215(19)
H12 H 0.0928 0.7102 0.1401
C26 C 0.8400(4) 0.2861(3) 0.33010(18)
H13 H 0.7756 0.2824 0.2983
C27 C 0.7214(4) 0.4190(3) 0.39973(18)
C28 C 0.4019(4) 0.5847(3) 0.10816(19)
H14 H 0.4799 0.5525 0.1013
C29 C 0.7799(4) 0.0261(3) 0.09672(19)
H15 H 0.7177 0.0509 0.0749
C30 C 1.1461(4) 0.1567(3) 0.3560(2)
C31 C 0.4127(5) 0.6750(3) 0.1538(2)
H16 H 0.4988 0.7045 0.1760
C32 C 1.1735(5) -0.2402(3) -0.00770(19)
H17 H 1.1502 -0.2988 -0.0405
C33 C 1.2962(5) -0.1678(3) 0.44899(18)
C34 C 1.3126(5) -0.2022(3) 0.0129(2)
H18 H 1.3836 -0.2356 -0.0053
C35 C 1.7015(5) 0.0194(3) 0.3721(2)
H19 H 1.7393 0.0582 0.3447
C36 C 1.3465(5) -0.1153(3) 0.0603(2)
H20 H 1.4408 -0.0907 0.0747
C37 C 0.9332(5) 0.3578(3) 0.43333(19)
H21 H 0.9320 0.4032 0.4717
C38 C 0.6827(6) 0.5131(3) 0.2413(2)
C39 C 0.2206(5) 0.3665(4) -0.0888(2)
H22 H 0.1845 0.3687 -0.1268
C40 C 0.4794(5) 0.4436(4) 0.39458(19)
H23 H 0.3846 0.4176 0.3813
C41 C 1.1347(5) -0.1123(4) 0.3674(2)
H24 H 1.0783 -0.0930 0.3402
C42 C 0.3111(5) 0.8212(3) 0.21664(18)
C43 C 0.2219(5) 0.4494(4) -0.0383(2)
H25 H 0.1888 0.5075 -0.0433
C44 C 1.2893(4) 0.0447(3) 0.13013(17)
C45 C 1.5943(5) -0.0959(3) 0.45290(18)
C46 C 1.5284(6) -0.1578(3) 0.49353(19)
H26 H 1.5852 -0.1744 0.5217
C47 C 0.3688(4) 0.3462(3) 0.08540(17)
C48 C 0.5501(6) 0.5393(4) 0.2617(2)
C49 C 1.1498(5) -0.2028(4) 0.4445(2)
H27 H 1.1074 -0.2452 0.4692
C50 C 0.5197(6) 0.5453(4) 0.4278(2)
H28 H 0.4521 0.5867 0.4385
C51 C 0.3236(4) 0.2786(3) -0.02645(19)
H29 H 0.3590 0.2208 -0.0226
C52 C 0.3108(6) 0.4877(4) 0.2731(2)
H30 H 0.2304 0.4347 0.2680
C53 C 0.6591(6) 0.5852(4) 0.4451(3)
H31 H 0.6867 0.6548 0.4665
C54 C 0.7601(5) 0.5242(4) 0.4314(2)
H32 H 0.8550 0.5533 0.4433
C55 C 0.8070(5) 0.3855(4) 0.1934(2)
H33 H 0.8098 0.3163 0.1748
C56 C 1.7395(5) -0.0596(4) 0.4528(2)
H34 H 1.8004 -0.0746 0.4802
C57 C 0.5445(8) 0.6453(4) 0.2888(2)
C58 C 1.7934(5) -0.0026(4) 0.4132(2)
H35 H 1.8910 0.0218 0.4134
C59 C 0.6702(10) 0.7224(5) 0.2937(3)
H36 H 0.6671 0.7920 0.3111
C60 C 0.9301(7) 0.5642(5) 0.2262(3)
H37 H 1.0122 0.6156 0.2302
C61 C 1.0678(5) -0.1754(4) 0.4040(2)
H38 H 0.9696 -0.1983 0.4009
C62 C 0.2972(8) 0.5904(5) 0.3014(3)
H39 H 0.2102 0.6052 0.3149
C63 C 0.9343(6) 0.4631(6) 0.1989(3)
H40 H 1.0187 0.4448 0.1841
C64 C 0.7934(9) 0.6974(4) 0.2739(3)
H41 H 0.8735 0.7503 0.2770
C65 C 0.4134(9) 0.6661(5) 0.3081(3)
H42 H 0.4061 0.7347 0.3262
C66 C 0.8051(7) 0.5906(4) 0.2477(2)
La1_2 La 1.43566(2) 0.265947(16) 0.188564(9)
La2_2 La 0.38632(2) 0.037017(16) 0.290509(9)
La2_3 La 0.38632(2) 1.037017(16) 0.290509(9)
O1_2 O 1.4547(3) 0.2480(2) 0.29542(11)
O2_2 O 0.3326(3) 0.0577(2) 0.18539(11)
O5_2 O 0.2876(4) 0.1195(2) 0.10736(13)
O6_2 O 1.5391(3) 0.1956(2) 0.37065(12)
O7_2 O 1.6180(3) 0.0725(2) 0.24338(12)
O9_2 O 1.2069(3) -0.1372(2) 0.23169(12)
O11_2 O 1.4338(3) -0.1376(2) 0.24191(15)
O14 O 0.0155(4) 0.2422(3) 0.13473(17)
H43 H 0.0884 0.2786 0.1258
H44 H -0.0111 0.1859 0.1098
loop_
_geom_bond_atom_site_label_1
_geom_bond_atom_site_label_2
_geom_bond_site_symmetry_1
_geom_bond_site_symmetry_2
La1 O1 1_555 1_555
La2 O2 1_555 1_555
O1 C16 1_555 1_555
O2 C44 1_555 1_555
O3 La1 1_555 1_555
O4 La1 1_555 1_555
O5 C44 1_555 1_555
O6 C16 1_555 1_555
C1 C3 1_555 1_555
O7 C2 1_555 1_555
O8 La1 1_555 1_555
O9 C42 1_555 1_555
C2 O4 1_555 1_555
O10 La1 1_555 1_555
H1 O10 1_555 1_555
H2 O10 1_555 1_555
C3 C11 1_555 1_555
C4 C25 1_555 1_555
O11 C42 1_555 1_555
O12 La2 1_555 1_555
C5 C12 1_555 1_555
N1 La1 1_555 1_555
C6 C26 1_555 1_555
C7 H3 1_555 1_555
N2 La2 1_555 1_555
N3 La1 1_555 1_555
C8 C16 1_555 1_555
N4 La2 1_555 1_555
C9 C2 1_555 1_555
C10 C1 1_555 1_555
C11 H4 1_555 1_555
C12 C22 1_555 1_555
C13 C1 1_555 1_555
H5 C13 1_555 1_555
C14 H6 1_555 1_555
C15 C3 1_555 1_555
H7 C15 1_555 1_555
C17 C7 1_555 1_555
C18 N2 1_555 1_555
O13 C30 1_555 1_555
C19 C9 1_555 1_555
H8 C19 1_555 1_555
C20 N4 1_555 1_555
C21 H9 1_555 1_555
C22 C21 1_555 1_555
C23 H10 1_555 1_555
C24 C17 1_555 1_555
H11 C24 1_555 1_555
C25 C21 1_555 1_555
H12 C25 1_555 1_555
C26 C7 1_555 1_555
H13 C26 1_555 1_555
C27 C6 1_555 1_555
C28 C22 1_555 1_555
H14 C28 1_555 1_555
C29 C9 1_555 1_555
H15 C29 1_555 1_555
C30 O12 1_555 1_555
C31 C4 1_555 1_555
H16 C31 1_555 1_555
C32 C13 1_555 1_555
H17 C32 1_555 1_555
C33 C20 1_555 1_555
C34 C32 1_555 1_555
H18 C34 1_555 1_555
C35 N2 1_555 1_555
H19 C35 1_555 1_555
C36 C10 1_555 1_555
H20 C36 1_555 1_555
C37 C6 1_555 1_555
H21 C37 1_555 1_555
C38 N3 1_555 1_555
C39 C14 1_555 1_555
H22 C39 1_555 1_555
C40 C8 1_555 1_555
H23 C40 1_555 1_555
C41 N4 1_555 1_555
H24 C41 1_555 1_555
C42 C4 1_555 1_555
C43 C12 1_555 1_555
H25 C43 1_555 1_555
C44 C10 1_555 1_555
C45 C18 1_555 1_555
C46 C23 1_555 1_555
H26 C46 1_555 1_555
C47 O3 1_555 1_555
C48 N1 1_555 1_555
C49 C33 1_555 1_555
H27 C49 1_555 1_555
C50 C40 1_555 1_555
H28 C50 1_555 1_555
C51 C5 1_555 1_555
H29 C51 1_555 1_555
C52 N1 1_555 1_555
H30 C52 1_555 1_555
C53 C50 1_555 1_555
H31 C53 1_555 1_555
C54 C27 1_555 1_555
H32 C54 1_555 1_555
C55 N3 1_555 1_555
H33 C55 1_555 1_555
C56 C45 1_555 1_555
H34 C56 1_555 1_555
C57 C48 1_555 1_555
C58 C35 1_555 1_555
H35 C58 1_555 1_555
C59 C57 1_555 1_555
H36 C59 1_555 1_555
C60 H37 1_555 1_555
C61 C41 1_555 1_555
H38 C61 1_555 1_555
C62 C52 1_555 1_555
H39 C62 1_555 1_555
C63 C55 1_555 1_555
H40 C63 1_555 1_555
C64 C59 1_555 1_555
H41 C64 1_555 1_555
C65 C57 1_555 1_555
H42 C65 1_555 1_555
C66 C38 1_555 1_555
O14 H43 1_555 1_555
H44 O14 1_555 1_555
La1_2 O2 1_555 1_555
La2_2 O1 1_555 1_555
La2_3 O9 1_555 1_555
O1_2 La2 1_555 1_555
O2_2 La1 1_555 1_555
O5_2 La1 1_555 1_555
O6_2 La2 1_555 1_555
O7_2 La2 1_555 1_555
O9_2 La2 1_555 1_555
O11_2 La2 1_555 1_555
O5 La1_2 1_555 1_555
O6 La2_2 1_555 1_555
O7 La2_2 1_555 1_555
O8 C47 1_555 1_555
O11 La2_3 1_555 1_555
C5 C47 1_555 1_555
C8 C27 1_555 1_555
C11 C19 1_555 1_555
C14 C51 1_555 1_555
C15 C29 1_555 1_555
C17 C30 1_555 1_555
C18 C20 1_555 1_555
C23 C33 1_555 1_555
C24 C37 1_555 1_555
C28 C31 1_555 1_555
C34 C36 1_555 1_555
C38 C48 1_555 1_555
C39 C43 1_555 1_555
C45 C46 1_555 1_555
C49 C61 1_555 1_555
C53 C54 1_555 1_555
C56 C58 1_555 1_555
C60 C63 1_555 1_555
C60 C66 1_555 1_555
C62 C65 1_555 1_555
C64 C66 1_555 1_555
La1_2 O1_2 1_555 1_555
La2_2 O2_2 1_555 1_555

#END
