
#######################################################################
#
#                 Cambridge Crystallographic Data Centre
#                                CCDC 
#
#######################################################################
#
# If this CIF has been generated from an entry in the Cambridge 
# Structural Database, then it will include bibliographic, chemical, 
# crystal, experimental, refinement or atomic coordinate data resulting 
# from the CCDC's data processing and validation procedures.
#
#######################################################################

data_INEYEG
_symmetry_cell_setting           monoclinic
_symmetry_space_group_name_H-M   'P 21'
_symmetry_Int_Tables_number      4
_space_group_name_Hall           'P 2yb'
loop_
_symmetry_equiv_pos_site_id
_symmetry_equiv_pos_as_xyz
1 x,y,z
2 -x,1/2+y,-z
_cell_length_a                   11.669(3)
_cell_length_b                   6.6737(18)
_cell_length_c                   13.508(4)
_cell_angle_alpha                90
_cell_angle_beta                 105.295(5)
_cell_angle_gamma                90
_cell_volume                     1014.68
loop_
_atom_site_label
_atom_site_type_symbol
_atom_site_fract_x
_atom_site_fract_y
_atom_site_fract_z
Ca1 Ca 0.93605(6) 0.19283(13) 0.54302(5)
O1 O 0.7546(3) 0.0310(5) 0.4254(3)
O2 O 0.7650(3) 0.3580(5) 0.4196(3)
C1 C 0.6530(5) 0.3370(9) 0.1535(4)
C2 C 0.6538(6) 0.4748(11) 0.0786(4)
H1 H 0.6999 0.4544 0.0328
C3 C 0.5859(7) 0.6418(12) 0.0724(5)
H2 H 0.5833 0.7350 0.0207
C4 C 0.5214(6) 0.6738(11) 0.1416(5)
H3 H 0.4764 0.7900 0.1375
C5 C 0.5223(5) 0.5314(9) 0.2197(5)
H4 H 0.4779 0.5539 0.2666
C6 C 0.5906(4) 0.3563(7) 0.2259(4)
C7 C 0.5939(4) 0.2005(11) 0.3076(3)
H5 H 0.5791 0.0696 0.2756
H6 H 0.5310 0.2280 0.3404
C8 C 0.7126(3) 0.1965(9) 0.3890(3)
Cl1 Cl 0.73810(17) 0.1197(3) 0.15623(14)
O3 O 0.9699(3) 0.8576(5) 0.6007(2)
O4 O 0.9774(3) 0.5334(5) 0.5848(2)
C9 C 0.9133(7) 1.1426(10) 0.9321(4)
H7 H 0.9096 1.2494 0.9754
C10 C 1.0063(6) 1.1259(8) 0.8883(4)
H8 H 1.0661 1.2221 0.9021
C11 C 1.0123(5) 0.9675(8) 0.8236(4)
H9 H 1.0760 0.9588 0.7945
C12 C 0.9240(4) 0.8206(7) 0.8014(3)
C13 C 0.8323(5) 0.8404(9) 0.8484(3)
C14 C 0.8261(6) 1.0005(11) 0.9114(4)
H10 H 0.7621 1.0117 0.9400
C15 C 0.9315(5) 0.6467(7) 0.7336(4)
H11 H 0.8558 0.5774 0.7183
H12 H 0.9907 0.5549 0.7729
C16 C 0.9610(3) 0.6862(8) 0.6335(2)
Cl2 Cl 0.72103(13) 0.6583(3) 0.82965(12)
O5 O 1.1366(2) 0.1974(6) 0.65226(19)
H13 H 1.1708 0.0933 0.6451
H14 H 1.1756 0.2938 0.6422
O6 O 0.8023(3) 0.1962(7) 0.6497(2)
H15 H 0.8312 0.1916 0.7120
H16 H 0.7304 0.2005 0.6235
Ca1_2 Ca 0.93605(6) 1.19283(13) 0.54302(5)
Ca1A Ca 1.06395(6) 0.69283(13) 0.45698(5)
O3_2 O 0.9699(3) -0.1424(5) 0.6007(2)
O3A O 1.0301(3) 0.3576(5) 0.3993(2)
O4A O 1.0226(3) 0.0334(5) 0.4152(2)
O7 O 0.6497(3) 0.6891(8) 0.4933(3)
H17 H 0.6793 0.5834 0.4813
H18 H 0.6761 0.8006 0.4862
O8 O 0.4202(4) 0.8441(9) 0.4052(4)
H19 H 0.3932 0.9444 0.4259
H20 H 0.4896 0.8780 0.4133
loop_
_geom_bond_atom_site_label_1
_geom_bond_atom_site_label_2
_geom_bond_site_symmetry_1
_geom_bond_site_symmetry_2
Ca1 O1 1_555 1_555
O1 C8 1_555 1_555
O2 Ca1 1_555 1_555
C1 C2 1_555 1_555
C2 H1 1_555 1_555
C3 C2 1_555 1_555
H2 C3 1_555 1_555
C4 C3 1_555 1_555
H3 C4 1_555 1_555
C5 C4 1_555 1_555
H4 C5 1_555 1_555
C6 C1 1_555 1_555
C7 C6 1_555 1_555
H5 C7 1_555 1_555
H6 C7 1_555 1_555
C8 O2 1_555 1_555
Cl1 C1 1_555 1_555
O3 C16 1_555 1_555
O4 Ca1 1_555 1_555
C9 H7 1_555 1_555
C10 C9 1_555 1_555
H8 C10 1_555 1_555
C11 C10 1_555 1_555
H9 C11 1_555 1_555
C12 C11 1_555 1_555
C13 C12 1_555 1_555
C14 C9 1_555 1_555
H10 C14 1_555 1_555
C15 C12 1_555 1_555
H11 C15 1_555 1_555
H12 C15 1_555 1_555
C16 O4 1_555 1_555
Cl2 C13 1_555 1_555
O5 Ca1 1_555 1_555
H13 O5 1_555 1_555
H14 O5 1_555 1_555
O6 Ca1 1_555 1_555
H15 O6 1_555 1_555
H16 O6 1_555 1_555
O7 H17 1_555 1_555
H18 O7 1_555 1_555
O8 H19 1_555 1_555
H20 O8 1_555 1_555
Ca1_2 O3 1_555 1_555
Ca1A O3 1_555 1_555
O3_2 Ca1 1_555 1_555
O3A Ca1 1_555 1_555
O4A Ca1 1_555 1_555
C5 C6 1_555 1_555
C7 C8 1_555 1_555
O4 Ca1A 1_555 1_555
C13 C14 1_555 1_555
C15 C16 1_555 1_555
Ca1A O3A 1_555 1_555

#END
