
#######################################################################
#
#                 Cambridge Crystallographic Data Centre
#                                CCDC 
#
#######################################################################
#
# If this CIF has been generated from an entry in the Cambridge 
# Structural Database, then it will include bibliographic, chemical, 
# crystal, experimental, refinement or atomic coordinate data resulting 
# from the CCDC's data processing and validation procedures.
#
#######################################################################

data_INEZAD
_symmetry_cell_setting           orthorhombic
_symmetry_space_group_name_H-M   'P n n m'
_symmetry_Int_Tables_number      58
_space_group_name_Hall           '-P 2 2n'
loop_
_symmetry_equiv_pos_site_id
_symmetry_equiv_pos_as_xyz
1 x,y,z
2 -x,-y,z
3 1/2-x,1/2+y,1/2-z
4 1/2+x,1/2-y,1/2-z
5 -x,-y,-z
6 x,y,-z
7 1/2+x,1/2-y,1/2+z
8 1/2-x,1/2+y,1/2+z
_cell_length_a                   20.778(4)
_cell_length_b                   6.8841(14)
_cell_length_c                   7.5037(15)
_cell_angle_alpha                90
_cell_angle_beta                 90
_cell_angle_gamma                90
_cell_volume                     1073.31
loop_
_atom_site_label
_atom_site_type_symbol
_atom_site_fract_x
_atom_site_fract_y
_atom_site_fract_z
Co1 Co 0.289643(12) 0.74860(3) 0.0000
O1 O 0.21603(7) 0.9648(2) 0.0000
O2 O 0.33630(4) 0.88336(14) 0.21681(12)
O3 O 0.26111(5) 1.08881(14) 0.31018(13)
N1 N 0.36598(8) 0.5385(2) 0.0000
C1 C 0.31336(7) 0.99728(19) 0.32944(17)
C2 C 0.35149(10) 1.0303(3) 0.5000
C3 C 0.46259(11) 0.2538(3) 0.0000
C4 C 0.38998(8) 0.4683(2) 0.1514(2)
H1 H 0.3740 0.5157 0.2588
C5 C 0.43773(8) 0.3276(3) 0.1560(3)
H2 H 0.4530 0.2829 0.2651
C6 C 0.51440(12) 0.1006(4) 0.0000
H3 H 0.2266(9) 1.031(3) 0.094(3)
H4 H 0.5416(10) 0.116(3) -0.105(3)
H5 H 0.3863(11) 0.950(3) 0.5000
H6 H 0.3652(11) 1.181(4) 0.5000
Co1_2 Co 0.289643(12) 0.74860(3) 1.0000
Co1B Co 0.210357(12) 1.24860(3) 0.5000
Co1A Co 0.710357(12) -0.74860(3) 0.0000
Co1C Co 0.789643(12) -1.24860(3) 0.5000
Co1A_2 Co 0.710357(12) -0.74860(3) 1.0000
O1A O 0.78397(7) -0.9648(2) 0.0000
O2E O 0.33630(4) 0.88336(14) 0.78319(12)
O2E_2 O 0.33630(4) 0.88336(14) -0.21681(12)
O2A O 0.66370(4) -0.88336(14) 0.21681(12)
O2D O 0.66370(4) -0.88336(14) -0.21681(12)
O2D_2 O 0.66370(4) -0.88336(14) 0.78319(12)
O3E O 0.26111(5) 1.08881(14) 0.68982(13)
O3B O 0.23889(5) 0.58881(14) 0.18982(13)
O3G O 0.23889(5) 0.58881(14) -0.18982(13)
O3C O 0.76111(5) -0.58881(14) 0.18982(13)
O3F O 0.76111(5) -0.58881(14) -0.18982(13)
O3A O 0.73889(5) -1.08881(14) 0.31018(13)
O3D O 0.73889(5) -1.08881(14) 0.68982(13)
N1A N 0.63402(8) -0.5385(2) 0.0000
C1E C 0.31336(7) 0.99728(19) 0.67056(17)
C1A C 0.68664(7) -0.99728(19) 0.32944(17)
C1D C 0.68664(7) -0.99728(19) 0.67056(17)
C2A C 0.64851(10) -1.0303(3) 0.5000
C3A C 0.53741(11) -0.2538(3) 0.0000
C4A C 0.61002(8) -0.4683(2) 0.1514(2)
C4D C 0.61002(8) -0.4683(2) -0.1514(2)
C4E C 0.38998(8) 0.4683(2) -0.1514(2)
H1D H 0.6260 -0.5157 -0.2588
H1A H 0.6260 -0.5157 0.2588
H1E H 0.3740 0.5157 -0.2588
C5A C 0.56227(8) -0.3276(3) 0.1560(3)
C5D C 0.56227(8) -0.3276(3) -0.1560(3)
C5E C 0.43773(8) 0.3276(3) -0.1560(3)
H2D H 0.5470 -0.2829 -0.2651
H2A H 0.5470 -0.2829 0.2651
H2E H 0.4530 0.2829 -0.2651
C6A C 0.48560(12) -0.1006(4) 0.0000
H3E H 0.2266(9) 1.031(3) -0.094(3)
H3A H 0.7734(9) -1.031(3) 0.094(3)
H3D H 0.7734(9) -1.031(3) -0.094(3)
H4A H 0.4584(10) -0.116(3) -0.105(3)
H4D H 0.4584(10) -0.116(3) 0.105(3)
H4E H 0.5416(10) 0.116(3) 0.105(3)
H5A H 0.6137(11) -0.950(3) 0.5000
H6A H 0.6348(11) -1.181(4) 0.5000
loop_
_geom_bond_atom_site_label_1
_geom_bond_atom_site_label_2
_geom_bond_site_symmetry_1
_geom_bond_site_symmetry_2
Co1 O1 1_555 1_555
O1 H3 1_555 1_555
O2 Co1 1_555 1_555
O3 C1 1_555 1_555
N1 Co1 1_555 1_555
C1 O2 1_555 1_555
C2 C1 1_555 1_555
C3 C5 1_555 1_555
C4 N1 1_555 1_555
H1 C4 1_555 1_555
C5 C4 1_555 1_555
H2 C5 1_555 1_555
C6 C3 1_555 1_555
H4 C6 1_555 1_555
H5 C2 1_555 1_555
H6 C2 1_555 1_555
Co1_2 O2E 1_555 1_555
Co1B O3 1_555 1_555
Co1A O1A 1_555 1_555
Co1C O3A 1_555 1_555
Co1A_2 O2D_2 1_555 1_555
O1A H3A 1_555 1_555
O2E C1E 1_555 1_555
O2E_2 Co1 1_555 1_555
O2A Co1A 1_555 1_555
O2D Co1A 1_555 1_555
O2D_2 C1D 1_555 1_555
O3E Co1B 1_555 1_555
O3B Co1 1_555 1_555
O3G Co1 1_555 1_555
O3C Co1A 1_555 1_555
O3F Co1A 1_555 1_555
O3A C1A 1_555 1_555
O3D Co1C 1_555 1_555
N1A Co1A 1_555 1_555
C1E C2 1_555 1_555
C1A O2A 1_555 1_555
C1D O3D 1_555 1_555
C2A C1A 1_555 1_555
C3A C5A 1_555 1_555
C4A N1A 1_555 1_555
C4D N1A 1_555 1_555
C4E N1 1_555 1_555
H1D C4D 1_555 1_555
H1A C4A 1_555 1_555
H1E C4E 1_555 1_555
C5A C4A 1_555 1_555
C5D C3A 1_555 1_555
C5E C3 1_555 1_555
H2D C5D 1_555 1_555
H2A C5A 1_555 1_555
H2E C5E 1_555 1_555
C6A C6 1_555 1_555
H3E O1 1_555 1_555
H3D O1A 1_555 1_555
H4A C6A 1_555 1_555
H4D C6A 1_555 1_555
H4E C6 1_555 1_555
H5A C2A 1_555 1_555
H6A C2A 1_555 1_555
O3E C1E 1_555 1_555
C1D C2A 1_555 1_555
C3A C6A 1_555 1_555
C4D C5D 1_555 1_555
C4E C5E 1_555 1_555

#END
