
#######################################################################
#
#                 Cambridge Crystallographic Data Centre
#                                CCDC 
#
#######################################################################
#
# If this CIF has been generated from an entry in the Cambridge 
# Structural Database, then it will include bibliographic, chemical, 
# crystal, experimental, refinement or atomic coordinate data resulting 
# from the CCDC's data processing and validation procedures.
#
#######################################################################

data_INIBIR
_symmetry_cell_setting           triclinic
_symmetry_space_group_name_H-M   'P -1'
_symmetry_Int_Tables_number      2
_space_group_name_Hall           '-P 1'
loop_
_symmetry_equiv_pos_site_id
_symmetry_equiv_pos_as_xyz
1 x,y,z
2 -x,-y,-z
_cell_length_a                   8.577(5)
_cell_length_b                   10.259(5)
_cell_length_c                   11.765(5)
_cell_angle_alpha                86.604(5)
_cell_angle_beta                 87.368(5)
_cell_angle_gamma                85.602(5)
_cell_volume                     1029.47
loop_
_atom_site_label
_atom_site_type_symbol
_atom_site_fract_x
_atom_site_fract_y
_atom_site_fract_z
Cd1 Cd 0.752340(16) 0.762339(14) 0.260973(13)
O1 O 0.8209(2) 0.67695(16) 0.08866(14)
O2 O 0.9062(2) 0.55680(18) 0.23590(15)
O3 O 0.8208(2) 0.83992(18) 0.42769(15)
O4 O 0.9858(2) 0.8763(2) 0.28335(16)
N1 N 0.5373(2) 0.66722(18) 0.33684(16)
N2 N 0.35232(19) 0.52735(17) 0.36956(16)
N3 N 0.6048(2) -0.05943(17) 0.18805(16)
N4 N 0.3986(2) 0.07883(17) 0.14936(16)
C1 C 0.4753(2) 0.5634(2) 0.30344(19)
H1 H 0.5130 0.5190 0.2400
C2 C 0.4485(2) 0.7030(2) 0.43374(18)
C3 C 0.3328(2) 0.6152(2) 0.45518(19)
C4 C 0.2291(3) 0.6230(3) 0.5496(2)
H2 H 0.1530 0.5637 0.5643
C5 C 0.2451(3) 0.7220(3) 0.6194(2)
H3 H 0.1790 0.7293 0.6840
C6 C 0.3576(3) 0.8130(3) 0.5973(2)
H4 H 0.3626 0.8804 0.6462
C7 C 0.4612(3) 0.8049(2) 0.5044(2)
H5 H 0.5363 0.8652 0.4897
C8 C 0.2513(3) 0.4197(2) 0.3571(2)
H6 H 0.1443 0.4559 0.3493
H7 H 0.2544 0.3624 0.4256
C9 C 0.2998(3) 0.3401(2) 0.2552(2)
H8 H 0.4101 0.3114 0.2578
H9 H 0.2839 0.3937 0.1854
C10 C 0.2024(3) 0.2211(2) 0.2566(2)
H10 H 0.2211 0.1679 0.3263
H11 H 0.0925 0.2515 0.2581
C11 C 0.2363(2) 0.1354(2) 0.1559(2)
H12 H 0.1665 0.0651 0.1620
H13 H 0.2148 0.1874 0.0861
C12 C 0.4530(2) -0.0334(2) 0.2031(2)
H14 H 0.3892 -0.0878 0.2470
C13 C 0.6544(2) 0.0450(2) 0.11781(18)
C14 C 0.5265(2) 0.1316(2) 0.09221(19)
C15 C 0.5404(3) 0.2438(2) 0.0212(2)
H15 H 0.4544 0.3013 0.0041
C16 C 0.6887(3) 0.2650(3) -0.0225(2)
H16 H 0.7027 0.3384 -0.0711
C17 C 0.8187(3) 0.1798(3) 0.0040(2)
H17 H 0.9170 0.1989 -0.0262
C18 C 0.8043(3) 0.0688(2) 0.0734(2)
H18 H 0.8907 0.0116 0.0903
C19 C 0.8977(2) 0.5786(2) 0.1315(2)
C20 C 0.9853(3) 0.4863(2) 0.05381(19)
H19 H 1.0209 0.4043 0.0843
C21 C 0.9418(3) 0.8890(2) 0.3847(2)
C22 C 1.0307(3) 0.9693(2) 0.4562(2)
H20 H 1.1364 0.9764 0.4376
Cd1A Cd 1.247660(16) 0.237661(14) -0.260973(13)
Cd1_2 Cd 0.752340(16) -0.237661(14) 0.260973(13)
Cd1A_2 Cd 1.247660(16) 1.237661(14) 0.739027(13)
Cd1A_3 Cd 1.247660(16) 1.237661(14) -0.260973(13)
O1A O 1.1791(2) 0.32305(16) -0.08866(14)
O2A O 1.0938(2) 0.44320(18) -0.23590(15)
O3A O 1.1792(2) 1.16008(18) 0.57231(15)
O3A_2 O 1.1792(2) 0.16008(18) -0.42769(15)
O4A O 1.0142(2) 1.1237(2) 0.71665(16)
O4A_2 O 1.0142(2) 0.1237(2) -0.28335(16)
N1A N 1.4627(2) 0.33278(18) -0.33684(16)
N2A N 1.64768(19) 0.47265(17) -0.36956(16)
N3_2 N 0.6048(2) 0.94057(17) 0.18805(16)
N3A N 1.3952(2) 0.05943(17) -0.18805(16)
N3A_2 N 1.3952(2) 1.05943(17) -0.18805(16)
N4A N 1.6014(2) 0.92117(17) -0.14936(16)
C1A C 1.5247(2) 0.4366(2) -0.30344(19)
H1A H 1.4870 0.4810 -0.2400
C2A C 1.5515(2) 0.2970(2) -0.43374(18)
C3A C 1.6672(2) 0.3848(2) -0.45518(19)
C4A C 1.7709(3) 0.3770(3) -0.5496(2)
H2A H 1.8470 0.4363 -0.5643
C5A C 1.7549(3) 0.2780(3) -0.6194(2)
H3A H 1.8210 0.2707 -0.6840
C6A C 1.6424(3) 0.1870(3) -0.5973(2)
H4A H 1.6374 0.1196 -0.6462
C7A C 1.5388(3) 0.1951(2) -0.5044(2)
H5A H 1.4637 0.1348 -0.4897
C8A C 1.7487(3) 0.5803(2) -0.3571(2)
H6A H 1.8557 0.5441 -0.3493
H7A H 1.7456 0.6376 -0.4256
C9A C 1.7002(3) 0.6599(2) -0.2552(2)
H8A H 1.5899 0.6886 -0.2578
H9A H 1.7161 0.6063 -0.1854
C10A C 1.7976(3) 0.7789(2) -0.2566(2)
H10A H 1.7789 0.8321 -0.3263
H11A H 1.9075 0.7485 -0.2581
C11A C 1.7637(2) 0.8646(2) -0.1559(2)
H12A H 1.8335 0.9349 -0.1620
H13A H 1.7852 0.8126 -0.0861
C12A C 1.5470(2) 1.0334(2) -0.2031(2)
H14A H 1.6108 1.0878 -0.2470
C13A C 1.3456(2) 0.9550(2) -0.11781(18)
C14A C 1.4735(2) 0.8684(2) -0.09221(19)
C15A C 1.4596(3) 0.7562(2) -0.0212(2)
H15A H 1.5456 0.6987 -0.0041
C16A C 1.3113(3) 0.7350(3) 0.0225(2)
H16A H 1.2973 0.6616 0.0711
C17A C 1.1813(3) 0.8202(3) -0.0040(2)
H17A H 1.0830 0.8011 0.0262
C18A C 1.1957(3) 0.9312(2) -0.0734(2)
H18A H 1.1093 0.9884 -0.0903
C19A C 1.1023(2) 0.4214(2) -0.1315(2)
C20A C 1.0147(3) 0.5137(2) -0.05381(19)
H19A H 0.9791 0.5957 -0.0843
C21A C 1.0582(3) 1.1110(2) 0.6153(2)
C22A C 0.9693(3) 1.0307(2) 0.5438(2)
H20A H 0.8636 1.0236 0.5624
loop_
_geom_bond_atom_site_label_1
_geom_bond_atom_site_label_2
_geom_bond_site_symmetry_1
_geom_bond_site_symmetry_2
Cd1 O1 1_555 1_555
O1 C19 1_555 1_555
O2 Cd1 1_555 1_555
O3 Cd1 1_555 1_555
O4 Cd1 1_555 1_555
N1 Cd1 1_555 1_555
N2 C1 1_555 1_555
N3 C12 1_555 1_555
N4 C11 1_555 1_555
C1 N1 1_555 1_555
H1 C1 1_555 1_555
C2 N1 1_555 1_555
C3 N2 1_555 1_555
C4 C3 1_555 1_555
H2 C4 1_555 1_555
C5 C4 1_555 1_555
H3 C5 1_555 1_555
C6 C5 1_555 1_555
H4 C6 1_555 1_555
C7 C2 1_555 1_555
H5 C7 1_555 1_555
C8 N2 1_555 1_555
H6 C8 1_555 1_555
H7 C8 1_555 1_555
C9 C8 1_555 1_555
H8 C9 1_555 1_555
H9 C9 1_555 1_555
C10 C9 1_555 1_555
H10 C10 1_555 1_555
H11 C10 1_555 1_555
C11 C10 1_555 1_555
H12 C11 1_555 1_555
H13 C11 1_555 1_555
C12 N4 1_555 1_555
H14 C12 1_555 1_555
C13 N3 1_555 1_555
C14 N4 1_555 1_555
C15 C14 1_555 1_555
H15 C15 1_555 1_555
C16 C15 1_555 1_555
H16 C16 1_555 1_555
C17 C16 1_555 1_555
H17 C17 1_555 1_555
C18 C13 1_555 1_555
H18 C18 1_555 1_555
C19 O2 1_555 1_555
C20 C19 1_555 1_555
H19 C20 1_555 1_555
C21 O3 1_555 1_555
C22 C21 1_555 1_555
H20 C22 1_555 1_555
Cd1A O1A 1_555 1_555
Cd1_2 N3 1_555 1_555
Cd1A_2 O3A 1_555 1_555
Cd1A_3 N3A_2 1_555 1_555
O1A C19A 1_555 1_555
O2A Cd1A 1_555 1_555
O3A C21A 1_555 1_555
O3A_2 Cd1A 1_555 1_555
O4A Cd1A_2 1_555 1_555
O4A_2 Cd1A 1_555 1_555
N1A Cd1A 1_555 1_555
N2A C1A 1_555 1_555
N3_2 Cd1 1_555 1_555
N3A Cd1A 1_555 1_555
N3A_2 C12A 1_555 1_555
N4A C11A 1_555 1_555
C1A N1A 1_555 1_555
H1A C1A 1_555 1_555
C2A N1A 1_555 1_555
C3A N2A 1_555 1_555
C4A C3A 1_555 1_555
H2A C4A 1_555 1_555
C5A C4A 1_555 1_555
H3A C5A 1_555 1_555
C6A C5A 1_555 1_555
H4A C6A 1_555 1_555
C7A C2A 1_555 1_555
H5A C7A 1_555 1_555
C8A N2A 1_555 1_555
H6A C8A 1_555 1_555
H7A C8A 1_555 1_555
C9A C8A 1_555 1_555
H8A C9A 1_555 1_555
H9A C9A 1_555 1_555
C10A C9A 1_555 1_555
H10A C10A 1_555 1_555
H11A C10A 1_555 1_555
C11A C10A 1_555 1_555
H12A C11A 1_555 1_555
H13A C11A 1_555 1_555
C12A N4A 1_555 1_555
H14A C12A 1_555 1_555
C13A N3A_2 1_555 1_555
C14A N4A 1_555 1_555
C15A C14A 1_555 1_555
H15A C15A 1_555 1_555
C16A C15A 1_555 1_555
H16A C16A 1_555 1_555
C17A C16A 1_555 1_555
H17A C17A 1_555 1_555
C18A C13A 1_555 1_555
H18A C18A 1_555 1_555
C19A O2A 1_555 1_555
C20A C20 1_555 1_555
H19A C20A 1_555 1_555
C21A O4A 1_555 1_555
C22A C22 1_555 1_555
H20A C22A 1_555 1_555
O4 C21 1_555 1_555
C2 C3 1_555 1_555
C6 C7 1_555 1_555
C13 C14 1_555 1_555
C17 C18 1_555 1_555
C2A C3A 1_555 1_555
C6A C7A 1_555 1_555
C13A C14A 1_555 1_555
C17A C18A 1_555 1_555
C19A C20A 1_555 1_555
C21A C22A 1_555 1_555

#END
