
#######################################################################
#
#                 Cambridge Crystallographic Data Centre
#                                CCDC 
#
#######################################################################
#
# If this CIF has been generated from an entry in the Cambridge 
# Structural Database, then it will include bibliographic, chemical, 
# crystal, experimental, refinement or atomic coordinate data resulting 
# from the CCDC's data processing and validation procedures.
#
#######################################################################

data_INIBOX
_symmetry_cell_setting           monoclinic
_symmetry_space_group_name_H-M   'P 21/c'
_symmetry_Int_Tables_number      14
_space_group_name_Hall           '-P 2ybc'
loop_
_symmetry_equiv_pos_site_id
_symmetry_equiv_pos_as_xyz
1 x,y,z
2 -x,1/2+y,1/2-z
3 -x,-y,-z
4 x,1/2-y,1/2+z
_cell_length_a                   9.887(5)
_cell_length_b                   15.168(5)
_cell_length_c                   16.879(5)
_cell_angle_alpha                90
_cell_angle_beta                 110.742(19)
_cell_angle_gamma                90
_cell_volume                     2367.21
loop_
_atom_site_label
_atom_site_type_symbol
_atom_site_fract_x
_atom_site_fract_y
_atom_site_fract_z
Cd1 Cd 0.478169(17) -0.121021(10) -0.347122(10)
O1 O 0.4567(2) -0.19990(12) -0.23576(11)
O3 O 0.4725(2) -0.06182(12) -0.19359(12)
O5 O 0.4684(2) -0.24837(11) 0.06425(11)
O6 O 0.4713(2) -0.37867(11) 0.00789(12)
O7 O 0.5259(2) 0.02525(11) -0.36026(12)
H5 H 0.5174 0.0414 -0.4100
H6 H 0.4933 0.0615 -0.3330
N1 N 0.7240(2) -0.14742(14) -0.28333(13)
N2 N 0.9401(2) -0.20667(13) -0.26182(13)
N3 N 0.7671(2) -0.59695(13) -0.11284(13)
N4 N 0.9700(2) -0.52980(12) -0.10855(13)
C1 C 0.7965(3) -0.21079(16) -0.30367(16)
H7 H 0.7527 -0.2543 -0.3433
C2 C 0.9645(3) -0.13397(16) -0.20959(16)
C3 C 0.8287(3) -0.09767(16) -0.22244(15)
C4 C 0.8156(3) -0.02389(17) -0.17700(17)
H8 H 0.7256 0.0006 -0.1846
C5 C 0.9402(4) 0.0117(2) -0.12037(19)
H9 H 0.9340 0.0604 -0.0884
C6 C 1.0758(3) -0.0236(2) -0.1098(2)
H10 H 1.1580 0.0031 -0.0719
C7 C 1.0913(3) -0.0963(2) -0.15350(19)
H11 H 1.1818 -0.1197 -0.1463
C8 C 1.0489(3) -0.26771(18) -0.27033(18)
H12 H 1.1289 -0.2339 -0.2752
H13 H 1.0066 -0.3012 -0.3223
C9 C 1.1070(3) -0.33150(16) -0.19677(17)
H14 H 1.1490 -0.2978 -0.1449
H15 H 1.1839 -0.3660 -0.2047
C10 C 0.9945(3) -0.39437(16) -0.18603(18)
H16 H 0.9283 -0.3622 -0.1658
H17 H 0.9390 -0.4207 -0.2402
C11 C 1.0694(3) -0.46542(16) -0.12350(16)
H18 H 1.1362 -0.4963 -0.1441
H19 H 1.1255 -0.4380 -0.0700
C12 C 0.8243(3) -0.52751(16) -0.13578(16)
H20 H 0.7696 -0.4814 -0.1676
C13 C 0.8843(3) -0.64986(15) -0.06715(15)
C14 C 1.0123(3) -0.60731(15) -0.06317(15)
C15 C 1.1474(3) -0.64314(18) -0.02033(18)
H21 H 1.2320 -0.6141 -0.0172
C16 C 1.1499(3) -0.7235(2) 0.01718(19)
H22 H 1.2388 -0.7496 0.0463
C17 C 1.0241(3) -0.76759(18) 0.01320(17)
H23 H 1.0311 -0.8222 0.0395
C18 C 0.8891(3) -0.73176(16) -0.02909(16)
H24 H 0.8049 -0.7612 -0.0320
C19 C 0.4673(3) -0.14159(17) -0.18016(16)
C20 C 0.4718(3) -0.17266(16) -0.09501(15)
H25 H 0.4849 -0.1315 -0.0521
C21 C 0.4579(2) -0.25614(16) -0.07923(15)
H26 H 0.4409 -0.2948 -0.1245
C22 C 0.4663(3) -0.29607(16) 0.00316(15)
Cd1C Cd 0.478169(17) -0.378979(10) 0.152878(10)
Cd1A Cd 0.521831(17) -0.621021(10) -0.152878(10)
O5C O 0.4684(2) -0.25163(11) -0.43575(11)
O6C O 0.4713(2) -0.12133(11) -0.49211(12)
N3A N 0.2329(2) -0.09695(13) -0.38716(13)
O2 O 0.5974(3) -0.35971(14) -0.21713(15)
H1 H 0.5609 -0.3083 -0.2243
H2 H 0.5879 -0.3757 -0.2671
O4 O 0.6124(3) -0.41165(18) -0.37389(17)
H3 H 0.5393 -0.3814 -0.4030
H4 H 0.5924 -0.4626 -0.3602
loop_
_geom_bond_atom_site_label_1
_geom_bond_atom_site_label_2
_geom_bond_site_symmetry_1
_geom_bond_site_symmetry_2
Cd1 O1 1_555 1_555
O1 C19 1_555 1_555
O2 H1 1_555 1_555
H2 O2 1_555 1_555
O3 Cd1 1_555 1_555
O4 H3 1_555 1_555
H4 O4 1_555 1_555
O5 C22 1_555 1_555
O6 C22 1_555 1_555
O7 Cd1 1_555 1_555
H5 O7 1_555 1_555
H6 O7 1_555 1_555
N1 Cd1 1_555 1_555
N2 C1 1_555 1_555
N3 C12 1_555 1_555
N4 C11 1_555 1_555
C1 N1 1_555 1_555
H7 C1 1_555 1_555
C2 N2 1_555 1_555
C3 N1 1_555 1_555
C4 C3 1_555 1_555
H8 C4 1_555 1_555
C5 C4 1_555 1_555
H9 C5 1_555 1_555
C6 C5 1_555 1_555
H10 C6 1_555 1_555
C7 C2 1_555 1_555
H11 C7 1_555 1_555
C8 N2 1_555 1_555
H12 C8 1_555 1_555
H13 C8 1_555 1_555
C9 C8 1_555 1_555
H14 C9 1_555 1_555
H15 C9 1_555 1_555
C10 C9 1_555 1_555
H16 C10 1_555 1_555
H17 C10 1_555 1_555
C11 C10 1_555 1_555
H18 C11 1_555 1_555
H19 C11 1_555 1_555
C12 N4 1_555 1_555
H20 C12 1_555 1_555
C13 N3 1_555 1_555
C14 N4 1_555 1_555
C15 C14 1_555 1_555
H21 C15 1_555 1_555
C16 C15 1_555 1_555
H22 C16 1_555 1_555
C17 C16 1_555 1_555
H23 C17 1_555 1_555
C18 C13 1_555 1_555
H24 C18 1_555 1_555
C19 O3 1_555 1_555
C20 C19 1_555 1_555
H25 C20 1_555 1_555
C21 C20 1_555 1_555
H26 C21 1_555 1_555
C22 C21 1_555 1_555
Cd1C O5 1_555 1_555
Cd1A N3 1_555 1_555
O5C Cd1 1_555 1_555
O6C Cd1 1_555 1_555
N3A Cd1 1_555 1_555
O6 Cd1C 1_555 1_555
C2 C3 1_555 1_555
C6 C7 1_555 1_555
C13 C14 1_555 1_555
C17 C18 1_555 1_555

#END
