
#######################################################################
#
#                 Cambridge Crystallographic Data Centre
#                                CCDC 
#
#######################################################################
#
# If this CIF has been generated from an entry in the Cambridge 
# Structural Database, then it will include bibliographic, chemical, 
# crystal, experimental, refinement or atomic coordinate data resulting 
# from the CCDC's data processing and validation procedures.
#
#######################################################################

data_INIBEN
_symmetry_cell_setting           monoclinic
_symmetry_space_group_name_H-M   'P 21/n'
_symmetry_Int_Tables_number      14
_space_group_name_Hall           '-P 2yn'
loop_
_symmetry_equiv_pos_site_id
_symmetry_equiv_pos_as_xyz
1 x,y,z
2 1/2-x,1/2+y,1/2-z
3 -x,-y,-z
4 1/2+x,1/2-y,1/2+z
_cell_length_a                   9.7238(6)
_cell_length_b                   15.3548(10)
_cell_length_c                   16.4393(10)
_cell_angle_alpha                90
_cell_angle_beta                 104.7060(10)
_cell_angle_gamma                90
_cell_volume                     2374.1
loop_
_atom_site_label
_atom_site_type_symbol
_atom_site_fract_x
_atom_site_fract_y
_atom_site_fract_z
Cd1 Cd 0.16627(2) 0.121270(12) 0.153678(12)
O1 O 0.5829(2) 0.25422(15) 0.56750(14)
O2 O 0.5269(3) 0.37983(14) 0.50535(16)
O3 O 0.3083(3) 0.07294(16) 0.29936(15)
O4 O 0.3012(2) 0.21013(15) 0.26189(14)
O5 O 0.1029(3) -0.02370(15) 0.14039(15)
N1 N -0.0202(3) 0.14694(17) 0.21635(15)
N2 N 0.1227(3) 0.59592(16) 0.38283(16)
N3 N -0.2167(3) 0.20915(16) 0.23559(15)
N4 N -0.0768(3) 0.52785(15) 0.38800(15)
C1 C -0.0705(3) 0.60235(19) 0.43604(18)
C2 C -0.1606(4) 0.6348(2) 0.4824(2)
H1 H -0.2418 0.6049 0.4864
C3 C -0.1232(4) 0.7132(3) 0.5220(2)
H2 H -0.1809 0.7372 0.5534
C4 C -0.0015(4) 0.7578(2) 0.5165(2)
H3 H 0.0192 0.8112 0.5436
C5 C 0.0899(3) 0.7251(2) 0.47166(19)
H4 H 0.1716 0.7549 0.4686
C6 C 0.0542(3) 0.64570(19) 0.43157(17)
C7 C 0.0409(3) 0.52801(19) 0.35894(19)
H5 H 0.0620 0.4841 0.3251
C8 C -0.1930(3) 0.46383(19) 0.3738(2)
H6 H -0.2829 0.4945 0.3569
H7 H -0.1899 0.4345 0.4265
C9 C -0.1876(3) 0.3966(2) 0.3084(2)
H8 H -0.0997 0.3638 0.3253
H9 H -0.1906 0.4249 0.2552
C10 C -0.3147(3) 0.3352(2) 0.2984(2)
H10 H -0.3036 0.3024 0.3500
H11 H -0.4004 0.3699 0.2905
C11 C -0.3339(3) 0.2716(2) 0.2256(2)
H12 H -0.4220 0.2398 0.2203
H13 H -0.3422 0.3041 0.1740
C12 C -0.1896(3) 0.13912(19) 0.28961(19)
C13 C -0.2610(4) 0.1063(2) 0.3466(2)
H14 H -0.3448 0.1311 0.3530
C14 C -0.2006(4) 0.0353(2) 0.3926(2)
H15 H -0.2449 0.0114 0.4314
C15 C -0.0748(4) -0.0024(2) 0.3834(2)
H16 H -0.0365 -0.0497 0.4169
C16 C -0.0061(4) 0.0288(2) 0.3257(2)
H17 H 0.0767 0.0029 0.3189
C17 C -0.0652(3) 0.10061(19) 0.27803(18)
C18 C -0.1129(3) 0.2097(2) 0.19429(19)
H18 H -0.1079 0.2511 0.1538
C19 C 0.3344(3) 0.1508(2) 0.3160(2)
C20 C 0.4083(3) 0.1757(2) 0.40575(19)
C21 C 0.4548(3) 0.25690(19) 0.42061(18)
H19 H 0.5201 0.2655 0.3854
H20 H 0.3731 0.2934 0.3969
C22 C 0.5262(3) 0.2982(2) 0.50362(18)
C23 C 0.4177(6) 0.1065(3) 0.4711(3)
H21 H 0.4588 0.1190 0.5274
H22 H 0.3824 0.0510 0.4554
H23 H 0.161(4) -0.053(3) 0.177(3)
H24 H 0.063(5) -0.045(3) 0.0929(17)
Cd1A Cd 0.33373(2) 0.621270(12) 0.346322(12)
Cd1C Cd 0.66627(2) 0.378730(12) 0.653678(12)
O1C O 0.0829(2) 0.24578(15) 0.06750(14)
O2C O 0.0269(3) 0.12017(14) 0.00535(16)
N2A N 0.3773(3) 0.09592(16) 0.11717(16)
O6 O 0.3134(4) -0.1233(2) 0.2446(2)
O7? O 0.273(4) -0.091(2) 0.391(2)
loop_
_geom_bond_atom_site_label_1
_geom_bond_atom_site_label_2
_geom_bond_site_symmetry_1
_geom_bond_site_symmetry_2
Cd1 O3 1_555 1_555
O1 C22 1_555 1_555
O2 C22 1_555 1_555
O3 C19 1_555 1_555
O4 Cd1 1_555 1_555
O5 Cd1 1_555 1_555
N1 Cd1 1_555 1_555
N2 C6 1_555 1_555
N3 C11 1_555 1_555
N4 C1 1_555 1_555
C1 C2 1_555 1_555
C2 H1 1_555 1_555
C3 C2 1_555 1_555
H2 C3 1_555 1_555
C4 C3 1_555 1_555
H3 C4 1_555 1_555
C5 C4 1_555 1_555
H4 C5 1_555 1_555
C6 C1 1_555 1_555
C7 N2 1_555 1_555
H5 C7 1_555 1_555
C8 N4 1_555 1_555
H6 C8 1_555 1_555
H7 C8 1_555 1_555
C9 C8 1_555 1_555
H8 C9 1_555 1_555
H9 C9 1_555 1_555
C10 C9 1_555 1_555
H10 C10 1_555 1_555
H11 C10 1_555 1_555
C11 C10 1_555 1_555
H12 C11 1_555 1_555
H13 C11 1_555 1_555
C12 N3 1_555 1_555
C13 C12 1_555 1_555
H14 C13 1_555 1_555
C14 C13 1_555 1_555
H15 C14 1_555 1_555
C15 C14 1_555 1_555
H16 C15 1_555 1_555
C16 C15 1_555 1_555
H17 C16 1_555 1_555
C17 N1 1_555 1_555
C18 N1 1_555 1_555
H18 C18 1_555 1_555
C19 O4 1_555 1_555
C20 C19 1_555 1_555
C21 C20 1_555 1_555
H19 C21 1_555 1_555
H20 C21 1_555 1_555
C22 C21 1_555 1_555
C23 C20 1_555 1_555
H21 C23 1_555 1_555
H22 C23 1_555 1_555
H23 O5 1_555 1_555
H24 O5 1_555 1_555
Cd1A N2 1_555 1_555
Cd1C O1 1_555 1_555
O1C Cd1 1_555 1_555
O2C Cd1 1_555 1_555
N2A Cd1 1_555 1_555
O2 Cd1C 1_555 1_555
N3 C18 1_555 1_555
N4 C7 1_555 1_555
C5 C6 1_555 1_555
C12 C17 1_555 1_555
C16 C17 1_555 1_555

#END
