
#######################################################################
#
#                 Cambridge Crystallographic Data Centre
#                                CCDC 
#
#######################################################################
#
# If this CIF has been generated from an entry in the Cambridge 
# Structural Database, then it will include bibliographic, chemical, 
# crystal, experimental, refinement or atomic coordinate data resulting 
# from the CCDC's data processing and validation procedures.
#
#######################################################################

data_INICPB02
_symmetry_cell_setting           monoclinic
_symmetry_space_group_name_H-M   'C c'
_symmetry_Int_Tables_number      9
_space_group_name_Hall           'C -2yc'
loop_
_symmetry_equiv_pos_site_id
_symmetry_equiv_pos_as_xyz
1 x,y,z
2 x,-y,1/2+z
3 1/2+x,1/2+y,z
4 1/2+x,1/2-y,1/2+z
_cell_length_a                   10.8842(16)
_cell_length_b                   18.437(3)
_cell_length_c                   7.0724(10)
_cell_angle_alpha                90
_cell_angle_beta                 111.218(2)
_cell_angle_gamma                90
_cell_volume                     1323.02
loop_
_atom_site_label
_atom_site_type_symbol
_atom_site_fract_x
_atom_site_fract_y
_atom_site_fract_z
C1 C -0.3441(5) 0.4532(3) 0.0287(8)
C2 C -0.4785(5) 0.4633(3) -0.1312(8)
C3 C -0.5271(5) 0.5321(3) -0.1931(8)
H1 H -0.4745 0.5737 -0.1396
C4 C -0.6542(6) 0.5395(3) -0.3350(8)
H2 H -0.6872 0.5871 -0.3743
C5 C -0.6855(6) 0.4170(4) -0.3577(9)
H3 H -0.7407 0.3767 -0.4159
C6 C -0.5613(6) 0.4037(3) -0.2146(9)
H4 H -0.5327 0.3556 -0.1738
C7 C 0.0321(7) 0.3251(4) 0.2291(11)
C8 C 0.1157(5) 0.2751(3) 0.1542(9)
C9 C 0.1196(7) 0.2814(3) -0.0389(9)
H5 H 0.0719 0.3185 -0.1286
C10 C 0.1954(7) 0.2319(3) -0.0976(8)
H6 H 0.1983 0.2365 -0.2297
C11 C 0.2602(6) 0.1733(3) 0.2091(8)
H7 H 0.3082 0.1357 0.2964
C12 C 0.1891(6) 0.2208(3) 0.2776(10)
H8 H 0.1902 0.2162 0.4121
N1 N -0.7317(5) 0.4837(3) -0.4181(7)
N2 N 0.2643(6) 0.1784(3) 0.0207(9)
O1 O -0.2666(4) 0.5070(2) 0.0744(5)
O2 O -0.3169(4) 0.3924(2) 0.1166(6)
O3 O 0.0139(5) 0.3079(2) 0.3882(7)
O4 O -0.0142(4) 0.3825(2) 0.1312(5)
O5 O 0.0282(4) 0.5435(2) 0.3252(6)
H9 H 0.031(8) 0.573(3) 0.418(7)
H10 H 0.097(4) 0.521(3) 0.388(9)
Pb1 Pb -0.11653(2) 0.423660(7) 0.39704(3)
N2C N -0.2357(6) 0.3216(3) 0.5207(9)
O1A O -0.2666(4) 0.4930(2) 0.5744(5)
Pb1A Pb -0.11653(2) 0.576340(7) -0.10296(3)
Pb1C Pb 0.38347(2) 0.076340(7) -0.10296(3)
loop_
_geom_bond_atom_site_label_1
_geom_bond_atom_site_label_2
_geom_bond_site_symmetry_1
_geom_bond_site_symmetry_2
C1 C2 1_555 1_555
C2 C3 1_555 1_555
C3 H1 1_555 1_555
C4 C3 1_555 1_555
H2 C4 1_555 1_555
C5 H3 1_555 1_555
C6 C2 1_555 1_555
H4 C6 1_555 1_555
C7 C8 1_555 1_555
C8 C9 1_555 1_555
C9 H5 1_555 1_555
C10 C9 1_555 1_555
H6 C10 1_555 1_555
C11 H7 1_555 1_555
C12 C8 1_555 1_555
H8 C12 1_555 1_555
N1 C4 1_555 1_555
N2 C10 1_555 1_555
O1 C1 1_555 1_555
O2 C1 1_555 1_555
O3 C7 1_555 1_555
O4 C7 1_555 1_555
O5 H9 1_555 1_555
H10 O5 1_555 1_555
Pb1 O1 1_555 1_555
N2C Pb1 1_555 1_555
O1A Pb1 1_555 1_555
Pb1A O1 1_555 1_555
Pb1C N2 1_555 1_555
C5 C6 1_555 1_555
C5 N1 1_555 1_555
C11 C12 1_555 1_555
C11 N2 1_555 1_555
O2 Pb1 1_555 1_555
O3 Pb1 1_555 1_555
O4 Pb1 1_555 1_555
O5 Pb1 1_555 1_555

#END
