
#######################################################################
#
#                 Cambridge Crystallographic Data Centre
#                                CCDC 
#
#######################################################################
#
# If this CIF has been generated from an entry in the Cambridge 
# Structural Database, then it will include bibliographic, chemical, 
# crystal, experimental, refinement or atomic coordinate data resulting 
# from the CCDC's data processing and validation procedures.
#
#######################################################################

data_INICPB
_symmetry_cell_setting           monoclinic
_symmetry_space_group_name_H-M   'C c'
_symmetry_Int_Tables_number      9
_space_group_name_Hall           'C -2yc'
loop_
_symmetry_equiv_pos_site_id
_symmetry_equiv_pos_as_xyz
1 x,y,z
2 1/2+x,1/2+y,z
3 x,-y,1/2+z
4 1/2+x,1/2-y,1/2+z
_cell_length_a                   10.92(1)
_cell_length_b                   18.56(1)
_cell_length_c                   7.09(1)
_cell_angle_alpha                90
_cell_angle_beta                 111.1
_cell_angle_gamma                90
_cell_volume                     1340.62
loop_
_atom_site_label
_atom_site_type_symbol
_atom_site_fract_x
_atom_site_fract_y
_atom_site_fract_z
C1 C -0.35790 0.03750 -0.27760
C2 C 0.31250 0.26660 -0.25120
C3 C 0.24100 0.21670 -0.19680
C4 C 0.14750 0.17510 0.07480
C5 C -0.40490 -0.03340 -0.34160
C6 C -0.53400 -0.04110 -0.47320
C7 C -0.57070 0.08260 -0.49840
C8 C -0.44020 0.09340 -0.36870
C9 C -0.22800 0.04600 -0.13170
C10 C 0.23130 0.22390 -0.00260
C11 C 0.30500 0.27780 0.13580
C12 C 0.37350 0.32470 0.05000
N1 N -0.61720 0.01670 -0.56050
N2 N 0.38150 0.31870 -0.13200
O1 O -0.15160 -0.00500 -0.08640
O2 O -0.20170 0.10700 -0.03900
O3 O 0.10570 0.11830 -0.02330
O4 O 0.12990 0.19210 0.23400
Pb1 Pb 0.00000 0.07770 0.25330
O1B O -0.15160 0.00500 0.41360
Pb1B Pb 0.00000 -0.07770 -0.24670
N2C N -0.11850 0.18130 0.36800
Pb1C Pb 0.50000 0.42230 -0.24670
O5 O 0.14620 -0.04340 0.18060
loop_
_geom_bond_atom_site_label_1
_geom_bond_atom_site_label_2
_geom_bond_site_symmetry_1
_geom_bond_site_symmetry_2
C1 C5 1_555 1_555
C2 C3 1_555 1_555
C3 C10 1_555 1_555
C4 C10 1_555 1_555
C5 C6 1_555 1_555
C6 N1 1_555 1_555
C7 C8 1_555 1_555
C8 C1 1_555 1_555
C9 C1 1_555 1_555
C10 C11 1_555 1_555
C11 C12 1_555 1_555
C12 N2 1_555 1_555
N1 C7 1_555 1_555
N2 C2 1_555 1_555
O1 C9 1_555 1_555
O2 C9 1_555 1_555
O3 C4 1_555 1_555
O4 C4 1_555 1_555
Pb1 O1 1_555 1_555
O1B Pb1 1_555 1_555
Pb1B O1 1_555 1_555
N2C Pb1 1_555 1_555
Pb1C N2 1_555 1_555
O2 Pb1 1_555 1_555
O3 Pb1 1_555 1_555
O4 Pb1 1_555 1_555

#END
