
#######################################################################
#
#                 Cambridge Crystallographic Data Centre
#                                CCDC 
#
#######################################################################
#
# If this CIF has been generated from an entry in the Cambridge 
# Structural Database, then it will include bibliographic, chemical, 
# crystal, experimental, refinement or atomic coordinate data resulting 
# from the CCDC's data processing and validation procedures.
#
#######################################################################

data_INICAK
_symmetry_cell_setting           monoclinic
_symmetry_space_group_name_H-M   'P 21/c'
_symmetry_Int_Tables_number      14
_space_group_name_Hall           '-P 2ybc'
loop_
_symmetry_equiv_pos_site_id
_symmetry_equiv_pos_as_xyz
1 x,y,z
2 -x,1/2+y,1/2-z
3 -x,-y,-z
4 x,1/2-y,1/2+z
_cell_length_a                   16.578(3)
_cell_length_b                   8.9853(18)
_cell_length_c                   17.908(4)
_cell_angle_alpha                90
_cell_angle_beta                 113.99(3)
_cell_angle_gamma                90
_cell_volume                     2437.11
loop_
_atom_site_label
_atom_site_type_symbol
_atom_site_fract_x
_atom_site_fract_y
_atom_site_fract_z
Ni1 Ni 0.262314(18) 0.94919(3) 0.122913(16)
O1 O 0.20192(11) 1.06512(19) 0.01463(10)
O2 O 0.32772(14) 1.1813(3) 0.02685(12)
O3 O 0.33147(13) 1.3262(3) -0.22201(12)
O4 O 0.20069(11) 1.4078(2) -0.32861(10)
O5 O -0.08920(16) 1.1076(3) -0.25106(16)
O6 O -0.0800(2) 1.1660(9) -0.3528(2)
O7 O 0.38358(11) 1.0739(2) 0.17577(10)
H1 H 0.3930 1.1176 0.1380
H2 H 0.3792 1.1383 0.2087
N1 N 0.30831(14) 0.8048(2) 0.22294(12)
N2 N 0.14616(13) 0.8168(2) 0.08691(12)
N3 N 0.32389(13) 0.8076(3) 0.07371(12)
N4 N -0.04629(16) 1.1532(4) -0.28175(16)
C1 C 0.24595(17) 1.1381(3) -0.01238(14)
C2 C 0.19251(16) 1.1770(3) -0.10274(13)
C3 C 0.09804(17) 1.1475(3) -0.14966(15)
H3 H 0.0669 1.0996 -0.1236
C4 C 0.05320(16) 1.1878(3) -0.23078(15)
C5 C 0.09765(17) 1.2560(3) -0.26828(15)
H4 H 0.0694 1.2871 -0.3223
C6 C 0.19238(16) 1.2805(3) -0.22189(13)
C7 C 0.23857(16) 1.2422(3) -0.13972(14)
H5 H 0.2986 1.2613 -0.1122
C8 C 0.24639(16) 1.3440(3) -0.26063(13)
C9 C 0.39361(19) 0.7999(3) 0.28772(16)
H6 H 0.4336 0.8739 0.2896
C10 C 0.4211(2) 0.6932(4) 0.3478(2)
H7 H 0.4778 0.6904 0.3890
C11 C 0.3567(3) 0.5904(5) 0.3414(3)
H8 H 0.3701 0.5157 0.3806
C12 C 0.2680(3) 0.5942(5) 0.2754(3)
H9 H 0.2263 0.5233 0.2736
C13 C 0.24610(19) 0.7032(3) 0.21576(17)
C14 C 0.15370(18) 0.7128(3) 0.14082(16)
C15 C 0.0780(2) 0.6240(3) 0.1264(2)
H10 H 0.0823 0.5482 0.1632
C16 C -0.0058(2) 0.6456(4) 0.0567(2)
H11 H -0.0535 0.5845 0.0500
C17 C -0.01438(18) 0.7539(3) 0.00188(17)
H12 H -0.0669 0.7728 -0.0431
C18 C 0.06380(16) 0.8357(3) 0.01911(15)
H13 H 0.0611 0.9101 -0.0179
C19 C 0.41524(18) 0.7882(4) 0.11127(18)
H14 H 0.4475 0.8449 0.1572
C20 C 0.45864(18) 0.6907(4) 0.08380(18)
H15 H 0.5196 0.6798 0.1091
C21 C 0.40660(16) 0.6060(3) 0.01460(15)
C22 C 0.31200(18) 0.6306(4) -0.02570(18)
H16 H 0.2781 0.5777 -0.0726
C23 C 0.27398(18) 0.7307(4) 0.00555(18)
H17 H 0.2134 0.7470 -0.0196
C24 C 0.44850(16) 0.4922(3) -0.01621(16)
H18 H 0.4233 0.4970 -0.0754
H19 H 0.4348 0.3949 -0.0009
Ni1C Ni 0.262314(18) 1.55081(3) -0.377087(16)
Ni1B Ni 0.737686(18) 0.05081(3) -0.122913(16)
Ni1A Ni 0.737686(18) -0.55081(3) 0.377087(16)
O1B O 0.79808(11) -0.06512(19) -0.01463(10)
O2B O 0.67228(14) -0.1813(3) -0.02685(12)
O3B O 0.66853(13) -0.3262(3) 0.22201(12)
O4C O 0.20069(11) 1.0922(2) 0.17139(10)
O4A O 0.79931(11) -0.0922(2) -0.17139(10)
O4B O 0.79931(11) -0.4078(2) 0.32861(10)
O5B O 1.08920(16) -0.1076(3) 0.25106(16)
O6B O 1.0800(2) -0.1660(9) 0.3528(2)
O7B O 0.61642(11) -0.0739(2) -0.17577(10)
H1B H 0.6070 -0.1176 -0.1380
H2B H 0.6208 -0.1383 -0.2087
N1B N 0.69169(14) 0.1952(2) -0.22294(12)
N2B N 0.85384(13) 0.1832(2) -0.08691(12)
N3B N 0.67611(13) 0.1924(3) -0.07371(12)
N4B N 1.04629(16) -0.1532(4) 0.28175(16)
C1B C 0.75405(17) -0.1381(3) 0.01238(14)
C2B C 0.80749(16) -0.1770(3) 0.10274(13)
C3B C 0.90196(17) -0.1475(3) 0.14966(15)
H3B H 0.9331 -0.0996 0.1236
C4B C 0.94680(16) -0.1878(3) 0.23078(15)
C5B C 0.90235(17) -0.2560(3) 0.26828(15)
H4B H 0.9306 -0.2871 0.3223
C6B C 0.80762(16) -0.2805(3) 0.22189(13)
C7B C 0.76143(16) -0.2422(3) 0.13972(14)
H5B H 0.7014 -0.2613 0.1122
C8B C 0.75361(16) -0.3440(3) 0.26063(13)
C9B C 0.60639(19) 0.2001(3) -0.28772(16)
H6B H 0.5664 0.1261 -0.2896
C10B C 0.5789(2) 0.3068(4) -0.3478(2)
H7B H 0.5222 0.3096 -0.3890
C11B C 0.6433(3) 0.4096(5) -0.3414(3)
H8B H 0.6299 0.4843 -0.3806
C12B C 0.7320(3) 0.4058(5) -0.2754(3)
H9B H 0.7737 0.4767 -0.2736
C13B C 0.75390(19) 0.2968(3) -0.21576(17)
C14B C 0.84630(18) 0.2872(3) -0.14082(16)
C15B C 0.9220(2) 0.3760(3) -0.1264(2)
H10B H 0.9177 0.4518 -0.1632
C16B C 1.0058(2) 0.3544(4) -0.0567(2)
H11B H 1.0535 0.4155 -0.0500
C17B C 1.01438(18) 0.2461(3) -0.00188(17)
H12B H 1.0669 0.2272 0.0431
C18B C 0.93620(16) 0.1643(3) -0.01911(15)
H13B H 0.9389 0.0899 0.0179
C19B C 0.58476(18) 0.2118(4) -0.11127(18)
H14B H 0.5525 0.1551 -0.1572
C20B C 0.54136(18) 0.3093(4) -0.08380(18)
H15B H 0.4804 0.3202 -0.1091
C21B C 0.59340(16) 0.3940(3) -0.01460(15)
C22B C 0.68800(18) 0.3694(4) 0.02570(18)
H16B H 0.7219 0.4223 0.0726
C23B C 0.72602(18) 0.2693(4) -0.00555(18)
H17B H 0.7866 0.2530 0.0196
C24B C 0.55150(16) 0.5078(3) 0.01621(16)
H18B H 0.5767 0.5030 0.0754
H19B H 0.5652 0.6051 0.0009
loop_
_geom_bond_atom_site_label_1
_geom_bond_atom_site_label_2
_geom_bond_site_symmetry_1
_geom_bond_site_symmetry_2
Ni1 O1 1_555 1_555
O1 C1 1_555 1_555
O2 C1 1_555 1_555
O3 C8 1_555 1_555
O4 C8 1_555 1_555
O5 N4 1_555 1_555
O6 N4 1_555 1_555
O7 Ni1 1_555 1_555
H1 O7 1_555 1_555
H2 O7 1_555 1_555
N1 Ni1 1_555 1_555
N2 Ni1 1_555 1_555
N3 Ni1 1_555 1_555
N4 C4 1_555 1_555
C1 C2 1_555 1_555
C2 C3 1_555 1_555
C3 H3 1_555 1_555
C4 C3 1_555 1_555
C5 C4 1_555 1_555
H4 C5 1_555 1_555
C6 C5 1_555 1_555
C7 C2 1_555 1_555
H5 C7 1_555 1_555
C8 C6 1_555 1_555
C9 N1 1_555 1_555
H6 C9 1_555 1_555
C10 C9 1_555 1_555
H7 C10 1_555 1_555
C11 C10 1_555 1_555
H8 C11 1_555 1_555
C12 C11 1_555 1_555
H9 C12 1_555 1_555
C13 N1 1_555 1_555
C14 N2 1_555 1_555
C15 C14 1_555 1_555
H10 C15 1_555 1_555
C16 C15 1_555 1_555
H11 C16 1_555 1_555
C17 C16 1_555 1_555
H12 C17 1_555 1_555
C18 N2 1_555 1_555
H13 C18 1_555 1_555
C19 N3 1_555 1_555
H14 C19 1_555 1_555
C20 C19 1_555 1_555
H15 C20 1_555 1_555
C21 C20 1_555 1_555
C22 C21 1_555 1_555
H16 C22 1_555 1_555
C23 N3 1_555 1_555
H17 C23 1_555 1_555
C24 C21 1_555 1_555
H18 C24 1_555 1_555
H19 C24 1_555 1_555
Ni1C O4 1_555 1_555
Ni1B O1B 1_555 1_555
Ni1A O4B 1_555 1_555
O1B C1B 1_555 1_555
O2B C1B 1_555 1_555
O3B C8B 1_555 1_555
O4C Ni1 1_555 1_555
O4A Ni1B 1_555 1_555
O4B C8B 1_555 1_555
O5B N4B 1_555 1_555
O6B N4B 1_555 1_555
O7B Ni1B 1_555 1_555
H1B O7B 1_555 1_555
H2B O7B 1_555 1_555
N1B Ni1B 1_555 1_555
N2B Ni1B 1_555 1_555
N3B Ni1B 1_555 1_555
N4B C4B 1_555 1_555
C1B C2B 1_555 1_555
C2B C3B 1_555 1_555
C3B H3B 1_555 1_555
C4B C3B 1_555 1_555
C5B C4B 1_555 1_555
H4B C5B 1_555 1_555
C6B C5B 1_555 1_555
C7B C2B 1_555 1_555
H5B C7B 1_555 1_555
C8B C6B 1_555 1_555
C9B N1B 1_555 1_555
H6B C9B 1_555 1_555
C10B C9B 1_555 1_555
H7B C10B 1_555 1_555
C11B C10B 1_555 1_555
H8B C11B 1_555 1_555
C12B C11B 1_555 1_555
H9B C12B 1_555 1_555
C13B N1B 1_555 1_555
C14B N2B 1_555 1_555
C15B C14B 1_555 1_555
H10B C15B 1_555 1_555
C16B C15B 1_555 1_555
H11B C16B 1_555 1_555
C17B C16B 1_555 1_555
H12B C17B 1_555 1_555
C18B N2B 1_555 1_555
H13B C18B 1_555 1_555
C19B N3B 1_555 1_555
H14B C19B 1_555 1_555
C20B C19B 1_555 1_555
H15B C20B 1_555 1_555
C21B C20B 1_555 1_555
C22B C21B 1_555 1_555
H16B C22B 1_555 1_555
C23B N3B 1_555 1_555
H17B C23B 1_555 1_555
C24B C24 1_555 1_555
H18B C24B 1_555 1_555
H19B C24B 1_555 1_555
C6 C7 1_555 1_555
C12 C13 1_555 1_555
C13 C14 1_555 1_555
C17 C18 1_555 1_555
C22 C23 1_555 1_555
C6B C7B 1_555 1_555
C12B C13B 1_555 1_555
C13B C14B 1_555 1_555
C17B C18B 1_555 1_555
C21B C24B 1_555 1_555
C22B C23B 1_555 1_555

#END
