
#######################################################################
#
#                 Cambridge Crystallographic Data Centre
#                                CCDC 
#
#######################################################################
#
# If this CIF has been generated from an entry in the Cambridge 
# Structural Database, then it will include bibliographic, chemical, 
# crystal, experimental, refinement or atomic coordinate data resulting 
# from the CCDC's data processing and validation procedures.
#
#######################################################################

data_INICEO
_symmetry_cell_setting           monoclinic
_symmetry_space_group_name_H-M   'P 21/c'
_symmetry_Int_Tables_number      14
_space_group_name_Hall           '-P 2ybc'
loop_
_symmetry_equiv_pos_site_id
_symmetry_equiv_pos_as_xyz
1 x,y,z
2 -x,1/2+y,1/2-z
3 -x,-y,-z
4 x,1/2-y,1/2+z
_cell_length_a                   16.625(3)
_cell_length_b                   8.9824(18)
_cell_length_c                   18.741(8)
_cell_angle_alpha                90
_cell_angle_beta                 119.94(2)
_cell_angle_gamma                90
_cell_volume                     2425.16
loop_
_atom_site_label
_atom_site_type_symbol
_atom_site_fract_x
_atom_site_fract_y
_atom_site_fract_z
Ni1 Ni 0.76202(3) 0.55474(5) 0.62464(2)
O1 O 0.70011(15) 0.4392(3) 0.51546(13)
O2 O 0.82520(19) 0.3191(4) 0.52953(15)
O3 O 0.82943(16) 0.1627(4) 0.28222(16)
O4 O 0.69869(15) 0.0868(3) 0.17264(13)
O5 O 0.40811(19) 0.3873(4) 0.24736(19)
O6 O 0.4183(3) 0.3353(10) 0.1450(3)
O7 O 0.88167(15) 0.4257(3) 0.67823(13)
H1 H 0.9276 0.4792 0.7110
H2 H 0.8911 0.3913 0.6408
N1 N 0.64695(18) 0.6892(3) 0.58809(16)
N2 N 0.80969(19) 0.6991(3) 0.72544(16)
N3 N 0.82518(18) 0.6942(3) 0.57547(16)
N4 N 0.4514(2) 0.3433(5) 0.2173(2)
C1 C 0.7434(2) 0.3623(4) 0.4892(2)
C2 C 0.6900(2) 0.3214(4) 0.39844(18)
C3 C 0.5956(2) 0.3509(4) 0.3505(2)
H3 H 0.5634 0.3977 0.3729
C4 C 0.5512(2) 0.3090(4) 0.2691(2)
C5 C 0.5955(2) 0.2395(4) 0.2326(2)
H4 H 0.5626 0.2104 0.1777
C6 C 0.6903(2) 0.2140(4) 0.27977(18)
C7 C 0.7358(2) 0.2543(4) 0.36232(18)
H5 H 0.7991 0.2356 0.3943
C8 C 0.7440(2) 0.1477(4) 0.24169(19)
C9 C 0.5639(2) 0.6683(4) 0.5204(2)
H6 H 0.5586 0.5953 0.4831
C10 C 0.4860(2) 0.7499(4) 0.5035(2)
H7 H 0.4291 0.7311 0.4567
C11 C 0.4952(3) 0.8602(5) 0.5581(3)
H8 H 0.4446 0.9191 0.5480
C12 C 0.5798(3) 0.8825(5) 0.6276(3)
H9 H 0.5867 0.9567 0.6649
C13 C 0.6552(2) 0.7937(4) 0.6422(2)
C14 C 0.7482(3) 0.8036(4) 0.7174(2)
C15 C 0.7720(4) 0.9147(6) 0.7762(3)
H10 H 0.7287 0.9861 0.7707
C16 C 0.8611(4) 0.9174(6) 0.8431(3)
H11 H 0.8783 0.9914 0.8828
C17 C 0.9237(3) 0.8110(5) 0.8508(3)
H12 H 0.9841 0.8119 0.8951
C18 C 0.8950(3) 0.7025(5) 0.7910(2)
H13 H 0.9368 0.6284 0.7965
C19 C 0.9175(2) 0.7106(5) 0.6141(2)
H14 H 0.9535 0.6578 0.6625
C20 C 0.9616(2) 0.8019(5) 0.5854(2)
H15 H 1.0260 0.8088 0.6145
C21 C 0.9115(2) 0.8832(4) 0.5142(2)
C22 C 0.8158(2) 0.8636(5) 0.4732(2)
H16 H 0.7784 0.9134 0.4240
C23 C 0.7767(2) 0.7695(5) 0.5059(2)
H17 H 0.7125 0.7583 0.4774
C24 C 0.9552(2) 0.9842(4) 0.4815(2)
H18 H 0.9167 1.0293 0.4310
Ni1B Ni 1.23798(3) 1.44526(5) 0.37536(2)
Ni1A Ni 1.23798(3) 2.05474(5) 0.87536(2)
Ni1C Ni 0.76202(3) -0.05474(5) 0.12464(2)
O1B O 1.29989(15) 1.5608(3) 0.48454(13)
O2B O 1.17480(19) 1.6809(4) 0.47047(15)
O3B O 1.17057(16) 1.8373(4) 0.71778(16)
O4B O 1.30131(15) 1.9132(3) 0.82736(13)
O4A O 1.30131(15) 1.5868(3) 0.32736(13)
O4C O 0.69869(15) 0.4132(3) 0.67264(13)
O5B O 1.59189(19) 1.6127(4) 0.75264(19)
O6B O 1.5817(3) 1.6647(10) 0.8550(3)
O7B O 1.11833(15) 1.5743(3) 0.32177(13)
H1B H 1.0724 1.5208 0.2890
H2B H 1.1089 1.6087 0.3592
N1B N 1.35305(18) 1.3108(3) 0.41191(16)
N2B N 1.19031(19) 1.3009(3) 0.27456(16)
N3B N 1.17482(18) 1.3058(3) 0.42453(16)
N4B N 1.5486(2) 1.6567(5) 0.7827(2)
C1B C 1.2566(2) 1.6377(4) 0.5108(2)
C2B C 1.3100(2) 1.6786(4) 0.60156(18)
C3B C 1.4044(2) 1.6491(4) 0.6495(2)
H3B H 1.4366 1.6023 0.6271
C4B C 1.4488(2) 1.6910(4) 0.7309(2)
C5B C 1.4045(2) 1.7605(4) 0.7674(2)
H4B H 1.4374 1.7896 0.8223
C6B C 1.3097(2) 1.7860(4) 0.72023(18)
C7B C 1.2642(2) 1.7457(4) 0.63768(18)
H5B H 1.2009 1.7644 0.6057
C8B C 1.2560(2) 1.8523(4) 0.75831(19)
C9B C 1.4361(2) 1.3317(4) 0.4796(2)
H6B H 1.4414 1.4047 0.5169
C10B C 1.5140(2) 1.2501(4) 0.4965(2)
H7B H 1.5709 1.2689 0.5433
C11B C 1.5048(3) 1.1398(5) 0.4419(3)
H8B H 1.5554 1.0809 0.4520
C12B C 1.4202(3) 1.1175(5) 0.3724(3)
H9B H 1.4133 1.0433 0.3351
C13B C 1.3448(2) 1.2063(4) 0.3578(2)
C14B C 1.2518(3) 1.1964(4) 0.2826(2)
C15B C 1.2280(4) 1.0853(6) 0.2238(3)
H10B H 1.2713 1.0139 0.2293
C16B C 1.1389(4) 1.0826(6) 0.1569(3)
H11B H 1.1217 1.0086 0.1172
C17B C 1.0763(3) 1.1890(5) 0.1492(3)
H12B H 1.0159 1.1881 0.1049
C18B C 1.1050(3) 1.2975(5) 0.2090(2)
H13B H 1.0632 1.3716 0.2035
C19B C 1.0825(2) 1.2894(5) 0.3859(2)
H14B H 1.0465 1.3422 0.3375
C20B C 1.0384(2) 1.1981(5) 0.4146(2)
H15B H 0.9740 1.1912 0.3855
C21B C 1.0885(2) 1.1168(4) 0.4858(2)
C22B C 1.1842(2) 1.1364(5) 0.5268(2)
H16B H 1.2216 1.0866 0.5760
C23B C 1.2233(2) 1.2305(5) 0.4941(2)
H17B H 1.2875 1.2417 0.5226
C24B C 1.0448(2) 1.0158(4) 0.5185(2)
H18B H 1.0833 0.9707 0.5690
loop_
_geom_bond_atom_site_label_1
_geom_bond_atom_site_label_2
_geom_bond_site_symmetry_1
_geom_bond_site_symmetry_2
Ni1 O1 1_555 1_555
O1 C1 1_555 1_555
O2 C1 1_555 1_555
O3 C8 1_555 1_555
O4 C8 1_555 1_555
O5 N4 1_555 1_555
O6 N4 1_555 1_555
O7 Ni1 1_555 1_555
H1 O7 1_555 1_555
H2 O7 1_555 1_555
N1 Ni1 1_555 1_555
N2 Ni1 1_555 1_555
N3 Ni1 1_555 1_555
N4 C4 1_555 1_555
C1 C2 1_555 1_555
C2 C3 1_555 1_555
C3 H3 1_555 1_555
C4 C3 1_555 1_555
C5 C4 1_555 1_555
H4 C5 1_555 1_555
C6 C5 1_555 1_555
C7 C2 1_555 1_555
H5 C7 1_555 1_555
C8 C6 1_555 1_555
C9 N1 1_555 1_555
H6 C9 1_555 1_555
C10 C9 1_555 1_555
H7 C10 1_555 1_555
C11 C10 1_555 1_555
H8 C11 1_555 1_555
C12 C11 1_555 1_555
H9 C12 1_555 1_555
C13 N1 1_555 1_555
C14 N2 1_555 1_555
C15 C14 1_555 1_555
H10 C15 1_555 1_555
C16 C15 1_555 1_555
H11 C16 1_555 1_555
C17 C16 1_555 1_555
H12 C17 1_555 1_555
C18 N2 1_555 1_555
H13 C18 1_555 1_555
C19 N3 1_555 1_555
H14 C19 1_555 1_555
C20 C19 1_555 1_555
H15 C20 1_555 1_555
C21 C20 1_555 1_555
C22 C21 1_555 1_555
H16 C22 1_555 1_555
C23 N3 1_555 1_555
H17 C23 1_555 1_555
C24 C21 1_555 1_555
H18 C24 1_555 1_555
Ni1B O1B 1_555 1_555
Ni1A O4B 1_555 1_555
Ni1C O4 1_555 1_555
O1B C1B 1_555 1_555
O2B C1B 1_555 1_555
O3B C8B 1_555 1_555
O4B C8B 1_555 1_555
O4A Ni1B 1_555 1_555
O4C Ni1 1_555 1_555
O5B N4B 1_555 1_555
O6B N4B 1_555 1_555
O7B Ni1B 1_555 1_555
H1B O7B 1_555 1_555
H2B O7B 1_555 1_555
N1B Ni1B 1_555 1_555
N2B Ni1B 1_555 1_555
N3B Ni1B 1_555 1_555
N4B C4B 1_555 1_555
C1B C2B 1_555 1_555
C2B C3B 1_555 1_555
C3B H3B 1_555 1_555
C4B C3B 1_555 1_555
C5B C4B 1_555 1_555
H4B C5B 1_555 1_555
C6B C5B 1_555 1_555
C7B C2B 1_555 1_555
H5B C7B 1_555 1_555
C8B C6B 1_555 1_555
C9B N1B 1_555 1_555
H6B C9B 1_555 1_555
C10B C9B 1_555 1_555
H7B C10B 1_555 1_555
C11B C10B 1_555 1_555
H8B C11B 1_555 1_555
C12B C11B 1_555 1_555
H9B C12B 1_555 1_555
C13B N1B 1_555 1_555
C14B N2B 1_555 1_555
C15B C14B 1_555 1_555
H10B C15B 1_555 1_555
C16B C15B 1_555 1_555
H11B C16B 1_555 1_555
C17B C16B 1_555 1_555
H12B C17B 1_555 1_555
C18B N2B 1_555 1_555
H13B C18B 1_555 1_555
C19B N3B 1_555 1_555
H14B C19B 1_555 1_555
C20B C19B 1_555 1_555
H15B C20B 1_555 1_555
C21B C20B 1_555 1_555
C22B C21B 1_555 1_555
H16B C22B 1_555 1_555
C23B N3B 1_555 1_555
H17B C23B 1_555 1_555
C24B C24 1_555 1_555
H18B C24B 1_555 1_555
C6 C7 1_555 1_555
C12 C13 1_555 1_555
C13 C14 1_555 1_555
C17 C18 1_555 1_555
C22 C23 1_555 1_555
C6B C7B 1_555 1_555
C12B C13B 1_555 1_555
C13B C14B 1_555 1_555
C17B C18B 1_555 1_555
C21B C24B 1_555 1_555
C22B C23B 1_555 1_555

#END
