
#######################################################################
#
#                 Cambridge Crystallographic Data Centre
#                                CCDC 
#
#######################################################################
#
# If this CIF has been generated from an entry in the Cambridge 
# Structural Database, then it will include bibliographic, chemical, 
# crystal, experimental, refinement or atomic coordinate data resulting 
# from the CCDC's data processing and validation procedures.
#
#######################################################################

data_INICPB01
_symmetry_cell_setting           monoclinic
_symmetry_space_group_name_H-M   'C c'
_symmetry_Int_Tables_number      9
_space_group_name_Hall           'C -2yc'
loop_
_symmetry_equiv_pos_site_id
_symmetry_equiv_pos_as_xyz
1 x,y,z
2 x,-y,1/2+z
3 1/2+x,1/2+y,z
4 1/2+x,1/2-y,1/2+z
_cell_length_a                   10.915(2)
_cell_length_b                   18.554(3)
_cell_length_c                   7.094(1)
_cell_angle_alpha                90
_cell_angle_beta                 111.10(1)
_cell_angle_gamma                90
_cell_volume                     1340.33
loop_
_atom_site_label
_atom_site_type_symbol
_atom_site_fract_x
_atom_site_fract_y
_atom_site_fract_z
Pb1 Pb 0.13602(10) 0.577701(17) 0.10686(11)
O1 O 0.3364(11) 0.6072(6) 0.3872(15)
O2 O 0.2838(10) 0.4946(6) 0.4275(16)
O3 O -0.0010(17) 0.6900(7) 0.106(2)
O4 O 0.0309(12) 0.6197(6) 0.3688(15)
O5 O -0.0099(13) 0.4586(7) 0.1711(19)
N1 N 0.7468(15) 0.5158(12) 0.908(2)
N2 N -0.244(2) 0.8184(10) 0.474(3)
C1 C 0.7002(19) 0.5829(12) 0.845(3)
H1 H 0.7540 0.6223 0.8987
C2 C 0.5828(17) 0.5943(10) 0.711(2)
H2 H 0.5564 0.6412 0.6695
C3 C 0.4952(14) 0.5361(9) 0.629(2)
C4 C 0.5407(16) 0.4674(10) 0.689(3)
H3 H 0.4876 0.4273 0.6402
C5 C 0.6700(18) 0.4600(11) 0.827(3)
H4 H 0.7033 0.4138 0.8635
C6 C 0.3603(14) 0.5483(8) 0.4709(19)
C7 C -0.2411(18) 0.8243(9) 0.294(3)
H5 H -0.2890 0.8609 0.2103
C8 C -0.171(2) 0.7791(11) 0.225(3)
H6 H -0.1705 0.7851 0.0947
C9 C -0.0987(14) 0.7239(8) 0.345(2)
C10 C -0.099(3) 0.7195(11) 0.535(3)
H7 H -0.0479 0.6847 0.6234
C11 C -0.174(2) 0.7669(10) 0.600(2)
H8 H -0.1758 0.7630 0.7299
C12 C -0.011(3) 0.6728(11) 0.265(5)
H9 H 0.006(16) 0.428(7) 0.10(2)
H10 H -0.076(12) 0.481(9) 0.10(2)
Pb1A Pb 0.13602(10) 0.422299(17) 0.60686(11)
Pb1C Pb -0.36398(10) 0.922299(17) 0.60686(11)
O2A O 0.2838(10) 0.5054(6) -0.0725(16)
N2C N 0.256(2) 0.6816(10) -0.026(3)
loop_
_geom_bond_atom_site_label_1
_geom_bond_atom_site_label_2
_geom_bond_site_symmetry_1
_geom_bond_site_symmetry_2
Pb1 O1 1_555 1_555
O1 C6 1_555 1_555
O2 Pb1 1_555 1_555
O3 Pb1 1_555 1_555
O4 Pb1 1_555 1_555
O5 Pb1 1_555 1_555
N1 C1 1_555 1_555
N2 C7 1_555 1_555
C1 H1 1_555 1_555
C2 C1 1_555 1_555
H2 C2 1_555 1_555
C3 C2 1_555 1_555
C4 C3 1_555 1_555
H3 C4 1_555 1_555
C5 N1 1_555 1_555
H4 C5 1_555 1_555
C6 O2 1_555 1_555
C7 H5 1_555 1_555
C8 C7 1_555 1_555
H6 C8 1_555 1_555
C9 C8 1_555 1_555
C10 C9 1_555 1_555
H7 C10 1_555 1_555
C11 N2 1_555 1_555
H8 C11 1_555 1_555
C12 O3 1_555 1_555
H9 O5 1_555 1_555
H10 O5 1_555 1_555
Pb1A O2 1_555 1_555
Pb1C N2 1_555 1_555
O2A Pb1 1_555 1_555
N2C Pb1 1_555 1_555
O4 C12 1_555 1_555
C3 C6 1_555 1_555
C4 C5 1_555 1_555
C9 C12 1_555 1_555
C10 C11 1_555 1_555

#END
