
#######################################################################
#
#                 Cambridge Crystallographic Data Centre
#                                CCDC 
#
#######################################################################
#
# If this CIF has been generated from an entry in the Cambridge 
# Structural Database, then it will include bibliographic, chemical, 
# crystal, experimental, refinement or atomic coordinate data resulting 
# from the CCDC's data processing and validation procedures.
#
#######################################################################

data_INIPEB
_symmetry_cell_setting           triclinic
_symmetry_space_group_name_H-M   'P -1'
_symmetry_Int_Tables_number      2
_space_group_name_Hall           '-P 1'
loop_
_symmetry_equiv_pos_site_id
_symmetry_equiv_pos_as_xyz
1 x,y,z
2 -x,-y,-z
_cell_length_a                   5.3346(5)
_cell_length_b                   7.8475(8)
_cell_length_c                   13.7756(14)
_cell_angle_alpha                96.582(12)
_cell_angle_beta                 99.934(12)
_cell_angle_gamma                107.703(12)
_cell_volume                     532.498
loop_
_atom_site_label
_atom_site_type_symbol
_atom_site_fract_x
_atom_site_fract_y
_atom_site_fract_z
Ca1 Ca 1.0000 0.5000 0.5000
O1 O 0.7478(2) 0.48496(16) 0.62160(8)
O2 O 0.2968(2) 0.36675(14) 0.58530(8)
C1 C 0.5168(3) 0.5364(2) 0.74859(11)
C2 C 0.7387(3) 0.6800(2) 0.80540(12)
H1 H 0.8960 0.7220 0.7795
C3 C 0.7321(3) 0.7620(2) 0.89929(13)
H2 H 0.8813 0.8612 0.9376
C4 C 0.5006(3) 0.6946(2) 0.93541(11)
C5 C 0.2795(3) 0.5489(2) 0.88226(12)
H3 H 0.1262 0.5035 0.9099
C6 C 0.2881(3) 0.4714(2) 0.78767(12)
H4 H 0.1373 0.3734 0.7492
C7 C 0.5225(3) 0.45685(19) 0.64407(11)
N1 N 0.4887(3) 0.7821(2) 1.03433(11)
O3 O 0.6825(3) 0.9115(2) 1.08081(11)
O4 O 0.2835(3) 0.7205(2) 1.06537(10)
N2 N 0.6577(3) 0.20685(17) 0.40897(10)
N3 N 0.4164(3) 0.14222(17) 0.43499(10)
H5 H 0.3703 0.1966 0.4851
C8 C 0.2561(3) -0.0148(2) 0.37505(12)
H6 H 0.0802 -0.0842 0.3800
C9 C 0.3944(3) -0.0558(2) 0.30535(12)
H7 H 0.3349 -0.1576 0.2525
C10 C 0.6417(3) 0.0851(2) 0.32935(12)
H8 H 0.7813 0.0937 0.2937
Ca1_2 Ca 0.0000 0.5000 0.5000
O1A O 0.2522(2) 0.51504(16) 0.37840(8)
O1A_2 O 1.2522(2) 0.51504(16) 0.37840(8)
O2A O 0.7032(2) 0.63325(14) 0.41470(8)
O2_2 O 1.2968(2) 0.36675(14) 0.58530(8)
C1A C 0.4832(3) 0.4636(2) 0.25141(11)
C2A C 0.2613(3) 0.3200(2) 0.19460(12)
H1A H 0.1040 0.2780 0.2205
C3A C 0.2679(3) 0.2380(2) 0.10071(13)
H2A H 0.1187 0.1388 0.0624
C4A C 0.4994(3) 0.3054(2) 0.06459(11)
C5A C 0.7205(3) 0.4511(2) 0.11774(12)
H3A H 0.8738 0.4965 0.0901
C6A C 0.7119(3) 0.5286(2) 0.21233(12)
H4A H 0.8627 0.6266 0.2508
C7A C 0.4775(3) 0.54315(19) 0.35593(11)
N1A N 0.5113(3) 0.2179(2) -0.03433(11)
O3A O 0.3175(3) 0.0885(2) -0.08081(11)
O4A O 0.7165(3) 0.2795(2) -0.06537(10)
N2A N 1.3423(3) 0.79315(17) 0.59103(10)
N3A N 1.5836(3) 0.85778(17) 0.56501(10)
H5A H 1.6297 0.8034 0.5149
C8A C 1.7439(3) 1.0148(2) 0.62495(12)
H6A H 1.9198 1.0842 0.6200
C9A C 1.6056(3) 1.0558(2) 0.69465(12)
H7A H 1.6651 1.1576 0.7475
C10A C 1.3583(3) 0.9149(2) 0.67065(12)
H8A H 1.2187 0.9063 0.7063
loop_
_geom_bond_atom_site_label_1
_geom_bond_atom_site_label_2
_geom_bond_site_symmetry_1
_geom_bond_site_symmetry_2
Ca1 O1 1_555 1_555
O1 C7 1_555 1_555
O2 C7 1_555 1_555
C1 C2 1_555 1_555
C2 H1 1_555 1_555
C3 C2 1_555 1_555
H2 C3 1_555 1_555
C4 C3 1_555 1_555
C5 C4 1_555 1_555
H3 C5 1_555 1_555
C6 C1 1_555 1_555
H4 C6 1_555 1_555
C7 C1 1_555 1_555
N1 C4 1_555 1_555
O3 N1 1_555 1_555
O4 N1 1_555 1_555
N2 Ca1 1_555 1_555
N3 N2 1_555 1_555
H5 N3 1_555 1_555
C8 N3 1_555 1_555
H6 C8 1_555 1_555
C9 C8 1_555 1_555
H7 C9 1_555 1_555
C10 N2 1_555 1_555
H8 C10 1_555 1_555
Ca1_2 O2 1_555 1_555
O1A Ca1_2 1_555 1_555
O1A_2 Ca1 1_555 1_555
O2A Ca1 1_555 1_555
O2_2 Ca1 1_555 1_555
C1A C2A 1_555 1_555
C2A H1A 1_555 1_555
C3A C2A 1_555 1_555
H2A C3A 1_555 1_555
C4A C3A 1_555 1_555
C5A C4A 1_555 1_555
H3A C5A 1_555 1_555
C6A C1A 1_555 1_555
H4A C6A 1_555 1_555
C7A O1A 1_555 1_555
N1A C4A 1_555 1_555
O3A N1A 1_555 1_555
O4A N1A 1_555 1_555
N2A Ca1 1_555 1_555
N3A N2A 1_555 1_555
H5A N3A 1_555 1_555
C8A N3A 1_555 1_555
H6A C8A 1_555 1_555
C9A C8A 1_555 1_555
H7A C9A 1_555 1_555
C10A N2A 1_555 1_555
H8A C10A 1_555 1_555
C5 C6 1_555 1_555
C9 C10 1_555 1_555
O2A C7A 1_555 1_555
C1A C7A 1_555 1_555
C5A C6A 1_555 1_555
C9A C10A 1_555 1_555

#END
