
#######################################################################
#
#                 Cambridge Crystallographic Data Centre
#                                CCDC 
#
#######################################################################
#
# If this CIF has been generated from an entry in the Cambridge 
# Structural Database, then it will include bibliographic, chemical, 
# crystal, experimental, refinement or atomic coordinate data resulting 
# from the CCDC's data processing and validation procedures.
#
#######################################################################

data_INIRUS
_symmetry_cell_setting           monoclinic
_symmetry_space_group_name_H-M   'P 21/c'
_symmetry_Int_Tables_number      14
_space_group_name_Hall           '-P 2ybc'
loop_
_symmetry_equiv_pos_site_id
_symmetry_equiv_pos_as_xyz
1 x,y,z
2 x,1/2-y,1/2+z
3 -x,-y,-z
4 -x,1/2+y,1/2-z
_cell_length_a                   15.478(2)
_cell_length_b                   4.9948(6)
_cell_length_c                   9.457(1)
_cell_angle_alpha                90
_cell_angle_beta                 99.809(2)
_cell_angle_gamma                90
_cell_volume                     720.428
loop_
_atom_site_label
_atom_site_type_symbol
_atom_site_fract_x
_atom_site_fract_y
_atom_site_fract_z
Co1 Co 0.5000 0.0000 0.5000
O1 O 0.4679(1) 0.2393(4) 0.3231(2)
O2 O 0.4033(1) 0.2495(4) 0.0941(2)
N1 N 0.3953(2) -0.2219(5) 0.3827(3)
C1 C 0.4147(2) 0.1489(6) 0.2170(3)
C2 C 0.3610(2) -0.1002(6) 0.2404(3)
C3 C 0.2641(2) -0.0394(6) 0.2251(3)
C4 C 0.2339(2) 0.1513(8) 0.3117(4)
C5 C 0.1453(3) 0.1960(10) 0.3023(5)
C6 C 0.0858(3) 0.053(1) 0.2069(6)
C7 C 0.1146(3) -0.138(1) 0.1216(5)
C8 C 0.2040(2) -0.1842(9) 0.1310(4)
H1 H 0.3684 -0.2272 0.1687
H2 H 0.2746 0.2518 0.3775
H3 H 0.1253 0.3266 0.3624
H4 H 0.0247 0.0864 0.1997
H5 H 0.0736 -0.2375 0.0564
H6 H 0.2236 -0.3166 0.0720
H7 H 0.4127 -0.3786 0.3702
H8 H 0.3493 -0.2349 0.4322
O1B O 0.5321(1) -0.2393(4) 0.6769(2)
O2B O 0.5967(1) -0.2495(4) 0.9059(2)
N1B N 0.6047(2) 0.2219(5) 0.6173(3)
C1B C 0.5853(2) -0.1489(6) 0.7830(3)
C2B C 0.6390(2) 0.1002(6) 0.7596(3)
C3B C 0.7359(2) 0.0394(6) 0.7749(3)
C4B C 0.7661(2) -0.1513(8) 0.6883(4)
C5B C 0.8547(3) -0.1960(10) 0.6977(5)
C6B C 0.9142(3) -0.053(1) 0.7931(6)
C7B C 0.8854(3) 0.138(1) 0.8784(5)
C8B C 0.7960(2) 0.1842(9) 0.8690(4)
H1B H 0.6316 0.2272 0.8313
H2B H 0.7254 -0.2518 0.6225
H3B H 0.8747 -0.3266 0.6376
H4B H 0.9753 -0.0864 0.8003
H5B H 0.9264 0.2375 0.9436
H6B H 0.7764 0.3166 0.9280
H7B H 0.5873 0.3786 0.6298
H8B H 0.6507 0.2349 0.5678
O2A O 0.4033(1) 0.2505(4) 0.5941(2)
O2C O 0.5967(1) -0.2505(4) 0.4059(2)
Co1A Co 0.5000 0.5000 0.0000
Co1A_2 Co 0.5000 -0.5000 1.0000
loop_
_geom_bond_atom_site_label_1
_geom_bond_atom_site_label_2
_geom_bond_site_symmetry_1
_geom_bond_site_symmetry_2
Co1 O1 1_555 1_555
O1 C1 1_555 1_555
O2 C1 1_555 1_555
N1 Co1 1_555 1_555
C1 C2 1_555 1_555
C2 N1 1_555 1_555
C3 C2 1_555 1_555
C4 C3 1_555 1_555
C5 C4 1_555 1_555
C6 C5 1_555 1_555
C7 C6 1_555 1_555
C8 C3 1_555 1_555
H1 C2 1_555 1_555
H2 C4 1_555 1_555
H3 C5 1_555 1_555
H4 C6 1_555 1_555
H5 C7 1_555 1_555
H6 C8 1_555 1_555
H7 N1 1_555 1_555
H8 N1 1_555 1_555
O1B Co1 1_555 1_555
O2B C1B 1_555 1_555
N1B Co1 1_555 1_555
C1B O1B 1_555 1_555
C2B N1B 1_555 1_555
C3B C2B 1_555 1_555
C4B C3B 1_555 1_555
C5B C4B 1_555 1_555
C6B C5B 1_555 1_555
C7B C6B 1_555 1_555
C8B C3B 1_555 1_555
H1B C2B 1_555 1_555
H2B C4B 1_555 1_555
H3B C5B 1_555 1_555
H4B C6B 1_555 1_555
H5B C7B 1_555 1_555
H6B C8B 1_555 1_555
H7B N1B 1_555 1_555
H8B N1B 1_555 1_555
O2A Co1 1_555 1_555
O2C Co1 1_555 1_555
Co1A O2 1_555 1_555
Co1A_2 O2B 1_555 1_555
C7 C8 1_555 1_555
C1B C2B 1_555 1_555
C7B C8B 1_555 1_555

#END
