
#######################################################################
#
#                 Cambridge Crystallographic Data Centre
#                                CCDC 
#
#######################################################################
#
# If this CIF has been generated from an entry in the Cambridge 
# Structural Database, then it will include bibliographic, chemical, 
# crystal, experimental, refinement or atomic coordinate data resulting 
# from the CCDC's data processing and validation procedures.
#
#######################################################################

data_INIWEH
_symmetry_cell_setting           monoclinic
_symmetry_space_group_name_H-M   'C 2/c'
_symmetry_Int_Tables_number      15
_space_group_name_Hall           '-C 2yn'
loop_
_symmetry_equiv_pos_site_id
_symmetry_equiv_pos_as_xyz
1 x,y,z
2 1/2+x,1/2+y,z
3 x,-y,1/2+z
4 1/2+x,1/2-y,1/2+z
5 -x,-y,-z
6 1/2-x,1/2-y,-z
7 -x,y,1/2-z
8 1/2-x,1/2+y,1/2-z
_cell_length_a                   13.1406(11)
_cell_length_b                   14.0664(12)
_cell_length_c                   9.7823(10)
_cell_angle_alpha                90
_cell_angle_beta                 97.415(19)
_cell_angle_gamma                90
_cell_volume                     1793.05
loop_
_atom_site_label
_atom_site_type_symbol
_atom_site_fract_x
_atom_site_fract_y
_atom_site_fract_z
Cd1 Cd 0.5000 0.0000 0.5000
O1 O 0.41795(10) 0.13344(9) 0.54720(13)
O2 O 0.36730(12) 0.17604(12) 0.32953(15)
O3 O 0.5000 0.04827(13) 0.2500
N1 N 0.75909(13) 0.18721(12) 0.66107(16)
H1 H 0.7829 0.2301 0.7192
N2 N 0.64934(11) 0.08462(11) 0.55024(15)
C1 C 0.66391(16) 0.15018(16) 0.6472(2)
H2 H 0.6137 0.1688 0.7004
C2 C 0.77069(17) 0.02604(18) 0.3868(3)
H3 H 0.7252 -0.0165 0.3385
C3 C 0.86832(19) 0.0381(2) 0.3535(3)
H4 H 0.8889 0.0033 0.2811
C4 C 0.93754(18) 0.1017(2) 0.4260(3)
H5 H 1.0032 0.1076 0.4011
C5 C 0.91057(16) 0.15537(17) 0.5330(2)
H6 H 0.9565 0.1974 0.5815
C6 C 0.81125(14) 0.14387(14) 0.56519(19)
C7 C 0.74218(13) 0.07969(13) 0.49521(19)
C8 C 0.37000(13) 0.18563(12) 0.45745(19)
C9 C 0.30641(13) 0.26530(13) 0.50791(19)
H7 H 0.4528 0.0907 0.2641
H8 H 0.3154 0.3222 0.4585
H9 H 0.3291 0.2805 0.5953
C9E C 0.19359(13) 0.23470(13) 0.49209(19)
C8E C 0.13000(13) 0.31437(12) 0.54255(19)
O1E O 0.08205(10) 0.36656(9) 0.45280(13)
O2E O 0.13270(12) 0.32396(12) 0.67047(15)
H8E H 0.1846 0.1778 0.5415
H9E H 0.1709 0.2195 0.4047
H7F H 0.5472 0.0907 0.2359
N1D N 0.24091(13) -0.18721(12) 0.33893(16)
H1D H 0.2171 -0.2301 0.2808
N2D N 0.35066(11) -0.08462(11) 0.44976(15)
C1D C 0.33609(16) -0.15018(16) 0.3528(2)
H2D H 0.3863 -0.1688 0.2996
C2D C 0.22931(17) -0.02604(18) 0.6132(3)
H3D H 0.2748 0.0165 0.6615
C3D C 0.13168(19) -0.0381(2) 0.6465(3)
H4D H 0.1111 -0.0033 0.7189
C4D C 0.06246(18) -0.1017(2) 0.5740(3)
H5D H -0.0032 -0.1076 0.5989
C5D C 0.08943(16) -0.15537(17) 0.4670(2)
H6D H 0.0435 -0.1974 0.4185
C6D C 0.18875(14) -0.14387(14) 0.43481(19)
C7D C 0.25782(13) -0.07969(13) 0.50479(19)
O1D O 0.58205(10) -0.13344(9) 0.45280(13)
O3B O 0.5000 -0.04827(13) 0.7500
Cd1B Cd 0.5000 0.0000 0.0000
Cd1A Cd 0.0000 0.5000 0.5000
H7B H 0.4528 -0.0907 0.7641
H7D H 0.5472 -0.0907 0.7359
loop_
_geom_bond_atom_site_label_1
_geom_bond_atom_site_label_2
_geom_bond_site_symmetry_1
_geom_bond_site_symmetry_2
Cd1 O1 1_555 1_555
O1 C8 1_555 1_555
O2 C8 1_555 1_555
O3 Cd1 1_555 1_555
N1 H1 1_555 1_555
N2 Cd1 1_555 1_555
C1 N1 1_555 1_555
H2 C1 1_555 1_555
C2 H3 1_555 1_555
C3 C2 1_555 1_555
H4 C3 1_555 1_555
C4 C3 1_555 1_555
H5 C4 1_555 1_555
C5 C4 1_555 1_555
H6 C5 1_555 1_555
C6 N1 1_555 1_555
C7 N2 1_555 1_555
C8 C9 1_555 1_555
C9 H8 1_555 1_555
H7 O3 1_555 1_555
H9 C9 1_555 1_555
C9E C9 1_555 1_555
C8E C9E 1_555 1_555
O1E C8E 1_555 1_555
O2E C8E 1_555 1_555
H8E C9E 1_555 1_555
H9E C9E 1_555 1_555
H7F O3 1_555 1_555
N1D H1D 1_555 1_555
N2D Cd1 1_555 1_555
C1D N1D 1_555 1_555
H2D C1D 1_555 1_555
C2D H3D 1_555 1_555
C3D C2D 1_555 1_555
H4D C3D 1_555 1_555
C4D C3D 1_555 1_555
H5D C4D 1_555 1_555
C5D C4D 1_555 1_555
H6D C5D 1_555 1_555
C6D N1D 1_555 1_555
C7D N2D 1_555 1_555
O1D Cd1 1_555 1_555
O3B Cd1 1_555 1_555
Cd1B O3 1_555 1_555
Cd1A O1E 1_555 1_555
H7B O3B 1_555 1_555
H7D O3B 1_555 1_555
N2 C1 1_555 1_555
C2 C7 1_555 1_555
C5 C6 1_555 1_555
C6 C7 1_555 1_555
N2D C1D 1_555 1_555
C2D C7D 1_555 1_555
C5D C6D 1_555 1_555
C6D C7D 1_555 1_555

#END
