
#######################################################################
#
#                 Cambridge Crystallographic Data Centre
#                                CCDC 
#
#######################################################################
#
# If this CIF has been generated from an entry in the Cambridge 
# Structural Database, then it will include bibliographic, chemical, 
# crystal, experimental, refinement or atomic coordinate data resulting 
# from the CCDC's data processing and validation procedures.
#
#######################################################################

data_INIYEJ01
_symmetry_cell_setting           monoclinic
_symmetry_space_group_name_H-M   'P 21/n'
_symmetry_Int_Tables_number      14
_space_group_name_Hall           '-P 2yn'
loop_
_symmetry_equiv_pos_site_id
_symmetry_equiv_pos_as_xyz
1 x,y,z
2 1/2+x,1/2-y,1/2+z
3 -x,-y,-z
4 1/2-x,1/2+y,1/2-z
_cell_length_a                   7.2587(15)
_cell_length_b                   12.396(3)
_cell_length_c                   14.428(3)
_cell_angle_alpha                90
_cell_angle_beta                 103.87(3)
_cell_angle_gamma                90
_cell_volume                     1260.36
loop_
_atom_site_label
_atom_site_type_symbol
_atom_site_fract_x
_atom_site_fract_y
_atom_site_fract_z
Cu1 Cu 0.12302(8) 0.98715(5) 0.28396(4)
O1 O -0.0887(5) 1.0622(3) 0.1974(2)
O2 O -0.1965(5) 0.8990(3) 0.2207(2)
O3 O -0.7826(5) 0.9386(3) 0.1738(2)
O4 O -0.5495(5) 1.0492(3) 0.2439(2)
N1 N 0.1208(5) 1.0730(3) 0.3993(3)
N2 N 0.2674(6) 0.8858(3) 0.3795(3)
C1 C 0.0400(7) 1.1703(4) 0.4021(3)
H1 H -0.0277 1.2011 0.3454
C2 C 0.0541(7) 1.2256(4) 0.4860(4)
H2 H -0.0040 1.2925 0.4856
C3 C 0.1556(7) 1.1813(4) 0.5715(3)
H3 H 0.1676 1.2180 0.6288
C4 C 0.2391(6) 1.0800(4) 0.5690(3)
H4 H 0.3065 1.0476 0.6251
C5 C 0.2206(6) 1.0283(4) 0.4821(3)
C6 C 0.2996(6) 0.9198(4) 0.4711(3)
C7 C 0.3930(6) 0.8558(4) 0.5470(3)
H5 H 0.4164 0.8810 0.6094
C8 C 0.4507(7) 0.7526(4) 0.5271(3)
H6 H 0.5116 0.7075 0.5764
C9 C 0.4163(7) 0.7183(4) 0.4331(4)
H7 H 0.4544 0.6501 0.4186
C10 C 0.3252(7) 0.7866(4) 0.3618(3)
H8 H 0.3026 0.7633 0.2988
C11 C -0.2105(7) 0.9863(4) 0.1769(3)
C12 C -0.3661(7) 0.9993(3) 0.0880(3)
C13 C -0.3092(7) 1.0075(3) 0.0023(3)
H9 H -0.1807 1.0133 0.0040
C14 C -0.6322(7) 0.9920(3) 0.1750(3)
C15 C -0.5590(7) 0.9929(3) 0.0859(3)
C15B C -0.4410(7) 1.0071(3) -0.0859(3)
C12B C -0.6339(7) 1.0007(3) -0.0880(3)
C11B C -0.7895(7) 1.0137(4) -0.1769(3)
O1B O -0.9113(5) 0.9378(3) -0.1974(2)
O2B O -0.8035(5) 1.1010(3) -0.2207(2)
C13B C -0.6908(7) 0.9925(3) -0.0023(3)
H9B H -0.8193 0.9867 -0.0040
C14B C -0.3678(7) 1.0080(3) -0.1750(3)
O3B O -0.2174(5) 1.0614(3) -0.1738(2)
O4B O -0.4505(5) 0.9508(3) -0.2439(2)
Cu1B Cu -1.12302(8) 1.01285(5) -0.28396(4)
N1B N -1.1208(5) 0.9270(3) -0.3993(3)
N2B N -1.2674(6) 1.1142(3) -0.3795(3)
C1B C -1.0400(7) 0.8297(4) -0.4021(3)
H1B H -0.9723 0.7989 -0.3454
C2B C -1.0541(7) 0.7744(4) -0.4860(4)
H2B H -0.9960 0.7075 -0.4856
C3B C -1.1556(7) 0.8187(4) -0.5715(3)
H3B H -1.1676 0.7820 -0.6288
C4B C -1.2391(6) 0.9200(4) -0.5690(3)
H4B H -1.3065 0.9524 -0.6251
C5B C -1.2206(6) 0.9717(4) -0.4821(3)
C6B C -1.2996(6) 1.0802(4) -0.4711(3)
C7B C -1.3930(6) 1.1442(4) -0.5470(3)
H5B H -1.4164 1.1190 -0.6094
C8B C -1.4507(7) 1.2474(4) -0.5271(3)
H6B H -1.5116 1.2925 -0.5764
C9B C -1.4163(7) 1.2817(4) -0.4331(4)
H7B H -1.4544 1.3499 -0.4186
C10B C -1.3252(7) 1.2134(4) -0.3618(3)
H8B H -1.3026 1.2367 -0.2988
O3_2 O 0.2174(5) 0.9386(3) 0.1738(2)
Cu1_2 Cu -0.87698(8) 0.98715(5) 0.28396(4)
Cu1B_2 Cu -0.12302(8) 1.01285(5) -0.28396(4)
O3B_2 O -1.2174(5) 1.0614(3) -0.1738(2)
loop_
_geom_bond_atom_site_label_1
_geom_bond_atom_site_label_2
_geom_bond_site_symmetry_1
_geom_bond_site_symmetry_2
Cu1 O1 1_555 1_555
O1 C11 1_555 1_555
O2 C11 1_555 1_555
O3 C14 1_555 1_555
O4 C14 1_555 1_555
N1 Cu1 1_555 1_555
N2 Cu1 1_555 1_555
C1 N1 1_555 1_555
H1 C1 1_555 1_555
C2 C1 1_555 1_555
H2 C2 1_555 1_555
C3 C2 1_555 1_555
H3 C3 1_555 1_555
C4 C3 1_555 1_555
H4 C4 1_555 1_555
C5 N1 1_555 1_555
C6 N2 1_555 1_555
C7 C6 1_555 1_555
H5 C7 1_555 1_555
C8 C7 1_555 1_555
H6 C8 1_555 1_555
C9 C8 1_555 1_555
H7 C9 1_555 1_555
C10 N2 1_555 1_555
H8 C10 1_555 1_555
C11 C12 1_555 1_555
C12 C13 1_555 1_555
C13 H9 1_555 1_555
C14 C15 1_555 1_555
C15 C12 1_555 1_555
C15B C13 1_555 1_555
C12B C15B 1_555 1_555
C11B C12B 1_555 1_555
O1B C11B 1_555 1_555
O2B C11B 1_555 1_555
C13B C15 1_555 1_555
H9B C13B 1_555 1_555
C14B C15B 1_555 1_555
O3B C14B 1_555 1_555
O4B C14B 1_555 1_555
Cu1B O1B 1_555 1_555
N1B Cu1B 1_555 1_555
N2B Cu1B 1_555 1_555
C1B N1B 1_555 1_555
H1B C1B 1_555 1_555
C2B C1B 1_555 1_555
H2B C2B 1_555 1_555
C3B C2B 1_555 1_555
H3B C3B 1_555 1_555
C4B C3B 1_555 1_555
H4B C4B 1_555 1_555
C5B N1B 1_555 1_555
C6B N2B 1_555 1_555
C7B C6B 1_555 1_555
H5B C7B 1_555 1_555
C8B C7B 1_555 1_555
H6B C8B 1_555 1_555
C9B C8B 1_555 1_555
H7B C9B 1_555 1_555
C10B N2B 1_555 1_555
H8B C10B 1_555 1_555
O3_2 Cu1 1_555 1_555
Cu1_2 O3 1_555 1_555
Cu1B_2 O3B 1_555 1_555
O3B_2 Cu1B 1_555 1_555
C4 C5 1_555 1_555
C5 C6 1_555 1_555
C9 C10 1_555 1_555
C12B C13B 1_555 1_555
C4B C5B 1_555 1_555
C5B C6B 1_555 1_555
C9B C10B 1_555 1_555

#END
