
#######################################################################
#
#                 Cambridge Crystallographic Data Centre
#                                CCDC 
#
#######################################################################
#
# If this CIF has been generated from an entry in the Cambridge 
# Structural Database, then it will include bibliographic, chemical, 
# crystal, experimental, refinement or atomic coordinate data resulting 
# from the CCDC's data processing and validation procedures.
#
#######################################################################

data_INIZEK
_symmetry_cell_setting           orthorhombic
_symmetry_space_group_name_H-M   'P 21 21 21'
_symmetry_Int_Tables_number      19
_space_group_name_Hall           'P 2ac 2ab'
loop_
_symmetry_equiv_pos_site_id
_symmetry_equiv_pos_as_xyz
1 x,y,z
2 1/2-x,-y,1/2+z
3 -x,1/2+y,1/2-z
4 1/2+x,1/2-y,-z
_cell_length_a                   6.5200(13)
_cell_length_b                   10.172(2)
_cell_length_c                   18.871(4)
_cell_angle_alpha                90
_cell_angle_beta                 90
_cell_angle_gamma                90
_cell_volume                     1251.55
loop_
_atom_site_label
_atom_site_type_symbol
_atom_site_fract_x
_atom_site_fract_y
_atom_site_fract_z
Cd1 Cd 0.68554(10) 0.35218(6) 0.44820(3)
S1 S 1.0076(3) 0.3703(2) 0.52507(11)
S2 S 1.2289(3) 0.46992(19) 0.46632(10)
O1 O 1.2529(14) 0.4036(7) 0.3985(3)
O2 O 1.1586(12) 0.6055(7) 0.4621(4)
O3 O 1.4146(10) 0.4554(7) 0.5101(3)
N1 N 0.7066(13) 0.5455(7) 0.3847(4)
N2 N 0.7294(12) 0.2975(7) 0.3296(4)
C1 C 0.6982(16) 0.6676(9) 0.4119(5)
H1 H 0.6820 0.6776 0.4606
C2 C 0.7129(18) 0.7810(9) 0.3694(6)
H2 H 0.7068 0.8643 0.3897
C3 C 0.7361(17) 0.7667(11) 0.2989(6)
H3 H 0.7453 0.8410 0.2703
C4 C 0.7464(14) 0.6424(10) 0.2683(5)
C5 C 0.7762(17) 0.6216(12) 0.1938(5)
H4 H 0.7873 0.6934 0.1635
C6 C 0.7881(16) 0.4989(11) 0.1675(5)
H5 H 0.8086 0.4878 0.1191
C7 C 0.7702(14) 0.3843(10) 0.2118(4)
C8 C 0.7736(17) 0.2551(11) 0.1851(5)
H6 H 0.7885 0.2398 0.1367
C9 C 0.7548(15) 0.1534(12) 0.2310(5)
H7 H 0.7561 0.0672 0.2146
C10 C 0.7335(15) 0.1794(9) 0.3033(5)
H8 H 0.7218 0.1086 0.3343
C11 C 0.7437(13) 0.4027(9) 0.2851(4)
C12 C 0.7343(13) 0.5335(9) 0.3127(5)
S1C S 0.5076(3) 0.1297(2) 0.47493(11)
O3_2 O 0.4146(10) 0.4554(7) 0.5101(3)
Cd1C Cd 1.18554(10) 0.14782(6) 0.55180(3)
Cd1_2 Cd 1.68554(10) 0.35218(6) 0.44820(3)
loop_
_geom_bond_atom_site_label_1
_geom_bond_atom_site_label_2
_geom_bond_site_symmetry_1
_geom_bond_site_symmetry_2
Cd1 S1 1_555 1_555
S1 S2 1_555 1_555
S2 O1 1_555 1_555
O2 S2 1_555 1_555
O3 S2 1_555 1_555
N1 Cd1 1_555 1_555
N2 Cd1 1_555 1_555
C1 N1 1_555 1_555
H1 C1 1_555 1_555
C2 C1 1_555 1_555
H2 C2 1_555 1_555
C3 C2 1_555 1_555
H3 C3 1_555 1_555
C4 C3 1_555 1_555
C5 C4 1_555 1_555
H4 C5 1_555 1_555
C6 C5 1_555 1_555
H5 C6 1_555 1_555
C7 C6 1_555 1_555
C8 C7 1_555 1_555
H6 C8 1_555 1_555
C9 C8 1_555 1_555
H7 C9 1_555 1_555
C10 N2 1_555 1_555
H8 C10 1_555 1_555
C11 N2 1_555 1_555
C12 N1 1_555 1_555
S1C Cd1 1_555 1_555
O3_2 Cd1 1_555 1_555
Cd1C S1 1_555 1_555
Cd1_2 O3 1_555 1_555
C4 C12 1_555 1_555
C7 C11 1_555 1_555
C9 C10 1_555 1_555
C11 C12 1_555 1_555

#END
