
#######################################################################
#
#                 Cambridge Crystallographic Data Centre
#                                CCDC 
#
#######################################################################
#
# If this CIF has been generated from an entry in the Cambridge 
# Structural Database, then it will include bibliographic, chemical, 
# crystal, experimental, refinement or atomic coordinate data resulting 
# from the CCDC's data processing and validation procedures.
#
#######################################################################

data_INIZAG
_symmetry_cell_setting           monoclinic
_symmetry_space_group_name_H-M   'P 21/c'
_symmetry_Int_Tables_number      14
_space_group_name_Hall           '-P 2ybc'
loop_
_symmetry_equiv_pos_site_id
_symmetry_equiv_pos_as_xyz
1 x,y,z
2 x,1/2-y,1/2+z
3 -x,-y,-z
4 -x,1/2+y,1/2-z
_cell_length_a                   10.6661(7)
_cell_length_b                   7.5042(5)
_cell_length_c                   11.1260(8)
_cell_angle_alpha                90
_cell_angle_beta                 109.404(2)
_cell_angle_gamma                90
_cell_volume                     839.948
loop_
_atom_site_label
_atom_site_type_symbol
_atom_site_fract_x
_atom_site_fract_y
_atom_site_fract_z
Pb1 Pb 1.031682(18) 0.02918(3) 0.699144(18)
C1 C 0.6240(5) 0.1435(7) 0.7082(5)
C2 C 0.5292(5) 0.0668(7) 0.7534(5)
H1 H 0.5554 0.0156 0.8361
C3 C 0.3961(5) 0.0655(8) 0.6770(6)
H2 H 0.3316 0.0138 0.7081
C4 C 0.3570(5) 0.1393(7) 0.5557(5)
C5 C 0.4509(5) 0.2214(7) 0.5129(5)
H3 H 0.4237 0.2777 0.4318
C6 C 0.5846(5) 0.2218(7) 0.5879(5)
H4 H 0.6487 0.2754 0.5571
C7 C 0.7671(5) 0.1342(7) 0.7905(5)
O1 O 0.8542(3) 0.1999(5) 0.7482(3)
O2 O 0.7939(4) 0.0603(5) 0.8988(4)
C8 C 0.2154(5) 0.1169(7) 0.4704(5)
O3 O 0.1400(4) 0.0149(5) 0.5068(4)
O4 O 0.1760(3) 0.1879(5) 0.3620(3)
O5 O 1.0015(3) 0.3415(5) 0.6003(3)
H5 H 0.936(3) 0.354(3) 0.5219(15)
H6 H 1.063(3) 0.381(3) 0.568(3)
O1C O 1.1458(3) -0.3001(5) 0.7518(3)
O3_2 O 1.1400(4) 0.0149(5) 0.5068(4)
O3B O 0.8600(4) -0.0149(5) 0.4932(4)
O4B O 0.8240(3) -0.1879(5) 0.6380(3)
O5C O 0.9985(3) -0.1585(5) 0.8997(3)
Pb1C Pb 0.968318(18) 0.52918(3) 0.800856(18)
Pb1_2 Pb 0.031682(18) 0.02918(3) 0.699144(18)
Pb1B Pb -0.031682(18) -0.02918(3) 0.300856(18)
H5C H 1.064(3) -0.146(3) 0.9781(15)
H6C H 0.937(3) -0.119(3) 0.932(3)
loop_
_geom_bond_atom_site_label_1
_geom_bond_atom_site_label_2
_geom_bond_site_symmetry_1
_geom_bond_site_symmetry_2
Pb1 O1 1_555 1_555
C1 C2 1_555 1_555
C2 H1 1_555 1_555
C3 C2 1_555 1_555
H2 C3 1_555 1_555
C4 C3 1_555 1_555
C5 C4 1_555 1_555
H3 C5 1_555 1_555
C6 C1 1_555 1_555
H4 C6 1_555 1_555
C7 C1 1_555 1_555
O1 C7 1_555 1_555
O2 C7 1_555 1_555
C8 C4 1_555 1_555
O3 C8 1_555 1_555
O4 C8 1_555 1_555
O5 Pb1 1_555 1_555
H5 O5 1_555 1_555
H6 O5 1_555 1_555
O1C Pb1 1_555 1_555
O3_2 Pb1 1_555 1_555
O3B Pb1 1_555 1_555
O4B Pb1 1_555 1_555
O5C Pb1 1_555 1_555
Pb1C O1 1_555 1_555
Pb1_2 O3 1_555 1_555
Pb1B O3 1_555 1_555
H5C O5C 1_555 1_555
H6C O5C 1_555 1_555
C5 C6 1_555 1_555
O4 Pb1B 1_555 1_555
O5 Pb1C 1_555 1_555

#END
