
#######################################################################
#
#                 Cambridge Crystallographic Data Centre
#                                CCDC 
#
#######################################################################
#
# If this CIF has been generated from an entry in the Cambridge 
# Structural Database, then it will include bibliographic, chemical, 
# crystal, experimental, refinement or atomic coordinate data resulting 
# from the CCDC's data processing and validation procedures.
#
#######################################################################

data_INIZEL
_symmetry_cell_setting           monoclinic
_symmetry_space_group_name_H-M   'P 21/c'
_symmetry_Int_Tables_number      14
_space_group_name_Hall           '-P 2ybc'
loop_
_symmetry_equiv_pos_site_id
_symmetry_equiv_pos_as_xyz
1 x,y,z
2 -x,1/2+y,1/2-z
3 -x,-y,-z
4 x,1/2-y,1/2+z
_cell_length_a                   12.3246(3)
_cell_length_b                   10.6328(2)
_cell_length_c                   10.9006(2)
_cell_angle_alpha                90
_cell_angle_beta                 93.329(2)
_cell_angle_gamma                90
_cell_volume                     1426.06
loop_
_atom_site_label
_atom_site_type_symbol
_atom_site_fract_x
_atom_site_fract_y
_atom_site_fract_z
O1 O -0.2674(3) 0.7960(3) -1.0917(3)
O2 O -0.0197(3) 0.2212(3) -1.2234(4)
C1 C -0.0484(4) 0.3302(5) -1.2527(5)
C2 C -0.0951(3) 0.4097(5) -1.1535(4)
C3 C -0.0931(4) 0.3732(4) -1.0318(5)
H1 H -0.0650 0.2955 -1.0070
Pb1 Pb -0.133760(14) 0.587490(18) -1.400200(17)
C4 C -0.4282(4) 0.0813(5) -1.4413(5)
H2 H -0.3787 0.1353 -1.4011
O3 O -0.2417(2) 0.7228(3) -1.2795(3)
C5 C -0.3393(4) 0.3923(4) -1.5058(5)
C6 C -0.1808(3) 0.5976(5) -1.1096(4)
O4 O -0.0425(3) 0.3798(3) -1.3572(4)
C7 C -0.1777(4) 0.5682(5) -0.9858(4)
H3 H -0.2047 0.6243 -0.9297
N1 N -0.3035(3) 0.4584(4) -1.4105(4)
C8 C -0.5053(4) 0.2659(5) -1.5702(5)
H4 H -0.4814 0.2734 -1.6531
H5 H -0.5800 0.2947 -1.5710
N2 N -0.1388(3) 0.5188(3) -1.1911(3)
C9 C -0.2334(3) 0.7159(5) -1.1633(5)
C10 C -0.4286(4) -0.0440(5) -1.4103(5)
H6 H -0.3796 -0.0726 -1.3483
N3 N -0.4388(3) 0.3456(4) -1.4896(4)
C11 C -0.1345(4) 0.4562(5) -0.9470(5)
H7 H -0.1325 0.4350 -0.8642
C12 C -0.6159(4) -0.4537(5) -1.6718(5)
H8 H -0.6191 -0.4924 -1.7485
C13 C -0.5321(4) -0.3848(4) -1.6249(5)
H9 H -0.4677 -0.3672 -1.6618
C14 C -0.7199(4) -0.3740(6) -1.3808(5)
H10 H -0.6981 -0.4376 -1.3219
H11 H -0.7033 -0.2924 -1.3470
H12 H -0.7967 -0.3803 -1.4003
C15 C -0.5009(4) 0.1282(4) -1.5320(5)
O1C O -0.2674(3) 0.7040(3) -1.5917(3)
O1A O -0.7326(3) -0.7040(3) -1.4083(3)
O1B O -0.7326(3) -0.7960(3) -1.9083(3)
O2A O 0.0197(3) 0.7212(3) -1.2766(4)
O2C O -1.0197(3) -0.7212(3) -1.7234(4)
O2B O -0.9803(3) -0.2212(3) -1.7766(4)
C1B C -0.9516(4) -0.3302(5) -1.7473(5)
C2B C -0.9049(3) -0.4097(5) -1.8465(4)
C3B C -0.9069(4) -0.3732(4) -1.9682(5)
H1B H -0.9350 -0.2955 -1.9930
Pb1C Pb -0.133760(14) 0.912510(18) -0.900200(17)
Pb1A Pb 0.133760(14) 0.087490(18) -1.099800(17)
Pb1B Pb -0.866240(14) -0.587490(18) -1.599800(17)
Pb1C_2 Pb -1.133760(14) -0.087490(18) -1.900200(17)
Pb1A_2 Pb -0.866240(14) -0.912510(18) -2.099800(17)
C4B C -0.5718(4) -0.0813(5) -1.5587(5)
H2B H -0.6213 -0.1353 -1.5989
O3B O -0.7583(2) -0.7228(3) -1.7205(3)
C5B C -0.6607(4) -0.3923(4) -1.4942(5)
C6B C -0.8192(3) -0.5976(5) -1.8904(4)
O4B O -0.9575(3) -0.3798(3) -1.6428(4)
C7B C -0.8223(4) -0.5682(5) -2.0142(4)
H3B H -0.7953 -0.6243 -2.0703
N1B N -0.6965(3) -0.4584(4) -1.5895(4)
C8B C -0.4947(4) -0.2659(5) -1.4298(5)
H4B H -0.5186 -0.2734 -1.3469
H5B H -0.4200 -0.2947 -1.4290
N2B N -0.8612(3) -0.5188(3) -1.8089(3)
C9B C -0.7666(3) -0.7159(5) -1.8367(5)
C10B C -0.5714(4) 0.0440(5) -1.5897(5)
H6B H -0.6204 0.0726 -1.6517
N3B N -0.5612(3) -0.3456(4) -1.5104(4)
C11B C -0.8655(4) -0.4562(5) -2.0530(5)
H7B H -0.8675 -0.4350 -2.1358
C12B C -0.3841(4) 0.4537(5) -1.3282(5)
H8B H -0.3809 0.4924 -1.2515
C13B C -0.4679(4) 0.3848(4) -1.3751(5)
H9B H -0.5323 0.3672 -1.3382
C14B C -0.2801(4) 0.3740(6) -1.6192(5)
H10B H -0.3019 0.4376 -1.6781
H11B H -0.2967 0.2924 -1.6530
H12B H -0.2033 0.3803 -1.5997
C15B C -0.4991(4) -0.1282(4) -1.4680(5)
loop_
_geom_bond_atom_site_label_1
_geom_bond_atom_site_label_2
_geom_bond_site_symmetry_1
_geom_bond_site_symmetry_2
O1 C9 1_555 1_555
O2 C1 1_555 1_555
C1 C2 1_555 1_555
C2 C3 1_555 1_555
C3 H1 1_555 1_555
Pb1 O3 1_555 1_555
C4 H2 1_555 1_555
O3 C9 1_555 1_555
C5 N1 1_555 1_555
C6 C7 1_555 1_555
O4 C1 1_555 1_555
C7 H3 1_555 1_555
N1 Pb1 1_555 1_555
C8 H4 1_555 1_555
H5 C8 1_555 1_555
N2 C2 1_555 1_555
C9 C6 1_555 1_555
C10 C4 1_555 1_555
H6 C10 1_555 1_555
N3 C5 1_555 1_555
C11 C3 1_555 1_555
H7 C11 1_555 1_555
C12 H8 1_555 1_555
C13 C12 1_555 1_555
H9 C13 1_555 1_555
C14 H10 1_555 1_555
H11 C14 1_555 1_555
H12 C14 1_555 1_555
C15 C4 1_555 1_555
O1C Pb1 1_555 1_555
O1A Pb1B 1_555 1_555
O1B Pb1A_2 1_555 1_555
O2A Pb1 1_555 1_555
O2C Pb1B 1_555 1_555
O2B C1B 1_555 1_555
C1B C2B 1_555 1_555
C2B C3B 1_555 1_555
C3B H1B 1_555 1_555
Pb1C O1 1_555 1_555
Pb1A O2 1_555 1_555
Pb1B O3B 1_555 1_555
Pb1C_2 O2B 1_555 1_555
C4B H2B 1_555 1_555
O3B C9B 1_555 1_555
C5B C14 1_555 1_555
C6B C7B 1_555 1_555
O4B C1B 1_555 1_555
C7B H3B 1_555 1_555
N1B C12 1_555 1_555
C8B H4B 1_555 1_555
H5B C8B 1_555 1_555
N2B C2B 1_555 1_555
C9B O1B 1_555 1_555
C10B C15 1_555 1_555
H6B C10B 1_555 1_555
N3B C13 1_555 1_555
C11B C3B 1_555 1_555
H7B C11B 1_555 1_555
C12B N1 1_555 1_555
H8B C12B 1_555 1_555
C13B N3 1_555 1_555
H9B C13B 1_555 1_555
C14B C5 1_555 1_555
H10B C14B 1_555 1_555
H11B C14B 1_555 1_555
H12B C14B 1_555 1_555
C15B C10 1_555 1_555
Pb1 O4 1_555 1_555
Pb1 N2 1_555 1_555
C6 N2 1_555 1_555
C7 C11 1_555 1_555
C8 N3 1_555 1_555
C8 C15 1_555 1_555
Pb1B O4B 1_555 1_555
Pb1B N1B 1_555 1_555
Pb1B N2B 1_555 1_555
C4B C10B 1_555 1_555
C4B C15B 1_555 1_555
C5B N1B 1_555 1_555
C5B N3B 1_555 1_555
C6B N2B 1_555 1_555
C6B C9B 1_555 1_555
C7B C11B 1_555 1_555
C8B N3B 1_555 1_555
C8B C15B 1_555 1_555
C12B C13B 1_555 1_555

#END
