
#######################################################################
#
#                 Cambridge Crystallographic Data Centre
#                                CCDC 
#
#######################################################################
#
# If this CIF has been generated from an entry in the Cambridge 
# Structural Database, then it will include bibliographic, chemical, 
# crystal, experimental, refinement or atomic coordinate data resulting 
# from the CCDC's data processing and validation procedures.
#
#######################################################################

data_INIZAH
_symmetry_cell_setting           monoclinic
_symmetry_space_group_name_H-M   'P 21/c'
_symmetry_Int_Tables_number      14
_space_group_name_Hall           '-P 2ybc'
loop_
_symmetry_equiv_pos_site_id
_symmetry_equiv_pos_as_xyz
1 x,y,z
2 -x,1/2+y,1/2-z
3 -x,-y,-z
4 x,1/2-y,1/2+z
_cell_length_a                   12.414(3)
_cell_length_b                   7.1056(15)
_cell_length_c                   16.253(4)
_cell_angle_alpha                90
_cell_angle_beta                 99.36(2)
_cell_angle_gamma                90
_cell_volume                     1414.57
loop_
_atom_site_label
_atom_site_type_symbol
_atom_site_fract_x
_atom_site_fract_y
_atom_site_fract_z
Zn1 Zn 0.13707(2) 1.04477(4) 0.254317(19)
O1 O 0.04828(13) 0.9558(3) 0.14901(11)
N1 N -0.12455(15) 0.5665(3) 0.12418(12)
O2 O -0.21576(14) 0.2941(2) 0.19494(12)
O3 O -0.04419(13) 0.8139(2) 0.23677(11)
N2 N 0.26760(15) 1.1770(3) 0.22271(13)
N3 N 0.41718(15) 1.2341(3) 0.17314(13)
O4 O -0.24985(16) 0.1282(3) 0.07635(13)
C1 C -0.16917(18) 0.4308(4) 0.07323(16)
C2 C -0.07749(18) 0.7165(3) 0.09597(16)
C3 C 0.33825(19) 1.1074(3) 0.17775(16)
C4 C -0.0219(2) 0.8394(4) 0.16616(17)
C5 C 0.50548(19) 1.3614(4) 0.06115(17)
C6 C -0.1712(2) 0.4457(4) -0.01176(17)
H1 H -0.2018 0.3511 -0.0476
C7 C 0.3031(2) 1.3557(4) 0.24620(17)
H2 H 0.2687 1.4383 0.2780
C8 C 0.5619(2) 1.5291(4) 0.07712(17)
H3 H 0.6039 1.5491 0.1292
C9 C 0.3949(2) 1.3914(4) 0.21594(17)
H4 H 0.4357 1.5017 0.2227
C10 C 0.5104(2) 1.2152(4) 0.12806(18)
H5 H 0.5095 1.0909 0.1033
H6 H 0.5780 1.2286 0.1670
C11 C -0.2157(2) 0.2672(4) 0.1176(2)
C12 C 0.4432(2) 1.3332(4) -0.01671(18)
H7 H 0.4048 1.2213 -0.0283
C13 C -0.0783(2) 0.7403(4) 0.01160(17)
H8 H -0.0468 0.8459 -0.0086
C14 C -0.1272(2) 0.6025(4) -0.04203(18)
H9 H -0.1302 0.6168 -0.0992
C15 C 0.3306(2) 0.9189(4) 0.13792(19)
H10 H 0.2801 0.8424 0.1620
H11 H 0.4012 0.8603 0.1469
H12 H 0.3056 0.9321 0.0791
Zn1B Zn 0.86293(2) 1.95523(4) -0.254317(19)
Zn1A Zn -0.13707(2) 0.54477(4) 0.245683(19)
Zn1C Zn 1.13707(2) 2.45523(4) -0.245683(19)
O1B O 0.95172(13) 2.0442(3) -0.14901(11)
N1B N 1.12455(15) 2.4335(3) -0.12418(12)
N1A N 0.12455(15) 1.0665(3) 0.37582(12)
N1C N 0.87545(15) 1.9335(3) -0.37582(12)
O2B O 1.21576(14) 2.7059(2) -0.19494(12)
O2A O 0.21576(14) 0.7941(2) 0.30506(12)
O2C O 0.78424(14) 2.2059(2) -0.30506(12)
O3B O 1.04419(13) 2.1861(2) -0.23677(11)
O3A O 0.04419(13) 1.3139(2) 0.26323(11)
O3C O 0.95581(13) 1.6861(2) -0.26323(11)
N2B N 0.73240(15) 1.8230(3) -0.22271(13)
N3B N 0.58282(15) 1.7659(3) -0.17314(13)
O4B O 1.24985(16) 2.8718(3) -0.07635(13)
C1B C 1.16917(18) 2.5692(4) -0.07323(16)
C2B C 1.07749(18) 2.2835(3) -0.09597(16)
C3B C 0.66175(19) 1.8926(3) -0.17775(16)
C4B C 1.0219(2) 2.1606(4) -0.16616(17)
C5B C 0.49452(19) 1.6386(4) -0.06115(17)
C6B C 1.1712(2) 2.5543(4) 0.01176(17)
H1B H 1.2018 2.6489 0.0476
C7B C 0.6969(2) 1.6443(4) -0.24620(17)
H2B H 0.7313 1.5617 -0.2780
C8B C 0.4381(2) 1.4709(4) -0.07712(17)
H3B H 0.3961 1.4509 -0.1292
C9B C 0.6051(2) 1.6086(4) -0.21594(17)
H4B H 0.5643 1.4983 -0.2227
C10B C 0.4896(2) 1.7848(4) -0.12806(18)
H5B H 0.4905 1.9091 -0.1033
H6B H 0.4220 1.7714 -0.1670
C11B C 1.2157(2) 2.7328(4) -0.1176(2)
C12B C 0.5568(2) 1.6668(4) 0.01671(18)
H7B H 0.5952 1.7787 0.0283
C13B C 1.0783(2) 2.2597(4) -0.01160(17)
H8B H 1.0468 2.1541 0.0086
C14B C 1.1272(2) 2.3975(4) 0.04203(18)
H9B H 1.1302 2.3832 0.0992
C15B C 0.6694(2) 2.0811(4) -0.13792(19)
H10B H 0.7199 2.1576 -0.1620
H11B H 0.5988 2.1397 -0.1469
H12B H 0.6944 2.0679 -0.0791
loop_
_geom_bond_atom_site_label_1
_geom_bond_atom_site_label_2
_geom_bond_site_symmetry_1
_geom_bond_site_symmetry_2
Zn1 O1 1_555 1_555
O1 C4 1_555 1_555
N1 C1 1_555 1_555
O2 C11 1_555 1_555
O3 C4 1_555 1_555
N2 Zn1 1_555 1_555
N3 C3 1_555 1_555
O4 C11 1_555 1_555
C1 C6 1_555 1_555
C2 N1 1_555 1_555
C3 N2 1_555 1_555
C4 C2 1_555 1_555
C5 C8 1_555 1_555
C6 H1 1_555 1_555
C7 N2 1_555 1_555
H2 C7 1_555 1_555
C8 H3 1_555 1_555
C9 N3 1_555 1_555
H4 C9 1_555 1_555
C10 N3 1_555 1_555
H5 C10 1_555 1_555
H6 C10 1_555 1_555
C11 C1 1_555 1_555
C12 C5 1_555 1_555
H7 C12 1_555 1_555
C13 C2 1_555 1_555
H8 C13 1_555 1_555
C14 C6 1_555 1_555
H9 C14 1_555 1_555
C15 C3 1_555 1_555
H10 C15 1_555 1_555
H11 C15 1_555 1_555
H12 C15 1_555 1_555
Zn1B O1B 1_555 1_555
Zn1A N1 1_555 1_555
Zn1C N1B 1_555 1_555
O1B C4B 1_555 1_555
N1B C1B 1_555 1_555
N1A Zn1 1_555 1_555
N1C Zn1B 1_555 1_555
O2B Zn1C 1_555 1_555
O2A Zn1 1_555 1_555
O2C Zn1B 1_555 1_555
O3B Zn1C 1_555 1_555
O3A Zn1 1_555 1_555
O3C Zn1B 1_555 1_555
N2B Zn1B 1_555 1_555
N3B C3B 1_555 1_555
O4B C11B 1_555 1_555
C1B C6B 1_555 1_555
C2B N1B 1_555 1_555
C3B N2B 1_555 1_555
C4B O3B 1_555 1_555
C5B C8B 1_555 1_555
C6B H1B 1_555 1_555
C7B N2B 1_555 1_555
H2B C7B 1_555 1_555
C8B C12 1_555 1_555
H3B C8B 1_555 1_555
C9B N3B 1_555 1_555
H4B C9B 1_555 1_555
C10B N3B 1_555 1_555
H5B C10B 1_555 1_555
H6B C10B 1_555 1_555
C11B O2B 1_555 1_555
C12B C8 1_555 1_555
H7B C12B 1_555 1_555
C13B C2B 1_555 1_555
H8B C13B 1_555 1_555
C14B C6B 1_555 1_555
H9B C14B 1_555 1_555
C15B C3B 1_555 1_555
H10B C15B 1_555 1_555
H11B C15B 1_555 1_555
H12B C15B 1_555 1_555
O2 Zn1A 1_555 1_555
O3 Zn1A 1_555 1_555
C5 C10 1_555 1_555
C7 C9 1_555 1_555
C13 C14 1_555 1_555
C1B C11B 1_555 1_555
C2B C4B 1_555 1_555
C5B C10B 1_555 1_555
C5B C12B 1_555 1_555
C7B C9B 1_555 1_555
C13B C14B 1_555 1_555

#END
