
#######################################################################
#
#                 Cambridge Crystallographic Data Centre
#                                CCDC 
#
#######################################################################
#
# If this CIF has been generated from an entry in the Cambridge 
# Structural Database, then it will include bibliographic, chemical, 
# crystal, experimental, refinement or atomic coordinate data resulting 
# from the CCDC's data processing and validation procedures.
#
#######################################################################

data_INIZIP
_symmetry_cell_setting           monoclinic
_symmetry_space_group_name_H-M   'C 2/c'
_symmetry_Int_Tables_number      15
_space_group_name_Hall           '-C 2yn'
loop_
_symmetry_equiv_pos_site_id
_symmetry_equiv_pos_as_xyz
1 x,y,z
2 -x,y,1/2-z
3 1/2+x,1/2+y,z
4 1/2-x,1/2+y,1/2-z
5 -x,-y,-z
6 x,-y,1/2+z
7 1/2-x,1/2-y,-z
8 1/2+x,1/2-y,1/2+z
_cell_length_a                   21.425(3)
_cell_length_b                   10.8880(12)
_cell_length_c                   18.161(2)
_cell_angle_alpha                90
_cell_angle_beta                 108.093(3)
_cell_angle_gamma                90
_cell_volume                     4027.03
loop_
_atom_site_label
_atom_site_type_symbol
_atom_site_fract_x
_atom_site_fract_y
_atom_site_fract_z
Pb1 Pb -1.0000 -0.64331(2) -0.7500
O1 O -0.89279(15) -0.7726(3) -0.73150(18)
O2 O -0.93794(14) -0.7998(3) -0.63950(17)
N1 N -1.08602(17) -0.4837(3) -0.84701(18)
N2 N -0.96307(16) -0.5148(3) -0.85966(18)
N3 N -1.01724(17) -0.1715(3) -1.0468(2)
H1 H -0.9848 -0.1633 -1.0648
N4 N -1.11438(18) -0.1365(3) -1.0282(2)
C1 C -1.1597(3) 0.1560(5) -1.1881(3)
H2 H -1.2007 0.1935 -1.2014
C2 C -1.1466(2) -0.4711(4) -0.8433(2)
H3 H -1.1609 -0.5268 -0.8131
C3 C -1.1902(2) -0.3798(4) -0.8815(3)
H4 H -1.2322 -0.3748 -0.8771
C4 C -1.1693(2) -0.2975(4) -0.9260(2)
H5 H -1.1966 -0.2337 -0.9508
C5 C -1.1068(2) -0.3100(4) -0.9337(2)
C6 C -1.0834(2) -0.2343(4) -0.9834(2)
C7 C -1.0229(2) -0.2565(4) -0.9936(2)
C8 C -0.9795(2) -0.3507(4) -0.9538(2)
C9 C -0.9178(2) -0.3751(4) -0.9618(3)
H6 H -0.9026 -0.3294 -0.9960
C10 C -0.8804(2) -0.4667(4) -0.9189(3)
H7 H -0.8390 -0.4834 -0.9229
C11 C -0.9047(2) -0.5349(4) -0.8692(3)
H8 H -0.8788 -0.5980 -0.8410
C12 C -1.00098(18) -0.4241(4) -0.9018(2)
C13 C -1.0664(2) -0.4052(4) -0.8933(2)
C14 C -1.0729(2) -0.1024(4) -1.0655(2)
C15 C -1.0855(2) 0.0026(4) -1.1197(2)
C16 C -1.1459(3) 0.0592(5) -1.1405(3)
H9 H -1.1782 0.0293 -1.1207
C17 C -1.1133(4) 0.1969(5) -1.2159(3)
H10 H -1.1230 0.2647 -1.2486
N5 N -1.0513(4) 0.1454(4) -1.1993(3)
C18 C -1.0388(3) 0.0470(4) -1.1501(3)
H11 H -0.9978 0.0095 -1.1370
C19 C -0.8946(2) -0.8251(4) -0.6708(3)
C20 C -0.8432(2) -0.9204(5) -0.6333(3)
H12 H -0.8644 -0.9991 -0.6335
H13 H -0.8132 -0.9288 -0.6634
C21 C -0.8046(3) -0.8868(4) -0.5509(3)
H14 H -0.8345 -0.8857 -0.5202
H15 H -0.7725 -0.9509 -0.5300
C22 C -0.7696(2) -0.7663(5) -0.5409(3)
H16 H -0.8019 -0.7021 -0.5609
H17 H -0.7403 -0.7668 -0.5723
Pb1F Pb -0.5000 -0.85669(2) -0.2500
O1F O -0.60721(15) -0.7274(3) -0.26850(18)
O1A O -1.10721(15) -0.7726(3) -0.76850(18)
O2F O -0.56206(14) -0.7002(3) -0.36050(17)
O2A O -1.06206(14) -0.7998(3) -0.86050(17)
N1A N -0.91398(17) -0.4837(3) -0.65299(18)
N2A N -1.03693(16) -0.5148(3) -0.64034(18)
N3A N -0.98276(17) -0.1715(3) -0.4532(2)
H1A H -1.0152 -0.1633 -0.4352
N4A N -0.88562(18) -0.1365(3) -0.4718(2)
C1A C -0.8403(3) 0.1560(5) -0.3119(3)
H2A H -0.7993 0.1935 -0.2986
C2A C -0.8534(2) -0.4711(4) -0.6567(2)
H3A H -0.8391 -0.5268 -0.6869
C3A C -0.8098(2) -0.3798(4) -0.6185(3)
H4A H -0.7678 -0.3748 -0.6229
C4A C -0.8307(2) -0.2975(4) -0.5740(2)
H5A H -0.8034 -0.2337 -0.5492
C5A C -0.8932(2) -0.3100(4) -0.5663(2)
C6A C -0.9166(2) -0.2343(4) -0.5166(2)
C7A C -0.9771(2) -0.2565(4) -0.5064(2)
C8A C -1.0205(2) -0.3507(4) -0.5462(2)
C9A C -1.0822(2) -0.3751(4) -0.5382(3)
H6A H -1.0974 -0.3294 -0.5040
C10A C -1.1196(2) -0.4667(4) -0.5811(3)
H7A H -1.1610 -0.4834 -0.5771
C11A C -1.0953(2) -0.5349(4) -0.6308(3)
H8A H -1.1212 -0.5980 -0.6590
C12A C -0.99902(18) -0.4241(4) -0.5982(2)
C13A C -0.9336(2) -0.4052(4) -0.6067(2)
C14A C -0.9271(2) -0.1024(4) -0.4345(2)
C15A C -0.9145(2) 0.0026(4) -0.3803(2)
C16A C -0.8541(3) 0.0592(5) -0.3595(3)
H9A H -0.8218 0.0293 -0.3793
C17A C -0.8867(4) 0.1969(5) -0.2841(3)
H10A H -0.8770 0.2647 -0.2514
N5A N -0.9487(4) 0.1454(4) -0.3007(3)
C18A C -0.9612(3) 0.0470(4) -0.3499(3)
H11A H -1.0022 0.0095 -0.3630
C19F C -0.6054(2) -0.6749(4) -0.3292(3)
C20F C -0.6568(2) -0.5796(5) -0.3667(3)
H12F H -0.6356 -0.5009 -0.3665
H13F H -0.6868 -0.5712 -0.3366
C21F C -0.6954(3) -0.6132(4) -0.4491(3)
H14F H -0.6655 -0.6143 -0.4798
H15F H -0.7275 -0.5491 -0.4700
C22F C -0.7304(2) -0.7337(5) -0.4591(3)
H16F H -0.6981 -0.7979 -0.4391
H17F H -0.7597 -0.7332 -0.4277
O3 O -0.7887(3) -0.7662(7) -0.7886(3)
loop_
_geom_bond_atom_site_label_1
_geom_bond_atom_site_label_2
_geom_bond_site_symmetry_1
_geom_bond_site_symmetry_2
Pb1 O1 1_555 1_555
O1 C19 1_555 1_555
O2 Pb1 1_555 1_555
N1 Pb1 1_555 1_555
N2 Pb1 1_555 1_555
N3 H1 1_555 1_555
N4 C6 1_555 1_555
C1 H2 1_555 1_555
C2 N1 1_555 1_555
H3 C2 1_555 1_555
C3 C2 1_555 1_555
H4 C3 1_555 1_555
C4 C3 1_555 1_555
H5 C4 1_555 1_555
C5 C4 1_555 1_555
C6 C5 1_555 1_555
C7 N3 1_555 1_555
C8 C7 1_555 1_555
C9 C8 1_555 1_555
H6 C9 1_555 1_555
C10 C9 1_555 1_555
H7 C10 1_555 1_555
C11 N2 1_555 1_555
H8 C11 1_555 1_555
C12 N2 1_555 1_555
C13 N1 1_555 1_555
C14 N3 1_555 1_555
C15 C14 1_555 1_555
C16 C1 1_555 1_555
H9 C16 1_555 1_555
C17 C1 1_555 1_555
H10 C17 1_555 1_555
N5 C17 1_555 1_555
C18 C15 1_555 1_555
H11 C18 1_555 1_555
C19 O2 1_555 1_555
C20 C19 1_555 1_555
H12 C20 1_555 1_555
H13 C20 1_555 1_555
C21 C20 1_555 1_555
H14 C21 1_555 1_555
H15 C21 1_555 1_555
C22 C21 1_555 1_555
H16 C22 1_555 1_555
H17 C22 1_555 1_555
Pb1F O1F 1_555 1_555
O1F C19F 1_555 1_555
O1A Pb1 1_555 1_555
O2F Pb1F 1_555 1_555
O2A Pb1 1_555 1_555
N1A Pb1 1_555 1_555
N2A Pb1 1_555 1_555
N3A H1A 1_555 1_555
N4A C6A 1_555 1_555
C1A H2A 1_555 1_555
C2A N1A 1_555 1_555
H3A C2A 1_555 1_555
C3A C2A 1_555 1_555
H4A C3A 1_555 1_555
C4A C3A 1_555 1_555
H5A C4A 1_555 1_555
C5A C4A 1_555 1_555
C6A C5A 1_555 1_555
C7A N3A 1_555 1_555
C8A C7A 1_555 1_555
C9A C8A 1_555 1_555
H6A C9A 1_555 1_555
C10A C9A 1_555 1_555
H7A C10A 1_555 1_555
C11A N2A 1_555 1_555
H8A C11A 1_555 1_555
C12A N2A 1_555 1_555
C13A N1A 1_555 1_555
C14A N3A 1_555 1_555
C15A C14A 1_555 1_555
C16A C1A 1_555 1_555
H9A C16A 1_555 1_555
C17A C1A 1_555 1_555
H10A C17A 1_555 1_555
N5A C17A 1_555 1_555
C18A C15A 1_555 1_555
H11A C18A 1_555 1_555
C19F O2F 1_555 1_555
C20F C19F 1_555 1_555
H12F C20F 1_555 1_555
H13F C20F 1_555 1_555
C21F C20F 1_555 1_555
H14F C21F 1_555 1_555
H15F C21F 1_555 1_555
C22F C22 1_555 1_555
H16F C22F 1_555 1_555
H17F C22F 1_555 1_555
N4 C14 1_555 1_555
C5 C13 1_555 1_555
C6 C7 1_555 1_555
C8 C12 1_555 1_555
C10 C11 1_555 1_555
C12 C13 1_555 1_555
C15 C16 1_555 1_555
N5 C18 1_555 1_555
N4A C14A 1_555 1_555
C5A C13A 1_555 1_555
C6A C7A 1_555 1_555
C8A C12A 1_555 1_555
C10A C11A 1_555 1_555
C12A C13A 1_555 1_555
C15A C16A 1_555 1_555
N5A C18A 1_555 1_555
C21F C22F 1_555 1_555

#END
