
#######################################################################
#
#                 Cambridge Crystallographic Data Centre
#                                CCDC 
#
#######################################################################
#
# If this CIF has been generated from an entry in the Cambridge 
# Structural Database, then it will include bibliographic, chemical, 
# crystal, experimental, refinement or atomic coordinate data resulting 
# from the CCDC's data processing and validation procedures.
#
#######################################################################

data_INOBAO02
_symmetry_cell_setting           monoclinic
_symmetry_space_group_name_H-M   'P 21/c'
_symmetry_Int_Tables_number      14
_space_group_name_Hall           '-P 2ybc'
loop_
_symmetry_equiv_pos_site_id
_symmetry_equiv_pos_as_xyz
1 x,y,z
2 -x,1/2+y,1/2-z
3 -x,-y,-z
4 x,1/2-y,1/2+z
_cell_length_a                   11.107(5)
_cell_length_b                   15.504(3)
_cell_length_c                   14.509(3)
_cell_angle_alpha                90
_cell_angle_beta                 104.81(3)
_cell_angle_gamma                90
_cell_volume                     2415.49
loop_
_atom_site_label
_atom_site_type_symbol
_atom_site_fract_x
_atom_site_fract_y
_atom_site_fract_z
Cu1 Cu 0.36478(5) 0.83296(4) 0.86419(4)
O1 O 0.3282(3) 0.93552(19) 0.7776(2)
O2 O 0.2937(3) 0.8173(2) 0.6903(2)
O6 O 0.3958(3) 0.8989(2) 1.0107(2)
N1 N 0.1824(3) 0.8311(3) 0.8646(2)
N2 N -0.4558(3) 0.8396(3) 0.8571(3)
N3 N 0.4005(3) 0.7099(2) 0.9160(3)
N4 N 0.0961(5) 1.0965(3) 0.3637(3)
H1 H 0.1097 1.1511 0.3635
H2 H 0.0548 1.0714 0.3125
C1 C -0.0716(4) 0.8394(3) 0.8578(3)
C2 C -0.0139(4) 0.7631(3) 0.8456(3)
H3 H -0.0595 0.7121 0.8359
C3 C 0.1105(4) 0.7619(3) 0.8477(3)
H4 H 0.1459 0.7098 0.8368
C4 C 0.1288(4) 0.9059(3) 0.8774(3)
H5 H 0.1775 0.9555 0.8880
C5 C 0.0026(5) 0.9128(3) 0.8757(3)
H6 H -0.0311 0.9656 0.8864
C6 C -0.2053(4) 0.8422(3) 0.8568(3)
C7 C -0.2881(4) 0.7833(3) 0.8026(3)
H7 H -0.2604 0.7436 0.7646
C8 C -0.4106(4) 0.7836(3) 0.8050(3)
H8 H -0.4643 0.7432 0.7688
C9 C -0.3776(4) 0.8993(3) 0.9072(3)
H9 H -0.4085 0.9393 0.9431
C10 C -0.2551(4) 0.9034(3) 0.9071(3)
H10 H -0.2047 0.9469 0.9406
C11 C 0.4782(4) 0.5443(3) 0.9820(3)
C12 C 0.5003(5) 0.6155(3) 1.0401(3)
H11 H 0.5431 0.6092 1.1038
C13 C 0.4605(5) 0.6951(3) 1.0061(3)
H12 H 0.4761 0.7415 1.0481
C14 C 0.3771(5) 0.6414(3) 0.8598(4)
H13 H 0.3331 0.6494 0.7967
C15 C 0.4140(5) 0.5591(3) 0.8892(3)
H14 H 0.3956 0.5135 0.8462
C16 C 0.2884(4) 0.8976(3) 0.6960(3)
C17 C 0.2366(4) 0.9511(3) 0.6111(3)
C18 C 0.2534(5) 1.0399(3) 0.6107(3)
H15 H 0.2967 1.0671 0.6665
C19 C 0.2075(5) 1.0891(3) 0.5298(3)
H16 H 0.2210 1.1483 0.5306
C20 C 0.1411(5) 1.0485(4) 0.4475(4)
C21 C 0.1199(5) 0.9603(4) 0.4459(4)
H17 H 0.0734 0.9337 0.3907
C22 C 0.1685(5) 0.9126(3) 0.5266(3)
H18 H 0.1559 0.8533 0.5250
Cu1B Cu 0.63522(5) 0.16704(4) 1.13581(4)
Cu1_2 Cu -0.63522(5) 0.83296(4) 0.86419(4)
Cu1B_2 Cu 1.63522(5) 0.16704(4) 1.13581(4)
O1B O 0.6718(3) 0.06448(19) 1.2224(2)
O2B O 0.7063(3) 0.1827(2) 1.3097(2)
O6B O 0.6042(3) 0.1011(2) 0.9893(2)
N1B N 0.8176(3) 0.1689(3) 1.1354(2)
N2B N 1.4558(3) 0.1604(3) 1.1429(3)
N2_2 N 0.5442(3) 0.8396(3) 0.8571(3)
N2B_2 N 0.4558(3) 0.1604(3) 1.1429(3)
N3B N 0.5995(3) 0.2901(2) 1.0840(3)
N4B N 0.9039(5) -0.0965(3) 1.6363(3)
H1B H 0.8903 -0.1511 1.6365
H2B H 0.9452 -0.0714 1.6875
C1B C 1.0716(4) 0.1606(3) 1.1422(3)
C2B C 1.0139(4) 0.2369(3) 1.1544(3)
H3B H 1.0595 0.2879 1.1641
C3B C 0.8895(4) 0.2381(3) 1.1523(3)
H4B H 0.8541 0.2902 1.1632
C4B C 0.8712(4) 0.0941(3) 1.1226(3)
H5B H 0.8225 0.0445 1.1120
C5B C 0.9974(5) 0.0872(3) 1.1243(3)
H6B H 1.0311 0.0344 1.1136
C6B C 1.2053(4) 0.1578(3) 1.1432(3)
C7B C 1.2881(4) 0.2167(3) 1.1974(3)
H7B H 1.2604 0.2564 1.2354
C8B C 1.4106(4) 0.2164(3) 1.1950(3)
H8B H 1.4643 0.2568 1.2312
C9B C 1.3776(4) 0.1007(3) 1.0928(3)
H9B H 1.4085 0.0607 1.0569
C10B C 1.2551(4) 0.0966(3) 1.0929(3)
H10B H 1.2047 0.0531 1.0594
C11B C 0.5218(4) 0.4557(3) 1.0180(3)
C12B C 0.4997(5) 0.3845(3) 0.9599(3)
H11B H 0.4569 0.3908 0.8962
C13B C 0.5395(5) 0.3049(3) 0.9939(3)
H12B H 0.5239 0.2585 0.9519
C14B C 0.6229(5) 0.3586(3) 1.1402(4)
H13B H 0.6669 0.3506 1.2033
C15B C 0.5860(5) 0.4409(3) 1.1108(3)
H14B H 0.6044 0.4865 1.1538
C16B C 0.7116(4) 0.1024(3) 1.3040(3)
C17B C 0.7634(4) 0.0489(3) 1.3889(3)
C18B C 0.7466(5) -0.0399(3) 1.3893(3)
H15B H 0.7033 -0.0671 1.3335
C19B C 0.7925(5) -0.0891(3) 1.4702(3)
H16B H 0.7790 -0.1483 1.4694
C20B C 0.8589(5) -0.0485(4) 1.5525(4)
C21B C 0.8801(5) 0.0397(4) 1.5541(4)
H17B H 0.9266 0.0663 1.6093
C22B C 0.8315(5) 0.0874(3) 1.4734(3)
H18B H 0.8441 0.1467 1.4750
O3 O -0.0650(9) 0.8964(4) 1.1592(7)
O4 O -0.0233(6) 0.7922(5) 1.0881(4)
O5 O -0.1938(5) 0.7954(4) 1.1175(4)
N5 N -0.0959(6) 0.8316(6) 1.1227(5)
O7 O 0.2310(3) 0.6598(3) 0.6100(2)
O8 O 0.6138(3) 0.8999(2) 1.1472(2)
loop_
_geom_bond_atom_site_label_1
_geom_bond_atom_site_label_2
_geom_bond_site_symmetry_1
_geom_bond_site_symmetry_2
Cu1 O1 1_555 1_555
O1 C16 1_555 1_555
O2 Cu1 1_555 1_555
O3 N5 1_555 1_555
O4 N5 1_555 1_555
O5 N5 1_555 1_555
O6 Cu1 1_555 1_555
N1 Cu1 1_555 1_555
N2 C8 1_555 1_555
N3 Cu1 1_555 1_555
N4 H1 1_555 1_555
H2 N4 1_555 1_555
C1 C2 1_555 1_555
C2 H3 1_555 1_555
C3 N1 1_555 1_555
H4 C3 1_555 1_555
C4 N1 1_555 1_555
H5 C4 1_555 1_555
C5 C1 1_555 1_555
H6 C5 1_555 1_555
C6 C1 1_555 1_555
C7 C6 1_555 1_555
H7 C7 1_555 1_555
C8 C7 1_555 1_555
H8 C8 1_555 1_555
C9 N2 1_555 1_555
H9 C9 1_555 1_555
C10 C6 1_555 1_555
H10 C10 1_555 1_555
C11 C12 1_555 1_555
C12 H11 1_555 1_555
C13 N3 1_555 1_555
H12 C13 1_555 1_555
C14 N3 1_555 1_555
H13 C14 1_555 1_555
C15 C11 1_555 1_555
H14 C15 1_555 1_555
C16 O2 1_555 1_555
C17 C16 1_555 1_555
C18 C17 1_555 1_555
H15 C18 1_555 1_555
C19 C18 1_555 1_555
H16 C19 1_555 1_555
C20 N4 1_555 1_555
C21 C20 1_555 1_555
H17 C21 1_555 1_555
C22 C17 1_555 1_555
H18 C22 1_555 1_555
Cu1B O1B 1_555 1_555
Cu1_2 N2 1_555 1_555
Cu1B_2 N2B 1_555 1_555
O1B C16B 1_555 1_555
O2B Cu1B 1_555 1_555
O6B Cu1B 1_555 1_555
N1B Cu1B 1_555 1_555
N2B C8B 1_555 1_555
N2_2 Cu1 1_555 1_555
N2B_2 Cu1B 1_555 1_555
N3B Cu1B 1_555 1_555
N4B H1B 1_555 1_555
H2B N4B 1_555 1_555
C1B C2B 1_555 1_555
C2B H3B 1_555 1_555
C3B N1B 1_555 1_555
H4B C3B 1_555 1_555
C4B N1B 1_555 1_555
H5B C4B 1_555 1_555
C5B C1B 1_555 1_555
H6B C5B 1_555 1_555
C6B C1B 1_555 1_555
C7B C6B 1_555 1_555
H7B C7B 1_555 1_555
C8B C7B 1_555 1_555
H8B C8B 1_555 1_555
C9B N2B 1_555 1_555
H9B C9B 1_555 1_555
C10B C6B 1_555 1_555
H10B C10B 1_555 1_555
C11B C11 1_555 1_555
C12B C11B 1_555 1_555
H11B C12B 1_555 1_555
C13B N3B 1_555 1_555
H12B C13B 1_555 1_555
C14B N3B 1_555 1_555
H13B C14B 1_555 1_555
C15B C11B 1_555 1_555
H14B C15B 1_555 1_555
C16B O2B 1_555 1_555
C17B C16B 1_555 1_555
C18B C17B 1_555 1_555
H15B C18B 1_555 1_555
C19B C18B 1_555 1_555
H16B C19B 1_555 1_555
C20B N4B 1_555 1_555
C21B C20B 1_555 1_555
H17B C21B 1_555 1_555
C22B C17B 1_555 1_555
H18B C22B 1_555 1_555
C2 C3 1_555 1_555
C4 C5 1_555 1_555
C9 C10 1_555 1_555
C12 C13 1_555 1_555
C14 C15 1_555 1_555
C19 C20 1_555 1_555
C21 C22 1_555 1_555
C2B C3B 1_555 1_555
C4B C5B 1_555 1_555
C9B C10B 1_555 1_555
C12B C13B 1_555 1_555
C14B C15B 1_555 1_555
C19B C20B 1_555 1_555
C21B C22B 1_555 1_555

#END
