
#######################################################################
#
#                 Cambridge Crystallographic Data Centre
#                                CCDC 
#
#######################################################################
#
# If this CIF has been generated from an entry in the Cambridge 
# Structural Database, then it will include bibliographic, chemical, 
# crystal, experimental, refinement or atomic coordinate data resulting 
# from the CCDC's data processing and validation procedures.
#
#######################################################################

data_INOBIW
_symmetry_cell_setting           tetragonal
_symmetry_space_group_name_H-M   'P 43 21 2'
_symmetry_Int_Tables_number      96
_space_group_name_Hall           'P 4nw 2abw'
loop_
_symmetry_equiv_pos_site_id
_symmetry_equiv_pos_as_xyz
1 x,y,z
2 -x,-y,1/2+z
3 1/2-y,1/2+x,3/4+z
4 1/2+y,1/2-x,1/4+z
5 1/2-x,1/2+y,3/4-z
6 1/2+x,1/2-y,1/4-z
7 y,x,-z
8 -y,-x,1/2-z
_cell_length_a                   8.0612(4)
_cell_length_b                   8.0612(4)
_cell_length_c                   36.648(3)
_cell_angle_alpha                90
_cell_angle_beta                 90
_cell_angle_gamma                90
_cell_volume                     2381.49
loop_
_atom_site_label
_atom_site_type_symbol
_atom_site_fract_x
_atom_site_fract_y
_atom_site_fract_z
Zn1 Zn 0.92847(5) 0.07153(5) 0.7500
O1 O 1.0488(4) 0.1809(3) 0.70550(7)
O2 O 0.7958(3) -0.0736(3) 0.71330(7)
C1 C 1.1637(7) 0.2118(8) 0.64819(15)
C2 C 1.0437(5) 0.1259(5) 0.67388(12)
C3 C 0.9487(5) -0.0020(6) 0.66037(12)
H1 H 0.9636 -0.0330 0.6353
C4 C 0.8331(5) -0.0885(5) 0.68078(13)
C5 C 0.7398(8) -0.2275(8) 0.66157(17)
F1 F 1.3180(4) 0.1609(7) 0.65587(12)
F2 F 1.1636(7) 0.3700(5) 0.65229(12)
F3 F 1.1435(5) 0.1754(5) 0.61356(8)
F4 F 0.7785(10) -0.3696(6) 0.67550(16)
F5 F 0.7612(7) -0.2409(7) 0.62685(10)
F6 F 0.5842(5) -0.2213(8) 0.66705(15)
N1 N 0.7406(3) 0.2594(3) 0.7500
N2 N 0.1206(4) 0.8794(4) 0.7500
C6 C 0.6038(6) 0.2450(6) 0.73051(13)
H2 H 0.5904 0.1480 0.7156
C7 C 0.4784(6) 0.3626(6) 0.73037(14)
H3 H 0.3794 0.3439 0.7164
C8 C 0.4960(4) 0.5040(4) 0.7500
C9 C 0.3643(4) 0.6357(4) 0.7500
C10 C 0.1986(5) 0.5964(4) 0.74720(14)
H4 H 0.1646 0.4826 0.7453
C11 C 0.0835(5) 0.7190(5) 0.74708(14)
H5 H -0.0312 0.6885 0.7448
C7G C 0.6374(6) 0.5216(6) 0.76963(14)
C6G C 0.7550(6) 0.3962(6) 0.76949(13)
H2G H 0.8520 0.4096 0.7844
H3G H 0.6561 0.6206 0.7836
C11G C 0.2810(5) 0.9165(5) 0.75292(14)
C10G C 0.4036(4) 0.8014(5) 0.75280(14)
H4G H 0.5174 0.8354 0.7547
H5G H 0.3115 1.0312 0.7552
O1G O 0.8191(3) -0.0488(4) 0.79450(7)
O2G O 1.0736(3) 0.2042(3) 0.78670(7)
C1G C 0.7882(8) -0.1637(7) 0.85181(15)
C2G C 0.8741(5) -0.0437(5) 0.82612(12)
C3G C 1.0020(6) 0.0513(5) 0.83963(12)
H1G H 1.0330 0.0364 0.8647
C4G C 1.0885(5) 0.1669(5) 0.81922(13)
C5G C 1.2275(8) 0.2602(8) 0.83843(17)
F1G F 0.8391(7) -0.3180(4) 0.84413(12)
F2G F 0.6300(5) -0.1636(7) 0.84771(12)
F3G F 0.8246(5) -0.1435(5) 0.88644(8)
F4G F 1.3696(6) 0.2215(10) 0.82450(16)
F5G F 1.2409(7) 0.2388(7) 0.87315(10)
F6G F 1.2213(8) 0.4158(5) 0.83295(15)
N2_2 N 1.1206(4) -0.1206(4) 0.7500
Zn1_2 Zn -0.07153(5) 1.07153(5) 0.7500
loop_
_geom_bond_atom_site_label_1
_geom_bond_atom_site_label_2
_geom_bond_site_symmetry_1
_geom_bond_site_symmetry_2
Zn1 O1 1_555 1_555
O1 C2 1_555 1_555
O2 Zn1 1_555 1_555
C1 C2 1_555 1_555
C2 C3 1_555 1_555
C3 H1 1_555 1_555
C4 O2 1_555 1_555
C5 C4 1_555 1_555
F1 C1 1_555 1_555
F2 C1 1_555 1_555
F3 C1 1_555 1_555
F4 C5 1_555 1_555
F5 C5 1_555 1_555
F6 C5 1_555 1_555
N1 Zn1 1_555 1_555
N2 C11 1_555 1_555
C6 N1 1_555 1_555
H2 C6 1_555 1_555
C7 C6 1_555 1_555
H3 C7 1_555 1_555
C8 C7 1_555 1_555
C9 C8 1_555 1_555
C10 C9 1_555 1_555
H4 C10 1_555 1_555
C11 C10 1_555 1_555
H5 C11 1_555 1_555
C7G C8 1_555 1_555
C6G N1 1_555 1_555
H2G C6G 1_555 1_555
H3G C7G 1_555 1_555
C11G N2 1_555 1_555
C10G C9 1_555 1_555
H4G C10G 1_555 1_555
H5G C11G 1_555 1_555
O1G Zn1 1_555 1_555
O2G Zn1 1_555 1_555
C1G C2G 1_555 1_555
C2G O1G 1_555 1_555
C3G C2G 1_555 1_555
H1G C3G 1_555 1_555
C4G O2G 1_555 1_555
C5G C4G 1_555 1_555
F1G C1G 1_555 1_555
F2G C1G 1_555 1_555
F3G C1G 1_555 1_555
F4G C5G 1_555 1_555
F5G C5G 1_555 1_555
F6G C5G 1_555 1_555
N2_2 Zn1 1_555 1_555
Zn1_2 N2 1_555 1_555
C3 C4 1_555 1_555
C7G C6G 1_555 1_555
C11G C10G 1_555 1_555
C3G C4G 1_555 1_555

#END
