
#######################################################################
#
#                 Cambridge Crystallographic Data Centre
#                                CCDC 
#
#######################################################################
#
# If this CIF has been generated from an entry in the Cambridge 
# Structural Database, then it will include bibliographic, chemical, 
# crystal, experimental, refinement or atomic coordinate data resulting 
# from the CCDC's data processing and validation procedures.
#
#######################################################################

data_INOBAO01
_symmetry_cell_setting           monoclinic
_symmetry_space_group_name_H-M   'P 21/c'
_symmetry_Int_Tables_number      14
_space_group_name_Hall           '-P 2ybc'
loop_
_symmetry_equiv_pos_site_id
_symmetry_equiv_pos_as_xyz
1 x,y,z
2 -x,1/2+y,1/2-z
3 -x,-y,-z
4 x,1/2-y,1/2+z
_cell_length_a                   11.09900(10)
_cell_length_b                   15.49630(10)
_cell_length_c                   14.4946(2)
_cell_angle_alpha                90
_cell_angle_beta                 104.7310(10)
_cell_angle_gamma                90
_cell_volume                     2411.03
loop_
_atom_site_label
_atom_site_type_symbol
_atom_site_fract_x
_atom_site_fract_y
_atom_site_fract_z
Cu1 Cu 0.36495(4) 0.83289(3) 0.86421(3)
N2 N 0.1826(3) 0.83168(18) 0.8644(2)
N3 N -0.4559(3) 0.83956(19) 0.8577(2)
N4 N 0.4003(3) 0.71001(19) 0.9161(2)
N5 N 0.0951(5) 1.0957(3) 0.3641(3)
H1 H 0.0552 1.0702 0.3127
H2 H 0.1072 1.1505 0.3641
O4 O 0.3279(2) 0.93560(16) 0.77682(17)
O5 O 0.2936(3) 0.81768(17) 0.6904(2)
O6 O 0.3959(2) 0.89934(17) 1.00947(18)
C1 C 0.1106(3) 0.7616(2) 0.8480(3)
H3 H 0.1467 0.7094 0.8381
C2 C -0.0147(3) 0.7625(2) 0.8449(3)
H4 H -0.0612 0.7120 0.8331
C3 C -0.0706(3) 0.8394(2) 0.8597(2)
C4 C -0.2051(3) 0.8423(2) 0.8563(2)
C5 C -0.2873(3) 0.7830(3) 0.8027(3)
H5 H -0.2595 0.7428 0.7652
C6 C -0.4101(3) 0.7839(3) 0.8052(3)
H6 H -0.4640 0.7438 0.7685
C7 C -0.3785(3) 0.8994(2) 0.9059(3)
H7 H -0.4098 0.9405 0.9405
C8 C -0.2543(3) 0.9029(2) 0.9065(3)
H8 H -0.2036 0.9460 0.9407
C9 C 0.0038(3) 0.9120(2) 0.8763(3)
H9 H -0.0301 0.9650 0.8864
C10 C 0.1275(3) 0.9060(2) 0.8779(3)
H10 H 0.1757 0.9559 0.8889
C11 C 0.4619(4) 0.6960(3) 1.0059(3)
H11 H 0.4791 0.7427 1.0474
C12 C 0.5014(4) 0.6154(3) 1.0406(3)
H12 H 0.5443 0.6092 1.1043
C13 C 0.4785(3) 0.5442(2) 0.9824(3)
C14 C 0.4133(4) 0.5593(2) 0.8894(3)
H13 H 0.3934 0.5134 0.8469
C15 C 0.3776(4) 0.6414(3) 0.8589(3)
H14 H 0.3356 0.6495 0.7953
C16 C 0.2886(3) 0.8979(3) 0.6957(3)
C17 C 0.2363(3) 0.9515(2) 0.6106(3)
C18 C 0.2538(4) 1.0403(3) 0.6103(3)
H15 H 0.2975 1.0677 0.6657
C19 C 0.2074(4) 1.0881(3) 0.5293(3)
H16 H 0.2216 1.1473 0.5302
C20 C 0.1394(4) 1.0489(3) 0.4461(3)
C21 C 0.1202(4) 0.9605(3) 0.4466(3)
H17 H 0.0744 0.9334 0.3916
C22 C 0.1680(4) 0.9125(3) 0.5272(3)
H18 H 0.1546 0.8532 0.5260
Cu1_2 Cu 1.36495(4) 0.83289(3) 0.86421(3)
Cu1_3 Cu -0.63505(4) 0.83289(3) 0.86421(3)
Cu1B Cu 0.63505(4) 0.16711(3) 1.13579(3)
N2_2 N 1.1826(3) 0.83168(18) 0.8644(2)
N3_2 N 0.5441(3) 0.83956(19) 0.8577(2)
N3_3 N 1.5441(3) 0.83956(19) 0.8577(2)
N4B N 0.5997(3) 0.28999(19) 1.0839(2)
N4_2 N 1.4003(3) 0.71001(19) 0.9161(2)
N5_2 N 1.0951(5) 1.0957(3) 0.3641(3)
H1_2 H 1.0552 1.0702 0.3127
H2_2 H 1.1072 1.1505 0.3641
O4_2 O 1.3279(2) 0.93560(16) 0.77682(17)
O5_2 O 1.2936(3) 0.81768(17) 0.6904(2)
O6_2 O 1.3959(2) 0.89934(17) 1.00947(18)
C1_2 C 1.1106(3) 0.7616(2) 0.8480(3)
H3_2 H 1.1467 0.7094 0.8381
C2_2 C 0.9853(3) 0.7625(2) 0.8449(3)
H4_2 H 0.9388 0.7120 0.8331
C3_2 C 0.9294(3) 0.8394(2) 0.8597(2)
C4_2 C 0.7949(3) 0.8423(2) 0.8563(2)
C5_2 C 0.7127(3) 0.7830(3) 0.8027(3)
H5_2 H 0.7405 0.7428 0.7652
C6_2 C 0.5899(3) 0.7839(3) 0.8052(3)
H6_2 H 0.5360 0.7438 0.7685
C7_2 C 0.6215(3) 0.8994(2) 0.9059(3)
H7_2 H 0.5902 0.9405 0.9405
C8_2 C 0.7457(3) 0.9029(2) 0.9065(3)
H8_2 H 0.7964 0.9460 0.9407
C9_2 C 1.0038(3) 0.9120(2) 0.8763(3)
H9_2 H 0.9699 0.9650 0.8864
C10_2 C 1.1275(3) 0.9060(2) 0.8779(3)
H10_2 H 1.1757 0.9559 0.8889
C11B C 0.5381(4) 0.3040(3) 0.9941(3)
H11B H 0.5209 0.2573 0.9526
C12B C 0.4986(4) 0.3846(3) 0.9594(3)
H12B H 0.4557 0.3908 0.8957
C13B C 0.5215(3) 0.4558(2) 1.0176(3)
C14B C 0.5867(4) 0.4407(2) 1.1106(3)
H13B H 0.6066 0.4866 1.1531
C15B C 0.6224(4) 0.3586(3) 1.1411(3)
H14B H 0.6644 0.3505 1.2047
C16_2 C 1.2886(3) 0.8979(3) 0.6957(3)
C17_2 C 1.2363(3) 0.9515(2) 0.6106(3)
C18_2 C 1.2538(4) 1.0403(3) 0.6103(3)
H15_2 H 1.2975 1.0677 0.6657
C19_2 C 1.2074(4) 1.0881(3) 0.5293(3)
H16_2 H 1.2216 1.1473 0.5302
C20_2 C 1.1394(4) 1.0489(3) 0.4461(3)
C21_2 C 1.1202(4) 0.9605(3) 0.4466(3)
H17_2 H 1.0744 0.9334 0.3916
C22_2 C 1.1680(4) 0.9125(3) 0.5272(3)
H18_2 H 1.1546 0.8532 0.5260
N1 N 0.0948(6) 1.1695(5) 0.8780(5)
O1 O 0.0678(8) 1.1048(4) 0.8423(8)
O2 O 0.0234(5) 1.2113(5) 0.9135(5)
O3 O 0.1947(5) 1.2058(3) 0.8839(4)
O7 O 0.3867(3) 1.1002(2) 0.8532(2)
O8 O 0.2312(3) 0.6597(2) 0.6102(3)
loop_
_geom_bond_atom_site_label_1
_geom_bond_atom_site_label_2
_geom_bond_site_symmetry_1
_geom_bond_site_symmetry_2
Cu1 N2 1_555 1_555
N1 O1 1_555 1_555
N2 C1 1_555 1_555
N3 C6 1_555 1_555
N4 Cu1 1_555 1_555
N5 H1 1_555 1_555
H2 N5 1_555 1_555
O2 N1 1_555 1_555
O3 N1 1_555 1_555
O4 Cu1 1_555 1_555
O5 Cu1 1_555 1_555
O6 Cu1 1_555 1_555
C1 H3 1_555 1_555
C2 C1 1_555 1_555
H4 C2 1_555 1_555
C3 C2 1_555 1_555
C4 C3 1_555 1_555
C5 C4 1_555 1_555
H5 C5 1_555 1_555
C6 C5 1_555 1_555
H6 C6 1_555 1_555
C7 N3 1_555 1_555
H7 C7 1_555 1_555
C8 C4 1_555 1_555
H8 C8 1_555 1_555
C9 C3 1_555 1_555
H9 C9 1_555 1_555
C10 N2 1_555 1_555
H10 C10 1_555 1_555
C11 N4 1_555 1_555
H11 C11 1_555 1_555
C12 C11 1_555 1_555
H12 C12 1_555 1_555
C13 C12 1_555 1_555
C14 C13 1_555 1_555
H13 C14 1_555 1_555
C15 N4 1_555 1_555
H14 C15 1_555 1_555
C16 O4 1_555 1_555
C17 C16 1_555 1_555
C18 C17 1_555 1_555
H15 C18 1_555 1_555
C19 C18 1_555 1_555
H16 C19 1_555 1_555
C20 N5 1_555 1_555
C21 C20 1_555 1_555
H17 C21 1_555 1_555
C22 C17 1_555 1_555
H18 C22 1_555 1_555
Cu1_2 N2_2 1_555 1_555
Cu1_3 N3 1_555 1_555
Cu1B N4B 1_555 1_555
N2_2 C1_2 1_555 1_555
N3_2 Cu1 1_555 1_555
N3_3 Cu1_2 1_555 1_555
N4B C11B 1_555 1_555
N4_2 Cu1_2 1_555 1_555
N5_2 H1_2 1_555 1_555
H2_2 N5_2 1_555 1_555
O4_2 Cu1_2 1_555 1_555
O5_2 Cu1_2 1_555 1_555
O6_2 Cu1_2 1_555 1_555
C1_2 H3_2 1_555 1_555
C2_2 C1_2 1_555 1_555
H4_2 C2_2 1_555 1_555
C3_2 C2_2 1_555 1_555
C4_2 C3_2 1_555 1_555
C5_2 C4_2 1_555 1_555
H5_2 C5_2 1_555 1_555
C6_2 N3_2 1_555 1_555
H6_2 C6_2 1_555 1_555
C7_2 N3_2 1_555 1_555
H7_2 C7_2 1_555 1_555
C8_2 C4_2 1_555 1_555
H8_2 C8_2 1_555 1_555
C9_2 C3_2 1_555 1_555
H9_2 C9_2 1_555 1_555
C10_2 N2_2 1_555 1_555
H10_2 C10_2 1_555 1_555
C11B H11B 1_555 1_555
C12B C11B 1_555 1_555
H12B C12B 1_555 1_555
C13B C13 1_555 1_555
C14B C13B 1_555 1_555
H13B C14B 1_555 1_555
C15B N4B 1_555 1_555
H14B C15B 1_555 1_555
C16_2 O4_2 1_555 1_555
C17_2 C16_2 1_555 1_555
C18_2 C17_2 1_555 1_555
H15_2 C18_2 1_555 1_555
C19_2 C18_2 1_555 1_555
H16_2 C19_2 1_555 1_555
C20_2 N5_2 1_555 1_555
C21_2 C20_2 1_555 1_555
H17_2 C21_2 1_555 1_555
C22_2 C17_2 1_555 1_555
H18_2 C22_2 1_555 1_555
O5 C16 1_555 1_555
C7 C8 1_555 1_555
C9 C10 1_555 1_555
C14 C15 1_555 1_555
C19 C20 1_555 1_555
C21 C22 1_555 1_555
O5_2 C16_2 1_555 1_555
C5_2 C6_2 1_555 1_555
C7_2 C8_2 1_555 1_555
C9_2 C10_2 1_555 1_555
C12B C13B 1_555 1_555
C14B C15B 1_555 1_555
C19_2 C20_2 1_555 1_555
C21_2 C22_2 1_555 1_555

#END
