
#######################################################################
#
#                 Cambridge Crystallographic Data Centre
#                                CCDC 
#
#######################################################################
#
# If this CIF has been generated from an entry in the Cambridge 
# Structural Database, then it will include bibliographic, chemical, 
# crystal, experimental, refinement or atomic coordinate data resulting 
# from the CCDC's data processing and validation procedures.
#
#######################################################################

data_INODUL
_symmetry_cell_setting           orthorhombic
_symmetry_space_group_name_H-M   'P n a 21'
_symmetry_Int_Tables_number      33
_space_group_name_Hall           'P 2c -2n'
loop_
_symmetry_equiv_pos_site_id
_symmetry_equiv_pos_as_xyz
1 x,y,z
2 -x,-y,1/2+z
3 1/2-x,1/2+y,1/2+z
4 1/2+x,1/2-y,z
_cell_length_a                   6.8293(14)
_cell_length_b                   12.331(3)
_cell_length_c                   13.732(3)
_cell_angle_alpha                90
_cell_angle_beta                 90
_cell_angle_gamma                90
_cell_volume                     1156.4
loop_
_atom_site_label
_atom_site_type_symbol
_atom_site_fract_x
_atom_site_fract_y
_atom_site_fract_z
Cd1 Cd 0.02731(3) 0.992572(15) 0.76815(6)
O1 O 0.1182(4) 1.16843(18) 0.73001(16)
O2 O 0.1307(4) 1.28938(18) 0.61114(17)
O3 O 0.1016(5) 1.2969(2) 0.43378(17)
H1 H 0.1054 1.2946 0.4934
O4 O 0.0528(4) 1.1836(2) 0.31163(18)
O5 O 0.3545(3) 0.93580(15) 0.7713(2)
H2 H 0.3800 0.8899 0.7139
H3 H 0.3562 0.8854 0.8256
O6 O -0.2906(3) 1.04974(19) 0.74743(17)
H4 H -0.4263 1.0239 0.7566
H5 H -0.3066 1.1198 0.7152
N1 N 0.0278(7) 1.0064(2) 0.4343(4)
N2 N 0.0496(6) 0.9995(2) 0.5981(4)
N3 N -0.0504(4) 0.6579(3) 0.5982(2)
C1 C 0.0056(5) 0.6022(3) 0.5193(3)
H6 H 0.0030 0.5269 0.5215
C2 C -0.0482(5) 0.7658(3) 0.5940(3)
H7 H -0.0906 0.8045 0.6481
C3 C 0.0152(5) 0.8242(3) 0.5117(3)
C4 C 0.0741(5) 0.7656(3) 0.4308(2)
H8 H 0.1175 0.8010 0.3750
C5 C 0.0674(5) 0.6523(3) 0.4344(3)
H9 H 0.1039 0.6112 0.3805
C6 C 0.0269(4) 0.9432(3) 0.5152(2)
C7 C 0.0582(5) 1.1093(3) 0.4686(2)
C8 C 0.0725(5) 1.1053(3) 0.5700(2)
C9 C 0.1089(5) 1.1915(2) 0.6420(2)
C10 C 0.0702(5) 1.2009(3) 0.3998(3)
Cd1A Cd -0.02731(3) 1.007428(15) 0.26815(6)
O4A O -0.0528(4) 0.8164(2) 0.81163(18)
N1A N -0.0278(7) 0.9936(2) 0.9343(4)
loop_
_geom_bond_atom_site_label_1
_geom_bond_atom_site_label_2
_geom_bond_site_symmetry_1
_geom_bond_site_symmetry_2
Cd1 O1 1_555 1_555
O1 C9 1_555 1_555
O2 C9 1_555 1_555
O3 H1 1_555 1_555
O4 C10 1_555 1_555
O5 Cd1 1_555 1_555
H2 O5 1_555 1_555
H3 O5 1_555 1_555
O6 Cd1 1_555 1_555
H4 O6 1_555 1_555
H5 O6 1_555 1_555
N1 C6 1_555 1_555
N2 Cd1 1_555 1_555
N3 C1 1_555 1_555
C1 H6 1_555 1_555
C2 N3 1_555 1_555
H7 C2 1_555 1_555
C3 C2 1_555 1_555
C4 C3 1_555 1_555
H8 C4 1_555 1_555
C5 C1 1_555 1_555
H9 C5 1_555 1_555
C6 N2 1_555 1_555
C7 N1 1_555 1_555
C8 N2 1_555 1_555
C9 C8 1_555 1_555
C10 O3 1_555 1_555
Cd1A O4 1_555 1_555
O4A Cd1 1_555 1_555
N1A Cd1 1_555 1_555
N1 Cd1A 1_555 1_555
C3 C6 1_555 1_555
C4 C5 1_555 1_555
C7 C8 1_555 1_555
C7 C10 1_555 1_555

#END
