
#######################################################################
#
#                 Cambridge Crystallographic Data Centre
#                                CCDC 
#
#######################################################################
#
# If this CIF has been generated from an entry in the Cambridge 
# Structural Database, then it will include bibliographic, chemical, 
# crystal, experimental, refinement or atomic coordinate data resulting 
# from the CCDC's data processing and validation procedures.
#
#######################################################################

data_INOFOH
_symmetry_cell_setting           orthorhombic
_symmetry_space_group_name_H-M   'A b m 2'
_symmetry_Int_Tables_number      39
_space_group_name_Hall           'A 2 -2c'
loop_
_symmetry_equiv_pos_site_id
_symmetry_equiv_pos_as_xyz
1 x,y,z
2 -x,-y,z
3 -x,y,1/2+z
4 x,-y,1/2+z
5 x,1/2+y,1/2+z
6 -x,1/2-y,1/2+z
7 -x,1/2+y,z
8 x,1/2-y,z
_cell_length_a                   13.0161(18)
_cell_length_b                   29.225(4)
_cell_length_c                   22.394(3)
_cell_angle_alpha                90
_cell_angle_beta                 90
_cell_angle_gamma                90
_cell_volume                     8518.58
loop_
_atom_site_label
_atom_site_type_symbol
_atom_site_fract_x
_atom_site_fract_y
_atom_site_fract_z
O1 O 0.855(2) -0.2500 0.0118(11)
O3 O 1.134(4) -0.2500 0.353(2)
C1 C 0.9113(13) -0.0819(5) 0.0678(7)
C2 C 0.9172(14) -0.1119(6) 0.1229(7)
C3 C 0.8882(13) -0.1581(6) 0.1232(8)
H1 H 0.8614 -0.1717 0.0891
C4 C 0.9000(15) -0.1826(6) 0.1747(10)
H2 H 0.8849 -0.2137 0.1756
C5 C 0.9346(14) -0.1605(6) 0.2250(8)
H3 H 0.9388 -0.1759 0.2613
C6 C 0.9634(13) -0.1144(5) 0.2206(7)
C7 C 1.0119(14) -0.0890(6) 0.2716(7)
C8 C 1.5000 0.0000 0.5542(11)
H4 H 1.5000 0.0000 0.5957
C9 C 1.4377(15) -0.0290(5) 0.5255(8)
H5 H 1.3930 -0.0482 0.5459
C10 C 1.4432(13) -0.0289(5) 0.4629(7)
C11 C 1.3811(13) -0.0589(5) 0.4222(8)
C12 C 1.6979(13) -0.0686(5) 0.3224(7)
C13 C 1.6352(13) -0.0918(5) 0.2741(7)
C14 C 1.6691(14) -0.1299(5) 0.2428(7)
H6 H 1.7308 -0.1444 0.2518
C15 C 1.6051(19) -0.1453(7) 0.1968(9)
H7 H 1.6236 -0.1708 0.1745
C16 C 1.5154(17) -0.1229(6) 0.1845(8)
H8 H 1.4736 -0.1330 0.1534
C17 C 1.4866(13) -0.0855(5) 0.2178(7)
C18 C 1.3917(16) -0.0558(7) 0.2059(8)
N1 N 0.9521(11) -0.0898(4) 0.1703(6)
N2 N 1.5470(10) -0.0700(4) 0.2637(6)
N3 N 1.5000 0.0000 0.4339(7)
O2 O 1.3069(9) -0.0813(4) 0.4431(5)
O4 O 1.0312(10) -0.1090(4) 0.3183(5)
O5 O 1.0317(12) -0.0463(4) 0.2610(5)
O6 O 0.9519(10) -0.0584(3) 0.4139(6)
O7 O 0.9259(11) -0.0393(4) 0.0752(5)
O8 O 1.2487(12) -0.1159(5) 0.3230(7)
O9 O 0.8935(10) -0.1002(4) 0.0191(5)
O10 O 1.1627(10) -0.0242(4) 0.3487(5)
O11 O 1.1503(12) -0.0088(4) 0.4738(6)
O12 O 1.4065(9) -0.0594(4) 0.3672(5)
O13 O 1.1960(11) -0.1748(4) 0.4268(7)
O14 O 1.3864(10) -0.0212(4) 0.2438(6)
O15 O 1.6545(10) -0.0345(3) 0.3487(5)
O16 O 1.1432(10) -0.0517(4) 0.1258(6)
O17 O 0.8165(12) -0.0181(4) 0.2095(6)
O18 O 1.7911(11) -0.0798(4) 0.3303(6)
O19 O 1.3362(13) -0.0643(5) 0.1664(7)
O20 O 0.9861(9) -0.1566(4) 0.4278(5)
O21 O 0.7655(13) -0.2500 0.2568(8)
O22 O 0.3264(10) -0.1657(4) 0.5515(5)
O23 O 0.6936(13) -0.2500 0.5505(7)
O24 O 0.4799(13) -0.2500 0.3756(7)
O25 O 0.5937(8) -0.2076(3) 0.4711(4)
O26 O 0.5193(15) -0.2500 0.7025(7)
O27 O 0.8678(10) -0.1556(4) 0.6378(6)
O28 O 0.8520(12) -0.2500 0.6173(7)
O29 O 0.6758(9) -0.0711(3) 0.4859(6)
O30 O 0.4523(11) -0.1656(4) 0.3158(5)
O31 O 0.5815(9) -0.1330(3) 0.4061(5)
O32 O 0.5196(9) -0.1331(3) 0.5188(5)
O33 O 0.4142(9) -0.1785(3) 0.4365(5)
O34 O 0.4019(13) -0.2500 0.5101(7)
O35 O 0.5085(9) -0.2058(3) 0.5928(5)
O36 O 0.7533(15) -0.2500 0.4425(7)
O37 O 0.6415(9) -0.2068(4) 0.3433(5)
O38 O 0.6867(9) -0.2049(3) 0.6493(5)
O39 O 0.7099(9) -0.1512(4) 0.5531(5)
O40 O 0.8484(9) -0.2060(4) 0.3588(5)
O41 O 0.7713(9) -0.1511(3) 0.4437(5)
O42 O 0.8756(9) -0.1953(3) 0.5235(5)
O43 O 0.9523(12) -0.2500 0.4394(7)
P1 P 0.6585(5) -0.2500 0.4828(3)
W1 W 0.65127(6) -0.127517(19) 0.48181(4)
W2 W 0.51456(6) -0.18669(2) 0.37618(3)
W3 W 0.43562(6) -0.18665(2) 0.52233(3)
W4 W 0.58255(8) -0.2500 0.63724(4)
W5 W 0.74824(8) -0.2500 0.33259(4)
W6 W 0.79857(6) -0.19159(2) 0.59575(3)
W7 W 0.88439(5) -0.19133(2) 0.43830(3)
Ce1 Ce 1.12702(7) -0.09324(3) 0.41101(4)
Ce2 Ce 1.0000 0.0000 0.16722(6)
Ce3 Ce 1.5000 0.0000 0.32028(6)
C1B C 1.0887(13) -0.0819(5) 0.5678(7)
C2B C 1.0828(14) -0.1119(6) 0.6229(7)
C3B C 1.1118(13) -0.1581(6) 0.6232(8)
H1B H 1.1386 -0.1717 0.5891
C4B C 1.1000(15) -0.1826(6) 0.6747(10)
H2B H 1.1151 -0.2137 0.6756
C5B C 1.0654(14) -0.1605(6) 0.7250(8)
H3B H 1.0612 -0.1759 0.7613
C6B C 1.0366(13) -0.1144(5) 0.7206(7)
C7B C 0.9881(14) -0.0890(6) 0.7716(7)
C9A C 1.5623(15) 0.0290(5) 0.5255(8)
H5A H 1.6070 0.0482 0.5459
C10A C 1.5568(13) 0.0289(5) 0.4629(7)
C11A C 1.6189(13) 0.0589(5) 0.4222(8)
C12A C 1.3021(13) 0.0686(5) 0.3224(7)
C13A C 1.3648(13) 0.0918(5) 0.2741(7)
C14A C 1.3309(14) 0.1299(5) 0.2428(7)
H6A H 1.2692 0.1444 0.2518
C15A C 1.3949(19) 0.1453(7) 0.1968(9)
H7A H 1.3764 0.1708 0.1745
C16A C 1.4846(17) 0.1229(6) 0.1845(8)
H8A H 1.5264 0.1330 0.1534
C17A C 1.5134(13) 0.0855(5) 0.2178(7)
C18A C 1.6083(16) 0.0558(7) 0.2059(8)
N1B N 1.0479(11) -0.0898(4) 0.6703(6)
N1A N 1.0479(11) 0.0898(4) 0.1703(6)
N2A N 1.4530(10) 0.0700(4) 0.2637(6)
O2A O 1.6931(9) 0.0813(4) 0.4431(5)
O2G O 1.3069(9) -0.4187(4) 0.4431(5)
O4B O 0.9688(10) -0.1090(4) 0.8183(5)
O4G O 1.0312(10) -0.3910(4) 0.3183(5)
O5B O 0.9683(12) -0.0463(4) 0.7610(5)
O5A O 0.9683(12) 0.0463(4) 0.2610(5)
O6G O 0.9519(10) -0.4416(3) 0.4139(6)
O7B O 1.0741(11) -0.0393(4) 0.5752(5)
O7A O 1.0741(11) 0.0393(4) 0.0752(5)
O8G O 1.2487(12) -0.3841(5) 0.3230(7)
O9B O 1.1065(10) -0.1002(4) 0.5191(5)
O9E O 1.1065(10) -0.3998(4) 0.5191(5)
O10G O 1.1627(10) -0.4758(4) 0.3487(5)
O11G O 1.1503(12) -0.4912(4) 0.4738(6)
O12A O 1.5935(9) 0.0594(4) 0.3672(5)
O13G O 1.1960(11) -0.3252(4) 0.4268(7)
O14A O 1.6136(10) 0.0212(4) 0.2438(6)
O15A O 1.3455(10) 0.0345(3) 0.3487(5)
O16A O 0.8568(10) 0.0517(4) 0.1258(6)
O17A O 1.1835(12) 0.0181(4) 0.2095(6)
O18A O 1.2089(11) 0.0798(4) 0.3303(6)
O19A O 1.6638(13) 0.0643(5) 0.1664(7)
O20G O 0.9861(9) -0.3434(4) 0.4278(5)
O22G O 0.3264(10) -0.3343(4) 0.5515(5)
O25G O 0.5937(8) -0.2924(3) 0.4711(4)
O27G O 0.8678(10) -0.3444(4) 0.6378(6)
O29G O 0.6758(9) -0.4289(3) 0.4859(6)
O30G O 0.4523(11) -0.3344(4) 0.3158(5)
O31G O 0.5815(9) -0.3670(3) 0.4061(5)
O32G O 0.5196(9) -0.3669(3) 0.5188(5)
O33G O 0.4142(9) -0.3215(3) 0.4365(5)
O35G O 0.5085(9) -0.2942(3) 0.5928(5)
O37G O 0.6415(9) -0.2932(4) 0.3433(5)
O38G O 0.6867(9) -0.2951(3) 0.6493(5)
O39G O 0.7099(9) -0.3488(4) 0.5531(5)
O40G O 0.8484(9) -0.2940(4) 0.3588(5)
O41G O 0.7713(9) -0.3489(3) 0.4437(5)
O42G O 0.8756(9) -0.3047(3) 0.5235(5)
W1G W 0.65127(6) -0.372483(19) 0.48181(4)
W2G W 0.51456(6) -0.31331(2) 0.37618(3)
W3G W 0.43562(6) -0.31335(2) 0.52233(3)
W6G W 0.79857(6) -0.30841(2) 0.59575(3)
W7G W 0.88439(5) -0.30867(2) 0.43830(3)
Ce1G Ce 1.12702(7) -0.40676(3) 0.41101(4)
Ce1B Ce 0.87298(7) -0.09324(3) -0.08899(4)
Ce1A Ce 1.87298(7) 0.09324(3) 0.41101(4)
Ce1B_2 Ce 0.87298(7) -0.09324(3) 0.91101(4)
Ce2B Ce 1.0000 0.0000 0.66722(6)
loop_
_geom_bond_atom_site_label_1
_geom_bond_atom_site_label_2
_geom_bond_site_symmetry_1
_geom_bond_site_symmetry_2
C1 C2 1_555 1_555
C2 C3 1_555 1_555
C3 H1 1_555 1_555
C4 C3 1_555 1_555
H2 C4 1_555 1_555
C5 C4 1_555 1_555
H3 C5 1_555 1_555
C6 C5 1_555 1_555
C7 C6 1_555 1_555
C8 H4 1_555 1_555
C9 C8 1_555 1_555
H5 C9 1_555 1_555
C10 C9 1_555 1_555
C11 C10 1_555 1_555
C12 C13 1_555 1_555
C13 C14 1_555 1_555
C14 H6 1_555 1_555
C15 C14 1_555 1_555
H7 C15 1_555 1_555
C16 C15 1_555 1_555
H8 C16 1_555 1_555
C17 C16 1_555 1_555
C18 C17 1_555 1_555
N1 C2 1_555 1_555
N2 C13 1_555 1_555
N3 C10 1_555 1_555
O2 C11 1_555 1_555
O4 C7 1_555 1_555
O5 C7 1_555 1_555
O6 Ce1 1_555 1_555
O7 C1 1_555 1_555
O8 Ce1 1_555 1_555
O9 C1 1_555 1_555
O10 Ce1 1_555 1_555
O11 Ce1 1_555 1_555
O12 C11 1_555 1_555
O13 Ce1 1_555 1_555
O14 C18 1_555 1_555
O15 C12 1_555 1_555
O16 Ce2 1_555 1_555
O17 Ce2 1_555 1_555
O18 C12 1_555 1_555
O19 C18 1_555 1_555
O20 W7 1_555 1_555
O21 W5 1_555 1_555
O22 W3 1_555 1_555
O23 P1 1_555 1_555
O24 W2 1_555 1_555
O25 P1 1_555 1_555
O26 W4 1_555 1_555
O27 W6 1_555 1_555
O28 W6 1_555 1_555
O29 W1 1_555 1_555
O30 W2 1_555 1_555
O31 W1 1_555 1_555
O32 W1 1_555 1_555
O33 W2 1_555 1_555
O34 W3 1_555 1_555
O35 W3 1_555 1_555
O36 P1 1_555 1_555
O37 W2 1_555 1_555
O38 W4 1_555 1_555
O39 W1 1_555 1_555
O40 W5 1_555 1_555
O41 W1 1_555 1_555
O42 W6 1_555 1_555
O43 W7 1_555 1_555
P1 O25G 1_555 1_555
W1 O25 1_555 1_555
W2 O25 1_555 1_555
W3 O25 1_555 1_555
W4 O23 1_555 1_555
W5 O36 1_555 1_555
W6 O23 1_555 1_555
W7 O36 1_555 1_555
Ce1 O2 1_555 1_555
Ce2 N1 1_555 1_555
Ce3 N2 1_555 1_555
C1B C2B 1_555 1_555
C2B C3B 1_555 1_555
C3B H1B 1_555 1_555
C4B C3B 1_555 1_555
H2B C4B 1_555 1_555
C5B C4B 1_555 1_555
H3B C5B 1_555 1_555
C6B C5B 1_555 1_555
C7B C6B 1_555 1_555
C9A C8 1_555 1_555
H5A C9A 1_555 1_555
C10A N3 1_555 1_555
C11A C10A 1_555 1_555
C12A C13A 1_555 1_555
C13A C14A 1_555 1_555
C14A H6A 1_555 1_555
C15A C14A 1_555 1_555
H7A C15A 1_555 1_555
C16A C15A 1_555 1_555
H8A C16A 1_555 1_555
C17A C16A 1_555 1_555
C18A C17A 1_555 1_555
N1B C2B 1_555 1_555
N1A Ce2 1_555 1_555
N2A Ce3 1_555 1_555
O2A C11A 1_555 1_555
O2G Ce1G 1_555 1_555
O4B C7B 1_555 1_555
O4G Ce1G 1_555 1_555
O5B C7B 1_555 1_555
O5A Ce2 1_555 1_555
O6G Ce1G 1_555 1_555
O7B C1B 1_555 1_555
O7A Ce2 1_555 1_555
O8G Ce1G 1_555 1_555
O9B Ce1 1_555 1_555
O9E Ce1G 1_555 1_555
O10G Ce1G 1_555 1_555
O11G Ce1G 1_555 1_555
O12A Ce3 1_555 1_555
O13G Ce1G 1_555 1_555
O14A Ce3 1_555 1_555
O15A Ce3 1_555 1_555
O16A Ce2 1_555 1_555
O17A Ce2 1_555 1_555
O18A C12A 1_555 1_555
O19A C18A 1_555 1_555
O20G W7G 1_555 1_555
O22G W3G 1_555 1_555
O25G W1G 1_555 1_555
O27G W6G 1_555 1_555
O29G W1G 1_555 1_555
O30G W2G 1_555 1_555
O31G W1G 1_555 1_555
O32G W1G 1_555 1_555
O33G W2G 1_555 1_555
O35G W4 1_555 1_555
O37G W5 1_555 1_555
O38G W4 1_555 1_555
O39G W1G 1_555 1_555
O40G W5 1_555 1_555
O41G W1G 1_555 1_555
O42G W6G 1_555 1_555
W2G O24 1_555 1_555
W3G O34 1_555 1_555
W6G O23 1_555 1_555
W7G O36 1_555 1_555
Ce1G O20G 1_555 1_555
Ce1B O9 1_555 1_555
Ce1A O2A 1_555 1_555
Ce1B_2 O4B 1_555 1_555
Ce2B N1B 1_555 1_555
C6 N1 1_555 1_555
C17 N2 1_555 1_555
N3 Ce3 1_555 1_555
O4 Ce1 1_555 1_555
O5 Ce2 1_555 1_555
O7 Ce2 1_555 1_555
O12 Ce3 1_555 1_555
O14 Ce3 1_555 1_555
O15 Ce3 1_555 1_555
O20 Ce1 1_555 1_555
O28 W6G 1_555 1_555
O31 W2 1_555 1_555
O32 W3 1_555 1_555
O33 W3 1_555 1_555
O35 W4 1_555 1_555
O37 W5 1_555 1_555
O38 W6 1_555 1_555
O39 W6 1_555 1_555
O40 W7 1_555 1_555
O41 W7 1_555 1_555
O42 W7 1_555 1_555
O43 W7G 1_555 1_555
C1B O9B 1_555 1_555
C6B N1B 1_555 1_555
C9A C10A 1_555 1_555
C11A O12A 1_555 1_555
C12A O15A 1_555 1_555
C13A N2A 1_555 1_555
C17A N2A 1_555 1_555
C18A O14A 1_555 1_555
O5B Ce2B 1_555 1_555
O7B Ce2B 1_555 1_555
O25G W2G 1_555 1_555
O25G W3G 1_555 1_555
O31G W2G 1_555 1_555
O32G W3G 1_555 1_555
O33G W3G 1_555 1_555
O35G W3G 1_555 1_555
O37G W2G 1_555 1_555
O38G W6G 1_555 1_555
O39G W6G 1_555 1_555
O40G W7G 1_555 1_555
O41G W7G 1_555 1_555
O42G W7G 1_555 1_555

#END
