
#######################################################################
#
#                 Cambridge Crystallographic Data Centre
#                                CCDC 
#
#######################################################################
#
# If this CIF has been generated from an entry in the Cambridge 
# Structural Database, then it will include bibliographic, chemical, 
# crystal, experimental, refinement or atomic coordinate data resulting 
# from the CCDC's data processing and validation procedures.
#
#######################################################################

data_INOHEZ
_symmetry_cell_setting           monoclinic
_symmetry_space_group_name_H-M   'C 2/c'
_symmetry_Int_Tables_number      15
_space_group_name_Hall           '-C 2yn'
loop_
_symmetry_equiv_pos_site_id
_symmetry_equiv_pos_as_xyz
1 x,y,z
2 -x,y,1/2-z
3 1/2+x,1/2+y,z
4 1/2-x,1/2+y,1/2-z
5 -x,-y,-z
6 x,-y,1/2+z
7 1/2-x,1/2-y,-z
8 1/2+x,1/2-y,1/2+z
_cell_length_a                   25.1592(12)
_cell_length_b                   11.2065(6)
_cell_length_c                   18.7359(9)
_cell_angle_alpha                90
_cell_angle_beta                 112.570(3)
_cell_angle_gamma                90
_cell_volume                     4877.94
loop_
_atom_site_label
_atom_site_type_symbol
_atom_site_fract_x
_atom_site_fract_y
_atom_site_fract_z
C1 C 0.47054(11) 0.2644(2) 0.83613(15)
H1 H 0.4617 0.2151 0.7932
C2 C 0.49450(11) 0.4096(2) 0.91267(14)
H2 H 0.5063 0.4857 0.9320
C3 C 0.45497(12) 0.1157(2) 0.92685(17)
H3 H 0.4407 0.0633 0.8823
H4 H 0.4249 0.1244 0.9470
C4 C 0.50712(12) 0.0603(3) 0.98768(17)
H5 H 0.5216 0.1127 1.0322
H6 H 0.5371 0.0509 0.9675
Cd1 Cd 0.5000 0.500161(19) 0.7500
N1 N 0.48734(9) 0.37664(18) 0.83986(12)
N2 N 0.46816(9) 0.23253(18) 0.90296(12)
N3 N 0.48346(10) 0.32534(19) 0.95346(13)
O1 O 0.40311(8) 0.47224(18) 0.68162(12)
O2 O 0.33391(9) 0.63045(17) 0.65099(12)
O3 O 0.39097(8) 0.60477(16) 0.57509(11)
O4 O 0.31797(8) 0.46003(19) 0.56850(11)
O5 O 0.49776(9) 0.65153(16) 0.83336(12)
H19 H 0.4899(13) 0.7215(18) 0.8168(17)
H20 H 0.5303(9) 0.648(3) 0.8717(14)
S1 S 0.36149(3) 0.54206(6) 0.61859(4)
C1D C 0.52946(11) -0.2644(2) 1.16387(15)
H1D H 0.5383 -0.2151 1.2068
C2D C 0.50550(11) -0.4096(2) 1.08733(14)
H2D H 0.4937 -0.4857 1.0680
C3D C 0.54503(12) -0.1157(2) 1.07315(17)
H3D H 0.5593 -0.0633 1.1177
H4D H 0.5751 -0.1244 1.0530
C4D C 0.49288(12) -0.0603(3) 1.01232(17)
H5D H 0.4784 -0.1127 0.9678
H6D H 0.4629 -0.0509 1.0325
Cd1D Cd 0.5000 -0.500161(19) 1.2500
N1D N 0.51266(9) -0.37664(18) 1.16014(12)
N1A N 0.51266(9) 0.37664(18) 0.66014(12)
N2D N 0.53184(9) -0.23253(18) 1.09704(12)
N3D N 0.51654(10) -0.32534(19) 1.04654(13)
O1A O 0.59689(8) 0.47224(18) 0.81838(12)
O2A O 0.66609(9) 0.63045(17) 0.84901(12)
O3A O 0.60903(8) 0.60477(16) 0.92491(11)
O4A O 0.68203(8) 0.46003(19) 0.93150(11)
O5A O 0.50224(9) 0.65153(16) 0.66664(12)
H19A H 0.5101(13) 0.7215(18) 0.6832(17)
H20A H 0.4697(9) 0.648(3) 0.6283(14)
S1A S 0.63851(3) 0.54206(6) 0.88141(4)
C5 C 0.17988(10) 0.2530(2) 0.31503(14)
H7 H 0.1805 0.2068 0.3566
C6 C 0.17195(10) 0.3949(2) 0.23818(14)
H8 H 0.1654 0.4710 0.2167
C7 C 0.20714(11) 0.0933(2) 0.24026(15)
H9 H 0.2158 0.0437 0.2858
H10 H 0.2412 0.0967 0.2280
C8 C 0.15793(11) 0.0382(2) 0.17307(15)
H11 H 0.1477 0.0905 0.1285
H12 H 0.1246 0.0307 0.1867
C9 C 0.17391(11) -0.0841(2) 0.15211(15)
H13 H 0.2074 -0.0773 0.1388
H14 H 0.1834 -0.1373 0.1961
C10 C 0.12398(11) -0.1341(2) 0.08444(16)
H15 H 0.0923 -0.1504 0.1004
H16 H 0.1111 -0.0749 0.0436
C11 C 0.13000(11) -0.2718(2) -0.01784(15)
H17 H 0.1120 -0.2224 -0.0602
C12 C 0.17175(13) -0.4146(2) 0.05327(15)
H18 H 0.1892 -0.4885 0.0691
Cd2 Cd 0.141857(7) 0.505894(13) 0.378381(9)
N4 N 0.16636(8) 0.36793(17) 0.30547(11)
N5 N 0.19226(9) 0.21397(17) 0.25662(11)
N6 N 0.18738(9) 0.30464(18) 0.20604(12)
N7 N 0.13918(9) -0.24406(17) 0.05424(12)
N8 N 0.15002(9) -0.38009(17) -0.02149(12)
N9 N 0.16631(11) -0.3356(2) 0.10181(13)
O6 O 0.04621(7) 0.45945(16) 0.30181(11)
O7 O 0.02296(8) 0.61226(16) 0.20393(11)
O8 O 0.13743(8) 0.64799(16) 0.28727(11)
H21 H 0.1451(12) 0.7185(18) 0.3059(16)
H22 H 0.1037(8) 0.647(2) 0.2524(14)
O9 O 0.23948(8) 0.55254(17) 0.43618(11)
H23 H 0.2634(12) 0.523(2) 0.4780(13)
H24 H 0.2482(13) 0.6233(16) 0.4323(16)
O10 O 0.13060(9) 0.65664(16) 0.45513(11)
H25 H 0.1599(10) 0.670(3) 0.4971(12)
H26 H 0.1177(12) 0.7235(19) 0.4346(15)
S2 S 0.0000 0.53699(8) 0.2500
C5E C 0.17988(10) -0.2530(2) 0.81503(14)
H7E H 0.1805 -0.2068 0.8566
C6E C 0.17195(10) -0.3949(2) 0.73818(14)
H8E H 0.1654 -0.4710 0.7167
C7E C 0.20714(11) -0.0933(2) 0.74026(15)
H9E H 0.2158 -0.0437 0.7858
H10E H 0.2412 -0.0967 0.7280
C8E C 0.15793(11) -0.0382(2) 0.67307(15)
H11E H 0.1477 -0.0905 0.6285
H12E H 0.1246 -0.0307 0.6867
C9E C 0.17391(11) 0.0841(2) 0.65211(15)
H13E H 0.2074 0.0773 0.6388
H14E H 0.1834 0.1373 0.6961
C10E C 0.12398(11) 0.1341(2) 0.58444(16)
H15E H 0.0923 0.1504 0.6004
H16E H 0.1111 0.0749 0.5436
C11E C 0.13000(11) 0.2718(2) 0.48216(15)
H17E H 0.1120 0.2224 0.4398
C12E C 0.17175(13) 0.4146(2) 0.55327(15)
H18E H 0.1892 0.4885 0.5691
Cd2E Cd 0.141857(7) -0.505894(13) 0.878381(9)
Cd2E_2 Cd 0.141857(7) -0.505894(13) -0.121619(9)
Cd2A Cd -0.141857(7) 0.505894(13) 0.121619(9)
N4E N 0.16636(8) -0.36793(17) 0.80547(11)
N5E N 0.19226(9) -0.21397(17) 0.75662(11)
N6E N 0.18738(9) -0.30464(18) 0.70604(12)
N7E N 0.13918(9) 0.24406(17) 0.55424(12)
N8E N 0.15002(9) 0.38009(17) 0.47851(12)
N8_2 N 0.15002(9) -0.38009(17) 0.97851(12)
N9E N 0.16631(11) 0.3356(2) 0.60181(13)
O6A O -0.04621(7) 0.45945(16) 0.19819(11)
O6E O 0.04621(7) -0.45945(16) 0.80181(11)
O7A O -0.02296(8) 0.61226(16) 0.29607(11)
O8E O 0.13743(8) -0.64799(16) 0.78727(11)
H21E H 0.1451(12) -0.7185(18) 0.8059(16)
H22E H 0.1037(8) -0.647(2) 0.7524(14)
O9E O 0.23948(8) -0.55254(17) 0.93618(11)
H23E H 0.2634(12) -0.523(2) 0.9780(13)
H24E H 0.2482(13) -0.6233(16) 0.9323(16)
O10E O 0.13060(9) -0.65664(16) 0.95513(11)
H25E H 0.1599(10) -0.670(3) 0.9971(12)
H26E H 0.1177(12) -0.7235(19) 0.9346(15)
O11 O 0.22639(8) 0.71482(17) 0.58310(11)
H27 H 0.2587(9) 0.680(3) 0.6002(16)
H28 H 0.2117(11) 0.715(3) 0.6160(15)
loop_
_geom_bond_atom_site_label_1
_geom_bond_atom_site_label_2
_geom_bond_site_symmetry_1
_geom_bond_site_symmetry_2
C1 H1 1_555 1_555
C2 H2 1_555 1_555
C3 H3 1_555 1_555
H4 C3 1_555 1_555
C4 C3 1_555 1_555
H5 C4 1_555 1_555
H6 C4 1_555 1_555
C5 H7 1_555 1_555
C6 H8 1_555 1_555
C7 H9 1_555 1_555
H10 C7 1_555 1_555
C8 C7 1_555 1_555
H11 C8 1_555 1_555
H12 C8 1_555 1_555
C9 C8 1_555 1_555
H13 C9 1_555 1_555
H14 C9 1_555 1_555
C10 C9 1_555 1_555
H15 C10 1_555 1_555
H16 C10 1_555 1_555
C11 H17 1_555 1_555
C12 H18 1_555 1_555
Cd1 N1 1_555 1_555
Cd2 N4 1_555 1_555
N1 C1 1_555 1_555
N2 C1 1_555 1_555
N3 C2 1_555 1_555
N4 C5 1_555 1_555
N5 C5 1_555 1_555
N6 C6 1_555 1_555
N7 C10 1_555 1_555
N8 C11 1_555 1_555
N9 C12 1_555 1_555
O1 Cd1 1_555 1_555
O2 S1 1_555 1_555
O3 S1 1_555 1_555
O4 S1 1_555 1_555
O5 Cd1 1_555 1_555
H19 O5 1_555 1_555
H20 O5 1_555 1_555
O6 Cd2 1_555 1_555
O7 S2 1_555 1_555
O8 Cd2 1_555 1_555
H21 O8 1_555 1_555
H22 O8 1_555 1_555
O9 Cd2 1_555 1_555
H23 O9 1_555 1_555
H24 O9 1_555 1_555
O10 Cd2 1_555 1_555
H25 O10 1_555 1_555
H26 O10 1_555 1_555
O11 H27 1_555 1_555
H28 O11 1_555 1_555
S1 O1 1_555 1_555
S2 O6 1_555 1_555
C1D H1D 1_555 1_555
C2D H2D 1_555 1_555
C3D H3D 1_555 1_555
H4D C3D 1_555 1_555
C4D C4 1_555 1_555
H5D C4D 1_555 1_555
H6D C4D 1_555 1_555
C5E H7E 1_555 1_555
C6E H8E 1_555 1_555
C7E H9E 1_555 1_555
H10E C7E 1_555 1_555
C8E C7E 1_555 1_555
H11E C8E 1_555 1_555
H12E C8E 1_555 1_555
C9E C8E 1_555 1_555
H13E C9E 1_555 1_555
H14E C9E 1_555 1_555
C10E C9E 1_555 1_555
H15E C10E 1_555 1_555
H16E C10E 1_555 1_555
C11E H17E 1_555 1_555
C12E H18E 1_555 1_555
Cd1D N1D 1_555 1_555
Cd2E N4E 1_555 1_555
Cd2E_2 N8 1_555 1_555
Cd2A O6A 1_555 1_555
N1D C1D 1_555 1_555
N1A Cd1 1_555 1_555
N2D C1D 1_555 1_555
N3D C2D 1_555 1_555
N4E C5E 1_555 1_555
N5E C5E 1_555 1_555
N6E C6E 1_555 1_555
N7E C10E 1_555 1_555
N8E Cd2 1_555 1_555
N8_2 Cd2E 1_555 1_555
N9E C12E 1_555 1_555
O1A Cd1 1_555 1_555
O2A S1A 1_555 1_555
O3A S1A 1_555 1_555
O4A S1A 1_555 1_555
O5A Cd1 1_555 1_555
H19A O5A 1_555 1_555
H20A O5A 1_555 1_555
O6A S2 1_555 1_555
O6E Cd2E 1_555 1_555
O7A S2 1_555 1_555
O8E Cd2E 1_555 1_555
H21E O8E 1_555 1_555
H22E O8E 1_555 1_555
O9E Cd2E 1_555 1_555
H23E O9E 1_555 1_555
H24E O9E 1_555 1_555
O10E Cd2E 1_555 1_555
H25E O10E 1_555 1_555
H26E O10E 1_555 1_555
S1A O1A 1_555 1_555
C2 N1 1_555 1_555
C3 N2 1_555 1_555
C6 N4 1_555 1_555
C7 N5 1_555 1_555
C11 N7 1_555 1_555
C12 N8 1_555 1_555
N2 N3 1_555 1_555
N5 N6 1_555 1_555
N7 N9 1_555 1_555
C2D N1D 1_555 1_555
C3D C4D 1_555 1_555
C3D N2D 1_555 1_555
C6E N4E 1_555 1_555
C7E N5E 1_555 1_555
C11E N7E 1_555 1_555
C11E N8E 1_555 1_555
C12E N8E 1_555 1_555
N2D N3D 1_555 1_555
N5E N6E 1_555 1_555
N7E N9E 1_555 1_555

#END
