
#######################################################################
#
#                 Cambridge Crystallographic Data Centre
#                                CCDC 
#
#######################################################################
#
# If this CIF has been generated from an entry in the Cambridge 
# Structural Database, then it will include bibliographic, chemical, 
# crystal, experimental, refinement or atomic coordinate data resulting 
# from the CCDC's data processing and validation procedures.
#
#######################################################################

data_INOHOJ
_symmetry_cell_setting           monoclinic
_symmetry_space_group_name_H-M   'P 21/n'
_symmetry_Int_Tables_number      14
_space_group_name_Hall           '-P 2yn'
loop_
_symmetry_equiv_pos_site_id
_symmetry_equiv_pos_as_xyz
1 x,y,z
2 1/2-x,1/2+y,1/2-z
3 -x,-y,-z
4 1/2+x,1/2-y,1/2+z
_cell_length_a                   8.4459(17)
_cell_length_b                   15.703(3)
_cell_length_c                   19.137(4)
_cell_angle_alpha                90
_cell_angle_beta                 101.67(3)
_cell_angle_gamma                90
_cell_volume                     2485.6
loop_
_atom_site_label
_atom_site_type_symbol
_atom_site_fract_x
_atom_site_fract_y
_atom_site_fract_z
Hg1 Hg 0.14884(4) 0.627633(18) 0.730398(15)
Br1 Br -0.12675(12) 0.58081(8) 0.73892(6)
Br2 Br 0.27949(12) 0.76849(5) 0.71685(5)
N1 N 0.2033(7) 0.5495(4) 0.6321(3)
N2 N 0.0577(8) 0.3607(4) 0.5319(4)
H1 H -0.0107 0.3454 0.5573
N3 N 0.7766(7) 0.1228(3) 0.5650(3)
H2 H 0.7793 0.1766 0.5738
N4 N 1.1555(7) 0.0652(3) 0.6798(3)
C1 C 0.1248(8) 0.4785(5) 0.6110(3)
H3 H 0.0523 0.4577 0.6376
C2 C 0.1449(9) 0.4331(5) 0.5510(4)
C3 C 0.2533(11) 0.4663(6) 0.5125(4)
H4 H 0.2728 0.4379 0.4724
C4 C 0.3308(12) 0.5403(6) 0.5338(5)
H5 H 0.4012 0.5640 0.5076
C5 C 0.3049(10) 0.5799(5) 0.5939(5)
H6 H 0.3604 0.6301 0.6085
C6 C 0.0734(10) 0.3078(5) 0.4713(4)
H7 H 0.0727 0.3441 0.4302
H8 H -0.0193 0.2702 0.4600
C7 C 0.2275(8) 0.2543(4) 0.4847(4)
C8 C 0.2742(11) 0.2090(5) 0.5465(4)
H9 H 0.2138 0.2127 0.5820
C9 C 0.4092(12) 0.1579(5) 0.5569(4)
H10 H 0.4403 0.1293 0.6000
C10 C 0.4969(9) 0.1482(4) 0.5068(4)
C11 C 0.4550(10) 0.1944(5) 0.4465(4)
H11 H 0.5175 0.1908 0.4117
C12 C 0.3204(11) 0.2470(5) 0.4352(4)
H12 H 0.2936 0.2778 0.3929
C13 C 0.6396(10) 0.0882(5) 0.5186(5)
H13 H 0.6094 0.0354 0.5387
H14 H 0.6675 0.0752 0.4731
C14 C 1.0239(8) 0.1074(4) 0.6490(3)
H15 H 1.0112 0.1629 0.6639
C15 C 0.9041(8) 0.0737(4) 0.5959(3)
C16 C 0.9240(9) -0.0104(4) 0.5761(4)
H16 H 0.8475 -0.0364 0.5408
C17 C 1.0579(10) -0.0538(4) 0.6096(4)
H17 H 1.0707 -0.1104 0.5976
C18 C 1.1721(9) -0.0166(4) 0.6598(4)
H18 H 1.2633 -0.0474 0.6809
Hg1A Hg 1.35116(4) 0.127633(18) 0.769602(15)
N4A N 0.3445(7) 0.5652(3) 0.8202(3)
N5 N -0.3274(10) 0.3522(4) 0.6927(4)
O1 O -0.1869(8) 0.3050(4) 0.6133(4)
C19 C -0.1953(19) 0.3197(13) 0.6744(7)
H19 H -0.1060 0.3078 0.7102
C20 C -0.482(2) 0.356(2) 0.6446(15)
H20 H -0.4806 0.3999 0.6101
H21 H -0.5647 0.3672 0.6709
H22 H -0.5032 0.3019 0.6205
C21 C -0.348(5) 0.378(3) 0.7630(10)
H23 H -0.2458 0.3949 0.7912
H24 H -0.3908 0.3313 0.7858
H25 H -0.4222 0.4251 0.7586
C22? C -0.299(2) 0.3437(13) 0.6269(7)
C23? C -0.463(3) 0.4077(18) 0.6935(18)
C24? C -0.231(5) 0.339(3) 0.7632(11)
H26? H -0.3698 0.3695 0.5895
H27? H -0.4347 0.4488 0.7311
H28? H -0.5537 0.3746 0.7015
H29? H -0.4922 0.4366 0.6485
H30? H -0.2979 0.3449 0.7979
H31? H -0.1464 0.3812 0.7723
H32? H -0.1841 0.2834 0.7662
loop_
_geom_bond_atom_site_label_1
_geom_bond_atom_site_label_2
_geom_bond_site_symmetry_1
_geom_bond_site_symmetry_2
Hg1 Br1 1_555 1_555
Br2 Hg1 1_555 1_555
N1 Hg1 1_555 1_555
N2 H1 1_555 1_555
N3 H2 1_555 1_555
N4 C14 1_555 1_555
C1 N1 1_555 1_555
H3 C1 1_555 1_555
C2 N2 1_555 1_555
C3 C2 1_555 1_555
H4 C3 1_555 1_555
C4 C3 1_555 1_555
H5 C4 1_555 1_555
C5 N1 1_555 1_555
H6 C5 1_555 1_555
C6 N2 1_555 1_555
H7 C6 1_555 1_555
H8 C6 1_555 1_555
C7 C6 1_555 1_555
C8 C7 1_555 1_555
H9 C8 1_555 1_555
C9 C8 1_555 1_555
H10 C9 1_555 1_555
C10 C9 1_555 1_555
C11 C10 1_555 1_555
H11 C11 1_555 1_555
C12 C7 1_555 1_555
H12 C12 1_555 1_555
C13 N3 1_555 1_555
H13 C13 1_555 1_555
H14 C13 1_555 1_555
C14 H15 1_555 1_555
C15 N3 1_555 1_555
C16 C15 1_555 1_555
H16 C16 1_555 1_555
C17 C16 1_555 1_555
H17 C17 1_555 1_555
C18 N4 1_555 1_555
H18 C18 1_555 1_555
N5 C19 1_555 1_555
O1 C19 1_555 1_555
C19 H19 1_555 1_555
C20 N5 1_555 1_555
H20 C20 1_555 1_555
H21 C20 1_555 1_555
H22 C20 1_555 1_555
C21 N5 1_555 1_555
H23 C21 1_555 1_555
H24 C21 1_555 1_555
H25 C21 1_555 1_555
Hg1A N4 1_555 1_555
N4A Hg1 1_555 1_555
C1 C2 1_555 1_555
C4 C5 1_555 1_555
C10 C13 1_555 1_555
C11 C12 1_555 1_555
C14 C15 1_555 1_555
C17 C18 1_555 1_555

#END
