
#######################################################################
#
#                 Cambridge Crystallographic Data Centre
#                                CCDC 
#
#######################################################################
#
# If this CIF has been generated from an entry in the Cambridge 
# Structural Database, then it will include bibliographic, chemical, 
# crystal, experimental, refinement or atomic coordinate data resulting 
# from the CCDC's data processing and validation procedures.
#
#######################################################################

data_INOREJ
_symmetry_cell_setting           monoclinic
_symmetry_space_group_name_H-M   'P 21/c'
_symmetry_Int_Tables_number      14
_space_group_name_Hall           '-P 2ybc'
loop_
_symmetry_equiv_pos_site_id
_symmetry_equiv_pos_as_xyz
1 x,y,z
2 -x,1/2+y,1/2-z
3 -x,-y,-z
4 x,1/2-y,1/2+z
_cell_length_a                   8.5802(7)
_cell_length_b                   14.6849(13)
_cell_length_c                   19.1926(17)
_cell_angle_alpha                90
_cell_angle_beta                 92.141(2)
_cell_angle_gamma                90
_cell_volume                     2416.57
loop_
_atom_site_label
_atom_site_type_symbol
_atom_site_fract_x
_atom_site_fract_y
_atom_site_fract_z
Mo1 Mo 0.6998(1) 0.4727(1) 0.1241(1)
Mo2 Mo 0.3316(1) 0.4812(1) 0.0430(1)
Mo3 Mo 0.5662(1) 0.2842(1) 0.0584(1)
Mo4 Mo 0.7377(1) 0.7142(1) 0.0451(1)
Cu1 Cu 0.5989(1) 0.5933(1) 0.3057(1)
O1 O 0.6750(4) 0.7094(2) 0.2652(2)
O2 O 0.6979(4) 0.5245(2) 0.2047(2)
O3 O 0.8839(4) 0.4297(2) 0.1191(2)
O4 O 0.4368(3) 0.5154(2) 0.1179(2)
O5 O 0.5994(3) 0.3576(2) 0.1408(2)
O6 O 0.5955(3) 0.4293(2) 0.0219(2)
O7 O 0.1444(4) 0.5143(2) 0.0566(2)
O8 O 0.3290(3) 0.3526(2) 0.0559(2)
O9 O 0.4937(4) 0.1898(2) 0.0985(2)
O10 O 0.7550(4) 0.2577(2) 0.0391(2)
O11 O 0.4760(3) 0.2652(2) -0.0368(2)
O12 O 0.7177(4) 0.5745(2) 0.0605(2)
O13 O 0.7748(4) 0.7379(2) 0.1322(2)
O14 O 0.8087(4) 0.8058(2) 0.0014(2)
O15 O 0.9748(4) 0.6639(2) 0.0263(2)
N1 N 0.7954(4) 0.5491(3) 0.3518(2)
N2 N 0.5175(4) 0.4693(2) 0.3353(2)
N3 N 0.3832(4) 0.6082(2) 0.2675(2)
C1 C 0.6538(5) 0.4071(3) 0.3365(2)
C2 C 0.7969(5) 0.4582(3) 0.3634(2)
C3 C 0.9214(5) 0.4164(3) 0.3976(2)
C4 C 1.0469(5) 0.4690(3) 0.4212(2)
C5 C 1.0449(5) 0.5620(3) 0.4094(2)
C6 C 0.9164(5) 0.6000(3) 0.3742(2)
C7 C 0.3958(5) 0.4444(3) 0.2815(2)
C8 C 0.3039(5) 0.5289(3) 0.2606(2)
C9 C 0.4433(5) 0.4729(3) 0.4049(2)
C10 C 0.1510(5) 0.5271(3) 0.2342(2)
C11 C 0.0795(5) 0.6083(3) 0.2147(2)
C12 C 0.1609(5) 0.6893(3) 0.2232(3)
C13 C 0.3128(5) 0.6862(3) 0.2500(2)
C14 C 0.5494(5) 0.4937(3) 0.4677(2)
H1 H 0.6708 0.3840 0.2890
H2 H 0.6342 0.3544 0.3672
H3 H 0.9213 0.3524 0.4050
H4 H 1.1335 0.4415 0.4451
H5 H 1.1298 0.5992 0.4252
H6 H 0.9144 0.6638 0.3658
H7 H 0.3250 0.3981 0.3004
H8 H 0.4452 0.4183 0.2402
H9 H 0.3926 0.4134 0.4129
H10 H 0.3600 0.5195 0.4024
H11 H 0.0963 0.4710 0.2295
H12 H -0.0244 0.6085 0.1957
H13 H 0.1134 0.7458 0.2109
H14 H 0.3687 0.7416 0.2562
H15 H 0.6095 0.5499 0.4592
H16 H 0.6241 0.4431 0.4757
H17 H 0.7733 0.7060 0.2600
H18 H 0.6301 0.7182 0.2252
H19 H 1.0124 0.6929 -0.0077
H20 H 0.9710 0.6074 0.0163
Mo1B Mo 0.3002(1) 0.5273(1) -0.1241(1)
Mo2B Mo 0.6684(1) 0.5188(1) -0.0430(1)
Mo3B Mo 0.4338(1) 0.7158(1) -0.0584(1)
Mo4B Mo 0.2623(1) 0.2858(1) -0.0451(1)
Cu1B Cu 0.4011(1) 0.4067(1) 0.6943(1)
Cu1B_2 Cu 0.4011(1) 0.4067(1) -0.3057(1)
O1B O 0.3250(4) 0.2906(2) 0.7348(2)
O2B O 0.3021(4) 0.4755(2) -0.2047(2)
O2B_2 O 0.3021(4) 0.4755(2) 0.7953(2)
O3B O 0.1161(4) 0.5703(2) -0.1191(2)
O4B O 0.5632(3) 0.4846(2) -0.1179(2)
O5B O 0.4006(3) 0.6424(2) -0.1408(2)
O6B O 0.4045(3) 0.5707(2) -0.0219(2)
O7B O 0.8556(4) 0.4857(2) -0.0566(2)
O8B O 0.6710(3) 0.6474(2) -0.0559(2)
O9B O 0.5063(4) 0.8102(2) -0.0985(2)
O10B O 0.2450(4) 0.7423(2) -0.0391(2)
O11B O 0.5240(3) 0.7348(2) 0.0368(2)
O12B O 0.2823(4) 0.4255(2) -0.0605(2)
O13B O 0.2252(4) 0.2621(2) -0.1322(2)
O14B O 0.1913(4) 0.1942(2) -0.0014(2)
O15B O 0.0252(4) 0.3361(2) -0.0263(2)
N1B N 0.2046(4) 0.4509(3) 0.6482(2)
N2B N 0.4825(4) 0.5307(2) 0.6647(2)
N3B N 0.6168(4) 0.3918(2) 0.7325(2)
C1B C 0.3462(5) 0.5929(3) 0.6635(2)
C2B C 0.2031(5) 0.5418(3) 0.6366(2)
C3B C 0.0786(5) 0.5836(3) 0.6024(2)
C4B C -0.0469(5) 0.5310(3) 0.5788(2)
C5B C -0.0449(5) 0.4380(3) 0.5906(2)
C6B C 0.0836(5) 0.4000(3) 0.6258(2)
C7B C 0.6042(5) 0.5556(3) 0.7185(2)
C8B C 0.6961(5) 0.4711(3) 0.7394(2)
C9B C 0.5567(5) 0.5271(3) 0.5951(2)
C10B C 0.8490(5) 0.4729(3) 0.7658(2)
C11B C 0.9205(5) 0.3917(3) 0.7853(2)
C12B C 0.8391(5) 0.3107(3) 0.7768(3)
C13B C 0.6872(5) 0.3138(3) 0.7500(2)
C14B C 0.4506(5) 0.5063(3) 0.5323(2)
H1B H 0.3292 0.6160 0.7110
H2B H 0.3658 0.6456 0.6328
H3B H 0.0787 0.6476 0.5950
H4B H -0.1335 0.5585 0.5549
H5B H -0.1298 0.4008 0.5748
H6B H 0.0856 0.3362 0.6342
H7B H 0.6750 0.6019 0.6996
H8B H 0.5548 0.5817 0.7598
H9B H 0.6074 0.5866 0.5871
H10B H 0.6400 0.4805 0.5976
H11B H 0.9037 0.5290 0.7705
H12B H 1.0244 0.3915 0.8043
H13B H 0.8866 0.2542 0.7891
H14B H 0.6313 0.2584 0.7438
H15B H 0.3905 0.4501 0.5408
H16B H 0.3759 0.5569 0.5243
H17B H 0.2267 0.2940 0.7400
H18B H 0.3699 0.2818 0.7748
H19B H -0.0124 0.3071 0.0077
H20B H 0.0290 0.3926 -0.0163
O16 O 0.8643(4) 0.8164(2) 0.3401(2)
H21 H 0.9640 0.8190 0.3399
H22 H 0.8379 0.8017 0.3812
loop_
_geom_bond_atom_site_label_1
_geom_bond_atom_site_label_2
_geom_bond_site_symmetry_1
_geom_bond_site_symmetry_2
Mo1 O2 1_555 1_555
Mo2 O4 1_555 1_555
Mo3 O5 1_555 1_555
Mo4 O12 1_555 1_555
Cu1 O1 1_555 1_555
O1 H17 1_555 1_555
O2 Cu1 1_555 1_555
O3 Mo1 1_555 1_555
O4 Mo1 1_555 1_555
O5 Mo1 1_555 1_555
O6 Mo1 1_555 1_555
O7 Mo2 1_555 1_555
O8 Mo2 1_555 1_555
O9 Mo3 1_555 1_555
O10 Mo3 1_555 1_555
O11 Mo3 1_555 1_555
O12 Mo1 1_555 1_555
O13 Mo4 1_555 1_555
O14 Mo4 1_555 1_555
O15 Mo4 1_555 1_555
O16 H21 1_555 1_555
N1 Cu1 1_555 1_555
N2 Cu1 1_555 1_555
N3 Cu1 1_555 1_555
C1 N2 1_555 1_555
C2 N1 1_555 1_555
C3 C2 1_555 1_555
C4 C3 1_555 1_555
C5 C4 1_555 1_555
C6 N1 1_555 1_555
C7 N2 1_555 1_555
C8 N3 1_555 1_555
C9 N2 1_555 1_555
C10 C8 1_555 1_555
C11 C10 1_555 1_555
C12 C11 1_555 1_555
C13 N3 1_555 1_555
C14 C9 1_555 1_555
H1 C1 1_555 1_555
H2 C1 1_555 1_555
H3 C3 1_555 1_555
H4 C4 1_555 1_555
H5 C5 1_555 1_555
H6 C6 1_555 1_555
H7 C7 1_555 1_555
H8 C7 1_555 1_555
H9 C9 1_555 1_555
H10 C9 1_555 1_555
H11 C10 1_555 1_555
H12 C11 1_555 1_555
H13 C12 1_555 1_555
H14 C13 1_555 1_555
H15 C14 1_555 1_555
H16 C14 1_555 1_555
H18 O1 1_555 1_555
H19 O15 1_555 1_555
H20 O15 1_555 1_555
H22 O16 1_555 1_555
Mo1B O2B 1_555 1_555
Mo2B O6 1_555 1_555
Mo3B O5B 1_555 1_555
Mo4B O8 1_555 1_555
Cu1B O1B 1_555 1_555
Cu1B_2 O2B 1_555 1_555
O1B H17B 1_555 1_555
O2B_2 Cu1B 1_555 1_555
O3B Mo1B 1_555 1_555
O4B Mo1B 1_555 1_555
O5B Mo1B 1_555 1_555
O6B Mo2 1_555 1_555
O7B Mo2B 1_555 1_555
O8B Mo4 1_555 1_555
O9B Mo3B 1_555 1_555
O10B Mo3B 1_555 1_555
O11B Mo4 1_555 1_555
O12B Mo2 1_555 1_555
O13B Mo4B 1_555 1_555
O14B Mo4B 1_555 1_555
O15B Mo4B 1_555 1_555
N1B Cu1B 1_555 1_555
N2B Cu1B 1_555 1_555
N3B Cu1B 1_555 1_555
C1B N2B 1_555 1_555
C2B N1B 1_555 1_555
C3B C2B 1_555 1_555
C4B C3B 1_555 1_555
C5B C4B 1_555 1_555
C6B N1B 1_555 1_555
C7B N2B 1_555 1_555
C8B N3B 1_555 1_555
C9B N2B 1_555 1_555
C10B C8B 1_555 1_555
C11B C10B 1_555 1_555
C12B C11B 1_555 1_555
C13B N3B 1_555 1_555
C14B C14 1_555 1_555
H1B C1B 1_555 1_555
H2B C1B 1_555 1_555
H3B C3B 1_555 1_555
H4B C4B 1_555 1_555
H5B C5B 1_555 1_555
H6B C6B 1_555 1_555
H7B C7B 1_555 1_555
H8B C7B 1_555 1_555
H9B C9B 1_555 1_555
H10B C9B 1_555 1_555
H11B C10B 1_555 1_555
H12B C11B 1_555 1_555
H13B C12B 1_555 1_555
H14B C13B 1_555 1_555
H15B C14B 1_555 1_555
H16B C14B 1_555 1_555
H18B O1B 1_555 1_555
H19B O15B 1_555 1_555
H20B O15B 1_555 1_555
Mo2 O6 1_555 1_555
Mo3 O6 1_555 1_555
Mo3 O8 1_555 1_555
O11 Mo4B 1_555 1_555
O12 Mo2B 1_555 1_555
C1 C2 1_555 1_555
C5 C6 1_555 1_555
C7 C8 1_555 1_555
C12 C13 1_555 1_555
Mo1B O6B 1_555 1_555
Mo1B O12B 1_555 1_555
Mo2B O4B 1_555 1_555
Mo2B O6B 1_555 1_555
Mo2B O8B 1_555 1_555
Mo3B O6B 1_555 1_555
Mo3B O8B 1_555 1_555
Mo3B O11B 1_555 1_555
Mo4B O12B 1_555 1_555
C1B C2B 1_555 1_555
C5B C6B 1_555 1_555
C7B C8B 1_555 1_555
C9B C14B 1_555 1_555
C12B C13B 1_555 1_555

#END
