
#######################################################################
#
#                 Cambridge Crystallographic Data Centre
#                                CCDC 
#
#######################################################################
#
# If this CIF has been generated from an entry in the Cambridge 
# Structural Database, then it will include bibliographic, chemical, 
# crystal, experimental, refinement or atomic coordinate data resulting 
# from the CCDC's data processing and validation procedures.
#
#######################################################################

data_INORIN
_symmetry_cell_setting           triclinic
_symmetry_space_group_name_H-M   'P -1'
_symmetry_Int_Tables_number      2
_space_group_name_Hall           '-P 1'
loop_
_symmetry_equiv_pos_site_id
_symmetry_equiv_pos_as_xyz
1 x,y,z
2 -x,-y,-z
_cell_length_a                   11.2656(8)
_cell_length_b                   13.2991(9)
_cell_length_c                   13.9617(10)
_cell_angle_alpha                81.357(1)
_cell_angle_beta                 68.281(1)
_cell_angle_gamma                84.776(1)
_cell_volume                     1919.78
loop_
_atom_site_label
_atom_site_type_symbol
_atom_site_fract_x
_atom_site_fract_y
_atom_site_fract_z
Mo1 Mo 0.4231(1) 0.4135(1) 0.4701(1)
Mo2 Mo 0.7162(1) 0.2732(1) 0.4489(1)
Mo3 Mo 0.6799(1) 0.4178(1) 0.2486(1)
Mo4 Mo 0.5333(1) 0.3560(1) 0.6688(1)
Mo5 Mo 0.6493(1) 0.1559(1) 0.9486(1)
Cu1 Cu 0.7980(1) 0.3619(1) 0.7735(1)
Cu2 Cu 0.5523(1) -0.0217(1) 0.8165(1)
O1 O 0.6728(6) 0.3743(5) 0.6886(5)
O2 O 0.4324(7) 0.3022(5) 0.7860(5)
O3 O 0.3794(6) 0.3600(5) 0.6007(5)
O4 O 0.5907(6) 0.2471(5) 0.5868(5)
O5 O 0.3961(6) 0.5538(5) 0.4891(5)
O6 O 0.2997(6) 0.3865(5) 0.4358(5)
O7 O 0.5576(6) 0.3208(5) 0.4024(5)
O8 O 0.5304(6) 0.4974(5) 0.3175(5)
O9 O 0.6548(7) 0.3418(6) 0.1696(5)
O10 O 0.7711(7) 0.5124(6) 0.1665(6)
O11 O 0.7924(6) 0.3542(5) 0.3093(5)
O12 O 0.7521(6) 0.1519(5) 0.4169(5)
O13 O 0.8379(6) 0.3022(5) 0.4843(5)
O14 O 0.6653(6) 0.2824(5) 0.8852(5)
O15 O 0.6051(6) 0.0749(5) 0.8779(5)
O16 O 0.7946(6) 0.1119(5) 0.9589(5)
O17 O 0.5299(6) 0.1554(5) 1.0725(5)
N1 N 0.9699(7) 0.4229(6) 0.7350(6)
N2 N 0.9026(8) 0.2474(6) 0.7025(6)
N3 N 0.7379(8) 0.4878(6) 0.8378(6)
N4 N 0.5274(7) -0.0840(6) 0.7022(6)
N5 N 0.3773(7) 0.0369(6) 0.8369(6)
N6 N 0.7184(7) -0.0993(6) 0.7745(6)
C1 C 1.0680(9) 0.3380(7) 0.7217(8)
C2 C 1.0292(8) 0.2526(7) 0.6814(6)
C3 C 1.1161(9) 0.1824(8) 0.6262(7)
C4 C 1.0710(10) 0.1032(8) 0.5944(8)
C5 C 0.9420(11) 0.0979(8) 0.6170(8)
C6 C 0.8585(9) 0.1723(7) 0.6702(7)
C7 C 0.9574(9) 0.4767(8) 0.8254(7)
C8 C 0.8253(9) 0.5266(7) 0.8656(7)
C9 C 0.7937(10) 0.6024(8) 0.9286(8)
C10 C 0.6701(11) 0.6443(8) 0.9605(8)
C11 C 0.5819(10) 0.6100(7) 0.9260(8)
C12 C 0.6195(9) 0.5312(7) 0.8658(8)
C13 C 0.9992(9) 0.4977(7) 0.6396(7)
C14 C 0.9863(8) 0.4586(6) 0.5465(6)
C15 C 0.5526(9) -0.0343(7) 0.5110(7)
C16 C 0.5763(9) -0.0092(7) 0.6071(7)
C17 C 0.3890(8) -0.0987(7) 0.7372(7)
C18 C 0.3147(9) -0.0137(7) 0.7949(7)
C19 C 0.1879(9) 0.0084(8) 0.8084(8)
C20 C 0.1205(10) 0.0826(8) 0.8727(8)
C21 C 0.1837(10) 0.1336(8) 0.9166(8)
C22 C 0.3125(10) 0.1089(8) 0.8972(7)
C23 C 0.6061(8) -0.1817(7) 0.6913(7)
C24 C 0.7225(9) -0.1722(6) 0.7134(7)
C25 C 0.8284(9) -0.2377(8) 0.6804(8)
C26 C 0.9291(9) -0.2322(8) 0.7151(8)
C27 C 0.9208(10) -0.1595(8) 0.7802(8)
C28 C 0.8152(9) -0.0945(7) 0.8067(7)
H1 H 1.0772 0.3131 0.7891
H2 H 1.1517 0.3627 0.6721
H3 H 1.2052 0.1878 0.6100
H4 H 1.1292 0.0537 0.5575
H5 H 0.9100 0.0443 0.5967
H6 H 0.7696 0.1703 0.6839
H7 H 1.0228 0.5288 0.8034
H8 H 0.9714 0.4273 0.8812
H9 H 0.8559 0.6259 0.9502
H10 H 0.6460 0.6957 1.0054
H11 H 0.4980 0.6399 0.9434
H12 H 0.5591 0.5066 0.8431
H13 H 1.0878 0.5196 0.6194
H14 H 0.9414 0.5584 0.6562
H15 H 1.0468 0.3998 0.5269
H16 H 0.8986 0.4350 0.5661
H17 H 0.5285 -0.1061 0.5228
H18 H 0.6327 -0.0264 0.4495
H19 H 0.5359 0.0584 0.6236
H20 H 0.6695 -0.0042 0.5885
H21 H 0.3650 -0.1015 0.6762
H22 H 0.3678 -0.1641 0.7829
H23 H 0.1468 -0.0258 0.7749
H24 H 0.0323 0.0972 0.8855
H25 H 0.1405 0.1846 0.9595
H26 H 0.3565 0.1442 0.9275
H27 H 0.6302 -0.1990 0.6198
H28 H 0.5550 -0.2374 0.7401
H29 H 0.8325 -0.2856 0.6350
H30 H 1.0020 -0.2771 0.6947
H31 H 0.9872 -0.1551 0.8058
H32 H 0.8108 -0.0442 0.8496
Mo1A Mo 0.5769(1) 0.5865(1) 0.5299(1)
Mo2A Mo 0.2838(1) 0.7268(1) 0.5511(1)
Mo3A Mo 0.3201(1) 0.5822(1) 0.7514(1)
Mo4A Mo 0.4667(1) 0.6440(1) 0.3312(1)
Mo5A Mo 0.3507(1) 0.8441(1) 0.0514(1)
Cu1A Cu 0.2020(1) 0.6381(1) 0.2265(1)
Cu1A_2 Cu 1.2020(1) 0.6381(1) 0.2265(1)
Cu2A Cu 0.4477(1) 1.0217(1) 0.1835(1)
Cu2A_2 Cu 0.4477(1) 0.0217(1) 1.1835(1)
Cu2A_3 Cu 0.4477(1) 0.0217(1) 0.1835(1)
Cu2_2 Cu 0.5523(1) 0.9783(1) -0.1835(1)
O1A O 0.3272(6) 0.6257(5) 0.3114(5)
O2A O 0.5676(7) 0.6978(5) 0.2140(5)
O3A O 0.6206(6) 0.6400(5) 0.3993(5)
O4A O 0.4093(6) 0.7529(5) 0.4132(5)
O5A O 0.6039(6) 0.4462(5) 0.5109(5)
O6A O 0.7003(6) 0.6135(5) 0.5642(5)
O7A O 0.4424(6) 0.6792(5) 0.5976(5)
O8A O 0.4696(6) 0.5026(5) 0.6825(5)
O9A O 0.3452(7) 0.6582(6) 0.8304(5)
O10A O 0.2289(7) 0.4876(6) 0.8335(6)
O11A O 0.2076(6) 0.6458(5) 0.6907(5)
O12A O 0.2479(6) 0.8481(5) 0.5831(5)
O13A O 0.1621(6) 0.6978(5) 0.5157(5)
O14A O 0.3347(6) 0.7176(5) 0.1148(5)
O15A O 0.3949(6) 0.9251(5) 0.1221(5)
O16A O 0.2054(6) 0.8881(5) 0.0411(5)
O17A O 0.4701(6) 0.8446(5) -0.0725(5)
O17A_2 O 0.4701(6) -0.1554(5) 0.9275(5)
O17_2 O 0.5299(6) 1.1554(5) 0.0725(5)
N1A N 1.0301(7) 0.5771(6) 0.2650(6)
N1A_2 N 0.0301(7) 0.5771(6) 0.2650(6)
N2A N 1.0974(8) 0.7526(6) 0.2975(6)
N2A_2 N 0.0974(8) 0.7526(6) 0.2975(6)
N3A N 1.2621(8) 0.5122(6) 0.1622(6)
N3A_2 N 0.2621(8) 0.5122(6) 0.1622(6)
N4A N 0.4726(7) 0.0840(6) 0.2978(6)
N4A_2 N 0.4726(7) 1.0840(6) 0.2978(6)
N5A N 0.6227(7) -0.0369(6) 0.1631(6)
N5A_2 N 0.6227(7) 0.9631(6) 0.1631(6)
N6A N 0.2816(7) 0.0993(6) 0.2255(6)
N6A_2 N 0.2816(7) 1.0993(6) 0.2255(6)
C1A C 0.9320(9) 0.6620(7) 0.2783(8)
C2A C 0.9708(8) 0.7474(7) 0.3186(6)
C3A C 0.8839(9) 0.8176(8) 0.3738(7)
C4A C 0.9290(10) 0.8968(8) 0.4056(8)
C5A C 1.0580(11) 0.9021(8) 0.3830(8)
C6A C 1.1415(9) 0.8277(7) 0.3298(7)
C7A C 1.0426(9) 0.5233(8) 0.1746(7)
C8A C 1.1747(9) 0.4734(7) 0.1344(7)
C9A C 1.2063(10) 0.3976(8) 0.0714(8)
C10A C 1.3299(11) 0.3557(8) 0.0395(8)
C11A C 1.4181(10) 0.3900(7) 0.0740(8)
C12A C 1.3805(9) 0.4688(7) 0.1342(8)
C13A C 1.0008(9) 0.5023(7) 0.3604(7)
C14A C 1.0137(8) 0.5414(6) 0.4535(6)
C15A C 0.4474(9) 0.0343(7) 0.4890(7)
C16A C 0.4237(9) 0.0092(7) 0.3929(7)
C17A C 0.6110(8) 0.0987(7) 0.2628(7)
C18A C 0.6853(9) 0.0137(7) 0.2051(7)
C19A C 0.8121(9) -0.0084(8) 0.1916(8)
C20A C 0.8795(10) -0.0826(8) 0.1273(8)
C21A C 0.8163(10) -0.1336(8) 0.0834(8)
C22A C 0.6875(10) -0.1089(8) 0.1028(7)
C23A C 0.3939(8) 0.1817(7) 0.3087(7)
C24A C 0.2775(9) 0.1722(6) 0.2866(7)
C25A C 0.1716(9) 0.2377(8) 0.3196(8)
C26A C 0.0709(9) 0.2322(8) 0.2849(8)
C27A C 0.0792(10) 0.1595(8) 0.2198(8)
C28A C 0.1848(9) 0.0945(7) 0.1933(7)
H1A H 0.9228 0.6869 0.2109
H2A H 0.8483 0.6373 0.3279
H3A H 0.7948 0.8122 0.3900
H4A H 0.8708 0.9463 0.4425
H5A H 1.0900 0.9557 0.4033
H6A H 1.2304 0.8297 0.3161
H7A H 0.9772 0.4712 0.1966
H8A H 1.0286 0.5727 0.1188
H9A H 1.1441 0.3741 0.0498
H10A H 1.3540 0.3043 -0.0054
H11A H 1.5020 0.3601 0.0566
H12A H 1.4409 0.4934 0.1569
H13A H 0.9122 0.4804 0.3806
H14A H 1.0586 0.4416 0.3438
H15A H 0.9532 0.6002 0.4731
H16A H 1.1014 0.5650 0.4339
H17A H 0.4715 0.1061 0.4772
H18A H 0.3673 0.0264 0.5505
H19A H 0.4641 -0.0584 0.3764
H20A H 0.3305 0.0042 0.4115
H21A H 0.6350 0.1015 0.3238
H22A H 0.6322 0.1641 0.2171
H23A H 0.8532 0.0258 0.2251
H24A H 0.9677 -0.0972 0.1145
H25A H 0.8595 -0.1846 0.0405
H26A H 0.6435 -0.1442 0.0725
H27A H 0.3698 0.1990 0.3802
H28A H 0.4450 0.2374 0.2599
H29A H 0.1675 0.2856 0.3650
H30A H -0.0020 0.2771 0.3053
H31A H 0.0128 0.1551 0.1942
H32A H 0.1892 0.0442 0.1504
O18 O 0.9069(9) 0.2635(9) 0.0192(9)
H33 H 0.8400(60) 0.290(12) 0.060(12)
H34 H 0.8770(80) 0.2240(60) -0.0080(70)
loop_
_geom_bond_atom_site_label_1
_geom_bond_atom_site_label_2
_geom_bond_site_symmetry_1
_geom_bond_site_symmetry_2
Mo1 O3 1_555 1_555
Mo2 O4 1_555 1_555
Mo3 O7 1_555 1_555
Mo4 O1 1_555 1_555
Mo5 O14 1_555 1_555
Cu1 O1 1_555 1_555
Cu2 O15 1_555 1_555
O2 Mo4 1_555 1_555
O3 Mo4 1_555 1_555
O4 Mo4 1_555 1_555
O5 Mo1 1_555 1_555
O6 Mo1 1_555 1_555
O7 Mo1 1_555 1_555
O8 Mo1 1_555 1_555
O9 Mo3 1_555 1_555
O10 Mo3 1_555 1_555
O11 Mo2 1_555 1_555
O12 Mo2 1_555 1_555
O13 Mo2 1_555 1_555
O14 Cu1 1_555 1_555
O15 Mo5 1_555 1_555
O16 Mo5 1_555 1_555
O17 Mo5 1_555 1_555
O18 H33 1_555 1_555
N1 Cu1 1_555 1_555
N2 Cu1 1_555 1_555
N3 Cu1 1_555 1_555
N4 Cu2 1_555 1_555
N5 Cu2 1_555 1_555
N6 Cu2 1_555 1_555
C1 N1 1_555 1_555
C2 N2 1_555 1_555
C3 C2 1_555 1_555
C4 C3 1_555 1_555
C5 C4 1_555 1_555
C6 N2 1_555 1_555
C7 N1 1_555 1_555
C8 N3 1_555 1_555
C9 C8 1_555 1_555
C10 C9 1_555 1_555
C11 C10 1_555 1_555
C12 N3 1_555 1_555
C13 N1 1_555 1_555
C14 C13 1_555 1_555
C15 C16 1_555 1_555
C16 N4 1_555 1_555
C17 N4 1_555 1_555
C18 N5 1_555 1_555
C19 C18 1_555 1_555
C20 C19 1_555 1_555
C21 C20 1_555 1_555
C22 N5 1_555 1_555
C23 N4 1_555 1_555
C24 N6 1_555 1_555
C25 C24 1_555 1_555
C26 C25 1_555 1_555
C27 C26 1_555 1_555
C28 N6 1_555 1_555
H1 C1 1_555 1_555
H2 C1 1_555 1_555
H3 C3 1_555 1_555
H4 C4 1_555 1_555
H5 C5 1_555 1_555
H6 C6 1_555 1_555
H7 C7 1_555 1_555
H8 C7 1_555 1_555
H9 C9 1_555 1_555
H10 C10 1_555 1_555
H11 C11 1_555 1_555
H12 C12 1_555 1_555
H13 C13 1_555 1_555
H14 C13 1_555 1_555
H15 C14 1_555 1_555
H16 C14 1_555 1_555
H17 C15 1_555 1_555
H18 C15 1_555 1_555
H19 C16 1_555 1_555
H20 C16 1_555 1_555
H21 C17 1_555 1_555
H22 C17 1_555 1_555
H23 C19 1_555 1_555
H24 C20 1_555 1_555
H25 C21 1_555 1_555
H26 C22 1_555 1_555
H27 C23 1_555 1_555
H28 C23 1_555 1_555
H29 C25 1_555 1_555
H30 C26 1_555 1_555
H31 C27 1_555 1_555
H32 C28 1_555 1_555
H34 O18 1_555 1_555
Mo1A O5 1_555 1_555
Mo2A O4A 1_555 1_555
Mo3A O7A 1_555 1_555
Mo4A O5 1_555 1_555
Mo5A O14A 1_555 1_555
Cu1A O1A 1_555 1_555
Cu1A_2 N1A 1_555 1_555
Cu2A O15A 1_555 1_555
Cu2A_2 O17 1_555 1_555
Cu2A_3 N4A 1_555 1_555
Cu2_2 O17A 1_555 1_555
O1A Mo4A 1_555 1_555
O2A Mo4A 1_555 1_555
O3A Mo1A 1_555 1_555
O4A Mo4A 1_555 1_555
O5A Mo1 1_555 1_555
O6A Mo1A 1_555 1_555
O7A Mo1A 1_555 1_555
O8A Mo4 1_555 1_555
O9A Mo3A 1_555 1_555
O10A Mo3A 1_555 1_555
O11A Mo2A 1_555 1_555
O12A Mo2A 1_555 1_555
O13A Mo2A 1_555 1_555
O14A Cu1A 1_555 1_555
O15A Mo5A 1_555 1_555
O16A Mo5A 1_555 1_555
O17A Mo5A 1_555 1_555
O17A_2 Cu2 1_555 1_555
O17_2 Cu2A 1_555 1_555
N1A C1A 1_555 1_555
N1A_2 Cu1A 1_555 1_555
N2A Cu1A_2 1_555 1_555
N2A_2 Cu1A 1_555 1_555
N3A Cu1A_2 1_555 1_555
N3A_2 Cu1A 1_555 1_555
N4A C16A 1_555 1_555
N4A_2 Cu2A 1_555 1_555
N5A Cu2A_3 1_555 1_555
N5A_2 Cu2A 1_555 1_555
N6A Cu2A_3 1_555 1_555
N6A_2 Cu2A 1_555 1_555
C1A C2A 1_555 1_555
C2A N2A 1_555 1_555
C3A C2A 1_555 1_555
C4A C3A 1_555 1_555
C5A C4A 1_555 1_555
C6A N2A 1_555 1_555
C7A N1A 1_555 1_555
C8A N3A 1_555 1_555
C9A C8A 1_555 1_555
C10A C9A 1_555 1_555
C11A C10A 1_555 1_555
C12A N3A 1_555 1_555
C13A N1A 1_555 1_555
C14A C14 1_555 1_555
C15A C15 1_555 1_555
C16A C15A 1_555 1_555
C17A N4A 1_555 1_555
C18A N5A 1_555 1_555
C19A C18A 1_555 1_555
C20A C19A 1_555 1_555
C21A C20A 1_555 1_555
C22A N5A 1_555 1_555
C23A N4A 1_555 1_555
C24A N6A 1_555 1_555
C25A C24A 1_555 1_555
C26A C25A 1_555 1_555
C27A C26A 1_555 1_555
C28A N6A 1_555 1_555
H1A C1A 1_555 1_555
H2A C1A 1_555 1_555
H3A C3A 1_555 1_555
H4A C4A 1_555 1_555
H5A C5A 1_555 1_555
H6A C6A 1_555 1_555
H7A C7A 1_555 1_555
H8A C7A 1_555 1_555
H9A C9A 1_555 1_555
H10A C10A 1_555 1_555
H11A C11A 1_555 1_555
H12A C12A 1_555 1_555
H13A C13A 1_555 1_555
H14A C13A 1_555 1_555
H15A C14A 1_555 1_555
H16A C14A 1_555 1_555
H17A C15A 1_555 1_555
H18A C15A 1_555 1_555
H19A C16A 1_555 1_555
H20A C16A 1_555 1_555
H21A C17A 1_555 1_555
H22A C17A 1_555 1_555
H23A C19A 1_555 1_555
H24A C20A 1_555 1_555
H25A C21A 1_555 1_555
H26A C22A 1_555 1_555
H27A C23A 1_555 1_555
H28A C23A 1_555 1_555
H29A C25A 1_555 1_555
H30A C26A 1_555 1_555
H31A C27A 1_555 1_555
H32A C28A 1_555 1_555
Mo2 O7 1_555 1_555
Mo3 O8 1_555 1_555
Mo3 O11 1_555 1_555
Mo4 O5A 1_555 1_555
O8 Mo4A 1_555 1_555
C1 C2 1_555 1_555
C5 C6 1_555 1_555
C7 C8 1_555 1_555
C11 C12 1_555 1_555
C17 C18 1_555 1_555
C21 C22 1_555 1_555
C23 C24 1_555 1_555
C27 C28 1_555 1_555
Mo1A O5A 1_555 1_555
Mo1A O8A 1_555 1_555
Mo2A O7A 1_555 1_555
Mo3A O8A 1_555 1_555
Mo3A O11A 1_555 1_555
Mo4A O3A 1_555 1_555
C5A C6A 1_555 1_555
C7A C8A 1_555 1_555
C11A C12A 1_555 1_555
C13A C14A 1_555 1_555
C17A C18A 1_555 1_555
C21A C22A 1_555 1_555
C23A C24A 1_555 1_555
C27A C28A 1_555 1_555

#END
