
#######################################################################
#
#                 Cambridge Crystallographic Data Centre
#                                CCDC 
#
#######################################################################
#
# If this CIF has been generated from an entry in the Cambridge 
# Structural Database, then it will include bibliographic, chemical, 
# crystal, experimental, refinement or atomic coordinate data resulting 
# from the CCDC's data processing and validation procedures.
#
#######################################################################

data_INOSIO
_symmetry_cell_setting           monoclinic
_symmetry_space_group_name_H-M   'P 21/n'
_symmetry_Int_Tables_number      14
_space_group_name_Hall           '-P 2yn'
loop_
_symmetry_equiv_pos_site_id
_symmetry_equiv_pos_as_xyz
1 x,y,z
2 1/2-x,1/2+y,1/2-z
3 -x,-y,-z
4 1/2+x,1/2-y,1/2+z
_cell_length_a                   12.3986(6)
_cell_length_b                   16.9364(8)
_cell_length_c                   17.5528(8)
_cell_angle_alpha                90
_cell_angle_beta                 105.206(1)
_cell_angle_gamma                90
_cell_volume                     3556.83
loop_
_atom_site_label
_atom_site_type_symbol
_atom_site_fract_x
_atom_site_fract_y
_atom_site_fract_z
Si1 Si 1.5000 0.5000 0.0000
Mo1 Mo 1.33578(8) 0.41369(6) -0.17521(5)
Mo2 Mo 1.41026(7) 0.33398(5) 0.08699(5)
Mo3 Mo 1.30286(8) 0.61561(6) -0.13519(5)
Mo4 Mo 1.43552(7) 0.69131(5) 0.05532(5)
Mo5 Mo 1.38754(6) 0.52479(5) 0.16310(4)
Mo6 Mo 1.21223(7) 0.46975(5) -0.02270(6)
O1 O 1.2578(8) 0.6311(6) 0.3701(7)
O2 O 1.4124(10) 0.4686(7) 0.0462(6)
O3 O 1.4705(9) 0.5903(7) -0.0296(7)
O4 O 1.5071(9) 0.4449(6) -0.0732(7)
O5 O 1.6268(9) 0.5005(7) 0.0650(6)
O6 O 1.2992(12) 0.5281(5) -0.1952(8)
O7 O 1.4008(8) 0.4195(5) 0.1648(6)
O8 O 1.4566(7) 0.2862(9) 0.0102(5)
O9 O 1.2373(12) 0.4108(5) -0.1164(7)
O10 O 1.2769(9) 0.3681(5) 0.0276(6)
O11 O 1.4180(7) 0.3290(6) -0.1333(6)
O12 O 1.3291(7) 0.6798(8) -0.0362(5)
O13 O 1.5697(7) 0.3430(8) 0.1483(5)
O14 O 1.2053(12) 0.5596(5) -0.0788(7)
O15 O 1.2492(8) 0.5126(5) 0.0745(6)
O16 O 1.4701(6) 0.4518(6) -0.2101(6)
O17 O 1.3757(9) 0.2580(5) 0.1353(5)
O18 O 1.4176(8) 0.7828(5) 0.0808(7)
O19 O 1.3703(7) 0.6344(6) 0.1175(6)
O20 O 1.2061(7) 0.6708(5) -0.1944(4)
O21 O 1.2595(7) 0.3801(6) -0.2613(4)
O22 O 1.0782(6) 0.4482(5) -0.0360(5)
O23 O 1.3248(7) 0.5413(5) 0.2355(4)
Cd1 Cd 1.16814(7) 0.51875(4) 0.29594(4)
N1 N 1.0802(8) 0.6165(6) 0.2141(6)
N2 N 0.9782(8) 0.7195(5) 0.1827(5)
N3 N 1.0623(10) 0.7296(7) 0.1462(7)
N4 N 0.6238(11) 0.9650(8) 0.1126(7)
N5 N 0.6091(10) 1.0347(8) 0.0762(7)
N6 N 0.4794(9) 1.0107(6) 0.1434(6)
N7 N 1.1287(8) 0.4047(5) 0.2260(5)
N8 N 1.1377(10) 0.2773(6) 0.1937(7)
N9 N 1.0819(7) 0.3188(5) 0.1307(5)
N10 N 0.8951(9) 0.0863(7) 0.0094(6)
N11 N 0.9716(11) 0.0873(8) -0.0342(8)
N12 N 0.7980(10) 0.0450(6) -0.1052(6)
C1 C 1.1195(11) 0.6658(8) 0.1675(8)
H1 H 1.1838 0.6547 0.1516
C2 C 0.9912(9) 0.6524(7) 0.2220(7)
H2 H 0.9438 0.6336 0.2511
C3 C 0.8931(13) 0.7802(9) 0.1788(8)
H3 H 0.9301 0.8292 0.1990
H4 H 0.8469 0.7648 0.2131
C4 C 0.8209(13) 0.7944(10) 0.0998(9)
H5 H 0.8634 0.8218 0.0687
H6 H 0.7974 0.7441 0.0746
C5 C 0.7092(17) 0.8470(11) 0.1001(12)
H7 H 0.6741 0.8266 0.1393
H8 H 0.6556 0.8443 0.0488
C6 C 0.7417(19) 0.9216(11) 0.1170(12)
H9 H 0.7925 0.9259 0.1693
H10 H 0.7772 0.9431 0.0785
C7 C 0.5488(13) 0.9498(9) 0.1523(9)
H11 H 0.5454 0.9043 0.1813
C8 C 0.5195(12) 1.0599(9) 0.0963(8)
H12 H 0.4861 1.1081 0.0792
C9 C 1.1633(13) 0.3309(8) 0.2488(8)
H13 H 1.2027 0.3190 0.3003
C10 C 1.0767(9) 0.3937(6) 0.1509(7)
H14 H 1.0412 0.4333 0.1167
C11 C 1.0337(10) 0.2803(7) 0.0544(7)
H15 H 1.0393 0.3159 0.0123
H16 H 1.0769 0.2334 0.0506
C12 C 0.9148(10) 0.2576(7) 0.0430(7)
H17 H 0.8729 0.3049 0.0475
H18 H 0.8868 0.2381 -0.0105
C13 C 0.8895(13) 0.1965(8) 0.0983(7)
H19 H 0.8092 0.1953 0.0910
H20 H 0.9228 0.2140 0.1520
C14 C 0.9253(15) 0.1189(9) 0.0913(8)
H21 H 1.0060 0.1171 0.1116
H22 H 0.8937 0.0848 0.1243
C15 C 0.9101(14) 0.0608(8) -0.1034(9)
H23 H 0.9387 0.0534 -0.1468
C16 C 0.7925(13) 0.0677(8) -0.0343(8)
H24 H 0.7275 0.0703 -0.0173
Mo1B Mo 1.66422(8) 0.58631(6) 0.17521(5)
Mo2B Mo 1.58974(7) 0.66602(5) -0.08699(5)
Mo3B Mo 1.69714(8) 0.38439(6) 0.13519(5)
Mo4B Mo 1.56448(7) 0.30869(5) -0.05532(5)
Mo5B Mo 1.61246(6) 0.47521(5) -0.16310(4)
Mo6B Mo 1.78777(7) 0.53025(5) 0.02270(6)
O1B O 1.7422(8) 0.3689(6) -0.3701(7)
O2B O 1.5876(10) 0.5314(7) -0.0462(6)
O3B O 1.5295(9) 0.4097(7) 0.0296(7)
O4B O 1.4929(9) 0.5551(6) 0.0732(7)
O5B O 1.3732(9) 0.4995(7) -0.0650(6)
O6B O 1.7008(12) 0.4719(5) 0.1952(8)
O7B O 1.5992(8) 0.5805(5) -0.1648(6)
O8B O 1.5434(7) 0.7138(9) -0.0102(5)
O9B O 1.7627(12) 0.5892(5) 0.1164(7)
O10B O 1.7231(9) 0.6319(5) -0.0276(6)
O11B O 1.5820(7) 0.6710(6) 0.1333(6)
O12B O 1.6709(7) 0.3202(8) 0.0362(5)
O13B O 1.4303(7) 0.6570(8) -0.1483(5)
O14B O 1.7947(12) 0.4404(5) 0.0788(7)
O15B O 1.7508(8) 0.4874(5) -0.0745(6)
O16B O 1.5299(6) 0.5482(6) 0.2101(6)
O17B O 1.6243(9) 0.7420(5) -0.1353(5)
O18B O 1.5824(8) 0.2172(5) -0.0808(7)
O19B O 1.6297(7) 0.3656(6) -0.1175(6)
O20B O 1.7939(7) 0.3292(5) 0.1944(4)
O21B O 1.7405(7) 0.6199(6) 0.2613(4)
O22B O 1.9218(6) 0.5518(5) 0.0360(5)
O23B O 1.6752(7) 0.4587(5) -0.2355(4)
Cd1B Cd 1.83186(7) 0.48125(4) -0.29594(4)
Cd1A Cd 0.33186(7) 1.01875(4) 0.20406(4)
Cd1C Cd 0.66814(7) -0.01875(4) -0.20406(4)
Cd1A_2 Cd 0.33186(7) 0.01875(4) 0.20406(4)
Cd1C_2 Cd 1.66814(7) -0.01875(4) 0.79594(4)
N1A N 0.4198(8) 0.1165(6) 0.2859(6)
N1B N 1.9198(8) 0.3835(6) -0.2141(6)
N2A N 0.5218(8) 0.2195(5) 0.3173(5)
N3A N 0.4377(10) 0.2296(7) 0.3538(7)
N4A N 0.8762(11) 0.4650(8) 0.3874(7)
N5A N 0.8909(10) 0.5347(8) 0.4238(7)
N6A N 1.0206(9) 0.5107(6) 0.3566(6)
N6C N 1.9794(9) 0.4893(6) -0.3566(6)
N7C N 1.6287(8) 0.0953(5) 0.7260(5)
N7B N 1.8713(8) 0.5953(5) -0.2260(5)
N8C N 1.6377(10) 0.2227(6) 0.6937(7)
N9C N 1.5819(7) 0.1812(5) 0.6307(5)
N10C N 1.3951(9) 0.4137(7) 0.5094(6)
N11C N 1.4716(11) 0.4127(8) 0.4658(8)
N12C N 1.2980(10) 0.4550(6) 0.3948(6)
N12A N 1.7020(10) 0.5450(6) -0.3948(6)
C1A C 0.3805(11) 0.1658(8) 0.3325(8)
H1A H 0.3162 0.1547 0.3484
C2A C 0.5088(9) 0.1524(7) 0.2780(7)
H2A H 0.5562 0.1336 0.2489
C3A C 0.6069(13) 0.2802(9) 0.3212(8)
H3A H 0.5699 0.3292 0.3010
H4A H 0.6531 0.2648 0.2869
C4A C 0.6791(13) 0.2944(10) 0.4002(9)
H5A H 0.6366 0.3218 0.4313
H6A H 0.7026 0.2441 0.4254
C5A C 0.7908(17) 0.3470(11) 0.3999(12)
H7A H 0.8259 0.3266 0.3607
H8A H 0.8444 0.3443 0.4512
C6A C 0.7583(19) 0.4216(11) 0.3830(12)
H9A H 0.7075 0.4259 0.3307
H10A H 0.7228 0.4431 0.4215
C7A C 0.9512(13) 0.4498(9) 0.3477(9)
H11A H 0.9546 0.4043 0.3187
C8A C 0.9805(12) 0.5599(9) 0.4037(8)
H12A H 1.0139 0.6081 0.4208
C9C C 1.6633(13) 0.1691(8) 0.7488(8)
H13C H 1.7027 0.1810 0.8003
C10C C 1.5767(9) 0.1063(6) 0.6509(7)
H14C H 1.5412 0.0667 0.6167
C11C C 1.5337(10) 0.2197(7) 0.5544(7)
H15C H 1.5393 0.1841 0.5123
H16C H 1.5769 0.2666 0.5506
C12C C 1.4148(10) 0.2424(7) 0.5430(7)
H17C H 1.3729 0.1951 0.5475
H18C H 1.3868 0.2619 0.4895
C13C C 1.3895(13) 0.3035(8) 0.5983(7)
H19C H 1.3092 0.3047 0.5910
H20C H 1.4228 0.2860 0.6520
C14C C 1.4253(15) 0.3811(9) 0.5913(8)
H21C H 1.5060 0.3829 0.6116
H22C H 1.3937 0.4152 0.6243
C15C C 1.4101(14) 0.4392(8) 0.3966(9)
H23C H 1.4387 0.4466 0.3532
C16C C 1.2925(13) 0.4323(8) 0.4657(8)
H24C H 1.2275 0.4297 0.4827
loop_
_geom_bond_atom_site_label_1
_geom_bond_atom_site_label_2
_geom_bond_site_symmetry_1
_geom_bond_site_symmetry_2
Si1 O2 1_555 1_555
Mo1 O4 1_555 1_555
Mo2 O2 1_555 1_555
Mo3 O3 1_555 1_555
Mo4 O3 1_555 1_555
Mo5 O2 1_555 1_555
Mo6 O2 1_555 1_555
O1 Cd1 1_555 1_555
O3 Si1 1_555 1_555
O4 Si1 1_555 1_555
O5 Si1 1_555 1_555
O6 Mo1 1_555 1_555
O7 Mo2 1_555 1_555
O8 Mo2 1_555 1_555
O9 Mo1 1_555 1_555
O10 Mo2 1_555 1_555
O11 Mo1 1_555 1_555
O12 Mo3 1_555 1_555
O13 Mo2 1_555 1_555
O14 Mo3 1_555 1_555
O15 Mo5 1_555 1_555
O16 Mo1 1_555 1_555
O17 Mo2 1_555 1_555
O18 Mo4 1_555 1_555
O19 Mo4 1_555 1_555
O20 Mo3 1_555 1_555
O21 Mo1 1_555 1_555
O22 Mo6 1_555 1_555
O23 Mo5 1_555 1_555
Cd1 O23 1_555 1_555
N1 Cd1 1_555 1_555
N2 N3 1_555 1_555
N3 C1 1_555 1_555
N4 N5 1_555 1_555
N5 C8 1_555 1_555
N6 C7 1_555 1_555
N7 Cd1 1_555 1_555
N8 N9 1_555 1_555
N9 C10 1_555 1_555
N10 N11 1_555 1_555
N11 C15 1_555 1_555
N12 C15 1_555 1_555
C1 N1 1_555 1_555
H1 C1 1_555 1_555
C2 N1 1_555 1_555
H2 C2 1_555 1_555
C3 N2 1_555 1_555
H3 C3 1_555 1_555
H4 C3 1_555 1_555
C4 C3 1_555 1_555
H5 C4 1_555 1_555
H6 C4 1_555 1_555
C5 C4 1_555 1_555
H7 C5 1_555 1_555
H8 C5 1_555 1_555
C6 N4 1_555 1_555
H9 C6 1_555 1_555
H10 C6 1_555 1_555
C7 N4 1_555 1_555
H11 C7 1_555 1_555
C8 N6 1_555 1_555
H12 C8 1_555 1_555
C9 N7 1_555 1_555
H13 C9 1_555 1_555
C10 N7 1_555 1_555
H14 C10 1_555 1_555
C11 N9 1_555 1_555
H15 C11 1_555 1_555
H16 C11 1_555 1_555
C12 C11 1_555 1_555
H17 C12 1_555 1_555
H18 C12 1_555 1_555
C13 C12 1_555 1_555
H19 C13 1_555 1_555
H20 C13 1_555 1_555
C14 N10 1_555 1_555
H21 C14 1_555 1_555
H22 C14 1_555 1_555
C15 H23 1_555 1_555
C16 N10 1_555 1_555
H24 C16 1_555 1_555
Mo1B O5 1_555 1_555
Mo2B O3 1_555 1_555
Mo3B O5 1_555 1_555
Mo4B O4 1_555 1_555
Mo5B O4 1_555 1_555
Mo6B O5 1_555 1_555
O1B Cd1B 1_555 1_555
O2B Si1 1_555 1_555
O3B Si1 1_555 1_555
O4B Si1 1_555 1_555
O5B Si1 1_555 1_555
O6B Mo1B 1_555 1_555
O7B Mo2B 1_555 1_555
O8B Mo4 1_555 1_555
O9B Mo1B 1_555 1_555
O10B Mo2B 1_555 1_555
O11B Mo4 1_555 1_555
O12B Mo3B 1_555 1_555
O13B Mo3 1_555 1_555
O14B Mo3B 1_555 1_555
O15B Mo5B 1_555 1_555
O16B Mo5 1_555 1_555
O17B Mo2B 1_555 1_555
O18B Mo4B 1_555 1_555
O19B Mo4B 1_555 1_555
O20B Mo3B 1_555 1_555
O21B Mo1B 1_555 1_555
O22B Mo6B 1_555 1_555
O23B Mo5B 1_555 1_555
Cd1B O23B 1_555 1_555
Cd1A N6 1_555 1_555
Cd1C N12 1_555 1_555
Cd1A_2 N1A 1_555 1_555
Cd1C_2 N7C 1_555 1_555
N1A C1A 1_555 1_555
N1B Cd1B 1_555 1_555
N2A N3A 1_555 1_555
N3A C1A 1_555 1_555
N4A N5A 1_555 1_555
N5A C8A 1_555 1_555
N6A Cd1 1_555 1_555
N6C Cd1B 1_555 1_555
N7C C9C 1_555 1_555
N7B Cd1B 1_555 1_555
N8C N9C 1_555 1_555
N9C C10C 1_555 1_555
N10C N11C 1_555 1_555
N11C C15C 1_555 1_555
N12C Cd1 1_555 1_555
N12A Cd1B 1_555 1_555
C1A H1A 1_555 1_555
C2A N1A 1_555 1_555
H2A C2A 1_555 1_555
C3A N2A 1_555 1_555
H3A C3A 1_555 1_555
H4A C3A 1_555 1_555
C4A C3A 1_555 1_555
H5A C4A 1_555 1_555
H6A C4A 1_555 1_555
C5A C4A 1_555 1_555
H7A C5A 1_555 1_555
H8A C5A 1_555 1_555
C6A N4A 1_555 1_555
H9A C6A 1_555 1_555
H10A C6A 1_555 1_555
C7A N4A 1_555 1_555
H11A C7A 1_555 1_555
C8A N6A 1_555 1_555
H12A C8A 1_555 1_555
C9C N8C 1_555 1_555
H13C C9C 1_555 1_555
C10C N7C 1_555 1_555
H14C C10C 1_555 1_555
C11C N9C 1_555 1_555
H15C C11C 1_555 1_555
H16C C11C 1_555 1_555
C12C C11C 1_555 1_555
H17C C12C 1_555 1_555
H18C C12C 1_555 1_555
C13C C12C 1_555 1_555
H19C C13C 1_555 1_555
H20C C13C 1_555 1_555
C14C N10C 1_555 1_555
H21C C14C 1_555 1_555
H22C C14C 1_555 1_555
C15C N12C 1_555 1_555
H23C C15C 1_555 1_555
C16C N10C 1_555 1_555
H24C C16C 1_555 1_555
Mo1 O5B 1_555 1_555
Mo2 O3B 1_555 1_555
Mo3 O6 1_555 1_555
Mo3 O5B 1_555 1_555
Mo4 O12 1_555 1_555
Mo4 O4B 1_555 1_555
Mo5 O7 1_555 1_555
Mo5 O19 1_555 1_555
Mo5 O4B 1_555 1_555
Mo6 O9 1_555 1_555
Mo6 O10 1_555 1_555
Mo6 O14 1_555 1_555
Mo6 O15 1_555 1_555
Mo6 O5B 1_555 1_555
O8 Mo4B 1_555 1_555
O11 Mo4B 1_555 1_555
O13 Mo3B 1_555 1_555
O16 Mo5B 1_555 1_555
N2 C2 1_555 1_555
N8 C9 1_555 1_555
N12 C16 1_555 1_555
C5 C6 1_555 1_555
C13 C14 1_555 1_555
Mo1B O4B 1_555 1_555
Mo1B O11B 1_555 1_555
Mo1B O16B 1_555 1_555
Mo2B O2B 1_555 1_555
Mo2B O8B 1_555 1_555
Mo2B O13B 1_555 1_555
Mo3B O3B 1_555 1_555
Mo3B O6B 1_555 1_555
Mo4B O3B 1_555 1_555
Mo4B O12B 1_555 1_555
Mo5B O2B 1_555 1_555
Mo5B O7B 1_555 1_555
Mo5B O19B 1_555 1_555
Mo6B O2B 1_555 1_555
Mo6B O9B 1_555 1_555
Mo6B O10B 1_555 1_555
Mo6B O14B 1_555 1_555
Mo6B O15B 1_555 1_555
N2A C2A 1_555 1_555
N6A C7A 1_555 1_555
N12C C16C 1_555 1_555
C5A C6A 1_555 1_555
C13C C14C 1_555 1_555

#END
