
#######################################################################
#
#                 Cambridge Crystallographic Data Centre
#                                CCDC 
#
#######################################################################
#
# If this CIF has been generated from an entry in the Cambridge 
# Structural Database, then it will include bibliographic, chemical, 
# crystal, experimental, refinement or atomic coordinate data resulting 
# from the CCDC's data processing and validation procedures.
#
#######################################################################

data_INOTUB
_symmetry_cell_setting           monoclinic
_symmetry_space_group_name_H-M   'P 21'
_symmetry_Int_Tables_number      4
_space_group_name_Hall           'P 2yb'
loop_
_symmetry_equiv_pos_site_id
_symmetry_equiv_pos_as_xyz
1 x,y,z
2 -x,1/2+y,-z
_cell_length_a                   10.7244(17)
_cell_length_b                   22.3770(18)
_cell_length_c                   13.8234(16)
_cell_angle_alpha                90
_cell_angle_beta                 96.030(13)
_cell_angle_gamma                90
_cell_volume                     3298.98
loop_
_atom_site_label
_atom_site_type_symbol
_atom_site_fract_x
_atom_site_fract_y
_atom_site_fract_z
Cd1 Cd -0.27188(11) 0.425516(19) 0.76787(9)
Cd2 Cd 0.23142(11) 0.30172(2) 0.26615(8)
O1 O 0.1820(9) 0.3830(5) 0.3617(8)
O2 O 0.2344(9) 0.2997(5) 0.4400(7)
O3 O -0.1145(13) 0.4735(6) 0.6831(11)
O4 O -0.0690(11) 0.3879(5) 0.7574(8)
O5 O -0.5982(11) 0.2581(5) 1.1847(10)
O6 O -0.5665(9) 0.3414(6) 1.2660(8)
O7 O -0.2664(10) 0.4230(6) 0.9354(8)
O8 O -0.3207(11) 0.3402(5) 0.8607(7)
N1 N -0.3678(13) 0.5138(6) 0.7606(10)
N2 N -0.4162(10) 0.6025(5) 0.6873(8)
N3 N -0.5477(8) 0.8071(4) 0.4517(6)
N4 N -0.6247(11) 0.8803(6) 0.3663(10)
N5 N 0.1348(11) 0.2101(5) 0.2539(8)
N6 N 0.0905(10) 0.1203(5) 0.1970(8)
N7 N -0.0534(9) -0.0846(4) -0.0325(7)
N8 N -0.1387(10) -0.1543(5) -0.1349(9)
C1 C 0.2080(11) 0.3815(5) 0.5408(9)
H1 H 0.2594 0.4182 0.5331
C2 C 0.0666(6) 0.4112(3) 0.5501(5)
C3 C 0.0835(8) 0.4308(4) 0.6594(7)
C4 C 0.1732(10) 0.3746(5) 0.7041(9)
H2 H 0.2234 0.3865 0.7652
H3 H 0.1215 0.3395 0.7171
C5 C 0.2619(9) 0.3600(4) 0.6215(7)
H4 H 0.3453 0.3785 0.6375
H5 H 0.2731 0.3162 0.6158
C6 C 0.2081(10) 0.3533(5) 0.4430(8)
C7 C -0.0384(10) 0.4345(5) 0.7030(8)
C8 C 0.0196(9) 0.4606(4) 0.4870(8)
H6 H -0.0643 0.4720 0.5023
H7 H 0.0154 0.4480 0.4188
H8 H 0.0763 0.4949 0.4975
C9 C -0.0191(7) 0.3541(3) 0.5378(6)
H9 H -0.1065 0.3655 0.5423
H10 H 0.0076 0.3253 0.5893
H11 H -0.0117 0.3358 0.4742
C10 C 0.1564(14) 0.4804(6) 0.6792(12)
H12 H 0.1097 0.5161 0.6558
H13 H 0.2328 0.4770 0.6463
H14 H 0.1791 0.4835 0.7495
C11 C -0.3992(9) 0.3124(4) 1.1737(7)
C12 C -0.4084(8) 0.3598(4) 1.0894(7)
C13 C -0.2977(10) 0.3316(5) 1.0326(8)
H15 H -0.2225 0.3492 1.0712
C14 C -0.2678(9) 0.2741(4) 1.0372(7)
H16 H -0.1784 0.2682 1.0611
H17 H -0.2863 0.2543 0.9734
C15 C -0.3632(13) 0.2496(6) 1.1184(11)
H18 H -0.4391 0.2302 1.0855
H19 H -0.3193 0.2211 1.1651
C16 C -0.5307(11) 0.3058(5) 1.2148(9)
C17 C -0.2929(13) 0.3654(6) 0.9325(12)
C18 C -0.4032(10) 0.4232(5) 1.1265(8)
H20 H -0.4799 0.4322 1.1565
H21 H -0.3961 0.4507 1.0721
H22 H -0.3303 0.4280 1.1748
C19 C -0.5247(7) 0.3507(4) 1.0161(6)
H23 H -0.5990 0.3659 1.0438
H24 H -0.5355 0.3080 1.0018
H25 H -0.5139 0.3724 0.9560
C20 C -0.3029(12) 0.3250(6) 1.2424(10)
H26 H -0.2252 0.3291 1.2115
H27 H -0.2937 0.2926 1.2903
H28 H -0.3203 0.3625 1.2751
C21 C -0.3974(11) 0.5456(5) 0.6770(10)
H29 H -0.4040 0.5271 0.6148
C22 C -0.3782(11) 0.5548(5) 0.8356(9)
H30 H -0.3685 0.5464 0.9033
C23 C -0.4054(16) 0.6108(8) 0.7927(13)
H31 H -0.4152 0.6473 0.8260
C24 C -0.4404(12) 0.6528(5) 0.6265(9)
H32 H -0.4019 0.6461 0.5654
H33 H -0.3990 0.6881 0.6591
C25 C -0.5738(12) 0.6665(5) 0.6020(9)
C26 C -0.6729(9) 0.6364(4) 0.6421(7)
H34 H -0.6532 0.6038 0.6849
C27 C -0.7974(9) 0.6529(4) 0.6212(7)
H35 H -0.8613 0.6306 0.6476
C28 C -0.8278(10) 0.7004(4) 0.5635(8)
H36 H -0.9136 0.7105 0.5483
C29 C -0.7370(10) 0.7346(5) 0.5261(8)
H37 H -0.7592 0.7700 0.4903
C30 C -0.6127(12) 0.7163(5) 0.5418(9)
C31 C -0.5091(9) 0.7461(4) 0.4820(7)
H38 H -0.4278 0.7475 0.5231
H39 H -0.4983 0.7215 0.4239
C32 C -0.5971(12) 0.8256(6) 0.3730(10)
H40 H -0.6139 0.7995 0.3190
C33 C -0.5976(9) 0.9022(5) 0.4584(8)
H41 H -0.5962 0.9435 0.4742
C34 C -0.5738(11) 0.8595(5) 0.5221(10)
H42 H -0.5726 0.8601 0.5909
C35 C 0.1181(11) 0.1786(6) 0.1712(10)
H43 H 0.1241 0.1932 0.1073
C36 C 0.1261(12) 0.1669(5) 0.3239(10)
H44 H 0.1399 0.1749 0.3917
C37 C 0.0976(16) 0.1152(8) 0.2890(13)
H45 H 0.0843 0.0799 0.3248
C38 C 0.0611(11) 0.0792(5) 0.1114(9)
H46 H 0.1104 0.0420 0.1238
H47 H 0.0901 0.0984 0.0533
C39 C -0.0771(13) 0.0620(6) 0.0876(10)
C40 C -0.1652(9) 0.1010(4) 0.1173(7)
H48 H -0.1392 0.1354 0.1542
C41 C -0.2936(8) 0.0896(4) 0.0926(7)
H49 H -0.3559 0.1149 0.1146
C42 C -0.3265(10) 0.0393(4) 0.0344(7)
H50 H -0.4125 0.0304 0.0165
C43 C -0.2347(9) 0.0027(4) 0.0028(7)
H51 H -0.2579 -0.0310 -0.0368
C44 C -0.1073(12) 0.0154(6) 0.0291(9)
C45 C -0.0097(10) -0.0266(5) 0.0029(8)
H52 H 0.0358 -0.0076 -0.0476
H53 H 0.0512 -0.0327 0.0610
C46 C -0.0894(12) -0.0971(6) -0.1374(10)
H54 H -0.0808 -0.0723 -0.1920
C47 C -0.1328(9) -0.1737(4) -0.0369(7)
H55 H -0.1704 -0.2080 -0.0116
C48 C -0.0531(11) -0.1273(6) 0.0170(11)
H56 H -0.0097 -0.1315 0.0802
Cd1A Cd -0.72812(11) 0.925516(19) 0.23213(9)
Cd2_2 Cd -0.76858(11) 0.30172(2) 1.26615(8)
Cd2A Cd -0.23142(11) -0.19828(2) -0.26615(8)
O5_2 O 0.4018(11) 0.2581(5) 0.1847(10)
O6_2 O 0.4335(9) 0.3414(6) 0.2660(8)
N4A N -0.3753(11) 0.3803(6) 0.6337(10)
N8A N 0.1387(10) 0.3457(5) 0.1349(9)
loop_
_geom_bond_atom_site_label_1
_geom_bond_atom_site_label_2
_geom_bond_site_symmetry_1
_geom_bond_site_symmetry_2
Cd1 O3 1_555 1_555
Cd2 O1 1_555 1_555
O1 C6 1_555 1_555
O2 Cd2 1_555 1_555
O3 C7 1_555 1_555
O4 Cd1 1_555 1_555
O5 C16 1_555 1_555
O6 C16 1_555 1_555
O7 Cd1 1_555 1_555
O8 Cd1 1_555 1_555
N1 Cd1 1_555 1_555
N2 C21 1_555 1_555
N3 C31 1_555 1_555
N4 C32 1_555 1_555
N5 Cd2 1_555 1_555
N6 C35 1_555 1_555
N7 C45 1_555 1_555
N8 C46 1_555 1_555
C1 H1 1_555 1_555
C2 C1 1_555 1_555
C3 C2 1_555 1_555
C4 C3 1_555 1_555
H2 C4 1_555 1_555
H3 C4 1_555 1_555
C5 C1 1_555 1_555
H4 C5 1_555 1_555
H5 C5 1_555 1_555
C6 O2 1_555 1_555
C7 O4 1_555 1_555
C8 C2 1_555 1_555
H6 C8 1_555 1_555
H7 C8 1_555 1_555
H8 C8 1_555 1_555
C9 C2 1_555 1_555
H9 C9 1_555 1_555
H10 C9 1_555 1_555
H11 C9 1_555 1_555
C10 C3 1_555 1_555
H12 C10 1_555 1_555
H13 C10 1_555 1_555
H14 C10 1_555 1_555
C11 C12 1_555 1_555
C12 C13 1_555 1_555
C13 H15 1_555 1_555
C14 C13 1_555 1_555
H16 C14 1_555 1_555
H17 C14 1_555 1_555
C15 C11 1_555 1_555
H18 C15 1_555 1_555
H19 C15 1_555 1_555
C16 C11 1_555 1_555
C17 O7 1_555 1_555
C18 C12 1_555 1_555
H20 C18 1_555 1_555
H21 C18 1_555 1_555
H22 C18 1_555 1_555
C19 C12 1_555 1_555
H23 C19 1_555 1_555
H24 C19 1_555 1_555
H25 C19 1_555 1_555
C20 C11 1_555 1_555
H26 C20 1_555 1_555
H27 C20 1_555 1_555
H28 C20 1_555 1_555
C21 N1 1_555 1_555
H29 C21 1_555 1_555
C22 N1 1_555 1_555
H30 C22 1_555 1_555
C23 N2 1_555 1_555
H31 C23 1_555 1_555
C24 N2 1_555 1_555
H32 C24 1_555 1_555
H33 C24 1_555 1_555
C25 C24 1_555 1_555
C26 C25 1_555 1_555
H34 C26 1_555 1_555
C27 C26 1_555 1_555
H35 C27 1_555 1_555
C28 C27 1_555 1_555
H36 C28 1_555 1_555
C29 C28 1_555 1_555
H37 C29 1_555 1_555
C30 C25 1_555 1_555
C31 C30 1_555 1_555
H38 C31 1_555 1_555
H39 C31 1_555 1_555
C32 N3 1_555 1_555
H40 C32 1_555 1_555
C33 N4 1_555 1_555
H41 C33 1_555 1_555
C34 N3 1_555 1_555
H42 C34 1_555 1_555
C35 N5 1_555 1_555
H43 C35 1_555 1_555
C36 N5 1_555 1_555
H44 C36 1_555 1_555
C37 N6 1_555 1_555
H45 C37 1_555 1_555
C38 N6 1_555 1_555
H46 C38 1_555 1_555
H47 C38 1_555 1_555
C39 C38 1_555 1_555
C40 C39 1_555 1_555
H48 C40 1_555 1_555
C41 C40 1_555 1_555
H49 C41 1_555 1_555
C42 C41 1_555 1_555
H50 C42 1_555 1_555
C43 C42 1_555 1_555
H51 C43 1_555 1_555
C44 C39 1_555 1_555
C45 C44 1_555 1_555
H52 C45 1_555 1_555
H53 C45 1_555 1_555
C46 N7 1_555 1_555
H54 C46 1_555 1_555
C47 N8 1_555 1_555
H55 C47 1_555 1_555
C48 N7 1_555 1_555
H56 C48 1_555 1_555
Cd1A N4 1_555 1_555
Cd2_2 O5 1_555 1_555
Cd2A N8 1_555 1_555
O5_2 Cd2 1_555 1_555
O6_2 Cd2 1_555 1_555
N4A Cd1 1_555 1_555
N8A Cd2 1_555 1_555
O6 Cd2_2 1_555 1_555
O8 C17 1_555 1_555
C1 C6 1_555 1_555
C3 C7 1_555 1_555
C4 C5 1_555 1_555
C13 C17 1_555 1_555
C14 C15 1_555 1_555
C22 C23 1_555 1_555
C29 C30 1_555 1_555
C33 C34 1_555 1_555
C36 C37 1_555 1_555
C43 C44 1_555 1_555
C47 C48 1_555 1_555

#END
