
#######################################################################
#
#                 Cambridge Crystallographic Data Centre
#                                CCDC 
#
#######################################################################
#
# If this CIF has been generated from an entry in the Cambridge 
# Structural Database, then it will include bibliographic, chemical, 
# crystal, experimental, refinement or atomic coordinate data resulting 
# from the CCDC's data processing and validation procedures.
#
#######################################################################

data_INOTOV
_symmetry_cell_setting           monoclinic
_symmetry_space_group_name_H-M   'P 21'
_symmetry_Int_Tables_number      4
_space_group_name_Hall           'P 2yb'
loop_
_symmetry_equiv_pos_site_id
_symmetry_equiv_pos_as_xyz
1 x,y,z
2 -x,1/2+y,-z
_cell_length_a                   10.489(2)
_cell_length_b                   15.229(3)
_cell_length_c                   14.460(3)
_cell_angle_alpha                90
_cell_angle_beta                 91.35(3)
_cell_angle_gamma                90
_cell_volume                     2309.16
loop_
_atom_site_label
_atom_site_type_symbol
_atom_site_fract_x
_atom_site_fract_y
_atom_site_fract_z
Co1 Co 0.31056(9) 0.45739(11) 0.29551(8)
Co2 Co -0.18893(9) 0.95736(10) 0.20669(8)
O1 O -0.0828(7) 0.8540(5) 0.1288(5)
O2 O 0.0089(6) 0.9423(5) 0.2286(5)
O3 O 0.3378(6) 0.6099(6) 0.3213(5)
O4 O 0.2542(8) 0.5515(6) 0.1970(6)
O5 O 0.4301(5) 0.3586(4) 0.3744(4)
O6 O 0.5048(6) 0.4421(4) 0.2679(5)
O7 O 0.8376(6) 0.1157(5) 0.1751(6)
O8 O 0.7664(7) 0.0526(5) 0.2995(7)
N1 N -0.2684(8) 0.8592(6) 0.2841(7)
N2 N -0.3393(6) 0.7316(6) 0.3338(6)
N3 N 0.0574(8) 0.5050(6) 0.5116(7)
N4 N 0.1884(6) 0.4626(7) 0.4040(5)
N5 N 0.6789(6) -0.0379(7) 0.0996(5)
N6 N 0.5469(7) 0.0040(6) -0.0134(6)
N7 N 0.1659(7) 0.2359(5) 0.1543(5)
N8 N 0.2347(9) 0.3624(9) 0.2168(8)
C1 C 0.0173(8) 0.8809(7) 0.1739(7)
C2 C 0.1452(9) 0.8326(8) 0.1614(7)
C3 C 0.1752(8) 0.7603(7) 0.2379(6)
C4 C 0.2822(8) 0.7095(8) 0.1940(7)
H1 H 0.3644 0.7418 0.2040
C5 C 0.2506(12) 0.7047(8) 0.0903(8)
H2 H 0.2233 0.6447 0.0725
H3 H 0.3255 0.7212 0.0538
C6 C 0.1412(17) 0.7707(13) 0.0746(8)
H4 H 0.0583 0.7399 0.0694
H5 H 0.1539 0.8048 0.0173
C7 C 0.2919(8) 0.6164(8) 0.2416(8)
C8 C 0.0548(9) 0.7089(8) 0.2644(7)
H6 H 0.0771 0.6657 0.3124
H7 H 0.0197 0.6785 0.2098
H8 H -0.0090 0.7497 0.2880
C9 C 0.2263(10) 0.8050(8) 0.3279(8)
H9 H 0.2440 0.7601 0.3750
H10 H 0.1623 0.8460 0.3505
H11 H 0.3050 0.8370 0.3150
C10 C 0.2514(11) 0.9008(8) 0.1570(12)
H12 H 0.2305 0.9438 0.1085
H13 H 0.3319 0.8715 0.1428
H14 H 0.2602 0.9308 0.2167
C11 C 0.5210(7) 0.3827(5) 0.3260(6)
C12 C 0.6491(7) 0.3350(6) 0.3333(6)
C13 C 0.6502(12) 0.2456(10) 0.2848(13)
C14 C 0.7817(7) 0.2110(6) 0.2994(7)
H15 H 0.7951 0.2023 0.3675
C15 C 0.8758(19) 0.2782(11) 0.2698(15)
H16 H 0.9016 0.2713 0.2047
H17 H 0.9517 0.2824 0.3116
C16 C 0.757(3) 0.3699(12) 0.287(2)
H18 H 0.7964 0.4176 0.3239
H19 H 0.7294 0.3944 0.2260
C17 C 0.7969(8) 0.1224(9) 0.2542(9)
C18 C 0.6879(14) 0.3194(12) 0.4328(12)
H20 H 0.6889 0.3754 0.4662
H21 H 0.7733 0.2932 0.4358
H22 H 0.6269 0.2795 0.4612
C19 C 0.5557(13) 0.2108(14) 0.245(2)
H23 H 0.5085 0.1760 0.2900
H24 H 0.5845 0.1726 0.1954
H25 H 0.4999 0.2567 0.2192
C20 C 0.682(2) 0.2929(16) 0.1650(17)
H26 H 0.6869 0.2449 0.1201
H27 H 0.7626 0.3253 0.1668
H28 H 0.6123 0.3326 0.1467
C21 C -0.2717(9) 0.7735(6) 0.2680(8)
H29 H -0.2323 0.7454 0.2175
C22 C -0.3285(10) 0.8715(8) 0.3669(9)
H30 H -0.3366 0.9259 0.3983
C23 C -0.3767(10) 0.7891(8) 0.3979(9)
H31 H -0.4243 0.7777 0.4517
C24 C -0.3638(9) 0.6378(7) 0.3368(8)
H32 H -0.3171 0.6085 0.2867
H33 H -0.4560 0.6270 0.3261
C25 C -0.3226(9) 0.5986(7) 0.4289(8)
C26 C -0.4090(9) 0.5618(8) 0.4855(8)
H34 H -0.4969 0.5621 0.4682
C27 C -0.3700(11) 0.5240(9) 0.5682(9)
H35 H -0.4303 0.4946 0.6052
C28 C -0.2445(10) 0.5285(8) 0.5974(8)
H36 H -0.2196 0.5077 0.6571
C29 C -0.1567(8) 0.5630(7) 0.5405(7)
C30 C -0.1951(9) 0.6007(7) 0.4580(8)
H37 H -0.1340 0.6286 0.4205
C31 C -0.0153(8) 0.5646(7) 0.5713(7)
H38 H 0.0186 0.6251 0.5664
H39 H -0.0064 0.5456 0.6366
C32 C 0.1431(9) 0.5298(8) 0.4497(8)
H40 H 0.1683 0.5890 0.4399
C33 C 0.1290(13) 0.3894(9) 0.4409(10)
H41 H 0.1441 0.3302 0.4237
C34 C 0.0454(11) 0.4165(9) 0.5058(10)
H42 H -0.0102 0.3805 0.5402
C35 C 0.6321(8) 0.0287(7) 0.0560(7)
H43 H 0.6537 0.0879 0.0699
C36 C 0.6215(14) -0.1108(9) 0.0553(12)
H44 H 0.6411 -0.1703 0.0692
C37 C 0.5387(16) -0.0857(9) -0.0068(12)
H45 H 0.4824 -0.1226 -0.0416
C38 C 0.4743(9) 0.0637(7) -0.0750(7)
H46 H 0.4830 0.0442 -0.1399
H47 H 0.5106 0.1236 -0.0697
C39 C 0.3336(8) 0.0665(6) -0.0518(6)
C40 C 0.2956(9) 0.1093(9) 0.0297(9)
H48 H 0.3566 0.1389 0.0680
C41 C 0.1696(11) 0.1074(10) 0.0530(11)
C42 C 0.0788(9) 0.0679(7) -0.0013(11)
H49 H -0.0082 0.0687 0.0155
C43 C 0.1154(11) 0.0268(9) -0.0812(10)
H50 H 0.0534 -0.0016 -0.1198
C44 C 0.2444(11) 0.0268(7) -0.1060(8)
H51 H 0.2689 -0.0015 -0.1613
C45 C 0.1391(10) 0.1416(8) 0.1523(11)
H52 H 0.0485 0.1307 0.1660
H53 H 0.1929 0.1108 0.1992
C46 C 0.2247(10) 0.2762(9) 0.2310(10)
H54 H 0.2533 0.2464 0.2853
C47 C 0.1796(10) 0.3724(10) 0.1271(9)
H55 H 0.1714 0.4274 0.0965
C48 C 0.1410(11) 0.2979(10) 0.0906(10)
H56 H 0.1029 0.2896 0.0310
Co2_2 Co 0.81107(9) -0.04264(10) 0.20669(8)
O7_2 O -0.1624(6) 1.1157(5) 0.1751(6)
O8_2 O -0.2336(7) 1.0526(5) 0.2995(7)
N5_2 N -0.3211(6) 0.9621(7) 0.0996(5)
loop_
_geom_bond_atom_site_label_1
_geom_bond_atom_site_label_2
_geom_bond_site_symmetry_1
_geom_bond_site_symmetry_2
Co1 O3 1_555 1_555
Co2 O1 1_555 1_555
O1 C1 1_555 1_555
O2 Co2 1_555 1_555
O3 C7 1_555 1_555
O4 Co1 1_555 1_555
O5 Co1 1_555 1_555
O6 Co1 1_555 1_555
O7 C17 1_555 1_555
O8 C17 1_555 1_555
N1 Co2 1_555 1_555
N2 C21 1_555 1_555
N3 C31 1_555 1_555
N4 Co1 1_555 1_555
N5 C35 1_555 1_555
N6 C35 1_555 1_555
N7 C45 1_555 1_555
N8 Co1 1_555 1_555
C1 O2 1_555 1_555
C2 C1 1_555 1_555
C3 C2 1_555 1_555
C4 C3 1_555 1_555
H1 C4 1_555 1_555
C5 C4 1_555 1_555
H2 C5 1_555 1_555
H3 C5 1_555 1_555
C6 C2 1_555 1_555
H4 C6 1_555 1_555
H5 C6 1_555 1_555
C7 O4 1_555 1_555
C8 C3 1_555 1_555
H6 C8 1_555 1_555
H7 C8 1_555 1_555
H8 C8 1_555 1_555
C9 C3 1_555 1_555
H9 C9 1_555 1_555
H10 C9 1_555 1_555
H11 C9 1_555 1_555
C10 C2 1_555 1_555
H12 C10 1_555 1_555
H13 C10 1_555 1_555
H14 C10 1_555 1_555
C11 O5 1_555 1_555
C12 C11 1_555 1_555
C13 C12 1_555 1_555
C14 C13 1_555 1_555
H15 C14 1_555 1_555
C15 C14 1_555 1_555
H16 C15 1_555 1_555
H17 C15 1_555 1_555
C16 C12 1_555 1_555
H18 C16 1_555 1_555
H19 C16 1_555 1_555
C17 C14 1_555 1_555
C18 C12 1_555 1_555
H20 C18 1_555 1_555
H21 C18 1_555 1_555
H22 C18 1_555 1_555
C19 C13 1_555 1_555
H23 C19 1_555 1_555
H24 C19 1_555 1_555
H25 C19 1_555 1_555
C20 C13 1_555 1_555
H26 C20 1_555 1_555
H27 C20 1_555 1_555
H28 C20 1_555 1_555
C21 N1 1_555 1_555
H29 C21 1_555 1_555
C22 N1 1_555 1_555
H30 C22 1_555 1_555
C23 N2 1_555 1_555
H31 C23 1_555 1_555
C24 N2 1_555 1_555
H32 C24 1_555 1_555
H33 C24 1_555 1_555
C25 C24 1_555 1_555
C26 C25 1_555 1_555
H34 C26 1_555 1_555
C27 C26 1_555 1_555
H35 C27 1_555 1_555
C28 C27 1_555 1_555
H36 C28 1_555 1_555
C29 C28 1_555 1_555
C30 C25 1_555 1_555
H37 C30 1_555 1_555
C31 C29 1_555 1_555
H38 C31 1_555 1_555
H39 C31 1_555 1_555
C32 N3 1_555 1_555
H40 C32 1_555 1_555
C33 N4 1_555 1_555
H41 C33 1_555 1_555
C34 N3 1_555 1_555
H42 C34 1_555 1_555
C35 H43 1_555 1_555
C36 N5 1_555 1_555
H44 C36 1_555 1_555
C37 N6 1_555 1_555
H45 C37 1_555 1_555
C38 N6 1_555 1_555
H46 C38 1_555 1_555
H47 C38 1_555 1_555
C39 C38 1_555 1_555
C40 C39 1_555 1_555
H48 C40 1_555 1_555
C41 C40 1_555 1_555
C42 C41 1_555 1_555
H49 C42 1_555 1_555
C43 C42 1_555 1_555
H50 C43 1_555 1_555
C44 C39 1_555 1_555
H51 C44 1_555 1_555
C45 C41 1_555 1_555
H52 C45 1_555 1_555
H53 C45 1_555 1_555
C46 N7 1_555 1_555
H54 C46 1_555 1_555
C47 N8 1_555 1_555
H55 C47 1_555 1_555
C48 N7 1_555 1_555
H56 C48 1_555 1_555
Co2_2 O7 1_555 1_555
O7_2 Co2 1_555 1_555
O8_2 Co2 1_555 1_555
N5_2 Co2 1_555 1_555
O6 C11 1_555 1_555
O8 Co2_2 1_555 1_555
N4 C32 1_555 1_555
N5 Co2_2 1_555 1_555
N8 C46 1_555 1_555
C4 C7 1_555 1_555
C5 C6 1_555 1_555
C15 C16 1_555 1_555
C22 C23 1_555 1_555
C29 C30 1_555 1_555
C33 C34 1_555 1_555
C36 C37 1_555 1_555
C43 C44 1_555 1_555
C47 C48 1_555 1_555

#END
