
#######################################################################
#
#                 Cambridge Crystallographic Data Centre
#                                CCDC 
#
#######################################################################
#
# If this CIF has been generated from an entry in the Cambridge 
# Structural Database, then it will include bibliographic, chemical, 
# crystal, experimental, refinement or atomic coordinate data resulting 
# from the CCDC's data processing and validation procedures.
#
#######################################################################

data_INOVEN
_symmetry_cell_setting           monoclinic
_symmetry_space_group_name_H-M   'C 2/c'
_symmetry_Int_Tables_number      15
_space_group_name_Hall           '-C 2yn'
loop_
_symmetry_equiv_pos_site_id
_symmetry_equiv_pos_as_xyz
1 x,y,z
2 -x,y,1/2-z
3 1/2+x,1/2+y,z
4 1/2-x,1/2+y,1/2-z
5 -x,-y,-z
6 x,-y,1/2+z
7 1/2-x,1/2-y,-z
8 1/2+x,1/2-y,1/2+z
_cell_length_a                   28.620(2)
_cell_length_b                   14.4797(12)
_cell_length_c                   13.6159(11)
_cell_angle_alpha                90
_cell_angle_beta                 96.990(1)
_cell_angle_gamma                90
_cell_volume                     5600.61
loop_
_atom_site_label
_atom_site_type_symbol
_atom_site_fract_x
_atom_site_fract_y
_atom_site_fract_z
O9 O 0.0806(16) 0.011(3) 0.520(3)
O10 O 0.1199(11) 0.361(2) 0.656(2)
O1 O 0.3005(2) 0.7742(4) 1.3737(4)
C1 C 0.2740(3) 0.8348(6) 1.3339(6)
O2 O 0.23319(18) 0.8499(4) 1.3515(4)
O3 O 0.6098(2) 0.6792(4) 1.0360(6)
O4 O 0.6189(2) 0.8220(5) 0.9876(6)
C2 C 0.5963(3) 0.7611(7) 1.0269(8)
C3 C 0.5507(3) 0.7888(6) 1.0641(8)
C4 C 0.5217(3) 0.7188(7) 1.0946(9)
H1 H 0.5306 0.6571 1.0936
C5 C 0.5362(3) 0.8776(7) 1.0652(7)
H2 H 0.5555 0.9235 1.0443
Gd1 Gd 0.316900(11) 0.70895(2) 1.53438(3)
O5 O 0.20869(19) 1.0774(4) 1.0700(5)
C6 C 0.2524(3) 1.0903(6) 1.0831(6)
O6 O 0.27070(18) 1.1608(4) 1.0497(4)
O7 O 0.3503(4) 0.7654(7) 1.6954(7)
H3 H 0.3727 0.8024 1.6887
H4 H 0.3289 0.7936 1.7218
C7 C 0.2832(3) 1.0185(6) 1.1381(6)
C8 C 0.3288(3) 1.0060(6) 1.1190(7)
H5 H 0.3414 1.0441 1.0740
N1 N 0.4025(2) 0.9271(6) 1.1372(6)
N2 N 0.4191(3) 0.8495(6) 1.1558(6)
C9 C 0.2647(3) 0.9607(6) 1.2059(6)
H6 H 0.2334 0.9669 1.2170
C10 C 0.2928(3) 0.8943(5) 1.2566(6)
C11 C 0.3556(3) 0.9374(6) 1.1664(7)
C12 C 0.4657(3) 0.8352(6) 1.1260(7)
C13 C 0.4940(3) 0.9023(7) 1.0961(7)
H7 H 0.4849 0.9640 1.0966
C14 C 0.3382(3) 0.8831(6) 1.2362(6)
H8 H 0.3573 0.8385 1.2698
O8 O 0.3578(3) 0.5825(6) 1.6180(8)
C15 C 0.4793(3) 0.7449(7) 1.1263(8)
H9 H 0.4598 0.6998 1.1482
C16 C 0.3490(5) 0.5216(10) 1.6314(10)
H10 H 0.3215 0.5000 1.5954
C17 C 0.3792(10) 0.4937(19) 1.805(2)
H11 H 0.3793 0.5580 1.7882
H12 H 0.4066 0.4798 1.8508
H13 H 0.3514 0.4798 1.8354
C18 C 0.3418(8) 0.3613(16) 1.7122(17)
H14 H 0.3325 0.3468 1.6438
H15 H 0.3148 0.3813 1.7420
H16 H 0.3550 0.3074 1.7459
N3 N 0.3797(12) 0.441(3) 1.720(3)
O2F O 0.26681(18) 0.6501(4) 1.6485(4)
O3A O 0.3902(2) 0.6792(4) 1.4640(6)
O4A O 0.3811(2) 0.8220(5) 1.5124(6)
Gd1F Gd 0.183100(11) 0.79105(2) 1.46562(3)
Gd1A Gd 0.683100(11) 0.70895(2) 0.96562(3)
Gd1C Gd 0.183100(11) 1.20895(2) 0.96562(3)
Gd1E Gd 0.316900(11) 1.29105(2) 1.03438(3)
O5C O 0.29131(19) 0.5774(4) 1.4300(5)
O6C O 0.22930(18) 0.6608(4) 1.4503(4)
O6E O 0.27070(18) 0.8392(4) 1.5497(4)
loop_
_geom_bond_atom_site_label_1
_geom_bond_atom_site_label_2
_geom_bond_site_symmetry_1
_geom_bond_site_symmetry_2
O1 C1 1_555 1_555
C1 O2 1_555 1_555
O2 Gd1F 1_555 1_555
O3 C2 1_555 1_555
O4 C2 1_555 1_555
C2 C3 1_555 1_555
C3 C4 1_555 1_555
C4 H1 1_555 1_555
C5 C3 1_555 1_555
H2 C5 1_555 1_555
Gd1 O1 1_555 1_555
O5 C6 1_555 1_555
C6 O6 1_555 1_555
O6 Gd1C 1_555 1_555
O7 Gd1 1_555 1_555
H3 O7 1_555 1_555
H4 O7 1_555 1_555
C7 C6 1_555 1_555
C8 C7 1_555 1_555
H5 C8 1_555 1_555
N1 N2 1_555 1_555
N2 C12 1_555 1_555
C9 C7 1_555 1_555
H6 C9 1_555 1_555
C10 C1 1_555 1_555
C11 C8 1_555 1_555
C12 C13 1_555 1_555
C13 C5 1_555 1_555
H7 C13 1_555 1_555
C14 C10 1_555 1_555
H8 C14 1_555 1_555
O8 Gd1 1_555 1_555
C15 C4 1_555 1_555
H9 C15 1_555 1_555
C16 O8 1_555 1_555
H10 C16 1_555 1_555
C17 H11 1_555 1_555
H12 C17 1_555 1_555
H13 C17 1_555 1_555
C18 H14 1_555 1_555
H15 C18 1_555 1_555
H16 C18 1_555 1_555
N3 C16 1_555 1_555
O2F Gd1 1_555 1_555
O3A Gd1 1_555 1_555
O4A Gd1 1_555 1_555
Gd1F O6C 1_555 1_555
Gd1A O3 1_555 1_555
Gd1C O5 1_555 1_555
Gd1E O6 1_555 1_555
O5C Gd1 1_555 1_555
O6C Gd1 1_555 1_555
O6E Gd1 1_555 1_555
O4 Gd1A 1_555 1_555
N1 C11 1_555 1_555
C9 C10 1_555 1_555
C11 C14 1_555 1_555
C12 C15 1_555 1_555
C17 N3 1_555 1_555
C18 N3 1_555 1_555
Gd1F O6E 1_555 1_555

#END
