
#######################################################################
#
#                 Cambridge Crystallographic Data Centre
#                                CCDC 
#
#######################################################################
#
# If this CIF has been generated from an entry in the Cambridge 
# Structural Database, then it will include bibliographic, chemical, 
# crystal, experimental, refinement or atomic coordinate data resulting 
# from the CCDC's data processing and validation procedures.
#
#######################################################################

data_INOXUE
_symmetry_cell_setting           orthorhombic
_symmetry_space_group_name_H-M   'P 21 21 21'
_symmetry_Int_Tables_number      19
_space_group_name_Hall           'P 2ac 2ab'
loop_
_symmetry_equiv_pos_site_id
_symmetry_equiv_pos_as_xyz
1 x,y,z
2 1/2-x,-y,1/2+z
3 -x,1/2+y,1/2-z
4 1/2+x,1/2-y,-z
_cell_length_a                   9.9969(9)
_cell_length_b                   10.8731(10)
_cell_length_c                   10.873
_cell_angle_alpha                90
_cell_angle_beta                 90
_cell_angle_gamma                90
_cell_volume                     1181.87
loop_
_atom_site_label
_atom_site_type_symbol
_atom_site_fract_x
_atom_site_fract_y
_atom_site_fract_z
Cd1 Cd 0.94598(3) 0.23560(3) 0.08904(3)
O1 O 1.1545(3) 0.2112(4) -0.0065(3)
C1 C 1.1517(4) 0.2148(4) -0.1201(4)
N1 N 0.9097(3) 0.1786(4) -0.1079(4)
H1 H 0.9022 0.0962 -0.1118
H2 H 0.8322 0.2114 -0.1342
C2 C 1.0185(4) 0.2188(4) -0.1881(3)
H3 H 1.0226 0.1659 -0.2609
C3 C 0.9977(4) 0.3529(5) -0.2275(5)
H4 H 0.9886 0.4036 -0.1546
H5 H 1.0764 0.3806 -0.2717
C4 C 0.7599(5) 0.4164(4) -0.2600(4)
H6 H 0.7553 0.4337 -0.1764
C5 C 0.6487(5) 0.4368(4) -0.3334(4)
C6 C 0.8758(5) 0.3715(5) -0.3084(4)
C7 C 0.7721(8) 0.3643(6) -0.5076(5)
H7 H 0.7765 0.3452 -0.5909
C8 C 0.6551(7) 0.4111(6) -0.4583(5)
H8 H 0.5814 0.4253 -0.5085
C9 C 0.8826(6) 0.3458(6) -0.4332(5)
H9 H 0.9617 0.3160 -0.4670
O2 O 1.2541(3) 0.2206(4) -0.1875(3)
C10 C 0.5264(5) 0.4915(4) -0.2811(5)
N2 N 0.4532(5) 0.4424(4) -0.1936(4)
N3 N 0.4716(4) 0.5977(4) -0.3176(5)
N4 N 0.3625(4) 0.6138(5) -0.2469(7)
N5 N 0.3497(5) 0.5205(5) -0.1734(6)
O2C O 0.7541(3) 0.2794(4) 0.1875(3)
N2C N 0.9532(5) 0.0576(4) 0.1936(4)
N3A N 1.0284(4) 0.4023(4) 0.1824(5)
Cd1C Cd 1.44598(3) 0.26440(3) -0.08904(3)
Cd1C_2 Cd 0.44598(3) 0.26440(3) -0.08904(3)
Cd1A Cd 0.55402(3) 0.76440(3) -0.41096(3)
O3 O 0.249(2) 0.5583(17) 0.0684(19)
loop_
_geom_bond_atom_site_label_1
_geom_bond_atom_site_label_2
_geom_bond_site_symmetry_1
_geom_bond_site_symmetry_2
Cd1 O1 1_555 1_555
O1 C1 1_555 1_555
C1 C2 1_555 1_555
N1 Cd1 1_555 1_555
H1 N1 1_555 1_555
H2 N1 1_555 1_555
C2 N1 1_555 1_555
H3 C2 1_555 1_555
C3 C2 1_555 1_555
H4 C3 1_555 1_555
H5 C3 1_555 1_555
C4 H6 1_555 1_555
C5 C4 1_555 1_555
C6 C3 1_555 1_555
C7 H7 1_555 1_555
C8 C5 1_555 1_555
H8 C8 1_555 1_555
C9 C6 1_555 1_555
H9 C9 1_555 1_555
O2 C1 1_555 1_555
C10 C5 1_555 1_555
N2 C10 1_555 1_555
N3 C10 1_555 1_555
N4 N3 1_555 1_555
N5 N2 1_555 1_555
O2C Cd1 1_555 1_555
N2C Cd1 1_555 1_555
N3A Cd1 1_555 1_555
Cd1C O2 1_555 1_555
Cd1C_2 N2 1_555 1_555
Cd1A N3 1_555 1_555
C4 C6 1_555 1_555
C7 C8 1_555 1_555
C7 C9 1_555 1_555
N4 N5 1_555 1_555

#END
