
#######################################################################
#
#                 Cambridge Crystallographic Data Centre
#                                CCDC 
#
#######################################################################
#
# If this CIF has been generated from an entry in the Cambridge 
# Structural Database, then it will include bibliographic, chemical, 
# crystal, experimental, refinement or atomic coordinate data resulting 
# from the CCDC's data processing and validation procedures.
#
#######################################################################

data_INUCAV
_symmetry_cell_setting           triclinic
_symmetry_space_group_name_H-M   'P -1'
_symmetry_Int_Tables_number      2
_space_group_name_Hall           '-P 1'
loop_
_symmetry_equiv_pos_site_id
_symmetry_equiv_pos_as_xyz
1 x,y,z
2 -x,-y,-z
_cell_length_a                   7.8946(5)
_cell_length_b                   10.7803(6)
_cell_length_c                   13.5752(8)
_cell_angle_alpha                96.9990(10)
_cell_angle_beta                 93.5240(10)
_cell_angle_gamma                107.3440(10)
_cell_volume                     1088.74
loop_
_atom_site_label
_atom_site_type_symbol
_atom_site_fract_x
_atom_site_fract_y
_atom_site_fract_z
Tb1 Tb -0.249531(19) 0.513192(16) -0.038230(11)
O1 O -0.1949(4) 0.3598(4) -0.1649(2)
H1 H -0.107(4) 0.349(5) -0.158(4)
H2 H -0.208(6) 0.364(5) -0.226(4)
O2 O -0.3460(3) 0.3162(3) 0.0365(2)
O3 O -0.0572(3) 0.3865(2) 0.03765(19)
C1 C -0.1991(5) 0.2955(4) 0.0476(3)
C2 C -0.1872(5) 0.1674(4) 0.0703(3)
H3 H -0.0779 0.1516 0.0680
C3 C -0.3195(6) 0.0773(4) 0.0929(3)
H4 H -0.4285 0.0941 0.0931
C4 C -0.3149(9) -0.0537(5) 0.1193(5)
H5 H -0.4045 -0.1230 0.0768
H6 H -0.3378 -0.0582 0.1876
H7 H -0.1995 -0.0632 0.1103
O4 O -0.4435(3) 0.5720(3) 0.09190(19)
O5 O -0.1583(3) 0.6266(3) 0.1317(2)
C5 C -0.3098(5) 0.6250(4) 0.1553(3)
C6 C -0.3333(6) 0.6827(5) 0.2556(3)
H8 H -0.4461 0.6878 0.2672
C7 C -0.2097(7) 0.7263(6) 0.3276(3)
H9 H -0.0979 0.7190 0.3162
C8 C -0.2312(11) 0.7892(8) 0.4304(4)
H10 H -0.1197 0.8138 0.4716
H11 H -0.3206 0.7278 0.4600
H12 H -0.2667 0.8660 0.4245
O6 O -0.2803(5) 0.5891(4) -0.2018(3)
O7 O -0.2549(4) 0.7266(3) -0.0671(3)
C9 C -0.2693(6) 0.7023(5) -0.1605(4)
C10 C -0.2708(9) 0.8023(6) -0.2244(5)
H13 H -0.2940 0.7751 -0.2929
C11 C -0.2433(10) 0.9215(7) -0.1936(6)
H14 H -0.2212 0.9494 -0.1252
C12 C -0.2439(14) 1.0237(9) -0.2621(9)
H15 H -0.1780 1.1095 -0.2278
H16 H -0.3646 1.0208 -0.2803
H17 H -0.1896 1.0050 -0.3211
O3A O 0.0572(3) 0.6135(2) -0.03765(19)
O4A O -0.5565(3) 0.4280(3) -0.09190(19)
Tb1A Tb 0.249531(19) 0.486808(16) 0.038230(11)
Tb1A_2 Tb -0.750469(19) 0.486808(16) 0.038230(11)
O8 O -0.2356(8) 0.3490(7) -0.3640(4)
O9 O -0.2882(11) 0.5251(8) -0.3940(4)
H18 H -0.341(11) 0.538(8) -0.323(7)
C13 C -0.2564(10) 0.4175(12) -0.4208(5)
C14 C -0.2671(14) 0.4092(13) -0.5288(5)
H19 H -0.3162 0.4649 -0.5596
C15 C -0.2131(13) 0.3308(14) -0.5797(6)
H20 H -0.1696 0.2714 -0.5502
C16 C -0.2174(15) 0.3307(16) -0.6926(5)
H21 H -0.2652 0.2421 -0.7263
H22 H -0.0985 0.3684 -0.7096
H23 H -0.2912 0.3816 -0.7127
loop_
_geom_bond_atom_site_label_1
_geom_bond_atom_site_label_2
_geom_bond_site_symmetry_1
_geom_bond_site_symmetry_2
Tb1 O1 1_555 1_555
O1 H1 1_555 1_555
H2 O1 1_555 1_555
O2 Tb1 1_555 1_555
O3 Tb1 1_555 1_555
C1 O2 1_555 1_555
C2 C1 1_555 1_555
H3 C2 1_555 1_555
C3 C2 1_555 1_555
H4 C3 1_555 1_555
C4 C3 1_555 1_555
H5 C4 1_555 1_555
H6 C4 1_555 1_555
H7 C4 1_555 1_555
O4 Tb1 1_555 1_555
O5 Tb1 1_555 1_555
C5 O4 1_555 1_555
C6 C5 1_555 1_555
H8 C6 1_555 1_555
C7 C6 1_555 1_555
H9 C7 1_555 1_555
C8 C7 1_555 1_555
H10 C8 1_555 1_555
H11 C8 1_555 1_555
H12 C8 1_555 1_555
O6 Tb1 1_555 1_555
O7 Tb1 1_555 1_555
C9 O6 1_555 1_555
C10 C9 1_555 1_555
H13 C10 1_555 1_555
C11 C10 1_555 1_555
H14 C11 1_555 1_555
C12 C11 1_555 1_555
H15 C12 1_555 1_555
H16 C12 1_555 1_555
H17 C12 1_555 1_555
O8 C13 1_555 1_555
O9 H18 1_555 1_555
C13 O9 1_555 1_555
C14 C13 1_555 1_555
H19 C14 1_555 1_555
C15 C14 1_555 1_555
H20 C15 1_555 1_555
C16 C15 1_555 1_555
H21 C16 1_555 1_555
H22 C16 1_555 1_555
H23 C16 1_555 1_555
O3A Tb1 1_555 1_555
O4A Tb1 1_555 1_555
Tb1A O3 1_555 1_555
Tb1A_2 O4 1_555 1_555
O3 C1 1_555 1_555
O5 C5 1_555 1_555
O7 C9 1_555 1_555
O3A Tb1A 1_555 1_555
O4A Tb1A_2 1_555 1_555

#END
