
#######################################################################
#
#                 Cambridge Crystallographic Data Centre
#                                CCDC 
#
#######################################################################
#
# If this CIF has been generated from an entry in the Cambridge 
# Structural Database, then it will include bibliographic, chemical, 
# crystal, experimental, refinement or atomic coordinate data resulting 
# from the CCDC's data processing and validation procedures.
#
#######################################################################

data_INUDIE
_symmetry_cell_setting           monoclinic
_symmetry_space_group_name_H-M   'P 21/n'
_symmetry_Int_Tables_number      14
_space_group_name_Hall           '-P 2yn'
loop_
_symmetry_equiv_pos_site_id
_symmetry_equiv_pos_as_xyz
1 x,y,z
2 1/2+x,1/2-y,1/2+z
3 -x,-y,-z
4 1/2-x,1/2+y,1/2-z
_cell_length_a                   11.5759(7)
_cell_length_b                   11.6997(8)
_cell_length_c                   12.6041(8)
_cell_angle_alpha                90
_cell_angle_beta                 116.6820(10)
_cell_angle_gamma                90
_cell_volume                     1525.25
loop_
_atom_site_label
_atom_site_type_symbol
_atom_site_fract_x
_atom_site_fract_y
_atom_site_fract_z
Ni1 Ni 0.0000 0.0000 0.0000
N1 N 0.02530(13) 0.16551(11) 0.06262(12)
O1 O -0.27054(11) -0.16838(10) -0.06122(12)
N2 N -0.07230(13) 0.04765(12) -0.17619(12)
N3 N -0.10032(14) 0.24882(12) -0.13640(14)
O2 O -0.18583(12) 0.00578(9) -0.00415(13)
C1 C -0.27342(14) -0.06882(14) -0.02769(14)
C2 C -0.39066(14) -0.0323(2) -0.01348(15)
C3 C 0.0441(2) 0.15792(15) 0.1867(2)
H1 H -0.0386(2) 0.14787(15) 0.1876(2)
H2 H 0.0834(2) 0.22771(15) 0.2291(2)
C4 C -0.49039(15) -0.10988(15) -0.0356(2)
H3 H -0.48427(15) -0.18390(15) -0.0595(2)
C5 C -0.1596(2) 0.14888(15) -0.2074(2)
H4 H -0.2357(2) 0.12897(15) -0.1977(2)
H5 H -0.1879(2) 0.16746(15) -0.2903(2)
C6 C -0.0796(2) 0.24457(15) -0.0143(2)
H6 H -0.1595(2) 0.22127(15) -0.0132(2)
H7 H -0.0590(2) 0.32089(15) 0.0191(2)
C7 C 0.0062(2) 0.29451(15) -0.1572(2)
H8 H 0.0795(2) 0.24308(15) -0.1220(2)
H9 H -0.0209(2) 0.29678(15) -0.2420(2)
C8 C -0.40154(15) 0.07794(15) 0.0224(2)
H10 H -0.33576(15) 0.13060(15) 0.0377(2)
C9 C 0.1316(2) 0.0565(2) 0.2460(2)
H11 H 0.2162(2) 0.0690(2) 0.2496(2)
H12 H 0.1423(2) 0.0477(2) 0.3264(2)
C10 C 0.1515(2) 0.4627(2) -0.1345(2)
C11 C 0.0485(2) 0.4128(2) -0.1065(2)
H13 H 0.0809(2) 0.4095(2) -0.0210(2)
H14 H -0.0260(2) 0.4631(2) -0.1377(2)
C12 C 0.1323(3) 0.5648(2) -0.1959(2)
H15 H 0.0525(3) 0.6011(2) -0.2241(2)
C13 C 0.2703(2) 0.4093(2) -0.0969(2)
H16 H 0.2854(2) 0.3404(2) -0.0559(2)
C14 C 0.3667(3) 0.4561(3) -0.1191(3)
H17 H 0.4444(3) 0.4173(3) -0.0960(3)
C15 C 0.2298(4) 0.6141(2) -0.2159(3)
H18 H 0.2158(4) 0.6831(2) -0.2565(3)
C16 C 0.3481(4) 0.5593(3) -0.1748(3)
H19 H 0.4151(4) 0.5929(3) -0.1853(3)
N2B N 0.07230(13) -0.04765(12) 0.17619(12)
C5B C 0.1596(2) -0.14888(15) 0.2074(2)
N3B N 0.10032(14) -0.24882(12) 0.13640(14)
C6B C 0.0796(2) -0.24457(15) 0.0143(2)
N1B N -0.02530(13) -0.16551(11) -0.06262(12)
C3B C -0.0441(2) -0.15792(15) -0.1867(2)
H1B H 0.0386(2) -0.14787(15) -0.1876(2)
H2B H -0.0834(2) -0.22771(15) -0.2291(2)
C9B C -0.1316(2) -0.0565(2) -0.2460(2)
H11B H -0.2162(2) -0.0690(2) -0.2496(2)
H12B H -0.1423(2) -0.0477(2) -0.3264(2)
H6B H 0.1595(2) -0.22127(15) 0.0132(2)
H7B H 0.0590(2) -0.32089(15) -0.0191(2)
C7B C -0.0062(2) -0.29451(15) 0.1572(2)
H8B H -0.0795(2) -0.24308(15) 0.1220(2)
H9B H 0.0209(2) -0.29678(15) 0.2420(2)
C11B C -0.0485(2) -0.4128(2) 0.1065(2)
C10B C -0.1515(2) -0.4627(2) 0.1345(2)
C12B C -0.1323(3) -0.5648(2) 0.1959(2)
H15B H -0.0525(3) -0.6011(2) 0.2241(2)
C15B C -0.2298(4) -0.6141(2) 0.2159(3)
H18B H -0.2158(4) -0.6831(2) 0.2565(3)
C16B C -0.3481(4) -0.5593(3) 0.1748(3)
C14B C -0.3667(3) -0.4561(3) 0.1191(3)
C13B C -0.2703(2) -0.4093(2) 0.0969(2)
H16B H -0.2854(2) -0.3404(2) 0.0559(2)
H17B H -0.4444(3) -0.4173(3) 0.0960(3)
H19B H -0.4151(4) -0.5929(3) 0.1853(3)
H13B H -0.0809(2) -0.4095(2) 0.0210(2)
H14B H 0.0260(2) -0.4631(2) 0.1377(2)
H4B H 0.2357(2) -0.12897(15) 0.1977(2)
H5B H 0.1879(2) -0.16746(15) 0.2903(2)
C8B C -0.59846(15) -0.07794(15) -0.0224(2)
C2B C -0.60934(14) 0.0323(2) 0.01348(15)
C1B C -0.72658(14) 0.06882(14) 0.02769(14)
O1B O -0.72946(11) 0.16838(10) 0.06122(12)
O2B O -0.81417(12) -0.00578(9) 0.00415(13)
C4B C -0.50961(15) 0.10988(15) 0.0356(2)
H3B H -0.51573(15) 0.18390(15) 0.0595(2)
H10B H -0.66424(15) -0.13060(15) -0.0377(2)
O2B_2 O 0.18583(12) -0.00578(9) 0.00415(13)
Ni1_2 Ni -1.0000 0.0000 0.0000
loop_
_geom_bond_atom_site_label_1
_geom_bond_atom_site_label_2
_geom_bond_site_symmetry_1
_geom_bond_site_symmetry_2
Ni1 N1 1_555 1_555
N1 C3 1_555 1_555
O1 C1 1_555 1_555
N2 Ni1 1_555 1_555
N3 C5 1_555 1_555
O2 Ni1 1_555 1_555
C1 O2 1_555 1_555
C2 C1 1_555 1_555
C3 H1 1_555 1_555
H2 C3 1_555 1_555
C4 C2 1_555 1_555
H3 C4 1_555 1_555
C5 N2 1_555 1_555
H4 C5 1_555 1_555
H5 C5 1_555 1_555
C6 N1 1_555 1_555
H6 C6 1_555 1_555
H7 C6 1_555 1_555
C7 N3 1_555 1_555
H8 C7 1_555 1_555
H9 C7 1_555 1_555
C8 C2 1_555 1_555
H10 C8 1_555 1_555
C9 C3 1_555 1_555
H11 C9 1_555 1_555
H12 C9 1_555 1_555
C10 C11 1_555 1_555
C11 C7 1_555 1_555
H13 C11 1_555 1_555
H14 C11 1_555 1_555
C12 C10 1_555 1_555
H15 C12 1_555 1_555
C13 C10 1_555 1_555
H16 C13 1_555 1_555
C14 C13 1_555 1_555
H17 C14 1_555 1_555
C15 C12 1_555 1_555
H18 C15 1_555 1_555
C16 C14 1_555 1_555
H19 C16 1_555 1_555
N2B Ni1 1_555 1_555
C5B N2B 1_555 1_555
N3B C5B 1_555 1_555
C6B N3B 1_555 1_555
N1B Ni1 1_555 1_555
C3B N1B 1_555 1_555
H1B C3B 1_555 1_555
H2B C3B 1_555 1_555
C9B N2 1_555 1_555
H11B C9B 1_555 1_555
H12B C9B 1_555 1_555
H6B C6B 1_555 1_555
H7B C6B 1_555 1_555
C7B N3B 1_555 1_555
H8B C7B 1_555 1_555
H9B C7B 1_555 1_555
C11B C7B 1_555 1_555
C10B C11B 1_555 1_555
C12B C10B 1_555 1_555
H15B C12B 1_555 1_555
C15B C12B 1_555 1_555
H18B C15B 1_555 1_555
C16B C15B 1_555 1_555
C14B C16B 1_555 1_555
C13B C10B 1_555 1_555
H16B C13B 1_555 1_555
H17B C14B 1_555 1_555
H19B C16B 1_555 1_555
H13B C11B 1_555 1_555
H14B C11B 1_555 1_555
H4B C5B 1_555 1_555
H5B C5B 1_555 1_555
C8B C4 1_555 1_555
C2B C8B 1_555 1_555
C1B C2B 1_555 1_555
O1B C1B 1_555 1_555
O2B C1B 1_555 1_555
C4B C8 1_555 1_555
H3B C4B 1_555 1_555
H10B C8B 1_555 1_555
O2B_2 Ni1 1_555 1_555
Ni1_2 O2B 1_555 1_555
N3 C6 1_555 1_555
C9 N2B 1_555 1_555
C15 C16 1_555 1_555
C6B N1B 1_555 1_555
C3B C9B 1_555 1_555
C14B C13B 1_555 1_555
C2B C4B 1_555 1_555

#END
