
#######################################################################
#
#                 Cambridge Crystallographic Data Centre
#                                CCDC 
#
#######################################################################
#
# If this CIF has been generated from an entry in the Cambridge 
# Structural Database, then it will include bibliographic, chemical, 
# crystal, experimental, refinement or atomic coordinate data resulting 
# from the CCDC's data processing and validation procedures.
#
#######################################################################

data_INUDOK
_symmetry_cell_setting           monoclinic
_symmetry_space_group_name_H-M   'P 21/c'
_symmetry_Int_Tables_number      14
_space_group_name_Hall           '-P 2ybc'
loop_
_symmetry_equiv_pos_site_id
_symmetry_equiv_pos_as_xyz
1 x,y,z
2 x,1/2-y,1/2+z
3 -x,-y,-z
4 -x,1/2+y,1/2-z
_cell_length_a                   11.596(2)
_cell_length_b                   21.110(4)
_cell_length_c                   13.054(3)
_cell_angle_alpha                90
_cell_angle_beta                 112.02(3)
_cell_angle_gamma                90
_cell_volume                     2962.41
loop_
_atom_site_label
_atom_site_type_symbol
_atom_site_fract_x
_atom_site_fract_y
_atom_site_fract_z
Ni1 Ni 0.25081(3) 0.095070(14) 0.21325(3)
O1 O 0.43703(13) 0.10691(8) 0.21902(14)
N1 N 0.3039(2) 0.02884(10) 0.3366(2)
N2 N 0.1944(2) 0.16096(9) 0.0880(2)
N3 N 0.2836(2) 0.17106(10) 0.3202(2)
O2 O 1.06459(14) 0.08730(8) 0.2100(2)
C1 C 0.6499(2) 0.09297(12) 0.2487(2)
N4 N 0.2216(2) 0.01953(9) 0.1055(2)
C2 C 0.8538(2) 0.10475(11) 0.1840(2)
N5 N 0.2068(2) 0.08700(10) -0.0531(2)
N6 N 0.3063(2) 0.10348(12) 0.4807(2)
C3 C 0.9615(2) 0.10870(12) 0.1449(2)
C4 C 0.5392(2) 0.08362(12) 0.2822(2)
C5 C 0.2386(2) 0.14832(12) -0.0033(2)
H1 H 0.2040(2) 0.18024(12) -0.0601(2)
H2 H 0.3284(2) 0.15282(12) 0.0251(2)
O3 O 0.5564(2) 0.05322(11) 0.3677(2)
O4 O 0.9410(2) 0.13332(12) 0.0534(2)
C6 C 0.6374(2) 0.12108(12) 0.1495(2)
H3 H 0.5601(2) 0.13642(12) 0.1036(2)
C7 C 0.2350(2) 0.22299(11) 0.1424(2)
H4 H 0.1878(2) 0.25674(11) 0.0946(2)
H5 H 0.3224(2) 0.22958(11) 0.1564(2)
C8 C 0.7376(2) 0.12689(12) 0.1170(2)
H6 H 0.7267(2) 0.14579(12) 0.0496(2)
C9 C 0.2511(3) 0.15915(14) 0.4189(2)
H7 H 0.2766(3) 0.19554(14) 0.4676(2)
H8 H 0.1614(3) 0.15560(14) 0.3947(2)
C10 C 0.2637(2) 0.04360(15) 0.4294(2)
H9 H 0.1735(2) 0.04295(15) 0.4021(2)
H10 H 0.2939(2) 0.01061(15) 0.4848(2)
C11 C 0.2662(2) 0.03321(13) 0.0136(2)
H11 H 0.3552(2) 0.04058(13) 0.0452(2)
H12 H 0.2516(2) -0.00382(13) -0.0336(2)
C12 C 0.0732(2) 0.07726(13) -0.1200(2)
H13 H 0.0257(2) 0.08449(13) -0.0737(2)
H14 H 0.0605(2) 0.03355(13) -0.1446(2)
C13 C 0.2585(2) -0.03220(12) 0.2821(3)
H15 H 0.1702(2) -0.03635(12) 0.2665(3)
H16 H 0.3015(2) -0.06667(12) 0.3305(3)
C14 C 0.8669(2) 0.07733(14) 0.2837(2)
H17 H 0.9444(2) 0.06255(14) 0.3302(2)
C15 C 0.4406(2) 0.10726(15) 0.5475(2)
H18 H 0.4823(2) 0.12732(15) 0.5040(2)
H19 H 0.4736(2) 0.06468(15) 0.5651(2)
C16 C 0.0248(3) 0.11964(15) -0.2184(3)
C17 C 0.7663(2) 0.07151(14) 0.3156(2)
H20 H 0.7772(2) 0.05286(14) 0.3832(2)
C18 C 0.2816(3) -0.03562(12) 0.1748(2)
H21 H 0.3703(3) -0.03516(12) 0.1906(2)
H22 H 0.2473(3) -0.07459(12) 0.1359(2)
C19 C 0.4693(3) 0.1435(2) 0.6525(2)
C20 C 0.5826(4) 0.2234(2) 0.7816(4)
H23 H 0.6391(4) 0.2567(2) 0.7999(4)
C21 C 0.5307(5) 0.2044(3) 0.8545(4)
H24 H 0.5506(5) 0.2251(3) 0.9219(4)
C22 C 0.4177(3) 0.1244(2) 0.7279(3)
H25 H 0.3616(3) 0.0909(2) 0.7104(3)
C23 C 0.0564(4) 0.1094(2) -0.3090(3)
H26 H 0.1123(4) 0.0773(2) -0.3068(3)
C24 C -0.0764(6) 0.1945(4) -0.4056(6)
H27 H -0.1121(6) 0.2189(4) -0.4689(6)
C25 C 0.5520(3) 0.1933(2) 0.6808(3)
H28 H 0.5875(3) 0.2069(2) 0.6315(3)
C26 C -0.0559(3) 0.1685(2) -0.2220(4)
H29 H -0.0779(3) 0.1762(2) -0.1616(4)
C27 C 0.0063(6) 0.1458(3) -0.4023(4)
H30 H 0.0274(6) 0.1381(3) -0.4632(4)
C28 C 0.4481(4) 0.1543(3) 0.8274(3)
H31 H 0.4131(4) 0.1408(3) 0.8772(3)
C29 C 0.2146(2) 0.22419(12) 0.2508(2)
H32 H 0.2439(2) 0.26404(12) 0.2886(2)
H33 H 0.1266(2) 0.22023(12) 0.2366(2)
C30 C -0.1037(4) 0.2057(2) -0.3150(6)
H34 H -0.1560(4) 0.2392(2) -0.3158(6)
O2_2 O 0.06459(14) 0.08730(8) 0.2100(2)
Ni1_2 Ni 1.25081(3) 0.095070(14) 0.21325(3)
loop_
_geom_bond_atom_site_label_1
_geom_bond_atom_site_label_2
_geom_bond_site_symmetry_1
_geom_bond_site_symmetry_2
Ni1 O1 1_555 1_555
O1 C4 1_555 1_555
N1 Ni1 1_555 1_555
N2 Ni1 1_555 1_555
N3 Ni1 1_555 1_555
O2 C3 1_555 1_555
C1 C4 1_555 1_555
N4 Ni1 1_555 1_555
C2 C3 1_555 1_555
N5 C5 1_555 1_555
N6 C9 1_555 1_555
C3 O4 1_555 1_555
C4 O3 1_555 1_555
C5 N2 1_555 1_555
H1 C5 1_555 1_555
H2 C5 1_555 1_555
C6 C1 1_555 1_555
H3 C6 1_555 1_555
C7 N2 1_555 1_555
H4 C7 1_555 1_555
H5 C7 1_555 1_555
C8 C2 1_555 1_555
H6 C8 1_555 1_555
C9 N3 1_555 1_555
H7 C9 1_555 1_555
H8 C9 1_555 1_555
C10 N1 1_555 1_555
H9 C10 1_555 1_555
H10 C10 1_555 1_555
C11 N4 1_555 1_555
H11 C11 1_555 1_555
H12 C11 1_555 1_555
C12 N5 1_555 1_555
H13 C12 1_555 1_555
H14 C12 1_555 1_555
C13 N1 1_555 1_555
H15 C13 1_555 1_555
H16 C13 1_555 1_555
C14 C2 1_555 1_555
H17 C14 1_555 1_555
C15 N6 1_555 1_555
H18 C15 1_555 1_555
H19 C15 1_555 1_555
C16 C12 1_555 1_555
C17 C1 1_555 1_555
H20 C17 1_555 1_555
C18 N4 1_555 1_555
H21 C18 1_555 1_555
H22 C18 1_555 1_555
C19 C15 1_555 1_555
C20 H23 1_555 1_555
C21 C20 1_555 1_555
H24 C21 1_555 1_555
C22 C19 1_555 1_555
H25 C22 1_555 1_555
C23 C16 1_555 1_555
H26 C23 1_555 1_555
C24 H27 1_555 1_555
C25 C19 1_555 1_555
H28 C25 1_555 1_555
C26 C16 1_555 1_555
H29 C26 1_555 1_555
C27 C23 1_555 1_555
H30 C27 1_555 1_555
C28 C21 1_555 1_555
H31 C28 1_555 1_555
C29 N3 1_555 1_555
H32 C29 1_555 1_555
H33 C29 1_555 1_555
C30 C24 1_555 1_555
H34 C30 1_555 1_555
O2_2 Ni1 1_555 1_555
Ni1_2 O2 1_555 1_555
N5 C11 1_555 1_555
N6 C10 1_555 1_555
C6 C8 1_555 1_555
C7 C29 1_555 1_555
C13 C18 1_555 1_555
C14 C17 1_555 1_555
C20 C25 1_555 1_555
C22 C28 1_555 1_555
C24 C27 1_555 1_555
C26 C30 1_555 1_555

#END
