
#######################################################################
#
#                 Cambridge Crystallographic Data Centre
#                                CCDC 
#
#######################################################################
#
# If this CIF has been generated from an entry in the Cambridge 
# Structural Database, then it will include bibliographic, chemical, 
# crystal, experimental, refinement or atomic coordinate data resulting 
# from the CCDC's data processing and validation procedures.
#
#######################################################################

data_INUDUQ
_symmetry_cell_setting           triclinic
_symmetry_space_group_name_H-M   'P -1'
_symmetry_Int_Tables_number      2
_space_group_name_Hall           '-P 1'
loop_
_symmetry_equiv_pos_site_id
_symmetry_equiv_pos_as_xyz
1 x,y,z
2 -x,-y,-z
_cell_length_a                   9.261(2)
_cell_length_b                   9.844(2)
_cell_length_c                   11.507(3)
_cell_angle_alpha                65.020(4)
_cell_angle_beta                 78.189(4)
_cell_angle_gamma                88.589(4)
_cell_volume                     928.513
loop_
_atom_site_label
_atom_site_type_symbol
_atom_site_fract_x
_atom_site_fract_y
_atom_site_fract_z
Ni1 Ni 0.0000 0.5000 0.5000
O1 O 0.03659(15) 0.73075(12) 0.45207(12)
O2 O 0.09044(16) 0.74535(14) 0.62738(13)
N1 N 0.23274(17) 0.60095(17) 0.21307(14)
N2 N 0.03291(15) 0.43453(14) 0.68719(13)
N3 N 0.22229(15) 0.47249(16) 0.45000(14)
C1 C 0.2440(2) 0.46480(19) 0.18997(17)
H1 H 0.1714 0.3879 0.2571
H2 H 0.3412 0.4280 0.1988
C2 C 0.00831(19) 0.95884(17) 0.46736(16)
H3 H -0.0064 1.0020 0.3819
C3 C 0.04957(17) 0.79907(16) 0.52163(16)
C4 C 0.1763(2) 0.3673(2) 0.68823(18)
H4 H 0.2134 0.3622 0.7629
H5 H 0.1652 0.2661 0.6956
C5 C 0.28452(19) 0.4637(2) 0.56130(19)
H6 H 0.3792 0.4195 0.5589
H7 H 0.2995 0.5636 0.5558
C6 C 0.2343(2) 0.3454(2) 0.03912(17)
C7 C 0.2980(2) 0.5891(2) 0.32088(19)
H8 H 0.2964 0.6855 0.3251
H9 H 0.4007 0.5670 0.3031
C8 C 0.0909(2) 0.66505(18) 0.21007(17)
H10 H 0.0688 0.6903 0.1248
H11 H 0.0975 0.7577 0.2199
C9 C 0.1168(2) 0.2384(2) 0.0915(2)
H12 H 0.0276 0.2573 0.1345
C10 C 0.2203(3) 0.4890(2) 0.0561(2)
H13 H 0.1227 0.5243 0.0468
H14 H 0.2928 0.5654 -0.0119
C11 C 0.1296(3) 0.1034(3) 0.0810(2)
H15 H 0.0492 0.0327 0.1167
C12 C 0.3652(2) 0.3133(3) -0.0242(2)
H16 H 0.4458 0.3836 -0.0604
C13 C 0.2611(3) 0.0734(3) 0.0178(2)
H17 H 0.2700 -0.0174 0.0109
C14 C 0.3783(3) 0.1782(3) -0.0346(2)
H18 H 0.4673 0.1587 -0.0775
C2A C -0.00831(19) 1.04116(17) 0.53264(16)
H3A H 0.0064 0.9980 0.6181
C3A C -0.04957(17) 1.20093(16) 0.47837(16)
O1A O -0.03659(15) 1.26925(12) 0.54793(12)
O2A O -0.09044(16) 1.25465(14) 0.37262(13)
C8A C -0.0909(2) 0.33495(18) 0.78993(17)
N1A N -0.23274(17) 0.39905(17) 0.78693(14)
C1A C -0.2440(2) 0.53520(19) 0.81003(17)
H1A H -0.1714 0.6121 0.7429
H2A H -0.3412 0.5720 0.8012
C10A C -0.2203(3) 0.5110(2) 0.9439(2)
C6A C -0.2343(2) 0.6546(2) 0.96088(17)
C9A C -0.1168(2) 0.7616(2) 0.9085(2)
H12A H -0.0276 0.7427 0.8655
C11A C -0.1296(3) 0.8966(3) 0.9190(2)
H15A H -0.0492 0.9673 0.8833
C13A C -0.2611(3) 0.9266(3) 0.9822(2)
H17A H -0.2700 1.0174 0.9891
C14A C -0.3783(3) 0.8218(3) 1.0346(2)
C12A C -0.3652(2) 0.6867(3) 1.0242(2)
H16A H -0.4458 0.6164 1.0604
H18A H -0.4673 0.8413 1.0775
H13A H -0.1227 0.4757 0.9532
H14A H -0.2928 0.4346 1.0119
C7A C -0.2980(2) 0.4109(2) 0.67912(19)
N3A N -0.22229(15) 0.52751(16) 0.55000(14)
C5A C -0.28452(19) 0.5363(2) 0.43870(19)
C4A C -0.1763(2) 0.6327(2) 0.31177(18)
N2A N -0.03291(15) 0.56547(14) 0.31281(13)
H4A H -0.2134 0.6378 0.2371
H5A H -0.1652 0.7339 0.3044
H6A H -0.3792 0.5805 0.4411
H7A H -0.2995 0.4364 0.4442
H8A H -0.2964 0.3145 0.6749
H9A H -0.4007 0.4330 0.6969
H10A H -0.0688 0.3097 0.8752
H11A H -0.0975 0.2423 0.7801
O1A_2 O -0.03659(15) 0.26925(12) 0.54793(12)
Ni1_2 Ni 0.0000 1.5000 0.5000
N4 N 0.5347(3) 0.1119(3) 0.3178(2)
O3 O 0.4417(4) 0.2531(4) 0.4223(3)
C15 C 0.3968(4) 0.0432(5) 0.3295(4)
H19 H 0.3189 0.0841 0.3714
H20 H 0.3953 -0.0631 0.3814
H21 H 0.3826 0.0620 0.2439
C16 C 0.5472(4) 0.2144(4) 0.3635(4)
H22 H 0.6406 0.2582 0.3498
C17 C 0.6674(5) 0.0722(7) 0.2562(5)
H23 H 0.7500 0.1305 0.2545
H24 H 0.6624 0.0919 0.1680
H25 H 0.6793 -0.0327 0.3045
loop_
_geom_bond_atom_site_label_1
_geom_bond_atom_site_label_2
_geom_bond_site_symmetry_1
_geom_bond_site_symmetry_2
Ni1 O1 1_555 1_555
O1 C3 1_555 1_555
O2 C3 1_555 1_555
N1 C1 1_555 1_555
N2 Ni1 1_555 1_555
N3 Ni1 1_555 1_555
C1 H1 1_555 1_555
H2 C1 1_555 1_555
C2 H3 1_555 1_555
C3 C2 1_555 1_555
C4 N2 1_555 1_555
H4 C4 1_555 1_555
H5 C4 1_555 1_555
C5 N3 1_555 1_555
H6 C5 1_555 1_555
H7 C5 1_555 1_555
C6 C9 1_555 1_555
C7 N1 1_555 1_555
H8 C7 1_555 1_555
H9 C7 1_555 1_555
C8 N1 1_555 1_555
H10 C8 1_555 1_555
H11 C8 1_555 1_555
N4 C15 1_555 1_555
C9 H12 1_555 1_555
C10 C1 1_555 1_555
H13 C10 1_555 1_555
H14 C10 1_555 1_555
C11 C9 1_555 1_555
H15 C11 1_555 1_555
C12 C6 1_555 1_555
H16 C12 1_555 1_555
C13 C11 1_555 1_555
H17 C13 1_555 1_555
C14 C12 1_555 1_555
H18 C14 1_555 1_555
O3 C16 1_555 1_555
C15 H19 1_555 1_555
H20 C15 1_555 1_555
H21 C15 1_555 1_555
C16 N4 1_555 1_555
H22 C16 1_555 1_555
C17 N4 1_555 1_555
H23 C17 1_555 1_555
H24 C17 1_555 1_555
H25 C17 1_555 1_555
C2A C2 1_555 1_555
H3A C2A 1_555 1_555
C3A C2A 1_555 1_555
O1A C3A 1_555 1_555
O2A C3A 1_555 1_555
C8A N2 1_555 1_555
N1A C8A 1_555 1_555
C1A N1A 1_555 1_555
H1A C1A 1_555 1_555
H2A C1A 1_555 1_555
C10A C1A 1_555 1_555
C6A C10A 1_555 1_555
C9A C6A 1_555 1_555
H12A C9A 1_555 1_555
C11A C9A 1_555 1_555
H15A C11A 1_555 1_555
C13A C11A 1_555 1_555
H17A C13A 1_555 1_555
C14A C13A 1_555 1_555
C12A C6A 1_555 1_555
H16A C12A 1_555 1_555
H18A C14A 1_555 1_555
H13A C10A 1_555 1_555
H14A C10A 1_555 1_555
C7A N1A 1_555 1_555
N3A Ni1 1_555 1_555
C5A N3A 1_555 1_555
C4A C5A 1_555 1_555
N2A Ni1 1_555 1_555
H4A C4A 1_555 1_555
H5A C4A 1_555 1_555
H6A C5A 1_555 1_555
H7A C5A 1_555 1_555
H8A C7A 1_555 1_555
H9A C7A 1_555 1_555
H10A C8A 1_555 1_555
H11A C8A 1_555 1_555
O1A_2 Ni1 1_555 1_555
Ni1_2 O1A 1_555 1_555
N3 C7 1_555 1_555
C4 C5 1_555 1_555
C6 C10 1_555 1_555
C8 N2A 1_555 1_555
C13 C14 1_555 1_555
C14A C12A 1_555 1_555
C7A N3A 1_555 1_555
C4A N2A 1_555 1_555

#END
