
#######################################################################
#
#                 Cambridge Crystallographic Data Centre
#                                CCDC 
#
#######################################################################
#
# If this CIF has been generated from an entry in the Cambridge 
# Structural Database, then it will include bibliographic, chemical, 
# crystal, experimental, refinement or atomic coordinate data resulting 
# from the CCDC's data processing and validation procedures.
#
#######################################################################

data_INUFEC
_symmetry_cell_setting           monoclinic
_symmetry_space_group_name_H-M   'C 2/c'
_symmetry_Int_Tables_number      15
_space_group_name_Hall           '-C 2yn'
loop_
_symmetry_equiv_pos_site_id
_symmetry_equiv_pos_as_xyz
1 x,y,z
2 1/2+x,1/2+y,z
3 x,-y,1/2+z
4 1/2+x,1/2-y,1/2+z
5 -x,-y,-z
6 1/2-x,1/2-y,-z
7 -x,y,1/2-z
8 1/2-x,1/2+y,1/2-z
_cell_length_a                   16.5747(8)
_cell_length_b                   8.4762(4)
_cell_length_c                   16.2689(8)
_cell_angle_alpha                90
_cell_angle_beta                 101.3070(10)
_cell_angle_gamma                90
_cell_volume                     2241.26
loop_
_atom_site_label
_atom_site_type_symbol
_atom_site_fract_x
_atom_site_fract_y
_atom_site_fract_z
Ni1 Ni 0.5000 0.5000 0.0000
N1 N 0.50074(7) 0.3810(2) 0.11006(8)
O1 O 0.39236(7) 0.63378(15) 0.01012(7)
N2 N 0.57884(8) 0.6589(2) 0.07211(8)
N3 N 0.43537(8) 0.1440(2) 0.04087(9)
O2 O 0.35516(8) 0.5558(2) 0.12841(8)
C1 C 0.34291(9) 0.6288(2) 0.05985(10)
C2 C 0.50337(9) 0.2072(2) 0.10073(11)
H1 H 0.55428(9) 0.1787(2) 0.08357(11)
H2 H 0.50381(9) 0.1589(2) 0.15485(11)
C3 C 0.57060(10) 0.6255(2) 0.15969(10)
H3 H 0.51978(10) 0.6702(2) 0.17037(10)
H4 H 0.61618(10) 0.6720(2) 0.19869(10)
C4 C 0.57041(10) 0.4472(2) 0.17109(10)
H5 H 0.62182(10) 0.4029(2) 0.16177(10)
H6 H 0.56459(10) 0.4214(2) 0.22773(10)
C5 C 0.26263(9) 0.7149(2) 0.03611(10)
H7 H 0.22857(9) 0.7187(2) 0.07520(10)
C6 C 0.43698(11) 0.1735(2) -0.04652(11)
H8 H 0.49036(11) 0.1429(2) -0.05720(11)
H9 H 0.39589(11) 0.1076(2) -0.08102(11)
O3 O 0.26712(9) 0.0945(2) 0.15736(11)
H10 H 0.26310(9) 0.0499(2) 0.20112(11)
C7 C 0.35369(10) 0.1590(2) 0.06212(12)
H11 H 0.31279(10) 0.1154(2) 0.01695(12)
H12 H 0.34117(10) 0.2699(2) 0.06744(12)
C8 C 0.34849(12) 0.0753(3) 0.14274(13)
H13 H 0.36081(12) -0.0359(3) 0.13830(13)
H14 H 0.38797(12) 0.1199(3) 0.18882(13)
N2D N 0.42116(8) 0.3411(2) -0.07211(8)
C3D C 0.42940(10) 0.3745(2) -0.15969(10)
H3D H 0.48022(10) 0.3298(2) -0.17037(10)
H4D H 0.38382(10) 0.3280(2) -0.19869(10)
C4D C 0.42959(10) 0.5528(2) -0.17109(10)
N1D N 0.49926(7) 0.6190(2) -0.11006(8)
C2D C 0.49663(9) 0.7928(2) -0.10073(11)
N3D N 0.56463(8) 0.8560(2) -0.04087(9)
C6D C 0.56302(11) 0.8265(2) 0.04652(11)
H8D H 0.50964(11) 0.8571(2) 0.05720(11)
H9D H 0.60411(11) 0.8924(2) 0.08102(11)
C7D C 0.64631(10) 0.8410(2) -0.06212(12)
H11D H 0.68721(10) 0.8846(2) -0.01695(12)
H12D H 0.65883(10) 0.7301(2) -0.06744(12)
C8D C 0.65151(12) 0.9247(3) -0.14274(13)
O3D O 0.73288(9) 0.9055(2) -0.15736(11)
H10D H 0.73690(9) 0.9501(2) -0.20112(11)
H13D H 0.63919(12) 1.0359(3) -0.13830(13)
H14D H 0.61203(12) 0.8801(3) -0.18882(13)
H1D H 0.44572(9) 0.8213(2) -0.08357(11)
H2D H 0.49619(9) 0.8411(2) -0.15485(11)
H5D H 0.37818(10) 0.5971(2) -0.16177(10)
H6D H 0.43541(10) 0.5786(2) -0.22773(10)
C5E C 0.23737(9) 0.7851(2) -0.03611(10)
C1E C 0.15709(9) 0.8712(2) -0.05985(10)
O1E O 0.10764(7) 0.86622(15) -0.01012(7)
O2E O 0.14484(8) 0.9442(2) -0.12841(8)
H7E H 0.27143(9) 0.7813(2) -0.07520(10)
O1D O 0.60764(7) 0.36622(15) -0.01012(7)
Ni1A Ni 0.0000 1.0000 0.0000
O4 O 0.26081(10) -0.0755(2) 0.29839(10)
loop_
_geom_bond_atom_site_label_1
_geom_bond_atom_site_label_2
_geom_bond_site_symmetry_1
_geom_bond_site_symmetry_2
Ni1 N1 1_555 1_555
N1 C2 1_555 1_555
O1 Ni1 1_555 1_555
N2 Ni1 1_555 1_555
N3 C2 1_555 1_555
O2 C1 1_555 1_555
C1 O1 1_555 1_555
C2 H1 1_555 1_555
H2 C2 1_555 1_555
C3 N2 1_555 1_555
H3 C3 1_555 1_555
H4 C3 1_555 1_555
C4 N1 1_555 1_555
H5 C4 1_555 1_555
H6 C4 1_555 1_555
C5 C1 1_555 1_555
H7 C5 1_555 1_555
C6 N3 1_555 1_555
H8 C6 1_555 1_555
H9 C6 1_555 1_555
O3 H10 1_555 1_555
C7 N3 1_555 1_555
H11 C7 1_555 1_555
H12 C7 1_555 1_555
C8 O3 1_555 1_555
H13 C8 1_555 1_555
H14 C8 1_555 1_555
N2D Ni1 1_555 1_555
C3D N2D 1_555 1_555
H3D C3D 1_555 1_555
H4D C3D 1_555 1_555
C4D C3D 1_555 1_555
N1D Ni1 1_555 1_555
C2D N1D 1_555 1_555
N3D C2D 1_555 1_555
C6D N2 1_555 1_555
H8D C6D 1_555 1_555
H9D C6D 1_555 1_555
C7D N3D 1_555 1_555
H11D C7D 1_555 1_555
H12D C7D 1_555 1_555
C8D C7D 1_555 1_555
O3D C8D 1_555 1_555
H10D O3D 1_555 1_555
H13D C8D 1_555 1_555
H14D C8D 1_555 1_555
H1D C2D 1_555 1_555
H2D C2D 1_555 1_555
H5D C4D 1_555 1_555
H6D C4D 1_555 1_555
C5E C5 1_555 1_555
C1E C5E 1_555 1_555
O1E C1E 1_555 1_555
O2E C1E 1_555 1_555
H7E C5E 1_555 1_555
O1D Ni1 1_555 1_555
Ni1A O1E 1_555 1_555
C3 C4 1_555 1_555
C6 N2D 1_555 1_555
C7 C8 1_555 1_555
C4D N1D 1_555 1_555
N3D C6D 1_555 1_555

#END
