
#######################################################################
#
#                 Cambridge Crystallographic Data Centre
#                                CCDC 
#
#######################################################################
#
# If this CIF has been generated from an entry in the Cambridge 
# Structural Database, then it will include bibliographic, chemical, 
# crystal, experimental, refinement or atomic coordinate data resulting 
# from the CCDC's data processing and validation procedures.
#
#######################################################################

data_INUFAY
_symmetry_cell_setting           triclinic
_symmetry_space_group_name_H-M   'P -1'
_symmetry_Int_Tables_number      2
_space_group_name_Hall           '-P 1'
loop_
_symmetry_equiv_pos_site_id
_symmetry_equiv_pos_as_xyz
1 x,y,z
2 -x,-y,-z
_cell_length_a                   8.5908(9)
_cell_length_b                   8.7274(9)
_cell_length_c                   8.8615(9)
_cell_angle_alpha                76.811(2)
_cell_angle_beta                 65.576(2)
_cell_angle_gamma                64.544(2)
_cell_volume                     545.179
loop_
_atom_site_label
_atom_site_type_symbol
_atom_site_fract_x
_atom_site_fract_y
_atom_site_fract_z
Ni1 Ni 0.0000 1.0000 0.5000
O1 O 0.2244(2) 0.7714(2) 0.5169(2)
N1 N 0.1746(2) 1.0522(2) 0.2711(2)
N2 N 0.0534(2) 1.1345(2) 0.6242(2)
C1 C 0.4344(2) 0.5033(2) 0.5727(2)
H1 H 0.4564(2) 0.4127(2) 0.6503(2)
N3 N 0.3216(2) 1.1605(2) 0.3843(2)
O2 O 0.1365(2) 0.6358(2) 0.7627(2)
C2 C 0.3489(3) 1.0485(3) 0.2726(3)
H2 H 0.4204(3) 0.9333(3) 0.3027(3)
H3 H 0.4208(3) 1.0785(3) 0.1612(3)
C3 C 0.2027(3) 0.9330(3) 0.1591(2)
H4 H 0.2925(3) 0.8220(3) 0.1753(2)
H5 H 0.2490(3) 0.9739(3) 0.0444(2)
C4 C 0.2510(3) 0.6481(2) 0.6216(2)
C5 C 0.2519(3) 1.1141(3) 0.5591(3)
H6 H 0.2656(3) 1.1837(3) 0.6203(3)
H7 H 0.3262(3) 0.9965(3) 0.5795(3)
C6 C 0.0180(3) 0.9201(3) 0.1979(2)
H8 H -0.0693(3) 1.0295(3) 0.1745(2)
H9 H 0.0346(3) 0.8382(3) 0.1293(2)
C7 C 0.2427(3) 1.3434(3) 0.3416(3)
H10 H 0.2227(3) 1.4064(3) 0.4295(3)
H11 H 0.1236(3) 1.3711(3) 0.3347(3)
C8 C 0.3656(5) 1.3984(4) 0.1790(4)
H12 H 0.3081(5) 1.5183(4) 0.1564(4)
H13 H 0.3840(5) 1.3380(4) 0.0912(4)
H14 H 0.4826(5) 1.3737(4) 0.1860(4)
C1A C 0.5656(2) 0.4967(2) 0.4273(2)
H1A H 0.5436(2) 0.5873(2) 0.3497(2)
C4A C 0.7490(3) 0.3519(2) 0.3784(2)
O1A O 0.7756(2) 0.2286(2) 0.4831(2)
O2A O 0.8635(2) 0.3642(2) 0.2373(2)
C6A C -0.0180(3) 1.0799(3) 0.8021(2)
C3A C -0.2027(3) 1.0670(3) 0.8409(2)
N1A N -0.1746(2) 0.9478(2) 0.7289(2)
C2A C -0.3489(3) 0.9515(3) 0.7274(3)
N3A N -0.3216(2) 0.8395(2) 0.6157(2)
C5A C -0.2519(3) 0.8859(3) 0.4409(3)
N2A N -0.0534(2) 0.8655(2) 0.3758(2)
H6A H -0.2656(3) 0.8163(3) 0.3797(3)
H7A H -0.3262(3) 1.0035(3) 0.4205(3)
C7A C -0.2427(3) 0.6566(3) 0.6584(3)
H10A H -0.2227(3) 0.5936(3) 0.5705(3)
H11A H -0.1236(3) 0.6289(3) 0.6653(3)
C8A C -0.3656(5) 0.6016(4) 0.8210(4)
H12A H -0.3081(5) 0.4817(4) 0.8436(4)
H13A H -0.3840(5) 0.6620(4) 0.9088(4)
H14A H -0.4826(5) 0.6263(4) 0.8140(4)
H2A H -0.4204(3) 1.0667(3) 0.6973(3)
H3A H -0.4208(3) 0.9215(3) 0.8388(3)
H4A H -0.2925(3) 1.1780(3) 0.8247(2)
H5A H -0.2490(3) 1.0261(3) 0.9556(2)
H8A H 0.0693(3) 0.9705(3) 0.8255(2)
H9A H -0.0346(3) 1.1618(3) 0.8707(2)
O1A_2 O -0.2244(2) 1.2286(2) 0.4831(2)
Ni1_2 Ni 1.0000 0.0000 0.5000
O3 O 0.1654(4) 0.3093(3) 0.9181(3)
loop_
_geom_bond_atom_site_label_1
_geom_bond_atom_site_label_2
_geom_bond_site_symmetry_1
_geom_bond_site_symmetry_2
Ni1 O1 1_555 1_555
O1 C4 1_555 1_555
N1 Ni1 1_555 1_555
N2 Ni1 1_555 1_555
C1 H1 1_555 1_555
N3 C2 1_555 1_555
O2 C4 1_555 1_555
C2 N1 1_555 1_555
H2 C2 1_555 1_555
H3 C2 1_555 1_555
C3 N1 1_555 1_555
H4 C3 1_555 1_555
H5 C3 1_555 1_555
C4 C1 1_555 1_555
C5 N2 1_555 1_555
H6 C5 1_555 1_555
H7 C5 1_555 1_555
C6 C3 1_555 1_555
H8 C6 1_555 1_555
H9 C6 1_555 1_555
C7 N3 1_555 1_555
H10 C7 1_555 1_555
H11 C7 1_555 1_555
C8 C7 1_555 1_555
H12 C8 1_555 1_555
H13 C8 1_555 1_555
H14 C8 1_555 1_555
C1A C1 1_555 1_555
H1A C1A 1_555 1_555
C4A C1A 1_555 1_555
O1A C4A 1_555 1_555
O2A C4A 1_555 1_555
C6A N2 1_555 1_555
C3A C6A 1_555 1_555
N1A Ni1 1_555 1_555
C2A N1A 1_555 1_555
N3A C2A 1_555 1_555
C5A N3A 1_555 1_555
N2A Ni1 1_555 1_555
H6A C5A 1_555 1_555
H7A C5A 1_555 1_555
C7A N3A 1_555 1_555
H10A C7A 1_555 1_555
H11A C7A 1_555 1_555
C8A C7A 1_555 1_555
H12A C8A 1_555 1_555
H13A C8A 1_555 1_555
H14A C8A 1_555 1_555
H2A C2A 1_555 1_555
H3A C2A 1_555 1_555
H4A C3A 1_555 1_555
H5A C3A 1_555 1_555
H8A C6A 1_555 1_555
H9A C6A 1_555 1_555
O1A_2 Ni1 1_555 1_555
Ni1_2 O1A 1_555 1_555
N3 C5 1_555 1_555
C6 N2A 1_555 1_555
C3A N1A 1_555 1_555
C5A N2A 1_555 1_555

#END
