
#######################################################################
#
#                 Cambridge Crystallographic Data Centre
#                                CCDC 
#
#######################################################################
#
# If this CIF has been generated from an entry in the Cambridge 
# Structural Database, then it will include bibliographic, chemical, 
# crystal, experimental, refinement or atomic coordinate data resulting 
# from the CCDC's data processing and validation procedures.
#
#######################################################################

data_INUKIL
_symmetry_cell_setting           monoclinic
_symmetry_space_group_name_H-M   'P 21/c'
_symmetry_Int_Tables_number      14
_space_group_name_Hall           '-P 2ybc'
loop_
_symmetry_equiv_pos_site_id
_symmetry_equiv_pos_as_xyz
1 x,y,z
2 x,1/2-y,1/2+z
3 -x,-y,-z
4 -x,1/2+y,1/2-z
_cell_length_a                   10.0566(5)
_cell_length_b                   8.8843(5)
_cell_length_c                   20.2912(14)
_cell_angle_alpha                90
_cell_angle_beta                 100.052(3)
_cell_angle_gamma                90
_cell_volume                     1785.11
loop_
_atom_site_label
_atom_site_type_symbol
_atom_site_fract_x
_atom_site_fract_y
_atom_site_fract_z
Co1 Co -0.30413(2) -0.43953(3) 0.107110(11)
O1 O -0.44889(14) -0.28393(16) 0.06482(7)
O2 O -0.37358(17) -0.43974(18) 0.19613(8)
O3 O -0.57857(16) -0.3452(2) 0.16343(7)
O4 O -0.76286(13) -0.17088(16) 0.37291(7)
O5 O -0.57270(14) -0.12541(16) 0.43879(7)
N1 N -0.20568(16) -0.4037(2) 0.02248(8)
N2 N -0.12970(16) -0.31824(18) 0.14969(8)
C1 C -0.2437(2) -0.4484(2) -0.03989(11)
H1 H -0.3208 -0.5075 -0.0501
C2 C -0.1737(2) -0.4114(3) -0.09137(12)
H2 H -0.2029 -0.4467 -0.1346
C3 C -0.0608(2) -0.3218(3) -0.07705(11)
H3 H -0.0136 -0.2946 -0.1107
C4 C -0.0176(2) -0.2721(3) -0.01151(10)
C5 C -0.09387(18) -0.3173(2) 0.03672(9)
C6 C -0.05215(17) -0.2720(2) 0.10536(9)
C7 C 0.0647(2) -0.1845(3) 0.12373(11)
C8 C 0.1007(2) -0.1473(3) 0.19186(12)
H4 H 0.1778 -0.0906 0.2066
C9 C 0.0226(2) -0.1943(3) 0.23596(11)
H5 H 0.0462 -0.1705 0.2811
C10 C -0.0928(2) -0.2782(3) 0.21326(10)
H6 H -0.1466 -0.3075 0.2439
C11 C 0.0989(2) -0.1808(3) 0.00854(13)
H7 H 0.1486 -0.1491 -0.0235
C12 C 0.1387(2) -0.1396(3) 0.07273(13)
H8 H 0.2158 -0.0808 0.0842
C13 C -0.49188(19) -0.4066(2) 0.20544(9)
C14 C -0.5224(2) -0.4494(2) 0.27478(10)
C15 C -0.6713(2) -0.4308(2) 0.27915(10)
H9 H -0.6978 -0.3272 0.2690
H10 H -0.7248 -0.4945 0.2458
C16 C -0.7013(2) -0.4711(2) 0.34785(10)
H11 H -0.6860 -0.5779 0.3556
H12 H -0.7957 -0.4507 0.3489
C17 C -0.61286(18) -0.3819(2) 0.40416(9)
C18 C -0.46374(18) -0.4006(2) 0.39869(9)
H13 H -0.4374 -0.5047 0.4073
H14 H -0.4090 -0.3389 0.4325
C19 C -0.43668(18) -0.3552(2) 0.32952(9)
H15 H -0.4577 -0.2494 0.3218
H16 H -0.3418 -0.3696 0.3277
C20 C -0.65260(18) -0.2171(2) 0.40466(8)
O4C O -0.23714(13) -0.67088(16) 0.12709(7)
O5C O -0.42730(14) -0.62541(16) 0.06121(7)
Co1C Co -0.69587(2) 0.06047(3) 0.392890(11)
loop_
_geom_bond_atom_site_label_1
_geom_bond_atom_site_label_2
_geom_bond_site_symmetry_1
_geom_bond_site_symmetry_2
Co1 O1 1_555 1_555
O2 Co1 1_555 1_555
O3 C13 1_555 1_555
O4 C20 1_555 1_555
O5 C20 1_555 1_555
N1 Co1 1_555 1_555
N2 Co1 1_555 1_555
C1 N1 1_555 1_555
H1 C1 1_555 1_555
C2 C1 1_555 1_555
H2 C2 1_555 1_555
C3 C2 1_555 1_555
H3 C3 1_555 1_555
C4 C3 1_555 1_555
C5 N1 1_555 1_555
C6 N2 1_555 1_555
C7 C6 1_555 1_555
C8 C7 1_555 1_555
H4 C8 1_555 1_555
C9 C8 1_555 1_555
H5 C9 1_555 1_555
C10 N2 1_555 1_555
H6 C10 1_555 1_555
C11 C4 1_555 1_555
H7 C11 1_555 1_555
C12 C7 1_555 1_555
H8 C12 1_555 1_555
C13 O2 1_555 1_555
C14 C13 1_555 1_555
C15 C14 1_555 1_555
H9 C15 1_555 1_555
H10 C15 1_555 1_555
C16 C15 1_555 1_555
H11 C16 1_555 1_555
H12 C16 1_555 1_555
C17 C16 1_555 1_555
C18 C17 1_555 1_555
H13 C18 1_555 1_555
H14 C18 1_555 1_555
C19 C14 1_555 1_555
H15 C19 1_555 1_555
H16 C19 1_555 1_555
C20 C17 1_555 1_555
O4C Co1 1_555 1_555
O5C Co1 1_555 1_555
Co1C O4 1_555 1_555
O5 Co1C 1_555 1_555
C4 C5 1_555 1_555
C5 C6 1_555 1_555
C9 C10 1_555 1_555
C11 C12 1_555 1_555
C18 C19 1_555 1_555

#END
