
#######################################################################
#
#                 Cambridge Crystallographic Data Centre
#                                CCDC 
#
#######################################################################
#
# If this CIF has been generated from an entry in the Cambridge 
# Structural Database, then it will include bibliographic, chemical, 
# crystal, experimental, refinement or atomic coordinate data resulting 
# from the CCDC's data processing and validation procedures.
#
#######################################################################

data_INUNUB
_symmetry_cell_setting           monoclinic
_symmetry_space_group_name_H-M   'C c'
_symmetry_Int_Tables_number      9
_space_group_name_Hall           'C -2yc'
loop_
_symmetry_equiv_pos_site_id
_symmetry_equiv_pos_as_xyz
1 x,y,z
2 x,-y,1/2+z
3 1/2+x,1/2+y,z
4 1/2+x,1/2-y,1/2+z
_cell_length_a                   16.538(3)
_cell_length_b                   15.656(3)
_cell_length_c                   8.137(2)
_cell_angle_alpha                90
_cell_angle_beta                 115.656(15)
_cell_angle_gamma                90
_cell_volume                     1899.11
loop_
_atom_site_label
_atom_site_type_symbol
_atom_site_fract_x
_atom_site_fract_y
_atom_site_fract_z
Cu1 Cu 0.98024(3) 0.87284(2) 0.43628(5)
C1 C 0.9146(2) 0.9995(2) 0.5871(5)
C2 C 0.8468(2) 0.92914(19) 0.5323(5)
C3 C 0.7664(2) 0.9157(2) 0.5372(5)
C4 C 0.7139(2) 0.9711(2) 0.6058(6)
H1 H 0.6671 0.9996 0.5049
H2 H 0.7530 1.0128 0.6888
H3 H 0.6879 0.9364 0.6678
C5 C 0.6653(2) 0.7852(2) 0.4451(5)
C6 C 0.5810(3) 0.8203(2) 0.3688(6)
H4 H 0.5727 0.8762 0.3261
C7 C 0.5082(3) 0.7720(3) 0.3556(7)
H5 H 0.4511 0.7959 0.3060
C8 C 0.5203(3) 0.6890(3) 0.4157(6)
H6 H 0.4715 0.6565 0.4066
C9 C 0.6046(3) 0.6543(2) 0.4892(6)
H7 H 0.6122 0.5978 0.5283
C10 C 0.6790(3) 0.7013(2) 0.5067(6)
H8 H 0.7362 0.6775 0.5580
C11 C 1.0720(2) 0.7274(2) 0.4155(5)
C12 C 1.1358(2) 0.8003(2) 0.4502(5)
C13 C 1.2200(2) 0.8081(2) 0.4641(5)
C14 C 1.2835(2) 0.7403(2) 0.4611(6)
H9 H 1.3303 0.7325 0.5819
H10 H 1.3093 0.7575 0.3809
H11 H 1.2515 0.6876 0.4186
C15 C 1.3098(2) 0.9440(2) 0.4884(5)
C16 C 1.3955(2) 0.9116(2) 0.5664(6)
H12 H 1.4067 0.8566 0.6142
C17 C 1.4651(2) 0.9632(3) 0.5716(6)
H13 H 1.5235 0.9424 0.6227
C18 C 1.4485(3) 1.0438(3) 0.5031(6)
H14 H 1.4955 1.0769 0.5043
C19 C 1.3630(3) 1.0770(2) 0.4317(6)
H15 H 1.3527 1.1331 0.3905
C20 C 1.2921(3) 1.0263(2) 0.4216(5)
H16 H 1.2338 1.0475 0.3707
N1 N 0.8663(2) 0.8591(2) 0.4585(5)
N2 N 0.8032(2) 0.8011(2) 0.4169(5)
N3 N 0.74169(17) 0.8362(2) 0.4659(4)
N4 N 1.1037(2) 0.87795(17) 0.4595(5)
N5 N 1.16341(18) 0.93655(17) 0.4798(4)
N6 N 1.23510(17) 0.89393(18) 0.4814(4)
O1 O 0.98176(16) 0.98376(14) 0.5526(4)
O2 O 0.90126(15) 1.06571(14) 0.6546(3)
O3 O 0.99262(16) 0.75197(14) 0.3911(4)
O4 O 1.09520(17) 0.65473(15) 0.4088(5)
Cu1A Cu 0.98024(3) 1.12716(2) 0.93628(5)
O2A O 0.90126(15) 0.93429(14) 0.1546(3)
loop_
_geom_bond_atom_site_label_1
_geom_bond_atom_site_label_2
_geom_bond_site_symmetry_1
_geom_bond_site_symmetry_2
Cu1 N1 1_555 1_555
C1 C2 1_555 1_555
C2 C3 1_555 1_555
C3 C4 1_555 1_555
C4 H1 1_555 1_555
H2 C4 1_555 1_555
H3 C4 1_555 1_555
C5 C6 1_555 1_555
C6 H4 1_555 1_555
C7 C6 1_555 1_555
H5 C7 1_555 1_555
C8 C7 1_555 1_555
H6 C8 1_555 1_555
C9 C8 1_555 1_555
H7 C9 1_555 1_555
C10 C5 1_555 1_555
H8 C10 1_555 1_555
C11 C12 1_555 1_555
C12 C13 1_555 1_555
C13 C14 1_555 1_555
C14 H9 1_555 1_555
H10 C14 1_555 1_555
H11 C14 1_555 1_555
C15 C16 1_555 1_555
C16 H12 1_555 1_555
C17 C16 1_555 1_555
H13 C17 1_555 1_555
C18 C17 1_555 1_555
H14 C18 1_555 1_555
C19 C18 1_555 1_555
H15 C19 1_555 1_555
C20 C15 1_555 1_555
H16 C20 1_555 1_555
N1 C2 1_555 1_555
N2 N1 1_555 1_555
N3 C3 1_555 1_555
N4 Cu1 1_555 1_555
N5 N4 1_555 1_555
N6 C13 1_555 1_555
O1 Cu1 1_555 1_555
O2 C1 1_555 1_555
O3 Cu1 1_555 1_555
O4 C11 1_555 1_555
Cu1A O2 1_555 1_555
O2A Cu1 1_555 1_555
C1 O1 1_555 1_555
C5 N3 1_555 1_555
C9 C10 1_555 1_555
C11 O3 1_555 1_555
C12 N4 1_555 1_555
C15 N6 1_555 1_555
C19 C20 1_555 1_555
N2 N3 1_555 1_555
N5 N6 1_555 1_555

#END
