
#######################################################################
#
#                 Cambridge Crystallographic Data Centre
#                                CCDC 
#
#######################################################################
#
# If this CIF has been generated from an entry in the Cambridge 
# Structural Database, then it will include bibliographic, chemical, 
# crystal, experimental, refinement or atomic coordinate data resulting 
# from the CCDC's data processing and validation procedures.
#
#######################################################################

data_INUPAJ
_symmetry_cell_setting           monoclinic
_symmetry_space_group_name_H-M   'C c'
_symmetry_Int_Tables_number      9
_space_group_name_Hall           'C -2yc'
loop_
_symmetry_equiv_pos_site_id
_symmetry_equiv_pos_as_xyz
1 x,y,z
2 x,-y,1/2+z
3 1/2+x,1/2+y,z
4 1/2+x,1/2-y,1/2+z
_cell_length_a                   16.507(3)
_cell_length_b                   15.651(2)
_cell_length_c                   8.120(2)
_cell_angle_alpha                90
_cell_angle_beta                 115.576(8)
_cell_angle_gamma                90
_cell_volume                     1892.25
loop_
_atom_site_label
_atom_site_type_symbol
_atom_site_fract_x
_atom_site_fract_y
_atom_site_fract_z
Ni1 Ni 0.41694(4) 0.37277(3) 0.58680(6)
C1 C 0.4837(2) 0.4993(2) 0.4371(5)
C2 C 0.5508(3) 0.4293(2) 0.4913(5)
C3 C 0.6318(2) 0.4160(2) 0.4867(5)
C4 C 0.6837(3) 0.4710(3) 0.4177(6)
H1 H 0.7329 0.4968 0.5190
H2 H 0.6453 0.5148 0.3407
H3 H 0.7066 0.4368 0.3489
C5 C 0.7319(3) 0.2850(3) 0.5780(6)
C6 C 0.7187(3) 0.2017(3) 0.5176(7)
H4 H 0.6614 0.1780 0.4668
C7 C 0.7922(3) 0.1539(3) 0.5338(7)
H5 H 0.7845 0.0973 0.4951
C8 C 0.8764(3) 0.1894(3) 0.6067(7)
H6 H 0.9252 0.1570 0.6147
C9 C 0.8893(3) 0.2724(3) 0.6681(7)
H7 H 0.9466 0.2960 0.7183
C10 C 0.8163(3) 0.3206(3) 0.6546(6)
H8 H 0.8244 0.3766 0.6970
C11 C 0.3255(3) 0.2282(2) 0.6084(6)
C12 C 0.2614(3) 0.3001(3) 0.5742(6)
C13 C 0.1766(3) 0.3084(2) 0.5573(6)
C14 C 0.1131(3) 0.2406(3) 0.5616(7)
H9 H 0.0661 0.2325 0.4409
H10 H 0.0874 0.2580 0.6422
H11 H 0.1451 0.1879 0.6044
C15 C 0.0878(3) 0.4442(2) 0.5351(5)
C16 C 0.0019(3) 0.4116(3) 0.4568(6)
H12 H -0.0093 0.3568 0.4080
C17 C -0.0672(3) 0.4629(3) 0.4528(6)
H13 H -0.1253 0.4413 0.4037
C18 C -0.0522(3) 0.5446(3) 0.5191(6)
H14 H -0.0994 0.5781 0.5158
C19 C 0.0352(3) 0.5769(3) 0.5918(6)
H15 H 0.0461 0.6329 0.6343
C20 C 0.1052(3) 0.5264(2) 0.6009(6)
H16 H 0.1635 0.5475 0.6509
N1 N 0.6552(2) 0.3365(2) 0.5566(4)
N2 N 0.5942(3) 0.3010(2) 0.6056(5)
N3 N 0.5310(3) 0.3590(2) 0.5646(6)
N4 N 0.16211(19) 0.3942(2) 0.5417(5)
N5 N 0.2342(2) 0.43675(19) 0.5432(5)
N6 N 0.2935(3) 0.3778(2) 0.5638(6)
O1 O 0.41552(18) 0.48390(16) 0.4703(4)
O2 O 0.49609(17) 0.56558(16) 0.3680(4)
O3 O 0.40496(18) 0.25229(16) 0.6330(4)
O4 O 0.30222(19) 0.15425(17) 0.6154(5)
Ni1A Ni 0.41694(4) 0.62723(3) 0.08680(6)
O2A O 0.49609(17) 0.43442(16) 0.8680(4)
loop_
_geom_bond_atom_site_label_1
_geom_bond_atom_site_label_2
_geom_bond_site_symmetry_1
_geom_bond_site_symmetry_2
Ni1 N3 1_555 1_555
C1 C2 1_555 1_555
C2 C3 1_555 1_555
C3 C4 1_555 1_555
C4 H1 1_555 1_555
H2 C4 1_555 1_555
H3 C4 1_555 1_555
C5 C6 1_555 1_555
C6 H4 1_555 1_555
C7 C6 1_555 1_555
H5 C7 1_555 1_555
C8 C7 1_555 1_555
H6 C8 1_555 1_555
C9 C8 1_555 1_555
H7 C9 1_555 1_555
C10 C5 1_555 1_555
H8 C10 1_555 1_555
C11 C12 1_555 1_555
C12 C13 1_555 1_555
C13 C14 1_555 1_555
C14 H9 1_555 1_555
H10 C14 1_555 1_555
H11 C14 1_555 1_555
C15 C16 1_555 1_555
C16 H12 1_555 1_555
C17 C16 1_555 1_555
H13 C17 1_555 1_555
C18 C17 1_555 1_555
H14 C18 1_555 1_555
C19 C18 1_555 1_555
H15 C19 1_555 1_555
C20 C15 1_555 1_555
H16 C20 1_555 1_555
N1 C3 1_555 1_555
N2 N1 1_555 1_555
N3 C2 1_555 1_555
N4 C13 1_555 1_555
N5 N4 1_555 1_555
N6 Ni1 1_555 1_555
O1 Ni1 1_555 1_555
O2 C1 1_555 1_555
O3 Ni1 1_555 1_555
O4 C11 1_555 1_555
Ni1A O2 1_555 1_555
O2A Ni1 1_555 1_555
C1 O1 1_555 1_555
C5 N1 1_555 1_555
C9 C10 1_555 1_555
C11 O3 1_555 1_555
C12 N6 1_555 1_555
C15 N4 1_555 1_555
C19 C20 1_555 1_555
N2 N3 1_555 1_555
N5 N6 1_555 1_555

#END
