
#######################################################################
#
#                 Cambridge Crystallographic Data Centre
#                                CCDC 
#
#######################################################################
#
# If this CIF has been generated from an entry in the Cambridge 
# Structural Database, then it will include bibliographic, chemical, 
# crystal, experimental, refinement or atomic coordinate data resulting 
# from the CCDC's data processing and validation procedures.
#
#######################################################################

data_INUQAK
_symmetry_cell_setting           triclinic
_symmetry_space_group_name_H-M   'P -1'
_symmetry_Int_Tables_number      2
_space_group_name_Hall           '-P 1'
loop_
_symmetry_equiv_pos_site_id
_symmetry_equiv_pos_as_xyz
1 x,y,z
2 -x,-y,-z
_cell_length_a                   11.6881(10)
_cell_length_b                   12.2842(10)
_cell_length_c                   12.4317(9)
_cell_angle_alpha                79.659(7)
_cell_angle_beta                 80.465(7)
_cell_angle_gamma                63.902(8)
_cell_volume                     1569.3
loop_
_atom_site_label
_atom_site_type_symbol
_atom_site_fract_x
_atom_site_fract_y
_atom_site_fract_z
Cd1 Cd 0.11860(2) 0.669334(19) 0.166690(15)
C1 C 0.1499(3) 0.7726(3) -0.0483(2)
C2 C 0.2178(3) 0.8013(3) -0.1540(2)
C3 C 0.2685(3) 0.8852(3) -0.1568(3)
C4 C 0.2503(3) 0.7330(3) -0.2447(2)
C5 C 0.1911(4) 0.6583(3) -0.2571(2)
H1 H 0.1279 0.6515 -0.2037
C6 C 0.2256(5) 0.5951(3) -0.3472(3)
H2 H 0.1838 0.5482 -0.3551
C7 C 0.3233(6) 0.6015(5) -0.4268(4)
H3 H 0.3500 0.5550 -0.4850
C8 C 0.1961(3) 0.4299(3) 0.2735(3)
C9 C 0.2368(3) 0.3022(3) 0.3296(2)
C10 C 0.2601(3) 0.2009(3) 0.2728(2)
C11 C 0.2358(4) 0.2125(3) 0.1629(3)
H4 H 0.2023 0.2898 0.1233
C12 C 0.3079(3) 0.0811(3) 0.3294(3)
C13 C 0.3331(3) -0.0184(3) 0.2750(3)
H5 H 0.3650 -0.0966 0.3130
C14 C 0.3125(4) -0.0039(3) 0.1690(4)
H6 H 0.3328 -0.0714 0.1334
C15 C 0.2607(3) 0.2776(3) 0.4395(2)
C16 C 0.3729(3) 0.6531(3) 0.2518(2)
H7 H 0.3211 0.6552 0.3175
C17 C 0.4864(3) 0.6598(2) 0.2535(2)
H8 H 0.5099 0.6665 0.3191
C18 C 0.5659(2) 0.6566(2) 0.1574(2)
C19 C 0.5258(3) 0.6429(3) 0.0639(2)
H9 H 0.5770 0.6378 -0.0024
C20 C 0.4110(3) 0.6371(3) 0.0694(2)
H10 H 0.3861 0.6280 0.0055
C21 C 0.6866(2) 0.6686(2) 0.15588(19)
C22 C 0.7964(3) 0.5999(3) 0.0950(2)
H11 H 0.7955 0.5469 0.0506
C23 C 0.6948(3) 0.7481(3) 0.2162(2)
H12 H 0.6226 0.7982 0.2572
C24 C 0.8094(3) 0.7532(3) 0.2159(2)
H13 H 0.8122 0.8085 0.2565
C25 C 0.0411(3) 0.9201(3) 0.2709(2)
H14 H 0.0484 0.9484 0.1966
C26 C 0.0087(3) 0.9603(2) 0.4574(2)
C27 C 0.0126(3) 0.8454(3) 0.4850(2)
H15 H 0.0018 0.8160 0.5586
C28 C 0.0323(3) 0.7736(3) 0.4046(2)
H16 H 0.0343 0.6963 0.4261
C29 C 0.0230(3) 0.9968(3) 0.3464(2)
H17 H 0.0204 1.0739 0.3224
C30 C 0.2605(5) 0.1129(3) 0.1136(3)
H18 H 0.2422 0.1235 0.0414
C31 C 0.3070(3) 0.1591(3) 0.4938(3)
H19 H 0.3220 0.1454 0.5673
C32 C 0.3775(5) 0.6741(5) -0.4185(4)
H20 H 0.4398 0.6797 -0.4735
C33 C 0.3446(4) 0.7432(4) -0.3298(3)
C34 C 0.3997(4) 0.8231(5) -0.3218(4)
H21 H 0.4641 0.8273 -0.3752
C35 C 0.3624(4) 0.8928(4) -0.2403(4)
H22 H 0.3987 0.9464 -0.2390
C36 C 0.9068(3) 0.6102(3) 0.1004(2)
H23 H 0.9803 0.5625 0.0590
C37 C 0.3301(3) 0.0643(3) 0.4403(3)
H24 H 0.3616 -0.0142 0.4775
N1 N 0.0485(2) 0.80865(19) 0.29827(17)
N2 N 0.3324(2) 0.6438(2) 0.16185(17)
N3 N 0.9160(2) 0.68402(19) 0.16106(16)
O1 O 0.1923(2) 0.45575(17) 0.17270(16)
O2 O 0.1667(2) 0.51360(18) 0.33430(16)
O3 O 0.14759(18) 0.67068(17) -0.02423(13)
O4 O 0.1064(2) 0.84898(18) 0.02100(15)
O5 O 0.2365(3) 0.9588(2) -0.0792(2)
H25 H 0.1890 0.9420 -0.0296
O6 O 0.2416(3) 0.3659(2) 0.49930(17)
H26 H 0.2139 0.4323 0.4614
Cd1A Cd -0.11860(2) 1.330666(19) 0.833310(15)
Cd1_2 Cd 1.11860(2) 0.669334(19) 0.166690(15)
Cd1_3 Cd -0.88140(2) 0.669334(19) 0.166690(15)
C1A C -0.1499(3) 1.2274(3) 1.0483(2)
C2A C -0.2178(3) 1.1987(3) 1.1540(2)
C3A C -0.2685(3) 1.1148(3) 1.1568(3)
C4A C -0.2503(3) 1.2670(3) 1.2447(2)
C5A C -0.1911(4) 1.3417(3) 1.2571(2)
H1A H -0.1279 1.3485 1.2037
C6A C -0.2256(5) 1.4049(3) 1.3472(3)
H2A H -0.1838 1.4518 1.3551
C7A C -0.3233(6) 1.3985(5) 1.4268(4)
H3A H -0.3500 1.4450 1.4850
C8A C -0.1961(3) 1.5701(3) 0.7265(3)
C9A C -0.2368(3) 1.6978(3) 0.6704(2)
C10A C -0.2601(3) 1.7991(3) 0.7272(2)
C11A C -0.2358(4) 1.7875(3) 0.8371(3)
H4A H -0.2023 1.7102 0.8767
C12A C -0.3079(3) 1.9189(3) 0.6706(3)
C13A C -0.3331(3) 2.0184(3) 0.7250(3)
H5A H -0.3650 2.0966 0.6870
C14A C -0.3125(4) 2.0039(3) 0.8310(4)
H6A H -0.3328 2.0714 0.8666
C15A C -0.2607(3) 1.7224(3) 0.5605(2)
C16_2 C -0.6271(3) 0.6531(3) 0.2518(2)
H7_2 H -0.6789 0.6552 0.3175
C17_2 C -0.5136(3) 0.6598(2) 0.2535(2)
H8_2 H -0.4901 0.6665 0.3191
C18_2 C -0.4341(2) 0.6566(2) 0.1574(2)
C19_2 C -0.4742(3) 0.6429(3) 0.0639(2)
H9_2 H -0.4230 0.6378 -0.0024
C20_2 C -0.5890(3) 0.6371(3) 0.0694(2)
H10_2 H -0.6139 0.6280 0.0055
C21_2 C -0.3134(2) 0.6686(2) 0.15588(19)
C22_2 C -0.2036(3) 0.5999(3) 0.0950(2)
H11_2 H -0.2045 0.5469 0.0506
C23_2 C -0.3052(3) 0.7481(3) 0.2162(2)
H12_2 H -0.3774 0.7982 0.2572
C24_2 C -0.1906(3) 0.7532(3) 0.2159(2)
H13_2 H -0.1878 0.8085 0.2565
C25A C -0.0411(3) 1.0799(3) 0.7291(2)
H14A H -0.0484 1.0516 0.8034
C26A C -0.0087(3) 1.0397(2) 0.5426(2)
C27A C -0.0126(3) 1.1546(3) 0.5150(2)
H15A H -0.0018 1.1840 0.4414
C28A C -0.0323(3) 1.2264(3) 0.5954(2)
H16A H -0.0343 1.3037 0.5739
C29A C -0.0230(3) 1.0032(3) 0.6536(2)
H17A H -0.0204 0.9261 0.6776
C30A C -0.2605(5) 1.8871(3) 0.8864(3)
H18A H -0.2422 1.8765 0.9586
C31A C -0.3070(3) 1.8409(3) 0.5062(3)
H19A H -0.3220 1.8546 0.4327
C32A C -0.3775(5) 1.3259(5) 1.4185(4)
H20A H -0.4398 1.3203 1.4735
C33A C -0.3446(4) 1.2568(4) 1.3298(3)
C34A C -0.3997(4) 1.1769(5) 1.3218(4)
H21A H -0.4641 1.1727 1.3752
C35A C -0.3624(4) 1.1072(4) 1.2403(4)
H22A H -0.3987 1.0536 1.2390
C36_2 C -0.0932(3) 0.6102(3) 0.1004(2)
H23_2 H -0.0197 0.5625 0.0590
C37A C -0.3301(3) 1.9357(3) 0.5597(3)
H24A H -0.3616 2.0142 0.5225
N1A N -0.0485(2) 1.19135(19) 0.70173(17)
N2_2 N -0.6676(2) 0.6438(2) 0.16185(17)
N2A N -0.3324(2) 1.3562(2) 0.83815(17)
N3_2 N -0.0840(2) 0.68402(19) 0.16106(16)
N3A N 0.0840(2) 1.31598(19) 0.83894(16)
O1A O -0.1923(2) 1.54425(17) 0.82730(16)
O2A O -0.1667(2) 1.48640(18) 0.66570(16)
O3A O -0.14759(18) 1.32932(17) 1.02423(13)
O4A O -0.1064(2) 1.15102(18) 0.97900(15)
O5A O -0.2365(3) 1.0412(2) 1.0792(2)
H25A H -0.1890 1.0580 1.0296
O6A O -0.2416(3) 1.6341(2) 0.50070(17)
H26A H -0.2139 1.5677 0.5386
loop_
_geom_bond_atom_site_label_1
_geom_bond_atom_site_label_2
_geom_bond_site_symmetry_1
_geom_bond_site_symmetry_2
Cd1 N1 1_555 1_555
C1 C2 1_555 1_555
C2 C3 1_555 1_555
C3 C35 1_555 1_555
C4 C2 1_555 1_555
C5 C4 1_555 1_555
H1 C5 1_555 1_555
C6 C5 1_555 1_555
H2 C6 1_555 1_555
C7 C6 1_555 1_555
H3 C7 1_555 1_555
C8 C9 1_555 1_555
C9 C10 1_555 1_555
C10 C11 1_555 1_555
C11 H4 1_555 1_555
C12 C10 1_555 1_555
C13 C12 1_555 1_555
H5 C13 1_555 1_555
C14 C13 1_555 1_555
H6 C14 1_555 1_555
C15 C9 1_555 1_555
C16 H7 1_555 1_555
C17 C16 1_555 1_555
H8 C17 1_555 1_555
C18 C17 1_555 1_555
C19 C18 1_555 1_555
H9 C19 1_555 1_555
C20 C19 1_555 1_555
H10 C20 1_555 1_555
C21 C18 1_555 1_555
C22 C21 1_555 1_555
H11 C22 1_555 1_555
C23 C21 1_555 1_555
H12 C23 1_555 1_555
C24 C23 1_555 1_555
H13 C24 1_555 1_555
C25 H14 1_555 1_555
C26 C27 1_555 1_555
C27 H15 1_555 1_555
C28 C27 1_555 1_555
H16 C28 1_555 1_555
C29 C25 1_555 1_555
H17 C29 1_555 1_555
C30 C11 1_555 1_555
H18 C30 1_555 1_555
C31 C15 1_555 1_555
H19 C31 1_555 1_555
C32 C7 1_555 1_555
H20 C32 1_555 1_555
C33 C4 1_555 1_555
C34 C33 1_555 1_555
H21 C34 1_555 1_555
C35 C34 1_555 1_555
H22 C35 1_555 1_555
C36 C22 1_555 1_555
H23 C36 1_555 1_555
C37 C12 1_555 1_555
H24 C37 1_555 1_555
N1 C25 1_555 1_555
N2 Cd1 1_555 1_555
N3 C24 1_555 1_555
O1 Cd1 1_555 1_555
O2 Cd1 1_555 1_555
O3 Cd1 1_555 1_555
O4 Cd1 1_555 1_555
O5 C3 1_555 1_555
H25 O5 1_555 1_555
O6 C15 1_555 1_555
H26 O6 1_555 1_555
Cd1A N1A 1_555 1_555
Cd1_2 N3 1_555 1_555
Cd1_3 N2_2 1_555 1_555
C1A C2A 1_555 1_555
C2A C3A 1_555 1_555
C3A C35A 1_555 1_555
C4A C2A 1_555 1_555
C5A C4A 1_555 1_555
H1A C5A 1_555 1_555
C6A C5A 1_555 1_555
H2A C6A 1_555 1_555
C7A C6A 1_555 1_555
H3A C7A 1_555 1_555
C8A C9A 1_555 1_555
C9A C10A 1_555 1_555
C10A C11A 1_555 1_555
C11A H4A 1_555 1_555
C12A C10A 1_555 1_555
C13A C12A 1_555 1_555
H5A C13A 1_555 1_555
C14A C13A 1_555 1_555
H6A C14A 1_555 1_555
C15A C9A 1_555 1_555
C16_2 H7_2 1_555 1_555
C17_2 C16_2 1_555 1_555
H8_2 C17_2 1_555 1_555
C18_2 C17_2 1_555 1_555
C19_2 C18_2 1_555 1_555
H9_2 C19_2 1_555 1_555
C20_2 C19_2 1_555 1_555
H10_2 C20_2 1_555 1_555
C21_2 C18_2 1_555 1_555
C22_2 C21_2 1_555 1_555
H11_2 C22_2 1_555 1_555
C23_2 C21_2 1_555 1_555
H12_2 C23_2 1_555 1_555
C24_2 C23_2 1_555 1_555
H13_2 C24_2 1_555 1_555
C25A H14A 1_555 1_555
C26A C26 1_555 1_555
C27A C26A 1_555 1_555
H15A C27A 1_555 1_555
C28A C27A 1_555 1_555
H16A C28A 1_555 1_555
C29A C25A 1_555 1_555
H17A C29A 1_555 1_555
C30A C11A 1_555 1_555
H18A C30A 1_555 1_555
C31A C15A 1_555 1_555
H19A C31A 1_555 1_555
C32A C7A 1_555 1_555
H20A C32A 1_555 1_555
C33A C4A 1_555 1_555
C34A C33A 1_555 1_555
H21A C34A 1_555 1_555
C35A C34A 1_555 1_555
H22A C35A 1_555 1_555
C36_2 C22_2 1_555 1_555
H23_2 C36_2 1_555 1_555
C37A C12A 1_555 1_555
H24A C37A 1_555 1_555
N1A C25A 1_555 1_555
N2_2 C16_2 1_555 1_555
N2A Cd1A 1_555 1_555
N3_2 Cd1 1_555 1_555
N3A Cd1A 1_555 1_555
O1A Cd1A 1_555 1_555
O2A Cd1A 1_555 1_555
O3A Cd1A 1_555 1_555
O4A Cd1A 1_555 1_555
O5A C3A 1_555 1_555
H25A O5A 1_555 1_555
O6A C15A 1_555 1_555
H26A O6A 1_555 1_555
C1 O3 1_555 1_555
C1 O4 1_555 1_555
C8 O1 1_555 1_555
C8 O2 1_555 1_555
C14 C30 1_555 1_555
C16 N2 1_555 1_555
C20 N2 1_555 1_555
C26 C29 1_555 1_555
C28 N1 1_555 1_555
C31 C37 1_555 1_555
C32 C33 1_555 1_555
C36 N3 1_555 1_555
C1A O3A 1_555 1_555
C1A O4A 1_555 1_555
C8A O1A 1_555 1_555
C8A O2A 1_555 1_555
C14A C30A 1_555 1_555
C20_2 N2_2 1_555 1_555
C24_2 N3_2 1_555 1_555
C26A C29A 1_555 1_555
C28A N1A 1_555 1_555
C31A C37A 1_555 1_555
C32A C33A 1_555 1_555
C36_2 N3_2 1_555 1_555

#END
