
#######################################################################
#
#                 Cambridge Crystallographic Data Centre
#                                CCDC 
#
#######################################################################
#
# If this CIF has been generated from an entry in the Cambridge 
# Structural Database, then it will include bibliographic, chemical, 
# crystal, experimental, refinement or atomic coordinate data resulting 
# from the CCDC's data processing and validation procedures.
#
#######################################################################

data_INURIS
_symmetry_cell_setting           rhombohedral
_symmetry_space_group_name_H-M   'R -3'
_symmetry_Int_Tables_number      148
_space_group_name_Hall           '-R 3'
loop_
_symmetry_equiv_pos_site_id
_symmetry_equiv_pos_as_xyz
1 x,y,z
2 -y,x-y,z
3 -x+y,-x,z
4 2/3+x,1/3+y,1/3+z
5 2/3-y,1/3+x-y,1/3+z
6 2/3-x+y,1/3-x,1/3+z
7 1/3+x,2/3+y,2/3+z
8 2/3+y,1/3-x+y,1/3-z
9 2/3+x-y,1/3+x,1/3-z
10 -x,-y,-z
11 y,-x+y,-z
12 x-y,x,-z
13 1/3-x,2/3-y,2/3-z
14 1/3+y,2/3-x+y,2/3-z
15 1/3+x-y,2/3+x,2/3-z
16 2/3-x,1/3-y,1/3-z
17 1/3-y,2/3+x-y,2/3+z
18 1/3-x+y,2/3-x,2/3+z
_cell_length_a                   53.643(7)
_cell_length_b                   53.643(7)
_cell_length_c                   11.920(10)
_cell_angle_alpha                90
_cell_angle_beta                 90
_cell_angle_gamma                120.00
_cell_volume                     29705.2
loop_
_atom_site_label
_atom_site_type_symbol
_atom_site_fract_x
_atom_site_fract_y
_atom_site_fract_z
Cu1 Cu -0.063041(14) 0.084235(14) 0.73310(5)
Cu2 Cu -0.087093(14) 0.098130(14) 0.93457(5)
Cu3 Cu -0.019200(14) 0.237508(13) 1.43890(5)
Cu4 Cu -0.242840(14) 0.018560(13) 1.35877(5)
O1 O -0.02925(9) 0.10462(8) 0.6381(3)
O2 O -0.00580(12) 0.08643(11) 0.7292(4)
O3 O -0.02979(8) 0.20522(8) 1.3403(3)
O4 O -0.07306(11) 0.17722(12) 1.4120(4)
O5 O -0.06883(8) 0.30325(8) 1.0720(3)
O6 O -0.08631(12) 0.26121(11) 0.9837(4)
O7 O -0.12160(8) 0.07782(8) 1.0230(3)
O8 O -0.14697(10) 0.09207(11) 0.9198(4)
O9 O -0.09542(8) 0.06814(8) 0.8303(3)
O10 O -0.05367(8) 0.11417(8) 0.8400(3)
O11 O -0.00316(10) 0.26994(8) 1.5387(3)
O12 O 0.00235(10) 0.22899(9) 1.5438(3)
N1 N 0.05264(9) 0.13256(9) 0.3784(3)
N2 N -0.07167(9) 0.12946(9) 1.0504(3)
N3 N -0.03627(9) 0.25294(9) 1.3303(3)
N4 N -0.20925(9) 0.03775(9) 1.2530(3)
C1 C 0.02955(10) 0.10530(10) 0.3749(4)
C2 C 0.02563(12) 0.08799(13) 0.2783(4)
H1 H 0.0384 0.0956 0.2184
C3 C 0.00370(14) 0.06081(14) 0.2731(5)
H2 H 0.0016 0.0498 0.2098
C4 C -0.01638(15) 0.04860(13) 0.3628(5)
H3 H -0.0315 0.0297 0.3578
C5 C -0.01353(13) 0.06426(12) 0.4542(5)
H4 H -0.0267 0.0560 0.5125
C6 C 0.00930(11) 0.09344(11) 0.4641(4)
C7 C 0.01288(11) 0.11057(11) 0.5579(4)
C8 C -0.00882(13) 0.09938(12) 0.6524(4)
C9 C 0.03669(11) 0.13865(12) 0.5638(4)
C10 C 0.04276(14) 0.15684(14) 0.6582(5)
H5 H 0.0303 0.1504 0.7193
C11 C 0.06643(16) 0.18352(16) 0.6611(7)
H6 H 0.0704 0.1950 0.7246
C12 C 0.08478(17) 0.19367(17) 0.5680(7)
H7 H 0.1005 0.2122 0.5698
C13 C 0.08028(15) 0.17725(15) 0.4750(6)
H8 H 0.0929 0.1845 0.4146
C14 C 0.05605(12) 0.14884(12) 0.4709(5)
C15 C -0.05964(11) 0.12504(11) 1.1417(5)
C16 C -0.05211(15) 0.10346(14) 1.1428(6)
H9 H -0.0550 0.0925 1.0786
C17 C -0.04070(18) 0.09826(18) 1.2358(7)
H10 H -0.0363 0.0836 1.2350
C18 C -0.03556(18) 0.11500(18) 1.3331(7)
H11 H -0.0280 0.1111 1.3964
C19 C -0.04140(14) 0.13640(15) 1.3358(5)
H12 H -0.0374 0.1475 1.4004
C20 C -0.05375(11) 0.14249(11) 1.2403(4)
C21 C -0.06128(10) 0.16388(10) 1.2403(4)
C22 C -0.05475(13) 0.18314(12) 1.3413(4)
C23 C -0.07452(10) 0.16785(10) 1.1466(4)
C24 C -0.08389(12) 0.18839(12) 1.1407(5)
H13 H -0.0813 0.2000 1.2027
C25 C -0.09639(15) 0.19154(13) 1.0481(5)
H14 H -0.1026 0.2050 1.0467
C26 C -0.10013(15) 0.17413(14) 0.9520(5)
H15 H -0.1084 0.1765 0.8874
C27 C -0.09185(13) 0.15447(12) 0.9539(4)
H16 H -0.0946 0.1433 0.8904
C28 C -0.07894(10) 0.15014(10) 1.0505(4)
C29 C -0.02068(11) 0.26643(11) 1.2371(4)
C30 C 0.00840(12) 0.27277(14) 1.2300(6)
H17 H 0.0167 0.2684 1.2898
C31 C 0.02410(14) 0.28521(16) 1.1359(7)
H18 H 0.0431 0.2892 1.1322
C32 C 0.01231(15) 0.29212(16) 1.0447(6)
H19 H 0.0233 0.3001 0.9804
C33 C -0.01471(13) 0.28727(13) 1.0495(5)
H20 H -0.0221 0.2925 0.9889
C34 C -0.03240(11) 0.27431(11) 1.1451(4)
C35 C -0.06071(11) 0.26852(10) 1.1527(4)
C36 C -0.07332(12) 0.27783(12) 1.0601(4)
C37 C -0.07714(11) 0.25441(10) 1.2474(4)
C38 C -0.10634(12) 0.24683(13) 1.2584(5)
H21 H -0.1151 0.2514 1.2012
C39 C -0.12167(14) 0.23299(15) 1.3508(6)
H22 H -0.1409 0.2280 1.3563
C40 C -0.10845(15) 0.22615(15) 1.4390(5)
H23 H -0.1190 0.2170 1.5030
C41 C -0.08072(13) 0.23268(13) 1.4315(4)
H24 H -0.0725 0.2277 1.4897
C42 C -0.06407(11) 0.24702(10) 1.3355(4)
C43 C -0.18777(10) 0.06491(11) 1.2705(4)
C44 C -0.18586(12) 0.07936(14) 1.3727(4)
H25 H -0.1991 0.0695 1.4293
C45 C -0.16530(14) 0.10693(15) 1.3897(5)
H26 H -0.1648 0.1160 1.4568
C46 C -0.14433(13) 0.12228(14) 1.3058(5)
H27 H -0.1303 0.1413 1.3179
C47 C -0.14481(12) 0.10918(12) 1.2082(5)
H28 H -0.1310 0.1194 1.1538
C48 C -0.16616(10) 0.08010(11) 1.1876(4)
C49 C -0.16730(10) 0.06568(11) 1.0883(4)
C50 C -0.14377(12) 0.07997(12) 1.0015(4)
C51 C -0.19008(11) 0.03772(11) 1.0692(4)
C52 C -0.19360(13) 0.02246(13) 0.9671(5)
H29 H -0.1801 0.0309 0.9101
C53 C -0.21626(15) -0.00396(14) 0.9528(6)
H30 H -0.2186 -0.0134 0.8849
C54 C -0.23651(15) -0.01761(13) 1.0381(6)
H31 H -0.2518 -0.0361 1.0268
C55 C -0.23400(13) -0.00414(12) 1.1366(5)
H32 H -0.2476 -0.0136 1.1928
C56 C -0.21116(11) 0.02408(11) 1.1558(4)
C57 C -0.12087(15) 0.04073(16) 0.8247(8)
H33 H -0.1159 0.0263 0.8059
H34 H -0.1335 0.0411 0.7684
H35 H -0.1304 0.0363 0.8962
C58 C -0.02893(16) 0.14120(15) 0.8454(7)
H36 H -0.0172 0.1440 0.7807
H37 H -0.0183 0.1424 0.9120
H38 H -0.0343 0.1558 0.8473
C59 C -0.0057(2) 0.29463(16) 1.5330(7)
H39 H 0.0010 0.3052 1.6019
H40 H -0.0255 0.2892 1.5212
H41 H 0.0057 0.3065 1.4718
C60 C 0.0034(2) 0.20302(15) 1.5518(7)
H42 H 0.0151 0.2042 1.6147
H43 H 0.0115 0.2003 1.4843
H44 H -0.0157 0.1871 1.5617
N1K N -0.07992(13) 0.05264(9) 0.6216(3)
O5O O -0.26450(8) 0.03008(8) 1.2613(3)
O11K O -0.27310(13) -0.00316(10) 1.4613(3)
O12K O -0.22664(13) 0.00235(10) 1.4562(3)
Cu4O Cu -0.090493(14) 0.314773(13) 0.97456(5)
Cu4J Cu 0.018560(13) 0.261400(19) 1.64123(5)
Cu1J Cu 0.084235(14) 0.147276(20) 0.26690(5)
O14 O -0.0941(3) 0.23753(19) 0.7764(8)
O16 O -0.0911(2) 0.16727(18) 1.6402(13)
O17 O -0.0607(3) 0.0284(2) 0.0933(6)
O18 O 0.0597(2) 0.24402(18) 1.3305(13)
O13? O 0.0671(2) 0.25510(18) 1.3108(13)
O15? O -0.0669(3) 0.24522(19) 0.7615(7)
loop_
_geom_bond_atom_site_label_1
_geom_bond_atom_site_label_2
_geom_bond_site_symmetry_1
_geom_bond_site_symmetry_2
Cu1 O1 1_555 1_555
Cu2 O7 1_555 1_555
Cu3 O3 1_555 1_555
Cu4 N4 1_555 1_555
O1 C8 1_555 1_555
O2 C8 1_555 1_555
O3 C22 1_555 1_555
O4 C22 1_555 1_555
O5 C36 1_555 1_555
O6 C36 1_555 1_555
O7 C50 1_555 1_555
O8 C50 1_555 1_555
O9 Cu1 1_555 1_555
O10 Cu1 1_555 1_555
O11 Cu3 1_555 1_555
O12 Cu3 1_555 1_555
N1 C1 1_555 1_555
N2 Cu2 1_555 1_555
N3 Cu3 1_555 1_555
N4 C43 1_555 1_555
C1 C2 1_555 1_555
C2 H1 1_555 1_555
C3 C2 1_555 1_555
H2 C3 1_555 1_555
C4 C3 1_555 1_555
H3 C4 1_555 1_555
C5 C4 1_555 1_555
H4 C5 1_555 1_555
C6 C1 1_555 1_555
C7 C6 1_555 1_555
C8 C7 1_555 1_555
C9 C7 1_555 1_555
C10 C9 1_555 1_555
H5 C10 1_555 1_555
C11 C10 1_555 1_555
H6 C11 1_555 1_555
C12 C11 1_555 1_555
H7 C12 1_555 1_555
C13 C12 1_555 1_555
H8 C13 1_555 1_555
C14 N1 1_555 1_555
C15 N2 1_555 1_555
C16 C15 1_555 1_555
H9 C16 1_555 1_555
C17 C16 1_555 1_555
H10 C17 1_555 1_555
C18 C17 1_555 1_555
H11 C18 1_555 1_555
C19 C18 1_555 1_555
H12 C19 1_555 1_555
C20 C15 1_555 1_555
C21 C20 1_555 1_555
C22 C21 1_555 1_555
C23 C21 1_555 1_555
C24 C23 1_555 1_555
H13 C24 1_555 1_555
C25 C24 1_555 1_555
H14 C25 1_555 1_555
C26 C25 1_555 1_555
H15 C26 1_555 1_555
C27 C26 1_555 1_555
H16 C27 1_555 1_555
C28 N2 1_555 1_555
C29 N3 1_555 1_555
C30 C29 1_555 1_555
H17 C30 1_555 1_555
C31 C30 1_555 1_555
H18 C31 1_555 1_555
C32 C31 1_555 1_555
H19 C32 1_555 1_555
C33 C32 1_555 1_555
H20 C33 1_555 1_555
C34 C29 1_555 1_555
C35 C34 1_555 1_555
C36 C35 1_555 1_555
C37 C35 1_555 1_555
C38 C37 1_555 1_555
H21 C38 1_555 1_555
C39 C38 1_555 1_555
H22 C39 1_555 1_555
C40 C39 1_555 1_555
H23 C40 1_555 1_555
C41 C40 1_555 1_555
H24 C41 1_555 1_555
C42 N3 1_555 1_555
C43 C44 1_555 1_555
C44 H25 1_555 1_555
C45 C44 1_555 1_555
H26 C45 1_555 1_555
C46 C45 1_555 1_555
H27 C46 1_555 1_555
C47 C46 1_555 1_555
H28 C47 1_555 1_555
C48 C43 1_555 1_555
C49 C48 1_555 1_555
C50 C49 1_555 1_555
C51 C49 1_555 1_555
C52 C51 1_555 1_555
H29 C52 1_555 1_555
C53 C52 1_555 1_555
H30 C53 1_555 1_555
C54 C53 1_555 1_555
H31 C54 1_555 1_555
C55 C54 1_555 1_555
H32 C55 1_555 1_555
C56 N4 1_555 1_555
C57 O9 1_555 1_555
H33 C57 1_555 1_555
H34 C57 1_555 1_555
H35 C57 1_555 1_555
C58 O10 1_555 1_555
H36 C58 1_555 1_555
H37 C58 1_555 1_555
H38 C58 1_555 1_555
C59 O11 1_555 1_555
H39 C59 1_555 1_555
H40 C59 1_555 1_555
H41 C59 1_555 1_555
C60 O12 1_555 1_555
H42 C60 1_555 1_555
H43 C60 1_555 1_555
H44 C60 1_555 1_555
N1K Cu1 1_555 1_555
O5O Cu4 1_555 1_555
O11K Cu4 1_555 1_555
O12K Cu4 1_555 1_555
Cu4O O5 1_555 1_555
Cu4J O11 1_555 1_555
Cu1J N1 1_555 1_555
Cu2 O9 1_555 1_555
Cu2 O10 1_555 1_555
O12 Cu4J 1_555 1_555
C5 C6 1_555 1_555
C9 C14 1_555 1_555
C13 C14 1_555 1_555
C19 C20 1_555 1_555
C23 C28 1_555 1_555
C27 C28 1_555 1_555
C33 C34 1_555 1_555
C37 C42 1_555 1_555
C41 C42 1_555 1_555
C47 C48 1_555 1_555
C51 C56 1_555 1_555
C55 C56 1_555 1_555

#END
