
#######################################################################
#
#                 Cambridge Crystallographic Data Centre
#                                CCDC 
#
#######################################################################
#
# If this CIF has been generated from an entry in the Cambridge 
# Structural Database, then it will include bibliographic, chemical, 
# crystal, experimental, refinement or atomic coordinate data resulting 
# from the CCDC's data processing and validation procedures.
#
#######################################################################

data_IODOCU
_symmetry_cell_setting           monoclinic
_symmetry_space_group_name_H-M   'P 21/c'
_symmetry_Int_Tables_number      14
_space_group_name_Hall           '-P 2ybc'
loop_
_symmetry_equiv_pos_site_id
_symmetry_equiv_pos_as_xyz
1 x,y,z
2 -x,1/2+y,1/2-z
3 -x,-y,-z
4 x,1/2-y,1/2+z
_cell_length_a                   4.225(2)
_cell_length_b                   10.792(3)
_cell_length_c                   21.907(7)
_cell_angle_alpha                90
_cell_angle_beta                 92.67(4)
_cell_angle_gamma                90
_cell_volume                     997.792
loop_
_atom_site_label
_atom_site_type_symbol
_atom_site_fract_x
_atom_site_fract_y
_atom_site_fract_z
I1 I 0.47000 -0.19860 -0.00550
Cu1 Cu 0.48250 -0.00730 0.07060
I2 I -0.00470 -0.02290 0.14270
Cu2 Cu 0.94780 -0.18900 -0.08660
N1 N 0.90600 -0.36000 -0.12200
C1 C 0.73500 -0.38400 -0.17600
C2 C 0.66100 -0.51200 -0.19000
C3 C 0.79000 -0.60200 -0.15400
C4 C 0.96500 -0.57400 -0.10300
C5 C 1.01600 -0.45100 -0.08800
C6 C 0.59100 -0.27900 -0.21200
Cu1B Cu 0.51750 0.00730 -0.07060
Cu2_2 Cu -0.05220 -0.18900 -0.08660
I1B I 0.53000 0.19860 0.00550
I2_2 I 0.99530 -0.02290 0.14270
Cu1_2 Cu -0.51750 -0.00730 0.07060
Cu2B Cu 0.05220 0.18900 0.08660
I1_2 I 1.47000 -0.19860 -0.00550
I2B I 1.00470 0.02290 -0.14270
loop_
_geom_bond_atom_site_label_1
_geom_bond_atom_site_label_2
_geom_bond_site_symmetry_1
_geom_bond_site_symmetry_2
I1 Cu1 1_555 1_555
Cu1 I2 1_555 1_555
I2 Cu1_2 1_555 1_555
Cu2 I1 1_555 1_555
N1 Cu2 1_555 1_555
C1 N1 1_555 1_555
C2 C1 1_555 1_555
C3 C2 1_555 1_555
C4 C3 1_555 1_555
C5 N1 1_555 1_555
C6 C1 1_555 1_555
Cu1B I1 1_555 1_555
Cu2_2 I1 1_555 1_555
I1B Cu1 1_555 1_555
I2_2 Cu1 1_555 1_555
Cu2B I2 1_555 1_555
I1_2 Cu2 1_555 1_555
I2B Cu2 1_555 1_555
C4 C5 1_555 1_555
Cu1B I1B 1_555 1_555
Cu1B I2B 1_555 1_555
I1B Cu2B 1_555 1_555

#END
