
#######################################################################
#
#                 Cambridge Crystallographic Data Centre
#                                CCDC 
#
#######################################################################
#
# If this CIF has been generated from an entry in the Cambridge 
# Structural Database, then it will include bibliographic, chemical, 
# crystal, experimental, refinement or atomic coordinate data resulting 
# from the CCDC's data processing and validation procedures.
#
#######################################################################

data_IOTAGP
_symmetry_cell_setting           monoclinic
_symmetry_space_group_name_H-M   'P 21/c'
_symmetry_Int_Tables_number      14
_space_group_name_Hall           '-P 2ybc'
loop_
_symmetry_equiv_pos_site_id
_symmetry_equiv_pos_as_xyz
1 x,y,z
2 -x,1/2+y,1/2-z
3 -x,-y,-z
4 x,1/2-y,1/2+z
_cell_length_a                   13.75(5)
_cell_length_b                   7.35(2)
_cell_length_c                   15.88(5)
_cell_angle_alpha                90
_cell_angle_beta                 119.9(6)
_cell_angle_gamma                90
_cell_volume                     1391.26
loop_
_atom_site_label
_atom_site_type_symbol
_atom_site_fract_x
_atom_site_fract_y
_atom_site_fract_z
Ag1 Ag 0.31170 0.18570 0.13300
S1 S 0.26310 0.76200 0.24870
C1 C 0.23660 0.56300 0.17960
N1 N 0.13410 0.51800 0.10710
N2 N 0.32930 0.45000 0.20400
C2 C 0.42700 0.53700 0.27800
O1 O 0.52280 0.46700 0.30860
C3 C 0.41310 0.71500 0.32270
S2 S 0.08600 -0.25420 -0.12550
C4 C 0.20470 -0.15700 -0.02350
N3 N 0.30580 -0.24400 0.02290
N4 N 0.18890 0.00000 0.00900
C5 C 0.07790 0.07200 -0.05030
O2 O 0.04490 0.22000 -0.03430
C6 C 0.00170 -0.05500 -0.14030
O1A O 0.47720 -0.03300 0.19140
Ag1A Ag 0.68830 0.68570 0.36700
Cl1 Cl 0.31010 0.28310 -0.10450
O3 O 0.20000 0.23800 -0.18240
O4 O 0.36600 0.37600 -0.14800
O5 O 0.37080 0.11900 -0.05930
O6 O 0.29900 0.38100 -0.03240
loop_
_geom_bond_atom_site_label_1
_geom_bond_atom_site_label_2
_geom_bond_site_symmetry_1
_geom_bond_site_symmetry_2
Ag1 N2 1_555 1_555
S1 C1 1_555 1_555
C1 N1 1_555 1_555
N2 C1 1_555 1_555
C2 N2 1_555 1_555
O1 C2 1_555 1_555
C3 S1 1_555 1_555
S2 C4 1_555 1_555
C4 N3 1_555 1_555
N4 Ag1 1_555 1_555
C5 N4 1_555 1_555
O2 C5 1_555 1_555
C6 S2 1_555 1_555
Cl1 O3 1_555 1_555
O4 Cl1 1_555 1_555
O5 Cl1 1_555 1_555
O6 Cl1 1_555 1_555
O1A Ag1 1_555 1_555
Ag1A O1 1_555 1_555
C2 C3 1_555 1_555
C4 N4 1_555 1_555
C5 C6 1_555 1_555

#END
