
#######################################################################
#
#                 Cambridge Crystallographic Data Centre
#                                CCDC 
#
#######################################################################
#
# If this CIF has been generated from an entry in the Cambridge 
# Structural Database, then it will include bibliographic, chemical, 
# crystal, experimental, refinement or atomic coordinate data resulting 
# from the CCDC's data processing and validation procedures.
#
#######################################################################

data_IPABIL
_symmetry_cell_setting           triclinic
_symmetry_space_group_name_H-M   'P -1'
_symmetry_Int_Tables_number      2
_space_group_name_Hall           '-P 1'
loop_
_symmetry_equiv_pos_site_id
_symmetry_equiv_pos_as_xyz
1 x,y,z
2 -x,-y,-z
_cell_length_a                   6.7798(6)
_cell_length_b                   7.0642(7)
_cell_length_c                   12.7826(11)
_cell_angle_alpha                101.008(8)
_cell_angle_beta                 94.213(7)
_cell_angle_gamma                90.708(8)
_cell_volume                     599.102
loop_
_atom_site_label
_atom_site_type_symbol
_atom_site_fract_x
_atom_site_fract_y
_atom_site_fract_z
Na1 Na 0.22707(8) 0.33786(7) 0.66062(4)
Na2 Na 0.32678(8) 0.30814(8) 0.93128(4)
O1 O 0.34652(16) 0.65750(16) 0.97662(9)
O2 O 0.04486(16) 0.35915(17) 0.81941(8)
O3 O 0.51506(16) 0.35231(17) 0.77781(9)
N1 N 0.24647(18) 0.68795(16) 0.68150(9)
N2 N 0.27853(18) 0.78969(16) 0.78145(9)
N3 N 0.23495(18) 0.30216(17) 0.19367(9)
N4 N 0.25233(18) 1.00219(16) 0.67896(9)
N5 N 0.28167(18) 0.97571(17) 0.78028(9)
N6 N 0.22176(18) -0.00499(17) 0.21011(9)
N7 N 0.21960(18) 0.18829(17) 0.09623(9)
C1 C 0.23623(19) 0.17808(19) 0.26073(10)
N8 N 0.21134(19) 0.00672(17) 0.10586(9)
C2 C 0.2323(2) 0.82388(19) 0.62162(11)
C3 C 0.2572(2) 0.2343(2) 0.37490(11)
N9 N 0.2746(2) 0.2773(2) 0.46595(10)
N10 N 0.1570(2) 0.7449(2) 0.41748(11)
C4 C 0.1934(2) 0.7812(2) 0.50766(12)
H1 H 0.589(3) 0.443(3) 0.7851(16)
H2 H -0.019(3) 0.461(4) 0.8239(18)
H3 H 0.576(3) 0.259(3) 0.7632(16)
H4 H 0.334(3) 0.684(3) 0.9191(16)
H5 H -0.031(3) 0.268(3) 0.8040(16)
H6 H 0.287(3) 0.736(3) 1.0135(16)
Na1_2 Na 0.22707(8) 1.33786(7) 0.66062(4)
Na1A Na -0.22707(8) 0.66214(7) 0.33938(4)
Na2A Na 0.67322(8) 0.69186(8) 1.06872(4)
Na2_2 Na 0.32678(8) 1.30814(8) 0.93128(4)
Na2_3 Na 0.32678(8) 0.30814(8) -0.06872(4)
O1A O 0.65348(16) 0.34250(16) 1.02338(9)
N4_2 N 0.25233(18) 0.00219(16) 0.67896(9)
N5_2 N 0.28167(18) -0.02429(17) 0.78028(9)
N7_2 N 0.21960(18) 0.18829(17) 1.09623(9)
N10A N -0.1570(2) 0.2551(2) 0.58252(11)
H4A H 0.666(3) 0.316(3) 1.0809(16)
H6A H 0.713(3) 0.264(3) 0.9865(16)
loop_
_geom_bond_atom_site_label_1
_geom_bond_atom_site_label_2
_geom_bond_site_symmetry_1
_geom_bond_site_symmetry_2
Na1 O2 1_555 1_555
Na2 O1 1_555 1_555
O1 H4 1_555 1_555
O2 Na2 1_555 1_555
O3 Na1 1_555 1_555
N1 Na1 1_555 1_555
N2 N1 1_555 1_555
N3 N7 1_555 1_555
N4 N5 1_555 1_555
N5 N2 1_555 1_555
N6 C1 1_555 1_555
N7 N8 1_555 1_555
C1 N3 1_555 1_555
N8 N6 1_555 1_555
C2 N1 1_555 1_555
C3 C1 1_555 1_555
N9 Na1 1_555 1_555
N10 C4 1_555 1_555
C4 C2 1_555 1_555
H1 O3 1_555 1_555
H2 O2 1_555 1_555
H3 O3 1_555 1_555
H5 O2 1_555 1_555
H6 O1 1_555 1_555
Na1_2 N4 1_555 1_555
Na1A N10 1_555 1_555
Na2A O1 1_555 1_555
Na2_2 N5 1_555 1_555
Na2_3 N7 1_555 1_555
O1A Na2 1_555 1_555
N4_2 Na1 1_555 1_555
N5_2 Na2 1_555 1_555
N7_2 Na2 1_555 1_555
N10A Na1 1_555 1_555
H4A O1A 1_555 1_555
H6A O1A 1_555 1_555
Na2 O3 1_555 1_555
N4 C2 1_555 1_555
C3 N9 1_555 1_555
Na2A O1A 1_555 1_555
N4_2 N5_2 1_555 1_555

#END
