
#######################################################################
#
#                 Cambridge Crystallographic Data Centre
#                                CCDC 
#
#######################################################################
#
# If this CIF has been generated from an entry in the Cambridge 
# Structural Database, then it will include bibliographic, chemical, 
# crystal, experimental, refinement or atomic coordinate data resulting 
# from the CCDC's data processing and validation procedures.
#
#######################################################################

data_IPABIL01
_symmetry_cell_setting           triclinic
_symmetry_space_group_name_H-M   'P -1'
_symmetry_Int_Tables_number      2
_space_group_name_Hall           '-P 1'
loop_
_symmetry_equiv_pos_site_id
_symmetry_equiv_pos_as_xyz
1 x,y,z
2 -x,-y,-z
_cell_length_a                   6.7795(3)
_cell_length_b                   7.0642(3)
_cell_length_c                   12.7849(5)
_cell_angle_alpha                101.000(4)
_cell_angle_beta                 94.207(3)
_cell_angle_gamma                90.712(4)
_cell_volume                     599.204
loop_
_atom_site_label
_atom_site_type_symbol
_atom_site_fract_x
_atom_site_fract_y
_atom_site_fract_z
O1 O 0.51505(13) 0.85241(15) 0.27787(7)
O2 O 0.04525(13) 0.85908(15) 0.31938(7)
N1 N 0.25242(15) 1.50207(14) 0.17892(7)
N2 N 0.28185(15) 1.47569(14) 0.28043(8)
N3 N 0.27472(18) 0.77714(17) -0.03407(8)
N4 N 0.1569(2) 1.24479(19) -0.08256(9)
O3 O 0.34635(14) 1.15761(13) 0.47638(8)
H1 H -0.021(3) 0.957(3) 0.3230(13)
H2 H 0.590(2) 0.945(3) 0.2863(12)
H3 H -0.026(3) 0.771(3) 0.3051(13)
H4 H 0.338(3) 1.191(3) 0.4185(15)
H5 H 0.576(3) 0.758(3) 0.2628(13)
H6 H 0.284(3) 1.231(3) 0.5118(14)
Na1 Na 0.22714(7) 0.83790(6) 0.16058(3)
Na2 Na 0.32675(7) 0.80804(7) 0.43133(3)
N5 N 0.24663(15) 1.18793(14) 0.18151(7)
N6 N 0.23508(15) 0.80211(14) -0.30633(7)
N7 N 0.27845(15) 1.29003(14) 0.28148(7)
N8 N 0.22173(15) 0.49501(14) -0.28988(8)
C1 C 0.23244(17) 1.32375(16) 0.12167(9)
C2 C 0.23623(16) 0.67808(16) -0.23953(9)
N9 N 0.21968(15) 0.68792(14) -0.40388(8)
C3 C 0.25701(18) 0.73472(17) -0.12497(10)
C4 C 0.19333(19) 1.28118(18) 0.00763(10)
N10 N 0.21143(16) 0.50658(14) -0.39392(8)
N1_2 N 0.25242(15) 0.50207(14) 0.17892(7)
N2_2 N 0.28185(15) 0.47569(14) 0.28043(8)
N4A N -0.1569(2) 0.75521(19) 0.08256(9)
O3A O 0.65365(14) 0.84239(13) 0.52362(8)
H4A H 0.662(3) 0.809(3) 0.5815(15)
H6A H 0.716(3) 0.769(3) 0.4882(14)
Na1_2 Na 0.22714(7) 1.83790(6) 0.16058(3)
Na1A Na -0.22714(7) 1.16210(6) -0.16058(3)
Na2_2 Na 0.32675(7) 1.80804(7) 0.43133(3)
Na2A Na 0.67325(7) 1.19196(7) 0.56867(3)
Na2_3 Na 0.32675(7) 0.80804(7) -0.56867(3)
N9_2 N 0.21968(15) 0.68792(14) 0.59612(8)
loop_
_geom_bond_atom_site_label_1
_geom_bond_atom_site_label_2
_geom_bond_site_symmetry_1
_geom_bond_site_symmetry_2
O1 H2 1_555 1_555
O2 H1 1_555 1_555
N1 N2 1_555 1_555
N2 N7 1_555 1_555
N3 Na1 1_555 1_555
N4 C4 1_555 1_555
O3 H4 1_555 1_555
H3 O2 1_555 1_555
H5 O1 1_555 1_555
H6 O3 1_555 1_555
Na1 O1 1_555 1_555
Na2 O1 1_555 1_555
N5 Na1 1_555 1_555
N6 C2 1_555 1_555
N7 N5 1_555 1_555
N8 C2 1_555 1_555
C1 N1 1_555 1_555
C2 C3 1_555 1_555
N9 N6 1_555 1_555
C3 N3 1_555 1_555
C4 C1 1_555 1_555
N10 N8 1_555 1_555
N1_2 Na1 1_555 1_555
N2_2 Na2 1_555 1_555
N4A Na1 1_555 1_555
O3A Na2 1_555 1_555
H4A O3A 1_555 1_555
H6A O3A 1_555 1_555
Na1_2 N1 1_555 1_555
Na1A N4 1_555 1_555
Na2_2 N2 1_555 1_555
Na2A O3 1_555 1_555
Na2_3 N9 1_555 1_555
N9_2 Na2 1_555 1_555
O2 Na1 1_555 1_555
O2 Na2 1_555 1_555
O3 Na2 1_555 1_555
N5 C1 1_555 1_555
N9 N10 1_555 1_555
N1_2 N2_2 1_555 1_555
O3A Na2A 1_555 1_555

#END
