
#######################################################################
#
#                 Cambridge Crystallographic Data Centre
#                                CCDC 
#
#######################################################################
#
# If this CIF has been generated from an entry in the Cambridge 
# Structural Database, then it will include bibliographic, chemical, 
# crystal, experimental, refinement or atomic coordinate data resulting 
# from the CCDC's data processing and validation procedures.
#
#######################################################################

data_IPADEI
_symmetry_cell_setting           monoclinic
_symmetry_space_group_name_H-M   'P 21/c'
_symmetry_Int_Tables_number      14
_space_group_name_Hall           '-P 2ybc'
loop_
_symmetry_equiv_pos_site_id
_symmetry_equiv_pos_as_xyz
1 x,y,z
2 x,1/2-y,1/2+z
3 -x,-y,-z
4 -x,1/2+y,1/2-z
_cell_length_a                   9.97930(10)
_cell_length_b                   7.48230(10)
_cell_length_c                   17.8234(2)
_cell_angle_alpha                90
_cell_angle_beta                 102.096
_cell_angle_gamma                90
_cell_volume                     1301.29
loop_
_atom_site_label
_atom_site_type_symbol
_atom_site_fract_x
_atom_site_fract_y
_atom_site_fract_z
C1 C 0.99587(15) 0.92369(18) 0.37680(9)
H1 H 0.9344 1.0245 0.3596
H2 H 1.0767 0.9323 0.3538
H3 H 1.0247 0.9266 0.4328
C2 C 1.01112(14) 0.59224(18) 0.38009(8)
H4 H 1.0386 0.5955 0.4362
H5 H 1.093 0.5958 0.3579
H6 H 0.96 0.482 0.3642
C3 C 0.88568(15) 0.7474(2) 0.26672(8)
H7 H 0.8361 0.6368 0.2495
H8 H 0.9697 0.7526 0.2465
H9 H 0.8276 0.8504 0.248
C4 C 0.80152(13) 0.75289(17) 0.45452(7)
C5 C 0.66324(13) 0.75446(17) 0.47641(7)
C6 C 0.65525(14) 0.68914(18) 0.54868(7)
H10 H 0.7353 0.6445 0.5819
C7 C 0.53137(14) 0.68870(19) 0.57252(8)
H11 H 0.5264 0.6451 0.6219
C8 C 0.41484(13) 0.75296(18) 0.52309(7)
C9 C 0.42020(13) 0.82144(18) 0.45150(7)
H12 H 0.3397 0.8658 0.4186
C10 C 0.54542(13) 0.82423(17) 0.42848(7)
H13 H 0.5509 0.8736 0.3801
Ag1 Ag 0.621476(10) 0.584579(15) 0.309097(6)
N1 N 0.79069(11) 0.74360(15) 0.37757(6)
N2 N 0.92186(11) 0.75105(15) 0.35250(6)
N3 N 0.67027(12) 0.22491(17) 0.24100(7)
O1 O 0.90716(10) 0.76018(14) 0.50541(6)
O2 O 0.56629(10) 0.30955(15) 0.25466(6)
O3 O 0.65267(14) 0.07067(15) 0.21497(8)
O4 O 0.78432(11) 0.29900(16) 0.25307(7)
Cl1 Cl 0.25919(3) 0.75193(5) 0.55272(2)
O2C O 0.43371(10) 0.80955(15) 0.24534(6)
O3C O 0.34733(14) 0.57067(15) 0.28503(8)
Ag1C Ag 0.378524(10) 0.084579(15) 0.190903(6)
loop_
_geom_bond_atom_site_label_1
_geom_bond_atom_site_label_2
_geom_bond_site_symmetry_1
_geom_bond_site_symmetry_2
C1 H1 1_555 1_555
H2 C1 1_555 1_555
H3 C1 1_555 1_555
C2 H4 1_555 1_555
H5 C2 1_555 1_555
H6 C2 1_555 1_555
C3 H7 1_555 1_555
H8 C3 1_555 1_555
H9 C3 1_555 1_555
C4 C5 1_555 1_555
C5 C6 1_555 1_555
C6 H10 1_555 1_555
C7 C6 1_555 1_555
H11 C7 1_555 1_555
C8 C7 1_555 1_555
C9 C8 1_555 1_555
H12 C9 1_555 1_555
C10 C5 1_555 1_555
H13 C10 1_555 1_555
Ag1 N1 1_555 1_555
N1 C4 1_555 1_555
N2 C1 1_555 1_555
N3 O2 1_555 1_555
O1 C4 1_555 1_555
O2 Ag1 1_555 1_555
O3 N3 1_555 1_555
O4 N3 1_555 1_555
Cl1 C8 1_555 1_555
O2C Ag1 1_555 1_555
O3C Ag1 1_555 1_555
Ag1C O2 1_555 1_555
C2 N2 1_555 1_555
C3 N2 1_555 1_555
C9 C10 1_555 1_555
N1 N2 1_555 1_555
O3 Ag1C 1_555 1_555

#END
