
#######################################################################
#
#                 Cambridge Crystallographic Data Centre
#                                CCDC 
#
#######################################################################
#
# If this CIF has been generated from an entry in the Cambridge 
# Structural Database, then it will include bibliographic, chemical, 
# crystal, experimental, refinement or atomic coordinate data resulting 
# from the CCDC's data processing and validation procedures.
#
#######################################################################

data_IPADAF
_symmetry_cell_setting           triclinic
_symmetry_space_group_name_H-M   'P -1'
_symmetry_Int_Tables_number      2
_space_group_name_Hall           '-P 1'
loop_
_symmetry_equiv_pos_site_id
_symmetry_equiv_pos_as_xyz
1 x,y,z
2 -x,-y,-z
_cell_length_a                   13.641(2)
_cell_length_b                   13.788(2)
_cell_length_c                   15.156(3)
_cell_angle_alpha                64.402(3)
_cell_angle_beta                 66.098(3)
_cell_angle_gamma                89.604(3)
_cell_volume                     2300.92
loop_
_atom_site_label
_atom_site_type_symbol
_atom_site_fract_x
_atom_site_fract_y
_atom_site_fract_z
Cu1 Cu -0.08247(9) 0.51863(9) -0.64326(10)
Cu2 Cu -0.11707(10) 0.14911(9) -0.31625(10)
Cu3 Cu -0.30194(9) 0.62479(9) -0.64161(10)
Cu4 Cu -0.55124(9) 0.67012(10) -0.30240(11)
N1 N -0.1309(6) 0.4636(6) -0.4859(6)
N2 N -0.0636(6) 0.3715(7) -0.6131(7)
N3 N -0.0278(7) 0.5404(7) -0.7980(7)
N4 N -0.1808(6) 0.0882(6) -0.1544(7)
N5 N -0.1150(7) -0.0069(7) -0.2931(7)
N6 N -0.3858(6) 0.5263(6) -0.4833(7)
N7 N -0.3379(7) 0.7403(6) -0.6045(7)
N8 N -0.2531(7) 0.7490(7) -0.7969(7)
N9 N -0.6352(6) 0.5731(7) -0.1419(7)
N10 N -0.5812(7) 0.8013(7) -0.2745(8)
O1 O -0.1021(5) 0.6636(5) -0.6705(6)
O2 O -0.0598(5) 0.8061(5) -0.6527(6)
O3 O -0.1425(5) 0.2983(5) -0.3408(6)
O4 O -0.0826(5) 0.2053(5) -0.4697(6)
O5 O -0.2643(6) 0.5101(6) -0.6772(6)
O6 O -0.3056(5) 0.3498(6) -0.6628(6)
O7 O -0.4959(5) 0.5477(5) -0.3320(6)
O8 O -0.4483(5) 0.7633(5) -0.4552(6)
C1 C -0.1517(7) 0.6409(8) -0.4893(8)
C2 C -0.1897(7) 0.7014(8) -0.4325(9)
H1 H -0.1757 0.7776 -0.4716
C3 C -0.2468(8) 0.6518(8) -0.3211(9)
H2 H -0.2731 0.6937 -0.2854
C4 C -0.2652(8) 0.5379(8) -0.2616(9)
H3 H -0.3029 0.5031 -0.1857
C5 C -0.2265(7) 0.4766(8) -0.3170(9)
H4 H -0.2406 0.4004 -0.2771
C6 C -0.1693(7) 0.5247(7) -0.4266(8)
C7 C -0.1231(7) 0.3593(8) -0.4373(8)
C8 C -0.0866(7) 0.3070(8) -0.5133(8)
C9 C -0.0291(9) 0.3457(8) -0.7029(8)
H5 H -0.0920 0.3121 -0.7018
H6 H 0.0204 0.2950 -0.6971
C10 C 0.0278(10) 0.4515(10) -0.8065(9)
H7 H 0.1031 0.4696 -0.8208
H8 H 0.0284 0.4432 -0.8671
C11 C -0.0987(7) 0.7078(7) -0.6133(8)
C12 C -0.2997(9) 0.0774(10) -0.1057(10)
H9 H -0.3308 0.0371 -0.1296
H10 H -0.3172 0.1490 -0.1279
H11 H -0.3292 0.0388 -0.0275
C13 C -0.1368(10) 0.1551(9) -0.1177(10)
H12 H -0.1689 0.1191 -0.0393
H13 H -0.1546 0.2265 -0.1435
H14 H -0.0587 0.1627 -0.1468
C14 C -0.1469(10) -0.0194(9) -0.1185(10)
H15 H -0.1885 -0.0634 -0.0400
H16 H -0.0699 -0.0077 -0.1358
C15 C -0.1657(10) -0.0790(8) -0.1742(10)
H17 H -0.1342 -0.1442 -0.1579
H18 H -0.2437 -0.1020 -0.1473
C16 C -0.1785(10) -0.0363(10) -0.3406(12)
H19 H -0.1463 0.0117 -0.4179
H20 H -0.2527 -0.0287 -0.3074
H21 H -0.1775 -0.1109 -0.3271
C17 C -0.0019(9) -0.0180(9) -0.3461(11)
H22 H 0.0381 -0.0091 -0.3097
H23 H 0.0321 0.0372 -0.4213
H24 H -0.0017 -0.0895 -0.3420
C18 C -0.3588(7) 0.3553(7) -0.4965(8)
C19 C -0.3663(8) 0.2418(8) -0.4420(9)
H25 H -0.3420 0.2053 -0.4837
C20 C -0.4069(8) 0.1822(8) -0.3323(9)
H26 H -0.4096 0.1069 -0.3000
C21 C -0.4447(8) 0.2351(8) -0.2681(9)
H27 H -0.4731 0.1954 -0.1924
C22 C -0.4394(8) 0.3492(8) -0.3189(9)
H28 H -0.4658 0.3843 -0.2760
C23 C -0.3959(7) 0.4101(7) -0.4310(8)
C24 C -0.4309(7) 0.5825(8) -0.4308(9)
C25 C -0.4047(7) 0.7082(8) -0.5035(9)
C26 C -0.3060(8) 0.8530(8) -0.6900(9)
H29 H -0.2727 0.9000 -0.6728
H30 H -0.3692 0.8797 -0.6987
C27 C -0.2239(9) 0.8518(9) -0.7937(9)
H31 H -0.2221 0.9152 -0.8569
H32 H -0.1514 0.8569 -0.7972
C28 C -0.3061(7) 0.4063(8) -0.6201(9)
C29 C -0.5565(9) 0.5400(9) -0.0944(10)
H33 H -0.5961 0.4995 -0.0162
H34 H -0.5086 0.6044 -0.1144
H35 H -0.5140 0.4948 -0.1218
C30 C -0.7056(9) 0.4718(9) -0.1075(10)
H36 H -0.7411 0.4312 -0.0292
H37 H -0.6622 0.4283 -0.1368
H38 H -0.7599 0.4893 -0.1340
C31 C -0.7025(8) 0.6430(9) -0.1012(9)
H39 H -0.7652 0.6473 -0.1167
H40 H -0.7293 0.6105 -0.0226
C32 C -0.6371(9) 0.7543(10) -0.1539(10)
H41 H -0.5828 0.7515 -0.1273
H42 H -0.6846 0.8017 -0.1342
C33 C -0.6496(11) 0.8579(10) -0.3238(12)
H43 H -0.7159 0.8076 -0.2956
H44 H -0.6111 0.8865 -0.4016
H45 H -0.6671 0.9173 -0.3069
C34 C -0.4796(9) 0.8784(9) -0.3199(11)
H46 H -0.4389 0.9003 -0.3964
H47 H -0.4367 0.8435 -0.2827
H48 H -0.4967 0.9419 -0.3103
Cu2A Cu 0.11707(10) 0.85089(9) -0.68375(10)
Cu4A Cu -0.44876(9) 0.32988(10) -0.69760(11)
O2A O 0.0598(5) 0.1939(5) -0.3473(6)
O6A O -0.6944(5) 0.6502(6) -0.3372(6)
O9 O -0.9105(9) 0.8988(8) -0.1298(11)
O10 O -0.9445(10) 0.7472(12) -0.1402(11)
O11 O -1.0673(7) 0.7619(9) 0.0053(8)
O12 O -0.8961(7) 0.7352(7) -0.0072(7)
Cl1 Cl -0.9564(2) 0.7832(2) -0.0670(2)
O13 O -0.5604(7) 0.6964(7) 0.0551(7)
O14 O -0.4706(7) 0.8773(7) -0.0767(8)
O15 O -0.3964(7) 0.7723(8) 0.0393(7)
O16 O -0.3952(7) 0.7326(7) -0.0959(7)
Cl2 Cl -0.4564(2) 0.7695(2) -0.0196(2)
loop_
_geom_bond_atom_site_label_1
_geom_bond_atom_site_label_2
_geom_bond_site_symmetry_1
_geom_bond_site_symmetry_2
Cu1 N1 1_555 1_555
Cu2 N4 1_555 1_555
Cu3 N6 1_555 1_555
Cu4 N9 1_555 1_555
N1 C6 1_555 1_555
N2 Cu1 1_555 1_555
N3 Cu1 1_555 1_555
N4 C12 1_555 1_555
N5 Cu2 1_555 1_555
N6 C23 1_555 1_555
N7 Cu3 1_555 1_555
N8 Cu3 1_555 1_555
N9 C29 1_555 1_555
N10 Cu4 1_555 1_555
O1 Cu1 1_555 1_555
O2 C11 1_555 1_555
O3 Cu2 1_555 1_555
O4 Cu2 1_555 1_555
O5 Cu1 1_555 1_555
O6 C28 1_555 1_555
O7 Cu4 1_555 1_555
O8 Cu4 1_555 1_555
C1 C2 1_555 1_555
C2 H1 1_555 1_555
C3 C2 1_555 1_555
H2 C3 1_555 1_555
C4 C3 1_555 1_555
H3 C4 1_555 1_555
C5 C4 1_555 1_555
H4 C5 1_555 1_555
C6 C1 1_555 1_555
C7 N1 1_555 1_555
C8 N2 1_555 1_555
C9 N2 1_555 1_555
H5 C9 1_555 1_555
H6 C9 1_555 1_555
C10 N3 1_555 1_555
H7 C10 1_555 1_555
H8 C10 1_555 1_555
C11 O1 1_555 1_555
C12 H9 1_555 1_555
H10 C12 1_555 1_555
H11 C12 1_555 1_555
C13 N4 1_555 1_555
H12 C13 1_555 1_555
H13 C13 1_555 1_555
H14 C13 1_555 1_555
C14 N4 1_555 1_555
H15 C14 1_555 1_555
H16 C14 1_555 1_555
C15 N5 1_555 1_555
H17 C15 1_555 1_555
H18 C15 1_555 1_555
C16 N5 1_555 1_555
H19 C16 1_555 1_555
H20 C16 1_555 1_555
H21 C16 1_555 1_555
C17 N5 1_555 1_555
H22 C17 1_555 1_555
H23 C17 1_555 1_555
H24 C17 1_555 1_555
C18 C19 1_555 1_555
C19 H25 1_555 1_555
C20 C19 1_555 1_555
H26 C20 1_555 1_555
C21 C20 1_555 1_555
H27 C21 1_555 1_555
C22 C21 1_555 1_555
H28 C22 1_555 1_555
C23 C18 1_555 1_555
C24 N6 1_555 1_555
C25 N7 1_555 1_555
C26 N7 1_555 1_555
H29 C26 1_555 1_555
H30 C26 1_555 1_555
C27 N8 1_555 1_555
H31 C27 1_555 1_555
H32 C27 1_555 1_555
C28 O5 1_555 1_555
C29 H33 1_555 1_555
H34 C29 1_555 1_555
H35 C29 1_555 1_555
C30 N9 1_555 1_555
H36 C30 1_555 1_555
H37 C30 1_555 1_555
H38 C30 1_555 1_555
C31 N9 1_555 1_555
H39 C31 1_555 1_555
H40 C31 1_555 1_555
C32 N10 1_555 1_555
H41 C32 1_555 1_555
H42 C32 1_555 1_555
C33 N10 1_555 1_555
H43 C33 1_555 1_555
H44 C33 1_555 1_555
H45 C33 1_555 1_555
C34 N10 1_555 1_555
H46 C34 1_555 1_555
H47 C34 1_555 1_555
H48 C34 1_555 1_555
O9 Cl1 1_555 1_555
O10 Cl1 1_555 1_555
O11 Cl1 1_555 1_555
O12 Cl1 1_555 1_555
O13 Cl2 1_555 1_555
O14 Cl2 1_555 1_555
O15 Cl2 1_555 1_555
O16 Cl2 1_555 1_555
Cu2A O2 1_555 1_555
Cu4A O6 1_555 1_555
O2A Cu2 1_555 1_555
O6A Cu4 1_555 1_555
Cu3 O1 1_555 1_555
Cu3 O5 1_555 1_555
O3 C7 1_555 1_555
O4 C8 1_555 1_555
O7 C24 1_555 1_555
O8 C25 1_555 1_555
C1 C11 1_555 1_555
C5 C6 1_555 1_555
C7 C8 1_555 1_555
C9 C10 1_555 1_555
C14 C15 1_555 1_555
C18 C28 1_555 1_555
C22 C23 1_555 1_555
C24 C25 1_555 1_555
C26 C27 1_555 1_555
C31 C32 1_555 1_555

#END
