
#######################################################################
#
#                 Cambridge Crystallographic Data Centre
#                                CCDC 
#
#######################################################################
#
# If this CIF has been generated from an entry in the Cambridge 
# Structural Database, then it will include bibliographic, chemical, 
# crystal, experimental, refinement or atomic coordinate data resulting 
# from the CCDC's data processing and validation procedures.
#
#######################################################################

data_IPAFOV
_symmetry_cell_setting           monoclinic
_symmetry_space_group_name_H-M   'P 21/c'
_symmetry_Int_Tables_number      14
_space_group_name_Hall           '-P 2ybc'
loop_
_symmetry_equiv_pos_site_id
_symmetry_equiv_pos_as_xyz
1 x,y,z
2 -x,1/2+y,1/2-z
3 -x,-y,-z
4 x,1/2-y,1/2+z
_cell_length_a                   18.9066(13)
_cell_length_b                   6.4578(5)
_cell_length_c                   7.4479(5)
_cell_angle_alpha                90
_cell_angle_beta                 94.404(4)
_cell_angle_gamma                90
_cell_volume                     906.667
loop_
_atom_site_label
_atom_site_type_symbol
_atom_site_fract_x
_atom_site_fract_y
_atom_site_fract_z
Mn1 Mn 0.5000 0.5000 0.0000
O1 O 0.43758(11) 0.4097(3) 0.2186(3)
F1 F 0.05265(13) 0.2093(6) -0.0554(5)
C1 C 0.0835(3) 0.5398(10) -0.1473(7)
H1 H 0.0374 0.5609 -0.1963
O2 O 0.41728(11) 0.0816(3) 0.2927(3)
H2 H 0.4599 0.0866 0.3228
C2 C 0.1347(3) 0.6904(9) -0.1567(7)
H3 H 0.1233 0.8153 -0.2140
O3 O 0.55684(12) 0.2019(3) 0.0031(3)
H4 H 0.5513 0.1411 0.0977
C3 C 0.1030(2) 0.3590(8) -0.0634(6)
C4 C 0.2038(2) 0.6568(7) -0.0810(6)
H5 H 0.2378 0.7600 -0.0867
C5 C 0.16941(18) 0.3179(6) 0.0119(5)
H6 H 0.1796 0.1915 0.0680
C6 C 0.22176(18) 0.4680(6) 0.0036(5)
C7 C 0.32256(15) 0.2678(4) 0.1561(4)
H7 H 0.2936 0.1523 0.1643
C8 C 0.29473(17) 0.4385(5) 0.0809(4)
H8 H 0.3249 0.5519 0.0767
C9 C 0.39716(14) 0.2532(4) 0.2272(3)
Mn1A Mn 0.5000 0.0000 0.5000
Mn1A_2 Mn 0.5000 1.0000 -0.5000
O1B O 0.56242(11) 0.5903(3) -0.2186(3)
F1B F 0.94735(13) 0.7907(6) 0.0554(5)
C1B C 0.9165(3) 0.4602(10) 0.1473(7)
H1B H 0.9626 0.4391 0.1963
O2B O 0.58272(11) 0.9184(3) -0.2927(3)
O2A O 0.58272(11) 0.5816(3) 0.2073(3)
O2C O 0.41728(11) 0.4184(3) -0.2073(3)
H2B H 0.5401 0.9134 -0.3228
H2A H 0.5401 0.5866 0.1772
H2C H 0.4599 0.4134 -0.1772
C2B C 0.8653(3) 0.3096(9) 0.1567(7)
H3B H 0.8767 0.1847 0.2140
O3B O 0.44316(12) 0.7981(3) -0.0031(3)
H4B H 0.4487 0.8589 -0.0977
C3B C 0.8970(2) 0.6410(8) 0.0634(6)
C4B C 0.7962(2) 0.3432(7) 0.0810(6)
H5B H 0.7622 0.2400 0.0867
C5B C 0.83059(18) 0.6821(6) -0.0119(5)
H6B H 0.8204 0.8085 -0.0680
C6B C 0.77824(18) 0.5320(6) -0.0036(5)
C7B C 0.67744(15) 0.7322(4) -0.1561(4)
H7B H 0.7064 0.8477 -0.1643
C8B C 0.70527(17) 0.5615(5) -0.0809(4)
H8B H 0.6751 0.4481 -0.0767
C9B C 0.60284(14) 0.7468(4) -0.2272(3)
loop_
_geom_bond_atom_site_label_1
_geom_bond_atom_site_label_2
_geom_bond_site_symmetry_1
_geom_bond_site_symmetry_2
Mn1 O1 1_555 1_555
O1 C9 1_555 1_555
F1 C3 1_555 1_555
C1 H1 1_555 1_555
O2 H2 1_555 1_555
C2 C1 1_555 1_555
H3 C2 1_555 1_555
O3 Mn1 1_555 1_555
H4 O3 1_555 1_555
C3 C1 1_555 1_555
C4 C2 1_555 1_555
H5 C4 1_555 1_555
C5 C3 1_555 1_555
H6 C5 1_555 1_555
C6 C4 1_555 1_555
C7 H7 1_555 1_555
C8 C6 1_555 1_555
H8 C8 1_555 1_555
C9 O2 1_555 1_555
Mn1A O2 1_555 1_555
Mn1A_2 O2B 1_555 1_555
O1B Mn1 1_555 1_555
F1B C3B 1_555 1_555
C1B H1B 1_555 1_555
O2B H2B 1_555 1_555
O2A Mn1 1_555 1_555
O2C Mn1 1_555 1_555
H2A O2A 1_555 1_555
H2C O2C 1_555 1_555
C2B C1B 1_555 1_555
H3B C2B 1_555 1_555
O3B Mn1 1_555 1_555
H4B O3B 1_555 1_555
C3B C1B 1_555 1_555
C4B C2B 1_555 1_555
H5B C4B 1_555 1_555
C5B C3B 1_555 1_555
H6B C5B 1_555 1_555
C6B C4B 1_555 1_555
C7B H7B 1_555 1_555
C8B C6B 1_555 1_555
H8B C8B 1_555 1_555
C9B O1B 1_555 1_555
C5 C6 1_555 1_555
C7 C8 1_555 1_555
C7 C9 1_555 1_555
O2B C9B 1_555 1_555
C5B C6B 1_555 1_555
C7B C8B 1_555 1_555
C7B C9B 1_555 1_555

#END
