
#######################################################################
#
#                 Cambridge Crystallographic Data Centre
#                                CCDC 
#
#######################################################################
#
# If this CIF has been generated from an entry in the Cambridge 
# Structural Database, then it will include bibliographic, chemical, 
# crystal, experimental, refinement or atomic coordinate data resulting 
# from the CCDC's data processing and validation procedures.
#
#######################################################################

data_IPAGIQ
_symmetry_cell_setting           monoclinic
_symmetry_space_group_name_H-M   'C 2/c'
_symmetry_Int_Tables_number      15
_space_group_name_Hall           '-C 2yn'
loop_
_symmetry_equiv_pos_site_id
_symmetry_equiv_pos_as_xyz
1 x,y,z
2 -x,y,1/2-z
3 1/2+x,1/2+y,z
4 1/2-x,1/2+y,1/2-z
5 -x,-y,-z
6 x,-y,1/2+z
7 1/2-x,1/2-y,-z
8 1/2+x,1/2-y,1/2+z
_cell_length_a                   28.438(6)
_cell_length_b                   9.4150(19)
_cell_length_c                   17.760(4)
_cell_angle_alpha                90
_cell_angle_beta                 105.25(3)
_cell_angle_gamma                90
_cell_volume                     4587.69
loop_
_atom_site_label
_atom_site_type_symbol
_atom_site_fract_x
_atom_site_fract_y
_atom_site_fract_z
Mn1 Mn 0.16786(3) -0.16802(9) 0.24210(5)
Mn2 Mn 0.12914(3) 0.06660(10) 0.06870(5)
Mn3 Mn 0.0000 -0.12850(14) 0.2500
N1 N 0.16049(18) -0.1564(5) 0.0524(3)
N2 N 0.23378(17) -0.3041(5) 0.2682(3)
N3 N 0.27028(18) -0.2932(5) 0.3346(3)
N4 N 0.1723(2) -0.1402(5) 0.4245(3)
N5 N 0.17636(17) -0.2344(5) 0.1146(3)
N6 N 0.19732(17) -0.3520(5) 0.0968(3)
N7 N 0.0659(2) 0.4527(5) 0.1301(3)
N8 N 0.0386(2) -0.0735(6) 0.4276(3)
N9 N 0.0858(2) 0.3219(6) 0.1405(3)
C1 C 0.0657(2) 0.5047(7) 0.0590(4)
C2 C 0.2445(2) -0.4141(6) 0.2298(3)
N10 N 0.0820(2) 0.0183(6) 0.2106(3)
N11 N 0.09854(19) 0.2870(6) 0.0773(3)
C3 C 0.0865(2) 0.3991(6) 0.0247(4)
C4 C 0.1947(2) -0.3539(6) 0.0185(3)
N12 N 0.10960(18) -0.0232(6) 0.1738(3)
C5 C 0.1710(2) -0.2277(7) -0.0091(3)
N13 N 0.0555(2) 0.0504(6) 0.2480(4)
C6 C 0.1593(3) -0.1972(7) -0.0889(4)
H1 H 0.1419 -0.1160 -0.1092
N14 N 0.1767(3) -0.1309(7) 0.3625(3)
C7 C 0.0748(3) 0.5426(7) -0.0870(4)
H2 H 0.0772 0.5577 -0.1377
N15 N 0.0112(2) -0.1316(6) 0.3760(3)
C8 C 0.0482(2) 0.5212(7) 0.1892(4)
H3 H 0.0460 0.4514 0.2283
H4 H 0.0156 0.5565 0.1658
C9 C 0.0498(2) 0.6352(7) 0.0230(4)
H5 H 0.0366 0.7062 0.0475
C10 C 0.2127(2) -0.4663(6) 0.1534(3)
H6 H 0.2305 -0.5368 0.1320
H7 H 0.1841 -0.5121 0.1624
C11 C 0.0909(2) 0.4159(7) -0.0519(4)
H8 H 0.1040 0.3454 -0.0770
C12 C 0.2102(3) -0.4534(8) -0.0287(4)
H9 H 0.2264 -0.5367 -0.0090
C13 C 0.0551(3) 0.6499(7) -0.0509(4)
H10 H 0.0453 0.7342 -0.0778
C14 C 0.1746(3) -0.2931(8) -0.1363(4)
H11 H 0.1684 -0.2750 -0.1894
C15 C 0.1996(3) -0.4182(9) -0.1053(4)
H12 H 0.2093 -0.4799 -0.1393
N16 N 0.30088(18) -0.3969(5) 0.3346(3)
N17 N 0.28547(17) -0.4760(5) 0.2689(3)
C16 C 0.0802(2) 0.6447(6) 0.2294(3)
O1 O 0.06144(17) 0.7299(5) 0.2652(3)
O2 O 0.12294(16) 0.6462(4) 0.2241(3)
N18 N 0.0638(2) -0.0144(7) 0.4809(4)
N19 N 0.1702(2) -0.1501(7) 0.4889(4)
Mn1A Mn -0.16786(3) 0.83198(9) 0.25790(5)
Mn1_2 Mn 0.16786(3) 0.83198(9) 0.24210(5)
Mn1A_2 Mn -0.16786(3) -0.16802(9) 0.25790(5)
Mn1C Mn 0.33214(3) -0.66802(9) 0.25790(5)
Mn1B Mn -0.33214(3) -0.66802(9) 0.24210(5)
Mn2A Mn -0.12914(3) 0.06660(10) 0.43130(5)
Mn2C Mn 0.37086(3) -0.43340(10) 0.43130(5)
Mn2E Mn 0.12914(3) -0.06660(10) 0.56870(5)
Mn2B Mn -0.37086(3) -0.43340(10) 0.06870(5)
Mn2D Mn -0.12914(3) -0.06660(10) -0.06870(5)
Mn3_2 Mn 0.0000 0.87150(14) 0.2500
N1A N -0.16049(18) -0.1564(5) 0.4476(3)
N2A N -0.23378(17) -0.3041(5) 0.2318(3)
N3A N -0.27028(18) -0.2932(5) 0.1654(3)
N4A N -0.1723(2) -0.1402(5) 0.0755(3)
N5A N -0.17636(17) -0.2344(5) 0.3854(3)
N6A N -0.19732(17) -0.3520(5) 0.4032(3)
N7A N -0.0659(2) 0.4527(5) 0.3699(3)
N8A N -0.0386(2) -0.0735(6) 0.0724(3)
N9A N -0.0858(2) 0.3219(6) 0.3595(3)
C1A C -0.0657(2) 0.5047(7) 0.4410(4)
C2A C -0.2445(2) -0.4141(6) 0.2702(3)
N10A N -0.0820(2) 0.0183(6) 0.2894(3)
N11A N -0.09854(19) 0.2870(6) 0.4227(3)
C3A C -0.0865(2) 0.3991(6) 0.4753(4)
C4A C -0.1947(2) -0.3539(6) 0.4815(3)
N12A N -0.10960(18) -0.0232(6) 0.3262(3)
C5A C -0.1710(2) -0.2277(7) 0.5091(3)
N13A N -0.0555(2) 0.0504(6) 0.2520(4)
C6A C -0.1593(3) -0.1972(7) 0.5889(4)
H1A H -0.1419 -0.1160 0.6092
N14A N -0.1767(3) -0.1309(7) 0.1375(3)
C7A C -0.0748(3) 0.5426(7) 0.5870(4)
H2A H -0.0772 0.5577 0.6377
N15A N -0.0112(2) -0.1316(6) 0.1240(3)
C8A C -0.0482(2) 0.5212(7) 0.3108(4)
H3A H -0.0460 0.4514 0.2717
H4A H -0.0156 0.5565 0.3342
C9A C -0.0498(2) 0.6352(7) 0.4770(4)
H5A H -0.0366 0.7062 0.4525
C10A C -0.2127(2) -0.4663(6) 0.3466(3)
H6A H -0.2305 -0.5368 0.3680
H7A H -0.1841 -0.5121 0.3376
C11A C -0.0909(2) 0.4159(7) 0.5519(4)
H8A H -0.1040 0.3454 0.5770
C12A C -0.2102(3) -0.4534(8) 0.5287(4)
H9A H -0.2264 -0.5367 0.5090
C13A C -0.0551(3) 0.6499(7) 0.5509(4)
H10A H -0.0453 0.7342 0.5778
C14A C -0.1746(3) -0.2931(8) 0.6363(4)
H11A H -0.1684 -0.2750 0.6894
C15A C -0.1996(3) -0.4182(9) 0.6053(4)
H12A H -0.2093 -0.4799 0.6393
N16C N 0.19912(18) 0.1031(5) 0.1654(3)
N16B N -0.19912(18) 0.1031(5) 0.3346(3)
N16A N -0.30088(18) -0.3969(5) 0.1654(3)
N17C N 0.21453(17) 0.0240(5) 0.2311(3)
N17B N -0.21453(17) 0.0240(5) 0.2689(3)
N17A N -0.28547(17) -0.4760(5) 0.2311(3)
C16A C -0.0802(2) 0.6447(6) 0.2706(3)
O1A O -0.06144(17) 0.7299(5) 0.2348(3)
O1_2 O 0.06144(17) -0.2701(5) 0.2652(3)
O1A_2 O -0.06144(17) -0.2701(5) 0.2348(3)
O2A O -0.12294(16) 0.6462(4) 0.2759(3)
O2_2 O 0.12294(16) -0.3538(4) 0.2241(3)
O2A_2 O -0.12294(16) -0.3538(4) 0.2759(3)
N18E N 0.0638(2) 0.0144(7) -0.0191(4)
N18D N -0.0638(2) 0.0144(7) 0.5191(4)
N18A N -0.0638(2) -0.0144(7) 0.0191(4)
N19E N 0.1702(2) 0.1501(7) -0.0111(4)
N19D N -0.1702(2) 0.1501(7) 0.5111(4)
N19A N -0.1702(2) -0.1501(7) 0.0111(4)
loop_
_geom_bond_atom_site_label_1
_geom_bond_atom_site_label_2
_geom_bond_site_symmetry_1
_geom_bond_site_symmetry_2
Mn1 N2 1_555 1_555
Mn2 N1 1_555 1_555
Mn3 N13 1_555 1_555
N1 N5 1_555 1_555
N2 N3 1_555 1_555
N3 N16 1_555 1_555
N4 N14 1_555 1_555
N5 Mn1 1_555 1_555
N6 N5 1_555 1_555
N7 N9 1_555 1_555
N8 N15 1_555 1_555
N9 N11 1_555 1_555
C1 N7 1_555 1_555
C2 N2 1_555 1_555
N10 N12 1_555 1_555
N11 Mn2 1_555 1_555
C3 C1 1_555 1_555
C4 N6 1_555 1_555
N12 Mn1 1_555 1_555
C5 N1 1_555 1_555
N13 N10 1_555 1_555
C6 C5 1_555 1_555
H1 C6 1_555 1_555
N14 Mn1 1_555 1_555
C7 H2 1_555 1_555
N15 Mn3 1_555 1_555
C8 N7 1_555 1_555
H3 C8 1_555 1_555
H4 C8 1_555 1_555
C9 C1 1_555 1_555
H5 C9 1_555 1_555
C10 N6 1_555 1_555
H6 C10 1_555 1_555
H7 C10 1_555 1_555
C11 C3 1_555 1_555
H8 C11 1_555 1_555
C12 C4 1_555 1_555
H9 C12 1_555 1_555
C13 C7 1_555 1_555
H10 C13 1_555 1_555
C14 C6 1_555 1_555
H11 C14 1_555 1_555
C15 C12 1_555 1_555
H12 C15 1_555 1_555
N16 N17 1_555 1_555
N17 C2 1_555 1_555
C16 C8 1_555 1_555
O1 C16 1_555 1_555
O2 C16 1_555 1_555
N18 N8 1_555 1_555
N19 N4 1_555 1_555
Mn1A O2A 1_555 1_555
Mn1_2 O2 1_555 1_555
Mn1A_2 N2A 1_555 1_555
Mn1C N17 1_555 1_555
Mn1B N17A 1_555 1_555
Mn2A N1A 1_555 1_555
Mn2C N16 1_555 1_555
Mn2E N18 1_555 1_555
Mn2B N16A 1_555 1_555
Mn2D N18A 1_555 1_555
Mn3_2 O1 1_555 1_555
N1A N5A 1_555 1_555
N2A N3A 1_555 1_555
N3A N16A 1_555 1_555
N4A N14A 1_555 1_555
N5A Mn1A_2 1_555 1_555
N6A N5A 1_555 1_555
N7A N9A 1_555 1_555
N8A N15A 1_555 1_555
N9A N11A 1_555 1_555
C1A N7A 1_555 1_555
C2A N2A 1_555 1_555
N10A N12A 1_555 1_555
N11A Mn2A 1_555 1_555
C3A C1A 1_555 1_555
C4A N6A 1_555 1_555
N12A Mn1A_2 1_555 1_555
C5A N1A 1_555 1_555
N13A Mn3 1_555 1_555
C6A C5A 1_555 1_555
H1A C6A 1_555 1_555
N14A Mn1A_2 1_555 1_555
C7A H2A 1_555 1_555
N15A Mn3 1_555 1_555
C8A N7A 1_555 1_555
H3A C8A 1_555 1_555
H4A C8A 1_555 1_555
C9A C1A 1_555 1_555
H5A C9A 1_555 1_555
C10A N6A 1_555 1_555
H6A C10A 1_555 1_555
H7A C10A 1_555 1_555
C11A C3A 1_555 1_555
H8A C11A 1_555 1_555
C12A C4A 1_555 1_555
H9A C12A 1_555 1_555
C13A C7A 1_555 1_555
H10A C13A 1_555 1_555
C14A C6A 1_555 1_555
H11A C14A 1_555 1_555
C15A C12A 1_555 1_555
H12A C15A 1_555 1_555
N16C Mn2 1_555 1_555
N16B Mn2A 1_555 1_555
N16A N17A 1_555 1_555
N17C Mn1 1_555 1_555
N17B Mn1A_2 1_555 1_555
N17A C2A 1_555 1_555
C16A C8A 1_555 1_555
O1A Mn3_2 1_555 1_555
O1_2 Mn3 1_555 1_555
O1A_2 Mn3 1_555 1_555
O2A C16A 1_555 1_555
O2_2 Mn1 1_555 1_555
O2A_2 Mn1A_2 1_555 1_555
N18E Mn2 1_555 1_555
N18D Mn2A 1_555 1_555
N18A N8A 1_555 1_555
N19E Mn2 1_555 1_555
N19D Mn2A 1_555 1_555
N19A Mn2D 1_555 1_555
Mn2 N12 1_555 1_555
C2 C10 1_555 1_555
N11 C3 1_555 1_555
C4 C5 1_555 1_555
C7 C11 1_555 1_555
C9 C13 1_555 1_555
C14 C15 1_555 1_555
N19 Mn2E 1_555 1_555
Mn2A N12A 1_555 1_555
N4A N19A 1_555 1_555
C2A C10A 1_555 1_555
N10A N13A 1_555 1_555
N11A C3A 1_555 1_555
C4A C5A 1_555 1_555
C7A C11A 1_555 1_555
C9A C13A 1_555 1_555
C14A C15A 1_555 1_555
N16C N17C 1_555 1_555
N16B N17B 1_555 1_555
C16A O1A 1_555 1_555

#END
