
#######################################################################
#
#                 Cambridge Crystallographic Data Centre
#                                CCDC 
#
#######################################################################
#
# If this CIF has been generated from an entry in the Cambridge 
# Structural Database, then it will include bibliographic, chemical, 
# crystal, experimental, refinement or atomic coordinate data resulting 
# from the CCDC's data processing and validation procedures.
#
#######################################################################

data_IPAMER
_symmetry_cell_setting           monoclinic
_symmetry_space_group_name_H-M   'P 21/m'
_symmetry_Int_Tables_number      11
_space_group_name_Hall           '-P 2yb'
loop_
_symmetry_equiv_pos_site_id
_symmetry_equiv_pos_as_xyz
1 x,y,z
2 x,1/2-y,z
3 -x,-y,-z
4 -x,1/2+y,-z
_cell_length_a                   4.7455(3)
_cell_length_b                   7.1913(5)
_cell_length_c                   14.7694(13)
_cell_angle_alpha                90
_cell_angle_beta                 91.814(3)
_cell_angle_gamma                90
_cell_volume                     503.773
loop_
_atom_site_label
_atom_site_type_symbol
_atom_site_fract_x
_atom_site_fract_y
_atom_site_fract_z
Pb1 Pb 0.19175(6) 0.2500 0.44998(2)
O1 O -0.2672(14) 0.2500 0.3688(5)
O2 O 0.1005(16) 0.2500 0.2905(6)
O3 O -0.1511(11) 0.1002(8) -0.4294(4)
C1 C -0.1522(18) 0.2500 0.2941(7)
C2 C -0.317(2) 0.2500 0.2066(9)
H1 H -0.4415 0.1393 0.2062
H2 H -0.4415 0.3607 0.2062
C3 C -0.1662(19) 0.2500 0.1209(7)
H3 H -0.0422 0.3607 0.1210
H4 H -0.0422 0.1393 0.1210
C4 C -0.333(3) 0.2500 0.0350(9)
H5 H -0.4572 0.3606 0.0354
H6 H -0.4572 0.1394 0.0354
C5 C -0.1884(19) 0.2500 -0.0528(7)
H7 H -0.0643 0.3606 -0.0534
H8 H -0.0643 0.1394 -0.0534
C6 C -0.357(3) 0.2500 -0.1386(9)
H9 H -0.4811 0.1394 -0.1381
H10 H -0.4811 0.3606 -0.1381
C7 C -0.2123(19) 0.2500 -0.2254(7)
H11 H -0.0886 0.1392 -0.2263
H12 H -0.0886 0.3608 -0.2263
C8 C -0.391(2) 0.2500 -0.3114(8)
H13 H -0.5141 0.1388 -0.3120
H14 H -0.5141 0.3612 -0.3120
C9 C -0.2238(18) 0.2500 -0.3952(6)
O3A O -0.1511(11) 0.3998(8) -0.4294(4)
O1_2 O 0.7328(14) 0.2500 0.3688(5)
O3_2 O -0.1511(11) 0.1002(8) 0.5706(4)
O3A_2 O -0.1511(11) 0.3998(8) 0.5706(4)
O3B O 0.1511(11) -0.1002(8) 0.4294(4)
O3C O 0.1511(11) 0.6002(8) 0.4294(4)
Pb1_2 Pb -0.80825(6) 0.2500 0.44998(2)
Pb1_3 Pb 0.19175(6) 0.2500 -0.55002(2)
Pb1B Pb -0.19175(6) -0.2500 -0.44998(2)
Pb1B_2 Pb -0.19175(6) 0.7500 -0.44998(2)
loop_
_geom_bond_atom_site_label_1
_geom_bond_atom_site_label_2
_geom_bond_site_symmetry_1
_geom_bond_site_symmetry_2
Pb1 O1 1_555 1_555
O1 C1 1_555 1_555
O2 Pb1 1_555 1_555
O3 C9 1_555 1_555
C1 O2 1_555 1_555
C2 C1 1_555 1_555
H1 C2 1_555 1_555
H2 C2 1_555 1_555
C3 C2 1_555 1_555
H3 C3 1_555 1_555
H4 C3 1_555 1_555
C4 C3 1_555 1_555
H5 C4 1_555 1_555
H6 C4 1_555 1_555
C5 C4 1_555 1_555
H7 C5 1_555 1_555
H8 C5 1_555 1_555
C6 C5 1_555 1_555
H9 C6 1_555 1_555
H10 C6 1_555 1_555
C7 C6 1_555 1_555
H11 C7 1_555 1_555
H12 C7 1_555 1_555
C8 C7 1_555 1_555
H13 C8 1_555 1_555
H14 C8 1_555 1_555
C9 C8 1_555 1_555
O3A C9 1_555 1_555
O1_2 Pb1 1_555 1_555
O3_2 Pb1 1_555 1_555
O3A_2 Pb1 1_555 1_555
O3B Pb1 1_555 1_555
O3C Pb1 1_555 1_555
Pb1_2 O1 1_555 1_555
Pb1_3 O3 1_555 1_555
Pb1B O3 1_555 1_555
Pb1B_2 O3A 1_555 1_555
O3A Pb1_3 1_555 1_555

#END
