
#######################################################################
#
#                 Cambridge Crystallographic Data Centre
#                                CCDC 
#
#######################################################################
#
# If this CIF has been generated from an entry in the Cambridge 
# Structural Database, then it will include bibliographic, chemical, 
# crystal, experimental, refinement or atomic coordinate data resulting 
# from the CCDC's data processing and validation procedures.
#
#######################################################################

data_IPANAP
_symmetry_cell_setting           triclinic
_symmetry_space_group_name_H-M   'P -1'
_symmetry_Int_Tables_number      2
_space_group_name_Hall           '-P 1'
loop_
_symmetry_equiv_pos_site_id
_symmetry_equiv_pos_as_xyz
1 x,y,z
2 -x,-y,-z
_cell_length_a                   5.9591(11)
_cell_length_b                   9.846(2)
_cell_length_c                   11.761(2)
_cell_angle_alpha                101.276(8)
_cell_angle_beta                 104.021(8)
_cell_angle_gamma                95.852(8)
_cell_volume                     648.437
loop_
_atom_site_label
_atom_site_type_symbol
_atom_site_fract_x
_atom_site_fract_y
_atom_site_fract_z
Cd1 Cd 0.22766(3) 0.588315(16) 0.755837(13)
C1 C 0.5306(4) 0.8314(2) 0.8287(2)
C2 C 0.6948(5) 0.9695(3) 0.8800(2)
H1 H 0.6199 1.0341 0.9262
H2 H 0.8352 0.9541 0.9348
C3 C 0.7645(4) 1.0364(2) 0.7862(2)
C4 C 0.9579(5) 1.0041(3) 0.7466(3)
H3 H 1.0511 0.9445 0.7808
C5 C 1.0115(5) 1.0609(3) 0.6559(3)
H4 H 1.1410 1.0388 0.6294
C6 C 0.8754(4) 1.1501(3) 0.6041(2)
H5 H 0.9140 1.1874 0.5432
C7 C 0.6810(4) 1.1843(2) 0.6427(2)
C8 C 0.6312(4) 1.1276(2) 0.7352(2)
H6 H 0.5045 1.1517 0.7635
C9 C 0.5229(5) 1.2703(3) 0.5771(2)
H7 H 0.3918 1.2063 0.5198
H8 H 0.6089 1.3160 0.5310
C10 C 0.4251(4) 1.3815(2) 0.6504(2)
C11 C 0.1318(5) 0.4074(3) 0.9435(2)
H9 H 0.2922 0.4447 0.9893
H10 H 0.1340 0.3250 0.8834
C12 C -0.0060(5) 0.3653(3) 1.0273(2)
H11 H 0.0722 0.3001 1.0689
H12 H -0.1605 0.3172 0.9800
H13 H -0.148(5) 0.616(3) 0.5712(16)
H14 H -0.208(5) 0.683(3) 0.673(3)
N1 N 0.0312(3) 0.5134(2) 0.88261(16)
H15 H -0.1158 0.4734 0.8371
O1 O 0.5377(4) 0.75239(19) 0.73359(18)
O2 O 0.3936(4) 0.7968(2) 0.88664(19)
O3 O 0.5053(3) 1.42309(17) 0.76149(14)
O4 O 0.2579(3) 1.43192(18) 0.59239(14)
O5 O -0.1050(4) 0.6419(3) 0.64793(17)
Cd1A Cd -0.22766(3) 0.411685(16) 1.244163(13)
Cd1_2 Cd 0.22766(3) 1.588315(16) 0.755837(13)
Cd1_3 Cd 0.22766(3) -0.411685(16) 0.755837(13)
C1_2 C 0.5306(4) -0.1686(2) 0.8287(2)
C2_2 C 0.6948(5) -0.0305(3) 0.8800(2)
H1_2 H 0.6199 0.0341 0.9262
H2_2 H 0.8352 -0.0459 0.9348
C3_2 C 0.7645(4) 0.0364(2) 0.7862(2)
C4_2 C 0.9579(5) 0.0041(3) 0.7466(3)
H3_2 H 1.0511 -0.0555 0.7808
C5_2 C 1.0115(5) 0.0609(3) 0.6559(3)
H4_2 H 1.1410 0.0388 0.6294
C6_2 C 0.8754(4) 0.1501(3) 0.6041(2)
H5_2 H 0.9140 0.1874 0.5432
C7_2 C 0.6810(4) 0.1843(2) 0.6427(2)
C8_2 C 0.6312(4) 0.1276(2) 0.7352(2)
H6_2 H 0.5045 0.1517 0.7635
C9_2 C 0.5229(5) 0.2703(3) 0.5771(2)
H7_2 H 0.3918 0.2063 0.5198
H8_2 H 0.6089 0.3160 0.5310
C10_2 C 0.4251(4) 0.3815(2) 0.6504(2)
C11A C -0.1318(5) 0.5926(3) 1.0565(2)
H9A H -0.2922 0.5553 1.0107
H10A H -0.1340 0.6750 1.1166
C12A C 0.0060(5) 0.6347(3) 0.9727(2)
H11A H -0.0722 0.6999 0.9311
H12A H 0.1605 0.6828 1.0200
H13A H 0.148(5) 0.384(3) 1.4288(16)
H14A H 0.208(5) 0.317(3) 1.327(3)
N1A N -0.0312(3) 0.4866(2) 1.11739(16)
H15A H 0.1158 0.5266 1.1629
O1_2 O 0.5377(4) -0.24761(19) 0.73359(18)
O1A O -0.5377(4) 0.24761(19) 1.26641(18)
O2_2 O 0.3936(4) -0.2032(2) 0.88664(19)
O2A O -0.3936(4) 0.2032(2) 1.11336(19)
O3_2 O 0.5053(3) 0.42309(17) 0.76149(14)
O3A O -0.5053(3) 0.57691(17) 1.23851(14)
O4_2 O 0.2579(3) 0.43192(18) 0.59239(14)
O4A O -0.2579(3) 0.56808(18) 1.40761(14)
O5A O 0.1050(4) 0.3581(3) 1.35207(17)
loop_
_geom_bond_atom_site_label_1
_geom_bond_atom_site_label_2
_geom_bond_site_symmetry_1
_geom_bond_site_symmetry_2
Cd1 N1 1_555 1_555
C1 C2 1_555 1_555
C2 H1 1_555 1_555
H2 C2 1_555 1_555
C3 C2 1_555 1_555
C4 C3 1_555 1_555
H3 C4 1_555 1_555
C5 C4 1_555 1_555
H4 C5 1_555 1_555
C6 C5 1_555 1_555
H5 C6 1_555 1_555
C7 C6 1_555 1_555
C8 C3 1_555 1_555
H6 C8 1_555 1_555
C9 C7 1_555 1_555
H7 C9 1_555 1_555
H8 C9 1_555 1_555
C10 C9 1_555 1_555
C11 H9 1_555 1_555
H10 C11 1_555 1_555
C12 C11 1_555 1_555
H11 C12 1_555 1_555
H12 C12 1_555 1_555
H13 O5 1_555 1_555
H14 O5 1_555 1_555
N1 C11 1_555 1_555
H15 N1 1_555 1_555
O1 Cd1 1_555 1_555
O2 Cd1 1_555 1_555
O3 C10 1_555 1_555
O4 C10 1_555 1_555
O5 Cd1 1_555 1_555
Cd1A N1A 1_555 1_555
Cd1_2 O3 1_555 1_555
Cd1_3 O1_2 1_555 1_555
C1_2 C2_2 1_555 1_555
C2_2 H1_2 1_555 1_555
H2_2 C2_2 1_555 1_555
C3_2 C2_2 1_555 1_555
C4_2 C3_2 1_555 1_555
H3_2 C4_2 1_555 1_555
C5_2 C4_2 1_555 1_555
H4_2 C5_2 1_555 1_555
C6_2 C5_2 1_555 1_555
H5_2 C6_2 1_555 1_555
C7_2 C6_2 1_555 1_555
C8_2 C3_2 1_555 1_555
H6_2 C8_2 1_555 1_555
C9_2 C7_2 1_555 1_555
H7_2 C9_2 1_555 1_555
H8_2 C9_2 1_555 1_555
C10_2 C9_2 1_555 1_555
C11A H9A 1_555 1_555
H10A C11A 1_555 1_555
C12A N1 1_555 1_555
H11A C12A 1_555 1_555
H12A C12A 1_555 1_555
H13A O5A 1_555 1_555
H14A O5A 1_555 1_555
N1A C12 1_555 1_555
H15A N1A 1_555 1_555
O1_2 C1_2 1_555 1_555
O1A Cd1A 1_555 1_555
O2_2 Cd1_3 1_555 1_555
O2A Cd1A 1_555 1_555
O3_2 Cd1 1_555 1_555
O3A Cd1A 1_555 1_555
O4_2 Cd1 1_555 1_555
O4A Cd1A 1_555 1_555
O5A Cd1A 1_555 1_555
C1 O1 1_555 1_555
C1 O2 1_555 1_555
C7 C8 1_555 1_555
O4 Cd1_2 1_555 1_555
C1_2 O2_2 1_555 1_555
C7_2 C8_2 1_555 1_555
C10_2 O3_2 1_555 1_555
C10_2 O4_2 1_555 1_555
C11A C12A 1_555 1_555
C11A N1A 1_555 1_555

#END
