
#######################################################################
#
#                 Cambridge Crystallographic Data Centre
#                                CCDC 
#
#######################################################################
#
# If this CIF has been generated from an entry in the Cambridge 
# Structural Database, then it will include bibliographic, chemical, 
# crystal, experimental, refinement or atomic coordinate data resulting 
# from the CCDC's data processing and validation procedures.
#
#######################################################################

data_IPANIX
_symmetry_cell_setting           triclinic
_symmetry_space_group_name_H-M   'P -1'
_symmetry_Int_Tables_number      2
_space_group_name_Hall           '-P 1'
loop_
_symmetry_equiv_pos_site_id
_symmetry_equiv_pos_as_xyz
1 x,y,z
2 -x,-y,-z
_cell_length_a                   10.5225(2)
_cell_length_b                   12.0132(2)
_cell_length_c                   12.4160(2)
_cell_angle_alpha                105.6860(10)
_cell_angle_beta                 97.0290(10)
_cell_angle_gamma                92.7630(10)
_cell_volume                     1494.25
loop_
_atom_site_label
_atom_site_type_symbol
_atom_site_fract_x
_atom_site_fract_y
_atom_site_fract_z
Pr1 Pr 0.970270(18) 0.973245(15) 1.317033(15)
Pr2 Pr 0.693407(18) 0.963224(16) 1.045274(15)
C1 C 1.2148(4) 0.2518(3) 0.9121(3)
C2 C 1.1551(4) 0.3573(3) 0.8957(4)
H1 H 1.0779 0.3643 0.9316
H2 H 1.1285 0.3444 0.8153
C3 C 1.2351(4) 0.4715(3) 0.9391(4)
C4 C 1.3471(4) 0.4909(4) 0.8968(4)
H3 H 1.3735 0.4323 0.8403
C5 C 1.4202(4) 0.5954(3) 0.9370(4)
H4 H 1.4963 0.6065 0.9088
C6 C 1.3806(4) 0.6840(3) 1.0192(3)
H5 H 1.4306 0.7543 1.0468
C7 C 1.2662(4) 0.6684(3) 1.0610(3)
C8 C 1.1956(4) 0.5614(3) 1.0208(3)
H6 H 1.1200 0.5496 1.0494
C9 C 1.2179(4) 0.7638(3) 1.1491(3)
H7 H 1.2847 0.7900 1.2137
H8 H 1.1444 0.7316 1.1743
C10 C 1.1789(3) 0.8680(3) 1.1105(3)
C11 C 0.9300(4) 1.1816(3) 1.2390(3)
C12 C 0.8987(4) 1.2961(3) 1.2181(3)
H9 H 0.8749 1.2834 1.1374
H10 H 0.8242 1.3212 1.2541
C13 C 1.0044(4) 1.3928(3) 1.2593(3)
C14 C 1.1175(4) 1.3852(3) 1.2113(3)
H11 H 1.1275 1.3200 1.1533
C15 C 1.2151(4) 1.4733(4) 1.2487(4)
H12 H 1.2897 1.4677 1.2151
C16 C 1.2023(4) 1.5699(3) 1.3361(3)
H13 H 1.2692 1.6282 1.3622
C17 C 1.0915(4) 1.5803(3) 1.3845(3)
C18 C 0.9928(4) 1.4921(3) 1.3454(3)
H14 H 0.9172 1.4995 1.3774
C19 C 1.0761(4) 1.6894(3) 1.4761(3)
H15 H 1.0107 1.6723 1.5193
H16 H 1.1564 1.7118 1.5270
C20 C 1.0395(4) 1.7902(3) 1.4318(3)
C21 C 0.5303(4) 0.8637(3) 1.8225(3)
C22 C 0.4501(4) 0.7946(3) 1.7137(3)
H17 H 0.3783 0.8381 1.6976
H18 H 0.4152 0.7228 1.7244
C23 C 0.5211(4) 0.7657(3) 1.6126(3)
C24 C 0.6122(5) 0.6863(4) 1.6056(4)
H19 H 0.6277 0.6498 1.6626
C25 C 0.6802(6) 0.6604(5) 1.5160(4)
H20 H 0.7427 0.6079 1.5135
C26 C 0.6566(5) 0.7117(4) 1.4293(4)
H21 H 0.7024 0.6930 1.3682
C27 C 0.5650(4) 0.7905(3) 1.4331(3)
C28 C 0.4981(4) 0.8168(3) 1.5255(3)
H22 H 0.4363 0.8700 1.5288
C29 C 0.5347(4) 0.8427(4) 1.3358(3)
H23 H 0.4667 0.8936 1.3535
H24 H 0.5000 0.7801 1.2696
C30 C 0.6418(4) 0.9110(3) 1.3033(3)
O1 O 1.1601(2) 0.15307(19) 0.8500(2)
O2 O 1.3084(3) 0.2552(2) 0.9844(2)
O3 O 1.0995(3) 0.9301(2) 1.1609(2)
O4 O 1.2266(3) 0.8880(2) 1.0301(2)
H25 H 1.2491 1.0839 1.3854
H26 H 1.2195 1.0348 1.4672
H27 H 0.9721 0.9129 1.0014
H28 H 0.8891 0.8599 0.8844
O5 O 0.8435(2) 1.0956(2) 1.2040(2)
O6 O 1.0339(3) 1.1701(2) 1.2914(2)
O7 O 1.0364(3) 1.8892(2) 1.5002(2)
O8 O 1.0138(3) 1.7769(2) 1.3283(2)
O9 O 0.4742(2) 0.8996(2) 1.9107(2)
O10 O 0.6482(3) 0.8822(3) 1.8294(2)
O11 O 0.6112(2) 0.9383(2) 1.2140(2)
O12 O 0.7496(2) 0.9368(2) 1.3653(2)
O13 O 1.2066(3) 1.0219(2) 1.3950(2)
O14 O 0.8941(3) 0.8986(2) 0.9586(2)
Pr1A Pr 1.029730(18) 0.026755(15) 0.682967(15)
Pr1A_2 Pr 1.029730(18) 2.026755(15) 1.682967(15)
Pr1_2 Pr 0.970270(18) 1.973245(15) 1.317033(15)
Pr2A Pr 1.306593(18) 0.036776(16) 0.954726(15)
Pr2A_2 Pr 1.306593(18) 1.036776(16) 0.954726(15)
Pr2_2 Pr 0.693407(18) 0.963224(16) 2.045274(15)
Pr2A_3 Pr 0.306593(18) 1.036776(16) 1.954726(15)
O1A O 0.8399(2) 0.84693(19) 1.1500(2)
O2A O 0.6916(3) 0.7448(2) 1.0156(2)
O4A O 0.7734(3) 1.1120(2) 0.9699(2)
O7A O 0.9636(3) 1.1108(2) 1.4998(2)
O7_2 O 1.0364(3) 0.8892(2) 1.5002(2)
O8_2 O 1.0138(3) 0.7769(2) 1.3283(2)
O9_2 O 0.4742(2) 0.8996(2) 0.9107(2)
O9A O 0.5258(2) 1.1004(2) 1.0893(2)
O10_2 O 0.6482(3) 0.8822(3) 0.8294(2)
loop_
_geom_bond_atom_site_label_1
_geom_bond_atom_site_label_2
_geom_bond_site_symmetry_1
_geom_bond_site_symmetry_2
Pr1 O3 1_555 1_555
Pr2 O5 1_555 1_555
C1 C2 1_555 1_555
C2 H1 1_555 1_555
H2 C2 1_555 1_555
C3 C2 1_555 1_555
C4 C3 1_555 1_555
H3 C4 1_555 1_555
C5 C4 1_555 1_555
H4 C5 1_555 1_555
C6 C5 1_555 1_555
H5 C6 1_555 1_555
C7 C6 1_555 1_555
C8 C3 1_555 1_555
H6 C8 1_555 1_555
C9 C7 1_555 1_555
H7 C9 1_555 1_555
H8 C9 1_555 1_555
C10 C9 1_555 1_555
C11 C12 1_555 1_555
C12 H9 1_555 1_555
H10 C12 1_555 1_555
C13 C12 1_555 1_555
C14 C13 1_555 1_555
H11 C14 1_555 1_555
C15 C14 1_555 1_555
H12 C15 1_555 1_555
C16 C15 1_555 1_555
H13 C16 1_555 1_555
C17 C16 1_555 1_555
C18 C13 1_555 1_555
H14 C18 1_555 1_555
C19 C17 1_555 1_555
H15 C19 1_555 1_555
H16 C19 1_555 1_555
C20 C19 1_555 1_555
C21 C22 1_555 1_555
C22 H17 1_555 1_555
H18 C22 1_555 1_555
C23 C22 1_555 1_555
C24 C23 1_555 1_555
H19 C24 1_555 1_555
C25 C24 1_555 1_555
H20 C25 1_555 1_555
C26 C25 1_555 1_555
H21 C26 1_555 1_555
C27 C26 1_555 1_555
C28 C23 1_555 1_555
H22 C28 1_555 1_555
C29 C27 1_555 1_555
H23 C29 1_555 1_555
H24 C29 1_555 1_555
C30 C29 1_555 1_555
O1 C1 1_555 1_555
O2 C1 1_555 1_555
O3 C10 1_555 1_555
O4 C10 1_555 1_555
H25 O13 1_555 1_555
H26 O13 1_555 1_555
H27 O14 1_555 1_555
H28 O14 1_555 1_555
O5 Pr1 1_555 1_555
O6 Pr1 1_555 1_555
O7 C20 1_555 1_555
O8 C20 1_555 1_555
O9 C21 1_555 1_555
O10 C21 1_555 1_555
O11 Pr2 1_555 1_555
O12 Pr1 1_555 1_555
O13 Pr1 1_555 1_555
O14 Pr2 1_555 1_555
Pr1A O1 1_555 1_555
Pr1A_2 O7 1_555 1_555
Pr1_2 O7 1_555 1_555
Pr2A O1 1_555 1_555
Pr2A_2 O4 1_555 1_555
Pr2_2 O9 1_555 1_555
Pr2A_3 O9 1_555 1_555
O1A Pr1 1_555 1_555
O2A Pr2 1_555 1_555
O4A Pr2 1_555 1_555
O7A Pr1 1_555 1_555
O7_2 Pr1 1_555 1_555
O8_2 Pr1 1_555 1_555
O9_2 Pr2 1_555 1_555
O9A Pr2 1_555 1_555
O10_2 Pr2 1_555 1_555
Pr2 O1A 1_555 1_555
C7 C8 1_555 1_555
C11 O5 1_555 1_555
C11 O6 1_555 1_555
C17 C18 1_555 1_555
C27 C28 1_555 1_555
C30 O11 1_555 1_555
C30 O12 1_555 1_555
O2 Pr2A 1_555 1_555
O8 Pr1_2 1_555 1_555
O10 Pr2_2 1_555 1_555

#END
