
#######################################################################
#
#                 Cambridge Crystallographic Data Centre
#                                CCDC 
#
#######################################################################
#
# If this CIF has been generated from an entry in the Cambridge 
# Structural Database, then it will include bibliographic, chemical, 
# crystal, experimental, refinement or atomic coordinate data resulting 
# from the CCDC's data processing and validation procedures.
#
#######################################################################

data_IPANUJ
_symmetry_cell_setting           triclinic
_symmetry_space_group_name_H-M   'P -1'
_symmetry_Int_Tables_number      2
_space_group_name_Hall           '-P 1'
loop_
_symmetry_equiv_pos_site_id
_symmetry_equiv_pos_as_xyz
1 x,y,z
2 -x,-y,-z
_cell_length_a                   9.8114(3)
_cell_length_b                   11.2357(3)
_cell_length_c                   12.6827(3)
_cell_angle_alpha                97.186(2)
_cell_angle_beta                 92.992(2)
_cell_angle_gamma                100.776(2)
_cell_volume                     1358.57
loop_
_atom_site_label
_atom_site_type_symbol
_atom_site_fract_x
_atom_site_fract_y
_atom_site_fract_z
C1 C 0.0223(6) -0.1472(4) 0.0366(4)
C2 C 0.1568(5) -0.0755(5) 0.0540(4)
C3 C 0.1959(5) 0.0047(4) 0.1466(4)
H1 H 0.2855 0.0514 0.1581
C4 C 0.0994(4) 0.0152(4) 0.2235(3)
C5 C -0.0354(4) -0.0544(4) 0.2048(3)
C6 C -0.0736(5) -0.1365(4) 0.1115(4)
H2 H -0.1629 -0.1837 0.0997
C7 C 0.1411(4) 0.0982(4) 0.3231(3)
C8 C -0.1349(4) -0.0375(4) 0.2855(4)
C9 C 0.2531(5) -0.3773(4) 0.0772(4)
C10 C 0.3807(4) -0.2978(4) 0.1074(3)
C11 C 0.3992(4) -0.2192(4) 0.2027(3)
H3 H 0.4841 -0.1663 0.2226
C12 C 0.2890(4) -0.2203(3) 0.2687(3)
C13 C 0.1615(4) -0.3002(4) 0.2370(3)
C14 C 0.1443(4) -0.3787(4) 0.1416(3)
H4 H 0.0597 -0.4319 0.1213
C15 C 0.3031(4) -0.1389(4) 0.3697(3)
C16 C 0.0437(4) -0.2983(4) 0.3047(3)
C17 C 0.6137(5) 0.1928(4) 0.3438(4)
H5 H 0.5664 0.1171 0.3097
C18 C 0.7336(6) 0.2504(5) 0.3009(4)
H6 H 0.7638 0.2143 0.2386
C19 C 0.8049(5) 0.3596(5) 0.3517(4)
H7 H 0.8849 0.3986 0.3245
C20 C 0.7579(4) 0.4139(4) 0.4453(4)
C21 C 0.8303(5) 0.5281(4) 0.5046(4)
H8 H 0.9118 0.5688 0.4808
C22 C 0.7818(5) 0.5763(4) 0.5936(4)
H9 H 0.8311 0.6492 0.6315
C23 C 0.6551(4) 0.5169(4) 0.6312(4)
C24 C 0.5968(5) 0.5672(4) 0.7220(4)
H10 H 0.6422 0.6408 0.7610
C25 C 0.4749(5) 0.5080(5) 0.7520(4)
H11 H 0.4357 0.5409 0.8113
C26 C 0.4083(5) 0.3964(4) 0.6926(4)
H12 H 0.3250 0.3562 0.7143
C27 C 0.6351(4) 0.3511(4) 0.4818(3)
C28 C 0.5814(4) 0.4057(3) 0.5757(3)
N1 N 0.0520(4) 0.1131(3) 0.3946(3)
N2 N -0.0831(4) 0.0452(3) 0.3709(3)
H13 H -0.1413 0.0581 0.4175
N3 N 0.1991(3) -0.1382(3) 0.4306(3)
N4 N 0.0731(4) -0.2168(3) 0.3944(3)
H14 H 0.0055 -0.2128 0.4344
N5 N 0.5654(4) 0.2422(3) 0.4309(3)
N6 N 0.4590(4) 0.3461(3) 0.6072(3)
O1 O 0.2697(3) 0.1549(3) 0.3402(3)
O2 O -0.2583(3) -0.0924(4) 0.2774(3)
O3 O 0.4219(3) -0.0641(3) 0.4007(2)
O4 O -0.0728(3) -0.3642(3) 0.2822(3)
Cl1 Cl 0.27812(17) -0.08317(16) -0.03946(11)
Cl2 Cl -0.02511(19) -0.25028(13) -0.07880(10)
Cl3 Cl 0.51830(13) -0.29668(15) 0.02755(11)
Cl4 Cl 0.22814(14) -0.47464(14) -0.04208(11)
Pb1 Pb 0.365460(14) 0.124452(13) 0.510808(12)
O2A O 0.2583(3) 0.0924(4) 0.7226(3)
O3A O 0.5781(3) 0.0641(3) 0.5993(2)
Pb1A Pb -0.365460(14) -0.124452(13) 0.489192(12)
Pb1A_2 Pb 0.634540(14) -0.124452(13) 0.489192(12)
loop_
_geom_bond_atom_site_label_1
_geom_bond_atom_site_label_2
_geom_bond_site_symmetry_1
_geom_bond_site_symmetry_2
C1 C2 1_555 1_555
C2 C3 1_555 1_555
C3 H1 1_555 1_555
C4 C3 1_555 1_555
C5 C4 1_555 1_555
C6 C1 1_555 1_555
H2 C6 1_555 1_555
C7 C4 1_555 1_555
C8 C5 1_555 1_555
C9 C10 1_555 1_555
C10 C11 1_555 1_555
C11 H3 1_555 1_555
C12 C11 1_555 1_555
C13 C12 1_555 1_555
C14 C9 1_555 1_555
H4 C14 1_555 1_555
C15 C12 1_555 1_555
C16 C13 1_555 1_555
C17 H5 1_555 1_555
C18 C17 1_555 1_555
H6 C18 1_555 1_555
C19 C18 1_555 1_555
H7 C19 1_555 1_555
C20 C19 1_555 1_555
C21 C20 1_555 1_555
H8 C21 1_555 1_555
C22 C21 1_555 1_555
H9 C22 1_555 1_555
C23 C22 1_555 1_555
C24 C23 1_555 1_555
H10 C24 1_555 1_555
C25 C24 1_555 1_555
H11 C25 1_555 1_555
C26 C25 1_555 1_555
H12 C26 1_555 1_555
C27 C20 1_555 1_555
C28 C23 1_555 1_555
N1 C7 1_555 1_555
N2 C8 1_555 1_555
H13 N2 1_555 1_555
N3 C15 1_555 1_555
N4 C16 1_555 1_555
H14 N4 1_555 1_555
N5 C17 1_555 1_555
N6 C26 1_555 1_555
O1 C7 1_555 1_555
O2 C8 1_555 1_555
O3 C15 1_555 1_555
O4 C16 1_555 1_555
Cl1 C2 1_555 1_555
Cl2 C1 1_555 1_555
Cl3 C10 1_555 1_555
Cl4 C9 1_555 1_555
Pb1 N5 1_555 1_555
O2A Pb1 1_555 1_555
O3A Pb1 1_555 1_555
Pb1A O2 1_555 1_555
Pb1A_2 O3 1_555 1_555
C5 C6 1_555 1_555
C13 C14 1_555 1_555
C27 C28 1_555 1_555
C27 N5 1_555 1_555
C28 N6 1_555 1_555
N1 N2 1_555 1_555
N3 N4 1_555 1_555
N6 Pb1 1_555 1_555
O1 Pb1 1_555 1_555
O3 Pb1 1_555 1_555
O3A Pb1A_2 1_555 1_555

#END
