
#######################################################################
#
#                 Cambridge Crystallographic Data Centre
#                                CCDC 
#
#######################################################################
#
# If this CIF has been generated from an entry in the Cambridge 
# Structural Database, then it will include bibliographic, chemical, 
# crystal, experimental, refinement or atomic coordinate data resulting 
# from the CCDC's data processing and validation procedures.
#
#######################################################################

data_IPAPAR
_symmetry_cell_setting           monoclinic
_symmetry_space_group_name_H-M   'P 21/n'
_symmetry_Int_Tables_number      14
_space_group_name_Hall           '-P 2yn'
loop_
_symmetry_equiv_pos_site_id
_symmetry_equiv_pos_as_xyz
1 x,y,z
2 1/2-x,1/2+y,1/2-z
3 -x,-y,-z
4 1/2+x,1/2-y,1/2+z
_cell_length_a                   7.9126(3)
_cell_length_b                   25.7233(12)
_cell_length_c                   13.2669(6)
_cell_angle_alpha                90
_cell_angle_beta                 93.416(3)
_cell_angle_gamma                90
_cell_volume                     2695.52
loop_
_atom_site_label
_atom_site_type_symbol
_atom_site_fract_x
_atom_site_fract_y
_atom_site_fract_z
Cd1 Cd 1.72067(7) 0.03804(2) 0.25807(4)
Cd2 Cd 1.0000 0.0000 0.0000
O1 O 0.8533(7) -0.0388(2) 0.1206(4)
O2 O 0.1913(7) -0.0633(2) 0.0407(5)
O3 O 1.6052(7) 0.1191(2) 0.2129(4)
O4 O 1.4122(7) 0.0622(2) 0.2584(4)
O5 O 0.9770(7) 0.0665(3) 0.2391(5)
O6 O 1.1360(7) 0.0595(2) 0.1062(4)
N1 N 0.5895(8) -0.0129(2) 0.1337(5)
N2 N 0.4154(8) -0.0200(3) 0.1131(5)
N3 N 1.6979(9) 0.0651(3) 0.4292(5)
N4 N 1.8024(8) -0.0301(2) 0.3716(5)
C1 C 0.7437(11) -0.1400(3) 0.0584(6)
H1 H 0.8599 -0.1353 0.0689
C2 C 0.6776(13) -0.1876(3) 0.0312(6)
C3 C 0.5020(13) -0.1939(3) 0.0098(7)
C4 C 0.3964(12) -0.1534(3) 0.0163(6)
H2 H 0.2815 -0.1574 -0.0010
C5 C 0.4599(10) -0.1054(3) 0.0491(6)
C6 C 0.6320(10) -0.0989(3) 0.0700(6)
C7 C 0.6946(10) -0.0482(3) 0.1074(5)
C8 C 0.3454(10) -0.0618(3) 0.0642(6)
C9 C 1.3693(11) 0.1994(3) 0.2419(6)
H3 H 1.4836 0.2071 0.2537
C10 C 1.2532(11) 0.2386(3) 0.2444(6)
C11 C 1.0804(11) 0.2278(3) 0.2284(6)
C12 C 1.0307(10) 0.1765(3) 0.2080(6)
H4 H 0.9163 0.1688 0.1966
C13 C 1.1494(9) 0.1368(3) 0.2045(6)
C14 C 1.3212(9) 0.1485(3) 0.2222(5)
C15 C 1.4560(10) 0.1073(3) 0.2296(5)
C16 C 1.0838(9) 0.0830(3) 0.1801(6)
C17 C 1.6476(13) 0.1122(3) 0.4550(7)
H5 H 1.6401 0.1379 0.4056
C18 C 1.6057(14) 0.1252(4) 0.5519(8)
H6 H 1.5701 0.1586 0.5671
C19 C 1.6184(13) 0.0877(4) 0.6238(7)
H7 H 1.5904 0.0950 0.6894
C20 C 1.6725(12) 0.0389(4) 0.5993(6)
H8 H 1.6811 0.0129 0.6480
C21 C 1.7142(10) 0.0288(3) 0.5015(6)
C22 C 1.7804(10) -0.0233(3) 0.4700(6)
C23 C 1.8167(12) -0.0615(4) 0.5408(6)
H9 H 1.7955 -0.0564 0.6082
C24 C 1.8847(14) -0.1073(4) 0.5093(8)
H10 H 1.9114 -0.1335 0.5558
C25 C 1.9138(14) -0.1145(4) 0.4087(8)
H11 H 1.9617 -0.1451 0.3866
C26 C 1.8698(13) -0.0750(3) 0.3419(7)
H12 H 1.8875 -0.0797 0.2739
Cl1 Cl 0.9281(3) 0.27562(10) 0.2291(2)
Cl2 Cl 0.8160(4) -0.24017(10) 0.0262(2)
Cl3 Cl 1.3175(4) 0.30224(9) 0.2696(2)
Cl4 Cl 0.4235(5) -0.25457(10) -0.0232(3)
Cd1B Cd 0.27933(7) -0.03804(2) -0.25807(4)
Cd1_2 Cd 0.72067(7) 0.03804(2) 0.25807(4)
Cd1B_2 Cd 1.27933(7) -0.03804(2) -0.25807(4)
Cd2_2 Cd 0.0000 0.0000 0.0000
Cd2_3 Cd 2.0000 0.0000 0.0000
O1B O 1.1467(7) 0.0388(2) -0.1206(4)
O2B O 1.8087(7) 0.0633(2) -0.0407(5)
O2_2 O 1.1913(7) -0.0633(2) 0.0407(5)
O2B_2 O 0.8087(7) 0.0633(2) -0.0407(5)
O3B O 0.3948(7) -0.1191(2) -0.2129(4)
O4B O 0.5878(7) -0.0622(2) -0.2584(4)
O5B O 1.0230(7) -0.0665(3) -0.2391(5)
O5_2 O 1.9770(7) 0.0665(3) 0.2391(5)
O5B_2 O 0.0230(7) -0.0665(3) -0.2391(5)
O6B O 0.8640(7) -0.0595(2) -0.1062(4)
N1B N 1.4105(8) 0.0129(2) -0.1337(5)
N1_2 N 1.5895(8) -0.0129(2) 0.1337(5)
N1B_2 N 0.4105(8) 0.0129(2) -0.1337(5)
N2B N 1.5846(8) 0.0200(3) -0.1131(5)
N3B N 0.3021(9) -0.0651(3) -0.4292(5)
N4B N 0.1976(8) 0.0301(2) -0.3716(5)
C1B C 1.2563(11) 0.1400(3) -0.0584(6)
H1B H 1.1401 0.1353 -0.0689
C2B C 1.3224(13) 0.1876(3) -0.0312(6)
C3B C 1.4980(13) 0.1939(3) -0.0098(7)
C4B C 1.6036(12) 0.1534(3) -0.0163(6)
H2B H 1.7185 0.1574 0.0010
C5B C 1.5401(10) 0.1054(3) -0.0491(6)
C6B C 1.3680(10) 0.0989(3) -0.0700(6)
C7B C 1.3054(10) 0.0482(3) -0.1074(5)
C8B C 1.6546(10) 0.0618(3) -0.0642(6)
C9B C 0.6307(11) -0.1994(3) -0.2419(6)
H3B H 0.5164 -0.2071 -0.2537
C10B C 0.7468(11) -0.2386(3) -0.2444(6)
C11B C 0.9196(11) -0.2278(3) -0.2284(6)
C12B C 0.9693(10) -0.1765(3) -0.2080(6)
H4B H 1.0837 -0.1688 -0.1966
C13B C 0.8506(9) -0.1368(3) -0.2045(6)
C14B C 0.6788(9) -0.1485(3) -0.2222(5)
C15B C 0.5440(10) -0.1073(3) -0.2296(5)
C16B C 0.9162(9) -0.0830(3) -0.1801(6)
C17B C 0.3524(13) -0.1122(3) -0.4550(7)
H5B H 0.3599 -0.1379 -0.4056
C18B C 0.3943(14) -0.1252(4) -0.5519(8)
H6B H 0.4299 -0.1586 -0.5671
C19B C 0.3816(13) -0.0877(4) -0.6238(7)
H7B H 0.4096 -0.0950 -0.6894
C20B C 0.3275(12) -0.0389(4) -0.5993(6)
H8B H 0.3189 -0.0129 -0.6480
C21B C 0.2858(10) -0.0288(3) -0.5015(6)
C22B C 0.2196(10) 0.0233(3) -0.4700(6)
C23B C 0.1833(12) 0.0615(4) -0.5408(6)
H9B H 0.2045 0.0564 -0.6082
C24B C 0.1153(14) 0.1073(4) -0.5093(8)
H10B H 0.0886 0.1335 -0.5558
C25B C 0.0862(14) 0.1145(4) -0.4087(8)
H11B H 0.0383 0.1451 -0.3866
C26B C 0.1302(13) 0.0750(3) -0.3419(7)
H12B H 0.1125 0.0797 -0.2739
Cl1B Cl 1.0719(3) -0.27562(10) -0.2291(2)
Cl2B Cl 1.1840(4) 0.24017(10) -0.0262(2)
Cl3B Cl 0.6825(4) -0.30224(9) -0.2696(2)
Cl4B Cl 1.5765(5) 0.25457(10) 0.0232(3)
loop_
_geom_bond_atom_site_label_1
_geom_bond_atom_site_label_2
_geom_bond_site_symmetry_1
_geom_bond_site_symmetry_2
Cd1 O3 1_555 1_555
Cd2 O1 1_555 1_555
O1 C7 1_555 1_555
O2 C8 1_555 1_555
O3 C15 1_555 1_555
O4 Cd1 1_555 1_555
O5 C16 1_555 1_555
O6 Cd2 1_555 1_555
N1 N2 1_555 1_555
N2 C8 1_555 1_555
N3 Cd1 1_555 1_555
N4 Cd1 1_555 1_555
C1 H1 1_555 1_555
C2 C1 1_555 1_555
C3 C2 1_555 1_555
C4 C3 1_555 1_555
H2 C4 1_555 1_555
C5 C4 1_555 1_555
C6 C1 1_555 1_555
C7 N1 1_555 1_555
C8 C5 1_555 1_555
C9 H3 1_555 1_555
C10 C9 1_555 1_555
C11 C10 1_555 1_555
C12 C11 1_555 1_555
H4 C12 1_555 1_555
C13 C12 1_555 1_555
C14 C9 1_555 1_555
C15 O4 1_555 1_555
C16 O6 1_555 1_555
C17 N3 1_555 1_555
H5 C17 1_555 1_555
C18 C17 1_555 1_555
H6 C18 1_555 1_555
C19 C18 1_555 1_555
H7 C19 1_555 1_555
C20 C19 1_555 1_555
H8 C20 1_555 1_555
C21 N3 1_555 1_555
C22 N4 1_555 1_555
C23 C22 1_555 1_555
H9 C23 1_555 1_555
C24 C23 1_555 1_555
H10 C24 1_555 1_555
C25 C24 1_555 1_555
H11 C25 1_555 1_555
C26 N4 1_555 1_555
H12 C26 1_555 1_555
Cl1 C11 1_555 1_555
Cl2 C2 1_555 1_555
Cl3 C10 1_555 1_555
Cl4 C3 1_555 1_555
Cd1B O3B 1_555 1_555
Cd1_2 O5 1_555 1_555
Cd1B_2 O5B 1_555 1_555
Cd2_2 O2 1_555 1_555
Cd2_3 O2B 1_555 1_555
O1B Cd2 1_555 1_555
O2B C8B 1_555 1_555
O2_2 Cd2 1_555 1_555
O2B_2 Cd2 1_555 1_555
O3B C15B 1_555 1_555
O4B Cd1B 1_555 1_555
O5B C16B 1_555 1_555
O5_2 Cd1 1_555 1_555
O5B_2 Cd1B 1_555 1_555
O6B Cd2 1_555 1_555
N1B Cd1B_2 1_555 1_555
N1_2 Cd1 1_555 1_555
N1B_2 Cd1B 1_555 1_555
N2B N1B 1_555 1_555
N3B Cd1B 1_555 1_555
N4B Cd1B 1_555 1_555
C1B H1B 1_555 1_555
C2B C1B 1_555 1_555
C3B C2B 1_555 1_555
C4B C3B 1_555 1_555
H2B C4B 1_555 1_555
C5B C4B 1_555 1_555
C6B C1B 1_555 1_555
C7B O1B 1_555 1_555
C8B N2B 1_555 1_555
C9B H3B 1_555 1_555
C10B C9B 1_555 1_555
C11B C10B 1_555 1_555
C12B C11B 1_555 1_555
H4B C12B 1_555 1_555
C13B C12B 1_555 1_555
C14B C9B 1_555 1_555
C15B O4B 1_555 1_555
C16B O6B 1_555 1_555
C17B N3B 1_555 1_555
H5B C17B 1_555 1_555
C18B C17B 1_555 1_555
H6B C18B 1_555 1_555
C19B C18B 1_555 1_555
H7B C19B 1_555 1_555
C20B C19B 1_555 1_555
H8B C20B 1_555 1_555
C21B N3B 1_555 1_555
C22B N4B 1_555 1_555
C23B C22B 1_555 1_555
H9B C23B 1_555 1_555
C24B C23B 1_555 1_555
H10B C24B 1_555 1_555
C25B C24B 1_555 1_555
H11B C25B 1_555 1_555
C26B N4B 1_555 1_555
H12B C26B 1_555 1_555
Cl1B C11B 1_555 1_555
Cl2B C2B 1_555 1_555
Cl3B C10B 1_555 1_555
Cl4B C3B 1_555 1_555
N1 Cd1_2 1_555 1_555
C5 C6 1_555 1_555
C6 C7 1_555 1_555
C13 C14 1_555 1_555
C13 C16 1_555 1_555
C14 C15 1_555 1_555
C20 C21 1_555 1_555
C21 C22 1_555 1_555
C25 C26 1_555 1_555
N1B C7B 1_555 1_555
C5B C6B 1_555 1_555
C5B C8B 1_555 1_555
C6B C7B 1_555 1_555
C13B C14B 1_555 1_555
C13B C16B 1_555 1_555
C14B C15B 1_555 1_555
C20B C21B 1_555 1_555
C21B C22B 1_555 1_555
C25B C26B 1_555 1_555

#END
