
#######################################################################
#
#                 Cambridge Crystallographic Data Centre
#                                CCDC 
#
#######################################################################
#
# If this CIF has been generated from an entry in the Cambridge 
# Structural Database, then it will include bibliographic, chemical, 
# crystal, experimental, refinement or atomic coordinate data resulting 
# from the CCDC's data processing and validation procedures.
#
#######################################################################

data_IPAVUQ
_symmetry_cell_setting           orthorhombic
_symmetry_space_group_name_H-M   'P 21 21 21'
_symmetry_Int_Tables_number      19
_space_group_name_Hall           'P 2ac 2ab'
loop_
_symmetry_equiv_pos_site_id
_symmetry_equiv_pos_as_xyz
1 x,y,z
2 1/2-x,-y,1/2+z
3 1/2+x,1/2-y,-z
4 -x,1/2+y,1/2-z
_cell_length_a                   18.2054(12)
_cell_length_b                   18.4857(18)
_cell_length_c                   21.4388(14)
_cell_angle_alpha                90
_cell_angle_beta                 90
_cell_angle_gamma                90
_cell_volume                     7215
loop_
_atom_site_label
_atom_site_type_symbol
_atom_site_fract_x
_atom_site_fract_y
_atom_site_fract_z
C1 C 0.3656(2) 0.3091(2) 0.10272(17)
C2 C 0.3488(3) 0.3195(2) 0.04017(19)
H1 H 0.3372 0.3656 0.0259
C3 C 0.3492(3) 0.2619(3) -0.0014(2)
H2 H 0.3372 0.2698 -0.0430
C4 C 0.3672(3) 0.1940(3) 0.0182(3)
H3 H 0.3679 0.1557 -0.0100
C5 C 0.3845(3) 0.1822(2) 0.0803(3)
H4 H 0.3972 0.1360 0.0938
C6 C 0.3828(3) 0.2392(2) 0.1227(2)
H5 H 0.3932 0.2307 0.1645
C7 C 0.4712(2) 0.4038(2) 0.22189(16)
C8 C 0.5338(2) 0.4368(2) 0.20068(17)
H6 H 0.5333 0.4589 0.1617
C9 C 0.5975(3) 0.4381(2) 0.2357(2)
H7 H 0.6391 0.4608 0.2198
C10 C 0.6004(3) 0.4069(3) 0.2929(2)
H8 H 0.6439 0.4067 0.3157
C11 C 0.5388(4) 0.3761(5) 0.3160(3)
H9 H 0.5395 0.3558 0.3557
C12 C 0.4743(3) 0.3744(4) 0.2811(2)
H10 H 0.4325 0.3531 0.2979
C13 C 0.2865(2) 0.47551(19) 0.17233(17)
C14 C 0.2513(2) 0.4908(2) 0.22866(19)
H11 H 0.2632 0.4645 0.2642
C15 C 0.1985(3) 0.5450(3) 0.2320(2)
H12 H 0.1770 0.5562 0.2701
C16 C 0.1777(3) 0.5824(3) 0.1791(3)
H13 H 0.1417 0.6180 0.1816
C17 C 0.2104(3) 0.5668(2) 0.1224(2)
H14 H 0.1965 0.5919 0.0867
C18 C 0.2639(2) 0.5140(2) 0.11898(19)
H15 H 0.2854 0.5036 0.0807
C19 C 0.3375(2) 0.73253(19) -0.02704(15)
C20 C 0.3344(2) 0.7313(2) 0.03826(16)
H16 H 0.3337 0.6872 0.0591
C21 C 0.3322(3) 0.7952(2) 0.07203(18)
H17 H 0.3308 0.7935 0.1154
C22 C 0.3321(3) 0.8612(2) 0.0420(2)
H18 H 0.3300 0.9037 0.0651
C23 C 0.3351(2) 0.8640(2) -0.02289(19)
H19 H 0.3356 0.9083 -0.0434
C24 C 0.3372(2) 0.7996(2) -0.05665(18)
H20 H 0.3386 0.8015 -0.1000
C25 C 0.4407(2) 0.61650(18) -0.13462(16)
C26 C 0.4353(3) 0.5937(3) -0.19610(19)
H21 H 0.3892 0.5873 -0.2139
C27 C 0.4983(4) 0.5804(4) -0.2316(2)
H22 H 0.4940 0.5655 -0.2729
C28 C 0.5665(3) 0.5892(3) -0.2055(3)
H23 H 0.6084 0.5804 -0.2292
C29 C 0.5733(3) 0.6111(3) -0.1444(2)
H24 H 0.6196 0.6164 -0.1267
C30 C 0.5111(2) 0.6254(2) -0.10923(18)
H25 H 0.5161 0.6410 -0.0682
C31 C 0.2613(2) 0.5537(2) -0.07578(17)
C32 C 0.2783(3) 0.4802(2) -0.0743(2)
H26 H 0.3272 0.4657 -0.0737
C33 C 0.2232(3) 0.4282(3) -0.0736(2)
H27 H 0.2356 0.3794 -0.0741
C34 C 0.1510(3) 0.4481(3) -0.0721(2)
H28 H 0.1144 0.4130 -0.0712
C35 C 0.1325(3) 0.5212(3) -0.0720(3)
H29 H 0.0835 0.5351 -0.0702
C36 C 0.1876(3) 0.5732(3) -0.0745(2)
H30 H 0.1749 0.6219 -0.0754
C37 C 0.5230(2) 0.6308(2) 0.18739(15)
C38 C 0.4491(2) 0.6345(2) 0.16868(18)
H31 H 0.4380 0.6439 0.1271
C39 C 0.3928(2) 0.6244(2) 0.2106(2)
H32 H 0.3442 0.6279 0.1975
C40 C 0.4089(3) 0.6088(3) 0.2726(2)
H33 H 0.3712 0.6007 0.3010
C41 C 0.4804(3) 0.6055(3) 0.2915(2)
H34 H 0.4910 0.5955 0.3330
C42 C 0.5374(3) 0.6169(2) 0.24968(17)
H35 H 0.5857 0.6152 0.2636
C43 C 0.6960(2) 0.55713(18) 0.12281(15)
C44 C 0.6970(2) 0.4978(2) 0.08224(18)
H36 H 0.6600 0.4923 0.0527
C45 C 0.7534(3) 0.4470(2) 0.0860(2)
H37 H 0.7530 0.4074 0.0593
C46 C 0.8095(3) 0.4542(2) 0.1284(2)
H38 H 0.8471 0.4202 0.1301
C47 C 0.8094(3) 0.5128(2) 0.1684(2)
H39 H 0.8472 0.5182 0.1972
C48 C 0.7533(2) 0.5637(2) 0.16582(18)
H40 H 0.7539 0.6027 0.1932
C49 C 0.5978(2) 0.71225(19) 0.04732(16)
C50 C 0.6460(2) 0.7159(2) -0.00241(17)
H41 H 0.6855 0.6840 -0.0045
C51 C 0.6357(3) 0.7668(2) -0.04934(19)
H42 H 0.6691 0.7700 -0.0820
C52 C 0.5764(3) 0.8125(3) -0.0475(2)
H43 H 0.5688 0.8451 -0.0799
C53 C 0.5287(3) 0.8107(3) 0.0010(2)
H44 H 0.4892 0.8426 0.0025
C54 C 0.5394(3) 0.7599(2) 0.0491(2)
H45 H 0.5068 0.7585 0.0824
Sn1 Sn 0.373066(14) 0.398072(13) 0.166811(10)
Sn2 Sn 0.345617(14) 0.633845(13) -0.078822(10)
Sn3 Sn 0.608320(13) 0.634430(13) 0.119500(10)
Mo1 Mo 0.463168(16) 0.515340(15) 0.030864(12)
Mo2 Mo 0.268180(17) 0.271940(15) 0.285450(12)
O1 O 0.42209(15) 0.46376(13) 0.09127(11)
O2 O 0.40012(15) 0.58087(13) 0.00199(11)
O3 O 0.54387(15) 0.55799(13) 0.05952(11)
O4 O 0.31907(16) 0.33503(14) 0.24110(12)
O5 O 0.48703(16) 0.45772(14) -0.02839(12)
O6 O 0.28693(16) 0.68349(14) -0.15901(11)
O7 O 0.21269(18) 0.22304(17) 0.23679(13)
O8 O 0.67141(15) 0.71078(13) 0.17724(12)
O6A O 0.21307(16) 0.31651(14) 0.34099(11)
O8C O 0.32859(15) 0.21078(13) 0.32276(12)
Mo2A Mo 0.231820(17) 0.728060(15) -0.214550(12)
Mo2C Mo 0.731820(17) 0.771940(15) 0.214550(12)
C55 C 0.4350(2) 0.7969(2) -0.48337(17)
H46 H 0.4786 0.7675 -0.4890
H47 H 0.4493 0.8470 -0.4892
C56 C 0.3801(3) 0.7770(2) -0.53391(18)
H48 H 0.3376 0.8084 -0.5310
H49 H 0.3638 0.7275 -0.5279
C57 C 0.4147(3) 0.7846(3) -0.5981(2)
H50 H 0.4359 0.8325 -0.6019
H51 H 0.4542 0.7497 -0.6021
C58 C 0.3612(4) 0.7733(3) -0.6498(2)
H52 H 0.3860 0.7780 -0.6892
H53 H 0.3229 0.8089 -0.6471
H54 H 0.3402 0.7258 -0.6465
C59 C 0.3392(2) 0.8325(2) -0.40468(19)
H55 H 0.3005 0.8153 -0.4319
H56 H 0.3236 0.8241 -0.3621
C60 C 0.3480(3) 0.9139(2) -0.4143(2)
H57 H 0.3660 0.9229 -0.4562
H58 H 0.3842 0.9323 -0.3852
C61 C 0.2755(3) 0.9541(3) -0.4049(2)
H59 H 0.2824 1.0045 -0.4162
H60 H 0.2391 0.9340 -0.4330
C62 C 0.2462(4) 0.9505(4) -0.3397(3)
H61 H 0.2004 0.9761 -0.3374
H62 H 0.2809 0.9723 -0.3116
H63 H 0.2387 0.9009 -0.3281
C63 C 0.3877(2) 0.7090(2) -0.40382(19)
H64 H 0.3720 0.7053 -0.3607
H65 H 0.3460 0.6964 -0.4298
C64 C 0.4480(3) 0.6538(2) -0.4149(2)
H66 H 0.4884 0.6629 -0.3865
H67 H 0.4664 0.6588 -0.4572
C65 C 0.4197(3) 0.5771(2) -0.4052(2)
H68 H 0.3776 0.5689 -0.4319
H69 H 0.4040 0.5713 -0.3623
C66 C 0.4790(4) 0.5214(3) -0.4200(3)
H70 H 0.4594 0.4736 -0.4144
H71 H 0.5200 0.5282 -0.3924
H72 H 0.4948 0.5272 -0.4624
C67 C 0.4718(2) 0.8117(2) -0.37529(19)
H73 H 0.5153 0.7841 -0.3862
H74 H 0.4822 0.8623 -0.3836
C68 C 0.4568(3) 0.8025(4) -0.3058(2)
H75 H 0.4045 0.8069 -0.2984
H76 H 0.4717 0.7543 -0.2932
C69 C 0.4965(4) 0.8568(4) -0.2667(3)
H77 H 0.4825 0.9053 -0.2794
H78 H 0.5490 0.8517 -0.2727
C70 C 0.4774(5) 0.8455(5) -0.1978(3)
H79 H 0.5028 0.8807 -0.1730
H80 H 0.4921 0.7978 -0.1852
H81 H 0.4254 0.8509 -0.1920
N1 N 0.40839(18) 0.78760(17) -0.41697(14)
C71 C 0.7218(5) 0.7255(5) -0.2345(3)
H82 H 0.6904 0.7196 -0.1989
H83 H 0.7511 0.7682 -0.2294
H84 H 0.7534 0.6841 -0.2384
C72 C 0.6779(4) 0.7323(4) -0.2896(3)
N2 N 0.6404(4) 0.7324(4) -0.3335(3)
loop_
_geom_bond_atom_site_label_1
_geom_bond_atom_site_label_2
_geom_bond_site_symmetry_1
_geom_bond_site_symmetry_2
C1 C2 1_555 1_555
C2 H1 1_555 1_555
C3 C2 1_555 1_555
H2 C3 1_555 1_555
C4 C3 1_555 1_555
H3 C4 1_555 1_555
C5 C4 1_555 1_555
H4 C5 1_555 1_555
C6 C1 1_555 1_555
H5 C6 1_555 1_555
C7 C8 1_555 1_555
C8 H6 1_555 1_555
C9 C8 1_555 1_555
H7 C9 1_555 1_555
C10 C9 1_555 1_555
H8 C10 1_555 1_555
C11 C10 1_555 1_555
H9 C11 1_555 1_555
C12 C7 1_555 1_555
H10 C12 1_555 1_555
C13 C14 1_555 1_555
C14 H11 1_555 1_555
C15 C14 1_555 1_555
H12 C15 1_555 1_555
C16 C15 1_555 1_555
H13 C16 1_555 1_555
C17 C16 1_555 1_555
H14 C17 1_555 1_555
C18 C13 1_555 1_555
H15 C18 1_555 1_555
C19 C20 1_555 1_555
C20 H16 1_555 1_555
C21 C20 1_555 1_555
H17 C21 1_555 1_555
C22 C21 1_555 1_555
H18 C22 1_555 1_555
C23 C22 1_555 1_555
H19 C23 1_555 1_555
C24 C19 1_555 1_555
H20 C24 1_555 1_555
C25 C26 1_555 1_555
C26 H21 1_555 1_555
C27 C26 1_555 1_555
H22 C27 1_555 1_555
C28 C27 1_555 1_555
H23 C28 1_555 1_555
C29 C28 1_555 1_555
H24 C29 1_555 1_555
C30 C25 1_555 1_555
H25 C30 1_555 1_555
C31 C32 1_555 1_555
C32 H26 1_555 1_555
C33 C32 1_555 1_555
H27 C33 1_555 1_555
C34 C33 1_555 1_555
H28 C34 1_555 1_555
C35 C34 1_555 1_555
H29 C35 1_555 1_555
C36 C31 1_555 1_555
H30 C36 1_555 1_555
C37 C38 1_555 1_555
C38 H31 1_555 1_555
C39 C38 1_555 1_555
H32 C39 1_555 1_555
C40 C39 1_555 1_555
H33 C40 1_555 1_555
C41 C40 1_555 1_555
H34 C41 1_555 1_555
C42 C37 1_555 1_555
H35 C42 1_555 1_555
C43 C44 1_555 1_555
C44 H36 1_555 1_555
C45 C44 1_555 1_555
H37 C45 1_555 1_555
C46 C45 1_555 1_555
H38 C46 1_555 1_555
C47 C46 1_555 1_555
H39 C47 1_555 1_555
C48 C43 1_555 1_555
H40 C48 1_555 1_555
C49 C50 1_555 1_555
C50 H41 1_555 1_555
C51 C50 1_555 1_555
H42 C51 1_555 1_555
C52 C51 1_555 1_555
H43 C52 1_555 1_555
C53 C52 1_555 1_555
H44 C53 1_555 1_555
C54 C49 1_555 1_555
H45 C54 1_555 1_555
C55 H46 1_555 1_555
H47 C55 1_555 1_555
C56 C55 1_555 1_555
H48 C56 1_555 1_555
H49 C56 1_555 1_555
C57 C56 1_555 1_555
H50 C57 1_555 1_555
H51 C57 1_555 1_555
C58 C57 1_555 1_555
H52 C58 1_555 1_555
H53 C58 1_555 1_555
H54 C58 1_555 1_555
C59 H55 1_555 1_555
H56 C59 1_555 1_555
C60 C59 1_555 1_555
H57 C60 1_555 1_555
H58 C60 1_555 1_555
C61 C60 1_555 1_555
H59 C61 1_555 1_555
H60 C61 1_555 1_555
C62 C61 1_555 1_555
H61 C62 1_555 1_555
H62 C62 1_555 1_555
H63 C62 1_555 1_555
C63 H64 1_555 1_555
H65 C63 1_555 1_555
C64 C63 1_555 1_555
H66 C64 1_555 1_555
H67 C64 1_555 1_555
C65 C64 1_555 1_555
H68 C65 1_555 1_555
H69 C65 1_555 1_555
C66 C65 1_555 1_555
H70 C66 1_555 1_555
H71 C66 1_555 1_555
H72 C66 1_555 1_555
C67 H73 1_555 1_555
H74 C67 1_555 1_555
C68 C67 1_555 1_555
H75 C68 1_555 1_555
H76 C68 1_555 1_555
C69 C68 1_555 1_555
H77 C69 1_555 1_555
H78 C69 1_555 1_555
C70 C69 1_555 1_555
H79 C70 1_555 1_555
H80 C70 1_555 1_555
H81 C70 1_555 1_555
C71 H82 1_555 1_555
H83 C71 1_555 1_555
H84 C71 1_555 1_555
C72 C71 1_555 1_555
N1 C55 1_555 1_555
N2 C72 1_555 1_555
Sn1 C1 1_555 1_555
Sn2 C19 1_555 1_555
Sn3 C37 1_555 1_555
Mo1 O1 1_555 1_555
Mo2 O4 1_555 1_555
O1 Sn1 1_555 1_555
O2 Sn2 1_555 1_555
O3 Sn3 1_555 1_555
O4 Sn1 1_555 1_555
O5 Mo1 1_555 1_555
O6 Sn2 1_555 1_555
O7 Mo2 1_555 1_555
O8 Sn3 1_555 1_555
O6A Mo2 1_555 1_555
O8C Mo2 1_555 1_555
Mo2A O6 1_555 1_555
Mo2C O8 1_555 1_555
C5 C6 1_555 1_555
C7 Sn1 1_555 1_555
C11 C12 1_555 1_555
C13 Sn1 1_555 1_555
C17 C18 1_555 1_555
C23 C24 1_555 1_555
C25 Sn2 1_555 1_555
C29 C30 1_555 1_555
C31 Sn2 1_555 1_555
C35 C36 1_555 1_555
C41 C42 1_555 1_555
C43 Sn3 1_555 1_555
C47 C48 1_555 1_555
C49 Sn3 1_555 1_555
C53 C54 1_555 1_555
C59 N1 1_555 1_555
C63 N1 1_555 1_555
C67 N1 1_555 1_555
Mo1 O2 1_555 1_555
Mo1 O3 1_555 1_555

#END
