
#######################################################################
#
#                 Cambridge Crystallographic Data Centre
#                                CCDC 
#
#######################################################################
#
# If this CIF has been generated from an entry in the Cambridge 
# Structural Database, then it will include bibliographic, chemical, 
# crystal, experimental, refinement or atomic coordinate data resulting 
# from the CCDC's data processing and validation procedures.
#
#######################################################################

data_IPAVOK
_symmetry_cell_setting           monoclinic
_symmetry_space_group_name_H-M   'C c'
_symmetry_Int_Tables_number      9
_space_group_name_Hall           'C -2yc'
loop_
_symmetry_equiv_pos_site_id
_symmetry_equiv_pos_as_xyz
1 x,y,z
2 x,-y,1/2+z
3 1/2+x,1/2+y,z
4 1/2+x,1/2-y,1/2+z
_cell_length_a                   14.295(4)
_cell_length_b                   22.922(3)
_cell_length_c                   22.697(5)
_cell_angle_alpha                90
_cell_angle_beta                 107.42(3)
_cell_angle_gamma                90
_cell_volume                     7096.03
loop_
_atom_site_label
_atom_site_type_symbol
_atom_site_fract_x
_atom_site_fract_y
_atom_site_fract_z
C1 C -0.8705(7) -0.3848(5) -0.4276(4)
C2 C -0.9632(8) -0.4021(5) -0.4678(5)
H1 H -0.9682 -0.4161 -0.5071
C3 C -1.0444(9) -0.3981(6) -0.4487(5)
H2 H -1.1052 -0.4084 -0.4755
C4 C -1.0373(9) -0.3790(6) -0.3902(6)
H3 H -1.0931 -0.3779 -0.3772
C5 C -0.9488(10) -0.3614(6) -0.3505(6)
H4 H -0.9450 -0.3479 -0.3112
C6 C -0.8678(8) -0.3639(5) -0.3689(4)
H5 H -0.8083 -0.3514 -0.3420
C7 C -0.6590(8) -0.3171(5) -0.4691(5)
C8 C -0.5597(9) -0.3084(6) -0.4352(5)
H6 H -0.5306 -0.3355 -0.4047
C9 C -0.5045(10) -0.2640(6) -0.4438(7)
H7 H -0.4399 -0.2597 -0.4193
C10 C -0.5473(10) -0.2245(6) -0.4907(7)
H8 H -0.5100 -0.1938 -0.4984
C11 C -0.6448(10) -0.2301(5) -0.5262(6)
H9 H -0.6725 -0.2030 -0.5569
C12 C -0.6997(8) -0.2755(5) -0.5159(5)
H10 H -0.7648 -0.2791 -0.5399
C13 C -0.6967(8) -0.4778(5) -0.4750(4)
C14 C -0.7613(8) -0.5147(5) -0.5188(5)
H11 H -0.8224 -0.5008 -0.5419
C15 C -0.7339(9) -0.5720(5) -0.5276(5)
H12 H -0.7764 -0.5957 -0.5569
C16 C -0.6455(10) -0.5929(5) -0.4935(6)
H13 H -0.6288 -0.6314 -0.4985
C17 C -0.5796(9) -0.5573(6) -0.4512(6)
H14 H -0.5176 -0.5712 -0.4299
C18 C -0.6062(7) -0.5012(5) -0.4408(5)
H15 H -0.5632 -0.4786 -0.4106
C19 C -0.8078(9) -0.4318(5) -0.1924(5)
C20 C -0.9017(10) -0.4317(6) -0.1846(5)
H16 H -0.9359 -0.4667 -0.1878
C21 C -0.9449(10) -0.3804(7) -0.1720(6)
H17 H -1.0063 -0.3813 -0.1658
C22 C -0.8946(13) -0.3283(6) -0.1691(6)
H18 H -0.9239 -0.2939 -0.1619
C23 C -0.8046(13) -0.3259(6) -0.1765(6)
H19 H -0.7725 -0.2903 -0.1744
C24 C -0.7606(10) -0.3765(5) -0.1872(5)
H20 H -0.6978 -0.3745 -0.1912
C25 C -0.7880(8) -0.5579(5) -0.2914(5)
C26 C -0.8230(12) -0.5324(7) -0.3487(6)
H21 H -0.8277 -0.4920 -0.3516
C27 C -0.8517(16) -0.5658(9) -0.4024(7)
H22 H -0.8755 -0.5475 -0.4406
C28 C -0.8450(13) -0.6239(9) -0.3992(8)
H23 H -0.8630 -0.6455 -0.4356
C29 C -0.8124(10) -0.6523(7) -0.3440(7)
H24 H -0.8098 -0.6929 -0.3424
C30 C -0.7835(8) -0.6196(5) -0.2908(6)
H25 H -0.7600 -0.6387 -0.2531
C31 C -0.6194(8) -0.5435(5) -0.1356(5)
C32 C -0.6111(9) -0.6037(5) -0.1191(5)
H26 H -0.6585 -0.6298 -0.1412
C33 C -0.5340(9) -0.6238(6) -0.0711(6)
H27 H -0.5306 -0.6632 -0.0608
C34 C -0.4640(11) -0.5874(7) -0.0387(7)
H28 H -0.4121 -0.6016 -0.0066
C35 C -0.4690(11) -0.5296(7) -0.0533(7)
H29 H -0.4202 -0.5046 -0.0305
C36 C -0.5438(9) -0.5073(6) -0.1003(5)
H30 H -0.5448 -0.4677 -0.1092
C37 C -0.4647(7) -0.2894(4) -0.1132(5)
C38 C -0.4350(8) -0.3451(5) -0.0893(5)
H31 H -0.4223 -0.3735 -0.1153
C39 C -0.4241(9) -0.3588(5) -0.0291(5)
H32 H -0.4028 -0.3958 -0.0142
C40 C -0.4447(8) -0.3180(5) 0.0091(5)
H33 H -0.4370 -0.3277 0.0501
C41 C -0.4760(7) -0.2635(5) -0.0113(5)
H34 H -0.4909 -0.2367 0.0153
C42 C -0.4857(8) -0.2481(5) -0.0717(5)
H35 H -0.5060 -0.2106 -0.0854
C43 C -0.3355(8) -0.2873(4) -0.2285(5)
C44 C -0.3357(9) -0.3252(6) -0.2782(6)
H36 H -0.3943 -0.3426 -0.3008
C45 C -0.2529(10) -0.3367(7) -0.2936(7)
H37 H -0.2552 -0.3615 -0.3265
C46 C -0.1651(9) -0.3117(6) -0.2603(7)
H38 H -0.1085 -0.3198 -0.2710
C47 C -0.1603(10) -0.2755(6) -0.2122(7)
H39 H -0.1005 -0.2592 -0.1899
C48 C -0.2430(8) -0.2629(5) -0.1964(6)
H40 H -0.2386 -0.2375 -0.1636
C49 C -0.5748(8) -0.2231(4) -0.2755(5)
C50 C -0.6712(7) -0.2433(5) -0.2981(5)
H41 H -0.6921 -0.2733 -0.2774
C51 C -0.7363(9) -0.2196(5) -0.3509(6)
H42 H -0.8006 -0.2329 -0.3649
C52 C -0.7046(9) -0.1764(6) -0.3819(5)
H43 H -0.7473 -0.1621 -0.4185
C53 C -0.6100(10) -0.1529(6) -0.3604(5)
H44 H -0.5903 -0.1222 -0.3809
C54 C -0.5475(8) -0.1770(5) -0.3079(5)
H45 H -0.4843 -0.1621 -0.2930
O1 O -0.6493(5) -0.3983(3) -0.3579(3)
O2 O -0.6388(6) -0.4586(3) -0.2436(3)
O3 O -0.5318(5) -0.3516(3) -0.2395(3)
O4 O -0.4757(5) -0.4547(3) -0.2879(4)
O5 O -0.8332(6) -0.3851(3) -0.5545(3)
O6 O -0.8404(6) -0.5613(3) -0.1709(3)
O7 O -1.0124(5) -0.4104(4) -0.6424(3)
O8 O -0.3989(5) -0.1811(3) -0.1683(3)
Mo1 Mo -0.57456(5) -0.41593(4) -0.28293(4)
Mo2 Mo -0.89670(5) -0.38816(4) -0.63436(3)
Sn1 Sn -0.74048(5) -0.39178(3) -0.45695(3)
Sn2 Sn -0.73927(6) -0.50995(3) -0.20718(4)
Sn3 Sn -0.46406(4) -0.26663(3) -0.20495(3)
Mo2A Mo -0.89670(5) -0.61184(4) -0.13436(3)
Mo2C Mo -0.39670(5) -0.11184(4) -0.13436(3)
O6A O -0.8404(6) -0.4387(3) -0.6709(3)
O8C O -0.8989(5) -0.3189(3) -0.6683(3)
C55 C -1.4046(8) -0.4098(6) -0.7339(5)
H46 H -1.4367 -0.4038 -0.7023
H47 H -1.4338 -0.4440 -0.7574
C56 C -1.4261(8) -0.3569(6) -0.7775(6)
H48 H -1.3928 -0.3228 -0.7557
H49 H -1.4014 -0.3642 -0.8122
C57 C -1.5368(8) -0.3454(6) -0.8009(6)
H50 H -1.5704 -0.3806 -0.8197
H51 H -1.5604 -0.3351 -0.7664
C58 C -1.5593(10) -0.2968(7) -0.8475(7)
H52 H -1.5205 -0.2632 -0.8303
H53 H -1.6276 -0.2870 -0.8578
H54 H -1.5441 -0.3091 -0.8840
C59 C -1.2441(8) -0.3713(5) -0.6605(6)
H55 H -1.1765 -0.3823 -0.6404
H56 H -1.2431 -0.3381 -0.6868
C60 C -1.2892(10) -0.3523(6) -0.6116(7)
H57 H -1.2970 -0.3858 -0.5874
H58 H -1.3536 -0.3358 -0.6310
C61 C -1.2234(10) -0.3067(6) -0.5694(6)
H59 H -1.1592 -0.3236 -0.5506
H60 H -1.2153 -0.2738 -0.5943
C62 C -1.2643(12) -0.2847(8) -0.5182(7)
H61 H -1.3301 -0.2709 -0.5362
H62 H -1.2240 -0.2535 -0.4962
H63 H -1.2644 -0.3161 -0.4902
C63 C -1.2391(8) -0.4320(6) -0.7487(5)
H64 H -1.2396 -0.3956 -0.7706
H65 H -1.1714 -0.4404 -0.7259
C64 C -1.2757(10) -0.4801(7) -0.7963(7)
H66 H -1.2788 -0.5163 -0.7749
H67 H -1.3418 -0.4706 -0.8214
C65 C -1.2926(9) -0.4774(6) -0.6635(6)
H68 H -1.3312 -0.4705 -0.6355
H69 H -1.3241 -0.5088 -0.6911
C66 C -1.1930(12) -0.4978(7) -0.6262(8)
H70 H -1.1584 -0.4661 -0.6004
H71 H -1.1556 -0.5092 -0.6537
C67 C -1.2015(13) -0.5505(7) -0.5850(10)
H72 H -1.2508 -0.5419 -0.5648
H73 H -1.2232 -0.5844 -0.6110
C68 C -1.1138(19) -0.5635(8) -0.5405(11)
H74 H -1.1231 -0.5962 -0.5164
H75 H -1.0925 -0.5304 -0.5140
H76 H -1.0649 -0.5730 -0.5602
N1 N -1.2958(6) -0.4225(4) -0.7019(4)
C69 C -1.2126(12) -0.4895(7) -0.8386(7)
C70 C -1.1054(18) -0.4992(13) -0.8082(13)
C71? C -1.266(3) -0.5183(17) -0.8942(16)
loop_
_geom_bond_atom_site_label_1
_geom_bond_atom_site_label_2
_geom_bond_site_symmetry_1
_geom_bond_site_symmetry_2
C1 C2 1_555 1_555
C2 H1 1_555 1_555
C3 C2 1_555 1_555
H2 C3 1_555 1_555
C4 C3 1_555 1_555
H3 C4 1_555 1_555
C5 C4 1_555 1_555
H4 C5 1_555 1_555
C6 C1 1_555 1_555
H5 C6 1_555 1_555
C7 C8 1_555 1_555
C8 H6 1_555 1_555
C9 C8 1_555 1_555
H7 C9 1_555 1_555
C10 C9 1_555 1_555
H8 C10 1_555 1_555
C11 C10 1_555 1_555
H9 C11 1_555 1_555
C12 C7 1_555 1_555
H10 C12 1_555 1_555
C13 C14 1_555 1_555
C14 H11 1_555 1_555
C15 C14 1_555 1_555
H12 C15 1_555 1_555
C16 C15 1_555 1_555
H13 C16 1_555 1_555
C17 C16 1_555 1_555
H14 C17 1_555 1_555
C18 C13 1_555 1_555
H15 C18 1_555 1_555
C19 C20 1_555 1_555
C20 H16 1_555 1_555
C21 C20 1_555 1_555
H17 C21 1_555 1_555
C22 C21 1_555 1_555
H18 C22 1_555 1_555
C23 C22 1_555 1_555
H19 C23 1_555 1_555
C24 C19 1_555 1_555
H20 C24 1_555 1_555
C25 C26 1_555 1_555
C26 H21 1_555 1_555
C27 C26 1_555 1_555
H22 C27 1_555 1_555
C28 C27 1_555 1_555
H23 C28 1_555 1_555
C29 C28 1_555 1_555
H24 C29 1_555 1_555
C30 C25 1_555 1_555
H25 C30 1_555 1_555
C31 C32 1_555 1_555
C32 H26 1_555 1_555
C33 C32 1_555 1_555
H27 C33 1_555 1_555
C34 C33 1_555 1_555
H28 C34 1_555 1_555
C35 C34 1_555 1_555
H29 C35 1_555 1_555
C36 C31 1_555 1_555
H30 C36 1_555 1_555
C37 C38 1_555 1_555
C38 H31 1_555 1_555
C39 C38 1_555 1_555
H32 C39 1_555 1_555
C40 C39 1_555 1_555
H33 C40 1_555 1_555
C41 C40 1_555 1_555
H34 C41 1_555 1_555
C42 C37 1_555 1_555
H35 C42 1_555 1_555
C43 C44 1_555 1_555
C44 H36 1_555 1_555
C45 C44 1_555 1_555
H37 C45 1_555 1_555
C46 C45 1_555 1_555
H38 C46 1_555 1_555
C47 C46 1_555 1_555
H39 C47 1_555 1_555
C48 C43 1_555 1_555
H40 C48 1_555 1_555
C49 C50 1_555 1_555
C50 H41 1_555 1_555
C51 C50 1_555 1_555
H42 C51 1_555 1_555
C52 C51 1_555 1_555
H43 C52 1_555 1_555
C53 C52 1_555 1_555
H44 C53 1_555 1_555
C54 C49 1_555 1_555
H45 C54 1_555 1_555
C55 H46 1_555 1_555
H47 C55 1_555 1_555
C56 C55 1_555 1_555
H48 C56 1_555 1_555
H49 C56 1_555 1_555
C57 C56 1_555 1_555
H50 C57 1_555 1_555
H51 C57 1_555 1_555
C58 C57 1_555 1_555
H52 C58 1_555 1_555
H53 C58 1_555 1_555
H54 C58 1_555 1_555
C59 H55 1_555 1_555
H56 C59 1_555 1_555
C60 C59 1_555 1_555
H57 C60 1_555 1_555
H58 C60 1_555 1_555
C61 C60 1_555 1_555
H59 C61 1_555 1_555
H60 C61 1_555 1_555
C62 C61 1_555 1_555
H61 C62 1_555 1_555
H62 C62 1_555 1_555
H63 C62 1_555 1_555
C63 H64 1_555 1_555
H65 C63 1_555 1_555
C64 C63 1_555 1_555
H66 C64 1_555 1_555
H67 C64 1_555 1_555
C65 H68 1_555 1_555
H69 C65 1_555 1_555
C66 C65 1_555 1_555
H70 C66 1_555 1_555
H71 C66 1_555 1_555
C67 C66 1_555 1_555
H72 C67 1_555 1_555
H73 C67 1_555 1_555
C68 C67 1_555 1_555
H74 C68 1_555 1_555
H75 C68 1_555 1_555
H76 C68 1_555 1_555
O1 Mo1 1_555 1_555
O2 Mo1 1_555 1_555
O3 Mo1 1_555 1_555
O4 Mo1 1_555 1_555
O5 Mo2 1_555 1_555
O6 Sn2 1_555 1_555
O7 Mo2 1_555 1_555
O8 Sn3 1_555 1_555
Mo2 O6A 1_555 1_555
Sn1 C1 1_555 1_555
Sn2 C19 1_555 1_555
Sn3 C37 1_555 1_555
N1 C55 1_555 1_555
C69 C64 1_555 1_555
C70 C69 1_555 1_555
Mo2A O6 1_555 1_555
Mo2C O8 1_555 1_555
O8C Mo2 1_555 1_555
C5 C6 1_555 1_555
C7 Sn1 1_555 1_555
C11 C12 1_555 1_555
C13 Sn1 1_555 1_555
C17 C18 1_555 1_555
C23 C24 1_555 1_555
C25 Sn2 1_555 1_555
C29 C30 1_555 1_555
C31 Sn2 1_555 1_555
C35 C36 1_555 1_555
C41 C42 1_555 1_555
C43 Sn3 1_555 1_555
C47 C48 1_555 1_555
C49 Sn3 1_555 1_555
C53 C54 1_555 1_555
C59 N1 1_555 1_555
C63 N1 1_555 1_555
C65 N1 1_555 1_555
O1 Sn1 1_555 1_555
O2 Sn2 1_555 1_555
O3 Sn3 1_555 1_555
O5 Sn1 1_555 1_555

#END
