
#######################################################################
#
#                 Cambridge Crystallographic Data Centre
#                                CCDC 
#
#######################################################################
#
# If this CIF has been generated from an entry in the Cambridge 
# Structural Database, then it will include bibliographic, chemical, 
# crystal, experimental, refinement or atomic coordinate data resulting 
# from the CCDC's data processing and validation procedures.
#
#######################################################################

data_IPAXUT
_symmetry_cell_setting           orthorhombic
_symmetry_space_group_name_H-M   'P n m a'
_symmetry_Int_Tables_number      62
_space_group_name_Hall           '-P 2ac 2n'
loop_
_symmetry_equiv_pos_site_id
_symmetry_equiv_pos_as_xyz
1 x,y,z
2 1/2-x,-y,1/2+z
3 1/2+x,1/2-y,1/2-z
4 -x,1/2+y,-z
5 -x,-y,-z
6 1/2+x,y,1/2-z
7 1/2-x,1/2+y,1/2+z
8 x,1/2-y,z
_cell_length_a                   14.8927(16)
_cell_length_b                   6.5953(7)
_cell_length_c                   11.0467(12)
_cell_angle_alpha                90
_cell_angle_beta                 90
_cell_angle_gamma                90
_cell_volume                     1085.03
loop_
_atom_site_label
_atom_site_type_symbol
_atom_site_fract_x
_atom_site_fract_y
_atom_site_fract_z
Mn1 Mn 0.5000 0.0000 1.0000
C1 C 0.3046(7) 0.2500 1.3332(11)
H1 H 0.3260 0.2500 1.2512
H2 H 0.2689 0.3688 1.3470
C2 C 0.3669(9) 0.2500 1.5376(9)
H3 H 0.3081 0.2500 1.5661
C3 C 0.4354(10) 0.2500 1.6172(9)
H4 H 0.4237 0.2500 1.6999
C4 C 0.5238(8) 0.2500 1.5760(9)
H5 H 0.5719 0.2500 1.6297
C5 C 0.5371(7) 0.2500 1.4534(8)
H6 H 0.5954 0.2500 1.4232
C6 C 0.4659(6) 0.2500 1.3736(7)
C7 C 0.4802(6) 0.2500 1.2375(8)
N1 N 0.4035(5) 0.2500 0.9559(7)
N2 N 0.3266(6) 0.2500 0.9836(8)
N3 N 0.2527(7) 0.2500 1.0122(12)
N4 N 0.5989(6) 0.2500 0.9696(7)
N5 N 0.6437(5) 0.2500 0.8783(8)
N6 N 0.6888(7) 0.2500 0.7933(9)
N7 N 0.3821(5) 0.2500 1.4172(7)
O1 O 0.4862(4) 0.0808(7) 1.1903(4)
Mn1C Mn 0.5000 0.5000 1.0000
H2G H 0.2689 0.1312 1.3470
N1C N 0.5965(5) -0.2500 1.0441(7)
N4C N 0.4011(6) -0.2500 1.0304(7)
O1G O 0.4862(4) 0.4192(7) 1.1903(4)
O1D O 0.5138(4) -0.0808(7) 0.8097(4)
loop_
_geom_bond_atom_site_label_1
_geom_bond_atom_site_label_2
_geom_bond_site_symmetry_1
_geom_bond_site_symmetry_2
Mn1 N1 1_555 1_555
C1 H1 1_555 1_555
H2 C1 1_555 1_555
C2 H3 1_555 1_555
C3 C2 1_555 1_555
H4 C3 1_555 1_555
C4 C3 1_555 1_555
H5 C4 1_555 1_555
C5 C4 1_555 1_555
H6 C5 1_555 1_555
C6 C5 1_555 1_555
C7 C6 1_555 1_555
N1 N2 1_555 1_555
N2 N3 1_555 1_555
N4 Mn1 1_555 1_555
N5 N4 1_555 1_555
N6 N5 1_555 1_555
N7 C1 1_555 1_555
O1 Mn1 1_555 1_555
Mn1C N1 1_555 1_555
H2G C1 1_555 1_555
N1C Mn1 1_555 1_555
N4C Mn1 1_555 1_555
O1G C7 1_555 1_555
O1D Mn1 1_555 1_555
C2 N7 1_555 1_555
C6 N7 1_555 1_555
C7 O1 1_555 1_555
N4 Mn1C 1_555 1_555
Mn1C O1G 1_555 1_555

#END
