
#######################################################################
#
#                 Cambridge Crystallographic Data Centre
#                                CCDC 
#
#######################################################################
#
# If this CIF has been generated from an entry in the Cambridge 
# Structural Database, then it will include bibliographic, chemical, 
# crystal, experimental, refinement or atomic coordinate data resulting 
# from the CCDC's data processing and validation procedures.
#
#######################################################################

data_IPAYAA
_symmetry_cell_setting           triclinic
_symmetry_space_group_name_H-M   'P -1'
_symmetry_Int_Tables_number      2
_space_group_name_Hall           '-P 1'
loop_
_symmetry_equiv_pos_site_id
_symmetry_equiv_pos_as_xyz
1 x,y,z
2 -x,-y,-z
_cell_length_a                   6.3292(11)
_cell_length_b                   8.5626(15)
_cell_length_c                   10.7136(19)
_cell_angle_alpha                106.638(5)
_cell_angle_beta                 104.302(5)
_cell_angle_gamma                96.172(5)
_cell_volume                     529.039
loop_
_atom_site_label
_atom_site_type_symbol
_atom_site_fract_x
_atom_site_fract_y
_atom_site_fract_z
Co1 Co 0.0000 1.0000 1.0000
Co2 Co 0.5000 1.0000 1.0000
C1 C -0.1122(12) 0.5524(10) 0.1643(6)
H1 H -0.2527 0.5752 0.1222
H2 H -0.1223 0.4345 0.1430
H3 H 0.0001 0.5962 0.1307
C2 C -0.1891(11) 0.7213(8) 0.3687(7)
H4 H -0.3184 0.7355 0.3128
C3 C -0.1376(10) 0.7915(8) 0.5061(6)
H5 H -0.2340 0.8504 0.5442
C4 C 0.0580(9) 0.7752(7) 0.5891(6)
C5 C 0.1992(10) 0.6869(8) 0.5287(6)
H6 H 0.3343 0.6776 0.5822
C6 C 0.1390(10) 0.6148(8) 0.3916(6)
H7 H 0.2316 0.5534 0.3516
C7 C 0.1251(8) 0.8515(7) 0.7430(5)
N1 N 0.3567(11) 0.8686(9) 1.2893(7)
N2 N 0.3070(8) 0.8703(6) 1.1776(5)
N3 N 0.2558(8) 0.8704(6) 1.0633(5)
N4 N 0.2782(7) 1.1750(6) 1.0092(5)
N5 N 0.3389(8) 1.3055(7) 1.0984(6)
N6 N 0.3979(11) 1.4321(9) 1.1830(8)
N7 N -0.0535(8) 0.6311(6) 0.3130(5)
O1 O 0.3269(6) 0.8759(5) 0.8003(4)
O2 O -0.0299(6) 0.8810(6) 0.7950(4)
Co2_2 Co -0.5000 1.0000 1.0000
C1A C 0.1122(12) 1.4476(10) 1.8357(6)
H1A H 0.2527 1.4248 1.8778
H2A H 0.1223 1.5655 1.8570
H3A H -0.0001 1.4038 1.8693
C2A C 0.1891(11) 1.2787(8) 1.6313(7)
H4A H 0.3184 1.2645 1.6872
C3A C 0.1376(10) 1.2085(8) 1.4939(6)
H5A H 0.2340 1.1496 1.4558
C4A C -0.0580(9) 1.2248(7) 1.4109(6)
C5A C -0.1992(10) 1.3131(8) 1.4713(6)
H6A H -0.3343 1.3224 1.4178
C6A C -0.1390(10) 1.3852(8) 1.6084(6)
H7A H -0.2316 1.4466 1.6484
C7A C -0.1251(8) 1.1485(7) 1.2570(5)
N1A N -0.3567(11) 1.1314(9) 0.7107(7)
N2A N -0.3070(8) 1.1297(6) 0.8224(5)
N3A N -0.2558(8) 1.1296(6) 0.9367(5)
N3A_2 N 0.7442(8) 1.1296(6) 0.9367(5)
N4A N -0.2782(7) 0.8250(6) 0.9908(5)
N4A_2 N 0.7218(7) 0.8250(6) 0.9908(5)
N5A N -0.3389(8) 0.6945(7) 0.9016(6)
N6A N -0.3979(11) 0.5679(9) 0.8170(8)
N7A N 0.0535(8) 1.3689(6) 1.6870(5)
O1A O -0.3269(6) 1.1241(5) 1.1997(4)
O1A_2 O 0.6731(6) 1.1241(5) 1.1997(4)
O2A O 0.0299(6) 1.1190(6) 1.2050(4)
loop_
_geom_bond_atom_site_label_1
_geom_bond_atom_site_label_2
_geom_bond_site_symmetry_1
_geom_bond_site_symmetry_2
Co1 N3 1_555 1_555
Co2 N3 1_555 1_555
C1 H1 1_555 1_555
H2 C1 1_555 1_555
H3 C1 1_555 1_555
C2 H4 1_555 1_555
C3 C2 1_555 1_555
H5 C3 1_555 1_555
C4 C3 1_555 1_555
C5 C4 1_555 1_555
H6 C5 1_555 1_555
C6 C5 1_555 1_555
H7 C6 1_555 1_555
C7 C4 1_555 1_555
N1 N2 1_555 1_555
N2 N3 1_555 1_555
N4 Co1 1_555 1_555
N5 N4 1_555 1_555
N6 N5 1_555 1_555
N7 C1 1_555 1_555
O1 Co2 1_555 1_555
O2 Co1 1_555 1_555
Co2_2 N3A 1_555 1_555
C1A H1A 1_555 1_555
H2A C1A 1_555 1_555
H3A C1A 1_555 1_555
C2A H4A 1_555 1_555
C3A C2A 1_555 1_555
H5A C3A 1_555 1_555
C4A C3A 1_555 1_555
C5A C4A 1_555 1_555
H6A C5A 1_555 1_555
C6A C5A 1_555 1_555
H7A C6A 1_555 1_555
C7A C4A 1_555 1_555
N1A N2A 1_555 1_555
N2A N3A 1_555 1_555
N3A Co1 1_555 1_555
N3A_2 Co2 1_555 1_555
N4A Co1 1_555 1_555
N4A_2 Co2 1_555 1_555
N5A N4A 1_555 1_555
N6A N5A 1_555 1_555
N7A C1A 1_555 1_555
O1A Co2_2 1_555 1_555
O1A_2 Co2 1_555 1_555
O2A Co1 1_555 1_555
Co2 N4 1_555 1_555
C2 N7 1_555 1_555
C6 N7 1_555 1_555
C7 O1 1_555 1_555
C7 O2 1_555 1_555
Co2_2 N4A 1_555 1_555
C2A N7A 1_555 1_555
C6A N7A 1_555 1_555
C7A O1A 1_555 1_555
C7A O2A 1_555 1_555

#END
