
#######################################################################
#
#                 Cambridge Crystallographic Data Centre
#                                CCDC 
#
#######################################################################
#
# If this CIF has been generated from an entry in the Cambridge 
# Structural Database, then it will include bibliographic, chemical, 
# crystal, experimental, refinement or atomic coordinate data resulting 
# from the CCDC's data processing and validation procedures.
#
#######################################################################

data_IPAYII
_symmetry_cell_setting           triclinic
_symmetry_space_group_name_H-M   'P -1'
_symmetry_Int_Tables_number      2
_space_group_name_Hall           '-P 1'
loop_
_symmetry_equiv_pos_site_id
_symmetry_equiv_pos_as_xyz
1 x,y,z
2 -x,-y,-z
_cell_length_a                   8.8417(15)
_cell_length_b                   9.2752(16)
_cell_length_c                   10.7998(16)
_cell_angle_alpha                112.244(5)
_cell_angle_beta                 92.773(6)
_cell_angle_gamma                113.302(6)
_cell_volume                     732.164
loop_
_atom_site_label
_atom_site_type_symbol
_atom_site_fract_x
_atom_site_fract_y
_atom_site_fract_z
Co1 Co 0.0000 0.0000 0.0000
Co2 Co -0.38025(7) -0.09108(7) 0.01486(6)
C1 C -0.2060(7) 0.2167(8) -0.5007(6)
H1 H -0.2830 0.1691 -0.4511
H2 H -0.1938 0.3310 -0.4821
H3 H -0.2497 0.1427 -0.5975
C2 C -0.0183(5) 0.1776(6) -0.3592(4)
H4 H -0.1082 0.1360 -0.3207
C3 C 0.0884(6) 0.2905(6) -0.5129(5)
H5 H 0.0714 0.3257 -0.5802
C4 C 0.2436(7) 0.3030(7) -0.4717(5)
H6 H 0.3323 0.3473 -0.5104
C5 C 0.2680(6) 0.2498(6) -0.3728(5)
H7 H 0.3727 0.2562 -0.3453
C6 C 0.1362(5) 0.1869(5) -0.3150(4)
C7 C 0.1546(5) 0.1261(6) -0.2057(4)
C8 C -0.6865(10) -0.4059(10) 0.0342(7)
H8 H -0.7773 -0.5201 -0.0202
H9 H -0.7321 -0.3291 0.0847
H10 H -0.6115 -0.4119 0.0973
N1 N -0.1432(5) 0.1395(5) 0.0740(4)
N2 N -0.1145(5) 0.2751(5) 0.1621(4)
N3 N -0.0938(8) 0.4067(7) 0.2469(6)
N4 N 0.2446(5) 0.2019(5) 0.1113(4)
N5 N 0.2917(4) 0.3370(5) 0.2086(4)
N6 N 0.3349(6) 0.4659(6) 0.3029(5)
N7 N -0.4965(5) -0.0493(6) -0.1348(4)
N8 N -0.4516(5) -0.0459(6) -0.2363(4)
N9 N -0.4078(6) -0.0438(8) -0.3339(5)
N10 N -0.0392(5) 0.2279(5) -0.4567(4)
O1 O 0.0275(4) 0.0759(5) -0.1596(3)
O2 O 0.2981(4) 0.1346(5) -0.1737(3)
O3 O -0.5963(4) -0.3422(5) -0.0531(4)
H11 H -0.665(7) -0.356(9) -0.119(5)
Co2A Co 0.38025(7) 0.09108(7) -0.01486(6)
Co2A_2 Co -0.61975(7) 0.09108(7) -0.01486(6)
C1A C 0.2060(7) -0.2167(8) 0.5007(6)
H1A H 0.2830 -0.1691 0.4511
H2A H 0.1938 -0.3310 0.4821
H3A H 0.2497 -0.1427 0.5975
C2A C 0.0183(5) -0.1776(6) 0.3592(4)
H4A H 0.1082 -0.1360 0.3207
C3A C -0.0884(6) -0.2905(6) 0.5129(5)
H5A H -0.0714 -0.3257 0.5802
C4A C -0.2436(7) -0.3030(7) 0.4717(5)
H6A H -0.3323 -0.3473 0.5104
C5A C -0.2680(6) -0.2498(6) 0.3728(5)
H7A H -0.3727 -0.2562 0.3453
C6A C -0.1362(5) -0.1869(5) 0.3150(4)
C7A C -0.1546(5) -0.1261(6) 0.2057(4)
C8A C 0.6865(10) 0.4059(10) -0.0342(7)
H8A H 0.7773 0.5201 0.0202
H9A H 0.7321 0.3291 -0.0847
H10A H 0.6115 0.4119 -0.0973
N1A N 0.1432(5) -0.1395(5) -0.0740(4)
N2A N 0.1145(5) -0.2751(5) -0.1621(4)
N3A N 0.0938(8) -0.4067(7) -0.2469(6)
N4A N -0.2446(5) -0.2019(5) -0.1113(4)
N5A N -0.2917(4) -0.3370(5) -0.2086(4)
N6A N -0.3349(6) -0.4659(6) -0.3029(5)
N7A N -0.5035(5) 0.0493(6) 0.1348(4)
N7A_2 N 0.4965(5) 0.0493(6) 0.1348(4)
N7_2 N 0.5035(5) -0.0493(6) -0.1348(4)
N8A N -0.5484(5) 0.0459(6) 0.2363(4)
N9A N -0.5922(6) 0.0438(8) 0.3339(5)
N10A N 0.0392(5) -0.2279(5) 0.4567(4)
O1A O -0.0275(4) -0.0759(5) 0.1596(3)
O2A O -0.2981(4) -0.1346(5) 0.1737(3)
O3A O 0.5963(4) 0.3422(5) 0.0531(4)
H11A H 0.665(7) 0.356(9) 0.119(5)
loop_
_geom_bond_atom_site_label_1
_geom_bond_atom_site_label_2
_geom_bond_site_symmetry_1
_geom_bond_site_symmetry_2
Co1 N1 1_555 1_555
Co2 N1 1_555 1_555
C1 H1 1_555 1_555
H2 C1 1_555 1_555
H3 C1 1_555 1_555
C2 H4 1_555 1_555
C3 H5 1_555 1_555
C4 C3 1_555 1_555
H6 C4 1_555 1_555
C5 C4 1_555 1_555
H7 C5 1_555 1_555
C6 C2 1_555 1_555
C7 C6 1_555 1_555
C8 H8 1_555 1_555
H9 C8 1_555 1_555
H10 C8 1_555 1_555
N1 N2 1_555 1_555
N2 N3 1_555 1_555
N4 Co1 1_555 1_555
N5 N4 1_555 1_555
N6 N5 1_555 1_555
N7 Co2 1_555 1_555
N8 N7 1_555 1_555
N9 N8 1_555 1_555
N10 C1 1_555 1_555
O1 Co1 1_555 1_555
O2 C7 1_555 1_555
O3 Co2 1_555 1_555
H11 O3 1_555 1_555
Co2A N4 1_555 1_555
Co2A_2 N7 1_555 1_555
C1A H1A 1_555 1_555
H2A C1A 1_555 1_555
H3A C1A 1_555 1_555
C2A H4A 1_555 1_555
C3A H5A 1_555 1_555
C4A C3A 1_555 1_555
H6A C4A 1_555 1_555
C5A C4A 1_555 1_555
H7A C5A 1_555 1_555
C6A C2A 1_555 1_555
C7A C6A 1_555 1_555
C8A H8A 1_555 1_555
H9A C8A 1_555 1_555
H10A C8A 1_555 1_555
N1A Co1 1_555 1_555
N2A N1A 1_555 1_555
N3A N2A 1_555 1_555
N4A Co1 1_555 1_555
N5A N4A 1_555 1_555
N6A N5A 1_555 1_555
N7A Co2 1_555 1_555
N7A_2 Co2A 1_555 1_555
N7_2 Co2A 1_555 1_555
N8A N7A 1_555 1_555
N9A N8A 1_555 1_555
N10A C1A 1_555 1_555
O1A Co1 1_555 1_555
O2A Co2 1_555 1_555
O3A Co2A 1_555 1_555
H11A O3A 1_555 1_555
Co2 N4A 1_555 1_555
C2 N10 1_555 1_555
C3 N10 1_555 1_555
C5 C6 1_555 1_555
C7 O1 1_555 1_555
C8 O3 1_555 1_555
O2 Co2A 1_555 1_555
Co2A N1A 1_555 1_555
Co2A_2 N7A 1_555 1_555
C2A N10A 1_555 1_555
C3A N10A 1_555 1_555
C5A C6A 1_555 1_555
C7A O1A 1_555 1_555
C7A O2A 1_555 1_555
C8A O3A 1_555 1_555

#END
