
#######################################################################
#
#                 Cambridge Crystallographic Data Centre
#                                CCDC 
#
#######################################################################
#
# If this CIF has been generated from an entry in the Cambridge 
# Structural Database, then it will include bibliographic, chemical, 
# crystal, experimental, refinement or atomic coordinate data resulting 
# from the CCDC's data processing and validation procedures.
#
#######################################################################

data_IPAYUT
_symmetry_cell_setting           monoclinic
_symmetry_space_group_name_H-M   'P 21/c'
_symmetry_Int_Tables_number      14
_space_group_name_Hall           '-P 2ybc'
loop_
_symmetry_equiv_pos_site_id
_symmetry_equiv_pos_as_xyz
1 x,y,z
2 x,1/2-y,1/2+z
3 -x,-y,-z
4 -x,1/2+y,1/2-z
_cell_length_a                   3.8538(8)
_cell_length_b                   14.404(3)
_cell_length_c                   12.082(2)
_cell_angle_alpha                90
_cell_angle_beta                 91.377(5)
_cell_angle_gamma                90
_cell_volume                     670.48
loop_
_atom_site_label
_atom_site_type_symbol
_atom_site_fract_x
_atom_site_fract_y
_atom_site_fract_z
Cd1 Cd 0.0000 0.0000 0.0000
Cl1 Cl -0.5098(2) -0.03001(6) -0.14698(7)
Br1 Br 0.32593(11) 0.39977(3) 0.10584(3)
N1 N 0.0070(8) 0.1594(2) -0.0465(2)
C1 C 0.1369(9) 0.2230(2) 0.0244(3)
H1 H 0.2274 0.2026 0.0969
C2 C 0.1470(9) 0.3159(3) -0.0015(3)
C3 C 0.0226(11) 0.3458(3) -0.1029(3)
H2 H 0.0307 0.4117 -0.1230
C4 C -0.1129(11) 0.2814(3) -0.1752(3)
H3 H -0.2046 0.3006 -0.2481
C5 C -0.1189(10) 0.1888(3) -0.1442(3)
H4 H -0.2194 0.1432 -0.1959
Cl1_2 Cl 0.4902(2) -0.03001(6) -0.14698(7)
Br1B Br -0.32593(11) -0.39977(3) -0.10584(3)
N1B N -0.0070(8) -0.1594(2) 0.0465(2)
C1B C -0.1369(9) -0.2230(2) -0.0244(3)
H1B H -0.2274 -0.2026 -0.0969
C2B C -0.1470(9) -0.3159(3) 0.0015(3)
C3B C -0.0226(11) -0.3458(3) 0.1029(3)
H2B H -0.0307 -0.4117 0.1230
C4B C 0.1129(11) -0.2814(3) 0.1752(3)
H3B H 0.2046 -0.3006 0.2481
C5B C 0.1189(10) -0.1888(3) 0.1442(3)
H4B H 0.2194 -0.1432 0.1959
Cl1B Cl -0.4902(2) 0.03001(6) 0.14698(7)
Cl1B_2 Cl 0.5098(2) 0.03001(6) 0.14698(7)
Cd1_2 Cd -1.0000 0.0000 0.0000
Cd1_3 Cd 1.0000 0.0000 0.0000
loop_
_geom_bond_atom_site_label_1
_geom_bond_atom_site_label_2
_geom_bond_site_symmetry_1
_geom_bond_site_symmetry_2
Cd1 Cl1 1_555 1_555
Cl1 Cd1_2 1_555 1_555
Br1 C2 1_555 1_555
N1 Cd1 1_555 1_555
C1 N1 1_555 1_555
H1 C1 1_555 1_555
C2 C1 1_555 1_555
C3 C2 1_555 1_555
H2 C3 1_555 1_555
C4 C3 1_555 1_555
H3 C4 1_555 1_555
C5 N1 1_555 1_555
H4 C5 1_555 1_555
Cl1_2 Cd1 1_555 1_555
Br1B C2B 1_555 1_555
N1B Cd1 1_555 1_555
C1B N1B 1_555 1_555
H1B C1B 1_555 1_555
C2B C1B 1_555 1_555
C3B C2B 1_555 1_555
H2B C3B 1_555 1_555
C4B C3B 1_555 1_555
H3B C4B 1_555 1_555
C5B N1B 1_555 1_555
H4B C5B 1_555 1_555
Cl1B Cd1 1_555 1_555
Cl1B_2 Cd1 1_555 1_555
Cd1_2 Cl1B 1_555 1_555
Cd1_3 Cl1_2 1_555 1_555
C4 C5 1_555 1_555
C4B C5B 1_555 1_555
Cl1B_2 Cd1_3 1_555 1_555

#END
