
#######################################################################
#
#                 Cambridge Crystallographic Data Centre
#                                CCDC 
#
#######################################################################
#
# If this CIF has been generated from an entry in the Cambridge 
# Structural Database, then it will include bibliographic, chemical, 
# crystal, experimental, refinement or atomic coordinate data resulting 
# from the CCDC's data processing and validation procedures.
#
#######################################################################

data_IPAYON
_symmetry_cell_setting           monoclinic
_symmetry_space_group_name_H-M   'P 21/c'
_symmetry_Int_Tables_number      14
_space_group_name_Hall           '-P 2ybc'
loop_
_symmetry_equiv_pos_site_id
_symmetry_equiv_pos_as_xyz
1 x,y,z
2 x,1/2-y,1/2+z
3 -x,-y,-z
4 -x,1/2+y,1/2-z
_cell_length_a                   4.1332(18)
_cell_length_b                   14.450(6)
_cell_length_c                   12.977(6)
_cell_angle_alpha                90
_cell_angle_beta                 89.630(10)
_cell_angle_gamma                90
_cell_volume                     775.032
loop_
_atom_site_label
_atom_site_type_symbol
_atom_site_fract_x
_atom_site_fract_y
_atom_site_fract_z
Cd1 Cd 0.0000 0.0000 0.0000
I1 I -0.51022(6) -0.030283(18) -0.159256(17)
Cl1 Cl 0.2660(5) 0.39178(9) 0.10247(12)
N1 N 0.0107(8) 0.1640(2) -0.0406(2)
C1 C 0.1072(11) 0.2247(3) 0.0288(3)
H1 H 0.1620 0.2027 0.0980
C2 C 0.1334(12) 0.3176(3) 0.0074(3)
C3 C 0.0541(15) 0.3508(3) -0.0878(4)
H2 H 0.0697 0.4167 -0.1047
C4 C -0.0482(14) 0.2868(4) -0.1583(4)
H3 H -0.1116 0.3070 -0.2274
C5 C -0.0627(11) 0.1946(3) -0.1331(3)
H4 H -0.1300 0.1501 -0.1857
I1_2 I 0.48978(6) -0.030283(18) -0.159256(17)
Cl1B Cl -0.2660(5) -0.39178(9) -0.10247(12)
N1B N -0.0107(8) -0.1640(2) 0.0406(2)
C1B C -0.1072(11) -0.2247(3) -0.0288(3)
H1B H -0.1620 -0.2027 -0.0980
C2B C -0.1334(12) -0.3176(3) -0.0074(3)
C3B C -0.0541(15) -0.3508(3) 0.0878(4)
H2B H -0.0697 -0.4167 0.1047
C4B C 0.0482(14) -0.2868(4) 0.1583(4)
H3B H 0.1116 -0.3070 0.2274
C5B C 0.0627(11) -0.1946(3) 0.1331(3)
H4B H 0.1300 -0.1501 0.1857
I1B I -0.48978(6) 0.030283(18) 0.159256(17)
I1B_2 I 0.51022(6) 0.030283(18) 0.159256(17)
Cd1_2 Cd -1.0000 0.0000 0.0000
Cd1_3 Cd 1.0000 0.0000 0.0000
loop_
_geom_bond_atom_site_label_1
_geom_bond_atom_site_label_2
_geom_bond_site_symmetry_1
_geom_bond_site_symmetry_2
Cd1 I1 1_555 1_555
I1 Cd1_2 1_555 1_555
Cl1 C2 1_555 1_555
N1 Cd1 1_555 1_555
C1 N1 1_555 1_555
H1 C1 1_555 1_555
C2 C1 1_555 1_555
C3 C2 1_555 1_555
H2 C3 1_555 1_555
C4 C3 1_555 1_555
H3 C4 1_555 1_555
C5 N1 1_555 1_555
H4 C5 1_555 1_555
I1_2 Cd1 1_555 1_555
Cl1B C2B 1_555 1_555
N1B Cd1 1_555 1_555
C1B N1B 1_555 1_555
H1B C1B 1_555 1_555
C2B C1B 1_555 1_555
C3B C2B 1_555 1_555
H2B C3B 1_555 1_555
C4B C3B 1_555 1_555
H3B C4B 1_555 1_555
C5B N1B 1_555 1_555
H4B C5B 1_555 1_555
I1B Cd1 1_555 1_555
I1B_2 Cd1 1_555 1_555
Cd1_2 I1B 1_555 1_555
Cd1_3 I1_2 1_555 1_555
C4 C5 1_555 1_555
C4B C5B 1_555 1_555
I1B_2 Cd1_3 1_555 1_555

#END
