
#######################################################################
#
#                 Cambridge Crystallographic Data Centre
#                                CCDC 
#
#######################################################################
#
# If this CIF has been generated from an entry in the Cambridge 
# Structural Database, then it will include bibliographic, chemical, 
# crystal, experimental, refinement or atomic coordinate data resulting 
# from the CCDC's data processing and validation procedures.
#
#######################################################################

data_IPAYIH
_symmetry_cell_setting           monoclinic
_symmetry_space_group_name_H-M   'P 21/c'
_symmetry_Int_Tables_number      14
_space_group_name_Hall           '-P 2ybc'
loop_
_symmetry_equiv_pos_site_id
_symmetry_equiv_pos_as_xyz
1 x,y,z
2 x,1/2-y,1/2+z
3 -x,-y,-z
4 -x,1/2+y,1/2-z
_cell_length_a                   3.9079(10)
_cell_length_b                   14.392(4)
_cell_length_c                   12.238(3)
_cell_angle_alpha                90
_cell_angle_beta                 90.895(7)
_cell_angle_gamma                90
_cell_volume                     688.212
loop_
_atom_site_label
_atom_site_type_symbol
_atom_site_fract_x
_atom_site_fract_y
_atom_site_fract_z
Cd1 Cd 0.0000 0.0000 0.0000
Br1 Br -0.51116(17) -0.02977(4) -0.15520(5)
Cl1 Cl 0.3029(6) 0.39368(13) 0.09919(18)
N1 N 0.0110(14) 0.1619(4) -0.0436(4)
C1 C 0.1309(18) 0.2243(4) 0.0252(5)
H1 H 0.2152 0.2036 0.0970
C2 C 0.1432(18) 0.3182(5) 0.0007(6)
C3 C 0.025(2) 0.3483(5) -0.0998(6)
H2 H 0.0272 0.4143 -0.1193
C4 C -0.095(2) 0.2837(5) -0.1704(6)
H3 H -0.1813 0.3030 -0.2425
C5 C -0.0990(18) 0.1915(5) -0.1427(5)
H4 H -0.1834 0.1460 -0.1962
Br1_2 Br 0.48884(17) -0.02977(4) -0.15520(5)
Cl1B Cl -0.3029(6) -0.39368(13) -0.09919(18)
N1B N -0.0110(14) -0.1619(4) 0.0436(4)
C1B C -0.1309(18) -0.2243(4) -0.0252(5)
H1B H -0.2152 -0.2036 -0.0970
C2B C -0.1432(18) -0.3182(5) -0.0007(6)
C3B C -0.025(2) -0.3483(5) 0.0998(6)
H2B H -0.0272 -0.4143 0.1193
C4B C 0.095(2) -0.2837(5) 0.1704(6)
H3B H 0.1813 -0.3030 0.2425
C5B C 0.0990(18) -0.1915(5) 0.1427(5)
H4B H 0.1834 -0.1460 0.1962
Br1B Br -0.48884(17) 0.02977(4) 0.15520(5)
Br1B_2 Br 0.51116(17) 0.02977(4) 0.15520(5)
Cd1_2 Cd -1.0000 0.0000 0.0000
Cd1_3 Cd 1.0000 0.0000 0.0000
loop_
_geom_bond_atom_site_label_1
_geom_bond_atom_site_label_2
_geom_bond_site_symmetry_1
_geom_bond_site_symmetry_2
Cd1 Br1 1_555 1_555
Br1 Cd1_2 1_555 1_555
Cl1 C2 1_555 1_555
N1 Cd1 1_555 1_555
C1 N1 1_555 1_555
H1 C1 1_555 1_555
C2 C1 1_555 1_555
C3 C2 1_555 1_555
H2 C3 1_555 1_555
C4 C3 1_555 1_555
H3 C4 1_555 1_555
C5 N1 1_555 1_555
H4 C5 1_555 1_555
Br1_2 Cd1 1_555 1_555
Cl1B C2B 1_555 1_555
N1B Cd1 1_555 1_555
C1B N1B 1_555 1_555
H1B C1B 1_555 1_555
C2B C1B 1_555 1_555
C3B C2B 1_555 1_555
H2B C3B 1_555 1_555
C4B C3B 1_555 1_555
H3B C4B 1_555 1_555
C5B N1B 1_555 1_555
H4B C5B 1_555 1_555
Br1B Cd1 1_555 1_555
Br1B_2 Cd1 1_555 1_555
Cd1_2 Br1B 1_555 1_555
Cd1_3 Br1_2 1_555 1_555
C4 C5 1_555 1_555
C4B C5B 1_555 1_555
Br1B_2 Cd1_3 1_555 1_555

#END
