
#######################################################################
#
#                 Cambridge Crystallographic Data Centre
#                                CCDC 
#
#######################################################################
#
# If this CIF has been generated from an entry in the Cambridge 
# Structural Database, then it will include bibliographic, chemical, 
# crystal, experimental, refinement or atomic coordinate data resulting 
# from the CCDC's data processing and validation procedures.
#
#######################################################################

data_IPAYOO
_symmetry_cell_setting           triclinic
_symmetry_space_group_name_H-M   'P -1'
_symmetry_Int_Tables_number      2
_space_group_name_Hall           '-P 1'
loop_
_symmetry_equiv_pos_site_id
_symmetry_equiv_pos_as_xyz
1 x,y,z
2 -x,-y,-z
_cell_length_a                   6.650(3)
_cell_length_b                   9.604(4)
_cell_length_c                   10.892(4)
_cell_angle_alpha                109.945(9)
_cell_angle_beta                 92.517(9)
_cell_angle_gamma                106.931(8)
_cell_volume                     617.58
loop_
_atom_site_label
_atom_site_type_symbol
_atom_site_fract_x
_atom_site_fract_y
_atom_site_fract_z
Mn1 Mn 0.5000 0.5000 0.5000
Mn2 Mn 0.36577(12) 0.80344(8) 0.46912(7)
C1 C 0.2946(8) 0.4928(5) 0.2332(5)
C2 C 0.2563(7) 0.4049(6) 0.0895(5)
C3 C 0.2571(8) 0.2497(5) 0.0473(5)
H1 H 0.2749 0.2052 0.1089
C4 C 0.2300(8) 0.4673(6) -0.0041(5)
H2 H 0.2291 0.5700 0.0231
C5 C 0.2046(9) 0.3796(6) -0.1392(6)
H3 H 0.1888 0.4221 -0.2026
C6 C 0.2039(8) 0.2262(6) -0.1743(5)
H4 H 0.1835 0.1637 -0.2634
C7 C 0.2202(10) -0.0004(6) -0.1262(6)
H5 H 0.2432 -0.0261 -0.0501
H6 H 0.3275 -0.0171 -0.1803
H7 H 0.0822 -0.0658 -0.1764
N1 N 0.5501(7) 1.0225(5) 0.6299(4)
N2 N 0.6546(7) 1.0289(6) 0.7285(5)
N3 N 0.7472(10) 1.0365(8) 0.8199(7)
N4 N 0.6918(7) 0.7204(5) 0.4628(4)
N5 N 0.8713(7) 0.7808(6) 0.4846(4)
N6 N 1.0521(7) 0.8414(5) 0.4986(5)
N7 N 0.7029(7) 0.3597(5) 0.4231(4)
N8 N 0.7500(7) 0.3383(5) 0.3131(4)
N9 N 0.7914(10) 0.3276(7) 0.2095(6)
N10 N 0.2321(6) 0.1658(4) -0.0828(4)
O1 O 0.2776(6) 0.6265(4) 0.2748(3)
O2 O 0.3316(7) 0.4218(4) 0.3065(3)
Mn2A Mn 0.63423(12) 0.19656(8) 0.53088(7)
Mn2A_2 Mn 0.63423(12) 1.19656(8) 0.53088(7)
Mn2_2 Mn 1.36577(12) 0.80344(8) 0.46912(7)
Mn2A_3 Mn -0.36577(12) 0.19656(8) 0.53088(7)
C1A C 0.7054(8) 0.5072(5) 0.7668(5)
C2A C 0.7437(7) 0.5951(6) 0.9105(5)
C3A C 0.7429(8) 0.7503(5) 0.9527(5)
H1A H 0.7251 0.7948 0.8911
C4A C 0.7700(8) 0.5327(6) 1.0041(5)
H2A H 0.7709 0.4300 0.9769
C5A C 0.7954(9) 0.6204(6) 1.1392(6)
H3A H 0.8112 0.5779 1.2026
C6A C 0.7961(8) 0.7738(6) 1.1743(5)
H4A H 0.8165 0.8363 1.2634
C7A C 0.7798(10) 1.0004(6) 1.1262(6)
H5A H 0.7568 1.0261 1.0501
H6A H 0.6725 1.0171 1.1803
H7A H 0.9178 1.0658 1.1764
N1A N 0.4499(7) 0.9775(5) 0.3701(4)
N1A_2 N 0.4499(7) -0.0225(5) 0.3701(4)
N1_2 N 0.5501(7) 0.0225(5) 0.6299(4)
N2A N 0.3454(7) 0.9711(6) 0.2715(5)
N3A N 0.2528(10) 0.9635(8) 0.1801(7)
N4A N 0.3082(7) 0.2796(5) 0.5372(4)
N5A N 0.1287(7) 0.2192(6) 0.5154(4)
N6A N -0.0521(7) 0.1586(5) 0.5014(5)
N6_2 N 0.0521(7) 0.8414(5) 0.4986(5)
N6A_2 N 0.9479(7) 0.1586(5) 0.5014(5)
N7A N 0.2971(7) 0.6403(5) 0.5769(4)
N8A N 0.2500(7) 0.6617(5) 0.6869(4)
N9A N 0.2086(10) 0.6724(7) 0.7905(6)
N10A N 0.7679(6) 0.8342(4) 1.0828(4)
O1A O 0.7224(6) 0.3735(4) 0.7252(3)
O2A O 0.6684(7) 0.5782(4) 0.6935(3)
loop_
_geom_bond_atom_site_label_1
_geom_bond_atom_site_label_2
_geom_bond_site_symmetry_1
_geom_bond_site_symmetry_2
Mn1 N4 1_555 1_555
Mn2 N1 1_555 1_555
C1 C2 1_555 1_555
C2 C3 1_555 1_555
C3 H1 1_555 1_555
C4 C2 1_555 1_555
H2 C4 1_555 1_555
C5 C4 1_555 1_555
H3 C5 1_555 1_555
C6 C5 1_555 1_555
H4 C6 1_555 1_555
C7 H5 1_555 1_555
H6 C7 1_555 1_555
H7 C7 1_555 1_555
N1 N2 1_555 1_555
N2 N3 1_555 1_555
N4 Mn2 1_555 1_555
N5 N4 1_555 1_555
N6 N5 1_555 1_555
N7 Mn1 1_555 1_555
N8 N7 1_555 1_555
N9 N8 1_555 1_555
N10 C3 1_555 1_555
O1 Mn2 1_555 1_555
O2 Mn1 1_555 1_555
Mn2A N7 1_555 1_555
Mn2A_2 N1 1_555 1_555
Mn2_2 N6 1_555 1_555
Mn2A_3 N6A 1_555 1_555
C1A C2A 1_555 1_555
C2A C3A 1_555 1_555
C3A H1A 1_555 1_555
C4A C2A 1_555 1_555
H2A C4A 1_555 1_555
C5A C4A 1_555 1_555
H3A C5A 1_555 1_555
C6A C5A 1_555 1_555
H4A C6A 1_555 1_555
C7A H5A 1_555 1_555
H6A C7A 1_555 1_555
H7A C7A 1_555 1_555
N1A Mn2 1_555 1_555
N1A_2 Mn2A 1_555 1_555
N1_2 Mn2A 1_555 1_555
N2A N1A 1_555 1_555
N3A N2A 1_555 1_555
N4A Mn1 1_555 1_555
N5A N4A 1_555 1_555
N6A N5A 1_555 1_555
N6_2 Mn2 1_555 1_555
N6A_2 Mn2A 1_555 1_555
N7A Mn1 1_555 1_555
N8A N7A 1_555 1_555
N9A N8A 1_555 1_555
N10A C3A 1_555 1_555
O1A Mn2A 1_555 1_555
O2A Mn1 1_555 1_555
Mn2 N7A 1_555 1_555
C1 O1 1_555 1_555
C1 O2 1_555 1_555
C6 N10 1_555 1_555
C7 N10 1_555 1_555
Mn2A N4A 1_555 1_555
Mn2A_2 N1A 1_555 1_555
C1A O1A 1_555 1_555
C1A O2A 1_555 1_555
C6A N10A 1_555 1_555
C7A N10A 1_555 1_555

#END
