
#######################################################################
#
#                 Cambridge Crystallographic Data Centre
#                                CCDC 
#
#######################################################################
#
# If this CIF has been generated from an entry in the Cambridge 
# Structural Database, then it will include bibliographic, chemical, 
# crystal, experimental, refinement or atomic coordinate data resulting 
# from the CCDC's data processing and validation procedures.
#
#######################################################################

data_IPAYED
_symmetry_cell_setting           monoclinic
_symmetry_space_group_name_H-M   'P 21/c'
_symmetry_Int_Tables_number      14
_space_group_name_Hall           '-P 2ybc'
loop_
_symmetry_equiv_pos_site_id
_symmetry_equiv_pos_as_xyz
1 x,y,z
2 x,1/2-y,1/2+z
3 -x,-y,-z
4 -x,1/2+y,1/2-z
_cell_length_a                   3.8116(5)
_cell_length_b                   14.2606(19)
_cell_length_c                   11.9890(16)
_cell_angle_alpha                90
_cell_angle_beta                 91.767(4)
_cell_angle_gamma                90
_cell_volume                     651.361
loop_
_atom_site_label
_atom_site_type_symbol
_atom_site_fract_x
_atom_site_fract_y
_atom_site_fract_z
Cd1 Cd 0.0000 0.0000 0.0000
Cl1 Cl -0.5127(3) -0.02950(8) -0.14855(10)
Cl2 Cl 0.3197(4) 0.39706(9) 0.09810(14)
N1 N 0.0076(10) 0.1618(3) -0.0472(3)
C1 C 0.1393(12) 0.2250(3) 0.0255(4)
H1 H 0.2293 0.2040 0.0987
C2 C 0.1505(13) 0.3191(3) -0.0012(4)
C3 C 0.0244(15) 0.3507(4) -0.1038(5)
H2 H 0.0301 0.4173 -0.1236
C4 C -0.1101(15) 0.2842(4) -0.1774(4)
H3 H -0.2016 0.3029 -0.2514
C5 C -0.1142(14) 0.1919(4) -0.1457(4)
H4 H -0.2121 0.1457 -0.1986
Cl1_2 Cl 0.4873(3) -0.02950(8) -0.14855(10)
Cl2B Cl -0.3197(4) -0.39706(9) -0.09810(14)
N1B N -0.0076(10) -0.1618(3) 0.0472(3)
C1B C -0.1393(12) -0.2250(3) -0.0255(4)
H1B H -0.2293 -0.2040 -0.0987
C2B C -0.1505(13) -0.3191(3) 0.0012(4)
C3B C -0.0244(15) -0.3507(4) 0.1038(5)
H2B H -0.0301 -0.4173 0.1236
C4B C 0.1101(15) -0.2842(4) 0.1774(4)
H3B H 0.2016 -0.3029 0.2514
C5B C 0.1142(14) -0.1919(4) 0.1457(4)
H4B H 0.2121 -0.1457 0.1986
Cl1B Cl -0.4873(3) 0.02950(8) 0.14855(10)
Cl1B_2 Cl 0.5127(3) 0.02950(8) 0.14855(10)
Cd1_2 Cd -1.0000 0.0000 0.0000
Cd1_3 Cd 1.0000 0.0000 0.0000
loop_
_geom_bond_atom_site_label_1
_geom_bond_atom_site_label_2
_geom_bond_site_symmetry_1
_geom_bond_site_symmetry_2
Cd1 Cl1 1_555 1_555
Cl1 Cd1_2 1_555 1_555
Cl2 C2 1_555 1_555
N1 Cd1 1_555 1_555
C1 N1 1_555 1_555
H1 C1 1_555 1_555
C2 C1 1_555 1_555
C3 C2 1_555 1_555
H2 C3 1_555 1_555
C4 C3 1_555 1_555
H3 C4 1_555 1_555
C5 N1 1_555 1_555
H4 C5 1_555 1_555
Cl1_2 Cd1 1_555 1_555
Cl2B C2B 1_555 1_555
N1B Cd1 1_555 1_555
C1B N1B 1_555 1_555
H1B C1B 1_555 1_555
C2B C1B 1_555 1_555
C3B C2B 1_555 1_555
H2B C3B 1_555 1_555
C4B C3B 1_555 1_555
H3B C4B 1_555 1_555
C5B N1B 1_555 1_555
H4B C5B 1_555 1_555
Cl1B Cd1 1_555 1_555
Cl1B_2 Cd1 1_555 1_555
Cd1_2 Cl1B 1_555 1_555
Cd1_3 Cl1_2 1_555 1_555
C4 C5 1_555 1_555
C4B C5B 1_555 1_555
Cl1B_2 Cd1_3 1_555 1_555

#END
