
#######################################################################
#
#                 Cambridge Crystallographic Data Centre
#                                CCDC 
#
#######################################################################
#
# If this CIF has been generated from an entry in the Cambridge 
# Structural Database, then it will include bibliographic, chemical, 
# crystal, experimental, refinement or atomic coordinate data resulting 
# from the CCDC's data processing and validation procedures.
#
#######################################################################

data_IPAZOO
_symmetry_cell_setting           monoclinic
_symmetry_space_group_name_H-M   'P 21/c'
_symmetry_Int_Tables_number      14
_space_group_name_Hall           '-P 2ybc'
loop_
_symmetry_equiv_pos_site_id
_symmetry_equiv_pos_as_xyz
1 x,y,z
2 x,1/2-y,1/2+z
3 -x,-y,-z
4 -x,1/2+y,1/2-z
_cell_length_a                   3.9800(6)
_cell_length_b                   14.738(2)
_cell_length_c                   12.1051(17)
_cell_angle_alpha                90
_cell_angle_beta                 91.971(3)
_cell_angle_gamma                90
_cell_volume                     709.632
loop_
_atom_site_label
_atom_site_type_symbol
_atom_site_fract_x
_atom_site_fract_y
_atom_site_fract_z
Cd1 Cd 0.0000 0.0000 0.0000
Br1 Br -0.52220(8) -0.03194(3) -0.15665(3)
N1 N 0.0041(7) 0.15620(19) -0.0491(2)
C1 C 0.1290(9) 0.2208(2) 0.0178(3)
H1 H 0.2194 0.2021 0.0906
C2 C 0.1400(9) 0.3113(3) -0.0078(3)
C3 C 0.0109(10) 0.3362(3) -0.1118(3)
H2 H 0.0147 0.4000 -0.1348
C4 C -0.1211(11) 0.2716(3) -0.1818(3)
H3 H -0.2158 0.2885 -0.2547
C5 C -0.1187(9) 0.1825(3) -0.1481(3)
H4 H -0.2108 0.1363 -0.1989
C6 C 0.2840(11) 0.3798(3) 0.0729(3)
H5 H 0.1019 0.4168 0.1015
H6 H 0.4435 0.4189 0.0355
H7 H 0.4005 0.3481 0.1343
Br1_2 Br 0.47780(8) -0.03194(3) -0.15665(3)
N1B N -0.0041(7) -0.15620(19) 0.0491(2)
C1B C -0.1290(9) -0.2208(2) -0.0178(3)
H1B H -0.2194 -0.2021 -0.0906
C2B C -0.1400(9) -0.3113(3) 0.0078(3)
C3B C -0.0109(10) -0.3362(3) 0.1118(3)
H2B H -0.0147 -0.4000 0.1348
C4B C 0.1211(11) -0.2716(3) 0.1818(3)
H3B H 0.2158 -0.2885 0.2547
C5B C 0.1187(9) -0.1825(3) 0.1481(3)
H4B H 0.2108 -0.1363 0.1989
C6B C -0.2840(11) -0.3798(3) -0.0729(3)
H5B H -0.1019 -0.4168 -0.1015
H6B H -0.4435 -0.4189 -0.0355
H7B H -0.4005 -0.3481 -0.1343
Br1B Br -0.47780(8) 0.03194(3) 0.15665(3)
Br1B_2 Br 0.52220(8) 0.03194(3) 0.15665(3)
Cd1_2 Cd -1.0000 0.0000 0.0000
Cd1_3 Cd 1.0000 0.0000 0.0000
loop_
_geom_bond_atom_site_label_1
_geom_bond_atom_site_label_2
_geom_bond_site_symmetry_1
_geom_bond_site_symmetry_2
Cd1 Br1 1_555 1_555
Br1 Cd1_2 1_555 1_555
N1 Cd1 1_555 1_555
C1 N1 1_555 1_555
H1 C1 1_555 1_555
C2 C1 1_555 1_555
C3 C2 1_555 1_555
H2 C3 1_555 1_555
C4 C3 1_555 1_555
H3 C4 1_555 1_555
C5 N1 1_555 1_555
H4 C5 1_555 1_555
C6 C2 1_555 1_555
H5 C6 1_555 1_555
H6 C6 1_555 1_555
H7 C6 1_555 1_555
Br1_2 Cd1 1_555 1_555
N1B Cd1 1_555 1_555
C1B N1B 1_555 1_555
H1B C1B 1_555 1_555
C2B C1B 1_555 1_555
C3B C2B 1_555 1_555
H2B C3B 1_555 1_555
C4B C3B 1_555 1_555
H3B C4B 1_555 1_555
C5B N1B 1_555 1_555
H4B C5B 1_555 1_555
C6B C2B 1_555 1_555
H5B C6B 1_555 1_555
H6B C6B 1_555 1_555
H7B C6B 1_555 1_555
Br1B Cd1 1_555 1_555
Br1B_2 Cd1 1_555 1_555
Cd1_2 Br1B 1_555 1_555
Cd1_3 Br1_2 1_555 1_555
C4 C5 1_555 1_555
C4B C5B 1_555 1_555
Br1B_2 Cd1_3 1_555 1_555

#END
