
#######################################################################
#
#                 Cambridge Crystallographic Data Centre
#                                CCDC 
#
#######################################################################
#
# If this CIF has been generated from an entry in the Cambridge 
# Structural Database, then it will include bibliographic, chemical, 
# crystal, experimental, refinement or atomic coordinate data resulting 
# from the CCDC's data processing and validation procedures.
#
#######################################################################

data_IPAZEE
_symmetry_cell_setting           monoclinic
_symmetry_space_group_name_H-M   'P 21/c'
_symmetry_Int_Tables_number      14
_space_group_name_Hall           '-P 2ybc'
loop_
_symmetry_equiv_pos_site_id
_symmetry_equiv_pos_as_xyz
1 x,y,z
2 x,1/2-y,1/2+z
3 -x,-y,-z
4 -x,1/2+y,1/2-z
_cell_length_a                   4.1429(7)
_cell_length_b                   14.657(3)
_cell_length_c                   12.946(2)
_cell_angle_alpha                90
_cell_angle_beta                 90.162(4)
_cell_angle_gamma                90
_cell_volume                     786.11
loop_
_atom_site_label
_atom_site_type_symbol
_atom_site_fract_x
_atom_site_fract_y
_atom_site_fract_z
Cd1 Cd 0.0000 0.0000 0.0000
I1 I -0.51477(5) -0.032384(16) -0.159442(16)
Br1 Br 0.28423(13) 0.39385(3) 0.10487(4)
N1 N 0.0071(7) 0.16027(19) -0.0432(2)
C1 C 0.1084(9) 0.2219(2) 0.0253(3)
H1 H 0.1676 0.2013 0.0949
C2 C 0.1330(9) 0.3135(2) 0.0019(3)
C3 C 0.0439(13) 0.3439(3) -0.0939(4)
H2 H 0.0559 0.4088 -0.1120
C4 C -0.0620(13) 0.2806(3) -0.1633(4)
H3 H -0.1280 0.2999 -0.2327
C5 C -0.0771(11) 0.1892(3) -0.1364(3)
H4 H -0.1521 0.1448 -0.1877
I1_2 I 0.48523(5) -0.032384(16) -0.159442(16)
Br1B Br -0.28423(13) -0.39385(3) -0.10487(4)
N1B N -0.0071(7) -0.16027(19) 0.0432(2)
C1B C -0.1084(9) -0.2219(2) -0.0253(3)
H1B H -0.1676 -0.2013 -0.0949
C2B C -0.1330(9) -0.3135(2) -0.0019(3)
C3B C -0.0439(13) -0.3439(3) 0.0939(4)
H2B H -0.0559 -0.4088 0.1120
C4B C 0.0620(13) -0.2806(3) 0.1633(4)
H3B H 0.1280 -0.2999 0.2327
C5B C 0.0771(11) -0.1892(3) 0.1364(3)
H4B H 0.1521 -0.1448 0.1877
I1B I -0.48523(5) 0.032384(16) 0.159442(16)
I1B_2 I 0.51477(5) 0.032384(16) 0.159442(16)
Cd1_2 Cd -1.0000 0.0000 0.0000
Cd1_3 Cd 1.0000 0.0000 0.0000
loop_
_geom_bond_atom_site_label_1
_geom_bond_atom_site_label_2
_geom_bond_site_symmetry_1
_geom_bond_site_symmetry_2
Cd1 I1 1_555 1_555
I1 Cd1_2 1_555 1_555
Br1 C2 1_555 1_555
N1 Cd1 1_555 1_555
C1 N1 1_555 1_555
H1 C1 1_555 1_555
C2 C1 1_555 1_555
C3 C2 1_555 1_555
H2 C3 1_555 1_555
C4 C3 1_555 1_555
H3 C4 1_555 1_555
C5 N1 1_555 1_555
H4 C5 1_555 1_555
I1_2 Cd1 1_555 1_555
Br1B C2B 1_555 1_555
N1B Cd1 1_555 1_555
C1B N1B 1_555 1_555
H1B C1B 1_555 1_555
C2B C1B 1_555 1_555
C3B C2B 1_555 1_555
H2B C3B 1_555 1_555
C4B C3B 1_555 1_555
H3B C4B 1_555 1_555
C5B N1B 1_555 1_555
H4B C5B 1_555 1_555
I1B Cd1 1_555 1_555
I1B_2 Cd1 1_555 1_555
Cd1_2 I1B 1_555 1_555
Cd1_3 I1_2 1_555 1_555
C4 C5 1_555 1_555
C4B C5B 1_555 1_555
I1B_2 Cd1_3 1_555 1_555

#END
