
#######################################################################
#
#                 Cambridge Crystallographic Data Centre
#                                CCDC 
#
#######################################################################
#
# If this CIF has been generated from an entry in the Cambridge 
# Structural Database, then it will include bibliographic, chemical, 
# crystal, experimental, refinement or atomic coordinate data resulting 
# from the CCDC's data processing and validation procedures.
#
#######################################################################

data_IPEBIO01
_symmetry_cell_setting           orthorhombic
_symmetry_space_group_name_H-M   'P b a n'
_symmetry_Int_Tables_number      50
_space_group_name_Hall           '-P 2ab 2b'
loop_
_symmetry_equiv_pos_site_id
_symmetry_equiv_pos_as_xyz
1 x,y,z
2 1/2+x,1/2+y,-z
3 1/2+x,-y,z
4 -x,1/2+y,z
5 -x,-y,-z
6 1/2-x,1/2-y,z
7 1/2-x,y,-z
8 x,1/2-y,-z
_cell_length_a                   11.796(3)
_cell_length_b                   12.084(3)
_cell_length_c                   3.7716(9)
_cell_angle_alpha                90
_cell_angle_beta                 90
_cell_angle_gamma                90
_cell_volume                     537.615
loop_
_atom_site_label
_atom_site_type_symbol
_atom_site_fract_x
_atom_site_fract_y
_atom_site_fract_z
Cd1 Cd 0.2500 0.2500 0.5000
Cl1 Cl 0.2500 0.09651(9) 0.0000
N1 N 0.0513(3) 0.2500 0.5000
C1 C -0.0074(3) 0.1594(3) 0.5933(11)
H1 H 0.0347 0.0929 0.6630
C2 C -0.1261(3) 0.1556(3) 0.5953(10)
H2 H -0.1659 0.0875 0.6628
C3 C -0.1870(4) 0.2500 0.5000
C2G C -0.1261(3) 0.3444(3) 0.4047(10)
C1G C -0.0074(3) 0.3406(3) 0.4067(11)
H1G H 0.0347 0.4071 0.3370
H2G H -0.1659 0.4125 0.3372
C3E C -0.3130(4) 0.2500 0.5000
C2E C -0.3739(3) 0.3444(3) 0.5953(10)
C1E C -0.4926(3) 0.3406(3) 0.5933(11)
N1E N -0.5513(3) 0.2500 0.5000
C1F C -0.4926(3) 0.1594(3) 0.4067(11)
H1F H -0.5347 0.0929 0.3370
C2F C -0.3739(3) 0.1556(3) 0.4047(10)
H2F H -0.3341 0.0875 0.3372
H1E H -0.5347 0.4071 0.6630
H2E H -0.3341 0.4125 0.6628
Cl1_2 Cl 0.2500 0.09651(9) 1.0000
Cl1E Cl 0.2500 0.40349(9) 0.0000
Cl1E_2 Cl 0.2500 0.40349(9) 1.0000
N1E_2 N 0.4487(3) 0.2500 0.5000
Cd1_2 Cd 0.2500 0.2500 -0.5000
Cd1_3 Cd -0.7500 0.2500 0.5000
Cd1_4 Cd 0.2500 0.2500 1.5000
loop_
_geom_bond_atom_site_label_1
_geom_bond_atom_site_label_2
_geom_bond_site_symmetry_1
_geom_bond_site_symmetry_2
Cd1 Cl1 1_555 1_555
Cl1 Cd1_2 1_555 1_555
N1 Cd1 1_555 1_555
C1 N1 1_555 1_555
H1 C1 1_555 1_555
C2 C1 1_555 1_555
H2 C2 1_555 1_555
C3 C2 1_555 1_555
C2G C3 1_555 1_555
C1G N1 1_555 1_555
H1G C1G 1_555 1_555
H2G C2G 1_555 1_555
C3E C3 1_555 1_555
C2E C3E 1_555 1_555
C1E C2E 1_555 1_555
N1E C1E 1_555 1_555
C1F N1E 1_555 1_555
H1F C1F 1_555 1_555
C2F C3E 1_555 1_555
H2F C2F 1_555 1_555
H1E C1E 1_555 1_555
H2E C2E 1_555 1_555
Cl1_2 Cd1 1_555 1_555
Cl1E Cd1 1_555 1_555
Cl1E_2 Cd1 1_555 1_555
N1E_2 Cd1 1_555 1_555
Cd1_2 Cl1E 1_555 1_555
Cd1_3 N1E 1_555 1_555
Cd1_4 Cl1_2 1_555 1_555
C2G C1G 1_555 1_555
C1F C2F 1_555 1_555
Cl1E_2 Cd1_4 1_555 1_555

#END
