
#######################################################################
#
#                 Cambridge Crystallographic Data Centre
#                                CCDC 
#
#######################################################################
#
# If this CIF has been generated from an entry in the Cambridge 
# Structural Database, then it will include bibliographic, chemical, 
# crystal, experimental, refinement or atomic coordinate data resulting 
# from the CCDC's data processing and validation procedures.
#
#######################################################################

data_IPECEL10
_symmetry_cell_setting           orthorhombic
_symmetry_space_group_name_H-M   'C m m m'
_symmetry_Int_Tables_number      65
_space_group_name_Hall           '-C 2 2'
loop_
_symmetry_equiv_pos_site_id
_symmetry_equiv_pos_as_xyz
1 x,y,z
2 1/2+x,1/2+y,z
3 -x,-y,z
4 -x,y,-z
5 x,-y,-z
6 1/2-x,1/2-y,z
7 1/2-x,1/2+y,-z
8 1/2+x,1/2-y,-z
9 -x,-y,-z
10 1/2-x,1/2-y,-z
11 x,y,-z
12 x,-y,z
13 -x,y,z
14 1/2+x,1/2+y,-z
15 1/2+x,1/2-y,z
16 1/2-x,1/2+y,z
_cell_length_a                   11.837(2)
_cell_length_b                   13.129(3)
_cell_length_c                   4.1515(8)
_cell_angle_alpha                90
_cell_angle_beta                 90
_cell_angle_gamma                90
_cell_volume                     645.176
loop_
_atom_site_label
_atom_site_type_symbol
_atom_site_fract_x
_atom_site_fract_y
_atom_site_fract_z
Cd1 Cd 0.5000 0.5000 0.5000
I1 I 0.5000 0.33760(2) 0.0000
N1 N 0.6997(3) 0.5000 0.5000
C1 C 0.7587(3) 0.5858(3) 0.5000
H1 H 0.7194 0.6472 0.5000
C2 C 0.8752(3) 0.5890(3) 0.5000
H2 H 0.9124 0.6514 0.5000
C3 C 0.9364(4) 0.5000 0.5000
Cd1_2 Cd 0.5000 0.5000 -0.5000
Cd1_3 Cd 1.5000 0.5000 0.5000
Cd1_4 Cd 0.5000 0.5000 1.5000
I1_2 I 0.5000 0.33760(2) 1.0000
I1K I 0.5000 0.66240(2) 0.0000
I1K_2 I 0.5000 0.66240(2) 1.0000
N1L N 1.3003(3) 0.5000 0.5000
N1L_2 N 0.3003(3) 0.5000 0.5000
C1K C 0.7587(3) 0.4142(3) 0.5000
C1L C 1.2413(3) 0.5858(3) 0.5000
C1H C 1.2413(3) 0.4142(3) 0.5000
H1K H 0.7194 0.3528 0.5000
H1H H 1.2806 0.3528 0.5000
H1L H 1.2806 0.6472 0.5000
C2K C 0.8752(3) 0.4110(3) 0.5000
C2L C 1.1248(3) 0.5890(3) 0.5000
C2H C 1.1248(3) 0.4110(3) 0.5000
H2K H 0.9124 0.3486 0.5000
H2H H 1.0876 0.3486 0.5000
H2L H 1.0876 0.6514 0.5000
C3L C 1.0636(4) 0.5000 0.5000
loop_
_geom_bond_atom_site_label_1
_geom_bond_atom_site_label_2
_geom_bond_site_symmetry_1
_geom_bond_site_symmetry_2
Cd1 I1 1_555 1_555
I1 Cd1_2 1_555 1_555
N1 Cd1 1_555 1_555
C1 N1 1_555 1_555
H1 C1 1_555 1_555
C2 C1 1_555 1_555
H2 C2 1_555 1_555
C3 C2 1_555 1_555
Cd1_2 I1K 1_555 1_555
Cd1_3 N1L 1_555 1_555
Cd1_4 I1_2 1_555 1_555
I1_2 Cd1 1_555 1_555
I1K Cd1 1_555 1_555
I1K_2 Cd1 1_555 1_555
N1L C1L 1_555 1_555
N1L_2 Cd1 1_555 1_555
C1K N1 1_555 1_555
C1L H1L 1_555 1_555
C1H N1L 1_555 1_555
H1K C1K 1_555 1_555
H1H C1H 1_555 1_555
C2K C3 1_555 1_555
C2L C1L 1_555 1_555
C2H C1H 1_555 1_555
H2K C2K 1_555 1_555
H2H C2H 1_555 1_555
H2L C2L 1_555 1_555
C3L C3 1_555 1_555
Cd1_4 I1K_2 1_555 1_555
C1K C2K 1_555 1_555
C2L C3L 1_555 1_555
C2H C3L 1_555 1_555

#END
