
#######################################################################
#
#                 Cambridge Crystallographic Data Centre
#                                CCDC 
#
#######################################################################
#
# If this CIF has been generated from an entry in the Cambridge 
# Structural Database, then it will include bibliographic, chemical, 
# crystal, experimental, refinement or atomic coordinate data resulting 
# from the CCDC's data processing and validation procedures.
#
#######################################################################

data_IPECEL06
_symmetry_cell_setting           orthorhombic
_symmetry_space_group_name_H-M   'C m m m'
_symmetry_Int_Tables_number      65
_space_group_name_Hall           '-C 2 2'
loop_
_symmetry_equiv_pos_site_id
_symmetry_equiv_pos_as_xyz
1 x,y,z
2 1/2+x,1/2+y,z
3 x,y,-z
4 x,-y,z
5 -x,y,z
6 1/2+x,1/2+y,-z
7 1/2+x,1/2-y,z
8 1/2-x,1/2+y,z
9 -x,-y,-z
10 1/2-x,1/2-y,-z
11 -x,-y,z
12 -x,y,-z
13 x,-y,-z
14 1/2-x,1/2-y,z
15 1/2-x,1/2+y,-z
16 1/2+x,1/2-y,-z
_cell_length_a                   11.8280(11)
_cell_length_b                   13.1531(11)
_cell_length_c                   4.1751(4)
_cell_angle_alpha                90
_cell_angle_beta                 90
_cell_angle_gamma                90
_cell_volume                     649.541
loop_
_atom_site_label
_atom_site_type_symbol
_atom_site_fract_x
_atom_site_fract_y
_atom_site_fract_z
Cd1 Cd 0.0000 0.0000 0.0000
I1 I 0.0000 0.16150(5) -0.5000
N1 N 0.1996(6) 0.0000 0.0000
C1 C 0.2592(6) 0.0842(6) 0.0000
H1 H 0.2177 0.1487 0.0000
C2 C 0.3749(6) 0.0888(5) 0.0000
H2 H 0.4134 0.1547 0.0000
C3 C 0.4366(7) 0.0000 0.0000
C2C C 0.3749(6) -0.0888(5) 0.0000
C1C C 0.2592(6) -0.0842(6) 0.0000
H1C H 0.2177 -0.1487 0.0000
H2C H 0.4134 -0.1547 0.0000
C3D C 0.5634(7) 0.0000 0.0000
C2D C 0.6251(6) 0.0888(5) 0.0000
C1D C 0.7408(6) 0.0842(6) 0.0000
N1D N 0.8004(6) 0.0000 0.0000
C1J C 0.7408(6) -0.0842(6) 0.0000
H1J H 0.7823 -0.1487 0.0000
C2J C 0.6251(6) -0.0888(5) 0.0000
H2J H 0.5866 -0.1547 0.0000
H1D H 0.7823 0.1487 0.0000
H2D H 0.5866 0.1547 0.0000
I1_2 I 0.0000 0.16150(5) 0.5000
I1C I 0.0000 -0.16150(5) -0.5000
I1C_2 I 0.0000 -0.16150(5) 0.5000
N1D_2 N -0.1996(6) 0.0000 0.0000
Cd1_2 Cd 0.0000 0.0000 -1.0000
Cd1_3 Cd 1.0000 0.0000 0.0000
Cd1_4 Cd 0.0000 0.0000 1.0000
loop_
_geom_bond_atom_site_label_1
_geom_bond_atom_site_label_2
_geom_bond_site_symmetry_1
_geom_bond_site_symmetry_2
Cd1 I1 1_555 1_555
I1 Cd1_2 1_555 1_555
N1 Cd1 1_555 1_555
C1 N1 1_555 1_555
H1 C1 1_555 1_555
C2 C1 1_555 1_555
H2 C2 1_555 1_555
C3 C2 1_555 1_555
C2C C3 1_555 1_555
C1C N1 1_555 1_555
H1C C1C 1_555 1_555
H2C C2C 1_555 1_555
C3D C3 1_555 1_555
C2D C3D 1_555 1_555
C1D C2D 1_555 1_555
N1D C1D 1_555 1_555
C1J N1D 1_555 1_555
H1J C1J 1_555 1_555
C2J C3D 1_555 1_555
H2J C2J 1_555 1_555
H1D C1D 1_555 1_555
H2D C2D 1_555 1_555
I1_2 Cd1 1_555 1_555
I1C Cd1 1_555 1_555
I1C_2 Cd1 1_555 1_555
N1D_2 Cd1 1_555 1_555
Cd1_2 I1C 1_555 1_555
Cd1_3 N1D 1_555 1_555
Cd1_4 I1_2 1_555 1_555
C2C C1C 1_555 1_555
C1J C2J 1_555 1_555
I1C_2 Cd1_4 1_555 1_555

#END
