
#######################################################################
#
#                 Cambridge Crystallographic Data Centre
#                                CCDC 
#
#######################################################################
#
# If this CIF has been generated from an entry in the Cambridge 
# Structural Database, then it will include bibliographic, chemical, 
# crystal, experimental, refinement or atomic coordinate data resulting 
# from the CCDC's data processing and validation procedures.
#
#######################################################################

data_IPECAH
_symmetry_cell_setting           orthorhombic
_symmetry_space_group_name_H-M   'P b a n'
_symmetry_Int_Tables_number      50
_space_group_name_Hall           '-P 2ab 2b'
loop_
_symmetry_equiv_pos_site_id
_symmetry_equiv_pos_as_xyz
1 x,y,z
2 1/2+x,1/2+y,-z
3 1/2+x,-y,z
4 -x,1/2+y,z
5 -x,-y,-z
6 1/2-x,1/2-y,z
7 1/2-x,y,-z
8 x,1/2-y,-z
_cell_length_a                   11.7857(10)
_cell_length_b                   12.5282(10)
_cell_length_c                   3.9105(3)
_cell_angle_alpha                90
_cell_angle_beta                 90
_cell_angle_gamma                90
_cell_volume                     577.399
loop_
_atom_site_label
_atom_site_type_symbol
_atom_site_fract_x
_atom_site_fract_y
_atom_site_fract_z
Cd1 Cd 0.2500 0.2500 0.5000
Br1 Br 0.2500 0.09315(5) 0.0000
N1 N 0.0509(4) 0.2500 0.5000
C1 C -0.0089(5) 0.1627(4) 0.570(2)
H1 H 0.0328 0.0971 0.6221
C2 C -0.1252(5) 0.1585(5) 0.5726(17)
H2 H -0.1642 0.0914 0.6257
C3 C -0.1874(5) 0.2500 0.5000
C2G C -0.1252(5) 0.3415(5) 0.4274(17)
C1G C -0.0089(5) 0.3373(4) 0.430(2)
H1G H 0.0328 0.4029 0.3779
H2G H -0.1642 0.4086 0.3743
C3E C -0.3126(5) 0.2500 0.5000
C2E C -0.3748(5) 0.3415(5) 0.5726(17)
C1E C -0.4911(5) 0.3373(4) 0.570(2)
N1E N -0.5509(4) 0.2500 0.5000
C1F C -0.4911(5) 0.1627(4) 0.430(2)
H1F H -0.5328 0.0971 0.3779
C2F C -0.3748(5) 0.1585(5) 0.4274(17)
H2F H -0.3358 0.0914 0.3743
H1E H -0.5328 0.4029 0.6221
H2E H -0.3358 0.4086 0.6257
Br1_2 Br 0.2500 0.09315(5) 1.0000
Br1E Br 0.2500 0.40685(5) 0.0000
Br1E_2 Br 0.2500 0.40685(5) 1.0000
N1E_2 N 0.4491(4) 0.2500 0.5000
Cd1_2 Cd 0.2500 0.2500 -0.5000
Cd1_3 Cd -0.7500 0.2500 0.5000
Cd1_4 Cd 0.2500 0.2500 1.5000
loop_
_geom_bond_atom_site_label_1
_geom_bond_atom_site_label_2
_geom_bond_site_symmetry_1
_geom_bond_site_symmetry_2
Cd1 Br1 1_555 1_555
Br1 Cd1_2 1_555 1_555
N1 Cd1 1_555 1_555
C1 N1 1_555 1_555
H1 C1 1_555 1_555
C2 C1 1_555 1_555
H2 C2 1_555 1_555
C3 C2 1_555 1_555
C2G C3 1_555 1_555
C1G N1 1_555 1_555
H1G C1G 1_555 1_555
H2G C2G 1_555 1_555
C3E C3 1_555 1_555
C2E C3E 1_555 1_555
C1E C2E 1_555 1_555
N1E C1E 1_555 1_555
C1F N1E 1_555 1_555
H1F C1F 1_555 1_555
C2F C3E 1_555 1_555
H2F C2F 1_555 1_555
H1E C1E 1_555 1_555
H2E C2E 1_555 1_555
Br1_2 Cd1 1_555 1_555
Br1E Cd1 1_555 1_555
Br1E_2 Cd1 1_555 1_555
N1E_2 Cd1 1_555 1_555
Cd1_2 Br1E 1_555 1_555
Cd1_3 N1E 1_555 1_555
Cd1_4 Br1_2 1_555 1_555
C2G C1G 1_555 1_555
C1F C2F 1_555 1_555
Br1E_2 Cd1_4 1_555 1_555

#END
