
#######################################################################
#
#                 Cambridge Crystallographic Data Centre
#                                CCDC 
#
#######################################################################
#
# If this CIF has been generated from an entry in the Cambridge 
# Structural Database, then it will include bibliographic, chemical, 
# crystal, experimental, refinement or atomic coordinate data resulting 
# from the CCDC's data processing and validation procedures.
#
#######################################################################

data_IPEDUC03
_symmetry_cell_setting           monoclinic
_symmetry_space_group_name_H-M   'P 21/c'
_symmetry_Int_Tables_number      14
_space_group_name_Hall           '-P 2ybc'
loop_
_symmetry_equiv_pos_site_id
_symmetry_equiv_pos_as_xyz
1 x,y,z
2 -x,1/2+y,1/2-z
3 -x,-y,-z
4 x,1/2-y,1/2+z
_cell_length_a                   10.0500(5)
_cell_length_b                   10.6996(5)
_cell_length_c                   14.3509(5)
_cell_angle_alpha                90
_cell_angle_beta                 99.8351(32)
_cell_angle_gamma                90
_cell_volume                     1520.49
loop_
_atom_site_label
_atom_site_type_symbol
_atom_site_fract_x
_atom_site_fract_y
_atom_site_fract_z
N1 N 0.2481(12) 0.0167(9) 0.10840(23)
N2 N 0.2107(4) 0.0947(6) -0.05351(21)
N3 N 0.0222(5) 0.0476(9) -0.18019(34)
N4 N 0.0808(8) 0.2245(6) 0.14637(35)
N5 N -0.0269(5) 0.3416(5) 0.00743(17)
N6 N 0.0608(5) 0.3811(9) -0.13881(21)
C1 C 0.2351(17) 0.0443(6) 0.02999(18)
C2 C 0.1051(4) 0.0743(9) -0.11788(27)
C3 C 0.0265(8) 0.2829(5) 0.08399(24)
C4 C 0.0189(4) 0.3586(9) -0.07105(15)
Mn1 Mn 0.1366(22) 0.0533(18) 0.2414(14)
N7 N 0.26802(22) -0.09489(17) 0.30703(30)
N8 N 0.35083(22) 0.14634(18) 0.30550(29)
C5 C 0.23266(20) -0.21472(13) 0.29925(22)
C6 C 0.31393(18) -0.31209(13) 0.33987(22)
C7 C 0.44142(18) -0.28550(13) 0.38350(23)
C8 C 0.48669(18) -0.16077(13) 0.39097(23)
C9 C 0.61928(12) -0.12455(5) 0.43451(21)
C10 C 0.66193(12) -0.00635(5) 0.43276(21)
C11 C 0.57241(18) 0.09103(13) 0.39323(22)
C12 C 0.61107(18) 0.21744(13) 0.38754(22)
C13 C 0.51908(17) 0.30339(13) 0.35059(24)
C14 C 0.38832(17) 0.26607(13) 0.31001(28)
C15 C 0.44313(19) 0.05918(14) 0.34351(23)
C16 C 0.39890(18) -0.06899(14) 0.34461(24)
D1 D 0.14491(32) -0.23242(24) 0.2618(4)
D2 D 0.28026(35) -0.39834(24) 0.3331(4)
D3 D 0.49995(31) -0.34676(23) 0.4102(4)
D4 D 0.68142(31) -0.18741(23) 0.4618(5)
D5 D 0.74755(30) 0.01541(22) 0.4605(5)
D6 D 0.69812(32) 0.23784(24) 0.4231(4)
D7 D 0.53407(32) 0.38980(24) 0.3511(4)
D8 D 0.31838(30) 0.32562(24) 0.2879(5)
N3B N -0.0222(5) -0.0476(9) 0.18019(34)
N6C N 0.0608(5) 0.1189(9) 0.36119(21)
Mn1B Mn -0.1366(22) -0.0533(18) -0.2414(14)
Mn1C Mn 0.1366(22) 0.4467(18) -0.2586(14)
loop_
_geom_bond_atom_site_label_1
_geom_bond_atom_site_label_2
_geom_bond_site_symmetry_1
_geom_bond_site_symmetry_2
N1 C1 1_555 1_555
N2 C1 1_555 1_555
N3 C2 1_555 1_555
N4 C3 1_555 1_555
N5 C3 1_555 1_555
N6 C4 1_555 1_555
C2 N2 1_555 1_555
C4 N5 1_555 1_555
Mn1 N1 1_555 1_555
N7 Mn1 1_555 1_555
N8 Mn1 1_555 1_555
C5 N7 1_555 1_555
C6 C5 1_555 1_555
C7 C6 1_555 1_555
C8 C7 1_555 1_555
C9 C8 1_555 1_555
C10 C9 1_555 1_555
C11 C10 1_555 1_555
C12 C11 1_555 1_555
C13 C12 1_555 1_555
C14 N8 1_555 1_555
C15 N8 1_555 1_555
C16 N7 1_555 1_555
D1 C5 1_555 1_555
D2 C6 1_555 1_555
D3 C7 1_555 1_555
D4 C9 1_555 1_555
D5 C10 1_555 1_555
D6 C12 1_555 1_555
D7 C13 1_555 1_555
D8 C14 1_555 1_555
N3B Mn1 1_555 1_555
N6C Mn1 1_555 1_555
Mn1B N3 1_555 1_555
Mn1C N6 1_555 1_555
N4 Mn1 1_555 1_555
C8 C16 1_555 1_555
C11 C15 1_555 1_555
C13 C14 1_555 1_555
C15 C16 1_555 1_555

#END
