
#######################################################################
#
#                 Cambridge Crystallographic Data Centre
#                                CCDC 
#
#######################################################################
#
# If this CIF has been generated from an entry in the Cambridge 
# Structural Database, then it will include bibliographic, chemical, 
# crystal, experimental, refinement or atomic coordinate data resulting 
# from the CCDC's data processing and validation procedures.
#
#######################################################################

data_IPEFOZ
_symmetry_cell_setting           orthorhombic
_symmetry_space_group_name_H-M   'P c a b'
_symmetry_Int_Tables_number      61
_space_group_name_Hall           '-P 2bc 2ac'
loop_
_symmetry_equiv_pos_site_id
_symmetry_equiv_pos_as_xyz
1 x,y,z
2 -x,1/2-y,1/2+z
3 1/2+x,-y,1/2-z
4 1/2-x,1/2+y,-z
5 -x,-y,-z
6 x,1/2+y,1/2-z
7 1/2-x,y,1/2+z
8 1/2+x,1/2-y,z
_cell_length_a                   8.9444(2)
_cell_length_b                   11.5280(2)
_cell_length_c                   16.8151(4)
_cell_angle_alpha                90
_cell_angle_beta                 90
_cell_angle_gamma                90
_cell_volume                     1733.82
loop_
_atom_site_label
_atom_site_type_symbol
_atom_site_fract_x
_atom_site_fract_y
_atom_site_fract_z
Ni1 Ni 1.00000 0.00000 1.00000
O1 O 0.77995(17) 0.00383(12) 1.03545(10)
O2 O 0.99003(15) 0.17040(13) 0.95724(10)
O3 O 0.70823(18) 0.18353(15) 1.00561(10)
N1 N 1.0643(2) 0.05946(16) 1.11382(10)
N2 N 1.1903(3) 0.1773(2) 1.33895(12)
H1 H 1.2603 0.1429 1.3648
H2 H 1.1461 0.2366 1.3593
C1 C 1.1725(3) 0.00804(19) 1.15637(15)
H3 H 1.2205 -0.0556 1.1339
C2 C 1.0365(3) 0.1926(2) 1.22218(14)
H4 H 0.9871 0.2567 1.2431
C3 C 0.5205(2) 0.0415(2) 1.03430(16)
H5 H 0.4548 0.1084 1.0335
H6 H 0.5078 0.0022 1.0849
C4 C 1.1493(3) 0.1382(2) 1.26592(13)
C5 C 0.6815(2) 0.08038(19) 1.02508(13)
C6 C 1.2171(3) 0.0427(2) 1.23027(15)
H7 H 1.2924 0.0027 1.2567
C7 C 0.9987(2) 0.1514(2) 1.14862(15)
H8 H 0.923 0.1893 1.1209
H9 H 0.9074 0.1903 0.9797
H10 H 1.069 0.2223 0.9726
Ni1_2 Ni 0.00000 0.00000 1.00000
O1D O 0.22005(17) -0.00383(12) 0.96455(10)
O1D_2 O 1.22005(17) -0.00383(12) 0.96455(10)
O2D O 1.00997(15) -0.17040(13) 1.04276(10)
O3D O 0.29177(18) -0.18353(15) 0.99439(10)
N1D N 0.9357(2) -0.05946(16) 0.88618(10)
N2D N 0.8097(3) -0.1773(2) 0.66105(12)
H1D H 0.7397 -0.1429 0.6352
H2D H 0.8539 -0.2366 0.6407
C1D C 0.8275(3) -0.00804(19) 0.84363(15)
H3D H 0.7795 0.0556 0.8661
C2D C 0.9635(3) -0.1926(2) 0.77782(14)
H4D H 1.0129 -0.2567 0.7569
C3D C 0.4795(2) -0.0415(2) 0.96570(16)
H5D H 0.5452 -0.1084 0.9665
H6D H 0.4922 -0.0022 0.9151
C4D C 0.8507(3) -0.1382(2) 0.73408(13)
C5D C 0.3185(2) -0.08038(19) 0.97492(13)
C6D C 0.7829(3) -0.0427(2) 0.76973(15)
H7D H 0.7076 -0.0027 0.7433
C7D C 1.0013(2) -0.1514(2) 0.85138(15)
H8D H 1.077 -0.1893 0.8791
H9D H 1.0926 -0.1903 1.0203
H10D H 0.931 -0.2223 1.0274
loop_
_geom_bond_atom_site_label_1
_geom_bond_atom_site_label_2
_geom_bond_site_symmetry_1
_geom_bond_site_symmetry_2
Ni1 O1 1_555 1_555
O1 C5 1_555 1_555
O2 Ni1 1_555 1_555
O3 C5 1_555 1_555
N1 Ni1 1_555 1_555
N2 H1 1_555 1_555
H2 N2 1_555 1_555
C1 N1 1_555 1_555
H3 C1 1_555 1_555
C2 H4 1_555 1_555
C3 H5 1_555 1_555
H6 C3 1_555 1_555
C4 N2 1_555 1_555
C5 C3 1_555 1_555
C6 C1 1_555 1_555
H7 C6 1_555 1_555
C7 N1 1_555 1_555
H8 C7 1_555 1_555
H9 O2 1_555 1_555
H10 O2 1_555 1_555
Ni1_2 O1D 1_555 1_555
O1D C5D 1_555 1_555
O1D_2 Ni1 1_555 1_555
O2D Ni1 1_555 1_555
O3D C5D 1_555 1_555
N1D Ni1 1_555 1_555
N2D H1D 1_555 1_555
H2D N2D 1_555 1_555
C1D N1D 1_555 1_555
H3D C1D 1_555 1_555
C2D H4D 1_555 1_555
C3D C3 1_555 1_555
H5D C3D 1_555 1_555
H6D C3D 1_555 1_555
C4D N2D 1_555 1_555
C5D C3D 1_555 1_555
C6D C1D 1_555 1_555
H7D C6D 1_555 1_555
C7D N1D 1_555 1_555
H8D C7D 1_555 1_555
H9D O2D 1_555 1_555
H10D O2D 1_555 1_555
C2 C4 1_555 1_555
C2 C7 1_555 1_555
C4 C6 1_555 1_555
C2D C4D 1_555 1_555
C2D C7D 1_555 1_555
C4D C6D 1_555 1_555

#END
