
#######################################################################
#
#                 Cambridge Crystallographic Data Centre
#                                CCDC 
#
#######################################################################
#
# If this CIF has been generated from an entry in the Cambridge 
# Structural Database, then it will include bibliographic, chemical, 
# crystal, experimental, refinement or atomic coordinate data resulting 
# from the CCDC's data processing and validation procedures.
#
#######################################################################

data_IPEJET
_symmetry_cell_setting           monoclinic
_symmetry_space_group_name_H-M   'P 2/n'
_symmetry_Int_Tables_number      13
_space_group_name_Hall           '-P 2yac'
loop_
_symmetry_equiv_pos_site_id
_symmetry_equiv_pos_as_xyz
1 x,y,z
2 1/2-x,y,1/2-z
3 -x,-y,-z
4 1/2+x,-y,1/2+z
_cell_length_a                   12.4154(15)
_cell_length_b                   11.2686(14)
_cell_length_c                   13.6322(17)
_cell_angle_alpha                90
_cell_angle_beta                 107.4520(10)
_cell_angle_gamma                90
_cell_volume                     1819.41
loop_
_atom_site_label
_atom_site_type_symbol
_atom_site_fract_x
_atom_site_fract_y
_atom_site_fract_z
C1 C 0.63250(19) 1.25855(19) 1.06974(18)
C2 C 0.70785(19) 1.15362(18) 1.08314(18)
C3 C 0.66981(19) 1.03847(19) 1.08883(19)
H1 H 0.5952 1.0257 1.0869
C4 C 0.7417(2) 0.94281(19) 1.09728(19)
H2 H 0.7157 0.8660 1.1010
C5 C 0.85228(19) 0.96224(17) 1.10013(17)
C6 C 0.89208(19) 1.07587(19) 1.0953(2)
H3 H 0.9669 1.0885 1.0977
C7 C 0.81907(19) 1.17044(19) 1.0867(2)
H4 H 0.8454 1.2471 1.0832
C8 C 0.91069(18) 0.76454(18) 1.14740(16)
C9 C 0.9200(2) 0.7591(2) 1.25033(19)
H5 H 0.9358 0.8273 1.2905
C10 C 0.9059(2) 0.6524(3) 1.29350(18)
H6 H 0.9127 0.6484 1.3632
C11 C 0.8818(2) 0.5516(2) 1.23440(18)
H7 H 0.8710 0.4798 1.2638
C12 C 0.87349(17) 0.55718(18) 1.13140(16)
H8 H 0.8574 0.4887 1.0915
C13 C 0.88901(15) 0.66426(16) 1.08635(14)
C14 C 0.88573(16) 0.66675(15) 0.97502(14)
C15 C 0.68585(17) 0.40080(16) 0.67022(15)
H9 H 0.6399 0.4421 0.6141
C16 C 0.68416(17) 0.27862(16) 0.66670(15)
H10 H 0.6392 0.2392 0.6089
C17 C 0.7500 0.2151(2) 0.7500
C18 C 0.7500 0.0831(2) 0.7500
C19 C 0.7874(2) 0.01960(17) 0.68018(17)
H11 H 0.8121 0.0589 0.6309
C20 C 0.78807(19) -0.10286(17) 0.68396(17)
H12 H 0.8165 -0.1442 0.6381
N1 N 0.7500 0.46326(17) 0.7500
N2 N 0.7500 -0.16469(17) 0.7500
Ni1 Ni 0.7500 0.65026(2) 0.7500
O1 O 0.66480(15) 1.35891(14) 1.06420(17)
O2 O 0.52725(14) 1.23341(15) 1.06182(17)
H13 H 0.4914 1.2951 1.0586
O3 O 0.92840(14) 0.87172(12) 1.10311(14)
O4 O 0.79014(10) 0.65019(10) 0.90959(9)
O5 O 0.97546(13) 0.67970(18) 0.95444(11)
O6 O 0.91748(10) 0.65841(11) 0.75393(10)
H14 H 0.9579 0.6595 0.8164
H15 H 0.9386 0.5984 0.7278
C1A C 0.86750(19) 1.25855(19) 0.43026(18)
C2A C 0.79215(19) 1.15362(18) 0.41686(18)
C3A C 0.83019(19) 1.03847(19) 0.41117(19)
H1A H 0.9048 1.0257 0.4131
C4A C 0.7583(2) 0.94281(19) 0.40272(19)
H2A H 0.7843 0.8660 0.3990
C5A C 0.64772(19) 0.96224(17) 0.39987(17)
C6A C 0.60792(19) 1.07587(19) 0.4047(2)
H3A H 0.5331 1.0885 0.4023
C7A C 0.68093(19) 1.17044(19) 0.4133(2)
H4A H 0.6546 1.2471 0.4168
C8A C 0.58931(18) 0.76454(18) 0.35260(16)
C9A C 0.5800(2) 0.7591(2) 0.24967(19)
H5A H 0.5642 0.8273 0.2095
C10A C 0.5941(2) 0.6524(3) 0.20650(18)
H6A H 0.5873 0.6484 0.1368
C11A C 0.6182(2) 0.5516(2) 0.26560(18)
H7A H 0.6290 0.4798 0.2362
C12A C 0.62651(17) 0.55718(18) 0.36860(16)
H8A H 0.6426 0.4887 0.4085
C13A C 0.61099(15) 0.66426(16) 0.41365(14)
C14A C 0.61427(16) 0.66675(15) 0.52498(14)
C15A C 0.81415(17) 0.40080(16) 0.82978(15)
H9A H 0.8601 0.4421 0.8859
C16A C 0.81584(17) 0.27862(16) 0.83330(15)
H10A H 0.8608 0.2392 0.8911
C19A C 0.7126(2) 0.01960(17) 0.81982(17)
H11A H 0.6879 0.0589 0.8691
C20A C 0.71193(19) -0.10286(17) 0.81604(17)
H12A H 0.6835 -0.1442 0.8619
N2_2 N 0.7500 0.83531(17) 0.7500
Ni1_2 Ni 0.7500 -0.34974(2) 0.7500
O1A O 0.83520(15) 1.35891(14) 0.43580(17)
O2A O 0.97275(14) 1.23341(15) 0.43818(17)
H13A H 1.0086 1.2951 0.4414
O3A O 0.57160(14) 0.87172(12) 0.39689(14)
O4A O 0.70986(10) 0.65019(10) 0.59041(9)
O5A O 0.52454(13) 0.67970(18) 0.54556(11)
O6A O 0.58252(10) 0.65841(11) 0.74607(10)
H14A H 0.5421 0.6595 0.6836
H15A H 0.5614 0.5984 0.7722
O7 O 0.40125(12) 0.42565(13) 0.04990(12)
H16 H 0.3344 0.4083 0.0478
H17 H 0.3978 0.4875 0.0147
loop_
_geom_bond_atom_site_label_1
_geom_bond_atom_site_label_2
_geom_bond_site_symmetry_1
_geom_bond_site_symmetry_2
C1 C2 1_555 1_555
C2 C3 1_555 1_555
C3 H1 1_555 1_555
C4 C3 1_555 1_555
H2 C4 1_555 1_555
C5 C4 1_555 1_555
C6 C5 1_555 1_555
H3 C6 1_555 1_555
C7 C2 1_555 1_555
H4 C7 1_555 1_555
C8 C9 1_555 1_555
C9 H5 1_555 1_555
C10 C9 1_555 1_555
H6 C10 1_555 1_555
C11 C10 1_555 1_555
H7 C11 1_555 1_555
C12 C11 1_555 1_555
H8 C12 1_555 1_555
C13 C8 1_555 1_555
C14 C13 1_555 1_555
C15 H9 1_555 1_555
C16 C15 1_555 1_555
H10 C16 1_555 1_555
C17 C16 1_555 1_555
C18 C17 1_555 1_555
C19 C18 1_555 1_555
H11 C19 1_555 1_555
C20 C19 1_555 1_555
H12 C20 1_555 1_555
N1 C15 1_555 1_555
N2 C20 1_555 1_555
Ni1 N1 1_555 1_555
O1 C1 1_555 1_555
O2 C1 1_555 1_555
H13 O2 1_555 1_555
O3 C5 1_555 1_555
O4 C14 1_555 1_555
O5 C14 1_555 1_555
O6 Ni1 1_555 1_555
H14 O6 1_555 1_555
H15 O6 1_555 1_555
O7 H16 1_555 1_555
H17 O7 1_555 1_555
C1A C2A 1_555 1_555
C2A C3A 1_555 1_555
C3A H1A 1_555 1_555
C4A C3A 1_555 1_555
H2A C4A 1_555 1_555
C5A C4A 1_555 1_555
C6A C5A 1_555 1_555
H3A C6A 1_555 1_555
C7A C2A 1_555 1_555
H4A C7A 1_555 1_555
C8A C9A 1_555 1_555
C9A H5A 1_555 1_555
C10A C9A 1_555 1_555
H6A C10A 1_555 1_555
C11A C10A 1_555 1_555
H7A C11A 1_555 1_555
C12A C11A 1_555 1_555
H8A C12A 1_555 1_555
C13A C8A 1_555 1_555
C14A C13A 1_555 1_555
C15A N1 1_555 1_555
H9A C15A 1_555 1_555
C16A C17 1_555 1_555
H10A C16A 1_555 1_555
C19A C18 1_555 1_555
H11A C19A 1_555 1_555
C20A N2 1_555 1_555
H12A C20A 1_555 1_555
N2_2 Ni1 1_555 1_555
Ni1_2 N2 1_555 1_555
O1A C1A 1_555 1_555
O2A C1A 1_555 1_555
H13A O2A 1_555 1_555
O3A C5A 1_555 1_555
O4A Ni1 1_555 1_555
O5A C14A 1_555 1_555
O6A Ni1 1_555 1_555
H14A O6A 1_555 1_555
H15A O6A 1_555 1_555
C6 C7 1_555 1_555
C8 O3 1_555 1_555
C12 C13 1_555 1_555
Ni1 O4 1_555 1_555
C6A C7A 1_555 1_555
C8A O3A 1_555 1_555
C12A C13A 1_555 1_555
C14A O4A 1_555 1_555
C15A C16A 1_555 1_555
C19A C20A 1_555 1_555

#END
