
#######################################################################
#
#                 Cambridge Crystallographic Data Centre
#                                CCDC 
#
#######################################################################
#
# If this CIF has been generated from an entry in the Cambridge 
# Structural Database, then it will include bibliographic, chemical, 
# crystal, experimental, refinement or atomic coordinate data resulting 
# from the CCDC's data processing and validation procedures.
#
#######################################################################

data_IPEJET03
_symmetry_cell_setting           monoclinic
_symmetry_space_group_name_H-M   'P 2/n'
_symmetry_Int_Tables_number      13
_space_group_name_Hall           '-P 2yac'
loop_
_symmetry_equiv_pos_site_id
_symmetry_equiv_pos_as_xyz
1 x,y,z
2 1/2-x,y,1/2-z
3 -x,-y,-z
4 1/2+x,-y,1/2+z
_cell_length_a                   12.4477(10)
_cell_length_b                   11.2748(7)
_cell_length_c                   13.6629(16)
_cell_angle_alpha                90
_cell_angle_beta                 107.632(2)
_cell_angle_gamma                90
_cell_volume                     1827.44
loop_
_atom_site_label
_atom_site_type_symbol
_atom_site_fract_x
_atom_site_fract_y
_atom_site_fract_z
Ni1 Ni 0.7500 0.65047(6) 0.7500
N1 N 0.7500 0.4633(4) 0.7500
N2 N 0.7500 -0.1648(4) 0.7500
O1 O 0.7906(2) 0.6502(2) 0.90962(19)
O2 O 0.9749(2) 0.6805(3) 0.9551(2)
O3 O 0.6644(3) 1.3600(3) 1.0628(3)
O4 O 0.5271(3) 1.2341(3) 1.0617(3)
H1 H 0.4901 1.2955 1.0538
O5 O 0.9277(3) 0.8716(2) 1.1038(3)
O6 O 0.5829(2) 0.6589(2) 0.7448(2)
H2 H 0.5689 0.6155 0.7904
H3 H 0.5385 0.6414 0.6859
C1 C 0.8853(3) 0.6665(3) 0.9756(3)
C2 C 0.8888(3) 0.6632(3) 1.0865(3)
C3 C 0.9099(3) 0.7646(4) 1.1473(3)
C4 C 0.9194(4) 0.7594(5) 1.2506(4)
H4 H 0.9351 0.8275 1.2908
C5 C 0.9054(4) 0.6525(5) 1.2933(4)
H5 H 0.9119 0.6484 1.3628
C6 C 0.8820(4) 0.5517(4) 1.2346(4)
H6 H 0.8720 0.4796 1.2639
C7 C 0.8732(4) 0.5581(4) 1.1315(4)
H7 H 0.8564 0.4898 1.0916
C8 C 0.6335(4) 1.2599(4) 1.0691(3)
C9 C 0.7069(4) 1.1546(4) 1.0824(3)
C10 C 0.6701(4) 1.0395(4) 1.0887(4)
H8 H 0.5958 1.0268 1.0872
C11 C 0.7416(4) 0.9429(4) 1.0973(4)
H9 H 0.7156 0.8662 1.1009
C12 C 0.8525(4) 0.9629(4) 1.1005(3)
C13 C 0.8912(4) 1.0757(4) 1.0944(4)
H10 H 0.9655 1.0880 1.0957
C14 C 0.8192(4) 1.1707(4) 1.0863(4)
H11 H 0.8462 1.2472 1.0834
C15 C 0.6851(3) 0.4016(3) 0.6702(3)
H12 H 0.6386 0.4429 0.6145
C16 C 0.6843(3) 0.2787(3) 0.6671(3)
H13 H 0.6397 0.2389 0.6095
C17 C 0.7500 0.2162(5) 0.7500
C18 C 0.7885(4) -0.1026(3) 0.6846(3)
H14 H 0.8170 -0.1439 0.6389
C19 C 0.7883(4) 0.0191(3) 0.6811(3)
H15 H 0.8138 0.0585 0.6326
C20 C 0.7500 0.0824(5) 0.7500
C15A C 0.8149(3) 0.4016(3) 0.8298(3)
H12A H 0.8614 0.4429 0.8855
C16A C 0.8157(3) 0.2787(3) 0.8329(3)
H13A H 0.8603 0.2389 0.8905
C18A C 0.7115(4) -0.1026(3) 0.8154(3)
H14A H 0.6830 -0.1439 0.8611
C19A C 0.7117(4) 0.0191(3) 0.8189(3)
H15A H 0.6862 0.0585 0.8674
O1A O 0.7094(2) 0.6502(2) 0.59038(19)
O2A O 0.5251(2) 0.6805(3) 0.5449(2)
O3A O 0.8356(3) 1.3600(3) 0.4372(3)
O4A O 0.9729(3) 1.2341(3) 0.4383(3)
H1A H 1.0099 1.2955 0.4462
O5A O 0.5723(3) 0.8716(2) 0.3962(3)
O6A O 0.9171(2) 0.6589(2) 0.7552(2)
H2A H 0.9311 0.6155 0.7096
H3A H 0.9615 0.6414 0.8141
C1A C 0.6147(3) 0.6665(3) 0.5244(3)
C2A C 0.6112(3) 0.6632(3) 0.4135(3)
C3A C 0.5901(3) 0.7646(4) 0.3527(3)
C4A C 0.5806(4) 0.7594(5) 0.2494(4)
H4A H 0.5649 0.8275 0.2092
C5A C 0.5946(4) 0.6525(5) 0.2067(4)
H5A H 0.5881 0.6484 0.1372
C6A C 0.6180(4) 0.5517(4) 0.2654(4)
H6A H 0.6280 0.4796 0.2361
C7A C 0.6268(4) 0.5581(4) 0.3685(4)
H7A H 0.6436 0.4898 0.4084
C8A C 0.8665(4) 1.2599(4) 0.4309(3)
C9A C 0.7931(4) 1.1546(4) 0.4176(3)
C10A C 0.8299(4) 1.0395(4) 0.4113(4)
H8A H 0.9042 1.0268 0.4128
C11A C 0.7584(4) 0.9429(4) 0.4027(4)
H9A H 0.7844 0.8662 0.3991
C12A C 0.6475(4) 0.9629(4) 0.3995(3)
C13A C 0.6088(4) 1.0757(4) 0.4056(4)
H10A H 0.5345 1.0880 0.4043
C14A C 0.6808(4) 1.1707(4) 0.4137(4)
H11A H 0.6538 1.2472 0.4166
Ni1_2 Ni 0.7500 -0.34953(6) 0.7500
N2_2 N 0.7500 0.8352(4) 0.7500
O7 O 0.9012(2) 0.5745(2) 0.5495(2)
H16 H 0.8428 0.6000 0.5628
H17 H 0.8841 0.5105 0.5155
loop_
_geom_bond_atom_site_label_1
_geom_bond_atom_site_label_2
_geom_bond_site_symmetry_1
_geom_bond_site_symmetry_2
Ni1 N1 1_555 1_555
N1 C15 1_555 1_555
N2 C18 1_555 1_555
O1 Ni1 1_555 1_555
O2 C1 1_555 1_555
O3 C8 1_555 1_555
O4 H1 1_555 1_555
O5 C3 1_555 1_555
O6 Ni1 1_555 1_555
H2 O6 1_555 1_555
H3 O6 1_555 1_555
C1 O1 1_555 1_555
C2 C1 1_555 1_555
C3 C2 1_555 1_555
C4 C3 1_555 1_555
H4 C4 1_555 1_555
C5 C4 1_555 1_555
H5 C5 1_555 1_555
C6 C5 1_555 1_555
H6 C6 1_555 1_555
C7 C2 1_555 1_555
H7 C7 1_555 1_555
C8 O4 1_555 1_555
C9 C8 1_555 1_555
C10 C9 1_555 1_555
H8 C10 1_555 1_555
C11 C10 1_555 1_555
H9 C11 1_555 1_555
C12 O5 1_555 1_555
C13 C12 1_555 1_555
H10 C13 1_555 1_555
C14 C9 1_555 1_555
H11 C14 1_555 1_555
C15 H12 1_555 1_555
C16 C15 1_555 1_555
H13 C16 1_555 1_555
C17 C16 1_555 1_555
C18 H14 1_555 1_555
C19 C18 1_555 1_555
H15 C19 1_555 1_555
C20 C17 1_555 1_555
O7 H16 1_555 1_555
H17 O7 1_555 1_555
C15A N1 1_555 1_555
H12A C15A 1_555 1_555
C16A C17 1_555 1_555
H13A C16A 1_555 1_555
C18A N2 1_555 1_555
H14A C18A 1_555 1_555
C19A C20 1_555 1_555
H15A C19A 1_555 1_555
O1A Ni1 1_555 1_555
O2A C1A 1_555 1_555
O3A C8A 1_555 1_555
O4A H1A 1_555 1_555
O5A C3A 1_555 1_555
O6A Ni1 1_555 1_555
H2A O6A 1_555 1_555
H3A O6A 1_555 1_555
C1A O1A 1_555 1_555
C2A C1A 1_555 1_555
C3A C2A 1_555 1_555
C4A C3A 1_555 1_555
H4A C4A 1_555 1_555
C5A C4A 1_555 1_555
H5A C5A 1_555 1_555
C6A C5A 1_555 1_555
H6A C6A 1_555 1_555
C7A C2A 1_555 1_555
H7A C7A 1_555 1_555
C8A O4A 1_555 1_555
C9A C8A 1_555 1_555
C10A C9A 1_555 1_555
H8A C10A 1_555 1_555
C11A C10A 1_555 1_555
H9A C11A 1_555 1_555
C12A O5A 1_555 1_555
C13A C12A 1_555 1_555
H10A C13A 1_555 1_555
C14A C9A 1_555 1_555
H11A C14A 1_555 1_555
Ni1_2 N2 1_555 1_555
N2_2 Ni1 1_555 1_555
C6 C7 1_555 1_555
C11 C12 1_555 1_555
C13 C14 1_555 1_555
C19 C20 1_555 1_555
C15A C16A 1_555 1_555
C18A C19A 1_555 1_555
C6A C7A 1_555 1_555
C11A C12A 1_555 1_555
C13A C14A 1_555 1_555

#END
