
#######################################################################
#
#                 Cambridge Crystallographic Data Centre
#                                CCDC 
#
#######################################################################
#
# If this CIF has been generated from an entry in the Cambridge 
# Structural Database, then it will include bibliographic, chemical, 
# crystal, experimental, refinement or atomic coordinate data resulting 
# from the CCDC's data processing and validation procedures.
#
#######################################################################

data_IPEJIX
_symmetry_cell_setting           monoclinic
_symmetry_space_group_name_H-M   'P 21/c'
_symmetry_Int_Tables_number      14
_space_group_name_Hall           '-P 2ybc'
loop_
_symmetry_equiv_pos_site_id
_symmetry_equiv_pos_as_xyz
1 x,y,z
2 -x,1/2+y,1/2-z
3 -x,-y,-z
4 x,1/2-y,1/2+z
_cell_length_a                   8.394(4)
_cell_length_b                   10.807(6)
_cell_length_c                   20.209(9)
_cell_angle_alpha                90
_cell_angle_beta                 109.240(17)
_cell_angle_gamma                90
_cell_volume                     1730.85
loop_
_atom_site_label
_atom_site_type_symbol
_atom_site_fract_x
_atom_site_fract_y
_atom_site_fract_z
Zn1 Zn 0.08127(14) 0.64105(9) 0.04866(7)
O1 O 0.2402(9) 0.5077(6) 0.0416(5)
O2 O 0.1101(9) 0.3280(6) 0.0357(4)
O3 O 0.3001(12) 0.1499(6) 0.1277(4)
O4 O 0.0668(10) 0.2870(7) 0.3897(4)
O5 O -0.0248(10) 0.0956(6) 0.3698(4)
N1 N 0.2384(10) 0.7797(6) 0.0405(5)
C1 C 0.1745(13) 0.8783(9) 0.0041(7)
H1 H 0.0581 0.8892 -0.0111
C2 C 0.2744(12) 0.9678(9) -0.0127(7)
H2 H 0.2246 1.0361 -0.0397
C3 C 0.4426(12) 0.9548(8) 0.0101(6)
C4 C 0.5090(13) 0.8514(8) 0.0489(6)
H3 H 0.6248 0.8374 0.0643
C5 C 0.4011(13) 0.7682(9) 0.0648(6)
H4 H 0.4456 0.7031 0.0941
C6 C 0.2425(12) 0.3929(8) 0.0540(6)
C7 C 0.4068(12) 0.3350(8) 0.0906(6)
C8 C 0.5497(14) 0.3972(10) 0.0852(7)
H5 H 0.5365 0.4717 0.0610
C9 C 0.7084(15) 0.3483(14) 0.1155(8)
H6 H 0.8024 0.3908 0.1128
C10 C 0.728(2) 0.2375(16) 0.1496(8)
H7 H 0.8350 0.2065 0.1709
C11 C 0.5889(19) 0.1734(12) 0.1553(7)
H8 H 0.6021 0.0984 0.1791
C12 C 0.4326(15) 0.2242(10) 0.1246(6)
C13 C 0.2438(15) 0.1636(8) 0.1840(6)
C14 C 0.2659(15) 0.2728(9) 0.2212(6)
H9 H 0.3226 0.3394 0.2102
C15 C 0.1997(15) 0.2793(9) 0.2762(6)
H10 H 0.2099 0.3532 0.3008
C16 C 0.1182(13) 0.1792(9) 0.2960(6)
C17 C 0.1012(14) 0.0713(8) 0.2547(6)
H11 H 0.0473 0.0028 0.2654
C18 C 0.1600(15) 0.0639(9) 0.2005(6)
H12 H 0.1445 -0.0082 0.1740
C19 C 0.0524(13) 0.1893(10) 0.3528(6)
Zn1B Zn -0.08127(14) 0.35895(9) -0.04866(7)
Zn1A Zn -0.08127(14) 0.14105(9) 0.45134(7)
Zn1B_2 Zn 0.91873(14) 1.35895(9) -0.04866(7)
Zn1C Zn 0.08127(14) 0.85895(9) -0.45134(7)
O1B O -0.2402(9) 0.4923(6) -0.0416(5)
O2B O -0.1101(9) 0.6720(6) -0.0357(4)
O3B O -0.3001(12) 0.8501(6) -0.1277(4)
O4B O -0.0668(10) 0.7130(7) -0.3897(4)
O5B O 0.0248(10) 0.9044(6) -0.3698(4)
O5A O 0.0248(10) 0.5956(6) 0.1302(4)
O5C O -0.0248(10) 0.4044(6) -0.1302(4)
N1B N 0.7616(10) 1.2203(6) -0.0405(5)
N1B_2 N -0.2384(10) 0.2203(6) -0.0405(5)
C1B C 0.8255(13) 1.1217(9) -0.0041(7)
H1B H 0.9419 1.1108 0.0111
C2B C 0.7256(12) 1.0322(9) 0.0127(7)
H2B H 0.7754 0.9639 0.0397
C3B C 0.5574(12) 1.0452(8) -0.0101(6)
C4B C 0.4910(13) 1.1486(8) -0.0489(6)
H3B H 0.3752 1.1626 -0.0643
C5B C 0.5989(13) 1.2318(9) -0.0648(6)
H4B H 0.5544 1.2969 -0.0941
C6B C -0.2425(12) 0.6071(8) -0.0540(6)
C7B C -0.4068(12) 0.6650(8) -0.0906(6)
C8B C -0.5497(14) 0.6028(10) -0.0852(7)
H5B H -0.5365 0.5283 -0.0610
C9B C -0.7084(15) 0.6517(14) -0.1155(8)
H6B H -0.8024 0.6092 -0.1128
C10B C -0.728(2) 0.7625(16) -0.1496(8)
H7B H -0.8350 0.7935 -0.1709
C11B C -0.5889(19) 0.8266(12) -0.1553(7)
H8B H -0.6021 0.9016 -0.1791
C12B C -0.4326(15) 0.7758(10) -0.1246(6)
C13B C -0.2438(15) 0.8364(8) -0.1840(6)
C14B C -0.2659(15) 0.7272(9) -0.2212(6)
H9B H -0.3226 0.6606 -0.2102
C15B C -0.1997(15) 0.7207(9) -0.2762(6)
H10B H -0.2099 0.6468 -0.3008
C16B C -0.1182(13) 0.8208(9) -0.2960(6)
C17B C -0.1012(14) 0.9287(8) -0.2547(6)
H11B H -0.0473 0.9972 -0.2654
C18B C -0.1600(15) 0.9361(9) -0.2005(6)
H12B H -0.1445 1.0082 -0.1740
C19B C -0.0524(13) 0.8107(10) -0.3528(6)
loop_
_geom_bond_atom_site_label_1
_geom_bond_atom_site_label_2
_geom_bond_site_symmetry_1
_geom_bond_site_symmetry_2
Zn1 O1 1_555 1_555
O1 C6 1_555 1_555
O2 C6 1_555 1_555
O3 C12 1_555 1_555
O4 C19 1_555 1_555
O5 C19 1_555 1_555
N1 Zn1 1_555 1_555
C1 N1 1_555 1_555
H1 C1 1_555 1_555
C2 C1 1_555 1_555
H2 C2 1_555 1_555
C3 C2 1_555 1_555
C4 C3 1_555 1_555
H3 C4 1_555 1_555
C5 N1 1_555 1_555
H4 C5 1_555 1_555
C6 C7 1_555 1_555
C7 C8 1_555 1_555
C8 H5 1_555 1_555
C9 C8 1_555 1_555
H6 C9 1_555 1_555
C10 C9 1_555 1_555
H7 C10 1_555 1_555
C11 C10 1_555 1_555
H8 C11 1_555 1_555
C12 C7 1_555 1_555
C13 O3 1_555 1_555
C14 C13 1_555 1_555
H9 C14 1_555 1_555
C15 C14 1_555 1_555
H10 C15 1_555 1_555
C16 C15 1_555 1_555
C17 C16 1_555 1_555
H11 C17 1_555 1_555
C18 C13 1_555 1_555
H12 C18 1_555 1_555
C19 C16 1_555 1_555
Zn1B O2 1_555 1_555
Zn1A O5 1_555 1_555
Zn1B_2 N1B 1_555 1_555
Zn1C O5B 1_555 1_555
O1B Zn1B 1_555 1_555
O2B Zn1 1_555 1_555
O3B C12B 1_555 1_555
O4B C19B 1_555 1_555
O5B C19B 1_555 1_555
O5A Zn1 1_555 1_555
O5C Zn1B 1_555 1_555
N1B C1B 1_555 1_555
N1B_2 Zn1B 1_555 1_555
C1B H1B 1_555 1_555
C2B C1B 1_555 1_555
H2B C2B 1_555 1_555
C3B C3 1_555 1_555
C4B C3B 1_555 1_555
H3B C4B 1_555 1_555
C5B N1B 1_555 1_555
H4B C5B 1_555 1_555
C6B O1B 1_555 1_555
C7B C6B 1_555 1_555
C8B C7B 1_555 1_555
H5B C8B 1_555 1_555
C9B C8B 1_555 1_555
H6B C9B 1_555 1_555
C10B C9B 1_555 1_555
H7B C10B 1_555 1_555
C11B C10B 1_555 1_555
H8B C11B 1_555 1_555
C12B C7B 1_555 1_555
C13B O3B 1_555 1_555
C14B C13B 1_555 1_555
H9B C14B 1_555 1_555
C15B C14B 1_555 1_555
H10B C15B 1_555 1_555
C16B C15B 1_555 1_555
C17B C16B 1_555 1_555
H11B C17B 1_555 1_555
C18B C13B 1_555 1_555
H12B C18B 1_555 1_555
C19B C16B 1_555 1_555
C4 C5 1_555 1_555
C11 C12 1_555 1_555
C17 C18 1_555 1_555
O2B C6B 1_555 1_555
C2B C3B 1_555 1_555
C4B C5B 1_555 1_555
C11B C12B 1_555 1_555
C17B C18B 1_555 1_555

#END
