
#######################################################################
#
#                 Cambridge Crystallographic Data Centre
#                                CCDC 
#
#######################################################################
#
# If this CIF has been generated from an entry in the Cambridge 
# Structural Database, then it will include bibliographic, chemical, 
# crystal, experimental, refinement or atomic coordinate data resulting 
# from the CCDC's data processing and validation procedures.
#
#######################################################################

data_IPEJIX01
_symmetry_cell_setting           monoclinic
_symmetry_space_group_name_H-M   'P 21/n'
_symmetry_Int_Tables_number      14
_space_group_name_Hall           '-P 2yn'
loop_
_symmetry_equiv_pos_site_id
_symmetry_equiv_pos_as_xyz
1 x,y,z
2 1/2-x,1/2+y,1/2-z
3 -x,-y,-z
4 1/2+x,1/2-y,1/2+z
_cell_length_a                   8.3355(7)
_cell_length_b                   10.7168(9)
_cell_length_c                   19.0538(18)
_cell_angle_alpha                90
_cell_angle_beta                 95.0940(10)
_cell_angle_gamma                90
_cell_volume                     1695.35
loop_
_atom_site_label
_atom_site_type_symbol
_atom_site_fract_x
_atom_site_fract_y
_atom_site_fract_z
Zn1 Zn 0.46755(5) -0.14097(4) 0.04881(3)
N1 N 0.3052(3) -0.2792(3) 0.04036(16)
O1 O 0.3037(3) -0.0076(3) 0.04309(15)
O2 O 0.4274(3) 0.1724(3) 0.03689(14)
O3 O 0.8936(3) 0.4056(3) 0.36883(14)
O4 O 0.8223(3) 0.2134(3) 0.38877(15)
O5 O 0.3296(4) 0.3508(3) 0.12722(14)
C1 C 0.3152(4) 0.1076(4) 0.0549(2)
C2 C 0.1812(4) 0.1651(4) 0.0899(2)
C3 C 0.1931(5) 0.2775(4) 0.1249(2)
C4 C 0.0634(7) 0.3250(5) 0.1553(2)
H1 H 0.0726 0.4000 0.1799
C5 C -0.0813(7) 0.2611(7) 0.1493(3)
H2 H -0.1698 0.2944 0.1692
C6 C -0.0957(5) 0.1506(6) 0.1147(3)
H3 H -0.1932 0.1079 0.1105
C7 C 0.0354(4) 0.1036(4) 0.0863(2)
H4 H 0.0264 0.0269 0.0634
C8 C 0.8053(5) 0.3105(5) 0.3542(2)
C9 C 0.6775(5) 0.3209(4) 0.2949(2)
C10 C 0.5799(5) 0.2219(4) 0.2774(2)
H5 H 0.5936 0.1483 0.3030
C11 C 0.4613(5) 0.2283(4) 0.2224(2)
H6 H 0.3947 0.1602 0.2113
C12 C 0.4430(5) 0.3368(4) 0.1842(2)
C13 C 0.5412(5) 0.4371(4) 0.2004(2)
H7 H 0.5292 0.5101 0.1740
C14 C 0.6577(5) 0.4289(4) 0.2560(2)
H8 H 0.7238 0.4972 0.2675
C15 C 0.1616(4) -0.2671(4) 0.0638(2)
H9 H 0.1425 -0.1985 0.0917
C16 C 0.0396(4) -0.3512(4) 0.0487(2)
H10 H -0.0606 -0.3382 0.0654
C17 C 0.0657(4) -0.4549(4) 0.0089(2)
C18 C 0.2172(4) -0.4690(4) -0.0122(2)
H11 H 0.2425 -0.5392 -0.0377
C19 C 0.3311(4) -0.3799(4) 0.0041(2)
H12 H 0.4329 -0.3912 -0.0113
N1B N -0.3052(3) -0.7208(3) -0.04036(16)
C15B C -0.1616(4) -0.7329(4) -0.0638(2)
H9B H -0.1425 -0.8015 -0.0917
C16B C -0.0396(4) -0.6488(4) -0.0487(2)
H10B H 0.0606 -0.6618 -0.0654
C17B C -0.0657(4) -0.5451(4) -0.0089(2)
C18B C -0.2172(4) -0.5310(4) 0.0122(2)
H11B H -0.2425 -0.4608 0.0377
C19B C -0.3311(4) -0.6201(4) -0.0041(2)
H12B H -0.4329 -0.6088 0.0113
Zn1B Zn -0.46755(5) -0.85903(4) -0.04881(3)
O1B O -0.3037(3) -0.9924(3) -0.04309(15)
O2B O -0.4274(3) -1.1724(3) -0.03689(14)
O3B O -0.8936(3) -1.4056(3) -0.36883(14)
O4B O -0.8223(3) -1.2134(3) -0.38877(15)
O5B O -0.3296(4) -1.3508(3) -0.12722(14)
C1B C -0.3152(4) -1.1076(4) -0.0549(2)
C2B C -0.1812(4) -1.1651(4) -0.0899(2)
C3B C -0.1931(5) -1.2775(4) -0.1249(2)
C4B C -0.0634(7) -1.3250(5) -0.1553(2)
H1B H -0.0726 -1.4000 -0.1799
C5B C 0.0813(7) -1.2611(7) -0.1493(3)
H2B H 0.1698 -1.2944 -0.1692
C6B C 0.0957(5) -1.1506(6) -0.1147(3)
H3B H 0.1932 -1.1079 -0.1105
C7B C -0.0354(4) -1.1036(4) -0.0863(2)
H4B H -0.0264 -1.0269 -0.0634
C8B C -0.8053(5) -1.3105(5) -0.3542(2)
C9B C -0.6775(5) -1.3209(4) -0.2949(2)
C10B C -0.5799(5) -1.2219(4) -0.2774(2)
H5B H -0.5936 -1.1483 -0.3030
C11B C -0.4613(5) -1.2283(4) -0.2224(2)
H6B H -0.3947 -1.1602 -0.2113
C12B C -0.4430(5) -1.3368(4) -0.1842(2)
C13B C -0.5412(5) -1.4371(4) -0.2004(2)
H7B H -0.5292 -1.5101 -0.1740
C14B C -0.6577(5) -1.4289(4) -0.2560(2)
H8B H -0.7238 -1.4972 -0.2675
Zn1_2 Zn -0.53245(5) -1.14097(4) 0.04881(3)
Zn1A Zn 1.03245(5) 0.35903(4) 0.45119(3)
Zn1B_2 Zn 0.53245(5) 0.14097(4) -0.04881(3)
Zn1C Zn -1.03245(5) -1.35903(4) -0.45119(3)
O2_2 O -0.5726(3) -0.8276(3) 0.03689(14)
O2B_2 O 0.5726(3) -0.1724(3) -0.03689(14)
O3A O 0.6064(3) -0.0944(3) 0.13117(14)
O3C O -0.6064(3) -0.9056(3) -0.13117(14)
O4A O 0.6777(3) -0.2866(3) 0.11123(15)
O4C O -0.6777(3) -0.7134(3) -0.11123(15)
loop_
_geom_bond_atom_site_label_1
_geom_bond_atom_site_label_2
_geom_bond_site_symmetry_1
_geom_bond_site_symmetry_2
Zn1 N1 1_555 1_555
N1 C15 1_555 1_555
O1 Zn1 1_555 1_555
O2 C1 1_555 1_555
O3 C8 1_555 1_555
O4 C8 1_555 1_555
O5 C3 1_555 1_555
C1 O1 1_555 1_555
C2 C1 1_555 1_555
C3 C2 1_555 1_555
C4 C3 1_555 1_555
H1 C4 1_555 1_555
C5 C4 1_555 1_555
H2 C5 1_555 1_555
C6 C5 1_555 1_555
H3 C6 1_555 1_555
C7 C2 1_555 1_555
H4 C7 1_555 1_555
C8 C9 1_555 1_555
C9 C10 1_555 1_555
C10 H5 1_555 1_555
C11 C10 1_555 1_555
H6 C11 1_555 1_555
C12 O5 1_555 1_555
C13 C12 1_555 1_555
H7 C13 1_555 1_555
C14 C9 1_555 1_555
H8 C14 1_555 1_555
C15 H9 1_555 1_555
C16 C15 1_555 1_555
H10 C16 1_555 1_555
C17 C16 1_555 1_555
C18 C17 1_555 1_555
H11 C18 1_555 1_555
C19 N1 1_555 1_555
H12 C19 1_555 1_555
N1B C15B 1_555 1_555
C15B H9B 1_555 1_555
C16B C15B 1_555 1_555
H10B C16B 1_555 1_555
C17B C17 1_555 1_555
C18B C17B 1_555 1_555
H11B C18B 1_555 1_555
C19B N1B 1_555 1_555
H12B C19B 1_555 1_555
Zn1B N1B 1_555 1_555
O1B Zn1B 1_555 1_555
O2B C1B 1_555 1_555
O3B C8B 1_555 1_555
O4B C8B 1_555 1_555
O5B C3B 1_555 1_555
C1B O1B 1_555 1_555
C2B C1B 1_555 1_555
C3B C2B 1_555 1_555
C4B C3B 1_555 1_555
H1B C4B 1_555 1_555
C5B C4B 1_555 1_555
H2B C5B 1_555 1_555
C6B C5B 1_555 1_555
H3B C6B 1_555 1_555
C7B C2B 1_555 1_555
H4B C7B 1_555 1_555
C8B C9B 1_555 1_555
C9B C10B 1_555 1_555
C10B H5B 1_555 1_555
C11B C10B 1_555 1_555
H6B C11B 1_555 1_555
C12B O5B 1_555 1_555
C13B C12B 1_555 1_555
H7B C13B 1_555 1_555
C14B C9B 1_555 1_555
H8B C14B 1_555 1_555
Zn1_2 O2B 1_555 1_555
Zn1A O3 1_555 1_555
Zn1B_2 O2 1_555 1_555
Zn1C O3B 1_555 1_555
O2_2 Zn1B 1_555 1_555
O2B_2 Zn1 1_555 1_555
O3A Zn1 1_555 1_555
O3C Zn1B 1_555 1_555
O4A Zn1 1_555 1_555
O4C Zn1B 1_555 1_555
O4 Zn1A 1_555 1_555
C6 C7 1_555 1_555
C11 C12 1_555 1_555
C13 C14 1_555 1_555
C18 C19 1_555 1_555
C16B C17B 1_555 1_555
C18B C19B 1_555 1_555
O4B Zn1C 1_555 1_555
C6B C7B 1_555 1_555
C11B C12B 1_555 1_555
C13B C14B 1_555 1_555

#END
