
#######################################################################
#
#                 Cambridge Crystallographic Data Centre
#                                CCDC 
#
#######################################################################
#
# If this CIF has been generated from an entry in the Cambridge 
# Structural Database, then it will include bibliographic, chemical, 
# crystal, experimental, refinement or atomic coordinate data resulting 
# from the CCDC's data processing and validation procedures.
#
#######################################################################

data_IPEQEZ
_symmetry_cell_setting           monoclinic
_symmetry_space_group_name_H-M   'P 21/n'
_symmetry_Int_Tables_number      14
_space_group_name_Hall           '-P 2yn'
loop_
_symmetry_equiv_pos_site_id
_symmetry_equiv_pos_as_xyz
1 x,y,z
2 1/2+x,1/2-y,1/2+z
3 -x,-y,-z
4 1/2-x,1/2+y,1/2-z
_cell_length_a                   8.676(1)
_cell_length_b                   17.215(2)
_cell_length_c                   9.318(1)
_cell_angle_alpha                90
_cell_angle_beta                 112.81(1)
_cell_angle_gamma                90
_cell_volume                     1282.87
loop_
_atom_site_label
_atom_site_type_symbol
_atom_site_fract_x
_atom_site_fract_y
_atom_site_fract_z
S1 S 0.17600(6) 0.82451(3) 0.98552(6)
O1 O 0.60824(14) 0.62062(7) 1.10303(14)
N1 N 0.41513(16) 0.71687(8) 1.04339(16)
N2 N 0.3286(2) 0.67304(11) 1.1162(2)
H1 H 0.260(3) 0.7046(13) 1.129(2)
H2 H 0.411(3) 0.6572(13) 1.205(3)
N3 N 0.42798(17) 0.82354(9) 0.89181(17)
N4 N 0.57170(18) 0.79409(9) 0.88533(18)
C1 C 0.3497(2) 0.78668(10) 0.9705(2)
C2 C 0.5572(2) 0.68412(10) 1.03904(19)
C3 C 0.6352(2) 0.72890(11) 0.9558(2)
C4 C 0.7933(3) 0.69847(16) 0.9482(3)
H3 H 0.837(3) 0.7307(17) 0.902(3)
H4 H 0.782(4) 0.649(2) 0.904(4)
H5 H 0.880(3) 0.6950(14) 1.052(3)
Li1 Li 0.2967(4) 0.91800(17) 0.7726(4)
C5 C 0.0519(3) 1.02971(19) 0.8141(4)
H6 H 0.031(3) 0.9898(18) 0.875(3)
H7 H -0.028(3) 1.0285(15) 0.700(3)
H8 H 0.045(3) 1.0760(18) 0.860(3)
O2 O 0.22068(15) 1.02097(7) 0.82641(14)
C6 C 0.2629(3) 1.07776(13) 0.7368(3)
H9 H 0.252(2) 1.1283(14) 0.774(2)
H10 H 0.182(2) 1.0730(11) 0.625(2)
C7 C 0.4385(3) 1.06312(13) 0.7540(3)
H11 H 0.470(2) 1.0996(14) 0.686(2)
H12 H 0.518(3) 1.0682(14) 0.859(3)
O3 O 0.44639(14) 0.98570(7) 0.70616(15)
C8 C 0.6105(3) 0.96601(17) 0.7163(4)
H13 H 0.610(3) 0.9139(17) 0.686(3)
H14 H 0.692(3) 0.9756(14) 0.822(3)
H15 H 0.641(3) 1.0025(16) 0.645(3)
Li1A Li 0.7967(4) 0.58200(17) 1.2726(4)
O1A O 0.10824(14) 0.87938(7) 0.60303(14)
loop_
_geom_bond_atom_site_label_1
_geom_bond_atom_site_label_2
_geom_bond_site_symmetry_1
_geom_bond_site_symmetry_2
S1 C1 1_555 1_555
O1 C2 1_555 1_555
N1 N2 1_555 1_555
N2 H1 1_555 1_555
H2 N2 1_555 1_555
N3 N4 1_555 1_555
N4 C3 1_555 1_555
C1 N1 1_555 1_555
C2 N1 1_555 1_555
C3 C2 1_555 1_555
C4 C3 1_555 1_555
H3 C4 1_555 1_555
H4 C4 1_555 1_555
H5 C4 1_555 1_555
Li1 N3 1_555 1_555
C5 H6 1_555 1_555
H7 C5 1_555 1_555
H8 C5 1_555 1_555
O2 Li1 1_555 1_555
C6 O2 1_555 1_555
H9 C6 1_555 1_555
H10 C6 1_555 1_555
C7 C6 1_555 1_555
H11 C7 1_555 1_555
H12 C7 1_555 1_555
O3 Li1 1_555 1_555
C8 O3 1_555 1_555
H13 C8 1_555 1_555
H14 C8 1_555 1_555
H15 C8 1_555 1_555
Li1A O1 1_555 1_555
O1A Li1 1_555 1_555
N3 C1 1_555 1_555
C5 O2 1_555 1_555
C7 O3 1_555 1_555

#END
