
#######################################################################
#
#                 Cambridge Crystallographic Data Centre
#                                CCDC 
#
#######################################################################
#
# If this CIF has been generated from an entry in the Cambridge 
# Structural Database, then it will include bibliographic, chemical, 
# crystal, experimental, refinement or atomic coordinate data resulting 
# from the CCDC's data processing and validation procedures.
#
#######################################################################

data_IPEZIM
_symmetry_cell_setting           monoclinic
_symmetry_space_group_name_H-M   'C 2/c'
_symmetry_Int_Tables_number      15
_space_group_name_Hall           '-C 2yn'
loop_
_symmetry_equiv_pos_site_id
_symmetry_equiv_pos_as_xyz
1 x,y,z
2 1/2+x,1/2+y,z
3 x,-y,1/2+z
4 1/2+x,1/2-y,1/2+z
5 -x,-y,-z
6 1/2-x,1/2-y,-z
7 -x,y,1/2-z
8 1/2-x,1/2+y,1/2-z
_cell_length_a                   5.2940(11)
_cell_length_b                   13.196(3)
_cell_length_c                   13.294(3)
_cell_angle_alpha                90
_cell_angle_beta                 95.22(3)
_cell_angle_gamma                90
_cell_volume                     924.862
loop_
_atom_site_label
_atom_site_type_symbol
_atom_site_fract_x
_atom_site_fract_y
_atom_site_fract_z
Zn1 Zn 0.0000 0.48152(2) 0.2500
O1 O 0.2086(3) 0.37118(11) 0.34052(11)
O2 O -0.2944(3) 0.47426(13) 0.34209(13)
O3 O 0.1675(3) 0.59068(11) 0.34856(10)
O4 O -0.1084(3) 0.62139(12) 0.46239(10)
C1 C 0.0977(3) 0.63560(14) 0.42618(13)
C2 C 0.2843(3) 0.71076(14) 0.47352(13)
H1 H -0.423(6) 0.443(2) 0.340(2)
H2 H -0.287(6) 0.516(2) 0.376(3)
H3 H 0.180(6) 0.320(2) 0.316(2)
H4 H 0.164(6) 0.373(2) 0.399(3)
H6 H 0.444(5) 0.700(2) 0.4654(19)
C2E C 0.2157(3) 0.78924(14) 0.52648(13)
C1E C 0.4023(3) 0.86440(14) 0.57382(13)
O3E O 0.3325(3) 0.90932(11) 0.65144(10)
O4E O 0.6084(3) 0.87861(12) 0.53761(10)
H6E H 0.056(5) 0.800(2) 0.5346(19)
O1F O -0.2086(3) 0.37118(11) 0.15948(11)
H3F H -0.180(6) 0.320(2) 0.184(2)
H4F H -0.164(6) 0.373(2) 0.101(3)
O2F O 0.2944(3) 0.47426(13) 0.15791(13)
H1F H 0.423(6) 0.443(2) 0.160(2)
H2F H 0.287(6) 0.516(2) 0.124(3)
O3F O -0.1675(3) 0.59068(11) 0.15144(10)
Zn1C Zn 0.5000 1.01848(2) 0.7500
O5 O 0.5000 0.70295(16) 0.2500
H5 H 0.578(6) 0.673(2) 0.224(2)
H5F H 0.422(6) 0.673(2) 0.276(2)
loop_
_geom_bond_atom_site_label_1
_geom_bond_atom_site_label_2
_geom_bond_site_symmetry_1
_geom_bond_site_symmetry_2
Zn1 O1 1_555 1_555
O1 H3 1_555 1_555
O2 Zn1 1_555 1_555
O3 Zn1 1_555 1_555
O4 C1 1_555 1_555
C1 O3 1_555 1_555
O5 H5 1_555 1_555
C2 C1 1_555 1_555
H1 O2 1_555 1_555
H2 O2 1_555 1_555
H4 O1 1_555 1_555
H6 C2 1_555 1_555
C2E C2 1_555 1_555
C1E C2E 1_555 1_555
O3E C1E 1_555 1_555
O4E C1E 1_555 1_555
H6E C2E 1_555 1_555
H5F O5 1_555 1_555
O1F Zn1 1_555 1_555
H3F O1F 1_555 1_555
H4F O1F 1_555 1_555
O2F Zn1 1_555 1_555
H1F O2F 1_555 1_555
H2F O2F 1_555 1_555
O3F Zn1 1_555 1_555
Zn1C O3E 1_555 1_555

#END
