
#######################################################################
#
#                 Cambridge Crystallographic Data Centre
#                                CCDC 
#
#######################################################################
#
# If this CIF has been generated from an entry in the Cambridge 
# Structural Database, then it will include bibliographic, chemical, 
# crystal, experimental, refinement or atomic coordinate data resulting 
# from the CCDC's data processing and validation procedures.
#
#######################################################################

data_IPICUG
_symmetry_cell_setting           tetragonal
_symmetry_space_group_name_H-M   'P 42/n c m'
_symmetry_Int_Tables_number      138
_space_group_name_Hall           '-P 4ac 2ac'
loop_
_symmetry_equiv_pos_site_id
_symmetry_equiv_pos_as_xyz
1 x,y,z
2 1/2-y,x,1/2+z
3 1/2-x,1/2-y,z
4 y,1/2-x,1/2+z
5 1/2+x,-y,1/2-z
6 1/2+y,1/2+x,-z
7 -x,1/2+y,1/2-z
8 -y,-x,-z
9 -x,-y,-z
10 1/2+y,-x,1/2-z
11 1/2+x,1/2+y,-z
12 -y,1/2+x,1/2-z
13 1/2-x,y,1/2+z
14 1/2-y,1/2-x,z
15 x,1/2-y,1/2+z
16 y,x,z
_cell_length_a                   14.8030(10)
_cell_length_b                   14.8030(10)
_cell_length_c                   19.9010(10)
_cell_angle_alpha                90
_cell_angle_beta                 90
_cell_angle_gamma                90
_cell_volume                     4360.88
loop_
_atom_site_label
_atom_site_type_symbol
_atom_site_fract_x
_atom_site_fract_y
_atom_site_fract_z
Cl1 Cl 0.2500 0.2500 0.0200(3)
O1 O 0.1982(7) 0.3018(7) -0.0306(7)
O2 O 0.1914(4) 0.1914(4) 0.0510(4)
O1B O 0.3018(7) 0.1982(7) -0.0306(7)
O2B O 0.3086(4) 0.3086(4) 0.0510(4)
Cl2 Cl 0.51398(15) 0.51398(15) 0.27198(14)
O3 O 0.5472(6) 0.5472(6) 0.2077(5)
O4 O 0.5660(6) 0.5660(6) 0.3212(6)
O5 O 0.5377(4) 0.4257(4) 0.2706(4)
O5O O 0.4257(4) 0.5377(4) 0.2706(4)
Cu1 Cu 0.5000 0.5000 0.0000
Cu2 Cu 0.7500 0.2500 0.2500
N1 N 0.6504(3) 0.2977(3) 0.1856(2)
C1 C 0.5716(4) 0.2554(4) 0.1786(3)
H1 H 0.5602 0.2038 0.2057
C2 C 0.5048(4) 0.2834(4) 0.1333(3)
H2 H 0.4502 0.2499 0.1305
N2 N 0.5155(3) 0.3554(3) 0.0940(2)
N3 N 0.6059(3) 0.4716(3) 0.0603(2)
C3 C 0.6816(4) 0.5188(4) 0.0637(3)
H3 H 0.6891 0.5694 0.0349
C4 C 0.7512(4) 0.4967(4) 0.1085(3)
H4 H 0.8043 0.5327 0.1103
C5 C 0.7427(4) 0.4232(4) 0.1497(3)
H5 H 0.7897 0.4073 0.1800
C6 C 0.6626(4) 0.3713(4) 0.1463(3)
C7 C 0.5955(4) 0.3987(4) 0.1008(2)
Cu1A Cu 1.0000 0.5000 0.5000
Cu2E Cu 0.7500 0.2500 -0.2500
Cu2A Cu 0.2500 0.7500 -0.2500
N1G N 0.7023(3) 0.3496(3) -0.1856(2)
N1H N 0.3496(3) 0.7023(3) -0.1856(2)
N1B N 0.8496(3) 0.2023(3) 0.1856(2)
N1I N 0.7977(3) 0.3496(3) 0.3144(2)
N1K N 0.7023(3) 0.1504(3) 0.3144(2)
C1G C 0.7446(4) 0.4284(4) -0.1786(3)
C1H C 0.4284(4) 0.7446(4) -0.1786(3)
C1I C 0.7554(4) 0.4284(4) 0.3214(3)
H1G H 0.7962 0.4398 -0.2057
H1H H 0.4398 0.7962 -0.2057
H1I H 0.7038 0.4398 0.2943
C2G C 0.7166(4) 0.4952(4) -0.1333(3)
C2H C 0.4952(4) 0.7166(4) -0.1333(3)
C2I C 0.7834(4) 0.4952(4) 0.3667(3)
H2G H 0.7501 0.5498 -0.1305
H2H H 0.5498 0.7501 -0.1305
H2I H 0.7499 0.5498 0.3695
N2G N 0.6446(3) 0.4845(3) -0.0940(2)
N2H N 0.4845(3) 0.6446(3) -0.0940(2)
N2I N 0.8554(3) 0.4845(3) 0.4060(2)
N3G N 0.5284(3) 0.3941(3) -0.0603(2)
N3H N 0.3941(3) 0.5284(3) -0.0603(2)
N3O N 0.4716(3) 0.6059(3) 0.0603(2)
N3I N 0.9716(3) 0.3941(3) 0.4397(2)
C3G C 0.4812(4) 0.3184(4) -0.0637(3)
C3H C 0.3184(4) 0.4812(4) -0.0637(3)
C3I C 1.0188(4) 0.3184(4) 0.4363(3)
H3G H 0.4306 0.3109 -0.0349
H3H H 0.3109 0.4306 -0.0349
H3I H 1.0694 0.3109 0.4651
C4G C 0.5033(4) 0.2488(4) -0.1085(3)
C4H C 0.2488(4) 0.5033(4) -0.1085(3)
C4I C 0.9967(4) 0.2488(4) 0.3915(3)
H4G H 0.4673 0.1957 -0.1103
H4H H 0.1957 0.4673 -0.1103
H4I H 1.0327 0.1957 0.3897
C5G C 0.5768(4) 0.2573(4) -0.1497(3)
C5H C 0.2573(4) 0.5768(4) -0.1497(3)
C5I C 0.9232(4) 0.2573(4) 0.3503(3)
H5G H 0.5927 0.2103 -0.1800
H5H H 0.2103 0.5927 -0.1800
H5I H 0.9073 0.2103 0.3200
C6G C 0.6287(4) 0.3374(4) -0.1463(3)
C6H C 0.3374(4) 0.6287(4) -0.1463(3)
C6I C 0.8713(4) 0.3374(4) 0.3537(3)
C7G C 0.6013(4) 0.4045(4) -0.1008(2)
C7H C 0.4045(4) 0.6013(4) -0.1008(2)
C7I C 0.8987(4) 0.4045(4) 0.3992(2)
C8? C 0.2246(19) 0.6453(15) 0.0290(14)
O6? O 0.2153(6) 0.7153(6) 0.0000
loop_
_geom_bond_atom_site_label_1
_geom_bond_atom_site_label_2
_geom_bond_site_symmetry_1
_geom_bond_site_symmetry_2
Cu1 N3 1_555 1_555
Cu2 N1 1_555 1_555
N1 C1 1_555 1_555
C1 H1 1_555 1_555
C2 C1 1_555 1_555
H2 C2 1_555 1_555
N2 C2 1_555 1_555
N3 C3 1_555 1_555
C3 H3 1_555 1_555
C4 C3 1_555 1_555
H4 C4 1_555 1_555
C5 C4 1_555 1_555
H5 C5 1_555 1_555
C6 N1 1_555 1_555
C7 N2 1_555 1_555
Cl1 O1 1_555 1_555
O2 Cl1 1_555 1_555
Cl2 O3 1_555 1_555
O4 Cl2 1_555 1_555
O5 Cl2 1_555 1_555
Cu1A N3I 1_555 1_555
Cu2E N1G 1_555 1_555
Cu2A N1H 1_555 1_555
N1G C1G 1_555 1_555
N1H C1H 1_555 1_555
N1B Cu2 1_555 1_555
N1I Cu2 1_555 1_555
N1K Cu2 1_555 1_555
C1G H1G 1_555 1_555
C1H H1H 1_555 1_555
C1I N1I 1_555 1_555
H1I C1I 1_555 1_555
C2G C1G 1_555 1_555
C2H C1H 1_555 1_555
C2I C1I 1_555 1_555
H2G C2G 1_555 1_555
H2H C2H 1_555 1_555
H2I C2I 1_555 1_555
N2G C2G 1_555 1_555
N2H C2H 1_555 1_555
N2I C2I 1_555 1_555
N3G Cu1 1_555 1_555
N3H Cu1 1_555 1_555
N3O Cu1 1_555 1_555
N3I C3I 1_555 1_555
C3G N3G 1_555 1_555
C3H N3H 1_555 1_555
C3I H3I 1_555 1_555
H3G C3G 1_555 1_555
H3H C3H 1_555 1_555
C4G C3G 1_555 1_555
C4H C3H 1_555 1_555
C4I C3I 1_555 1_555
H4G C4G 1_555 1_555
H4H C4H 1_555 1_555
H4I C4I 1_555 1_555
C5G C4G 1_555 1_555
C5H C4H 1_555 1_555
C5I C4I 1_555 1_555
H5G C5G 1_555 1_555
H5H C5H 1_555 1_555
H5I C5I 1_555 1_555
C6G N1G 1_555 1_555
C6H N1H 1_555 1_555
C6I N1I 1_555 1_555
C7G N2G 1_555 1_555
C7H N2H 1_555 1_555
C7I N2I 1_555 1_555
O1B Cl1 1_555 1_555
O2B Cl1 1_555 1_555
O5O Cl2 1_555 1_555
N3 C7 1_555 1_555
C5 C6 1_555 1_555
C6 C7 1_555 1_555
N3G C7G 1_555 1_555
N3H C7H 1_555 1_555
N3I C7I 1_555 1_555
C5G C6G 1_555 1_555
C5H C6H 1_555 1_555
C5I C6I 1_555 1_555
C6G C7G 1_555 1_555
C6H C7H 1_555 1_555
C6I C7I 1_555 1_555

#END
