
#######################################################################
#
#                 Cambridge Crystallographic Data Centre
#                                CCDC 
#
#######################################################################
#
# If this CIF has been generated from an entry in the Cambridge 
# Structural Database, then it will include bibliographic, chemical, 
# crystal, experimental, refinement or atomic coordinate data resulting 
# from the CCDC's data processing and validation procedures.
#
#######################################################################

data_IPIDAN
_symmetry_cell_setting           tetragonal
_symmetry_space_group_name_H-M   'P 42/n c m'
_symmetry_Int_Tables_number      138
_space_group_name_Hall           '-P 4ac 2ac'
loop_
_symmetry_equiv_pos_site_id
_symmetry_equiv_pos_as_xyz
1 x,y,z
2 1/2-y,x,1/2+z
3 1/2-x,1/2-y,z
4 y,1/2-x,1/2+z
5 1/2+x,-y,1/2-z
6 -y,-x,-z
7 -x,1/2+y,1/2-z
8 1/2+y,1/2+x,-z
9 -x,-y,-z
10 1/2+y,-x,1/2-z
11 1/2+x,1/2+y,-z
12 -y,1/2+x,1/2-z
13 1/2-x,y,1/2+z
14 y,x,z
15 x,1/2-y,1/2+z
16 1/2-y,1/2-x,z
_cell_length_a                   14.7632(14)
_cell_length_b                   14.7632(14)
_cell_length_c                   20.021(2)
_cell_angle_alpha                90
_cell_angle_beta                 90
_cell_angle_gamma                90
_cell_volume                     4363.62
loop_
_atom_site_label
_atom_site_type_symbol
_atom_site_fract_x
_atom_site_fract_y
_atom_site_fract_z
Cu1 Cu 0.0000 0.0000 0.5000
N1 N 0.2014(4) -0.1512(5) 0.6864(3)
Cu2 Cu 0.2500 -0.2500 0.7500
C1 C 0.2401(6) -0.0700(6) 0.6816(4)
H1 H 0.2901 -0.0568 0.7098
C2 C 0.2102(7) -0.0021(6) 0.6364(4)
H2 H 0.2411 0.0544 0.6358
N2 N 0.1417(5) -0.0140(5) 0.5955(4)
N3 N 0.0281(4) -0.1081(4) 0.5581(3)
C3 C -0.0162(6) -0.1866(6) 0.5593(4)
H3 H -0.0659 -0.1947 0.5298
C4 C 0.0073(6) -0.2579(6) 0.6023(5)
H4 H -0.0270 -0.3123 0.6025
C5 C 0.0803(6) -0.2480(6) 0.6442(4)
H5 H 0.0983 -0.2963 0.6726
C6 C 0.1283(6) -0.1653(6) 0.6445(4)
C7 C 0.0998(5) -0.0966(6) 0.6003(4)
Cu1B Cu 0.5000 -0.5000 0.5000
N1B N 0.2986(4) -0.3488(5) 0.6864(3)
N1I N 0.3488(5) -0.2014(4) 0.8136(3)
N1K N 0.1512(5) -0.2986(4) 0.8136(3)
N1E N 0.1512(5) -0.2014(4) 0.3136(3)
N1H N -0.2014(4) 0.1512(5) 0.3136(3)
Cu2E Cu 0.2500 -0.2500 0.2500
Cu2A Cu -0.2500 0.2500 0.2500
C1B C 0.2599(6) -0.4300(6) 0.6816(4)
C1E C 0.0700(6) -0.2401(6) 0.3184(4)
C1H C -0.2401(6) 0.0700(6) 0.3184(4)
H1B H 0.2099 -0.4432 0.7098
H1E H 0.0568 -0.2901 0.2902
H1H H -0.2901 0.0568 0.2902
C2B C 0.2898(7) -0.4979(6) 0.6364(4)
C2E C 0.0021(6) -0.2102(7) 0.3636(4)
C2H C -0.2102(7) 0.0021(6) 0.3636(4)
H2B H 0.2589 -0.5544 0.6358
H2E H -0.0544 -0.2411 0.3642
H2H H -0.2411 -0.0544 0.3642
N2B N 0.3583(5) -0.4860(5) 0.5955(4)
N2E N 0.0140(5) -0.1417(5) 0.4045(4)
N2H N -0.1417(5) 0.0140(5) 0.4045(4)
N3B N 0.4719(4) -0.3919(4) 0.5581(3)
N3M N -0.1081(4) 0.0281(4) 0.5581(3)
N3H N -0.0281(4) 0.1081(4) 0.4419(3)
N3E N 0.1081(4) -0.0281(4) 0.4419(3)
C3B C 0.5162(6) -0.3134(6) 0.5593(4)
C3E C 0.1866(6) 0.0162(6) 0.4407(4)
C3H C 0.0162(6) 0.1866(6) 0.4407(4)
H3B H 0.5659 -0.3053 0.5298
H3E H 0.1947 0.0659 0.4702
H3H H 0.0659 0.1947 0.4702
C4B C 0.4927(6) -0.2421(6) 0.6023(5)
C4E C 0.2579(6) -0.0073(6) 0.3977(5)
C4H C -0.0073(6) 0.2579(6) 0.3977(5)
H4B H 0.5270 -0.1877 0.6025
H4E H 0.3123 0.0270 0.3975
H4H H 0.0270 0.3123 0.3975
C5B C 0.4197(6) -0.2520(6) 0.6442(4)
C5E C 0.2480(6) -0.0803(6) 0.3558(4)
C5H C -0.0803(6) 0.2480(6) 0.3558(4)
H5B H 0.4017 -0.2037 0.6726
H5E H 0.2963 -0.0983 0.3274
H5H H -0.0983 0.2963 0.3274
C6B C 0.3717(6) -0.3347(6) 0.6445(4)
C6E C 0.1653(6) -0.1283(6) 0.3555(4)
C6H C -0.1283(6) 0.1653(6) 0.3555(4)
C7B C 0.4002(5) -0.4034(6) 0.6003(4)
C7E C 0.0966(6) -0.0998(5) 0.3997(4)
C7H C -0.0998(5) 0.0966(6) 0.3997(4)
Cl1 Cl -0.2500 -0.2500 0.4818(3)
O1 O -0.1952(5) -0.3048(5) 0.5234(7)
O2 O -0.1934(4) -0.1934(4) 0.4446(5)
O1B O -0.3048(5) -0.1952(5) 0.5234(7)
O2B O -0.3066(4) -0.3066(4) 0.4446(5)
Cl2 Cl -0.0181(2) -0.0181(2) 0.7761(3)
O3 O 0.0703(5) -0.0422(6) 0.7716(6)
O4 O -0.0494(10) -0.0494(10) 0.7051(7)
O5 O -0.0728(7) -0.0728(7) 0.8154(7)
O3M O -0.0422(6) 0.0703(5) 0.7716(6)
loop_
_geom_bond_atom_site_label_1
_geom_bond_atom_site_label_2
_geom_bond_site_symmetry_1
_geom_bond_site_symmetry_2
Cu1 N3 1_555 1_555
N1 Cu2 1_555 1_555
Cl1 O1 1_555 1_555
Cl2 O3 1_555 1_555
Cu2 N1B 1_555 1_555
O2 Cl1 1_555 1_555
C1 N1 1_555 1_555
H1 C1 1_555 1_555
C2 C1 1_555 1_555
H2 C2 1_555 1_555
N2 C2 1_555 1_555
O4 Cl2 1_555 1_555
N3 C3 1_555 1_555
O5 Cl2 1_555 1_555
C3 H3 1_555 1_555
C4 C3 1_555 1_555
H4 C4 1_555 1_555
C5 C4 1_555 1_555
H5 C5 1_555 1_555
C6 N1 1_555 1_555
C7 N2 1_555 1_555
Cu1B N3B 1_555 1_555
N1B C1B 1_555 1_555
N1I Cu2 1_555 1_555
N1K Cu2 1_555 1_555
N1E Cu2E 1_555 1_555
N1H Cu2A 1_555 1_555
O1B Cl1 1_555 1_555
O2B Cl1 1_555 1_555
C1B H1B 1_555 1_555
C1E N1E 1_555 1_555
C1H N1H 1_555 1_555
H1E C1E 1_555 1_555
H1H C1H 1_555 1_555
C2B C1B 1_555 1_555
C2E C1E 1_555 1_555
C2H C1H 1_555 1_555
H2B C2B 1_555 1_555
H2E C2E 1_555 1_555
H2H C2H 1_555 1_555
O3M Cl2 1_555 1_555
N2B C2B 1_555 1_555
N2E C2E 1_555 1_555
N2H C2H 1_555 1_555
N3B C3B 1_555 1_555
N3M Cu1 1_555 1_555
N3H Cu1 1_555 1_555
N3E Cu1 1_555 1_555
C3B H3B 1_555 1_555
C3E N3E 1_555 1_555
C3H N3H 1_555 1_555
H3E C3E 1_555 1_555
H3H C3H 1_555 1_555
C4B C3B 1_555 1_555
C4E C3E 1_555 1_555
C4H C3H 1_555 1_555
H4B C4B 1_555 1_555
H4E C4E 1_555 1_555
H4H C4H 1_555 1_555
C5B C4B 1_555 1_555
C5E C4E 1_555 1_555
C5H C4H 1_555 1_555
H5B C5B 1_555 1_555
H5E C5E 1_555 1_555
H5H C5H 1_555 1_555
C6B N1B 1_555 1_555
C6E N1E 1_555 1_555
C6H N1H 1_555 1_555
C7B N2B 1_555 1_555
C7E N2E 1_555 1_555
C7H N2H 1_555 1_555
N3 C7 1_555 1_555
C5 C6 1_555 1_555
C6 C7 1_555 1_555
N3B C7B 1_555 1_555
N3H C7H 1_555 1_555
N3E C7E 1_555 1_555
C5B C6B 1_555 1_555
C5E C6E 1_555 1_555
C5H C6H 1_555 1_555
C6B C7B 1_555 1_555
C6E C7E 1_555 1_555
C6H C7H 1_555 1_555

#END
