
#######################################################################
#
#                 Cambridge Crystallographic Data Centre
#                                CCDC 
#
#######################################################################
#
# If this CIF has been generated from an entry in the Cambridge 
# Structural Database, then it will include bibliographic, chemical, 
# crystal, experimental, refinement or atomic coordinate data resulting 
# from the CCDC's data processing and validation procedures.
#
#######################################################################

data_IPIFAP
_symmetry_cell_setting           orthorhombic
_symmetry_space_group_name_H-M   'C m c 21'
_symmetry_Int_Tables_number      36
_space_group_name_Hall           'C 2n -2'
loop_
_symmetry_equiv_pos_site_id
_symmetry_equiv_pos_as_xyz
1 x,y,z
2 -x,-y,1/2+z
3 -x,y,z
4 x,-y,1/2+z
5 1/2+x,1/2+y,z
6 1/2-x,1/2-y,1/2+z
7 1/2-x,1/2+y,z
8 1/2+x,1/2-y,1/2+z
_cell_length_a                   20.837(5)
_cell_length_b                   11.759(5)
_cell_length_c                   11.346(5)
_cell_angle_alpha                90
_cell_angle_beta                 90
_cell_angle_gamma                90
_cell_volume                     2780.02
loop_
_atom_site_label
_atom_site_type_symbol
_atom_site_fract_x
_atom_site_fract_y
_atom_site_fract_z
C1 C 0.22760(17) -0.2352(3) 0.2264(4)
H1 H 0.2143 -0.3011 0.1812
H2 H 0.2741 -0.2319 0.2249
C2 C 0.22489(16) -0.1472(3) 0.4170(4)
H3 H 0.2714 -0.1423 0.4188
H4 H 0.2099 -0.1550 0.4975
C3 C 0.13526(15) -0.2538(3) 0.3486(3)
H5 H 0.1199 -0.2620 0.4288
H6 H 0.1217 -0.3202 0.3044
C4 C 0.12783(15) -0.0498(3) 0.3661(3)
H7 H 0.1095 0.0193 0.3336
H8 H 0.1126 -0.0578 0.4465
C5 C 0.13052(15) -0.1382(3) 0.1736(4)
H9 H 0.1125 -0.0703 0.1380
H10 H 0.1167 -0.2031 0.1274
C6 C 0.22102(16) -0.0316(3) 0.2424(3)
H11 H 0.2036 0.0371 0.2075
H12 H 0.2674 -0.0256 0.2416
C7 C 0.12367(17) -0.4771(3) 0.5640(5)
C8 C 0.05898(15) -0.4939(4) 0.6236(4)
H13 H 0.0550 -0.4382 0.6862
H14 H 0.0587 -0.5686 0.6601
C9 C 0.0000 -0.4844(5) 0.5440(6)
C10 C 0.0000 -0.3680(4) 0.4767(7)
N1 N 0.20578(12) -0.2481(2) 0.3491(3)
N2 N 0.10620(12) -0.14958(18) 0.2949(3)
N3 N 0.19850(13) -0.0411(2) 0.3658(3)
N4 N 0.20125(13) -0.1310(2) 0.1708(3)
O1 O 0.0000 -0.2787(3) 0.5366(4)
O2 O 0.0000 -0.3736(3) 0.3666(4)
O4 O 0.1456(2) -0.5499(4) 0.5052(9)
O6 O 0.15280(13) -0.3878(3) 0.5817(3)
O8 O 0.0000 -0.5727(3) 0.4607(5)
Ag1 Ag 0.253690(11) -0.39482(2) 0.47508(4)
Ag2 Ag 0.0000 -0.17392(3) 0.29824(4)
H17 H 0.0000 -0.5526 0.3891
C1B C -0.22760(17) -0.2352(3) 0.2264(4)
H1B H -0.2143 -0.3011 0.1812
H2B H -0.2741 -0.2319 0.2249
C2B C -0.22489(16) -0.1472(3) 0.4170(4)
H3B H -0.2714 -0.1423 0.4188
H4B H -0.2099 -0.1550 0.4975
C3B C -0.13526(15) -0.2538(3) 0.3486(3)
H5B H -0.1199 -0.2620 0.4288
H6B H -0.1217 -0.3202 0.3044
C4B C -0.12783(15) -0.0498(3) 0.3661(3)
H7B H -0.1095 0.0193 0.3336
H8B H -0.1126 -0.0578 0.4465
C5B C -0.13052(15) -0.1382(3) 0.1736(4)
H9B H -0.1125 -0.0703 0.1380
H10B H -0.1167 -0.2031 0.1274
C6B C -0.22102(16) -0.0316(3) 0.2424(3)
H11B H -0.2036 0.0371 0.2075
H12B H -0.2674 -0.0256 0.2416
C7B C -0.12367(17) -0.4771(3) 0.5640(5)
C8B C -0.05898(15) -0.4939(4) 0.6236(4)
H13B H -0.0550 -0.4382 0.6862
H14B H -0.0587 -0.5686 0.6601
N1B N -0.20578(12) -0.2481(2) 0.3491(3)
N2B N -0.10620(12) -0.14958(18) 0.2949(3)
N3B N -0.19850(13) -0.0411(2) 0.3658(3)
N3F N 0.30150(13) -0.5411(2) 0.3658(3)
N3D N -0.30150(13) -0.5411(2) 0.3658(3)
N4B N -0.20125(13) -0.1310(2) 0.1708(3)
N4E N 0.29875(13) -0.3690(2) 0.6708(3)
N4G N -0.29875(13) -0.3690(2) 0.6708(3)
O4B O -0.1456(2) -0.5499(4) 0.5052(9)
O6B O -0.15280(13) -0.3878(3) 0.5817(3)
Ag1B Ag -0.253690(11) -0.39482(2) 0.47508(4)
Ag1F Ag 0.246310(11) 0.10518(2) 0.47508(4)
Ag1E Ag 0.246310(11) -0.10518(2) -0.02492(4)
Ag1D Ag -0.246310(11) 0.10518(2) 0.47508(4)
Ag1G Ag -0.246310(11) -0.10518(2) -0.02492(4)
O3 O 0.0000 -0.8508(4) 0.5101(6)
H15 H 0.0332 -0.8235 0.4768
H15B H -0.0332 -0.8235 0.4768
O5 O 0.0000 -0.0613(4) 0.6040(4)
H16 H 0.0000 0.0080 0.5822
H18 H 0.0000 -0.1218 0.5629
O7 O 0.11604(14) -0.1900(3) 0.6799(3)
H19 H 0.0807 -0.1599 0.6594
H20 H 0.1164 -0.2614 0.6679
O9 O 0.11562(14) -0.2371(2) -0.0796(3)
H21 H 0.1165 -0.3091 -0.0725
H22 H 0.1170 -0.2352 -0.1545
loop_
_geom_bond_atom_site_label_1
_geom_bond_atom_site_label_2
_geom_bond_site_symmetry_1
_geom_bond_site_symmetry_2
C1 H1 1_555 1_555
H2 C1 1_555 1_555
C2 H3 1_555 1_555
H4 C2 1_555 1_555
C3 H5 1_555 1_555
H6 C3 1_555 1_555
C4 H7 1_555 1_555
H8 C4 1_555 1_555
C5 H9 1_555 1_555
H10 C5 1_555 1_555
C6 H11 1_555 1_555
H12 C6 1_555 1_555
C7 C8 1_555 1_555
C8 H13 1_555 1_555
H14 C8 1_555 1_555
C9 C8 1_555 1_555
C10 C9 1_555 1_555
N1 C1 1_555 1_555
N2 C3 1_555 1_555
N3 C2 1_555 1_555
N4 C1 1_555 1_555
O1 C10 1_555 1_555
O2 C10 1_555 1_555
O3 H15 1_555 1_555
O4 C7 1_555 1_555
O5 H16 1_555 1_555
O6 C7 1_555 1_555
O7 H19 1_555 1_555
O8 C9 1_555 1_555
O9 H21 1_555 1_555
Ag1 N1 1_555 1_555
Ag2 N2 1_555 1_555
H17 O8 1_555 1_555
H18 O5 1_555 1_555
H20 O7 1_555 1_555
H22 O9 1_555 1_555
C1B H1B 1_555 1_555
H2B C1B 1_555 1_555
C2B H3B 1_555 1_555
H4B C2B 1_555 1_555
C3B H5B 1_555 1_555
H6B C3B 1_555 1_555
C4B H7B 1_555 1_555
H8B C4B 1_555 1_555
C5B H9B 1_555 1_555
H10B C5B 1_555 1_555
C6B H11B 1_555 1_555
H12B C6B 1_555 1_555
C7B C8B 1_555 1_555
C8B C9 1_555 1_555
H13B C8B 1_555 1_555
H14B C8B 1_555 1_555
N1B C1B 1_555 1_555
N2B Ag2 1_555 1_555
N3B C2B 1_555 1_555
N3F Ag1 1_555 1_555
N3D Ag1B 1_555 1_555
N4B C1B 1_555 1_555
N4E Ag1 1_555 1_555
N4G Ag1B 1_555 1_555
O4B C7B 1_555 1_555
O6B C7B 1_555 1_555
Ag1B N1B 1_555 1_555
Ag1F N3 1_555 1_555
Ag1E N4 1_555 1_555
Ag1D N3B 1_555 1_555
Ag1G N4B 1_555 1_555
H15B O3 1_555 1_555
C2 N1 1_555 1_555
C3 N1 1_555 1_555
C4 N2 1_555 1_555
C4 N3 1_555 1_555
C5 N2 1_555 1_555
C5 N4 1_555 1_555
C6 N3 1_555 1_555
C6 N4 1_555 1_555
O2 Ag2 1_555 1_555
O6 Ag1 1_555 1_555
C2B N1B 1_555 1_555
C3B N1B 1_555 1_555
C3B N2B 1_555 1_555
C4B N2B 1_555 1_555
C4B N3B 1_555 1_555
C5B N2B 1_555 1_555
C5B N4B 1_555 1_555
C6B N3B 1_555 1_555
C6B N4B 1_555 1_555
O6B Ag1B 1_555 1_555

#END
