
#######################################################################
#
#                 Cambridge Crystallographic Data Centre
#                                CCDC 
#
#######################################################################
#
# If this CIF has been generated from an entry in the Cambridge 
# Structural Database, then it will include bibliographic, chemical, 
# crystal, experimental, refinement or atomic coordinate data resulting 
# from the CCDC's data processing and validation procedures.
#
#######################################################################

data_IPIHUL
_symmetry_cell_setting           monoclinic
_symmetry_space_group_name_H-M   'C 2/c'
_symmetry_Int_Tables_number      15
_space_group_name_Hall           '-C 2yn'
loop_
_symmetry_equiv_pos_site_id
_symmetry_equiv_pos_as_xyz
1 x,y,z
2 -x,y,1/2-z
3 1/2+x,1/2+y,z
4 1/2-x,1/2+y,1/2-z
5 -x,-y,-z
6 x,-y,1/2+z
7 1/2-x,1/2-y,-z
8 1/2+x,1/2-y,1/2+z
_cell_length_a                   15.274(5)
_cell_length_b                   8.305(3)
_cell_length_c                   9.695(3)
_cell_angle_alpha                90
_cell_angle_beta                 115.692(5)
_cell_angle_gamma                90
_cell_volume                     1108.23
loop_
_atom_site_label
_atom_site_type_symbol
_atom_site_fract_x
_atom_site_fract_y
_atom_site_fract_z
C1 C -0.8611(3) -0.0274(5) 0.3363(4)
C2 C -0.2463(3) -0.0484(5) 0.0803(5)
C3 C -0.2925(3) -0.1644(5) 0.1291(5)
H1 H -0.2557 -0.2333 0.2124
C4 C -0.3928(3) -0.1780(5) 0.0547(5)
C5 C -0.4413(3) -0.0757(5) -0.0692(5)
H2 H -0.5094 -0.0905 -0.1263
C6 C -0.3019(3) 0.0529(5) -0.0406(5)
H3 H -0.2699 0.1325 -0.0724
Fe1 Fe -0.5000 -0.23443(10) 0.2500
Fe2 Fe -0.5000 -0.5000 0.5000
N1 N -0.3993(2) 0.0421(4) -0.1139(4)
O1 O -0.90153(19) 0.0674(4) 0.3951(3)
O2 O -0.9038(2) -0.0991(4) 0.2098(3)
O3 O -0.4433(2) -0.2786(3) 0.0988(3)
C1A C -0.1389(3) -0.0274(5) 0.1637(4)
C2A C -0.7537(3) -0.0484(5) 0.4197(5)
C3A C -0.7075(3) -0.1644(5) 0.3709(5)
H1A H -0.7443 -0.2333 0.2876
C4A C -0.6072(3) -0.1780(5) 0.4453(5)
C5A C -0.5587(3) -0.0757(5) 0.5692(5)
H2A H -0.4906 -0.0905 0.6263
C6A C -0.6981(3) 0.0529(5) 0.5406(5)
H3A H -0.7301 0.1325 0.5724
Fe1D Fe -0.5000 0.23443(10) -0.2500
Fe1B Fe -1.0000 0.26557(10) 0.2500
Fe1D_2 Fe -0.5000 0.23443(10) 0.7500
Fe1B_2 Fe 0.0000 0.26557(10) 0.2500
Fe2C Fe -1.0000 0.0000 0.0000
Fe2A Fe -0.5000 -0.5000 0.0000
Fe2B Fe -1.0000 0.0000 0.5000
Fe2B_2 Fe 0.0000 0.0000 0.5000
Fe2C_2 Fe 0.0000 0.0000 0.0000
N1E N -0.3993(2) -0.0421(4) 0.3861(4)
N1D N -0.6007(2) -0.0421(4) 0.1139(4)
N1A N -0.6007(2) 0.0421(4) 0.6139(4)
O1C O -0.59847(19) -0.4326(4) 0.1049(3)
O1B O -0.40153(19) -0.4326(4) 0.3951(3)
O1F O -0.59847(19) -0.5674(4) 0.6049(3)
O1A O -0.09847(19) 0.0674(4) 0.1049(3)
O2C O -0.5962(2) -0.5991(4) 0.2902(3)
O2G O -0.4038(2) -0.4009(4) 0.7098(3)
O2A O -0.0962(2) -0.0991(4) 0.2902(3)
O3A O -0.5567(2) -0.2786(3) 0.4012(3)
O3E O -0.4433(2) -0.7214(3) 0.5988(3)
loop_
_geom_bond_atom_site_label_1
_geom_bond_atom_site_label_2
_geom_bond_site_symmetry_1
_geom_bond_site_symmetry_2
C1 O1 1_555 1_555
C2 C3 1_555 1_555
C3 H1 1_555 1_555
C4 C3 1_555 1_555
C5 C4 1_555 1_555
H2 C5 1_555 1_555
C6 C2 1_555 1_555
H3 C6 1_555 1_555
Fe1 O3 1_555 1_555
Fe2 O1B 1_555 1_555
N1 C5 1_555 1_555
O1 Fe1B 1_555 1_555
O2 C1 1_555 1_555
O3 C4 1_555 1_555
C1A C2 1_555 1_555
C2A C1 1_555 1_555
C3A C2A 1_555 1_555
H1A C3A 1_555 1_555
C4A C3A 1_555 1_555
C5A C4A 1_555 1_555
H2A C5A 1_555 1_555
C6A C2A 1_555 1_555
H3A C6A 1_555 1_555
Fe1D N1 1_555 1_555
Fe1D_2 N1A 1_555 1_555
Fe1B_2 O1A 1_555 1_555
Fe2C O2 1_555 1_555
Fe2A O3 1_555 1_555
Fe2B O1 1_555 1_555
Fe2B_2 O2A 1_555 1_555
Fe2C_2 O1A 1_555 1_555
N1E Fe1 1_555 1_555
N1D Fe1 1_555 1_555
N1A C5A 1_555 1_555
O1C Fe1 1_555 1_555
O1B Fe1 1_555 1_555
O1F Fe2 1_555 1_555
O1A C1A 1_555 1_555
O2C Fe2 1_555 1_555
O2G Fe2 1_555 1_555
O2A C1A 1_555 1_555
O3A Fe1 1_555 1_555
O3E Fe2 1_555 1_555
C6 N1 1_555 1_555
Fe2 O3A 1_555 1_555
C4A O3A 1_555 1_555
C6A N1A 1_555 1_555
Fe2A O1C 1_555 1_555

#END
