
#######################################################################
#
#                 Cambridge Crystallographic Data Centre
#                                CCDC 
#
#######################################################################
#
# If this CIF has been generated from an entry in the Cambridge 
# Structural Database, then it will include bibliographic, chemical, 
# crystal, experimental, refinement or atomic coordinate data resulting 
# from the CCDC's data processing and validation procedures.
#
#######################################################################

data_IPIJUN
_symmetry_cell_setting           monoclinic
_symmetry_space_group_name_H-M   'P 21/c'
_symmetry_Int_Tables_number      14
_space_group_name_Hall           '-P 2ybc'
loop_
_symmetry_equiv_pos_site_id
_symmetry_equiv_pos_as_xyz
1 x,y,z
2 -x,1/2+y,1/2-z
3 -x,-y,-z
4 x,1/2-y,1/2+z
_cell_length_a                   11.7490(17)
_cell_length_b                   19.082(3)
_cell_length_c                   16.378(2)
_cell_angle_alpha                90
_cell_angle_beta                 104.500(2)
_cell_angle_gamma                90
_cell_volume                     3554.9
loop_
_atom_site_label
_atom_site_type_symbol
_atom_site_fract_x
_atom_site_fract_y
_atom_site_fract_z
Eu1 Eu -0.122370(16) 0.208040(10) 0.302830(11)
Eu2 Eu -0.100040(15) 0.329520(10) 0.068150(11)
O1 O -0.0096(3) 0.17986(17) -0.16718(18)
O2 O -0.1674(3) 0.19018(16) -0.11854(19)
O3 O -0.1961(3) 0.14010(15) 0.17267(17)
O4 O -0.1378(3) 0.07781(15) 0.28791(17)
O5 O 0.6726(3) 0.18751(18) 0.30024(17)
O6 O 0.7789(2) 0.16318(15) 0.42630(17)
O7 O 0.0104(3) 0.24838(19) 0.1633(2)
O8 O 0.0522(3) 0.16985(17) 0.26327(19)
O9 O -0.9926(2) 0.30845(17) -0.05489(18)
O10 O -0.8954(2) 0.35658(18) 0.06216(18)
O11 O -0.2811(2) 0.37118(16) 0.09710(17)
O12 O -0.2100(2) 0.28978(14) 0.18975(16)
O13 O -0.1045(3) 0.45437(18) 0.0293(2)
H1 H -0.152(4) 0.473(3) -0.012(2)
H2 H -0.048(3) 0.436(3) 0.014(3)
O14 O -0.0137(3) 0.39920(17) 0.19245(17)
H3 H 0.000(5) 0.3744(19) 0.2370(17)
H4 H -0.039(4) 0.4390(12) 0.202(3)
O15 O -0.2016(3) 0.21978(15) 0.03401(18)
H5 H -0.202(5) 0.202(2) -0.0140(15)
H6 H -0.218(5) 0.1878(18) 0.065(2)
C1 C -0.0802(5) 0.1547(2) -0.1278(3)
C2 C -0.0603(7) 0.0820(3) -0.0926(4)
H13 H -0.0497 0.0509 -0.1369
H14 H 0.0123 0.0817 -0.0485
C3 C -0.1573(6) 0.0530(3) -0.0567(4)
C4 C -0.2632(8) 0.0320(4) -0.1088(4)
H15 H -0.2756 0.0353 -0.1671
C5 C -0.3505(9) 0.0063(4) -0.0747(4)
H16 H -0.4212 -0.0085 -0.1102
C6 C -0.3346(6) 0.0020(3) 0.0110(3)
H17 H -0.3957 -0.0140 0.0329
C7 C -0.2288(5) 0.0212(2) 0.0654(3)
C8 C -0.1421(5) 0.0478(2) 0.0301(3)
H18 H -0.0715 0.0627 0.0656
C9 C -0.2097(5) 0.0144(2) 0.1592(3)
H19 H -0.2806 -0.0049 0.1706
H20 H -0.1470 -0.0192 0.1795
C10 C -0.1792(3) 0.0814(2) 0.2091(2)
C11 C 0.6795(3) 0.1779(2) 0.3771(2)
C12 C 0.5727(4) 0.1840(3) 0.4115(3)
H21 H 0.5949 0.2065 0.4663
H22 H 0.5444 0.1374 0.4193
C13 C 0.4737(4) 0.2255(3) 0.3547(3)
C14 C 0.4737(4) 0.2974(3) 0.3563(3)
H23 H 0.5347 0.3212 0.3929
C15 C 0.3833(4) 0.3345(3) 0.3038(4)
H24 H 0.3840 0.3832 0.3056
C16 C 0.2920(4) 0.3003(3) 0.2489(3)
H25 H 0.2314 0.3259 0.2144
C17 C 0.2907(3) 0.2276(3) 0.2450(3)
C18 C 0.3820(3) 0.1908(3) 0.2986(3)
H26 H 0.3818 0.1421 0.2970
C19 C 0.1929(4) 0.1892(3) 0.1834(3)
H27 H 0.1896 0.2047 0.1265
H28 H 0.2090 0.1393 0.1866
C20 C 0.0769(3) 0.2030(2) 0.2033(2)
C21 C -0.8977(3) 0.3348(2) -0.0103(2)
C22 C -0.7890(4) 0.3392(3) -0.0425(3)
H29 H -0.8062 0.3210 -0.0996
H30 H -0.7664 0.3880 -0.0443
C23 C -0.6866(4) 0.2982(3) 0.0125(3)
C24 C -0.6807(4) 0.2261(3) 0.0045(3)
H31 H -0.7402 0.2025 -0.0337
C25 C -0.5870(5) 0.1896(3) 0.0531(3)
H32 H -0.5834 0.1412 0.0469
C26 C -0.4981(4) 0.2234(3) 0.1111(3)
H33 H -0.4354 0.1979 0.1436
C27 C -0.5027(3) 0.2949(2) 0.1206(2)
C28 C -0.5970(3) 0.3326(2) 0.0708(2)
H34 H -0.6001 0.3810 0.0767
C29 C -0.4052(3) 0.3328(2) 0.1845(2)
H35 H -0.3928 0.3102 0.2391
H36 H -0.4285 0.3810 0.1904
C30 C -0.2921(3) 0.3317(2) 0.1564(2)
Eu1C Eu -1.122370(16) 0.291960(10) -0.197170(11)
Eu1_2 Eu 0.877630(16) 0.208040(10) 0.302830(11)
Eu1C_2 Eu -0.122370(16) 0.291960(10) -0.197170(11)
Eu2_2 Eu -1.100040(15) 0.329520(10) 0.068150(11)
Eu2C Eu 0.899960(15) 0.170480(10) 0.568150(11)
O1C O -0.0096(3) 0.32014(17) 0.33282(18)
O2C O -0.1674(3) 0.30982(16) 0.38146(19)
O5_2 O -0.3274(3) 0.18751(18) 0.30024(17)
O6_2 O -0.2211(2) 0.16318(15) 0.42630(17)
O6C O -0.2211(2) 0.33682(15) -0.07370(17)
O9C O 0.0074(2) 0.19155(17) 0.44511(18)
O9_2 O 0.0074(2) 0.30845(17) -0.05489(18)
O10_2 O 0.1046(2) 0.35658(18) 0.06216(18)
O16 O -0.7764(3) 0.01730(19) 0.6177(2)
H7 H -0.803(5) -0.010(2) 0.650(3)
H8 H -0.802(5) 0.0586(11) 0.619(4)
O17 O -0.4454(6) 0.0283(5) 0.2802(5)
H9 H -0.4600 0.0115 0.3246
H10 H -0.4850 0.0148 0.2320
O18 O -0.1255(4) 0.5245(2) 0.1952(4)
H11 H -0.1984(16) 0.530(4) 0.191(5)
H12 H -0.090(5) 0.5634(19) 0.205(5)
O19 O -0.6366(6) 0.0097(3) 0.3868(8)
H37 H -0.6276 -0.0186 0.3439
H38 H -0.5729 0.0107 0.3995
loop_
_geom_bond_atom_site_label_1
_geom_bond_atom_site_label_2
_geom_bond_site_symmetry_1
_geom_bond_site_symmetry_2
Eu1 O3 1_555 1_555
Eu2 O7 1_555 1_555
O1 C1 1_555 1_555
O2 C1 1_555 1_555
O3 C10 1_555 1_555
O4 Eu1 1_555 1_555
O5 C11 1_555 1_555
O6 C11 1_555 1_555
O7 C20 1_555 1_555
O8 Eu1 1_555 1_555
O9 C21 1_555 1_555
O10 C21 1_555 1_555
O11 Eu2 1_555 1_555
O12 Eu1 1_555 1_555
O13 Eu2 1_555 1_555
H1 O13 1_555 1_555
H2 O13 1_555 1_555
O14 Eu2 1_555 1_555
H3 O14 1_555 1_555
H4 O14 1_555 1_555
O15 Eu2 1_555 1_555
H5 O15 1_555 1_555
H6 O15 1_555 1_555
O16 H7 1_555 1_555
H8 O16 1_555 1_555
O17 H9 1_555 1_555
H10 O17 1_555 1_555
O18 H11 1_555 1_555
H12 O18 1_555 1_555
C1 C2 1_555 1_555
C2 H13 1_555 1_555
H14 C2 1_555 1_555
C3 C2 1_555 1_555
C4 C3 1_555 1_555
H15 C4 1_555 1_555
C5 C4 1_555 1_555
H16 C5 1_555 1_555
C6 C5 1_555 1_555
H17 C6 1_555 1_555
C7 C6 1_555 1_555
C8 C3 1_555 1_555
H18 C8 1_555 1_555
C9 C7 1_555 1_555
H19 C9 1_555 1_555
H20 C9 1_555 1_555
C10 O4 1_555 1_555
C11 C12 1_555 1_555
C12 H21 1_555 1_555
H22 C12 1_555 1_555
C13 C12 1_555 1_555
C14 C13 1_555 1_555
H23 C14 1_555 1_555
C15 C14 1_555 1_555
H24 C15 1_555 1_555
C16 C15 1_555 1_555
H25 C16 1_555 1_555
C17 C16 1_555 1_555
C18 C13 1_555 1_555
H26 C18 1_555 1_555
C19 C17 1_555 1_555
H27 C19 1_555 1_555
H28 C19 1_555 1_555
C20 O8 1_555 1_555
C21 C22 1_555 1_555
C22 H29 1_555 1_555
H30 C22 1_555 1_555
C23 C22 1_555 1_555
C24 C23 1_555 1_555
H31 C24 1_555 1_555
C25 C24 1_555 1_555
H32 C25 1_555 1_555
C26 C25 1_555 1_555
H33 C26 1_555 1_555
C27 C26 1_555 1_555
C28 C23 1_555 1_555
H34 C28 1_555 1_555
C29 C27 1_555 1_555
H35 C29 1_555 1_555
H36 C29 1_555 1_555
C30 O11 1_555 1_555
O19 H37 1_555 1_555
H38 O19 1_555 1_555
Eu1C O9 1_555 1_555
Eu1_2 O5 1_555 1_555
Eu1C_2 O1 1_555 1_555
Eu2_2 O9 1_555 1_555
Eu2C O6 1_555 1_555
O1C Eu1 1_555 1_555
O2C Eu1 1_555 1_555
O5_2 Eu1 1_555 1_555
O6_2 Eu1 1_555 1_555
O6C Eu2 1_555 1_555
O9C Eu1 1_555 1_555
O9_2 Eu2 1_555 1_555
O10_2 Eu2 1_555 1_555
Eu2 O12 1_555 1_555
O2 Eu1C_2 1_555 1_555
O6 Eu1_2 1_555 1_555
O10 Eu2_2 1_555 1_555
O12 C30 1_555 1_555
C7 C8 1_555 1_555
C9 C10 1_555 1_555
C17 C18 1_555 1_555
C19 C20 1_555 1_555
C27 C28 1_555 1_555
C29 C30 1_555 1_555
Eu1C_2 O6C 1_555 1_555
Eu1C_2 O9_2 1_555 1_555

#END
