
#######################################################################
#
#                 Cambridge Crystallographic Data Centre
#                                CCDC 
#
#######################################################################
#
# If this CIF has been generated from an entry in the Cambridge 
# Structural Database, then it will include bibliographic, chemical, 
# crystal, experimental, refinement or atomic coordinate data resulting 
# from the CCDC's data processing and validation procedures.
#
#######################################################################

data_IPIJOH
_symmetry_cell_setting           monoclinic
_symmetry_space_group_name_H-M   'P 21/c'
_symmetry_Int_Tables_number      14
_space_group_name_Hall           '-P 2ybc'
loop_
_symmetry_equiv_pos_site_id
_symmetry_equiv_pos_as_xyz
1 x,y,z
2 -x,1/2+y,1/2-z
3 -x,-y,-z
4 x,1/2-y,1/2+z
_cell_length_a                   11.7722(10)
_cell_length_b                   19.1219(17)
_cell_length_c                   16.4137(14)
_cell_angle_alpha                90
_cell_angle_beta                 104.4600(10)
_cell_angle_gamma                90
_cell_volume                     3577.79
loop_
_atom_site_label
_atom_site_type_symbol
_atom_site_fract_x
_atom_site_fract_y
_atom_site_fract_z
Sm1 Sm 0.100561(12) 0.170986(8) 0.932136(9)
Sm2 Sm 0.122360(13) 0.292117(8) 0.698194(9)
O4 O 0.1044(2) 0.04622(12) 0.97207(15)
H7 H 0.1347 0.0270 1.0169
H8 H 0.0881 0.0182 0.9323
O5 O 0.01323(19) 0.10040(12) 0.80758(13)
H9 H 0.0014 0.1207 0.7612
H10 H 0.0472 0.0625 0.8060
O6 O 0.2024(2) 0.28096(12) 0.96694(14)
H11 H 0.1983 0.3119 0.9307
H12 H 0.2057 0.2986 1.0139
O8 O 0.28264(18) 0.12811(12) 0.90365(13)
O9 O 0.21118(17) 0.20984(11) 0.81193(13)
O10 O 0.89498(18) 0.14450(14) 0.93755(13)
O11 O 0.99189(18) 0.19149(13) 1.05499(14)
O12 O 0.19576(19) 0.36052(12) 0.82860(13)
O13 O 0.1390(2) 0.42319(12) 0.71327(13)
O14 O 0.1684(2) 0.31011(12) 1.11948(14)
O15 O 0.0098(2) 0.32095(13) 1.16749(14)
O16 O -0.0089(2) 0.25239(14) 0.83483(17)
O17 O -0.0534(2) 0.33205(13) 0.73675(14)
O18 O -0.6715(2) 0.31272(14) 0.70086(14)
O19 O -0.77831(17) 0.33637(11) 0.57469(13)
C1 C 0.2937(3) 0.16790(16) 0.84444(18)
C2 C 0.4055(3) 0.16726(19) 0.8160(2)
H15 H 0.3927 0.1901 0.7616
H16 H 0.4289 0.1193 0.8097
C3 C 0.5027(3) 0.20496(17) 0.87958(19)
C4 C 0.5975(3) 0.16793(19) 0.92962(19)
H17 H 0.6009 0.1196 0.9238
C5 C 0.6860(3) 0.2018(2) 0.9875(2)
C6 C 0.6809(3) 0.2734(2) 0.9954(2)
H18 H 0.7403 0.2968 1.0336
C7 C 0.5873(3) 0.3104(2) 0.9465(3)
H19 H 0.5841 0.3587 0.9524
C8 C 0.4988(3) 0.27630(19) 0.8892(2)
H20 H 0.4362 0.3017 0.8570
C9 C 0.7887(3) 0.1603(2) 1.0425(2)
H21 H 0.8055 0.1778 1.0998
H22 H 0.7665 0.1115 1.0434
C10 C 0.8980(3) 0.16591(17) 1.01009(19)
C11 C 0.1795(3) 0.41943(17) 0.79193(19)
C12 C 0.2095(4) 0.48563(18) 0.8419(2)
H23 H 0.1468 0.5190 0.8216
H24 H 0.2802 0.5050 0.8305
C13 C 0.2286(4) 0.47895(17) 0.9359(2)
C14 C 0.3359(4) 0.4985(2) 0.9897(3)
H25 H 0.3965 0.5146 0.9675
C15 C 0.3518(6) 0.4939(3) 1.0759(3)
H26 H 0.4221 0.5086 1.1114
C16 C 0.2650(6) 0.4679(3) 1.1093(3)
H27 H 0.2779 0.4639 1.1674
C17 C 0.1582(5) 0.4475(2) 1.0577(3)
C18 C 0.1418(4) 0.45215(18) 0.9708(2)
H28 H 0.0715 0.4370 0.9356
C19 C 0.0625(5) 0.4191(2) 1.0942(3)
H29 H -0.0106 0.4202 1.0509
H30 H 0.0537 0.4499 1.1392
C20 C 0.0817(3) 0.34539(19) 1.1286(2)
C21 C -0.0772(3) 0.29792(17) 0.7960(2)
C22 C -0.1924(3) 0.3099(2) 0.8174(2)
H31 H -0.2092 0.3596 0.8158
H32 H -0.1877 0.2932 0.8739
C23 C -0.2902(3) 0.2721(2) 0.7555(2)
C24 C -0.2911(3) 0.2006(2) 0.7518(2)
H33 H -0.2304 0.1752 0.7864
C25 C -0.3820(3) 0.1656(2) 0.6967(3)
H34 H -0.3820 0.1170 0.6948
C26 C -0.4730(3) 0.2027(2) 0.6443(2)
H35 H -0.5340 0.1789 0.6079
C27 C -0.4727(3) 0.2746(2) 0.6465(2)
C28 C -0.3811(3) 0.3091(2) 0.7021(2)
H36 H -0.3805 0.3578 0.7037
C29 C -0.5714(3) 0.3158(2) 0.5900(2)
H37 H -0.5433 0.3625 0.5824
H38 H -0.5931 0.2936 0.5352
C30 C -0.6790(3) 0.32170(17) 0.62392(19)
Sm1_2 Sm 1.100561(12) 0.170986(8) 0.932136(9)
Sm1C Sm -0.899439(12) 0.329014(8) 0.432136(9)
Sm2C Sm 1.122360(13) 0.207883(8) 1.198194(9)
Sm2C_2 Sm 0.122360(13) 0.207883(8) 1.198194(9)
Sm2_2 Sm -0.877640(13) 0.292117(8) 0.698194(9)
O10_2 O -0.10502(18) 0.14450(14) 0.93755(13)
O11_2 O -0.00811(18) 0.19149(13) 1.05499(14)
O11C O -0.00811(18) 0.30851(13) 0.55499(14)
O14C O 0.1684(2) 0.18989(12) 0.61948(14)
O15C O 0.0098(2) 0.17905(13) 0.66749(14)
O18_2 O 0.3285(2) 0.31272(14) 0.70086(14)
O19C O 0.22169(17) 0.16363(11) 1.07469(13)
O19_2 O 0.22169(17) 0.33637(11) 0.57469(13)
O1 O 0.4452(4) 0.4721(3) 0.7211(4)
H1 H 0.3790 0.4859 0.6915
H2 H 0.4962 0.4773 0.6929
O2 O 0.1267(3) 0.97652(15) 0.8053(2)
H3 H 0.1075 0.9353 0.7931
H4 H 0.1992 0.9809 0.8171
O3 O 0.2227(2) 0.51763(14) 0.61809(16)
H5 H 0.2037 0.5599 0.6176
H6 H 0.1919 0.4956 0.6510
O7 O 0.3644(4) 0.9893(2) 0.8791(6)
H13 H 0.3569 1.0172 0.9163
H14 H 0.4353 0.9851 0.8798
loop_
_geom_bond_atom_site_label_1
_geom_bond_atom_site_label_2
_geom_bond_site_symmetry_1
_geom_bond_site_symmetry_2
Sm1 O4 1_555 1_555
Sm2 O9 1_555 1_555
O1 H1 1_555 1_555
H2 O1 1_555 1_555
O2 H3 1_555 1_555
H4 O2 1_555 1_555
O3 H5 1_555 1_555
H6 O3 1_555 1_555
O4 H7 1_555 1_555
H8 O4 1_555 1_555
O5 Sm1 1_555 1_555
H9 O5 1_555 1_555
H10 O5 1_555 1_555
O6 Sm1 1_555 1_555
H11 O6 1_555 1_555
H12 O6 1_555 1_555
O7 H13 1_555 1_555
H14 O7 1_555 1_555
O8 Sm1 1_555 1_555
O9 Sm1 1_555 1_555
O10 C10 1_555 1_555
O11 C10 1_555 1_555
O12 Sm2 1_555 1_555
O13 Sm2 1_555 1_555
O14 C20 1_555 1_555
O15 C20 1_555 1_555
O16 Sm1 1_555 1_555
O17 Sm2 1_555 1_555
O18 C30 1_555 1_555
O19 C30 1_555 1_555
C1 O8 1_555 1_555
C2 C1 1_555 1_555
H15 C2 1_555 1_555
H16 C2 1_555 1_555
C3 C2 1_555 1_555
C4 C3 1_555 1_555
H17 C4 1_555 1_555
C5 C4 1_555 1_555
C6 C5 1_555 1_555
H18 C6 1_555 1_555
C7 C6 1_555 1_555
H19 C7 1_555 1_555
C8 C3 1_555 1_555
H20 C8 1_555 1_555
C9 C5 1_555 1_555
H21 C9 1_555 1_555
H22 C9 1_555 1_555
C10 C9 1_555 1_555
C11 O12 1_555 1_555
C12 C11 1_555 1_555
H23 C12 1_555 1_555
H24 C12 1_555 1_555
C13 C12 1_555 1_555
C14 C13 1_555 1_555
H25 C14 1_555 1_555
C15 C14 1_555 1_555
H26 C15 1_555 1_555
C16 C15 1_555 1_555
H27 C16 1_555 1_555
C17 C16 1_555 1_555
C18 C13 1_555 1_555
H28 C18 1_555 1_555
C19 C17 1_555 1_555
H29 C19 1_555 1_555
H30 C19 1_555 1_555
C20 C19 1_555 1_555
C21 O16 1_555 1_555
C22 C21 1_555 1_555
H31 C22 1_555 1_555
H32 C22 1_555 1_555
C23 C22 1_555 1_555
C24 C23 1_555 1_555
H33 C24 1_555 1_555
C25 C24 1_555 1_555
H34 C25 1_555 1_555
C26 C25 1_555 1_555
H35 C26 1_555 1_555
C27 C26 1_555 1_555
C28 C23 1_555 1_555
H36 C28 1_555 1_555
C29 C27 1_555 1_555
H37 C29 1_555 1_555
H38 C29 1_555 1_555
C30 C29 1_555 1_555
Sm1_2 O10 1_555 1_555
Sm1C O19 1_555 1_555
Sm2C O11 1_555 1_555
Sm2C_2 O14 1_555 1_555
Sm2_2 O18 1_555 1_555
O10_2 Sm1 1_555 1_555
O11_2 Sm1 1_555 1_555
O11C Sm2 1_555 1_555
O14C Sm2 1_555 1_555
O15C Sm2 1_555 1_555
O18_2 Sm2 1_555 1_555
O19C Sm1 1_555 1_555
O19_2 Sm2 1_555 1_555
O9 C1 1_555 1_555
O11 Sm1_2 1_555 1_555
O13 C11 1_555 1_555
O15 Sm2C_2 1_555 1_555
O17 C21 1_555 1_555
O19 Sm2_2 1_555 1_555
C7 C8 1_555 1_555
C17 C18 1_555 1_555
C27 C28 1_555 1_555
Sm2C_2 O11_2 1_555 1_555
Sm2C_2 O19C 1_555 1_555

#END
