
#######################################################################
#
#                 Cambridge Crystallographic Data Centre
#                                CCDC 
#
#######################################################################
#
# If this CIF has been generated from an entry in the Cambridge 
# Structural Database, then it will include bibliographic, chemical, 
# crystal, experimental, refinement or atomic coordinate data resulting 
# from the CCDC's data processing and validation procedures.
#
#######################################################################

data_IPIJAT
_symmetry_cell_setting           monoclinic
_symmetry_space_group_name_H-M   'C 2/c'
_symmetry_Int_Tables_number      15
_space_group_name_Hall           '-C 2yn'
loop_
_symmetry_equiv_pos_site_id
_symmetry_equiv_pos_as_xyz
1 x,y,z
2 -x,y,1/2-z
3 1/2+x,1/2+y,z
4 1/2-x,1/2+y,1/2-z
5 -x,-y,-z
6 x,-y,1/2+z
7 1/2-x,1/2-y,-z
8 1/2+x,1/2-y,1/2+z
_cell_length_a                   15.599(4)
_cell_length_b                   8.666(2)
_cell_length_c                   10.089(3)
_cell_angle_alpha                90
_cell_angle_beta                 115.457(4)
_cell_angle_gamma                90
_cell_volume                     1231.42
loop_
_atom_site_label
_atom_site_type_symbol
_atom_site_fract_x
_atom_site_fract_y
_atom_site_fract_z
C1 C 0.1408(2) -0.0215(4) -0.1592(4)
C2 C 0.2465(2) -0.0442(4) -0.0775(3)
C3 C 0.2901(2) -0.1577(3) -0.1240(4)
H1 H 0.2532 -0.2222 -0.2046
C4 C 0.3883(2) -0.1765(4) -0.0520(3)
C5 C 0.4377(2) -0.0803(3) 0.0668(3)
H2 H 0.5042 -0.0954 0.1202
C6 C 0.3017(2) 0.0496(4) 0.0393(3)
H3 H 0.2716 0.1281 0.0699
Cd1 Cd 0.5000 0.22647(3) 0.2500
Cd2 Cd 0.0000 0.0000 0.0000
N1 N 0.39655(19) 0.0332(3) 0.1107(3)
O1 O 0.10292(15) 0.0771(2) -0.1038(2)
O2 O 0.09812(16) -0.0964(2) -0.2738(2)
O3 O 0.43437(16) -0.2791(2) -0.0968(3)
C1A C 0.8592(2) -0.0215(4) 0.6592(4)
C2A C 0.7535(2) -0.0442(4) 0.5775(3)
C3A C 0.7099(2) -0.1577(3) 0.6240(4)
H1A H 0.7468 -0.2222 0.7046
C4A C 0.6117(2) -0.1765(4) 0.5520(3)
C5A C 0.5623(2) -0.0803(3) 0.4332(3)
H2A H 0.4958 -0.0954 0.3798
C6A C 0.6983(2) 0.0496(4) 0.4607(3)
H3A H 0.7284 0.1281 0.4301
Cd1F Cd 0.0000 0.27353(3) -0.2500
Cd1D Cd 0.5000 -0.22647(3) -0.2500
Cd1F_2 Cd 1.0000 0.27353(3) 0.7500
Cd1D_2 Cd 0.5000 -0.22647(3) 0.7500
Cd2A Cd 0.0000 0.0000 -0.5000
Cd2B Cd 0.5000 -0.5000 0.0000
Cd2A_2 Cd 1.0000 0.0000 0.5000
Cd2_2 Cd 1.0000 0.0000 1.0000
Cd2C Cd 0.5000 -0.5000 0.5000
N1A N 0.60345(19) 0.0332(3) 0.3893(3)
O1A O 0.89708(15) 0.0771(2) 0.6038(2)
O1F O 0.39708(15) 0.4229(2) 0.1038(2)
O1G O 0.60292(15) 0.4229(2) 0.3962(2)
O1D O -0.10292(15) -0.0771(2) 0.1038(2)
O2A O 0.90188(16) -0.0964(2) 0.7738(2)
O2A_2 O -0.09812(16) -0.0964(2) -0.2262(2)
O2E O 0.09812(16) 0.0964(2) 0.2262(2)
O3A O 0.56563(16) -0.2791(2) 0.5968(3)
O3D O 0.56563(16) 0.2791(2) 0.0968(3)
O3E O 0.43437(16) 0.2791(2) 0.4032(3)
O3B O -0.06563(16) 0.2209(2) -0.0968(3)
O3F O 0.06563(16) -0.2209(2) 0.0968(3)
loop_
_geom_bond_atom_site_label_1
_geom_bond_atom_site_label_2
_geom_bond_site_symmetry_1
_geom_bond_site_symmetry_2
C1 C2 1_555 1_555
C2 C3 1_555 1_555
C3 H1 1_555 1_555
C4 C3 1_555 1_555
C5 C4 1_555 1_555
H2 C5 1_555 1_555
C6 C2 1_555 1_555
H3 C6 1_555 1_555
Cd1 N1 1_555 1_555
Cd2 O1 1_555 1_555
N1 C5 1_555 1_555
O1 C1 1_555 1_555
O2 C1 1_555 1_555
O3 C4 1_555 1_555
C1A C2A 1_555 1_555
C2A C3A 1_555 1_555
C3A H1A 1_555 1_555
C4A C3A 1_555 1_555
C5A C4A 1_555 1_555
H2A C5A 1_555 1_555
C6A C2A 1_555 1_555
H3A C6A 1_555 1_555
Cd1F O1 1_555 1_555
Cd1D O3 1_555 1_555
Cd1F_2 O1A 1_555 1_555
Cd1D_2 O3A 1_555 1_555
Cd2A O2 1_555 1_555
Cd2B O3 1_555 1_555
Cd2A_2 O1A 1_555 1_555
Cd2_2 O2A 1_555 1_555
Cd2C O3A 1_555 1_555
N1A Cd1 1_555 1_555
O1A C1A 1_555 1_555
O1F Cd1 1_555 1_555
O1G Cd1 1_555 1_555
O1D Cd2 1_555 1_555
O2A C1A 1_555 1_555
O2A_2 Cd2 1_555 1_555
O2E Cd2 1_555 1_555
O3A C4A 1_555 1_555
O3D Cd1 1_555 1_555
O3E Cd1 1_555 1_555
O3B Cd2 1_555 1_555
O3F Cd2 1_555 1_555
C6 N1 1_555 1_555
C5A N1A 1_555 1_555
C6A N1A 1_555 1_555
Cd1F O3B 1_555 1_555

#END
