
#######################################################################
#
#                 Cambridge Crystallographic Data Centre
#                                CCDC 
#
#######################################################################
#
# If this CIF has been generated from an entry in the Cambridge 
# Structural Database, then it will include bibliographic, chemical, 
# crystal, experimental, refinement or atomic coordinate data resulting 
# from the CCDC's data processing and validation procedures.
#
#######################################################################

data_IPIKAU
_symmetry_cell_setting           monoclinic
_symmetry_space_group_name_H-M   'P 21/n'
_symmetry_Int_Tables_number      14
_space_group_name_Hall           '-P 2yn'
loop_
_symmetry_equiv_pos_site_id
_symmetry_equiv_pos_as_xyz
1 x,y,z
2 1/2-x,1/2+y,1/2-z
3 -x,-y,-z
4 1/2+x,1/2-y,1/2+z
_cell_length_a                   13.0442(16)
_cell_length_b                   20.172(2)
_cell_length_c                   14.2057(17)
_cell_angle_alpha                90
_cell_angle_beta                 106.5850(10)
_cell_angle_gamma                90
_cell_volume                     3582.4
loop_
_atom_site_label
_atom_site_type_symbol
_atom_site_fract_x
_atom_site_fract_y
_atom_site_fract_z
Tb1 Tb 0.55994(3) 0.218467(19) 0.24191(2)
Tb2 Tb 0.31620(3) 0.178247(19) -0.01819(2)
O1 O 0.4427(5) 0.3147(3) 0.1845(4)
O2 O 0.6103(5) 0.3297(3) 0.1934(4)
O3 O 0.1384(5) 0.3525(3) -0.1163(4)
O4 O 0.0720(5) 0.4043(4) -0.2557(5)
O5 O 0.4759(5) 0.1449(4) -0.0678(5)
O6 O 0.5181(4) 0.2021(3) 0.0667(4)
O7 O 0.8692(4) 0.3226(3) -0.3438(3)
O8 O 0.9171(4) 0.3056(3) -0.1865(4)
O9 O 0.6522(4) 0.3588(3) 0.5071(4)
O10 O 0.6136(4) 0.2889(3) 0.3838(3)
O11 O 0.3335(5) 0.2542(4) 0.8706(5)
O12 O 0.2342(4) 0.3009(4) 0.7349(4)
O13 O 0.2642(5) 0.2818(3) 0.0397(4)
H1 H 0.3108 0.3116 0.0619
H2 H 0.2195 0.2610 -0.0062
O14 O 0.3554(7) 0.0631(4) 0.0345(6)
H3 H 0.4187 0.0483 0.0447
H4 H 0.3260 0.0769 -0.0235
O15 O 0.2578(5) 0.1103(3) -0.1622(5)
H5 H 0.3033 0.0943 -0.1883
H6 H 0.1916 0.1022 -0.1870
C1 C 0.5153(7) 0.3519(5) 0.1765(6)
C2 C 0.4963(10) 0.4242(6) 0.1516(11)
H7 H 0.5337 0.4503 0.2084
H8 H 0.5270 0.4348 0.0988
C3 C 0.3806(12) 0.4440(6) 0.1211(11)
C4 C 0.3251(15) 0.4519(8) 0.1911(12)
H9 H 0.3624 0.4488 0.2574
C5 C 0.2148(17) 0.4643(10) 0.1643(14)
H10 H 0.1780 0.4672 0.2113
C6 C 0.1623(15) 0.4720(9) 0.0645(15)
H11 H 0.0897 0.4821 0.0450
C7 C 0.2171(13) 0.4648(6) -0.0078(11)
C8 C 0.3246(11) 0.4507(5) 0.0213(9)
H12 H 0.3609 0.4454 -0.0258
C9 C 0.1614(13) 0.4712(6) -0.1183(10)
H13 H 0.1021 0.5020 -0.1283
H14 H 0.2115 0.4892 -0.1506
C10 C 0.1201(8) 0.4051(5) -0.1643(7)
C11 C 0.5466(6) 0.1717(4) -0.0009(6)
C12 C 0.6605(6) 0.1718(5) -0.0032(6)
H15 H 0.6715 0.1366 -0.0458
H16 H 0.7074 0.1640 0.0623
C13 C 0.6872(7) 0.2390(5) -0.0413(6)
C14 C 0.6985(10) 0.2933(7) 0.0217(8)
H17 H 0.6951 0.2876 0.0857
C15 C 0.7147(13) 0.3551(8) -0.0115(10)
H18 H 0.7238 0.3914 0.0305
C16 C 0.7177(11) 0.3637(7) -0.1077(10)
H19 H 0.7233 0.4062 -0.1312
C17 C 0.7123(7) 0.3090(7) -0.1698(7)
C18 C 0.6945(6) 0.2474(5) -0.1339(6)
H20 H 0.6872 0.2106 -0.1747
C19 C 0.7283(7) 0.3188(6) -0.2670(7)
H21 H 0.6996 0.3616 -0.2924
H22 H 0.6890 0.2850 -0.3114
C20 C 0.8451(6) 0.3155(4) -0.2642(5)
C21 C 0.5846(5) 0.3255(4) 0.4443(5)
C22 C 0.4680(6) 0.3285(5) 0.4393(6)
H23 H 0.4303 0.3515 0.3795
H24 H 0.4406 0.2835 0.4344
C23 C 0.4416(6) 0.3622(4) 0.5252(6)
C24 C 0.4145(7) 0.4279(5) 0.5227(7)
H25 H 0.4130 0.4531 0.4674
C25 C 0.3891(10) 0.4576(6) 0.6017(9)
H26 H 0.3704 0.5022 0.5991
C26 C 0.3919(8) 0.4203(5) 0.6838(7)
H27 H 0.3752 0.4403 0.7365
C27 C 0.4191(6) 0.3539(5) 0.6891(6)
C28 C 0.4437(6) 0.3256(5) 0.6097(6)
H28 H 0.4623 0.2809 0.6124
C29 C 0.4254(6) 0.3138(6) 0.7803(6)
H29 H 0.4600 0.3410 0.8368
H30 H 0.4719 0.2762 0.7808
C30 C 0.3231(6) 0.2879(4) 0.7947(6)
Tb1C Tb 0.05994(3) 0.281533(19) -0.25809(2)
Tb1C_2 Tb 1.05994(3) 0.281533(19) -0.25809(2)
Tb1C_3 Tb 0.05994(3) 0.281533(19) 0.74191(2)
Tb2C Tb 0.81620(3) 0.321753(19) -0.51819(2)
Tb2C_2 Tb 0.81620(3) 0.321753(19) 0.48181(2)
Tb2_2 Tb 0.31620(3) 0.178247(19) 0.98181(2)
O3C O 0.6384(5) 0.1475(3) 0.3837(4)
O4C O 0.5720(5) 0.0957(4) 0.2443(5)
O7C O 0.3692(4) 0.1774(3) 0.1562(3)
O8C O 0.4171(4) 0.1944(3) 0.3135(4)
O9C O 0.1522(4) 0.1412(3) 0.0071(4)
O10C O 0.1136(4) 0.2111(3) -0.1162(3)
O11_2 O 0.3335(5) 0.2542(4) -0.1294(5)
O12C O 0.7342(4) 0.1991(4) 0.2349(4)
O16 O -0.0168(12) 0.3478(9) 0.0339(10)
H31 H 0.0221 0.3492 -0.0050
H32 H -0.0226 0.3587 0.0900
O17 O 0.9700(17) 0.3846(8) 0.2271(11)
H33 H 0.9566 0.4140 0.2649
H34 H 0.9728 0.3760 0.2863
O18 O 0.085(2) 0.5040(8) 0.6275(10)
H35 H 0.0217 0.5158 0.5972
H36 H 0.1308 0.5351 0.6380
loop_
_geom_bond_atom_site_label_1
_geom_bond_atom_site_label_2
_geom_bond_site_symmetry_1
_geom_bond_site_symmetry_2
Tb1 O1 1_555 1_555
Tb2 O5 1_555 1_555
O1 C1 1_555 1_555
O2 Tb1 1_555 1_555
O3 C10 1_555 1_555
O4 C10 1_555 1_555
O5 C11 1_555 1_555
O6 Tb1 1_555 1_555
O7 C20 1_555 1_555
O8 C20 1_555 1_555
O9 C21 1_555 1_555
O10 Tb1 1_555 1_555
O11 C30 1_555 1_555
O12 C30 1_555 1_555
O13 Tb2 1_555 1_555
H1 O13 1_555 1_555
H2 O13 1_555 1_555
O14 Tb2 1_555 1_555
H3 O14 1_555 1_555
H4 O14 1_555 1_555
O15 Tb2 1_555 1_555
H5 O15 1_555 1_555
H6 O15 1_555 1_555
C1 O2 1_555 1_555
C2 C1 1_555 1_555
H7 C2 1_555 1_555
H8 C2 1_555 1_555
C3 C2 1_555 1_555
C4 C3 1_555 1_555
H9 C4 1_555 1_555
C5 C4 1_555 1_555
H10 C5 1_555 1_555
C6 C5 1_555 1_555
H11 C6 1_555 1_555
C7 C6 1_555 1_555
C8 C3 1_555 1_555
H12 C8 1_555 1_555
C9 C7 1_555 1_555
H13 C9 1_555 1_555
H14 C9 1_555 1_555
C10 C9 1_555 1_555
C11 O6 1_555 1_555
C12 C11 1_555 1_555
H15 C12 1_555 1_555
H16 C12 1_555 1_555
C13 C12 1_555 1_555
C14 C13 1_555 1_555
H17 C14 1_555 1_555
C15 C14 1_555 1_555
H18 C15 1_555 1_555
C16 C15 1_555 1_555
H19 C16 1_555 1_555
C17 C16 1_555 1_555
C18 C13 1_555 1_555
H20 C18 1_555 1_555
C19 C17 1_555 1_555
H21 C19 1_555 1_555
H22 C19 1_555 1_555
C20 C19 1_555 1_555
C21 O10 1_555 1_555
C22 C21 1_555 1_555
H23 C22 1_555 1_555
H24 C22 1_555 1_555
C23 C22 1_555 1_555
C24 C23 1_555 1_555
H25 C24 1_555 1_555
C25 C24 1_555 1_555
H26 C25 1_555 1_555
C26 C25 1_555 1_555
H27 C26 1_555 1_555
C27 C26 1_555 1_555
C28 C23 1_555 1_555
H28 C28 1_555 1_555
C29 C27 1_555 1_555
H29 C29 1_555 1_555
H30 C29 1_555 1_555
C30 C29 1_555 1_555
O16 H31 1_555 1_555
H32 O16 1_555 1_555
O17 H33 1_555 1_555
H34 O17 1_555 1_555
O18 H35 1_555 1_555
H36 O18 1_555 1_555
Tb1C O3 1_555 1_555
Tb1C_2 O7 1_555 1_555
Tb1C_3 O12 1_555 1_555
Tb2C O7 1_555 1_555
Tb2C_2 O9 1_555 1_555
Tb2_2 O11 1_555 1_555
O3C Tb1 1_555 1_555
O4C Tb1 1_555 1_555
O7C Tb1 1_555 1_555
O8C Tb1 1_555 1_555
O9C Tb2 1_555 1_555
O10C Tb2 1_555 1_555
O11_2 Tb2 1_555 1_555
O12C Tb1 1_555 1_555
Tb2 O6 1_555 1_555
Tb2 O7C 1_555 1_555
O4 Tb1C 1_555 1_555
O8 Tb1C_2 1_555 1_555
O10 Tb2C_2 1_555 1_555
C7 C8 1_555 1_555
C17 C18 1_555 1_555
C27 C28 1_555 1_555
Tb1C O10C 1_555 1_555

#END
