
#######################################################################
#
#                 Cambridge Crystallographic Data Centre
#                                CCDC 
#
#######################################################################
#
# If this CIF has been generated from an entry in the Cambridge 
# Structural Database, then it will include bibliographic, chemical, 
# crystal, experimental, refinement or atomic coordinate data resulting 
# from the CCDC's data processing and validation procedures.
#
#######################################################################

data_IPILOJ
_symmetry_cell_setting           rhombohedral
_symmetry_space_group_name_H-M   'R -3'
_symmetry_Int_Tables_number      148
_space_group_name_Hall           '-R 3'
loop_
_symmetry_equiv_pos_site_id
_symmetry_equiv_pos_as_xyz
1 x,y,z
2 -y,x-y,z
3 -x+y,-x,z
4 2/3+x,1/3+y,1/3+z
5 2/3-y,1/3+x-y,1/3+z
6 2/3-x+y,1/3-x,1/3+z
7 1/3+x,2/3+y,2/3+z
8 1/3-y,2/3+x-y,2/3+z
9 1/3-x+y,2/3-x,2/3+z
10 -x,-y,-z
11 y,-x+y,-z
12 x-y,x,-z
13 1/3-x,2/3-y,2/3-z
14 1/3+y,2/3-x+y,2/3-z
15 1/3+x-y,2/3+x,2/3-z
16 2/3-x,1/3-y,1/3-z
17 2/3+y,1/3-x+y,1/3-z
18 2/3+x-y,1/3+x,1/3-z
_cell_length_a                   39.690(3)
_cell_length_b                   39.690(3)
_cell_length_c                   10.2088(12)
_cell_angle_alpha                90
_cell_angle_beta                 90
_cell_angle_gamma                120
_cell_volume                     13927.3
loop_
_atom_site_label
_atom_site_type_symbol
_atom_site_fract_x
_atom_site_fract_y
_atom_site_fract_z
Hg1 Hg 0.56888(2) 0.02332(3) 0.96418(7)
Hg2 Hg 0.60202(2) 0.12249(3) 0.75895(7)
Hg3 Hg 0.65797(4) 0.26291(3) 0.66754(9)
Hg4 Hg 0.6667 0.3333 0.3333
Br1 Br 0.51168(6) -0.00798(8) 0.82327(18)
Br2 Br 0.61247(6) 0.06015(9) 1.14102(19)
Br3 Br 0.62650(6) 0.07456(8) 0.7541(2)
Br4 Br 0.62838(7) 0.17716(10) 0.5951(2)
Br5 Br 0.71258(8) 0.26558(6) 0.7858(2)
Br6 Br 0.61774(10) 0.26781(7) 0.4948(2)
Br7 Br 0.6667 0.3333 0.8333
C1 C 0.5194(5) -0.0817(6) 0.9662(15)
C2 C 0.4552(5) -0.1170(6) 0.9950(16)
C3 C 0.4919(5) -0.0827(6) 1.1585(16)
C4 C 0.5678(6) -0.0378(8) 1.3377(19)
H1 H 0.5845 -0.0236 1.4093
H2 H 0.5752 -0.0217 1.2611
H3 H 0.5699 -0.0605 1.3202
C5 C 0.5279(5) -0.0500(7) 1.3726(17)
C6 C 0.5127(5) -0.0470(7) 1.4891(16)
H4 H 0.5267 -0.0351 1.5647
C7 C 0.4722(5) -0.0656(7) 1.4734(17)
C8 C 0.4413(6) -0.0667(9) 1.5666(19)
H5 H 0.4162 -0.0819 1.5270
H6 H 0.4463 -0.0407 1.5816
H7 H 0.4420 -0.0781 1.6486
C9 C 0.4296(5) -0.1669(8) 0.7257(18)
H8 H 0.4139 -0.1823 0.6536
H9 H 0.4418 -0.1799 0.7664
H10 H 0.4492 -0.1419 0.6943
C10 C 0.4049(6) -0.1615(8) 0.8238(16)
C11 C 0.3666(5) -0.1767(7) 0.8278(19)
H11 H 0.3498 -0.1902 0.7594
C12 C 0.3564(5) -0.1680(7) 0.9473(18)
C13 C 0.3164(5) -0.1763(8) 0.9934(19)
H12 H 0.3185 -0.1679 1.0826
H13 H 0.2981 -0.2036 0.9882
H14 H 0.3078 -0.1622 0.9396
C14 C 0.5327(6) -0.1186(8) 0.7190(17)
H15 H 0.5078 -0.1292 0.7611
H16 H 0.5303 -0.1135 0.6286
H17 H 0.5418 -0.1368 0.7250
C15 C 0.5606(5) -0.0825(7) 0.7829(17)
C16 C 0.5987(5) -0.0573(7) 0.7620(18)
H18 H 0.6135 -0.0593 0.6952
C17 C 0.6122(6) -0.0286(8) 0.8496(16)
C18 C 0.6532(5) 0.0066(8) 0.8668(17)
H19 H 0.6539 0.0220 0.9401
H20 H 0.6712 -0.0026 0.8809
H21 H 0.6601 0.0219 0.7884
N1 N 0.5530(4) -0.0676(6) 0.8942(12)
N2 N 0.4865(4) -0.1067(6) 0.9135(12)
N3 N 0.5249(4) -0.0682(6) 1.0907(14)
N4 N 0.4561(3) -0.1067(4) 1.1165(13)
N5 N 0.4948(4) -0.0715(5) 1.2912(12)
N6 N 0.4595(4) -0.0815(6) 1.3508(13)
N7 N 0.4190(4) -0.1401(6) 0.9410(12)
N8 N 0.3865(4) -0.1454(6) 1.0116(13)
N9 N 0.5851(4) -0.0335(6) 0.9354(13)
Hg2I Hg 0.39798(2) -0.12249(3) 1.24105(7)
Hg3N Hg 0.72839(5) 0.32464(4) 0.99913(9)
Hg3B Hg 0.60494(5) 0.34203(4) 0.66754(9)
Hg3A Hg 0.73709(3) 0.39506(5) 0.66754(9)
Hg3L Hg 0.67536(4) 0.40376(3) 0.99913(9)
Hg3M Hg 0.59624(3) 0.27161(5) 0.99913(9)
Br5M Br 0.59891(6) 0.21967(10) 0.8809(2)
Br6A Br 0.73219(7) 0.34993(12) 0.4948(2)
Br6B Br 0.65007(12) 0.38226(10) 0.4948(2)
Br6L Br 0.71559(10) 0.39886(7) 0.1719(2)
Br6M Br 0.60114(7) 0.31674(12) 0.1719(2)
Br6N Br 0.68326(12) 0.28441(10) 0.1719(2)
N4I N 0.5439(3) 0.1067(4) 0.8835(13)
N6I N 0.5405(4) 0.0815(6) 0.6492(13)
N8I N 0.6135(4) 0.1454(6) 0.9884(13)
loop_
_geom_bond_atom_site_label_1
_geom_bond_atom_site_label_2
_geom_bond_site_symmetry_1
_geom_bond_site_symmetry_2
Hg1 Br1 1_555 1_555
Hg2 Br3 1_555 1_555
Hg3 Br4 1_555 1_555
Hg4 Br6 1_555 1_555
Br2 Hg1 1_555 1_555
Br3 Hg1 1_555 1_555
Br4 Hg2 1_555 1_555
Br5 Hg3 1_555 1_555
Br6 Hg3 1_555 1_555
Br7 Hg3 1_555 1_555
C1 N1 1_555 1_555
C2 N2 1_555 1_555
C3 N3 1_555 1_555
C4 H1 1_555 1_555
H2 C4 1_555 1_555
H3 C4 1_555 1_555
C5 C4 1_555 1_555
C6 C5 1_555 1_555
H4 C6 1_555 1_555
C7 C6 1_555 1_555
C8 C7 1_555 1_555
H5 C8 1_555 1_555
H6 C8 1_555 1_555
H7 C8 1_555 1_555
C9 H8 1_555 1_555
H9 C9 1_555 1_555
H10 C9 1_555 1_555
C10 C9 1_555 1_555
C11 C10 1_555 1_555
H11 C11 1_555 1_555
C12 C11 1_555 1_555
C13 C12 1_555 1_555
H12 C13 1_555 1_555
H13 C13 1_555 1_555
H14 C13 1_555 1_555
C14 H15 1_555 1_555
H16 C14 1_555 1_555
H17 C14 1_555 1_555
C15 C14 1_555 1_555
C16 C15 1_555 1_555
H18 C16 1_555 1_555
C17 C16 1_555 1_555
C18 C17 1_555 1_555
H19 C18 1_555 1_555
H20 C18 1_555 1_555
H21 C18 1_555 1_555
N1 C15 1_555 1_555
N2 C1 1_555 1_555
N3 C1 1_555 1_555
N4 C2 1_555 1_555
N5 C3 1_555 1_555
N6 C7 1_555 1_555
N7 C2 1_555 1_555
N8 C12 1_555 1_555
N9 Hg1 1_555 1_555
Hg2I N4 1_555 1_555
Hg3N Br5 1_555 1_555
Hg3B Br7 1_555 1_555
Hg3A Br7 1_555 1_555
Hg3L Br7 1_555 1_555
Hg3M Br7 1_555 1_555
Br5M Hg3 1_555 1_555
Br6A Hg4 1_555 1_555
Br6B Hg4 1_555 1_555
Br6L Hg4 1_555 1_555
Br6M Hg4 1_555 1_555
Br6N Hg4 1_555 1_555
N4I Hg2 1_555 1_555
N6I Hg2 1_555 1_555
N8I Hg2 1_555 1_555
Br7 Hg3N 1_555 1_555
C3 N4 1_555 1_555
C5 N5 1_555 1_555
C10 N7 1_555 1_555
C17 N9 1_555 1_555
N1 N9 1_555 1_555
N5 N6 1_555 1_555
N6 Hg2I 1_555 1_555
N7 N8 1_555 1_555
N8 Hg2I 1_555 1_555
Hg3B Br6B 1_555 1_555
Hg3A Br6A 1_555 1_555
Hg3M Br5M 1_555 1_555

#END
