
#######################################################################
#
#                 Cambridge Crystallographic Data Centre
#                                CCDC 
#
#######################################################################
#
# If this CIF has been generated from an entry in the Cambridge 
# Structural Database, then it will include bibliographic, chemical, 
# crystal, experimental, refinement or atomic coordinate data resulting 
# from the CCDC's data processing and validation procedures.
#
#######################################################################

data_IPIMOK
_symmetry_cell_setting           monoclinic
_symmetry_space_group_name_H-M   'P 21/n'
_symmetry_Int_Tables_number      14
_space_group_name_Hall           '-P 2yn'
loop_
_symmetry_equiv_pos_site_id
_symmetry_equiv_pos_as_xyz
1 x,y,z
2 1/2-x,1/2+y,1/2-z
3 -x,-y,-z
4 1/2+x,1/2-y,1/2+z
_cell_length_a                   15.018(8)
_cell_length_b                   11.196(5)
_cell_length_c                   18.658(10)
_cell_angle_alpha                90
_cell_angle_beta                 105.610(6)
_cell_angle_gamma                90
_cell_volume                     3021.47
loop_
_atom_site_label
_atom_site_type_symbol
_atom_site_fract_x
_atom_site_fract_y
_atom_site_fract_z
In1 In 0.774590(17) 0.23141(2) 0.519857(15)
S1 S 0.72768(7) 0.41244(9) 0.57680(6)
S2 S 0.67568(8) 0.15081(10) 0.40274(6)
S3 S 0.91847(7) 0.12570(9) 0.58335(7)
N1 N 0.85786(19) 0.3648(3) 0.46244(17)
N2 N 1.1937(2) 0.3903(3) 0.08698(17)
C1 C 0.6132(3) 0.3818(4) 0.5818(3)
C2 C 0.5922(4) 0.3946(6) 0.6482(3)
H1 H 0.6381 0.4170 0.6904
C3 C 0.5027(4) 0.3742(8) 0.6534(4)
H2 H 0.4894 0.3841 0.6990
C4 C 0.4349(4) 0.3404(7) 0.5933(4)
H3 H 0.3754 0.3267 0.5973
C5 C 0.4546(3) 0.3267(5) 0.5274(4)
H4 H 0.4086 0.3022 0.4859
C6 C 0.5428(3) 0.3489(4) 0.5213(3)
H5 H 0.5548 0.3414 0.4752
C7 C 0.7043(3) 0.2342(4) 0.3311(2)
C8 C 0.6438(4) 0.3213(5) 0.2936(3)
H6 H 0.5900 0.3384 0.3074
C9 C 0.6644(5) 0.3834(6) 0.2347(4)
H7 H 0.6231 0.4399 0.2082
C10 C 0.7451(7) 0.3611(8) 0.2162(4)
H8 H 0.7596 0.4048 0.1785
C11 C 0.8043(6) 0.2753(6) 0.2529(4)
H9 H 0.8584 0.2593 0.2395
C12 C 0.7839(4) 0.2112(4) 0.3108(3)
H10 H 0.8245 0.1526 0.3356
C13 C 0.8768(2) -0.0237(3) 0.5740(2)
C14 C 0.8654(3) -0.0832(4) 0.6350(3)
H11 H 0.8827 -0.0464 0.6814
C15 C 0.8286(4) -0.1978(5) 0.6287(5)
H12 H 0.8210 -0.2371 0.6706
C16 C 0.8040(4) -0.2512(5) 0.5621(6)
H13 H 0.7776 -0.3270 0.5574
C17 C 0.8176(4) -0.1949(5) 0.5013(4)
H14 H 0.8018 -0.2335 0.4554
C18 C 0.8546(3) -0.0815(4) 0.5067(3)
H15 H 0.8644 -0.0443 0.4650
C19 C 0.8148(2) 0.4587(3) 0.4254(2)
H16 H 0.7556 0.4764 0.4289
C20 C 0.8534(2) 0.5316(3) 0.3819(2)
H17 H 0.8199 0.5956 0.3563
C21 C 0.9415(2) 0.5090(3) 0.3766(2)
C22 C 0.9864(3) 0.4121(4) 0.4154(2)
H18 H 1.0461 0.3936 0.4135
C23 C 0.9434(2) 0.3421(3) 0.4572(2)
H19 H 0.9751 0.2767 0.4827
C24 C 0.9875(3) 0.5868(3) 0.3310(2)
H20 H 0.9448 0.6491 0.3075
H21 H 1.0409 0.6250 0.3641
C25 C 1.0182(3) 0.5205(3) 0.2720(2)
H22 H 0.9643 0.4883 0.2362
H23 H 1.0568 0.4538 0.2947
C26 C 1.0721(3) 0.5985(3) 0.2310(2)
H24 H 1.0309 0.6582 0.2022
H25 H 1.1208 0.6399 0.2672
C27 C 1.1142(2) 0.5276(3) 0.1800(2)
C28 C 1.0896(2) 0.5423(3) 0.1039(2)
H26 H 1.0449 0.5985 0.0820
C29 C 1.1306(3) 0.4742(3) 0.0598(2)
H27 H 1.1135 0.4876 0.0087
C30 C 1.2178(3) 0.3759(3) 0.1608(2)
H28 H 1.2618 0.3182 0.1813
C31 C 1.1810(3) 0.4417(3) 0.2082(2)
H29 H 1.2009 0.4285 0.2593
In1C In 1.274590(17) 0.26859(2) 0.019857(15)
N2C N 0.6937(2) 0.1097(3) 0.58698(17)
loop_
_geom_bond_atom_site_label_1
_geom_bond_atom_site_label_2
_geom_bond_site_symmetry_1
_geom_bond_site_symmetry_2
In1 S1 1_555 1_555
S1 C1 1_555 1_555
S2 In1 1_555 1_555
S3 In1 1_555 1_555
N1 In1 1_555 1_555
N2 C29 1_555 1_555
C1 C2 1_555 1_555
C2 H1 1_555 1_555
C3 C2 1_555 1_555
H2 C3 1_555 1_555
C4 C3 1_555 1_555
H3 C4 1_555 1_555
C5 C4 1_555 1_555
H4 C5 1_555 1_555
C6 C1 1_555 1_555
H5 C6 1_555 1_555
C7 S2 1_555 1_555
C8 C7 1_555 1_555
H6 C8 1_555 1_555
C9 C8 1_555 1_555
H7 C9 1_555 1_555
C10 C9 1_555 1_555
H8 C10 1_555 1_555
C11 C10 1_555 1_555
H9 C11 1_555 1_555
C12 C7 1_555 1_555
H10 C12 1_555 1_555
C13 S3 1_555 1_555
C14 C13 1_555 1_555
H11 C14 1_555 1_555
C15 C14 1_555 1_555
H12 C15 1_555 1_555
C16 C15 1_555 1_555
H13 C16 1_555 1_555
C17 C16 1_555 1_555
H14 C17 1_555 1_555
C18 C13 1_555 1_555
H15 C18 1_555 1_555
C19 N1 1_555 1_555
H16 C19 1_555 1_555
C20 C19 1_555 1_555
H17 C20 1_555 1_555
C21 C20 1_555 1_555
C22 C21 1_555 1_555
H18 C22 1_555 1_555
C23 N1 1_555 1_555
H19 C23 1_555 1_555
C24 C21 1_555 1_555
H20 C24 1_555 1_555
H21 C24 1_555 1_555
C25 C24 1_555 1_555
H22 C25 1_555 1_555
H23 C25 1_555 1_555
C26 C25 1_555 1_555
H24 C26 1_555 1_555
H25 C26 1_555 1_555
C27 C26 1_555 1_555
C28 C27 1_555 1_555
H26 C28 1_555 1_555
C29 C28 1_555 1_555
H27 C29 1_555 1_555
C30 N2 1_555 1_555
H28 C30 1_555 1_555
C31 C27 1_555 1_555
H29 C31 1_555 1_555
In1C N2 1_555 1_555
N2C In1 1_555 1_555
C5 C6 1_555 1_555
C11 C12 1_555 1_555
C17 C18 1_555 1_555
C22 C23 1_555 1_555
C30 C31 1_555 1_555

#END
