
#######################################################################
#
#                 Cambridge Crystallographic Data Centre
#                                CCDC 
#
#######################################################################
#
# If this CIF has been generated from an entry in the Cambridge 
# Structural Database, then it will include bibliographic, chemical, 
# crystal, experimental, refinement or atomic coordinate data resulting 
# from the CCDC's data processing and validation procedures.
#
#######################################################################

data_IPIMUQ
_symmetry_cell_setting           triclinic
_symmetry_space_group_name_H-M   'P -1'
_symmetry_Int_Tables_number      2
_space_group_name_Hall           '-P 1'
loop_
_symmetry_equiv_pos_site_id
_symmetry_equiv_pos_as_xyz
1 x,y,z
2 -x,-y,-z
_cell_length_a                   11.213(5)
_cell_length_b                   11.543(5)
_cell_length_c                   11.842(6)
_cell_angle_alpha                78.90(2)
_cell_angle_beta                 70.676(19)
_cell_angle_gamma                65.918(16)
_cell_volume                     1317.55
loop_
_atom_site_label
_atom_site_type_symbol
_atom_site_fract_x
_atom_site_fract_y
_atom_site_fract_z
In1 In 0.82629(2) 0.32751(2) 0.220245(19)
S1 S 0.85429(12) 0.10382(9) 0.22923(10)
S2 S 1.02297(10) 0.39019(10) 0.16226(9)
S3 S 0.58753(8) 0.47568(8) 0.27488(7)
N1 N 0.8249(3) 0.3054(3) 0.4288(2)
N2 N 0.8325(3) 0.3502(2) 1.0123(2)
C1 C 0.7300(4) 0.1274(3) 0.1564(3)
C2 C 0.7698(4) 0.0802(3) 0.0452(3)
H1 H 0.8613 0.0355 0.0090
C3 C 0.6718(6) 0.1001(5) -0.0123(5)
H2 H 0.6983 0.0693 -0.0873
C4 C 0.5377(7) 0.1645(5) 0.0412(6)
H3 H 0.4729 0.1767 0.0028
C5 C 0.4977(5) 0.2111(5) 0.1510(6)
H4 H 0.4060 0.2563 0.1863
C6 C 0.5924(4) 0.1917(4) 0.2097(4)
H5 H 0.5642 0.2216 0.2853
C7 C 1.1096(3) 0.2899(3) 0.2673(3)
C8 C 1.1160(4) 0.3415(4) 0.3608(3)
H6 H 1.0748 0.4288 0.3685
C9 C 1.1837(4) 0.2635(4) 0.4424(4)
H7 H 1.1885 0.2987 0.5043
C10 C 1.2438(4) 0.1344(5) 0.4325(5)
H8 H 1.2877 0.0819 0.4884
C11 C 1.2387(4) 0.0833(4) 0.3389(5)
H9 H 1.2802 -0.0040 0.3310
C12 C 1.1722(4) 0.1611(4) 0.2572(4)
H10 H 1.1696 0.1257 0.1942
C13 C 0.5979(3) 0.6235(3) 0.2827(3)
C14 C 0.5255(4) 0.6879(3) 0.3863(3)
H11 H 0.4743 0.6521 0.4506
C15 C 0.5278(5) 0.8039(4) 0.3959(5)
H12 H 0.4790 0.8457 0.4664
C16 C 0.6026(6) 0.8574(5) 0.3011(6)
H13 H 0.6041 0.9360 0.3067
C17 C 0.6747(5) 0.7951(5) 0.1985(5)
H14 H 0.7259 0.8316 0.1347
C18 C 0.6731(4) 0.6790(4) 0.1874(3)
H15 H 0.7221 0.6382 0.1165
C19 C 0.7744(3) 0.4158(3) 0.4793(3)
H16 H 0.7383 0.4900 0.4345
C20 C 0.7727(3) 0.4265(3) 0.5935(3)
H17 H 0.7337 0.5056 0.6254
C21 C 0.8300(3) 0.3175(3) 0.6602(3)
C22 C 0.8835(4) 0.2027(3) 0.6088(3)
H18 H 0.9238 0.1273 0.6503
C23 C 0.8764(3) 0.2012(3) 0.4947(3)
H19 H 0.9096 0.1229 0.4625
C24 C 0.8331(3) 0.3273(3) 0.7817(3)
C25 C 0.7194(3) 0.4076(3) 0.8602(3)
H20 H 0.6415 0.4566 0.8362
C26 C 0.7229(3) 0.4141(3) 0.9734(3)
H21 H 0.6447 0.4659 1.0257
C27 C 0.9436(3) 0.2764(3) 0.9362(3)
H22 H 1.0217 0.2329 0.9615
C28 C 0.9485(3) 0.2612(3) 0.8217(3)
H23 H 1.0278 0.2077 0.7719
In1_2 In 0.82629(2) 0.32751(2) 1.220245(19)
N2_2 N 0.8325(3) 0.3502(2) 0.0123(2)
loop_
_geom_bond_atom_site_label_1
_geom_bond_atom_site_label_2
_geom_bond_site_symmetry_1
_geom_bond_site_symmetry_2
In1 S1 1_555 1_555
S1 C1 1_555 1_555
S2 In1 1_555 1_555
S3 In1 1_555 1_555
N1 In1 1_555 1_555
N2 C26 1_555 1_555
C1 C2 1_555 1_555
C2 H1 1_555 1_555
C3 C2 1_555 1_555
H2 C3 1_555 1_555
C4 C3 1_555 1_555
H3 C4 1_555 1_555
C5 C4 1_555 1_555
H4 C5 1_555 1_555
C6 C1 1_555 1_555
H5 C6 1_555 1_555
C7 S2 1_555 1_555
C8 C7 1_555 1_555
H6 C8 1_555 1_555
C9 C8 1_555 1_555
H7 C9 1_555 1_555
C10 C9 1_555 1_555
H8 C10 1_555 1_555
C11 C10 1_555 1_555
H9 C11 1_555 1_555
C12 C7 1_555 1_555
H10 C12 1_555 1_555
C13 S3 1_555 1_555
C14 C13 1_555 1_555
H11 C14 1_555 1_555
C15 C14 1_555 1_555
H12 C15 1_555 1_555
C16 C15 1_555 1_555
H13 C16 1_555 1_555
C17 C16 1_555 1_555
H14 C17 1_555 1_555
C18 C13 1_555 1_555
H15 C18 1_555 1_555
C19 N1 1_555 1_555
H16 C19 1_555 1_555
C20 C19 1_555 1_555
H17 C20 1_555 1_555
C21 C20 1_555 1_555
C22 C21 1_555 1_555
H18 C22 1_555 1_555
C23 N1 1_555 1_555
H19 C23 1_555 1_555
C24 C21 1_555 1_555
C25 C24 1_555 1_555
H20 C25 1_555 1_555
C26 C25 1_555 1_555
H21 C26 1_555 1_555
C27 N2 1_555 1_555
H22 C27 1_555 1_555
C28 C24 1_555 1_555
H23 C28 1_555 1_555
In1_2 N2 1_555 1_555
N2_2 In1 1_555 1_555
C5 C6 1_555 1_555
C11 C12 1_555 1_555
C17 C18 1_555 1_555
C22 C23 1_555 1_555
C27 C28 1_555 1_555

#END
