
#######################################################################
#
#                 Cambridge Crystallographic Data Centre
#                                CCDC 
#
#######################################################################
#
# If this CIF has been generated from an entry in the Cambridge 
# Structural Database, then it will include bibliographic, chemical, 
# crystal, experimental, refinement or atomic coordinate data resulting 
# from the CCDC's data processing and validation procedures.
#
#######################################################################

data_IPINAX
_symmetry_cell_setting           orthorhombic
_symmetry_space_group_name_H-M   'P b c a'
_symmetry_Int_Tables_number      61
_space_group_name_Hall           '-P 2ac 2ab'
loop_
_symmetry_equiv_pos_site_id
_symmetry_equiv_pos_as_xyz
1 x,y,z
2 1/2-x,-y,1/2+z
3 -x,1/2+y,1/2-z
4 1/2+x,1/2-y,-z
5 -x,-y,-z
6 1/2+x,y,1/2-z
7 x,1/2-y,1/2+z
8 1/2-x,1/2+y,z
_cell_length_a                   10.6246(7)
_cell_length_b                   17.8557(11)
_cell_length_c                   20.3022(13)
_cell_angle_alpha                90
_cell_angle_beta                 90
_cell_angle_gamma                90
_cell_volume                     3851.52
loop_
_atom_site_label
_atom_site_type_symbol
_atom_site_fract_x
_atom_site_fract_y
_atom_site_fract_z
Cu1 Cu 0.60004(3) 0.152598(18) 0.315023(16)
N1 N 0.6956(2) 0.27078(12) 0.35546(11)
C1 C 0.7695(3) 0.3232(2) 0.11873(16)
H1 H 0.7502 0.2764 0.1013
C2 C 0.7448(4) 0.3855(2) 0.0813(2)
H2 H 0.7091 0.3814 0.0396
C3 C 0.7746(5) 0.4539(3) 0.1074(2)
H3 H 0.7597 0.4973 0.0833
C4 C 0.8268(4) 0.4587(2) 0.1694(2)
H4 H 0.8476 0.5050 0.1873
C5 C 0.8476(3) 0.39411(18) 0.20438(17)
C6 C 0.9000(3) 0.39516(19) 0.27294(17)
H5 H 0.9155 0.4465 0.2862
H6 H 0.9795 0.3686 0.2737
C7 C 0.7556(3) 0.38720(16) 0.37340(15)
H7 H 0.7651 0.4347 0.3915
C8 C 0.6806(3) 0.33017(15) 0.39637(14)
C9 C 0.5967(3) 0.32798(16) 0.45386(13)
C10 C 0.5645(4) 0.39354(19) 0.48582(17)
H8 H 0.5969 0.4390 0.4713
C11 C 0.4838(4) 0.3916(2) 0.53945(18)
H9 H 0.4616 0.4359 0.5605
C12 C 0.4371(4) 0.3255(2) 0.56152(16)
H10 H 0.3832 0.3245 0.5976
C13 C 0.4695(4) 0.2606(2) 0.53048(17)
H11 H 0.4367 0.2153 0.5453
C14 C 0.5506(3) 0.26113(18) 0.47714(15)
H12 H 0.5739 0.2164 0.4571
Cl1 Cl 0.56036(7) 0.21633(5) 0.21670(4)
Cl2 Cl 0.62463(9) 0.06676(4) 0.39377(4)
Cu2 Cu 0.32903(3) 0.229651(19) 0.268814(17)
N2 N 0.8122(2) 0.35998(13) 0.31956(13)
N3 N 0.7760(2) 0.28951(12) 0.30962(12)
N4 N 0.8196(2) 0.32640(15) 0.17874(13)
N5 N 0.4192(2) 0.17274(16) 0.33908(12)
N6 N 0.3720(3) 0.14897(15) 0.38382(17)
N7 N 0.3254(4) 0.1254(2) 0.4326(2)
N8 N 0.7717(2) 0.13783(13) 0.27851(13)
N9 N 0.8331(2) 0.08116(15) 0.28287(13)
N10 N 0.8911(3) 0.02815(19) 0.2866(2)
Cl1E Cl 0.06036(7) 0.21633(5) 0.28330(4)
Cu2E Cu 0.82903(3) 0.229651(19) 0.231186(17)
N3E N 0.2760(2) 0.28951(12) 0.19038(12)
N4E N 0.3196(2) 0.32640(15) 0.32126(13)
N8E N 0.2717(2) 0.13783(13) 0.22149(13)
loop_
_geom_bond_atom_site_label_1
_geom_bond_atom_site_label_2
_geom_bond_site_symmetry_1
_geom_bond_site_symmetry_2
Cu1 N1 1_555 1_555
N1 C8 1_555 1_555
C1 H1 1_555 1_555
C2 C1 1_555 1_555
H2 C2 1_555 1_555
C3 C2 1_555 1_555
H3 C3 1_555 1_555
C4 C3 1_555 1_555
H4 C4 1_555 1_555
C5 C4 1_555 1_555
C6 C5 1_555 1_555
H5 C6 1_555 1_555
H6 C6 1_555 1_555
C7 H7 1_555 1_555
C8 C7 1_555 1_555
C9 C8 1_555 1_555
C10 C9 1_555 1_555
H8 C10 1_555 1_555
C11 C10 1_555 1_555
H9 C11 1_555 1_555
C12 C11 1_555 1_555
H10 C12 1_555 1_555
C13 C12 1_555 1_555
H11 C13 1_555 1_555
C14 C9 1_555 1_555
H12 C14 1_555 1_555
Cl1 Cu1 1_555 1_555
Cl2 Cu1 1_555 1_555
Cu2 Cl1 1_555 1_555
N2 C6 1_555 1_555
N3 N1 1_555 1_555
N4 C1 1_555 1_555
N5 Cu1 1_555 1_555
N6 N5 1_555 1_555
N7 N6 1_555 1_555
N8 Cu1 1_555 1_555
N9 N8 1_555 1_555
N10 N9 1_555 1_555
Cl1E Cu2 1_555 1_555
Cu2E Cl1 1_555 1_555
N3E Cu2 1_555 1_555
N4E Cu2 1_555 1_555
N8E Cu2 1_555 1_555
C5 N4 1_555 1_555
C7 N2 1_555 1_555
C13 C14 1_555 1_555
Cu2 N5 1_555 1_555
N2 N3 1_555 1_555
N3 Cu2E 1_555 1_555
N4 Cu2E 1_555 1_555
N8 Cu2E 1_555 1_555

#END
