
#######################################################################
#
#                 Cambridge Crystallographic Data Centre
#                                CCDC 
#
#######################################################################
#
# If this CIF has been generated from an entry in the Cambridge 
# Structural Database, then it will include bibliographic, chemical, 
# crystal, experimental, refinement or atomic coordinate data resulting 
# from the CCDC's data processing and validation procedures.
#
#######################################################################

data_IPIWIO02
_symmetry_cell_setting           orthorhombic
_symmetry_space_group_name_H-M   'F d d d'
_symmetry_Int_Tables_number      70
_space_group_name_Hall           '-F 2uv 2vw'
loop_
_symmetry_equiv_pos_site_id
_symmetry_equiv_pos_as_xyz
1 x,y,z
2 3/4-x,3/4-y,z
3 3/4-x,y,3/4-z
4 x,3/4-y,3/4-z
5 x,1/2+y,1/2+z
6 3/4-x,1/4-y,1/2+z
7 3/4-x,1/2+y,1/4-z
8 x,1/4-y,1/4-z
9 1/2+x,y,1/2+z
10 1/4-x,3/4-y,1/2+z
11 1/4-x,y,1/4-z
12 1/2+x,3/4-y,1/4-z
13 1/2+x,1/2+y,z
14 1/4-x,1/4-y,z
15 1/4-x,1/2+y,3/4-z
16 1/2+x,1/4-y,3/4-z
17 -x,-y,-z
18 1/4+x,1/4+y,-z
19 1/4+x,-y,1/4+z
20 -x,1/4+y,1/4+z
21 -x,1/2-y,1/2-z
22 1/4+x,3/4+y,1/2-z
23 1/4+x,1/2-y,3/4+z
24 -x,3/4+y,3/4+z
25 1/2-x,-y,1/2-z
26 3/4+x,1/4+y,1/2-z
27 3/4+x,-y,3/4+z
28 1/2-x,1/4+y,3/4+z
29 1/2-x,1/2-y,-z
30 3/4+x,3/4+y,-z
31 3/4+x,1/2-y,1/4+z
32 1/2-x,3/4+y,1/4+z
_cell_length_a                   11.7658(5)
_cell_length_b                   25.2769(16)
_cell_length_c                   51.469(3)
_cell_angle_alpha                90
_cell_angle_beta                 90
_cell_angle_gamma                90
_cell_volume                     15307
loop_
_atom_site_label
_atom_site_type_symbol
_atom_site_fract_x
_atom_site_fract_y
_atom_site_fract_z
Cu1 Cu 0.56066(3) 0.55105(2) 0.022358(9)
Cu2 Cu 0.3750 0.3750 0.070630(11)
O1 O 0.5618(2) 0.51238(13) 0.06109(5)
O2 O 0.4475(2) 0.44412(12) 0.05245(5)
O3 O 0.2258(2) 0.40595(13) 0.06953(5)
O4 O 0.1190(2) 0.47378(15) 0.08167(6)
N1 N 0.3981(2) 0.43006(14) 0.10410(5)
N2 N 0.7169(2) 0.53705(12) 0.01429(6)
N3 N 0.4101(2) 0.57874(12) 0.02088(6)
C1 C 0.4980(3) 0.46194(18) 0.09669(7)
H1 H 0.5673 0.4430 0.1017
H2 H 0.4964 0.4955 0.1062
C2 C 0.5016(3) 0.47325(19) 0.06760(7)
C3 C 0.2929(3) 0.46276(17) 0.10373(7)
H3 H 0.3141 0.4997 0.1006
H4 H 0.2572 0.4610 0.1209
C4 C 0.2063(3) 0.44635(19) 0.08349(7)
C5 C 0.4157(3) 0.39832(16) 0.12789(6)
H5 H 0.4932 0.3834 0.1267
C6 C 0.4117(3) 0.43100(17) 0.15336(6)
H6 H 0.4745 0.4565 0.1535
H7 H 0.3403 0.4509 0.1541
C7 C 0.4208(4) 0.39527(17) 0.17706(7)
H8 H 0.4950 0.3777 0.1771
H9 H 0.4152 0.4167 0.1929
C8 C 0.7922(3) 0.52679(17) 0.03331(7)
H10 H 0.7678 0.5299 0.0510
C9 C 0.9028(3) 0.51258(15) 0.02830(6)
H11 H 0.9528 0.5059 0.0422
C10 C 0.9411(2) 0.50799(12) 0.00307(6)
C11 C 0.8629(3) 0.51953(14) -0.01635(6)
H12 H 0.8845 0.5176 -0.0339
C12 C 0.7536(3) 0.53377(15) -0.00978(7)
H13 H 0.7024 0.5416 -0.0233
C13 C 0.3490(3) 0.58284(16) 0.04278(7)
H14 H 0.3835 0.5729 0.0585
C14 C 0.2384(3) 0.60073(15) 0.04350(7)
H15 H 0.1997 0.6030 0.0594
C15 C 0.1845(2) 0.61539(12) 0.02061(6)
C16 C 0.2480(3) 0.61185(14) -0.00209(7)
H16 H 0.2158 0.6221 -0.0180
C17 C 0.3602(2) 0.59303(11) -0.00126(6)
H17 H 0.4014 0.5904 -0.0168
Cu1A Cu 0.18934(3) 0.19895(2) 0.022358(9)
Cu1P Cu 1.43934(3) 0.44895(2) -0.022358(9)
Cu1M Cu -0.31066(3) 0.69895(2) 0.022358(9)
O1A O 0.1882(2) 0.23762(13) 0.06109(5)
O2A O 0.3025(2) 0.30588(12) 0.05245(5)
O3A O 0.5242(2) 0.34405(13) 0.06953(5)
O4A O 0.6310(2) 0.27622(15) 0.08167(6)
N1A N 0.3519(2) 0.31994(14) 0.10410(5)
N2P N 1.2831(2) 0.46295(12) -0.01429(6)
N2A N 0.0331(2) 0.21295(12) 0.01429(6)
N3M N -0.1601(2) 0.67126(12) 0.02088(6)
N3A N 0.3399(2) 0.17126(12) 0.02088(6)
C1A C 0.2520(3) 0.28806(18) 0.09669(7)
H1A H 0.1827 0.3070 0.1017
H2A H 0.2536 0.2545 0.1062
C2A C 0.2484(3) 0.27675(19) 0.06760(7)
C3A C 0.4571(3) 0.28724(17) 0.10373(7)
H3A H 0.4359 0.2503 0.1006
H4A H 0.4928 0.2890 0.1209
C4A C 0.5437(3) 0.30365(19) 0.08349(7)
C5A C 0.3343(3) 0.35168(16) 0.12789(6)
H5A H 0.2568 0.3666 0.1267
C6A C 0.3383(3) 0.31900(17) 0.15336(6)
H6A H 0.2755 0.2935 0.1535
H7A H 0.4097 0.2991 0.1541
C7A C 0.3292(4) 0.35473(17) 0.17706(7)
H8A H 0.2550 0.3723 0.1771
H9A H 0.3348 0.3333 0.1929
C8P C 1.2078(3) 0.47321(17) -0.03331(7)
H10P H 1.2322 0.4701 -0.0510
C9P C 1.0972(3) 0.48742(15) -0.02830(6)
H11P H 1.0472 0.4941 -0.0422
C10P C 1.0589(2) 0.49201(12) -0.00307(6)
C11P C 1.1371(3) 0.48047(14) 0.01635(6)
H12P H 1.1155 0.4824 0.0339
C12P C 1.2464(3) 0.46623(15) 0.00978(7)
H13P H 1.2976 0.4584 0.0233
C13M C -0.0990(3) 0.66716(16) 0.04278(7)
H14M H -0.1335 0.6771 0.0585
C14M C 0.0116(3) 0.64927(15) 0.04350(7)
H15M H 0.0503 0.6470 0.0594
C15M C 0.0655(2) 0.63461(12) 0.02061(6)
C16M C 0.0020(3) 0.63815(14) -0.00209(7)
H16M H 0.0342 0.6279 -0.0180
C17M C -0.1102(2) 0.65697(11) -0.00126(6)
H17M H -0.1514 0.6596 -0.0168
O5 O 0.6794(2) 0.17934(11) 0.09988(6)
H18 H 0.6437 0.1981 0.0886
H19 H 0.6686 0.1938 0.1148
O6 O 1.0823(7) 0.1749(4) 0.0951(2)
H20 H 1.1076 0.1861 0.0796
H21 H 1.1140 0.1444 0.0968
O7 O 0.8988(9) 0.1569(5) 0.1053(2)
H23 H 0.8346 0.1706 0.1016
H24 H 0.8970 0.1436 0.1207
H22? H 1.0100 0.1664 0.0924
H25? H 0.9516 0.1796 0.1025
H26? H 0.6480 0.1486 0.1003
loop_
_geom_bond_atom_site_label_1
_geom_bond_atom_site_label_2
_geom_bond_site_symmetry_1
_geom_bond_site_symmetry_2
Cu1 O1 1_555 1_555
Cu2 O2 1_555 1_555
O1 C2 1_555 1_555
O2 C2 1_555 1_555
O3 Cu2 1_555 1_555
O4 C4 1_555 1_555
N1 Cu2 1_555 1_555
N2 Cu1 1_555 1_555
N3 Cu1 1_555 1_555
C1 N1 1_555 1_555
H1 C1 1_555 1_555
H2 C1 1_555 1_555
C2 C1 1_555 1_555
C3 N1 1_555 1_555
H3 C3 1_555 1_555
H4 C3 1_555 1_555
C4 O3 1_555 1_555
C5 N1 1_555 1_555
H5 C5 1_555 1_555
C6 C5 1_555 1_555
H6 C6 1_555 1_555
H7 C6 1_555 1_555
C7 C6 1_555 1_555
H8 C7 1_555 1_555
H9 C7 1_555 1_555
C8 N2 1_555 1_555
H10 C8 1_555 1_555
C9 C8 1_555 1_555
H11 C9 1_555 1_555
C10 C9 1_555 1_555
C11 C10 1_555 1_555
H12 C11 1_555 1_555
C12 N2 1_555 1_555
H13 C12 1_555 1_555
C13 N3 1_555 1_555
H14 C13 1_555 1_555
C14 C13 1_555 1_555
H15 C14 1_555 1_555
C15 C14 1_555 1_555
C16 C15 1_555 1_555
H16 C16 1_555 1_555
C17 N3 1_555 1_555
H17 C17 1_555 1_555
O5 H18 1_555 1_555
H19 O5 1_555 1_555
O6 H20 1_555 1_555
H21 O6 1_555 1_555
O7 H23 1_555 1_555
H24 O7 1_555 1_555
Cu1A O1A 1_555 1_555
Cu1P N2P 1_555 1_555
Cu1M N3M 1_555 1_555
O1A C2A 1_555 1_555
O2A Cu2 1_555 1_555
O3A Cu2 1_555 1_555
O4A C4A 1_555 1_555
N1A Cu2 1_555 1_555
N2P C8P 1_555 1_555
N2A Cu1A 1_555 1_555
N3M C13M 1_555 1_555
N3A Cu1A 1_555 1_555
C1A N1A 1_555 1_555
H1A C1A 1_555 1_555
H2A C1A 1_555 1_555
C2A O2A 1_555 1_555
C3A N1A 1_555 1_555
H3A C3A 1_555 1_555
H4A C3A 1_555 1_555
C4A O3A 1_555 1_555
C5A C5 1_555 1_555
H5A C5A 1_555 1_555
C6A C5A 1_555 1_555
H6A C6A 1_555 1_555
H7A C6A 1_555 1_555
C7A C7 1_555 1_555
H8A C7A 1_555 1_555
H9A C7A 1_555 1_555
C8P H10P 1_555 1_555
C9P C8P 1_555 1_555
H11P C9P 1_555 1_555
C10P C10 1_555 1_555
C11P C10P 1_555 1_555
H12P C11P 1_555 1_555
C12P N2P 1_555 1_555
H13P C12P 1_555 1_555
C13M H14M 1_555 1_555
C14M C13M 1_555 1_555
H15M C14M 1_555 1_555
C15M C15 1_555 1_555
C16M C15M 1_555 1_555
H16M C16M 1_555 1_555
C17M N3M 1_555 1_555
H17M C17M 1_555 1_555
C3 C4 1_555 1_555
C11 C12 1_555 1_555
C16 C17 1_555 1_555
N1A C5A 1_555 1_555
C1A C2A 1_555 1_555
C3A C4A 1_555 1_555
C6A C7A 1_555 1_555
C9P C10P 1_555 1_555
C11P C12P 1_555 1_555
C14M C15M 1_555 1_555
C16M C17M 1_555 1_555

#END
