
#######################################################################
#
#                 Cambridge Crystallographic Data Centre
#                                CCDC 
#
#######################################################################
#
# If this CIF has been generated from an entry in the Cambridge 
# Structural Database, then it will include bibliographic, chemical, 
# crystal, experimental, refinement or atomic coordinate data resulting 
# from the CCDC's data processing and validation procedures.
#
#######################################################################

data_IPODIB
_symmetry_cell_setting           monoclinic
_symmetry_space_group_name_H-M   'P 21/c'
_symmetry_Int_Tables_number      14
_space_group_name_Hall           '-P 2ybc'
loop_
_symmetry_equiv_pos_site_id
_symmetry_equiv_pos_as_xyz
1 x,y,z
2 -x,1/2+y,1/2-z
3 -x,-y,-z
4 x,1/2-y,1/2+z
_cell_length_a                   15.5278(4)
_cell_length_b                   21.0975(6)
_cell_length_c                   7.7665(3)
_cell_angle_alpha                90
_cell_angle_beta                 92.582(2)
_cell_angle_gamma                90
_cell_volume                     2541.7
loop_
_atom_site_label
_atom_site_type_symbol
_atom_site_fract_x
_atom_site_fract_y
_atom_site_fract_z
Yb1 Yb 0.257449(8) 0.394624(6) 0.308440(16)
Na1 Na 0.49114(8) 0.41530(6) 0.02457(16)
O1 O 0.37071(15) 0.38698(11) 0.4920(3)
O2 O 0.44748(16) 0.40646(13) 0.7349(3)
O3 O 0.24038(14) 0.45446(11) 0.5736(3)
O4 O 0.13085(14) 0.46247(11) 0.3147(3)
O5 O 0.16703(16) 0.38064(13) 0.0798(3)
O6 O 0.0458(2) 0.39964(15) -0.0751(4)
O7 O 0.30368(15) 0.28872(11) 0.2537(3)
O8 O 0.36770(14) 0.36627(10) 0.1221(3)
O9 O 0.50263(14) 0.29833(10) 0.0496(3)
O10 O 0.62817(14) 0.36656(10) -0.0509(3)
O11 O 0.70593(16) 0.50995(11) -0.2205(3)
O12 O 0.59381(15) 0.48948(11) -0.0582(3)
O13 O 0.16261(16) 0.33394(12) 0.4578(3)
O14 O 0.52279(17) 0.44788(12) 0.3291(4)
C1 C 0.3822(2) 0.41220(15) 0.6419(4)
C2 C 0.3107(2) 0.45459(16) 0.7029(4)
H1 H 0.2903 0.4388 0.8139
H2 H 0.3326 0.4983 0.7207
C3 C 0.1812(2) 0.50306(15) 0.5819(4)
C4 C 0.1762(2) 0.54427(16) 0.7194(5)
H3 H 0.2135 0.5392 0.8187
C5 C 0.1158(2) 0.59351(16) 0.7118(5)
H4 H 0.1117 0.6218 0.8062
C6 C 0.0618(2) 0.60079(16) 0.5661(5)
H5 H 0.0220 0.6350 0.5599
C7 C 0.0653(2) 0.55873(16) 0.4289(5)
H6 H 0.0280 0.5639 0.3297
C8 C 0.1241(2) 0.50906(15) 0.4386(4)
C9 C 0.0810(2) 0.46956(17) 0.1558(4)
H7 H 0.0977 0.5090 0.0967
H8 H 0.0189 0.4721 0.1787
C10 C 0.0981(2) 0.41237(19) 0.0430(5)
C11 C 0.3647(2) 0.30886(14) 0.1650(4)
C12 C 0.4333(2) 0.26274(15) 0.1146(4)
H9 H 0.4537 0.2376 0.2161
H10 H 0.4097 0.2333 0.0252
C13 C 0.5726(2) 0.26467(15) -0.0042(4)
C14 C 0.5782(2) 0.19912(15) -0.0093(4)
H11 H 0.5323 0.1738 0.0290
C15 C 0.6518(2) 0.17069(16) -0.0710(5)
H12 H 0.6557 0.1258 -0.0759
C16 C 0.7188(2) 0.20728(16) -0.1248(5)
H13 H 0.7688 0.1874 -0.1659
C17 C 0.7138(2) 0.27348(16) -0.1195(5)
H14 H 0.7603 0.2986 -0.1565
C18 C 0.6408(2) 0.30205(15) -0.0601(4)
C19 C 0.6867(2) 0.40482(15) -0.1401(4)
H15 H 0.6892 0.3901 -0.2608
H16 H 0.7451 0.4011 -0.0847
C20 C 0.6575(2) 0.47388(15) -0.1372(4)
H17 H 0.1758 0.3291 0.5749
H18 H 0.1348 0.2967 0.4353
H19 H 0.5058 0.4886 0.3229
H20 H 0.4812 0.4271 0.4160
Yb1B Yb 0.742551(8) 0.605376(6) -0.308440(16)
Na1_2 Na 0.49114(8) 0.41530(6) 1.02457(16)
Na1B Na 0.50886(8) 0.58470(6) -0.02457(16)
O2_2 O 0.44748(16) 0.40646(13) -0.2651(3)
O11B O 0.29407(16) 0.49005(11) 0.2205(3)
O12B O 0.40619(15) 0.51052(11) 0.0582(3)
O15 O 0.2196(3) 0.32340(17) 0.7764(4)
H21 H 0.2530 0.2856 0.7992
H22 H 0.2048 0.3399 0.8852
O16 O 0.0340(3) 0.2395(2) 0.3712(13)
H23 H 0.0546 0.1929 0.3665
H24 H -0.0159 0.2489 0.2685
O17 O -0.0788(5) 0.2416(4) 0.6156(10)
loop_
_geom_bond_atom_site_label_1
_geom_bond_atom_site_label_2
_geom_bond_site_symmetry_1
_geom_bond_site_symmetry_2
Yb1 O1 1_555 1_555
Na1 O8 1_555 1_555
O1 C1 1_555 1_555
O2 C1 1_555 1_555
O3 Yb1 1_555 1_555
O4 Yb1 1_555 1_555
O5 Yb1 1_555 1_555
O6 C10 1_555 1_555
O7 Yb1 1_555 1_555
O8 Yb1 1_555 1_555
O9 Na1 1_555 1_555
O10 Na1 1_555 1_555
O11 C20 1_555 1_555
O12 Na1 1_555 1_555
O13 Yb1 1_555 1_555
O14 Na1 1_555 1_555
C1 C2 1_555 1_555
C2 O3 1_555 1_555
H1 C2 1_555 1_555
H2 C2 1_555 1_555
C3 O3 1_555 1_555
C4 C3 1_555 1_555
H3 C4 1_555 1_555
C5 C4 1_555 1_555
H4 C5 1_555 1_555
C6 C5 1_555 1_555
H5 C6 1_555 1_555
C7 C6 1_555 1_555
H6 C7 1_555 1_555
C8 O4 1_555 1_555
C9 O4 1_555 1_555
H7 C9 1_555 1_555
H8 C9 1_555 1_555
C10 O5 1_555 1_555
C11 O7 1_555 1_555
C12 O9 1_555 1_555
H9 C12 1_555 1_555
H10 C12 1_555 1_555
C13 O9 1_555 1_555
C14 C13 1_555 1_555
H11 C14 1_555 1_555
C15 C14 1_555 1_555
H12 C15 1_555 1_555
C16 C15 1_555 1_555
H13 C16 1_555 1_555
C17 C16 1_555 1_555
H14 C17 1_555 1_555
C18 O10 1_555 1_555
C19 O10 1_555 1_555
H15 C19 1_555 1_555
H16 C19 1_555 1_555
C20 O12 1_555 1_555
H17 O13 1_555 1_555
H18 O13 1_555 1_555
H19 O14 1_555 1_555
H20 O14 1_555 1_555
O15 H21 1_555 1_555
H22 O15 1_555 1_555
O16 H23 1_555 1_555
H24 O16 1_555 1_555
Yb1B O11 1_555 1_555
Na1_2 O2 1_555 1_555
Na1B O12 1_555 1_555
O2_2 Na1 1_555 1_555
O11B Yb1 1_555 1_555
O12B Na1 1_555 1_555
O8 C11 1_555 1_555
C3 C8 1_555 1_555
C7 C8 1_555 1_555
C9 C10 1_555 1_555
C11 C12 1_555 1_555
C13 C18 1_555 1_555
C17 C18 1_555 1_555
C19 C20 1_555 1_555
Na1B O12B 1_555 1_555

#END
