
#######################################################################
#
#                 Cambridge Crystallographic Data Centre
#                                CCDC 
#
#######################################################################
#
# If this CIF has been generated from an entry in the Cambridge 
# Structural Database, then it will include bibliographic, chemical, 
# crystal, experimental, refinement or atomic coordinate data resulting 
# from the CCDC's data processing and validation procedures.
#
#######################################################################

data_IPOFID
_symmetry_cell_setting           triclinic
_symmetry_space_group_name_H-M   'P -1'
_symmetry_Int_Tables_number      2
_space_group_name_Hall           '-P 1'
loop_
_symmetry_equiv_pos_site_id
_symmetry_equiv_pos_as_xyz
1 x,y,z
2 -x,-y,-z
_cell_length_a                   10.147(4)
_cell_length_b                   14.628(5)
_cell_length_c                   15.102(6)
_cell_angle_alpha                69.260(8)
_cell_angle_beta                 89.121(12)
_cell_angle_gamma                88.797(12)
_cell_volume                     2095.8
loop_
_atom_site_label
_atom_site_type_symbol
_atom_site_fract_x
_atom_site_fract_y
_atom_site_fract_z
Pb1 Pb -0.054449(16) 0.758155(12) 0.442024(11)
Pb2 Pb 0.121754(16) 0.643185(12) 0.671175(12)
Pb3 Pb -0.054232(16) 0.875763(11) 0.619983(11)
Pb4 Pb 0.258570(16) 0.341090(11) 0.308700(11)
C1 C 0.3326(4) 0.6261(3) 0.4025(3)
C2 C 0.4434(4) 0.6491(3) 0.4425(3)
H1 H 0.4341 0.6851 0.4822
C3 C 0.5692(4) 0.6188(3) 0.4235(3)
C4 C 0.5771(5) 0.5634(3) 0.3644(3)
H2 H 0.6594 0.5433 0.3496
C5 C 0.4667(5) 0.5383(3) 0.3279(3)
C6 C 0.3437(5) 0.5705(3) 0.3454(3)
H3 H 0.2690 0.5550 0.3189
C7 C 0.1982(5) 0.6612(3) 0.4230(3)
C8 C 0.6893(5) 0.6465(3) 0.4617(3)
C9 C 0.5318(5) 0.4998(3) 0.1908(3)
H4 H 0.6162 0.5296 0.1911
H5 H 0.4758 0.5476 0.1451
C10 C 0.5510(5) 0.4135(3) 0.1629(3)
C11 C 0.6309(5) 0.4188(4) 0.0869(4)
H6 H 0.6725 0.4767 0.0520
C12 C 0.6481(6) 0.3360(4) 0.0635(4)
H7 H 0.7021 0.3376 0.0127
C13 C 0.5848(5) 0.2512(4) 0.1158(4)
H8 H 0.5969 0.1940 0.1028
C14 C 0.5041(5) 0.2547(4) 0.1871(4)
H9 H 0.4590 0.1984 0.2218
N1 N 0.4852(5) 0.3332(3) 0.2106(3)
C15 C 0.3309(4) 0.8943(3) 0.4717(3)
C16 C 0.4485(4) 0.8748(3) 0.5209(3)
H10 H 0.4476 0.8445 0.5864
C17 C 0.5666(4) 0.8998(3) 0.4735(3)
C18 C 0.5698(4) 0.9479(3) 0.3756(3)
H11 H 0.6497 0.9673 0.3442
C19 C 0.4511(4) 0.9670(3) 0.3247(3)
C20 C 0.3313(4) 0.9397(3) 0.3729(3)
H12 H 0.2525 0.9515 0.3397
C21 C 0.2018(4) 0.8736(3) 0.5231(3)
C22 C 0.6930(4) 0.8817(3) 0.5247(3)
C23 C 0.3517(5) 1.0233(3) 0.1715(3)
H13 H 0.3670 1.0725 0.1096
H14 H 0.2771 1.0451 0.2002
C24 C 0.3187(5) 0.9289(4) 0.1598(3)
C25 C 0.4146(5) 0.8818(4) 0.1254(4)
H15 H 0.4974 0.9084 0.1069
C26 C 0.3805(5) 0.7911(4) 0.1197(4)
H16 H 0.4424 0.7562 0.0978
C27 C 0.2583(5) 0.7540(4) 0.1459(4)
H17 H 0.2358 0.6935 0.1437
C28 C 0.1721(5) 0.8081(4) 0.1748(4)
H18 H 0.0867 0.7851 0.1889
N2 N 0.2004(4) 0.8959(3) 0.1852(3)
C29 C -0.0716(4) 0.6832(3) 0.9449(3)
C30 C 0.0182(5) 0.6164(3) 1.0036(3)
H19 H 0.0864 0.5907 0.9773
C31 C 0.0061(4) 0.5886(3) 1.1004(3)
C32 C -0.0919(4) 0.6297(3) 1.1403(3)
H20 H -0.0983 0.6124 1.2057
C33 C -0.1796(5) 0.6965(3) 1.0819(3)
C34 C -0.1682(5) 0.7228(3) 0.9838(3)
H21 H -0.2274 0.7680 0.9447
C35 C -0.0592(5) 0.7114(3) 0.8395(3)
C36 C 0.1007(4) 0.5138(3) 1.1614(3)
C37 C -0.2581(5) 0.7649(3) 1.1980(3)
H22 H -0.1962 0.7178 1.2387
H23 H -0.3399 0.7610 1.2331
C38 C -0.2047(5) 0.8639(4) 1.1734(4)
C39 C -0.1923(6) 0.9329(4) 1.0853(4)
H24 H -0.2160 0.9176 1.0331
C40 C -0.1453(6) 1.0255(4) 1.0713(4)
H25 H -0.1394 1.0723 1.0107
C41 C -0.1084(6) 1.0461(4) 1.1473(4)
H26 H -0.0759 1.1071 1.1408
C42 C -0.1201(6) 0.9741(4) 1.2349(4)
H27 H -0.0980 0.9889 1.2877
N3 N -0.1615(5) 0.8839(3) 1.2486(3)
O1 O 0.1000(3) 0.6498(2) 0.3766(2)
O2 O 0.0501(3) 0.5225(2) 0.5930(2)
H28 H 0.1082(7) 0.4824(8) 0.5854(15)
H29 H -0.0204(6) 0.4949(10) 0.5856(18)
O3 O 0.1878(3) 0.7008(2) 0.4850(2)
O4 O 0.6772(3) 0.6934(2) 0.5160(2)
O5 O 0.8005(3) 0.6255(2) 0.4346(3)
O6 O 0.4735(4) 0.4727(2) 0.2811(2)
O7 O 0.0955(3) 0.9070(2) 0.4776(2)
O8 O 0.2016(3) 0.8257(2) 0.61123(19)
O9 O 0.6895(3) 0.84064(19) 0.6160(2)
O10 O 0.8014(3) 0.9105(2) 0.48051(19)
O11 O 0.4660(3) 1.0150(2) 0.2289(2)
O12 O -0.1597(3) 0.7513(2) 0.7887(2)
O13 O 0.0499(4) 0.6978(3) 0.8042(2)
O14 O 0.2066(3) 0.4950(3) 1.1295(2)
O15 O 0.0659(3) 0.4693(2) 1.2471(2)
O16 O -0.2824(3) 0.7396(2) 1.1152(2)
O17 O -0.0543(3) 0.72854(18) 0.60366(19)
Pb1_2 Pb 0.945551(16) 0.758155(12) 0.442024(11)
Pb2A Pb -0.121754(16) 0.356815(12) 1.328825(12)
Pb3_2 Pb 0.945768(16) 0.875763(11) 0.619983(11)
Pb4A Pb 0.741430(16) 0.658910(11) 0.691300(11)
Pb4A_2 Pb -0.258570(16) 0.658910(11) 0.691300(11)
Pb4_2 Pb 0.258570(16) 0.341090(11) 1.308700(11)
O4A O 0.3228(3) 0.3066(2) 0.4840(2)
O5_2 O -0.1995(3) 0.6255(2) 0.4346(3)
O9_2 O -0.3105(3) 0.84064(19) 0.6160(2)
O9A O 0.3105(3) 0.15936(19) 0.3840(2)
O10_2 O -0.1986(3) 0.9105(2) 0.48051(19)
O12A O 0.1597(3) 0.2487(2) 0.2113(2)
O15A O -0.0659(3) 0.5307(2) 0.7529(2)
O15_2 O 0.0659(3) 0.4693(2) 0.2471(2)
O17A O 0.0543(3) 0.27146(18) 0.39634(19)
loop_
_geom_bond_atom_site_label_1
_geom_bond_atom_site_label_2
_geom_bond_site_symmetry_1
_geom_bond_site_symmetry_2
Pb1 O1 1_555 1_555
Pb2 O2 1_555 1_555
Pb3 O7 1_555 1_555
Pb4 N1 1_555 1_555
C1 C2 1_555 1_555
C2 H1 1_555 1_555
C3 C2 1_555 1_555
C4 C3 1_555 1_555
H2 C4 1_555 1_555
C5 C4 1_555 1_555
C6 C1 1_555 1_555
H3 C6 1_555 1_555
C7 C1 1_555 1_555
C8 C3 1_555 1_555
C9 H4 1_555 1_555
H5 C9 1_555 1_555
C10 C9 1_555 1_555
C11 C10 1_555 1_555
H6 C11 1_555 1_555
C12 C11 1_555 1_555
H7 C12 1_555 1_555
C13 C12 1_555 1_555
H8 C13 1_555 1_555
C14 C13 1_555 1_555
H9 C14 1_555 1_555
N1 C10 1_555 1_555
C15 C16 1_555 1_555
C16 H10 1_555 1_555
C17 C16 1_555 1_555
C18 C17 1_555 1_555
H11 C18 1_555 1_555
C19 C18 1_555 1_555
C20 C15 1_555 1_555
H12 C20 1_555 1_555
C21 C15 1_555 1_555
C22 C17 1_555 1_555
C23 H13 1_555 1_555
H14 C23 1_555 1_555
C24 C23 1_555 1_555
C25 C24 1_555 1_555
H15 C25 1_555 1_555
C26 C25 1_555 1_555
H16 C26 1_555 1_555
C27 C26 1_555 1_555
H17 C27 1_555 1_555
C28 C27 1_555 1_555
H18 C28 1_555 1_555
N2 C24 1_555 1_555
C29 C30 1_555 1_555
C30 H19 1_555 1_555
C31 C30 1_555 1_555
C32 C31 1_555 1_555
H20 C32 1_555 1_555
C33 C32 1_555 1_555
C34 C29 1_555 1_555
H21 C34 1_555 1_555
C35 C29 1_555 1_555
C36 C31 1_555 1_555
C37 H22 1_555 1_555
H23 C37 1_555 1_555
C38 C37 1_555 1_555
C39 C38 1_555 1_555
H24 C39 1_555 1_555
C40 C39 1_555 1_555
H25 C40 1_555 1_555
C41 C40 1_555 1_555
H26 C41 1_555 1_555
C42 C41 1_555 1_555
H27 C42 1_555 1_555
N3 C38 1_555 1_555
O1 C7 1_555 1_555
O2 H28 1_555 1_555
H29 O2 1_555 1_555
O3 Pb1 1_555 1_555
O4 C8 1_555 1_555
O5 C8 1_555 1_555
O6 C5 1_555 1_555
O7 C21 1_555 1_555
O8 Pb2 1_555 1_555
O9 C22 1_555 1_555
O10 C22 1_555 1_555
O11 C19 1_555 1_555
O12 C35 1_555 1_555
O13 Pb2 1_555 1_555
O14 C36 1_555 1_555
O15 C36 1_555 1_555
O16 C33 1_555 1_555
O17 Pb1 1_555 1_555
Pb1_2 O5 1_555 1_555
Pb2A O15 1_555 1_555
Pb3_2 O9 1_555 1_555
Pb4A O4 1_555 1_555
Pb4A_2 O12 1_555 1_555
Pb4_2 O15 1_555 1_555
O4A Pb4 1_555 1_555
O5_2 Pb1 1_555 1_555
O9_2 Pb3 1_555 1_555
O9A Pb4 1_555 1_555
O10_2 Pb3 1_555 1_555
O12A Pb4 1_555 1_555
O15A Pb2 1_555 1_555
O15_2 Pb4 1_555 1_555
O17A Pb4 1_555 1_555
Pb2 O3 1_555 1_555
Pb2 O17 1_555 1_555
Pb3 O8 1_555 1_555
Pb3 O17 1_555 1_555
C5 C6 1_555 1_555
C7 O3 1_555 1_555
C9 O6 1_555 1_555
C14 N1 1_555 1_555
C19 C20 1_555 1_555
C21 O8 1_555 1_555
C23 O11 1_555 1_555
C28 N2 1_555 1_555
C33 C34 1_555 1_555
C35 O13 1_555 1_555
C37 O16 1_555 1_555
C42 N3 1_555 1_555
O9 Pb4A 1_555 1_555
O10 Pb3_2 1_555 1_555
O17 Pb4A_2 1_555 1_555
Pb4A_2 O9_2 1_555 1_555
Pb4A_2 O15A 1_555 1_555

#END
