
#######################################################################
#
#                 Cambridge Crystallographic Data Centre
#                                CCDC 
#
#######################################################################
#
# If this CIF has been generated from an entry in the Cambridge 
# Structural Database, then it will include bibliographic, chemical, 
# crystal, experimental, refinement or atomic coordinate data resulting 
# from the CCDC's data processing and validation procedures.
#
#######################################################################

data_IPOGUQ
_symmetry_cell_setting           monoclinic
_symmetry_space_group_name_H-M   'P 21/c'
_symmetry_Int_Tables_number      14
_space_group_name_Hall           '-P 2ybc'
loop_
_symmetry_equiv_pos_site_id
_symmetry_equiv_pos_as_xyz
1 x,y,z
2 -x,1/2+y,1/2-z
3 -x,-y,-z
4 x,1/2-y,1/2+z
_cell_length_a                   12.611(3)
_cell_length_b                   10.087(2)
_cell_length_c                   16.900(3)
_cell_angle_alpha                90
_cell_angle_beta                 105.89(3)
_cell_angle_gamma                90
_cell_volume                     2067.66
loop_
_atom_site_label
_atom_site_type_symbol
_atom_site_fract_x
_atom_site_fract_y
_atom_site_fract_z
Cu1 Cu 0.30358(3) 0.90963(3) 0.14020(2)
C1 C 0.2549(2) 1.1654(3) 0.1750(2)
C2 C 0.3766(2) 1.1669(3) 0.17257(18)
C3 C 0.0908(3) 0.8316(4) 0.0347(2)
H1 H 0.1036 0.9068 0.0047
C4 C -0.0082(3) 0.7662(4) 0.0079(2)
H2 H -0.0618 0.7963 -0.0399
C5 C -0.0303(2) 0.6570(3) 0.0501(2)
C6 C 0.0536(3) 0.6161(3) 0.1177(2)
H3 H 0.0436 0.5396 0.1477
C7 C 0.1512(3) 0.6859(3) 0.1415(2)
H4 H 0.2070 0.6561 0.1881
C8 C -0.1398(3) 0.5875(3) 0.0236(2)
H5 H -0.1310 0.4951 0.0440
H6 H -0.1648 0.5845 -0.0372
C9 C -0.2276(2) 0.6567(3) 0.0559(2)
H7 H -0.2055 0.6544 0.1168
H8 H -0.2337 0.7506 0.0383
C10 C -0.5567(3) 0.8399(3) 0.0367(2)
H9 H -0.5866 0.9196 0.0097
C11 C -0.4768(3) 0.7750(3) 0.0109(2)
H10 H -0.4531 0.8098 -0.0337
C12 C -0.4300(2) 0.6591(3) 0.04908(19)
C13 C -0.4708(3) 0.6126(3) 0.1118(2)
H11 H -0.4422 0.5330 0.1396
C14 C -0.5524(3) 0.6808(3) 0.13442(19)
H12 H -0.5801 0.6456 0.1770
C15 C -0.3393(3) 0.5885(3) 0.0232(2)
H13 H -0.3584 0.5852 -0.0376
H14 H -0.3338 0.4961 0.0438
N1 N 0.17044(19) 0.7937(3) 0.10170(16)
N2 N -0.59418(19) 0.7949(2) 0.09863(15)
O1 O 0.20593(17) 1.0537(2) 0.15687(16)
O2 O 0.35245(18) 0.8405(3) 0.26926(14)
H15 H 0.3176 0.8211 0.3042
H16 H 0.4191 0.8159 0.2881
O3 O 0.41356(17) 1.0542(2) 0.15719(15)
O5 O 0.2135(2) 1.2672(3) 0.1920(2)
O8 O 0.42776(18) 1.2710(2) 0.18459(16)
Cu1_2 Cu -0.69642(3) 0.90963(3) 0.14020(2)
N2_2 N 0.40582(19) 0.7949(2) 0.09863(15)
O4 O 0.2326(3) 0.9906(3) -0.0949(2)
H17 H 0.1644 0.9881 -0.1204
H18 H 0.2692 0.9974 -0.1300
O6 O 0.3500(2) 1.0134(3) -0.2130(2)
H19 H 0.4199 1.0113 -0.2028
H20 H 0.3262 1.0830 -0.2404
O7 O -0.0081(2) 0.7957(3) 0.2835(2)
H21 H -0.0721 0.7883 0.2905
H22 H -0.0076 0.8631 0.2534
O9 O -0.0019(2) 1.0167(3) 0.1843(2)
H23 H 0.0603 1.0110 0.1740
H24 H -0.0117 1.0971 0.1955
O10 O 0.2205(3) 0.7885(3) 0.3710(2)
H25 H 0.2307 0.7069 0.3833
H26 H 0.1533 0.7990 0.3444
loop_
_geom_bond_atom_site_label_1
_geom_bond_atom_site_label_2
_geom_bond_site_symmetry_1
_geom_bond_site_symmetry_2
Cu1 N1 1_555 1_555
C1 C2 1_555 1_555
C2 O3 1_555 1_555
C3 H1 1_555 1_555
C4 C3 1_555 1_555
H2 C4 1_555 1_555
C5 C4 1_555 1_555
C6 C5 1_555 1_555
H3 C6 1_555 1_555
C7 C6 1_555 1_555
H4 C7 1_555 1_555
C8 C5 1_555 1_555
H5 C8 1_555 1_555
H6 C8 1_555 1_555
C9 C8 1_555 1_555
H7 C9 1_555 1_555
H8 C9 1_555 1_555
C10 H9 1_555 1_555
C11 C10 1_555 1_555
H10 C11 1_555 1_555
C12 C11 1_555 1_555
C13 C12 1_555 1_555
H11 C13 1_555 1_555
C14 C13 1_555 1_555
H12 C14 1_555 1_555
C15 C9 1_555 1_555
H13 C15 1_555 1_555
H14 C15 1_555 1_555
N1 C3 1_555 1_555
N2 C10 1_555 1_555
O1 Cu1 1_555 1_555
O2 Cu1 1_555 1_555
H15 O2 1_555 1_555
H16 O2 1_555 1_555
O3 Cu1 1_555 1_555
O4 H17 1_555 1_555
H18 O4 1_555 1_555
O5 C1 1_555 1_555
O6 H19 1_555 1_555
H20 O6 1_555 1_555
O7 H21 1_555 1_555
H22 O7 1_555 1_555
O8 C2 1_555 1_555
O9 H23 1_555 1_555
H24 O9 1_555 1_555
O10 H25 1_555 1_555
H26 O10 1_555 1_555
Cu1_2 N2 1_555 1_555
N2_2 Cu1 1_555 1_555
C1 O1 1_555 1_555
C7 N1 1_555 1_555
C12 C15 1_555 1_555
C14 N2 1_555 1_555

#END
