
#######################################################################
#
#                 Cambridge Crystallographic Data Centre
#                                CCDC 
#
#######################################################################
#
# If this CIF has been generated from an entry in the Cambridge 
# Structural Database, then it will include bibliographic, chemical, 
# crystal, experimental, refinement or atomic coordinate data resulting 
# from the CCDC's data processing and validation procedures.
#
#######################################################################

data_IPONOQ
_symmetry_cell_setting           triclinic
_symmetry_space_group_name_H-M   'P -1'
_symmetry_Int_Tables_number      2
_space_group_name_Hall           '-P 1'
loop_
_symmetry_equiv_pos_site_id
_symmetry_equiv_pos_as_xyz
1 x,y,z
2 -x,-y,-z
_cell_length_a                   7.8350(2)
_cell_length_b                   9.8345(2)
_cell_length_c                   10.2841(2)
_cell_angle_alpha                81.6530(9)
_cell_angle_beta                 75.3470(9)
_cell_angle_gamma                86.8960(9)
_cell_volume                     758.404
loop_
_atom_site_label
_atom_site_type_symbol
_atom_site_fract_x
_atom_site_fract_y
_atom_site_fract_z
Cu1 Cu 0.0000 0.0000 0.0000
O1 O 0.51453(17) 0.25944(12) 0.12816(12)
N1 N 0.00500(19) 0.05801(14) 0.18611(14)
N2 N 0.4142(2) 0.25242(15) 0.35660(15)
H1 H 0.4009 0.2960 0.4276
N3 N 0.5664(2) 0.43850(15) 0.22946(16)
H2 H 0.5511 0.4735 0.3057
N4 N 0.97895(19) 0.79862(14) 0.07899(14)
C1 C 0.1568(2) 0.06061(17) 0.22480(17)
H3 H 0.2606 0.0232 0.1709
C2 C 0.1693(2) 0.11489(17) 0.33896(17)
C3 C 0.0177(2) 0.16913(18) 0.41751(18)
H4 H 0.0217 0.2079 0.4961
C4 C -0.1395(3) 0.16617(18) 0.38014(18)
H5 H -0.2450 0.2023 0.4330
C5 C -0.1410(2) 0.10978(18) 0.26454(18)
H6 H -0.2496 0.1076 0.2397
C6 C 0.3453(2) 0.11470(18) 0.37385(18)
H7 H 0.3321 0.0723 0.4692
H8 H 0.4309 0.0578 0.3152
C7 C 0.4986(2) 0.31406(17) 0.23208(17)
C8 C 0.6636(3) 0.51522(19) 0.10383(19)
H9 H 0.5833 0.5829 0.0675
H10 H 0.7088 0.4515 0.0362
C9 C 0.8164(2) 0.58946(18) 0.12488(18)
C10 C 0.8475(2) 0.72425(17) 0.06500(17)
H11 H 0.7718 0.7663 0.0112
C11 C 1.0870(2) 0.73867(18) 0.15359(18)
H12 H 1.1808 0.7902 0.1638
C12 C 1.0663(3) 0.6038(2) 0.2163(2)
H13 H 1.1455 0.5633 0.2678
C13 C 0.9289(3) 0.52918(19) 0.2028(2)
H14 H 0.9114 0.4372 0.2465
O5 O -0.31914(17) 0.02009(15) 0.05145(13)
H15 H -0.375(3) -0.037(3) 0.105(2)
H16 H -0.374(4) 0.096(3) 0.069(3)
O1A O -0.51453(17) -0.25944(12) -0.12816(12)
N1A N -0.00500(19) -0.05801(14) -0.18611(14)
N2A N -0.4142(2) -0.25242(15) -0.35660(15)
H1A H -0.4009 -0.2960 -0.4276
N3A N -0.5664(2) -0.43850(15) -0.22946(16)
H2A H -0.5511 -0.4735 -0.3057
N4A N -0.97895(19) -0.79862(14) -0.07899(14)
C1A C -0.1568(2) -0.06061(17) -0.22480(17)
H3A H -0.2606 -0.0232 -0.1709
C2A C -0.1693(2) -0.11489(17) -0.33896(17)
C3A C -0.0177(2) -0.16913(18) -0.41751(18)
H4A H -0.0217 -0.2079 -0.4961
C4A C 0.1395(3) -0.16617(18) -0.38014(18)
H5A H 0.2450 -0.2023 -0.4330
C5A C 0.1410(2) -0.10978(18) -0.26454(18)
H6A H 0.2496 -0.1076 -0.2397
C6A C -0.3453(2) -0.11470(18) -0.37385(18)
H7A H -0.3321 -0.0723 -0.4692
H8A H -0.4309 -0.0578 -0.3152
C7A C -0.4986(2) -0.31406(17) -0.23208(17)
C8A C -0.6636(3) -0.51522(19) -0.10383(19)
H9A H -0.5833 -0.5829 -0.0675
H10A H -0.7088 -0.4515 -0.0362
C9A C -0.8164(2) -0.58946(18) -0.12488(18)
C10A C -0.8475(2) -0.72425(17) -0.06500(17)
H11A H -0.7718 -0.7663 -0.0112
C11A C -1.0870(2) -0.73867(18) -0.15359(18)
H12A H -1.1808 -0.7902 -0.1638
C12A C -1.0663(3) -0.6038(2) -0.2163(2)
H13A H -1.1455 -0.5633 -0.2678
C13A C -0.9289(3) -0.52918(19) -0.2028(2)
H14A H -0.9114 -0.4372 -0.2465
O5A O 0.31914(17) -0.02009(15) -0.05145(13)
H15A H 0.375(3) 0.037(3) -0.105(2)
H16A H 0.374(4) -0.096(3) -0.069(3)
N4_2 N -0.02105(19) -0.20138(14) 0.07899(14)
N4A_2 N 0.02105(19) 0.20138(14) -0.07899(14)
Cu1_2 Cu 1.0000 1.0000 0.0000
Cu1_3 Cu -1.0000 -1.0000 0.0000
N5 N 0.4787(2) 0.23905(16) 0.67725(15)
O2 O 0.3596(2) 0.16921(16) 0.66170(15)
O3 O 0.5407(2) 0.20420(17) 0.77786(16)
O4 O 0.5315(2) 0.34227(15) 0.59324(14)
loop_
_geom_bond_atom_site_label_1
_geom_bond_atom_site_label_2
_geom_bond_site_symmetry_1
_geom_bond_site_symmetry_2
Cu1 N1 1_555 1_555
O1 C7 1_555 1_555
N1 C1 1_555 1_555
N2 H1 1_555 1_555
N3 H2 1_555 1_555
N4 C10 1_555 1_555
C1 H3 1_555 1_555
C2 C1 1_555 1_555
C3 C2 1_555 1_555
H4 C3 1_555 1_555
C4 C3 1_555 1_555
H5 C4 1_555 1_555
C5 N1 1_555 1_555
H6 C5 1_555 1_555
C6 N2 1_555 1_555
H7 C6 1_555 1_555
H8 C6 1_555 1_555
C7 N2 1_555 1_555
C8 N3 1_555 1_555
H9 C8 1_555 1_555
H10 C8 1_555 1_555
C9 C8 1_555 1_555
C10 C9 1_555 1_555
H11 C10 1_555 1_555
C11 N4 1_555 1_555
H12 C11 1_555 1_555
C12 C11 1_555 1_555
H13 C12 1_555 1_555
C13 C9 1_555 1_555
H14 C13 1_555 1_555
N5 O2 1_555 1_555
O3 N5 1_555 1_555
O4 N5 1_555 1_555
O5 Cu1 1_555 1_555
H15 O5 1_555 1_555
H16 O5 1_555 1_555
O1A C7A 1_555 1_555
N1A Cu1 1_555 1_555
N2A H1A 1_555 1_555
N3A H2A 1_555 1_555
N4A C10A 1_555 1_555
C1A N1A 1_555 1_555
H3A C1A 1_555 1_555
C2A C1A 1_555 1_555
C3A C2A 1_555 1_555
H4A C3A 1_555 1_555
C4A C3A 1_555 1_555
H5A C4A 1_555 1_555
C5A N1A 1_555 1_555
H6A C5A 1_555 1_555
C6A N2A 1_555 1_555
H7A C6A 1_555 1_555
H8A C6A 1_555 1_555
C7A N2A 1_555 1_555
C8A N3A 1_555 1_555
H9A C8A 1_555 1_555
H10A C8A 1_555 1_555
C9A C8A 1_555 1_555
C10A C9A 1_555 1_555
H11A C10A 1_555 1_555
C11A N4A 1_555 1_555
H12A C11A 1_555 1_555
C12A C11A 1_555 1_555
H13A C12A 1_555 1_555
C13A C9A 1_555 1_555
H14A C13A 1_555 1_555
O5A Cu1 1_555 1_555
H15A O5A 1_555 1_555
H16A O5A 1_555 1_555
N4_2 Cu1 1_555 1_555
N4A_2 Cu1 1_555 1_555
Cu1_2 N4 1_555 1_555
Cu1_3 N4A 1_555 1_555
N3 C7 1_555 1_555
C2 C6 1_555 1_555
C4 C5 1_555 1_555
C12 C13 1_555 1_555
N3A C7A 1_555 1_555
C2A C6A 1_555 1_555
C4A C5A 1_555 1_555
C12A C13A 1_555 1_555

#END
