
#######################################################################
#
#                 Cambridge Crystallographic Data Centre
#                                CCDC 
#
#######################################################################
#
# If this CIF has been generated from an entry in the Cambridge 
# Structural Database, then it will include bibliographic, chemical, 
# crystal, experimental, refinement or atomic coordinate data resulting 
# from the CCDC's data processing and validation procedures.
#
#######################################################################

data_IPOQOT
_symmetry_cell_setting           triclinic
_symmetry_space_group_name_H-M   'P -1'
_symmetry_Int_Tables_number      2
_space_group_name_Hall           '-P 1'
loop_
_symmetry_equiv_pos_site_id
_symmetry_equiv_pos_as_xyz
1 x,y,z
2 -x,-y,-z
_cell_length_a                   13.1740(2)
_cell_length_b                   13.2239(2)
_cell_length_c                   13.6498(2)
_cell_angle_alpha                107.8897(10)
_cell_angle_beta                 113.0629(8)
_cell_angle_gamma                91.7783(8)
_cell_volume                     2050.76
loop_
_atom_site_label
_atom_site_type_symbol
_atom_site_fract_x
_atom_site_fract_y
_atom_site_fract_z
K1 K 0.90909(6) 0.03754(6) 0.55859(6)
K2 K 0.91648(6) 0.04626(6) 1.06272(6)
Cl1 Cl 1.33186(8) 0.57766(7) 1.21621(8)
Cl2 Cl 0.62375(9) -0.54686(8) 0.08509(10)
P1 P 0.80344(6) 0.00382(6) 0.76822(6)
P2 P 0.89776(7) 0.14934(7) 0.34871(7)
S1 S 0.98602(8) 0.29800(7) 0.83040(7)
S2 S 0.72402(7) -0.14006(8) 0.08285(7)
O1 O 0.86706(18) -0.06288(17) 0.83417(17)
O2 O 0.99844(18) 0.13534(18) 0.44180(17)
N1 N 0.8384(2) 0.0533(2) 0.2267(2)
N2 N 0.8695(2) 0.1012(2) 0.7556(2)
N3 N 0.9971(2) 0.1776(2) 0.9527(2)
N4 N 0.8370(2) -0.0889(2) 0.3025(2)
C1 C 0.9454(3) 0.1779(2) 0.8490(3)
C2 C 1.0810(3) 0.3483(3) 0.9718(3)
C3 C 1.0746(3) 0.2727(3) 1.0228(3)
C4 C 1.1463(3) 0.2952(3) 1.1364(3)
H1 H 1.1421 0.2459 1.1734
C5 C 1.2234(3) 0.3899(3) 1.1950(3)
H2 H 1.2732 0.4055 1.2723
C6 C 1.2284(3) 0.4618(3) 1.1414(3)
C7 C 1.1571(3) 0.4438(3) 1.0305(3)
H3 H 1.1600 0.4950 0.9953
C8 C 0.7074(2) 0.0590(2) 0.8277(2)
C9 C 0.6581(3) -0.0032(3) 0.8683(3)
H4 H 0.6736 -0.0740 0.8628
C10 C 0.5864(3) 0.0375(4) 0.9167(3)
H5 H 0.5527 -0.0053 0.9442
C11 C 0.5639(3) 0.1408(4) 0.9251(3)
H6 H 0.5150 0.1688 0.9587
C12 C 0.6121(3) 0.2030(3) 0.8849(3)
H7 H 0.5962 0.2736 0.8903
C13 C 0.6844(3) 0.1619(3) 0.8360(3)
H8 H 0.7179 0.2048 0.8085
C14 C 0.7179(3) -0.0798(3) 0.6234(3)
C15 C 0.7112(3) -0.1904(3) 0.5906(3)
H9 H 0.7509 -0.2220 0.6452
C16 C 0.6472(4) -0.2558(3) 0.4792(3)
H10 H 0.6428 -0.3319 0.4580
C17 C 0.5901(3) -0.2116(3) 0.3991(3)
H11 H 0.5482 -0.2566 0.3223
C18 C 0.5936(3) -0.1023(3) 0.4301(3)
H12 H 0.5528 -0.0718 0.3749
C19 C 0.6562(3) -0.0361(3) 0.5414(3)
H13 H 0.6574 0.0395 0.5624
C20 C 0.8096(3) -0.0475(3) 0.2210(3)
C21 C 0.7244(3) -0.2408(3) 0.1397(3)
C22 C 0.7901(3) -0.1976(3) 0.2578(3)
C23 C 0.8054(3) -0.2659(3) 0.3201(3)
H14 H 0.8503 -0.2390 0.3997
C24 C 0.7552(3) -0.3732(3) 0.2660(3)
H15 H 0.7667 -0.4205 0.3081
C25 C 0.6880(3) -0.4116(3) 0.1501(3)
C26 C 0.6723(3) -0.3470(3) 0.0852(3)
H16 H 0.6271 -0.3746 0.0057
C27 C 0.9311(3) 0.2630(3) 0.3133(3)
C28 C 1.0262(3) 0.3391(3) 0.3892(3)
H17 H 1.0738 0.3296 0.4577
C29 C 1.0527(4) 0.4288(4) 0.3663(4)
H18 H 1.1175 0.4810 0.4197
C30 C 0.9855(4) 0.4423(4) 0.2667(4)
H19 H 1.0040 0.5035 0.2507
C31 C 0.8910(4) 0.3667(4) 0.1899(4)
H20 H 0.8449 0.3758 0.1206
C32 C 0.8631(3) 0.2780(3) 0.2132(3)
H21 H 0.7971 0.2270 0.1606
C33 C 0.7939(3) 0.1835(3) 0.4041(3)
C34 C 0.6814(3) 0.1363(3) 0.3439(3)
H22 H 0.6556 0.0853 0.2692
C35 C 0.6066(3) 0.1633(3) 0.3927(3)
H23 H 0.5299 0.1305 0.3514
C36 C 0.6434(3) 0.2376(3) 0.5008(3)
H24 H 0.5920 0.2561 0.5338
C37 C 0.7545(3) 0.2852(3) 0.5613(3)
H25 H 0.7795 0.3370 0.6355
C38 C 0.8300(3) 0.2577(3) 0.5139(3)
H26 H 0.9068 0.2896 0.5565
K1A K 1.09091(6) -0.03754(6) 0.44141(6)
K2A K 1.08352(6) -0.04626(6) 0.93728(6)
K2_2 K 0.91648(6) 0.04626(6) 0.06272(6)
O1A O 1.13294(18) 0.06288(17) 1.16583(17)
O2A O 1.00156(18) -0.13534(18) 0.55820(17)
N1_2 N 0.8384(2) 0.0533(2) 1.2267(2)
N3A N 1.0029(2) -0.1776(2) 1.0473(2)
N4A N 1.1630(2) 0.0889(2) 0.6975(2)
C39 C 0.5646(7) 0.4097(7) 0.3131(7)
H27 H 0.5545 0.4703 0.2825
Cl3 Cl 0.5155(4) 0.4485(4) 0.4198(4)
Cl4 Cl 0.6893(4) 0.4061(3) 0.3516(4)
Cl5 Cl 0.4797(4) 0.2966(3) 0.1947(4)
loop_
_geom_bond_atom_site_label_1
_geom_bond_atom_site_label_2
_geom_bond_site_symmetry_1
_geom_bond_site_symmetry_2
K1 O2 1_555 1_555
K2 O1 1_555 1_555
Cl1 C6 1_555 1_555
Cl2 C25 1_555 1_555
P1 O1 1_555 1_555
P2 O2 1_555 1_555
S1 C1 1_555 1_555
S2 C20 1_555 1_555
O1 K2A 1_555 1_555
O2 K1A 1_555 1_555
N1 P2 1_555 1_555
N2 K1 1_555 1_555
N3 K2 1_555 1_555
N4 K1 1_555 1_555
C1 N2 1_555 1_555
C2 S1 1_555 1_555
C3 N3 1_555 1_555
C4 C3 1_555 1_555
H1 C4 1_555 1_555
C5 C4 1_555 1_555
H2 C5 1_555 1_555
C6 C5 1_555 1_555
C7 C2 1_555 1_555
H3 C7 1_555 1_555
C8 P1 1_555 1_555
C9 C8 1_555 1_555
H4 C9 1_555 1_555
C10 C9 1_555 1_555
H5 C10 1_555 1_555
C11 C10 1_555 1_555
H6 C11 1_555 1_555
C12 C11 1_555 1_555
H7 C12 1_555 1_555
C13 C8 1_555 1_555
H8 C13 1_555 1_555
C14 P1 1_555 1_555
C15 C14 1_555 1_555
H9 C15 1_555 1_555
C16 C15 1_555 1_555
H10 C16 1_555 1_555
C17 C16 1_555 1_555
H11 C17 1_555 1_555
C18 C17 1_555 1_555
H12 C18 1_555 1_555
C19 C14 1_555 1_555
H13 C19 1_555 1_555
C20 N1 1_555 1_555
C21 S2 1_555 1_555
C22 N4 1_555 1_555
C23 C22 1_555 1_555
H14 C23 1_555 1_555
C24 C23 1_555 1_555
H15 C24 1_555 1_555
C25 C24 1_555 1_555
C26 C21 1_555 1_555
H16 C26 1_555 1_555
C27 P2 1_555 1_555
C28 C27 1_555 1_555
H17 C28 1_555 1_555
C29 C28 1_555 1_555
H18 C29 1_555 1_555
C30 C29 1_555 1_555
H19 C30 1_555 1_555
C31 C30 1_555 1_555
H20 C31 1_555 1_555
C32 C27 1_555 1_555
H21 C32 1_555 1_555
C33 P2 1_555 1_555
C34 C33 1_555 1_555
H22 C34 1_555 1_555
C35 C34 1_555 1_555
H23 C35 1_555 1_555
C36 C35 1_555 1_555
H24 C36 1_555 1_555
C37 C36 1_555 1_555
H25 C37 1_555 1_555
C38 C33 1_555 1_555
H26 C38 1_555 1_555
C39 H27 1_555 1_555
Cl3 C39 1_555 1_555
Cl4 C39 1_555 1_555
Cl5 C39 1_555 1_555
K1A N4 1_555 1_555
K2A N3 1_555 1_555
K2_2 N1 1_555 1_555
O1A K2 1_555 1_555
O2A K1 1_555 1_555
N1_2 K2 1_555 1_555
N3A K2 1_555 1_555
N4A K1 1_555 1_555
P1 N2 1_555 1_555
N3 C1 1_555 1_555
N4 C20 1_555 1_555
C2 C3 1_555 1_555
C6 C7 1_555 1_555
C12 C13 1_555 1_555
C18 C19 1_555 1_555
C21 C22 1_555 1_555
C25 C26 1_555 1_555
C31 C32 1_555 1_555
C37 C38 1_555 1_555
K1A O2A 1_555 1_555
K1A N4A 1_555 1_555
K2A O1A 1_555 1_555
K2A N3A 1_555 1_555

#END
