
#######################################################################
#
#                 Cambridge Crystallographic Data Centre
#                                CCDC 
#
#######################################################################
#
# If this CIF has been generated from an entry in the Cambridge 
# Structural Database, then it will include bibliographic, chemical, 
# crystal, experimental, refinement or atomic coordinate data resulting 
# from the CCDC's data processing and validation procedures.
#
#######################################################################

data_IPOWIU
_symmetry_cell_setting           monoclinic
_symmetry_space_group_name_H-M   'P 21/n'
_symmetry_Int_Tables_number      14
_space_group_name_Hall           '-P 2yn'
loop_
_symmetry_equiv_pos_site_id
_symmetry_equiv_pos_as_xyz
1 x,y,z
2 1/2-x,1/2+y,1/2-z
3 -x,-y,-z
4 1/2+x,1/2-y,1/2+z
_cell_length_a                   10.942(2)
_cell_length_b                   17.355(4)
_cell_length_c                   11.527(2)
_cell_angle_alpha                90
_cell_angle_beta                 99.66(3)
_cell_angle_gamma                90
_cell_volume                     2157.92
loop_
_atom_site_label
_atom_site_type_symbol
_atom_site_fract_x
_atom_site_fract_y
_atom_site_fract_z
Y1 Y 0.19956(2) 0.506061(13) 0.691109(19)
C1 C 0.1797(2) 0.53704(14) 0.30823(19)
H1 H 0.1708 0.4811 0.2983
C2 C 0.1217(2) 0.56921(13) 0.18721(19)
H2 H 0.0376 0.5479 0.1715
C3 C 0.1893(2) 0.53329(14) 0.0929(2)
H3 H 0.1764 0.4778 0.1014
C4 C 0.3315(2) 0.54141(14) 0.1150(2)
H4 H 0.3613 0.5044 0.0618
C5 C 0.3825(2) 0.51274(14) 0.24085(19)
H5 H 0.3545 0.4591 0.2396
C6 C 0.3221(2) 0.54908(14) 0.3388(2)
H6 H 0.3501 0.5185 0.4098
C7 C 0.1063(2) 0.55518(14) 0.4057(2)
O1 O 0.16536(15) 0.57096(10) 0.50793(14)
O2 O -0.00852(15) 0.55072(11) 0.38276(15)
C8 C 0.1045(2) 0.65656(15) 0.1915(2)
O3 O 0.13454(19) 0.69285(11) 0.28158(17)
O4 O 0.04560(17) 0.69046(11) 0.09630(16)
H7 H 0.0353 0.6584 0.0455
C9 C 0.1327(2) 0.54909(15) -0.0357(2)
O5 O 0.18181(16) 0.51451(11) -0.11135(15)
O6 O 0.03739(16) 0.59042(12) -0.06016(15)
C10 C 0.3728(2) 0.62020(16) 0.0784(2)
O7 O 0.30075(17) 0.67162(11) 0.04472(18)
O8 O 0.49162(17) 0.62906(12) 0.07459(18)
H8 H 0.5366 0.5947 0.1067
C11 C 0.5231(2) 0.50594(14) 0.2752(2)
O9 O 0.56729(17) 0.48173(12) 0.37451(16)
O10 O 0.59300(16) 0.52048(12) 0.20042(17)
C12 C 0.3667(2) 0.63066(15) 0.3677(2)
O11 O 0.42890(18) 0.66638(11) 0.30831(17)
O12 O 0.34210(16) 0.66068(11) 0.46632(15)
H9 H 0.2975 0.6317 0.4956
O13 O 0.19830(19) 0.37843(11) 0.77516(17)
H10 H 0.2090 0.3698 0.8496
H11 H 0.2284 0.3428 0.7417
O14 O 0.04309(17) 0.59869(11) 0.70162(16)
H12 H 0.0144 0.6257 0.6514
H13 H 0.0184 0.6089 0.7585
O15 O 0.23177(18) 0.41362(11) 0.54911(17)
H14 H 0.2866 0.4016 0.5236
H15 H 0.1823 0.3833 0.5365
O16 O 0.28884(17) 0.62958(11) 0.72864(18)
H16 H 0.2394 0.6662 0.7422
H17 H 0.3592 0.6396 0.7569
Y1B Y -0.19956(2) 0.493939(13) 0.308891(19)
Y1_2 Y 0.19956(2) 0.506061(13) -0.308891(19)
Y1B_2 Y 0.80044(2) 0.493939(13) 0.308891(19)
O2B O 0.00852(15) 0.44928(11) 0.61724(15)
O5_2 O 0.18181(16) 0.51451(11) 0.88865(15)
O9B O 0.43271(17) 0.51827(12) 0.62549(16)
O10B O 0.40700(16) 0.47952(12) 0.79958(17)
O17 O 0.2420(2) 0.32350(15) 1.0038(2)
H18 H 0.2184 0.3284 1.0642
H19 H 0.2406 0.2786 0.9891
O18 O 0.6696(2) 0.74491(13) 0.3255(2)
H20 H 0.7034 0.7633 0.3851
H21 H 0.6033 0.7288 0.3218
O19 O 0.8187(2) 0.67101(14) 0.7656(2)
H22 H 0.8449 0.7168 0.7683
H23 H 0.7593 0.6715 0.7139
O20 O 0.0182(2) 0.83165(15) 0.3305(2)
H24 H 0.0525 0.7924 0.3124
H25 H 0.0437 0.8372 0.3992
O21 O 0.0510(2) 0.30444(13) 0.4850(2)
H26 H 0.0869 0.2589 0.4814
H27 H 0.0142 0.2960 0.5415
O22 O 0.39645(18) 0.35457(13) 0.41683(18)
H28 H 0.4265 0.3069 0.4216
H29 H 0.4603 0.3841 0.4110
loop_
_geom_bond_atom_site_label_1
_geom_bond_atom_site_label_2
_geom_bond_site_symmetry_1
_geom_bond_site_symmetry_2
Y1 O1 1_555 1_555
C1 H1 1_555 1_555
C2 C1 1_555 1_555
H2 C2 1_555 1_555
C3 C2 1_555 1_555
H3 C3 1_555 1_555
C4 C3 1_555 1_555
H4 C4 1_555 1_555
C5 C4 1_555 1_555
H5 C5 1_555 1_555
C6 C1 1_555 1_555
H6 C6 1_555 1_555
C7 C1 1_555 1_555
O1 C7 1_555 1_555
O2 C7 1_555 1_555
C8 C2 1_555 1_555
O3 C8 1_555 1_555
O4 C8 1_555 1_555
H7 O4 1_555 1_555
C9 C3 1_555 1_555
O5 C9 1_555 1_555
O6 C9 1_555 1_555
C10 C4 1_555 1_555
O7 C10 1_555 1_555
O8 C10 1_555 1_555
H8 O8 1_555 1_555
C11 C5 1_555 1_555
O9 C11 1_555 1_555
O10 C11 1_555 1_555
C12 C6 1_555 1_555
O11 C12 1_555 1_555
O12 C12 1_555 1_555
H9 O12 1_555 1_555
O13 Y1 1_555 1_555
H10 O13 1_555 1_555
H11 O13 1_555 1_555
O14 Y1 1_555 1_555
H12 O14 1_555 1_555
H13 O14 1_555 1_555
O15 Y1 1_555 1_555
H14 O15 1_555 1_555
H15 O15 1_555 1_555
O16 Y1 1_555 1_555
H16 O16 1_555 1_555
H17 O16 1_555 1_555
O17 H18 1_555 1_555
H19 O17 1_555 1_555
O18 H20 1_555 1_555
H21 O18 1_555 1_555
O19 H22 1_555 1_555
H23 O19 1_555 1_555
O20 H24 1_555 1_555
H25 O20 1_555 1_555
O21 H26 1_555 1_555
H27 O21 1_555 1_555
O22 H28 1_555 1_555
H29 O22 1_555 1_555
Y1B O2 1_555 1_555
Y1_2 O5 1_555 1_555
Y1B_2 O9 1_555 1_555
O2B Y1 1_555 1_555
O5_2 Y1 1_555 1_555
O9B Y1 1_555 1_555
O10B Y1 1_555 1_555
C5 C6 1_555 1_555
O10 Y1B_2 1_555 1_555

#END
