
#######################################################################
#
#                 Cambridge Crystallographic Data Centre
#                                CCDC 
#
#######################################################################
#
# If this CIF has been generated from an entry in the Cambridge 
# Structural Database, then it will include bibliographic, chemical, 
# crystal, experimental, refinement or atomic coordinate data resulting 
# from the CCDC's data processing and validation procedures.
#
#######################################################################

data_IPUBUQ
_symmetry_cell_setting           monoclinic
_symmetry_space_group_name_H-M   'C 2/c'
_symmetry_Int_Tables_number      15
_space_group_name_Hall           '-C 2yn'
loop_
_symmetry_equiv_pos_site_id
_symmetry_equiv_pos_as_xyz
1 x,y,z
2 -x,y,1/2-z
3 1/2+x,1/2+y,z
4 1/2-x,1/2+y,1/2-z
5 -x,-y,-z
6 x,-y,1/2+z
7 1/2-x,1/2-y,-z
8 1/2+x,1/2-y,1/2+z
_cell_length_a                   13.323(2)
_cell_length_b                   24.943(4)
_cell_length_c                   15.615(3)
_cell_angle_alpha                90
_cell_angle_beta                 97.476(3)
_cell_angle_gamma                90
_cell_volume                     5145
loop_
_atom_site_label
_atom_site_type_symbol
_atom_site_fract_x
_atom_site_fract_y
_atom_site_fract_z
N3 N -0.3204(9) 0.1745(4) -0.2061(5)
O1 O -0.2481(9) 0.1453(5) -0.1733(6)
O2 O -0.3147(8) 0.2196(4) -0.2206(6)
C25 C -0.4146(5) 0.1502(3) -0.2271(3)
C26 C -0.4100(7) 0.0954(3) -0.2250(4)
C27 C -0.5000 0.0682(5) -0.2500
C28 C -0.5000 0.1802(3) -0.2500
C26A C -0.5900(7) 0.0954(3) -0.2750(4)
C25A C -0.5854(5) 0.1502(3) -0.2729(3)
N3A N -0.6796(9) 0.1745(4) -0.2939(5)
O1A O -0.7519(9) 0.1453(5) -0.3267(6)
O2A O -0.6853(8) 0.2196(4) -0.2794(6)
Co1 Co 0.0000 0.0009(1) 0.2500
I1 I -0.1597(1) 0.0038(1) 0.3631(1)
N1 N -0.0726(2) -0.0632(1) 0.1710(1)
C1 C -0.0159(2) -0.1032(1) 0.1450(2)
C2 C -0.0560(2) -0.1486(1) 0.1027(2)
C3 C -0.1608(2) -0.1542(1) 0.0849(2)
C4 C -0.2191(2) -0.1125(1) 0.1103(2)
C5 C -0.1734(2) -0.0681(1) 0.1528(2)
C6 C -0.2063(2) -0.2034(1) 0.0412(2)
C7 C -0.2575(2) -0.1997(1) -0.0432(2)
C8 C -0.1977(2) -0.2529(1) 0.0856(2)
C9 C -0.2660(2) -0.1502(1) -0.0903(2)
C10 C -0.3170(2) -0.1471(1) -0.1710(2)
C11 C -0.3622(2) -0.1935(1) -0.2124(2)
C12 C -0.1462(2) -0.2583(1) 0.1717(2)
N2 N -0.0832(2) 0.0634(1) 0.1764(1)
C13 C -0.1140(2) 0.1062(1) 0.2177(2)
C14 C -0.1553(2) 0.1514(1) 0.1754(2)
C15 C -0.1697(2) 0.1526(1) 0.0859(2)
C16 C -0.1423(2) 0.1072(1) 0.0425(2)
C17 C -0.0983(2) 0.0641(1) 0.0894(2)
C18 C -0.2112(2) 0.2021(1) 0.0396(2)
C19 C -0.1451(2) 0.2448(1) 0.0287(2)
C20 C -0.3156(2) 0.2067(1) 0.0121(2)
C21 C -0.0384(2) 0.2421(1) 0.0579(2)
C22 C 0.0232(2) 0.2838(1) 0.0467(2)
C23 C -0.3840(2) 0.1640(1) 0.0231(2)
C24 C -0.0148(2) 0.3316(1) 0.0055(2)
H1 H 0.0556 -0.1001 0.1563
H2 H -0.0125 -0.1757 0.0860
H3 H -0.2908 -0.1143 0.0987
H4 H -0.2151 -0.0401 0.1695
H5 H -0.2351 -0.1189 -0.0643
H6 H -0.3227 -0.1136 -0.2002
H7 H -0.3984 -0.1909 -0.2689
H8 H -0.1173 -0.2275 0.2009
H9 H -0.1071 0.1055 0.2790
H10 H -0.1737 0.1814 0.2075
H11 H -0.1535 0.1058 -0.0188
H12 H -0.0781 0.0338 0.0590
H13 H -0.0107 0.2105 0.0856
H14 H 0.0935 0.2810 0.0667
H15 H -0.3588 0.1318 0.0508
H16 H 0.0297 0.3604 -0.0022
C8F C -0.3023(2) -0.2471(1) -0.0856(2)
C6F C -0.2937(2) -0.2966(1) -0.0412(2)
C3F C -0.3392(2) -0.3458(1) -0.0849(2)
C2F C -0.4440(2) -0.3514(1) -0.1027(2)
C1F C -0.4841(2) -0.3968(1) -0.1450(2)
N1F N -0.4274(2) -0.4368(1) -0.1710(1)
C5F C -0.3266(2) -0.4319(1) -0.1528(2)
C4F C -0.2809(2) -0.3875(1) -0.1103(2)
H3F H -0.2092 -0.3857 -0.0987
H4F H -0.2849 -0.4599 -0.1695
H1F H -0.5556 -0.3999 -0.1563
H2F H -0.4875 -0.3243 -0.0860
C7F C -0.2425(2) -0.3003(1) 0.0432(2)
C11F C -0.1378(2) -0.3065(1) 0.2124(2)
C10F C -0.1830(2) -0.3529(1) 0.1710(2)
C9F C -0.2340(2) -0.3498(1) 0.0903(2)
H5F H -0.2649 -0.3811 0.0643
H6F H -0.1773 -0.3864 0.2002
H7F H -0.1016 -0.3091 0.2689
C12F C -0.3538(2) -0.2417(1) -0.1717(2)
H8F H -0.3827 -0.2725 -0.2009
C20F C -0.1844(2) 0.2933(1) -0.0121(2)
C18F C -0.2888(2) 0.2979(1) -0.0396(2)
C15F C -0.3303(2) 0.3474(1) -0.0859(2)
C14F C -0.3447(2) 0.3486(1) -0.1754(2)
C13F C -0.3860(2) 0.3938(1) -0.2177(2)
N2F N -0.4168(2) 0.4366(1) -0.1764(1)
C17F C -0.4017(2) 0.4359(1) -0.0894(2)
C16F C -0.3577(2) 0.3928(1) -0.0425(2)
H11F H -0.3465 0.3942 0.0188
H12F H -0.4219 0.4662 -0.0590
H9F H -0.3929 0.3945 -0.2790
H10F H -0.3263 0.3186 -0.2075
C19F C -0.3549(2) 0.2552(1) -0.0287(2)
C24F C -0.4852(2) 0.1684(1) -0.0055(2)
C22F C -0.5232(2) 0.2162(1) -0.0467(2)
C21F C -0.4616(2) 0.2579(1) -0.0579(2)
H13F H -0.4893 0.2895 -0.0856
H14F H -0.5935 0.2190 -0.0667
H16F H -0.5297 0.1396 0.0022
C23F C -0.1160(2) 0.3360(1) -0.0231(2)
H15F H -0.1412 0.3682 -0.0508
I1A I 0.1597(1) 0.0038(1) 0.1369(1)
N1A N 0.0726(2) -0.0632(1) 0.3290(1)
N2A N 0.0832(2) 0.0634(1) 0.3236(1)
Co1F Co -0.5000 -0.5009(1) -0.2500
Co1F_2 Co -0.5000 0.4991(1) -0.2500
N4? N 0.5728(8) 0.0434(4) 0.1349(7)
O3? O 0.5168(5) 0.0605(3) 0.1803(5)
O4? O 0.6626(5) 0.0456(2) 0.1470(4)
C29? C 0.5258(6) 0.0173(3) 0.0535(6)
C30? C 0.4180(15) 0.0082(9) 0.0397(11)
C31? C 0.3792(11) -0.0128(5) -0.0423(10)
C32? C 0.5596(13) 0.0310(5) 0.1016(8)
C33? C 0.4509(14) 0.0231(5) 0.0830(8)
C34? C 0.4145(17) 0.0023(10) 0.0057(12)
loop_
_geom_bond_atom_site_label_1
_geom_bond_atom_site_label_2
_geom_bond_site_symmetry_1
_geom_bond_site_symmetry_2
Co1 I1 1_555 1_555
N1 Co1 1_555 1_555
C1 N1 1_555 1_555
C2 C1 1_555 1_555
C3 C2 1_555 1_555
C4 C3 1_555 1_555
C5 N1 1_555 1_555
C6 C3 1_555 1_555
C7 C6 1_555 1_555
C8 C6 1_555 1_555
C9 C7 1_555 1_555
C10 C9 1_555 1_555
C11 C10 1_555 1_555
C12 C8 1_555 1_555
N2 Co1 1_555 1_555
C13 N2 1_555 1_555
C14 C13 1_555 1_555
C15 C14 1_555 1_555
C16 C15 1_555 1_555
C17 N2 1_555 1_555
C18 C15 1_555 1_555
C19 C18 1_555 1_555
C20 C18 1_555 1_555
C21 C19 1_555 1_555
C22 C21 1_555 1_555
C23 C20 1_555 1_555
C24 C22 1_555 1_555
N3 O1 1_555 1_555
O2 N3 1_555 1_555
C25 N3 1_555 1_555
C26 C25 1_555 1_555
C27 C26 1_555 1_555
C28 C25 1_555 1_555
H1 C1 1_555 1_555
H2 C2 1_555 1_555
H3 C4 1_555 1_555
H4 C5 1_555 1_555
H5 C9 1_555 1_555
H6 C10 1_555 1_555
H7 C11 1_555 1_555
H8 C12 1_555 1_555
H9 C13 1_555 1_555
H10 C14 1_555 1_555
H11 C16 1_555 1_555
H12 C17 1_555 1_555
H13 C21 1_555 1_555
H14 C22 1_555 1_555
H15 C23 1_555 1_555
H16 C24 1_555 1_555
C8F C7 1_555 1_555
C6F C8F 1_555 1_555
C3F C6F 1_555 1_555
C2F C3F 1_555 1_555
C1F C2F 1_555 1_555
N1F C1F 1_555 1_555
C5F N1F 1_555 1_555
C4F C3F 1_555 1_555
H3F C4F 1_555 1_555
H4F C5F 1_555 1_555
H1F C1F 1_555 1_555
H2F C2F 1_555 1_555
C7F C8 1_555 1_555
C11F C12 1_555 1_555
C10F C11F 1_555 1_555
C9F C7F 1_555 1_555
H5F C9F 1_555 1_555
H6F C10F 1_555 1_555
H7F C11F 1_555 1_555
C12F C11 1_555 1_555
H8F C12F 1_555 1_555
C20F C19 1_555 1_555
C18F C20F 1_555 1_555
C15F C18F 1_555 1_555
C14F C15F 1_555 1_555
C13F C14F 1_555 1_555
N2F C13F 1_555 1_555
C17F N2F 1_555 1_555
C16F C15F 1_555 1_555
H11F C16F 1_555 1_555
H12F C17F 1_555 1_555
H9F C13F 1_555 1_555
H10F C14F 1_555 1_555
C19F C20 1_555 1_555
C24F C23 1_555 1_555
C22F C24F 1_555 1_555
C21F C19F 1_555 1_555
H13F C21F 1_555 1_555
H14F C22F 1_555 1_555
H16F C24F 1_555 1_555
C23F C24 1_555 1_555
H15F C23F 1_555 1_555
C26A C27 1_555 1_555
C25A C28 1_555 1_555
N3A C25A 1_555 1_555
O1A N3A 1_555 1_555
O2A N3A 1_555 1_555
I1A Co1 1_555 1_555
N1A Co1 1_555 1_555
N2A Co1 1_555 1_555
Co1F N1F 1_555 1_555
Co1F_2 N2F 1_555 1_555
C4 C5 1_555 1_555
C16 C17 1_555 1_555
C8F C12F 1_555 1_555
C6F C7F 1_555 1_555
C5F C4F 1_555 1_555
C10F C9F 1_555 1_555
C20F C23F 1_555 1_555
C18F C19F 1_555 1_555
C17F C16F 1_555 1_555
C22F C21F 1_555 1_555
C26A C25A 1_555 1_555

#END
