
#######################################################################
#
#                 Cambridge Crystallographic Data Centre
#                                CCDC 
#
#######################################################################
#
# If this CIF has been generated from an entry in the Cambridge 
# Structural Database, then it will include bibliographic, chemical, 
# crystal, experimental, refinement or atomic coordinate data resulting 
# from the CCDC's data processing and validation procedures.
#
#######################################################################

data_IPUCEB
_symmetry_cell_setting           orthorhombic
_symmetry_space_group_name_H-M   'C m c m'
_symmetry_Int_Tables_number      63
_space_group_name_Hall           '-C 2n 2'
loop_
_symmetry_equiv_pos_site_id
_symmetry_equiv_pos_as_xyz
1 x,y,z
2 -x,-y,1/2+z
3 x,-y,-z
4 -x,y,1/2-z
5 1/2+x,1/2+y,z
6 1/2-x,1/2-y,1/2+z
7 1/2+x,1/2-y,-z
8 1/2-x,1/2+y,1/2-z
9 -x,-y,-z
10 x,y,1/2-z
11 -x,y,z
12 x,-y,1/2+z
13 1/2-x,1/2-y,-z
14 1/2+x,1/2+y,1/2-z
15 1/2-x,1/2+y,z
16 1/2+x,1/2-y,1/2+z
_cell_length_a                   9.8199(11)
_cell_length_b                   12.6180(11)
_cell_length_c                   21.990(2)
_cell_angle_alpha                90
_cell_angle_beta                 90
_cell_angle_gamma                90
_cell_volume                     2724.73
loop_
_atom_site_label
_atom_site_type_symbol
_atom_site_fract_x
_atom_site_fract_y
_atom_site_fract_z
Cd1 Cd 0.0000 0.0420(1) 0.2500
I1 I -0.2373(1) -0.0643(1) 0.2500
C1 C 0.1160(50) 0.2035(3) 0.3483(2)
C2 C 0.1204(4) 0.2831(3) 0.3922(2)
C3 C 0.0000 0.3244(4) 0.4143(2)
C4 C 0.0000 0.4141(4) 0.4589(2)
C5 C 0.0000 0.3930(4) 0.5213(2)
C6 C 0.0000 0.2877(4) 0.5454(2)
C7 C 0.0000 0.2703(4) 0.6066(3)
C8 C 0.0000 0.3571(5) 0.6479(2)
C9 C 0.0000 0.4577(4) 0.6273(2)
C10 C 0.0000 0.5190(4) 0.4362(2)
N1 N 0.0000 0.1656(3) 0.3264(2)
H1 H 0.1993 0.1752 0.3335
H2 H 0.2053 0.3087 0.4067
H3 H 0.0000 0.2290 0.5184
H4 H 0.0000 0.1998 0.6217
H5 H 0.0000 0.3440 0.6904
H6 H 0.0000 0.5144 0.6558
C2J C -0.1204(4) 0.2831(3) 0.3922(2)
C1J C -0.1160(50) 0.2035(3) 0.3483(2)
H1J H -0.1993 0.1752 0.3335
H2J H -0.2053 0.3087 0.4067
C10B C 0.0000 0.4810(4) 0.5638(2)
C4B C 0.0000 0.5859(4) 0.5411(2)
C3B C 0.0000 0.6756(4) 0.5857(2)
C2B C 0.1204(4) 0.7169(3) 0.6078(2)
C1B C 0.1160(50) 0.7965(3) 0.6517(2)
N1B N 0.0000 0.8344(3) 0.6736(2)
C1H C -0.1160(50) 0.7965(3) 0.6517(2)
C2H C -0.1204(4) 0.7169(3) 0.6078(2)
H2H H -0.2053 0.6913 0.5933
H1H H -0.1993 0.8248 0.6665
H1B H 0.1993 0.8248 0.6665
H2B H 0.2053 0.6913 0.5933
C5B C 0.0000 0.6070(4) 0.4787(2)
C6B C 0.0000 0.7123(4) 0.4546(2)
C7B C 0.0000 0.7297(4) 0.3934(3)
C8B C 0.0000 0.6429(5) 0.3521(2)
C9B C 0.0000 0.5423(4) 0.3727(2)
H6B H 0.0000 0.4856 0.3442
H5B H 0.0000 0.6560 0.3096
H4B H 0.0000 0.8002 0.3783
H3B H 0.0000 0.7710 0.4816
I1C I 0.2373(1) -0.0643(1) 0.2500
N1C N 0.0000 0.1656(3) 0.1736(2)
Cd1A Cd 0.0000 0.9580(1) 0.7500
C11 C 0.4289(6) 0.5043(3) 0.5540(2)
C12 C 0.3606(7) 0.5000 0.5000
H7 H 0.3801 0.5072 0.5912
H8 H 0.2639 0.5000 0.5000
C11J C 0.5711(6) 0.5043(3) 0.5540(2)
C12J C 0.6394(7) 0.5000 0.5000
C11H C 0.5711(6) 0.4957(3) 0.4460(2)
C11B C 0.4289(6) 0.4957(3) 0.4460(2)
H7B H 0.3801 0.4928 0.4088
H7H H 0.6199 0.4928 0.4088
H8J H 0.7361 0.5000 0.5000
H7J H 0.6199 0.5072 0.5912
loop_
_geom_bond_atom_site_label_1
_geom_bond_atom_site_label_2
_geom_bond_site_symmetry_1
_geom_bond_site_symmetry_2
Cd1 I1 1_555 1_555
C1 C2 1_555 1_555
C2 C3 1_555 1_555
C3 C4 1_555 1_555
C4 C5 1_555 1_555
C5 C6 1_555 1_555
C6 C7 1_555 1_555
C7 C8 1_555 1_555
C8 C9 1_555 1_555
C9 H6 1_555 1_555
C10 C4 1_555 1_555
N1 Cd1 1_555 1_555
H1 C1 1_555 1_555
H2 C2 1_555 1_555
H3 C6 1_555 1_555
H4 C7 1_555 1_555
H5 C8 1_555 1_555
C11 C12 1_555 1_555
C12 H8 1_555 1_555
H7 C11 1_555 1_555
C2J C3 1_555 1_555
C1J N1 1_555 1_555
H1J C1J 1_555 1_555
H2J C2J 1_555 1_555
C10B C5 1_555 1_555
C4B C10B 1_555 1_555
C3B C4B 1_555 1_555
C2B C3B 1_555 1_555
C1B C2B 1_555 1_555
N1B C1B 1_555 1_555
C1H N1B 1_555 1_555
C2H C3B 1_555 1_555
H2H C2H 1_555 1_555
H1H C1H 1_555 1_555
H1B C1B 1_555 1_555
H2B C2B 1_555 1_555
C5B C10 1_555 1_555
C6B C5B 1_555 1_555
C7B C6B 1_555 1_555
C8B C7B 1_555 1_555
C9B C10 1_555 1_555
H6B C9B 1_555 1_555
H5B C8B 1_555 1_555
H4B C7B 1_555 1_555
H3B C6B 1_555 1_555
I1C Cd1 1_555 1_555
N1C Cd1 1_555 1_555
Cd1A N1B 1_555 1_555
C11J C11 1_555 1_555
C12J C11J 1_555 1_555
C11H C12J 1_555 1_555
C11B C12 1_555 1_555
H7B C11B 1_555 1_555
H7H C11H 1_555 1_555
H8J C12J 1_555 1_555
H7J C11J 1_555 1_555
C1 N1 1_555 1_555
C9 C10B 1_555 1_555
C2J C1J 1_555 1_555
C4B C5B 1_555 1_555
C1H C2H 1_555 1_555
C8B C9B 1_555 1_555
C11H C11B 1_555 1_555

#END
