
#######################################################################
#
#                 Cambridge Crystallographic Data Centre
#                                CCDC 
#
#######################################################################
#
# If this CIF has been generated from an entry in the Cambridge 
# Structural Database, then it will include bibliographic, chemical, 
# crystal, experimental, refinement or atomic coordinate data resulting 
# from the CCDC's data processing and validation procedures.
#
#######################################################################

data_IPUCUR
_symmetry_cell_setting           triclinic
_symmetry_space_group_name_H-M   'P -1'
_symmetry_Int_Tables_number      2
_space_group_name_Hall           '-P 1'
loop_
_symmetry_equiv_pos_site_id
_symmetry_equiv_pos_as_xyz
1 x,y,z
2 -x,-y,-z
_cell_length_a                   7.8702(6)
_cell_length_b                   14.1115(10)
_cell_length_c                   14.4748(10)
_cell_angle_alpha                70.4110(10)
_cell_angle_beta                 87.3290(10)
_cell_angle_gamma                87.9460(10)
_cell_volume                     1512.54
loop_
_atom_site_label
_atom_site_type_symbol
_atom_site_fract_x
_atom_site_fract_y
_atom_site_fract_z
Cd1 Cd 0.5000 -1.0000 0.5000
I1 I 0.2587(1) -0.8721(1) 0.3620(1)
N1 N 0.3433(2) -0.9823(1) 0.6383(1)
C1 C 0.4139(3) -0.9455(2) 0.7014(2)
C2 C 0.3334(3) -0.9458(2) 0.7887(2)
C3 C 0.1728(3) -0.9871(2) 0.8145(2)
C4 C 0.1002(3) -1.0253(2) 0.7488(2)
C5 C 0.1884(3) -1.0206(2) 0.6623(2)
C6 C 0.0848(3) -0.9933(2) 0.9097(2)
C7 C -0.0665(3) -0.9371(2) 0.9099(2)
C8 C 0.1530(3) -1.0563(2) 0.9980(2)
C9 C -0.1377(3) -0.8708(2) 0.8213(2)
C10 C -0.2811(3) -0.8157(2) 0.8236(2)
C11 C -0.3650(3) -0.8203(2) 0.9132(2)
C12 C 0.3024(3) -1.1176(2) 1.0003(2)
N2 N 0.6657(2) -0.8522(1) 0.4960(1)
C13 C 0.5943(3) -0.7601(2) 0.4611(2)
C14 C 0.6738(3) -0.6740(2) 0.4617(2)
C15 C 0.8353(3) -0.6806(2) 0.4988(2)
C16 C 0.9097(3) -0.7765(2) 0.5346(2)
C17 C 0.8216(3) -0.8591(2) 0.5313(2)
C18 C 0.9215(3) -0.5890(2) 0.5004(2)
C19 C 0.8479(3) -0.5330(2) 0.5566(2)
C20 C 1.0723(3) -0.5576(2) 0.4439(2)
C21 C 0.6989(3) -0.5650(2) 0.6189(2)
C22 C 0.6331(3) -0.5126(2) 0.6765(2)
C23 C 0.7096(3) -0.4219(2) 0.6740(2)
C24 C 1.1487(3) -0.6114(2) 0.3842(2)
H1 H 0.5242 -0.9180 0.6855
H2 H 0.3875 -0.9179 0.8307
H3 H -0.0090 -1.0544 0.7632
H4 H 0.1359 -1.0459 0.6178
H5 H -0.0831 -0.8655 0.7599
H6 H -0.3262 -0.7730 0.7637
H7 H -0.4648 -0.7805 0.9135
H8 H 0.3595 -1.1152 0.9403
H9 H 0.4844 -0.7533 0.4348
H10 H 0.6176 -0.6103 0.4367
H11 H 1.0197 -0.7855 0.5611
H12 H 0.8750 -0.9237 0.5553
H13 H 0.6445 -0.6244 0.6201
H14 H 0.5360 -0.5366 0.7183
H15 H 0.6618 -0.3845 0.7129
H16 H 1.0993 -0.6722 0.3850
C8A C -0.1530(3) -0.9437(2) 1.0020(2)
C6A C -0.0848(3) -1.0067(2) 1.0903(2)
C3A C -0.1728(3) -1.0129(2) 1.1855(2)
C2A C -0.3334(3) -1.0542(2) 1.2113(2)
C1A C -0.4139(3) -1.0545(2) 1.2986(2)
N1A N -0.3433(2) -1.0177(1) 1.3617(1)
C5A C -0.1884(3) -0.9794(2) 1.3377(2)
C4A C -0.1002(3) -0.9747(2) 1.2512(2)
H3A H 0.0090 -0.9456 1.2368
H4A H -0.1359 -0.9541 1.3822
H1A H -0.5242 -1.0820 1.3145
H2A H -0.3875 -1.0821 1.1693
C7A C 0.0665(3) -1.0629(2) 1.0901(2)
C11A C 0.3650(3) -1.1797(2) 1.0868(2)
C10A C 0.2811(3) -1.1843(2) 1.1764(2)
C9A C 0.1377(3) -1.1292(2) 1.1787(2)
H5A H 0.0831 -1.1345 1.2401
H6A H 0.3262 -1.2270 1.2363
H7A H 0.4648 -1.2195 1.0865
C12A C -0.3024(3) -0.8824(2) 0.9997(2)
H8A H -0.3595 -0.8848 1.0597
C20A C 0.9277(3) -0.4424(2) 0.5561(2)
C18A C 1.0785(3) -0.4110(2) 0.4996(2)
C15A C 1.1647(3) -0.3194(2) 0.5012(2)
C14A C 1.3262(3) -0.3260(2) 0.5383(2)
C13A C 1.4057(3) -0.2399(2) 0.5389(2)
N2A N 1.3343(2) -0.1478(1) 0.5040(1)
C17A C 1.1784(3) -0.1409(2) 0.4687(2)
C16A C 1.0903(3) -0.2235(2) 0.4654(2)
H11A H 0.9803 -0.2145 0.4389
H12A H 1.1250 -0.0763 0.4447
H9A H 1.5156 -0.2467 0.5652
H10A H 1.3824 -0.3897 0.5633
C19A C 1.1521(3) -0.4670(2) 0.4434(2)
C23A C 1.2904(3) -0.5781(2) 0.3260(2)
C22A C 1.3669(3) -0.4874(2) 0.3235(2)
C21A C 1.3011(3) -0.4350(2) 0.3811(2)
H13A H 1.3555 -0.3756 0.3799
H14A H 1.4640 -0.4634 0.2817
H15A H 1.3382 -0.6155 0.2871
C24A C 0.8513(3) -0.3886(2) 0.6158(2)
H16A H 0.9007 -0.3278 0.6150
I1A I 0.7413(1) -1.1279(1) 0.6380(1)
N1A_2 N 0.6567(2) -1.0177(1) 0.3617(1)
N2A_2 N 0.3343(2) -1.1478(1) 0.5040(1)
Cd1_2 Cd -0.5000 -1.0000 1.5000
Cd1_3 Cd 1.5000 0.0000 0.5000
Si1 Si -0.8162(1) -0.6239(1) 0.8803(1)
O1 O -0.7262(2) -0.6749(1) 0.8042(1)
O2 O -1.0191(2) -0.6316(2) 0.8708(2)
O3 O -0.7482(3) -0.6862(2) 0.9883(1)
C25 C -0.7858(4) -0.6598(2) 0.7089(2)
C26 C -1.1463(4) -0.6001(3) 0.9287(2)
C27 C -0.7924(5) -0.7873(3) 1.0425(2)
C28 C -0.7544(3) -0.4917(2) 0.8536(2)
C29 C -0.8599(4) -0.4121(2) 0.7997(2)
C30 C -0.8146(4) -0.3123(2) 0.7777(2)
C31 C -0.6633(4) -0.2901(2) 0.8094(2)
C32 C -0.5577(3) -0.3666(2) 0.8632(2)
C33 C -0.6023(3) -0.4659(2) 0.8848(2)
H17 H -0.7127 -0.6978 0.6765
H18 H -0.7828 -0.5880 0.6701
H19 H -0.9028 -0.6831 0.7144
H20 H -1.2594 -0.6121 0.9098
H21 H -1.1350 -0.5282 0.9178
H22 H -1.1318 -0.6383 0.9983
H23 H -0.7365 -0.8089 1.1056
H24 H -0.7551 -0.8313 1.0052
H25 H -0.9161 -0.7911 1.0542
H26 H -0.9646 -0.4266 0.7778
H27 H -0.8878 -0.2595 0.7409
H28 H -0.6319 -0.2220 0.7940
H29 H -0.4540 -0.3512 0.8855
H30 H -0.5279 -0.5178 0.9218
loop_
_geom_bond_atom_site_label_1
_geom_bond_atom_site_label_2
_geom_bond_site_symmetry_1
_geom_bond_site_symmetry_2
Cd1 I1 1_555 1_555
Si1 O1 1_555 1_555
N1 Cd1 1_555 1_555
C1 N1 1_555 1_555
C2 C1 1_555 1_555
C3 C2 1_555 1_555
C4 C3 1_555 1_555
C5 N1 1_555 1_555
C6 C3 1_555 1_555
C7 C6 1_555 1_555
C8 C6 1_555 1_555
C9 C7 1_555 1_555
C10 C9 1_555 1_555
C11 C10 1_555 1_555
C12 C8 1_555 1_555
N2 Cd1 1_555 1_555
C13 N2 1_555 1_555
C14 C13 1_555 1_555
C15 C14 1_555 1_555
C16 C15 1_555 1_555
C17 N2 1_555 1_555
C18 C15 1_555 1_555
C19 C18 1_555 1_555
C20 C18 1_555 1_555
C21 C19 1_555 1_555
C22 C21 1_555 1_555
C23 C22 1_555 1_555
C24 C20 1_555 1_555
O1 C25 1_555 1_555
O2 Si1 1_555 1_555
O3 Si1 1_555 1_555
C25 H17 1_555 1_555
C26 O2 1_555 1_555
C27 O3 1_555 1_555
C28 Si1 1_555 1_555
C29 C28 1_555 1_555
C30 C29 1_555 1_555
C31 C30 1_555 1_555
C32 C31 1_555 1_555
C33 C28 1_555 1_555
H1 C1 1_555 1_555
H2 C2 1_555 1_555
H3 C4 1_555 1_555
H4 C5 1_555 1_555
H5 C9 1_555 1_555
H6 C10 1_555 1_555
H7 C11 1_555 1_555
H8 C12 1_555 1_555
H9 C13 1_555 1_555
H10 C14 1_555 1_555
H11 C16 1_555 1_555
H12 C17 1_555 1_555
H13 C21 1_555 1_555
H14 C22 1_555 1_555
H15 C23 1_555 1_555
H16 C24 1_555 1_555
H18 C25 1_555 1_555
H19 C25 1_555 1_555
H20 C26 1_555 1_555
H21 C26 1_555 1_555
H22 C26 1_555 1_555
H23 C27 1_555 1_555
H24 C27 1_555 1_555
H25 C27 1_555 1_555
H26 C29 1_555 1_555
H27 C30 1_555 1_555
H28 C31 1_555 1_555
H29 C32 1_555 1_555
H30 C33 1_555 1_555
C8A C7 1_555 1_555
C6A C8A 1_555 1_555
C3A C6A 1_555 1_555
C2A C3A 1_555 1_555
C1A C2A 1_555 1_555
N1A C1A 1_555 1_555
C5A N1A 1_555 1_555
C4A C3A 1_555 1_555
H3A C4A 1_555 1_555
H4A C5A 1_555 1_555
H1A C1A 1_555 1_555
H2A C2A 1_555 1_555
C7A C8 1_555 1_555
C11A C12 1_555 1_555
C10A C11A 1_555 1_555
C9A C7A 1_555 1_555
H5A C9A 1_555 1_555
H6A C10A 1_555 1_555
H7A C11A 1_555 1_555
C12A C11 1_555 1_555
H8A C12A 1_555 1_555
C20A C19 1_555 1_555
C18A C20A 1_555 1_555
C15A C18A 1_555 1_555
C14A C15A 1_555 1_555
C13A C14A 1_555 1_555
N2A C13A 1_555 1_555
C17A N2A 1_555 1_555
C16A C15A 1_555 1_555
H11A C16A 1_555 1_555
H12A C17A 1_555 1_555
H9A C13A 1_555 1_555
H10A C14A 1_555 1_555
C19A C20 1_555 1_555
C23A C24 1_555 1_555
C22A C23A 1_555 1_555
C21A C19A 1_555 1_555
H13A C21A 1_555 1_555
H14A C22A 1_555 1_555
H15A C23A 1_555 1_555
C24A C23 1_555 1_555
H16A C24A 1_555 1_555
I1A Cd1 1_555 1_555
N1A_2 Cd1 1_555 1_555
N2A_2 Cd1 1_555 1_555
Cd1_2 N1A 1_555 1_555
Cd1_3 N2A 1_555 1_555
C4 C5 1_555 1_555
C16 C17 1_555 1_555
C32 C33 1_555 1_555
C8A C12A 1_555 1_555
C6A C7A 1_555 1_555
C5A C4A 1_555 1_555
C10A C9A 1_555 1_555
C20A C24A 1_555 1_555
C18A C19A 1_555 1_555
C17A C16A 1_555 1_555
C22A C21A 1_555 1_555

#END
