
#######################################################################
#
#                 Cambridge Crystallographic Data Centre
#                                CCDC 
#
#######################################################################
#
# If this CIF has been generated from an entry in the Cambridge 
# Structural Database, then it will include bibliographic, chemical, 
# crystal, experimental, refinement or atomic coordinate data resulting 
# from the CCDC's data processing and validation procedures.
#
#######################################################################

data_IPUCOL
_symmetry_cell_setting           orthorhombic
_symmetry_space_group_name_H-M   'P b c a'
_symmetry_Int_Tables_number      61
_space_group_name_Hall           '-P 2ac 2ab'
loop_
_symmetry_equiv_pos_site_id
_symmetry_equiv_pos_as_xyz
1 x,y,z
2 1/2-x,-y,1/2+z
3 1/2+x,1/2-y,-z
4 -x,1/2+y,1/2-z
5 -x,-y,-z
6 1/2+x,y,1/2-z
7 1/2-x,1/2+y,z
8 x,1/2-y,1/2+z
_cell_length_a                   12.543(5)
_cell_length_b                   21.774(10)
_cell_length_c                   24.837(8)
_cell_angle_alpha                90
_cell_angle_beta                 90
_cell_angle_gamma                90
_cell_volume                     6783.26
loop_
_atom_site_label
_atom_site_type_symbol
_atom_site_fract_x
_atom_site_fract_y
_atom_site_fract_z
Cd1 Cd 0.7854(1) 0.1573(1) 0.3607(1)
I1 I 0.6746(1) 0.1585(1) 0.2674(1)
I2 I 0.6965(1) 0.1543(1) 0.4589(1)
N1 N 0.9078(12) 0.2362(7) 0.3592(9)
C1 C 0.9411(17) 0.2619(11) 0.4016(11)
C2 C 1.0207(16) 0.3096(10) 0.4029(11)
C3 C 1.0620(14) 0.3257(8) 0.3526(9)
C4 C 1.0264(15) 0.2957(10) 0.3080(10)
C5 C 0.9498(16) 0.2538(10) 0.3105(11)
C6 C 1.1578(15) 0.3726(9) 0.3523(10)
C7 C 1.2586(14) 0.3503(9) 0.3448(8)
C8 C 1.3531(16) 0.3922(10) 0.3455(10)
C9 C 1.3244(13) 0.4558(8) 0.3496(8)
C10 C 1.2242(14) 0.4777(9) 0.3518(9)
C11 C 1.1339(15) 0.4355(9) 0.3523(11)
C12 C 1.2912(16) 0.2862(10) 0.3407(8)
C13 C 1.3868(15) 0.2628(10) 0.3382(9)
C14 C 1.4729(16) 0.3052(10) 0.3389(10)
C15 C 1.4491(16) 0.3658(10) 0.3403(9)
C16 C 1.0307(15) 0.4565(10) 0.3523(9)
C17 C 1.0054(17) 0.5224(10) 0.3545(9)
C18 C 1.0979(14) 0.5613(9) 0.3493(12)
C19 C 1.1998(16) 0.5382(9) 0.3512(10)
N2 N 1.5811(13) 0.5866(7) 0.3528(8)
C20 C 1.5389(17) 0.5641(10) 0.3993(10)
C21 C 1.4523(16) 0.5252(12) 0.3973(12)
C22 C 1.4172(15) 0.5026(9) 0.3522(11)
C23 C 1.4662(15) 0.5205(10) 0.3075(12)
C24 C 1.5497(15) 0.5629(11) 0.3076(11)
H1 H 0.9116 0.2488 0.4349
H2 H 1.0432 0.3287 0.4354
H3 H 1.0573 0.3051 0.2741
H4 H 0.9237 0.2358 0.2783
H5 H 1.2346 0.2573 0.3395
H6 H 1.3982 0.2198 0.3361
H7 H 1.5448 0.2915 0.3384
H8 H 1.5079 0.3931 0.3373
H9 H 0.9740 0.4276 0.3510
H10 H 0.9350 0.5378 0.3588
H11 H 1.0881 0.6042 0.3445
H12 H 1.2572 0.5667 0.3520
H13 H 1.5690 0.5753 0.4331
H14 H 1.4172 0.5145 0.4298
H15 H 1.4436 0.5038 0.2740
H16 H 1.5833 0.5743 0.2748
N2F N 0.9189(13) 0.0866(7) 0.3528(8)
Cd1F Cd 1.7146(1) 0.6573(1) 0.3607(1)
Si1 Si 0.7797(5) -0.1046(3) 0.4769(3)
O1 O 0.7070(13) -0.1629(8) 0.4908(8)
O2 O 0.9000(10) -0.1111(8) 0.4961(6)
O3 O 0.7449(12) -0.0422(8) 0.5064(8)
C25 C 0.7613(17) -0.0930(13) 0.4040(10)
C26 C 0.7539(16) -0.0374(15) 0.3753(10)
C27 C 0.7521(15) -0.0368(11) 0.3252(11)
C28 C 0.7544(15) -0.0866(13) 0.2905(8)
C29 C 0.7594(12) -0.1453(12) 0.3170(9)
C30 C 0.7650(13) -0.1468(14) 0.3715(9)
C31 C 0.7090(30) -0.1867(12) 0.5428(11)
C32 C 0.9704(18) -0.1616(12) 0.4826(9)
C33 C 0.6380(20) -0.0208(12) 0.5084(10)
H17 H 0.7502 0.0003 0.3945
H18 H 0.7487 0.0025 0.3088
H19 H 0.7529 -0.0824 0.2524
H20 H 0.7588 -0.1822 0.2967
H21 H 0.7716 -0.1855 0.3888
H22 H 0.7437 -0.2271 0.5423
H23 H 0.6362 -0.1908 0.5563
H24 H 0.7495 -0.1590 0.5663
H25 H 0.9300 -0.1935 0.4637
H26 H 1.0008 -0.1787 0.5157
H27 H 1.0280 -0.1467 0.4594
H28 H 0.6231 0.0049 0.4768
H29 H 0.6268 0.0034 0.5412
H30 H 0.5888 -0.0560 0.5085
loop_
_geom_bond_atom_site_label_1
_geom_bond_atom_site_label_2
_geom_bond_site_symmetry_1
_geom_bond_site_symmetry_2
Cd1 I1 1_555 1_555
I2 Cd1 1_555 1_555
N1 Cd1 1_555 1_555
C1 N1 1_555 1_555
C2 C1 1_555 1_555
C3 C2 1_555 1_555
C4 C3 1_555 1_555
C5 N1 1_555 1_555
C6 C3 1_555 1_555
C7 C6 1_555 1_555
C8 C7 1_555 1_555
C9 C8 1_555 1_555
C10 C9 1_555 1_555
C11 C6 1_555 1_555
C12 C7 1_555 1_555
C13 C12 1_555 1_555
C14 C13 1_555 1_555
C15 C8 1_555 1_555
C16 C11 1_555 1_555
C17 C16 1_555 1_555
C18 C17 1_555 1_555
C19 C10 1_555 1_555
N2 C20 1_555 1_555
C20 C21 1_555 1_555
C21 C22 1_555 1_555
C22 C9 1_555 1_555
C23 C22 1_555 1_555
C24 N2 1_555 1_555
H1 C1 1_555 1_555
H2 C2 1_555 1_555
H3 C4 1_555 1_555
H4 C5 1_555 1_555
H5 C12 1_555 1_555
H6 C13 1_555 1_555
H7 C14 1_555 1_555
H8 C15 1_555 1_555
H9 C16 1_555 1_555
H10 C17 1_555 1_555
H11 C18 1_555 1_555
H12 C19 1_555 1_555
H13 C20 1_555 1_555
H14 C21 1_555 1_555
H15 C23 1_555 1_555
H16 C24 1_555 1_555
Si1 O1 1_555 1_555
O1 C31 1_555 1_555
O2 Si1 1_555 1_555
O3 Si1 1_555 1_555
C25 Si1 1_555 1_555
C26 C25 1_555 1_555
C27 C26 1_555 1_555
C28 C27 1_555 1_555
C29 C28 1_555 1_555
C30 C25 1_555 1_555
C31 H22 1_555 1_555
C32 O2 1_555 1_555
C33 O3 1_555 1_555
H17 C26 1_555 1_555
H18 C27 1_555 1_555
H19 C28 1_555 1_555
H20 C29 1_555 1_555
H21 C30 1_555 1_555
H23 C31 1_555 1_555
H24 C31 1_555 1_555
H25 C32 1_555 1_555
H26 C32 1_555 1_555
H27 C32 1_555 1_555
H28 C33 1_555 1_555
H29 C33 1_555 1_555
H30 C33 1_555 1_555
N2F Cd1 1_555 1_555
Cd1F N2 1_555 1_555
C4 C5 1_555 1_555
C10 C11 1_555 1_555
C14 C15 1_555 1_555
C18 C19 1_555 1_555
C23 C24 1_555 1_555
C29 C30 1_555 1_555

#END
