
#######################################################################
#
#                 Cambridge Crystallographic Data Centre
#                                CCDC 
#
#######################################################################
#
# If this CIF has been generated from an entry in the Cambridge 
# Structural Database, then it will include bibliographic, chemical, 
# crystal, experimental, refinement or atomic coordinate data resulting 
# from the CCDC's data processing and validation procedures.
#
#######################################################################

data_IPUHUW
_symmetry_cell_setting           monoclinic
_symmetry_space_group_name_H-M   'P 21/c'
_symmetry_Int_Tables_number      14
_space_group_name_Hall           '-P 2ybc'
loop_
_symmetry_equiv_pos_site_id
_symmetry_equiv_pos_as_xyz
1 x,y,z
2 x,1/2-y,1/2+z
3 -x,-y,-z
4 -x,1/2+y,1/2-z
_cell_length_a                   14.9803(5)
_cell_length_b                   7.7142(2)
_cell_length_c                   13.4919(3)
_cell_angle_alpha                90
_cell_angle_beta                 108.3770(10)
_cell_angle_gamma                90
_cell_volume                     1479.63
loop_
_atom_site_label
_atom_site_type_symbol
_atom_site_fract_x
_atom_site_fract_y
_atom_site_fract_z
Cs1 Cs 0.044785(13) 0.71677(3) 0.910146(13)
C1 C 0.27433(19) 0.6518(4) 1.2133(2)
O1 O 0.13563(14) 0.5050(3) 1.11008(15)
C2 C 0.1729(2) 0.6068(4) 1.1824(2)
C3 C 0.4082(2) 0.7977(4) 1.3354(3)
C4 C 0.3146(2) 0.7500(4) 1.3047(3)
C5 C 0.3309(2) 0.6029(4) 1.1521(2)
C6 C 0.4257(2) 0.6563(5) 1.1846(3)
C7 C 0.4638(2) 0.7494(5) 1.2749(3)
O2 O 0.12552(17) 0.6850(4) 1.23470(19)
O3 O -0.04721(14) 0.8325(3) 0.67436(16)
O4 O -0.04594(17) 0.6265(3) 0.56032(19)
C8 C -0.0883(2) 0.7141(3) 0.6082(2)
C9 C -0.2320(2) 0.7683(4) 0.6598(3)
C10 C -0.1907(2) 0.6890(4) 0.5915(2)
C11 C -0.2478(2) 0.5862(4) 0.5083(2)
C12 C -0.3265(3) 0.7499(5) 0.6490(4)
C13 C -0.3443(3) 0.5704(5) 0.4992(3)
C14 C -0.3819(3) 0.6497(5) 0.5675(4)
N1 N 0.2949(2) 0.5139(4) 1.0601(2)
N2 N -0.2132(3) 0.5016(5) 0.4399(3)
H1 H -0.191(2) 0.829(4) 0.723(2)
H2 H 0.277(3) 0.784(4) 1.345(3)
H3 H 0.456(3) 0.628(5) 1.142(3)
H4 H 0.530(4) 0.781(6) 1.290(4)
H5 H 0.432(3) 0.867(6) 1.397(3)
H6 H 0.331(3) 0.473(7) 1.033(3)
H7 H -0.170(3) 0.513(6) 0.430(3)
H8 H -0.353(3) 0.805(6) 0.705(4)
H9 H 0.240(3) 0.463(6) 1.053(3)
H10 H -0.375(4) 0.497(8) 0.439(4)
H11 H -0.447(4) 0.644(9) 0.554(4)
H12 H -0.254(4) 0.435(9) 0.378(4)
H13 H 0.058(5) 0.695(9) 1.195(6)
O1B O -0.13563(14) 0.4950(3) 0.88992(15)
O2A O 0.12552(17) 0.8150(4) 0.73470(19)
O3C O 0.04721(14) 0.3325(3) 0.82564(16)
O4A O -0.04594(17) 0.8735(3) 1.06032(19)
O4C O 0.04594(17) 1.1265(3) 0.93968(19)
N2C N 0.2132(3) 1.0016(5) 1.0601(3)
Cs1B Cs -0.044785(13) 0.28323(3) 1.089854(13)
Cs1A Cs 0.044785(13) 0.78323(3) 1.410146(13)
Cs1C Cs -0.044785(13) 1.21677(3) 0.589854(13)
Cs1A_2 Cs 0.044785(13) 0.78323(3) 0.410146(13)
Cs1C_2 Cs -0.044785(13) 0.21677(3) 0.589854(13)
H13A H 0.058(5) 0.805(9) 0.695(6)
H7C H 0.170(3) 1.013(6) 1.070(3)
H12C H 0.254(4) 0.935(9) 1.122(4)
loop_
_geom_bond_atom_site_label_1
_geom_bond_atom_site_label_2
_geom_bond_site_symmetry_1
_geom_bond_site_symmetry_2
Cs1 O1 1_555 1_555
C1 C2 1_555 1_555
O1 C2 1_555 1_555
C2 O2 1_555 1_555
C3 C4 1_555 1_555
C4 C1 1_555 1_555
C5 C1 1_555 1_555
C6 C5 1_555 1_555
C7 C3 1_555 1_555
O2 H13 1_555 1_555
O3 Cs1 1_555 1_555
O4 C8 1_555 1_555
C8 O3 1_555 1_555
C9 C10 1_555 1_555
C10 C8 1_555 1_555
C11 C10 1_555 1_555
C12 C9 1_555 1_555
C13 C11 1_555 1_555
C14 C12 1_555 1_555
N1 C5 1_555 1_555
N2 C11 1_555 1_555
H1 C9 1_555 1_555
H2 C4 1_555 1_555
H3 C6 1_555 1_555
H4 C7 1_555 1_555
H5 C3 1_555 1_555
H6 N1 1_555 1_555
H7 N2 1_555 1_555
H8 C12 1_555 1_555
H9 N1 1_555 1_555
H10 C13 1_555 1_555
H11 C14 1_555 1_555
H12 N2 1_555 1_555
O1B Cs1 1_555 1_555
O2A Cs1 1_555 1_555
O3C Cs1 1_555 1_555
O4A Cs1 1_555 1_555
O4C Cs1 1_555 1_555
N2C Cs1 1_555 1_555
Cs1B O1 1_555 1_555
Cs1A O2 1_555 1_555
Cs1C O3 1_555 1_555
Cs1A_2 O4 1_555 1_555
Cs1C_2 O4 1_555 1_555
H13A O2A 1_555 1_555
H7C N2C 1_555 1_555
H12C N2C 1_555 1_555
C6 C7 1_555 1_555
C13 C14 1_555 1_555
N2 Cs1C_2 1_555 1_555
O1B Cs1B 1_555 1_555
O3C Cs1C_2 1_555 1_555

#END
