
#######################################################################
#
#                 Cambridge Crystallographic Data Centre
#                                CCDC 
#
#######################################################################
#
# If this CIF has been generated from an entry in the Cambridge 
# Structural Database, then it will include bibliographic, chemical, 
# crystal, experimental, refinement or atomic coordinate data resulting 
# from the CCDC's data processing and validation procedures.
#
#######################################################################

data_IPUJEJ
_symmetry_cell_setting           monoclinic
_symmetry_space_group_name_H-M   'P 21/c'
_symmetry_Int_Tables_number      14
_space_group_name_Hall           '-P 2ybc'
loop_
_symmetry_equiv_pos_site_id
_symmetry_equiv_pos_as_xyz
1 x,y,z
2 -x,1/2+y,1/2-z
3 -x,-y,-z
4 x,1/2-y,1/2+z
_cell_length_a                   14.034(3)
_cell_length_b                   9.4869(19)
_cell_length_c                   14.579(3)
_cell_angle_alpha                90
_cell_angle_beta                 118.29(3)
_cell_angle_gamma                90
_cell_volume                     1709.2
loop_
_atom_site_label
_atom_site_type_symbol
_atom_site_fract_x
_atom_site_fract_y
_atom_site_fract_z
Cd1 Cd 0.0000 -0.5000 0.0000
Cl1 Cl -0.07713(4) -0.53585(5) 0.13272(3)
N1 N 0.28931(11) -0.93574(16) -0.06511(11)
N2 N 0.16809(12) -1.40428(16) 0.13704(12)
N3 N 0.46996(11) -1.18400(17) 0.14928(11)
N4 N 0.06722(12) -0.73054(16) 0.03588(11)
C1 C 0.29114(14) -0.78484(19) -0.08635(14)
H1 H 0.2845 -0.7314 -0.0329
H2 H 0.2289 -0.7628 -0.1527
C2 C 0.09804(13) -0.79163(19) -0.02895(13)
H3 H 0.0902 -0.7408 -0.0866
C3 C 0.38458(13) -1.13687(19) 0.04748(12)
H4 H 0.3163 -1.1781 0.0352
H5 H 0.4007 -1.1710 -0.0064
C4 C 0.35087(14) -1.3283(2) 0.19047(13)
C5 C 0.37272(15) -0.9781(2) 0.03908(14)
H6 H 0.3534 -0.9437 0.0908
H7 H 0.4413 -0.9360 0.0533
C6 C 0.14101(13) -0.92672(18) -0.01447(12)
C7 C 0.25899(14) -1.4053(2) 0.12734(14)
H8 H 0.2600 -1.4609 0.0753
C8 C 0.15012(16) -1.00225(17) 0.07135(15)
H9 H 0.1778 -1.0934 0.0836
C9 C 0.57942(13) -1.1687(2) 0.16051(13)
H10 H 0.6315 -1.1889 0.2323
H11 H 0.5893 -1.0711 0.1472
C10 C 0.17953(15) -0.98323(18) -0.08842(14)
H12 H 0.1789 -1.0854 -0.0864
H13 H 0.1287 -0.9543 -0.1587
C11 C 0.39388(15) -0.7379(2) -0.08966(14)
H14 H 0.4542 -0.7400 -0.0196
H15 H 0.3848 -0.6413 -0.1143
C12 C 0.16768(14) -1.3251(2) 0.21285(13)
H16 H 0.1058 -1.3242 0.2209
C13 C 0.34787(15) -1.2451(2) 0.26803(13)
H17 H 0.4074 -1.1906 0.3114
C14 C 0.25572(15) -1.2441(2) 0.28007(13)
H18 H 0.2528 -1.1903 0.3321
C15 C 0.11765(15) -0.9409(2) 0.13850(14)
H19 H 0.1231 -0.9901 0.1959
C16 C 0.07697(14) -0.8047(2) 0.11820(13)
H20 H 0.0556 -0.7633 0.1634
C17 C 0.44818(14) -1.3276(2) 0.17221(14)
H21 H 0.5108 -1.3629 0.2336
H22 H 0.4350 -1.3892 0.1143
Cd1_2 Cd 0.0000 -1.5000 0.0000
Cd1_3 Cd 1.0000 -1.5000 0.0000
Cd1_4 Cd 1.0000 -0.5000 0.0000
Cl1B Cl 0.07713(4) -0.46415(5) -0.13272(3)
N1B N 0.71069(11) -1.06426(16) 0.06511(11)
N2B N 0.83191(12) -0.59572(16) -0.13704(12)
N2_2 N 0.16809(12) -0.40428(16) 0.13704(12)
N2B_2 N -0.16809(12) -0.59572(16) -0.13704(12)
N3B N 0.53004(11) -0.81600(17) -0.14928(11)
N4B N 0.93278(12) -1.26946(16) -0.03588(11)
N4B_2 N -0.06722(12) -0.26946(16) -0.03588(11)
C1B C 0.70886(14) -1.21516(19) 0.08635(14)
H1B H 0.7155 -1.2686 0.0329
H2B H 0.7711 -1.2372 0.1527
C2B C 0.90196(13) -1.20837(19) 0.02895(13)
H3B H 0.9098 -1.2592 0.0866
C3B C 0.61542(13) -0.86313(19) -0.04748(12)
H4B H 0.6837 -0.8219 -0.0352
H5B H 0.5993 -0.8290 0.0064
C4B C 0.64913(14) -0.6717(2) -0.19047(13)
C5B C 0.62728(15) -1.0219(2) -0.03908(14)
H6B H 0.6466 -1.0563 -0.0908
H7B H 0.5587 -1.0640 -0.0533
C6B C 0.85899(13) -1.07328(18) 0.01447(12)
C7B C 0.74101(14) -0.5947(2) -0.12734(14)
H8B H 0.7400 -0.5391 -0.0753
C8B C 0.84988(16) -0.99775(17) -0.07135(15)
H9B H 0.8222 -0.9066 -0.0836
C9B C 0.42058(13) -0.8313(2) -0.16051(13)
H10B H 0.3685 -0.8111 -0.2323
H11B H 0.4107 -0.9289 -0.1472
C10B C 0.82047(15) -1.01677(18) 0.08842(14)
H12B H 0.8211 -0.9146 0.0864
H13B H 0.8713 -1.0457 0.1587
C11B C 0.60612(15) -1.2621(2) 0.08966(14)
H14B H 0.5458 -1.2600 0.0196
H15B H 0.6152 -1.3587 0.1143
C12B C 0.83232(14) -0.6749(2) -0.21285(13)
H16B H 0.8942 -0.6758 -0.2209
C13B C 0.65213(15) -0.7549(2) -0.26803(13)
H17B H 0.5926 -0.8094 -0.3114
C14B C 0.74428(15) -0.7559(2) -0.28007(13)
H18B H 0.7472 -0.8097 -0.3321
C15B C 0.88235(15) -1.0591(2) -0.13850(14)
H19B H 0.8769 -1.0099 -0.1959
C16B C 0.92303(14) -1.1953(2) -0.11820(13)
H20B H 0.9444 -1.2367 -0.1634
C17B C 0.55182(14) -0.6724(2) -0.17221(14)
H21B H 0.4892 -0.6371 -0.2336
H22B H 0.5650 -0.6108 -0.1143
loop_
_geom_bond_atom_site_label_1
_geom_bond_atom_site_label_2
_geom_bond_site_symmetry_1
_geom_bond_site_symmetry_2
Cd1 Cl1 1_555 1_555
N1 C1 1_555 1_555
N2 C7 1_555 1_555
N3 C3 1_555 1_555
N4 Cd1 1_555 1_555
C1 H1 1_555 1_555
H2 C1 1_555 1_555
C2 N4 1_555 1_555
H3 C2 1_555 1_555
C3 H4 1_555 1_555
H5 C3 1_555 1_555
C4 C7 1_555 1_555
C5 N1 1_555 1_555
H6 C5 1_555 1_555
H7 C5 1_555 1_555
C6 C2 1_555 1_555
C7 H8 1_555 1_555
C8 C6 1_555 1_555
H9 C8 1_555 1_555
C9 N3 1_555 1_555
H10 C9 1_555 1_555
H11 C9 1_555 1_555
C10 N1 1_555 1_555
H12 C10 1_555 1_555
H13 C10 1_555 1_555
C11 C1 1_555 1_555
H14 C11 1_555 1_555
H15 C11 1_555 1_555
C12 N2 1_555 1_555
H16 C12 1_555 1_555
C13 C4 1_555 1_555
H17 C13 1_555 1_555
C14 C12 1_555 1_555
H18 C14 1_555 1_555
C15 C8 1_555 1_555
H19 C15 1_555 1_555
C16 N4 1_555 1_555
H20 C16 1_555 1_555
C17 N3 1_555 1_555
H21 C17 1_555 1_555
H22 C17 1_555 1_555
Cd1_2 N2 1_555 1_555
Cd1_3 N4B 1_555 1_555
Cd1_4 N2B 1_555 1_555
Cl1B Cd1 1_555 1_555
N1B C1B 1_555 1_555
N2B C7B 1_555 1_555
N2_2 Cd1 1_555 1_555
N2B_2 Cd1 1_555 1_555
N3B C3B 1_555 1_555
N4B C2B 1_555 1_555
N4B_2 Cd1 1_555 1_555
C1B H1B 1_555 1_555
H2B C1B 1_555 1_555
C2B H3B 1_555 1_555
C3B H4B 1_555 1_555
H5B C3B 1_555 1_555
C4B C7B 1_555 1_555
C5B N1B 1_555 1_555
H6B C5B 1_555 1_555
H7B C5B 1_555 1_555
C6B C2B 1_555 1_555
C7B H8B 1_555 1_555
C8B C6B 1_555 1_555
H9B C8B 1_555 1_555
C9B C11 1_555 1_555
H10B C9B 1_555 1_555
H11B C9B 1_555 1_555
C10B N1B 1_555 1_555
H12B C10B 1_555 1_555
H13B C10B 1_555 1_555
C11B C9 1_555 1_555
H14B C11B 1_555 1_555
H15B C11B 1_555 1_555
C12B N2B 1_555 1_555
H16B C12B 1_555 1_555
C13B C4B 1_555 1_555
H17B C13B 1_555 1_555
C14B C12B 1_555 1_555
H18B C14B 1_555 1_555
C15B C8B 1_555 1_555
H19B C15B 1_555 1_555
C16B N4B 1_555 1_555
H20B C16B 1_555 1_555
C17B N3B 1_555 1_555
H21B C17B 1_555 1_555
H22B C17B 1_555 1_555
C3 C5 1_555 1_555
C4 C17 1_555 1_555
C6 C10 1_555 1_555
C13 C14 1_555 1_555
C15 C16 1_555 1_555
N3B C9B 1_555 1_555
C1B C11B 1_555 1_555
C3B C5B 1_555 1_555
C4B C17B 1_555 1_555
C6B C10B 1_555 1_555
C13B C14B 1_555 1_555
C15B C16B 1_555 1_555

#END
