
#######################################################################
#
#                 Cambridge Crystallographic Data Centre
#                                CCDC 
#
#######################################################################
#
# If this CIF has been generated from an entry in the Cambridge 
# Structural Database, then it will include bibliographic, chemical, 
# crystal, experimental, refinement or atomic coordinate data resulting 
# from the CCDC's data processing and validation procedures.
#
#######################################################################

data_IPUJIN
_symmetry_cell_setting           monoclinic
_symmetry_space_group_name_H-M   'P 21/c'
_symmetry_Int_Tables_number      14
_space_group_name_Hall           '-P 2ybc'
loop_
_symmetry_equiv_pos_site_id
_symmetry_equiv_pos_as_xyz
1 x,y,z
2 -x,1/2+y,1/2-z
3 -x,-y,-z
4 x,1/2-y,1/2+z
_cell_length_a                   13.482(3)
_cell_length_b                   9.4910(19)
_cell_length_c                   15.441(6)
_cell_angle_alpha                90
_cell_angle_beta                 120.98(2)
_cell_angle_gamma                90
_cell_volume                     1693.94
loop_
_atom_site_label
_atom_site_type_symbol
_atom_site_fract_x
_atom_site_fract_y
_atom_site_fract_z
Cd1 Cd 0.0000 0.0000 -0.5000
O1 O 0.0699(2) -0.2035(3) -0.2401(2)
O2 O 0.0286(2) -0.0247(2) -0.33804(16)
O3 O 0.1822(3) -0.0260(3) -0.1893(2)
N1 N 0.18331(19) -0.0857(2) -0.44783(16)
N2 N 0.48163(18) -0.3015(2) -0.15885(16)
N3 N 0.92783(19) -0.2254(2) 0.45583(16)
N4 N 0.70991(18) -0.4270(2) 0.14789(15)
N5 N 0.0958(2) -0.0858(2) -0.25613(17)
C1 C 0.5904(2) -0.3135(3) -0.06110(19)
H1 H 0.6530 -0.2838 -0.0706
H2 H 0.6028 -0.4123 -0.0424
C2 C 0.3844(2) -0.3593(3) -0.15735(19)
H3 H 0.3139 -0.3241 -0.2153
H4 H 0.3861 -0.3267 -0.0970
C3 C 0.4585(2) -0.1565(3) -0.19869(19)
H5 H 0.5293 -0.1143 -0.1883
H6 H 0.4308 -0.1002 -0.1630
C4 C 0.3683(2) -0.1588(3) -0.31051(18)
C5 C 0.2686(2) -0.0814(3) -0.34932(19)
H7 H 0.2589 -0.0230 -0.3059
C6 C 0.1972(2) -0.1672(3) -0.51032(19)
H8 H 0.1395 -0.1697 -0.5782
C7 C 0.2937(2) -0.2477(3) -0.4778(2)
H9 H 0.3019 -0.3042 -0.5229
C8 C 0.3798(2) -0.2443(3) -0.3766(2)
H10 H 0.4454 -0.3001 -0.3534
C9 C 0.6000(2) -0.2313(3) 0.02715(19)
H11 H 0.5294 -0.2443 0.0285
H12 H 0.6068 -0.1319 0.0167
C10 C 0.7030(2) -0.2751(3) 0.12949(19)
H13 H 0.7737 -0.2442 0.1334
H14 H 0.6977 -0.2273 0.1825
C11 C 0.3813(2) -0.5184(3) -0.1591(2)
H15 H 0.3715 -0.5513 -0.2225
H16 H 0.4546 -0.5542 -0.1049
C12 C 0.8250(2) -0.4685(3) 0.2317(2)
H17 H 0.8827 -0.4347 0.2169
H18 H 0.8292 -0.5705 0.2340
C13 C 0.8563(2) -0.4154(3) 0.33486(18)
C14 C 0.8385(2) -0.4947(3) 0.4007(2)
H19 H 0.8094 -0.5858 0.3835
C15 C 0.8643(2) -0.4377(3) 0.4920(2)
H20 H 0.8517 -0.4897 0.5365
C16 C 0.9087(2) -0.3038(3) 0.51712(19)
H21 H 0.9259 -0.2666 0.5791
C17 C 0.9019(2) -0.2822(3) 0.36697(18)
H22 H 0.9155 -0.2280 0.3240
Cd1_2 Cd 0.0000 -1.0000 -0.5000
Cd1_3 Cd 1.0000 -1.0000 0.5000
Cd1_4 Cd 1.0000 0.0000 0.5000
O1B O -0.0699(2) 0.2035(3) -0.7599(2)
O2B O -0.0286(2) 0.0247(2) -0.66196(16)
O3B O -0.1822(3) 0.0260(3) -0.8107(2)
N1B N 0.81669(19) -0.9143(2) 0.44783(16)
N1B_2 N -0.18331(19) 0.0857(2) -0.55217(16)
N2B N 0.51837(18) -0.6985(2) 0.15885(16)
N3B N 0.07217(19) -0.7746(2) -0.45583(16)
N3_2 N -0.07217(19) -0.2254(2) -0.54417(16)
N3B_2 N 0.07217(19) 0.2254(2) -0.45583(16)
N4B N 0.29009(18) -0.5730(2) -0.14789(15)
N5B N -0.0958(2) 0.0858(2) -0.74387(17)
C1B C 0.4096(2) -0.6865(3) 0.06110(19)
H1B H 0.3470 -0.7162 0.0706
H2B H 0.3972 -0.5877 0.0424
C2B C 0.6156(2) -0.6407(3) 0.15735(19)
H3B H 0.6861 -0.6759 0.2153
H4B H 0.6139 -0.6733 0.0970
C3B C 0.5415(2) -0.8435(3) 0.19869(19)
H5B H 0.4707 -0.8857 0.1883
H6B H 0.5692 -0.8998 0.1630
C4B C 0.6317(2) -0.8412(3) 0.31051(18)
C5B C 0.7314(2) -0.9186(3) 0.34932(19)
H7B H 0.7411 -0.9770 0.3059
C6B C 0.8028(2) -0.8328(3) 0.51032(19)
H8B H 0.8605 -0.8303 0.5782
C7B C 0.7063(2) -0.7523(3) 0.4778(2)
H9B H 0.6981 -0.6958 0.5229
C8B C 0.6202(2) -0.7557(3) 0.3766(2)
H10B H 0.5546 -0.6999 0.3534
C9B C 0.4000(2) -0.7687(3) -0.02715(19)
H11B H 0.4706 -0.7557 -0.0285
H12B H 0.3932 -0.8681 -0.0167
C10B C 0.2970(2) -0.7249(3) -0.12949(19)
H13B H 0.2263 -0.7558 -0.1334
H14B H 0.3023 -0.7727 -0.1825
C11B C 0.6187(2) -0.4816(3) 0.1591(2)
H15B H 0.6285 -0.4487 0.2225
H16B H 0.5454 -0.4458 0.1049
C12B C 0.1750(2) -0.5315(3) -0.2317(2)
H17B H 0.1173 -0.5653 -0.2169
H18B H 0.1708 -0.4295 -0.2340
C13B C 0.1437(2) -0.5846(3) -0.33486(18)
C14B C 0.1615(2) -0.5053(3) -0.4007(2)
H19B H 0.1906 -0.4142 -0.3835
C15B C 0.1357(2) -0.5623(3) -0.4920(2)
H20B H 0.1483 -0.5103 -0.5365
C16B C 0.0913(2) -0.6962(3) -0.51712(19)
H21B H 0.0741 -0.7334 -0.5791
C17B C 0.0981(2) -0.7178(3) -0.36697(18)
H22B H 0.0845 -0.7720 -0.3240
loop_
_geom_bond_atom_site_label_1
_geom_bond_atom_site_label_2
_geom_bond_site_symmetry_1
_geom_bond_site_symmetry_2
Cd1 O2 1_555 1_555
O1 N5 1_555 1_555
O2 N5 1_555 1_555
O3 N5 1_555 1_555
N1 Cd1 1_555 1_555
N2 C1 1_555 1_555
N3 C16 1_555 1_555
N4 C10 1_555 1_555
C1 H1 1_555 1_555
H2 C1 1_555 1_555
C2 N2 1_555 1_555
H3 C2 1_555 1_555
H4 C2 1_555 1_555
C3 N2 1_555 1_555
H5 C3 1_555 1_555
H6 C3 1_555 1_555
C4 C3 1_555 1_555
C5 N1 1_555 1_555
H7 C5 1_555 1_555
C6 N1 1_555 1_555
H8 C6 1_555 1_555
C7 C6 1_555 1_555
H9 C7 1_555 1_555
C8 C4 1_555 1_555
H10 C8 1_555 1_555
C9 C1 1_555 1_555
H11 C9 1_555 1_555
H12 C9 1_555 1_555
C10 C9 1_555 1_555
H13 C10 1_555 1_555
H14 C10 1_555 1_555
C11 C2 1_555 1_555
H15 C11 1_555 1_555
H16 C11 1_555 1_555
C12 N4 1_555 1_555
H17 C12 1_555 1_555
H18 C12 1_555 1_555
C13 C12 1_555 1_555
C14 C13 1_555 1_555
H19 C14 1_555 1_555
C15 C14 1_555 1_555
H20 C15 1_555 1_555
C16 C15 1_555 1_555
H21 C16 1_555 1_555
C17 N3 1_555 1_555
H22 C17 1_555 1_555
Cd1_2 N3B 1_555 1_555
Cd1_3 N1B 1_555 1_555
Cd1_4 N3 1_555 1_555
O1B N5B 1_555 1_555
O2B Cd1 1_555 1_555
O3B N5B 1_555 1_555
N1B C5B 1_555 1_555
N1B_2 Cd1 1_555 1_555
N2B C1B 1_555 1_555
N3B C16B 1_555 1_555
N3_2 Cd1 1_555 1_555
N3B_2 Cd1 1_555 1_555
N4B C11 1_555 1_555
N5B O2B 1_555 1_555
C1B H1B 1_555 1_555
H2B C1B 1_555 1_555
C2B N2B 1_555 1_555
H3B C2B 1_555 1_555
H4B C2B 1_555 1_555
C3B N2B 1_555 1_555
H5B C3B 1_555 1_555
H6B C3B 1_555 1_555
C4B C3B 1_555 1_555
C5B C4B 1_555 1_555
H7B C5B 1_555 1_555
C6B N1B 1_555 1_555
H8B C6B 1_555 1_555
C7B C6B 1_555 1_555
H9B C7B 1_555 1_555
C8B C4B 1_555 1_555
H10B C8B 1_555 1_555
C9B C1B 1_555 1_555
H11B C9B 1_555 1_555
H12B C9B 1_555 1_555
C10B N4B 1_555 1_555
H13B C10B 1_555 1_555
H14B C10B 1_555 1_555
C11B N4 1_555 1_555
H15B C11B 1_555 1_555
H16B C11B 1_555 1_555
C12B N4B 1_555 1_555
H17B C12B 1_555 1_555
H18B C12B 1_555 1_555
C13B C12B 1_555 1_555
C14B C13B 1_555 1_555
H19B C14B 1_555 1_555
C15B C14B 1_555 1_555
H20B C15B 1_555 1_555
C16B C15B 1_555 1_555
H21B C16B 1_555 1_555
C17B N3B 1_555 1_555
H22B C17B 1_555 1_555
C4 C5 1_555 1_555
C7 C8 1_555 1_555
C13 C17 1_555 1_555
C2B C11B 1_555 1_555
C7B C8B 1_555 1_555
C9B C10B 1_555 1_555
C13B C17B 1_555 1_555

#END
