
#######################################################################
#
#                 Cambridge Crystallographic Data Centre
#                                CCDC 
#
#######################################################################
#
# If this CIF has been generated from an entry in the Cambridge 
# Structural Database, then it will include bibliographic, chemical, 
# crystal, experimental, refinement or atomic coordinate data resulting 
# from the CCDC's data processing and validation procedures.
#
#######################################################################

data_IPULIO
_symmetry_cell_setting           triclinic
_symmetry_space_group_name_H-M   'P -1'
_symmetry_Int_Tables_number      2
_space_group_name_Hall           '-P 1'
loop_
_symmetry_equiv_pos_site_id
_symmetry_equiv_pos_as_xyz
1 x,y,z
2 -x,-y,-z
_cell_length_a                   5.5415(8)
_cell_length_b                   8.6382(13)
_cell_length_c                   16.794(2)
_cell_angle_alpha                87.694(2)
_cell_angle_beta                 80.859(2)
_cell_angle_gamma                76.005(2)
_cell_volume                     770.135
loop_
_atom_site_label
_atom_site_type_symbol
_atom_site_fract_x
_atom_site_fract_y
_atom_site_fract_z
Co1 Co 0.5000 0.5000 0.5000
P2 P 0.44893(8) 0.46755(5) 0.30465(2)
O3 O 0.5306(2) 0.62662(14) 0.28206(7)
H1 H 0.4208 0.7034 0.3046
O4 O 0.7033(2) 0.27002(14) 0.50209(7)
H2 H 0.7641 0.2254 0.5422
H3 H 0.7788 0.2164 0.4610
O5 O 0.6790(2) 0.33455(15) 0.26947(8)
H4 H 0.7291 0.2735 0.3068
O6 O 0.8092(2) 0.57407(15) 0.43343(8)
H5 H 0.9651 0.5370 0.4213
H6 H 0.7833 0.6648 0.4118
O8 O 0.3624(2) 0.45127(14) 0.39405(7)
C1 C 0.1114(4) 0.4984(2) 0.02189(11)
H10 H 0.1662 0.5990 0.0104
H11 H 0.2534 0.4094 0.0004
C2 C 0.2031(3) 0.4599(2) 0.24885(10)
H12 H 0.1564 0.3567 0.2599
H13 H 0.0534 0.5456 0.2684
C3 C 0.0505(4) 0.4785(2) 0.11317(11)
H14 H -0.0935 0.5664 0.1345
H15 H -0.0014 0.3770 0.1246
C8 C 0.2714(3) 0.4783(2) 0.15723(10)
H24 H 0.3246 0.5794 0.1457
H25 H 0.4151 0.3895 0.1367
C1A C -0.1114(4) 0.5016(2) -0.02189(11)
H10A H -0.1662 0.4010 -0.0104
H11A H -0.2534 0.5906 -0.0004
C3A C -0.0505(4) 0.5215(2) -0.11317(11)
H14A H 0.0935 0.4336 -0.1345
H15A H 0.0014 0.6230 -0.1246
C8A C -0.2714(3) 0.5217(2) -0.15723(10)
C2A C -0.2031(3) 0.5401(2) -0.24885(10)
P2A P -0.44893(8) 0.53245(5) -0.30465(2)
O3A O -0.5306(2) 0.37338(14) -0.28206(7)
H1A H -0.4208 0.2966 -0.3046
O5A O -0.6790(2) 0.66545(15) -0.26947(8)
H4A H -0.7291 0.7265 -0.3068
O8A O -0.3624(2) 0.54873(14) -0.39405(7)
H12A H -0.1564 0.6433 -0.2599
H13A H -0.0534 0.4544 -0.2684
H24A H -0.3246 0.4206 -0.1457
H25A H -0.4151 0.6105 -0.1367
O4A O 0.2967(2) 0.72998(14) 0.49791(7)
H2A H 0.2359 0.7746 0.4578
H3A H 0.2212 0.7836 0.5390
O6A O 0.1908(2) 0.42593(15) 0.56657(8)
H5A H 0.0349 0.4630 0.5787
H6A H 0.2167 0.3352 0.5882
O8A_2 O 0.6376(2) 0.54873(14) 0.60595(7)
Co1_2 Co -0.5000 0.5000 -0.5000
P1 P -0.06392(8) -0.04996(5) 0.33092(3)
O1 O -0.0935(2) 0.12263(14) 0.35647(7)
O2 O 0.1622(2) -0.16454(14) 0.35607(7)
O7 O -0.3050(2) -0.10895(15) 0.36776(8)
H7 H -0.4188 -0.0309 0.3872
C4 C 0.4850(4) 0.0013(3) 0.04614(11)
H16 H 0.6205 -0.0836 0.0641
H17 H 0.5057 0.1049 0.0634
C5 C 0.2052(4) -0.0197(2) 0.17944(11)
H18 H 0.2144 0.0870 0.1963
H19 H 0.3490 -0.0989 0.1967
C6 C -0.0410(4) -0.0559(2) 0.22292(11)
H20 H -0.0504 -0.1629 0.2067
H21 H -0.1855 0.0231 0.2060
C7 C 0.2312(4) -0.0231(2) 0.08753(11)
H22 H 0.2104 -0.1270 0.0707
H23 H 0.0953 0.0616 0.0697
C4A C 0.5150(4) -0.0013(3) -0.04614(11)
H16A H 0.3795 0.0836 -0.0641
H17A H 0.4943 -0.1049 -0.0634
C7A C 0.7688(4) 0.0231(2) -0.08753(11)
C5A C 0.7948(4) 0.0197(2) -0.17944(11)
H18A H 0.7856 -0.0870 -0.1963
H19A H 0.6510 0.0989 -0.1967
C6A C 1.0410(4) 0.0559(2) -0.22292(11)
P1A P 1.06392(8) 0.04996(5) -0.33092(3)
O1A O 1.0935(2) -0.12263(14) -0.35647(7)
O2A O 0.8378(2) 0.16454(14) -0.35607(7)
O7A O 1.3050(2) 0.10895(15) -0.36776(8)
H7A H 1.4188 0.0309 -0.3872
H20A H 1.0504 0.1629 -0.2067
H21A H 1.1855 -0.0231 -0.2060
H22A H 0.7896 0.1270 -0.0707
H23A H 0.9047 -0.0616 -0.0697
O9 O 0.3234(3) 0.11287(17) 0.43026(9)
H8 H 0.2013 0.1330 0.4045
H9 H 0.3360 0.2080 0.4272
loop_
_geom_bond_atom_site_label_1
_geom_bond_atom_site_label_2
_geom_bond_site_symmetry_1
_geom_bond_site_symmetry_2
Co1 O4 1_555 1_555
P1 O1 1_555 1_555
P2 O3 1_555 1_555
O2 P1 1_555 1_555
O3 H1 1_555 1_555
O4 H2 1_555 1_555
H3 O4 1_555 1_555
O5 P2 1_555 1_555
H4 O5 1_555 1_555
O6 Co1 1_555 1_555
H5 O6 1_555 1_555
H6 O6 1_555 1_555
O7 P1 1_555 1_555
H7 O7 1_555 1_555
O8 Co1 1_555 1_555
O9 H8 1_555 1_555
H9 O9 1_555 1_555
C1 H10 1_555 1_555
H11 C1 1_555 1_555
C2 P2 1_555 1_555
H12 C2 1_555 1_555
H13 C2 1_555 1_555
C3 C1 1_555 1_555
H14 C3 1_555 1_555
H15 C3 1_555 1_555
C4 H16 1_555 1_555
H17 C4 1_555 1_555
C5 H18 1_555 1_555
H19 C5 1_555 1_555
C6 P1 1_555 1_555
H20 C6 1_555 1_555
H21 C6 1_555 1_555
C7 C4 1_555 1_555
H22 C7 1_555 1_555
H23 C7 1_555 1_555
C8 C2 1_555 1_555
H24 C8 1_555 1_555
H25 C8 1_555 1_555
C4A C4 1_555 1_555
H16A C4A 1_555 1_555
H17A C4A 1_555 1_555
C7A C4A 1_555 1_555
C5A C7A 1_555 1_555
H18A C5A 1_555 1_555
H19A C5A 1_555 1_555
C6A C5A 1_555 1_555
P1A C6A 1_555 1_555
O1A P1A 1_555 1_555
O2A P1A 1_555 1_555
O7A P1A 1_555 1_555
H7A O7A 1_555 1_555
H20A C6A 1_555 1_555
H21A C6A 1_555 1_555
H22A C7A 1_555 1_555
H23A C7A 1_555 1_555
C1A C1 1_555 1_555
H10A C1A 1_555 1_555
H11A C1A 1_555 1_555
C3A C1A 1_555 1_555
H14A C3A 1_555 1_555
H15A C3A 1_555 1_555
C8A C3A 1_555 1_555
C2A C8A 1_555 1_555
P2A C2A 1_555 1_555
O3A P2A 1_555 1_555
H1A O3A 1_555 1_555
O5A P2A 1_555 1_555
H4A O5A 1_555 1_555
O8A P2A 1_555 1_555
H12A C2A 1_555 1_555
H13A C2A 1_555 1_555
H24A C8A 1_555 1_555
H25A C8A 1_555 1_555
O4A Co1 1_555 1_555
H2A O4A 1_555 1_555
H3A O4A 1_555 1_555
O6A Co1 1_555 1_555
H5A O6A 1_555 1_555
H6A O6A 1_555 1_555
O8A_2 Co1 1_555 1_555
Co1_2 O8A 1_555 1_555
P2 O8 1_555 1_555
C3 C8 1_555 1_555
C5 C6 1_555 1_555
C5 C7 1_555 1_555

#END
