
#######################################################################
#
#                 Cambridge Crystallographic Data Centre
#                                CCDC 
#
#######################################################################
#
# If this CIF has been generated from an entry in the Cambridge 
# Structural Database, then it will include bibliographic, chemical, 
# crystal, experimental, refinement or atomic coordinate data resulting 
# from the CCDC's data processing and validation procedures.
#
#######################################################################

data_IPURIV
_symmetry_cell_setting           monoclinic
_symmetry_space_group_name_H-M   'P 21/c'
_symmetry_Int_Tables_number      14
_space_group_name_Hall           '-P 2ybc'
loop_
_symmetry_equiv_pos_site_id
_symmetry_equiv_pos_as_xyz
1 x,y,z
2 -x,1/2+y,1/2-z
3 -x,-y,-z
4 x,1/2-y,1/2+z
_cell_length_a                   8.1301(8)
_cell_length_b                   10.7711(11)
_cell_length_c                   16.7697(16)
_cell_angle_alpha                90
_cell_angle_beta                 92.656(2)
_cell_angle_gamma                90
_cell_volume                     1466.95
loop_
_atom_site_label
_atom_site_type_symbol
_atom_site_fract_x
_atom_site_fract_y
_atom_site_fract_z
C1 C 1.1833(3) 1.4482(2) 0.91847(16)
H1 H 1.2003 1.5119 0.9554
N1 N 1.2741(2) 1.44715(18) 0.85428(11)
C2 C 1.2442(3) 1.3562(2) 0.80134(14)
H2 H 1.3034 1.3550 0.7552
O1 O 0.6939(3) 1.07598(16) 1.24287(10)
O2 O 0.6337(2) 0.46848(16) 0.89535(9)
H3 H 0.6664 0.4198 0.8595
H4 H 0.5964 0.4254 0.9329
O3 O 0.5174(2) 0.92023(15) 1.23360(9)
C3 C 0.6204(3) 0.9917(2) 1.20469(13)
Co1 Co 0.44971(4) 0.59073(3) 0.847760(16)
O4 O 0.5939(2) 0.74482(15) 0.87514(9)
O5 O 0.8691(2) 1.09528(15) 0.83793(10)
O6 O 0.24494(19) 0.69508(14) 0.80233(9)
H5 H 0.2085 0.6639 0.7584
H6 H 0.2749 0.7692 0.7936
O7 O 0.4467(2) 0.68219(14) 0.97285(9)
C4 C 0.5853(3) 0.8759(2) 1.07422(13)
H7 H 0.5135 0.8213 1.0978
C5 C 0.6211(3) 0.86131(19) 0.99479(12)
N2 N 0.8934(2) 1.13616(17) 0.97031(11)
H8 H 0.9418 1.1847 1.0047
C6 C 0.7912(3) 1.0437(2) 1.00214(12)
C7 C 0.7623(3) 1.0534(2) 1.08239(13)
H9 H 0.8146 1.1155 1.1126
C8 C 0.5492(3) 0.75644(19) 0.94569(13)
C9 C 0.6570(3) 0.97250(19) 1.11861(12)
C10 C 1.1303(3) 1.2647(2) 0.81200(13)
H10 H 1.1140 1.2029 0.7737
C11 C 1.0395(3) 1.2643(2) 0.87985(13)
C12 C 0.9247(3) 1.1580(2) 0.89395(13)
C13 C 0.7223(3) 0.9455(2) 0.95789(12)
H11 H 0.7438 0.9365 0.9042
C14 C 1.0661(3) 1.3605(2) 0.93315(15)
H12 H 1.0053 1.3658 0.9786
N1_2 N 0.2741(2) 0.44715(18) 0.85428(11)
O3C O 0.5174(2) 0.57977(15) 0.73360(9)
Co1_2 Co 1.44971(4) 1.59073(3) 0.847760(16)
Co1C Co 0.44971(4) 0.90927(3) 1.347760(16)
O8 O 0.9595(2) 0.7202(2) 0.89373(11)
H13 H 0.8613 0.7259 0.8745
H14 H 1.0243 0.7136 0.8556
loop_
_geom_bond_atom_site_label_1
_geom_bond_atom_site_label_2
_geom_bond_site_symmetry_1
_geom_bond_site_symmetry_2
C1 H1 1_555 1_555
N1 C1 1_555 1_555
C2 N1 1_555 1_555
H2 C2 1_555 1_555
O1 C3 1_555 1_555
O2 H3 1_555 1_555
H4 O2 1_555 1_555
O3 C3 1_555 1_555
C3 C9 1_555 1_555
Co1 O2 1_555 1_555
O4 Co1 1_555 1_555
O5 C12 1_555 1_555
O6 Co1 1_555 1_555
H5 O6 1_555 1_555
H6 O6 1_555 1_555
O7 Co1 1_555 1_555
C4 H7 1_555 1_555
C5 C4 1_555 1_555
N2 H8 1_555 1_555
C6 N2 1_555 1_555
C7 C6 1_555 1_555
H9 C7 1_555 1_555
C8 O4 1_555 1_555
C9 C4 1_555 1_555
C10 C2 1_555 1_555
H10 C10 1_555 1_555
C11 C10 1_555 1_555
C12 N2 1_555 1_555
C13 C5 1_555 1_555
H11 C13 1_555 1_555
C14 C1 1_555 1_555
H12 C14 1_555 1_555
O8 H13 1_555 1_555
H14 O8 1_555 1_555
N1_2 Co1 1_555 1_555
O3C Co1 1_555 1_555
Co1_2 N1 1_555 1_555
Co1C O3 1_555 1_555
O7 C8 1_555 1_555
C5 C8 1_555 1_555
C6 C13 1_555 1_555
C7 C9 1_555 1_555
C11 C12 1_555 1_555
C11 C14 1_555 1_555

#END
