
#######################################################################
#
#                 Cambridge Crystallographic Data Centre
#                                CCDC 
#
#######################################################################
#
# If this CIF has been generated from an entry in the Cambridge 
# Structural Database, then it will include bibliographic, chemical, 
# crystal, experimental, refinement or atomic coordinate data resulting 
# from the CCDC's data processing and validation procedures.
#
#######################################################################

data_IPUSOB
_symmetry_cell_setting           monoclinic
_symmetry_space_group_name_H-M   'P 21/c'
_symmetry_Int_Tables_number      14
_space_group_name_Hall           '-P 2ybc'
loop_
_symmetry_equiv_pos_site_id
_symmetry_equiv_pos_as_xyz
1 x,y,z
2 x,1/2-y,1/2+z
3 -x,-y,-z
4 -x,1/2+y,1/2-z
_cell_length_a                   20.326(4)
_cell_length_b                   6.9580(10)
_cell_length_c                   19.219(4)
_cell_angle_alpha                90
_cell_angle_beta                 117.19(3)
_cell_angle_gamma                90
_cell_volume                     2417.75
loop_
_atom_site_label
_atom_site_type_symbol
_atom_site_fract_x
_atom_site_fract_y
_atom_site_fract_z
I1 I 0.39873(2) 0.11688(7) 0.50962(2)
I2 I 1.10907(2) 0.44831(8) 1.27273(2)
Ca1 Ca 0.74517(6) 0.61074(17) 0.85379(7)
S1 S 0.69333(7) 0.1018(2) 0.76432(8)
S2 S 0.81681(8) 0.3093(2) 1.03438(8)
O1 O 0.7776(2) 0.3650(6) 0.9525(2)
O2 O 0.6868(2) 0.6495(6) 0.7108(2)
O3 O 0.7970(2) 0.1148(6) 1.0466(3)
O4 O 0.8021(2) 0.7644(6) 0.9872(2)
O5 O 0.8098(2) 0.4473(6) 1.0871(2)
O6 O 1.1364(2) 0.3525(6) 1.1235(2)
O7 O 0.6992(2) 0.0448(6) 0.6945(2)
O8 O 0.7213(2) 0.2938(6) 0.7902(2)
O9 O 0.7263(2) -0.0384(6) 0.8268(2)
O10 O 0.3705(2) 0.1169(6) 0.6609(2)
N1 N 1.0437(3) 0.2360(7) 0.9783(3)
N2 N 0.4628(3) 0.1176(7) 0.8140(3)
C1 C 1.0026(3) 0.1770(9) 0.9055(4)
C2 C 0.9271(3) 0.1495(8) 0.8782(4)
C3 C 0.8957(3) 0.1871(8) 0.9260(3)
C4 C 0.9118(3) 0.3045(8) 1.0576(3)
C5 C 0.9618(3) 0.3572(8) 1.1329(3)
C6 C 1.0375(3) 0.3688(9) 1.1582(3)
C7 C 1.0685(3) 0.3352(8) 1.1067(3)
C8 C 0.9391(3) 0.2556(8) 1.0035(3)
C9 C 1.0159(3) 0.2763(8) 1.0290(3)
C10 C 0.5041(4) 0.1198(9) 0.8909(4)
C11 C 0.5804(3) 0.1206(9) 0.9226(4)
C12 C 0.6133(3) 0.1181(8) 0.8742(3)
C13 C 0.5971(3) 0.1075(8) 0.7362(3)
C14 C 0.5478(3) 0.1100(8) 0.6567(3)
C15 C 0.4715(3) 0.1158(8) 0.6299(3)
C16 C 0.4394(3) 0.1156(8) 0.6808(3)
C17 C 0.5697(3) 0.1129(8) 0.7918(3)
C18 C 0.4922(3) 0.1151(8) 0.7627(3)
H1 H 0.41370 0.13220 0.79560
H2 H 0.69480 0.57210 0.68130
H3 H 0.48100 0.12230 0.92470
H4 H 0.68410 0.75600 0.68800
H5 H 0.61040 0.12150 0.97830
H6 H 0.80970 0.71580 1.03080
H7 H 0.66620 0.12070 0.89590
H8 H 0.79350 0.87580 0.99910
H9 H 0.56680 0.10760 0.61930
H10 H 1.09080 0.27430 0.99500
H11 H 1.02480 0.15360 0.87160
H12 H 0.89720 0.10380 0.82590
H13 H 0.84360 0.16720 0.90740
H14 H 0.94330 0.38710 1.16950
O6B O 0.8636(2) 0.6475(6) 0.8765(2)
O9_2 O 0.7263(2) 0.9616(6) 0.8268(2)
O10C O 0.6295(2) 0.6169(6) 0.8391(2)
Ca1B Ca 1.25483(6) 0.38926(17) 1.14621(7)
Ca1_2 Ca 0.74517(6) -0.38926(17) 0.85379(7)
Ca1C Ca 0.25483(6) 0.11074(17) 0.64621(7)
O11 O 0.6952(2) 1.3834(6) 0.6125(2)
H15 H 0.70750 1.27890 0.63820
H16 H 0.73140 1.38200 0.60180
loop_
_geom_bond_atom_site_label_1
_geom_bond_atom_site_label_2
_geom_bond_site_symmetry_1
_geom_bond_site_symmetry_2
I1 C15 1_555 1_555
I2 C6 1_555 1_555
Ca1 O1 1_555 1_555
S1 O7 1_555 1_555
S2 O1 1_555 1_555
O2 Ca1 1_555 1_555
O3 S2 1_555 1_555
O4 Ca1 1_555 1_555
O5 S2 1_555 1_555
O6 C7 1_555 1_555
O8 Ca1 1_555 1_555
O9 S1 1_555 1_555
O10 C16 1_555 1_555
N1 C1 1_555 1_555
N2 C10 1_555 1_555
C1 C2 1_555 1_555
C2 C3 1_555 1_555
C3 C8 1_555 1_555
C4 S2 1_555 1_555
C5 C4 1_555 1_555
C6 C5 1_555 1_555
C7 C6 1_555 1_555
C8 C4 1_555 1_555
C9 N1 1_555 1_555
C10 C11 1_555 1_555
C11 C12 1_555 1_555
C12 C17 1_555 1_555
C13 S1 1_555 1_555
C14 C13 1_555 1_555
C15 C14 1_555 1_555
C16 C15 1_555 1_555
C17 C13 1_555 1_555
C18 N2 1_555 1_555
O11 H15 1_555 1_555
H1 N2 1_555 1_555
H2 O2 1_555 1_555
H3 C10 1_555 1_555
H4 O2 1_555 1_555
H5 C11 1_555 1_555
H6 O4 1_555 1_555
H7 C12 1_555 1_555
H8 O4 1_555 1_555
H9 C14 1_555 1_555
H10 N1 1_555 1_555
H11 C1 1_555 1_555
H12 C2 1_555 1_555
H13 C3 1_555 1_555
H14 C5 1_555 1_555
H16 O11 1_555 1_555
O6B Ca1 1_555 1_555
O9_2 Ca1 1_555 1_555
O10C Ca1 1_555 1_555
Ca1B O6 1_555 1_555
Ca1_2 O9 1_555 1_555
Ca1C O10 1_555 1_555
S1 O8 1_555 1_555
C7 C9 1_555 1_555
C8 C9 1_555 1_555
C16 C18 1_555 1_555
C17 C18 1_555 1_555

#END
