
#######################################################################
#
#                 Cambridge Crystallographic Data Centre
#                                CCDC 
#
#######################################################################
#
# If this CIF has been generated from an entry in the Cambridge 
# Structural Database, then it will include bibliographic, chemical, 
# crystal, experimental, refinement or atomic coordinate data resulting 
# from the CCDC's data processing and validation procedures.
#
#######################################################################

data_IPUSER
_symmetry_cell_setting           monoclinic
_symmetry_space_group_name_H-M   'P 21/c'
_symmetry_Int_Tables_number      14
_space_group_name_Hall           '-P 2ybc'
loop_
_symmetry_equiv_pos_site_id
_symmetry_equiv_pos_as_xyz
1 x,y,z
2 x,1/2-y,1/2+z
3 -x,-y,-z
4 -x,1/2+y,1/2-z
_cell_length_a                   9.885(2)
_cell_length_b                   10.083(2)
_cell_length_c                   11.269(3)
_cell_angle_alpha                90
_cell_angle_beta                 101.14(2)
_cell_angle_gamma                90
_cell_volume                     1102.02
loop_
_atom_site_label
_atom_site_type_symbol
_atom_site_fract_x
_atom_site_fract_y
_atom_site_fract_z
K1 K 0.84921(7) -0.00150(7) -0.14905(6)
S1 S 0.87498(7) 0.22378(7) -0.41583(6)
O1 O 0.9203(2) 0.1988(2) -0.2864(2)
O2 O 0.8808(2) -0.1431(2) -0.3638(2)
O3 O 0.9375(2) 0.3438(2) -0.4537(2)
O4 O 0.8904(2) 0.1092(2) -0.4898(2)
O5 O 0.2698(2) 0.3105(2) -0.4798(2)
N1 N 0.4368(3) 0.4794(2) -0.3379(2)
C1 C 0.5189(4) 0.5639(3) -0.2707(3)
C2 C 0.6642(4) 0.5572(3) -0.2487(3)
C3 C 0.7258(3) 0.4562(3) -0.2995(3)
C4 C 0.6953(3) 0.2551(3) -0.4362(2)
C5 C 0.6056(3) 0.1732(3) -0.5105(3)
C6 C 0.4618(3) 0.1903(3) -0.5287(3)
C7 C 0.4073(3) 0.2906(3) -0.4695(2)
C8 C 0.6423(3) 0.3632(3) -0.3758(2)
C9 C 0.4964(3) 0.3800(2) -0.3930(2)
H1 H 0.89890 -0.08890 -0.41140
H2 H 0.47860 0.63290 -0.23510
H3 H 0.94990 -0.18650 -0.33200
H4 H 0.71710 0.62040 -0.20060
H5 H 0.82130 0.44830 -0.28440
H6 H 0.22490 0.25900 -0.53360
H7 H 0.64100 0.10430 -0.55010
H8 H 0.40370 0.13400 -0.58060
O3A O 0.9375(2) 0.1562(2) 0.0463(2)
O3C O 1.0625(2) -0.1562(2) -0.0463(2)
O5C O 0.7302(2) -0.1895(2) -0.0202(2)
N1C N 0.5632(3) -0.0206(2) -0.1621(2)
K1A K 0.84921(7) 0.50150(7) -0.64905(6)
K1C K 1.15079(7) 0.49850(7) -0.35095(6)
K1C_2 K 0.15079(7) 0.49850(7) -0.35095(6)
H6C H 0.77510 -0.24100 0.03360
loop_
_geom_bond_atom_site_label_1
_geom_bond_atom_site_label_2
_geom_bond_site_symmetry_1
_geom_bond_site_symmetry_2
K1 O1 1_555 1_555
S1 O1 1_555 1_555
O2 K1 1_555 1_555
O3 S1 1_555 1_555
O4 S1 1_555 1_555
O5 C7 1_555 1_555
N1 C1 1_555 1_555
C1 C2 1_555 1_555
C2 C3 1_555 1_555
C3 C8 1_555 1_555
C4 S1 1_555 1_555
C5 C4 1_555 1_555
C6 C5 1_555 1_555
C7 C6 1_555 1_555
C8 C4 1_555 1_555
C9 N1 1_555 1_555
H1 O2 1_555 1_555
H2 C1 1_555 1_555
H3 O2 1_555 1_555
H4 C2 1_555 1_555
H5 C3 1_555 1_555
H6 O5 1_555 1_555
H7 C5 1_555 1_555
H8 C6 1_555 1_555
O3A K1 1_555 1_555
O3C K1 1_555 1_555
O5C K1 1_555 1_555
N1C K1 1_555 1_555
K1A O3 1_555 1_555
K1C O3 1_555 1_555
K1C_2 O5 1_555 1_555
H6C O5C 1_555 1_555
N1 K1C_2 1_555 1_555
C7 C9 1_555 1_555
C8 C9 1_555 1_555

#END
