
#######################################################################
#
#                 Cambridge Crystallographic Data Centre
#                                CCDC 
#
#######################################################################
#
# If this CIF has been generated from an entry in the Cambridge 
# Structural Database, then it will include bibliographic, chemical, 
# crystal, experimental, refinement or atomic coordinate data resulting 
# from the CCDC's data processing and validation procedures.
#
#######################################################################

data_IPUWAR
_symmetry_cell_setting           monoclinic
_symmetry_space_group_name_H-M   'C 2/c'
_symmetry_Int_Tables_number      15
_space_group_name_Hall           '-C 2yn'
loop_
_symmetry_equiv_pos_site_id
_symmetry_equiv_pos_as_xyz
1 x,y,z
2 x,-y,1/2+z
3 1/2+x,1/2+y,z
4 1/2+x,1/2-y,1/2+z
5 -x,-y,-z
6 -x,y,1/2-z
7 1/2-x,1/2-y,-z
8 1/2-x,1/2+y,1/2-z
_cell_length_a                   14.9680(10)
_cell_length_b                   8.4500(10)
_cell_length_c                   14.0840(10)
_cell_angle_alpha                90
_cell_angle_beta                 115.19(5)
_cell_angle_gamma                90
_cell_volume                     1611.94
loop_
_atom_site_label
_atom_site_type_symbol
_atom_site_fract_x
_atom_site_fract_y
_atom_site_fract_z
Zn1 Zn 0.0000 0.05882(7) 0.2500
S1 S 0.34410(10) -0.01770(10) 0.33390(10)
O1 O 0.1215(2) -0.0251(4) 0.2518(2)
O2 O 0.1271(2) -0.1553(4) 0.3899(2)
N1 N 0.4531(2) 0.2935(3) 0.6234(2)
C1 C 0.1635(3) -0.1134(5) 0.3316(3)
C2 C 0.2674(2) -0.1682(4) 0.3523(3)
C3 C 0.3815(2) 0.0987(4) 0.4464(2)
C4 C 0.3516(3) 0.0798(5) 0.5260(3)
C5 C 0.3879(3) 0.1774(5) 0.6100(3)
C6 C 0.4825(3) 0.3097(4) 0.5465(3)
C7 C 0.4489(2) 0.2186(4) 0.4587(3)
H1 H 0.2621 -0.2562 0.3059
H2 H 0.2999 -0.2068 0.4238
H3 H 0.3069 0.0007 0.5219
H4 H 0.3661 0.1629 0.6622
H5 H 0.5286 0.3879 0.5536
H6 H 0.4709 0.2366 0.4070
S1E S -0.34410(10) -0.01770(10) 0.16610(10)
O1E O -0.1215(2) -0.0251(4) 0.2482(2)
O2E O -0.1271(2) -0.1553(4) 0.1101(2)
N1E N -0.4531(2) 0.2935(3) -0.1234(2)
C1E C -0.1635(3) -0.1134(5) 0.1684(3)
C2E C -0.2674(2) -0.1682(4) 0.1477(3)
C3E C -0.3815(2) 0.0987(4) 0.0536(2)
C4E C -0.3516(3) 0.0798(5) -0.0260(3)
C5E C -0.3879(3) 0.1774(5) -0.1100(3)
C6E C -0.4825(3) 0.3097(4) -0.0465(3)
C7E C -0.4489(2) 0.2186(4) 0.0413(3)
H1E H -0.2621 -0.2562 0.1941
H2E H -0.2999 -0.2068 0.0762
H3E H -0.3069 0.0007 -0.0219
H4E H -0.3661 0.1629 -0.1622
H5E H -0.5286 0.3879 -0.0536
H6E H -0.4709 0.2366 0.0930
N1C N -0.0469(2) 0.2065(3) 0.1234(2)
N1F N 0.0469(2) 0.2065(3) 0.3766(2)
Zn1C Zn -0.5000 0.44118(7) -0.2500
Zn1F Zn 0.5000 0.44118(7) 0.7500
loop_
_geom_bond_atom_site_label_1
_geom_bond_atom_site_label_2
_geom_bond_site_symmetry_1
_geom_bond_site_symmetry_2
Zn1 O1 1_555 1_555
S1 C2 1_555 1_555
O1 C1 1_555 1_555
O2 C1 1_555 1_555
N1 C5 1_555 1_555
C1 C2 1_555 1_555
C2 H1 1_555 1_555
C3 S1 1_555 1_555
C4 C3 1_555 1_555
C5 C4 1_555 1_555
C6 N1 1_555 1_555
C7 C3 1_555 1_555
H2 C2 1_555 1_555
H3 C4 1_555 1_555
H4 C5 1_555 1_555
H5 C6 1_555 1_555
H6 C7 1_555 1_555
S1E C2E 1_555 1_555
O1E Zn1 1_555 1_555
O2E C1E 1_555 1_555
N1E C5E 1_555 1_555
C1E O1E 1_555 1_555
C2E C1E 1_555 1_555
C3E S1E 1_555 1_555
C4E C3E 1_555 1_555
C5E C4E 1_555 1_555
C6E N1E 1_555 1_555
C7E C3E 1_555 1_555
H1E C2E 1_555 1_555
H2E C2E 1_555 1_555
H3E C4E 1_555 1_555
H4E C5E 1_555 1_555
H5E C6E 1_555 1_555
H6E C7E 1_555 1_555
N1C Zn1 1_555 1_555
N1F Zn1 1_555 1_555
Zn1C N1E 1_555 1_555
Zn1F N1 1_555 1_555
C6 C7 1_555 1_555
C6E C7E 1_555 1_555

#END
