
#######################################################################
#
#                 Cambridge Crystallographic Data Centre
#                                CCDC 
#
#######################################################################
#
# If this CIF has been generated from an entry in the Cambridge 
# Structural Database, then it will include bibliographic, chemical, 
# crystal, experimental, refinement or atomic coordinate data resulting 
# from the CCDC's data processing and validation procedures.
#
#######################################################################

data_IPUXIB
_symmetry_cell_setting           monoclinic
_symmetry_space_group_name_H-M   'P 21'
_symmetry_Int_Tables_number      4
_space_group_name_Hall           'P 2yb'
loop_
_symmetry_equiv_pos_site_id
_symmetry_equiv_pos_as_xyz
1 x,y,z
2 -x,1/2+y,-z
_cell_length_a                   11.151(2)
_cell_length_b                   7.1698(14)
_cell_length_c                   12.796(2)
_cell_angle_alpha                90
_cell_angle_beta                 114.393(3)
_cell_angle_gamma                90
_cell_volume                     931.723
loop_
_atom_site_label
_atom_site_type_symbol
_atom_site_fract_x
_atom_site_fract_y
_atom_site_fract_z
Cu1 Cu 0.51098(4) 0.25235(11) 0.35486(4)
O1 O 0.5094(3) 0.1005(5) 0.4812(2)
O2 O 0.3851(3) 0.0232(5) 0.5725(2)
O3 O 0.4385(3) 0.3023(4) 0.1878(2)
O4 O 0.2508(3) 0.3648(5) 0.0384(2)
O5 O 0.7762(3) 0.2219(5) 0.6296(2)
O6 O 0.9455(2) 0.2382(6) 0.1912(2)
O7 O 0.9392(3) 0.6306(5) 0.1159(2)
H1 H 0.8950 0.7423 0.0760
N1 N 0.3382(3) 0.3456(6) 0.3434(3)
H2 H 0.3588 0.4626 0.3682
N2 N 0.9798(3) 0.1539(5) 0.6395(3)
H3 H 1.0196 0.1363 0.7166
N3 N 1.1947(3) 0.0994(6) 0.6653(3)
H4 H 1.2267 0.1425 0.7414
H5 H 1.2533 0.0831 0.6391
N4 N 1.0338(3) 0.1007(6) 0.4813(3)
N5 N 0.6847(3) 0.1684(5) 0.3643(3)
N6 N 0.8409(3) 0.1061(5) 0.3031(3)
C1 C 0.2939(4) 0.2357(8) 0.4169(3)
H6 H 0.2258 0.1546 0.3718
H7 H 0.2616 0.3197 0.4587
C2 C 0.4029(4) 0.1099(7) 0.4964(3)
C3 C 0.2458(4) 0.3620(7) 0.2211(3)
H8 H 0.1853 0.4842 0.2009
H9 H 0.1809 0.2485 0.2094
C4 C 0.3166(4) 0.3423(6) 0.1431(3)
C5 C 1.0693(4) 0.1191(6) 0.5928(3)
C6 C 0.9037(4) 0.1215(6) 0.4201(3)
C7 C 0.8065(4) 0.1594(6) 0.4582(3)
C8 C 0.8448(4) 0.1843(6) 0.5779(4)
C9 C 0.7095(4) 0.1353(6) 0.2740(3)
H10 H 0.6409 0.1183 0.2030
C10 C 0.9073(4) 0.0739(7) 0.2268(4)
H11 H 0.9952 -0.0015 0.2762
H12 H 0.8484 0.0056 0.1637
C11 C 0.8459(4) 0.3182(7) 0.0908(4)
H13 H 0.7989 0.2301 0.0309
H14 H 0.7686 0.3707 0.0997
C12 C 0.9039(5) 0.4675(7) 0.0445(4)
H15 H 0.9853 0.4125 0.0428
H16 H 0.8419 0.5010 -0.0247
Cu1A Cu 0.48902(4) -0.24765(11) 0.64514(4)
O2A O 0.6149(3) 0.5232(5) 0.4275(2)
O8 O 0.6443(2) 0.7569(7) 0.1084(2)
H17 H 0.6652 0.7899 0.0634
C13 C 0.5437(5) 0.6226(8) 0.0557(4)
H18 H 0.5383 0.5396 0.1145
H19 H 0.5641 0.5492 0.0005
H20 H 0.4592 0.6863 0.0157
O9 O 0.3036(4) 0.9377(6) 0.2339(3)
H21 H 0.2753 0.8711 0.2721
C14 C 0.4077(5) 0.8351(8) 0.2251(5)
H22 H 0.4395 0.9013 0.1745
H23 H 0.3758 0.7113 0.1933
H24 H 0.4799 0.8218 0.3014
loop_
_geom_bond_atom_site_label_1
_geom_bond_atom_site_label_2
_geom_bond_site_symmetry_1
_geom_bond_site_symmetry_2
Cu1 O1 1_555 1_555
O1 C2 1_555 1_555
O2 C2 1_555 1_555
O3 Cu1 1_555 1_555
O4 C4 1_555 1_555
O5 C8 1_555 1_555
O6 C10 1_555 1_555
O7 H1 1_555 1_555
N1 Cu1 1_555 1_555
H2 N1 1_555 1_555
N2 H3 1_555 1_555
N3 H4 1_555 1_555
H5 N3 1_555 1_555
N4 C5 1_555 1_555
N5 Cu1 1_555 1_555
N6 C6 1_555 1_555
C1 N1 1_555 1_555
H6 C1 1_555 1_555
H7 C1 1_555 1_555
C2 C1 1_555 1_555
C3 N1 1_555 1_555
H8 C3 1_555 1_555
H9 C3 1_555 1_555
C4 O3 1_555 1_555
C5 N2 1_555 1_555
C6 N4 1_555 1_555
C7 N5 1_555 1_555
C8 N2 1_555 1_555
C9 N5 1_555 1_555
H10 C9 1_555 1_555
C10 N6 1_555 1_555
H11 C10 1_555 1_555
H12 C10 1_555 1_555
C11 O6 1_555 1_555
H13 C11 1_555 1_555
H14 C11 1_555 1_555
C12 O7 1_555 1_555
H15 C12 1_555 1_555
H16 C12 1_555 1_555
O8 H17 1_555 1_555
C13 O8 1_555 1_555
H18 C13 1_555 1_555
H19 C13 1_555 1_555
H20 C13 1_555 1_555
O9 H21 1_555 1_555
C14 O9 1_555 1_555
H22 C14 1_555 1_555
H23 C14 1_555 1_555
H24 C14 1_555 1_555
Cu1A O2 1_555 1_555
O2A Cu1 1_555 1_555
N3 C5 1_555 1_555
N6 C9 1_555 1_555
C3 C4 1_555 1_555
C6 C7 1_555 1_555
C7 C8 1_555 1_555
C11 C12 1_555 1_555

#END
