
#######################################################################
#
#                 Cambridge Crystallographic Data Centre
#                                CCDC 
#
#######################################################################
#
# If this CIF has been generated from an entry in the Cambridge 
# Structural Database, then it will include bibliographic, chemical, 
# crystal, experimental, refinement or atomic coordinate data resulting 
# from the CCDC's data processing and validation procedures.
#
#######################################################################

data_IQAGAJ
_symmetry_cell_setting           triclinic
_symmetry_space_group_name_H-M   'P -1'
_symmetry_Int_Tables_number      2
_space_group_name_Hall           '-P 1'
loop_
_symmetry_equiv_pos_site_id
_symmetry_equiv_pos_as_xyz
1 x,y,z
2 -x,-y,-z
_cell_length_a                   7.548(2)
_cell_length_b                   9.942(4)
_cell_length_c                   12.968(3)
_cell_angle_alpha                106.01(2)
_cell_angle_beta                 90.13(3)
_cell_angle_gamma                95.23(2)
_cell_volume                     931.126
loop_
_atom_site_label
_atom_site_type_symbol
_atom_site_fract_x
_atom_site_fract_y
_atom_site_fract_z
C1 C 0.1018(7) 0.1005(6) 0.1755(4)
C2 C 0.0216(7) -0.0361(6) 0.1406(5)
H1 H 0.0805 -0.1123 0.1505
C3 C -0.1459(7) -0.0598(6) 0.0909(4)
H2 H -0.1994 -0.1537 0.0669
C4 C -0.1575(7) 0.1754(6) 0.1114(5)
H3 H -0.2203 0.2502 0.1024
C5 C 0.0087(7) 0.2085(6) 0.1608(5)
H4 H 0.0589 0.3034 0.1845
C6 C 0.2910(7) 0.1307(6) 0.2202(5)
C7 C 0.5032(7) 0.2177(7) 0.3736(5)
H5 H 0.4909 0.2528 0.4531
C8 C 0.5945(8) 0.3399(7) 0.3374(6)
H6 H 0.5188 0.4176 0.3527
H7 H 0.6143 0.3088 0.2601
H8 H 0.7091 0.3715 0.3761
C9 C 0.6108(8) 0.0916(8) 0.3537(5)
H9 H 0.5452 0.0174 0.3787
H10 H 0.7255 0.1196 0.3929
H11 H 0.6312 0.0564 0.2768
C10 C 0.1703(8) 0.1959(7) 0.4020(5)
H12 H 0.0576 0.1556 0.3597
C11 C 0.1537(8) 0.3526(7) 0.4552(5)
H13 H 0.1397 0.4008 0.3997
H14 H 0.2612 0.3943 0.4991
H15 H 0.0497 0.3625 0.5009
C12 C 0.1923(10) 0.1148(8) 0.4842(6)
H16 H 0.2021 0.0156 0.4470
H17 H 0.0886 0.1224 0.5301
H18 H 0.3002 0.1539 0.5284
N1 N -0.2359(6) 0.0437(5) 0.0751(4)
N2 N 0.3186(6) 0.1792(5) 0.3259(4)
O1 O -0.4625(5) 0.1887(4) -0.0425(3)
H25 H -0.4391 0.1807 -0.1080
H26 H -0.4545 0.2602 0.0012
O3 O 0.4154(5) 0.1106(4) 0.1547(3)
Co1 Co -0.5000 0.0000 0.0000
C1A C -1.1018(7) -0.1005(6) -0.1755(4)
C2A C -1.0216(7) 0.0361(6) -0.1406(5)
H1A H -1.0805 0.1123 -0.1505
C3A C -0.8541(7) 0.0598(6) -0.0909(4)
H2A H -0.8006 0.1537 -0.0669
C4A C -0.8425(7) -0.1754(6) -0.1114(5)
H3A H -0.7797 -0.2502 -0.1024
C5A C -1.0087(7) -0.2085(6) -0.1608(5)
H4A H -1.0589 -0.3034 -0.1845
C6A C -1.2910(7) -0.1307(6) -0.2202(5)
C7A C -1.5032(7) -0.2177(7) -0.3736(5)
H5A H -1.4909 -0.2528 -0.4531
C8A C -1.5945(8) -0.3399(7) -0.3374(6)
H6A H -1.5188 -0.4176 -0.3527
H7A H -1.6143 -0.3088 -0.2601
H8A H -1.7091 -0.3715 -0.3761
C9A C -1.6108(8) -0.0916(8) -0.3537(5)
H9A H -1.5452 -0.0174 -0.3787
H10A H -1.7255 -0.1196 -0.3929
H11A H -1.6312 -0.0564 -0.2768
C10A C -1.1703(8) -0.1959(7) -0.4020(5)
H12A H -1.0576 -0.1556 -0.3597
C11A C -1.1537(8) -0.3526(7) -0.4552(5)
H13A H -1.1397 -0.4008 -0.3997
H14A H -1.2612 -0.3943 -0.4991
H15A H -1.0497 -0.3625 -0.5009
C12A C -1.1923(10) -0.1148(8) -0.4842(6)
H16A H -1.2021 -0.0156 -0.4470
H17A H -1.0886 -0.1224 -0.5301
H18A H -1.3002 -0.1539 -0.5284
N1A N -0.7641(6) -0.0437(5) -0.0751(4)
N2A N -1.3186(6) -0.1792(5) -0.3259(4)
O1A O -0.5375(5) -0.1887(4) 0.0425(3)
H25A H -0.5609 -0.1807 0.1080
H26A H -0.5455 -0.2602 -0.0012
O3A O -1.4154(5) -0.1106(4) -0.1547(3)
O3_2 O -0.5846(5) 0.1106(4) 0.1547(3)
O3A_2 O -0.4154(5) -0.1106(4) -0.1547(3)
Co1_2 Co -1.5000 0.0000 0.0000
Co1_3 Co 0.5000 0.0000 0.0000
C13 C 0.2511(16) 0.4559(13) 0.8642(10)
C14 C 0.4042(11) 0.5563(9) 0.8971(7)
H19 H 0.4848 0.5484 0.8371
H20 H 0.4660 0.5376 0.9575
H21 H 0.3660 0.6514 0.9193
C15 C 0.118(2) 0.473(2) 0.9527(14)
H22 H 0.0104 0.4093 0.9268
H23 H 0.0869 0.5703 0.9742
H24 H 0.1700 0.4505 1.0145
O4 O 0.212(2) 0.3852(19) 0.7739(9)
O2 O 0.6729(13) 0.6067(11) 0.9750(10)
Cl1 Cl 0.6876(10) 0.3217(14) 0.7092(11)
O5 O 0.7223(16) 0.2306(16) 0.7733(12)
O6 O 0.695(4) 0.295(4) 0.6021(13)
O7 O 0.719(10) 0.467(2) 0.757(4)
O8 O 0.4957(11) 0.3135(12) 0.6894(9)
Cl2? Cl 0.7414(12) 0.3235(17) 0.7159(13)
O9? O 0.6378(17) 0.2237(19) 0.7588(15)
O10? O 0.762(5) 0.274(4) 0.6087(15)
O11? O 0.740(12) 0.463(3) 0.779(5)
O12? O 0.9229(12) 0.3040(13) 0.7257(11)
loop_
_geom_bond_atom_site_label_1
_geom_bond_atom_site_label_2
_geom_bond_site_symmetry_1
_geom_bond_site_symmetry_2
C1 C2 1_555 1_555
C2 H1 1_555 1_555
C3 C2 1_555 1_555
H2 C3 1_555 1_555
C4 H3 1_555 1_555
C5 C1 1_555 1_555
H4 C5 1_555 1_555
C6 C1 1_555 1_555
C7 H5 1_555 1_555
C8 C7 1_555 1_555
H6 C8 1_555 1_555
H7 C8 1_555 1_555
H8 C8 1_555 1_555
C9 C7 1_555 1_555
H9 C9 1_555 1_555
H10 C9 1_555 1_555
H11 C9 1_555 1_555
C10 H12 1_555 1_555
C11 C10 1_555 1_555
H13 C11 1_555 1_555
H14 C11 1_555 1_555
H15 C11 1_555 1_555
C12 C10 1_555 1_555
H16 C12 1_555 1_555
H17 C12 1_555 1_555
H18 C12 1_555 1_555
C13 C14 1_555 1_555
C14 H19 1_555 1_555
H20 C14 1_555 1_555
H21 C14 1_555 1_555
C15 C13 1_555 1_555
H22 C15 1_555 1_555
H23 C15 1_555 1_555
H24 C15 1_555 1_555
N1 C3 1_555 1_555
N2 C6 1_555 1_555
O1 H25 1_555 1_555
H26 O1 1_555 1_555
O3 C6 1_555 1_555
O4 C13 1_555 1_555
Co1 N1 1_555 1_555
Cl1 O5 1_555 1_555
O6 Cl1 1_555 1_555
O7 Cl1 1_555 1_555
O8 Cl1 1_555 1_555
C1A C2A 1_555 1_555
C2A H1A 1_555 1_555
C3A C2A 1_555 1_555
H2A C3A 1_555 1_555
C4A H3A 1_555 1_555
C5A C1A 1_555 1_555
H4A C5A 1_555 1_555
C6A C1A 1_555 1_555
C7A H5A 1_555 1_555
C8A C7A 1_555 1_555
H6A C8A 1_555 1_555
H7A C8A 1_555 1_555
H8A C8A 1_555 1_555
C9A C7A 1_555 1_555
H9A C9A 1_555 1_555
H10A C9A 1_555 1_555
H11A C9A 1_555 1_555
C10A H12A 1_555 1_555
C11A C10A 1_555 1_555
H13A C11A 1_555 1_555
H14A C11A 1_555 1_555
H15A C11A 1_555 1_555
C12A C10A 1_555 1_555
H16A C12A 1_555 1_555
H17A C12A 1_555 1_555
H18A C12A 1_555 1_555
N1A Co1 1_555 1_555
N2A C6A 1_555 1_555
O1A Co1 1_555 1_555
H25A O1A 1_555 1_555
H26A O1A 1_555 1_555
O3A C6A 1_555 1_555
O3_2 Co1 1_555 1_555
O3A_2 Co1 1_555 1_555
Co1_2 O3A 1_555 1_555
Co1_3 O3 1_555 1_555
C4 C5 1_555 1_555
C4 N1 1_555 1_555
C7 N2 1_555 1_555
C10 N2 1_555 1_555
O1 Co1 1_555 1_555
C3A N1A 1_555 1_555
C4A C5A 1_555 1_555
C4A N1A 1_555 1_555
C7A N2A 1_555 1_555
C10A N2A 1_555 1_555

#END
