
#######################################################################
#
#                 Cambridge Crystallographic Data Centre
#                                CCDC 
#
#######################################################################
#
# If this CIF has been generated from an entry in the Cambridge 
# Structural Database, then it will include bibliographic, chemical, 
# crystal, experimental, refinement or atomic coordinate data resulting 
# from the CCDC's data processing and validation procedures.
#
#######################################################################

data_IQAGEN
_symmetry_cell_setting           orthorhombic
_symmetry_space_group_name_H-M   'A b a 2'
_symmetry_Int_Tables_number      41
_space_group_name_Hall           'A 2 -2ab'
loop_
_symmetry_equiv_pos_site_id
_symmetry_equiv_pos_as_xyz
1 x,y,z
2 -x,-y,z
3 1/2-x,1/2+y,z
4 1/2+x,1/2-y,z
5 x,1/2+y,1/2+z
6 -x,1/2-y,1/2+z
7 1/2-x,y,1/2+z
8 1/2+x,-y,1/2+z
_cell_length_a                   13.578(5)
_cell_length_b                   21.049(5)
_cell_length_c                   8.517(5)
_cell_angle_alpha                90
_cell_angle_beta                 90
_cell_angle_gamma                90
_cell_volume                     2434.19
loop_
_atom_site_label
_atom_site_type_symbol
_atom_site_fract_x
_atom_site_fract_y
_atom_site_fract_z
Zn1 Zn 1.0000 1.0000 1.36105(14)
C1 C 1.4363(3) 0.5915(2) 2.1910(5)
C2 C 1.2853(4) 0.7338(2) 1.9291(5)
C3 C 1.2826(3) 0.82583(19) 1.7656(6)
H1 H 1.3230 0.8052 1.6868
H2 H 1.3254 0.8498 1.8349
O1 O 1.22918(19) 0.77953(13) 1.8530(5)
C4 C 1.2804(3) 0.64315(19) 2.0980(5)
H3 H 1.2446 0.6136 2.1555
N1 N 1.0854(2) 0.95008(14) 1.5196(4)
C5 C 1.2465(4) 0.92319(18) 1.6135(6)
H4 H 1.3132 0.9329 1.6191
C6 C 1.3834(3) 0.64049(18) 2.0980(5)
C7 C 1.1097(3) 0.85806(19) 1.6815(5)
H5 H 1.0825 0.8233 1.7330
O2 O 1.3898(2) 0.55549(14) 2.2810(4)
O3 O 1.5270(3) 0.5865(2) 2.1795(5)
C8 C 1.4344(3) 0.6836(2) 2.0089(5)
H6 H 1.5028 0.6810 2.0059
C9 C 1.3881(3) 0.7308(2) 1.9231(5)
H7 H 1.4242 0.7596 1.8635
C10 C 1.2090(3) 0.86988(18) 1.6876(5)
C11 C 1.2316(3) 0.68945(19) 2.0131(5)
H8 H 1.1631 0.6908 2.0125
C12 C 1.1817(3) 0.9621(2) 1.5303(6)
H9 H 1.2067 0.9978 1.4802
C13 C 1.0510(3) 0.8997(2) 1.5958(6)
H10 H 0.9837 0.8918 1.5917
Zn1B Zn 1.5000 0.5000 2.36105(14)
Zn1B_2 Zn 0.5000 0.5000 0.36105(14)
C1C C 0.9363(3) 0.9085(2) 1.1910(5)
C2C C 0.7853(4) 0.7662(2) 0.9291(5)
C3C C 0.7826(3) 0.67417(19) 0.7656(6)
H1C H 0.8230 0.6948 0.6868
H2C H 0.8254 0.6502 0.8349
O1C O 0.72918(19) 0.72047(13) 0.8530(5)
C4C C 0.7804(3) 0.85685(19) 1.0980(5)
H3C H 0.7446 0.8864 1.1555
N1C N 0.5854(2) 0.54992(14) 0.5196(4)
N1A N 0.9146(2) 1.04992(14) 1.5196(4)
C5C C 0.7465(4) 0.57681(18) 0.6135(6)
H4C H 0.8132 0.5671 0.6191
C6C C 0.8834(3) 0.85951(18) 1.0980(5)
C7C C 0.6097(3) 0.64194(19) 0.6815(5)
H5C H 0.5825 0.6767 0.7330
O2C O 0.8898(2) 0.94451(14) 1.2810(4)
O2B O 1.1102(2) 1.05549(14) 1.2810(4)
O3C O 1.0270(3) 0.9135(2) 1.1795(5)
O3B O 0.9730(3) 1.0865(2) 1.1795(5)
C8C C 0.9344(3) 0.8164(2) 1.0089(5)
H6C H 1.0028 0.8190 1.0059
C9C C 0.8881(3) 0.7692(2) 0.9231(5)
H7C H 0.9242 0.7404 0.8635
C10C C 0.7090(3) 0.63012(18) 0.6876(5)
C11C C 0.7316(3) 0.81055(19) 1.0131(5)
H8C H 0.6631 0.8092 1.0125
C12C C 0.6817(3) 0.5379(2) 0.5303(6)
H9C H 0.7067 0.5022 0.4802
C13C C 0.5510(3) 0.6003(2) 0.5958(6)
H10C H 0.4837 0.6082 0.5917
loop_
_geom_bond_atom_site_label_1
_geom_bond_atom_site_label_2
_geom_bond_site_symmetry_1
_geom_bond_site_symmetry_2
Zn1 N1 1_555 1_555
C1 C6 1_555 1_555
C2 O1 1_555 1_555
C3 H1 1_555 1_555
H2 C3 1_555 1_555
O1 C3 1_555 1_555
C4 H3 1_555 1_555
N1 C12 1_555 1_555
C5 H4 1_555 1_555
C6 C4 1_555 1_555
C7 H5 1_555 1_555
O2 C1 1_555 1_555
O3 C1 1_555 1_555
C8 C6 1_555 1_555
H6 C8 1_555 1_555
C9 C2 1_555 1_555
H7 C9 1_555 1_555
C10 C3 1_555 1_555
C11 C2 1_555 1_555
H8 C11 1_555 1_555
C12 C5 1_555 1_555
H9 C12 1_555 1_555
C13 N1 1_555 1_555
H10 C13 1_555 1_555
Zn1B O2 1_555 1_555
Zn1B_2 N1C 1_555 1_555
C1C C6C 1_555 1_555
C2C O1C 1_555 1_555
C3C H1C 1_555 1_555
H2C C3C 1_555 1_555
O1C C3C 1_555 1_555
C4C H3C 1_555 1_555
N1C C12C 1_555 1_555
N1A Zn1 1_555 1_555
C5C H4C 1_555 1_555
C6C C4C 1_555 1_555
C7C H5C 1_555 1_555
O2C Zn1 1_555 1_555
O2B Zn1 1_555 1_555
O3C Zn1 1_555 1_555
O3B Zn1 1_555 1_555
C8C C6C 1_555 1_555
H6C C8C 1_555 1_555
C9C C2C 1_555 1_555
H7C C9C 1_555 1_555
C10C C3C 1_555 1_555
C11C C2C 1_555 1_555
H8C C11C 1_555 1_555
C12C C5C 1_555 1_555
H9C C12C 1_555 1_555
C13C N1C 1_555 1_555
H10C C13C 1_555 1_555
C4 C11 1_555 1_555
C5 C10 1_555 1_555
C7 C10 1_555 1_555
C7 C13 1_555 1_555
O3 Zn1B 1_555 1_555
C8 C9 1_555 1_555
C1C O2C 1_555 1_555
C1C O3C 1_555 1_555
C4C C11C 1_555 1_555
C5C C10C 1_555 1_555
C7C C10C 1_555 1_555
C7C C13C 1_555 1_555
C8C C9C 1_555 1_555

#END
