
#######################################################################
#
#                 Cambridge Crystallographic Data Centre
#                                CCDC 
#
#######################################################################
#
# If this CIF has been generated from an entry in the Cambridge 
# Structural Database, then it will include bibliographic, chemical, 
# crystal, experimental, refinement or atomic coordinate data resulting 
# from the CCDC's data processing and validation procedures.
#
#######################################################################

data_IQAGOX
_symmetry_cell_setting           triclinic
_symmetry_space_group_name_H-M   'P -1'
_symmetry_Int_Tables_number      2
_space_group_name_Hall           '-P 1'
loop_
_symmetry_equiv_pos_site_id
_symmetry_equiv_pos_as_xyz
1 x,y,z
2 -x,-y,-z
_cell_length_a                   9.8381(6)
_cell_length_b                   10.1685(7)
_cell_length_c                   10.9970(7)
_cell_angle_alpha                70.8030(10)
_cell_angle_beta                 77.6670(10)
_cell_angle_gamma                84.2830(10)
_cell_volume                     1014.46
loop_
_atom_site_label
_atom_site_type_symbol
_atom_site_fract_x
_atom_site_fract_y
_atom_site_fract_z
O1 O 0.0586(3) 0.5535(3) 0.2679(3)
O2 O 0.0387(3) 0.3309(3) 0.3059(3)
C1 C 0.0884(4) 0.4294(4) 0.3249(4)
C2 C 0.1824(3) 0.3956(4) 0.4234(3)
Cd1 Cd 0.09753(2) 0.52038(2) 0.83377(3)
O3 O 0.0160(3) 0.6453(2) 0.9750(3)
O4 O 0.1853(3) 0.7622(3) 0.8257(3)
N1 N 0.2973(3) 0.4194(3) 0.9095(3)
C3 C 0.0407(3) 0.8809(3) 0.9618(4)
C4 C 0.2813(3) 0.4571(4) 0.5773(3)
C5 C 0.0864(4) 0.7557(3) 0.9175(4)
C6 C 0.3265(3) 0.2269(4) 0.5565(4)
N2 N 0.2908(3) 0.5542(3) 0.6441(3)
C7 C 0.2029(4) 0.4938(4) 0.4808(4)
H1 H 0.1638 0.5833 0.4540
C8 C 0.3442(4) 0.3248(4) 0.6152(4)
H2 H 0.3980 0.3018 0.6797
C9 C 0.4190(4) 0.4536(4) 0.8281(4)
C10 C 0.1001(4) 1.0090(4) 0.8885(4)
H3 H 0.1672 1.0157 0.8132
C11 C 0.2437(4) 0.2638(4) 0.4602(4)
H4 H 0.2300 0.1992 0.4209
C12 C 0.4181(4) 0.5539(4) 0.6928(4)
H5 H 0.4306 0.6472 0.6933
H6 H 0.4967 0.5308 0.6324
N3 N 0.3854(4) 0.0951(3) 0.5896(4)
C13 C 0.5451(4) 0.4025(5) 0.8692(5)
H7 H 0.6294 0.4253 0.8110
C14 C 0.6048(4) 0.0763(4) 0.6742(4)
C15 C 0.2964(4) 0.3359(4) 1.0335(4)
H8 H 0.2113 0.3115 1.0900
C16 C -0.0605(4) 0.8742(4) 1.0733(4)
H9 H -0.1019 0.7900 1.1227
C17 C 0.4545(4) 0.0371(4) 0.6984(5)
H10 H 0.4514 -0.0636 0.7247
H11 H 0.4028 0.0662 0.7713
N4 N 0.6832(4) 0.0813(4) 0.5579(4)
C18 C 0.5426(4) 0.3187(5) 0.9955(5)
H12 H 0.6252 0.2842 1.0246
C19 C 0.4164(5) 0.2861(5) 1.0790(5)
H13 H 0.4127 0.2307 1.1658
C20 C 0.6582(5) 0.0989(5) 0.7711(6)
H14 H 0.6008 0.0960 0.8509
C21 C 0.8201(5) 0.1084(5) 0.5372(6)
H15 H 0.8759 0.1124 0.4564
C22 C 0.7960(6) 0.1256(6) 0.7494(7)
H16 H 0.8333 0.1408 0.8144
C23 C 0.8791(5) 0.1300(6) 0.6310(7)
H17 H 0.9735 0.1472 0.6146
H18 H 0.3658 0.0249 0.5605
H19 H 0.2452 0.6414 0.5952
O1A O -0.0586(3) 0.4465(3) 0.7321(3)
O1_2 O 0.0586(3) 1.5535(3) 1.2679(3)
O2A O -0.0387(3) 0.6691(3) 0.6941(3)
O2_2 O 0.0387(3) 1.3309(3) 1.3059(3)
C1A C -0.0884(4) 0.5706(4) 0.6751(4)
C2A C -0.1824(3) 0.6044(4) 0.5766(3)
Cd1A Cd -0.09753(2) 1.47962(2) 1.16623(3)
Cd1A_2 Cd -0.09753(2) 0.47962(2) 0.16623(3)
Cd1A_3 Cd -0.09753(2) 0.47962(2) 1.16623(3)
Cd1_2 Cd 0.09753(2) 1.52038(2) 0.83377(3)
O3A O -0.0160(3) 1.3547(2) 1.0250(3)
O3A_2 O -0.0160(3) 0.3547(2) 1.0250(3)
O3_2 O 0.0160(3) 1.6453(2) 0.9750(3)
O4A O -0.1853(3) 1.2378(3) 1.1743(3)
N1A N -0.2973(3) 0.5806(3) 0.0905(3)
N1A_2 N -0.2973(3) 1.5806(3) 1.0905(3)
C3A C -0.0407(3) 1.1191(3) 1.0382(4)
C4A C -0.2813(3) 0.5429(4) 0.4227(3)
C5A C -0.0864(4) 1.2443(3) 1.0825(4)
C6A C -0.3265(3) 0.7731(4) 0.4435(4)
N2A N -0.2908(3) 0.4458(3) 0.3559(3)
N2A_2 N -0.2908(3) 1.4458(3) 1.3559(3)
C7A C -0.2029(4) 0.5062(4) 0.5192(4)
H1A H -0.1638 0.4167 0.5460
C8A C -0.3442(4) 0.6752(4) 0.3848(4)
H2A H -0.3980 0.6982 0.3203
C9A C -0.4190(4) 0.5464(4) 0.1719(4)
C10A C -0.1001(4) 0.9910(4) 1.1115(4)
H3A H -0.1672 0.9843 1.1868
C11A C -0.2437(4) 0.7362(4) 0.5398(4)
H4A H -0.2300 0.8008 0.5791
C12A C -0.4181(4) 0.4461(4) 0.3072(4)
H5A H -0.4306 0.3528 0.3067
H6A H -0.4967 0.4692 0.3676
N3A N -0.3854(4) 0.9049(3) 0.4104(4)
C13A C -0.5451(4) 0.5975(5) 0.1308(5)
H7A H -0.6294 0.5747 0.1890
C14A C -0.6048(4) 0.9237(4) 0.3258(4)
C15A C -0.2964(4) 0.6641(4) -0.0335(4)
H8A H -0.2113 0.6885 -0.0900
C16A C 0.0605(4) 1.1258(4) 0.9267(4)
H9A H 0.1019 1.2100 0.8773
C17A C -0.4545(4) 0.9629(4) 0.3016(5)
H10A H -0.4514 1.0636 0.2753
H11A H -0.4028 0.9338 0.2287
N4A N -0.6832(4) 0.9187(4) 0.4421(4)
C18A C -0.5426(4) 0.6813(5) 0.0045(5)
H12A H -0.6252 0.7158 -0.0246
C19A C -0.4164(5) 0.7139(5) -0.0790(5)
H13A H -0.4127 0.7693 -0.1658
C20A C -0.6582(5) 0.9011(5) 0.2289(6)
H14A H -0.6008 0.9040 0.1491
C21A C -0.8201(5) 0.8916(5) 0.4628(6)
H15A H -0.8759 0.8876 0.5436
C22A C -0.7960(6) 0.8744(6) 0.2506(7)
H16A H -0.8333 0.8592 0.1856
C23A C -0.8791(5) 0.8700(6) 0.3690(7)
H17A H -0.9735 0.8528 0.3854
H18A H -0.3658 0.9751 0.4395
H19A H -0.2452 0.3586 0.4048
H19A_2 H -0.2452 1.3586 1.4048
loop_
_geom_bond_atom_site_label_1
_geom_bond_atom_site_label_2
_geom_bond_site_symmetry_1
_geom_bond_site_symmetry_2
O1 C1 1_555 1_555
O2 C1 1_555 1_555
C1 C2 1_555 1_555
C2 C7 1_555 1_555
Cd1 O3 1_555 1_555
O3 C5 1_555 1_555
O4 Cd1 1_555 1_555
N1 Cd1 1_555 1_555
C3 C5 1_555 1_555
C4 N2 1_555 1_555
C5 O4 1_555 1_555
C6 C8 1_555 1_555
N2 Cd1 1_555 1_555
C7 C4 1_555 1_555
H1 C7 1_555 1_555
C8 C4 1_555 1_555
H2 C8 1_555 1_555
C9 N1 1_555 1_555
C10 C3 1_555 1_555
H3 C10 1_555 1_555
C11 C2 1_555 1_555
H4 C11 1_555 1_555
C12 N2 1_555 1_555
H5 C12 1_555 1_555
H6 C12 1_555 1_555
N3 C6 1_555 1_555
C13 C9 1_555 1_555
H7 C13 1_555 1_555
C14 C17 1_555 1_555
C15 N1 1_555 1_555
H8 C15 1_555 1_555
C16 C3 1_555 1_555
H9 C16 1_555 1_555
C17 N3 1_555 1_555
H10 C17 1_555 1_555
H11 C17 1_555 1_555
N4 C14 1_555 1_555
C18 C13 1_555 1_555
H12 C18 1_555 1_555
C19 C15 1_555 1_555
H13 C19 1_555 1_555
C20 C14 1_555 1_555
H14 C20 1_555 1_555
C21 N4 1_555 1_555
H15 C21 1_555 1_555
C22 C20 1_555 1_555
H16 C22 1_555 1_555
C23 C21 1_555 1_555
H17 C23 1_555 1_555
H18 N3 1_555 1_555
H19 N2 1_555 1_555
O1A Cd1 1_555 1_555
O1_2 Cd1A 1_555 1_555
O2A Cd1 1_555 1_555
O2_2 Cd1A 1_555 1_555
C1A O1A 1_555 1_555
C2A C1A 1_555 1_555
Cd1A O3A 1_555 1_555
Cd1A_2 O1 1_555 1_555
Cd1A_3 O3 1_555 1_555
Cd1_2 O3A 1_555 1_555
O3A C5A 1_555 1_555
O3A_2 Cd1 1_555 1_555
O3_2 Cd1A 1_555 1_555
O4A Cd1A 1_555 1_555
N1A Cd1A_2 1_555 1_555
N1A_2 Cd1A 1_555 1_555
C3A C5A 1_555 1_555
C4A N2A 1_555 1_555
C5A O4A 1_555 1_555
C6A C8A 1_555 1_555
N2A Cd1A_2 1_555 1_555
N2A_2 Cd1A 1_555 1_555
C7A C2A 1_555 1_555
H1A C7A 1_555 1_555
C8A C4A 1_555 1_555
H2A C8A 1_555 1_555
C9A N1A 1_555 1_555
C10A C16 1_555 1_555
H3A C10A 1_555 1_555
C11A C2A 1_555 1_555
H4A C11A 1_555 1_555
C12A N2A 1_555 1_555
H5A C12A 1_555 1_555
H6A C12A 1_555 1_555
N3A C6A 1_555 1_555
C13A C9A 1_555 1_555
H7A C13A 1_555 1_555
C14A C17A 1_555 1_555
C15A N1A 1_555 1_555
H8A C15A 1_555 1_555
C16A C10 1_555 1_555
H9A C16A 1_555 1_555
C17A N3A 1_555 1_555
H10A C17A 1_555 1_555
H11A C17A 1_555 1_555
N4A C14A 1_555 1_555
C18A C13A 1_555 1_555
H12A C18A 1_555 1_555
C19A C15A 1_555 1_555
H13A C19A 1_555 1_555
C20A C14A 1_555 1_555
H14A C20A 1_555 1_555
C21A N4A 1_555 1_555
H15A C21A 1_555 1_555
C22A C20A 1_555 1_555
H16A C22A 1_555 1_555
C23A C21A 1_555 1_555
H17A C23A 1_555 1_555
H18A N3A 1_555 1_555
H19A N2A 1_555 1_555
H19A_2 N2A_2 1_555 1_555
O2 Cd1A_2 1_555 1_555
C6 C11 1_555 1_555
C9 C12 1_555 1_555
C18 C19 1_555 1_555
C22 C23 1_555 1_555
O2A C1A 1_555 1_555
Cd1A_3 O3A_2 1_555 1_555
Cd1_2 O3_2 1_555 1_555
C3A C10A 1_555 1_555
C3A C16A 1_555 1_555
C4A C7A 1_555 1_555
C6A C11A 1_555 1_555
C9A C12A 1_555 1_555
C18A C19A 1_555 1_555
C22A C23A 1_555 1_555

#END
