
#######################################################################
#
#                 Cambridge Crystallographic Data Centre
#                                CCDC 
#
#######################################################################
#
# If this CIF has been generated from an entry in the Cambridge 
# Structural Database, then it will include bibliographic, chemical, 
# crystal, experimental, refinement or atomic coordinate data resulting 
# from the CCDC's data processing and validation procedures.
#
#######################################################################

data_IQAGEM
_symmetry_cell_setting           monoclinic
_symmetry_space_group_name_H-M   'P 21/n'
_symmetry_Int_Tables_number      14
_space_group_name_Hall           '-P 2yn'
loop_
_symmetry_equiv_pos_site_id
_symmetry_equiv_pos_as_xyz
1 x,y,z
2 1/2+x,1/2-y,1/2+z
3 -x,-y,-z
4 1/2-x,1/2+y,1/2-z
_cell_length_a                   8.8037(6)
_cell_length_b                   22.6796(15)
_cell_length_c                   17.67930(12)
_cell_angle_alpha                90
_cell_angle_beta                 102.9190(10)
_cell_angle_gamma                90
_cell_volume                     3440.57
loop_
_atom_site_label
_atom_site_type_symbol
_atom_site_fract_x
_atom_site_fract_y
_atom_site_fract_z
Co1 Co 0.38434(10) 0.10672(3) 0.79620(4)
Co2 Co 0.69469(10) 0.17918(3) 0.76568(4)
Co3 Co -0.01136(10) 0.13481(3) 0.68805(4)
S1 S 0.25923(17) -0.00520(6) 0.98937(8)
S2 S 0.42783(18) -0.08685(6) 0.87273(9)
S3 S 0.9061(2) 0.34750(7) 0.89016(10)
S4 S 0.6110(2) 0.37847(7) 0.74155(10)
S5 S -0.2357(2) 0.02483(7) 0.47540(9)
S6 S -0.0645(2) 0.14757(7) 0.42476(8)
N1 N 0.3137(5) 0.07895(17) 0.8993(2)
N2 N 0.4533(5) 0.01545(16) 0.8096(2)
N3 N 0.8379(5) 0.24027(17) 0.8457(2)
N4 N 0.5846(5) 0.26407(19) 0.7369(2)
N5 N -0.1394(4) 0.06997(15) 0.6129(2)
N6 N 0.0176(5) 0.15969(17) 0.5740(2)
N7 N 0.1755(7) 0.0741(3) 0.7183(3)
N8 N 0.1538(7) 0.0197(5) 0.7101(4)
N9 N 0.1287(10) -0.0284(4) 0.7063(5)
N10 N 0.5911(7) 0.1474(2) 0.8559(3)
N11 N 0.6501(7) 0.15148(18) 0.9234(3)
N12 N 0.7044(8) 0.1572(2) 0.9876(3)
N13 N 0.5011(6) 0.12951(18) 0.7069(3)
N14 N 0.4608(6) 0.12009(19) 0.6396(3)
N15 N 0.4245(8) 0.1107(3) 0.5752(3)
N16 N 0.8724(6) 0.11420(19) 0.7789(3)
N17 N 0.8834(5) 0.0703(2) 0.8164(3)
N18 N 0.8932(7) 0.0276(3) 0.8505(3)
N19 N 0.8042(8) 0.19731(19) 0.6709(3)
N20 N 0.7971(7) 0.2406(2) 0.6336(3)
N21 N 0.7890(8) 0.2829(2) 0.5966(3)
N22 N 0.2058(15) 0.2171(2) 0.7753(6)
C1 C 0.2344(8) 0.1093(2) 0.9517(3)
H1 H 0.1444 0.1300 0.9217
H2 H 0.3040 0.1383 0.9815
C2 C 0.1816(7) 0.0663(2) 1.0070(3)
H3 H 0.0687 0.0649 0.9969
H4 H 0.2213 0.0782 1.0604
C3 C 0.3304(5) 0.0244(2) 0.9137(3)
C4 C 0.4052(5) -0.01096(19) 0.8631(3)
C5 C 0.4830(8) -0.0883(2) 0.7810(4)
H5 H 0.5723 -0.1139 0.7837
H6 H 0.3976 -0.1029 0.7408
C6 C 0.5230(7) -0.0258(2) 0.7635(3)
H7 H 0.6353 -0.0208 0.7755
H8 H 0.4841 -0.0177 0.7087
C7 C 0.9744(7) 0.2341(2) 0.9098(3)
H9 H 1.0588 0.2161 0.8910
H10 H 0.9491 0.2085 0.9492
C8 C 1.0259(9) 0.2930(3) 0.9449(4)
H11 H 1.1341 0.3000 0.9438
H12 H 1.0162 0.2942 0.9985
C9 C 0.7987(6) 0.2935(2) 0.8323(3)
C10 C 0.6634(6) 0.3072(2) 0.7708(3)
C11 C 0.4593(7) 0.2848(3) 0.6736(4)
H13 H 0.3602 0.2696 0.6804
H14 H 0.4760 0.2703 0.6245
C12 C 0.4547(10) 0.3496(4) 0.6723(6)
H15 H 0.3573 0.3631 0.6832
H16 H 0.4600 0.3636 0.6212
C13 C -0.2323(6) 0.0192(2) 0.6267(3)
H17 H -0.3279 0.0327 0.6397
H18 H -0.1744 -0.0037 0.6700
C14 C -0.2702(9) -0.0185(3) 0.5557(3)
H19 H -0.3783 -0.0309 0.5457
H20 H -0.2048 -0.0534 0.5627
C15 C -0.1385(6) 0.0759(2) 0.5415(3)
C16 C -0.0577(6) 0.1283(2) 0.5203(3)
C17 C 0.0945(7) 0.2094(2) 0.5445(3)
H21 H 0.2047 0.2012 0.5505
H22 H 0.0835 0.2450 0.5733
C18 C 0.0190(8) 0.2177(2) 0.4603(3)
H23 H 0.0956 0.2299 0.4317
H24 H -0.0615 0.2476 0.4543
N23 N 0.1946(8) 0.1785(4) 0.7600(4)
N24 N 0.2028(10) 0.2670(5) 0.7823(5)
N16_2 N -0.1276(6) 0.11420(19) 0.7789(3)
N19_2 N -0.1958(8) 0.19731(19) 0.6709(3)
Co3_2 Co 0.98864(10) 0.13481(3) 0.68805(4)
loop_
_geom_bond_atom_site_label_1
_geom_bond_atom_site_label_2
_geom_bond_site_symmetry_1
_geom_bond_site_symmetry_2
Co1 N1 1_555 1_555
Co2 N3 1_555 1_555
Co3 N5 1_555 1_555
S1 C2 1_555 1_555
S2 C4 1_555 1_555
S3 C8 1_555 1_555
S4 C10 1_555 1_555
S5 C14 1_555 1_555
S6 C16 1_555 1_555
N1 C1 1_555 1_555
N2 Co1 1_555 1_555
N3 C7 1_555 1_555
N4 Co2 1_555 1_555
N5 C13 1_555 1_555
N6 Co3 1_555 1_555
N7 Co1 1_555 1_555
N8 N7 1_555 1_555
N9 N8 1_555 1_555
N10 Co1 1_555 1_555
N11 N10 1_555 1_555
N12 N11 1_555 1_555
N13 Co1 1_555 1_555
N14 N13 1_555 1_555
N15 N14 1_555 1_555
N16 Co2 1_555 1_555
N17 N16 1_555 1_555
N18 N17 1_555 1_555
N19 Co2 1_555 1_555
N20 N19 1_555 1_555
N21 N20 1_555 1_555
N22 N23 1_555 1_555
C1 H1 1_555 1_555
H2 C1 1_555 1_555
C2 C1 1_555 1_555
H3 C2 1_555 1_555
H4 C2 1_555 1_555
C3 S1 1_555 1_555
C4 N2 1_555 1_555
C5 S2 1_555 1_555
H5 C5 1_555 1_555
H6 C5 1_555 1_555
C6 N2 1_555 1_555
H7 C6 1_555 1_555
H8 C6 1_555 1_555
C7 H9 1_555 1_555
H10 C7 1_555 1_555
C8 C7 1_555 1_555
H11 C8 1_555 1_555
H12 C8 1_555 1_555
C9 S3 1_555 1_555
C10 N4 1_555 1_555
C11 N4 1_555 1_555
H13 C11 1_555 1_555
H14 C11 1_555 1_555
C12 S4 1_555 1_555
H15 C12 1_555 1_555
H16 C12 1_555 1_555
C13 H17 1_555 1_555
H18 C13 1_555 1_555
C14 C13 1_555 1_555
H19 C14 1_555 1_555
H20 C14 1_555 1_555
C15 S5 1_555 1_555
C16 N6 1_555 1_555
C17 N6 1_555 1_555
H21 C17 1_555 1_555
H22 C17 1_555 1_555
C18 S6 1_555 1_555
H23 C18 1_555 1_555
H24 C18 1_555 1_555
N23 Co1 1_555 1_555
N24 N22 1_555 1_555
N16_2 Co3 1_555 1_555
N19_2 Co3 1_555 1_555
Co3_2 N16 1_555 1_555
Co2 N10 1_555 1_555
Co2 N13 1_555 1_555
Co3 N7 1_555 1_555
Co3 N23 1_555 1_555
N1 C3 1_555 1_555
N3 C9 1_555 1_555
N5 C15 1_555 1_555
N19 Co3_2 1_555 1_555
C3 C4 1_555 1_555
C5 C6 1_555 1_555
C9 C10 1_555 1_555
C11 C12 1_555 1_555
C15 C16 1_555 1_555
C17 C18 1_555 1_555

#END
