
#######################################################################
#
#                 Cambridge Crystallographic Data Centre
#                                CCDC 
#
#######################################################################
#
# If this CIF has been generated from an entry in the Cambridge 
# Structural Database, then it will include bibliographic, chemical, 
# crystal, experimental, refinement or atomic coordinate data resulting 
# from the CCDC's data processing and validation procedures.
#
#######################################################################

data_IQAHEO
_symmetry_cell_setting           triclinic
_symmetry_space_group_name_H-M   'P -1'
_symmetry_Int_Tables_number      2
_space_group_name_Hall           '-P 1'
loop_
_symmetry_equiv_pos_site_id
_symmetry_equiv_pos_as_xyz
1 x,y,z
2 -x,-y,-z
_cell_length_a                   11.5024(3)
_cell_length_b                   11.8679(3)
_cell_length_c                   17.5565(5)
_cell_angle_alpha                75.4450(10)
_cell_angle_beta                 79.9660(10)
_cell_angle_gamma                87.2820(10)
_cell_volume                     2284.21
loop_
_atom_site_label
_atom_site_type_symbol
_atom_site_fract_x
_atom_site_fract_y
_atom_site_fract_z
Ni1 Ni 0.17495(3) 0.36788(3) 0.23350(3)
Ni2 Ni 0.31426(3) 0.20718(3) 0.24181(2)
Ni3 Ni -0.54518(3) 1.04763(3) 0.24902(2)
O1 O 0.0520(2) 0.4919(2) 0.23788(17)
O2 O 0.0878(3) 0.6257(3) 0.12165(18)
O3 O -0.4438(3) 0.7971(3) 0.35987(18)
O4 O -0.4191(2) 0.9247(2) 0.24310(15)
N1 N 0.2060(2) 0.3637(2) 0.11406(18)
N2 N 0.3825(2) 0.2715(2) 0.13397(15)
N3 N 0.5547(2) 0.1716(2) 0.15697(15)
N4 N 0.3265(2) 0.4635(2) 0.22171(17)
N5 N 0.4206(2) 0.2928(2) 0.27528(16)
N6 N 0.5105(2) 0.1215(2) 0.33275(15)
N7 N 0.1697(2) 0.3253(2) 0.35823(17)
N8 N 0.2467(2) 0.1440(2) 0.34976(15)
N9 N 0.3158(2) -0.0368(2) 0.33662(16)
N10 N 0.0535(2) 0.2338(2) 0.25167(18)
N11 N 0.2069(2) 0.1194(2) 0.20988(17)
N12 N 0.3639(2) 0.0129(2) 0.16337(16)
C1 C 0.1191(4) 0.3935(3) 0.0699(3)
H1 H 0.0478 0.4198 0.0935
C2 C 0.1301(4) 0.3871(4) -0.0068(3)
H2 H 0.0675 0.4074 -0.0347
C3 C 0.2363(4) 0.3499(5) -0.0428(3)
H3 H 0.2474 0.3479 -0.0962
C4 C 0.3250(4) 0.3159(4) 0.0008(2)
H4 H 0.3967 0.2903 -0.0228
C5 C 0.3077(3) 0.3197(3) 0.0818(2)
C6 C 0.5024(3) 0.2610(2) 0.11063(19)
C7 C 0.5702(3) 0.3404(3) 0.0473(2)
H5 H 0.5335 0.4006 0.0149
C8 C 0.6901(3) 0.3291(3) 0.0335(2)
H6 H 0.7353 0.3810 -0.0088
C9 C 0.7439(3) 0.2402(3) 0.0826(2)
H7 H 0.8256 0.2323 0.0750
C10 C 0.6735(3) 0.1635(3) 0.1432(2)
H8 H 0.7097 0.1033 0.1761
C11 C 0.3286(4) 0.5795(3) 0.1913(3)
H9 H 0.2621 0.6154 0.1723
C12 C 0.4227(5) 0.6469(3) 0.1870(3)
H10 H 0.4189 0.7273 0.1683
C13 C 0.5229(4) 0.5945(4) 0.2106(3)
H11 H 0.5889 0.6389 0.2073
C14 C 0.5260(4) 0.4769(3) 0.2390(2)
H12 H 0.5951 0.4402 0.2532
C15 C 0.4253(3) 0.4115(3) 0.24669(19)
C16 C 0.4855(2) 0.2344(3) 0.33177(18)
C17 C 0.5180(3) 0.2828(3) 0.3901(2)
H13 H 0.5005 0.3603 0.3893
C18 C 0.5751(4) 0.2169(4) 0.4478(2)
H14 H 0.5966 0.2487 0.4866
C19 C 0.6003(3) 0.1026(4) 0.4478(2)
H15 H 0.6403 0.0562 0.4860
C20 C 0.5658(3) 0.0583(3) 0.3911(2)
H16 H 0.5812 -0.0198 0.3927
C21 C 0.1355(4) 0.4044(4) 0.4007(3)
H17 H 0.1145 0.4784 0.3736
C22 C 0.1300(4) 0.3818(4) 0.4814(3)
H18 H 0.1032 0.4382 0.5088
C23 C 0.1650(4) 0.2740(4) 0.5211(3)
H19 H 0.1626 0.2567 0.5760
C24 C 0.2033(3) 0.1926(4) 0.4797(2)
H20 H 0.2287 0.1200 0.5061
C25 C 0.2043(3) 0.2189(3) 0.3963(2)
C26 C 0.2365(3) 0.0258(3) 0.3755(2)
C27 C 0.1452(3) -0.0315(3) 0.4343(3)
H21 H 0.0914 0.0109 0.4622
C28 C 0.1354(4) -0.1495(4) 0.4504(3)
H22 H 0.0762 -0.1878 0.4903
C29 C 0.2125(4) -0.2114(3) 0.4081(3)
H23 H 0.2053 -0.2917 0.4173
C30 C 0.3010(3) -0.1522(3) 0.3515(2)
H24 H 0.3531 -0.1939 0.3220
C31 C -0.0603(3) 0.2480(4) 0.2822(3)
H25 H -0.0835 0.3190 0.2935
C32 C -0.1436(3) 0.1634(4) 0.2974(3)
H26 H -0.2219 0.1772 0.3172
C33 C -0.1087(4) 0.0574(4) 0.2826(3)
H27 H -0.1635 -0.0020 0.2932
C34 C 0.0068(3) 0.0394(3) 0.2523(3)
H28 H 0.0311 -0.0324 0.2428
C35 C 0.0881(3) 0.1306(3) 0.2356(2)
C36 C 0.2512(3) 0.0488(3) 0.1602(2)
C37 C 0.1901(3) 0.0219(4) 0.1043(3)
H29 H 0.1124 0.0464 0.1025
C38 C 0.2453(4) -0.0401(4) 0.0530(3)
H30 H 0.2047 -0.0597 0.0167
C39 C 0.3629(4) -0.0747(3) 0.0545(2)
H31 H 0.4027 -0.1158 0.0192
C40 C 0.4169(3) -0.0455(3) 0.1100(2)
H32 H 0.4954 -0.0672 0.1111
C41 C 0.0318(3) 0.5857(3) 0.1889(3)
C42 C -0.0774(3) 0.6534(3) 0.2167(2)
C43 C -0.1533(3) 0.6041(3) 0.2864(2)
H33 H -0.1369 0.5310 0.3173
C44 C -0.2546(3) 0.6650(3) 0.3099(2)
H34 H -0.3055 0.6321 0.3568
C45 C -0.2801(3) 0.7730(3) 0.2647(2)
C46 C -0.2022(3) 0.8215(3) 0.1957(2)
H35 H -0.2174 0.8950 0.1649
C47 C -0.1020(3) 0.7614(3) 0.1724(2)
H36 H -0.0506 0.7949 0.1259
C48 C -0.3907(3) 0.8368(3) 0.2917(2)
Ni2_2 Ni -0.68574(3) 1.20718(3) 0.24181(2)
Ni3_2 Ni 0.45482(3) 0.04763(3) 0.24902(2)
N3_2 N -0.4453(2) 1.1716(2) 0.15697(15)
N6_2 N -0.4895(2) 1.1215(2) 0.33275(15)
N9_2 N -0.6842(2) 0.9632(2) 0.33662(16)
N12_2 N -0.6361(2) 1.0129(2) 0.16337(16)
O5 O -0.5403(14) 0.5639(8) 0.4359(7)
loop_
_geom_bond_atom_site_label_1
_geom_bond_atom_site_label_2
_geom_bond_site_symmetry_1
_geom_bond_site_symmetry_2
Ni1 Ni2 1_555 1_555
Ni2 N2 1_555 1_555
Ni3 O4 1_555 1_555
O1 Ni1 1_555 1_555
O2 C41 1_555 1_555
O3 C48 1_555 1_555
O4 C48 1_555 1_555
N1 Ni1 1_555 1_555
N2 C5 1_555 1_555
N3 C6 1_555 1_555
N4 Ni1 1_555 1_555
N5 Ni2 1_555 1_555
N6 C16 1_555 1_555
N7 Ni1 1_555 1_555
N8 Ni2 1_555 1_555
N9 C26 1_555 1_555
N10 Ni1 1_555 1_555
N11 Ni2 1_555 1_555
N12 C36 1_555 1_555
C1 N1 1_555 1_555
H1 C1 1_555 1_555
C2 C1 1_555 1_555
H2 C2 1_555 1_555
C3 C2 1_555 1_555
H3 C3 1_555 1_555
C4 C3 1_555 1_555
H4 C4 1_555 1_555
C5 N1 1_555 1_555
C6 N2 1_555 1_555
C7 C6 1_555 1_555
H5 C7 1_555 1_555
C8 C7 1_555 1_555
H6 C8 1_555 1_555
C9 C8 1_555 1_555
H7 C9 1_555 1_555
C10 N3 1_555 1_555
H8 C10 1_555 1_555
C11 N4 1_555 1_555
H9 C11 1_555 1_555
C12 C11 1_555 1_555
H10 C12 1_555 1_555
C13 C12 1_555 1_555
H11 C13 1_555 1_555
C14 C13 1_555 1_555
H12 C14 1_555 1_555
C15 N4 1_555 1_555
C16 N5 1_555 1_555
C17 C16 1_555 1_555
H13 C17 1_555 1_555
C18 C17 1_555 1_555
H14 C18 1_555 1_555
C19 C18 1_555 1_555
H15 C19 1_555 1_555
C20 N6 1_555 1_555
H16 C20 1_555 1_555
C21 N7 1_555 1_555
H17 C21 1_555 1_555
C22 C21 1_555 1_555
H18 C22 1_555 1_555
C23 C22 1_555 1_555
H19 C23 1_555 1_555
C24 C23 1_555 1_555
H20 C24 1_555 1_555
C25 N7 1_555 1_555
C26 N8 1_555 1_555
C27 C26 1_555 1_555
H21 C27 1_555 1_555
C28 C27 1_555 1_555
H22 C28 1_555 1_555
C29 C28 1_555 1_555
H23 C29 1_555 1_555
C30 N9 1_555 1_555
H24 C30 1_555 1_555
C31 N10 1_555 1_555
H25 C31 1_555 1_555
C32 C31 1_555 1_555
H26 C32 1_555 1_555
C33 C32 1_555 1_555
H27 C33 1_555 1_555
C34 C33 1_555 1_555
H28 C34 1_555 1_555
C35 N10 1_555 1_555
C36 N11 1_555 1_555
C37 C36 1_555 1_555
H29 C37 1_555 1_555
C38 C37 1_555 1_555
H30 C38 1_555 1_555
C39 C38 1_555 1_555
H31 C39 1_555 1_555
C40 N12 1_555 1_555
H32 C40 1_555 1_555
C41 O1 1_555 1_555
C42 C41 1_555 1_555
C43 C42 1_555 1_555
H33 C43 1_555 1_555
C44 C43 1_555 1_555
H34 C44 1_555 1_555
C45 C44 1_555 1_555
C46 C45 1_555 1_555
H35 C46 1_555 1_555
C47 C42 1_555 1_555
H36 C47 1_555 1_555
C48 C45 1_555 1_555
Ni2_2 Ni3 1_555 1_555
Ni3_2 Ni2 1_555 1_555
N3_2 Ni3 1_555 1_555
N6_2 Ni3 1_555 1_555
N9_2 Ni3 1_555 1_555
N12_2 Ni3 1_555 1_555
N3 Ni3_2 1_555 1_555
N5 C15 1_555 1_555
N6 Ni3_2 1_555 1_555
N8 C25 1_555 1_555
N9 Ni3_2 1_555 1_555
N11 C35 1_555 1_555
N12 Ni3_2 1_555 1_555
C4 C5 1_555 1_555
C9 C10 1_555 1_555
C14 C15 1_555 1_555
C19 C20 1_555 1_555
C24 C25 1_555 1_555
C29 C30 1_555 1_555
C34 C35 1_555 1_555
C39 C40 1_555 1_555
C46 C47 1_555 1_555

#END
