
#######################################################################
#
#                 Cambridge Crystallographic Data Centre
#                                CCDC 
#
#######################################################################
#
# If this CIF has been generated from an entry in the Cambridge 
# Structural Database, then it will include bibliographic, chemical, 
# crystal, experimental, refinement or atomic coordinate data resulting 
# from the CCDC's data processing and validation procedures.
#
#######################################################################

data_IQALAO
_symmetry_cell_setting           triclinic
_symmetry_space_group_name_H-M   'P -1'
_symmetry_Int_Tables_number      2
_space_group_name_Hall           '-P 1'
loop_
_symmetry_equiv_pos_site_id
_symmetry_equiv_pos_as_xyz
1 x,y,z
2 -x,-y,-z
_cell_length_a                   11.7193(7)
_cell_length_b                   12.2768(7)
_cell_length_c                   13.4035(8)
_cell_angle_alpha                93.7720(10)
_cell_angle_beta                 95.0310(10)
_cell_angle_gamma                94.8300(10)
_cell_volume                     1908.98
loop_
_atom_site_label
_atom_site_type_symbol
_atom_site_fract_x
_atom_site_fract_y
_atom_site_fract_z
Pb1 Pb 0.702025(14) 0.250860(13) 0.266693(12)
S1 S 0.64088(12) -0.06764(9) 0.28932(9)
S2 S 0.88756(10) 0.51728(11) 0.19598(9)
O1 O 0.6764(3) 0.0454(3) 0.3254(3)
O2 O 0.7249(4) -0.1173(3) 0.2329(3)
O3 O 0.6034(4) -0.1308(3) 0.3693(3)
O4 O 0.6891(3) 0.0674(3) 0.1190(2)
O5 O 0.7904(3) 0.4347(3) 0.1864(3)
O6 O 0.9970(3) 0.4732(3) 0.1875(3)
O7 O 0.8687(4) 0.6041(3) 0.1300(3)
O8 O 0.9321(3) 0.3545(3) 0.3471(3)
N1 N 0.4900(3) 0.1958(3) 0.2851(3)
N2 N 0.5574(3) 0.2912(3) 0.1179(3)
N3 N 0.7273(3) 0.2699(3) 0.4640(3)
N4 N 0.6301(3) 0.4231(3) 0.3522(3)
C1 C 0.6044(4) 0.0293(3) 0.0657(3)
C2 C 0.5083(4) -0.0344(3) 0.1047(3)
C3 C 0.5127(4) -0.0707(3) 0.2028(3)
C4 C 0.4134(5) -0.1216(4) 0.2345(4)
H1 H 0.4152 -0.1458 0.2989
C5 C 0.3119(5) -0.1371(5) 0.1725(4)
H2 H 0.2459 -0.1686 0.1967
C6 C 0.3074(4) -0.1066(4) 0.0758(4)
H3 H 0.2397 -0.1200 0.0334
C7 C 0.4056(4) -0.0554(3) 0.0420(3)
C8 C 0.9710(4) 0.4255(4) 0.4126(3)
C9 C 0.9434(3) 0.5404(3) 0.4076(3)
C10 C 0.8952(4) 0.5840(4) 0.3205(3)
C11 C 0.8583(4) 0.6869(4) 0.3275(4)
H4 H 0.8255 0.7149 0.2700
C12 C 0.8682(5) 0.7502(4) 0.4170(4)
H5 H 0.8379 0.8179 0.4206
C13 C 0.9234(4) 0.7126(4) 0.5012(4)
H6 H 0.9354 0.7569 0.5609
C14 C 0.9614(4) 0.6077(4) 0.4967(3)
C15 C 0.4105(4) 0.2034(4) 0.2062(4)
C16 C 0.4567(5) 0.1515(4) 0.3660(4)
H7 H 0.5113 0.1462 0.4198
C17 C 0.3413(5) 0.1118(5) 0.3743(5)
H8 H 0.3202 0.0822 0.4328
C18 C 0.2625(5) 0.1177(5) 0.2959(5)
H9 H 0.1864 0.0912 0.2999
C19 C 0.2947(4) 0.1638(4) 0.2078(5)
C20 C 0.2161(5) 0.1701(6) 0.1204(6)
H10 H 0.1399 0.1418 0.1201
C21 C 0.2515(5) 0.2166(6) 0.0385(6)
H11 H 0.1988 0.2205 -0.0169
C22 C 0.3657(5) 0.2591(4) 0.0352(4)
C23 C 0.4055(6) 0.3091(5) -0.0487(5)
H12 H 0.3549 0.3153 -0.1051
C24 C 0.5158(6) 0.3476(5) -0.0470(4)
H13 H 0.5422 0.3813 -0.1018
C25 C 0.5906(5) 0.3368(4) 0.0372(4)
H14 H 0.6674 0.3627 0.0369
C26 C 0.4466(4) 0.2525(4) 0.1180(4)
C27 C 0.7156(4) 0.3700(3) 0.5095(3)
C28 C 0.7805(4) 0.1978(4) 0.5165(4)
H15 H 0.7890 0.1295 0.4851
C29 C 0.8240(4) 0.2201(4) 0.6164(4)
H16 H 0.8615 0.1679 0.6506
C30 C 0.8110(4) 0.3199(4) 0.6635(3)
H17 H 0.8391 0.3357 0.7304
C31 C 0.7556(4) 0.3978(4) 0.6113(3)
C32 C 0.7387(5) 0.5047(4) 0.6554(4)
H18 H 0.7647 0.5238 0.7223
C33 C 0.6859(5) 0.5773(4) 0.6010(4)
H19 H 0.6747 0.6454 0.6315
C34 C 0.6466(4) 0.5525(4) 0.4980(3)
C35 C 0.5954(4) 0.6279(4) 0.4384(4)
H20 H 0.5842 0.6969 0.4668
C36 C 0.5620(5) 0.6012(4) 0.3396(4)
H21 H 0.5274 0.6507 0.2998
C37 C 0.5814(4) 0.4962(4) 0.2994(4)
H22 H 0.5585 0.4776 0.2318
C38 C 0.6624(4) 0.4493(3) 0.4510(3)
Pb1A Pb 0.297975(14) -0.250860(13) -0.266693(12)
Pb1A_2 Pb 1.297975(14) 0.749140(13) 0.733307(12)
S1A S 0.35912(12) 0.06764(9) -0.28932(9)
S2A S 1.11244(10) 0.48272(11) 0.80402(9)
O1A O 0.3236(3) -0.0454(3) -0.3254(3)
O2A O 0.2751(4) 0.1173(3) -0.2329(3)
O3A O 0.3966(4) 0.1308(3) -0.3693(3)
O4A O 0.3109(3) -0.0674(3) -0.1190(2)
O5A O 1.2096(3) 0.5653(3) 0.8136(3)
O5A_2 O 0.2096(3) -0.4347(3) -0.1864(3)
O6A O 1.0030(3) 0.5268(3) 0.8125(3)
O7A O 1.1313(4) 0.3959(3) 0.8700(3)
O8A O 1.0679(3) 0.6455(3) 0.6529(3)
N1A N 0.5100(3) -0.1958(3) -0.2851(3)
N2A N 0.4426(3) -0.2912(3) -0.1179(3)
N3A N 0.2727(3) -0.2699(3) -0.4640(3)
N4A N 0.3699(3) -0.4231(3) -0.3522(3)
C1A C 0.3956(4) -0.0293(3) -0.0657(3)
C2A C 0.4917(4) 0.0344(3) -0.1047(3)
C3A C 0.4873(4) 0.0707(3) -0.2028(3)
C4A C 0.5866(5) 0.1216(4) -0.2345(4)
H1A H 0.5848 0.1458 -0.2989
C5A C 0.6881(5) 0.1371(5) -0.1725(4)
H2A H 0.7541 0.1686 -0.1967
C6A C 0.6926(4) 0.1066(4) -0.0758(4)
H3A H 0.7603 0.1200 -0.0334
C7A C 0.5944(4) 0.0554(3) -0.0420(3)
C8A C 1.0290(4) 0.5745(4) 0.5874(3)
C9A C 1.0566(3) 0.4596(3) 0.5924(3)
C10A C 1.1048(4) 0.4160(4) 0.6795(3)
C11A C 1.1417(4) 0.3131(4) 0.6725(4)
H4A H 1.1745 0.2851 0.7300
C12A C 1.1318(5) 0.2498(4) 0.5830(4)
H5A H 1.1621 0.1821 0.5794
C13A C 1.0766(4) 0.2874(4) 0.4988(4)
H6A H 1.0646 0.2431 0.4391
C14A C 1.0386(4) 0.3923(4) 0.5033(3)
C15A C 0.5895(4) -0.2034(4) -0.2062(4)
C16A C 0.5433(5) -0.1515(4) -0.3660(4)
H7A H 0.4887 -0.1462 -0.4198
C17A C 0.6587(5) -0.1118(5) -0.3743(5)
H8A H 0.6798 -0.0822 -0.4328
C18A C 0.7375(5) -0.1177(5) -0.2959(5)
H9A H 0.8136 -0.0912 -0.2999
C19A C 0.7053(4) -0.1638(4) -0.2078(5)
C20A C 0.7839(5) -0.1701(6) -0.1204(6)
H10A H 0.8601 -0.1418 -0.1201
C21A C 0.7485(5) -0.2166(6) -0.0385(6)
H11A H 0.8012 -0.2205 0.0169
C22A C 0.6343(5) -0.2591(4) -0.0352(4)
C23A C 0.5945(6) -0.3091(5) 0.0487(5)
H12A H 0.6451 -0.3153 0.1051
C24A C 0.4842(6) -0.3476(5) 0.0470(4)
H13A H 0.4578 -0.3813 0.1018
C25A C 0.4094(5) -0.3368(4) -0.0372(4)
H14A H 0.3326 -0.3627 -0.0369
C26A C 0.5534(4) -0.2525(4) -0.1180(4)
C27A C 0.2844(4) -0.3700(3) -0.5095(3)
C28A C 0.2195(4) -0.1978(4) -0.5165(4)
H15A H 0.2110 -0.1295 -0.4851
C29A C 0.1760(4) -0.2201(4) -0.6164(4)
H16A H 0.1385 -0.1679 -0.6506
C30A C 0.1890(4) -0.3199(4) -0.6635(3)
H17A H 0.1609 -0.3357 -0.7304
C31A C 0.2444(4) -0.3978(4) -0.6113(3)
C32A C 0.2613(5) -0.5047(4) -0.6554(4)
H18A H 0.2353 -0.5238 -0.7223
C33A C 0.3141(5) -0.5773(4) -0.6010(4)
H19A H 0.3253 -0.6454 -0.6315
C34A C 0.3534(4) -0.5525(4) -0.4980(3)
C35A C 0.4046(4) -0.6279(4) -0.4384(4)
H20A H 0.4158 -0.6969 -0.4668
C36A C 0.4380(5) -0.6012(4) -0.3396(4)
H21A H 0.4726 -0.6507 -0.2998
C37A C 0.4186(4) -0.4962(4) -0.2994(4)
H22A H 0.4415 -0.4776 -0.2318
C38A C 0.3376(4) -0.4493(3) -0.4510(3)
O9 O 0.9334(5) 0.2270(5) 0.1387(7)
H23 H 0.9620 0.2840 0.1748
H24 H 0.9360 0.2282 0.0754
O10 O 0.1938(5) 0.5111(5) 0.0761(4)
H25 H 0.1787 0.4719 0.1242
H26 H 0.1731 0.4833 0.0169
O11 O 0.9327(9) 0.2842(10) 0.9408(10)
O12 O 0.0318(12) 0.0175(8) 0.4042(11)
O13 O 0.9298(8) 1.0155(12) 0.2104(13)
O14? O 0.9737(14) 0.2000(16) 0.8830(16)
loop_
_geom_bond_atom_site_label_1
_geom_bond_atom_site_label_2
_geom_bond_site_symmetry_1
_geom_bond_site_symmetry_2
Pb1 O1 1_555 1_555
S1 O1 1_555 1_555
S2 O5 1_555 1_555
O2 S1 1_555 1_555
O3 S1 1_555 1_555
O4 C1 1_555 1_555
O5 Pb1 1_555 1_555
O6 S2 1_555 1_555
O7 S2 1_555 1_555
O8 C8 1_555 1_555
N1 Pb1 1_555 1_555
N2 Pb1 1_555 1_555
N3 Pb1 1_555 1_555
N4 Pb1 1_555 1_555
C1 C2 1_555 1_555
C2 C3 1_555 1_555
C3 S1 1_555 1_555
C4 C3 1_555 1_555
H1 C4 1_555 1_555
C5 C4 1_555 1_555
H2 C5 1_555 1_555
C6 C5 1_555 1_555
H3 C6 1_555 1_555
C7 C2 1_555 1_555
C8 C9 1_555 1_555
C9 C10 1_555 1_555
C10 S2 1_555 1_555
C11 C10 1_555 1_555
H4 C11 1_555 1_555
C12 C11 1_555 1_555
H5 C12 1_555 1_555
C13 C12 1_555 1_555
H6 C13 1_555 1_555
C14 C9 1_555 1_555
C15 N1 1_555 1_555
C16 N1 1_555 1_555
H7 C16 1_555 1_555
C17 C16 1_555 1_555
H8 C17 1_555 1_555
C18 C17 1_555 1_555
H9 C18 1_555 1_555
C19 C15 1_555 1_555
C20 C19 1_555 1_555
H10 C20 1_555 1_555
C21 C20 1_555 1_555
H11 C21 1_555 1_555
C22 C21 1_555 1_555
C23 C22 1_555 1_555
H12 C23 1_555 1_555
C24 C23 1_555 1_555
H13 C24 1_555 1_555
C25 N2 1_555 1_555
H14 C25 1_555 1_555
C26 N2 1_555 1_555
C27 N3 1_555 1_555
C28 N3 1_555 1_555
H15 C28 1_555 1_555
C29 C28 1_555 1_555
H16 C29 1_555 1_555
C30 C29 1_555 1_555
H17 C30 1_555 1_555
C31 C27 1_555 1_555
C32 C31 1_555 1_555
H18 C32 1_555 1_555
C33 C32 1_555 1_555
H19 C33 1_555 1_555
C34 C33 1_555 1_555
C35 C34 1_555 1_555
H20 C35 1_555 1_555
C36 C35 1_555 1_555
H21 C36 1_555 1_555
C37 N4 1_555 1_555
H22 C37 1_555 1_555
C38 N4 1_555 1_555
O9 H23 1_555 1_555
H24 O9 1_555 1_555
O10 H25 1_555 1_555
H26 O10 1_555 1_555
Pb1A O1A 1_555 1_555
Pb1A_2 O5A 1_555 1_555
S1A O1A 1_555 1_555
S2A O5A 1_555 1_555
O2A S1A 1_555 1_555
O3A S1A 1_555 1_555
O4A C1A 1_555 1_555
O5A_2 Pb1A 1_555 1_555
O6A S2A 1_555 1_555
O7A S2A 1_555 1_555
O8A C8A 1_555 1_555
N1A Pb1A 1_555 1_555
N2A Pb1A 1_555 1_555
N3A Pb1A 1_555 1_555
N4A Pb1A 1_555 1_555
C1A C7 1_555 1_555
C2A C1A 1_555 1_555
C3A S1A 1_555 1_555
C4A C3A 1_555 1_555
H1A C4A 1_555 1_555
C5A C4A 1_555 1_555
H2A C5A 1_555 1_555
C6A C5A 1_555 1_555
H3A C6A 1_555 1_555
C7A C1 1_555 1_555
C8A C14 1_555 1_555
C9A C8A 1_555 1_555
C10A S2A 1_555 1_555
C11A C10A 1_555 1_555
H4A C11A 1_555 1_555
C12A C11A 1_555 1_555
H5A C12A 1_555 1_555
C13A C12A 1_555 1_555
H6A C13A 1_555 1_555
C14A C8 1_555 1_555
C15A N1A 1_555 1_555
C16A N1A 1_555 1_555
H7A C16A 1_555 1_555
C17A C16A 1_555 1_555
H8A C17A 1_555 1_555
C18A C17A 1_555 1_555
H9A C18A 1_555 1_555
C19A C15A 1_555 1_555
C20A C19A 1_555 1_555
H10A C20A 1_555 1_555
C21A C20A 1_555 1_555
H11A C21A 1_555 1_555
C22A C21A 1_555 1_555
C23A C22A 1_555 1_555
H12A C23A 1_555 1_555
C24A C23A 1_555 1_555
H13A C24A 1_555 1_555
C25A N2A 1_555 1_555
H14A C25A 1_555 1_555
C26A N2A 1_555 1_555
C27A N3A 1_555 1_555
C28A N3A 1_555 1_555
H15A C28A 1_555 1_555
C29A C28A 1_555 1_555
H16A C29A 1_555 1_555
C30A C29A 1_555 1_555
H17A C30A 1_555 1_555
C31A C27A 1_555 1_555
C32A C31A 1_555 1_555
H18A C32A 1_555 1_555
C33A C32A 1_555 1_555
H19A C33A 1_555 1_555
C34A C33A 1_555 1_555
C35A C34A 1_555 1_555
H20A C35A 1_555 1_555
C36A C35A 1_555 1_555
H21A C36A 1_555 1_555
C37A N4A 1_555 1_555
H22A C37A 1_555 1_555
C38A N4A 1_555 1_555
C6 C7 1_555 1_555
C13 C14 1_555 1_555
C15 C26 1_555 1_555
C18 C19 1_555 1_555
C22 C26 1_555 1_555
C24 C25 1_555 1_555
C27 C38 1_555 1_555
C30 C31 1_555 1_555
C34 C38 1_555 1_555
C36 C37 1_555 1_555
C2A C3A 1_555 1_555
C2A C7A 1_555 1_555
C6A C7A 1_555 1_555
C9A C10A 1_555 1_555
C9A C14A 1_555 1_555
C13A C14A 1_555 1_555
C15A C26A 1_555 1_555
C18A C19A 1_555 1_555
C22A C26A 1_555 1_555
C24A C25A 1_555 1_555
C27A C38A 1_555 1_555
C30A C31A 1_555 1_555
C34A C38A 1_555 1_555
C36A C37A 1_555 1_555

#END
