
#######################################################################
#
#                 Cambridge Crystallographic Data Centre
#                                CCDC 
#
#######################################################################
#
# If this CIF has been generated from an entry in the Cambridge 
# Structural Database, then it will include bibliographic, chemical, 
# crystal, experimental, refinement or atomic coordinate data resulting 
# from the CCDC's data processing and validation procedures.
#
#######################################################################

data_IQASIC
_symmetry_cell_setting           monoclinic
_symmetry_space_group_name_H-M   'P 21/n'
_symmetry_Int_Tables_number      14
_space_group_name_Hall           '-P 2yn'
loop_
_symmetry_equiv_pos_site_id
_symmetry_equiv_pos_as_xyz
1 x,y,z
2 1/2+x,1/2-y,1/2+z
3 -x,-y,-z
4 1/2-x,1/2+y,1/2-z
_cell_length_a                   11.3117(3)
_cell_length_b                   7.4950(2)
_cell_length_c                   20.9408(7)
_cell_angle_alpha                90
_cell_angle_beta                 98.8996(11)
_cell_angle_gamma                90
_cell_volume                     1754.01
loop_
_atom_site_label
_atom_site_type_symbol
_atom_site_fract_x
_atom_site_fract_y
_atom_site_fract_z
Cu1 Cu 0.90519(6) 0.57285(10) 0.10114(4)
Cu2 Cu 0.99352(6) 0.77845(10) -0.01202(4)
N1 N 0.7513(5) 0.5673(8) 0.1350(3)
N2 N 0.7426(5) 0.6305(8) 0.1934(3)
N3 N 0.8460(5) 0.7311(7) 0.0272(3)
N4 N 0.7509(6) 0.7961(9) 0.0103(3)
N5 N 0.6619(7) 0.8589(13) -0.0068(4)
N6 N 1.0544(5) 0.6068(6) 0.0613(3)
N7 N 1.1600(6) 0.5973(7) 0.0833(3)
N8 N 1.2584(6) 0.5868(11) 0.1029(4)
N9 N 0.9198(5) 0.9740(7) -0.0661(3)
N10 N 0.9328(5) 1.0080(7) -0.1207(4)
N11 N 0.9417(6) 1.0487(9) -0.1718(3)
N12 N 0.8806(5) 0.2855(7) 0.0632(3)
N13 N 0.8333(5) 0.1848(8) 0.0951(3)
N14 N 0.7837(6) 0.0966(10) 0.1259(4)
N15 N 0.9866(3) 0.5114(5) 0.19060(18)
C1 C 1.0867(4) 0.4016(6) 0.2005(2)
H1 H 1.1136 0.3473 0.1655
C2 C 1.1467(4) 0.3729(7) 0.2627(3)
H2 H 1.2137 0.2994 0.2694
C3 C 1.1065(5) 0.4540(9) 0.3151(2)
H3 H 1.1467 0.4347 0.3567
C4 C 1.0063(5) 0.5638(8) 0.3052(2)
H4 H 0.9795 0.6181 0.3402
C5 C 0.9464(4) 0.5925(6) 0.2429(2)
C6 C 0.8486(7) 0.7088(9) 0.2314(4)
H5 H 0.8718 0.8132 0.2089
H6 H 0.8287 0.7482 0.2725
C7 C 0.6290(8) 0.6265(11) 0.2106(5)
H7 H 0.6076 0.6633 0.2497
C8 C 0.5502(7) 0.5533(13) 0.1554(8)
H8 H 0.4681 0.5328 0.1493
C9 C 0.6442(11) 0.5191(13) 0.1091(4)
C10 C 0.6168(11) 0.435(2) 0.0538(9)
H9 H 0.6862 0.4284 0.0327
H10 H 0.5545 0.4989 0.0268
H11 H 0.5897 0.3169 0.0614
Cu2B Cu 1.00648(6) 1.22155(10) 0.01202(4)
N9B N 1.0802(5) 1.0260(7) 0.0661(3)
N12B N 1.1194(5) 0.7145(7) -0.0632(3)
Cu2B_2 Cu 1.00648(6) 0.22155(10) 0.01202(4)
loop_
_geom_bond_atom_site_label_1
_geom_bond_atom_site_label_2
_geom_bond_site_symmetry_1
_geom_bond_site_symmetry_2
Cu1 N1 1_555 1_555
Cu2 N3 1_555 1_555
N1 N2 1_555 1_555
N2 C6 1_555 1_555
N3 Cu1 1_555 1_555
N4 N3 1_555 1_555
N5 N4 1_555 1_555
N6 Cu1 1_555 1_555
N7 N6 1_555 1_555
N8 N7 1_555 1_555
N9 Cu2 1_555 1_555
N10 N9 1_555 1_555
N11 N10 1_555 1_555
N12 Cu1 1_555 1_555
N13 N12 1_555 1_555
N14 N13 1_555 1_555
N15 Cu1 1_555 1_555
C1 N15 1_555 1_555
H1 C1 1_555 1_555
C2 C1 1_555 1_555
H2 C2 1_555 1_555
C3 C2 1_555 1_555
H3 C3 1_555 1_555
C4 C3 1_555 1_555
H4 C4 1_555 1_555
C5 N15 1_555 1_555
C6 C5 1_555 1_555
H5 C6 1_555 1_555
H6 C6 1_555 1_555
C7 N2 1_555 1_555
H7 C7 1_555 1_555
C8 C7 1_555 1_555
H8 C8 1_555 1_555
C9 N1 1_555 1_555
C10 C9 1_555 1_555
H9 C10 1_555 1_555
H10 C10 1_555 1_555
H11 C10 1_555 1_555
Cu2B N9 1_555 1_555
N9B Cu2 1_555 1_555
N12B Cu2 1_555 1_555
Cu2B_2 N12 1_555 1_555
Cu2 N6 1_555 1_555
C4 C5 1_555 1_555
C8 C9 1_555 1_555
Cu2B N9B 1_555 1_555

#END
