
#######################################################################
#
#                 Cambridge Crystallographic Data Centre
#                                CCDC 
#
#######################################################################
#
# If this CIF has been generated from an entry in the Cambridge 
# Structural Database, then it will include bibliographic, chemical, 
# crystal, experimental, refinement or atomic coordinate data resulting 
# from the CCDC's data processing and validation procedures.
#
#######################################################################

data_IQASOI
_symmetry_cell_setting           monoclinic
_symmetry_space_group_name_H-M   'C 2/c'
_symmetry_Int_Tables_number      15
_space_group_name_Hall           '-C 2yn'
loop_
_symmetry_equiv_pos_site_id
_symmetry_equiv_pos_as_xyz
1 x,y,z
2 1/2+x,1/2+y,z
3 -x,y,1/2-z
4 1/2-x,1/2+y,1/2-z
5 -x,-y,-z
6 1/2-x,1/2-y,-z
7 x,-y,1/2+z
8 1/2+x,1/2-y,1/2+z
_cell_length_a                   14.16450(40)
_cell_length_b                   14.59350(40)
_cell_length_c                   12.78810(40)
_cell_angle_alpha                90
_cell_angle_beta                 109.5816(14)
_cell_angle_gamma                90
_cell_volume                     2490.54
loop_
_atom_site_label
_atom_site_type_symbol
_atom_site_fract_x
_atom_site_fract_y
_atom_site_fract_z
Mn1 Mn 0.06249(3) 0.13327(3) 0.15461(3)
N1 N 0.07140(16) 0.29086(15) 0.15994(18)
N2 N 0.27768(18) 0.22647(18) 0.1964(2)
N3 N 0.22185(18) 0.15184(16) 0.1555(2)
N4 N 0.0807(2) -0.01732(18) 0.1477(2)
N5 N 0.03963(16) -0.07592(16) 0.08772(18)
N6 N 0.0016(2) -0.13771(18) 0.0310(2)
N7 N -0.09219(17) 0.13113(16) 0.16318(19)
N8 N -0.16866(18) 0.11909(17) 0.0902(2)
N9 N -0.2437(2) 0.1094(3) 0.0190(3)
C1 C -0.0101(2) 0.3408(2) 0.1088(2)
H1 H -0.0696 0.3102 0.0721
C2 C -0.0107(3) 0.4319(3) 0.1077(3)
H2 H -0.0702 0.4630 0.0724
C3 C 0.0703(3) 0.4775(3) 0.1550(3)
H3 H 0.0696 0.5412 0.1524
C4 C 0.1544(3) 0.4334(2) 0.2070(3)
H4 H 0.2132 0.4659 0.2412
C5 C 0.1547(2) 0.33937(18) 0.2105(2)
C6 C 0.2481(2) 0.2876(2) 0.2711(3)
H5 H 0.3019 0.3307 0.3049
H6 H 0.2372 0.2518 0.3299
C7 C 0.3555(3) 0.2383(3) 0.1575(4)
H7 H 0.4024 0.2855 0.1747
C8 C 0.3491(4) 0.1587(4) 0.0809(4)
H8 H 0.3906 0.1442 0.0403
C9 C 0.2609(3) 0.1100(2) 0.0865(3)
H9 H 0.2352 0.0568 0.0472
N6D N -0.0016(2) 0.13771(18) -0.0310(2)
Mn1D Mn -0.06249(3) -0.13327(3) -0.15461(3)
Mn1B Mn -0.06249(3) 0.13327(3) 0.34539(3)
N7B N 0.09219(17) 0.13113(16) 0.33682(19)
loop_
_geom_bond_atom_site_label_1
_geom_bond_atom_site_label_2
_geom_bond_site_symmetry_1
_geom_bond_site_symmetry_2
Mn1 N1 1_555 1_555
N1 C1 1_555 1_555
N2 N3 1_555 1_555
N3 Mn1 1_555 1_555
N4 Mn1 1_555 1_555
N5 N4 1_555 1_555
N6 N5 1_555 1_555
N7 Mn1 1_555 1_555
N8 N7 1_555 1_555
N9 N8 1_555 1_555
C1 H1 1_555 1_555
C2 C1 1_555 1_555
H2 C2 1_555 1_555
C3 C2 1_555 1_555
H3 C3 1_555 1_555
C4 C3 1_555 1_555
H4 C4 1_555 1_555
C5 N1 1_555 1_555
C6 N2 1_555 1_555
H5 C6 1_555 1_555
H6 C6 1_555 1_555
C7 N2 1_555 1_555
H7 C7 1_555 1_555
C8 C7 1_555 1_555
H8 C8 1_555 1_555
C9 N3 1_555 1_555
H9 C9 1_555 1_555
N6D Mn1 1_555 1_555
Mn1D N6 1_555 1_555
Mn1B N7 1_555 1_555
N7B Mn1 1_555 1_555
C4 C5 1_555 1_555
C5 C6 1_555 1_555
C8 C9 1_555 1_555
Mn1B N7B 1_555 1_555

#END
