
#######################################################################
#
#                 Cambridge Crystallographic Data Centre
#                                CCDC 
#
#######################################################################
#
# If this CIF has been generated from an entry in the Cambridge 
# Structural Database, then it will include bibliographic, chemical, 
# crystal, experimental, refinement or atomic coordinate data resulting 
# from the CCDC's data processing and validation procedures.
#
#######################################################################

data_IQASEY
_symmetry_cell_setting           monoclinic
_symmetry_space_group_name_H-M   'P 21/c'
_symmetry_Int_Tables_number      14
_space_group_name_Hall           '-P 2ybc'
loop_
_symmetry_equiv_pos_site_id
_symmetry_equiv_pos_as_xyz
1 x,y,z
2 -x,1/2+y,1/2-z
3 -x,-y,-z
4 x,1/2-y,1/2+z
_cell_length_a                   15.4591(3)
_cell_length_b                   10.8105(2)
_cell_length_c                   14.6639(2)
_cell_angle_alpha                90
_cell_angle_beta                 101.9938(7)
_cell_angle_gamma                90
_cell_volume                     2397.14
loop_
_atom_site_label
_atom_site_type_symbol
_atom_site_fract_x
_atom_site_fract_y
_atom_site_fract_z
Cu1 Cu -0.29679(2) 0.24213(3) 0.21042(2)
Cu2 Cu -0.11775(2) 0.29054(3) 0.08230(2)
N1 N -0.35607(14) 0.0738(2) 0.16837(15)
N2 N -0.49067(14) 0.2618(2) 0.17176(15)
N3 N -0.41508(13) 0.3217(2) 0.16789(14)
N4 N -0.09697(13) 0.1037(2) 0.08036(14)
N5 N 0.05968(14) 0.2227(2) 0.19255(15)
N6 N 0.01271(14) 0.3076(2) 0.13507(14)
N7 N -0.24698(14) 0.2630(2) 0.07097(14)
N8 N -0.29812(14) 0.2697(2) -0.00165(15)
N9 N -0.34917(19) 0.2737(3) -0.0701(2)
N10 N -0.24071(16) 0.3970(2) 0.26551(17)
N11 N -0.27721(15) 0.4795(2) 0.29315(17)
N12 N -0.30795(18) 0.5623(3) 0.3236(3)
N13 N -0.19183(16) 0.3507(2) -0.22575(16)
N14 N -0.15404(14) 0.3217(2) -0.14980(15)
N15 N -0.11327(16) 0.2973(2) -0.07719(16)
N16 N -0.12649(15) 0.4723(2) 0.08757(17)
N17 N -0.19458(17) 0.5265(2) 0.06879(16)
N18 N -0.2581(2) 0.5844(3) 0.0511(3)
C1 C -0.3109(2) -0.0110(3) 0.1306(2)
H1 H -0.2520 0.0045 0.1296
C2 C -0.3484(2) -0.1204(3) 0.0932(2)
H2 H -0.3155 -0.1772 0.0670
C3 C -0.4349(2) -0.1440(3) 0.0955(2)
H3 H -0.4619 -0.2166 0.0700
C4 C -0.4810(2) -0.0593(3) 0.1356(2)
H4 H -0.5397 -0.0743 0.1383
C5 C -0.44032(17) 0.0484(3) 0.17208(17)
C6 C -0.48633(18) 0.1431(3) 0.21886(19)
H5 H -0.5458 0.1149 0.2193
H6 H -0.4551 0.1528 0.2830
C7 C -0.56144(18) 0.3277(3) 0.13076(19)
H7 H -0.6203 0.3048 0.1250
C8 C -0.53123(19) 0.4346(3) 0.0989(2)
H8 H -0.5650 0.4988 0.0676
C9 C -0.43956(19) 0.4276(3) 0.12304(18)
H9 H -0.4009 0.4878 0.1099
C10 C -0.14234(19) 0.0350(3) 0.01054(19)
H10 H -0.1833 0.0741 -0.0360
C11 C -0.1312(2) -0.0894(3) 0.0045(2)
H11 H -0.1657 -0.1344 -0.0438
C12 C -0.0700(2) -0.1466(3) 0.0692(3)
H12 H -0.0617 -0.2316 0.0660
C13 C -0.0205(2) -0.0800(3) 0.1390(2)
H13 H 0.0238 -0.1180 0.1825
C14 C -0.03636(17) 0.0440(2) 0.14496(17)
C15 C 0.01320(18) 0.1190(3) 0.22453(18)
H14 H -0.0279 0.1503 0.2608
H15 H 0.0556 0.0664 0.2648
C16 C 0.1467(2) 0.2497(3) 0.2126(2)
H16 H 0.1914 0.2052 0.2512
C17 C 0.1564(2) 0.3610(3) 0.1623(2)
H17 H 0.2083 0.4037 0.1605
C18 C 0.07024(18) 0.3906(3) 0.1166(2)
H18 H 0.0551 0.4592 0.0783
N13C N -0.19183(16) 0.1493(2) 0.27425(16)
Cu1C Cu -0.29679(2) 0.25787(3) -0.28958(2)
loop_
_geom_bond_atom_site_label_1
_geom_bond_atom_site_label_2
_geom_bond_site_symmetry_1
_geom_bond_site_symmetry_2
Cu1 N1 1_555 1_555
Cu2 N4 1_555 1_555
N1 C1 1_555 1_555
N2 N3 1_555 1_555
N3 Cu1 1_555 1_555
N4 C10 1_555 1_555
N5 N6 1_555 1_555
N6 Cu2 1_555 1_555
N7 Cu1 1_555 1_555
N8 N7 1_555 1_555
N9 N8 1_555 1_555
N10 Cu1 1_555 1_555
N11 N10 1_555 1_555
N12 N11 1_555 1_555
N13 N14 1_555 1_555
N14 N15 1_555 1_555
N15 Cu2 1_555 1_555
N16 Cu2 1_555 1_555
N17 N16 1_555 1_555
N18 N17 1_555 1_555
C1 H1 1_555 1_555
C2 C1 1_555 1_555
H2 C2 1_555 1_555
C3 C2 1_555 1_555
H3 C3 1_555 1_555
C4 C3 1_555 1_555
H4 C4 1_555 1_555
C5 N1 1_555 1_555
C6 N2 1_555 1_555
H5 C6 1_555 1_555
H6 C6 1_555 1_555
C7 N2 1_555 1_555
H7 C7 1_555 1_555
C8 C7 1_555 1_555
H8 C8 1_555 1_555
C9 N3 1_555 1_555
H9 C9 1_555 1_555
C10 H10 1_555 1_555
C11 C10 1_555 1_555
H11 C11 1_555 1_555
C12 C11 1_555 1_555
H12 C12 1_555 1_555
C13 C12 1_555 1_555
H13 C13 1_555 1_555
C14 N4 1_555 1_555
C15 N5 1_555 1_555
H14 C15 1_555 1_555
H15 C15 1_555 1_555
C16 N5 1_555 1_555
H16 C16 1_555 1_555
C17 C16 1_555 1_555
H17 C17 1_555 1_555
C18 N6 1_555 1_555
H18 C18 1_555 1_555
N13C Cu1 1_555 1_555
Cu1C N13 1_555 1_555
Cu2 N7 1_555 1_555
C4 C5 1_555 1_555
C5 C6 1_555 1_555
C8 C9 1_555 1_555
C13 C14 1_555 1_555
C14 C15 1_555 1_555
C17 C18 1_555 1_555

#END
