
#######################################################################
#
#                 Cambridge Crystallographic Data Centre
#                                CCDC 
#
#######################################################################
#
# If this CIF has been generated from an entry in the Cambridge 
# Structural Database, then it will include bibliographic, chemical, 
# crystal, experimental, refinement or atomic coordinate data resulting 
# from the CCDC's data processing and validation procedures.
#
#######################################################################

data_IQEDUD
_symmetry_cell_setting           monoclinic
_symmetry_space_group_name_H-M   'P 21/c'
_symmetry_Int_Tables_number      14
_space_group_name_Hall           '-P 2ybc'
loop_
_symmetry_equiv_pos_site_id
_symmetry_equiv_pos_as_xyz
1 x,y,z
2 x,1/2-y,1/2+z
3 -x,-y,-z
4 -x,1/2+y,1/2-z
_cell_length_a                   7.346(3)
_cell_length_b                   23.415(10)
_cell_length_c                   12.736(6)
_cell_angle_alpha                90
_cell_angle_beta                 104.77(3)
_cell_angle_gamma                90
_cell_volume                     2118.29
loop_
_atom_site_label
_atom_site_type_symbol
_atom_site_fract_x
_atom_site_fract_y
_atom_site_fract_z
Ag1 Ag 0.20587(4) 0.108635(14) 0.30620(3)
Ag2 Ag -0.39811(5) 0.113400(14) 0.30946(3)
C1 C 0.4654(7) 0.0806(2) 0.0654(4)
H1 H 0.5660 0.1065 0.0639
H2 H 0.4535 0.0539 0.0068
C2 C 0.2821(8) 0.11361(19) 0.0510(4)
H3 H 0.2478 0.1303 -0.0202
H4 H 0.3010 0.1441 0.1032
C3 C 0.1226(7) 0.07577(19) 0.0661(3)
H5 H 0.0897 0.0487 0.0077
H6 H 0.0136 0.0986 0.0652
C4 C 0.4084(7) -0.23859(19) 0.6125(4)
H7 H 0.3230 -0.2426 0.6579
H8 H 0.3782 -0.2672 0.5568
C5 C 0.6089(7) -0.2464(2) 0.6794(4)
H9 H 0.6254 -0.2850 0.7057
H10 H 0.6317 -0.2214 0.7412
C6 C 0.7501(7) -0.23385(19) 0.6148(4)
H11 H 0.7393 -0.2619 0.5586
H12 H 0.8754 -0.2358 0.6613
C7 C 0.3522(6) 0.00956(16) 0.1706(3)
H13 H 0.3240 -0.0104 0.1025
C8 C 0.3971(6) -0.03510(16) 0.2599(3)
C9 C 0.3174(7) -0.08920(19) 0.2371(4)
H14 H 0.2335 -0.0965 0.1672
C10 C 0.5168(7) -0.02606(19) 0.3625(4)
H15 H 0.5722 0.0109 0.3810
C11 C 0.5213(6) -0.17459(16) 0.4923(3)
H16 H 0.5077 -0.2083 0.4481
C12 C 0.4794(6) -0.12368(16) 0.4157(3)
C13 C 0.5568(7) -0.06984(19) 0.4385(4)
H17 H 0.6403 -0.0625 0.5085
C14 C 0.3570(7) -0.13254(19) 0.3134(4)
H18 H 0.2994 -0.1693 0.2957
O1 O -0.2938(6) 0.2165(2) 0.1536(4)
O2 O -0.1361(5) 0.14222(19) 0.2183(4)
O3 O -0.0175(6) 0.20326(16) 0.1300(4)
N2 N -0.1518(6) 0.18786(17) 0.1671(3)
N3 N 0.1853(5) 0.04482(14) 0.1725(3)
H19 H 0.0922 0.0205 0.1760
N4 N 0.5098(5) 0.04912(15) 0.1711(3)
H20 H 0.6108 0.0272 0.1721
N5 N 0.7152(5) -0.17537(15) 0.5646(3)
H21 H 0.7944 -0.1713 0.5216
N6 N 0.3890(5) -0.17967(15) 0.5624(3)
H22 H 0.2726 -0.1781 0.5176
Ag2_2 Ag 0.60189(5) 0.113400(14) 0.30946(3)
N5B N 0.2848(5) 0.17537(15) 0.4354(3)
Ag1_2 Ag -0.79413(4) 0.108635(14) 0.30620(3)
N4_2 N -0.4902(5) 0.04912(15) 0.1711(3)
N6B N -0.3890(5) 0.17967(15) 0.4376(3)
Ag1B Ag 0.79413(4) -0.108635(14) 0.69380(3)
Ag2B Ag 0.39811(5) -0.113400(14) 0.69054(3)
H21B H 0.2056 0.1713 0.4784
H20_2 H -0.3892 0.0272 0.1721
H22B H -0.2726 0.1781 0.4824
N1 N 0.1117(6) 0.43590(18) 0.2384(3)
O4 O 0.1467(7) 0.38500(17) 0.2597(4)
O5 O 0.1512(5) 0.47343(17) 0.3120(3)
O6 O 0.0291(6) 0.45089(18) 0.1438(3)
O7 O 0.0120(5) 0.31690(14) 0.0698(3)
H24 H 0.0573 0.3359 0.1375
H26 H 0.1123 0.3031 0.0567
O8 O 0.0611(5) -0.06703(15) 0.5899(3)
H23 H 0.0677 -0.0695 0.5173
H25 H 0.0755 -0.0283 0.6130
loop_
_geom_bond_atom_site_label_1
_geom_bond_atom_site_label_2
_geom_bond_site_symmetry_1
_geom_bond_site_symmetry_2
Ag1 O2 1_555 1_555
Ag2 O2 1_555 1_555
C1 H1 1_555 1_555
H2 C1 1_555 1_555
C2 C1 1_555 1_555
H3 C2 1_555 1_555
H4 C2 1_555 1_555
C3 C2 1_555 1_555
H5 C3 1_555 1_555
H6 C3 1_555 1_555
C4 H7 1_555 1_555
H8 C4 1_555 1_555
C5 C4 1_555 1_555
H9 C5 1_555 1_555
H10 C5 1_555 1_555
C6 C5 1_555 1_555
H11 C6 1_555 1_555
H12 C6 1_555 1_555
C7 H13 1_555 1_555
C8 C7 1_555 1_555
C9 C8 1_555 1_555
H14 C9 1_555 1_555
C10 C8 1_555 1_555
H15 C10 1_555 1_555
C11 H16 1_555 1_555
C12 C11 1_555 1_555
C13 C10 1_555 1_555
H17 C13 1_555 1_555
C14 C9 1_555 1_555
H18 C14 1_555 1_555
N1 O4 1_555 1_555
O1 N2 1_555 1_555
O2 N2 1_555 1_555
O3 N2 1_555 1_555
O5 N1 1_555 1_555
O6 N1 1_555 1_555
N3 Ag1 1_555 1_555
H19 N3 1_555 1_555
N4 C1 1_555 1_555
H20 N4 1_555 1_555
N5 C6 1_555 1_555
H21 N5 1_555 1_555
N6 C4 1_555 1_555
H22 N6 1_555 1_555
O7 H24 1_555 1_555
O8 H23 1_555 1_555
H25 O8 1_555 1_555
H26 O7 1_555 1_555
Ag2_2 Ag1 1_555 1_555
N5B Ag1 1_555 1_555
Ag1_2 Ag2 1_555 1_555
N4_2 Ag2 1_555 1_555
N6B Ag2 1_555 1_555
Ag1B N5 1_555 1_555
Ag2B N6 1_555 1_555
H21B N5B 1_555 1_555
H20_2 N4_2 1_555 1_555
H22B N6B 1_555 1_555
C3 N3 1_555 1_555
C7 N3 1_555 1_555
C7 N4 1_555 1_555
C11 N5 1_555 1_555
C11 N6 1_555 1_555
C12 C14 1_555 1_555
C12 C13 1_555 1_555
N4 Ag2_2 1_555 1_555
Ag1B Ag2B 1_555 1_555

#END
