
#######################################################################
#
#                 Cambridge Crystallographic Data Centre
#                                CCDC 
#
#######################################################################
#
# If this CIF has been generated from an entry in the Cambridge 
# Structural Database, then it will include bibliographic, chemical, 
# crystal, experimental, refinement or atomic coordinate data resulting 
# from the CCDC's data processing and validation procedures.
#
#######################################################################

data_IQEDUE
_symmetry_cell_setting           rhombohedral
_symmetry_space_group_name_H-M   'R -3 c'
_symmetry_Int_Tables_number      167
_space_group_name_Hall           '-R 3 2"c'
loop_
_symmetry_equiv_pos_site_id
_symmetry_equiv_pos_as_xyz
1 x,y,z
2 -y,x-y,z
3 -x+y,-x,z
4 y,x,1/2-z
5 x-y,-y,1/2-z
6 -x,-x+y,1/2-z
7 2/3+x,1/3+y,1/3+z
8 2/3-y,1/3+x-y,1/3+z
9 2/3-x+y,1/3-x,1/3+z
10 2/3+y,1/3+x,5/6-z
11 2/3+x-y,1/3-y,5/6-z
12 2/3-x,1/3-x+y,5/6-z
13 1/3+x,2/3+y,2/3+z
14 1/3-y,2/3+x-y,2/3+z
15 1/3-x+y,2/3-x,2/3+z
16 1/3+y,2/3+x,1/6-z
17 1/3+x-y,2/3-y,1/6-z
18 1/3-x,2/3-x+y,1/6-z
19 -x,-y,-z
20 y,-x+y,-z
21 x-y,x,-z
22 -y,-x,1/2+z
23 -x+y,y,1/2+z
24 x,x-y,1/2+z
25 1/3-x,2/3-y,2/3-z
26 1/3+y,2/3-x+y,2/3-z
27 1/3+x-y,2/3+x,2/3-z
28 1/3-y,2/3-x,1/6+z
29 1/3-x+y,2/3+y,1/6+z
30 1/3+x,2/3+x-y,1/6+z
31 2/3-x,1/3-y,1/3-z
32 2/3+y,1/3-x+y,1/3-z
33 2/3+x-y,1/3+x,1/3-z
34 2/3-y,1/3-x,5/6+z
35 2/3-x+y,1/3+y,5/6+z
36 2/3+x,1/3+x-y,5/6+z
_cell_length_a                   13.0234(3)
_cell_length_b                   13.0234(3)
_cell_length_c                   61.997(2)
_cell_angle_alpha                90
_cell_angle_beta                 90
_cell_angle_gamma                120
_cell_volume                     9106.47
loop_
_atom_site_label
_atom_site_type_symbol
_atom_site_fract_x
_atom_site_fract_y
_atom_site_fract_z
N3 N 0.6667 0.3333 0.10522(17)
N4 N 0.6667 0.3333 0.14599(18)
C3 C 0.7739(11) 0.3341(8) 0.11336(13)
H6 H 0.8442 0.4059 0.1087
H7 H 0.7774 0.2668 0.1075
C4 C 0.7711(10) 0.3279(7) 0.13796(12)
H8 H 0.7664 0.2546 0.1426
H9 H 0.8432 0.3936 0.1438
C3A C 0.6659(8) 0.4398(14) 0.11336(13)
C3B C 0.5602(14) 0.2261(11) 0.11336(13)
H6B H 0.5617 0.1558 0.1087
H6A H 0.5941 0.4383 0.1087
H7B H 0.4894 0.2226 0.1075
H7A H 0.7332 0.5106 0.1075
C4A C 0.6721(7) 0.4432(12) 0.13796(12)
C4B C 0.5568(12) 0.2289(10) 0.13796(12)
H8B H 0.4882 0.2336 0.1426
H8A H 0.7454 0.5118 0.1426
H9B H 0.5504 0.1568 0.1438
H9A H 0.6064 0.4496 0.1438
I1 I 0.99885(6) 1.31475(4) -0.013535(8)
I2 I 1.0107 1.34409(5) -0.0834
I3 I 1.19990(6) 1.20075(4) -0.053380(8)
I4 I 1.0000 1.0000 0.0000
Cu1 Cu 1.0000 1.0000 -0.06780(3)
Cu2 Cu 0.99575(15) 1.20729(10) -0.050840(18)
Cu3 Cu 1.1375(3) 1.2207(2) -0.01422(4)
N1 N 1.0000 1.0000 -0.10187(16)
N2 N 1.0000 1.0000 -0.14267(16)
H1 H 1.0000 1.0000 -0.1573
C1 C 1.1092(11) 1.1054(7) -0.11031(12)
H2 H 1.1162 1.1771 -0.1042
H3 H 1.1784 1.1007 -0.1061
C2 C 1.1036(11) 1.1102(7) -0.13491(12)
H4 H 1.1757 1.1185 -0.1412
H5 H 1.0967 1.1781 -0.1392
I1S I 1.31475(4) 1.31590(7) 0.013535(8)
I1B I 1.31590(7) 1.00115(6) -0.013535(8)
I1A I 0.68525(4) 0.68410(7) -0.013535(8)
I1R I 1.00115(6) 0.68525(4) 0.013535(8)
I1T I 0.68410(7) 0.99885(6) 0.013535(8)
I2B I 1.33339(5) 0.9893 -0.0834
I2A I 0.65591(5) 0.66661(5) -0.0834
I2S I 1.34409(5) 1.33339(5) 0.0834
I2R I 0.9893 0.65591(5) 0.0834
I2T I 0.66661(5) 1.0107 0.0834
I3B I 1.00085(7) 0.80010(6) -0.053380(8)
I3A I 0.79925(4) 0.99915(7) -0.053380(8)
I3S I 1.20075(4) 1.00085(7) 0.053380(8)
I3T I 0.99915(7) 1.19990(6) 0.053380(8)
I3R I 0.80010(6) 0.79925(4) 0.053380(8)
Cu1R Cu 1.0000 1.0000 0.06780(3)
Cu2B Cu 1.21154(18) 1.00425(15) -0.050840(18)
Cu2A Cu 0.79271(10) 0.78846(18) -0.050840(18)
Cu2S Cu 1.20729(10) 1.21154(18) 0.050840(18)
Cu2R Cu 1.00425(15) 0.79271(10) 0.050840(18)
Cu2T Cu 0.78846(18) 0.99575(15) 0.050840(18)
Cu2I Cu 0.87396(10) 1.32908(15) -0.115827(18)
Cu2J Cu 1.45513(18) 1.12604(10) -0.115827(18)
Cu2K Cu 0.67092(15) 0.54487(18) -0.115827(18)
Cu2CA Cu 1.32908(15) 1.45513(18) 0.115827(18)
Cu2AA Cu 1.12604(10) 0.67092(15) 0.115827(18)
Cu2BA Cu 0.54487(18) 0.87396(10) 0.115827(18)
Cu3B Cu 1.0832(4) 0.8625(3) -0.01422(4)
Cu3A Cu 0.7793(2) 0.9168(4) -0.01422(4)
Cu3S Cu 1.2207(2) 1.0832(4) 0.01422(4)
Cu3R Cu 0.8625(3) 0.7793(2) 0.01422(4)
Cu3T Cu 0.9168(4) 1.1375(3) 0.01422(4)
N1R N 1.0000 1.0000 0.10187(16)
N2R N 1.0000 1.0000 0.14267(16)
H1R H 1.0000 1.0000 0.1573
C1A C 0.8946(7) 1.0038(13) -0.11031(12)
C1B C 0.9962(13) 0.8908(11) -0.11031(12)
C1S C 1.1054(7) 0.9962(13) 0.11031(12)
C1T C 1.0038(13) 1.1092(11) 0.11031(12)
C1R C 0.8908(11) 0.8946(7) 0.11031(12)
H2B H 1.0609 0.8838 -0.1042
H2A H 0.8229 0.9391 -0.1042
H2S H 1.1771 1.0609 0.1042
H2R H 0.8838 0.8229 0.1042
H2T H 0.9391 1.1162 0.1042
H3B H 0.9223 0.8216 -0.1061
H3A H 0.8993 1.0777 -0.1061
H3S H 1.1007 0.9223 0.1061
H3R H 0.8216 0.8993 0.1061
H3T H 1.0777 1.1784 0.1061
C2A C 0.8898(7) 0.9934(13) -0.13491(12)
C2B C 1.0066(13) 0.8964(11) -0.13491(12)
C2S C 1.1102(7) 1.0066(13) 0.13491(12)
C2T C 0.9934(13) 1.1036(11) 0.13491(12)
C2R C 0.8964(11) 0.8898(7) 0.13491(12)
H4B H 0.9428 0.8243 -0.1412
H4A H 0.8815 1.0572 -0.1412
H4S H 1.1185 0.9428 0.1412
H4R H 0.8243 0.8815 0.1412
H4T H 1.0572 1.1757 0.1412
H5B H 1.0814 0.9033 -0.1392
H5A H 0.8219 0.9186 -0.1392
H5S H 1.1781 1.0814 0.1392
H5R H 0.9033 0.8219 0.1392
H5T H 0.9186 1.0967 0.1392
Cu4? Cu 1.0821(4) 1.2216(3) 0.01408(5)
loop_
_geom_bond_atom_site_label_1
_geom_bond_atom_site_label_2
_geom_bond_site_symmetry_1
_geom_bond_site_symmetry_2
I1 Cu2 1_555 1_555
I2 Cu2 1_555 1_555
I3 Cu1 1_555 1_555
I4 Cu3 1_555 1_555
Cu1 N1 1_555 1_555
Cu2 I3 1_555 1_555
Cu3 I1 1_555 1_555
N1 C1 1_555 1_555
N2 H1 1_555 1_555
N3 C3 1_555 1_555
N4 C4 1_555 1_555
C1 H2 1_555 1_555
H3 C1 1_555 1_555
C2 N2 1_555 1_555
H4 C2 1_555 1_555
H5 C2 1_555 1_555
C3 H6 1_555 1_555
H7 C3 1_555 1_555
C4 C3 1_555 1_555
H8 C4 1_555 1_555
H9 C4 1_555 1_555
I1S Cu3 1_555 1_555
I1B Cu2B 1_555 1_555
I1A Cu2A 1_555 1_555
I1R Cu2R 1_555 1_555
I1T Cu2T 1_555 1_555
I2B Cu2B 1_555 1_555
I2A Cu2A 1_555 1_555
I2S Cu2S 1_555 1_555
I2R Cu2R 1_555 1_555
I2T Cu2T 1_555 1_555
I3B Cu1 1_555 1_555
I3A Cu1 1_555 1_555
I3S Cu1R 1_555 1_555
I3T Cu1R 1_555 1_555
I3R Cu1R 1_555 1_555
Cu1R N1R 1_555 1_555
Cu2B I3 1_555 1_555
Cu2A I3B 1_555 1_555
Cu2S I1S 1_555 1_555
Cu2R I3S 1_555 1_555
Cu2T I3T 1_555 1_555
Cu2I I2 1_555 1_555
Cu2J I2B 1_555 1_555
Cu2K I2A 1_555 1_555
Cu2CA I2S 1_555 1_555
Cu2AA I2R 1_555 1_555
Cu2BA I2T 1_555 1_555
Cu3B I4 1_555 1_555
Cu3A I4 1_555 1_555
Cu3S I4 1_555 1_555
Cu3R I4 1_555 1_555
Cu3T I1 1_555 1_555
N1R C1S 1_555 1_555
N2R H1R 1_555 1_555
C1A N1 1_555 1_555
C1B N1 1_555 1_555
C1S H2S 1_555 1_555
C1T N1R 1_555 1_555
C1R N1R 1_555 1_555
H2B C1B 1_555 1_555
H2A C1A 1_555 1_555
H2R C1R 1_555 1_555
H2T C1T 1_555 1_555
H3B C1B 1_555 1_555
H3A C1A 1_555 1_555
H3S C1S 1_555 1_555
H3R C1R 1_555 1_555
H3T C1T 1_555 1_555
C2A N2 1_555 1_555
C2B N2 1_555 1_555
C2S N2R 1_555 1_555
C2T N2R 1_555 1_555
C2R N2R 1_555 1_555
H4B C2B 1_555 1_555
H4A C2A 1_555 1_555
H4S C2S 1_555 1_555
H4R C2R 1_555 1_555
H4T C2T 1_555 1_555
H5B C2B 1_555 1_555
H5A C2A 1_555 1_555
H5S C2S 1_555 1_555
H5R C2R 1_555 1_555
H5T C2T 1_555 1_555
C3A N3 1_555 1_555
C3B N3 1_555 1_555
H6B C3B 1_555 1_555
H6A C3A 1_555 1_555
H7B C3B 1_555 1_555
H7A C3A 1_555 1_555
C4A N4 1_555 1_555
C4B N4 1_555 1_555
H8B C4B 1_555 1_555
H8A C4A 1_555 1_555
H9B C4B 1_555 1_555
H9A C4A 1_555 1_555
I3 Cu3 1_555 1_555
I4 Cu3T 1_555 1_555
Cu2 I3A 1_555 1_555
C1 C2 1_555 1_555
I1S Cu3S 1_555 1_555
I1B Cu3B 1_555 1_555
I1B Cu3S 1_555 1_555
I1A Cu3A 1_555 1_555
I1A Cu3R 1_555 1_555
I1R Cu3B 1_555 1_555
I1R Cu3R 1_555 1_555
I1T Cu3A 1_555 1_555
I1T Cu3T 1_555 1_555
I3B Cu2B 1_555 1_555
I3B Cu3B 1_555 1_555
I3A Cu2A 1_555 1_555
I3A Cu3A 1_555 1_555
I3S Cu2S 1_555 1_555
I3S Cu3S 1_555 1_555
I3T Cu2S 1_555 1_555
I3T Cu3T 1_555 1_555
I3R Cu2R 1_555 1_555
I3R Cu2T 1_555 1_555
I3R Cu3R 1_555 1_555
C1A C2A 1_555 1_555
C1B C2B 1_555 1_555
C1S C2S 1_555 1_555
C1T C2T 1_555 1_555
C1R C2R 1_555 1_555
C3A C4A 1_555 1_555
C3B C4B 1_555 1_555

#END
