
#######################################################################
#
#                 Cambridge Crystallographic Data Centre
#                                CCDC 
#
#######################################################################
#
# If this CIF has been generated from an entry in the Cambridge 
# Structural Database, then it will include bibliographic, chemical, 
# crystal, experimental, refinement or atomic coordinate data resulting 
# from the CCDC's data processing and validation procedures.
#
#######################################################################

data_IQEDOY
_symmetry_cell_setting           monoclinic
_symmetry_space_group_name_H-M   'P 21/c'
_symmetry_Int_Tables_number      14
_space_group_name_Hall           '-P 2ybc'
loop_
_symmetry_equiv_pos_site_id
_symmetry_equiv_pos_as_xyz
1 x,y,z
2 -x,1/2+y,1/2-z
3 -x,-y,-z
4 x,1/2-y,1/2+z
_cell_length_a                   8.7682(10)
_cell_length_b                   16.8580(19)
_cell_length_c                   13.7225(15)
_cell_angle_alpha                90
_cell_angle_beta                 94.213(2)
_cell_angle_gamma                90
_cell_volume                     2022.9
loop_
_atom_site_label
_atom_site_type_symbol
_atom_site_fract_x
_atom_site_fract_y
_atom_site_fract_z
I1 I 0.97942(3) 0.183125(17) 0.58200(2)
I2 I 0.46007(3) 0.209543(16) 0.54926(2)
I3 I 0.74823(4) 0.415454(17) 0.55613(2)
I4 I 0.71603(3) 0.258800(17) 0.308250(19)
I5 I 0.71211(3) 0.014450(16) 0.41177(2)
Cu1 Cu 0.71420(7) 0.16475(3) 0.46212(4)
Cu2 Cu 0.73107(7) 0.26494(3) 0.61453(4)
Cu3 Cu 0.45093(7) 0.07038(3) 0.46250(4)
Cu4 Cu 0.89879(7) 0.30289(4) 0.46174(5)
N1 N 0.3024(4) 0.07061(19) 0.3322(2)
N2 N 0.1147(4) 0.0695(2) 0.1835(3)
N3 N 1.0910(5) 0.3437(3) 0.4124(3)
C1 C 0.2673(6) -0.0105(3) 0.3009(3)
H1 H 0.2358 -0.0408 0.3560
H2 H 0.3587 -0.0350 0.2788
C2 C 0.1413(6) -0.0131(3) 0.2188(3)
H3 H 0.1717 -0.0465 0.1660
H4 H 0.0484 -0.0346 0.2426
C3 C 0.1594(6) 0.1095(4) 0.3540(4)
H5 H 0.1819 0.1614 0.3821
H6 H 0.1094 0.0783 0.4019
C4 C 0.0512(6) 0.1186(3) 0.2613(3)
H7 H -0.0507 0.1006 0.2734
H8 H 0.0453 0.1738 0.2414
C5 C 0.3650(6) 0.1128(3) 0.2506(3)
H9 H 0.4653 0.0916 0.2400
H10 H 0.3769 0.1685 0.2671
C6 C 0.2616(6) 0.1048(3) 0.1567(3)
H11 H 0.2435 0.1564 0.1268
H12 H 0.3091 0.0709 0.1105
C7 C 1.2007(6) 0.3579(3) 0.3776(4)
C8 C 1.3418(6) 0.3763(4) 0.3329(5)
H13 H 1.3511 0.4328 0.3262
H14 H 1.3403 0.3519 0.2697
H15 H 1.4273 0.3565 0.3735
H16 H 0.043(5) 0.068(3) 0.134(3)
I4C I 0.71603(3) 0.241200(17) 0.808250(19)
I5B I 0.28789(3) -0.014450(16) 0.58823(2)
Cu2C Cu 0.73107(7) 0.23506(3) 0.11453(4)
Cu3B Cu 0.54907(7) -0.07038(3) 0.53750(4)
loop_
_geom_bond_atom_site_label_1
_geom_bond_atom_site_label_2
_geom_bond_site_symmetry_1
_geom_bond_site_symmetry_2
I1 Cu1 1_555 1_555
I2 Cu1 1_555 1_555
I3 Cu2 1_555 1_555
I4 Cu1 1_555 1_555
I5 Cu1 1_555 1_555
Cu2 I1 1_555 1_555
Cu3 I2 1_555 1_555
Cu4 I1 1_555 1_555
N1 Cu3 1_555 1_555
N2 C2 1_555 1_555
N3 Cu4 1_555 1_555
C1 N1 1_555 1_555
H1 C1 1_555 1_555
H2 C1 1_555 1_555
C2 C1 1_555 1_555
H3 C2 1_555 1_555
H4 C2 1_555 1_555
C3 N1 1_555 1_555
H5 C3 1_555 1_555
H6 C3 1_555 1_555
C4 N2 1_555 1_555
H7 C4 1_555 1_555
H8 C4 1_555 1_555
C5 N1 1_555 1_555
H9 C5 1_555 1_555
H10 C5 1_555 1_555
C6 N2 1_555 1_555
H11 C6 1_555 1_555
H12 C6 1_555 1_555
C7 N3 1_555 1_555
C8 C7 1_555 1_555
H13 C8 1_555 1_555
H14 C8 1_555 1_555
H15 C8 1_555 1_555
H16 N2 1_555 1_555
I4C Cu2 1_555 1_555
I5B Cu3 1_555 1_555
Cu2C I4 1_555 1_555
Cu3B I5 1_555 1_555
I2 Cu2 1_555 1_555
I3 Cu4 1_555 1_555
I4 Cu4 1_555 1_555
I5 Cu3 1_555 1_555
C3 C4 1_555 1_555
C5 C6 1_555 1_555
I5B Cu3B 1_555 1_555

#END
