
#######################################################################
#
#                 Cambridge Crystallographic Data Centre
#                                CCDC 
#
#######################################################################
#
# If this CIF has been generated from an entry in the Cambridge 
# Structural Database, then it will include bibliographic, chemical, 
# crystal, experimental, refinement or atomic coordinate data resulting 
# from the CCDC's data processing and validation procedures.
#
#######################################################################

data_IQEFAL
_symmetry_cell_setting           orthorhombic
_symmetry_space_group_name_H-M   'P n a 21'
_symmetry_Int_Tables_number      33
_space_group_name_Hall           'P 2c -2n'
loop_
_symmetry_equiv_pos_site_id
_symmetry_equiv_pos_as_xyz
1 x,y,z
2 -x,-y,1/2+z
3 1/2+x,1/2-y,z
4 1/2-x,1/2+y,1/2+z
_cell_length_a                   9.563(4)
_cell_length_b                   23.531(9)
_cell_length_c                   10.977(3)
_cell_angle_alpha                90
_cell_angle_beta                 90
_cell_angle_gamma                90
_cell_volume                     2470.12
loop_
_atom_site_label
_atom_site_type_symbol
_atom_site_fract_x
_atom_site_fract_y
_atom_site_fract_z
Ag1 Ag 0.16302(10) 0.10963(4) -0.00210(9)
Ag2 Ag -0.07820(11) 0.12738(4) 0.53245(12)
N1 N 0.2180(10) 0.1437(4) 0.2151(10)
H1 H 0.2974 0.1266 0.2395
N2 N 0.1180(11) 0.1516(5) 0.4259(11)
H2 H 0.1924 0.1359 0.4631
N3 N 0.0518(10) -0.1405(4) 0.4529(10)
H3 H 0.1104 -0.1238 0.5062
N4 N 0.0134(11) -0.1508(4) 0.2351(10)
H4 H -0.0754 -0.1394 0.2467
C1 C 0.2457(16) 0.2058(5) 0.2099(14)
H5 H 0.1673 0.2246 0.1730
H6 H 0.3271 0.2131 0.1611
C2 C 0.2655(14) 0.2295(5) 0.3358(13)
H7 H 0.2814 0.2698 0.3321
H8 H 0.3474 0.2122 0.3700
C3 C 0.1427(15) 0.2162(5) 0.4190(16)
H9 H 0.1600 0.2312 0.4989
H10 H 0.0604 0.2341 0.3868
C4 C 0.1090(13) 0.1266(5) 0.3009(13)
H11 H 0.0220 0.1394 0.2669
C5 C 0.1023(12) 0.0613(5) 0.3107(11)
C6 C -0.0007(11) 0.0318(6) 0.2515(11)
H12 H -0.0724 0.0523 0.2088
C7 C -0.0035(13) -0.0269(6) 0.2567(12)
H13 H -0.0758 -0.0470 0.2141
C8 C 0.0959(12) -0.0584(5) 0.3197(12)
C9 C 0.1986(13) -0.0277(5) 0.3808(15)
H14 H 0.2684 -0.0478 0.4267
C10 C 0.2034(12) 0.0306(5) 0.3729(16)
H15 H 0.2775 0.0509 0.4127
C11 C 0.0989(14) -0.1239(5) 0.3300(11)
H16 H 0.1936 -0.1365 0.3188
C12 C 0.0695(13) -0.2026(5) 0.4673(13)
H17 H 0.0424 -0.2136 0.5481
H18 H 0.1653 -0.2134 0.4550
C13 C -0.0194(17) -0.2326(6) 0.3749(14)
H19 H -0.1152 -0.2225 0.3896
H20 H -0.0110 -0.2730 0.3836
C14 C 0.0168(17) -0.2150(5) 0.2511(14)
H21 H 0.1093 -0.2283 0.2331
H22 H -0.0468 -0.2318 0.1938
N5 N 0.3729(11) 0.0775(5) -0.0330(15)
H23 H 0.4338 0.1066 -0.0346
H24 H 0.3759 0.0600 -0.1058
N6 N 0.2873(13) -0.1107(6) -0.0357(17)
H25 H 0.2941 -0.1291 -0.1074
H26 H 0.3480 -0.1277 0.0153
C15 C 0.4183(15) 0.0321(6) 0.067(2)
H27 H 0.4038 0.0491 0.1455
H28 H 0.5158 0.0231 0.0593
C16 C 0.332(2) -0.0210(7) 0.0625(18)
H29 H 0.2354 -0.0115 0.0768
H30 H 0.3601 -0.0465 0.1261
C17 C 0.339(2) -0.0509(9) -0.054(2)
H31 H 0.2841 -0.0320 -0.1144
H32 H 0.4345 -0.0522 -0.0810
N3A N -0.0518(10) 0.1405(4) -0.0471(10)
N4A N -0.0134(11) 0.1508(4) 0.7351(10)
N6A N -0.2873(13) 0.1107(6) 0.4643(17)
Ag1A Ag -0.16302(10) -0.10963(4) 0.49790(9)
Ag2A Ag 0.07820(11) -0.12738(4) 0.03245(12)
H3A H -0.1104 0.1238 0.0062
H4A H 0.0754 0.1394 0.7467
H25A H -0.2941 0.1291 0.3926
H26A H -0.3480 0.1277 0.5153
N7 N 0.6480(12) 0.1421(6) 0.1470(14)
O1 O 0.7646(10) 0.1318(5) 0.1812(11)
O2 O 0.6209(13) 0.1467(6) 0.0319(14)
O3 O 0.5478(13) 0.1470(8) 0.2214(15)
N8 N 0.4029(12) 0.1307(6) -0.3322(11)
O4 O 0.301(3) 0.1380(13) -0.281(3)
O5 O 0.510(2) 0.1370(9) -0.280(2)
O6 O 0.4051(19) 0.1402(9) -0.441(2)
loop_
_geom_bond_atom_site_label_1
_geom_bond_atom_site_label_2
_geom_bond_site_symmetry_1
_geom_bond_site_symmetry_2
Ag1 N1 1_555 1_555
Ag2 N2 1_555 1_555
N1 H1 1_555 1_555
N2 H2 1_555 1_555
N3 H3 1_555 1_555
N4 H4 1_555 1_555
C1 N1 1_555 1_555
H5 C1 1_555 1_555
H6 C1 1_555 1_555
C2 C1 1_555 1_555
H7 C2 1_555 1_555
H8 C2 1_555 1_555
C3 N2 1_555 1_555
H9 C3 1_555 1_555
H10 C3 1_555 1_555
C4 N1 1_555 1_555
H11 C4 1_555 1_555
C5 C4 1_555 1_555
C6 C5 1_555 1_555
H12 C6 1_555 1_555
C7 C6 1_555 1_555
H13 C7 1_555 1_555
C8 C7 1_555 1_555
C9 C8 1_555 1_555
H14 C9 1_555 1_555
C10 C5 1_555 1_555
H15 C10 1_555 1_555
C11 N3 1_555 1_555
H16 C11 1_555 1_555
C12 N3 1_555 1_555
H17 C12 1_555 1_555
H18 C12 1_555 1_555
C13 C12 1_555 1_555
H19 C13 1_555 1_555
H20 C13 1_555 1_555
C14 N4 1_555 1_555
H21 C14 1_555 1_555
H22 C14 1_555 1_555
N5 Ag1 1_555 1_555
H23 N5 1_555 1_555
H24 N5 1_555 1_555
N6 H25 1_555 1_555
H26 N6 1_555 1_555
C15 N5 1_555 1_555
H27 C15 1_555 1_555
H28 C15 1_555 1_555
C16 C15 1_555 1_555
H29 C16 1_555 1_555
H30 C16 1_555 1_555
C17 N6 1_555 1_555
H31 C17 1_555 1_555
H32 C17 1_555 1_555
N7 O1 1_555 1_555
O2 N7 1_555 1_555
O3 N7 1_555 1_555
N8 O4 1_555 1_555
O5 N8 1_555 1_555
O6 N8 1_555 1_555
N3A Ag1 1_555 1_555
N4A Ag2 1_555 1_555
N6A Ag2 1_555 1_555
Ag1A N3 1_555 1_555
Ag2A N4 1_555 1_555
H3A N3A 1_555 1_555
H4A N4A 1_555 1_555
H25A N6A 1_555 1_555
H26A N6A 1_555 1_555
N2 C4 1_555 1_555
N4 C11 1_555 1_555
C2 C3 1_555 1_555
C8 C11 1_555 1_555
C9 C10 1_555 1_555
C13 C14 1_555 1_555
N6 Ag2A 1_555 1_555
C16 C17 1_555 1_555

#END
