
#######################################################################
#
#                 Cambridge Crystallographic Data Centre
#                                CCDC 
#
#######################################################################
#
# If this CIF has been generated from an entry in the Cambridge 
# Structural Database, then it will include bibliographic, chemical, 
# crystal, experimental, refinement or atomic coordinate data resulting 
# from the CCDC's data processing and validation procedures.
#
#######################################################################

data_IQEHUI
_symmetry_cell_setting           monoclinic
_symmetry_space_group_name_H-M   'C 2/c'
_symmetry_Int_Tables_number      15
_space_group_name_Hall           '-C 2yn'
loop_
_symmetry_equiv_pos_site_id
_symmetry_equiv_pos_as_xyz
1 x,y,z
2 -x,y,1/2-z
3 1/2+x,1/2+y,z
4 1/2-x,1/2+y,1/2-z
5 -x,-y,-z
6 x,-y,1/2+z
7 1/2-x,1/2-y,-z
8 1/2+x,1/2-y,1/2+z
_cell_length_a                   21.832(3)
_cell_length_b                   8.627(5)
_cell_length_c                   25.840(4)
_cell_angle_alpha                90
_cell_angle_beta                 100.013(4)
_cell_angle_gamma                90
_cell_volume                     4792.7
loop_
_atom_site_label
_atom_site_type_symbol
_atom_site_fract_x
_atom_site_fract_y
_atom_site_fract_z
Zn1 Zn 1.07133(3) -0.75552(9) -0.38062(3)
C1 C 1.0600(3) -0.8097(8) -0.4977(3)
H1 H 1.0460 -0.7090 -0.5051
C2 C 1.0906(3) -1.0203(8) -0.4556(3)
H2 H 1.1023 -1.0920 -0.4288
C3 C 1.0888(3) -1.0461(9) -0.5072(3)
H3 H 1.0984 -1.1387 -0.5224
C4 C 1.0566(3) -0.8805(11) -0.5914(3)
H4 H 1.0617 -0.7705 -0.5973
H5 H 1.0134 -0.9065 -0.6045
C5 C 1.0967(3) -0.9688(10) -0.6222(3)
H6 H 1.0901 -1.0787 -0.6174
H7 H 1.0832 -0.9458 -0.6592
C6 C 1.1653(3) -0.9368(10) -0.6085(3)
H8 H 1.1727 -0.8266 -0.6116
H9 H 1.1803 -0.9672 -0.5724
C7 C 1.2008(3) -1.0265(9) -0.6451(3)
H10 H 1.1871 -0.9912 -0.6809
H11 H 1.1907 -1.1357 -0.6437
C8 C 1.3088(3) -1.1127(8) -0.6069(3)
H12 H 1.2992 -1.2101 -0.5951
C9 C 1.3663(3) -1.0505(8) -0.6025(3)
H13 H 1.4034 -1.0986 -0.5879
C10 C 1.3009(3) -0.8831(7) -0.6410(3)
H14 H 1.2838 -0.7940 -0.6580
C11 C 1.1243(3) -0.9925(7) -0.3161(2)
C12 C 1.1262(3) -1.1493(7) -0.2905(2)
C13 C 1.1823(3) -1.2193(7) -0.2722(3)
H15 H 1.2189 -1.1662 -0.2742
C14 C 1.1858(3) -1.3663(8) -0.2510(3)
H16 H 1.2244 -1.4097 -0.2380
C15 C 1.1320(3) -1.4496(7) -0.2488(2)
C16 C 1.0755(3) -1.3841(10) -0.2691(3)
H17 H 1.0393 -1.4413 -0.2697
C17 C 1.0717(3) -1.2333(9) -0.2887(3)
H18 H 1.0331 -1.1885 -0.3005
C18 C 1.1338(3) -1.6117(8) -0.2263(3)
H19 H 1.1766 -1.6470 -0.2193
H20 H 1.1108 -1.6804 -0.2524
C19 C 1.1366(2) -1.5665(6) -0.1310(2)
C20 C 1.1989(3) -1.5206(8) -0.1225(3)
H21 H 1.2206 -1.5228 -0.1504
C21 C 1.2289(3) -1.4721(10) -0.0741(3)
H22 H 1.2704 -1.4424 -0.0699
C22 C 1.1988(4) -1.4666(11) -0.0317(3)
H23 H 1.2195 -1.4361 0.0012
C23 C 1.1362(3) -1.5082(9) -0.0395(3)
H24 H 1.1150 -1.5026 -0.0113
C24 C 1.1041(3) -1.5578(7) -0.0879(2)
C25 C 1.0368(3) -1.5947(7) -0.0916(2)
N1 N 1.0724(2) -0.8705(6) -0.4490(2)
N2 N 1.0703(2) -0.9110(6) -0.5333(2)
N3 N 1.2678(2) -1.0078(6) -0.6316(2)
N4 N 1.3603(2) -0.9029(6) -0.62338(19)
O1 O 1.07157(19) -0.9286(6) -0.32976(18)
O2 O 1.1728(2) -0.9361(6) -0.3255(3)
O3 O 1.01097(18) -1.6812(5) -0.12854(17)
O4 O 1.0088(2) -1.5454(7) -0.0569(2)
N5 N 1.1082(2) -1.6234(6) -0.1784(2)
H27 H 1.0692(13) -1.650(9) -0.182(3)
Zn1F Zn 1.42867(3) -0.74448(9) -0.61938(3)
Zn1A Zn 0.92867(3) -1.75552(9) -0.11938(3)
Zn1G Zn 1.57133(3) 0.25552(9) -0.88062(3)
C1F C 1.4400(3) -0.6903(8) -0.5023(3)
H1F H 1.4540 -0.7910 -0.4949
C2F C 1.4094(3) -0.4797(8) -0.5444(3)
H2F H 1.3977 -0.4080 -0.5712
C3F C 1.4112(3) -0.4539(9) -0.4928(3)
H3F H 1.4016 -0.3613 -0.4776
C4F C 1.4434(3) -0.6195(11) -0.4086(3)
H4F H 1.4383 -0.7295 -0.4027
H5F H 1.4866 -0.5935 -0.3955
C5F C 1.4033(3) -0.5312(10) -0.3778(3)
H6F H 1.4099 -0.4213 -0.3826
H7F H 1.4168 -0.5542 -0.3408
C6F C 1.3347(3) -0.5632(10) -0.3915(3)
H8F H 1.3273 -0.6734 -0.3884
H9F H 1.3197 -0.5328 -0.4276
C7F C 1.2992(3) -0.4735(9) -0.3549(3)
H10F H 1.3129 -0.5088 -0.3191
H11F H 1.3093 -0.3643 -0.3563
C8F C 1.1912(3) -0.3873(8) -0.3931(3)
H12F H 1.2008 -0.2899 -0.4049
C9F C 1.1337(3) -0.4495(8) -0.3975(3)
H13F H 1.0966 -0.4014 -0.4121
C10F C 1.1991(3) -0.6169(7) -0.3590(3)
H14F H 1.2162 -0.7060 -0.3420
C11F C 1.3757(3) -0.5075(7) -0.6839(2)
C12F C 1.3738(3) -0.3507(7) -0.7095(2)
C13F C 1.3177(3) -0.2807(7) -0.7278(3)
H15F H 1.2811 -0.3338 -0.7258
C14F C 1.3142(3) -0.1337(8) -0.7490(3)
H16F H 1.2756 -0.0903 -0.7620
C15F C 1.3680(3) -0.0504(7) -0.7512(2)
C16F C 1.4245(3) -0.1159(10) -0.7309(3)
H17F H 1.4607 -0.0587 -0.7303
C17F C 1.4283(3) -0.2667(9) -0.7113(3)
H18F H 1.4669 -0.3115 -0.6995
C18F C 1.3662(3) 0.1117(8) -0.7737(3)
H19F H 1.3234 0.1470 -0.7807
H20F H 1.3892 0.1804 -0.7476
C19F C 1.3634(2) 0.0665(6) -0.8690(2)
C20F C 1.3011(3) 0.0206(8) -0.8775(3)
H21F H 1.2794 0.0228 -0.8496
C21F C 1.2711(3) -0.0279(10) -0.9259(3)
H22F H 1.2296 -0.0576 -0.9301
C22F C 1.3012(4) -0.0334(11) -0.9683(3)
H23F H 1.2805 -0.0639 -1.0012
C23F C 1.3638(3) 0.0082(9) -0.9605(3)
H24F H 1.3850 0.0026 -0.9887
C24F C 1.3959(3) 0.0578(7) -0.9121(2)
C25F C 1.4632(3) 0.0947(7) -0.9084(2)
N1F N 1.4276(2) -0.6295(6) -0.5510(2)
N2F N 1.4297(2) -0.5890(6) -0.4667(2)
N3F N 1.2322(2) -0.4922(6) -0.3684(2)
N4F N 1.1397(2) -0.5971(6) -0.37662(19)
O1F O 1.42843(19) -0.5714(6) -0.67024(18)
O2F O 1.3272(2) -0.5639(6) -0.6745(3)
O3A O 0.98903(18) -0.6812(5) -0.37146(17)
O3G O 1.51097(18) -0.8188(5) -0.62854(17)
O3F O 1.48903(18) 0.1812(5) -0.87146(17)
O4F O 1.4912(2) 0.0454(7) -0.9431(2)
N5F N 1.3918(2) 0.1234(6) -0.8216(2)
H27F H 1.4308(13) 0.150(9) -0.818(3)
O5 O 0.5000 1.3091(13) 0.2500
H26 H 0.521(10) 1.33(2) 0.224(7)
H26A H 0.479(10) 1.33(2) 0.276(7)
H25? H 0.508(9) 1.388(17) 0.273(7)
loop_
_geom_bond_atom_site_label_1
_geom_bond_atom_site_label_2
_geom_bond_site_symmetry_1
_geom_bond_site_symmetry_2
Zn1 N1 1_555 1_555
C1 H1 1_555 1_555
C2 H2 1_555 1_555
C3 C2 1_555 1_555
H3 C3 1_555 1_555
C4 H4 1_555 1_555
H5 C4 1_555 1_555
C5 C4 1_555 1_555
H6 C5 1_555 1_555
H7 C5 1_555 1_555
C6 C5 1_555 1_555
H8 C6 1_555 1_555
H9 C6 1_555 1_555
C7 C6 1_555 1_555
H10 C7 1_555 1_555
H11 C7 1_555 1_555
C8 H12 1_555 1_555
C9 C8 1_555 1_555
H13 C9 1_555 1_555
C10 H14 1_555 1_555
C11 C12 1_555 1_555
C12 C13 1_555 1_555
C13 H15 1_555 1_555
C14 C13 1_555 1_555
H16 C14 1_555 1_555
C15 C14 1_555 1_555
C16 C15 1_555 1_555
H17 C16 1_555 1_555
C17 C12 1_555 1_555
H18 C17 1_555 1_555
C18 C15 1_555 1_555
H19 C18 1_555 1_555
H20 C18 1_555 1_555
C19 C20 1_555 1_555
C20 H21 1_555 1_555
C21 C20 1_555 1_555
H22 C21 1_555 1_555
C22 C21 1_555 1_555
H23 C22 1_555 1_555
C23 C22 1_555 1_555
H24 C23 1_555 1_555
C24 C19 1_555 1_555
C25 C24 1_555 1_555
N1 C1 1_555 1_555
N2 C1 1_555 1_555
N3 C7 1_555 1_555
N4 C9 1_555 1_555
O1 Zn1 1_555 1_555
O2 C11 1_555 1_555
O3 C25 1_555 1_555
O4 C25 1_555 1_555
O5 H26 1_555 1_555
N5 C18 1_555 1_555
H27 N5 1_555 1_555
Zn1F N4 1_555 1_555
Zn1A O3 1_555 1_555
Zn1G O3F 1_555 1_555
C1F H1F 1_555 1_555
C2F H2F 1_555 1_555
C3F C2F 1_555 1_555
H3F C3F 1_555 1_555
C4F H4F 1_555 1_555
H5F C4F 1_555 1_555
C5F C4F 1_555 1_555
H6F C5F 1_555 1_555
H7F C5F 1_555 1_555
C6F C5F 1_555 1_555
H8F C6F 1_555 1_555
H9F C6F 1_555 1_555
C7F C6F 1_555 1_555
H10F C7F 1_555 1_555
H11F C7F 1_555 1_555
C8F H12F 1_555 1_555
C9F C8F 1_555 1_555
H13F C9F 1_555 1_555
C10F H14F 1_555 1_555
C11F C12F 1_555 1_555
C12F C13F 1_555 1_555
C13F H15F 1_555 1_555
C14F C13F 1_555 1_555
H16F C14F 1_555 1_555
C15F C14F 1_555 1_555
C16F C15F 1_555 1_555
H17F C16F 1_555 1_555
C17F C12F 1_555 1_555
H18F C17F 1_555 1_555
C18F C15F 1_555 1_555
H19F C18F 1_555 1_555
H20F C18F 1_555 1_555
C19F C20F 1_555 1_555
C20F H21F 1_555 1_555
C21F C20F 1_555 1_555
H22F C21F 1_555 1_555
C22F C21F 1_555 1_555
H23F C22F 1_555 1_555
C23F C22F 1_555 1_555
H24F C23F 1_555 1_555
C24F C19F 1_555 1_555
C25F C24F 1_555 1_555
N1F Zn1F 1_555 1_555
N2F C1F 1_555 1_555
N3F C7F 1_555 1_555
N4F Zn1 1_555 1_555
O1F Zn1F 1_555 1_555
O2F C11F 1_555 1_555
O3A Zn1 1_555 1_555
O3G Zn1F 1_555 1_555
O3F C25F 1_555 1_555
O4F C25F 1_555 1_555
H26A O5 1_555 1_555
N5F C18F 1_555 1_555
H27F N5F 1_555 1_555
C2 N1 1_555 1_555
C3 N2 1_555 1_555
C4 N2 1_555 1_555
C8 N3 1_555 1_555
C10 N3 1_555 1_555
C10 N4 1_555 1_555
C11 O1 1_555 1_555
C16 C17 1_555 1_555
C19 N5 1_555 1_555
C23 C24 1_555 1_555
C1F N1F 1_555 1_555
C2F N1F 1_555 1_555
C3F N2F 1_555 1_555
C4F N2F 1_555 1_555
C8F N3F 1_555 1_555
C9F N4F 1_555 1_555
C10F N3F 1_555 1_555
C10F N4F 1_555 1_555
C11F O1F 1_555 1_555
C16F C17F 1_555 1_555
C19F N5F 1_555 1_555
C23F C24F 1_555 1_555

#END
