
#######################################################################
#
#                 Cambridge Crystallographic Data Centre
#                                CCDC 
#
#######################################################################
#
# If this CIF has been generated from an entry in the Cambridge 
# Structural Database, then it will include bibliographic, chemical, 
# crystal, experimental, refinement or atomic coordinate data resulting 
# from the CCDC's data processing and validation procedures.
#
#######################################################################

data_IQEHOC
_symmetry_cell_setting           monoclinic
_symmetry_space_group_name_H-M   'P 21/n'
_symmetry_Int_Tables_number      14
_space_group_name_Hall           '-P 2yn'
loop_
_symmetry_equiv_pos_site_id
_symmetry_equiv_pos_as_xyz
1 x,y,z
2 1/2-x,1/2+y,1/2-z
3 -x,-y,-z
4 1/2+x,1/2-y,1/2+z
_cell_length_a                   10.3110(15)
_cell_length_b                   14.363(2)
_cell_length_c                   17.633(3)
_cell_angle_alpha                90
_cell_angle_beta                 98.889(15)
_cell_angle_gamma                90
_cell_volume                     2580.03
loop_
_atom_site_label
_atom_site_type_symbol
_atom_site_fract_x
_atom_site_fract_y
_atom_site_fract_z
Co1 Co 0.58555(4) 0.26467(3) 0.71721(3)
C1 C 0.8741(4) 0.2763(3) 0.7211(2)
H1 H 0.8843 0.2174 0.7432
C2 C 0.7898(4) 0.3996(3) 0.6689(3)
H2 H 0.7286 0.4437 0.6477
C3 C 0.9208(4) 0.4089(3) 0.6754(3)
H3 H 0.9663 0.4595 0.6597
C4 C 1.1122(4) 0.3052(4) 0.7259(2)
H4 H 1.1283 0.2728 0.7747
H5 H 1.1644 0.3617 0.7308
C5 C 1.1558(4) 0.2445(3) 0.6649(2)
H6 H 1.1064 0.1868 0.6619
H7 H 1.2478 0.2291 0.6801
C6 C 1.1382(4) 0.2892(3) 0.5855(2)
H8 H 1.0454 0.2949 0.5655
H9 H 1.1764 0.3511 0.5888
C7 C 1.2052(5) 0.2290(4) 0.5320(2)
H10 H 1.2980 0.2243 0.5522
H11 H 1.1684 0.1668 0.5304
C8 C 1.1296(4) 0.2260(3) 0.3902(2)
H12 H 1.0870 0.1688 0.3892
C9 C 1.2079(5) 0.3520(3) 0.3554(3)
H13 H 1.2305 0.4004 0.3249
C10 C 1.2413(5) 0.3473(3) 0.4321(3)
H14 H 1.2896 0.3908 0.4638
C11 C 0.4504(3) 0.4102(2) 0.6614(2)
C12 C 0.3746(3) 0.4990(2) 0.6479(2)
C13 C 0.3860(3) 0.5519(2) 0.5841(2)
H15 H 0.4405 0.5315 0.5502
C14 C 0.3171(4) 0.6361(2) 0.5691(2)
C15 C 0.2310(4) 0.6612(3) 0.6196(2)
H16 H 0.1812 0.7151 0.6105
C16 C 0.2189(4) 0.6072(3) 0.6827(2)
H17 H 0.1597 0.6248 0.7148
C17 C 0.2925(4) 0.5276(2) 0.6994(2)
H18 H 0.2876 0.4938 0.7438
C18 C 0.2821(5) 0.7804(3) 0.4924(2)
H19 H 0.1910 0.7801 0.5003
H20 H 0.2835 0.7959 0.4390
C19 C 0.3541(4) 0.8564(2) 0.5422(2)
C20 C 0.4870(4) 0.8585(3) 0.5599(3)
H21 H 0.5354 0.8087 0.5455
C21 C 0.5523(4) 0.9326(3) 0.5986(3)
H22 H 0.6435 0.9319 0.6095
C22 C 0.4843(3) 1.0070(2) 0.62109(19)
C23 C 0.3496(4) 1.0039(2) 0.6072(2)
H23 H 0.3012 1.0523 0.6241
C24 C 0.2850(4) 0.9293(3) 0.5681(2)
H24 H 0.1937 0.9283 0.5592
C25 C 0.5531(4) 1.0914(2) 0.6577(2)
N1 N 0.7601(3) 0.31548(19) 0.69815(17)
N2 N 0.9733(3) 0.3302(2) 0.70909(17)
N3 N 1.1903(3) 0.2662(2) 0.45394(18)
N4 N 1.1370(3) 0.2764(2) 0.32891(18)
O1 O 0.4745(3) 0.37786(17) 0.73000(16)
O2 O 0.4890(3) 0.36862(18) 0.60672(16)
O3 O 0.6728(3) 1.09439(18) 0.67625(16)
O4 O 0.4794(2) 1.16136(16) 0.66741(15)
N5 N 0.3344(4) 0.6880(2) 0.5065(2)
H29 H 0.384(4) 0.674(3) 0.481(3)
Co1_2 Co 0.58555(4) 1.26467(3) 0.71721(3)
Co1C Co 1.08555(4) 0.23533(3) 0.21721(3)
N4C N 0.6370(3) 0.2236(2) 0.82891(18)
O4_2 O 0.4794(2) 0.16136(16) 0.66741(15)
O5 O 0.9188(4) 1.0145(3) 0.6434(2)
H25 H 0.9584 1.0414 0.6870
H26 H 0.8316 1.0242 0.6463
O6 O 1.0229(13) 1.0661(10) 0.5059(7)
H27 H 1.0551 1.0223 0.4722
H28 H 1.0185 1.0368 0.5544
loop_
_geom_bond_atom_site_label_1
_geom_bond_atom_site_label_2
_geom_bond_site_symmetry_1
_geom_bond_site_symmetry_2
Co1 N1 1_555 1_555
C1 H1 1_555 1_555
C2 H2 1_555 1_555
C3 C2 1_555 1_555
H3 C3 1_555 1_555
C4 H4 1_555 1_555
H5 C4 1_555 1_555
C5 C4 1_555 1_555
H6 C5 1_555 1_555
H7 C5 1_555 1_555
C6 C5 1_555 1_555
H8 C6 1_555 1_555
H9 C6 1_555 1_555
C7 C6 1_555 1_555
H10 C7 1_555 1_555
H11 C7 1_555 1_555
C8 H12 1_555 1_555
C9 H13 1_555 1_555
C10 C9 1_555 1_555
H14 C10 1_555 1_555
C11 C12 1_555 1_555
C12 C13 1_555 1_555
C13 H15 1_555 1_555
C14 C13 1_555 1_555
C15 C14 1_555 1_555
H16 C15 1_555 1_555
C16 C15 1_555 1_555
H17 C16 1_555 1_555
C17 C12 1_555 1_555
H18 C17 1_555 1_555
C18 H19 1_555 1_555
H20 C18 1_555 1_555
C19 C18 1_555 1_555
C20 C19 1_555 1_555
H21 C20 1_555 1_555
C21 C20 1_555 1_555
H22 C21 1_555 1_555
C22 C21 1_555 1_555
C23 C22 1_555 1_555
H23 C23 1_555 1_555
C24 C19 1_555 1_555
H24 C24 1_555 1_555
C25 C22 1_555 1_555
N1 C1 1_555 1_555
N2 C1 1_555 1_555
N3 C7 1_555 1_555
N4 C8 1_555 1_555
O1 Co1 1_555 1_555
O2 C11 1_555 1_555
O3 C25 1_555 1_555
O4 C25 1_555 1_555
O5 H25 1_555 1_555
H26 O5 1_555 1_555
O6 H27 1_555 1_555
H28 O6 1_555 1_555
N5 C14 1_555 1_555
H29 N5 1_555 1_555
Co1_2 O4 1_555 1_555
Co1C N4 1_555 1_555
N4C Co1 1_555 1_555
O4_2 Co1 1_555 1_555
C2 N1 1_555 1_555
C3 N2 1_555 1_555
C4 N2 1_555 1_555
C8 N3 1_555 1_555
C9 N4 1_555 1_555
C10 N3 1_555 1_555
C11 O1 1_555 1_555
C16 C17 1_555 1_555
C18 N5 1_555 1_555
C23 C24 1_555 1_555

#END
