
#######################################################################
#
#                 Cambridge Crystallographic Data Centre
#                                CCDC 
#
#######################################################################
#
# If this CIF has been generated from an entry in the Cambridge 
# Structural Database, then it will include bibliographic, chemical, 
# crystal, experimental, refinement or atomic coordinate data resulting 
# from the CCDC's data processing and validation procedures.
#
#######################################################################

data_IQEJIX
_symmetry_cell_setting           monoclinic
_symmetry_space_group_name_H-M   'P 21/n'
_symmetry_Int_Tables_number      14
_space_group_name_Hall           '-P 2yn'
loop_
_symmetry_equiv_pos_site_id
_symmetry_equiv_pos_as_xyz
1 x,y,z
2 1/2+x,1/2-y,1/2+z
3 -x,-y,-z
4 1/2-x,1/2+y,1/2-z
_cell_length_a                   10.9736(7)
_cell_length_b                   9.2296(6)
_cell_length_c                   14.4314(9)
_cell_angle_alpha                90
_cell_angle_beta                 110.973(6)
_cell_angle_gamma                90
_cell_volume                     1364.81
loop_
_atom_site_label
_atom_site_type_symbol
_atom_site_fract_x
_atom_site_fract_y
_atom_site_fract_z
Cu1 Cu 0.5000 0.0000 0.0000
N1 N 0.4465(3) -0.3679(3) 0.1547(2)
N2 N 0.3448(3) -0.2819(3) 0.1440(2)
N3 N 0.3449(3) -0.1599(3) 0.0976(2)
N4 N 0.4532(3) -0.1645(3) 0.0757(2)
N5 N 0.4006(3) -0.4375(4) 0.5819(2)
N6 N 0.3435(3) -0.3458(3) 0.5080(2)
N7 N 0.2168(3) -0.3386(3) 0.4815(2)
N8 N 0.1869(3) -0.4308(3) 0.5410(2)
O1 O 0.5674(3) 0.1352(3) 0.1435(2)
C1 C 0.5551(6) 0.2872(5) 0.1630(4)
C2 C 0.4169(3) -0.2595(4) 0.4590(3)
C3 C 0.3336(3) -0.2273(4) 0.3516(3)
C4 C 0.2867(3) -0.3612(4) 0.2866(2)
C5 C 0.2366(3) -0.3239(4) 0.1765(3)
C6 C 0.5125(4) -0.2911(4) 0.1114(3)
C7 C 0.2998(3) -0.4895(4) 0.6009(3)
H1 H 0.645(6) 0.313(7) 0.211(5)
H2 H 0.505(7) 0.332(8) 0.103(6)
H3 H 0.501(8) 0.297(9) 0.198(6)
H4 H 0.586(4) -0.324(5) 0.103(3)
H5 H 0.303(4) -0.560(5) 0.648(3)
H6 H 0.447(5) -0.166(5) 0.503(4)
H7 H 0.494(4) -0.307(5) 0.464(3)
H8 H 0.388(4) -0.166(4) 0.329(3)
H9 H 0.262(4) -0.169(4) 0.344(3)
H10 H 0.361(4) -0.426(5) 0.302(3)
H11 H 0.221(4) -0.405(4) 0.305(3)
H12 H 0.179(4) -0.254(5) 0.163(3)
H13 H 0.190(4) -0.407(4) 0.137(3)
H14 H 0.582(5) 0.106(6) 0.189(4)
N1B N 0.5535(3) 0.3679(3) -0.1547(2)
N2B N 0.6552(3) 0.2819(3) -0.1440(2)
N3B N 0.6551(3) 0.1599(3) -0.0976(2)
N4B N 0.5468(3) 0.1645(3) -0.0757(2)
N5B N 0.5994(3) 0.4375(4) -0.5819(2)
N6B N 0.6565(3) 0.3458(3) -0.5080(2)
N7B N 0.7832(3) 0.3386(3) -0.4815(2)
N8B N 0.8131(3) 0.4308(3) -0.5410(2)
C2B C 0.5831(3) 0.2595(4) -0.4590(3)
C3B C 0.6664(3) 0.2273(4) -0.3516(3)
C4B C 0.7133(3) 0.3612(4) -0.2866(2)
C5B C 0.7634(3) 0.3239(4) -0.1765(3)
C6B C 0.4875(4) 0.2911(4) -0.1114(3)
C7B C 0.7002(3) 0.4895(4) -0.6009(3)
H4B H 0.414(4) 0.324(5) -0.103(3)
H5B H 0.697(4) 0.560(5) -0.648(3)
H6B H 0.553(5) 0.166(5) -0.503(4)
H7B H 0.506(4) 0.307(5) -0.464(3)
H8B H 0.612(4) 0.166(4) -0.329(3)
H9B H 0.738(4) 0.169(4) -0.344(3)
H10B H 0.639(4) 0.426(5) -0.302(3)
H11B H 0.779(4) 0.405(4) -0.305(3)
H12B H 0.821(4) 0.254(5) -0.163(3)
H13B H 0.810(4) 0.407(4) -0.137(3)
O1B O 0.4326(3) -0.1352(3) -0.1435(2)
C1B C 0.4449(6) -0.2872(5) -0.1630(4)
H1B H 0.355(6) -0.313(7) -0.211(5)
H2B H 0.495(7) -0.332(8) -0.103(6)
H3B H 0.499(8) -0.297(9) -0.198(6)
H14B H 0.418(5) -0.106(6) -0.189(4)
N8A N 0.6869(3) -0.0692(3) 0.0410(2)
N8C N 0.3131(3) 0.0692(3) -0.0410(2)
Cu1A Cu 0.0000 -0.5000 0.5000
Cu1A_2 Cu 1.0000 0.5000 -0.5000
B1 B 0.8505(4) 0.4652(5) 0.1247(3)
F5 F 0.9624(5) 0.5426(6) 0.1398(5)
F6 F 0.8689(5) 0.3401(6) 0.1874(5)
F7 F 0.7491(6) 0.5447(7) 0.1157(5)
F8 F 0.8509(6) 0.4166(7) 0.0361(5)
F1? F 0.9695(5) 0.5449(6) 0.1750(5)
F2? F 0.8645(7) 0.3218(8) 0.1393(6)
F3? F 0.7800(5) 0.5290(6) 0.1817(4)
F4? F 0.7653(8) 0.4932(8) 0.0259(6)
loop_
_geom_bond_atom_site_label_1
_geom_bond_atom_site_label_2
_geom_bond_site_symmetry_1
_geom_bond_site_symmetry_2
Cu1 N4 1_555 1_555
N1 N2 1_555 1_555
N2 N3 1_555 1_555
N3 N4 1_555 1_555
N4 C6 1_555 1_555
N5 N6 1_555 1_555
N6 N7 1_555 1_555
N7 N8 1_555 1_555
N8 C7 1_555 1_555
O1 Cu1 1_555 1_555
C1 O1 1_555 1_555
C2 N6 1_555 1_555
C3 C2 1_555 1_555
C4 C3 1_555 1_555
C5 N2 1_555 1_555
C6 N1 1_555 1_555
C7 N5 1_555 1_555
B1 F5 1_555 1_555
F6 B1 1_555 1_555
F7 B1 1_555 1_555
F8 B1 1_555 1_555
H1 C1 1_555 1_555
H2 C1 1_555 1_555
H3 C1 1_555 1_555
H4 C6 1_555 1_555
H5 C7 1_555 1_555
H6 C2 1_555 1_555
H7 C2 1_555 1_555
H8 C3 1_555 1_555
H9 C3 1_555 1_555
H10 C4 1_555 1_555
H11 C4 1_555 1_555
H12 C5 1_555 1_555
H13 C5 1_555 1_555
H14 O1 1_555 1_555
N1B N2B 1_555 1_555
N2B N3B 1_555 1_555
N3B N4B 1_555 1_555
N4B Cu1 1_555 1_555
N5B N6B 1_555 1_555
N6B N7B 1_555 1_555
N7B N8B 1_555 1_555
N8B C7B 1_555 1_555
C2B N6B 1_555 1_555
C3B C2B 1_555 1_555
C4B C3B 1_555 1_555
C5B N2B 1_555 1_555
C6B N1B 1_555 1_555
C7B N5B 1_555 1_555
H4B C6B 1_555 1_555
H5B C7B 1_555 1_555
H6B C2B 1_555 1_555
H7B C2B 1_555 1_555
H8B C3B 1_555 1_555
H9B C3B 1_555 1_555
H10B C4B 1_555 1_555
H11B C4B 1_555 1_555
H12B C5B 1_555 1_555
H13B C5B 1_555 1_555
O1B Cu1 1_555 1_555
C1B O1B 1_555 1_555
H1B C1B 1_555 1_555
H2B C1B 1_555 1_555
H3B C1B 1_555 1_555
H14B O1B 1_555 1_555
N8A Cu1 1_555 1_555
N8C Cu1 1_555 1_555
Cu1A N8 1_555 1_555
Cu1A_2 N8B 1_555 1_555
C4 C5 1_555 1_555
N4B C6B 1_555 1_555
C4B C5B 1_555 1_555

#END
