
#######################################################################
#
#                 Cambridge Crystallographic Data Centre
#                                CCDC 
#
#######################################################################
#
# If this CIF has been generated from an entry in the Cambridge 
# Structural Database, then it will include bibliographic, chemical, 
# crystal, experimental, refinement or atomic coordinate data resulting 
# from the CCDC's data processing and validation procedures.
#
#######################################################################

data_IQEJUK
_symmetry_cell_setting           orthorhombic
_symmetry_space_group_name_H-M   'P n a 21'
_symmetry_Int_Tables_number      33
_space_group_name_Hall           'P 2c -2n'
loop_
_symmetry_equiv_pos_site_id
_symmetry_equiv_pos_as_xyz
1 x,y,z
2 -x,-y,1/2+z
3 1/2-x,1/2+y,1/2+z
4 1/2+x,1/2-y,z
_cell_length_a                   18.5487(16)
_cell_length_b                   9.8461(10)
_cell_length_c                   13.2847(11)
_cell_angle_alpha                90
_cell_angle_beta                 90
_cell_angle_gamma                90
_cell_volume                     2426.22
loop_
_atom_site_label
_atom_site_type_symbol
_atom_site_fract_x
_atom_site_fract_y
_atom_site_fract_z
Zn1 Zn 0.44547(3) 0.07558(7) -0.40373(6)
C1 C 0.4108(3) -0.2258(6) -0.3873(5)
H1 H 0.4243 -0.2295 -0.3199
C2 C 0.3854(3) -0.1514(7) -0.5325(5)
H2 H 0.3783 -0.0933 -0.5868
C3 C 0.3763(3) -0.2869(9) -0.5353(5)
H3 H 0.3610 -0.3381 -0.5901
C4 C 0.3920(3) -0.4744(5) -0.4105(7)
H4 H 0.4247 -0.4859 -0.3543
H5 H 0.4089 -0.5316 -0.4651
C5 C 0.3162(3) -0.5218(5) -0.3787(5)
H6 H 0.2833 -0.5103 -0.4348
H7 H 0.3179 -0.6178 -0.3623
C6 C 0.2879(3) -0.4442(6) -0.2891(4)
H8 H 0.2803 -0.3503 -0.3085
H9 H 0.3239 -0.4455 -0.2363
C7 C 0.2174(3) -0.5014(6) -0.2475(4)
H10 H 0.2238 -0.5971 -0.2327
H11 H 0.2058 -0.4555 -0.1849
C8 C 0.0980(3) -0.5597(7) -0.3214(4)
H12 H 0.0915 -0.6372 -0.2824
C9 C 0.0814(3) -0.4009(7) -0.4255(5)
H13 H 0.0607 -0.3455 -0.4742
C10 C 0.3745(5) 0.2159(7) -0.5446(5)
C11 C 0.3549(4) 0.3039(7) -0.6314(5)
C12 C 0.2847(3) 0.3481(7) -0.6419(5)
H14 H 0.2497 0.3185 -0.5969
C13 C 0.2661(3) 0.4355(7) -0.7182(5)
H15 H 0.2185 0.4636 -0.7247
C14 C 0.3174(4) 0.4821(8) -0.7857(5)
C15 C 0.3876(4) 0.4385(7) -0.7758(5)
H16 H 0.4228 0.4690 -0.8202
C16 C 0.4056(4) 0.3474(8) -0.6979(4)
H17 H 0.4528 0.3167 -0.6920
C17 C 0.3483(3) 0.6143(6) -0.9409(4)
H18 H 0.3923 0.6470 -0.9097
H19 H 0.3273 0.6897 -0.9775
C18 C 0.3680(4) 0.5071(7) -1.0146(5)
C19 C 0.3249(4) 0.4018(7) -1.0395(4)
H20 H 0.2810 0.3930 -1.0063
C20 C 0.3428(3) 0.3056(7) -1.1125(5)
H21 H 0.3119 0.2335 -1.1265
C21 C 0.4070(4) 0.3194(8) -1.1632(5)
C22 C 0.4527(3) 0.4246(8) -1.1366(4)
H22 H 0.4970 0.4333 -1.1687
C23 C 0.4335(4) 0.5172(6) -1.0627(5)
H23 H 0.4651 0.5867 -1.0454
C24 C 0.4291(5) 0.2265(9) -1.2505(5)
C25 C 0.1472(3) -0.3817(6) -0.3844(6)
H24 H 0.1793 -0.3118 -0.3986
N1 N 0.4061(2) -0.1121(5) -0.4404(3)
N2 N 0.3939(2) -0.3342(5) -0.4428(3)
N3 N 0.1572(3) -0.4851(5) -0.3180(3)
N4 N 0.0494(3) -0.5145(4) -0.3848(4)
O1 O 0.4408(3) 0.1784(5) -0.5342(3)
O2 O 0.3267(3) 0.1684(5) -0.4878(3)
O3 O 0.4766(3) 0.2668(5) -1.3080(3)
O4 O 0.3966(3) 0.1183(5) -1.2636(3)
N5 N 0.2988(3) 0.5756(7) -0.8616(4)
H27 H 0.2543(9) 0.589(6) -0.874(3)
Zn1C Zn -0.05453(3) -0.57558(7) -0.40373(6)
Zn1_2 Zn 0.44547(3) 0.07558(7) -1.40373(6)
N4C N 0.5494(3) 0.0145(4) -0.3848(4)
O3_2 O 0.4766(3) 0.2668(5) -0.3080(3)
O4_2 O 0.3966(3) 0.1183(5) -0.2636(3)
O5 O 0.5717(4) 0.1406(5) -0.6550(5)
H25 H 0.536(3) 0.139(8) -0.610(5)
H26 H 0.584(5) 0.053(4) -0.667(7)
loop_
_geom_bond_atom_site_label_1
_geom_bond_atom_site_label_2
_geom_bond_site_symmetry_1
_geom_bond_site_symmetry_2
Zn1 N1 1_555 1_555
C1 H1 1_555 1_555
C2 H2 1_555 1_555
C3 C2 1_555 1_555
H3 C3 1_555 1_555
C4 H4 1_555 1_555
H5 C4 1_555 1_555
C5 C4 1_555 1_555
H6 C5 1_555 1_555
H7 C5 1_555 1_555
C6 C5 1_555 1_555
H8 C6 1_555 1_555
H9 C6 1_555 1_555
C7 C6 1_555 1_555
H10 C7 1_555 1_555
H11 C7 1_555 1_555
C8 H12 1_555 1_555
C9 H13 1_555 1_555
C10 C11 1_555 1_555
C11 C12 1_555 1_555
C12 H14 1_555 1_555
C13 C12 1_555 1_555
H15 C13 1_555 1_555
C14 C13 1_555 1_555
C15 C14 1_555 1_555
H16 C15 1_555 1_555
C16 C11 1_555 1_555
H17 C16 1_555 1_555
C17 H18 1_555 1_555
H19 C17 1_555 1_555
C18 C17 1_555 1_555
C19 C18 1_555 1_555
H20 C19 1_555 1_555
C20 C19 1_555 1_555
H21 C20 1_555 1_555
C21 C20 1_555 1_555
C22 C21 1_555 1_555
H22 C22 1_555 1_555
C23 C18 1_555 1_555
H23 C23 1_555 1_555
C24 C21 1_555 1_555
C25 C9 1_555 1_555
H24 C25 1_555 1_555
N1 C1 1_555 1_555
N2 C1 1_555 1_555
N3 C7 1_555 1_555
N4 C8 1_555 1_555
O1 Zn1 1_555 1_555
O2 C10 1_555 1_555
O3 C24 1_555 1_555
O4 C24 1_555 1_555
O5 H25 1_555 1_555
H26 O5 1_555 1_555
N5 C14 1_555 1_555
H27 N5 1_555 1_555
Zn1C N4 1_555 1_555
Zn1_2 O3 1_555 1_555
N4C Zn1 1_555 1_555
O3_2 Zn1 1_555 1_555
O4_2 Zn1 1_555 1_555
C2 N1 1_555 1_555
C3 N2 1_555 1_555
C4 N2 1_555 1_555
C8 N3 1_555 1_555
C9 N4 1_555 1_555
C10 O1 1_555 1_555
C15 C16 1_555 1_555
C17 N5 1_555 1_555
C22 C23 1_555 1_555
C25 N3 1_555 1_555
O4 Zn1_2 1_555 1_555

#END
