
#######################################################################
#
#                 Cambridge Crystallographic Data Centre
#                                CCDC 
#
#######################################################################
#
# If this CIF has been generated from an entry in the Cambridge 
# Structural Database, then it will include bibliographic, chemical, 
# crystal, experimental, refinement or atomic coordinate data resulting 
# from the CCDC's data processing and validation procedures.
#
#######################################################################

data_IQEJET
_symmetry_cell_setting           triclinic
_symmetry_space_group_name_H-M   'P -1'
_symmetry_Int_Tables_number      2
_space_group_name_Hall           '-P 1'
loop_
_symmetry_equiv_pos_site_id
_symmetry_equiv_pos_as_xyz
1 x,y,z
2 -x,-y,-z
_cell_length_a                   8.4753(11)
_cell_length_b                   8.6917(12)
_cell_length_c                   20.538(4)
_cell_angle_alpha                83.287(18)
_cell_angle_beta                 87.613(18)
_cell_angle_gamma                65.853(13)
_cell_volume                     1371.05
loop_
_atom_site_label
_atom_site_type_symbol
_atom_site_fract_x
_atom_site_fract_y
_atom_site_fract_z
Cu1 Cu -0.5000 0.5000 0.5000
Cu2 Cu 0.0000 0.0000 0.0000
N1 N -0.3152(4) 0.0334(3) 0.42141(13)
N2 N -0.3672(3) 0.1532(3) 0.37048(12)
N3 N -0.4309(3) 0.3083(3) 0.38607(12)
N4 N -0.4188(3) 0.2923(3) 0.45092(12)
C1 C -0.3493(4) 0.1255(4) 0.47128(16)
H1 H -0.327(4) 0.076(4) 0.5142(15)
N5 N -0.3103(3) 0.6874(3) 0.33291(12)
N6 N -0.4794(3) 0.7410(3) 0.32204(12)
N7 N -0.5671(3) 0.7097(3) 0.37188(12)
N8 N -0.4502(3) 0.6290(3) 0.41885(12)
C2 C -0.2970(4) 0.6170(4) 0.39425(15)
H2 H -0.203(5) 0.573(4) 0.4156(17)
N9 N -0.1791(3) 0.4531(3) 0.08933(13)
N10 N -0.1120(3) 0.3281(3) 0.13744(12)
N11 N -0.0466(3) 0.1763(3) 0.11859(12)
N12 N -0.0711(3) 0.1998(3) 0.05417(12)
C3 C -0.1512(4) 0.3688(4) 0.03741(16)
H3 H -0.184(4) 0.424(4) -0.0039(16)
N13 N -1.1602(3) 0.7963(3) 0.16895(13)
N14 N -0.9892(3) 0.7395(3) 0.17547(12)
N15 N -0.9097(3) 0.7746(3) 0.12365(12)
N16 N -1.0352(3) 0.8608(3) 0.07991(11)
C4 C -1.1848(4) 0.8719(4) 0.10806(15)
H4 H -1.287(4) 0.926(4) 0.0908(16)
C5 C -0.3586(4) 0.1142(4) 0.30196(16)
H5 H -0.471(5) 0.183(5) 0.2834(17)
H6 H -0.339(5) -0.007(5) 0.3058(18)
C6 C -0.2142(4) 0.1434(4) 0.26388(16)
H7 H -0.112(5) 0.085(5) 0.2853(18)
H8 H -0.199(5) 0.090(5) 0.2297(18)
C7 C -0.2495(4) 0.3304(4) 0.24721(16)
H9 H -0.353(4) 0.394(4) 0.2256(16)
H10 H -0.253(4) 0.376(4) 0.2879(17)
C8 C -0.1090(4) 0.3592(4) 0.20677(16)
H11 H -0.117(5) 0.465(5) 0.2058(17)
H12 H 0.014(5) 0.272(5) 0.2238(17)
C9 C -0.5606(4) 0.8322(5) 0.25855(16)
H13 H -0.490(4) 0.789(4) 0.2278(16)
H14 H -0.575(4) 0.954(5) 0.2577(17)
C10 C -0.7342(4) 0.8270(4) 0.24914(16)
H15 H -0.778(5) 0.899(5) 0.2077(19)
H16 H -0.807(5) 0.876(5) 0.2826(18)
C11 C -0.7243(4) 0.6496(4) 0.24272(17)
H17 H -0.652(5) 0.598(5) 0.2090(19)
H18 H -0.671(4) 0.581(4) 0.2798(16)
C12 C -0.8973(4) 0.6426(5) 0.23652(16)
H19 H -0.891(5) 0.526(5) 0.2391(19)
H20 H -0.971(4) 0.690(4) 0.2724(17)
C13 C -0.9186(5) 0.7200(5) 0.4418(2)
H21 H -1.023(5) 0.720(4) 0.4525(17)
H22 H -0.911(6) 0.739(6) 0.397(3)
H23 H -0.905(5) 0.814(5) 0.463(2)
O1 O -0.7788(3) 0.5637(3) 0.46476(12)
H24 H -0.792(5) 0.500(5) 0.4546(18)
C14 C -0.4329(5) 0.2290(5) -0.0421(2)
H25 H -0.536(5) 0.217(4) -0.0353(17)
H26 H -0.431(5) 0.272(5) -0.086(2)
H27 H -0.421(5) 0.300(5) -0.0102(18)
O2 O -0.2878(3) 0.0684(3) -0.02800(11)
H28 H -0.296(4) 0.010(4) -0.0473(16)
N1A N -0.6848(4) 0.9666(3) 0.57859(13)
N2A N -0.6328(3) 0.8468(3) 0.62952(12)
N3A N -0.5691(3) 0.6917(3) 0.61393(12)
N4A N -0.5812(3) 0.7077(3) 0.54908(12)
C1A C -0.6507(4) 0.8745(4) 0.52872(16)
H1A H -0.673(4) 0.924(4) 0.4858(15)
N9A N -0.8209(3) 0.5469(3) 0.91067(13)
N10A N -0.8880(3) 0.6719(3) 0.86256(12)
N11A N -0.9534(3) 0.8237(3) 0.88141(12)
N12A N -0.9289(3) 0.8002(3) 0.94583(12)
C3A C -0.8488(4) 0.6312(4) 0.96259(16)
H3A H -0.816(4) 0.576(4) 1.0039(16)
C5A C -0.6414(4) 0.8858(4) 0.69804(16)
H5A H -0.529(5) 0.817(5) 0.7166(17)
H6A H -0.661(5) 1.007(5) 0.6942(18)
C6A C -0.7858(4) 0.8566(4) 0.73612(16)
H7A H -0.888(5) 0.915(5) 0.7147(18)
H8A H -0.801(5) 0.910(5) 0.7703(18)
C7A C -0.7505(4) 0.6696(4) 0.75279(16)
H9A H -0.647(4) 0.606(4) 0.7744(16)
H10A H -0.747(4) 0.624(4) 0.7121(17)
C8A C -0.8910(4) 0.6408(4) 0.79323(16)
H11A H -0.883(5) 0.535(5) 0.7942(17)
H12A H -1.014(5) 0.728(5) 0.7762(17)
N5A N -0.6897(3) 0.3126(3) 0.66709(12)
N6A N -0.5206(3) 0.2590(3) 0.67796(12)
N7A N -0.4329(3) 0.2903(3) 0.62812(12)
N8A N -0.5498(3) 0.3710(3) 0.58115(12)
C2A C -0.7030(4) 0.3830(4) 0.60575(15)
H2A H -0.797(5) 0.427(4) 0.5844(17)
N13A N 0.1602(3) 0.2037(3) 0.83105(13)
N14A N -0.0108(3) 0.2605(3) 0.82453(12)
N15A N -0.0903(3) 0.2254(3) 0.87635(12)
N16A N 0.0352(3) 0.1392(3) 0.92009(11)
C4A C 0.1848(4) 0.1281(4) 0.89194(15)
H4A H 0.287(4) 0.074(4) 0.9092(16)
C9A C -0.4394(4) 0.1678(5) 0.74145(16)
H13A H -0.510(4) 0.211(4) 0.7722(16)
H14A H -0.425(4) 0.046(5) 0.7423(17)
C10A C -0.2658(4) 0.1730(4) 0.75086(16)
H15A H -0.222(5) 0.101(5) 0.7923(19)
H16A H -0.193(5) 0.124(5) 0.7174(18)
C11A C -0.2757(4) 0.3504(4) 0.75728(17)
H17A H -0.348(5) 0.402(5) 0.7910(19)
H18A H -0.329(4) 0.419(4) 0.7202(16)
C12A C -0.1027(4) 0.3574(5) 0.76348(16)
H19A H -0.109(5) 0.474(5) 0.7609(19)
H20A H -0.029(4) 0.310(4) 0.7276(17)
C13A C -0.0814(5) 0.2800(5) 0.5582(2)
H21A H 0.023(5) 0.280(4) 0.5475(17)
H22A H -0.089(6) 0.261(6) 0.603(3)
H23A H -0.095(5) 0.186(5) 0.537(2)
O1A O -0.2212(3) 0.4363(3) 0.53524(12)
H24A H -0.208(5) 0.500(5) 0.5454(18)
C14A C 0.4329(5) -0.2290(5) 0.0421(2)
H25A H 0.536(5) -0.217(4) 0.0353(17)
H26A H 0.431(5) -0.272(5) 0.086(2)
H27A H 0.421(5) -0.300(5) 0.0102(18)
O2A O 0.2878(3) -0.0684(3) 0.02800(11)
H28A H 0.296(4) -0.010(4) 0.0473(16)
N12A_2 N 0.0711(3) -0.1998(3) -0.05417(12)
N16_2 N -0.0352(3) -0.1392(3) 0.07991(11)
N16A_2 N 0.0352(3) 0.1392(3) -0.07991(11)
Cu2_2 Cu -1.0000 1.0000 0.0000
Cu2_3 Cu -1.0000 1.0000 1.0000
Cu2_4 Cu 0.0000 0.0000 1.0000
Cl1 Cl 0.36673(10) 0.25070(10) 0.12947(4)
O3 O 0.5139(3) 0.2919(4) 0.11991(14)
O4 O 0.2261(4) 0.3637(4) 0.08850(14)
O5 O 0.4126(3) 0.0794(3) 0.11469(14)
O6 O 0.3148(3) 0.2573(4) 0.19697(13)
Cl2 Cl 0.14671(10) -0.76808(10) 0.38197(4)
O7 O 0.0035(4) -0.8107(4) 0.39831(15)
O8 O 0.2117(6) -0.7490(7) 0.4440(2)
O9 O 0.0949(6) -0.6203(7) 0.3405(3)
O10 O 0.2865(7) -0.9062(7) 0.3560(3)
O11? O 0.2752(12) -0.8214(13) 0.4305(4)
O12? O 0.0944(9) -0.5759(10) 0.3683(4)
O13? O 0.2174(12) -0.8330(12) 0.3216(5)
loop_
_geom_bond_atom_site_label_1
_geom_bond_atom_site_label_2
_geom_bond_site_symmetry_1
_geom_bond_site_symmetry_2
Cu1 N4 1_555 1_555
Cu2 N12 1_555 1_555
N1 N2 1_555 1_555
N2 N3 1_555 1_555
N3 N4 1_555 1_555
N4 C1 1_555 1_555
C1 N1 1_555 1_555
H1 C1 1_555 1_555
N5 N6 1_555 1_555
N6 N7 1_555 1_555
N7 N8 1_555 1_555
N8 Cu1 1_555 1_555
C2 N5 1_555 1_555
H2 C2 1_555 1_555
N9 N10 1_555 1_555
N10 N11 1_555 1_555
N11 N12 1_555 1_555
N12 C3 1_555 1_555
C3 N9 1_555 1_555
H3 C3 1_555 1_555
N13 N14 1_555 1_555
N14 N15 1_555 1_555
N15 N16 1_555 1_555
N16 C4 1_555 1_555
C4 N13 1_555 1_555
H4 C4 1_555 1_555
C5 N2 1_555 1_555
H5 C5 1_555 1_555
H6 C5 1_555 1_555
C6 C5 1_555 1_555
H7 C6 1_555 1_555
H8 C6 1_555 1_555
C7 C6 1_555 1_555
H9 C7 1_555 1_555
H10 C7 1_555 1_555
C8 N10 1_555 1_555
H11 C8 1_555 1_555
H12 C8 1_555 1_555
C9 N6 1_555 1_555
H13 C9 1_555 1_555
H14 C9 1_555 1_555
C10 C9 1_555 1_555
H15 C10 1_555 1_555
H16 C10 1_555 1_555
C11 C10 1_555 1_555
H17 C11 1_555 1_555
H18 C11 1_555 1_555
C12 N14 1_555 1_555
H19 C12 1_555 1_555
H20 C12 1_555 1_555
C13 H21 1_555 1_555
H22 C13 1_555 1_555
H23 C13 1_555 1_555
O1 Cu1 1_555 1_555
H24 O1 1_555 1_555
C14 H25 1_555 1_555
H26 C14 1_555 1_555
H27 C14 1_555 1_555
O2 Cu2 1_555 1_555
H28 O2 1_555 1_555
Cl1 O3 1_555 1_555
O4 Cl1 1_555 1_555
O5 Cl1 1_555 1_555
O6 Cl1 1_555 1_555
Cl2 O7 1_555 1_555
O8 Cl2 1_555 1_555
O9 Cl2 1_555 1_555
O10 Cl2 1_555 1_555
N1A N2A 1_555 1_555
N2A N3A 1_555 1_555
N3A N4A 1_555 1_555
N4A Cu1 1_555 1_555
C1A N1A 1_555 1_555
H1A C1A 1_555 1_555
N9A N10A 1_555 1_555
N10A N11A 1_555 1_555
N11A N12A 1_555 1_555
N12A C3A 1_555 1_555
C3A N9A 1_555 1_555
H3A C3A 1_555 1_555
C5A N2A 1_555 1_555
H5A C5A 1_555 1_555
H6A C5A 1_555 1_555
C6A C5A 1_555 1_555
H7A C6A 1_555 1_555
H8A C6A 1_555 1_555
C7A C6A 1_555 1_555
H9A C7A 1_555 1_555
H10A C7A 1_555 1_555
C8A N10A 1_555 1_555
H11A C8A 1_555 1_555
H12A C8A 1_555 1_555
N5A N6A 1_555 1_555
N6A N7A 1_555 1_555
N7A N8A 1_555 1_555
N8A Cu1 1_555 1_555
C2A N5A 1_555 1_555
H2A C2A 1_555 1_555
N13A N14A 1_555 1_555
N14A N15A 1_555 1_555
N15A N16A 1_555 1_555
N16A C4A 1_555 1_555
C4A N13A 1_555 1_555
H4A C4A 1_555 1_555
C9A N6A 1_555 1_555
H13A C9A 1_555 1_555
H14A C9A 1_555 1_555
C10A C9A 1_555 1_555
H15A C10A 1_555 1_555
H16A C10A 1_555 1_555
C11A C10A 1_555 1_555
H17A C11A 1_555 1_555
H18A C11A 1_555 1_555
C12A N14A 1_555 1_555
H19A C12A 1_555 1_555
H20A C12A 1_555 1_555
C13A H21A 1_555 1_555
H22A C13A 1_555 1_555
H23A C13A 1_555 1_555
O1A Cu1 1_555 1_555
H24A O1A 1_555 1_555
C14A H25A 1_555 1_555
H26A C14A 1_555 1_555
H27A C14A 1_555 1_555
O2A Cu2 1_555 1_555
H28A O2A 1_555 1_555
N12A_2 Cu2 1_555 1_555
N16_2 Cu2 1_555 1_555
N16A_2 Cu2 1_555 1_555
Cu2_2 N16 1_555 1_555
Cu2_3 N12A 1_555 1_555
Cu2_4 N16A 1_555 1_555
N8 C2 1_555 1_555
C7 C8 1_555 1_555
C11 C12 1_555 1_555
C13 O1 1_555 1_555
C14 O2 1_555 1_555
N4A C1A 1_555 1_555
C7A C8A 1_555 1_555
N8A C2A 1_555 1_555
C11A C12A 1_555 1_555
C13A O1A 1_555 1_555
C14A O2A 1_555 1_555

#END
