
#######################################################################
#
#                 Cambridge Crystallographic Data Centre
#                                CCDC 
#
#######################################################################
#
# If this CIF has been generated from an entry in the Cambridge 
# Structural Database, then it will include bibliographic, chemical, 
# crystal, experimental, refinement or atomic coordinate data resulting 
# from the CCDC's data processing and validation procedures.
#
#######################################################################

data_IQEKIZ
_symmetry_cell_setting           monoclinic
_symmetry_space_group_name_H-M   'P 21/n'
_symmetry_Int_Tables_number      14
_space_group_name_Hall           '-P 2yn'
loop_
_symmetry_equiv_pos_site_id
_symmetry_equiv_pos_as_xyz
1 x,y,z
2 1/2-x,1/2+y,1/2-z
3 -x,-y,-z
4 1/2+x,1/2-y,1/2+z
_cell_length_a                   13.7551(7)
_cell_length_b                   12.4113(7)
_cell_length_c                   16.3819(8)
_cell_angle_alpha                90
_cell_angle_beta                 110.267(5)
_cell_angle_gamma                90
_cell_volume                     2623.55
loop_
_atom_site_label
_atom_site_type_symbol
_atom_site_fract_x
_atom_site_fract_y
_atom_site_fract_z
Zn1 Zn 0.39778(3) 0.04501(5) 0.10437(3)
C1 C 0.2166(4) 0.0063(3) 0.1652(3)
H1 H 0.1724 -0.0120 0.1096
C2 C 0.3452(3) 0.0614(5) 0.2687(3)
H2 H 0.4100 0.0894 0.3007
C3 C 0.2730(4) 0.0330(6) 0.3019(3)
H3 H 0.2786 0.0372 0.3601
C4 C 0.0949(3) -0.0474(5) 0.2425(3)
H4 H 0.1123 -0.1065 0.2839
H5 H 0.0527 -0.0763 0.1863
C5 C 0.0315(3) 0.0365(5) 0.2713(3)
H6 H -0.0204 -0.0003 0.2888
H7 H 0.0770 0.0750 0.3216
C6 C -0.0199(4) 0.1138(4) 0.2027(3)
H8 H -0.0561 0.0748 0.1495
H9 H 0.0322 0.1586 0.1921
C7 C -0.0970(3) 0.1861(4) 0.2248(3)
H10 H -0.1340 0.2290 0.1740
H11 H -0.1474 0.1410 0.2378
C8 C -0.0055(3) 0.3528(4) 0.2948(3)
H12 H -0.0012 0.3823 0.2439
C9 C 0.0094(3) 0.3292(4) 0.4275(3)
H13 H 0.0266 0.3399 0.4870
C10 C -0.0412(3) 0.2423(4) 0.3833(3)
H14 H -0.0652 0.1834 0.4058
C11 C 0.5551(3) 0.1699(4) 0.2035(3)
C12 C 0.6243(3) 0.2674(4) 0.2323(3)
C13 C 0.6671(3) 0.2859(4) 0.3219(2)
H15 H 0.6536 0.2391 0.3610
C14 C 0.7308(3) 0.3764(4) 0.3518(2)
C15 C 0.7522(2) 0.4441(4) 0.2939(2)
H16 H 0.7973 0.5016 0.3148
C16 C 0.7075(3) 0.4283(3) 0.2042(2)
C17 C 0.6431(2) 0.3383(3) 0.1745(2)
H17 H 0.6126 0.3262 0.1150
C18 C 0.7767(3) 0.3948(4) 0.4482(3)
C19 C 0.7004(3) 0.4875(4) 0.0563(2)
H18 H 0.6962 0.5562 0.0270
H19 H 0.6335 0.4524 0.0320
C20 C 0.7811(3) 0.4189(4) 0.0390(2)
C21 C 0.8813(3) 0.4526(4) 0.0606(2)
H20 H 0.8988 0.5204 0.0856
C22 C 0.9577(3) 0.3911(5) 0.0472(3)
H21 H 1.0253 0.4169 0.0634
C23 C 0.9325(4) 0.2897(5) 0.0089(3)
C24 C 0.8328(4) 0.2559(5) -0.0137(3)
H22 H 0.8146 0.1888 -0.0398
C25 C 0.7587(4) 0.3181(5) 0.0009(3)
H23 H 0.6913 0.2921 -0.0152
C26 C 1.0139(5) 0.2227(6) -0.0049(3)
N1 N 0.3108(2) 0.0437(3) 0.18164(18)
N2 N 0.1910(3) -0.0028(3) 0.2358(3)
N3 N -0.0497(2) 0.2587(3) 0.2987(2)
N4 N 0.0318(2) 0.3994(3) 0.3719(2)
O1 O 0.49200(18) 0.1705(2) 0.12494(17)
O2 O 0.56189(18) 0.0963(3) 0.25654(18)
O3 O 0.7596(2) 0.3305(3) 0.49956(18)
O4 O 0.83514(19) 0.4738(3) 0.47435(15)
O5 O 0.9985(3) 0.1331(4) -0.0350(3)
O6 O 1.1052(3) 0.2708(3) 0.0180(2)
H24 H 1.1474 0.2302 0.0089
N5 N 0.7220(2) 0.5069(3) 0.1486(2)
H25 H 0.783(3) 0.530(3) 0.171(2)
Zn1A Zn 0.10222(3) 0.54501(5) 0.39563(3)
Zn1C Zn 0.89778(3) 0.45499(5) 0.60437(3)
N4A N 0.4682(2) -0.1006(3) 0.1281(2)
O4C O 0.33514(19) 0.0262(3) -0.02565(15)
loop_
_geom_bond_atom_site_label_1
_geom_bond_atom_site_label_2
_geom_bond_site_symmetry_1
_geom_bond_site_symmetry_2
Zn1 N1 1_555 1_555
C1 H1 1_555 1_555
C2 H2 1_555 1_555
C3 C2 1_555 1_555
H3 C3 1_555 1_555
C4 H4 1_555 1_555
H5 C4 1_555 1_555
C5 C4 1_555 1_555
H6 C5 1_555 1_555
H7 C5 1_555 1_555
C6 C5 1_555 1_555
H8 C6 1_555 1_555
H9 C6 1_555 1_555
C7 C6 1_555 1_555
H10 C7 1_555 1_555
H11 C7 1_555 1_555
C8 H12 1_555 1_555
C9 H13 1_555 1_555
C10 C9 1_555 1_555
H14 C10 1_555 1_555
C11 C12 1_555 1_555
C12 C13 1_555 1_555
C13 H15 1_555 1_555
C14 C13 1_555 1_555
C15 C14 1_555 1_555
H16 C15 1_555 1_555
C16 C15 1_555 1_555
C17 C12 1_555 1_555
H17 C17 1_555 1_555
C18 C14 1_555 1_555
C19 H18 1_555 1_555
H19 C19 1_555 1_555
C20 C19 1_555 1_555
C21 C20 1_555 1_555
H20 C21 1_555 1_555
C22 C21 1_555 1_555
H21 C22 1_555 1_555
C23 C22 1_555 1_555
C24 C23 1_555 1_555
H22 C24 1_555 1_555
C25 C20 1_555 1_555
H23 C25 1_555 1_555
C26 C23 1_555 1_555
N1 C1 1_555 1_555
N2 C1 1_555 1_555
N3 C7 1_555 1_555
N4 C8 1_555 1_555
O1 Zn1 1_555 1_555
O2 C11 1_555 1_555
O3 C18 1_555 1_555
O4 C18 1_555 1_555
O5 C26 1_555 1_555
O6 C26 1_555 1_555
H24 O6 1_555 1_555
N5 C16 1_555 1_555
H25 N5 1_555 1_555
Zn1A N4 1_555 1_555
Zn1C O4 1_555 1_555
N4A Zn1 1_555 1_555
O4C Zn1 1_555 1_555
C2 N1 1_555 1_555
C3 N2 1_555 1_555
C4 N2 1_555 1_555
C8 N3 1_555 1_555
C9 N4 1_555 1_555
C10 N3 1_555 1_555
C11 O1 1_555 1_555
C16 C17 1_555 1_555
C19 N5 1_555 1_555
C24 C25 1_555 1_555

#END
