
#######################################################################
#
#                 Cambridge Crystallographic Data Centre
#                                CCDC 
#
#######################################################################
#
# If this CIF has been generated from an entry in the Cambridge 
# Structural Database, then it will include bibliographic, chemical, 
# crystal, experimental, refinement or atomic coordinate data resulting 
# from the CCDC's data processing and validation procedures.
#
#######################################################################

data_IQEKAQ
_symmetry_cell_setting           orthorhombic
_symmetry_space_group_name_H-M   'P b c a'
_symmetry_Int_Tables_number      61
_space_group_name_Hall           '-P 2ac 2ab'
loop_
_symmetry_equiv_pos_site_id
_symmetry_equiv_pos_as_xyz
1 x,y,z
2 1/2+x,y,1/2-z
3 x,1/2-y,1/2+z
4 1/2-x,1/2+y,z
5 -x,-y,-z
6 1/2-x,-y,1/2+z
7 -x,1/2+y,1/2-z
8 1/2+x,1/2-y,-z
_cell_length_a                   12.2091(18)
_cell_length_b                   15.7787(19)
_cell_length_c                   20.281(3)
_cell_angle_alpha                90
_cell_angle_beta                 90
_cell_angle_gamma                90
_cell_volume                     3907.01
loop_
_atom_site_label
_atom_site_type_symbol
_atom_site_fract_x
_atom_site_fract_y
_atom_site_fract_z
Cu1 Cu 0.0000 0.0000 0.5000
N1 N -0.1967(2) 0.1648(2) 0.35430(14)
N2 N -0.1265(2) 0.12194(19) 0.31637(14)
N3 N -0.0547(2) 0.07534(19) 0.34882(13)
N4 N -0.0786(2) 0.08751(19) 0.41262(13)
C1 C -0.1640(3) 0.1416(2) 0.41304(19)
N5 N 0.2915(2) 0.03252(18) 0.39463(14)
N6 N 0.3112(2) 0.06182(17) 0.45513(14)
N7 N 0.2292(2) 0.05423(17) 0.49629(14)
N8 N 0.1494(2) 0.01829(16) 0.46123(13)
C2 C 0.1897(3) 0.0055(2) 0.40041(17)
N9 N 0.0778(2) 0.26183(18) 0.07924(14)
N10 N 0.0646(2) 0.31203(17) 0.13158(13)
N11 N 0.0316(2) 0.38924(18) 0.11797(14)
N12 N 0.0208(2) 0.39082(17) 0.05278(13)
C3 C 0.0493(3) 0.3137(2) 0.03093(19)
C4 C -0.1331(3) 0.1239(3) 0.24426(18)
C5 C -0.0806(4) 0.2036(3) 0.2158(2)
C6 C 0.5086(3) 0.0347(2) 0.4743(2)
C7 C 0.4167(3) 0.1000(3) 0.4741(2)
C8 C 0.0948(3) 0.2866(2) 0.19962(17)
C9 C 0.0438(3) 0.2024(3) 0.2188(2)
H13 H -0.190(3) 0.160(2) 0.4463(17)
H14 H 0.148(2) -0.0196(19) 0.3643(14)
H15 H 0.056(4) 0.301(3) -0.007(2)
H16 H -0.100(3) 0.077(3) 0.2254(19)
H17 H -0.213(3) 0.117(2) 0.2326(16)
H18 H -0.101(3) 0.201(3) 0.172(2)
H19 H -0.103(4) 0.246(3) 0.238(2)
H20 H 0.407(3) 0.124(2) 0.5117(18)
H21 H 0.430(3) 0.146(2) 0.4412(18)
H22 H 0.577(3) 0.0606(19) 0.4876(15)
H23 H 0.515(4) 0.015(3) 0.431(2)
H24 H 0.167(4) 0.282(3) 0.2019(19)
H25 H 0.071(3) 0.333(3) 0.2278(18)
H26 H 0.072(4) 0.191(3) 0.260(2)
H27 H 0.067(3) 0.154(2) 0.1921(18)
C6D C 0.4914(3) -0.0347(2) 0.5257(2)
C7D C 0.5833(3) -0.1000(3) 0.5259(2)
N6D N 0.6888(2) -0.06182(17) 0.54487(14)
N5D N 0.7085(2) -0.03252(18) 0.60537(14)
C2D C 0.8103(3) -0.0055(2) 0.59959(17)
N8D N 0.8506(2) -0.01829(16) 0.53877(13)
N7D N 0.7708(2) -0.05423(17) 0.50371(14)
H14D H 0.852(2) 0.0196(19) 0.6357(14)
H20D H 0.593(3) -0.124(2) 0.4883(18)
H21D H 0.570(3) -0.146(2) 0.5588(18)
H22D H 0.423(3) -0.0606(19) 0.5124(15)
H23D H 0.485(4) -0.015(3) 0.569(2)
N1D N 0.1967(2) -0.1648(2) 0.64570(14)
N2D N 0.1265(2) -0.12194(19) 0.68363(14)
N3D N 0.0547(2) -0.07534(19) 0.65118(13)
N4D N 0.0786(2) -0.08751(19) 0.58738(13)
C1D C 0.1640(3) -0.1416(2) 0.58696(19)
N9D N -0.0778(2) -0.26183(18) 0.92076(14)
N10D N -0.0646(2) -0.31203(17) 0.86842(13)
N11D N -0.0316(2) -0.38924(18) 0.88203(14)
N12D N -0.0208(2) -0.39082(17) 0.94722(13)
C3D C -0.0493(3) -0.3137(2) 0.96907(19)
C4D C 0.1331(3) -0.1239(3) 0.75574(18)
C5D C 0.0806(4) -0.2036(3) 0.7842(2)
C8D C -0.0948(3) -0.2866(2) 0.80038(17)
C9D C -0.0438(3) -0.2024(3) 0.7812(2)
H13D H 0.190(3) -0.160(2) 0.5537(17)
H15D H -0.056(4) -0.301(3) 1.007(2)
H16D H 0.100(3) -0.077(3) 0.7746(19)
H17D H 0.213(3) -0.117(2) 0.7674(16)
H18D H 0.101(3) -0.201(3) 0.828(2)
H19D H 0.103(4) -0.246(3) 0.762(2)
H24D H -0.167(4) -0.282(3) 0.7981(19)
H25D H -0.071(3) -0.333(3) 0.7722(18)
H26D H -0.072(4) -0.191(3) 0.740(2)
H27D H -0.067(3) -0.154(2) 0.8079(18)
N8D_2 N -0.1494(2) -0.01829(16) 0.53877(13)
N12B N 0.0208(2) 0.10918(17) 0.55278(13)
N12F N -0.0208(2) -0.10918(17) 0.44722(13)
Cu1B Cu 0.0000 0.5000 0.0000
Cu1_2 Cu 1.0000 0.0000 0.5000
Cu1B_2 Cu 0.0000 -0.5000 1.0000
O1 O 0.4980(6) 0.0409(5) 0.6982(3)
H1 H 0.5095 0.0832 0.6741
C10 C 0.3861(5) 0.0459(4) 0.7257(3)
H2 H 0.3703 -0.0067 0.7506
H3 H 0.3820 0.0940 0.7569
C11 C 0.3027(7) 0.0570(5) 0.6740(4)
H4 H 0.2300 0.0607 0.6943
H5 H 0.3049 0.0085 0.6438
H6 H 0.3177 0.1092 0.6494
Cl1 Cl 0.6925(3) 0.20830(17) 0.60908(13)
O3 O 0.7062(8) 0.1681(6) 0.6729(5)
O4 O 0.7857(5) 0.2019(4) 0.5670(3)
O5 O 0.6007(5) 0.1672(4) 0.5772(3)
O6 O 0.6613(6) 0.2962(4) 0.6196(3)
O2? O 0.4916(9) 0.0603(7) 0.6848(5)
H7? H 0.5376 0.0907 0.6650
C12? C 0.3835(10) 0.0925(8) 0.6730(6)
H8? H 0.3724 0.1010 0.6251
H9? H 0.3746 0.1479 0.6953
C13? C 0.3013(11) 0.0317(9) 0.6986(7)
H10? H 0.2275 0.0542 0.6910
H11? H 0.3126 0.0234 0.7460
H12? H 0.3093 -0.0226 0.6757
Cl2? Cl 0.6706(3) 0.20373(17) 0.61304(14)
O7? O 0.7254(7) 0.1654(5) 0.6689(4)
O8? O 0.7218(5) 0.1687(4) 0.5547(3)
O9? O 0.6898(6) 0.2947(5) 0.6139(4)
O10? O 0.5549(5) 0.1843(3) 0.6111(3)
loop_
_geom_bond_atom_site_label_1
_geom_bond_atom_site_label_2
_geom_bond_site_symmetry_1
_geom_bond_site_symmetry_2
Cu1 N4 1_555 1_555
N1 N2 1_555 1_555
N2 N3 1_555 1_555
N3 N4 1_555 1_555
N4 C1 1_555 1_555
C1 N1 1_555 1_555
N5 N6 1_555 1_555
N6 N7 1_555 1_555
N7 N8 1_555 1_555
N8 Cu1 1_555 1_555
C2 N5 1_555 1_555
N9 N10 1_555 1_555
N10 N11 1_555 1_555
N11 N12 1_555 1_555
N12 C3 1_555 1_555
C3 N9 1_555 1_555
C4 N2 1_555 1_555
C5 C4 1_555 1_555
C6 C7 1_555 1_555
C7 N6 1_555 1_555
C8 N10 1_555 1_555
C9 C5 1_555 1_555
O1 H1 1_555 1_555
C10 O1 1_555 1_555
H2 C10 1_555 1_555
H3 C10 1_555 1_555
C11 C10 1_555 1_555
H4 C11 1_555 1_555
H5 C11 1_555 1_555
H6 C11 1_555 1_555
H13 C1 1_555 1_555
H14 C2 1_555 1_555
H15 C3 1_555 1_555
H16 C4 1_555 1_555
H17 C4 1_555 1_555
H18 C5 1_555 1_555
H19 C5 1_555 1_555
H20 C7 1_555 1_555
H21 C7 1_555 1_555
H22 C6 1_555 1_555
H23 C6 1_555 1_555
H24 C8 1_555 1_555
H25 C8 1_555 1_555
H26 C9 1_555 1_555
H27 C9 1_555 1_555
Cl1 O3 1_555 1_555
O4 Cl1 1_555 1_555
O5 Cl1 1_555 1_555
O6 Cl1 1_555 1_555
C6D C6 1_555 1_555
C7D C6D 1_555 1_555
N6D C7D 1_555 1_555
N5D N6D 1_555 1_555
C2D N5D 1_555 1_555
N8D C2D 1_555 1_555
N7D N6D 1_555 1_555
H14D C2D 1_555 1_555
H20D C7D 1_555 1_555
H21D C7D 1_555 1_555
H22D C6D 1_555 1_555
H23D C6D 1_555 1_555
N1D N2D 1_555 1_555
N2D N3D 1_555 1_555
N3D N4D 1_555 1_555
N4D Cu1 1_555 1_555
C1D N1D 1_555 1_555
N9D N10D 1_555 1_555
N10D N11D 1_555 1_555
N11D N12D 1_555 1_555
N12D C3D 1_555 1_555
C3D N9D 1_555 1_555
C4D N2D 1_555 1_555
C5D C4D 1_555 1_555
C8D N10D 1_555 1_555
C9D C5D 1_555 1_555
H13D C1D 1_555 1_555
H15D C3D 1_555 1_555
H16D C4D 1_555 1_555
H17D C4D 1_555 1_555
H18D C5D 1_555 1_555
H19D C5D 1_555 1_555
H24D C8D 1_555 1_555
H25D C8D 1_555 1_555
H26D C9D 1_555 1_555
H27D C9D 1_555 1_555
N8D_2 Cu1 1_555 1_555
N12B Cu1 1_555 1_555
N12F Cu1 1_555 1_555
Cu1B N12 1_555 1_555
Cu1_2 N8D 1_555 1_555
Cu1B_2 N12D 1_555 1_555
N8 C2 1_555 1_555
C8 C9 1_555 1_555
N8D N7D 1_555 1_555
N4D C1D 1_555 1_555
C8D C9D 1_555 1_555

#END
