
#######################################################################
#
#                 Cambridge Crystallographic Data Centre
#                                CCDC 
#
#######################################################################
#
# If this CIF has been generated from an entry in the Cambridge 
# Structural Database, then it will include bibliographic, chemical, 
# crystal, experimental, refinement or atomic coordinate data resulting 
# from the CCDC's data processing and validation procedures.
#
#######################################################################

data_IQERIF
_symmetry_cell_setting           monoclinic
_symmetry_space_group_name_H-M   'P 21/c'
_symmetry_Int_Tables_number      14
_space_group_name_Hall           '-P 2ybc'
loop_
_symmetry_equiv_pos_site_id
_symmetry_equiv_pos_as_xyz
1 x,y,z
2 x,1/2-y,1/2+z
3 -x,-y,-z
4 -x,1/2+y,1/2-z
_cell_length_a                   8.793(2)
_cell_length_b                   17.240(3)
_cell_length_c                   8.115(2)
_cell_angle_alpha                90
_cell_angle_beta                 107.42(3)
_cell_angle_gamma                90
_cell_volume                     1173.74
loop_
_atom_site_label
_atom_site_type_symbol
_atom_site_fract_x
_atom_site_fract_y
_atom_site_fract_z
Cu1 Cu 0.22380(5) 0.16912(2) 0.85942(6)
K1 K 0.71613(9) 0.19472(4) 0.84037(9)
C1 C 0.0242(4) 0.1861(2) 0.6823(4)
C2 C 0.3899(4) 0.2443(2) 0.9496(4)
N1 N 0.4871(4) 0.2893(2) 1.0061(4)
N2 N 0.3078(3) 0.05489(14) 0.8172(3)
C3 C 0.2871(3) -0.0018(2) 0.9208(4)
N3 N 0.3259(3) -0.07636(14) 0.9137(3)
C4 C 0.3902(4) -0.0950(2) 0.7897(4)
H1 H 0.4203(4) -0.1462(2) 0.7810(4)
C5 C 0.4140(4) -0.0414(2) 0.6739(4)
H2 H 0.4560(4) -0.0557(2) 0.5859(4)
C6 C 0.3725(4) 0.0344(2) 0.6942(4)
H3 H 0.3901(4) 0.0723(2) 0.6203(4)
N4 N 0.1852(3) 0.09848(14) 1.0626(3)
C7 C 0.2156(3) 0.0225(2) 1.0577(4)
N5 N 0.1891(3) -0.03167(14) 1.1633(3)
C8 C 0.1258(4) -0.0064(2) 1.2851(4)
H4 H 0.1032(4) -0.0421(2) 1.3603(4)
C9 C 0.0933(4) 0.0712(2) 1.3019(5)
H5 H 0.0502(4) 0.0881(2) 1.3872(5)
C10 C 0.1267(4) 0.1220(2) 1.1885(4)
H6 H 0.1082(4) 0.1746(2) 1.1991(4)
N6 N -0.0942(4) 0.1989(2) 0.5795(4)
N1A N 0.4871(4) 0.2107(2) 0.5061(4)
N3B N 0.6741(3) 0.07636(14) 1.0863(3)
N5B N 0.8109(3) 0.03167(14) 0.8367(3)
N6_2 N 0.9058(4) 0.1989(2) 0.5795(4)
N6A N 0.9058(4) 0.3011(2) 1.0795(4)
K1A K 0.71613(9) 0.30528(4) 1.34037(9)
K1B K 0.28387(9) -0.19472(4) 1.15963(9)
K1_2 K -0.28387(9) 0.19472(4) 0.84037(9)
K1A_2 K -0.28387(9) 0.30528(4) 0.34037(9)
loop_
_geom_bond_atom_site_label_1
_geom_bond_atom_site_label_2
_geom_bond_site_symmetry_1
_geom_bond_site_symmetry_2
Cu1 C1 1_555 1_555
K1 N1 1_555 1_555
C1 N6 1_555 1_555
C2 Cu1 1_555 1_555
N1 C2 1_555 1_555
N2 Cu1 1_555 1_555
C3 N2 1_555 1_555
N3 C3 1_555 1_555
C4 N3 1_555 1_555
H1 C4 1_555 1_555
C5 C4 1_555 1_555
H2 C5 1_555 1_555
C6 N2 1_555 1_555
H3 C6 1_555 1_555
N4 Cu1 1_555 1_555
C7 C3 1_555 1_555
N5 C7 1_555 1_555
C8 N5 1_555 1_555
H4 C8 1_555 1_555
C9 C8 1_555 1_555
H5 C9 1_555 1_555
C10 N4 1_555 1_555
H6 C10 1_555 1_555
N6 K1_2 1_555 1_555
N1A K1 1_555 1_555
N3B K1 1_555 1_555
N5B K1 1_555 1_555
N6_2 K1 1_555 1_555
N6A K1 1_555 1_555
K1A N1 1_555 1_555
K1B N3 1_555 1_555
K1A_2 N6 1_555 1_555
C5 C6 1_555 1_555
N4 C7 1_555 1_555
N5 K1B 1_555 1_555
C9 C10 1_555 1_555
N6A K1A 1_555 1_555

#END
