
#######################################################################
#
#                 Cambridge Crystallographic Data Centre
#                                CCDC 
#
#######################################################################
#
# If this CIF has been generated from an entry in the Cambridge 
# Structural Database, then it will include bibliographic, chemical, 
# crystal, experimental, refinement or atomic coordinate data resulting 
# from the CCDC's data processing and validation procedures.
#
#######################################################################

data_IQETOO
_symmetry_cell_setting           triclinic
_symmetry_space_group_name_H-M   'P -1'
_symmetry_Int_Tables_number      2
_space_group_name_Hall           '-P 1'
loop_
_symmetry_equiv_pos_site_id
_symmetry_equiv_pos_as_xyz
1 x,y,z
2 -x,-y,-z
_cell_length_a                   5.2313(2)
_cell_length_b                   8.3937(2)
_cell_length_c                   9.1104(3)
_cell_angle_alpha                108.964(2)
_cell_angle_beta                 97.829(2)
_cell_angle_gamma                106.947(2)
_cell_volume                     349.905
loop_
_atom_site_label
_atom_site_type_symbol
_atom_site_fract_x
_atom_site_fract_y
_atom_site_fract_z
Fe1 Fe 1.5000 0.5000 0.5000
Na1 Na 0.81300(12) 0.13537(8) 0.49236(7)
O1 O 1.0117(3) 0.24433(17) 0.00029(14)
O2 O 1.1533(2) 0.28897(13) 0.37470(12)
O3 O 1.3452(2) 0.62372(13) 0.37631(12)
O4 O 0.3636(2) 0.02319(15) 0.32167(13)
H1 H 0.2965 0.0968 0.3313
H2 H 0.2734 -0.0613 0.2385
O5 O 1.2157(2) 0.16788(14) 0.67308(13)
H3 H 1.3499 0.2319 0.6671
H4 H 1.2198 0.1871 0.7592
C1 C 0.8556(3) 0.1826(2) 0.10393(19)
H5 H 0.8714 0.0676 0.1033
H6 H 0.6579 0.1619 0.0654
C2 C 0.9732(3) 0.32736(19) 0.27324(17)
H7 H 0.8194 0.3472 0.3220
C3 C 1.1314(3) 0.49603(18) 0.24318(16)
H8 H 0.9995 0.5527 0.2133
C4 C 1.2300(3) 0.4116(2) 0.09773(18)
H9 H 1.2677 0.4917 0.0377
H10 H 1.4014 0.3907 0.1314
Na1A Na 2.18700(12) 0.86463(8) 0.50764(7)
Na1A_2 Na 1.18700(12) 0.86463(8) 0.50764(7)
Na1A_3 Na 0.18700(12) -0.13537(8) 0.50764(7)
Na1A_4 Na 1.18700(12) -0.13537(8) 0.50764(7)
Na1_2 Na 1.81300(12) 0.13537(8) 0.49236(7)
O1A O 1.9883(3) 0.75567(17) 0.99971(14)
O2A O 1.8467(2) 0.71103(13) 0.62530(12)
O3A O 1.6548(2) 0.37628(13) 0.62369(12)
O3A_2 O 0.6548(2) 0.37628(13) 0.62369(12)
O3_2 O 2.3452(2) 0.62372(13) 0.37631(12)
O4A O 0.6364(2) -0.02319(15) 0.67833(13)
O4A_2 O 2.6364(2) 0.97681(15) 0.67833(13)
O4_2 O 2.3636(2) 1.02319(15) 0.32167(13)
H1A H 0.7035 -0.0968 0.6687
H1A_2 H 2.7035 0.9032 0.6687
H1_2 H 2.2965 1.0968 0.3313
H2A H 0.7266 0.0613 0.7615
H2A_2 H 2.7266 1.0613 0.7615
H2_2 H 2.2734 0.9387 0.2385
O5A O 0.7843(2) -0.16788(14) 0.32692(13)
O5A_2 O 1.7843(2) 0.83212(14) 0.32692(13)
O5_2 O 2.2157(2) 1.16788(14) 0.67308(13)
H3A H 0.6501 -0.2319 0.3329
H3A_2 H 1.6501 0.7681 0.3329
H3_2 H 2.3499 1.2319 0.6671
H4A H 0.7802 -0.1871 0.2408
H4A_2 H 1.7802 0.8129 0.2408
H4_2 H 2.2198 1.1871 0.7592
C1A C 2.1444(3) 0.8174(2) 0.89607(19)
H5A H 2.1286 0.9324 0.8967
H6A H 2.3421 0.8381 0.9346
C2A C 2.0268(3) 0.67264(19) 0.72676(17)
H7A H 2.1806 0.6528 0.6780
C3A C 1.8686(3) 0.50397(18) 0.75682(16)
H8A H 2.0005 0.4473 0.7867
C4A C 1.7700(3) 0.5884(2) 0.90227(18)
H9A H 1.7323 0.5083 0.9623
H10A H 1.5986 0.6093 0.8686
loop_
_geom_bond_atom_site_label_1
_geom_bond_atom_site_label_2
_geom_bond_site_symmetry_1
_geom_bond_site_symmetry_2
Fe1 O2 1_555 1_555
Na1 O2 1_555 1_555
O1 C1 1_555 1_555
O2 C2 1_555 1_555
O3 Fe1 1_555 1_555
O4 Na1 1_555 1_555
H1 O4 1_555 1_555
H2 O4 1_555 1_555
O5 Na1 1_555 1_555
H3 O5 1_555 1_555
H4 O5 1_555 1_555
C1 H5 1_555 1_555
H6 C1 1_555 1_555
C2 C1 1_555 1_555
H7 C2 1_555 1_555
C3 O3 1_555 1_555
H8 C3 1_555 1_555
C4 O1 1_555 1_555
H9 C4 1_555 1_555
H10 C4 1_555 1_555
Na1A O2A 1_555 1_555
Na1A_2 O3 1_555 1_555
Na1A_3 O4 1_555 1_555
Na1A_4 O5 1_555 1_555
Na1_2 O3A 1_555 1_555
O1A C1A 1_555 1_555
O2A Fe1 1_555 1_555
O3A Fe1 1_555 1_555
O3A_2 Na1 1_555 1_555
O3_2 Na1A 1_555 1_555
O4A Na1 1_555 1_555
O4A_2 Na1A 1_555 1_555
O4_2 Na1A 1_555 1_555
H1A O4A 1_555 1_555
H1A_2 O4A_2 1_555 1_555
H1_2 O4_2 1_555 1_555
H2A O4A 1_555 1_555
H2A_2 O4A_2 1_555 1_555
H2_2 O4_2 1_555 1_555
O5A Na1 1_555 1_555
O5A_2 Na1A 1_555 1_555
O5_2 Na1A 1_555 1_555
H3A O5A 1_555 1_555
H3A_2 O5A_2 1_555 1_555
H3_2 O5_2 1_555 1_555
H4A O5A 1_555 1_555
H4A_2 O5A_2 1_555 1_555
H4_2 O5_2 1_555 1_555
C1A H5A 1_555 1_555
H6A C1A 1_555 1_555
C2A O2A 1_555 1_555
H7A C2A 1_555 1_555
C3A O3A 1_555 1_555
H8A C3A 1_555 1_555
C4A O1A 1_555 1_555
H9A C4A 1_555 1_555
H10A C4A 1_555 1_555
C2 C3 1_555 1_555
C3 C4 1_555 1_555
Na1A_3 O4A 1_555 1_555
Na1A_4 O5A 1_555 1_555
C1A C2A 1_555 1_555
C2A C3A 1_555 1_555
C3A C4A 1_555 1_555

#END
