
#######################################################################
#
#                 Cambridge Crystallographic Data Centre
#                                CCDC 
#
#######################################################################
#
# If this CIF has been generated from an entry in the Cambridge 
# Structural Database, then it will include bibliographic, chemical, 
# crystal, experimental, refinement or atomic coordinate data resulting 
# from the CCDC's data processing and validation procedures.
#
#######################################################################

data_IQETUU
_symmetry_cell_setting           monoclinic
_symmetry_space_group_name_H-M   'P 21/c'
_symmetry_Int_Tables_number      14
_space_group_name_Hall           '-P 2ybc'
loop_
_symmetry_equiv_pos_site_id
_symmetry_equiv_pos_as_xyz
1 x,y,z
2 -x,1/2+y,1/2-z
3 -x,-y,-z
4 x,1/2-y,1/2+z
_cell_length_a                   10.388(2)
_cell_length_b                   4.8568(10)
_cell_length_c                   14.453(3)
_cell_angle_alpha                90
_cell_angle_beta                 110.64(3)
_cell_angle_gamma                90
_cell_volume                     682.385
loop_
_atom_site_label
_atom_site_type_symbol
_atom_site_fract_x
_atom_site_fract_y
_atom_site_fract_z
Fe1 Fe 0.0000 0.5000 0.0000
O1 O 0.45381(13) 0.5950(4) 0.11360(11)
O2 O 0.15271(11) 0.6441(2) -0.03800(8)
O3 O 0.12234(11) 0.6005(3) 0.13826(8)
O4 O 0.26521(12) 0.1934(3) 0.35183(9)
H1 H 0.3435 0.1537 0.3569
H2 H 0.2408 0.0971 0.3840
O5 O -0.00586(12) 0.0436(2) 0.18639(9)
H3 H 0.0280 -0.0865 0.1691
H4 H -0.0530 0.1320 0.1368
C1 C 0.36639(18) 0.5114(3) 0.16540(14)
H5 H 0.4178 0.5114 0.2376
H6 H 0.3310 0.3232 0.1451
C2 C 0.24717(15) 0.7171(3) 0.13953(11)
H7 H 0.2727 0.8738 0.1875
C3 C 0.23923(16) 0.8198(3) 0.03651(11)
H8 H 0.2042 1.0133 0.0256
C4 C 0.38795(17) 0.8095(4) 0.04387(13)
H9 H 0.3940 0.7682 -0.0216
H10 H 0.4332 0.9887 0.0670
Li1 Li 0.1164(3) 0.3602(6) 0.2461(2)
O1B O -0.45381(13) 0.4050(4) -0.11360(11)
O2B O -0.15271(11) 0.3559(2) 0.03800(8)
O3B O -0.12234(11) 0.3995(3) -0.13826(8)
O4B O -0.26521(12) 0.8066(3) -0.35183(9)
H1B H -0.3435 0.8463 -0.3569
H2B H -0.2408 0.9029 -0.3840
O5A O 0.00586(12) 0.5436(2) 0.31361(9)
O5B O 0.00586(12) 0.9564(2) -0.18639(9)
O5C O -0.00586(12) 0.4564(2) -0.31361(9)
H3A H -0.0280 0.4135 0.3309
H3B H -0.0280 1.0865 -0.1691
H3C H 0.0280 0.5865 -0.3309
H4A H 0.0530 0.6320 0.3632
H4B H 0.0530 0.8680 -0.1368
H4C H -0.0530 0.3680 -0.3632
C1B C -0.36639(18) 0.4886(3) -0.16540(14)
H5B H -0.4178 0.4886 -0.2376
H6B H -0.3310 0.6768 -0.1451
C2B C -0.24717(15) 0.2829(3) -0.13953(11)
H7B H -0.2727 0.1262 -0.1875
C3B C -0.23923(16) 0.1802(3) -0.03651(11)
H8B H -0.2042 -0.0133 -0.0256
C4B C -0.38795(17) 0.1905(4) -0.04387(13)
H9B H -0.3940 0.2318 0.0216
H10B H -0.4332 0.0113 -0.0670
Li1B Li -0.1164(3) 0.6398(6) -0.2461(2)
Li1A Li -0.1164(3) -0.1398(6) 0.2539(2)
Li1A_2 Li -0.1164(3) 0.8602(6) 0.2539(2)
loop_
_geom_bond_atom_site_label_1
_geom_bond_atom_site_label_2
_geom_bond_site_symmetry_1
_geom_bond_site_symmetry_2
Fe1 O2 1_555 1_555
O1 C1 1_555 1_555
O2 C3 1_555 1_555
O3 Fe1 1_555 1_555
O4 H1 1_555 1_555
H2 O4 1_555 1_555
O5 H3 1_555 1_555
H4 O5 1_555 1_555
C1 H5 1_555 1_555
H6 C1 1_555 1_555
C2 O3 1_555 1_555
H7 C2 1_555 1_555
C3 C2 1_555 1_555
H8 C3 1_555 1_555
C4 O1 1_555 1_555
H9 C4 1_555 1_555
H10 C4 1_555 1_555
Li1 O3 1_555 1_555
O1B C1B 1_555 1_555
O2B Fe1 1_555 1_555
O3B Fe1 1_555 1_555
O4B H1B 1_555 1_555
H2B O4B 1_555 1_555
O5A Li1 1_555 1_555
O5B H3B 1_555 1_555
O5C H3C 1_555 1_555
H3A O5A 1_555 1_555
H4A O5A 1_555 1_555
H4B O5B 1_555 1_555
H4C O5C 1_555 1_555
C1B H5B 1_555 1_555
H6B C1B 1_555 1_555
C2B O3B 1_555 1_555
H7B C2B 1_555 1_555
C3B O2B 1_555 1_555
H8B C3B 1_555 1_555
C4B O1B 1_555 1_555
H9B C4B 1_555 1_555
H10B C4B 1_555 1_555
Li1B O3B 1_555 1_555
Li1A O5 1_555 1_555
Li1A_2 O5A 1_555 1_555
O4 Li1 1_555 1_555
O5 Li1 1_555 1_555
C1 C2 1_555 1_555
C3 C4 1_555 1_555
O4B Li1B 1_555 1_555
O5B Li1B 1_555 1_555
O5C Li1B 1_555 1_555
C1B C2B 1_555 1_555
C2B C3B 1_555 1_555
C3B C4B 1_555 1_555

#END
