
#######################################################################
#
#                 Cambridge Crystallographic Data Centre
#                                CCDC 
#
#######################################################################
#
# If this CIF has been generated from an entry in the Cambridge 
# Structural Database, then it will include bibliographic, chemical, 
# crystal, experimental, refinement or atomic coordinate data resulting 
# from the CCDC's data processing and validation procedures.
#
#######################################################################

data_IQEVAC
_symmetry_cell_setting           monoclinic
_symmetry_space_group_name_H-M   'P 21/n'
_symmetry_Int_Tables_number      14
_space_group_name_Hall           '-P 2yn'
loop_
_symmetry_equiv_pos_site_id
_symmetry_equiv_pos_as_xyz
1 x,y,z
2 1/2-x,1/2+y,1/2-z
3 -x,-y,-z
4 1/2+x,1/2-y,1/2+z
_cell_length_a                   5.56970(10)
_cell_length_b                   12.2906(2)
_cell_length_c                   28.5083(3)
_cell_angle_alpha                90
_cell_angle_beta                 91.4190(10)
_cell_angle_gamma                90
_cell_volume                     1950.94
loop_
_atom_site_label
_atom_site_type_symbol
_atom_site_fract_x
_atom_site_fract_y
_atom_site_fract_z
Fe1 Fe 0.07584(4) 0.649448(19) 0.128081(8)
Na1 Na 0.10658(12) 0.77227(6) -0.08959(2)
Na2 Na 0.10018(12) 0.76710(6) 0.33969(2)
O1 O -0.1663(2) 0.69901(10) 0.27741(4)
O2 O -0.1105(2) 0.75885(9) 0.16439(4)
O3 O -0.0516(2) 0.54330(9) 0.17337(4)
O4 O 0.3218(2) 0.69849(10) -0.02103(4)
O5 O 0.2668(2) 0.75726(9) 0.09099(4)
O6 O 0.1915(3) 0.54338(10) 0.08237(4)
O7 O -0.1162(2) 0.90062(10) -0.04523(4)
H1 H -0.1161 0.8885 -0.0165
H2 H -0.0701 0.9627 -0.0495
O8 O -0.0463(2) 0.85232(10) -0.16289(4)
H3 H 0.0655 0.8387 -0.1807
H4 H -0.0753 0.9176 -0.1676
O9 O -0.2424(2) 0.66380(10) -0.08547(4)
H5 H -0.2170 0.5964 -0.0853
H6 H -0.3481 0.6747 -0.0666
O10 O 0.2778(2) 0.62097(11) -0.13042(4)
H7 H 0.3738 0.5877 -0.1143
H8 H 0.1993 0.5732 -0.1457
O11 O 0.2247(2) 0.90073(11) 0.28996(4)
H9 H 0.3192 0.9465 0.3003
H10 H 0.2192 0.9095 0.2611
O12 O 0.4646(2) 0.87511(10) -0.10484(4)
H11 H 0.4343 0.9384 -0.1134
H12 H 0.5780 0.8803 -0.0852
C1 C -0.0375(3) 0.61534(15) 0.25323(6)
H13 H -0.0233 0.5490 0.2728
H14 H 0.1257 0.6406 0.2455
C2 C -0.1854(3) 0.59262(13) 0.20863(5)
H15 H -0.3262 0.5458 0.2161
C3 C -0.2732(3) 0.70843(13) 0.19499(5)
H16 H -0.4365 0.7044 0.1797
C4 C -0.2868(3) 0.76708(15) 0.24219(6)
H17 H -0.2068 0.8389 0.2405
H18 H -0.4565 0.7787 0.2504
C5 C 0.4553(3) 0.75996(15) 0.01415(6)
H19 H 0.3920 0.8351 0.0159
H20 H 0.6269 0.7636 0.0060
C6 C 0.4286(3) 0.70277(14) 0.06125(6)
H21 H 0.5889 0.6941 0.0774
C7 C 0.3254(3) 0.59042(14) 0.04685(6)
H22 H 0.4598 0.5406 0.0386
C8 C 0.1796(3) 0.61889(15) 0.00282(6)
H23 H 0.1536 0.5537 -0.0171
H24 H 0.0216 0.6495 0.0109
Na2C Na -0.39982(12) 0.73290(6) -0.16031(2)
Na2C_2 Na 0.60018(12) 0.73290(6) -0.16031(2)
O8C O 0.4537(2) 0.64768(10) 0.33711(4)
H3C H 0.5655 0.6613 0.3193
H4C H 0.4247 0.5824 0.3324
O9C O 0.2576(2) 0.83620(10) 0.41453(4)
H5C H 0.2830 0.9036 0.4147
H6C H 0.1519 0.8253 0.4334
O10C O -0.2222(2) 0.87903(11) 0.36958(4)
H7C H -0.1262 0.9123 0.3857
H8C H -0.3007 0.9268 0.3543
O12C O -0.0354(2) 0.62489(10) 0.39516(4)
H11C H -0.0657 0.5616 0.3866
H12C H 0.0780 0.6197 0.4148
O13 O 0.5783(2) 0.90162(10) 0.12631(4)
H25 H 0.6859 0.8599 0.1391
H26 H 0.4714 0.8571 0.1151
O14 O 0.3267(2) 0.43053(10) 0.31184(4)
H27 H 0.4133 0.3780 0.3185
H28 H 0.1980 0.4246 0.3254
O15 O 0.9403(2) 0.89349(10) 0.05414(4)
H29 H 1.0391 0.8480 0.0658
H30 H 0.8296 0.8974 0.0735
loop_
_geom_bond_atom_site_label_1
_geom_bond_atom_site_label_2
_geom_bond_site_symmetry_1
_geom_bond_site_symmetry_2
Fe1 O2 1_555 1_555
Na1 O4 1_555 1_555
Na2 O1 1_555 1_555
O1 C1 1_555 1_555
O2 C3 1_555 1_555
O3 Fe1 1_555 1_555
O4 C5 1_555 1_555
O5 Fe1 1_555 1_555
O6 Fe1 1_555 1_555
O7 Na1 1_555 1_555
H1 O7 1_555 1_555
H2 O7 1_555 1_555
O8 Na1 1_555 1_555
H3 O8 1_555 1_555
H4 O8 1_555 1_555
O9 Na1 1_555 1_555
H5 O9 1_555 1_555
H6 O9 1_555 1_555
O10 Na1 1_555 1_555
H7 O10 1_555 1_555
H8 O10 1_555 1_555
O11 Na2 1_555 1_555
H9 O11 1_555 1_555
H10 O11 1_555 1_555
O12 Na1 1_555 1_555
H11 O12 1_555 1_555
H12 O12 1_555 1_555
C1 H13 1_555 1_555
H14 C1 1_555 1_555
C2 O3 1_555 1_555
H15 C2 1_555 1_555
C3 C2 1_555 1_555
H16 C3 1_555 1_555
C4 O1 1_555 1_555
H17 C4 1_555 1_555
H18 C4 1_555 1_555
C5 H19 1_555 1_555
H20 C5 1_555 1_555
C6 O5 1_555 1_555
H21 C6 1_555 1_555
C7 O6 1_555 1_555
H22 C7 1_555 1_555
C8 O4 1_555 1_555
H23 C8 1_555 1_555
H24 C8 1_555 1_555
O13 H25 1_555 1_555
H26 O13 1_555 1_555
O14 H27 1_555 1_555
H28 O14 1_555 1_555
O15 H29 1_555 1_555
H30 O15 1_555 1_555
Na2C O8 1_555 1_555
Na2C_2 O10 1_555 1_555
O8C Na2 1_555 1_555
H3C O8C 1_555 1_555
H4C O8C 1_555 1_555
O9C Na2 1_555 1_555
H5C O9C 1_555 1_555
H6C O9C 1_555 1_555
O10C Na2 1_555 1_555
H7C O10C 1_555 1_555
H8C O10C 1_555 1_555
O12C Na2 1_555 1_555
H11C O12C 1_555 1_555
H12C O12C 1_555 1_555
O9 Na2C 1_555 1_555
O12 Na2C_2 1_555 1_555
C1 C2 1_555 1_555
C3 C4 1_555 1_555
C5 C6 1_555 1_555
C6 C7 1_555 1_555
C7 C8 1_555 1_555

#END
