
#######################################################################
#
#                 Cambridge Crystallographic Data Centre
#                                CCDC 
#
#######################################################################
#
# If this CIF has been generated from an entry in the Cambridge 
# Structural Database, then it will include bibliographic, chemical, 
# crystal, experimental, refinement or atomic coordinate data resulting 
# from the CCDC's data processing and validation procedures.
#
#######################################################################

data_IQIGOF
_symmetry_cell_setting           triclinic
_symmetry_space_group_name_H-M   'P -1'
_symmetry_Int_Tables_number      2
_space_group_name_Hall           '-P 1'
loop_
_symmetry_equiv_pos_site_id
_symmetry_equiv_pos_as_xyz
1 x,y,z
2 -x,-y,-z
_cell_length_a                   9.159(3)
_cell_length_b                   10.311(3)
_cell_length_c                   10.797(3)
_cell_angle_alpha                69.736(8)
_cell_angle_beta                 82.110(12)
_cell_angle_gamma                87.822(11)
_cell_volume                     947.437
loop_
_atom_site_label
_atom_site_type_symbol
_atom_site_fract_x
_atom_site_fract_y
_atom_site_fract_z
Mo1 Mo 0.37903(6) 0.11155(6) 0.25808(5)
Mo2 Mo 0.66653(6) -0.01035(6) 0.39792(5)
Mo3 Mo 0.50530(6) 0.29452(6) 0.43377(6)
Mo4 Mo 0.19591(7) -0.17410(7) 0.43403(6)
Cu1 Cu 0.38501(10) -0.12827(9) 0.09412(8)
Cu2 Cu 0.59704(9) 0.60157(9) 0.09859(8)
O1 O 0.1978(5) 0.0220(5) 0.3257(5)
O2 O 0.7229(6) -0.0809(6) 0.2797(5)
O3 O 0.2635(6) -0.2246(6) 0.3009(5)
O4 O 0.4500(5) 0.0269(5) 0.1481(5)
O5 O 0.0167(6) -0.2223(6) 0.4678(5)
O6 O 0.3363(5) 0.1733(5) 0.4415(4)
O7 O 0.3268(6) 0.2695(5) 0.1579(5)
O8 O 0.8223(5) 0.0713(5) 0.4133(5)
O9 O 0.7124(6) 0.3079(6) 0.4295(5)
O10 O 0.5719(5) 0.1579(5) 0.2945(4)
O11 O 0.4390(6) 0.3403(6) 0.5664(5)
O12 O 0.4787(6) 0.4320(6) 0.2967(5)
O13 O 0.4398(5) -0.0752(5) 0.4368(5)
O14 O 0.5584(5) -0.2354(5) 0.1437(5)
O15 O 0.2391(6) 0.0005(6) 0.0014(5)
N1 N 0.3178(6) -0.2702(6) 0.0243(6)
N2 N 0.2028(6) -0.5555(6) -0.1659(6)
N3 N 0.3485(6) -0.4452(6) -0.0372(5)
N4 N 0.2017(6) -0.2746(7) -0.0362(6)
H1 H 0.1290 -0.2182 -0.0493
N5 N 0.4045(6) -0.3720(6) 0.0251(5)
C1 C 0.1362(8) -0.6197(8) -0.2303(7)
H2 H 0.1778 -0.6994 -0.2413
C2 C -0.0600(8) -0.4593(9) -0.2606(7)
H3 H -0.1483 -0.4271 -0.2931
C3 C 0.0054(9) -0.5707(9) -0.2819(8)
H4 H -0.0366 -0.6145 -0.3308
C4 C 0.1365(8) -0.4429(7) -0.1451(7)
C5 C 0.2230(7) -0.3843(8) -0.0715(7)
C6 C 0.0056(8) -0.3933(8) -0.1898(8)
H5 H -0.0383 -0.3171 -0.1731
Mo2A Mo 0.33347(6) 0.01035(6) 0.60208(5)
Mo3A Mo 0.49470(6) -0.29452(6) 0.56623(6)
Mo4A Mo 0.80409(7) 0.17410(7) 0.56597(6)
Cu2_2 Cu 0.59704(9) -0.39843(9) 0.09859(8)
Cu2A Cu 0.40296(9) -0.60157(9) -0.09859(8)
O6A O 0.6637(5) -0.1733(5) 0.5585(4)
O8A O 0.1777(5) -0.0713(5) 0.5867(5)
O9A O 0.2876(6) -0.3079(6) 0.5705(5)
O13A O 0.5602(5) 0.0752(5) 0.5632(5)
O14_2 O 0.5584(5) 0.7646(5) 0.1437(5)
N2A N 0.7972(6) 0.5555(6) 0.1659(6)
N3A N 0.6515(6) 0.4452(6) 0.0372(5)
N5_2 N 0.4045(6) 0.6280(6) 0.0251(5)
O16 O 0.0150(8) 0.0687(9) 0.1308(7)
H6 H 0.0807 0.0544 0.1963
H7 H -0.0770 0.0232 0.1748
loop_
_geom_bond_atom_site_label_1
_geom_bond_atom_site_label_2
_geom_bond_site_symmetry_1
_geom_bond_site_symmetry_2
Mo1 O1 1_555 1_555
Mo2 O2 1_555 1_555
Mo3 O6 1_555 1_555
Mo4 O1 1_555 1_555
Cu1 O3 1_555 1_555
Cu2 O12 1_555 1_555
O3 Mo4 1_555 1_555
O4 Mo1 1_555 1_555
O5 Mo4 1_555 1_555
O6 Mo1 1_555 1_555
O7 Mo1 1_555 1_555
O8 Mo2 1_555 1_555
O9 Mo3 1_555 1_555
O10 Mo1 1_555 1_555
O11 Mo3 1_555 1_555
O12 Mo3 1_555 1_555
O13 Mo1 1_555 1_555
O14 Cu1 1_555 1_555
O15 Cu1 1_555 1_555
N1 Cu1 1_555 1_555
N2 C1 1_555 1_555
N3 N5 1_555 1_555
N4 N1 1_555 1_555
H1 N4 1_555 1_555
N5 N1 1_555 1_555
C1 H2 1_555 1_555
C2 H3 1_555 1_555
C3 C1 1_555 1_555
H4 C3 1_555 1_555
C4 N2 1_555 1_555
C5 N3 1_555 1_555
C6 C2 1_555 1_555
H5 C6 1_555 1_555
O16 H6 1_555 1_555
H7 O16 1_555 1_555
Mo2A O6 1_555 1_555
Mo3A O13 1_555 1_555
Mo4A O8 1_555 1_555
Cu2_2 O14 1_555 1_555
Cu2A N2 1_555 1_555
O6A Mo2 1_555 1_555
O8A Mo4 1_555 1_555
O9A Mo4 1_555 1_555
O13A Mo2 1_555 1_555
O14_2 Cu2 1_555 1_555
N2A Cu2 1_555 1_555
N3A Cu2 1_555 1_555
N5_2 Cu2 1_555 1_555
Mo2 O10 1_555 1_555
Mo2 O13 1_555 1_555
Mo3 O10 1_555 1_555
Mo3 O13A 1_555 1_555
Mo4 O13 1_555 1_555
Cu1 O4 1_555 1_555
O9 Mo4A 1_555 1_555
O13 Mo2A 1_555 1_555
N3 Cu2A 1_555 1_555
N4 C5 1_555 1_555
N5 Cu2_2 1_555 1_555
C2 C3 1_555 1_555
C4 C5 1_555 1_555
C4 C6 1_555 1_555
Mo2A O8A 1_555 1_555
Mo2A O13A 1_555 1_555
Mo3A O6A 1_555 1_555
Mo3A O9A 1_555 1_555
Mo4A O13A 1_555 1_555

#END
