
#######################################################################
#
#                 Cambridge Crystallographic Data Centre
#                                CCDC 
#
#######################################################################
#
# If this CIF has been generated from an entry in the Cambridge 
# Structural Database, then it will include bibliographic, chemical, 
# crystal, experimental, refinement or atomic coordinate data resulting 
# from the CCDC's data processing and validation procedures.
#
#######################################################################

data_IQIJOI
_symmetry_cell_setting           triclinic
_symmetry_space_group_name_H-M   'P -1'
_symmetry_Int_Tables_number      2
_space_group_name_Hall           '-P 1'
loop_
_symmetry_equiv_pos_site_id
_symmetry_equiv_pos_as_xyz
1 x,y,z
2 -x,-y,-z
_cell_length_a                   10.736(6)
_cell_length_b                   11.514(6)
_cell_length_c                   13.490(7)
_cell_angle_alpha                83.963(7)
_cell_angle_beta                 77.484(6)
_cell_angle_gamma                63.637(5)
_cell_volume                     1458.55
loop_
_atom_site_label
_atom_site_type_symbol
_atom_site_fract_x
_atom_site_fract_y
_atom_site_fract_z
C1 C -0.0493(6) -0.3193(6) 0.9490(5)
H1 H 0.0392 -0.3270 0.9537
C2 C -0.1608(7) -0.1559(6) 1.0903(5)
H2 H -0.0773 -0.2060 1.1197
H3 H -0.2430 -0.1340 1.1447
C3 C -0.2950(6) -0.2309(6) 1.0007(5)
H4 H -0.3795 -0.1774 1.0416
C4 C -0.1683(6) -0.2371(6) 1.0152(5)
C5 C -0.2974(6) -0.3024(6) 0.9271(5)
H5 H -0.3850 -0.2953 0.9206
C6 C -0.0588(6) -0.3891(6) 0.8771(5)
H6 H 0.0242 -0.4439 0.8356
N1 N -0.1824(4) -0.3823(4) 0.8636(4)
C7 C 1.1751(6) -0.2032(6) 0.6975(5)
H7 H 1.1265 -0.2535 0.6998
C8 C 1.3181(5) -0.0532(6) 0.6931(4)
H8 H 1.3656 -0.0022 0.6919
C9 C 1.3113(6) -0.2590(6) 0.7177(5)
H9 H 1.3538 -0.3469 0.7335
C10 C 1.1827(6) 0.0030(6) 0.6735(4)
H10 H 1.1389 0.0915 0.6600
C11 C 1.5372(6) -0.2452(6) 0.7277(4)
C12 C 1.3846(5) -0.1850(6) 0.7144(4)
O1 O 1.5991(4) -0.1728(4) 0.7081(4)
O2 O 1.5904(4) -0.3629(4) 0.7566(3)
Ni1 Ni -0.19394(7) 0.52400(8) 0.74349(6)
O3 O 0.0221(4) 0.4061(4) 0.7216(3)
O4 O -0.1395(4) 0.6581(5) 0.6507(4)
O5 O 0.9823(4) -0.0075(4) 0.6471(3)
N2 N -0.2337(4) 0.3809(5) 0.8363(4)
O6 O 0.6850(4) 0.1021(4) 0.6655(3)
O7 O 0.0684(4) 0.3508(5) 0.5598(3)
O8 O -0.2017(5) 0.4458(5) 0.6147(4)
C13 C 0.3119(6) 0.3154(6) 0.7236(5)
H11 H 0.2487 0.3691 0.7766
C14 C 0.9091(6) -0.0817(6) 0.6384(5)
H12 H 0.8806 -0.1135 0.7048
H13 H 0.9706 -0.1557 0.5951
C15 C -0.3249(6) 0.2994(6) 0.9917(5)
H14 H -0.3746 0.3166 1.0582
C16 C -0.2737(6) 0.1782(6) 0.9531(5)
C17 C 0.5481(5) 0.1690(6) 0.6500(5)
C18 C 0.1046(5) 0.3574(6) 0.6397(5)
C19 C 0.3593(6) 0.2226(6) 0.5623(5)
H15 H 0.3284 0.2139 0.5054
C20 C 0.2616(5) 0.3003(6) 0.6412(4)
C21 C -0.2909(6) 0.0661(6) 1.0134(5)
H16 H -0.3229 0.0238 0.9729
H17 H -0.3632 0.0994 1.0738
C22 C 0.5020(6) 0.1576(6) 0.5660(5)
H18 H 0.5661 0.1065 0.5119
C23 C -0.3031(6) 0.3963(6) 0.9323(5)
H19 H -0.3391 0.4775 0.9610
C24 C 0.4532(6) 0.2525(7) 0.7276(5)
H20 H 0.4857 0.2656 0.7821
C25 C -0.1552(6) -0.0328(6) 1.0447(5)
H21 H -0.0794 -0.0547 0.9856
H22 H -0.1317 0.0065 1.0937
C26 C -0.1849(7) 0.2628(7) 0.7998(5)
H23 H -0.1362 0.2476 0.7330
C27 C 0.7807(6) 0.0032(6) 0.5935(5)
H24 H 0.8081 0.0422 0.5305
H25 H 0.7353 -0.0479 0.5793
C28 C -0.2016(7) 0.1618(6) 0.8545(5)
H26 H -0.1636 0.0811 0.8244
C29 C -0.3020(8) 0.4426(9) 0.5689(7)
H27 H -0.3938 0.5070 0.5983
H28 H -0.3011 0.3584 0.5786
H29 H -0.2816 0.4599 0.4975
C30 C 1.1119(5) -0.0722(6) 0.6739(4)
H30 H -0.125(6) 0.646(5) 0.5886(18)
H31 H -0.210(5) 0.726(4) 0.669(4)
H32 H -0.120(3) 0.410(7) 0.586(5)
N1_2 N -0.1824(4) 0.6177(4) 0.8636(4)
O2_2 O -0.4096(4) 0.6371(4) 0.7566(3)
Ni1_2 Ni -0.19394(7) -0.47600(8) 0.74349(6)
Ni1_3 Ni 1.80606(7) -0.47600(8) 0.74349(6)
loop_
_geom_bond_atom_site_label_1
_geom_bond_atom_site_label_2
_geom_bond_site_symmetry_1
_geom_bond_site_symmetry_2
C1 H1 1_555 1_555
C2 H2 1_555 1_555
H3 C2 1_555 1_555
C3 H4 1_555 1_555
C4 C1 1_555 1_555
C5 C3 1_555 1_555
H5 C5 1_555 1_555
C6 C1 1_555 1_555
H6 C6 1_555 1_555
N1 C5 1_555 1_555
C7 H7 1_555 1_555
C8 H8 1_555 1_555
C9 C7 1_555 1_555
H9 C9 1_555 1_555
C10 C8 1_555 1_555
H10 C10 1_555 1_555
C11 C12 1_555 1_555
C12 C8 1_555 1_555
O1 C11 1_555 1_555
O2 C11 1_555 1_555
Ni1 O3 1_555 1_555
O3 C18 1_555 1_555
O4 Ni1 1_555 1_555
O5 C14 1_555 1_555
N2 Ni1 1_555 1_555
O6 C17 1_555 1_555
O7 C18 1_555 1_555
O8 Ni1 1_555 1_555
C13 H11 1_555 1_555
C14 H12 1_555 1_555
H13 C14 1_555 1_555
C15 H14 1_555 1_555
C16 C15 1_555 1_555
C17 C22 1_555 1_555
C18 C20 1_555 1_555
C19 H15 1_555 1_555
C20 C13 1_555 1_555
C21 C16 1_555 1_555
H16 C21 1_555 1_555
H17 C21 1_555 1_555
C22 C19 1_555 1_555
H18 C22 1_555 1_555
C23 N2 1_555 1_555
H19 C23 1_555 1_555
C24 C13 1_555 1_555
H20 C24 1_555 1_555
C25 C2 1_555 1_555
H21 C25 1_555 1_555
H22 C25 1_555 1_555
C26 N2 1_555 1_555
H23 C26 1_555 1_555
C27 O6 1_555 1_555
H24 C27 1_555 1_555
H25 C27 1_555 1_555
C28 C16 1_555 1_555
H26 C28 1_555 1_555
C29 O8 1_555 1_555
H27 C29 1_555 1_555
H28 C29 1_555 1_555
H29 C29 1_555 1_555
C30 C7 1_555 1_555
H30 O4 1_555 1_555
H31 O4 1_555 1_555
H32 O8 1_555 1_555
N1_2 Ni1 1_555 1_555
O2_2 Ni1 1_555 1_555
Ni1_2 N1 1_555 1_555
Ni1_3 O2 1_555 1_555
C2 C4 1_555 1_555
C3 C4 1_555 1_555
C6 N1 1_555 1_555
C9 C12 1_555 1_555
C10 C30 1_555 1_555
O5 C30 1_555 1_555
C14 C27 1_555 1_555
C15 C23 1_555 1_555
C17 C24 1_555 1_555
C19 C20 1_555 1_555
C21 C25 1_555 1_555
C26 C28 1_555 1_555

#END
