
#######################################################################
#
#                 Cambridge Crystallographic Data Centre
#                                CCDC 
#
#######################################################################
#
# If this CIF has been generated from an entry in the Cambridge 
# Structural Database, then it will include bibliographic, chemical, 
# crystal, experimental, refinement or atomic coordinate data resulting 
# from the CCDC's data processing and validation procedures.
#
#######################################################################

data_IQIJUO
_symmetry_cell_setting           triclinic
_symmetry_space_group_name_H-M   'P -1'
_symmetry_Int_Tables_number      2
_space_group_name_Hall           '-P 1'
loop_
_symmetry_equiv_pos_site_id
_symmetry_equiv_pos_as_xyz
1 x,y,z
2 -x,-y,-z
_cell_length_a                   10.1829(15)
_cell_length_b                   11.9666(18)
_cell_length_c                   12.957(2)
_cell_angle_alpha                86.208(2)
_cell_angle_beta                 71.776(2)
_cell_angle_gamma                64.945(2)
_cell_volume                     1354.52
loop_
_atom_site_label
_atom_site_type_symbol
_atom_site_fract_x
_atom_site_fract_y
_atom_site_fract_z
C1 C 0.5704(6) 1.2460(5) 0.4438(5)
H1 H 0.4723 1.3026 0.4822
C2 C 0.6406(7) 1.1416(6) 0.4928(5)
H2 H 0.5895 1.1312 0.5634
C3 C 0.7826(5) 1.0534(4) 0.4410(4)
C4 C 0.8489(6) 1.0769(4) 0.3384(4)
H3 H 0.9452 1.0198 0.2974
C5 C 0.7740(6) 1.1854(5) 0.2944(4)
H4 H 0.8245 1.1997 0.2251
C6 C 0.8589(5) 0.9400(4) 0.4946(4)
H5 H 0.8670 0.9651 0.5612
H6 H 0.9616 0.8924 0.4466
C7 C 0.7743(5) 0.8583(4) 0.5217(4)
H7 H 0.7672 0.8326 0.4550
H8 H 0.6712 0.9064 0.5689
C8 C 0.8500(5) 0.7436(4) 0.5773(4)
H9 H 0.7869 0.6985 0.5963
H10 H 0.8571 0.7687 0.6443
C9 C 1.0095(5) 0.6582(4) 0.5049(4)
C10 C 1.1347(5) 0.6281(4) 0.5381(4)
H11 H 1.1227 0.6580 0.6065
C11 C 1.2772(5) 0.5543(4) 0.4711(4)
H12 H 1.3599 0.5350 0.4962
C12 C 1.1808(5) 0.5370(4) 0.3399(4)
H13 H 1.1951 0.5051 0.2717
C13 C 1.0359(5) 0.6100(4) 0.4021(4)
H14 H 0.9546 0.6276 0.3758
C14 C 0.4216(5) 1.3066(4) 0.1172(3)
C15 C 0.3772(5) 1.2036(4) 0.1117(3)
C16 C 0.4198(5) 1.1023(4) 0.1730(4)
H15 H 0.4782 1.0979 0.2170
C17 C 0.3769(5) 1.0087(4) 0.1695(4)
H16 H 0.4071 0.9412 0.2106
C18 C 0.2889(5) 1.0143(4) 0.1052(4)
C19 C 0.2460(6) 1.1139(4) 0.0433(4)
H17 H 0.1880 1.1175 -0.0009
C20 C 0.2893(5) 1.2084(4) 0.0470(4)
H18 H 0.2591 1.2757 0.0058
C21 C 0.1946(5) 0.9030(4) 0.0244(4)
H19 H 0.2694 0.8928 -0.0466
H20 H 0.1018 0.9758 0.0267
C22 C 0.1619(5) 0.7900(4) 0.0439(4)
H21 H 0.1583 0.7599 -0.0224
H22 H 0.2411 0.7244 0.0672
C23 C -0.0471(5) 0.7450(4) 0.1520(3)
C24 C -0.1947(5) 0.7904(4) 0.2231(4)
H23 H -0.2430 0.8721 0.2521
C25 C -0.2704(5) 0.7166(4) 0.2513(4)
H24 H -0.3696 0.7486 0.2993
C26 C -0.2006(5) 0.5942(4) 0.2090(3)
C27 C -0.0530(5) 0.5497(4) 0.1376(4)
H25 H -0.0056 0.4684 0.1077
C28 C 0.0259(5) 0.6229(4) 0.1096(4)
H26 H 0.1261 0.5907 0.0632
C29 C -0.2882(5) 0.5172(4) 0.2332(3)
Co1 Co 0.52841(6) 1.42319(5) 0.25884(5)
N1 N 0.6355(4) 1.2694(3) 0.3451(3)
N2 N 1.3045(4) 0.5081(3) 0.3711(3)
O1 O 0.4923(4) 1.2989(3) 0.1845(3)
O2 O 0.3836(4) 1.3951(3) 0.0589(2)
O3 O 0.2512(4) 0.9165(3) 0.1070(3)
O4 O 0.0163(4) 0.8274(3) 0.1277(3)
O5 O -0.2440(4) 0.4209(3) 0.1729(2)
O6 O -0.4112(3) 0.5530(3) 0.3130(2)
O7 O 0.4482(4) 1.5541(3) 0.1441(3)
H27 H 0.496(5) 1.584(5) 0.095(3)
H28 H 0.427(6) 1.513(4) 0.109(4)
Co1_2 Co -0.47159(6) 0.42319(5) 0.25884(5)
Co1_3 Co 1.52841(6) 0.42319(5) 0.25884(5)
N2_2 N 0.3045(4) 1.5081(3) 0.3711(3)
O5_2 O 0.7560(4) 1.4209(3) 0.1729(2)
O6_2 O 0.5888(3) 1.5530(3) 0.3130(2)
O8 O 0.2731(13) 0.7955(7) 0.3132(7)
H29 H 0.219(15) 0.768(14) 0.297(12)
H30 H 0.357(9) 0.751(12) 0.270(10)
loop_
_geom_bond_atom_site_label_1
_geom_bond_atom_site_label_2
_geom_bond_site_symmetry_1
_geom_bond_site_symmetry_2
C1 H1 1_555 1_555
C2 C1 1_555 1_555
H2 C2 1_555 1_555
C3 C2 1_555 1_555
C4 C3 1_555 1_555
H3 C4 1_555 1_555
C5 C4 1_555 1_555
H4 C5 1_555 1_555
C6 C3 1_555 1_555
H5 C6 1_555 1_555
H6 C6 1_555 1_555
C7 C6 1_555 1_555
H7 C7 1_555 1_555
H8 C7 1_555 1_555
C8 C7 1_555 1_555
H9 C8 1_555 1_555
H10 C8 1_555 1_555
C9 C8 1_555 1_555
C10 C9 1_555 1_555
H11 C10 1_555 1_555
C11 C10 1_555 1_555
H12 C11 1_555 1_555
C12 H13 1_555 1_555
C13 C9 1_555 1_555
H14 C13 1_555 1_555
C14 C15 1_555 1_555
C15 C16 1_555 1_555
C16 H15 1_555 1_555
C17 C16 1_555 1_555
H16 C17 1_555 1_555
C18 C17 1_555 1_555
C19 C18 1_555 1_555
H17 C19 1_555 1_555
C20 C15 1_555 1_555
H18 C20 1_555 1_555
C21 H19 1_555 1_555
H20 C21 1_555 1_555
C22 C21 1_555 1_555
H21 C22 1_555 1_555
H22 C22 1_555 1_555
C23 C24 1_555 1_555
C24 H23 1_555 1_555
C25 C24 1_555 1_555
H24 C25 1_555 1_555
C26 C25 1_555 1_555
C27 C26 1_555 1_555
H25 C27 1_555 1_555
C28 C23 1_555 1_555
H26 C28 1_555 1_555
C29 C26 1_555 1_555
Co1 N1 1_555 1_555
N1 C1 1_555 1_555
N2 C11 1_555 1_555
O1 C14 1_555 1_555
O2 C14 1_555 1_555
O3 C18 1_555 1_555
O4 C22 1_555 1_555
O5 C29 1_555 1_555
O6 C29 1_555 1_555
O7 Co1 1_555 1_555
H27 O7 1_555 1_555
H28 O7 1_555 1_555
O8 H29 1_555 1_555
H30 O8 1_555 1_555
Co1_2 O5 1_555 1_555
Co1_3 N2 1_555 1_555
N2_2 Co1 1_555 1_555
O5_2 Co1 1_555 1_555
O6_2 Co1 1_555 1_555
C5 N1 1_555 1_555
C12 C13 1_555 1_555
C12 N2 1_555 1_555
C19 C20 1_555 1_555
C21 O3 1_555 1_555
C23 O4 1_555 1_555
C27 C28 1_555 1_555
Co1 O1 1_555 1_555
O6 Co1_2 1_555 1_555

#END
