
#######################################################################
#
#                 Cambridge Crystallographic Data Centre
#                                CCDC 
#
#######################################################################
#
# If this CIF has been generated from an entry in the Cambridge 
# Structural Database, then it will include bibliographic, chemical, 
# crystal, experimental, refinement or atomic coordinate data resulting 
# from the CCDC's data processing and validation procedures.
#
#######################################################################

data_IQIPEE
_symmetry_cell_setting           triclinic
_symmetry_space_group_name_H-M   'P -1'
_symmetry_Int_Tables_number      2
_space_group_name_Hall           '-P 1'
loop_
_symmetry_equiv_pos_site_id
_symmetry_equiv_pos_as_xyz
1 x,y,z
2 -x,-y,-z
_cell_length_a                   7.4257(15)
_cell_length_b                   11.127(2)
_cell_length_c                   12.328(3)
_cell_angle_alpha                113.27(3)
_cell_angle_beta                 95.01(3)
_cell_angle_gamma                90.86(3)
_cell_volume                     930.81
loop_
_atom_site_label
_atom_site_type_symbol
_atom_site_fract_x
_atom_site_fract_y
_atom_site_fract_z
C1 C -0.3339(13) -0.6096(8) -0.0910(8)
H1 H -0.3911 -0.6787 -0.1566
C2 C -0.1586(12) -0.5340(8) 0.0989(9)
H2 H -0.0999 -0.5493 0.1617
C3 C 0.6626(13) 0.4070(9) 0.4087(9)
H3 H 0.6183 0.3206 0.3679
C4 C 0.7068(14) 0.6182(9) 0.4171(10)
H4 H 0.6939 0.6776 0.3813
C5 C 0.7983(14) 0.6609(10) 0.5297(9)
H5 H 0.8411 0.7478 0.5694
C6 C 0.8246(15) 0.5743(11) 0.5813(10)
H6 H 0.8881 0.6009 0.6561
C7 C 0.7545(13) 0.4431(10) 0.5205(9)
C8 C 0.2567(13) 0.3864(8) -0.0089(8)
H7 H 0.2637 0.3018 -0.0119
C9 C -0.1622(13) -0.4036(8) 0.1022(9)
H8 H -0.1026 -0.3331 0.1655
C10 C 0.7809(18) 0.3477(14) 0.5784(12)
O1 O 0.0922(9) -0.1473(6) -0.2709(6)
O2 O 0.0767(8) 0.1075(5) -0.1427(6)
O3 O 0.4118(9) 0.0919(6) 0.2701(6)
O4 O 0.4403(8) 0.2353(5) 0.1401(5)
O5 O 0.8751(13) 0.3736(10) 0.6720(8)
O6 O 0.6886(14) 0.2348(8) 0.5199(7)
C11 C -0.2433(11) -0.7732(7) -0.0035(7)
C12 C -0.2426(11) -0.6355(7) 0.0022(8)
N1 N 0.6344(10) 0.4933(7) 0.3557(6)
N2 N 0.3399(11) 0.4862(7) 0.0870(7)
O9 O 0.3681(7) -0.0088(5) -0.0765(5)
O10 O 0.1356(7) 0.0603(5) 0.0772(5)
O11 O -0.1455(8) -0.7888(5) 0.0802(5)
O12 O -0.3414(7) -0.8599(5) -0.0864(5)
Cu1 Cu 0.48517(17) 0.45305(11) 0.20969(11)
Mo1 Mo 0.39693(9) 0.07500(7) 0.12614(7)
Mo2 Mo 0.10376(10) -0.03890(7) -0.12801(7)
C1A C 0.3339(13) 0.6096(8) 0.0910(8)
H1A H 0.3911 0.6787 0.1566
C2A C 0.1586(12) 0.5340(8) -0.0989(9)
H2A H 0.0999 0.5493 -0.1617
C3A C -0.6626(13) -0.4070(9) -0.4087(9)
H3A H -0.6183 -0.3206 -0.3679
C4A C -0.7068(14) -0.6182(9) -0.4171(10)
H4A H -0.6939 -0.6776 -0.3813
C5A C -0.7983(14) -0.6609(10) -0.5297(9)
H5A H -0.8411 -0.7478 -0.5694
C6A C -0.8246(15) -0.5743(11) -0.5813(10)
H6A H -0.8881 -0.6009 -0.6561
C7A C -0.7545(13) -0.4431(10) -0.5205(9)
C8A C -0.2567(13) -0.3864(8) 0.0089(8)
H7A H -0.2637 -0.3018 0.0119
C9A C 0.1622(13) 0.4036(8) -0.1022(9)
H8A H 0.1026 0.3331 -0.1655
C10A C -0.7809(18) -0.3477(14) -0.5784(12)
O1A O -0.0922(9) 0.1473(6) 0.2709(6)
O2A O -0.0767(8) -0.1075(5) 0.1427(6)
O3A O -0.4118(9) -0.0919(6) -0.2701(6)
O4A O -0.4403(8) -0.2353(5) -0.1401(5)
O5A O -0.8751(13) -0.3736(10) -0.6720(8)
O6A O -0.6886(14) -0.2348(8) -0.5199(7)
C11A C 0.2433(11) 0.7732(7) 0.0035(7)
C12A C 0.2426(11) 0.6355(7) -0.0022(8)
N1A N -0.6344(10) -0.4933(7) -0.3557(6)
N2A N -0.3399(11) -0.4862(7) -0.0870(7)
O9A O 0.6319(7) 0.0088(5) 0.0765(5)
O9A_2 O -0.3681(7) 0.0088(5) 0.0765(5)
O9_2 O -0.6319(7) -0.0088(5) -0.0765(5)
O10A O -0.1356(7) -0.0603(5) -0.0772(5)
O11A O 0.1455(8) -0.2112(5) -0.0802(5)
O11_2 O -0.1455(8) 0.2112(5) 0.0802(5)
O11A_2 O 0.1455(8) 0.7888(5) -0.0802(5)
O12_2 O -0.3414(7) 0.1401(5) -0.0864(5)
O12A O 0.3414(7) -0.1401(5) 0.0864(5)
O12A_2 O 0.3414(7) 0.8599(5) 0.0864(5)
Cu1A Cu -0.48517(17) -0.45305(11) -0.20969(11)
Mo1A Mo 0.60307(9) -0.07500(7) -0.12614(7)
Mo1A_2 Mo -0.39693(9) -0.07500(7) -0.12614(7)
Mo1A_3 Mo -0.39693(9) -1.07500(7) -0.12614(7)
Mo1_2 Mo -0.60307(9) 0.07500(7) 0.12614(7)
Mo1_3 Mo 0.39693(9) 1.07500(7) 0.12614(7)
Mo2A Mo -0.10376(10) -0.96110(7) 0.12801(7)
Mo2A_2 Mo -0.10376(10) 0.03890(7) 0.12801(7)
Mo2_2 Mo 0.10376(10) 0.96110(7) -0.12801(7)
O7 O 0.776(3) -0.9412(19) 0.6157(19)
O8 O 0.735(8) -0.1035(18) 0.358(2)
loop_
_geom_bond_atom_site_label_1
_geom_bond_atom_site_label_2
_geom_bond_site_symmetry_1
_geom_bond_site_symmetry_2
C1 H1 1_555 1_555
C2 H2 1_555 1_555
C3 H3 1_555 1_555
C4 H4 1_555 1_555
C5 C4 1_555 1_555
H5 C5 1_555 1_555
C6 C5 1_555 1_555
H6 C6 1_555 1_555
C7 C3 1_555 1_555
C8 H7 1_555 1_555
C9 C2 1_555 1_555
H8 C9 1_555 1_555
C10 C7 1_555 1_555
O1 Mo2 1_555 1_555
O2 Mo2 1_555 1_555
O3 Mo1 1_555 1_555
O4 Cu1 1_555 1_555
O5 C10 1_555 1_555
O6 C10 1_555 1_555
C11 C12 1_555 1_555
C12 C1 1_555 1_555
N1 C3 1_555 1_555
N2 C8 1_555 1_555
O9 Mo1 1_555 1_555
O10 Mo1 1_555 1_555
O11 C11 1_555 1_555
O12 C11 1_555 1_555
Cu1 N1 1_555 1_555
Mo1 O4 1_555 1_555
Mo2 O9 1_555 1_555
C1A N2 1_555 1_555
H1A C1A 1_555 1_555
C2A H2A 1_555 1_555
C3A H3A 1_555 1_555
C4A H4A 1_555 1_555
C5A C4A 1_555 1_555
H5A C5A 1_555 1_555
C6A C5A 1_555 1_555
H6A C6A 1_555 1_555
C7A C3A 1_555 1_555
C8A C9 1_555 1_555
H7A C8A 1_555 1_555
C9A C8 1_555 1_555
H8A C9A 1_555 1_555
C10A C7A 1_555 1_555
O1A Mo2A_2 1_555 1_555
O2A Mo2A_2 1_555 1_555
O3A Mo1A_2 1_555 1_555
O4A Cu1A 1_555 1_555
O5A C10A 1_555 1_555
O6A C10A 1_555 1_555
C11A C12A 1_555 1_555
C12A C1A 1_555 1_555
N1A C3A 1_555 1_555
N2A C1 1_555 1_555
O9A Mo1 1_555 1_555
O9A_2 Mo1A_2 1_555 1_555
O9_2 Mo1A_2 1_555 1_555
O10A Mo2 1_555 1_555
O11A Mo2 1_555 1_555
O11_2 Mo2A_2 1_555 1_555
O11A_2 C11A 1_555 1_555
O12_2 Mo1A_2 1_555 1_555
O12A Mo1 1_555 1_555
O12A_2 C11A 1_555 1_555
Cu1A N1A 1_555 1_555
Mo1A O9 1_555 1_555
Mo1A_2 O4A 1_555 1_555
Mo1A_3 O12 1_555 1_555
Mo1_2 O9A_2 1_555 1_555
Mo1_3 O12A_2 1_555 1_555
Mo2A O11 1_555 1_555
Mo2A_2 O10 1_555 1_555
Mo2_2 O11A_2 1_555 1_555
C2 C12 1_555 1_555
C4 N1 1_555 1_555
C6 C7 1_555 1_555
N2 Cu1 1_555 1_555
O10 Mo2 1_555 1_555
C2A C9A 1_555 1_555
C2A C12A 1_555 1_555
C4A N1A 1_555 1_555
C6A C7A 1_555 1_555
C8A N2A 1_555 1_555
N2A Cu1A 1_555 1_555
O9A Mo1A 1_555 1_555
O9A_2 Mo2A_2 1_555 1_555
O9_2 Mo1_2 1_555 1_555
O10A Mo1A_2 1_555 1_555
O10A Mo2A_2 1_555 1_555

#END
