
#######################################################################
#
#                 Cambridge Crystallographic Data Centre
#                                CCDC 
#
#######################################################################
#
# If this CIF has been generated from an entry in the Cambridge 
# Structural Database, then it will include bibliographic, chemical, 
# crystal, experimental, refinement or atomic coordinate data resulting 
# from the CCDC's data processing and validation procedures.
#
#######################################################################

data_IQIQEE
_symmetry_cell_setting           monoclinic
_symmetry_space_group_name_H-M   'P 21/c'
_symmetry_Int_Tables_number      14
_space_group_name_Hall           '-P 2ybc'
loop_
_symmetry_equiv_pos_site_id
_symmetry_equiv_pos_as_xyz
1 x,y,z
2 x,1/2-y,1/2+z
3 -x,-y,-z
4 -x,1/2+y,1/2-z
_cell_length_a                   9.5539(13)
_cell_length_b                   9.9408(13)
_cell_length_c                   9.3613(13)
_cell_angle_alpha                90.00
_cell_angle_beta                 110.873(2)
_cell_angle_gamma                90.00
_cell_volume                     830.727
loop_
_atom_site_label
_atom_site_type_symbol
_atom_site_fract_x
_atom_site_fract_y
_atom_site_fract_z
Cu1 Cu 0.00959(4) 0.15358(4) 0.09424(4)
Cl1 Cl -0.16683(9) 0.31355(9) 0.06150(10)
O1 O 0.1435(2) 0.0036(2) 0.0966(2)
O2 O -0.0475(2) 0.0553(2) 0.2518(2)
O3 O 0.0800(2) 0.2395(2) -0.0539(3)
N1 N 0.2870(3) 0.0380(3) 0.1216(3)
C1 C 0.3215(3) 0.1341(3) 0.0387(3)
C2 C 0.1990(3) 0.2137(3) -0.0801(3)
C3 C 0.4705(4) 0.1630(3) 0.0687(4)
H1 H 0.4964 0.2277 0.0108
C4 C 0.3930(4) -0.0302(3) 0.2334(4)
H2 H 0.3654 -0.0969 0.2879
C5 C 0.5815(4) 0.0968(4) 0.1837(4)
H3 H 0.6818 0.1177 0.2050
C6 C 0.5416(4) -0.0005(4) 0.2662(4)
H4 H 0.6151 -0.0461 0.3440
O4 O 0.2257(3) 0.2529(3) -0.1923(3)
O1B O -0.1435(2) -0.0036(2) -0.0966(2)
O4A O 0.2257(3) 0.2471(3) 0.3077(3)
Cu1B Cu -0.00959(4) -0.15358(4) -0.09424(4)
Cu1A Cu 0.00959(4) 0.34642(4) -0.40576(4)
loop_
_geom_bond_atom_site_label_1
_geom_bond_atom_site_label_2
_geom_bond_site_symmetry_1
_geom_bond_site_symmetry_2
Cu1 Cl1 1_555 1_555
O1 Cu1 1_555 1_555
O2 Cu1 1_555 1_555
O3 Cu1 1_555 1_555
N1 O1 1_555 1_555
C1 N1 1_555 1_555
C2 O3 1_555 1_555
C3 C1 1_555 1_555
H1 C3 1_555 1_555
C4 N1 1_555 1_555
H2 C4 1_555 1_555
C5 C3 1_555 1_555
H3 C5 1_555 1_555
C6 C4 1_555 1_555
H4 C6 1_555 1_555
O4 C2 1_555 1_555
O1B Cu1 1_555 1_555
O4A Cu1 1_555 1_555
Cu1B O1 1_555 1_555
Cu1A O4 1_555 1_555
C1 C2 1_555 1_555
C5 C6 1_555 1_555
O1B Cu1B 1_555 1_555

#END
