
#######################################################################
#
#                 Cambridge Crystallographic Data Centre
#                                CCDC 
#
#######################################################################
#
# If this CIF has been generated from an entry in the Cambridge 
# Structural Database, then it will include bibliographic, chemical, 
# crystal, experimental, refinement or atomic coordinate data resulting 
# from the CCDC's data processing and validation procedures.
#
#######################################################################

data_IQIRIJ
_symmetry_cell_setting           monoclinic
_symmetry_space_group_name_H-M   'P 21/n'
_symmetry_Int_Tables_number      14
_space_group_name_Hall           '-P 2yn'
loop_
_symmetry_equiv_pos_site_id
_symmetry_equiv_pos_as_xyz
1 x,y,z
2 1/2+x,1/2-y,1/2+z
3 -x,-y,-z
4 1/2-x,1/2+y,1/2-z
_cell_length_a                   11.584(6)
_cell_length_b                   10.203(5)
_cell_length_c                   15.935(8)
_cell_angle_alpha                90
_cell_angle_beta                 95.02(5)
_cell_angle_gamma                90
_cell_volume                     1876.16
loop_
_atom_site_label
_atom_site_type_symbol
_atom_site_fract_x
_atom_site_fract_y
_atom_site_fract_z
Rh1 Rh 0.50980(3) 0.61616(3) 0.48985(2)
O1 O 0.4362(3) 0.5910(2) 0.3705(2)
O2 O 0.4162(2) 0.3732(3) 0.3891(2)
O3 O 0.3489(2) 0.6365(3) 0.5300(2)
O4 O 0.3314(2) 0.4185(3) 0.5496(2)
N1 N 0.5264(3) 0.8327(3) 0.4625(2)
C1 C 0.4058(3) 0.4769(4) 0.3456(2)
C2 C 0.3536(3) 0.4638(3) 0.2569(3)
C3 C 0.3302(4) 0.5752(4) 0.2085(3)
C4 C 0.2840(4) 0.5629(5) 0.1251(3)
C5 C 0.2634(4) 0.4394(5) 0.0911(3)
C6 C 0.2845(4) 0.3295(4) 0.1391(3)
C7 C 0.3303(4) 0.3409(4) 0.2225(3)
C8 C 0.2936(4) 0.5353(4) 0.5508(2)
C9 C 0.1737(4) 0.5557(4) 0.5765(3)
C10 C 0.1303(5) 0.6821(5) 0.5804(4)
C11 C 0.0192(5) 0.7013(6) 0.6039(4)
C12 C -0.0474(4) 0.5976(6) 0.6245(3)
C13 C -0.0044(4) 0.4723(5) 0.6202(3)
C14 C 0.1064(4) 0.4520(5) 0.5960(3)
C15 C 0.5554(4) 0.8610(4) 0.3866(2)
C16 C 0.5605(4) 0.9897(4) 0.3548(2)
C17 C 0.5326(4) 1.0925(3) 0.4043(2)
C18 C 0.4984(4) 0.9336(3) 0.5138(3)
H1 H 0.3456 0.6596 0.2321
H2 H 0.2669 0.6388 0.0918
H3 H 0.2341 0.4309 0.0338
H4 H 0.2680 0.2454 0.1155
H5 H 0.3456 0.2645 0.2557
H6 H 0.1764 0.7550 0.5671
H7 H -0.0111 0.7877 0.6058
H8 H -0.1228 0.6119 0.6418
H9 H -0.0506 0.3997 0.6337
H10 H 0.1358 0.3654 0.5930
H11 H 0.5741 0.7906 0.3512
H12 H 0.5830 1.0048 0.2997
H13 H 0.5342 1.1869 0.3786
C18B C 0.5016(4) 1.0664(3) 0.4862(3)
N1B N 0.4736(3) 1.1673(3) 0.5375(2)
C15B C 0.4446(4) 1.1390(4) 0.6134(2)
C16B C 0.4395(4) 1.0103(4) 0.6452(2)
C17B C 0.4674(4) 0.9075(3) 0.5957(2)
H13B H 0.4658 0.8131 0.6214
H12B H 0.4170 0.9952 0.7003
H11B H 0.4259 1.2094 0.6488
O1B O 0.5638(3) 0.4090(2) 0.6295(2)
O2B O 0.5838(2) 0.6268(3) 0.6109(2)
C1B C 0.5942(3) 0.5231(4) 0.6544(2)
C2B C 0.6464(3) 0.5362(3) 0.7431(3)
C3B C 0.6698(4) 0.4248(4) 0.7915(3)
C4B C 0.7160(4) 0.4371(5) 0.8749(3)
C5B C 0.7366(4) 0.5606(5) 0.9089(3)
C6B C 0.7155(4) 0.6705(4) 0.8609(3)
C7B C 0.6697(4) 0.6591(4) 0.7775(3)
H1B H 0.6544 0.3404 0.7679
H2B H 0.7331 0.3612 0.9082
H3B H 0.7659 0.5691 0.9662
H4B H 0.7320 0.7546 0.8845
H5B H 0.6544 0.7355 0.7443
O3B O 0.6511(2) 0.3635(3) 0.4700(2)
O4B O 0.6686(2) 0.5815(3) 0.4504(2)
C8B C 0.7064(4) 0.4647(4) 0.4492(2)
C9B C 0.8263(4) 0.4443(4) 0.4235(3)
C10B C 0.8697(5) 0.3179(5) 0.4196(4)
C11B C 0.9808(5) 0.2987(6) 0.3961(4)
C12B C 1.0474(4) 0.4024(6) 0.3755(3)
C13B C 1.0044(4) 0.5277(5) 0.3798(3)
C14B C 0.8936(4) 0.5480(5) 0.4040(3)
H6B H 0.8236 0.2450 0.4329
H7B H 1.0111 0.2123 0.3942
H8B H 1.1228 0.3881 0.3582
H9B H 1.0506 0.6003 0.3663
H10B H 0.8642 0.6346 0.4070
Rh1B Rh 0.49020(3) 0.38384(3) 0.51015(2)
Rh1B_2 Rh 0.49020(3) 1.38384(3) 0.51015(2)
N1B_2 N 0.4736(3) 0.1673(3) 0.5375(2)
Cl1 Cl 0.6265(4) 0.4276(4) 0.0783(2)
Cl2 Cl 0.6637(4) 0.5678(5) 0.2309(3)
Cl3 Cl 0.6648(4) 0.3038(5) 0.2398(2)
C19 C 0.6176(10) 0.425(2) 0.1787(10)
H14 H 0.5364 0.4248 0.1835
loop_
_geom_bond_atom_site_label_1
_geom_bond_atom_site_label_2
_geom_bond_site_symmetry_1
_geom_bond_site_symmetry_2
Rh1 O1 1_555 1_555
Cl1 C19 1_555 1_555
Cl2 C19 1_555 1_555
Cl3 C19 1_555 1_555
O1 C1 1_555 1_555
O2 C1 1_555 1_555
O3 Rh1 1_555 1_555
O4 C8 1_555 1_555
N1 Rh1 1_555 1_555
C1 C2 1_555 1_555
C2 C3 1_555 1_555
C3 C4 1_555 1_555
C4 C5 1_555 1_555
C5 C6 1_555 1_555
C6 C7 1_555 1_555
C7 C2 1_555 1_555
C8 O3 1_555 1_555
C9 C8 1_555 1_555
C10 C9 1_555 1_555
C11 C10 1_555 1_555
C12 C11 1_555 1_555
C13 C12 1_555 1_555
C14 C9 1_555 1_555
C15 N1 1_555 1_555
C16 C15 1_555 1_555
C17 C16 1_555 1_555
C18 N1 1_555 1_555
C19 H14 1_555 1_555
H1 C3 1_555 1_555
H2 C4 1_555 1_555
H3 C5 1_555 1_555
H4 C6 1_555 1_555
H5 C7 1_555 1_555
H6 C10 1_555 1_555
H7 C11 1_555 1_555
H8 C12 1_555 1_555
H9 C13 1_555 1_555
H10 C14 1_555 1_555
H11 C15 1_555 1_555
H12 C16 1_555 1_555
H13 C17 1_555 1_555
C18B C17 1_555 1_555
N1B C18B 1_555 1_555
C15B N1B 1_555 1_555
C16B C15B 1_555 1_555
C17B C18 1_555 1_555
H13B C17B 1_555 1_555
H12B C16B 1_555 1_555
H11B C15B 1_555 1_555
O1B C1B 1_555 1_555
O2B Rh1 1_555 1_555
C1B O2B 1_555 1_555
C2B C1B 1_555 1_555
C3B C2B 1_555 1_555
C4B C3B 1_555 1_555
C5B C4B 1_555 1_555
C6B C5B 1_555 1_555
C7B C2B 1_555 1_555
H1B C3B 1_555 1_555
H2B C4B 1_555 1_555
H3B C5B 1_555 1_555
H4B C6B 1_555 1_555
H5B C7B 1_555 1_555
O3B C8B 1_555 1_555
O4B Rh1 1_555 1_555
C8B O4B 1_555 1_555
C9B C8B 1_555 1_555
C10B C9B 1_555 1_555
C11B C10B 1_555 1_555
C12B C11B 1_555 1_555
C13B C12B 1_555 1_555
C14B C9B 1_555 1_555
H6B C10B 1_555 1_555
H7B C11B 1_555 1_555
H8B C12B 1_555 1_555
H9B C13B 1_555 1_555
H10B C14B 1_555 1_555
Rh1B Rh1 1_555 1_555
Rh1B_2 N1B 1_555 1_555
N1B_2 Rh1B 1_555 1_555
O2 Rh1B 1_555 1_555
O4 Rh1B 1_555 1_555
C13 C14 1_555 1_555
C18 C18B 1_555 1_555
C16B C17B 1_555 1_555
O1B Rh1B 1_555 1_555
C6B C7B 1_555 1_555
O3B Rh1B 1_555 1_555
C13B C14B 1_555 1_555

#END
