
#######################################################################
#
#                 Cambridge Crystallographic Data Centre
#                                CCDC 
#
#######################################################################
#
# If this CIF has been generated from an entry in the Cambridge 
# Structural Database, then it will include bibliographic, chemical, 
# crystal, experimental, refinement or atomic coordinate data resulting 
# from the CCDC's data processing and validation procedures.
#
#######################################################################

data_IQISEH
_symmetry_cell_setting           monoclinic
_symmetry_space_group_name_H-M   'P 21/c'
_symmetry_Int_Tables_number      14
_space_group_name_Hall           '-P 2ybc'
loop_
_symmetry_equiv_pos_site_id
_symmetry_equiv_pos_as_xyz
1 x,y,z
2 -x,1/2+y,1/2-z
3 -x,-y,-z
4 x,1/2-y,1/2+z
_cell_length_a                   7.531(4)
_cell_length_b                   9.419(5)
_cell_length_c                   6.337(3)
_cell_angle_alpha                90
_cell_angle_beta                 94.375(8)
_cell_angle_gamma                90
_cell_volume                     448.202
loop_
_atom_site_label
_atom_site_type_symbol
_atom_site_fract_x
_atom_site_fract_y
_atom_site_fract_z
Mn1 Mn 0.37922(3) 0.65614(3) 0.45802(4)
O1 O 0.37374(17) 0.25826(14) 0.1059(2)
O2 O 0.44664(16) 0.45213(13) 0.2913(2)
O3 O 0.26088(17) 0.69149(13) 0.1497(2)
O4 O 0.17979(19) 0.50345(15) 0.5768(2)
C1 C 0.1667(2) 0.44738(18) 0.0828(3)
C2 C 0.1366(2) 0.59631(18) 0.0785(3)
C3 C 0.0303(2) 0.35645(17) 0.0042(3)
H1 H 0.0519 0.2592 0.0071
C4 C 0.3410(2) 0.38221(19) 0.1645(3)
H2 H 0.2251 0.4199 0.6028
H3 H 0.1307 0.5218 0.6924
Mn1B Mn -0.37922(3) 0.34386(3) -0.45802(4)
Mn1A Mn 0.62078(3) 0.15614(3) 0.04198(4)
Mn1B_2 Mn 0.62078(3) 0.34386(3) 0.54198(4)
Mn1C Mn 0.37922(3) 0.84386(3) -0.04198(4)
Mn1A_2 Mn -0.37922(3) 0.15614(3) 0.04198(4)
Mn1C_2 Mn -0.62078(3) 0.84386(3) -0.04198(4)
Mn1_2 Mn -0.62078(3) 0.65614(3) -0.54198(4)
O1B O -0.37374(17) 0.74174(14) -0.1059(2)
O1A O 0.62626(17) 0.75826(14) 0.3941(2)
O1C O -0.62626(17) 0.24174(14) -0.3941(2)
O2B O -0.44664(16) 0.54787(13) -0.2913(2)
O2B_2 O 0.55336(16) 0.54787(13) 0.7087(2)
O2_2 O -0.55336(16) 0.45213(13) -0.7087(2)
O3B O -0.26088(17) 0.30851(13) -0.1497(2)
O3C O 0.26088(17) 0.80851(13) 0.6497(2)
O3A O -0.26088(17) 0.19149(13) -0.6497(2)
O4B O -0.17979(19) 0.49655(15) -0.5768(2)
C1B C -0.1667(2) 0.55262(18) -0.0828(3)
C2B C -0.1366(2) 0.40369(18) -0.0785(3)
C3B C -0.0303(2) 0.64355(17) -0.0042(3)
H1B H -0.0519 0.7408 -0.0071
C4B C -0.3410(2) 0.61779(19) -0.1645(3)
H2B H -0.2251 0.5801 -0.6028
H3B H -0.1307 0.4782 -0.6924
loop_
_geom_bond_atom_site_label_1
_geom_bond_atom_site_label_2
_geom_bond_site_symmetry_1
_geom_bond_site_symmetry_2
Mn1 O2 1_555 1_555
O1 C4 1_555 1_555
O2 C4 1_555 1_555
O3 Mn1 1_555 1_555
O4 Mn1 1_555 1_555
C1 C2 1_555 1_555
C2 O3 1_555 1_555
C3 C1 1_555 1_555
H1 C3 1_555 1_555
C4 C1 1_555 1_555
H2 O4 1_555 1_555
H3 O4 1_555 1_555
Mn1B O1C 1_555 1_555
Mn1A O1 1_555 1_555
Mn1B_2 O2 1_555 1_555
Mn1C O3 1_555 1_555
Mn1A_2 O3B 1_555 1_555
Mn1C_2 O1B 1_555 1_555
Mn1_2 O2B 1_555 1_555
O1B C4B 1_555 1_555
O1A Mn1 1_555 1_555
O2B Mn1B 1_555 1_555
O2B_2 Mn1 1_555 1_555
O2_2 Mn1B 1_555 1_555
O3B Mn1B 1_555 1_555
O3C Mn1 1_555 1_555
O3A Mn1B 1_555 1_555
O4B Mn1B 1_555 1_555
C1B C2B 1_555 1_555
C2B C3 1_555 1_555
C3B C2 1_555 1_555
H1B C3B 1_555 1_555
C4B O2B 1_555 1_555
H2B O4B 1_555 1_555
H3B O4B 1_555 1_555
Mn1B_2 O2B_2 1_555 1_555
Mn1_2 O2_2 1_555 1_555
O3B C2B 1_555 1_555
C1B C3B 1_555 1_555
C1B C4B 1_555 1_555

#END
