
#######################################################################
#
#                 Cambridge Crystallographic Data Centre
#                                CCDC 
#
#######################################################################
#
# If this CIF has been generated from an entry in the Cambridge 
# Structural Database, then it will include bibliographic, chemical, 
# crystal, experimental, refinement or atomic coordinate data resulting 
# from the CCDC's data processing and validation procedures.
#
#######################################################################

data_IQIVEK
_symmetry_cell_setting           monoclinic
_symmetry_space_group_name_H-M   'P 21/n'
_symmetry_Int_Tables_number      14
_space_group_name_Hall           '-P 2yn'
loop_
_symmetry_equiv_pos_site_id
_symmetry_equiv_pos_as_xyz
1 x,y,z
2 1/2-x,1/2+y,1/2-z
3 -x,-y,-z
4 1/2+x,1/2-y,1/2+z
_cell_length_a                   11.2945(6)
_cell_length_b                   10.0757(6)
_cell_length_c                   14.8167(10)
_cell_angle_alpha                90
_cell_angle_beta                 103.926(4)
_cell_angle_gamma                90
_cell_volume                     1636.58
loop_
_atom_site_label
_atom_site_type_symbol
_atom_site_fract_x
_atom_site_fract_y
_atom_site_fract_z
C1 C 1.2589(2) -0.0989(3) 1.03712(18)
H1 H 1.2253 -0.1706 1.0618
C2 C 1.2377(2) 0.1026(3) 0.9668(2)
H2 H 1.1893 0.1747 0.9422
C3 C 1.3810(2) -0.1032(3) 1.03793(18)
H3 H 1.4278 -0.1760 1.0636
C4 C 1.3587(2) 0.1044(3) 0.9643(2)
H4 H 1.3894 0.1763 0.9379
C5 C 1.43464(19) 0.0008(2) 1.00058(15)
C6 C 0.9415(2) 0.1495(3) 0.81800(19)
C7 C 0.9334(2) 0.2805(3) 0.76644(19)
H5 H 0.8959 0.2667 0.7010
H6 H 0.8830 0.3421 0.7910
C8 C 1.0602(2) 0.3384(2) 0.77757(17)
C9 C 1.1130(2) 0.4177(2) 0.85290(18)
H7 H 1.0685 0.4385 0.8962
C10 C 1.1271(2) 0.3077(3) 0.71335(18)
H8 H 1.0926 0.2555 0.6620
C11 C 1.2452(2) 0.3546(3) 0.7252(2)
H9 H 1.2900 0.3326 0.6823
C12 C 1.2967(2) 0.4337(3) 0.8006(2)
H10 H 1.3759 0.4650 0.8079
C13 C 1.2308(2) 0.4668(2) 0.86538(18)
C14 C 1.2821(3) 0.5573(3) 0.9465(2)
H11 H 1.2170 0.6135 0.9570
H12 H 1.3429 0.6145 0.9303
C15 C 1.3391(3) 0.4858(3) 1.03518(19)
C16 C 0.9104(2) -0.2611(3) 0.8814(2)
H13 H 0.9464 -0.3265 0.9280
H14 H 0.8296 -0.2401 0.8891
C17 C 0.9002(3) -0.3181(3) 0.7866(2)
H15 H 0.8505 -0.3965 0.7792
H16 H 0.8636 -0.2539 0.7404
H17 H 0.9800 -0.3405 0.7793
N1 N 1.18615(16) 0.0032(2) 1.00265(13)
O1 O 0.97116(13) 0.15355(16) 0.90515(11)
O2 O 0.9221(2) 0.0431(2) 0.77175(13)
O3 O 1.4036(2) 0.3887(2) 1.04009(15)
O4 O 1.3150(2) 0.5428(2) 1.10794(15)
H18 H 1.3476 0.5010 1.1548
O5 O 0.98442(14) -0.14277(16) 0.89486(12)
Ni1 Ni 1.0000 0.0000 1.0000
C1B C 1.7411(2) 0.0989(3) 0.96288(18)
H1B H 1.7747 0.1706 0.9382
C2B C 1.7623(2) -0.1026(3) 1.0332(2)
H2B H 1.8107 -0.1747 1.0578
C3B C 1.6190(2) 0.1032(3) 0.96207(18)
H3B H 1.5722 0.1760 0.9364
C4B C 1.6413(2) -0.1044(3) 1.0357(2)
H4B H 1.6106 -0.1763 1.0621
C5B C 1.56536(19) -0.0008(2) 0.99942(15)
C6B C 1.0585(2) -0.1495(3) 1.18200(19)
C7B C 1.0666(2) -0.2805(3) 1.23356(19)
H5B H 1.1041 -0.2667 1.2990
H6B H 1.1170 -0.3421 1.2090
C8B C 0.9398(2) -0.3384(2) 1.22243(17)
C9B C 0.8870(2) -0.4177(2) 1.14710(18)
H7B H 0.9315 -0.4385 1.1038
C10B C 0.8729(2) -0.3077(3) 1.28665(18)
H8B H 0.9074 -0.2555 1.3380
C11B C 0.7548(2) -0.3546(3) 1.2748(2)
H9B H 0.7100 -0.3326 1.3177
C12B C 0.7033(2) -0.4337(3) 1.1994(2)
H10B H 0.6241 -0.4650 1.1921
C13B C 0.7692(2) -0.4668(2) 1.13462(18)
C14B C 0.7179(3) -0.5573(3) 1.0535(2)
H11B H 0.7830 -0.6135 1.0430
H12B H 0.6571 -0.6145 1.0697
C15B C 0.6609(3) -0.4858(3) 0.96482(19)
C16B C 1.0896(2) 0.2611(3) 1.1186(2)
H13B H 1.0536 0.3265 1.0720
H14B H 1.1704 0.2401 1.1109
C17B C 1.0998(3) 0.3181(3) 1.2134(2)
H15B H 1.1495 0.3965 1.2208
H16B H 1.1364 0.2539 1.2596
H17B H 1.0200 0.3405 1.2207
N1B N 1.81385(16) -0.0032(2) 0.99735(13)
N1B_2 N 0.81385(16) -0.0032(2) 0.99735(13)
O1B O 1.02884(13) -0.15355(16) 1.09485(11)
O2B O 1.0779(2) -0.0431(2) 1.22825(13)
O3B O 0.5964(2) -0.3887(2) 0.95991(15)
O4B O 0.6850(2) -0.5428(2) 0.89206(15)
H18B H 0.6524 -0.5010 0.8452
O5B O 1.01558(14) 0.14277(16) 1.10514(12)
Ni1_2 Ni 2.0000 0.0000 1.0000
loop_
_geom_bond_atom_site_label_1
_geom_bond_atom_site_label_2
_geom_bond_site_symmetry_1
_geom_bond_site_symmetry_2
C1 H1 1_555 1_555
C2 H2 1_555 1_555
C3 C1 1_555 1_555
H3 C3 1_555 1_555
C4 C2 1_555 1_555
H4 C4 1_555 1_555
C5 C3 1_555 1_555
C6 C7 1_555 1_555
C7 H5 1_555 1_555
H6 C7 1_555 1_555
C8 C7 1_555 1_555
C9 C8 1_555 1_555
H7 C9 1_555 1_555
C10 C8 1_555 1_555
H8 C10 1_555 1_555
C11 C10 1_555 1_555
H9 C11 1_555 1_555
C12 C11 1_555 1_555
H10 C12 1_555 1_555
C13 C9 1_555 1_555
C14 C13 1_555 1_555
H11 C14 1_555 1_555
H12 C14 1_555 1_555
C15 C14 1_555 1_555
C16 H13 1_555 1_555
H14 C16 1_555 1_555
C17 C16 1_555 1_555
H15 C17 1_555 1_555
H16 C17 1_555 1_555
H17 C17 1_555 1_555
N1 C1 1_555 1_555
O1 C6 1_555 1_555
O2 C6 1_555 1_555
O3 C15 1_555 1_555
O4 C15 1_555 1_555
H18 O4 1_555 1_555
O5 C16 1_555 1_555
Ni1 N1 1_555 1_555
C1B H1B 1_555 1_555
C2B H2B 1_555 1_555
C3B C1B 1_555 1_555
H3B C3B 1_555 1_555
C4B C2B 1_555 1_555
H4B C4B 1_555 1_555
C5B C5 1_555 1_555
C6B C7B 1_555 1_555
C7B H5B 1_555 1_555
H6B C7B 1_555 1_555
C8B C7B 1_555 1_555
C9B C8B 1_555 1_555
H7B C9B 1_555 1_555
C10B C8B 1_555 1_555
H8B C10B 1_555 1_555
C11B C10B 1_555 1_555
H9B C11B 1_555 1_555
C12B C11B 1_555 1_555
H10B C12B 1_555 1_555
C13B C9B 1_555 1_555
C14B C13B 1_555 1_555
H11B C14B 1_555 1_555
H12B C14B 1_555 1_555
C15B C14B 1_555 1_555
C16B H13B 1_555 1_555
H14B C16B 1_555 1_555
C17B C16B 1_555 1_555
H15B C17B 1_555 1_555
H16B C17B 1_555 1_555
H17B C17B 1_555 1_555
N1B C1B 1_555 1_555
N1B_2 Ni1 1_555 1_555
O1B Ni1 1_555 1_555
O2B C6B 1_555 1_555
O3B C15B 1_555 1_555
O4B C15B 1_555 1_555
H18B O4B 1_555 1_555
O5B Ni1 1_555 1_555
Ni1_2 N1B 1_555 1_555
C2 N1 1_555 1_555
C4 C5 1_555 1_555
C12 C13 1_555 1_555
O1 Ni1 1_555 1_555
O5 Ni1 1_555 1_555
C2B N1B 1_555 1_555
C3B C5B 1_555 1_555
C4B C5B 1_555 1_555
C6B O1B 1_555 1_555
C12B C13B 1_555 1_555
C16B O5B 1_555 1_555

#END
