
#######################################################################
#
#                 Cambridge Crystallographic Data Centre
#                                CCDC 
#
#######################################################################
#
# If this CIF has been generated from an entry in the Cambridge 
# Structural Database, then it will include bibliographic, chemical, 
# crystal, experimental, refinement or atomic coordinate data resulting 
# from the CCDC's data processing and validation procedures.
#
#######################################################################

data_IQIVIO
_symmetry_cell_setting           orthorhombic
_symmetry_space_group_name_H-M   'P b c n'
_symmetry_Int_Tables_number      60
_space_group_name_Hall           '-P 2n 2ab'
loop_
_symmetry_equiv_pos_site_id
_symmetry_equiv_pos_as_xyz
1 x,y,z
2 1/2-x,1/2-y,1/2+z
3 1/2+x,1/2-y,-z
4 -x,y,1/2-z
5 -x,-y,-z
6 1/2+x,1/2+y,1/2-z
7 1/2-x,1/2+y,z
8 x,-y,1/2+z
_cell_length_a                   21.8967(5)
_cell_length_b                   10.8448(3)
_cell_length_c                   16.9551(4)
_cell_angle_alpha                90
_cell_angle_beta                 90
_cell_angle_gamma                90
_cell_volume                     4026.25
loop_
_atom_site_label
_atom_site_type_symbol
_atom_site_fract_x
_atom_site_fract_y
_atom_site_fract_z
C1 C 0.84434(14) 0.2112(4) 0.0835(2)
C2 C 0.79725(13) 0.2455(3) 0.1455(2)
H1 H 0.7993 0.3337 0.1545
H2 H 0.8078 0.2048 0.1945
C3 C 0.73214(14) 0.2118(3) 0.12405(18)
C4 C 0.68400(14) 0.2869(3) 0.14604(17)
H3 H 0.6924 0.3627 0.1693
C5 C 0.71909(16) 0.1024(3) 0.0867(2)
H4 H 0.7508 0.0512 0.0707
C6 C 0.65961(17) 0.0678(3) 0.0727(2)
H5 H 0.6513 -0.0058 0.0466
C7 C 0.61252(15) 0.1425(3) 0.0974(2)
H6 H 0.5724 0.1176 0.0887
C8 C 0.62338(14) 0.2529(3) 0.13455(17)
C9 C 0.57216(13) 0.3359(3) 0.16333(19)
H7 H 0.5607 0.3114 0.2163
H8 H 0.5869 0.4202 0.1657
C10 C 0.51616(14) 0.3312(3) 0.1109(2)
C11 C 0.34698(16) 0.5758(3) 0.0388(2)
H9 H 0.3611 0.6259 -0.0018
C12 C 0.35816(16) 0.4070(3) 0.1164(2)
H10 H 0.3798 0.3368 0.1309
C13 C 0.29432(16) 0.6101(3) 0.0775(2)
H11 H 0.2734 0.6807 0.0621
C14 C 0.30663(17) 0.4366(4) 0.1575(2)
H12 H 0.2941 0.3862 0.1989
C15 C 0.27284(14) 0.5399(3) 0.1388(2)
C16 C 0.21375(15) 0.5654(3) 0.1813(2)
H13 H 0.2203 0.5604 0.2378
H14 H 0.1999 0.6481 0.1689
C17 C 0.16629(14) 0.4745(4) 0.1574(2)
H15 H 0.1838 0.3925 0.1615
H16 H 0.1566 0.4884 0.1023
C18 C 0.10629(14) 0.4765(3) 0.2047(2)
H17 H 0.1139 0.4536 0.2591
H18 H 0.0887 0.5586 0.2038
C19 C 0.06321(14) 0.3860(3) 0.1672(2)
C20 C 0.02481(16) 0.4229(3) 0.1079(2)
H19 H 0.0219 0.5061 0.0951
C21 C 0.06343(15) 0.2618(3) 0.1850(2)
H20 H 0.0875 0.2324 0.2261
C22 C -0.00945(15) 0.3375(3) 0.0674(2)
H21 H -0.0352 0.3651 0.0274
C23 C 0.02794(15) 0.1817(3) 0.1418(2)
H22 H 0.0289 0.0985 0.1549
N1 N 0.37881(11) 0.4745(3) 0.05642(16)
N2 N -0.00755(11) 0.2169(2) 0.08260(16)
O1 O 0.87739(10) 0.1167(2) 0.09794(13)
O2 O 0.84870(11) 0.2739(2) 0.02322(16)
O3 O 0.51029(9) 0.41803(18) 0.05940(13)
O4 O 0.47919(10) 0.2463(2) 0.11770(14)
Cu1 Cu 0.441110(16) 0.39875(3) -0.01672(2)
N2B N 0.49245(11) 0.2831(2) -0.08260(16)
O1B O 0.37739(10) 0.3833(2) -0.09794(13)
O2B O 0.34870(11) 0.2261(2) -0.02322(16)
O3D O 0.48971(9) 0.58197(18) -0.05940(13)
Cu1B Cu -0.058890(16) 0.10125(3) 0.01672(2)
Cu1D Cu 0.558890(16) 0.60125(3) 0.01672(2)
Cu1B_2 Cu 0.941110(16) 0.10125(3) 0.01672(2)
loop_
_geom_bond_atom_site_label_1
_geom_bond_atom_site_label_2
_geom_bond_site_symmetry_1
_geom_bond_site_symmetry_2
C1 C2 1_555 1_555
C2 H1 1_555 1_555
H2 C2 1_555 1_555
C3 C2 1_555 1_555
C4 C3 1_555 1_555
H3 C4 1_555 1_555
C5 C3 1_555 1_555
H4 C5 1_555 1_555
C6 C5 1_555 1_555
H5 C6 1_555 1_555
C7 C6 1_555 1_555
H6 C7 1_555 1_555
C8 C4 1_555 1_555
C9 C8 1_555 1_555
H7 C9 1_555 1_555
H8 C9 1_555 1_555
C10 C9 1_555 1_555
C11 H9 1_555 1_555
C12 H10 1_555 1_555
C13 C11 1_555 1_555
H11 C13 1_555 1_555
C14 C12 1_555 1_555
H12 C14 1_555 1_555
C15 C13 1_555 1_555
C16 C15 1_555 1_555
H13 C16 1_555 1_555
H14 C16 1_555 1_555
C17 C16 1_555 1_555
H15 C17 1_555 1_555
H16 C17 1_555 1_555
C18 C17 1_555 1_555
H17 C18 1_555 1_555
H18 C18 1_555 1_555
C19 C18 1_555 1_555
C20 C19 1_555 1_555
H19 C20 1_555 1_555
C21 C19 1_555 1_555
H20 C21 1_555 1_555
C22 C20 1_555 1_555
H21 C22 1_555 1_555
C23 C21 1_555 1_555
H22 C23 1_555 1_555
N1 C11 1_555 1_555
N2 C22 1_555 1_555
O1 C1 1_555 1_555
O2 C1 1_555 1_555
O3 C10 1_555 1_555
O4 C10 1_555 1_555
Cu1 N1 1_555 1_555
N2B Cu1 1_555 1_555
O1B Cu1 1_555 1_555
O2B Cu1 1_555 1_555
O3D Cu1 1_555 1_555
Cu1B N2 1_555 1_555
Cu1D O3 1_555 1_555
Cu1B_2 O1 1_555 1_555
C7 C8 1_555 1_555
C12 N1 1_555 1_555
C14 C15 1_555 1_555
C23 N2 1_555 1_555
O2 Cu1B_2 1_555 1_555
O3 Cu1 1_555 1_555
O3D Cu1D 1_555 1_555

#END
