
#######################################################################
#
#                 Cambridge Crystallographic Data Centre
#                                CCDC 
#
#######################################################################
#
# If this CIF has been generated from an entry in the Cambridge 
# Structural Database, then it will include bibliographic, chemical, 
# crystal, experimental, refinement or atomic coordinate data resulting 
# from the CCDC's data processing and validation procedures.
#
#######################################################################

data_IQIWOU
_symmetry_cell_setting           triclinic
_symmetry_space_group_name_H-M   'P -1'
_symmetry_Int_Tables_number      2
_space_group_name_Hall           '-P 1'
loop_
_symmetry_equiv_pos_site_id
_symmetry_equiv_pos_as_xyz
1 x,y,z
2 -x,-y,-z
_cell_length_a                   7.7975(4)
_cell_length_b                   9.0264(4)
_cell_length_c                   13.0844(2)
_cell_angle_alpha                74.765(2)
_cell_angle_beta                 87.993(3)
_cell_angle_gamma                74.033(3)
_cell_volume                     853.589
loop_
_atom_site_label
_atom_site_type_symbol
_atom_site_fract_x
_atom_site_fract_y
_atom_site_fract_z
Cd1 Cd -0.01325(11) 0.94071(9) 0.37111(6)
S1 S -0.7072(3) 1.1693(3) 0.77877(19)
C1 C -0.6475(14) 1.2429(11) 0.6467(7)
C2 C -0.7424(13) 1.3929(10) 0.5901(7)
H1 H -0.8322 1.4538 0.6227
C3 C -0.7068(13) 1.4554(10) 0.4850(7)
C4 C -0.5685(14) 1.3621(11) 0.4392(8)
H2 H -0.5431 1.4008 0.3688
C5 C -0.4688(13) 1.2129(11) 0.4969(8)
C6 C -0.5071(13) 1.1531(11) 0.6018(7)
H3 H -0.4392 1.0540 0.6414
C7 C -0.3143(13) 1.1189(11) 0.4495(8)
C8 C -0.8069(14) 1.6211(11) 0.4273(8)
C9 C 0.3159(14) 1.6774(12) -0.1121(8)
H4 H 0.3239 1.6921 -0.1850
C10 C 0.2616(14) 1.5509(12) -0.0516(8)
H5 H 0.2354 1.4783 -0.0833
C11 C 0.2456(13) 1.5306(11) 0.0576(7)
C12 C 0.2893(14) 1.6424(12) 0.1003(9)
H6 H 0.2802 1.6334 0.1727
C13 C 0.3451(15) 1.7646(12) 0.0370(9)
H7 H 0.3750 1.8381 0.0663
C14 C 0.1864(13) 1.3937(11) 0.1248(7)
C15 C 0.1868(15) 1.2615(12) 0.0916(8)
H8 H 0.2228 1.2565 0.0238
C16 C 0.1346(14) 1.1353(12) 0.1574(8)
H9 H 0.1343 1.0483 0.1321
C17 C 0.0843(15) 1.2658(13) 0.2887(8)
H10 H 0.0485 1.2688 0.3569
C18 C 0.1329(14) 1.3928(12) 0.2283(8)
H11 H 0.1308 1.4790 0.2551
N1 N 0.3570(12) 1.7792(10) -0.0664(7)
H12 H 0.3925 1.8572 -0.1052
N2 N 0.0840(11) 1.1347(9) 0.2572(6)
O1 O -0.1946(9) 1.0093(7) 0.5087(5)
O2 O -0.3007(10) 1.1561(8) 0.3498(5)
O3 O -0.7708(9) 1.6797(8) 0.3333(5)
O4 O -0.9237(9) 1.6991(7) 0.4775(5)
O5 O -0.7590(12) 1.3029(9) 0.8245(6)
O6 O -0.5494(9) 1.0468(8) 0.8333(5)
O7 O -0.8538(10) 1.1006(9) 0.7726(6)
O1A O 0.1946(9) 0.9907(7) 0.4913(5)
O3_2 O 0.2292(9) 0.6797(8) 0.3333(5)
O4_2 O 0.0763(9) 0.6991(7) 0.4775(5)
O7A O -0.1462(10) 0.8994(9) 0.2274(6)
Cd1A Cd 0.01325(11) 1.05929(9) 0.62889(6)
Cd1_2 Cd -1.01325(11) 1.94071(9) 0.37111(6)
Cd1A_2 Cd -0.98675(11) 1.05929(9) 0.62889(6)
loop_
_geom_bond_atom_site_label_1
_geom_bond_atom_site_label_2
_geom_bond_site_symmetry_1
_geom_bond_site_symmetry_2
Cd1 N2 1_555 1_555
S1 C1 1_555 1_555
C1 C2 1_555 1_555
C2 H1 1_555 1_555
C3 C2 1_555 1_555
C4 C3 1_555 1_555
H2 C4 1_555 1_555
C5 C4 1_555 1_555
C6 C1 1_555 1_555
H3 C6 1_555 1_555
C7 C5 1_555 1_555
C8 C3 1_555 1_555
C9 H4 1_555 1_555
C10 C9 1_555 1_555
H5 C10 1_555 1_555
C11 C10 1_555 1_555
C12 C11 1_555 1_555
H6 C12 1_555 1_555
C13 C12 1_555 1_555
H7 C13 1_555 1_555
C14 C11 1_555 1_555
C15 C14 1_555 1_555
H8 C15 1_555 1_555
C16 C15 1_555 1_555
H9 C16 1_555 1_555
C17 H10 1_555 1_555
C18 C14 1_555 1_555
H11 C18 1_555 1_555
N1 C9 1_555 1_555
H12 N1 1_555 1_555
N2 C16 1_555 1_555
O1 Cd1 1_555 1_555
O2 Cd1 1_555 1_555
O3 C8 1_555 1_555
O4 C8 1_555 1_555
O5 S1 1_555 1_555
O6 S1 1_555 1_555
O7 S1 1_555 1_555
O1A Cd1 1_555 1_555
O3_2 Cd1 1_555 1_555
O4_2 Cd1 1_555 1_555
O7A Cd1 1_555 1_555
Cd1A O1 1_555 1_555
Cd1_2 O3 1_555 1_555
Cd1A_2 O7 1_555 1_555
C5 C6 1_555 1_555
C7 O1 1_555 1_555
C7 O2 1_555 1_555
C13 N1 1_555 1_555
C17 N2 1_555 1_555
C17 C18 1_555 1_555
O4 Cd1_2 1_555 1_555
O1A Cd1A 1_555 1_555

#END
