
#######################################################################
#
#                 Cambridge Crystallographic Data Centre
#                                CCDC 
#
#######################################################################
#
# If this CIF has been generated from an entry in the Cambridge 
# Structural Database, then it will include bibliographic, chemical, 
# crystal, experimental, refinement or atomic coordinate data resulting 
# from the CCDC's data processing and validation procedures.
#
#######################################################################

data_IQIZUD01
_symmetry_cell_setting           monoclinic
_symmetry_space_group_name_H-M   'P 21/n'
_symmetry_Int_Tables_number      14
_space_group_name_Hall           '-P 2yn'
loop_
_symmetry_equiv_pos_site_id
_symmetry_equiv_pos_as_xyz
1 x,y,z
2 1/2+x,1/2-y,1/2+z
3 -x,-y,-z
4 1/2-x,1/2+y,1/2-z
_cell_length_a                   8.5819(17)
_cell_length_b                   11.478(2)
_cell_length_c                   15.558(3)
_cell_angle_alpha                90
_cell_angle_beta                 96.68(3)
_cell_angle_gamma                90
_cell_volume                     1522.11
loop_
_atom_site_label
_atom_site_type_symbol
_atom_site_fract_x
_atom_site_fract_y
_atom_site_fract_z
Zn1 Zn 0.10036(3) 0.83227(3) 0.335672(17)
Zn2 Zn -0.02553(3) 1.22684(3) 0.352070(17)
C1 C -0.1716(3) 0.6691(2) 0.30841(16)
H1 H -0.1014 0.6101 0.3355
H2 H -0.1591 0.6709 0.2473
C2 C 0.4450(3) 0.5988(2) 0.53630(15)
H3 H 0.4069 0.6655 0.5607
C3 C -0.2429(3) 0.8715(2) 0.31147(17)
H4 H -0.2336 0.8821 0.2504
H5 H -0.2181 0.9452 0.3403
C4 C 0.3583(3) 1.0286(2) 0.45058(13)
C5 C 0.4974(3) 1.0841(2) 0.43667(14)
H6 H 0.4955 1.1409 0.3939
C6 C 0.5758(3) 0.5423(2) 0.57918(14)
C7 C -0.3394(3) 0.6362(2) 0.31917(17)
H7 H -0.3506 0.6290 0.3803
H8 H -0.3639 0.5613 0.2920
C8 C -0.4113(3) 0.8387(3) 0.32213(17)
H9 H -0.4818 0.8987 0.2967
H10 H -0.4236 0.8333 0.3832
C9 C 0.3606(3) 0.9432(2) 0.51476(14)
C10 C 0.2133(3) 0.8824(2) 0.53503(14)
C11 C 0.3699(3) 0.5578(2) 0.45759(14)
C12 C 0.6531(3) 0.5906(2) 0.66399(14)
C13 C 0.2098(3) 1.0723(2) 0.39791(14)
C14 C 0.2320(3) 0.6288(2) 0.41834(14)
O1 O 0.1777(2) 1.17651(17) 0.41141(13)
O2 O 0.1017(2) 0.8677(2) 0.47845(12)
O3 O 0.2133(2) 0.84897(19) 0.61248(11)
O4 O 0.1031(2) 0.61377(19) 0.44563(11)
O5 O 0.1298(2) 1.00969(18) 0.34341(11)
O6 O 0.2589(2) 0.70712(18) 0.36347(11)
O7 O 0.5663(2) 0.65383(18) 0.70609(11)
O8 O -0.0484(2) 1.39082(17) 0.38985(12)
O9 O 0.7914(2) 0.5662(2) 0.68710(11)
N1 N -0.1278(2) 0.7833(2) 0.34692(12)
H11 H -0.1365 0.7775 0.4045
N2 N -0.4517(2) 0.7257(2) 0.27943(13)
H12 H -0.5475 0.7056 0.2945
C11B C 0.6301(3) 0.4422(2) 0.54241(14)
C2B C 0.5550(3) 0.4012(2) 0.46370(15)
H3B H 0.5931 0.3345 0.4393
C6B C 0.4242(3) 0.4577(2) 0.42082(14)
C12B C 0.3469(3) 0.4094(2) 0.33601(14)
O7B O 0.4337(2) 0.34617(18) 0.29391(11)
O9B O 0.2086(2) 0.4338(2) 0.31290(11)
C14B C 0.7680(3) 0.3712(2) 0.58166(14)
O4B O 0.8969(2) 0.38623(19) 0.55437(11)
O6B O 0.7411(2) 0.29288(18) 0.63653(11)
C9B C 0.6394(3) 1.0568(2) 0.48524(14)
C4B C 0.6417(3) 0.9714(2) 0.54942(13)
C5B C 0.5026(3) 0.9159(2) 0.56333(14)
H6B H 0.5045 0.8591 0.6061
C13B C 0.7902(3) 0.9277(2) 0.60209(14)
O1B O 0.8223(2) 0.82349(17) 0.58859(13)
O5B O 0.8702(2) 0.99031(18) 0.65659(11)
C10B C 0.7867(3) 1.1176(2) 0.46497(14)
O2B O 0.8983(2) 1.1323(2) 0.52155(12)
O3B O 0.7867(2) 1.15103(19) 0.38752(11)
Zn1B Zn 0.89964(3) 1.16773(3) 0.664328(17)
Zn2B Zn 1.02553(3) 0.77316(3) 0.647930(17)
C1C C -0.3284(3) 1.1691(2) 0.19159(16)
H1C H -0.3986 1.1101 0.1645
H2C H -0.3409 1.1709 0.2527
C3C C -0.2571(3) 1.3715(2) 0.18853(17)
H4C H -0.2664 1.3821 0.2496
H5C H -0.2819 1.4452 0.1597
C7C C -0.1606(3) 1.1362(2) 0.18083(17)
H7C H -0.1494 1.1290 0.1197
H8C H -0.1361 1.0613 0.2080
C8C C -0.0887(3) 1.3387(3) 0.17787(17)
H9C H -0.0182 1.3987 0.2033
H10C H -0.0764 1.3333 0.1168
N1C N -0.3722(2) 1.2833(2) 0.15308(12)
H11C H -0.3635 1.2775 0.0955
N2C N -0.0483(2) 1.2257(2) 0.22057(13)
H12C H 0.0475 1.2056 0.2055
O8B O 1.0484(2) 0.60918(17) 0.61015(12)
O7A O 0.0663(2) 0.84617(18) 0.20609(11)
O3B_2 O -0.2133(2) 1.15103(19) 0.38752(11)
Zn2B_2 Zn 0.02553(3) 0.77316(3) 0.647930(17)
Zn1A Zn 0.60036(3) 0.66773(3) 0.835672(17)
Zn2C Zn -0.47447(3) 0.72684(3) 0.147930(17)
Zn1C Zn 0.39964(3) 0.33227(3) 0.164328(17)
Zn1B_2 Zn 0.89964(3) 0.16773(3) 0.664328(17)
Zn2_2 Zn 0.97447(3) 1.22684(3) 0.352070(17)
O6B_2 O 0.7411(2) 1.29288(18) 0.63653(11)
O7C O 0.9337(2) 1.15383(18) 0.79391(11)
N1B N 1.1278(2) 1.2167(2) 0.65308(12)
O3_2 O 1.2133(2) 0.84897(19) 0.61248(11)
N2A N 1.0483(2) 0.7743(2) 0.77943(13)
Zn1C_2 Zn -0.60036(3) 1.33227(3) 0.164328(17)
H11B H 1.1365 1.2225 0.5955
H12A H 0.9525 0.7944 0.7945
loop_
_geom_bond_atom_site_label_1
_geom_bond_atom_site_label_2
_geom_bond_site_symmetry_1
_geom_bond_site_symmetry_2
Zn1 O2 1_555 1_555
Zn2 O1 1_555 1_555
C1 H1 1_555 1_555
H2 C1 1_555 1_555
C2 H3 1_555 1_555
C3 H4 1_555 1_555
H5 C3 1_555 1_555
C4 C5 1_555 1_555
C5 H6 1_555 1_555
C6 C2 1_555 1_555
C7 C1 1_555 1_555
H7 C7 1_555 1_555
H8 C7 1_555 1_555
C8 C3 1_555 1_555
H9 C8 1_555 1_555
H10 C8 1_555 1_555
C9 C4 1_555 1_555
C10 C9 1_555 1_555
C11 C2 1_555 1_555
C12 C6 1_555 1_555
C13 C4 1_555 1_555
C14 C11 1_555 1_555
O1 C13 1_555 1_555
O2 C10 1_555 1_555
O3 C10 1_555 1_555
O4 C14 1_555 1_555
O5 Zn1 1_555 1_555
O6 Zn1 1_555 1_555
O7 C12 1_555 1_555
O8 Zn2 1_555 1_555
O9 C12 1_555 1_555
N1 Zn1 1_555 1_555
H11 N1 1_555 1_555
N2 C7 1_555 1_555
H12 N2 1_555 1_555
C11B C6 1_555 1_555
C2B C11B 1_555 1_555
H3B C2B 1_555 1_555
C6B C11 1_555 1_555
C12B C6B 1_555 1_555
O7B C12B 1_555 1_555
O9B C12B 1_555 1_555
C14B C11B 1_555 1_555
O4B C14B 1_555 1_555
O6B C14B 1_555 1_555
C9B C5 1_555 1_555
C4B C9B 1_555 1_555
C5B C9 1_555 1_555
H6B C5B 1_555 1_555
C13B C4B 1_555 1_555
O1B C13B 1_555 1_555
O5B C13B 1_555 1_555
C10B C9B 1_555 1_555
O2B C10B 1_555 1_555
O3B C10B 1_555 1_555
Zn1B O5B 1_555 1_555
Zn2B O1B 1_555 1_555
C1C H1C 1_555 1_555
H2C C1C 1_555 1_555
C3C H4C 1_555 1_555
H5C C3C 1_555 1_555
C7C C1C 1_555 1_555
H7C C7C 1_555 1_555
H8C C7C 1_555 1_555
C8C C3C 1_555 1_555
H9C C8C 1_555 1_555
H10C C8C 1_555 1_555
N1C C1C 1_555 1_555
H11C N1C 1_555 1_555
N2C Zn2 1_555 1_555
H12C N2C 1_555 1_555
O8B Zn2B 1_555 1_555
O7A Zn1 1_555 1_555
O3B_2 Zn2 1_555 1_555
Zn2B_2 O3 1_555 1_555
Zn1A O7 1_555 1_555
Zn2C N2 1_555 1_555
Zn1C O7B 1_555 1_555
Zn1B_2 O6B 1_555 1_555
Zn2_2 O3B 1_555 1_555
O6B_2 Zn1B 1_555 1_555
O7C Zn1B 1_555 1_555
N1B Zn1B 1_555 1_555
O3_2 Zn2B 1_555 1_555
N2A Zn2B 1_555 1_555
Zn1C_2 N1C 1_555 1_555
H11B N1B 1_555 1_555
H12A N2A 1_555 1_555
C1 N1 1_555 1_555
C3 N1 1_555 1_555
C8 N2 1_555 1_555
C13 O5 1_555 1_555
C14 O6 1_555 1_555
C2B C6B 1_555 1_555
C4B C5B 1_555 1_555
O2B Zn1B 1_555 1_555
C3C N1C 1_555 1_555
C7C N2C 1_555 1_555
C8C N2C 1_555 1_555

#END
