
#######################################################################
#
#                 Cambridge Crystallographic Data Centre
#                                CCDC 
#
#######################################################################
#
# If this CIF has been generated from an entry in the Cambridge 
# Structural Database, then it will include bibliographic, chemical, 
# crystal, experimental, refinement or atomic coordinate data resulting 
# from the CCDC's data processing and validation procedures.
#
#######################################################################

data_IQIZUD
_symmetry_cell_setting           monoclinic
_symmetry_space_group_name_H-M   'P 21/n'
_symmetry_Int_Tables_number      14
_space_group_name_Hall           '-P 2yn'
loop_
_symmetry_equiv_pos_site_id
_symmetry_equiv_pos_as_xyz
1 x,y,z
2 1/2+x,1/2-y,1/2+z
3 -x,-y,-z
4 1/2-x,1/2+y,1/2-z
_cell_length_a                   8.60350(10)
_cell_length_b                   11.5305(3)
_cell_length_c                   15.5628(4)
_cell_angle_alpha                90.00
_cell_angle_beta                 96.757(2)
_cell_angle_gamma                90.00
_cell_volume                     1533.15
loop_
_atom_site_label
_atom_site_type_symbol
_atom_site_fract_x
_atom_site_fract_y
_atom_site_fract_z
Zn1 Zn 0.10029(7) 0.16822(6) 0.83544(4)
Zn2 Zn 0.02566(8) 0.22714(6) 1.14745(4)
O1 O 0.2589(4) 0.2936(3) 0.8623(3)
O2 O 0.4339(4) 0.6539(3) 0.7935(2)
O3 O 0.1287(5) -0.0092(3) 0.8439(3)
O4 O 0.1036(5) 0.1320(4) 0.9786(3)
N1 N -0.1282(5) 0.2164(4) 0.8481(3)
O5 O 0.2136(4) 0.1515(4) 1.1120(3)
O6 O 0.0486(5) 0.3900(4) 1.1096(3)
O7 O 0.1770(4) -0.1759(3) 0.9115(3)
N2 N -0.4529(5) 0.2741(4) 0.7796(3)
O8 O 0.1044(4) 0.3861(4) 0.9449(2)
O9 O 0.2088(5) 0.5669(4) 0.8129(2)
C1 C -0.1727(7) 0.3303(5) 0.8080(4)
H1 H -0.1607(7) 0.3273(5) 0.7468(4)
H2 H -0.1026(7) 0.3895(5) 0.8344(4)
C2 C -0.2422(6) 0.1292(5) 0.8118(4)
H3 H -0.2178(6) 0.0555(5) 0.8403(4)
H4 H -0.2322(6) 0.1193(5) 0.7508(4)
C3 C -0.4098(6) 0.1613(5) 0.8217(4)
H5 H -0.4794(6) 0.1013(5) 0.7960(4)
H6 H -0.4224(6) 0.1661(5) 0.8828(4)
C4 C -0.3403(7) 0.3631(5) 0.8187(4)
H7 H -0.3510(7) 0.3710(5) 0.8798(4)
H8 H -0.3648(7) 0.4375(5) 0.7912(4)
C5 C 0.2315(7) 0.3714(5) 0.9178(4)
C6 C 0.3704(6) 0.4419(5) 0.9578(3)
C7 C 0.4244(6) 0.5429(5) 0.9205(3)
C8 C 0.4447(6) 0.4024(5) 1.0362(3)
H9 H 0.4056(6) 0.3368(5) 1.0609(3)
C9 C 0.2140(6) 0.1176(5) 1.0352(4)
C10 C 0.3486(7) 0.5914(5) 0.8363(4)
C11 C 0.4963(6) -0.0836(5) 0.9373(3)
H10 H 0.4941(6) -0.1406(5) 0.8948(3)
C12 C 0.3621(6) 0.0572(5) 1.0149(3)
C13 C 0.2092(6) -0.0721(5) 0.8978(4)
C14 C 0.3584(6) -0.0287(5) 0.9501(3)
H11 H 0.0548(77) 0.4052(60) 1.0502(13)
H12 H -0.0405(69) 0.4294(78) 1.1254(60)
C8B C 0.5553(6) 0.5976(5) 0.9638(3)
C6B C 0.6296(6) 0.5581(5) 1.0422(3)
C5B C 0.7685(7) 0.6286(5) 1.0822(4)
O1B O 0.7411(4) 0.7064(3) 1.1377(3)
O8B O 0.8956(4) 0.6139(4) 1.0551(2)
C7B C 0.5756(6) 0.4571(5) 1.0795(3)
C10B C 0.6514(7) 0.4086(5) 1.1637(4)
O2B O 0.5661(4) 0.3461(3) 1.2065(2)
O9B O 0.7912(5) 0.4331(4) 1.1871(2)
H9B H 0.5944(6) 0.6632(5) 0.9391(3)
C12B C 0.6379(6) -0.0572(5) 0.9851(3)
C9B C 0.7860(6) -0.1176(5) 0.9648(4)
O4B O 0.8964(5) -0.1320(4) 1.0214(3)
O5B O 0.7864(4) -0.1515(4) 0.8880(3)
C14B C 0.6416(6) 0.0287(5) 1.0499(3)
C11B C 0.5037(6) 0.0836(5) 1.0627(3)
H10B H 0.5059(6) 0.1406(5) 1.1052(3)
C13B C 0.7908(6) 0.0721(5) 1.1022(4)
O3B O 0.8713(5) 0.0092(3) 1.1561(3)
O7B O 0.8230(4) 0.1759(3) 1.0885(3)
Zn1B Zn 0.89971(7) 0.83178(6) 1.16456(4)
Zn2B Zn 0.97434(8) -0.22714(6) 0.85255(4)
N1A N 0.3718(5) 0.2836(4) 1.3481(3)
N2A N 0.0471(5) 0.2259(4) 1.2796(3)
C1A C 0.3273(7) 0.1697(5) 1.3080(4)
H1A H 0.3393(7) 0.1727(5) 1.2468(4)
H2A H 0.3974(7) 0.1105(5) 1.3344(4)
C2A C 0.2578(6) 0.3708(5) 1.3118(4)
H3A H 0.2822(6) 0.4445(5) 1.3403(4)
H4A H 0.2678(6) 0.3807(5) 1.2508(4)
C3A C 0.0902(6) 0.3387(5) 1.3217(4)
H5A H 0.0206(6) 0.3987(5) 1.2960(4)
H6A H 0.0776(6) 0.3339(5) 1.3828(4)
C4A C 0.1597(7) 0.1369(5) 1.3187(4)
H7A H 0.1490(7) 0.1290(5) 1.3798(4)
H8A H 0.1352(7) 0.0625(5) 1.2912(4)
O6B O 0.9514(5) -0.3900(4) 0.8904(3)
H11B H 0.9452(77) -0.4052(60) 0.9498(13)
H12B H 1.0405(69) -0.4294(78) 0.8746(60)
O2C O 0.0661(4) 0.1539(3) 0.7065(2)
O7B_2 O -0.1770(4) 0.1759(3) 1.0885(3)
Zn1C Zn 0.39971(7) 0.66822(6) 0.66456(4)
Zn2B_2 Zn -0.02566(8) -0.22714(6) 0.85255(4)
Zn2A Zn -0.47434(8) 0.27286(6) 0.64745(4)
Zn1A Zn 0.60029(7) 0.33178(6) 1.33544(4)
Zn1B_2 Zn 0.89971(7) -0.16822(6) 1.16456(4)
Zn2_2 Zn 1.02566(8) 0.22714(6) 1.14745(4)
O2A O 0.9339(4) 0.8461(3) 1.2935(2)
O3B_2 O 0.8713(5) 1.0092(3) 1.1561(3)
O4B_2 O 0.8964(5) 0.8680(4) 1.0214(3)
N1B N 1.1282(5) 0.7836(4) 1.1519(3)
O7_2 O 1.1770(4) -0.1759(3) 0.9115(3)
N2C N 0.9529(5) -0.2259(4) 0.7204(3)
loop_
_geom_bond_atom_site_label_1
_geom_bond_atom_site_label_2
_geom_bond_site_symmetry_1
_geom_bond_site_symmetry_2
Zn1 O1 1_555 1_555
Zn2 O5 1_555 1_555
O1 C5 1_555 1_555
O2 C10 1_555 1_555
O3 Zn1 1_555 1_555
O4 Zn1 1_555 1_555
N1 Zn1 1_555 1_555
O5 C9 1_555 1_555
O6 Zn2 1_555 1_555
O7 C13 1_555 1_555
N2 C3 1_555 1_555
O8 C5 1_555 1_555
O9 C10 1_555 1_555
C1 N1 1_555 1_555
H1 C1 1_555 1_555
H2 C1 1_555 1_555
C2 N1 1_555 1_555
H3 C2 1_555 1_555
H4 C2 1_555 1_555
C3 C2 1_555 1_555
H5 C3 1_555 1_555
H6 C3 1_555 1_555
C4 N2 1_555 1_555
H7 C4 1_555 1_555
H8 C4 1_555 1_555
C5 C6 1_555 1_555
C6 C7 1_555 1_555
C7 C10 1_555 1_555
C8 C6 1_555 1_555
H9 C8 1_555 1_555
C9 O4 1_555 1_555
C11 H10 1_555 1_555
C12 C9 1_555 1_555
C13 O3 1_555 1_555
C14 C11 1_555 1_555
H11 O6 1_555 1_555
H12 O6 1_555 1_555
C8B C7 1_555 1_555
C6B C8B 1_555 1_555
C5B C6B 1_555 1_555
O1B C5B 1_555 1_555
O8B C5B 1_555 1_555
C7B C8 1_555 1_555
C10B C7B 1_555 1_555
O2B C10B 1_555 1_555
O9B C10B 1_555 1_555
H9B C8B 1_555 1_555
C12B C11 1_555 1_555
C9B C12B 1_555 1_555
O4B C9B 1_555 1_555
O5B C9B 1_555 1_555
C14B C12B 1_555 1_555
C11B C12 1_555 1_555
H10B C11B 1_555 1_555
C13B C14B 1_555 1_555
O3B C13B 1_555 1_555
O7B C13B 1_555 1_555
Zn1B O1B 1_555 1_555
Zn2B O5B 1_555 1_555
N1A C1A 1_555 1_555
N2A Zn2 1_555 1_555
C1A H1A 1_555 1_555
H2A C1A 1_555 1_555
C2A N1A 1_555 1_555
H3A C2A 1_555 1_555
H4A C2A 1_555 1_555
C3A N2A 1_555 1_555
H5A C3A 1_555 1_555
H6A C3A 1_555 1_555
C4A N2A 1_555 1_555
H7A C4A 1_555 1_555
H8A C4A 1_555 1_555
O6B Zn2B 1_555 1_555
H11B O6B 1_555 1_555
H12B O6B 1_555 1_555
O2C Zn1 1_555 1_555
O7B_2 Zn2 1_555 1_555
Zn1C O2 1_555 1_555
Zn2B_2 O7 1_555 1_555
Zn2A N2 1_555 1_555
Zn1A O2B 1_555 1_555
Zn1B_2 O4B 1_555 1_555
Zn2_2 O7B 1_555 1_555
O2A Zn1B 1_555 1_555
O3B_2 Zn1B 1_555 1_555
O4B_2 Zn1B 1_555 1_555
N1B Zn1B 1_555 1_555
O7_2 Zn2B 1_555 1_555
N2C Zn2B 1_555 1_555
C1 C4 1_555 1_555
C12 C14 1_555 1_555
C13 C14 1_555 1_555
C6B C7B 1_555 1_555
C14B C11B 1_555 1_555
O3B Zn1B_2 1_555 1_555
N1A Zn1A 1_555 1_555
C1A C4A 1_555 1_555
C2A C3A 1_555 1_555

#END
