
#######################################################################
#
#                 Cambridge Crystallographic Data Centre
#                                CCDC 
#
#######################################################################
#
# If this CIF has been generated from an entry in the Cambridge 
# Structural Database, then it will include bibliographic, chemical, 
# crystal, experimental, refinement or atomic coordinate data resulting 
# from the CCDC's data processing and validation procedures.
#
#######################################################################

data_IQOBAR
_symmetry_cell_setting           monoclinic
_symmetry_space_group_name_H-M   'P 21/n'
_symmetry_Int_Tables_number      14
_space_group_name_Hall           '-P 2yn'
loop_
_symmetry_equiv_pos_site_id
_symmetry_equiv_pos_as_xyz
1 x,y,z
2 1/2+x,1/2-y,1/2+z
3 -x,-y,-z
4 1/2-x,1/2+y,1/2-z
_cell_length_a                   6.3028(3)
_cell_length_b                   18.0250(8)
_cell_length_c                   16.0261(7)
_cell_angle_alpha                90
_cell_angle_beta                 93.9750(10)
_cell_angle_gamma                90
_cell_volume                     1816.31
loop_
_atom_site_label
_atom_site_type_symbol
_atom_site_fract_x
_atom_site_fract_y
_atom_site_fract_z
Cd1 Cd 0.19996(5) 0.390687(15) 0.339193(17)
Cd2 Cd 0.15640(5) -0.104690(15) 0.393180(18)
O1 O 0.1942(5) 0.28765(15) 0.26026(18)
O2 O -0.6081(4) 0.01098(15) 0.13571(17)
O3 O -0.4303(4) -0.04115(14) 0.24495(16)
O4 O 0.0608(4) -0.04806(14) 0.25410(17)
O5 O 0.1303(5) 0.29478(16) 0.12203(18)
O6 O -0.3611(4) 0.32435(14) 0.13900(16)
O7 O -0.0257(4) 0.00995(14) 0.36784(16)
O8 O -0.3656(4) 0.25664(14) 0.02185(16)
O9 O 0.1053(5) -0.13104(16) 0.53164(17)
C1 C -0.4589(6) 0.0109(2) 0.1931(2)
C2 C -0.3062(6) 0.0752(2) 0.1953(2)
C3 C -0.1044(6) 0.0729(2) 0.2388(2)
C4 C 0.0249(6) 0.1359(2) 0.2379(2)
H1 H 0.1562 0.1354 0.2682
C5 C -0.0371(6) 0.19944(19) 0.1929(2)
C6 C -0.2364(6) 0.2009(2) 0.1482(2)
C7 C -0.3662(6) 0.1388(2) 0.1506(2)
H2 H -0.4986 0.1398 0.1212
C8 C -0.0211(6) 0.0065(2) 0.2891(2)
N1 N -0.1117(5) 0.35340(18) 0.4111(2)
C9 C -0.2430(6) 0.4138(2) 0.4447(3)
H3 H -0.2996 0.4446 0.3988
H4 H -0.1533 0.4447 0.4820
C10 C -0.2537(7) 0.3036(2) 0.3584(3)
H5 H -0.1713 0.2621 0.3395
H6 H -0.3098 0.3306 0.3093
C11 C -0.3248(6) 0.2666(2) 0.0991(2)
C12 C 0.1076(6) 0.2662(2) 0.1916(3)
N2 N 0.4751(5) -0.04159(18) 0.4213(2)
C13 C 0.4638(7) 0.0406(2) 0.4238(2)
H7 H 0.3680 0.0580 0.3780
H8 H 0.6036 0.0611 0.4166
C14 C 0.6130(6) -0.0673(2) 0.4950(3)
H9 H 0.6171 -0.1211 0.4952
H10 H 0.7568 -0.0495 0.4899
N3 N -0.5668(5) 0.33637(18) 0.4370(2)
C15 C -0.4365(6) 0.2743(2) 0.4050(3)
H11 H -0.5262 0.2431 0.3679
H12 H -0.3812 0.2440 0.4516
C16 C -0.4256(7) 0.3839(2) 0.4917(3)
H13 H -0.3694 0.3554 0.5396
H14 H -0.5067 0.4250 0.5121
H15 H 0.063(8) -0.095(2) 0.570(2)
H16 H 0.022(8) -0.175(2) 0.526(4)
C14B C 0.3870(6) 0.0673(2) 0.5050(3)
N2B N 0.5249(5) 0.04159(18) 0.5787(2)
C13B C 0.5362(7) -0.0406(2) 0.5762(2)
H7B H 0.6320 -0.0580 0.6220
H8B H 0.3964 -0.0611 0.5834
H9B H 0.3829 0.1211 0.5048
H10B H 0.2432 0.0495 0.5101
O1C O -0.6942(5) 0.78765(15) 0.23974(18)
O2C O 0.1081(4) 0.51098(15) 0.36429(17)
O3C O -0.0697(4) 0.45885(14) 0.25505(16)
O4C O -0.5608(4) 0.45194(14) 0.24590(17)
O5C O -0.6303(5) 0.79478(16) 0.37797(18)
O6C O -0.1389(4) 0.82435(14) 0.36100(16)
O7C O -0.4743(4) 0.50995(14) 0.13216(16)
O8C O -0.1344(4) 0.75664(14) 0.47815(16)
C1C C -0.0411(6) 0.5109(2) 0.3069(2)
C2C C -0.1938(6) 0.5752(2) 0.3047(2)
C3C C -0.3956(6) 0.5729(2) 0.2612(2)
C4C C -0.5249(6) 0.6359(2) 0.2621(2)
H1C H -0.6562 0.6354 0.2318
C5C C -0.4629(6) 0.69944(19) 0.3071(2)
C6C C -0.2636(6) 0.7009(2) 0.3518(2)
C7C C -0.1338(6) 0.6388(2) 0.3494(2)
H2C H -0.0014 0.6398 0.3788
C8C C -0.4789(6) 0.5065(2) 0.2109(2)
C11C C -0.1752(6) 0.7666(2) 0.4009(2)
C12C C -0.6076(6) 0.7662(2) 0.3084(3)
N1_2 N 0.8883(5) 0.35340(18) 0.4111(2)
C9_2 C 0.7570(6) 0.4138(2) 0.4447(3)
H3_2 H 0.7004 0.4446 0.3988
H4_2 H 0.8467 0.4447 0.4820
C10_2 C 0.7463(7) 0.3036(2) 0.3584(3)
H5_2 H 0.8287 0.2621 0.3395
H6_2 H 0.6902 0.3306 0.3093
N3_2 N 0.4332(5) 0.33637(18) 0.4370(2)
C15_2 C 0.5635(6) 0.2743(2) 0.4050(3)
H11_2 H 0.4738 0.2431 0.3679
H12_2 H 0.6188 0.2440 0.4516
C16_2 C 0.5744(7) 0.3839(2) 0.4917(3)
H13_2 H 0.6306 0.3554 0.5396
H14_2 H 0.4933 0.4250 0.5121
Cd1C Cd -0.69996(5) 0.890687(15) 0.160807(17)
Cd2C Cd -0.65640(5) 0.395310(15) 0.106820(18)
O9C O -0.6053(5) 0.36896(16) -0.03164(17)
H15C H -0.563(8) 0.405(2) -0.070(2)
H16C H -0.522(8) 0.325(2) -0.026(4)
O4C_2 O 0.4392(4) 0.45194(14) 0.24590(17)
O5C_2 O 0.3697(5) -0.20522(16) 0.37797(18)
O6C_2 O -0.1389(4) -0.17565(14) 0.36100(16)
Cd1C_2 Cd -0.69996(5) -0.109313(15) 0.160807(17)
Cd1C_3 Cd 0.30004(5) -0.109313(15) 0.160807(17)
Cd2C_2 Cd 0.34360(5) 0.395310(15) 0.106820(18)
Cd1_2 Cd -0.80004(5) 0.390687(15) 0.339193(17)
Cd2B Cd 0.84360(5) 0.104690(15) 0.606820(18)
Cd2_2 Cd -0.84360(5) 0.895310(15) 0.393180(18)
Cd2_3 Cd 0.15640(5) 0.895310(15) 0.393180(18)
Cd1_3 Cd 1.19996(5) 0.390687(15) 0.339193(17)
O2_2 O -0.6081(4) 1.01098(15) 0.13571(17)
O3_2 O -0.4303(4) 0.95885(14) 0.24495(16)
O4_2 O -0.9392(4) 0.95194(14) 0.25410(17)
N1C N -0.3883(5) 0.85340(18) 0.0889(2)
N3C N -0.9332(5) 0.83637(18) 0.0630(2)
O5_2 O -0.8697(5) 0.29478(16) 0.12203(18)
N2C N -0.9751(5) 0.45841(18) 0.0787(2)
loop_
_geom_bond_atom_site_label_1
_geom_bond_atom_site_label_2
_geom_bond_site_symmetry_1
_geom_bond_site_symmetry_2
Cd1 O1 1_555 1_555
Cd2 O4 1_555 1_555
O1 C12 1_555 1_555
O2 C1 1_555 1_555
O3 C1 1_555 1_555
O4 C8 1_555 1_555
O5 C12 1_555 1_555
O6 C11 1_555 1_555
O7 Cd2 1_555 1_555
O8 C11 1_555 1_555
O9 Cd2 1_555 1_555
C1 C2 1_555 1_555
C2 C3 1_555 1_555
C3 C4 1_555 1_555
C4 H1 1_555 1_555
C5 C4 1_555 1_555
C6 C5 1_555 1_555
C7 C2 1_555 1_555
H2 C7 1_555 1_555
C8 O7 1_555 1_555
N1 Cd1 1_555 1_555
C9 N1 1_555 1_555
H3 C9 1_555 1_555
H4 C9 1_555 1_555
C10 N1 1_555 1_555
H5 C10 1_555 1_555
H6 C10 1_555 1_555
C11 C6 1_555 1_555
C12 C5 1_555 1_555
N2 Cd2 1_555 1_555
C13 N2 1_555 1_555
H7 C13 1_555 1_555
H8 C13 1_555 1_555
C14 N2 1_555 1_555
H9 C14 1_555 1_555
H10 C14 1_555 1_555
N3 C15 1_555 1_555
C15 C10 1_555 1_555
H11 C15 1_555 1_555
H12 C15 1_555 1_555
C16 C9 1_555 1_555
H13 C16 1_555 1_555
H14 C16 1_555 1_555
H15 O9 1_555 1_555
H16 O9 1_555 1_555
C14B C13 1_555 1_555
N2B C14B 1_555 1_555
C13B C14 1_555 1_555
H7B C13B 1_555 1_555
H8B C13B 1_555 1_555
H9B C14B 1_555 1_555
H10B C14B 1_555 1_555
O1C C12C 1_555 1_555
O2C Cd1 1_555 1_555
O3C Cd1 1_555 1_555
O4C C8C 1_555 1_555
O5C C12C 1_555 1_555
O6C C11C 1_555 1_555
O7C C8C 1_555 1_555
O8C C11C 1_555 1_555
C1C O2C 1_555 1_555
C2C C1C 1_555 1_555
C3C C2C 1_555 1_555
C4C C3C 1_555 1_555
H1C C4C 1_555 1_555
C5C C4C 1_555 1_555
C6C C5C 1_555 1_555
C7C C2C 1_555 1_555
H2C C7C 1_555 1_555
C8C C3C 1_555 1_555
C11C C6C 1_555 1_555
C12C C5C 1_555 1_555
N1_2 C9_2 1_555 1_555
C9_2 H3_2 1_555 1_555
H4_2 C9_2 1_555 1_555
C10_2 N1_2 1_555 1_555
H5_2 C10_2 1_555 1_555
H6_2 C10_2 1_555 1_555
N3_2 Cd1 1_555 1_555
C15_2 C10_2 1_555 1_555
H11_2 C15_2 1_555 1_555
H12_2 C15_2 1_555 1_555
C16_2 C9_2 1_555 1_555
H13_2 C16_2 1_555 1_555
H14_2 C16_2 1_555 1_555
Cd1C O1C 1_555 1_555
Cd2C O6 1_555 1_555
O9C Cd2C 1_555 1_555
H15C O9C 1_555 1_555
H16C O9C 1_555 1_555
O4C_2 Cd1 1_555 1_555
O5C_2 Cd2 1_555 1_555
O6C_2 Cd2 1_555 1_555
Cd1C_2 O2 1_555 1_555
Cd1C_3 O4 1_555 1_555
Cd2C_2 O5 1_555 1_555
Cd1_2 N3 1_555 1_555
Cd2B N2B 1_555 1_555
Cd2_2 O5C 1_555 1_555
Cd2_3 O6C 1_555 1_555
Cd1_3 N1_2 1_555 1_555
O2_2 Cd1C 1_555 1_555
O3_2 Cd1C 1_555 1_555
O4_2 Cd1C 1_555 1_555
N1C Cd1C 1_555 1_555
N3C Cd1C 1_555 1_555
O5_2 Cd2C 1_555 1_555
N2C Cd2C 1_555 1_555
O3 Cd1C_2 1_555 1_555
C3 C8 1_555 1_555
C6 C7 1_555 1_555
N3 C16 1_555 1_555
N2B C13B 1_555 1_555
O3C C1C 1_555 1_555
O4C Cd2C 1_555 1_555
O4C Cd1_2 1_555 1_555
O7C Cd2C 1_555 1_555
C6C C7C 1_555 1_555
N3_2 C15_2 1_555 1_555
N3_2 C16_2 1_555 1_555
O4C_2 Cd2C_2 1_555 1_555
Cd2_2 O4_2 1_555 1_555

#END
