
#######################################################################
#
#                 Cambridge Crystallographic Data Centre
#                                CCDC 
#
#######################################################################
#
# If this CIF has been generated from an entry in the Cambridge 
# Structural Database, then it will include bibliographic, chemical, 
# crystal, experimental, refinement or atomic coordinate data resulting 
# from the CCDC's data processing and validation procedures.
#
#######################################################################

data_IQOBOF
_symmetry_cell_setting           triclinic
_symmetry_space_group_name_H-M   'P -1'
_symmetry_Int_Tables_number      2
_space_group_name_Hall           '-P 1'
loop_
_symmetry_equiv_pos_site_id
_symmetry_equiv_pos_as_xyz
1 x,y,z
2 -x,-y,-z
_cell_length_a                   8.6848(10)
_cell_length_b                   8.7774(10)
_cell_length_c                   14.1567(16)
_cell_angle_alpha                80.382(2)
_cell_angle_beta                 81.598(2)
_cell_angle_gamma                78.860(2)
_cell_volume                     1036.69
loop_
_atom_site_label
_atom_site_type_symbol
_atom_site_fract_x
_atom_site_fract_y
_atom_site_fract_z
B1 B 1.1507(5) 0.2861(5) 0.6333(3)
C1 C 0.8694(4) 0.4518(4) 0.6662(3)
C2 C 0.8745(5) 0.2046(5) 0.6642(3)
C3 C 0.7237(5) 0.2769(5) 0.6855(3)
C4 C 1.3062(4) 0.4477(5) 0.7091(3)
C5 C 1.1993(4) 0.5751(4) 0.5825(3)
C6 C 1.2791(5) 0.6688(4) 0.6159(3)
C7 C 1.3518(4) 0.2694(4) 0.4809(3)
C8 C 1.1552(5) 0.1497(5) 0.4817(3)
C9 C 1.2620(5) 0.1258(5) 0.4030(3)
C10 C 1.3251(5) 0.0252(4) 0.6930(3)
C11 C 1.1527(5) 0.1227(5) 0.8060(3)
C12 C 1.2364(5) -0.0149(5) 0.8440(3)
C13 C 0.3726(5) 0.4598(6) 0.9320(3)
C14 C 0.3034(7) 0.3345(7) 1.0089(4)
C15 C 0.3770(7) 0.1791(7) 1.0275(5)
H1 H 0.4749 0.1453 0.9942
C16 C 0.3044(8) 0.0741(6) 1.0960(5)
H2 H 0.3537 -0.0299 1.1084
C17 C 0.1581(8) 0.1247(9) 1.1458(5)
H3 H 0.1095 0.0545 1.1915
C18 C 0.0845(7) 0.2801(9) 1.1271(5)
H4 H -0.0134 0.3139 1.1604
C19 C 0.1571(7) 0.3850(7) 1.0587(5)
H5 H 0.1078 0.4890 1.0462
H11 H 0.901(5) 0.539(5) 0.663(3)
H12 H 0.913(5) 0.099(5) 0.656(3)
H13 H 0.633(7) 0.238(6) 0.692(4)
H14 H 1.331(6) 0.374(6) 0.754(4)
H15 H 1.146(5) 0.590(5) 0.534(3)
H16 H 1.291(4) 0.772(5) 0.591(3)
H17 H 1.414(6) 0.333(6) 0.503(4)
H18 H 1.058(6) 0.121(6) 0.502(4)
H19 H 1.246(5) 0.076(5) 0.355(3)
H20 H 1.401(5) -0.004(5) 0.631(3)
H21 H 1.069(6) 0.181(6) 0.832(4)
H22 H 1.224(6) -0.067(6) 0.903(4)
N1 N 0.9696(4) 0.3172(4) 0.6507(2)
N2 N 0.7206(4) 0.4335(4) 0.6868(2)
N3 N 1.2157(4) 0.4336(4) 0.6429(2)
N4 N 1.3462(4) 0.5877(4) 0.6960(2)
N5 N 1.2126(4) 0.2432(3) 0.5323(2)
N6 N 1.3873(4) 0.2010(4) 0.4026(2)
N7 N 1.2094(4) 0.1488(4) 0.7093(2)
N8 N 1.3442(4) -0.0777(4) 0.7726(2)
O1 O 0.4842(4) 0.3938(3) 0.8785(2)
O2 O 0.3265(4) 0.6057(4) 0.9202(2)
Pb1 Pb 0.532656(14) 0.656301(14) 0.783771(9)
Pb1_2 Pb 1.532656(14) 0.656301(14) 0.783771(9)
Pb1A Pb 1.467344(14) 0.343699(14) 0.216229(9)
Pb1_3 Pb 1.532656(14) -0.343699(14) 0.783771(9)
N4_2 N 0.3462(4) 0.5877(4) 0.6960(2)
N6A N 0.6127(4) 0.7990(4) 0.5974(2)
N8_2 N 0.3442(4) 0.9223(4) 0.7726(2)
O3 O 0.2015(7) 0.7597(7) 0.0772(4)
C20? C 0.2710(7) 0.3900(8) 1.0144(4)
C21? C 0.2965(8) 0.2269(8) 1.0292(5)
H6? H 0.3774 0.1709 0.9915
C22? C 0.2010(11) 0.1475(7) 1.1003(5)
H7? H 0.2181 0.0384 1.1102
C23? C 0.0800(10) 0.2311(10) 1.1567(5)
H8? H 0.0162 0.1780 1.2043
C24? C 0.0545(7) 0.3942(10) 1.1419(4)
H9? H -0.0264 0.4502 1.1796
C25? C 0.1500(7) 0.4736(7) 1.0708(5)
H10? H 0.1329 0.5827 1.0609
loop_
_geom_bond_atom_site_label_1
_geom_bond_atom_site_label_2
_geom_bond_site_symmetry_1
_geom_bond_site_symmetry_2
B1 N1 1_555 1_555
C1 H11 1_555 1_555
C2 C3 1_555 1_555
C3 H13 1_555 1_555
C4 H14 1_555 1_555
C5 C6 1_555 1_555
C6 H16 1_555 1_555
C7 H17 1_555 1_555
C8 C9 1_555 1_555
C9 H19 1_555 1_555
C10 H20 1_555 1_555
C11 C12 1_555 1_555
C12 H22 1_555 1_555
C13 C14 1_555 1_555
C14 C15 1_555 1_555
C15 H1 1_555 1_555
C16 C15 1_555 1_555
H2 C16 1_555 1_555
C17 C16 1_555 1_555
H3 C17 1_555 1_555
C18 C17 1_555 1_555
H4 C18 1_555 1_555
C19 C14 1_555 1_555
H5 C19 1_555 1_555
H12 C2 1_555 1_555
H15 C5 1_555 1_555
H18 C8 1_555 1_555
H21 C11 1_555 1_555
N1 C1 1_555 1_555
N2 C1 1_555 1_555
N3 B1 1_555 1_555
N4 C4 1_555 1_555
N5 B1 1_555 1_555
N6 C7 1_555 1_555
N7 B1 1_555 1_555
N8 C10 1_555 1_555
O1 C13 1_555 1_555
O2 C13 1_555 1_555
Pb1 N2 1_555 1_555
Pb1_2 N4 1_555 1_555
Pb1A N6 1_555 1_555
Pb1_3 N8 1_555 1_555
N4_2 Pb1 1_555 1_555
N6A Pb1 1_555 1_555
N8_2 Pb1 1_555 1_555
C2 N1 1_555 1_555
C3 N2 1_555 1_555
C4 N3 1_555 1_555
C5 N3 1_555 1_555
C6 N4 1_555 1_555
C7 N5 1_555 1_555
C8 N5 1_555 1_555
C9 N6 1_555 1_555
C10 N7 1_555 1_555
C11 N7 1_555 1_555
C12 N8 1_555 1_555
C18 C19 1_555 1_555
O1 Pb1 1_555 1_555
O2 Pb1 1_555 1_555

#END
