
#######################################################################
#
#                 Cambridge Crystallographic Data Centre
#                                CCDC 
#
#######################################################################
#
# If this CIF has been generated from an entry in the Cambridge 
# Structural Database, then it will include bibliographic, chemical, 
# crystal, experimental, refinement or atomic coordinate data resulting 
# from the CCDC's data processing and validation procedures.
#
#######################################################################

data_IQOBIZ
_symmetry_cell_setting           triclinic
_symmetry_space_group_name_H-M   'P -1'
_symmetry_Int_Tables_number      2
_space_group_name_Hall           '-P 1'
loop_
_symmetry_equiv_pos_site_id
_symmetry_equiv_pos_as_xyz
1 x,y,z
2 -x,-y,-z
_cell_length_a                   8.5459(16)
_cell_length_b                   10.0336(19)
_cell_length_c                   10.965(2)
_cell_angle_alpha                102.070(3)
_cell_angle_beta                 104.408(3)
_cell_angle_gamma                103.875(3)
_cell_volume                     847.178
loop_
_atom_site_label
_atom_site_type_symbol
_atom_site_fract_x
_atom_site_fract_y
_atom_site_fract_z
B1 B 0.7679(11) 0.3538(9) 0.2265(9)
N1 N 0.7084(8) 0.4672(7) 0.3050(6)
Pb1 Pb 0.43532(4) 0.82718(3) 0.35165(3)
I1 I 0.17283(8) 0.97983(6) 0.24071(6)
C1 C 0.6542(9) 0.5703(8) 0.2625(8)
H1 H 0.6403 0.5779 0.1776
N2 N 0.6232(8) 0.6589(7) 0.3541(7)
C2 C 0.7133(10) 0.4955(8) 0.4349(8)
H2 H 0.7465 0.4435 0.4921
C3 C 0.6617(10) 0.6113(8) 0.4643(8)
H3 H 0.6532 0.6527 0.5456
N3 N 0.9506(8) 0.4205(6) 0.2282(6)
N4 N 1.1904(8) 0.5838(7) 0.2469(7)
C4 C 1.0368(9) 0.5628(8) 0.2582(7)
H4 H 0.9923 0.6362 0.2836
N5 N 0.7666(8) 0.2304(6) 0.2917(6)
C5 C 1.0593(10) 0.3479(8) 0.1938(8)
H5 H 1.0378 0.2492 0.1685
N6 N 0.6672(8) 0.0382(7) 0.3511(7)
C6 C 1.2021(9) 0.4482(8) 0.2040(8)
H6 H 1.2958 0.4288 0.1849
C7 C 0.6361(10) 0.1147(8) 0.2693(8)
H7 H 0.5337 0.0905 0.2027
N7 N 0.6469(8) 0.2986(7) 0.0842(6)
C8 C 0.8919(10) 0.2265(9) 0.3961(8)
H8 H 0.9994 0.2932 0.4360
N8 N 0.5554(8) 0.2315(6) -0.1322(7)
C9 C 0.8296(10) 0.1082(8) 0.4293(8)
H9 H 0.8890 0.0785 0.4963
C10 C 0.6894(10) 0.2872(8) -0.0259(7)
H10 H 0.8006 0.3153 -0.0274
C11 C 0.4704(9) 0.2466(8) 0.0459(8)
H11 H 0.4033 0.2421 0.1008
C12 C 0.4150(10) 0.2033(8) -0.0885(8)
H12 H 0.3025 0.1621 -0.1416
N4_2 N 0.1904(8) 0.5838(7) 0.2469(7)
N6_2 N 0.6672(8) 1.0382(7) 0.3511(7)
N8A N 0.4446(8) 0.7685(6) 0.1322(7)
Pb1_2 Pb 1.43532(4) 0.82718(3) 0.35165(3)
Pb1_3 Pb 0.43532(4) -0.17282(3) 0.35165(3)
Pb1A Pb 0.56468(4) 0.17282(3) -0.35165(3)
loop_
_geom_bond_atom_site_label_1
_geom_bond_atom_site_label_2
_geom_bond_site_symmetry_1
_geom_bond_site_symmetry_2
B1 N1 1_555 1_555
N1 C1 1_555 1_555
Pb1 I1 1_555 1_555
C1 H1 1_555 1_555
N2 Pb1 1_555 1_555
C2 N1 1_555 1_555
H2 C2 1_555 1_555
C3 N2 1_555 1_555
H3 C3 1_555 1_555
N3 B1 1_555 1_555
N4 C4 1_555 1_555
C4 N3 1_555 1_555
H4 C4 1_555 1_555
N5 B1 1_555 1_555
C5 N3 1_555 1_555
H5 C5 1_555 1_555
N6 C7 1_555 1_555
C6 N4 1_555 1_555
H6 C6 1_555 1_555
C7 N5 1_555 1_555
H7 C7 1_555 1_555
N7 B1 1_555 1_555
C8 N5 1_555 1_555
H8 C8 1_555 1_555
N8 C10 1_555 1_555
C9 N6 1_555 1_555
H9 C9 1_555 1_555
C10 N7 1_555 1_555
H10 C10 1_555 1_555
C11 N7 1_555 1_555
H11 C11 1_555 1_555
C12 N8 1_555 1_555
H12 C12 1_555 1_555
N4_2 Pb1 1_555 1_555
N6_2 Pb1 1_555 1_555
N8A Pb1 1_555 1_555
Pb1_2 N4 1_555 1_555
Pb1_3 N6 1_555 1_555
Pb1A N8 1_555 1_555
C1 N2 1_555 1_555
C2 C3 1_555 1_555
C5 C6 1_555 1_555
C8 C9 1_555 1_555
C11 C12 1_555 1_555

#END
