
#######################################################################
#
#                 Cambridge Crystallographic Data Centre
#                                CCDC 
#
#######################################################################
#
# If this CIF has been generated from an entry in the Cambridge 
# Structural Database, then it will include bibliographic, chemical, 
# crystal, experimental, refinement or atomic coordinate data resulting 
# from the CCDC's data processing and validation procedures.
#
#######################################################################

data_IQOLEF
_symmetry_cell_setting           monoclinic
_symmetry_space_group_name_H-M   'C 2/c'
_symmetry_Int_Tables_number      15
_space_group_name_Hall           '-C 2yn'
loop_
_symmetry_equiv_pos_site_id
_symmetry_equiv_pos_as_xyz
1 x,y,z
2 x,-y,1/2+z
3 1/2+x,1/2+y,z
4 1/2+x,1/2-y,1/2+z
5 -x,-y,-z
6 -x,y,1/2-z
7 1/2-x,1/2-y,-z
8 1/2-x,1/2+y,1/2-z
_cell_length_a                   20.9560(9)
_cell_length_b                   9.6889(3)
_cell_length_c                   13.6658(7)
_cell_angle_alpha                90
_cell_angle_beta                 119.935(4)
_cell_angle_gamma                90
_cell_volume                     2404.54
loop_
_atom_site_label
_atom_site_type_symbol
_atom_site_fract_x
_atom_site_fract_y
_atom_site_fract_z
Ag1 Ag 0.17619(3) 0.21263(5) 0.21586(4)
S1 S 0.10809(8) 0.12401(14) 0.01972(12)
S2 S 0.18376(8) -0.13017(15) -0.10269(12)
S3 S 0.33784(8) 0.05543(16) 0.30476(14)
F1 F 0.4169(4) 0.0950(9) 0.2151(7)
F2 F 0.4665(3) 0.1572(6) 0.3876(9)
F3 F 0.4621(2) -0.0517(5) 0.3465(5)
O1 O -0.0018(2) -0.1229(5) -0.1214(4)
O2 O 0.3070(2) 0.1906(4) 0.2654(5)
O3 O 0.3543(4) 0.0233(9) 0.4171(6)
O4 O 0.3005(3) -0.0510(5) 0.2271(5)
C1 C 0.1732(3) 0.1332(6) -0.0306(5)
C2 C 0.1544(3) 0.0486(6) -0.1349(5)
C3 C 0.1048(3) -0.2195(6) -0.1098(5)
C4 C 0.0644(3) -0.1347(5) -0.0670(5)
C5 C 0.1081(3) -0.0596(5) 0.0448(4)
C6 C 0.4270(4) 0.0652(8) 0.3171(9)
H1 H 0.17790 0.22900 -0.04650
H2 H 0.22090 0.10340 0.02990
H3 H 0.17760 0.09010 -0.17380
H4 H 0.10150 0.05120 -0.18550
H5 H 0.07100 -0.24500 -0.18760
H6 H 0.12170 -0.30380 -0.06590
H7 H 0.15830 -0.09370 0.08420
H8 H 0.08640 -0.07680 0.09180
S2A S 0.18376(8) 0.13017(15) 0.39731(12)
O4G O 0.1995(3) 0.4490(5) 0.2729(5)
Ag1A Ag 0.17619(3) -0.21263(5) -0.28414(4)
Ag1G Ag 0.32381(3) -0.28737(5) 0.28414(4)
loop_
_geom_bond_atom_site_label_1
_geom_bond_atom_site_label_2
_geom_bond_site_symmetry_1
_geom_bond_site_symmetry_2
Ag1 S1 1_555 1_555
S1 C1 1_555 1_555
S2 C2 1_555 1_555
S3 O2 1_555 1_555
F1 C6 1_555 1_555
F2 C6 1_555 1_555
F3 C6 1_555 1_555
O1 C4 1_555 1_555
O2 Ag1 1_555 1_555
O3 S3 1_555 1_555
O4 S3 1_555 1_555
C1 C2 1_555 1_555
C2 H3 1_555 1_555
C3 S2 1_555 1_555
C4 C3 1_555 1_555
C5 S1 1_555 1_555
C6 S3 1_555 1_555
H1 C1 1_555 1_555
H2 C1 1_555 1_555
H4 C2 1_555 1_555
H5 C3 1_555 1_555
H6 C3 1_555 1_555
H7 C5 1_555 1_555
H8 C5 1_555 1_555
S2A Ag1 1_555 1_555
O4G Ag1 1_555 1_555
Ag1A S2 1_555 1_555
Ag1G O4 1_555 1_555
C4 C5 1_555 1_555

#END
