
#######################################################################
#
#                 Cambridge Crystallographic Data Centre
#                                CCDC 
#
#######################################################################
#
# If this CIF has been generated from an entry in the Cambridge 
# Structural Database, then it will include bibliographic, chemical, 
# crystal, experimental, refinement or atomic coordinate data resulting 
# from the CCDC's data processing and validation procedures.
#
#######################################################################

data_IQOWUH
_symmetry_cell_setting           monoclinic
_symmetry_space_group_name_H-M   'P 21/c'
_symmetry_Int_Tables_number      14
_space_group_name_Hall           '-P 2ybc'
loop_
_symmetry_equiv_pos_site_id
_symmetry_equiv_pos_as_xyz
1 x,y,z
2 -x,1/2+y,1/2-z
3 -x,-y,-z
4 x,1/2-y,1/2+z
_cell_length_a                   3.6325(6)
_cell_length_b                   10.2841(17)
_cell_length_c                   10.4812(17)
_cell_angle_alpha                90
_cell_angle_beta                 97.379(3)
_cell_angle_gamma                90
_cell_volume                     388.303
loop_
_atom_site_label
_atom_site_type_symbol
_atom_site_fract_x
_atom_site_fract_y
_atom_site_fract_z
Cu1 Cu 0.1399(4) 0.38592(10) 0.39304(10)
N1 N 0.164(2) 0.3525(7) 0.5781(7)
N2 N 0.028(2) 0.4387(7) 0.6632(6)
N3 N 0.181(2) 0.2544(7) 0.7694(6)
N4 N 0.392(3) 0.1343(8) 0.5949(8)
H1 H 0.55(3) 0.152(10) 0.540(10)
H2 H 0.54(3) 0.099(11) 0.660(11)
C1 C 0.257(3) 0.2467(8) 0.6456(7)
C2 C 0.048(3) 0.3756(9) 0.7738(8)
H3 H -0.09(2) 0.411(7) 0.840(7)
Cu1B Cu -0.1399(4) 0.61408(10) 0.60696(10)
Cu1C Cu 0.1399(4) 0.11408(10) 0.89304(10)
N2B N -0.028(2) 0.5613(7) 0.3368(6)
N3C N 0.181(2) 0.2456(7) 0.2694(6)
loop_
_geom_bond_atom_site_label_1
_geom_bond_atom_site_label_2
_geom_bond_site_symmetry_1
_geom_bond_site_symmetry_2
Cu1 N1 1_555 1_555
N1 N2 1_555 1_555
N2 C2 1_555 1_555
N3 C1 1_555 1_555
N4 H1 1_555 1_555
H2 N4 1_555 1_555
C1 N1 1_555 1_555
C2 N3 1_555 1_555
H3 C2 1_555 1_555
Cu1B N2 1_555 1_555
Cu1C N3 1_555 1_555
N2B Cu1 1_555 1_555
N3C Cu1 1_555 1_555
N4 C1 1_555 1_555

#END
