
#######################################################################
#
#                 Cambridge Crystallographic Data Centre
#                                CCDC 
#
#######################################################################
#
# If this CIF has been generated from an entry in the Cambridge 
# Structural Database, then it will include bibliographic, chemical, 
# crystal, experimental, refinement or atomic coordinate data resulting 
# from the CCDC's data processing and validation procedures.
#
#######################################################################

data_IQOWIV
_symmetry_cell_setting           triclinic
_symmetry_space_group_name_H-M   'P -1'
_symmetry_Int_Tables_number      2
_space_group_name_Hall           '-P 1'
loop_
_symmetry_equiv_pos_site_id
_symmetry_equiv_pos_as_xyz
1 x,y,z
2 -x,-y,-z
_cell_length_a                   7.580(2)
_cell_length_b                   9.975(3)
_cell_length_c                   14.591(6)
_cell_angle_alpha                92.161(14)
_cell_angle_beta                 92.420(13)
_cell_angle_gamma                109.510(12)
_cell_volume                     1037.39
loop_
_atom_site_label
_atom_site_type_symbol
_atom_site_fract_x
_atom_site_fract_y
_atom_site_fract_z
Er1 Er 0.467328(13) 0.516862(10) 0.282746(6)
Ag1 Ag 1.95810(3) 1.01656(3) -0.121690(14)
O1 O 0.3258(3) 0.3482(2) 0.39428(12)
O2 O 0.4542(3) 0.27387(19) 0.27941(12)
O3 O 0.4637(2) -0.24021(19) 0.27627(11)
O4 O 0.3352(2) -0.36766(19) 0.39073(12)
O5 O 0.7341(2) 0.5759(2) 0.21279(13)
O6 O 1.0133(3) 0.7164(2) 0.27100(12)
O7 O 0.6174(2) 0.5153(2) -0.12521(12)
O8 O 0.8493(2) 0.5730(2) -0.21656(12)
O9 O 0.6932(3) 0.5796(2) 0.40779(13)
H1 H 0.787(3) 0.557(4) 0.401(2)
H2 H 0.685(5) 0.590(4) 0.4634(8)
N1 N 1.7047(3) 0.9069(2) -0.05303(14)
N2 N 1.7339(3) 0.9028(2) 0.04074(14)
N3 N 1.4324(3) 0.8057(2) 0.00372(13)
N4 N 0.1030(3) -0.0021(3) 0.75397(15)
N5 N 0.1754(3) -0.1133(3) 0.75910(15)
N6 N 0.1821(3) -0.0451(2) 0.61733(13)
C1 C 0.2309(3) -0.0319(3) 0.52416(15)
C2 C 0.2623(3) 0.0960(3) 0.48276(16)
H5 H 0.2415 0.1738 0.5145
C3 C 0.3247(3) 0.1091(2) 0.39397(16)
C4 C 0.3582(3) -0.0044(3) 0.34796(15)
H6 H 0.4013 0.0049 0.2876
C5 C 0.3279(3) -0.1314(2) 0.39116(15)
C6 C 0.2596(3) -0.1470(3) 0.47837(16)
H7 H 0.2328 -0.2355 0.5065
C7 C 0.1107(3) 0.0382(3) 0.67011(16)
H8 H 0.0726 0.1138 0.6489
C8 C 0.2190(4) -0.1365(3) 0.67666(17)
H9 H 0.2703 -0.2080 0.6595
C9 C 0.3691(3) 0.2512(3) 0.35304(16)
C10 C 0.3754(3) -0.2538(2) 0.34904(15)
C11 C 1.2342(3) 0.7428(3) 0.01236(15)
C12 C 1.1141(3) 0.6902(3) -0.06503(16)
H10 H 1.1619 0.6962 -0.1245
C13 C 0.9229(3) 0.6286(3) -0.05434(16)
C14 C 0.8513(3) 0.6167(2) 0.03271(16)
H11 H 0.7206 0.5733 0.0392
C15 C 0.9726(3) 0.6688(3) 0.10998(15)
C16 C 1.1644(3) 0.7339(3) 0.09980(16)
H12 H 1.2471 0.7720 0.1523
C17 C 1.5246(3) 0.8482(3) -0.07335(16)
H13 H 1.4668 0.8370 -0.1335
C18 C 1.5701(3) 0.8415(3) 0.07285(16)
H14 H 1.5492 0.8241 0.1357
C19 C 0.9034(3) 0.6538(3) 0.20632(16)
C20 C 0.7901(3) 0.5693(3) -0.13692(16)
Er1_2 Er 0.467328(13) -0.483138(10) 0.282746(6)
Er1A Er 0.532672(13) 0.483138(10) -0.282746(6)
Ag1A Ag 2.04190(3) 0.98344(3) 0.121690(14)
Ag1_2 Ag -0.04190(3) 0.01656(3) 0.878310(14)
O3_2 O 0.4637(2) 0.75979(19) 0.27627(11)
O4_2 O 0.3352(2) 0.63234(19) 0.39073(12)
O7A O 0.3826(2) 0.4847(2) 0.12521(12)
O8A O 0.1507(2) 0.4270(2) 0.21656(12)
N2A N 2.2661(3) 1.0972(2) -0.04074(14)
N4_2 N 2.1030(3) 0.9979(3) -0.24603(15)
O10 O 0.9563(3) 0.4541(3) 0.39073(17)
H3 H 1.059(4) 0.498(4) 0.423(2)
H4 H 0.986(5) 0.436(4) 0.3352(16)
loop_
_geom_bond_atom_site_label_1
_geom_bond_atom_site_label_2
_geom_bond_site_symmetry_1
_geom_bond_site_symmetry_2
Er1 O1 1_555 1_555
Ag1 N1 1_555 1_555
O1 C9 1_555 1_555
O2 Er1 1_555 1_555
O3 C10 1_555 1_555
O4 C10 1_555 1_555
O5 Er1 1_555 1_555
O6 C19 1_555 1_555
O7 C20 1_555 1_555
O8 C20 1_555 1_555
O9 Er1 1_555 1_555
H1 O9 1_555 1_555
H2 O9 1_555 1_555
O10 H3 1_555 1_555
H4 O10 1_555 1_555
N1 N2 1_555 1_555
N2 C18 1_555 1_555
N3 C11 1_555 1_555
N4 N5 1_555 1_555
N5 C8 1_555 1_555
N6 C1 1_555 1_555
C1 C2 1_555 1_555
C2 H5 1_555 1_555
C3 C2 1_555 1_555
C4 C3 1_555 1_555
H6 C4 1_555 1_555
C5 C4 1_555 1_555
C6 C1 1_555 1_555
H7 C6 1_555 1_555
C7 N4 1_555 1_555
H8 C7 1_555 1_555
C8 N6 1_555 1_555
H9 C8 1_555 1_555
C9 O2 1_555 1_555
C10 C5 1_555 1_555
C11 C12 1_555 1_555
C12 H10 1_555 1_555
C13 C12 1_555 1_555
C14 C13 1_555 1_555
H11 C14 1_555 1_555
C15 C14 1_555 1_555
C16 C11 1_555 1_555
H12 C16 1_555 1_555
C17 N1 1_555 1_555
H13 C17 1_555 1_555
C18 N3 1_555 1_555
H14 C18 1_555 1_555
C19 O5 1_555 1_555
C20 C13 1_555 1_555
Er1_2 O3 1_555 1_555
Er1A O7 1_555 1_555
Ag1A N2 1_555 1_555
Ag1_2 N4 1_555 1_555
O3_2 Er1 1_555 1_555
O4_2 Er1 1_555 1_555
O7A Er1 1_555 1_555
O8A Er1 1_555 1_555
N2A Ag1 1_555 1_555
N4_2 Ag1 1_555 1_555
O4 Er1_2 1_555 1_555
O8 Er1A 1_555 1_555
N3 C17 1_555 1_555
N6 C7 1_555 1_555
C3 C9 1_555 1_555
C5 C6 1_555 1_555
C15 C16 1_555 1_555
C15 C19 1_555 1_555

#END
