
#######################################################################
#
#                 Cambridge Crystallographic Data Centre
#                                CCDC 
#
#######################################################################
#
# If this CIF has been generated from an entry in the Cambridge 
# Structural Database, then it will include bibliographic, chemical, 
# crystal, experimental, refinement or atomic coordinate data resulting 
# from the CCDC's data processing and validation procedures.
#
#######################################################################

data_IQOWOB
_symmetry_cell_setting           triclinic
_symmetry_space_group_name_H-M   'P -1'
_symmetry_Int_Tables_number      2
_space_group_name_Hall           '-P 1'
loop_
_symmetry_equiv_pos_site_id
_symmetry_equiv_pos_as_xyz
1 x,y,z
2 -x,-y,-z
_cell_length_a                   7.550(2)
_cell_length_b                   9.951(4)
_cell_length_c                   14.564(5)
_cell_angle_alpha                92.128(16)
_cell_angle_beta                 92.460(13)
_cell_angle_gamma                109.383(15)
_cell_volume                     1029.69
loop_
_atom_site_label
_atom_site_type_symbol
_atom_site_fract_x
_atom_site_fract_y
_atom_site_fract_z
Yb1 Yb 0.032274(14) -0.016449(10) 0.217385(7)
Ag1 Ag -1.45832(3) -0.51741(3) 0.621640(17)
O1 O -0.1150(3) -0.0151(3) 0.62596(14)
O2 O -0.3472(3) -0.0731(2) 0.71770(14)
O3 O -0.2319(3) -0.0741(3) 0.28694(15)
O4 O -0.5113(3) -0.2143(3) 0.22840(15)
O5 O 0.0440(3) -0.7749(2) 0.22179(14)
O6 O 0.1722(3) -0.8488(2) 0.10640(14)
O7 O 0.0356(3) -0.2587(2) 0.22480(13)
O8 O 0.1640(3) -0.1313(2) 0.11033(14)
O9 O -0.1914(3) -0.0792(3) 0.09390(16)
H1 H -0.283(4) -0.056(4) 0.100(3)
H2 H -0.163(6) -0.074(5) 0.0411(14)
N1 N -0.9315(3) -0.3053(2) 0.49626(15)
N2 N -1.2043(3) -0.4069(3) 0.55321(16)
N3 N -1.2335(3) -0.4030(3) 0.45919(17)
N4 N 0.3191(3) -0.4547(2) -0.11634(16)
N5 N 0.3270(4) -0.3860(3) -0.25843(19)
N6 N 0.3980(4) -0.4983(3) -0.25326(17)
C1 C -0.7323(3) -0.2422(3) 0.48781(18)
C2 C -0.6131(4) -0.1901(3) 0.56542(18)
H5 H -0.6614 -0.1963 0.6249
C3 C -0.4209(4) -0.1283(3) 0.55475(18)
C4 C -0.3496(4) -0.1158(3) 0.46746(18)
H6 H -0.2186 -0.0716 0.4610
C5 C -0.4706(4) -0.1680(3) 0.38991(18)
C6 C -0.6631(4) -0.2336(3) 0.40012(18)
H7 H -0.7462 -0.2720 0.3476
C7 C -1.0243(4) -0.3477(3) 0.57376(19)
H8 H -0.9665 -0.3359 0.6341
C8 C -1.0691(4) -0.3415(3) 0.42700(19)
H9 H -1.0481 -0.3243 0.3640
C9 C -0.2883(4) -0.0690(3) 0.63750(18)
C10 C -0.4011(4) -0.1525(3) 0.29325(19)
C11 C 0.2693(4) -0.4679(3) -0.02340(18)
C12 C 0.2371(4) -0.5961(3) 0.01829(19)
H10 H 0.2578 -0.6742 -0.0134
C13 C 0.1742(4) -0.6094(3) 0.10706(18)
C14 C 0.1405(4) -0.4958(3) 0.15341(18)
H11 H 0.0969 -0.5054 0.2139
C15 C 0.1716(4) -0.3680(3) 0.10999(18)
C16 C 0.2405(4) -0.3529(3) 0.02279(18)
H12 H 0.2679 -0.2641 -0.0052
C17 C 0.2826(4) -0.3629(3) -0.1760(2)
H13 H 0.2310 -0.2912 -0.1590
C18 C 0.3894(4) -0.5383(3) -0.16972(19)
H14 H 0.4264 -0.6148 -0.1486
C19 C 0.1294(4) -0.7521(3) 0.14783(19)
C20 C 0.1232(4) -0.2456(3) 0.15210(18)
Yb1A Yb -0.032274(14) 0.016449(10) 0.782615(7)
Yb1_2 Yb 0.032274(14) -1.016449(10) 0.217385(7)
Ag1A Ag -1.54168(3) -0.48259(3) 0.378360(17)
Ag1_2 Ag 0.54168(3) -0.51741(3) -0.378360(17)
O1A O 0.1150(3) 0.0151(3) 0.37404(14)
O2A O 0.3472(3) 0.0731(2) 0.28230(14)
O5_2 O 0.0440(3) 0.2251(2) 0.22179(14)
O6_2 O 0.1722(3) 0.1512(2) 0.10640(14)
N3A N -1.7665(3) -0.5970(3) 0.54081(17)
N6_2 N -1.6020(4) -0.4983(3) 0.74674(17)
O10 O 0.5440(4) 0.0458(3) 0.1082(2)
H3 H 0.451(5) -0.004(4) 0.074(3)
H4 H 0.525(7) 0.076(5) 0.1614(19)
loop_
_geom_bond_atom_site_label_1
_geom_bond_atom_site_label_2
_geom_bond_site_symmetry_1
_geom_bond_site_symmetry_2
Yb1 O3 1_555 1_555
Ag1 N2 1_555 1_555
O1 C9 1_555 1_555
O2 C9 1_555 1_555
O3 C10 1_555 1_555
O4 C10 1_555 1_555
O5 C19 1_555 1_555
O6 C19 1_555 1_555
O7 Yb1 1_555 1_555
O8 Yb1 1_555 1_555
O9 Yb1 1_555 1_555
H1 O9 1_555 1_555
H2 O9 1_555 1_555
O10 H3 1_555 1_555
H4 O10 1_555 1_555
N1 C1 1_555 1_555
N2 N3 1_555 1_555
N3 C8 1_555 1_555
N4 C11 1_555 1_555
N5 N6 1_555 1_555
N6 C18 1_555 1_555
C1 C2 1_555 1_555
C2 H5 1_555 1_555
C3 C2 1_555 1_555
C4 C3 1_555 1_555
H6 C4 1_555 1_555
C5 C4 1_555 1_555
C6 C1 1_555 1_555
H7 C6 1_555 1_555
C7 N1 1_555 1_555
H8 C7 1_555 1_555
C8 N1 1_555 1_555
H9 C8 1_555 1_555
C9 C3 1_555 1_555
C10 C5 1_555 1_555
C11 C12 1_555 1_555
C12 H10 1_555 1_555
C13 C12 1_555 1_555
C14 C13 1_555 1_555
H11 C14 1_555 1_555
C15 C14 1_555 1_555
C16 C11 1_555 1_555
H12 C16 1_555 1_555
C17 N4 1_555 1_555
H13 C17 1_555 1_555
C18 N4 1_555 1_555
H14 C18 1_555 1_555
C19 C13 1_555 1_555
C20 O7 1_555 1_555
Yb1A O1 1_555 1_555
Yb1_2 O5 1_555 1_555
Ag1A N3 1_555 1_555
Ag1_2 N6 1_555 1_555
O1A Yb1 1_555 1_555
O2A Yb1 1_555 1_555
O5_2 Yb1 1_555 1_555
O6_2 Yb1 1_555 1_555
N3A Ag1 1_555 1_555
N6_2 Ag1 1_555 1_555
O2 Yb1A 1_555 1_555
O6 Yb1_2 1_555 1_555
O8 C20 1_555 1_555
N2 C7 1_555 1_555
N5 C17 1_555 1_555
C5 C6 1_555 1_555
C15 C16 1_555 1_555
C15 C20 1_555 1_555

#END
