
#######################################################################
#
#                 Cambridge Crystallographic Data Centre
#                                CCDC 
#
#######################################################################
#
# If this CIF has been generated from an entry in the Cambridge 
# Structural Database, then it will include bibliographic, chemical, 
# crystal, experimental, refinement or atomic coordinate data resulting 
# from the CCDC's data processing and validation procedures.
#
#######################################################################

data_IQOWER
_symmetry_cell_setting           monoclinic
_symmetry_space_group_name_H-M   'C 2/c'
_symmetry_Int_Tables_number      15
_space_group_name_Hall           '-C 2yn'
loop_
_symmetry_equiv_pos_site_id
_symmetry_equiv_pos_as_xyz
1 x,y,z
2 -x,y,1/2-z
3 1/2+x,1/2+y,z
4 1/2-x,1/2+y,1/2-z
5 -x,-y,-z
6 x,-y,1/2+z
7 1/2-x,1/2-y,-z
8 1/2+x,1/2-y,1/2+z
_cell_length_a                   14.326(5)
_cell_length_b                   16.855(6)
_cell_length_c                   9.095(4)
_cell_angle_alpha                90
_cell_angle_beta                 115.654(17)
_cell_angle_gamma                90
_cell_volume                     1979.64
loop_
_atom_site_label
_atom_site_type_symbol
_atom_site_fract_x
_atom_site_fract_y
_atom_site_fract_z
Tb1 Tb 0.5000 0.407451(7) 0.2500
Ag1 Ag 0.5000 0.139812(18) 1.2500
O1 O 0.44850(17) 0.33171(12) 0.4349(3)
O2 O 0.37936(16) 0.29358(12) 0.1797(2)
O3 O 0.12485(12) 0.06716(10) 0.01387(19)
O4 O 0.09357(14) 0.00618(10) 0.2039(2)
N1 N 0.34790(15) 0.11976(11) 0.7350(2)
N2 N 0.41081(17) 0.11935(13) 0.9992(3)
N3 N 0.38848(19) 0.04140(14) 0.9477(3)
C1 C 0.31468(17) 0.14213(13) 0.5684(3)
C2 C 0.36269(17) 0.20429(13) 0.5288(3)
H1 H 0.4130 0.2359 0.6119
C3 C 0.33602(18) 0.21976(12) 0.3650(3)
C4 C 0.26306(17) 0.17294(13) 0.2430(3)
H2 H 0.2476 0.1820 0.1318
C5 C 0.21291(17) 0.11247(13) 0.2860(3)
C6 C 0.2375(2) 0.09766(12) 0.4486(3)
H3 H 0.2020 0.0576 0.4777
C7 C 0.38615(18) 0.16473(14) 0.8714(3)
H4 H 0.3939 0.2208 0.8739
C8 C 0.3513(2) 0.04407(16) 0.7897(3)
H5 H 0.3291 -0.0012 0.7208
C9 C 0.39056(18) 0.28659(13) 0.3234(3)
C10 C 0.13576(16) 0.05843(12) 0.1570(3)
Tb1F Tb 0.0000 0.092549(7) -0.2500
Tb1B Tb 0.0000 -0.092549(7) 0.2500
Tb1F_2 Tb 1.0000 0.092549(7) 0.7500
Tb1B_2 Tb 1.0000 -0.092549(7) 0.2500
Ag1_2 Ag 0.5000 0.139812(18) -0.7500
O1A O 0.55150(17) 0.33171(12) 0.0651(3)
O2A O 0.62064(16) 0.29358(12) 0.3203(2)
O3A O 0.87515(12) 0.06716(10) 0.48613(19)
O3F O 0.37515(12) 0.43284(10) -0.01387(19)
O3G O 0.62485(12) 0.43284(10) 0.51387(19)
O4A O 0.90643(14) 0.00618(10) 0.2961(2)
O4B O 0.59357(14) 0.50618(10) 0.2039(2)
O4C O 0.40643(14) 0.50618(10) 0.2961(2)
N1A N 0.65210(15) 0.11976(11) -0.2350(2)
N2A N 0.58919(17) 0.11935(13) -0.4992(3)
N2A_2 N 0.58919(17) 0.11935(13) 1.5008(3)
N3A N 0.61152(19) 0.04140(14) -0.4477(3)
C1A C 0.68532(17) 0.14213(13) -0.0684(3)
C2A C 0.63731(17) 0.20429(13) -0.0288(3)
H1A H 0.5870 0.2359 -0.1119
C3A C 0.66398(18) 0.21976(12) 0.1350(3)
C4A C 0.73694(17) 0.17294(13) 0.2570(3)
H2A H 0.7524 0.1820 0.3682
C5A C 0.78709(17) 0.11247(13) 0.2140(3)
C6A C 0.7625(2) 0.09766(12) 0.0514(3)
H3A H 0.7980 0.0576 0.0223
C7A C 0.61385(18) 0.16473(14) -0.3714(3)
H4A H 0.6061 0.2208 -0.3739
C8A C 0.6487(2) 0.04407(16) -0.2897(3)
H5A H 0.6709 -0.0012 -0.2208
C9A C 0.60944(18) 0.28659(13) 0.1766(3)
C10A C 0.86424(16) 0.05843(12) 0.3430(3)
loop_
_geom_bond_atom_site_label_1
_geom_bond_atom_site_label_2
_geom_bond_site_symmetry_1
_geom_bond_site_symmetry_2
Tb1 O1 1_555 1_555
Ag1 N2 1_555 1_555
O1 C9 1_555 1_555
O2 Tb1 1_555 1_555
O3 C10 1_555 1_555
O4 C10 1_555 1_555
N1 C1 1_555 1_555
N2 N3 1_555 1_555
N3 C8 1_555 1_555
C1 C2 1_555 1_555
C2 H1 1_555 1_555
C3 C2 1_555 1_555
C4 C3 1_555 1_555
H2 C4 1_555 1_555
C5 C4 1_555 1_555
C6 C1 1_555 1_555
H3 C6 1_555 1_555
C7 N1 1_555 1_555
H4 C7 1_555 1_555
C8 N1 1_555 1_555
H5 C8 1_555 1_555
C9 O2 1_555 1_555
C10 C5 1_555 1_555
Tb1F O3 1_555 1_555
Tb1B O4 1_555 1_555
Tb1F_2 O3A 1_555 1_555
Tb1B_2 O4A 1_555 1_555
Ag1_2 N2A 1_555 1_555
O1A Tb1 1_555 1_555
O2A Tb1 1_555 1_555
O3A C10A 1_555 1_555
O3F Tb1 1_555 1_555
O3G Tb1 1_555 1_555
O4A C10A 1_555 1_555
O4B Tb1 1_555 1_555
O4C Tb1 1_555 1_555
N1A C1A 1_555 1_555
N2A N3A 1_555 1_555
N2A_2 Ag1 1_555 1_555
N3A C8A 1_555 1_555
C1A C2A 1_555 1_555
C2A H1A 1_555 1_555
C3A C2A 1_555 1_555
C4A C3A 1_555 1_555
H2A C4A 1_555 1_555
C5A C4A 1_555 1_555
C6A C1A 1_555 1_555
H3A C6A 1_555 1_555
C7A N1A 1_555 1_555
H4A C7A 1_555 1_555
C8A N1A 1_555 1_555
H5A C8A 1_555 1_555
C9A O1A 1_555 1_555
C10A C5A 1_555 1_555
N2 C7 1_555 1_555
C3 C9 1_555 1_555
C5 C6 1_555 1_555
O2A C9A 1_555 1_555
N2A C7A 1_555 1_555
C3A C9A 1_555 1_555
C5A C6A 1_555 1_555

#END
