
#######################################################################
#
#                 Cambridge Crystallographic Data Centre
#                                CCDC 
#
#######################################################################
#
# If this CIF has been generated from an entry in the Cambridge 
# Structural Database, then it will include bibliographic, chemical, 
# crystal, experimental, refinement or atomic coordinate data resulting 
# from the CCDC's data processing and validation procedures.
#
#######################################################################

data_IQOWUH01
_symmetry_cell_setting           orthorhombic
_symmetry_space_group_name_H-M   'P b c a'
_symmetry_Int_Tables_number      61
_space_group_name_Hall           '-P 2ac 2ab'
loop_
_symmetry_equiv_pos_site_id
_symmetry_equiv_pos_as_xyz
1 x,y,z
2 1/2-x,-y,1/2+z
3 -x,1/2+y,1/2-z
4 1/2+x,1/2-y,-z
5 -x,-y,-z
6 1/2+x,y,1/2-z
7 x,1/2-y,1/2+z
8 1/2-x,1/2+y,z
_cell_length_a                   10.3115(9)
_cell_length_b                   10.4977(10)
_cell_length_c                   14.7439(14)
_cell_angle_alpha                90
_cell_angle_beta                 90
_cell_angle_gamma                90
_cell_volume                     1595.98
loop_
_atom_site_label
_atom_site_type_symbol
_atom_site_fract_x
_atom_site_fract_y
_atom_site_fract_z
Cu1 Cu 0.38493(6) 0.36740(6) 0.84947(4)
Cu2 Cu 0.61412(6) 0.59701(6) 0.91845(4)
N1 N 0.3523(4) 0.5511(4) 0.8404(3)
N2 N 0.4399(4) 0.6437(4) 0.8711(3)
N3 N 0.2541(4) 0.7416(4) 0.8361(3)
N4 N 0.1332(4) 0.5585(5) 0.7936(3)
H1 H 0.146(5) 0.488(6) 0.770(3)
H2 H 0.090(5) 0.600(5) 0.768(4)
N5 N 0.6498(4) 0.4141(4) 0.9180(3)
N6 N 0.5644(4) 0.3224(4) 0.8831(3)
N7 N 0.7490(4) 0.2249(4) 0.9218(3)
N8 N 0.8664(4) 0.4072(5) 0.9738(3)
H3 H 0.852(5) 0.476(6) 0.997(4)
H4 H 0.912(7) 0.360(7) 1.007(5)
C1 C 0.2458(5) 0.6156(4) 0.8198(3)
C2 C 0.3783(5) 0.7529(5) 0.8669(4)
H5 H 0.420(5) 0.832(6) 0.884(4)
C3 C 0.7565(4) 0.3504(4) 0.9399(3)
C4 C 0.6285(5) 0.2131(5) 0.8868(4)
H6 H 0.593(5) 0.133(5) 0.871(3)
Cu1G Cu 0.11507(6) 0.86740(6) 0.84947(4)
Cu2G Cu 0.88588(6) 0.09701(6) 0.91845(4)
N3G N 0.2459(4) 0.2416(4) 0.8361(3)
N7G N 0.7510(4) 0.7249(4) 0.9218(3)
loop_
_geom_bond_atom_site_label_1
_geom_bond_atom_site_label_2
_geom_bond_site_symmetry_1
_geom_bond_site_symmetry_2
Cu1 N1 1_555 1_555
Cu2 N2 1_555 1_555
N1 N2 1_555 1_555
N2 C2 1_555 1_555
N3 C1 1_555 1_555
N4 H1 1_555 1_555
H2 N4 1_555 1_555
N5 Cu2 1_555 1_555
N6 Cu1 1_555 1_555
N7 C3 1_555 1_555
N8 H3 1_555 1_555
H4 N8 1_555 1_555
C1 N1 1_555 1_555
C2 N3 1_555 1_555
H5 C2 1_555 1_555
C3 N5 1_555 1_555
C4 N6 1_555 1_555
H6 C4 1_555 1_555
Cu1G N3 1_555 1_555
Cu2G N7 1_555 1_555
N3G Cu1 1_555 1_555
N7G Cu2 1_555 1_555
N4 C1 1_555 1_555
N5 N6 1_555 1_555
N7 C4 1_555 1_555
N8 C3 1_555 1_555

#END
