
#######################################################################
#
#                 Cambridge Crystallographic Data Centre
#                                CCDC 
#
#######################################################################
#
# If this CIF has been generated from an entry in the Cambridge 
# Structural Database, then it will include bibliographic, chemical, 
# crystal, experimental, refinement or atomic coordinate data resulting 
# from the CCDC's data processing and validation procedures.
#
#######################################################################

data_IQOWUH02
_symmetry_cell_setting           monoclinic
_symmetry_space_group_name_H-M   'P 21/c'
_symmetry_Int_Tables_number      14
_space_group_name_Hall           '-P 2ybc'
loop_
_symmetry_equiv_pos_site_id
_symmetry_equiv_pos_as_xyz
1 x,y,z
2 -x,1/2+y,1/2-z
3 -x,-y,-z
4 x,1/2-y,1/2+z
_cell_length_a                   8.4608(7)
_cell_length_b                   10.3198(9)
_cell_length_c                   10.5728(9)
_cell_angle_alpha                90
_cell_angle_beta                 118.944(8)
_cell_angle_gamma                90
_cell_volume                     807.843
loop_
_atom_site_label
_atom_site_type_symbol
_atom_site_fract_x
_atom_site_fract_y
_atom_site_fract_z
Cu1 Cu 0.30203(6) 0.61691(4) -0.01241(4)
Cu2 Cu 0.16193(6) 0.38474(4) 0.16136(4)
N1 N 0.3202(4) 0.6471(3) 0.1791(3)
N2 N 0.2581(4) 0.5579(3) 0.2462(3)
N3 N 0.3331(4) 0.7416(2) 0.3754(3)
N4 N 0.4169(5) 0.8669(3) 0.2253(4)
N5 N 0.1604(4) 0.3519(3) -0.0223(3)
N6 N 0.2323(4) 0.4368(3) -0.0853(3)
N7 N 0.1560(4) 0.2527(2) -0.2125(3)
N8 N 0.0490(5) 0.1347(3) -0.0730(4)
C1 C 0.3621(4) 0.7532(3) 0.2613(3)
C2 C 0.2686(5) 0.6182(3) 0.3602(4)
C3 C 0.1171(4) 0.2452(3) -0.1028(3)
C4 C 0.2259(5) 0.3741(3) -0.1965(4)
H1 H 0.265(4) 0.413(3) -0.265(4)
H2 H 0.469(5) 0.850(4) 0.176(4)
H3 H 0.475(6) 0.908(4) 0.290(5)
H4 H 0.228(4) 0.577(3) 0.430(4)
H5 H -0.023(6) 0.096(4) -0.159(5)
H6 H -0.012(5) 0.151(4) -0.034(4)
Cu1C Cu 0.30203(6) 0.88309(4) 0.48759(4)
Cu2C Cu 0.16193(6) 0.11526(4) -0.33864(4)
N3C N 0.3331(4) 0.7584(2) -0.1246(3)
N7C N 0.1560(4) 0.2473(2) 0.2875(3)
loop_
_geom_bond_atom_site_label_1
_geom_bond_atom_site_label_2
_geom_bond_site_symmetry_1
_geom_bond_site_symmetry_2
Cu1 N1 1_555 1_555
Cu2 N2 1_555 1_555
N1 N2 1_555 1_555
N2 C2 1_555 1_555
N3 C1 1_555 1_555
N4 C1 1_555 1_555
N5 Cu2 1_555 1_555
N6 Cu1 1_555 1_555
N7 C3 1_555 1_555
N8 C3 1_555 1_555
C1 N1 1_555 1_555
C2 N3 1_555 1_555
C3 N5 1_555 1_555
C4 N6 1_555 1_555
H1 C4 1_555 1_555
H2 N4 1_555 1_555
H3 N4 1_555 1_555
H4 C2 1_555 1_555
H5 N8 1_555 1_555
H6 N8 1_555 1_555
Cu1C N3 1_555 1_555
Cu2C N7 1_555 1_555
N3C Cu1 1_555 1_555
N7C Cu2 1_555 1_555
N5 N6 1_555 1_555
N7 C4 1_555 1_555

#END
