
#######################################################################
#
#                 Cambridge Crystallographic Data Centre
#                                CCDC 
#
#######################################################################
#
# If this CIF has been generated from an entry in the Cambridge 
# Structural Database, then it will include bibliographic, chemical, 
# crystal, experimental, refinement or atomic coordinate data resulting 
# from the CCDC's data processing and validation procedures.
#
#######################################################################

data_IQOWAN
_symmetry_cell_setting           monoclinic
_symmetry_space_group_name_H-M   'C 2/c'
_symmetry_Int_Tables_number      15
_space_group_name_Hall           '-C 2yn'
loop_
_symmetry_equiv_pos_site_id
_symmetry_equiv_pos_as_xyz
1 x,y,z
2 -x,y,1/2-z
3 1/2+x,1/2+y,z
4 1/2-x,1/2+y,1/2-z
5 -x,-y,-z
6 x,-y,1/2+z
7 1/2-x,1/2-y,-z
8 1/2+x,1/2-y,1/2+z
_cell_length_a                   14.358(5)
_cell_length_b                   16.949(6)
_cell_length_c                   9.127(3)
_cell_angle_alpha                90
_cell_angle_beta                 115.676(15)
_cell_angle_gamma                90
_cell_volume                     2001.78
loop_
_atom_site_label
_atom_site_type_symbol
_atom_site_fract_x
_atom_site_fract_y
_atom_site_fract_z
Eu1 Eu 0.5000 0.907321(7) 0.2500
Ag1 Ag 0.5000 0.640799(16) 1.2500
O1 O 0.44878(16) 0.83093(11) 0.4368(2)
O2 O 0.37868(14) 0.79330(11) 0.1813(2)
O3 O 0.12676(11) 0.56754(8) 0.01599(17)
O4 O 0.09509(13) 0.50649(10) 0.20463(18)
N1 N 0.34817(13) 0.61999(10) 0.7359(2)
N2 N 0.41090(15) 0.62015(12) 0.9997(2)
N3 N 0.38894(17) 0.54263(12) 0.9490(2)
C1 C 0.31521(15) 0.64196(11) 0.5698(2)
C2 C 0.36264(15) 0.70409(12) 0.5299(3)
H1 H 0.4125 0.7357 0.6128
C3 C 0.33636(16) 0.71967(11) 0.3669(3)
C4 C 0.26386(15) 0.67280(11) 0.2450(2)
H2 H 0.2484 0.6820 0.1342
C5 C 0.21422(15) 0.61230(11) 0.2876(2)
C6 C 0.23890(16) 0.59727(11) 0.4497(3)
H3 H 0.2040 0.5568 0.4784
C7 C 0.38618(16) 0.66509(13) 0.8718(3)
H4 H 0.3937 0.7208 0.8739
C8 C 0.35198(19) 0.54473(13) 0.7914(3)
H5 H 0.3303 0.4995 0.7233
C9 C 0.39055(16) 0.78611(11) 0.3256(3)
C10 C 0.13764(14) 0.55857(11) 0.1585(2)
Eu1F Eu 0.0000 0.592679(7) -0.2500
Eu1B Eu 0.0000 0.407321(7) 0.2500
Eu1F_2 Eu 1.0000 0.592679(7) 0.7500
Eu1B_2 Eu 1.0000 0.407321(7) 0.2500
Ag1_2 Ag 0.5000 0.640799(16) -0.7500
O1A O 0.55122(16) 0.83093(11) 0.0632(2)
O2A O 0.62132(14) 0.79330(11) 0.3187(2)
O3A O 0.87324(11) 0.56754(8) 0.48401(17)
O3F O 0.37324(11) 0.93246(8) -0.01599(17)
O3G O 0.62676(11) 0.93246(8) 0.51599(17)
O4A O 0.90491(13) 0.50649(10) 0.29537(18)
O4B O 0.59509(13) 1.00649(10) 0.20463(18)
O4C O 0.40491(13) 1.00649(10) 0.29537(18)
N1A N 0.65183(13) 0.61999(10) -0.2359(2)
N2A N 0.58910(15) 0.62015(12) -0.4997(2)
N2A_2 N 0.58910(15) 0.62015(12) 1.5003(2)
N3A N 0.61106(17) 0.54263(12) -0.4490(2)
C1A C 0.68479(15) 0.64196(11) -0.0698(2)
C2A C 0.63736(15) 0.70409(12) -0.0299(3)
H1A H 0.5875 0.7357 -0.1128
C3A C 0.66364(16) 0.71967(11) 0.1331(3)
C4A C 0.73614(15) 0.67280(11) 0.2550(2)
H2A H 0.7516 0.6820 0.3658
C5A C 0.78578(15) 0.61230(11) 0.2124(2)
C6A C 0.76110(16) 0.59727(11) 0.0503(3)
H3A H 0.7960 0.5568 0.0216
C7A C 0.61382(16) 0.66509(13) -0.3718(3)
H4A H 0.6063 0.7208 -0.3739
C8A C 0.64802(19) 0.54473(13) -0.2914(3)
H5A H 0.6697 0.4995 -0.2233
C9A C 0.60945(16) 0.78611(11) 0.1744(3)
C10A C 0.86236(14) 0.55857(11) 0.3415(2)
loop_
_geom_bond_atom_site_label_1
_geom_bond_atom_site_label_2
_geom_bond_site_symmetry_1
_geom_bond_site_symmetry_2
Eu1 O1 1_555 1_555
Ag1 N2 1_555 1_555
O1 C9 1_555 1_555
O2 Eu1 1_555 1_555
O3 C10 1_555 1_555
O4 C10 1_555 1_555
N1 C1 1_555 1_555
N2 N3 1_555 1_555
N3 C8 1_555 1_555
C1 C2 1_555 1_555
C2 H1 1_555 1_555
C3 C2 1_555 1_555
C4 C3 1_555 1_555
H2 C4 1_555 1_555
C5 C4 1_555 1_555
C6 C1 1_555 1_555
H3 C6 1_555 1_555
C7 N1 1_555 1_555
H4 C7 1_555 1_555
C8 N1 1_555 1_555
H5 C8 1_555 1_555
C9 O2 1_555 1_555
C10 C5 1_555 1_555
Eu1F O3 1_555 1_555
Eu1B O4 1_555 1_555
Eu1F_2 O3A 1_555 1_555
Eu1B_2 O4A 1_555 1_555
Ag1_2 N2A 1_555 1_555
O1A Eu1 1_555 1_555
O2A Eu1 1_555 1_555
O3A C10A 1_555 1_555
O3F Eu1 1_555 1_555
O3G Eu1 1_555 1_555
O4A C10A 1_555 1_555
O4B Eu1 1_555 1_555
O4C Eu1 1_555 1_555
N1A C1A 1_555 1_555
N2A N3A 1_555 1_555
N2A_2 Ag1 1_555 1_555
N3A C8A 1_555 1_555
C1A C2A 1_555 1_555
C2A H1A 1_555 1_555
C3A C2A 1_555 1_555
C4A C3A 1_555 1_555
H2A C4A 1_555 1_555
C5A C4A 1_555 1_555
C6A C1A 1_555 1_555
H3A C6A 1_555 1_555
C7A N1A 1_555 1_555
H4A C7A 1_555 1_555
C8A N1A 1_555 1_555
H5A C8A 1_555 1_555
C9A O1A 1_555 1_555
C10A C5A 1_555 1_555
N2 C7 1_555 1_555
C3 C9 1_555 1_555
C5 C6 1_555 1_555
O2A C9A 1_555 1_555
N2A C7A 1_555 1_555
C3A C9A 1_555 1_555
C5A C6A 1_555 1_555

#END
