
#######################################################################
#
#                 Cambridge Crystallographic Data Centre
#                                CCDC 
#
#######################################################################
#
# If this CIF has been generated from an entry in the Cambridge 
# Structural Database, then it will include bibliographic, chemical, 
# crystal, experimental, refinement or atomic coordinate data resulting 
# from the CCDC's data processing and validation procedures.
#
#######################################################################

data_IQOXIW
_symmetry_cell_setting           triclinic
_symmetry_space_group_name_H-M   'P -1'
_symmetry_Int_Tables_number      2
_space_group_name_Hall           '-P 1'
loop_
_symmetry_equiv_pos_site_id
_symmetry_equiv_pos_as_xyz
1 x,y,z
2 -x,-y,-z
_cell_length_a                   11.5360(4)
_cell_length_b                   12.9450(6)
_cell_length_c                   14.7840(6)
_cell_angle_alpha                75.239(4)
_cell_angle_beta                 71.308(3)
_cell_angle_gamma                67.165(4)
_cell_volume                     1905.77
loop_
_atom_site_label
_atom_site_type_symbol
_atom_site_fract_x
_atom_site_fract_y
_atom_site_fract_z
O2 O 0.868(2) -0.243(3) 0.648(2)
W1 W 0.76295(9) 0.38045(8) 0.31173(7)
W2 W 0.60696(11) 0.67525(10) 0.29220(8)
W3 W 0.64915(9) 0.20331(8) 0.51591(8)
W4 W 0.18592(10) 0.63003(9) 0.46214(10)
W5 W 0.44239(13) 0.50459(9) 0.27799(8)
W6 W 0.32922(12) 0.33406(10) 0.48684(10)
Ag1 Ag 0.8972(2) 0.99837(18) -0.03650(17)
Si1 Si 0.5000 0.5000 0.5000
O3 O 0.392(2) 0.498(2) 0.445(2)
O4 O 0.193(3) 0.478(2) 0.490(2)
O5 O 0.770(2) 0.2417(19) 0.5512(15)
O6 O 0.457(2) 0.780(2) 0.3557(19)
O7 O 0.499(2) 0.229(2) 0.4776(19)
O8 O 0.505(2) 0.6291(14) 0.246(2)
O9 O 0.739(3) 0.5363(16) 0.272(2)
O10 O 0.627(2) 0.404(2) 0.471(2)
O11 O 0.618(2) 0.4043(16) 0.2614(17)
O12 O 0.0365(18) 0.692(2) 0.4453(17)
O13 O 0.856(2) 0.3726(18) 0.3983(15)
O14 O 0.720(3) 0.0630(16) 0.5250(17)
O15 O 0.2514(16) 0.2505(15) 0.4819(13)
O16 O 0.653(2) 0.7639(17) 0.1973(17)
O17 O 0.696(2) 0.688(2) 0.3767(19)
O18 O 0.517(3) 0.624(2) 0.456(2)
O19 O 0.279(3) 0.606(2) 0.336(2)
O20 O 0.567(2) 0.508(2) 0.390(2)
O21 O 0.394(2) 0.3828(17) 0.3531(17)
O22 O 0.7247(19) 0.2481(19) 0.3883(14)
O23 O 0.884(2) 0.325(2) 0.221(2)
O24 O 0.423(2) 0.5031(16) 0.1722(16)
Ag2 Ag 0.6384(3) 0.9569(3) 0.0629(2)
Ag3 Ag 0.4617(4) 0.8656(3) 0.0636(3)
N1 N 0.736(2) 1.1663(18) 0.0084(17)
N2 N 0.607(2) 1.0416(16) 0.1771(17)
N3 N 0.680(3) 1.3062(19) 0.091(2)
H1 H 0.6525 1.3415 0.1398
N4 N 0.580(3) 1.159(2) 0.269(2)
H2 H 0.5868 1.2142 0.2873
N5 N 1.052(2) 1.0449(18) -0.1676(17)
N6 N 1.071(2) 1.1791(18) -0.0352(16)
N7 N 1.141(2) 1.152(2) -0.2877(17)
H3 H 1.1678 1.2074 -0.3205
N8 N 1.045(2) 1.3249(18) -0.1536(18)
H4 H 1.0346 1.3656 -0.2082
C1 C 1.068(2) 1.213(2) -0.128(2)
C2 C 0.624(2) 1.136(2) 0.178(2)
C3 C 1.041(3) 1.360(2) -0.070(2)
H5 H 1.0321 1.4329 -0.0647
C4 C 0.542(3) 1.011(2) 0.273(2)
H6 H 0.5158 0.9471 0.2933
C5 C 0.683(2) 1.199(2) 0.092(2)
C6 C 0.523(3) 1.083(2) 0.330(2)
H7 H 0.4809 1.0827 0.3953
C7 C 0.761(3) 1.260(2) -0.054(3)
H8 H 0.7946 1.2646 -0.1204
C8 C 1.084(2) 1.138(2) -0.194(2)
C9 C 1.053(3) 1.278(3) -0.006(2)
H9 H 1.0495 1.2826 0.0568
C10 C 1.094(3) 0.996(3) -0.249(2)
H10 H 1.0857 0.9290 -0.2521
C11 C 1.148(3) 1.059(3) -0.321(3)
H11 H 1.1854 1.0431 -0.3841
C12 C 0.729(3) 1.346(3) -0.001(2)
H12 H 0.7386 1.4165 -0.0237
N9 N 0.614(3) 0.771(3) -0.0213(18)
C13 C 0.686(3) 0.825(2) -0.116(2)
N10 N 0.728(3) 0.742(3) -0.1728(19)
H13 H 0.7745 0.7437 -0.2315
C14 C 0.684(4) 0.654(3) -0.119(3)
H14 H 0.6990 0.5873 -0.1395
C15 C 0.615(4) 0.684(3) -0.029(3)
H15 H 0.5730 0.6395 0.0200
N11 N 0.691(2) 1.054(2) -0.1600(14)
C16 C 0.718(3) 0.9305(19) -0.1714(19)
N12 N 0.804(3) 0.9248(18) -0.2624(19)
H16 H 0.8413 0.8662 -0.2914
C17 C 0.819(3) 1.030(2) -0.2981(17)
H17 H 0.8707 1.0501 -0.3576
C18 C 0.742(3) 1.1013(19) -0.2292(18)
H18 H 0.7336 1.1774 -0.2373
W1A W 0.23705(9) 0.61955(8) 0.68827(7)
W2A W 0.39304(11) 0.32475(10) 0.70780(8)
W3A W 0.35085(9) 0.79669(8) 0.48409(8)
W4A W 0.81408(10) 0.36997(9) 0.53786(10)
W5A W 0.55761(13) 0.49541(9) 0.72201(8)
W6A W 0.67078(12) 0.66594(10) 0.51316(10)
Ag1A Ag 0.1028(2) 0.00163(18) 1.03650(17)
Ag1A_2 Ag 1.1028(2) 1.00163(18) 0.03650(17)
Ag1_2 Ag -0.1028(2) -0.00163(18) 0.96350(17)
O3A O 0.608(2) 0.502(2) 0.555(2)
O4A O 0.807(3) 0.522(2) 0.510(2)
O5A O 0.230(2) 0.7583(19) 0.4488(15)
O6A O 0.543(2) 0.220(2) 0.6443(19)
O7A O 0.501(2) 0.771(2) 0.5224(19)
O8A O 0.495(2) 0.3709(14) 0.754(2)
O9A O 0.261(3) 0.4637(16) 0.728(2)
O10A O 0.373(2) 0.596(2) 0.529(2)
O11A O 0.382(2) 0.5957(16) 0.7386(17)
O12A O 0.9635(18) 0.308(2) 0.5547(17)
O13A O 0.144(2) 0.6274(18) 0.6017(15)
O14A O 0.280(3) 0.9370(16) 0.4750(17)
O15A O 0.7486(16) 0.7495(15) 0.5181(13)
O16A O 0.347(2) 0.2361(17) 0.8027(17)
O17A O 0.304(2) 0.312(2) 0.6233(19)
O18A O 0.483(3) 0.376(2) 0.544(2)
O19A O 0.721(3) 0.394(2) 0.664(2)
O20A O 0.433(2) 0.492(2) 0.610(2)
O21A O 0.606(2) 0.6172(17) 0.6469(17)
O22A O 0.2753(19) 0.7519(19) 0.6117(14)
O23A O 0.116(2) 0.675(2) 0.779(2)
O24A O 0.577(2) 0.4969(16) 0.8278(16)
Ag2A Ag 0.3616(3) 0.0431(3) 0.9371(2)
Ag2A_2 Ag 0.3616(3) 1.0431(3) -0.0629(2)
Ag2_2 Ag 0.6384(3) -0.0431(3) 1.0629(2)
Ag3A Ag 0.5383(4) 0.1344(3) 0.9364(3)
Ag3A_2 Ag 0.5383(4) 1.1344(3) -0.0636(3)
Ag3_2 Ag 0.4617(4) -0.1344(3) 1.0636(3)
N1A N 0.264(2) -0.1663(18) 0.9916(17)
N2A N 0.393(2) -0.0416(16) 0.8229(17)
N3A N 0.320(3) -0.3062(19) 0.909(2)
H1A H 0.3475 -0.3415 0.8602
N4A N 0.420(3) -0.159(2) 0.731(2)
H2A H 0.4132 -0.2142 0.7127
N5A N 0.948(2) 0.9551(18) 0.1676(17)
N5A_2 N -0.052(2) -0.0449(18) 1.1676(17)
N6A N 0.929(2) 0.8209(18) 0.0352(16)
N6_2 N 0.071(2) 0.1791(18) 0.9648(16)
N7A N 0.859(2) 0.848(2) 0.2877(17)
H3A H 0.8322 0.7926 0.3205
N8A N 0.955(2) 0.6751(18) 0.1536(18)
H4A H 0.9654 0.6344 0.2082
C1A C 0.932(2) 0.787(2) 0.128(2)
C2A C 0.376(2) -0.136(2) 0.822(2)
C3A C 0.959(3) 0.640(2) 0.070(2)
H5A H 0.9679 0.5671 0.0647
C4A C 0.458(3) -0.011(2) 0.727(2)
H6A H 0.4842 0.0529 0.7067
C5A C 0.317(2) -0.199(2) 0.908(2)
C6A C 0.477(3) -0.083(2) 0.670(2)
H7A H 0.5191 -0.0827 0.6047
C7A C 0.239(3) -0.260(2) 1.054(3)
H8A H 0.2054 -0.2646 1.1204
C8A C 0.916(2) 0.862(2) 0.194(2)
C9A C 0.947(3) 0.722(3) 0.006(2)
H9A H 0.9505 0.7174 -0.0568
C10A C 0.906(3) 1.004(3) 0.249(2)
H10A H 0.9143 1.0710 0.2521
C11A C 0.852(3) 0.941(3) 0.321(3)
H11A H 0.8146 0.9569 0.3841
C12A C 0.271(3) -0.346(3) 1.001(2)
H12A H 0.2614 -0.4165 1.0237
N9A N 0.386(3) 1.229(3) 0.0213(18)
N9A_2 N 0.386(3) 0.229(3) 1.0213(18)
C13A C 0.314(3) 1.175(2) 0.116(2)
N10A N 0.272(3) 1.258(3) 0.1728(19)
H13A H 0.2255 1.2563 0.2315
C14A C 0.316(4) 1.346(3) 0.119(3)
H14A H 0.3010 1.4127 0.1395
C15A C 0.385(4) 1.316(3) 0.029(3)
H15A H 0.4270 1.3605 -0.0200
N11A N 0.309(2) 0.946(2) 0.1600(14)
N11_2 N 0.691(2) 0.054(2) 0.8400(14)
C16A C 0.282(3) 1.0695(19) 0.1714(19)
N12A N 0.196(3) 1.0752(18) 0.2624(19)
H16A H 0.1587 1.1338 0.2914
C17A C 0.181(3) 0.970(2) 0.2981(17)
H17A H 0.1293 0.9499 0.3576
C18A C 0.258(3) 0.8987(19) 0.2292(18)
H18A H 0.2664 0.8226 0.2373
O1 O -0.012(2) 0.465(2) 0.6813(18)
loop_
_geom_bond_atom_site_label_1
_geom_bond_atom_site_label_2
_geom_bond_site_symmetry_1
_geom_bond_site_symmetry_2
W1 O9 1_555 1_555
W2 O6 1_555 1_555
W3 O5 1_555 1_555
W4 O3 1_555 1_555
W5 O3 1_555 1_555
W6 O3 1_555 1_555
Ag1 Ag2 1_555 1_555
Si1 O3 1_555 1_555
O3 O20 1_555 1_555
O4 W4 1_555 1_555
O5 W4A 1_555 1_555
O6 W3A 1_555 1_555
O7 W3 1_555 1_555
O8 W2 1_555 1_555
O9 W2 1_555 1_555
O10 W1 1_555 1_555
O11 W1 1_555 1_555
O12 W4 1_555 1_555
O13 W1 1_555 1_555
O14 W3 1_555 1_555
O15 W6 1_555 1_555
O16 W2 1_555 1_555
O17 W2 1_555 1_555
O18 W2 1_555 1_555
O19 W4 1_555 1_555
O20 W1 1_555 1_555
O21 W5 1_555 1_555
O22 W1 1_555 1_555
O23 W1 1_555 1_555
O24 W5 1_555 1_555
Ag2 O16 1_555 1_555
Ag3 Ag2 1_555 1_555
N1 Ag1 1_555 1_555
N2 Ag2 1_555 1_555
N3 H1 1_555 1_555
N4 H2 1_555 1_555
N5 Ag1 1_555 1_555
N6 C1 1_555 1_555
N7 H3 1_555 1_555
N8 H4 1_555 1_555
C1 N8 1_555 1_555
C2 N2 1_555 1_555
C3 N8 1_555 1_555
H5 C3 1_555 1_555
C4 N2 1_555 1_555
H6 C4 1_555 1_555
C5 N1 1_555 1_555
C6 N4 1_555 1_555
H7 C6 1_555 1_555
C7 N1 1_555 1_555
H8 C7 1_555 1_555
C8 N5 1_555 1_555
C9 N6 1_555 1_555
H9 C9 1_555 1_555
C10 N5 1_555 1_555
H10 C10 1_555 1_555
C11 N7 1_555 1_555
H11 C11 1_555 1_555
C12 N3 1_555 1_555
H12 C12 1_555 1_555
N9 Ag3 1_555 1_555
C13 N9 1_555 1_555
N10 C13 1_555 1_555
H13 N10 1_555 1_555
C14 N10 1_555 1_555
H14 C14 1_555 1_555
C15 N9 1_555 1_555
H15 C15 1_555 1_555
N11 C16 1_555 1_555
C16 C13 1_555 1_555
N12 C16 1_555 1_555
H16 N12 1_555 1_555
C17 N12 1_555 1_555
H17 C17 1_555 1_555
C18 N11 1_555 1_555
H18 C18 1_555 1_555
W1A O9A 1_555 1_555
W2A O6A 1_555 1_555
W3A O18 1_555 1_555
W4A O10 1_555 1_555
W5A O3A 1_555 1_555
W6A O17 1_555 1_555
Ag1A Ag1_2 1_555 1_555
Ag1A_2 Ag1 1_555 1_555
O3A Si1 1_555 1_555
O4A W4A 1_555 1_555
O5A W4 1_555 1_555
O6A W3 1_555 1_555
O7A W3A 1_555 1_555
O8A W2A 1_555 1_555
O9A W2A 1_555 1_555
O10A W4 1_555 1_555
O11A W1A 1_555 1_555
O12A W4A 1_555 1_555
O13A W4 1_555 1_555
O14A W3A 1_555 1_555
O15A W6A 1_555 1_555
O16A W2A 1_555 1_555
O17A W6 1_555 1_555
O18A W3 1_555 1_555
O19A W4A 1_555 1_555
O20A Si1 1_555 1_555
O21A W5A 1_555 1_555
O22A W1A 1_555 1_555
O23A W1A 1_555 1_555
O24A W5A 1_555 1_555
Ag2A Ag1A 1_555 1_555
Ag2A_2 Ag3 1_555 1_555
Ag2_2 Ag3A 1_555 1_555
Ag3A Ag2A 1_555 1_555
Ag3A_2 Ag2 1_555 1_555
Ag3_2 Ag2A 1_555 1_555
N1A Ag1A 1_555 1_555
N2A Ag2A 1_555 1_555
N3A H1A 1_555 1_555
N4A H2A 1_555 1_555
N5A Ag1A_2 1_555 1_555
N5A_2 Ag1A 1_555 1_555
N6A Ag1 1_555 1_555
N6_2 Ag1A 1_555 1_555
N7A H3A 1_555 1_555
N8A H4A 1_555 1_555
C1A N6A 1_555 1_555
C2A N2A 1_555 1_555
C3A N8A 1_555 1_555
H5A C3A 1_555 1_555
C4A N2A 1_555 1_555
H6A C4A 1_555 1_555
C5A N1A 1_555 1_555
C6A N4A 1_555 1_555
H7A C6A 1_555 1_555
C7A N1A 1_555 1_555
H8A C7A 1_555 1_555
C8A N5A 1_555 1_555
C9A N6A 1_555 1_555
H9A C9A 1_555 1_555
C10A N5A 1_555 1_555
H10A C10A 1_555 1_555
C11A N7A 1_555 1_555
H11A C11A 1_555 1_555
C12A N3A 1_555 1_555
H12A C12A 1_555 1_555
N9A Ag3A_2 1_555 1_555
N9A_2 Ag3A 1_555 1_555
C13A N9A 1_555 1_555
N10A C13A 1_555 1_555
H13A N10A 1_555 1_555
C14A N10A 1_555 1_555
H14A C14A 1_555 1_555
C15A N9A 1_555 1_555
H15A C15A 1_555 1_555
N11A Ag3 1_555 1_555
N11_2 Ag3A 1_555 1_555
C16A C13A 1_555 1_555
N12A C16A 1_555 1_555
H16A N12A 1_555 1_555
C17A N12A 1_555 1_555
H17A C17A 1_555 1_555
C18A N11A 1_555 1_555
H18A C18A 1_555 1_555
W2 O20 1_555 1_555
W3 O10 1_555 1_555
W3 O22 1_555 1_555
W5 O8 1_555 1_555
W5 O11 1_555 1_555
W5 O19 1_555 1_555
W5 O20 1_555 1_555
W6 O4 1_555 1_555
W6 O7 1_555 1_555
W6 O21 1_555 1_555
W6 O18A 1_555 1_555
Si1 O10 1_555 1_555
Si1 O18 1_555 1_555
Si1 O20 1_555 1_555
Si1 O10A 1_555 1_555
Si1 O18A 1_555 1_555
O3 O10A 1_555 1_555
O10 O20 1_555 1_555
O10 O3A 1_555 1_555
O10 O18A 1_555 1_555
O13 W4A 1_555 1_555
O18 O20 1_555 1_555
O18 W6A 1_555 1_555
O18 O10A 1_555 1_555
N3 C5 1_555 1_555
N4 C2 1_555 1_555
N6 Ag1A_2 1_555 1_555
N7 C8 1_555 1_555
C1 C8 1_555 1_555
C2 C5 1_555 1_555
C3 C9 1_555 1_555
C4 C6 1_555 1_555
C7 C12 1_555 1_555
C10 C11 1_555 1_555
C14 C15 1_555 1_555
N11 Ag3A_2 1_555 1_555
C17 C18 1_555 1_555
W1A O10A 1_555 1_555
W1A O13A 1_555 1_555
W1A O20A 1_555 1_555
W2A O17A 1_555 1_555
W2A O18A 1_555 1_555
W2A O20A 1_555 1_555
W3A O5A 1_555 1_555
W3A O10A 1_555 1_555
W3A O22A 1_555 1_555
W4A O3A 1_555 1_555
W5A O8A 1_555 1_555
W5A O11A 1_555 1_555
W5A O19A 1_555 1_555
W5A O20A 1_555 1_555
W6A O3A 1_555 1_555
W6A O4A 1_555 1_555
W6A O7A 1_555 1_555
W6A O21A 1_555 1_555
O3A O20A 1_555 1_555
O10A O20A 1_555 1_555
O16A Ag2A 1_555 1_555
O18A O20A 1_555 1_555
Ag2A_2 Ag3A_2 1_555 1_555
Ag2_2 Ag3_2 1_555 1_555
N3A C5A 1_555 1_555
N4A C2A 1_555 1_555
N7A C8A 1_555 1_555
N8A C1A 1_555 1_555
C1A C8A 1_555 1_555
C2A C5A 1_555 1_555
C3A C9A 1_555 1_555
C4A C6A 1_555 1_555
C7A C12A 1_555 1_555
C10A C11A 1_555 1_555
C14A C15A 1_555 1_555
N11A C16A 1_555 1_555
C17A C18A 1_555 1_555

#END
