
#######################################################################
#
#                 Cambridge Crystallographic Data Centre
#                                CCDC 
#
#######################################################################
#
# If this CIF has been generated from an entry in the Cambridge 
# Structural Database, then it will include bibliographic, chemical, 
# crystal, experimental, refinement or atomic coordinate data resulting 
# from the CCDC's data processing and validation procedures.
#
#######################################################################

data_IQOXOC
_symmetry_cell_setting           triclinic
_symmetry_space_group_name_H-M   'P -1'
_symmetry_Int_Tables_number      2
_space_group_name_Hall           '-P 1'
loop_
_symmetry_equiv_pos_site_id
_symmetry_equiv_pos_as_xyz
1 x,y,z
2 -x,-y,-z
_cell_length_a                   11.5322(3)
_cell_length_b                   12.9295(6)
_cell_length_c                   14.7825(6)
_cell_angle_alpha                75.286(4)
_cell_angle_beta                 71.406(3)
_cell_angle_gamma                67.390(3)
_cell_volume                     1906.66
loop_
_atom_site_label
_atom_site_type_symbol
_atom_site_fract_x
_atom_site_fract_y
_atom_site_fract_z
O2 O 0.629(2) -0.262(3) -0.1462(18)
W1 W 1.14956(9) -0.29854(8) -0.98328(7)
W2 W 0.73578(9) 0.12034(8) -0.81059(6)
W3 W 0.89138(11) -0.17653(10) -0.79089(7)
W4 W 0.82847(11) -0.16790(10) -1.01415(8)
W5 W 0.94168(12) 0.00591(10) -1.22404(8)
W6 W 1.31621(10) -0.13022(10) -0.96156(9)
Ag1 Ag 0.6036(2) -0.49894(18) -0.46383(15)
Ag2 Ag 0.8617(2) -0.4579(3) -0.56287(19)
P1 P 1.0000 0.0000 -1.0000
N1 N 0.449(2) -0.546(2) -0.3322(14)
N2 N 0.8948(18) -0.5410(16) -0.6800(14)
N3 N 0.816(2) -0.804(2) -0.5939(17)
H1 H 0.8415 -0.8383 -0.6430
N4 N 0.921(3) -0.661(2) -0.7711(16)
H2 H 0.9166 -0.7181 -0.7885
N5 N 0.764(2) -0.6685(18) -0.5084(15)
N6 N 0.427(2) -0.6796(17) -0.4641(14)
N7 N 0.454(2) -0.8245(19) -0.3489(16)
H3 H 0.4632 -0.8650 -0.2941
N8 N 0.356(2) -0.649(2) -0.2127(15)
H4 H 0.3267 -0.7023 -0.1804
O3 O 0.985(2) -0.119(2) -0.9596(18)
O4 O 0.8833(19) 0.0940(17) -0.7620(15)
O5 O 0.696(3) -0.024(2) -1.0103(18)
O6 O 0.8032(18) -0.184(2) -0.8791(14)
O7 O 0.781(3) 0.105(2) -1.1640(19)
O8 O 0.898(2) -0.001(2) -1.0519(18)
O9 O 0.995(2) -0.1282(16) -0.7469(17)
O10 O 0.762(2) -0.0364(17) -0.7733(15)
O11 O 0.893(2) -0.114(2) -1.1459(17)
O12 O 1.267(2) -0.2561(18) -0.9476(13)
O13 O 0.6461(19) 0.1279(16) -0.8992(13)
O14 O 0.8454(19) -0.2660(16) -0.6930(14)
O15 O 0.9217(19) 0.0047(16) -1.3293(14)
O16 O 0.7529(16) -0.2531(15) -1.0212(12)
O17 O 1.4667(18) -0.190(2) -0.9450(13)
O18 O 0.998(2) -0.272(2) -1.0218(16)
O19 O 0.613(2) 0.178(2) -0.7215(16)
O20 O 1.2263(18) -0.2523(17) -1.1127(13)
O21 O 1.0412(18) -0.279(2) -0.8565(14)
O22 O 1.215(2) -0.4395(17) -0.9715(14)
O23 O 0.938(2) -0.009(2) -0.8962(18)
O24 O 1.122(2) -0.090(2) -1.0284(17)
C1 C 0.961(2) -0.510(2) -0.7744(18)
H5 H 0.9907 -0.4488 -0.7952
C2 C 0.416(2) -0.638(2) -0.3076(16)
C3 C 0.769(3) -0.845(3) -0.500(2)
H6 H 0.7604 -0.9158 -0.4762
C4 C 0.446(3) -0.778(3) -0.496(2)
H7 H 0.4493 -0.7835 -0.5588
C5 C 0.975(3) -0.584(2) -0.8302(18)
H8 H 1.0138 -0.5820 -0.8960
C6 C 0.351(3) -0.559(3) -0.176(2)
H9 H 0.3135 -0.5433 -0.1133
C7 C 0.458(3) -0.860(2) -0.428(2)
H10 H 0.4678 -0.9339 -0.4315
C8 C 0.739(3) -0.763(2) -0.450(2)
H11 H 0.7042 -0.7680 -0.3837
C9 C 0.816(2) -0.698(2) -0.595(2)
C10 C 0.411(3) -0.500(3) -0.251(2)
H12 H 0.4251 -0.4347 -0.2473
C11 C 0.874(2) -0.634(2) -0.6801(18)
C12 C 0.431(2) -0.7130(19) -0.3730(17)
Ag3 Ag 1.0374(4) -0.3648(3) -0.5621(3)
N9 N 1.191(2) -0.443(2) -0.6596(17)
C13 C 1.222(3) -0.5663(19) -0.6721(16)
N10 N 1.303(3) -0.573(2) -0.7614(16)
H13 H 1.3387 -0.6323 -0.7896
C14 C 1.317(3) -0.471(2) -0.7986(17)
H14 H 1.3675 -0.4517 -0.8592
C15 C 1.246(3) -0.4004(18) -0.732(2)
H15 H 1.2403 -0.3248 -0.7430
N11 N 1.120(3) -0.727(3) -0.532(2)
C16 C 1.124(5) -0.830(3) -0.544(3)
H16 H 1.0706 -0.8693 -0.5018
C17 C 1.217(4) -0.870(2) -0.625(3)
H17 H 1.2585 -0.9413 -0.6447
N12 N 1.224(3) -0.763(3) -0.6653(19)
H18 H 1.2551 -0.7513 -0.7268
C18 C 1.187(3) -0.673(3) -0.617(2)
W1A W 0.85044(9) 0.29854(8) -1.01672(7)
W2A W 1.26422(9) -0.12034(8) -1.18941(6)
W3A W 1.10862(11) 0.17653(10) -1.20911(7)
W4A W 1.17153(11) 0.16790(10) -0.98585(8)
W5A W 1.05832(12) -0.00591(10) -0.77596(8)
W6A W 0.68379(10) 0.13022(10) -1.03844(9)
Ag1A Ag 1.3964(2) 0.49894(18) -1.53617(15)
Ag1A_2 Ag 0.3964(2) -0.50106(18) -0.53617(15)
Ag1_2 Ag 1.6036(2) 0.50106(18) -1.46383(15)
Ag2A Ag 1.1383(2) 0.4579(3) -1.43713(19)
Ag2A_2 Ag 1.1383(2) -0.5421(3) -0.43713(19)
Ag2_2 Ag 0.8617(2) 0.5421(3) -1.56287(19)
N1A N 0.551(2) -0.454(2) -0.6678(14)
N1A_2 N 1.551(2) 0.546(2) -1.6678(14)
N2A N 1.1052(18) 0.5410(16) -1.3200(14)
N3A N 1.184(2) 0.804(2) -1.4061(17)
H1A H 1.1585 0.8383 -1.3570
N4A N 1.079(3) 0.661(2) -1.2289(16)
H2A H 1.0834 0.7181 -1.2115
N5A N 1.236(2) 0.6685(18) -1.4916(15)
N6A N 0.573(2) -0.3204(17) -0.5359(14)
N6_2 N 1.427(2) 0.3204(17) -1.4641(14)
N7A N 0.546(2) -0.1755(19) -0.6511(16)
H3A H 0.5368 -0.1350 -0.7059
N8A N 0.644(2) -0.351(2) -0.7873(15)
H4A H 0.6733 -0.2977 -0.8196
O3A O 1.015(2) 0.119(2) -1.0404(18)
O4A O 1.1167(19) -0.0940(17) -1.2380(15)
O5A O 1.304(3) 0.024(2) -0.9897(18)
O6A O 1.1968(18) 0.184(2) -1.1209(14)
O7A O 1.219(3) -0.105(2) -0.8360(19)
O8A O 1.102(2) 0.001(2) -0.9481(18)
O9A O 1.005(2) 0.1282(16) -1.2531(17)
O10A O 1.238(2) 0.0364(17) -1.2267(15)
O11A O 1.107(2) 0.114(2) -0.8541(17)
O12A O 0.733(2) 0.2561(18) -1.0524(13)
O13A O 1.3539(19) -0.1279(16) -1.1008(13)
O14A O 1.1546(19) 0.2660(16) -1.3070(14)
O15A O 1.0783(19) -0.0047(16) -0.6707(14)
O16A O 1.2471(16) 0.2531(15) -0.9788(12)
O17A O 0.5333(18) 0.190(2) -1.0550(13)
O18A O 1.002(2) 0.272(2) -0.9782(16)
O19A O 1.387(2) -0.178(2) -1.2785(16)
O20A O 0.7737(18) 0.2523(17) -0.8873(13)
O21A O 0.9588(18) 0.279(2) -1.1435(14)
O22A O 0.785(2) 0.4395(17) -1.0285(14)
O23A O 1.062(2) 0.009(2) -1.1038(18)
O24A O 0.878(2) 0.090(2) -0.9716(17)
C1A C 1.039(2) 0.510(2) -1.2256(18)
H5A H 1.0093 0.4488 -1.2048
C2A C 0.584(2) -0.362(2) -0.6924(16)
C3A C 1.231(3) 0.845(3) -1.500(2)
H6A H 1.2396 0.9158 -1.5238
C4A C 0.554(3) -0.222(3) -0.504(2)
H7A H 0.5507 -0.2165 -0.4412
C5A C 1.025(3) 0.584(2) -1.1698(18)
H8A H 0.9862 0.5820 -1.1040
C6A C 0.649(3) -0.441(3) -0.824(2)
H9A H 0.6865 -0.4567 -0.8867
C7A C 0.542(3) -0.140(2) -0.572(2)
H10A H 0.5322 -0.0661 -0.5685
C8A C 1.261(3) 0.763(2) -1.550(2)
H11A H 1.2958 0.7680 -1.6163
C9A C 1.184(2) 0.698(2) -1.405(2)
C10A C 0.589(3) -0.500(3) -0.749(2)
H12A H 0.5749 -0.5653 -0.7527
C11A C 1.126(2) 0.634(2) -1.3199(18)
C12A C 0.569(2) -0.2870(19) -0.6270(17)
Ag3A Ag 0.9626(4) 0.3648(3) -1.4379(3)
Ag3A_2 Ag 0.9626(4) -0.6352(3) -0.4379(3)
Ag3_2 Ag 1.0374(4) 0.6352(3) -1.5621(3)
N9A N 0.809(2) -0.557(2) -0.3404(17)
N9A_2 N 0.809(2) 0.443(2) -1.3404(17)
C13A C 0.778(3) -0.4337(19) -0.3279(16)
N10A N 0.697(3) -0.427(2) -0.2386(16)
H13A H 0.6613 -0.3677 -0.2104
C14A C 0.683(3) -0.529(2) -0.2014(17)
H14A H 0.6325 -0.5483 -0.1408
C15A C 0.754(3) -0.5996(18) -0.268(2)
H15A H 0.7597 -0.6752 -0.2570
N11A N 0.880(3) -0.273(3) -0.468(2)
N11_2 N 1.120(3) 0.273(3) -1.532(2)
C16A C 0.876(5) -0.170(3) -0.456(3)
H16A H 0.9294 -0.1307 -0.4982
C17A C 0.783(4) -0.130(2) -0.375(3)
H17A H 0.7415 -0.0587 -0.3553
N12A N 0.776(3) -0.237(3) -0.3347(19)
H18A H 0.7449 -0.2487 -0.2732
C18A C 0.813(3) -0.327(3) -0.383(2)
O1 O 1.510(2) -0.9639(19) -0.1821(16)
loop_
_geom_bond_atom_site_label_1
_geom_bond_atom_site_label_2
_geom_bond_site_symmetry_1
_geom_bond_site_symmetry_2
W1 O3 1_555 1_555
W2 O4 1_555 1_555
W3 O3 1_555 1_555
W4 O3 1_555 1_555
W5 O7 1_555 1_555
W6 O12 1_555 1_555
Ag1 Ag2 1_555 1_555
Ag2 N2 1_555 1_555
P1 O3 1_555 1_555
N1 Ag1 1_555 1_555
N2 C1 1_555 1_555
N3 H1 1_555 1_555
N4 H2 1_555 1_555
N5 Ag1 1_555 1_555
N6 C4 1_555 1_555
N7 H3 1_555 1_555
N8 H4 1_555 1_555
O3 O23 1_555 1_555
O4 W5A 1_555 1_555
O5 W4 1_555 1_555
O6 W3 1_555 1_555
O7 W6A 1_555 1_555
O8 W4 1_555 1_555
O9 W3 1_555 1_555
O10 W2 1_555 1_555
O11 W4 1_555 1_555
O12 W1 1_555 1_555
O13 W2 1_555 1_555
O14 W3 1_555 1_555
O15 W5 1_555 1_555
O16 W4 1_555 1_555
O17 W6 1_555 1_555
O18 W1 1_555 1_555
O19 W2 1_555 1_555
O20 W1 1_555 1_555
O21 W1 1_555 1_555
O22 W1 1_555 1_555
O23 W2 1_555 1_555
O24 W1 1_555 1_555
C1 H5 1_555 1_555
C2 N1 1_555 1_555
C3 N3 1_555 1_555
H6 C3 1_555 1_555
C4 H7 1_555 1_555
C5 N4 1_555 1_555
H8 C5 1_555 1_555
C6 N8 1_555 1_555
H9 C6 1_555 1_555
C7 N7 1_555 1_555
H10 C7 1_555 1_555
C8 N5 1_555 1_555
H11 C8 1_555 1_555
C9 N3 1_555 1_555
C10 N1 1_555 1_555
H12 C10 1_555 1_555
C11 N2 1_555 1_555
C12 N6 1_555 1_555
Ag3 Ag2 1_555 1_555
N9 Ag3 1_555 1_555
C13 N9 1_555 1_555
N10 C13 1_555 1_555
H13 N10 1_555 1_555
C14 N10 1_555 1_555
H14 C14 1_555 1_555
C15 N9 1_555 1_555
H15 C15 1_555 1_555
N11 C16 1_555 1_555
C16 H16 1_555 1_555
C17 C16 1_555 1_555
H17 C17 1_555 1_555
N12 C17 1_555 1_555
H18 N12 1_555 1_555
C18 C13 1_555 1_555
W1A O3A 1_555 1_555
W2A O20 1_555 1_555
W3A O3A 1_555 1_555
W4A O3A 1_555 1_555
W5A O9 1_555 1_555
W6A O5 1_555 1_555
Ag1A Ag1_2 1_555 1_555
Ag1A_2 Ag1 1_555 1_555
Ag2A Ag1A 1_555 1_555
Ag2A_2 Ag3 1_555 1_555
Ag2_2 Ag3A 1_555 1_555
N1A Ag1A_2 1_555 1_555
N1A_2 Ag1A 1_555 1_555
N2A Ag2A 1_555 1_555
N3A H1A 1_555 1_555
N4A H2A 1_555 1_555
N5A Ag1A 1_555 1_555
N6A Ag1 1_555 1_555
N6_2 Ag1A 1_555 1_555
N7A H3A 1_555 1_555
N8A H4A 1_555 1_555
O3A P1 1_555 1_555
O4A W5 1_555 1_555
O5A W6 1_555 1_555
O6A W3A 1_555 1_555
O7A W6 1_555 1_555
O8A W6 1_555 1_555
O9A W5 1_555 1_555
O10A W2A 1_555 1_555
O11A W4A 1_555 1_555
O12A W1A 1_555 1_555
O13A W6 1_555 1_555
O14A W3A 1_555 1_555
O15A W5A 1_555 1_555
O16A W4A 1_555 1_555
O17A W6A 1_555 1_555
O18A W1A 1_555 1_555
O19A W2A 1_555 1_555
O20A W2 1_555 1_555
O21A W1A 1_555 1_555
O22A W1A 1_555 1_555
O23A P1 1_555 1_555
O24A W2 1_555 1_555
C1A N2A 1_555 1_555
H5A C1A 1_555 1_555
C2A N1A 1_555 1_555
C3A N3A 1_555 1_555
H6A C3A 1_555 1_555
C4A N6A 1_555 1_555
H7A C4A 1_555 1_555
C5A N4A 1_555 1_555
H8A C5A 1_555 1_555
C6A N8A 1_555 1_555
H9A C6A 1_555 1_555
C7A N7A 1_555 1_555
H10A C7A 1_555 1_555
C8A N5A 1_555 1_555
H11A C8A 1_555 1_555
C9A N3A 1_555 1_555
C10A N1A 1_555 1_555
H12A C10A 1_555 1_555
C11A N2A 1_555 1_555
C12A N6A 1_555 1_555
Ag3A Ag2A 1_555 1_555
Ag3A_2 Ag2 1_555 1_555
Ag3_2 Ag2A 1_555 1_555
N9A Ag3A_2 1_555 1_555
N9A_2 Ag3A 1_555 1_555
C13A N9A 1_555 1_555
N10A C13A 1_555 1_555
H13A N10A 1_555 1_555
C14A N10A 1_555 1_555
H14A C14A 1_555 1_555
C15A N9A 1_555 1_555
H15A C15A 1_555 1_555
N11A Ag3 1_555 1_555
N11_2 Ag3A 1_555 1_555
C16A N11A 1_555 1_555
H16A C16A 1_555 1_555
C17A C16A 1_555 1_555
H17A C17A 1_555 1_555
N12A C17A 1_555 1_555
H18A N12A 1_555 1_555
C18A C13A 1_555 1_555
W3 O10 1_555 1_555
W3 O21 1_555 1_555
W3 O23 1_555 1_555
W4 O6 1_555 1_555
W4 O18 1_555 1_555
W5 O8 1_555 1_555
W5 O11 1_555 1_555
Ag2 O14 1_555 1_555
P1 O8 1_555 1_555
P1 O23 1_555 1_555
P1 O24 1_555 1_555
P1 O8A 1_555 1_555
P1 O24A 1_555 1_555
N4 C11 1_555 1_555
N5 C9 1_555 1_555
N6 Ag1A_2 1_555 1_555
N7 C12 1_555 1_555
N8 C2 1_555 1_555
O3 O24 1_555 1_555
O8 W6A 1_555 1_555
O8 O24A 1_555 1_555
O13 W6A 1_555 1_555
O23 O24A 1_555 1_555
O24 W2A 1_555 1_555
O24 O8A 1_555 1_555
O24 O23A 1_555 1_555
C1 C5 1_555 1_555
C2 C12 1_555 1_555
C3 C8 1_555 1_555
C4 C7 1_555 1_555
C6 C10 1_555 1_555
C9 C11 1_555 1_555
C14 C15 1_555 1_555
N11 C18 1_555 1_555
N11 Ag3A_2 1_555 1_555
N12 C18 1_555 1_555
W1A O20A 1_555 1_555
W1A O24A 1_555 1_555
W2A O4A 1_555 1_555
W2A O13A 1_555 1_555
W2A O23A 1_555 1_555
W3A O9A 1_555 1_555
W3A O10A 1_555 1_555
W3A O21A 1_555 1_555
W3A O23A 1_555 1_555
W4A O5A 1_555 1_555
W4A O6A 1_555 1_555
W4A O8A 1_555 1_555
W4A O18A 1_555 1_555
W5A O7A 1_555 1_555
W5A O8A 1_555 1_555
W5A O11A 1_555 1_555
W6A O12A 1_555 1_555
Ag2A O14A 1_555 1_555
Ag2A_2 Ag3A_2 1_555 1_555
Ag2_2 Ag3_2 1_555 1_555
N4A C11A 1_555 1_555
N5A C9A 1_555 1_555
N7A C12A 1_555 1_555
N8A C2A 1_555 1_555
O3A O23A 1_555 1_555
O3A O24A 1_555 1_555
C1A C5A 1_555 1_555
C2A C12A 1_555 1_555
C3A C8A 1_555 1_555
C4A C7A 1_555 1_555
C6A C10A 1_555 1_555
C9A C11A 1_555 1_555
C14A C15A 1_555 1_555
N11A C18A 1_555 1_555
N12A C18A 1_555 1_555

#END
