
#######################################################################
#
#                 Cambridge Crystallographic Data Centre
#                                CCDC 
#
#######################################################################
#
# If this CIF has been generated from an entry in the Cambridge 
# Structural Database, then it will include bibliographic, chemical, 
# crystal, experimental, refinement or atomic coordinate data resulting 
# from the CCDC's data processing and validation procedures.
#
#######################################################################

data_IQOXUI
_symmetry_cell_setting           triclinic
_symmetry_space_group_name_H-M   'P -1'
_symmetry_Int_Tables_number      2
_space_group_name_Hall           '-P 1'
loop_
_symmetry_equiv_pos_site_id
_symmetry_equiv_pos_as_xyz
1 x,y,z
2 -x,-y,-z
_cell_length_a                   11.6840(10)
_cell_length_b                   17.6360(14)
_cell_length_c                   25.363(2)
_cell_angle_alpha                96.3320(10)
_cell_angle_beta                 98.0810(11)
_cell_angle_gamma                101.9840(11)
_cell_volume                     5008.84
loop_
_atom_site_label
_atom_site_type_symbol
_atom_site_fract_x
_atom_site_fract_y
_atom_site_fract_z
W1 W -0.27877(9) 0.27844(5) 0.95909(4)
W2 W -0.30618(9) 0.43191(5) 0.87410(4)
W3 W -0.22847(9) 0.10858(6) 0.79720(4)
W4 W -0.31213(9) 0.48402(5) 0.73533(4)
W5 W -0.56269(9) 0.08931(5) 0.62822(4)
W6 W -0.39644(9) 0.08664(5) 0.90975(4)
W7 W -0.60345(9) 0.36573(6) 0.84992(4)
W8 W -0.11114(9) 0.29818(6) 0.84577(4)
W9 W -0.55342(9) 0.03846(5) 0.76845(4)
W10 W -0.57804(9) 0.20854(6) 0.93355(4)
W11 W -0.74072(9) 0.21112(6) 0.65249(4)
W12 W -0.41292(9) 0.22338(6) 0.54446(4)
W13 W -0.23690(9) 0.16062(6) 0.65814(4)
W14 W -0.60856(9) 0.41673(6) 0.70994(4)
W15 W -0.11960(9) 0.34935(6) 0.70612(4)
W16 W -0.73291(9) 0.16046(6) 0.79186(4)
W17 W -0.59493(9) 0.34626(6) 0.56811(4)
W18 W -0.29821(9) 0.41497(6) 0.59442(4)
Ag1 Ag -0.9515(2) -0.28575(13) 0.76333(9)
Ag2 Ag -0.70744(18) -0.20188(11) 0.75134(7)
Ag3 Ag -0.66496(18) -0.36447(11) 0.72430(7)
Ag4 Ag -1.1727(2) -0.20089(15) 0.77105(9)
Ag5 Ag -0.42800(19) -0.25928(13) 0.76517(8)
Ag6 Ag -0.9190(2) -0.10418(13) 0.77454(8)
P1 P -0.4304(5) 0.2865(3) 0.6774(2)
P2 P -0.4231(5) 0.2322(3) 0.8254(2)
C1 C -0.995(3) -0.0114(17) 0.6316(11)
H1 H -0.9795 0.0286 0.6108
C2 C -0.936(3) -0.010(2) 0.6849(14)
H2 H -0.8765 0.0297 0.7059
C3 C -1.449(2) -0.3802(14) 0.8460(10)
H3 H -1.5030 -0.4185 0.8215
C4 C -0.902(2) -0.3308(14) 0.6441(9)
C5 C -0.944(2) -0.2212(12) 0.8846(9)
C6 C -0.852(2) -0.2529(14) 0.6351(9)
C7 C -0.968(2) -0.4616(16) 0.6319(11)
H4 H -0.9890 -0.5141 0.6167
C8 C -0.391(3) -0.1158(17) 0.7043(12)
H5 H -0.3511 -0.0831 0.7357
C9 C -0.752(3) -0.1339(16) 0.6450(12)
H6 H -0.7052 -0.0852 0.6605
C10 C -1.228(2) -0.3199(18) 0.6129(9)
H7 H -1.2705 -0.3620 0.5874
C11 C -1.415(3) -0.3823(15) 0.8989(10)
H8 H -1.4423 -0.4232 0.9175
C12 C -1.064(3) -0.3177(16) 0.9109(11)
H9 H -1.1045 -0.3501 0.9320
C13 C -0.637(2) -0.4213(16) 0.6130(11)
H10 H -0.6832 -0.4690 0.6173
C14 C -0.798(3) -0.1549(18) 0.5926(11)
H11 H -0.7893 -0.1232 0.5658
C15 C -1.135(3) -0.0833(17) 0.8776(14)
H12 H -1.0891 -0.0450 0.8619
C16 C -0.564(3) -0.1504(15) 0.8622(10)
H13 H -0.5358 -0.1024 0.8511
C17 C -0.540(2) -0.1656(15) 0.9120(11)
H14 H -0.4971 -0.1309 0.9419
C18 C -1.222(2) -0.3176(18) 0.6627(13)
H15 H -1.2490 -0.3602 0.6799
C19 C -1.149(3) -0.0724(19) 0.9308(13)
H16 H -1.1193 -0.0287 0.9569
C20 C -0.979(3) -0.4299(16) 0.6818(12)
H17 H -1.0103 -0.4581 0.7075
C21 C -0.407(3) -0.0946(16) 0.6573(12)
H18 H -0.3835 -0.0444 0.6488
C22 C -1.064(2) -0.3352(16) 0.8583(11)
H19 H -1.1096 -0.3790 0.8352
C23 C -1.249(2) -0.1920(13) 0.8866(9)
C24 C -0.491(2) -0.2187(12) 0.6500(8)
C25 C -1.321(2) -0.2707(14) 0.8816(9)
C26 C -0.858(2) -0.1437(13) 0.8913(9)
C27 C -0.589(3) -0.4017(16) 0.5669(11)
H20 H -0.5959 -0.4356 0.5353
C28 C -0.733(2) -0.0387(15) 0.9332(11)
H21 H -0.6801 -0.0018 0.9593
C29 C -1.070(2) -0.1240(13) 0.6571(9)
C30 C -0.544(2) -0.2994(13) 0.6251(9)
C31 C -0.841(3) -0.4579(16) 0.8475(11)
H22 H -0.8862 -0.4995 0.8606
C32 C -1.131(2) -0.2050(13) 0.6512(9)
C33 C -0.763(2) -0.0308(14) 0.8826(10)
H23 H -0.7357 0.0146 0.8682
C34 C -0.722(2) -0.3448(12) 0.8433(9)
C35 C -0.814(2) -0.4560(14) 0.7968(10)
H24 H -0.8404 -0.4971 0.7685
C36 C -0.651(2) -0.2663(14) 0.8602(10)
N1 N -0.9385(17) -0.3501(11) 0.6887(8)
N2 N -1.077(2) -0.0813(13) 0.6156(9)
H25 H -1.1246 -0.0953 0.5852
N3 N -0.787(2) -0.1965(12) 0.6723(9)
N4 N -1.1696(19) -0.2413(13) 0.6887(9)
N5 N -0.4434(18) -0.1982(11) 0.7004(7)
N6 N -0.8582(19) -0.2279(13) 0.5858(8)
H26 H -0.8951 -0.2552 0.5557
N7 N -0.5331(19) -0.3279(12) 0.5760(8)
H27 H -0.4961 -0.3025 0.5540
N8 N -0.8390(17) -0.0979(11) 0.8528(8)
N9 N -0.990(2) -0.0835(12) 0.6985(8)
N10 N -0.978(2) -0.2710(12) 0.8450(8)
N11 N -0.919(2) -0.3968(12) 0.6088(8)
H28 H -0.9013 -0.3987 0.5769
N12 N -1.1934(19) -0.1555(12) 0.8498(8)
N13 N -0.5997(19) -0.3553(12) 0.6495(8)
N14 N -0.466(2) -0.1596(13) 0.6227(9)
H29 H -0.4839 -0.1619 0.5884
N15 N -1.166(2) -0.2529(12) 0.6020(9)
H30 H -1.1499 -0.2419 0.5712
N16 N -0.6314(16) -0.2109(10) 0.8310(7)
N17 N -0.9932(16) -0.2437(10) 0.9289(8)
H31 H -0.9821 -0.2173 0.9605
N18 N -0.7889(18) -0.3856(12) 0.8743(8)
H32 H -0.7969 -0.3684 0.9063
N19 N -0.5927(16) -0.2436(10) 0.9105(7)
H33 H -0.5887 -0.2714 0.9362
N20 N -0.7431(16) -0.3862(11) 0.7936(7)
N21 N -1.3834(18) -0.3072(11) 0.8352(8)
N22 N -1.335(2) -0.3150(12) 0.9204(9)
H34 H -1.2999 -0.3031 0.9533
N23 N -1.2202(19) -0.1437(13) 0.9348(10)
H35 H -1.2433 -0.1562 0.9641
N24 N -0.7920(19) -0.1097(12) 0.9405(9)
H36 H -0.7892 -0.1296 0.9699
O1 O -0.4354(13) 0.2631(8) 0.9823(6)
O2 O -0.5276(13) 0.1144(8) 0.9417(6)
O3 O -0.1684(14) 0.2747(8) 0.9132(6)
O4 O -0.6764(14) 0.1619(9) 0.8692(6)
O5 O -0.3304(13) 0.4654(8) 0.8056(6)
O6 O -0.7455(16) 0.1679(10) 0.7181(6)
O7 O -0.6872(14) 0.2611(9) 0.5936(6)
O8 O -0.1063(13) 0.3124(8) 0.7744(6)
O9 O -0.5870(14) 0.3037(9) 0.9091(6)
O10 O -0.7120(13) 0.1161(8) 0.6203(6)
O11 O -0.1942(15) 0.4269(9) 0.7373(6)
O12 O -0.7050(15) 0.4088(10) 0.8719(7)
O13 O -0.2873(12) 0.1677(8) 0.9631(5)
O14 O -0.6983(13) 0.0565(8) 0.7785(6)
O15 O -0.6917(12) 0.2705(8) 0.8092(6)
O16 O -0.1001(13) 0.1929(9) 0.8326(6)
O17 O -0.5993(14) 0.4055(8) 0.7833(6)
O18 O -0.3136(13) 0.2669(8) 0.6940(6)
O19 O -0.2291(16) 0.5767(9) 0.7493(7)
O20 O -0.1880(14) 0.3845(9) 0.8539(6)
O21 O -0.5273(13) 0.1740(8) 0.7891(5)
O22 O -0.4057(14) 0.1749(9) 0.4831(6)
O23 O -0.2154(15) 0.4844(10) 0.5658(6)
O24 O -0.2805(14) 0.0962(8) 0.8649(6)
O25 O -0.5066(13) 0.0459(8) 0.8458(6)
O26 O -0.7024(13) 0.3131(8) 0.6936(6)
O27 O -0.4532(15) 0.4190(8) 0.5603(6)
O28 O -0.1716(14) 0.0914(10) 0.6284(6)
O29 O -0.3102(14) 0.3230(8) 0.5411(6)
O30 O -0.1829(14) 0.3780(9) 0.6390(6)
O31 O -0.3962(16) 0.1061(9) 0.6515(6)
O32 O -0.3142(13) 0.4716(8) 0.6582(6)
O33 O -0.5195(12) 0.1479(9) 0.5710(6)
O34 O -0.7119(15) 0.4722(10) 0.7046(6)
O35 O -0.8885(14) 0.1959(9) 0.6307(6)
O36 O -0.2938(14) 0.2005(9) 0.5910(6)
O37 O -0.4624(13) 0.4396(8) 0.8835(6)
O38 O -0.1940(15) 0.3141(9) 1.0210(6)
O39 O -0.6938(15) 0.3752(11) 0.5239(7)
O40 O -0.6757(15) 0.1995(9) 0.9781(6)
O41 O -0.2083(14) 0.1429(9) 0.7290(6)
O42 O -0.3075(12) 0.3682(8) 0.9320(5)
O43 O -0.8820(15) 0.1361(11) 0.7957(6)
O44 O -0.5424(15) 0.2701(9) 0.5199(6)
O45 O -0.1616(17) 0.0295(10) 0.7907(6)
O46 O -0.4212(13) 0.2109(9) 0.8834(6)
O47 O -0.5827(12) 0.0587(8) 0.6968(6)
O48 O -0.5926(13) 0.4044(9) 0.6338(6)
O49 O -0.1096(14) 0.2513(9) 0.6705(6)
O50 O -0.3887(13) 0.0631(8) 0.7671(6)
O51 O -0.4463(12) 0.3591(8) 0.7133(5)
O52 O -0.4294(13) 0.3077(8) 0.6190(6)
O53 O -0.5949(15) -0.0019(9) 0.5902(6)
O54 O -0.4381(15) 0.3162(9) 0.8276(7)
O55 O -0.2258(15) 0.5173(9) 0.9110(6)
O56 O 0.0217(15) 0.3975(10) 0.7099(7)
O57 O -0.3059(12) 0.2230(8) 0.8092(5)
O58 O -0.5345(12) 0.2171(8) 0.6751(5)
O59 O -0.4718(13) 0.5015(8) 0.7247(6)
O60 O 0.0317(16) 0.3408(10) 0.8751(7)
O61 O -0.3794(15) 0.0040(9) 0.9384(6)
O62 O -0.5927(14) -0.0614(9) 0.7566(6)
Ag4_2 Ag -0.1727(2) -0.20089(15) 0.77105(9)
Ag5_2 Ag -1.42800(19) -0.25928(13) 0.76517(8)
N21_2 N -0.3834(18) -0.3072(11) 0.8352(8)
O63 O -0.894(2) -0.3540(13) 0.5053(9)
O64 O -0.948(2) -0.1521(15) 1.0273(10)
O65 O -0.087(2) -0.2284(14) 0.5046(10)
O66 O -0.110(3) 0.5322(14) 0.4756(10)
O67 O -0.925(3) -0.6484(19) 0.5964(13)
O68 O -1.077(3) -0.1062(18) 1.1001(13)
O69 O -0.194(3) -0.3266(16) 1.0144(11)
O70 O -0.257(3) -0.1183(19) 0.5293(13)
O71 O -0.574(3) -0.457(2) 0.9860(14)
O72 O -0.646(3) -0.012(2) 0.4739(15)
O73 O -0.207(4) -0.473(2) 1.0356(16)
O74 O -0.912(5) -0.107(3) 0.474(2)
loop_
_geom_bond_atom_site_label_1
_geom_bond_atom_site_label_2
_geom_bond_site_symmetry_1
_geom_bond_site_symmetry_2
W1 O1 1_555 1_555
W2 O5 1_555 1_555
W3 O16 1_555 1_555
W4 O5 1_555 1_555
W5 O10 1_555 1_555
W6 O2 1_555 1_555
W7 O9 1_555 1_555
W8 O3 1_555 1_555
W9 O14 1_555 1_555
W10 O1 1_555 1_555
W11 O6 1_555 1_555
W12 O22 1_555 1_555
W13 O18 1_555 1_555
W14 O17 1_555 1_555
W15 O8 1_555 1_555
W16 O4 1_555 1_555
W17 O7 1_555 1_555
W18 O23 1_555 1_555
Ag1 Ag2 1_555 1_555
Ag2 Ag3 1_555 1_555
Ag3 Ag5 1_555 1_555
Ag4 Ag1 1_555 1_555
Ag5 N5 1_555 1_555
Ag6 Ag1 1_555 1_555
P1 O18 1_555 1_555
P2 O21 1_555 1_555
C1 H1 1_555 1_555
C2 C1 1_555 1_555
H2 C2 1_555 1_555
C3 H3 1_555 1_555
C4 C6 1_555 1_555
C5 C26 1_555 1_555
C6 N3 1_555 1_555
C7 H4 1_555 1_555
C8 H5 1_555 1_555
C9 H6 1_555 1_555
C10 H7 1_555 1_555
C11 C3 1_555 1_555
H8 C11 1_555 1_555
C12 H9 1_555 1_555
C13 H10 1_555 1_555
C14 C9 1_555 1_555
H11 C14 1_555 1_555
C15 H12 1_555 1_555
C16 H13 1_555 1_555
C17 C16 1_555 1_555
H14 C17 1_555 1_555
C18 C10 1_555 1_555
H15 C18 1_555 1_555
C19 C15 1_555 1_555
H16 C19 1_555 1_555
C20 C7 1_555 1_555
H17 C20 1_555 1_555
C21 C8 1_555 1_555
H18 C21 1_555 1_555
C22 C12 1_555 1_555
H19 C22 1_555 1_555
C23 C25 1_555 1_555
C24 C30 1_555 1_555
C25 N21 1_555 1_555
C26 N8 1_555 1_555
C27 C13 1_555 1_555
H20 C27 1_555 1_555
C28 H21 1_555 1_555
C29 C32 1_555 1_555
C30 N7 1_555 1_555
C31 H22 1_555 1_555
C32 N4 1_555 1_555
C33 C28 1_555 1_555
H23 C33 1_555 1_555
C34 C36 1_555 1_555
C35 C31 1_555 1_555
H24 C35 1_555 1_555
C36 N16 1_555 1_555
N1 Ag1 1_555 1_555
N2 C1 1_555 1_555
H25 N2 1_555 1_555
N3 Ag2 1_555 1_555
N4 Ag4 1_555 1_555
N5 C8 1_555 1_555
N6 C6 1_555 1_555
H26 N6 1_555 1_555
N7 C27 1_555 1_555
H27 N7 1_555 1_555
N8 Ag6 1_555 1_555
N9 Ag6 1_555 1_555
N10 Ag1 1_555 1_555
N11 C4 1_555 1_555
H28 N11 1_555 1_555
N12 Ag4 1_555 1_555
N13 Ag3 1_555 1_555
N14 C21 1_555 1_555
H29 N14 1_555 1_555
N15 C10 1_555 1_555
H30 N15 1_555 1_555
N16 Ag2 1_555 1_555
N17 C5 1_555 1_555
H31 N17 1_555 1_555
N18 C31 1_555 1_555
H32 N18 1_555 1_555
N19 C17 1_555 1_555
H33 N19 1_555 1_555
N20 Ag3 1_555 1_555
N21 C3 1_555 1_555
N22 C11 1_555 1_555
H34 N22 1_555 1_555
N23 C19 1_555 1_555
H35 N23 1_555 1_555
N24 C26 1_555 1_555
H36 N24 1_555 1_555
O2 W10 1_555 1_555
O3 W1 1_555 1_555
O4 W10 1_555 1_555
O6 W16 1_555 1_555
O7 W11 1_555 1_555
O8 W8 1_555 1_555
O9 W10 1_555 1_555
O10 W11 1_555 1_555
O11 W4 1_555 1_555
O12 W7 1_555 1_555
O13 W1 1_555 1_555
O14 W16 1_555 1_555
O15 W7 1_555 1_555
O16 W8 1_555 1_555
O17 W7 1_555 1_555
O18 W15 1_555 1_555
O19 W4 1_555 1_555
O20 W2 1_555 1_555
O21 W9 1_555 1_555
O24 W3 1_555 1_555
O25 W6 1_555 1_555
O26 W11 1_555 1_555
O27 W17 1_555 1_555
O28 W13 1_555 1_555
O29 W12 1_555 1_555
O30 W15 1_555 1_555
O31 W5 1_555 1_555
O32 W4 1_555 1_555
O33 W5 1_555 1_555
O34 W14 1_555 1_555
O35 W11 1_555 1_555
O36 W12 1_555 1_555
O37 W2 1_555 1_555
O38 W1 1_555 1_555
O39 W17 1_555 1_555
O40 W10 1_555 1_555
O41 W3 1_555 1_555
O42 W1 1_555 1_555
O43 W16 1_555 1_555
O44 W12 1_555 1_555
O45 W3 1_555 1_555
O46 W1 1_555 1_555
O47 W5 1_555 1_555
O48 W14 1_555 1_555
O49 W13 1_555 1_555
O50 W3 1_555 1_555
O51 W4 1_555 1_555
O52 W12 1_555 1_555
O53 W5 1_555 1_555
O54 W2 1_555 1_555
O55 W2 1_555 1_555
O56 W15 1_555 1_555
O57 W3 1_555 1_555
O58 W5 1_555 1_555
O59 W4 1_555 1_555
O60 W8 1_555 1_555
O61 W6 1_555 1_555
O62 W9 1_555 1_555
Ag4_2 Ag5 1_555 1_555
Ag5_2 Ag4 1_555 1_555
N21_2 Ag5 1_555 1_555
W2 O42 1_555 1_555
W6 O13 1_555 1_555
W6 O24 1_555 1_555
W6 O46 1_555 1_555
W7 O37 1_555 1_555
W7 O54 1_555 1_555
W8 O20 1_555 1_555
W8 O57 1_555 1_555
W9 O25 1_555 1_555
W9 O47 1_555 1_555
W9 O50 1_555 1_555
W10 O46 1_555 1_555
W11 O58 1_555 1_555
W12 O33 1_555 1_555
W13 O31 1_555 1_555
W13 O36 1_555 1_555
W13 O41 1_555 1_555
W14 O26 1_555 1_555
W14 O51 1_555 1_555
W14 O59 1_555 1_555
W15 O11 1_555 1_555
W15 O49 1_555 1_555
W16 O15 1_555 1_555
W16 O21 1_555 1_555
W17 O44 1_555 1_555
W17 O48 1_555 1_555
W17 O52 1_555 1_555
W18 O27 1_555 1_555
W18 O29 1_555 1_555
W18 O30 1_555 1_555
W18 O32 1_555 1_555
W18 O52 1_555 1_555
Ag2 Ag6 1_555 1_555
Ag2 O62 1_555 1_555
Ag4 Ag6 1_555 1_555
P1 O51 1_555 1_555
P1 O52 1_555 1_555
P1 O58 1_555 1_555
P2 O46 1_555 1_555
P2 O54 1_555 1_555
P2 O57 1_555 1_555
C2 N9 1_555 1_555
C4 N1 1_555 1_555
C5 N10 1_555 1_555
C7 N11 1_555 1_555
C9 N3 1_555 1_555
C12 N17 1_555 1_555
C13 N13 1_555 1_555
C14 N6 1_555 1_555
C15 N12 1_555 1_555
C16 N16 1_555 1_555
C18 N4 1_555 1_555
C20 N1 1_555 1_555
C22 N10 1_555 1_555
C23 N12 1_555 1_555
C23 N23 1_555 1_555
C24 N5 1_555 1_555
C24 N14 1_555 1_555
C25 N22 1_555 1_555
C28 N24 1_555 1_555
C29 N2 1_555 1_555
C29 N9 1_555 1_555
C30 N13 1_555 1_555
C32 N15 1_555 1_555
C33 N8 1_555 1_555
C34 N18 1_555 1_555
C34 N20 1_555 1_555
C35 N20 1_555 1_555
C36 N19 1_555 1_555
N21 Ag5_2 1_555 1_555

#END
