
#######################################################################
#
#                 Cambridge Crystallographic Data Centre
#                                CCDC 
#
#######################################################################
#
# If this CIF has been generated from an entry in the Cambridge 
# Structural Database, then it will include bibliographic, chemical, 
# crystal, experimental, refinement or atomic coordinate data resulting 
# from the CCDC's data processing and validation procedures.
#
#######################################################################

data_IQOYUJ
_symmetry_cell_setting           monoclinic
_symmetry_space_group_name_H-M   'P 21'
_symmetry_Int_Tables_number      4
_space_group_name_Hall           'P 2yb'
loop_
_symmetry_equiv_pos_site_id
_symmetry_equiv_pos_as_xyz
1 x,y,z
2 -x,1/2+y,-z
_cell_length_a                   16.1117(14)
_cell_length_b                   5.3028(5)
_cell_length_c                   18.7099(17)
_cell_angle_alpha                90
_cell_angle_beta                 101.1110(10)
_cell_angle_gamma                90
_cell_volume                     1568.56
loop_
_atom_site_label
_atom_site_type_symbol
_atom_site_fract_x
_atom_site_fract_y
_atom_site_fract_z
Cu1 Cu 0.23534(6) 0.90441(19) 0.39104(5)
Cu2 Cu 0.28547(6) 0.8012(2) 1.11315(5)
Yb1 Yb 0.227620(18) 0.84428(8) 0.747959(13)
Br1 Br 0.27681(7) 0.8520(4) 1.25719(4)
C1 C 0.1132(5) 0.5375(19) 0.3240(4)
H1 H 0.1136 0.6017 0.2778
C2 C 0.1386(4) 0.4866(15) 0.4407(4)
C3 C 0.0862(4) 0.2876(14) 0.4111(4)
C4 C 0.0601(5) 0.1004(17) 0.4522(4)
H2 H 0.0250 -0.0299 0.4314
C5 C 0.0893(5) 0.1170(14) 0.5270(4)
H3 H 0.0751 -0.0097 0.5568
C6 C 0.1389(4) 0.3159(17) 0.5586(3)
C7 C 0.1641(4) 0.5070(13) 0.5149(4)
H4 H 0.1968 0.6423 0.5356
C8 C 0.1633(4) 0.342(3) 0.6397(3)
C9 C 0.0709(5) 0.6041(17) 0.8205(4)
C10 C 0.0918(5) 0.4745(16) 0.8944(4)
C11 C 0.0492(5) 0.2481(16) 0.9050(4)
H5 H 0.0128 0.1769 0.8656
C12 C 0.0597(5) 0.1307(16) 0.9709(4)
H6 H 0.0324 -0.0199 0.9773
C13 C 0.1133(5) 0.2489(16) 1.0280(4)
C14 C 0.1866(5) 0.378(3) 1.1342(4)
H7 H 0.2082 0.3856 1.1840
C15 C 0.1579(5) 0.4676(16) 1.0191(4)
C16 C 0.1486(4) 0.5811(15) 0.9511(4)
H8 H 0.1795 0.7239 0.9440
C17 C 0.4169(5) 1.171(2) 1.1655(4)
H9 H 0.4272 1.1080 1.2128
C18 C 0.3697(4) 1.2122(15) 1.0506(4)
C19 C 0.4250(4) 1.4126(15) 1.0723(4)
C20 C 0.4397(5) 1.6014(15) 1.0243(4)
H10 H 0.4756 1.7366 1.0393
C21 C 0.3971(4) 1.5741(15) 0.9524(4)
H11 H 0.4037 1.6969 0.9184
C22 C 0.3447(4) 1.367(2) 0.9299(3)
C23 C 0.3294(4) 1.1850(14) 0.9782(4)
H12 H 0.2936 1.0496 0.9631
C24 C 0.3009(4) 1.350(3) 0.8517(3)
C25 C 0.3944(5) 1.1025(17) 0.6972(4)
C26 C 0.3929(5) 1.2219(16) 0.6249(4)
C27 C 0.3465(5) 1.1200(15) 0.5620(4)
H13 H 0.3129 0.9784 0.5635
C28 C 0.3516(5) 1.2359(16) 0.4957(4)
C29 C 0.3988(5) 1.4511(16) 0.4943(4)
C30 C 0.4455(6) 1.5613(18) 0.5564(5)
H14 H 0.4773 1.7067 0.5543
C31 C 0.4422(5) 1.4416(17) 0.6224(4)
H15 H 0.4730 1.5076 0.6655
C32 C 0.3384(4) 1.342(3) 0.3833(4)
H16 H 0.3223 1.3443 0.3329
N1 N 0.1553(4) 0.6426(14) 0.3847(3)
N2 N 0.0707(4) 0.333(2) 0.3355(3)
H17 H 0.0392 0.2430 0.3027
N3 N 0.1341(5) 0.1988(14) 1.1027(4)
H18 H 0.1160 0.0735 1.1246
N4 N 0.2044(4) 0.5416(14) 1.0866(3)
N5 N 0.3640(4) 1.0604(14) 1.1107(3)
N6 N 0.4540(4) 1.3816(18) 1.1459(3)
H19 H 0.4889 1.4778 1.1741
N7 N 0.3886(5) 1.5140(14) 0.4208(4)
H20 H 0.4108 1.6412 0.4030
N8 N 0.3135(4) 1.1662(13) 0.4248(3)
O1 O 0.2985(4) 1.5436(13) 0.8130(3)
O2 O 0.2698(4) 1.1405(13) 0.8307(3)
O3 O 0.1235(3) 0.7538(11) 0.8029(3)
O4 O -0.0011(4) 0.5599(14) 0.7840(4)
O5 O 0.1843(4) 0.5528(13) 0.6653(3)
O6 O 0.1588(4) 0.1455(14) 0.6768(3)
O7 O 0.3376(4) 0.9405(11) 0.7010(3)
O8 O 0.4514(4) 1.1607(14) 0.7486(3)
Cu1_2 Cu 0.23534(6) 0.90441(19) 1.39104(5)
Yb1_2 Yb 0.227620(18) -0.15572(8) 0.747959(13)
Yb1_3 Yb 0.227620(18) 1.84428(8) 0.747959(13)
Br1_2 Br 0.27681(7) 0.8520(4) 0.25719(4)
O1_2 O 0.2985(4) 0.5436(13) 0.8130(3)
O6_2 O 0.1588(4) 1.1455(14) 0.6768(3)
loop_
_geom_bond_atom_site_label_1
_geom_bond_atom_site_label_2
_geom_bond_site_symmetry_1
_geom_bond_site_symmetry_2
Cu1 N1 1_555 1_555
Cu2 Br1 1_555 1_555
Yb1 O2 1_555 1_555
Br1 Cu1_2 1_555 1_555
C1 H1 1_555 1_555
C2 C3 1_555 1_555
C3 C4 1_555 1_555
C4 H2 1_555 1_555
C5 C4 1_555 1_555
H3 C5 1_555 1_555
C6 C5 1_555 1_555
C7 C2 1_555 1_555
H4 C7 1_555 1_555
C8 C6 1_555 1_555
C9 C10 1_555 1_555
C10 C11 1_555 1_555
C11 H5 1_555 1_555
C12 C11 1_555 1_555
H6 C12 1_555 1_555
C13 C12 1_555 1_555
C14 H7 1_555 1_555
C15 C13 1_555 1_555
C16 C10 1_555 1_555
H8 C16 1_555 1_555
C17 H9 1_555 1_555
C18 C19 1_555 1_555
C19 C20 1_555 1_555
C20 H10 1_555 1_555
C21 C20 1_555 1_555
H11 C21 1_555 1_555
C22 C21 1_555 1_555
C23 C18 1_555 1_555
H12 C23 1_555 1_555
C24 C22 1_555 1_555
C25 C26 1_555 1_555
C26 C27 1_555 1_555
C27 H13 1_555 1_555
C28 C27 1_555 1_555
C29 C28 1_555 1_555
C30 C29 1_555 1_555
H14 C30 1_555 1_555
C31 C26 1_555 1_555
H15 C31 1_555 1_555
C32 H16 1_555 1_555
N1 C1 1_555 1_555
N2 C1 1_555 1_555
H17 N2 1_555 1_555
N3 C13 1_555 1_555
H18 N3 1_555 1_555
N4 Cu2 1_555 1_555
N5 Cu2 1_555 1_555
N6 C17 1_555 1_555
H19 N6 1_555 1_555
N7 C29 1_555 1_555
H20 N7 1_555 1_555
N8 Cu1 1_555 1_555
O1 C24 1_555 1_555
O2 C24 1_555 1_555
O3 Yb1 1_555 1_555
O4 C9 1_555 1_555
O5 Yb1 1_555 1_555
O6 C8 1_555 1_555
O7 Yb1 1_555 1_555
O8 C25 1_555 1_555
Yb1_2 O6 1_555 1_555
Yb1_3 O1 1_555 1_555
Br1_2 Cu1 1_555 1_555
O1_2 Yb1 1_555 1_555
O6_2 Yb1 1_555 1_555
C2 N1 1_555 1_555
C3 N2 1_555 1_555
C6 C7 1_555 1_555
C8 O5 1_555 1_555
C9 O3 1_555 1_555
C14 N3 1_555 1_555
C14 N4 1_555 1_555
C15 C16 1_555 1_555
C15 N4 1_555 1_555
C17 N5 1_555 1_555
C18 N5 1_555 1_555
C19 N6 1_555 1_555
C22 C23 1_555 1_555
C25 O7 1_555 1_555
C28 N8 1_555 1_555
C30 C31 1_555 1_555
C32 N7 1_555 1_555
C32 N8 1_555 1_555

#END
