
#######################################################################
#
#                 Cambridge Crystallographic Data Centre
#                                CCDC 
#
#######################################################################
#
# If this CIF has been generated from an entry in the Cambridge 
# Structural Database, then it will include bibliographic, chemical, 
# crystal, experimental, refinement or atomic coordinate data resulting 
# from the CCDC's data processing and validation procedures.
#
#######################################################################

data_IQOYIX
_symmetry_cell_setting           triclinic
_symmetry_space_group_name_H-M   'P -1'
_symmetry_Int_Tables_number      2
_space_group_name_Hall           '-P 1'
loop_
_symmetry_equiv_pos_site_id
_symmetry_equiv_pos_as_xyz
1 x,y,z
2 -x,-y,-z
_cell_length_a                   8.8964(9)
_cell_length_b                   12.3459(13)
_cell_length_c                   13.8600(14)
_cell_angle_alpha                72.9500(10)
_cell_angle_beta                 84.2720(10)
_cell_angle_gamma                71.6480(10)
_cell_volume                     1381.33
loop_
_atom_site_label
_atom_site_type_symbol
_atom_site_fract_x
_atom_site_fract_y
_atom_site_fract_z
Eu1 Eu 0.42219(4) 0.08080(2) 0.86133(2)
Ag1 Ag -0.29675(7) 0.50127(5) 0.87347(3)
Ag2 Ag -0.04235(7) -0.26594(5) 0.45749(4)
C1 C 0.2599(7) 0.1679(5) 1.0692(4)
C2 C 0.1321(7) 0.2634(5) 1.1026(4)
C3 C 0.1423(8) 0.2866(5) 1.1953(4)
H1 H 0.2286 0.2406 1.2368
C4 C 0.0275(8) 0.3759(5) 1.2261(4)
H2 H 0.0369 0.3926 1.2860
C5 C -0.1021(7) 0.4391(5) 1.1637(4)
C6 C -0.1151(7) 0.4149(5) 1.0726(4)
C7 C 0.0043(7) 0.3285(5) 1.0405(4)
H3 H -0.0020 0.3151 0.9786
C8 C -0.3209(8) 0.5595(5) 1.0848(5)
H4 H -0.4161 0.6203 1.0706
C9 C 0.2149(8) 0.0050(6) 0.7678(5)
C10 C 0.1210(7) -0.0322(5) 0.7056(5)
C11 C -0.0418(8) 0.0134(6) 0.6992(5)
H5 H -0.0983 0.0708 0.7311
C12 C -0.1184(8) -0.0307(5) 0.6424(4)
C13 C -0.0321(7) -0.1165(6) 0.5946(5)
C14 C 0.1323(8) -0.1632(6) 0.6017(5)
H6 H 0.1895 -0.2205 0.5699
C15 C 0.2040(8) -0.1203(6) 0.6576(5)
H7 H 0.3134 -0.1504 0.6646
C16 C -0.2759(8) -0.0808(6) 0.5623(5)
H8 H -0.3678 -0.0838 0.5379
C17 C 0.3849(7) 0.2528(5) 0.6645(4)
C18 C 0.3629(8) 0.3307(5) 0.5587(4)
C19 C 0.2485(8) 0.4408(5) 0.5353(4)
H9 H 0.1906 0.4711 0.5863
C20 C 0.2219(8) 0.5050(5) 0.4348(5)
C21 C 0.3123(8) 0.4606(5) 0.3576(4)
C22 C 0.4283(8) 0.3512(6) 0.3808(5)
H10 H 0.4879 0.3212 0.3302
C23 C 0.4525(8) 0.2890(6) 0.4801(4)
H11 H 0.5313 0.2162 0.4965
C24 C 0.1423(9) 0.6265(6) 0.2904(5)
H12 H 0.0846 0.6925 0.2419
C25 C 0.6807(8) 0.1326(5) 0.9310(5)
C26 C 0.8250(9) 0.1506(8) 0.9627(6)
H13 H 0.9089 0.1351 0.9147
H14 H 0.8575 0.0971 1.0281
H15 H 0.8012 0.2310 0.9656
N1 N -0.2552(6) 0.4914(4) 1.0251(4)
N2 N -0.2367(6) 0.5324(4) 1.1682(4)
H16 H -0.2615 0.5666 1.2159
N3 N -0.2744(6) -0.0098(5) 0.6190(4)
H17 H -0.3558 0.0397 0.6375
N4 N -0.1332(6) -0.1456(5) 0.5449(4)
N5 N 0.1140(8) 0.6124(5) 0.3886(4)
N6 N 0.2588(7) 0.5400(5) 0.2660(4)
O1 O 0.2698(5) 0.1806(4) 0.9750(3)
O2 O 0.3459(5) 0.0850(4) 1.1351(3)
O3 O 0.1534(6) 0.0979(5) 0.7950(4)
O4 O 0.3543(6) -0.0560(4) 0.7879(4)
O5 O 0.3155(5) 0.2901(3) 0.7371(3)
O6 O 0.4697(5) 0.1457(4) 0.6796(3)
O7 O 0.6302(7) 0.1803(5) 0.8435(4)
O8 O 0.6097(5) 0.0687(4) 0.9951(3)
Eu1A Eu 0.57781(4) -0.08080(2) 1.13867(2)
Ag1A Ag 0.29675(7) 0.49873(5) 0.12653(3)
Ag2_2 Ag -0.04235(7) 0.73406(5) 0.45749(4)
N5_2 N 0.1140(8) -0.3876(5) 0.3886(4)
N6A N -0.2588(7) 0.4600(5) 0.7340(4)
O2A O 0.6541(5) -0.0850(4) 0.8649(3)
O8A O 0.3903(5) -0.0687(4) 1.0049(3)
O9 O -0.5377(7) 0.6954(5) 0.8748(5)
H18 H -0.6240 0.6821 0.8701
H19 H -0.5502 0.7698 0.8514
loop_
_geom_bond_atom_site_label_1
_geom_bond_atom_site_label_2
_geom_bond_site_symmetry_1
_geom_bond_site_symmetry_2
Eu1 O1 1_555 1_555
Ag1 N1 1_555 1_555
Ag2 N4 1_555 1_555
C1 C2 1_555 1_555
C2 C3 1_555 1_555
C3 H1 1_555 1_555
C4 C3 1_555 1_555
H2 C4 1_555 1_555
C5 C4 1_555 1_555
C6 C5 1_555 1_555
C7 C2 1_555 1_555
H3 C7 1_555 1_555
C8 H4 1_555 1_555
C9 C10 1_555 1_555
C10 C11 1_555 1_555
C11 H5 1_555 1_555
C12 C11 1_555 1_555
C13 C12 1_555 1_555
C14 C13 1_555 1_555
H6 C14 1_555 1_555
C15 C10 1_555 1_555
H7 C15 1_555 1_555
C16 H8 1_555 1_555
C17 C18 1_555 1_555
C18 C19 1_555 1_555
C19 H9 1_555 1_555
C20 C19 1_555 1_555
C21 C20 1_555 1_555
C22 C21 1_555 1_555
H10 C22 1_555 1_555
C23 C18 1_555 1_555
H11 C23 1_555 1_555
C24 H12 1_555 1_555
C25 C26 1_555 1_555
C26 H13 1_555 1_555
H14 C26 1_555 1_555
H15 C26 1_555 1_555
N1 C6 1_555 1_555
N2 C5 1_555 1_555
H16 N2 1_555 1_555
N3 C12 1_555 1_555
H17 N3 1_555 1_555
N4 C13 1_555 1_555
N5 C20 1_555 1_555
N6 C21 1_555 1_555
O1 C1 1_555 1_555
O2 C1 1_555 1_555
O3 Eu1 1_555 1_555
O4 Eu1 1_555 1_555
O5 Eu1 1_555 1_555
O6 Eu1 1_555 1_555
O7 Eu1 1_555 1_555
O8 Eu1 1_555 1_555
O9 H18 1_555 1_555
H19 O9 1_555 1_555
Eu1A O2 1_555 1_555
Ag1A N6 1_555 1_555
Ag2_2 N5 1_555 1_555
N5_2 Ag2 1_555 1_555
N6A Ag1 1_555 1_555
O2A Eu1 1_555 1_555
O8A Eu1 1_555 1_555
C6 C7 1_555 1_555
C8 N1 1_555 1_555
C8 N2 1_555 1_555
C9 O3 1_555 1_555
C9 O4 1_555 1_555
C14 C15 1_555 1_555
C16 N3 1_555 1_555
C16 N4 1_555 1_555
C17 O5 1_555 1_555
C17 O6 1_555 1_555
C22 C23 1_555 1_555
C24 N5 1_555 1_555
C24 N6 1_555 1_555
C25 O7 1_555 1_555
C25 O8 1_555 1_555
O8 Eu1A 1_555 1_555
Eu1A O8A 1_555 1_555

#END
