
#######################################################################
#
#                 Cambridge Crystallographic Data Centre
#                                CCDC 
#
#######################################################################
#
# If this CIF has been generated from an entry in the Cambridge 
# Structural Database, then it will include bibliographic, chemical, 
# crystal, experimental, refinement or atomic coordinate data resulting 
# from the CCDC's data processing and validation procedures.
#
#######################################################################

data_IQOYET
_symmetry_cell_setting           monoclinic
_symmetry_space_group_name_H-M   'P 21/n'
_symmetry_Int_Tables_number      14
_space_group_name_Hall           '-P 2yn'
loop_
_symmetry_equiv_pos_site_id
_symmetry_equiv_pos_as_xyz
1 x,y,z
2 1/2-x,1/2+y,1/2-z
3 -x,-y,-z
4 1/2+x,1/2-y,1/2+z
_cell_length_a                   16.0731(6)
_cell_length_b                   5.4794(2)
_cell_length_c                   21.8203(8)
_cell_angle_alpha                90
_cell_angle_beta                 108.287(2)
_cell_angle_gamma                90
_cell_volume                     1824.68
loop_
_atom_site_label
_atom_site_type_symbol
_atom_site_fract_x
_atom_site_fract_y
_atom_site_fract_z
Tb1 Tb 0.5000 0.5000 0.5000
O1 O 0.4282(3) 0.1923(8) 0.4344(2)
C1 C 0.2351(3) -0.1678(10) 0.3651(3)
H1 H 0.2470 -0.3002 0.3932
C2 C 0.3816(3) 0.0006(10) 0.4205(3)
C3 C 0.2758(4) 0.2184(11) 0.3273(3)
H2 H 0.3169 0.3427 0.3327
C4 C 0.1384(4) 0.0481(11) 0.2731(3)
C5 C 0.1563(4) -0.1476(10) 0.3162(3)
C6 C 0.1982(4) 0.2354(12) 0.2780(3)
H3 H 0.1863 0.3659 0.2493
C7 C 0.2954(3) 0.0164(10) 0.3704(3)
N1 N 0.0552(3) 0.0064(10) 0.2303(3)
H4 H 0.0275 0.0960 0.1980
N2 N 0.0831(3) -0.3027(10) 0.3006(2)
C8 C 0.0268(4) -0.2020(13) 0.2494(3)
H5 H -0.0279 -0.2692 0.2283
C9 C 0.3900(4) 0.2561(13) 0.5954(3)
O2 O 0.4315(3) 0.2068(11) 0.6531(2)
O3 O 0.4159(3) 0.4067(9) 0.5615(2)
O4 O 0.4059(3) -0.2048(8) 0.4458(2)
Ag1 Ag 0.07690(3) -0.58957(10) 0.36233(2)
N3 N 0.0940(3) 0.1343(10) 0.4307(2)
C10 C 0.2856(4) -0.0863(13) 0.5957(3)
H6 H 0.3267 -0.1429 0.6333
C11 C 0.1650(4) 0.0928(12) 0.4842(3)
C12 C 0.1480(4) -0.1212(12) 0.5144(3)
C13 C 0.2447(4) 0.2158(12) 0.5095(3)
H7 H 0.2572 0.3535 0.4890
C14 C 0.2087(4) -0.2106(14) 0.5707(3)
H8 H 0.1970 -0.3507 0.5907
N4 N 0.0671(3) -0.2078(11) 0.4782(3)
C15 C 0.0384(4) -0.0476(11) 0.4304(3)
H9 H -0.0162 -0.0610 0.3991
C16 C 0.3044(4) 0.1290(12) 0.5653(3)
Ag2 Ag 0.0000 -0.5000 0.5000
Tb1_2 Tb 0.5000 -0.5000 0.5000
Tb1_3 Tb 0.5000 1.5000 0.5000
O1B O 0.5718(3) 0.8077(8) 0.5656(2)
C1B C 0.7649(3) 1.1678(10) 0.6349(3)
H1B H 0.7530 1.3002 0.6068
C2B C 0.6184(3) 0.9994(10) 0.5795(3)
C3B C 0.7242(4) 0.7816(11) 0.6727(3)
H2B H 0.6831 0.6573 0.6673
C4B C 0.8616(4) 0.9519(11) 0.7269(3)
C5B C 0.8437(4) 1.1476(10) 0.6838(3)
C6B C 0.8018(4) 0.7646(12) 0.7220(3)
H3B H 0.8137 0.6341 0.7507
C7B C 0.7046(3) 0.9836(10) 0.6296(3)
N1B N 0.9448(3) 0.9936(10) 0.7697(3)
H4B H 0.9725 0.9040 0.8020
N2B N 0.9169(3) 1.3027(10) 0.6994(2)
C8B C 0.9732(4) 1.2020(13) 0.7506(3)
H5B H 1.0279 1.2692 0.7717
C9B C 0.6100(4) 0.7439(13) 0.4046(3)
O2B O 0.5685(3) 0.7932(11) 0.3469(2)
O3B O 0.5841(3) 0.5933(9) 0.4385(2)
O4B O 0.5941(3) 1.2048(8) 0.5542(2)
O4_2 O 0.4059(3) 0.7952(8) 0.4458(2)
O4B_2 O 0.5941(3) 0.2048(8) 0.5542(2)
Ag1B Ag 0.92310(3) 1.58957(10) 0.63767(2)
Ag1_2 Ag 0.07690(3) 0.41043(10) 0.36233(2)
Ag1B_2 Ag 0.92310(3) 0.58957(10) 0.63767(2)
N3B N 0.9060(3) 0.8657(10) 0.5693(2)
N3_2 N 0.0940(3) -0.8657(10) 0.4307(2)
N3B_2 N 0.9060(3) 1.8657(10) 0.5693(2)
C10B C 0.7144(4) 1.0863(13) 0.4043(3)
H6B H 0.6733 1.1429 0.3667
C11B C 0.8350(4) 0.9072(12) 0.5158(3)
C12B C 0.8520(4) 1.1212(12) 0.4856(3)
C13B C 0.7553(4) 0.7842(12) 0.4905(3)
H7B H 0.7428 0.6465 0.5110
C14B C 0.7913(4) 1.2106(14) 0.4293(3)
H8B H 0.8030 1.3507 0.4093
N4B N 0.9329(3) 1.2078(11) 0.5218(3)
N4B_2 N -0.0671(3) -0.7922(11) 0.5218(3)
C15B C 0.9616(4) 1.0476(11) 0.5696(3)
H9B H 1.0162 1.0610 0.6009
C16B C 0.6956(4) 0.8710(12) 0.4347(3)
Ag2_2 Ag 1.0000 1.5000 0.5000
O5 O 0.3416(7) 0.693(3) 0.7991(6)
H10 H 0.3351 0.8451 0.7989
H11 H 0.3070 0.5738 0.7922
O6 O 0.3716(8) 0.186(2) 0.7599(6)
H12 H 0.3714 0.2246 0.7226
H13 H 0.3912 0.2909 0.7888
loop_
_geom_bond_atom_site_label_1
_geom_bond_atom_site_label_2
_geom_bond_site_symmetry_1
_geom_bond_site_symmetry_2
Tb1 O1 1_555 1_555
O1 C2 1_555 1_555
C1 H1 1_555 1_555
C2 C7 1_555 1_555
C3 H2 1_555 1_555
C4 C5 1_555 1_555
C5 C1 1_555 1_555
C6 C3 1_555 1_555
H3 C6 1_555 1_555
C7 C1 1_555 1_555
N1 C4 1_555 1_555
H4 N1 1_555 1_555
N2 C5 1_555 1_555
C8 N1 1_555 1_555
H5 C8 1_555 1_555
C9 O2 1_555 1_555
O3 Tb1 1_555 1_555
O4 C2 1_555 1_555
Ag1 N2 1_555 1_555
N3 C11 1_555 1_555
C10 H6 1_555 1_555
C11 C12 1_555 1_555
C12 C14 1_555 1_555
C13 C11 1_555 1_555
H7 C13 1_555 1_555
C14 C10 1_555 1_555
H8 C14 1_555 1_555
N4 C12 1_555 1_555
C15 N3 1_555 1_555
H9 C15 1_555 1_555
C16 C9 1_555 1_555
O5 H10 1_555 1_555
H11 O5 1_555 1_555
O6 H12 1_555 1_555
H13 O6 1_555 1_555
Ag2 N4 1_555 1_555
Tb1_2 O4 1_555 1_555
Tb1_3 O4B 1_555 1_555
O1B Tb1 1_555 1_555
C1B H1B 1_555 1_555
C2B O1B 1_555 1_555
C3B H2B 1_555 1_555
C4B C5B 1_555 1_555
C5B C1B 1_555 1_555
C6B C3B 1_555 1_555
H3B C6B 1_555 1_555
C7B C1B 1_555 1_555
N1B C4B 1_555 1_555
H4B N1B 1_555 1_555
N2B C5B 1_555 1_555
C8B N1B 1_555 1_555
H5B C8B 1_555 1_555
C9B O2B 1_555 1_555
O3B Tb1 1_555 1_555
O4B C2B 1_555 1_555
O4_2 Tb1 1_555 1_555
O4B_2 Tb1 1_555 1_555
Ag1B N2B 1_555 1_555
Ag1_2 N3 1_555 1_555
Ag1B_2 N3B 1_555 1_555
N3B C11B 1_555 1_555
N3_2 Ag1 1_555 1_555
N3B_2 Ag1B 1_555 1_555
C10B H6B 1_555 1_555
C11B C12B 1_555 1_555
C12B C14B 1_555 1_555
C13B C11B 1_555 1_555
H7B C13B 1_555 1_555
C14B C10B 1_555 1_555
H8B C14B 1_555 1_555
N4B C12B 1_555 1_555
N4B_2 Ag2 1_555 1_555
C15B N3B 1_555 1_555
H9B C15B 1_555 1_555
C16B C9B 1_555 1_555
Ag2_2 N4B 1_555 1_555
C3 C7 1_555 1_555
C4 C6 1_555 1_555
N2 C8 1_555 1_555
C9 O3 1_555 1_555
C10 C16 1_555 1_555
C13 C16 1_555 1_555
N4 C15 1_555 1_555
C2B C7B 1_555 1_555
C3B C7B 1_555 1_555
C4B C6B 1_555 1_555
N2B C8B 1_555 1_555
C9B O3B 1_555 1_555
C10B C16B 1_555 1_555
C13B C16B 1_555 1_555
N4B C15B 1_555 1_555

#END
