
#######################################################################
#
#                 Cambridge Crystallographic Data Centre
#                                CCDC 
#
#######################################################################
#
# If this CIF has been generated from an entry in the Cambridge 
# Structural Database, then it will include bibliographic, chemical, 
# crystal, experimental, refinement or atomic coordinate data resulting 
# from the CCDC's data processing and validation procedures.
#
#######################################################################

data_IQOYUI
_symmetry_cell_setting           monoclinic
_symmetry_space_group_name_H-M   'C c'
_symmetry_Int_Tables_number      9
_space_group_name_Hall           'C -2yc'
loop_
_symmetry_equiv_pos_site_id
_symmetry_equiv_pos_as_xyz
1 x,y,z
2 x,-y,1/2+z
3 1/2+x,1/2+y,z
4 1/2+x,1/2-y,1/2+z
_cell_length_a                   8.7054(2)
_cell_length_b                   17.3556(2)
_cell_length_c                   28.09400(10)
_cell_angle_alpha                90.00
_cell_angle_beta                 95.8550(10)
_cell_angle_gamma                90.00
_cell_volume                     4222.51
loop_
_atom_site_label
_atom_site_type_symbol
_atom_site_fract_x
_atom_site_fract_y
_atom_site_fract_z
Cd1 Cd -0.18267(12) -0.10446(6) -0.13378(5)
Br1 Br 0.09156(11) -0.13025(8) -0.16721(5)
Br2 Br -0.45592(11) -0.07874(8) -0.09968(5)
O1 O 0.3489(10) -0.1787(5) 0.0262(4)
O2 O 0.3379(10) -0.3044(5) -0.0427(3)
O3 O -0.7137(10) -0.0319(5) -0.2987(4)
O4 O -0.7124(10) 0.0919(5) -0.2272(3)
N1 N -0.0470(14) -0.0749(6) -0.0521(4)
N2 N 0.3371(13) -0.4691(6) -0.1543(4)
N3 N -0.3201(13) -0.1304(6) -0.2149(4)
N4 N -0.7075(13) 0.2591(6) -0.1160(4)
C1 C -0.1256(16) -0.0468(7) -0.0177(5)
H1 H -0.2322 -0.0355 -0.0250
C2 C 0.1032(16) -0.0891(7) -0.0417(5)
H2 H 0.1604 -0.1074 -0.0665
C3 C -0.0577(16) -0.0335(9) 0.0281(5)
H3 H -0.1157 -0.0130 0.0521
C4 C 0.1796(15) -0.0786(7) 0.0034(5)
C5 C 0.0921(16) -0.0504(7) 0.0377(5)
H4 H 0.1399 -0.0427 0.0693
C6 C 0.3452(17) -0.1000(7) 0.0134(6)
H5 H 0.4001 -0.0917 -0.0154
H6 H 0.3954 -0.0683 0.0398
C7 C 0.4874(15) -0.2142(8) 0.0389(4)
C8 C 0.6279(15) -0.1766(10) 0.0447(6)
H7 H 0.6325 -0.1228 0.0388
C9 C 0.7613(18) -0.2165(12) 0.0589(6)
H8 H 0.8584 -0.1910 0.0614
C10 C 0.753(2) -0.2952(12) 0.0698(6)
H9 H 0.8435 -0.3226 0.0812
C11 C 0.6116(18) -0.3329(9) 0.0639(6)
H10 H 0.6062 -0.3865 0.0705
C12 C 0.4744(16) -0.2914(8) 0.0480(4)
C13 C 0.3244(14) -0.3336(7) 0.0375(4)
C14 C 0.253(2) -0.3702(9) 0.0727(6)
H11 H 0.3018 -0.3699 0.1046
C15 C 0.109(3) -0.4083(10) 0.0629(8)
H12 H 0.0594 -0.4327 0.0875
C16 C 0.0436(18) -0.4082(8) 0.0156(6)
H13 H -0.0516 -0.4342 0.0078
C17 C 0.1113(16) -0.3722(7) -0.0196(5)
H14 H 0.0614 -0.3718 -0.0513
C18 C 0.2507(14) -0.3365(7) -0.0098(5)
C19 C 0.2676(18) -0.2835(7) -0.0894(5)
H15 H 0.2982 -0.2303 -0.0970
H16 H 0.1538 -0.2847 -0.0897
C20 C 0.3160(17) -0.3378(7) -0.1269(5)
C21 C 0.3785(16) -0.3125(7) -0.1674(5)
H17 H 0.3899 -0.2589 -0.1728
C22 C 0.4245(17) -0.3650(9) -0.2001(5)
H18 H 0.4708 -0.3485 -0.2276
C23 C 0.4010(17) -0.4425(8) -0.1916(5)
H19 H 0.4329 -0.4787 -0.2140
C24 C 0.2978(17) -0.4178(8) -0.1222(5)
H20 H 0.2551 -0.4365 -0.0946
C25 C -0.2439(16) -0.1608(8) -0.2484(5)
H21 H -0.1369 -0.1708 -0.2408
C26 C -0.4734(16) -0.1167(8) -0.2253(5)
H22 H -0.5315 -0.0970 -0.2012
C27 C -0.3092(17) -0.1790(8) -0.2936(5)
H23 H -0.2492 -0.2018 -0.3162
C28 C -0.5473(14) -0.1312(7) -0.2709(5)
C29 C -0.4644(17) -0.1633(8) -0.3054(5)
H24 H -0.5128 -0.1744 -0.3365
C30 C -0.7145(19) -0.1092(8) -0.2829(6)
H25 H -0.7643 -0.1430 -0.3083
H26 H -0.7715 -0.1138 -0.2542
C31 C -0.8517(15) 0.0019(8) -0.3109(5)
C32 C -0.9955(15) -0.0354(8) -0.3158(5)
H27 H -1.0038 -0.0887 -0.3087
C33 C -1.1251(16) 0.0079(10) -0.3312(6)
H28 H -1.2227 -0.0171 -0.3349
C34 C -1.1189(19) 0.0831(10) -0.3410(6)
H29 H -1.2100 0.1104 -0.3523
C35 C -0.9808(18) 0.1200(9) -0.3346(6)
H30 H -0.9775 0.1736 -0.3413
C36 C -0.8456(14) 0.0828(7) -0.3190(5)
C37 C -0.6963(14) 0.1233(7) -0.3076(5)
C38 C -0.6194(16) 0.1611(8) -0.3426(5)
H31 H -0.6638 0.1605 -0.3749
C39 C -0.4823(16) 0.1988(8) -0.3313(5)
H32 H -0.4337 0.2255 -0.3552
C40 C -0.4164(15) 0.1972(8) -0.2846(6)
H33 H -0.3193 0.2215 -0.2769
C41 C -0.4863(14) 0.1616(7) -0.2487(5)
H34 H -0.4388 0.1622 -0.2167
C42 C -0.6277(14) 0.1247(6) -0.2599(4)
C43 C -0.6445(16) 0.0718(7) -0.1808(5)
H35 H -0.5307 0.0716 -0.1806
H36 H -0.6773 0.0191 -0.1729
C44 C -0.6895(16) 0.1272(7) -0.1429(5)
C45 C -0.7561(16) 0.1031(8) -0.1030(6)
H37 H -0.7721 0.0497 -0.0981
C46 C -0.7993(17) 0.1557(9) -0.0705(5)
H38 H -0.8480 0.1391 -0.0435
C47 C -0.7714(16) 0.2327(8) -0.0773(5)
H39 H -0.7981 0.2686 -0.0540
C48 C -0.6664(14) 0.2064(7) -0.1476(4)
H40 H -0.6192 0.2240 -0.1746
N2B N -0.1629(13) 0.0309(6) -0.1543(4)
N4B N -0.2075(13) -0.2409(6) -0.1160(4)
Cd1B Cd 0.31733(12) -0.60446(6) -0.13378(5)
Cd1B_2 Cd -0.68267(12) 0.39554(6) -0.13378(5)
loop_
_geom_bond_atom_site_label_1
_geom_bond_atom_site_label_2
_geom_bond_site_symmetry_1
_geom_bond_site_symmetry_2
Cd1 Br1 1_555 1_555
Br2 Cd1 1_555 1_555
O1 C6 1_555 1_555
O2 C18 1_555 1_555
O3 C30 1_555 1_555
O4 C42 1_555 1_555
N1 Cd1 1_555 1_555
N2 C23 1_555 1_555
N3 Cd1 1_555 1_555
N4 C47 1_555 1_555
C1 N1 1_555 1_555
H1 C1 1_555 1_555
C2 N1 1_555 1_555
H2 C2 1_555 1_555
C3 C1 1_555 1_555
H3 C3 1_555 1_555
C4 C2 1_555 1_555
C5 C3 1_555 1_555
H4 C5 1_555 1_555
C6 C4 1_555 1_555
H5 C6 1_555 1_555
H6 C6 1_555 1_555
C7 O1 1_555 1_555
C8 C7 1_555 1_555
H7 C8 1_555 1_555
C9 C8 1_555 1_555
H8 C9 1_555 1_555
C10 C9 1_555 1_555
H9 C10 1_555 1_555
C11 C10 1_555 1_555
H10 C11 1_555 1_555
C12 C7 1_555 1_555
C13 C12 1_555 1_555
C14 C13 1_555 1_555
H11 C14 1_555 1_555
C15 C14 1_555 1_555
H12 C15 1_555 1_555
C16 C15 1_555 1_555
H13 C16 1_555 1_555
C17 C16 1_555 1_555
H14 C17 1_555 1_555
C18 C13 1_555 1_555
C19 O2 1_555 1_555
H15 C19 1_555 1_555
H16 C19 1_555 1_555
C20 C19 1_555 1_555
C21 C20 1_555 1_555
H17 C21 1_555 1_555
C22 C21 1_555 1_555
H18 C22 1_555 1_555
C23 C22 1_555 1_555
H19 C23 1_555 1_555
C24 N2 1_555 1_555
H20 C24 1_555 1_555
C25 N3 1_555 1_555
H21 C25 1_555 1_555
C26 N3 1_555 1_555
H22 C26 1_555 1_555
C27 C25 1_555 1_555
H23 C27 1_555 1_555
C28 C26 1_555 1_555
C29 C27 1_555 1_555
H24 C29 1_555 1_555
C30 C28 1_555 1_555
H25 C30 1_555 1_555
H26 C30 1_555 1_555
C31 O3 1_555 1_555
C32 C31 1_555 1_555
H27 C32 1_555 1_555
C33 C32 1_555 1_555
H28 C33 1_555 1_555
C34 C33 1_555 1_555
H29 C34 1_555 1_555
C35 C34 1_555 1_555
H30 C35 1_555 1_555
C36 C31 1_555 1_555
C37 C36 1_555 1_555
C38 C37 1_555 1_555
H31 C38 1_555 1_555
C39 C38 1_555 1_555
H32 C39 1_555 1_555
C40 C39 1_555 1_555
H33 C40 1_555 1_555
C41 C40 1_555 1_555
H34 C41 1_555 1_555
C42 C37 1_555 1_555
C43 O4 1_555 1_555
H35 C43 1_555 1_555
H36 C43 1_555 1_555
C44 C43 1_555 1_555
C45 C44 1_555 1_555
H37 C45 1_555 1_555
C46 C45 1_555 1_555
H38 C46 1_555 1_555
C47 C46 1_555 1_555
H39 C47 1_555 1_555
C48 N4 1_555 1_555
H40 C48 1_555 1_555
N2B Cd1 1_555 1_555
N4B Cd1 1_555 1_555
Cd1B N2 1_555 1_555
Cd1B_2 N4 1_555 1_555
C4 C5 1_555 1_555
C11 C12 1_555 1_555
C17 C18 1_555 1_555
C20 C24 1_555 1_555
C28 C29 1_555 1_555
C35 C36 1_555 1_555
C41 C42 1_555 1_555
C44 C48 1_555 1_555

#END
