
#######################################################################
#
#                 Cambridge Crystallographic Data Centre
#                                CCDC 
#
#######################################################################
#
# If this CIF has been generated from an entry in the Cambridge 
# Structural Database, then it will include bibliographic, chemical, 
# crystal, experimental, refinement or atomic coordinate data resulting 
# from the CCDC's data processing and validation procedures.
#
#######################################################################

data_IQOZAP
_symmetry_cell_setting           monoclinic
_symmetry_space_group_name_H-M   'C 2/c'
_symmetry_Int_Tables_number      15
_space_group_name_Hall           '-C 2yn'
loop_
_symmetry_equiv_pos_site_id
_symmetry_equiv_pos_as_xyz
1 x,y,z
2 1/2+x,1/2+y,z
3 x,-y,1/2+z
4 1/2+x,1/2-y,1/2+z
5 -x,-y,-z
6 1/2-x,1/2-y,-z
7 -x,y,1/2-z
8 1/2-x,1/2+y,1/2-z
_cell_length_a                   16.0497(19)
_cell_length_b                   14.0000(16)
_cell_length_c                   11.6102(14)
_cell_angle_alpha                90.00
_cell_angle_beta                 100.963(2)
_cell_angle_gamma                90.00
_cell_volume                     2561.15
loop_
_atom_site_label
_atom_site_type_symbol
_atom_site_fract_x
_atom_site_fract_y
_atom_site_fract_z
Cd1 Cd 0.0000 0.5000 0.5000
S1 S -0.14588(9) 0.45291(10) 0.57852(11)
O1 O 0.0431(2) 0.0245(3) 0.1583(4)
N1 N -0.0328(3) 0.3380(3) 0.0254(4)
N2 N -0.0840(3) 0.4936(3) 0.8159(4)
C1 C -0.1109(4) 0.3061(4) -0.0136(5)
H1 H -0.1520 0.3494 -0.0483
C2 C 0.0262(3) 0.2743(4) 0.0732(5)
H2 H 0.0811 0.2959 0.1009
C3 C -0.1342(4) 0.2122(4) -0.0052(6)
H3 H -0.1900 0.1930 -0.0320
C4 C 0.0093(3) 0.1778(4) 0.0835(4)
C5 C -0.0728(3) 0.1467(4) 0.0441(5)
H4 H -0.0867 0.0827 0.0505
C6 C 0.0806(3) 0.1111(4) 0.1334(6)
H5 H 0.1173 0.1007 0.0771
H6 H 0.1142 0.1378 0.2044
C7 C 0.0925(3) -0.0444(4) 0.2218(5)
C8 C 0.0472(3) -0.1208(3) 0.2598(4)
C9 C 0.1803(4) -0.0438(4) 0.2434(6)
H7 H 0.2096 0.0075 0.2194
C10 C 0.0936(3) -0.1973(4) 0.3144(5)
H8 H 0.0652 -0.2497 0.3376
C11 C 0.1814(4) -0.1971(4) 0.3352(6)
H9 H 0.2114 -0.2489 0.3722
C12 C 0.2241(4) -0.1205(4) 0.3011(6)
H10 H 0.2831 -0.1201 0.3170
C13 C -0.1088(3) 0.4769(4) 0.7180(4)
N2B N -0.0840(3) 0.5064(3) 0.3159(4)
Cd1B Cd 0.0000 0.5000 0.0000
Cd1B_2 Cd 0.0000 0.5000 1.0000
N2F N 0.0840(3) 0.4936(3) 0.6841(4)
S1D S 0.14588(9) 0.54709(10) 0.42148(11)
C13D C 0.1088(3) 0.5231(4) 0.2820(4)
N2D N 0.0840(3) 0.5064(3) 0.1841(4)
C8F C -0.0472(3) -0.1208(3) 0.2402(4)
C7F C -0.0925(3) -0.0444(4) 0.2782(5)
O1F O -0.0431(2) 0.0245(3) 0.3417(4)
C6F C -0.0806(3) 0.1111(4) 0.3666(6)
C4F C -0.0093(3) 0.1778(4) 0.4165(4)
C2F C -0.0262(3) 0.2743(4) 0.4268(5)
N1F N 0.0328(3) 0.3380(3) 0.4746(4)
N1B N -0.0328(3) 0.6620(3) 0.5254(4)
C1F C 0.1109(4) 0.3061(4) 0.5136(5)
H1F H 0.1520 0.3494 0.5483
C3F C 0.1342(4) 0.2122(4) 0.5052(6)
H3F H 0.1900 0.1930 0.5320
C5F C 0.0728(3) 0.1467(4) 0.4559(5)
H4F H 0.0867 0.0827 0.4495
H2F H -0.0811 0.2959 0.3991
H5F H -0.1173 0.1007 0.4229
H6F H -0.1142 0.1378 0.2956
C9F C -0.1803(4) -0.0438(4) 0.2566(6)
H7F H -0.2096 0.0075 0.2806
C12F C -0.2241(4) -0.1205(4) 0.1989(6)
C11F C -0.1814(4) -0.1971(4) 0.1648(6)
C10F C -0.0936(3) -0.1973(4) 0.1856(5)
H8F H -0.0652 -0.2497 0.1624
H9F H -0.2114 -0.2489 0.1278
H10F H -0.2831 -0.1201 0.1830
loop_
_geom_bond_atom_site_label_1
_geom_bond_atom_site_label_2
_geom_bond_site_symmetry_1
_geom_bond_site_symmetry_2
Cd1 S1 1_555 1_555
S1 C13 1_555 1_555
O1 C6 1_555 1_555
N1 C1 1_555 1_555
N2 C13 1_555 1_555
C1 H1 1_555 1_555
C2 N1 1_555 1_555
H2 C2 1_555 1_555
C3 C1 1_555 1_555
H3 C3 1_555 1_555
C4 C2 1_555 1_555
C5 C3 1_555 1_555
H4 C5 1_555 1_555
C6 C4 1_555 1_555
H5 C6 1_555 1_555
H6 C6 1_555 1_555
C7 O1 1_555 1_555
C8 C7 1_555 1_555
C9 C7 1_555 1_555
H7 C9 1_555 1_555
C10 C8 1_555 1_555
H8 C10 1_555 1_555
C11 C10 1_555 1_555
H9 C11 1_555 1_555
C12 C9 1_555 1_555
H10 C12 1_555 1_555
N2B Cd1 1_555 1_555
Cd1B N1 1_555 1_555
Cd1B_2 N2 1_555 1_555
N2F Cd1 1_555 1_555
S1D Cd1 1_555 1_555
C13D S1D 1_555 1_555
N2D Cd1B 1_555 1_555
C8F C8 1_555 1_555
C7F C8F 1_555 1_555
O1F C7F 1_555 1_555
C6F O1F 1_555 1_555
C4F C6F 1_555 1_555
C2F C4F 1_555 1_555
N1F Cd1 1_555 1_555
N1B Cd1 1_555 1_555
C1F N1F 1_555 1_555
H1F C1F 1_555 1_555
C3F C1F 1_555 1_555
H3F C3F 1_555 1_555
C5F C4F 1_555 1_555
H4F C5F 1_555 1_555
H2F C2F 1_555 1_555
H5F C6F 1_555 1_555
H6F C6F 1_555 1_555
C9F C7F 1_555 1_555
H7F C9F 1_555 1_555
C12F C9F 1_555 1_555
C11F C12F 1_555 1_555
C10F C8F 1_555 1_555
H8F C10F 1_555 1_555
H9F C11F 1_555 1_555
H10F C12F 1_555 1_555
C4 C5 1_555 1_555
C11 C12 1_555 1_555
C13D N2D 1_555 1_555
C2F N1F 1_555 1_555
C3F C5F 1_555 1_555
C11F C10F 1_555 1_555

#END
