
#######################################################################
#
#                 Cambridge Crystallographic Data Centre
#                                CCDC 
#
#######################################################################
#
# If this CIF has been generated from an entry in the Cambridge 
# Structural Database, then it will include bibliographic, chemical, 
# crystal, experimental, refinement or atomic coordinate data resulting 
# from the CCDC's data processing and validation procedures.
#
#######################################################################

data_IQOZIY
_symmetry_cell_setting           monoclinic
_symmetry_space_group_name_H-M   'C 2/c'
_symmetry_Int_Tables_number      15
_space_group_name_Hall           '-C 2yn'
loop_
_symmetry_equiv_pos_site_id
_symmetry_equiv_pos_as_xyz
1 x,y,z
2 -x,y,1/2-z
3 1/2+x,1/2+y,z
4 1/2-x,1/2+y,1/2-z
5 -x,-y,-z
6 x,-y,1/2+z
7 1/2-x,1/2-y,-z
8 1/2+x,1/2-y,1/2+z
_cell_length_a                   18.895(4)
_cell_length_b                   8.0248(16)
_cell_length_c                   17.604(4)
_cell_angle_alpha                90
_cell_angle_beta                 120.80(3)
_cell_angle_gamma                90
_cell_volume                     2292.8
loop_
_atom_site_label
_atom_site_type_symbol
_atom_site_fract_x
_atom_site_fract_y
_atom_site_fract_z
Mn1 Mn 0.037471(19) 0.72078(5) 0.46493(2)
O1 O 0.07751(12) 0.8069(3) 0.60078(14)
H1 H 0.0697(7) 0.7394(11) 0.6335(6)
H2 H 0.0477(6) 0.8905(10) 0.5976(12)
O2 O -0.41115(11) 0.0133(2) 0.00698(14)
O3 O -0.41545(10) 0.2622(2) 0.05857(12)
O4 O -0.15026(10) -0.1686(2) 0.02485(12)
O5 O -0.03523(9) -0.0259(2) 0.10406(12)
N1 N -0.12700(12) 0.4850(2) 0.21034(13)
N2 N -0.05900(12) 0.4786(3) 0.29190(13)
N3 N -0.04016(12) 0.6353(3) 0.31865(13)
C1 C -0.16510(14) 0.3343(3) 0.16230(15)
C2 C -0.24788(14) 0.3116(3) 0.13086(16)
H3 H -0.2774 0.3906 0.1421
C3 C -0.28710(13) 0.1687(3) 0.08182(15)
C4 C -0.24171(13) 0.0523(3) 0.06553(15)
H4 H -0.2674 -0.0437 0.0337
C5 C -0.15776(13) 0.0780(3) 0.09650(15)
C6 C -0.11911(14) 0.2199(3) 0.14563(16)
H5 H -0.0634 0.2383 0.1671
C7 C -0.37790(14) 0.1460(3) 0.04684(15)
C8 C -0.11153(14) -0.0465(3) 0.07359(16)
C9 C -0.09664(18) 0.7375(4) 0.25482(19)
H6 H -0.0974 0.8530 0.2582
C10 C -0.15172(16) 0.6442(3) 0.18538(17)
H7 H -0.1965 0.6812 0.1324
Mn1A Mn -0.037471(19) -0.27922(5) 0.03507(2)
Mn1G Mn -0.462529(19) -0.22078(5) -0.03507(2)
Mn1C Mn -0.537471(19) 0.22078(5) 0.03507(2)
O2G O 0.08885(11) 0.4867(2) 0.50698(14)
O3C O -0.08455(10) 0.7622(2) 0.44143(12)
O4A O 0.15026(10) 0.8314(2) 0.47515(12)
O5A O 0.03523(9) 0.9741(2) 0.39594(12)
loop_
_geom_bond_atom_site_label_1
_geom_bond_atom_site_label_2
_geom_bond_site_symmetry_1
_geom_bond_site_symmetry_2
Mn1 O1 1_555 1_555
O1 H1 1_555 1_555
H2 O1 1_555 1_555
O2 C7 1_555 1_555
O3 C7 1_555 1_555
O4 C8 1_555 1_555
O5 C8 1_555 1_555
N1 N2 1_555 1_555
N2 N3 1_555 1_555
N3 Mn1 1_555 1_555
C1 N1 1_555 1_555
C2 C1 1_555 1_555
H3 C2 1_555 1_555
C3 C2 1_555 1_555
C4 C3 1_555 1_555
H4 C4 1_555 1_555
C5 C4 1_555 1_555
C6 C1 1_555 1_555
H5 C6 1_555 1_555
C7 C3 1_555 1_555
C8 C5 1_555 1_555
C9 N3 1_555 1_555
H6 C9 1_555 1_555
C10 N1 1_555 1_555
H7 C10 1_555 1_555
Mn1A O4 1_555 1_555
Mn1G O2 1_555 1_555
Mn1C O3 1_555 1_555
O2G Mn1 1_555 1_555
O3C Mn1 1_555 1_555
O4A Mn1 1_555 1_555
O5A Mn1 1_555 1_555
O5 Mn1A 1_555 1_555
C5 C6 1_555 1_555
C9 C10 1_555 1_555

#END
