
#######################################################################
#
#                 Cambridge Crystallographic Data Centre
#                                CCDC 
#
#######################################################################
#
# If this CIF has been generated from an entry in the Cambridge 
# Structural Database, then it will include bibliographic, chemical, 
# crystal, experimental, refinement or atomic coordinate data resulting 
# from the CCDC's data processing and validation procedures.
#
#######################################################################

data_IQOZUK
_symmetry_cell_setting           triclinic
_symmetry_space_group_name_H-M   'P -1'
_symmetry_Int_Tables_number      2
_space_group_name_Hall           '-P 1'
loop_
_symmetry_equiv_pos_site_id
_symmetry_equiv_pos_as_xyz
1 x,y,z
2 -x,-y,-z
_cell_length_a                   6.994(3)
_cell_length_b                   10.990(4)
_cell_length_c                   12.008(5)
_cell_angle_alpha                82.639(10)
_cell_angle_beta                 82.527(10)
_cell_angle_gamma                71.827(9)
_cell_volume                     865.732
loop_
_atom_site_label
_atom_site_type_symbol
_atom_site_fract_x
_atom_site_fract_y
_atom_site_fract_z
Co1 Co 0.0000 0.5000 0.5000
Co2 Co 0.0000 0.0000 0.0000
O3 O 0.1732(4) -0.0641(2) 0.14076(19)
H5 H 0.146(5) -0.089(4) 0.2097(13)
H6 H 0.3015(18) -0.077(4) 0.134(3)
O4 O 0.2581(4) -0.1029(2) -0.0965(2)
H7 H 0.279(6) -0.160(3) -0.142(3)
H8 H 0.315(6) -0.047(3) -0.128(3)
O5 O 0.3121(3) 0.4075(2) 0.52764(16)
H9 H 0.386(4) 0.414(3) 0.4661(15)
H10 H 0.348(5) 0.448(3) 0.573(2)
O8 O 0.3954(3) 0.1055(2) -0.14783(18)
O9 O 0.1189(3) 0.15167(19) -0.02432(17)
O10 O 0.3798(4) 0.70599(19) -0.23970(17)
O11 O 0.4479(3) 0.5437(2) -0.34588(15)
O12 O 0.1175(4) 0.8338(2) 0.35972(18)
O13 O 0.0477(3) 0.68036(19) 0.48465(16)
N1 N 0.1724(3) 0.5303(2) 0.15255(17)
N2 N 0.1145(4) 0.4566(2) 0.24137(18)
N3 N 0.0764(4) 0.5253(2) 0.32725(18)
C1 C 0.3344(4) 0.5091(3) -0.1527(2)
C2 C 0.3433(4) 0.3826(3) -0.1627(2)
H15 H 0.3880 0.3481 -0.2316
C3 C 0.2854(4) 0.3075(3) -0.0700(2)
C4 C 0.2280(4) 0.3564(3) 0.0347(2)
H16 H 0.1906 0.3064 0.0971
C5 C 0.2277(4) 0.4805(2) 0.0443(2)
C6 C 0.2765(4) 0.5580(2) -0.0483(2)
H17 H 0.2705 0.6423 -0.0406
C7 C 0.3902(4) 0.5934(3) -0.2537(2)
C8 C 0.2677(4) 0.1766(3) -0.0820(2)
C9 C 0.1709(4) 0.6448(3) 0.1821(2)
H18 H 0.2040 0.7115 0.1362
C10 C 0.1093(4) 0.6406(3) 0.2953(2)
C11 C 0.0893(5) 0.7266(3) 0.3857(2)
Co1_2 Co 0.0000 -0.5000 -0.5000
O3A O -0.1732(4) 0.0641(2) -0.14076(19)
H5A H -0.146(5) 0.089(4) -0.2097(13)
H6A H -0.3015(18) 0.077(4) -0.134(3)
O4A O -0.2581(4) 0.1029(2) 0.0965(2)
H7A H -0.279(6) 0.160(3) 0.142(3)
H8A H -0.315(6) 0.047(3) 0.128(3)
O5A O -0.3121(3) 0.5925(2) 0.47236(16)
H9A H -0.386(4) 0.586(3) 0.5339(15)
H10A H -0.348(5) 0.552(3) 0.427(2)
O8A O -0.3954(3) -0.1055(2) 0.14783(18)
O9A O -0.1189(3) -0.15167(19) 0.02432(17)
O10A O -0.3798(4) -0.70599(19) 0.23970(17)
O11A O -0.4479(3) -0.5437(2) 0.34588(15)
O12A O -0.1175(4) -0.8338(2) -0.35972(18)
O13A O -0.0477(3) 0.31964(19) 0.51535(16)
O13A_2 O -0.0477(3) -0.68036(19) -0.48465(16)
N1A N -0.1724(3) -0.5303(2) -0.15255(17)
N2A N -0.1145(4) -0.4566(2) -0.24137(18)
N3A N -0.0764(4) 0.4747(2) 0.67275(18)
N3A_2 N -0.0764(4) -0.5253(2) -0.32725(18)
C1A C -0.3344(4) -0.5091(3) 0.1527(2)
C2A C -0.3433(4) -0.3826(3) 0.1627(2)
H15A H -0.3880 -0.3481 0.2316
C3A C -0.2854(4) -0.3075(3) 0.0700(2)
C4A C -0.2280(4) -0.3564(3) -0.0347(2)
H16A H -0.1906 -0.3064 -0.0971
C5A C -0.2277(4) -0.4805(2) -0.0443(2)
C6A C -0.2765(4) -0.5580(2) 0.0483(2)
H17A H -0.2705 -0.6423 0.0406
C7A C -0.3902(4) -0.5934(3) 0.2537(2)
C8A C -0.2677(4) -0.1766(3) 0.0820(2)
C9A C -0.1709(4) -0.6448(3) -0.1821(2)
H18A H -0.2040 -0.7115 -0.1362
C10A C -0.1093(4) -0.6406(3) -0.2953(2)
C11A C -0.0893(5) -0.7266(3) -0.3857(2)
Co3 Co 0.5000 1.0000 0.5000
O1 O 0.4180(4) 1.1304(3) 0.3595(2)
H1 H 0.472(5) 1.188(3) 0.330(3)
H2 H 0.293(2) 1.163(4) 0.347(4)
O2 O 0.2293(4) 0.9596(3) 0.5190(2)
H3 H 0.136(5) 0.975(4) 0.574(2)
H4 H 0.183(6) 0.924(4) 0.474(3)
O6 O 0.3839(4) 1.1434(2) 0.61141(19)
H11 H 0.397(6) 1.134(3) 0.6821(11)
H12 H 0.358(6) 1.2237(13) 0.592(3)
O1A O 0.5820(4) 0.8696(3) 0.6405(2)
H1A H 0.528(5) 0.812(3) 0.670(3)
H2A H 0.707(2) 0.837(4) 0.653(4)
O2A O 0.7707(4) 1.0404(3) 0.4810(2)
H3A H 0.864(5) 1.025(4) 0.426(2)
H4A H 0.817(6) 1.076(4) 0.526(3)
O6A O 0.6161(4) 0.8566(2) 0.38859(19)
H11A H 0.603(6) 0.866(3) 0.3179(11)
H12A H 0.642(6) 0.7763(13) 0.408(3)
O7 O 0.0303(6) 1.1706(4) 0.3233(4)
H13 H -0.090(4) 1.224(5) 0.319(5)
H14 H 0.054(9) 1.141(6) 0.258(3)
loop_
_geom_bond_atom_site_label_1
_geom_bond_atom_site_label_2
_geom_bond_site_symmetry_1
_geom_bond_site_symmetry_2
Co1 O5 1_555 1_555
Co2 O3 1_555 1_555
Co3 O1 1_555 1_555
O1 H1 1_555 1_555
H2 O1 1_555 1_555
O2 Co3 1_555 1_555
H3 O2 1_555 1_555
H4 O2 1_555 1_555
O3 H5 1_555 1_555
H6 O3 1_555 1_555
O4 Co2 1_555 1_555
H7 O4 1_555 1_555
H8 O4 1_555 1_555
O5 H9 1_555 1_555
H10 O5 1_555 1_555
O6 Co3 1_555 1_555
H11 O6 1_555 1_555
H12 O6 1_555 1_555
O7 H13 1_555 1_555
H14 O7 1_555 1_555
O8 C8 1_555 1_555
O9 Co2 1_555 1_555
O10 C7 1_555 1_555
O11 C7 1_555 1_555
O12 C11 1_555 1_555
O13 Co1 1_555 1_555
N1 N2 1_555 1_555
N2 N3 1_555 1_555
N3 Co1 1_555 1_555
C1 C2 1_555 1_555
C2 H15 1_555 1_555
C3 C2 1_555 1_555
C4 C3 1_555 1_555
H16 C4 1_555 1_555
C5 N1 1_555 1_555
C6 C1 1_555 1_555
H17 C6 1_555 1_555
C7 C1 1_555 1_555
C8 O9 1_555 1_555
C9 N1 1_555 1_555
H18 C9 1_555 1_555
C10 N3 1_555 1_555
C11 O13 1_555 1_555
Co1_2 O13A_2 1_555 1_555
O1A Co3 1_555 1_555
H1A O1A 1_555 1_555
H2A O1A 1_555 1_555
O2A Co3 1_555 1_555
H3A O2A 1_555 1_555
H4A O2A 1_555 1_555
O3A Co2 1_555 1_555
H5A O3A 1_555 1_555
H6A O3A 1_555 1_555
O4A Co2 1_555 1_555
H7A O4A 1_555 1_555
H8A O4A 1_555 1_555
O5A Co1 1_555 1_555
H9A O5A 1_555 1_555
H10A O5A 1_555 1_555
O6A Co3 1_555 1_555
H11A O6A 1_555 1_555
H12A O6A 1_555 1_555
O8A C8A 1_555 1_555
O9A Co2 1_555 1_555
O10A C7A 1_555 1_555
O11A C7A 1_555 1_555
O12A C11A 1_555 1_555
O13A Co1 1_555 1_555
O13A_2 C11A 1_555 1_555
N1A N2A 1_555 1_555
N2A N3A_2 1_555 1_555
N3A Co1 1_555 1_555
N3A_2 Co1_2 1_555 1_555
C1A C2A 1_555 1_555
C2A H15A 1_555 1_555
C3A C2A 1_555 1_555
C4A C3A 1_555 1_555
H16A C4A 1_555 1_555
C5A N1A 1_555 1_555
C6A C1A 1_555 1_555
H17A C6A 1_555 1_555
C7A C1A 1_555 1_555
C8A O9A 1_555 1_555
C9A N1A 1_555 1_555
H18A C9A 1_555 1_555
C10A N3A_2 1_555 1_555
C11A C10A 1_555 1_555
C3 C8 1_555 1_555
C4 C5 1_555 1_555
C5 C6 1_555 1_555
C9 C10 1_555 1_555
C10 C11 1_555 1_555
C3A C8A 1_555 1_555
C4A C5A 1_555 1_555
C5A C6A 1_555 1_555
C9A C10A 1_555 1_555

#END
