
#######################################################################
#
#                 Cambridge Crystallographic Data Centre
#                                CCDC 
#
#######################################################################
#
# If this CIF has been generated from an entry in the Cambridge 
# Structural Database, then it will include bibliographic, chemical, 
# crystal, experimental, refinement or atomic coordinate data resulting 
# from the CCDC's data processing and validation procedures.
#
#######################################################################

data_IQOZAQ
_symmetry_cell_setting           triclinic
_symmetry_space_group_name_H-M   'P -1'
_symmetry_Int_Tables_number      2
_space_group_name_Hall           '-P 1'
loop_
_symmetry_equiv_pos_site_id
_symmetry_equiv_pos_as_xyz
1 x,y,z
2 -x,-y,-z
_cell_length_a                   9.742(3)
_cell_length_b                   12.158(3)
_cell_length_c                   12.383(3)
_cell_angle_alpha                61.150(3)
_cell_angle_beta                 76.851(3)
_cell_angle_gamma                82.676(4)
_cell_volume                     1250.7
loop_
_atom_site_label
_atom_site_type_symbol
_atom_site_fract_x
_atom_site_fract_y
_atom_site_fract_z
Ag1 Ag 0.52007(9) 1.34253(7) 0.37099(6)
Tb1 Tb 0.82610(4) 1.02049(4) -0.07203(3)
C1 C 0.7798(8) 1.2438(8) -0.0471(7)
C2 C 0.7545(9) 1.3602(8) -0.0321(8)
C3 C 0.8158(10) 1.4734(9) -0.1302(9)
H1 H 0.8771 1.4725 -0.1994
C4 C 0.7871(10) 1.5848(9) -0.1258(8)
H2 H 0.8277 1.6593 -0.1904
C5 C 0.6945(10) 1.5813(8) -0.0201(8)
C6 C 0.6387(9) 1.4684(8) 0.0811(8)
C7 C 0.6674(9) 1.3551(9) 0.0757(8)
H3 H 0.6297 1.2799 0.1415
C8 C 0.5567(10) 1.6144(9) 0.1292(9)
H4 H 0.5071 1.6574 0.1714
C9 C 0.9007(9) 1.8082(8) 0.1404(8)
C10 C 0.8633(8) 1.7047(8) 0.2711(8)
C11 C 0.8960(9) 1.7092(9) 0.3727(8)
H5 H 0.9414 1.7790 0.3586
C12 C 0.8626(10) 1.6125(9) 0.4941(8)
H6 H 0.8867 1.6150 0.5613
C13 C 0.7921(9) 1.5122(9) 0.5111(8)
C14 C 0.7531(9) 1.5072(8) 0.4104(8)
C15 C 0.7930(10) 1.6026(8) 0.2895(8)
H7 H 0.7732 1.5986 0.2215
C16 C 0.6814(12) 1.3374(10) 0.5779(9)
H8 H 0.6422 1.2590 0.6324
C17 C 0.1998(9) 1.0105(8) 0.2759(8)
C18 C 0.2288(9) 1.0072(8) 0.3918(7)
C19 C 0.1677(10) 0.9121(9) 0.5096(8)
H9 H 0.1108 0.8535 0.5142
C20 C 0.1915(10) 0.9046(9) 0.6202(8)
H10 H 0.1515 0.8425 0.6990
C21 C 0.2780(10) 0.9949(8) 0.6061(8)
C22 C 0.3369(9) 1.0898(8) 0.4898(7)
C23 C 0.3135(9) 1.0959(8) 0.3795(7)
H11 H 0.3540 1.1579 0.3008
C24 C 0.4001(10) 1.1176(9) 0.6307(8)
H12 H 0.4399 1.1518 0.6691
C25 C 0.4928(9) 1.0588(8) -0.0631(7)
N1 N 0.6403(8) 1.6722(7) 0.0152(7)
H13 H 0.6568 1.7512 -0.0277
N2 N 0.5514(8) 1.4919(7) 0.1756(6)
N3 N 0.7446(8) 1.4007(7) 0.6151(7)
H14 H 0.7542 1.3764 0.6908
N4 N 0.6796(9) 1.3970(8) 0.4555(7)
N5 N 0.4152(8) 1.1662(7) 0.5074(6)
N6 N 0.3221(8) 1.0144(7) 0.6948(6)
H15 H 0.3029 0.9690 0.7750
O1 O 0.8250(6) 1.2542(5) -0.1552(5)
O2 O 0.7522(7) 1.1367(5) 0.0472(5)
O3 O 0.9350(6) 1.9161(5) 0.1261(5)
O4 O 0.8910(6) 1.7991(5) 0.0476(5)
O5 O 0.2535(7) 1.0931(6) 0.1679(5)
O6 O 0.1273(7) 0.9228(6) 0.2892(5)
O7 O 0.6029(6) 1.1132(6) -0.1339(5)
O8 O 0.3706(6) 1.0912(6) -0.0854(5)
Ag1A Ag 0.47993(9) 0.65747(7) -0.37099(6)
Ag1_2 Ag 0.52007(9) 0.34253(7) 0.37099(6)
Ag1_3 Ag 0.52007(9) 2.34253(7) 0.37099(6)
Tb1_2 Tb 0.82610(4) 2.02049(4) -0.07203(3)
Tb1A Tb 1.17390(4) 1.97951(4) 0.07203(3)
Tb1A_2 Tb 0.17390(4) 0.97951(4) 0.07203(3)
Tb1A_3 Tb 1.17390(4) 0.97951(4) 0.07203(3)
C1_2 C 0.7798(8) 2.2438(8) -0.0471(7)
C2_2 C 0.7545(9) 2.3602(8) -0.0321(8)
C3_2 C 0.8158(10) 2.4734(9) -0.1302(9)
H1_2 H 0.8771 2.4725 -0.1994
C4_2 C 0.7871(10) 2.5848(9) -0.1258(8)
H2_2 H 0.8277 2.6593 -0.1904
C5_2 C 0.6945(10) 2.5813(8) -0.0201(8)
C6_2 C 0.6387(9) 2.4684(8) 0.0811(8)
C7_2 C 0.6674(9) 2.3551(9) 0.0757(8)
H3_2 H 0.6297 2.2799 0.1415
C8_2 C 0.5567(10) 2.6144(9) 0.1292(9)
H4_2 H 0.5071 2.6574 0.1714
C9_2 C 0.9007(9) 0.8082(8) 0.1404(8)
C10_2 C 0.8633(8) 0.7047(8) 0.2711(8)
C11_2 C 0.8960(9) 0.7092(9) 0.3727(8)
H5_2 H 0.9414 0.7790 0.3586
C12_2 C 0.8626(10) 0.6125(9) 0.4941(8)
H6_2 H 0.8867 0.6150 0.5613
C13_2 C 0.7921(9) 0.5122(9) 0.5111(8)
C14_2 C 0.7531(9) 0.5072(8) 0.4104(8)
C15_2 C 0.7930(10) 0.6026(8) 0.2895(8)
H7_2 H 0.7732 0.5986 0.2215
C16_2 C 0.6814(12) 0.3374(10) 0.5779(9)
H8_2 H 0.6422 0.2590 0.6324
C17A C 0.8002(9) 0.9895(8) -0.2759(8)
C18A C 0.7712(9) 0.9928(8) -0.3918(7)
C19A C 0.8323(10) 1.0879(9) -0.5096(8)
H9A H 0.8892 1.1465 -0.5142
C20A C 0.8085(10) 1.0954(9) -0.6202(8)
H10A H 0.8485 1.1575 -0.6990
C21A C 0.7220(10) 1.0051(8) -0.6061(8)
C22A C 0.6631(9) 0.9102(8) -0.4898(7)
C23A C 0.6865(9) 0.9041(8) -0.3795(7)
H11A H 0.6460 0.8421 -0.3008
C24A C 0.5999(10) 0.8824(9) -0.6307(8)
H12A H 0.5601 0.8482 -0.6691
C25A C 0.5072(9) 0.9412(8) 0.0631(7)
N1_2 N 0.6403(8) 2.6722(7) 0.0152(7)
H13_2 H 0.6568 2.7512 -0.0277
N2_2 N 0.5514(8) 2.4919(7) 0.1756(6)
N2A N 0.4486(8) 0.5081(7) -0.1756(6)
N3_2 N 0.7446(8) 0.4007(7) 0.6151(7)
H14_2 H 0.7542 0.3764 0.6908
N4_2 N 0.6796(9) 0.3970(8) 0.4555(7)
N4A N 0.3204(9) 0.6030(8) -0.4555(7)
N5A N 0.5848(8) 0.8338(7) -0.5074(6)
N6A N 0.6779(8) 0.9856(7) -0.6948(6)
H15A H 0.6971 1.0310 -0.7750
O1_2 O 0.8250(6) 2.2542(5) -0.1552(5)
O2_2 O 0.7522(7) 2.1367(5) 0.0472(5)
O3_2 O 0.9350(6) 0.9161(5) 0.1261(5)
O3A O 1.0650(6) 1.0839(5) -0.1261(5)
O3A_2 O 1.0650(6) 2.0839(5) -0.1261(5)
O4_2 O 0.8910(6) 0.7991(5) 0.0476(5)
O5A O 0.7465(7) 0.9069(6) -0.1679(5)
O5A_2 O 0.7465(7) 1.9069(6) -0.1679(5)
O6A O 0.8727(7) 1.0772(6) -0.2892(5)
O6A_2 O 0.8727(7) 2.0772(6) -0.2892(5)
O7A O 0.3971(6) 0.8868(6) 0.1339(5)
O7_2 O 0.6029(6) 2.1132(6) -0.1339(5)
O8A O 0.6294(6) 0.9088(6) 0.0854(5)
O8A_2 O 0.6294(6) 1.9088(6) 0.0854(5)
loop_
_geom_bond_atom_site_label_1
_geom_bond_atom_site_label_2
_geom_bond_site_symmetry_1
_geom_bond_site_symmetry_2
Ag1 N2 1_555 1_555
Tb1 O1 1_555 1_555
C1 C2 1_555 1_555
C2 C3 1_555 1_555
C3 H1 1_555 1_555
C4 C3 1_555 1_555
H2 C4 1_555 1_555
C5 C4 1_555 1_555
C6 C5 1_555 1_555
C7 C2 1_555 1_555
H3 C7 1_555 1_555
C8 H4 1_555 1_555
C9 C10 1_555 1_555
C10 C11 1_555 1_555
C11 H5 1_555 1_555
C12 C11 1_555 1_555
H6 C12 1_555 1_555
C13 C12 1_555 1_555
C14 C13 1_555 1_555
C15 C10 1_555 1_555
H7 C15 1_555 1_555
C16 H8 1_555 1_555
C17 C18 1_555 1_555
C18 C19 1_555 1_555
C19 H9 1_555 1_555
C20 C19 1_555 1_555
H10 C20 1_555 1_555
C21 C20 1_555 1_555
C22 C21 1_555 1_555
C23 C18 1_555 1_555
H11 C23 1_555 1_555
C24 H12 1_555 1_555
C25 O7 1_555 1_555
N1 C5 1_555 1_555
H13 N1 1_555 1_555
N2 C6 1_555 1_555
N3 C13 1_555 1_555
H14 N3 1_555 1_555
N4 Ag1 1_555 1_555
N5 Ag1 1_555 1_555
N6 C21 1_555 1_555
H15 N6 1_555 1_555
O1 C1 1_555 1_555
O2 Tb1 1_555 1_555
O3 C9 1_555 1_555
O4 C9 1_555 1_555
O5 C17 1_555 1_555
O6 C17 1_555 1_555
O7 Tb1 1_555 1_555
O8 C25 1_555 1_555
Ag1A N2A 1_555 1_555
Ag1_2 N4_2 1_555 1_555
Ag1_3 N2_2 1_555 1_555
Tb1_2 O3 1_555 1_555
Tb1A O3 1_555 1_555
Tb1A_2 O5 1_555 1_555
Tb1A_3 O3_2 1_555 1_555
C1_2 C2_2 1_555 1_555
C2_2 C3_2 1_555 1_555
C3_2 H1_2 1_555 1_555
C4_2 C3_2 1_555 1_555
H2_2 C4_2 1_555 1_555
C5_2 C4_2 1_555 1_555
C6_2 C5_2 1_555 1_555
C7_2 C2_2 1_555 1_555
H3_2 C7_2 1_555 1_555
C8_2 H4_2 1_555 1_555
C9_2 C10_2 1_555 1_555
C10_2 C11_2 1_555 1_555
C11_2 H5_2 1_555 1_555
C12_2 C11_2 1_555 1_555
H6_2 C12_2 1_555 1_555
C13_2 C12_2 1_555 1_555
C14_2 C13_2 1_555 1_555
C15_2 C10_2 1_555 1_555
H7_2 C15_2 1_555 1_555
C16_2 H8_2 1_555 1_555
C17A C18A 1_555 1_555
C18A C19A 1_555 1_555
C19A H9A 1_555 1_555
C20A C19A 1_555 1_555
H10A C20A 1_555 1_555
C21A C20A 1_555 1_555
C22A C21A 1_555 1_555
C23A C18A 1_555 1_555
H11A C23A 1_555 1_555
C24A H12A 1_555 1_555
C25A C25 1_555 1_555
N1_2 C5_2 1_555 1_555
H13_2 N1_2 1_555 1_555
N2_2 C6_2 1_555 1_555
N3_2 C13_2 1_555 1_555
H14_2 N3_2 1_555 1_555
N4_2 C14_2 1_555 1_555
N4A Ag1A 1_555 1_555
N5A Ag1A 1_555 1_555
N6A C21A 1_555 1_555
H15A N6A 1_555 1_555
O1_2 Tb1_2 1_555 1_555
O2_2 Tb1_2 1_555 1_555
O3_2 Tb1 1_555 1_555
O3A Tb1 1_555 1_555
O3A_2 Tb1_2 1_555 1_555
O4_2 Tb1 1_555 1_555
O5A Tb1 1_555 1_555
O5A_2 Tb1_2 1_555 1_555
O6A Tb1 1_555 1_555
O6A_2 Tb1_2 1_555 1_555
O7A Tb1A_2 1_555 1_555
O7_2 Tb1_2 1_555 1_555
O8A Tb1 1_555 1_555
O8A_2 Tb1_2 1_555 1_555
C1 O2 1_555 1_555
C6 C7 1_555 1_555
C8 N1 1_555 1_555
C8 N2 1_555 1_555
C14 C15 1_555 1_555
C14 N4 1_555 1_555
C16 N3 1_555 1_555
C16 N4 1_555 1_555
C22 C23 1_555 1_555
C22 N5 1_555 1_555
C24 N5 1_555 1_555
C24 N6 1_555 1_555
O4 Tb1_2 1_555 1_555
O6 Tb1A_2 1_555 1_555
O8 Tb1A_2 1_555 1_555
Tb1A O3A_2 1_555 1_555
Tb1A_3 O3A 1_555 1_555
C1_2 O1_2 1_555 1_555
C1_2 O2_2 1_555 1_555
C6_2 C7_2 1_555 1_555
C8_2 N1_2 1_555 1_555
C8_2 N2_2 1_555 1_555
C9_2 O3_2 1_555 1_555
C9_2 O4_2 1_555 1_555
C14_2 C15_2 1_555 1_555
C16_2 N3_2 1_555 1_555
C16_2 N4_2 1_555 1_555
C17A O5A 1_555 1_555
C17A O6A 1_555 1_555
C22A C23A 1_555 1_555
C22A N5A 1_555 1_555
C24A N5A 1_555 1_555
C24A N6A 1_555 1_555
C25A O7A 1_555 1_555
C25A O8A 1_555 1_555

#END
