
#######################################################################
#
#                 Cambridge Crystallographic Data Centre
#                                CCDC 
#
#######################################################################
#
# If this CIF has been generated from an entry in the Cambridge 
# Structural Database, then it will include bibliographic, chemical, 
# crystal, experimental, refinement or atomic coordinate data resulting 
# from the CCDC's data processing and validation procedures.
#
#######################################################################

data_IQUBOM
_symmetry_cell_setting           monoclinic
_symmetry_space_group_name_H-M   'C c'
_symmetry_Int_Tables_number      9
_space_group_name_Hall           'C -2yc'
loop_
_symmetry_equiv_pos_site_id
_symmetry_equiv_pos_as_xyz
1 x,y,z
2 x,-y,1/2+z
3 1/2+x,1/2+y,z
4 1/2+x,1/2-y,1/2+z
_cell_length_a                   12.427(2)
_cell_length_b                   17.568(3)
_cell_length_c                   6.8755(12)
_cell_angle_alpha                90
_cell_angle_beta                 122.749(2)
_cell_angle_gamma                90
_cell_volume                     1262.45
loop_
_atom_site_label
_atom_site_type_symbol
_atom_site_fract_x
_atom_site_fract_y
_atom_site_fract_z
Cu1 Cu 0.99839(6) 0.03028(2) 0.22268(9)
O1 O 0.9073(3) -0.0571(2) 0.0362(5)
N1 N 0.8555(4) 0.0978(2) 0.0044(7)
N2 N 1.1122(4) 0.1157(2) 0.4395(7)
N3 N 1.1016(4) -0.0402(2) 0.4926(7)
N4 N 1.1401(4) -0.0990(2) 0.4678(6)
N5 N 1.1804(5) -0.1562(3) 0.4504(8)
C1 C 0.6986(4) -0.0040(3) -0.1316(6)
C2 C 0.7838(4) -0.0657(3) -0.0625(6)
C3 C 0.7301(5) -0.1392(3) -0.1019(8)
H1 H 0.7832 -0.1816 -0.0562
C4 C 0.6004(5) -0.1490(3) -0.2071(8)
H2 H 0.5679 -0.1982 -0.2317
C5 C 0.5195(5) -0.0903(4) -0.2752(11)
H3 H 0.4321 -0.0985 -0.3463
C6 C 0.5667(4) -0.0187(3) -0.2390(7)
H4 H 0.5103 0.0222 -0.2864
C7 C 0.7417(4) 0.0726(3) -0.1127(8)
H5 H 0.6783 0.1087 -0.1971
C8 C 0.8799(5) 0.1785(3) -0.0178(8)
H6 H 0.7987 0.2047 -0.1125
H7 H 0.9254 0.1818 -0.0959
C9 C 0.9575(5) 0.2181(3) 0.2146(10)
H8 H 0.9541 0.2726 0.1893
H9 H 0.9186 0.2080 0.3021
C10 C 1.0917(5) 0.1942(3) 0.3519(9)
H10 H 1.1382 0.2285 0.4824
H11 H 1.1277 0.1992 0.2577
C11 C 1.2498(5) 0.0980(3) 0.5647(9)
H12 H 1.2778 0.0996 0.4592
H13 H 1.2646 0.0482 0.6316
H14 H 1.2967 0.1349 0.6851
H15 H 1.091(4) 0.106(2) 0.543(6)
Cu1A Cu 0.99839(6) -0.03028(2) 0.72268(9)
N3A N 1.1016(4) 0.0402(2) -0.0074(7)
loop_
_geom_bond_atom_site_label_1
_geom_bond_atom_site_label_2
_geom_bond_site_symmetry_1
_geom_bond_site_symmetry_2
Cu1 O1 1_555 1_555
O1 C2 1_555 1_555
N1 Cu1 1_555 1_555
N2 Cu1 1_555 1_555
N3 Cu1 1_555 1_555
N4 N3 1_555 1_555
N5 N4 1_555 1_555
C1 C2 1_555 1_555
C2 C3 1_555 1_555
C3 H1 1_555 1_555
C4 C3 1_555 1_555
H2 C4 1_555 1_555
C5 C4 1_555 1_555
H3 C5 1_555 1_555
C6 C1 1_555 1_555
H4 C6 1_555 1_555
C7 N1 1_555 1_555
H5 C7 1_555 1_555
C8 N1 1_555 1_555
H6 C8 1_555 1_555
H7 C8 1_555 1_555
C9 C8 1_555 1_555
H8 C9 1_555 1_555
H9 C9 1_555 1_555
C10 N2 1_555 1_555
H10 C10 1_555 1_555
H11 C10 1_555 1_555
C11 N2 1_555 1_555
H12 C11 1_555 1_555
H13 C11 1_555 1_555
H14 C11 1_555 1_555
H15 N2 1_555 1_555
Cu1A N3 1_555 1_555
N3A Cu1 1_555 1_555
C1 C7 1_555 1_555
C5 C6 1_555 1_555
C9 C10 1_555 1_555

#END
