
#######################################################################
#
#                 Cambridge Crystallographic Data Centre
#                                CCDC 
#
#######################################################################
#
# If this CIF has been generated from an entry in the Cambridge 
# Structural Database, then it will include bibliographic, chemical, 
# crystal, experimental, refinement or atomic coordinate data resulting 
# from the CCDC's data processing and validation procedures.
#
#######################################################################

data_IQUBOM01
_symmetry_cell_setting           monoclinic
_symmetry_space_group_name_H-M   'C c'
_symmetry_Int_Tables_number      9
_space_group_name_Hall           'C -2yc'
loop_
_symmetry_equiv_pos_site_id
_symmetry_equiv_pos_as_xyz
1 x,y,z
2 x,-y,1/2+z
3 1/2+x,1/2+y,z
4 1/2+x,1/2-y,1/2+z
_cell_length_a                   12.2687(6)
_cell_length_b                   17.4391(19)
_cell_length_c                   6.7857(4)
_cell_angle_alpha                90
_cell_angle_beta                 122.552(6)
_cell_angle_gamma                90
_cell_volume                     1223.76
loop_
_atom_site_label
_atom_site_type_symbol
_atom_site_fract_x
_atom_site_fract_y
_atom_site_fract_z
C1 C 0.0315(8) 0.5672(5) 0.0551(12)
C2 C -0.0236(8) 0.6407(5) 0.0134(13)
H1 H 0.0302 0.6834 0.0580
C3 C -0.1542(9) 0.6516(6) -0.0911(15)
H2 H -0.1872 0.7011 -0.1190
C4 C -0.2372(9) 0.5899(6) -0.155(2)
H3 H -0.3251 0.5980 -0.2205
C5 C -0.1894(7) 0.5163(5) -0.1229(14)
H4 H -0.2455 0.4747 -0.1719
C6 C -0.0552(7) 0.5043(5) -0.0151(12)
C7 C -0.0151(9) 0.4263(6) -0.0023(17)
H5 H -0.0791 0.3899 -0.0869
C8 C 0.1281(8) 0.3210(5) 0.0918(17)
H6 H 0.0460 0.2952 -0.0084
H7 H 0.1763 0.3184 0.0162
C9 C 0.2015(9) 0.2802(5) 0.3192(16)
H8 H 0.1968 0.2256 0.2891
H9 H 0.1596 0.2896 0.4041
C10 C 0.3418(8) 0.3028(4) 0.4730(14)
H10 H 0.3843 0.2685 0.6065
H11 H 0.3831 0.2965 0.3858
C11 C 0.4997(9) 0.4008(6) 0.6892(18)
H12 H 0.5464 0.3622 0.8061
H13 H 0.5144 0.4499 0.7632
H14 H 0.5292 0.4019 0.5837
N1 N 0.3523(8) 0.5407(4) 0.6174(13)
N2 N 0.3908(6) 0.6012(4) 0.5902(11)
N3 N 0.4263(7) 0.6587(4) 0.5656(13)
N4 N 0.1035(7) 0.4028(4) 0.1179(12)
N5 N 0.3601(7) 0.3830(4) 0.5578(12)
H15 H 0.3404 0.3815 0.6693
O1 O 0.1572(6) 0.5592(4) 0.1546(11)
Cu1 Cu 0.24828(11) 0.46956(4) 0.34093(15)
N1A N 0.3523(8) 0.4593(4) 0.1174(13)
Cu1A Cu 0.24828(11) 0.53044(4) 0.84093(15)
loop_
_geom_bond_atom_site_label_1
_geom_bond_atom_site_label_2
_geom_bond_site_symmetry_1
_geom_bond_site_symmetry_2
C1 C2 1_555 1_555
C2 H1 1_555 1_555
C3 C2 1_555 1_555
H2 C3 1_555 1_555
C4 C3 1_555 1_555
H3 C4 1_555 1_555
C5 C4 1_555 1_555
H4 C5 1_555 1_555
C6 C1 1_555 1_555
C7 C6 1_555 1_555
H5 C7 1_555 1_555
C8 H6 1_555 1_555
H7 C8 1_555 1_555
C9 C8 1_555 1_555
H8 C9 1_555 1_555
H9 C9 1_555 1_555
C10 C9 1_555 1_555
H10 C10 1_555 1_555
H11 C10 1_555 1_555
C11 H12 1_555 1_555
H13 C11 1_555 1_555
H14 C11 1_555 1_555
N1 N2 1_555 1_555
N2 N3 1_555 1_555
N4 C7 1_555 1_555
N5 C10 1_555 1_555
H15 N5 1_555 1_555
O1 C1 1_555 1_555
Cu1 N1 1_555 1_555
N1A Cu1 1_555 1_555
Cu1A N1 1_555 1_555
C5 C6 1_555 1_555
C8 N4 1_555 1_555
C11 N5 1_555 1_555
N4 Cu1 1_555 1_555
N5 Cu1 1_555 1_555
O1 Cu1 1_555 1_555

#END
