
#######################################################################
#
#                 Cambridge Crystallographic Data Centre
#                                CCDC 
#
#######################################################################
#
# If this CIF has been generated from an entry in the Cambridge 
# Structural Database, then it will include bibliographic, chemical, 
# crystal, experimental, refinement or atomic coordinate data resulting 
# from the CCDC's data processing and validation procedures.
#
#######################################################################

data_IQUCUT
_symmetry_cell_setting           triclinic
_symmetry_space_group_name_H-M   'P -1'
_symmetry_Int_Tables_number      2
_space_group_name_Hall           '-P 1'
loop_
_symmetry_equiv_pos_site_id
_symmetry_equiv_pos_as_xyz
1 x,y,z
2 -x,-y,-z
_cell_length_a                   9.5695(3)
_cell_length_b                   9.6849(3)
_cell_length_c                   15.3922(6)
_cell_angle_alpha                81.865(2)
_cell_angle_beta                 84.001(2)
_cell_angle_gamma                83.248(2)
_cell_volume                     1396.78
loop_
_atom_site_label
_atom_site_type_symbol
_atom_site_fract_x
_atom_site_fract_y
_atom_site_fract_z
Zn1 Zn 0.26594(2) 0.48889(2) 0.753307(15)
O1 O 0.49366(14) 0.47652(15) 0.76235(10)
O2 O 0.58136(15) 0.36297(17) 0.64796(10)
O3 O 1.02245(14) 0.50826(16) 0.74291(10)
O4 O 0.93375(16) 0.65633(19) 0.83847(12)
N1 N 0.21923(17) 0.53567(17) 0.88411(11)
H1 H 0.1240 0.5695 0.8872
N2 N 0.26682(17) 0.70243(18) 0.69882(11)
H2 H 0.1736 0.7410 0.6949
N3 N 0.29081(17) 0.45417(17) 0.62019(11)
H3 H 0.3861 0.4225 0.6111
N4 N 0.24164(17) 0.28152(17) 0.80980(11)
H4 H 0.3307 0.2344 0.8179
C1 C 0.2906(2) 0.6499(2) 0.91023(13)
H5 H 0.3947 0.6210 0.9069
C2 C 0.2631(2) 0.7840(2) 0.84631(14)
H6 H 0.1599 0.8029 0.8423
H7 H 0.2931 0.8625 0.8722
C3 C 0.3349(2) 0.7860(2) 0.75284(14)
H8 H 0.3321 0.8842 0.7239
H9 H 0.4353 0.7483 0.7558
C4 C 0.2405(2) 0.6797(2) 1.00452(14)
H10 H 0.2547 0.5931 1.0455
H11 H 0.1400 0.7145 1.0077
H12 H 0.2949 0.7505 1.0205
C5 C 0.3366(2) 0.7011(2) 0.60774(13)
H13 H 0.4393 0.6704 0.6129
C6 C 0.3261(2) 0.8439(2) 0.55012(15)
H14 H 0.3610 0.9141 0.5811
H15 H 0.3869 0.8371 0.4944
C7 C 0.1737(2) 0.8925(2) 0.52914(15)
H16 H 0.1134 0.9053 0.5843
H17 H 0.1703 0.9837 0.4907
C8 C 0.1188(2) 0.7836(2) 0.48296(15)
H18 H 0.1761 0.7756 0.4262
H19 H 0.0199 0.8148 0.4702
C9 C 0.1251(2) 0.6399(2) 0.53939(15)
H20 H 0.0915 0.5709 0.5069
H21 H 0.0623 0.6459 0.5944
C10 C 0.2772(2) 0.5911(2) 0.56209(14)
H22 H 0.3373 0.5804 0.5058
C11 C 0.2183(2) 0.3402(2) 0.59522(13)
H23 H 0.1144 0.3700 0.5980
C12 C 0.2443(2) 0.2068(2) 0.65995(14)
H24 H 0.3473 0.1880 0.6650
H25 H 0.2152 0.1278 0.6341
C13 C 0.1701(2) 0.2058(2) 0.75300(14)
H26 H 0.0717 0.2496 0.7491
H27 H 0.1663 0.1075 0.7807
C14 C 0.2695(2) 0.3097(2) 0.50117(14)
H28 H 0.2575 0.3965 0.4601
H29 H 0.2141 0.2402 0.4847
H30 H 0.3696 0.2731 0.4987
C15 C 0.1634(2) 0.2918(2) 0.89787(13)
H31 H 0.0632 0.3278 0.8880
C16 C 0.1610(2) 0.1533(2) 0.95936(15)
H32 H 0.1252 0.0830 0.9289
H33 H 0.0953 0.1676 1.0122
C17 C 0.3079(2) 0.0969(2) 0.98815(15)
H34 H 0.3009 0.0108 1.0308
H35 H 0.3714 0.0726 0.9363
C18 C 0.3691(2) 0.2071(2) 1.03072(15)
H36 H 0.4659 0.1713 1.0458
H37 H 0.3107 0.2236 1.0860
C19 C 0.3735(2) 0.3457(2) 0.96939(14)
H38 H 0.4370 0.3312 0.9157
H39 H 0.4111 0.4155 0.9994
C20 C 0.2245(2) 0.4005(2) 0.94395(13)
H40 H 0.1625 0.4151 0.9990
C21 C 0.5936(2) 0.4283(2) 0.71058(14)
C22 C 0.7416(2) 0.4552(2) 0.72347(14)
H41 H 0.8173 0.4081 0.6904
C23 C 0.9220(2) 0.5712(2) 0.78632(14)
C24 C 0.7742(2) 0.5389(2) 0.77716(14)
H42 H 0.6990 0.5820 0.8127
Zn1_2 Zn 1.26594(2) 0.48889(2) 0.753307(15)
O3_2 O 0.02245(14) 0.50826(16) 0.74291(10)
O5 O 0.49426(17) 0.07085(18) 0.78675(12)
N5 N 0.72868(19) 0.0139(2) 0.75512(13)
C25 C 0.6164(3) 0.0866(2) 0.79289(16)
H43 H 0.6340 0.1559 0.8272
C26 C 0.8715(3) 0.0304(3) 0.7710(2)
H44 H 0.8700 0.1033 0.8094
H45 H 0.9257 0.0577 0.7148
H46 H 0.9158 -0.0585 0.7996
C27 C 0.7072(3) -0.0902(3) 0.70037(19)
H47 H 0.6174 -0.0641 0.6740
H48 H 0.7050 -0.1819 0.7364
H49 H 0.7847 -0.0950 0.6536
loop_
_geom_bond_atom_site_label_1
_geom_bond_atom_site_label_2
_geom_bond_site_symmetry_1
_geom_bond_site_symmetry_2
Zn1 O1 1_555 1_555
O1 C21 1_555 1_555
O2 C21 1_555 1_555
O3 C23 1_555 1_555
O4 C23 1_555 1_555
N1 Zn1 1_555 1_555
H1 N1 1_555 1_555
N2 Zn1 1_555 1_555
H2 N2 1_555 1_555
N3 Zn1 1_555 1_555
H3 N3 1_555 1_555
N4 Zn1 1_555 1_555
H4 N4 1_555 1_555
C1 N1 1_555 1_555
H5 C1 1_555 1_555
C2 C1 1_555 1_555
H6 C2 1_555 1_555
H7 C2 1_555 1_555
C3 N2 1_555 1_555
H8 C3 1_555 1_555
H9 C3 1_555 1_555
C4 C1 1_555 1_555
H10 C4 1_555 1_555
H11 C4 1_555 1_555
H12 C4 1_555 1_555
C5 N2 1_555 1_555
H13 C5 1_555 1_555
C6 C5 1_555 1_555
H14 C6 1_555 1_555
H15 C6 1_555 1_555
C7 C6 1_555 1_555
H16 C7 1_555 1_555
H17 C7 1_555 1_555
C8 C7 1_555 1_555
H18 C8 1_555 1_555
H19 C8 1_555 1_555
C9 C8 1_555 1_555
H20 C9 1_555 1_555
H21 C9 1_555 1_555
C10 N3 1_555 1_555
H22 C10 1_555 1_555
C11 N3 1_555 1_555
H23 C11 1_555 1_555
C12 C11 1_555 1_555
H24 C12 1_555 1_555
H25 C12 1_555 1_555
C13 N4 1_555 1_555
H26 C13 1_555 1_555
H27 C13 1_555 1_555
C14 C11 1_555 1_555
H28 C14 1_555 1_555
H29 C14 1_555 1_555
H30 C14 1_555 1_555
C15 N4 1_555 1_555
H31 C15 1_555 1_555
C16 C15 1_555 1_555
H32 C16 1_555 1_555
H33 C16 1_555 1_555
C17 C16 1_555 1_555
H34 C17 1_555 1_555
H35 C17 1_555 1_555
C18 C17 1_555 1_555
H36 C18 1_555 1_555
H37 C18 1_555 1_555
C19 C18 1_555 1_555
H38 C19 1_555 1_555
H39 C19 1_555 1_555
C20 N1 1_555 1_555
H40 C20 1_555 1_555
C21 C22 1_555 1_555
C22 H41 1_555 1_555
C23 C24 1_555 1_555
C24 C22 1_555 1_555
H42 C24 1_555 1_555
O5 C25 1_555 1_555
N5 C25 1_555 1_555
C25 H43 1_555 1_555
C26 N5 1_555 1_555
H44 C26 1_555 1_555
H45 C26 1_555 1_555
H46 C26 1_555 1_555
C27 N5 1_555 1_555
H47 C27 1_555 1_555
H48 C27 1_555 1_555
H49 C27 1_555 1_555
Zn1_2 O3 1_555 1_555
O3_2 Zn1 1_555 1_555
C2 C3 1_555 1_555
C5 C10 1_555 1_555
C9 C10 1_555 1_555
C12 C13 1_555 1_555
C15 C20 1_555 1_555
C19 C20 1_555 1_555

#END
