
#######################################################################
#
#                 Cambridge Crystallographic Data Centre
#                                CCDC 
#
#######################################################################
#
# If this CIF has been generated from an entry in the Cambridge 
# Structural Database, then it will include bibliographic, chemical, 
# crystal, experimental, refinement or atomic coordinate data resulting 
# from the CCDC's data processing and validation procedures.
#
#######################################################################

data_IQUCUS
_symmetry_cell_setting           monoclinic
_symmetry_space_group_name_H-M   'C 2/c'
_symmetry_Int_Tables_number      15
_space_group_name_Hall           '-C 2yn'
loop_
_symmetry_equiv_pos_site_id
_symmetry_equiv_pos_as_xyz
1 x,y,z
2 1/2+x,1/2+y,z
3 x,-y,1/2+z
4 1/2+x,1/2-y,1/2+z
5 -x,-y,-z
6 1/2-x,1/2-y,-z
7 -x,y,1/2-z
8 1/2-x,1/2+y,1/2-z
_cell_length_a                   12.124(2)
_cell_length_b                   13.464(3)
_cell_length_c                   17.483(4)
_cell_angle_alpha                90
_cell_angle_beta                 108.55(3)
_cell_angle_gamma                90
_cell_volume                     2705.61
loop_
_atom_site_label
_atom_site_type_symbol
_atom_site_fract_x
_atom_site_fract_y
_atom_site_fract_z
C1 C 0.38130(14) 0.50761(10) 0.31330(8)
H1 H 0.3775 0.4392 0.3191
C2 C 0.32961(13) 0.54866(11) 0.23757(8)
H2 H 0.2935 0.5081 0.1937
C3 C 0.33242(11) 0.65067(10) 0.22801(7)
C4 C 0.39146(12) 0.70694(10) 0.29463(8)
H3 H 0.3967 0.7755 0.2902
C5 C 0.44245(12) 0.66053(10) 0.36758(7)
H4 H 0.4831 0.6993 0.4115
C6 C 0.26811(12) 0.69942(11) 0.14746(8)
C7 C 0.44712(12) 0.69701(10) 0.57742(8)
H5 H 0.5191 0.7243 0.5811
C8 C 0.29987(13) 0.59884(11) 0.55023(9)
H6 H 0.2513 0.5446 0.5315
C9 C 0.27325(13) 0.67918(11) 0.58728(9)
H7 H 0.2044 0.6902 0.5987
C10 C 0.37801(14) 0.83812(11) 0.64519(8)
H8 H 0.3011 0.8670 0.6333
H9 H 0.4241 0.8820 0.6234
C11 C 0.43404(13) 0.83181(11) 0.73662(8)
H10 H 0.4080 0.8877 0.7613
H11 H 0.4077 0.7716 0.7559
Co1 Co 0.5000 0.5000 0.5000
N1 N 0.43639(10) 0.56197(8) 0.37845(6)
N2 N 0.41000(10) 0.60962(8) 0.54450(6)
N3 N 0.36772(10) 0.74135(9) 0.60483(7)
O1 O 0.24853(10) 0.79097(8) 0.14992(6)
O2 O 0.23770(10) 0.64550(8) 0.08658(6)
O3 O 0.35615(9) 0.40215(7) 0.47889(5)
H12 H 0.3256 0.3817 0.5128
H13 H 0.3235 0.3678 0.4378
C11F C 0.56596(13) 0.83181(11) 0.76338(8)
C10F C 0.62199(14) 0.83812(11) 0.85481(8)
H8F H 0.6989 0.8670 0.8667
H9F H 0.5759 0.8820 0.8766
N3F N 0.63228(10) 0.74135(9) 0.89517(7)
C7F C 0.55288(12) 0.69701(10) 0.92258(8)
H5F H 0.4809 0.7243 0.9189
N2F N 0.59000(10) 0.60962(8) 0.95550(6)
C8F C 0.70013(13) 0.59884(11) 0.94977(9)
H6F H 0.7487 0.5446 0.9685
C9F C 0.72675(13) 0.67918(11) 0.91272(9)
H7F H 0.7956 0.6902 0.9013
H10F H 0.5920 0.8877 0.7387
H11F H 0.5923 0.7716 0.7441
C1D C 0.61870(14) 0.49239(10) 0.68670(8)
H1D H 0.6225 0.5608 0.6809
C2D C 0.67039(13) 0.45134(11) 0.76243(8)
H2D H 0.7065 0.4919 0.8063
C3D C 0.66758(11) 0.34933(10) 0.77199(7)
C4D C 0.60854(12) 0.29306(10) 0.70537(8)
H3D H 0.6033 0.2245 0.7098
C5D C 0.55755(12) 0.33947(10) 0.63242(7)
H4D H 0.5169 0.3007 0.5885
C6D C 0.73189(12) 0.30058(11) 0.85254(8)
N1D N 0.56361(10) 0.43803(8) 0.62155(6)
O1D O 0.75147(10) 0.20903(8) 0.85008(6)
O2D O 0.76230(10) 0.35450(8) 0.91342(6)
O3D O 0.64385(9) 0.59785(7) 0.52111(5)
H12D H 0.6744 0.6183 0.4872
H13D H 0.6765 0.6322 0.5622
N2D N 0.59000(10) 0.39038(8) 0.45550(6)
Co1B Co 0.5000 0.5000 1.0000
O4 O 0.02210(13) 0.59407(13) -0.02747(9)
H14 H 0.0844 0.6123 0.0071
H15 H 0.0381 0.5353 -0.0118
O5 O 0.06937(13) 0.57167(10) -0.17136(7)
H17 H 0.1239 0.6127 -0.1647
H18 H 0.0246 0.5685 -0.2191
H16? H 0.0345 0.5756 -0.0699
H19? H 0.0479 0.5805 -0.1307
loop_
_geom_bond_atom_site_label_1
_geom_bond_atom_site_label_2
_geom_bond_site_symmetry_1
_geom_bond_site_symmetry_2
C1 H1 1_555 1_555
C2 C1 1_555 1_555
H2 C2 1_555 1_555
C3 C2 1_555 1_555
C4 C3 1_555 1_555
H3 C4 1_555 1_555
C5 C4 1_555 1_555
H4 C5 1_555 1_555
C6 C3 1_555 1_555
C7 H5 1_555 1_555
C8 H6 1_555 1_555
C9 C8 1_555 1_555
H7 C9 1_555 1_555
C10 H8 1_555 1_555
H9 C10 1_555 1_555
C11 C10 1_555 1_555
H10 C11 1_555 1_555
H11 C11 1_555 1_555
Co1 N1 1_555 1_555
N1 C1 1_555 1_555
N2 C7 1_555 1_555
N3 C7 1_555 1_555
O1 C6 1_555 1_555
O2 C6 1_555 1_555
O3 Co1 1_555 1_555
H12 O3 1_555 1_555
H13 O3 1_555 1_555
O4 H14 1_555 1_555
H15 O4 1_555 1_555
O5 H17 1_555 1_555
H18 O5 1_555 1_555
C11F C11 1_555 1_555
C10F C11F 1_555 1_555
H8F C10F 1_555 1_555
H9F C10F 1_555 1_555
N3F C10F 1_555 1_555
C7F N3F 1_555 1_555
H5F C7F 1_555 1_555
N2F C7F 1_555 1_555
C8F N2F 1_555 1_555
H6F C8F 1_555 1_555
C9F N3F 1_555 1_555
H7F C9F 1_555 1_555
H10F C11F 1_555 1_555
H11F C11F 1_555 1_555
C1D H1D 1_555 1_555
C2D C1D 1_555 1_555
H2D C2D 1_555 1_555
C3D C2D 1_555 1_555
C4D C3D 1_555 1_555
H3D C4D 1_555 1_555
C5D C4D 1_555 1_555
H4D C5D 1_555 1_555
C6D C3D 1_555 1_555
N1D Co1 1_555 1_555
O1D C6D 1_555 1_555
O2D C6D 1_555 1_555
O3D Co1 1_555 1_555
H12D O3D 1_555 1_555
H13D O3D 1_555 1_555
N2D Co1 1_555 1_555
Co1B N2F 1_555 1_555
C5 N1 1_555 1_555
C8 N2 1_555 1_555
C9 N3 1_555 1_555
C10 N3 1_555 1_555
Co1 N2 1_555 1_555
C8F C9F 1_555 1_555
C1D N1D 1_555 1_555
C5D N1D 1_555 1_555

#END
