
#######################################################################
#
#                 Cambridge Crystallographic Data Centre
#                                CCDC 
#
#######################################################################
#
# If this CIF has been generated from an entry in the Cambridge 
# Structural Database, then it will include bibliographic, chemical, 
# crystal, experimental, refinement or atomic coordinate data resulting 
# from the CCDC's data processing and validation procedures.
#
#######################################################################

data_IQUCAZ
_symmetry_cell_setting           monoclinic
_symmetry_space_group_name_H-M   'P 21/c'
_symmetry_Int_Tables_number      14
_space_group_name_Hall           '-P 2ybc'
loop_
_symmetry_equiv_pos_site_id
_symmetry_equiv_pos_as_xyz
1 x,y,z
2 -x,1/2+y,1/2-z
3 -x,-y,-z
4 x,1/2-y,1/2+z
_cell_length_a                   10.7513(6)
_cell_length_b                   5.8042(3)
_cell_length_c                   16.4521(9)
_cell_angle_alpha                90
_cell_angle_beta                 93.514(3)
_cell_angle_gamma                90
_cell_volume                     1024.73
loop_
_atom_site_label
_atom_site_type_symbol
_atom_site_fract_x
_atom_site_fract_y
_atom_site_fract_z
Cu1 Cu 0.10607(2) -0.15724(4) -0.360010(13)
C1 C -0.08328(17) -0.0690(3) -0.26365(10)
C2 C -0.13692(17) -0.2042(3) -0.33815(10)
C3 C -0.31277(18) -0.3979(3) -0.40676(11)
H1 H -0.4024 -0.3767 -0.4092
H2 H -0.2826 -0.3481 -0.4583
C4 C -0.28168(18) -0.6536(3) -0.39303(11)
H3 H -0.3162 -0.7060 -0.3432
H4 H -0.1920 -0.6736 -0.3874
C5 C -0.27431(17) -0.8123(3) -0.52894(11)
C6 C -0.33600(18) -0.9578(3) -0.59877(11)
N1 N -0.25533(15) -0.2589(3) -0.34089(9)
H5 H -0.3004 -0.2115 -0.3028
N2 N -0.33318(15) -0.7905(3) -0.46163(10)
H6 H -0.4037 -0.8584 -0.4579
O1 O -0.15378(12) -0.0062(2) -0.21113(8)
O2 O 0.03286(12) -0.0330(2) -0.26442(8)
O3 O -0.06533(12) -0.2541(2) -0.39291(7)
O4 O -0.17093(13) -0.7207(2) -0.53944(8)
O5 O -0.27628(13) -0.9578(3) -0.66248(8)
O6 O -0.43475(14) -1.0587(3) -0.58832(9)
O7 O 0.07854(19) 0.2031(3) -0.42793(9)
H7 H 0.060(3) 0.244(5) -0.4807(10)
H8 H 0.099(3) 0.333(4) -0.3983(15)
Cu1A Cu -0.10607(2) 0.34276(4) -0.139990(13)
Cu1B Cu -0.10607(2) -0.84276(4) -0.639990(13)
O1A O 0.15378(12) -0.5062(2) -0.28887(8)
O4B O 0.17093(13) -0.2793(2) -0.46056(8)
O5B O 0.27628(13) -0.0422(3) -0.33752(8)
O8 O 0.46074(19) -0.7979(4) 0.24276(12)
H9 H 0.510(3) -0.695(5) 0.2702(18)
H10 H 0.441(3) -0.760(6) 0.1901(12)
O9 O 0.3950(13) -1.009(2) 0.1476(8)
loop_
_geom_bond_atom_site_label_1
_geom_bond_atom_site_label_2
_geom_bond_site_symmetry_1
_geom_bond_site_symmetry_2
Cu1 O2 1_555 1_555
C1 C2 1_555 1_555
C2 N1 1_555 1_555
C3 H1 1_555 1_555
H2 C3 1_555 1_555
C4 C3 1_555 1_555
H3 C4 1_555 1_555
H4 C4 1_555 1_555
C5 C6 1_555 1_555
C6 O5 1_555 1_555
N1 C3 1_555 1_555
H5 N1 1_555 1_555
N2 C4 1_555 1_555
H6 N2 1_555 1_555
O1 C1 1_555 1_555
O2 C1 1_555 1_555
O3 Cu1 1_555 1_555
O4 C5 1_555 1_555
O5 Cu1B 1_555 1_555
O6 C6 1_555 1_555
O7 Cu1 1_555 1_555
H7 O7 1_555 1_555
H8 O7 1_555 1_555
O8 H9 1_555 1_555
H10 O8 1_555 1_555
Cu1A O1 1_555 1_555
Cu1B O4 1_555 1_555
O1A Cu1 1_555 1_555
O4B Cu1 1_555 1_555
O5B Cu1 1_555 1_555
C2 O3 1_555 1_555
C5 N2 1_555 1_555

#END
