
#######################################################################
#
#                 Cambridge Crystallographic Data Centre
#                                CCDC 
#
#######################################################################
#
# If this CIF has been generated from an entry in the Cambridge 
# Structural Database, then it will include bibliographic, chemical, 
# crystal, experimental, refinement or atomic coordinate data resulting 
# from the CCDC's data processing and validation procedures.
#
#######################################################################

data_IQUDED
_symmetry_cell_setting           monoclinic
_symmetry_space_group_name_H-M   'P 21/c'
_symmetry_Int_Tables_number      14
_space_group_name_Hall           '-P 2ybc'
loop_
_symmetry_equiv_pos_site_id
_symmetry_equiv_pos_as_xyz
1 x,y,z
2 x,1/2-y,1/2+z
3 -x,-y,-z
4 -x,1/2+y,1/2-z
_cell_length_a                   11.951(4)
_cell_length_b                   7.639(2)
_cell_length_c                   11.507(4)
_cell_angle_alpha                90
_cell_angle_beta                 110.711(4)
_cell_angle_gamma                90
_cell_volume                     982.628
loop_
_atom_site_label
_atom_site_type_symbol
_atom_site_fract_x
_atom_site_fract_y
_atom_site_fract_z
Co1 Co 0.34920(2) 0.09860(3) 0.28966(2)
C1 C 0.0948(2) 0.1659(3) 0.1201(2)
H1 H 0.1322 0.1930 0.0640
C2 C -0.0286(2) 0.1750(4) 0.0807(3)
H2 H -0.0730 0.2070 -0.0006
C3 C -0.0847(2) 0.1366(4) 0.1622(3)
H3 H -0.1676 0.1420 0.1375
C4 C -0.0167(2) 0.0900(4) 0.2809(3)
H4 H -0.0527 0.0631 0.3383
C5 C 0.1058(2) 0.0832(3) 0.3143(3)
H5 H 0.1514 0.0519 0.3954
N1 N 0.16198(15) 0.1198(2) 0.23527(17)
O1 O 0.35842(12) 0.32220(17) 0.18198(12)
O2 O 0.26652(13) 0.60709(19) 0.15420(15)
O3 O 0.46284(11) 0.57460(18) 0.14977(12)
O4 O 0.43033(13) 0.53829(19) 0.34286(13)
O5 O 0.32967(14) -0.04913(19) 0.12827(13)
O6 O 0.37299(15) 0.24955(19) 0.44664(14)
O7 O 0.35009(13) -0.12629(19) 0.39569(13)
S1 S 0.37771(4) 0.51107(6) 0.20813(4)
H6 H 0.368(2) -0.219(2) 0.373(2)
H7 H 0.376(2) 0.232(3) 0.5182(12)
H8 H 0.3935(16) -0.058(4) 0.117(3)
H9 H 0.391(2) 0.3498(18) 0.439(3)
H10 H 0.310(2) -0.1519(17) 0.132(3)
H11 H 0.387(2) -0.116(4) 0.4697(11)
O3C O 0.53716(11) 0.07460(18) 0.35023(12)
Co1C Co 0.65080(2) 0.59860(3) 0.21034(2)
loop_
_geom_bond_atom_site_label_1
_geom_bond_atom_site_label_2
_geom_bond_site_symmetry_1
_geom_bond_site_symmetry_2
Co1 N1 1_555 1_555
C1 H1 1_555 1_555
C2 C1 1_555 1_555
H2 C2 1_555 1_555
C3 C2 1_555 1_555
H3 C3 1_555 1_555
C4 C3 1_555 1_555
H4 C4 1_555 1_555
C5 C4 1_555 1_555
H5 C5 1_555 1_555
N1 C1 1_555 1_555
O1 Co1 1_555 1_555
O2 S1 1_555 1_555
O3 S1 1_555 1_555
O4 S1 1_555 1_555
O5 Co1 1_555 1_555
O6 Co1 1_555 1_555
O7 Co1 1_555 1_555
S1 O1 1_555 1_555
H6 O7 1_555 1_555
H7 O6 1_555 1_555
H8 O5 1_555 1_555
H9 O6 1_555 1_555
H10 O5 1_555 1_555
H11 O7 1_555 1_555
O3C Co1 1_555 1_555
Co1C O3 1_555 1_555
C5 N1 1_555 1_555

#END
