
#######################################################################
#
#                 Cambridge Crystallographic Data Centre
#                                CCDC 
#
#######################################################################
#
# If this CIF has been generated from an entry in the Cambridge 
# Structural Database, then it will include bibliographic, chemical, 
# crystal, experimental, refinement or atomic coordinate data resulting 
# from the CCDC's data processing and validation procedures.
#
#######################################################################

data_IQUGOQ
_symmetry_cell_setting           triclinic
_symmetry_space_group_name_H-M   'P -1'
_symmetry_Int_Tables_number      2
_space_group_name_Hall           '-P 1'
loop_
_symmetry_equiv_pos_site_id
_symmetry_equiv_pos_as_xyz
1 x,y,z
2 -x,-y,-z
_cell_length_a                   6.9220(8)
_cell_length_b                   10.1310(12)
_cell_length_c                   10.9630(13)
_cell_angle_alpha                76.013(2)
_cell_angle_beta                 74.869(2)
_cell_angle_gamma                85.318(2)
_cell_volume                     720.002
loop_
_atom_site_label
_atom_site_type_symbol
_atom_site_fract_x
_atom_site_fract_y
_atom_site_fract_z
I1 I 1.07242(7) 0.38238(5) 1.18988(5)
Cd1 Cd 0.80731(7) 0.16284(5) 0.64851(5)
S1 S 1.2644(2) 0.23756(17) 0.70162(16)
O1 O 1.1495(7) 0.1543(5) 0.6543(4)
O2 O 0.8520(8) 0.3871(5) 0.5834(6)
O3 O 1.4771(7) 0.2190(6) 0.6435(5)
O4 O 0.8210(8) 0.1087(6) 0.4584(5)
O5 O 1.1976(7) 0.3789(5) 0.6799(5)
O6 O 1.1758(7) 0.0649(5) 1.2719(5)
N1 N 1.2708(8) -0.1301(6) 1.1296(6)
C1 C 1.3198(10) -0.2264(7) 1.0621(7)
C2 C 1.3411(11) -0.1986(7) 0.9275(7)
C3 C 1.3102(10) -0.0691(7) 0.8622(7)
C4 C 1.2267(10) 0.1776(7) 0.8718(7)
C5 C 1.1769(10) 0.2719(7) 0.9471(7)
C6 C 1.1572(10) 0.2332(7) 1.0822(7)
C7 C 1.1893(9) 0.1009(7) 1.1466(7)
C8 C 1.2581(9) 0.0371(7) 0.9318(6)
C9 C 1.2416(9) 0.0008(7) 1.0668(7)
H1 H 0.96100 0.39910 0.59360
H2 H 1.34040 -0.31520 1.10570
H3 H 0.82480 0.46390 0.54710
H4 H 1.37620 -0.26800 0.88310
H5 H 0.74270 0.14460 0.41630
H6 H 1.32290 -0.04970 0.77320
H7 H 0.92360 0.10890 0.40040
H8 H 1.15590 0.36250 0.90840
O3_2 O 0.4771(7) 0.2190(6) 0.6435(5)
I1A I 0.92758(7) -0.38238(5) 0.81012(5)
S1A S 0.7356(2) -0.23756(17) 1.29838(16)
O1A O 0.8505(7) -0.1543(5) 1.3457(4)
O3A O 0.5229(7) -0.2190(6) 1.3565(5)
O5A O 0.8024(7) -0.3789(5) 1.3201(5)
O6A O 0.8242(7) -0.0649(5) 0.7281(5)
N1A N 0.7292(8) 0.1301(6) 0.8704(6)
C1A C 0.6802(10) 0.2264(7) 0.9379(7)
C2A C 0.6589(11) 0.1986(7) 1.0725(7)
C3A C 0.6898(10) 0.0691(7) 1.1378(7)
C4A C 0.7733(10) -0.1776(7) 1.1282(7)
C5A C 0.8231(10) -0.2719(7) 1.0529(7)
C6A C 0.8428(10) -0.2332(7) 0.9178(7)
C7A C 0.8107(9) -0.1009(7) 0.8534(7)
C8A C 0.7419(9) -0.0371(7) 1.0682(6)
C9A C 0.7584(9) -0.0008(7) 0.9332(7)
H2A H 0.65960 0.31520 0.89430
H4A H 0.62380 0.26800 1.11690
H6A H 0.67710 0.04970 1.22680
H8A H 0.84410 -0.36250 1.09160
Cd1A Cd 1.19269(7) -0.16284(5) 1.35149(5)
Cd1_2 Cd 1.80731(7) 0.16284(5) 0.64851(5)
Cd1A_2 Cd 0.19269(7) -0.16284(5) 1.35149(5)
O2A O 1.1480(8) -0.3871(5) 1.4166(6)
H1A H 1.03900 -0.39910 1.40640
H3A H 1.17520 -0.46390 1.45290
O3A_2 O 1.5229(7) -0.2190(6) 1.3565(5)
O4A O 1.1790(8) -0.1087(6) 1.5416(5)
H5A H 1.25730 -0.14460 1.58370
H7A H 1.07640 -0.10890 1.59960
O7 O 0.5619(8) -0.1682(5) 0.6086(5)
H9 H 0.64020 -0.21190 0.64990
H10 H 0.64430 -0.11820 0.55180
O8 O 0.5338(8) 0.5382(6) 0.6706(6)
H11 H 0.42380 0.51990 0.66690
loop_
_geom_bond_atom_site_label_1
_geom_bond_atom_site_label_2
_geom_bond_site_symmetry_1
_geom_bond_site_symmetry_2
I1 C6 1_555 1_555
Cd1 O1 1_555 1_555
S1 O1 1_555 1_555
O2 Cd1 1_555 1_555
O3 S1 1_555 1_555
O4 Cd1 1_555 1_555
O5 S1 1_555 1_555
O6 C7 1_555 1_555
N1 C1 1_555 1_555
C1 C2 1_555 1_555
C2 C3 1_555 1_555
C3 C8 1_555 1_555
C4 S1 1_555 1_555
C5 C4 1_555 1_555
C6 C5 1_555 1_555
C7 C6 1_555 1_555
C8 C4 1_555 1_555
C9 N1 1_555 1_555
O7 H9 1_555 1_555
O8 H11 1_555 1_555
H1 O2 1_555 1_555
H2 C1 1_555 1_555
H3 O2 1_555 1_555
H4 C2 1_555 1_555
H5 O4 1_555 1_555
H6 C3 1_555 1_555
H7 O4 1_555 1_555
H8 C5 1_555 1_555
H10 O7 1_555 1_555
O3_2 Cd1 1_555 1_555
I1A C6A 1_555 1_555
S1A O1A 1_555 1_555
O1A Cd1A 1_555 1_555
O3A S1A 1_555 1_555
O5A S1A 1_555 1_555
O6A Cd1 1_555 1_555
N1A Cd1 1_555 1_555
C1A N1A 1_555 1_555
C2A C1A 1_555 1_555
C3A C2A 1_555 1_555
C4A S1A 1_555 1_555
C5A C4A 1_555 1_555
C6A C5A 1_555 1_555
C7A O6A 1_555 1_555
C8A C3A 1_555 1_555
C9A N1A 1_555 1_555
H2A C1A 1_555 1_555
H4A C2A 1_555 1_555
H6A C3A 1_555 1_555
H8A C5A 1_555 1_555
Cd1A O6 1_555 1_555
Cd1_2 O3 1_555 1_555
Cd1A_2 O3A 1_555 1_555
O2A Cd1A 1_555 1_555
H1A O2A 1_555 1_555
H3A O2A 1_555 1_555
O3A_2 Cd1A 1_555 1_555
O4A Cd1A 1_555 1_555
H5A O4A 1_555 1_555
H7A O4A 1_555 1_555
N1 Cd1A 1_555 1_555
C7 C9 1_555 1_555
C8 C9 1_555 1_555
C4A C8A 1_555 1_555
C6A C7A 1_555 1_555
C7A C9A 1_555 1_555
C8A C9A 1_555 1_555

#END
