
#######################################################################
#
#                 Cambridge Crystallographic Data Centre
#                                CCDC 
#
#######################################################################
#
# If this CIF has been generated from an entry in the Cambridge 
# Structural Database, then it will include bibliographic, chemical, 
# crystal, experimental, refinement or atomic coordinate data resulting 
# from the CCDC's data processing and validation procedures.
#
#######################################################################

data_IQUKUA
_symmetry_cell_setting           triclinic
_symmetry_space_group_name_H-M   'P -1'
_symmetry_Int_Tables_number      2
_space_group_name_Hall           '-P 1'
loop_
_symmetry_equiv_pos_site_id
_symmetry_equiv_pos_as_xyz
1 x,y,z
2 -x,-y,-z
_cell_length_a                   9.000(4)
_cell_length_b                   10.796(5)
_cell_length_c                   7.785(4)
_cell_angle_alpha                91.81(3)
_cell_angle_beta                 101.61(3)
_cell_angle_gamma                102.28(3)
_cell_volume                     721.803
loop_
_atom_site_label
_atom_site_type_symbol
_atom_site_fract_x
_atom_site_fract_y
_atom_site_fract_z
Cu1 Cu 0.96733(7) 0.35860(5) 1.00546(8)
O1 O 0.8315(4) 0.2169(3) 0.8468(5)
O2 O 0.6557(5) 0.2491(4) 0.9945(6)
O3 O 1.0727(4) 0.5117(3) 1.1531(4)
O4 O 1.1919(5) 0.3216(4) 0.9065(5)
N1 N 0.9992(5) 0.2380(4) 1.1961(5)
C1 C 0.6948(6) 0.1911(5) 0.8752(7)
C2 C 0.5808(8) 0.0831(7) 0.757(1)
C3 C 0.414(1) 0.071(1) 0.756(1)
C4 C 1.2057(8) 0.5262(6) 1.2874(8)
C5 C 1.2652(9) 0.4157(8) 0.809(1)
C6 C 0.9571(7) 0.2525(5) 1.3493(7)
C7 C 0.9566(7) 0.1637(5) 1.4717(7)
C8 C 1.0017(6) 0.0512(4) 1.435(6)
C9 C 1.0475(6) 0.0376(5) 1.2791(7)
C10 C 1.0452(7) 0.1310(5) 1.1645(7)
H1 H 1.269 0.314 1.009
H2 H 0.925 0.33 1.374
H3 H 0.926 0.178 1.581
H4 H 1.081 -0.038 1.251
H5 H 1.078 0.12 1.056
H6 H 0.608 0.004 0.792
H7 H 0.595 0.093 0.639
H8 H 0.349 0.002 0.679
H9 H 0.395 0.06 0.872
H10 H 0.382 0.148 0.719
H11 H 1.235 0.611 1.341
H12 H 1.187 0.469 1.376
H13 H 1.291 0.509 1.241
C8A C 0.9983(6) -0.0512(4) 1.565(6)
C7A C 1.0434(7) -0.1637(5) 1.5283(7)
C6A C 1.0429(7) -0.2525(5) 1.6507(7)
N1A N 1.0008(5) -0.2380(4) 1.8039(5)
C10A C 0.9548(7) -0.1310(5) 1.8355(7)
C9A C 0.9525(6) -0.0376(5) 1.7209(7)
H4A H 0.919 0.038 1.749
H5A H 0.922 -0.12 1.944
H2A H 1.075 -0.33 1.626
H3A H 1.074 -0.178 1.419
O3A O 0.9273(4) 0.4883(3) 0.8469(4)
C4A C 0.7943(8) 0.4738(6) 0.7126(8)
H11A H 0.765 0.389 0.659
H12A H 0.813 0.531 0.624
H13A H 0.709 0.491 0.759
Cu1A Cu 1.03267(7) 0.64140(5) 0.99454(8)
O1A O 1.1685(4) 0.7831(3) 1.1532(5)
O2A O 1.3443(5) 0.7509(4) 1.0055(6)
C1A C 1.3052(6) 0.8089(5) 1.1248(7)
C2A C 1.4192(8) 0.9169(7) 1.243(1)
C3A C 1.586(1) 0.929(1) 1.244(1)
H6A H 1.392 0.996 1.208
H7A H 1.405 0.907 1.361
H8A H 1.651 0.998 1.321
H9A H 1.605 0.94 1.128
H10A H 1.618 0.852 1.281
O4A O 0.8081(5) 0.6784(4) 1.0935(5)
C5A C 0.7348(9) 0.5843(8) 1.191(1)
H1A H 0.731 0.686 0.991
Cu1A_2 Cu 1.03267(7) -0.35860(5) 1.99454(8)
N1A_2 N 1.0008(5) 0.7620(4) 0.8039(5)
O5 O 1.4197(5) 0.2528(6) 1.1464(7)
C11 C 1.481(1) 0.2860(9) 1.324(1)
H14 H 1.51 0.275 1.095
H15 H 1.563 0.243 1.366
H16 H 1.525 0.376 1.345
H17 H 1.403 0.264 1.39
loop_
_geom_bond_atom_site_label_1
_geom_bond_atom_site_label_2
_geom_bond_site_symmetry_1
_geom_bond_site_symmetry_2
Cu1 O1 1_555 1_555
O1 C1 1_555 1_555
O2 C1 1_555 1_555
O3 Cu1 1_555 1_555
O4 Cu1 1_555 1_555
N1 Cu1 1_555 1_555
C1 C2 1_555 1_555
C2 C3 1_555 1_555
C3 H8 1_555 1_555
C4 O3 1_555 1_555
C5 O4 1_555 1_555
C6 N1 1_555 1_555
C7 C6 1_555 1_555
C8 C7 1_555 1_555
C9 C8 1_555 1_555
C10 N1 1_555 1_555
H1 O4 1_555 1_555
H2 C6 1_555 1_555
H3 C7 1_555 1_555
H4 C9 1_555 1_555
H5 C10 1_555 1_555
H6 C2 1_555 1_555
H7 C2 1_555 1_555
H9 C3 1_555 1_555
H10 C3 1_555 1_555
H11 C4 1_555 1_555
H12 C4 1_555 1_555
H13 C4 1_555 1_555
O5 C11 1_555 1_555
C11 H15 1_555 1_555
H14 O5 1_555 1_555
H16 C11 1_555 1_555
H17 C11 1_555 1_555
C8A C8 1_555 1_555
C7A C8A 1_555 1_555
C6A C7A 1_555 1_555
N1A C6A 1_555 1_555
C10A N1A 1_555 1_555
C9A C8A 1_555 1_555
H4A C9A 1_555 1_555
H5A C10A 1_555 1_555
H2A C6A 1_555 1_555
H3A C7A 1_555 1_555
O3A Cu1 1_555 1_555
C4A O3A 1_555 1_555
H11A C4A 1_555 1_555
H12A C4A 1_555 1_555
H13A C4A 1_555 1_555
Cu1A O3 1_555 1_555
O1A Cu1A 1_555 1_555
O2A C1A 1_555 1_555
C1A O1A 1_555 1_555
C2A C1A 1_555 1_555
C3A C2A 1_555 1_555
H6A C2A 1_555 1_555
H7A C2A 1_555 1_555
H8A C3A 1_555 1_555
H9A C3A 1_555 1_555
H10A C3A 1_555 1_555
O4A Cu1A 1_555 1_555
C5A O4A 1_555 1_555
H1A O4A 1_555 1_555
Cu1A_2 N1A 1_555 1_555
N1A_2 Cu1A 1_555 1_555
C9 C10 1_555 1_555
C10A C9A 1_555 1_555
O3A Cu1A 1_555 1_555

#END
