
#######################################################################
#
#                 Cambridge Crystallographic Data Centre
#                                CCDC 
#
#######################################################################
#
# If this CIF has been generated from an entry in the Cambridge 
# Structural Database, then it will include bibliographic, chemical, 
# crystal, experimental, refinement or atomic coordinate data resulting 
# from the CCDC's data processing and validation procedures.
#
#######################################################################

data_IQUKOU
_symmetry_cell_setting           triclinic
_symmetry_space_group_name_H-M   'P -1'
_symmetry_Int_Tables_number      2
_space_group_name_Hall           '-P 1'
loop_
_symmetry_equiv_pos_site_id
_symmetry_equiv_pos_as_xyz
1 x,y,z
2 -x,-y,-z
_cell_length_a                   10.286(5)
_cell_length_b                   11.163(8)
_cell_length_c                   7.617(6)
_cell_angle_alpha                105.83(4)
_cell_angle_beta                 110.44(3)
_cell_angle_gamma                63.56(7)
_cell_volume                     726.61
loop_
_atom_site_label
_atom_site_type_symbol
_atom_site_fract_x
_atom_site_fract_y
_atom_site_fract_z
Cu1 Cu 0.48977(5) 0.19406(4) 0.08218(6)
Cu2 Cu 0.44194(4) 0.01191(4) 0.25341(6)
O1 O 0.6145(3) 0.2042(3) 0.3449(4)
O2 O 0.5728(3) 0.0763(2) 0.4803(3)
O3 O 0.2624(3) 0.1732(3) 0.2749(4)
O4 O 0.3017(3) 0.3094(3) 0.1525(4)
O5 O 0.3972(3) 0.1450(3) -0.1784(4)
O6 O 0.6577(3) 0.0665(3) -0.0178(4)
N1 N 0.5022(3) 0.3838(3) 0.0363(5)
C1 C 0.6405(4) 0.1468(3) 0.4790(5)
C2 C 0.7634(4) 0.1604(4) 0.6544(6)
C3 C 0.8244(6) 0.2616(5) 0.6608(8)
C4 C 0.2266(4) 0.2835(4) 0.2237(5)
C5 C 0.0796(5) 0.3955(5) 0.2499(8)
C6 C -0.0359(6) 0.3561(7) 0.253(1)
C7 C 0.5356(5) 0.4756(4) 0.1737(6)
C8 C 0.4651(5) 0.4089(4) -0.1403(6)
C9 C 0.2445(5) 0.1983(5) -0.2761(6)
C10 C 0.8108(5) 0.0321(5) 0.0715(7)
H1 H 0.846 0.073 0.665
H2 H 0.725 0.185 0.763
H3 H 0.902 0.265 0.775
H4 H 0.866 0.238 0.556
H5 H 0.746 0.35 0.654
H6 H 0.101 0.452 0.369
H7 H 0.038 0.451 0.151
H8 H -0.125 0.432 0.271
H9 H 0.001 0.303 0.353
H10 H -0.062 0.301 0.136
H11 H 0.562 0.461 0.303
H12 H 0.438 0.345 -0.246
H13 H 0.229 0.156 -0.404
H14 H 0.185 0.185 -0.218
H15 H 0.211 0.294 -0.275
H16 H 0.87 -0.033 -0.009
H17 H 0.835 0.111 0.105
H18 H 0.837 -0.004 0.185
C8A C 0.5349(5) 0.5911(4) 0.1403(6)
N1A N 0.4978(3) 0.6162(3) -0.0363(5)
C7A C 0.4644(5) 0.5244(4) -0.1737(6)
H11A H 0.438 0.539 -0.303
H12A H 0.562 0.655 0.246
Cu1A Cu 0.51023(5) 0.80594(4) -0.08218(6)
Cu2A Cu 0.55806(4) -0.01191(4) -0.25341(6)
O5A O 0.6028(3) -0.1450(3) 0.1784(4)
C9A C 0.7555(5) -0.1983(5) 0.2761(6)
H13A H 0.771 -0.156 0.404
H14A H 0.815 -0.185 0.218
H15A H 0.789 -0.294 0.275
O6A O 0.3423(3) -0.0665(3) 0.0178(4)
C10A C 0.1892(5) -0.0321(5) -0.0715(7)
H16A H 0.13 0.033 0.009
H17A H 0.165 -0.111 -0.105
H18A H 0.163 0.004 -0.185
O1A O 0.3855(3) 0.7958(3) -0.3449(4)
O2A O 0.4272(3) 0.9237(2) -0.4803(3)
C1A C 0.3595(4) 0.8532(3) -0.4790(5)
C2A C 0.2366(4) 0.8396(4) -0.6544(6)
C3A C 0.1756(6) 0.7384(5) -0.6608(8)
H1A H 0.154 0.927 -0.665
H2A H 0.275 0.815 -0.763
H3A H 0.098 0.735 -0.775
H4A H 0.134 0.762 -0.556
H5A H 0.254 0.65 -0.654
O3A O 0.7376(3) 0.8268(3) -0.2749(4)
O4A O 0.6983(3) 0.6906(3) -0.1525(4)
C4A C 0.7734(4) 0.7165(4) -0.2237(5)
C5A C 0.9204(5) 0.6045(5) -0.2499(8)
C6A C 1.0359(6) 0.6439(7) -0.253(1)
H6A H 0.899 0.548 -0.369
H7A H 0.962 0.549 -0.151
H8A H 1.125 0.568 -0.271
H9A H 0.999 0.697 -0.353
H10A H 1.062 0.699 -0.136
O5A_2 O 0.6028(3) 0.8550(3) 0.1784(4)
O6A_2 O 0.3423(3) 0.9335(3) 0.0178(4)
O2A_2 O 0.4272(3) -0.0763(2) -0.4803(3)
O3A_2 O 0.7376(3) -0.1732(3) -0.2749(4)
Cu1A_2 Cu 0.51023(5) -0.19406(4) -0.08218(6)
Cu2A_2 Cu 0.55806(4) 0.98809(4) -0.25341(6)
loop_
_geom_bond_atom_site_label_1
_geom_bond_atom_site_label_2
_geom_bond_site_symmetry_1
_geom_bond_site_symmetry_2
Cu1 O1 1_555 1_555
Cu2 O2 1_555 1_555
O1 C1 1_555 1_555
O2 C1 1_555 1_555
O3 Cu2 1_555 1_555
O4 Cu1 1_555 1_555
O5 Cu1 1_555 1_555
O6 Cu1 1_555 1_555
N1 Cu1 1_555 1_555
C1 C2 1_555 1_555
C2 C3 1_555 1_555
C3 H3 1_555 1_555
C4 O3 1_555 1_555
C5 C4 1_555 1_555
C6 C5 1_555 1_555
C7 N1 1_555 1_555
C8 N1 1_555 1_555
C9 O5 1_555 1_555
C10 O6 1_555 1_555
H1 C2 1_555 1_555
H2 C2 1_555 1_555
H4 C3 1_555 1_555
H5 C3 1_555 1_555
H6 C5 1_555 1_555
H7 C5 1_555 1_555
H8 C6 1_555 1_555
H9 C6 1_555 1_555
H10 C6 1_555 1_555
H11 C7 1_555 1_555
H12 C8 1_555 1_555
H13 C9 1_555 1_555
H14 C9 1_555 1_555
H15 C9 1_555 1_555
H16 C10 1_555 1_555
H17 C10 1_555 1_555
H18 C10 1_555 1_555
C8A C7 1_555 1_555
N1A C8A 1_555 1_555
C7A C8 1_555 1_555
H11A C7A 1_555 1_555
H12A C8A 1_555 1_555
Cu1A N1A 1_555 1_555
Cu2A O5 1_555 1_555
O5A Cu2 1_555 1_555
C9A O5A 1_555 1_555
H13A C9A 1_555 1_555
H14A C9A 1_555 1_555
H15A C9A 1_555 1_555
O6A Cu2 1_555 1_555
C10A O6A 1_555 1_555
H16A C10A 1_555 1_555
H17A C10A 1_555 1_555
H18A C10A 1_555 1_555
O1A Cu1A 1_555 1_555
O2A C1A 1_555 1_555
C1A O1A 1_555 1_555
C2A C1A 1_555 1_555
C3A C2A 1_555 1_555
H1A C2A 1_555 1_555
H2A C2A 1_555 1_555
H3A C3A 1_555 1_555
H4A C3A 1_555 1_555
H5A C3A 1_555 1_555
O3A C4A 1_555 1_555
O4A Cu1A 1_555 1_555
C4A O4A 1_555 1_555
C5A C4A 1_555 1_555
C6A C5A 1_555 1_555
H6A C5A 1_555 1_555
H7A C5A 1_555 1_555
H8A C6A 1_555 1_555
H9A C6A 1_555 1_555
H10A C6A 1_555 1_555
O5A_2 Cu1A 1_555 1_555
O6A_2 Cu1A 1_555 1_555
O2A_2 Cu2A 1_555 1_555
O3A_2 Cu2A 1_555 1_555
Cu1A_2 O5A 1_555 1_555
Cu2A_2 O2A 1_555 1_555
O4 C4 1_555 1_555
O6 Cu2A 1_555 1_555
N1A C7A 1_555 1_555
O6A Cu1A_2 1_555 1_555
O3A Cu2A_2 1_555 1_555

#END
