
#######################################################################
#
#                 Cambridge Crystallographic Data Centre
#                                CCDC 
#
#######################################################################
#
# If this CIF has been generated from an entry in the Cambridge 
# Structural Database, then it will include bibliographic, chemical, 
# crystal, experimental, refinement or atomic coordinate data resulting 
# from the CCDC's data processing and validation procedures.
#
#######################################################################

data_IQUNAJ
_symmetry_cell_setting           tetragonal
_symmetry_space_group_name_H-M   'I 41/a'
_symmetry_Int_Tables_number      88
_space_group_name_Hall           '-I 4ad'
loop_
_symmetry_equiv_pos_site_id
_symmetry_equiv_pos_as_xyz
1 x,y,z
2 3/4-y,1/4+x,1/4+z
3 1/2-x,-y,1/2+z
4 3/4+y,3/4-x,3/4+z
5 1/2+x,1/2+y,1/2+z
6 1/4-y,3/4+x,3/4+z
7 -x,1/2-y,z
8 1/4+y,1/4-x,1/4+z
9 -x,-y,-z
10 1/4+y,3/4-x,3/4-z
11 1/2+x,y,1/2-z
12 1/4-y,1/4+x,1/4-z
13 1/2-x,1/2-y,1/2-z
14 3/4+y,1/4-x,1/4-z
15 x,1/2+y,-z
16 3/4-y,3/4+x,3/4-z
_cell_length_a                   11.4612(8)
_cell_length_b                   11.4612(8)
_cell_length_c                   8.9040(8)
_cell_angle_alpha                90
_cell_angle_beta                 90
_cell_angle_gamma                90
_cell_volume                     1169.62
loop_
_atom_site_label
_atom_site_type_symbol
_atom_site_fract_x
_atom_site_fract_y
_atom_site_fract_z
Y1 Y 0.0000 0.2500 0.6250
K1 K 0.5000 0.2500 0.3750
O1 O 0.1985(4) 0.2579(8) 0.5660(5)
O2 O 0.3823(3) 0.2643(7) 0.6556(5)
C1 C 0.2735(6) 0.248(2) 0.6695(7)
O3 O 0.2958(5) 0.3913(5) 0.3311(7)
H1 H 0.2509 0.3410 0.3852
H2 H 0.2475 0.4136 0.2529
C1L C 0.2265(6) 0.252(2) 0.8305(7)
O1L O 0.3015(4) 0.2421(8) 0.9340(5)
O2L O 0.1177(3) 0.2357(7) 0.8444(5)
O1F O -0.1985(4) 0.2421(8) 0.5660(5)
O2F O -0.3823(3) 0.2357(7) 0.6556(5)
C1F C -0.2735(6) 0.252(2) 0.6695(7)
C1J C -0.2265(6) 0.248(2) 0.8305(7)
O1J O -0.3015(4) 0.2579(8) 0.9340(5)
O2J O -0.1177(3) 0.2643(7) 0.8444(5)
O3F O 0.7042(5) 0.1087(5) 0.3311(7)
H1F H 0.7491 0.1590 0.3852
H2F H 0.7525 0.0864 0.2529
O3O O 0.3587(5) 0.0458(5) 0.4189(7)
H1O H 0.4090 0.0009 0.3648
H2O H 0.3364 -0.0025 0.4971
O3I O 0.6413(5) 0.4542(5) 0.4189(7)
H1I H 0.5910 0.4991 0.3648
H2I H 0.6636 0.5025 0.4971
O1K O -0.0079(8) 0.4485(4) 0.6840(5)
O1M O 0.0079(8) 0.0515(4) 0.6840(5)
O2C O 0.0143(7) 0.3677(3) 0.4056(5)
O2E O -0.0143(7) 0.1323(3) 0.4056(5)
O2F_2 O 0.6177(3) 0.2357(7) 0.6556(5)
O2I O 0.5143(7) 0.3677(3) 0.0944(5)
O2O O 0.4857(7) 0.1323(3) 0.0944(5)
Y1A Y 0.5000 0.2500 0.8750
K1C K 0.0000 0.2500 1.1250
Y1A_2 Y -0.5000 0.2500 0.8750
K1_2 K -0.5000 0.2500 0.3750
loop_
_geom_bond_atom_site_label_1
_geom_bond_atom_site_label_2
_geom_bond_site_symmetry_1
_geom_bond_site_symmetry_2
Y1 O1 1_555 1_555
K1 O2 1_555 1_555
O1 C1 1_555 1_555
O2 C1 1_555 1_555
C1 C1L 1_555 1_555
O3 K1 1_555 1_555
H1 O3 1_555 1_555
H2 O3 1_555 1_555
C1L O1L 1_555 1_555
O1L Y1A 1_555 1_555
O2L Y1 1_555 1_555
O1F Y1 1_555 1_555
O2F C1F 1_555 1_555
C1F O1F 1_555 1_555
C1J C1F 1_555 1_555
O1J C1J 1_555 1_555
O2J Y1 1_555 1_555
O3F K1 1_555 1_555
H1F O3F 1_555 1_555
H2F O3F 1_555 1_555
O3O K1 1_555 1_555
H1O O3O 1_555 1_555
H2O O3O 1_555 1_555
O3I K1 1_555 1_555
H1I O3I 1_555 1_555
H2I O3I 1_555 1_555
O1K Y1 1_555 1_555
O1M Y1 1_555 1_555
O2C Y1 1_555 1_555
O2E Y1 1_555 1_555
O2F_2 K1 1_555 1_555
O2I K1 1_555 1_555
O2O K1 1_555 1_555
Y1A O2 1_555 1_555
K1C O2L 1_555 1_555
Y1A_2 O2F 1_555 1_555
K1_2 O2F 1_555 1_555
C1L O2L 1_555 1_555
C1J O2J 1_555 1_555
O1J Y1A_2 1_555 1_555
O2J K1C 1_555 1_555
O2F_2 Y1A 1_555 1_555

#END
