
#######################################################################
#
#                 Cambridge Crystallographic Data Centre
#                                CCDC 
#
#######################################################################
#
# If this CIF has been generated from an entry in the Cambridge 
# Structural Database, then it will include bibliographic, chemical, 
# crystal, experimental, refinement or atomic coordinate data resulting 
# from the CCDC's data processing and validation procedures.
#
#######################################################################

data_IQUZOJ
_symmetry_cell_setting           monoclinic
_symmetry_space_group_name_H-M   'P 21/n'
_symmetry_Int_Tables_number      14
_space_group_name_Hall           '-P 2yn'
loop_
_symmetry_equiv_pos_site_id
_symmetry_equiv_pos_as_xyz
1 x,y,z
2 1/2+x,1/2-y,1/2+z
3 -x,-y,-z
4 1/2-x,1/2+y,1/2-z
_cell_length_a                   8.5527(2)
_cell_length_b                   7.8253(2)
_cell_length_c                   21.9735(6)
_cell_angle_alpha                90
_cell_angle_beta                 98.4620(10)
_cell_angle_gamma                90
_cell_volume                     1454.62
loop_
_atom_site_label
_atom_site_type_symbol
_atom_site_fract_x
_atom_site_fract_y
_atom_site_fract_z
Ag1 Ag 0.99161(3) 0.30572(3) 0.739459(13)
C1 C 0.9508(4) 0.6139(4) 0.64123(15)
H1 H 0.9546 0.6484 0.5976
C2 C 0.7806(4) 0.6259(4) 0.65382(16)
H2 H 0.7121 0.5545 0.6237
H3 H 0.7740 0.5807 0.6955
C3 C 0.7210(4) 0.8097(4) 0.64948(15)
H4 H 0.7219 0.8523 0.6066
C4 C 0.8283(4) 0.9228(4) 0.69409(15)
H5 H 0.8250 0.8840 0.7368
H6 H 0.7895 1.0421 0.6904
C5 C 0.9988(4) 0.9161(4) 0.68059(15)
H7 H 1.0006 0.9601 0.6380
C6 C 1.0574(4) 0.7316(4) 0.68365(16)
H8 H 1.1652 0.7282 0.6723
H9 H 1.0638 0.6897 0.7265
N1 N 1.0073(4) 0.4351(4) 0.65001(14)
H10 H 1.1114 0.4329 0.6440
H11 H 0.9515 0.3701 0.6193
N2 N 0.5564(3) 0.8156(4) 0.66356(14)
H12 H 0.5026 0.7261 0.6430
H13 H 0.5113 0.9145 0.6464
N3 N 1.0989(3) 1.0291(3) 0.72446(13)
H14 H 1.1947 1.0431 0.7108
H15 H 1.1179 0.9747 0.7619
N2C N 0.9436(3) 0.3156(4) 0.83644(14)
N3_2 N 1.0989(3) 0.0291(3) 0.72446(13)
Ag1C Ag 0.50839(3) 0.80572(3) 0.760541(13)
Ag1_2 Ag 0.99161(3) 1.30572(3) 0.739459(13)
H12C H 0.9974 0.2261 0.8570
H13C H 0.9887 0.4145 0.8536
H14_2 H 1.1947 0.0431 0.7108
H15_2 H 1.1179 -0.0253 0.7619
S1 S 0.08397(12) 0.77284(12) 0.88388(4)
O1 O 0.1652(4) 0.6374(4) 0.85776(15)
O2 O -0.0828(4) 0.7413(5) 0.88095(17)
O3 O 0.1259(3) 0.9418(4) 0.86808(14)
C7 C 0.1597(9) 0.7569(8) 0.9647(2)
F1 F 0.1218(7) 0.6077(6) 0.98672(18)
F2 F 0.3118(6) 0.7755(7) 0.97502(19)
F3 F 0.0995(6) 0.8695(7) 0.99763(17)
C8 C 0.3160(9) 0.2666(10) 0.9911(3)
H16 H 0.3839 0.3430 0.9712
H17 H 0.2054 0.2850 0.9733
H18 H 0.3453 0.1476 0.9845
O4 O 0.3358(4) 0.3015(5) 1.05507(16)
H19 H 0.2484 0.2917 1.0679
loop_
_geom_bond_atom_site_label_1
_geom_bond_atom_site_label_2
_geom_bond_site_symmetry_1
_geom_bond_site_symmetry_2
Ag1 N1 1_555 1_555
C1 H1 1_555 1_555
C2 C1 1_555 1_555
H2 C2 1_555 1_555
H3 C2 1_555 1_555
C3 C2 1_555 1_555
H4 C3 1_555 1_555
C4 C3 1_555 1_555
H5 C4 1_555 1_555
H6 C4 1_555 1_555
C5 C4 1_555 1_555
H7 C5 1_555 1_555
C6 C1 1_555 1_555
H8 C6 1_555 1_555
H9 C6 1_555 1_555
N1 C1 1_555 1_555
H10 N1 1_555 1_555
H11 N1 1_555 1_555
N2 C3 1_555 1_555
H12 N2 1_555 1_555
H13 N2 1_555 1_555
N3 C5 1_555 1_555
H14 N3 1_555 1_555
H15 N3 1_555 1_555
S1 O1 1_555 1_555
O2 S1 1_555 1_555
O3 S1 1_555 1_555
C7 S1 1_555 1_555
F1 C7 1_555 1_555
F2 C7 1_555 1_555
F3 C7 1_555 1_555
C8 H16 1_555 1_555
H17 C8 1_555 1_555
H18 C8 1_555 1_555
O4 C8 1_555 1_555
H19 O4 1_555 1_555
N2C Ag1 1_555 1_555
N3_2 Ag1 1_555 1_555
Ag1C N2 1_555 1_555
Ag1_2 N3 1_555 1_555
H12C N2C 1_555 1_555
H13C N2C 1_555 1_555
H14_2 N3_2 1_555 1_555
H15_2 N3_2 1_555 1_555
C5 C6 1_555 1_555

#END
