
#######################################################################
#
#                 Cambridge Crystallographic Data Centre
#                                CCDC 
#
#######################################################################
#
# If this CIF has been generated from an entry in the Cambridge 
# Structural Database, then it will include bibliographic, chemical, 
# crystal, experimental, refinement or atomic coordinate data resulting 
# from the CCDC's data processing and validation procedures.
#
#######################################################################

data_IRACOU
_symmetry_cell_setting           monoclinic
_symmetry_space_group_name_H-M   'P 21/a'
_symmetry_Int_Tables_number      14
_space_group_name_Hall           '-P 2yab'
loop_
_symmetry_equiv_pos_site_id
_symmetry_equiv_pos_as_xyz
1 x,y,z
2 1/2-x,1/2+y,-z
3 -x,-y,-z
4 1/2+x,1/2-y,z
_cell_length_a                   12.191(3)
_cell_length_b                   7.1808(17)
_cell_length_c                   13.680(3)
_cell_angle_alpha                90
_cell_angle_beta                 103.631(4)
_cell_angle_gamma                90
_cell_volume                     1163.83
loop_
_atom_site_label
_atom_site_type_symbol
_atom_site_fract_x
_atom_site_fract_y
_atom_site_fract_z
Cu1 Cu 0.14277(2) 0.02779(3) 0.54642(2)
S1 S -0.01558(4) 0.35467(6) 0.60353(4)
O1 O 0.24714(11) -0.16944(18) 0.53535(9)
O2 O 0.36647(11) -0.39877(18) 0.59149(9)
O3 O 0.16779(12) 0.01136(19) 0.68686(10)
O4 O 0.37542(14) -0.1089(2) 1.02125(11)
O5 O 0.00891(11) 0.19354(17) 0.53824(10)
C1 C 0.31255(14) -0.2554(2) 0.60791(13)
C2 C 0.32769(15) -0.1988(2) 0.71368(13)
C3 C 0.41724(17) -0.2792(2) 0.78572(14)
C4 C 0.43295(18) -0.2454(3) 0.88680(15)
C5 C 0.35709(18) -0.1275(2) 0.91945(14)
C6 C 0.26991(17) -0.0421(2) 0.85120(15)
C7 C 0.25365(15) -0.0747(2) 0.74682(13)
C8 C 0.3018(2) 0.0125(3) 1.05843(17)
C9 C 0.11686(18) 0.4661(2) 0.64982(16)
C10 C -0.03565(17) 0.2596(2) 0.71867(15)
H1 H 0.4683 -0.3592 0.7633
H2 H 0.4940 -0.3007 0.9341
H3 H 0.2202 0.0387 0.8750
H4 H 0.3055 0.1327 1.0304
H5 H 0.3249 0.0199 1.1297
H6 H 0.2266 -0.0327 1.0394
H7 H 0.1071 0.5712 0.6891
H8 H 0.1468 0.5052 0.5950
H9 H 0.1675 0.3808 0.6904
H10 H -0.0368 0.3573 0.7652
H11 H 0.0247 0.1768 0.7458
H12 H -0.1051 0.1937 0.7063
Cu1B Cu -0.14277(2) -0.02779(3) 0.45358(2)
Cu1A Cu 0.35723(2) -0.47221(3) 0.45358(2)
Cu1C Cu -0.35723(2) 0.47221(3) 0.54642(2)
S1B S 0.01558(4) -0.35467(6) 0.39647(4)
O1B O -0.24714(11) 0.16944(18) 0.46465(9)
O2B O -0.36647(11) 0.39877(18) 0.40851(9)
O2A O 0.13353(11) 0.10123(18) 0.40851(9)
O2C O -0.13353(11) -0.10123(18) 0.59149(9)
O3B O -0.16779(12) -0.01136(19) 0.31314(10)
O4B O -0.37542(14) 0.1089(2) -0.02125(11)
O5B O -0.00891(11) -0.19354(17) 0.46176(10)
C1B C -0.31255(14) 0.2554(2) 0.39209(13)
C2B C -0.32769(15) 0.1988(2) 0.28632(13)
C3B C -0.41724(17) 0.2792(2) 0.21428(14)
C4B C -0.43295(18) 0.2454(3) 0.11320(15)
C5B C -0.35709(18) 0.1275(2) 0.08055(14)
C6B C -0.26991(17) 0.0421(2) 0.14880(15)
C7B C -0.25365(15) 0.0747(2) 0.25318(13)
C8B C -0.3018(2) -0.0125(3) -0.05843(17)
C9B C -0.11686(18) -0.4661(2) 0.35018(16)
C10B C 0.03565(17) -0.2596(2) 0.28133(15)
H1B H -0.4683 0.3592 0.2367
H2B H -0.4940 0.3007 0.0659
H3B H -0.2202 -0.0387 0.1250
H4B H -0.3055 -0.1327 -0.0304
H5B H -0.3249 -0.0199 -0.1297
H6B H -0.2266 0.0327 -0.0394
H7B H -0.1071 -0.5712 0.3109
H8B H -0.1468 -0.5052 0.4050
H9B H -0.1675 -0.3808 0.3096
H10B H 0.0368 -0.3573 0.2348
H11B H -0.0247 -0.1768 0.2542
H12B H 0.1051 -0.1937 0.2937
loop_
_geom_bond_atom_site_label_1
_geom_bond_atom_site_label_2
_geom_bond_site_symmetry_1
_geom_bond_site_symmetry_2
Cu1 O1 1_555 1_555
S1 O5 1_555 1_555
O1 C1 1_555 1_555
O2 C1 1_555 1_555
O3 Cu1 1_555 1_555
O4 C5 1_555 1_555
O5 Cu1 1_555 1_555
C1 C2 1_555 1_555
C2 C3 1_555 1_555
C3 C4 1_555 1_555
C4 C5 1_555 1_555
C5 C6 1_555 1_555
C6 C7 1_555 1_555
C7 O3 1_555 1_555
C8 O4 1_555 1_555
C9 S1 1_555 1_555
C10 S1 1_555 1_555
H1 C3 1_555 1_555
H2 C4 1_555 1_555
H3 C6 1_555 1_555
H4 C8 1_555 1_555
H5 C8 1_555 1_555
H6 C8 1_555 1_555
H7 C9 1_555 1_555
H8 C9 1_555 1_555
H9 C9 1_555 1_555
H10 C10 1_555 1_555
H11 C10 1_555 1_555
H12 C10 1_555 1_555
Cu1B O5 1_555 1_555
Cu1A O2 1_555 1_555
Cu1C O2B 1_555 1_555
S1B O5B 1_555 1_555
O1B Cu1B 1_555 1_555
O2B C1B 1_555 1_555
O2A Cu1 1_555 1_555
O2C Cu1B 1_555 1_555
O3B Cu1B 1_555 1_555
O4B C5B 1_555 1_555
O5B Cu1 1_555 1_555
C1B O1B 1_555 1_555
C2B C1B 1_555 1_555
C3B C2B 1_555 1_555
C4B C3B 1_555 1_555
C5B C4B 1_555 1_555
C6B C5B 1_555 1_555
C7B O3B 1_555 1_555
C8B O4B 1_555 1_555
C9B S1B 1_555 1_555
C10B S1B 1_555 1_555
H1B C3B 1_555 1_555
H2B C4B 1_555 1_555
H3B C6B 1_555 1_555
H4B C8B 1_555 1_555
H5B C8B 1_555 1_555
H6B C8B 1_555 1_555
H7B C9B 1_555 1_555
H8B C9B 1_555 1_555
H9B C9B 1_555 1_555
H10B C10B 1_555 1_555
H11B C10B 1_555 1_555
H12B C10B 1_555 1_555
C2 C7 1_555 1_555
Cu1B O5B 1_555 1_555
C2B C7B 1_555 1_555
C6B C7B 1_555 1_555

#END
