
#######################################################################
#
#                 Cambridge Crystallographic Data Centre
#                                CCDC 
#
#######################################################################
#
# If this CIF has been generated from an entry in the Cambridge 
# Structural Database, then it will include bibliographic, chemical, 
# crystal, experimental, refinement or atomic coordinate data resulting 
# from the CCDC's data processing and validation procedures.
#
#######################################################################

data_IRACUA
_symmetry_cell_setting           monoclinic
_symmetry_space_group_name_H-M   'P 21'
_symmetry_Int_Tables_number      4
_space_group_name_Hall           'P 2yb'
loop_
_symmetry_equiv_pos_site_id
_symmetry_equiv_pos_as_xyz
1 x,y,z
2 -x,1/2+y,-z
_cell_length_a                   8.0001(4)
_cell_length_b                   14.7338(7)
_cell_length_c                   16.1445(8)
_cell_angle_alpha                90
_cell_angle_beta                 103.673(3)
_cell_angle_gamma                90
_cell_volume                     1849.05
loop_
_atom_site_label
_atom_site_type_symbol
_atom_site_fract_x
_atom_site_fract_y
_atom_site_fract_z
Zn1 Zn 0.43090(12) 0.75989(9) 0.94712(5)
C1 C 0.7457(11) 0.8834(7) 1.3882(6)
C2 C 0.7423(10) 0.8338(5) 1.3148(5)
C3 C 0.8744(13) 0.9471(7) 1.4203(7)
H1 H 0.8718 0.9809 1.4687
C4 C 0.8749(12) 0.8485(6) 1.2748(6)
H2 H 0.8769 0.8164 1.2255
C5 C 0.4656(12) 0.7725(7) 1.3166(5)
C6 C 0.6136(12) 0.7160(6) 1.2115(5)
H3 H 0.5492 0.6607 1.2138
H4 H 0.7319 0.6992 1.2139
C7 C 1.0053(13) 0.9591(7) 1.3789(8)
H5 H 1.0934 1.0002 1.3999
C8 C 1.0044(13) 0.9100(8) 1.3066(9)
H6 H 1.0923 0.9182 1.2786
C9 C 0.4668(13) 0.8399(8) 1.3884(6)
H7 H 0.4054 0.8940 1.3637
H8 H 0.4028 0.8135 1.4265
C10 C 0.4489(12) 0.6019(6) 0.8558(6)
C11 C 0.2622(10) 0.6711(5) 0.6675(5)
C12 C 0.3988(11) 0.5529(5) 0.7713(5)
H9 H 0.4785 0.5032 0.7718
H10 H 0.2852 0.5270 0.7654
C13 C 0.1296(10) 0.6870(6) 0.7090(5)
H11 H 0.1288 0.6558 0.7589
C14 C 0.0010(11) 0.7480(8) 0.6770(6)
H12 H -0.0871 0.7564 0.7049
C15 C -0.0002(13) 0.7967(7) 0.6051(7)
H13 H -0.0872 0.8384 0.5846
C16 C 0.1315(12) 0.7830(6) 0.5623(6)
H14 H 0.1340 0.8165 0.5138
C17 C 0.5427(11) 0.6823(7) 0.5978(5)
H15 H 0.5944 0.7383 0.6234
H16 H 0.6146 0.6589 0.5621
C18 C 0.5421(12) 0.6148(6) 0.6678(6)
C19 C 0.4797(16) 0.9304(6) 0.8613(7)
C20 C 0.2611(9) 1.0017(5) 0.6767(5)
C21 C 0.2481(12) 1.0527(7) 0.6041(6)
C22 C 0.1348(12) 1.0123(7) 0.7219(6)
H17 H 0.1407 0.9796 0.7718
C23 C 0.1229(15) 1.1116(7) 0.5765(8)
H18 H 0.1219 1.1464 0.5283
C24 C 0.4088(12) 0.8809(5) 0.7778(5)
H19 H 0.4807 0.8286 0.7745
H20 H 0.2939 0.8590 0.7767
C25 C 0.5395(14) 0.9421(6) 0.6692(7)
C26 C -0.0089(14) 1.1218(8) 0.6202(7)
H21 H -0.0996 1.1617 0.6002
C27 C -0.0010(15) 1.0722(9) 0.6920(8)
H22 H -0.0871 1.0784 0.7216
C28 C 0.5280(14) 1.0082(8) 0.5960(7)
H23 H 0.5936 1.0620 0.6179
H24 H 0.5832 0.9807 0.5548
O1 O 0.3684(10) 1.0346(6) 0.5547(5)
O2 O 0.6229(8) 0.8655(5) 1.4354(4)
O3 O 0.3804(8) 0.7021(5) 0.5463(4)
O4 O 0.3375(9) 0.7257(5) 1.2890(4)
O5 O 0.6708(9) 0.5698(5) 0.6983(5)
O6 O 0.6664(10) 0.8946(6) 0.6935(6)
N1 N 0.3972(9) 0.6099(5) 0.6970(4)
N2 N 0.6088(8) 0.7717(5) 1.2854(4)
N3 N 0.4022(10) 0.9397(5) 0.7033(5)
O7 O 0.4909(9) 0.8851(4) 0.9301(3)
O8 O 0.5398(9) 1.0071(4) 0.8620(4)
O9 O 0.4354(8) 0.5570(4) 0.9196(4)
O10 O 0.5458(9) 0.7147(4) 1.0620(4)
C29 C 0.2561(11) 0.7197(6) 0.5929(5)
C30 C 0.5383(9) 0.7647(8) 1.1262(4)
O11 O 0.4819(7) 0.6845(4) 0.8551(3)
O12 O 0.4785(9) 0.8388(4) 1.1237(4)
O13 O 0.1942(10) 0.7184(6) 0.9330(5)
C31 C 0.0836(16) 0.7767(8) 0.9331(7)
O14 O 0.2042(11) 1.0737(6) 0.9394(6)
O15 O 0.1752(11) 1.0037(8) 1.1330(5)
O16 O 0.8553(12) 1.1776(10) 0.8764(6)
O17 O 0.573(2) 0.9275(7) 1.0518(7)
O18 O 0.8529(15) 0.9495(10) 1.0466(10)
O19 O 0.1091(12) 0.8537(8) 0.9590(10)
C32 C -0.1108(12) 0.7604(16) 0.9027(8)
H25 H -0.1638 0.8120 0.8707
H26 H -0.1592 0.7517 0.9512
H27 H -0.1310 0.7073 0.8673
Na1 Na 0.3290(6) 0.9544(3) 1.0299(3)
Na2 Na 0.7175(7) 1.0854(4) 0.9708(3)
O9A O 0.5646(8) 1.0570(4) 1.0804(4)
O10A O 0.4542(9) 1.2147(4) 0.9380(4)
O13A O 0.8058(10) 1.2184(6) 1.0670(5)
Na1A Na 0.6710(6) 0.4544(3) 0.9701(3)
Na2A Na 0.2825(7) 0.5854(4) 1.0292(3)
loop_
_geom_bond_atom_site_label_1
_geom_bond_atom_site_label_2
_geom_bond_site_symmetry_1
_geom_bond_site_symmetry_2
Zn1 O7 1_555 1_555
C1 C2 1_555 1_555
C2 C4 1_555 1_555
C3 C1 1_555 1_555
H1 C3 1_555 1_555
C4 H2 1_555 1_555
C5 C9 1_555 1_555
C6 H3 1_555 1_555
H4 C6 1_555 1_555
C7 C3 1_555 1_555
H5 C7 1_555 1_555
C8 C4 1_555 1_555
H6 C8 1_555 1_555
C9 H7 1_555 1_555
H8 C9 1_555 1_555
C10 C12 1_555 1_555
C11 C13 1_555 1_555
C12 H9 1_555 1_555
H10 C12 1_555 1_555
C13 H11 1_555 1_555
C14 C13 1_555 1_555
H12 C14 1_555 1_555
C15 C14 1_555 1_555
H13 C15 1_555 1_555
C16 C15 1_555 1_555
H14 C16 1_555 1_555
C17 H15 1_555 1_555
H16 C17 1_555 1_555
C18 C17 1_555 1_555
C19 C24 1_555 1_555
C20 C21 1_555 1_555
C21 C23 1_555 1_555
C22 C20 1_555 1_555
H17 C22 1_555 1_555
C23 H18 1_555 1_555
C24 H19 1_555 1_555
H20 C24 1_555 1_555
C25 C28 1_555 1_555
C26 C23 1_555 1_555
H21 C26 1_555 1_555
C27 C22 1_555 1_555
H22 C27 1_555 1_555
C28 H23 1_555 1_555
H24 C28 1_555 1_555
O1 C21 1_555 1_555
O2 C1 1_555 1_555
O3 C17 1_555 1_555
O4 C5 1_555 1_555
O5 C18 1_555 1_555
O6 C25 1_555 1_555
N1 C11 1_555 1_555
N2 C2 1_555 1_555
N3 C20 1_555 1_555
O7 C19 1_555 1_555
O8 C19 1_555 1_555
O9 C10 1_555 1_555
O10 Zn1 1_555 1_555
C29 C11 1_555 1_555
C30 C6 1_555 1_555
O11 Zn1 1_555 1_555
O12 C30 1_555 1_555
O13 Zn1 1_555 1_555
C31 O13 1_555 1_555
O14 Na1 1_555 1_555
O15 Na1 1_555 1_555
O16 Na2 1_555 1_555
O17 Na1 1_555 1_555
O18 Na2 1_555 1_555
O19 C31 1_555 1_555
C32 C31 1_555 1_555
H25 C32 1_555 1_555
H26 C32 1_555 1_555
H27 C32 1_555 1_555
Na1 O7 1_555 1_555
Na2 O8 1_555 1_555
O9A Na1 1_555 1_555
O10A Na2 1_555 1_555
O13A Na2 1_555 1_555
Na1A O9 1_555 1_555
Na2A O9 1_555 1_555
C5 N2 1_555 1_555
C6 N2 1_555 1_555
C7 C8 1_555 1_555
C9 O2 1_555 1_555
C10 O11 1_555 1_555
C12 N1 1_555 1_555
C16 C29 1_555 1_555
C18 N1 1_555 1_555
C24 N3 1_555 1_555
C25 N3 1_555 1_555
C26 C27 1_555 1_555
C28 O1 1_555 1_555
O3 C29 1_555 1_555
O10 C30 1_555 1_555
O10 Na2A 1_555 1_555
O12 Na1 1_555 1_555
O13 Na2A 1_555 1_555
O19 Na1 1_555 1_555
Na2 O9A 1_555 1_555

#END
