
#######################################################################
#
#                 Cambridge Crystallographic Data Centre
#                                CCDC 
#
#######################################################################
#
# If this CIF has been generated from an entry in the Cambridge 
# Structural Database, then it will include bibliographic, chemical, 
# crystal, experimental, refinement or atomic coordinate data resulting 
# from the CCDC's data processing and validation procedures.
#
#######################################################################

data_IRARUO
_symmetry_cell_setting           triclinic
_symmetry_space_group_name_H-M   'P -1'
_symmetry_Int_Tables_number      2
_space_group_name_Hall           '-P 1'
loop_
_symmetry_equiv_pos_site_id
_symmetry_equiv_pos_as_xyz
1 x,y,z
2 -x,-y,-z
_cell_length_a                   7.350(6)
_cell_length_b                   10.214(7)
_cell_length_c                   12.348(9)
_cell_angle_alpha                73.986(14)
_cell_angle_beta                 80.295(13)
_cell_angle_gamma                75.429(12)
_cell_volume                     857.455
loop_
_atom_site_label
_atom_site_type_symbol
_atom_site_fract_x
_atom_site_fract_y
_atom_site_fract_z
Cu1 Cu 0.0000 1.0000 0.0000
N1 N -0.1607(8) 0.9182(6) 0.1417(5)
N2 N -0.2377(14) 0.7345(14) 0.5555(7)
N3 N 0.0348(9) 0.7675(8) 0.4804(5)
O1 O -0.400(2) 0.719(3) 0.5718(9)
O2 O 0.1719(10) 0.7991(16) 0.4076(6)
O3 O 0.2262(7) 0.8450(5) 0.0417(4)
O4 O 0.0579(8) 0.7697(6) -0.0547(5)
C1 C -0.3369(10) 0.9025(8) 0.1347(7)
H1 H -0.3782 0.9263 0.0633
C2 C -0.4562(11) 0.8543(9) 0.2256(7)
H2 H -0.5765 0.8482 0.2161
C3 C -0.3947(11) 0.8139(10) 0.3339(7)
H3 H -0.4743 0.7824 0.3976
C4 C -0.2107(10) 0.8220(8) 0.3446(6)
C5 C -0.0958(10) 0.8729(7) 0.2461(5)
H4 H 0.0274 0.8759 0.2523
C6 C -0.1380(11) 0.7742(9) 0.4594(6)
C7 C 0.0665(12) 0.7145(9) 0.6052(6)
C8 C -0.1370(15) 0.6987(13) 0.6578(7)
C9 C 0.1408(17) 0.8219(13) 0.6391(9)
H5 H 0.2659 0.8248 0.6018
H6 H 0.1445 0.7967 0.7197
H7 H 0.0590 0.9121 0.6172
C10 C 0.2190(18) 0.5755(12) 0.6160(12)
H8 H 0.3392 0.5955 0.5811
H9 H 0.1838 0.5158 0.5789
H10 H 0.2278 0.5297 0.6946
C11 C -0.2367(18) 0.7979(17) 0.7307(12)
H11 H -0.3598 0.7799 0.7604
H12 H -0.2494 0.8923 0.6859
H13 H -0.1643 0.7847 0.7922
C12 C -0.153(3) 0.5482(16) 0.7246(14)
H14 H -0.2819 0.5474 0.7545
H15 H -0.0749 0.5177 0.7858
H16 H -0.1112 0.4866 0.6748
C13 C 0.2014(10) 0.7556(8) -0.0059(6)
C14 C 0.3565(10) 0.6231(7) -0.0030(5)
C15 C 0.5301(11) 0.6108(8) 0.0360(7)
H17 H 0.5513 0.6839 0.0600
C16 C 0.3260(11) 0.5127(8) -0.0392(6)
H18 H 0.2114 0.5201 -0.0653
C16A C 0.6740(11) 0.4873(8) 0.0392(6)
C14A C 0.6435(10) 0.3769(7) 0.0030(5)
C13A C 0.7986(10) 0.2444(8) 0.0059(6)
O3A O 0.7738(7) 0.1550(5) -0.0417(4)
O4A O 0.9421(8) 0.2303(6) 0.0547(5)
C15A C 0.4699(11) 0.3892(8) -0.0360(7)
H17A H 0.4487 0.3161 -0.0600
H18A H 0.7886 0.4799 0.0653
N1A N 0.1607(8) 1.0818(6) -0.1417(5)
N2A N 0.2377(14) 1.2655(14) -0.5555(7)
N3A N -0.0348(9) 1.2325(8) -0.4804(5)
O1A O 0.400(2) 1.281(3) -0.5718(9)
O2A O -0.1719(10) 1.2009(16) -0.4076(6)
C1A C 0.3369(10) 1.0975(8) -0.1347(7)
H1A H 0.3782 1.0737 -0.0633
C2A C 0.4562(11) 1.1457(9) -0.2256(7)
H2A H 0.5765 1.1518 -0.2161
C3A C 0.3947(11) 1.1861(10) -0.3339(7)
H3A H 0.4743 1.2176 -0.3976
C4A C 0.2107(10) 1.1780(8) -0.3446(6)
C5A C 0.0958(10) 1.1271(7) -0.2461(5)
H4A H -0.0274 1.1241 -0.2523
C6A C 0.1380(11) 1.2258(9) -0.4594(6)
C7A C -0.0665(12) 1.2855(9) -0.6052(6)
C8A C 0.1370(15) 1.3013(13) -0.6578(7)
C9A C -0.1408(17) 1.1781(13) -0.6391(9)
H5A H -0.2659 1.1752 -0.6018
H6A H -0.1445 1.2033 -0.7197
H7A H -0.0590 1.0879 -0.6172
C10A C -0.2190(18) 1.4245(12) -0.6160(12)
H8A H -0.3392 1.4045 -0.5811
H9A H -0.1838 1.4842 -0.5789
H10A H -0.2278 1.4703 -0.6946
C11A C 0.2367(18) 1.2021(17) -0.7307(12)
H11A H 0.3598 1.2201 -0.7604
H12A H 0.2494 1.1077 -0.6859
H13A H 0.1643 1.2153 -0.7922
C12A C 0.153(3) 1.4518(16) -0.7246(14)
H14A H 0.2819 1.4526 -0.7545
H15A H 0.0749 1.4823 -0.7858
H16A H 0.1112 1.5134 -0.6748
O3A_2 O -0.2262(7) 1.1550(5) -0.0417(4)
O4A_2 O -0.0579(8) 1.2303(6) 0.0547(5)
Cu1_2 Cu 1.0000 0.0000 0.0000
loop_
_geom_bond_atom_site_label_1
_geom_bond_atom_site_label_2
_geom_bond_site_symmetry_1
_geom_bond_site_symmetry_2
Cu1 N1 1_555 1_555
N1 C1 1_555 1_555
N2 O1 1_555 1_555
N3 O2 1_555 1_555
O3 Cu1 1_555 1_555
O4 Cu1 1_555 1_555
C1 H1 1_555 1_555
C2 C1 1_555 1_555
H2 C2 1_555 1_555
C3 C2 1_555 1_555
H3 C3 1_555 1_555
C4 C3 1_555 1_555
C5 N1 1_555 1_555
H4 C5 1_555 1_555
C6 N2 1_555 1_555
C7 N3 1_555 1_555
C8 N2 1_555 1_555
C9 C7 1_555 1_555
H5 C9 1_555 1_555
H6 C9 1_555 1_555
H7 C9 1_555 1_555
C10 C7 1_555 1_555
H8 C10 1_555 1_555
H9 C10 1_555 1_555
H10 C10 1_555 1_555
C11 C8 1_555 1_555
H11 C11 1_555 1_555
H12 C11 1_555 1_555
H13 C11 1_555 1_555
C12 C8 1_555 1_555
H14 C12 1_555 1_555
H15 C12 1_555 1_555
H16 C12 1_555 1_555
C13 O3 1_555 1_555
C14 C13 1_555 1_555
C15 C14 1_555 1_555
H17 C15 1_555 1_555
C16 C14 1_555 1_555
H18 C16 1_555 1_555
C16A C15 1_555 1_555
C14A C16A 1_555 1_555
C13A C14A 1_555 1_555
O3A C13A 1_555 1_555
O4A C13A 1_555 1_555
C15A C16 1_555 1_555
H17A C15A 1_555 1_555
H18A C16A 1_555 1_555
N1A Cu1 1_555 1_555
N2A O1A 1_555 1_555
N3A O2A 1_555 1_555
C1A N1A 1_555 1_555
H1A C1A 1_555 1_555
C2A C1A 1_555 1_555
H2A C2A 1_555 1_555
C3A C2A 1_555 1_555
H3A C3A 1_555 1_555
C4A C3A 1_555 1_555
C5A N1A 1_555 1_555
H4A C5A 1_555 1_555
C6A N2A 1_555 1_555
C7A N3A 1_555 1_555
C8A N2A 1_555 1_555
C9A C7A 1_555 1_555
H5A C9A 1_555 1_555
H6A C9A 1_555 1_555
H7A C9A 1_555 1_555
C10A C7A 1_555 1_555
H8A C10A 1_555 1_555
H9A C10A 1_555 1_555
H10A C10A 1_555 1_555
C11A C8A 1_555 1_555
H11A C11A 1_555 1_555
H12A C11A 1_555 1_555
H13A C11A 1_555 1_555
C12A C8A 1_555 1_555
H14A C12A 1_555 1_555
H15A C12A 1_555 1_555
H16A C12A 1_555 1_555
O3A_2 Cu1 1_555 1_555
O4A_2 Cu1 1_555 1_555
Cu1_2 O3A 1_555 1_555
N3 C6 1_555 1_555
O4 C13 1_555 1_555
C4 C5 1_555 1_555
C4 C6 1_555 1_555
C7 C8 1_555 1_555
C14A C15A 1_555 1_555
O4A Cu1_2 1_555 1_555
N3A C6A 1_555 1_555
C4A C5A 1_555 1_555
C4A C6A 1_555 1_555
C7A C8A 1_555 1_555

#END
