
#######################################################################
#
#                 Cambridge Crystallographic Data Centre
#                                CCDC 
#
#######################################################################
#
# If this CIF has been generated from an entry in the Cambridge 
# Structural Database, then it will include bibliographic, chemical, 
# crystal, experimental, refinement or atomic coordinate data resulting 
# from the CCDC's data processing and validation procedures.
#
#######################################################################

data_IRAYEG
_symmetry_cell_setting           monoclinic
_symmetry_space_group_name_H-M   'C 2/c'
_symmetry_Int_Tables_number      15
_space_group_name_Hall           '-C 2yn'
loop_
_symmetry_equiv_pos_site_id
_symmetry_equiv_pos_as_xyz
1 x,y,z
2 -x,y,1/2-z
3 1/2+x,1/2+y,z
4 1/2-x,1/2+y,1/2-z
5 -x,-y,-z
6 x,-y,1/2+z
7 1/2-x,1/2-y,-z
8 1/2+x,1/2-y,1/2+z
_cell_length_a                   25.200(10)
_cell_length_b                   13.162(6)
_cell_length_c                   8.828(5)
_cell_angle_alpha                90
_cell_angle_beta                 93.85(2)
_cell_angle_gamma                90
_cell_volume                     2921.48
loop_
_atom_site_label
_atom_site_type_symbol
_atom_site_fract_x
_atom_site_fract_y
_atom_site_fract_z
Cu1 Cu 0.29227(2) 0.28302(5) 0.08152(7)
O1 O 0.32291(17) 0.3004(4) -0.1170(5)
O2 O 0.25128(17) 0.2467(4) -0.2528(5)
O3 O 0.25600(17) 0.4151(3) 0.0532(5)
O4 O 0.18427(17) 0.3601(3) -0.0840(5)
N1 N 0.35834(16) 0.3454(3) 0.2250(5)
C1 C 0.2974(2) 0.2812(4) -0.2402(6)
C2 C 0.3242(3) 0.3025(6) -0.3843(7)
H1 H 0.3059 0.2670 -0.4671
H2 H 0.3604 0.2800 -0.3731
H3 H 0.3232 0.3742 -0.4045
C3 C 0.2125(2) 0.4288(4) -0.0192(7)
C4 C 0.1919(3) 0.5367(6) -0.0316(11)
H4 H 0.1537 0.5359 -0.0399
H5 H 0.2048 0.5684 -0.1200
H6 H 0.2042 0.5741 0.0573
C5 C 0.4016(2) 0.2916(5) 0.2649(7)
H7 H 0.4051 0.2273 0.2232
C6 C 0.4417(2) 0.3276(5) 0.3664(7)
H8 H 0.4712 0.2872 0.3925
C7 C 0.4379(2) 0.4234(5) 0.4288(6)
C8 C 0.3931(2) 0.4791(4) 0.3868(6)
H9 H 0.3889 0.5442 0.4252
C9 C 0.3543(2) 0.4373(4) 0.2866(6)
H10 H 0.3240 0.4754 0.2610
C10 C 0.4809(2) 0.4661(5) 0.5378(6)
H11 H 0.4645 0.5044 0.6162
H12 H 0.5006 0.4104 0.5867
Cu1D Cu 0.70773(2) 0.71698(5) 0.91848(7)
Cu1B Cu 0.79227(2) 0.78302(5) 1.08152(7)
Cu1F Cu 0.20773(2) 0.21698(5) -0.08152(7)
O1D O 0.67709(17) 0.6996(4) 1.1170(5)
O2D O 0.74872(17) 0.7533(4) 1.2528(5)
O2B O 0.75128(17) 0.7467(4) 0.7472(5)
O2F O 0.24872(17) 0.2533(4) 0.2528(5)
O3D O 0.74400(17) 0.5849(3) 0.9468(5)
O4D O 0.81573(17) 0.6399(3) 1.0840(5)
O4B O 0.68427(17) 0.8601(3) 0.9160(5)
O4F O 0.31573(17) 0.1399(3) 0.0840(5)
N1D N 0.64166(16) 0.6546(3) 0.7750(5)
C1D C 0.7026(2) 0.7188(4) 1.2402(6)
C2D C 0.6758(3) 0.6975(6) 1.3843(7)
H1D H 0.6941 0.7330 1.4671
H2D H 0.6396 0.7200 1.3731
H3D H 0.6768 0.6258 1.4045
C3D C 0.7875(2) 0.5712(4) 1.0192(7)
C4D C 0.8081(3) 0.4633(6) 1.0316(11)
H4D H 0.8463 0.4641 1.0399
H5D H 0.7952 0.4316 1.1200
H6D H 0.7958 0.4259 0.9427
C5D C 0.5984(2) 0.7084(5) 0.7351(7)
H7D H 0.5949 0.7727 0.7768
C6D C 0.5583(2) 0.6724(5) 0.6336(7)
H8D H 0.5288 0.7128 0.6075
C7D C 0.5621(2) 0.5766(5) 0.5712(6)
C8D C 0.6069(2) 0.5209(4) 0.6132(6)
H9D H 0.6111 0.4558 0.5748
C9D C 0.6457(2) 0.5627(4) 0.7134(6)
H10D H 0.6760 0.5246 0.7390
C10D C 0.5191(2) 0.5339(5) 0.4622(6)
H11D H 0.5355 0.4956 0.3838
H12D H 0.4994 0.5896 0.4133
O5 O 0.5000 0.091(4) 0.2500
O6 O 0.5000 0.928(5) 0.2500
loop_
_geom_bond_atom_site_label_1
_geom_bond_atom_site_label_2
_geom_bond_site_symmetry_1
_geom_bond_site_symmetry_2
Cu1 O1 1_555 1_555
O1 C1 1_555 1_555
O2 C1 1_555 1_555
O3 Cu1 1_555 1_555
O4 C3 1_555 1_555
N1 Cu1 1_555 1_555
C1 C2 1_555 1_555
C2 H1 1_555 1_555
H2 C2 1_555 1_555
H3 C2 1_555 1_555
C3 O3 1_555 1_555
C4 C3 1_555 1_555
H4 C4 1_555 1_555
H5 C4 1_555 1_555
H6 C4 1_555 1_555
C5 N1 1_555 1_555
H7 C5 1_555 1_555
C6 C5 1_555 1_555
H8 C6 1_555 1_555
C7 C6 1_555 1_555
C8 C7 1_555 1_555
H9 C8 1_555 1_555
C9 N1 1_555 1_555
H10 C9 1_555 1_555
C10 C7 1_555 1_555
H11 C10 1_555 1_555
H12 C10 1_555 1_555
Cu1D Cu1B 1_555 1_555
Cu1B O2D 1_555 1_555
Cu1F Cu1 1_555 1_555
O1D Cu1D 1_555 1_555
O2D C1D 1_555 1_555
O2B Cu1D 1_555 1_555
O2F Cu1 1_555 1_555
O3D Cu1D 1_555 1_555
O4D Cu1B 1_555 1_555
O4B Cu1D 1_555 1_555
O4F Cu1 1_555 1_555
N1D Cu1D 1_555 1_555
C1D O1D 1_555 1_555
C2D C1D 1_555 1_555
H1D C2D 1_555 1_555
H2D C2D 1_555 1_555
H3D C2D 1_555 1_555
C3D O3D 1_555 1_555
C4D C3D 1_555 1_555
H4D C4D 1_555 1_555
H5D C4D 1_555 1_555
H6D C4D 1_555 1_555
C5D N1D 1_555 1_555
H7D C5D 1_555 1_555
C6D C5D 1_555 1_555
H8D C6D 1_555 1_555
C7D C6D 1_555 1_555
C8D C7D 1_555 1_555
H9D C8D 1_555 1_555
C9D N1D 1_555 1_555
H10D C9D 1_555 1_555
C10D C10 1_555 1_555
H11D C10D 1_555 1_555
H12D C10D 1_555 1_555
O2 Cu1F 1_555 1_555
O4 Cu1F 1_555 1_555
C8 C9 1_555 1_555
O4D C3D 1_555 1_555
C7D C10D 1_555 1_555
C8D C9D 1_555 1_555

#END
