
#######################################################################
#
#                 Cambridge Crystallographic Data Centre
#                                CCDC 
#
#######################################################################
#
# If this CIF has been generated from an entry in the Cambridge 
# Structural Database, then it will include bibliographic, chemical, 
# crystal, experimental, refinement or atomic coordinate data resulting 
# from the CCDC's data processing and validation procedures.
#
#######################################################################

data_IRAYAC
_symmetry_cell_setting           tetragonal
_symmetry_space_group_name_H-M   'I -4 c 2'
_symmetry_Int_Tables_number      120
_space_group_name_Hall           'I -4 -2c'
loop_
_symmetry_equiv_pos_site_id
_symmetry_equiv_pos_as_xyz
1 x,y,z
2 -x,y,1/2+z
3 -x,-y,z
4 x,-y,1/2+z
5 y,x,1/2-z
6 -y,x,-z
7 y,-x,-z
8 -y,-x,1/2-z
9 1/2+x,1/2+y,1/2+z
10 1/2-x,1/2+y,z
11 1/2-x,1/2-y,1/2+z
12 1/2+x,1/2-y,z
13 1/2+y,1/2+x,-z
14 1/2-y,1/2+x,1/2-z
15 1/2+y,1/2-x,1/2-z
16 1/2-y,1/2-x,-z
_cell_length_a                   14.6637(2)
_cell_length_b                   14.6637(2)
_cell_length_c                   16.7085(3)
_cell_angle_alpha                90
_cell_angle_beta                 90
_cell_angle_gamma                90
_cell_volume                     3592.73
loop_
_atom_site_label
_atom_site_type_symbol
_atom_site_fract_x
_atom_site_fract_y
_atom_site_fract_z
O4 O 0.943(6) 0.108(6) 0.087(7)
O5 O 0.957(5) 0.112(4) 0.327(5)
Cu1 Cu -0.5000 0.0000 -0.5000
N1 N -0.4332(3) 0.0708(4) -0.4151(3)
C1 C -0.3392(4) 0.0680(5) -0.4160(5)
H1 H -0.3091 0.0339 -0.4547
C2 C -0.2891(5) 0.1163(8) -0.3591(5)
H2 H -0.2258 0.1164 -0.3622
C3 C -0.3315(7) 0.1639(7) -0.2981(4)
C4 C -0.4218(6) 0.1600(6) -0.2984(5)
H3 H -0.4542 0.1897 -0.2582
C5 C -0.4686(5) 0.1134(6) -0.3563(4)
H4 H -0.5318 0.1127 -0.3524
C6 C -0.2790(8) 0.2133(9) -0.2338(5)
H5 H -0.3216 0.2451 -0.1993
H6 H -0.2467 0.1689 -0.2014
O1 O -0.3800(4) -0.1200(4) -0.5000
O2 O -0.4101 -0.2601 -0.4697
O3 O -0.2813 -0.2187 -0.5000
N2 N -0.3601 -0.1983 -0.4891
Cu1D Cu 0.0000 0.5000 0.0000
Cu1D_2 Cu -1.0000 -0.5000 0.0000
N1G N -0.0708(4) 0.4332(3) -0.0849(3)
N1B N -0.5668(3) -0.0708(4) -0.4151(3)
N1D N -0.9292(4) -0.4332(3) -0.0849(3)
N1L N -0.4292(4) 0.0668(3) -0.5849(3)
N1O N -0.5708(4) -0.0668(3) -0.5849(3)
C1G C -0.0680(5) 0.3392(4) -0.0840(5)
C1B C -0.6608(4) -0.0680(5) -0.4160(5)
C1D C -0.9320(5) -0.3392(4) -0.0840(5)
H1G H -0.0339 0.3091 -0.0453
H1B H -0.6909 -0.0339 -0.4547
H1D H -0.9661 -0.3091 -0.0453
C2G C -0.1163(8) 0.2891(5) -0.1409(5)
C2B C -0.7109(5) -0.1163(8) -0.3591(5)
C2D C -0.8837(8) -0.2891(5) -0.1409(5)
H2G H -0.1164 0.2258 -0.1378
H2B H -0.7742 -0.1164 -0.3622
H2D H -0.8836 -0.2258 -0.1378
C3G C -0.1639(7) 0.3315(7) -0.2019(4)
C3B C -0.6685(7) -0.1639(7) -0.2981(4)
C3D C -0.8361(7) -0.3315(7) -0.2019(4)
C4G C -0.1600(6) 0.4218(6) -0.2016(5)
C4B C -0.5782(6) -0.1600(6) -0.2984(5)
C4D C -0.8400(6) -0.4218(6) -0.2016(5)
H3G H -0.1897 0.4542 -0.2418
H3B H -0.5458 -0.1897 -0.2582
H3D H -0.8103 -0.4542 -0.2418
C5G C -0.1134(6) 0.4686(5) -0.1437(4)
C5B C -0.5314(5) -0.1134(6) -0.3563(4)
C5D C -0.8866(6) -0.4686(5) -0.1437(4)
H4G H -0.1127 0.5318 -0.1476
H4B H -0.4682 -0.1127 -0.3524
H4D H -0.8873 -0.5318 -0.1476
C6G C -0.2133(9) 0.2790(8) -0.2662(5)
C6B C -0.7210(8) -0.2133(9) -0.2338(5)
C6D C -0.7867(9) -0.2790(8) -0.2662(5)
H5G H -0.2451 0.3216 -0.3007
H5B H -0.6784 -0.2451 -0.1993
H5D H -0.7549 -0.3216 -0.3007
H6G H -0.1689 0.2467 -0.2986
H6B H -0.7533 -0.1689 -0.2014
H6D H -0.8311 -0.2467 -0.2986
O1B O -0.6200(4) 0.1200(4) -0.5000
O2O O -0.2399 -0.0899 -0.5303
O2B O -0.5899 0.2601 -0.4697
O2L O -0.7601 0.0899 -0.5303
O3B O -0.7187 0.2187 -0.5000
N2O N -0.3017 -0.1399 -0.5109
N2B N -0.6399 0.1983 -0.4891
N2L N -0.6983 0.1399 -0.5109
loop_
_geom_bond_atom_site_label_1
_geom_bond_atom_site_label_2
_geom_bond_site_symmetry_1
_geom_bond_site_symmetry_2
Cu1 N1 1_555 1_555
N1 C1 1_555 1_555
C1 H1 1_555 1_555
C2 C1 1_555 1_555
H2 C2 1_555 1_555
C3 C2 1_555 1_555
C4 C3 1_555 1_555
H3 C4 1_555 1_555
C5 N1 1_555 1_555
H4 C5 1_555 1_555
C6 C3 1_555 1_555
H5 C6 1_555 1_555
H6 C6 1_555 1_555
O1 Cu1 1_555 1_555
O2 N2 1_555 1_555
O3 N2 1_555 1_555
N2 O1 1_555 1_555
Cu1D N1G 1_555 1_555
Cu1D_2 N1D 1_555 1_555
N1G C1G 1_555 1_555
N1B Cu1 1_555 1_555
N1D C1D 1_555 1_555
N1L Cu1 1_555 1_555
N1O Cu1 1_555 1_555
C1G H1G 1_555 1_555
C1B N1B 1_555 1_555
C1D H1D 1_555 1_555
H1B C1B 1_555 1_555
C2G C1G 1_555 1_555
C2B C1B 1_555 1_555
C2D C1D 1_555 1_555
H2G C2G 1_555 1_555
H2B C2B 1_555 1_555
H2D C2D 1_555 1_555
C3G C2G 1_555 1_555
C3B C2B 1_555 1_555
C3D C2D 1_555 1_555
C4G C3G 1_555 1_555
C4B C3B 1_555 1_555
C4D C3D 1_555 1_555
H3G C4G 1_555 1_555
H3B C4B 1_555 1_555
H3D C4D 1_555 1_555
C5G N1G 1_555 1_555
C5B N1B 1_555 1_555
C5D N1D 1_555 1_555
H4G C5G 1_555 1_555
H4B C5B 1_555 1_555
H4D C5D 1_555 1_555
C6G C6 1_555 1_555
C6B C3B 1_555 1_555
C6D C3D 1_555 1_555
H5G C6G 1_555 1_555
H5B C6B 1_555 1_555
H5D C6D 1_555 1_555
H6G C6G 1_555 1_555
H6B C6B 1_555 1_555
H6D C6D 1_555 1_555
O1B Cu1 1_555 1_555
O2O N2O 1_555 1_555
O2B N2B 1_555 1_555
O2L N2L 1_555 1_555
O3B N2B 1_555 1_555
N2O O1 1_555 1_555
N2B O1B 1_555 1_555
N2L O1B 1_555 1_555
C4 C5 1_555 1_555
O3 N2O 1_555 1_555
N2 N2O 1_555 1_555
C3G C6G 1_555 1_555
C4G C5G 1_555 1_555
C4B C5B 1_555 1_555
C4D C5D 1_555 1_555
C6B C6D 1_555 1_555
O3B N2L 1_555 1_555
N2B N2L 1_555 1_555

#END
