
#######################################################################
#
#                 Cambridge Crystallographic Data Centre
#                                CCDC 
#
#######################################################################
#
# If this CIF has been generated from an entry in the Cambridge 
# Structural Database, then it will include bibliographic, chemical, 
# crystal, experimental, refinement or atomic coordinate data resulting 
# from the CCDC's data processing and validation procedures.
#
#######################################################################

data_IREBIR
_symmetry_cell_setting           monoclinic
_symmetry_space_group_name_H-M   'C 2/c'
_symmetry_Int_Tables_number      15
_space_group_name_Hall           '-C 2yn'
loop_
_symmetry_equiv_pos_site_id
_symmetry_equiv_pos_as_xyz
1 x,y,z
2 -x,y,1/2-z
3 1/2+x,1/2+y,z
4 1/2-x,1/2+y,1/2-z
5 -x,-y,-z
6 x,-y,1/2+z
7 1/2-x,1/2-y,-z
8 1/2+x,1/2-y,1/2+z
_cell_length_a                   16.995(4)
_cell_length_b                   10.580(3)
_cell_length_c                   16.577(5)
_cell_angle_alpha                90
_cell_angle_beta                 117.462(3)
_cell_angle_gamma                90
_cell_volume                     2644.79
loop_
_atom_site_label
_atom_site_type_symbol
_atom_site_fract_x
_atom_site_fract_y
_atom_site_fract_z
Cd1 Cd 0.5000 0.34516(4) 0.2500
S1 S 0.65481(7) 0.84280(9) 0.55110(7)
S2 S 0.21112(9) 0.42760(17) 0.25041(10)
N1 N 0.5700(2) 0.5053(3) 0.3604(2)
N2 N 0.5576(2) 1.1811(3) 0.3592(2)
N3 N 0.3729(2) 0.3453(3) 0.2668(2)
C1 C 0.5730(2) 0.5013(4) 0.4422(2)
H1 H 0.5568 0.4259 0.4607
C2 C 0.5985(2) 0.6026(4) 0.5003(3)
H2 H 0.6002 0.5957 0.5576
C3 C 0.6217(2) 0.7150(4) 0.4743(2)
C4 C 0.6207(2) 0.7189(4) 0.3904(3)
H3 H 0.6368 0.7932 0.3705
C5 C 0.5960(2) 0.6134(4) 0.3369(3)
H4 H 0.5972 0.6164 0.2808
C6 C 0.6432(3) 1.1649(4) 0.4166(3)
H5 H 0.6837 1.2259 0.4173
C7 C 0.6750(2) 1.0646(4) 0.4742(3)
H6 H 0.7360 1.0582 0.5139
C8 C 0.6172(2) 0.9719(4) 0.4740(2)
C9 C 0.5284(2) 0.9872(4) 0.4138(2)
H7 H 0.4867 0.9263 0.4105
C10 C 0.5016(2) 1.0921(4) 0.3588(3)
H8 H 0.4409 1.1016 0.3188
C11 C 0.3050(3) 0.3792(4) 0.2582(3)
Cd1_2 Cd 0.5000 1.34516(4) 0.2500
S1A S 0.34519(7) 0.84280(9) -0.05110(7)
S2A S 0.78888(9) 0.42760(17) 0.24959(10)
N1A N 0.4300(2) 0.5053(3) 0.1396(2)
N2A N 0.4424(2) 1.1811(3) 0.1408(2)
N2_2 N 0.5576(2) 0.1811(3) 0.3592(2)
N2A_2 N 0.4424(2) 0.1811(3) 0.1408(2)
N3A N 0.6271(2) 0.3453(3) 0.2332(2)
C1A C 0.4270(2) 0.5013(4) 0.0578(2)
H1A H 0.4432 0.4259 0.0393
C2A C 0.4015(2) 0.6026(4) -0.0003(3)
H2A H 0.3998 0.5957 -0.0576
C3A C 0.3783(2) 0.7150(4) 0.0257(2)
C4A C 0.3793(2) 0.7189(4) 0.1096(3)
H3A H 0.3632 0.7932 0.1295
C5A C 0.4040(2) 0.6134(4) 0.1631(3)
H4A H 0.4028 0.6164 0.2192
C6A C 0.3568(3) 1.1649(4) 0.0834(3)
H5A H 0.3163 1.2259 0.0827
C7A C 0.3250(2) 1.0646(4) 0.0258(3)
H6A H 0.2640 1.0582 -0.0139
C8A C 0.3828(2) 0.9719(4) 0.0260(2)
C9A C 0.4716(2) 0.9872(4) 0.0862(2)
H7A H 0.5133 0.9263 0.0895
C10A C 0.4984(2) 1.0921(4) 0.1412(3)
H8A H 0.5591 1.1016 0.1812
C11A C 0.6950(3) 0.3792(4) 0.2418(3)
O1 O 0.6354(10) 0.3287(12) 0.6385(10)
O2? O 0.6590(10) 0.3242(13) 0.6153(10)
loop_
_geom_bond_atom_site_label_1
_geom_bond_atom_site_label_2
_geom_bond_site_symmetry_1
_geom_bond_site_symmetry_2
Cd1 N1 1_555 1_555
S1 C3 1_555 1_555
S2 C11 1_555 1_555
N1 C1 1_555 1_555
N2 C6 1_555 1_555
N3 Cd1 1_555 1_555
C1 H1 1_555 1_555
C2 C1 1_555 1_555
H2 C2 1_555 1_555
C3 C2 1_555 1_555
C4 C3 1_555 1_555
H3 C4 1_555 1_555
C5 N1 1_555 1_555
H4 C5 1_555 1_555
C6 H5 1_555 1_555
C7 C6 1_555 1_555
H6 C7 1_555 1_555
C8 S1 1_555 1_555
C9 C8 1_555 1_555
H7 C9 1_555 1_555
C10 N2 1_555 1_555
H8 C10 1_555 1_555
C11 N3 1_555 1_555
Cd1_2 N2 1_555 1_555
S1A C3A 1_555 1_555
S2A C11A 1_555 1_555
N1A Cd1 1_555 1_555
N2A Cd1_2 1_555 1_555
N2_2 Cd1 1_555 1_555
N2A_2 Cd1 1_555 1_555
N3A Cd1 1_555 1_555
C1A N1A 1_555 1_555
H1A C1A 1_555 1_555
C2A C1A 1_555 1_555
H2A C2A 1_555 1_555
C3A C2A 1_555 1_555
C4A C3A 1_555 1_555
H3A C4A 1_555 1_555
C5A N1A 1_555 1_555
H4A C5A 1_555 1_555
C6A N2A 1_555 1_555
H5A C6A 1_555 1_555
C7A C6A 1_555 1_555
H6A C7A 1_555 1_555
C8A S1A 1_555 1_555
C9A C8A 1_555 1_555
H7A C9A 1_555 1_555
C10A N2A 1_555 1_555
H8A C10A 1_555 1_555
C11A N3A 1_555 1_555
C4 C5 1_555 1_555
C7 C8 1_555 1_555
C9 C10 1_555 1_555
C4A C5A 1_555 1_555
C7A C8A 1_555 1_555
C9A C10A 1_555 1_555

#END
