
#######################################################################
#
#                 Cambridge Crystallographic Data Centre
#                                CCDC 
#
#######################################################################
#
# If this CIF has been generated from an entry in the Cambridge 
# Structural Database, then it will include bibliographic, chemical, 
# crystal, experimental, refinement or atomic coordinate data resulting 
# from the CCDC's data processing and validation procedures.
#
#######################################################################

data_IREBEN
_symmetry_cell_setting           monoclinic
_symmetry_space_group_name_H-M   'C 2/c'
_symmetry_Int_Tables_number      15
_space_group_name_Hall           '-C 2yn'
loop_
_symmetry_equiv_pos_site_id
_symmetry_equiv_pos_as_xyz
1 x,y,z
2 -x,y,1/2-z
3 1/2+x,1/2+y,z
4 1/2-x,1/2+y,1/2-z
5 -x,-y,-z
6 x,-y,1/2+z
7 1/2-x,1/2-y,-z
8 1/2+x,1/2-y,1/2+z
_cell_length_a                   16.888(5)
_cell_length_b                   10.303(3)
_cell_length_c                   16.578(5)
_cell_angle_alpha                90
_cell_angle_beta                 117.889(3)
_cell_angle_gamma                90
_cell_volume                     2549.5
loop_
_atom_site_label
_atom_site_type_symbol
_atom_site_fract_x
_atom_site_fract_y
_atom_site_fract_z
Fe1 Fe 0.5000 0.33825(9) 0.2500
S1 S 0.65320(9) 0.83627(12) 0.54991(8)
S2 S 0.77978(12) 0.4237(2) 0.24667(16)
N1 N 0.5673(3) 0.4911(4) 0.3553(3)
N2 N 0.5553(2) 1.1799(4) 0.3531(3)
N3 N 0.6165(3) 0.3426(4) 0.2341(3)
C1 C 0.5950(3) 0.6027(5) 0.3339(3)
H1 H 0.5968 0.6067 0.2782
C2 C 0.6206(3) 0.7103(5) 0.3885(3)
H2 H 0.6379 0.7864 0.3698
C3 C 0.6205(3) 0.7049(4) 0.4725(3)
C4 C 0.5965(3) 0.5880(5) 0.4973(3)
H3 H 0.5983 0.5792 0.5545
C5 C 0.5703(3) 0.4866(5) 0.4377(3)
H4 H 0.5534 0.4090 0.4552
C6 C 0.4987(3) 1.0891(4) 0.3552(3)
H5 H 0.4372 1.0989 0.3152
C7 C 0.5253(3) 0.9838(5) 0.4118(3)
H6 H 0.4832 0.9229 0.4101
C8 C 0.6155(3) 0.9684(4) 0.4716(3)
C9 C 0.6744(3) 1.0606(5) 0.4719(4)
H7 H 0.7359 1.0540 0.5127
C10 C 0.6422(3) 1.1626(5) 0.4116(4)
H8 H 0.6834 1.2237 0.4114
C11 C 0.6850(3) 0.3759(5) 0.2401(4)
Fe1_2 Fe 0.5000 1.33825(9) 0.2500
S1A S 0.34680(9) 0.83627(12) -0.04991(8)
S2A S 0.22022(12) 0.4237(2) 0.25333(16)
N1A N 0.4327(3) 0.4911(4) 0.1447(3)
N2_2 N 0.5553(2) 0.1799(4) 0.3531(3)
N2A N 0.4447(2) 0.1799(4) 0.1469(3)
N2A_2 N 0.4447(2) 1.1799(4) 0.1469(3)
N3A N 0.3835(3) 0.3426(4) 0.2659(3)
C1A C 0.4050(3) 0.6027(5) 0.1661(3)
H1A H 0.4032 0.6067 0.2218
C2A C 0.3794(3) 0.7103(5) 0.1115(3)
H2A H 0.3621 0.7864 0.1302
C3A C 0.3795(3) 0.7049(4) 0.0275(3)
C4A C 0.4035(3) 0.5880(5) 0.0027(3)
H3A H 0.4017 0.5792 -0.0545
C5A C 0.4297(3) 0.4866(5) 0.0623(3)
H4A H 0.4466 0.4090 0.0448
C6A C 0.5013(3) 1.0891(4) 0.1448(3)
H5A H 0.5628 1.0989 0.1848
C7A C 0.4747(3) 0.9838(5) 0.0882(3)
H6A H 0.5168 0.9229 0.0899
C8A C 0.3845(3) 0.9684(4) 0.0284(3)
C9A C 0.3256(3) 1.0606(5) 0.0281(4)
H7A H 0.2641 1.0540 -0.0127
C10A C 0.3578(3) 1.1626(5) 0.0884(4)
H8A H 0.3166 1.2237 0.0886
C11A C 0.3150(3) 0.3759(5) 0.2599(4)
O1 O 0.672(2) 0.339(4) 0.622(3)
O2? O 0.637(3) 0.305(5) 0.612(3)
O3? O 0.627(3) 0.328(4) 0.640(3)
loop_
_geom_bond_atom_site_label_1
_geom_bond_atom_site_label_2
_geom_bond_site_symmetry_1
_geom_bond_site_symmetry_2
Fe1 N1 1_555 1_555
S1 C3 1_555 1_555
S2 C11 1_555 1_555
N1 C1 1_555 1_555
N2 C6 1_555 1_555
N3 Fe1 1_555 1_555
C1 H1 1_555 1_555
C2 C1 1_555 1_555
H2 C2 1_555 1_555
C3 C2 1_555 1_555
C4 C3 1_555 1_555
H3 C4 1_555 1_555
C5 N1 1_555 1_555
H4 C5 1_555 1_555
C6 H5 1_555 1_555
C7 C6 1_555 1_555
H6 C7 1_555 1_555
C8 S1 1_555 1_555
C9 C8 1_555 1_555
H7 C9 1_555 1_555
C10 N2 1_555 1_555
H8 C10 1_555 1_555
C11 N3 1_555 1_555
Fe1_2 N2 1_555 1_555
S1A C3A 1_555 1_555
S2A C11A 1_555 1_555
N1A Fe1 1_555 1_555
N2_2 Fe1 1_555 1_555
N2A Fe1 1_555 1_555
N2A_2 Fe1_2 1_555 1_555
N3A Fe1 1_555 1_555
C1A N1A 1_555 1_555
H1A C1A 1_555 1_555
C2A C1A 1_555 1_555
H2A C2A 1_555 1_555
C3A C2A 1_555 1_555
C4A C3A 1_555 1_555
H3A C4A 1_555 1_555
C5A N1A 1_555 1_555
H4A C5A 1_555 1_555
C6A N2A_2 1_555 1_555
H5A C6A 1_555 1_555
C7A C6A 1_555 1_555
H6A C7A 1_555 1_555
C8A S1A 1_555 1_555
C9A C8A 1_555 1_555
H7A C9A 1_555 1_555
C10A N2A_2 1_555 1_555
H8A C10A 1_555 1_555
C11A N3A 1_555 1_555
C4 C5 1_555 1_555
C7 C8 1_555 1_555
C9 C10 1_555 1_555
C4A C5A 1_555 1_555
C7A C8A 1_555 1_555
C9A C10A 1_555 1_555

#END
