
#######################################################################
#
#                 Cambridge Crystallographic Data Centre
#                                CCDC 
#
#######################################################################
#
# If this CIF has been generated from an entry in the Cambridge 
# Structural Database, then it will include bibliographic, chemical, 
# crystal, experimental, refinement or atomic coordinate data resulting 
# from the CCDC's data processing and validation procedures.
#
#######################################################################

data_IREBAJ
_symmetry_cell_setting           monoclinic
_symmetry_space_group_name_H-M   'C 2/c'
_symmetry_Int_Tables_number      15
_space_group_name_Hall           '-C 2yn'
loop_
_symmetry_equiv_pos_site_id
_symmetry_equiv_pos_as_xyz
1 x,y,z
2 -x,y,1/2-z
3 1/2+x,1/2+y,z
4 1/2-x,1/2+y,1/2-z
5 -x,-y,-z
6 x,-y,1/2+z
7 1/2-x,1/2-y,-z
8 1/2+x,1/2-y,1/2+z
_cell_length_a                   15.949(3)
_cell_length_b                   13.623(3)
_cell_length_c                   9.793(2)
_cell_angle_alpha                90
_cell_angle_beta                 100.087(5)
_cell_angle_gamma                90
_cell_volume                     2094.87
loop_
_atom_site_label
_atom_site_type_symbol
_atom_site_fract_x
_atom_site_fract_y
_atom_site_fract_z
Cu1 Cu 0.7500 0.7500 0.5000
S1 S 0.5000 0.44240(7) 0.7500
O1 O 0.67663(15) 0.88007(18) 0.6126(2)
H1 H 0.675(2) 0.865(2) 0.6923(16)
N1 N 0.67215(13) 0.64890(16) 0.5614(2)
N2 N 0.67186(16) 0.76674(19) 0.3212(3)
N3 N 0.6049(2) 0.7672(3) 0.0798(3)
N4 N 0.6610(3) 0.8225(4) -0.1226(4)
C1 C 0.58968(17) 0.6701(2) 0.5561(3)
H2 H 0.5685 0.7280 0.5130
C2 C 0.53495(17) 0.6103(2) 0.6113(3)
H3 H 0.4779 0.6275 0.6048
C3 C 0.56544(17) 0.52474(19) 0.6763(3)
C4 C 0.64988(18) 0.5008(2) 0.6785(3)
H4 H 0.6722 0.4425 0.7189
C5 C 0.70021(18) 0.5642(2) 0.6202(3)
H5 H 0.7568 0.5472 0.6217
C6 C 0.64453(18) 0.7691(2) 0.2059(3)
C7 C 0.6386(3) 0.7971(3) -0.0238(4)
C8 C 0.6052(3) 0.9402(3) 0.5713(5)
H6 H 0.5608 0.9217 0.6209
H7 H 0.5853 0.9326 0.4735
H8 H 0.6206 1.0075 0.5911
Cu1A Cu 0.2500 0.7500 1.0000
O1F O 0.82337(15) 0.61993(18) 0.3874(2)
H1F H 0.825(2) 0.635(2) 0.3077(16)
N1A N 0.32785(13) 0.64890(16) 0.9386(2)
N1F N 0.82785(13) 0.85110(16) 0.4386(2)
N2F N 0.82814(16) 0.73326(19) 0.6788(3)
N3F N 0.8951(2) 0.7328(3) 0.9202(3)
N4F N 0.8390(3) 0.6775(4) 1.1226(4)
C1A C 0.41032(17) 0.6701(2) 0.9439(3)
H2A H 0.4315 0.7280 0.9870
C2A C 0.46505(17) 0.6103(2) 0.8887(3)
H3A H 0.5221 0.6275 0.8952
C3A C 0.43456(17) 0.52474(19) 0.8237(3)
C4A C 0.35012(18) 0.5008(2) 0.8215(3)
H4A H 0.3278 0.4425 0.7811
C5A C 0.29979(18) 0.5642(2) 0.8798(3)
H5A H 0.2432 0.5472 0.8783
C6F C 0.85547(18) 0.7309(2) 0.7941(3)
C7F C 0.8614(3) 0.7029(3) 1.0238(4)
C8F C 0.8948(3) 0.5598(3) 0.4287(5)
H6F H 0.9392 0.5783 0.3791
H7F H 0.9147 0.5674 0.5265
H8F H 0.8794 0.4925 0.4089
loop_
_geom_bond_atom_site_label_1
_geom_bond_atom_site_label_2
_geom_bond_site_symmetry_1
_geom_bond_site_symmetry_2
Cu1 O1 1_555 1_555
S1 C3 1_555 1_555
O1 H1 1_555 1_555
N1 Cu1 1_555 1_555
N2 Cu1 1_555 1_555
N3 C6 1_555 1_555
N4 C7 1_555 1_555
C1 N1 1_555 1_555
H2 C1 1_555 1_555
C2 C1 1_555 1_555
H3 C2 1_555 1_555
C3 C2 1_555 1_555
C4 C3 1_555 1_555
H4 C4 1_555 1_555
C5 N1 1_555 1_555
H5 C5 1_555 1_555
C6 N2 1_555 1_555
C7 N3 1_555 1_555
C8 O1 1_555 1_555
H6 C8 1_555 1_555
H7 C8 1_555 1_555
H8 C8 1_555 1_555
Cu1A N1A 1_555 1_555
O1F Cu1 1_555 1_555
H1F O1F 1_555 1_555
N1A C1A 1_555 1_555
N1F Cu1 1_555 1_555
N2F Cu1 1_555 1_555
N3F C6F 1_555 1_555
N4F C7F 1_555 1_555
C1A H2A 1_555 1_555
C2A C1A 1_555 1_555
H3A C2A 1_555 1_555
C3A S1 1_555 1_555
C4A C3A 1_555 1_555
H4A C4A 1_555 1_555
C5A N1A 1_555 1_555
H5A C5A 1_555 1_555
C6F N2F 1_555 1_555
C7F N3F 1_555 1_555
C8F O1F 1_555 1_555
H6F C8F 1_555 1_555
H7F C8F 1_555 1_555
H8F C8F 1_555 1_555
C4 C5 1_555 1_555
C2A C3A 1_555 1_555
C4A C5A 1_555 1_555

#END
