
#######################################################################
#
#                 Cambridge Crystallographic Data Centre
#                                CCDC 
#
#######################################################################
#
# If this CIF has been generated from an entry in the Cambridge 
# Structural Database, then it will include bibliographic, chemical, 
# crystal, experimental, refinement or atomic coordinate data resulting 
# from the CCDC's data processing and validation procedures.
#
#######################################################################

data_IREBUD
_symmetry_cell_setting           monoclinic
_symmetry_space_group_name_H-M   'P 21/n'
_symmetry_Int_Tables_number      14
_space_group_name_Hall           '-P 2yn'
loop_
_symmetry_equiv_pos_site_id
_symmetry_equiv_pos_as_xyz
1 x,y,z
2 1/2-x,1/2+y,1/2-z
3 -x,-y,-z
4 1/2+x,1/2-y,1/2+z
_cell_length_a                   9.0128(9)
_cell_length_b                   14.2949(14)
_cell_length_c                   12.5129(11)
_cell_angle_alpha                90
_cell_angle_beta                 98.002(3)
_cell_angle_gamma                90
_cell_volume                     1596.43
loop_
_atom_site_label
_atom_site_type_symbol
_atom_site_fract_x
_atom_site_fract_y
_atom_site_fract_z
Cd1 Cd 0.75722(2) 0.369875(13) 0.397779(16)
S1 S 0.77417(11) 0.40195(6) 0.94703(6)
N1 N 0.7849(3) 0.39983(18) 0.5842(2)
N2 N 0.7398(3) 0.70778(17) 1.0438(2)
N3 N 0.5001(3) 0.35449(18) 0.3932(2)
N4 N 0.2385(3) 0.3174(2) 0.3287(2)
N5 N 0.0098(3) 0.3621(2) 0.3981(3)
N6 N 0.7291(3) 0.32219(19) 0.2185(2)
N7 N 0.8204(4) 0.19596(19) 0.1140(3)
N8 N 0.7779(3) 0.02785(19) 0.1312(2)
C1 C 0.9010(4) 0.3690(2) 0.6530(3)
H1 H 0.9835 0.3436 0.6247
C2 C 0.9058(4) 0.3724(2) 0.7635(3)
H2 H 0.9903 0.3505 0.8092
C3 C 0.7843(4) 0.4087(2) 0.8063(2)
C4 C 0.6652(4) 0.4430(2) 0.7363(2)
H3 H 0.5821 0.4697 0.7625
C5 C 0.6705(4) 0.4374(2) 0.6265(2)
H4 H 0.5892 0.4612 0.5792
C6 C 0.6702(4) 0.6389(2) 1.0903(3)
H5 H 0.6122 0.6550 1.1444
C7 C 0.6792(4) 0.5459(2) 1.0628(2)
H6 H 0.6315 0.4998 1.0993
C8 C 0.7599(4) 0.5215(2) 0.9803(2)
C9 C 0.8302(4) 0.5921(2) 0.9304(3)
H7 H 0.8847 0.5784 0.8735
C10 C 0.8188(4) 0.6826(2) 0.9656(2)
H8 H 0.8696 0.7297 0.9327
C11 C 0.3746(3) 0.3395(2) 0.3675(2)
C12 C 0.1215(4) 0.3439(2) 0.3701(3)
C13 C 0.7684(4) 0.2598(2) 0.1718(2)
C14 C 0.7926(4) 0.1075(2) 0.1263(3)
Cd1_2 Cd -0.24278(2) 0.369875(13) 0.397779(16)
Cd1A Cd 0.74278(2) -0.130125(13) 0.102221(16)
Cd1A_2 Cd 0.74278(2) 0.869875(13) 1.102221(16)
N2A N 0.7602(3) 0.20778(17) 0.4562(2)
N5_2 N 1.0098(3) 0.3621(2) 0.3981(3)
N8A N 0.7221(3) 0.52785(19) 0.3688(2)
loop_
_geom_bond_atom_site_label_1
_geom_bond_atom_site_label_2
_geom_bond_site_symmetry_1
_geom_bond_site_symmetry_2
Cd1 N1 1_555 1_555
S1 C3 1_555 1_555
N1 C1 1_555 1_555
N2 C6 1_555 1_555
N3 Cd1 1_555 1_555
N4 C11 1_555 1_555
N5 C12 1_555 1_555
N6 Cd1 1_555 1_555
N7 C13 1_555 1_555
N8 C14 1_555 1_555
C1 H1 1_555 1_555
C2 C1 1_555 1_555
H2 C2 1_555 1_555
C3 C2 1_555 1_555
C4 C3 1_555 1_555
H3 C4 1_555 1_555
C5 N1 1_555 1_555
H4 C5 1_555 1_555
C6 H5 1_555 1_555
C7 C6 1_555 1_555
H6 C7 1_555 1_555
C8 S1 1_555 1_555
C9 C8 1_555 1_555
H7 C9 1_555 1_555
C10 N2 1_555 1_555
H8 C10 1_555 1_555
C11 N3 1_555 1_555
C12 N4 1_555 1_555
C13 N6 1_555 1_555
C14 N7 1_555 1_555
Cd1_2 N5 1_555 1_555
Cd1A N8 1_555 1_555
Cd1A_2 N2 1_555 1_555
N2A Cd1 1_555 1_555
N5_2 Cd1 1_555 1_555
N8A Cd1 1_555 1_555
C4 C5 1_555 1_555
C7 C8 1_555 1_555
C9 C10 1_555 1_555

#END
