
#######################################################################
#
#                 Cambridge Crystallographic Data Centre
#                                CCDC 
#
#######################################################################
#
# If this CIF has been generated from an entry in the Cambridge 
# Structural Database, then it will include bibliographic, chemical, 
# crystal, experimental, refinement or atomic coordinate data resulting 
# from the CCDC's data processing and validation procedures.
#
#######################################################################

data_IREFOB
_symmetry_cell_setting           monoclinic
_symmetry_space_group_name_H-M   'P 21/c'
_symmetry_Int_Tables_number      14
_space_group_name_Hall           '-P 2ybc'
loop_
_symmetry_equiv_pos_site_id
_symmetry_equiv_pos_as_xyz
1 x,y,z
2 -x,1/2+y,1/2-z
3 -x,-y,-z
4 x,1/2-y,1/2+z
_cell_length_a                   22.081(3)
_cell_length_b                   18.644(2)
_cell_length_c                   16.078(2)
_cell_angle_alpha                90
_cell_angle_beta                 109.137(2)
_cell_angle_gamma                90
_cell_volume                     6253.18
loop_
_atom_site_label
_atom_site_type_symbol
_atom_site_fract_x
_atom_site_fract_y
_atom_site_fract_z
P1 P 0.34532(11) 0.50962(12) 0.18586(15)
P2 P 0.20869(11) 0.51204(12) 0.27679(14)
Mo1 Mo 0.33842(4) 0.41511(4) 0.37748(5)
Mo2 Mo 0.36009(4) 0.59508(4) 0.38041(5)
Mo3 Mo 0.25581(4) 0.66255(4) 0.19538(5)
Mo4 Mo 0.18084(4) 0.52688(4) 0.05807(5)
Mo5 Mo 0.24409(4) 0.37326(4) 0.15073(5)
O1 O 0.3227(3) 0.3615(3) 0.4558(4)
O2 O 0.4157(3) 0.3938(3) 0.3904(4)
O3 O 0.3543(3) 0.5068(3) 0.4396(4)
O4 O 0.3527(3) 0.5083(3) 0.2850(4)
O5 O 0.2399(3) 0.4584(3) 0.3496(4)
O6 O 0.2961(3) 0.3658(3) 0.2715(4)
O7 O 0.4409(3) 0.6054(3) 0.4151(4)
O8 O 0.3347(3) 0.6507(3) 0.4481(4)
O9 O 0.3416(3) 0.6546(3) 0.2777(4)
O10 O 0.2503(3) 0.5821(3) 0.2966(4)
O11 O 0.2225(3) 0.7263(3) 0.2425(4)
O12 O 0.2793(3) 0.7108(3) 0.1184(4)
O13 O 0.1822(3) 0.6144(3) 0.1245(4)
O14 O 0.2926(3) 0.5618(3) 0.1345(4)
O15 O 0.1873(3) 0.5633(4) -0.0355(4)
O16 O 0.1009(3) 0.5101(3) 0.0359(4)
O17 O 0.2115(3) 0.4336(3) 0.0461(4)
O18 O 0.2133(3) 0.4789(3) 0.1894(4)
O19 O 0.1758(3) 0.3364(3) 0.1568(4)
O20 O 0.2737(3) 0.3055(3) 0.1011(4)
O21 O 0.3331(3) 0.4342(3) 0.1502(4)
O22 O 0.4091(3) 0.5389(3) 0.1757(4)
O23 O 0.1404(3) 0.5286(3) 0.2673(4)
Co1 Co 0.30687(6) 0.72036(6) 0.53344(8)
Co2 Co 0.29662(6) 0.27845(6) 0.52867(8)
Co3 Co 0.0000 0.5000 0.0000
N1 N 0.3268(4) 0.8084(4) 0.4635(5)
N2 N 0.3285(5) 0.8766(5) 0.4917(6)
H1 H 0.3191 0.8893 0.5374
N3 N 0.4024(4) 0.7260(4) 0.6233(5)
N4 N 0.4570(5) 0.6977(6) 0.6191(7)
H2 H 0.4598 0.6707 0.5772
N5 N 0.2865(4) 0.6281(4) 0.5984(6)
N6 N 0.2927(5) 0.5595(5) 0.5792(7)
H3 H 0.3110 0.5448 0.5427
N7 N 0.2083(4) 0.7147(5) 0.4560(6)
N8 N 0.1829(5) 0.6580(5) 0.4046(6)
H4 H 0.2046 0.6334 0.3788
N9 N 0.3831(4) 0.2242(4) 0.5364(5)
N10 N 0.3980(4) 0.1582(4) 0.5700(6)
H5 H 0.3751 0.1335 0.5937
N11 N 0.3403(4) 0.3296(4) 0.6534(5)
N12 N 0.3827(4) 0.3834(5) 0.6719(7)
H6 H 0.3985 0.4024 0.6348
N13 N 0.2096(4) 0.3349(4) 0.5144(5)
N14 N 0.1882(4) 0.3937(5) 0.4658(6)
H7 H 0.2085 0.4155 0.4359
N15 N 0.2430(4) 0.2220(4) 0.4117(5)
N16 N 0.2257(5) 0.1528(5) 0.4087(7)
H8 H 0.2403 0.1224 0.4508
N17 N 0.0086(4) 0.4250(4) 0.1032(5)
N18 N 0.0531(4) 0.4246(5) 0.1833(6)
H9 H 0.0804 0.4585 0.2033
N19 N 0.0025(4) 0.4093(5) -0.0814(6)
N20 N -0.0479(4) 0.3789(5) -0.1413(6)
H10 H -0.0844 0.3996 -0.1638
C1 C 0.3466(8) 0.9217(7) 0.4404(9)
H11 H 0.353 0.975 0.463
C2 C 0.3588(6) 0.8828(6) 0.3776(7)
H12 H 0.3726 0.8994 0.3323
C3 C 0.3462(6) 0.8121(6) 0.3946(7)
H13 H 0.3508 0.7728 0.3616
C4 C 0.5084(5) 0.7179(7) 0.6913(8)
H14 H 0.5514 0.7057 0.7042
C5 C 0.4816(5) 0.7600(6) 0.7394(8)
H15 H 0.5037 0.7826 0.7922
C6 C 0.4199(4) 0.7633(5) 0.6992(5)
H16 H 0.3915 0.7883 0.7203
C7 C 0.2557(6) 0.6279(6) 0.6570(7)
H17 H 0.2440 0.6687 0.6811
C8 C 0.2438(8) 0.5587(10) 0.6770(9)
H18 H 0.2245 0.5444 0.7177
C9 C 0.2655(7) 0.5160(7) 0.6259(10)
H19 H 0.2627 0.4662 0.6228
C10 C 0.1576(6) 0.7364(7) 0.4822(8)
H20 H 0.1590 0.7751 0.5193
C11 C 0.1037(6) 0.6926(8) 0.4459(9)
H21 H 0.0639 0.6967 0.4538
C12 C 0.1219(6) 0.6423(6) 0.3960(8)
H22 H 0.0972 0.6052 0.3632
C13 C 0.4298(5) 0.2434(6) 0.5072(7)
H23 H 0.4323 0.2874 0.4813
C14 C 0.4753(6) 0.1885(7) 0.5206(9)
H24 H 0.5123 0.1880 0.5049
C15 C 0.4529(6) 0.1361(7) 0.5617(9)
H25 H 0.4726 0.0922 0.5807
C16 C 0.3972(7) 0.4038(8) 0.7558(9)
H26 H 0.4260 0.4399 0.7831
C17 C 0.3633(7) 0.3636(7) 0.7945(8)
H27 H 0.3635 0.3657 0.8524
C18 C 0.3282(6) 0.3186(6) 0.7281(8)
H28 H 0.2994 0.2846 0.7349
C19 C 0.1315(6) 0.4141(7) 0.4697(9)
H29 H 0.1073 0.4528 0.4402
C20 C 0.1155(6) 0.3689(7) 0.5236(10)
H30 H 0.0790 0.3706 0.5402
C21 C 0.1641(6) 0.3194(6) 0.5494(8)
H31 H 0.1652 0.2806 0.5861
C22 C 0.1821(7) 0.1382(8) 0.3301(9)
H32 H 0.1624 0.0941 0.3126
C23 C 0.1719(6) 0.1979(8) 0.2811(8)
H33 H 0.1446 0.2037 0.2235
C24 C 0.2108(5) 0.2487(6) 0.3348(7)
H34 H 0.2138 0.2960 0.3183
C25 C 0.0501(7) 0.3661(7) 0.2278(8)
H35 H 0.0762 0.3544 0.2845
C26 C 0.0013(7) 0.3263(8) 0.1742(9)
H36 H -0.0135 0.2825 0.1874
C27 C -0.0217(6) 0.3637(7) 0.0969(9)
H37 H -0.0541 0.3479 0.0471
C28 C -0.0354(6) 0.3136(7) -0.1622(9)
H38 H -0.0636 0.2830 -0.2023
C29 C 0.0257(7) 0.2995(8) -0.1146(9)
H39 H 0.0483 0.2575 -0.1150
C30 C 0.0482(6) 0.3602(7) -0.0652(8)
H40 H 0.0896 0.3659 -0.0260
P1B P -0.34532(11) 0.49038(12) -0.18586(15)
P2B P -0.20869(11) 0.48796(12) -0.27679(14)
Mo1B Mo -0.33842(4) 0.58489(4) -0.37748(5)
Mo2B Mo -0.36009(4) 0.40492(4) -0.38041(5)
Mo3B Mo -0.25581(4) 0.33745(4) -0.19538(5)
Mo4B Mo -0.18084(4) 0.47312(4) -0.05807(5)
Mo5B Mo -0.24409(4) 0.62674(4) -0.15073(5)
O1B O -0.3227(3) 0.6385(3) -0.4558(4)
O2B O -0.4157(3) 0.6062(3) -0.3904(4)
O3B O -0.3543(3) 0.4932(3) -0.4396(4)
O4B O -0.3527(3) 0.4917(3) -0.2850(4)
O5B O -0.2399(3) 0.5416(3) -0.3496(4)
O6B O -0.2961(3) 0.6342(3) -0.2715(4)
O7B O -0.4409(3) 0.3946(3) -0.4151(4)
O8B O -0.3347(3) 0.3493(3) -0.4481(4)
O9B O -0.3416(3) 0.3454(3) -0.2777(4)
O10B O -0.2503(3) 0.4179(3) -0.2966(4)
O11B O -0.2225(3) 0.2737(3) -0.2425(4)
O12B O -0.2793(3) 0.2892(3) -0.1184(4)
O12C O 0.2793(3) 0.7892(3) 0.6184(4)
O12A O -0.2793(3) 0.2108(3) -0.6184(4)
O13B O -0.1822(3) 0.3856(3) -0.1245(4)
O14B O -0.2926(3) 0.4382(3) -0.1345(4)
O15B O -0.1873(3) 0.4367(4) 0.0355(4)
O16B O -0.1009(3) 0.4899(3) -0.0359(4)
O17B O -0.2115(3) 0.5664(3) -0.0461(4)
O18B O -0.2133(3) 0.5211(3) -0.1894(4)
O19B O -0.1758(3) 0.6636(3) -0.1568(4)
O20B O -0.2737(3) 0.6945(3) -0.1011(4)
O20C O 0.2737(3) 0.1945(3) 0.6011(4)
O20A O -0.2737(3) 0.8055(3) -0.6011(4)
O21B O -0.3331(3) 0.5658(3) -0.1502(4)
O22B O -0.4091(3) 0.4611(3) -0.1757(4)
O23B O -0.1404(3) 0.4714(3) -0.2673(4)
Co1B Co -0.30687(6) 0.27964(6) -0.53344(8)
Co1C Co 0.30687(6) 0.77964(6) 0.03344(8)
Co1A Co -0.30687(6) 0.22036(6) -0.03344(8)
Co2B Co -0.29662(6) 0.72155(6) -0.52867(8)
Co2C Co 0.29662(6) 0.22155(6) 0.02867(8)
Co2A Co -0.29662(6) 0.77845(6) -0.02867(8)
N1B N -0.3268(4) 0.1916(4) -0.4635(5)
N2B N -0.3285(5) 0.1234(5) -0.4917(6)
H1B H -0.3191 0.1107 -0.5374
N3B N -0.4024(4) 0.2740(4) -0.6233(5)
N4B N -0.4570(5) 0.3023(6) -0.6191(7)
H2B H -0.4598 0.3293 -0.5772
N5B N -0.2865(4) 0.3719(4) -0.5984(6)
N6B N -0.2927(5) 0.4405(5) -0.5792(7)
H3B H -0.3110 0.4552 -0.5427
N7B N -0.2083(4) 0.2853(5) -0.4560(6)
N8B N -0.1829(5) 0.3420(5) -0.4046(6)
H4B H -0.2046 0.3666 -0.3788
N9B N -0.3831(4) 0.7758(4) -0.5364(5)
N10B N -0.3980(4) 0.8418(4) -0.5700(6)
H5B H -0.3751 0.8665 -0.5937
N11B N -0.3403(4) 0.6704(4) -0.6534(5)
N12B N -0.3827(4) 0.6166(5) -0.6719(7)
H6B H -0.3985 0.5976 -0.6348
N13B N -0.2096(4) 0.6651(4) -0.5144(5)
N14B N -0.1882(4) 0.6063(5) -0.4658(6)
H7B H -0.2085 0.5845 -0.4359
N15B N -0.2430(4) 0.7780(4) -0.4117(5)
N16B N -0.2257(5) 0.8472(5) -0.4087(7)
H8B H -0.2403 0.8776 -0.4508
N17B N -0.0086(4) 0.5750(4) -0.1032(5)
N18B N -0.0531(4) 0.5754(5) -0.1833(6)
H9B H -0.0804 0.5415 -0.2033
N19B N -0.0025(4) 0.5907(5) 0.0814(6)
N20B N 0.0479(4) 0.6211(5) 0.1413(6)
H10B H 0.0844 0.6004 0.1638
C1B C -0.3466(8) 0.0783(7) -0.4404(9)
H11B H -0.353 0.025 -0.463
C2B C -0.3588(6) 0.1172(6) -0.3776(7)
H12B H -0.3726 0.1006 -0.3323
C3B C -0.3462(6) 0.1879(6) -0.3946(7)
H13B H -0.3508 0.2272 -0.3616
C4B C -0.5084(5) 0.2821(7) -0.6913(8)
H14B H -0.5514 0.2943 -0.7042
C5B C -0.4816(5) 0.2400(6) -0.7394(8)
H15B H -0.5037 0.2174 -0.7922
C6B C -0.4199(4) 0.2367(5) -0.6992(5)
H16B H -0.3915 0.2117 -0.7203
C7B C -0.2557(6) 0.3721(6) -0.6570(7)
H17B H -0.2440 0.3313 -0.6811
C8B C -0.2438(8) 0.4413(10) -0.6770(9)
H18B H -0.2245 0.4556 -0.7177
C9B C -0.2655(7) 0.4840(7) -0.6259(10)
H19B H -0.2627 0.5338 -0.6228
C10B C -0.1576(6) 0.2636(7) -0.4822(8)
H20B H -0.1590 0.2249 -0.5193
C11B C -0.1037(6) 0.3074(8) -0.4459(9)
H21B H -0.0639 0.3033 -0.4538
C12B C -0.1219(6) 0.3577(6) -0.3960(8)
H22B H -0.0972 0.3948 -0.3632
C13B C -0.4298(5) 0.7566(6) -0.5072(7)
H23B H -0.4323 0.7126 -0.4813
C14B C -0.4753(6) 0.8115(7) -0.5206(9)
H24B H -0.5123 0.8120 -0.5049
C15B C -0.4529(6) 0.8639(7) -0.5617(9)
H25B H -0.4726 0.9078 -0.5807
C16B C -0.3972(7) 0.5962(8) -0.7558(9)
H26B H -0.4260 0.5601 -0.7831
C17B C -0.3633(7) 0.6364(7) -0.7945(8)
H27B H -0.3635 0.6343 -0.8524
C18B C -0.3282(6) 0.6814(6) -0.7281(8)
H28B H -0.2994 0.7154 -0.7349
C19B C -0.1315(6) 0.5859(7) -0.4697(9)
H29B H -0.1073 0.5472 -0.4402
C20B C -0.1155(6) 0.6311(7) -0.5236(10)
H30B H -0.0790 0.6294 -0.5402
C21B C -0.1641(6) 0.6806(6) -0.5494(8)
H31B H -0.1652 0.7194 -0.5861
C22B C -0.1821(7) 0.8618(8) -0.3301(9)
H32B H -0.1624 0.9059 -0.3126
C23B C -0.1719(6) 0.8021(8) -0.2811(8)
H33B H -0.1446 0.7963 -0.2235
C24B C -0.2108(5) 0.7513(6) -0.3348(7)
H34B H -0.2138 0.7040 -0.3183
C25B C -0.0501(7) 0.6339(7) -0.2278(8)
H35B H -0.0762 0.6456 -0.2845
C26B C -0.0013(7) 0.6737(8) -0.1742(9)
H36B H 0.0135 0.7175 -0.1874
C27B C 0.0217(6) 0.6363(7) -0.0969(9)
H37B H 0.0541 0.6521 -0.0471
C28B C 0.0354(6) 0.6864(7) 0.1622(9)
H38B H 0.0636 0.7170 0.2023
C29B C -0.0257(7) 0.7005(8) 0.1146(9)
H39B H -0.0483 0.7425 0.1150
C30B C -0.0482(6) 0.6398(7) 0.0652(8)
H40B H -0.0896 0.6341 0.0260
C31 C 0.0152(12) 0.484(2) 0.5991(16)
H41 H -0.0096 0.4581 0.5501
C32 C 0.0260(13) 0.4659(14) 0.683(3)
H42 H 0.0100 0.4256 0.7031
C33 C 0.0639(17) 0.516(2) 0.734(2)
H43 H 0.0788 0.5168 0.7950
N21 N 0.0765(12) 0.5649(17) 0.681(3)
H44 H 0.0998 0.6026 0.6974
N22 N 0.0464(16) 0.5450(16) 0.598(3)
O24 O 0.4524(3) 0.4700(4) 0.5896(5)
O25 O 0.5067(4) 0.4552(5) 0.2565(6)
O26 O 0.1628(13) 0.8459(13) 0.3001(14)
loop_
_geom_bond_atom_site_label_1
_geom_bond_atom_site_label_2
_geom_bond_site_symmetry_1
_geom_bond_site_symmetry_2
P1 O4 1_555 1_555
P2 O5 1_555 1_555
Mo1 O1 1_555 1_555
Mo2 O3 1_555 1_555
Mo3 O9 1_555 1_555
Mo4 O13 1_555 1_555
Mo5 O6 1_555 1_555
O1 Co2 1_555 1_555
O2 Mo1 1_555 1_555
O3 Mo1 1_555 1_555
O4 Mo1 1_555 1_555
O5 Mo1 1_555 1_555
O6 Mo1 1_555 1_555
O7 Mo2 1_555 1_555
O8 Mo2 1_555 1_555
O9 Mo2 1_555 1_555
O10 P2 1_555 1_555
O11 Mo3 1_555 1_555
O12 Mo3 1_555 1_555
O13 Mo3 1_555 1_555
O14 P1 1_555 1_555
O15 Mo4 1_555 1_555
O16 Mo4 1_555 1_555
O17 Mo4 1_555 1_555
O18 P2 1_555 1_555
O19 Mo5 1_555 1_555
O20 Mo5 1_555 1_555
O21 P1 1_555 1_555
O22 P1 1_555 1_555
O23 P2 1_555 1_555
Co1 O8 1_555 1_555
Co2 N9 1_555 1_555
Co3 O16 1_555 1_555
N1 Co1 1_555 1_555
N2 N1 1_555 1_555
H1 N2 1_555 1_555
N3 Co1 1_555 1_555
N4 N3 1_555 1_555
H2 N4 1_555 1_555
N5 Co1 1_555 1_555
N6 N5 1_555 1_555
H3 N6 1_555 1_555
N7 Co1 1_555 1_555
N8 N7 1_555 1_555
H4 N8 1_555 1_555
N9 N10 1_555 1_555
N10 H5 1_555 1_555
N11 Co2 1_555 1_555
N12 N11 1_555 1_555
H6 N12 1_555 1_555
N13 Co2 1_555 1_555
N14 N13 1_555 1_555
H7 N14 1_555 1_555
N15 Co2 1_555 1_555
N16 N15 1_555 1_555
H8 N16 1_555 1_555
N17 Co3 1_555 1_555
N18 N17 1_555 1_555
H9 N18 1_555 1_555
N19 Co3 1_555 1_555
N20 N19 1_555 1_555
H10 N20 1_555 1_555
C1 N2 1_555 1_555
H11 C1 1_555 1_555
C2 C1 1_555 1_555
H12 C2 1_555 1_555
C3 N1 1_555 1_555
H13 C3 1_555 1_555
C4 N4 1_555 1_555
H14 C4 1_555 1_555
C5 C4 1_555 1_555
H15 C5 1_555 1_555
C6 N3 1_555 1_555
H16 C6 1_555 1_555
C7 N5 1_555 1_555
H17 C7 1_555 1_555
C8 C7 1_555 1_555
H18 C8 1_555 1_555
C9 N6 1_555 1_555
H19 C9 1_555 1_555
C10 N7 1_555 1_555
H20 C10 1_555 1_555
C11 C10 1_555 1_555
H21 C11 1_555 1_555
C12 N8 1_555 1_555
H22 C12 1_555 1_555
C13 N9 1_555 1_555
H23 C13 1_555 1_555
C14 C13 1_555 1_555
H24 C14 1_555 1_555
C15 N10 1_555 1_555
H25 C15 1_555 1_555
C16 N12 1_555 1_555
H26 C16 1_555 1_555
C17 C16 1_555 1_555
H27 C17 1_555 1_555
C18 N11 1_555 1_555
H28 C18 1_555 1_555
C19 N14 1_555 1_555
H29 C19 1_555 1_555
C20 C19 1_555 1_555
H30 C20 1_555 1_555
C21 N13 1_555 1_555
H31 C21 1_555 1_555
C22 N16 1_555 1_555
H32 C22 1_555 1_555
C23 C22 1_555 1_555
H33 C23 1_555 1_555
C24 N15 1_555 1_555
H34 C24 1_555 1_555
C25 N18 1_555 1_555
H35 C25 1_555 1_555
C26 C25 1_555 1_555
H36 C26 1_555 1_555
C27 N17 1_555 1_555
H37 C27 1_555 1_555
C28 N20 1_555 1_555
H38 C28 1_555 1_555
C29 C28 1_555 1_555
H39 C29 1_555 1_555
C30 N19 1_555 1_555
H40 C30 1_555 1_555
C31 H41 1_555 1_555
C32 C31 1_555 1_555
H42 C32 1_555 1_555
C33 C32 1_555 1_555
H43 C33 1_555 1_555
N21 C33 1_555 1_555
H44 N21 1_555 1_555
N22 C31 1_555 1_555
P1B O4B 1_555 1_555
P2B O5B 1_555 1_555
Mo1B O1B 1_555 1_555
Mo2B O3B 1_555 1_555
Mo3B O9B 1_555 1_555
Mo4B O13B 1_555 1_555
Mo5B O6B 1_555 1_555
O1B Co2B 1_555 1_555
O2B Mo1B 1_555 1_555
O3B Mo1B 1_555 1_555
O4B Mo1B 1_555 1_555
O5B Mo1B 1_555 1_555
O6B Mo1B 1_555 1_555
O7B Mo2B 1_555 1_555
O8B Mo2B 1_555 1_555
O9B Mo2B 1_555 1_555
O10B P2B 1_555 1_555
O11B Mo3B 1_555 1_555
O12B Mo3B 1_555 1_555
O12C Co1 1_555 1_555
O12A Co1B 1_555 1_555
O13B Mo3B 1_555 1_555
O14B P1B 1_555 1_555
O15B Mo4B 1_555 1_555
O16B Co3 1_555 1_555
O17B Mo4B 1_555 1_555
O18B P2B 1_555 1_555
O19B Mo5B 1_555 1_555
O20B Mo5B 1_555 1_555
O20C Co2 1_555 1_555
O20A Co2B 1_555 1_555
O21B P1B 1_555 1_555
O22B P1B 1_555 1_555
O23B P2B 1_555 1_555
Co1B O8B 1_555 1_555
Co1C O12 1_555 1_555
Co1A O12B 1_555 1_555
Co2B N9B 1_555 1_555
Co2C O20 1_555 1_555
Co2A O20B 1_555 1_555
N1B Co1B 1_555 1_555
N2B N1B 1_555 1_555
H1B N2B 1_555 1_555
N3B Co1B 1_555 1_555
N4B N3B 1_555 1_555
H2B N4B 1_555 1_555
N5B Co1B 1_555 1_555
N6B N5B 1_555 1_555
H3B N6B 1_555 1_555
N7B Co1B 1_555 1_555
N8B N7B 1_555 1_555
H4B N8B 1_555 1_555
N9B N10B 1_555 1_555
N10B H5B 1_555 1_555
N11B Co2B 1_555 1_555
N12B N11B 1_555 1_555
H6B N12B 1_555 1_555
N13B Co2B 1_555 1_555
N14B N13B 1_555 1_555
H7B N14B 1_555 1_555
N15B Co2B 1_555 1_555
N16B N15B 1_555 1_555
H8B N16B 1_555 1_555
N17B Co3 1_555 1_555
N18B N17B 1_555 1_555
H9B N18B 1_555 1_555
N19B Co3 1_555 1_555
N20B N19B 1_555 1_555
H10B N20B 1_555 1_555
C1B N2B 1_555 1_555
H11B C1B 1_555 1_555
C2B C1B 1_555 1_555
H12B C2B 1_555 1_555
C3B N1B 1_555 1_555
H13B C3B 1_555 1_555
C4B N4B 1_555 1_555
H14B C4B 1_555 1_555
C5B C4B 1_555 1_555
H15B C5B 1_555 1_555
C6B N3B 1_555 1_555
H16B C6B 1_555 1_555
C7B N5B 1_555 1_555
H17B C7B 1_555 1_555
C8B C7B 1_555 1_555
H18B C8B 1_555 1_555
C9B N6B 1_555 1_555
H19B C9B 1_555 1_555
C10B N7B 1_555 1_555
H20B C10B 1_555 1_555
C11B C10B 1_555 1_555
H21B C11B 1_555 1_555
C12B N8B 1_555 1_555
H22B C12B 1_555 1_555
C13B N9B 1_555 1_555
H23B C13B 1_555 1_555
C14B C13B 1_555 1_555
H24B C14B 1_555 1_555
C15B N10B 1_555 1_555
H25B C15B 1_555 1_555
C16B N12B 1_555 1_555
H26B C16B 1_555 1_555
C17B C16B 1_555 1_555
H27B C17B 1_555 1_555
C18B N11B 1_555 1_555
H28B C18B 1_555 1_555
C19B N14B 1_555 1_555
H29B C19B 1_555 1_555
C20B C19B 1_555 1_555
H30B C20B 1_555 1_555
C21B N13B 1_555 1_555
H31B C21B 1_555 1_555
C22B N16B 1_555 1_555
H32B C22B 1_555 1_555
C23B C22B 1_555 1_555
H33B C23B 1_555 1_555
C24B N15B 1_555 1_555
H34B C24B 1_555 1_555
C25B N18B 1_555 1_555
H35B C25B 1_555 1_555
C26B C25B 1_555 1_555
H36B C26B 1_555 1_555
C27B N17B 1_555 1_555
H37B C27B 1_555 1_555
C28B N20B 1_555 1_555
H38B C28B 1_555 1_555
C29B C28B 1_555 1_555
H39B C29B 1_555 1_555
C30B N19B 1_555 1_555
H40B C30B 1_555 1_555
Mo2 O4 1_555 1_555
Mo2 O10 1_555 1_555
Mo3 O10 1_555 1_555
Mo3 O14 1_555 1_555
Mo4 O14 1_555 1_555
Mo4 O18 1_555 1_555
Mo5 O17 1_555 1_555
Mo5 O18 1_555 1_555
Mo5 O21 1_555 1_555
C2 C3 1_555 1_555
C5 C6 1_555 1_555
C8 C9 1_555 1_555
C11 C12 1_555 1_555
C14 C15 1_555 1_555
C17 C18 1_555 1_555
C20 C21 1_555 1_555
C23 C24 1_555 1_555
C26 C27 1_555 1_555
C29 C30 1_555 1_555
N21 N22 1_555 1_555
Mo2B O4B 1_555 1_555
Mo2B O10B 1_555 1_555
Mo3B O10B 1_555 1_555
Mo3B O14B 1_555 1_555
Mo4B O14B 1_555 1_555
Mo4B O16B 1_555 1_555
Mo4B O18B 1_555 1_555
Mo5B O17B 1_555 1_555
Mo5B O18B 1_555 1_555
Mo5B O21B 1_555 1_555
C2B C3B 1_555 1_555
C5B C6B 1_555 1_555
C8B C9B 1_555 1_555
C11B C12B 1_555 1_555
C14B C15B 1_555 1_555
C17B C18B 1_555 1_555
C20B C21B 1_555 1_555
C23B C24B 1_555 1_555
C26B C27B 1_555 1_555
C29B C30B 1_555 1_555

#END
