
#######################################################################
#
#                 Cambridge Crystallographic Data Centre
#                                CCDC 
#
#######################################################################
#
# If this CIF has been generated from an entry in the Cambridge 
# Structural Database, then it will include bibliographic, chemical, 
# crystal, experimental, refinement or atomic coordinate data resulting 
# from the CCDC's data processing and validation procedures.
#
#######################################################################

data_IREFUH
_symmetry_cell_setting           orthorhombic
_symmetry_space_group_name_H-M   'P 21 21 21'
_symmetry_Int_Tables_number      19
_space_group_name_Hall           'P 2ac 2ab'
loop_
_symmetry_equiv_pos_site_id
_symmetry_equiv_pos_as_xyz
1 x,y,z
2 1/2-x,-y,1/2+z
3 -x,1/2+y,1/2-z
4 1/2+x,1/2-y,-z
_cell_length_a                   15.516(3)
_cell_length_b                   17.373(3)
_cell_length_c                   21.437(4)
_cell_angle_alpha                90
_cell_angle_beta                 90
_cell_angle_gamma                90
_cell_volume                     5778.55
loop_
_atom_site_label
_atom_site_type_symbol
_atom_site_fract_x
_atom_site_fract_y
_atom_site_fract_z
P1 P 0.02813(9) 0.39067(7) 0.05545(6)
P2 P 0.12808(9) 0.58914(7) 0.07089(6)
Mo1 Mo 0.10018(3) 0.45062(2) 0.193628(18)
Mo2 Mo -0.06515(3) 0.55252(2) 0.135278(19)
Mo3 Mo -0.04785(3) 0.55026(3) -0.02306(2)
Mo4 Mo 0.14124(3) 0.47129(2) -0.06457(2)
Mo5 Mo 0.25958(3) 0.43944(2) 0.06611(2)
O1 O 0.2020(2) 0.4291(2) 0.14425(16)
O2 O 0.1440(3) 0.5195(2) 0.24009(17)
O3 O 0.0967(3) 0.3707(2) 0.24252(16)
O4 O -0.0196(2) 0.4787(2) 0.19422(15)
O5 O 0.0459(2) 0.36737(18) 0.12306(15)
O6 O 0.0754(2) 0.54521(18) 0.12114(14)
O7 O -0.0592(3) 0.63648(19) 0.17888(16)
O8 O -0.1698(2) 0.5237(2) 0.13909(19)
O9 O -0.0643(2) 0.60327(18) 0.05618(16)
O10 O -0.0378(2) 0.45951(17) 0.05598(14)
O11 O -0.1509(3) 0.5215(3) -0.03898(19)
O12 O -0.0314(3) 0.6283(2) -0.0698(2)
O13 O 0.0157(2) 0.47216(19) -0.06707(16)
O14 O 0.0963(2) 0.56898(18) 0.00474(15)
O15 O 0.1633(3) 0.5419(2) -0.11768(17)
O16 O 0.1564(3) 0.3883(2) -0.10480(18)
O17 O 0.2504(2) 0.47414(19) -0.01877(16)
O18 O 0.1159(2) 0.41651(19) 0.02748(15)
O19 O 0.3585(3) 0.4724(2) 0.0870(2)
O20 O 0.2821(2) 0.3446(2) 0.04837(16)
O21 O 0.2212(2) 0.56354(18) 0.07817(16)
O22 O -0.0097(3) 0.32576(19) 0.01729(16)
O23 O 0.1157(2) 0.67482(19) 0.08167(17)
Zn1 Zn 0.06898(4) 0.25570(4) 0.28198(3)
Zn2 Zn -0.10296(4) 0.25171(4) -0.00344(3)
Zn3 Zn 0.19402(5) 0.75799(4) 0.06218(3)
N1 N 0.1553(3) 0.2121(3) 0.2208(2)
N2 N 0.1734(3) 0.2460(3) 0.1654(2)
H1 H 0.1550 0.2908 0.1547
N3 N 0.0891(3) 0.2972(2) 0.36776(19)
N4 N 0.0593(3) 0.2650(2) 0.42084(19)
H2 H 0.0290 0.2236 0.4221
N5 N -0.0543(3) 0.2558(3) 0.2510(2)
N6 N -0.0837(3) 0.3056(3) 0.2070(2)
H3 H -0.0539 0.3414 0.1896
N7 N -0.0736(3) 0.1689(2) 0.0575(2)
N8 N -0.1262(3) 0.1133(3) 0.0781(2)
H4 H -0.1724 0.0985 0.0594
N9 N -0.2112(3) 0.3073(3) 0.0252(2)
N10 N -0.2127(4) 0.3824(3) 0.0358(3)
H5 H -0.1688 0.4121 0.0315
N11 N -0.0694(3) 0.2559(2) -0.09435(17)
N12 N -0.0318(4) 0.3196(3) -0.11586(19)
H6 H -0.0202 0.3601 -0.0945
C1 C -0.0154(6) 0.3092(4) -0.1763(2)
H7 H 0.0107 0.3447 -0.2028
C2 C -0.0428(7) 0.2393(4) -0.1921(3)
H8 H -0.0393 0.2173 -0.2316
C3 C -0.0762(5) 0.2063(3) -0.1415(2)
H9 H -0.1001 0.1573 -0.1394
N13 N 0.3002(3) 0.7385(3) 0.1118(3)
N14 N 0.3301(4) 0.6654(4) 0.1263(3)
H10 H 0.3070 0.6233 0.1135
N15 N 0.1495(4) 0.8600(3) 0.0909(2)
N16 N 0.1107(4) 0.9144(3) 0.0563(3)
H11 H 0.1033 0.9117 0.0166
N17 N 0.1924(3) 0.7641(3) -0.0319(2)
N18 N 0.1494(4) 0.7132(3) -0.0658(3)
H12 H 0.1219 0.6744 -0.0508
C4 C 0.2224(5) 0.2023(4) 0.1298(3)
H14 H 0.2428 0.2144 0.0901
C5 C 0.2375(5) 0.1363(4) 0.1618(3)
H15 H 0.2695 0.0941 0.1486
C6 C 0.1957(4) 0.1450(3) 0.2179(3)
H16 H 0.1958 0.1085 0.2497
C7 C 0.0823(4) 0.3046(3) 0.4706(3)
H17 H 0.0681 0.2929 0.5116
C8 C 0.1299(4) 0.3652(4) 0.4514(3)
H18 H 0.1548 0.4031 0.4761
C9 C 0.1336(4) 0.3586(3) 0.3859(3)
H19 H 0.1628 0.3921 0.3594
C10 C -0.1685(5) 0.2895(5) 0.1949(3)
H20 H -0.2036 0.3146 0.1662
C11 C -0.1918(5) 0.2306(5) 0.2321(4)
H21 H -0.2462 0.2083 0.2349
C12 C -0.1188(4) 0.2094(4) 0.2657(3)
H22 H -0.1158 0.1690 0.2940
C13 C -0.0966(5) 0.0839(4) 0.1318(3)
H23 H -0.1224 0.0447 0.1547
C14 C -0.0232(5) 0.1208(3) 0.1471(3)
H24 H 0.0119 0.1123 0.1816
C15 C -0.0119(4) 0.1737(3) 0.1004(3)
H25 H 0.0335 0.2086 0.0988
C16 C -0.2893(5) 0.4059(4) 0.0536(4)
H26 H -0.3053 0.4565 0.0619
C17 C -0.3411(5) 0.3424(5) 0.0578(4)
H27 H -0.3982 0.3402 0.0708
C18 C -0.2894(4) 0.2822(4) 0.0382(4)
H28 H -0.3072 0.2313 0.0348
C19 C 0.3976(7) 0.6691(7) 0.1616(6)
H29 H 0.4300 0.6281 0.1767
C20 C 0.4118(8) 0.7472(7) 0.1725(6)
H30 H 0.4552 0.7684 0.1971
C21 C 0.3512(6) 0.7858(5) 0.1410(4)
H31 H 0.3461 0.8391 0.1401
C22 C 0.0859(6) 0.9718(4) 0.0909(4)
H32 H 0.0578 1.0157 0.0768
C23 C 0.1077(6) 0.9570(4) 0.1515(4)
H33 H 0.0979 0.9880 0.1862
C24 C 0.1478(5) 0.8855(4) 0.1499(3)
H34 H 0.1700 0.8595 0.1843
C25 C 0.1543(6) 0.7297(5) -0.1257(4)
H35 H 0.1316 0.7012 -0.1586
C26 C 0.1998(6) 0.7974(5) -0.1299(4)
H36 H 0.2123 0.8249 -0.1660
C27 C 0.2224(5) 0.8159(4) -0.0713(4)
H37 H 0.2546 0.8589 -0.0602
O7B O 0.0592(3) 0.13648(19) 0.32112(16)
Zn1B Zn -0.06898(4) 0.75570(4) 0.21802(3)
N19 N 0.5075(6) 0.4826(4) 0.2284(4)
H13 H 0.4530 0.4830 0.2214
N20 N 0.5674(6) 0.4994(5) 0.1853(3)
C28 C 0.5432(8) 0.4648(5) 0.2842(4)
H38 H 0.5145 0.4513 0.3207
C29 C 0.6299(8) 0.4710(6) 0.2758(5)
H39 H 0.6725 0.4627 0.3056
C30 C 0.6420(7) 0.4917(6) 0.2152(5)
H40 H 0.6957 0.4996 0.1971
O24 O 0.0355(4) 0.9522(4) 0.9397(3)
O25 O 0.3325(5) 0.4738(16) 0.2493(3)
loop_
_geom_bond_atom_site_label_1
_geom_bond_atom_site_label_2
_geom_bond_site_symmetry_1
_geom_bond_site_symmetry_2
P1 O5 1_555 1_555
P2 O6 1_555 1_555
Mo1 O1 1_555 1_555
Mo2 O4 1_555 1_555
Mo3 O9 1_555 1_555
Mo4 O13 1_555 1_555
Mo5 O1 1_555 1_555
O2 Mo1 1_555 1_555
O3 Mo1 1_555 1_555
O4 Mo1 1_555 1_555
O5 Mo1 1_555 1_555
O6 Mo1 1_555 1_555
O7 Mo2 1_555 1_555
O8 Mo2 1_555 1_555
O9 Mo2 1_555 1_555
O10 P1 1_555 1_555
O11 Mo3 1_555 1_555
O12 Mo3 1_555 1_555
O13 Mo3 1_555 1_555
O14 P2 1_555 1_555
O15 Mo4 1_555 1_555
O16 Mo4 1_555 1_555
O17 Mo4 1_555 1_555
O18 P1 1_555 1_555
O19 Mo5 1_555 1_555
O20 Mo5 1_555 1_555
O21 P2 1_555 1_555
O22 P1 1_555 1_555
O23 P2 1_555 1_555
Zn1 O3 1_555 1_555
Zn2 O22 1_555 1_555
Zn3 O23 1_555 1_555
N1 Zn1 1_555 1_555
N2 N1 1_555 1_555
H1 N2 1_555 1_555
N3 Zn1 1_555 1_555
N4 N3 1_555 1_555
H2 N4 1_555 1_555
N5 Zn1 1_555 1_555
N6 N5 1_555 1_555
H3 N6 1_555 1_555
N7 Zn2 1_555 1_555
N8 N7 1_555 1_555
H4 N8 1_555 1_555
N9 Zn2 1_555 1_555
N10 N9 1_555 1_555
H5 N10 1_555 1_555
N11 Zn2 1_555 1_555
N12 N11 1_555 1_555
H6 N12 1_555 1_555
C1 N12 1_555 1_555
H7 C1 1_555 1_555
C2 C1 1_555 1_555
H8 C2 1_555 1_555
C3 N11 1_555 1_555
H9 C3 1_555 1_555
N13 Zn3 1_555 1_555
N14 N13 1_555 1_555
H10 N14 1_555 1_555
N15 Zn3 1_555 1_555
N16 N15 1_555 1_555
H11 N16 1_555 1_555
N17 Zn3 1_555 1_555
N18 N17 1_555 1_555
H12 N18 1_555 1_555
N19 H13 1_555 1_555
N20 N19 1_555 1_555
C4 N2 1_555 1_555
H14 C4 1_555 1_555
C5 C4 1_555 1_555
H15 C5 1_555 1_555
C6 N1 1_555 1_555
H16 C6 1_555 1_555
C7 N4 1_555 1_555
H17 C7 1_555 1_555
C8 C7 1_555 1_555
H18 C8 1_555 1_555
C9 N3 1_555 1_555
H19 C9 1_555 1_555
C10 N6 1_555 1_555
H20 C10 1_555 1_555
C11 C10 1_555 1_555
H21 C11 1_555 1_555
C12 N5 1_555 1_555
H22 C12 1_555 1_555
C13 N8 1_555 1_555
H23 C13 1_555 1_555
C14 C13 1_555 1_555
H24 C14 1_555 1_555
C15 N7 1_555 1_555
H25 C15 1_555 1_555
C16 N10 1_555 1_555
H26 C16 1_555 1_555
C17 C16 1_555 1_555
H27 C17 1_555 1_555
C18 N9 1_555 1_555
H28 C18 1_555 1_555
C19 N14 1_555 1_555
H29 C19 1_555 1_555
C20 C19 1_555 1_555
H30 C20 1_555 1_555
C21 N13 1_555 1_555
H31 C21 1_555 1_555
C22 N16 1_555 1_555
H32 C22 1_555 1_555
C23 C22 1_555 1_555
H33 C23 1_555 1_555
C24 N15 1_555 1_555
H34 C24 1_555 1_555
C25 N18 1_555 1_555
H35 C25 1_555 1_555
C26 C25 1_555 1_555
H36 C26 1_555 1_555
C27 N17 1_555 1_555
H37 C27 1_555 1_555
C28 N19 1_555 1_555
H38 C28 1_555 1_555
C29 C28 1_555 1_555
H39 C29 1_555 1_555
C30 N20 1_555 1_555
H40 C30 1_555 1_555
O7B Zn1 1_555 1_555
Zn1B O7 1_555 1_555
Mo2 O6 1_555 1_555
Mo2 O10 1_555 1_555
Mo3 O10 1_555 1_555
Mo3 O14 1_555 1_555
Mo4 O14 1_555 1_555
Mo4 O18 1_555 1_555
Mo5 O17 1_555 1_555
Mo5 O18 1_555 1_555
Mo5 O21 1_555 1_555
C2 C3 1_555 1_555
C5 C6 1_555 1_555
C8 C9 1_555 1_555
C11 C12 1_555 1_555
C14 C15 1_555 1_555
C17 C18 1_555 1_555
C20 C21 1_555 1_555
C23 C24 1_555 1_555
C26 C27 1_555 1_555
C29 C30 1_555 1_555

#END
