
#######################################################################
#
#                 Cambridge Crystallographic Data Centre
#                                CCDC 
#
#######################################################################
#
# If this CIF has been generated from an entry in the Cambridge 
# Structural Database, then it will include bibliographic, chemical, 
# crystal, experimental, refinement or atomic coordinate data resulting 
# from the CCDC's data processing and validation procedures.
#
#######################################################################

data_IREGAO
_symmetry_cell_setting           monoclinic
_symmetry_space_group_name_H-M   'P 21/c'
_symmetry_Int_Tables_number      14
_space_group_name_Hall           '-P 2ybc'
loop_
_symmetry_equiv_pos_site_id
_symmetry_equiv_pos_as_xyz
1 x,y,z
2 -x,1/2+y,1/2-z
3 -x,-y,-z
4 x,1/2-y,1/2+z
_cell_length_a                   24.674(3)
_cell_length_b                   18.137(2)
_cell_length_c                   16.223(2)
_cell_angle_alpha                90
_cell_angle_beta                 95.495(2)
_cell_angle_gamma                90
_cell_volume                     7226.63
loop_
_atom_site_label
_atom_site_type_symbol
_atom_site_fract_x
_atom_site_fract_y
_atom_site_fract_z
P1 P 0.20766(8) 0.48678(11) -0.00887(12)
P2 P 0.32527(8) 0.48939(10) 0.15901(12)
Mo1 Mo 0.21473(3) 0.58987(4) 0.17980(4)
Mo2 Mo 0.19726(3) 0.40784(4) 0.18064(4)
Mo3 Mo 0.28262(3) 0.33355(4) 0.05503(4)
Mo4 Mo 0.34815(3) 0.46672(4) -0.04078(4)
Mo5 Mo 0.29488(3) 0.62606(4) 0.00810(4)
O1 O 0.2294(2) 0.6485(3) 0.2625(3)
O2 O 0.2017(2) 0.5001(3) 0.2377(3)
O3 O 0.2037(2) 0.4934(3) 0.0867(3)
O4 O 0.2977(2) 0.5463(3) 0.2091(3)
O5 O 0.2507(2) 0.6386(3) 0.0969(3)
O6 O 0.1284(2) 0.3966(3) 0.1721(3)
O7 O 0.2197(2) 0.3535(3) 0.2641(3)
O8 O 0.2109(2) 0.3444(3) 0.0904(3)
O9 O 0.2902(2) 0.4180(3) 0.1577(3)
O10 O 0.2631(2) 0.2826(3) -0.0333(3)
O11 O 0.3475(2) 0.3794(3) 0.0275(3)
O12 O 0.2556(2) 0.4351(3) -0.0247(3)
O13 O 0.4161(2) 0.4846(3) -0.0182(4)
O14 O 0.3228(2) 0.5624(3) -0.0745(3)
O15 O 0.3220(2) 0.5208(3) 0.0691(3)
O16 O 0.3532(2) 0.6653(3) 0.0527(4)
O17 O 0.2202(2) 0.5631(3) -0.0389(3)
Ni1 Ni 0.25109(4) 0.72887(5) 0.34936(6)
Ni2 Ni 0.24167(4) 0.28429(5) 0.36500(6)
Ni3 Ni 0.5000 0.5000 0.0000
N1 N 0.1797(3) 0.7878(4) 0.3090(4)
N2 N 0.1677(3) 0.8545(4) 0.3351(5)
H1 H 0.1870 0.8780 0.3735
N3 N 0.3231(3) 0.6710(4) 0.3877(4)
N4 N 0.3413(3) 0.6124(4) 0.3505(4)
H2 H 0.3241 0.5917 0.3080
C1 C 0.3890(4) 0.5891(6) 0.3859(6)
H3 H 0.4093 0.5493 0.3697
C2 C 0.4021(4) 0.6357(6) 0.4510(7)
H4 H 0.4332 0.6342 0.4883
C3 C 0.3604(4) 0.6845(5) 0.4498(6)
H5 H 0.3583 0.7226 0.4878
O18 O 0.1494(2) 0.6136(3) 0.1469(3)
O19 O 0.3095(2) 0.2684(3) 0.1210(4)
O20 O 0.3427(2) 0.4268(3) -0.1354(4)
O21 O 0.2700(2) 0.6946(3) -0.0598(3)
O22 O 0.1550(2) 0.4567(3) -0.0494(3)
O23 O 0.3828(2) 0.4725(3) 0.1904(3)
N5 N 0.2950(3) 0.7883(4) 0.2688(4)
N6 N 0.3080(4) 0.8596(5) 0.2763(5)
H6 H 0.2968 0.8884 0.3133
N7 N 0.2081(3) 0.6719(4) 0.4351(5)
N8 N 0.1733(6) 0.6170(8) 0.4240(12)
H7 H 0.1622 0.5966 0.3775
N9 N 0.2586(3) 0.3779(4) 0.4381(5)
N10 N 0.2570(4) 0.4479(5) 0.4146(7)
H8 H 0.2442 0.4639 0.3668
N11 N 0.1614(3) 0.2794(4) 0.3958(5)
N12 N 0.1434(4) 0.2347(5) 0.4504(6)
H9 H 0.1641 0.2052 0.4807
N13 N 0.2238(3) 0.1942(4) 0.2864(4)
N14 N 0.2248(4) 0.1252(4) 0.3135(5)
H10 H 0.2339 0.1128 0.3641
N15 N 0.3243(3) 0.2878(4) 0.3466(5)
N16 N 0.3452(3) 0.3428(5) 0.3043(5)
H11 H 0.3266 0.3657 0.2646
N17 N 0.4916(3) 0.5772(4) 0.0925(4)
N18 N 0.4558(3) 0.5786(5) 0.1475(5)
H12 H 0.4336 0.5431 0.1543
N19 N 0.5046(3) 0.4121(4) 0.0843(5)
N20 N 0.4627(3) 0.3799(5) 0.1169(5)
H13 H 0.4307 0.3988 0.1162
C4 C 0.3400(6) 0.8805(7) 0.2202(7)
H16 H 0.3545 0.9273 0.2149
C5 C 0.3478(6) 0.8215(9) 0.1715(7)
H17 H 0.3681 0.8196 0.1261
C6 C 0.3186(4) 0.7637(7) 0.2046(6)
H18 H 0.3164 0.7157 0.1843
C7 C 0.1226(4) 0.8808(6) 0.2951(7)
H19 H 0.1066 0.9261 0.3041
C8 C 0.1039(4) 0.8290(6) 0.2384(7)
H20 H 0.0732 0.8314 0.2005
C9 C 0.1415(4) 0.7718(5) 0.2503(6)
H21 H 0.1396 0.7280 0.2204
C10 C 0.1572(8) 0.5974(10) 0.5034(13)
H22 H 0.1322 0.5613 0.5146
C11 C 0.1841(9) 0.6398(10) 0.5564(12)
H23 H 0.1828 0.6384 0.6135
C12 C 0.2141(7) 0.6859(8) 0.5159(8)
H24 H 0.2363 0.7227 0.5407
C13 C 0.2794(6) 0.4913(6) 0.4794(11)
H25 H 0.2829 0.5423 0.4790
C14 C 0.2948(6) 0.4465(8) 0.5425(9)
H26 H 0.3116 0.4599 0.5942
C15 C 0.2811(5) 0.3769(6) 0.5158(6)
H27 H 0.2868 0.3345 0.5477
C16 C 0.0904(5) 0.2394(10) 0.4543(11)
H28 H 0.0696 0.2122 0.4884
C17 C 0.0726(6) 0.2904(12) 0.4002(12)
H29 H 0.0370 0.3069 0.3886
C18 C 0.1178(5) 0.3138(9) 0.3650(9)
H30 H 0.1174 0.3498 0.3241
C19 C 0.2101(5) 0.0780(6) 0.2538(7)
H31 H 0.2094 0.0269 0.2583
C20 C 0.1961(5) 0.1183(6) 0.1844(7)
H32 H 0.1828 0.1012 0.1323
C21 C 0.2059(5) 0.1897(6) 0.2087(6)
H33 H 0.2004 0.2302 0.1737
C22 C 0.3963(4) 0.3590(6) 0.3280(7)
H34 H 0.4176 0.3949 0.3059
C23 C 0.4116(4) 0.3123(7) 0.3918(7)
H35 H 0.4454 0.3101 0.4225
C24 C 0.3663(4) 0.2685(6) 0.4016(7)
H36 H 0.3651 0.2311 0.4407
C25 C 0.4576(5) 0.6396(6) 0.1909(7)
H37 H 0.4362 0.6507 0.2334
C26 C 0.4955(5) 0.6828(7) 0.1631(8)
H38 H 0.5058 0.7298 0.1815
C27 C 0.5162(5) 0.6427(6) 0.1013(7)
H39 H 0.5435 0.6590 0.0699
C28 C 0.4768(5) 0.3151(6) 0.1505(8)
H40 H 0.4542 0.2833 0.1763
C29 C 0.5287(6) 0.3041(8) 0.1409(9)
H41 H 0.5497 0.2634 0.1583
C30 C 0.5452(5) 0.3655(6) 0.0995(8)
H42 H 0.5802 0.3728 0.0844
P1B P 0.79234(8) 0.51322(11) 0.00887(12)
P2B P 0.67473(8) 0.51061(10) -0.15901(12)
Mo1B Mo 0.78527(3) 0.41013(4) -0.17980(4)
Mo2B Mo 0.80274(3) 0.59216(4) -0.18064(4)
Mo3B Mo 0.71738(3) 0.66645(4) -0.05503(4)
Mo4B Mo 0.65185(3) 0.53328(4) 0.04078(4)
Mo5B Mo 0.70512(3) 0.37394(4) -0.00810(4)
O1B O 0.7706(2) 0.3515(3) -0.2625(3)
O2B O 0.7983(2) 0.4999(3) -0.2377(3)
O3B O 0.7963(2) 0.5066(3) -0.0867(3)
O4B O 0.7023(2) 0.4537(3) -0.2091(3)
O5B O 0.7493(2) 0.3614(3) -0.0969(3)
O6B O 0.8716(2) 0.6034(3) -0.1721(3)
O7B O 0.7803(2) 0.6465(3) -0.2641(3)
O8B O 0.7891(2) 0.6556(3) -0.0904(3)
O9B O 0.7098(2) 0.5820(3) -0.1577(3)
O10B O 0.7369(2) 0.7174(3) 0.0333(3)
O10C O 0.2631(2) 0.2174(3) 0.4667(3)
O10A O 0.7369(2) 0.7826(3) -0.4667(3)
O11B O 0.6525(2) 0.6206(3) -0.0275(3)
O12B O 0.7444(2) 0.5649(3) 0.0247(3)
O13B O 0.5839(2) 0.5154(3) 0.0182(4)
O14B O 0.6772(2) 0.4376(3) 0.0745(3)
O15B O 0.6780(2) 0.4792(3) -0.0691(3)
O16B O 0.6468(2) 0.3347(3) -0.0527(4)
O17B O 0.7798(2) 0.4369(3) 0.0389(3)
Ni1B Ni 0.74891(4) 0.27113(5) -0.34936(6)
Ni1C Ni 0.25109(4) 0.77113(5) -0.15064(6)
Ni1A Ni 0.74891(4) 0.22887(5) 0.15064(6)
Ni2B Ni 0.75833(4) 0.71571(5) -0.36500(6)
Ni2C Ni 0.24167(4) 0.21571(5) -0.13500(6)
Ni2A Ni 0.75833(4) 0.78429(5) 0.13500(6)
N1B N 0.8203(3) 0.2122(4) -0.3090(4)
N2B N 0.8323(3) 0.1455(4) -0.3351(5)
H1B H 0.8130 0.1220 -0.3735
N3B N 0.6769(3) 0.3290(4) -0.3877(4)
N4B N 0.6587(3) 0.3876(4) -0.3505(4)
H2B H 0.6759 0.4083 -0.3080
C1B C 0.6110(4) 0.4109(6) -0.3859(6)
H3B H 0.5907 0.4507 -0.3697
C2B C 0.5979(4) 0.3643(6) -0.4510(7)
H4B H 0.5668 0.3658 -0.4883
C3B C 0.6396(4) 0.3155(5) -0.4498(6)
H5B H 0.6417 0.2774 -0.4878
O18B O 0.8506(2) 0.3864(3) -0.1469(3)
O19B O 0.6905(2) 0.7316(3) -0.1210(4)
O20B O 0.6573(2) 0.5732(3) 0.1354(4)
O21B O 0.7300(2) 0.3054(3) 0.0598(3)
O21C O 0.2700(2) 0.8054(3) 0.4402(3)
O21A O 0.7300(2) 0.1946(3) -0.4402(3)
O22B O 0.8450(2) 0.5433(3) 0.0494(3)
O23B O 0.6172(2) 0.5275(3) -0.1904(3)
N5B N 0.7050(3) 0.2117(4) -0.2688(4)
N6B N 0.6920(4) 0.1404(5) -0.2763(5)
H6B H 0.7032 0.1116 -0.3133
N7B N 0.7919(3) 0.3281(4) -0.4351(5)
N8B N 0.8267(6) 0.3830(8) -0.4240(12)
H7B H 0.8378 0.4034 -0.3775
N9B N 0.7414(3) 0.6221(4) -0.4381(5)
N10B N 0.7430(4) 0.5521(5) -0.4146(7)
H8B H 0.7558 0.5361 -0.3668
N11B N 0.8386(3) 0.7206(4) -0.3958(5)
N12B N 0.8566(4) 0.7653(5) -0.4504(6)
H9B H 0.8359 0.7948 -0.4807
N13B N 0.7762(3) 0.8058(4) -0.2864(4)
N14B N 0.7752(4) 0.8748(4) -0.3135(5)
H10B H 0.7661 0.8872 -0.3641
N15B N 0.6757(3) 0.7122(4) -0.3466(5)
N16B N 0.6548(3) 0.6572(5) -0.3043(5)
H11B H 0.6734 0.6343 -0.2646
N17B N 0.5084(3) 0.4228(4) -0.0925(4)
N18B N 0.5442(3) 0.4214(5) -0.1475(5)
H12B H 0.5664 0.4569 -0.1543
N19B N 0.4954(3) 0.5879(4) -0.0843(5)
N20B N 0.5373(3) 0.6201(5) -0.1169(5)
H13B H 0.5693 0.6012 -0.1162
C4B C 0.6600(6) 0.1195(7) -0.2202(7)
H16B H 0.6455 0.0727 -0.2149
C5B C 0.6522(6) 0.1785(9) -0.1715(7)
H17B H 0.6319 0.1804 -0.1261
C6B C 0.6814(4) 0.2363(7) -0.2046(6)
H18B H 0.6836 0.2843 -0.1843
C7B C 0.8774(4) 0.1192(6) -0.2951(7)
H19B H 0.8934 0.0739 -0.3041
C8B C 0.8961(4) 0.1710(6) -0.2384(7)
H20B H 0.9268 0.1686 -0.2005
C9B C 0.8585(4) 0.2282(5) -0.2503(6)
H21B H 0.8604 0.2720 -0.2204
C10B C 0.8428(8) 0.4026(10) -0.5034(13)
H22B H 0.8678 0.4387 -0.5146
C11B C 0.8159(9) 0.3602(10) -0.5564(12)
H23B H 0.8172 0.3616 -0.6135
C12B C 0.7859(7) 0.3141(8) -0.5159(8)
H24B H 0.7637 0.2773 -0.5407
C13B C 0.7206(6) 0.5087(6) -0.4794(11)
H25B H 0.7171 0.4577 -0.4790
C14B C 0.7052(6) 0.5535(8) -0.5425(9)
H26B H 0.6884 0.5401 -0.5942
C15B C 0.7189(5) 0.6231(6) -0.5158(6)
H27B H 0.7132 0.6655 -0.5477
C16B C 0.9096(5) 0.7606(10) -0.4543(11)
H28B H 0.9304 0.7878 -0.4884
C17B C 0.9274(6) 0.7096(12) -0.4002(12)
H29B H 0.9630 0.6931 -0.3886
C18B C 0.8822(5) 0.6862(9) -0.3650(9)
H30B H 0.8826 0.6502 -0.3241
C19B C 0.7899(5) 0.9220(6) -0.2538(7)
H31B H 0.7906 0.9731 -0.2583
C20B C 0.8039(5) 0.8817(6) -0.1844(7)
H32B H 0.8172 0.8988 -0.1323
C21B C 0.7941(5) 0.8103(6) -0.2087(6)
H33B H 0.7996 0.7698 -0.1737
C22B C 0.6037(4) 0.6410(6) -0.3280(7)
H34B H 0.5824 0.6051 -0.3059
C23B C 0.5884(4) 0.6877(7) -0.3918(7)
H35B H 0.5546 0.6899 -0.4225
C24B C 0.6337(4) 0.7315(6) -0.4016(7)
H36B H 0.6349 0.7689 -0.4407
C25B C 0.5424(5) 0.3604(6) -0.1909(7)
H37B H 0.5638 0.3493 -0.2334
C26B C 0.5045(5) 0.3172(7) -0.1631(8)
H38B H 0.4942 0.2702 -0.1815
C27B C 0.4838(5) 0.3573(6) -0.1013(7)
H39B H 0.4565 0.3410 -0.0699
C28B C 0.5232(5) 0.6849(6) -0.1505(8)
H40B H 0.5458 0.7167 -0.1763
C29B C 0.4713(6) 0.6959(8) -0.1409(9)
H41B H 0.4503 0.7366 -0.1583
C30B C 0.4548(5) 0.6345(6) -0.0995(8)
H42B H 0.4198 0.6272 -0.0844
Ni4 Ni 0.0000 0.5000 1.0000
N21 N 0.0117(3) 0.4576(5) 0.8790(5)
N22 N 0.0592(3) 0.4369(5) 0.8524(5)
H14 H 0.0901 0.4405 0.8815
N23 N -0.0275(3) 0.3958(5) 1.0339(5)
N24 N -0.0709(4) 0.3631(6) 0.9949(6)
H15 H -0.0922 0.3841 0.9568
C31 C 0.0530(5) 0.4106(9) 0.7773(8)
H43 H 0.0805 0.3930 0.7471
C32 C -0.0009(5) 0.4135(10) 0.7513(8)
H44 H -0.0179 0.3991 0.7002
C33 C -0.0249(5) 0.4425(8) 0.8173(7)
H45 H -0.0621 0.4503 0.8181
C34 C -0.0777(6) 0.2960(7) 1.0206(9)
H46 H -0.1052 0.2638 1.0006
C35 C -0.0381(6) 0.2817(7) 1.0807(9)
H47 H -0.0321 0.2384 1.1110
C36 C -0.0080(5) 0.3465(7) 1.0874(7)
H48 H 0.0222 0.3539 1.1253
O24 O -0.0780(2) 0.5223(4) 0.9557(4)
H53 H -0.0782 0.5525 0.9181
N21B N -0.0117(3) 0.5424(5) 1.1210(5)
N22B N -0.0592(3) 0.5631(5) 1.1476(5)
H14B H -0.0901 0.5595 1.1185
N23B N 0.0275(3) 0.6042(5) 0.9661(5)
N24B N 0.0709(4) 0.6369(6) 1.0051(6)
H15B H 0.0922 0.6159 1.0432
C31B C -0.0530(5) 0.5894(9) 1.2227(8)
H43B H -0.0805 0.6070 1.2529
C32B C 0.0009(5) 0.5865(10) 1.2487(8)
H44B H 0.0179 0.6009 1.2998
C33B C 0.0249(5) 0.5575(8) 1.1827(7)
H45B H 0.0621 0.5497 1.1819
C34B C 0.0777(6) 0.7040(7) 0.9794(9)
H46B H 0.1052 0.7362 0.9994
C35B C 0.0381(6) 0.7183(7) 0.9193(9)
H47B H 0.0321 0.7616 0.8890
C36B C 0.0080(5) 0.6535(7) 0.9126(7)
H48B H -0.0222 0.6461 0.8747
O24B O 0.0780(2) 0.4777(4) 1.0443(4)
H53B H 0.0782 0.4475 1.0819
C37 C 0.5328(11) 0.5352(19) 0.4399(15)
H49 H 0.5259 0.5445 0.4943
C38 C 0.5140(7) 0.4769(11) 0.393(2)
H50 H 0.4920 0.4392 0.4098
C39 C 0.5330(11) 0.4833(17) 0.3176(14)
H51 H 0.5263 0.4507 0.2736
N25 N 0.5635(8) 0.5455(17) 0.318(2)
H52 H 0.5801 0.5617 0.2771
N26 N 0.5634(10) 0.5776(12) 0.393(2)
O25 O 0.3623(11) 0.3475(15) 0.7117(13)
loop_
_geom_bond_atom_site_label_1
_geom_bond_atom_site_label_2
_geom_bond_site_symmetry_1
_geom_bond_site_symmetry_2
P1 O3 1_555 1_555
P2 O4 1_555 1_555
Mo1 O1 1_555 1_555
Mo2 O2 1_555 1_555
Mo3 O8 1_555 1_555
Mo4 O11 1_555 1_555
Mo5 O5 1_555 1_555
O1 Ni1 1_555 1_555
O2 Mo1 1_555 1_555
O3 Mo1 1_555 1_555
O4 Mo1 1_555 1_555
O5 Mo1 1_555 1_555
O6 Mo2 1_555 1_555
O7 Mo2 1_555 1_555
O8 Mo2 1_555 1_555
O9 P2 1_555 1_555
O10 Mo3 1_555 1_555
O11 Mo3 1_555 1_555
O12 P1 1_555 1_555
O13 Mo4 1_555 1_555
O14 Mo4 1_555 1_555
O15 P2 1_555 1_555
O16 Mo5 1_555 1_555
O17 P1 1_555 1_555
Ni1 N1 1_555 1_555
Ni2 O7 1_555 1_555
Ni3 O13 1_555 1_555
N1 N2 1_555 1_555
N2 H1 1_555 1_555
N3 Ni1 1_555 1_555
N4 N3 1_555 1_555
H2 N4 1_555 1_555
C1 N4 1_555 1_555
H3 C1 1_555 1_555
C2 C1 1_555 1_555
H4 C2 1_555 1_555
C3 N3 1_555 1_555
H5 C3 1_555 1_555
O18 Mo1 1_555 1_555
O19 Mo3 1_555 1_555
O20 Mo4 1_555 1_555
O21 Mo5 1_555 1_555
O22 P1 1_555 1_555
O23 P2 1_555 1_555
Ni4 N21 1_555 1_555
N5 Ni1 1_555 1_555
N6 N5 1_555 1_555
H6 N6 1_555 1_555
N7 Ni1 1_555 1_555
N8 N7 1_555 1_555
H7 N8 1_555 1_555
N9 Ni2 1_555 1_555
N10 N9 1_555 1_555
H8 N10 1_555 1_555
N11 Ni2 1_555 1_555
N12 N11 1_555 1_555
H9 N12 1_555 1_555
N13 Ni2 1_555 1_555
N14 N13 1_555 1_555
H10 N14 1_555 1_555
N15 Ni2 1_555 1_555
N16 N15 1_555 1_555
H11 N16 1_555 1_555
N17 Ni3 1_555 1_555
N18 N17 1_555 1_555
H12 N18 1_555 1_555
N19 Ni3 1_555 1_555
N20 N19 1_555 1_555
H13 N20 1_555 1_555
N21 N22 1_555 1_555
N22 H14 1_555 1_555
N23 Ni4 1_555 1_555
N24 N23 1_555 1_555
H15 N24 1_555 1_555
C4 N6 1_555 1_555
H16 C4 1_555 1_555
C5 C4 1_555 1_555
H17 C5 1_555 1_555
C6 N5 1_555 1_555
H18 C6 1_555 1_555
C7 N2 1_555 1_555
H19 C7 1_555 1_555
C8 C7 1_555 1_555
H20 C8 1_555 1_555
C9 N1 1_555 1_555
H21 C9 1_555 1_555
C10 N8 1_555 1_555
H22 C10 1_555 1_555
C11 C10 1_555 1_555
H23 C11 1_555 1_555
C12 N7 1_555 1_555
H24 C12 1_555 1_555
C13 N10 1_555 1_555
H25 C13 1_555 1_555
C14 C13 1_555 1_555
H26 C14 1_555 1_555
C15 N9 1_555 1_555
H27 C15 1_555 1_555
C16 N12 1_555 1_555
H28 C16 1_555 1_555
C17 C16 1_555 1_555
H29 C17 1_555 1_555
C18 N11 1_555 1_555
H30 C18 1_555 1_555
C19 N14 1_555 1_555
H31 C19 1_555 1_555
C20 C19 1_555 1_555
H32 C20 1_555 1_555
C21 N13 1_555 1_555
H33 C21 1_555 1_555
C22 N16 1_555 1_555
H34 C22 1_555 1_555
C23 C22 1_555 1_555
H35 C23 1_555 1_555
C24 N15 1_555 1_555
H36 C24 1_555 1_555
C25 N18 1_555 1_555
H37 C25 1_555 1_555
C26 C25 1_555 1_555
H38 C26 1_555 1_555
C27 N17 1_555 1_555
H39 C27 1_555 1_555
C28 N20 1_555 1_555
H40 C28 1_555 1_555
C29 C28 1_555 1_555
H41 C29 1_555 1_555
C30 N19 1_555 1_555
H42 C30 1_555 1_555
C31 N22 1_555 1_555
H43 C31 1_555 1_555
C32 C31 1_555 1_555
H44 C32 1_555 1_555
C33 N21 1_555 1_555
H45 C33 1_555 1_555
C34 N24 1_555 1_555
H46 C34 1_555 1_555
C35 C34 1_555 1_555
H47 C35 1_555 1_555
C36 N23 1_555 1_555
H48 C36 1_555 1_555
C37 H49 1_555 1_555
C38 C37 1_555 1_555
H50 C38 1_555 1_555
C39 C38 1_555 1_555
H51 C39 1_555 1_555
N25 C39 1_555 1_555
H52 N25 1_555 1_555
N26 C37 1_555 1_555
O24 Ni4 1_555 1_555
H53 O24 1_555 1_555
P1B O3B 1_555 1_555
P2B O4B 1_555 1_555
Mo1B O1B 1_555 1_555
Mo2B O2B 1_555 1_555
Mo3B O8B 1_555 1_555
Mo4B O11B 1_555 1_555
Mo5B O5B 1_555 1_555
O1B Ni1B 1_555 1_555
O2B Mo1B 1_555 1_555
O3B Mo1B 1_555 1_555
O4B Mo1B 1_555 1_555
O5B Mo1B 1_555 1_555
O6B Mo2B 1_555 1_555
O7B Mo2B 1_555 1_555
O8B Mo2B 1_555 1_555
O9B P2B 1_555 1_555
O10B Mo3B 1_555 1_555
O10C Ni2 1_555 1_555
O10A Ni2B 1_555 1_555
O11B Mo3B 1_555 1_555
O12B P1B 1_555 1_555
O13B Ni3 1_555 1_555
O14B Mo4B 1_555 1_555
O15B P2B 1_555 1_555
O16B Mo5B 1_555 1_555
O17B P1B 1_555 1_555
Ni1B N1B 1_555 1_555
Ni1C O21 1_555 1_555
Ni1A O21B 1_555 1_555
Ni2B O7B 1_555 1_555
Ni2C O10 1_555 1_555
Ni2A O10B 1_555 1_555
N1B N2B 1_555 1_555
N2B H1B 1_555 1_555
N3B Ni1B 1_555 1_555
N4B N3B 1_555 1_555
H2B N4B 1_555 1_555
C1B N4B 1_555 1_555
H3B C1B 1_555 1_555
C2B C1B 1_555 1_555
H4B C2B 1_555 1_555
C3B N3B 1_555 1_555
H5B C3B 1_555 1_555
O18B Mo1B 1_555 1_555
O19B Mo3B 1_555 1_555
O20B Mo4B 1_555 1_555
O21B Mo5B 1_555 1_555
O21C Ni1 1_555 1_555
O21A Ni1B 1_555 1_555
O22B P1B 1_555 1_555
O23B P2B 1_555 1_555
N5B Ni1B 1_555 1_555
N6B N5B 1_555 1_555
H6B N6B 1_555 1_555
N7B Ni1B 1_555 1_555
N8B N7B 1_555 1_555
H7B N8B 1_555 1_555
N9B Ni2B 1_555 1_555
N10B N9B 1_555 1_555
H8B N10B 1_555 1_555
N11B Ni2B 1_555 1_555
N12B N11B 1_555 1_555
H9B N12B 1_555 1_555
N13B Ni2B 1_555 1_555
N14B N13B 1_555 1_555
H10B N14B 1_555 1_555
N15B Ni2B 1_555 1_555
N16B N15B 1_555 1_555
H11B N16B 1_555 1_555
N17B Ni3 1_555 1_555
N18B N17B 1_555 1_555
H12B N18B 1_555 1_555
N19B Ni3 1_555 1_555
N20B N19B 1_555 1_555
H13B N20B 1_555 1_555
N21B Ni4 1_555 1_555
N22B N21B 1_555 1_555
H14B N22B 1_555 1_555
N23B Ni4 1_555 1_555
N24B N23B 1_555 1_555
H15B N24B 1_555 1_555
C4B N6B 1_555 1_555
H16B C4B 1_555 1_555
C5B C4B 1_555 1_555
H17B C5B 1_555 1_555
C6B N5B 1_555 1_555
H18B C6B 1_555 1_555
C7B N2B 1_555 1_555
H19B C7B 1_555 1_555
C8B C7B 1_555 1_555
H20B C8B 1_555 1_555
C9B N1B 1_555 1_555
H21B C9B 1_555 1_555
C10B N8B 1_555 1_555
H22B C10B 1_555 1_555
C11B C10B 1_555 1_555
H23B C11B 1_555 1_555
C12B N7B 1_555 1_555
H24B C12B 1_555 1_555
C13B N10B 1_555 1_555
H25B C13B 1_555 1_555
C14B C13B 1_555 1_555
H26B C14B 1_555 1_555
C15B N9B 1_555 1_555
H27B C15B 1_555 1_555
C16B N12B 1_555 1_555
H28B C16B 1_555 1_555
C17B C16B 1_555 1_555
H29B C17B 1_555 1_555
C18B N11B 1_555 1_555
H30B C18B 1_555 1_555
C19B N14B 1_555 1_555
H31B C19B 1_555 1_555
C20B C19B 1_555 1_555
H32B C20B 1_555 1_555
C21B N13B 1_555 1_555
H33B C21B 1_555 1_555
C22B N16B 1_555 1_555
H34B C22B 1_555 1_555
C23B C22B 1_555 1_555
H35B C23B 1_555 1_555
C24B N15B 1_555 1_555
H36B C24B 1_555 1_555
C25B N18B 1_555 1_555
H37B C25B 1_555 1_555
C26B C25B 1_555 1_555
H38B C26B 1_555 1_555
C27B N17B 1_555 1_555
H39B C27B 1_555 1_555
C28B N20B 1_555 1_555
H40B C28B 1_555 1_555
C29B C28B 1_555 1_555
H41B C29B 1_555 1_555
C30B N19B 1_555 1_555
H42B C30B 1_555 1_555
C31B N22B 1_555 1_555
H43B C31B 1_555 1_555
C32B C31B 1_555 1_555
H44B C32B 1_555 1_555
C33B N21B 1_555 1_555
H45B C33B 1_555 1_555
C34B N24B 1_555 1_555
H46B C34B 1_555 1_555
C35B C34B 1_555 1_555
H47B C35B 1_555 1_555
C36B N23B 1_555 1_555
H48B C36B 1_555 1_555
O24B Ni4 1_555 1_555
H53B O24B 1_555 1_555
Mo2 O3 1_555 1_555
Mo2 O9 1_555 1_555
Mo3 O9 1_555 1_555
Mo3 O12 1_555 1_555
Mo4 O12 1_555 1_555
Mo4 O15 1_555 1_555
Mo5 O14 1_555 1_555
Mo5 O15 1_555 1_555
Mo5 O17 1_555 1_555
C2 C3 1_555 1_555
C5 C6 1_555 1_555
C8 C9 1_555 1_555
C11 C12 1_555 1_555
C14 C15 1_555 1_555
C17 C18 1_555 1_555
C20 C21 1_555 1_555
C23 C24 1_555 1_555
C26 C27 1_555 1_555
C29 C30 1_555 1_555
C32 C33 1_555 1_555
C35 C36 1_555 1_555
N25 N26 1_555 1_555
Mo2B O3B 1_555 1_555
Mo2B O9B 1_555 1_555
Mo3B O9B 1_555 1_555
Mo3B O12B 1_555 1_555
Mo4B O12B 1_555 1_555
Mo4B O13B 1_555 1_555
Mo4B O15B 1_555 1_555
Mo5B O14B 1_555 1_555
Mo5B O15B 1_555 1_555
Mo5B O17B 1_555 1_555
C2B C3B 1_555 1_555
C5B C6B 1_555 1_555
C8B C9B 1_555 1_555
C11B C12B 1_555 1_555
C14B C15B 1_555 1_555
C17B C18B 1_555 1_555
C20B C21B 1_555 1_555
C23B C24B 1_555 1_555
C26B C27B 1_555 1_555
C29B C30B 1_555 1_555
C32B C33B 1_555 1_555
C35B C36B 1_555 1_555

#END
