
#######################################################################
#
#                 Cambridge Crystallographic Data Centre
#                                CCDC 
#
#######################################################################
#
# If this CIF has been generated from an entry in the Cambridge 
# Structural Database, then it will include bibliographic, chemical, 
# crystal, experimental, refinement or atomic coordinate data resulting 
# from the CCDC's data processing and validation procedures.
#
#######################################################################

data_IREGES
_symmetry_cell_setting           triclinic
_symmetry_space_group_name_H-M   'P -1'
_symmetry_Int_Tables_number      2
_space_group_name_Hall           '-P 1'
loop_
_symmetry_equiv_pos_site_id
_symmetry_equiv_pos_as_xyz
1 x,y,z
2 -x,-y,-z
_cell_length_a                   12.302(3)
_cell_length_b                   14.192(4)
_cell_length_c                   19.351(5)
_cell_angle_alpha                97.761(5)
_cell_angle_beta                 97.555(4)
_cell_angle_gamma                98.569(5)
_cell_volume                     3270.31
loop_
_atom_site_label
_atom_site_type_symbol
_atom_site_fract_x
_atom_site_fract_y
_atom_site_fract_z
P1 P 0.43631(18) 0.78670(16) 0.21491(12)
P2 P 0.24365(19) 0.56827(16) 0.25430(12)
Mo1 Mo 0.54153(6) 0.62312(6) 0.30236(4)
Mo2 Mo 0.36966(6) 0.74337(5) 0.38655(4)
Mo3 Mo 0.18081(6) 0.80074(6) 0.26008(4)
Mo4 Mo 0.20358(7) 0.68071(6) 0.09903(4)
Mo5 Mo 0.39230(7) 0.53761(6) 0.12277(4)
O1 O 0.4996(5) 0.5605(4) 0.2093(3)
O2 O 0.5265(5) 0.5240(4) 0.3451(3)
O3 O 0.6836(5) 0.6519(4) 0.3081(3)
O4 O 0.5189(4) 0.7213(4) 0.3778(3)
O5 O 0.5426(4) 0.7554(4) 0.2482(3)
O6 O 0.3528(4) 0.6248(4) 0.3024(3)
O7 O 0.3387(5) 0.6804(4) 0.4523(3)
O8 O 0.4156(5) 0.8602(4) 0.4302(3)
O9 O 0.2222(5) 0.7536(4) 0.3493(3)
O10 O 0.3669(4) 0.8103(4) 0.2755(3)
O11 O 0.1967(5) 0.9219(4) 0.2866(3)
O12 O 0.0394(5) 0.7631(4) 0.2601(3)
O13 O 0.1935(5) 0.7969(4) 0.1649(3)
O14 O 0.1810(5) 0.6380(4) 0.2167(3)
O15 O 0.0641(5) 0.6402(5) 0.0758(3)
O16 O 0.2410(5) 0.7380(5) 0.0328(3)
O17 O 0.2537(5) 0.5605(4) 0.0770(3)
O18 O 0.2814(5) 0.4984(4) 0.2001(3)
O19 O 0.3698(5) 0.6994(4) 0.1616(3)
O20 O 0.3825(6) 0.4177(5) 0.0964(3)
O21 O 0.4824(6) 0.5863(5) 0.0721(3)
O22 O 0.4609(5) 0.8723(4) 0.1783(3)
O23 O 0.1724(5) 0.5173(4) 0.2998(3)
Cu1 Cu 0.85837(9) 0.70269(8) 0.27638(6)
Cu2 Cu 0.5000 1.0000 0.5000
N1 N 0.8055(7) 0.7346(6) 0.1801(4)
N2 N 0.7095(8) 0.7016(8) 0.1418(6)
H1 H 0.6526 0.6747 0.1578
N3 N 0.8613(7) 0.5704(6) 0.2248(4)
N4 N 0.9387(7) 0.5555(6) 0.1857(5)
H2 H 1.0048 0.5887 0.1930
N5 N 0.9215(6) 0.6678(5) 0.3706(4)
N6 N 1.0298(7) 0.6739(6) 0.3940(4)
H3 H 1.0822 0.6957 0.3721
N7 N 0.8411(6) 0.8361(5) 0.3188(4)
N8 N 0.7418(6) 0.8670(6) 0.3102(4)
H4 H 0.6795 0.8320 0.2904
N9 N 0.3494(6) 1.0455(5) 0.4960(4)
N10 N 0.3333(6) 1.1311(5) 0.5295(4)
H5 H 0.3838 1.1719 0.5579
N11 N 0.5169(6) 1.0532(5) 0.4107(4)
N12 N 0.4681(6) 1.0134(5) 0.3467(4)
H6 H 0.4302 0.9560 0.3366
C1 C 0.7094(14) 0.7140(10) 0.0752(7)
H13 H 0.6502 0.6937 0.0384
C2 C 0.8089(12) 0.7607(12) 0.0707(7)
H14 H 0.8345 0.7815 0.0313
C3 C 0.8647(10) 0.7709(10) 0.1373(7)
H15 H 0.9384 0.8012 0.1505
C4 C 0.9014(12) 0.4833(9) 0.1340(7)
H16 H 0.9413 0.4608 0.0994
C5 C 0.7992(11) 0.4483(10) 0.1393(7)
H17 H 0.7529 0.3965 0.1100
C6 C 0.7741(9) 0.5032(9) 0.1965(6)
H18 H 0.7063 0.4948 0.2131
C7 C 1.0462(10) 0.6422(9) 0.4551(6)
H19 H 1.1150 0.6399 0.4807
C8 C 0.9446(9) 0.6135(8) 0.4741(6)
H20 H 0.9297 0.5878 0.5143
C9 C 0.8685(8) 0.6316(7) 0.4192(5)
H21 H 0.7916 0.6200 0.4171
C10 C 0.7560(8) 0.9599(8) 0.3371(6)
H22 H 0.7002 0.9974 0.3378
C11 C 0.8643(10) 0.9910(8) 0.3634(6)
H23 H 0.8969 1.0527 0.3860
C12 C 0.9176(8) 0.9115(8) 0.3496(6)
H24 H 0.9936 0.9115 0.3603
C13 C 0.2290(9) 1.1434(8) 0.5127(6)
H25 H 0.1980 1.1961 0.5297
C14 C 0.2535(9) 1.0079(7) 0.4578(6)
H26 H 0.2400 0.9487 0.4283
C15 C 0.4840(9) 1.0722(7) 0.2988(5)
H27 H 0.4572 1.0589 0.2507
C16 C 0.5466(10) 1.1545(7) 0.3347(5)
H28 H 0.5719 1.2096 0.3164
C17 C 0.5654(8) 1.1407(7) 0.4035(5)
H29 H 0.6066 1.1864 0.4402
C36 C 0.1757(9) 1.0651(9) 0.4661(6)
H48 H 0.1018 1.0532 0.4445
P1A P 0.56369(18) 1.21330(16) 0.78509(12)
P2A P 0.75635(19) 1.43173(16) 0.74570(12)
Mo1A Mo 0.45847(6) 1.37688(6) 0.69764(4)
Mo2A Mo 0.63034(6) 1.25663(5) 0.61345(4)
Mo3A Mo 0.81919(6) 1.19926(6) 0.73992(4)
Mo4A Mo 0.79642(7) 1.31929(6) 0.90097(4)
Mo5A Mo 0.60770(7) 1.46239(6) 0.87723(4)
O1A O 0.5004(5) 1.4395(4) 0.7907(3)
O2A O 0.4735(5) 1.4760(4) 0.6549(3)
O3A O 0.3164(5) 1.3481(4) 0.6919(3)
O4A O 0.4811(4) 1.2787(4) 0.6222(3)
O5A O 0.4574(4) 1.2446(4) 0.7518(3)
O6A O 0.6472(4) 1.3752(4) 0.6976(3)
O7A O 0.6613(5) 1.3196(4) 0.5477(3)
O8A O 0.5844(5) 1.1398(4) 0.5698(3)
O9A O 0.7778(5) 1.2464(4) 0.6507(3)
O10A O 0.6331(4) 1.1897(4) 0.7245(3)
O11A O 0.8033(5) 1.0781(4) 0.7134(3)
O12A O 0.9606(5) 1.2369(4) 0.7399(3)
O12_2 O 1.0394(5) 0.7631(4) 0.2601(3)
O12A_2 O -0.0394(5) 1.2369(4) 0.7399(3)
O13A O 0.8065(5) 1.2031(4) 0.8351(3)
O14A O 0.8190(5) 1.3620(4) 0.7833(3)
O15A O 0.9359(5) 1.3598(5) 0.9242(3)
O16A O 0.7590(5) 1.2620(5) 0.9672(3)
O17A O 0.7463(5) 1.4395(4) 0.9230(3)
O18A O 0.7186(5) 1.5016(4) 0.7999(3)
O19A O 0.6302(5) 1.3006(4) 0.8384(3)
O20A O 0.6175(6) 1.5823(5) 0.9036(3)
O21A O 0.5176(6) 1.4137(5) 0.9279(3)
O22A O 0.5391(5) 1.1277(4) 0.8217(3)
O23A O 0.8276(5) 1.4827(4) 0.7002(3)
Cu1A Cu 0.14163(9) 1.29731(8) 0.72362(6)
Cu1_2 Cu -0.14163(9) 0.70269(8) 0.27638(6)
Cu1A_2 Cu 1.14163(9) 1.29731(8) 0.72362(6)
N1A N 0.1945(7) 1.2654(6) 0.8199(4)
N2A N 0.2905(8) 1.2984(8) 0.8582(6)
H1A H 0.3474 1.3253 0.8422
N3A N 0.1387(7) 1.4296(6) 0.7752(4)
N4A N 0.0613(7) 1.4445(6) 0.8143(5)
H2A H -0.0048 1.4113 0.8070
N5A N 0.0785(6) 1.3322(5) 0.6294(4)
N6A N -0.0298(7) 1.3261(6) 0.6060(4)
H3A H -0.0822 1.3043 0.6279
N7A N 0.1589(6) 1.1639(5) 0.6812(4)
N8A N 0.2582(6) 1.1330(6) 0.6898(4)
H4A H 0.3205 1.1680 0.7096
N9A N 0.6506(6) 0.9545(5) 0.5040(4)
N10A N 0.6667(6) 0.8689(5) 0.4705(4)
H5A H 0.6162 0.8281 0.4421
N11A N 0.4831(6) 0.9468(5) 0.5893(4)
N12A N 0.5319(6) 0.9866(5) 0.6533(4)
H6A H 0.5698 1.0440 0.6634
C1A C 0.2906(14) 1.2860(10) 0.9248(7)
H13A H 0.3498 1.3063 0.9616
C2A C 0.1911(12) 1.2393(12) 0.9293(7)
H14A H 0.1655 1.2185 0.9687
C3A C 0.1353(10) 1.2291(10) 0.8627(7)
H15A H 0.0616 1.1988 0.8495
C4A C 0.0986(12) 1.5167(9) 0.8660(7)
H16A H 0.0587 1.5392 0.9006
C5A C 0.2008(11) 1.5517(10) 0.8607(7)
H17A H 0.2471 1.6035 0.8900
C6A C 0.2259(9) 1.4968(9) 0.8035(6)
H18A H 0.2937 1.5052 0.7869
C7A C -0.0462(10) 1.3578(9) 0.5449(6)
H19A H -0.1150 1.3601 0.5193
C8A C 0.0554(9) 1.3865(8) 0.5259(6)
H20A H 0.0703 1.4122 0.4857
C9A C 0.1315(8) 1.3684(7) 0.5808(5)
H21A H 0.2084 1.3800 0.5829
C10A C 0.2440(8) 1.0401(8) 0.6629(6)
H22A H 0.2998 1.0026 0.6622
C11A C 0.1357(10) 1.0090(8) 0.6366(6)
H23A H 0.1031 0.9473 0.6140
C12A C 0.0824(8) 1.0885(8) 0.6504(6)
H24A H 0.0064 1.0885 0.6397
C13A C 0.7710(9) 0.8566(8) 0.4873(6)
H25A H 0.8020 0.8039 0.4703
C14A C 0.7465(9) 0.9921(7) 0.5422(6)
H26A H 0.7600 1.0513 0.5717
C15A C 0.5160(9) 0.9278(7) 0.7012(5)
H27A H 0.5428 0.9411 0.7493
C16A C 0.4534(10) 0.8455(7) 0.6653(5)
H28A H 0.4281 0.7904 0.6836
C17A C 0.4346(8) 0.8593(7) 0.5965(5)
H29A H 0.3934 0.8136 0.5598
C36A C 0.8243(9) 0.9349(9) 0.5339(6)
H48A H 0.8982 0.9468 0.5555
Cu3 Cu 0.80876(11) 0.68517(13) 0.72584(7)
N13 N 0.6717(7) 0.7067(6) 0.7651(4)
N14 N 0.5715(7) 0.6521(6) 0.7460(4)
H7 H 0.5561 0.6028 0.7131
N15 N 0.7187(7) 0.6392(8) 0.6296(4)
N16 N 0.6580(9) 0.6882(9) 0.5882(6)
H8 H 0.6476 0.7466 0.5991
N17 N 0.9532(7) 0.6832(7) 0.6871(4)
N18 N 1.0006(7) 0.6058(6) 0.6829(5)
H9 H 0.9710 0.5508 0.6918
N19 N 0.8945(7) 0.7119(7) 0.8221(5)
N20 N 0.8720(7) 0.6547(6) 0.8706(4)
H10 H 0.8205 0.6047 0.8629
C18 C 0.4977(9) 0.6838(8) 0.7846(6)
H30 H 0.4237 0.6557 0.7818
C19 C 0.5511(10) 0.7646(8) 0.8284(6)
H31 H 0.5213 0.8042 0.8606
C20 C 0.6607(9) 0.7759(8) 0.8146(6)
H32 H 0.7176 0.8253 0.8374
C21 C 0.6151(9) 0.6271(8) 0.5245(6)
H33 H 0.5722 0.6407 0.4850
C22 C 0.6503(9) 0.5448(8) 0.5338(6)
H34 H 0.6329 0.4883 0.5011
C23 C 0.7118(7) 0.5541(7) 0.5943(5)
H35 H 0.7468 0.5057 0.6104
C24 C 1.1014(9) 0.6238(9) 0.6629(6)
H36 H 1.1504 0.5804 0.6572
C25 C 1.1175(10) 0.7158(9) 0.6527(6)
H37 H 1.1794 0.7493 0.6384
C26 C 1.0229(10) 0.7506(8) 0.6679(6)
H38 H 1.0103 0.8130 0.6650
C27 C 0.9399(9) 0.6855(9) 0.9322(5)
H39 H 0.9401 0.6569 0.9727
C28 C 1.0083(9) 0.7666(9) 0.9242(7)
H40 H 1.0649 0.8044 0.9575
C29 C 0.9757(9) 0.7808(9) 0.8555(6)
H41 H 1.0070 0.8324 0.8356
O26 O 0.8342(10) 0.8786(7) 0.7135(6)
Cu4 Cu 0.5000 0.0000 0.0000
N21 N 0.3598(6) 0.0126(6) 0.0456(4)
N22 N 0.3199(6) -0.0324(6) 0.0956(4)
H11 H 0.3571 -0.0646 0.1219
N23 N 0.6058(7) 0.0689(5) 0.0870(4)
N24 N 0.6749(8) 0.1512(7) 0.0879(5)
H12 H 0.6783 0.1824 0.0529
C30 C 0.2155(9) -0.0211(8) 0.0997(6)
H42 H 0.1716 -0.0456 0.1310
C31 C 0.1841(9) 0.0332(7) 0.0495(6)
H43 H 0.1155 0.0525 0.0394
C32 C 0.2766(9) 0.0529(7) 0.0173(6)
H44 H 0.2805 0.0893 -0.0191
C33 C 0.6280(10) 0.0438(9) 0.1501(5)
H45 H 0.5924 -0.0105 0.1652
C34 C 0.7142(12) 0.1127(12) 0.1900(8)
H46 H 0.7478 0.1118 0.2357
C35 C 0.7385(10) 0.1781(10) 0.1516(8)
H47 H 0.7909 0.2342 0.1655
O24 O 0.5094(6) -0.1471(5) 0.0425(3)
H49 H 0.4658 -0.1906 0.0163
N21A N 0.6402(6) -0.0126(6) -0.0456(4)
N22A N 0.6801(6) 0.0324(6) -0.0956(4)
H11A H 0.6429 0.0646 -0.1219
N23A N 0.3942(7) -0.0689(5) -0.0870(4)
N24A N 0.3251(8) -0.1512(7) -0.0879(5)
H12A H 0.3217 -0.1824 -0.0529
C30A C 0.7845(9) 0.0211(8) -0.0997(6)
H42A H 0.8284 0.0456 -0.1310
C31A C 0.8159(9) -0.0332(7) -0.0495(6)
H43A H 0.8845 -0.0525 -0.0394
C32A C 0.7234(9) -0.0529(7) -0.0173(6)
H44A H 0.7195 -0.0893 0.0191
C33A C 0.3720(10) -0.0438(9) -0.1501(5)
H45A H 0.4076 0.0105 -0.1652
C34A C 0.2858(12) -0.1127(12) -0.1900(8)
H46A H 0.2522 -0.1118 -0.2357
C35A C 0.2615(10) -0.1781(10) -0.1516(8)
H47A H 0.2091 -0.2342 -0.1655
O24A O 0.4906(6) 0.1471(5) -0.0425(3)
H49A H 0.5342 0.1906 -0.0163
O25 O 0.4474(6) 0.6738(5) 0.9536(4)
O27 O 0.6678(15) 0.3881(14) 0.3957(10)
O28 O 0.972(2) 0.9962(19) 0.2024(14)
loop_
_geom_bond_atom_site_label_1
_geom_bond_atom_site_label_2
_geom_bond_site_symmetry_1
_geom_bond_site_symmetry_2
P1 O5 1_555 1_555
P2 O6 1_555 1_555
Mo1 O1 1_555 1_555
Mo2 O4 1_555 1_555
Mo3 O9 1_555 1_555
Mo4 O13 1_555 1_555
Mo5 O1 1_555 1_555
O2 Mo1 1_555 1_555
O3 Mo1 1_555 1_555
O4 Mo1 1_555 1_555
O5 Mo1 1_555 1_555
O6 Mo1 1_555 1_555
O7 Mo2 1_555 1_555
O8 Mo2 1_555 1_555
O9 Mo2 1_555 1_555
O10 P1 1_555 1_555
O11 Mo3 1_555 1_555
O12 Mo3 1_555 1_555
O13 Mo3 1_555 1_555
O14 P2 1_555 1_555
O15 Mo4 1_555 1_555
O16 Mo4 1_555 1_555
O17 Mo4 1_555 1_555
O18 P2 1_555 1_555
O19 P1 1_555 1_555
O20 Mo5 1_555 1_555
O21 Mo5 1_555 1_555
O22 P1 1_555 1_555
O23 P2 1_555 1_555
Cu1 O3 1_555 1_555
Cu2 O8 1_555 1_555
Cu3 N13 1_555 1_555
Cu4 N21 1_555 1_555
N1 Cu1 1_555 1_555
N2 N1 1_555 1_555
H1 N2 1_555 1_555
N3 Cu1 1_555 1_555
N4 N3 1_555 1_555
H2 N4 1_555 1_555
N5 Cu1 1_555 1_555
N6 N5 1_555 1_555
H3 N6 1_555 1_555
N7 Cu1 1_555 1_555
N8 N7 1_555 1_555
H4 N8 1_555 1_555
N9 Cu2 1_555 1_555
N10 N9 1_555 1_555
H5 N10 1_555 1_555
N11 Cu2 1_555 1_555
N12 N11 1_555 1_555
H6 N12 1_555 1_555
N13 N14 1_555 1_555
N14 H7 1_555 1_555
N15 Cu3 1_555 1_555
N16 N15 1_555 1_555
H8 N16 1_555 1_555
N17 Cu3 1_555 1_555
N18 N17 1_555 1_555
H9 N18 1_555 1_555
N19 Cu3 1_555 1_555
N20 N19 1_555 1_555
H10 N20 1_555 1_555
N21 N22 1_555 1_555
N22 H11 1_555 1_555
N23 Cu4 1_555 1_555
N24 N23 1_555 1_555
H12 N24 1_555 1_555
C1 N2 1_555 1_555
H13 C1 1_555 1_555
C2 C1 1_555 1_555
H14 C2 1_555 1_555
C3 N1 1_555 1_555
H15 C3 1_555 1_555
C4 N4 1_555 1_555
H16 C4 1_555 1_555
C5 C4 1_555 1_555
H17 C5 1_555 1_555
C6 N3 1_555 1_555
H18 C6 1_555 1_555
C7 N6 1_555 1_555
H19 C7 1_555 1_555
C8 C7 1_555 1_555
H20 C8 1_555 1_555
C9 N5 1_555 1_555
H21 C9 1_555 1_555
C10 N8 1_555 1_555
H22 C10 1_555 1_555
C11 C10 1_555 1_555
H23 C11 1_555 1_555
C12 N7 1_555 1_555
H24 C12 1_555 1_555
C13 N10 1_555 1_555
H25 C13 1_555 1_555
C14 N9 1_555 1_555
H26 C14 1_555 1_555
C15 N12 1_555 1_555
H27 C15 1_555 1_555
C16 C15 1_555 1_555
H28 C16 1_555 1_555
C17 N11 1_555 1_555
H29 C17 1_555 1_555
C18 N14 1_555 1_555
H30 C18 1_555 1_555
C19 C18 1_555 1_555
H31 C19 1_555 1_555
C20 N13 1_555 1_555
H32 C20 1_555 1_555
C21 N16 1_555 1_555
H33 C21 1_555 1_555
C22 C21 1_555 1_555
H34 C22 1_555 1_555
C23 N15 1_555 1_555
H35 C23 1_555 1_555
C24 N18 1_555 1_555
H36 C24 1_555 1_555
C25 C24 1_555 1_555
H37 C25 1_555 1_555
C26 N17 1_555 1_555
H38 C26 1_555 1_555
C27 N20 1_555 1_555
H39 C27 1_555 1_555
C28 C27 1_555 1_555
H40 C28 1_555 1_555
C29 N19 1_555 1_555
H41 C29 1_555 1_555
C30 N22 1_555 1_555
H42 C30 1_555 1_555
C31 C30 1_555 1_555
H43 C31 1_555 1_555
C32 N21 1_555 1_555
H44 C32 1_555 1_555
C33 N23 1_555 1_555
H45 C33 1_555 1_555
C34 C33 1_555 1_555
H46 C34 1_555 1_555
C35 N24 1_555 1_555
H47 C35 1_555 1_555
C36 C13 1_555 1_555
H48 C36 1_555 1_555
O24 Cu4 1_555 1_555
H49 O24 1_555 1_555
O26 Cu3 1_555 1_555
P1A O5A 1_555 1_555
P2A O6A 1_555 1_555
Mo1A O1A 1_555 1_555
Mo2A O4A 1_555 1_555
Mo3A O9A 1_555 1_555
Mo4A O13A 1_555 1_555
Mo5A O1A 1_555 1_555
O2A Mo1A 1_555 1_555
O3A Mo1A 1_555 1_555
O4A Mo1A 1_555 1_555
O5A Mo1A 1_555 1_555
O6A Mo1A 1_555 1_555
O7A Mo2A 1_555 1_555
O8A Cu2 1_555 1_555
O9A Mo2A 1_555 1_555
O10A P1A 1_555 1_555
O11A Mo3A 1_555 1_555
O12A Mo3A 1_555 1_555
O12_2 Cu1 1_555 1_555
O12A_2 Cu1A 1_555 1_555
O13A Mo3A 1_555 1_555
O14A P2A 1_555 1_555
O15A Mo4A 1_555 1_555
O16A Mo4A 1_555 1_555
O17A Mo4A 1_555 1_555
O18A P2A 1_555 1_555
O19A P1A 1_555 1_555
O20A Mo5A 1_555 1_555
O21A Mo5A 1_555 1_555
O22A P1A 1_555 1_555
O23A P2A 1_555 1_555
Cu1A O3A 1_555 1_555
Cu1_2 O12 1_555 1_555
Cu1A_2 O12A 1_555 1_555
N1A Cu1A 1_555 1_555
N2A N1A 1_555 1_555
H1A N2A 1_555 1_555
N3A Cu1A 1_555 1_555
N4A N3A 1_555 1_555
H2A N4A 1_555 1_555
N5A Cu1A 1_555 1_555
N6A N5A 1_555 1_555
H3A N6A 1_555 1_555
N7A Cu1A 1_555 1_555
N8A N7A 1_555 1_555
H4A N8A 1_555 1_555
N9A Cu2 1_555 1_555
N10A N9A 1_555 1_555
H5A N10A 1_555 1_555
N11A Cu2 1_555 1_555
N12A N11A 1_555 1_555
H6A N12A 1_555 1_555
N21A Cu4 1_555 1_555
N22A N21A 1_555 1_555
H11A N22A 1_555 1_555
N23A Cu4 1_555 1_555
N24A N23A 1_555 1_555
H12A N24A 1_555 1_555
C1A N2A 1_555 1_555
H13A C1A 1_555 1_555
C2A C1A 1_555 1_555
H14A C2A 1_555 1_555
C3A N1A 1_555 1_555
H15A C3A 1_555 1_555
C4A N4A 1_555 1_555
H16A C4A 1_555 1_555
C5A C4A 1_555 1_555
H17A C5A 1_555 1_555
C6A N3A 1_555 1_555
H18A C6A 1_555 1_555
C7A N6A 1_555 1_555
H19A C7A 1_555 1_555
C8A C7A 1_555 1_555
H20A C8A 1_555 1_555
C9A N5A 1_555 1_555
H21A C9A 1_555 1_555
C10A N8A 1_555 1_555
H22A C10A 1_555 1_555
C11A C10A 1_555 1_555
H23A C11A 1_555 1_555
C12A N7A 1_555 1_555
H24A C12A 1_555 1_555
C13A N10A 1_555 1_555
H25A C13A 1_555 1_555
C14A N9A 1_555 1_555
H26A C14A 1_555 1_555
C15A N12A 1_555 1_555
H27A C15A 1_555 1_555
C16A C15A 1_555 1_555
H28A C16A 1_555 1_555
C17A N11A 1_555 1_555
H29A C17A 1_555 1_555
C30A N22A 1_555 1_555
H42A C30A 1_555 1_555
C31A C30A 1_555 1_555
H43A C31A 1_555 1_555
C32A N21A 1_555 1_555
H44A C32A 1_555 1_555
C33A N23A 1_555 1_555
H45A C33A 1_555 1_555
C34A C33A 1_555 1_555
H46A C34A 1_555 1_555
C35A N24A 1_555 1_555
H47A C35A 1_555 1_555
C36A C13A 1_555 1_555
H48A C36A 1_555 1_555
O24A Cu4 1_555 1_555
H49A O24A 1_555 1_555
Mo2 O6 1_555 1_555
Mo2 O10 1_555 1_555
Mo3 O10 1_555 1_555
Mo3 O14 1_555 1_555
Mo4 O14 1_555 1_555
Mo4 O19 1_555 1_555
Mo5 O17 1_555 1_555
Mo5 O18 1_555 1_555
Mo5 O19 1_555 1_555
C2 C3 1_555 1_555
C5 C6 1_555 1_555
C8 C9 1_555 1_555
C11 C12 1_555 1_555
C14 C36 1_555 1_555
C16 C17 1_555 1_555
C19 C20 1_555 1_555
C22 C23 1_555 1_555
C25 C26 1_555 1_555
C28 C29 1_555 1_555
C31 C32 1_555 1_555
C34 C35 1_555 1_555
Mo2A O6A 1_555 1_555
Mo2A O8A 1_555 1_555
Mo2A O10A 1_555 1_555
Mo3A O10A 1_555 1_555
Mo3A O14A 1_555 1_555
Mo4A O14A 1_555 1_555
Mo4A O19A 1_555 1_555
Mo5A O17A 1_555 1_555
Mo5A O18A 1_555 1_555
Mo5A O19A 1_555 1_555
C2A C3A 1_555 1_555
C5A C6A 1_555 1_555
C8A C9A 1_555 1_555
C11A C12A 1_555 1_555
C14A C36A 1_555 1_555
C16A C17A 1_555 1_555
C31A C32A 1_555 1_555
C34A C35A 1_555 1_555

#END
