
#######################################################################
#
#                 Cambridge Crystallographic Data Centre
#                                CCDC 
#
#######################################################################
#
# If this CIF has been generated from an entry in the Cambridge 
# Structural Database, then it will include bibliographic, chemical, 
# crystal, experimental, refinement or atomic coordinate data resulting 
# from the CCDC's data processing and validation procedures.
#
#######################################################################

data_IREGUH
_symmetry_cell_setting           triclinic
_symmetry_space_group_name_H-M   'P -1'
_symmetry_Int_Tables_number      2
_space_group_name_Hall           '-P 1'
loop_
_symmetry_equiv_pos_site_id
_symmetry_equiv_pos_as_xyz
1 x,y,z
2 -x,-y,-z
_cell_length_a                   6.575(9)
_cell_length_b                   12.897(15)
_cell_length_c                   14.645(17)
_cell_angle_alpha                82.890(10)
_cell_angle_beta                 80.790(10)
_cell_angle_gamma                83.770(10)
_cell_volume                     1211.43
loop_
_atom_site_label
_atom_site_type_symbol
_atom_site_fract_x
_atom_site_fract_y
_atom_site_fract_z
Eu1 Eu -0.34196(5) -0.18485(3) -0.19613(2)
N1 N -0.1442(15) -0.1653(8) -0.5054(5)
H1 H -0.1061 -0.2314 -0.5027
C1 C -0.1936(14) -0.1202(8) -0.4236(6)
C2 C -0.2632(13) -0.0136(8) -0.4320(6)
C3 C -0.2673(16) 0.0415(10) -0.5189(7)
H2 H -0.3095 0.1129 -0.5237
C4 C -0.2087(16) -0.0087(10) -0.6005(6)
H3 H -0.2098 0.0289 -0.6589
C5 C -0.1526(19) -0.1096(12) -0.5924(7)
H4 H -0.1181 -0.1443 -0.6455
C6 C -0.3386(14) 0.0418(8) -0.3449(6)
O1 O -0.3889(10) -0.0125(5) -0.2686(4)
O2 O -0.3542(14) 0.1406(6) -0.3543(6)
O3 O -0.1678(11) -0.1800(6) -0.3499(4)
N2 N -0.3356(12) -0.3938(6) 0.0826(6)
H5 H -0.3748 -0.3408 0.1136
C7 C -0.3152(14) -0.3750(7) -0.0110(6)
C8 C -0.2507(14) -0.4642(7) -0.0619(7)
C9 C -0.2132(15) -0.5606(8) -0.0111(8)
H6 H -0.1700 -0.6187 -0.0434
C10 C -0.2363(17) -0.5746(8) 0.0830(8)
H7 H -0.2100 -0.6406 0.1144
C11 C -0.3008(16) -0.4870(8) 0.1320(7)
H8 H -0.3188 -0.4935 0.1967
C12 C -0.2191(14) -0.4535(7) -0.1658(7)
O4 O -0.3631(10) -0.2816(5) -0.0448(4)
O5 O -0.2299(11) -0.3646(5) -0.2114(5)
O6 O -0.1834(17) -0.5369(7) -0.2052(7)
N3 N -0.3084(11) -0.0755(5) 0.0747(5)
H9 H -0.4351 -0.0494 0.0832
C13 C -0.2194(13) -0.0917(6) -0.0150(5)
C14 C -0.0062(12) -0.1325(6) -0.0245(5)
C15 C 0.0993(13) -0.1517(7) 0.0513(6)
H10 H 0.2388 -0.1760 0.0431
C16 C -0.0056(15) -0.1342(8) 0.1420(6)
H11 H 0.0633 -0.1472 0.1935
C17 C -0.2093(14) -0.0980(8) 0.1510(6)
H12 H -0.2819 -0.0884 0.2097
C18 C 0.1144(13) -0.1525(6) -0.1182(6)
O7 O -0.3229(8) -0.0667(4) -0.0804(4)
O8 O 0.0189(9) -0.1746(5) -0.1805(4)
O9 O 0.3066(9) -0.1477(5) -0.1280(4)
O10 O -0.5908(13) -0.2369(8) -0.2923(6)
O9_2 O -0.6934(9) -0.1477(5) -0.1280(4)
Eu1_2 Eu 0.65804(5) -0.18485(3) -0.19613(2)
O11 O 0.563(2) 0.2778(10) -0.2188(9)
O12 O 0.129(9) -0.646(5) -0.312(3)
loop_
_geom_bond_atom_site_label_1
_geom_bond_atom_site_label_2
_geom_bond_site_symmetry_1
_geom_bond_site_symmetry_2
Eu1 O1 1_555 1_555
N1 H1 1_555 1_555
C1 N1 1_555 1_555
C2 C1 1_555 1_555
C3 C2 1_555 1_555
H2 C3 1_555 1_555
C4 C3 1_555 1_555
H3 C4 1_555 1_555
C5 N1 1_555 1_555
H4 C5 1_555 1_555
C6 C2 1_555 1_555
O1 C6 1_555 1_555
O2 C6 1_555 1_555
O3 Eu1 1_555 1_555
N2 H5 1_555 1_555
C7 N2 1_555 1_555
C8 C7 1_555 1_555
C9 C8 1_555 1_555
H6 C9 1_555 1_555
C10 C9 1_555 1_555
H7 C10 1_555 1_555
C11 N2 1_555 1_555
H8 C11 1_555 1_555
C12 C8 1_555 1_555
O4 Eu1 1_555 1_555
O5 Eu1 1_555 1_555
O6 C12 1_555 1_555
N3 H9 1_555 1_555
C13 N3 1_555 1_555
C14 C13 1_555 1_555
C15 C14 1_555 1_555
H10 C15 1_555 1_555
C16 C15 1_555 1_555
H11 C16 1_555 1_555
C17 N3 1_555 1_555
H12 C17 1_555 1_555
C18 C14 1_555 1_555
O7 Eu1 1_555 1_555
O8 Eu1 1_555 1_555
O9 C18 1_555 1_555
O10 Eu1 1_555 1_555
O9_2 Eu1 1_555 1_555
Eu1_2 O9 1_555 1_555
C1 O3 1_555 1_555
C4 C5 1_555 1_555
C7 O4 1_555 1_555
C10 C11 1_555 1_555
C12 O5 1_555 1_555
C13 O7 1_555 1_555
C16 C17 1_555 1_555
C18 O8 1_555 1_555

#END
