
#######################################################################
#
#                 Cambridge Crystallographic Data Centre
#                                CCDC 
#
#######################################################################
#
# If this CIF has been generated from an entry in the Cambridge 
# Structural Database, then it will include bibliographic, chemical, 
# crystal, experimental, refinement or atomic coordinate data resulting 
# from the CCDC's data processing and validation procedures.
#
#######################################################################

data_IREHAP
_symmetry_cell_setting           triclinic
_symmetry_space_group_name_H-M   'P -1'
_symmetry_Int_Tables_number      2
_space_group_name_Hall           '-P 1'
loop_
_symmetry_equiv_pos_site_id
_symmetry_equiv_pos_as_xyz
1 x,y,z
2 -x,-y,-z
_cell_length_a                   11.2164(9)
_cell_length_b                   11.6086(9)
_cell_length_c                   17.965(14)
_cell_angle_alpha                94.197(3)
_cell_angle_beta                 92.320(2)
_cell_angle_gamma                93.652(2)
_cell_volume                     2325.76
loop_
_atom_site_label
_atom_site_type_symbol
_atom_site_fract_x
_atom_site_fract_y
_atom_site_fract_z
C1 C 0.6217(9) 0.6610(8) -0.4164(6)
C2 C 0.6654(11) 0.7662(9) -0.3654(6)
H1 H 0.7366 0.7497 -0.3378
H2 H 0.6046 0.785 -0.3313
H3 H 0.6826 0.8305 -0.3948
C3 C 0.4933(10) 0.6785(9) -0.4410(6)
H4 H 0.4922 0.7408 -0.4733
H5 H 0.4483 0.6971 -0.3979
H6 H 0.4583 0.6087 -0.4673
C4 C 0.6947(12) 0.6574(10) -0.4830(6)
H7 H 0.7764 0.6471 -0.4683
H8 H 0.6904 0.7287 -0.5066
H9 H 0.6649 0.594 -0.5175
C5 C 0.8925(6) 0.3596(6) 0.2926(4)
C6 C 0.9774(8) 0.3435(8) 0.3591(4)
H10 H 0.9318 0.3286 0.4019
H11 H 1.0289 0.4124 0.37
H12 H 1.0249 0.2792 0.3473
C7 C 0.9695(6) 0.3774(7) 0.2258(4)
H13 H 0.9984 0.3048 0.2081
H14 H 1.0361 0.4314 0.2407
H15 H 0.9225 0.4072 0.1867
C8 C 0.8241(7) 0.4677(7) 0.3114(5)
H16 H 0.7681 0.478 0.271
H17 H 0.8796 0.5344 0.3189
H18 H 0.7818 0.4582 0.3562
C9 C 0.7135(7) -0.0360(7) 0.3587(4)
C10 C 0.8270(10) -0.0368(10) 0.4059(6)
H19 H 0.8318 0.0276 0.4429
H20 H 0.8944 -0.0309 0.3748
H21 H 0.8275 -0.1077 0.4303
C11 C 0.6110(11) -0.0294(10) 0.4093(7)
H22 H 0.5376 -0.0289 0.3799
H23 H 0.6217 0.0402 0.4418
H24 H 0.6078 -0.0953 0.4386
C12 C 0.7032(15) -0.1471(8) 0.3086(6)
H25 H 0.7417 -0.2063 0.3332
H26 H 0.7411 -0.1345 0.2626
H27 H 0.6203 -0.171 0.2982
C13 C 0.5237(5) 0.1735(6) 0.1520(4)
H28 H 0.4678 0.1061 0.1517
H29 H 0.4808 0.2413 0.1657
C14 C 0.6180(5) 0.0760(5) 0.0461(4)
H30 H 0.5899 0.059 -0.0056
H31 H 0.5894 0.0123 0.0741
C15 C 0.7538(6) 0.0847(5) 0.0503(4)
C16 C 0.8796(10) 0.6746(10) 0.1316(7)
H32 H 0.8078 0.6806 0.1017
H33 H 0.8957 0.7441 0.1638
H34 H 0.8698 0.6095 0.1613
C17 C 1.0051(13) 0.0155(13) 0.1878(7)
H35 H 0.9493 0.0711 0.1754
H36 H 1.0727 0.0542 0.2159
H37 H 0.9671 -0.0407 0.2173
N1 N 0.5680(5) 0.1825(5) 0.0757(3)
O1 O 1.0362(5) 0.1918(5) 0.0350(4)
O3 O 0.8558(4) 0.5567(4) -0.0796(3)
O4 O 0.6024(4) 0.4444(4) 0.0596(3)
O5 O 0.8410(4) 0.4101(4) 0.0509(2)
O6 O 0.8050(3) 0.1817(3) 0.0707(3)
O7 O 0.8052(4) -0.0033(4) 0.0304(3)
O8 O 0.9792(4) 0.6588(4) 0.0831(3)
O9 O 1.0442(6) -0.0409(6) 0.1213(3)
H38 H 0.516(5) 0.412(5) -0.103(3)
H39 H 0.522(5) 0.192(5) 0.052(4)
C18 C 0.6423(6) 0.3596(6) -0.2888(4)
C19 C 0.5643(6) 0.4445(6) -0.2702(4)
C20 C 0.5570(6) 0.5400(6) -0.3109(4)
H40 H 0.5042 0.5957 -0.2975
C21 C 0.6286(7) 0.5544(7) -0.3727(4)
C22 C 0.7022(7) 0.4659(6) -0.3910(4)
H41 H 0.7464 0.4715 -0.4335
C23 C 0.7149(6) 0.3684(6) -0.3501(4)
C24 C 0.7978(7) 0.2731(7) -0.3731(4)
C25 C 0.7282(8) 0.1559(7) -0.3871(5)
H42 H 0.6865 0.1384 -0.3433
H43 H 0.7826 0.0972 -0.3985
H44 H 0.6716 0.1583 -0.4284
C26 C 0.8957(7) 0.2682(7) -0.3112(4)
H45 H 0.9419 0.3411 -0.3049
H46 H 0.947 0.2078 -0.3248
H47 H 0.8593 0.2528 -0.2652
C27 C 0.8628(8) 0.2976(8) -0.4443(5)
H48 H 0.8052 0.2995 -0.4852
H49 H 0.916 0.2378 -0.4555
H50 H 0.9078 0.371 -0.4369
C28 C 0.4885(6) 0.4297(6) -0.2036(4)
H51 H 0.442 0.4967 -0.1951
H52 H 0.4334 0.3618 -0.2133
C29 C 0.6523(6) 0.5171(6) -0.1142(4)
H53 H 0.6323 0.5527 -0.0662
H54 H 0.6447 0.5739 -0.1508
C30 C 0.7789(6) 0.4830(6) -0.1096(4)
C31 C 0.7123(6) 0.2534(6) 0.2185(3)
C32 C 0.6228(5) 0.1639(6) 0.2094(3)
C33 C 0.6247(6) 0.0707(6) 0.2533(4)
H55 H 0.5659 0.0103 0.2455
C34 C 0.7138(6) 0.0671(6) 0.3087(4)
C35 C 0.7988(6) 0.1605(6) 0.3190(4)
H56 H 0.8578 0.1591 0.3568
C36 C 0.8006(6) 0.2559(6) 0.2760(4)
Cd1 Cd 1.00000 0.50000 0.00000
Cd2 Cd 1.00000 0.00000 0.00000
Mo1 Mo 0.65351(5) 0.23857(5) -0.14165(3)
Mo2 Mo 0.70259(5) 0.34060(4) 0.06185(3)
N2 N 0.5674(5) 0.4161(5) -0.1352(3)
O10 O 0.5184(4) 0.1639(4) -0.1408(3)
O11 O 0.7563(5) 0.1364(4) -0.1477(3)
O12 O 0.6715(4) 0.2771(4) -0.0364(2)
O13 O 0.6490(4) 0.2679(4) -0.2455(2)
O14 O 0.8009(4) 0.3819(4) -0.1350(2)
O15 O 0.7097(4) 0.3388(3) 0.1702(2)
C1A C 1.3783(9) 0.3390(8) 0.4164(6)
C2A C 1.3346(11) 0.2338(9) 0.3654(6)
H1A H 1.2634 0.2503 0.3378
H2A H 1.3954 0.215 0.3313
H3A H 1.3174 0.1695 0.3948
C3A C 1.5067(10) 0.3215(9) 0.4410(6)
H4A H 1.5078 0.2592 0.4733
H5A H 1.5517 0.3029 0.3979
H6A H 1.5417 0.3913 0.4673
C4A C 1.3053(12) 0.3426(10) 0.4830(6)
H7A H 1.2236 0.3529 0.4683
H8A H 1.3096 0.2713 0.5066
H9A H 1.3351 0.406 0.5175
C5A C 1.1075(6) 0.6404(6) -0.2926(4)
C6A C 1.0226(8) 0.6565(8) -0.3591(4)
H10A H 1.0682 0.6714 -0.4019
H11A H 0.9711 0.5876 -0.37
H12A H 0.9751 0.7208 -0.3473
C7A C 1.0305(6) 0.6226(7) -0.2258(4)
H13A H 1.0016 0.6952 -0.2081
H14A H 0.9639 0.5686 -0.2407
H15A H 1.0775 0.5928 -0.1867
C8A C 1.1759(7) 0.5323(7) -0.3114(5)
H16A H 1.2319 0.522 -0.271
H17A H 1.1204 0.4656 -0.3189
H18A H 1.2182 0.5418 -0.3562
C9A C 1.2865(7) 1.0360(7) -0.3587(4)
C10A C 1.1730(10) 1.0368(10) -0.4059(6)
H19A H 1.1682 0.9724 -0.4429
H20A H 1.1056 1.0309 -0.3748
H21A H 1.1725 1.1077 -0.4303
C11A C 1.3890(11) 1.0294(10) -0.4093(7)
H22A H 1.4624 1.0289 -0.3799
H23A H 1.3783 0.9598 -0.4418
H24A H 1.3922 1.0953 -0.4386
C12A C 1.2968(15) 1.1471(8) -0.3086(6)
H25A H 1.2583 1.2063 -0.3332
H26A H 1.2589 1.1345 -0.2626
H27A H 1.3797 1.171 -0.2982
C13A C 1.4763(5) 0.8265(6) -0.1520(4)
H28A H 1.5322 0.8939 -0.1517
H29A H 1.5192 0.7587 -0.1657
C14A C 1.3820(5) 0.9240(5) -0.0461(4)
H30A H 1.4101 0.941 0.0056
H31A H 1.4106 0.9877 -0.0741
C15A C 1.2462(6) 0.9153(5) -0.0503(4)
C16A C 1.1204(10) 0.3254(10) -0.1316(7)
H32A H 1.1922 0.3194 -0.1017
H33A H 1.1043 0.2559 -0.1638
H34A H 1.1302 0.3905 -0.1613
C17A C 0.9949(13) -0.0155(13) -0.1878(7)
H35A H 1.0507 -0.0711 -0.1754
H36A H 0.9273 -0.0542 -0.2159
H37A H 1.0329 0.0407 -0.2173
N1A N 1.4320(5) 0.8175(5) -0.0757(3)
O1A O 0.9638(5) -0.1918(5) -0.0350(4)
O3A O 1.1442(4) 0.4433(4) 0.0796(3)
O4A O 1.3976(4) 0.5556(4) -0.0596(3)
O5A O 1.1590(4) 0.5899(4) -0.0509(2)
O6A O 1.1950(3) 0.8183(3) -0.0707(3)
O7A O 1.1948(4) 1.0033(4) -0.0304(3)
O7A_2 O 1.1948(4) 0.0033(4) -0.0304(3)
O8A O 1.0208(4) 0.3412(4) -0.0831(3)
O9A O 0.9558(6) 0.0409(6) -0.1213(3)
H38A H 1.484(5) 0.588(5) 0.103(3)
H39A H 1.478(5) 0.808(5) -0.052(4)
C18A C 1.3577(6) 0.6404(6) 0.2888(4)
C19A C 1.4357(6) 0.5555(6) 0.2702(4)
C20A C 1.4430(6) 0.4600(6) 0.3109(4)
H40A H 1.4958 0.4043 0.2975
C21A C 1.3714(7) 0.4456(7) 0.3727(4)
C22A C 1.2978(7) 0.5341(6) 0.3910(4)
H41A H 1.2536 0.5285 0.4335
C23A C 1.2851(6) 0.6316(6) 0.3501(4)
C24A C 1.2022(7) 0.7269(7) 0.3731(4)
C25A C 1.2718(8) 0.8441(7) 0.3871(5)
H42A H 1.3135 0.8616 0.3433
H43A H 1.2174 0.9028 0.3985
H44A H 1.3284 0.8417 0.4284
C26A C 1.1043(7) 0.7318(7) 0.3112(4)
H45A H 1.0581 0.6589 0.3049
H46A H 1.053 0.7922 0.3248
H47A H 1.1407 0.7472 0.2652
C27A C 1.1372(8) 0.7024(8) 0.4443(5)
H48A H 1.1948 0.7005 0.4852
H49A H 1.084 0.7622 0.4555
H50A H 1.0922 0.629 0.4369
C28A C 1.5115(6) 0.5703(6) 0.2036(4)
H51A H 1.558 0.5033 0.1951
H52A H 1.5666 0.6382 0.2133
C29A C 1.3477(6) 0.4829(6) 0.1142(4)
H53A H 1.3677 0.4473 0.0662
H54A H 1.3553 0.4261 0.1508
C30A C 1.2211(6) 0.5170(6) 0.1096(4)
C31A C 1.2877(6) 0.7466(6) -0.2185(3)
C32A C 1.3772(5) 0.8361(6) -0.2094(3)
C33A C 1.3753(6) 0.9293(6) -0.2533(4)
H55A H 1.4341 0.9897 -0.2455
C34A C 1.2862(6) 0.9329(6) -0.3087(4)
C35A C 1.2012(6) 0.8395(6) -0.3190(4)
H56A H 1.1422 0.8409 -0.3568
C36A C 1.1994(6) 0.7441(6) -0.2760(4)
Cd2_2 Cd 1.00000 1.00000 0.00000
Mo1A Mo 1.34649(5) 0.76143(5) 0.14165(3)
Mo2A Mo 1.29741(5) 0.65940(4) -0.06185(3)
N2A N 1.4326(5) 0.5839(5) 0.1352(3)
O10A O 1.4816(4) 0.8361(4) 0.1408(3)
O11A O 1.2437(5) 0.8636(4) 0.1477(3)
O12A O 1.3285(4) 0.7229(4) 0.0364(2)
O13A O 1.3510(4) 0.7321(4) 0.2455(2)
O14A O 1.1991(4) 0.6181(4) 0.1350(2)
O15A O 1.2903(4) 0.6612(3) -0.1702(2)
O2 O 0.6680(8) 0.7798(6) 0.9956(7)
loop_
_geom_bond_atom_site_label_1
_geom_bond_atom_site_label_2
_geom_bond_site_symmetry_1
_geom_bond_site_symmetry_2
C1 C2 1_555 1_555
C2 H1 1_555 1_555
H2 C2 1_555 1_555
H3 C2 1_555 1_555
C3 C1 1_555 1_555
H4 C3 1_555 1_555
H5 C3 1_555 1_555
H6 C3 1_555 1_555
C4 C1 1_555 1_555
H7 C4 1_555 1_555
H8 C4 1_555 1_555
H9 C4 1_555 1_555
C5 C6 1_555 1_555
C6 H10 1_555 1_555
H11 C6 1_555 1_555
H12 C6 1_555 1_555
C7 C5 1_555 1_555
H13 C7 1_555 1_555
H14 C7 1_555 1_555
H15 C7 1_555 1_555
C8 C5 1_555 1_555
H16 C8 1_555 1_555
H17 C8 1_555 1_555
H18 C8 1_555 1_555
C9 C10 1_555 1_555
C10 H19 1_555 1_555
H20 C10 1_555 1_555
H21 C10 1_555 1_555
C11 C9 1_555 1_555
H22 C11 1_555 1_555
H23 C11 1_555 1_555
H24 C11 1_555 1_555
C12 C9 1_555 1_555
H25 C12 1_555 1_555
H26 C12 1_555 1_555
H27 C12 1_555 1_555
C13 H28 1_555 1_555
H29 C13 1_555 1_555
C14 H30 1_555 1_555
H31 C14 1_555 1_555
C15 C14 1_555 1_555
C16 H32 1_555 1_555
H33 C16 1_555 1_555
H34 C16 1_555 1_555
C17 H35 1_555 1_555
H36 C17 1_555 1_555
H37 C17 1_555 1_555
N1 C13 1_555 1_555
O1 Cd2 1_555 1_555
O3 C30 1_555 1_555
O4 Mo2 1_555 1_555
O5 Cd1 1_555 1_555
O6 C15 1_555 1_555
O7 C15 1_555 1_555
O8 C16 1_555 1_555
O9 C17 1_555 1_555
H38 N2 1_555 1_555
H39 N1 1_555 1_555
C18 C19 1_555 1_555
C19 C20 1_555 1_555
C20 H40 1_555 1_555
C21 C1 1_555 1_555
C22 C21 1_555 1_555
H41 C22 1_555 1_555
C23 C18 1_555 1_555
C24 C23 1_555 1_555
C25 C24 1_555 1_555
H42 C25 1_555 1_555
H43 C25 1_555 1_555
H44 C25 1_555 1_555
C26 C24 1_555 1_555
H45 C26 1_555 1_555
H46 C26 1_555 1_555
H47 C26 1_555 1_555
C27 C24 1_555 1_555
H48 C27 1_555 1_555
H49 C27 1_555 1_555
H50 C27 1_555 1_555
C28 C19 1_555 1_555
H51 C28 1_555 1_555
H52 C28 1_555 1_555
C29 H53 1_555 1_555
H54 C29 1_555 1_555
C30 C29 1_555 1_555
C31 C32 1_555 1_555
C32 C13 1_555 1_555
C33 C32 1_555 1_555
H55 C33 1_555 1_555
C34 C9 1_555 1_555
C35 C34 1_555 1_555
H56 C35 1_555 1_555
C36 C5 1_555 1_555
Cd1 O3 1_555 1_555
Cd2 O7 1_555 1_555
Mo1 N2 1_555 1_555
Mo2 N1 1_555 1_555
N2 C28 1_555 1_555
O10 Mo1 1_555 1_555
O11 Mo1 1_555 1_555
O12 Mo1 1_555 1_555
O13 C18 1_555 1_555
O14 C30 1_555 1_555
O15 C31 1_555 1_555
C1A C2A 1_555 1_555
C2A H1A 1_555 1_555
H2A C2A 1_555 1_555
H3A C2A 1_555 1_555
C3A C1A 1_555 1_555
H4A C3A 1_555 1_555
H5A C3A 1_555 1_555
H6A C3A 1_555 1_555
C4A C1A 1_555 1_555
H7A C4A 1_555 1_555
H8A C4A 1_555 1_555
H9A C4A 1_555 1_555
C5A C6A 1_555 1_555
C6A H10A 1_555 1_555
H11A C6A 1_555 1_555
H12A C6A 1_555 1_555
C7A C5A 1_555 1_555
H13A C7A 1_555 1_555
H14A C7A 1_555 1_555
H15A C7A 1_555 1_555
C8A C5A 1_555 1_555
H16A C8A 1_555 1_555
H17A C8A 1_555 1_555
H18A C8A 1_555 1_555
C9A C10A 1_555 1_555
C10A H19A 1_555 1_555
H20A C10A 1_555 1_555
H21A C10A 1_555 1_555
C11A C9A 1_555 1_555
H22A C11A 1_555 1_555
H23A C11A 1_555 1_555
H24A C11A 1_555 1_555
C12A C9A 1_555 1_555
H25A C12A 1_555 1_555
H26A C12A 1_555 1_555
H27A C12A 1_555 1_555
C13A H28A 1_555 1_555
H29A C13A 1_555 1_555
C14A H30A 1_555 1_555
H31A C14A 1_555 1_555
C15A C14A 1_555 1_555
C16A H32A 1_555 1_555
H33A C16A 1_555 1_555
H34A C16A 1_555 1_555
C17A H35A 1_555 1_555
H36A C17A 1_555 1_555
H37A C17A 1_555 1_555
N1A C13A 1_555 1_555
O1A Cd2 1_555 1_555
O3A Cd1 1_555 1_555
O4A Mo2A 1_555 1_555
O5A Cd1 1_555 1_555
O6A C15A 1_555 1_555
O7A C15A 1_555 1_555
O7A_2 Cd2 1_555 1_555
O8A Cd1 1_555 1_555
O9A Cd2 1_555 1_555
H38A N2A 1_555 1_555
H39A N1A 1_555 1_555
C18A C19A 1_555 1_555
C19A C20A 1_555 1_555
C20A H40A 1_555 1_555
C21A C1A 1_555 1_555
C22A C21A 1_555 1_555
H41A C22A 1_555 1_555
C23A C18A 1_555 1_555
C24A C23A 1_555 1_555
C25A C24A 1_555 1_555
H42A C25A 1_555 1_555
H43A C25A 1_555 1_555
H44A C25A 1_555 1_555
C26A C24A 1_555 1_555
H45A C26A 1_555 1_555
H46A C26A 1_555 1_555
H47A C26A 1_555 1_555
C27A C24A 1_555 1_555
H48A C27A 1_555 1_555
H49A C27A 1_555 1_555
H50A C27A 1_555 1_555
C28A C19A 1_555 1_555
H51A C28A 1_555 1_555
H52A C28A 1_555 1_555
C29A H53A 1_555 1_555
H54A C29A 1_555 1_555
C30A O3A 1_555 1_555
C31A C32A 1_555 1_555
C32A C13A 1_555 1_555
C33A C32A 1_555 1_555
H55A C33A 1_555 1_555
C34A C9A 1_555 1_555
C35A C34A 1_555 1_555
H56A C35A 1_555 1_555
C36A C5A 1_555 1_555
Cd2_2 O7A 1_555 1_555
Mo1A N2A 1_555 1_555
Mo2A N1A 1_555 1_555
N2A C28A 1_555 1_555
O10A Mo1A 1_555 1_555
O11A Mo1A 1_555 1_555
O12A Mo1A 1_555 1_555
O13A C18A 1_555 1_555
O14A C30A 1_555 1_555
O15A C31A 1_555 1_555
C14 N1 1_555 1_555
O5 Mo2 1_555 1_555
O6 Mo2 1_555 1_555
O8 Cd1 1_555 1_555
O9 Cd2 1_555 1_555
C20 C21 1_555 1_555
C22 C23 1_555 1_555
C29 N2 1_555 1_555
C31 C36 1_555 1_555
C33 C34 1_555 1_555
C35 C36 1_555 1_555
Mo1 O13 1_555 1_555
Mo1 O14 1_555 1_555
Mo2 O12 1_555 1_555
Mo2 O15 1_555 1_555
C14A N1A 1_555 1_555
C16A O8A 1_555 1_555
C17A O9A 1_555 1_555
O5A Mo2A 1_555 1_555
O6A Mo2A 1_555 1_555
C20A C21A 1_555 1_555
C22A C23A 1_555 1_555
C29A C30A 1_555 1_555
C29A N2A 1_555 1_555
C31A C36A 1_555 1_555
C33A C34A 1_555 1_555
C35A C36A 1_555 1_555
Mo1A O13A 1_555 1_555
Mo1A O14A 1_555 1_555
Mo2A O12A 1_555 1_555
Mo2A O15A 1_555 1_555

#END
