
#######################################################################
#
#                 Cambridge Crystallographic Data Centre
#                                CCDC 
#
#######################################################################
#
# If this CIF has been generated from an entry in the Cambridge 
# Structural Database, then it will include bibliographic, chemical, 
# crystal, experimental, refinement or atomic coordinate data resulting 
# from the CCDC's data processing and validation procedures.
#
#######################################################################

data_IREYEK
_symmetry_cell_setting           monoclinic
_symmetry_space_group_name_H-M   'P 21/a'
_symmetry_Int_Tables_number      14
_space_group_name_Hall           '-P 2yab'
loop_
_symmetry_equiv_pos_site_id
_symmetry_equiv_pos_as_xyz
1 x,y,z
2 1/2-x,1/2+y,-z
3 -x,-y,-z
4 1/2+x,1/2-y,z
_cell_length_a                   14.3505(4)
_cell_length_b                   16.8848(4)
_cell_length_c                   25.1038(11)
_cell_angle_alpha                90
_cell_angle_beta                 103.418(3)
_cell_angle_gamma                90
_cell_volume                     5916.74
loop_
_atom_site_label
_atom_site_type_symbol
_atom_site_fract_x
_atom_site_fract_y
_atom_site_fract_z
C1 C 1.0602(5) 0.7128(3) 0.2585(3)
H1 H 1.0395 0.6984 0.2219
C2 C 1.0620(6) 0.7919(4) 0.2722(3)
H2 H 1.0417 0.8303 0.2454
C3 C 1.0944(6) 0.8129(4) 0.3264(4)
H3 H 1.0966 0.8658 0.3368
C4 C 1.1231(5) 0.7553(4) 0.3643(3)
H4 H 1.1452 0.7686 0.4010
C5 C 1.1196(4) 0.6761(3) 0.3482(3)
C6 C 1.1504(5) 0.6117(4) 0.3901(3)
H5 H 1.2158 0.6213 0.4101
H6 H 1.1097 0.6126 0.4160
C7 C 1.1658(4) 0.4732(4) 0.3948(2)
H7 H 1.1836 0.4832 0.4322
C8 C 1.1658(4) 0.3910(3) 0.3783(2)
C9 C 1.1844(5) 0.3354(4) 0.4204(3)
H8 H 1.1942 0.3534 0.4563
C10 C 1.1890(6) 0.2556(4) 0.4118(3)
C11 C 1.2102(9) 0.1979(6) 0.4588(4)
H9 H 1.2126 0.1451 0.4448
H10 H 1.1607 0.2009 0.4786
H11 H 1.2707 0.2107 0.4827
C12 C 1.1766(5) 0.2303(4) 0.3587(3)
H12 H 1.1792 0.1764 0.3518
C13 C 1.1600(4) 0.2834(3) 0.3141(3)
C14 C 1.1525(4) 0.3652(3) 0.3240(2)
C15 C 1.1566(5) 0.2484(3) 0.2607(3)
H13 H 1.1572 0.1933 0.2591
C16 C 1.1607(6) 0.2407(4) 0.1672(3)
H14 H 1.1264 0.1910 0.1658
H15 H 1.2275 0.2287 0.1692
C17 C 1.1206(5) 0.2871(4) 0.1162(3)
C18 C 1.1093(7) 0.2524(6) 0.0658(4)
H16 H 1.1256 0.1996 0.0626
C19 C 1.0734(8) 0.2974(6) 0.0198(4)
H17 H 1.0656 0.2751 -0.0149
C20 C 1.0493(7) 0.3740(6) 0.0251(4)
H18 H 1.0238 0.4045 -0.0057
C21 C 1.0632(6) 0.4063(5) 0.0770(3)
H19 H 1.0466 0.4589 0.0809
C22 C 0.2381(6) 0.5266(5) 0.0749(3)
H20 H 0.2503 0.4744 0.0862
C23 C 0.2296(8) 0.5445(7) 0.0197(4)
H21 H 0.2367 0.5058 -0.0054
C24 C 0.2105(8) 0.6217(7) 0.0041(4)
H22 H 0.2024 0.6359 -0.0325
C25 C 0.2032(7) 0.6778(6) 0.0420(4)
H23 H 0.1917 0.7304 0.0314
C26 C 0.2129(5) 0.6563(4) 0.0964(3)
C27 C 0.2029(6) 0.7139(4) 0.1387(3)
H24 H 0.2370 0.7621 0.1341
H25 H 0.1358 0.7271 0.1343
C28 C 0.2782(5) 0.7292(4) 0.2331(3)
H26 H 0.2789 0.7829 0.2250
C29 C 0.3191(4) 0.7065(3) 0.2885(3)
C30 C 0.3431(5) 0.7687(4) 0.3265(4)
H27 H 0.3316 0.8205 0.3140
C31 C 0.3830(5) 0.7565(4) 0.3813(4)
C32 C 0.4053(8) 0.8250(6) 0.4205(5)
H28 H 0.3895 0.8737 0.4008
H29 H 0.4723 0.8246 0.4381
H30 H 0.3683 0.8203 0.4477
C33 C 0.3994(5) 0.6795(5) 0.3982(3)
H31 H 0.4257 0.6699 0.4352
C34 C 0.3787(5) 0.6150(4) 0.3629(3)
C35 C 0.3352(4) 0.6278(3) 0.3060(3)
C36 C 0.4006(4) 0.5368(4) 0.3876(3)
H32 H 0.4237 0.5355 0.4253
C37 C 0.4207(5) 0.3999(4) 0.3959(3)
H33 H 0.3807 0.3940 0.4219
H34 H 0.4864 0.4061 0.4165
C38 C 0.4130(4) 0.3272(4) 0.3616(3)
C39 C 0.4272(6) 0.2520(5) 0.3851(3)
H35 H 0.4386 0.2459 0.4228
C40 C 0.4240(6) 0.1868(4) 0.3518(4)
H36 H 0.4325 0.1363 0.3668
C41 C 0.4084(6) 0.1972(4) 0.2968(4)
H37 H 0.4072 0.1539 0.2738
C42 C 0.3943(5) 0.2722(4) 0.2756(3)
H38 H 0.3837 0.2790 0.2379
C43 C 0.8620(4) 0.5099(4) 0.2780(3)
C44 C 0.5819(4) 0.4829(4) 0.2685(3)
Au1 Au 0.722024(17) 0.496863(14) 0.273232(12)
N1 N 1.0877(3) 0.6553(3) 0.2966(2)
N2 N 1.1441(3) 0.5338(3) 0.36358(19)
N3 N 1.1529(4) 0.2847(3) 0.2165(2)
N4 N 1.1003(4) 0.3632(3) 0.1221(2)
N5 N 0.2296(4) 0.5802(3) 0.1118(2)
N6 N 0.2406(4) 0.6825(3) 0.1934(3)
N7 N 0.3915(4) 0.4702(3) 0.3629(2)
N8 N 0.3953(3) 0.3362(3) 0.3076(2)
N9 N 0.9388(4) 0.5156(3) 0.2794(3)
N10 N 0.5046(4) 0.4756(3) 0.2657(2)
O1 O 1.1344(3) 0.4176(2) 0.28320(16)
O2 O 1.1061(2) 0.5260(2) 0.20604(15)
H47 H 1.0522 0.5449 0.1773
O3 O 0.9600(4) 0.3904(4) 0.1866(2)
O4 O 0.3145(3) 0.5671(2) 0.27344(17)
O6 O 0.2755(2) 0.4445(2) 0.20840(15)
H48 H 0.3033 0.4229 0.1793
Zn1 Zn 1.08112(4) 0.53225(4) 0.28188(3)
Zn2 Zn 1.12957(5) 0.40373(4) 0.20222(3)
Zn3 Zn 0.23535(5) 0.56113(4) 0.19481(3)
Zn4 Zn 0.37235(4) 0.45394(4) 0.27997(3)
O2_2 O 0.1061(2) 0.5260(2) 0.20604(15)
H47_2 H 0.0522 0.5449 0.1773
O6_2 O 1.2755(2) 0.4445(2) 0.20840(15)
H48_2 H 1.3033 0.4229 0.1793
Zn2_2 Zn 0.12957(5) 0.40373(4) 0.20222(3)
Zn3_2 Zn 1.23535(5) 0.56113(4) 0.19481(3)
C45 C 0.9685(19) 0.896(3) 0.1194(15)
H39 H 0.9445 0.9490 0.1234
H40 H 0.9253 0.8556 0.1266
C46 C 1.004(2) 0.883(2) 0.0677(13)
H41 H 0.9521 0.8863 0.0354
H42 H 1.0356 0.8324 0.0684
C47 C 1.075(2) 0.950(2) 0.0681(10)
H43 H 1.1248 0.9366 0.0492
H44 H 1.0442 0.9993 0.0535
C48 C 1.113(2) 0.9532(17) 0.1297(10)
H45 H 1.1819 0.9492 0.1400
H46 H 1.0927 1.0012 0.1452
O19 O 1.0675(19) 0.8841(14) 0.1460(9)
Cl1 Cl 1.66526(14) 0.53416(12) 0.45408(8)
O7 O 1.6218(6) 0.5078(5) 0.4014(3)
O8 O 1.7643(6) 0.5323(8) 0.4639(4)
O9 O 1.6385(9) 0.4856(5) 0.4928(4)
O10 O 1.6376(9) 0.6118(5) 0.4630(4)
Cl2 Cl 0.88959(16) 0.18298(14) 0.10853(10)
O11 O 0.9679(10) 0.1544(14) 0.1402(13)
O12 O 0.8879(9) 0.2639(6) 0.1100(5)
O13 O 0.8160(6) 0.1500(5) 0.1276(4)
O14 O 0.889(2) 0.1640(10) 0.0588(6)
Cl3 Cl 0.88806(17) 0.60254(16) 0.11937(9)
O15 O 0.9859(5) 0.6039(6) 0.1158(3)
O16 O 0.8766(7) 0.6262(7) 0.1692(3)
O17 O 0.8247(5) 0.6320(6) 0.0745(3)
O18 O 0.8639(11) 0.5138(6) 0.1188(7)
O5 O 1.5346(16) 0.9518(10) 0.5233(5)
loop_
_geom_bond_atom_site_label_1
_geom_bond_atom_site_label_2
_geom_bond_site_symmetry_1
_geom_bond_site_symmetry_2
C1 H1 1_555 1_555
C2 C1 1_555 1_555
H2 C2 1_555 1_555
C3 C2 1_555 1_555
H3 C3 1_555 1_555
C4 C3 1_555 1_555
H4 C4 1_555 1_555
C5 C4 1_555 1_555
C6 C5 1_555 1_555
H5 C6 1_555 1_555
H6 C6 1_555 1_555
C7 H7 1_555 1_555
C8 C7 1_555 1_555
C9 C8 1_555 1_555
H8 C9 1_555 1_555
C10 C9 1_555 1_555
C11 C10 1_555 1_555
H9 C11 1_555 1_555
H10 C11 1_555 1_555
H11 C11 1_555 1_555
C12 C10 1_555 1_555
H12 C12 1_555 1_555
C13 C12 1_555 1_555
C14 C8 1_555 1_555
C15 C13 1_555 1_555
H13 C15 1_555 1_555
C16 H14 1_555 1_555
H15 C16 1_555 1_555
C17 C16 1_555 1_555
C18 C17 1_555 1_555
H16 C18 1_555 1_555
C19 C18 1_555 1_555
H17 C19 1_555 1_555
C20 C19 1_555 1_555
H18 C20 1_555 1_555
C21 C20 1_555 1_555
H19 C21 1_555 1_555
C22 H20 1_555 1_555
C23 C22 1_555 1_555
H21 C23 1_555 1_555
C24 C23 1_555 1_555
H22 C24 1_555 1_555
C25 C24 1_555 1_555
H23 C25 1_555 1_555
C26 C25 1_555 1_555
C27 C26 1_555 1_555
H24 C27 1_555 1_555
H25 C27 1_555 1_555
C28 H26 1_555 1_555
C29 C28 1_555 1_555
C30 C29 1_555 1_555
H27 C30 1_555 1_555
C31 C30 1_555 1_555
C32 C31 1_555 1_555
H28 C32 1_555 1_555
H29 C32 1_555 1_555
H30 C32 1_555 1_555
C33 C31 1_555 1_555
H31 C33 1_555 1_555
C34 C33 1_555 1_555
C35 C29 1_555 1_555
C36 C34 1_555 1_555
H32 C36 1_555 1_555
C37 H33 1_555 1_555
H34 C37 1_555 1_555
C38 C37 1_555 1_555
C39 C38 1_555 1_555
H35 C39 1_555 1_555
C40 C39 1_555 1_555
H36 C40 1_555 1_555
C41 C40 1_555 1_555
H37 C41 1_555 1_555
C42 C41 1_555 1_555
H38 C42 1_555 1_555
C43 Au1 1_555 1_555
C44 Au1 1_555 1_555
C45 H39 1_555 1_555
H40 C45 1_555 1_555
C46 C45 1_555 1_555
H41 C46 1_555 1_555
H42 C46 1_555 1_555
C47 C46 1_555 1_555
H43 C47 1_555 1_555
H44 C47 1_555 1_555
C48 C47 1_555 1_555
H45 C48 1_555 1_555
H46 C48 1_555 1_555
Cl1 O7 1_555 1_555
Cl2 O11 1_555 1_555
Cl3 O15 1_555 1_555
N1 C1 1_555 1_555
N2 C6 1_555 1_555
N3 C15 1_555 1_555
N4 C17 1_555 1_555
N5 C22 1_555 1_555
N6 C27 1_555 1_555
N7 C36 1_555 1_555
N8 C38 1_555 1_555
N9 C43 1_555 1_555
N10 C44 1_555 1_555
O1 C14 1_555 1_555
O2 H47 1_555 1_555
O3 Zn2 1_555 1_555
O4 C35 1_555 1_555
O6 H48 1_555 1_555
O8 Cl1 1_555 1_555
O9 Cl1 1_555 1_555
O10 Cl1 1_555 1_555
O12 Cl2 1_555 1_555
O13 Cl2 1_555 1_555
O14 Cl2 1_555 1_555
O16 Cl3 1_555 1_555
O17 Cl3 1_555 1_555
O18 Cl3 1_555 1_555
O19 C45 1_555 1_555
Zn1 N1 1_555 1_555
Zn2 N3 1_555 1_555
Zn3 N5 1_555 1_555
Zn4 N7 1_555 1_555
O2_2 Zn3 1_555 1_555
H47_2 O2_2 1_555 1_555
O6_2 Zn2 1_555 1_555
H48_2 O6_2 1_555 1_555
Zn2_2 O6 1_555 1_555
Zn3_2 O2 1_555 1_555
C5 N1 1_555 1_555
C7 N2 1_555 1_555
C13 C14 1_555 1_555
C16 N3 1_555 1_555
C21 N4 1_555 1_555
C26 N5 1_555 1_555
C28 N6 1_555 1_555
C34 C35 1_555 1_555
C37 N7 1_555 1_555
C42 N8 1_555 1_555
C48 O19 1_555 1_555
N2 Zn1 1_555 1_555
N4 Zn2 1_555 1_555
N6 Zn3 1_555 1_555
N8 Zn4 1_555 1_555
N9 Zn1 1_555 1_555
N10 Zn4 1_555 1_555
O1 Zn1 1_555 1_555
O1 Zn2 1_555 1_555
O2 Zn1 1_555 1_555
O2 Zn2 1_555 1_555
O4 Zn3 1_555 1_555
O4 Zn4 1_555 1_555
O6 Zn3 1_555 1_555
O6 Zn4 1_555 1_555
O2_2 Zn2_2 1_555 1_555
O6_2 Zn3_2 1_555 1_555

#END
