
#######################################################################
#
#                 Cambridge Crystallographic Data Centre
#                                CCDC 
#
#######################################################################
#
# If this CIF has been generated from an entry in the Cambridge 
# Structural Database, then it will include bibliographic, chemical, 
# crystal, experimental, refinement or atomic coordinate data resulting 
# from the CCDC's data processing and validation procedures.
#
#######################################################################

data_IRIHIA
_symmetry_cell_setting           triclinic
_symmetry_space_group_name_H-M   'P -1'
_symmetry_Int_Tables_number      2
_space_group_name_Hall           '-P 1'
loop_
_symmetry_equiv_pos_site_id
_symmetry_equiv_pos_as_xyz
1 x,y,z
2 -x,-y,-z
_cell_length_a                   7.9297(7)
_cell_length_b                   9.5883(9)
_cell_length_c                   11.8366(11)
_cell_angle_alpha                103.555(2)
_cell_angle_beta                 105.811(2)
_cell_angle_gamma                104.280(2)
_cell_volume                     794.055
loop_
_atom_site_label
_atom_site_type_symbol
_atom_site_fract_x
_atom_site_fract_y
_atom_site_fract_z
Mn1 Mn 0.18508(5) 0.07181(4) 0.45432(3)
N1 N 0.2018(3) 0.3472(2) 0.47420(19)
N2 N 0.2464(3) 0.3927(2) 0.39083(19)
N3 N 0.2029(3) 0.1290(2) 0.2857(2)
N4 N 0.2741(3) 0.3008(3) 0.1943(2)
N5 N 0.4780(3) 0.1930(3) 0.5740(2)
N6 N 0.6130(3) 0.1615(2) 0.5957(2)
N7 N 0.7525(4) 0.1364(3) 0.6201(3)
N8 N 0.1202(3) 0.0404(3) 0.6193(2)
N9 N 0.2207(4) 0.0974(3) 0.7252(2)
N10 N 0.3158(5) 0.1523(4) 0.8270(3)
C1 C 0.2091(3) 0.4651(3) 0.5757(2)
C2 C 0.2845(4) 0.6197(3) 0.5923(3)
H1 H 0.3311 0.6504 0.5348
C3 C 0.2888(4) 0.7264(3) 0.6955(3)
H2 H 0.3368 0.8293 0.7059
C4 C 0.2234(4) 0.6838(3) 0.7834(3)
C5 C 0.1444(4) 0.5292(3) 0.7635(3)
H3 H 0.0959 0.4987 0.8204
C6 C 0.1368(4) 0.4198(3) 0.6600(2)
H4 H 0.0834 0.3170 0.6476
C7 C 0.2376(5) 0.8022(4) 0.8989(3)
H5 H 0.2947 0.9020 0.8970
H6 H 0.3115 0.7873 0.9711
H7 H 0.1155 0.7926 0.9016
C8 C 0.2401(4) 0.2744(3) 0.2946(2)
C9 C 0.2554(5) 0.1634(4) 0.1174(3)
H8 H 0.2699 0.1443 0.0404
C10 C 0.2115(4) 0.0592(3) 0.1748(3)
H9 H 0.1906 -0.0443 0.1427
C11 C 0.3393(6) 0.4510(4) 0.1787(3)
H10 H 0.3157 0.5244 0.2389
H11 H 0.4729 0.4801 0.1993
C12 C 0.2639(11) 0.4626(7) 0.0651(5)
H12 H 0.3187 0.5642 0.0660
H13 H 0.1323 0.4399 0.0449
H14 H 0.2875 0.3920 0.0041
N7A N 0.2475(4) -0.1364(3) 0.3799(3)
N8A N -0.1202(3) -0.0404(3) 0.3807(2)
Mn1A Mn 0.81492(5) -0.07181(4) 0.54568(3)
Mn1A_2 Mn -0.18508(5) -0.07181(4) 0.54568(3)
loop_
_geom_bond_atom_site_label_1
_geom_bond_atom_site_label_2
_geom_bond_site_symmetry_1
_geom_bond_site_symmetry_2
Mn1 N1 1_555 1_555
N1 N2 1_555 1_555
N2 C8 1_555 1_555
N3 Mn1 1_555 1_555
N4 C8 1_555 1_555
N5 Mn1 1_555 1_555
N6 N5 1_555 1_555
N7 N6 1_555 1_555
N8 Mn1 1_555 1_555
N9 N8 1_555 1_555
N10 N9 1_555 1_555
C1 N1 1_555 1_555
C2 C1 1_555 1_555
H1 C2 1_555 1_555
C3 C2 1_555 1_555
H2 C3 1_555 1_555
C4 C3 1_555 1_555
C5 C4 1_555 1_555
H3 C5 1_555 1_555
C6 C1 1_555 1_555
H4 C6 1_555 1_555
C7 C4 1_555 1_555
H5 C7 1_555 1_555
H6 C7 1_555 1_555
H7 C7 1_555 1_555
C8 N3 1_555 1_555
C9 N4 1_555 1_555
H8 C9 1_555 1_555
C10 N3 1_555 1_555
H9 C10 1_555 1_555
C11 N4 1_555 1_555
H10 C11 1_555 1_555
H11 C11 1_555 1_555
C12 C11 1_555 1_555
H12 C12 1_555 1_555
H13 C12 1_555 1_555
H14 C12 1_555 1_555
N7A Mn1 1_555 1_555
N8A Mn1 1_555 1_555
Mn1A N7 1_555 1_555
Mn1A_2 N8 1_555 1_555
C5 C6 1_555 1_555
C9 C10 1_555 1_555
N8A Mn1A_2 1_555 1_555

#END
