
#######################################################################
#
#                 Cambridge Crystallographic Data Centre
#                                CCDC 
#
#######################################################################
#
# If this CIF has been generated from an entry in the Cambridge 
# Structural Database, then it will include bibliographic, chemical, 
# crystal, experimental, refinement or atomic coordinate data resulting 
# from the CCDC's data processing and validation procedures.
#
#######################################################################

data_IRIMIG
_symmetry_cell_setting           monoclinic
_symmetry_space_group_name_H-M   'C 2/c'
_symmetry_Int_Tables_number      15
_space_group_name_Hall           '-C 2yn'
loop_
_symmetry_equiv_pos_site_id
_symmetry_equiv_pos_as_xyz
1 x,y,z
2 1/2+x,1/2+y,z
3 -x,y,1/2-z
4 1/2-x,1/2+y,1/2-z
5 -x,-y,-z
6 1/2-x,1/2-y,-z
7 x,-y,1/2+z
8 1/2+x,1/2-y,1/2+z
_cell_length_a                   25.434(5)
_cell_length_b                   18.702(5)
_cell_length_c                   19.865(5)
_cell_angle_alpha                90
_cell_angle_beta                 112.203(5)
_cell_angle_gamma                90
_cell_volume                     8748.47
loop_
_atom_site_label
_atom_site_type_symbol
_atom_site_fract_x
_atom_site_fract_y
_atom_site_fract_z
W1 W 0.326732(15) 0.45014(2) 0.32516(2)
Fe1 Fe 0.26570(7) 0.18461(8) 0.31180(8)
Fe2 Fe 0.5000 0.41935(11) 0.2500
C1 C 0.3131(5) 0.3413(6) 0.3411(5)
C2 C 0.3884(4) 0.4286(5) 0.2801(5)
C3 C 0.2918(5) 0.5400(6) 0.2618(5)
C4 C 0.3863(4) 0.5377(5) 0.3574(6)
C5 C 0.3989(4) 0.4119(6) 0.4166(6)
C6 C 0.2855(4) 0.4077(5) 0.2169(5)
C7 C 0.2372(4) 0.4401(7) 0.3030(6)
C8 C 0.3124(4) 0.4955(5) 0.4163(6)
C9 C 0.1685(5) 0.2219(7) 0.3611(7)
C10 C 0.1388(6) 0.2257(9) 0.4083(8)
C11 C 0.1603(8) 0.1946(10) 0.4740(9)
C12 C 0.2109(8) 0.1637(9) 0.4961(8)
C13 C 0.2405(6) 0.1606(6) 0.4491(6)
C14 C 0.2976(8) 0.1267(7) 0.4674(7)
C15 C 0.3248(7) 0.0854(10) 0.5358(9)
C16 C 0.3726(9) 0.1062(11) 0.4251(12)
C17 C 0.3886(10) 0.1410(14) 0.3689(13)
C18 C 0.3534(9) 0.1692(13) 0.2395(12)
C19 C 0.2973(10) 0.1743(12) 0.1768(11)
C20 C 0.1993(7) 0.2146(8) 0.1440(6)
C21 C 0.1664(7) 0.2581(8) 0.1778(7)
C22 C 0.1483(6) 0.2495(8) 0.2866(8)
C23 C 0.0928(6) 0.2865(10) 0.2552(10)
C24 C 0.500000(7) 0.1551(14) 0.250000(7)
C25 C 0.4789(6) 0.1938(8) 0.1849(10)
C26 C 0.4790(5) 0.2675(7) 0.1855(7)
C27 C 0.4579(5) 0.3134(8) 0.1214(7)
C28 C 0.4340(8) 0.2826(12) 0.0462(8)
C29 C 0.4400(5) 0.4360(9) 0.0783(6)
C30 C 0.4281(6) 0.5019(8) 0.1107(7)
C31 C 0.4750(6) 0.5801(8) 0.2151(8)
N1 N 0.3036(5) 0.2806(5) 0.3442(5)
N2 N 0.4229(3) 0.4199(5) 0.2575(4)
N3 N 0.2716(5) 0.5891(6) 0.2255(5)
N4 N 0.4176(5) 0.5842(6) 0.3714(8)
N5 N 0.4363(5) 0.3849(6) 0.4630(6)
N6 N 0.2632(5) 0.3843(5) 0.1591(5)
N7 N 0.1898(4) 0.4375(9) 0.2959(7)
N8 N 0.3036(4) 0.5220(6) 0.4633(5)
N9 N 0.2194(5) 0.1910(5) 0.3846(5)
N10 N 0.3174(5) 0.1355(6) 0.4186(6)
N11 N 0.3441(6) 0.1391(8) 0.3014(8)
N12 N 0.2581(6) 0.2150(6) 0.1985(6)
N13 N 0.1817(5) 0.2378(6) 0.2535(5)
N14 N 0.5000 0.3048(7) 0.2500
N15 N 0.4604(3) 0.3805(6) 0.1355(5)
N16 N 0.4780(4) 0.5154(5) 0.1768(5)
H1 H 0.1040 0.2497 0.3939
H2 H 0.1400 0.1946 0.5043
H3 H 0.2268 0.1438 0.5424
H4 H 0.3593 0.0645 0.5362
H5 H 0.3333 0.1167 0.5766
H6 H 0.2996 0.0485 0.5386
H7 H 0.4006 0.1171 0.4729
H8 H 0.3702 0.0548 0.4182
H9 H 0.3696 0.2166 0.2525
H10 H 0.3793 0.1395 0.2265
H11 H 0.3026 0.1975 0.1361
H12 H 0.2823 0.1265 0.1628
H13 H 0.1974 0.2361 0.0988
H14 H 0.1848 0.1661 0.1343
H15 H 0.1756 0.3079 0.1758
H16 H 0.1259 0.2509 0.1510
H17 H 0.0815 0.2893 0.2034
H18 H 0.0964 0.3337 0.2754
H19 H 0.0647 0.2601 0.2663
H20 H 0.5000 0.1054 0.2500
H21 H 0.4641 0.1695 0.1407
H22 H 0.4221 0.3201 0.0107
H23 H 0.4626 0.2545 0.0382
H24 H 0.4020 0.2528 0.0413
H25 H 0.4690 0.4459 0.0589
H26 H 0.4055 0.4198 0.0395
H27 H 0.4213 0.5417 0.0769
H28 H 0.3947 0.4952 0.1227
H29 H 0.4757 0.6221 0.1868
H30 H 0.4400 0.5800 0.2239
H31 H 0.5059 0.5211 0.1630
H32 H 0.2694 0.2587 0.2015
H33 H 0.3373 0.0945 0.2917
H34 H 0.3977 0.1887 0.3807
H35 H 0.4200 0.1174 0.3663
W1B W 0.673268(15) 0.45014(2) 0.17484(2)
Fe1B Fe 0.73430(7) 0.18461(8) 0.18820(8)
Fe1C Fe 0.23430(7) 0.68461(8) 0.18820(8)
Fe1A Fe 0.76570(7) 0.68461(8) 0.31180(8)
C1B C 0.6869(5) 0.3413(6) 0.1589(5)
C2B C 0.6116(4) 0.4286(5) 0.2199(5)
C3B C 0.7082(5) 0.5400(6) 0.2382(5)
C4B C 0.6137(4) 0.5377(5) 0.1426(6)
C5B C 0.6011(4) 0.4119(6) 0.0834(6)
C6B C 0.7145(4) 0.4077(5) 0.2831(5)
C7B C 0.7628(4) 0.4401(7) 0.1970(6)
C8B C 0.6876(4) 0.4955(5) 0.0837(6)
C9B C 0.8315(5) 0.2219(7) 0.1389(7)
C10B C 0.8612(6) 0.2257(9) 0.0917(8)
C11B C 0.8397(8) 0.1946(10) 0.0260(9)
C12B C 0.7891(8) 0.1637(9) 0.0039(8)
C13B C 0.7595(6) 0.1606(6) 0.0509(6)
C14B C 0.7024(8) 0.1267(7) 0.0326(7)
C15B C 0.6752(7) 0.0854(10) -0.0358(9)
C16B C 0.6274(9) 0.1062(11) 0.0749(12)
C17B C 0.6114(10) 0.1410(14) 0.1311(13)
C18B C 0.6466(9) 0.1692(13) 0.2605(12)
C19B C 0.7027(10) 0.1743(12) 0.3232(11)
C20B C 0.8007(7) 0.2146(8) 0.3560(6)
C21B C 0.8336(7) 0.2581(8) 0.3222(7)
C22B C 0.8517(6) 0.2495(8) 0.2134(8)
C23B C 0.9072(6) 0.2865(10) 0.2448(10)
C25B C 0.5211(6) 0.1938(8) 0.3151(10)
C26B C 0.5210(5) 0.2675(7) 0.3145(7)
C27B C 0.5421(5) 0.3134(8) 0.3786(7)
C28B C 0.5660(8) 0.2826(12) 0.4538(8)
C29B C 0.5600(5) 0.4360(9) 0.4217(6)
C30B C 0.5719(6) 0.5019(8) 0.3893(7)
C31B C 0.5250(6) 0.5801(8) 0.2849(8)
N1B N 0.6964(5) 0.2806(5) 0.1558(5)
N2B N 0.5771(3) 0.4199(5) 0.2425(4)
N3B N 0.7284(5) 0.5891(6) 0.2745(5)
N3C N 0.2284(5) 0.0891(6) 0.2745(5)
N3A N 0.7716(5) 0.0891(6) 0.2255(5)
N4B N 0.5824(5) 0.5842(6) 0.1286(8)
N5B N 0.5637(5) 0.3849(6) 0.0370(6)
N6B N 0.7368(5) 0.3843(5) 0.3409(5)
N7B N 0.8102(4) 0.4375(9) 0.2041(7)
N8B N 0.6964(4) 0.5220(6) 0.0367(5)
N9B N 0.7806(5) 0.1910(5) 0.1154(5)
N10B N 0.6826(5) 0.1355(6) 0.0814(6)
N11B N 0.6559(6) 0.1391(8) 0.1986(8)
N12B N 0.7419(6) 0.2150(6) 0.3015(6)
N13B N 0.8183(5) 0.2378(6) 0.2465(5)
N15B N 0.5396(3) 0.3805(6) 0.3645(5)
N16B N 0.5220(4) 0.5154(5) 0.3232(5)
H1B H 0.8960 0.2497 0.1061
H2B H 0.8600 0.1946 -0.0043
H3B H 0.7732 0.1438 -0.0424
H4B H 0.6407 0.0645 -0.0362
H5B H 0.6667 0.1167 -0.0766
H6B H 0.7004 0.0485 -0.0386
H7B H 0.5994 0.1171 0.0271
H8B H 0.6298 0.0548 0.0818
H9B H 0.6304 0.2166 0.2475
H10B H 0.6207 0.1395 0.2735
H11B H 0.6974 0.1975 0.3639
H12B H 0.7177 0.1265 0.3372
H13B H 0.8026 0.2361 0.4012
H14B H 0.8152 0.1661 0.3657
H15B H 0.8244 0.3079 0.3242
H16B H 0.8741 0.2509 0.3490
H17B H 0.9185 0.2893 0.2966
H18B H 0.9036 0.3337 0.2246
H19B H 0.9353 0.2601 0.2337
H21B H 0.5359 0.1695 0.3593
H22B H 0.5779 0.3201 0.4893
H23B H 0.5374 0.2545 0.4618
H24B H 0.5980 0.2528 0.4587
H25B H 0.5310 0.4459 0.4411
H26B H 0.5945 0.4198 0.4605
H27B H 0.5787 0.5417 0.4231
H28B H 0.6053 0.4952 0.3773
H29B H 0.5243 0.6221 0.3132
H30B H 0.5600 0.5800 0.2761
H31B H 0.4941 0.5211 0.3370
H32B H 0.7306 0.2587 0.2985
H33B H 0.6627 0.0945 0.2083
H34B H 0.6023 0.1887 0.1193
H35B H 0.5800 0.1174 0.1337
O1 O 0.3703(17) 0.101(2) 0.066(2)
O2 O 0.4045(15) 0.007(2) 0.2017(19)
O3 O 0.4839(16) 0.159(2) 0.584(2)
O4 O 0.5390(18) 0.081(2) 0.473(2)
O5 O 0.2397(9) 0.3811(11) 0.0098(11)
Cl1 Cl 0.5002(4) 0.3043(5) 0.5871(5)
O6? O 0.524(3) 0.057(3) 0.541(3)
O7? O 0.2996(19) 0.353(3) 0.040(2)
loop_
_geom_bond_atom_site_label_1
_geom_bond_atom_site_label_2
_geom_bond_site_symmetry_1
_geom_bond_site_symmetry_2
W1 C1 1_555 1_555
Fe1 N1 1_555 1_555
Fe2 N2 1_555 1_555
C1 N1 1_555 1_555
C2 W1 1_555 1_555
C3 W1 1_555 1_555
C4 W1 1_555 1_555
C5 W1 1_555 1_555
C6 W1 1_555 1_555
C7 W1 1_555 1_555
C8 W1 1_555 1_555
C9 C10 1_555 1_555
C10 C11 1_555 1_555
C11 C12 1_555 1_555
C12 C13 1_555 1_555
C13 C14 1_555 1_555
C14 C15 1_555 1_555
C15 H4 1_555 1_555
C16 C17 1_555 1_555
C17 N11 1_555 1_555
C18 C19 1_555 1_555
C19 N12 1_555 1_555
C20 C21 1_555 1_555
C21 N13 1_555 1_555
C22 C9 1_555 1_555
C23 C22 1_555 1_555
C24 C25 1_555 1_555
C25 C26 1_555 1_555
C26 C27 1_555 1_555
C27 C28 1_555 1_555
C28 H22 1_555 1_555
C29 C30 1_555 1_555
C30 N16 1_555 1_555
C31 N16 1_555 1_555
N2 C2 1_555 1_555
N3 C3 1_555 1_555
N4 C4 1_555 1_555
N5 C5 1_555 1_555
N6 C6 1_555 1_555
N7 C7 1_555 1_555
N8 C8 1_555 1_555
N9 Fe1 1_555 1_555
N10 Fe1 1_555 1_555
N11 Fe1 1_555 1_555
N12 Fe1 1_555 1_555
N13 Fe1 1_555 1_555
N14 Fe2 1_555 1_555
N15 Fe2 1_555 1_555
N16 Fe2 1_555 1_555
H1 C10 1_555 1_555
H2 C11 1_555 1_555
H3 C12 1_555 1_555
H5 C15 1_555 1_555
H6 C15 1_555 1_555
H7 C16 1_555 1_555
H8 C16 1_555 1_555
H9 C18 1_555 1_555
H10 C18 1_555 1_555
H11 C19 1_555 1_555
H12 C19 1_555 1_555
H13 C20 1_555 1_555
H14 C20 1_555 1_555
H15 C21 1_555 1_555
H16 C21 1_555 1_555
H17 C23 1_555 1_555
H18 C23 1_555 1_555
H19 C23 1_555 1_555
H20 C24 1_555 1_555
H21 C25 1_555 1_555
H23 C28 1_555 1_555
H24 C28 1_555 1_555
H25 C29 1_555 1_555
H26 C29 1_555 1_555
H27 C30 1_555 1_555
H28 C30 1_555 1_555
H29 C31 1_555 1_555
H30 C31 1_555 1_555
H31 N16 1_555 1_555
H32 N12 1_555 1_555
H33 N11 1_555 1_555
H34 C17 1_555 1_555
H35 C17 1_555 1_555
W1B C1B 1_555 1_555
Fe1B N1B 1_555 1_555
Fe1C N3 1_555 1_555
Fe1A N3B 1_555 1_555
C1B N1B 1_555 1_555
C2B W1B 1_555 1_555
C3B W1B 1_555 1_555
C4B W1B 1_555 1_555
C5B W1B 1_555 1_555
C6B W1B 1_555 1_555
C7B W1B 1_555 1_555
C8B W1B 1_555 1_555
C9B C10B 1_555 1_555
C10B C11B 1_555 1_555
C11B C12B 1_555 1_555
C12B C13B 1_555 1_555
C13B C14B 1_555 1_555
C14B C15B 1_555 1_555
C15B H4B 1_555 1_555
C16B C17B 1_555 1_555
C17B N11B 1_555 1_555
C18B C19B 1_555 1_555
C19B N12B 1_555 1_555
C20B C21B 1_555 1_555
C21B N13B 1_555 1_555
C22B C9B 1_555 1_555
C23B C22B 1_555 1_555
C25B C24 1_555 1_555
C26B N14 1_555 1_555
C27B C26B 1_555 1_555
C28B C27B 1_555 1_555
C29B C30B 1_555 1_555
C30B N16B 1_555 1_555
C31B C31 1_555 1_555
N2B Fe2 1_555 1_555
N3B C3B 1_555 1_555
N3C Fe1 1_555 1_555
N3A Fe1B 1_555 1_555
N4B C4B 1_555 1_555
N5B C5B 1_555 1_555
N6B C6B 1_555 1_555
N7B C7B 1_555 1_555
N8B C8B 1_555 1_555
N9B Fe1B 1_555 1_555
N10B Fe1B 1_555 1_555
N11B Fe1B 1_555 1_555
N12B Fe1B 1_555 1_555
N13B Fe1B 1_555 1_555
N15B Fe2 1_555 1_555
N16B Fe2 1_555 1_555
H1B C10B 1_555 1_555
H2B C11B 1_555 1_555
H3B C12B 1_555 1_555
H5B C15B 1_555 1_555
H6B C15B 1_555 1_555
H7B C16B 1_555 1_555
H8B C16B 1_555 1_555
H9B C18B 1_555 1_555
H10B C18B 1_555 1_555
H11B C19B 1_555 1_555
H12B C19B 1_555 1_555
H13B C20B 1_555 1_555
H14B C20B 1_555 1_555
H15B C21B 1_555 1_555
H16B C21B 1_555 1_555
H17B C23B 1_555 1_555
H18B C23B 1_555 1_555
H19B C23B 1_555 1_555
H21B C25B 1_555 1_555
H22B C28B 1_555 1_555
H23B C28B 1_555 1_555
H24B C28B 1_555 1_555
H25B C29B 1_555 1_555
H26B C29B 1_555 1_555
H27B C30B 1_555 1_555
H28B C30B 1_555 1_555
H29B C31B 1_555 1_555
H30B C31B 1_555 1_555
H31B N16B 1_555 1_555
H32B N12B 1_555 1_555
H33B N11B 1_555 1_555
H34B C17B 1_555 1_555
H35B C17B 1_555 1_555
C9 N9 1_555 1_555
C13 N9 1_555 1_555
C14 N10 1_555 1_555
C16 N10 1_555 1_555
C18 N11 1_555 1_555
C20 N12 1_555 1_555
C22 N13 1_555 1_555
C26 N14 1_555 1_555
C27 N15 1_555 1_555
C29 N15 1_555 1_555
C2B N2B 1_555 1_555
C9B N9B 1_555 1_555
C13B N9B 1_555 1_555
C14B N10B 1_555 1_555
C16B N10B 1_555 1_555
C18B N11B 1_555 1_555
C20B N12B 1_555 1_555
C22B N13B 1_555 1_555
C25B C26B 1_555 1_555
C27B N15B 1_555 1_555
C29B N15B 1_555 1_555
C31B N16B 1_555 1_555

#END
