
#######################################################################
#
#                 Cambridge Crystallographic Data Centre
#                                CCDC 
#
#######################################################################
#
# If this CIF has been generated from an entry in the Cambridge 
# Structural Database, then it will include bibliographic, chemical, 
# crystal, experimental, refinement or atomic coordinate data resulting 
# from the CCDC's data processing and validation procedures.
#
#######################################################################

data_IRIPEF
_symmetry_cell_setting           monoclinic
_symmetry_space_group_name_H-M   'C 2/c'
_symmetry_Int_Tables_number      15
_space_group_name_Hall           '-C 2yn'
loop_
_symmetry_equiv_pos_site_id
_symmetry_equiv_pos_as_xyz
1 x,y,z
2 -x,y,1/2-z
3 1/2+x,1/2+y,z
4 1/2-x,1/2+y,1/2-z
5 -x,-y,-z
6 x,-y,1/2+z
7 1/2-x,1/2-y,-z
8 1/2+x,1/2-y,1/2+z
_cell_length_a                   19.772(5)
_cell_length_b                   8.047(5)
_cell_length_c                   15.202(5)
_cell_angle_alpha                90
_cell_angle_beta                 99.221(5)
_cell_angle_gamma                90
_cell_volume                     2387.46
loop_
_atom_site_label
_atom_site_type_symbol
_atom_site_fract_x
_atom_site_fract_y
_atom_site_fract_z
Ag1 Ag 0.7500 0.7500 0.0000
N1 N 0.7900(3) 0.9335(6) 0.0963(3)
N2 N 0.7571(3) 1.4652(6) 0.1106(3)
N3 N 0.9258(2) 1.6587(6) 0.5459(3)
C1 C 0.9544(3) 1.6040(8) 0.6355(3)
H1 H 0.9670 1.6992 0.6726
H2 H 0.9943 1.5370 0.6332
H3 H 0.9209 1.5398 0.6598
C2 C 0.9036(3) 1.5489(6) 0.4808(3)
C3 C 0.9060(3) 1.3746(6) 0.4978(3)
H4 H 0.9211 1.3352 0.5551
C4 C 0.8862(3) 1.2654(6) 0.4297(4)
H5 H 0.8896 1.1522 0.4419
C5 C 0.8606(3) 1.3160(6) 0.3416(3)
C6 C 0.8574(3) 1.4894(6) 0.3255(3)
H6 H 0.8401 1.5278 0.2686
C7 C 0.8793(3) 1.6020(6) 0.3918(3)
H7 H 0.8782 1.7148 0.3785
C8 C 0.8087(3) 1.2003(6) 0.1899(4)
C9 C 0.8420(3) 1.1898(6) 0.2767(4)
C10 C 0.7812(3) 1.3480(7) 0.1459(4)
C11 C 0.7976(3) 1.0518(7) 0.1387(4)
C12 C 0.9289(3) 1.8360(7) 0.5242(4)
H8 H 0.9453 1.8975 0.5774
H9 H 0.8839 1.8745 0.4993
H10 H 0.9594 1.8518 0.4817
H11 H 0.863(3) 1.077(7) 0.296(4)
Ag1_2 Ag 0.7500 1.7500 0.0000
Ag1_3 Ag 0.7500 -0.2500 0.0000
N1F N 0.7100(3) 0.5665(6) -0.0963(3)
N2F N 0.7429(3) 0.0348(6) -0.1106(3)
N2_2 N 0.7571(3) 0.4652(6) 0.1106(3)
N2F_2 N 0.7429(3) 1.0348(6) -0.1106(3)
N3F N 0.5742(2) -0.1587(6) -0.5459(3)
C1F C 0.5456(3) -0.1040(8) -0.6355(3)
H1F H 0.5330 -0.1992 -0.6726
H2F H 0.5057 -0.0370 -0.6332
H3F H 0.5791 -0.0398 -0.6598
C2F C 0.5964(3) -0.0489(6) -0.4808(3)
C3F C 0.5940(3) 0.1254(6) -0.4978(3)
H4F H 0.5789 0.1648 -0.5551
C4F C 0.6138(3) 0.2346(6) -0.4297(4)
H5F H 0.6104 0.3478 -0.4419
C5F C 0.6394(3) 0.1840(6) -0.3416(3)
C6F C 0.6426(3) 0.0106(6) -0.3255(3)
H6F H 0.6599 -0.0278 -0.2686
C7F C 0.6207(3) -0.1020(6) -0.3918(3)
H7F H 0.6218 -0.2148 -0.3785
C8F C 0.6913(3) 0.2997(6) -0.1899(4)
C9F C 0.6580(3) 0.3102(6) -0.2767(4)
C10F C 0.7188(3) 0.1520(7) -0.1459(4)
C11F C 0.7024(3) 0.4482(7) -0.1387(4)
C12F C 0.5711(3) -0.3360(7) -0.5242(4)
H8F H 0.5547 -0.3975 -0.5774
H9F H 0.6161 -0.3745 -0.4993
H10F H 0.5406 -0.3518 -0.4817
H11F H 0.637(3) 0.423(7) -0.296(4)
B1 B 1.0000 1.8829(11) 0.2500
F1 F 0.9488(5) 1.7964(11) 0.2026(6)
F2 F 1.0270(4) 1.9744(17) 0.1984(8)
F1A F 1.0512(5) 1.7964(11) 0.2974(6)
F2A F 0.9730(4) 1.9744(17) 0.3016(8)
loop_
_geom_bond_atom_site_label_1
_geom_bond_atom_site_label_2
_geom_bond_site_symmetry_1
_geom_bond_site_symmetry_2
Ag1 N1 1_555 1_555
N1 C11 1_555 1_555
N2 C10 1_555 1_555
N3 C1 1_555 1_555
C1 H1 1_555 1_555
H2 C1 1_555 1_555
H3 C1 1_555 1_555
C2 N3 1_555 1_555
C3 C2 1_555 1_555
H4 C3 1_555 1_555
C4 C3 1_555 1_555
H5 C4 1_555 1_555
C5 C4 1_555 1_555
C6 C5 1_555 1_555
H6 C6 1_555 1_555
C7 C2 1_555 1_555
H7 C7 1_555 1_555
C8 C9 1_555 1_555
C9 C5 1_555 1_555
C10 C8 1_555 1_555
C11 C8 1_555 1_555
C12 N3 1_555 1_555
H8 C12 1_555 1_555
H9 C12 1_555 1_555
H10 C12 1_555 1_555
B1 F1 1_555 1_555
F2 B1 1_555 1_555
H11 C9 1_555 1_555
Ag1_2 N2 1_555 1_555
Ag1_3 N2F 1_555 1_555
N1F Ag1 1_555 1_555
N2F C10F 1_555 1_555
N2_2 Ag1 1_555 1_555
N2F_2 Ag1 1_555 1_555
N3F C1F 1_555 1_555
C1F H1F 1_555 1_555
H2F C1F 1_555 1_555
H3F C1F 1_555 1_555
C2F N3F 1_555 1_555
C3F C2F 1_555 1_555
H4F C3F 1_555 1_555
C4F C3F 1_555 1_555
H5F C4F 1_555 1_555
C5F C4F 1_555 1_555
C6F C5F 1_555 1_555
H6F C6F 1_555 1_555
C7F C2F 1_555 1_555
H7F C7F 1_555 1_555
C8F C9F 1_555 1_555
C9F C5F 1_555 1_555
C10F C8F 1_555 1_555
C11F N1F 1_555 1_555
C12F N3F 1_555 1_555
H8F C12F 1_555 1_555
H9F C12F 1_555 1_555
H10F C12F 1_555 1_555
F1A B1 1_555 1_555
F2A B1 1_555 1_555
H11F C9F 1_555 1_555
C6 C7 1_555 1_555
C6F C7F 1_555 1_555
C8F C11F 1_555 1_555

#END
