
#######################################################################
#
#                 Cambridge Crystallographic Data Centre
#                                CCDC 
#
#######################################################################
#
# If this CIF has been generated from an entry in the Cambridge 
# Structural Database, then it will include bibliographic, chemical, 
# crystal, experimental, refinement or atomic coordinate data resulting 
# from the CCDC's data processing and validation procedures.
#
#######################################################################

data_IRIPIJ
_symmetry_cell_setting           monoclinic
_symmetry_space_group_name_H-M   'P 21/n'
_symmetry_Int_Tables_number      14
_space_group_name_Hall           '-P 2yn'
loop_
_symmetry_equiv_pos_site_id
_symmetry_equiv_pos_as_xyz
1 x,y,z
2 1/2-x,1/2+y,1/2-z
3 -x,-y,-z
4 1/2+x,1/2-y,1/2+z
_cell_length_a                   6.745(5)
_cell_length_b                   14.702(5)
_cell_length_c                   16.022(5)
_cell_angle_alpha                90
_cell_angle_beta                 101.681(5)
_cell_angle_gamma                90
_cell_volume                     1555.92
loop_
_atom_site_label
_atom_site_type_symbol
_atom_site_fract_x
_atom_site_fract_y
_atom_site_fract_z
Ag1 Ag 0.09152(4) 0.820084(14) 0.834248(12)
S1 S -0.02059(9) 1.02364(4) 0.72510(4)
O1 O 0.1089(3) 0.97533(12) 0.79442(10)
F1 F 0.0413(2) 1.06953(12) 0.57462(9)
O2 O -0.2069(3) 0.97797(14) 0.68881(12)
F2 F 0.3142(3) 1.04462(14) 0.66720(10)
O3 O -0.0360(3) 1.11898(13) 0.74043(11)
F3 F 0.1276(3) 0.93236(13) 0.61212(11)
C1 C 0.1513(3) 1.22166(16) 1.00171(14)
N1 N 0.0700(3) 1.29687(13) 0.96072(13)
N2 N 0.2874(3) 0.82988(13) 0.96136(13)
C2 C 0.3029(3) 1.05908(16) 1.08845(14)
C3 C 0.1233(4) 1.01753(19) 0.64063(15)
C4 C 0.3783(4) 0.98140(17) 1.13717(14)
C5 C 0.1578(3) 1.13858(16) 0.95676(14)
H1 H 0.1133 1.1374 0.8979
C6 C 0.3028(3) 1.14298(17) 1.13195(14)
H2 H 0.3544 1.1447 1.1903
N3 N 0.5354(3) 0.77236(15) 1.22654(13)
C7 C 0.2289(3) 1.06028(15) 0.99902(14)
H3 H 0.2285 1.0066 0.9683
C8 C 0.4742(4) 0.82607(16) 1.17635(15)
C9 C 0.2293(4) 1.22209(16) 1.09116(14)
H4 H 0.2306 1.2757 1.1220
C10 C 0.3956(3) 0.89204(16) 1.11364(14)
C11 C 0.0036(4) 1.29794(17) 0.86805(15)
H5 H -0.0503 1.3568 0.8501
H6 H 0.1167 1.2851 0.8419
H7 H -0.0992 1.2526 0.8512
C12 C 0.0327(4) 1.37814(17) 1.00689(17)
H8 H -0.0257 1.4243 0.9671
H9 H -0.0590 1.3639 1.0437
H10 H 0.1582 1.3998 1.0404
C13 C 0.3360(3) 0.85765(16) 1.02895(14)
H11 H 0.419(4) 0.993(2) 1.194(2)
Ag1C Ag 0.59152(4) 0.679916(14) 1.334248(12)
N3C N 0.0354(3) 0.72764(15) 0.72654(13)
loop_
_geom_bond_atom_site_label_1
_geom_bond_atom_site_label_2
_geom_bond_site_symmetry_1
_geom_bond_site_symmetry_2
Ag1 O1 1_555 1_555
S1 O1 1_555 1_555
F1 C3 1_555 1_555
O2 S1 1_555 1_555
F2 C3 1_555 1_555
O3 S1 1_555 1_555
F3 C3 1_555 1_555
C1 N1 1_555 1_555
N1 C11 1_555 1_555
N2 Ag1 1_555 1_555
C2 C4 1_555 1_555
C3 S1 1_555 1_555
C4 C10 1_555 1_555
C5 C1 1_555 1_555
H1 C5 1_555 1_555
C6 C2 1_555 1_555
H2 C6 1_555 1_555
N3 C8 1_555 1_555
C7 C2 1_555 1_555
H3 C7 1_555 1_555
C8 C10 1_555 1_555
C9 C1 1_555 1_555
H4 C9 1_555 1_555
C10 C13 1_555 1_555
C11 H5 1_555 1_555
H6 C11 1_555 1_555
H7 C11 1_555 1_555
C12 N1 1_555 1_555
H8 C12 1_555 1_555
H9 C12 1_555 1_555
H10 C12 1_555 1_555
C13 N2 1_555 1_555
H11 C4 1_555 1_555
Ag1C N3 1_555 1_555
N3C Ag1 1_555 1_555
C5 C7 1_555 1_555
C6 C9 1_555 1_555

#END
