
#######################################################################
#
#                 Cambridge Crystallographic Data Centre
#                                CCDC 
#
#######################################################################
#
# If this CIF has been generated from an entry in the Cambridge 
# Structural Database, then it will include bibliographic, chemical, 
# crystal, experimental, refinement or atomic coordinate data resulting 
# from the CCDC's data processing and validation procedures.
#
#######################################################################

data_IRISAD01
_symmetry_cell_setting           tetragonal
_symmetry_space_group_name_H-M   'I 41/a m d'
_symmetry_Int_Tables_number      141
_space_group_name_Hall           '-I 4bd 2'
loop_
_symmetry_equiv_pos_site_id
_symmetry_equiv_pos_as_xyz
1 x,y,z
2 1/4+y,3/4+x,1/4-z
3 1/4+y,1/4-x,3/4+z
4 1/4-y,3/4+x,1/4+z
5 1/2+x,1/2+y,1/2+z
6 3/4+y,1/4+x,3/4-z
7 3/4+y,3/4-x,1/4+z
8 3/4-y,1/4+x,3/4+z
9 x,-y,-z
10 1/2-x,-y,1/2+z
11 1/2-x,y,1/2-z
12 1/4-y,1/4-x,3/4-z
13 1/2+x,1/2-y,1/2-z
14 -x,1/2-y,z
15 -x,1/2+y,-z
16 3/4-y,3/4-x,1/4-z
17 -x,-y,-z
18 3/4-y,1/4-x,3/4+z
19 3/4-y,3/4+x,1/4-z
20 3/4+y,1/4-x,3/4-z
21 1/2-x,1/2-y,1/2-z
22 1/4-y,3/4-x,1/4+z
23 1/4-y,1/4+x,3/4-z
24 1/4+y,3/4-x,1/4-z
25 -x,y,z
26 1/2+x,y,1/2-z
27 1/2+x,-y,1/2+z
28 3/4+y,3/4+x,1/4+z
29 1/2-x,1/2+y,1/2+z
30 x,1/2+y,-z
31 x,1/2-y,z
32 1/4+y,1/4+x,3/4+z
_cell_length_a                   11.6740(10)
_cell_length_b                   11.6740(10)
_cell_length_c                   9.2545(8)
_cell_angle_alpha                90
_cell_angle_beta                 90
_cell_angle_gamma                90
_cell_volume                     1261.22
loop_
_atom_site_label
_atom_site_type_symbol
_atom_site_fract_x
_atom_site_fract_y
_atom_site_fract_z
Bi1 Bi 0.5000 0.2500 0.6250
O1 O 0.2966(5) 0.2500 0.5729(7)
O2 O 0.1202(5) 0.2500 0.6607(6)
C1 C 0.2260(7) 0.2500 0.6738(8)
Bi1C Bi 0.0000 0.2500 0.8750
Bi1B Bi 0.5000 -0.2500 0.3750
O1T O 0.2034(5) 0.2500 0.9271(7)
O1A O 0.5000 0.0466(5) 0.6771(7)
O1B O 0.5000 -0.0466(5) 0.3229(7)
O1X O 0.7034(5) 0.2500 0.5729(7)
O1W O 0.5000 0.4534(5) 0.6771(7)
O2T O 0.3798(5) 0.2500 0.8393(6)
O2A O 0.5000 -0.1298(5) 0.5893(6)
O2B O 0.5000 0.1298(5) 0.4107(6)
O2G O 0.5000 0.3702(5) 0.4107(6)
O2Y O 0.6202(5) 0.2500 0.8393(6)
C1T C 0.2740(7) 0.2500 0.8262(8)
C1A C 0.5000 -0.0240(7) 0.5762(8)
C1B C 0.5000 0.0240(7) 0.4238(8)
O3 O 0.2500 0.2500 0.2500
O4 O 0.203(3) 0.047(3) 0.3750
N1 N 0.0000 0.2500 0.3750
H1 H 0.0596(4) 0.2500 0.427(2)
H1E H 0.0000 0.3096(4) 0.323(2)
H1X H -0.0596(4) 0.2500 0.427(2)
H1S H 0.0000 0.1904(4) 0.323(2)
loop_
_geom_bond_atom_site_label_1
_geom_bond_atom_site_label_2
_geom_bond_site_symmetry_1
_geom_bond_site_symmetry_2
Bi1 O1 1_555 1_555
O1 C1 1_555 1_555
O2 C1 1_555 1_555
C1 C1T 1_555 1_555
N1 H1 1_555 1_555
Bi1C O2 1_555 1_555
Bi1B O1B 1_555 1_555
O1T Bi1C 1_555 1_555
O1A Bi1 1_555 1_555
O1B C1B 1_555 1_555
O1X Bi1 1_555 1_555
O1W Bi1 1_555 1_555
O2T Bi1 1_555 1_555
O2A Bi1B 1_555 1_555
O2B Bi1 1_555 1_555
O2G Bi1 1_555 1_555
O2Y Bi1 1_555 1_555
C1T O1T 1_555 1_555
C1A O1A 1_555 1_555
C1B O2B 1_555 1_555
H1E N1 1_555 1_555
H1X N1 1_555 1_555
H1S N1 1_555 1_555
O2T C1T 1_555 1_555
O2A C1A 1_555 1_555
C1A C1B 1_555 1_555

#END
