
#######################################################################
#
#                 Cambridge Crystallographic Data Centre
#                                CCDC 
#
#######################################################################
#
# If this CIF has been generated from an entry in the Cambridge 
# Structural Database, then it will include bibliographic, chemical, 
# crystal, experimental, refinement or atomic coordinate data resulting 
# from the CCDC's data processing and validation procedures.
#
#######################################################################

data_IRIWIP
_symmetry_cell_setting           triclinic
_symmetry_space_group_name_H-M   'P -1'
_symmetry_Int_Tables_number      2
_space_group_name_Hall           '-P 1'
loop_
_symmetry_equiv_pos_site_id
_symmetry_equiv_pos_as_xyz
1 x,y,z
2 -x,-y,-z
_cell_length_a                   5.7707(4)
_cell_length_b                   9.3046(9)
_cell_length_c                   10.2559(10)
_cell_angle_alpha                68.583(11)
_cell_angle_beta                 83.646(11)
_cell_angle_gamma                89.653(10)
_cell_volume                     509.154
loop_
_atom_site_label
_atom_site_type_symbol
_atom_site_fract_x
_atom_site_fract_y
_atom_site_fract_z
Cu1 Cu 0.38782(7) 0.84423(5) 0.54553(5)
S1 S 0.31796(14) 1.05102(9) 0.65179(9)
C1 C 0.0719(5) 1.1126(3) 0.5836(3)
N1 N -0.1000(5) 1.1533(3) 0.5366(3)
N2 N 0.7840(7) 0.4707(4) 0.8967(4)
C2 C 0.6247(7) 0.4228(4) 0.8367(5)
C3 C 0.4967(6) 0.5273(4) 0.7374(4)
N3 N 0.5362(5) 0.6802(3) 0.6999(3)
C4 C 0.6995(7) 0.7266(4) 0.7606(4)
H1 H 0.7320 0.8317 0.7350
C5 C 0.8196(8) 0.6231(4) 0.8595(5)
H2 H 0.9283 0.6594 0.9017
C6 C 0.5904(11) 0.2509(5) 0.8737(8)
H3 H 0.4553 0.2155 0.9439
H4 H 0.5524 0.2351 0.7900
C7 C 0.7769(12) 0.1546(5) 0.9252(8)
H5 H 0.7296 0.0487 0.9479
H6 H 0.8180 0.1681 1.0083
H7 H 0.9093 0.1818 0.8543
C8 C 0.3134(8) 0.4746(5) 0.6707(5)
H8 H 0.2461 0.5629 0.6059
H9 H 0.1939 0.4146 0.7425
H10 H 0.3825 0.4126 0.6208
S1A S 0.68204(14) 0.94898(9) 0.34821(9)
N1A N 0.1000(5) 0.8467(3) 0.4634(3)
Cu1A Cu 0.61218(7) 1.15577(5) 0.45447(5)
Cu1A_2 Cu -0.38782(7) 1.15577(5) 0.45447(5)
loop_
_geom_bond_atom_site_label_1
_geom_bond_atom_site_label_2
_geom_bond_site_symmetry_1
_geom_bond_site_symmetry_2
Cu1 S1 1_555 1_555
S1 C1 1_555 1_555
C1 N1 1_555 1_555
N1 Cu1A_2 1_555 1_555
N2 C2 1_555 1_555
C2 C3 1_555 1_555
C3 N3 1_555 1_555
N3 Cu1 1_555 1_555
C4 N3 1_555 1_555
H1 C4 1_555 1_555
C5 N2 1_555 1_555
H2 C5 1_555 1_555
C6 C2 1_555 1_555
H3 C6 1_555 1_555
H4 C6 1_555 1_555
C7 C6 1_555 1_555
H5 C7 1_555 1_555
H6 C7 1_555 1_555
H7 C7 1_555 1_555
C8 C3 1_555 1_555
H8 C8 1_555 1_555
H9 C8 1_555 1_555
H10 C8 1_555 1_555
S1A Cu1 1_555 1_555
N1A Cu1 1_555 1_555
Cu1A S1 1_555 1_555
C4 C5 1_555 1_555
S1A Cu1A 1_555 1_555

#END
