
#######################################################################
#
#                 Cambridge Crystallographic Data Centre
#                                CCDC 
#
#######################################################################
#
# If this CIF has been generated from an entry in the Cambridge 
# Structural Database, then it will include bibliographic, chemical, 
# crystal, experimental, refinement or atomic coordinate data resulting 
# from the CCDC's data processing and validation procedures.
#
#######################################################################

data_IRIWEL
_symmetry_cell_setting           monoclinic
_symmetry_space_group_name_H-M   'P 21'
_symmetry_Int_Tables_number      4
_space_group_name_Hall           'P 2yb'
loop_
_symmetry_equiv_pos_site_id
_symmetry_equiv_pos_as_xyz
1 x,y,z
2 -x,1/2+y,-z
_cell_length_a                   5.8335(4)
_cell_length_b                   6.5775(4)
_cell_length_c                   16.2995(12)
_cell_angle_alpha                90.00
_cell_angle_beta                 90.976(8)
_cell_angle_gamma                90.00
_cell_volume                     625.319
loop_
_atom_site_label
_atom_site_type_symbol
_atom_site_fract_x
_atom_site_fract_y
_atom_site_fract_z
Cu1 Cu 0.59919(9) 0.54106(8) 0.94977(3)
S1 S 0.64630(17) 0.18132(15) 0.95431(6)
C1 C 0.9092(7) 0.1637(6) 0.9956(2)
N1 N 1.0918(7) 0.1510(6) 1.0222(2)
Cu2 Cu 0.35510(9) 0.92667(7) 0.56231(3)
S2 S 0.60098(17) 1.21171(15) 0.55414(6)
C2 C 0.8624(7) 1.1091(6) 0.5584(2)
N2 N 1.0424(6) 1.0406(6) 0.56243(19)
N3 N 0.5122(6) 0.6208(5) 0.82983(19)
C3 C 0.3331(6) 0.5533(7) 0.7844(2)
C4 C 0.2935(7) 0.6287(6) 0.7043(2)
N4 N 0.4306(6) 0.7726(6) 0.6723(2)
C5 C 0.6107(8) 0.8369(7) 0.7187(2)
H1 H 0.7095 0.9344 0.6979
C6 C 0.6500(8) 0.7601(7) 0.7963(3)
H2 H 0.7763 0.8065 0.8264
C7 C 0.1814(7) 0.3955(6) 0.8224(2)
H3 H 0.0226 0.4335 0.8127
H4 H 0.2088 0.3948 0.8813
C8 C 0.2184(11) 0.1830(8) 0.7896(3)
H5 H 0.1144 0.0908 0.8155
H6 H 0.3734 0.1414 0.8012
H7 H 0.1910 0.1819 0.7314
C9 C 0.1006(7) 0.5517(8) 0.6506(2)
H8 H 0.0356 0.6627 0.6199
H9 H -0.0151 0.4920 0.6842
H10 H 0.1579 0.4512 0.6135
S1A S 0.35370(17) 0.68132(15) 1.04569(6)
N1A N 0.9082(7) 0.6510(6) 0.9778(2)
Cu1A Cu 0.40081(9) 0.04106(8) 1.05023(3)
Cu1A_2 Cu 1.40081(9) 0.04106(8) 1.05023(3)
S2A S 0.39902(17) 0.71171(15) 0.44586(6)
N2_2 N 0.0424(6) 1.0406(6) 0.56243(19)
Cu2A Cu 0.64490(9) 1.42667(7) 0.43769(3)
Cu2_2 Cu 1.35510(9) 0.92667(7) 0.56231(3)
loop_
_geom_bond_atom_site_label_1
_geom_bond_atom_site_label_2
_geom_bond_site_symmetry_1
_geom_bond_site_symmetry_2
Cu1 S1 1_555 1_555
S1 C1 1_555 1_555
C1 N1 1_555 1_555
N1 Cu1A_2 1_555 1_555
Cu2 S2 1_555 1_555
S2 C2 1_555 1_555
C2 N2 1_555 1_555
N2 Cu2_2 1_555 1_555
N3 Cu1 1_555 1_555
C3 N3 1_555 1_555
C4 C3 1_555 1_555
N4 Cu2 1_555 1_555
C5 N4 1_555 1_555
H1 C5 1_555 1_555
C6 N3 1_555 1_555
H2 C6 1_555 1_555
C7 C3 1_555 1_555
H3 C7 1_555 1_555
H4 C7 1_555 1_555
C8 C7 1_555 1_555
H5 C8 1_555 1_555
H6 C8 1_555 1_555
H7 C8 1_555 1_555
C9 C4 1_555 1_555
H8 C9 1_555 1_555
H9 C9 1_555 1_555
H10 C9 1_555 1_555
S1A Cu1 1_555 1_555
N1A Cu1 1_555 1_555
Cu1A S1 1_555 1_555
S2A Cu2 1_555 1_555
N2_2 Cu2 1_555 1_555
Cu2A S2 1_555 1_555
C4 N4 1_555 1_555
C5 C6 1_555 1_555

#END
