
#######################################################################
#
#                 Cambridge Crystallographic Data Centre
#                                CCDC 
#
#######################################################################
#
# If this CIF has been generated from an entry in the Cambridge 
# Structural Database, then it will include bibliographic, chemical, 
# crystal, experimental, refinement or atomic coordinate data resulting 
# from the CCDC's data processing and validation procedures.
#
#######################################################################

data_IROPIP
_symmetry_cell_setting           monoclinic
_symmetry_space_group_name_H-M   'C 2/c'
_symmetry_Int_Tables_number      15
_space_group_name_Hall           '-C 2yn'
loop_
_symmetry_equiv_pos_site_id
_symmetry_equiv_pos_as_xyz
1 x,y,z
2 -x,y,1/2-z
3 1/2+x,1/2+y,z
4 1/2-x,1/2+y,1/2-z
5 -x,-y,-z
6 x,-y,1/2+z
7 1/2-x,1/2-y,-z
8 1/2+x,1/2-y,1/2+z
_cell_length_a                   24.6794(10)
_cell_length_b                   12.4257(5)
_cell_length_c                   21.1689(9)
_cell_angle_alpha                90
_cell_angle_beta                 104.994(4)
_cell_angle_gamma                90
_cell_volume                     6270.61
loop_
_atom_site_label
_atom_site_type_symbol
_atom_site_fract_x
_atom_site_fract_y
_atom_site_fract_z
Cu1 Cu 0.67856(3) 0.46229(6) 0.12745(4)
N1 N 0.65271(18) 0.3109(3) 0.1604(2)
N2 N 0.68634(18) 0.3558(4) 0.0484(2)
N3 N 0.67702(18) 0.1862(4) 0.0157(2)
H1 H 0.6731 0.1159 0.0171
N4 N 0.59676(18) 0.4883(4) 0.1031(2)
N5 N 0.51122(19) 0.4325(4) 0.1011(2)
H2 H 0.4840 0.3895 0.1051
N6 N 0.74388(18) 0.4296(4) 0.2031(2)
N7 N 0.7715(2) 0.3606(4) 0.3027(2)
C1 C 0.6813(2) 0.2236(4) 0.1327(3)
H3 H 0.7202 0.2140 0.1598
H4 H 0.6610 0.1547 0.1319
C2 C 0.6816(2) 0.2558(5) 0.0650(3)
C3 C 0.6858(2) 0.3528(6) -0.0168(3)
C4 C 0.6880(2) 0.4355(7) -0.0607(3)
H5 H 0.6918 0.5088 -0.0476
C5 C 0.6844(3) 0.4049(10) -0.1234(4)
H6 H 0.6867 0.4591 -0.1543
C6 C 0.6776(3) 0.3001(11) -0.1443(4)
H7 H 0.6743 0.2847 -0.1891
C7 C 0.6755(3) 0.2178(8) -0.1029(3)
H8 H 0.6715 0.1450 -0.1170
C8 C 0.6797(2) 0.2473(6) -0.0382(3)
C9 C 0.5909(2) 0.3008(4) 0.1380(3)
H9 H 0.5759 0.2758 0.1746
H10 H 0.5807 0.2472 0.1023
C10 C 0.5662(2) 0.4077(4) 0.1143(3)
C11 C 0.5598(2) 0.5744(5) 0.0811(3)
C12 C 0.5687(2) 0.6785(5) 0.0628(3)
H11 H 0.6049 0.7028 0.0614
C13 C 0.5225(3) 0.7454(5) 0.0465(3)
H12 H 0.5273 0.8178 0.0346
C14 C 0.4700(3) 0.7104(6) 0.0470(3)
H13 H 0.4396 0.7595 0.0355
C15 C 0.4599(3) 0.6082(6) 0.0634(3)
H14 H 0.4232 0.5850 0.0633
C16 C 0.5057(2) 0.5384(5) 0.0803(3)
C17 C 0.6741(3) 0.3159(5) 0.2328(3)
H15 H 0.6772 0.2426 0.2517
H16 H 0.6483 0.3586 0.2518
C18 C 0.7305(2) 0.3681(4) 0.2473(3)
C19 C 0.7979(2) 0.4664(4) 0.2305(3)
C20 C 0.8331(3) 0.5305(5) 0.2058(4)
H17 H 0.8213 0.5601 0.1631
C21 C 0.8860(3) 0.5502(5) 0.2455(4)
H18 H 0.9110 0.5948 0.2299
C22 C 0.9036(3) 0.5051(6) 0.3090(4)
H19 H 0.9407 0.5192 0.3345
C23 C 0.8690(3) 0.4416(5) 0.3350(4)
H20 H 0.8804 0.4131 0.3781
C24 C 0.8161(3) 0.4223(4) 0.2936(3)
C25 C 0.7728(3) 0.2856(5) 0.3568(3)
H21 H 0.7345 0.2782 0.3631
H22 H 0.7975 0.3146 0.3977
C26 C 0.7941(2) 0.1754(4) 0.3424(3)
O1 O 0.79634(14) 0.1069(3) 0.38951(18)
O2 O 0.80689(19) 0.1572(3) 0.2918(2)
Cu1C Cu 0.82144(3) -0.03771(6) 0.37255(4)
O1C O 0.70366(14) 0.6069(3) 0.11049(18)
N8 N 0.5000 0.4647(10) 0.2500
O3 O 0.5469(3) 0.4201(6) 0.2566(3)
C27 C 0.5000 0.5861(9) 0.2500
C28 C 0.5463(3) 0.6395(8) 0.2411(3)
H23 H 0.5779 0.6010 0.2353
C29 C 0.5454(4) 0.7463(9) 0.2409(5)
H24 H 0.5768 0.7848 0.2344
C30 C 0.5000 0.8021(12) 0.2500
H25 H 0.5000 0.8786 0.2500
O3A O 0.4531(3) 0.4201(6) 0.2434(3)
C28A C 0.4537(3) 0.6395(8) 0.2589(3)
H23A H 0.4221 0.6010 0.2647
C29A C 0.4546(4) 0.7463(9) 0.2591(5)
H24A H 0.4232 0.7848 0.2656
N9 N 0.4059(6) 0.2688(17) 0.1089(11)
O4 O 0.3527(6) 0.2395(14) 0.1133(8)
O5 O 0.3991(8) 0.3687(17) 0.0921(11)
O6 O 0.4566(4) 0.2378(8) 0.1318(5)
O7 O 0.6443(7) -0.035(2) 0.0066(11)
O8 O 0.7258(6) 0.1662(9) 0.4637(6)
O9 O 0.5483(7) 0.0267(15) 0.0136(10)
O10 O 0.5587(7) -0.0503(14) -0.0697(7)
O11 O 0.5000 0.208(2) 0.2500
O12? O 0.6713(6) -0.0343(17) 0.0178(9)
O13? O 0.7686(9) 0.1602(12) 0.5033(8)
O14? O 0.5224(11) 0.0460(16) 0.0496(10)
O15? O 0.5377(8) -0.0352(15) -0.0458(10)
O16? O 0.8152(13) 0.179(2) 0.5196(13)
loop_
_geom_bond_atom_site_label_1
_geom_bond_atom_site_label_2
_geom_bond_site_symmetry_1
_geom_bond_site_symmetry_2
Cu1 N1 1_555 1_555
N1 C1 1_555 1_555
N2 Cu1 1_555 1_555
N3 H1 1_555 1_555
N4 Cu1 1_555 1_555
N5 H2 1_555 1_555
N6 Cu1 1_555 1_555
N7 C18 1_555 1_555
C1 H3 1_555 1_555
H4 C1 1_555 1_555
C2 N2 1_555 1_555
C3 N2 1_555 1_555
C4 C3 1_555 1_555
H5 C4 1_555 1_555
C5 C4 1_555 1_555
H6 C5 1_555 1_555
C6 C5 1_555 1_555
H7 C6 1_555 1_555
C7 C6 1_555 1_555
H8 C7 1_555 1_555
C8 N3 1_555 1_555
C9 N1 1_555 1_555
H9 C9 1_555 1_555
H10 C9 1_555 1_555
C10 N4 1_555 1_555
C11 N4 1_555 1_555
C12 C11 1_555 1_555
H11 C12 1_555 1_555
C13 C12 1_555 1_555
H12 C13 1_555 1_555
C14 C13 1_555 1_555
H13 C14 1_555 1_555
C15 C14 1_555 1_555
H14 C15 1_555 1_555
C16 N5 1_555 1_555
C17 N1 1_555 1_555
H15 C17 1_555 1_555
H16 C17 1_555 1_555
C18 N6 1_555 1_555
C19 N6 1_555 1_555
C20 C19 1_555 1_555
H17 C20 1_555 1_555
C21 C20 1_555 1_555
H18 C21 1_555 1_555
C22 C21 1_555 1_555
H19 C22 1_555 1_555
C23 C22 1_555 1_555
H20 C23 1_555 1_555
C24 N7 1_555 1_555
C25 N7 1_555 1_555
H21 C25 1_555 1_555
H22 C25 1_555 1_555
C26 C25 1_555 1_555
O1 C26 1_555 1_555
O2 C26 1_555 1_555
N8 O3 1_555 1_555
C27 N8 1_555 1_555
C28 C27 1_555 1_555
H23 C28 1_555 1_555
C29 C28 1_555 1_555
H24 C29 1_555 1_555
C30 C29 1_555 1_555
H25 C30 1_555 1_555
N9 O4 1_555 1_555
O5 N9 1_555 1_555
O6 N9 1_555 1_555
Cu1C O1 1_555 1_555
O1C Cu1 1_555 1_555
O3A N8 1_555 1_555
C28A C27 1_555 1_555
H23A C28A 1_555 1_555
C29A C30 1_555 1_555
H24A C29A 1_555 1_555
N3 C2 1_555 1_555
N5 C10 1_555 1_555
C1 C2 1_555 1_555
C3 C8 1_555 1_555
C7 C8 1_555 1_555
C9 C10 1_555 1_555
C11 C16 1_555 1_555
C15 C16 1_555 1_555
C17 C18 1_555 1_555
C19 C24 1_555 1_555
C23 C24 1_555 1_555
C28A C29A 1_555 1_555

#END
