
#######################################################################
#
#                 Cambridge Crystallographic Data Centre
#                                CCDC 
#
#######################################################################
#
# If this CIF has been generated from an entry in the Cambridge 
# Structural Database, then it will include bibliographic, chemical, 
# crystal, experimental, refinement or atomic coordinate data resulting 
# from the CCDC's data processing and validation procedures.
#
#######################################################################

data_IROQAI
_symmetry_cell_setting           orthorhombic
_symmetry_space_group_name_H-M   'P n n m'
_symmetry_Int_Tables_number      58
_space_group_name_Hall           '-P 2 2n'
loop_
_symmetry_equiv_pos_site_id
_symmetry_equiv_pos_as_xyz
1 x,y,z
2 -x,-y,z
3 1/2-x,1/2+y,1/2-z
4 1/2+x,1/2-y,1/2-z
5 -x,-y,-z
6 x,y,-z
7 1/2+x,1/2-y,1/2+z
8 1/2-x,1/2+y,1/2+z
_cell_length_a                   11.4950(9)
_cell_length_b                   14.1859(12)
_cell_length_c                   7.6034(6)
_cell_angle_alpha                90
_cell_angle_beta                 90
_cell_angle_gamma                90
_cell_volume                     1239.86
loop_
_atom_site_label
_atom_site_type_symbol
_atom_site_fract_x
_atom_site_fract_y
_atom_site_fract_z
Ba1 Ba 0.082455(17) 0.642203(12) 0.0000
N1 N 0.1786(3) 0.8343(2) 0.0000
N2 N 0.2943(3) 0.8434(2) 0.0000
N3 N 0.3225(3) 0.9319(2) 0.0000
N4 N 0.2245(3) 0.9844(2) 0.0000
N5 N 0.2308(3) 0.4704(2) 0.0000
N6 N 0.1755(3) 0.3870(2) 0.0000
N7 N 0.2510(3) 0.3197(2) 0.0000
N8 N 0.3594(3) 0.3565(2) 0.0000
O1 O -0.01596(17) 0.74437(14) 0.2707(3)
H1 H -0.0760 0.7166 0.3105
H2 H 0.0248 0.7619 0.3581
O2 O 0.0000 0.5000 -0.2432(4)
O3 O 0.2436(2) 0.64978(14) 0.2681(3)
C1 C 0.1387(3) 0.9229(2) 0.0000
C2 C 0.0115(3) 0.9472(2) 0.0000
H3 H -0.0247 0.9195 0.1030
C3 C 0.4391(3) 0.5212(3) 0.0000
H4 H 0.4305 0.5610 0.1030
C4 C 0.3442(3) 0.4493(2) 0.0000
H5 H 0.251(3) 0.6955(18) 0.333(4)
H6 H 0.250(3) 0.607(2) 0.341(4)
H7 H 0.045(4) 0.470(3) -0.305(6)
Ba1A Ba -0.082455(17) 1.357797(12) 0.0000
Ba1A_2 Ba -0.082455(17) 0.357797(12) 0.0000
Ba1A_3 Ba 0.917545(17) 0.357797(12) 0.0000
Ba1_2 Ba 1.082455(17) 0.642203(12) 0.0000
N1A N -0.1786(3) 1.1657(2) 0.0000
N2A N -0.2943(3) 1.1566(2) 0.0000
N3A N -0.3225(3) 1.0681(2) 0.0000
N4A N -0.2245(3) 1.0156(2) 0.0000
N5A N 0.7692(3) 0.5296(2) 0.0000
N5A_2 N -0.2308(3) 1.5296(2) 0.0000
N6A N 0.8245(3) 0.6130(2) 0.0000
N6A_2 N -0.1755(3) 0.6130(2) 0.0000
N6_2 N 0.1755(3) 1.3870(2) 0.0000
N7A N 0.7490(3) 0.6803(2) 0.0000
N8A N 0.6406(3) 0.6435(2) 0.0000
O1E O -0.01596(17) 0.74437(14) -0.2707(3)
O1A O 0.01596(17) 1.25563(14) 0.2707(3)
O1D O 0.01596(17) 1.25563(14) -0.2707(3)
H1E H -0.0760 0.7166 -0.3105
H1A H 0.0760 1.2834 0.3105
H1D H 0.0760 1.2834 -0.3105
H2E H 0.0248 0.7619 -0.3581
H2A H -0.0248 1.2381 0.3581
H2D H -0.0248 1.2381 -0.3581
O2D O 0.0000 0.5000 0.2432(4)
O2_2 O 0.0000 1.5000 -0.2432(4)
O2D_2 O 0.0000 1.5000 0.2432(4)
O3E O 0.2436(2) 0.64978(14) -0.2681(3)
O3A O -0.2436(2) 1.35022(14) 0.2681(3)
O3D O -0.2436(2) 1.35022(14) -0.2681(3)
C1A C -0.1387(3) 1.0771(2) 0.0000
C2A C -0.0115(3) 1.0528(2) 0.0000
H3A H 0.0247 1.0805 0.1030
H3D H 0.0247 1.0805 -0.1030
H3E H -0.0247 0.9195 -0.1030
C3A C 0.5609(3) 0.4788(3) 0.0000
H4A H 0.5695 0.4390 0.1030
H4D H 0.5695 0.4390 -0.1030
H4E H 0.4305 0.5610 -0.1030
C4A C 0.6558(3) 0.5507(2) 0.0000
H5E H 0.251(3) 0.6955(18) -0.333(4)
H5A H -0.251(3) 1.3045(18) 0.333(4)
H5D H -0.251(3) 1.3045(18) -0.333(4)
H6E H 0.250(3) 0.607(2) -0.341(4)
H6A H -0.250(3) 1.393(2) 0.341(4)
H6D H -0.250(3) 1.393(2) -0.341(4)
H7A H -0.045(4) 0.530(3) -0.305(6)
H7D H -0.045(4) 0.530(3) 0.305(6)
H7E H 0.045(4) 0.470(3) 0.305(6)
H7A_2 H -0.045(4) 1.530(3) -0.305(6)
H7_2 H 0.045(4) 1.470(3) -0.305(6)
H7E_2 H 0.045(4) 1.470(3) 0.305(6)
H7D_2 H -0.045(4) 1.530(3) 0.305(6)
loop_
_geom_bond_atom_site_label_1
_geom_bond_atom_site_label_2
_geom_bond_site_symmetry_1
_geom_bond_site_symmetry_2
Ba1 N1 1_555 1_555
N1 N2 1_555 1_555
N2 N3 1_555 1_555
N3 N4 1_555 1_555
N4 C1 1_555 1_555
N5 Ba1 1_555 1_555
N6 N5 1_555 1_555
N7 N6 1_555 1_555
N8 N7 1_555 1_555
O1 Ba1 1_555 1_555
H1 O1 1_555 1_555
H2 O1 1_555 1_555
O2 Ba1 1_555 1_555
O3 Ba1 1_555 1_555
C1 N1 1_555 1_555
C2 C1 1_555 1_555
H3 C2 1_555 1_555
C3 H4 1_555 1_555
C4 N5 1_555 1_555
H5 O3 1_555 1_555
H6 O3 1_555 1_555
H7 O2 1_555 1_555
Ba1A N1A 1_555 1_555
Ba1A_2 N6 1_555 1_555
Ba1A_3 N5A 1_555 1_555
Ba1_2 N6A 1_555 1_555
N1A N2A 1_555 1_555
N2A N3A 1_555 1_555
N3A N4A 1_555 1_555
N4A C1A 1_555 1_555
N5A N6A 1_555 1_555
N5A_2 Ba1A 1_555 1_555
N6A N7A 1_555 1_555
N6A_2 Ba1 1_555 1_555
N6_2 Ba1A 1_555 1_555
N7A N8A 1_555 1_555
N8A C4A 1_555 1_555
O1E Ba1 1_555 1_555
O1A Ba1A 1_555 1_555
O1D Ba1A 1_555 1_555
H1E O1E 1_555 1_555
H1A O1A 1_555 1_555
H1D O1D 1_555 1_555
H2E O1E 1_555 1_555
H2A O1A 1_555 1_555
H2D O1D 1_555 1_555
O2D Ba1 1_555 1_555
O2_2 Ba1A 1_555 1_555
O2D_2 Ba1A 1_555 1_555
O3E Ba1 1_555 1_555
O3A Ba1A 1_555 1_555
O3D Ba1A 1_555 1_555
C1A N1A 1_555 1_555
C2A C2 1_555 1_555
H3A C2A 1_555 1_555
H3D C2A 1_555 1_555
H3E C2 1_555 1_555
C3A C3 1_555 1_555
H4A C3A 1_555 1_555
H4D C3A 1_555 1_555
H4E C3 1_555 1_555
C4A N5A 1_555 1_555
H5E O3E 1_555 1_555
H5A O3A 1_555 1_555
H5D O3D 1_555 1_555
H6E O3E 1_555 1_555
H6A O3A 1_555 1_555
H6D O3D 1_555 1_555
H7A O2 1_555 1_555
H7D O2D 1_555 1_555
H7E O2D 1_555 1_555
H7A_2 O2_2 1_555 1_555
H7_2 O2_2 1_555 1_555
H7E_2 O2D_2 1_555 1_555
H7D_2 O2D_2 1_555 1_555
N8 C4 1_555 1_555
O2 Ba1A_2 1_555 1_555
C3 C4 1_555 1_555
Ba1A_2 O2D 1_555 1_555
C1A C2A 1_555 1_555
C3A C4A 1_555 1_555

#END
