
#######################################################################
#
#                 Cambridge Crystallographic Data Centre
#                                CCDC 
#
#######################################################################
#
# If this CIF has been generated from an entry in the Cambridge 
# Structural Database, then it will include bibliographic, chemical, 
# crystal, experimental, refinement or atomic coordinate data resulting 
# from the CCDC's data processing and validation procedures.
#
#######################################################################

data_IROQEM
_symmetry_cell_setting           orthorhombic
_symmetry_space_group_name_H-M   'P n n m'
_symmetry_Int_Tables_number      58
_space_group_name_Hall           '-P 2 2n'
loop_
_symmetry_equiv_pos_site_id
_symmetry_equiv_pos_as_xyz
1 x,y,z
2 -x,-y,z
3 1/2-x,1/2+y,1/2-z
4 1/2+x,1/2-y,1/2-z
5 -x,-y,-z
6 x,y,-z
7 1/2+x,1/2-y,1/2+z
8 1/2-x,1/2+y,1/2+z
_cell_length_a                   11.3352(16)
_cell_length_b                   13.8603(19)
_cell_length_c                   7.3828(10)
_cell_angle_alpha                90
_cell_angle_beta                 90
_cell_angle_gamma                90
_cell_volume                     1159.91
loop_
_atom_site_label
_atom_site_type_symbol
_atom_site_fract_x
_atom_site_fract_y
_atom_site_fract_z
Sr1 Sr 0.58158(2) 0.639594(19) 0.5000
C1 C 0.6379(3) 0.9188(2) 0.5000
C2 C 0.5099(3) 0.9459(2) 0.5000
H1 H 0.4724 0.9183 0.6061
C3 C 0.8409(3) 0.4493(2) 0.5000
C4 C 0.9389(3) 0.5221(2) 0.5000
H2 H 0.9309 0.5629 0.6061
N1 N 0.7262(2) 0.47164(19) 0.5000
N2 N 0.6702(2) 0.38626(19) 0.5000
N3 N 0.7468(2) 0.3170(2) 0.5000
N4 N 0.8568(3) 0.35469(19) 0.5000
N5 N 0.7259(2) 0.9815(2) 0.5000
N6 N 0.8248(3) 0.9276(2) 0.5000
N7 N 0.7956(2) 0.8368(2) 0.5000
N8 N 0.6781(2) 0.8280(2) 0.5000
O1 O 0.48745(15) 0.73988(13) 0.7586(2)
H3 H 0.4839 0.7595 0.8675
H4 H 0.4172 0.7323 0.7210
O2 O 0.73691(18) 0.64711(14) 0.2435(3)
O3 O 0.5000 0.5000 0.2707(3)
H5 H 0.750(3) 0.602(3) 0.174(6)
H6 H 0.748(3) 0.690(3) 0.181(5)
H7 H 0.552(3) 0.476(3) 0.214(5)
Sr1A Sr 1.41842(2) 0.360406(19) 0.5000
Sr1A_2 Sr 0.41842(2) 0.360406(19) 0.5000
Sr1A_3 Sr 0.41842(2) 1.360406(19) 0.5000
Sr1_2 Sr 1.58158(2) 0.639594(19) 0.5000
C1A C 0.3621(3) 1.0812(2) 0.5000
C2A C 0.4901(3) 1.0541(2) 0.5000
H1A H 0.5276 1.0817 0.6061
H1D H 0.5276 1.0817 0.3939
H1E H 0.4724 0.9183 0.3939
C3A C 1.1591(3) 0.5507(2) 0.5000
C4A C 1.0611(3) 0.4779(2) 0.5000
H2A H 1.0691 0.4371 0.6061
H2D H 1.0691 0.4371 0.3939
H2E H 0.9309 0.5629 0.3939
N1A N 1.2738(2) 0.52836(19) 0.5000
N2A N 1.3298(2) 0.61374(19) 0.5000
N2A_2 N 0.3298(2) 0.61374(19) 0.5000
N2_2 N 1.6702(2) 0.38626(19) 0.5000
N3A N 1.2532(2) 0.6830(2) 0.5000
N4A N 1.1432(3) 0.64531(19) 0.5000
N5A N 0.2741(2) 1.0185(2) 0.5000
N6A N 0.1752(3) 1.0724(2) 0.5000
N7A N 0.2044(2) 1.1632(2) 0.5000
N8A N 0.3219(2) 1.1720(2) 0.5000
N8A_2 N 1.3219(2) 0.1720(2) 0.5000
O1E O 0.48745(15) 0.73988(13) 0.2414(2)
O1A O 1.51255(15) 0.26012(13) 0.7586(2)
O1D O 1.51255(15) 0.26012(13) 0.2414(2)
H3E H 0.4839 0.7595 0.1325
H3A H 1.5161 0.2405 0.8675
H3D H 1.5161 0.2405 0.1325
H4E H 0.4172 0.7323 0.2790
H4A H 1.5828 0.2677 0.7210
H4D H 1.5828 0.2677 0.2790
O2E O 0.73691(18) 0.64711(14) 0.7565(3)
O2A O 1.26309(18) 0.35289(14) 0.2435(3)
O2D O 1.26309(18) 0.35289(14) 0.7565(3)
O3D O 0.5000 0.5000 0.7293(3)
O3_2 O 1.5000 0.5000 0.2707(3)
O3D_2 O 1.5000 0.5000 0.7293(3)
H5E H 0.750(3) 0.602(3) 0.826(6)
H5A H 1.250(3) 0.398(3) 0.174(6)
H5D H 1.250(3) 0.398(3) 0.826(6)
H6E H 0.748(3) 0.690(3) 0.819(5)
H6A H 1.252(3) 0.310(3) 0.181(5)
H6D H 1.252(3) 0.310(3) 0.819(5)
H7A H 0.448(3) 0.524(3) 0.214(5)
H7D H 0.448(3) 0.524(3) 0.786(5)
H7E H 0.552(3) 0.476(3) 0.786(5)
H7A_2 H 1.448(3) 0.524(3) 0.214(5)
H7_2 H 1.552(3) 0.476(3) 0.214(5)
H7E_2 H 1.552(3) 0.476(3) 0.786(5)
H7D_2 H 1.448(3) 0.524(3) 0.786(5)
loop_
_geom_bond_atom_site_label_1
_geom_bond_atom_site_label_2
_geom_bond_site_symmetry_1
_geom_bond_site_symmetry_2
Sr1 N1 1_555 1_555
C1 C2 1_555 1_555
C2 H1 1_555 1_555
C3 C4 1_555 1_555
C4 H2 1_555 1_555
N1 C3 1_555 1_555
N2 N1 1_555 1_555
N3 N2 1_555 1_555
N4 C3 1_555 1_555
N5 C1 1_555 1_555
N6 N5 1_555 1_555
N7 N6 1_555 1_555
N8 Sr1 1_555 1_555
O1 Sr1 1_555 1_555
H3 O1 1_555 1_555
H4 O1 1_555 1_555
O2 Sr1 1_555 1_555
O3 Sr1 1_555 1_555
H5 O2 1_555 1_555
H6 O2 1_555 1_555
H7 O3 1_555 1_555
Sr1A N1A 1_555 1_555
Sr1A_2 N2 1_555 1_555
Sr1A_3 N8A 1_555 1_555
Sr1_2 N2A 1_555 1_555
C1A C2A 1_555 1_555
C2A C2 1_555 1_555
H1A C2A 1_555 1_555
H1D C2A 1_555 1_555
H1E C2 1_555 1_555
C3A C4A 1_555 1_555
C4A C4 1_555 1_555
H2A C4A 1_555 1_555
H2D C4A 1_555 1_555
H2E C4 1_555 1_555
N1A C3A 1_555 1_555
N2A N1A 1_555 1_555
N2A_2 Sr1 1_555 1_555
N2_2 Sr1A 1_555 1_555
N3A N2A 1_555 1_555
N4A C3A 1_555 1_555
N5A C1A 1_555 1_555
N6A N5A 1_555 1_555
N7A N6A 1_555 1_555
N8A C1A 1_555 1_555
N8A_2 Sr1A 1_555 1_555
O1E Sr1 1_555 1_555
O1A Sr1A 1_555 1_555
O1D Sr1A 1_555 1_555
H3E O1E 1_555 1_555
H3A O1A 1_555 1_555
H3D O1D 1_555 1_555
H4E O1E 1_555 1_555
H4A O1A 1_555 1_555
H4D O1D 1_555 1_555
O2E Sr1 1_555 1_555
O2A Sr1A 1_555 1_555
O2D Sr1A 1_555 1_555
O3D Sr1 1_555 1_555
O3_2 Sr1A 1_555 1_555
O3D_2 Sr1A 1_555 1_555
H5E O2E 1_555 1_555
H5A O2A 1_555 1_555
H5D O2D 1_555 1_555
H6E O2E 1_555 1_555
H6A O2A 1_555 1_555
H6D O2D 1_555 1_555
H7A O3 1_555 1_555
H7D O3D 1_555 1_555
H7E O3D 1_555 1_555
H7A_2 O3_2 1_555 1_555
H7_2 O3_2 1_555 1_555
H7E_2 O3D_2 1_555 1_555
H7D_2 O3D_2 1_555 1_555
C1 N8 1_555 1_555
N3 N4 1_555 1_555
N7 N8 1_555 1_555
O3 Sr1A_2 1_555 1_555
Sr1A_2 O3D 1_555 1_555
Sr1_2 O3_2 1_555 1_555
Sr1_2 O3D_2 1_555 1_555
N3A N4A 1_555 1_555
N7A N8A 1_555 1_555

#END
