
#######################################################################
#
#                 Cambridge Crystallographic Data Centre
#                                CCDC 
#
#######################################################################
#
# If this CIF has been generated from an entry in the Cambridge 
# Structural Database, then it will include bibliographic, chemical, 
# crystal, experimental, refinement or atomic coordinate data resulting 
# from the CCDC's data processing and validation procedures.
#
#######################################################################

data_IROQIQ
_symmetry_cell_setting           triclinic
_symmetry_space_group_name_H-M   'P -1'
_symmetry_Int_Tables_number      2
_space_group_name_Hall           '-P 1'
loop_
_symmetry_equiv_pos_site_id
_symmetry_equiv_pos_as_xyz
1 x,y,z
2 -x,-y,-z
_cell_length_a                   7.1863(5)
_cell_length_b                   8.8115(4)
_cell_length_c                   12.2602(6)
_cell_angle_alpha                108.737(3)
_cell_angle_beta                 99.642(3)
_cell_angle_gamma                97.262(3)
_cell_volume                     711.182
loop_
_atom_site_label
_atom_site_type_symbol
_atom_site_fract_x
_atom_site_fract_y
_atom_site_fract_z
Cu1 Cu -0.55088(14) -0.85885(12) -0.94070(8)
Cu2 Cu -1.12207(19) -0.99929(16) -1.12471(13)
Cu3 Cu -0.36779(19) -1.02079(17) -1.40323(17)
I1 I -0.87783(7) -0.74520(6) -0.94912(4)
I2 I -0.46426(6) -0.91028(5) -1.15553(4)
I3 I -1.03725(7) -1.08680(6) -1.33844(4)
I4 I -0.37277(7) -0.74021(7) -1.43423(5)
C1 C -0.3171(12) -0.5176(9) -0.8654(6)
H1 H -0.4383 -0.4802 -0.8643
H2 H -0.3000 -0.5490 -0.9459
C2 C -0.1560(12) -0.3776(10) -0.7876(7)
H3 H -0.0328 -0.4085 -0.7958
H4 H -0.1634 -0.2835 -0.8117
C3 C -0.1812(13) -0.4807(10) -0.6220(7)
H5 H -0.2031 -0.4505 -0.5425
H6 H -0.0596 -0.5175 -0.6213
C4 C -0.3429(12) -0.6185(9) -0.7057(6)
H7 H -0.3412 -0.7135 -0.6821
H8 H -0.4652 -0.5851 -0.6986
N1 N -0.3286(8) -0.6644(7) -0.8294(5)
N2 N -0.1724(9) -0.3345(8) -0.6606(6)
H9 H -0.0704 -0.2573 -0.6141
H10 H -0.2791 -0.2926 -0.6518
Cu1A Cu -0.44912(14) -1.14115(12) -1.05930(8)
Cu2A Cu -0.87793(19) -1.00071(16) -0.87529(13)
Cu2_2 Cu -0.12207(19) -0.99929(16) -1.12471(13)
Cu3_2 Cu -1.36779(19) -1.02079(17) -1.40323(17)
Cu3A Cu -0.63221(19) -0.97921(17) -1.59677(17)
I1A I -1.12217(7) -1.25480(6) -1.05088(4)
I2A I -0.53574(6) -1.08972(5) -0.84447(4)
I2_2 I -1.46426(6) -0.91028(5) -1.15553(4)
I3_2 I -0.03725(7) -1.08680(6) -1.33844(4)
I4A I -0.62723(7) -1.25979(7) -1.56577(5)
loop_
_geom_bond_atom_site_label_1
_geom_bond_atom_site_label_2
_geom_bond_site_symmetry_1
_geom_bond_site_symmetry_2
Cu1 I1 1_555 1_555
Cu2 I1 1_555 1_555
Cu3 I2 1_555 1_555
I1 Cu2A 1_555 1_555
I2 Cu1 1_555 1_555
I3 Cu2 1_555 1_555
I4 Cu3 1_555 1_555
C1 H1 1_555 1_555
H2 C1 1_555 1_555
C2 C1 1_555 1_555
H3 C2 1_555 1_555
H4 C2 1_555 1_555
C3 H5 1_555 1_555
H6 C3 1_555 1_555
C4 C3 1_555 1_555
H7 C4 1_555 1_555
H8 C4 1_555 1_555
N1 Cu1 1_555 1_555
N2 C2 1_555 1_555
H9 N2 1_555 1_555
H10 N2 1_555 1_555
Cu1A I2 1_555 1_555
Cu2A I1A 1_555 1_555
Cu2_2 I2 1_555 1_555
Cu3_2 I3 1_555 1_555
Cu3A I4 1_555 1_555
I1A Cu2 1_555 1_555
I2A Cu1 1_555 1_555
I2_2 Cu2 1_555 1_555
I3_2 Cu3 1_555 1_555
I4A Cu3 1_555 1_555
C1 N1 1_555 1_555
C3 N2 1_555 1_555
C4 N1 1_555 1_555
Cu1A I2A 1_555 1_555
Cu2A I2A 1_555 1_555
Cu2_2 I3_2 1_555 1_555
Cu3_2 I2_2 1_555 1_555
Cu3A I4A 1_555 1_555

#END
