
#######################################################################
#
#                 Cambridge Crystallographic Data Centre
#                                CCDC 
#
#######################################################################
#
# If this CIF has been generated from an entry in the Cambridge 
# Structural Database, then it will include bibliographic, chemical, 
# crystal, experimental, refinement or atomic coordinate data resulting 
# from the CCDC's data processing and validation procedures.
#
#######################################################################

data_IRORUD
_symmetry_cell_setting           monoclinic
_symmetry_space_group_name_H-M   'P 21'
_symmetry_Int_Tables_number      4
_space_group_name_Hall           'P 2yb'
loop_
_symmetry_equiv_pos_site_id
_symmetry_equiv_pos_as_xyz
1 x,y,z
2 -x,1/2+y,-z
_cell_length_a                   13.3081(14)
_cell_length_b                   6.8904(7)
_cell_length_c                   13.4554(13)
_cell_angle_alpha                90
_cell_angle_beta                 110.873(7)
_cell_angle_gamma                90
_cell_volume                     1152.86
loop_
_atom_site_label
_atom_site_type_symbol
_atom_site_fract_x
_atom_site_fract_y
_atom_site_fract_z
C1 C 0.2139(4) 0.2628(8) 0.8379(4)
C2 C 0.1911(4) 0.2090(7) 0.9376(4)
H1 H 0.2506 0.2534 0.9993
H2 H 0.1272 0.2776 0.9366
C3 C 0.0758(4) -0.0703(7) 0.8987(4)
C4 C 0.0646(4) -0.2589(7) 0.9334(4)
H3 H 0.1234 -0.3206 0.9828
C5 C -0.0315(4) -0.3507(7) 0.8953(4)
H4 H -0.0380 -0.4740 0.9205
C6 C -0.1226(4) -0.2638(8) 0.8178(4)
C7 C -0.1097(4) -0.0766(7) 0.7804(4)
C8 C -0.0088(3) 0.0192(10) 0.8225(3)
H5 H -0.0003 0.1424 0.7985
C9 C -0.1995(3) 0.0094(11) 0.6991(3)
H6 H -0.1924 0.1311 0.6724
C10 C -0.2957(4) -0.0861(8) 0.6603(4)
C11 C -0.3083(4) -0.2700(9) 0.7004(5)
H7 H -0.3742 -0.3336 0.6739
C12 C -0.2246(4) -0.3534(8) 0.7772(4)
H8 H -0.2343 -0.4733 0.8042
C13 C 0.0332(4) 0.5490(7) 0.6562(4)
H9 H 0.0542 0.5635 0.7295
C14 C -0.0742(4) 0.5487(8) 0.5967(4)
H10 H -0.1248 0.5621 0.6293
C15 C -0.1066(4) 0.5285(10) 0.4881(4)
H11 H -0.1793 0.5243 0.4464
C16 C -0.0303(4) 0.5148(10) 0.4431(3)
H12 H -0.0501 0.5077 0.3695
C17 C 0.0773(3) 0.5114(10) 0.5077(3)
H13 H 0.1287 0.4962 0.4763
C18 C -0.3893(4) 0.1697(10) 0.5410(5)
H14 H -0.3442 0.2536 0.5971
H15 H -0.4623 0.2188 0.5198
C19 C -0.3526(4) 0.1864(10) 0.4462(4)
C20 C 0.4755(4) 0.4565(8) 0.8811(4)
H16 H 0.4515 0.5624 0.9093
C21 C 0.5699(5) 0.3662(12) 0.9418(5)
H17 H 0.6087 0.4110 1.0099
C22 C 0.6054(5) 0.2135(14) 0.9020(8)
H18 H 0.6684 0.1503 0.9425
C23 C 0.5473(6) 0.1512(11) 0.8003(7)
H19 H 0.5710 0.0464 0.7710
C24 C 0.4547(5) 0.2458(8) 0.7434(5)
H20 H 0.4159 0.2041 0.6746
Cu1 Cu 0.26889(4) 0.50710(7) 0.70500(4)
H21 H 0.349(6) 0.846(11) 0.717(6)
N1 N 0.1101(3) 0.5291(7) 0.6134(3)
N2 N 0.4174(3) 0.3965(6) 0.7827(3)
O1 O 0.2326(3) 0.4428(5) 0.8315(3)
O2 O 0.2121(3) 0.1379(5) 0.7714(3)
O3 O 0.1759(2) 0.0081(7) 0.9491(2)
O4 O -0.3871(2) -0.0183(8) 0.5837(3)
O5 O -0.3105(3) 0.0377(6) 0.4218(3)
O6 O -0.3666(4) 0.3459(7) 0.4020(4)
O7 O 0.3187(3) 0.8013(5) 0.7732(3)
H22 H 0.2660 0.8602 0.7755
Cu1A Cu -0.26889(4) 0.00710(7) 0.29500(4)
O5A O 0.3105(3) 0.5377(6) 0.5782(3)
loop_
_geom_bond_atom_site_label_1
_geom_bond_atom_site_label_2
_geom_bond_site_symmetry_1
_geom_bond_site_symmetry_2
C1 C2 1_555 1_555
C2 H1 1_555 1_555
H2 C2 1_555 1_555
C3 C4 1_555 1_555
C4 H3 1_555 1_555
C5 C4 1_555 1_555
H4 C5 1_555 1_555
C6 C5 1_555 1_555
C7 C6 1_555 1_555
C8 C3 1_555 1_555
H5 C8 1_555 1_555
C9 C7 1_555 1_555
H6 C9 1_555 1_555
C10 C9 1_555 1_555
C11 C10 1_555 1_555
H7 C11 1_555 1_555
C12 C6 1_555 1_555
H8 C12 1_555 1_555
C13 H9 1_555 1_555
C14 C13 1_555 1_555
H10 C14 1_555 1_555
C15 C14 1_555 1_555
H11 C15 1_555 1_555
C16 C15 1_555 1_555
H12 C16 1_555 1_555
C17 C16 1_555 1_555
H13 C17 1_555 1_555
C18 H14 1_555 1_555
H15 C18 1_555 1_555
C19 C18 1_555 1_555
C20 H16 1_555 1_555
C21 C20 1_555 1_555
H17 C21 1_555 1_555
C22 C21 1_555 1_555
H18 C22 1_555 1_555
C23 C22 1_555 1_555
H19 C23 1_555 1_555
C24 C23 1_555 1_555
H20 C24 1_555 1_555
Cu1 N1 1_555 1_555
H21 O7 1_555 1_555
N1 C13 1_555 1_555
N2 C20 1_555 1_555
O1 C1 1_555 1_555
O2 C1 1_555 1_555
O3 C2 1_555 1_555
O4 C10 1_555 1_555
O5 C19 1_555 1_555
O6 C19 1_555 1_555
O7 Cu1 1_555 1_555
H22 O7 1_555 1_555
Cu1A O5 1_555 1_555
O5A Cu1 1_555 1_555
C3 O3 1_555 1_555
C7 C8 1_555 1_555
C11 C12 1_555 1_555
C17 N1 1_555 1_555
C18 O4 1_555 1_555
C24 N2 1_555 1_555
Cu1 N2 1_555 1_555
Cu1 O1 1_555 1_555

#END
