
#######################################################################
#
#                 Cambridge Crystallographic Data Centre
#                                CCDC 
#
#######################################################################
#
# If this CIF has been generated from an entry in the Cambridge 
# Structural Database, then it will include bibliographic, chemical, 
# crystal, experimental, refinement or atomic coordinate data resulting 
# from the CCDC's data processing and validation procedures.
#
#######################################################################

data_IRORAJ
_symmetry_cell_setting           triclinic
_symmetry_space_group_name_H-M   'P -1'
_symmetry_Int_Tables_number      2
_space_group_name_Hall           '-P 1'
loop_
_symmetry_equiv_pos_site_id
_symmetry_equiv_pos_as_xyz
1 x,y,z
2 -x,-y,-z
_cell_length_a                   9.2301(8)
_cell_length_b                   10.0916(8)
_cell_length_c                   13.0872(11)
_cell_angle_alpha                108.078(2)
_cell_angle_beta                 102.556(2)
_cell_angle_gamma                99.308(2)
_cell_volume                     1096.08
loop_
_atom_site_label
_atom_site_type_symbol
_atom_site_fract_x
_atom_site_fract_y
_atom_site_fract_z
Cd1 Cd 1.06031(4) -0.98606(4) 0.21541(3)
O1 O 1.0166(4) -0.7506(4) 0.2629(3)
O2 O 1.1592(5) -0.8059(4) 0.1492(3)
O3 O 0.9062(4) -1.0308(4) 0.3179(3)
O4 O 0.7173(4) -1.1867(4) 0.1729(3)
O5 O 0.8442(5) -1.0414(4) 0.0613(3)
H1 H 0.7963 -1.0933 0.0943
H2 H 0.8558 -1.1025 -0.0008
N1 N 1.1161(5) -0.1966(4) 0.1260(3)
N2 N 1.2222(5) -0.3539(4) 0.0276(3)
H3 H 1.2709 -0.3912 -0.0207
N3 N 0.7095(5) -1.0873(4) 0.6523(4)
N4 N 0.4567(5) -1.1672(5) 0.5834(4)
H4 H 0.3603 -1.1936 0.5817
C1 C 1.1871(6) -0.2242(5) 0.0494(4)
H5 H 1.2120 -0.1602 0.0122
C2 C 1.0994(5) -0.3162(5) 0.1581(4)
C3 C 1.0323(6) -0.3455(5) 0.2366(4)
H6 H 0.9879 -0.2783 0.2801
C4 C 1.0330(6) -0.4768(5) 0.2486(4)
H7 H 0.9860 -0.5007 0.3005
C5 C 1.1009(6) -0.5758(5) 0.1866(4)
C6 C 1.1703(5) -0.5464(5) 0.1103(4)
H8 H 1.2182 -0.6122 0.0693
C7 C 1.1670(5) -0.4153(5) 0.0959(4)
C8 C 1.0921(6) -0.7185(5) 0.2014(4)
C9 C 0.5789(6) -1.1195(6) 0.6740(5)
H9 H 0.5715 -1.1100 0.7471
C10 C 0.6701(6) -1.1163(5) 0.5369(4)
C11 C 0.7581(6) -1.0985(5) 0.4671(4)
H10 H 0.8659 -1.0607 0.4960
C12 C 0.6865(6) -1.1367(6) 0.3548(4)
C13 C 0.5247(6) -1.1920(6) 0.3127(5)
H11 H 0.4772 -1.2203 0.2346
C14 C 0.4360(6) -1.2052(6) 0.3814(5)
H12 H 0.3278 -1.2394 0.3530
C15 C 0.5102(6) -1.1667(6) 0.4950(5)
C16 C 0.7739(6) -1.1171(5) 0.2759(4)
Cd1_2 Cd 1.06031(4) 0.01394(4) 0.21541(3)
Cd1A Cd 0.93969(4) -1.01394(4) 0.78459(3)
N1_2 N 1.1161(5) -1.1966(4) 0.1260(3)
N3A N 1.2905(5) -0.9127(4) 0.3477(4)
O6 O 0.6116(4) -0.4818(4) 0.0954(3)
H13 H 0.6494 -0.3864 0.1171
H14 H 0.5667 -0.4978 0.1463
O7 O 0.8597(5) 0.2344(5) 0.4616(4)
H15 H 0.9039 0.1754 0.4179
H16 H 0.8790 0.3196 0.4520
O8 O 0.6796(7) 0.1921(7) 0.1835(6)
H17 H 0.6169 0.2509 0.1654
H18 H 0.7791 0.2290 0.1827
O10 O 0.8788(12) 0.5565(10) 0.4876(9)
H21 H 0.8990 0.4802 0.4926
C17 C 0.722(2) 0.5272(16) 0.4259(16)
H22 H 0.6981 0.6226 0.4479
H23 H 0.6660 0.4727 0.4627
C18 C 0.6247(15) 0.4500(15) 0.2924(14)
H24 H 0.5167 0.4507 0.2836
H25 H 0.6335 0.3505 0.2645
H26 H 0.6662 0.5029 0.2495
O9? O 0.5087(11) 0.0426(13) 0.9588(11)
H19? H 0.4120 0.0516 0.9405
H20? H 0.5597 0.1177 1.0284
C19? C 0.456(3) 0.5323(18) 0.6425(15)
C20? C 0.6019(15) 0.5429(13) 0.5970(12)
H27? H 0.5454 0.6762 0.7847
H28? H 0.3811 0.5703 0.6003
H29? H 0.4089 0.4289 0.6227
H30? H 0.5689 0.5049 0.5148
H31? H 0.6678 0.4867 0.6241
H32? H 0.6590 0.6437 0.6240
O11? O 0.473(2) 0.6020(16) 0.7584(12)
loop_
_geom_bond_atom_site_label_1
_geom_bond_atom_site_label_2
_geom_bond_site_symmetry_1
_geom_bond_site_symmetry_2
Cd1 O1 1_555 1_555
O1 C8 1_555 1_555
O2 Cd1 1_555 1_555
O3 Cd1 1_555 1_555
O4 C16 1_555 1_555
O5 Cd1 1_555 1_555
H1 O5 1_555 1_555
H2 O5 1_555 1_555
N1 C1 1_555 1_555
N2 H3 1_555 1_555
N3 C9 1_555 1_555
N4 H4 1_555 1_555
C1 N2 1_555 1_555
H5 C1 1_555 1_555
C2 N1 1_555 1_555
C3 C2 1_555 1_555
H6 C3 1_555 1_555
C4 C3 1_555 1_555
H7 C4 1_555 1_555
C5 C4 1_555 1_555
C6 C5 1_555 1_555
H8 C6 1_555 1_555
C7 N2 1_555 1_555
C8 O2 1_555 1_555
C9 N4 1_555 1_555
H9 C9 1_555 1_555
C10 N3 1_555 1_555
C11 C10 1_555 1_555
H10 C11 1_555 1_555
C12 C11 1_555 1_555
C13 C12 1_555 1_555
H11 C13 1_555 1_555
C14 C13 1_555 1_555
H12 C14 1_555 1_555
C15 N4 1_555 1_555
C16 O3 1_555 1_555
O6 H13 1_555 1_555
H14 O6 1_555 1_555
O7 H15 1_555 1_555
H16 O7 1_555 1_555
O8 H17 1_555 1_555
H18 O8 1_555 1_555
O10 H21 1_555 1_555
C17 O10 1_555 1_555
H22 C17 1_555 1_555
H23 C17 1_555 1_555
C18 C17 1_555 1_555
H24 C18 1_555 1_555
H25 C18 1_555 1_555
H26 C18 1_555 1_555
Cd1_2 N1 1_555 1_555
Cd1A N3 1_555 1_555
N1_2 Cd1 1_555 1_555
N3A Cd1 1_555 1_555
C2 C7 1_555 1_555
C5 C8 1_555 1_555
C6 C7 1_555 1_555
C10 C15 1_555 1_555
C12 C16 1_555 1_555
C14 C15 1_555 1_555

#END
