
#######################################################################
#
#                 Cambridge Crystallographic Data Centre
#                                CCDC 
#
#######################################################################
#
# If this CIF has been generated from an entry in the Cambridge 
# Structural Database, then it will include bibliographic, chemical, 
# crystal, experimental, refinement or atomic coordinate data resulting 
# from the CCDC's data processing and validation procedures.
#
#######################################################################

data_IRORIR
_symmetry_cell_setting           monoclinic
_symmetry_space_group_name_H-M   'P 21/c'
_symmetry_Int_Tables_number      14
_space_group_name_Hall           '-P 2ybc'
loop_
_symmetry_equiv_pos_site_id
_symmetry_equiv_pos_as_xyz
1 x,y,z
2 -x,1/2+y,1/2-z
3 -x,-y,-z
4 x,1/2-y,1/2+z
_cell_length_a                   14.7996(9)
_cell_length_b                   8.8387(5)
_cell_length_c                   13.8202(7)
_cell_angle_alpha                90
_cell_angle_beta                 104.601(3)
_cell_angle_gamma                90
_cell_volume                     1749.43
loop_
_atom_site_label
_atom_site_type_symbol
_atom_site_fract_x
_atom_site_fract_y
_atom_site_fract_z
Cu1 Cu -0.26784(4) 0.21751(5) 0.51332(3)
O1 O -0.4160(2) 0.5538(3) 0.90781(19)
O2 O -0.34808(19) 0.3393(3) 0.87868(17)
O3 O -0.1887(2) 0.2254(4) 0.1433(2)
O4 O -0.1135(2) 0.0383(4) 0.0888(2)
N1 N -0.3861(2) 0.6429(3) 0.4657(2)
H1 H -0.3926 0.7330 0.4364
N2 N -0.3327(2) 0.4123(3) 0.5098(2)
N3 N -0.0994(3) -0.1607(5) 0.5310(3)
H2 H -0.0750 -0.2456 0.5556
N4 N -0.1860(2) 0.0473(4) 0.5012(2)
C1 C -0.3442(3) 0.5198(4) 0.4400(3)
C2 C -0.3686(3) 0.4734(4) 0.5860(2)
C3 C -0.3677(3) 0.4167(4) 0.6796(2)
H3 H -0.3451 0.3202 0.6987
C4 C -0.4017(3) 0.5089(4) 0.7442(3)
C5 C -0.4412(3) 0.6498(4) 0.7118(3)
H4 H -0.4672 0.7067 0.7546
C6 C -0.4426(3) 0.7071(4) 0.6185(3)
H5 H -0.4692 0.8007 0.5975
C7 C -0.4028(3) 0.6189(4) 0.5581(2)
C8 C -0.3097(3) 0.5124(5) 0.3484(3)
H6 H -0.2746 0.6022 0.3435
H7 H -0.3618 0.5049 0.2909
H8 H -0.2703 0.4253 0.3515
C9 C -0.3890(3) 0.4645(4) 0.8512(3)
C10 C -0.1560(4) -0.0663(5) 0.5653(3)
C11 C -0.1478(3) 0.0199(5) 0.4198(3)
C12 C -0.1590(3) 0.0972(5) 0.3312(3)
H9 H -0.1942 0.1855 0.3189
C13 C -0.1160(3) 0.0393(5) 0.2604(3)
C14 C -0.0591(3) -0.0886(6) 0.2822(3)
H10 H -0.0294 -0.1238 0.2348
C15 C -0.0457(4) -0.1643(6) 0.3719(3)
H11 H -0.0065 -0.2480 0.3869
C16 C -0.0934(3) -0.1093(6) 0.4386(3)
C17 C -0.1793(4) -0.0864(6) 0.6625(3)
H12 H -0.2314 -0.0229 0.6648
H13 H -0.1264 -0.0590 0.7157
H14 H -0.1953 -0.1902 0.6700
C18 C -0.1390(3) 0.1046(6) 0.1564(3)
O5 O -0.3782(2) 0.0841(3) 0.5873(2)
H15 H -0.4268 0.0807 0.6102
H16 H -0.3865 0.0191 0.5371
Cu1C Cu -0.26784(4) 0.28249(5) 1.01332(3)
Cu1C_2 Cu -0.26784(4) 0.28249(5) 0.01332(3)
O2C O -0.34808(19) 0.1607(3) 0.37868(17)
O3C O -0.1887(2) 0.2746(4) 0.6433(2)
O6 O -0.9571(4) 0.8943(6) 0.0801(4)
H17 H -0.9030 0.9241 0.0814
H18 H -0.9986 0.9557 0.0502
loop_
_geom_bond_atom_site_label_1
_geom_bond_atom_site_label_2
_geom_bond_site_symmetry_1
_geom_bond_site_symmetry_2
Cu1 N2 1_555 1_555
O1 C9 1_555 1_555
O2 C9 1_555 1_555
O3 C18 1_555 1_555
O4 C18 1_555 1_555
N1 H1 1_555 1_555
N2 C1 1_555 1_555
N3 H2 1_555 1_555
N4 Cu1 1_555 1_555
C1 N1 1_555 1_555
C2 N2 1_555 1_555
C3 C2 1_555 1_555
H3 C3 1_555 1_555
C4 C3 1_555 1_555
C5 C4 1_555 1_555
H4 C5 1_555 1_555
C6 C5 1_555 1_555
H5 C6 1_555 1_555
C7 N1 1_555 1_555
C8 C1 1_555 1_555
H6 C8 1_555 1_555
H7 C8 1_555 1_555
H8 C8 1_555 1_555
C9 C4 1_555 1_555
C10 N3 1_555 1_555
C11 N4 1_555 1_555
C12 C11 1_555 1_555
H9 C12 1_555 1_555
C13 C12 1_555 1_555
C14 C13 1_555 1_555
H10 C14 1_555 1_555
C15 C14 1_555 1_555
H11 C15 1_555 1_555
C16 N3 1_555 1_555
C17 C10 1_555 1_555
H12 C17 1_555 1_555
H13 C17 1_555 1_555
H14 C17 1_555 1_555
C18 C13 1_555 1_555
O5 Cu1 1_555 1_555
H15 O5 1_555 1_555
H16 O5 1_555 1_555
O6 H17 1_555 1_555
H18 O6 1_555 1_555
Cu1C O2 1_555 1_555
Cu1C_2 O3 1_555 1_555
O2C Cu1 1_555 1_555
O3C Cu1 1_555 1_555
N4 C10 1_555 1_555
C2 C7 1_555 1_555
C6 C7 1_555 1_555
C11 C16 1_555 1_555
C15 C16 1_555 1_555

#END
