
#######################################################################
#
#                 Cambridge Crystallographic Data Centre
#                                CCDC 
#
#######################################################################
#
# If this CIF has been generated from an entry in the Cambridge 
# Structural Database, then it will include bibliographic, chemical, 
# crystal, experimental, refinement or atomic coordinate data resulting 
# from the CCDC's data processing and validation procedures.
#
#######################################################################

data_IROROX
_symmetry_cell_setting           monoclinic
_symmetry_space_group_name_H-M   'P 21/c'
_symmetry_Int_Tables_number      14
_space_group_name_Hall           '-P 2ybc'
loop_
_symmetry_equiv_pos_site_id
_symmetry_equiv_pos_as_xyz
1 x,y,z
2 -x,1/2+y,1/2-z
3 -x,-y,-z
4 x,1/2-y,1/2+z
_cell_length_a                   15.6668(4)
_cell_length_b                   12.0204(3)
_cell_length_c                   15.4503(3)
_cell_angle_alpha                90
_cell_angle_beta                 112.6510(10)
_cell_angle_gamma                90
_cell_volume                     2685.19
loop_
_atom_site_label
_atom_site_type_symbol
_atom_site_fract_x
_atom_site_fract_y
_atom_site_fract_z
Cu1 Cu 0.26944(3) -0.00113(3) 0.03737(2)
O1 O 0.22370(15) 0.41812(18) 0.41875(14)
O2 O 0.35856(15) 0.33511(19) 0.49277(15)
O3 O 0.31832(15) -0.41700(18) -0.34387(14)
O4 O 0.18252(16) -0.3363(2) -0.41650(15)
N1 N 0.20072(18) 0.1001(2) 0.08868(17)
N2 N 0.09517(19) 0.2186(2) 0.09568(18)
H1 H 0.0436 0.2564 0.0766
N3 N 0.33933(18) -0.0987(2) -0.01469(17)
N4 N 0.45498(18) -0.1895(2) -0.03211(17)
H2 H 0.5118 -0.1952 -0.0216
C1 C 0.1163(2) 0.1413(3) 0.0444(2)
C2 C 0.1704(2) 0.2299(3) 0.1802(2)
C3 C 0.1850(2) 0.2951(3) 0.2582(2)
H3 H 0.1412 0.3466 0.2593
C4 C 0.2675(2) 0.2806(3) 0.3347(2)
C5 C 0.3330(2) 0.2042(3) 0.3309(2)
H4 H 0.3878 0.1961 0.3832
C6 C 0.3194(2) 0.1405(3) 0.2527(2)
H5 H 0.3641 0.0904 0.2513
C7 C 0.2365(2) 0.1537(3) 0.1759(2)
C8 C 0.0496(2) 0.1061(3) -0.0500(2)
H6 H 0.0602 0.1488 -0.0974
H7 H -0.0124 0.1186 -0.0543
H8 H 0.0580 0.0285 -0.0590
C9 C 0.2860(2) 0.3486(3) 0.4223(2)
C10 C 0.4290(2) -0.1206(3) 0.0232(2)
C11 C 0.3769(2) -0.2126(3) -0.1118(2)
C12 C 0.3638(2) -0.2783(3) -0.1905(2)
H9 H 0.4117 -0.3194 -0.1962
C13 C 0.2750(2) -0.2787(3) -0.2599(2)
C14 C 0.2029(2) -0.2186(3) -0.2496(2)
H10 H 0.1447 -0.2199 -0.2980
C15 C 0.2155(2) -0.1576(3) -0.1702(2)
H11 H 0.1668 -0.1196 -0.1633
C16 C 0.3049(2) -0.1550(3) -0.0999(2)
C17 C 0.4948(2) -0.0746(3) 0.1133(2)
H12 H 0.4769 0.0000 0.1209
H13 H 0.5560 -0.0741 0.1132
H14 H 0.4939 -0.1199 0.1642
C18 C 0.2562(2) -0.3469(3) -0.3463(2)
Cu1C Cu 0.26944(3) 0.50113(3) 0.53737(2)
Cu1C_2 Cu 0.26944(3) -0.49887(3) -0.46263(2)
O1C O 0.22370(15) 0.08188(18) -0.08125(14)
O2C O 0.35856(15) 0.16489(19) -0.00723(15)
O3C O 0.31832(15) -0.08300(18) 0.15613(14)
O4C O 0.18252(16) -0.1637(2) 0.08350(15)
O5 O 0.1474(2) 0.4965(2) 0.9357(2)
C19 C 0.0831(4) 0.4092(4) 0.8952(4)
H15 H 0.0395 0.4034 0.9256
H16 H 0.1150 0.3386 0.9013
C20 C 0.0349(3) 0.4393(5) 0.7950(4)
H17 H -0.0256 0.4703 0.7835
H18 H 0.0276 0.3746 0.7552
C21 C 0.0961(3) 0.5240(4) 0.7770(3)
H19 H 0.1121 0.5015 0.7249
H20 H 0.0656 0.5958 0.7628
C22 C 0.1790(3) 0.5291(4) 0.8643(3)
H21 H 0.2262 0.4786 0.8618
H22 H 0.2041 0.6039 0.8754
O6 O 0.5645(2) 0.5788(3) 0.8982(3)
C23 C 0.5713(4) 0.4705(5) 0.9316(5)
H23 H 0.5102 0.4406 0.9188
H24 H 0.6060 0.4694 0.9989
C24 C 0.6181(5) 0.4038(5) 0.8850(5)
H25 H 0.5739 0.3638 0.8322
H26 H 0.6596 0.3507 0.9281
C25 C 0.6713(4) 0.4872(4) 0.8524(4)
H27 H 0.7374 0.4738 0.8819
H28 H 0.6526 0.4845 0.7848
C26 C 0.6462(3) 0.5966(4) 0.8829(4)
H29 H 0.6952 0.6219 0.9400
H30 H 0.6363 0.6524 0.8346
O7 O 0.93277(18) 0.3283(2) 0.0112(2)
H31 H 0.9093 0.3971 0.0190
H32 H 0.8907 0.2772 -0.0209
loop_
_geom_bond_atom_site_label_1
_geom_bond_atom_site_label_2
_geom_bond_site_symmetry_1
_geom_bond_site_symmetry_2
Cu1 N1 1_555 1_555
O1 C9 1_555 1_555
O2 C9 1_555 1_555
O3 C18 1_555 1_555
O4 C18 1_555 1_555
N1 C1 1_555 1_555
N2 H1 1_555 1_555
N3 Cu1 1_555 1_555
N4 H2 1_555 1_555
C1 N2 1_555 1_555
C2 N2 1_555 1_555
C3 C2 1_555 1_555
H3 C3 1_555 1_555
C4 C3 1_555 1_555
C5 C4 1_555 1_555
H4 C5 1_555 1_555
C6 C5 1_555 1_555
H5 C6 1_555 1_555
C7 N1 1_555 1_555
C8 C1 1_555 1_555
H6 C8 1_555 1_555
H7 C8 1_555 1_555
H8 C8 1_555 1_555
C9 C4 1_555 1_555
C10 N3 1_555 1_555
C11 N4 1_555 1_555
C12 C11 1_555 1_555
H9 C12 1_555 1_555
C13 C12 1_555 1_555
C14 C13 1_555 1_555
H10 C14 1_555 1_555
C15 C14 1_555 1_555
H11 C15 1_555 1_555
C16 N3 1_555 1_555
C17 C10 1_555 1_555
H12 C17 1_555 1_555
H13 C17 1_555 1_555
H14 C17 1_555 1_555
C18 C13 1_555 1_555
O5 C19 1_555 1_555
C19 H15 1_555 1_555
H16 C19 1_555 1_555
C20 C19 1_555 1_555
H17 C20 1_555 1_555
H18 C20 1_555 1_555
C21 C20 1_555 1_555
H19 C21 1_555 1_555
H20 C21 1_555 1_555
C22 O5 1_555 1_555
H21 C22 1_555 1_555
H22 C22 1_555 1_555
O6 C23 1_555 1_555
C23 H23 1_555 1_555
H24 C23 1_555 1_555
C24 C23 1_555 1_555
H25 C24 1_555 1_555
H26 C24 1_555 1_555
C25 C24 1_555 1_555
H27 C25 1_555 1_555
H28 C25 1_555 1_555
C26 O6 1_555 1_555
H29 C26 1_555 1_555
H30 C26 1_555 1_555
O7 H31 1_555 1_555
H32 O7 1_555 1_555
Cu1C O1 1_555 1_555
Cu1C_2 O3 1_555 1_555
O1C Cu1 1_555 1_555
O2C Cu1 1_555 1_555
O3C Cu1 1_555 1_555
O4C Cu1 1_555 1_555
O2 Cu1C 1_555 1_555
O4 Cu1C_2 1_555 1_555
N4 C10 1_555 1_555
C2 C7 1_555 1_555
C6 C7 1_555 1_555
C11 C16 1_555 1_555
C15 C16 1_555 1_555
C21 C22 1_555 1_555
C25 C26 1_555 1_555

#END
