
#######################################################################
#
#                 Cambridge Crystallographic Data Centre
#                                CCDC 
#
#######################################################################
#
# If this CIF has been generated from an entry in the Cambridge 
# Structural Database, then it will include bibliographic, chemical, 
# crystal, experimental, refinement or atomic coordinate data resulting 
# from the CCDC's data processing and validation procedures.
#
#######################################################################

data_IROSIS
_symmetry_cell_setting           triclinic
_symmetry_space_group_name_H-M   'P -1'
_symmetry_Int_Tables_number      2
_space_group_name_Hall           '-P 1'
loop_
_symmetry_equiv_pos_site_id
_symmetry_equiv_pos_as_xyz
1 x,y,z
2 -x,-y,-z
_cell_length_a                   6.8256(6)
_cell_length_b                   8.6984(8)
_cell_length_c                   14.9548(13)
_cell_angle_alpha                102.797(4)
_cell_angle_beta                 97.981(4)
_cell_angle_gamma                92.445(4)
_cell_volume                     854.971
loop_
_atom_site_label
_atom_site_type_symbol
_atom_site_fract_x
_atom_site_fract_y
_atom_site_fract_z
C1 C 1.4810(15) 0.6080(13) 0.7592(7)
C2 C 1.5883(14) 0.6603(13) 0.8591(7)
C3 C 1.3852(16) 0.3721(14) 0.6422(7)
C4 C 1.3224(15) 0.4528(13) 0.5759(7)
H1 H 1.3401 0.5626 0.5896
C5 C 1.2307(15) 0.3694(13) 0.4867(7)
C6 C 1.1976(17) 0.2023(14) 0.4667(8)
C7 C 1.267(2) 0.1237(15) 0.5380(9)
H2 H 1.2493 0.0140 0.5259
C8 C 1.357(2) 0.2038(15) 0.6219(9)
H3 H 1.4017 0.1495 0.6669
C9 C 1.1689(14) 0.4490(12) 0.4154(7)
H4 H 1.1911 0.5582 0.4266
C10 C 1.0774(15) 0.3658(13) 0.3307(7)
C11 C 1.0376(18) 0.2000(14) 0.3124(8)
H5 H 0.9695 0.1454 0.2551
C12 C 1.099(2) 0.1215(14) 0.3781(8)
H6 H 1.0752 0.0121 0.3650
C13 C 0.9545(15) 0.6460(13) 0.1838(7)
Cd1 Cd 0.77057(10) 0.75694(8) 0.03977(5)
O1 O 1.6495(11) 0.5637(9) 0.9036(5)
O2 O 1.6092(12) 0.8076(9) 0.8926(6)
O3 O 0.9721(13) 0.7925(10) 0.1867(6)
O4 O 0.8620(12) 0.5490(9) 0.1147(5)
O5 O 1.0150(12) 0.4305(9) 0.2562(5)
O6 O 1.4704(12) 0.4400(9) 0.7323(5)
O7 O 0.4650(12) 0.7296(8) 0.0844(5)
O8 O 0.7448(12) 1.0265(10) 0.0887(6)
O9 O 1.0747(11) 0.7459(8) -0.0186(5)
H7 H 1.0817 0.6572 -0.0506
H8 H 0.4301 0.7960 0.1152
H9 H 0.4297 0.6478 0.0945
H10 H 0.6254 1.0639 0.0872
H11 H 0.8399 1.0294 0.0504
C14 C 1.0491(16) 0.5972(13) 0.2698(7)
H12 H 1.1905 0.6268 0.2812
H13 H 0.9921 0.6505 0.3231
H14 H 1.191(7) 0.736(16) 0.000(10)
Cd1_2 Cd 1.77057(10) 0.75694(8) 1.03977(5)
O1_2 O 0.6495(11) 0.5637(9) -0.0964(5)
O2_2 O 0.6092(12) 0.8076(9) -0.1074(6)
O10 O 0.3538(16) 0.9624(12) 0.2129(7)
loop_
_geom_bond_atom_site_label_1
_geom_bond_atom_site_label_2
_geom_bond_site_symmetry_1
_geom_bond_site_symmetry_2
C1 C2 1_555 1_555
C2 O1 1_555 1_555
C3 C4 1_555 1_555
C4 H1 1_555 1_555
C5 C4 1_555 1_555
C6 C5 1_555 1_555
C7 C6 1_555 1_555
H2 C7 1_555 1_555
C8 C3 1_555 1_555
H3 C8 1_555 1_555
C9 C5 1_555 1_555
H4 C9 1_555 1_555
C10 C9 1_555 1_555
C11 C10 1_555 1_555
H5 C11 1_555 1_555
C12 C6 1_555 1_555
H6 C12 1_555 1_555
C13 O3 1_555 1_555
Cd1 O3 1_555 1_555
O1 Cd1_2 1_555 1_555
O2 C2 1_555 1_555
O4 C13 1_555 1_555
O5 C10 1_555 1_555
O6 C1 1_555 1_555
O7 Cd1 1_555 1_555
O8 Cd1 1_555 1_555
O9 Cd1 1_555 1_555
H7 O9 1_555 1_555
H8 O7 1_555 1_555
H9 O7 1_555 1_555
H10 O8 1_555 1_555
H11 O8 1_555 1_555
C14 C13 1_555 1_555
H12 C14 1_555 1_555
H13 C14 1_555 1_555
H14 O9 1_555 1_555
Cd1_2 O2 1_555 1_555
O1_2 Cd1 1_555 1_555
O2_2 Cd1 1_555 1_555
C3 O6 1_555 1_555
C7 C8 1_555 1_555
C11 C12 1_555 1_555
Cd1 O4 1_555 1_555
O5 C14 1_555 1_555

#END
