
#######################################################################
#
#                 Cambridge Crystallographic Data Centre
#                                CCDC 
#
#######################################################################
#
# If this CIF has been generated from an entry in the Cambridge 
# Structural Database, then it will include bibliographic, chemical, 
# crystal, experimental, refinement or atomic coordinate data resulting 
# from the CCDC's data processing and validation procedures.
#
#######################################################################

data_IROSOY
_symmetry_cell_setting           triclinic
_symmetry_space_group_name_H-M   'P -1'
_symmetry_Int_Tables_number      2
_space_group_name_Hall           '-P 1'
loop_
_symmetry_equiv_pos_site_id
_symmetry_equiv_pos_as_xyz
1 x,y,z
2 -x,-y,-z
_cell_length_a                   9.0066(8)
_cell_length_b                   10.7658(10)
_cell_length_c                   15.4196(15)
_cell_angle_alpha                90.299(6)
_cell_angle_beta                 94.313(6)
_cell_angle_gamma                103.408(5)
_cell_volume                     1449.87
loop_
_atom_site_label
_atom_site_type_symbol
_atom_site_fract_x
_atom_site_fract_y
_atom_site_fract_z
C1 C 0.1438(9) 0.1511(7) 0.1184(6)
C2 C 0.0146(9) 0.0336(7) 0.1284(6)
H1 H -0.0769 0.0460 0.0957
H2 H 0.0420 -0.0396 0.1026
C3 C 0.0837(9) -0.0373(7) 0.2695(6)
C4 C 0.0529(10) -0.0419(7) 0.3569(6)
H3 H -0.0361 -0.0216 0.3732
C5 C 0.1505(11) -0.0755(7) 0.4178(6)
H4 H 0.1299 -0.0758 0.4760
C6 C 0.2846(10) -0.1103(7) 0.3936(6)
C7 C 0.3963(12) -0.1425(8) 0.4565(6)
H5 H 0.3847 -0.1358 0.5156
C8 C 0.5169(11) -0.1821(8) 0.4298(7)
H6 H 0.5840 -0.2076 0.4710
C9 C 0.5442(9) -0.1861(7) 0.3408(6)
C10 C 0.4447(9) -0.1503(6) 0.2798(6)
H7 H 0.4626 -0.1520 0.2212
C11 C 0.3141(8) -0.1107(6) 0.3053(5)
C12 C 0.2111(8) -0.0726(6) 0.2441(5)
H8 H 0.2294 -0.0712 0.1855
C13 C 0.6964(9) -0.2468(8) 0.2372(7)
H9 H 0.7996 -0.2583 0.2343
H10 H 0.6896 -0.1701 0.2060
C14 C 0.5849(9) -0.3603(7) 0.1913(6)
C15 C 0.5422(9) 0.2015(7) 0.2063(6)
H11 H 0.4702 0.1639 0.1617
C16 C 0.6679(10) 0.1503(8) 0.2234(6)
H12 H 0.6789 0.0798 0.1916
C17 C 0.7762(10) 0.2052(8) 0.2882(6)
H13 H 0.8634 0.1742 0.3007
C18 C 0.7521(10) 0.3069(9) 0.3338(6)
H14 H 0.8229 0.3455 0.3786
C19 C 0.6225(10) 0.3527(8) 0.3133(5)
H15 H 0.6083 0.4218 0.3454
C20 C 0.2110(10) 0.5929(8) 0.1044(5)
H16 H 0.3126 0.6235 0.0925
C21 C 0.1029(12) 0.6585(8) 0.0719(6)
H17 H 0.1319 0.7318 0.0397
C22 C -0.0480(12) 0.6118(10) 0.0885(6)
H18 H -0.1232 0.6527 0.0675
C23 C -0.0842(11) 0.5060(10) 0.1358(6)
H19 H -0.1851 0.4726 0.1479
C24 C 0.0303(10) 0.4472(9) 0.1661(6)
H20 H 0.0036 0.3742 0.1988
C25 C 0.2175(8) 0.2929(7) 0.3711(5)
H21 H 0.2184 0.2149 0.3451
C26 C 0.1666(9) 0.2934(8) 0.4532(5)
H22 H 0.1349 0.2170 0.4818
C27 C 0.1632(11) 0.4042(10) 0.4915(6)
H23 H 0.1311 0.4067 0.5473
C28 C 0.2084(12) 0.5146(9) 0.4462(7)
H24 H 0.2044 0.5930 0.4703
C29 C 0.2592(10) 0.5080(8) 0.3654(5)
H25 H 0.2908 0.5834 0.3358
N1 N 0.5171(7) 0.3018(5) 0.2495(4)
N2 N 0.1756(7) 0.4898(6) 0.1510(4)
N3 N 0.2654(6) 0.3989(5) 0.3274(4)
Ni1 Ni 0.34267(11) 0.39361(8) 0.20280(6)
O1 O 0.1888(5) 0.2221(4) 0.1844(3)
O2 O 0.1924(8) 0.1693(6) 0.0447(4)
O3 O 0.5953(7) -0.3695(6) 0.1115(5)
O4 O 0.4951(5) -0.4352(4) 0.2347(3)
O5 O -0.0204(6) 0.0049(5) 0.2150(4)
O6 O 0.6716(6) -0.2284(5) 0.3252(5)
O7 O 0.4326(9) 0.3890(7) 0.0832(4)
H26 H 0.464(16) 0.467(3) 0.092(10)
H27 H 0.370(12) 0.372(13) 0.041(6)
Ni1_2 Ni 0.34267(11) -0.60639(8) 0.20280(6)
O4_2 O 0.4951(5) 0.5648(4) 0.2347(3)
O8 O 0.4068(15) 0.0797(13) 0.9543(7)
loop_
_geom_bond_atom_site_label_1
_geom_bond_atom_site_label_2
_geom_bond_site_symmetry_1
_geom_bond_site_symmetry_2
C1 C2 1_555 1_555
C2 H1 1_555 1_555
H2 C2 1_555 1_555
C3 C4 1_555 1_555
C4 H3 1_555 1_555
C5 C4 1_555 1_555
H4 C5 1_555 1_555
C6 C5 1_555 1_555
C7 C6 1_555 1_555
H5 C7 1_555 1_555
C8 C7 1_555 1_555
H6 C8 1_555 1_555
C9 C8 1_555 1_555
C10 C9 1_555 1_555
H7 C10 1_555 1_555
C11 C6 1_555 1_555
C12 C3 1_555 1_555
H8 C12 1_555 1_555
C13 H9 1_555 1_555
H10 C13 1_555 1_555
C14 C13 1_555 1_555
C15 H11 1_555 1_555
C16 C15 1_555 1_555
H12 C16 1_555 1_555
C17 C16 1_555 1_555
H13 C17 1_555 1_555
C18 C17 1_555 1_555
H14 C18 1_555 1_555
C19 C18 1_555 1_555
H15 C19 1_555 1_555
C20 H16 1_555 1_555
C21 C20 1_555 1_555
H17 C21 1_555 1_555
C22 C21 1_555 1_555
H18 C22 1_555 1_555
C23 C22 1_555 1_555
H19 C23 1_555 1_555
C24 C23 1_555 1_555
H20 C24 1_555 1_555
C25 H21 1_555 1_555
C26 C25 1_555 1_555
H22 C26 1_555 1_555
C27 C26 1_555 1_555
H23 C27 1_555 1_555
C28 C27 1_555 1_555
H24 C28 1_555 1_555
C29 C28 1_555 1_555
H25 C29 1_555 1_555
N1 C15 1_555 1_555
N2 C20 1_555 1_555
N3 C25 1_555 1_555
Ni1 N1 1_555 1_555
O1 C1 1_555 1_555
O2 C1 1_555 1_555
O3 C14 1_555 1_555
O4 C14 1_555 1_555
O5 C2 1_555 1_555
O6 C9 1_555 1_555
O7 Ni1 1_555 1_555
H26 O7 1_555 1_555
H27 O7 1_555 1_555
Ni1_2 O4 1_555 1_555
O4_2 Ni1 1_555 1_555
C3 O5 1_555 1_555
C10 C11 1_555 1_555
C11 C12 1_555 1_555
C13 O6 1_555 1_555
C19 N1 1_555 1_555
C24 N2 1_555 1_555
C29 N3 1_555 1_555
N2 Ni1 1_555 1_555
N3 Ni1 1_555 1_555
Ni1 O1 1_555 1_555

#END
