
#######################################################################
#
#                 Cambridge Crystallographic Data Centre
#                                CCDC 
#
#######################################################################
#
# If this CIF has been generated from an entry in the Cambridge 
# Structural Database, then it will include bibliographic, chemical, 
# crystal, experimental, refinement or atomic coordinate data resulting 
# from the CCDC's data processing and validation procedures.
#
#######################################################################

data_IROSAK
_symmetry_cell_setting           triclinic
_symmetry_space_group_name_H-M   'P -1'
_symmetry_Int_Tables_number      2
_space_group_name_Hall           '-P 1'
loop_
_symmetry_equiv_pos_site_id
_symmetry_equiv_pos_as_xyz
1 x,y,z
2 -x,-y,-z
_cell_length_a                   4.7577(2)
_cell_length_b                   5.8248(3)
_cell_length_c                   26.9737(13)
_cell_angle_alpha                87.754(3)
_cell_angle_beta                 89.692(3)
_cell_angle_gamma                84.740(3)
_cell_volume                     743.792
loop_
_atom_site_label
_atom_site_type_symbol
_atom_site_fract_x
_atom_site_fract_y
_atom_site_fract_z
C1 C -0.1611(9) 0.7126(7) 0.09586(15)
C2 C -0.3381(9) 0.6966(8) 0.14236(15)
H1 H -0.4417 0.5609 0.1418
H2 H -0.2162 0.6815 0.1712
C3 C -0.7023(9) 0.9108(8) 0.18672(15)
C4 C -0.7065(9) 0.7452(8) 0.22403(15)
H3 H -0.5832 0.6120 0.2231
C5 C -0.8994(9) 0.7769(7) 0.26424(15)
C6 C -1.0858(9) 0.9784(8) 0.26495(15)
C7 C -1.0725(10) 1.1469(8) 0.22592(17)
H4 H -1.1931 1.2818 0.2263
C8 C -0.8855(10) 1.1144(8) 0.18773(16)
H5 H -0.8792 1.2268 0.1624
C9 C -1.2840(10) 1.0046(8) 0.30476(16)
H6 H -1.4109 1.1357 0.3053
C10 C -1.2892(9) 0.8396(8) 0.34188(16)
H7 H -1.4199 0.8583 0.3675
C11 C -1.0976(9) 0.6410(8) 0.34156(15)
C12 C -0.9059(9) 0.6071(8) 0.30383(16)
H8 H -0.7810 0.4746 0.3040
C13 C -0.9150(9) 0.3022(8) 0.38916(16)
H9 H -0.7373 0.3592 0.3980
H10 H -0.8867 0.2171 0.3591
C14 C -1.0132(8) 0.1458(7) 0.43084(14)
H11 H -0.302(14) -0.433(12) 0.464(2)
H12 H -0.245(15) 1.360(13) -0.036(3)
H13 H -0.372(14) 0.918(12) -0.070(2)
Mn1 Mn -0.5000 0.0000 0.5000
Mn2 Mn 0.0000 1.0000 0.0000
O1 O -0.2351(6) 0.8685(6) 0.06340(11)
O2 O 0.0481(7) 0.5673(6) 0.09313(11)
O3 O -0.2620(7) -0.3203(6) 0.47942(13)
H14 H -0.1078 -0.2919 0.4682
O4 O -0.8414(6) -0.0222(5) 0.44435(10)
O5 O -1.2565(6) 0.1911(5) 0.44808(11)
O6 O -1.1248(7) 0.4900(6) 0.38129(11)
O7 O -0.5307(6) 0.8973(6) 0.14570(11)
O8 O -0.2679(7) 1.3155(6) -0.00411(14)
H15 H -0.4321 1.2880 0.0006
O9 O -0.2689(7) 0.8384(6) -0.05207(12)
H16 H -0.1750 0.7344 -0.0659
H11A H -0.698(14) 0.433(12) 0.536(2)
O3A O -0.7380(7) 0.3203(6) 0.52058(13)
H14A H -0.8922 0.2919 0.5318
C1A C -0.8389(9) -0.7126(7) 0.90414(15)
C2A C -0.6619(9) -0.6966(8) 0.85764(15)
H1A H -0.5583 -0.5609 0.8582
H2A H -0.7838 -0.6815 0.8288
C3A C -0.2977(9) -0.9108(8) 0.81328(15)
C4A C -0.2935(9) -0.7452(8) 0.77597(15)
H3A H -0.4168 -0.6120 0.7769
C5A C -0.1006(9) -0.7769(7) 0.73576(15)
C6A C 0.0858(9) -0.9784(8) 0.73505(15)
C7A C 0.0725(10) -1.1469(8) 0.77408(17)
H4A H 0.1931 -1.2818 0.7737
C8A C -0.1145(10) -1.1144(8) 0.81227(16)
H5A H -0.1208 -1.2268 0.8376
C9A C 0.2840(10) -1.0046(8) 0.69524(16)
H6A H 0.4109 -1.1357 0.6947
C10A C 0.2892(9) -0.8396(8) 0.65812(16)
H7A H 0.4199 -0.8583 0.6325
C11A C 0.0976(9) -0.6410(8) 0.65844(15)
C12A C -0.0941(9) -0.6071(8) 0.69617(16)
H8A H -0.2190 -0.4746 0.6960
C13A C -0.0850(9) -0.3022(8) 0.61084(16)
H9A H -0.2627 -0.3592 0.6020
H10A H -0.1133 -0.2171 0.6409
C14A C 0.0132(8) -0.1458(7) 0.56916(14)
O1A O -0.7649(6) -0.8685(6) 0.93660(11)
O2A O -1.0481(7) -0.5673(6) 0.90687(11)
O4A O -0.1586(6) 0.0222(5) 0.55565(10)
O5A O 0.2565(6) -0.1911(5) 0.55192(11)
O6A O 0.1248(7) -0.4900(6) 0.61871(11)
O7A O -0.4693(6) -0.8973(6) 0.85430(11)
H12A H 0.245(15) 0.640(13) 0.036(3)
O8A O 0.2679(7) 0.6845(6) 0.00411(14)
H15A H 0.4321 0.7120 -0.0006
H13A H 0.372(14) 1.082(12) 0.070(2)
O9A O 0.2689(7) 1.1616(6) 0.05207(12)
H16A H 0.1750 1.2656 0.0659
O5_2 O -0.2565(6) 0.1911(5) 0.44808(11)
O5A_2 O -0.7435(6) -0.1911(5) 0.55192(11)
O1A_2 O 0.2351(6) 1.1315(6) -0.06340(11)
Mn1_2 Mn -1.5000 0.0000 0.5000
Mn2A Mn -1.0000 -1.0000 1.0000
Mn1A Mn 0.5000 0.0000 0.5000
loop_
_geom_bond_atom_site_label_1
_geom_bond_atom_site_label_2
_geom_bond_site_symmetry_1
_geom_bond_site_symmetry_2
C1 C2 1_555 1_555
C2 H1 1_555 1_555
H2 C2 1_555 1_555
C3 C4 1_555 1_555
C4 H3 1_555 1_555
C5 C4 1_555 1_555
C6 C5 1_555 1_555
C7 C6 1_555 1_555
H4 C7 1_555 1_555
C8 C3 1_555 1_555
H5 C8 1_555 1_555
C9 C6 1_555 1_555
H6 C9 1_555 1_555
C10 C9 1_555 1_555
H7 C10 1_555 1_555
C11 C10 1_555 1_555
C12 C5 1_555 1_555
H8 C12 1_555 1_555
C13 H9 1_555 1_555
H10 C13 1_555 1_555
C14 C13 1_555 1_555
H11 O3 1_555 1_555
H12 O8 1_555 1_555
H13 O9 1_555 1_555
Mn1 O3 1_555 1_555
Mn2 O1 1_555 1_555
O1 C1 1_555 1_555
O2 C1 1_555 1_555
O3 H14 1_555 1_555
O4 C14 1_555 1_555
O5 C14 1_555 1_555
O6 C11 1_555 1_555
O7 C2 1_555 1_555
O8 Mn2 1_555 1_555
H15 O8 1_555 1_555
O9 Mn2 1_555 1_555
H16 O9 1_555 1_555
H11A O3A 1_555 1_555
O3A Mn1 1_555 1_555
H14A O3A 1_555 1_555
C1A C2A 1_555 1_555
C2A H1A 1_555 1_555
H2A C2A 1_555 1_555
C3A C4A 1_555 1_555
C4A H3A 1_555 1_555
C5A C4A 1_555 1_555
C6A C5A 1_555 1_555
C7A C6A 1_555 1_555
H4A C7A 1_555 1_555
C8A C3A 1_555 1_555
H5A C8A 1_555 1_555
C9A C6A 1_555 1_555
H6A C9A 1_555 1_555
C10A C9A 1_555 1_555
H7A C10A 1_555 1_555
C11A C10A 1_555 1_555
C12A C5A 1_555 1_555
H8A C12A 1_555 1_555
C13A H9A 1_555 1_555
H10A C13A 1_555 1_555
C14A C13A 1_555 1_555
O1A C1A 1_555 1_555
O2A C1A 1_555 1_555
O4A Mn1 1_555 1_555
O5A C14A 1_555 1_555
O6A C11A 1_555 1_555
O7A C2A 1_555 1_555
H12A O8A 1_555 1_555
O8A Mn2 1_555 1_555
H15A O8A 1_555 1_555
H13A O9A 1_555 1_555
O9A Mn2 1_555 1_555
H16A O9A 1_555 1_555
O5_2 Mn1 1_555 1_555
O5A_2 Mn1 1_555 1_555
O1A_2 Mn2 1_555 1_555
Mn1_2 O5 1_555 1_555
Mn2A O1A 1_555 1_555
Mn1A O5A 1_555 1_555
C3 O7 1_555 1_555
C7 C8 1_555 1_555
C11 C12 1_555 1_555
C13 O6 1_555 1_555
Mn1 O4 1_555 1_555
C3A O7A 1_555 1_555
C7A C8A 1_555 1_555
C11A C12A 1_555 1_555
C13A O6A 1_555 1_555
C14A O4A 1_555 1_555

#END
