
#######################################################################
#
#                 Cambridge Crystallographic Data Centre
#                                CCDC 
#
#######################################################################
#
# If this CIF has been generated from an entry in the Cambridge 
# Structural Database, then it will include bibliographic, chemical, 
# crystal, experimental, refinement or atomic coordinate data resulting 
# from the CCDC's data processing and validation procedures.
#
#######################################################################

data_IROTAL
_symmetry_cell_setting           orthorhombic
_symmetry_space_group_name_H-M   'A m a 2'
_symmetry_Int_Tables_number      40
_space_group_name_Hall           'A 2 -2a'
loop_
_symmetry_equiv_pos_site_id
_symmetry_equiv_pos_as_xyz
1 x,y,z
2 -x,-y,z
3 1/2+x,-y,z
4 1/2-x,y,z
5 x,1/2+y,1/2+z
6 -x,1/2-y,1/2+z
7 1/2+x,1/2-y,1/2+z
8 1/2-x,1/2+y,1/2+z
_cell_length_a                   13.317(2)
_cell_length_b                   10.5909(17)
_cell_length_c                   11.8134(19)
_cell_angle_alpha                90
_cell_angle_beta                 90
_cell_angle_gamma                90
_cell_volume                     1666.15
loop_
_atom_site_label
_atom_site_type_symbol
_atom_site_fract_x
_atom_site_fract_y
_atom_site_fract_z
C1 C 0.4475(3) 0.1474(4) 0.8967(4)
H1 H 0.4760 0.1208 0.8290
C2 C 0.5089(3) 0.1895(4) 0.9805(5)
H2 H 0.5779 0.1946 0.9690
C3 C 0.4671(3) 0.2249(4) 1.0836(5)
H3 H 0.5078 0.2518 1.1429
C4 C 0.3639(3) 0.2195(4) 1.0966(3)
H4 H 0.3342 0.2418 1.1650
C5 C 0.3064(3) 0.1809(3) 1.0072(3)
C6 C 0.3060(3) 0.0371(4) 0.5773(4)
C7 C 0.3030(3) -0.0219(4) 0.3879(4)
C8 C 0.3533(3) -0.0548(3) 0.2894(4)
H5 H 0.4231 -0.0559 0.2887
C9 C 0.3012(3) -0.0858(4) 0.1921(4)
H6 H 0.3361 -0.1068 0.1265
Cl1 Cl 0.2500 -0.14709(15) 0.85673(14)
Cu1 Cu 0.2500 0.07934(7) 0.79411(5)
Cu2 Cu 0.5000 0.0000 0.49251(6)
N1 N 0.3473(2) 0.1427(3) 0.9079(3)
N2 N 0.3572(2) 0.0086(3) 0.4848(3)
O1 O 0.3493(2) 0.0661(3) 0.6703(2)
C1C C 0.0525(3) 0.1474(4) 0.8967(4)
H1C H 0.0240 0.1208 0.8290
C2C C -0.0089(3) 0.1895(4) 0.9805(5)
H2C H -0.0779 0.1946 0.9690
C3C C 0.0329(3) 0.2249(4) 1.0836(5)
H3C H -0.0078 0.2518 1.1429
C4C C 0.1361(3) 0.2195(4) 1.0966(3)
H4C H 0.1658 0.2418 1.1650
C5C C 0.1936(3) 0.1809(3) 1.0072(3)
C6C C 0.1940(3) 0.0371(4) 0.5773(4)
C7C C 0.1970(3) -0.0219(4) 0.3879(4)
C8C C 0.1467(3) -0.0548(3) 0.2894(4)
H5C H 0.0769 -0.0559 0.2887
C9C C 0.1988(3) -0.0858(4) 0.1921(4)
H6C H 0.1639 -0.1068 0.1265
Cu2B Cu 0.0000 0.0000 0.49251(6)
N1C N 0.1527(2) 0.1427(3) 0.9079(3)
N2C N 0.1428(2) 0.0086(3) 0.4848(3)
N2A N 0.6428(2) -0.0086(3) 0.4848(3)
O1C O 0.1507(2) 0.0661(3) 0.6703(2)
loop_
_geom_bond_atom_site_label_1
_geom_bond_atom_site_label_2
_geom_bond_site_symmetry_1
_geom_bond_site_symmetry_2
C1 H1 1_555 1_555
C2 C1 1_555 1_555
H2 C2 1_555 1_555
C3 C2 1_555 1_555
H3 C3 1_555 1_555
C4 C3 1_555 1_555
H4 C4 1_555 1_555
C5 C4 1_555 1_555
C6 N2 1_555 1_555
C7 C8 1_555 1_555
C8 H5 1_555 1_555
C9 C8 1_555 1_555
H6 C9 1_555 1_555
Cl1 Cu1 1_555 1_555
Cu1 N1 1_555 1_555
Cu2 N2 1_555 1_555
N1 C1 1_555 1_555
N2 C7 1_555 1_555
O1 C6 1_555 1_555
C1C H1C 1_555 1_555
C2C C1C 1_555 1_555
H2C C2C 1_555 1_555
C3C C2C 1_555 1_555
H3C C3C 1_555 1_555
C4C C3C 1_555 1_555
H4C C4C 1_555 1_555
C5C C5 1_555 1_555
C6C C6 1_555 1_555
C7C C7 1_555 1_555
C8C C7C 1_555 1_555
H5C C8C 1_555 1_555
C9C C9 1_555 1_555
H6C C9C 1_555 1_555
Cu2B N2C 1_555 1_555
N1C Cu1 1_555 1_555
N2C C6C 1_555 1_555
N2A Cu2 1_555 1_555
O1C Cu1 1_555 1_555
C5 N1 1_555 1_555
Cu1 O1 1_555 1_555
C1C N1C 1_555 1_555
C4C C5C 1_555 1_555
C5C N1C 1_555 1_555
C6C O1C 1_555 1_555
C7C N2C 1_555 1_555
C8C C9C 1_555 1_555

#END
