
#######################################################################
#
#                 Cambridge Crystallographic Data Centre
#                                CCDC 
#
#######################################################################
#
# If this CIF has been generated from an entry in the Cambridge 
# Structural Database, then it will include bibliographic, chemical, 
# crystal, experimental, refinement or atomic coordinate data resulting 
# from the CCDC's data processing and validation procedures.
#
#######################################################################

data_IROVER
_symmetry_cell_setting           triclinic
_symmetry_space_group_name_H-M   'P -1'
_symmetry_Int_Tables_number      2
_space_group_name_Hall           '-P 1'
loop_
_symmetry_equiv_pos_site_id
_symmetry_equiv_pos_as_xyz
1 x,y,z
2 -x,-y,-z
_cell_length_a                   8.883(3)
_cell_length_b                   11.713(4)
_cell_length_c                   12.813(4)
_cell_angle_alpha                111.027(4)
_cell_angle_beta                 108.443(4)
_cell_angle_gamma                92.013(5)
_cell_volume                     1163.71
loop_
_atom_site_label
_atom_site_type_symbol
_atom_site_fract_x
_atom_site_fract_y
_atom_site_fract_z
Zn1 Zn 0.5000 0.0000 0.0000
Zn2 Zn 0.34503(8) 0.24142(6) 0.14858(6)
C1 C 0.1653(7) -0.0109(5) 0.3473(5)
C2 C 0.2064(7) 0.0775(5) 0.5427(5)
C3 C 0.0460(7) 0.1480(5) 0.4151(5)
C4 C 0.1038(7) -0.1020(5) 0.1024(5)
H1 H 0.0659 -0.1806 0.0340
H2 H 0.0109 -0.0637 0.1107
C5 C 0.2142(7) -0.0188(5) 0.0813(5)
C6 C 0.2445(7) 0.1931(5) 0.7828(5)
H3 H 0.2927 0.2741 0.7937
H4 H 0.1284 0.1866 0.7526
C7 C 0.2993(7) 0.1763(5) 0.9006(5)
C8 C -0.1615(7) 0.2113(6) 0.2403(5)
H5 H -0.0909 0.2472 0.2118
H6 H -0.1777 0.1217 0.2009
C9 C -0.3199(7) 0.2569(5) 0.2148(5)
C10 C 0.1453(9) 0.4476(6) 0.1450(6)
H7 H 0.1439 0.4254 0.0673
C11 C 0.0575(10) 0.5367(7) 0.1854(7)
H8 H -0.0026 0.5735 0.1363
C12 C 0.0610(10) 0.5698(7) 0.3006(7)
H9 H 0.0035 0.6298 0.3315
C13 C 0.1495(9) 0.5134(6) 0.3677(6)
H10 H 0.1526 0.5349 0.4457
C14 C 0.2347(7) 0.4255(5) 0.3239(5)
C15 C 0.3359(7) 0.3610(5) 0.3938(5)
C16 C 0.3621(8) 0.3884(6) 0.5131(5)
H11 H 0.3182 0.4520 0.5553
C17 C 0.4541(8) 0.3204(6) 0.5683(6)
H12 H 0.4718 0.3375 0.6483
C18 C 0.5199(8) 0.2276(6) 0.5060(6)
H13 H 0.5828 0.1810 0.5422
C19 C 0.4893(8) 0.2061(6) 0.3878(6)
H14 H 0.5324 0.1430 0.3443
N1 N 0.2397(6) -0.0106(4) 0.4544(4)
N2 N 0.1117(6) 0.1597(4) 0.5287(4)
N3 N 0.0688(5) 0.0669(4) 0.3202(4)
N4 N 0.2311(6) 0.3924(4) 0.2106(4)
N5 N 0.4016(6) 0.2706(4) 0.3328(4)
O1 O 0.3247(5) -0.0659(4) 0.0492(4)
O2 O 0.1885(4) 0.0891(3) 0.1008(3)
O3 O 0.3429(5) 0.0753(4) 0.8977(3)
O4 O 0.2914(5) 0.2626(4) 0.9894(3)
O5 O -0.4471(5) 0.1773(3) 0.1461(3)
O6 O -0.3243(6) 0.3676(4) 0.2639(4)
S1 S 0.20617(19) -0.12925(14) 0.23543(13)
S2 S 0.3080(2) 0.07252(15) 0.67965(14)
S3 S -0.0755(2) 0.25848(14) 0.39891(14)
Zn1_2 Zn 0.5000 0.0000 1.0000
Zn1_3 Zn -0.5000 0.0000 0.0000
Zn1_4 Zn 1.5000 0.0000 1.0000
Zn2A Zn 0.65497(8) -0.24142(6) 0.85142(6)
Zn2_2 Zn 0.34503(8) 0.24142(6) 1.14858(6)
Zn2_3 Zn -0.65497(8) 0.24142(6) 0.14858(6)
Zn2A_2 Zn 0.65497(8) -0.24142(6) -0.14858(6)
Zn2A_3 Zn 1.65497(8) -0.24142(6) 0.85142(6)
C1A C 0.8347(7) 0.0109(5) 0.6527(5)
C2A C 0.7936(7) -0.0775(5) 0.4573(5)
C3A C 0.9540(7) -0.1480(5) 0.5849(5)
C4A C 0.8962(7) 0.1020(5) 0.8976(5)
H1A H 0.9341 0.1806 0.9660
H2A H 0.9891 0.0637 0.8893
C5A C 0.7858(7) 0.0188(5) 0.9187(5)
C6A C 0.7555(7) -0.1931(5) 0.2172(5)
H3A H 0.7073 -0.2741 0.2063
H4A H 0.8716 -0.1866 0.2474
C7A C 0.7007(7) -0.1763(5) 0.0994(5)
C8A C 1.1615(7) -0.2113(6) 0.7597(5)
H5A H 1.0909 -0.2472 0.7882
H6A H 1.1777 -0.1217 0.7991
C9A C 1.3199(7) -0.2569(5) 0.7852(5)
C10A C 0.8547(9) -0.4476(6) 0.8550(6)
H7A H 0.8561 -0.4254 0.9327
C11A C 0.9425(10) -0.5367(7) 0.8146(7)
H8A H 1.0026 -0.5735 0.8637
C12A C 0.9390(10) -0.5698(7) 0.6994(7)
H9A H 0.9965 -0.6298 0.6685
C13A C 0.8505(9) -0.5134(6) 0.6323(6)
H10A H 0.8474 -0.5349 0.5543
C14A C 0.7653(7) -0.4255(5) 0.6761(5)
C15A C 0.6641(7) -0.3610(5) 0.6062(5)
C16A C 0.6379(8) -0.3884(6) 0.4869(5)
H11A H 0.6818 -0.4520 0.4447
C17A C 0.5459(8) -0.3204(6) 0.4317(6)
H12A H 0.5282 -0.3375 0.3517
C18A C 0.4801(8) -0.2276(6) 0.4940(6)
H13A H 0.4172 -0.1810 0.4578
C19A C 0.5107(8) -0.2061(6) 0.6122(6)
H14A H 0.4676 -0.1430 0.6557
N1A N 0.7603(6) 0.0106(4) 0.5456(4)
N2A N 0.8883(6) -0.1597(4) 0.4713(4)
N3A N 0.9312(5) -0.0669(4) 0.6798(4)
N4A N 0.7689(6) -0.3924(4) 0.7894(4)
N5A N 0.5984(6) -0.2706(4) 0.6672(4)
O1A O 0.6753(5) 0.0659(4) 0.9508(4)
O1A_2 O 0.6753(5) 0.0659(4) -0.0492(4)
O2A O 0.8115(4) -0.0891(3) 0.8992(3)
O3A O 0.6571(5) -0.0753(4) 0.1023(3)
O3_2 O 0.3429(5) 0.0753(4) -0.1023(3)
O4A O 0.7086(5) -0.2626(4) 0.0106(3)
O4_2 O 0.2914(5) 0.2626(4) -0.0106(3)
O4A_2 O 0.7086(5) -0.2626(4) 1.0106(3)
O5A O 1.4471(5) -0.1773(3) 0.8539(3)
O5_2 O 0.5529(5) 0.1773(3) 0.1461(3)
O5A_2 O 0.4471(5) -0.1773(3) -0.1461(3)
O5A_3 O 0.4471(5) -0.1773(3) 0.8539(3)
O6A O 1.3243(6) -0.3676(4) 0.7361(4)
S1A S 0.79383(19) 0.12925(14) 0.76457(13)
S2A S 0.6920(2) -0.07252(15) 0.32035(14)
S3A S 1.0755(2) -0.25848(14) 0.60109(14)
O7 O 0.3216(13) 0.6669(9) 0.0342(10)
H15 H 0.3221 0.5949 0.0356
H16 H 0.2449 0.6975 0.0545
O8 O 0.4431(11) 0.4792(6) 0.8628(7)
H17 H 0.4515 0.5543 0.9088
H18 H 0.3761 0.4659 0.7937
loop_
_geom_bond_atom_site_label_1
_geom_bond_atom_site_label_2
_geom_bond_site_symmetry_1
_geom_bond_site_symmetry_2
Zn1 O1 1_555 1_555
Zn2 N4 1_555 1_555
C1 N1 1_555 1_555
C2 N1 1_555 1_555
C3 N2 1_555 1_555
C4 H1 1_555 1_555
H2 C4 1_555 1_555
C5 C4 1_555 1_555
C6 H3 1_555 1_555
H4 C6 1_555 1_555
C7 C6 1_555 1_555
C8 H5 1_555 1_555
H6 C8 1_555 1_555
C9 C8 1_555 1_555
C10 H7 1_555 1_555
C11 C10 1_555 1_555
H8 C11 1_555 1_555
C12 C11 1_555 1_555
H9 C12 1_555 1_555
C13 C12 1_555 1_555
H10 C13 1_555 1_555
C14 C13 1_555 1_555
C15 C14 1_555 1_555
C16 C15 1_555 1_555
H11 C16 1_555 1_555
C17 C16 1_555 1_555
H12 C17 1_555 1_555
C18 C17 1_555 1_555
H13 C18 1_555 1_555
C19 C18 1_555 1_555
H14 C19 1_555 1_555
N2 C2 1_555 1_555
N3 C1 1_555 1_555
N4 C10 1_555 1_555
N5 Zn2 1_555 1_555
O1 C5 1_555 1_555
O2 Zn2 1_555 1_555
O3 C7 1_555 1_555
O4 C7 1_555 1_555
O5 C9 1_555 1_555
O6 C9 1_555 1_555
O7 H15 1_555 1_555
H16 O7 1_555 1_555
S1 C1 1_555 1_555
S2 C2 1_555 1_555
S3 C3 1_555 1_555
O8 H17 1_555 1_555
H18 O8 1_555 1_555
Zn1_2 O3 1_555 1_555
Zn1_3 O5 1_555 1_555
Zn1_4 O5A 1_555 1_555
Zn2A N4A 1_555 1_555
Zn2_2 O4 1_555 1_555
Zn2_3 O5 1_555 1_555
Zn2A_2 O4A 1_555 1_555
Zn2A_3 O5A 1_555 1_555
C1A N1A 1_555 1_555
C2A N1A 1_555 1_555
C3A N2A 1_555 1_555
C4A H1A 1_555 1_555
H2A C4A 1_555 1_555
C5A C4A 1_555 1_555
C6A H3A 1_555 1_555
H4A C6A 1_555 1_555
C7A C6A 1_555 1_555
C8A H5A 1_555 1_555
H6A C8A 1_555 1_555
C9A C8A 1_555 1_555
C10A H7A 1_555 1_555
C11A C10A 1_555 1_555
H8A C11A 1_555 1_555
C12A C11A 1_555 1_555
H9A C12A 1_555 1_555
C13A C12A 1_555 1_555
H10A C13A 1_555 1_555
C14A C13A 1_555 1_555
C15A C14A 1_555 1_555
C16A C15A 1_555 1_555
H11A C16A 1_555 1_555
C17A C16A 1_555 1_555
H12A C17A 1_555 1_555
C18A C17A 1_555 1_555
H13A C18A 1_555 1_555
C19A C18A 1_555 1_555
H14A C19A 1_555 1_555
N2A C2A 1_555 1_555
N3A C1A 1_555 1_555
N4A C10A 1_555 1_555
N5A Zn2A 1_555 1_555
O1A Zn1_2 1_555 1_555
O1A_2 Zn1 1_555 1_555
O2A Zn2A 1_555 1_555
O3A Zn1 1_555 1_555
O3_2 Zn1 1_555 1_555
O4A C7A 1_555 1_555
O4_2 Zn2 1_555 1_555
O4A_2 Zn2A 1_555 1_555
O5A C9A 1_555 1_555
O5_2 Zn1 1_555 1_555
O5A_2 Zn1 1_555 1_555
O5A_3 Zn1_2 1_555 1_555
O6A C9A 1_555 1_555
S1A C1A 1_555 1_555
S2A C2A 1_555 1_555
S3A C3A 1_555 1_555
Zn2 O5_2 1_555 1_555
C3 N3 1_555 1_555
C4 S1 1_555 1_555
C5 O2 1_555 1_555
C6 S2 1_555 1_555
C8 S3 1_555 1_555
C14 N4 1_555 1_555
C15 N5 1_555 1_555
C19 N5 1_555 1_555
Zn2A O5A_3 1_555 1_555
Zn2A_2 O5A_2 1_555 1_555
C3A N3A 1_555 1_555
C4A S1A 1_555 1_555
C5A O1A 1_555 1_555
C5A O2A 1_555 1_555
C6A S2A 1_555 1_555
C7A O3A 1_555 1_555
C8A S3A 1_555 1_555
C14A N4A 1_555 1_555
C15A N5A 1_555 1_555
C19A N5A 1_555 1_555

#END
