
#######################################################################
#
#                 Cambridge Crystallographic Data Centre
#                                CCDC 
#
#######################################################################
#
# If this CIF has been generated from an entry in the Cambridge 
# Structural Database, then it will include bibliographic, chemical, 
# crystal, experimental, refinement or atomic coordinate data resulting 
# from the CCDC's data processing and validation procedures.
#
#######################################################################

data_IROVIV
_symmetry_cell_setting           triclinic
_symmetry_space_group_name_H-M   'P -1'
_symmetry_Int_Tables_number      2
_space_group_name_Hall           '-P 1'
loop_
_symmetry_equiv_pos_site_id
_symmetry_equiv_pos_as_xyz
1 x,y,z
2 -x,-y,-z
_cell_length_a                   9.3334(7)
_cell_length_b                   11.0008(8)
_cell_length_c                   13.0536(10)
_cell_angle_alpha                108.1970(10)
_cell_angle_beta                 107.5370(10)
_cell_angle_gamma                94.2380(10)
_cell_volume                     1193.01
loop_
_atom_site_label
_atom_site_type_symbol
_atom_site_fract_x
_atom_site_fract_y
_atom_site_fract_z
C1 C 0.6732(6) 0.4843(5) 0.8541(5)
C2 C 0.7145(6) 0.5739(5) 1.0402(5)
C3 C 0.5454(6) 0.6410(6) 0.9150(5)
C4 C 0.6146(7) 0.3933(6) 0.6168(5)
H1 H 0.5725 0.3105 0.5542
H2 H 0.5304 0.4365 0.6270
C5 C 0.7172(7) 0.4742(6) 0.5869(6)
C6 C 0.7358(8) 0.7018(6) 1.2650(5)
H3 H 0.7734 0.7872 1.2666
H4 H 0.6251 0.6841 1.2312
C7 C 0.7825(7) 0.6996(5) 1.3852(5)
C8 C 0.3410(7) 0.6994(6) 0.7436(5)
H5 H 0.4115 0.7273 0.7103
H6 H 0.3096 0.6055 0.7094
C9 C 0.2009(7) 0.7677(6) 0.7261(5)
C10 C 0.9877(7) 0.7258(6) 0.8774(5)
H7 H 1.0376 0.6694 0.8371
C11 C 1.0135(8) 0.7425(6) 0.9914(5)
H8 H 1.0799 0.6978 1.0278
C12 C 0.9388(8) 0.8265(6) 1.0501(5)
H9 H 0.9524 0.8368 1.1261
C13 C 0.8463(6) 0.8937(5) 0.9977(5)
H10 H 0.8003 0.9540 1.0383
C14 C 0.8205(7) 0.8724(5) 0.8838(5)
C15 C 0.7141(6) 0.9375(5) 0.8175(4)
C16 C 0.6247(9) 1.0187(6) 0.8643(6)
H11 H 0.6365 1.0388 0.9414
C17 C 0.5195(8) 1.0695(6) 0.7988(6)
H12 H 0.4589 1.1219 0.8306
C18 C 0.5052(9) 1.0426(6) 0.6875(6)
H13 H 0.4324 1.0733 0.6405
C19 C 0.6026(8) 0.9673(7) 0.6452(6)
H14 H 0.6006 0.9560 0.5711
Cd1 Cd 1.0000 0.5000 0.5000
Cd2 Cd 0.84881(5) 0.77636(4) 0.63208(4)
N1 N 0.7484(5) 0.4847(4) 0.9576(4)
N2 N 0.6119(5) 0.6535(5) 1.0240(4)
N3 N 0.5702(6) 0.5580(5) 0.8250(4)
N4 N 0.8904(6) 0.7908(4) 0.8228(4)
N5 N 0.6986(6) 0.9108(5) 0.7063(4)
O1 O 0.8208(5) 0.4219(4) 0.5572(4)
O2 O 0.6947(5) 0.5866(4) 0.5909(4)
O3 O 0.8525(6) 0.6132(4) 1.4058(4)
O4 O 0.7416(5) 0.7852(4) 1.4549(4)
O5 O 0.0740(5) 0.6993(4) 0.6497(4)
O6 O 0.2187(5) 0.8815(4) 0.7837(4)
O7 O 1.0167(5) 0.9733(4) 0.6502(4)
H15 H 1.0072 0.9744 0.5837
H16 H 1.1092 0.9718 0.6850
S1 S 0.7137(2) 0.36494(15) 0.74622(13)
S2 S 0.81441(18) 0.57884(15) 1.17848(13)
S3 S 0.42676(18) 0.75089(15) 0.89792(13)
C1A C 0.3268(6) 0.5157(5) 0.1459(5)
C2A C 0.2855(6) 0.4261(5) -0.0402(5)
C3A C 0.4546(6) 0.3590(6) 0.0850(5)
C4A C 0.3854(7) 0.6067(6) 0.3832(5)
H1A H 0.4275 0.6895 0.4458
H2A H 0.4696 0.5635 0.3730
C5A C 0.2828(7) 0.5258(6) 0.4131(6)
C6A C 0.2642(8) 0.2982(6) -0.2650(5)
H3A H 0.2266 0.2128 -0.2666
H4A H 0.3749 0.3159 -0.2312
C7A C 0.2175(7) 0.3004(5) -0.3852(5)
C8A C 0.6590(7) 0.3006(6) 0.2564(5)
H5A H 0.5885 0.2727 0.2897
H6A H 0.6904 0.3945 0.2906
C9A C 0.7991(7) 0.2323(6) 0.2739(5)
C10A C 0.0123(7) 0.2742(6) 0.1226(5)
H7A H -0.0376 0.3306 0.1629
C11A C -0.0135(8) 0.2575(6) 0.0086(5)
H8A H -0.0799 0.3022 -0.0278
C12A C 0.0612(8) 0.1735(6) -0.0501(5)
H9A H 0.0476 0.1632 -0.1261
C13A C 0.1537(6) 0.1063(5) 0.0023(5)
H10A H 0.1997 0.0460 -0.0383
C14A C 0.1795(7) 0.1276(5) 0.1162(5)
C15A C 0.2859(6) 0.0625(5) 0.1825(4)
C16A C 0.3753(9) -0.0187(6) 0.1357(6)
H11A H 0.3635 -0.0388 0.0586
C17A C 0.4805(8) -0.0695(6) 0.2012(6)
H12A H 0.5411 -0.1219 0.1694
C18A C 0.4948(9) -0.0426(6) 0.3125(6)
H13A H 0.5676 -0.0733 0.3595
C19A C 0.3974(8) 0.0327(7) 0.3548(6)
H14A H 0.3994 0.0440 0.4289
Cd1_2 Cd 0.0000 0.5000 -0.5000
Cd1_3 Cd 0.0000 0.5000 0.5000
Cd1_4 Cd 1.0000 0.5000 1.5000
Cd2A Cd 0.15119(5) 0.22364(4) 0.36792(4)
Cd2_2 Cd -0.15119(5) 0.77636(4) 0.63208(4)
Cd2_3 Cd 0.84881(5) 0.77636(4) 1.63208(4)
Cd2A_2 Cd 0.15119(5) 0.22364(4) -0.63208(4)
Cd2A_3 Cd 1.15119(5) 0.22364(4) 0.36792(4)
N1A N 0.2516(5) 0.5153(4) 0.0424(4)
N2A N 0.3881(5) 0.3465(5) -0.0240(4)
N3A N 0.4298(6) 0.4420(5) 0.1750(4)
N4A N 0.1096(6) 0.2092(4) 0.1772(4)
N5A N 0.3014(6) 0.0892(5) 0.2937(4)
O1A O 0.1792(5) 0.5781(4) 0.4428(4)
O1A_2 O 1.1792(5) 0.5781(4) 0.4428(4)
O2A O 0.3053(5) 0.4134(4) 0.4091(4)
O3A O 0.1475(6) 0.3868(4) -0.4058(4)
O3_2 O 0.8525(6) 0.6132(4) 0.4058(4)
O3A_2 O 1.1475(6) 0.3868(4) 0.5942(4)
O4A O 0.2584(5) 0.2148(4) -0.4549(4)
O4_2 O 0.7416(5) 0.7852(4) 0.4549(4)
O4A_2 O 0.2584(5) 0.2148(4) 0.5451(4)
O5A O 0.9260(5) 0.3007(4) 0.3503(4)
O5_2 O 1.0740(5) 0.6993(4) 0.6497(4)
O5A_2 O -0.0740(5) 0.3007(4) 0.3503(4)
O6A O 0.7813(5) 0.1185(4) 0.2163(4)
O7A O -0.0167(5) 0.0267(4) 0.3498(4)
H15A H -0.0072 0.0256 0.4163
H16A H -0.1092 0.0282 0.3150
S1A S 0.2863(2) 0.63506(15) 0.25378(13)
S2A S 0.18559(18) 0.42116(15) -0.17848(13)
S3A S 0.57324(18) 0.24911(15) 0.10208(13)
O8 O 0.1354(5) 0.8554(4) 0.4651(4)
H17 H 0.2060 0.8112 0.4749
H18 H 0.0988 0.8463 0.3945
loop_
_geom_bond_atom_site_label_1
_geom_bond_atom_site_label_2
_geom_bond_site_symmetry_1
_geom_bond_site_symmetry_2
C1 N1 1_555 1_555
C2 N1 1_555 1_555
C3 N2 1_555 1_555
C4 H1 1_555 1_555
H2 C4 1_555 1_555
C5 C4 1_555 1_555
C6 H3 1_555 1_555
H4 C6 1_555 1_555
C7 C6 1_555 1_555
C8 H5 1_555 1_555
H6 C8 1_555 1_555
C9 C8 1_555 1_555
C10 H7 1_555 1_555
C11 C10 1_555 1_555
H8 C11 1_555 1_555
C12 C11 1_555 1_555
H9 C12 1_555 1_555
C13 C12 1_555 1_555
H10 C13 1_555 1_555
C14 C13 1_555 1_555
C15 C14 1_555 1_555
C16 C15 1_555 1_555
H11 C16 1_555 1_555
C17 C16 1_555 1_555
H12 C17 1_555 1_555
C18 C17 1_555 1_555
H13 C18 1_555 1_555
C19 C18 1_555 1_555
H14 C19 1_555 1_555
Cd1 O1 1_555 1_555
Cd2 N4 1_555 1_555
N2 C2 1_555 1_555
N3 C1 1_555 1_555
N4 C10 1_555 1_555
N5 C15 1_555 1_555
O1 C5 1_555 1_555
O2 C5 1_555 1_555
O3 C7 1_555 1_555
O4 C7 1_555 1_555
O5 C9 1_555 1_555
O6 C9 1_555 1_555
O7 Cd2 1_555 1_555
H15 O7 1_555 1_555
H16 O7 1_555 1_555
O8 H17 1_555 1_555
H18 O8 1_555 1_555
S1 C1 1_555 1_555
S2 C2 1_555 1_555
S3 C3 1_555 1_555
C1A N1A 1_555 1_555
C2A N1A 1_555 1_555
C3A N2A 1_555 1_555
C4A H1A 1_555 1_555
H2A C4A 1_555 1_555
C5A C4A 1_555 1_555
C6A H3A 1_555 1_555
H4A C6A 1_555 1_555
C7A C6A 1_555 1_555
C8A H5A 1_555 1_555
H6A C8A 1_555 1_555
C9A C8A 1_555 1_555
C10A H7A 1_555 1_555
C11A C10A 1_555 1_555
H8A C11A 1_555 1_555
C12A C11A 1_555 1_555
H9A C12A 1_555 1_555
C13A C12A 1_555 1_555
H10A C13A 1_555 1_555
C14A C13A 1_555 1_555
C15A C14A 1_555 1_555
C16A C15A 1_555 1_555
H11A C16A 1_555 1_555
C17A C16A 1_555 1_555
H12A C17A 1_555 1_555
C18A C17A 1_555 1_555
H13A C18A 1_555 1_555
C19A C18A 1_555 1_555
H14A C19A 1_555 1_555
Cd1_2 O3A 1_555 1_555
Cd1_3 O5 1_555 1_555
Cd1_4 O3 1_555 1_555
Cd2A N4A 1_555 1_555
Cd2_2 O5 1_555 1_555
Cd2_3 O4 1_555 1_555
Cd2A_2 O4A 1_555 1_555
Cd2A_3 O5A 1_555 1_555
N2A C2A 1_555 1_555
N3A C1A 1_555 1_555
N4A C10A 1_555 1_555
N5A C15A 1_555 1_555
O1A C5A 1_555 1_555
O1A_2 Cd1 1_555 1_555
O2A C5A 1_555 1_555
O3A C7A 1_555 1_555
O3_2 Cd1 1_555 1_555
O3A_2 Cd1 1_555 1_555
O4A C7A 1_555 1_555
O4_2 Cd2 1_555 1_555
O4A_2 Cd2A 1_555 1_555
O5A Cd1 1_555 1_555
O5_2 Cd1 1_555 1_555
O5A_2 Cd1_3 1_555 1_555
O6A C9A 1_555 1_555
O7A Cd2A 1_555 1_555
H15A O7A 1_555 1_555
H16A O7A 1_555 1_555
S1A C1A 1_555 1_555
S2A C2A 1_555 1_555
S3A C3A 1_555 1_555
C3 N3 1_555 1_555
C4 S1 1_555 1_555
C6 S2 1_555 1_555
C8 S3 1_555 1_555
C14 N4 1_555 1_555
C19 N5 1_555 1_555
Cd2 N5 1_555 1_555
Cd2 O2 1_555 1_555
Cd2 O5_2 1_555 1_555
C3A N3A 1_555 1_555
C4A S1A 1_555 1_555
C6A S2A 1_555 1_555
C8A S3A 1_555 1_555
C9A O5A 1_555 1_555
C14A N4A 1_555 1_555
C19A N5A 1_555 1_555
Cd1_3 O1A 1_555 1_555
Cd2A N5A 1_555 1_555
Cd2A O2A 1_555 1_555
Cd2A O5A_2 1_555 1_555

#END
