
#######################################################################
#
#                 Cambridge Crystallographic Data Centre
#                                CCDC 
#
#######################################################################
#
# If this CIF has been generated from an entry in the Cambridge 
# Structural Database, then it will include bibliographic, chemical, 
# crystal, experimental, refinement or atomic coordinate data resulting 
# from the CCDC's data processing and validation procedures.
#
#######################################################################

data_IROVAN
_symmetry_cell_setting           triclinic
_symmetry_space_group_name_H-M   'P -1'
_symmetry_Int_Tables_number      2
_space_group_name_Hall           '-P 1'
loop_
_symmetry_equiv_pos_site_id
_symmetry_equiv_pos_as_xyz
1 x,y,z
2 -x,-y,-z
_cell_length_a                   9.4300(6)
_cell_length_b                   10.7611(7)
_cell_length_c                   13.0175(8)
_cell_angle_alpha                107.8010(10)
_cell_angle_beta                 108.6800(10)
_cell_angle_gamma                93.2620(10)
_cell_volume                     1173.8
loop_
_atom_site_label
_atom_site_type_symbol
_atom_site_fract_x
_atom_site_fract_y
_atom_site_fract_z
C1 C 0.0416(6) 0.6470(6) 0.4076(5)
C2 C 0.1684(6) 0.4875(5) 0.3461(4)
C3 C 0.2062(6) 0.5759(6) 0.5353(5)
C4 C -0.1670(6) 0.7066(5) 0.2320(5)
H1 H -0.0957 0.7329 0.1998
H2 H -0.1968 0.6110 0.1994
C5 C -0.3047(6) 0.7728(5) 0.2053(5)
C6 C 0.1153(7) 0.3979(6) 0.1092(5)
H3 H 0.0737 0.3140 0.0462
H4 H 0.0320 0.4440 0.1174
C7 C 0.2266(6) 0.4814(5) 0.0828(5)
C8 C 0.2333(6) 0.6967(5) 0.7617(5)
H5 H 0.2700 0.7846 0.7655
H6 H 0.1232 0.6805 0.7287
C9 C 0.2841(7) 0.6883(6) 0.8819(5)
C10 C -0.5036(6) 0.7265(5) 0.3713(4)
H7 H -0.4524 0.6724 0.3303
C11 C -0.4764(6) 0.7348(6) 0.4835(5)
H8 H -0.4102 0.6853 0.5167
C12 C -0.5479(6) 0.8167(5) 0.5459(5)
H9 H -0.5286 0.8263 0.6229
C13 C -0.6487(6) 0.8845(5) 0.4926(5)
H10 H -0.7003 0.9392 0.5328
C14 C -0.6731(6) 0.8709(6) 0.3783(5)
C15 C -0.7861(6) 0.9349(5) 0.3126(4)
C16 C -0.8642(6) 1.0236(5) 0.3643(5)
H11 H -0.8450 1.0462 0.4430
C17 C -0.9711(7) 1.0789(6) 0.2989(5)
H12 H -1.0247 1.1384 0.3325
C18 C -0.9956(7) 1.0436(6) 0.1837(5)
H13 H -1.0670 1.0782 0.1371
C19 C -0.9134(7) 0.9564(6) 0.1379(5)
H14 H -0.9301 0.9338 0.0596
Mn1 Mn 0.5000 0.5000 0.0000
Mn2 Mn -0.65327(10) 0.77965(9) 0.13172(8)
N1 N 0.0664(5) 0.5654(4) 0.3169(3)
N2 N 0.2402(5) 0.4875(4) 0.4526(3)
N3 N 0.1082(5) 0.6586(4) 0.5191(4)
N4 N -0.6003(5) 0.7927(4) 0.3182(3)
N5 N -0.8106(4) 0.9021(4) 0.1997(3)
O1 O -0.4337(4) 0.7028(3) 0.1410(3)
O2 O -0.2865(4) 0.8944(4) 0.2567(4)
O3 O 0.2067(4) 0.5968(3) 0.0919(3)
O4 O 0.3302(4) 0.4273(4) 0.0556(3)
O5 O 0.3536(4) 0.5966(4) 0.8980(3)
O6 O 0.2510(4) 0.7746(4) 0.9566(3)
O7 O -0.5260(4) 0.9789(4) 0.1611(3)
H15 H -0.5461 0.9193 0.1872
H16 H -0.4328 0.9854 0.1683
S1 S -0.08143(15) 0.75908(13) 0.38723(12)
S2 S 0.21499(16) 0.36864(14) 0.24208(12)
S3 S 0.30734(16) 0.57505(14) 0.67264(12)
C1A C 0.9584(6) 0.3530(6) 0.5924(5)
C2A C 0.8316(6) 0.5125(5) 0.6539(4)
C3A C 0.7938(6) 0.4241(6) 0.4647(5)
C4A C 1.1670(6) 0.2934(5) 0.7680(5)
H1A H 1.0957 0.2671 0.8002
H2A H 1.1968 0.3890 0.8006
C5A C 1.3047(6) 0.2272(5) 0.7947(5)
C6A C 0.8847(7) 0.6021(6) 0.8908(5)
H3A H 0.9263 0.6860 0.9538
H4A H 0.9680 0.5560 0.8826
C7A C 0.7734(6) 0.5186(5) 0.9172(5)
C8A C 0.7667(6) 0.3033(5) 0.2383(5)
H5A H 0.7300 0.2154 0.2345
H6A H 0.8768 0.3195 0.2713
C9A C 0.7159(7) 0.3117(6) 0.1181(5)
C10A C 1.5036(6) 0.2735(5) 0.6287(4)
H7A H 1.4524 0.3276 0.6697
C11A C 1.4764(6) 0.2652(6) 0.5165(5)
H8A H 1.4102 0.3147 0.4833
C12A C 1.5479(6) 0.1833(5) 0.4541(5)
H9A H 1.5286 0.1737 0.3771
C13A C 1.6487(6) 0.1155(5) 0.5074(5)
H10A H 1.7003 0.0608 0.4672
C14A C 1.6731(6) 0.1291(6) 0.6217(5)
C15A C 1.7861(6) 0.0651(5) 0.6874(4)
C16A C 1.8642(6) -0.0236(5) 0.6357(5)
H11A H 1.8450 -0.0462 0.5570
C17A C 1.9711(7) -0.0789(6) 0.7011(5)
H12A H 2.0247 -0.1384 0.6675
C18A C 1.9956(7) -0.0436(6) 0.8163(5)
H13A H 2.0670 -0.0782 0.8629
C19A C 1.9134(7) 0.0436(6) 0.8621(5)
H14A H 1.9301 0.0662 0.9404
Mn1_2 Mn -0.5000 0.5000 0.0000
Mn1_3 Mn 0.5000 0.5000 1.0000
Mn1_4 Mn 1.5000 0.5000 1.0000
Mn2A Mn 1.65327(10) 0.22035(9) 0.86828(8)
Mn2_2 Mn 0.34673(10) 0.77965(9) 0.13172(8)
Mn2_3 Mn 0.34673(10) 0.77965(9) 1.13172(8)
Mn2A_2 Mn 0.65327(10) 0.22035(9) 0.86828(8)
Mn2A_3 Mn 0.65327(10) 0.22035(9) -0.13172(8)
N1A N 0.9336(5) 0.4346(4) 0.6831(3)
N2A N 0.7598(5) 0.5125(4) 0.5474(3)
N3A N 0.8918(5) 0.3414(4) 0.4809(4)
N4A N 1.6003(5) 0.2073(4) 0.6818(3)
N5A N 1.8106(4) 0.0979(4) 0.8003(3)
O1A O 1.4337(4) 0.2972(3) 0.8590(3)
O1_2 O 0.5663(4) 0.7028(3) 0.1410(3)
O1A_2 O 0.4337(4) 0.2972(3) -0.1410(3)
O2A O 1.2865(4) 0.1056(4) 0.7433(4)
O3A O 0.7933(4) 0.4032(3) 0.9081(3)
O3_2 O -0.7933(4) 0.5968(3) 0.0919(3)
O3A_2 O 1.7933(4) 0.4032(3) 0.9081(3)
O4A O 0.6698(4) 0.5727(4) 0.9444(3)
O4A_2 O 0.6698(4) 0.5727(4) -0.0556(3)
O5A O 0.6464(4) 0.4034(4) 0.1020(3)
O5_2 O 0.3536(4) 0.5966(4) -0.1020(3)
O6A O 0.7490(4) 0.2254(4) 0.0434(3)
O6_2 O -0.7490(4) 0.7746(4) -0.0434(3)
O6A_2 O 1.7490(4) 0.2254(4) 1.0434(3)
O7A O 1.5260(4) 0.0211(4) 0.8389(3)
H15A H 1.5461 0.0807 0.8128
H16A H 1.4328 0.0146 0.8317
S1A S 1.08143(15) 0.24092(13) 0.61277(12)
S2A S 0.78501(16) 0.63136(14) 0.75792(12)
S3A S 0.69266(16) 0.42495(14) 0.32736(12)
O8 O 0.6248(4) 0.8451(4) -0.0501(3)
H17 H 0.5865 0.8738 -0.1052
H18 H 0.6230 0.7623 -0.0779
loop_
_geom_bond_atom_site_label_1
_geom_bond_atom_site_label_2
_geom_bond_site_symmetry_1
_geom_bond_site_symmetry_2
C1 N1 1_555 1_555
C2 N1 1_555 1_555
C3 N2 1_555 1_555
C4 H1 1_555 1_555
H2 C4 1_555 1_555
C5 C4 1_555 1_555
C6 H3 1_555 1_555
H4 C6 1_555 1_555
C7 C6 1_555 1_555
C8 H5 1_555 1_555
H6 C8 1_555 1_555
C9 C8 1_555 1_555
C10 H7 1_555 1_555
C11 C10 1_555 1_555
H8 C11 1_555 1_555
C12 C11 1_555 1_555
H9 C12 1_555 1_555
C13 C12 1_555 1_555
H10 C13 1_555 1_555
C14 C13 1_555 1_555
C15 C14 1_555 1_555
C16 C15 1_555 1_555
H11 C16 1_555 1_555
C17 C16 1_555 1_555
H12 C17 1_555 1_555
C18 C17 1_555 1_555
H13 C18 1_555 1_555
C19 C18 1_555 1_555
H14 C19 1_555 1_555
Mn1 O4 1_555 1_555
Mn2 N4 1_555 1_555
N2 C2 1_555 1_555
N3 C1 1_555 1_555
N4 C10 1_555 1_555
N5 C15 1_555 1_555
O1 C5 1_555 1_555
O2 C5 1_555 1_555
O3 C7 1_555 1_555
O4 C7 1_555 1_555
O5 C9 1_555 1_555
O6 C9 1_555 1_555
O7 Mn2 1_555 1_555
H15 O7 1_555 1_555
H16 O7 1_555 1_555
O8 H17 1_555 1_555
H18 O8 1_555 1_555
S1 C1 1_555 1_555
S2 C2 1_555 1_555
S3 C3 1_555 1_555
C1A N1A 1_555 1_555
C2A N1A 1_555 1_555
C3A N2A 1_555 1_555
C4A H1A 1_555 1_555
H2A C4A 1_555 1_555
C5A C4A 1_555 1_555
C6A H3A 1_555 1_555
H4A C6A 1_555 1_555
C7A C6A 1_555 1_555
C8A H5A 1_555 1_555
H6A C8A 1_555 1_555
C9A C8A 1_555 1_555
C10A H7A 1_555 1_555
C11A C10A 1_555 1_555
H8A C11A 1_555 1_555
C12A C11A 1_555 1_555
H9A C12A 1_555 1_555
C13A C12A 1_555 1_555
H10A C13A 1_555 1_555
C14A C13A 1_555 1_555
C15A C14A 1_555 1_555
C16A C15A 1_555 1_555
H11A C16A 1_555 1_555
C17A C16A 1_555 1_555
H12A C17A 1_555 1_555
C18A C17A 1_555 1_555
H13A C18A 1_555 1_555
C19A C18A 1_555 1_555
H14A C19A 1_555 1_555
Mn1_2 O1 1_555 1_555
Mn1_3 O5 1_555 1_555
Mn1_4 O1A 1_555 1_555
Mn2A N4A 1_555 1_555
Mn2_2 O3 1_555 1_555
Mn2_3 O6 1_555 1_555
Mn2A_2 O3A 1_555 1_555
Mn2A_3 O1A_2 1_555 1_555
N2A C2A 1_555 1_555
N3A C1A 1_555 1_555
N4A C10A 1_555 1_555
N5A C15A 1_555 1_555
O1A C5A 1_555 1_555
O1_2 Mn1 1_555 1_555
O1A_2 Mn1 1_555 1_555
O2A C5A 1_555 1_555
O3A C7A 1_555 1_555
O3_2 Mn2 1_555 1_555
O3A_2 Mn2A 1_555 1_555
O4A C7A 1_555 1_555
O4A_2 Mn1 1_555 1_555
O5A Mn1 1_555 1_555
O5_2 Mn1 1_555 1_555
O6A C9A 1_555 1_555
O6_2 Mn2 1_555 1_555
O6A_2 Mn2A 1_555 1_555
O7A Mn2A 1_555 1_555
H15A O7A 1_555 1_555
H16A O7A 1_555 1_555
S1A C1A 1_555 1_555
S2A C2A 1_555 1_555
S3A C3A 1_555 1_555
C3 N3 1_555 1_555
C4 S1 1_555 1_555
C6 S2 1_555 1_555
C8 S3 1_555 1_555
C14 N4 1_555 1_555
C19 N5 1_555 1_555
Mn2 N5 1_555 1_555
Mn2 O1 1_555 1_555
C3A N3A 1_555 1_555
C4A S1A 1_555 1_555
C6A S2A 1_555 1_555
C8A S3A 1_555 1_555
C9A O5A 1_555 1_555
C14A N4A 1_555 1_555
C19A N5A 1_555 1_555
Mn1_3 O4A 1_555 1_555
Mn2A N5A 1_555 1_555
Mn2A O1A 1_555 1_555
Mn2_2 O1_2 1_555 1_555
Mn2A_3 O6A 1_555 1_555

#END
