
#######################################################################
#
#                 Cambridge Crystallographic Data Centre
#                                CCDC 
#
#######################################################################
#
# If this CIF has been generated from an entry in the Cambridge 
# Structural Database, then it will include bibliographic, chemical, 
# crystal, experimental, refinement or atomic coordinate data resulting 
# from the CCDC's data processing and validation procedures.
#
#######################################################################

data_IRUKAI
_symmetry_cell_setting           monoclinic
_symmetry_space_group_name_H-M   'P 21/c'
_symmetry_Int_Tables_number      14
_space_group_name_Hall           '-P 2ybc'
loop_
_symmetry_equiv_pos_site_id
_symmetry_equiv_pos_as_xyz
1 x,y,z
2 -x,1/2+y,1/2-z
3 -x,-y,-z
4 x,1/2-y,1/2+z
_cell_length_a                   26.082(5)
_cell_length_b                   10.575(2)
_cell_length_c                   14.788(3)
_cell_angle_alpha                90
_cell_angle_beta                 103.53(3)
_cell_angle_gamma                90
_cell_volume                     3965.59
loop_
_atom_site_label
_atom_site_type_symbol
_atom_site_fract_x
_atom_site_fract_y
_atom_site_fract_z
Cd1 Cd 0.730628(5) 1.305278(13) 0.221567(9)
Cd2 Cd 0.769148(5) 1.197466(13) 0.478698(9)
O1 O 0.70061(5) 1.19237(14) 0.32989(10)
O2 O 0.68563(5) 1.08976(13) 0.45103(9)
O3 O 0.32971(5) 0.77059(14) -0.10199(9)
O4 O 0.27907(5) 0.85899(13) -0.01507(10)
O5 O 0.52945(7) 0.83650(18) 0.42820(12)
O6 O 0.45710(6) 0.89741(16) 0.33376(11)
O7 O 0.37299(6) 1.22189(15) 0.15741(13)
O8 O 0.44587(6) 1.18329(15) 0.25862(11)
O9 O 0.78622(5) 1.41234(13) 0.34583(9)
O10 O 0.83992(5) 1.28859(13) 0.44846(10)
O11 O 1.20022(5) 1.66639(13) 0.24888(10)
O12 O 1.19422(5) 1.80552(13) 0.35806(9)
O13 O 1.03505(6) 1.34648(18) 0.48562(11)
O14 O 1.04959(6) 1.33274(15) 0.34725(11)
O15 O 1.05280(7) 1.38254(19) 0.12050(15)
O16 O 0.97531(6) 1.46228(17) 0.11403(12)
N1 N 0.50537(7) 0.89753(18) 0.36076(13)
N2 N 0.41123(7) 1.15416(17) 0.19046(13)
N3 N 1.02234(7) 1.36261(17) 0.40132(13)
N4 N 1.02310(8) 1.45607(19) 0.14723(14)
N5 N 0.69410(7) 1.49564(16) 0.19468(12)
N6 N 0.68695(8) 1.70301(16) 0.19719(13)
N7 N 0.79957(7) 1.50160(16) -0.01806(12)
N8 N 0.80373(7) 1.70953(16) -0.01096(12)
C1 C 0.51469(8) 1.01351(19) 0.21837(14)
C2 C 0.53624(8) 0.97567(19) 0.30971(14)
C3 C 0.58656(8) 1.00922(19) 0.35743(14)
H1 H 0.6000 0.9801 0.4177
C4 C 0.61706(7) 1.08706(18) 0.31458(14)
C5 C 0.59623(8) 1.1278(2) 0.22426(14)
H2 H 0.6159 1.1810 0.1953
C6 C 0.54609(8) 1.0895(2) 0.17678(15)
H3 H 0.5333 1.1154 0.1156
C7 C 0.67111(7) 1.12513(18) 0.36826(13)
C8 C 0.46338(8) 0.96829(19) 0.15863(14)
C9 C 0.41523(8) 1.03257(19) 0.14417(14)
C10 C 0.36979(8) 0.9881(2) 0.08503(14)
H4 H 0.3380 1.0303 0.0802
C11 C 0.37185(8) 0.88008(19) 0.03283(13)
C12 C 0.42003(8) 0.81753(19) 0.04196(14)
H5 H 0.4221 0.7471 0.0054
C13 C 0.46475(8) 0.85998(19) 0.10535(14)
H6 H 0.4962 0.8154 0.1124
C14 C 0.32250(8) 0.83282(18) -0.03334(13)
C15 C 0.96719(8) 1.52113(19) 0.29953(14)
C16 C 0.97049(7) 1.42098(19) 0.36213(14)
C17 C 0.92811(8) 1.37381(18) 0.39252(14)
H7 H 0.9327 1.3095 0.4365
C18 C 0.87846(7) 1.42471(18) 0.35579(14)
C19 C 0.87330(8) 1.5220(2) 0.29076(15)
H8 H 0.8400 1.5547 0.2647
C20 C 0.91708(8) 1.5713(2) 0.26413(15)
H9 H 0.9128 1.6383 0.2223
C21 C 0.83104(8) 1.37131(18) 0.38527(13)
C22 C 1.01681(8) 1.58205(19) 0.28582(14)
C23 C 1.04609(8) 1.54436(19) 0.22243(15)
C24 C 1.09701(8) 1.5857(2) 0.22727(14)
H10 H 1.1161 1.5547 0.1862
C25 C 1.11927(8) 1.67461(18) 0.29481(14)
C26 C 1.08955(8) 1.72210(19) 0.35348(14)
H11 H 1.1031 1.7862 0.3953
C27 C 1.03936(8) 1.6739(2) 0.34996(14)
H12 H 1.0205 1.7040 0.3917
C28 C 1.17498(8) 1.71732(18) 0.30182(13)
C29 C 0.71374(9) 1.6015(2) 0.23704(15)
H13 H 0.7425 1.6049 0.2879
C30 C 0.65237(9) 1.5325(2) 0.12385(15)
H14 H 0.6308 1.4782 0.0821
C31 C 0.64762(9) 1.6602(2) 0.12444(16)
H15 H 0.6228 1.7091 0.0839
C32 C 0.69930(10) 1.8358(2) 0.22365(17)
H16 H 0.7203 1.8391 0.2871
H17 H 0.6668 1.8815 0.2212
C33 C 0.72929(10) 1.8994(2) 0.15974(17)
H18 H 0.7323 1.9889 0.1743
H19 H 0.7090 1.8910 0.0961
C34 C 0.78450(10) 1.8461(2) 0.16637(16)
H20 H 0.7823 1.7548 0.1606
H21 H 0.8066 1.8659 0.2271
C35 C 0.81013(9) 1.8990(2) 0.09128(16)
H22 H 0.8049 1.9899 0.0876
H23 H 0.8478 1.8835 0.1094
C36 C 0.78838(10) 1.8419(2) -0.00461(17)
H24 H 0.7502 1.8476 -0.0195
H25 H 0.8009 1.8911 -0.0505
C37 C 0.77296(8) 1.60648(19) -0.01331(14)
H26 H 0.7375 1.6091 -0.0118
C38 C 0.85023(8) 1.5390(2) -0.01796(16)
H27 H 0.8780 1.4849 -0.0202
C39 C 0.85322(9) 1.6671(2) -0.01417(16)
H28 H 0.8828 1.7165 -0.0138
Cd1B Cd 0.269372(5) 0.694722(13) -0.221567(9)
Cd1A Cd 1.269372(5) 1.805278(13) 0.278433(9)
Cd2A Cd 0.230852(5) 0.697466(13) 0.021302(9)
Cd2B Cd 1.230852(5) 1.802534(13) 0.521302(9)
Cd2C Cd 0.769148(5) 1.302534(13) -0.021302(9)
O3B O 0.67029(5) 1.22941(14) 0.10199(9)
O4A O 0.72093(5) 1.35899(13) 0.51507(10)
O11A O 0.79978(5) 1.16639(13) 0.25112(10)
O12A O 0.80578(5) 1.30552(13) 0.14194(9)
O12B O 0.80578(5) 1.19448(13) 0.64194(9)
N7C N 0.79957(7) 0.99840(16) 0.48194(12)
loop_
_geom_bond_atom_site_label_1
_geom_bond_atom_site_label_2
_geom_bond_site_symmetry_1
_geom_bond_site_symmetry_2
Cd1 O1 1_555 1_555
Cd2 O1 1_555 1_555
O1 C7 1_555 1_555
O2 Cd2 1_555 1_555
O3 C14 1_555 1_555
O4 C14 1_555 1_555
O5 N1 1_555 1_555
O6 N1 1_555 1_555
O7 N2 1_555 1_555
O8 N2 1_555 1_555
O9 Cd1 1_555 1_555
O10 Cd2 1_555 1_555
O11 C28 1_555 1_555
O12 C28 1_555 1_555
O13 N3 1_555 1_555
O14 N3 1_555 1_555
O15 N4 1_555 1_555
O16 N4 1_555 1_555
N1 C2 1_555 1_555
N2 C9 1_555 1_555
N3 C16 1_555 1_555
N4 C23 1_555 1_555
N5 Cd1 1_555 1_555
N6 C29 1_555 1_555
N7 C37 1_555 1_555
N8 C36 1_555 1_555
C1 C2 1_555 1_555
C2 C3 1_555 1_555
C3 H1 1_555 1_555
C4 C3 1_555 1_555
C5 C4 1_555 1_555
H2 C5 1_555 1_555
C6 C1 1_555 1_555
H3 C6 1_555 1_555
C7 O2 1_555 1_555
C8 C1 1_555 1_555
C9 C8 1_555 1_555
C10 C9 1_555 1_555
H4 C10 1_555 1_555
C11 C10 1_555 1_555
C12 C11 1_555 1_555
H5 C12 1_555 1_555
C13 C8 1_555 1_555
H6 C13 1_555 1_555
C14 C11 1_555 1_555
C15 C16 1_555 1_555
C16 C17 1_555 1_555
C17 H7 1_555 1_555
C18 C17 1_555 1_555
C19 C18 1_555 1_555
H8 C19 1_555 1_555
C20 C15 1_555 1_555
H9 C20 1_555 1_555
C21 O9 1_555 1_555
C22 C15 1_555 1_555
C23 C22 1_555 1_555
C24 C23 1_555 1_555
H10 C24 1_555 1_555
C25 C24 1_555 1_555
C26 C25 1_555 1_555
H11 C26 1_555 1_555
C27 C22 1_555 1_555
H12 C27 1_555 1_555
C28 C25 1_555 1_555
C29 N5 1_555 1_555
H13 C29 1_555 1_555
C30 N5 1_555 1_555
H14 C30 1_555 1_555
C31 N6 1_555 1_555
H15 C31 1_555 1_555
C32 N6 1_555 1_555
H16 C32 1_555 1_555
H17 C32 1_555 1_555
C33 C32 1_555 1_555
H18 C33 1_555 1_555
H19 C33 1_555 1_555
C34 C33 1_555 1_555
H20 C34 1_555 1_555
H21 C34 1_555 1_555
C35 C34 1_555 1_555
H22 C35 1_555 1_555
H23 C35 1_555 1_555
C36 C35 1_555 1_555
H24 C36 1_555 1_555
H25 C36 1_555 1_555
C37 N8 1_555 1_555
H26 C37 1_555 1_555
C38 N7 1_555 1_555
H27 C38 1_555 1_555
C39 N8 1_555 1_555
H28 C39 1_555 1_555
Cd1B O3 1_555 1_555
Cd1A O11 1_555 1_555
Cd2A O4 1_555 1_555
Cd2B O12 1_555 1_555
Cd2C N7 1_555 1_555
O3B Cd1 1_555 1_555
O4A Cd2 1_555 1_555
O11A Cd1 1_555 1_555
O12A Cd1 1_555 1_555
O12B Cd2 1_555 1_555
N7C Cd2 1_555 1_555
O10 C21 1_555 1_555
O12 Cd1A 1_555 1_555
C4 C7 1_555 1_555
C5 C6 1_555 1_555
C12 C13 1_555 1_555
C18 C21 1_555 1_555
C19 C20 1_555 1_555
C26 C27 1_555 1_555
C30 C31 1_555 1_555
C38 C39 1_555 1_555
Cd2C O12A 1_555 1_555

#END
