
#######################################################################
#
#                 Cambridge Crystallographic Data Centre
#                                CCDC 
#
#######################################################################
#
# If this CIF has been generated from an entry in the Cambridge 
# Structural Database, then it will include bibliographic, chemical, 
# crystal, experimental, refinement or atomic coordinate data resulting 
# from the CCDC's data processing and validation procedures.
#
#######################################################################

data_IRULAI
_symmetry_cell_setting           monoclinic
_symmetry_space_group_name_H-M   'P 21/n'
_symmetry_Int_Tables_number      14
_space_group_name_Hall           '-P 2yn'
loop_
_symmetry_equiv_pos_site_id
_symmetry_equiv_pos_as_xyz
1 x,y,z
2 1/2+x,1/2-y,1/2+z
3 -x,-y,-z
4 1/2-x,1/2+y,1/2-z
_cell_length_a                   6.181(1)
_cell_length_b                   20.695(1)
_cell_length_c                   9.932(1)
_cell_angle_alpha                90.00
_cell_angle_beta                 94.77(1)
_cell_angle_gamma                90.00
_cell_volume                     1266.06
loop_
_atom_site_label
_atom_site_type_symbol
_atom_site_fract_x
_atom_site_fract_y
_atom_site_fract_z
Cu1 Cu 0.74549(10) 0.01970(3) 0.93418(6)
Cl1 Cl 0.5444(2) 0.03868(6) 1.15067(12)
Cl2 Cl 1.0489(2) 0.07278(6) 1.02660(13)
N1 N 0.6016(7) 0.17553(19) 0.6762(4)
N2 N 0.6612(6) 0.09808(18) 0.8175(4)
N3 N 0.4980(7) 0.1358(2) 0.8564(4)
N4 N 0.4628(7) 0.1828(2) 0.7725(4)
C1 C 0.7265(7) 0.1237(2) 0.7037(5)
C2 C 0.8936(8) 0.1054(2) 0.6163(5)
C3 C 1.0606(8) 0.0637(3) 0.6552(5)
H1 H 1.088(7) 0.047(2) 0.732(4)
C4 C 1.2140(9) 0.0488(3) 0.5655(6)
H2 H 1.331(8) 0.019(2) 0.592(5)
C5 C 1.1920(9) 0.0737(3) 0.4365(6)
H3 H 1.287(7) 0.066(2) 0.377(4)
C6 C 1.0268(10) 0.1160(3) 0.3976(6)
H4 H 1.008(8) 0.128(2) 0.310(5)
C7 C 0.8765(8) 0.1336(2) 0.4866(5)
C8 C 0.6940(10) 0.1801(3) 0.4471(5)
H5 H 0.562(10) 0.155(3) 0.409(6)
H6 H 0.732(7) 0.209(2) 0.373(5)
C9 C 0.6290(8) 0.2224(2) 0.5640(5)
C10 C 0.8061(11) 0.2691(3) 0.6157(7)
H7 H 0.758(7) 0.290(2) 0.694(5)
H8 H 0.949(9) 0.245(2) 0.640(5)
H9 H 0.823(9) 0.296(3) 0.560(6)
C11 C 0.4149(11) 0.2563(3) 0.5268(7)
H10 H 0.445(9) 0.273(3) 0.458(6)
H11 H 0.378(8) 0.276(2) 0.601(5)
H12 H 0.301(7) 0.224(2) 0.501(5)
Cl1B Cl 0.4556(2) -0.03868(6) 0.84933(12)
Cl2B Cl 0.9511(2) -0.07278(6) 0.97340(13)
Cu1B Cu 0.25451(10) -0.01970(3) 1.06582(6)
Cu1B_2 Cu 1.25451(10) -0.01970(3) 1.06582(6)
loop_
_geom_bond_atom_site_label_1
_geom_bond_atom_site_label_2
_geom_bond_site_symmetry_1
_geom_bond_site_symmetry_2
Cu1 Cl1 1_555 1_555
Cl1 Cu1B 1_555 1_555
Cl2 Cu1 1_555 1_555
N1 N4 1_555 1_555
N2 Cu1 1_555 1_555
N3 N2 1_555 1_555
N4 N3 1_555 1_555
C1 N1 1_555 1_555
C2 C1 1_555 1_555
C3 C2 1_555 1_555
H1 C3 1_555 1_555
C4 C3 1_555 1_555
H2 C4 1_555 1_555
C5 C4 1_555 1_555
H3 C5 1_555 1_555
C6 C5 1_555 1_555
H4 C6 1_555 1_555
C7 C2 1_555 1_555
C8 C7 1_555 1_555
H5 C8 1_555 1_555
H6 C8 1_555 1_555
C9 N1 1_555 1_555
C10 C9 1_555 1_555
H7 C10 1_555 1_555
H8 C10 1_555 1_555
H9 C10 1_555 1_555
C11 C9 1_555 1_555
H10 C11 1_555 1_555
H11 C11 1_555 1_555
H12 C11 1_555 1_555
Cl1B Cu1 1_555 1_555
Cl2B Cu1 1_555 1_555
Cu1B Cl1B 1_555 1_555
Cu1B_2 Cl2 1_555 1_555
N2 C1 1_555 1_555
C6 C7 1_555 1_555
C8 C9 1_555 1_555
Cl2B Cu1B_2 1_555 1_555

#END
