
#######################################################################
#
#                 Cambridge Crystallographic Data Centre
#                                CCDC 
#
#######################################################################
#
# If this CIF has been generated from an entry in the Cambridge 
# Structural Database, then it will include bibliographic, chemical, 
# crystal, experimental, refinement or atomic coordinate data resulting 
# from the CCDC's data processing and validation procedures.
#
#######################################################################

data_IRUQAN
_symmetry_cell_setting           monoclinic
_symmetry_space_group_name_H-M   'P 21/c'
_symmetry_Int_Tables_number      14
_space_group_name_Hall           '-P 2ybc'
loop_
_symmetry_equiv_pos_site_id
_symmetry_equiv_pos_as_xyz
1 x,y,z
2 x,1/2-y,1/2+z
3 -x,-y,-z
4 -x,1/2+y,1/2-z
_cell_length_a                   9.2367(18)
_cell_length_b                   8.2303(16)
_cell_length_c                   19.012(4)
_cell_angle_alpha                90
_cell_angle_beta                 103.13(3)
_cell_angle_gamma                90
_cell_volume                     1407.52
loop_
_atom_site_label
_atom_site_type_symbol
_atom_site_fract_x
_atom_site_fract_y
_atom_site_fract_z
Pb1 Pb 0.45391(2) -0.51687(3) 0.151180(13)
S1 S 0.2654(3) -0.6743(3) 0.02642(13)
N1 N 0.2337(7) -0.3012(7) 0.1349(3)
N2 N -0.3395(6) 0.2755(7) 0.1234(4)
N3 N 0.4661(7) -0.6592(8) -0.0625(4)
N4 N 0.6815(7) -0.2906(8) 0.2586(3)
O1 O 0.5432(6) -0.2780(9) 0.2507(4)
O2 O 0.7307(6) -0.4015(7) 0.2272(3)
O3 O 0.7622(6) -0.1891(7) 0.2957(3)
C1 C 0.2244(8) -0.1702(9) 0.0928(4)
H1 H 0.2950 -0.1564 0.0653
C2 C 0.1149(8) -0.0544(9) 0.0881(4)
H2 H 0.1129 0.0354 0.0582
C3 C 0.0081(7) -0.0722(8) 0.1280(4)
C4 C 0.0162(9) -0.2083(9) 0.1712(4)
H3 H -0.0540 -0.2255 0.1985
C5 C 0.1286(9) -0.3170(10) 0.1733(5)
H4 H 0.1329 -0.4075 0.2030
C6 C -0.2045(8) 0.3204(9) 0.1174(5)
H5 H -0.1860 0.4308 0.1136
C7 C -0.0913(8) 0.2138(9) 0.1165(5)
H6 H -0.0003 0.2519 0.1103
C8 C -0.1124(7) 0.0500(7) 0.1247(3)
C9 C -0.2544(7) 0.0017(7) 0.1303(4)
H7 H -0.2750 -0.1076 0.1356
C10 C -0.3631(7) 0.1164(8) 0.1278(4)
H8 H -0.4580 0.0814 0.1294
C11 C 0.3849(8) -0.6646(8) -0.0248(4)
O1C O 0.4568(6) -0.7780(9) 0.2493(4)
O3C O 0.2378(6) -0.6891(7) 0.2043(3)
Pb1C Pb 0.54609(2) -0.01687(3) 0.348820(13)
N3B N 0.5339(7) -0.3408(8) 0.0625(4)
N2_2 N 0.6605(6) -0.7245(7) 0.1234(4)
Pb1B Pb 0.54609(2) -0.48313(3) -0.151180(13)
Pb1_2 Pb -0.54609(2) 0.48313(3) 0.151180(13)
loop_
_geom_bond_atom_site_label_1
_geom_bond_atom_site_label_2
_geom_bond_site_symmetry_1
_geom_bond_site_symmetry_2
Pb1 S1 1_555 1_555
S1 C11 1_555 1_555
N1 Pb1 1_555 1_555
N2 C6 1_555 1_555
N3 C11 1_555 1_555
N4 O1 1_555 1_555
O1 Pb1 1_555 1_555
O2 Pb1 1_555 1_555
O3 N4 1_555 1_555
C1 N1 1_555 1_555
H1 C1 1_555 1_555
C2 C1 1_555 1_555
H2 C2 1_555 1_555
C3 C2 1_555 1_555
C4 C3 1_555 1_555
H3 C4 1_555 1_555
C5 N1 1_555 1_555
H4 C5 1_555 1_555
C6 H5 1_555 1_555
C7 C6 1_555 1_555
H6 C7 1_555 1_555
C8 C3 1_555 1_555
C9 C8 1_555 1_555
H7 C9 1_555 1_555
C10 N2 1_555 1_555
H8 C10 1_555 1_555
O1C Pb1 1_555 1_555
O3C Pb1 1_555 1_555
Pb1C O1 1_555 1_555
N3B Pb1 1_555 1_555
N2_2 Pb1 1_555 1_555
Pb1B N3 1_555 1_555
Pb1_2 N2 1_555 1_555
N4 O2 1_555 1_555
O3 Pb1C 1_555 1_555
C4 C5 1_555 1_555
C7 C8 1_555 1_555
C9 C10 1_555 1_555

#END
