
#######################################################################
#
#                 Cambridge Crystallographic Data Centre
#                                CCDC 
#
#######################################################################
#
# If this CIF has been generated from an entry in the Cambridge 
# Structural Database, then it will include bibliographic, chemical, 
# crystal, experimental, refinement or atomic coordinate data resulting 
# from the CCDC's data processing and validation procedures.
#
#######################################################################

data_IRUVOG
_symmetry_cell_setting           monoclinic
_symmetry_space_group_name_H-M   'C 2/c'
_symmetry_Int_Tables_number      15
_space_group_name_Hall           '-C 2yn'
loop_
_symmetry_equiv_pos_site_id
_symmetry_equiv_pos_as_xyz
1 x,y,z
2 1/2+x,1/2+y,z
3 x,-y,1/2+z
4 1/2+x,1/2-y,1/2+z
5 -x,-y,-z
6 1/2-x,1/2-y,-z
7 -x,y,1/2-z
8 1/2-x,1/2+y,1/2-z
_cell_length_a                   21.656(9)
_cell_length_b                   15.299(6)
_cell_length_c                   17.050(7)
_cell_angle_alpha                90
_cell_angle_beta                 127.130(5)
_cell_angle_gamma                90
_cell_volume                     4503.71
loop_
_atom_site_label
_atom_site_type_symbol
_atom_site_fract_x
_atom_site_fract_y
_atom_site_fract_z
Fe1 Fe 0.13643(3) 0.75087(3) 0.12271(3)
Cr1 Cr -0.07351(4) 0.73389(5) 0.00315(6)
Cr2 Cr 0.33473(4) 0.70452(6) 0.27808(6)
O1 O 0.0128(2) 0.7483(2) 0.0321(3)
O2 O -0.0972(3) 0.6329(3) -0.0189(4)
O3 O -0.0752(3) 0.7669(3) 0.0915(3)
O4 O 0.2586(2) 0.7666(2) 0.2050(3)
O5 O 0.3156(3) 0.6064(3) 0.2367(4)
O6 O 0.4064(2) 0.7408(3) 0.2842(3)
O7 O -0.14303(19) 0.7974(3) -0.1023(3)
N1 N 0.1418(2) 0.8422(2) 0.2204(3)
N2 N 0.1202(2) 1.1354(2) 0.5257(3)
N3 N 0.1343(2) 0.6625(2) 0.0241(2)
N4 N 0.1325(2) 0.3606(2) -0.2930(3)
C1 C 0.1992(3) 0.8442(3) 0.3172(3)
H1 H 0.2418 0.8079 0.3423
C2 C 0.1977(3) 0.8982(3) 0.3818(3)
H2 H 0.2378 0.8964 0.4490
C3 C 0.1355(3) 0.9547(3) 0.3446(3)
C4 C 0.0779(3) 0.9539(3) 0.2427(3)
H3 H 0.0365 0.9925 0.2144
C5 C 0.0822(2) 0.8970(3) 0.1850(3)
H4 H 0.0419 0.8961 0.1179
C6 C 0.1297(2) 1.0153(3) 0.4084(3)
C7 C 0.0963(3) 1.0979(3) 0.3730(3)
H5 H 0.0778 1.1148 0.3099
C8 C 0.0908(3) 1.1538(3) 0.4312(3)
H6 H 0.0658 1.2070 0.4047
C9 C 0.1508(3) 1.0551(3) 0.5587(3)
H7 H 0.1701 1.0403 0.6226
C10 C 0.1554(3) 0.9932(3) 0.5027(3)
H8 H 0.1753 0.9378 0.5280
C11 C 0.0763(3) 0.6038(3) -0.0285(3)
H9 H 0.0383 0.6007 -0.0191
C12 C 0.0717(3) 0.5483(3) -0.0958(3)
H10 H 0.0319 0.5076 -0.1293
C13 C 0.1263(3) 0.5530(3) -0.1138(3)
C14 C 0.1840(3) 0.6169(3) -0.0622(3)
H11 H 0.2202 0.6251 -0.0741
C15 C 0.1864(2) 0.6673(3) 0.0062(3)
H12 H 0.2268 0.7071 0.0423
C16 C 0.1264(2) 0.4890(3) -0.1801(3)
C17 C 0.1524(3) 0.5092(3) -0.2348(3)
H13 H 0.1678 0.5658 -0.2352
C18 C 0.1552(3) 0.4433(3) -0.2895(3)
H14 H 0.1735 0.4574 -0.3251
C19 C 0.1050(3) 0.3429(3) -0.2425(3)
H15 H 0.0867 0.2868 -0.2467
C20 C 0.1022(3) 0.4033(3) -0.1843(3)
H16 H 0.0845 0.3871 -0.1484
N2B N 0.1202(2) 0.8646(2) 0.0257(3)
N4B N 0.1325(2) 0.6394(2) 0.2070(3)
O7C O 0.35697(19) 0.7026(3) 0.3977(3)
Cr2C Cr -0.16527(4) 0.79548(6) -0.22192(6)
Fe1B Fe 0.13643(3) 1.24913(3) 0.62271(3)
Fe1B_2 Fe 0.13643(3) 0.24913(3) -0.37729(3)
loop_
_geom_bond_atom_site_label_1
_geom_bond_atom_site_label_2
_geom_bond_site_symmetry_1
_geom_bond_site_symmetry_2
Fe1 O1 1_555 1_555
Cr1 O1 1_555 1_555
Cr2 O4 1_555 1_555
O2 Cr1 1_555 1_555
O3 Cr1 1_555 1_555
O4 Fe1 1_555 1_555
O5 Cr2 1_555 1_555
O6 Cr2 1_555 1_555
O7 Cr1 1_555 1_555
N1 Fe1 1_555 1_555
N2 C8 1_555 1_555
N3 Fe1 1_555 1_555
N4 C18 1_555 1_555
C1 N1 1_555 1_555
H1 C1 1_555 1_555
C2 C1 1_555 1_555
H2 C2 1_555 1_555
C3 C2 1_555 1_555
C4 C3 1_555 1_555
H3 C4 1_555 1_555
C5 N1 1_555 1_555
H4 C5 1_555 1_555
C6 C3 1_555 1_555
C7 C6 1_555 1_555
H5 C7 1_555 1_555
C8 C7 1_555 1_555
H6 C8 1_555 1_555
C9 N2 1_555 1_555
H7 C9 1_555 1_555
C10 C6 1_555 1_555
H8 C10 1_555 1_555
C11 N3 1_555 1_555
H9 C11 1_555 1_555
C12 C11 1_555 1_555
H10 C12 1_555 1_555
C13 C12 1_555 1_555
C14 C13 1_555 1_555
H11 C14 1_555 1_555
C15 N3 1_555 1_555
H12 C15 1_555 1_555
C16 C13 1_555 1_555
C17 C16 1_555 1_555
H13 C17 1_555 1_555
C18 C17 1_555 1_555
H14 C18 1_555 1_555
C19 N4 1_555 1_555
H15 C19 1_555 1_555
C20 C16 1_555 1_555
H16 C20 1_555 1_555
N2B Fe1 1_555 1_555
N4B Fe1 1_555 1_555
O7C Cr2 1_555 1_555
Cr2C O7 1_555 1_555
Fe1B N2 1_555 1_555
Fe1B_2 N4 1_555 1_555
C4 C5 1_555 1_555
C9 C10 1_555 1_555
C14 C15 1_555 1_555
C19 C20 1_555 1_555

#END
