
#######################################################################
#
#                 Cambridge Crystallographic Data Centre
#                                CCDC 
#
#######################################################################
#
# If this CIF has been generated from an entry in the Cambridge 
# Structural Database, then it will include bibliographic, chemical, 
# crystal, experimental, refinement or atomic coordinate data resulting 
# from the CCDC's data processing and validation procedures.
#
#######################################################################

data_IRUWEX
_symmetry_cell_setting           triclinic
_symmetry_space_group_name_H-M   'P -1'
_symmetry_Int_Tables_number      2
_space_group_name_Hall           '-P 1'
loop_
_symmetry_equiv_pos_site_id
_symmetry_equiv_pos_as_xyz
1 x,y,z
2 -x,-y,-z
_cell_length_a                   15.3889(3)
_cell_length_b                   16.1548(3)
_cell_length_c                   16.9597(3)
_cell_angle_alpha                62.249(5)
_cell_angle_beta                 75.535(5)
_cell_angle_gamma                73.918(5)
_cell_volume                     3548.92
loop_
_atom_site_label
_atom_site_type_symbol
_atom_site_fract_x
_atom_site_fract_y
_atom_site_fract_z
Cu1 Cu 0.74383(8) 0.69082(9) 0.4207(1)
Cu2 Cu 0.25009(7) 0.93935(8) 0.18119(7)
N1 N 0.8052(6) 0.6706(6) 0.3099(6)
C1 C 0.8417(6) 0.6602(7) 0.2472(7)
C2 C 0.8849(6) 0.6445(6) 0.1697(7)
C3 C 0.9721(7) 0.5886(8) 0.1646(9)
C4 C 1.0093(8) 0.5756(8) 0.089(1)
C5 C 0.9630(8) 0.6174(8) 0.0156(9)
C6 C 0.8773(7) 0.6721(7) 0.0201(7)
C7 C 0.8382(6) 0.6868(6) 0.0957(7)
O1 O 0.7542(4) 0.7403(4) 0.1072(4)
C8 C 0.6999(6) 0.7838(6) 0.0341(6)
C9 C 0.6163(6) 0.8429(7) 0.0634(6)
C10 C 0.6396(6) 0.9226(7) 0.0724(6)
O2 O 0.5565(4) 0.9697(4) 0.1046(4)
C11 C 0.5601(5) 1.0435(6) 0.1198(5)
C12 C 0.6375(6) 1.0811(7) 0.1025(6)
C13 C 0.6304(6) 1.1578(7) 0.1209(6)
C14 C 0.5480(7) 1.1970(7) 0.1557(6)
C15 C 0.4698(6) 1.1617(6) 0.1744(5)
C16 C 0.4768(5) 1.0848(6) 0.1551(5)
C17 C 0.3985(5) 1.0440(6) 0.1707(5)
N2 N 0.3384(4) 1.0104(5) 0.1804(4)
N3 N 0.1626(4) 0.9056(5) 0.2955(5)
C18 C 0.1078(5) 0.8998(6) 0.3554(5)
C19 C 0.0388(5) 0.8941(5) 0.4316(5)
C20 C 0.0612(6) 0.8771(6) 0.5127(5)
C21 C -0.0073(6) 0.8735(6) 0.5837(6)
C22 C -0.0970(6) 0.8851(6) 0.5745(6)
C23 C -0.1202(5) 0.9032(6) 0.4936(5)
C24 C -0.0525(5) 0.9079(6) 0.4211(5)
O3 O -0.0663(4) 0.9260(4) 0.3379(4)
C25 C -0.1544(5) 0.9230(6) 0.3270(6)
C26 C -0.1483(6) 0.9450(7) 0.2263(6)
C27 C -0.0663(7) 0.8898(8) 0.1952(7)
O4 O -0.0746(5) 0.9090(5) 0.1041(4)
C28 C -0.0049(7) 0.8660(7) 0.0630(7)
C29 C 0.0818(7) 0.8104(8) 0.0964(7)
C30 C 0.1419(8) 0.7735(7) 0.0433(7)
C31 C 0.1308(7) 0.7793(8) -0.0347(8)
C32 C 0.0493(7) 0.8314(7) -0.0652(7)
C33 C -0.0182(6) 0.8745(6) -0.0170(6)
C34 C -0.1014(6) 0.9328(6) -0.0559(5)
N4 N -0.1635(4) 0.9765(5) -0.0911(4)
N5 N 0.6590(5) 0.6012(6) 0.5029(6)
C35 C 0.6025(6) 0.5602(6) 0.5516(6)
C36 C 0.5313(6) 0.5116(7) 0.6130(6)
C37 C 0.4647(7) 0.5555(8) 0.6618(7)
C38 C 0.3944(8) 0.512(1) 0.7187(8)
C39 C 0.3922(8) 0.424(1) 0.725(1)
C40 C 0.4548(8) 0.3812(9) 0.682(1)
C41 C 0.5303(7) 0.4219(7) 0.6216(7)
O5 O 0.5959(7) 0.3902(6) 0.5688(6)
C42 C 0.586(1) 0.283(1) 0.607(1)
C43 C 0.655(1) 0.252(1) 0.555(1)
C44 C 0.6635(6) 0.1453(6) 0.5795(7)
O6 O 0.5714(4) 0.1338(4) 0.5882(5)
C45 C 0.5605(5) 0.0490(6) 0.5967(6)
C46 C 0.6290(6) -0.0249(6) 0.5952(6)
C47 C 0.6083(7) -0.1079(7) 0.6042(6)
C48 C 0.5196(7) -0.1168(7) 0.6147(6)
C49 C 0.4494(6) -0.0440(7) 0.6182(6)
C50 C 0.4690(5) 0.0409(6) 0.6086(6)
C51 C 0.3974(5) 0.1195(7) 0.6087(6)
N6 N 0.3407(5) 0.1830(6) 0.6066(6)
N7 N 1.3227(5) 0.8305(5) 0.1545(5)
C52 C 1.3610(6) 0.7665(6) 0.1407(5)
C53 C 1.4082(6) 0.6845(6) 0.1233(5)
C54 C 1.4896(7) 0.6845(7) 0.0656(6)
C55 C 1.5336(8) 0.6048(7) 0.0513(7)
C56 C 1.4940(8) 0.5259(7) 0.0946(7)
C57 C 1.4108(8) 0.5244(7) 0.1506(7)
C58 C 1.3683(6) 0.6031(6) 0.1665(6)
O7 O 1.2875(4) 0.6124(4) 0.2206(5)
C59 C 1.2356(7) 0.5376(7) 0.2519(7)
C60 C 1.1478(7) 0.5683(7) 0.3036(7)
C61 C 1.1642(6) 0.5774(7) 0.3815(7)
O8 O 1.0776(4) 0.6039(5) 0.4287(4)
C62 C 1.0784(6) 0.6116(6) 0.5043(7)
C63 C 1.1568(6) 0.5930(6) 0.5432(7)
C64 C 1.1486(6) 0.6021(6) 0.6214(7)
C65 C 1.0650(7) 0.6294(7) 0.6629(7)
C66 C 0.9867(7) 0.6477(6) 0.6268(7)
C67 C 0.9933(6) 0.6397(6) 0.5482(6)
C68 C 0.9124(6) 0.6576(6) 0.5104(7)
N8 N 0.8472(5) 0.6721(6) 0.4816(5)
H1 H 1.0051 0.5598 0.2142
H2 H 1.0681 0.5371 0.0865
H3 H 0.9900 0.6084 -0.0373
H4 H 0.8448 0.7001 -0.0298
H5 H 0.6835 0.7363 0.0255
H6 H 0.7327 0.8227 -0.0202
H7 H 0.5874 0.8032 0.1200
H8 H 0.5757 0.8695 0.0201
H9 H 0.6650 0.9656 0.0156
H10 H 0.6820 0.8976 0.1139
H11 H 0.6946 1.0544 0.0782
H12 H 0.6831 1.1836 0.1094
H13 H 0.5449 1.2500 0.1672
H14 H 0.4133 1.1886 0.1994
H15 H 0.1231 0.8681 0.5193
H16 H 0.0073 0.8629 0.6392
H17 H -0.1435 0.8806 0.6245
H18 H -0.1824 0.9125 0.4877
H19 H -0.1997 0.9696 0.3412
H20 H -0.1690 0.8617 0.3649
H21 H -0.1474 1.0108 0.1907
H22 H -0.2006 0.9302 0.2190
H23 H -0.0628 0.8238 0.2335
H24 H -0.0132 0.9092 0.1948
H25 H 0.0947 0.8011 0.1522
H26 H 0.1990 0.7391 0.0637
H27 H 0.1766 0.7492 -0.0672
H28 H 0.0386 0.8383 -0.1209
H29 H 0.4684 0.6162 0.6551
H30 H 0.3491 0.5410 0.7526
H31 H 0.3425 0.3942 0.7623
H32 H 0.4500 0.3199 0.6914
H33 H 0.5283 0.2788 0.5994
H34 H 0.5927 0.2493 0.6691
H35 H 0.7105 0.2612 0.5631
H36 H 0.6456 0.2890 0.4943
H37 H 0.6877 0.1061 0.6345
H38 H 0.7016 0.1298 0.5329
H39 H 0.6908 -0.0199 0.5879
H40 H 0.6565 -0.1591 0.6032
H41 H 0.5067 -0.1733 0.6194
H42 H 0.3878 -0.0506 0.6271
H43 H 1.5157 0.7402 0.0353
H44 H 1.5899 0.6048 0.0124
H45 H 1.5244 0.4703 0.0860
H46 H 1.3836 0.4695 0.1776
H47 H 1.2679 0.4784 0.2900
H48 H 1.2234 0.5322 0.2024
H49 H 1.1101 0.5223 0.3249
H50 H 1.1174 0.6282 0.2642
H51 H 1.1999 0.6250 0.3609
H52 H 1.1957 0.5183 0.4208
H53 H 1.2154 0.5740 0.5151
H54 H 1.2018 0.5893 0.6471
H55 H 1.0605 0.6358 0.7168
H56 H 0.9286 0.6658 0.6562
N6A N 0.6593(5) 0.8170(6) 0.3934(6)
N4A N 0.1635(4) 1.0235(5) 0.0911(4)
N7_2 N 0.3227(5) 0.8305(5) 0.1545(5)
Cu2A Cu -0.25009(7) 1.06065(8) -0.18119(7)
Cu1A Cu 0.25617(8) 0.30918(9) 0.5793(1)
Cu2_2 Cu 1.25009(7) 0.93935(8) 0.18119(7)
P1 P 0.2473(2) 0.7874(2) -0.2967(2)
F1 F 0.2614(5) 0.8475(5) -0.2517(4)
F2 F 0.3513(5) 0.7685(6) -0.3301(6)
F3 F 0.2335(5) 0.7362(5) -0.3499(4)
F4 F 0.1448(5) 0.8068(7) -0.2652(6)
F5 F 0.256(1) 0.6978(7) -0.2104(7)
F6 F 0.2357(7) 0.8836(5) -0.3860(5)
P2 P 0.2286(3) 1.3295(2) -0.8193(3)
F7 F 0.2722(5) 1.2765(6) -0.8779(5)
F8 F 0.3265(5) 1.3423(5) -0.8190(6)
F9 F 0.1793(8) 1.4027(6) -0.7842(7)
F10 F 0.1302(5) 1.3183(6) -0.8194(6)
F11 F 0.222(1) 1.4204(9) -0.9147(8)
F12 F 0.2362(6) 1.2431(7) -0.7350(7)
O9 O 0.290(1) 0.586(1) 0.980(1)
loop_
_geom_bond_atom_site_label_1
_geom_bond_atom_site_label_2
_geom_bond_site_symmetry_1
_geom_bond_site_symmetry_2
Cu1 N1 1_555 1_555
Cu2 N2 1_555 1_555
N1 C1 1_555 1_555
C1 C2 1_555 1_555
C2 C3 1_555 1_555
C3 C4 1_555 1_555
C4 C5 1_555 1_555
C5 C6 1_555 1_555
C6 C7 1_555 1_555
C7 C2 1_555 1_555
O1 C7 1_555 1_555
C8 O1 1_555 1_555
C9 C8 1_555 1_555
C10 C9 1_555 1_555
O2 C10 1_555 1_555
C11 O2 1_555 1_555
C12 C11 1_555 1_555
C13 C12 1_555 1_555
C14 C13 1_555 1_555
C15 C14 1_555 1_555
C16 C11 1_555 1_555
C17 C16 1_555 1_555
N2 C17 1_555 1_555
N3 Cu2 1_555 1_555
C18 N3 1_555 1_555
C19 C18 1_555 1_555
C20 C19 1_555 1_555
C21 C20 1_555 1_555
C22 C21 1_555 1_555
C23 C22 1_555 1_555
C24 C19 1_555 1_555
O3 C24 1_555 1_555
C25 O3 1_555 1_555
C26 C25 1_555 1_555
C27 C26 1_555 1_555
O4 C27 1_555 1_555
C28 O4 1_555 1_555
C29 C28 1_555 1_555
C30 C29 1_555 1_555
C31 C30 1_555 1_555
C32 C31 1_555 1_555
C33 C28 1_555 1_555
C34 C33 1_555 1_555
N4 C34 1_555 1_555
N5 Cu1 1_555 1_555
C35 N5 1_555 1_555
C36 C35 1_555 1_555
C37 C36 1_555 1_555
C38 C37 1_555 1_555
C39 C38 1_555 1_555
C40 C39 1_555 1_555
C41 C36 1_555 1_555
O5 C41 1_555 1_555
C42 O5 1_555 1_555
C43 C42 1_555 1_555
C44 C43 1_555 1_555
O6 C44 1_555 1_555
C45 O6 1_555 1_555
C46 C45 1_555 1_555
C47 C46 1_555 1_555
C48 C47 1_555 1_555
C49 C48 1_555 1_555
C50 C45 1_555 1_555
C51 C50 1_555 1_555
N6 C51 1_555 1_555
N7 C52 1_555 1_555
C52 C53 1_555 1_555
C53 C54 1_555 1_555
C54 C55 1_555 1_555
C55 C56 1_555 1_555
C56 C57 1_555 1_555
C57 C58 1_555 1_555
C58 C53 1_555 1_555
O7 C58 1_555 1_555
C59 O7 1_555 1_555
C60 C59 1_555 1_555
C61 C60 1_555 1_555
O8 C61 1_555 1_555
C62 O8 1_555 1_555
C63 C62 1_555 1_555
C64 C63 1_555 1_555
C65 C64 1_555 1_555
C66 C65 1_555 1_555
C67 C62 1_555 1_555
C68 C67 1_555 1_555
N8 Cu1 1_555 1_555
P1 F1 1_555 1_555
F2 P1 1_555 1_555
F3 P1 1_555 1_555
F4 P1 1_555 1_555
F5 P1 1_555 1_555
F6 P1 1_555 1_555
P2 F7 1_555 1_555
F8 P2 1_555 1_555
F9 P2 1_555 1_555
F10 P2 1_555 1_555
F11 P2 1_555 1_555
F12 P2 1_555 1_555
H1 C3 1_555 1_555
H2 C4 1_555 1_555
H3 C5 1_555 1_555
H4 C6 1_555 1_555
H5 C8 1_555 1_555
H6 C8 1_555 1_555
H7 C9 1_555 1_555
H8 C9 1_555 1_555
H9 C10 1_555 1_555
H10 C10 1_555 1_555
H11 C12 1_555 1_555
H12 C13 1_555 1_555
H13 C14 1_555 1_555
H14 C15 1_555 1_555
H15 C20 1_555 1_555
H16 C21 1_555 1_555
H17 C22 1_555 1_555
H18 C23 1_555 1_555
H19 C25 1_555 1_555
H20 C25 1_555 1_555
H21 C26 1_555 1_555
H22 C26 1_555 1_555
H23 C27 1_555 1_555
H24 C27 1_555 1_555
H25 C29 1_555 1_555
H26 C30 1_555 1_555
H27 C31 1_555 1_555
H28 C32 1_555 1_555
H29 C37 1_555 1_555
H30 C38 1_555 1_555
H31 C39 1_555 1_555
H32 C40 1_555 1_555
H33 C42 1_555 1_555
H34 C42 1_555 1_555
H35 C43 1_555 1_555
H36 C43 1_555 1_555
H37 C44 1_555 1_555
H38 C44 1_555 1_555
H39 C46 1_555 1_555
H40 C47 1_555 1_555
H41 C48 1_555 1_555
H42 C49 1_555 1_555
H43 C54 1_555 1_555
H44 C55 1_555 1_555
H45 C56 1_555 1_555
H46 C57 1_555 1_555
H47 C59 1_555 1_555
H48 C59 1_555 1_555
H49 C60 1_555 1_555
H50 C60 1_555 1_555
H51 C61 1_555 1_555
H52 C61 1_555 1_555
H53 C63 1_555 1_555
H54 C64 1_555 1_555
H55 C65 1_555 1_555
H56 C66 1_555 1_555
N6A Cu1 1_555 1_555
N4A Cu2 1_555 1_555
N7_2 Cu2 1_555 1_555
Cu2A N4 1_555 1_555
Cu1A N6 1_555 1_555
Cu2_2 N7 1_555 1_555
C15 C16 1_555 1_555
C23 C24 1_555 1_555
C32 C33 1_555 1_555
C40 C41 1_555 1_555
C49 C50 1_555 1_555
C66 C67 1_555 1_555
C68 N8 1_555 1_555

#END
