
#######################################################################
#
#                 Cambridge Crystallographic Data Centre
#                                CCDC 
#
#######################################################################
#
# If this CIF has been generated from an entry in the Cambridge 
# Structural Database, then it will include bibliographic, chemical, 
# crystal, experimental, refinement or atomic coordinate data resulting 
# from the CCDC's data processing and validation procedures.
#
#######################################################################

data_IRUWAT
_symmetry_cell_setting           monoclinic
_symmetry_space_group_name_H-M   'P 21/n'
_symmetry_Int_Tables_number      14
_space_group_name_Hall           '-P 2yn'
loop_
_symmetry_equiv_pos_site_id
_symmetry_equiv_pos_as_xyz
1 x,y,z
2 1/2+x,1/2-y,1/2+z
3 -x,-y,-z
4 1/2-x,1/2+y,1/2-z
_cell_length_a                   10.158(9)
_cell_length_b                   13.855(12)
_cell_length_c                   18.475(16)
_cell_angle_alpha                90
_cell_angle_beta                 102.884(15)
_cell_angle_gamma                90
_cell_volume                     2534.69
loop_
_atom_site_label
_atom_site_type_symbol
_atom_site_fract_x
_atom_site_fract_y
_atom_site_fract_z
Ni1 Ni 0.84738(5) 0.70076(4) 0.03564(3)
Cr1 Cr 1.09172(6) 0.70301(5) -0.07705(4)
Cr2 Cr 0.92828(7) 0.50392(5) 0.16254(3)
N1 N 0.7022(3) 0.6096(2) -0.02388(17)
N2 N 0.5247(3) 0.7016(3) 0.00462(18)
H1 H 0.4540 0.7323 -0.0183
N3 N 0.7135(3) 0.7250(2) 0.10369(17)
N4 N 0.7769(4) 0.8190(3) -0.03010(19)
N5 N 0.8335(6) 0.9248(3) 0.0695(3)
H2 H 0.7978 0.9688 0.0919
N6 N 0.9872(4) 0.7926(3) 0.0975(2)
C1 C 0.7396(5) 0.5337(3) -0.0607(2)
H3 H 0.8308 0.5178 -0.0520
C2 C 0.6502(5) 0.4794(4) -0.1100(3)
H4 H 0.6801 0.4278 -0.1342
C3 C 0.5141(5) 0.5019(4) -0.1235(3)
H5 H 0.4518 0.4669 -0.1582
C4 C 0.4727(4) 0.5756(4) -0.0857(2)
H6 H 0.3816 0.5911 -0.0934
C5 C 0.5687(4) 0.6276(3) -0.0350(2)
C6 C 0.5804(4) 0.7325(3) 0.0766(2)
C7 C 0.4942(4) 0.7731(3) 0.1175(3)
H7 H 0.4028 0.7812 0.0964
C8 C 0.5472(5) 0.8006(4) 0.1893(3)
H8 H 0.4917 0.8278 0.2176
C9 C 0.6839(5) 0.7877(3) 0.2197(2)
H9 H 0.7213 0.8047 0.2687
C10 C 0.7612(4) 0.7497(3) 0.1759(2)
H10 H 0.8525 0.7399 0.1965
C11 C 0.7153(5) 0.8055(4) -0.1022(3)
H11 H 0.7269 0.7468 -0.1243
C12 C 0.6360(7) 0.8749(6) -0.1443(3)
H12 H 0.5956 0.8637 -0.1939
C13 C 0.6185(10) 0.9607(6) -0.1111(5)
H13 H 0.5621 1.0075 -0.1377
C14 C 0.6822(9) 0.9777(5) -0.0404(4)
H14 H 0.6726 1.0364 -0.0177
C15 C 0.7642(6) 0.9039(4) -0.0019(3)
C16 C 0.9523(6) 0.8852(5) 0.1105(3)
C17 C 1.0351(9) 0.9369(7) 0.1683(4)
H15 H 1.0123 0.9996 0.1785
C18 C 1.1497(9) 0.8953(9) 0.2098(4)
H16 H 1.2024 0.9294 0.2492
C19 C 1.1876(6) 0.8044(8) 0.1941(3)
H17 H 1.2668 0.7763 0.2208
C20 C 1.1025(5) 0.7559(5) 0.1366(3)
H18 H 1.1272 0.6943 0.1247
O1 O 0.9824(3) 0.6697(2) -0.03019(15)
O2 O 1.2243(3) 0.7479(3) -0.0237(2)
O3 O 1.1482(3) 0.6037(2) -0.12130(18)
O4 O 1.0258(4) 0.7795(3) -0.1393(2)
O5 O 1.0783(4) 0.4824(3) 0.20541(18)
O6 O 0.8404(4) 0.5400(2) 0.21939(17)
O7 O 0.9296(3) 0.5834(2) 0.09854(15)
O3B O 0.8518(3) 0.3963(2) 0.12130(18)
Cr2B Cr 1.07172(7) 0.49608(5) -0.16254(3)
O8 O 0.7466(7) 0.0824(3) 0.1473(3)
loop_
_geom_bond_atom_site_label_1
_geom_bond_atom_site_label_2
_geom_bond_site_symmetry_1
_geom_bond_site_symmetry_2
Ni1 N1 1_555 1_555
Cr1 O1 1_555 1_555
Cr2 O5 1_555 1_555
N1 C1 1_555 1_555
N2 H1 1_555 1_555
N3 Ni1 1_555 1_555
N4 Ni1 1_555 1_555
N5 H2 1_555 1_555
N6 Ni1 1_555 1_555
C1 H3 1_555 1_555
C2 C1 1_555 1_555
H4 C2 1_555 1_555
C3 C2 1_555 1_555
H5 C3 1_555 1_555
C4 C3 1_555 1_555
H6 C4 1_555 1_555
C5 N1 1_555 1_555
C6 N2 1_555 1_555
C7 C6 1_555 1_555
H7 C7 1_555 1_555
C8 C7 1_555 1_555
H8 C8 1_555 1_555
C9 C8 1_555 1_555
H9 C9 1_555 1_555
C10 N3 1_555 1_555
H10 C10 1_555 1_555
C11 N4 1_555 1_555
H11 C11 1_555 1_555
C12 C11 1_555 1_555
H12 C12 1_555 1_555
C13 C12 1_555 1_555
H13 C13 1_555 1_555
C14 C13 1_555 1_555
H14 C14 1_555 1_555
C15 N4 1_555 1_555
C16 N5 1_555 1_555
C17 C16 1_555 1_555
H15 C17 1_555 1_555
C18 C17 1_555 1_555
H16 C18 1_555 1_555
C19 C18 1_555 1_555
H17 C19 1_555 1_555
C20 N6 1_555 1_555
H18 C20 1_555 1_555
O1 Ni1 1_555 1_555
O2 Cr1 1_555 1_555
O3 Cr1 1_555 1_555
O4 Cr1 1_555 1_555
O6 Cr2 1_555 1_555
O7 Ni1 1_555 1_555
O3B Cr2 1_555 1_555
Cr2B O3 1_555 1_555
Cr2 O7 1_555 1_555
N2 C5 1_555 1_555
N3 C6 1_555 1_555
N5 C15 1_555 1_555
N6 C16 1_555 1_555
C4 C5 1_555 1_555
C9 C10 1_555 1_555
C14 C15 1_555 1_555
C19 C20 1_555 1_555

#END
