
#######################################################################
#
#                 Cambridge Crystallographic Data Centre
#                                CCDC 
#
#######################################################################
#
# If this CIF has been generated from an entry in the Cambridge 
# Structural Database, then it will include bibliographic, chemical, 
# crystal, experimental, refinement or atomic coordinate data resulting 
# from the CCDC's data processing and validation procedures.
#
#######################################################################

data_ISABUZ
_symmetry_cell_setting           monoclinic
_symmetry_space_group_name_H-M   'P 21/c'
_symmetry_Int_Tables_number      14
_space_group_name_Hall           '-P 2ybc'
loop_
_symmetry_equiv_pos_site_id
_symmetry_equiv_pos_as_xyz
1 x,y,z
2 -x,1/2+y,1/2-z
3 -x,-y,-z
4 x,1/2-y,1/2+z
_cell_length_a                   8.739(3)
_cell_length_b                   17.023(6)
_cell_length_c                   23.119(8)
_cell_angle_alpha                90
_cell_angle_beta                 94.077(9)
_cell_angle_gamma                90
_cell_volume                     3430.57
loop_
_atom_site_label
_atom_site_type_symbol
_atom_site_fract_x
_atom_site_fract_y
_atom_site_fract_z
Ag1 Ag -0.64368(7) 0.37022(4) -0.05866(2)
O1 O -0.3080(5) 0.3698(3) 0.59555(19)
O2 O -0.1604(5) 0.6769(3) 0.4483(2)
C1 C -0.3371(7) 0.4335(3) 0.5038(2)
C2 C -0.2617(6) 0.5049(4) 0.5131(3)
O3 O -0.3962(5) 0.4258(3) 0.31401(18)
C3 C -0.1825(6) 0.5392(4) 0.4690(3)
C4 C -0.2654(9) 0.3534(4) 0.7504(3)
H1 H -0.1862 0.3492 0.7793
N1 N -0.5394(9) 0.3516(4) 0.0324(3)
C5 C -0.2587(7) 0.4303(4) 0.4056(3)
C6 C -0.4045(8) 0.3144(4) 0.4405(3)
H2 H -0.3277 0.2768 0.4316
H3 H -0.4510 0.2983 0.4750
H4 H -0.4815 0.3172 0.4088
C7 C -0.4765(9) 0.3782(4) 0.1406(3)
C8 C -0.3313(7) 0.3940(4) 0.4501(3)
C9 C -0.4149(8) 0.4065(4) 0.2569(3)
C10 C -0.3510(8) 0.3637(4) 0.6502(3)
C11 C -0.0797(7) 0.7450(4) 0.4493(3)
C12 C -0.5025(8) 0.3654(4) 0.6652(3)
H5 H -0.5823 0.3693 0.6365
C13 C 0.0672(9) 0.8892(4) 0.4461(4)
C14 C -0.0896(8) 0.6127(4) 0.4806(4)
H6 H 0.0139 0.6048 0.4692
H7 H -0.0840 0.6246 0.5217
C15 C -0.2332(8) 0.3568(4) 0.6940(3)
H8 H -0.1318 0.3544 0.6844
C16 C -0.4229(8) 0.3987(4) 0.5512(3)
H9 H -0.4874 0.3558 0.5363
H10 H -0.4875 0.4381 0.5675
C17 C -0.3214(9) 0.3581(4) 0.2278(3)
H11 H -0.2365 0.3348 0.2473
C18 C -0.1835(7) 0.5025(4) 0.4146(3)
C19 C -0.5734(9) 0.4276(4) 0.1702(3)
H12 H -0.6583 0.4508 0.1505
C20 C -0.1085(9) 0.7957(4) 0.4031(3)
H13 H -0.1777 0.7811 0.3725
C21 C 0.0987(9) 0.8386(5) 0.4919(3)
H14 H 0.1702 0.8526 0.5218
C22 C -0.4147(9) 0.3563(4) 0.7651(3)
C23 C -0.2622(8) 0.3936(4) 0.3464(3)
H15 H -0.2702 0.3369 0.3492
H16 H -0.1697 0.4065 0.3276
C24 C -0.0364(9) 0.8670(5) 0.4016(4)
H17 H -0.0576 0.9006 0.3703
C25 C -0.3537(10) 0.3441(4) 0.1691(3)
H18 H -0.2905 0.3111 0.1493
C26 C -0.5106(9) 0.3644(5) 0.0795(3)
C27 C 0.0249(9) 0.7676(4) 0.4936(3)
H19 H 0.0459 0.7343 0.5250
C28 C -0.2673(8) 0.5477(4) 0.5710(3)
H20 H -0.2956 0.6015 0.5641
H21 H -0.3416 0.5229 0.5936
H22 H -0.1681 0.5455 0.5917
N2 N -0.4737(9) 0.3639(4) 0.8730(3)
C29 C -0.5420(8) 0.4413(4) 0.2280(3)
H23 H -0.6055 0.4740 0.2479
C30 C -0.1050(8) 0.5419(5) 0.3658(3)
H24 H -0.0392 0.5830 0.3814
H25 H -0.0452 0.5038 0.3467
H26 H -0.1811 0.5638 0.3384
N3 N 0.2104(9) 1.0219(5) 0.4433(3)
C31 C 0.1459(10) 0.9628(5) 0.4437(4)
C32 C -0.4482(9) 0.3588(4) 0.8258(4)
C33 C -0.5338(8) 0.3613(4) 0.7226(3)
H27 H -0.6348 0.3618 0.7328
S1 S -0.8919(2) 0.27484(13) -0.15180(9)
O4 O -0.7865(6) 0.2590(3) -0.1016(2)
F1 F -0.8563(8) 0.1326(3) -0.1897(2)
O5 O -1.0463(6) 0.2560(4) -0.1450(3)
F2 F -0.6928(8) 0.2136(4) -0.2146(3)
F3 F -0.9201(8) 0.2149(4) -0.2543(2)
O6 O -0.8659(8) 0.3495(3) -0.1788(3)
C34 C -0.8373(12) 0.2068(6) -0.2041(4)
N3C N -0.7896(9) 0.4781(5) -0.0567(3)
N2_2 N -0.4737(9) 0.3639(4) -0.1270(3)
Ag1C Ag 0.35632(7) 1.12978(4) 0.44134(2)
Ag1_2 Ag -0.64368(7) 0.37022(4) 0.94134(2)
O7 O -2.007(2) 1.5016(13) 0.2034(9)
loop_
_geom_bond_atom_site_label_1
_geom_bond_atom_site_label_2
_geom_bond_site_symmetry_1
_geom_bond_site_symmetry_2
Ag1 N1 1_555 1_555
O1 C10 1_555 1_555
O2 C11 1_555 1_555
C1 C2 1_555 1_555
C2 C3 1_555 1_555
O3 C9 1_555 1_555
C3 C14 1_555 1_555
C4 H1 1_555 1_555
N1 C26 1_555 1_555
C5 C8 1_555 1_555
C6 H2 1_555 1_555
H3 C6 1_555 1_555
H4 C6 1_555 1_555
C7 C19 1_555 1_555
C8 C1 1_555 1_555
C9 C17 1_555 1_555
C10 C12 1_555 1_555
C11 C20 1_555 1_555
C12 H5 1_555 1_555
C13 C21 1_555 1_555
C14 O2 1_555 1_555
H6 C14 1_555 1_555
H7 C14 1_555 1_555
C15 C4 1_555 1_555
H8 C15 1_555 1_555
C16 O1 1_555 1_555
H9 C16 1_555 1_555
H10 C16 1_555 1_555
C17 H11 1_555 1_555
C18 C3 1_555 1_555
C19 H12 1_555 1_555
C20 H13 1_555 1_555
C21 H14 1_555 1_555
C22 C4 1_555 1_555
C23 O3 1_555 1_555
H15 C23 1_555 1_555
H16 C23 1_555 1_555
C24 C13 1_555 1_555
H17 C24 1_555 1_555
C25 C7 1_555 1_555
H18 C25 1_555 1_555
C26 C7 1_555 1_555
C27 C11 1_555 1_555
H19 C27 1_555 1_555
C28 C2 1_555 1_555
H20 C28 1_555 1_555
H21 C28 1_555 1_555
H22 C28 1_555 1_555
N2 C32 1_555 1_555
C29 C9 1_555 1_555
H23 C29 1_555 1_555
C30 C18 1_555 1_555
H24 C30 1_555 1_555
H25 C30 1_555 1_555
H26 C30 1_555 1_555
N3 C31 1_555 1_555
C31 C13 1_555 1_555
C32 C22 1_555 1_555
C33 C12 1_555 1_555
H27 C33 1_555 1_555
S1 O4 1_555 1_555
O4 Ag1 1_555 1_555
F1 C34 1_555 1_555
O5 S1 1_555 1_555
F2 C34 1_555 1_555
F3 C34 1_555 1_555
O6 S1 1_555 1_555
C34 S1 1_555 1_555
N3C Ag1 1_555 1_555
N2_2 Ag1 1_555 1_555
Ag1C N3 1_555 1_555
Ag1_2 N2 1_555 1_555
C1 C16 1_555 1_555
C5 C18 1_555 1_555
C5 C23 1_555 1_555
C6 C8 1_555 1_555
C10 C15 1_555 1_555
C17 C25 1_555 1_555
C19 C29 1_555 1_555
C20 C24 1_555 1_555
C21 C27 1_555 1_555
C22 C33 1_555 1_555

#END
