
#######################################################################
#
#                 Cambridge Crystallographic Data Centre
#                                CCDC 
#
#######################################################################
#
# If this CIF has been generated from an entry in the Cambridge 
# Structural Database, then it will include bibliographic, chemical, 
# crystal, experimental, refinement or atomic coordinate data resulting 
# from the CCDC's data processing and validation procedures.
#
#######################################################################

data_ISADAH
_symmetry_cell_setting           triclinic
_symmetry_space_group_name_H-M   'P -1'
_symmetry_Int_Tables_number      2
_space_group_name_Hall           '-P 1'
loop_
_symmetry_equiv_pos_site_id
_symmetry_equiv_pos_as_xyz
1 x,y,z
2 -x,-y,-z
_cell_length_a                   8.0610(16)
_cell_length_b                   9.7339(19)
_cell_length_c                   11.613(2)
_cell_angle_alpha                85.63(3)
_cell_angle_beta                 72.94(3)
_cell_angle_gamma                72.13(3)
_cell_volume                     828.996
loop_
_atom_site_label
_atom_site_type_symbol
_atom_site_fract_x
_atom_site_fract_y
_atom_site_fract_z
Zn1 Zn 0.31680(5) -0.28835(4) -0.29303(3)
N1 N 0.5546(4) -0.4109(3) -0.3921(3)
N2 N 0.3508(4) -0.4484(3) -0.1780(3)
C1 C 0.6465(5) -0.3866(4) -0.5037(4)
H1 H 0.6012 -0.2999 -0.5395
C2 C 0.8746(5) -0.6115(4) -0.5155(4)
H2 H 0.9810 -0.6793 -0.5574
C3 C 0.8049(5) -0.4837(4) -0.5684(3)
H3 H 0.8639 -0.4635 -0.6465
C4 C 0.7823(5) -0.6373(4) -0.3972(4)
H4 H 0.8278 -0.7221 -0.3592
C5 C 0.6231(4) -0.5356(3) -0.3376(3)
C6 C 0.5104(5) -0.5528(3) -0.2145(3)
C7 C 0.5615(6) -0.6667(4) -0.1403(4)
H5 H 0.6735 -0.7369 -0.1657
C8 C 0.4435(6) -0.6743(4) -0.0280(4)
H6 H 0.4749 -0.7500 0.0230
C9 C 0.2791(6) -0.5686(4) 0.0074(4)
H7 H 0.1970 -0.5735 0.0818
C10 C 0.2367(5) -0.4552(4) -0.0682(3)
H8 H 0.1273 -0.3822 -0.0429
O1 O 0.4251(4) -0.1462(3) -0.2094(2)
O2 O 0.6676(4) -0.0730(3) -0.4132(2)
O3 O 0.3003(4) -0.1556(3) -0.4275(2)
O4 O 0.0630(4) -0.2001(3) -0.2082(3)
O5 O 0.0000 0.0000 -0.5000
O6 O 0.0373(4) 0.3390(3) -0.1822(2)
O7 O 0.6929(4) -0.0462(3) -0.1739(3)
O8 O 0.3907(3) 0.1340(3) -0.2446(2)
O9 O 0.1371(3) 0.1179(3) -0.3467(2)
O10 O -0.0638(3) 0.0796(3) -0.1249(2)
V1 V 0.54009(7) -0.03238(6) -0.25699(5)
V2 V 0.12802(7) 0.17007(5) -0.18148(4)
V3 V -0.11101(7) -0.07812(6) -0.12091(4)
V4 V 0.19478(7) 0.00645(5) -0.46240(4)
O11 O -0.1607(4) -0.1372(3) 0.0219(2)
O7_2 O -0.3071(4) -0.0462(3) -0.1739(3)
O2A O 0.3324(4) 0.0730(3) -0.5868(2)
V1A V 0.45991(7) 0.03238(6) -0.74301(5)
V2A V -0.12802(7) -0.17007(5) 0.18148(4)
V3_2 V 0.88899(7) -0.07812(6) -0.12091(4)
V4A V 0.80522(7) -0.00645(5) -0.53760(4)
O11A O 0.1607(4) 0.1372(3) -0.0219(2)
O1A O 0.5749(4) 0.1462(3) -0.7906(2)
O8A O 0.6093(3) -0.1340(3) -0.7554(2)
O6A O -0.0373(4) -0.3390(3) 0.1822(2)
O9A O -0.1371(3) -0.1179(3) 0.3467(2)
O10A O 0.0638(3) -0.0796(3) 0.1249(2)
O4_2 O 1.0630(4) -0.2001(3) -0.2082(3)
O3A O 0.6997(4) 0.1556(3) -0.5725(2)
Zn1A Zn 0.68320(5) 0.28835(4) -0.70697(3)
N1A N 0.4454(4) 0.4109(3) -0.6079(3)
N2A N 0.6492(4) 0.4484(3) -0.8220(3)
C1A C 0.3535(5) 0.3866(4) -0.4963(4)
H1A H 0.3988 0.2999 -0.4605
C2A C 0.1254(5) 0.6115(4) -0.4845(4)
H2A H 0.0190 0.6793 -0.4426
C3A C 0.1951(5) 0.4837(4) -0.4316(3)
H3A H 0.1361 0.4635 -0.3535
C4A C 0.2177(5) 0.6373(4) -0.6028(4)
H4A H 0.1722 0.7221 -0.6408
C5A C 0.3769(4) 0.5356(3) -0.6624(3)
C6A C 0.4896(5) 0.5528(3) -0.7855(3)
C7A C 0.4385(6) 0.6667(4) -0.8597(4)
H5A H 0.3265 0.7369 -0.8343
C8A C 0.5565(6) 0.6743(4) -0.9720(4)
H6A H 0.5251 0.7500 -1.0230
C9A C 0.7209(6) 0.5686(4) -1.0074(4)
H7A H 0.8030 0.5735 -1.0818
C10A C 0.7633(5) 0.4552(4) -0.9318(3)
H8A H 0.8727 0.3822 -0.9571
V4A_2 V -0.19478(7) -0.00645(5) -0.53760(4)
V1_2 V -0.45991(7) -0.03238(6) -0.25699(5)
O7A O 0.3071(4) 0.0462(3) -0.8261(3)
O8A_2 O -0.3907(3) -0.1340(3) 0.2446(2)
O10_2 O 0.9362(3) 0.0796(3) -0.1249(2)
O11_2 O 0.8393(4) -0.1372(3) 0.0219(2)
O5_2 O 1.0000 0.0000 -0.5000
O9A_2 O 0.8629(3) -0.1179(3) -0.6533(2)
V3A V 0.11101(7) 0.07812(6) 0.12091(4)
V2A_2 V 0.87198(7) -0.17007(5) -0.81852(4)
V4A_3 V -0.19478(7) -0.00645(5) 0.46240(4)
Zn1_2 Zn 1.31680(5) -0.28835(4) -0.29303(3)
O4A O 0.9370(4) 0.2001(3) -0.7918(3)
loop_
_geom_bond_atom_site_label_1
_geom_bond_atom_site_label_2
_geom_bond_site_symmetry_1
_geom_bond_site_symmetry_2
Zn1 N1 1_555 1_555
N1 C1 1_555 1_555
N2 Zn1 1_555 1_555
C1 H1 1_555 1_555
C2 H2 1_555 1_555
C3 C1 1_555 1_555
H3 C3 1_555 1_555
C4 C2 1_555 1_555
H4 C4 1_555 1_555
C5 N1 1_555 1_555
C6 N2 1_555 1_555
C7 C6 1_555 1_555
H5 C7 1_555 1_555
C8 C7 1_555 1_555
H6 C8 1_555 1_555
C9 C8 1_555 1_555
H7 C9 1_555 1_555
C10 N2 1_555 1_555
H8 C10 1_555 1_555
O1 Zn1 1_555 1_555
O2 V1 1_555 1_555
O3 Zn1 1_555 1_555
O4 Zn1 1_555 1_555
O5 V4 1_555 1_555
O6 V2 1_555 1_555
O7 V1 1_555 1_555
O8 V1 1_555 1_555
O9 V2 1_555 1_555
O10 V2 1_555 1_555
V1 O1 1_555 1_555
V2 O8 1_555 1_555
V3 O4 1_555 1_555
V4 O3 1_555 1_555
O11 V3 1_555 1_555
O7_2 V3 1_555 1_555
O2A V4 1_555 1_555
V1A O2A 1_555 1_555
V2A O11 1_555 1_555
V3_2 O7 1_555 1_555
V4A O2 1_555 1_555
O11A V2 1_555 1_555
O1A V1A 1_555 1_555
O8A V1A 1_555 1_555
O6A V2A 1_555 1_555
O9A V2A 1_555 1_555
O10A V2A 1_555 1_555
O4_2 V3_2 1_555 1_555
O3A V4A 1_555 1_555
Zn1A O1A 1_555 1_555
N1A Zn1A 1_555 1_555
N2A Zn1A 1_555 1_555
C1A N1A 1_555 1_555
H1A C1A 1_555 1_555
C2A H2A 1_555 1_555
C3A C1A 1_555 1_555
H3A C3A 1_555 1_555
C4A C2A 1_555 1_555
H4A C4A 1_555 1_555
C5A N1A 1_555 1_555
C6A N2A 1_555 1_555
C7A C6A 1_555 1_555
H5A C7A 1_555 1_555
C8A C7A 1_555 1_555
H6A C8A 1_555 1_555
C9A C8A 1_555 1_555
H7A C9A 1_555 1_555
C10A N2A 1_555 1_555
H8A C10A 1_555 1_555
V4A_2 O5 1_555 1_555
V1_2 O7_2 1_555 1_555
O7A V1A 1_555 1_555
O8A_2 V2A 1_555 1_555
O10_2 V3_2 1_555 1_555
O11_2 V3_2 1_555 1_555
O5_2 V4A 1_555 1_555
O9A_2 V4A 1_555 1_555
V3A O11A 1_555 1_555
V2A_2 O8A 1_555 1_555
V4A_3 O9A 1_555 1_555
Zn1_2 O4_2 1_555 1_555
O4A Zn1A 1_555 1_555
C2 C3 1_555 1_555
C4 C5 1_555 1_555
C5 C6 1_555 1_555
C9 C10 1_555 1_555
O9 V4 1_555 1_555
O10 V3 1_555 1_555
O10A V3A 1_555 1_555
O3A Zn1A 1_555 1_555
C2A C3A 1_555 1_555
C4A C5A 1_555 1_555
C5A C6A 1_555 1_555
C9A C10A 1_555 1_555
O9A_2 V2A_2 1_555 1_555

#END
