
#######################################################################
#
#                 Cambridge Crystallographic Data Centre
#                                CCDC 
#
#######################################################################
#
# If this CIF has been generated from an entry in the Cambridge 
# Structural Database, then it will include bibliographic, chemical, 
# crystal, experimental, refinement or atomic coordinate data resulting 
# from the CCDC's data processing and validation procedures.
#
#######################################################################

data_ISAFAK
_symmetry_cell_setting           orthorhombic
_symmetry_space_group_name_H-M   'P b c a'
_symmetry_Int_Tables_number      61
_space_group_name_Hall           '-P 2ac 2ab'
loop_
_symmetry_equiv_pos_site_id
_symmetry_equiv_pos_as_xyz
1 x,y,z
2 1/2-x,-y,1/2+z
3 1/2+x,1/2-y,-z
4 -x,1/2+y,1/2-z
5 -x,-y,-z
6 1/2+x,y,1/2-z
7 1/2-x,1/2+y,z
8 x,1/2-y,1/2+z
_cell_length_a                   7.9362(4)
_cell_length_b                   14.7422(6)
_cell_length_c                   27.8398(15)
_cell_angle_alpha                90
_cell_angle_beta                 90
_cell_angle_gamma                90
_cell_volume                     3257.17
loop_
_atom_site_label
_atom_site_type_symbol
_atom_site_fract_x
_atom_site_fract_y
_atom_site_fract_z
C1 C 0.1689(6) 1.0513(3) 0.44573(16)
C2 C 0.1981(6) 0.9741(3) 0.48082(16)
C3 C 0.1752(7) 0.8217(4) 0.49654(19)
H1 H 0.1419 0.7638 0.4872
C4 C 0.2464(8) 0.8336(4) 0.54090(19)
H2 H 0.2615 0.7845 0.5614
C5 C 0.2708(6) 0.9890(4) 0.52579(16)
C6 C 0.3182(6) 1.0805(3) 0.54720(16)
C7 C 0.0656(6) 0.8966(3) 0.25095(17)
C8 C 0.1107(6) 0.9955(3) 0.25910(16)
C9 C 0.1348(9) 1.1105(4) 0.3135(2)
H3 H 0.1337 1.1313 0.3450
C10 C 0.1637(9) 1.1716(4) 0.2764(2)
H4 H 0.1796 1.2325 0.2837
C11 C 0.1436(6) 1.0563(3) 0.22190(17)
C12 C 0.1647(6) 1.0311(3) 0.16964(17)
N1 N 0.1523(5) 0.8909(3) 0.46619(14)
N2 N 0.2936(6) 0.9168(3) 0.55420(15)
N3 N 0.1088(6) 1.0230(3) 0.30487(14)
N4 N 0.1691(7) 1.1452(3) 0.23070(16)
O1 O 0.0710(5) 1.0328(2) 0.41129(12)
O2 O 0.3294(6) 0.8841(4) 0.37130(17)
H5 H 0.361(12) 0.886(6) 0.343(3)
H6 H 0.434(11) 0.849(9) 0.378(5)
O3 O 0.2405(6) 1.1238(3) 0.45339(14)
O4 O 0.0907(5) 0.7265(3) 0.38839(15)
H7 H 0.009(10) 0.691(7) 0.381(3)
H8 H 0.171(10) 0.704(6) 0.412(3)
O5 O 0.1977(5) 1.1245(2) 0.56434(13)
O6 O -0.2202(5) 0.7775(3) 0.34313(14)
H9 H -0.186(9) 0.736(5) 0.315(3)
H10 H -0.290(13) 0.808(7) 0.326(4)
O7 O 0.4686(5) 1.0999(3) 0.54774(18)
O8 O 0.0715(6) 0.8468(2) 0.28768(13)
O9 O 0.0262(5) 0.8725(3) 0.20963(13)
O10 O 0.0734(6) 1.0725(3) 0.13988(13)
H11 H 0.1194 1.0725 0.1135
O11 O 0.2775(5) 0.9763(3) 0.15884(14)
Ce1 Ce 0.01478(3) 0.889089(17) 0.371325(9)
O5D O -0.1977(5) 0.8755(2) 0.43566(13)
O11E O -0.2225(5) 0.9763(3) 0.34116(14)
Ce1D Ce -0.01478(3) 1.110911(17) 0.628675(9)
Ce1E Ce 0.51478(3) 0.889089(17) 0.128675(9)
loop_
_geom_bond_atom_site_label_1
_geom_bond_atom_site_label_2
_geom_bond_site_symmetry_1
_geom_bond_site_symmetry_2
C1 C2 1_555 1_555
C2 C5 1_555 1_555
C3 H1 1_555 1_555
C4 C3 1_555 1_555
H2 C4 1_555 1_555
C5 C6 1_555 1_555
C6 O5 1_555 1_555
C7 C8 1_555 1_555
C8 C11 1_555 1_555
C9 H3 1_555 1_555
C10 C9 1_555 1_555
H4 C10 1_555 1_555
C11 C12 1_555 1_555
C12 O10 1_555 1_555
N1 C2 1_555 1_555
N2 C4 1_555 1_555
N3 C8 1_555 1_555
N4 C10 1_555 1_555
O1 C1 1_555 1_555
O2 H5 1_555 1_555
H6 O2 1_555 1_555
O3 C1 1_555 1_555
O4 H7 1_555 1_555
H8 O4 1_555 1_555
O5 Ce1D 1_555 1_555
O6 H9 1_555 1_555
H10 O6 1_555 1_555
O7 C6 1_555 1_555
O8 C7 1_555 1_555
O9 C7 1_555 1_555
O10 H11 1_555 1_555
O11 C12 1_555 1_555
Ce1 N1 1_555 1_555
O5D Ce1 1_555 1_555
O11E Ce1 1_555 1_555
Ce1E O11 1_555 1_555
C3 N1 1_555 1_555
C5 N2 1_555 1_555
C9 N3 1_555 1_555
C11 N4 1_555 1_555
N3 Ce1 1_555 1_555
O1 Ce1 1_555 1_555
O2 Ce1 1_555 1_555
O4 Ce1 1_555 1_555
O6 Ce1 1_555 1_555
O8 Ce1 1_555 1_555

#END
