
#######################################################################
#
#                 Cambridge Crystallographic Data Centre
#                                CCDC 
#
#######################################################################
#
# If this CIF has been generated from an entry in the Cambridge 
# Structural Database, then it will include bibliographic, chemical, 
# crystal, experimental, refinement or atomic coordinate data resulting 
# from the CCDC's data processing and validation procedures.
#
#######################################################################

data_ISAGOZ
_symmetry_cell_setting           orthorhombic
_symmetry_space_group_name_H-M   'P c c n'
_symmetry_Int_Tables_number      56
_space_group_name_Hall           '-P 2ab 2ac'
loop_
_symmetry_equiv_pos_site_id
_symmetry_equiv_pos_as_xyz
1 x,y,z
2 1/2-x,1/2-y,z
3 1/2+x,-y,1/2-z
4 -x,1/2+y,1/2-z
5 -x,-y,-z
6 1/2+x,1/2+y,-z
7 1/2-x,y,1/2+z
8 x,1/2-y,1/2+z
_cell_length_a                   21.9716(5)
_cell_length_b                   10.9527(3)
_cell_length_c                   16.6617(5)
_cell_angle_alpha                90
_cell_angle_beta                 90
_cell_angle_gamma                90
_cell_volume                     4009.61
loop_
_atom_site_label
_atom_site_type_symbol
_atom_site_fract_x
_atom_site_fract_y
_atom_site_fract_z
Ni1 Ni 0.149321(10) 0.01981(2) 0.240402(15)
O1 O -0.01782(6) -0.52830(14) 0.16778(9)
O2 O 0.11899(6) -0.13063(14) 0.32577(9)
H1 H 0.0834(10) -0.097(2) 0.3303(12)
O3 O -0.05854(5) -0.42799(12) 0.27175(8)
O4 O 0.20837(6) -0.59425(15) 0.18355(10)
O5 O 0.26282(5) -0.45994(11) 0.25422(8)
N1 N 0.14096(8) -0.09470(16) 0.14364(9)
O6 O -0.02568(9) -0.1904(2) 0.03025(11)
C1 C 0.11075(9) -0.2476(2) 0.29829(12)
C2 C 0.09943(8) -0.47633(19) 0.22820(11)
H2 H 0.0958 -0.5508 0.2018
N2 N 0.10296(9) -0.23581(19) 0.06321(11)
C3 C 0.16184(8) -0.31700(19) 0.28200(11)
H3 H 0.2002 -0.2864 0.2945
C4 C 0.05341(8) -0.29707(19) 0.28385(11)
H4 H 0.0187 -0.2535 0.2982
C5 C 0.15677(8) -0.43081(16) 0.24746(13)
C6 C 0.04778(8) -0.41059(17) 0.24834(12)
C7 C 0.21384(8) -0.5020(2) 0.22759(12)
C8 C -0.01451(8) -0.46001(19) 0.22788(13)
C9 C 0.09163(10) -0.1552(2) 0.12231(13)
H5 H 0.0535 -0.1436 0.1454
C10 C 0.18563(11) -0.1382(2) 0.09464(15)
H6 H 0.2259 -0.1122 0.0954
C11 C 0.16327(12) -0.2238(3) 0.04517(16)
H7 H 0.1847 -0.2667 0.0062
C12 C -0.12501(14) -0.1092(3) 0.0401(2)
H8 H -0.1130 -0.0552 0.0834
H9 H -0.1575 -0.0699 0.0103
C13 C 0.05960(14) -0.3219(3) 0.02774(17)
H10 H 0.0396 -0.3676 0.0701
H11 H 0.0813 -0.3795 -0.0060
C14 C 0.01330(16) -0.2574(4) -0.02069(18)
H12 H 0.0332 -0.2025 -0.0581
H13 H -0.0102 -0.3161 -0.0513
C15 C -0.07246(15) -0.1298(3) -0.0137(2)
H14 H -0.0848 -0.1795 -0.0592
H15 H -0.0575 -0.0524 -0.0339
N3 N -0.14734(10) -0.2250(2) 0.07371(13)
C16 C -0.13562(11) -0.2685(2) 0.14705(14)
H16 H -0.1141 -0.2253 0.1858
C17 C -0.18416(12) -0.4081(3) 0.08703(17)
H17 H -0.2040 -0.4815 0.0766
C18 C -0.17741(13) -0.3162(3) 0.03395(18)
H18 H -0.1906 -0.3150 -0.0191
N4 N -0.15740(8) -0.37750(17) 0.15866(11)
O7 O 0.17766(6) 0.16091(13) 0.16364(9)
H19 H 0.1736(8) 0.2361(10) 0.1754(13)
H20 H 0.2149(5) 0.1379(16) 0.1657(13)
Ni1C Ni -0.149321(10) -0.48019(2) 0.259598(15)
Ni1A Ni 0.350679(10) -0.51981(2) 0.240402(15)
O3C O 0.05854(5) 0.07201(12) 0.22825(8)
O5A O 0.23718(5) -0.04006(11) 0.25422(8)
N4C N 0.15740(8) 0.12250(17) 0.34134(11)
loop_
_geom_bond_atom_site_label_1
_geom_bond_atom_site_label_2
_geom_bond_site_symmetry_1
_geom_bond_site_symmetry_2
Ni1 O2 1_555 1_555
O1 C8 1_555 1_555
O2 H1 1_555 1_555
O3 C8 1_555 1_555
O4 C7 1_555 1_555
O5 C7 1_555 1_555
N1 Ni1 1_555 1_555
O6 C14 1_555 1_555
C1 O2 1_555 1_555
C2 H2 1_555 1_555
N2 C9 1_555 1_555
C3 C1 1_555 1_555
H3 C3 1_555 1_555
C4 C1 1_555 1_555
H4 C4 1_555 1_555
C5 C2 1_555 1_555
C6 C2 1_555 1_555
C7 C5 1_555 1_555
C8 C6 1_555 1_555
C9 N1 1_555 1_555
H5 C9 1_555 1_555
C10 N1 1_555 1_555
H6 C10 1_555 1_555
C11 N2 1_555 1_555
H7 C11 1_555 1_555
C12 H8 1_555 1_555
H9 C12 1_555 1_555
C13 N2 1_555 1_555
H10 C13 1_555 1_555
H11 C13 1_555 1_555
C14 C13 1_555 1_555
H12 C14 1_555 1_555
H13 C14 1_555 1_555
C15 O6 1_555 1_555
H14 C15 1_555 1_555
H15 C15 1_555 1_555
N3 C12 1_555 1_555
C16 N3 1_555 1_555
H16 C16 1_555 1_555
C17 H17 1_555 1_555
C18 N3 1_555 1_555
H18 C18 1_555 1_555
N4 C16 1_555 1_555
O7 Ni1 1_555 1_555
H19 O7 1_555 1_555
H20 O7 1_555 1_555
Ni1C O3 1_555 1_555
Ni1A O5 1_555 1_555
O3C Ni1 1_555 1_555
O5A Ni1 1_555 1_555
N4C Ni1 1_555 1_555
C3 C5 1_555 1_555
C4 C6 1_555 1_555
C10 C11 1_555 1_555
C12 C15 1_555 1_555
C17 C18 1_555 1_555
C17 N4 1_555 1_555
N4 Ni1C 1_555 1_555

#END
