
#######################################################################
#
#                 Cambridge Crystallographic Data Centre
#                                CCDC 
#
#######################################################################
#
# If this CIF has been generated from an entry in the Cambridge 
# Structural Database, then it will include bibliographic, chemical, 
# crystal, experimental, refinement or atomic coordinate data resulting 
# from the CCDC's data processing and validation procedures.
#
#######################################################################

data_ISAGOY
_symmetry_cell_setting           monoclinic
_symmetry_space_group_name_H-M   'C 2'
_symmetry_Int_Tables_number      5
_space_group_name_Hall           'C 2y'
loop_
_symmetry_equiv_pos_site_id
_symmetry_equiv_pos_as_xyz
1 x,y,z
2 -x,y,-z
3 1/2+x,1/2+y,z
4 1/2-x,1/2+y,-z
_cell_length_a                   15.5116(12)
_cell_length_b                   12.6934(9)
_cell_length_c                   10.5136(8)
_cell_angle_alpha                90
_cell_angle_beta                 125.7580(10)
_cell_angle_gamma                90
_cell_volume                     1679.85
loop_
_atom_site_label
_atom_site_type_symbol
_atom_site_fract_x
_atom_site_fract_y
_atom_site_fract_z
Co1 Co -0.5000 -0.19455(3) -0.5000
S1 S -0.87681(5) -0.19403(8) -0.82601(8)
Si1 Si -0.22551(6) -0.30690(6) 0.15578(8)
N1 N -0.46301(18) -0.30656(19) -0.3198(3)
N2 N -0.02851(19) -0.56826(18) 0.3387(3)
N3 N -0.65957(15) -0.1988(2) -0.5850(2)
C1 C -0.3777(2) -0.2869(2) -0.1727(3)
H1 H -0.3342 -0.2286 -0.1579
C2 C -0.3481(2) -0.3448(2) -0.0412(3)
C3 C -0.4127(3) -0.4320(2) -0.0679(4)
H2 H -0.3963 -0.4756 0.0171
C4 C -0.5004(3) -0.4541(2) -0.2184(4)
H3 H -0.5441 -0.5131 -0.2374
C5 C -0.5239(2) -0.3893(2) -0.3414(4)
H4 H -0.5851 -0.4040 -0.4439
C6 C -0.1023(2) -0.4945(2) 0.2984(3)
H5 H -0.1458 -0.5032 0.3340
C7 C -0.1195(2) -0.4065(2) 0.2082(3)
C8 C -0.0547(3) -0.3957(3) 0.1579(4)
H6 H -0.0628 -0.3367 0.0961
C9 C 0.0218(3) -0.4712(3) 0.1982(5)
H7 H 0.0666 -0.4645 0.1645
C10 C 0.0321(2) -0.5562(3) 0.2879(4)
H8 H 0.0843 -0.6080 0.3145
C11 C -0.2461(3) -0.2894(3) 0.3147(4)
H9 H -0.3226 -0.2860 0.2703
H10 H -0.2124 -0.3471 0.3926
C12 C -0.1915(5) -0.1850(6) 0.3862(6)
H11 H -0.2246 -0.1511 0.4327
H12 H -0.1160 -0.1982 0.4719
C13 C -0.1974(5) -0.1126(4) 0.2733(7)
H13 H -0.1435 -0.0565 0.3306
H14 H -0.2683 -0.0788 0.2109
C14 C -0.1786(3) -0.1684(2) 0.1630(4)
H15 H -0.1025 -0.1674 0.2051
H16 H -0.2206 -0.1356 0.0577
C15 C -0.75031(17) -0.1977(3) -0.6836(3)
Si1A Si -0.77449(6) -0.30690(6) -1.15578(8)
N1A N -0.53699(18) -0.30656(19) -0.6802(3)
N2A N -0.97149(19) -0.56826(18) -1.3387(3)
C1A C -0.6223(2) -0.2869(2) -0.8273(3)
H1A H -0.6658 -0.2286 -0.8421
C2A C -0.6519(2) -0.3448(2) -0.9588(3)
C3A C -0.5873(3) -0.4320(2) -0.9321(4)
H2A H -0.6037 -0.4756 -1.0171
C4A C -0.4996(3) -0.4541(2) -0.7816(4)
H3A H -0.4559 -0.5131 -0.7626
C5A C -0.4761(2) -0.3893(2) -0.6586(4)
H4A H -0.4149 -0.4040 -0.5561
C6A C -0.8977(2) -0.4945(2) -1.2984(3)
H5A H -0.8542 -0.5032 -1.3340
C7A C -0.8805(2) -0.4065(2) -1.2082(3)
C8A C -0.9453(3) -0.3957(3) -1.1579(4)
H6A H -0.9372 -0.3367 -1.0961
C9A C -1.0218(3) -0.4712(3) -1.1982(5)
H7A H -1.0666 -0.4645 -1.1645
C10A C -1.0321(2) -0.5562(3) -1.2879(4)
H8A H -1.0843 -0.6080 -1.3145
C11A C -0.7539(3) -0.2894(3) -1.3147(4)
H9A H -0.6774 -0.2860 -1.2703
H10A H -0.7876 -0.3471 -1.3926
C12A C -0.8085(5) -0.1850(6) -1.3862(6)
H11A H -0.7754 -0.1511 -1.4327
H12A H -0.8840 -0.1982 -1.4719
C13A C -0.8026(5) -0.1126(4) -1.2733(7)
H13A H -0.8565 -0.0565 -1.3306
H14A H -0.7317 -0.0788 -1.2109
C14A C -0.8214(3) -0.1684(2) -1.1630(4)
H15A H -0.8975 -0.1674 -1.2051
H16A H -0.7794 -0.1356 -1.0577
S1A S -0.12319(5) -0.19403(8) -0.17399(8)
N3A N -0.34043(15) -0.1988(2) -0.4150(2)
C15A C -0.24969(17) -0.1977(3) -0.3164(3)
N2B N -0.52851(19) -0.06826(18) -0.6613(3)
N2C N -0.47149(19) -0.06826(18) -0.3387(3)
Co1B Co 0.0000 -0.69455(3) 0.5000
Co1B_2 Co -1.0000 -0.69455(3) -1.5000
loop_
_geom_bond_atom_site_label_1
_geom_bond_atom_site_label_2
_geom_bond_site_symmetry_1
_geom_bond_site_symmetry_2
Co1 N1 1_555 1_555
S1 C15 1_555 1_555
Si1 C2 1_555 1_555
N1 C1 1_555 1_555
N2 C6 1_555 1_555
N3 Co1 1_555 1_555
C1 H1 1_555 1_555
C2 C1 1_555 1_555
C3 C2 1_555 1_555
H2 C3 1_555 1_555
C4 C3 1_555 1_555
H3 C4 1_555 1_555
C5 N1 1_555 1_555
H4 C5 1_555 1_555
C6 H5 1_555 1_555
C7 Si1 1_555 1_555
C8 C7 1_555 1_555
H6 C8 1_555 1_555
C9 C8 1_555 1_555
H7 C9 1_555 1_555
C10 N2 1_555 1_555
H8 C10 1_555 1_555
C11 Si1 1_555 1_555
H9 C11 1_555 1_555
H10 C11 1_555 1_555
C12 C11 1_555 1_555
H11 C12 1_555 1_555
H12 C12 1_555 1_555
C13 C12 1_555 1_555
H13 C13 1_555 1_555
H14 C13 1_555 1_555
C14 Si1 1_555 1_555
H15 C14 1_555 1_555
H16 C14 1_555 1_555
C15 N3 1_555 1_555
Si1A C2A 1_555 1_555
N1A Co1 1_555 1_555
N2A C6A 1_555 1_555
C1A N1A 1_555 1_555
H1A C1A 1_555 1_555
C2A C1A 1_555 1_555
C3A C2A 1_555 1_555
H2A C3A 1_555 1_555
C4A C3A 1_555 1_555
H3A C4A 1_555 1_555
C5A N1A 1_555 1_555
H4A C5A 1_555 1_555
C6A H5A 1_555 1_555
C7A Si1A 1_555 1_555
C8A C7A 1_555 1_555
H6A C8A 1_555 1_555
C9A C8A 1_555 1_555
H7A C9A 1_555 1_555
C10A N2A 1_555 1_555
H8A C10A 1_555 1_555
C11A Si1A 1_555 1_555
H9A C11A 1_555 1_555
H10A C11A 1_555 1_555
C12A C11A 1_555 1_555
H11A C12A 1_555 1_555
H12A C12A 1_555 1_555
C13A C12A 1_555 1_555
H13A C13A 1_555 1_555
H14A C13A 1_555 1_555
C14A Si1A 1_555 1_555
H15A C14A 1_555 1_555
H16A C14A 1_555 1_555
S1A C15A 1_555 1_555
N3A Co1 1_555 1_555
C15A N3A 1_555 1_555
N2B Co1 1_555 1_555
N2C Co1 1_555 1_555
Co1B N2 1_555 1_555
Co1B_2 N2A 1_555 1_555
C4 C5 1_555 1_555
C6 C7 1_555 1_555
C9 C10 1_555 1_555
C13 C14 1_555 1_555
C4A C5A 1_555 1_555
C6A C7A 1_555 1_555
C9A C10A 1_555 1_555
C13A C14A 1_555 1_555

#END
