
#######################################################################
#
#                 Cambridge Crystallographic Data Centre
#                                CCDC 
#
#######################################################################
#
# If this CIF has been generated from an entry in the Cambridge 
# Structural Database, then it will include bibliographic, chemical, 
# crystal, experimental, refinement or atomic coordinate data resulting 
# from the CCDC's data processing and validation procedures.
#
#######################################################################

data_ISALET01
_symmetry_cell_setting           monoclinic
_symmetry_space_group_name_H-M   'P 21/c'
_symmetry_Int_Tables_number      14
_space_group_name_Hall           '-P 2ybc'
loop_
_symmetry_equiv_pos_site_id
_symmetry_equiv_pos_as_xyz
1 x,y,z
2 -x,1/2+y,1/2-z
3 -x,-y,-z
4 x,1/2-y,1/2+z
_cell_length_a                   13.4364(3)
_cell_length_b                   14.5406(3)
_cell_length_c                   16.6669(5)
_cell_angle_alpha                90
_cell_angle_beta                 127.382(2)
_cell_angle_gamma                90
_cell_volume                     2587.45
loop_
_atom_site_label
_atom_site_type_symbol
_atom_site_fract_x
_atom_site_fract_y
_atom_site_fract_z
Nd1 Nd 1.04382(2) 0.816555(17) 0.15605(2)
O1 O 1.1292(4) 0.9609(3) 0.2240(4)
O2 O 0.8808(3) 0.8814(3) -0.0044(3)
O3 O 0.9607(5) 0.6701(3) 0.0883(4)
O4 O 1.1044(5) 0.8462(4) 0.0479(4)
O5 O 1.1195(4) 0.7643(3) 0.3245(3)
O6 O 1.2497(4) 0.7607(3) 0.2323(3)
O7 O 0.8726(3) 0.8771(2) 0.1635(3)
C1 C 1.0997(5) 1.0440(4) 0.2154(5)
C2 C 0.7704(5) 0.9079(4) -0.0467(4)
H1 H 1.1650 0.8307 0.0519
H2 H 1.0461 0.8679 -0.0180
C3 C 1.1823(6) 0.7724(4) 0.4186(5)
Nd2 Nd 0.78804(2) 1.066668(17) 0.11606(2)
O8 O 0.9903(4) 1.0752(3) 0.1521(4)
C4 C 1.2032(5) 1.1097(4) 0.2870(4)
O9 O 0.7405(4) 0.9849(3) -0.0319(3)
C5 C 0.6663(5) 0.8413(4) -0.1162(4)
O10 O 1.0750(5) 0.5665(3) 0.2085(4)
O11 O 1.2390(4) 0.7054(2) 0.4777(3)
C6 C 1.1862(6) 0.8628(4) 0.4632(5)
O12 O 1.3317(4) 0.6468(3) 0.3450(3)
C7 C 1.3264(6) 1.0796(4) 0.3535(5)
C8 C 1.1734(6) 1.2005(4) 0.2902(5)
C9 C 0.6869(6) 0.7691(4) -0.1588(5)
C10 C 0.5522(5) 0.8485(4) -0.1332(4)
C11 C 1.1007(6) 0.9309(4) 0.4041(5)
C12 C 1.2799(6) 0.8789(4) 0.5656(5)
C13 C 1.0173(6) 1.0894(4) 0.3787(5)
H3 H 1.3459 1.0184 0.3526
C14 C 1.4197(5) 1.1404(4) 0.4208(5)
C15 C 1.2680(5) 1.2621(4) 0.3575(4)
H4 H 1.0906 1.2201 0.2475
H5 H 0.7641 0.7632 -0.1464
C16 C 0.5921(6) 0.7053(4) -0.2204(5)
C17 C 0.4579(5) 0.7831(4) -0.1915(4)
H6 H 0.5379 0.8976 -0.1056
O13 O 1.4412(4) 0.5715(3) 0.5439(4)
O14 O 1.3111(4) 0.4234(2) 0.3806(3)
C18 C 1.1068(6) 1.0154(4) 0.4444(5)
H7 H 1.0378 0.9197 0.3359
H8 H 1.3386 0.8336 0.6060
C19 C 1.2846(6) 0.9633(5) 0.6066(5)
H9 H 1.5017 1.1196 0.4656
C20 C 1.3926(5) 1.2323(4) 0.4225(5)
C21 C 1.2325(5) 1.3594(4) 0.3577(4)
H10 H 0.6051 0.6578 -0.2506
C22 C 0.4777(6) 0.7133(4) -0.2363(5)
C23 C 0.3366(6) 0.7928(4) -0.2065(5)
H11 H 1.3947 0.5840 0.4996
H12 H 1.5235 0.5703 0.5690
C24 C 1.1988(6) 1.0316(4) 0.5469(5)
H13 H 1.3461 0.9741 0.6751
H14 H 1.4563 1.2734 0.4663
H15 H 0.4143 0.6710 -0.2776
H16 H 1.2025 1.0879 0.5751
O10A O 0.9250(5) 1.0665(3) 0.2915(4)
Nd2A Nd 1.21196(2) 0.566668(17) 0.38394(2)
O8A O 1.0097(4) 0.5752(3) 0.3479(4)
O9A O 1.2595(4) 0.4849(3) 0.5319(3)
O7A O 1.1274(3) 0.3771(2) 0.3365(3)
O3A O 1.0393(5) 1.1701(3) 0.4117(4)
Nd1A Nd 0.95618(2) 1.316555(17) 0.34395(2)
O7A_2 O 1.1274(3) 1.3771(2) 0.3365(3)
O14_2 O 1.3111(4) 1.4234(2) 0.3806(3)
O6C O 0.2497(4) 0.7393(3) -0.2677(3)
O12C O 0.3317(4) 0.8532(3) -0.1550(3)
Nd2A_2 Nd 1.21196(2) 1.566668(17) 0.38394(2)
Nd1C Nd 0.04382(2) 0.683445(17) -0.34395(2)
Nd2B Nd 0.21196(2) 0.933332(17) -0.11606(2)
loop_
_geom_bond_atom_site_label_1
_geom_bond_atom_site_label_2
_geom_bond_site_symmetry_1
_geom_bond_site_symmetry_2
Nd1 O1 1_555 1_555
O1 C1 1_555 1_555
O2 Nd1 1_555 1_555
O3 Nd1 1_555 1_555
O4 Nd1 1_555 1_555
O5 Nd1 1_555 1_555
O6 Nd1 1_555 1_555
O7 Nd1 1_555 1_555
C1 O8 1_555 1_555
C2 O2 1_555 1_555
H1 O4 1_555 1_555
H2 O4 1_555 1_555
C3 O5 1_555 1_555
Nd2 O7 1_555 1_555
O8 Nd2 1_555 1_555
C4 C1 1_555 1_555
O9 C2 1_555 1_555
C5 C2 1_555 1_555
O10 Nd2A 1_555 1_555
O11 C3 1_555 1_555
C6 C3 1_555 1_555
O12 Nd2A 1_555 1_555
C7 C4 1_555 1_555
C8 C4 1_555 1_555
C9 C5 1_555 1_555
C10 C5 1_555 1_555
C11 C6 1_555 1_555
C12 C6 1_555 1_555
C13 C18 1_555 1_555
H3 C7 1_555 1_555
C14 C7 1_555 1_555
C15 C8 1_555 1_555
H4 C8 1_555 1_555
H5 C9 1_555 1_555
C16 C9 1_555 1_555
C17 C10 1_555 1_555
H6 C10 1_555 1_555
O13 H11 1_555 1_555
O14 Nd2A 1_555 1_555
C18 C11 1_555 1_555
H7 C11 1_555 1_555
H8 C12 1_555 1_555
C19 C12 1_555 1_555
H9 C14 1_555 1_555
C20 C14 1_555 1_555
C21 C15 1_555 1_555
H10 C16 1_555 1_555
C22 C16 1_555 1_555
C23 C17 1_555 1_555
H12 O13 1_555 1_555
C24 C18 1_555 1_555
H13 C19 1_555 1_555
H14 C20 1_555 1_555
H15 C22 1_555 1_555
H16 C24 1_555 1_555
O10A Nd2 1_555 1_555
Nd2A O11 1_555 1_555
O8A Nd2A 1_555 1_555
O9A Nd2A 1_555 1_555
O7A Nd2A 1_555 1_555
O3A C13 1_555 1_555
Nd1A O3A 1_555 1_555
O7A_2 C21 1_555 1_555
O14_2 C21 1_555 1_555
O6C C23 1_555 1_555
O12C C23 1_555 1_555
Nd2A_2 O7A_2 1_555 1_555
Nd1C O6C 1_555 1_555
Nd2B O12C 1_555 1_555
Nd2 O9 1_555 1_555
C13 O10A 1_555 1_555
C15 C20 1_555 1_555
C17 C22 1_555 1_555
O13 Nd2A 1_555 1_555
C19 C24 1_555 1_555
Nd1A O7A_2 1_555 1_555
O14_2 Nd2A_2 1_555 1_555

#END
