
#######################################################################
#
#                 Cambridge Crystallographic Data Centre
#                                CCDC 
#
#######################################################################
#
# If this CIF has been generated from an entry in the Cambridge 
# Structural Database, then it will include bibliographic, chemical, 
# crystal, experimental, refinement or atomic coordinate data resulting 
# from the CCDC's data processing and validation procedures.
#
#######################################################################

data_ISALIX
_symmetry_cell_setting           monoclinic
_symmetry_space_group_name_H-M   'P 21/n'
_symmetry_Int_Tables_number      14
_space_group_name_Hall           '-P 2yn'
loop_
_symmetry_equiv_pos_site_id
_symmetry_equiv_pos_as_xyz
1 x,y,z
2 1/2+x,1/2-y,1/2+z
3 -x,-y,-z
4 1/2-x,1/2+y,1/2-z
_cell_length_a                   13.3177(4)
_cell_length_b                   14.4469(4)
_cell_length_c                   13.5346(2)
_cell_angle_alpha                90
_cell_angle_beta                 104.0490(10)
_cell_angle_gamma                90
_cell_volume                     2526.16
loop_
_atom_site_label
_atom_site_type_symbol
_atom_site_fract_x
_atom_site_fract_y
_atom_site_fract_z
Gd1 Gd 0.61150(4) 0.18257(4) 0.65564(4)
Gd2 Gd 0.67222(4) 0.43351(4) 0.88503(4)
C1 C 0.7369(9) 0.2261(8) 0.9148(9)
C2 C 0.7771(10) 0.1372(8) 0.9621(9)
C3 C 0.7869(15) 0.1210(9) 1.0649(10)
H1 H 0.7666 0.1661 1.1051
C4 C 0.8265(19) 0.0384(10) 1.1075(11)
H2 H 0.8367 0.0292 1.1772
C5 C 0.8514(17) -0.0317(9) 1.0466(11)
H3 H 0.8744 -0.0889 1.0747
C6 C 0.8417(11) -0.0155(7) 0.9446(9)
C7 C 0.8054(8) 0.0687(8) 0.9037(8)
H4 H 0.7999 0.0796 0.8348
C8 C 0.8644(10) -0.0918(8) 0.8769(10)
C9 C 0.6161(9) -0.0425(8) 0.7159(9)
C10 C 0.5838(9) -0.1093(8) 0.7864(10)
C11 C 0.5233(10) -0.0796(8) 0.8520(10)
H5 H 0.5006 -0.0186 0.8499
C12 C 0.4978(12) -0.1415(9) 0.9198(12)
H6 H 0.4603 -0.1209 0.9653
C13 C 0.5268(10) -0.2331(8) 0.9213(10)
H7 H 0.5052 -0.2751 0.9641
C14 C 0.5893(8) -0.2622(7) 0.8575(9)
C15 C 0.6168(8) -0.1989(8) 0.7904(8)
H8 H 0.6582 -0.2181 0.7479
C16 C 0.6263(10) -0.3602(8) 0.8578(9)
C17 C 0.6820(8) 0.0912(7) 0.4548(8)
C18 C 0.7165(8) 0.1592(7) 0.3853(8)
C19 C 0.6530(9) 0.2319(8) 0.3415(9)
H9 H 0.5876 0.2387 0.3536
C20 C 0.6881(10) 0.2941(9) 0.2797(9)
H10 H 0.6439 0.3404 0.2466
C21 C 0.7874(9) 0.2889(8) 0.2662(9)
H11 H 0.8111 0.3339 0.2282
C22 C 0.8519(9) 0.2167(8) 0.3092(8)
C23 C 0.8150(9) 0.1508(8) 0.3673(8)
H12 H 0.8565 0.1007 0.3943
C24 C 0.9602(9) 0.2072(8) 0.2958(9)
O1 O 0.7024(6) 0.2331(5) 0.8194(6)
O2 O 0.6034(6) 0.4278(6) 1.0429(6)
O3 O 0.7381(6) 0.2966(5) 0.9741(6)
O4 O 0.4433(7) 0.1568(7) 0.5478(7)
O5 O 0.8697(8) -0.0671(6) 0.7884(7)
O6 O 0.8737(7) -0.1731(5) 0.9094(6)
O7 O 0.6643(6) -0.0745(5) 0.6522(6)
O8 O 0.5928(7) 0.0414(5) 0.7223(7)
O9 O 0.5719(6) -0.4257(5) 0.8794(6)
O10 O 0.7127(6) -0.3757(5) 0.8379(6)
O11 O 0.6132(6) 0.1179(5) 0.4975(6)
O12 O 0.7269(6) 0.0134(5) 0.4702(6)
O13 O 0.9852(6) 0.2614(6) 0.2322(6)
O14 O 1.0179(6) 0.1473(5) 0.3479(6)
O6C O 0.6263(7) 0.3269(5) 0.5906(6)
O10C O 0.7873(6) 0.1243(5) 0.6621(6)
O13A O 0.4852(6) 0.2386(6) 0.7322(6)
O5C O 0.6303(8) 0.4329(6) 0.7116(7)
O7C O 0.8357(6) 0.4255(5) 0.8478(6)
O9_2 O 0.5719(6) 0.5743(5) 0.8794(6)
O10_2 O 0.7127(6) 0.6243(5) 0.8379(6)
O12C O 0.7731(6) 0.5134(5) 1.0298(6)
O14A O 0.5179(6) 0.3527(5) 0.8479(6)
Gd2C Gd 0.82778(4) -0.06649(4) 0.61497(4)
Gd1C Gd 0.88850(4) -0.31743(4) 0.84436(4)
Gd2_2 Gd 0.67222(4) -0.56649(4) 0.88503(4)
Gd1A Gd 1.11150(4) 0.31743(4) 0.15564(4)
Gd2A Gd 1.17222(4) 0.06649(4) 0.38503(4)
loop_
_geom_bond_atom_site_label_1
_geom_bond_atom_site_label_2
_geom_bond_site_symmetry_1
_geom_bond_site_symmetry_2
Gd1 O1 1_555 1_555
Gd2 O2 1_555 1_555
C1 C2 1_555 1_555
C2 C3 1_555 1_555
C3 H1 1_555 1_555
C4 C3 1_555 1_555
H2 C4 1_555 1_555
C5 C4 1_555 1_555
H3 C5 1_555 1_555
C6 C5 1_555 1_555
C7 C2 1_555 1_555
H4 C7 1_555 1_555
C8 C6 1_555 1_555
C9 C10 1_555 1_555
C10 C11 1_555 1_555
C11 H5 1_555 1_555
C12 C11 1_555 1_555
H6 C12 1_555 1_555
C13 C12 1_555 1_555
H7 C13 1_555 1_555
C14 C13 1_555 1_555
C15 C10 1_555 1_555
H8 C15 1_555 1_555
C16 C14 1_555 1_555
C17 C18 1_555 1_555
C18 C19 1_555 1_555
C19 H9 1_555 1_555
C20 C19 1_555 1_555
H10 C20 1_555 1_555
C21 C20 1_555 1_555
H11 C21 1_555 1_555
C22 C21 1_555 1_555
C23 C18 1_555 1_555
H12 C23 1_555 1_555
C24 C22 1_555 1_555
O1 C1 1_555 1_555
O3 Gd2 1_555 1_555
O4 Gd1 1_555 1_555
O5 C8 1_555 1_555
O6 C8 1_555 1_555
O7 C9 1_555 1_555
O8 Gd1 1_555 1_555
O9 C16 1_555 1_555
O10 C16 1_555 1_555
O11 Gd1 1_555 1_555
O12 C17 1_555 1_555
O13 C24 1_555 1_555
O14 C24 1_555 1_555
O6C Gd1 1_555 1_555
O10C Gd1 1_555 1_555
O13A Gd1 1_555 1_555
O5C Gd2 1_555 1_555
O7C Gd2 1_555 1_555
O9_2 Gd2 1_555 1_555
O10_2 Gd2 1_555 1_555
O12C Gd2 1_555 1_555
O14A Gd2 1_555 1_555
Gd2C O5 1_555 1_555
Gd1C O6 1_555 1_555
Gd2_2 O9 1_555 1_555
Gd1A O13 1_555 1_555
Gd2A O14 1_555 1_555
C1 O3 1_555 1_555
C6 C7 1_555 1_555
C9 O8 1_555 1_555
C14 C15 1_555 1_555
C17 O11 1_555 1_555
C22 C23 1_555 1_555
O7 Gd2C 1_555 1_555
O10 Gd1C 1_555 1_555
O10 Gd2_2 1_555 1_555
O12 Gd2C 1_555 1_555
O10C Gd2C 1_555 1_555

#END
