
#######################################################################
#
#                 Cambridge Crystallographic Data Centre
#                                CCDC 
#
#######################################################################
#
# If this CIF has been generated from an entry in the Cambridge 
# Structural Database, then it will include bibliographic, chemical, 
# crystal, experimental, refinement or atomic coordinate data resulting 
# from the CCDC's data processing and validation procedures.
#
#######################################################################

data_ISALET
_symmetry_cell_setting           monoclinic
_symmetry_space_group_name_H-M   'P 21/n'
_symmetry_Int_Tables_number      14
_space_group_name_Hall           '-P 2yn'
loop_
_symmetry_equiv_pos_site_id
_symmetry_equiv_pos_as_xyz
1 x,y,z
2 1/2-x,1/2+y,1/2-z
3 -x,-y,-z
4 1/2+x,1/2-y,1/2+z
_cell_length_a                   13.44460(10)
_cell_length_b                   14.5310(4)
_cell_length_c                   13.6008(2)
_cell_angle_alpha                90
_cell_angle_beta                 104.1170(10)
_cell_angle_gamma                90
_cell_volume                     2576.85
loop_
_atom_site_label
_atom_site_type_symbol
_atom_site_fract_x
_atom_site_fract_y
_atom_site_fract_z
Nd1 Nd 0.61243(4) 0.18325(4) 0.65566(5)
Nd2 Nd 0.67183(5) 0.43307(4) 0.88406(5)
C1 C 0.7376(8) 0.2287(9) 0.9205(10)
C2 C 0.7748(10) 0.1369(8) 0.9638(9)
C3 C 0.7837(15) 0.1197(10) 1.0646(11)
H1 H 0.7680 0.1659 1.1056
C4 C 0.815(2) 0.0353(12) 1.1062(13)
H2 H 0.8187 0.0238 1.1741
C5 C 0.8425(17) -0.0322(10) 1.0465(12)
H3 H 0.8636 -0.0895 1.0744
C6 C 0.8386(11) -0.0157(8) 0.9453(9)
C7 C 0.8038(9) 0.0676(8) 0.9050(9)
H4 H 0.7991 0.0786 0.8366
C8 C 0.8621(9) -0.0902(8) 0.8788(9)
C9 C 0.6150(8) -0.0443(8) 0.7176(9)
C10 C 0.5849(8) -0.1095(8) 0.7872(9)
C11 C 0.5276(10) -0.0797(8) 0.8535(10)
H5 H 0.5070 -0.0186 0.8524
C12 C 0.5009(11) -0.1413(9) 0.9219(12)
H6 H 0.4634 -0.1209 0.9667
C13 C 0.5302(10) -0.2321(8) 0.9229(9)
H7 H 0.5112 -0.2732 0.9675
C14 C 0.5879(8) -0.2626(8) 0.8573(9)
C15 C 0.6157(8) -0.1995(8) 0.7909(9)
H8 H 0.6561 -0.2192 0.7483
C16 C 0.6223(8) -0.3604(8) 0.8581(8)
C17 C 0.6831(8) 0.0926(8) 0.4532(8)
C18 C 0.7184(8) 0.1589(8) 0.3852(8)
C19 C 0.6543(9) 0.2304(8) 0.3392(9)
H9 H 0.5883 0.2355 0.3488
C20 C 0.6896(9) 0.2940(9) 0.2790(9)
H10 H 0.6462 0.3411 0.2484
C21 C 0.7859(9) 0.2891(8) 0.2638(9)
H11 H 0.8088 0.3332 0.2249
C22 C 0.8497(8) 0.2164(8) 0.3078(8)
C23 C 0.8158(8) 0.1509(7) 0.3673(8)
H12 H 0.8581 0.1020 0.3949
C24 C 0.9573(8) 0.2071(8) 0.2928(9)
O1 O 0.7055(6) 0.2363(5) 0.8246(6)
O2 O 0.6029(6) 0.4277(6) 1.0442(6)
O3 O 0.7395(6) 0.2957(5) 0.9790(6)
O4 O 0.4429(6) 0.1548(7) 0.5461(7)
O5 O 0.8686(7) -0.0668(6) 0.7908(6)
O6 O 0.8728(7) -0.1712(6) 0.9130(7)
O7 O 0.6619(6) -0.0752(6) 0.6535(6)
O8 O 0.5943(7) 0.0398(6) 0.7245(7)
O9 O 0.5684(6) -0.4237(5) 0.8796(6)
O10 O 0.7089(5) -0.3779(5) 0.8368(6)
O11 O 0.6144(6) 0.1188(5) 0.4953(6)
O12 O 0.7268(6) 0.0151(5) 0.4668(6)
O13 O 0.9826(6) 0.2615(6) 0.2322(7)
O14 O 1.0145(6) 0.1470(6) 0.3450(6)
O6A O 0.6272(7) 0.3288(6) 0.5870(7)
O10A O 0.7911(5) 0.1221(5) 0.6632(6)
O13C O 0.4826(6) 0.2385(6) 0.7322(7)
O5A O 0.6314(7) 0.4332(6) 0.7092(6)
O7A O 0.8381(6) 0.4248(6) 0.8465(6)
O9_2 O 0.5684(6) 0.5763(5) 0.8796(6)
O10_2 O 0.7089(5) 0.6221(5) 0.8368(6)
O12A O 0.7732(6) 0.5151(5) 1.0332(6)
O14C O 0.5145(6) 0.3530(6) 0.8450(6)
Nd2A Nd 0.82817(5) -0.06693(4) 0.61594(5)
Nd1A Nd 0.88757(4) -0.31675(4) 0.84434(5)
Nd2_2 Nd 0.67183(5) -0.56693(4) 0.88406(5)
Nd1C Nd 1.11243(4) 0.31675(4) 0.15566(5)
Nd2C Nd 1.17183(5) 0.06693(4) 0.38406(5)
loop_
_geom_bond_atom_site_label_1
_geom_bond_atom_site_label_2
_geom_bond_site_symmetry_1
_geom_bond_site_symmetry_2
Nd1 O1 1_555 1_555
Nd2 O2 1_555 1_555
C1 C2 1_555 1_555
C2 C3 1_555 1_555
C3 H1 1_555 1_555
C4 C3 1_555 1_555
H2 C4 1_555 1_555
C5 C4 1_555 1_555
H3 C5 1_555 1_555
C6 C5 1_555 1_555
C7 C2 1_555 1_555
H4 C7 1_555 1_555
C8 C6 1_555 1_555
C9 C10 1_555 1_555
C10 C11 1_555 1_555
C11 H5 1_555 1_555
C12 C11 1_555 1_555
H6 C12 1_555 1_555
C13 C12 1_555 1_555
H7 C13 1_555 1_555
C14 C13 1_555 1_555
C15 C10 1_555 1_555
H8 C15 1_555 1_555
C16 C14 1_555 1_555
C17 C18 1_555 1_555
C18 C19 1_555 1_555
C19 H9 1_555 1_555
C20 C19 1_555 1_555
H10 C20 1_555 1_555
C21 C20 1_555 1_555
H11 C21 1_555 1_555
C22 C21 1_555 1_555
C23 C18 1_555 1_555
H12 C23 1_555 1_555
C24 C22 1_555 1_555
O1 C1 1_555 1_555
O3 Nd2 1_555 1_555
O4 Nd1 1_555 1_555
O5 C8 1_555 1_555
O6 C8 1_555 1_555
O7 C9 1_555 1_555
O8 Nd1 1_555 1_555
O9 C16 1_555 1_555
O10 C16 1_555 1_555
O11 Nd1 1_555 1_555
O12 C17 1_555 1_555
O13 C24 1_555 1_555
O14 C24 1_555 1_555
O6A Nd1 1_555 1_555
O10A Nd1 1_555 1_555
O13C Nd1 1_555 1_555
O5A Nd2 1_555 1_555
O7A Nd2 1_555 1_555
O9_2 Nd2 1_555 1_555
O10_2 Nd2 1_555 1_555
O12A Nd2 1_555 1_555
O14C Nd2 1_555 1_555
Nd2A O5 1_555 1_555
Nd1A O6 1_555 1_555
Nd2_2 O9 1_555 1_555
Nd1C O13 1_555 1_555
Nd2C O14 1_555 1_555
C1 O3 1_555 1_555
C6 C7 1_555 1_555
C9 O8 1_555 1_555
C14 C15 1_555 1_555
C17 O11 1_555 1_555
C22 C23 1_555 1_555
O7 Nd2A 1_555 1_555
O10 Nd1A 1_555 1_555
O10 Nd2_2 1_555 1_555
O12 Nd2A 1_555 1_555
O10A Nd2A 1_555 1_555

#END
