
#######################################################################
#
#                 Cambridge Crystallographic Data Centre
#                                CCDC 
#
#######################################################################
#
# If this CIF has been generated from an entry in the Cambridge 
# Structural Database, then it will include bibliographic, chemical, 
# crystal, experimental, refinement or atomic coordinate data resulting 
# from the CCDC's data processing and validation procedures.
#
#######################################################################

data_ISAQAV
_symmetry_cell_setting           orthorhombic
_symmetry_space_group_name_H-M   'P b c n'
_symmetry_Int_Tables_number      60
_space_group_name_Hall           '-P 2n 2ab'
loop_
_symmetry_equiv_pos_site_id
_symmetry_equiv_pos_as_xyz
1 x,y,z
2 1/2-x,1/2-y,1/2+z
3 -x,y,1/2-z
4 1/2+x,1/2-y,-z
5 -x,-y,-z
6 1/2+x,1/2+y,1/2-z
7 x,-y,1/2+z
8 1/2-x,1/2+y,z
_cell_length_a                   9.010(3)
_cell_length_b                   7.117(2)
_cell_length_c                   11.755(4)
_cell_angle_alpha                90
_cell_angle_beta                 90
_cell_angle_gamma                90
_cell_volume                     753.78
loop_
_atom_site_label
_atom_site_type_symbol
_atom_site_fract_x
_atom_site_fract_y
_atom_site_fract_z
Mn1 Mn 0.81867(4) -0.00357(4) 0.45343(3)
O1 O 0.6143(2) -0.1851(3) 0.46186(15)
O2 O 0.37586(19) -0.1839(2) 0.51720(17)
O3 O 0.9416(2) 0.0122(2) 0.60996(16)
O4 O 0.8075(2) 0.0088(2) 0.7700(2)
C1 C 0.4972(3) -0.1078(4) 0.49371(19)
C2 C 0.9258(3) 0.0117(3) 0.7163(2)
Mn1B Mn 1.18133(4) -0.00357(4) 1.04657(3)
Mn1C Mn 0.31867(4) -0.49643(4) 0.54657(3)
Mn1C_2 Mn 0.31867(4) 0.50357(4) 0.54657(3)
Mn1D Mn 0.18133(4) 0.00357(4) 0.54657(3)
Mn1D_2 Mn 1.18133(4) 0.00357(4) 0.54657(3)
Mn1F Mn 0.81867(4) 0.00357(4) 0.95343(3)
Mn1G Mn 0.68133(4) -0.50357(4) 0.45343(3)
Mn1G_2 Mn 0.68133(4) 0.49643(4) 0.45343(3)
O1D O 0.3857(2) 0.1851(3) 0.53814(15)
O1E O 1.1143(2) 0.3149(3) 1.03814(15)
O1G O 0.8857(2) 0.3149(3) 0.46186(15)
O1B O 1.3857(2) -0.1851(3) 1.03814(15)
O2D O 0.62414(19) 0.1839(2) 0.48280(17)
O2A O 1.12414(19) -0.3161(2) 1.01720(17)
O2C O 0.87586(19) -0.3161(2) 0.48280(17)
O2F O 1.37586(19) 0.1839(2) 1.01720(17)
O3B O 1.0584(2) 0.0122(2) 0.89004(16)
O3D O 1.0584(2) -0.0122(2) 0.39004(16)
O3F O 0.9416(2) -0.0122(2) 1.10996(16)
O4B O 1.1925(2) 0.0088(2) 0.7300(2)
O4D O 1.1925(2) -0.0088(2) 1.2300(2)
O4F O 0.8075(2) -0.0088(2) 0.2700(2)
C1D C 0.5028(3) 0.1078(4) 0.50629(19)
C2B C 1.0742(3) 0.0117(3) 0.7837(2)
O5 O 0.5000 0.0867(10) 0.2500
H1 H 0.584(10) -0.018(9) 0.260(9)
H1B H 0.416(10) -0.018(9) 0.240(9)
loop_
_geom_bond_atom_site_label_1
_geom_bond_atom_site_label_2
_geom_bond_site_symmetry_1
_geom_bond_site_symmetry_2
Mn1 O1 1_555 1_555
O1 C1 1_555 1_555
O2 C1 1_555 1_555
O3 Mn1 1_555 1_555
O4 C2 1_555 1_555
O5 H1 1_555 1_555
C1 C1D 1_555 1_555
C2 O3 1_555 1_555
Mn1B O1E 1_555 1_555
Mn1C O2 1_555 1_555
Mn1C_2 O1D 1_555 1_555
Mn1D O2 1_555 1_555
Mn1D_2 O3 1_555 1_555
Mn1F O4 1_555 1_555
Mn1G O1 1_555 1_555
Mn1G_2 O1G 1_555 1_555
O1D Mn1D 1_555 1_555
O1G Mn1 1_555 1_555
O1B Mn1B 1_555 1_555
O2D Mn1 1_555 1_555
O2A Mn1B 1_555 1_555
O2C Mn1 1_555 1_555
O2F Mn1B 1_555 1_555
O3B Mn1B 1_555 1_555
O3D Mn1 1_555 1_555
O3F Mn1B 1_555 1_555
O4B Mn1D_2 1_555 1_555
O4D Mn1B 1_555 1_555
O4F Mn1 1_555 1_555
H1B O5 1_555 1_555
C1D O1D 1_555 1_555
C2B C2 1_555 1_555
Mn1D_2 O3D 1_555 1_555
Mn1F O3B 1_555 1_555
Mn1F O3F 1_555 1_555
Mn1G O2C 1_555 1_555
Mn1G_2 O2D 1_555 1_555
O2D C1D 1_555 1_555
O3B C2B 1_555 1_555
O4B C2B 1_555 1_555

#END
