
#######################################################################
#
#                 Cambridge Crystallographic Data Centre
#                                CCDC 
#
#######################################################################
#
# If this CIF has been generated from an entry in the Cambridge 
# Structural Database, then it will include bibliographic, chemical, 
# crystal, experimental, refinement or atomic coordinate data resulting 
# from the CCDC's data processing and validation procedures.
#
#######################################################################

data_ISAROK
_symmetry_cell_setting           hexagonal
_symmetry_space_group_name_H-M   'P 63/m'
_symmetry_Int_Tables_number      176
_space_group_name_Hall           '-P 6c'
loop_
_symmetry_equiv_pos_site_id
_symmetry_equiv_pos_as_xyz
1 x,y,z
2 x-y,x,1/2+z
3 -y,x-y,z
4 -x,-y,1/2+z
5 -x+y,-x,z
6 y,-x+y,1/2+z
7 -x,-y,-z
8 -x+y,-x,1/2-z
9 y,-x+y,-z
10 x,y,1/2-z
11 x-y,x,-z
12 -y,x-y,1/2-z
_cell_length_a                   14.3960(2)
_cell_length_b                   14.3960(2)
_cell_length_c                   35.3830(7)
_cell_angle_alpha                90
_cell_angle_beta                 90
_cell_angle_gamma                120
_cell_volume                     6350.52
loop_
_atom_site_label
_atom_site_type_symbol
_atom_site_fract_x
_atom_site_fract_y
_atom_site_fract_z
Ag1 Ag 0.0000 0.0000 0.043238(17)
O1 O -0.1494(2) 0.0890(3) 0.05718(10)
N1 N -0.0415(3) 0.1279(3) 0.04716(12)
C1 C -0.1603(4) 0.1753(4) 0.06688(15)
C2 C -0.0648(4) 0.2666(4) 0.06353(13)
C3 C 0.0074(4) 0.2331(4) 0.05089(13)
C4 C -0.2706(4) 0.1492(5) 0.07724(18)
H1 H -0.2717 0.2157 0.0820
H2 H -0.2931 0.1048 0.1001
H3 H -0.3197 0.1098 0.0565
C5 C 0.1234(4) 0.3025(4) 0.04161(14)
H4 H 0.1554 0.2574 0.0369
H5 H 0.1602 0.3508 0.0628
H6 H 0.1307 0.3448 0.0190
C6 C -0.0388(4) 0.3800(4) 0.07014(13)
H7 H 0.0257 0.4166 0.0864
H8 H -0.0990 0.3795 0.0838
C7 C -0.0185(4) 0.4425(4) 0.03367(13)
C8 C 0.0762(4) 0.5372(4) 0.02776(14)
H9 H 0.1299 0.5632 0.0468
C9 C -0.0944(4) 0.4056(4) 0.00504(13)
H10 H -0.1598 0.3399 0.0082
Ag1F Ag 0.0000 1.0000 -0.043238(17)
Ag1F_2 Ag -1.0000 -1.0000 -0.043238(17)
Ag1F_3 Ag 1.0000 0.0000 -0.043238(17)
O1F O 0.1494(2) 0.9110(3) -0.05718(10)
O1B O -0.0890(3) -0.2384(4) 0.05718(10)
O1H O -0.9110(3) -0.7616(4) -0.05718(10)
O1D O 0.2384(4) 0.1494(2) 0.05718(10)
O1J O 0.7616(4) -0.1494(2) -0.05718(10)
N1F N 0.0415(3) 0.8721(3) -0.04716(12)
N1B N -0.1279(3) -0.1694(4) 0.04716(12)
N1H N -0.8721(3) -0.8306(4) -0.04716(12)
N1D N 0.1694(4) 0.0415(3) 0.04716(12)
N1J N 0.8306(4) -0.0415(3) -0.04716(12)
N1H_2 N 0.1279(3) 1.1694(4) -0.04716(12)
N1J_2 N -0.1694(4) 0.9585(3) -0.04716(12)
C1F C 0.1603(4) 0.8247(4) -0.06688(15)
C1B C -0.1753(4) -0.3356(6) 0.06688(15)
C1H C -0.8247(4) -0.6644(6) -0.06688(15)
C1D C 0.3356(6) 0.1603(4) 0.06688(15)
C1J C 0.6644(6) -0.1603(4) -0.06688(15)
C2F C 0.0648(4) 0.7334(4) -0.06353(13)
C2B C -0.2666(4) -0.3314(6) 0.06353(13)
C2H C -0.7334(4) -0.6686(6) -0.06353(13)
C2D C 0.3314(6) 0.0648(4) 0.06353(13)
C2J C 0.6686(6) -0.0648(4) -0.06353(13)
C3F C -0.0074(4) 0.7669(4) -0.05089(13)
C3B C -0.2331(4) -0.2257(6) 0.05089(13)
C3H C -0.7669(4) -0.7743(6) -0.05089(13)
C3D C 0.2257(6) -0.0074(4) 0.05089(13)
C3J C 0.7743(6) 0.0074(4) -0.05089(13)
C4F C 0.2706(4) 0.8508(5) -0.07724(18)
C4B C -0.1492(5) -0.4198(6) 0.07724(18)
C4H C -0.8508(5) -0.5802(6) -0.07724(18)
C4D C 0.4198(6) 0.2706(4) 0.07724(18)
C4J C 0.5802(6) -0.2706(4) -0.07724(18)
H1F H 0.2717 0.7843 -0.0820
H1B H -0.2157 -0.4874 0.0820
H1H H -0.7843 -0.5126 -0.0820
H1D H 0.4874 0.2717 0.0820
H1J H 0.5126 -0.2717 -0.0820
H2F H 0.2931 0.8952 -0.1001
H2B H -0.1048 -0.3979 0.1001
H2H H -0.8952 -0.6021 -0.1001
H2D H 0.3979 0.2931 0.1001
H2J H 0.6021 -0.2931 -0.1001
H3F H 0.3197 0.8902 -0.0565
H3B H -0.1098 -0.4295 0.0565
H3H H -0.8902 -0.5705 -0.0565
H3D H 0.4295 0.3197 0.0565
H3J H 0.5705 -0.3197 -0.0565
C5F C -0.1234(4) 0.6975(4) -0.04161(14)
C5B C -0.3025(4) -0.1791(6) 0.04161(14)
C5H C -0.6975(4) -0.8209(6) -0.04161(14)
C5D C 0.1791(6) -0.1234(4) 0.04161(14)
C5J C 0.8209(6) 0.1234(4) -0.04161(14)
H4F H -0.1554 0.7426 -0.0369
H4B H -0.2574 -0.1020 0.0369
H4H H -0.7426 -0.8980 -0.0369
H4D H 0.1020 -0.1554 0.0369
H4J H 0.8980 0.1554 -0.0369
H5F H -0.1602 0.6492 -0.0628
H5B H -0.3508 -0.1906 0.0628
H5H H -0.6492 -0.8094 -0.0628
H5D H 0.1906 -0.1602 0.0628
H5J H 0.8094 0.1602 -0.0628
H6F H -0.1307 0.6552 -0.0190
H6B H -0.3448 -0.2141 0.0190
H6H H -0.6552 -0.7859 -0.0190
H6D H 0.2141 -0.1307 0.0190
H6J H 0.7859 0.1307 -0.0190
C6F C 0.0388(4) 0.6200(4) -0.07014(13)
C6B C -0.3800(4) -0.4188(6) 0.07014(13)
C6H C -0.6200(4) -0.5812(6) -0.07014(13)
C6D C 0.4188(6) 0.0388(4) 0.07014(13)
C6J C 0.5812(6) -0.0388(4) -0.07014(13)
H7F H -0.0257 0.5834 -0.0864
H7B H -0.4166 -0.3909 0.0864
H7H H -0.5834 -0.6091 -0.0864
H7D H 0.3909 -0.0257 0.0864
H7J H 0.6091 0.0257 -0.0864
H8F H 0.0990 0.6205 -0.0838
H8B H -0.3795 -0.4785 0.0838
H8H H -0.6205 -0.5215 -0.0838
H8D H 0.4785 0.0990 0.0838
H8J H 0.5215 -0.0990 -0.0838
C7F C 0.0185(4) 0.5575(4) -0.03367(13)
C7B C -0.4425(4) -0.4610(6) 0.03367(13)
C7H C -0.5575(4) -0.5390(6) -0.03367(13)
C7D C 0.4610(6) 0.0185(4) 0.03367(13)
C7J C 0.5390(6) -0.0185(4) -0.03367(13)
C8F C -0.0762(4) 0.4628(4) -0.02776(14)
C8B C -0.5372(4) -0.4610(6) 0.02776(14)
C8H C -0.4628(4) -0.5390(6) -0.02776(14)
C8D C 0.4610(6) -0.0762(4) 0.02776(14)
C8J C 0.5390(6) 0.0762(4) -0.02776(14)
H9F H -0.1299 0.4368 -0.0468
H9B H -0.5632 -0.4333 0.0468
H9H H -0.4368 -0.5667 -0.0468
H9D H 0.4333 -0.1299 0.0468
H9J H 0.5667 0.1299 -0.0468
C9F C 0.0944(4) 0.5944(4) -0.00504(13)
C9B C -0.4056(4) -0.5000(6) 0.00504(13)
C9H C -0.5944(4) -0.5000(6) -0.00504(13)
C9D C 0.5000(6) 0.0944(4) 0.00504(13)
C9J C 0.5000(6) -0.0944(4) -0.00504(13)
H10F H 0.1598 0.6601 -0.0082
H10B H -0.3399 -0.4997 0.0082
H10H H -0.6601 -0.5003 -0.0082
H10D H 0.4997 0.1598 0.0082
H10J H 0.5003 -0.1598 -0.0082
Ag2 Ag 0.0000 0.0000 0.137166(18)
O2 O 0.1711(3) 0.2404(3) 0.13550(10)
N2 N 0.0597(3) 0.1751(3) 0.14114(12)
C10 C 0.0239(4) 0.2377(4) 0.15275(13)
C11 C 0.1097(4) 0.3458(4) 0.15503(13)
C12 C 0.1979(4) 0.3426(4) 0.14464(14)
C13 C -0.0908(4) 0.1943(4) 0.16288(16)
H11 H -0.1333 0.1208 0.1533
H12 H -0.1167 0.2393 0.1516
H13 H -0.0979 0.1941 0.1904
C14 C 0.3140(4) 0.4221(4) 0.14156(18)
H14 H 0.3272 0.4921 0.1505
H15 H 0.3365 0.4280 0.1151
H16 H 0.3549 0.3987 0.1570
C15 C 0.1021(4) 0.4420(4) 0.16767(14)
H17 H 0.0355 0.4365 0.1574
H18 H 0.1637 0.5080 0.1573
C16 C 0.1016(4) 0.4505(3) 0.21047(14)
C17 C 0.0071(4) 0.4123(4) 0.23046(14)
H19 H -0.0588 0.3857 0.2172
C18 C 0.1959(4) 0.4927(4) 0.23055(15)
H20 H 0.2621 0.5223 0.2173
Ag2G Ag 0.0000 0.0000 0.362834(18)
O2I O 0.1711(3) 0.2404(3) 0.36450(10)
O2B O -0.2404(3) -0.0693(4) 0.13550(10)
O2K O -0.2404(3) -0.0693(4) 0.36450(10)
O2D O 0.0693(4) -0.1711(3) 0.13550(10)
O2G O 0.0693(4) -0.1711(3) 0.36450(10)
N2I N 0.0597(3) 0.1751(3) 0.35886(12)
N2B N -0.1751(3) -0.1154(4) 0.14114(12)
N2K N -0.1751(3) -0.1154(4) 0.35886(12)
N2D N 0.1154(4) -0.0597(3) 0.14114(12)
N2G N 0.1154(4) -0.0597(3) 0.35886(12)
C10I C 0.0239(4) 0.2377(4) 0.34725(13)
C10B C -0.2377(4) -0.2138(6) 0.15275(13)
C10K C -0.2377(4) -0.2138(6) 0.34725(13)
C10D C 0.2138(6) -0.0239(4) 0.15275(13)
C10G C 0.2138(6) -0.0239(4) 0.34725(13)
C11I C 0.1097(4) 0.3458(4) 0.34497(13)
C11B C -0.3458(4) -0.2361(6) 0.15503(13)
C11K C -0.3458(4) -0.2361(6) 0.34497(13)
C11D C 0.2361(6) -0.1097(4) 0.15503(13)
C11G C 0.2361(6) -0.1097(4) 0.34497(13)
C12I C 0.1979(4) 0.3426(4) 0.35536(14)
C12B C -0.3426(4) -0.1447(6) 0.14464(14)
C12K C -0.3426(4) -0.1447(6) 0.35536(14)
C12D C 0.1447(6) -0.1979(4) 0.14464(14)
C12G C 0.1447(6) -0.1979(4) 0.35536(14)
C13I C -0.0908(4) 0.1943(4) 0.33712(16)
C13B C -0.1943(4) -0.2851(6) 0.16288(16)
C13K C -0.1943(4) -0.2851(6) 0.33712(16)
C13D C 0.2851(6) 0.0908(4) 0.16288(16)
C13G C 0.2851(6) 0.0908(4) 0.33712(16)
H11I H -0.1333 0.1208 0.3467
H11B H -0.1208 -0.2541 0.1533
H11K H -0.1208 -0.2541 0.3467
H11D H 0.2541 0.1333 0.1533
H11G H 0.2541 0.1333 0.3467
H12I H -0.1167 0.2393 0.3484
H12B H -0.2393 -0.3560 0.1516
H12K H -0.2393 -0.3560 0.3484
H12D H 0.3560 0.1167 0.1516
H12G H 0.3560 0.1167 0.3484
H13I H -0.0979 0.1941 0.3096
H13B H -0.1941 -0.2920 0.1904
H13K H -0.1941 -0.2920 0.3096
H13D H 0.2920 0.0979 0.1904
H13G H 0.2920 0.0979 0.3096
C14I C 0.3140(4) 0.4221(4) 0.35844(18)
C14B C -0.4221(4) -0.1081(6) 0.14156(18)
C14K C -0.4221(4) -0.1081(6) 0.35844(18)
C14D C 0.1081(6) -0.3140(4) 0.14156(18)
C14G C 0.1081(6) -0.3140(4) 0.35844(18)
H14I H 0.3272 0.4921 0.3495
H14B H -0.4921 -0.1649 0.1505
H14K H -0.4921 -0.1649 0.3495
H14D H 0.1649 -0.3272 0.1505
H14G H 0.1649 -0.3272 0.3495
H15I H 0.3365 0.4280 0.3849
H15B H -0.4280 -0.0915 0.1151
H15K H -0.4280 -0.0915 0.3849
H15D H 0.0915 -0.3365 0.1151
H15G H 0.0915 -0.3365 0.3849
H16I H 0.3549 0.3987 0.3430
H16B H -0.3987 -0.0438 0.1570
H16K H -0.3987 -0.0438 0.3430
H16D H 0.0438 -0.3549 0.1570
H16G H 0.0438 -0.3549 0.3430
C15I C 0.1021(4) 0.4420(4) 0.33233(14)
C15B C -0.4420(4) -0.3399(6) 0.16767(14)
C15K C -0.4420(4) -0.3399(6) 0.33233(14)
C15D C 0.3399(6) -0.1021(4) 0.16767(14)
C15G C 0.3399(6) -0.1021(4) 0.33233(14)
H17I H 0.0355 0.4365 0.3426
H17B H -0.4365 -0.4010 0.1574
H17K H -0.4365 -0.4010 0.3426
H17D H 0.4010 -0.0355 0.1574
H17G H 0.4010 -0.0355 0.3426
H18I H 0.1637 0.5080 0.3427
H18B H -0.5080 -0.3443 0.1573
H18K H -0.5080 -0.3443 0.3427
H18D H 0.3443 -0.1637 0.1573
H18G H 0.3443 -0.1637 0.3427
C16I C 0.1016(4) 0.4505(3) 0.28953(14)
C16B C -0.4505(3) -0.3489(5) 0.21047(14)
C16K C -0.4505(3) -0.3489(5) 0.28953(14)
C16D C 0.3489(5) -0.1016(4) 0.21047(14)
C16G C 0.3489(5) -0.1016(4) 0.28953(14)
C17I C 0.0071(4) 0.4123(4) 0.26954(14)
C17B C -0.4123(4) -0.4052(6) 0.23046(14)
C17K C -0.4123(4) -0.4052(6) 0.26954(14)
C17D C 0.4052(6) -0.0071(4) 0.23046(14)
C17G C 0.4052(6) -0.0071(4) 0.26954(14)
H19I H -0.0588 0.3857 0.2828
H19B H -0.3857 -0.4445 0.2172
H19K H -0.3857 -0.4445 0.2828
H19D H 0.4445 0.0588 0.2172
H19G H 0.4445 0.0588 0.2828
C18I C 0.1959(4) 0.4927(4) 0.26945(15)
C18B C -0.4927(4) -0.2968(6) 0.23055(15)
C18K C -0.4927(4) -0.2968(6) 0.26945(15)
C18D C 0.2968(6) -0.1959(4) 0.23055(15)
C18G C 0.2968(6) -0.1959(4) 0.26945(15)
H20I H 0.2621 0.5223 0.2827
H20B H -0.5223 -0.2602 0.2173
H20K H -0.5223 -0.2602 0.2827
H20D H 0.2602 -0.2621 0.2173
H20G H 0.2602 -0.2621 0.2827
F1 F -0.3333 0.3333 0.1007(3)
F2 F -0.2344(5) 0.3488(6) 0.1498(2)
B1 B -0.3333 0.3333 0.1393(8)
F2D F -0.4168(8) 0.2344(5) 0.1498(2)
F2B F -0.3488(6) 0.4168(8) 0.1498(2)
F3 F 0.2992(2) 0.7356(2) 0.08736(9)
F4 F 0.3333 0.6667 0.13973(13)
B2 B 0.3333 0.6667 0.0996(3)
F3D F 0.4364(3) 0.7008(2) 0.08736(9)
F3B F 0.2644(2) 0.5636(3) 0.08736(9)
O3 O 0.3014(18) 0.2342(14) 0.2500
C19 C 0.101(2) 0.161(2) 0.2500
H21 H 0.0502 0.1868 0.2500
H22 H 0.0900 0.1168 0.2726
C20 C 0.215(2) 0.2551(18) 0.2500
H23 H 0.2227 0.2993 0.2275
C21 C 0.401(2) 0.319(2) 0.2500
H24 H 0.4098 0.3637 0.2726
C22 C 0.490(3) 0.2914(18) 0.2500
H25 H 0.5603 0.3575 0.2500
H26 H 0.4841 0.2493 0.2274
H22I H 0.0900 0.1168 0.2274
H23I H 0.2227 0.2993 0.2725
H24I H 0.4098 0.3637 0.2274
H26I H 0.4841 0.2493 0.2726
loop_
_geom_bond_atom_site_label_1
_geom_bond_atom_site_label_2
_geom_bond_site_symmetry_1
_geom_bond_site_symmetry_2
Ag1 N1 1_555 1_555
Ag2 N2 1_555 1_555
F1 B1 1_555 1_555
F2 B1 1_555 1_555
F3 B2 1_555 1_555
F4 B2 1_555 1_555
O1 N1 1_555 1_555
O2 N2 1_555 1_555
O3 C20 1_555 1_555
N1 C3 1_555 1_555
N2 C10 1_555 1_555
C1 O1 1_555 1_555
C2 C1 1_555 1_555
C3 C2 1_555 1_555
C4 C1 1_555 1_555
H1 C4 1_555 1_555
H2 C4 1_555 1_555
H3 C4 1_555 1_555
C5 C3 1_555 1_555
H4 C5 1_555 1_555
H5 C5 1_555 1_555
H6 C5 1_555 1_555
C6 C2 1_555 1_555
H7 C6 1_555 1_555
H8 C6 1_555 1_555
C7 C6 1_555 1_555
C8 C7 1_555 1_555
H9 C8 1_555 1_555
C9 C7 1_555 1_555
H10 C9 1_555 1_555
C10 C11 1_555 1_555
C11 C12 1_555 1_555
C12 O2 1_555 1_555
C13 C10 1_555 1_555
H11 C13 1_555 1_555
H12 C13 1_555 1_555
H13 C13 1_555 1_555
C14 C12 1_555 1_555
H14 C14 1_555 1_555
H15 C14 1_555 1_555
H16 C14 1_555 1_555
C15 C11 1_555 1_555
H17 C15 1_555 1_555
H18 C15 1_555 1_555
C16 C15 1_555 1_555
C17 C16 1_555 1_555
H19 C17 1_555 1_555
C18 C16 1_555 1_555
H20 C18 1_555 1_555
C19 H21 1_555 1_555
H22 C19 1_555 1_555
C20 C19 1_555 1_555
H23 C20 1_555 1_555
C21 O3 1_555 1_555
H24 C21 1_555 1_555
C22 C21 1_555 1_555
H25 C22 1_555 1_555
H26 C22 1_555 1_555
B1 F2D 1_555 1_555
B2 F3D 1_555 1_555
Ag1F N1F 1_555 1_555
Ag1F_2 N1H 1_555 1_555
Ag1F_3 N1J 1_555 1_555
Ag2G N2I 1_555 1_555
F2B B1 1_555 1_555
F3B B2 1_555 1_555
O1F N1F 1_555 1_555
O1B N1B 1_555 1_555
O1H N1H 1_555 1_555
O1D N1D 1_555 1_555
O1J N1J 1_555 1_555
O2I N2I 1_555 1_555
O2B N2B 1_555 1_555
O2K N2K 1_555 1_555
O2D N2D 1_555 1_555
O2G N2G 1_555 1_555
N1F C3F 1_555 1_555
N1B Ag1 1_555 1_555
N1H C3H 1_555 1_555
N1D Ag1 1_555 1_555
N1J C3J 1_555 1_555
N1H_2 Ag1F 1_555 1_555
N1J_2 Ag1F 1_555 1_555
N2I C10I 1_555 1_555
N2B Ag2 1_555 1_555
N2K Ag2G 1_555 1_555
N2D Ag2 1_555 1_555
N2G Ag2G 1_555 1_555
C1F O1F 1_555 1_555
C1B O1B 1_555 1_555
C1H O1H 1_555 1_555
C1D O1D 1_555 1_555
C1J O1J 1_555 1_555
C2F C1F 1_555 1_555
C2B C1B 1_555 1_555
C2H C1H 1_555 1_555
C2D C1D 1_555 1_555
C2J C1J 1_555 1_555
C3F C2F 1_555 1_555
C3B N1B 1_555 1_555
C3H C2H 1_555 1_555
C3D N1D 1_555 1_555
C3J C2J 1_555 1_555
C4F C1F 1_555 1_555
C4B C1B 1_555 1_555
C4H C1H 1_555 1_555
C4D C1D 1_555 1_555
C4J C1J 1_555 1_555
H1F C4F 1_555 1_555
H1B C4B 1_555 1_555
H1H C4H 1_555 1_555
H1D C4D 1_555 1_555
H1J C4J 1_555 1_555
H2F C4F 1_555 1_555
H2B C4B 1_555 1_555
H2H C4H 1_555 1_555
H2D C4D 1_555 1_555
H2J C4J 1_555 1_555
H3F C4F 1_555 1_555
H3B C4B 1_555 1_555
H3H C4H 1_555 1_555
H3D C4D 1_555 1_555
H3J C4J 1_555 1_555
C5F C3F 1_555 1_555
C5B C3B 1_555 1_555
C5H C3H 1_555 1_555
C5D C3D 1_555 1_555
C5J C3J 1_555 1_555
H4F C5F 1_555 1_555
H4B C5B 1_555 1_555
H4H C5H 1_555 1_555
H4D C5D 1_555 1_555
H4J C5J 1_555 1_555
H5F C5F 1_555 1_555
H5B C5B 1_555 1_555
H5H C5H 1_555 1_555
H5D C5D 1_555 1_555
H5J C5J 1_555 1_555
H6F C5F 1_555 1_555
H6B C5B 1_555 1_555
H6H C5H 1_555 1_555
H6D C5D 1_555 1_555
H6J C5J 1_555 1_555
C6F C2F 1_555 1_555
C6B C2B 1_555 1_555
C6H C2H 1_555 1_555
C6D C2D 1_555 1_555
C6J C2J 1_555 1_555
H7F C6F 1_555 1_555
H7B C6B 1_555 1_555
H7H C6H 1_555 1_555
H7D C6D 1_555 1_555
H7J C6J 1_555 1_555
H8F C6F 1_555 1_555
H8B C6B 1_555 1_555
H8H C6H 1_555 1_555
H8D C6D 1_555 1_555
H8J C6J 1_555 1_555
C7F C6F 1_555 1_555
C7B C6B 1_555 1_555
C7H C6H 1_555 1_555
C7D C6D 1_555 1_555
C7J C6J 1_555 1_555
C8F C9 1_555 1_555
C8B C7B 1_555 1_555
C8H C7H 1_555 1_555
C8D C7D 1_555 1_555
C8J C7J 1_555 1_555
H9F C8F 1_555 1_555
H9B C8B 1_555 1_555
H9H C8H 1_555 1_555
H9D C8D 1_555 1_555
H9J C8J 1_555 1_555
C9F C8 1_555 1_555
C9B C7B 1_555 1_555
C9H C7H 1_555 1_555
C9D C7D 1_555 1_555
C9J C7J 1_555 1_555
H10F C9F 1_555 1_555
H10B C9B 1_555 1_555
H10H C9H 1_555 1_555
H10D C9D 1_555 1_555
H10J C9J 1_555 1_555
C10I C11I 1_555 1_555
C10B N2B 1_555 1_555
C10K N2K 1_555 1_555
C10D N2D 1_555 1_555
C10G N2G 1_555 1_555
C11I C12I 1_555 1_555
C11B C10B 1_555 1_555
C11K C10K 1_555 1_555
C11D C10D 1_555 1_555
C11G C10G 1_555 1_555
C12I O2I 1_555 1_555
C12B O2B 1_555 1_555
C12K O2K 1_555 1_555
C12D O2D 1_555 1_555
C12G O2G 1_555 1_555
C13I C10I 1_555 1_555
C13B C10B 1_555 1_555
C13K C10K 1_555 1_555
C13D C10D 1_555 1_555
C13G C10G 1_555 1_555
H11I C13I 1_555 1_555
H11B C13B 1_555 1_555
H11K C13K 1_555 1_555
H11D C13D 1_555 1_555
H11G C13G 1_555 1_555
H12I C13I 1_555 1_555
H12B C13B 1_555 1_555
H12K C13K 1_555 1_555
H12D C13D 1_555 1_555
H12G C13G 1_555 1_555
H13I C13I 1_555 1_555
H13B C13B 1_555 1_555
H13K C13K 1_555 1_555
H13D C13D 1_555 1_555
H13G C13G 1_555 1_555
C14I C12I 1_555 1_555
C14B C12B 1_555 1_555
C14K C12K 1_555 1_555
C14D C12D 1_555 1_555
C14G C12G 1_555 1_555
H14I C14I 1_555 1_555
H14B C14B 1_555 1_555
H14K C14K 1_555 1_555
H14D C14D 1_555 1_555
H14G C14G 1_555 1_555
H15I C14I 1_555 1_555
H15B C14B 1_555 1_555
H15K C14K 1_555 1_555
H15D C14D 1_555 1_555
H15G C14G 1_555 1_555
H16I C14I 1_555 1_555
H16B C14B 1_555 1_555
H16K C14K 1_555 1_555
H16D C14D 1_555 1_555
H16G C14G 1_555 1_555
C15I C11I 1_555 1_555
C15B C11B 1_555 1_555
C15K C11K 1_555 1_555
C15D C11D 1_555 1_555
C15G C11G 1_555 1_555
H17I C15I 1_555 1_555
H17B C15B 1_555 1_555
H17K C15K 1_555 1_555
H17D C15D 1_555 1_555
H17G C15G 1_555 1_555
H18I C15I 1_555 1_555
H18B C15B 1_555 1_555
H18K C15K 1_555 1_555
H18D C15D 1_555 1_555
H18G C15G 1_555 1_555
C16I C15I 1_555 1_555
C16B C15B 1_555 1_555
C16K C15K 1_555 1_555
C16D C15D 1_555 1_555
C16G C15G 1_555 1_555
C17I C17 1_555 1_555
C17B C16B 1_555 1_555
C17K C16K 1_555 1_555
C17D C16D 1_555 1_555
C17G C16G 1_555 1_555
H19I C17I 1_555 1_555
H19B C17B 1_555 1_555
H19K C17K 1_555 1_555
H19D C17D 1_555 1_555
H19G C17G 1_555 1_555
C18I C18 1_555 1_555
C18B C16B 1_555 1_555
C18K C16K 1_555 1_555
C18D C16D 1_555 1_555
C18G C16G 1_555 1_555
H20I C18I 1_555 1_555
H20B C18B 1_555 1_555
H20K C18K 1_555 1_555
H20D C18D 1_555 1_555
H20G C18G 1_555 1_555
H22I C19 1_555 1_555
H23I C20 1_555 1_555
H24I C21 1_555 1_555
H26I C22 1_555 1_555
C2B C3B 1_555 1_555
C2D C3D 1_555 1_555
C7F C8F 1_555 1_555
C7F C9F 1_555 1_555
C8B C9H 1_555 1_555
C8H C9B 1_555 1_555
C8D C9J 1_555 1_555
C8J C9D 1_555 1_555
C11B C12B 1_555 1_555
C11K C12K 1_555 1_555
C11D C12D 1_555 1_555
C11G C12G 1_555 1_555
C16I C17I 1_555 1_555
C16I C18I 1_555 1_555
C17B C17K 1_555 1_555
C17D C17G 1_555 1_555
C18B C18K 1_555 1_555
C18D C18G 1_555 1_555

#END
