
#######################################################################
#
#                 Cambridge Crystallographic Data Centre
#                                CCDC 
#
#######################################################################
#
# If this CIF has been generated from an entry in the Cambridge 
# Structural Database, then it will include bibliographic, chemical, 
# crystal, experimental, refinement or atomic coordinate data resulting 
# from the CCDC's data processing and validation procedures.
#
#######################################################################

data_ISARAW
_symmetry_cell_setting           orthorhombic
_symmetry_space_group_name_H-M   'P c a b'
_symmetry_Int_Tables_number      61
_space_group_name_Hall           '-P 2bc 2ac'
loop_
_symmetry_equiv_pos_site_id
_symmetry_equiv_pos_as_xyz
1 x,y,z
2 -x,1/2-y,1/2+z
3 1/2+x,-y,1/2-z
4 1/2-x,1/2+y,-z
5 -x,-y,-z
6 x,1/2+y,1/2-z
7 1/2-x,y,1/2+z
8 1/2+x,1/2-y,z
_cell_length_a                   7.3890(1)
_cell_length_b                   15.9620(3)
_cell_length_c                   17.7590(4)
_cell_angle_alpha                90
_cell_angle_beta                 90
_cell_angle_gamma                90
_cell_volume                     2094.55
loop_
_atom_site_label
_atom_site_type_symbol
_atom_site_fract_x
_atom_site_fract_y
_atom_site_fract_z
Ag1 Ag 0.72332(5) 0.430406(18) 0.349259(18)
O1 O 0.7624(3) 0.32613(14) 0.49224(13)
N1 N 0.7377(4) 0.31393(19) 0.41470(16)
C1 C 0.8335(5) 0.2523(3) 0.60607(19)
H1 H 0.9330 0.2911 0.6170
H2 H 0.8661 0.1959 0.6232
H3 H 0.7240 0.2709 0.6323
O2 O 0.5455(4) 0.54916(17) 0.34610(14)
N2 N 0.4491(4) 0.54955(19) 0.28818(16)
C2 C 0.7996(4) 0.2508(2) 0.52386(19)
O3 O 0.3634(4) 0.61382(18) 0.27046(16)
C3 C 0.7975(4) 0.1900(2) 0.46996(18)
O4 O 0.4399(4) 0.48622(18) 0.24828(16)
C4 C 0.7581(4) 0.2340(2) 0.40227(19)
C5 C 0.7398(5) 0.1995(3) 0.3238(2)
H4 H 0.6258 0.1684 0.3196
H5 H 0.8414 0.1618 0.3132
H6 H 0.7402 0.2457 0.2875
C6 C 0.8318(4) 0.0977(2) 0.4786(2)
H7 H 0.9124 0.0888 0.5225
H8 H 0.8959 0.0771 0.4333
C7 C 0.5742(4) 0.0444(2) 0.55895(18)
H9 H 0.6244 0.0747 0.6000
C8 C 0.6599(4) 0.0463(2) 0.48956(19)
C9 C 0.5850(4) 0.00137(19) 0.43052(19)
H10 H 0.6421 0.0017 0.3826
Ag1D Ag 0.27668(5) -0.430406(18) 0.650741(18)
Ag1B Ag 0.22332(5) 0.569594(18) 0.150741(18)
Ag1F Ag 0.77668(5) -0.569594(18) 0.849259(18)
O1D O 0.2376(3) -0.32613(14) 0.50776(13)
N1D N 0.2623(4) -0.31393(19) 0.58530(16)
C1D C 0.1665(5) -0.2523(3) 0.39393(19)
H1D H 0.0670 -0.2911 0.3830
H2D H 0.1339 -0.1959 0.3768
H3D H 0.2760 -0.2709 0.3677
O2D O 0.4545(4) -0.54916(17) 0.65390(14)
N2D N 0.5509(4) -0.54955(19) 0.71182(16)
C2D C 0.2004(4) -0.2508(2) 0.47614(19)
O3D O 0.6366(4) -0.61382(18) 0.72954(16)
O3B O 0.8634(4) 0.38618(18) 0.22954(16)
O3F O 0.1366(4) -0.38618(18) 0.77046(16)
C3D C 0.2025(4) -0.1900(2) 0.53004(18)
O4D O 0.5601(4) -0.48622(18) 0.75172(16)
O4B O 0.9399(4) 0.51378(18) 0.25172(16)
O4F O 0.0601(4) -0.51378(18) 0.74828(16)
C4D C 0.2419(4) -0.2340(2) 0.59773(19)
C5D C 0.2602(5) -0.1995(3) 0.6762(2)
H4D H 0.3742 -0.1684 0.6804
H5D H 0.1586 -0.1618 0.6868
H6D H 0.2598 -0.2457 0.7125
C6D C 0.1682(4) -0.0977(2) 0.5214(2)
H7D H 0.0876 -0.0888 0.4775
H8D H 0.1041 -0.0771 0.5667
C7D C 0.4258(4) -0.0444(2) 0.44105(18)
H9D H 0.3756 -0.0747 0.4000
C8D C 0.3401(4) -0.0463(2) 0.51044(19)
C9D C 0.4150(4) -0.00137(19) 0.56948(19)
H10D H 0.3579 -0.0017 0.6174
loop_
_geom_bond_atom_site_label_1
_geom_bond_atom_site_label_2
_geom_bond_site_symmetry_1
_geom_bond_site_symmetry_2
Ag1 N1 1_555 1_555
O1 N1 1_555 1_555
N1 C4 1_555 1_555
C1 H1 1_555 1_555
H2 C1 1_555 1_555
H3 C1 1_555 1_555
O2 Ag1 1_555 1_555
N2 O2 1_555 1_555
C2 O1 1_555 1_555
O3 N2 1_555 1_555
C3 C2 1_555 1_555
O4 N2 1_555 1_555
C4 C3 1_555 1_555
C5 C4 1_555 1_555
H4 C5 1_555 1_555
H5 C5 1_555 1_555
H6 C5 1_555 1_555
C6 C3 1_555 1_555
H7 C6 1_555 1_555
H8 C6 1_555 1_555
C7 H9 1_555 1_555
C8 C6 1_555 1_555
C9 C8 1_555 1_555
H10 C9 1_555 1_555
Ag1D N1D 1_555 1_555
Ag1B O3 1_555 1_555
Ag1F O3D 1_555 1_555
O1D N1D 1_555 1_555
N1D C4D 1_555 1_555
C1D H1D 1_555 1_555
H2D C1D 1_555 1_555
H3D C1D 1_555 1_555
O2D Ag1D 1_555 1_555
N2D O2D 1_555 1_555
C2D O1D 1_555 1_555
O3D N2D 1_555 1_555
O3B Ag1 1_555 1_555
O3F Ag1D 1_555 1_555
C3D C2D 1_555 1_555
O4D Ag1F 1_555 1_555
O4B Ag1 1_555 1_555
O4F Ag1D 1_555 1_555
C4D C3D 1_555 1_555
C5D C4D 1_555 1_555
H4D C5D 1_555 1_555
H5D C5D 1_555 1_555
H6D C5D 1_555 1_555
C6D C3D 1_555 1_555
H7D C6D 1_555 1_555
H8D C6D 1_555 1_555
C7D C9 1_555 1_555
H9D C7D 1_555 1_555
C8D C6D 1_555 1_555
C9D C7 1_555 1_555
H10D C9D 1_555 1_555
C1 C2 1_555 1_555
O4 Ag1B 1_555 1_555
C7 C8 1_555 1_555
C1D C2D 1_555 1_555
N2D O4D 1_555 1_555
C7D C8D 1_555 1_555
C8D C9D 1_555 1_555

#END
