
#######################################################################
#
#                 Cambridge Crystallographic Data Centre
#                                CCDC 
#
#######################################################################
#
# If this CIF has been generated from an entry in the Cambridge 
# Structural Database, then it will include bibliographic, chemical, 
# crystal, experimental, refinement or atomic coordinate data resulting 
# from the CCDC's data processing and validation procedures.
#
#######################################################################

data_ISARUQ
_symmetry_cell_setting           triclinic
_symmetry_space_group_name_H-M   'P -1'
_symmetry_Int_Tables_number      2
_space_group_name_Hall           '-P 1'
loop_
_symmetry_equiv_pos_site_id
_symmetry_equiv_pos_as_xyz
1 x,y,z
2 -x,-y,-z
_cell_length_a                   13.5620(1)
_cell_length_b                   14.2000(1)
_cell_length_c                   14.2460(2)
_cell_angle_alpha                103.616(1)
_cell_angle_beta                 113.747(1)
_cell_angle_gamma                103.917(1)
_cell_volume                     2260.62
loop_
_atom_site_label
_atom_site_type_symbol
_atom_site_fract_x
_atom_site_fract_y
_atom_site_fract_z
Ag1 Ag 0.962142(17) 0.264587(14) 0.172180(15)
O1 O 1.03805(14) 0.35175(11) 0.01259(13)
O2 O 1.77952(15) 0.66415(12) 0.62791(14)
O3 O 0.90824(15) 0.02499(12) 0.09732(14)
O4 O 0.10894(16) -0.43661(13) -0.28218(16)
N1 N 1.05489(17) 0.38270(15) 0.12148(16)
N2 N 1.89280(17) 0.73435(15) 0.66568(16)
N3 N 0.87844(18) 0.09794(14) 0.05089(17)
N4 N 0.14731(18) -0.32624(15) -0.23992(17)
C1 C 1.1633(2) 0.53900(19) 0.2898(2)
H1 H 1.1161 0.4977 0.3138
H2 H 1.1541 0.6064 0.2984
H3 H 1.2453 0.5510 0.3350
C2 C 1.1246(2) 0.48130(17) 0.17183(19)
C3 C 1.1552(2) 0.51935(18) 0.09885(19)
C4 C 1.1007(2) 0.43629(18) 0.00315(19)
C5 C 1.0972(2) 0.4174(2) -0.1054(2)
H4 H 1.1156 0.4838 -0.1161
H5 H 1.0192 0.3690 -0.1646
H6 H 1.1543 0.3869 -0.1071
C6 C 1.2264(2) 0.63081(18) 0.1256(2)
H7 H 1.1943 0.6772 0.1569
H8 H 1.2174 0.6389 0.0558
C7 C 1.3556(2) 0.66771(18) 0.20598(19)
C8 C 1.4221(2) 0.61157(19) 0.1892(2)
H9 H 1.3854 0.5456 0.1300
C9 C 1.5409(2) 0.6509(2) 0.2576(2)
H10 H 1.5850 0.6118 0.2445
C10 C 1.5974(2) 0.74723(19) 0.3460(2)
C11 C 1.5310(2) 0.80205(19) 0.3634(2)
H11 H 1.5676 0.8675 0.4233
C12 C 1.4115(2) 0.76292(19) 0.2947(2)
H12 H 1.3673 0.8017 0.3085
C13 C 1.7273(2) 0.7892(2) 0.4218(2)
H13 H 1.7647 0.7707 0.3771
H14 H 1.7559 0.8664 0.4542
C14 C 1.7650(2) 0.74975(18) 0.51409(19)
C15 C 1.7048(2) 0.67607(18) 0.5372(2)
C16 C 1.5814(2) 0.6078(2) 0.4904(2)
H15 H 1.5307 0.6403 0.4514
H16 H 1.5670 0.5984 0.5504
H17 H 1.5649 0.5395 0.4386
C17 C 1.8822(2) 0.78450(18) 0.59844(19)
C18 C 1.9845(2) 0.8660(2) 0.6129(2)
H18 H 2.0536 0.8771 0.6803
H19 H 1.9712 0.9315 0.6188
H20 H 1.9962 0.8434 0.5490
C19 C 0.7885(3) 0.1077(2) -0.1300(2)
H21 H 0.8068 0.1799 -0.0852
H22 H 0.7042 0.0728 -0.1788
H23 H 0.8276 0.1082 -0.1747
C20 C 0.8290(2) 0.05073(18) -0.0563(2)
C21 C 0.8230(2) -0.05418(18) -0.0857(2)
C22 C 0.8731(2) -0.06527(18) 0.0119(2)
C23 C 0.8994(3) -0.1516(2) 0.0444(3)
H24 H 0.9657 -0.1226 0.1193
H25 H 0.9183 -0.1919 -0.0073
H26 H 0.8314 -0.1975 0.0427
C24 C 0.7738(2) -0.1334(2) -0.2002(2)
H27 H 0.8131 -0.1838 -0.1955
H28 H 0.7912 -0.0969 -0.2463
C25 C 0.6431(2) -0.1934(2) -0.2567(2)
C26 C 0.5972(2) -0.2746(2) -0.2294(2)
H29 H 0.6480 -0.2919 -0.1734
C27 C 0.4787(2) -0.3306(2) -0.2827(2)
H30 H 0.4495 -0.3860 -0.2627
C28 C 0.4014(2) -0.3074(2) -0.3650(2)
C29 C 0.4473(3) -0.2256(2) -0.3905(2)
H31 H 0.3967 -0.2068 -0.4451
C30 C 0.5663(3) -0.1702(2) -0.3376(2)
H32 H 0.5957 -0.1149 -0.3576
C31 C 0.2717(2) -0.3716(2) -0.4278(2)
H33 H 0.2333 -0.3415 -0.4815
H34 H 0.2587 -0.4436 -0.4706
C32 C 0.2133(2) -0.3781(2) -0.3579(2)
C33 C 0.2081(2) -0.29348(19) -0.2856(2)
C34 C 0.2600(2) -0.1801(2) -0.2614(2)
H35 H 0.2441 -0.1402 -0.2068
H36 H 0.2259 -0.1667 -0.3296
H37 H 0.3442 -0.1586 -0.2320
C35 C 0.1501(2) -0.4641(2) -0.3531(2)
C36 C 0.1167(3) -0.5788(2) -0.4069(3)
H38 H 0.1471 -0.5913 -0.4586
H39 H 0.0318 -0.6134 -0.4472
H40 H 0.1494 -0.6072 -0.3503
Ag1A Ag 0.037858(17) -0.264587(14) -0.172180(15)
Ag1_2 Ag -1.037858(17) -0.735413(14) -0.827820(15)
Ag1A_2 Ag 2.037858(17) 0.735413(14) 0.827820(15)
O1A O -0.03805(14) -0.35175(11) -0.01259(13)
O2A O -0.77952(15) -0.66415(12) -0.62791(14)
O3A O 0.09176(15) -0.02499(12) -0.09732(14)
O4A O 0.89106(16) 0.43661(13) 0.28218(16)
N1A N -0.05489(17) -0.38270(15) -0.12148(16)
N2A N -0.89280(17) -0.73435(15) -0.66568(16)
N2_2 N -0.10720(17) -0.26565(15) -0.33432(16)
N2A_2 N 1.10720(17) 0.26565(15) 0.33432(16)
N3A N 0.12156(18) -0.09794(14) -0.05089(17)
N4A N 0.85269(18) 0.32624(15) 0.23992(17)
C1A C -0.1633(2) -0.53900(19) -0.2898(2)
H1A H -0.1161 -0.4977 -0.3138
H2A H -0.1541 -0.6064 -0.2984
H3A H -0.2453 -0.5510 -0.3350
C2A C -0.1246(2) -0.48130(17) -0.17183(19)
C3A C -0.1552(2) -0.51935(18) -0.09885(19)
C4A C -0.1007(2) -0.43629(18) -0.00315(19)
C5A C -0.0972(2) -0.4174(2) 0.1054(2)
H4A H -0.1156 -0.4838 0.1161
H5A H -0.0192 -0.3690 0.1646
H6A H -0.1543 -0.3869 0.1071
C6A C -0.2264(2) -0.63081(18) -0.1256(2)
H7A H -0.1943 -0.6772 -0.1569
H8A H -0.2174 -0.6389 -0.0558
C7A C -0.3556(2) -0.66771(18) -0.20598(19)
C8A C -0.4221(2) -0.61157(19) -0.1892(2)
H9A H -0.3854 -0.5456 -0.1300
C9A C -0.5409(2) -0.6509(2) -0.2576(2)
H10A H -0.5850 -0.6118 -0.2445
C10A C -0.5974(2) -0.74723(19) -0.3460(2)
C11A C -0.5310(2) -0.80205(19) -0.3634(2)
H11A H -0.5676 -0.8675 -0.4233
C12A C -0.4115(2) -0.76292(19) -0.2947(2)
H12A H -0.3673 -0.8017 -0.3085
C13A C -0.7273(2) -0.7892(2) -0.4218(2)
H13A H -0.7647 -0.7707 -0.3771
H14A H -0.7559 -0.8664 -0.4542
C14A C -0.7650(2) -0.74975(18) -0.51409(19)
C15A C -0.7048(2) -0.67607(18) -0.5372(2)
C16A C -0.5814(2) -0.6078(2) -0.4904(2)
H15A H -0.5307 -0.6403 -0.4514
H16A H -0.5670 -0.5984 -0.5504
H17A H -0.5649 -0.5395 -0.4386
C17A C -0.8822(2) -0.78450(18) -0.59844(19)
C18A C -0.9845(2) -0.8660(2) -0.6129(2)
H18A H -1.0536 -0.8771 -0.6803
H19A H -0.9712 -0.9315 -0.6188
H20A H -0.9962 -0.8434 -0.5490
C19A C 0.2115(3) -0.1077(2) 0.1300(2)
H21A H 0.1932 -0.1799 0.0852
H22A H 0.2958 -0.0728 0.1788
H23A H 0.1724 -0.1082 0.1747
C20A C 0.1710(2) -0.05073(18) 0.0563(2)
C21A C 0.1770(2) 0.05418(18) 0.0857(2)
C22A C 0.1269(2) 0.06527(18) -0.0119(2)
C23A C 0.1006(3) 0.1516(2) -0.0444(3)
H24A H 0.0343 0.1226 -0.1193
H25A H 0.0817 0.1919 0.0073
H26A H 0.1686 0.1975 -0.0427
C24A C 0.2262(2) 0.1334(2) 0.2002(2)
H27A H 0.1869 0.1838 0.1955
H28A H 0.2088 0.0969 0.2463
C25A C 0.3569(2) 0.1934(2) 0.2567(2)
C26A C 0.4028(2) 0.2746(2) 0.2294(2)
H29A H 0.3520 0.2919 0.1734
C27A C 0.5213(2) 0.3306(2) 0.2827(2)
H30A H 0.5505 0.3860 0.2627
C28A C 0.5986(2) 0.3074(2) 0.3650(2)
C29A C 0.5527(3) 0.2256(2) 0.3905(2)
H31A H 0.6033 0.2068 0.4451
C30A C 0.4337(3) 0.1702(2) 0.3376(2)
H32A H 0.4043 0.1149 0.3576
C31A C 0.7283(2) 0.3716(2) 0.4278(2)
H33A H 0.7667 0.3415 0.4815
H34A H 0.7413 0.4436 0.4706
C32A C 0.7867(2) 0.3781(2) 0.3579(2)
C33A C 0.7919(2) 0.29348(19) 0.2856(2)
C34A C 0.7400(2) 0.1801(2) 0.2614(2)
H35A H 0.7559 0.1402 0.2068
H36A H 0.7741 0.1667 0.3296
H37A H 0.6558 0.1586 0.2320
C35A C 0.8499(2) 0.4641(2) 0.3531(2)
C36A C 0.8833(3) 0.5788(2) 0.4069(3)
H38A H 0.8529 0.5913 0.4586
H39A H 0.9682 0.6134 0.4472
H40A H 0.8506 0.6072 0.3503
P1 P 1.15510(6) 0.87060(5) 0.40355(6)
F1 F 1.0211(4) 0.8310(6) 0.3514(5)
F2 F 1.1194(10) 0.7740(8) 0.4327(9)
F3 F 1.1425(6) 0.7952(5) 0.2938(4)
F4 F 1.1660(10) 0.9627(7) 0.3600(10)
F5 F 1.1718(6) 0.9413(4) 0.5136(4)
F6 F 1.2909(4) 0.9039(5) 0.4547(5)
O5 O 0.4128(2) 0.37437(17) -0.0124(2)
N5 N 0.3048(2) 0.29127(19) -0.1001(2)
C37 C 0.2388(3) 0.1125(3) -0.2208(3)
H41 H 0.2214 0.0614 -0.1884
H42 H 0.2635 0.0845 -0.2735
H43 H 0.1691 0.1267 -0.2593
C38 C 0.3339(3) 0.2115(2) -0.1315(3)
C39 C 0.4531(3) 0.2356(2) -0.0714(3)
C40 C 0.4970(3) 0.3369(2) 0.0007(3)
C41 C 0.6166(3) 0.4098(3) 0.0841(3)
H44 H 0.6197 0.4387 0.1553
H45 H 0.6400 0.4668 0.0605
H46 H 0.6696 0.3723 0.0919
C42 C 0.5182(3) 0.1676(2) -0.0854(3)
H47 H 0.6018 0.2125 -0.0479
H48 H 0.4924 0.1361 -0.1653
C43 C 0.5058(2) 0.08021(19) -0.0420(2)
C44 C 0.4530(2) 0.0727(2) 0.0229(2)
H49 H 0.4202 0.1222 0.0393
C45 C 0.5522(2) 0.0060(2) -0.0640(2)
H50 H 0.5885 0.0096 -0.1085
O5A O 0.5872(2) -0.37437(17) 0.0124(2)
N5A N 0.6952(2) -0.29127(19) 0.1001(2)
C37A C 0.7612(3) -0.1125(3) 0.2208(3)
H41A H 0.7786 -0.0614 0.1884
H42A H 0.7365 -0.0845 0.2735
H43A H 0.8309 -0.1267 0.2593
C38A C 0.6661(3) -0.2115(2) 0.1315(3)
C39A C 0.5469(3) -0.2356(2) 0.0714(3)
C40A C 0.5030(3) -0.3369(2) -0.0007(3)
C41A C 0.3834(3) -0.4098(3) -0.0841(3)
H44A H 0.3803 -0.4387 -0.1553
H45A H 0.3600 -0.4668 -0.0605
H46A H 0.3304 -0.3723 -0.0919
C42A C 0.4818(3) -0.1676(2) 0.0854(3)
H47A H 0.3982 -0.2125 0.0479
H48A H 0.5076 -0.1361 0.1653
C43A C 0.4942(2) -0.08021(19) 0.0420(2)
C44A C 0.5470(2) -0.0727(2) -0.0229(2)
H49A H 0.5798 -0.1222 -0.0393
C45A C 0.4478(2) -0.0060(2) 0.0640(2)
H50A H 0.4115 -0.0096 0.1085
F7? F 1.0403(9) 0.8360(7) 0.2957(8)
F8? F 1.1521(15) 0.7815(14) 0.4512(13)
F9? F 1.1971(14) 0.8059(10) 0.3405(12)
F10? F 1.2027(15) 0.9671(8) 0.3802(13)
F11? F 1.1041(10) 0.9409(7) 0.4659(9)
F12? F 1.2681(10) 0.9152(9) 0.5193(9)
loop_
_geom_bond_atom_site_label_1
_geom_bond_atom_site_label_2
_geom_bond_site_symmetry_1
_geom_bond_site_symmetry_2
Ag1 N1 1_555 1_555
P1 F1 1_555 1_555
F2 P1 1_555 1_555
F3 P1 1_555 1_555
F4 P1 1_555 1_555
F5 P1 1_555 1_555
F6 P1 1_555 1_555
O1 N1 1_555 1_555
O2 N2 1_555 1_555
O3 N3 1_555 1_555
O4 N4 1_555 1_555
O5 N5 1_555 1_555
N1 C2 1_555 1_555
N2 C17 1_555 1_555
N3 Ag1 1_555 1_555
N4 C33 1_555 1_555
N5 C38 1_555 1_555
C1 H1 1_555 1_555
H2 C1 1_555 1_555
H3 C1 1_555 1_555
C2 C1 1_555 1_555
C3 C2 1_555 1_555
C4 O1 1_555 1_555
C5 C4 1_555 1_555
H4 C5 1_555 1_555
H5 C5 1_555 1_555
H6 C5 1_555 1_555
C6 C3 1_555 1_555
H7 C6 1_555 1_555
H8 C6 1_555 1_555
C7 C6 1_555 1_555
C8 C7 1_555 1_555
H9 C8 1_555 1_555
C9 C8 1_555 1_555
H10 C9 1_555 1_555
C10 C9 1_555 1_555
C11 C10 1_555 1_555
H11 C11 1_555 1_555
C12 C7 1_555 1_555
H12 C12 1_555 1_555
C13 C10 1_555 1_555
H13 C13 1_555 1_555
H14 C13 1_555 1_555
C14 C13 1_555 1_555
C15 O2 1_555 1_555
C16 C15 1_555 1_555
H15 C16 1_555 1_555
H16 C16 1_555 1_555
H17 C16 1_555 1_555
C17 C14 1_555 1_555
C18 C17 1_555 1_555
H18 C18 1_555 1_555
H19 C18 1_555 1_555
H20 C18 1_555 1_555
C19 H21 1_555 1_555
H22 C19 1_555 1_555
H23 C19 1_555 1_555
C20 N3 1_555 1_555
C21 C20 1_555 1_555
C22 O3 1_555 1_555
C23 C22 1_555 1_555
H24 C23 1_555 1_555
H25 C23 1_555 1_555
H26 C23 1_555 1_555
C24 C21 1_555 1_555
H27 C24 1_555 1_555
H28 C24 1_555 1_555
C25 C24 1_555 1_555
C26 C25 1_555 1_555
H29 C26 1_555 1_555
C27 C26 1_555 1_555
H30 C27 1_555 1_555
C28 C27 1_555 1_555
C29 C28 1_555 1_555
H31 C29 1_555 1_555
C30 C25 1_555 1_555
H32 C30 1_555 1_555
C31 C28 1_555 1_555
H33 C31 1_555 1_555
H34 C31 1_555 1_555
C32 C31 1_555 1_555
C33 C32 1_555 1_555
C34 C33 1_555 1_555
H35 C34 1_555 1_555
H36 C34 1_555 1_555
H37 C34 1_555 1_555
C35 O4 1_555 1_555
C36 C35 1_555 1_555
H38 C36 1_555 1_555
H39 C36 1_555 1_555
H40 C36 1_555 1_555
C37 H41 1_555 1_555
H42 C37 1_555 1_555
H43 C37 1_555 1_555
C38 C37 1_555 1_555
C39 C38 1_555 1_555
C40 O5 1_555 1_555
C41 C40 1_555 1_555
H44 C41 1_555 1_555
H45 C41 1_555 1_555
H46 C41 1_555 1_555
C42 C39 1_555 1_555
H47 C42 1_555 1_555
H48 C42 1_555 1_555
C43 C42 1_555 1_555
C44 C43 1_555 1_555
H49 C44 1_555 1_555
C45 C43 1_555 1_555
H50 C45 1_555 1_555
Ag1A N4 1_555 1_555
Ag1_2 N2A 1_555 1_555
Ag1A_2 N2 1_555 1_555
O1A N1A 1_555 1_555
O2A N2A 1_555 1_555
O3A N3A 1_555 1_555
O4A N4A 1_555 1_555
O5A N5A 1_555 1_555
N1A Ag1A 1_555 1_555
N2A C17A 1_555 1_555
N2_2 Ag1A 1_555 1_555
N2A_2 Ag1 1_555 1_555
N3A Ag1A 1_555 1_555
N4A Ag1 1_555 1_555
N5A C38A 1_555 1_555
C1A H1A 1_555 1_555
H2A C1A 1_555 1_555
H3A C1A 1_555 1_555
C2A N1A 1_555 1_555
C3A C2A 1_555 1_555
C4A O1A 1_555 1_555
C5A C4A 1_555 1_555
H4A C5A 1_555 1_555
H5A C5A 1_555 1_555
H6A C5A 1_555 1_555
C6A C3A 1_555 1_555
H7A C6A 1_555 1_555
H8A C6A 1_555 1_555
C7A C6A 1_555 1_555
C8A C7A 1_555 1_555
H9A C8A 1_555 1_555
C9A C8A 1_555 1_555
H10A C9A 1_555 1_555
C10A C9A 1_555 1_555
C11A C10A 1_555 1_555
H11A C11A 1_555 1_555
C12A C7A 1_555 1_555
H12A C12A 1_555 1_555
C13A C10A 1_555 1_555
H13A C13A 1_555 1_555
H14A C13A 1_555 1_555
C14A C13A 1_555 1_555
C15A O2A 1_555 1_555
C16A C15A 1_555 1_555
H15A C16A 1_555 1_555
H16A C16A 1_555 1_555
H17A C16A 1_555 1_555
C17A C14A 1_555 1_555
C18A C17A 1_555 1_555
H18A C18A 1_555 1_555
H19A C18A 1_555 1_555
H20A C18A 1_555 1_555
C19A H21A 1_555 1_555
H22A C19A 1_555 1_555
H23A C19A 1_555 1_555
C20A N3A 1_555 1_555
C21A C20A 1_555 1_555
C22A O3A 1_555 1_555
C23A C22A 1_555 1_555
H24A C23A 1_555 1_555
H25A C23A 1_555 1_555
H26A C23A 1_555 1_555
C24A C21A 1_555 1_555
H27A C24A 1_555 1_555
H28A C24A 1_555 1_555
C25A C24A 1_555 1_555
C26A C25A 1_555 1_555
H29A C26A 1_555 1_555
C27A C26A 1_555 1_555
H30A C27A 1_555 1_555
C28A C27A 1_555 1_555
C29A C28A 1_555 1_555
H31A C29A 1_555 1_555
C30A C25A 1_555 1_555
H32A C30A 1_555 1_555
C31A C28A 1_555 1_555
H33A C31A 1_555 1_555
H34A C31A 1_555 1_555
C32A C31A 1_555 1_555
C33A N4A 1_555 1_555
C34A C33A 1_555 1_555
H35A C34A 1_555 1_555
H36A C34A 1_555 1_555
H37A C34A 1_555 1_555
C35A O4A 1_555 1_555
C36A C35A 1_555 1_555
H38A C36A 1_555 1_555
H39A C36A 1_555 1_555
H40A C36A 1_555 1_555
C37A H41A 1_555 1_555
H42A C37A 1_555 1_555
H43A C37A 1_555 1_555
C38A C37A 1_555 1_555
C39A C38A 1_555 1_555
C40A O5A 1_555 1_555
C41A C40A 1_555 1_555
H44A C41A 1_555 1_555
H45A C41A 1_555 1_555
H46A C41A 1_555 1_555
C42A C39A 1_555 1_555
H47A C42A 1_555 1_555
H48A C42A 1_555 1_555
C43A C42A 1_555 1_555
C44A C45 1_555 1_555
H49A C44A 1_555 1_555
C45A C44 1_555 1_555
H50A C45A 1_555 1_555
C3 C4 1_555 1_555
C11 C12 1_555 1_555
C14 C15 1_555 1_555
C19 C20 1_555 1_555
C21 C22 1_555 1_555
C29 C30 1_555 1_555
C32 C35 1_555 1_555
C39 C40 1_555 1_555
C1A C2A 1_555 1_555
C3A C4A 1_555 1_555
C11A C12A 1_555 1_555
C14A C15A 1_555 1_555
C19A C20A 1_555 1_555
C21A C22A 1_555 1_555
C29A C30A 1_555 1_555
C32A C33A 1_555 1_555
C32A C35A 1_555 1_555
C39A C40A 1_555 1_555
C43A C44A 1_555 1_555
C43A C45A 1_555 1_555

#END
