
#######################################################################
#
#                 Cambridge Crystallographic Data Centre
#                                CCDC 
#
#######################################################################
#
# If this CIF has been generated from an entry in the Cambridge 
# Structural Database, then it will include bibliographic, chemical, 
# crystal, experimental, refinement or atomic coordinate data resulting 
# from the CCDC's data processing and validation procedures.
#
#######################################################################

data_ISASIF
_symmetry_cell_setting           monoclinic
_symmetry_space_group_name_H-M   'C 2/c'
_symmetry_Int_Tables_number      15
_space_group_name_Hall           '-C 2yn'
loop_
_symmetry_equiv_pos_site_id
_symmetry_equiv_pos_as_xyz
1 x,y,z
2 -x,y,1/2-z
3 1/2+x,1/2+y,z
4 1/2-x,1/2+y,1/2-z
5 -x,-y,-z
6 x,-y,1/2+z
7 1/2-x,1/2-y,-z
8 1/2+x,1/2-y,1/2+z
_cell_length_a                   21.6760(3)
_cell_length_b                   11.3410(1)
_cell_length_c                   15.7510(2)
_cell_angle_alpha                90
_cell_angle_beta                 93.566(1)
_cell_angle_gamma                90
_cell_volume                     3864.53
loop_
_atom_site_label
_atom_site_type_symbol
_atom_site_fract_x
_atom_site_fract_y
_atom_site_fract_z
S1 S 0.7607(3) 0.2423(6) 0.4394(5)
O3 O 0.8215(7) 0.261(3) 0.4439(16)
O4 O 0.7451(16) 0.137(2) 0.4189(15)
O5 O 0.7245(7) 0.312(2) 0.3927(13)
F1 F 0.8237(8) 0.291(2) 0.4504(13)
F2 F 0.7611(14) 0.125(2) 0.4235(15)
F3 F 0.7262(8) 0.3246(19) 0.4011(13)
C19 C 0.7338(15) 0.252(3) 0.5444(19)
S1F S 0.7393(3) 0.2577(6) 0.5606(5)
O3F O 0.6785(7) 0.239(3) 0.5561(16)
O4F O 0.7549(16) 0.363(2) 0.5811(15)
O5F O 0.7755(7) 0.188(2) 0.6073(13)
F1F F 0.6763(8) 0.209(2) 0.5496(13)
F2F F 0.7389(14) 0.375(2) 0.5765(15)
F3F F 0.7738(8) 0.1754(19) 0.5989(13)
C19F C 0.7662(15) 0.248(3) 0.4556(19)
Ag1 Ag 1.0000 0.42950(3) 1.2500
O1 O 0.93130(10) 0.53127(19) 1.40310(13)
O2 O 0.93220(10) 0.18359(19) 1.24272(14)
N1 N 0.98237(12) 0.5608(2) 1.35669(16)
N2 N 0.91704(12) 0.3034(2) 1.25326(16)
C1 C 1.07021(17) 0.6952(3) 1.3682(2)
H1 H 1.0814 0.6522 1.3174
H2 H 1.0621 0.7779 1.3535
H3 H 1.1043 0.6906 1.4119
C2 C 1.01373(15) 0.6415(3) 1.4012(2)
C3 C 0.98525(14) 0.6669(3) 1.47808(19)
C4 C 0.93464(14) 0.5979(3) 1.47549(19)
C5 C 0.88341(15) 0.5802(3) 1.5322(2)
H4 H 0.8559 0.6488 1.5284
H5 H 0.8601 0.5093 1.5146
H6 H 0.9003 0.5708 1.5909
C6 C 1.00853(17) 0.7503(3) 1.5467(2)
H7 H 0.9844 0.7382 1.5973
H8 H 1.0522 0.7309 1.5631
C7 C 1.00447(15) 0.8796(3) 1.52102(19)
C8 C 0.95164(16) 0.9253(3) 1.4798(2)
H9 H 0.9178 0.8744 1.4655
C9 C 1.05315(16) 0.9560(3) 1.5411(2)
H10 H 1.0900 0.9269 1.5694
C10 C 0.82541(15) 0.4274(3) 1.2423(2)
H11 H 0.8549 0.4860 1.2661
H12 H 0.8092 0.4531 1.1859
H13 H 0.7912 0.4192 1.2798
C11 C 0.85718(14) 0.3117(3) 1.23507(19)
C12 C 0.83121(15) 0.2005(3) 1.2114(2)
C13 C 0.87944(16) 0.1250(3) 1.2173(2)
C14 C 0.8880(2) -0.0035(3) 1.2029(3)
H14 H 0.8478 -0.0401 1.1880
H15 H 0.9153 -0.0152 1.1564
H16 H 0.9065 -0.0399 1.2549
C15 C 0.76566(16) 0.1773(4) 1.1786(2)
H17 H 0.7563 0.0922 1.1840
H18 H 0.7369 0.2218 1.2131
C16 C 0.75597(15) 0.2143(3) 1.0853(2)
C17 C 0.77980(16) 0.1459(3) 1.0224(2)
H19 H 0.8005 0.0742 1.0370
C18 C 0.72636(16) 0.3184(3) 1.0621(2)
H20 H 0.7100 0.3665 1.1047
Ag1D Ag 1.0000 1.57050(3) 1.7500
Ag1F Ag 0.5000 0.07050(3) 0.7500
O1D O 1.06870(10) 1.46873(19) 1.59690(13)
O2F O 0.56780(10) 0.31641(19) 0.75728(14)
N1D N 1.01763(12) 1.4392(2) 1.64331(16)
N1A N 1.01763(12) 0.5608(2) 1.14331(16)
N2F N 0.58296(12) 0.1966(2) 0.74674(16)
N2A N 1.08296(12) 0.3034(2) 1.24674(16)
C1D C 0.92979(17) 1.3048(3) 1.6318(2)
H1D H 0.9186 1.3478 1.6826
H2D H 0.9379 1.2221 1.6465
H3D H 0.8957 1.3094 1.5881
C2D C 0.98627(15) 1.3585(3) 1.5988(2)
C3D C 1.01475(14) 1.3331(3) 1.52192(19)
C4D C 1.06536(14) 1.4021(3) 1.52451(19)
C5D C 1.11659(15) 1.4198(3) 1.4678(2)
H4D H 1.1441 1.3512 1.4716
H5D H 1.1399 1.4907 1.4854
H6D H 1.0997 1.4292 1.4091
C6D C 0.99147(17) 1.2497(3) 1.4533(2)
H7D H 1.0156 1.2618 1.4027
H8D H 0.9478 1.2691 1.4369
C7D C 0.99553(15) 1.1204(3) 1.47898(19)
C8D C 1.04836(16) 1.0747(3) 1.5202(2)
H9D H 1.0822 1.1256 1.5345
C9D C 0.94685(16) 1.0440(3) 1.4589(2)
H10D H 0.9100 1.0731 1.4306
C10F C 0.67459(15) 0.0726(3) 0.7577(2)
H11F H 0.6451 0.0140 0.7339
H12F H 0.6908 0.0469 0.8141
H13F H 0.7088 0.0808 0.7202
C11F C 0.64282(14) 0.1883(3) 0.76493(19)
C12F C 0.66879(15) 0.2995(3) 0.7886(2)
C13F C 0.62056(16) 0.3750(3) 0.7827(2)
C14F C 0.6120(2) 0.5035(3) 0.7971(3)
H14F H 0.6522 0.5401 0.8120
H15F H 0.5847 0.5152 0.8436
H16F H 0.5935 0.5399 0.7451
C15F C 0.73434(16) 0.3227(4) 0.8214(2)
H17F H 0.7437 0.4078 0.8160
H18F H 0.7631 0.2782 0.7869
C16F C 0.74403(15) 0.2857(3) 0.9147(2)
C17F C 0.72020(16) 0.3541(3) 0.9776(2)
H19F H 0.6995 0.4258 0.9630
C18F C 0.77364(16) 0.1816(3) 0.9379(2)
H20F H 0.7900 0.1335 0.8953
loop_
_geom_bond_atom_site_label_1
_geom_bond_atom_site_label_2
_geom_bond_site_symmetry_1
_geom_bond_site_symmetry_2
Ag1 N1 1_555 1_555
S1 O3 1_555 1_555
O1 N1 1_555 1_555
O2 N2 1_555 1_555
O3 F1 1_555 1_555
O4 S1 1_555 1_555
O5 S1 1_555 1_555
N1 C2 1_555 1_555
N2 Ag1 1_555 1_555
C1 H1 1_555 1_555
H2 C1 1_555 1_555
H3 C1 1_555 1_555
C2 C1 1_555 1_555
C3 C2 1_555 1_555
C4 O1 1_555 1_555
C5 C4 1_555 1_555
H4 C5 1_555 1_555
H5 C5 1_555 1_555
H6 C5 1_555 1_555
C6 C3 1_555 1_555
H7 C6 1_555 1_555
H8 C6 1_555 1_555
C7 C6 1_555 1_555
C8 C7 1_555 1_555
H9 C8 1_555 1_555
C9 C7 1_555 1_555
H10 C9 1_555 1_555
C10 H11 1_555 1_555
H12 C10 1_555 1_555
H13 C10 1_555 1_555
C11 N2 1_555 1_555
C12 C11 1_555 1_555
C13 O2 1_555 1_555
C14 C13 1_555 1_555
H14 C14 1_555 1_555
H15 C14 1_555 1_555
H16 C14 1_555 1_555
C15 C12 1_555 1_555
H17 C15 1_555 1_555
H18 C15 1_555 1_555
C16 C15 1_555 1_555
C17 C16 1_555 1_555
H19 C17 1_555 1_555
C18 C16 1_555 1_555
H20 C18 1_555 1_555
F1 S1 1_555 1_555
F2 S1 1_555 1_555
F3 S1 1_555 1_555
C19 S1 1_555 1_555
Ag1D N1D 1_555 1_555
Ag1F N2F 1_555 1_555
S1F S1 1_555 1_555
O1D N1D 1_555 1_555
O2F N2F 1_555 1_555
O3F C19 1_555 1_555
O4F C19 1_555 1_555
O5F C19 1_555 1_555
N1D C2D 1_555 1_555
N1A Ag1 1_555 1_555
N2F C11F 1_555 1_555
N2A Ag1 1_555 1_555
C1D H1D 1_555 1_555
H2D C1D 1_555 1_555
H3D C1D 1_555 1_555
C2D C1D 1_555 1_555
C3D C2D 1_555 1_555
C4D O1D 1_555 1_555
C5D C4D 1_555 1_555
H4D C5D 1_555 1_555
H5D C5D 1_555 1_555
H6D C5D 1_555 1_555
C6D C3D 1_555 1_555
H7D C6D 1_555 1_555
H8D C6D 1_555 1_555
C7D C6D 1_555 1_555
C8D C9 1_555 1_555
H9D C8D 1_555 1_555
C9D C8 1_555 1_555
H10D C9D 1_555 1_555
C10F H11F 1_555 1_555
H12F C10F 1_555 1_555
H13F C10F 1_555 1_555
C11F C10F 1_555 1_555
C12F C11F 1_555 1_555
C13F O2F 1_555 1_555
C14F C13F 1_555 1_555
H14F C14F 1_555 1_555
H15F C14F 1_555 1_555
H16F C14F 1_555 1_555
C15F C12F 1_555 1_555
H17F C15F 1_555 1_555
H18F C15F 1_555 1_555
C16F C15F 1_555 1_555
C17F C18 1_555 1_555
H19F C17F 1_555 1_555
C18F C17 1_555 1_555
H20F C18F 1_555 1_555
F1F C19 1_555 1_555
F2F C19 1_555 1_555
F3F C19 1_555 1_555
C19F S1 1_555 1_555
O3 C19F 1_555 1_555
O4 F2 1_555 1_555
O4 C19F 1_555 1_555
O5 F3 1_555 1_555
O5 C19F 1_555 1_555
C3 C4 1_555 1_555
C10 C11 1_555 1_555
C12 C13 1_555 1_555
F1 C19F 1_555 1_555
F2 C19F 1_555 1_555
F3 C19F 1_555 1_555
C19 S1F 1_555 1_555
C19 C19F 1_555 1_555
S1F O3F 1_555 1_555
S1F O4F 1_555 1_555
S1F O5F 1_555 1_555
S1F F1F 1_555 1_555
S1F F2F 1_555 1_555
S1F F3F 1_555 1_555
S1F C19F 1_555 1_555
O3F F1F 1_555 1_555
O4F F2F 1_555 1_555
O5F F3F 1_555 1_555
C3D C4D 1_555 1_555
C7D C8D 1_555 1_555
C7D C9D 1_555 1_555
C12F C13F 1_555 1_555
C16F C17F 1_555 1_555
C16F C18F 1_555 1_555

#END
