
#######################################################################
#
#                 Cambridge Crystallographic Data Centre
#                                CCDC 
#
#######################################################################
#
# If this CIF has been generated from an entry in the Cambridge 
# Structural Database, then it will include bibliographic, chemical, 
# crystal, experimental, refinement or atomic coordinate data resulting 
# from the CCDC's data processing and validation procedures.
#
#######################################################################

data_ISASEB
_symmetry_cell_setting           monoclinic
_symmetry_space_group_name_H-M   'C 2/c'
_symmetry_Int_Tables_number      15
_space_group_name_Hall           '-C 2yn'
loop_
_symmetry_equiv_pos_site_id
_symmetry_equiv_pos_as_xyz
1 x,y,z
2 -x,y,1/2-z
3 1/2+x,1/2+y,z
4 1/2-x,1/2+y,1/2-z
5 -x,-y,-z
6 x,-y,1/2+z
7 1/2-x,1/2-y,-z
8 1/2+x,1/2-y,1/2+z
_cell_length_a                   21.7220(3)
_cell_length_b                   11.4650(2)
_cell_length_c                   15.4820(2)
_cell_angle_alpha                90
_cell_angle_beta                 92.394(1)
_cell_angle_gamma                90
_cell_volume                     3852.31
loop_
_atom_site_label
_atom_site_type_symbol
_atom_site_fract_x
_atom_site_fract_y
_atom_site_fract_z
Sb1 Sb 1.2500 0.2500 0.5000
F1 F 1.21540(9) 0.34666(17) 0.41441(12)
F2 F 1.23964(12) 0.12582(17) 0.42432(14)
F3 F 1.32755(8) 0.2800(2) 0.45959(14)
F1F F 1.28460(9) 0.15334(17) 0.58559(12)
F2F F 1.26036(12) 0.37418(17) 0.57568(14)
F3F F 1.17245(8) 0.2200(2) 0.54041(14)
Ag1 Ag 1.5000 0.421228(15) 0.2500
O1 O 1.43275(6) 0.18038(11) 0.24139(9)
O2 O 1.43138(6) 0.53152(11) 0.40520(8)
N1 N 1.41654(7) 0.29714(13) 0.25559(10)
N2 N 1.48223(8) 0.55790(13) 0.35550(10)
C1 C 1.51347(9) 0.63908(15) 0.39727(12)
C2 C 1.48572(8) 0.66818(14) 0.47575(11)
C3 C 1.43502(8) 0.59976(15) 0.47685(11)
C4 C 1.56993(11) 0.68972(19) 0.36065(14)
H1 H 1.5797 0.6473 0.3080
H2 H 1.6045 0.6831 0.4032
H3 H 1.5627 0.7721 0.3467
C5 C 1.38418(9) 0.58545(18) 0.53677(13)
H4 H 1.4012 0.5810 0.5963
H5 H 1.3615 0.5136 0.5226
H6 H 1.3562 0.6523 0.5311
C6 C 1.50988(10) 0.75178(14) 0.54372(12)
H7 H 1.5537 0.7332 0.5575
H8 H 1.4870 0.7393 0.5969
C7 C 1.50502(8) 0.88001(14) 0.51886(11)
C8 C 1.55168(9) 0.95730(16) 0.54453(13)
H9 H 1.5875 0.9289 0.5750
C9 C 1.45360(9) 0.92460(15) 0.47394(13)
H10 H 1.4214 0.8732 0.4555
C10 C 1.35727(8) 0.30459(15) 0.23872(11)
C11 C 1.33225(9) 0.19494(16) 0.21170(12)
C12 C 1.38128(9) 0.12184(16) 0.21533(12)
C13 C 1.32416(10) 0.41694(17) 0.24988(13)
H11 H 1.3529 0.4755 0.2739
H12 H 1.2906 0.4056 0.2894
H13 H 1.3072 0.4437 0.1937
C14 C 1.39054(12) -0.00460(18) 0.19793(17)
H14 H 1.4192 -0.0138 0.1511
H15 H 1.3509 -0.0405 0.1810
H16 H 1.4077 -0.0427 0.2503
C15 C 1.26748(9) 0.1707(2) 0.17924(14)
H17 H 1.2383 0.2114 0.2164
H18 H 1.2593 0.0859 0.1829
C16 C 1.25686(9) 0.21093(17) 0.08631(13)
C17 C 1.22503(9) 0.31368(18) 0.06563(14)
H19 H 1.2076 0.3581 0.1104
C18 C 1.28157(9) 0.14812(17) 0.01917(14)
H20 H 1.3034 0.0779 0.0317
Ag1D Ag 1.5000 1.578772(15) 0.7500
Ag1F Ag 1.0000 0.078772(15) -0.2500
O1F O 1.06725(6) 0.31962(11) -0.24139(9)
O2D O 1.56862(6) 1.46848(11) 0.59480(8)
N1F N 1.08346(7) 0.20286(13) -0.25559(10)
N1A N 1.58346(7) 0.29714(13) 0.24441(10)
N2D N 1.51777(8) 1.44210(13) 0.64450(10)
N2A N 1.51777(8) 0.55790(13) 0.14450(10)
C1D C 1.48653(9) 1.36092(15) 0.60273(12)
C2D C 1.51428(8) 1.33182(14) 0.52425(11)
C3D C 1.56498(8) 1.40024(15) 0.52315(11)
C4D C 1.43007(11) 1.31028(19) 0.63935(14)
H1D H 1.4203 1.3527 0.6920
H2D H 1.3955 1.3169 0.5968
H3D H 1.4373 1.2279 0.6533
C5D C 1.61582(9) 1.41455(18) 0.46323(13)
H4D H 1.5988 1.4190 0.4037
H5D H 1.6385 1.4864 0.4774
H6D H 1.6438 1.3477 0.4689
C6D C 1.49012(10) 1.24822(14) 0.45628(12)
H7D H 1.4463 1.2668 0.4425
H8D H 1.5130 1.2607 0.4031
C7D C 1.49498(8) 1.11999(14) 0.48114(11)
C8D C 1.44832(9) 1.04270(16) 0.45547(13)
H9D H 1.4125 1.0711 0.4250
C9D C 1.54640(9) 1.07540(15) 0.52606(13)
H10D H 1.5786 1.1268 0.5445
C10F C 1.14273(8) 0.19541(15) -0.23872(11)
C11F C 1.16775(9) 0.30506(16) -0.21170(12)
C12F C 1.11872(9) 0.37816(16) -0.21533(12)
C13F C 1.17584(10) 0.08306(17) -0.24988(13)
H11F H 1.1471 0.0245 -0.2739
H12F H 1.2094 0.0944 -0.2894
H13F H 1.1928 0.0563 -0.1937
C14F C 1.10946(12) 0.50460(18) -0.19793(17)
H14F H 1.0808 0.5138 -0.1511
H15F H 1.1491 0.5405 -0.1810
H16F H 1.0923 0.5427 -0.2503
C15F C 1.23252(9) 0.3293(2) -0.17924(14)
H17F H 1.2617 0.2886 -0.2164
H18F H 1.2407 0.4141 -0.1829
C16F C 1.24314(9) 0.28907(17) -0.08631(13)
C17F C 1.27497(9) 0.18632(18) -0.06563(14)
H19F H 1.2924 0.1419 -0.1104
C18F C 1.21843(9) 0.35188(17) -0.01917(14)
H20F H 1.1966 0.4221 -0.0317
loop_
_geom_bond_atom_site_label_1
_geom_bond_atom_site_label_2
_geom_bond_site_symmetry_1
_geom_bond_site_symmetry_2
Sb1 F1 1_555 1_555
Ag1 N1 1_555 1_555
F2 Sb1 1_555 1_555
F3 Sb1 1_555 1_555
O1 N1 1_555 1_555
O2 N2 1_555 1_555
N1 C10 1_555 1_555
N2 Ag1 1_555 1_555
C1 N2 1_555 1_555
C2 C1 1_555 1_555
C3 O2 1_555 1_555
C4 C1 1_555 1_555
H1 C4 1_555 1_555
H2 C4 1_555 1_555
H3 C4 1_555 1_555
C5 C3 1_555 1_555
H4 C5 1_555 1_555
H5 C5 1_555 1_555
H6 C5 1_555 1_555
C6 C2 1_555 1_555
H7 C6 1_555 1_555
H8 C6 1_555 1_555
C7 C6 1_555 1_555
C8 C7 1_555 1_555
H9 C8 1_555 1_555
C9 C7 1_555 1_555
H10 C9 1_555 1_555
C10 C11 1_555 1_555
C11 C12 1_555 1_555
C12 O1 1_555 1_555
C13 C10 1_555 1_555
H11 C13 1_555 1_555
H12 C13 1_555 1_555
H13 C13 1_555 1_555
C14 C12 1_555 1_555
H14 C14 1_555 1_555
H15 C14 1_555 1_555
H16 C14 1_555 1_555
C15 C11 1_555 1_555
H17 C15 1_555 1_555
H18 C15 1_555 1_555
C16 C15 1_555 1_555
C17 C16 1_555 1_555
H19 C17 1_555 1_555
C18 C16 1_555 1_555
H20 C18 1_555 1_555
Ag1D N2D 1_555 1_555
Ag1F N1F 1_555 1_555
F1F Sb1 1_555 1_555
F2F Sb1 1_555 1_555
F3F Sb1 1_555 1_555
O1F N1F 1_555 1_555
O2D N2D 1_555 1_555
N1F C10F 1_555 1_555
N1A Ag1 1_555 1_555
N2D C1D 1_555 1_555
N2A Ag1 1_555 1_555
C1D C2D 1_555 1_555
C2D C3D 1_555 1_555
C3D O2D 1_555 1_555
C4D C1D 1_555 1_555
H1D C4D 1_555 1_555
H2D C4D 1_555 1_555
H3D C4D 1_555 1_555
C5D C3D 1_555 1_555
H4D C5D 1_555 1_555
H5D C5D 1_555 1_555
H6D C5D 1_555 1_555
C6D C2D 1_555 1_555
H7D C6D 1_555 1_555
H8D C6D 1_555 1_555
C7D C6D 1_555 1_555
C8D C9 1_555 1_555
H9D C8D 1_555 1_555
C9D C8 1_555 1_555
H10D C9D 1_555 1_555
C10F C11F 1_555 1_555
C11F C12F 1_555 1_555
C12F O1F 1_555 1_555
C13F C10F 1_555 1_555
H11F C13F 1_555 1_555
H12F C13F 1_555 1_555
H13F C13F 1_555 1_555
C14F C12F 1_555 1_555
H14F C14F 1_555 1_555
H15F C14F 1_555 1_555
H16F C14F 1_555 1_555
C15F C11F 1_555 1_555
H17F C15F 1_555 1_555
H18F C15F 1_555 1_555
C16F C15F 1_555 1_555
C17F C18 1_555 1_555
H19F C17F 1_555 1_555
C18F C17 1_555 1_555
H20F C18F 1_555 1_555
C2 C3 1_555 1_555
C7D C8D 1_555 1_555
C7D C9D 1_555 1_555
C16F C17F 1_555 1_555
C16F C18F 1_555 1_555

#END
