
#######################################################################
#
#                 Cambridge Crystallographic Data Centre
#                                CCDC 
#
#######################################################################
#
# If this CIF has been generated from an entry in the Cambridge 
# Structural Database, then it will include bibliographic, chemical, 
# crystal, experimental, refinement or atomic coordinate data resulting 
# from the CCDC's data processing and validation procedures.
#
#######################################################################

data_ISATUS
_symmetry_cell_setting           triclinic
_symmetry_space_group_name_H-M   'P -1'
_symmetry_Int_Tables_number      2
_space_group_name_Hall           '-P 1'
loop_
_symmetry_equiv_pos_site_id
_symmetry_equiv_pos_as_xyz
1 x,y,z
2 -x,-y,-z
_cell_length_a                   8.8247(12)
_cell_length_b                   12.9673(18)
_cell_length_c                   13.0197(18)
_cell_angle_alpha                95.747(2)
_cell_angle_beta                 99.101(2)
_cell_angle_gamma                98.902(2)
_cell_volume                     1441.49
loop_
_atom_site_label
_atom_site_type_symbol
_atom_site_fract_x
_atom_site_fract_y
_atom_site_fract_z
Br1 Br 0.61390(9) 0.48874(6) 1.27101(5)
Br2 Br 0.19318(9) 0.32231(6) 1.41557(6)
C1 C 0.7988(8) 0.3911(5) 0.5109(5)
H1 H 0.8237 0.4191 0.4498
C2 C 0.9202(8) 0.3855(5) 0.5910(5)
H2 H 1.0254 0.4089 0.5847
C3 C 0.8845(8) 0.3451(5) 0.6802(5)
C4 C 0.7297(8) 0.3125(5) 0.6856(5)
H3 H 0.7020 0.2843 0.7460
C5 C 0.6145(8) 0.3211(5) 0.6023(5)
H4 H 0.5083 0.2993 0.6071
C6 C 1.0121(8) 0.3385(5) 0.7714(5)
H5 H 1.1153 0.3602 0.7519
H6 H 1.0036 0.3875 0.8328
C7 C 1.0503(7) 0.1601(5) 0.7363(5)
C8 C 1.1326(8) 0.1814(5) 0.6571(5)
H7 H 1.1594 0.2519 0.6435
C9 C 1.1770(8) 0.0997(6) 0.5968(5)
H8 H 1.2334 0.1158 0.5424
C10 C 1.1410(8) -0.0035(5) 0.6143(5)
C11 C 1.0602(8) -0.0249(5) 0.6948(5)
H9 H 1.0353 -0.0956 0.7084
C12 C 1.0141(7) 0.0555(5) 0.7568(5)
C13 C 1.1906(9) -0.0914(6) 0.5480(5)
H10 H 1.1759 -0.0784 0.4745
H11 H 1.1272 -0.1589 0.5540
H12 H 1.3008 -0.0935 0.5728
C14 C 0.9285(7) 0.0294(5) 0.8402(5)
C15 C 0.8123(7) -0.0756(5) 0.9320(5)
C16 C 0.7549(7) -0.1783(5) 0.9633(5)
C17 C 0.7998(8) -0.2679(5) 0.9122(5)
H13 H 0.8615 -0.2598 0.8591
C18 C 0.7538(8) -0.3678(5) 0.9398(5)
C19 C 0.6653(8) -0.3766(5) 1.0173(5)
H14 H 0.6350 -0.4443 1.0371
C20 C 0.6183(8) -0.2910(5) 1.0677(5)
H15 H 0.5549 -0.3003 1.1198
C21 C 0.6657(7) -0.1901(5) 1.0408(5)
C22 C 0.8045(10) -0.4619(5) 0.8859(6)
H16 H 0.8021 -0.4543 0.8115
H17 H 0.7337 -0.5261 0.8923
H18 H 0.9108 -0.4664 0.9188
C23 C 0.5319(7) -0.1107(5) 1.1651(5)
H19 H 0.5827 -0.1463 1.2215
H20 H 0.4281 -0.1532 1.1356
C24 C 0.5150(7) -0.0023(5) 1.2083(5)
C25 C 0.5905(8) 0.0879(5) 1.1772(5)
H21 H 0.6549 0.0832 1.1256
C26 C 0.5710(8) 0.1842(5) 1.2219(5)
H22 H 0.6238 0.2458 1.2005
C27 C 0.4076(8) 0.1086(5) 1.3251(5)
H23 H 0.3429 0.1154 1.3763
C28 C 0.4232(8) 0.0091(5) 1.2846(5)
H24 H 0.3715 -0.0512 1.3088
Hg1 Hg 0.45331(3) 0.368829(18) 1.365854(17)
N1 N 0.8778(6) 0.0868(4) 0.9089(4)
N2 N 0.8016(6) 0.0181(4) 0.9699(4)
N3 N 0.4796(6) 0.1952(4) 1.2951(4)
N4 N 0.6492(6) 0.3594(4) 0.5151(4)
O1 O 0.8910(5) -0.0755(3) 0.8503(3)
O2 O 0.6245(6) -0.1009(3) 1.0854(3)
O3 O 0.9998(5) 0.2333(3) 0.7987(3)
Hg1_2 Hg 0.45331(3) 0.368829(18) 0.365854(17)
N4_2 N 0.6492(6) 0.3594(4) 1.5151(4)
C29 C 0.7860(10) 0.3041(6) 1.0472(6)
H25 H 0.8834 0.3188 1.0983
H26 H 0.7245 0.2373 1.0571
H27 H 0.7263 0.3609 1.0576
O4 O 0.8198(7) 0.2975(4) 0.9458(4)
H28 H 0.8495 0.2401 0.9314
loop_
_geom_bond_atom_site_label_1
_geom_bond_atom_site_label_2
_geom_bond_site_symmetry_1
_geom_bond_site_symmetry_2
Br1 Hg1 1_555 1_555
Br2 Hg1 1_555 1_555
C1 H1 1_555 1_555
C2 C1 1_555 1_555
H2 C2 1_555 1_555
C3 C2 1_555 1_555
C4 C3 1_555 1_555
H3 C4 1_555 1_555
C5 C4 1_555 1_555
H4 C5 1_555 1_555
C6 C3 1_555 1_555
H5 C6 1_555 1_555
H6 C6 1_555 1_555
C7 C8 1_555 1_555
C8 H7 1_555 1_555
C9 C8 1_555 1_555
H8 C9 1_555 1_555
C10 C9 1_555 1_555
C11 C10 1_555 1_555
H9 C11 1_555 1_555
C12 C7 1_555 1_555
C13 C10 1_555 1_555
H10 C13 1_555 1_555
H11 C13 1_555 1_555
H12 C13 1_555 1_555
C14 C12 1_555 1_555
C15 C16 1_555 1_555
C16 C17 1_555 1_555
C17 H13 1_555 1_555
C18 C17 1_555 1_555
C19 C18 1_555 1_555
H14 C19 1_555 1_555
C20 C19 1_555 1_555
H15 C20 1_555 1_555
C21 C16 1_555 1_555
C22 C18 1_555 1_555
H16 C22 1_555 1_555
H17 C22 1_555 1_555
H18 C22 1_555 1_555
C23 H19 1_555 1_555
H20 C23 1_555 1_555
C24 C23 1_555 1_555
C25 C24 1_555 1_555
H21 C25 1_555 1_555
C26 C25 1_555 1_555
H22 C26 1_555 1_555
C27 H23 1_555 1_555
C28 C24 1_555 1_555
H24 C28 1_555 1_555
C29 H25 1_555 1_555
H26 C29 1_555 1_555
H27 C29 1_555 1_555
Hg1 N3 1_555 1_555
N1 C14 1_555 1_555
N2 C15 1_555 1_555
N3 C26 1_555 1_555
N4 C1 1_555 1_555
O1 C14 1_555 1_555
O2 C21 1_555 1_555
O3 C6 1_555 1_555
O4 C29 1_555 1_555
H28 O4 1_555 1_555
Hg1_2 N4 1_555 1_555
N4_2 Hg1 1_555 1_555
C5 N4 1_555 1_555
C7 O3 1_555 1_555
C11 C12 1_555 1_555
C15 O1 1_555 1_555
C20 C21 1_555 1_555
C23 O2 1_555 1_555
C27 C28 1_555 1_555
C27 N3 1_555 1_555
N1 N2 1_555 1_555

#END
