
#######################################################################
#
#                 Cambridge Crystallographic Data Centre
#                                CCDC 
#
#######################################################################
#
# If this CIF has been generated from an entry in the Cambridge 
# Structural Database, then it will include bibliographic, chemical, 
# crystal, experimental, refinement or atomic coordinate data resulting 
# from the CCDC's data processing and validation procedures.
#
#######################################################################

data_ISATOM
_symmetry_cell_setting           triclinic
_symmetry_space_group_name_H-M   'P -1'
_symmetry_Int_Tables_number      2
_space_group_name_Hall           '-P 1'
loop_
_symmetry_equiv_pos_site_id
_symmetry_equiv_pos_as_xyz
1 x,y,z
2 -x,-y,-z
_cell_length_a                   8.8422(18)
_cell_length_b                   12.927(3)
_cell_length_c                   13.066(3)
_cell_angle_alpha                95.232(3)
_cell_angle_beta                 97.758(3)
_cell_angle_gamma                99.318(3)
_cell_volume                     1450.5
loop_
_atom_site_label
_atom_site_type_symbol
_atom_site_fract_x
_atom_site_fract_y
_atom_site_fract_z
Cl1 Cl 0.6190(3) 0.48310(19) 1.27556(18)
Cl2 Cl 0.2212(3) 0.3264(2) 1.4246(2)
C1 C 0.8050(9) 0.3897(6) 0.5070(6)
H1 H 0.8302 0.4151 0.4460
C2 C 0.9242(9) 0.3840(6) 0.5850(6)
H2 H 1.0269 0.4051 0.5764
C3 C 0.8890(8) 0.3467(5) 0.6758(5)
C4 C 0.7354(9) 0.3175(6) 0.6840(6)
H3 H 0.7072 0.2919 0.7442
C5 C 0.6227(9) 0.3262(6) 0.6028(6)
H4 H 0.5191 0.3070 0.6103
C6 C 1.0139(8) 0.3402(5) 0.7644(5)
H5 H 1.1147 0.3619 0.7439
H6 H 1.0050 0.3884 0.8238
C7 C 1.0527(7) 0.1606(5) 0.7323(5)
C8 C 1.1368(8) 0.1814(6) 0.6529(5)
H7 H 1.1638 0.2507 0.6387
C9 C 1.1815(8) 0.1002(7) 0.5940(6)
H8 H 1.2381 0.1157 0.5406
C10 C 1.1435(8) -0.0032(6) 0.6132(5)
C11 C 1.0616(7) -0.0231(5) 0.6934(5)
H9 H 1.0362 -0.0924 0.7079
C12 C 1.0149(7) 0.0571(5) 0.7543(5)
C13 C 1.1914(10) -0.0912(8) 0.5480(6)
H10 H 1.1975 -0.0720 0.4792
H11 H 1.1162 -0.1545 0.5442
H12 H 1.2909 -0.1031 0.5790
C14 C 0.9278(7) 0.0299(5) 0.8381(5)
C15 C 0.8112(7) -0.0738(5) 0.9317(5)
C16 C 0.7548(7) -0.1765(4) 0.9635(5)
C17 C 0.7914(8) -0.2667(5) 0.9125(5)
H13 H 0.8507 -0.2592 0.8592
C18 C 0.7429(10) -0.3665(6) 0.9384(6)
C19 C 0.6591(9) -0.3760(5) 1.0198(6)
H14 H 0.6293 -0.4423 1.0405
C20 C 0.6187(9) -0.2886(5) 1.0710(6)
H15 H 0.5592 -0.2968 1.1241
C21 C 0.6670(8) -0.1880(5) 1.0431(5)
C22 C 0.7850(12) -0.4623(6) 0.8817(7)
H16 H 0.7820 -0.4535 0.8094
H17 H 0.7122 -0.5239 0.8891
H18 H 0.8875 -0.4704 0.9108
C23 C 0.5339(8) -0.1077(5) 1.1671(5)
H19 H 0.5789 -0.1440 1.2222
H20 H 0.4329 -0.1484 1.1375
C24 C 0.5170(7) 0.0000(5) 1.2102(5)
C25 C 0.5910(8) 0.0889(5) 1.1761(5)
H21 H 0.6532 0.0836 1.1245
C26 C 0.5719(8) 0.1866(6) 1.2196(5)
H22 H 0.6233 0.2467 1.1965
C27 C 0.4098(8) 0.1113(6) 1.3247(5)
H23 H 0.3455 0.1179 1.3748
C28 C 0.4257(8) 0.0122(6) 1.2861(5)
H24 H 0.3749 -0.0467 1.3112
Hg1 Hg 0.46076(3) 0.37308(2) 1.36711(2)
N1 N 0.8781(6) 0.0882(4) 0.9074(4)
N2 N 0.8021(6) 0.0210(4) 0.9694(4)
N3 N 0.4828(6) 0.1989(5) 1.2933(4)
N4 N 0.6559(7) 0.3609(5) 0.5146(4)
O1 O 0.8918(5) -0.0737(3) 0.8499(3)
O2 O 0.6302(6) -0.0988(4) 1.0899(4)
O3 O 1.0028(5) 0.2354(3) 0.7935(3)
Hg1_2 Hg 0.46076(3) 0.37308(2) 0.36711(2)
N4_2 N 0.6559(7) 0.3609(5) 1.5146(4)
C29 C 0.7942(12) 0.3096(8) 1.0448(7)
H25 H 0.8915 0.3236 1.0906
H26 H 0.7332 0.2456 1.0591
H27 H 0.7395 0.3671 1.0554
O4 O 0.8205(10) 0.2989(5) 0.9445(5)
H28 H 0.8378 0.2394 0.9294
loop_
_geom_bond_atom_site_label_1
_geom_bond_atom_site_label_2
_geom_bond_site_symmetry_1
_geom_bond_site_symmetry_2
Cl1 Hg1 1_555 1_555
Cl2 Hg1 1_555 1_555
C1 H1 1_555 1_555
C2 C1 1_555 1_555
H2 C2 1_555 1_555
C3 C2 1_555 1_555
C4 C3 1_555 1_555
H3 C4 1_555 1_555
C5 C4 1_555 1_555
H4 C5 1_555 1_555
C6 C3 1_555 1_555
H5 C6 1_555 1_555
H6 C6 1_555 1_555
C7 C8 1_555 1_555
C8 H7 1_555 1_555
C9 C8 1_555 1_555
H8 C9 1_555 1_555
C10 C9 1_555 1_555
C11 C10 1_555 1_555
H9 C11 1_555 1_555
C12 C7 1_555 1_555
C13 C10 1_555 1_555
H10 C13 1_555 1_555
H11 C13 1_555 1_555
H12 C13 1_555 1_555
C14 C12 1_555 1_555
C15 C16 1_555 1_555
C16 C17 1_555 1_555
C17 H13 1_555 1_555
C18 C17 1_555 1_555
C19 C18 1_555 1_555
H14 C19 1_555 1_555
C20 C19 1_555 1_555
H15 C20 1_555 1_555
C21 C16 1_555 1_555
C22 C18 1_555 1_555
H16 C22 1_555 1_555
H17 C22 1_555 1_555
H18 C22 1_555 1_555
C23 H19 1_555 1_555
H20 C23 1_555 1_555
C24 C23 1_555 1_555
C25 C24 1_555 1_555
H21 C25 1_555 1_555
C26 C25 1_555 1_555
H22 C26 1_555 1_555
C27 H23 1_555 1_555
C28 C24 1_555 1_555
H24 C28 1_555 1_555
C29 H25 1_555 1_555
H26 C29 1_555 1_555
H27 C29 1_555 1_555
Hg1 N3 1_555 1_555
N1 C14 1_555 1_555
N2 C15 1_555 1_555
N3 C26 1_555 1_555
N4 C1 1_555 1_555
O1 C14 1_555 1_555
O2 C21 1_555 1_555
O3 C6 1_555 1_555
O4 C29 1_555 1_555
H28 O4 1_555 1_555
Hg1_2 N4 1_555 1_555
N4_2 Hg1 1_555 1_555
C5 N4 1_555 1_555
C7 O3 1_555 1_555
C11 C12 1_555 1_555
C15 O1 1_555 1_555
C20 C21 1_555 1_555
C23 O2 1_555 1_555
C27 C28 1_555 1_555
C27 N3 1_555 1_555
N1 N2 1_555 1_555

#END
