
#######################################################################
#
#                 Cambridge Crystallographic Data Centre
#                                CCDC 
#
#######################################################################
#
# If this CIF has been generated from an entry in the Cambridge 
# Structural Database, then it will include bibliographic, chemical, 
# crystal, experimental, refinement or atomic coordinate data resulting 
# from the CCDC's data processing and validation procedures.
#
#######################################################################

data_ISAVUT
_symmetry_cell_setting           triclinic
_symmetry_space_group_name_H-M   'P -1'
_symmetry_Int_Tables_number      2
_space_group_name_Hall           '-P 1'
loop_
_symmetry_equiv_pos_site_id
_symmetry_equiv_pos_as_xyz
1 x,y,z
2 -x,-y,-z
_cell_length_a                   10.8206(9)
_cell_length_b                   14.0331(12)
_cell_length_c                   15.0901(12)
_cell_angle_alpha                113.965(2)
_cell_angle_beta                 100.250(2)
_cell_angle_gamma                90.462(2)
_cell_volume                     2052.19
loop_
_atom_site_label
_atom_site_type_symbol
_atom_site_fract_x
_atom_site_fract_y
_atom_site_fract_z
Rh1 Rh 0.53311(2) 1.08346(2) 0.50281(2)
Rh2 Rh 0.90150(2) 0.49729(2) 0.025809(19)
C1 C 0.5249(4) 1.3236(3) 0.5790(3)
H1 H 0.4599 1.3028 0.6018
C2 C 0.5527(5) 1.4292(3) 0.6066(4)
H2 H 0.5079 1.4782 0.6482
C3 C 0.6461(6) 1.4608(3) 0.5727(4)
H3 H 0.6656 1.5316 0.5900
C4 C 0.7117(5) 1.3859(3) 0.5119(4)
H4 H 0.7766 1.4054 0.4880
C5 C 0.6792(4) 1.2818(3) 0.4874(3)
C6 C 0.7434(4) 1.2013(3) 0.4218(3)
C7 C 0.7927(4) 1.1337(3) 0.3677(3)
C8 C 0.8381(4) 1.0418(3) 0.2988(3)
C9 C 0.7809(4) 0.9445(3) 0.2802(3)
H5 H 0.7188 0.9405 0.3143
C10 C 0.8158(4) 0.8531(3) 0.2107(3)
C11 C 0.9114(4) 0.8609(3) 0.1631(3)
H6 H 0.9377 0.8002 0.1186
C12 C 0.9688(4) 0.9575(3) 0.1807(3)
C13 C 0.9322(4) 1.0488(3) 0.2492(3)
H7 H 0.9704 1.1138 0.2617
C14 C 0.7526(4) 0.7525(3) 0.1858(3)
C15 C 0.7043(4) 0.6662(3) 0.1584(3)
C16 C 0.6478(3) 0.5617(3) 0.1240(3)
C17 C 0.5301(4) 0.5428(4) 0.1413(3)
H8 H 0.4869 0.5984 0.1764
C18 C 0.4778(4) 0.4420(4) 0.1063(3)
H9 H 0.3986 0.4279 0.1163
C19 C 0.5448(4) 0.3628(3) 0.0565(3)
H10 H 0.5125 0.2935 0.0332
C20 C 0.6605(4) 0.3860(3) 0.0408(3)
H11 H 0.7045 0.3308 0.0060
C21 C 1.0622(4) 0.9620(3) 0.1249(3)
C22 C 1.1337(4) 0.9594(4) 0.0730(3)
C23 C 1.2156(4) 0.9517(4) 0.0061(3)
C24 C 1.2289(4) 0.8551(4) -0.0678(4)
H12 H 1.1850 0.7948 -0.0738
C25 C 1.3064(5) 0.8492(4) -0.1311(4)
H13 H 1.3160 0.7851 -0.1809
C26 C 1.3702(5) 0.9387(5) -0.1208(4)
H14 H 1.4236 0.9367 -0.1633
C27 C 1.3534(5) 1.0323(4) -0.0456(4)
H15 H 1.3967 1.0930 -0.0390
C28 C 0.7321(4) 0.9492(3) 0.5116(3)
C29 C 0.8654(4) 0.9201(4) 0.5186(4)
H16 H 0.8911 0.9053 0.4570
H17 H 0.8708 0.8593 0.5327
H18 H 0.9197 0.9773 0.5706
C30 C 0.4564(3) 0.9181(3) 0.3062(3)
C31 C 0.4256(4) 0.8720(3) 0.1949(3)
H19 H 0.4912 0.8952 0.1710
H20 H 0.3469 0.8945 0.1732
H21 H 0.4191 0.7970 0.1695
C32 C 0.9220(4) 0.6359(3) -0.0709(3)
C33 C 0.8734(4) 0.7096(4) -0.1161(4)
H22 H 0.7944 0.6797 -0.1608
H23 H 0.9333 0.7209 -0.1515
H24 H 0.8617 0.7752 -0.0647
C34 C 0.9014(4) 0.3544(3) -0.1742(3)
C35 C 0.8461(4) 0.2721(4) -0.2758(3)
H25 H 0.9032 0.2658 -0.3194
H26 H 0.7670 0.2918 -0.3005
H27 H 0.8328 0.2061 -0.2722
N1 N 0.5878(3) 1.2499(2) 0.5206(2)
N2 N 0.7130(3) 0.4830(2) 0.0725(2)
N3 N 1.2782(4) 1.0403(3) 0.0182(3)
O1 O 0.7128(2) 1.0381(2) 0.51316(19)
O2 O 0.6491(2) 0.88200(19) 0.5058(2)
O3 O 0.4986(2) 1.01432(19) 0.35080(17)
O4 O 0.4413(2) 0.85775(18) 0.34715(17)
O5 O 0.8481(2) 0.60425(19) -0.03074(18)
O6 O 1.0335(2) 0.61111(19) -0.07649(18)
O7 O 0.8311(2) 0.3816(2) -0.11080(18)
O8 O 1.0142(2) 0.38907(19) -0.15980(17)
Rh1A Rh 0.46689(2) 0.91654(2) 0.49719(2)
O2A O 0.3509(2) 1.11800(19) 0.4942(2)
O4A O 0.5587(2) 1.14225(18) 0.65285(17)
Rh2A Rh 1.09850(2) 0.50271(2) -0.025809(19)
O6A O 0.9665(2) 0.38889(19) 0.07649(18)
O8A O 0.9858(2) 0.61093(19) 0.15980(17)
C36 C 0.6574(6) 0.8110(4) 0.7148(4)
H28 H 0.6977 0.8608 0.7806
H29 H 0.6121 0.8497 0.6807
Cl1 Cl 0.77343(17) 0.74618(13) 0.65028(13)
Cl2 Cl 0.55150(15) 0.72445(12) 0.72463(13)
C37 C 0.0888(11) 0.4859(8) 0.6847(7)
H30 H 0.0199 0.4322 0.6644
H31 H 0.1164 0.5121 0.7559
Cl3 Cl 0.0391(7) 0.5814(6) 0.6564(5)
Cl4 Cl 0.2095(8) 0.4329(12) 0.6290(8)
C38? C 0.0888(11) 0.4859(8) 0.6847(7)
H32? H -0.0005 0.4948 0.6812
H33? H 0.1192 0.4730 0.7430
Cl5? Cl 0.1586(15) 0.5907(8) 0.6982(5)
Cl6? Cl 0.1053(13) 0.3867(6) 0.5909(7)
loop_
_geom_bond_atom_site_label_1
_geom_bond_atom_site_label_2
_geom_bond_site_symmetry_1
_geom_bond_site_symmetry_2
Rh1 N1 1_555 1_555
Rh2 N2 1_555 1_555
C1 H1 1_555 1_555
C2 C1 1_555 1_555
H2 C2 1_555 1_555
C3 C2 1_555 1_555
H3 C3 1_555 1_555
C4 C3 1_555 1_555
H4 C4 1_555 1_555
C5 C4 1_555 1_555
C6 C5 1_555 1_555
C7 C6 1_555 1_555
C8 C7 1_555 1_555
C9 C8 1_555 1_555
H5 C9 1_555 1_555
C10 C9 1_555 1_555
C11 C10 1_555 1_555
H6 C11 1_555 1_555
C12 C11 1_555 1_555
C13 C8 1_555 1_555
H7 C13 1_555 1_555
C14 C10 1_555 1_555
C15 C14 1_555 1_555
C16 C15 1_555 1_555
C17 C16 1_555 1_555
H8 C17 1_555 1_555
C18 C17 1_555 1_555
H9 C18 1_555 1_555
C19 C18 1_555 1_555
H10 C19 1_555 1_555
C20 C19 1_555 1_555
H11 C20 1_555 1_555
C21 C12 1_555 1_555
C22 C21 1_555 1_555
C23 C22 1_555 1_555
C24 C23 1_555 1_555
H12 C24 1_555 1_555
C25 C24 1_555 1_555
H13 C25 1_555 1_555
C26 C25 1_555 1_555
H14 C26 1_555 1_555
C27 C26 1_555 1_555
H15 C27 1_555 1_555
C28 C29 1_555 1_555
C29 H16 1_555 1_555
H17 C29 1_555 1_555
H18 C29 1_555 1_555
C30 C31 1_555 1_555
C31 H19 1_555 1_555
H20 C31 1_555 1_555
H21 C31 1_555 1_555
C32 C33 1_555 1_555
C33 H22 1_555 1_555
H23 C33 1_555 1_555
H24 C33 1_555 1_555
C34 C35 1_555 1_555
C35 H25 1_555 1_555
H26 C35 1_555 1_555
H27 C35 1_555 1_555
N1 C1 1_555 1_555
N2 C16 1_555 1_555
N3 C23 1_555 1_555
O1 Rh1 1_555 1_555
O2 C28 1_555 1_555
O3 Rh1 1_555 1_555
O4 C30 1_555 1_555
O5 Rh2 1_555 1_555
O6 C32 1_555 1_555
O7 Rh2 1_555 1_555
O8 C34 1_555 1_555
C36 H28 1_555 1_555
H29 C36 1_555 1_555
Cl1 C36 1_555 1_555
Cl2 C36 1_555 1_555
C37 H30 1_555 1_555
H31 C37 1_555 1_555
Cl3 C37 1_555 1_555
Cl4 C37 1_555 1_555
Rh1A Rh1 1_555 1_555
O2A Rh1 1_555 1_555
O4A Rh1 1_555 1_555
Rh2A Rh2 1_555 1_555
O6A Rh2 1_555 1_555
O8A Rh2 1_555 1_555
C5 N1 1_555 1_555
C12 C13 1_555 1_555
C20 N2 1_555 1_555
C27 N3 1_555 1_555
C28 O1 1_555 1_555
C30 O3 1_555 1_555
C32 O5 1_555 1_555
C34 O7 1_555 1_555
O2 Rh1A 1_555 1_555
O4 Rh1A 1_555 1_555
O6 Rh2A 1_555 1_555
O8 Rh2A 1_555 1_555

#END
