
#######################################################################
#
#                 Cambridge Crystallographic Data Centre
#                                CCDC 
#
#######################################################################
#
# If this CIF has been generated from an entry in the Cambridge 
# Structural Database, then it will include bibliographic, chemical, 
# crystal, experimental, refinement or atomic coordinate data resulting 
# from the CCDC's data processing and validation procedures.
#
#######################################################################

data_ISAVAA
_symmetry_cell_setting           triclinic
_symmetry_space_group_name_H-M   'P -1'
_symmetry_Int_Tables_number      2
_space_group_name_Hall           '-P 1'
loop_
_symmetry_equiv_pos_site_id
_symmetry_equiv_pos_as_xyz
1 x,y,z
2 -x,-y,-z
_cell_length_a                   9.046(3)
_cell_length_b                   13.153(4)
_cell_length_c                   13.213(4)
_cell_angle_alpha                95.975(4)
_cell_angle_beta                 99.503(4)
_cell_angle_gamma                97.271(4)
_cell_volume                     1525.46
loop_
_atom_site_label
_atom_site_type_symbol
_atom_site_fract_x
_atom_site_fract_y
_atom_site_fract_z
I1 I 0.61915(7) 0.49150(5) 1.26739(4)
I2 I 0.18974(7) 0.32120(5) 1.41435(5)
C1 C 0.7947(10) 0.3845(6) 0.5172(6)
H1 H 0.8208 0.4133 0.4601
C2 C 0.9079(9) 0.3810(6) 0.5982(6)
H2 H 1.0067 0.4093 0.5961
C3 C 0.8762(9) 0.3354(5) 0.6838(5)
C4 C 0.7253(10) 0.2986(7) 0.6803(6)
H3 H 0.6966 0.2674 0.7354
C5 C 0.6173(10) 0.3071(7) 0.5973(7)
H4 H 0.5168 0.2822 0.5985
C6 C 0.9958(9) 0.3286(5) 0.7746(6)
H5 H 1.0948 0.3502 0.7584
H6 H 0.9829 0.3751 0.8334
C7 C 1.0385(8) 0.1541(6) 0.7407(5)
C8 C 1.1214(9) 0.1734(6) 0.6628(6)
H7 H 1.1465 0.2410 0.6497
C9 C 1.1663(9) 0.0935(7) 0.6051(6)
H8 H 1.2195 0.1085 0.5526
C10 C 1.1349(9) -0.0082(6) 0.6225(6)
C11 C 1.0557(8) -0.0266(6) 0.6999(6)
H9 H 1.0330 -0.0946 0.7124
C12 C 1.0066(8) 0.0514(6) 0.7619(5)
C13 C 1.1848(9) -0.0928(7) 0.5577(7)
H10 H 1.2070 -0.0685 0.4950
H11 H 1.1056 -0.1509 0.5411
H12 H 1.2741 -0.1132 0.5953
C14 C 0.9234(8) 0.0248(6) 0.8431(5)
C15 C 0.8129(8) -0.0765(6) 0.9323(5)
C16 C 0.7627(8) -0.1785(5) 0.9614(6)
C17 C 0.8060(9) -0.2658(6) 0.9131(6)
H13 H 0.8660 -0.2580 0.8629
C18 C 0.7629(10) -0.3645(6) 0.9369(6)
C19 C 0.6741(10) -0.3730(6) 1.0119(6)
H14 H 0.6445 -0.4379 1.0300
C20 C 0.6276(10) -0.2873(6) 1.0611(6)
H15 H 0.5660 -0.2959 1.1103
C21 C 0.6720(8) -0.1892(6) 1.0376(5)
C22 C 0.8147(11) -0.4571(6) 0.8852(7)
H16 H 0.8127 -0.4502 0.8133
H17 H 0.7486 -0.5184 0.8913
H18 H 0.9162 -0.4620 0.9177
C23 C 0.5409(9) -0.1098(6) 1.1592(6)
H19 H 0.5893 -0.1449 1.2137
H20 H 0.4428 -0.1498 1.1296
C24 C 0.5211(8) -0.0040(6) 1.2025(5)
C25 C 0.5888(8) 0.0846(6) 1.1707(6)
H21 H 0.6470 0.0803 1.1191
C26 C 0.5680(9) 0.1800(6) 1.2176(6)
H22 H 0.6147 0.2392 1.1964
C27 C 0.4177(9) 0.1065(7) 1.3184(6)
H23 H 0.3562 0.1137 1.3679
C28 C 0.4329(9) 0.0080(6) 1.2783(6)
H24 H 0.3849 -0.0494 1.3017
Hg1 Hg 0.46045(4) 0.36330(2) 1.36488(2)
N1 N 0.8711(7) 0.0824(5) 0.9092(4)
N2 N 0.7993(7) 0.0144(4) 0.9691(5)
N3 N 0.4857(8) 0.1912(5) 1.2903(5)
N4 N 0.6496(7) 0.3496(5) 0.5145(5)
O1 O 0.8913(5) -0.0780(4) 0.8520(4)
O2 O 0.6315(6) -0.1014(4) 1.0818(4)
O3 O 0.9883(6) 0.2256(4) 0.8012(4)
Hg1_2 Hg 0.46045(4) 0.36330(2) 0.36488(2)
N4_2 N 0.6496(7) 0.3496(5) 1.5145(5)
C29 C 0.7829(13) 0.3011(9) 1.0450(8)
H25 H 0.8807 0.3149 1.0892
H26 H 0.7276 0.2389 1.0600
H27 H 0.7281 0.3577 1.0570
O4 O 0.8009(10) 0.2893(5) 0.9428(5)
H28 H 0.8363 0.2359 0.9303
loop_
_geom_bond_atom_site_label_1
_geom_bond_atom_site_label_2
_geom_bond_site_symmetry_1
_geom_bond_site_symmetry_2
I1 Hg1 1_555 1_555
I2 Hg1 1_555 1_555
C1 H1 1_555 1_555
C2 C1 1_555 1_555
H2 C2 1_555 1_555
C3 C2 1_555 1_555
C4 C3 1_555 1_555
H3 C4 1_555 1_555
C5 C4 1_555 1_555
H4 C5 1_555 1_555
C6 C3 1_555 1_555
H5 C6 1_555 1_555
H6 C6 1_555 1_555
C7 C8 1_555 1_555
C8 H7 1_555 1_555
C9 C8 1_555 1_555
H8 C9 1_555 1_555
C10 C9 1_555 1_555
C11 C10 1_555 1_555
H9 C11 1_555 1_555
C12 C7 1_555 1_555
C13 C10 1_555 1_555
H10 C13 1_555 1_555
H11 C13 1_555 1_555
H12 C13 1_555 1_555
C14 C12 1_555 1_555
C15 C16 1_555 1_555
C16 C17 1_555 1_555
C17 H13 1_555 1_555
C18 C17 1_555 1_555
C19 C18 1_555 1_555
H14 C19 1_555 1_555
C20 C19 1_555 1_555
H15 C20 1_555 1_555
C21 C16 1_555 1_555
C22 C18 1_555 1_555
H16 C22 1_555 1_555
H17 C22 1_555 1_555
H18 C22 1_555 1_555
C23 H19 1_555 1_555
H20 C23 1_555 1_555
C24 C23 1_555 1_555
C25 C24 1_555 1_555
H21 C25 1_555 1_555
C26 C25 1_555 1_555
H22 C26 1_555 1_555
C27 H23 1_555 1_555
C28 C24 1_555 1_555
H24 C28 1_555 1_555
C29 H25 1_555 1_555
H26 C29 1_555 1_555
H27 C29 1_555 1_555
Hg1 N3 1_555 1_555
N1 C14 1_555 1_555
N2 C15 1_555 1_555
N3 C26 1_555 1_555
N4 C1 1_555 1_555
O1 C14 1_555 1_555
O2 C21 1_555 1_555
O3 C6 1_555 1_555
O4 C29 1_555 1_555
H28 O4 1_555 1_555
Hg1_2 N4 1_555 1_555
N4_2 Hg1 1_555 1_555
C5 N4 1_555 1_555
C7 O3 1_555 1_555
C11 C12 1_555 1_555
C15 O1 1_555 1_555
C20 C21 1_555 1_555
C23 O2 1_555 1_555
C27 C28 1_555 1_555
C27 N3 1_555 1_555
N1 N2 1_555 1_555

#END
