
#######################################################################
#
#                 Cambridge Crystallographic Data Centre
#                                CCDC 
#
#######################################################################
#
# If this CIF has been generated from an entry in the Cambridge 
# Structural Database, then it will include bibliographic, chemical, 
# crystal, experimental, refinement or atomic coordinate data resulting 
# from the CCDC's data processing and validation procedures.
#
#######################################################################

data_ISAYOQ
_symmetry_cell_setting           tetragonal
_symmetry_space_group_name_H-M   'I 41/a'
_symmetry_Int_Tables_number      88
_space_group_name_Hall           '-I 4ad'
loop_
_symmetry_equiv_pos_site_id
_symmetry_equiv_pos_as_xyz
1 x,y,z
2 3/4-y,1/4+x,1/4+z
3 1/2+x,1/2+y,1/2+z
4 1/4-y,3/4+x,3/4+z
5 1/4+y,1/4-x,1/4+z
6 1/2+x,y,1/2-z
7 1/4-y,1/4+x,1/4-z
8 x,1/2+y,-z
9 -x,-y,-z
10 1/4+y,3/4-x,3/4-z
11 1/2-x,1/2-y,1/2-z
12 3/4+y,1/4-x,1/4-z
13 3/4-y,3/4+x,3/4-z
14 1/2-x,-y,1/2+z
15 3/4+y,3/4-x,3/4+z
16 -x,1/2-y,z
_cell_length_a                   13.4623(16)
_cell_length_b                   13.4623(16)
_cell_length_c                   46.472(12)
_cell_angle_alpha                90
_cell_angle_beta                 90
_cell_angle_gamma                90
_cell_volume                     8422.28
loop_
_atom_site_label
_atom_site_type_symbol
_atom_site_fract_x
_atom_site_fract_y
_atom_site_fract_z
P1 P 0.5000 0.2500 0.93811(6)
F1 F 0.5487(5) 0.1452(4) 0.9400(2)
F2 F 0.6063(7) 0.2953(6) 0.9407(4)
F3 F 0.5165(17) 0.2854(13) 0.9694(3)
F4 F 0.5000 0.2500 0.9053(3)
F1O F 0.4513(5) 0.3548(4) 0.9400(2)
F2O F 0.3937(7) 0.2047(6) 0.9407(4)
F3O F 0.4835(17) 0.2146(13) 0.9694(3)
O3 O 0.3938(17) 0.9420(9) 0.1232(3)
P2 P 0.1156(8) 0.4593(11) 0.0702(3)
F5 F 0.132(3) 0.453(3) 0.0368(4)
F6 F 0.0175(17) 0.400(2) 0.0651(6)
F7 F 0.100(2) 0.465(3) 0.1032(3)
F8 F 0.2127(15) 0.506(2) 0.0822(6)
F9 F 0.177(2) 0.3616(15) 0.0729(6)
F10 F 0.0648(19) 0.5623(13) 0.0680(5)
O4 O 0.0000 0.7500 0.8750
Cu1 Cu 0.5000 0.2500 1.097019(18)
O1 O 0.2580(3) 0.3874(3) 0.97115(7)
O2 O 0.3633(4) 0.1284(4) 1.09950(9)
N1 N 0.4258(4) 0.3232(3) 1.06496(9)
N2 N 0.3221(6) 0.5356(4) 0.97788(12)
N3 N 0.2710(6) 0.5327(4) 0.95107(11)
N4 N 0.0832(3) 0.3178(4) 0.87824(9)
C1 C 0.3784(6) 0.2671(5) 1.04511(12)
H1 H 0.3723 0.1992 1.0483
C2 C 0.3394(6) 0.3062(4) 1.02058(12)
H2 H 0.3074 0.2656 1.0073
C3 C 0.3478(5) 0.4062(4) 1.01574(10)
C4 C 0.3949(5) 0.4655(5) 1.03576(12)
H3 H 0.4007 0.5336 1.0330
C5 C 0.4328(5) 0.4206(4) 1.05991(12)
H4 H 0.4650 0.4600 1.0734
C6 C 0.3099(5) 0.4489(5) 0.98841(12)
C7 C 0.2360(5) 0.4479(5) 0.94823(12)
C8 C 0.1844(5) 0.4023(4) 0.92395(11)
C9 C 0.1681(5) 0.3001(5) 0.92297(13)
H5 H 0.1908 0.2595 0.9378
C10 C 0.1181(5) 0.2599(5) 0.89998(12)
H6 H 0.1080 0.1916 0.8993
C11 C 0.0980(5) 0.4137(5) 0.87943(12)
H7 H 0.0745 0.4525 0.8643
C12 C 0.1464(6) 0.4608(5) 0.90180(13)
H8 H 0.1535 0.5295 0.9021
O2O O 0.6367(4) 0.3716(4) 1.09950(9)
N1O N 0.5742(4) 0.1768(3) 1.06496(9)
O1A O 0.3626(3) 0.5080(3) 1.22115(7)
N1A N 0.4268(3) 0.6758(4) 1.31496(9)
N2A N 0.2144(4) 0.5721(6) 1.22788(12)
N3A N 0.2173(4) 0.5210(6) 1.20107(11)
N4A N 0.4322(4) 0.3332(3) 1.12824(9)
C1A C 0.4829(5) 0.6284(6) 1.29511(12)
H1A H 0.5508 0.6223 1.2983
C2A C 0.4438(4) 0.5894(6) 1.27058(12)
H2A H 0.4844 0.5574 1.2573
C3A C 0.3438(4) 0.5978(5) 1.26574(10)
C4A C 0.2845(5) 0.6449(5) 1.28576(12)
H3A H 0.2164 0.6507 1.2830
C5A C 0.3294(4) 0.6828(5) 1.30991(12)
H4A H 0.2900 0.7150 1.3234
C6A C 0.3011(5) 0.5599(5) 1.23841(12)
C7A C 0.3021(5) 0.4860(5) 1.19823(12)
C8A C 0.3477(4) 0.4344(5) 1.17395(11)
C9A C 0.4499(5) 0.4181(5) 1.17297(13)
H5A H 0.4905 0.4408 1.1878
C10A C 0.4901(5) 0.3681(5) 1.14998(12)
H6A H 0.5584 0.3580 1.1493
C11A C 0.3363(5) 0.3480(5) 1.12943(12)
H7A H 0.2975 0.3245 1.1143
C12A C 0.2892(5) 0.3964(6) 1.15180(13)
H8A H 0.2205 0.4035 1.1521
N4D N 0.5678(4) 0.1668(3) 1.12824(9)
Cu1A Cu 0.5000 0.7500 1.347019(18)
Cu1C Cu 0.0000 0.2500 0.847019(18)
N1D N 0.5732(3) 0.8242(4) 1.31496(9)
N4B N 0.5832(3) 0.8178(4) 1.37824(9)
N4M N 0.4168(3) 0.6822(4) 1.37824(9)
loop_
_geom_bond_atom_site_label_1
_geom_bond_atom_site_label_2
_geom_bond_site_symmetry_1
_geom_bond_site_symmetry_2
Cu1 O2 1_555 1_555
O1 C6 1_555 1_555
N1 Cu1 1_555 1_555
N2 N3 1_555 1_555
N3 C7 1_555 1_555
N4 C10 1_555 1_555
C1 N1 1_555 1_555
H1 C1 1_555 1_555
C2 C1 1_555 1_555
H2 C2 1_555 1_555
C3 C2 1_555 1_555
C4 C3 1_555 1_555
H3 C4 1_555 1_555
C5 N1 1_555 1_555
H4 C5 1_555 1_555
C6 N2 1_555 1_555
C7 O1 1_555 1_555
C8 C7 1_555 1_555
C9 C8 1_555 1_555
H5 C9 1_555 1_555
C10 C9 1_555 1_555
H6 C10 1_555 1_555
C11 N4 1_555 1_555
H7 C11 1_555 1_555
C12 C8 1_555 1_555
H8 C12 1_555 1_555
P1 F1 1_555 1_555
F2 P1 1_555 1_555
F3 P1 1_555 1_555
P2 F5 1_555 1_555
F4 P1 1_555 1_555
F6 P2 1_555 1_555
F7 P2 1_555 1_555
F8 P2 1_555 1_555
F9 P2 1_555 1_555
F10 P2 1_555 1_555
F1O P1 1_555 1_555
F2O P1 1_555 1_555
F3O P1 1_555 1_555
O2O Cu1 1_555 1_555
N1O Cu1 1_555 1_555
O1A C6A 1_555 1_555
N1A C1A 1_555 1_555
N2A N3A 1_555 1_555
N3A C7A 1_555 1_555
N4A Cu1 1_555 1_555
C1A H1A 1_555 1_555
C2A C1A 1_555 1_555
H2A C2A 1_555 1_555
C3A C2A 1_555 1_555
C4A C3A 1_555 1_555
H3A C4A 1_555 1_555
C5A N1A 1_555 1_555
H4A C5A 1_555 1_555
C6A N2A 1_555 1_555
C7A O1A 1_555 1_555
C8A C7A 1_555 1_555
C9A C8A 1_555 1_555
H5A C9A 1_555 1_555
C10A N4A 1_555 1_555
H6A C10A 1_555 1_555
C11A N4A 1_555 1_555
H7A C11A 1_555 1_555
C12A C8A 1_555 1_555
H8A C12A 1_555 1_555
N4D Cu1 1_555 1_555
Cu1A N1A 1_555 1_555
Cu1C N4 1_555 1_555
N1D Cu1A 1_555 1_555
N4B Cu1A 1_555 1_555
N4M Cu1A 1_555 1_555
C3 C6 1_555 1_555
C4 C5 1_555 1_555
C11 C12 1_555 1_555
F3 F3O 1_555 1_555
C3A C6A 1_555 1_555
C4A C5A 1_555 1_555
C9A C10A 1_555 1_555
C11A C12A 1_555 1_555

#END
