
#######################################################################
#
#                 Cambridge Crystallographic Data Centre
#                                CCDC 
#
#######################################################################
#
# If this CIF has been generated from an entry in the Cambridge 
# Structural Database, then it will include bibliographic, chemical, 
# crystal, experimental, refinement or atomic coordinate data resulting 
# from the CCDC's data processing and validation procedures.
#
#######################################################################

data_ISAYUW
_symmetry_cell_setting           orthorhombic
_symmetry_space_group_name_H-M   'P n a 21'
_symmetry_Int_Tables_number      33
_space_group_name_Hall           'P 2c -2n'
loop_
_symmetry_equiv_pos_site_id
_symmetry_equiv_pos_as_xyz
1 x,y,z
2 -x,-y,1/2+z
3 1/2+x,1/2-y,z
4 1/2-x,1/2+y,1/2+z
_cell_length_a                   6.379(2)
_cell_length_b                   10.060(3)
_cell_length_c                   27.232(9)
_cell_angle_alpha                90
_cell_angle_beta                 90
_cell_angle_gamma                90
_cell_volume                     1747.55
loop_
_atom_site_label
_atom_site_type_symbol
_atom_site_fract_x
_atom_site_fract_y
_atom_site_fract_z
Cu1 Cu -0.0014(7) -0.5002(4) -0.9994(4)
O1 O 0.2231(11) -0.4173(7) -1.2494(11)
N1 N 0.118(4) -0.458(2) -1.0661(7)
N2 N 0.535(4) -0.356(2) -1.2236(10)
N3 N 0.544(4) -0.373(2) -1.2755(10)
N4 N 0.115(4) -0.466(2) -1.4307(9)
N5 N -0.239(4) -0.373(2) -1.0104(9)
N6 N -0.260(4) -0.281(3) -0.9853(9)
N7 N -0.292(4) -0.192(3) -0.9618(11)
N8 N 0.226(4) -0.633(2) -0.9850(9)
N9 N 0.257(3) -0.723(2) -1.0123(7)
N10 N 0.280(4) -0.821(2) -1.0368(10)
C1 C -0.014(4) -0.478(2) -1.1056(10)
H1 H -0.1475 -0.5122 -1.1008
C2 C 0.055(5) -0.447(4) -1.1525(12)
H2 H -0.0400 -0.4476 -1.1785
C3 C 0.272(5) -0.412(3) -1.1615(13)
C4 C 0.399(5) -0.396(3) -1.1200(11)
H3 H 0.5343 -0.3628 -1.1233
C5 C 0.324(4) -0.430(3) -1.0741(11)
H4 H 0.4167 -0.4328 -1.0478
C6 C 0.347(5) -0.387(2) -1.2083(10)
C7 C 0.358(5) -0.403(3) -1.2869(9)
C8 C 0.261(4) -0.412(3) -1.3383(10)
C9 C 0.061(5) -0.444(3) -1.3446(11)
H5 H -0.0285 -0.4573 -1.3181
C10 C -0.006(4) -0.456(3) -1.3918(11)
H6 H -0.1503 -0.4582 -1.3970
C11 C 0.311(5) -0.427(3) -1.4238(11)
H7 H 0.3959 -0.4134 -1.4512
C12 C 0.395(5) -0.406(3) -1.3784(10)
H8 H 0.5376 -0.3892 -1.3744
N4A N -0.115(4) -0.534(2) -0.9307(9)
N7B N 0.208(4) -0.308(3) -0.9618(11)
N10B N -0.220(4) -0.679(2) -1.0368(10)
Cu1A Cu 0.0014(7) -0.4998(4) -1.4994(4)
Cu1B Cu -0.5014(7) 0.0002(4) -0.9994(4)
Cu1B_2 Cu 0.4986(7) -0.9998(4) -0.9994(4)
O2 O -0.073(6) -0.198(4) -0.8565(14)
O3 O -0.359(10) -0.249(7) -0.712(3)
O4 O -0.189(8) -0.204(6) -0.660(2)
loop_
_geom_bond_atom_site_label_1
_geom_bond_atom_site_label_2
_geom_bond_site_symmetry_1
_geom_bond_site_symmetry_2
Cu1 N1 1_555 1_555
O1 C6 1_555 1_555
N1 C1 1_555 1_555
N2 N3 1_555 1_555
N3 C7 1_555 1_555
N4 C10 1_555 1_555
N5 Cu1 1_555 1_555
N6 N5 1_555 1_555
N7 N6 1_555 1_555
N8 Cu1 1_555 1_555
N9 N8 1_555 1_555
N10 N9 1_555 1_555
C1 H1 1_555 1_555
C2 C1 1_555 1_555
H2 C2 1_555 1_555
C3 C2 1_555 1_555
C4 C3 1_555 1_555
H3 C4 1_555 1_555
C5 N1 1_555 1_555
H4 C5 1_555 1_555
C6 N2 1_555 1_555
C7 O1 1_555 1_555
C8 C7 1_555 1_555
C9 C8 1_555 1_555
H5 C9 1_555 1_555
C10 C9 1_555 1_555
H6 C10 1_555 1_555
C11 N4 1_555 1_555
H7 C11 1_555 1_555
C12 C8 1_555 1_555
H8 C12 1_555 1_555
N4A Cu1 1_555 1_555
N7B Cu1 1_555 1_555
N10B Cu1 1_555 1_555
Cu1A N4 1_555 1_555
Cu1B N7 1_555 1_555
Cu1B_2 N10 1_555 1_555
C3 C6 1_555 1_555
C4 C5 1_555 1_555
C11 C12 1_555 1_555

#END
