
#######################################################################
#
#                 Cambridge Crystallographic Data Centre
#                                CCDC 
#
#######################################################################
#
# If this CIF has been generated from an entry in the Cambridge 
# Structural Database, then it will include bibliographic, chemical, 
# crystal, experimental, refinement or atomic coordinate data resulting 
# from the CCDC's data processing and validation procedures.
#
#######################################################################

data_ISEBEN
_symmetry_cell_setting           monoclinic
_symmetry_space_group_name_H-M   'P 21/n'
_symmetry_Int_Tables_number      14
_space_group_name_Hall           '-P 2yn'
loop_
_symmetry_equiv_pos_site_id
_symmetry_equiv_pos_as_xyz
1 x,y,z
2 1/2+x,1/2-y,1/2+z
3 -x,-y,-z
4 1/2-x,1/2+y,1/2-z
_cell_length_a                   16.6105(10)
_cell_length_b                   7.1572(4)
_cell_length_c                   6.8171(4)
_cell_angle_alpha                90
_cell_angle_beta                 98.327(4)
_cell_angle_gamma                90
_cell_volume                     801.905
loop_
_atom_site_label
_atom_site_type_symbol
_atom_site_fract_x
_atom_site_fract_y
_atom_site_fract_z
Cd1 Cd 0.11012(13) 0.09330(30) -0.4669(4)
Cl1 Cl 0.0405(4) -0.2456(7) -0.4838(13)
P1 P 0.1413(4) 0.0495(7) -0.9539(13)
O1 O 0.2310(5) 0.1133(15) -0.9143(26)
O2 O 0.0958(8) 0.1202(20) -0.7935(15)
O3 O 0.2337(6) -0.0574(18) -0.4330(32)
O4 O 0.1574(8) 0.4042(16) -0.4381(30)
N1 N 0.0562(8) -0.2684(15) -0.985(4)
C1 C 0.1363(8) -0.2001(12) -0.961(4)
O5 O 0.1012(8) 0.1309(21) -1.1470(13)
C2 C 0.0427(6) -0.4683(17) -0.963(5)
H1 H 0.06 -0.28 -0.85425
H2 H 0.01943 -0.18285 -1.0257
H3 H 0.18913 0.40151 -0.29004
H4 H 0.20723 0.36785 -0.52647
H5 H 0.25541 -0.11032 -0.55688
H6 H 0.24374 -0.15335 -0.31753
H7 H 0.12 -0.12 -1.1
H8 H 0.13791 -0.33418 -1.02908
H9 H 0.08 -0.58868 -0.98888
H10 H 0.05 -0.46 -1.1
C2B C -0.0427(6) -0.5317(17) -1.037(5)
N1B N -0.0562(8) -0.7316(15) -1.015(4)
C1B C -0.1363(8) -0.7999(12) -1.039(4)
P1B P -0.1413(4) -1.0495(7) -1.0461(13)
O1B O -0.2310(5) -1.1133(15) -1.0857(26)
O2B O -0.0958(8) -1.1202(20) -1.2065(15)
O5B O -0.1012(8) -1.1309(21) -0.8530(13)
H7B H -0.12 -0.88 -0.9
H8B H -0.13791 -0.66582 -0.97092
H1B H -0.06 -0.72 -1.14575
H2B H -0.01943 -0.81715 -0.9743
H9B H -0.08 -0.41132 -1.01112
H10B H -0.05 -0.54 -0.9
Cl1B Cl -0.0405(4) 0.2456(7) -0.5162(13)
Cd1B Cd -0.11012(13) -0.09330(30) -0.5331(4)
O3B O -0.2337(6) 0.0574(18) -0.5670(32)
H5B H -0.25541 0.11032 -0.44312
H6B H -0.24374 0.15335 -0.68247
O4B O -0.1574(8) -0.4042(16) -0.5619(30)
H3B H -0.18913 -0.40151 -0.70996
H4B H -0.20723 -0.36785 -0.47353
O5_2 O 0.1012(8) 0.1309(21) -0.1470(13)
Cd1_2 Cd 0.11012(13) 0.09330(30) -1.4669(4)
Cd1B_2 Cd -0.11012(13) -1.09330(30) -1.5331(4)
Cd1B_3 Cd -0.11012(13) -1.09330(30) -0.5331(4)
O2B_2 O -0.0958(8) -0.1202(20) -0.2065(15)
O5B_2 O -0.1012(8) -0.1309(21) -0.8530(13)
loop_
_geom_bond_atom_site_label_1
_geom_bond_atom_site_label_2
_geom_bond_site_symmetry_1
_geom_bond_site_symmetry_2
Cd1 Cl1 1_555 1_555
Cl1 Cd1B 1_555 1_555
P1 O1 1_555 1_555
O2 Cd1 1_555 1_555
O3 Cd1 1_555 1_555
O4 Cd1 1_555 1_555
N1 C1 1_555 1_555
C1 P1 1_555 1_555
O5 P1 1_555 1_555
C2 N1 1_555 1_555
H1 N1 1_555 1_555
H2 N1 1_555 1_555
H3 O4 1_555 1_555
H4 O4 1_555 1_555
H5 O3 1_555 1_555
H6 O3 1_555 1_555
H7 C1 1_555 1_555
H8 C1 1_555 1_555
H9 C2 1_555 1_555
H10 C2 1_555 1_555
C2B C2 1_555 1_555
N1B C2B 1_555 1_555
C1B N1B 1_555 1_555
P1B C1B 1_555 1_555
O1B P1B 1_555 1_555
O2B P1B 1_555 1_555
O5B P1B 1_555 1_555
H7B C1B 1_555 1_555
H8B C1B 1_555 1_555
H1B N1B 1_555 1_555
H2B N1B 1_555 1_555
H9B C2B 1_555 1_555
H10B C2B 1_555 1_555
Cl1B Cd1 1_555 1_555
Cd1B Cl1B 1_555 1_555
O3B Cd1B 1_555 1_555
H5B O3B 1_555 1_555
H6B O3B 1_555 1_555
O4B Cd1B 1_555 1_555
H3B O4B 1_555 1_555
H4B O4B 1_555 1_555
O5_2 Cd1 1_555 1_555
Cd1_2 O5 1_555 1_555
Cd1B_2 O2B 1_555 1_555
Cd1B_3 O5B 1_555 1_555
O2B_2 Cd1B 1_555 1_555
O5B_2 Cd1B 1_555 1_555
P1 O2 1_555 1_555

#END
