
#######################################################################
#
#                 Cambridge Crystallographic Data Centre
#                                CCDC 
#
#######################################################################
#
# If this CIF has been generated from an entry in the Cambridge 
# Structural Database, then it will include bibliographic, chemical, 
# crystal, experimental, refinement or atomic coordinate data resulting 
# from the CCDC's data processing and validation procedures.
#
#######################################################################

data_ISECIT
_symmetry_cell_setting           monoclinic
_symmetry_space_group_name_H-M   'P 21'
_symmetry_Int_Tables_number      4
_space_group_name_Hall           'P 2yb'
loop_
_symmetry_equiv_pos_site_id
_symmetry_equiv_pos_as_xyz
1 x,y,z
2 -x,1/2+y,-z
_cell_length_a                   10.798(2)
_cell_length_b                   17.973(4)
_cell_length_c                   11.474(2)
_cell_angle_alpha                90
_cell_angle_beta                 100.40(3)
_cell_angle_gamma                90
_cell_volume                     2190.2
loop_
_atom_site_label
_atom_site_type_symbol
_atom_site_fract_x
_atom_site_fract_y
_atom_site_fract_z
Ag1 Ag 1.33276(4) 0.40174(3) 2.00565(4)
Ag2 Ag 0.98472(4) 0.35684(3) 1.01079(3)
Ag3 Ag 1.66704(4) 0.35523(3) 3.00521(3)
C1 C 1.2122(5) 0.4426(3) 1.7547(5)
H1 H 1.2018 0.4871 1.7934
C2 C 1.1691(5) 0.4390(3) 1.6355(5)
H2 H 1.1321 0.4803 1.5946
C3 C 1.1811(5) 0.3724(3) 1.5756(5)
C4 C 1.2368(4) 0.3129(3) 1.6421(4)
H3 H 1.2453 0.2672 1.6064
C5 C 1.2795(5) 0.3222(4) 1.7616(5)
H4 H 1.3180 0.2819 1.8044
C6 C 1.0903(5) 0.4224(3) 1.2532(5)
H5 H 1.0911 0.4641 1.2053
C7 C 1.1347(5) 0.4297(3) 1.3727(4)
H6 H 1.1640 0.4754 1.4042
C8 C 1.1353(5) 0.3674(4) 1.4469(5)
C9 C 1.0897(5) 0.3008(3) 1.3916(5)
H7 H 1.0892 0.2578 1.4366
C10 C 1.0459(5) 0.2984(3) 1.2723(5)
H8 H 1.0149 0.2537 1.2383
C11 C 0.8820(5) 0.4207(3) 0.7634(4)
H9 H 0.8718 0.4625 0.8084
C12 C 0.8388(5) 0.4237(3) 0.6437(4)
H10 H 0.8027 0.4672 0.6091
C13 C 0.8489(4) 0.3616(4) 0.5744(4)
C14 C 0.9085(4) 0.2988(3) 0.6322(4)
H11 H 0.9187 0.2560 0.5892
C15 C 0.9516(5) 0.3007(3) 0.7520(4)
H12 H 0.9918 0.2588 0.7885
C16 C 0.7110(5) 0.2984(3) 0.2659(5)
H13 H 0.6798 0.2546 0.2285
C17 C 0.7538(5) 0.2965(3) 0.3862(5)
H14 H 0.7512 0.2522 0.4277
C18 C 0.8010(4) 0.3603(4) 0.4456(4)
C19 C 0.8002(5) 0.4249(3) 0.3770(5)
H15 H 0.8298 0.4694 0.4126
C20 C 0.7559(5) 0.4224(3) 0.2574(5)
H16 H 0.7563 0.4660 0.2139
C21 C 1.5998(5) 0.3017(3) 2.7409(4)
H17 H 1.6311 0.2567 2.7739
C22 C 1.5580(5) 0.3049(3) 2.6200(5)
H18 H 1.5600 0.2626 2.5737
C23 C 1.5128(5) 0.3716(3) 2.5680(5)
C24 C 1.5118(5) 0.4330(3) 2.6425(4)
H19 H 1.4826 0.4789 2.6116
C25 C 1.5546(5) 0.4246(3) 2.7625(4)
H20 H 1.5535 0.4661 2.8109
C26 C 1.4321(5) 0.4517(3) 2.2598(5)
H21 H 1.4370 0.4972 2.2224
C27 C 1.4734(5) 0.4469(3) 2.3811(5)
H22 H 1.5048 0.4889 2.4239
C28 C 1.4679(5) 0.3792(2) 2.4386(5)
C29 C 1.4160(4) 0.3181(3) 2.3701(5)
H23 H 1.4087 0.2720 2.4051
C30 C 1.3766(5) 0.3279(4) 2.2511(5)
H24 H 1.3418 0.2872 2.2068
C31 C 1.8316(5) 0.5270(4) 3.0244(4)
C32 C 1.8212(4) 0.6085(3) 3.0671(4)
H25 H 1.7348 0.6167 3.0796
C33 C 1.8475(5) 0.6626(3) 2.9709(5)
H26 H 1.9383 0.6621 2.9711
C34 C 1.7804(5) 0.6405(3) 2.8474(4)
H27 H 1.7973 0.6769 2.7910
H28 H 1.6914 0.6380 2.8461
H29 H 1.8103 0.5927 2.8272
C35 C 1.8695(4) 0.6209(3) 3.2883(4)
N1 N 1.2692(5) 0.3855(3) 1.8199(5)
N2 N 1.0459(4) 0.3585(4) 1.2019(4)
N3 N 0.9383(4) 0.3608(4) 0.8194(4)
N4 N 0.7114(4) 0.3596(4) 0.1992(4)
N5 N 1.5979(4) 0.3604(4) 2.8136(4)
N6 N 1.3848(4) 0.3924(3) 2.1942(4)
N7 N 1.9062(4) 0.6215(3) 3.1785(4)
H30 H 1.9841 0.6301 3.1763
O2 O 1.7295(3) 0.4929(2) 2.9900(3)
O4 O 1.9392(3) 0.5018(2) 3.0230(3)
O6 O 1.7544(3) 0.6166(2) 3.2940(3)
O7 O 1.9583(3) 0.6273(2) 3.3778(3)
O9 O 1.8136(4) 0.7361(2) 3.0000(3)
H39 H 1.7373 0.7382 2.9976
Ag3_2 Ag 0.66704(4) 0.35523(3) 0.00521(3)
N4_2 N 1.7114(4) 0.3596(4) 3.1992(4)
C36 C 0.2563(5) 0.6257(3) 0.3087(4)
O12 O 0.1981(3) 0.6183(2) 0.4039(3)
H44 H 0.1217 0.6224 0.3823
O14 O 0.1901(3) 0.6299(3) 0.2062(3)
O16 O 0.3745(3) 0.6269(2) 0.3348(3)
O1 O 0.1768(3) 0.5378(3) 0.0082(4)
H31 H 0.1018 0.5222 0.0036
H32 H 0.1925 0.5676 0.0665
O3 O 0.4865(4) 0.5306(3) -0.0138(4)
H33 H 0.5611 0.5164 -0.0166
H34 H 0.4902 0.5626 0.0411
O5 O 0.8155(4) 0.2364(3) -2.0166(4)
H35 H 0.8226 0.2095 -1.9548
H36 H 0.8136 0.2080 -2.0761
O8 O 0.4136(3) 0.6316(2) 0.7999(3)
H37 H 0.4481 0.6262 0.7394
H38 H 0.4269 0.5935 0.8442
O10 O 0.1586(4) 0.6352(3) 0.8179(4)
H40 H 0.1563 0.6027 0.8714
H41 H 0.2340 0.6368 0.8061
O11 O 0.5174(3) 0.6350(2) 0.1687(3)
H42 H 0.5928 0.6295 0.2049
H43 H 0.4690 0.6328 0.2193
O13 O 0.5405(4) 0.7330(3) -0.0144(4)
H45 H 0.5028 0.7169 -0.0811
H46 H 0.5289 0.7035 0.0404
O15 O 0.4747(3) 0.6229(2) 0.5810(3)
H47 H 0.4319 0.6241 0.5111
H48 H 0.5522 0.6244 0.5759
O17 O 0.7070(4) 0.6271(4) 0.5216(4)
H49 H 0.7100 0.6244 0.4482
H50 H 0.7808 0.6197 0.5604
O18 O 0.9598(4) 0.6013(3) 0.6169(4)
H51 H 1.0249 0.6135 0.6666
H52 H 0.9719 0.6119 0.5476
loop_
_geom_bond_atom_site_label_1
_geom_bond_atom_site_label_2
_geom_bond_site_symmetry_1
_geom_bond_site_symmetry_2
Ag1 N1 1_555 1_555
Ag2 N2 1_555 1_555
Ag3 N5 1_555 1_555
C1 H1 1_555 1_555
C2 C1 1_555 1_555
H2 C2 1_555 1_555
C3 C2 1_555 1_555
C4 C3 1_555 1_555
H3 C4 1_555 1_555
C5 C4 1_555 1_555
H4 C5 1_555 1_555
C6 H5 1_555 1_555
C7 C6 1_555 1_555
H6 C7 1_555 1_555
C8 C3 1_555 1_555
C9 C8 1_555 1_555
H7 C9 1_555 1_555
C10 C9 1_555 1_555
H8 C10 1_555 1_555
C11 H9 1_555 1_555
C12 C11 1_555 1_555
H10 C12 1_555 1_555
C13 C12 1_555 1_555
C14 C13 1_555 1_555
H11 C14 1_555 1_555
C15 C14 1_555 1_555
H12 C15 1_555 1_555
C16 H13 1_555 1_555
C17 C16 1_555 1_555
H14 C17 1_555 1_555
C18 C13 1_555 1_555
C19 C18 1_555 1_555
H15 C19 1_555 1_555
C20 C19 1_555 1_555
H16 C20 1_555 1_555
C21 H17 1_555 1_555
C22 C21 1_555 1_555
H18 C22 1_555 1_555
C23 C22 1_555 1_555
C24 C23 1_555 1_555
H19 C24 1_555 1_555
C25 C24 1_555 1_555
H20 C25 1_555 1_555
C26 H21 1_555 1_555
C27 C26 1_555 1_555
H22 C27 1_555 1_555
C28 C23 1_555 1_555
C29 C28 1_555 1_555
H23 C29 1_555 1_555
C30 C29 1_555 1_555
H24 C30 1_555 1_555
C31 C32 1_555 1_555
C32 H25 1_555 1_555
C33 C32 1_555 1_555
H26 C33 1_555 1_555
C34 C33 1_555 1_555
H27 C34 1_555 1_555
H28 C34 1_555 1_555
H29 C34 1_555 1_555
C35 N7 1_555 1_555
C36 O12 1_555 1_555
N1 C1 1_555 1_555
N2 C6 1_555 1_555
N3 Ag2 1_555 1_555
N4 C16 1_555 1_555
N5 C21 1_555 1_555
N6 Ag1 1_555 1_555
N7 C32 1_555 1_555
H30 N7 1_555 1_555
O1 H31 1_555 1_555
H32 O1 1_555 1_555
O2 Ag3 1_555 1_555
O3 H33 1_555 1_555
H34 O3 1_555 1_555
O4 C31 1_555 1_555
O5 H35 1_555 1_555
H36 O5 1_555 1_555
O6 C35 1_555 1_555
O7 C35 1_555 1_555
O8 H37 1_555 1_555
H38 O8 1_555 1_555
O9 C33 1_555 1_555
H39 O9 1_555 1_555
O10 H40 1_555 1_555
H41 O10 1_555 1_555
O11 H42 1_555 1_555
H43 O11 1_555 1_555
O12 H44 1_555 1_555
O13 H45 1_555 1_555
H46 O13 1_555 1_555
O14 C36 1_555 1_555
O15 H47 1_555 1_555
H48 O15 1_555 1_555
O16 C36 1_555 1_555
O17 H49 1_555 1_555
H50 O17 1_555 1_555
O18 H51 1_555 1_555
H52 O18 1_555 1_555
Ag3_2 N4 1_555 1_555
N4_2 Ag3 1_555 1_555
C5 N1 1_555 1_555
C7 C8 1_555 1_555
C10 N2 1_555 1_555
C11 N3 1_555 1_555
C15 N3 1_555 1_555
C17 C18 1_555 1_555
C20 N4 1_555 1_555
C25 N5 1_555 1_555
C26 N6 1_555 1_555
C27 C28 1_555 1_555
C30 N6 1_555 1_555
C31 O2 1_555 1_555

#END
