
#######################################################################
#
#                 Cambridge Crystallographic Data Centre
#                                CCDC 
#
#######################################################################
#
# If this CIF has been generated from an entry in the Cambridge 
# Structural Database, then it will include bibliographic, chemical, 
# crystal, experimental, refinement or atomic coordinate data resulting 
# from the CCDC's data processing and validation procedures.
#
#######################################################################

data_ISEGET
_symmetry_cell_setting           rhombohedral
_symmetry_space_group_name_H-M   'R 3 c'
_symmetry_Int_Tables_number      161
_space_group_name_Hall           'R 3 -2"c'
loop_
_symmetry_equiv_pos_site_id
_symmetry_equiv_pos_as_xyz
1 x,y,z
2 -y,x-y,z
3 -x+y,-x,z
4 -y,-x,1/2+z
5 -x+y,y,1/2+z
6 x,x-y,1/2+z
7 2/3+x,1/3+y,1/3+z
8 2/3-y,1/3+x-y,1/3+z
9 2/3-x+y,1/3-x,1/3+z
10 2/3-y,1/3-x,5/6+z
11 2/3-x+y,1/3+y,5/6+z
12 2/3+x,1/3+x-y,5/6+z
13 1/3+x,2/3+y,2/3+z
14 1/3-y,2/3+x-y,2/3+z
15 1/3-x+y,2/3-x,2/3+z
16 1/3-y,2/3-x,1/6+z
17 1/3-x+y,2/3+y,1/6+z
18 1/3+x,2/3+x-y,1/6+z
_cell_length_a                   10.3579(14)
_cell_length_b                   10.3579(14)
_cell_length_c                   38.158(3)
_cell_angle_alpha                90
_cell_angle_beta                 90
_cell_angle_gamma                120
_cell_volume                     3545.35
loop_
_atom_site_label
_atom_site_type_symbol
_atom_site_fract_x
_atom_site_fract_y
_atom_site_fract_z
Co1 Co 0.6667 0.3333 0.83700(2)
K1 K 0.6667 0.3333 0.74621(3)
N1 N 0.5786(4) -0.0447(4) 0.77468(8)
H1 H 0.5351 -0.0261 0.7578
O1 O 0.5875(3) 0.1501(3) 0.80333(7)
C1 C 0.6221(5) 0.0494(5) 0.80343(10)
C2 C 0.7016(5) 0.0180(4) 0.82996(10)
C3 C 0.7193(6) -0.1024(5) 0.82549(13)
H2 H 0.7688 -0.1233 0.8430
C4 C 0.6675(7) -0.1978(6) 0.79607(14)
H3 H 0.6803 -0.2802 0.7942
C5 C 0.5984(6) -0.1632(5) 0.77080(13)
H4 H 0.5643 -0.2213 0.7507
O2 O 0.7470(4) 0.2244(4) 0.86738(6)
O3 O 0.8132(4) 0.0668(4) 0.88601(8)
C6 C 0.7560(5) 0.1105(6) 0.86305(12)
K1O K 1.0000 -0.0000 0.91288(3)
K1Q K 1.0000 1.0001 0.91288(3)
K1P K -0.0001 -0.0000 0.91288(3)
N1A N 1.0447(4) 0.6233(6) 0.77468(8)
N1B N 0.3767(6) 0.4214(4) 0.77468(8)
H1A H 1.0261 0.5612 0.7578
H1B H 0.4388 0.4649 0.7578
O1A O 0.8499(3) 0.4374(4) 0.80333(7)
O1B O 0.5626(4) 0.4125(3) 0.80333(7)
C1A C 0.9506(5) 0.5727(7) 0.80343(10)
C1B C 0.4273(7) 0.3779(5) 0.80343(10)
C2A C 0.9820(4) 0.6836(6) 0.82996(10)
C2B C 0.3164(6) 0.2984(5) 0.82996(10)
C3A C 1.1024(5) 0.8217(8) 0.82549(13)
C3B C 0.1783(8) 0.2807(6) 0.82549(13)
H2A H 1.1233 0.8921 0.8430
H2B H 0.1079 0.2312 0.8430
C4A C 1.1978(6) 0.8653(9) 0.79607(14)
C4B C 0.1347(9) 0.3325(7) 0.79607(14)
H3A H 1.2802 0.9605 0.7942
H3B H 0.0395 0.3197 0.7942
C5A C 1.1632(5) 0.7616(8) 0.77080(13)
C5B C 0.2384(8) 0.4016(6) 0.77080(13)
H4A H 1.2213 0.7856 0.7507
H4B H 0.2144 0.4357 0.7507
O2A O 0.7756(4) 0.5226(6) 0.86738(6)
O2B O 0.4774(6) 0.2530(4) 0.86738(6)
O3A O 0.9332(4) 0.7464(6) 0.88601(8)
O3B O 0.2536(6) 0.1868(4) 0.88601(8)
O3I O 0.5999(4) 0.5201(4) 0.71934(8)
O3J O 0.9203(6) 0.4001(4) 0.71934(8)
O3K O 0.4799(4) 0.0797(6) 0.71934(8)
C6A C 0.8895(6) 0.6455(8) 0.86305(12)
C6B C 0.3545(8) 0.2440(5) 0.86305(12)
loop_
_geom_bond_atom_site_label_1
_geom_bond_atom_site_label_2
_geom_bond_site_symmetry_1
_geom_bond_site_symmetry_2
Co1 O1 1_555 1_555
K1 O1 1_555 1_555
N1 H1 1_555 1_555
O1 C1 1_555 1_555
C1 N1 1_555 1_555
C2 C1 1_555 1_555
C3 C2 1_555 1_555
H2 C3 1_555 1_555
C4 C3 1_555 1_555
H3 C4 1_555 1_555
C5 N1 1_555 1_555
H4 C5 1_555 1_555
O2 Co1 1_555 1_555
O3 C6 1_555 1_555
C6 C2 1_555 1_555
K1O O3 1_555 1_555
K1Q O3A 1_555 1_555
K1P O3B 1_555 1_555
N1A H1A 1_555 1_555
N1B H1B 1_555 1_555
O1A Co1 1_555 1_555
O1B Co1 1_555 1_555
C1A N1A 1_555 1_555
C1B N1B 1_555 1_555
C2A C1A 1_555 1_555
C2B C1B 1_555 1_555
C3A C2A 1_555 1_555
C3B C2B 1_555 1_555
H2A C3A 1_555 1_555
H2B C3B 1_555 1_555
C4A C3A 1_555 1_555
C4B C3B 1_555 1_555
H3A C4A 1_555 1_555
H3B C4B 1_555 1_555
C5A N1A 1_555 1_555
C5B N1B 1_555 1_555
H4A C5A 1_555 1_555
H4B C5B 1_555 1_555
O2A Co1 1_555 1_555
O2B Co1 1_555 1_555
O3A C6A 1_555 1_555
O3B C6B 1_555 1_555
O3I K1 1_555 1_555
O3J K1 1_555 1_555
O3K K1 1_555 1_555
C6A C2A 1_555 1_555
C6B C2B 1_555 1_555
K1 O1A 1_555 1_555
K1 O1B 1_555 1_555
C4 C5 1_555 1_555
O2 C6 1_555 1_555
O1A C1A 1_555 1_555
O1B C1B 1_555 1_555
C4A C5A 1_555 1_555
C4B C5B 1_555 1_555
O2A C6A 1_555 1_555
O2B C6B 1_555 1_555

#END
