
#######################################################################
#
#                 Cambridge Crystallographic Data Centre
#                                CCDC 
#
#######################################################################
#
# If this CIF has been generated from an entry in the Cambridge 
# Structural Database, then it will include bibliographic, chemical, 
# crystal, experimental, refinement or atomic coordinate data resulting 
# from the CCDC's data processing and validation procedures.
#
#######################################################################

data_ISEGAP
_symmetry_cell_setting           rhombohedral
_symmetry_space_group_name_H-M   'R 3 c'
_symmetry_Int_Tables_number      161
_space_group_name_Hall           'R 3 -2"c'
loop_
_symmetry_equiv_pos_site_id
_symmetry_equiv_pos_as_xyz
1 x,y,z
2 -y,x-y,z
3 -x+y,-x,z
4 -y,-x,1/2+z
5 -x+y,y,1/2+z
6 x,x-y,1/2+z
7 2/3+x,1/3+y,1/3+z
8 2/3-y,1/3+x-y,1/3+z
9 2/3-x+y,1/3-x,1/3+z
10 2/3-y,1/3-x,5/6+z
11 2/3-x+y,1/3+y,5/6+z
12 2/3+x,1/3+x-y,5/6+z
13 1/3+x,2/3+y,2/3+z
14 1/3-y,2/3+x-y,2/3+z
15 1/3-x+y,2/3-x,2/3+z
16 1/3-y,2/3-x,1/6+z
17 1/3-x+y,2/3+y,1/6+z
18 1/3+x,2/3+x-y,1/6+z
_cell_length_a                   10.2398(14)
_cell_length_b                   10.2398(14)
_cell_length_c                   38.089(8)
_cell_angle_alpha                90
_cell_angle_beta                 90
_cell_angle_gamma                120
_cell_volume                     3458.7
loop_
_atom_site_label
_atom_site_type_symbol
_atom_site_fract_x
_atom_site_fract_y
_atom_site_fract_z
Ni1 Ni 0.6667 0.3333 0.836654(19)
K1 K 0.6667 0.3333 0.74655(4)
N1 N 0.5745(4) -0.0428(4) 0.77555(11)
H1 H 0.5287 -0.0249 0.7589
O1 O 0.5813(3) 0.1508(4) 0.80447(7)
C1 C 0.6188(5) 0.0500(4) 0.80401(12)
C2 C 0.6980(5) 0.0190(5) 0.83047(13)
C3 C 0.7212(7) -0.1007(6) 0.82604(16)
H2 H 0.7724 -0.1213 0.8434
C4 C 0.6703(10) -0.1927(8) 0.79633(18)
H3 H 0.6866 -0.2738 0.7938
C5 C 0.5970(7) -0.1607(7) 0.77153(17)
H4 H 0.5618 -0.2203 0.7515
O2 O 0.7503(3) 0.2307(3) 0.86768(7)
O3 O 0.8088(5) 0.0665(5) 0.88668(11)
C6 C 0.7563(5) 0.1125(5) 0.86338(12)
K1O K 1.0000 -0.0000 0.91322(4)
K1Q K 1.0000 1.0001 0.91322(4)
K1P K -0.0001 -0.0000 0.91322(4)
N1A N 1.0428(4) 0.6173(6) 0.77555(11)
N1B N 0.3827(6) 0.4255(4) 0.77555(11)
H1A H 1.0249 0.5536 0.7589
H1B H 0.4464 0.4713 0.7589
O1A O 0.8492(4) 0.4305(5) 0.80447(7)
O1B O 0.5695(5) 0.4187(3) 0.80447(7)
C1A C 0.9500(4) 0.5688(6) 0.80401(12)
C1B C 0.4312(6) 0.3812(5) 0.80401(12)
C2A C 0.9810(5) 0.6790(7) 0.83047(13)
C2B C 0.3210(7) 0.3020(5) 0.83047(13)
C3A C 1.1007(6) 0.8219(9) 0.82604(16)
C3B C 0.1781(9) 0.2788(7) 0.82604(16)
H2A H 1.1213 0.8937 0.8434
H2B H 0.1063 0.2276 0.8434
C4A C 1.1927(8) 0.8630(13) 0.79633(18)
C4B C 0.1370(13) 0.3297(10) 0.79633(18)
H3A H 1.2738 0.9604 0.7938
H3B H 0.0396 0.3134 0.7938
C5A C 1.1607(7) 0.7577(10) 0.77153(17)
C5B C 0.2423(10) 0.4030(7) 0.77153(17)
H4A H 1.2203 0.7821 0.7515
H4B H 0.2179 0.4382 0.7515
O2A O 0.7693(3) 0.5196(4) 0.86768(7)
O2B O 0.4804(4) 0.2497(3) 0.86768(7)
O3A O 0.9335(5) 0.7423(7) 0.88668(11)
O3B O 0.2577(7) 0.1912(5) 0.88668(11)
O3I O 0.6002(5) 0.5245(5) 0.72001(11)
O3J O 0.9244(7) 0.3998(5) 0.72001(11)
O3K O 0.4755(5) 0.0756(7) 0.72001(11)
C6A C 0.8875(5) 0.6438(7) 0.86338(12)
C6B C 0.3562(7) 0.2437(5) 0.86338(12)
loop_
_geom_bond_atom_site_label_1
_geom_bond_atom_site_label_2
_geom_bond_site_symmetry_1
_geom_bond_site_symmetry_2
Ni1 O1 1_555 1_555
K1 O1 1_555 1_555
N1 H1 1_555 1_555
O1 C1 1_555 1_555
C1 N1 1_555 1_555
C2 C1 1_555 1_555
C3 C2 1_555 1_555
H2 C3 1_555 1_555
C4 C3 1_555 1_555
H3 C4 1_555 1_555
C5 N1 1_555 1_555
H4 C5 1_555 1_555
O2 Ni1 1_555 1_555
O3 C6 1_555 1_555
C6 C2 1_555 1_555
K1O O3 1_555 1_555
K1Q O3A 1_555 1_555
K1P O3B 1_555 1_555
N1A H1A 1_555 1_555
N1B H1B 1_555 1_555
O1A Ni1 1_555 1_555
O1B Ni1 1_555 1_555
C1A N1A 1_555 1_555
C1B N1B 1_555 1_555
C2A C1A 1_555 1_555
C2B C1B 1_555 1_555
C3A C2A 1_555 1_555
C3B C2B 1_555 1_555
H2A C3A 1_555 1_555
H2B C3B 1_555 1_555
C4A C3A 1_555 1_555
C4B C3B 1_555 1_555
H3A C4A 1_555 1_555
H3B C4B 1_555 1_555
C5A N1A 1_555 1_555
C5B N1B 1_555 1_555
H4A C5A 1_555 1_555
H4B C5B 1_555 1_555
O2A Ni1 1_555 1_555
O2B Ni1 1_555 1_555
O3A C6A 1_555 1_555
O3B C6B 1_555 1_555
O3I K1 1_555 1_555
O3J K1 1_555 1_555
O3K K1 1_555 1_555
C6A C2A 1_555 1_555
C6B C2B 1_555 1_555
K1 O1A 1_555 1_555
K1 O1B 1_555 1_555
C4 C5 1_555 1_555
O2 C6 1_555 1_555
O1A C1A 1_555 1_555
O1B C1B 1_555 1_555
C4A C5A 1_555 1_555
C4B C5B 1_555 1_555
O2A C6A 1_555 1_555
O2B C6B 1_555 1_555

#END
