
#######################################################################
#
#                 Cambridge Crystallographic Data Centre
#                                CCDC 
#
#######################################################################
#
# If this CIF has been generated from an entry in the Cambridge 
# Structural Database, then it will include bibliographic, chemical, 
# crystal, experimental, refinement or atomic coordinate data resulting 
# from the CCDC's data processing and validation procedures.
#
#######################################################################

data_ISELUO
_symmetry_cell_setting           monoclinic
_symmetry_space_group_name_H-M   'P 21/c'
_symmetry_Int_Tables_number      14
_space_group_name_Hall           '-P 2ybc'
loop_
_symmetry_equiv_pos_site_id
_symmetry_equiv_pos_as_xyz
1 x,y,z
2 -x,1/2+y,1/2-z
3 -x,-y,-z
4 x,1/2-y,1/2+z
_cell_length_a                   12.2949(8)
_cell_length_b                   30.3993(13)
_cell_length_c                   13.1049(9)
_cell_angle_alpha                90
_cell_angle_beta                 109.963(7)
_cell_angle_gamma                90
_cell_volume                     4603.73
loop_
_atom_site_label
_atom_site_type_symbol
_atom_site_fract_x
_atom_site_fract_y
_atom_site_fract_z
C1 C 1.0434(6) 0.1262(2) 0.2226(6)
H1 H 1.0560 0.0961 0.2338
C2 C 1.1395(6) 0.1538(2) 0.2511(8)
H2 H 1.2139 0.1423 0.2791
C3 C 1.1227(5) 0.1976(2) 0.2372(7)
H3 H 1.1854 0.2168 0.2559
C4 C 1.0104(5) 0.21352(18) 0.1946(5)
C5 C 0.9177(4) 0.18357(16) 0.1652(4)
C6 C 0.7985(4) 0.19889(16) 0.1176(4)
C7 C 0.6055(4) 0.18065(18) 0.0423(4)
H4 H 0.5481 0.1593 0.0204
C8 C 0.5732(5) 0.22476(19) 0.0308(4)
H5 H 0.4954 0.2325 0.0021
C9 C 0.6567(4) 0.25690(18) 0.0620(4)
H6 H 0.6364 0.2865 0.0544
C10 C 0.7729(4) 0.24420(16) 0.1055(4)
C11 C 0.8695(5) 0.27345(16) 0.1383(4)
C12 C 0.9816(5) 0.25906(17) 0.1766(5)
C13 C 0.9914(5) 0.32847(19) 0.1669(5)
C14 C 1.0308(5) 0.3741(2) 0.1583(6)
C15 C 1.0391(6) 0.3891(2) 0.0633(7)
C16 C 1.0781(7) 0.4312(3) 0.0516(8)
H7 H 1.0838 0.4406 -0.0140
C17 C 1.0623(8) 0.4023(3) 0.2458(8)
C18 C 1.1019(8) 0.4464(3) 0.2323(8)
H8 H 1.1234 0.4663 0.2897
C19 C 1.1066(8) 0.4574(3) 0.1369(8)
H9 H 1.1318 0.4857 0.1290
C20 C 0.8689(5) 0.18503(19) 0.8926(4)
H10 H 0.9302 0.1653 0.9170
C21 C 0.8937(5) 0.22966(19) 0.8997(5)
H11 H 0.9698 0.2395 0.9271
C22 C 0.8037(5) 0.25900(18) 0.8654(4)
H12 H 0.8181 0.2891 0.8699
C23 C 0.6905(4) 0.24328(17) 0.8237(4)
C24 C 0.6730(4) 0.19749(16) 0.8173(4)
C25 C 0.5567(5) 0.17845(17) 0.7761(5)
C26 C 0.4414(6) 0.1180(2) 0.7378(7)
H13 H 0.4340 0.0875 0.7334
C27 C 0.3430(7) 0.1425(3) 0.7098(7)
H14 H 0.2712 0.1288 0.6898
C28 C 0.3498(6) 0.1873(2) 0.7111(7)
H15 H 0.2831 0.2044 0.6891
C29 C 0.4590(5) 0.20671(19) 0.7462(5)
C30 C 0.4785(5) 0.25277(18) 0.7524(5)
C31 C 0.5880(5) 0.26988(17) 0.7883(4)
C32 C 0.4600(6) 0.3218(2) 0.7458(7)
C33 C 0.4135(5) 0.36741(16) 0.7340(6)
C34 C 0.3545(6) 0.3842(2) 0.6313(5)
C35 C 0.3034(6) 0.4255(2) 0.6203(5)
H16 H 0.2639 0.4368 0.5516
C36 C 0.3113(6) 0.45006(17) 0.7121(7)
H17 H 0.2771 0.4777 0.7048
C37 C 0.3702(6) 0.4333(2) 0.8148(5)
H18 H 0.3755 0.4497 0.8762
C38 C 0.4213(5) 0.3919(2) 0.8258(4)
C39 C 0.5872(5) 0.04110(18) -0.0542(5)
C40 C 0.5146(5) 0.00311(18) -0.0432(5)
H19 H 0.4891 -0.0170 -0.1000
C41 C 0.9002(5) 0.04611(17) 0.0210(5)
C42 C 0.9692(5) 0.01669(18) -0.0256(5)
H20 H 0.9681 0.0226 -0.0956
C43 C 0.7537(5) 0.08721(19) 0.3374(5)
C44 C 0.7403(5) 0.09197(18) 0.4453(5)
H21 H 0.7089 0.1185 0.4575
C45 C 0.7666(6) 0.0641(2) 0.5242(5)
H22 H 0.7961 0.0367 0.5156
C46 C 0.7505(5) 0.0750(2) 0.6283(5)
N1 N 0.7142(4) 0.16812(13) 0.0831(3)
N2 N 0.9364(4) 0.13991(14) 0.1809(4)
N3 N 0.8762(4) 0.31830(14) 0.1341(4)
H23 H 0.8192 0.3365 0.1147
N4 N 1.0580(4) 0.29411(16) 0.1944(5)
N5 N 0.7629(4) 0.16899(14) 0.8532(3)
N6 N 0.5454(4) 0.13451(14) 0.7703(4)
N7 N 0.3984(4) 0.28585(16) 0.7274(6)
N8 N 0.5748(4) 0.31453(14) 0.7842(4)
H24 H 0.6288 0.3340 0.8025
O1 O 0.7175(4) 0.11925(14) 0.2735(3)
O2 O 0.7990(5) 0.05632(15) 0.3104(4)
O3 O 0.7336(4) 0.11380(14) 0.6493(3)
O4 O 0.7571(5) 0.04541(16) 0.6954(4)
O5 O 0.6122(4) 0.07032(13) 0.0150(4)
O6 O 0.6152(4) 0.03988(13) -0.1368(4)
O7 O 0.8627(3) 0.08120(12) -0.0302(3)
O8 O 0.8868(4) 0.03661(12) 0.1078(3)
Cd1 Cd 0.77801(4) 0.093818(12) 0.13487(3)
Cd2 Cd 0.71391(4) 0.093970(12) 0.81821(3)
Cl1 Cl 1.0128(3) 0.35481(10) -0.0389(2)
Cl2 Cl 0.4697(3) 0.36963(15) 0.9505(4)
F1 F 1.0600(6) 0.38842(15) 0.3493(4)
F2 F 0.3396(7) 0.3598(2) 0.5348(7)
C1B C -0.0434(6) -0.1262(2) -0.2226(6)
H1B H -0.0560 -0.0961 -0.2338
C2B C -0.1395(6) -0.1538(2) -0.2511(8)
H2B H -0.2139 -0.1423 -0.2791
C3B C -0.1227(5) -0.1976(2) -0.2372(7)
H3B H -0.1854 -0.2168 -0.2559
C4B C -0.0104(5) -0.21352(18) -0.1946(5)
C5B C 0.0823(4) -0.18357(16) -0.1652(4)
C6B C 0.2015(4) -0.19889(16) -0.1176(4)
C7B C 0.3945(4) -0.18065(18) -0.0423(4)
H4B H 0.4519 -0.1593 -0.0204
C8B C 0.4268(5) -0.22476(19) -0.0308(4)
H5B H 0.5046 -0.2325 -0.0021
C9B C 0.3433(4) -0.25690(18) -0.0620(4)
H6B H 0.3636 -0.2865 -0.0544
C10B C 0.2271(4) -0.24420(16) -0.1055(4)
C11B C 0.1305(5) -0.27345(16) -0.1383(4)
C12B C 0.0184(5) -0.25906(17) -0.1766(5)
C13B C 0.0086(5) -0.32847(19) -0.1669(5)
C14B C -0.0308(5) -0.3741(2) -0.1583(6)
C15B C -0.0391(6) -0.3891(2) -0.0633(7)
C16B C -0.0781(7) -0.4312(3) -0.0516(8)
H7B H -0.0838 -0.4406 0.0140
C17B C -0.0623(8) -0.4023(3) -0.2458(8)
C18B C -0.1019(8) -0.4464(3) -0.2323(8)
H8B H -0.1234 -0.4663 -0.2897
C19B C -0.1066(8) -0.4574(3) -0.1369(8)
H9B H -0.1318 -0.4857 -0.1290
C20_2 C 0.8689(5) 0.18503(19) -0.1074(4)
H10_2 H 0.9302 0.1653 -0.0830
C21_2 C 0.8937(5) 0.22966(19) -0.1003(5)
H11_2 H 0.9698 0.2395 -0.0729
C22_2 C 0.8037(5) 0.25900(18) -0.1346(4)
H12_2 H 0.8181 0.2891 -0.1301
C23_2 C 0.6905(4) 0.24328(17) -0.1763(4)
C24_2 C 0.6730(4) 0.19749(16) -0.1827(4)
C25_2 C 0.5567(5) 0.17845(17) -0.2239(5)
C26_2 C 0.4414(6) 0.1180(2) -0.2622(7)
H13_2 H 0.4340 0.0875 -0.2666
C27_2 C 0.3430(7) 0.1425(3) -0.2902(7)
H14_2 H 0.2712 0.1288 -0.3102
C28_2 C 0.3498(6) 0.1873(2) -0.2889(7)
H15_2 H 0.2831 0.2044 -0.3109
C29_2 C 0.4590(5) 0.20671(19) -0.2538(5)
C30_2 C 0.4785(5) 0.25277(18) -0.2476(5)
C31_2 C 0.5880(5) 0.26988(17) -0.2117(4)
C32_2 C 0.4600(6) 0.3218(2) -0.2542(7)
C33_2 C 0.4135(5) 0.36741(16) -0.2660(6)
C34_2 C 0.3545(6) 0.3842(2) -0.3687(5)
C35_2 C 0.3034(6) 0.4255(2) -0.3797(5)
H16_2 H 0.2639 0.4368 -0.4484
C36_2 C 0.3113(6) 0.45006(17) -0.2879(7)
H17_2 H 0.2771 0.4777 -0.2952
C37_2 C 0.3702(6) 0.4333(2) -0.1852(5)
H18_2 H 0.3755 0.4497 -0.1238
C38_2 C 0.4213(5) 0.3919(2) -0.1742(4)
C39B C 0.4128(5) -0.04110(18) 0.0542(5)
C40B C 0.4854(5) -0.00311(18) 0.0432(5)
H19B H 0.5109 0.0170 0.1000
C41B C 1.0998(5) -0.04611(17) -0.0210(5)
C42B C 1.0308(5) -0.01669(18) 0.0256(5)
H20B H 1.0319 -0.0226 0.0956
C43B C 0.2463(5) -0.08721(19) -0.3374(5)
C44B C 0.2597(5) -0.09197(18) -0.4453(5)
H21B H 0.2911 -0.1185 -0.4575
C45B C 0.2334(6) -0.0641(2) -0.5242(5)
H22B H 0.2039 -0.0367 -0.5156
C46B C 0.2495(5) -0.0750(2) -0.6283(5)
N1B N 0.2858(4) -0.16812(13) -0.0831(3)
N2B N 0.0636(4) -0.13991(14) -0.1809(4)
N3B N 0.1238(4) -0.31830(14) -0.1341(4)
H23B H 0.1808 -0.3365 -0.1147
N4B N -0.0580(4) -0.29411(16) -0.1944(5)
N5_2 N 0.7629(4) 0.16899(14) -0.1468(3)
N6_2 N 0.5454(4) 0.13451(14) -0.2297(4)
N7_2 N 0.3984(4) 0.28585(16) -0.2726(6)
N8_2 N 0.5748(4) 0.31453(14) -0.2158(4)
H24_2 H 0.6288 0.3340 -0.1975
O1B O 0.2825(4) -0.11925(14) -0.2735(3)
O2B O 0.2010(5) -0.05632(15) -0.3104(4)
O3B O 0.2664(4) -0.11380(14) -0.6493(3)
O3_2 O 0.7336(4) 0.11380(14) -0.3507(3)
O4B O 0.2429(5) -0.04541(16) -0.6954(4)
O4_2 O 0.7571(5) 0.04541(16) -0.3046(4)
O5B O 0.3878(4) -0.07032(13) -0.0150(4)
O6B O 0.3848(4) -0.03988(13) 0.1368(4)
O6_2 O 0.6152(4) 0.03988(13) 0.8632(4)
O7B O 1.1373(3) -0.08120(12) 0.0302(3)
O7_2 O 0.8627(3) 0.08120(12) 0.9698(3)
O8B O 1.1132(4) -0.03661(12) -0.1078(3)
O8B_2 O 0.1132(4) -0.03661(12) -0.1078(3)
Cd1B Cd 0.22199(4) -0.093818(12) -0.13487(3)
Cd1B_2 Cd 1.22199(4) -0.093818(12) -0.13487(3)
Cd2_2 Cd 0.71391(4) 0.093970(12) -0.18179(3)
Cd2B Cd 0.28609(4) -0.093970(12) 0.18179(3)
Cd2B_2 Cd 1.28609(4) -0.093970(12) 0.18179(3)
Cd2B_3 Cd 0.28609(4) -0.093970(12) -0.81821(3)
Cl1B Cl -0.0128(3) -0.35481(10) 0.0389(2)
Cl2_2 Cl 0.4697(3) 0.36963(15) -0.0495(4)
F1B F -0.0600(6) -0.38842(15) -0.3493(4)
F2_2 F 0.3396(7) 0.3598(2) -0.4652(7)
O9 O 0.9006(13) -0.0262(4) 0.6734(12)
loop_
_geom_bond_atom_site_label_1
_geom_bond_atom_site_label_2
_geom_bond_site_symmetry_1
_geom_bond_site_symmetry_2
C1 H1 1_555 1_555
C2 C1 1_555 1_555
H2 C2 1_555 1_555
C3 C2 1_555 1_555
H3 C3 1_555 1_555
C4 C3 1_555 1_555
C5 C4 1_555 1_555
C6 C5 1_555 1_555
C7 H4 1_555 1_555
C8 C7 1_555 1_555
H5 C8 1_555 1_555
C9 C8 1_555 1_555
H6 C9 1_555 1_555
C10 C6 1_555 1_555
C11 C10 1_555 1_555
C12 C4 1_555 1_555
C13 C14 1_555 1_555
C14 C15 1_555 1_555
C15 C16 1_555 1_555
C16 H7 1_555 1_555
C17 C14 1_555 1_555
C18 C17 1_555 1_555
H8 C18 1_555 1_555
C19 C16 1_555 1_555
H9 C19 1_555 1_555
C20 H10 1_555 1_555
C21 C20 1_555 1_555
H11 C21 1_555 1_555
C22 C21 1_555 1_555
H12 C22 1_555 1_555
C23 C22 1_555 1_555
C24 C23 1_555 1_555
C25 C24 1_555 1_555
C26 H13 1_555 1_555
C27 C26 1_555 1_555
H14 C27 1_555 1_555
C28 C27 1_555 1_555
H15 C28 1_555 1_555
C29 C25 1_555 1_555
C30 C29 1_555 1_555
C31 C23 1_555 1_555
C32 C33 1_555 1_555
C33 C34 1_555 1_555
C34 C35 1_555 1_555
C35 H16 1_555 1_555
C36 C35 1_555 1_555
H17 C36 1_555 1_555
C37 C36 1_555 1_555
H18 C37 1_555 1_555
C38 C33 1_555 1_555
C39 C40 1_555 1_555
C40 H19 1_555 1_555
C41 C42 1_555 1_555
C42 H20 1_555 1_555
C43 C44 1_555 1_555
C44 H21 1_555 1_555
C45 C44 1_555 1_555
H22 C45 1_555 1_555
C46 C45 1_555 1_555
N1 C6 1_555 1_555
N2 C1 1_555 1_555
N3 C11 1_555 1_555
H23 N3 1_555 1_555
N4 C12 1_555 1_555
N5 C20 1_555 1_555
N6 C25 1_555 1_555
N7 C30 1_555 1_555
N8 C31 1_555 1_555
H24 N8 1_555 1_555
O1 C43 1_555 1_555
O2 C43 1_555 1_555
O3 C46 1_555 1_555
O4 C46 1_555 1_555
O5 C39 1_555 1_555
O6 C39 1_555 1_555
O7 C41 1_555 1_555
O8 C41 1_555 1_555
Cd1 N1 1_555 1_555
Cd2 N5 1_555 1_555
Cl1 C15 1_555 1_555
Cl2 C38 1_555 1_555
F1 C17 1_555 1_555
F2 C34 1_555 1_555
C1B H1B 1_555 1_555
C2B C1B 1_555 1_555
H2B C2B 1_555 1_555
C3B C2B 1_555 1_555
H3B C3B 1_555 1_555
C4B C3B 1_555 1_555
C5B C4B 1_555 1_555
C6B C5B 1_555 1_555
C7B H4B 1_555 1_555
C8B C7B 1_555 1_555
H5B C8B 1_555 1_555
C9B C8B 1_555 1_555
H6B C9B 1_555 1_555
C10B C6B 1_555 1_555
C11B C10B 1_555 1_555
C12B C4B 1_555 1_555
C13B C14B 1_555 1_555
C14B C15B 1_555 1_555
C15B C16B 1_555 1_555
C16B H7B 1_555 1_555
C17B C14B 1_555 1_555
C18B C17B 1_555 1_555
H8B C18B 1_555 1_555
C19B C16B 1_555 1_555
H9B C19B 1_555 1_555
C20_2 H10_2 1_555 1_555
C21_2 C20_2 1_555 1_555
H11_2 C21_2 1_555 1_555
C22_2 C21_2 1_555 1_555
H12_2 C22_2 1_555 1_555
C23_2 C22_2 1_555 1_555
C24_2 C23_2 1_555 1_555
C25_2 C24_2 1_555 1_555
C26_2 H13_2 1_555 1_555
C27_2 C26_2 1_555 1_555
H14_2 C27_2 1_555 1_555
C28_2 C27_2 1_555 1_555
H15_2 C28_2 1_555 1_555
C29_2 C25_2 1_555 1_555
C30_2 C29_2 1_555 1_555
C31_2 C23_2 1_555 1_555
C32_2 C33_2 1_555 1_555
C33_2 C34_2 1_555 1_555
C34_2 C35_2 1_555 1_555
C35_2 H16_2 1_555 1_555
C36_2 C35_2 1_555 1_555
H17_2 C36_2 1_555 1_555
C37_2 C36_2 1_555 1_555
H18_2 C37_2 1_555 1_555
C38_2 C33_2 1_555 1_555
C39B C40B 1_555 1_555
C40B C40 1_555 1_555
H19B C40B 1_555 1_555
C41B C42B 1_555 1_555
C42B C42 1_555 1_555
H20B C42B 1_555 1_555
C43B C44B 1_555 1_555
C44B H21B 1_555 1_555
C45B C44B 1_555 1_555
H22B C45B 1_555 1_555
C46B C45B 1_555 1_555
N1B C6B 1_555 1_555
N2B C1B 1_555 1_555
N3B C11B 1_555 1_555
H23B N3B 1_555 1_555
N4B C12B 1_555 1_555
N5_2 C20_2 1_555 1_555
N6_2 C25_2 1_555 1_555
N7_2 C30_2 1_555 1_555
N8_2 C31_2 1_555 1_555
H24_2 N8_2 1_555 1_555
O1B C43B 1_555 1_555
O2B C43B 1_555 1_555
O3B C46B 1_555 1_555
O3_2 Cd2_2 1_555 1_555
O4B C46B 1_555 1_555
O4_2 Cd2_2 1_555 1_555
O5B C39B 1_555 1_555
O6B C39B 1_555 1_555
O6_2 Cd2 1_555 1_555
O7B C41B 1_555 1_555
O7_2 Cd2 1_555 1_555
O8B C41B 1_555 1_555
O8B_2 Cd1B 1_555 1_555
Cd1B N1B 1_555 1_555
Cd1B_2 O8B 1_555 1_555
Cd2_2 O6 1_555 1_555
Cd2B O6B 1_555 1_555
Cd2B_2 O7B 1_555 1_555
Cd2B_3 O3B 1_555 1_555
Cl1B C15B 1_555 1_555
Cl2_2 C38_2 1_555 1_555
F1B C17B 1_555 1_555
F2_2 C34_2 1_555 1_555
C5 N2 1_555 1_555
C7 N1 1_555 1_555
C9 C10 1_555 1_555
C11 C12 1_555 1_555
C13 N3 1_555 1_555
C13 N4 1_555 1_555
C18 C19 1_555 1_555
C24 N5 1_555 1_555
C26 N6 1_555 1_555
C28 C29 1_555 1_555
C30 C31 1_555 1_555
C32 N7 1_555 1_555
C32 N8 1_555 1_555
C37 C38 1_555 1_555
N2 Cd1 1_555 1_555
N6 Cd2 1_555 1_555
O1 Cd1 1_555 1_555
O2 Cd1 1_555 1_555
O3 Cd2 1_555 1_555
O4 Cd2 1_555 1_555
O5 Cd1 1_555 1_555
O7 Cd2_2 1_555 1_555
O8 Cd1 1_555 1_555
C5B N2B 1_555 1_555
C7B N1B 1_555 1_555
C9B C10B 1_555 1_555
C11B C12B 1_555 1_555
C13B N3B 1_555 1_555
C13B N4B 1_555 1_555
C18B C19B 1_555 1_555
C24_2 N5_2 1_555 1_555
C26_2 N6_2 1_555 1_555
C28_2 C29_2 1_555 1_555
C30_2 C31_2 1_555 1_555
C32_2 N7_2 1_555 1_555
C32_2 N8_2 1_555 1_555
C37_2 C38_2 1_555 1_555
N2B Cd1B 1_555 1_555
N5_2 Cd2_2 1_555 1_555
N6_2 Cd2_2 1_555 1_555
O1B Cd1B 1_555 1_555
O2B Cd1B 1_555 1_555
O4B Cd2B_3 1_555 1_555
O5B Cd1B 1_555 1_555

#END
