
#######################################################################
#
#                 Cambridge Crystallographic Data Centre
#                                CCDC 
#
#######################################################################
#
# If this CIF has been generated from an entry in the Cambridge 
# Structural Database, then it will include bibliographic, chemical, 
# crystal, experimental, refinement or atomic coordinate data resulting 
# from the CCDC's data processing and validation procedures.
#
#######################################################################

data_ISEMIC
_symmetry_cell_setting           monoclinic
_symmetry_space_group_name_H-M   'P 21/n'
_symmetry_Int_Tables_number      14
_space_group_name_Hall           '-P 2yn'
loop_
_symmetry_equiv_pos_site_id
_symmetry_equiv_pos_as_xyz
1 x,y,z
2 1/2+x,1/2-y,1/2+z
3 -x,-y,-z
4 1/2-x,1/2+y,1/2-z
_cell_length_a                   7.4061(15)
_cell_length_b                   10.725(2)
_cell_length_c                   26.453(5)
_cell_angle_alpha                90
_cell_angle_beta                 96.11(3)
_cell_angle_gamma                90
_cell_volume                     2089.24
loop_
_atom_site_label
_atom_site_type_symbol
_atom_site_fract_x
_atom_site_fract_y
_atom_site_fract_z
Co1 Co 0.55901(8) 0.24880(6) 0.73098(2)
S1 S 0.97458(15) 0.27260(11) 0.78803(5)
O1 O 0.2818(4) 0.1180(3) 0.97789(12)
O2 O 1.0259(5) 0.1671(3) 0.75638(16)
O3 O 1.1160(4) 0.3693(3) 0.79126(13)
O4 O 0.9426(5) 0.2274(4) 0.83829(15)
O5 O 0.8056(4) 0.3291(3) 0.76246(12)
O6 O 0.4219(5) 0.4109(4) 0.74902(16)
O7 O 0.3138(7) 0.1777(5) 0.6984(2)
O8 O 0.6966(6) 0.0852(4) 0.71277(15)
N1 N 0.4991(5) 0.1770(4) 0.80393(14)
N2 N 0.3002(6) -0.0772(4) 0.95249(16)
N3 N 0.2445(6) -0.0767(4) 1.00147(16)
N4 N 0.1108(5) 0.1810(4) 1.15645(15)
C1 C 0.4452(6) 0.0589(5) 0.80857(17)
H3 H 0.4482 0.0062 0.7807
C2 C 0.3864(6) 0.0112(5) 0.85161(18)
H4 H 0.3501 -0.0716 0.8529
C3 C 0.3815(6) 0.0878(5) 0.89317(17)
C4 C 0.4401(6) 0.2102(5) 0.89032(18)
H5 H 0.4404 0.2641 0.9179
C5 C 0.4976(6) 0.2485(5) 0.84504(17)
H6 H 0.5383 0.3302 0.8430
C6 C 0.3196(6) 0.0390(5) 0.94030(17)
C7 C 0.2351(6) 0.0382(5) 1.01460(18)
C8 C 0.1199(6) 0.0591(5) 1.14764(19)
H7 H 0.1010 0.0044 1.1738
C9 C 0.1561(6) 0.0096(5) 1.10143(19)
H8 H 0.1590 -0.0763 1.0966
C10 C 0.1876(6) 0.0901(5) 1.06263(18)
C11 C 0.1770(8) 0.2163(5) 1.0712(2)
H9 H 0.1968 0.2726 1.0456
C12 C 0.1365(8) 0.2592(6) 1.11830(19)
H10 H 0.1270 0.3446 1.1235
H14 H 0.332(6) 0.393(5) 0.765(2)
H15 H 0.428(7) 0.482(5) 0.740(2)
H16 H 0.682(7) 0.004(7) 0.718(2)
H17 H 0.802(8) 0.100(6) 0.721(3)
H18 H 0.276(9) 0.150(7) 0.667(3)
H19 H 0.258(7) 0.179(6) 0.711(2)
N4A N 0.6108(5) 0.3190(4) 0.65645(15)
Co1A Co 0.05901(8) 0.25120(6) 1.23098(2)
O9 O 0.2203(17) 0.0476(10) 0.6105(4)
H1 H 0.2324 0.1103 0.6283
C13 C 0.105(3) 0.078(3) 0.5607(9)
O10 O 0.5409(15) 0.1165(13) 0.4179(4)
H2 H 0.5251 0.1633 0.3934
C14 C 0.3872(17) 0.1123(14) 0.4418(6)
H11 H 0.4137 0.0740 0.4746
H12 H 0.2964 0.0644 0.4218
H13 H 0.3432 0.1955 0.4460
loop_
_geom_bond_atom_site_label_1
_geom_bond_atom_site_label_2
_geom_bond_site_symmetry_1
_geom_bond_site_symmetry_2
Co1 O5 1_555 1_555
S1 O2 1_555 1_555
O1 C6 1_555 1_555
O3 S1 1_555 1_555
O4 S1 1_555 1_555
O5 S1 1_555 1_555
O6 Co1 1_555 1_555
O7 Co1 1_555 1_555
O8 Co1 1_555 1_555
O9 H1 1_555 1_555
O10 H2 1_555 1_555
N1 Co1 1_555 1_555
N2 N3 1_555 1_555
N3 C7 1_555 1_555
N4 C8 1_555 1_555
C1 N1 1_555 1_555
H3 C1 1_555 1_555
C2 C1 1_555 1_555
H4 C2 1_555 1_555
C3 C2 1_555 1_555
C4 C3 1_555 1_555
H5 C4 1_555 1_555
C5 N1 1_555 1_555
H6 C5 1_555 1_555
C6 N2 1_555 1_555
C7 O1 1_555 1_555
C8 H7 1_555 1_555
C9 C8 1_555 1_555
H8 C9 1_555 1_555
C10 C7 1_555 1_555
C11 C10 1_555 1_555
H9 C11 1_555 1_555
C12 N4 1_555 1_555
H10 C12 1_555 1_555
C13 O9 1_555 1_555
C14 O10 1_555 1_555
H11 C14 1_555 1_555
H12 C14 1_555 1_555
H13 C14 1_555 1_555
H14 O6 1_555 1_555
H15 O6 1_555 1_555
H16 O8 1_555 1_555
H17 O8 1_555 1_555
H18 O7 1_555 1_555
H19 O7 1_555 1_555
N4A Co1 1_555 1_555
Co1A N4 1_555 1_555
C3 C6 1_555 1_555
C4 C5 1_555 1_555
C9 C10 1_555 1_555
C11 C12 1_555 1_555

#END
