
#######################################################################
#
#                 Cambridge Crystallographic Data Centre
#                                CCDC 
#
#######################################################################
#
# If this CIF has been generated from an entry in the Cambridge 
# Structural Database, then it will include bibliographic, chemical, 
# crystal, experimental, refinement or atomic coordinate data resulting 
# from the CCDC's data processing and validation procedures.
#
#######################################################################

data_ISEMOI
_symmetry_cell_setting           monoclinic
_symmetry_space_group_name_H-M   'P 21/c'
_symmetry_Int_Tables_number      14
_space_group_name_Hall           '-P 2ybc'
loop_
_symmetry_equiv_pos_site_id
_symmetry_equiv_pos_as_xyz
1 x,y,z
2 x,1/2-y,1/2+z
3 -x,-y,-z
4 -x,1/2+y,1/2-z
_cell_length_a                   4.1122(8)
_cell_length_b                   13.463(3)
_cell_length_c                   23.674(5)
_cell_angle_alpha                90
_cell_angle_beta                 91.69(3)
_cell_angle_gamma                90
_cell_volume                     1310.08
loop_
_atom_site_label
_atom_site_type_symbol
_atom_site_fract_x
_atom_site_fract_y
_atom_site_fract_z
Cd1 Cd 0.0000 0.5000 0.5000
I1 I -0.5414(2) 0.45599(5) 0.41203(3)
O1 O -0.0533(18) 0.9958(6) 0.3594(3)
C1 C -0.0988(30) 0.6988(9) 0.4190(5)
H1 H -0.1977(30) 0.6496(9) 0.3969(5)
C2 C -0.0873(27) 0.7912(9) 0.3962(5)
H2 H -0.1816(27) 0.8049(9) 0.3609(5)
C3 C 0.0713(26) 0.8645(8) 0.4280(5)
C4 C 0.1960(27) 0.8395(8) 0.4810(5)
H3 H 0.3010(27) 0.8870(8) 0.5035(5)
C5 C 0.1631(28) 0.7436(8) 0.5002(5)
H4 H 0.2456(28) 0.7277(8) 0.5360(5)
C6 C 0.1165(28) 0.9662(8) 0.4070(5)
C7 C 0.0343(26) 1.0926(8) 0.3553(4)
C8 C -0.3738(36) 1.1742(13) 0.2207(6)
H5 H -0.4735(36) 1.1451(13) 0.1891(6)
C9 C -0.2518(33) 1.1102(10) 0.2628(5)
H6 H -0.2727(33) 1.0416(10) 0.2596(5)
C10 C -0.1006(28) 1.1531(9) 0.3088(5)
C11 C -0.0769(35) 1.2545(9) 0.3113(5)
H7 H 0.0265(35) 1.2853(9) 0.3421(5)
C12 C -0.2099(38) 1.3106(11) 0.2672(6)
H8 H -0.1928(38) 1.3794(11) 0.2693(6)
N1 N 0.0159(23) 0.6722(7) 0.4690(4)
N2 N 0.2856(27) 1.0349(7) 0.4301(5)
N3 N 0.2380(26) 1.1204(7) 0.3954(5)
N4 N -0.3603(34) 1.2715(11) 0.2219(5)
I1_2 I 0.4586(2) 0.45599(5) 0.41203(3)
O1B O 0.0533(18) 0.0042(6) 0.6406(3)
C1B C 0.0988(30) 0.3012(9) 0.5810(5)
H1B H 0.1977(30) 0.3504(9) 0.6031(5)
C2B C 0.0873(27) 0.2088(9) 0.6038(5)
H2B H 0.1816(27) 0.1951(9) 0.6391(5)
C3B C -0.0713(26) 0.1355(8) 0.5720(5)
C4B C -0.1960(27) 0.1605(8) 0.5190(5)
H3B H -0.3010(27) 0.1130(8) 0.4965(5)
C5B C -0.1631(28) 0.2564(8) 0.4998(5)
H4B H -0.2456(28) 0.2723(8) 0.4640(5)
C6B C -0.1165(28) 0.0338(8) 0.5930(5)
C7B C -0.0343(26) -0.0926(8) 0.6447(4)
C8B C 0.3738(36) -0.1742(13) 0.7793(6)
H5B H 0.4735(36) -0.1451(13) 0.8109(6)
C9B C 0.2518(33) -0.1102(10) 0.7372(5)
H6B H 0.2727(33) -0.0416(10) 0.7404(5)
C10B C 0.1006(28) -0.1531(9) 0.6912(5)
C11B C 0.0769(35) -0.2545(9) 0.6887(5)
H7B H -0.0265(35) -0.2853(9) 0.6579(5)
C12B C 0.2099(38) -0.3106(11) 0.7328(6)
H8B H 0.1928(38) -0.3794(11) 0.7307(6)
N1B N -0.0159(23) 0.3278(7) 0.5310(4)
N2B N -0.2856(27) -0.0349(7) 0.5699(5)
N3B N -0.2380(26) -0.1204(7) 0.6046(5)
N4B N 0.3603(34) -0.2715(11) 0.7781(5)
I1B I -0.4586(2) 0.54401(5) 0.58797(3)
I1B_2 I 0.5414(2) 0.54401(5) 0.58797(3)
Cd1_2 Cd -1.0000 0.5000 0.5000
Cd1_3 Cd 1.0000 0.5000 0.5000
loop_
_geom_bond_atom_site_label_1
_geom_bond_atom_site_label_2
_geom_bond_site_symmetry_1
_geom_bond_site_symmetry_2
Cd1 I1 1_555 1_555
I1 Cd1_2 1_555 1_555
O1 C6 1_555 1_555
C1 H1 1_555 1_555
C2 C1 1_555 1_555
H2 C2 1_555 1_555
C3 C2 1_555 1_555
C4 C3 1_555 1_555
H3 C4 1_555 1_555
C5 C4 1_555 1_555
H4 C5 1_555 1_555
C6 C3 1_555 1_555
C7 O1 1_555 1_555
C8 H5 1_555 1_555
C9 C8 1_555 1_555
H6 C9 1_555 1_555
C10 C7 1_555 1_555
C11 C10 1_555 1_555
H7 C11 1_555 1_555
C12 C11 1_555 1_555
H8 C12 1_555 1_555
N1 Cd1 1_555 1_555
N2 C6 1_555 1_555
N3 C7 1_555 1_555
N4 C8 1_555 1_555
I1_2 Cd1 1_555 1_555
O1B C6B 1_555 1_555
C1B H1B 1_555 1_555
C2B C1B 1_555 1_555
H2B C2B 1_555 1_555
C3B C2B 1_555 1_555
C4B C3B 1_555 1_555
H3B C4B 1_555 1_555
C5B C4B 1_555 1_555
H4B C5B 1_555 1_555
C6B C3B 1_555 1_555
C7B O1B 1_555 1_555
C8B H5B 1_555 1_555
C9B C8B 1_555 1_555
H6B C9B 1_555 1_555
C10B C7B 1_555 1_555
C11B C10B 1_555 1_555
H7B C11B 1_555 1_555
C12B C11B 1_555 1_555
H8B C12B 1_555 1_555
N1B Cd1 1_555 1_555
N2B C6B 1_555 1_555
N3B C7B 1_555 1_555
N4B C8B 1_555 1_555
I1B Cd1 1_555 1_555
I1B_2 Cd1 1_555 1_555
Cd1_2 I1B 1_555 1_555
Cd1_3 I1_2 1_555 1_555
C1 N1 1_555 1_555
C5 N1 1_555 1_555
C9 C10 1_555 1_555
C12 N4 1_555 1_555
N2 N3 1_555 1_555
C1B N1B 1_555 1_555
C5B N1B 1_555 1_555
C9B C10B 1_555 1_555
C12B N4B 1_555 1_555
N2B N3B 1_555 1_555
I1B_2 Cd1_3 1_555 1_555

#END
