
#######################################################################
#
#                 Cambridge Crystallographic Data Centre
#                                CCDC 
#
#######################################################################
#
# If this CIF has been generated from an entry in the Cambridge 
# Structural Database, then it will include bibliographic, chemical, 
# crystal, experimental, refinement or atomic coordinate data resulting 
# from the CCDC's data processing and validation procedures.
#
#######################################################################

data_ISENEZ
_symmetry_cell_setting           tetragonal
_symmetry_space_group_name_H-M   'P 41 21 2'
_symmetry_Int_Tables_number      92
_space_group_name_Hall           'P 4abw 2nw'
loop_
_symmetry_equiv_pos_site_id
_symmetry_equiv_pos_as_xyz
1 x,y,z
2 -x,-y,1/2+z
3 1/2-y,1/2+x,1/4+z
4 1/2+y,1/2-x,3/4+z
5 y,x,-z
6 -y,-x,1/2-z
7 1/2-x,1/2+y,1/4-z
8 1/2+x,1/2-y,3/4-z
_cell_length_a                   16.513(18)
_cell_length_b                   16.513(18)
_cell_length_c                   39.02(4)
_cell_angle_alpha                90
_cell_angle_beta                 90
_cell_angle_gamma                90
_cell_volume                     10639.9
loop_
_atom_site_label
_atom_site_type_symbol
_atom_site_fract_x
_atom_site_fract_y
_atom_site_fract_z
Zn1 Zn 0.21563(10) 0.84227(10) 0.09700(4)
N1 N 0.2617(7) 0.7622(7) 0.0592(3)
C1 C 0.3419(10) 0.7553(9) 0.0514(4)
H1 H 0.3806 0.7823 0.0644
C2 C 0.3655(10) 0.7068(10) 0.0234(4)
H2 H 0.4196 0.7048 0.0169
C3 C 0.3097(10) 0.6634(11) 0.0060(4)
H3 H 0.3254 0.6275 -0.0111
C4 C 0.2273(10) 0.6732(9) 0.0142(4)
H4 H 0.1883 0.6456 0.0016
C5 C 0.2034(8) 0.7235(8) 0.0410(3)
N2 N 0.0480(7) 0.7170(7) 0.0396(3)
C6 C -0.0091(10) 0.7562(10) 0.0574(4)
C7 C 0.0286(9) 0.8074(9) 0.0797(4)
C8 C 0.1211(10) 0.7431(10) 0.0519(4)
N3 N 0.1087(7) 0.7985(8) 0.0763(3)
C9 C -0.1028(11) 0.7461(11) 0.0522(5)
C10 C -0.1484(11) 0.8123(11) 0.0437(4)
H5 H -0.1225 0.8617 0.0404
C11 C -0.2348(12) 0.8085(13) 0.0397(5)
H6 H -0.2663 0.8538 0.0349
C12 C -0.2677(15) 0.7310(14) 0.0436(5)
H7 H -0.3230 0.7250 0.0400
C13 C -0.2269(14) 0.6668(15) 0.0519(5)
H8 H -0.2534 0.6179 0.0556
C14 C -0.1402(12) 0.6720(12) 0.0553(5)
H9 H -0.1098 0.6256 0.0595
C15 C -0.0144(10) 0.8663(9) 0.1042(4)
C16 C -0.0017(11) 0.9474(11) 0.1012(5)
H10 H 0.0336 0.9686 0.0849
C17 C -0.0463(14) 0.9990(15) 0.1247(6)
H11 H -0.0408 1.0550 0.1236
C18 C -0.0930(14) 0.9667(15) 0.1470(6)
H12 H -0.1203 1.0020 0.1615
C19 C -0.1071(15) 0.8880(15) 0.1517(7)
H13 H -0.1412 0.8691 0.1688
C20 C -0.0661(11) 0.8343(13) 0.1286(5)
H14 H -0.0743 0.7786 0.1300
C21 C 0.0337(11) 0.6579(11) 0.0120(4)
H15 H 0.0697 0.6121 0.0151
H16 H -0.0216 0.6382 0.0135
C22 C 0.0466(12) 0.6922(12) -0.0215(5)
N4 N 0.0624(12) 0.6323(12) -0.0459(5)
C23 C 0.0767(17) 0.661(2) -0.0775(8)
H17 H 0.0909 0.6244 -0.0945
C24 C 0.0716(18) 0.7418(19) -0.0863(8)
H18 H 0.0755 0.7573 -0.1091
C25 C 0.0610(17) 0.7978(19) -0.0619(7)
H19 H 0.0619 0.8528 -0.0670
C26 C 0.0491(13) 0.7713(14) -0.0300(6)
H20 H 0.0421 0.8095 -0.0127
N5 N 0.1727(7) 0.9142(7) 0.1378(3)
C27 C 0.1867(8) 0.9968(8) 0.1353(3)
C28 C 0.1529(10) 1.0527(10) 0.1568(4)
H21 H 0.1616 1.1080 0.1542
C29 C 0.1052(9) 1.0218(10) 0.1827(4)
H22 H 0.0801 1.0580 0.1976
C30 C 0.0930(10) 0.9419(10) 0.1875(4)
H23 H 0.0629 0.9224 0.2059
C31 C 0.1273(8) 0.8908(8) 0.1639(3)
H24 H 0.1179 0.8356 0.1664
N6 N 0.1999(7) 1.2901(7) 0.1159(3)
C32 C 0.2022(8) 1.2152(8) 0.1016(3)
C33 C 0.1450(10) 1.1931(10) 0.0783(4)
H25 H 0.1481 1.1426 0.0678
C34 C 0.0818(12) 1.2457(12) 0.0699(5)
H26 H 0.0408 1.2300 0.0550
C35 C 0.0823(11) 1.3232(11) 0.0847(4)
H27 H 0.0422 1.3607 0.0793
C36 C 0.1420(11) 1.3421(12) 0.1069(4)
H28 H 0.1428 1.3939 0.1163
N7 N 0.2502(7) 0.9554(7) 0.0808(3)
C37 C 0.2349(8) 1.0130(8) 0.1044(3)
N8 N 0.2739(7) 1.0849(7) 0.0948(3)
C38 C 0.3112(9) 1.0712(9) 0.0638(3)
C39 C 0.2977(9) 0.9914(9) 0.0558(4)
C40 C 0.2736(9) 1.1619(9) 0.1117(4)
H29 H 0.3235 1.1901 0.1062
H30 H 0.2725 1.1532 0.1362
C41 C 0.3235(9) 0.9469(10) 0.0239(4)
C42 C 0.2664(11) 0.9095(10) 0.0039(4)
H31 H 0.2120 0.9101 0.0102
C43 C 0.2917(14) 0.8699(12) -0.0267(5)
H32 H 0.2545 0.8444 -0.0410
C44 C 0.3689(14) 0.8704(13) -0.0341(6)
H33 H 0.3831 0.8455 -0.0546
C45 C 0.4301(15) 0.9018(13) -0.0162(6)
H34 H 0.4841 0.8957 -0.0225
C46 C 0.4037(11) 0.9487(11) 0.0156(4)
H35 H 0.4408 0.9773 0.0288
C47 C 0.3574(10) 1.1344(9) 0.0438(4)
C48 C 0.4294(10) 1.1638(10) 0.0544(4)
H36 H 0.4503 1.1458 0.0751
C49 C 0.4734(11) 1.2193(11) 0.0358(4)
H37 H 0.5234 1.2378 0.0435
C50 C 0.4421(12) 1.2456(12) 0.0064(5)
H38 H 0.4699 1.2844 -0.0063
C51 C 0.3704(13) 1.2168(14) -0.0054(6)
H39 H 0.3524 1.2337 -0.0269
C52 C 0.3216(12) 1.1619(12) 0.0136(5)
H40 H 0.2703 1.1457 0.0066
N5F N 0.3273(7) 0.4142(7) 0.1122(3)
C27F C 0.3133(8) 0.4968(8) 0.1147(3)
C28F C 0.3471(10) 0.5527(10) 0.0932(4)
H21F H 0.3384 0.6080 0.0958
C29F C 0.3948(9) 0.5218(10) 0.0673(4)
H22F H 0.4199 0.5580 0.0524
C30F C 0.4070(10) 0.4419(10) 0.0625(4)
H23F H 0.4371 0.4224 0.0441
C31F C 0.3727(8) 0.3908(8) 0.0861(3)
H24F H 0.3821 0.3356 0.0836
N6F N 0.3001(7) 0.7901(7) 0.1341(3)
C32F C 0.2978(8) 0.7152(8) 0.1484(3)
C33F C 0.3550(10) 0.6931(10) 0.1717(4)
H25F H 0.3519 0.6426 0.1822
C34F C 0.4182(12) 0.7457(12) 0.1801(5)
H26F H 0.4592 0.7300 0.1950
C35F C 0.4177(11) 0.8232(11) 0.1653(4)
H27F H 0.4578 0.8607 0.1707
C36F C 0.3580(11) 0.8421(12) 0.1431(4)
H28F H 0.3572 0.8939 0.1337
N7F N 0.2498(7) 0.4554(7) 0.1692(3)
C37F C 0.2651(8) 0.5130(8) 0.1456(3)
N8F N 0.2261(7) 0.5849(7) 0.1552(3)
C38F C 0.1888(9) 0.5712(9) 0.1862(3)
C39F C 0.2023(9) 0.4914(9) 0.1942(4)
C40F C 0.2264(9) 0.6619(9) 0.1383(4)
H29F H 0.1765 0.6901 0.1438
H30F H 0.2275 0.6532 0.1138
C41F C 0.1765(9) 0.4469(10) 0.2261(4)
C42F C 0.2336(11) 0.4095(10) 0.2461(4)
H31F H 0.2880 0.4101 0.2398
C43F C 0.2083(14) 0.3699(12) 0.2767(5)
H32F H 0.2455 0.3444 0.2910
C44F C 0.1311(14) 0.3704(13) 0.2841(6)
H33F H 0.1169 0.3455 0.3046
C45F C 0.0699(15) 0.4018(13) 0.2662(6)
H34F H 0.0159 0.3957 0.2725
C46F C 0.0963(11) 0.4487(11) 0.2344(4)
H35F H 0.0592 0.4773 0.2212
C47F C 0.1426(10) 0.6344(9) 0.2062(4)
C48F C 0.0706(10) 0.6638(10) 0.1956(4)
H36F H 0.0497 0.6458 0.1749
C49F C 0.0266(11) 0.7193(11) 0.2142(4)
H37F H -0.0234 0.7378 0.2065
C50F C 0.0579(12) 0.7456(12) 0.2436(5)
H38F H 0.0301 0.7844 0.2563
C51F C 0.1296(13) 0.7168(14) 0.2554(6)
H39F H 0.1476 0.7337 0.2769
C52F C 0.1784(12) 0.6619(12) 0.2364(5)
H40F H 0.2297 0.6457 0.2434
Zn1F Zn 0.28437(10) 0.34227(10) 0.15300(4)
N1F N 0.2383(7) 0.2622(7) 0.1908(3)
C1F C 0.1581(10) 0.2553(9) 0.1986(4)
H1F H 0.1194 0.2823 0.1856
C2F C 0.1345(10) 0.2068(10) 0.2266(4)
H2F H 0.0804 0.2048 0.2331
C3F C 0.1903(10) 0.1634(11) 0.2440(4)
H3F H 0.1746 0.1275 0.2611
C4F C 0.2727(10) 0.1732(9) 0.2358(4)
H4F H 0.3117 0.1456 0.2484
C5F C 0.2966(8) 0.2235(8) 0.2090(3)
N2F N 0.4520(7) 0.2170(7) 0.2104(3)
C6F C 0.5091(10) 0.2562(10) 0.1926(4)
C7F C 0.4714(9) 0.3074(9) 0.1703(4)
C8F C 0.3789(10) 0.2431(10) 0.1981(4)
N3F N 0.3913(7) 0.2985(8) 0.1737(3)
C9F C 0.6028(11) 0.2461(11) 0.1978(5)
C10F C 0.6484(11) 0.3123(11) 0.2063(4)
H5F H 0.6225 0.3617 0.2096
C11F C 0.7348(12) 0.3085(13) 0.2103(5)
H6F H 0.7663 0.3538 0.2151
C12F C 0.7677(15) 0.2310(14) 0.2064(5)
H7F H 0.8230 0.2250 0.2100
C13F C 0.7269(14) 0.1668(15) 0.1981(5)
H8F H 0.7534 0.1179 0.1944
C14F C 0.6402(12) 0.1720(12) 0.1947(5)
H9F H 0.6098 0.1256 0.1905
C15F C 0.5144(10) 0.3663(9) 0.1458(4)
C16F C 0.5017(11) 0.4474(11) 0.1488(5)
H10F H 0.4664 0.4686 0.1651
C17F C 0.5463(14) 0.4990(15) 0.1253(6)
H11F H 0.5408 0.5550 0.1264
C18F C 0.5930(14) 0.4667(15) 0.1030(6)
H12F H 0.6203 0.5020 0.0885
C19F C 0.6071(15) 0.3880(15) 0.0983(7)
H13F H 0.6412 0.3691 0.0812
C20F C 0.5661(11) 0.3343(13) 0.1214(5)
H14F H 0.5743 0.2786 0.1200
C21F C 0.4663(11) 0.1579(11) 0.2380(4)
H15F H 0.4303 0.1121 0.2349
H16F H 0.5216 0.1382 0.2365
C22F C 0.4534(12) 0.1922(12) 0.2715(5)
N4F N 0.4376(12) 0.1323(12) 0.2959(5)
C23F C 0.4233(17) 0.161(2) 0.3275(8)
H17F H 0.4091 0.1244 0.3445
C24F C 0.4284(18) 0.2418(19) 0.3363(8)
H18F H 0.4245 0.2573 0.3591
C25F C 0.4390(17) 0.2978(19) 0.3119(7)
H19F H 0.4381 0.3528 0.3170
C26F C 0.4509(13) 0.2713(14) 0.2800(6)
H20F H 0.4579 0.3095 0.2627
Zn1F_2 Zn 0.28437(10) 1.34227(10) 0.15300(4)
N6_2 N 0.1999(7) 0.2901(7) 0.1159(3)
Cl1 Cl 0.5591(3) 0.5591(3) 0.0000
O1 O 0.4760(12) 0.5609(12) -0.0119(5)
O2 O 0.6132(11) 0.5652(11) -0.0267(4)
O1D O 0.5609(12) 0.4760(12) 0.0119(5)
O2D O 0.5652(11) 0.6132(11) 0.0267(4)
Cl2 Cl 0.0461(3) 0.5487(3) 0.10356(12)
O3 O 0.0564(8) 0.5022(8) 0.1339(3)
O4 O 0.1215(9) 0.5486(8) 0.0844(3)
O5 O 0.0287(8) 0.6309(8) 0.1114(3)
O6 O -0.0165(10) 0.5150(10) 0.0840(4)
C53 C -0.104(2) 0.3709(15) 0.1444(8)
Cl6 Cl -0.056(2) 0.361(2) 0.1859(7)
Cl8 Cl -0.1870(19) 0.328(3) 0.1237(9)
O11 O -0.049(2) 0.241(2) 0.1474(9)
Cl3? Cl 0.0433(4) 0.0433(4) 0.0000
O7? O -0.0065(16) 0.0808(17) 0.0277(6)
O8? O 0.019(2) 0.082(2) -0.0316(6)
O9? O 0.1271(12) 0.069(2) 0.0081(9)
O10? O 0.035(2) -0.0412(10) 0.0008(9)
Cl4? Cl -0.047(2) 0.330(3) 0.1779(9)
Cl5? Cl -0.147(3) 0.284(3) 0.1233(10)
Cl7? Cl -0.099(4) 0.268(2) 0.1292(11)
Cl9? Cl -0.045(2) 0.292(3) 0.1604(16)
loop_
_geom_bond_atom_site_label_1
_geom_bond_atom_site_label_2
_geom_bond_site_symmetry_1
_geom_bond_site_symmetry_2
Zn1 N1 1_555 1_555
N1 C1 1_555 1_555
C1 H1 1_555 1_555
C2 C1 1_555 1_555
H2 C2 1_555 1_555
C3 C2 1_555 1_555
H3 C3 1_555 1_555
C4 C3 1_555 1_555
H4 C4 1_555 1_555
C5 N1 1_555 1_555
N2 C6 1_555 1_555
C6 C7 1_555 1_555
C7 N3 1_555 1_555
C8 C5 1_555 1_555
N3 Zn1 1_555 1_555
C9 C6 1_555 1_555
C10 C9 1_555 1_555
H5 C10 1_555 1_555
C11 C10 1_555 1_555
H6 C11 1_555 1_555
C12 C11 1_555 1_555
H7 C12 1_555 1_555
C13 C12 1_555 1_555
H8 C13 1_555 1_555
C14 C9 1_555 1_555
H9 C14 1_555 1_555
C15 C7 1_555 1_555
C16 C15 1_555 1_555
H10 C16 1_555 1_555
C17 C16 1_555 1_555
H11 C17 1_555 1_555
C18 C17 1_555 1_555
H12 C18 1_555 1_555
C19 C18 1_555 1_555
H13 C19 1_555 1_555
C20 C15 1_555 1_555
H14 C20 1_555 1_555
C21 N2 1_555 1_555
H15 C21 1_555 1_555
H16 C21 1_555 1_555
C22 C21 1_555 1_555
N4 C22 1_555 1_555
C23 N4 1_555 1_555
H17 C23 1_555 1_555
C24 C23 1_555 1_555
H18 C24 1_555 1_555
C25 C24 1_555 1_555
H19 C25 1_555 1_555
C26 C22 1_555 1_555
H20 C26 1_555 1_555
N5 Zn1 1_555 1_555
C27 N5 1_555 1_555
C28 C27 1_555 1_555
H21 C28 1_555 1_555
C29 C28 1_555 1_555
H22 C29 1_555 1_555
C30 C29 1_555 1_555
H23 C30 1_555 1_555
C31 N5 1_555 1_555
H24 C31 1_555 1_555
N6 C32 1_555 1_555
C32 C33 1_555 1_555
C33 H25 1_555 1_555
C34 C33 1_555 1_555
H26 C34 1_555 1_555
C35 C34 1_555 1_555
H27 C35 1_555 1_555
C36 N6 1_555 1_555
H28 C36 1_555 1_555
N7 Zn1 1_555 1_555
C37 C27 1_555 1_555
N8 C37 1_555 1_555
C38 N8 1_555 1_555
C39 N7 1_555 1_555
C40 C32 1_555 1_555
H29 C40 1_555 1_555
H30 C40 1_555 1_555
C41 C39 1_555 1_555
C42 C41 1_555 1_555
H31 C42 1_555 1_555
C43 C42 1_555 1_555
H32 C43 1_555 1_555
C44 C43 1_555 1_555
H33 C44 1_555 1_555
C45 C44 1_555 1_555
H34 C45 1_555 1_555
C46 C41 1_555 1_555
H35 C46 1_555 1_555
C47 C38 1_555 1_555
C48 C47 1_555 1_555
H36 C48 1_555 1_555
C49 C48 1_555 1_555
H37 C49 1_555 1_555
C50 C49 1_555 1_555
H38 C50 1_555 1_555
C51 C50 1_555 1_555
H39 C51 1_555 1_555
C52 C47 1_555 1_555
H40 C52 1_555 1_555
Cl1 O1 1_555 1_555
O2 Cl1 1_555 1_555
Cl2 O3 1_555 1_555
O4 Cl2 1_555 1_555
O5 Cl2 1_555 1_555
O6 Cl2 1_555 1_555
C53 Cl6 1_555 1_555
Cl8 C53 1_555 1_555
O1D Cl1 1_555 1_555
O2D Cl1 1_555 1_555
N5F C27F 1_555 1_555
C27F C28F 1_555 1_555
C28F H21F 1_555 1_555
C29F C28F 1_555 1_555
H22F C29F 1_555 1_555
C30F C29F 1_555 1_555
H23F C30F 1_555 1_555
C31F N5F 1_555 1_555
H24F C31F 1_555 1_555
N6F Zn1 1_555 1_555
C32F N6F 1_555 1_555
C33F C32F 1_555 1_555
H25F C33F 1_555 1_555
C34F C33F 1_555 1_555
H26F C34F 1_555 1_555
C35F C34F 1_555 1_555
H27F C35F 1_555 1_555
C36F N6F 1_555 1_555
H28F C36F 1_555 1_555
N7F C37F 1_555 1_555
C37F C27F 1_555 1_555
N8F C37F 1_555 1_555
C38F N8F 1_555 1_555
C39F N7F 1_555 1_555
C40F C32F 1_555 1_555
H29F C40F 1_555 1_555
H30F C40F 1_555 1_555
C41F C39F 1_555 1_555
C42F C41F 1_555 1_555
H31F C42F 1_555 1_555
C43F C42F 1_555 1_555
H32F C43F 1_555 1_555
C44F C43F 1_555 1_555
H33F C44F 1_555 1_555
C45F C44F 1_555 1_555
H34F C45F 1_555 1_555
C46F C41F 1_555 1_555
H35F C46F 1_555 1_555
C47F C38F 1_555 1_555
C48F C47F 1_555 1_555
H36F C48F 1_555 1_555
C49F C48F 1_555 1_555
H37F C49F 1_555 1_555
C50F C49F 1_555 1_555
H38F C50F 1_555 1_555
C51F C50F 1_555 1_555
H39F C51F 1_555 1_555
C52F C47F 1_555 1_555
H40F C52F 1_555 1_555
Zn1F N5F 1_555 1_555
N1F Zn1F 1_555 1_555
C1F N1F 1_555 1_555
H1F C1F 1_555 1_555
C2F C1F 1_555 1_555
H2F C2F 1_555 1_555
C3F C2F 1_555 1_555
H3F C3F 1_555 1_555
C4F C3F 1_555 1_555
H4F C4F 1_555 1_555
C5F N1F 1_555 1_555
N2F C6F 1_555 1_555
C6F C7F 1_555 1_555
C7F N3F 1_555 1_555
C8F C5F 1_555 1_555
N3F Zn1F 1_555 1_555
C9F C6F 1_555 1_555
C10F C9F 1_555 1_555
H5F C10F 1_555 1_555
C11F C10F 1_555 1_555
H6F C11F 1_555 1_555
C12F C11F 1_555 1_555
H7F C12F 1_555 1_555
C13F C12F 1_555 1_555
H8F C13F 1_555 1_555
C14F C9F 1_555 1_555
H9F C14F 1_555 1_555
C15F C7F 1_555 1_555
C16F C15F 1_555 1_555
H10F C16F 1_555 1_555
C17F C16F 1_555 1_555
H11F C17F 1_555 1_555
C18F C17F 1_555 1_555
H12F C18F 1_555 1_555
C19F C18F 1_555 1_555
H13F C19F 1_555 1_555
C20F C15F 1_555 1_555
H14F C20F 1_555 1_555
C21F N2F 1_555 1_555
H15F C21F 1_555 1_555
H16F C21F 1_555 1_555
C22F C21F 1_555 1_555
N4F C22F 1_555 1_555
C23F N4F 1_555 1_555
H17F C23F 1_555 1_555
C24F C23F 1_555 1_555
H18F C24F 1_555 1_555
C25F C24F 1_555 1_555
H19F C25F 1_555 1_555
C26F C22F 1_555 1_555
H20F C26F 1_555 1_555
Zn1F_2 N6 1_555 1_555
N6_2 Zn1F 1_555 1_555
C4 C5 1_555 1_555
N2 C8 1_555 1_555
C8 N3 1_555 1_555
C13 C14 1_555 1_555
C19 C20 1_555 1_555
C25 C26 1_555 1_555
C30 C31 1_555 1_555
C35 C36 1_555 1_555
N7 C37 1_555 1_555
N8 C40 1_555 1_555
C38 C39 1_555 1_555
C45 C46 1_555 1_555
C51 C52 1_555 1_555
C30F C31F 1_555 1_555
C35F C36F 1_555 1_555
N7F Zn1F 1_555 1_555
N8F C40F 1_555 1_555
C38F C39F 1_555 1_555
C45F C46F 1_555 1_555
C51F C52F 1_555 1_555
C4F C5F 1_555 1_555
N2F C8F 1_555 1_555
C8F N3F 1_555 1_555
C13F C14F 1_555 1_555
C19F C20F 1_555 1_555
C25F C26F 1_555 1_555

#END
