
#######################################################################
#
#                 Cambridge Crystallographic Data Centre
#                                CCDC 
#
#######################################################################
#
# If this CIF has been generated from an entry in the Cambridge 
# Structural Database, then it will include bibliographic, chemical, 
# crystal, experimental, refinement or atomic coordinate data resulting 
# from the CCDC's data processing and validation procedures.
#
#######################################################################

data_ISEQAZ
_symmetry_cell_setting           monoclinic
_symmetry_space_group_name_H-M   'P 21/m'
_symmetry_Int_Tables_number      11
_space_group_name_Hall           '-P 2yb'
loop_
_symmetry_equiv_pos_site_id
_symmetry_equiv_pos_as_xyz
1 x,y,z
2 -x,1/2+y,-z
3 -x,-y,-z
4 x,1/2-y,z
_cell_length_a                   9.8423(3)
_cell_length_b                   18.3562(4)
_cell_length_c                   15.6209(3)
_cell_angle_alpha                90
_cell_angle_beta                 102.138(3)
_cell_angle_gamma                90
_cell_volume                     2759.09
loop_
_atom_site_label
_atom_site_type_symbol
_atom_site_fract_x
_atom_site_fract_y
_atom_site_fract_z
C1 C 0.3628(8) 0.0971(4) 0.3900(4)
H1 H 0.3339 0.1241 0.4334
C2 C 0.4898(7) 0.1141(4) 0.3692(4)
H2 H 0.5434 0.1522 0.3977
C3 C 0.5353(8) 0.0745(4) 0.3065(4)
H3 H 0.6207 0.0846 0.2926
C4 C 0.4512(7) 0.0185(4) 0.2639(4)
C5 C 0.4818(7) -0.0247(4) 0.1939(4)
C6 C 0.3953(8) -0.0783(4) 0.1535(4)
C7 C 0.2648(8) -0.0921(4) 0.1747(4)
C8 C 0.1668(8) -0.1424(4) 0.1311(4)
H4 H 0.1877 -0.1719 0.0873
C9 C 0.0419(8) -0.1476(4) 0.1535(4)
H5 H -0.0235 -0.1810 0.1252
C10 C 0.0111(8) -0.1032(4) 0.2188(4)
H6 H -0.0755 -0.1073 0.2333
C11 C 0.2264(8) -0.0490(4) 0.2410(4)
C12 C 0.3226(8) 0.0052(4) 0.2869(4)
C13 C 0.5671(8) -0.0748(4) 0.0895(4)
C14 C 0.6584(8) -0.0869(4) 0.0277(4)
C15 C 0.7640(8) -0.0439(4) 0.0203(5)
H7 H 0.7856 -0.0042 0.0577
C16 C 0.8432(9) -0.0569(4) -0.0424(5)
H8 H 0.9164 -0.0258 -0.0460
C17 C 0.8165(9) -0.1115(4) -0.0959(5)
H9 H 0.8786 -0.1247 -0.1305
C18 C 0.7018(9) -0.1476(4) -0.1003(5)
H10 H 0.6739 -0.1815 -0.1449
C19 C 0.6196(9) -0.1359(4) -0.0382(5)
H11 H 0.5375 -0.1620 -0.0422
C20 C -0.0894(8) 0.1168(3) 0.2249(4)
C21 C -0.1482(7) 0.1841(3) 0.1785(4)
C22 C -0.2495(7) 0.1841(3) 0.1005(4)
H12 H -0.2850 0.1404 0.0751
C23 C -0.2962(10) 0.2500 0.0618(5)
H13 H -0.3602 0.2500 0.0087
C24 C -0.0997(10) 0.2500 0.2148(5)
H14 H -0.0313 0.2500 0.2660
C25 C -0.1664(7) -0.1132(3) 0.4219(4)
C26 C -0.2242(7) -0.1840(3) 0.3810(4)
C27 C -0.3057(7) -0.1844(3) 0.2972(4)
H15 H -0.3319 -0.1408 0.2681
C28 C -0.3479(10) -0.2500 0.2570(6)
H16 H -0.4060 -0.2500 0.2018
C29 C -0.1876(10) -0.2500 0.4231(6)
H17 H -0.1375 -0.2500 0.4806
C30 C 0.1645(7) -0.1151(3) 0.5225(4)
C31 C 0.2083(7) -0.1841(3) 0.4860(4)
C32 C 0.2669(7) -0.1848(3) 0.4123(4)
H18 H 0.2829 -0.1412 0.3858
C33 C 0.3014(10) -0.2500 0.3784(6)
H19 H 0.3481 -0.2500 0.3325
C34 C 0.1803(10) -0.2500 0.5215(5)
H20 H 0.1414 -0.2500 0.5709
N1 N 0.2806(5) 0.0439(3) 0.3508(3)
N2 N 0.1003(6) -0.0554(3) 0.2609(3)
N3 N 0.5917(5) -0.0219(3) 0.1530(3)
H21 H 0.6618 0.0071 0.1647
N4 N 0.4507(6) -0.1091(3) 0.0870(3)
O1 O -0.1566(5) 0.0583(2) 0.2199(3)
O2 O 0.0301(5) 0.1216(2) 0.2714(3)
O3 O -0.1500(5) -0.0622(2) 0.3714(3)
O4 O -0.1366(5) -0.1100(2) 0.5053(2)
O5 O 0.1386(5) -0.0590(2) 0.4751(3)
O6 O 0.1524(5) -0.1172(2) 0.6013(3)
Nd1 Nd 0.02432(4) 0.029401(16) 0.377322(19)
C1C C 0.3628(8) 0.4029(4) 0.3900(4)
H1C H 0.3339 0.3759 0.4334
C2C C 0.4898(7) 0.3859(4) 0.3692(4)
H2C H 0.5434 0.3478 0.3977
C3C C 0.5353(8) 0.4255(4) 0.3065(4)
H3C H 0.6207 0.4154 0.2926
C4C C 0.4512(7) 0.4815(4) 0.2639(4)
C5C C 0.4818(7) 0.5247(4) 0.1939(4)
C6C C 0.3953(8) 0.5783(4) 0.1535(4)
C7C C 0.2648(8) 0.5921(4) 0.1747(4)
C8C C 0.1668(8) 0.6424(4) 0.1311(4)
H4C H 0.1877 0.6719 0.0873
C9C C 0.0419(8) 0.6476(4) 0.1535(4)
H5C H -0.0235 0.6810 0.1252
C10C C 0.0111(8) 0.6032(4) 0.2188(4)
H6C H -0.0755 0.6073 0.2333
C11C C 0.2264(8) 0.5490(4) 0.2410(4)
C12C C 0.3226(8) 0.4948(4) 0.2869(4)
C13C C 0.5671(8) 0.5748(4) 0.0895(4)
C14C C 0.6584(8) 0.5869(4) 0.0277(4)
C15C C 0.7640(8) 0.5439(4) 0.0203(5)
H7C H 0.7856 0.5042 0.0577
C16C C 0.8432(9) 0.5569(4) -0.0424(5)
H8C H 0.9164 0.5258 -0.0460
C17C C 0.8165(9) 0.6115(4) -0.0959(5)
H9C H 0.8786 0.6247 -0.1305
C18C C 0.7018(9) 0.6476(4) -0.1003(5)
H10C H 0.6739 0.6815 -0.1449
C19C C 0.6196(9) 0.6359(4) -0.0382(5)
H11C H 0.5375 0.6620 -0.0422
C20C C -0.0894(8) 0.3832(3) 0.2249(4)
C21C C -0.1482(7) 0.3159(3) 0.1785(4)
C22C C -0.2495(7) 0.3159(3) 0.1005(4)
H12C H -0.2850 0.3596 0.0751
C25C C -0.1664(7) -0.3868(3) 0.4219(4)
C26C C -0.2242(7) -0.3160(3) 0.3810(4)
C27C C -0.3057(7) -0.3156(3) 0.2972(4)
H15C H -0.3319 -0.3592 0.2681
C30C C 0.1645(7) -0.3849(3) 0.5225(4)
C31C C 0.2083(7) -0.3159(3) 0.4860(4)
C32C C 0.2669(7) -0.3152(3) 0.4123(4)
H18C H 0.2829 -0.3588 0.3858
N1C N 0.2806(5) 0.4561(3) 0.3508(3)
N2C N 0.1003(6) 0.5554(3) 0.2609(3)
N3C N 0.5917(5) 0.5219(3) 0.1530(3)
H21C H 0.6618 0.4929 0.1647
N4C N 0.4507(6) 0.6091(3) 0.0870(3)
O1C O -0.1566(5) 0.4417(2) 0.2199(3)
O2C O 0.0301(5) 0.3784(2) 0.2714(3)
O3C O -0.1500(5) -0.4378(2) 0.3714(3)
O3C_2 O -0.1500(5) 0.5622(2) 0.3714(3)
O4C O -0.1366(5) -0.3900(2) 0.5053(2)
O4B O 0.1366(5) 0.1100(2) 0.4947(2)
O4A O 0.1366(5) 0.3900(2) 0.4947(2)
O5C O 0.1386(5) -0.4410(2) 0.4751(3)
O5C_2 O 0.1386(5) 0.5590(2) 0.4751(3)
O6C O 0.1524(5) -0.3828(2) 0.6013(3)
O6B O -0.1524(5) 0.1172(2) 0.3987(3)
O6A O -0.1524(5) 0.3828(2) 0.3987(3)
Nd1C Nd 0.02432(4) 0.470599(16) 0.377322(19)
Nd1B Nd -0.02432(4) -0.029401(16) 0.622678(19)
Nd1C_2 Nd 0.02432(4) -0.529401(16) 0.377322(19)
Nd1A Nd -0.02432(4) -0.470599(16) 0.622678(19)
O7 O 0.237(3) 0.2500 0.286(2)
loop_
_geom_bond_atom_site_label_1
_geom_bond_atom_site_label_2
_geom_bond_site_symmetry_1
_geom_bond_site_symmetry_2
C1 H1 1_555 1_555
C2 C1 1_555 1_555
H2 C2 1_555 1_555
C3 C2 1_555 1_555
H3 C3 1_555 1_555
C4 C3 1_555 1_555
C5 C4 1_555 1_555
C6 C5 1_555 1_555
C7 C6 1_555 1_555
C8 C7 1_555 1_555
H4 C8 1_555 1_555
C9 C8 1_555 1_555
H5 C9 1_555 1_555
C10 C9 1_555 1_555
H6 C10 1_555 1_555
C11 C7 1_555 1_555
C12 C4 1_555 1_555
C13 C14 1_555 1_555
C14 C15 1_555 1_555
C15 H7 1_555 1_555
C16 C15 1_555 1_555
H8 C16 1_555 1_555
C17 C16 1_555 1_555
H9 C17 1_555 1_555
C18 C17 1_555 1_555
H10 C18 1_555 1_555
C19 C14 1_555 1_555
H11 C19 1_555 1_555
C20 C21 1_555 1_555
C21 C22 1_555 1_555
C22 H12 1_555 1_555
C23 C22 1_555 1_555
H13 C23 1_555 1_555
C24 C21 1_555 1_555
H14 C24 1_555 1_555
C25 C26 1_555 1_555
C26 C27 1_555 1_555
C27 H15 1_555 1_555
C28 C27 1_555 1_555
H16 C28 1_555 1_555
C29 C26 1_555 1_555
H17 C29 1_555 1_555
C30 C31 1_555 1_555
C31 C32 1_555 1_555
C32 H18 1_555 1_555
C33 C32 1_555 1_555
H19 C33 1_555 1_555
C34 C31 1_555 1_555
H20 C34 1_555 1_555
N1 C1 1_555 1_555
N2 C10 1_555 1_555
N3 C5 1_555 1_555
H21 N3 1_555 1_555
N4 C6 1_555 1_555
O1 C20 1_555 1_555
O2 C20 1_555 1_555
O3 C25 1_555 1_555
O4 C25 1_555 1_555
O5 C30 1_555 1_555
O6 C30 1_555 1_555
Nd1 N1 1_555 1_555
C1C H1C 1_555 1_555
C2C C1C 1_555 1_555
H2C C2C 1_555 1_555
C3C C2C 1_555 1_555
H3C C3C 1_555 1_555
C4C C3C 1_555 1_555
C5C C4C 1_555 1_555
C6C C5C 1_555 1_555
C7C C6C 1_555 1_555
C8C C7C 1_555 1_555
H4C C8C 1_555 1_555
C9C C8C 1_555 1_555
H5C C9C 1_555 1_555
C10C C9C 1_555 1_555
H6C C10C 1_555 1_555
C11C C7C 1_555 1_555
C12C C4C 1_555 1_555
C13C C14C 1_555 1_555
C14C C15C 1_555 1_555
C15C H7C 1_555 1_555
C16C C15C 1_555 1_555
H8C C16C 1_555 1_555
C17C C16C 1_555 1_555
H9C C17C 1_555 1_555
C18C C17C 1_555 1_555
H10C C18C 1_555 1_555
C19C C14C 1_555 1_555
H11C C19C 1_555 1_555
C20C C21C 1_555 1_555
C21C C24 1_555 1_555
C22C C23 1_555 1_555
H12C C22C 1_555 1_555
C25C C26C 1_555 1_555
C26C C29 1_555 1_555
C27C C28 1_555 1_555
H15C C27C 1_555 1_555
C30C C31C 1_555 1_555
C31C C34 1_555 1_555
C32C C33 1_555 1_555
H18C C32C 1_555 1_555
N1C C1C 1_555 1_555
N2C C10C 1_555 1_555
N3C C5C 1_555 1_555
H21C N3C 1_555 1_555
N4C C6C 1_555 1_555
O1C C20C 1_555 1_555
O2C C20C 1_555 1_555
O3C C25C 1_555 1_555
O3C_2 Nd1C 1_555 1_555
O4C C25C 1_555 1_555
O4B Nd1 1_555 1_555
O4A Nd1C 1_555 1_555
O5C C30C 1_555 1_555
O5C_2 Nd1C 1_555 1_555
O6C C30C 1_555 1_555
O6B Nd1 1_555 1_555
O6A Nd1C 1_555 1_555
Nd1C N1C 1_555 1_555
Nd1B O4 1_555 1_555
Nd1C_2 O3C 1_555 1_555
Nd1A O4C 1_555 1_555
C11 C12 1_555 1_555
C11 N2 1_555 1_555
C12 N1 1_555 1_555
C13 N3 1_555 1_555
C13 N4 1_555 1_555
C18 C19 1_555 1_555
N2 Nd1 1_555 1_555
O1 Nd1 1_555 1_555
O2 Nd1 1_555 1_555
O3 Nd1 1_555 1_555
O5 Nd1 1_555 1_555
O6 Nd1B 1_555 1_555
C11C C12C 1_555 1_555
C11C N2C 1_555 1_555
C12C N1C 1_555 1_555
C13C N3C 1_555 1_555
C13C N4C 1_555 1_555
C18C C19C 1_555 1_555
C21C C22C 1_555 1_555
C26C C27C 1_555 1_555
C31C C32C 1_555 1_555
N2C Nd1C 1_555 1_555
O1C Nd1C 1_555 1_555
O2C Nd1C 1_555 1_555
O5C Nd1C_2 1_555 1_555
O6C Nd1A 1_555 1_555

#END
