
#######################################################################
#
#                 Cambridge Crystallographic Data Centre
#                                CCDC 
#
#######################################################################
#
# If this CIF has been generated from an entry in the Cambridge 
# Structural Database, then it will include bibliographic, chemical, 
# crystal, experimental, refinement or atomic coordinate data resulting 
# from the CCDC's data processing and validation procedures.
#
#######################################################################

data_ISEQED
_symmetry_cell_setting           monoclinic
_symmetry_space_group_name_H-M   'P 21/m'
_symmetry_Int_Tables_number      11
_space_group_name_Hall           '-P 2yb'
loop_
_symmetry_equiv_pos_site_id
_symmetry_equiv_pos_as_xyz
1 x,y,z
2 -x,1/2+y,-z
3 -x,-y,-z
4 x,1/2-y,z
_cell_length_a                   9.862(2)
_cell_length_b                   18.496(4)
_cell_length_c                   15.653(3)
_cell_angle_alpha                90
_cell_angle_beta                 102.42(3)
_cell_angle_gamma                90
_cell_volume                     2788.41
loop_
_atom_site_label
_atom_site_type_symbol
_atom_site_fract_x
_atom_site_fract_y
_atom_site_fract_z
C1 C 0.0143(7) -0.1043(4) 0.2178(4)
H1 H -0.0714 -0.1090 0.2330
C2 C 0.0424(7) -0.1483(4) 0.1513(4)
H2 H -0.0238 -0.1807 0.1221
C3 C 0.1706(7) -0.1427(4) 0.1298(4)
H3 H 0.1930 -0.1724 0.0869
C4 C 0.2669(7) -0.0917(4) 0.1734(4)
C5 C 0.3976(7) -0.0780(4) 0.1517(4)
C6 C 0.4842(7) -0.0246(4) 0.1937(5)
C7 C 0.4522(7) 0.0191(4) 0.2617(5)
C8 C 0.5357(7) 0.0754(4) 0.3034(4)
H4 H 0.6203 0.0856 0.2891
C9 C 0.4908(7) 0.1152(4) 0.3658(5)
H5 H 0.5434 0.1537 0.3933
C10 C 0.3643(7) 0.0972(4) 0.3877(5)
H6 H 0.3361 0.1237 0.4312
C11 C 0.3237(7) 0.0052(4) 0.2851(4)
C12 C 0.2289(7) -0.0495(4) 0.2395(4)
C13 C 0.5694(7) -0.0736(4) 0.0888(5)
C14 C 0.6604(7) -0.0858(4) 0.0277(5)
C15 C 0.7657(8) -0.0415(4) 0.0192(5)
H7 H 0.7863 -0.0013 0.0554
C16 C 0.8433(8) -0.0553(5) -0.0431(5)
H8 H 0.9164 -0.0246 -0.0468
C17 C 0.8176(8) -0.1098(4) -0.0965(5)
H9 H 0.8801 -0.1227 -0.1306
C18 C 0.6995(8) -0.1470(5) -0.1018(5)
H10 H 0.6696 -0.1798 -0.1469
C19 C 0.6223(8) -0.1355(4) -0.0379(5)
H11 H 0.5422 -0.1625 -0.0400
C20 C -0.0901(6) 0.1172(3) 0.2228(4)
C21 C -0.1493(6) 0.1844(3) 0.1776(4)
C22 C -0.0979(9) 0.2500 0.2135(5)
H12 H -0.0267 0.2500 0.2632
C23 C -0.2512(6) 0.1849(3) 0.1000(4)
H13 H -0.2872 0.1415 0.0747
C24 C -0.2983(9) 0.2500 0.0610(5)
H14 H -0.3624 0.2500 0.0079
C25 C -0.1692(6) -0.1140(3) 0.4214(4)
C26 C -0.2246(6) -0.1844(3) 0.3797(4)
C27 C -0.1888(9) -0.2500 0.4226(6)
H15 H -0.1404 -0.2500 0.4806
C28 C -0.3052(6) -0.1851(3) 0.2958(4)
H16 H -0.3297 -0.1416 0.2666
C29 C -0.3502(9) -0.2500 0.2546(6)
H17 H -0.4100 -0.2500 0.1999
C30 C -0.1658(6) 0.1165(3) 0.4752(4)
C31 C -0.2062(6) 0.1848(3) 0.5149(4)
C32 C -0.1798(9) 0.2500 0.4779(6)
H18 H -0.1438 0.2500 0.4276
C33 C -0.2660(6) 0.1849(3) 0.5875(4)
H19 H -0.2833 0.1414 0.6130
C34 C -0.3002(9) 0.2500 0.6222(6)
H20 H -0.3456 0.2500 0.6685
N1 N 0.2825(5) 0.0438(3) 0.3489(3)
N2 N 0.1032(5) -0.0562(3) 0.2606(3)
N3 N 0.5939(5) -0.0221(3) 0.1525(3)
N4 N 0.4525(5) -0.1086(3) 0.0868(4)
O1 O 0.0309(4) 0.1224(2) 0.2703(3)
O2 O -0.1582(4) 0.0594(2) 0.2177(3)
O3 O -0.1522(4) -0.0636(2) 0.3701(3)
O4 O -0.1395(4) -0.1101(2) 0.5036(3)
O5 O -0.1535(4) 0.1185(2) 0.3977(3)
O6 O -0.1395(5) 0.0606(2) 0.5223(3)
Ce1 Ce 0.02369(3) 0.029380(14) 0.376942(18)
H21 H 0.649(7) 0.006(4) 0.161(5)
C1C C 0.0143(7) 0.6043(4) 0.2178(4)
H1C H -0.0714 0.6090 0.2330
C2C C 0.0424(7) 0.6483(4) 0.1513(4)
H2C H -0.0238 0.6807 0.1221
C3C C 0.1706(7) 0.6427(4) 0.1298(4)
H3C H 0.1930 0.6724 0.0869
C4C C 0.2669(7) 0.5917(4) 0.1734(4)
C5C C 0.3976(7) 0.5780(4) 0.1517(4)
C6C C 0.4842(7) 0.5246(4) 0.1937(5)
C7C C 0.4522(7) 0.4809(4) 0.2617(5)
C8C C 0.5357(7) 0.4246(4) 0.3034(4)
H4C H 0.6203 0.4144 0.2891
C9C C 0.4908(7) 0.3848(4) 0.3658(5)
H5C H 0.5434 0.3463 0.3933
C10C C 0.3643(7) 0.4028(4) 0.3877(5)
H6C H 0.3361 0.3763 0.4312
C11C C 0.3237(7) 0.4948(4) 0.2851(4)
C12C C 0.2289(7) 0.5495(4) 0.2395(4)
C13C C 0.5694(7) 0.5736(4) 0.0888(5)
C14C C 0.6604(7) 0.5858(4) 0.0277(5)
C15C C 0.7657(8) 0.5415(4) 0.0192(5)
H7C H 0.7863 0.5013 0.0554
C16C C 0.8433(8) 0.5553(5) -0.0431(5)
H8C H 0.9164 0.5246 -0.0468
C17C C 0.8176(8) 0.6098(4) -0.0965(5)
H9C H 0.8801 0.6227 -0.1306
C18C C 0.6995(8) 0.6470(5) -0.1018(5)
H10C H 0.6696 0.6798 -0.1469
C19C C 0.6223(8) 0.6355(4) -0.0379(5)
H11C H 0.5422 0.6625 -0.0400
C20C C -0.0901(6) 0.3828(3) 0.2228(4)
C21C C -0.1493(6) 0.3156(3) 0.1776(4)
C23C C -0.2512(6) 0.3151(3) 0.1000(4)
H13C H -0.2872 0.3585 0.0747
C25C C -0.1692(6) -0.3860(3) 0.4214(4)
C26C C -0.2246(6) -0.3156(3) 0.3797(4)
C28C C -0.3052(6) -0.3149(3) 0.2958(4)
H16C H -0.3297 -0.3584 0.2666
C30C C -0.1658(6) 0.3835(3) 0.4752(4)
C31C C -0.2062(6) 0.3152(3) 0.5149(4)
C33C C -0.2660(6) 0.3151(3) 0.5875(4)
H19C H -0.2833 0.3586 0.6130
N1C N 0.2825(5) 0.4562(3) 0.3489(3)
N2C N 0.1032(5) 0.5562(3) 0.2606(3)
N3C N 0.5939(5) 0.5221(3) 0.1525(3)
N4C N 0.4525(5) 0.6086(3) 0.0868(4)
O1C O 0.0309(4) 0.3776(2) 0.2703(3)
O2C O -0.1582(4) 0.4406(2) 0.2177(3)
O3C O -0.1522(4) -0.4364(2) 0.3701(3)
O3C_2 O -0.1522(4) 0.5636(2) 0.3701(3)
O4C O -0.1395(4) -0.3899(2) 0.5036(3)
O4B O 0.1395(4) 0.1101(2) 0.4964(3)
O4A O 0.1395(4) 0.3899(2) 0.4964(3)
O5C O -0.1535(4) 0.3815(2) 0.3977(3)
O6C O -0.1395(5) 0.4394(2) 0.5223(3)
O6B O 0.1395(5) -0.0606(2) 0.4777(3)
O6A O 0.1395(5) 0.5606(2) 0.4777(3)
Ce1C Ce 0.02369(3) 0.470620(14) 0.376942(18)
Ce1B Ce -0.02369(3) -0.029380(14) 0.623058(18)
Ce1C_2 Ce 0.02369(3) -0.529380(14) 0.376942(18)
Ce1A Ce -0.02369(3) -0.470620(14) 0.623058(18)
Ce1A_2 Ce -0.02369(3) 0.529380(14) 0.623058(18)
H21C H 0.649(7) 0.494(4) 0.161(5)
O7 O 0.236(8) 0.2500 0.288(5)
loop_
_geom_bond_atom_site_label_1
_geom_bond_atom_site_label_2
_geom_bond_site_symmetry_1
_geom_bond_site_symmetry_2
C1 H1 1_555 1_555
C2 C1 1_555 1_555
H2 C2 1_555 1_555
C3 C2 1_555 1_555
H3 C3 1_555 1_555
C4 C3 1_555 1_555
C5 C4 1_555 1_555
C6 C5 1_555 1_555
C7 C6 1_555 1_555
C8 C7 1_555 1_555
H4 C8 1_555 1_555
C9 C8 1_555 1_555
H5 C9 1_555 1_555
C10 C9 1_555 1_555
H6 C10 1_555 1_555
C11 C7 1_555 1_555
C12 C4 1_555 1_555
C13 C14 1_555 1_555
C14 C15 1_555 1_555
C15 H7 1_555 1_555
C16 C15 1_555 1_555
H8 C16 1_555 1_555
C17 C16 1_555 1_555
H9 C17 1_555 1_555
C18 C17 1_555 1_555
H10 C18 1_555 1_555
C19 C14 1_555 1_555
H11 C19 1_555 1_555
C20 C21 1_555 1_555
C21 C22 1_555 1_555
C22 H12 1_555 1_555
C23 C21 1_555 1_555
H13 C23 1_555 1_555
C24 C23 1_555 1_555
H14 C24 1_555 1_555
C25 C26 1_555 1_555
C26 C27 1_555 1_555
C27 H15 1_555 1_555
C28 C26 1_555 1_555
H16 C28 1_555 1_555
C29 C28 1_555 1_555
H17 C29 1_555 1_555
C30 C31 1_555 1_555
C31 C32 1_555 1_555
C32 H18 1_555 1_555
C33 C31 1_555 1_555
H19 C33 1_555 1_555
C34 C33 1_555 1_555
H20 C34 1_555 1_555
N1 C10 1_555 1_555
N2 C1 1_555 1_555
N3 C6 1_555 1_555
N4 C5 1_555 1_555
O1 C20 1_555 1_555
O2 C20 1_555 1_555
O3 C25 1_555 1_555
O4 C25 1_555 1_555
O5 C30 1_555 1_555
O6 C30 1_555 1_555
Ce1 N1 1_555 1_555
H21 N3 1_555 1_555
C1C H1C 1_555 1_555
C2C C1C 1_555 1_555
H2C C2C 1_555 1_555
C3C C2C 1_555 1_555
H3C C3C 1_555 1_555
C4C C3C 1_555 1_555
C5C C4C 1_555 1_555
C6C C5C 1_555 1_555
C7C C6C 1_555 1_555
C8C C7C 1_555 1_555
H4C C8C 1_555 1_555
C9C C8C 1_555 1_555
H5C C9C 1_555 1_555
C10C C9C 1_555 1_555
H6C C10C 1_555 1_555
C11C C7C 1_555 1_555
C12C C4C 1_555 1_555
C13C C14C 1_555 1_555
C14C C15C 1_555 1_555
C15C H7C 1_555 1_555
C16C C15C 1_555 1_555
H8C C16C 1_555 1_555
C17C C16C 1_555 1_555
H9C C17C 1_555 1_555
C18C C17C 1_555 1_555
H10C C18C 1_555 1_555
C19C C14C 1_555 1_555
H11C C19C 1_555 1_555
C20C C21C 1_555 1_555
C21C C22 1_555 1_555
C23C C24 1_555 1_555
H13C C23C 1_555 1_555
C25C C26C 1_555 1_555
C26C C27 1_555 1_555
C28C C29 1_555 1_555
H16C C28C 1_555 1_555
C30C C31C 1_555 1_555
C31C C32 1_555 1_555
C33C C34 1_555 1_555
H19C C33C 1_555 1_555
N1C C10C 1_555 1_555
N2C C1C 1_555 1_555
N3C C6C 1_555 1_555
N4C C5C 1_555 1_555
O1C C20C 1_555 1_555
O2C C20C 1_555 1_555
O3C C25C 1_555 1_555
O3C_2 Ce1C 1_555 1_555
O4C C25C 1_555 1_555
O4B Ce1 1_555 1_555
O4A Ce1C 1_555 1_555
O5C C30C 1_555 1_555
O6C C30C 1_555 1_555
O6B Ce1 1_555 1_555
O6A Ce1C 1_555 1_555
Ce1C N1C 1_555 1_555
Ce1B O4 1_555 1_555
Ce1C_2 O3C 1_555 1_555
Ce1A O4C 1_555 1_555
Ce1A_2 O6C 1_555 1_555
H21C N3C 1_555 1_555
C11 C12 1_555 1_555
C11 N1 1_555 1_555
C12 N2 1_555 1_555
C13 N3 1_555 1_555
C13 N4 1_555 1_555
C18 C19 1_555 1_555
N2 Ce1 1_555 1_555
O1 Ce1 1_555 1_555
O2 Ce1 1_555 1_555
O3 Ce1 1_555 1_555
O5 Ce1 1_555 1_555
O6 Ce1B 1_555 1_555
C11C C12C 1_555 1_555
C11C N1C 1_555 1_555
C12C N2C 1_555 1_555
C13C N3C 1_555 1_555
C13C N4C 1_555 1_555
C18C C19C 1_555 1_555
C21C C23C 1_555 1_555
C26C C28C 1_555 1_555
C31C C33C 1_555 1_555
N2C Ce1C 1_555 1_555
O1C Ce1C 1_555 1_555
O2C Ce1C 1_555 1_555
O5C Ce1C 1_555 1_555

#END
