
#######################################################################
#
#                 Cambridge Crystallographic Data Centre
#                                CCDC 
#
#######################################################################
#
# If this CIF has been generated from an entry in the Cambridge 
# Structural Database, then it will include bibliographic, chemical, 
# crystal, experimental, refinement or atomic coordinate data resulting 
# from the CCDC's data processing and validation procedures.
#
#######################################################################

data_ISHYZC01
_symmetry_cell_setting           monoclinic
_symmetry_space_group_name_H-M   'P 21/c'
_symmetry_Int_Tables_number      14
_space_group_name_Hall           '-P 2ybc'
loop_
_symmetry_equiv_pos_site_id
_symmetry_equiv_pos_as_xyz
1 x,y,z
2 -x,1/2+y,1/2-z
3 -x,-y,-z
4 x,1/2-y,1/2+z
_cell_length_a                   6.2200(1)
_cell_length_b                   16.2648(3)
_cell_length_c                   10.5760(3)
_cell_angle_alpha                90
_cell_angle_beta                 116.857(2)
_cell_angle_gamma                90
_cell_volume                     954.535
loop_
_atom_site_label
_atom_site_type_symbol
_atom_site_fract_x
_atom_site_fract_y
_atom_site_fract_z
Cu1 Cu 0.5000 0.00000 0.50000
O1 O 0.3668(2) -0.08705(7) 0.56353(12)
O2 O -0.3801(2) -0.11474(7) 0.35874(13)
N1 N 0.0110(2) -0.05463(8) 0.36939(14)
N2 N 0.1516(3) 0.00404(8) 0.34259(15)
C1 C -0.2360(3) -0.17086(10) 0.45557(17)
C2 C 0.0172(3) -0.16508(11) 0.51912(16)
C3 C 0.1410(3) -0.09835(10) 0.48316(17)
C4 C 0.1525(3) -0.22435(10) 0.62007(17)
H1 H 0.3199 -0.2216 0.6622
C5 C -0.2072(3) -0.28971(10) 0.59767(18)
H2 H -0.2822 -0.3305 0.6251
C6 C -0.3450(3) -0.23280(10) 0.49722(18)
H3 H -0.5122 -0.2358 0.4569
C7 C 0.0430(3) -0.28681(11) 0.65843(18)
H4 H 0.1354 -0.3264 0.724
C8 C 0.0330(3) 0.04781(10) 0.23063(18)
C9 C -0.2336(3) 0.03862(12) 0.1419(2)
H5 H -0.3146 0.0509 0.1984
H6 H -0.2696 -0.0168 0.1075
H7 H -0.2874 0.0759 0.0631
C10 C 0.1531(3) 0.10989(12) 0.18119(19)
H8 H 0.3231 0.1098 0.243
H9 H 0.0883 0.1634 0.182
H10 H 0.1253 0.0967 0.0866
H11 H -0.297(4) -0.0817(12) 0.339(2)
Cu1_2 Cu -0.5000 0.00000 0.50000
Cu1_3 Cu 1.5000 0.00000 0.50000
O1B O 0.6332(2) 0.08705(7) 0.43647(12)
O2B O 1.3801(2) 0.11474(7) 0.64126(13)
O2_2 O 0.6199(2) -0.11474(7) 0.35874(13)
O2B_2 O 0.3801(2) 0.11474(7) 0.64126(13)
N1B N 0.9890(2) 0.05463(8) 0.63061(14)
N2B N 0.8484(3) -0.00404(8) 0.65741(15)
C1B C 1.2360(3) 0.17086(10) 0.54443(17)
C2B C 0.9828(3) 0.16508(11) 0.48088(16)
C3B C 0.8590(3) 0.09835(10) 0.51684(17)
C4B C 0.8475(3) 0.22435(10) 0.37993(17)
H1B H 0.6801 0.2216 0.3378
C5B C 1.2072(3) 0.28971(10) 0.40233(18)
H2B H 1.2822 0.3305 0.3749
C6B C 1.3450(3) 0.23280(10) 0.50278(18)
H3B H 1.5122 0.2358 0.5431
C7B C 0.9570(3) 0.28681(11) 0.34157(18)
H4B H 0.8646 0.3264 0.276
C8B C 0.9670(3) -0.04781(10) 0.76937(18)
C9B C 1.2336(3) -0.03862(12) 0.8581(2)
H5B H 1.3146 -0.0509 0.8016
H6B H 1.2696 0.0168 0.8925
H7B H 1.2874 -0.0759 0.9369
C10B C 0.8469(3) -0.10989(12) 0.81881(19)
H8B H 0.6769 -0.1098 0.757
H9B H 0.9117 -0.1634 0.818
H10B H 0.8747 -0.0967 0.9134
H11B H 1.297(4) 0.0817(12) 0.661(2)
H11_2 H 0.703(4) -0.0817(12) 0.339(2)
H11B_2 H 0.297(4) 0.0817(12) 0.661(2)
loop_
_geom_bond_atom_site_label_1
_geom_bond_atom_site_label_2
_geom_bond_site_symmetry_1
_geom_bond_site_symmetry_2
Cu1 O1 1_555 1_555
O1 C3 1_555 1_555
O2 C1 1_555 1_555
N1 N2 1_555 1_555
N2 Cu1 1_555 1_555
C1 C2 1_555 1_555
C2 C3 1_555 1_555
C3 N1 1_555 1_555
C4 C2 1_555 1_555
H1 C4 1_555 1_555
C5 H2 1_555 1_555
C6 C1 1_555 1_555
H3 C6 1_555 1_555
C7 C4 1_555 1_555
H4 C7 1_555 1_555
C8 N2 1_555 1_555
C9 C8 1_555 1_555
H5 C9 1_555 1_555
H6 C9 1_555 1_555
H7 C9 1_555 1_555
C10 C8 1_555 1_555
H8 C10 1_555 1_555
H9 C10 1_555 1_555
H10 C10 1_555 1_555
H11 O2 1_555 1_555
Cu1_2 O2 1_555 1_555
Cu1_3 O2B 1_555 1_555
O1B Cu1 1_555 1_555
O2B C1B 1_555 1_555
O2_2 Cu1 1_555 1_555
O2B_2 Cu1 1_555 1_555
N1B N2B 1_555 1_555
N2B Cu1 1_555 1_555
C1B C2B 1_555 1_555
C2B C3B 1_555 1_555
C3B O1B 1_555 1_555
C4B C2B 1_555 1_555
H1B C4B 1_555 1_555
C5B H2B 1_555 1_555
C6B C1B 1_555 1_555
H3B C6B 1_555 1_555
C7B C4B 1_555 1_555
H4B C7B 1_555 1_555
C8B N2B 1_555 1_555
C9B C8B 1_555 1_555
H5B C9B 1_555 1_555
H6B C9B 1_555 1_555
H7B C9B 1_555 1_555
C10B C8B 1_555 1_555
H8B C10B 1_555 1_555
H9B C10B 1_555 1_555
H10B C10B 1_555 1_555
H11B O2B 1_555 1_555
H11_2 O2_2 1_555 1_555
H11B_2 O2B_2 1_555 1_555
C5 C6 1_555 1_555
C5 C7 1_555 1_555
N1B C3B 1_555 1_555
C5B C6B 1_555 1_555
C5B C7B 1_555 1_555

#END
