
#######################################################################
#
#                 Cambridge Crystallographic Data Centre
#                                CCDC 
#
#######################################################################
#
# If this CIF has been generated from an entry in the Cambridge 
# Structural Database, then it will include bibliographic, chemical, 
# crystal, experimental, refinement or atomic coordinate data resulting 
# from the CCDC's data processing and validation procedures.
#
#######################################################################

data_ISICOD
_symmetry_cell_setting           monoclinic
_symmetry_space_group_name_H-M   'P 21/c'
_symmetry_Int_Tables_number      14
_space_group_name_Hall           '-P 2ybc'
loop_
_symmetry_equiv_pos_site_id
_symmetry_equiv_pos_as_xyz
1 x,y,z
2 -x,1/2+y,1/2-z
3 -x,-y,-z
4 x,1/2-y,1/2+z
_cell_length_a                   10.1698(3)
_cell_length_b                   11.9741(5)
_cell_length_c                   20.9721(10)
_cell_angle_alpha                90
_cell_angle_beta                 109.483(4)
_cell_angle_gamma                90
_cell_volume                     2407.63
loop_
_atom_site_label
_atom_site_type_symbol
_atom_site_fract_x
_atom_site_fract_y
_atom_site_fract_z
Zn1 Zn 0.47317(6) 0.32409(5) 0.05141(3)
C1 C 0.8774(5) 0.4275(4) 0.0796(2)
C2 C 0.9896(5) 0.3778(5) 0.0654(2)
H1 H 0.9809 0.3050 0.0491
C3 C 1.1104(5) 0.4340(4) 0.0752(2)
C4 C 1.1260(5) 0.5429(4) 0.0991(2)
H2 H 1.2083 0.5819 0.1050
C5 C 1.0159(5) 0.5932(4) 0.1144(3)
C6 C 0.8923(5) 0.5353(4) 0.1033(3)
H3 H 0.8183 0.5700 0.1121
C7 C 0.7429(6) 0.3646(5) 0.0659(3)
C8 C 1.2265(5) 0.3779(5) 0.0591(3)
C9 C 1.1219(9) 0.7736(6) 0.1295(4)
H4 H 1.1239 0.7683 0.0837
H5 H 1.2136 0.7542 0.1605
C10 C 1.0848(9) 0.8899(7) 0.1432(5)
C11 C 1.1291(10) 0.9304(7) 0.2100(5)
H6 H 1.1844 0.8888 0.2466
C12 C 1.0805(9) 1.0450(7) 0.2174(5)
H7 H 1.1012 1.0759 0.2604
C13 C 1.0088(9) 0.9578(7) 0.0928(5)
H8 H 0.9834 0.9307 0.0488
C14 C 0.9675(10) 1.0606(7) 0.1015(5)
H9 H 0.9115 1.1020 0.0650
C15 C 1.0087(10) 1.1030(8) 0.1645(5)
H10 H 0.9854 1.1764 0.1705
C16 C 0.6290(6) 0.1752(5) 0.1665(3)
H11 H 0.7002 0.2262 0.1704
C17 C 0.6539(7) 0.0882(6) 0.2122(3)
H12 H 0.7411 0.0818 0.2454
C18 C 0.5531(6) 0.0113(5) 0.2097(3)
C19 C 0.4288(6) 0.0280(6) 0.1594(3)
H13 H 0.3558 -0.0216 0.1547
C20 C 0.4093(6) 0.1159(6) 0.1158(3)
H14 H 0.3219 0.1245 0.0831
C21 C 0.6790(6) -0.2013(5) 0.0742(3)
H15 H 0.7231 -0.1694 0.0463
C22 C 0.7158(6) -0.1636(5) 0.1393(3)
H16 H 0.7807 -0.1064 0.1543
C23 C 0.6553(6) -0.2115(5) 0.1819(3)
C24 C 0.5607(6) -0.2958(5) 0.1561(3)
H17 H 0.5194 -0.3312 0.1840
C25 C 0.5263(6) -0.3284(5) 0.0902(3)
H18 H 0.4610 -0.3851 0.0742
C26 C 0.6857(7) -0.1670(5) 0.2540(3)
H19 H 0.7764 -0.1311 0.2690
H20 H 0.6889 -0.2291 0.2842
C27 C 0.5771(7) -0.0849(5) 0.2581(3)
H21 H 0.4897 -0.1243 0.2498
H22 H 0.6047 -0.0555 0.3038
O1 O 0.6433(4) 0.4139(3) 0.0791(2)
O2 O 0.7330(4) 0.2690(4) 0.0425(2)
O3 O 1.2086(4) 0.2836(3) 0.0343(2)
O4 O 1.3424(3) 0.4290(3) 0.07266(18)
O5 O 1.0206(4) 0.6996(3) 0.1382(2)
N1 N 0.5073(4) 0.1895(4) 0.1172(2)
N2 N 0.5844(4) -0.2806(4) 0.0478(2)
Zn1B Zn 0.52683(6) -0.32409(5) -0.05141(3)
Zn1_2 Zn 1.47317(6) 0.32409(5) 0.05141(3)
O4_2 O 0.3424(3) 0.4290(3) 0.07266(18)
N2B N 0.4156(4) 0.2806(4) -0.0478(2)
loop_
_geom_bond_atom_site_label_1
_geom_bond_atom_site_label_2
_geom_bond_site_symmetry_1
_geom_bond_site_symmetry_2
Zn1 O1 1_555 1_555
C1 C2 1_555 1_555
C2 H1 1_555 1_555
C3 C2 1_555 1_555
C4 C3 1_555 1_555
H2 C4 1_555 1_555
C5 C4 1_555 1_555
C6 C1 1_555 1_555
H3 C6 1_555 1_555
C7 C1 1_555 1_555
C8 C3 1_555 1_555
C9 H4 1_555 1_555
H5 C9 1_555 1_555
C10 C9 1_555 1_555
C11 C10 1_555 1_555
H6 C11 1_555 1_555
C12 C11 1_555 1_555
H7 C12 1_555 1_555
C13 C10 1_555 1_555
H8 C13 1_555 1_555
C14 C13 1_555 1_555
H9 C14 1_555 1_555
C15 C12 1_555 1_555
H10 C15 1_555 1_555
C16 H11 1_555 1_555
C17 C16 1_555 1_555
H12 C17 1_555 1_555
C18 C17 1_555 1_555
C19 C18 1_555 1_555
H13 C19 1_555 1_555
C20 C19 1_555 1_555
H14 C20 1_555 1_555
C21 H15 1_555 1_555
C22 C21 1_555 1_555
H16 C22 1_555 1_555
C23 C22 1_555 1_555
C24 C23 1_555 1_555
H17 C24 1_555 1_555
C25 C24 1_555 1_555
H18 C25 1_555 1_555
C26 C23 1_555 1_555
H19 C26 1_555 1_555
H20 C26 1_555 1_555
C27 C18 1_555 1_555
H21 C27 1_555 1_555
H22 C27 1_555 1_555
O1 C7 1_555 1_555
O2 C7 1_555 1_555
O3 C8 1_555 1_555
O4 C8 1_555 1_555
O5 C5 1_555 1_555
N1 Zn1 1_555 1_555
N2 C21 1_555 1_555
Zn1B N2 1_555 1_555
Zn1_2 O4 1_555 1_555
O4_2 Zn1 1_555 1_555
N2B Zn1 1_555 1_555
C5 C6 1_555 1_555
C9 O5 1_555 1_555
C14 C15 1_555 1_555
C16 N1 1_555 1_555
C20 N1 1_555 1_555
C25 N2 1_555 1_555
C26 C27 1_555 1_555

#END
