
#######################################################################
#
#                 Cambridge Crystallographic Data Centre
#                                CCDC 
#
#######################################################################
#
# If this CIF has been generated from an entry in the Cambridge 
# Structural Database, then it will include bibliographic, chemical, 
# crystal, experimental, refinement or atomic coordinate data resulting 
# from the CCDC's data processing and validation procedures.
#
#######################################################################

data_ISIFOF
_symmetry_cell_setting           monoclinic
_symmetry_space_group_name_H-M   'P 21/c'
_symmetry_Int_Tables_number      14
_space_group_name_Hall           '-P 2ybc'
loop_
_symmetry_equiv_pos_site_id
_symmetry_equiv_pos_as_xyz
1 x,y,z
2 x,1/2-y,1/2+z
3 -x,-y,-z
4 -x,1/2+y,1/2-z
_cell_length_a                   16.9129(8)
_cell_length_b                   26.4349(18)
_cell_length_c                   10.6048(18)
_cell_angle_alpha                90
_cell_angle_beta                 94.749(3)
_cell_angle_gamma                90
_cell_volume                     4725.03
loop_
_atom_site_label
_atom_site_type_symbol
_atom_site_fract_x
_atom_site_fract_y
_atom_site_fract_z
Cu1 Cu 0.0000 0.5000 -0.5000
Cu2 Cu -0.49821(6) 0.25166(3) -1.27629(6)
O1 O -0.5034(3) 0.28616(12) -1.4729(4)
H1 H -0.4582 0.2900 -1.4939
H2 H -0.543(4) 0.294(2) -1.525(6)
N1 N -0.4618(3) 0.31610(17) -1.1918(4)
N2 N -0.3326(3) 0.45297(16) -0.9195(4)
N3 N -0.3362(3) 0.54087(16) -0.9120(4)
N4 N -0.4120(2) 0.4981(2) -1.0704(3)
N5 N -0.1096(3) 0.4973(2) -0.5959(4)
N6 N -0.4640(3) 0.68294(16) -1.1680(4)
O2 O 0.6121(3) 0.26844(14) 0.2173(4)
O3 O 0.6271(3) 0.30793(16) 0.4069(4)
O4 O 0.3939(3) 0.22480(14) 0.2222(4)
O5 O 0.3584(2) 0.27660(12) 0.3762(3)
O6 O -0.0454(3) 0.53168(13) -0.3559(3)
O7 O -0.0489(3) 0.61409(13) -0.4094(4)
O8 O -0.0273(2) 0.42212(13) -0.4044(3)
H6 H -0.0515 0.3956 -0.4506
C1 C -0.4822(4) 0.3604(2) -1.2442(5)
H7 H -0.5147 0.3602 -1.3194
C2 C -0.4581(4) 0.4069(2) -1.1938(5)
H8 H -0.4716 0.4370 -1.2357
C3 C -0.4134(4) 0.4067(2) -1.0792(5)
C4 C -0.3913(4) 0.3617(2) -1.0218(5)
H9 H -0.3607 0.3611 -0.9448
C5 C -0.4163(4) 0.3174(2) -1.0821(5)
H10 H -0.4006 0.2868 -1.0445
C6 C -0.3824(4) 0.4544(2) -1.0200(5)
C7 C -0.3084(3) 0.4965(2) -0.8703(5)
C8 C -0.3854(4) 0.5395(2) -1.0137(6)
C9 C -0.1553(4) 0.5374(2) -0.6153(5)
H11 H 0.1413 0.4333 -0.4298
C10 C -0.2218(4) 0.5388(2) -0.6973(5)
H12 H 0.2513 0.4316 -0.2917
C11 C -0.2449(3) 0.4950(2) -0.7644(5)
C12 C 0.1995(4) 0.5479(2) -0.2590(5)
H13 H 0.2132 0.5782 -0.2183
C13 C 0.1337(4) 0.5450(2) -0.3437(5)
H14 H 0.1042 0.5742 -0.3600
C14 C -0.4906(4) 0.6394(2) -1.2202(5)
H15 H -0.5280 0.6407 -1.2896
C15 C -0.4649(4) 0.5923(2) -1.1755(5)
H16 H -0.4824 0.5629 -1.2172
C16 C -0.4125(4) 0.5897(2) -1.0674(5)
C17 C -0.3845(4) 0.6349(2) -1.0141(5)
H17 H -0.3484 0.6347 -0.9430
C18 C -0.4106(4) 0.6797(2) -1.0671(5)
H18 H -0.3902 0.7096 -1.0313
C19 C 0.6539(5) 0.2887(2) 0.3102(7)
C20 C 0.7411(5) 0.2915(2) 0.2971(7)
C21 C 0.7742(6) 0.2681(3) 0.2012(9)
H19 H 0.7417 0.2510 0.1404
C22 C 0.8545(7) 0.2689(4) 0.1909(10)
H20 H 0.8758 0.2545 0.1212
C23 C 0.9026(6) 0.2913(4) 0.2852(10)
H21 H 0.9574 0.2897 0.2817
C24 C 0.8734(6) 0.3154(3) 0.3823(9)
H22 H 0.9066 0.3321 0.4431
C25 C 0.7945(5) 0.3146(2) 0.3884(7)
H23 H 0.7738 0.3301 0.4571
C26 C 0.3435(4) 0.2447(2) 0.2879(6)
C27 C 0.2590(5) 0.2284(2) 0.2574(6)
C28 C 0.2368(5) 0.1982(2) 0.1516(6)
H24 H 0.2751 0.1864 0.1009
C29 C 0.1573(5) 0.1860(3) 0.1228(8)
H25 H 0.1427 0.1667 0.0512
C30 C 0.1023(5) 0.2013(3) 0.1956(8)
H26 H 0.0494 0.1928 0.1751
C31 C 0.1230(5) 0.2300(3) 0.3019(7)
H27 H 0.0842 0.2404 0.3535
C32 C 0.2015(5) 0.2433(3) 0.3322(6)
H28 H 0.2151 0.2625 0.4042
C33 C -0.0619(4) 0.5782(2) -0.3351(6)
C34 C -0.0958(4) 0.5889(3) -0.2134(6)
C35 C -0.1209(5) 0.6378(2) -0.1886(6)
H29 H -0.1138 0.6635 -0.2464
C36 C -0.1569(5) 0.6487(3) -0.0763(7)
H30 H -0.1725 0.6816 -0.0593
C37 C -0.1688(5) 0.6108(3) 0.0071(7)
H31 H -0.1934 0.6176 0.0805
C38 C -0.1436(5) 0.5607(3) -0.0182(7)
H32 H -0.1503 0.5349 0.0397
C39 C -0.1090(5) 0.5506(3) -0.1298(7)
H33 H -0.0947 0.5176 -0.1482
C40 C -0.0051(4) 0.4176(2) -0.2735(6)
H34 H 0.0087 0.4507 -0.2388
H35 H 0.0414 0.3962 -0.2608
C41 C -0.0705(5) 0.3957(3) -0.2053(8)
C42 C -0.1448(7) 0.3844(4) -0.2584(9)
H36 H -0.1553 0.3900 -0.3447
C43 C -0.2047(7) 0.3655(5) -0.1940(10)
H37 H -0.2554 0.3612 -0.2337
C44 C -0.1881(7) 0.3530(6) -0.0681(12)
H38 H -0.2260 0.3366 -0.0242
C45 C -0.1175(8) 0.3644(6) -0.0097(10)
H39 H -0.1081 0.3576 0.0762
C46 C -0.0551(6) 0.3871(4) -0.0762(8)
H40 H -0.0065 0.3957 -0.0341
N6C N -0.5360(3) 0.18294(16) -1.3320(4)
Cu2C Cu -0.50179(6) 0.75166(3) -1.22371(6)
N5B N 0.1096(3) 0.5027(2) -0.4041(4)
C9B C 0.1553(4) 0.4626(2) -0.3847(5)
C10B C 0.2218(4) 0.4612(2) -0.3027(5)
C11B C 0.2449(3) 0.5050(2) -0.2356(5)
C7B C 0.3084(3) 0.5035(2) -0.1297(5)
N2B N 0.3326(3) 0.54703(16) -0.0805(4)
C6B C 0.3824(4) 0.5456(2) 0.0200(5)
N4B N 0.4120(2) 0.5019(2) 0.0704(3)
C8B C 0.3854(4) 0.4605(2) 0.0137(6)
N3B N 0.3362(3) 0.45913(16) -0.0880(4)
C16B C 0.4125(4) 0.4103(2) 0.0674(5)
C15B C 0.4649(4) 0.4077(2) 0.1755(5)
C14B C 0.4906(4) 0.3606(2) 0.2202(5)
N6B N 0.4640(3) 0.31706(16) 0.1680(4)
Cu2A Cu 0.50179(6) 0.24834(3) 0.22371(6)
O1A O 0.4966(3) 0.21384(12) 0.0271(4)
H1A H 0.5418 0.2100 0.0061
H2A H 0.457(4) 0.206(2) -0.025(6)
N1A N 0.5382(3) 0.18390(17) 0.3082(4)
C18B C 0.4106(4) 0.3203(2) 0.0671(5)
C17B C 0.3845(4) 0.3651(2) 0.0141(5)
H17B H 0.3484 0.3653 -0.0570
H18B H 0.3902 0.2904 0.0313
H15B H 0.5280 0.3593 0.2896
H16B H 0.4824 0.4371 0.2172
C3B C 0.4134(4) 0.5933(2) 0.0792(5)
O6B O 0.0454(3) 0.46832(13) -0.6441(3)
C33B C 0.0619(4) 0.4218(2) -0.6649(6)
O7B O 0.0489(3) 0.38591(13) -0.5906(4)
C34B C 0.0958(4) 0.4111(3) -0.7866(6)
C35B C 0.1209(5) 0.3622(2) -0.8114(6)
H29B H 0.1138 0.3365 -0.7536
C36B C 0.1569(5) 0.3513(3) -0.9237(7)
H30B H 0.1725 0.3184 -0.9407
C37B C 0.1688(5) 0.3892(3) -1.0071(7)
H31B H 0.1934 0.3824 -1.0805
C38B C 0.1436(5) 0.4393(3) -0.9818(7)
H32B H 0.1503 0.4651 -1.0397
C39B C 0.1090(5) 0.4494(3) -0.8702(7)
H33B H 0.0947 0.4824 -0.8518
O8B O 0.0273(2) 0.57788(13) -0.5956(3)
H6B H 0.0515 0.6044 -0.5494
C40B C 0.0051(4) 0.5824(2) -0.7265(6)
H34B H -0.0087 0.5493 -0.7612
H35B H -0.0414 0.6038 -0.7392
C41B C 0.0705(5) 0.6043(3) -0.7947(8)
C42B C 0.1448(7) 0.6156(4) -0.7416(9)
H36B H 0.1553 0.6100 -0.6553
C43B C 0.2047(7) 0.6345(5) -0.8060(10)
H37B H 0.2554 0.6388 -0.7663
C44B C 0.1881(7) 0.6470(6) -0.9319(12)
H38B H 0.2260 0.6634 -0.9758
C45B C 0.1175(8) 0.6356(6) -0.9903(10)
H39B H 0.1081 0.6424 -1.0762
C46B C 0.0551(6) 0.6129(4) -0.9238(8)
H40B H 0.0065 0.6043 -0.9659
C13B C -0.1337(4) 0.4550(2) -0.6563(5)
C12B C -0.1995(4) 0.4521(2) -0.7410(5)
H13B H -0.2132 0.4218 -0.7817
H14B H -0.1042 0.4258 -0.6400
H11B H -0.1413 0.5667 -0.5702
H12B H -0.2513 0.5684 -0.7083
O2A O -0.3879(3) 0.23156(14) -1.2827(4)
C19A C -0.3461(5) 0.2113(2) -1.1898(7)
O3A O -0.3729(3) 0.19207(16) -1.0931(4)
C20A C -0.2589(5) 0.2085(2) -1.2029(7)
C21A C -0.2258(6) 0.2319(3) -1.2988(9)
H19A H -0.2583 0.2490 -1.3596
C22A C -0.1455(7) 0.2311(4) -1.3091(10)
H20A H -0.1242 0.2455 -1.3788
C23A C -0.0974(6) 0.2087(4) -1.2148(10)
H21A H -0.0426 0.2103 -1.2183
C24A C -0.1266(6) 0.1846(3) -1.1177(9)
H22A H -0.0934 0.1679 -1.0569
C25A C -0.2055(5) 0.1854(2) -1.1116(7)
H23A H -0.2262 0.1699 -1.0429
O4A O -0.6061(3) 0.27520(14) -1.2778(4)
C26A C -0.6565(4) 0.2553(2) -1.2121(6)
O5A O -0.6416(2) 0.22340(12) -1.1238(3)
C27A C -0.7410(5) 0.2716(2) -1.2426(6)
C28A C -0.7632(5) 0.3018(2) -1.3484(6)
H24A H -0.7249 0.3136 -1.3991
C29A C -0.8427(5) 0.3140(3) -1.3772(8)
H25A H -0.8573 0.3333 -1.4488
C30A C -0.8977(5) 0.2987(3) -1.3044(8)
H26A H -0.9506 0.3072 -1.3249
C31A C -0.8770(5) 0.2700(3) -1.1981(7)
H27A H -0.9158 0.2596 -1.1465
C32A C -0.7985(5) 0.2567(3) -1.1678(6)
H28A H -0.7849 0.2375 -1.0958
C2B C 0.4581(4) 0.5931(2) 0.1938(5)
C4B C 0.3913(4) 0.6383(2) 0.0218(5)
C1B C 0.4822(4) 0.6396(2) 0.2442(5)
H8B H 0.4716 0.5630 0.2357
H9B H 0.3607 0.6389 -0.0552
C5B C 0.4163(4) 0.6826(2) 0.0821(5)
N1B N 0.4618(3) 0.68390(17) 0.1918(4)
H7B H 0.5147 0.6398 0.3194
H10B H 0.4006 0.7132 0.0445
Cu2B Cu 0.49821(6) 0.74834(3) 0.27629(6)
O9 O -0.6164(9) -0.0718(8) -0.9731(13)
H41 H -0.624(3) -0.0977(16) -0.929(4)
C47 C -0.6474(13) -0.0042(9) -1.0281(16)
C48 C -0.7028(8) 0.0032(6) -1.1221(11)
H42 H -0.7339 -0.0215 -1.1645
C49 C -0.7060(10) 0.0663(13) -1.150(2)
H43 H -0.7402 0.0800 -1.2147
C50 C -0.6659(11) 0.0904(11) -1.0893(16)
H44 H -0.6746 0.1250 -1.0976
C51 C -0.6100(16) 0.0779(13) -1.0101(15)
H45 H -0.5718 0.1010 -0.9789
C52 C -0.6084(11) 0.0254(11) -0.9699(15)
H46 H -0.5767 0.0154 -0.8984
C53 C -0.6730(10) -0.0728(8) -1.0502(11)
H47 H -0.7227 -0.0836 -1.0194
H48 H -0.6639 -0.0872 -1.1319
H3? H -0.6837 -0.0753 -1.6132
H4? H -0.6772 0.0688 -1.6255
H5? H -0.5539 -0.0012 -1.3647
loop_
_geom_bond_atom_site_label_1
_geom_bond_atom_site_label_2
_geom_bond_site_symmetry_1
_geom_bond_site_symmetry_2
Cu1 N5 1_555 1_555
Cu2 O1 1_555 1_555
O1 H1 1_555 1_555
H2 O1 1_555 1_555
N1 Cu2 1_555 1_555
N2 C6 1_555 1_555
N3 C7 1_555 1_555
N4 C6 1_555 1_555
N5 C9 1_555 1_555
N6 C14 1_555 1_555
O2 C19 1_555 1_555
O3 C19 1_555 1_555
O4 C26 1_555 1_555
O5 C26 1_555 1_555
O6 Cu1 1_555 1_555
O7 C33 1_555 1_555
O8 Cu1 1_555 1_555
H6 O8 1_555 1_555
C1 N1 1_555 1_555
H7 C1 1_555 1_555
C2 C1 1_555 1_555
H8 C2 1_555 1_555
C3 C2 1_555 1_555
C4 C3 1_555 1_555
H9 C4 1_555 1_555
C5 N1 1_555 1_555
H10 C5 1_555 1_555
C6 C3 1_555 1_555
C7 N2 1_555 1_555
C8 N3 1_555 1_555
C9 C10 1_555 1_555
H11 C9B 1_555 1_555
C10 C11 1_555 1_555
H12 C10B 1_555 1_555
C11 C7 1_555 1_555
C12 H13 1_555 1_555
C13 C12 1_555 1_555
H14 C13 1_555 1_555
C14 H15 1_555 1_555
C15 C14 1_555 1_555
H16 C15 1_555 1_555
C16 C8 1_555 1_555
C17 C16 1_555 1_555
H17 C17 1_555 1_555
C18 N6 1_555 1_555
H18 C18 1_555 1_555
C19 C20 1_555 1_555
C20 C21 1_555 1_555
C21 H19 1_555 1_555
C22 C21 1_555 1_555
H20 C22 1_555 1_555
C23 C22 1_555 1_555
H21 C23 1_555 1_555
C24 C23 1_555 1_555
H22 C24 1_555 1_555
C25 C20 1_555 1_555
H23 C25 1_555 1_555
C26 C27 1_555 1_555
C27 C28 1_555 1_555
C28 H24 1_555 1_555
C29 C28 1_555 1_555
H25 C29 1_555 1_555
C30 C29 1_555 1_555
H26 C30 1_555 1_555
C31 C30 1_555 1_555
H27 C31 1_555 1_555
C32 C27 1_555 1_555
H28 C32 1_555 1_555
C33 O6 1_555 1_555
C34 C33 1_555 1_555
C35 C34 1_555 1_555
H29 C35 1_555 1_555
C36 C35 1_555 1_555
H30 C36 1_555 1_555
C37 C36 1_555 1_555
H31 C37 1_555 1_555
C38 C37 1_555 1_555
H32 C38 1_555 1_555
C39 C34 1_555 1_555
H33 C39 1_555 1_555
C40 O8 1_555 1_555
H34 C40 1_555 1_555
H35 C40 1_555 1_555
C41 C40 1_555 1_555
C42 C41 1_555 1_555
H36 C42 1_555 1_555
C43 C42 1_555 1_555
H37 C43 1_555 1_555
C44 C43 1_555 1_555
H38 C44 1_555 1_555
C45 C44 1_555 1_555
H39 C45 1_555 1_555
C46 C41 1_555 1_555
H40 C46 1_555 1_555
O9 H41 1_555 1_555
C47 C48 1_555 1_555
C48 H42 1_555 1_555
C49 C48 1_555 1_555
H43 C49 1_555 1_555
C50 C49 1_555 1_555
H44 C50 1_555 1_555
C51 C50 1_555 1_555
H45 C51 1_555 1_555
C52 C47 1_555 1_555
H46 C52 1_555 1_555
C53 O9 1_555 1_555
H47 C53 1_555 1_555
H48 C53 1_555 1_555
N6C Cu2 1_555 1_555
Cu2C N6 1_555 1_555
N5B Cu1 1_555 1_555
C9B N5B 1_555 1_555
C10B C9B 1_555 1_555
C11B C12 1_555 1_555
C7B C11B 1_555 1_555
N2B C7B 1_555 1_555
C6B N2B 1_555 1_555
N4B C6B 1_555 1_555
C8B N4B 1_555 1_555
N3B C7B 1_555 1_555
C16B C8B 1_555 1_555
C15B C16B 1_555 1_555
C14B C15B 1_555 1_555
N6B C14B 1_555 1_555
Cu2A O2 1_555 1_555
O1A Cu2A 1_555 1_555
H1A O1A 1_555 1_555
H2A O1A 1_555 1_555
N1A Cu2A 1_555 1_555
C18B N6B 1_555 1_555
C17B C16B 1_555 1_555
H17B C17B 1_555 1_555
H18B C18B 1_555 1_555
H15B C14B 1_555 1_555
H16B C15B 1_555 1_555
C3B C6B 1_555 1_555
O6B Cu1 1_555 1_555
C33B O6B 1_555 1_555
O7B C33B 1_555 1_555
C34B C33B 1_555 1_555
C35B C34B 1_555 1_555
H29B C35B 1_555 1_555
C36B C35B 1_555 1_555
H30B C36B 1_555 1_555
C37B C36B 1_555 1_555
H31B C37B 1_555 1_555
C38B C37B 1_555 1_555
H32B C38B 1_555 1_555
C39B C34B 1_555 1_555
H33B C39B 1_555 1_555
O8B Cu1 1_555 1_555
H6B O8B 1_555 1_555
C40B O8B 1_555 1_555
H34B C40B 1_555 1_555
H35B C40B 1_555 1_555
C41B C40B 1_555 1_555
C42B C41B 1_555 1_555
H36B C42B 1_555 1_555
C43B C42B 1_555 1_555
H37B C43B 1_555 1_555
C44B C43B 1_555 1_555
H38B C44B 1_555 1_555
C45B C44B 1_555 1_555
H39B C45B 1_555 1_555
C46B C41B 1_555 1_555
H40B C46B 1_555 1_555
C13B N5 1_555 1_555
C12B C11 1_555 1_555
H13B C12B 1_555 1_555
H14B C13B 1_555 1_555
H11B C9 1_555 1_555
H12B C10 1_555 1_555
O2A Cu2 1_555 1_555
C19A O2A 1_555 1_555
O3A C19A 1_555 1_555
C20A C19A 1_555 1_555
C21A C20A 1_555 1_555
H19A C21A 1_555 1_555
C22A C21A 1_555 1_555
H20A C22A 1_555 1_555
C23A C22A 1_555 1_555
H21A C23A 1_555 1_555
C24A C23A 1_555 1_555
H22A C24A 1_555 1_555
C25A C20A 1_555 1_555
H23A C25A 1_555 1_555
O4A Cu2 1_555 1_555
C26A O4A 1_555 1_555
O5A C26A 1_555 1_555
C27A C26A 1_555 1_555
C28A C27A 1_555 1_555
H24A C28A 1_555 1_555
C29A C28A 1_555 1_555
H25A C29A 1_555 1_555
C30A C29A 1_555 1_555
H26A C30A 1_555 1_555
C31A C30A 1_555 1_555
H27A C31A 1_555 1_555
C32A C27A 1_555 1_555
H28A C32A 1_555 1_555
C2B C3B 1_555 1_555
C4B C3B 1_555 1_555
C1B C2B 1_555 1_555
H8B C2B 1_555 1_555
H9B C4B 1_555 1_555
C5B C4B 1_555 1_555
N1B C1B 1_555 1_555
H7B C1B 1_555 1_555
H10B C5B 1_555 1_555
Cu2B N1B 1_555 1_555
N4 C8 1_555 1_555
O4 Cu2A 1_555 1_555
C4 C5 1_555 1_555
C13 N5B 1_555 1_555
C15 C16 1_555 1_555
C17 C18 1_555 1_555
C24 C25 1_555 1_555
C31 C32 1_555 1_555
C38 C39 1_555 1_555
C45 C46 1_555 1_555
C47 C53 1_555 1_555
C51 C52 1_555 1_555
C10B C11B 1_555 1_555
C8B N3B 1_555 1_555
N6B Cu2A 1_555 1_555
C18B C17B 1_555 1_555
C38B C39B 1_555 1_555
C45B C46B 1_555 1_555
C13B C12B 1_555 1_555
C24A C25A 1_555 1_555
C31A C32A 1_555 1_555
C5B N1B 1_555 1_555

#END
