
#######################################################################
#
#                 Cambridge Crystallographic Data Centre
#                                CCDC 
#
#######################################################################
#
# If this CIF has been generated from an entry in the Cambridge 
# Structural Database, then it will include bibliographic, chemical, 
# crystal, experimental, refinement or atomic coordinate data resulting 
# from the CCDC's data processing and validation procedures.
#
#######################################################################

data_ISIKIE
_symmetry_cell_setting           orthorhombic
_symmetry_space_group_name_H-M   'P c c a'
_symmetry_Int_Tables_number      54
_space_group_name_Hall           '-P 2a 2ac'
loop_
_symmetry_equiv_pos_site_id
_symmetry_equiv_pos_as_xyz
1 x,y,z
2 1/2+x,y,-z
3 x,-y,1/2+z
4 1/2-x,y,1/2+z
5 -x,-y,-z
6 1/2-x,-y,z
7 -x,y,1/2-z
8 1/2+x,-y,1/2-z
_cell_length_a                   15.7601(2)
_cell_length_b                   8.9331(1)
_cell_length_c                   22.1109(3)
_cell_angle_alpha                90
_cell_angle_beta                 90
_cell_angle_gamma                90
_cell_volume                     3112.92
loop_
_atom_site_label
_atom_site_type_symbol
_atom_site_fract_x
_atom_site_fract_y
_atom_site_fract_z
Mn1 Mn -0.136810(19) -0.14613(3) 0.413040(15)
O1 O -0.20279(10) -0.35036(16) 0.44597(7)
O2 O -0.32048(9) -0.73630(16) 0.32666(6)
O3 O -0.2500 -0.5000 0.24379(9)
O4 O -0.2500 0.0000 0.43820(9)
O5 O -0.38564(10) 0.10597(18) 0.51096(7)
O6 O -0.16639(13) -0.0725(2) 0.64162(8)
N1 N 0.09741(11) 0.04824(19) 0.14108(8)
N2 N -0.00714(12) -0.2462(2) 0.40720(8)
C1 C -0.22821(13) -0.4290(2) 0.40253(9)
C2 C -0.28454(13) -0.6159(2) 0.34007(9)
C3 C -0.2500 -0.5000 0.29912(13)
C4 C -0.2500 0.0000 0.49684(13)
C5 C -0.31816(13) 0.0538(2) 0.53272(9)
C6 C -0.20641(15) -0.0362(2) 0.59685(10)
C7 C 0.12886(14) 0.0745(3) 0.19653(11)
H1 H 0.1621 0.0008 0.2145
C8 C 0.11463(15) 0.2037(3) 0.22801(11)
H2 H 0.1379 0.2162 0.2663
C9 C 0.06536(14) 0.3161(2) 0.20274(11)
C10 C 0.03268(16) 0.2898(3) 0.14617(11)
H3 H -0.0005 0.3621 0.1273
C11 C 0.04907(16) 0.1558(3) 0.11731(11)
H4 H 0.0252 0.1398 0.0794
C12 C 0.04569(14) 0.4563(2) 0.23804(11)
H5 H 0.0540 0.5429 0.2122
H6 H 0.0847 0.4643 0.2718
C13 C 0.04150(15) -0.2327(2) 0.35796(10)
H7 H 0.0188 -0.1846 0.3244
C14 C 0.12335(14) -0.2860(3) 0.35418(10)
H8 H 0.1540 -0.2750 0.3185
C15 C 0.15954(15) -0.3557(2) 0.40335(10)
C16 C 0.10887(17) -0.3721(3) 0.45447(11)
H9 H 0.1301 -0.4206 0.4885
C17 C 0.02736(15) -0.3165(3) 0.45470(11)
H10 H -0.0052 -0.3284 0.4894
C18 C 0.24910(15) -0.4147(2) 0.40234(10)
H11 H 0.2206 -0.6222 0.4375
H12 H 0.2221 -0.6221 0.3665
C12F C -0.04569(14) 0.4563(2) 0.26196(11)
C9F C -0.06536(14) 0.3161(2) 0.29726(11)
C8F C -0.11463(15) 0.2037(3) 0.27199(11)
C7F C -0.12886(14) 0.0745(3) 0.30347(11)
N1F N -0.09741(11) 0.04824(19) 0.35892(8)
Mn1F Mn 0.136810(19) -0.14613(3) 0.086960(15)
C1E C -0.27179(13) -0.5710(2) 0.40253(9)
O1E O -0.29721(10) -0.64964(16) 0.44597(7)
Mn1E Mn -0.363190(19) -0.85387(3) 0.413040(15)
C2E C -0.21546(13) -0.3841(2) 0.34007(9)
O2E O -0.17952(9) -0.26370(16) 0.32666(6)
Mn1E_2 Mn -0.363190(19) 0.14613(3) 0.413040(15)
C5E C -0.18184(13) -0.0538(2) 0.53272(9)
O5E O -0.11436(10) -0.10597(18) 0.51096(7)
C18E C 0.25090(15) -0.5853(2) 0.40234(10)
C15E C 0.34046(15) -0.6443(2) 0.40335(10)
C14E C 0.37665(14) -0.7140(3) 0.35418(10)
C13E C 0.45850(15) -0.7673(2) 0.35796(10)
N2E N 0.50714(12) -0.7538(2) 0.40720(8)
Mn1E_3 Mn 0.636810(19) -0.85387(3) 0.413040(15)
C17E C 0.47264(15) -0.6835(3) 0.45470(11)
C16E C 0.39113(17) -0.6279(3) 0.45447(11)
H9E H 0.3699 -0.5794 0.4885
H10E H 0.5052 -0.6716 0.4894
H7E H 0.4812 -0.8154 0.3244
H8E H 0.3460 -0.7250 0.3185
H11E H 0.2794 -0.3778 0.4375
H12E H 0.2779 -0.3779 0.3665
C6E C -0.29359(15) 0.0362(2) 0.59685(10)
O6E O -0.33361(13) 0.0725(2) 0.64162(8)
O4_2 O -0.2500 -1.0000 0.43820(9)
O5_2 O -0.38564(10) -0.89403(18) 0.51096(7)
N1G N -0.40259(11) -1.04824(19) 0.35892(8)
N2E_2 N -0.49286(12) -0.7538(2) 0.40720(8)
C11F C -0.04907(16) 0.1558(3) 0.38269(11)
C10F C -0.03268(16) 0.2898(3) 0.35383(11)
H3F H 0.0005 0.3621 0.3727
H4F H -0.0252 0.1398 0.4206
H1F H -0.1621 0.0008 0.2855
H2F H -0.1379 0.2162 0.2337
H5F H -0.0540 0.5429 0.2878
H6F H -0.0847 0.4643 0.2282
loop_
_geom_bond_atom_site_label_1
_geom_bond_atom_site_label_2
_geom_bond_site_symmetry_1
_geom_bond_site_symmetry_2
Mn1 O1 1_555 1_555
O1 C1 1_555 1_555
O2 C2 1_555 1_555
O3 C3 1_555 1_555
O4 Mn1 1_555 1_555
O5 C5 1_555 1_555
O6 C6 1_555 1_555
N1 C7 1_555 1_555
N2 Mn1 1_555 1_555
C1 C1E 1_555 1_555
C2 C3 1_555 1_555
C3 C2E 1_555 1_555
C4 O4 1_555 1_555
C5 C4 1_555 1_555
C6 C5E 1_555 1_555
C7 H1 1_555 1_555
C8 C7 1_555 1_555
H2 C8 1_555 1_555
C9 C8 1_555 1_555
C10 C9 1_555 1_555
H3 C10 1_555 1_555
C11 N1 1_555 1_555
H4 C11 1_555 1_555
C12 C9 1_555 1_555
H5 C12 1_555 1_555
H6 C12 1_555 1_555
C13 N2 1_555 1_555
H7 C13 1_555 1_555
C14 C13 1_555 1_555
H8 C14 1_555 1_555
C15 C14 1_555 1_555
C16 C15 1_555 1_555
H9 C16 1_555 1_555
C17 N2 1_555 1_555
H10 C17 1_555 1_555
C18 C15 1_555 1_555
H11 C18E 1_555 1_555
H12 C18E 1_555 1_555
C12F C12 1_555 1_555
C9F C12F 1_555 1_555
C8F C9F 1_555 1_555
C7F C8F 1_555 1_555
N1F Mn1 1_555 1_555
Mn1F N1 1_555 1_555
C1E C2 1_555 1_555
O1E C1E 1_555 1_555
Mn1E O2 1_555 1_555
C2E C1 1_555 1_555
O2E Mn1 1_555 1_555
Mn1E_2 O4 1_555 1_555
C5E C4 1_555 1_555
O5E Mn1 1_555 1_555
C18E C18 1_555 1_555
C15E C18E 1_555 1_555
C14E C15E 1_555 1_555
C13E C14E 1_555 1_555
N2E C13E 1_555 1_555
Mn1E_3 N2E 1_555 1_555
C17E N2E 1_555 1_555
C16E C15E 1_555 1_555
H9E C16E 1_555 1_555
H10E C17E 1_555 1_555
H7E C13E 1_555 1_555
H8E C14E 1_555 1_555
H11E C18 1_555 1_555
H12E C18 1_555 1_555
C6E C5 1_555 1_555
O6E C6E 1_555 1_555
O4_2 Mn1E 1_555 1_555
O5_2 Mn1E 1_555 1_555
N1G Mn1E 1_555 1_555
N2E_2 Mn1E 1_555 1_555
C11F N1F 1_555 1_555
C10F C9F 1_555 1_555
H3F C10F 1_555 1_555
H4F C11F 1_555 1_555
H1F C7F 1_555 1_555
H2F C8F 1_555 1_555
H5F C12F 1_555 1_555
H6F C12F 1_555 1_555
O5 Mn1E_2 1_555 1_555
C6 C6E 1_555 1_555
C10 C11 1_555 1_555
C16 C17 1_555 1_555
C7F N1F 1_555 1_555
O1E Mn1E 1_555 1_555
C2E O2E 1_555 1_555
C5E O5E 1_555 1_555
C17E C16E 1_555 1_555
C11F C10F 1_555 1_555

#END
