
#######################################################################
#
#                 Cambridge Crystallographic Data Centre
#                                CCDC 
#
#######################################################################
#
# If this CIF has been generated from an entry in the Cambridge 
# Structural Database, then it will include bibliographic, chemical, 
# crystal, experimental, refinement or atomic coordinate data resulting 
# from the CCDC's data processing and validation procedures.
#
#######################################################################

data_ISIKUR
_symmetry_cell_setting           monoclinic
_symmetry_space_group_name_H-M   'P 21/n'
_symmetry_Int_Tables_number      14
_space_group_name_Hall           '-P 2yn'
loop_
_symmetry_equiv_pos_site_id
_symmetry_equiv_pos_as_xyz
1 x,y,z
2 1/2-x,1/2+y,1/2-z
3 -x,-y,-z
4 1/2+x,1/2-y,1/2+z
_cell_length_a                   7.9922(3)
_cell_length_b                   16.4478(6)
_cell_length_c                   16.7743(6)
_cell_angle_alpha                90
_cell_angle_beta                 99.940(3)
_cell_angle_gamma                90
_cell_volume                     2171.95
loop_
_atom_site_label
_atom_site_type_symbol
_atom_site_fract_x
_atom_site_fract_y
_atom_site_fract_z
Co1 Co 0.48689(5) 0.19550(2) 0.30421(2)
O1 O 0.8557(2) 0.45052(12) 0.05335(11)
O2 O 0.1630(3) 0.33506(11) -0.10475(11)
O3 O 0.3396(3) 0.40150(14) -0.17070(12)
O4 O 0.3239(3) 0.27032(12) 0.18612(12)
N1 N 0.3721(3) 0.09468(13) 0.25331(13)
O5 O 0.5967(3) 0.27069(11) 0.23545(11)
C1 C 0.5074(3) 0.33762(15) 0.10959(15)
N2 N 0.1779(3) 0.01770(15) 0.18302(16)
C2 C 0.6623(4) 0.37534(16) 0.11193(15)
H1 H 0.7416 0.3753 0.1595
C3 C 0.3892(3) 0.33863(16) 0.03825(15)
H2 H 0.2833 0.3147 0.0369
C4 C 0.6999(4) 0.41361(16) 0.04288(16)
C5 C 0.4280(3) 0.37493(15) -0.03078(15)
N3 N -0.8317(3) -0.25192(14) 0.12724(15)
C6 C 0.4702(4) 0.29118(16) 0.18118(16)
C7 C 0.9137(4) 0.48232(18) -0.01529(16)
H3 H 0.8369 0.5240 -0.0409
H4 H 0.9212 0.4396 -0.0544
N4 N -0.6063(4) -0.19740(17) 0.0911(2)
C8 C 0.5838(3) 0.41236(15) -0.02833(16)
H5 H 0.6103 0.4367 -0.0746
C9 C 0.4010(4) 0.01585(18) 0.27710(18)
H6 H 0.4909 -0.0019 0.3160
C10 C -0.1106(4) -0.0419(2) 0.1469(2)
H7 H -0.1477 -0.0067 0.1868
H8 H -0.0805 -0.0944 0.1717
C11 C 0.0374(4) -0.0058(2) 0.1177(2)
H9 H 0.0800 -0.0447 0.0825
H10 H 0.0000 0.0419 0.0856
C12 C 0.2801(5) -0.03219(19) 0.23596(19)
H11 H 0.2681 -0.0880 0.2422
C13 C -0.7302(6) -0.1984(2) 0.0249(2)
H12 H -0.7212 -0.1792 -0.0263
C14 C -0.8713(5) -0.23308(19) 0.0471(2)
H13 H -0.9751 -0.2421 0.0135
C15 C -0.6717(4) -0.22941(18) 0.1502(2)
H14 H -0.6123 -0.2357 0.2026
C16 C 0.2361(4) 0.09246(19) 0.1967(2)
H15 H 0.1868 0.1381 0.1695
C17 C 0.3024(4) 0.37162(17) -0.10912(17)
C18 C -0.4202(6) -0.0818(3) 0.0912(4)
H16 H -0.4393 -0.0588 0.1421
H17 H -0.5100 -0.0625 0.0491
C19 C -0.2520(6) -0.0517(3) 0.0738(3)
H18 H -0.2704 0.0005 0.0468
H19 H -0.2132 -0.0891 0.0362
C20 C -0.4301(3) -0.16469(18) 0.09559(17)
H20 H -0.3617 -0.1825 0.1460
H21 H -0.3812 -0.1880 0.0517
Co1B Co 1.51311(5) 0.80450(2) -0.30421(2)
Co1A Co -0.98689(5) -0.30450(2) 0.19579(2)
Co1A_2 Co 2.01311(5) 0.69550(2) 0.19579(2)
Co1C Co -0.01311(5) 0.30450(2) -0.19579(2)
Co1C_2 Co 2.98689(5) 1.30450(2) -0.19579(2)
O1B O 1.1443(2) 0.54948(12) -0.05335(11)
O2B O 1.8370(3) 0.66494(11) 0.10475(11)
O2A O 1.3370(3) 0.83506(11) -0.39525(11)
O2C O 0.6630(3) 0.16494(11) 0.39525(11)
O3B O 1.6604(3) 0.59850(14) 0.17070(12)
O4B O 1.6761(3) 0.72968(12) -0.18612(12)
N1B N 1.6279(3) 0.90532(13) -0.25331(13)
O5B O 1.4033(3) 0.72931(11) -0.23545(11)
C1B C 1.4926(3) 0.66238(15) -0.10959(15)
N2B N 1.8221(3) 0.98230(15) -0.18302(16)
C2B C 1.3377(4) 0.62466(16) -0.11193(15)
H1B H 1.2584 0.6247 -0.1595
C3B C 1.6108(3) 0.66137(16) -0.03825(15)
H2B H 1.7167 0.6853 -0.0369
C4B C 1.3001(4) 0.58639(16) -0.04288(16)
C5B C 1.5720(3) 0.62507(15) 0.03078(15)
N3B N 2.8317(3) 1.25192(14) -0.12724(15)
N3A N 0.3317(3) 0.24808(14) 0.37276(15)
N3C N 1.6683(3) 0.75192(14) -0.37276(15)
C6B C 1.5298(4) 0.70882(16) -0.18118(16)
C7B C 1.0863(4) 0.51768(18) 0.01529(16)
H3B H 1.1631 0.4760 0.0409
H4B H 1.0788 0.5604 0.0544
N4B N 2.6063(4) 1.19740(17) -0.0911(2)
C8B C 1.4162(3) 0.58764(15) 0.02833(16)
H5B H 1.3897 0.5633 0.0746
C9B C 1.5990(4) 0.98415(18) -0.27710(18)
H6B H 1.5091 1.0019 -0.3160
C10B C 2.1106(4) 1.0419(2) -0.1469(2)
H7B H 2.1477 1.0067 -0.1868
H8B H 2.0805 1.0944 -0.1717
C11B C 1.9626(4) 1.0058(2) -0.1177(2)
H9B H 1.9200 1.0447 -0.0825
H10B H 2.0000 0.9581 -0.0856
C12B C 1.7199(5) 1.03219(19) -0.23596(19)
H11B H 1.7319 1.0880 -0.2422
C13B C 2.7302(6) 1.1984(2) -0.0249(2)
H12B H 2.7212 1.1792 0.0263
C14B C 2.8713(5) 1.23308(19) -0.0471(2)
H13B H 2.9751 1.2421 -0.0135
C15B C 2.6717(4) 1.22941(18) -0.1502(2)
H14B H 2.6123 1.2357 -0.2026
C16B C 1.7639(4) 0.90754(19) -0.1967(2)
H15B H 1.8132 0.8619 -0.1695
C17B C 1.6976(4) 0.62838(17) 0.10912(17)
C18B C 2.4202(6) 1.0818(3) -0.0912(4)
H16B H 2.4393 1.0588 -0.1421
H17B H 2.5100 1.0625 -0.0491
C19B C 2.2520(6) 1.0517(3) -0.0738(3)
H18B H 2.2704 0.9995 -0.0468
H19B H 2.2132 1.0891 -0.0362
C20B C 2.4301(3) 1.16469(18) -0.09559(17)
H20B H 2.3617 1.1825 -0.1460
H21B H 2.3812 1.1880 -0.0517
O6 O -0.1426(3) 0.17384(18) 0.18139(17)
H22 H -0.2503(18) 0.167(4) 0.169(3)
H23 H -0.099(6) 0.151(3) 0.226(2)
loop_
_geom_bond_atom_site_label_1
_geom_bond_atom_site_label_2
_geom_bond_site_symmetry_1
_geom_bond_site_symmetry_2
Co1 N1 1_555 1_555
O1 C4 1_555 1_555
O2 C17 1_555 1_555
O3 C17 1_555 1_555
O4 C6 1_555 1_555
N1 C9 1_555 1_555
O5 Co1 1_555 1_555
C1 C2 1_555 1_555
N2 C11 1_555 1_555
C2 H1 1_555 1_555
C3 C1 1_555 1_555
H2 C3 1_555 1_555
C4 C2 1_555 1_555
C5 C3 1_555 1_555
N3 C14 1_555 1_555
C6 O5 1_555 1_555
C7 O1 1_555 1_555
H3 C7 1_555 1_555
H4 C7 1_555 1_555
N4 C13 1_555 1_555
C8 C4 1_555 1_555
H5 C8 1_555 1_555
C9 H6 1_555 1_555
C10 H7 1_555 1_555
H8 C10 1_555 1_555
C11 C10 1_555 1_555
H9 C11 1_555 1_555
H10 C11 1_555 1_555
C12 N2 1_555 1_555
H11 C12 1_555 1_555
C13 H12 1_555 1_555
C14 C13 1_555 1_555
H13 C14 1_555 1_555
C15 N3 1_555 1_555
H14 C15 1_555 1_555
C16 N1 1_555 1_555
H15 C16 1_555 1_555
C17 C5 1_555 1_555
C18 H16 1_555 1_555
H17 C18 1_555 1_555
C19 C10 1_555 1_555
H18 C19 1_555 1_555
H19 C19 1_555 1_555
C20 N4 1_555 1_555
H20 C20 1_555 1_555
H21 C20 1_555 1_555
O6 H22 1_555 1_555
H23 O6 1_555 1_555
Co1B O2A 1_555 1_555
Co1A N3 1_555 1_555
Co1A_2 O2B 1_555 1_555
Co1C O2 1_555 1_555
Co1C_2 N3B 1_555 1_555
O1B C4B 1_555 1_555
O2B C17B 1_555 1_555
O2C Co1 1_555 1_555
O3B C17B 1_555 1_555
O4B C6B 1_555 1_555
N1B Co1B 1_555 1_555
O5B Co1B 1_555 1_555
C1B C2B 1_555 1_555
N2B C11B 1_555 1_555
C2B H1B 1_555 1_555
C3B C1B 1_555 1_555
H2B C3B 1_555 1_555
C4B C2B 1_555 1_555
C5B C3B 1_555 1_555
N3B C14B 1_555 1_555
N3A Co1 1_555 1_555
N3C Co1B 1_555 1_555
C6B O5B 1_555 1_555
C7B C7 1_555 1_555
H3B C7B 1_555 1_555
H4B C7B 1_555 1_555
N4B C13B 1_555 1_555
C8B C4B 1_555 1_555
H5B C8B 1_555 1_555
C9B N1B 1_555 1_555
H6B C9B 1_555 1_555
C10B H7B 1_555 1_555
H8B C10B 1_555 1_555
C11B C10B 1_555 1_555
H9B C11B 1_555 1_555
H10B C11B 1_555 1_555
C12B N2B 1_555 1_555
H11B C12B 1_555 1_555
C13B H12B 1_555 1_555
C14B C13B 1_555 1_555
H13B C14B 1_555 1_555
C15B N3B 1_555 1_555
H14B C15B 1_555 1_555
C16B N1B 1_555 1_555
H15B C16B 1_555 1_555
C17B C5B 1_555 1_555
C18B H16B 1_555 1_555
H17B C18B 1_555 1_555
C19B C10B 1_555 1_555
H18B C19B 1_555 1_555
H19B C19B 1_555 1_555
C20B N4B 1_555 1_555
H20B C20B 1_555 1_555
H21B C20B 1_555 1_555
C1 C6 1_555 1_555
N2 C16 1_555 1_555
C5 C8 1_555 1_555
N4 C15 1_555 1_555
C9 C12 1_555 1_555
C18 C19 1_555 1_555
C18 C20 1_555 1_555
O1B C7B 1_555 1_555
C1B C6B 1_555 1_555
N2B C16B 1_555 1_555
C5B C8B 1_555 1_555
N4B C15B 1_555 1_555
C9B C12B 1_555 1_555
C18B C19B 1_555 1_555
C18B C20B 1_555 1_555

#END
