
#######################################################################
#
#                 Cambridge Crystallographic Data Centre
#                                CCDC 
#
#######################################################################
#
# If this CIF has been generated from an entry in the Cambridge 
# Structural Database, then it will include bibliographic, chemical, 
# crystal, experimental, refinement or atomic coordinate data resulting 
# from the CCDC's data processing and validation procedures.
#
#######################################################################

data_ISIKOK
_symmetry_cell_setting           orthorhombic
_symmetry_space_group_name_H-M   'P c c a'
_symmetry_Int_Tables_number      54
_space_group_name_Hall           '-P 2a 2ac'
loop_
_symmetry_equiv_pos_site_id
_symmetry_equiv_pos_as_xyz
1 x,y,z
2 1/2+x,y,-z
3 x,-y,1/2+z
4 1/2-x,y,1/2+z
5 -x,-y,-z
6 1/2-x,-y,z
7 -x,y,1/2-z
8 1/2+x,-y,1/2-z
_cell_length_a                   15.6685(11)
_cell_length_b                   8.8628(5)
_cell_length_c                   21.9418(13)
_cell_angle_alpha                90
_cell_angle_beta                 90
_cell_angle_gamma                90
_cell_volume                     3046.99
loop_
_atom_site_label
_atom_site_type_symbol
_atom_site_fract_x
_atom_site_fract_y
_atom_site_fract_z
Fe1 Fe -0.13619(2) -0.14944(5) 0.412390(18)
O1 O -0.20037(13) -0.3491(2) 0.44682(9)
O2 O -0.32235(12) -0.7359(2) 0.32783(9)
O3 O -0.2500 -0.5000 0.24390(12)
O4 O -0.2500 0.0000 0.43458(12)
O5 O -0.38721(12) 0.1013(3) 0.50719(9)
O6 O -0.16532(17) -0.0710(3) 0.63886(11)
N1 N 0.09767(14) 0.0430(3) 0.13888(11)
N2 N -0.01018(14) -0.2492(3) 0.40594(11)
C1 C -0.22756(16) -0.4288(3) 0.40374(12)
C2 C -0.28528(16) -0.6160(3) 0.34079(12)
C3 C -0.2500 -0.5000 0.29943(18)
C4 C -0.2500 0.0000 0.49286(17)
C5 C -0.31917(17) 0.0516(3) 0.52939(13)
C6 C -0.2061(2) -0.0349(3) 0.59397(13)
C7 C 0.12954(18) 0.0690(4) 0.19437(15)
H1 H 0.1636 -0.0049 0.2121
C8 C 0.11481(19) 0.1981(3) 0.22628(14)
H2 H 0.1384 0.2100 0.2649
C9 C 0.06526(17) 0.3109(3) 0.20185(14)
C10 C 0.0313(2) 0.2849(4) 0.14478(16)
H3 H -0.0028 0.3576 0.1262
C11 C 0.0482(2) 0.1499(4) 0.11525(15)
H4 H 0.0238 0.1333 0.0772
C12 C 0.04568(18) 0.4510(3) 0.23753(15)
H5 H 0.0535 0.5384 0.2115
H6 H 0.0855 0.4592 0.2712
C13 C 0.03861(18) -0.2353(3) 0.35663(13)
H7 H 0.0155 -0.1875 0.3227
C14 C 0.12141(18) -0.2874(3) 0.35286(13)
H8 H 0.1522 -0.2758 0.3169
C15 C 0.15817(17) -0.3566(3) 0.40243(13)
C16 C 0.1069(2) -0.3740(4) 0.45388(15)
H9 H 0.1282 -0.4223 0.4883
C17 C 0.02471(19) -0.3195(4) 0.45359(15)
H10 H -0.0083 -0.3323 0.4884
C18 C 0.24845(18) -0.4142(3) 0.40173(13)
H11 H 0.2215 -0.6236 0.4372
H12 H 0.2226 -0.6236 0.3657
C12F C -0.04568(18) 0.4510(3) 0.26247(15)
C9F C -0.06526(17) 0.3109(3) 0.29815(14)
C8F C -0.11481(19) 0.1981(3) 0.27372(14)
C7F C -0.12954(18) 0.0690(4) 0.30563(15)
N1F N -0.09767(14) 0.0430(3) 0.36112(11)
Fe1F Fe 0.13619(2) -0.14944(5) 0.087610(18)
C1E C -0.27244(16) -0.5712(3) 0.40374(12)
O1E O -0.29963(13) -0.6509(2) 0.44682(9)
Fe1E Fe -0.36381(2) -0.85056(5) 0.412390(18)
C2E C -0.21472(16) -0.3840(3) 0.34079(12)
O2E O -0.17765(12) -0.2641(2) 0.32783(9)
Fe1E_2 Fe -0.36381(2) 0.14944(5) 0.412390(18)
C5E C -0.18083(17) -0.0516(3) 0.52939(13)
O5E O -0.11279(12) -0.1013(3) 0.50719(9)
C18E C 0.25155(18) -0.5858(3) 0.40173(13)
C15E C 0.34183(17) -0.6434(3) 0.40243(13)
C14E C 0.37859(18) -0.7126(3) 0.35286(13)
C13E C 0.46139(18) -0.7647(3) 0.35663(13)
N2E N 0.51018(14) -0.7508(3) 0.40594(11)
Fe1E_3 Fe 0.63619(2) -0.85056(5) 0.412390(18)
C17E C 0.47529(19) -0.6805(4) 0.45359(15)
C16E C 0.3931(2) -0.6260(4) 0.45388(15)
H9E H 0.3718 -0.5777 0.4883
H10E H 0.5083 -0.6677 0.4884
H7E H 0.4845 -0.8125 0.3227
H8E H 0.3478 -0.7242 0.3169
H11E H 0.2785 -0.3764 0.4372
H12E H 0.2774 -0.3764 0.3657
C6E C -0.2939(2) 0.0349(3) 0.59397(13)
O6E O -0.33468(17) 0.0710(3) 0.63886(11)
O4_2 O -0.2500 -1.0000 0.43458(12)
O5_2 O -0.38721(12) -0.8987(3) 0.50719(9)
N1G N -0.40233(14) -1.0430(3) 0.36112(11)
N2E_2 N -0.48982(14) -0.7508(3) 0.40594(11)
C11F C -0.0482(2) 0.1499(4) 0.38475(15)
C10F C -0.0313(2) 0.2849(4) 0.35522(16)
H3F H 0.0028 0.3576 0.3738
H4F H -0.0238 0.1333 0.4228
H1F H -0.1636 -0.0049 0.2879
H2F H -0.1384 0.2100 0.2351
H5F H -0.0535 0.5384 0.2885
H6F H -0.0855 0.4592 0.2288
loop_
_geom_bond_atom_site_label_1
_geom_bond_atom_site_label_2
_geom_bond_site_symmetry_1
_geom_bond_site_symmetry_2
Fe1 O1 1_555 1_555
O1 C1 1_555 1_555
O2 C2 1_555 1_555
O3 C3 1_555 1_555
O4 Fe1 1_555 1_555
O5 C5 1_555 1_555
O6 C6 1_555 1_555
N1 C7 1_555 1_555
N2 Fe1 1_555 1_555
C1 C1E 1_555 1_555
C2 C3 1_555 1_555
C3 C2E 1_555 1_555
C4 O4 1_555 1_555
C5 C4 1_555 1_555
C6 C5E 1_555 1_555
C7 H1 1_555 1_555
C8 C7 1_555 1_555
H2 C8 1_555 1_555
C9 C8 1_555 1_555
C10 C9 1_555 1_555
H3 C10 1_555 1_555
C11 N1 1_555 1_555
H4 C11 1_555 1_555
C12 C9 1_555 1_555
H5 C12 1_555 1_555
H6 C12 1_555 1_555
C13 N2 1_555 1_555
H7 C13 1_555 1_555
C14 C13 1_555 1_555
H8 C14 1_555 1_555
C15 C14 1_555 1_555
C16 C15 1_555 1_555
H9 C16 1_555 1_555
C17 N2 1_555 1_555
H10 C17 1_555 1_555
C18 C15 1_555 1_555
H11 C18E 1_555 1_555
H12 C18E 1_555 1_555
C12F C12 1_555 1_555
C9F C12F 1_555 1_555
C8F C9F 1_555 1_555
C7F C8F 1_555 1_555
N1F Fe1 1_555 1_555
Fe1F N1 1_555 1_555
C1E C2 1_555 1_555
O1E C1E 1_555 1_555
Fe1E O2 1_555 1_555
C2E C1 1_555 1_555
O2E Fe1 1_555 1_555
Fe1E_2 O4 1_555 1_555
C5E C4 1_555 1_555
O5E Fe1 1_555 1_555
C18E C18 1_555 1_555
C15E C18E 1_555 1_555
C14E C15E 1_555 1_555
C13E C14E 1_555 1_555
N2E C13E 1_555 1_555
Fe1E_3 N2E 1_555 1_555
C17E N2E 1_555 1_555
C16E C15E 1_555 1_555
H9E C16E 1_555 1_555
H10E C17E 1_555 1_555
H7E C13E 1_555 1_555
H8E C14E 1_555 1_555
H11E C18 1_555 1_555
H12E C18 1_555 1_555
C6E C5 1_555 1_555
O6E C6E 1_555 1_555
O4_2 Fe1E 1_555 1_555
O5_2 Fe1E 1_555 1_555
N1G Fe1E 1_555 1_555
N2E_2 Fe1E 1_555 1_555
C11F N1F 1_555 1_555
C10F C9F 1_555 1_555
H3F C10F 1_555 1_555
H4F C11F 1_555 1_555
H1F C7F 1_555 1_555
H2F C8F 1_555 1_555
H5F C12F 1_555 1_555
H6F C12F 1_555 1_555
O5 Fe1E_2 1_555 1_555
C6 C6E 1_555 1_555
C10 C11 1_555 1_555
C16 C17 1_555 1_555
C7F N1F 1_555 1_555
O1E Fe1E 1_555 1_555
C2E O2E 1_555 1_555
C5E O5E 1_555 1_555
C17E C16E 1_555 1_555
C11F C10F 1_555 1_555

#END
