
#######################################################################
#
#                 Cambridge Crystallographic Data Centre
#                                CCDC 
#
#######################################################################
#
# If this CIF has been generated from an entry in the Cambridge 
# Structural Database, then it will include bibliographic, chemical, 
# crystal, experimental, refinement or atomic coordinate data resulting 
# from the CCDC's data processing and validation procedures.
#
#######################################################################

data_ISILAY
_symmetry_cell_setting           monoclinic
_symmetry_space_group_name_H-M   'P 21/n'
_symmetry_Int_Tables_number      14
_space_group_name_Hall           '-P 2yn'
loop_
_symmetry_equiv_pos_site_id
_symmetry_equiv_pos_as_xyz
1 x,y,z
2 1/2-x,1/2+y,1/2-z
3 -x,-y,-z
4 1/2+x,1/2-y,1/2+z
_cell_length_a                   8.2136(4)
_cell_length_b                   16.7350(9)
_cell_length_c                   16.6491(8)
_cell_angle_alpha                90
_cell_angle_beta                 98.248(5)
_cell_angle_gamma                90
_cell_volume                     2264.82
loop_
_atom_site_label
_atom_site_type_symbol
_atom_site_fract_x
_atom_site_fract_y
_atom_site_fract_z
Co1 Co 0.51834(4) 0.19441(2) 0.30880(2)
O1 O 1.1174(2) 0.23216(13) 0.73570(12)
O2 O 0.8545(3) 0.23911(14) 0.68822(13)
O3 O 1.3617(2) 0.05455(14) 0.55066(14)
O4 O 0.6906(2) 0.16839(12) 0.39943(11)
O5 O 0.8554(3) 0.09693(15) 0.33257(13)
N1 N -0.6381(3) -0.19849(14) 0.08952(18)
N2 N -0.8607(3) -0.25339(14) 0.12338(15)
N3 N 0.4129(3) 0.09167(14) 0.26532(15)
C1 C 0.9101(3) 0.16553(16) 0.54003(16)
H1 H 0.8083 0.1898 0.5400
C2 C 1.2101(3) 0.08984(17) 0.54191(17)
C3 C 0.9451(3) 0.12725(16) 0.47109(15)
N4 N 0.2129(3) 0.00458(16) 0.23468(17)
C4 C 1.0264(3) 0.16801(16) 0.60968(16)
C5 C 0.9938(3) 0.21571(17) 0.68118(16)
C6 C 1.0957(3) 0.08870(16) 0.47165(17)
H2 H 1.1196 0.0625 0.4255
C7 C 1.4145(4) 0.0160(2) 0.48461(19)
H3 H 1.4187 0.0533 0.4403
H4 H 1.3405 -0.0273 0.4656
C8 C 1.1758(3) 0.13019(16) 0.60962(16)
H5 H 1.2541 0.1320 0.6558
C9 C -0.7503(4) -0.20133(19) 0.0219(2)
H6 H -0.7360 -0.1831 -0.0294
C10 C -0.3004(7) -0.0391(4) 0.1106(5)
H7 H -0.3070 0.0163 0.0933
H8 H -0.2893 -0.0391 0.1694
C11 C 0.8224(3) 0.12973(17) 0.39424(16)
C12 C -0.8865(4) -0.23539(19) 0.04261(19)
H9 H -0.9830 -0.2452 0.0075
C13 C -0.4662(5) -0.0792(3) 0.0782(4)
H10 H -0.5538 -0.0521 0.1007
H11 H -0.4871 -0.0734 0.0197
C14 C 0.2573(4) 0.0809(2) 0.2360(2)
H12 H 0.1857 0.1223 0.2181
C15 C 0.4719(5) 0.0163(2) 0.2832(2)
H13 H 0.5798 0.0037 0.3044
C16 C 0.3481(6) -0.0370(2) 0.2650(3)
H14 H 0.3552 -0.0921 0.2720
C17 C 0.0000(5) -0.0261(3) 0.1197(3)
H15 H 0.0861 -0.0511 0.0942
H16 H -0.0085 0.0291 0.1021
C18 C 0.0472(5) -0.0282(2) 0.2072(3)
H17 H 0.0436 -0.0831 0.2256
H18 H -0.0326 0.0020 0.2325
C19 C -0.7097(4) -0.23074(18) 0.1498(2)
H19 H -0.6588 -0.2362 0.2032
C20 C -0.4693(4) -0.1673(2) 0.0996(3)
H20 H -0.4055 -0.1970 0.0649
H21 H -0.4186 -0.1748 0.1553
C21 C -0.1653(7) -0.0689(4) 0.0903(4)
H22 H -0.1783 -0.0713 0.0315
H23 H -0.1557 -0.1235 0.1100
Co1B Co 2.48166(4) -0.19441(2) 0.69120(2)
Co1A Co -1.01834(4) -0.30559(2) 0.19120(2)
Co1A_2 Co 1.98166(4) -0.30559(2) 0.19120(2)
Co1C Co 1.01834(4) 0.30559(2) 0.80880(2)
Co1C_2 Co 4.01834(4) 0.30559(2) 0.80880(2)
O1B O 1.8826(2) -0.23216(13) 0.26430(12)
O1A O 2.3826(2) -0.26784(13) 0.76430(12)
O1C O 0.6174(2) 0.26784(13) 0.23570(12)
O2B O 2.1455(3) -0.23911(14) 0.31178(13)
O3B O 1.6383(2) -0.05455(14) 0.44934(14)
O4B O 2.3094(2) -0.16839(12) 0.60057(11)
O5B O 2.1446(3) -0.09693(15) 0.66743(13)
N1B N 3.6381(3) 0.19849(14) 0.91048(18)
N2B N 3.8607(3) 0.25339(14) 0.87662(15)
N2A N 0.3607(3) 0.24661(14) 0.37662(15)
N2C N 2.6393(3) -0.24661(14) 0.62338(15)
N3B N 2.5871(3) -0.09167(14) 0.73468(15)
C1B C 2.0899(3) -0.16553(16) 0.45997(16)
H1B H 2.1917 -0.1898 0.4600
C2B C 1.7899(3) -0.08984(17) 0.45809(17)
C3B C 2.0549(3) -0.12725(16) 0.52891(15)
N4B N 2.7871(3) -0.00458(16) 0.76532(17)
C4B C 1.9736(3) -0.16801(16) 0.39032(16)
C5B C 2.0062(3) -0.21571(17) 0.31882(16)
C6B C 1.9043(3) -0.08870(16) 0.52835(17)
H2B H 1.8804 -0.0625 0.5745
C7B C 1.5855(4) -0.0160(2) 0.51539(19)
H3B H 1.5813 -0.0533 0.5597
H4B H 1.6595 0.0273 0.5344
C8B C 1.8242(3) -0.13019(16) 0.39038(16)
H5B H 1.7459 -0.1320 0.3442
C9B C 3.7503(4) 0.20133(19) 0.9781(2)
H6B H 3.7360 0.1831 1.0294
C10B C 3.3004(7) 0.0391(4) 0.8894(5)
H7B H 3.3070 -0.0163 0.9067
H8B H 3.2893 0.0391 0.8306
C11B C 2.1776(3) -0.12973(17) 0.60576(16)
C12B C 3.8865(4) 0.23539(19) 0.95739(19)
H9B H 3.9830 0.2452 0.9925
C13B C 3.4662(5) 0.0792(3) 0.9218(4)
H10B H 3.5538 0.0521 0.8993
H11B H 3.4871 0.0734 0.9803
C14B C 2.7427(4) -0.0809(2) 0.7640(2)
H12B H 2.8143 -0.1223 0.7819
C15B C 2.5281(5) -0.0163(2) 0.7168(2)
H13B H 2.4202 -0.0037 0.6956
C16B C 2.6519(6) 0.0370(2) 0.7350(3)
H14B H 2.6448 0.0921 0.7280
C17B C 3.0000(5) 0.0261(3) 0.8803(3)
H15B H 2.9139 0.0511 0.9058
H16B H 3.0085 -0.0291 0.8979
C18B C 2.9528(5) 0.0282(2) 0.7928(3)
H17B H 2.9564 0.0831 0.7744
H18B H 3.0326 -0.0020 0.7675
C19B C 3.7097(4) 0.23074(18) 0.8502(2)
H19B H 3.6588 0.2362 0.7968
C20B C 3.4693(4) 0.1673(2) 0.9004(3)
H20B H 3.4055 0.1970 0.9351
H21B H 3.4186 0.1748 0.8447
C21B C 3.1653(7) 0.0689(4) 0.9097(4)
H22B H 3.1783 0.0713 0.9685
H23B H 3.1557 0.1235 0.8900
O6 O 0.8952(5) 0.1807(3) 0.1921(3)
O7 O 1.0584(15) 0.3089(7) 0.1416(9)
loop_
_geom_bond_atom_site_label_1
_geom_bond_atom_site_label_2
_geom_bond_site_symmetry_1
_geom_bond_site_symmetry_2
Co1 O4 1_555 1_555
O1 C5 1_555 1_555
O2 C5 1_555 1_555
O3 C2 1_555 1_555
O4 C11 1_555 1_555
O5 C11 1_555 1_555
N1 C9 1_555 1_555
N2 C12 1_555 1_555
N3 Co1 1_555 1_555
C1 H1 1_555 1_555
C2 C6 1_555 1_555
C3 C1 1_555 1_555
N4 C14 1_555 1_555
C4 C1 1_555 1_555
C5 C4 1_555 1_555
C6 C3 1_555 1_555
H2 C6 1_555 1_555
C7 O3 1_555 1_555
H3 C7 1_555 1_555
H4 C7 1_555 1_555
C8 C2 1_555 1_555
H5 C8 1_555 1_555
C9 H6 1_555 1_555
C10 H7 1_555 1_555
H8 C10 1_555 1_555
C11 C3 1_555 1_555
C12 C9 1_555 1_555
H9 C12 1_555 1_555
C13 C10 1_555 1_555
H10 C13 1_555 1_555
H11 C13 1_555 1_555
C14 N3 1_555 1_555
H12 C14 1_555 1_555
C15 N3 1_555 1_555
H13 C15 1_555 1_555
C16 N4 1_555 1_555
H14 C16 1_555 1_555
C17 H15 1_555 1_555
H16 C17 1_555 1_555
C18 N4 1_555 1_555
H17 C18 1_555 1_555
H18 C18 1_555 1_555
C19 N1 1_555 1_555
H19 C19 1_555 1_555
C20 N1 1_555 1_555
H20 C20 1_555 1_555
H21 C20 1_555 1_555
C21 C10 1_555 1_555
H22 C21 1_555 1_555
H23 C21 1_555 1_555
Co1B O1A 1_555 1_555
Co1A N2 1_555 1_555
Co1A_2 O1B 1_555 1_555
Co1C O1 1_555 1_555
Co1C_2 N2B 1_555 1_555
O1B C5B 1_555 1_555
O1C Co1 1_555 1_555
O2B C5B 1_555 1_555
O3B C2B 1_555 1_555
O4B Co1B 1_555 1_555
O5B C11B 1_555 1_555
N1B C9B 1_555 1_555
N2B C12B 1_555 1_555
N2A Co1 1_555 1_555
N2C Co1B 1_555 1_555
N3B Co1B 1_555 1_555
C1B H1B 1_555 1_555
C2B C6B 1_555 1_555
C3B C1B 1_555 1_555
N4B C14B 1_555 1_555
C4B C1B 1_555 1_555
C5B C4B 1_555 1_555
C6B C3B 1_555 1_555
H2B C6B 1_555 1_555
C7B C7 1_555 1_555
H3B C7B 1_555 1_555
H4B C7B 1_555 1_555
C8B C2B 1_555 1_555
H5B C8B 1_555 1_555
C9B H6B 1_555 1_555
C10B H7B 1_555 1_555
H8B C10B 1_555 1_555
C11B O4B 1_555 1_555
C12B C9B 1_555 1_555
H9B C12B 1_555 1_555
C13B C10B 1_555 1_555
H10B C13B 1_555 1_555
H11B C13B 1_555 1_555
C14B N3B 1_555 1_555
H12B C14B 1_555 1_555
C15B N3B 1_555 1_555
H13B C15B 1_555 1_555
C16B N4B 1_555 1_555
H14B C16B 1_555 1_555
C17B H15B 1_555 1_555
H16B C17B 1_555 1_555
C18B N4B 1_555 1_555
H17B C18B 1_555 1_555
H18B C18B 1_555 1_555
C19B N1B 1_555 1_555
H19B C19B 1_555 1_555
C20B N1B 1_555 1_555
H20B C20B 1_555 1_555
H21B C20B 1_555 1_555
C21B C10B 1_555 1_555
H22B C21B 1_555 1_555
H23B C21B 1_555 1_555
N2 C19 1_555 1_555
C4 C8 1_555 1_555
C13 C20 1_555 1_555
C15 C16 1_555 1_555
C17 C18 1_555 1_555
C17 C21 1_555 1_555
O3B C7B 1_555 1_555
N2B C19B 1_555 1_555
C3B C11B 1_555 1_555
C4B C8B 1_555 1_555
C13B C20B 1_555 1_555
C15B C16B 1_555 1_555
C17B C18B 1_555 1_555
C17B C21B 1_555 1_555

#END
