
#######################################################################
#
#                 Cambridge Crystallographic Data Centre
#                                CCDC 
#
#######################################################################
#
# If this CIF has been generated from an entry in the Cambridge 
# Structural Database, then it will include bibliographic, chemical, 
# crystal, experimental, refinement or atomic coordinate data resulting 
# from the CCDC's data processing and validation procedures.
#
#######################################################################

data_ISILUS
_symmetry_cell_setting           monoclinic
_symmetry_space_group_name_H-M   'P 21/n'
_symmetry_Int_Tables_number      14
_space_group_name_Hall           '-P 2yn'
loop_
_symmetry_equiv_pos_site_id
_symmetry_equiv_pos_as_xyz
1 x,y,z
2 1/2-x,1/2+y,1/2-z
3 -x,-y,-z
4 1/2+x,1/2-y,1/2+z
_cell_length_a                   20.0207(11)
_cell_length_b                   8.8751(4)
_cell_length_c                   26.3453(13)
_cell_angle_alpha                90
_cell_angle_beta                 99.876(5)
_cell_angle_gamma                90
_cell_volume                     4611.81
loop_
_atom_site_label
_atom_site_type_symbol
_atom_site_fract_x
_atom_site_fract_y
_atom_site_fract_z
Ni1 Ni 0.37190(4) 0.43662(8) 0.91411(3)
Ni2 Ni 0.90049(4) -0.10861(8) 0.85637(3)
O1 O 0.43410(19) -0.1962(4) 0.76202(15)
O2 O 0.79946(19) -0.1942(4) 0.82614(14)
O3 O 0.58594(19) -0.3447(4) 1.01263(14)
O4 O 0.37529(19) 0.2159(4) 0.87764(14)
O5 O 0.5528(2) 0.3945(4) 0.70797(15)
O6 O 0.5477(2) -0.3200(4) 0.82035(15)
O7 O 0.44479(19) 0.4000(4) 0.86773(14)
O8 O 0.5546(2) 0.1850(4) 0.66524(15)
O9 O 0.6948(2) -0.3899(4) 1.03348(15)
N1 N 0.4254(2) 0.8341(5) 0.99643(19)
O10 O 0.8402(2) -0.1853(5) 0.90821(16)
C1 C 0.7150(3) -0.2819(5) 0.9350(2)
H1 H 0.7522 -0.2768 0.9615
N2 N 0.2676(3) 0.6106(5) 0.7758(2)
C2 C 0.5001(3) 0.1802(6) 0.7392(2)
N3 N 0.3955(2) 0.6482(5) 0.94202(19)
C3 C 0.4448(3) 0.1854(6) 0.81321(19)
C4 C 0.4846(3) 0.0284(6) 0.7323(2)
H2 H 0.4969 -0.0231 0.7046
N4 N 0.2099(4) 0.7147(6) 1.1830(2)
N5 N 0.3052(3) 0.5130(5) 0.85240(17)
N6 N 0.1366(3) 0.8943(5) 1.1534(2)
C5 C 0.4504(3) -0.0480(6) 0.7668(2)
C6 C 0.4304(3) 0.0336(6) 0.8065(2)
H3 H 0.4067 -0.0149 0.8292
C7 C 0.6525(3) -0.3199(6) 0.9461(2)
C8 C 0.5981(3) -0.3274(6) 0.9069(2)
H4 H 0.5556 -0.3500 0.9146
C9 C 0.6683(3) -0.2624(6) 0.8452(2)
H5 H 0.6735 -0.2439 0.8113
C10 C 0.4805(3) 0.2571(6) 0.7795(2)
H6 H 0.4913 0.3587 0.7843
C11 C 0.6436(3) -0.3508(6) 1.0005(2)
C12 C 0.4792(3) -0.2931(6) 0.7398(2)
H7 H 0.4629 -0.3960 0.7398
H8 H 0.4787 -0.2637 0.7043
C13 C 0.6048(3) -0.3021(6) 0.8563(2)
C14 C 0.5387(3) 0.2584(7) 0.7022(2)
C15 C 0.4267(3) 0.6857(7) 0.9880(2)
H9 H 0.4475 0.6166 1.0122
C16 C 0.4204(3) 0.2704(7) 0.8557(2)
C17 C 0.7233(3) -0.2508(6) 0.8843(2)
C18 C 0.5499(3) -0.2870(6) 0.7681(2)
H10 H 0.5689 -0.1875 0.7651
H11 H 0.5778 -0.3602 0.7541
C19 C 0.4521(3) 0.9141(7) 1.0448(3)
H12 H 0.4646 1.0156 1.0364
H13 H 0.4930 0.8635 1.0615
C20 C 0.2138(3) 0.5936(7) 0.7997(3)
H14 H 0.1691 0.6190 0.7865
C21 C 0.3823(4) 0.7738(7) 1.1007(3)
H15 H 0.4224 0.7162 1.1145
H16 H 0.3573 0.7181 1.0719
N7 N 0.5162(3) 0.4278(7) 0.5907(2)
N8 N 0.4186(4) 0.5072(9) 0.5472(3)
C22 C 0.7908(3) -0.2103(6) 0.8722(2)
C23 C 0.4033(4) 0.9230(7) 1.0820(3)
H17 H 0.4239 0.9822 1.1115
H18 H 0.3630 0.9762 1.0655
C24 C 0.2368(3) 0.5324(7) 0.8467(3)
H19 H 0.2101 0.5077 0.8711
C25 C 0.2693(4) 0.6631(8) 0.7232(2)
H20 H 0.3045 0.7386 0.7241
H21 H 0.2262 0.7100 0.7093
C26 C 0.2823(4) 0.5370(8) 0.6890(2)
H22 H 0.2455 0.4650 0.6865
H23 H 0.3237 0.4858 0.7044
C27 C 0.3213(4) 0.6405(7) 1.1628(3)
H24 H 0.3634 0.5913 1.1779
H25 H 0.3000 0.5789 1.1342
C28 C 0.2751(4) 0.6445(8) 1.2030(3)
H26 H 0.2675 0.5425 1.2139
H27 H 0.2972 0.7002 1.2329
C29 C 0.3898(3) 0.8944(7) 0.9526(3)
H28 H 0.3798 0.9959 0.9468
C30 C 0.3382(4) 0.7906(7) 1.1422(3)
H29 H 0.3619 0.8515 1.1702
H30 H 0.2965 0.8423 1.1278
C31 C 0.3211(3) 0.5602(7) 0.8095(2)
H31 H 0.3652 0.5593 0.8026
C32 C 0.1960(4) 0.8625(7) 1.1799(2)
H32 H 0.2261 0.9357 1.1953
C33 C 0.2892(4) 0.5892(10) 0.6348(3)
H33 H 0.2487 0.6446 0.6200
H34 H 0.3275 0.6574 0.6371
C34 C 0.4672(5) 0.5230(9) 0.5882(3)
H35 H 0.4658 0.5969 0.6131
C35 C 0.2991(4) 0.4604(11) 0.5998(3)
H36 H 0.2648 0.3845 0.6021
H37 H 0.3430 0.4151 0.6119
C36 C 0.1523(5) 0.6502(9) 1.1561(4)
H38 H 0.1448 0.5472 1.1520
C37 C 0.2951(4) 0.5040(13) 0.5431(3)
H39 H 0.2918 0.4131 0.5223
H40 H 0.2544 0.5629 0.5321
C38 C 0.4362(5) 0.3902(15) 0.5210(4)
H41 H 0.4119 0.3495 0.4908
C39 C 0.3547(4) 0.5919(13) 0.5340(3)
H42 H 0.3485 0.6209 0.4980
H43 H 0.3577 0.6833 0.5544
C40 C 0.3719(4) 0.7824(7) 0.9197(3)
H44 H 0.3471 0.7931 0.8866
C41 C 0.1085(5) 0.7583(8) 1.1367(4)
H45 H 0.0666 0.7437 1.1158
C42 C 0.4978(5) 0.3409(11) 0.5476(4)
H46 H 0.5229 0.2612 0.5378
Ni1B Ni 0.62810(4) -0.43662(8) 1.08589(3)
Ni2A Ni 0.59951(4) 0.39139(8) 0.64363(3)
Ni2B Ni 0.09951(4) 1.10861(8) 1.14363(3)
O3B O 0.41406(19) 0.3447(4) 0.98737(14)
O5A O 0.9472(2) -0.1055(4) 0.79203(15)
O8A O 0.9454(2) -0.3150(4) 0.83476(15)
O9B O 0.3052(2) 0.3899(4) 0.96652(15)
N6B N 0.8634(3) 0.1057(5) 0.8466(2)
N7A N 0.9838(3) -0.0722(7) 0.9093(2)
O11 O 0.5341(5) 1.0539(9) 1.4017(4)
O12 O 0.1710(5) 1.5088(15) 0.9642(4)
O13 O 0.1008(10) 1.4757(18) 1.0330(7)
loop_
_geom_bond_atom_site_label_1
_geom_bond_atom_site_label_2
_geom_bond_site_symmetry_1
_geom_bond_site_symmetry_2
Ni1 O4 1_555 1_555
Ni2 O2 1_555 1_555
O1 C5 1_555 1_555
O2 C22 1_555 1_555
O3 C11 1_555 1_555
O4 C16 1_555 1_555
O5 C14 1_555 1_555
O6 C13 1_555 1_555
O7 Ni1 1_555 1_555
O8 C14 1_555 1_555
O9 C11 1_555 1_555
N1 C15 1_555 1_555
O10 Ni2 1_555 1_555
C1 H1 1_555 1_555
N2 C20 1_555 1_555
C2 C4 1_555 1_555
N3 Ni1 1_555 1_555
C3 C6 1_555 1_555
C4 H2 1_555 1_555
N4 C28 1_555 1_555
N5 Ni1 1_555 1_555
N6 C32 1_555 1_555
C5 C4 1_555 1_555
C6 C5 1_555 1_555
H3 C6 1_555 1_555
C7 C1 1_555 1_555
C8 C7 1_555 1_555
H4 C8 1_555 1_555
C9 H5 1_555 1_555
C10 C2 1_555 1_555
H6 C10 1_555 1_555
C11 C7 1_555 1_555
C12 O1 1_555 1_555
H7 C12 1_555 1_555
H8 C12 1_555 1_555
C13 C8 1_555 1_555
C14 C2 1_555 1_555
C15 N3 1_555 1_555
H9 C15 1_555 1_555
C16 O7 1_555 1_555
C17 C1 1_555 1_555
C18 O6 1_555 1_555
H10 C18 1_555 1_555
H11 C18 1_555 1_555
C19 N1 1_555 1_555
H12 C19 1_555 1_555
H13 C19 1_555 1_555
C20 H14 1_555 1_555
C21 H15 1_555 1_555
H16 C21 1_555 1_555
N7 C34 1_555 1_555
N8 C34 1_555 1_555
C22 O10 1_555 1_555
C23 C19 1_555 1_555
H17 C23 1_555 1_555
H18 C23 1_555 1_555
C24 N5 1_555 1_555
H19 C24 1_555 1_555
C25 N2 1_555 1_555
H20 C25 1_555 1_555
H21 C25 1_555 1_555
C26 C25 1_555 1_555
H22 C26 1_555 1_555
H23 C26 1_555 1_555
C27 H24 1_555 1_555
H25 C27 1_555 1_555
C28 C27 1_555 1_555
H26 C28 1_555 1_555
H27 C28 1_555 1_555
C29 N1 1_555 1_555
H28 C29 1_555 1_555
C30 C21 1_555 1_555
H29 C30 1_555 1_555
H30 C30 1_555 1_555
C31 N2 1_555 1_555
H31 C31 1_555 1_555
C32 N4 1_555 1_555
H32 C32 1_555 1_555
C33 C26 1_555 1_555
H33 C33 1_555 1_555
H34 C33 1_555 1_555
C34 H35 1_555 1_555
C35 C33 1_555 1_555
H36 C35 1_555 1_555
H37 C35 1_555 1_555
C36 N4 1_555 1_555
H38 C36 1_555 1_555
C37 C35 1_555 1_555
H39 C37 1_555 1_555
H40 C37 1_555 1_555
C38 N8 1_555 1_555
H41 C38 1_555 1_555
C39 N8 1_555 1_555
H42 C39 1_555 1_555
H43 C39 1_555 1_555
C40 N3 1_555 1_555
H44 C40 1_555 1_555
C41 N6 1_555 1_555
H45 C41 1_555 1_555
C42 N7 1_555 1_555
H46 C42 1_555 1_555
Ni1B O3 1_555 1_555
Ni2A O5 1_555 1_555
Ni2B N6 1_555 1_555
O3B Ni1 1_555 1_555
O5A Ni2 1_555 1_555
O8A Ni2 1_555 1_555
O9B Ni1 1_555 1_555
N6B Ni2 1_555 1_555
N7A Ni2 1_555 1_555
O8 Ni2A 1_555 1_555
O9 Ni1B 1_555 1_555
C3 C10 1_555 1_555
C3 C16 1_555 1_555
N5 C31 1_555 1_555
C9 C13 1_555 1_555
C9 C17 1_555 1_555
C12 C18 1_555 1_555
C17 C22 1_555 1_555
C20 C24 1_555 1_555
C21 C23 1_555 1_555
N7 Ni2A 1_555 1_555
C27 C30 1_555 1_555
C29 C40 1_555 1_555
C36 C41 1_555 1_555
C37 C39 1_555 1_555
C38 C42 1_555 1_555

#END
