
#######################################################################
#
#                 Cambridge Crystallographic Data Centre
#                                CCDC 
#
#######################################################################
#
# If this CIF has been generated from an entry in the Cambridge 
# Structural Database, then it will include bibliographic, chemical, 
# crystal, experimental, refinement or atomic coordinate data resulting 
# from the CCDC's data processing and validation procedures.
#
#######################################################################

data_ISIMON
_symmetry_cell_setting           triclinic
_symmetry_space_group_name_H-M   'P -1'
_symmetry_Int_Tables_number      2
_space_group_name_Hall           '-P 1'
loop_
_symmetry_equiv_pos_site_id
_symmetry_equiv_pos_as_xyz
1 x,y,z
2 -x,-y,-z
_cell_length_a                   9.5569(7)
_cell_length_b                   11.9561(8)
_cell_length_c                   15.0797(10)
_cell_angle_alpha                98.392(5)
_cell_angle_beta                 106.830(6)
_cell_angle_gamma                109.551(6)
_cell_volume                     1496.78
loop_
_atom_site_label
_atom_site_type_symbol
_atom_site_fract_x
_atom_site_fract_y
_atom_site_fract_z
Zn1 Zn 0.45399(4) 0.50690(3) 0.36579(2)
Zn2 Zn 0.48611(4) -0.06177(4) -0.13799(2)
C1 C -0.3262(4) 0.1877(3) -0.6693(2)
O1 O -0.0634(3) 0.3782(2) -0.32715(15)
O2 O 0.4608(3) 0.4173(2) 0.24928(15)
O3 O 0.4506(3) 0.0922(2) -0.12247(15)
C2 C -0.0335(3) 0.3134(3) -0.5965(2)
H1 H -0.0283 0.2960 -0.6573
O4 O -0.4506(3) 0.1357(2) -0.65782(17)
O5 O -0.3113(2) 0.1784(2) -0.75163(16)
C3 C 0.1035(3) 0.3871(3) -0.51755(19)
C4 C -0.1768(3) 0.2664(3) -0.5844(2)
O6 O 0.2026(3) 0.3955(2) -0.16906(15)
N1 N 0.7107(3) 0.9748(3) 0.87848(18)
C5 C 0.4290(4) 0.2538(3) -0.0231(2)
O7 O 0.5744(2) 0.1348(2) 0.03523(15)
N2 N 0.9199(3) 0.9642(3) 0.8514(2)
N3 N 0.6290(3) 0.8838(3) 0.4733(2)
O8 O 0.8862(3) 0.9495(2) 0.65800(19)
O9 O 0.2966(4) 0.5026(3) 0.18804(18)
N4 N 0.5303(3) 0.6892(2) 0.39739(19)
C6 C 0.0403(5) 0.4891(4) -0.2525(3)
H2 H -0.0167 0.5415 -0.2459
H3 H 0.1298 0.5333 -0.2695
C7 C -0.0462(4) 0.3624(3) -0.4146(2)
C8 C -0.1832(4) 0.2919(3) -0.4931(2)
H4 H -0.2805 0.2612 -0.4850
C9 C 0.0981(4) 0.4097(3) -0.4266(2)
H5 H 0.1910 0.4565 -0.3737
C10 C 0.4432(4) 0.3083(3) 0.0685(2)
H6 H 0.5029 0.2913 0.1215
C11 C 0.3495(4) 0.2863(3) -0.1003(2)
H7 H 0.3436 0.2526 -0.1616
C12 C 0.3700(4) 0.3867(3) 0.0817(2)
C13 C 0.6964(5) 0.9967(3) 0.5509(3)
H8 H 0.6394 0.9843 0.5948
H9 H 0.6806 1.0624 0.5240
C14 C 0.3756(4) 0.4402(3) 0.1794(2)
C15 C 0.5896(4) 0.7693(3) 0.4811(2)
H10 H 0.6026 0.7486 0.5392
C16 C 0.2863(4) 0.4166(3) 0.0030(2)
H11 H 0.2359 0.4694 0.0119
C17 C 0.8700(5) 1.0359(4) 0.6061(3)
H12 H 0.9275 1.0384 0.5625
H13 H 0.9129 1.1174 0.6498
C18 C 0.5885(6) 0.8764(4) 0.3781(3)
H14 H 0.6006 0.9420 0.3504
C19 C 0.8422(4) 1.0807(3) 0.9334(3)
H15 H 0.8417 1.1457 0.9753
C20 C 0.7644(4) 0.9082(3) 0.8303(2)
H16 H 0.7007 0.8312 0.7868
C21 C 0.2781(4) 0.3682(3) -0.0882(2)
C22 C 0.9703(4) 1.0760(4) 0.9175(3)
H17 H 1.0736 1.1362 0.9454
C23 C 0.4905(4) 0.1553(3) -0.0372(2)
C24 C 0.1001(5) 0.4609(4) -0.1592(3)
H18 H 0.1602 0.5365 -0.1076
H19 H 0.0115 0.4098 -0.1445
C25 C 1.0381(5) 0.9825(4) 0.7283(3)
H20 H 1.0898 1.0712 0.7550
H21 H 1.1045 0.9557 0.6999
C26 C 1.0151(5) 0.9212(4) 0.8048(3)
H22 H 0.9617 0.8327 0.7770
H23 H 1.1182 0.9386 0.8526
C27 C 0.5284(6) 0.7577(4) 0.3319(3)
H24 H 0.4909 0.7260 0.2655
C28 C 0.2566(3) 0.4453(3) -0.5324(2)
O10 O 0.3773(2) 0.52237(19) -0.46315(14)
O11 O 0.2566(2) 0.4161(2) -0.61633(15)
Zn1A Zn 0.54601(4) 0.49310(3) -0.36579(2)
Zn1_2 Zn 0.45399(4) 0.50690(3) -0.63421(2)
Zn2A Zn -0.48611(4) 0.06177(4) -0.86201(2)
Zn2_2 Zn 0.48611(4) 0.93823(4) 0.86201(2)
Zn2A_2 Zn 0.51389(4) 0.06177(4) 0.13799(2)
O5A O 0.3113(2) -0.1784(2) -0.24837(16)
N1_2 N 0.7107(3) -0.0252(3) -0.12152(18)
O7A O 0.4256(2) -0.1348(2) -0.03523(15)
O10A O 0.6227(2) 0.47763(19) 0.46315(14)
O11_2 O 0.2566(2) 0.4161(2) 0.38367(15)
loop_
_geom_bond_atom_site_label_1
_geom_bond_atom_site_label_2
_geom_bond_site_symmetry_1
_geom_bond_site_symmetry_2
Zn1 O2 1_555 1_555
Zn2 O3 1_555 1_555
C1 O4 1_555 1_555
O1 C6 1_555 1_555
O2 C14 1_555 1_555
O3 C23 1_555 1_555
C2 H1 1_555 1_555
O5 C1 1_555 1_555
C3 C2 1_555 1_555
C4 C1 1_555 1_555
O6 C21 1_555 1_555
N1 C19 1_555 1_555
C5 C10 1_555 1_555
O7 C23 1_555 1_555
N2 C20 1_555 1_555
N3 C13 1_555 1_555
O8 C17 1_555 1_555
O9 C14 1_555 1_555
N4 Zn1 1_555 1_555
C6 H2 1_555 1_555
H3 C6 1_555 1_555
C7 O1 1_555 1_555
C8 C4 1_555 1_555
H4 C8 1_555 1_555
C9 C3 1_555 1_555
H5 C9 1_555 1_555
C10 H6 1_555 1_555
C11 C5 1_555 1_555
H7 C11 1_555 1_555
C12 C10 1_555 1_555
C13 H8 1_555 1_555
H9 C13 1_555 1_555
C14 C12 1_555 1_555
C15 N3 1_555 1_555
H10 C15 1_555 1_555
C16 C12 1_555 1_555
H11 C16 1_555 1_555
C17 C13 1_555 1_555
H12 C17 1_555 1_555
H13 C17 1_555 1_555
C18 N3 1_555 1_555
H14 C18 1_555 1_555
C19 H15 1_555 1_555
C20 N1 1_555 1_555
H16 C20 1_555 1_555
C21 C11 1_555 1_555
C22 N2 1_555 1_555
H17 C22 1_555 1_555
C23 C5 1_555 1_555
C24 O6 1_555 1_555
H18 C24 1_555 1_555
H19 C24 1_555 1_555
C25 O8 1_555 1_555
H20 C25 1_555 1_555
H21 C25 1_555 1_555
C26 N2 1_555 1_555
H22 C26 1_555 1_555
H23 C26 1_555 1_555
C27 N4 1_555 1_555
H24 C27 1_555 1_555
C28 C3 1_555 1_555
O10 C28 1_555 1_555
O11 C28 1_555 1_555
Zn1A O10 1_555 1_555
Zn1_2 O11 1_555 1_555
Zn2A O5 1_555 1_555
Zn2_2 N1 1_555 1_555
Zn2A_2 O7 1_555 1_555
O5A Zn2 1_555 1_555
N1_2 Zn2 1_555 1_555
O7A Zn2 1_555 1_555
O10A Zn1 1_555 1_555
O11_2 Zn1 1_555 1_555
C2 C4 1_555 1_555
N4 C15 1_555 1_555
C6 C24 1_555 1_555
C7 C8 1_555 1_555
C7 C9 1_555 1_555
C16 C21 1_555 1_555
C18 C27 1_555 1_555
C19 C22 1_555 1_555
C25 C26 1_555 1_555

#END
