
#######################################################################
#
#                 Cambridge Crystallographic Data Centre
#                                CCDC 
#
#######################################################################
#
# If this CIF has been generated from an entry in the Cambridge 
# Structural Database, then it will include bibliographic, chemical, 
# crystal, experimental, refinement or atomic coordinate data resulting 
# from the CCDC's data processing and validation procedures.
#
#######################################################################

data_ISIMIH
_symmetry_cell_setting           monoclinic
_symmetry_space_group_name_H-M   'P 21/n'
_symmetry_Int_Tables_number      14
_space_group_name_Hall           '-P 2yn'
loop_
_symmetry_equiv_pos_site_id
_symmetry_equiv_pos_as_xyz
1 x,y,z
2 1/2-x,1/2+y,1/2-z
3 -x,-y,-z
4 1/2+x,1/2-y,1/2+z
_cell_length_a                   8.1597(7)
_cell_length_b                   16.7021(16)
_cell_length_c                   16.8108(17)
_cell_angle_alpha                90
_cell_angle_beta                 97.263(8)
_cell_angle_gamma                90
_cell_volume                     2272.66
loop_
_atom_site_label
_atom_site_type_symbol
_atom_site_fract_x
_atom_site_fract_y
_atom_site_fract_z
Zn1 Zn 0.51811(5) 0.19389(3) 0.30876(3)
C1 C 0.2605(6) 0.0806(3) 0.2372(3)
H1 H 0.1891 0.1221 0.2195
O1 O 1.0991(4) 0.23326(18) 0.73077(17)
O2 O 0.8361(4) 0.2362(2) 0.6817(2)
O3 O 1.3577(4) 0.0536(2) 0.55034(19)
O4 O 0.8608(4) 0.0978(2) 0.33153(19)
O5 O 0.6957(3) 0.17133(18) 0.39501(17)
C2 C 1.2051(5) 0.0902(2) 0.5406(2)
C3 C 1.1677(5) 0.1303(2) 0.6077(2)
H2 H 1.2433 0.1315 0.6540
C4 C 0.9041(5) 0.1665(2) 0.5365(2)
H3 H 0.8016 0.1910 0.5360
N1 N 0.2154(5) 0.0046(2) 0.2362(3)
C5 C 1.0180(5) 0.1685(2) 0.6058(2)
N2 N 0.4156(4) 0.0917(2) 0.2658(2)
N3 N -0.8602(4) -0.2531(2) 0.1247(2)
C6 C 0.9437(5) 0.1281(2) 0.4684(2)
C7 C 1.0953(5) 0.0889(2) 0.4709(2)
H4 H 1.1223 0.0621 0.4259
N4 N -0.6375(5) -0.1971(2) 0.0915(3)
C8 C -0.4647(7) -0.0779(4) 0.0780(5)
H5 H -0.5544 -0.0504 0.0993
H6 H -0.4835 -0.0736 0.0201
C9 C 1.4155(5) 0.0159(3) 0.4844(3)
H7 H 1.4224 0.0539 0.4413
H8 H 1.3423 -0.0274 0.4645
C10 C 0.9778(5) 0.2154(3) 0.6775(2)
C11 C -0.4680(6) -0.1659(4) 0.1014(4)
H9 H -0.4019 -0.1965 0.0682
H10 H -0.4199 -0.1721 0.1568
C12 C -0.7476(7) -0.2008(3) 0.0245(3)
H11 H -0.7315 -0.1826 -0.0262
C13 C -0.1644(11) -0.0684(5) 0.0942(7)
H12 H -0.1726 -0.0763 0.0367
H13 H -0.1592 -0.1211 0.1185
C14 C -0.7092(6) -0.2291(3) 0.1505(3)
H14 H -0.6594 -0.2340 0.2031
C15 C 0.8261(5) 0.1317(3) 0.3922(2)
C16 C 0.4750(7) 0.0161(3) 0.2847(3)
H15 H 0.5824 0.0037 0.3067
C17 C -0.8838(6) -0.2355(3) 0.0446(3)
H16 H -0.9792 -0.2461 0.0098
C18 C 0.0062(8) -0.0258(5) 0.1213(5)
H17 H 0.0922 -0.0518 0.0959
H18 H -0.0001 0.0296 0.1039
C19 C 0.0500(7) -0.0288(4) 0.2096(4)
H19 H -0.0316 0.0011 0.2347
H20 H 0.0465 -0.0839 0.2274
C20 C 0.3519(8) -0.0371(3) 0.2662(4)
H21 H 0.3592 -0.0923 0.2728
C21 C -0.3002(10) -0.0358(5) 0.1089(8)
H22 H -0.3043 0.0178 0.0865
H23 H -0.2952 -0.0302 0.1666
Zn1B Zn 2.48189(5) -0.19389(3) 0.69124(3)
Zn1A Zn -1.01811(5) -0.30611(3) 0.19124(3)
Zn1A_2 Zn 1.98189(5) -0.30611(3) 0.19124(3)
Zn1C Zn 1.01811(5) 0.30611(3) 0.80876(3)
Zn1C_2 Zn 4.01811(5) 0.30611(3) 0.80876(3)
C1B C 2.7395(6) -0.0806(3) 0.7628(3)
H1B H 2.8109 -0.1221 0.7805
O1B O 1.9009(4) -0.23326(18) 0.26923(17)
O1A O 2.4009(4) -0.26674(18) 0.76923(17)
O1C O 0.5991(4) 0.26674(18) 0.23077(17)
O2B O 2.1639(4) -0.2362(2) 0.3183(2)
O3B O 1.6423(4) -0.0536(2) 0.44966(19)
O4B O 2.1392(4) -0.0978(2) 0.66847(19)
O5B O 2.3043(3) -0.17133(18) 0.60499(17)
C2B C 1.7949(5) -0.0902(2) 0.4594(2)
C3B C 1.8323(5) -0.1303(2) 0.3923(2)
H2B H 1.7567 -0.1315 0.3460
C4B C 2.0959(5) -0.1665(2) 0.4635(2)
H3B H 2.1984 -0.1910 0.4640
N1B N 2.7846(5) -0.0046(2) 0.7638(3)
C5B C 1.9820(5) -0.1685(2) 0.3942(2)
N2B N 2.5844(4) -0.0917(2) 0.7342(2)
N3B N 3.8602(4) 0.2531(2) 0.8753(2)
N3A N 0.3602(4) 0.2469(2) 0.3753(2)
N3C N 2.6398(4) -0.2469(2) 0.6247(2)
C6B C 2.0563(5) -0.1281(2) 0.5316(2)
C7B C 1.9047(5) -0.0889(2) 0.5291(2)
H4B H 1.8777 -0.0621 0.5741
N4B N 3.6375(5) 0.1971(2) 0.9085(3)
C8B C 3.4647(7) 0.0779(4) 0.9220(5)
H5B H 3.5544 0.0504 0.9007
H6B H 3.4835 0.0736 0.9799
C9B C 1.5845(5) -0.0159(3) 0.5156(3)
H7B H 1.5776 -0.0539 0.5587
H8B H 1.6577 0.0274 0.5355
C10B C 2.0222(5) -0.2154(3) 0.3225(2)
C11B C 3.4680(6) 0.1659(4) 0.8986(4)
H9B H 3.4019 0.1965 0.9318
H10B H 3.4199 0.1721 0.8432
C12B C 3.7476(7) 0.2008(3) 0.9755(3)
H11B H 3.7315 0.1826 1.0262
C13B C 3.1644(11) 0.0684(5) 0.9058(7)
H12B H 3.1726 0.0763 0.9633
H13B H 3.1592 0.1211 0.8815
C14B C 3.7092(6) 0.2291(3) 0.8495(3)
H14B H 3.6594 0.2340 0.7969
C15B C 2.1739(5) -0.1317(3) 0.6078(2)
C16B C 2.5250(7) -0.0161(3) 0.7153(3)
H15B H 2.4176 -0.0037 0.6933
C17B C 3.8838(6) 0.2355(3) 0.9554(3)
H16B H 3.9792 0.2461 0.9902
C18B C 2.9938(8) 0.0258(5) 0.8787(5)
H17B H 2.9078 0.0518 0.9041
H18B H 3.0001 -0.0296 0.8961
C19B C 2.9500(7) 0.0288(4) 0.7904(4)
H19B H 3.0316 -0.0011 0.7653
H20B H 2.9535 0.0839 0.7726
C20B C 2.6481(8) 0.0371(3) 0.7338(4)
H21B H 2.6408 0.0923 0.7272
C21B C 3.3002(10) 0.0358(5) 0.8911(8)
H22B H 3.3043 -0.0178 0.9135
H23B H 3.2952 0.0302 0.8334
O6 O 0.8856(9) 0.1802(5) 0.1919(4)
O7 O 0.472(3) -0.2018(12) 0.3521(14)
loop_
_geom_bond_atom_site_label_1
_geom_bond_atom_site_label_2
_geom_bond_site_symmetry_1
_geom_bond_site_symmetry_2
Zn1 O5 1_555 1_555
C1 H1 1_555 1_555
O1 C10 1_555 1_555
O2 C10 1_555 1_555
O3 C2 1_555 1_555
O4 C15 1_555 1_555
O5 C15 1_555 1_555
C2 C3 1_555 1_555
C3 H2 1_555 1_555
C4 H3 1_555 1_555
N1 C1 1_555 1_555
C5 C3 1_555 1_555
N2 Zn1 1_555 1_555
N3 C14 1_555 1_555
C6 C4 1_555 1_555
C7 C2 1_555 1_555
H4 C7 1_555 1_555
N4 C11 1_555 1_555
C8 H5 1_555 1_555
H6 C8 1_555 1_555
C9 O3 1_555 1_555
H7 C9 1_555 1_555
H8 C9 1_555 1_555
C10 C5 1_555 1_555
C11 C8 1_555 1_555
H9 C11 1_555 1_555
H10 C11 1_555 1_555
C12 N4 1_555 1_555
H11 C12 1_555 1_555
C13 H12 1_555 1_555
H13 C13 1_555 1_555
C14 N4 1_555 1_555
H14 C14 1_555 1_555
C15 C6 1_555 1_555
C16 N2 1_555 1_555
H15 C16 1_555 1_555
C17 N3 1_555 1_555
H16 C17 1_555 1_555
C18 C13 1_555 1_555
H17 C18 1_555 1_555
H18 C18 1_555 1_555
C19 N1 1_555 1_555
H19 C19 1_555 1_555
H20 C19 1_555 1_555
C20 N1 1_555 1_555
H21 C20 1_555 1_555
C21 C8 1_555 1_555
H22 C21 1_555 1_555
H23 C21 1_555 1_555
Zn1B O1A 1_555 1_555
Zn1A N3 1_555 1_555
Zn1A_2 O1B 1_555 1_555
Zn1C O1 1_555 1_555
Zn1C_2 N3B 1_555 1_555
C1B H1B 1_555 1_555
O1B C10B 1_555 1_555
O1C Zn1 1_555 1_555
O2B C10B 1_555 1_555
O3B C2B 1_555 1_555
O4B C15B 1_555 1_555
O5B Zn1B 1_555 1_555
C2B C3B 1_555 1_555
C3B H2B 1_555 1_555
C4B H3B 1_555 1_555
N1B C1B 1_555 1_555
C5B C3B 1_555 1_555
N2B Zn1B 1_555 1_555
N3B C14B 1_555 1_555
N3A Zn1 1_555 1_555
N3C Zn1B 1_555 1_555
C6B C4B 1_555 1_555
C7B C2B 1_555 1_555
H4B C7B 1_555 1_555
N4B C11B 1_555 1_555
C8B H5B 1_555 1_555
H6B C8B 1_555 1_555
C9B C9 1_555 1_555
H7B C9B 1_555 1_555
H8B C9B 1_555 1_555
C10B C5B 1_555 1_555
C11B C8B 1_555 1_555
H9B C11B 1_555 1_555
H10B C11B 1_555 1_555
C12B N4B 1_555 1_555
H11B C12B 1_555 1_555
C13B H12B 1_555 1_555
H13B C13B 1_555 1_555
C14B N4B 1_555 1_555
H14B C14B 1_555 1_555
C15B O5B 1_555 1_555
C16B N2B 1_555 1_555
H15B C16B 1_555 1_555
C17B N3B 1_555 1_555
H16B C17B 1_555 1_555
C18B C13B 1_555 1_555
H17B C18B 1_555 1_555
H18B C18B 1_555 1_555
C19B N1B 1_555 1_555
H19B C19B 1_555 1_555
H20B C19B 1_555 1_555
C20B N1B 1_555 1_555
H21B C20B 1_555 1_555
C21B C8B 1_555 1_555
H22B C21B 1_555 1_555
H23B C21B 1_555 1_555
C1 N2 1_555 1_555
C4 C5 1_555 1_555
C6 C7 1_555 1_555
C12 C17 1_555 1_555
C13 C21 1_555 1_555
C16 C20 1_555 1_555
C18 C19 1_555 1_555
C1B N2B 1_555 1_555
O3B C9B 1_555 1_555
C4B C5B 1_555 1_555
C6B C7B 1_555 1_555
C6B C15B 1_555 1_555
C12B C17B 1_555 1_555
C13B C21B 1_555 1_555
C16B C20B 1_555 1_555
C18B C19B 1_555 1_555

#END
