
#######################################################################
#
#                 Cambridge Crystallographic Data Centre
#                                CCDC 
#
#######################################################################
#
# If this CIF has been generated from an entry in the Cambridge 
# Structural Database, then it will include bibliographic, chemical, 
# crystal, experimental, refinement or atomic coordinate data resulting 
# from the CCDC's data processing and validation procedures.
#
#######################################################################

data_ISIQEH
_symmetry_cell_setting           triclinic
_symmetry_space_group_name_H-M   'P -1'
_symmetry_Int_Tables_number      2
_space_group_name_Hall           '-P 1'
loop_
_symmetry_equiv_pos_site_id
_symmetry_equiv_pos_as_xyz
1 x,y,z
2 -x,-y,-z
_cell_length_a                   9.4812(2)
_cell_length_b                   13.2313(3)
_cell_length_c                   15.3485(4)
_cell_angle_alpha                81.786(2)
_cell_angle_beta                 87.0260(10)
_cell_angle_gamma                69.1750(10)
_cell_volume                     1781.2
loop_
_atom_site_label
_atom_site_type_symbol
_atom_site_fract_x
_atom_site_fract_y
_atom_site_fract_z
C1 C 0.3107(4) 0.3552(3) 0.1535(2)
C2 C 0.3360(4) 0.3068(3) 0.2472(3)
C3 C 0.2202(5) 0.3378(4) 0.3083(3)
H1 H 0.1274 0.3895 0.2898
C4 C 0.2404(5) 0.2935(4) 0.3958(3)
H2 H 0.1612 0.3149 0.4354
C5 C 0.3780(5) 0.2174(4) 0.4246(3)
C6 C 0.4939(5) 0.1865(4) 0.3637(3)
H3 H 0.5870 0.1355 0.3824
C7 C 0.4737(5) 0.2298(4) 0.2765(3)
H4 H 0.5526 0.2073 0.2368
C8 C 0.3103(7) 0.1720(5) 0.5794(3)
C9 C 0.3791(8) 0.1144(6) 0.6681(4)
H5 H 0.3651 0.1673 0.7076
H6 H 0.4850 0.0757 0.6609
H7 H 0.3308 0.0638 0.6918
C10 C 0.4210(4) 0.5999(3) 0.1156(2)
C11 C 0.3449(4) 0.6497(3) 0.1945(2)
C12 C 0.4010(5) 0.7137(4) 0.2348(3)
H8 H 0.4884 0.7246 0.2127
C13 C 0.3316(5) 0.7622(5) 0.3069(3)
H9 H 0.3710 0.8059 0.3326
C14 C 0.2013(5) 0.7448(4) 0.3408(3)
C15 C 0.1427(5) 0.6827(4) 0.3004(3)
H10 H 0.0546 0.6726 0.3222
C16 C 0.2128(4) 0.6348(4) 0.2273(3)
H11 H 0.1718 0.5929 0.2004
C17 C 0.1669(6) 0.8400(5) 0.4736(3)
C18 C 0.0673(8) 0.8594(6) 0.5548(4)
H12 H 0.0976 0.7946 0.5969
H13 H -0.0360 0.8774 0.5385
H14 H 0.0775 0.9186 0.5803
C19 C -0.0848(4) 0.6876(3) 0.0305(2)
C20 C -0.0576(4) 0.7831(3) 0.0577(2)
C21 C 0.0813(4) 0.7952(3) 0.0402(3)
H15 H 0.1531 0.7470 0.0078
C22 C 0.1142(4) 0.8772(3) 0.0700(3)
H16 H 0.2072 0.8846 0.0569
C23 C 0.0100(4) 0.9492(3) 0.1195(3)
C24 C -0.1315(5) 0.9403(3) 0.1348(3)
H17 H -0.2045 0.9900 0.1656
C25 C -0.1630(4) 0.8578(3) 0.1043(3)
H18 H -0.2575 0.8521 0.1153
C26 C -0.0266(5) 1.1218(4) 0.1796(3)
C27 C 0.0638(6) 1.1864(4) 0.2044(4)
H19 H 0.0032 1.2626 0.1967
H20 H 0.1516 1.1745 0.1675
H21 H 0.0944 1.1635 0.2648
Er1 Er 0.249964(16) 0.479308(13) -0.015922(10)
N1 N 0.4088(5) 0.1704(4) 0.5127(3)
H26 H 0.5024 0.1363 0.5256
N2 N 0.1250(5) 0.7887(4) 0.4162(3)
H27 H 0.0389 0.7814 0.4267
N3 N 0.0575(4) 1.0265(3) 0.1512(2)
H28 H 0.1536 1.0108 0.1526
O1 O 0.1804(3) 0.4200(2) 0.12900(17)
O2 O 0.4174(3) 0.3340(2) 0.09860(17)
O3 O 0.1749(5) 0.2185(5) 0.5699(3)
O4 O 0.3567(3) 0.5554(2) 0.07248(18)
O5 O 0.5480(3) 0.6064(2) 0.09551(18)
O6 O 0.2758(4) 0.8687(4) 0.4634(3)
O7 O 0.0266(3) 0.6107(2) 0.00596(18)
O8 O -0.2171(3) 0.6862(2) 0.03267(18)
O9 O -0.1644(4) 1.1555(3) 0.1836(3)
O10 O 0.1234(3) 0.5152(2) -0.15065(17)
H29 H 0.1514 0.5152 -0.2039
H30 H 0.0276 0.5374 -0.1485
O11 O 0.3113(3) 0.6261(2) -0.10798(19)
H31 H 0.2533 0.6857 -0.1351
H32 H 0.3961 0.6328 -0.1027
C1A C -0.3107(4) 0.6448(3) -0.1535(2)
C2A C -0.3360(4) 0.6932(3) -0.2472(3)
C3A C -0.2202(5) 0.6622(4) -0.3083(3)
H1A H -0.1274 0.6105 -0.2898
C4A C -0.2404(5) 0.7065(4) -0.3958(3)
H2A H -0.1612 0.6851 -0.4354
C5A C -0.3780(5) 0.7826(4) -0.4246(3)
C6A C -0.4939(5) 0.8135(4) -0.3637(3)
H3A H -0.5870 0.8645 -0.3824
C7A C -0.4737(5) 0.7702(4) -0.2765(3)
H4A H -0.5526 0.7927 -0.2368
C8A C -0.3103(7) 0.8280(5) -0.5794(3)
C9A C -0.3791(8) 0.8856(6) -0.6681(4)
H5A H -0.3651 0.8327 -0.7076
H6A H -0.4850 0.9243 -0.6609
H7A H -0.3308 0.9362 -0.6918
C10A C -0.4210(4) 0.4001(3) -0.1156(2)
C11A C -0.3449(4) 0.3503(3) -0.1945(2)
C12A C -0.4010(5) 0.2863(4) -0.2348(3)
H8A H -0.4884 0.2754 -0.2127
C13A C -0.3316(5) 0.2378(5) -0.3069(3)
H9A H -0.3710 0.1941 -0.3326
C14A C -0.2013(5) 0.2552(4) -0.3408(3)
C15A C -0.1427(5) 0.3173(4) -0.3004(3)
H10A H -0.0546 0.3274 -0.3222
C16A C -0.2128(4) 0.3652(4) -0.2273(3)
H11A H -0.1718 0.4071 -0.2004
C17A C -0.1669(6) 0.1600(5) -0.4736(3)
C18A C -0.0673(8) 0.1406(6) -0.5548(4)
H12A H -0.0976 0.2054 -0.5969
H13A H 0.0360 0.1226 -0.5385
H14A H -0.0775 0.0814 -0.5803
C19A C 0.0848(4) 0.3124(3) -0.0305(2)
C20A C 0.0576(4) 0.2169(3) -0.0577(2)
C21A C -0.0813(4) 0.2048(3) -0.0402(3)
H15A H -0.1531 0.2530 -0.0078
C22A C -0.1142(4) 0.1228(3) -0.0700(3)
H16A H -0.2072 0.1154 -0.0569
C23A C -0.0100(4) 0.0508(3) -0.1195(3)
C24A C 0.1315(5) 0.0597(3) -0.1348(3)
H17A H 0.2045 0.0100 -0.1656
C25A C 0.1630(4) 0.1422(3) -0.1043(3)
H18A H 0.2575 0.1479 -0.1153
C26A C 0.0266(5) -0.1218(4) -0.1796(3)
C27A C -0.0638(6) -0.1864(4) -0.2044(4)
H19A H -0.0032 -0.2626 -0.1967
H20A H -0.1516 -0.1745 -0.1675
H21A H -0.0944 -0.1635 -0.2648
Er1A Er -0.249964(16) 0.520692(13) 0.015922(10)
Er1_2 Er -0.750036(16) 0.479308(13) -0.015922(10)
Er1A_2 Er 0.750036(16) 0.520692(13) 0.015922(10)
N1A N -0.4088(5) 0.8296(4) -0.5127(3)
H26A H -0.5024 0.8637 -0.5256
N2A N -0.1250(5) 0.2113(4) -0.4162(3)
H27A H -0.0389 0.2186 -0.4267
N3A N -0.0575(4) -0.0265(3) -0.1512(2)
H28A H -0.1536 -0.0108 -0.1526
O1A O -0.1804(3) 0.5800(2) -0.12900(17)
O2A O -0.4174(3) 0.6660(2) -0.09860(17)
O3A O -0.1749(5) 0.7815(5) -0.5699(3)
O4A O -0.3567(3) 0.4446(2) -0.07248(18)
O5A O -0.5480(3) 0.3936(2) -0.09551(18)
O5_2 O -0.4520(3) 0.6064(2) 0.09551(18)
O5A_2 O 0.4520(3) 0.3936(2) -0.09551(18)
O6A O -0.2758(4) 0.1313(4) -0.4634(3)
O7A O -0.0266(3) 0.3893(2) -0.00596(18)
O8A O 0.2171(3) 0.3138(2) -0.03267(18)
O9A O 0.1644(4) -0.1555(3) -0.1836(3)
O10A O -0.1234(3) 0.4848(2) 0.15065(17)
H29A H -0.1514 0.4848 0.2039
H30A H -0.0276 0.4626 0.1485
O11A O -0.3113(3) 0.3739(2) 0.10798(19)
H31A H -0.2533 0.3143 0.1351
H32A H -0.3961 0.3672 0.1027
C28 C 0.7693(8) 0.5175(8) 0.3884(5)
H22 H 0.8487 0.5431 0.3889
C29 C 0.6733(8) 0.5285(7) 0.4601(4)
H23 H 0.6904 0.5600 0.5070
C30 C 0.5538(5) 0.4937(4) 0.4627(3)
C31 C 0.5388(7) 0.4495(5) 0.3900(3)
H24 H 0.4590 0.4249 0.3869
C32 C 0.6393(7) 0.4410(6) 0.3221(4)
H25 H 0.6244 0.4102 0.2741
N4 N 0.7554(5) 0.4732(4) 0.3198(3)
C28A C 0.2307(8) 0.4825(8) 0.6116(5)
H22A H 0.1513 0.4569 0.6111
C29A C 0.3267(8) 0.4715(7) 0.5399(4)
H23A H 0.3096 0.4400 0.4930
C30A C 0.4462(5) 0.5063(4) 0.5373(3)
C31A C 0.4612(7) 0.5505(5) 0.6100(3)
H24A H 0.5410 0.5751 0.6131
C32A C 0.3607(7) 0.5590(6) 0.6779(4)
H25A H 0.3756 0.5898 0.7259
N4A N 0.2446(5) 0.5268(4) 0.6802(3)
O12 O 0.4915(5) 0.1449(3) 0.0120(3)
H33 H 0.5561 0.1442 0.0488
H34 H 0.4373 0.2107 -0.0056
O13 O 0.6151(4) 0.0109(3) 0.8778(3)
H35 H 0.5757 0.0623 0.9091
H36 H 0.6019 -0.0455 0.9061
loop_
_geom_bond_atom_site_label_1
_geom_bond_atom_site_label_2
_geom_bond_site_symmetry_1
_geom_bond_site_symmetry_2
C1 C2 1_555 1_555
C2 C3 1_555 1_555
C3 H1 1_555 1_555
C4 C3 1_555 1_555
H2 C4 1_555 1_555
C5 C4 1_555 1_555
C6 C5 1_555 1_555
H3 C6 1_555 1_555
C7 C2 1_555 1_555
H4 C7 1_555 1_555
C8 C9 1_555 1_555
C9 H5 1_555 1_555
H6 C9 1_555 1_555
H7 C9 1_555 1_555
C10 C11 1_555 1_555
C11 C12 1_555 1_555
C12 H8 1_555 1_555
C13 C12 1_555 1_555
H9 C13 1_555 1_555
C14 C13 1_555 1_555
C15 C14 1_555 1_555
H10 C15 1_555 1_555
C16 C11 1_555 1_555
H11 C16 1_555 1_555
C17 C18 1_555 1_555
C18 H12 1_555 1_555
H13 C18 1_555 1_555
H14 C18 1_555 1_555
C19 C20 1_555 1_555
C20 C21 1_555 1_555
C21 H15 1_555 1_555
C22 C21 1_555 1_555
H16 C22 1_555 1_555
C23 C22 1_555 1_555
C24 C23 1_555 1_555
H17 C24 1_555 1_555
C25 C20 1_555 1_555
H18 C25 1_555 1_555
C26 C27 1_555 1_555
C27 H19 1_555 1_555
H20 C27 1_555 1_555
H21 C27 1_555 1_555
C28 H22 1_555 1_555
C29 C28 1_555 1_555
H23 C29 1_555 1_555
C30 C29 1_555 1_555
C31 C30 1_555 1_555
H24 C31 1_555 1_555
C32 C31 1_555 1_555
H25 C32 1_555 1_555
Er1 O1 1_555 1_555
N1 C5 1_555 1_555
H26 N1 1_555 1_555
N2 C14 1_555 1_555
H27 N2 1_555 1_555
N3 C23 1_555 1_555
H28 N3 1_555 1_555
N4 C28 1_555 1_555
O1 C1 1_555 1_555
O2 C1 1_555 1_555
O3 C8 1_555 1_555
O4 C10 1_555 1_555
O5 C10 1_555 1_555
O6 C17 1_555 1_555
O7 C19 1_555 1_555
O8 C19 1_555 1_555
O9 C26 1_555 1_555
O10 Er1 1_555 1_555
H29 O10 1_555 1_555
H30 O10 1_555 1_555
O11 Er1 1_555 1_555
H31 O11 1_555 1_555
H32 O11 1_555 1_555
O12 H33 1_555 1_555
H34 O12 1_555 1_555
O13 H35 1_555 1_555
H36 O13 1_555 1_555
C1A C2A 1_555 1_555
C2A C3A 1_555 1_555
C3A H1A 1_555 1_555
C4A C3A 1_555 1_555
H2A C4A 1_555 1_555
C5A C4A 1_555 1_555
C6A C5A 1_555 1_555
H3A C6A 1_555 1_555
C7A C2A 1_555 1_555
H4A C7A 1_555 1_555
C8A C9A 1_555 1_555
C9A H5A 1_555 1_555
H6A C9A 1_555 1_555
H7A C9A 1_555 1_555
C10A C11A 1_555 1_555
C11A C12A 1_555 1_555
C12A H8A 1_555 1_555
C13A C12A 1_555 1_555
H9A C13A 1_555 1_555
C14A C13A 1_555 1_555
C15A C14A 1_555 1_555
H10A C15A 1_555 1_555
C16A C11A 1_555 1_555
H11A C16A 1_555 1_555
C17A C18A 1_555 1_555
C18A H12A 1_555 1_555
H13A C18A 1_555 1_555
H14A C18A 1_555 1_555
C19A C20A 1_555 1_555
C20A C21A 1_555 1_555
C21A H15A 1_555 1_555
C22A C21A 1_555 1_555
H16A C22A 1_555 1_555
C23A C22A 1_555 1_555
C24A C23A 1_555 1_555
H17A C24A 1_555 1_555
C25A C20A 1_555 1_555
H18A C25A 1_555 1_555
C26A C27A 1_555 1_555
C27A H19A 1_555 1_555
H20A C27A 1_555 1_555
H21A C27A 1_555 1_555
C28A H22A 1_555 1_555
C29A C28A 1_555 1_555
H23A C29A 1_555 1_555
C30A C30 1_555 1_555
C31A C30A 1_555 1_555
H24A C31A 1_555 1_555
C32A C31A 1_555 1_555
H25A C32A 1_555 1_555
Er1A O8 1_555 1_555
Er1_2 O5A 1_555 1_555
Er1A_2 O5 1_555 1_555
N1A C5A 1_555 1_555
H26A N1A 1_555 1_555
N2A C14A 1_555 1_555
H27A N2A 1_555 1_555
N3A C23A 1_555 1_555
H28A N3A 1_555 1_555
N4A C28A 1_555 1_555
O1A C1A 1_555 1_555
O2A C1A 1_555 1_555
O3A C8A 1_555 1_555
O4A C10A 1_555 1_555
O5A C10A 1_555 1_555
O5_2 Er1A 1_555 1_555
O5A_2 Er1 1_555 1_555
O6A C17A 1_555 1_555
O7A C19A 1_555 1_555
O8A Er1 1_555 1_555
O9A C26A 1_555 1_555
O10A Er1A 1_555 1_555
H29A O10A 1_555 1_555
H30A O10A 1_555 1_555
O11A Er1A 1_555 1_555
H31A O11A 1_555 1_555
H32A O11A 1_555 1_555
C6 C7 1_555 1_555
C8 N1 1_555 1_555
C15 C16 1_555 1_555
C17 N2 1_555 1_555
C24 C25 1_555 1_555
C26 N3 1_555 1_555
C32 N4 1_555 1_555
Er1 O2 1_555 1_555
Er1 O4 1_555 1_555
Er1 O7 1_555 1_555
C6A C7A 1_555 1_555
C8A N1A 1_555 1_555
C15A C16A 1_555 1_555
C17A N2A 1_555 1_555
C19A O8A 1_555 1_555
C24A C25A 1_555 1_555
C26A N3A 1_555 1_555
C29A C30A 1_555 1_555
C32A N4A 1_555 1_555
Er1A O1A 1_555 1_555
Er1A O2A 1_555 1_555
Er1A O4A 1_555 1_555
Er1A O7A 1_555 1_555

#END
