
#######################################################################
#
#                 Cambridge Crystallographic Data Centre
#                                CCDC 
#
#######################################################################
#
# If this CIF has been generated from an entry in the Cambridge 
# Structural Database, then it will include bibliographic, chemical, 
# crystal, experimental, refinement or atomic coordinate data resulting 
# from the CCDC's data processing and validation procedures.
#
#######################################################################

data_ISIQAD
_symmetry_cell_setting           triclinic
_symmetry_space_group_name_H-M   'P -1'
_symmetry_Int_Tables_number      2
_space_group_name_Hall           '-P 1'
loop_
_symmetry_equiv_pos_site_id
_symmetry_equiv_pos_as_xyz
1 x,y,z
2 -x,-y,-z
_cell_length_a                   9.4862(6)
_cell_length_b                   13.5976(8)
_cell_length_c                   14.8526(9)
_cell_angle_alpha                94.684(4)
_cell_angle_beta                 90.769(4)
_cell_angle_gamma                109.252(3)
_cell_volume                     1800.99
loop_
_atom_site_label
_atom_site_type_symbol
_atom_site_fract_x
_atom_site_fract_y
_atom_site_fract_z
C1 C 0.8175(7) 0.1173(5) -0.1471(4)
C2 C 0.8449(6) 0.1588(5) -0.2376(4)
C3 C 0.9739(7) 0.2395(6) -0.2517(5)
H1 H 1.0481 0.2642 -0.2058
C4 C 0.9942(7) 0.2838(6) -0.3322(5)
H2 H 1.0823 0.3375 -0.3408
C5 C 0.8840(7) 0.2488(6) -0.4007(5)
C6 C 0.7592(7) 0.1636(6) -0.3907(5)
H3 H 0.6889 0.1355 -0.4383
C7 C 0.7399(7) 0.1202(5) -0.3084(5)
H4 H 0.6544 0.0638 -0.3007
C8 C 0.8003(10) 0.3152(6) -0.5335(5)
C9 C 0.8533(10) 0.3806(7) -0.6124(5)
H5 H 0.8381 0.3354 -0.6674
H6 H 0.9577 0.4200 -0.6029
H7 H 0.7977 0.4277 -0.6167
C10 C 1.0864(6) 0.1256(4) 0.1259(4)
C11 C 1.1780(6) 0.1891(4) 0.2072(4)
C12 C 1.1387(7) 0.2681(5) 0.2523(4)
H8 H 1.0591 0.2857 0.2299
C13 C 1.2170(7) 0.3217(5) 0.3310(4)
H9 H 1.1928 0.3772 0.3594
C14 C 1.3309(6) 0.2925(5) 0.3672(4)
C15 C 1.3751(6) 0.2168(5) 0.3187(4)
H10 H 1.4566 0.2004 0.3399
C16 C 1.3001(6) 0.1657(5) 0.2398(4)
H11 H 1.3310 0.1152 0.2080
C17 C 1.3546(8) 0.3826(5) 0.5214(5)
C18 C 1.4499(8) 0.4055(6) 0.6080(5)
H12 H 1.4528 0.4718 0.6374
H13 H 1.5495 0.4078 0.5944
H14 H 1.4079 0.3515 0.6473
C19 C 0.5890(6) 0.1943(5) 0.0444(4)
C20 C 0.5568(6) 0.2917(4) 0.0694(4)
C21 C 0.4161(6) 0.2988(5) 0.0506(4)
H15 H 0.3423 0.2412 0.0214
C22 C 0.3839(7) 0.3880(5) 0.0738(4)
H16 H 0.2895 0.3906 0.0595
C23 C 0.4902(6) 0.4746(5) 0.1185(4)
C24 C 0.6313(7) 0.4704(5) 0.1385(5)
H17 H 0.7045 0.5281 0.1679
C25 C 0.6617(7) 0.3790(5) 0.1142(4)
H18 H 0.7560 0.3762 0.1284
C26 C 0.5271(7) 0.6613(5) 0.1679(4)
C27 C 0.4397(7) 0.7333(5) 0.1875(5)
H19 H 0.5012 0.7954 0.2227
H20 H 0.3538 0.6990 0.2206
H21 H 0.4077 0.7519 0.1316
N1 N 0.9077(6) 0.3008(5) -0.4811(4)
H26 H 0.9982 0.3252 -0.4978
N2 N 1.4067(5) 0.3370(4) 0.4513(3)
H27 H 1.4956 0.3346 0.4585
N3 N 0.4442(5) 0.5614(4) 0.1440(3)
H28 H 0.3491 0.5482 0.1443
O1 O 0.6878(4) 0.0584(3) -0.1310(3)
O2 O 0.9210(4) 0.1420(3) -0.0866(3)
O3 O 0.6671(6) 0.2780(5) -0.5196(4)
O4 O 0.9551(4) 0.1283(3) 0.1159(3)
O5 O 1.1415(4) 0.0736(3) 0.0723(3)
O6 O 1.2389(5) 0.4032(4) 0.5177(3)
O7 O 0.7215(4) 0.1950(3) 0.0494(3)
O8 O 0.4828(4) 0.1106(3) 0.0176(3)
O9 O 0.6646(5) 0.6938(3) 0.1737(3)
O10 O 0.6117(4) 0.0127(3) 0.1628(3)
H29 H 0.6115 -0.0428 0.1325
H30 H 0.6164 0.0048 0.2186
O11 O 0.8125(4) -0.1043(3) 0.1139(3)
H31 H 0.7673 -0.1332 0.1590
H32 H 0.8147 -0.1535 0.0755
Sm1 Sm 0.74815(3) 0.02303(2) 0.02282(2)
C1A C 1.1825(7) -0.1173(5) 0.1471(4)
C2A C 1.1551(6) -0.1588(5) 0.2376(4)
C3A C 1.0261(7) -0.2395(6) 0.2517(5)
H1A H 0.9519 -0.2642 0.2058
C4A C 1.0058(7) -0.2838(6) 0.3322(5)
H2A H 0.9177 -0.3375 0.3408
C5A C 1.1160(7) -0.2488(6) 0.4007(5)
C6A C 1.2408(7) -0.1636(6) 0.3907(5)
H3A H 1.3111 -0.1355 0.4383
C7A C 1.2601(7) -0.1202(5) 0.3084(5)
H4A H 1.3456 -0.0638 0.3007
C8A C 1.1997(10) -0.3152(6) 0.5335(5)
C9A C 1.1467(10) -0.3806(7) 0.6124(5)
H5A H 1.1619 -0.3354 0.6674
H6A H 1.0423 -0.4200 0.6029
H7A H 1.2023 -0.4277 0.6167
C10A C 0.9136(6) -0.1256(4) -0.1259(4)
C11A C 0.8220(6) -0.1891(4) -0.2072(4)
C12A C 0.8613(7) -0.2681(5) -0.2523(4)
H8A H 0.9409 -0.2857 -0.2299
C13A C 0.7830(7) -0.3217(5) -0.3310(4)
H9A H 0.8072 -0.3772 -0.3594
C14A C 0.6691(6) -0.2925(5) -0.3672(4)
C15A C 0.6249(6) -0.2168(5) -0.3187(4)
H10A H 0.5434 -0.2004 -0.3399
C16A C 0.6999(6) -0.1657(5) -0.2398(4)
H11A H 0.6690 -0.1152 -0.2080
C17A C 0.6454(8) -0.3826(5) -0.5214(5)
C18A C 0.5501(8) -0.4055(6) -0.6080(5)
H12A H 0.5472 -0.4718 -0.6374
H13A H 0.4505 -0.4078 -0.5944
H14A H 0.5921 -0.3515 -0.6473
C19A C 1.4110(6) -0.1943(5) -0.0444(4)
C20A C 1.4432(6) -0.2917(4) -0.0694(4)
C21A C 1.5839(6) -0.2988(5) -0.0506(4)
H15A H 1.6577 -0.2412 -0.0214
C22A C 1.6161(7) -0.3880(5) -0.0738(4)
H16A H 1.7105 -0.3906 -0.0595
C23A C 1.5098(6) -0.4746(5) -0.1185(4)
C24A C 1.3687(7) -0.4704(5) -0.1385(5)
H17A H 1.2955 -0.5281 -0.1679
C25A C 1.3383(7) -0.3790(5) -0.1142(4)
H18A H 1.2440 -0.3762 -0.1284
C26A C 1.4729(7) -0.6613(5) -0.1679(4)
C27A C 1.5603(7) -0.7333(5) -0.1875(5)
H19A H 1.4988 -0.7954 -0.2227
H20A H 1.6462 -0.6990 -0.2206
H21A H 1.5923 -0.7519 -0.1316
N1A N 1.0923(6) -0.3008(5) 0.4811(4)
H26A H 1.0018 -0.3252 0.4978
N2A N 0.5933(5) -0.3370(4) -0.4513(3)
H27A H 0.5044 -0.3346 -0.4585
N3A N 1.5558(5) -0.5614(4) -0.1440(3)
H28A H 1.6509 -0.5482 -0.1443
O1A O 1.3122(4) -0.0584(3) 0.1310(3)
O2A O 1.0790(4) -0.1420(3) 0.0866(3)
O3A O 1.3329(6) -0.2780(5) 0.5196(4)
O4A O 1.0449(4) -0.1283(3) -0.1159(3)
O5A O 0.8585(4) -0.0736(3) -0.0723(3)
O6A O 0.7611(5) -0.4032(4) -0.5177(3)
O7A O 1.2785(4) -0.1950(3) -0.0494(3)
O8A O 0.5172(4) -0.1106(3) -0.0176(3)
O8_2 O 1.4828(4) 0.1106(3) 0.0176(3)
O8A_2 O 1.5172(4) -0.1106(3) -0.0176(3)
O9A O 1.3354(5) -0.6938(3) -0.1737(3)
O10A O 1.3883(4) -0.0127(3) -0.1628(3)
H29A H 1.3885 0.0428 -0.1325
H30A H 1.3836 -0.0048 -0.2186
O11A O 1.1875(4) 0.1043(3) -0.1139(3)
H31A H 1.2327 0.1332 -0.1590
H32A H 1.1853 0.1535 -0.0755
Sm1A Sm 1.25185(3) -0.02303(2) -0.02282(2)
Sm1A_2 Sm 0.25185(3) -0.02303(2) -0.02282(2)
Sm1_2 Sm 1.74815(3) 0.02303(2) 0.02282(2)
C28 C 0.1430(8) -0.0474(7) 0.6688(5)
H22 H 0.1205 -0.0942 0.7130
C29 C 0.0335(9) -0.0564(8) 0.6040(6)
H23 H -0.0599 -0.1067 0.6077
C30 C 0.0567(8) 0.0044(7) 0.5364(6)
C31 C 0.2005(8) 0.0735(7) 0.5355(6)
H24 H 0.2282 0.1165 0.4886
C32 C 0.3042(9) 0.0791(6) 0.6042(6)
H25 H 0.4002 0.1266 0.6015
N4 N 0.2756(7) 0.0220(6) 0.6722(4)
C28A C -0.1430(8) 0.0474(7) 0.3312(5)
H22A H -0.1205 0.0942 0.2870
C29A C -0.0335(9) 0.0564(8) 0.3960(6)
H23A H 0.0599 0.1067 0.3923
C30A C -0.0567(8) -0.0044(7) 0.4636(6)
C31A C -0.2005(8) -0.0735(7) 0.4645(6)
H24A H -0.2282 -0.1165 0.5114
C32A C -0.3042(9) -0.0791(6) 0.3958(6)
H25A H -0.4002 -0.1266 0.3985
N4A N -0.2756(7) -0.0220(6) 0.3278(4)
O12 O 0.8766(5) 0.4757(4) 0.8840(4)
H33 H 0.9278 0.5319 0.9149
H34 H 0.9338 0.4426 0.8657
O13 O 0.0200(6) 0.6539(4) 0.0002(4)
H35 H 0.0943 0.7074 -0.0079
H36 H -0.0353 0.6709 0.0387
loop_
_geom_bond_atom_site_label_1
_geom_bond_atom_site_label_2
_geom_bond_site_symmetry_1
_geom_bond_site_symmetry_2
C1 C2 1_555 1_555
C2 C3 1_555 1_555
C3 H1 1_555 1_555
C4 C3 1_555 1_555
H2 C4 1_555 1_555
C5 C4 1_555 1_555
C6 C5 1_555 1_555
H3 C6 1_555 1_555
C7 C2 1_555 1_555
H4 C7 1_555 1_555
C8 C9 1_555 1_555
C9 H5 1_555 1_555
H6 C9 1_555 1_555
H7 C9 1_555 1_555
C10 C11 1_555 1_555
C11 C12 1_555 1_555
C12 H8 1_555 1_555
C13 C12 1_555 1_555
H9 C13 1_555 1_555
C14 C13 1_555 1_555
C15 C14 1_555 1_555
H10 C15 1_555 1_555
C16 C11 1_555 1_555
H11 C16 1_555 1_555
C17 C18 1_555 1_555
C18 H12 1_555 1_555
H13 C18 1_555 1_555
H14 C18 1_555 1_555
C19 C20 1_555 1_555
C20 C21 1_555 1_555
C21 H15 1_555 1_555
C22 C21 1_555 1_555
H16 C22 1_555 1_555
C23 C22 1_555 1_555
C24 C23 1_555 1_555
H17 C24 1_555 1_555
C25 C20 1_555 1_555
H18 C25 1_555 1_555
C26 C27 1_555 1_555
C27 H19 1_555 1_555
H20 C27 1_555 1_555
H21 C27 1_555 1_555
C28 H22 1_555 1_555
C29 C28 1_555 1_555
H23 C29 1_555 1_555
C30 C29 1_555 1_555
C31 C30 1_555 1_555
H24 C31 1_555 1_555
C32 C31 1_555 1_555
H25 C32 1_555 1_555
N1 C5 1_555 1_555
H26 N1 1_555 1_555
N2 C14 1_555 1_555
H27 N2 1_555 1_555
N3 C23 1_555 1_555
H28 N3 1_555 1_555
N4 C28 1_555 1_555
O1 C1 1_555 1_555
O2 C1 1_555 1_555
O3 C8 1_555 1_555
O4 C10 1_555 1_555
O5 C10 1_555 1_555
O6 C17 1_555 1_555
O7 C19 1_555 1_555
O8 C19 1_555 1_555
O9 C26 1_555 1_555
O10 H29 1_555 1_555
H30 O10 1_555 1_555
O11 H31 1_555 1_555
H32 O11 1_555 1_555
O12 H33 1_555 1_555
H34 O12 1_555 1_555
O13 H35 1_555 1_555
H36 O13 1_555 1_555
Sm1 O1 1_555 1_555
C1A C2A 1_555 1_555
C2A C3A 1_555 1_555
C3A H1A 1_555 1_555
C4A C3A 1_555 1_555
H2A C4A 1_555 1_555
C5A C4A 1_555 1_555
C6A C5A 1_555 1_555
H3A C6A 1_555 1_555
C7A C2A 1_555 1_555
H4A C7A 1_555 1_555
C8A C9A 1_555 1_555
C9A H5A 1_555 1_555
H6A C9A 1_555 1_555
H7A C9A 1_555 1_555
C10A C11A 1_555 1_555
C11A C12A 1_555 1_555
C12A H8A 1_555 1_555
C13A C12A 1_555 1_555
H9A C13A 1_555 1_555
C14A C13A 1_555 1_555
C15A C14A 1_555 1_555
H10A C15A 1_555 1_555
C16A C11A 1_555 1_555
H11A C16A 1_555 1_555
C17A C18A 1_555 1_555
C18A H12A 1_555 1_555
H13A C18A 1_555 1_555
H14A C18A 1_555 1_555
C19A C20A 1_555 1_555
C20A C21A 1_555 1_555
C21A H15A 1_555 1_555
C22A C21A 1_555 1_555
H16A C22A 1_555 1_555
C23A C22A 1_555 1_555
C24A C23A 1_555 1_555
H17A C24A 1_555 1_555
C25A C20A 1_555 1_555
H18A C25A 1_555 1_555
C26A C27A 1_555 1_555
C27A H19A 1_555 1_555
H20A C27A 1_555 1_555
H21A C27A 1_555 1_555
C28A H22A 1_555 1_555
C29A C28A 1_555 1_555
H23A C29A 1_555 1_555
C30A C30 1_555 1_555
C31A C30A 1_555 1_555
H24A C31A 1_555 1_555
C32A C31A 1_555 1_555
H25A C32A 1_555 1_555
N1A C5A 1_555 1_555
H26A N1A 1_555 1_555
N2A C14A 1_555 1_555
H27A N2A 1_555 1_555
N3A C23A 1_555 1_555
H28A N3A 1_555 1_555
N4A C28A 1_555 1_555
O1A C1A 1_555 1_555
O2A C1A 1_555 1_555
O3A C8A 1_555 1_555
O4A C10A 1_555 1_555
O5A Sm1 1_555 1_555
O6A C17A 1_555 1_555
O7A C19A 1_555 1_555
O8A Sm1 1_555 1_555
O8_2 Sm1A 1_555 1_555
O8A_2 C19A 1_555 1_555
O9A C26A 1_555 1_555
O10A H29A 1_555 1_555
H30A O10A 1_555 1_555
O11A H31A 1_555 1_555
H32A O11A 1_555 1_555
Sm1A O5 1_555 1_555
Sm1A_2 O8 1_555 1_555
Sm1_2 O8A_2 1_555 1_555
C6 C7 1_555 1_555
C8 N1 1_555 1_555
C15 C16 1_555 1_555
C17 N2 1_555 1_555
C24 C25 1_555 1_555
C26 N3 1_555 1_555
C32 N4 1_555 1_555
O2 Sm1 1_555 1_555
O4 Sm1 1_555 1_555
O7 Sm1 1_555 1_555
O10 Sm1 1_555 1_555
O11 Sm1 1_555 1_555
C6A C7A 1_555 1_555
C8A N1A 1_555 1_555
C10A O5A 1_555 1_555
C15A C16A 1_555 1_555
C17A N2A 1_555 1_555
C24A C25A 1_555 1_555
C26A N3A 1_555 1_555
C29A C30A 1_555 1_555
C32A N4A 1_555 1_555
O1A Sm1A 1_555 1_555
O2A Sm1A 1_555 1_555
O4A Sm1A 1_555 1_555
O7A Sm1A 1_555 1_555
O10A Sm1A 1_555 1_555
O11A Sm1A 1_555 1_555

#END
