
#######################################################################
#
#                 Cambridge Crystallographic Data Centre
#                                CCDC 
#
#######################################################################
#
# If this CIF has been generated from an entry in the Cambridge 
# Structural Database, then it will include bibliographic, chemical, 
# crystal, experimental, refinement or atomic coordinate data resulting 
# from the CCDC's data processing and validation procedures.
#
#######################################################################

data_ISIQOR
_symmetry_cell_setting           monoclinic
_symmetry_space_group_name_H-M   'P 21/c'
_symmetry_Int_Tables_number      14
_space_group_name_Hall           '-P 2ybc'
loop_
_symmetry_equiv_pos_site_id
_symmetry_equiv_pos_as_xyz
1 x,y,z
2 -x,1/2+y,1/2-z
3 -x,-y,-z
4 x,1/2-y,1/2+z
_cell_length_a                   6.627(3)
_cell_length_b                   13.848(5)
_cell_length_c                   8.983(4)
_cell_angle_alpha                90
_cell_angle_beta                 96.985(6)
_cell_angle_gamma                90
_cell_volume                     818.258
loop_
_atom_site_label
_atom_site_type_symbol
_atom_site_fract_x
_atom_site_fract_y
_atom_site_fract_z
Eu1 Eu 0.22560(3) 0.910886(12) 0.286320(19)
Ag1 Ag 0.71427(6) 0.74768(4) 0.27483(5)
S1 S 0.27036(13) 0.97252(7) 0.69042(10)
O1 O 0.4421(4) 0.7936(2) 0.4487(3)
O2 O 0.4312(4) 0.6873(2) 0.6353(3)
O3 O 0.0426(4) 0.7699(2) 0.3688(3)
O4 O 0.0323(5) 0.6669(2) 0.5607(3)
O5 O 0.1700(4) 0.9258(2) 0.5517(3)
O6 O 0.3512(6) 0.9010(2) 0.7992(4)
O7 O 0.1176(5) 1.0338(3) 0.7516(4)
O8 O 0.4348(4) 1.0352(2) 0.6493(3)
C1 C 0.3522(6) 0.7355(3) 0.5240(4)
C2 C 0.1227(6) 0.7216(3) 0.4812(4)
O9 O 0.2687(5) 1.0156(2) 0.0774(3)
H1 H 0.3663 1.0554 0.0950
H2 H 0.2013 1.0280 -0.0070
O10 O 0.2221(5) 1.09336(19) 0.3660(3)
H3 H 0.3174 1.1055 0.4356
H4 H 0.1083 1.0965 0.4005
Eu1C Eu 0.22560(3) 0.589114(12) 0.786320(19)
Eu1B Eu -0.22560(3) 1.089114(12) 0.713680(19)
Eu1B_2 Eu 0.77440(3) 1.089114(12) 0.713680(19)
Ag1C Ag 0.71427(6) 0.75232(4) 0.77483(5)
Ag1_2 Ag -0.28573(6) 0.74768(4) 0.27483(5)
Ag1A Ag 0.28573(6) 1.24768(4) 0.22517(5)
O2C O 0.4312(4) 0.8127(2) 0.1353(3)
O3_2 O 1.0426(4) 0.7699(2) 0.3688(3)
O4C O 0.0323(5) 0.8331(2) 0.0607(3)
O7B O -0.1176(5) 0.9662(3) 0.2484(4)
O8B O 0.5652(4) 0.9648(2) 0.3507(3)
O10A O 0.7779(5) 0.59336(19) 0.1340(3)
H3A H 0.6826 0.6055 0.0644
H4A H 0.8917 0.5965 0.0995
loop_
_geom_bond_atom_site_label_1
_geom_bond_atom_site_label_2
_geom_bond_site_symmetry_1
_geom_bond_site_symmetry_2
Eu1 O1 1_555 1_555
Ag1 O1 1_555 1_555
S1 O5 1_555 1_555
O1 C1 1_555 1_555
O2 C1 1_555 1_555
O3 Eu1 1_555 1_555
O4 C2 1_555 1_555
O5 Eu1 1_555 1_555
O6 S1 1_555 1_555
O7 S1 1_555 1_555
O8 S1 1_555 1_555
C1 C2 1_555 1_555
C2 O3 1_555 1_555
O9 Eu1 1_555 1_555
H1 O9 1_555 1_555
H2 O9 1_555 1_555
O10 Eu1 1_555 1_555
H3 O10 1_555 1_555
H4 O10 1_555 1_555
Eu1C O2 1_555 1_555
Eu1B O7 1_555 1_555
Eu1B_2 O8 1_555 1_555
Ag1C O2 1_555 1_555
Ag1_2 O3 1_555 1_555
Ag1A O10 1_555 1_555
O2C Eu1 1_555 1_555
O3_2 Ag1 1_555 1_555
O4C Eu1 1_555 1_555
O7B Eu1 1_555 1_555
O8B Eu1 1_555 1_555
O10A Ag1 1_555 1_555
H3A O10A 1_555 1_555
H4A O10A 1_555 1_555
Ag1 O2C 1_555 1_555
O4 Eu1C 1_555 1_555

#END
