
#######################################################################
#
#                 Cambridge Crystallographic Data Centre
#                                CCDC 
#
#######################################################################
#
# If this CIF has been generated from an entry in the Cambridge 
# Structural Database, then it will include bibliographic, chemical, 
# crystal, experimental, refinement or atomic coordinate data resulting 
# from the CCDC's data processing and validation procedures.
#
#######################################################################

data_ISIQIL
_symmetry_cell_setting           triclinic
_symmetry_space_group_name_H-M   'P -1'
_symmetry_Int_Tables_number      2
_space_group_name_Hall           '-P 1'
loop_
_symmetry_equiv_pos_site_id
_symmetry_equiv_pos_as_xyz
1 x,y,z
2 -x,-y,-z
_cell_length_a                   9.4744(5)
_cell_length_b                   13.5646(12)
_cell_length_c                   14.8280(5)
_cell_angle_alpha                94.505(3)
_cell_angle_beta                 90.8210(10)
_cell_angle_gamma                109.233(2)
_cell_volume                     1792.09
loop_
_atom_site_label
_atom_site_type_symbol
_atom_site_fract_x
_atom_site_fract_y
_atom_site_fract_z
C1 C 0.8166(4) 0.6172(3) -0.1468(2)
C2 C 0.8450(4) 0.6584(3) -0.2374(2)
C3 C 0.9731(5) 0.7388(4) -0.2513(3)
H1 H 1.0476 0.7630 -0.2056
C4 C 0.9932(5) 0.7846(4) -0.3326(3)
H2 H 1.0801 0.8399 -0.3409
C5 C 0.8835(5) 0.7477(4) -0.4014(3)
C6 C 0.7576(5) 0.6633(4) -0.3902(3)
H3 H 0.6862 0.6362 -0.4374
C7 C 0.7380(5) 0.6187(3) -0.3084(3)
H4 H 0.6527 0.5619 -0.3008
C8 C 0.7980(6) 0.8146(5) -0.5351(3)
C9 C 0.8518(8) 0.8792(6) -0.6127(4)
H5 H 0.8394 0.8340 -0.6675
H6 H 0.9557 0.9198 -0.6020
H7 H 0.7949 0.9255 -0.6185
C10 C 0.5863(4) 0.6920(3) 0.0432(2)
C11 C 0.5548(4) 0.7911(3) 0.0687(2)
C12 C 0.6620(4) 0.8779(3) 0.1139(3)
H8 H 0.7564 0.8746 0.1274
C13 C 0.6317(5) 0.9689(3) 0.1392(3)
H9 H 0.7052 1.0262 0.1692
C14 C 0.4899(4) 0.9743(3) 0.1195(3)
C15 C 0.3839(4) 0.8885(3) 0.0735(3)
H10 H 0.2898 0.8919 0.0590
C16 C 0.4153(4) 0.7986(3) 0.0488(3)
H11 H 0.3419 0.7417 0.0183
C17 C 0.5295(5) 1.1624(3) 0.1686(3)
C18 C 0.4394(5) 1.2332(3) 0.1880(3)
H12 H 0.4774 1.2767 0.2431
H13 H 0.3367 1.1918 0.1943
H14 H 0.4463 1.2766 0.1390
C19 C 1.0851(4) 0.6249(3) 0.1245(2)
C20 C 1.1766(4) 0.6882(3) 0.2057(2)
C21 C 1.3001(4) 0.6654(3) 0.2388(3)
H15 H 1.3324 0.6155 0.2070
C22 C 1.3741(4) 0.7167(3) 0.3184(3)
H16 H 1.4547 0.6998 0.3406
C23 C 1.3304(4) 0.7928(3) 0.3657(3)
C24 C 1.2150(5) 0.8220(3) 0.3298(3)
H17 H 1.1897 0.8769 0.3586
C25 C 1.1379(4) 0.7685(3) 0.2507(2)
H18 H 1.0592 0.7869 0.2276
C26 C 1.3528(5) 0.8826(3) 0.5201(3)
C27 C 1.4485(6) 0.9045(4) 0.6067(3)
H19 H 1.4639 0.9748 0.6319
H20 H 1.5434 0.8965 0.5939
H21 H 1.3989 0.8560 0.6493
Gd1 Gd 0.749274(16) 0.522707(11) 0.022498(10)
N1 N 0.9070(4) 0.7998(4) -0.4819(3)
H26 H 0.9975 0.8242 -0.4987
N2 N 0.4448(4) 1.0609(2) 0.1448(2)
H27 H 0.3497 1.0480 0.1453
N3 N 1.4055(4) 0.8365(3) 0.4502(2)
H28 H 1.4941 0.8335 0.4579
O1 O 0.6863(3) 0.5577(2) -0.13033(17)
O2 O 0.9208(3) 0.6416(2) -0.08651(17)
O3 O 0.6656(4) 0.7780(3) -0.5195(3)
O4 O 0.7185(3) 0.69161(19) 0.04802(18)
O5 O 0.4788(3) 0.60974(18) 0.01686(17)
O6 O 0.6654(3) 1.1935(2) 0.1734(2)
O7 O 0.9538(3) 0.6265(2) 0.11503(17)
O8 O 1.1415(3) 0.5733(2) 0.07134(17)
O9 O 1.2368(4) 0.9034(3) 0.5162(2)
O10 O 0.6152(3) 0.5118(2) 0.16076(17)
H29 H 0.6370 0.5038 0.2145
H30 H 0.5214 0.4870 0.1510
O11 O 0.8117(3) 0.3959(2) 0.11325(19)
H31 H 0.7586 0.3464 0.1415
H32 H 0.8952 0.3885 0.1024
C1A C 0.1834(4) 0.3828(3) 0.1468(2)
C2A C 0.1550(4) 0.3416(3) 0.2374(2)
C3A C 0.0269(5) 0.2612(4) 0.2513(3)
H1A H -0.0476 0.2370 0.2056
C4A C 0.0068(5) 0.2154(4) 0.3326(3)
H2A H -0.0801 0.1601 0.3409
C5A C 0.1165(5) 0.2523(4) 0.4014(3)
C6A C 0.2424(5) 0.3367(4) 0.3902(3)
H3A H 0.3138 0.3638 0.4374
C7A C 0.2620(5) 0.3813(3) 0.3084(3)
H4A H 0.3473 0.4381 0.3008
C8A C 0.2020(6) 0.1854(5) 0.5351(3)
C9A C 0.1482(8) 0.1208(6) 0.6127(4)
H5A H 0.1606 0.1660 0.6675
H6A H 0.0443 0.0802 0.6020
H7A H 0.2051 0.0745 0.6185
C10A C 0.4137(4) 0.3080(3) -0.0432(2)
C11A C 0.4452(4) 0.2089(3) -0.0687(2)
C12A C 0.3380(4) 0.1221(3) -0.1139(3)
H8A H 0.2436 0.1254 -0.1274
C13A C 0.3683(5) 0.0311(3) -0.1392(3)
H9A H 0.2948 -0.0262 -0.1692
C14A C 0.5101(4) 0.0257(3) -0.1195(3)
C15A C 0.6161(4) 0.1115(3) -0.0735(3)
H10A H 0.7102 0.1081 -0.0590
C16A C 0.5847(4) 0.2014(3) -0.0488(3)
H11A H 0.6581 0.2583 -0.0183
C17A C 0.4705(5) -0.1624(3) -0.1686(3)
C18A C 0.5606(5) -0.2332(3) -0.1880(3)
H12A H 0.5226 -0.2767 -0.2431
H13A H 0.6633 -0.1918 -0.1943
H14A H 0.5537 -0.2766 -0.1390
C19A C -0.0851(4) 0.3751(3) -0.1245(2)
C20A C -0.1766(4) 0.3118(3) -0.2057(2)
C21A C -0.3001(4) 0.3346(3) -0.2388(3)
H15A H -0.3324 0.3845 -0.2070
C22A C -0.3741(4) 0.2833(3) -0.3184(3)
H16A H -0.4547 0.3002 -0.3406
C23A C -0.3304(4) 0.2072(3) -0.3657(3)
C24A C -0.2150(5) 0.1780(3) -0.3298(3)
H17A H -0.1897 0.1231 -0.3586
C25A C -0.1379(4) 0.2315(3) -0.2507(2)
H18A H -0.0592 0.2131 -0.2276
C26A C -0.3528(5) 0.1174(3) -0.5201(3)
C27A C -0.4485(6) 0.0955(4) -0.6067(3)
H19A H -0.4639 0.0252 -0.6319
H20A H -0.5434 0.1035 -0.5939
H21A H -0.3989 0.1440 -0.6493
Gd1A Gd 0.250726(16) 0.477293(11) -0.022498(10)
Gd1_2 Gd -0.250726(16) 0.522707(11) 0.022498(10)
Gd1A_2 Gd 1.250726(16) 0.477293(11) -0.022498(10)
N1A N 0.0930(4) 0.2002(4) 0.4819(3)
H26A H 0.0025 0.1758 0.4987
N2A N 0.5552(4) -0.0609(2) -0.1448(2)
H27A H 0.6503 -0.0480 -0.1453
N3A N -0.4055(4) 0.1635(3) -0.4502(2)
H28A H -0.4941 0.1665 -0.4579
O1A O 0.3137(3) 0.4423(2) 0.13033(17)
O2A O 0.0792(3) 0.3584(2) 0.08651(17)
O3A O 0.3344(4) 0.2220(3) 0.5195(3)
O4A O 0.2815(3) 0.30839(19) -0.04802(18)
O5A O 0.5212(3) 0.39026(18) -0.01686(17)
O6A O 0.3346(3) -0.1935(2) -0.1734(2)
O7A O 0.0462(3) 0.3735(2) -0.11503(17)
O8A O -0.1415(3) 0.4267(2) -0.07134(17)
O8_2 O 0.1415(3) 0.5733(2) 0.07134(17)
O8A_2 O 0.8585(3) 0.4267(2) -0.07134(17)
O9A O -0.2368(4) 0.0966(3) -0.5162(2)
O10A O 0.3848(3) 0.4882(2) -0.16076(17)
H29A H 0.3630 0.4962 -0.2145
H30A H 0.4786 0.5130 -0.1510
O11A O 0.1883(3) 0.6041(2) -0.11325(19)
H31A H 0.2414 0.6536 -0.1415
H32A H 0.1048 0.6115 -0.1024
C28 C 0.8573(6) 0.5478(5) 0.3298(4)
H22 H 0.8787 0.5947 0.2853
C29 C 0.9689(6) 0.5571(5) 0.3951(4)
H23 H 1.0632 0.6066 0.3910
C30 C 0.9424(6) 0.4954(5) 0.4641(4)
C31 C 0.7989(6) 0.4272(5) 0.4650(4)
H24 H 0.7709 0.3847 0.5124
C32 C 0.6950(7) 0.4209(5) 0.3965(4)
H25 H 0.5986 0.3738 0.3995
N4 N 0.7261(5) 0.4782(4) 0.3273(3)
C28A C 1.1427(6) 0.4522(5) 0.6702(4)
H22A H 1.1213 0.4053 0.7147
C29A C 1.0311(6) 0.4429(5) 0.6049(4)
H23A H 0.9368 0.3934 0.6090
C30A C 1.0576(6) 0.5046(5) 0.5359(4)
C31A C 1.2011(6) 0.5728(5) 0.5350(4)
H24A H 1.2291 0.6153 0.4876
C32A C 1.3050(7) 0.5791(5) 0.6035(4)
H25A H 1.4014 0.6262 0.6005
N4A N 1.2739(5) 0.5218(4) 0.6727(3)
O12 O 0.9782(4) 0.8451(3) 1.0009(3)
H33 H 1.0203 0.8115 0.9659
H34 H 0.8962 0.8024 1.0167
O13 O 0.1218(4) 0.0232(3) 0.1176(3)
H35 H 0.0800 0.0659 0.1014
H36 H 0.0956 -0.0304 0.0795
loop_
_geom_bond_atom_site_label_1
_geom_bond_atom_site_label_2
_geom_bond_site_symmetry_1
_geom_bond_site_symmetry_2
C1 C2 1_555 1_555
C2 C3 1_555 1_555
C3 H1 1_555 1_555
C4 C3 1_555 1_555
H2 C4 1_555 1_555
C5 C4 1_555 1_555
C6 C5 1_555 1_555
H3 C6 1_555 1_555
C7 C2 1_555 1_555
H4 C7 1_555 1_555
C8 C9 1_555 1_555
C9 H5 1_555 1_555
H6 C9 1_555 1_555
H7 C9 1_555 1_555
C10 C11 1_555 1_555
C11 C12 1_555 1_555
C12 H8 1_555 1_555
C13 C12 1_555 1_555
H9 C13 1_555 1_555
C14 C13 1_555 1_555
C15 C14 1_555 1_555
H10 C15 1_555 1_555
C16 C11 1_555 1_555
H11 C16 1_555 1_555
C17 C18 1_555 1_555
C18 H12 1_555 1_555
H13 C18 1_555 1_555
H14 C18 1_555 1_555
C19 C20 1_555 1_555
C20 C21 1_555 1_555
C21 H15 1_555 1_555
C22 C21 1_555 1_555
H16 C22 1_555 1_555
C23 C22 1_555 1_555
C24 C23 1_555 1_555
H17 C24 1_555 1_555
C25 C20 1_555 1_555
H18 C25 1_555 1_555
C26 C27 1_555 1_555
C27 H19 1_555 1_555
H20 C27 1_555 1_555
H21 C27 1_555 1_555
C28 H22 1_555 1_555
C29 C28 1_555 1_555
H23 C29 1_555 1_555
C30 C29 1_555 1_555
C31 C30 1_555 1_555
H24 C31 1_555 1_555
C32 C31 1_555 1_555
H25 C32 1_555 1_555
Gd1 O1 1_555 1_555
N1 C5 1_555 1_555
H26 N1 1_555 1_555
N2 C14 1_555 1_555
H27 N2 1_555 1_555
N3 C23 1_555 1_555
H28 N3 1_555 1_555
N4 C28 1_555 1_555
O1 C1 1_555 1_555
O2 C1 1_555 1_555
O3 C8 1_555 1_555
O4 C10 1_555 1_555
O5 C10 1_555 1_555
O6 C17 1_555 1_555
O7 C19 1_555 1_555
O8 C19 1_555 1_555
O9 C26 1_555 1_555
O10 Gd1 1_555 1_555
H29 O10 1_555 1_555
H30 O10 1_555 1_555
O11 Gd1 1_555 1_555
H31 O11 1_555 1_555
H32 O11 1_555 1_555
O12 H33 1_555 1_555
H34 O12 1_555 1_555
O13 H35 1_555 1_555
H36 O13 1_555 1_555
C1A C2A 1_555 1_555
C2A C3A 1_555 1_555
C3A H1A 1_555 1_555
C4A C3A 1_555 1_555
H2A C4A 1_555 1_555
C5A C4A 1_555 1_555
C6A C5A 1_555 1_555
H3A C6A 1_555 1_555
C7A C2A 1_555 1_555
H4A C7A 1_555 1_555
C8A C9A 1_555 1_555
C9A H5A 1_555 1_555
H6A C9A 1_555 1_555
H7A C9A 1_555 1_555
C10A C11A 1_555 1_555
C11A C12A 1_555 1_555
C12A H8A 1_555 1_555
C13A C12A 1_555 1_555
H9A C13A 1_555 1_555
C14A C13A 1_555 1_555
C15A C14A 1_555 1_555
H10A C15A 1_555 1_555
C16A C11A 1_555 1_555
H11A C16A 1_555 1_555
C17A C18A 1_555 1_555
C18A H12A 1_555 1_555
H13A C18A 1_555 1_555
H14A C18A 1_555 1_555
C19A C20A 1_555 1_555
C20A C21A 1_555 1_555
C21A H15A 1_555 1_555
C22A C21A 1_555 1_555
H16A C22A 1_555 1_555
C23A C22A 1_555 1_555
C24A C23A 1_555 1_555
H17A C24A 1_555 1_555
C25A C20A 1_555 1_555
H18A C25A 1_555 1_555
C26A C27A 1_555 1_555
C27A H19A 1_555 1_555
H20A C27A 1_555 1_555
H21A C27A 1_555 1_555
C28A H22A 1_555 1_555
C29A C28A 1_555 1_555
H23A C29A 1_555 1_555
C30A C30 1_555 1_555
C31A C30A 1_555 1_555
H24A C31A 1_555 1_555
C32A C31A 1_555 1_555
H25A C32A 1_555 1_555
Gd1A O5 1_555 1_555
Gd1_2 O8A 1_555 1_555
Gd1A_2 O8 1_555 1_555
N1A C5A 1_555 1_555
H26A N1A 1_555 1_555
N2A C14A 1_555 1_555
H27A N2A 1_555 1_555
N3A C23A 1_555 1_555
H28A N3A 1_555 1_555
N4A C28A 1_555 1_555
O1A C1A 1_555 1_555
O2A C1A 1_555 1_555
O3A C8A 1_555 1_555
O4A C10A 1_555 1_555
O5A Gd1 1_555 1_555
O6A C17A 1_555 1_555
O7A C19A 1_555 1_555
O8A C19A 1_555 1_555
O8_2 Gd1A 1_555 1_555
O8A_2 Gd1 1_555 1_555
O9A C26A 1_555 1_555
O10A Gd1A 1_555 1_555
H29A O10A 1_555 1_555
H30A O10A 1_555 1_555
O11A Gd1A 1_555 1_555
H31A O11A 1_555 1_555
H32A O11A 1_555 1_555
C6 C7 1_555 1_555
C8 N1 1_555 1_555
C15 C16 1_555 1_555
C17 N2 1_555 1_555
C24 C25 1_555 1_555
C26 N3 1_555 1_555
C32 N4 1_555 1_555
Gd1 O2 1_555 1_555
Gd1 O4 1_555 1_555
Gd1 O7 1_555 1_555
C6A C7A 1_555 1_555
C8A N1A 1_555 1_555
C10A O5A 1_555 1_555
C15A C16A 1_555 1_555
C17A N2A 1_555 1_555
C24A C25A 1_555 1_555
C26A N3A 1_555 1_555
C29A C30A 1_555 1_555
C32A N4A 1_555 1_555
Gd1A O1A 1_555 1_555
Gd1A O2A 1_555 1_555
Gd1A O4A 1_555 1_555
Gd1A O7A 1_555 1_555

#END
