
#######################################################################
#
#                 Cambridge Crystallographic Data Centre
#                                CCDC 
#
#######################################################################
#
# If this CIF has been generated from an entry in the Cambridge 
# Structural Database, then it will include bibliographic, chemical, 
# crystal, experimental, refinement or atomic coordinate data resulting 
# from the CCDC's data processing and validation procedures.
#
#######################################################################

data_ISIRIM
_symmetry_cell_setting           orthorhombic
_symmetry_space_group_name_H-M   'P n a 21'
_symmetry_Int_Tables_number      33
_space_group_name_Hall           'P 2c -2n'
loop_
_symmetry_equiv_pos_site_id
_symmetry_equiv_pos_as_xyz
1 x,y,z
2 -x,-y,1/2+z
3 1/2-x,1/2+y,1/2+z
4 1/2+x,1/2-y,z
_cell_length_a                   7.8052(3)
_cell_length_b                   20.0556(8)
_cell_length_c                   9.3307(3)
_cell_angle_alpha                90
_cell_angle_beta                 90
_cell_angle_gamma                90
_cell_volume                     1460.61
loop_
_atom_site_label
_atom_site_type_symbol
_atom_site_fract_x
_atom_site_fract_y
_atom_site_fract_z
Cd1 Cd 2.06497(4) 1.548203(14) 0.73456(4)
O1 O 2.0615(4) 1.50341(17) 0.5023(3)
O2 O 2.2012(4) 1.48149(15) 0.3019(2)
O3 O 2.4053(4) 1.38314(15) 0.7168(7)
O4 O 2.2043(4) 1.45598(17) 0.7822(2)
O5 O 2.3565(3) 1.55883(16) 0.6249(3)
N1 N 2.1336(5) 1.63000(19) 0.8968(3)
N2 N 2.0233(5) 1.6512(2) 0.6248(4)
C1 C 2.1950(7) 1.5007(2) 0.4297(4)
C2 C 2.3624(6) 1.5207(2) 0.4924(4)
H1 H 2.4500 1.5346 0.4233
C3 C 2.4272(6) 1.4915(2) 0.6254(4)
H2 H 2.5525 1.4899 0.6315
C4 C 2.3371(6) 1.4387(3) 0.7139(8)
C5 C 2.1816(6) 1.6207(3) 1.0323(4)
H3 H 2.1891 1.5772 1.0662
C6 C 2.2209(7) 1.6722(3) 1.1256(5)
H4 H 2.2567 1.6632 1.2187
C7 C 2.2065(7) 1.7355(3) 1.0797(5)
H5 H 2.2276 1.7705 1.1424
C8 C 2.1593(6) 1.7489(3) 0.9357(4)
C9 C 2.1511(7) 1.8146(3) 0.8802(5)
H6 H 2.1782 1.8507 0.9385
C10 C 2.1039(5) 1.82487(19) 0.7427(9)
H7 H 2.0993 1.8681 0.7070
C11 C 2.0609(7) 1.7703(2) 0.6515(4)
C12 C 2.0072(6) 1.7800(3) 0.5081(5)
H8 H 2.0019 1.8225 0.4682
C13 C 1.9637(7) 1.7253(3) 0.4312(5)
H9 H 1.9270 1.7303 0.3370
C14 C 1.9730(6) 1.6610(3) 0.4909(4)
H10 H 1.9431 1.6245 0.4349
C15 C 2.0666(6) 1.7047(2) 0.7037(4)
C16 C 2.1221(6) 1.6936(3) 0.8487(4)
Cd1A Cd 1.93503(4) 1.451797(14) 0.23456(4)
O2A O 1.7988(4) 1.51851(15) 0.8019(2)
loop_
_geom_bond_atom_site_label_1
_geom_bond_atom_site_label_2
_geom_bond_site_symmetry_1
_geom_bond_site_symmetry_2
Cd1 O1 1_555 1_555
O1 C1 1_555 1_555
O2 C1 1_555 1_555
O3 C4 1_555 1_555
O4 Cd1 1_555 1_555
O5 Cd1 1_555 1_555
N1 Cd1 1_555 1_555
N2 Cd1 1_555 1_555
C1 C2 1_555 1_555
C2 O5 1_555 1_555
H1 C2 1_555 1_555
C3 O5 1_555 1_555
H2 C3 1_555 1_555
C4 O4 1_555 1_555
C5 N1 1_555 1_555
H3 C5 1_555 1_555
C6 C5 1_555 1_555
H4 C6 1_555 1_555
C7 C6 1_555 1_555
H5 C7 1_555 1_555
C8 C7 1_555 1_555
C9 C8 1_555 1_555
H6 C9 1_555 1_555
C10 C9 1_555 1_555
H7 C10 1_555 1_555
C11 C10 1_555 1_555
C12 C11 1_555 1_555
H8 C12 1_555 1_555
C13 C12 1_555 1_555
H9 C13 1_555 1_555
C14 N2 1_555 1_555
H10 C14 1_555 1_555
C15 N2 1_555 1_555
C16 N1 1_555 1_555
Cd1A O2 1_555 1_555
O2A Cd1 1_555 1_555
C2 C3 1_555 1_555
C3 C4 1_555 1_555
C8 C16 1_555 1_555
C11 C15 1_555 1_555
C13 C14 1_555 1_555
C15 C16 1_555 1_555

#END
