
#######################################################################
#
#                 Cambridge Crystallographic Data Centre
#                                CCDC 
#
#######################################################################
#
# If this CIF has been generated from an entry in the Cambridge 
# Structural Database, then it will include bibliographic, chemical, 
# crystal, experimental, refinement or atomic coordinate data resulting 
# from the CCDC's data processing and validation procedures.
#
#######################################################################

data_ISIRUY
_symmetry_cell_setting           triclinic
_symmetry_space_group_name_H-M   'P -1'
_symmetry_Int_Tables_number      2
_space_group_name_Hall           '-P 1'
loop_
_symmetry_equiv_pos_site_id
_symmetry_equiv_pos_as_xyz
1 x,y,z
2 -x,-y,-z
_cell_length_a                   7.9410(5)
_cell_length_b                   10.9236(8)
_cell_length_c                   11.0017(6)
_cell_angle_alpha                117.391(6)
_cell_angle_beta                 93.780(6)
_cell_angle_gamma                110.129(5)
_cell_volume                     766.263
loop_
_atom_site_label
_atom_site_type_symbol
_atom_site_fract_x
_atom_site_fract_y
_atom_site_fract_z
Pb1 Pb 0.72711(2) 0.373118(19) 0.379880(17)
O1 O 0.4267(7) 0.2386(5) 0.4980(5)
O2 O 0.2326(6) 0.3403(5) 0.5543(5)
O3 O 0.5252(6) 0.4798(5) 0.6229(5)
N1 N 0.3941(6) 0.3511(5) 0.5583(4)
N2 N 0.7119(5) 0.2287(4) 0.1065(4)
N3 N 0.7619(5) 0.1152(4) 0.2800(4)
N4 N 1.0447(5) 0.4869(5) 0.3756(4)
N5 N 1.1301(7) 0.4950(6) 0.1783(5)
N6 N 1.0887(5) 0.4903(4) 0.2743(4)
C1 C 0.7823(7) -0.0976(5) 0.0807(5)
C2 C 0.8080(8) -0.1530(6) 0.1700(6)
H1 H 0.8269 -0.2412 0.1346
C3 C 0.7359(6) 0.0981(5) 0.0511(5)
C4 C 0.7604(6) 0.0389(5) 0.1409(5)
C5 C 0.6936(8) 0.2104(6) -0.1202(5)
H2 H 0.6803 0.2516 -0.1758
C6 C 0.7819(7) -0.1751(6) -0.0641(6)
H3 H 0.7951 -0.2659 -0.1016
C7 C 0.6721(9) 0.4315(6) 0.0869(6)
H4 H 0.6753 0.4680 0.1851
H5 H 0.5553 0.4148 0.0366
H6 H 0.7721 0.5056 0.0793
C8 C 0.7817(7) 0.0579(5) 0.3616(5)
C9 C 0.7759(9) 0.1393(7) 0.5132(6)
H7 H 0.7598 0.2294 0.5337
H8 H 0.8904 0.1670 0.5750
H9 H 0.6737 0.0737 0.5278
C10 C 0.7138(7) 0.0780(6) -0.1773(5)
H10 H 0.7128 0.0278 -0.2725
C11 C 0.8052(8) -0.0775(6) 0.3081(6)
H11 H 0.8187 -0.1154 0.3667
C12 C 0.7362(6) 0.0172(5) -0.0927(5)
C13 C 0.6930(6) 0.2851(5) 0.0238(5)
C14 C 0.7628(8) -0.1203(5) -0.1472(5)
H12 H 0.7667 -0.1711 -0.2411
Pb1A Pb 0.27289(2) 0.626882(19) 0.620120(17)
Pb1A_2 Pb 1.27289(2) 0.626882(19) 0.620120(17)
O2A O 0.7674(6) 0.6597(5) 0.4457(5)
O3A O 0.4748(6) 0.5202(5) 0.3771(5)
N4A N 0.9553(5) 0.5131(5) 0.6244(4)
loop_
_geom_bond_atom_site_label_1
_geom_bond_atom_site_label_2
_geom_bond_site_symmetry_1
_geom_bond_site_symmetry_2
Pb1 O1 1_555 1_555
O1 N1 1_555 1_555
O2 N1 1_555 1_555
O3 N1 1_555 1_555
N2 Pb1 1_555 1_555
N3 Pb1 1_555 1_555
N4 Pb1 1_555 1_555
N5 N6 1_555 1_555
N6 N4 1_555 1_555
C1 C2 1_555 1_555
C2 H1 1_555 1_555
C3 N2 1_555 1_555
C4 N3 1_555 1_555
C5 H2 1_555 1_555
C6 C1 1_555 1_555
H3 C6 1_555 1_555
C7 H4 1_555 1_555
H5 C7 1_555 1_555
H6 C7 1_555 1_555
C8 N3 1_555 1_555
C9 C8 1_555 1_555
H7 C9 1_555 1_555
H8 C9 1_555 1_555
H9 C9 1_555 1_555
C10 C5 1_555 1_555
H10 C10 1_555 1_555
C11 C2 1_555 1_555
H11 C11 1_555 1_555
C12 C3 1_555 1_555
C13 N2 1_555 1_555
C14 C6 1_555 1_555
H12 C14 1_555 1_555
Pb1A O2 1_555 1_555
Pb1A_2 N4 1_555 1_555
O2A Pb1 1_555 1_555
O3A Pb1 1_555 1_555
N4A Pb1 1_555 1_555
O3 Pb1A 1_555 1_555
C1 C4 1_555 1_555
C3 C4 1_555 1_555
C5 C13 1_555 1_555
C7 C13 1_555 1_555
C8 C11 1_555 1_555
C10 C12 1_555 1_555
C12 C14 1_555 1_555
Pb1A_2 N4A 1_555 1_555

#END
