
#######################################################################
#
#                 Cambridge Crystallographic Data Centre
#                                CCDC 
#
#######################################################################
#
# If this CIF has been generated from an entry in the Cambridge 
# Structural Database, then it will include bibliographic, chemical, 
# crystal, experimental, refinement or atomic coordinate data resulting 
# from the CCDC's data processing and validation procedures.
#
#######################################################################

data_ISIREI
_symmetry_cell_setting           monoclinic
_symmetry_space_group_name_H-M   'C 2/m'
_symmetry_Int_Tables_number      12
_space_group_name_Hall           '-C 2y'
loop_
_symmetry_equiv_pos_site_id
_symmetry_equiv_pos_as_xyz
1 x,y,z
2 -x,y,-z
3 1/2+x,1/2+y,z
4 1/2-x,1/2+y,-z
5 -x,-y,-z
6 x,-y,z
7 1/2-x,1/2-y,-z
8 1/2+x,1/2-y,z
_cell_length_a                   13.693(5)
_cell_length_b                   6.889(3)
_cell_length_c                   9.0885(3)
_cell_angle_alpha                90
_cell_angle_beta                 116.729(15)
_cell_angle_gamma                90
_cell_volume                     765.717
loop_
_atom_site_label
_atom_site_type_symbol
_atom_site_fract_x
_atom_site_fract_y
_atom_site_fract_z
Tb1 Tb 0.24455(2) 0.0000 0.26493(4)
Ag1 Ag 0.08430(5) 0.0000 -0.32518(8)
S1 S 0.32879(13) 0.0000 0.70452(19)
O1 O 0.1184(4) 0.0000 -0.0254(6)
O2 O -0.0564(4) 0.0000 -0.2153(6)
O3 O 0.4109(3) 0.1918(5) 0.4119(4)
O4 O 0.2585(4) 0.0000 0.5253(6)
O5 O 0.3000(3) 0.1710(5) 0.7756(4)
O6 O 0.4424(4) 0.0000 0.7446(8)
C1 C 0.0180(6) 0.0000 -0.0698(8)
C2 C 0.5000 0.1115(9) 0.5000
O7 O 0.3358(5) 0.0000 0.1017(7)
H1 H 0.3205 0.0000 0.0058
H2 H 0.4048 0.0000 0.1552
Tb1A Tb -0.24455(2) 0.0000 -0.26493(4)
Tb1C Tb 0.25545(2) 0.5000 0.73507(4)
Tb1C_2 Tb 0.25545(2) -0.5000 0.73507(4)
Tb1A_2 Tb 0.75545(2) 0.0000 0.73507(4)
Tb1_2 Tb 0.24455(2) -1.0000 0.26493(4)
Ag1A Ag -0.08430(5) 0.0000 0.32518(8)
Ag1C Ag 0.41570(5) 0.5000 0.32518(8)
Ag1B Ag 0.58430(5) 0.5000 0.67482(8)
Ag1B_2 Ag 0.58430(5) -0.5000 0.67482(8)
Ag1C_2 Ag 0.41570(5) -0.5000 0.32518(8)
S1C S 0.17121(13) -0.5000 0.29548(19)
O1A O -0.1184(4) 0.0000 0.0254(6)
O2A O 0.0564(4) 0.0000 0.2153(6)
O3A O 0.5891(3) 0.1918(5) 0.5881(4)
O3D O 0.5891(3) -0.1918(5) 0.5881(4)
O3E O 0.4109(3) -0.1918(5) 0.4119(4)
O3C O 0.0891(3) -0.3082(5) -0.4119(4)
O3F O 0.0891(3) 0.3082(5) -0.4119(4)
O3A_2 O -0.4109(3) 0.1918(5) -0.4119(4)
O3D_2 O -0.4109(3) -0.1918(5) -0.4119(4)
O3B O -0.0891(3) -0.3082(5) 0.4119(4)
O3G O -0.0891(3) 0.3082(5) 0.4119(4)
O4C O 0.2415(4) -0.5000 0.4747(6)
O4A O -0.2585(4) 0.0000 -0.5253(6)
O5E O 0.3000(3) -0.1710(5) 0.7756(4)
O5C O 0.2000(3) -0.3290(5) 0.2244(4)
O5F O 0.2000(3) -0.6710(5) 0.2244(4)
O5F_2 O 0.2000(3) 0.3290(5) 0.2244(4)
O5B O -0.2000(3) -0.3290(5) -0.2244(4)
O5G O -0.2000(3) 0.3290(5) -0.2244(4)
O6C O 0.0576(4) -0.5000 0.2554(8)
C1A C -0.0180(6) 0.0000 0.0698(8)
C2D C 0.5000 -0.1115(9) 0.5000
O7A O -0.3358(5) 0.0000 -0.1017(7)
H1A H -0.3205 0.0000 -0.0058
H2A H -0.4048 0.0000 -0.1552
loop_
_geom_bond_atom_site_label_1
_geom_bond_atom_site_label_2
_geom_bond_site_symmetry_1
_geom_bond_site_symmetry_2
Tb1 O1 1_555 1_555
Ag1 O1 1_555 1_555
S1 O4 1_555 1_555
O1 C1 1_555 1_555
O2 Ag1 1_555 1_555
O3 Tb1 1_555 1_555
O4 Tb1 1_555 1_555
O5 S1 1_555 1_555
O6 S1 1_555 1_555
C1 O2 1_555 1_555
C2 O3 1_555 1_555
O7 Tb1 1_555 1_555
H1 O7 1_555 1_555
H2 O7 1_555 1_555
Tb1A O2 1_555 1_555
Tb1C O5 1_555 1_555
Tb1C_2 O4C 1_555 1_555
Tb1A_2 O3A 1_555 1_555
Tb1_2 O5F 1_555 1_555
Ag1A O1A 1_555 1_555
Ag1C O3 1_555 1_555
Ag1B O3A 1_555 1_555
Ag1B_2 O3D 1_555 1_555
Ag1C_2 O3E 1_555 1_555
S1C O4C 1_555 1_555
O1A Tb1A 1_555 1_555
O2A Tb1 1_555 1_555
O3A C2 1_555 1_555
O3D Tb1A_2 1_555 1_555
O3E Tb1 1_555 1_555
O3C Ag1 1_555 1_555
O3F Ag1 1_555 1_555
O3A_2 Tb1A 1_555 1_555
O3D_2 Tb1A 1_555 1_555
O3B Ag1A 1_555 1_555
O3G Ag1A 1_555 1_555
O4A Tb1A 1_555 1_555
O5E S1 1_555 1_555
O5C Tb1 1_555 1_555
O5F S1C 1_555 1_555
O5F_2 Tb1 1_555 1_555
O5B Tb1A 1_555 1_555
O5G Tb1A 1_555 1_555
O6C S1C 1_555 1_555
C1A C1 1_555 1_555
C2D C2 1_555 1_555
O7A Tb1A 1_555 1_555
H1A O7A 1_555 1_555
H2A O7A 1_555 1_555
Tb1C_2 O5E 1_555 1_555
Ag1A O2A 1_555 1_555
S1C O5C 1_555 1_555
O1A C1A 1_555 1_555
O2A C1A 1_555 1_555
O3D C2D 1_555 1_555
O3E C2D 1_555 1_555

#END
