
#######################################################################
#
#                 Cambridge Crystallographic Data Centre
#                                CCDC 
#
#######################################################################
#
# If this CIF has been generated from an entry in the Cambridge 
# Structural Database, then it will include bibliographic, chemical, 
# crystal, experimental, refinement or atomic coordinate data resulting 
# from the CCDC's data processing and validation procedures.
#
#######################################################################

data_ISITUZ01
_symmetry_cell_setting           monoclinic
_symmetry_space_group_name_H-M   'P 21/n'
_symmetry_Int_Tables_number      14
_space_group_name_Hall           '-P 2yn'
loop_
_symmetry_equiv_pos_site_id
_symmetry_equiv_pos_as_xyz
1 x,y,z
2 1/2-x,1/2+y,1/2-z
3 -x,-y,-z
4 1/2+x,1/2-y,1/2+z
_cell_length_a                   6.21598(32)
_cell_length_b                   7.4876(4)
_cell_length_c                   7.7021(5)
_cell_angle_alpha                90
_cell_angle_beta                 91.7841(34)
_cell_angle_gamma                90
_cell_volume                     358.303
loop_
_atom_site_label
_atom_site_type_symbol
_atom_site_fract_x
_atom_site_fract_y
_atom_site_fract_z
Cd1 Cd 0.0000 0.0000 0.0000
C1 C 0.2393(31) 0.3652(19) 0.1278(21)
C2 C 0.2256(28) 0.3569(21) -0.1685(21)
N1 N 0.1474(20) 0.3022(14) -0.0174(20)
N2 N 0.2823(17) 0.4118(14) 0.2748(15)
N3 N 0.2907(20) 0.3915(15) -0.2905(16)
C1B C -0.2393(31) -0.3652(19) -0.1278(21)
C2B C -0.2256(28) -0.3569(21) 0.1685(21)
N1B N -0.1474(20) -0.3022(14) 0.0174(20)
N2B N -0.2823(17) -0.4118(14) -0.2748(15)
N3B N -0.2907(20) -0.3915(15) 0.2905(16)
N2C N -0.2177(17) 0.0882(14) -0.2252(15)
N2A N 0.2177(17) -0.0882(14) 0.2252(15)
N3C N -0.2093(20) 0.1085(15) 0.2095(16)
N3A N 0.2093(20) -0.1085(15) -0.2095(16)
Cd1C Cd 0.5000 0.5000 0.5000
Cd1C_2 Cd 0.5000 0.5000 -0.5000
Cd1C_3 Cd -0.5000 -0.5000 -0.5000
Cd1C_4 Cd -0.5000 -0.5000 0.5000
loop_
_geom_bond_atom_site_label_1
_geom_bond_atom_site_label_2
_geom_bond_site_symmetry_1
_geom_bond_site_symmetry_2
Cd1 N1 1_555 1_555
C1 N1 1_555 1_555
C2 N1 1_555 1_555
N2 C1 1_555 1_555
N3 C2 1_555 1_555
C1B N1B 1_555 1_555
C2B N1B 1_555 1_555
N1B Cd1 1_555 1_555
N2B C1B 1_555 1_555
N3B C2B 1_555 1_555
N2C Cd1 1_555 1_555
N2A Cd1 1_555 1_555
N3C Cd1 1_555 1_555
N3A Cd1 1_555 1_555
Cd1C N2 1_555 1_555
Cd1C_2 N3 1_555 1_555
Cd1C_3 N2B 1_555 1_555
Cd1C_4 N3B 1_555 1_555

#END
