
#######################################################################
#
#                 Cambridge Crystallographic Data Centre
#                                CCDC 
#
#######################################################################
#
# If this CIF has been generated from an entry in the Cambridge 
# Structural Database, then it will include bibliographic, chemical, 
# crystal, experimental, refinement or atomic coordinate data resulting 
# from the CCDC's data processing and validation procedures.
#
#######################################################################

data_ISITUZ
_symmetry_cell_setting           orthorhombic
_symmetry_space_group_name_H-M   'P n n m'
_symmetry_Int_Tables_number      58
_space_group_name_Hall           '-P 2 2n'
loop_
_symmetry_equiv_pos_site_id
_symmetry_equiv_pos_as_xyz
1 x,y,z
2 1/2+x,1/2-y,1/2-z
3 1/2-x,1/2+y,1/2-z
4 -x,-y,z
5 -x,-y,-z
6 1/2-x,1/2+y,1/2+z
7 1/2+x,1/2-y,1/2+z
8 x,y,-z
_cell_length_a                   6.2462(5)
_cell_length_b                   7.5292(6)
_cell_length_c                   7.6830(7)
_cell_angle_alpha                90
_cell_angle_beta                 90
_cell_angle_gamma                90
_cell_volume                     361.323
loop_
_atom_site_label
_atom_site_type_symbol
_atom_site_fract_x
_atom_site_fract_y
_atom_site_fract_z
Cd1 Cd 0.0000 0.0000 0.0000
C1 C -0.2676(35) -0.3616(21) -0.1378(21)
N1 N -0.2866(17) -0.3903(15) -0.2876(14)
N2 N -0.1895(33) -0.2997(25) 0.0000
N1B N -0.2134(17) 0.1097(15) -0.2124(14)
N1A N 0.2134(17) -0.1097(15) -0.2124(14)
N1F N 0.2134(17) -0.1097(15) 0.2124(14)
N2C N 0.1895(33) 0.2997(25) 0.0000
C1G C -0.2676(35) -0.3616(21) 0.1378(21)
C1C C 0.2676(35) 0.3616(21) -0.1378(21)
C1D C 0.2676(35) 0.3616(21) 0.1378(21)
N1E N -0.2134(17) 0.1097(15) 0.2124(14)
N1G N -0.2866(17) -0.3903(15) 0.2876(14)
N1C N 0.2866(17) 0.3903(15) -0.2876(14)
N1D N 0.2866(17) 0.3903(15) 0.2876(14)
Cd1E Cd -0.5000 -0.5000 -0.5000
Cd1E_2 Cd -0.5000 -0.5000 0.5000
Cd1E_3 Cd 0.5000 0.5000 -0.5000
Cd1E_4 Cd 0.5000 0.5000 0.5000
loop_
_geom_bond_atom_site_label_1
_geom_bond_atom_site_label_2
_geom_bond_site_symmetry_1
_geom_bond_site_symmetry_2
Cd1 N2 1_555 1_555
C1 N1 1_555 1_555
N1 Cd1E 1_555 1_555
N2 C1 1_555 1_555
N1B Cd1 1_555 1_555
N1A Cd1 1_555 1_555
N1F Cd1 1_555 1_555
N2C Cd1 1_555 1_555
C1G N2 1_555 1_555
C1C N2C 1_555 1_555
C1D N2C 1_555 1_555
N1E Cd1 1_555 1_555
N1G C1G 1_555 1_555
N1C C1C 1_555 1_555
N1D C1D 1_555 1_555
Cd1E_2 N1G 1_555 1_555
Cd1E_3 N1C 1_555 1_555
Cd1E_4 N1D 1_555 1_555

#END
