
#######################################################################
#
#                 Cambridge Crystallographic Data Centre
#                                CCDC 
#
#######################################################################
#
# If this CIF has been generated from an entry in the Cambridge 
# Structural Database, then it will include bibliographic, chemical, 
# crystal, experimental, refinement or atomic coordinate data resulting 
# from the CCDC's data processing and validation procedures.
#
#######################################################################

data_ISITUA
_symmetry_cell_setting           triclinic
_symmetry_space_group_name_H-M   'P -1'
_symmetry_Int_Tables_number      2
_space_group_name_Hall           '-P 1'
loop_
_symmetry_equiv_pos_site_id
_symmetry_equiv_pos_as_xyz
1 x,y,z
2 -x,-y,-z
_cell_length_a                   7.6537(8)
_cell_length_b                   8.3467(9)
_cell_length_c                   15.1008(16)
_cell_angle_alpha                96.4400(10)
_cell_angle_beta                 103.9040(10)
_cell_angle_gamma                102.3680(10)
_cell_volume                     900.965
loop_
_atom_site_label
_atom_site_type_symbol
_atom_site_fract_x
_atom_site_fract_y
_atom_site_fract_z
Ag1 Ag 1.51876(3) 0.64628(2) 0.943580(13)
N1 N 1.3530(3) 0.4680(2) 0.81487(13)
N2 N 1.2794(3) 0.2958(3) 0.67951(14)
N3 N 1.1430(2) 0.2623(2) 0.72302(13)
N4 N -0.1628(2) 0.1243(2) 0.11464(13)
N5 N -0.2638(3) 0.0661(3) 0.17206(14)
N6 N -0.3483(3) -0.1106(2) 0.03721(13)
N7 N 1.7413(3) 0.4665(3) 0.98086(16)
N8 N 1.7761(3) 0.3724(3) 0.92715(15)
N9 N 1.8116(4) 0.2780(4) 0.87587(19)
C1 C 1.4021(3) 0.4200(3) 0.73799(17)
H1 H 1.5140 0.4709 0.7274
C2 C 1.1892(3) 0.3641(3) 0.80303(15)
H2 H 1.1173 0.3630 0.8448
C3 C 0.9751(3) 0.1274(3) 0.68126(17)
H3 H 1.0068 0.0324 0.6579
H4 H 0.9161 0.1071 0.7323
C4 C 0.8393(3) 0.1707(3) 0.60270(16)
C5 C 0.8759(3) 0.1851(4) 0.51793(18)
H5 H 0.9900 0.1749 0.5098
C6 C 0.7439(3) 0.2146(4) 0.44514(17)
H6 H 0.7709 0.2250 0.3889
C7 C 0.5714(3) 0.2287(3) 0.45513(15)
C8 C 0.5384(3) 0.2176(3) 0.54091(16)
H7 H 0.4252 0.2289 0.5496
C9 C 0.6707(3) 0.1901(3) 0.61343(16)
H8 H 0.6458 0.1845 0.6705
C10 C 0.4235(3) 0.2478(3) 0.37588(15)
C11 C 0.4102(3) 0.1766(3) 0.28581(16)
H9 H 0.4975 0.1200 0.2752
C12 C 0.2695(3) 0.1888(3) 0.21216(16)
H10 H 0.2634 0.1401 0.1526
C13 C 0.1370(3) 0.2723(3) 0.22538(16)
C14 C 0.1510(3) 0.3460(3) 0.31457(17)
H11 H 0.0650 0.4045 0.3247
C15 C 0.2912(3) 0.3335(3) 0.38864(16)
H12 H 0.2974 0.3831 0.4480
C16 C -0.0187(3) 0.2812(3) 0.14391(18)
H13 H -0.0735 0.3705 0.1610
H14 H 0.0318 0.3066 0.0925
C17 C -0.2159(3) 0.0192(3) 0.03559(16)
H15 H -0.1670 0.0343 -0.0145
C18 C -0.3724(3) -0.0744(3) 0.12210(17)
H16 H -0.4593 -0.1439 0.1436
Ag1A Ag 1.48124(3) 0.35372(2) 1.056420(13)
Ag1_2 Ag -0.48124(3) -0.35372(2) -0.056420(13)
N6_2 N 1.6517(3) 0.8894(2) 1.03721(13)
N7A N 1.2587(3) 0.5335(3) 1.01914(16)
loop_
_geom_bond_atom_site_label_1
_geom_bond_atom_site_label_2
_geom_bond_site_symmetry_1
_geom_bond_site_symmetry_2
Ag1 N1 1_555 1_555
N1 C1 1_555 1_555
N2 N3 1_555 1_555
N3 C2 1_555 1_555
N4 N5 1_555 1_555
N5 C18 1_555 1_555
N6 C17 1_555 1_555
N7 Ag1 1_555 1_555
N8 N7 1_555 1_555
N9 N8 1_555 1_555
C1 N2 1_555 1_555
H1 C1 1_555 1_555
C2 N1 1_555 1_555
H2 C2 1_555 1_555
C3 N3 1_555 1_555
H3 C3 1_555 1_555
H4 C3 1_555 1_555
C4 C3 1_555 1_555
C5 C4 1_555 1_555
H5 C5 1_555 1_555
C6 C5 1_555 1_555
H6 C6 1_555 1_555
C7 C6 1_555 1_555
C8 C7 1_555 1_555
H7 C8 1_555 1_555
C9 C4 1_555 1_555
H8 C9 1_555 1_555
C10 C7 1_555 1_555
C11 C10 1_555 1_555
H9 C11 1_555 1_555
C12 C11 1_555 1_555
H10 C12 1_555 1_555
C13 C12 1_555 1_555
C14 C13 1_555 1_555
H11 C14 1_555 1_555
C15 C10 1_555 1_555
H12 C15 1_555 1_555
C16 N4 1_555 1_555
H13 C16 1_555 1_555
H14 C16 1_555 1_555
C17 N4 1_555 1_555
H15 C17 1_555 1_555
C18 N6 1_555 1_555
H16 C18 1_555 1_555
Ag1A Ag1 1_555 1_555
Ag1_2 N6 1_555 1_555
N6_2 Ag1 1_555 1_555
N7A Ag1 1_555 1_555
N7 Ag1A 1_555 1_555
C8 C9 1_555 1_555
C13 C16 1_555 1_555
C14 C15 1_555 1_555
Ag1A N7A 1_555 1_555

#END
