
#######################################################################
#
#                 Cambridge Crystallographic Data Centre
#                                CCDC 
#
#######################################################################
#
# If this CIF has been generated from an entry in the Cambridge 
# Structural Database, then it will include bibliographic, chemical, 
# crystal, experimental, refinement or atomic coordinate data resulting 
# from the CCDC's data processing and validation procedures.
#
#######################################################################

data_ISIWUD
_symmetry_cell_setting           triclinic
_symmetry_space_group_name_H-M   'P -1'
_symmetry_Int_Tables_number      2
_space_group_name_Hall           '-P 1'
loop_
_symmetry_equiv_pos_site_id
_symmetry_equiv_pos_as_xyz
1 x,y,z
2 -x,-y,-z
_cell_length_a                   11.900(2)
_cell_length_b                   15.167(3)
_cell_length_c                   21.059(4)
_cell_angle_alpha                100.61(3)
_cell_angle_beta                 90.83(3)
_cell_angle_gamma                102.67(3)
_cell_volume                     3638.96
loop_
_atom_site_label
_atom_site_type_symbol
_atom_site_fract_x
_atom_site_fract_y
_atom_site_fract_z
Mo1 Mo 0.64888(10) 0.49357(7) 0.18545(6)
Mo2 Mo 0.81013(9) 0.34011(8) 0.36124(5)
Mo3 Mo 0.92040(9) 0.51512(7) 0.28069(5)
Mo4 Mo 0.87085(10) 0.09693(7) 0.19528(5)
Mo5 Mo 0.91109(9) 0.46438(7) 0.10247(5)
Mo6 Mo 0.48986(9) 0.27768(7) 0.11817(5)
Mo7 Mo 0.53163(9) 0.34148(8) 0.28270(5)
Mo8 Mo 0.61818(9) 0.07636(7) 0.10701(5)
Mo9 Mo 1.04237(9) 0.32843(8) 0.26829(5)
Mo10 Mo 0.73760(9) 0.26218(6) 0.01903(4)
Mo11 Mo 0.62553(9) 0.12330(7) 0.27243(5)
Mo12 Mo 0.99571(8) 0.26021(7) 0.09133(5)
P1 P 0.7666(2) 0.29797(19) 0.19065(13)
O1 O 0.5631(7) 0.0541(6) 0.1928(4)
O2 O 1.0543(7) 0.3166(6) 0.1808(4)
O3 O 0.5418(7) 0.2112(6) 0.2751(4)
O4 O 0.7792(8) 0.5254(6) 0.2522(4)
O5 O 0.7452(8) 0.0337(6) 0.1272(4)
O6 O 0.9427(9) 0.0132(6) 0.1941(5)
O7 O 0.7393(7) 0.2187(6) 0.3327(4)
O8 O 0.6176(9) 0.5958(6) 0.1870(5)
O9 O 0.9633(7) 0.1973(6) 0.2487(4)
O10 O 0.9662(8) 0.5560(6) 0.0693(4)
O11 O 0.5131(7) 0.1619(5) 0.1167(4)
O12 O 1.0509(7) 0.4542(6) 0.2863(4)
O13 O 0.8263(6) 0.3135(5) 0.1291(4)
O14 O 0.5625(9) 0.0589(7) 0.3224(5)
O15 O 0.9591(7) 0.3252(6) 0.3504(4)
O16 O 0.5360(8) -0.0188(6) 0.0621(4)
O17 O 0.8721(8) 0.4711(6) 0.3546(4)
O18 O 0.5309(7) 0.4150(6) 0.1314(4)
O19 O 0.7601(7) 0.4883(6) 0.1270(4)
O20 O 0.9882(8) 0.6242(6) 0.3110(4)
O21 O 0.6576(6) 0.3354(5) 0.1935(4)
O22 O 0.6073(7) 0.2891(5) 0.0543(4)
O23 O 0.8019(8) 0.3536(7) 0.4421(4)
O24 O 0.3693(7) 0.2574(7) 0.0714(4)
O25 O 0.4267(7) 0.3464(7) 0.3341(5)
O26 O 0.6896(7) 0.1429(5) 0.0487(4)
O27 O 0.8486(7) 0.3478(5) 0.2494(4)
O28 O 0.7627(7) 0.0693(6) 0.2552(4)
O29 O 0.9553(7) 0.5014(5) 0.1886(4)
O30 O 0.5578(7) 0.4571(6) 0.2583(4)
O31 O 1.0154(6) 0.3908(5) 0.0835(4)
O32 O 0.7342(6) 0.1952(5) 0.1907(3)
O33 O 0.6999(8) 0.2300(6) -0.0604(3)
O34 O 0.9372(7) 0.1574(5) 0.1240(3)
O35 O 1.1168(7) 0.2419(6) 0.0586(4)
O36 O 0.8906(6) 0.2308(5) 0.0205(4)
O37 O 0.4350(7) 0.2929(6) 0.2012(4)
O38 O 0.8137(7) 0.3840(5) 0.0258(4)
O39 O 1.1733(7) 0.3243(7) 0.2950(4)
O40 O 0.6634(7) 0.3689(6) 0.3359(4)
N4 N 0.518(4) 0.821(3) 0.2416(14)
C31 C 0.546(3) 0.821(2) 0.1921(14)
C32 C 0.593(3) 0.817(2) 0.1316(13)
H35 H 0.6758 0.8178 0.1364
H36 H 0.5833 0.8693 0.1132
H37 H 0.5541 0.7593 0.1028
N5 N 0.048(2) 0.7818(18) 0.1945(12)
C33 C -0.0243(18) 0.7620(15) 0.1582(11)
C34 C -0.123(2) 0.7319(18) 0.1162(13)
H38 H -0.1026 0.7434 0.0731
H39 H -0.1814 0.7653 0.1323
H40 H -0.1526 0.6658 0.1139
N6 N 0.258(2) 1.015(2) 0.6085(13)
C35 C 0.172(3) 1.008(3) 0.628(2)
C36 C 0.065(3) 1.015(3) 0.6544(16)
O52 O 0.511(3) 0.775(2) 0.5631(15)
O53 O 0.781(4) 0.739(3) 0.3570(19)
O54 O 0.636(4) 0.820(3) 0.459(2)
Dy1 Dy 0.26628(6) 0.86565(5) 0.40414(3)
O41 O 0.3735(13) 0.9441(10) 0.5026(7)
H1 H 0.4271 0.9211 0.5148
H2 H 0.3374 0.9604 0.5357
O42 O 0.4626(9) 0.8839(8) 0.3798(6)
H3 H 0.4997 0.9037 0.3492
H4 H 0.5073 0.8617 0.4010
O43 O 0.0908(10) 0.8352(8) 0.3396(6)
H5 H 0.0579 0.7814 0.3197
H6 H 0.0522 0.8724 0.3300
O44 O 0.3351(10) 0.7571(8) 0.4543(5)
H7 H 0.2997 0.7316 0.4833
H8 H 0.3420 0.7147 0.4230
O45 O 0.1884(11) 0.9944(7) 0.4487(5)
H9 H 0.1260 1.0011 0.4660
H10 H 0.2088 1.0372 0.4274
O46 O 0.1269(10) 0.8113(9) 0.4663(7)
O47 O 0.0165(14) 0.9012(11) 0.5098(8)
O48 O 0.3046(10) 0.9670(8) 0.3360(5)
O49 O 0.2648(14) 1.1044(10) 0.3584(5)
O50 O 0.2619(8) 0.7398(6) 0.3199(4)
O51 O 0.3255(12) 0.6275(7) 0.3522(5)
C1 C 0.3931(9) 0.4845(8) 0.0259(6)
C2 C 0.2791(10) 0.6080(8) 0.2422(5)
C3 C 0.2834(13) 0.9674(9) 0.1408(7)
H11 H 0.2976 0.9169 0.1105
C4 C -0.3910(10) 0.5070(8) 0.5276(6)
C5 C 0.4668(10) 0.5684(8) 0.0407(6)
H12 H 0.4438 0.6173 0.0687
C6 C 0.3032(12) 0.4773(10) 0.1676(7)
H13 H 0.3240 0.4195 0.1592
C7 C 0.2279(11) 1.1104(9) 0.1616(6)
H14 H 0.2063 1.1601 0.1468
C8 C 0.2388(11) 1.1089(9) 0.2265(6)
H15 H 0.2208 1.1583 0.2564
C9 C 0.2374(12) 0.6438(9) 0.1910(7)
H16 H 0.2142 0.7007 0.1990
C10 C 0.2321(11) 0.5921(9) 0.1286(6)
H17 H 0.2033 0.6129 0.0931
C11 C 0.1126(11) 1.0164(8) 0.0260(6)
C12 C 0.2738(11) 1.0414(9) 0.2510(7)
C13 C -0.2014(10) 0.6816(9) 0.5681(6)
H18 H -0.2626 0.6899 0.5954
C14 C 0.2734(11) 0.4652(9) 0.0500(6)
H19 H 0.2209 0.4854 0.0216
H20 H 0.2459 0.3980 0.0469
C15 C 0.3088(11) 0.5260(10) 0.2296(6)
H21 H 0.3341 0.5016 0.2643
C16 C 0.2970(12) 0.9687(9) 0.2045(8)
H22 H 0.3227 0.9199 0.2185
C17 C 0.4260(11) 0.4159(9) -0.0161(6)
H23 H 0.3746 0.3573 -0.0282
C18 C -0.0338(12) 0.6555(9) 0.4870(6)
H24 H 0.0251 0.6448 0.4586
C19 C -0.0432(13) 0.7453(10) 0.5126(7)
C20 C 0.2896(11) 0.6638(9) 0.3114(6)
C21 C 0.2384(12) 1.0352(10) 0.0500(6)
H25 H 0.2745 0.9870 0.0263
H26 H 0.2799 1.0953 0.0409
C22 C -0.1080(11) 0.5859(9) 0.5030(6)
H27 H -0.1026 0.5249 0.4848
C23 C 0.0861(13) 1.0547(8) -0.0268(6)
H28 H 0.1460 1.0925 -0.0454
C24 C 0.0250(12) 0.9619(9) 0.0514(6)
H29 H 0.0414 0.9350 0.0868
C25 C 0.2831(14) 1.0374(12) 0.3212(7)
C26 C -0.4058(13) 0.5262(11) 0.4652(6)
H30 H -0.3406 0.5452 0.4414
C27 C -0.2718(12) 0.5166(9) 0.5602(7)
H31 H -0.2773 0.5247 0.6077
H32 H -0.2433 0.4602 0.5451
C28 C -0.1274(13) 0.7556(10) 0.5548(7)
H33 H -0.1337 0.8156 0.5748
C29 C -0.4864(11) 0.4827(10) 0.5604(7)
H34 H -0.4773 0.4715 0.6029
C30 C 0.038(2) 0.8260(15) 0.4954(11)
N1 N 0.2497(8) 1.0366(8) 0.1195(5)
N2 N -0.1901(9) 0.5980(7) 0.5438(5)
N3 N 0.2676(8) 0.5129(7) 0.1186(5)
Dy1A Dy -1.26628(6) 0.13435(5) 0.59586(3)
Dy1A_2 Dy -0.26628(6) 1.13435(5) -0.40414(3)
Dy1A_3 Dy 0.73372(6) 0.13435(5) -0.40414(3)
O41A O -1.3735(13) 0.0559(10) 0.4974(7)
H1A H -1.4271 0.0789 0.4852
H2A H -1.3374 0.0396 0.4643
O42A O -1.4626(9) 0.1161(8) 0.6202(6)
H3A H -1.4997 0.0963 0.6508
H4A H -1.5073 0.1383 0.5990
O43A O -1.0908(10) 0.1648(8) 0.6604(6)
H5A H -1.0579 0.2186 0.6803
H6A H -1.0522 0.1276 0.6700
O44A O -1.3351(10) 0.2429(8) 0.5457(5)
H7A H -1.2997 0.2684 0.5167
H8A H -1.3420 0.2853 0.5770
O45A O -1.1884(11) 0.0056(7) 0.5513(5)
H9A H -1.1260 -0.0011 0.5340
H10A H -1.2088 -0.0372 0.5726
O46A O -1.1269(10) 0.1887(9) 0.5337(7)
O47A O -1.0165(14) 0.0988(11) 0.4902(8)
O48A O -0.3046(10) 1.0330(8) -0.3360(5)
O48A_2 O -1.3046(10) 0.0330(8) 0.6640(5)
O49A O -0.2648(14) 0.8956(10) -0.3584(5)
O50A O 0.7381(8) 0.2602(6) -0.3199(4)
O50A_2 O -1.2619(8) 0.2602(6) 0.6801(4)
O51A O 0.6745(12) 0.3725(7) -0.3522(5)
C1A C 0.6069(9) 0.5155(8) -0.0259(6)
C2A C 0.7209(10) 0.3920(8) -0.2422(5)
C3A C -0.2834(13) 1.0326(9) -0.1408(7)
H11A H -0.2976 1.0831 -0.1105
C4A C -0.6090(10) 0.4930(8) 0.4724(6)
C5A C 0.5332(10) 0.4316(8) -0.0407(6)
H12A H 0.5562 0.3827 -0.0687
C6A C 0.6968(12) 0.5227(10) -0.1676(7)
H13A H 0.6760 0.5805 -0.1592
C7A C -0.2279(11) 0.8896(9) -0.1616(6)
H14A H -0.2063 0.8399 -0.1468
C8A C -0.2388(11) 0.8911(9) -0.2265(6)
H15A H -0.2208 0.8417 -0.2564
C9A C 0.7626(12) 0.3562(9) -0.1910(7)
H16A H 0.7858 0.2993 -0.1990
C10A C 0.7679(11) 0.4079(9) -0.1286(6)
H17A H 0.7967 0.3871 -0.0931
C11A C -0.1126(11) 0.9836(8) -0.0260(6)
C12A C -0.2738(11) 0.9586(9) -0.2510(7)
C13A C -0.7986(10) 0.3184(9) 0.4319(6)
H18A H -0.7374 0.3101 0.4046
C14A C 0.7266(11) 0.5348(9) -0.0500(6)
H19A H 0.7791 0.5146 -0.0216
H20A H 0.7541 0.6020 -0.0469
C15A C 0.6912(11) 0.4740(10) -0.2296(6)
H21A H 0.6659 0.4984 -0.2643
C16A C -0.2970(12) 1.0313(9) -0.2045(8)
H22A H -0.3227 1.0801 -0.2185
C17A C 0.5740(11) 0.5841(9) 0.0161(6)
H23A H 0.6254 0.6427 0.0282
C18A C -0.9662(12) 0.3445(9) 0.5130(6)
H24A H -1.0251 0.3552 0.5414
C19A C -0.9568(13) 0.2547(10) 0.4874(7)
C20A C 0.7104(11) 0.3362(9) -0.3114(6)
C21A C -0.2384(12) 0.9648(10) -0.0500(6)
H25A H -0.2745 1.0130 -0.0263
H26A H -0.2799 0.9047 -0.0409
C22A C -0.8920(11) 0.4141(9) 0.4970(6)
H27A H -0.8974 0.4751 0.5152
C23A C -0.0861(13) 0.9453(8) 0.0268(6)
H28A H -0.1460 0.9075 0.0454
C24A C -0.0250(12) 1.0381(9) -0.0514(6)
H29A H -0.0414 1.0650 -0.0868
C25A C -0.2831(14) 0.9626(12) -0.3212(7)
C26A C -0.5942(13) 0.4738(11) 0.5348(6)
H30A H -0.6594 0.4548 0.5586
C27A C -0.7282(12) 0.4834(9) 0.4398(7)
H31A H -0.7227 0.4753 0.3923
H32A H -0.7567 0.5398 0.4549
C28A C -0.8726(13) 0.2444(10) 0.4452(7)
H33A H -0.8663 0.1844 0.4252
C29A C -0.5136(11) 0.5173(10) 0.4396(7)
H34A H -0.5227 0.5285 0.3971
C30A C -1.038(2) 0.1740(15) 0.5046(11)
N1A N -0.2497(8) 0.9634(8) -0.1195(5)
N2A N -0.8099(9) 0.4020(7) 0.4562(5)
N3A N 0.7324(8) 0.4871(7) -0.1186(5)
O55? O 0.661(4) 0.696(3) 0.349(2)
loop_
_geom_bond_atom_site_label_1
_geom_bond_atom_site_label_2
_geom_bond_site_symmetry_1
_geom_bond_site_symmetry_2
Dy1 O41 1_555 1_555
Mo1 O4 1_555 1_555
Mo2 O7 1_555 1_555
Mo3 O4 1_555 1_555
Mo4 O5 1_555 1_555
Mo5 O10 1_555 1_555
Mo6 O11 1_555 1_555
Mo7 O3 1_555 1_555
Mo8 O1 1_555 1_555
Mo9 O2 1_555 1_555
Mo10 O13 1_555 1_555
Mo11 O1 1_555 1_555
Mo12 O2 1_555 1_555
P1 O13 1_555 1_555
O3 Mo11 1_555 1_555
O5 Mo8 1_555 1_555
O6 Mo4 1_555 1_555
O7 Mo11 1_555 1_555
O8 Mo1 1_555 1_555
O9 Mo4 1_555 1_555
O11 Mo8 1_555 1_555
O12 Mo3 1_555 1_555
O13 Mo5 1_555 1_555
O14 Mo11 1_555 1_555
O15 Mo2 1_555 1_555
O16 Mo8 1_555 1_555
O17 Mo2 1_555 1_555
O18 Mo1 1_555 1_555
O19 Mo1 1_555 1_555
O20 Mo3 1_555 1_555
O21 Mo1 1_555 1_555
O22 Mo6 1_555 1_555
O23 Mo2 1_555 1_555
O24 Mo6 1_555 1_555
O25 Mo7 1_555 1_555
O26 Mo8 1_555 1_555
O27 Mo2 1_555 1_555
O28 Mo4 1_555 1_555
O29 Mo3 1_555 1_555
O30 Mo1 1_555 1_555
O31 Mo5 1_555 1_555
O32 Mo4 1_555 1_555
O33 Mo10 1_555 1_555
O34 Mo4 1_555 1_555
O35 Mo12 1_555 1_555
O36 Mo10 1_555 1_555
O37 Mo6 1_555 1_555
O38 Mo5 1_555 1_555
O39 Mo9 1_555 1_555
O40 Mo2 1_555 1_555
O41 H1 1_555 1_555
H2 O41 1_555 1_555
O42 Dy1 1_555 1_555
H3 O42 1_555 1_555
H4 O42 1_555 1_555
O43 Dy1 1_555 1_555
H5 O43 1_555 1_555
H6 O43 1_555 1_555
O44 Dy1 1_555 1_555
H7 O44 1_555 1_555
H8 O44 1_555 1_555
O45 Dy1 1_555 1_555
H9 O45 1_555 1_555
H10 O45 1_555 1_555
O46 Dy1 1_555 1_555
O47 C30 1_555 1_555
O48 Dy1 1_555 1_555
O49 C25 1_555 1_555
O50 Dy1 1_555 1_555
O51 C20 1_555 1_555
C1 C5 1_555 1_555
C2 C9 1_555 1_555
C3 H11 1_555 1_555
C4 C26 1_555 1_555
C5 H12 1_555 1_555
C6 H13 1_555 1_555
C7 H14 1_555 1_555
C8 C7 1_555 1_555
H15 C8 1_555 1_555
C9 H16 1_555 1_555
C10 C9 1_555 1_555
H17 C10 1_555 1_555
C11 C21 1_555 1_555
C12 C8 1_555 1_555
C13 H18 1_555 1_555
C14 C1 1_555 1_555
H19 C14 1_555 1_555
H20 C14 1_555 1_555
C15 C2 1_555 1_555
H21 C15 1_555 1_555
C16 C3 1_555 1_555
H22 C16 1_555 1_555
C17 C1 1_555 1_555
H23 C17 1_555 1_555
C18 H24 1_555 1_555
C19 C18 1_555 1_555
C20 O50 1_555 1_555
C21 H25 1_555 1_555
H26 C21 1_555 1_555
C22 C18 1_555 1_555
H27 C22 1_555 1_555
C23 C11 1_555 1_555
H28 C23 1_555 1_555
C24 C11 1_555 1_555
H29 C24 1_555 1_555
C25 O48 1_555 1_555
C26 H30 1_555 1_555
C27 C4 1_555 1_555
H31 C27 1_555 1_555
H32 C27 1_555 1_555
C28 C13 1_555 1_555
H33 C28 1_555 1_555
C29 C4 1_555 1_555
H34 C29 1_555 1_555
C30 O46 1_555 1_555
N1 C3 1_555 1_555
N2 C13 1_555 1_555
N3 C6 1_555 1_555
N4 C31 1_555 1_555
C31 C32 1_555 1_555
C32 H35 1_555 1_555
H36 C32 1_555 1_555
H37 C32 1_555 1_555
N5 C33 1_555 1_555
C33 C34 1_555 1_555
C34 H38 1_555 1_555
H39 C34 1_555 1_555
H40 C34 1_555 1_555
N6 C35 1_555 1_555
C35 C36 1_555 1_555
Dy1A O41A 1_555 1_555
Dy1A_2 O48A 1_555 1_555
Dy1A_3 O50A 1_555 1_555
O41A H1A 1_555 1_555
H2A O41A 1_555 1_555
O42A Dy1A 1_555 1_555
H3A O42A 1_555 1_555
H4A O42A 1_555 1_555
O43A Dy1A 1_555 1_555
H5A O43A 1_555 1_555
H6A O43A 1_555 1_555
O44A Dy1A 1_555 1_555
H7A O44A 1_555 1_555
H8A O44A 1_555 1_555
O45A Dy1A 1_555 1_555
H9A O45A 1_555 1_555
H10A O45A 1_555 1_555
O46A Dy1A 1_555 1_555
O47A C30A 1_555 1_555
O48A C25A 1_555 1_555
O48A_2 Dy1A 1_555 1_555
O49A C25A 1_555 1_555
O50A C20A 1_555 1_555
O50A_2 Dy1A 1_555 1_555
O51A C20A 1_555 1_555
C1A C5A 1_555 1_555
C2A C9A 1_555 1_555
C3A H11A 1_555 1_555
C4A C26A 1_555 1_555
C5A C17 1_555 1_555
H12A C5A 1_555 1_555
C6A H13A 1_555 1_555
C7A H14A 1_555 1_555
C8A C7A 1_555 1_555
H15A C8A 1_555 1_555
C9A H16A 1_555 1_555
C10A C9A 1_555 1_555
H17A C10A 1_555 1_555
C11A C21A 1_555 1_555
C12A C8A 1_555 1_555
C13A H18A 1_555 1_555
C14A C1A 1_555 1_555
H19A C14A 1_555 1_555
H20A C14A 1_555 1_555
C15A C2A 1_555 1_555
H21A C15A 1_555 1_555
C16A C3A 1_555 1_555
H22A C16A 1_555 1_555
C17A C5 1_555 1_555
H23A C17A 1_555 1_555
C18A H24A 1_555 1_555
C19A C18A 1_555 1_555
C20A C2A 1_555 1_555
C21A H25A 1_555 1_555
H26A C21A 1_555 1_555
C22A C18A 1_555 1_555
H27A C22A 1_555 1_555
C23A C24 1_555 1_555
H28A C23A 1_555 1_555
C24A C23 1_555 1_555
H29A C24A 1_555 1_555
C25A C12A 1_555 1_555
C26A C29 1_555 1_555
H30A C26A 1_555 1_555
C27A C4A 1_555 1_555
H31A C27A 1_555 1_555
H32A C27A 1_555 1_555
C28A C13A 1_555 1_555
H33A C28A 1_555 1_555
C29A C26 1_555 1_555
H34A C29A 1_555 1_555
C30A O46A 1_555 1_555
N1A C3A 1_555 1_555
N2A C13A 1_555 1_555
N3A C6A 1_555 1_555
Mo3 O17 1_555 1_555
Mo3 O27 1_555 1_555
Mo5 O19 1_555 1_555
Mo5 O29 1_555 1_555
Mo6 O18 1_555 1_555
Mo6 O21 1_555 1_555
Mo7 O21 1_555 1_555
Mo7 O30 1_555 1_555
Mo7 O37 1_555 1_555
Mo7 O40 1_555 1_555
Mo8 O32 1_555 1_555
Mo9 O9 1_555 1_555
Mo9 O12 1_555 1_555
Mo9 O15 1_555 1_555
Mo9 O27 1_555 1_555
Mo10 O22 1_555 1_555
Mo10 O26 1_555 1_555
Mo10 O38 1_555 1_555
Mo11 O28 1_555 1_555
Mo11 O32 1_555 1_555
Mo12 O13 1_555 1_555
Mo12 O31 1_555 1_555
Mo12 O34 1_555 1_555
Mo12 O36 1_555 1_555
P1 O21 1_555 1_555
P1 O27 1_555 1_555
P1 O32 1_555 1_555
C2 C20 1_555 1_555
C6 C15 1_555 1_555
C7 N1 1_555 1_555
C10 N3 1_555 1_555
C12 C16 1_555 1_555
C12 C25 1_555 1_555
C14 N3 1_555 1_555
C19 C28 1_555 1_555
C19 C30 1_555 1_555
C21 N1 1_555 1_555
C22 N2 1_555 1_555
C27 N2 1_555 1_555
C1A C17A 1_555 1_555
C4A C29A 1_555 1_555
C6A C15A 1_555 1_555
C7A N1A 1_555 1_555
C10A N3A 1_555 1_555
C11A C23A 1_555 1_555
C11A C24A 1_555 1_555
C12A C16A 1_555 1_555
C14A N3A 1_555 1_555
C19A C28A 1_555 1_555
C19A C30A 1_555 1_555
C21A N1A 1_555 1_555
C22A N2A 1_555 1_555
C27A N2A 1_555 1_555

#END
