
#######################################################################
#
#                 Cambridge Crystallographic Data Centre
#                                CCDC 
#
#######################################################################
#
# If this CIF has been generated from an entry in the Cambridge 
# Structural Database, then it will include bibliographic, chemical, 
# crystal, experimental, refinement or atomic coordinate data resulting 
# from the CCDC's data processing and validation procedures.
#
#######################################################################

data_ISIXEO
_symmetry_cell_setting           triclinic
_symmetry_space_group_name_H-M   'P -1'
_symmetry_Int_Tables_number      2
_space_group_name_Hall           '-P 1'
loop_
_symmetry_equiv_pos_site_id
_symmetry_equiv_pos_as_xyz
1 x,y,z
2 -x,-y,-z
_cell_length_a                   11.921(2)
_cell_length_b                   15.166(3)
_cell_length_c                   21.020(4)
_cell_angle_alpha                100.49(3)
_cell_angle_beta                 90.79(3)
_cell_angle_gamma                102.89(3)
_cell_volume                     3636.73
loop_
_atom_site_label
_atom_site_type_symbol
_atom_site_fract_x
_atom_site_fract_y
_atom_site_fract_z
Er1 Er 0.26584(7) 0.86671(5) 0.40425(4)
O41 O 0.1272(11) 0.8097(9) 0.4664(7)
O42 O 0.0202(16) 0.9047(12) 0.5087(9)
O43 O 0.2624(10) 0.7414(7) 0.3200(5)
O44 O 0.3274(13) 0.6320(9) 0.3548(6)
O45 O 0.3068(10) 0.9673(9) 0.3371(6)
O46 O 0.2635(14) 1.1053(11) 0.3594(7)
O47 O 0.4586(11) 0.8842(9) 0.3819(7)
H1 H 0.4957 0.9024 0.3507
H2 H 0.5014 0.8595 0.4024
O48 O 0.3315(11) 0.7587(9) 0.4568(6)
H3 H 0.3617 0.7200 0.4326
H4 H 0.2879 0.7299 0.4816
O49 O 0.3768(14) 0.9499(12) 0.4975(8)
H5 H 0.3793 0.9319 0.5334
H6 H 0.3696 1.0053 0.5056
O50 O 0.0931(11) 0.8370(9) 0.3393(7)
H7 H 0.1007 0.8013 0.3043
H8 H 0.0216 0.8281 0.3459
O51 O 0.1894(12) 0.9928(8) 0.4487(6)
H9 H 0.1304 0.9903 0.4712
H10 H 0.1866 1.0298 0.4232
N1 N -0.1906(10) 0.5967(8) 0.5440(5)
N2 N 0.2678(10) 0.5123(8) 0.1177(5)
N3 N 0.2497(11) 1.0395(9) 0.1203(6)
C1 C 0.041(2) 0.8256(15) 0.4917(12)
C2 C -0.0431(15) 0.7447(11) 0.5139(9)
C3 C -0.0327(14) 0.6577(11) 0.4862(7)
H11 H 0.0247 0.6485 0.4564
C4 C -0.1064(13) 0.5870(10) 0.5029(7)
H12 H -0.0993 0.5264 0.4849
C5 C -0.1245(15) 0.7596(10) 0.5544(7)
H13 H -0.1302 0.8205 0.5725
C6 C -0.2031(13) 0.6819(10) 0.5700(6)
H14 H -0.2631 0.6899 0.5982
C7 C -0.2719(13) 0.5172(10) 0.5605(8)
H15 H -0.2775 0.5257 0.6081
H16 H -0.2440 0.4605 0.5458
C8 C -0.3887(14) 0.5077(9) 0.5283(7)
C9 C -0.4856(15) 0.4828(11) 0.5613(7)
H17 H -0.4782 0.4705 0.6037
C10 C -0.4055(15) 0.5247(13) 0.4667(8)
H18 H -0.3400 0.5421 0.4427
C11 C 0.2914(14) 0.6676(12) 0.3120(8)
C12 C 0.2794(12) 0.6092(10) 0.2444(6)
C13 C 0.2380(13) 0.6452(10) 0.1929(7)
H19 H 0.2159 0.7025 0.2006
C14 C 0.2315(13) 0.5924(9) 0.1307(7)
H20 H 0.2003 0.6132 0.0959
C15 C 0.3090(13) 0.5259(11) 0.2302(7)
H21 H 0.3325 0.4991 0.2641
C16 C 0.3050(15) 0.4816(12) 0.1680(8)
H22 H 0.3299 0.4255 0.1595
C17 C 0.2699(11) 0.4648(9) 0.0500(6)
H23 H 0.2177 0.4857 0.0220
H24 H 0.2415 0.3976 0.0471
C18 C 0.3910(11) 0.4844(10) 0.0261(6)
C19 C 0.4260(12) 0.4154(10) -0.0162(6)
H25 H 0.3760 0.3560 -0.0275
C20 C 0.4671(13) 0.5677(9) 0.0422(8)
H26 H 0.4462 0.6155 0.0721
C21 C 0.2820(16) 1.0375(12) 0.3211(9)
C22 C 0.2718(12) 1.0401(10) 0.2492(7)
C23 C 0.2960(15) 0.9691(12) 0.2047(8)
H27 H 0.3215 0.9202 0.2184
C24 C 0.2828(15) 0.9709(12) 0.1424(8)
H28 H 0.2975 0.9211 0.1116
C25 C 0.2260(14) 1.1087(10) 0.1623(7)
H29 H 0.2012 1.1571 0.1474
C26 C 0.2377(12) 1.1095(9) 0.2270(7)
H30 H 0.2218 1.1594 0.2572
C27 C 0.2382(13) 1.0373(12) 0.0508(8)
H31 H 0.2751 0.9894 0.0275
H32 H 0.2796 1.0974 0.0414
C28 C 0.1128(15) 1.0173(10) 0.0253(8)
C29 C 0.0232(15) 0.9602(11) 0.0518(8)
H33 H 0.0399 0.9322 0.0867
C30 C 0.0871(14) 1.0550(11) -0.0275(7)
H34 H 0.1475 1.0917 -0.0467
Er1A Er -1.26584(7) 0.13329(5) 0.59575(4)
Er1A_2 Er 0.73416(7) 0.13329(5) -0.40425(4)
Er1A_3 Er -0.26584(7) 1.13329(5) -0.40425(4)
O41A O -1.1272(11) 0.1903(9) 0.5336(7)
O42A O -1.0202(16) 0.0953(12) 0.4913(9)
O43A O 0.7376(10) 0.2586(7) -0.3200(5)
O43A_2 O -1.2624(10) 0.2586(7) 0.6800(5)
O44A O 0.6726(13) 0.3680(9) -0.3548(6)
O45A O -0.3068(10) 1.0327(9) -0.3371(6)
O45A_2 O -1.3068(10) 0.0327(9) 0.6629(6)
O46A O -0.2635(14) 0.8947(11) -0.3594(7)
O47A O -1.4586(11) 0.1158(9) 0.6181(7)
H1A H -1.4957 0.0976 0.6493
H2A H -1.5014 0.1405 0.5976
O48A O -1.3315(11) 0.2413(9) 0.5432(6)
H3A H -1.3617 0.2800 0.5674
H4A H -1.2879 0.2701 0.5184
O49A O -1.3768(14) 0.0501(12) 0.5025(8)
H5A H -1.3793 0.0681 0.4666
H6A H -1.3696 -0.0053 0.4944
O50A O -1.0931(11) 0.1630(9) 0.6607(7)
H7A H -1.1007 0.1987 0.6957
H8A H -1.0216 0.1719 0.6541
O51A O -1.1894(12) 0.0072(8) 0.5513(6)
H9A H -1.1304 0.0097 0.5288
H10A H -1.1866 -0.0298 0.5768
N1A N -0.8094(10) 0.4033(8) 0.4560(5)
N2A N 0.7322(10) 0.4877(8) -0.1177(5)
N3A N -0.2497(11) 0.9605(9) -0.1203(6)
C1A C -1.041(2) 0.1744(15) 0.5083(12)
C2A C -0.9569(15) 0.2553(11) 0.4861(9)
C3A C -0.9673(14) 0.3423(11) 0.5138(7)
H11A H -1.0247 0.3515 0.5436
C4A C -0.8936(13) 0.4130(10) 0.4971(7)
H12A H -0.9007 0.4736 0.5151
C5A C -0.8755(15) 0.2404(10) 0.4456(7)
H13A H -0.8698 0.1795 0.4275
C6A C -0.7969(13) 0.3181(10) 0.4300(6)
H14A H -0.7369 0.3101 0.4018
C7A C -0.7281(13) 0.4828(10) 0.4395(8)
H15A H -0.7225 0.4743 0.3919
H16A H -0.7560 0.5395 0.4542
C8A C -0.6113(14) 0.4923(9) 0.4717(7)
C9A C -0.5144(15) 0.5172(11) 0.4387(7)
H17A H -0.5218 0.5295 0.3963
C10A C -0.5945(15) 0.4753(13) 0.5333(8)
H18A H -0.6600 0.4579 0.5573
C11A C 0.7086(14) 0.3324(12) -0.3120(8)
C12A C 0.7206(12) 0.3908(10) -0.2444(6)
C13A C 0.7620(13) 0.3548(10) -0.1929(7)
H19A H 0.7841 0.2975 -0.2006
C14A C 0.7685(13) 0.4076(9) -0.1307(7)
H20A H 0.7997 0.3868 -0.0959
C15A C 0.6910(13) 0.4741(11) -0.2302(7)
H21A H 0.6675 0.5009 -0.2641
C16A C 0.6950(15) 0.5184(12) -0.1680(8)
H22A H 0.6701 0.5745 -0.1595
C17A C 0.7301(11) 0.5352(9) -0.0500(6)
H23A H 0.7823 0.5143 -0.0220
H24A H 0.7585 0.6024 -0.0471
C18A C 0.6090(11) 0.5156(10) -0.0261(6)
C19A C 0.5740(12) 0.5846(10) 0.0162(6)
H25A H 0.6240 0.6440 0.0275
C20A C 0.5329(13) 0.4323(9) -0.0422(8)
H26A H 0.5538 0.3845 -0.0721
C21A C -0.2820(16) 0.9625(12) -0.3211(9)
C22A C -0.2718(12) 0.9599(10) -0.2492(7)
C23A C -0.2960(15) 1.0309(12) -0.2047(8)
H27A H -0.3215 1.0798 -0.2184
C24A C -0.2828(15) 1.0291(12) -0.1424(8)
H28A H -0.2975 1.0789 -0.1116
C25A C -0.2260(14) 0.8913(10) -0.1623(7)
H29A H -0.2012 0.8429 -0.1474
C26A C -0.2377(12) 0.8905(9) -0.2270(7)
H30A H -0.2218 0.8406 -0.2572
C27A C -0.2382(13) 0.9627(12) -0.0508(8)
H31A H -0.2751 1.0106 -0.0275
H32A H -0.2796 0.9026 -0.0414
C28A C -0.1128(15) 0.9827(10) -0.0253(8)
C29A C -0.0232(15) 1.0398(11) -0.0518(8)
H33A H -0.0399 1.0678 -0.0867
C30A C -0.0871(14) 0.9450(11) 0.0275(7)
H34A H -0.1475 0.9083 0.0467
N4 N 0.053(2) 0.786(2) 0.1945(13)
C31 C -0.030(2) 0.7669(16) 0.1610(11)
C32 C -0.122(2) 0.7407(17) 0.1104(12)
N5 N 0.263(3) 1.021(2) 0.6080(16)
C33 C 0.172(3) 1.010(3) 0.6289(18)
C34 C 0.060(3) 1.011(3) 0.6566(19)
O52 O 0.513(4) 0.787(3) 0.5583(19)
O53 O 0.592(3) 0.813(2) 0.1349(15)
Mo1 Mo 0.73720(10) 0.26233(8) 0.01873(5)
Mo2 Mo 0.99589(10) 0.26088(8) 0.09096(6)
Mo3 Mo 1.04244(10) 0.32830(9) 0.26796(6)
Mo4 Mo 0.61783(11) 0.07644(8) 0.10694(6)
Mo5 Mo 0.80982(11) 0.33972(9) 0.36179(5)
Mo6 Mo 0.92057(11) 0.51550(8) 0.28087(6)
Mo7 Mo 0.91098(11) 0.46512(8) 0.10241(6)
Mo8 Mo 0.48990(10) 0.27796(9) 0.11854(6)
Mo9 Mo 0.62576(11) 0.12312(8) 0.27291(6)
Mo10 Mo 0.53174(11) 0.34103(9) 0.28361(6)
Mo11 Mo 0.64955(12) 0.49407(8) 0.18622(7)
Mo12 Mo 0.87109(12) 0.09710(9) 0.19482(6)
P1 P 0.7667(3) 0.2981(2) 0.19071(15)
O1 O 0.5650(9) 0.0551(7) 0.1930(5)
O2 O 1.1173(8) 0.2428(7) 0.0583(5)
O3 O 0.6635(8) 0.3674(6) 0.3367(5)
O4 O 0.7023(9) 0.2319(7) -0.0609(4)
O5 O 0.8155(8) 0.3844(6) 0.0250(4)
O6 O 0.8482(8) 0.3474(6) 0.2487(4)
O7 O 0.6897(8) 0.1439(6) 0.0479(4)
O8 O 1.1730(9) 0.3247(9) 0.2956(5)
O9 O 0.4362(9) 0.2928(7) 0.2012(5)
O10 O 0.8269(7) 0.3132(5) 0.1293(4)
O11 O 0.5586(9) 0.4544(7) 0.2600(5)
O12 O 0.7454(9) 0.0339(7) 0.1274(5)
O13 O 0.6591(7) 0.3366(6) 0.1938(4)
O14 O 0.5310(9) 0.4143(7) 0.1311(5)
O15 O 0.9379(9) 0.1568(6) 0.1249(4)
O16 O 0.9633(9) 0.1977(7) 0.2494(5)
O17 O 0.9559(9) 0.5038(7) 0.1878(5)
O18 O 0.8909(8) 0.2316(6) 0.0202(5)
O19 O 1.0154(8) 0.3925(6) 0.0829(4)
O20 O 0.4271(9) 0.3450(8) 0.3359(5)
O21 O 0.9898(10) 0.6238(7) 0.3122(5)
O22 O 0.7351(8) 0.1949(6) 0.1905(5)
O23 O 0.6068(8) 0.2895(6) 0.0551(5)
O24 O 1.0566(9) 0.3190(6) 0.1824(5)
O25 O 0.7613(9) 0.4895(7) 0.1272(5)
O26 O 0.3688(9) 0.2580(8) 0.0730(5)
O27 O 0.6187(10) 0.5968(7) 0.1874(5)
O28 O 0.9672(10) 0.5561(7) 0.0693(5)
O29 O 0.8724(9) 0.4703(7) 0.3543(5)
O30 O 0.5373(9) -0.0187(6) 0.0621(5)
O31 O 0.9420(10) 0.0135(7) 0.1926(6)
O32 O 0.8047(10) 0.3545(8) 0.4426(5)
O33 O 0.5626(10) 0.0561(8) 0.3238(5)
O34 O 0.7618(9) 0.0722(7) 0.2550(5)
O35 O 0.9603(9) 0.3250(7) 0.3508(5)
O36 O 1.0516(9) 0.4538(7) 0.2856(5)
O37 O 0.7785(9) 0.5237(7) 0.2531(5)
O38 O 0.5432(8) 0.2108(7) 0.2759(5)
O39 O 0.5122(8) 0.1613(6) 0.1175(5)
O40 O 0.7408(9) 0.2193(7) 0.3326(5)
C35? C 0.763(3) 0.733(3) 0.351(2)
C36? C 0.639(4) 0.698(4) 0.351(3)
N6? N 0.859(4) 0.760(4) 0.368(3)
O54? O 0.536(3) 0.820(2) 0.2101(16)
loop_
_geom_bond_atom_site_label_1
_geom_bond_atom_site_label_2
_geom_bond_site_symmetry_1
_geom_bond_site_symmetry_2
Mo1 O4 1_555 1_555
Mo2 O2 1_555 1_555
Mo3 O6 1_555 1_555
Mo4 O1 1_555 1_555
Mo5 O3 1_555 1_555
Mo6 O6 1_555 1_555
Mo7 O5 1_555 1_555
Mo8 O9 1_555 1_555
Mo9 O1 1_555 1_555
Mo10 O3 1_555 1_555
Mo11 O11 1_555 1_555
Mo12 O12 1_555 1_555
P1 O6 1_555 1_555
O5 Mo1 1_555 1_555
O6 Mo5 1_555 1_555
O7 Mo1 1_555 1_555
O8 Mo3 1_555 1_555
O9 Mo10 1_555 1_555
O10 Mo1 1_555 1_555
O11 Mo10 1_555 1_555
O12 Mo4 1_555 1_555
O13 Mo8 1_555 1_555
O14 Mo8 1_555 1_555
O15 Mo2 1_555 1_555
O16 Mo3 1_555 1_555
O17 Mo6 1_555 1_555
O18 Mo1 1_555 1_555
O19 Mo2 1_555 1_555
O20 Mo10 1_555 1_555
O21 Mo6 1_555 1_555
O22 Mo4 1_555 1_555
O23 Mo1 1_555 1_555
O24 Mo2 1_555 1_555
O25 Mo7 1_555 1_555
O26 Mo8 1_555 1_555
O27 Mo11 1_555 1_555
O28 Mo7 1_555 1_555
O29 Mo5 1_555 1_555
O30 Mo4 1_555 1_555
O31 Mo12 1_555 1_555
O32 Mo5 1_555 1_555
O33 Mo9 1_555 1_555
O34 Mo9 1_555 1_555
O35 Mo3 1_555 1_555
O36 Mo3 1_555 1_555
O37 Mo6 1_555 1_555
O38 Mo9 1_555 1_555
O39 Mo4 1_555 1_555
O40 Mo5 1_555 1_555
Er1 O41 1_555 1_555
O41 C1 1_555 1_555
O42 C1 1_555 1_555
O43 Er1 1_555 1_555
O44 C11 1_555 1_555
O45 Er1 1_555 1_555
O46 C21 1_555 1_555
O47 Er1 1_555 1_555
H1 O47 1_555 1_555
H2 O47 1_555 1_555
O48 Er1 1_555 1_555
H3 O48 1_555 1_555
H4 O48 1_555 1_555
O49 Er1 1_555 1_555
H5 O49 1_555 1_555
H6 O49 1_555 1_555
O50 Er1 1_555 1_555
H7 O50 1_555 1_555
H8 O50 1_555 1_555
O51 Er1 1_555 1_555
H9 O51 1_555 1_555
H10 O51 1_555 1_555
N1 C4 1_555 1_555
N2 C14 1_555 1_555
N3 C24 1_555 1_555
C1 C2 1_555 1_555
C2 C3 1_555 1_555
C3 H11 1_555 1_555
C4 C3 1_555 1_555
H12 C4 1_555 1_555
C5 C2 1_555 1_555
H13 C5 1_555 1_555
C6 N1 1_555 1_555
H14 C6 1_555 1_555
C7 N1 1_555 1_555
H15 C7 1_555 1_555
H16 C7 1_555 1_555
C8 C7 1_555 1_555
C9 C8 1_555 1_555
H17 C9 1_555 1_555
C10 C8 1_555 1_555
H18 C10 1_555 1_555
C11 O43 1_555 1_555
C12 C11 1_555 1_555
C13 C12 1_555 1_555
H19 C13 1_555 1_555
C14 C13 1_555 1_555
H20 C14 1_555 1_555
C15 C12 1_555 1_555
H21 C15 1_555 1_555
C16 N2 1_555 1_555
H22 C16 1_555 1_555
C17 N2 1_555 1_555
H23 C17 1_555 1_555
H24 C17 1_555 1_555
C18 C17 1_555 1_555
C19 C18 1_555 1_555
H25 C19 1_555 1_555
C20 C18 1_555 1_555
H26 C20 1_555 1_555
C21 O45 1_555 1_555
C22 C21 1_555 1_555
C23 C22 1_555 1_555
H27 C23 1_555 1_555
C24 C23 1_555 1_555
H28 C24 1_555 1_555
C25 N3 1_555 1_555
H29 C25 1_555 1_555
C26 C22 1_555 1_555
H30 C26 1_555 1_555
C27 N3 1_555 1_555
H31 C27 1_555 1_555
H32 C27 1_555 1_555
C28 C27 1_555 1_555
C29 C28 1_555 1_555
H33 C29 1_555 1_555
C30 C28 1_555 1_555
H34 C30 1_555 1_555
N4 C31 1_555 1_555
C31 C32 1_555 1_555
N5 C33 1_555 1_555
C33 C34 1_555 1_555
Er1A O41A 1_555 1_555
Er1A_2 O43A 1_555 1_555
Er1A_3 O45A 1_555 1_555
O41A C1A 1_555 1_555
O42A C1A 1_555 1_555
O43A C11A 1_555 1_555
O43A_2 Er1A 1_555 1_555
O44A C11A 1_555 1_555
O45A C21A 1_555 1_555
O45A_2 Er1A 1_555 1_555
O46A C21A 1_555 1_555
O47A Er1A 1_555 1_555
H1A O47A 1_555 1_555
H2A O47A 1_555 1_555
O48A Er1A 1_555 1_555
H3A O48A 1_555 1_555
H4A O48A 1_555 1_555
O49A Er1A 1_555 1_555
H5A O49A 1_555 1_555
H6A O49A 1_555 1_555
O50A Er1A 1_555 1_555
H7A O50A 1_555 1_555
H8A O50A 1_555 1_555
O51A Er1A 1_555 1_555
H9A O51A 1_555 1_555
H10A O51A 1_555 1_555
N1A C4A 1_555 1_555
N2A C14A 1_555 1_555
N3A C24A 1_555 1_555
C1A C2A 1_555 1_555
C2A C3A 1_555 1_555
C3A H11A 1_555 1_555
C4A C3A 1_555 1_555
H12A C4A 1_555 1_555
C5A C2A 1_555 1_555
H13A C5A 1_555 1_555
C6A N1A 1_555 1_555
H14A C6A 1_555 1_555
C7A N1A 1_555 1_555
H15A C7A 1_555 1_555
H16A C7A 1_555 1_555
C8A C7A 1_555 1_555
C9A C10 1_555 1_555
H17A C9A 1_555 1_555
C10A C9 1_555 1_555
H18A C10A 1_555 1_555
C11A C12A 1_555 1_555
C12A C13A 1_555 1_555
C13A H19A 1_555 1_555
C14A C13A 1_555 1_555
H20A C14A 1_555 1_555
C15A C12A 1_555 1_555
H21A C15A 1_555 1_555
C16A N2A 1_555 1_555
H22A C16A 1_555 1_555
C17A N2A 1_555 1_555
H23A C17A 1_555 1_555
H24A C17A 1_555 1_555
C18A C17A 1_555 1_555
C19A C20 1_555 1_555
H25A C19A 1_555 1_555
C20A C19 1_555 1_555
H26A C20A 1_555 1_555
C21A C22A 1_555 1_555
C22A C23A 1_555 1_555
C23A H27A 1_555 1_555
C24A C23A 1_555 1_555
H28A C24A 1_555 1_555
C25A N3A 1_555 1_555
H29A C25A 1_555 1_555
C26A C22A 1_555 1_555
H30A C26A 1_555 1_555
C27A N3A 1_555 1_555
H31A C27A 1_555 1_555
H32A C27A 1_555 1_555
C28A C27A 1_555 1_555
C29A C30 1_555 1_555
H33A C29A 1_555 1_555
C30A C29 1_555 1_555
H34A C30A 1_555 1_555
Mo2 O10 1_555 1_555
Mo2 O18 1_555 1_555
Mo3 O24 1_555 1_555
Mo4 O7 1_555 1_555
Mo5 O35 1_555 1_555
Mo6 O29 1_555 1_555
Mo6 O36 1_555 1_555
Mo7 O10 1_555 1_555
Mo7 O17 1_555 1_555
Mo7 O19 1_555 1_555
Mo8 O23 1_555 1_555
Mo8 O39 1_555 1_555
Mo9 O22 1_555 1_555
Mo9 O40 1_555 1_555
Mo10 O13 1_555 1_555
Mo10 O38 1_555 1_555
Mo11 O13 1_555 1_555
Mo11 O14 1_555 1_555
Mo11 O25 1_555 1_555
Mo11 O37 1_555 1_555
Mo12 O15 1_555 1_555
Mo12 O16 1_555 1_555
Mo12 O22 1_555 1_555
Mo12 O34 1_555 1_555
P1 O10 1_555 1_555
P1 O13 1_555 1_555
P1 O22 1_555 1_555
C5 C6 1_555 1_555
C15 C16 1_555 1_555
C25 C26 1_555 1_555
C5A C6A 1_555 1_555
C8A C9A 1_555 1_555
C8A C10A 1_555 1_555
C15A C16A 1_555 1_555
C18A C19A 1_555 1_555
C18A C20A 1_555 1_555
C25A C26A 1_555 1_555
C28A C29A 1_555 1_555
C28A C30A 1_555 1_555

#END
