
#######################################################################
#
#                 Cambridge Crystallographic Data Centre
#                                CCDC 
#
#######################################################################
#
# If this CIF has been generated from an entry in the Cambridge 
# Structural Database, then it will include bibliographic, chemical, 
# crystal, experimental, refinement or atomic coordinate data resulting 
# from the CCDC's data processing and validation procedures.
#
#######################################################################

data_ISIYIT
_symmetry_cell_setting           monoclinic
_symmetry_space_group_name_H-M   'P 21/n'
_symmetry_Int_Tables_number      14
_space_group_name_Hall           '-P 2yn'
loop_
_symmetry_equiv_pos_site_id
_symmetry_equiv_pos_as_xyz
1 x,y,z
2 1/2-x,1/2+y,1/2-z
3 -x,-y,-z
4 1/2+x,1/2-y,1/2+z
_cell_length_a                   13.954(3)
_cell_length_b                   10.562(2)
_cell_length_c                   22.380(5)
_cell_angle_alpha                90
_cell_angle_beta                 107.29(3)
_cell_angle_gamma                90
_cell_volume                     3149.37
loop_
_atom_site_label
_atom_site_type_symbol
_atom_site_fract_x
_atom_site_fract_y
_atom_site_fract_z
Mn1 Mn 0.00027(3) 0.25388(3) 0.23259(2)
N1 N 0.03073(15) 0.4168(2) 0.29592(10)
C1 C 0.0433(2) 0.4658(2) 0.34447(12)
O1 O 0.0555(2) 0.5193(2) 0.39449(9)
N2 N -0.0293(2) 0.0922(2) 0.17044(10)
C2 C -0.0784(2) 0.0161(2) 0.13656(12)
O2 O -0.12899(14) -0.0628(2) 0.10137(8)
O3 O 0.06362(13) 0.1338(2) 0.31526(8)
H1 H 0.0340 0.1324 0.3421
H2 H 0.1229 0.1550 0.3368
N3 N 0.15751(14) 0.2740(2) 0.21660(9)
C3 C 0.1920(2) 0.1888(2) 0.18324(11)
H3 H 0.1514 0.1201 0.16619
C4 C 0.2846(2) 0.1985(2) 0.17304(12)
H4 H 0.3050 0.1370 0.14963
C5 C 0.3474(2) 0.3000(2) 0.19775(11)
C6 C 0.3112(2) 0.3890(2) 0.23138(12)
H5 H 0.3499 0.4592 0.24843
C7 C 0.2175(2) 0.3727(2) 0.23943(12)
H6 H 0.1948 0.4338 0.26196
C8 C 0.4516(2) 0.3112(3) 0.19076(12)
H7 H 0.4678 0.3998 0.18747
H8 H 0.4538 0.2687 0.15277
C9 C 0.5288(2) 0.2518(2) 0.24719(12)
H9 H 0.5277 0.2973 0.28464
H10 H 0.5093 0.1649 0.25159
C10 C 0.8086(2) 0.3092(3) 0.28231(12)
H11 H 0.8586 0.3508 0.31291
C11 C 0.7118(2) 0.3128(3) 0.28676(12)
H12 H 0.6986 0.3560 0.31968
C12 C 0.6348(2) 0.2527(2) 0.24260(12)
C13 C 0.6609(2) 0.1914(3) 0.19461(13)
H13 H 0.6121 0.1497 0.16330
C14 C 0.7595(2) 0.1924(3) 0.19354(13)
H14 H 0.7748 0.1509 0.16087
N4 N 0.83465(15) 0.2500(2) 0.23714(10)
N5 N -0.05823(15) 0.3881(2) 0.14892(9)
C15 C -0.1046(2) 0.4962(2) 0.15551(12)
H15 H -0.1123 0.5146 0.19447
C16 C -0.1414(2) 0.5812(2) 0.10758(12)
H16 H -0.1709 0.6563 0.11493
C17 C -0.1344(2) 0.5549(2) 0.04819(12)
C18 C -0.0863(2) 0.4432(3) 0.04139(12)
H17 H -0.0789 0.4217 0.00271
C19 C -0.0495(2) 0.3642(3) 0.09212(12)
H18 H -0.0170 0.2903 0.08649
C20 C -0.1849(2) 0.6376(3) -0.00686(13)
H19 H -0.1479 0.6340 -0.03727
H20 H -0.1849 0.7247 0.00694
C21 C -0.2944(2) 0.5935(3) -0.03784(12)
H21 H -0.3242 0.6446 -0.07471
H22 H -0.2942 0.5061 -0.05112
C22 C -0.4221(2) 0.5217(4) 0.08579(14)
H23 H -0.4291 0.4533 0.11037
C23 C -0.3686(2) 0.5034(3) 0.04314(12)
H24 H -0.3410 0.4247 0.03936
C24 C -0.3569(2) 0.6044(3) 0.00625(12)
C25 C -0.4015(2) 0.7185(3) 0.01361(14)
H25 H -0.3960 0.7886 -0.01037
C26 C -0.4542(2) 0.7271(4) 0.0569(2)
H26 H -0.4844 0.8039 0.0608
N6 N -0.4641(2) 0.6313(3) 0.09355(12)
Mn1_2 Mn 1.00027(3) 0.25388(3) 0.23259(2)
N4_2 N -0.16535(15) 0.2500(2) 0.23714(10)
N7 N 0.2537(2) 0.2184(2) 0.38728(11)
C27 C 0.3443(2) 0.2180(3) 0.37810(13)
H27 H 0.3531 0.1683 0.34581
C28 C 0.4251(2) 0.2865(3) 0.41341(13)
H28 H 0.4857 0.2840 0.40410
C29 C 0.4160(2) 0.3587(3) 0.46244(14)
C30 C 0.3199(2) 0.3649(3) 0.47093(15)
H29 H 0.3084 0.4168 0.50168
C31 C 0.2430(2) 0.2928(3) 0.43281(14)
H30 H 0.1803 0.2966 0.43939
C32 C 0.5067(2) 0.4303(3) 0.50647(14)
H31 H 0.5108 0.4134 0.54976
H32 H 0.5684 0.4016 0.49937
N7B N 0.7463(2) 0.7816(2) 0.61272(11)
C27B C 0.6557(2) 0.7820(3) 0.62190(13)
H27B H 0.6469 0.8317 0.65419
C28B C 0.5749(2) 0.7135(3) 0.58659(13)
H28B H 0.5143 0.7160 0.59590
C29B C 0.5840(2) 0.6413(3) 0.53756(14)
C30B C 0.6801(2) 0.6351(3) 0.52907(15)
H29B H 0.6916 0.5832 0.49832
C31B C 0.7570(2) 0.7072(3) 0.56719(14)
H30B H 0.8197 0.7034 0.56061
C32B C 0.4933(2) 0.5697(3) 0.49353(14)
H31B H 0.4892 0.5866 0.45024
H32B H 0.4316 0.5984 0.50063
O4 O 0.0995(2) 0.4398(3) 0.53134(14)
H33 H 0.0811 0.4710 0.49464
H34 H 0.1586 0.4691 0.54594
loop_
_geom_bond_atom_site_label_1
_geom_bond_atom_site_label_2
_geom_bond_site_symmetry_1
_geom_bond_site_symmetry_2
Mn1 N1 1_555 1_555
N1 C1 1_555 1_555
C1 O1 1_555 1_555
N2 Mn1 1_555 1_555
C2 N2 1_555 1_555
O2 C2 1_555 1_555
O3 Mn1 1_555 1_555
H1 O3 1_555 1_555
H2 O3 1_555 1_555
N3 Mn1 1_555 1_555
C3 N3 1_555 1_555
H3 C3 1_555 1_555
C4 C3 1_555 1_555
H4 C4 1_555 1_555
C5 C4 1_555 1_555
C6 C5 1_555 1_555
H5 C6 1_555 1_555
C7 N3 1_555 1_555
H6 C7 1_555 1_555
C8 C5 1_555 1_555
H7 C8 1_555 1_555
H8 C8 1_555 1_555
C9 C8 1_555 1_555
H9 C9 1_555 1_555
H10 C9 1_555 1_555
C10 H11 1_555 1_555
C11 C10 1_555 1_555
H12 C11 1_555 1_555
C12 C9 1_555 1_555
C13 C12 1_555 1_555
H13 C13 1_555 1_555
C14 C13 1_555 1_555
H14 C14 1_555 1_555
N4 C10 1_555 1_555
N5 Mn1 1_555 1_555
C15 N5 1_555 1_555
H15 C15 1_555 1_555
C16 C15 1_555 1_555
H16 C16 1_555 1_555
C17 C16 1_555 1_555
C18 C17 1_555 1_555
H17 C18 1_555 1_555
C19 N5 1_555 1_555
H18 C19 1_555 1_555
C20 C17 1_555 1_555
H19 C20 1_555 1_555
H20 C20 1_555 1_555
C21 C20 1_555 1_555
H21 C21 1_555 1_555
H22 C21 1_555 1_555
C22 H23 1_555 1_555
C23 C22 1_555 1_555
H24 C23 1_555 1_555
C24 C21 1_555 1_555
C25 C24 1_555 1_555
H25 C25 1_555 1_555
C26 C25 1_555 1_555
H26 C26 1_555 1_555
N6 C22 1_555 1_555
N7 C27 1_555 1_555
C27 H27 1_555 1_555
C28 C27 1_555 1_555
H28 C28 1_555 1_555
C29 C28 1_555 1_555
C30 C29 1_555 1_555
H29 C30 1_555 1_555
C31 N7 1_555 1_555
H30 C31 1_555 1_555
C32 C29 1_555 1_555
H31 C32 1_555 1_555
H32 C32 1_555 1_555
O4 H33 1_555 1_555
H34 O4 1_555 1_555
Mn1_2 N4 1_555 1_555
N4_2 Mn1 1_555 1_555
N7B C27B 1_555 1_555
C27B H27B 1_555 1_555
C28B C27B 1_555 1_555
H28B C28B 1_555 1_555
C29B C28B 1_555 1_555
C30B C29B 1_555 1_555
H29B C30B 1_555 1_555
C31B N7B 1_555 1_555
H30B C31B 1_555 1_555
C32B C32 1_555 1_555
H31B C32B 1_555 1_555
H32B C32B 1_555 1_555
C6 C7 1_555 1_555
C11 C12 1_555 1_555
C14 N4 1_555 1_555
C18 C19 1_555 1_555
C23 C24 1_555 1_555
C26 N6 1_555 1_555
C30 C31 1_555 1_555
C29B C32B 1_555 1_555
C30B C31B 1_555 1_555

#END
