
#######################################################################
#
#                 Cambridge Crystallographic Data Centre
#                                CCDC 
#
#######################################################################
#
# If this CIF has been generated from an entry in the Cambridge 
# Structural Database, then it will include bibliographic, chemical, 
# crystal, experimental, refinement or atomic coordinate data resulting 
# from the CCDC's data processing and validation procedures.
#
#######################################################################

data_ISNCMN
_symmetry_cell_setting           triclinic
_symmetry_space_group_name_H-M   'P -1'
_symmetry_Int_Tables_number      2
_space_group_name_Hall           '-P 1'
loop_
_symmetry_equiv_pos_site_id
_symmetry_equiv_pos_as_xyz
1 x,y,z
2 -x,-y,-z
_cell_length_a                   10.572(4)
_cell_length_b                   12.125(7)
_cell_length_c                   14.411(6)
_cell_angle_alpha                90.22(4)
_cell_angle_beta                 109.41(3)
_cell_angle_gamma                104.75(4)
_cell_volume                     1676.93
loop_
_atom_site_label
_atom_site_type_symbol
_atom_site_fract_x
_atom_site_fract_y
_atom_site_fract_z
Cl1 Cl -0.04910 -0.43250 0.12880
Cl2 Cl 0.26850 -0.62200 -0.57900
Cl3 Cl 0.40820 -0.36470 -0.73350
Mn1 Mn 0.05430 -0.20580 -0.10360
Mn2 Mn -0.34860 0.27720 -0.54190
Cl4 Cl 0.20140 -0.20160 -0.19890
O1 O -0.16510 0.34350 -0.61600
O2 O -0.26970 0.14970 -0.45090
O3 O 0.19280 -0.0795 0.01660
O4 O -0.12220 -0.23300 -0.04760
O5 O -0.52460 0.24060 -0.48010
O6 O -0.43470 0.41470 -0.60510
N1 N -0.03100 -0.07120 -0.18890
N2 N -0.13800 0.29290 -0.32910
N3 N -0.19160 0.37460 -0.39190
N4 N 0.16730 -0.30490 0.01960
N5 N 0.26010 -0.22260 0.10150
N6 N 0.52470 0.13710 0.33700
N7 N -0.10660 -0.36960 -0.18540
N8 N -0.21740 -0.39480 -0.14990
N9 N -0.58870 -0.36520 -0.00610
C1 C 0.00820 0.04220 -0.15160
C2 C -0.03630 0.12620 -0.20370
C3 C -0.12590 0.10040 -0.30180
C4 C -0.16720 -0.01570 -0.34190
C5 C -0.11920 -0.09430 -0.28040
C6 C -0.18210 0.18260 -0.36570
C7 C 0.26620 -0.11540 0.09300
C8 C 0.36130 -0.03020 0.17960
C9 C 0.44090 -0.06110 0.26770
C10 C 0.52030 0.02490 0.34590
C11 C 0.44510 0.16740 0.25270
C12 C 0.36510 0.08390 0.17100
C13 C -0.21820 -0.31960 -0.08300
C14 C -0.35010 -0.34270 -0.05830
C15 C -0.48020 -0.40770 -0.11960
C16 C -0.59450 -0.41160 -0.08830
C17 C -0.45930 -0.30630 0.05640
C18 C -0.34160 -0.29380 0.03440
N6_2 N -0.47530 0.13710 -0.66300
Mn2_2 Mn 0.65140 0.27720 0.45810
loop_
_geom_bond_atom_site_label_1
_geom_bond_atom_site_label_2
_geom_bond_site_symmetry_1
_geom_bond_site_symmetry_2
Mn1 Cl4 1_555 1_555
Mn2 O1 1_555 1_555
O2 Mn2 1_555 1_555
O3 Mn1 1_555 1_555
O4 Mn1 1_555 1_555
O5 Mn2 1_555 1_555
O6 Mn2 1_555 1_555
N1 Mn1 1_555 1_555
N2 N3 1_555 1_555
N3 Mn2 1_555 1_555
N4 Mn1 1_555 1_555
N5 N4 1_555 1_555
N6 C10 1_555 1_555
N7 Mn1 1_555 1_555
N8 N7 1_555 1_555
N9 C16 1_555 1_555
C1 N1 1_555 1_555
C2 C1 1_555 1_555
C3 C2 1_555 1_555
C4 C3 1_555 1_555
C5 N1 1_555 1_555
C6 O2 1_555 1_555
C7 O3 1_555 1_555
C8 C7 1_555 1_555
C9 C8 1_555 1_555
C10 C9 1_555 1_555
C11 N6 1_555 1_555
C12 C8 1_555 1_555
C13 O4 1_555 1_555
C14 C13 1_555 1_555
C15 C14 1_555 1_555
C16 C15 1_555 1_555
C17 N9 1_555 1_555
C18 C14 1_555 1_555
N6_2 Mn2 1_555 1_555
Mn2_2 N6 1_555 1_555
N2 C6 1_555 1_555
N5 C7 1_555 1_555
N8 C13 1_555 1_555
C3 C6 1_555 1_555
C4 C5 1_555 1_555
C11 C12 1_555 1_555
C17 C18 1_555 1_555

#END
