
#######################################################################
#
#                 Cambridge Crystallographic Data Centre
#                                CCDC 
#
#######################################################################
#
# If this CIF has been generated from an entry in the Cambridge 
# Structural Database, then it will include bibliographic, chemical, 
# crystal, experimental, refinement or atomic coordinate data resulting 
# from the CCDC's data processing and validation procedures.
#
#######################################################################

data_ISOCOI
_symmetry_cell_setting           triclinic
_symmetry_space_group_name_H-M   'P -1'
_symmetry_Int_Tables_number      2
_space_group_name_Hall           '-P 1'
loop_
_symmetry_equiv_pos_site_id
_symmetry_equiv_pos_as_xyz
1 x,y,z
2 -x,-y,-z
_cell_length_a                   6.5875(14)
_cell_length_b                   6.7860(15)
_cell_length_c                   9.975(2)
_cell_angle_alpha                76.123(15)
_cell_angle_beta                 71.782(14)
_cell_angle_gamma                77.067(16)
_cell_volume                     405.805
loop_
_atom_site_label
_atom_site_type_symbol
_atom_site_fract_x
_atom_site_fract_y
_atom_site_fract_z
Co1 Co 0.46522(6) 0.47634(6) 0.15804(4)
Co2 Co 0.5000 1.0000 0.0000
O1 O 0.5863(4) 0.6881(3) -0.0254(2)
O2 O 0.1477(4) 0.6580(4) 0.1533(2)
O3 O 0.2034(4) 0.9684(4) 0.1620(2)
O4 O -0.3246(4) 0.9220(4) 0.1582(2)
H1 H 0.698(7) 0.676(7) -0.039(5)
O5 O -0.4759(4) 0.6444(4) 0.2861(2)
O6 O 0.7809(4) 0.2998(4) 0.1382(3)
H2 H 0.757(7) 0.183(9) 0.167(5)
H3 H 0.815(10) 0.316(11) 0.053(8)
N1 N -0.3040(4) 0.6938(4) 0.6401(3)
C1 C -0.3806(5) 0.7189(5) 0.5260(3)
H4 H -0.5232 0.7015 0.5433
C2 C -0.2615(5) 0.7690(5) 0.3841(3)
C3 C -0.3603(5) 0.7793(5) 0.2656(3)
C4 C -0.0469(5) 0.7969(5) 0.3583(3)
C5 C 0.1121(5) 0.8137(5) 0.2097(3)
C6 C 0.0308(5) 0.7778(5) 0.4761(4)
H5 H 0.1706 0.8004 0.4625
C7 C -0.0999(5) 0.7253(5) 0.6135(4)
H6 H -0.0441 0.7111 0.6907
O1A O 0.4137(4) 1.3119(3) 0.0254(2)
H1A H 0.302(7) 1.324(7) 0.039(5)
O2A O 0.8523(4) 1.3420(4) -0.1533(2)
O3A O 0.7966(4) 1.0316(4) -0.1620(2)
O4A O 1.3246(4) 1.0780(4) -0.1582(2)
O5A O 1.4759(4) 1.3556(4) -0.2861(2)
N1A N 1.3040(4) 1.3062(4) -0.6401(3)
C1A C 1.3806(5) 1.2811(5) -0.5260(3)
H4A H 1.5232 1.2985 -0.5433
C2A C 1.2615(5) 1.2310(5) -0.3841(3)
C3A C 1.3603(5) 1.2207(5) -0.2656(3)
C4A C 1.0469(5) 1.2031(5) -0.3583(3)
C5A C 0.8879(5) 1.1863(5) -0.2097(3)
C6A C 0.9692(5) 1.2222(5) -0.4761(4)
H5A H 0.8294 1.1996 -0.4625
C7A C 1.0999(5) 1.2747(5) -0.6135(4)
H6A H 1.0441 1.2889 -0.6907
Co1A Co 0.53478(6) 1.52366(6) -0.15804(4)
O6A O 0.2191(4) 1.7002(4) -0.1382(3)
H2A H 0.243(7) 1.817(9) -0.167(5)
H3A H 0.185(10) 1.684(11) -0.053(8)
O1A_2 O 0.4137(4) 0.3119(3) 0.0254(2)
O5_2 O 0.5241(4) 0.6444(4) 0.2861(2)
N1A_2 N 0.3040(4) 0.3062(4) 0.3599(3)
O4_2 O 0.6754(4) 0.9220(4) 0.1582(2)
O4A_2 O 0.3246(4) 1.0780(4) -0.1582(2)
Co1A_2 Co 0.53478(6) 0.52366(6) -0.15804(4)
Co2_2 Co -0.5000 1.0000 0.0000
Co1_2 Co -0.53478(6) 0.47634(6) 0.15804(4)
Co1A_3 Co -0.46522(6) 0.52366(6) 0.84196(4)
Co1_3 Co 0.46522(6) 1.47634(6) 0.15804(4)
Co2_3 Co 1.5000 1.0000 0.0000
Co1A_4 Co 1.53478(6) 1.52366(6) -0.15804(4)
Co1_4 Co 1.46522(6) 1.47634(6) -0.84196(4)
O1_2 O 0.5863(4) 1.6881(3) -0.0254(2)
O5A_2 O 0.4759(4) 1.3556(4) -0.2861(2)
N1_2 N 0.6960(4) 1.6938(4) -0.3599(3)
H1A_2 H 0.302(7) 0.324(7) 0.039(5)
H1_2 H 0.698(7) 1.676(7) -0.039(5)
loop_
_geom_bond_atom_site_label_1
_geom_bond_atom_site_label_2
_geom_bond_site_symmetry_1
_geom_bond_site_symmetry_2
Co1 O1 1_555 1_555
Co2 O1 1_555 1_555
O1 H1 1_555 1_555
O2 Co1 1_555 1_555
O3 Co2 1_555 1_555
O4 C3 1_555 1_555
O5 C3 1_555 1_555
O6 Co1 1_555 1_555
H2 O6 1_555 1_555
H3 O6 1_555 1_555
N1 C1 1_555 1_555
C1 H4 1_555 1_555
C2 C1 1_555 1_555
C3 C2 1_555 1_555
C4 C2 1_555 1_555
C5 O2 1_555 1_555
C6 C4 1_555 1_555
H5 C6 1_555 1_555
C7 N1 1_555 1_555
H6 C7 1_555 1_555
O1A Co2 1_555 1_555
H1A O1A 1_555 1_555
O2A C5A 1_555 1_555
O3A Co2 1_555 1_555
O4A C3A 1_555 1_555
O5A C3A 1_555 1_555
N1A C1A 1_555 1_555
C1A H4A 1_555 1_555
C2A C1A 1_555 1_555
C3A C2A 1_555 1_555
C4A C2A 1_555 1_555
C5A O3A 1_555 1_555
C6A C4A 1_555 1_555
H5A C6A 1_555 1_555
C7A N1A 1_555 1_555
H6A C7A 1_555 1_555
Co1A O1A 1_555 1_555
O6A Co1A 1_555 1_555
H2A O6A 1_555 1_555
H3A O6A 1_555 1_555
O1A_2 Co1 1_555 1_555
O5_2 Co1 1_555 1_555
N1A_2 Co1 1_555 1_555
O4_2 Co2 1_555 1_555
O4A_2 Co2 1_555 1_555
Co1A_2 O1 1_555 1_555
Co2_2 O4 1_555 1_555
Co1_2 O5 1_555 1_555
Co1A_3 N1 1_555 1_555
Co1_3 O1A 1_555 1_555
Co2_3 O4A 1_555 1_555
Co1A_4 O5A 1_555 1_555
Co1_4 N1A 1_555 1_555
O1_2 Co1A 1_555 1_555
O5A_2 Co1A 1_555 1_555
N1_2 Co1A 1_555 1_555
H1A_2 O1A_2 1_555 1_555
H1_2 O1_2 1_555 1_555
O3 C5 1_555 1_555
C4 C5 1_555 1_555
C6 C7 1_555 1_555
O2A Co1A 1_555 1_555
C4A C5A 1_555 1_555
C6A C7A 1_555 1_555
O1A_2 Co1A_2 1_555 1_555
Co1_3 O1_2 1_555 1_555

#END
