
#######################################################################
#
#                 Cambridge Crystallographic Data Centre
#                                CCDC 
#
#######################################################################
#
# If this CIF has been generated from an entry in the Cambridge 
# Structural Database, then it will include bibliographic, chemical, 
# crystal, experimental, refinement or atomic coordinate data resulting 
# from the CCDC's data processing and validation procedures.
#
#######################################################################

data_ISOCIC01
_symmetry_cell_setting           triclinic
_symmetry_space_group_name_H-M   'P -1'
_symmetry_Int_Tables_number      2
_space_group_name_Hall           '-P 1'
loop_
_symmetry_equiv_pos_site_id
_symmetry_equiv_pos_as_xyz
1 x,y,z
2 -x,-y,-z
_cell_length_a                   7.1111(12)
_cell_length_b                   7.8561(13)
_cell_length_c                   9.0310(16)
_cell_angle_alpha                75.614(3)
_cell_angle_beta                 68.570(4)
_cell_angle_gamma                76.107(4)
_cell_volume                     448.633
loop_
_atom_site_label
_atom_site_type_symbol
_atom_site_fract_x
_atom_site_fract_y
_atom_site_fract_z
Co1 Co 1.01715(17) 0.24221(15) 0.28331(14)
C1 C 0.7479(13) 0.5978(11) 0.3589(10)
H1 H 0.8512 0.6064 0.3955
C2 C 0.5803(13) 0.7250(13) 0.3809(11)
H2 H 0.5684 0.8174 0.4329
C3 C 0.4239(13) 0.7167(11) 0.3245(10)
C4 C 0.4409(13) 0.5716(11) 0.2570(10)
C5 C 0.6203(13) 0.4491(11) 0.2396(11)
H3 H 0.6354 0.3527 0.1914
C6 C 0.2292(13) 0.8575(10) 0.3562(10)
C7 C 0.2743(12) 0.5365(11) 0.2080(10)
N1 N 0.7743(10) 0.4604(9) 0.2878(8)
O1 O 0.2525(9) 1.0097(8) 0.2806(7)
O2 O 0.0657(8) 0.8021(8) 0.4515(7)
O3 O 0.1918(9) 0.6594(8) 0.1244(8)
O4 O 0.2305(9) 0.3847(8) 0.2622(8)
O5 O 1.0943(9) 0.2523(9) 0.0359(7)
H4 H 0.9900 0.2812 0.0104
O6 O 0.8073(9) 0.0688(8) 0.3319(8)
H5 H 0.8517 -0.0311 0.3725
Co1_2 Co 0.01715(17) 1.24221(15) 0.28331(14)
Co1A Co -0.01715(17) 0.75779(15) 0.71669(14)
Co1_3 Co 0.01715(17) 0.24221(15) 0.28331(14)
O1_2 O 1.2525(9) 0.0097(8) 0.2806(7)
O2A O 0.9343(8) 0.1979(8) 0.5485(7)
O4_2 O 1.2305(9) 0.3847(8) 0.2622(8)
O7 O 0.6657(9) 0.0488(8) 0.0908(8)
loop_
_geom_bond_atom_site_label_1
_geom_bond_atom_site_label_2
_geom_bond_site_symmetry_1
_geom_bond_site_symmetry_2
Co1 N1 1_555 1_555
C1 H1 1_555 1_555
C2 C1 1_555 1_555
H2 C2 1_555 1_555
C3 C2 1_555 1_555
C4 C3 1_555 1_555
C5 C4 1_555 1_555
H3 C5 1_555 1_555
C6 C3 1_555 1_555
C7 C4 1_555 1_555
N1 C1 1_555 1_555
O1 C6 1_555 1_555
O2 C6 1_555 1_555
O3 C7 1_555 1_555
O4 C7 1_555 1_555
O5 Co1 1_555 1_555
H4 O5 1_555 1_555
O6 Co1 1_555 1_555
H5 O6 1_555 1_555
Co1_2 O1 1_555 1_555
Co1A O2 1_555 1_555
Co1_3 O4 1_555 1_555
O1_2 Co1 1_555 1_555
O2A Co1 1_555 1_555
O4_2 Co1 1_555 1_555
C5 N1 1_555 1_555

#END
