
#######################################################################
#
#                 Cambridge Crystallographic Data Centre
#                                CCDC 
#
#######################################################################
#
# If this CIF has been generated from an entry in the Cambridge 
# Structural Database, then it will include bibliographic, chemical, 
# crystal, experimental, refinement or atomic coordinate data resulting 
# from the CCDC's data processing and validation procedures.
#
#######################################################################

data_ISOCIC
_symmetry_cell_setting           triclinic
_symmetry_space_group_name_H-M   'P -1'
_symmetry_Int_Tables_number      2
_space_group_name_Hall           '-P 1'
loop_
_symmetry_equiv_pos_site_id
_symmetry_equiv_pos_as_xyz
1 x,y,z
2 -x,-y,-z
_cell_length_a                   7.1114(7)
_cell_length_b                   7.8730(10)
_cell_length_c                   9.0284(10)
_cell_angle_alpha                76.627(14)
_cell_angle_beta                 68.437(11)
_cell_angle_gamma                76.232(14)
_cell_volume                     450.774
loop_
_atom_site_label
_atom_site_type_symbol
_atom_site_fract_x
_atom_site_fract_y
_atom_site_fract_z
Co1 Co 0.01772(6) 0.24214(5) 0.28290(4)
O1 O 0.2325(3) 0.3825(2) 0.2637(3)
O2 O 0.1928(3) 0.6601(3) 0.1236(2)
O3 O 0.0653(3) 0.8041(2) 0.4508(2)
O4 O 0.2516(3) 1.0109(2) 0.2794(2)
O5 O 0.0927(3) 0.2508(3) 0.0371(2)
H1 H 0.175(4) 0.161(3) 0.001(4)
H2 H 0.020(5) 0.299(4) -0.023(4)
O6 O -0.1935(3) 0.0668(3) 0.3367(3)
H3 H -0.221(5) 0.052(4) 0.257(3)
H4 H -0.135(6) -0.031(3) 0.377(4)
N1 N 0.7731(3) 0.4569(3) 0.2887(3)
C1 C 0.6206(4) 0.4482(3) 0.2390(3)
H7 H 0.6352 0.3524 0.1894
C2 C 0.4428(4) 0.5718(3) 0.2562(3)
C3 C 0.2748(4) 0.5377(4) 0.2088(3)
C4 C 0.4222(4) 0.7173(3) 0.3262(3)
C5 C 0.2307(4) 0.8552(4) 0.3544(3)
C6 C 0.5795(4) 0.7269(3) 0.3796(3)
H8 H 0.5693 0.8222 0.4284
C7 C 0.7488(4) 0.5967(4) 0.3604(3)
H9 H 0.8510 0.6049 0.3983
O3A O -0.0653(3) 0.1959(2) 0.5492(2)
O4_2 O 0.2516(3) 0.0109(2) 0.2794(2)
N1_2 N -0.2269(3) 0.4569(3) 0.2887(3)
Co1A Co -0.01772(6) 0.75786(5) 0.71710(4)
Co1_2 Co 0.01772(6) 1.24214(5) 0.28290(4)
Co1_3 Co 1.01772(6) 0.24214(5) 0.28290(4)
O7 O 0.3318(3) -0.0473(3) -0.0912(3)
H5 H 0.306(4) -0.133(3) -0.015(3)
H6 H 0.4604(18) -0.054(4) -0.137(4)
loop_
_geom_bond_atom_site_label_1
_geom_bond_atom_site_label_2
_geom_bond_site_symmetry_1
_geom_bond_site_symmetry_2
Co1 O1 1_555 1_555
O1 C3 1_555 1_555
O2 C3 1_555 1_555
O3 C5 1_555 1_555
O4 C5 1_555 1_555
O5 Co1 1_555 1_555
H1 O5 1_555 1_555
H2 O5 1_555 1_555
O6 Co1 1_555 1_555
H3 O6 1_555 1_555
H4 O6 1_555 1_555
O7 H5 1_555 1_555
H6 O7 1_555 1_555
N1 C1 1_555 1_555
C1 H7 1_555 1_555
C2 C1 1_555 1_555
C3 C2 1_555 1_555
C4 C2 1_555 1_555
C5 C4 1_555 1_555
C6 C4 1_555 1_555
H8 C6 1_555 1_555
C7 N1 1_555 1_555
H9 C7 1_555 1_555
O3A Co1 1_555 1_555
O4_2 Co1 1_555 1_555
N1_2 Co1 1_555 1_555
Co1A O3 1_555 1_555
Co1_2 O4 1_555 1_555
Co1_3 N1 1_555 1_555
C6 C7 1_555 1_555

#END
