
#######################################################################
#
#                 Cambridge Crystallographic Data Centre
#                                CCDC 
#
#######################################################################
#
# If this CIF has been generated from an entry in the Cambridge 
# Structural Database, then it will include bibliographic, chemical, 
# crystal, experimental, refinement or atomic coordinate data resulting 
# from the CCDC's data processing and validation procedures.
#
#######################################################################

data_ISOGUT
_symmetry_cell_setting           monoclinic
_symmetry_space_group_name_H-M   'C 2/c'
_symmetry_Int_Tables_number      15
_space_group_name_Hall           '-C 2yn'
loop_
_symmetry_equiv_pos_site_id
_symmetry_equiv_pos_as_xyz
1 x,y,z
2 -x,y,1/2-z
3 1/2+x,1/2+y,z
4 1/2-x,1/2+y,1/2-z
5 -x,-y,-z
6 x,-y,1/2+z
7 1/2-x,1/2-y,-z
8 1/2+x,1/2-y,1/2+z
_cell_length_a                   20.481(12)
_cell_length_b                   10.090(5)
_cell_length_c                   13.992(8)
_cell_angle_alpha                90
_cell_angle_beta                 125.410(8)
_cell_angle_gamma                90
_cell_volume                     2356.64
loop_
_atom_site_label
_atom_site_type_symbol
_atom_site_fract_x
_atom_site_fract_y
_atom_site_fract_z
Zn1 Zn 0.5000 0.61927(5) 0.7500
O1 O 0.60812(14) 0.7789(2) 0.77903(19)
O2 O 0.50113(13) 0.6946(2) 0.6191(2)
O3 O 0.4128(3) 0.8932(6) 0.2376(4)
O4 O 0.74135(16) 1.1694(3) 0.5748(2)
O5 O 0.7790(2) 1.0959(5) 0.7467(3)
N1 N 0.40771(16) 0.4831(2) 0.6565(2)
N2 N 0.48567(15) 0.9154(3) 0.2798(2)
C1 C 0.56290(19) 0.7684(3) 0.6702(3)
C2 C 0.3871(3) 0.4041(5) 0.7099(4)
H1 H 0.4151 0.4106 0.7909
C3 C 0.60951(19) 1.0028(3) 0.4581(3)
H2 H 0.6194 1.0541 0.4126
C4 C 0.57903(18) 0.8476(3) 0.5945(3)
C5 C 0.3044(3) 0.3817(5) 0.4788(3)
H3 H 0.2771 0.3776 0.3978
C6 C 0.3262(3) 0.3126(5) 0.6519(4)
H4 H 0.3144 0.2593 0.6943
C7 C 0.52696(18) 0.8433(3) 0.4729(3)
H5 H 0.4814 0.7904 0.4364
C8 C 0.54350(18) 0.9189(3) 0.4058(3)
C9 C 0.28306(18) 0.2992(3) 0.5332(3)
C10 C 0.7319(2) 1.0957(4) 0.6425(3)
C11 C 0.6606(2) 1.0082(3) 0.5804(3)
C12 C 0.3661(3) 0.4713(4) 0.5423(3)
H6 H 0.3788 0.5262 0.5019
C13 C 0.6453(2) 0.9292(3) 0.6473(3)
H7 H 0.6803 0.9317 0.7287
H8 H 0.7891 1.2147 0.6174
Zn1_2 Zn 0.5000 0.61927(5) -0.2500
Zn1F Zn 0.0000 -0.11927(5) 0.2500
O1A O 0.39188(14) 0.7789(2) -0.27903(19)
O2A O 0.49887(13) 0.6946(2) -0.1191(2)
O2A_2 O 0.49887(13) 0.6946(2) 0.8809(2)
O3A O 0.5872(3) 0.8932(6) 0.2624(4)
O4A O 0.25865(16) 1.1694(3) -0.0748(2)
O5A O 0.2210(2) 1.0959(5) -0.2467(3)
N1F N 0.09229(16) 0.0169(2) 0.3435(2)
N1A N 0.59229(16) 0.4831(2) 0.8435(2)
N2A N 0.51433(15) 0.9154(3) 0.2202(2)
C1A C 0.43710(19) 0.7684(3) -0.1702(3)
C2F C 0.1129(3) 0.0959(5) 0.2901(4)
H1F H 0.0849 0.0894 0.2091
C3A C 0.39049(19) 1.0028(3) 0.0419(3)
H2A H 0.3806 1.0541 0.0874
C4A C 0.42097(18) 0.8476(3) -0.0945(3)
C5F C 0.1956(3) 0.1183(5) 0.5212(3)
H3F H 0.2229 0.1224 0.6022
C6F C 0.1738(3) 0.1874(5) 0.3481(4)
H4F H 0.1856 0.2407 0.3057
C7A C 0.47304(18) 0.8433(3) 0.0271(3)
H5A H 0.5186 0.7904 0.0636
C8A C 0.45650(18) 0.9189(3) 0.0942(3)
C9F C 0.21694(18) 0.2008(3) 0.4668(3)
C10A C 0.2681(2) 1.0957(4) -0.1425(3)
C11A C 0.3394(2) 1.0082(3) -0.0804(3)
C12F C 0.1339(3) 0.0287(4) 0.4577(3)
H6F H 0.1212 -0.0262 0.4981
C13A C 0.3547(2) 0.9292(3) -0.1473(3)
H7A H 0.3197 0.9317 -0.2287
H8A H 0.2109 1.2147 -0.1174
loop_
_geom_bond_atom_site_label_1
_geom_bond_atom_site_label_2
_geom_bond_site_symmetry_1
_geom_bond_site_symmetry_2
Zn1 O2 1_555 1_555
O1 C1 1_555 1_555
O2 C1 1_555 1_555
O3 N2 1_555 1_555
O4 C10 1_555 1_555
O5 C10 1_555 1_555
N1 Zn1 1_555 1_555
N2 C8 1_555 1_555
C1 C4 1_555 1_555
C2 N1 1_555 1_555
H1 C2 1_555 1_555
C3 H2 1_555 1_555
C4 C7 1_555 1_555
C5 H3 1_555 1_555
C6 C2 1_555 1_555
H4 C6 1_555 1_555
C7 H5 1_555 1_555
C8 C3 1_555 1_555
C9 C5 1_555 1_555
C10 C11 1_555 1_555
C11 C3 1_555 1_555
C12 N1 1_555 1_555
H6 C12 1_555 1_555
C13 C4 1_555 1_555
H7 C13 1_555 1_555
H8 O4 1_555 1_555
Zn1_2 O2A 1_555 1_555
Zn1F N1F 1_555 1_555
O1A C1A 1_555 1_555
O2A C1A 1_555 1_555
O2A_2 Zn1 1_555 1_555
O3A N2A 1_555 1_555
O4A C10A 1_555 1_555
O5A C10A 1_555 1_555
N1F C2F 1_555 1_555
N1A Zn1 1_555 1_555
N2A N2 1_555 1_555
C1A C4A 1_555 1_555
C2F H1F 1_555 1_555
C3A H2A 1_555 1_555
C4A C7A 1_555 1_555
C5F H3F 1_555 1_555
C6F C2F 1_555 1_555
H4F C6F 1_555 1_555
C7A H5A 1_555 1_555
C8A N2A 1_555 1_555
C9F C9 1_555 1_555
C10A C11A 1_555 1_555
C11A C3A 1_555 1_555
C12F N1F 1_555 1_555
H6F C12F 1_555 1_555
C13A C4A 1_555 1_555
H7A C13A 1_555 1_555
H8A O4A 1_555 1_555
C5 C12 1_555 1_555
C6 C9 1_555 1_555
C7 C8 1_555 1_555
C11 C13 1_555 1_555
C3A C8A 1_555 1_555
C5F C9F 1_555 1_555
C5F C12F 1_555 1_555
C6F C9F 1_555 1_555
C7A C8A 1_555 1_555
C11A C13A 1_555 1_555

#END
