
#######################################################################
#
#                 Cambridge Crystallographic Data Centre
#                                CCDC 
#
#######################################################################
#
# If this CIF has been generated from an entry in the Cambridge 
# Structural Database, then it will include bibliographic, chemical, 
# crystal, experimental, refinement or atomic coordinate data resulting 
# from the CCDC's data processing and validation procedures.
#
#######################################################################

data_ISOHAA
_symmetry_cell_setting           triclinic
_symmetry_space_group_name_H-M   'P -1'
_symmetry_Int_Tables_number      2
_space_group_name_Hall           '-P 1'
loop_
_symmetry_equiv_pos_site_id
_symmetry_equiv_pos_as_xyz
1 x,y,z
2 -x,-y,-z
_cell_length_a                   8.2330(16)
_cell_length_b                   9.1285(16)
_cell_length_c                   10.7920(16)
_cell_angle_alpha                97.510(3)
_cell_angle_beta                 103.711(5)
_cell_angle_gamma                112.582(6)
_cell_volume                     704.973
loop_
_atom_site_label
_atom_site_type_symbol
_atom_site_fract_x
_atom_site_fract_y
_atom_site_fract_z
O7 O 1.3556(8) 0.9590(7) 0.3672(5)
Zn1 Zn 1.07382(6) 0.84002(5) -0.00289(4)
O1 O 0.8890(4) 0.6746(3) 0.0501(3)
N1 N 1.0404(4) 0.7233(4) -0.1896(3)
C1 C 0.8754(5) 0.7155(4) 0.1636(4)
O2 O 0.9805(4) 0.8458(4) 0.2453(3)
N2 N 0.5317(5) 0.5555(4) 0.4730(3)
C2 C 0.7214(5) 0.5903(4) 0.1959(3)
O3 O 0.3883(4) 0.1047(4) -0.0413(3)
C3 C 0.6091(5) 0.4371(4) 0.1095(3)
H1 H 0.6294 0.4113 0.0300
O4 O 0.1883(3) 0.0774(3) 0.0700(3)
C4 C 0.4666(5) 0.3223(4) 0.1416(3)
O5 O 0.5712(15) 0.7212(9) 0.5082(7)
C5 C 0.3425(5) 0.1583(4) 0.0478(3)
O6 O 1.2960(4) 0.8036(4) 0.1039(3)
C6 C 0.4379(5) 0.3572(4) 0.2605(3)
H2 H 0.3432 0.2804 0.2823
C7 C 0.5533(5) 0.5095(5) 0.3474(4)
C8 C 0.6911(5) 0.6274(5) 0.3144(4)
H3 H 0.7625 0.7306 0.3715
C9 C 1.1231(7) 0.7987(5) -0.2701(4)
H4 H 1.1925 0.9116 -0.2438
C10 C 1.1098(8) 0.7155(5) -0.3914(4)
H5 H 1.1714 0.7728 -0.4440
C11 C 1.0056(5) 0.5475(4) -0.4353(3)
C12 C 0.9146(5) 0.4703(5) -0.3533(4)
H6 H 0.8390 0.3583 -0.3796
C13 C 0.9366(5) 0.5608(4) -0.2315(4)
H7 H 0.8768 0.5065 -0.1767
H8 H 1.390(7) 0.842(5) 0.077(4)
H9 H 1.324(7) 0.852(6) 0.168(5)
Zn1A Zn -0.07382(6) 0.15998(5) 1.00289(4)
Zn1_2 Zn 0.07382(6) -0.15998(5) -0.00289(4)
Zn1A_2 Zn 0.92618(6) 1.15998(5) 1.00289(4)
Zn1A_3 Zn 0.92618(6) 0.15998(5) -0.99711(4)
O1A O 0.1110(4) 0.3254(3) 0.9499(3)
N1A N 0.9596(4) 0.2767(4) -0.8104(3)
N1A_2 N -0.0404(4) 0.2767(4) 1.1896(3)
C1A C 0.1246(5) 0.2845(4) 0.8364(4)
O2A O 0.0195(4) 0.1542(4) 0.7547(3)
N2A N 0.4683(5) 0.4445(4) 0.5270(3)
C2A C 0.2786(5) 0.4097(4) 0.8041(3)
O3A O 0.6117(4) 0.8953(4) 1.0413(3)
C3A C 0.3909(5) 0.5629(4) 0.8905(3)
H1A H 0.3706 0.5887 0.9700
O4A O 0.8117(3) 0.9226(3) 0.9300(3)
O4_2 O 1.1883(3) 1.0774(3) 0.0700(3)
O4A_2 O -0.1883(3) -0.0774(3) 0.9300(3)
C4A C 0.5334(5) 0.6777(4) 0.8584(3)
O5A O 0.4288(15) 0.2788(9) 0.4918(7)
C5A C 0.6575(5) 0.8417(4) 0.9522(3)
O6A O -0.2960(4) 0.1964(4) 0.8961(3)
C6A C 0.5621(5) 0.6428(4) 0.7395(3)
H2A H 0.6568 0.7196 0.7177
C7A C 0.4467(5) 0.4905(5) 0.6526(4)
C8A C 0.3089(5) 0.3726(5) 0.6856(4)
H3A H 0.2375 0.2694 0.6285
C9A C 0.8769(7) 0.2013(5) -0.7299(4)
H4A H 0.8075 0.0884 -0.7562
C10A C 0.8902(8) 0.2845(5) -0.6086(4)
H5A H 0.8286 0.2272 -0.5560
C11A C 0.9944(5) 0.4525(4) -0.5647(3)
C12A C 1.0854(5) 0.5297(5) -0.6467(4)
H6A H 1.1610 0.6417 -0.6204
C13A C 1.0634(5) 0.4392(4) -0.7685(4)
H7A H 1.1232 0.4935 -0.8233
H8A H -0.390(7) 0.158(5) 0.923(4)
H9A H -0.324(7) 0.148(6) 0.832(5)
loop_
_geom_bond_atom_site_label_1
_geom_bond_atom_site_label_2
_geom_bond_site_symmetry_1
_geom_bond_site_symmetry_2
Zn1 O1 1_555 1_555
O1 C1 1_555 1_555
N1 Zn1 1_555 1_555
C1 O2 1_555 1_555
N2 O5 1_555 1_555
C2 C1 1_555 1_555
O3 C5 1_555 1_555
C3 C2 1_555 1_555
H1 C3 1_555 1_555
O4 C5 1_555 1_555
C4 C3 1_555 1_555
C5 C4 1_555 1_555
O6 Zn1 1_555 1_555
C6 C4 1_555 1_555
H2 C6 1_555 1_555
C7 N2 1_555 1_555
C8 C2 1_555 1_555
H3 C8 1_555 1_555
C9 N1 1_555 1_555
H4 C9 1_555 1_555
C10 C9 1_555 1_555
H5 C10 1_555 1_555
C11 C10 1_555 1_555
C12 C11 1_555 1_555
H6 C12 1_555 1_555
C13 N1 1_555 1_555
H7 C13 1_555 1_555
H8 O6 1_555 1_555
H9 O6 1_555 1_555
Zn1A O1A 1_555 1_555
Zn1_2 O4 1_555 1_555
Zn1A_2 O4A 1_555 1_555
Zn1A_3 N1A 1_555 1_555
O1A C1A 1_555 1_555
N1A C9A 1_555 1_555
N1A_2 Zn1A 1_555 1_555
C1A O2A 1_555 1_555
N2A N2 1_555 1_555
C2A C1A 1_555 1_555
O3A C5A 1_555 1_555
C3A C2A 1_555 1_555
H1A C3A 1_555 1_555
O4A C5A 1_555 1_555
O4_2 Zn1 1_555 1_555
O4A_2 Zn1A 1_555 1_555
C4A C3A 1_555 1_555
O5A N2A 1_555 1_555
C5A C4A 1_555 1_555
O6A Zn1A 1_555 1_555
C6A C4A 1_555 1_555
H2A C6A 1_555 1_555
C7A N2A 1_555 1_555
C8A C2A 1_555 1_555
H3A C8A 1_555 1_555
C9A H4A 1_555 1_555
C10A C9A 1_555 1_555
H5A C10A 1_555 1_555
C11A C11 1_555 1_555
C12A C11A 1_555 1_555
H6A C12A 1_555 1_555
C13A N1A 1_555 1_555
H7A C13A 1_555 1_555
H8A O6A 1_555 1_555
H9A O6A 1_555 1_555
C6 C7 1_555 1_555
C7 C8 1_555 1_555
C12 C13 1_555 1_555
C6A C7A 1_555 1_555
C7A C8A 1_555 1_555
C10A C11A 1_555 1_555
C12A C13A 1_555 1_555

#END
