
#######################################################################
#
#                 Cambridge Crystallographic Data Centre
#                                CCDC 
#
#######################################################################
#
# If this CIF has been generated from an entry in the Cambridge 
# Structural Database, then it will include bibliographic, chemical, 
# crystal, experimental, refinement or atomic coordinate data resulting 
# from the CCDC's data processing and validation procedures.
#
#######################################################################

data_ISOJUV
_symmetry_cell_setting           monoclinic
_symmetry_space_group_name_H-M   'C 2/c'
_symmetry_Int_Tables_number      15
_space_group_name_Hall           '-C 2yn'
loop_
_symmetry_equiv_pos_site_id
_symmetry_equiv_pos_as_xyz
1 x,y,z
2 1/2+x,1/2+y,z
3 x,-y,1/2+z
4 1/2+x,1/2-y,1/2+z
5 -x,-y,-z
6 1/2-x,1/2-y,-z
7 -x,y,1/2-z
8 1/2-x,1/2+y,1/2-z
_cell_length_a                   13.256(3)
_cell_length_b                   6.8800(14)
_cell_length_c                   10.080(2)
_cell_angle_alpha                90
_cell_angle_beta                 118.92(3)
_cell_angle_gamma                90
_cell_volume                     804.667
loop_
_atom_site_label
_atom_site_type_symbol
_atom_site_fract_x
_atom_site_fract_y
_atom_site_fract_z
Zn1 Zn 0.5000 0.41963(5) 0.2500
N1 N 0.5000 0.1218(4) 0.2500
O1 O 0.31893(18) 0.0835(3) 0.4105(3)
O2 O 0.39397(15) 0.3392(3) 0.3527(2)
O3 O 0.65061(16) 0.4300(3) 0.4639(2)
C1 C 0.43632(19) 0.0278(3) 0.2977(2)
C2 C 0.37612(18) 0.1594(4) 0.3581(2)
C3 C 0.4336(2) -0.1740(3) 0.2933(3)
N2 N 0.5000 -0.2726(4) 0.2500
H1 H 0.392(3) -0.236(5) 0.328(4)
H2 H 0.701(3) 0.466(5) 0.448(4)
H3 H 0.644(3) 0.505(7) 0.525(5)
C3F C 0.5664(2) -0.1740(3) 0.2067(3)
C1F C 0.56368(19) 0.0278(3) 0.2023(2)
C2F C 0.62388(18) 0.1594(4) 0.1419(2)
O1F O 0.68107(18) 0.0835(3) 0.0895(3)
O2F O 0.60603(15) 0.3392(3) 0.1473(2)
H1F H 0.608(3) -0.236(5) 0.172(4)
O3F O 0.34939(16) 0.4300(3) 0.0361(2)
H2F H 0.299(3) 0.466(5) 0.052(4)
H3F H 0.356(3) 0.505(7) -0.025(5)
N2_2 N 0.5000 0.7274(4) 0.2500
Zn1_2 Zn 0.5000 -0.58037(5) 0.2500
loop_
_geom_bond_atom_site_label_1
_geom_bond_atom_site_label_2
_geom_bond_site_symmetry_1
_geom_bond_site_symmetry_2
Zn1 N1 1_555 1_555
N1 C1 1_555 1_555
O1 C2 1_555 1_555
O2 Zn1 1_555 1_555
O3 Zn1 1_555 1_555
C1 C2 1_555 1_555
C2 O2 1_555 1_555
C3 C1 1_555 1_555
N2 C3 1_555 1_555
H1 C3 1_555 1_555
H2 O3 1_555 1_555
H3 O3 1_555 1_555
C3F N2 1_555 1_555
C1F N1 1_555 1_555
C2F C1F 1_555 1_555
O1F C2F 1_555 1_555
O2F Zn1 1_555 1_555
H1F C3F 1_555 1_555
O3F Zn1 1_555 1_555
H2F O3F 1_555 1_555
H3F O3F 1_555 1_555
N2_2 Zn1 1_555 1_555
Zn1_2 N2 1_555 1_555
C3F C1F 1_555 1_555
C2F O2F 1_555 1_555

#END
