
#######################################################################
#
#                 Cambridge Crystallographic Data Centre
#                                CCDC 
#
#######################################################################
#
# If this CIF has been generated from an entry in the Cambridge 
# Structural Database, then it will include bibliographic, chemical, 
# crystal, experimental, refinement or atomic coordinate data resulting 
# from the CCDC's data processing and validation procedures.
#
#######################################################################

data_ISOJOQ
_symmetry_cell_setting           tetragonal
_symmetry_space_group_name_H-M   'P 43 21 2'
_symmetry_Int_Tables_number      96
_space_group_name_Hall           'P 4nw 2abw'
loop_
_symmetry_equiv_pos_site_id
_symmetry_equiv_pos_as_xyz
1 x,y,z
2 1/2-y,1/2+x,3/4+z
3 -x,-y,1/2+z
4 1/2+y,1/2-x,1/4+z
5 1/2+x,1/2-y,1/4-z
6 y,x,-z
7 1/2-x,1/2+y,3/4-z
8 -y,-x,1/2-z
_cell_length_a                   13.8954(15)
_cell_length_b                   13.8954(15)
_cell_length_c                   17.787(2)
_cell_angle_alpha                90
_cell_angle_beta                 90
_cell_angle_gamma                90
_cell_volume                     3434.35
loop_
_atom_site_label
_atom_site_type_symbol
_atom_site_fract_x
_atom_site_fract_y
_atom_site_fract_z
C1 C 0.2825(9) 0.2678(9) 0.3201(6)
C2 C 0.2923(8) 0.1645(8) 0.3414(7)
C3 C 0.4007(10) 0.1654(9) 0.3742(8)
H1 H 0.4000 0.1778 0.4279
H2 H 0.4316 0.1038 0.3655
C4 C 0.4521(9) 0.2412(10) 0.3353(9)
H3 H 0.5061 0.2144 0.3079
H4 H 0.4765 0.2877 0.3712
C5 C 0.3812(8) 0.2916(8) 0.2794(7)
H5 H 0.3835 0.2591 0.2305
C6 C 0.2165(11) 0.1341(8) 0.4006(8)
C7 C 0.2824(12) 0.0984(12) 0.2784(8)
H6 H 0.2887 0.0334 0.2960
H7 H 0.3317 0.1114 0.2419
H8 H 0.2203 0.1067 0.2556
C8 C 0.1997(11) 0.2901(12) 0.2714(10)
H9 H 0.2020 0.2504 0.2273
H10 H 0.2022 0.3567 0.2569
H11 H 0.1411 0.2779 0.2983
C9 C 0.2646(10) 0.3385(10) 0.3805(10)
H12 H 0.2645 0.4022 0.3598
H13 H 0.3143 0.3334 0.4178
H14 H 0.2033 0.3256 0.4033
C10 C 0.4011(9) 0.3990(8) 0.2692(6)
In1 In 0.08733(5) 0.08733(5) 0.5000
O1 O 0.2451(6) 0.1053(6) 0.4646(4)
O2 O 0.1322(6) 0.1350(6) 0.3852(5)
O3 O 0.4510(6) 0.4430(5) 0.3169(5)
O4 O 0.3655(6) 0.4417(6) 0.2145(5)
C1E C 0.2678(9) 0.2825(9) 0.6799(6)
C2E C 0.1645(8) 0.2923(8) 0.6586(7)
C3E C 0.1654(9) 0.4007(10) 0.6258(8)
H1E H 0.1778 0.4000 0.5721
H2E H 0.1038 0.4316 0.6345
C4E C 0.2412(10) 0.4521(9) 0.6647(9)
H3E H 0.2144 0.5061 0.6921
H4E H 0.2877 0.4765 0.6288
C5E C 0.2916(8) 0.3812(8) 0.7206(7)
H5E H 0.2591 0.3835 0.7695
C6E C 0.1341(8) 0.2165(11) 0.5994(8)
C7E C 0.0984(12) 0.2824(12) 0.7216(8)
H6E H 0.0334 0.2887 0.7040
H7E H 0.1114 0.3317 0.7581
H8E H 0.1067 0.2203 0.7444
C8E C 0.2901(12) 0.1997(11) 0.7286(10)
H9E H 0.2504 0.2020 0.7727
H10E H 0.3567 0.2022 0.7431
H11E H 0.2779 0.1411 0.7017
C9E C 0.3385(10) 0.2646(10) 0.6195(10)
H12E H 0.4022 0.2645 0.6402
H13E H 0.3334 0.3143 0.5822
H14E H 0.3256 0.2033 0.5967
C10E C 0.3990(8) 0.4011(9) 0.7308(6)
In1A In 0.41267(5) 0.58733(5) 0.2500
In1C In 0.58733(5) 0.41267(5) 0.7500
O1E O 0.1053(6) 0.2451(6) 0.5354(4)
O2E O 0.1350(6) 0.1322(6) 0.6148(5)
O3E O 0.4430(5) 0.4510(6) 0.6831(5)
O3C O -0.0570(5) 0.0490(6) 0.5669(5)
O3F O 0.0490(6) -0.0570(5) 0.4331(5)
O4E O 0.4417(6) 0.3655(6) 0.7855(5)
O4C O -0.0583(6) 0.1345(6) 0.4645(5)
O4F O 0.1345(6) -0.0583(6) 0.5355(5)
loop_
_geom_bond_atom_site_label_1
_geom_bond_atom_site_label_2
_geom_bond_site_symmetry_1
_geom_bond_site_symmetry_2
C1 C2 1_555 1_555
C2 C3 1_555 1_555
C3 H1 1_555 1_555
H2 C3 1_555 1_555
C4 C3 1_555 1_555
H3 C4 1_555 1_555
H4 C4 1_555 1_555
C5 C1 1_555 1_555
H5 C5 1_555 1_555
C6 C2 1_555 1_555
C7 C2 1_555 1_555
H6 C7 1_555 1_555
H7 C7 1_555 1_555
H8 C7 1_555 1_555
C8 C1 1_555 1_555
H9 C8 1_555 1_555
H10 C8 1_555 1_555
H11 C8 1_555 1_555
C9 C1 1_555 1_555
H12 C9 1_555 1_555
H13 C9 1_555 1_555
H14 C9 1_555 1_555
C10 C5 1_555 1_555
In1 O1 1_555 1_555
O1 C6 1_555 1_555
O2 C6 1_555 1_555
O3 C10 1_555 1_555
O4 C10 1_555 1_555
C1E C2E 1_555 1_555
C2E C3E 1_555 1_555
C3E H1E 1_555 1_555
H2E C3E 1_555 1_555
C4E C3E 1_555 1_555
H3E C4E 1_555 1_555
H4E C4E 1_555 1_555
C5E C1E 1_555 1_555
H5E C5E 1_555 1_555
C6E C2E 1_555 1_555
C7E C2E 1_555 1_555
H6E C7E 1_555 1_555
H7E C7E 1_555 1_555
H8E C7E 1_555 1_555
C8E C1E 1_555 1_555
H9E C8E 1_555 1_555
H10E C8E 1_555 1_555
H11E C8E 1_555 1_555
C9E C1E 1_555 1_555
H12E C9E 1_555 1_555
H13E C9E 1_555 1_555
H14E C9E 1_555 1_555
C10E C5E 1_555 1_555
In1A O3 1_555 1_555
In1C O3E 1_555 1_555
O1E In1 1_555 1_555
O2E In1 1_555 1_555
O3E C10E 1_555 1_555
O3C In1 1_555 1_555
O3F In1 1_555 1_555
O4E C10E 1_555 1_555
O4C In1 1_555 1_555
O4F In1 1_555 1_555
C4 C5 1_555 1_555
In1 O2 1_555 1_555
O4 In1A 1_555 1_555
C4E C5E 1_555 1_555
C6E O1E 1_555 1_555
C6E O2E 1_555 1_555
In1C O4E 1_555 1_555

#END
