
#######################################################################
#
#                 Cambridge Crystallographic Data Centre
#                                CCDC 
#
#######################################################################
#
# If this CIF has been generated from an entry in the Cambridge 
# Structural Database, then it will include bibliographic, chemical, 
# crystal, experimental, refinement or atomic coordinate data resulting 
# from the CCDC's data processing and validation procedures.
#
#######################################################################

data_ISOPUB01
_symmetry_cell_setting           monoclinic
_symmetry_space_group_name_H-M   'P 21/c'
_symmetry_Int_Tables_number      14
_space_group_name_Hall           '-P 2ybc'
loop_
_symmetry_equiv_pos_site_id
_symmetry_equiv_pos_as_xyz
1 x,y,z
2 x,1/2-y,1/2+z
3 -x,-y,-z
4 -x,1/2+y,1/2-z
_cell_length_a                   8.156(3)
_cell_length_b                   10.102(4)
_cell_length_c                   10.085(4)
_cell_angle_alpha                90
_cell_angle_beta                 104.952(5)
_cell_angle_gamma                90
_cell_volume                     802.789
loop_
_atom_site_label
_atom_site_type_symbol
_atom_site_fract_x
_atom_site_fract_y
_atom_site_fract_z
Ag1 Ag 0.60518(3) 0.38391(3) 0.21807(3)
S1 S 0.34256(9) 0.36824(7) 0.01671(8)
O1 O 0.5097(3) 0.14211(19) 0.2096(2)
O2 O 0.3330(3) -0.00211(19) 0.0799(2)
N1 N -0.1344(3) 0.3571(2) 0.1726(2)
C1 C -0.1006(3) 0.2593(3) 0.0946(3)
H1 H -0.1787 0.1907 0.0712
C2 C 0.0428(3) 0.2538(3) 0.0469(3)
H2 H 0.0605 0.1832 -0.0069
C3 C 0.1610(3) 0.3560(3) 0.0806(3)
C4 C 0.1289(3) 0.4581(3) 0.1627(3)
H3 H 0.2052 0.5277 0.1881
C5 C -0.0181(4) 0.4541(3) 0.2058(3)
H4 H -0.0382 0.5226 0.2612
C6 C 0.3785(4) 0.1992(3) -0.0241(3)
H5 H 0.2806 0.1678 -0.0936
H6 H 0.4757 0.1959 -0.0627
C7 C 0.4103(4) 0.1061(2) 0.1002(3)
O2C O 0.6670(3) 0.49789(19) 0.4201(2)
N1_2 N 0.8656(3) 0.3571(2) 0.1726(2)
Ag1C Ag 0.39482(3) -0.11609(3) 0.28193(3)
Ag1_2 Ag -0.39482(3) 0.38391(3) 0.21807(3)
loop_
_geom_bond_atom_site_label_1
_geom_bond_atom_site_label_2
_geom_bond_site_symmetry_1
_geom_bond_site_symmetry_2
Ag1 S1 1_555 1_555
S1 C3 1_555 1_555
O1 Ag1 1_555 1_555
O2 C7 1_555 1_555
N1 C1 1_555 1_555
C1 H1 1_555 1_555
C2 C1 1_555 1_555
H2 C2 1_555 1_555
C3 C2 1_555 1_555
C4 C3 1_555 1_555
H3 C4 1_555 1_555
C5 N1 1_555 1_555
H4 C5 1_555 1_555
C6 S1 1_555 1_555
H5 C6 1_555 1_555
H6 C6 1_555 1_555
C7 O1 1_555 1_555
O2C Ag1 1_555 1_555
N1_2 Ag1 1_555 1_555
Ag1C O2 1_555 1_555
Ag1_2 N1 1_555 1_555
C4 C5 1_555 1_555
C6 C7 1_555 1_555

#END
