
#######################################################################
#
#                 Cambridge Crystallographic Data Centre
#                                CCDC 
#
#######################################################################
#
# If this CIF has been generated from an entry in the Cambridge 
# Structural Database, then it will include bibliographic, chemical, 
# crystal, experimental, refinement or atomic coordinate data resulting 
# from the CCDC's data processing and validation procedures.
#
#######################################################################

data_ISOQEM01
_symmetry_cell_setting           triclinic
_symmetry_space_group_name_H-M   'P -1'
_symmetry_Int_Tables_number      2
_space_group_name_Hall           '-P 1'
loop_
_symmetry_equiv_pos_site_id
_symmetry_equiv_pos_as_xyz
1 x,y,z
2 -x,-y,-z
_cell_length_a                   5.6783(7)
_cell_length_b                   10.2533(13)
_cell_length_c                   11.7581(14)
_cell_angle_alpha                72.638(2)
_cell_angle_beta                 80.446(2)
_cell_angle_gamma                86.637(2)
_cell_volume                     644.289
loop_
_atom_site_label
_atom_site_type_symbol
_atom_site_fract_x
_atom_site_fract_y
_atom_site_fract_z
As1 As 0.67410(4) -0.10972(2) 0.11029(2)
Cu1 Cu 0.66768(5) -0.11844(3) -0.16981(2)
V1 V 1.14400(6) -0.20559(4) 0.24949(3)
O1 O 0.7514(3) -0.06187(17) -0.03867(14)
O2 O 0.8951(3) -0.21507(16) 0.17029(15)
O3 O 0.4350(3) -0.21815(17) 0.15372(15)
O4 O 0.6320(3) 0.01874(16) 0.17072(15)
O5 O 0.8690(3) 0.07058(17) -0.29737(15)
O6 O 1.1265(3) -0.33925(17) 0.36641(16)
N1 N 0.5989(3) -0.1881(2) -0.30143(17)
N2 N 0.9216(3) -0.26214(19) -0.16140(17)
C1 C 0.4285(4) -0.1395(2) -0.3698(2)
C2 C 0.3995(5) -0.1889(3) -0.4647(2)
C3 C 0.5517(5) -0.2918(3) -0.4880(2)
C4 C 0.7270(5) -0.3439(3) -0.4163(2)
C5 C 0.7453(4) -0.2900(2) -0.3231(2)
C6 C 0.9243(4) -0.3356(2) -0.2405(2)
C7 C 1.0844(4) -0.4431(2) -0.2417(2)
C8 C 1.2484(4) -0.4741(2) -0.1613(2)
C9 C 1.2481(4) -0.3960(2) -0.0831(2)
C10 C 1.0821(4) -0.2904(2) -0.0852(2)
H1 H 0.331(5) -0.072(3) -0.350(3)
H2 H 0.275(7) -0.154(4) -0.503(3)
H3 H 0.536(6) -0.328(3) -0.547(3)
H4 H 0.835(5) -0.414(3) -0.428(3)
H5 H 1.089(6) -0.490(3) -0.296(3)
H6 H 1.362(6) -0.550(3) -0.160(3)
H7 H 1.356(5) -0.412(3) -0.028(3)
H8 H 1.087(5) -0.234(3) -0.035(2)
Cu1A Cu 0.33232(5) 0.11844(3) 0.16981(2)
V1_2 V 0.14400(6) -0.20559(4) 0.24949(3)
V1A V 0.85600(6) 0.20559(4) -0.24949(3)
O3_2 O 1.4350(3) -0.21815(17) 0.15372(15)
O4A O 0.3680(3) -0.01874(16) -0.17072(15)
O5A O 1.1310(3) -0.07058(17) 0.29737(15)
loop_
_geom_bond_atom_site_label_1
_geom_bond_atom_site_label_2
_geom_bond_site_symmetry_1
_geom_bond_site_symmetry_2
As1 O1 1_555 1_555
Cu1 O1 1_555 1_555
V1 O2 1_555 1_555
O2 As1 1_555 1_555
O3 As1 1_555 1_555
O4 As1 1_555 1_555
O5 Cu1 1_555 1_555
O6 V1 1_555 1_555
N1 Cu1 1_555 1_555
N2 Cu1 1_555 1_555
C1 N1 1_555 1_555
C2 C1 1_555 1_555
C3 C2 1_555 1_555
C4 C3 1_555 1_555
C5 N1 1_555 1_555
C6 N2 1_555 1_555
C7 C6 1_555 1_555
C8 C7 1_555 1_555
C9 C8 1_555 1_555
C10 N2 1_555 1_555
H1 C1 1_555 1_555
H2 C2 1_555 1_555
H3 C3 1_555 1_555
H4 C4 1_555 1_555
H5 C7 1_555 1_555
H6 C8 1_555 1_555
H7 C9 1_555 1_555
H8 C10 1_555 1_555
Cu1A O4 1_555 1_555
V1_2 O3 1_555 1_555
V1A O5 1_555 1_555
O3_2 V1 1_555 1_555
O4A Cu1 1_555 1_555
O5A V1 1_555 1_555
C4 C5 1_555 1_555
C5 C6 1_555 1_555
C9 C10 1_555 1_555

#END
