
#######################################################################
#
#                 Cambridge Crystallographic Data Centre
#                                CCDC 
#
#######################################################################
#
# If this CIF has been generated from an entry in the Cambridge 
# Structural Database, then it will include bibliographic, chemical, 
# crystal, experimental, refinement or atomic coordinate data resulting 
# from the CCDC's data processing and validation procedures.
#
#######################################################################

data_ISOQEM
_symmetry_cell_setting           triclinic
_symmetry_space_group_name_H-M   'P -1'
_symmetry_Int_Tables_number      2
_space_group_name_Hall           '-P 1'
loop_
_symmetry_equiv_pos_site_id
_symmetry_equiv_pos_as_xyz
1 x,y,z
2 -x,-y,-z
_cell_length_a                   5.6848(11)
_cell_length_b                   10.275(2)
_cell_length_c                   11.807(2)
_cell_angle_alpha                73.70(3)
_cell_angle_beta                 80.48(3)
_cell_angle_gamma                86.09(3)
_cell_volume                     652.653
loop_
_atom_site_label
_atom_site_type_symbol
_atom_site_fract_x
_atom_site_fract_y
_atom_site_fract_z
As1 As 0.17672(6) -0.10973(3) 0.10935(3)
Cu1 Cu 0.16921(7) -0.11855(4) -0.16989(3)
V1 V 0.64885(10) -0.20445(6) 0.24742(5)
O1 O 0.2515(5) -0.0651(3) -0.0376(2)
O2 O 0.1324(4) 0.0193(2) 0.1681(2)
O3 O 0.3996(4) -0.2130(2) 0.1686(2)
O4 O 0.3654(5) 0.0705(3) -0.2958(2)
O5 O -0.0607(4) -0.2166(3) 0.1525(2)
N1 N 0.1001(5) -0.1876(3) -0.3016(2)
O6 O 0.6347(5) -0.3372(3) 0.3618(2)
N2 N 0.4252(5) -0.2621(3) -0.1636(3)
C1 C 0.4267(7) -0.3346(4) -0.2427(3)
C2 C 0.2479(7) -0.2887(4) -0.3239(3)
C3 C 0.2310(8) -0.3402(5) -0.4181(4)
H1 H 0.3368 -0.4080 -0.4347
C4 C -0.0684(7) -0.1379(4) -0.3699(3)
H2 H -0.1693 -0.0682 -0.3533
C5 C 0.7497(7) -0.4733(4) -0.1633(4)
H3 H 0.8584 -0.5452 -0.1627
C6 C -0.0972(8) -0.1868(5) -0.4641(3)
H4 H -0.2159 -0.1512 -0.5105
C7 C 0.5853(7) -0.2906(4) -0.0886(3)
H5 H 0.5874 -0.2373 -0.0369
C8 C 0.7485(7) -0.3976(4) -0.0859(4)
H6 H 0.8559 -0.4172 -0.0316
C9 C 0.5860(8) -0.4422(4) -0.2442(4)
H7 H 0.5845 -0.4931 -0.2980
C10 C 0.0536(9) -0.2895(5) -0.4880(4)
H8 H 0.0370 -0.3248 -0.5506
O2A O -0.1324(4) -0.0193(2) -0.1681(2)
O4A O 0.6346(5) -0.0705(3) 0.2958(2)
O5_2 O 0.9393(4) -0.2166(3) 0.1525(2)
Cu1A Cu -0.16921(7) 0.11855(4) 0.16989(3)
V1A V 0.35115(10) 0.20445(6) -0.24742(5)
V1_2 V -0.35115(10) -0.20445(6) 0.24742(5)
loop_
_geom_bond_atom_site_label_1
_geom_bond_atom_site_label_2
_geom_bond_site_symmetry_1
_geom_bond_site_symmetry_2
As1 O1 1_555 1_555
Cu1 O1 1_555 1_555
V1 O3 1_555 1_555
O2 As1 1_555 1_555
O3 As1 1_555 1_555
O4 Cu1 1_555 1_555
O5 As1 1_555 1_555
N1 Cu1 1_555 1_555
O6 V1 1_555 1_555
N2 Cu1 1_555 1_555
C1 N2 1_555 1_555
C2 N1 1_555 1_555
C3 C2 1_555 1_555
H1 C3 1_555 1_555
C4 N1 1_555 1_555
H2 C4 1_555 1_555
C5 H3 1_555 1_555
C6 C4 1_555 1_555
H4 C6 1_555 1_555
C7 N2 1_555 1_555
H5 C7 1_555 1_555
C8 C5 1_555 1_555
H6 C8 1_555 1_555
C9 C1 1_555 1_555
H7 C9 1_555 1_555
C10 C3 1_555 1_555
H8 C10 1_555 1_555
O2A Cu1 1_555 1_555
O4A V1 1_555 1_555
O5_2 V1 1_555 1_555
Cu1A O2 1_555 1_555
V1A O4 1_555 1_555
V1_2 O5 1_555 1_555
C1 C2 1_555 1_555
C5 C9 1_555 1_555
C6 C10 1_555 1_555
C7 C8 1_555 1_555

#END
