
#######################################################################
#
#                 Cambridge Crystallographic Data Centre
#                                CCDC 
#
#######################################################################
#
# If this CIF has been generated from an entry in the Cambridge 
# Structural Database, then it will include bibliographic, chemical, 
# crystal, experimental, refinement or atomic coordinate data resulting 
# from the CCDC's data processing and validation procedures.
#
#######################################################################

data_ISORAJ
_symmetry_cell_setting           triclinic
_symmetry_space_group_name_H-M   'P -1'
_symmetry_Int_Tables_number      2
_space_group_name_Hall           '-P 1'
loop_
_symmetry_equiv_pos_site_id
_symmetry_equiv_pos_as_xyz
1 x,y,z
2 -x,-y,-z
_cell_length_a                   8.7421(17)
_cell_length_b                   9.964(2)
_cell_length_c                   10.828(2)
_cell_angle_alpha                108.51(3)
_cell_angle_beta                 103.44(3)
_cell_angle_gamma                100.33(3)
_cell_volume                     836.502
loop_
_atom_site_label
_atom_site_type_symbol
_atom_site_fract_x
_atom_site_fract_y
_atom_site_fract_z
Zn1 Zn 0.07112(5) 0.43838(4) 0.29804(4)
Na1 Na 0.42448(16) 0.63800(15) 0.55855(14)
O1 O 0.1974(3) 0.4579(3) 0.1760(2)
O2 O 0.4398(3) 0.4993(3) 0.3261(2)
O3 O -0.2567(3) 0.3262(3) 0.3031(3)
O4 O -0.0931(3) 0.2511(3) 0.1841(3)
O5 O 0.2514(3) 0.7442(3) 0.4499(3)
O6 O -0.0089(3) 0.6112(2) 0.3649(2)
O7 O 0.6823(3) 0.8170(3) 0.6303(3)
O8 O 0.1963(3) 0.4072(2) 0.4624(2)
H1 H 0.2298 0.3306 0.4402
H2 H 0.1411 0.4033 0.5168
N1 N 0.7636(4) 1.0603(3) 0.7629(3)
C1 C 0.3526(4) 0.4839(4) 0.2116(3)
C2 C 0.4283(4) 0.4942(3) 0.1016(3)
C3 C 0.5958(4) 0.5149(4) 0.1275(3)
H3 H 0.6625 0.5251 0.2158
C4 C 0.3334(4) 0.4793(4) -0.0266(3)
H4 H 0.2176 0.4649 -0.0453
C5 C -0.2319(4) 0.2402(4) 0.2048(3)
C6 C -0.3696(4) 0.1147(4) 0.0988(3)
C7 C -0.3422(4) -0.0136(4) 0.0202(3)
H5 H -0.2328 -0.0231 0.0343
C8 C -0.5282(4) 0.1272(4) 0.0777(4)
H6 H -0.5477 0.2156 0.1318
C9 C 0.1049(4) 0.7341(4) 0.4254(3)
C10 C 0.0479(4) 0.8708(3) 0.4651(3)
C11 C -0.1077(4) 0.8717(4) 0.3991(4)
H7 H -0.1827 0.7828 0.3293
C12 C 0.1547(4) 0.9994(4) 0.5660(4)
H8 H 0.2623 0.9987 0.6123
C13 C 0.7892(5) 0.9314(4) 0.7123(4)
H9 H 0.8956 0.9247 0.7398
C14 C 0.8953(6) 1.1889(5) 0.8615(4)
H10 H 0.9958 1.1617 0.8792
H11 H 0.8695 1.2248 0.9454
H12 H 0.9071 1.2646 0.8246
C15 C 0.6017(6) 1.0814(5) 0.7239(5)
H13 H 0.5259 0.9901 0.6592
H14 H 0.6049 1.1540 0.6831
H15 H 0.5672 1.1142 0.8038
C4A C 0.6666(4) 0.5207(4) 0.0266(3)
C2A C 0.5717(4) 0.5058(3) -0.1016(3)
C1A C 0.6474(4) 0.5161(4) -0.2116(3)
O1A O 0.8026(3) 0.5421(3) -0.1760(2)
O2A O 0.5602(3) 0.5007(3) -0.3261(2)
C3A C 0.4042(4) 0.4851(4) -0.1275(3)
H3A H 0.3375 0.4749 -0.2158
H4A H 0.7824 0.5351 0.0453
C8A C -0.4718(4) -0.1272(4) -0.0777(4)
C6A C -0.6304(4) -0.1147(4) -0.0988(3)
C5A C -0.7681(4) -0.2402(4) -0.2048(3)
O3A O -0.7433(3) -0.3262(3) -0.3031(3)
O4A O -0.9069(3) -0.2511(3) -0.1841(3)
C7A C -0.6578(4) 0.0136(4) -0.0202(3)
H5A H -0.7672 0.0231 -0.0343
H6A H -0.4523 -0.2156 -0.1318
C12A C -0.1547(4) 1.0006(4) 0.4340(4)
C10A C -0.0479(4) 1.1292(3) 0.5349(3)
C9A C -0.1049(4) 1.2659(4) 0.5746(3)
O5A O -0.2514(3) 1.2558(3) 0.5501(3)
O6A O 0.0089(3) 1.3888(2) 0.6351(2)
C11A C 0.1077(4) 1.1283(4) 0.6009(4)
H7A H 0.1827 1.2172 0.6707
H8A H -0.2623 1.0013 0.3877
Zn1A Zn 0.92888(5) 0.56162(4) -0.29804(4)
Na1A Na 0.57552(16) 0.36200(15) -0.55855(14)
O8A O 0.8037(3) 0.5928(2) -0.4624(2)
H1A H 0.7702 0.6694 -0.4402
H2A H 0.8589 0.5967 -0.5168
O7A O 0.3177(3) 0.1830(3) -0.6303(3)
N1A N 0.2364(4) -0.0603(3) -0.7629(3)
C13A C 0.2108(5) 0.0686(4) -0.7123(4)
H9A H 0.1044 0.0753 -0.7398
C14A C 0.1047(6) -0.1889(5) -0.8615(4)
H10A H 0.0042 -0.1617 -0.8792
H11A H 0.1305 -0.2248 -0.9454
H12A H 0.0929 -0.2646 -0.8246
C15A C 0.3983(6) -0.0814(5) -0.7239(5)
H13A H 0.4741 0.0099 -0.6592
H14A H 0.3951 -0.1540 -0.6831
H15A H 0.4328 -0.1142 -0.8038
O2A_2 O 0.5602(3) 0.5007(3) 0.6739(2)
O3A_2 O 0.2567(3) 0.6738(3) 0.6969(3)
Na1A_2 Na 0.57552(16) 0.36200(15) 0.44145(14)
Na1A_3 Na -0.42448(16) 0.36200(15) 0.44145(14)
Na1_2 Na 0.42448(16) 0.63800(15) -0.44145(14)
Na1_3 Na -0.57552(16) -0.36200(15) -0.44145(14)
Zn1A_2 Zn -1.07112(5) -0.43838(4) -0.29804(4)
Na1A_4 Na -0.42448(16) 1.36200(15) 0.44145(14)
Zn1A_3 Zn -0.07112(5) 1.56162(4) 0.70196(4)
O4A_2 O 1.0931(3) 0.7489(3) -0.1841(3)
O6A_2 O 1.0089(3) 0.3888(2) -0.3649(2)
O2_2 O 0.4398(3) 0.4993(3) -0.6739(2)
O3_2 O 0.7433(3) 0.3262(3) -0.6969(3)
O5A_2 O 0.7486(3) 0.2558(3) -0.4499(3)
loop_
_geom_bond_atom_site_label_1
_geom_bond_atom_site_label_2
_geom_bond_site_symmetry_1
_geom_bond_site_symmetry_2
Zn1 O1 1_555 1_555
Na1 O2 1_555 1_555
O1 C1 1_555 1_555
O2 C1 1_555 1_555
O3 C5 1_555 1_555
O4 Zn1 1_555 1_555
O5 Na1 1_555 1_555
O6 Zn1 1_555 1_555
O7 Na1 1_555 1_555
O8 Zn1 1_555 1_555
H1 O8 1_555 1_555
H2 O8 1_555 1_555
N1 C13 1_555 1_555
C1 C2 1_555 1_555
C2 C3 1_555 1_555
C3 H3 1_555 1_555
C4 C2 1_555 1_555
H4 C4 1_555 1_555
C5 O4 1_555 1_555
C6 C5 1_555 1_555
C7 C6 1_555 1_555
H5 C7 1_555 1_555
C8 C6 1_555 1_555
H6 C8 1_555 1_555
C9 O5 1_555 1_555
C10 C9 1_555 1_555
C11 C10 1_555 1_555
H7 C11 1_555 1_555
C12 C10 1_555 1_555
H8 C12 1_555 1_555
C13 O7 1_555 1_555
H9 C13 1_555 1_555
C14 N1 1_555 1_555
H10 C14 1_555 1_555
H11 C14 1_555 1_555
H12 C14 1_555 1_555
C15 N1 1_555 1_555
H13 C15 1_555 1_555
H14 C15 1_555 1_555
H15 C15 1_555 1_555
C4A C3 1_555 1_555
C2A C4A 1_555 1_555
C1A C2A 1_555 1_555
O1A C1A 1_555 1_555
O2A C1A 1_555 1_555
C3A C4 1_555 1_555
H3A C3A 1_555 1_555
H4A C4A 1_555 1_555
C8A C7 1_555 1_555
C6A C8A 1_555 1_555
C5A C6A 1_555 1_555
O3A C5A 1_555 1_555
O4A C5A 1_555 1_555
C7A C8 1_555 1_555
H5A C7A 1_555 1_555
H6A C8A 1_555 1_555
C12A C11 1_555 1_555
C10A C12A 1_555 1_555
C9A C10A 1_555 1_555
O5A C9A 1_555 1_555
O6A C9A 1_555 1_555
C11A C12 1_555 1_555
H7A C11A 1_555 1_555
H8A C12A 1_555 1_555
Zn1A O1A 1_555 1_555
Na1A O2A 1_555 1_555
O8A Zn1A 1_555 1_555
H1A O8A 1_555 1_555
H2A O8A 1_555 1_555
O7A Na1A 1_555 1_555
N1A C13A 1_555 1_555
C13A O7A 1_555 1_555
H9A C13A 1_555 1_555
C14A N1A 1_555 1_555
H10A C14A 1_555 1_555
H11A C14A 1_555 1_555
H12A C14A 1_555 1_555
C15A N1A 1_555 1_555
H13A C15A 1_555 1_555
H14A C15A 1_555 1_555
H15A C15A 1_555 1_555
O2A_2 Na1 1_555 1_555
O3A_2 Na1 1_555 1_555
Na1A_2 O2 1_555 1_555
Na1A_3 O3 1_555 1_555
Na1_2 O2A 1_555 1_555
Na1_3 O3A 1_555 1_555
Zn1A_2 O4A 1_555 1_555
Na1A_4 O5A 1_555 1_555
Zn1A_3 O6A 1_555 1_555
O4A_2 Zn1A 1_555 1_555
O6A_2 Zn1A 1_555 1_555
O2_2 Na1A 1_555 1_555
O3_2 Na1A 1_555 1_555
O5A_2 Na1A 1_555 1_555
Na1 O8 1_555 1_555
O6 C9 1_555 1_555
C2A C3A 1_555 1_555
C6A C7A 1_555 1_555
C10A C11A 1_555 1_555
Na1A O8A 1_555 1_555
O2A_2 Na1A_2 1_555 1_555
Na1_2 O2_2 1_555 1_555

#END
