
#######################################################################
#
#                 Cambridge Crystallographic Data Centre
#                                CCDC 
#
#######################################################################
#
# If this CIF has been generated from an entry in the Cambridge 
# Structural Database, then it will include bibliographic, chemical, 
# crystal, experimental, refinement or atomic coordinate data resulting 
# from the CCDC's data processing and validation procedures.
#
#######################################################################

data_ISOROX01
_symmetry_cell_setting           monoclinic
_symmetry_space_group_name_H-M   'C 2/c'
_symmetry_Int_Tables_number      15
_space_group_name_Hall           '-C 2yn'
loop_
_symmetry_equiv_pos_site_id
_symmetry_equiv_pos_as_xyz
1 x,y,z
2 1/2+x,1/2+y,z
3 -x,y,1/2-z
4 1/2-x,1/2+y,1/2-z
5 -x,-y,-z
6 1/2-x,1/2-y,-z
7 x,-y,1/2+z
8 1/2+x,1/2-y,1/2+z
_cell_length_a                   15.8384(14)
_cell_length_b                   14.2662(12)
_cell_length_c                   9.5073(7)
_cell_angle_alpha                90
_cell_angle_beta                 97.705(4)
_cell_angle_gamma                90
_cell_volume                     2128.82
loop_
_atom_site_label
_atom_site_type_symbol
_atom_site_fract_x
_atom_site_fract_y
_atom_site_fract_z
Sm1 Sm 0.5000 0.480586(12) 0.2500
N1 N 0.13211(18) 0.3039(2) -0.2266(3)
N2 N 0.5000 0.9819(5) 0.2500
O1 O 0.36386(11) 0.44085(16) 0.12142(19)
O2 O 0.40916(13) 0.47081(14) -0.0831(2)
O3 O 0.55060(12) 0.63929(13) 0.34187(18)
O4 O 0.53330(13) 0.33856(15) 0.1251(2)
H1 H 0.551(3) 0.348(3) 0.055(5)
H2 H 0.560(2) 0.302(3) 0.167(4)
C1 C 0.1412(2) 0.3183(3) -0.0877(4)
H3 H 0.0986 0.2970 -0.0371
C2 C 0.21145(17) 0.3639(2) -0.0136(3)
H4 H 0.2154 0.3722 0.0841
C3 C 0.27475(15) 0.39618(19) -0.0864(3)
C4 C 0.35481(14) 0.44001(18) -0.0115(2)
C5 C 0.2643(2) 0.3833(3) -0.2320(3)
H5 H 0.3050 0.4052 -0.2860
C6 C 0.1928(2) 0.3375(3) -0.2953(4)
H6 H 0.1866 0.3297 -0.3932
C7 C 0.5691(4) 0.9333(3) 0.3159(8)
H7 H 0.6164 0.9657 0.3599
C8 C 0.5688(3) 0.8361(3) 0.3171(5)
H8 H 0.6153 0.8036 0.3634
C9 C 0.5000 0.7877(3) 0.2500
C10 C 0.5000 0.6826(3) 0.2500
Sm1D Sm 0.5000 0.519414(12) -0.2500
Sm1D_2 Sm 0.5000 0.519414(12) 0.7500
N1B N 0.86789(18) 0.3039(2) 0.7266(3)
O1B O 0.63614(11) 0.44085(16) 0.37858(19)
O2B O 0.59084(13) 0.47081(14) 0.5831(2)
O2F O 0.40916(13) 0.52919(14) 0.4169(2)
O2D O 0.59084(13) 0.52919(14) 0.0831(2)
O3B O 0.44940(12) 0.63929(13) 0.15813(18)
O4B O 0.46670(13) 0.33856(15) 0.3749(2)
H1B H 0.449(3) 0.348(3) 0.445(5)
H2B H 0.440(2) 0.302(3) 0.333(4)
C1B C 0.8588(2) 0.3183(3) 0.5877(4)
H3B H 0.9014 0.2970 0.5371
C2B C 0.78855(17) 0.3639(2) 0.5136(3)
H4B H 0.7846 0.3722 0.4159
C3B C 0.72525(15) 0.39618(19) 0.5864(3)
C4B C 0.64519(14) 0.44001(18) 0.5115(2)
C5B C 0.7357(2) 0.3833(3) 0.7320(3)
H5B H 0.6950 0.4052 0.7860
C6B C 0.8072(2) 0.3375(3) 0.7953(4)
H6B H 0.8134 0.3297 0.8932
C7B C 0.4309(4) 0.9333(3) 0.1841(8)
H7B H 0.3836 0.9657 0.1401
C8B C 0.4312(3) 0.8361(3) 0.1829(5)
H8B H 0.3847 0.8036 0.1366
loop_
_geom_bond_atom_site_label_1
_geom_bond_atom_site_label_2
_geom_bond_site_symmetry_1
_geom_bond_site_symmetry_2
Sm1 O1 1_555 1_555
N1 C1 1_555 1_555
N2 C7 1_555 1_555
O1 C4 1_555 1_555
O2 C4 1_555 1_555
O3 Sm1 1_555 1_555
O4 Sm1 1_555 1_555
H1 O4 1_555 1_555
H2 O4 1_555 1_555
C1 H3 1_555 1_555
C2 C1 1_555 1_555
H4 C2 1_555 1_555
C3 C2 1_555 1_555
C4 C3 1_555 1_555
C5 C3 1_555 1_555
H5 C5 1_555 1_555
C6 N1 1_555 1_555
H6 C6 1_555 1_555
C7 H7 1_555 1_555
C8 C7 1_555 1_555
H8 C8 1_555 1_555
C9 C8 1_555 1_555
C10 O3 1_555 1_555
Sm1D O2 1_555 1_555
Sm1D_2 O2B 1_555 1_555
N1B C1B 1_555 1_555
O1B Sm1 1_555 1_555
O2B C4B 1_555 1_555
O2F Sm1 1_555 1_555
O2D Sm1 1_555 1_555
O3B Sm1 1_555 1_555
O4B Sm1 1_555 1_555
H1B O4B 1_555 1_555
H2B O4B 1_555 1_555
C1B H3B 1_555 1_555
C2B C1B 1_555 1_555
H4B C2B 1_555 1_555
C3B C2B 1_555 1_555
C4B O1B 1_555 1_555
C5B C3B 1_555 1_555
H5B C5B 1_555 1_555
C6B N1B 1_555 1_555
H6B C6B 1_555 1_555
C7B N2 1_555 1_555
H7B C7B 1_555 1_555
C8B C9 1_555 1_555
H8B C8B 1_555 1_555
C5 C6 1_555 1_555
C9 C10 1_555 1_555
C10 O3B 1_555 1_555
C3B C4B 1_555 1_555
C5B C6B 1_555 1_555
C7B C8B 1_555 1_555

#END
