
#######################################################################
#
#                 Cambridge Crystallographic Data Centre
#                                CCDC 
#
#######################################################################
#
# If this CIF has been generated from an entry in the Cambridge 
# Structural Database, then it will include bibliographic, chemical, 
# crystal, experimental, refinement or atomic coordinate data resulting 
# from the CCDC's data processing and validation procedures.
#
#######################################################################

data_ISUDUW
_symmetry_cell_setting           monoclinic
_symmetry_space_group_name_H-M   'C 2/c'
_symmetry_Int_Tables_number      15
_space_group_name_Hall           '-C 2yn'
loop_
_symmetry_equiv_pos_site_id
_symmetry_equiv_pos_as_xyz
1 x,y,z
2 -x,y,1/2-z
3 1/2+x,1/2+y,z
4 1/2-x,1/2+y,1/2-z
5 -x,-y,-z
6 x,-y,1/2+z
7 1/2-x,1/2-y,-z
8 1/2+x,1/2-y,1/2+z
_cell_length_a                   32.354(6)
_cell_length_b                   9.855(2)
_cell_length_c                   18.599(4)
_cell_angle_alpha                90
_cell_angle_beta                 99.41(3)
_cell_angle_gamma                90
_cell_volume                     5850.47
loop_
_atom_site_label
_atom_site_type_symbol
_atom_site_fract_x
_atom_site_fract_y
_atom_site_fract_z
Cd1 Cd 0.638185(9) 0.01171(2) 0.451180(16)
O1 O 0.67690(12) -0.1717(3) 0.5181(2)
O2 O 0.70591(10) 0.0214(3) 0.53512(19)
O3 O 0.73643(12) -0.1544(4) 0.5892(2)
O4 O 0.60148(11) -0.1875(3) 0.4043(2)
O5 O 0.56987(11) -0.0085(3) 0.3611(2)
O6 O 0.54823(11) -0.2054(4) 0.3185(2)
N1 N 0.67545(11) 0.0051(3) 0.35247(19)
N2 N 0.62797(11) 0.1365(3) 0.27597(18)
H1 H 0.6117 0.1294 0.3080
N3 N 0.64929(11) 0.8377(3) 0.12052(19)
H2 H 0.6645 0.8477 0.0871
N4 N 0.59994(11) 0.9703(3) 0.04937(18)
N5 N 0.64045(10) 0.2472(3) 0.44317(17)
N6 N 0.56997(11) 0.2795(4) 0.4065(2)
H3 H 0.5675 0.1927 0.4071
N7 N 0.70722(13) -0.1044(4) 0.5493(2)
N8 N 0.57245(12) -0.1362(4) 0.3595(2)
C1 C 0.66691(13) 0.0827(4) 0.2911(2)
C2 C 0.69685(15) 0.1031(4) 0.2457(2)
H4 H 0.6910 0.1588 0.2049
C3 C 0.73463(16) 0.0405(6) 0.2620(3)
H5 H 0.7547 0.0536 0.2321
C4 C 0.74356(16) -0.0418(5) 0.3219(3)
H6 H 0.7691 -0.0868 0.3326
C5 C 0.71322(14) -0.0555(5) 0.3658(3)
H7 H 0.7193 -0.1099 0.4070
C6 C 0.61232(15) 0.2060(4) 0.2074(2)
H8 H 0.5819 0.2060 0.2002
H9 H 0.6208 0.1548 0.1678
C7 C 0.62721(13) 0.3504(4) 0.2031(2)
C8 C 0.62239(18) 0.4137(4) 0.1367(2)
H10 H 0.6109 0.3661 0.0951
C9 C 0.63436(19) 0.5478(5) 0.1306(3)
H11 H 0.6310 0.5885 0.0849
C10 C 0.65106(14) 0.6211(4) 0.1910(2)
C11 C 0.65604(16) 0.5578(4) 0.2574(2)
H12 H 0.6671 0.6059 0.2991
C12 C 0.64483(15) 0.4237(4) 0.2632(2)
H13 H 0.6493 0.3821 0.3087
C13 C 0.66709(15) 0.7643(4) 0.1860(2)
H14 H 0.6613 0.8149 0.2280
H15 H 0.6973 0.7609 0.1887
C14 C 0.61032(13) 0.8913(4) 0.1087(2)
C15 C 0.58177(15) 0.8668(4) 0.1563(2)
H16 H 0.5887 0.8079 0.1955
C16 C 0.54405(16) 0.9291(5) 0.1450(3)
H17 H 0.5251 0.9146 0.1768
C17 C 0.53394(15) 1.0143(5) 0.0859(3)
H18 H 0.5084 1.0595 0.0775
C18 C 0.56241(14) 1.0303(5) 0.0406(3)
H19 H 0.5553 1.0870 0.0005
C19 C 0.60834(13) 0.3343(4) 0.4279(2)
C20 C 0.61487(18) 0.4750(4) 0.4320(3)
H20 H 0.5924 0.5349 0.4226
C21 C 0.65459(19) 0.5217(4) 0.4499(3)
H21 H 0.6594 0.6147 0.4530
C22 C 0.68740(17) 0.4346(5) 0.4635(3)
H22 H 0.7147 0.4667 0.4754
C23 C 0.67937(15) 0.2998(4) 0.4592(3)
H23 H 0.7019 0.2401 0.4678
C24 C 0.53239(16) 0.3614(5) 0.3823(3)
H24 H 0.5105 0.3029 0.3575
H25 H 0.5387 0.4285 0.3476
C25 C 0.51631(15) 0.4331(5) 0.4440(3)
C26 C 0.51973(18) 0.3773(5) 0.5128(3)
H26 H 0.5329 0.2938 0.5221
C27 C 0.49604(18) 0.5572(6) 0.4321(3)
H27 H 0.4931 0.5968 0.3861
Cd1E Cd 0.638185(9) 0.98829(2) 0.951180(16)
Cd1E_2 Cd 0.638185(9) 0.98829(2) -0.048820(16)
Cd1D Cd 0.361815(9) 0.98829(2) 0.548820(16)
O1E O 0.67690(12) 1.1717(3) 1.0181(2)
O2E O 0.70591(10) 0.9786(3) 1.03512(19)
O3E O 0.73643(12) 1.1544(4) 1.0892(2)
O4E O 0.60148(11) 1.1875(3) 0.9043(2)
O5E O 0.56987(11) 1.0085(3) 0.8611(2)
O6E O 0.54823(11) 1.2054(4) 0.8185(2)
N1E N 0.67545(11) 0.9949(3) 0.85247(19)
N2E N 0.62797(11) 0.8635(3) 0.77597(18)
H1E H 0.6117 0.8706 0.8080
N3E N 0.64929(11) 0.1623(3) 0.62052(19)
H2E H 0.6645 0.1523 0.5871
N4E N 0.59994(11) 0.0297(3) 0.54937(18)
N4_2 N 0.59994(11) 0.9703(3) 1.04937(18)
N5D N 0.35955(10) 0.7528(3) 0.55683(17)
N5E N 0.64045(10) 0.7528(3) 0.94317(17)
N6D N 0.43003(11) 0.7205(4) 0.5935(2)
H3D H 0.4325 0.8073 0.5929
N7E N 0.70722(13) 1.1044(4) 1.0493(2)
N8E N 0.57245(12) 1.1362(4) 0.8595(2)
C1E C 0.66691(13) 0.9173(4) 0.7911(2)
C2E C 0.69685(15) 0.8969(4) 0.7457(2)
H4E H 0.6910 0.8412 0.7049
C3E C 0.73463(16) 0.9595(6) 0.7620(3)
H5E H 0.7547 0.9464 0.7321
C4E C 0.74356(16) 1.0418(5) 0.8219(3)
H6E H 0.7691 1.0868 0.8326
C5E C 0.71322(14) 1.0555(5) 0.8658(3)
H7E H 0.7193 1.1099 0.9070
C6E C 0.61232(15) 0.7940(4) 0.7074(2)
H8E H 0.5819 0.7940 0.7002
H9E H 0.6208 0.8452 0.6678
C7E C 0.62721(13) 0.6496(4) 0.7031(2)
C8E C 0.62239(18) 0.5863(4) 0.6367(2)
H10E H 0.6109 0.6339 0.5951
C9E C 0.63436(19) 0.4522(5) 0.6306(3)
H11E H 0.6310 0.4115 0.5849
C10E C 0.65106(14) 0.3789(4) 0.6910(2)
C11E C 0.65604(16) 0.4422(4) 0.7574(2)
H12E H 0.6671 0.3941 0.7991
C12E C 0.64483(15) 0.5763(4) 0.7632(2)
H13E H 0.6493 0.6179 0.8087
C13E C 0.66709(15) 0.2357(4) 0.6860(2)
H14E H 0.6613 0.1851 0.7280
H15E H 0.6973 0.2391 0.6887
C14E C 0.61032(13) 0.1087(4) 0.6087(2)
C15E C 0.58177(15) 0.1332(4) 0.6563(2)
H16E H 0.5887 0.1921 0.6955
C16E C 0.54405(16) 0.0709(5) 0.6450(3)
H17E H 0.5251 0.0854 0.6768
C17E C 0.53394(15) -0.0143(5) 0.5859(3)
H18E H 0.5084 -0.0595 0.5775
C18E C 0.56241(14) -0.0303(5) 0.5406(3)
H19E H 0.5553 -0.0870 0.5005
C19D C 0.39166(13) 0.6657(4) 0.5721(2)
C20D C 0.38513(18) 0.5250(4) 0.5680(3)
H20D H 0.4076 0.4651 0.5774
C21D C 0.34541(19) 0.4783(4) 0.5501(3)
H21D H 0.3406 0.3853 0.5470
C22D C 0.31260(17) 0.5654(5) 0.5365(3)
H22D H 0.2853 0.5333 0.5246
C23D C 0.32063(15) 0.7002(4) 0.5408(3)
H23D H 0.2981 0.7599 0.5322
C24D C 0.46761(16) 0.6386(5) 0.6177(3)
H24D H 0.4895 0.6971 0.6425
H25D H 0.4613 0.5715 0.6524
C25D C 0.48369(15) 0.5669(5) 0.5560(3)
C26D C 0.48027(18) 0.6227(5) 0.4872(3)
H26D H 0.4671 0.7062 0.4779
C27D C 0.50396(18) 0.4428(6) 0.5679(3)
H27D H 0.5069 0.4032 0.6139
loop_
_geom_bond_atom_site_label_1
_geom_bond_atom_site_label_2
_geom_bond_site_symmetry_1
_geom_bond_site_symmetry_2
Cd1 O1 1_555 1_555
O1 N7 1_555 1_555
O2 Cd1 1_555 1_555
O3 N7 1_555 1_555
O4 Cd1 1_555 1_555
O5 Cd1 1_555 1_555
O6 N8 1_555 1_555
N1 Cd1 1_555 1_555
N2 H1 1_555 1_555
N3 H2 1_555 1_555
N4 C14 1_555 1_555
N5 Cd1 1_555 1_555
N6 H3 1_555 1_555
N7 O2 1_555 1_555
N8 O4 1_555 1_555
C1 N1 1_555 1_555
C2 C1 1_555 1_555
H4 C2 1_555 1_555
C3 C2 1_555 1_555
H5 C3 1_555 1_555
C4 C3 1_555 1_555
H6 C4 1_555 1_555
C5 N1 1_555 1_555
H7 C5 1_555 1_555
C6 N2 1_555 1_555
H8 C6 1_555 1_555
H9 C6 1_555 1_555
C7 C6 1_555 1_555
C8 C7 1_555 1_555
H10 C8 1_555 1_555
C9 C8 1_555 1_555
H11 C9 1_555 1_555
C10 C9 1_555 1_555
C11 C10 1_555 1_555
H12 C11 1_555 1_555
C12 C7 1_555 1_555
H13 C12 1_555 1_555
C13 N3 1_555 1_555
H14 C13 1_555 1_555
H15 C13 1_555 1_555
C14 N3 1_555 1_555
C15 C14 1_555 1_555
H16 C15 1_555 1_555
C16 C15 1_555 1_555
H17 C16 1_555 1_555
C17 C16 1_555 1_555
H18 C17 1_555 1_555
C18 N4 1_555 1_555
H19 C18 1_555 1_555
C19 N5 1_555 1_555
C20 C19 1_555 1_555
H20 C20 1_555 1_555
C21 C20 1_555 1_555
H21 C21 1_555 1_555
C22 C21 1_555 1_555
H22 C22 1_555 1_555
C23 N5 1_555 1_555
H23 C23 1_555 1_555
C24 N6 1_555 1_555
H24 C24 1_555 1_555
H25 C24 1_555 1_555
C25 C24 1_555 1_555
C26 C25 1_555 1_555
H26 C26 1_555 1_555
C27 C25 1_555 1_555
H27 C27 1_555 1_555
Cd1E O1E 1_555 1_555
Cd1E_2 N4 1_555 1_555
Cd1D N5D 1_555 1_555
O1E N7E 1_555 1_555
O2E Cd1E 1_555 1_555
O3E N7E 1_555 1_555
O4E Cd1E 1_555 1_555
O5E Cd1E 1_555 1_555
O6E N8E 1_555 1_555
N1E Cd1E 1_555 1_555
N2E H1E 1_555 1_555
N3E H2E 1_555 1_555
N4E Cd1 1_555 1_555
N4_2 Cd1E 1_555 1_555
N5D C19D 1_555 1_555
N5E Cd1E 1_555 1_555
N6D H3D 1_555 1_555
N7E O2E 1_555 1_555
N8E O4E 1_555 1_555
C1E N1E 1_555 1_555
C2E C1E 1_555 1_555
H4E C2E 1_555 1_555
C3E C2E 1_555 1_555
H5E C3E 1_555 1_555
C4E C3E 1_555 1_555
H6E C4E 1_555 1_555
C5E N1E 1_555 1_555
H7E C5E 1_555 1_555
C6E N2E 1_555 1_555
H8E C6E 1_555 1_555
H9E C6E 1_555 1_555
C7E C6E 1_555 1_555
C8E C7E 1_555 1_555
H10E C8E 1_555 1_555
C9E C8E 1_555 1_555
H11E C9E 1_555 1_555
C10E C9E 1_555 1_555
C11E C10E 1_555 1_555
H12E C11E 1_555 1_555
C12E C7E 1_555 1_555
H13E C12E 1_555 1_555
C13E N3E 1_555 1_555
H14E C13E 1_555 1_555
H15E C13E 1_555 1_555
C14E N3E 1_555 1_555
C15E C14E 1_555 1_555
H16E C15E 1_555 1_555
C16E C15E 1_555 1_555
H17E C16E 1_555 1_555
C17E C16E 1_555 1_555
H18E C17E 1_555 1_555
C18E N4E 1_555 1_555
H19E C18E 1_555 1_555
C19D N6D 1_555 1_555
C20D C19D 1_555 1_555
H20D C20D 1_555 1_555
C21D C20D 1_555 1_555
H21D C21D 1_555 1_555
C22D C21D 1_555 1_555
H22D C22D 1_555 1_555
C23D N5D 1_555 1_555
H23D C23D 1_555 1_555
C24D N6D 1_555 1_555
H24D C24D 1_555 1_555
H25D C24D 1_555 1_555
C25D C24D 1_555 1_555
C26D C27 1_555 1_555
H26D C26D 1_555 1_555
C27D C26 1_555 1_555
H27D C27D 1_555 1_555
O5 N8 1_555 1_555
N2 C1 1_555 1_555
N6 C19 1_555 1_555
C4 C5 1_555 1_555
C10 C13 1_555 1_555
C11 C12 1_555 1_555
C17 C18 1_555 1_555
C22 C23 1_555 1_555
O5E N8E 1_555 1_555
N2E C1E 1_555 1_555
N4E C14E 1_555 1_555
C4E C5E 1_555 1_555
C10E C13E 1_555 1_555
C11E C12E 1_555 1_555
C17E C18E 1_555 1_555
C22D C23D 1_555 1_555
C25D C26D 1_555 1_555
C25D C27D 1_555 1_555

#END
