
#######################################################################
#
#                 Cambridge Crystallographic Data Centre
#                                CCDC 
#
#######################################################################
#
# If this CIF has been generated from an entry in the Cambridge 
# Structural Database, then it will include bibliographic, chemical, 
# crystal, experimental, refinement or atomic coordinate data resulting 
# from the CCDC's data processing and validation procedures.
#
#######################################################################

data_ISUDIJ
_symmetry_cell_setting           monoclinic
_symmetry_space_group_name_H-M   'C 2/m'
_symmetry_Int_Tables_number      12
_space_group_name_Hall           '-C 2y'
loop_
_symmetry_equiv_pos_site_id
_symmetry_equiv_pos_as_xyz
1 x,y,z
2 1/2+x,1/2+y,z
3 x,-y,z
4 1/2+x,1/2-y,z
5 -x,-y,-z
6 1/2-x,1/2-y,-z
7 -x,y,-z
8 1/2-x,1/2+y,-z
_cell_length_a                   12.6311(19)
_cell_length_b                   14.6070(19)
_cell_length_c                   11.1428(15)
_cell_angle_alpha                90
_cell_angle_beta                 112.94(2)
_cell_angle_gamma                90
_cell_volume                     1893.28
loop_
_atom_site_label
_atom_site_type_symbol
_atom_site_fract_x
_atom_site_fract_y
_atom_site_fract_z
Cd1 Cd 0.221543(17) 0.5000 0.320511(19)
N1 N 0.2859(2) 0.5000 0.5487(3)
N2 N 0.08932(17) 0.61980(15) 0.29590(19)
O1 O 0.1525(2) 0.5000 0.0914(2)
O2 O -0.14419(14) 0.88724(12) 0.33713(16)
O3 O -0.2130(2) 0.85810(16) 0.12321(19)
C1 C 0.3997(3) 0.5000 0.6125(3)
H1 H 0.4449 0.5000 0.5636
C2 C 0.4542(3) 0.5000 0.7453(3)
H2 H 0.5341 0.5000 0.7841
C3 C 0.3907(3) 0.5000 0.8220(3)
C4 C 0.2721(4) 0.5000 0.7561(4)
H3 H 0.2250 0.5000 0.8028
C5 C 0.2240(3) 0.5000 0.6223(4)
H4 H 0.1443 0.5000 0.5808
C6 C 0.4447(3) 0.5000 0.9643(4)
H5 H 0.3957 0.5000 1.0085
C7 C -0.1476(2) 0.84318(18) 0.2385(2)
C8 C -0.0627(2) 0.76547(18) 0.2600(2)
C9 C 0.0379(2) 0.75962(18) 0.3715(2)
H6 H 0.0561 0.8044 0.4358
C10 C 0.1099(2) 0.68612(18) 0.3848(2)
H7 H 0.1766 0.6824 0.4600
C11 C -0.0065(2) 0.6277(2) 0.1875(3)
H8 H -0.0216 0.5830 0.1234
C12 C -0.0831(2) 0.6982(2) 0.1663(3)
H9 H -0.1484 0.7008 0.0894
H10 H 0.194(3) 0.454(2) 0.092(3)
C6D C 0.5553(3) 0.5000 1.0357(4)
C3D C 0.6093(3) 0.5000 1.1780(3)
C2D C 0.5458(3) 0.5000 1.2547(3)
C1D C 0.6003(3) 0.5000 1.3875(3)
N1D N 0.7141(2) 0.5000 1.4513(3)
C5D C 0.7760(3) 0.5000 1.3777(4)
C4D C 0.7279(4) 0.5000 1.2439(4)
H3D H 0.7750 0.5000 1.1972
H4D H 0.8557 0.5000 1.4192
H1D H 0.5551 0.5000 1.4364
H2D H 0.4659 0.5000 1.2159
H5D H 0.6043 0.5000 0.9915
H10B H 0.194(3) 0.546(2) 0.092(3)
N2B N 0.08932(17) 0.38020(15) 0.29590(19)
O2B O -0.14419(14) 0.11276(12) 0.33713(16)
O3B O -0.2130(2) 0.14190(16) 0.12321(19)
C7B C -0.1476(2) 0.15682(18) 0.2385(2)
C8B C -0.0627(2) 0.23453(18) 0.2600(2)
C9B C 0.0379(2) 0.24038(18) 0.3715(2)
H6B H 0.0561 0.1956 0.4358
C10B C 0.1099(2) 0.31388(18) 0.3848(2)
H7B H 0.1766 0.3176 0.4600
C11B C -0.0065(2) 0.3723(2) 0.1875(3)
H8B H -0.0216 0.4170 0.1234
C12B C -0.0831(2) 0.3018(2) 0.1663(3)
H9B H -0.1484 0.2992 0.0894
N2A N 0.58932(17) 0.11980(15) 0.29590(19)
O2A O 0.35581(14) 0.38724(12) 0.33713(16)
O3A O 0.2870(2) 0.35810(16) 0.12321(19)
C7A C 0.3524(2) 0.34318(18) 0.2385(2)
C8A C 0.4373(2) 0.26547(18) 0.2600(2)
C9A C 0.5379(2) 0.25962(18) 0.3715(2)
H6A H 0.5561 0.3044 0.4358
C10A C 0.6099(2) 0.18612(18) 0.3848(2)
H7A H 0.6766 0.1824 0.4600
C11A C 0.4935(2) 0.1277(2) 0.1875(3)
H8A H 0.4784 0.0830 0.1234
C12A C 0.4169(2) 0.1982(2) 0.1663(3)
H9A H 0.3516 0.2008 0.0894
N2C N 0.58932(17) 0.88020(15) 0.29590(19)
O2C O 0.35581(14) 0.61276(12) 0.33713(16)
O3C O 0.2870(2) 0.64190(16) 0.12321(19)
C7C C 0.3524(2) 0.65682(18) 0.2385(2)
C8C C 0.4373(2) 0.73453(18) 0.2600(2)
C9C C 0.5379(2) 0.74038(18) 0.3715(2)
H6C H 0.5561 0.6956 0.4358
C10C C 0.6099(2) 0.81388(18) 0.3848(2)
H7C H 0.6766 0.8176 0.4600
C11C C 0.4935(2) 0.8723(2) 0.1875(3)
H8C H 0.4784 0.9170 0.1234
C12C C 0.4169(2) 0.8018(2) 0.1663(3)
H9C H 0.3516 0.7992 0.0894
Cd1D Cd 0.778457(17) 0.5000 1.679489(19)
O1D O 0.8475(2) 0.5000 1.9086(2)
H10D H 0.806(3) 0.546(2) 1.908(3)
H10F H 0.806(3) 0.454(2) 1.908(3)
Cd1A Cd -0.278457(17) 1.0000 0.320511(19)
Cd1A_2 Cd -0.278457(17) 0.0000 0.320511(19)
Cd1A_3 Cd 0.721543(17) 0.0000 0.320511(19)
Cd1A_4 Cd 0.721543(17) 1.0000 0.320511(19)
N2D N 0.91068(17) 0.38020(15) 1.70410(19)
N2F N 0.91068(17) 0.61980(15) 1.70410(19)
O2E O 0.64419(14) 0.61276(12) 1.66287(16)
O2G O 0.64419(14) 0.38724(12) 1.66287(16)
loop_
_geom_bond_atom_site_label_1
_geom_bond_atom_site_label_2
_geom_bond_site_symmetry_1
_geom_bond_site_symmetry_2
Cd1 N1 1_555 1_555
N1 C1 1_555 1_555
N2 Cd1 1_555 1_555
O1 Cd1 1_555 1_555
O2 C7 1_555 1_555
O3 C7 1_555 1_555
C1 H1 1_555 1_555
C2 C1 1_555 1_555
H2 C2 1_555 1_555
C3 C2 1_555 1_555
C4 C3 1_555 1_555
H3 C4 1_555 1_555
C5 N1 1_555 1_555
H4 C5 1_555 1_555
C6 C3 1_555 1_555
H5 C6 1_555 1_555
C7 C8 1_555 1_555
C8 C9 1_555 1_555
C9 H6 1_555 1_555
C10 N2 1_555 1_555
H7 C10 1_555 1_555
C11 N2 1_555 1_555
H8 C11 1_555 1_555
C12 C8 1_555 1_555
H9 C12 1_555 1_555
H10 O1 1_555 1_555
C6D C6 1_555 1_555
C3D C6D 1_555 1_555
C2D C3D 1_555 1_555
C1D C2D 1_555 1_555
N1D C1D 1_555 1_555
C5D N1D 1_555 1_555
C4D C3D 1_555 1_555
H3D C4D 1_555 1_555
H4D C5D 1_555 1_555
H1D C1D 1_555 1_555
H2D C2D 1_555 1_555
H5D C6D 1_555 1_555
H10B O1 1_555 1_555
N2B Cd1 1_555 1_555
O2B C7B 1_555 1_555
O3B C7B 1_555 1_555
C7B C8B 1_555 1_555
C8B C9B 1_555 1_555
C9B H6B 1_555 1_555
C10B N2B 1_555 1_555
H7B C10B 1_555 1_555
C11B N2B 1_555 1_555
H8B C11B 1_555 1_555
C12B C8B 1_555 1_555
H9B C12B 1_555 1_555
N2A C10A 1_555 1_555
O2A Cd1 1_555 1_555
O3A C7A 1_555 1_555
C7A O2A 1_555 1_555
C8A C7A 1_555 1_555
C9A C8A 1_555 1_555
H6A C9A 1_555 1_555
C10A C9A 1_555 1_555
H7A C10A 1_555 1_555
C11A N2A 1_555 1_555
H8A C11A 1_555 1_555
C12A C8A 1_555 1_555
H9A C12A 1_555 1_555
N2C C10C 1_555 1_555
O2C Cd1 1_555 1_555
O3C C7C 1_555 1_555
C7C O2C 1_555 1_555
C8C C7C 1_555 1_555
C9C C8C 1_555 1_555
H6C C9C 1_555 1_555
C10C C9C 1_555 1_555
H7C C10C 1_555 1_555
C11C N2C 1_555 1_555
H8C C11C 1_555 1_555
C12C C8C 1_555 1_555
H9C C12C 1_555 1_555
Cd1D N1D 1_555 1_555
O1D Cd1D 1_555 1_555
H10D O1D 1_555 1_555
H10F O1D 1_555 1_555
Cd1A O2 1_555 1_555
Cd1A_2 O2B 1_555 1_555
Cd1A_3 N2A 1_555 1_555
Cd1A_4 N2C 1_555 1_555
N2D Cd1D 1_555 1_555
N2F Cd1D 1_555 1_555
O2E Cd1D 1_555 1_555
O2G Cd1D 1_555 1_555
C4 C5 1_555 1_555
C9 C10 1_555 1_555
C11 C12 1_555 1_555
C5D C4D 1_555 1_555
C9B C10B 1_555 1_555
C11B C12B 1_555 1_555
C11A C12A 1_555 1_555
C11C C12C 1_555 1_555

#END
