
#######################################################################
#
#                 Cambridge Crystallographic Data Centre
#                                CCDC 
#
#######################################################################
#
# If this CIF has been generated from an entry in the Cambridge 
# Structural Database, then it will include bibliographic, chemical, 
# crystal, experimental, refinement or atomic coordinate data resulting 
# from the CCDC's data processing and validation procedures.
#
#######################################################################

data_ISUDOQ
_symmetry_cell_setting           monoclinic
_symmetry_space_group_name_H-M   'P 21/n'
_symmetry_Int_Tables_number      14
_space_group_name_Hall           '-P 2yn'
loop_
_symmetry_equiv_pos_site_id
_symmetry_equiv_pos_as_xyz
1 x,y,z
2 1/2-x,1/2+y,1/2-z
3 -x,-y,-z
4 1/2+x,1/2-y,1/2+z
_cell_length_a                   12.511(3)
_cell_length_b                   9.2727(19)
_cell_length_c                   15.981(3)
_cell_angle_alpha                90
_cell_angle_beta                 94.78(3)
_cell_angle_gamma                90
_cell_volume                     1847.52
loop_
_atom_site_label
_atom_site_type_symbol
_atom_site_fract_x
_atom_site_fract_y
_atom_site_fract_z
Zn1 Zn 0.63022(6) 0.46997(8) 0.23950(4)
S1 S 0.77443(13) 0.24443(18) 0.15891(9)
O1 O 0.7538(3) 0.3912(5) 0.1931(3)
O2 O 0.8479(5) 0.2592(6) 0.0957(3)
O3 O 0.6759(4) 0.1752(6) 0.1333(3)
O4 O 0.8276(4) 0.1646(5) 0.2315(3)
N1 N 0.5789(4) 0.3583(6) 0.3351(3)
N2 N 0.4655(4) 0.5424(6) 0.3684(3)
H1 H 0.5047 0.6004 0.3421
N3 N -0.0357(4) 0.2334(6) 0.3760(3)
H2 H -0.0969 0.2249 0.3477
N4 N -0.0073(4) -0.0093(5) 0.3506(3)
C1 C 0.6143(5) 0.2224(8) 0.3478(4)
H3 H 0.6737 0.1937 0.3207
C2 C 0.5695(5) 0.1237(8) 0.3977(4)
H4 H 0.5965 0.0306 0.4042
C3 C 0.4812(5) 0.1695(8) 0.4385(4)
H5 H 0.4477 0.1056 0.4728
C4 C 0.4440(5) 0.3047(8) 0.4289(4)
H6 H 0.3845 0.3339 0.4557
C5 C 0.4956(5) 0.4027(7) 0.3776(4)
C6 C 0.3678(5) 0.5975(8) 0.4019(4)
H7 H 0.3670 0.7019 0.3978
H8 H 0.3688 0.5722 0.4609
C7 C 0.2673(5) 0.5383(7) 0.3560(5)
C8 C 0.2550(6) 0.5415(9) 0.2692(5)
H9 H 0.3094 0.5790 0.2394
C9 C 0.1626(6) 0.4894(10) 0.2266(5)
H10 H 0.1557 0.4892 0.1683
C10 C 0.0807(6) 0.4380(9) 0.2703(4)
H11 H 0.0179 0.4057 0.2411
C11 C 0.0901(5) 0.4336(7) 0.3573(4)
C12 C 0.1843(5) 0.4838(7) 0.3992(4)
H12 H 0.1921 0.4809 0.4575
C13 C -0.0016(5) 0.3754(7) 0.4039(4)
H13 H 0.0207 0.3719 0.4635
H14 H -0.0620 0.4411 0.3961
C14 C 0.0233(5) 0.1134(7) 0.3919(4)
C15 C 0.1123(5) 0.1114(8) 0.4525(4)
H15 H 0.1349 0.1956 0.4803
C16 C 0.1639(6) -0.0132(9) 0.4695(4)
H16 H 0.2217 -0.0148 0.5100
C17 C 0.1332(5) -0.1389(8) 0.4284(4)
H17 H 0.1697 -0.2249 0.4402
C18 C 0.0472(5) -0.1329(7) 0.3697(4)
H18 H 0.0252 -0.2172 0.3418
Zn1A Zn -0.13022(6) -0.03003(8) 0.26050(4)
Zn1A_2 Zn 0.86978(6) -0.03003(8) 0.26050(4)
O4A O 0.6724(4) 0.6646(5) 0.2685(3)
N4A N 0.5073(4) 0.4907(5) 0.1494(3)
loop_
_geom_bond_atom_site_label_1
_geom_bond_atom_site_label_2
_geom_bond_site_symmetry_1
_geom_bond_site_symmetry_2
Zn1 O1 1_555 1_555
S1 O1 1_555 1_555
O2 S1 1_555 1_555
O3 S1 1_555 1_555
O4 S1 1_555 1_555
N1 Zn1 1_555 1_555
N2 H1 1_555 1_555
N3 H2 1_555 1_555
N4 C14 1_555 1_555
C1 N1 1_555 1_555
H3 C1 1_555 1_555
C2 C1 1_555 1_555
H4 C2 1_555 1_555
C3 C2 1_555 1_555
H5 C3 1_555 1_555
C4 C3 1_555 1_555
H6 C4 1_555 1_555
C5 N1 1_555 1_555
C6 N2 1_555 1_555
H7 C6 1_555 1_555
H8 C6 1_555 1_555
C7 C6 1_555 1_555
C8 C7 1_555 1_555
H9 C8 1_555 1_555
C9 C8 1_555 1_555
H10 C9 1_555 1_555
C10 C9 1_555 1_555
H11 C10 1_555 1_555
C11 C10 1_555 1_555
C12 C7 1_555 1_555
H12 C12 1_555 1_555
C13 N3 1_555 1_555
H13 C13 1_555 1_555
H14 C13 1_555 1_555
C14 N3 1_555 1_555
C15 C14 1_555 1_555
H15 C15 1_555 1_555
C16 C15 1_555 1_555
H16 C16 1_555 1_555
C17 C16 1_555 1_555
H17 C17 1_555 1_555
C18 N4 1_555 1_555
H18 C18 1_555 1_555
Zn1A N4 1_555 1_555
Zn1A_2 O4 1_555 1_555
O4A Zn1 1_555 1_555
N4A Zn1 1_555 1_555
N2 C5 1_555 1_555
C4 C5 1_555 1_555
C11 C12 1_555 1_555
C11 C13 1_555 1_555
C17 C18 1_555 1_555

#END
