
#######################################################################
#
#                 Cambridge Crystallographic Data Centre
#                                CCDC 
#
#######################################################################
#
# If this CIF has been generated from an entry in the Cambridge 
# Structural Database, then it will include bibliographic, chemical, 
# crystal, experimental, refinement or atomic coordinate data resulting 
# from the CCDC's data processing and validation procedures.
#
#######################################################################

data_ISUFIL
_symmetry_cell_setting           monoclinic
_symmetry_space_group_name_H-M   'C 2/c'
_symmetry_Int_Tables_number      15
_space_group_name_Hall           '-C 2yn'
loop_
_symmetry_equiv_pos_site_id
_symmetry_equiv_pos_as_xyz
1 x,y,z
2 1/2+x,1/2+y,z
3 x,-y,1/2+z
4 1/2+x,1/2-y,1/2+z
5 -x,-y,-z
6 1/2-x,1/2-y,-z
7 -x,y,1/2-z
8 1/2-x,1/2+y,1/2-z
_cell_length_a                   21.595(3)
_cell_length_b                   6.4904(8)
_cell_length_c                   15.611(2)
_cell_angle_alpha                90
_cell_angle_beta                 132.7740(10)
_cell_angle_gamma                90
_cell_volume                     1606.11
loop_
_atom_site_label
_atom_site_type_symbol
_atom_site_fract_x
_atom_site_fract_y
_atom_site_fract_z
Mn1 Mn 0.0000 0.20920(10) 0.2500
S1 S 0.22100(6) 0.73110(10) 0.58383(9)
O1 O 0.0817(2) 0.5009(4) 0.3670(2)
O2 O 0.12900(10) 0.1888(4) 0.4352(2)
O3 O 0.0000 -0.1325(6) 0.2500
N1 N 0.0628(2) 0.7750(4) 0.6781(3)
C1 C 0.1381(2) 0.3822(6) 0.4455(3)
C2 C 0.2215(2) 0.4632(5) 0.5558(3)
C3 C 0.1568(2) 0.7361(5) 0.6149(3)
C4 C 0.1324(3) 0.5656(6) 0.6388(4)
C5 C 0.0866(3) 0.5917(6) 0.6700(4)
C6 C 0.0847(2) 0.9386(6) 0.6518(3)
C7 C 0.1307(2) 0.9269(5) 0.6208(3)
H1 H -0.0423 -0.1746 0.1856
H2 H 0.2637 0.4416 0.5513
H3 H 0.2383 0.3835 0.6213
H4 H 0.1469 0.4341 0.6340
H5 H 0.0713 0.4747 0.6864
H6 H 0.0677 1.0681 0.6547
H7 H 0.1444 1.0463 0.6037
H1F H 0.0423 -0.1746 0.3144
S1F S -0.22100(6) 0.73110(10) -0.08383(9)
O1F O -0.0817(2) 0.5009(4) 0.1330(2)
O2F O -0.12900(10) 0.1888(4) 0.0648(2)
N1F N -0.0628(2) 0.7750(4) -0.1781(3)
C1F C -0.1381(2) 0.3822(6) 0.0545(3)
C2F C -0.2215(2) 0.4632(5) -0.0558(3)
C3F C -0.1568(2) 0.7361(5) -0.1149(3)
C4F C -0.1324(3) 0.5656(6) -0.1388(4)
C5F C -0.0866(3) 0.5917(6) -0.1700(4)
C6F C -0.0847(2) 0.9386(6) -0.1518(3)
C7F C -0.1307(2) 0.9269(5) -0.1208(3)
H2F H -0.2637 0.4416 -0.0513
H3F H -0.2383 0.3835 -0.1213
H4F H -0.1469 0.4341 -0.1340
H5F H -0.0713 0.4747 -0.1864
H6F H -0.0677 1.0681 -0.1547
H7F H -0.1444 1.0463 -0.1037
N1B N 0.0628(2) 0.2250(4) 0.1781(3)
N1D N -0.0628(2) 0.2250(4) 0.3219(3)
Mn1B Mn 0.0000 0.79080(10) 0.7500
Mn1B_2 Mn 0.0000 0.79080(10) -0.2500
loop_
_geom_bond_atom_site_label_1
_geom_bond_atom_site_label_2
_geom_bond_site_symmetry_1
_geom_bond_site_symmetry_2
Mn1 O1 1_555 1_555
S1 C2 1_555 1_555
O1 C1 1_555 1_555
O2 Mn1 1_555 1_555
O3 Mn1 1_555 1_555
N1 C5 1_555 1_555
C1 O2 1_555 1_555
C2 C1 1_555 1_555
C3 S1 1_555 1_555
C4 C3 1_555 1_555
C5 C4 1_555 1_555
C6 N1 1_555 1_555
C7 C3 1_555 1_555
H1 O3 1_555 1_555
H2 C2 1_555 1_555
H3 C2 1_555 1_555
H4 C4 1_555 1_555
H5 C5 1_555 1_555
H6 C6 1_555 1_555
H7 C7 1_555 1_555
H1F O3 1_555 1_555
S1F C2F 1_555 1_555
O1F Mn1 1_555 1_555
O2F Mn1 1_555 1_555
N1F C5F 1_555 1_555
C1F O1F 1_555 1_555
C2F C1F 1_555 1_555
C3F S1F 1_555 1_555
C4F C3F 1_555 1_555
C5F C4F 1_555 1_555
C6F N1F 1_555 1_555
C7F C3F 1_555 1_555
H2F C2F 1_555 1_555
H3F C2F 1_555 1_555
H4F C4F 1_555 1_555
H5F C5F 1_555 1_555
H6F C6F 1_555 1_555
H7F C7F 1_555 1_555
N1B Mn1 1_555 1_555
N1D Mn1 1_555 1_555
Mn1B N1 1_555 1_555
Mn1B_2 N1F 1_555 1_555
C6 C7 1_555 1_555
O2F C1F 1_555 1_555
C6F C7F 1_555 1_555

#END
