
#######################################################################
#
#                 Cambridge Crystallographic Data Centre
#                                CCDC 
#
#######################################################################
#
# If this CIF has been generated from an entry in the Cambridge 
# Structural Database, then it will include bibliographic, chemical, 
# crystal, experimental, refinement or atomic coordinate data resulting 
# from the CCDC's data processing and validation procedures.
#
#######################################################################

data_ISUFIL02
_symmetry_cell_setting           monoclinic
_symmetry_space_group_name_H-M   'C 2/c'
_symmetry_Int_Tables_number      15
_space_group_name_Hall           '-C 2yn'
loop_
_symmetry_equiv_pos_site_id
_symmetry_equiv_pos_as_xyz
1 x,y,z
2 1/2+x,1/2+y,z
3 x,-y,1/2+z
4 1/2+x,1/2-y,1/2+z
5 -x,-y,-z
6 1/2-x,1/2-y,-z
7 -x,y,1/2-z
8 1/2-x,1/2+y,1/2-z
_cell_length_a                   15.993(6)
_cell_length_b                   6.392(2)
_cell_length_c                   15.682(6)
_cell_angle_alpha                90
_cell_angle_beta                 93.781(6)
_cell_angle_gamma                90
_cell_volume                     1599.64
loop_
_atom_site_label
_atom_site_type_symbol
_atom_site_fract_x
_atom_site_fract_y
_atom_site_fract_z
Mn1 Mn 0.5000 0.97500(8) 0.2500
S1 S 0.11865(4) 0.98878(11) 0.02995(4)
N1 N 0.36674(13) 0.9817(3) 0.18949(13)
O1 O 0.05608(12) 0.4431(3) 0.11962(11)
O2 O 0.02924(11) 0.7583(3) 0.16384(11)
C1 C 0.32029(15) 0.8078(4) 0.18015(17)
H1 H 0.3410 0.6857 0.2059
C2 C 0.24397(15) 0.7989(4) 0.13496(18)
H2 H 0.2143 0.6739 0.1310
C3 C 0.21138(14) 0.9776(4) 0.09522(14)
C4 C 0.25744(16) 1.1609(4) 0.10824(17)
H3 H 0.2367 1.2870 0.0861
C5 C 0.33333(17) 1.1551(4) 0.15375(16)
H4 H 0.3635 1.2790 0.1602
C6 C 0.08504(15) 0.7215(4) 0.02656(15)
H5 H 0.0398 0.7078 -0.0175
H6 H 0.1312 0.6357 0.0097
C7 C 0.05518(14) 0.6353(4) 0.10951(15)
O3 O 0.5000 0.6276(4) 0.2500
H7 H 0.5104 0.5494 0.2082
H7F H 0.4896 0.5494 0.2918
S1F S 0.88135(4) 0.98878(11) 0.47005(4)
N1F N 0.63326(13) 0.9817(3) 0.31051(13)
O1F O 0.94392(12) 0.4431(3) 0.38038(11)
O2F O 0.97076(11) 0.7583(3) 0.33616(11)
C1F C 0.67971(15) 0.8078(4) 0.31985(17)
H1F H 0.6590 0.6857 0.2941
C2F C 0.75603(15) 0.7989(4) 0.36504(18)
H2F H 0.7857 0.6739 0.3690
C3F C 0.78862(14) 0.9776(4) 0.40478(14)
C4F C 0.74256(16) 1.1609(4) 0.39176(17)
H3F H 0.7633 1.2870 0.4139
C5F C 0.66667(17) 1.1551(4) 0.34625(16)
H4F H 0.6365 1.2790 0.3398
C6F C 0.91496(15) 0.7215(4) 0.47344(15)
H5F H 0.9602 0.7078 0.5175
H6F H 0.8688 0.6357 0.4903
C7F C 0.94482(14) 0.6353(4) 0.39049(15)
O1A O 0.55608(12) 0.9431(3) 0.11962(11)
O1G O 0.44392(12) 0.9431(3) 0.38038(11)
O2A O 0.52924(11) 1.2583(3) 0.16384(11)
O2G O 0.47076(11) 1.2583(3) 0.33616(11)
Mn1A Mn 0.0000 0.47500(8) 0.2500
Mn1A_2 Mn 1.0000 0.47500(8) 0.2500
loop_
_geom_bond_atom_site_label_1
_geom_bond_atom_site_label_2
_geom_bond_site_symmetry_1
_geom_bond_site_symmetry_2
Mn1 N1 1_555 1_555
S1 C3 1_555 1_555
N1 C1 1_555 1_555
O1 C7 1_555 1_555
O2 C7 1_555 1_555
C1 H1 1_555 1_555
C2 C1 1_555 1_555
H2 C2 1_555 1_555
C3 C2 1_555 1_555
C4 C3 1_555 1_555
H3 C4 1_555 1_555
C5 N1 1_555 1_555
H4 C5 1_555 1_555
C6 S1 1_555 1_555
H5 C6 1_555 1_555
H6 C6 1_555 1_555
C7 C6 1_555 1_555
O3 Mn1 1_555 1_555
H7 O3 1_555 1_555
H7F O3 1_555 1_555
S1F C3F 1_555 1_555
N1F Mn1 1_555 1_555
O1F C7F 1_555 1_555
O2F C7F 1_555 1_555
C1F N1F 1_555 1_555
H1F C1F 1_555 1_555
C2F C1F 1_555 1_555
H2F C2F 1_555 1_555
C3F C2F 1_555 1_555
C4F C3F 1_555 1_555
H3F C4F 1_555 1_555
C5F N1F 1_555 1_555
H4F C5F 1_555 1_555
C6F S1F 1_555 1_555
H5F C6F 1_555 1_555
H6F C6F 1_555 1_555
C7F C6F 1_555 1_555
O1A Mn1 1_555 1_555
O1G Mn1 1_555 1_555
O2A Mn1 1_555 1_555
O2G Mn1 1_555 1_555
Mn1A O1 1_555 1_555
Mn1A_2 O1F 1_555 1_555
O2 Mn1A 1_555 1_555
C4 C5 1_555 1_555
O2F Mn1A_2 1_555 1_555
C4F C5F 1_555 1_555

#END
