
#######################################################################
#
#                 Cambridge Crystallographic Data Centre
#                                CCDC 
#
#######################################################################
#
# If this CIF has been generated from an entry in the Cambridge 
# Structural Database, then it will include bibliographic, chemical, 
# crystal, experimental, refinement or atomic coordinate data resulting 
# from the CCDC's data processing and validation procedures.
#
#######################################################################

data_ISUFIM
_symmetry_cell_setting           tetragonal
_symmetry_space_group_name_H-M   'P -4 c 2'
_symmetry_Int_Tables_number      116
_space_group_name_Hall           'P -4 -2c'
loop_
_symmetry_equiv_pos_site_id
_symmetry_equiv_pos_as_xyz
1 x,y,z
2 -x,-y,z
3 y,-x,-z
4 -y,x,-z
5 x,-y,1/2+z
6 -x,y,1/2+z
7 y,x,1/2-z
8 -y,-x,1/2-z
_cell_length_a                   10.7613(15)
_cell_length_b                   10.7613(15)
_cell_length_c                   16.348(3)
_cell_angle_alpha                90
_cell_angle_beta                 90
_cell_angle_gamma                90
_cell_volume                     1893.19
loop_
_atom_site_label
_atom_site_type_symbol
_atom_site_fract_x
_atom_site_fract_y
_atom_site_fract_z
Zn1 Zn 1.0000 1.0000 1.0000
N1 N 0.8657(5) 0.9361(4) 0.9264(3)
N2 N 0.6957(5) 0.6499(4) 0.8953(4)
H1 H 0.6431 0.6194 0.8611
C1 C 0.8224(5) 0.8203(5) 0.9371(3)
H2 H 0.8512 0.7742 0.9813
C2 C 0.7357(5) 0.7663(5) 0.8842(3)
C3 C 0.6918(6) 0.8399(6) 0.8214(3)
H3 H 0.6324 0.8085 0.7856
C4 C 0.7348(6) 0.9588(7) 0.8112(3)
H4 H 0.7041 1.0080 0.7690
C5 C 0.8222(7) 1.0046(5) 0.8627(4)
H5 H 0.8529 1.0844 0.8544
C6 C 0.7389(6) 0.5709(6) 0.9646(5)
H6 H 0.6897 0.4954 0.9655
H7 H 0.7232 0.6148 1.0154
C7 C 0.8742(6) 0.5357(5) 0.9616(4)
C8 C 0.9364(7) 0.5179(6) 1.0320(4)
H8 H 0.8955 0.5292 1.0816
C9 C 0.9378(7) 0.5172(6) 0.8860(4)
H9 H 0.8959 0.5280 0.8368
Zn1_2 Zn 1.0000 0.0000 1.0000
Zn1_3 Zn 1.0000 2.0000 1.0000
N1A N 1.1343(5) 0.0639(4) 0.9264(3)
N1A_2 N 1.1343(5) 1.0639(4) 0.9264(3)
N1_2 N 0.8657(5) 1.9361(4) 0.9264(3)
N1B N 0.9361(4) 1.1343(5) 1.0736(3)
N1C N 1.0639(4) 0.8657(5) 1.0736(3)
N2A N 1.3043(5) 0.3501(4) 0.8953(4)
N2A_2 N 1.3043(5) 1.3501(4) 0.8953(4)
N2_2 N 0.6957(5) 1.6499(4) 0.8953(4)
H1A H 1.3569 0.3806 0.8611
H1A_2 H 1.3569 1.3806 0.8611
H1_2 H 0.6431 1.6194 0.8611
C1A C 1.1776(5) 0.1797(5) 0.9371(3)
C1A_2 C 1.1776(5) 1.1797(5) 0.9371(3)
C1_2 C 0.8224(5) 1.8203(5) 0.9371(3)
H2A H 1.1488 0.2258 0.9813
H2A_2 H 1.1488 1.2258 0.9813
H2_2 H 0.8512 1.7742 0.9813
C2A C 1.2643(5) 0.2337(5) 0.8842(3)
C2A_2 C 1.2643(5) 1.2337(5) 0.8842(3)
C2_2 C 0.7357(5) 1.7663(5) 0.8842(3)
C3A C 1.3082(6) 0.1601(6) 0.8214(3)
C3A_2 C 1.3082(6) 1.1601(6) 0.8214(3)
C3_2 C 0.6918(6) 1.8399(6) 0.8214(3)
H3A H 1.3676 0.1915 0.7856
H3A_2 H 1.3676 1.1915 0.7856
H3_2 H 0.6324 1.8085 0.7856
C4A C 1.2652(6) 0.0412(7) 0.8112(3)
C4A_2 C 1.2652(6) 1.0412(7) 0.8112(3)
C4_2 C 0.7348(6) 1.9588(7) 0.8112(3)
H4A H 1.2959 -0.0080 0.7690
H4A_2 H 1.2959 0.9920 0.7690
H4_2 H 0.7041 2.0080 0.7690
C5A C 1.1778(7) -0.0046(5) 0.8627(4)
C5A_2 C 1.1778(7) 0.9954(5) 0.8627(4)
C5_2 C 0.8222(7) 2.0046(5) 0.8627(4)
H5A H 1.1471 -0.0844 0.8544
H5A_2 H 1.1471 0.9156 0.8544
H5_2 H 0.8529 2.0844 0.8544
C6A C 1.2611(6) 0.4291(6) 0.9646(5)
C6A_2 C 1.2611(6) 1.4291(6) 0.9646(5)
C6_2 C 0.7389(6) 1.5709(6) 0.9646(5)
H6A H 1.3103 0.5046 0.9655
H6A_2 H 1.3103 1.5046 0.9655
H6_2 H 0.6897 1.4954 0.9655
H7A H 1.2768 0.3852 1.0154
H7A_2 H 1.2768 1.3852 1.0154
H7_2 H 0.7232 1.6148 1.0154
C7A C 1.1258(6) 0.4643(5) 0.9616(4)
C7A_2 C 1.1258(6) 1.4643(5) 0.9616(4)
C7_2 C 0.8742(6) 1.5357(5) 0.9616(4)
C8A C 1.0636(7) 0.4821(6) 1.0320(4)
C8A_2 C 1.0636(7) 1.4821(6) 1.0320(4)
C8_2 C 0.9364(7) 1.5179(6) 1.0320(4)
H8A H 1.1045 0.4708 1.0816
H8A_2 H 1.1045 1.4708 1.0816
H8_2 H 0.8955 1.5292 1.0816
C9A C 1.0622(7) 0.4828(6) 0.8860(4)
C9A_2 C 1.0622(7) 1.4828(6) 0.8860(4)
C9_2 C 0.9378(7) 1.5172(6) 0.8860(4)
H9A H 1.1041 0.4720 0.8368
H9A_2 H 1.1041 1.4720 0.8368
H9_2 H 0.8959 1.5280 0.8368
Cl1 Cl 0.65920(16) 0.34080(16) 0.7500
O1 O 0.5549(10) 0.2957(13) 0.7657(13)
O2 O 0.7493(18) 0.2956(19) 0.8067(13)
O1G O 0.7043(13) 0.4451(10) 0.7343(13)
O2G O 0.7044(19) 0.2507(18) 0.6933(13)
O3? O 0.616(4) 0.390(3) 0.8282(10)
loop_
_geom_bond_atom_site_label_1
_geom_bond_atom_site_label_2
_geom_bond_site_symmetry_1
_geom_bond_site_symmetry_2
Zn1 N1 1_555 1_555
Cl1 O1 1_555 1_555
N1 C1 1_555 1_555
N2 H1 1_555 1_555
C1 H2 1_555 1_555
C2 N2 1_555 1_555
C3 C2 1_555 1_555
H3 C3 1_555 1_555
C4 C3 1_555 1_555
H4 C4 1_555 1_555
C5 N1 1_555 1_555
H5 C5 1_555 1_555
C6 N2 1_555 1_555
H6 C6 1_555 1_555
H7 C6 1_555 1_555
C7 C6 1_555 1_555
C8 C7 1_555 1_555
H8 C8 1_555 1_555
C9 C7 1_555 1_555
H9 C9 1_555 1_555
O2 Cl1 1_555 1_555
Zn1_2 N1A 1_555 1_555
Zn1_3 N1_2 1_555 1_555
N1A C1A 1_555 1_555
N1A_2 Zn1 1_555 1_555
N1_2 C1_2 1_555 1_555
N1B Zn1 1_555 1_555
N1C Zn1 1_555 1_555
N2A H1A 1_555 1_555
N2A_2 H1A_2 1_555 1_555
N2_2 H1_2 1_555 1_555
C1A H2A 1_555 1_555
C1A_2 N1A_2 1_555 1_555
C1_2 H2_2 1_555 1_555
H2A_2 C1A_2 1_555 1_555
C2A N2A 1_555 1_555
C2A_2 N2A_2 1_555 1_555
C2_2 N2_2 1_555 1_555
C3A C2A 1_555 1_555
C3A_2 C2A_2 1_555 1_555
C3_2 C2_2 1_555 1_555
H3A C3A 1_555 1_555
H3A_2 C3A_2 1_555 1_555
H3_2 C3_2 1_555 1_555
C4A C3A 1_555 1_555
C4A_2 C3A_2 1_555 1_555
C4_2 C3_2 1_555 1_555
H4A C4A 1_555 1_555
H4A_2 C4A_2 1_555 1_555
H4_2 C4_2 1_555 1_555
C5A N1A 1_555 1_555
C5A_2 N1A_2 1_555 1_555
C5_2 N1_2 1_555 1_555
H5A C5A 1_555 1_555
H5A_2 C5A_2 1_555 1_555
H5_2 C5_2 1_555 1_555
C6A N2A 1_555 1_555
C6A_2 N2A_2 1_555 1_555
C6_2 N2_2 1_555 1_555
H6A C6A 1_555 1_555
H6A_2 C6A_2 1_555 1_555
H6_2 C6_2 1_555 1_555
H7A C6A 1_555 1_555
H7A_2 C6A_2 1_555 1_555
H7_2 C6_2 1_555 1_555
C7A C6A 1_555 1_555
C7A_2 C6A_2 1_555 1_555
C7_2 C6_2 1_555 1_555
C8A C8 1_555 1_555
C8A_2 C7A_2 1_555 1_555
C8_2 C7_2 1_555 1_555
H8A C8A 1_555 1_555
H8A_2 C8A_2 1_555 1_555
H8_2 C8_2 1_555 1_555
C9A C9 1_555 1_555
C9A_2 C7A_2 1_555 1_555
C9_2 C7_2 1_555 1_555
H9A C9A 1_555 1_555
H9A_2 C9A_2 1_555 1_555
H9_2 C9_2 1_555 1_555
O1G Cl1 1_555 1_555
O2G Cl1 1_555 1_555
C1 C2 1_555 1_555
C4 C5 1_555 1_555
C1A C2A 1_555 1_555
C1A_2 C2A_2 1_555 1_555
C1_2 C2_2 1_555 1_555
C4A C5A 1_555 1_555
C4A_2 C5A_2 1_555 1_555
C4_2 C5_2 1_555 1_555
C7A C8A 1_555 1_555
C7A C9A 1_555 1_555
C8A_2 C8_2 1_555 1_555
C9A_2 C9_2 1_555 1_555

#END
