
#######################################################################
#
#                 Cambridge Crystallographic Data Centre
#                                CCDC 
#
#######################################################################
#
# If this CIF has been generated from an entry in the Cambridge 
# Structural Database, then it will include bibliographic, chemical, 
# crystal, experimental, refinement or atomic coordinate data resulting 
# from the CCDC's data processing and validation procedures.
#
#######################################################################

data_ISUFAE
_symmetry_cell_setting           monoclinic
_symmetry_space_group_name_H-M   'C 2/c'
_symmetry_Int_Tables_number      15
_space_group_name_Hall           '-C 2yn'
loop_
_symmetry_equiv_pos_site_id
_symmetry_equiv_pos_as_xyz
1 x,y,z
2 -x,y,1/2-z
3 1/2+x,1/2+y,z
4 1/2-x,1/2+y,1/2-z
5 -x,-y,-z
6 x,-y,1/2+z
7 1/2-x,1/2-y,-z
8 1/2+x,1/2-y,1/2+z
_cell_length_a                   13.771(3)
_cell_length_b                   14.650(3)
_cell_length_c                   20.312(4)
_cell_angle_alpha                90
_cell_angle_beta                 101.59(3)
_cell_angle_gamma                90
_cell_volume                     4014.29
loop_
_atom_site_label
_atom_site_type_symbol
_atom_site_fract_x
_atom_site_fract_y
_atom_site_fract_z
Zn1 Zn 0.20923(6) 0.64415(6) 0.28975(4)
O1 O 0.1201(5) 0.7150(4) 0.2204(3)
O2 O 0.1881(5) 0.8172(5) 0.2875(3)
O3 O 0.0800(6) 0.8549(5) 0.2004(5)
O4 O 0.1517(5) 0.5197(4) 0.2563(3)
O5 O 0.2220(5) 0.5494(5) 0.1740(3)
O6 O 0.1172(5) 0.4408(4) 0.1640(3)
N1 N 0.1665(4) 0.6308(4) 0.3781(3)
N2 N 0.2801(5) 0.6124(5) 0.5560(3)
H1 H 0.2621 0.5987 0.5929
N3 N 0.3564(4) 0.6479(4) 0.3097(3)
C1 C 0.6687(6) 0.8148(6) 0.3637(4)
H2 H 0.7052 0.8360 0.3375
N4 N 0.1275(5) 0.7978(5) 0.2357(3)
N5 N 0.1634(5) 0.5029(4) 0.1974(3)
C2 C 0.2343(5) 0.6322(5) 0.4359(3)
H3 H 0.2998 0.6460 0.4345
C3 C 0.2094(6) 0.6134(5) 0.4980(4)
C4 C 0.1097(6) 0.5959(6) 0.4987(4)
H4 H 0.0898 0.5844 0.5390
C5 C 0.0419(6) 0.5960(6) 0.4393(4)
H5 H -0.0244 0.5842 0.4394
C6 C 0.0706(6) 0.6132(6) 0.3795(4)
H6 H 0.0236 0.6127 0.3396
C7 C 0.3827(6) 0.6329(6) 0.5583(4)
H7 H 0.4151 0.6404 0.6050
H8 H 0.3865 0.6910 0.5361
C8 C 0.4405(6) 0.5631(5) 0.5268(3)
C9 C 0.4048(6) 0.4777(5) 0.5058(4)
H9 H 0.3408 0.4615 0.5093
C10 C 0.5366(6) 0.5845(5) 0.5204(4)
H10 H 0.5624 0.6418 0.5339
C11 C 0.4093(5) 0.7254(5) 0.3195(3)
H11 H 0.3754 0.7807 0.3154
C12 C 0.5128(5) 0.7271(5) 0.3356(3)
C13 C 0.5613(5) 0.6434(5) 0.3410(3)
H12 H 0.6302 0.6411 0.3517
C14 C 0.5072(6) 0.5641(5) 0.3305(3)
H13 H 0.5395 0.5080 0.3337
C15 C 0.4044(6) 0.5676(5) 0.3150(3)
H14 H 0.3682 0.5136 0.3081
N6 N 0.5619(4) 0.8085(4) 0.3444(3)
H15 H 0.5251 0.8622 0.3379
C16 C 0.7108(5) 0.7806(5) 0.4344(3)
C17 C 0.6726(6) 0.8100(6) 0.4884(4)
H16 H 0.6197 0.8507 0.4813
C18 C 0.7888(6) 0.7200(6) 0.4466(4)
H17 H 0.8158 0.6989 0.4110
Zn1D Zn 0.79077(6) 0.35585(6) 0.71025(4)
Zn1F Zn 1.29077(6) 0.85585(6) 0.71025(4)
O1D O 0.8799(5) 0.2850(4) 0.7796(3)
O2D O 0.8119(5) 0.1828(5) 0.7125(3)
O3D O 0.9200(6) 0.1451(5) 0.7996(5)
O4D O 0.8483(5) 0.4803(4) 0.7437(3)
O5D O 0.7780(5) 0.4506(5) 0.8260(3)
O6D O 0.8828(5) 0.5592(4) 0.8360(3)
N1D N 0.8335(4) 0.3692(4) 0.6219(3)
N2D N 0.7199(5) 0.3876(5) 0.4440(3)
H1D H 0.7379 0.4013 0.4071
N3F N 1.1436(4) 0.8521(4) 0.6903(3)
N3D N 0.6436(4) 0.3521(4) 0.6903(3)
C1F C 0.8313(6) 0.6852(6) 0.6363(4)
H2F H 0.7948 0.6640 0.6625
N4D N 0.8725(5) 0.2022(5) 0.7643(3)
N5D N 0.8366(5) 0.4971(4) 0.8026(3)
C2D C 0.7657(5) 0.3678(5) 0.5641(3)
H3D H 0.7002 0.3540 0.5655
C3D C 0.7906(6) 0.3866(5) 0.5020(4)
C4D C 0.8903(6) 0.4041(6) 0.5013(4)
H4D H 0.9102 0.4156 0.4610
C5D C 0.9581(6) 0.4040(6) 0.5607(4)
H5D H 1.0244 0.4158 0.5606
C6D C 0.9294(6) 0.3868(6) 0.6205(4)
H6D H 0.9764 0.3873 0.6604
C7D C 0.6173(6) 0.3671(6) 0.4417(4)
H7D H 0.5849 0.3596 0.3950
H8D H 0.6135 0.3090 0.4639
C8D C 0.5595(6) 0.4369(5) 0.4732(3)
C9D C 0.5952(6) 0.5223(5) 0.4942(4)
H9D H 0.6592 0.5385 0.4907
C10D C 0.4634(6) 0.4155(5) 0.4796(4)
H10D H 0.4376 0.3582 0.4661
C11F C 1.0907(5) 0.7746(5) 0.6805(3)
H11F H 1.1246 0.7193 0.6846
C12F C 0.9872(5) 0.7729(5) 0.6644(3)
C13F C 0.9387(5) 0.8566(5) 0.6590(3)
H12F H 0.8698 0.8589 0.6483
C14F C 0.9928(6) 0.9359(5) 0.6695(3)
H13F H 0.9605 0.9920 0.6663
C15F C 1.0956(6) 0.9324(5) 0.6850(3)
H14F H 1.1318 0.9864 0.6919
N6F N 0.9381(4) 0.6915(4) 0.6556(3)
H15F H 0.9749 0.6378 0.6621
C16F C 0.7892(5) 0.7194(5) 0.5656(3)
C17F C 0.8274(6) 0.6900(6) 0.5116(4)
H16F H 0.8803 0.6493 0.5187
C18F C 0.7112(6) 0.7800(6) 0.5534(4)
H17F H 0.6842 0.8011 0.5890
loop_
_geom_bond_atom_site_label_1
_geom_bond_atom_site_label_2
_geom_bond_site_symmetry_1
_geom_bond_site_symmetry_2
Zn1 O1 1_555 1_555
O1 N4 1_555 1_555
O2 N4 1_555 1_555
O3 N4 1_555 1_555
O4 Zn1 1_555 1_555
O5 N5 1_555 1_555
O6 N5 1_555 1_555
N1 Zn1 1_555 1_555
N2 H1 1_555 1_555
N3 Zn1 1_555 1_555
C1 H2 1_555 1_555
N5 O4 1_555 1_555
C2 N1 1_555 1_555
H3 C2 1_555 1_555
C3 N2 1_555 1_555
C4 C3 1_555 1_555
H4 C4 1_555 1_555
C5 C4 1_555 1_555
H5 C5 1_555 1_555
C6 N1 1_555 1_555
H6 C6 1_555 1_555
C7 N2 1_555 1_555
H7 C7 1_555 1_555
H8 C7 1_555 1_555
C8 C7 1_555 1_555
C9 C8 1_555 1_555
H9 C9 1_555 1_555
C10 C8 1_555 1_555
H10 C10 1_555 1_555
C11 N3 1_555 1_555
H11 C11 1_555 1_555
C12 C11 1_555 1_555
C13 C12 1_555 1_555
H12 C13 1_555 1_555
C14 C13 1_555 1_555
H13 C14 1_555 1_555
C15 N3 1_555 1_555
H14 C15 1_555 1_555
N6 C1 1_555 1_555
H15 N6 1_555 1_555
C16 C1 1_555 1_555
C17 C16 1_555 1_555
H16 C17 1_555 1_555
C18 C16 1_555 1_555
H17 C18 1_555 1_555
Zn1D O1D 1_555 1_555
Zn1F N3F 1_555 1_555
O1D N4D 1_555 1_555
O2D N4D 1_555 1_555
O3D N4D 1_555 1_555
O4D Zn1D 1_555 1_555
O5D N5D 1_555 1_555
O6D N5D 1_555 1_555
N1D Zn1D 1_555 1_555
N2D H1D 1_555 1_555
N3F C11F 1_555 1_555
N3D Zn1D 1_555 1_555
C1F H2F 1_555 1_555
N5D O4D 1_555 1_555
C2D N1D 1_555 1_555
H3D C2D 1_555 1_555
C3D N2D 1_555 1_555
C4D C3D 1_555 1_555
H4D C4D 1_555 1_555
C5D C4D 1_555 1_555
H5D C5D 1_555 1_555
C6D N1D 1_555 1_555
H6D C6D 1_555 1_555
C7D N2D 1_555 1_555
H7D C7D 1_555 1_555
H8D C7D 1_555 1_555
C8D C7D 1_555 1_555
C9D C10 1_555 1_555
H9D C9D 1_555 1_555
C10D C9 1_555 1_555
H10D C10D 1_555 1_555
C11F H11F 1_555 1_555
C12F C11F 1_555 1_555
C13F C12F 1_555 1_555
H12F C13F 1_555 1_555
C14F C13F 1_555 1_555
H13F C14F 1_555 1_555
C15F N3F 1_555 1_555
H14F C15F 1_555 1_555
N6F C1F 1_555 1_555
H15F N6F 1_555 1_555
C16F C1F 1_555 1_555
C17F C18 1_555 1_555
H16F C17F 1_555 1_555
C18F C17 1_555 1_555
H17F C18F 1_555 1_555
C2 C3 1_555 1_555
C5 C6 1_555 1_555
C12 N6 1_555 1_555
C14 C15 1_555 1_555
C2D C3D 1_555 1_555
C5D C6D 1_555 1_555
C8D C9D 1_555 1_555
C8D C10D 1_555 1_555
C12F N6F 1_555 1_555
C14F C15F 1_555 1_555
C16F C17F 1_555 1_555
C16F C18F 1_555 1_555

#END
