
#######################################################################
#
#                 Cambridge Crystallographic Data Centre
#                                CCDC 
#
#######################################################################
#
# If this CIF has been generated from an entry in the Cambridge 
# Structural Database, then it will include bibliographic, chemical, 
# crystal, experimental, refinement or atomic coordinate data resulting 
# from the CCDC's data processing and validation procedures.
#
#######################################################################

data_ISUFEI
_symmetry_cell_setting           orthorhombic
_symmetry_space_group_name_H-M   'P n a 21'
_symmetry_Int_Tables_number      33
_space_group_name_Hall           'P 2c -2n'
loop_
_symmetry_equiv_pos_site_id
_symmetry_equiv_pos_as_xyz
1 x,y,z
2 -x,-y,1/2+z
3 1/2-x,1/2+y,1/2+z
4 1/2+x,1/2-y,z
_cell_length_a                   23.105(5)
_cell_length_b                   12.069(2)
_cell_length_c                   12.498(3)
_cell_angle_alpha                90
_cell_angle_beta                 90
_cell_angle_gamma                90
_cell_volume                     3485.12
loop_
_atom_site_label
_atom_site_type_symbol
_atom_site_fract_x
_atom_site_fract_y
_atom_site_fract_z
Cd1 Cd 0.119406(5) 0.220312(11) 0.215969(17)
O1 O 0.10209(9) 0.42405(15) 0.24619(13)
O2 O 0.10174(9) 0.4927(2) 0.08793(15)
O3 O 0.11750(9) 0.59815(15) 0.2221(4)
O4 O 0.09878(14) 0.0149(2) 0.2422(2)
O5 O 0.17703(14) 0.0119(3) 0.1672(2)
O6 O 0.13629(13) -0.13992(15) 0.2185(4)
N1 N 0.18361(9) 0.22680(17) 0.36138(16)
N2 N 0.31766(8) 0.08516(17) 0.43569(15)
H1 H 0.3464 0.0994 0.4772
N3 N 0.45707(10) 0.1244(2) -0.07868(17)
H2 H 0.4335 0.1311 -0.1315
N4 N 0.56230(9) 0.29468(17) 0.06382(16)
N5 N 0.04353(9) 0.21775(16) 0.34465(17)
N6 N 0.01113(9) 0.09504(19) 0.60700(15)
H3 H -0.0098 0.1143 0.6608
N7 N 0.28231(9) 0.1714(2) 0.88193(16)
H4 H 0.3075 0.1958 0.8370
N8 N 0.19894(8) 0.27369(17) 1.10898(15)
N9 N 0.10698(8) 0.50515(18) 0.18585(14)
N10 N 0.13838(9) -0.03974(15) 0.2098(3)
C1 C 0.22909(9) 0.1576(2) 0.35978(16)
H5 H 0.2323 0.1081 0.3031
C2 C 0.27161(9) 0.1562(2) 0.43851(16)
C3 C 0.26611(12) 0.2333(2) 0.5220(2)
H6 H 0.2937 0.2365 0.5761
C4 C 0.21933(12) 0.3040(2) 0.52258(18)
H7 H 0.2151 0.3556 0.5774
C5 C 0.17849(11) 0.2984(2) 0.44153(18)
H8 H 0.1468 0.3458 0.4433
C6 C 0.32184(10) -0.0118(2) 0.3685(2)
H9 H 0.2831 -0.0331 0.3467
H10 H 0.3376 -0.0721 0.4107
C7 C 0.35862(10) 0.0016(2) 0.26923(19)
C8 C 0.35016(10) 0.0866(2) 0.1973(2)
H11 H 0.3220 0.1397 0.2111
C9 C 0.38288(11) 0.0941(3) 0.1047(2)
H12 H 0.3760 0.1519 0.0572
C10 C 0.42537(10) 0.0176(2) 0.08172(19)
C11 C 0.43514(13) -0.0645(3) 0.1558(2)
H13 H 0.4644 -0.1159 0.1434
C12 C 0.40253(13) -0.0724(2) 0.2483(2)
H14 H 0.4104 -0.1286 0.2971
C13 C 0.45873(12) 0.0208(3) -0.0224(2)
H15 H 0.4988 0.0027 -0.0075
H16 H 0.4436 -0.0364 -0.0692
C14 C 0.52651(10) 0.2115(2) 0.03816(18)
H17 H 0.5252 0.1499 0.0829
C15 C 0.49110(11) 0.2125(2) -0.05247(18)
C16 C 0.49226(12) 0.3087(3) -0.11459(19)
H18 H 0.4679 0.3153 -0.1735
C17 C 0.52899(12) 0.3929(3) -0.0888(2)
H19 H 0.5304 0.4563 -0.1312
C18 C 0.56431(11) 0.3842(2) 0.00052(19)
H20 H 0.5898 0.4414 0.0168
C19 C 0.04867(10) 0.15784(19) 0.43419(17)
H21 H 0.0819 0.1156 0.4439
C20 C 0.00609(10) 0.1559(2) 0.51412(17)
C21 C -0.04258(10) 0.2227(2) 0.4979(2)
H22 H -0.0714 0.2270 0.5498
C22 C -0.04741(11) 0.2820(2) 0.4045(2)
H23 H -0.0803 0.3245 0.3919
C23 C -0.00389(10) 0.2789(2) 0.3297(2)
H24 H -0.0076 0.3203 0.2673
C24 C 0.04926(11) 0.0007(2) 0.6200(2)
H25 H 0.0621 -0.0231 0.5498
H26 H 0.0273 -0.0597 0.6511
C25 C 0.10199(9) 0.0215(2) 0.68890(16)
C26 C 0.13044(10) 0.1219(2) 0.69109(17)
H27 H 0.1158 0.1810 0.6518
C27 C 0.18034(10) 0.1360(2) 0.75067(18)
H28 H 0.1989 0.2044 0.7502
C28 C 0.20310(10) 0.0509(2) 0.81070(17)
C29 C 0.17359(11) -0.0489(2) 0.81188(19)
H29 H 0.1872 -0.1068 0.8540
C30 C 0.12398(10) -0.0636(2) 0.7511(2)
H30 H 0.1052 -0.1317 0.7521
C31 C 0.26067(10) 0.0610(2) 0.87008(19)
H31 H 0.2561 0.0289 0.9407
H32 H 0.2894 0.0175 0.8323
C32 C 0.21712(10) 0.21093(18) 1.02687(17)
H33 H 0.1974 0.1455 1.0122
C33 C 0.26400(10) 0.2390(2) 0.96276(18)
C34 C 0.29160(10) 0.3395(2) 0.98298(18)
H34 H 0.3227 0.3622 0.9410
C35 C 0.27231(10) 0.4044(2) 1.06571(19)
H35 H 0.2900 0.4721 1.0799
C36 C 0.22679(9) 0.3689(2) 1.12738(18)
H36 H 0.2148 0.4129 1.1843
Cd1C Cd 0.619406(5) 0.279688(11) 0.215969(17)
Cd1_2 Cd 0.119406(5) 0.220312(11) 1.215969(17)
N4C N 0.06230(9) 0.20532(17) 0.06382(16)
N8_2 N 0.19894(8) 0.27369(17) 0.10898(15)
loop_
_geom_bond_atom_site_label_1
_geom_bond_atom_site_label_2
_geom_bond_site_symmetry_1
_geom_bond_site_symmetry_2
Cd1 O1 1_555 1_555
O1 N9 1_555 1_555
O2 N9 1_555 1_555
O3 N9 1_555 1_555
O4 Cd1 1_555 1_555
O5 N10 1_555 1_555
O6 N10 1_555 1_555
N1 Cd1 1_555 1_555
N2 H1 1_555 1_555
N3 H2 1_555 1_555
N4 C14 1_555 1_555
N5 Cd1 1_555 1_555
N6 H3 1_555 1_555
N7 H4 1_555 1_555
N8 C32 1_555 1_555
N10 O4 1_555 1_555
C1 N1 1_555 1_555
H5 C1 1_555 1_555
C2 N2 1_555 1_555
C3 C2 1_555 1_555
H6 C3 1_555 1_555
C4 C3 1_555 1_555
H7 C4 1_555 1_555
C5 N1 1_555 1_555
H8 C5 1_555 1_555
C6 N2 1_555 1_555
H9 C6 1_555 1_555
H10 C6 1_555 1_555
C7 C6 1_555 1_555
C8 C7 1_555 1_555
H11 C8 1_555 1_555
C9 C8 1_555 1_555
H12 C9 1_555 1_555
C10 C9 1_555 1_555
C11 C10 1_555 1_555
H13 C11 1_555 1_555
C12 C7 1_555 1_555
H14 C12 1_555 1_555
C13 N3 1_555 1_555
H15 C13 1_555 1_555
H16 C13 1_555 1_555
C14 H17 1_555 1_555
C15 N3 1_555 1_555
C16 C15 1_555 1_555
H18 C16 1_555 1_555
C17 C16 1_555 1_555
H19 C17 1_555 1_555
C18 N4 1_555 1_555
H20 C18 1_555 1_555
C19 N5 1_555 1_555
H21 C19 1_555 1_555
C20 N6 1_555 1_555
C21 C20 1_555 1_555
H22 C21 1_555 1_555
C22 C21 1_555 1_555
H23 C22 1_555 1_555
C23 N5 1_555 1_555
H24 C23 1_555 1_555
C24 N6 1_555 1_555
H25 C24 1_555 1_555
H26 C24 1_555 1_555
C25 C24 1_555 1_555
C26 C25 1_555 1_555
H27 C26 1_555 1_555
C27 C26 1_555 1_555
H28 C27 1_555 1_555
C28 C27 1_555 1_555
C29 C28 1_555 1_555
H29 C29 1_555 1_555
C30 C25 1_555 1_555
H30 C30 1_555 1_555
C31 N7 1_555 1_555
H31 C31 1_555 1_555
H32 C31 1_555 1_555
C32 H33 1_555 1_555
C33 N7 1_555 1_555
C34 C33 1_555 1_555
H34 C34 1_555 1_555
C35 C34 1_555 1_555
H35 C35 1_555 1_555
C36 N8 1_555 1_555
H36 C36 1_555 1_555
Cd1C N4 1_555 1_555
Cd1_2 N8 1_555 1_555
N4C Cd1 1_555 1_555
N8_2 Cd1 1_555 1_555
C1 C2 1_555 1_555
C4 C5 1_555 1_555
C10 C13 1_555 1_555
C11 C12 1_555 1_555
C14 C15 1_555 1_555
C17 C18 1_555 1_555
C19 C20 1_555 1_555
C22 C23 1_555 1_555
C28 C31 1_555 1_555
C29 C30 1_555 1_555
C32 C33 1_555 1_555
C35 C36 1_555 1_555

#END
