
#######################################################################
#
#                 Cambridge Crystallographic Data Centre
#                                CCDC 
#
#######################################################################
#
# If this CIF has been generated from an entry in the Cambridge 
# Structural Database, then it will include bibliographic, chemical, 
# crystal, experimental, refinement or atomic coordinate data resulting 
# from the CCDC's data processing and validation procedures.
#
#######################################################################

data_ISUHEJ
_symmetry_cell_setting           monoclinic
_symmetry_space_group_name_H-M   'P n'
_symmetry_Int_Tables_number      7
_space_group_name_Hall           'P -2yac'
loop_
_symmetry_equiv_pos_site_id
_symmetry_equiv_pos_as_xyz
1 x,y,z
2 1/2+x,-y,1/2+z
_cell_length_a                   9.209(3)
_cell_length_b                   10.182(3)
_cell_length_c                   19.158(5)
_cell_angle_alpha                90
_cell_angle_beta                 103.507(5)
_cell_angle_gamma                90
_cell_volume                     1746.68
loop_
_atom_site_label
_atom_site_type_symbol
_atom_site_fract_x
_atom_site_fract_y
_atom_site_fract_z
Ag1 Ag 0.793322(19) -0.19422(3) 0.752687(14)
S1 S 0.72698(13) -0.44008(11) 0.76004(6)
S2 S 1.06107(12) -1.16724(10) 0.83734(6)
S3 S 0.83344(11) -0.19570(10) 0.61871(5)
S4 S 1.59617(11) -0.00789(10) 0.74055(6)
C1 C 0.6350(6) -0.4410(4) 0.8882(3)
H1 H 0.7315 -0.4163 0.9112
C2 C 0.5241(8) -0.4552(5) 0.9271(3)
H2 H 0.5467 -0.4418 0.9765
C3 C 0.3822(8) -0.4891(6) 0.8912(5)
H3 H 0.3075 -0.4952 0.9165
C4 C 0.3479(7) -0.5142(6) 0.8188(4)
H4 H 0.2519 -0.5401 0.7955
C5 C 0.4550(5) -0.5010(5) 0.7819(3)
H5 H 0.4314 -0.5170 0.7328
C6 C 0.5983(4) -0.4645(4) 0.8151(2)
C7 C 0.8922(5) -0.5305(4) 0.8055(2)
H6 H 0.9739 -0.5099 0.7833
H7 H 0.9210 -0.5024 0.8553
C8 C 0.8673(5) -0.6767(4) 0.8030(2)
H8 H 0.8234 -0.7020 0.7538
H9 H 0.7960 -0.6980 0.8314
C9 C 1.0075(5) -0.7571(4) 0.8303(2)
H10 H 1.0500 -0.7361 0.8802
H11 H 1.0808 -0.7356 0.8030
C10 C 0.9712(4) -0.9046(4) 0.8229(2)
H12 H 0.9094 -0.9272 0.8557
H13 H 0.9133 -0.9215 0.7745
C11 C 1.1056(5) -0.9918(4) 0.8376(2)
H14 H 1.1686 -0.9689 0.8841
H15 H 1.1622 -0.9754 0.8017
C12 C 1.0529(4) -1.1937(4) 0.9287(2)
C13 C 1.1833(6) -1.2255(5) 0.9790(3)
H16 H 1.2734 -1.2328 0.9652
C14 C 1.1775(7) -1.2462(6) 1.0496(3)
H17 H 1.2645 -1.2682 1.0833
C15 C 1.0473(7) -1.2349(5) 1.0708(3)
H18 H 1.0455 -1.2485 1.1186
C16 C 0.9193(6) -1.2036(5) 1.0218(3)
H19 H 0.8299 -1.1960 1.0361
C17 C 0.9219(6) -1.1833(4) 0.9507(3)
H20 H 0.8339 -1.1624 0.9175
C18 C 1.5528(4) -0.0916(4) 0.8711(2)
H21 H 1.5760 -0.1751 0.8573
C19 C 1.5212(5) -0.0738(6) 0.9375(2)
H22 H 1.5244 -0.1448 0.9684
C20 C 1.4850(5) 0.0494(7) 0.9578(3)
H23 H 1.4644 0.0620 1.0026
C21 C 1.4792(6) 0.1545(6) 0.9112(3)
H24 H 1.4521 0.2373 0.9243
C22 C 1.5138(5) 0.1369(5) 0.8452(3)
H25 H 1.5125 0.2079 0.8145
C23 C 1.5503(4) 0.0126(4) 0.8253(2)
C24 C 1.4116(5) -0.0405(4) 0.6833(2)
H26 H 1.3442 0.0280 0.6914
H27 H 1.4182 -0.0343 0.6336
C25 C 1.3436(4) -0.1716(4) 0.6940(2)
H28 H 1.3415 -0.1818 0.7440
H29 H 1.4047 -0.2415 0.6816
C26 C 1.1852(5) -0.1826(4) 0.6474(2)
H30 H 1.1258 -0.1105 0.6587
H31 H 1.1885 -0.1744 0.5973
C27 C 1.1106(5) -0.3111(4) 0.6579(2)
H32 H 1.1013 -0.3157 0.7073
H33 H 1.1750 -0.3827 0.6506
C28 C 0.9563(5) -0.3321(4) 0.6085(2)
H34 H 0.9144 -0.4142 0.6205
H35 H 0.9648 -0.3373 0.5591
C29 C 0.6539(4) -0.2469(4) 0.5687(2)
C30 C 0.5571(5) -0.1488(4) 0.5352(2)
H36 H 0.5902 -0.0624 0.5356
C31 C 0.4122(5) -0.1798(5) 0.5014(3)
H37 H 0.3475 -0.1136 0.4798
C32 C 0.3626(5) -0.3053(5) 0.4992(3)
H38 H 0.2646 -0.3253 0.4762
C33 C 0.4580(6) -0.4020(5) 0.5311(3)
H39 H 0.4242 -0.4883 0.5291
C34 C 0.6027(5) -0.3747(5) 0.5659(2)
H40 H 0.6659 -0.4418 0.5876
S2_2 S 1.06107(12) -0.16724(10) 0.83734(6)
S4_2 S 0.59617(11) -0.00789(10) 0.74055(6)
Ag1_2 Ag 0.793322(19) -1.19422(3) 0.752687(14)
Ag1_3 Ag 1.793322(19) -0.19422(3) 0.752687(14)
B1 B 0.1221(7) 0.2876(6) 0.6411(3)
F1 F 0.114(4) 0.1772(14) 0.6782(13)
F2 F 0.0534(17) 0.269(2) 0.5743(5)
F3 F 0.253(2) 0.340(3) 0.6409(14)
F4 F 0.0318(5) 0.3659(4) 0.6683(2)
F5? F 0.2416(14) 0.2607(12) 0.6910(7)
F6? F 0.0765(17) 0.1738(14) 0.6127(16)
F7? F 0.166(4) 0.355(2) 0.5902(15)
loop_
_geom_bond_atom_site_label_1
_geom_bond_atom_site_label_2
_geom_bond_site_symmetry_1
_geom_bond_site_symmetry_2
Ag1 S1 1_555 1_555
S1 C6 1_555 1_555
S2 C11 1_555 1_555
S3 Ag1 1_555 1_555
S4 C23 1_555 1_555
C1 H1 1_555 1_555
C2 C1 1_555 1_555
H2 C2 1_555 1_555
C3 C2 1_555 1_555
H3 C3 1_555 1_555
C4 C3 1_555 1_555
H4 C4 1_555 1_555
C5 C4 1_555 1_555
H5 C5 1_555 1_555
C6 C1 1_555 1_555
C7 S1 1_555 1_555
H6 C7 1_555 1_555
H7 C7 1_555 1_555
C8 C7 1_555 1_555
H8 C8 1_555 1_555
H9 C8 1_555 1_555
C9 C8 1_555 1_555
H10 C9 1_555 1_555
H11 C9 1_555 1_555
C10 C9 1_555 1_555
H12 C10 1_555 1_555
H13 C10 1_555 1_555
C11 C10 1_555 1_555
H14 C11 1_555 1_555
H15 C11 1_555 1_555
C12 S2 1_555 1_555
C13 C12 1_555 1_555
H16 C13 1_555 1_555
C14 C13 1_555 1_555
H17 C14 1_555 1_555
C15 C14 1_555 1_555
H18 C15 1_555 1_555
C16 C15 1_555 1_555
H19 C16 1_555 1_555
C17 C12 1_555 1_555
H20 C17 1_555 1_555
C18 H21 1_555 1_555
C19 C18 1_555 1_555
H22 C19 1_555 1_555
C20 C19 1_555 1_555
H23 C20 1_555 1_555
C21 C20 1_555 1_555
H24 C21 1_555 1_555
C22 C21 1_555 1_555
H25 C22 1_555 1_555
C23 C18 1_555 1_555
C24 S4 1_555 1_555
H26 C24 1_555 1_555
H27 C24 1_555 1_555
C25 C24 1_555 1_555
H28 C25 1_555 1_555
H29 C25 1_555 1_555
C26 C25 1_555 1_555
H30 C26 1_555 1_555
H31 C26 1_555 1_555
C27 C26 1_555 1_555
H32 C27 1_555 1_555
H33 C27 1_555 1_555
C28 S3 1_555 1_555
H34 C28 1_555 1_555
H35 C28 1_555 1_555
C29 S3 1_555 1_555
C30 C29 1_555 1_555
H36 C30 1_555 1_555
C31 C30 1_555 1_555
H37 C31 1_555 1_555
C32 C31 1_555 1_555
H38 C32 1_555 1_555
C33 C32 1_555 1_555
H39 C33 1_555 1_555
C34 C29 1_555 1_555
H40 C34 1_555 1_555
B1 F1 1_555 1_555
F2 B1 1_555 1_555
F3 B1 1_555 1_555
F4 B1 1_555 1_555
S2_2 Ag1 1_555 1_555
S4_2 Ag1 1_555 1_555
Ag1_2 S2 1_555 1_555
Ag1_3 S4 1_555 1_555
C5 C6 1_555 1_555
C16 C17 1_555 1_555
C22 C23 1_555 1_555
C27 C28 1_555 1_555
C33 C34 1_555 1_555

#END
