
#######################################################################
#
#                 Cambridge Crystallographic Data Centre
#                                CCDC 
#
#######################################################################
#
# If this CIF has been generated from an entry in the Cambridge 
# Structural Database, then it will include bibliographic, chemical, 
# crystal, experimental, refinement or atomic coordinate data resulting 
# from the CCDC's data processing and validation procedures.
#
#######################################################################

data_ISUJEL
_symmetry_cell_setting           monoclinic
_symmetry_space_group_name_H-M   'P 21'
_symmetry_Int_Tables_number      4
_space_group_name_Hall           'P 2yb'
loop_
_symmetry_equiv_pos_site_id
_symmetry_equiv_pos_as_xyz
1 x,y,z
2 -x,1/2+y,-z
_cell_length_a                   3.8338(7)
_cell_length_b                   10.5755(12)
_cell_length_c                   8.3938(12)
_cell_angle_alpha                90
_cell_angle_beta                 96.182(14)
_cell_angle_gamma                90
_cell_volume                     338.342
loop_
_atom_site_label
_atom_site_type_symbol
_atom_site_fract_x
_atom_site_fract_y
_atom_site_fract_z
Cu1 Cu 0.22053(11) -0.02927(4) 0.09077(4)
S1 S 0.68619(18) -0.08298(6) -0.07211(8)
C1 C 0.7228(7) -0.2388(2) -0.0848(3)
N1 N 0.7483(7) -0.3472(2) -0.0953(3)
N2 N 0.2401(7) -0.1449(2) 0.2819(3)
N3 N 0.1476(8) -0.0964(3) 0.4198(3)
C2 C 0.3163(9) -0.2671(3) 0.2739(4)
H1 H 0.3784 -0.2992 0.1778
C3 C 0.3073(9) -0.3492(3) 0.4028(4)
H2 H 0.3656 -0.4341 0.3945
C4 C 0.2103(9) -0.3008(4) 0.5413(4)
H3 H 0.1969 -0.3514 0.6311
C5 C 0.1329(10) -0.1740(3) 0.5433(4)
H4 H 0.0656 -0.1402 0.6376
Cu1A Cu 0.77947(11) -0.52927(4) -0.09077(4)
S1_2 S -0.31381(18) -0.08298(6) -0.07211(8)
N1A N 0.2517(7) 0.1528(2) 0.0953(3)
Cu1_2 Cu 1.22053(11) -0.02927(4) 0.09077(4)
loop_
_geom_bond_atom_site_label_1
_geom_bond_atom_site_label_2
_geom_bond_site_symmetry_1
_geom_bond_site_symmetry_2
Cu1 S1 1_555 1_555
S1 C1 1_555 1_555
C1 N1 1_555 1_555
N1 Cu1A 1_555 1_555
N2 Cu1 1_555 1_555
N3 N2 1_555 1_555
C2 N2 1_555 1_555
H1 C2 1_555 1_555
C3 C2 1_555 1_555
H2 C3 1_555 1_555
C4 C3 1_555 1_555
H3 C4 1_555 1_555
C5 N3 1_555 1_555
H4 C5 1_555 1_555
S1_2 Cu1 1_555 1_555
N1A Cu1 1_555 1_555
Cu1_2 S1 1_555 1_555
C4 C5 1_555 1_555

#END
