
#######################################################################
#
#                 Cambridge Crystallographic Data Centre
#                                CCDC 
#
#######################################################################
#
# If this CIF has been generated from an entry in the Cambridge 
# Structural Database, then it will include bibliographic, chemical, 
# crystal, experimental, refinement or atomic coordinate data resulting 
# from the CCDC's data processing and validation procedures.
#
#######################################################################

data_ISUKEM
_symmetry_cell_setting           monoclinic
_symmetry_space_group_name_H-M   'P 21/m'
_symmetry_Int_Tables_number      11
_space_group_name_Hall           '-P 2yb'
loop_
_symmetry_equiv_pos_site_id
_symmetry_equiv_pos_as_xyz
1 x,y,z
2 x,1/2-y,z
3 -x,-y,-z
4 -x,1/2+y,-z
_cell_length_a                   5.2254(4)
_cell_length_b                   12.9371(9)
_cell_length_c                   10.5425(6)
_cell_angle_alpha                90
_cell_angle_beta                 94.247(3)
_cell_angle_gamma                90
_cell_volume                     710.732
loop_
_atom_site_label
_atom_site_type_symbol
_atom_site_fract_x
_atom_site_fract_y
_atom_site_fract_z
Zn1 Zn 0.4591(2) 0.2500 0.72070(9)
N1 N 0.2451(9) 0.3815(4) 0.7407(5)
C1 C 0.2886(12) 0.4433(5) 0.8416(6)
H1 H 0.4219 0.4268 0.9016
C2 C 0.1447(12) 0.5299(5) 0.8605(6)
H2 H 0.1829 0.5711 0.9316
C3 C -0.0574(11) 0.5563(4) 0.7739(6)
C4 C -0.1016(12) 0.4919(5) 0.6701(6)
H3 H -0.2352 0.5058 0.6093
C5 C 0.0522(12) 0.4074(5) 0.6573(6)
H4 H 0.0199 0.3657 0.5861
C6 C -0.2131(12) 0.6524(4) 0.7918(6)
H5 H -0.2641 0.6544 0.8784
H6 H -0.3677 0.6499 0.7350
C7 C -0.0646(17) 0.7500 0.7657(9)
H7 H -0.0234 0.7500 0.6775
H8 H 0.0956 0.7500 0.8184
Cl1 Cl 0.7497(5) 0.2500 0.8888(2)
Cl2 Cl 0.5460(5) 0.2500 0.5159(2)
C6A C -0.2131(12) 0.8476(4) 0.7918(6)
C3A C -0.0574(11) 0.9437(4) 0.7739(6)
C2A C 0.1447(12) 0.9701(5) 0.8605(6)
C1A C 0.2886(12) 1.0567(5) 0.8416(6)
N1A N 0.2451(9) 1.1185(4) 0.7407(5)
Zn1A Zn 0.4591(2) 1.2500 0.72070(9)
C5A C 0.0522(12) 1.0926(5) 0.6573(6)
C4A C -0.1016(12) 1.0081(5) 0.6701(6)
H3A H -0.2352 0.9942 0.6093
H4A H 0.0199 1.1343 0.5861
H1A H 0.4219 1.0732 0.9016
H2A H 0.1829 0.9289 0.9316
H5A H -0.2641 0.8456 0.8784
H6A H -0.3677 0.8501 0.7350
N1A_2 N 0.2451(9) 0.1185(4) 0.7407(5)
loop_
_geom_bond_atom_site_label_1
_geom_bond_atom_site_label_2
_geom_bond_site_symmetry_1
_geom_bond_site_symmetry_2
Zn1 N1 1_555 1_555
N1 C1 1_555 1_555
C1 H1 1_555 1_555
C2 C1 1_555 1_555
H2 C2 1_555 1_555
C3 C2 1_555 1_555
C4 C3 1_555 1_555
H3 C4 1_555 1_555
C5 N1 1_555 1_555
H4 C5 1_555 1_555
C6 C3 1_555 1_555
H5 C6 1_555 1_555
H6 C6 1_555 1_555
C7 C6 1_555 1_555
H7 C7 1_555 1_555
H8 C7 1_555 1_555
Cl1 Zn1 1_555 1_555
Cl2 Zn1 1_555 1_555
C6A C7 1_555 1_555
C3A C6A 1_555 1_555
C2A C3A 1_555 1_555
C1A C2A 1_555 1_555
N1A C1A 1_555 1_555
Zn1A N1A 1_555 1_555
C5A N1A 1_555 1_555
C4A C3A 1_555 1_555
H3A C4A 1_555 1_555
H4A C5A 1_555 1_555
H1A C1A 1_555 1_555
H2A C2A 1_555 1_555
H5A C6A 1_555 1_555
H6A C6A 1_555 1_555
N1A_2 Zn1 1_555 1_555
C4 C5 1_555 1_555
C5A C4A 1_555 1_555

#END
