
#######################################################################
#
#                 Cambridge Crystallographic Data Centre
#                                CCDC 
#
#######################################################################
#
# If this CIF has been generated from an entry in the Cambridge 
# Structural Database, then it will include bibliographic, chemical, 
# crystal, experimental, refinement or atomic coordinate data resulting 
# from the CCDC's data processing and validation procedures.
#
#######################################################################

data_ISULIR
_symmetry_cell_setting           triclinic
_symmetry_space_group_name_H-M   'P -1'
_symmetry_Int_Tables_number      2
_space_group_name_Hall           '-P 1'
loop_
_symmetry_equiv_pos_site_id
_symmetry_equiv_pos_as_xyz
1 x,y,z
2 -x,-y,-z
_cell_length_a                   12.2779(12)
_cell_length_b                   13.9092(12)
_cell_length_c                   14.2565(13)
_cell_angle_alpha                61.1400(10)
_cell_angle_beta                 80.629(2)
_cell_angle_gamma                88.4640(10)
_cell_volume                     2100.05
loop_
_atom_site_label
_atom_site_type_symbol
_atom_site_fract_x
_atom_site_fract_y
_atom_site_fract_z
Cd1 Cd -0.078140(14) 0.307360(16) -0.320590(14)
Cd2 Cd 0.550410(14) 0.455310(15) -0.807960(14)
O1 O 0.07370(14) 0.32424(15) -0.45893(14)
O2 O -0.07428(13) 0.22181(15) -0.43060(14)
O3 O 0.38339(15) 0.37370(18) -0.75364(17)
O4 O 0.37898(15) 0.28312(16) -0.84558(15)
O5 O -0.14597(14) 0.45657(15) -0.47347(14)
O6 O -0.28011(15) 0.56487(16) 0.09835(15)
O7 O -0.32874(14) 0.44490(16) 0.05169(15)
O8 O 0.06513(17) 0.5184(2) -0.33076(17)
O9 O -0.09748(18) 0.42500(18) -0.25629(18)
O10 O 0.47785(14) 0.60802(16) -0.95727(14)
N1 N -0.40868(19) 0.2290(2) -0.12075(19)
H1 H -0.4574 0.2460 -0.0814
N2 N -0.24884(17) 0.23122(18) -0.21947(17)
N3 N 0.1323(2) 0.1468(3) -0.0665(2)
H2 H 0.1664 0.1505 -0.0201
N4 N 0.02512(19) 0.1954(2) -0.19124(19)
N5 N 0.38445(17) 0.57871(19) -0.59531(18)
H3 H 0.3230 0.5820 -0.5585
N6 N 0.50188(16) 0.53318(18) -0.70008(17)
N7 N 0.75440(17) 0.24907(19) -0.55968(19)
H4 H 0.7996 0.2453 -0.5180
N8 N 0.64488(17) 0.32138(18) -0.68304(17)
C1 C -0.3060(2) 0.2741(2) -0.1637(2)
H5 H -0.2776 0.3301 -0.1552
C2 C -0.3062(2) 0.0801(2) -0.2546(2)
H6 H -0.2388 0.0797 -0.2951
C3 C -0.3942(3) 0.0095(3) -0.2346(3)
H7 H -0.3861 -0.0395 -0.2619
C4 C -0.4957(3) 0.0106(3) -0.1738(3)
H8 H -0.5536 -0.0379 -0.1618
C5 C -0.5121(2) 0.0804(3) -0.1317(3)
H9 H -0.5799 0.0812 -0.0921
C6 C -0.4226(2) 0.1506(2) -0.1506(2)
C7 C -0.3214(2) 0.1517(2) -0.2123(2)
C8 C 0.0662(3) 0.2209(3) -0.1269(3)
H10 H 0.0509 0.2850 -0.1234
C9 C 0.0584(4) 0.0308(3) -0.2202(3)
H11 H 0.0143 0.0506 -0.2732
C10 C 0.1156(5) -0.0628(3) -0.1874(4)
H12 H 0.1112 -0.1061 -0.2201
C11 C 0.1806(4) -0.0950(3) -0.1058(4)
H13 H 0.2172 -0.1598 -0.0845
C12 C 0.1908(3) -0.0331(3) -0.0573(3)
H14 H 0.2332 -0.0545 -0.0028
C13 C 0.1354(2) 0.0639(3) -0.0923(2)
C14 C 0.0686(2) 0.0953(2) -0.1715(2)
C15 C 0.02340(19) 0.2608(2) -0.47927(19)
C16 C 0.07841(19) 0.22905(19) -0.56102(19)
C17 C 0.0260(2) 0.1509(2) -0.5759(2)
H15 H -0.0416 0.1165 -0.5330
C18 C 0.0743(2) 0.1246(2) -0.6542(2)
H16 H 0.0394 0.0721 -0.6636
C19 C 0.1745(2) 0.1759(2) -0.7191(2)
H17 H 0.2053 0.1594 -0.7733
C20 C 0.22907(19) 0.25192(19) -0.70368(19)
C21 C 0.18073(19) 0.2776(2) -0.62396(19)
H18 H 0.2172 0.3278 -0.6126
C22 C 0.33954(19) 0.3072(2) -0.7742(2)
C23 C 0.3999(2) 0.5232(2) -0.6503(2)
H19 H 0.3438 0.4815 -0.6532
C24 C 0.6698(2) 0.6363(2) -0.7017(2)
H20 H 0.7196 0.6177 -0.7460
C25 C 0.7029(2) 0.7002(3) -0.6614(2)
H21 H 0.7771 0.7236 -0.6771
C26 C 0.6278(3) 0.7308(3) -0.5972(3)
H22 H 0.6533 0.7752 -0.5722
C27 C 0.5178(2) 0.6975(2) -0.5698(2)
H23 H 0.4679 0.7190 -0.5279
C28 C 0.4846(2) 0.6298(2) -0.6080(2)
C29 C 0.55859(19) 0.6003(2) -0.67404(19)
C30 C 0.7130(2) 0.3407(2) -0.6308(2)
H24 H 0.7304 0.4105 -0.6420
C31 C 0.5867(3) 0.1422(3) -0.6707(3)
H25 H 0.5409 0.1718 -0.7227
C32 C 0.6014(3) 0.0309(3) -0.6170(4)
H26 H 0.5652 -0.0154 -0.6335
C33 C 0.6695(3) -0.0137(3) -0.5385(3)
H27 H 0.6768 -0.0893 -0.5036
C34 C 0.7258(3) 0.0496(3) -0.5111(3)
H28 H 0.7713 0.0192 -0.4589
C35 C 0.7116(2) 0.1625(2) -0.5655(2)
C36 C 0.6430(2) 0.2083(2) -0.6438(2)
C37 C -0.2626(2) 0.5185(2) 0.0405(2)
C38 C -0.15906(19) 0.5510(2) -0.04178(19)
C39 C -0.14017(19) 0.5081(2) -0.11240(19)
H29 H -0.1930 0.4594 -0.1090
C40 C -0.04373(19) 0.5369(2) -0.18807(19)
C41 C 0.0354(2) 0.6080(2) -0.1904(2)
H30 H 0.1009 0.6274 -0.2403
C42 C 0.0179(2) 0.6500(2) -0.1197(2)
H31 H 0.0717 0.6970 -0.1216
C43 C -0.0791(2) 0.6227(2) -0.0465(2)
H32 H -0.0912 0.6523 0.0001
C44 C -0.0226(2) 0.4903(2) -0.2658(2)
H35 H -0.1117 0.4654 -0.5331
H36 H -0.1315 0.5257 -0.4751
H37 H 0.4224 0.5905 -0.9784
H38 H 0.5209 0.6373 -1.0196
O6_2 O 0.71989(15) 0.56487(16) -0.90165(15)
Cd2_2 Cd -0.449590(14) 0.455310(15) 0.192040(14)
O7_2 O 0.67126(14) 0.44490(16) -0.94831(15)
O11 O 0.6857(2) 0.7905(2) -1.0032(2)
H33 H 0.7033 0.7153 -0.9636
H34 H 0.6601 0.7889 -1.0602
loop_
_geom_bond_atom_site_label_1
_geom_bond_atom_site_label_2
_geom_bond_site_symmetry_1
_geom_bond_site_symmetry_2
Cd1 O1 1_555 1_555
Cd2 O3 1_555 1_555
O1 C15 1_555 1_555
O2 Cd1 1_555 1_555
O3 C22 1_555 1_555
O4 C22 1_555 1_555
O5 Cd1 1_555 1_555
O6 C37 1_555 1_555
O7 C37 1_555 1_555
O8 C44 1_555 1_555
O9 Cd1 1_555 1_555
O10 Cd2 1_555 1_555
N1 H1 1_555 1_555
N2 Cd1 1_555 1_555
N3 H2 1_555 1_555
N4 Cd1 1_555 1_555
N5 H3 1_555 1_555
N6 Cd2 1_555 1_555
N7 H4 1_555 1_555
N8 Cd2 1_555 1_555
C1 N1 1_555 1_555
H5 C1 1_555 1_555
C2 H6 1_555 1_555
C3 C2 1_555 1_555
H7 C3 1_555 1_555
C4 C3 1_555 1_555
H8 C4 1_555 1_555
C5 C4 1_555 1_555
H9 C5 1_555 1_555
C6 N1 1_555 1_555
C7 N2 1_555 1_555
C8 N3 1_555 1_555
H10 C8 1_555 1_555
C9 H11 1_555 1_555
C10 C9 1_555 1_555
H12 C10 1_555 1_555
C11 C10 1_555 1_555
H13 C11 1_555 1_555
C12 C11 1_555 1_555
H14 C12 1_555 1_555
C13 N3 1_555 1_555
C14 N4 1_555 1_555
C15 O2 1_555 1_555
C16 C15 1_555 1_555
C17 C16 1_555 1_555
H15 C17 1_555 1_555
C18 C17 1_555 1_555
H16 C18 1_555 1_555
C19 C18 1_555 1_555
H17 C19 1_555 1_555
C20 C19 1_555 1_555
C21 C16 1_555 1_555
H18 C21 1_555 1_555
C22 C20 1_555 1_555
C23 N5 1_555 1_555
H19 C23 1_555 1_555
C24 H20 1_555 1_555
C25 C24 1_555 1_555
H21 C25 1_555 1_555
C26 C25 1_555 1_555
H22 C26 1_555 1_555
C27 C26 1_555 1_555
H23 C27 1_555 1_555
C28 N5 1_555 1_555
C29 N6 1_555 1_555
C30 N7 1_555 1_555
H24 C30 1_555 1_555
C31 H25 1_555 1_555
C32 C31 1_555 1_555
H26 C32 1_555 1_555
C33 C32 1_555 1_555
H27 C33 1_555 1_555
C34 C33 1_555 1_555
H28 C34 1_555 1_555
C35 N7 1_555 1_555
C36 N8 1_555 1_555
C37 C38 1_555 1_555
C38 C39 1_555 1_555
C39 H29 1_555 1_555
C40 C39 1_555 1_555
C41 C40 1_555 1_555
H30 C41 1_555 1_555
C42 C41 1_555 1_555
H31 C42 1_555 1_555
C43 C38 1_555 1_555
H32 C43 1_555 1_555
C44 O9 1_555 1_555
O11 H33 1_555 1_555
H34 O11 1_555 1_555
H35 O5 1_555 1_555
H36 O5 1_555 1_555
H37 O10 1_555 1_555
H38 O10 1_555 1_555
O6_2 Cd2 1_555 1_555
Cd2_2 O6 1_555 1_555
O7_2 Cd2 1_555 1_555
O7 Cd2_2 1_555 1_555
N2 C1 1_555 1_555
N4 C8 1_555 1_555
N6 C23 1_555 1_555
N8 C30 1_555 1_555
C2 C7 1_555 1_555
C5 C6 1_555 1_555
C6 C7 1_555 1_555
C9 C14 1_555 1_555
C12 C13 1_555 1_555
C13 C14 1_555 1_555
C20 C21 1_555 1_555
C24 C29 1_555 1_555
C27 C28 1_555 1_555
C28 C29 1_555 1_555
C31 C36 1_555 1_555
C34 C35 1_555 1_555
C35 C36 1_555 1_555
C40 C44 1_555 1_555
C42 C43 1_555 1_555

#END
