
#######################################################################
#
#                 Cambridge Crystallographic Data Centre
#                                CCDC 
#
#######################################################################
#
# If this CIF has been generated from an entry in the Cambridge 
# Structural Database, then it will include bibliographic, chemical, 
# crystal, experimental, refinement or atomic coordinate data resulting 
# from the CCDC's data processing and validation procedures.
#
#######################################################################

data_ISUMUF
_symmetry_cell_setting           triclinic
_symmetry_space_group_name_H-M   'P -1'
_symmetry_Int_Tables_number      2
_space_group_name_Hall           '-P 1'
loop_
_symmetry_equiv_pos_site_id
_symmetry_equiv_pos_as_xyz
1 x,y,z
2 -x,-y,-z
_cell_length_a                   10.2189(5)
_cell_length_b                   10.2854(5)
_cell_length_c                   15.9509(8)
_cell_angle_alpha                86.1750(10)
_cell_angle_beta                 89.3030(10)
_cell_angle_gamma                63.4580(10)
_cell_volume                     1496.2
loop_
_atom_site_label
_atom_site_type_symbol
_atom_site_fract_x
_atom_site_fract_y
_atom_site_fract_z
Pr1 Pr 0.44973(2) 0.97132(2) 0.229113(14)
Ag1 Ag 0.87676(4) 0.49326(5) 0.04987(3)
Ag2 Ag 0.82535(6) 0.27742(5) 0.22477(3)
Ag3 Ag 0.61794(5) 0.40632(5) 0.08154(3)
S1 S 0.92994(13) 0.47019(13) 0.20767(8)
S2 S 0.61810(12) 0.61430(13) -0.01784(7)
S3 S 0.82679(14) 1.13961(14) 0.08809(9)
S4 S 0.06376(13) 1.26878(13) -0.01594(7)
S5 S 0.52994(14) 1.44714(13) 0.23952(8)
S6 S -0.05274(16) 1.14358(19) 0.36316(10)
N1 N 0.2858(4) 0.8369(4) 0.2281(2)
N2 N 0.2579(4) 0.7764(4) 0.3005(2)
N3 N 0.4317(4) 0.8176(4) 0.3698(2)
N4 N 0.6090(4) 0.8636(4) 0.4324(2)
N5 N 0.6137(5) 0.9378(5) 0.3598(3)
N6 N 0.6664(5) 0.7133(4) 0.2409(3)
N7 N 0.4907(5) 0.8445(5) 0.0885(3)
N8 N 0.6610(5) 1.0038(5) 0.1574(3)
N9 N 0.2523(5) 1.1348(5) 0.1235(3)
N10 N 0.4402(5) 1.2248(5) 0.2530(3)
N11 N 0.2231(4) 1.1129(4) 0.3164(3)
C1 C 0.1956(6) 0.8325(6) 0.1717(4)
H1 H 0.1898 0.8680 0.1160
C2 C 0.1097(8) 0.7685(8) 0.2048(4)
H2 H 0.0382 0.7540 0.1771
C3 C 0.1541(7) 0.7320(7) 0.2866(4)
H3 H 0.1194 0.6849 0.3261
C4 C 0.3363(5) 0.7618(5) 0.3747(3)
C5 C 0.3125(6) 0.6941(6) 0.4470(4)
H4 H 0.2433 0.6584 0.4479
C6 C 0.3955(7) 0.6811(7) 0.5183(4)
H5 H 0.3828 0.6358 0.5681
C7 C 0.4963(6) 0.7355(6) 0.5148(3)
H6 H 0.5539 0.7269 0.5615
C8 C 0.5092(5) 0.8031(5) 0.4399(3)
C9 C 0.7121(7) 0.8540(6) 0.4875(4)
H7 H 0.7275 0.8101 0.5417
C10 C 0.7884(7) 0.9178(7) 0.4513(4)
H8 H 0.8680 0.9257 0.4736
C11 C 0.7216(6) 0.9704(6) 0.3718(4)
H9 H 0.7506 1.0225 0.3323
C12 C 0.7733(6) 0.6139(5) 0.2269(3)
C13 C 0.5417(5) 0.7506(5) 0.0453(3)
C14 C 0.7278(5) 1.0600(5) 0.1290(3)
C15 C 0.1744(5) 1.1912(5) 0.0668(3)
C16 C 0.4765(5) 1.3157(5) 0.2473(3)
C17 C 0.1091(5) 1.1267(5) 0.3345(3)
Ag1_2 Ag -0.12324(4) 1.49326(5) 0.04987(3)
Ag1A Ag 0.12324(4) 1.50674(5) -0.04987(3)
Ag2_2 Ag 0.82535(6) 1.27742(5) 0.22477(3)
Ag2_3 Ag -0.17465(6) 1.27742(5) 0.22477(3)
Ag3A Ag 0.38206(5) 0.59368(5) -0.08154(3)
Ag3_2 Ag 0.61794(5) 1.40632(5) 0.08154(3)
S2A S 0.38190(12) 0.38570(13) 0.01784(7)
S3_2 S 0.82679(14) 0.13961(14) 0.08809(9)
S4_2 S 1.06376(13) 0.26878(13) -0.01594(7)
S4A S 0.93624(13) 0.73122(13) 0.01594(7)
S5_2 S 0.52994(14) 0.44714(13) 0.23952(8)
S6_2 S 0.94726(16) 0.14358(19) 0.36316(10)
O1 O -0.0642(17) 0.4984(14) 0.4304(8)
O2? O 0.1240(16) 0.5114(15) 0.4472(10)
O3? O 0.0333(17) 0.5028(17) 0.4861(10)
loop_
_geom_bond_atom_site_label_1
_geom_bond_atom_site_label_2
_geom_bond_site_symmetry_1
_geom_bond_site_symmetry_2
Pr1 N1 1_555 1_555
Ag1 S1 1_555 1_555
Ag2 S1 1_555 1_555
Ag3 S2 1_555 1_555
S1 C12 1_555 1_555
S2 Ag1 1_555 1_555
S3 C14 1_555 1_555
S4 C15 1_555 1_555
S5 C16 1_555 1_555
S6 C17 1_555 1_555
N1 N2 1_555 1_555
N2 C3 1_555 1_555
N3 Pr1 1_555 1_555
N4 N5 1_555 1_555
N5 Pr1 1_555 1_555
N6 Pr1 1_555 1_555
N7 Pr1 1_555 1_555
N8 Pr1 1_555 1_555
N9 Pr1 1_555 1_555
N10 Pr1 1_555 1_555
N11 Pr1 1_555 1_555
C1 N1 1_555 1_555
H1 C1 1_555 1_555
C2 C1 1_555 1_555
H2 C2 1_555 1_555
C3 C2 1_555 1_555
H3 C3 1_555 1_555
C4 N2 1_555 1_555
C5 C4 1_555 1_555
H4 C5 1_555 1_555
C6 C5 1_555 1_555
H5 C6 1_555 1_555
C7 C6 1_555 1_555
H6 C7 1_555 1_555
C8 N3 1_555 1_555
C9 N4 1_555 1_555
H7 C9 1_555 1_555
C10 C9 1_555 1_555
H8 C10 1_555 1_555
C11 N5 1_555 1_555
H9 C11 1_555 1_555
C12 N6 1_555 1_555
C13 S2 1_555 1_555
C14 N8 1_555 1_555
C15 N9 1_555 1_555
C16 N10 1_555 1_555
C17 N11 1_555 1_555
Ag1_2 S4 1_555 1_555
Ag1A S4 1_555 1_555
Ag2_2 S3 1_555 1_555
Ag2_3 S6 1_555 1_555
Ag3A S2 1_555 1_555
Ag3_2 S3 1_555 1_555
S2A Ag3 1_555 1_555
S3_2 Ag2 1_555 1_555
S4_2 Ag1 1_555 1_555
S4A Ag1 1_555 1_555
S5_2 Ag2 1_555 1_555
S6_2 Ag2 1_555 1_555
Ag3 S3_2 1_555 1_555
Ag3 S5_2 1_555 1_555
S5 Ag2_2 1_555 1_555
S5 Ag3_2 1_555 1_555
N3 C4 1_555 1_555
N4 C8 1_555 1_555
N7 C13 1_555 1_555
C7 C8 1_555 1_555
C10 C11 1_555 1_555
Ag3A S2A 1_555 1_555

#END
