
#######################################################################
#
#                 Cambridge Crystallographic Data Centre
#                                CCDC 
#
#######################################################################
#
# If this CIF has been generated from an entry in the Cambridge 
# Structural Database, then it will include bibliographic, chemical, 
# crystal, experimental, refinement or atomic coordinate data resulting 
# from the CCDC's data processing and validation procedures.
#
#######################################################################

data_ISUMAK
_symmetry_cell_setting           triclinic
_symmetry_space_group_name_H-M   'P -1'
_symmetry_Int_Tables_number      2
_space_group_name_Hall           '-P 1'
loop_
_symmetry_equiv_pos_site_id
_symmetry_equiv_pos_as_xyz
1 x,y,z
2 -x,-y,-z
_cell_length_a                   7.646(3)
_cell_length_b                   8.690(3)
_cell_length_c                   9.266(3)
_cell_angle_alpha                95.430(5)
_cell_angle_beta                 105.054(6)
_cell_angle_gamma                100.884(5)
_cell_volume                     577.105
loop_
_atom_site_label
_atom_site_type_symbol
_atom_site_fract_x
_atom_site_fract_y
_atom_site_fract_z
Zn1 Zn 0.13542(3) -0.32741(2) -0.04222(2)
N1 N 0.5348(2) -0.19399(17) 0.37504(16)
N2 N 0.5678(2) -0.05561(18) 0.31816(18)
N3 N 0.3418(2) -0.23880(17) 0.15051(16)
N4 N 0.8152(2) -0.38969(17) 0.41296(16)
N5 N 0.7474(2) -0.53308(18) 0.44963(18)
N6 N 0.8153(2) -0.56338(17) 0.22871(16)
N7 N 0.1502(3) -0.1152(2) -0.1194(2)
N8 N 0.0641(2) -0.02420(17) -0.17092(17)
N9 N -0.0158(3) 0.0664(2) -0.2262(2)
N10 N -0.1289(2) -0.41136(18) -0.04944(19)
N11 N -0.2475(2) -0.33589(18) -0.06923(19)
N12 N -0.3654(3) -0.2693(3) -0.0878(3)
C1 C 0.4480(3) -0.0883(2) 0.1833(2)
H1 H 0.4363 -0.0137 0.1147
C2 C 0.4014(2) -0.3010(2) 0.2742(2)
H2 H 0.3557 -0.4062 0.2885
C3 C 0.7502(2) -0.6337(2) 0.3352(2)
H3 H 0.7103 -0.7452 0.3277
C4 C 0.8546(2) -0.4091(2) 0.2821(2)
H4 H 0.9031 -0.3261 0.2339
C5 C 0.6499(3) -0.2126(2) 0.52177(19)
H5 H 0.5843 -0.3027 0.5594
H6 H 0.6701 -0.1157 0.5948
C6 C 0.8366(2) -0.2421(2) 0.5123(2)
H7 H 0.9016 -0.1525 0.4737
H8 H 0.9141 -0.2472 0.6148
N6A N 0.1847(2) -0.43662(17) -0.22871(16)
Zn1A Zn 0.86458(3) -0.67259(2) 0.04222(2)
Zn1A_2 Zn -0.13542(3) -0.67259(2) 0.04222(2)
N10A N 0.1289(2) -0.58864(18) 0.04944(19)
loop_
_geom_bond_atom_site_label_1
_geom_bond_atom_site_label_2
_geom_bond_site_symmetry_1
_geom_bond_site_symmetry_2
Zn1 N3 1_555 1_555
N1 N2 1_555 1_555
N2 C1 1_555 1_555
N3 C1 1_555 1_555
N4 N5 1_555 1_555
N5 C3 1_555 1_555
N6 C3 1_555 1_555
N7 Zn1 1_555 1_555
N8 N7 1_555 1_555
N9 N8 1_555 1_555
N10 Zn1 1_555 1_555
N11 N10 1_555 1_555
N12 N11 1_555 1_555
C1 H1 1_555 1_555
C2 N1 1_555 1_555
H2 C2 1_555 1_555
C3 H3 1_555 1_555
C4 N4 1_555 1_555
H4 C4 1_555 1_555
C5 N1 1_555 1_555
H5 C5 1_555 1_555
H6 C5 1_555 1_555
C6 N4 1_555 1_555
H7 C6 1_555 1_555
H8 C6 1_555 1_555
N6A Zn1 1_555 1_555
Zn1A N6 1_555 1_555
Zn1A_2 N10 1_555 1_555
N10A Zn1 1_555 1_555
N3 C2 1_555 1_555
N6 C4 1_555 1_555
C5 C6 1_555 1_555
Zn1A_2 N10A 1_555 1_555

#END
