
#######################################################################
#
#                 Cambridge Crystallographic Data Centre
#                                CCDC 
#
#######################################################################
#
# If this CIF has been generated from an entry in the Cambridge 
# Structural Database, then it will include bibliographic, chemical, 
# crystal, experimental, refinement or atomic coordinate data resulting 
# from the CCDC's data processing and validation procedures.
#
#######################################################################

data_ISUMOZ
_symmetry_cell_setting           triclinic
_symmetry_space_group_name_H-M   'P -1'
_symmetry_Int_Tables_number      2
_space_group_name_Hall           '-P 1'
loop_
_symmetry_equiv_pos_site_id
_symmetry_equiv_pos_as_xyz
1 x,y,z
2 -x,-y,-z
_cell_length_a                   5.3485(4)
_cell_length_b                   6.1440(4)
_cell_length_c                   7.1897(4)
_cell_angle_alpha                74.864(3)
_cell_angle_beta                 77.497(3)
_cell_angle_gamma                82.069(3)
_cell_volume                     221.824
loop_
_atom_site_label
_atom_site_type_symbol
_atom_site_fract_x
_atom_site_fract_y
_atom_site_fract_z
Cu1 Cu 0.5000 0.0000 0.5000
Cl1 Cl 0.32030(12) 0.33924(9) 0.35281(9)
O1 O 0.2871(4) -0.1560(3) 0.3973(3)
H1 H 0.167(6) -0.098(5) 0.345(4)
H2 H 0.316(6) -0.300(5) 0.429(4)
O2 O 0.1252(3) 0.0079(2) 0.8033(2)
C1 C 0.0937(5) -0.2027(4) 0.9471(4)
H3 H 0.2444 -0.2457 1.0074
H4 H 0.0776 -0.3199 0.8836
C2 C 0.1398(5) 0.1834(4) 0.8983(3)
H5 H 0.1555 0.3266 0.8015
H6 H 0.2916 0.1502 0.9574
Cu1_2 Cu -0.5000 0.0000 1.5000
Cl1A Cl 0.67970(12) -0.33924(9) 0.64719(9)
O1A O 0.7129(4) 0.1560(3) 0.6027(3)
H1A H 0.833(6) 0.098(5) 0.655(4)
H2A H 0.684(6) 0.300(5) 0.571(4)
O2A O -0.1252(3) -0.0079(2) 1.1967(2)
O2A_2 O 0.8748(3) -0.0079(2) 0.1967(2)
C1A C -0.0937(5) 0.2027(4) 1.0529(4)
H3A H -0.2444 0.2457 0.9926
H4A H -0.0776 0.3199 1.1164
C2A C -0.1398(5) -0.1834(4) 1.1017(3)
H5A H -0.1555 -0.3266 1.1985
H6A H -0.2916 -0.1502 1.0426
loop_
_geom_bond_atom_site_label_1
_geom_bond_atom_site_label_2
_geom_bond_site_symmetry_1
_geom_bond_site_symmetry_2
Cu1 Cl1 1_555 1_555
O1 Cu1 1_555 1_555
H1 O1 1_555 1_555
H2 O1 1_555 1_555
O2 Cu1 1_555 1_555
C1 O2 1_555 1_555
H3 C1 1_555 1_555
H4 C1 1_555 1_555
C2 O2 1_555 1_555
H5 C2 1_555 1_555
H6 C2 1_555 1_555
Cu1_2 O2A 1_555 1_555
Cl1A Cu1 1_555 1_555
O1A Cu1 1_555 1_555
H1A O1A 1_555 1_555
H2A O1A 1_555 1_555
O2A C1A 1_555 1_555
O2A_2 Cu1 1_555 1_555
C1A C2 1_555 1_555
H3A C1A 1_555 1_555
H4A C1A 1_555 1_555
C2A C1 1_555 1_555
H5A C2A 1_555 1_555
H6A C2A 1_555 1_555
O2A C2A 1_555 1_555

#END
