
#######################################################################
#
#                 Cambridge Crystallographic Data Centre
#                                CCDC 
#
#######################################################################
#
# If this CIF has been generated from an entry in the Cambridge 
# Structural Database, then it will include bibliographic, chemical, 
# crystal, experimental, refinement or atomic coordinate data resulting 
# from the CCDC's data processing and validation procedures.
#
#######################################################################

data_ISUNAM
_symmetry_cell_setting           monoclinic
_symmetry_space_group_name_H-M   'P 21/n'
_symmetry_Int_Tables_number      14
_space_group_name_Hall           '-P 2yn'
loop_
_symmetry_equiv_pos_site_id
_symmetry_equiv_pos_as_xyz
1 x,y,z
2 1/2-x,1/2+y,1/2-z
3 -x,-y,-z
4 1/2+x,1/2-y,1/2+z
_cell_length_a                   11.831
_cell_length_b                   16.177
_cell_length_c                   15.046
_cell_angle_alpha                90
_cell_angle_beta                 103.27
_cell_angle_gamma                90
_cell_volume                     2802.77
loop_
_atom_site_label
_atom_site_type_symbol
_atom_site_fract_x
_atom_site_fract_y
_atom_site_fract_z
Pr1 Pr 0.04031(2) 0.164411(15) 0.780459(17)
Ag1 Ag 0.47157(4) 0.16326(4) 0.67245(4)
Ag2 Ag 0.35882(6) -0.01271(5) 0.54798(4)
Ag3 Ag 0.22704(6) 0.15152(3) 0.40715(4)
S1 S 0.40951(11) 0.01605(8) 0.71759(9)
S2 S 0.30568(11) 0.23856(9) 0.56157(10)
S3 S 0.09859(18) 0.37520(12) 1.05483(10)
S4 S -0.14436(11) -0.03650(8) 0.50857(9)
S5 S -0.15312(13) 0.43145(9) 0.81917(11)
N1 N 0.1887(4) 0.0632(3) 0.7397(3)
N2 N 0.1124(4) 0.2174(3) 0.6381(3)
N3 N 0.0335(4) 0.2430(3) 0.9317(3)
N4 N 0.0144(4) 0.0255(3) 0.8549(3)
N5 N 0.0959(4) -0.0083(3) 0.9250(3)
N6 N 0.2067(4) 0.1097(3) 0.9239(3)
N7 N 0.3101(4) 0.2294(3) 0.9127(3)
N8 N 0.2315(4) 0.2485(3) 0.8342(3)
N9 N -0.0505(4) 0.3049(3) 0.7389(3)
N10 N -0.0738(4) 0.0815(3) 0.6466(3)
C1 C 0.2781(4) 0.0439(3) 0.7292(3)
C2 C 0.1917(4) 0.2250(3) 0.6060(3)
C3 C 0.0591(5) 0.2979(4) 0.9812(3)
C4 C -0.0712(6) -0.0297(4) 0.8368(4)
H1 H -0.1391 -0.0236 0.7918
C5 C -0.0455(6) -0.0980(4) 0.8944(5)
H2 H -0.0910 -0.1448 0.8947
C6 C 0.0594(6) -0.0820(3) 0.9499(4)
H3 H 0.0993 -0.1158 0.9967
C7 C 0.1993(5) 0.0352(4) 0.9599(3)
C8 C 0.2877(6) 0.0010(4) 1.0270(4)
H4 H 0.2814 -0.0520 1.0494
C9 C 0.3842(6) 0.0485(5) 1.0588(5)
H5 H 0.4432 0.0286 1.1059
C10 C 0.3956(6) 0.1247(5) 1.0225(4)
H6 H 0.4620 0.1566 1.0425
C11 C 0.3042(4) 0.1521(4) 0.9552(4)
C12 C 0.3901(5) 0.2914(4) 0.9345(5)
H7 H 0.4526 0.2923 0.9849
C13 C 0.3634(5) 0.3503(4) 0.8713(5)
H8 H 0.4024 0.3999 0.8688
C14 C 0.2641(5) 0.3216(3) 0.8094(4)
H9 H 0.2259 0.3502 0.7575
C15 C -0.0946(4) 0.3570(3) 0.7715(4)
C16 C -0.1043(4) 0.0326(3) 0.5903(3)
S6 S -0.38830(12) 0.22220(11) 0.81544(11)
N11 N -0.1731(4) 0.1574(3) 0.8001(4)
C17 C -0.2620(4) 0.1828(3) 0.8041(4)
Ag1C Ag -0.02843(4) 0.33674(4) 1.17245(4)
Ag1_2 Ag -0.52843(4) 0.16326(4) 0.67245(4)
Ag2A Ag 0.14118(6) 0.48729(5) 0.95202(4)
Ag2B Ag -0.35882(6) 0.01271(5) 0.45202(4)
Ag3B Ag -0.22704(6) -0.15152(3) 0.59285(4)
Ag3C Ag -0.27296(6) 0.34848(3) 0.90715(4)
S3C S 0.59859(18) 0.12480(12) 0.55483(10)
S3A S 0.40141(18) -0.12480(12) 0.44517(10)
S4B S 0.14436(11) 0.03650(8) 0.49143(9)
S5C S 0.34688(13) 0.06855(9) 0.31917(11)
S6_2 S 0.61170(12) 0.22220(11) 0.81544(11)
S6C S 0.11170(12) 0.27780(11) 0.31544(11)
loop_
_geom_bond_atom_site_label_1
_geom_bond_atom_site_label_2
_geom_bond_site_symmetry_1
_geom_bond_site_symmetry_2
Pr1 N1 1_555 1_555
Ag1 S1 1_555 1_555
Ag2 S1 1_555 1_555
Ag3 S2 1_555 1_555
S1 C1 1_555 1_555
S2 Ag1 1_555 1_555
S3 C3 1_555 1_555
S4 C16 1_555 1_555
S5 C15 1_555 1_555
N1 C1 1_555 1_555
N2 Pr1 1_555 1_555
N3 Pr1 1_555 1_555
N4 Pr1 1_555 1_555
N5 N4 1_555 1_555
N6 Pr1 1_555 1_555
N7 N8 1_555 1_555
N8 Pr1 1_555 1_555
N9 Pr1 1_555 1_555
N10 Pr1 1_555 1_555
C2 S2 1_555 1_555
C3 N3 1_555 1_555
C4 N4 1_555 1_555
H1 C4 1_555 1_555
C5 C4 1_555 1_555
H2 C5 1_555 1_555
C6 N5 1_555 1_555
H3 C6 1_555 1_555
C7 N5 1_555 1_555
C8 C7 1_555 1_555
H4 C8 1_555 1_555
C9 C8 1_555 1_555
H5 C9 1_555 1_555
C10 C9 1_555 1_555
H6 C10 1_555 1_555
C11 N6 1_555 1_555
C12 N7 1_555 1_555
H7 C12 1_555 1_555
C13 C12 1_555 1_555
H8 C13 1_555 1_555
C14 N8 1_555 1_555
H9 C14 1_555 1_555
C15 N9 1_555 1_555
C16 N10 1_555 1_555
S6 C17 1_555 1_555
N11 Pr1 1_555 1_555
C17 N11 1_555 1_555
Ag1C S3 1_555 1_555
Ag1_2 S6 1_555 1_555
Ag2A S3 1_555 1_555
Ag2B S4 1_555 1_555
Ag3B S4 1_555 1_555
Ag3C S5 1_555 1_555
S3C Ag1 1_555 1_555
S3A Ag2 1_555 1_555
S4B Ag2 1_555 1_555
S5C Ag3 1_555 1_555
S6_2 Ag1 1_555 1_555
S6C Ag3 1_555 1_555
Ag3 S4B 1_555 1_555
N2 C2 1_555 1_555
N6 C7 1_555 1_555
N7 C11 1_555 1_555
C5 C6 1_555 1_555
C10 C11 1_555 1_555
C13 C14 1_555 1_555
S6 Ag3C 1_555 1_555

#END
