
#######################################################################
#
#                 Cambridge Crystallographic Data Centre
#                                CCDC 
#
#######################################################################
#
# If this CIF has been generated from an entry in the Cambridge 
# Structural Database, then it will include bibliographic, chemical, 
# crystal, experimental, refinement or atomic coordinate data resulting 
# from the CCDC's data processing and validation procedures.
#
#######################################################################

data_ISUXAW
_symmetry_cell_setting           monoclinic
_symmetry_space_group_name_H-M   'P 21/n'
_symmetry_Int_Tables_number      14
_space_group_name_Hall           '-P 2yn'
loop_
_symmetry_equiv_pos_site_id
_symmetry_equiv_pos_as_xyz
1 x,y,z
2 1/2-x,1/2+y,1/2-z
3 -x,-y,-z
4 1/2+x,1/2-y,1/2+z
_cell_length_a                   18.351(4)
_cell_length_b                   6.8811(14)
_cell_length_c                   18.407(4)
_cell_angle_alpha                90
_cell_angle_beta                 110.12(3)
_cell_angle_gamma                90
_cell_volume                     2182.5
loop_
_atom_site_label
_atom_site_type_symbol
_atom_site_fract_x
_atom_site_fract_y
_atom_site_fract_z
Dy1 Dy 0.373532(11) 0.22312(3) 0.376945(13)
Dy2 Dy 0.375404(11) 0.25247(3) 0.895859(13)
N1 N 0.42980(19) 0.3319(5) 0.2795(2)
C1 C 0.3835(2) 0.4126(5) 0.2109(2)
C2 C 0.4067(2) 0.4340(6) 0.1485(2)
H1 H 0.3741 0.4872 0.1023
C3 C 0.4822(2) 0.3718(5) 0.1572(2)
C4 C 0.5323(2) 0.3012(5) 0.2303(3)
H2 H 0.5834 0.2678 0.2374
C5 C 0.5042(2) 0.2837(5) 0.2889(3)
C6 C 0.3025(2) 0.4665(6) 0.2105(2)
O1 O 0.25907(16) 0.5741(4) 0.15821(17)
O2 O 0.28600(16) 0.3919(4) 0.26551(18)
C7 C 0.5080(2) 0.3729(5) 0.0892(2)
O3 O 0.45986(18) 0.3153(4) 0.02526(18)
O4 O 0.57826(16) 0.4261(4) 0.10209(17)
C8 C 0.5498(2) 0.2044(6) 0.3698(3)
O5 O 0.62169(16) 0.1812(5) 0.39103(19)
O6 O 0.50935(16) 0.1675(4) 0.41142(17)
O7 O 0.36675(16) -0.0417(5) 0.29012(18)
H3 H 0.3901 -0.0551 0.2590
H4 H 0.3178 -0.0743 0.2654
O8 O 0.40669(18) 0.5579(4) 0.3982(2)
H5 H 0.4459 0.5928 0.4193
H6 H 0.3838 0.6511 0.3872
O9 O 0.37886(17) -0.0699(4) 0.44958(18)
H7 H 0.3407 -0.1099 0.4629
H8 H 0.4183 -0.0927 0.4900
N2 N 0.3819(2) 0.2847(4) 0.7646(2)
C9 C 0.3193(2) 0.3545(6) 0.7047(2)
C10 C 0.3174(2) 0.3633(6) 0.6291(3)
H9 H 0.2736 0.4070 0.5895
C11 C 0.3832(2) 0.3044(6) 0.6146(3)
C12 C 0.4481(3) 0.2375(5) 0.6774(3)
H10 H 0.4934 0.2014 0.6689
C13 C 0.4444(2) 0.2259(5) 0.7509(3)
C14 C 0.2529(2) 0.4200(5) 0.7291(2)
O10 O 0.19301(17) 0.4897(4) 0.67682(17)
O11 O 0.26260(17) 0.3998(4) 0.79995(18)
C15 C 0.3836(3) 0.3044(6) 0.5334(3)
O12 O 0.44727(18) 0.2851(4) 0.5237(2)
O13 O 0.31870(17) 0.3160(4) 0.47549(18)
C16 C 0.5092(2) 0.1450(5) 0.8240(2)
O14 O 0.57174(16) 0.0857(4) 0.81980(18)
O15 O 0.49379(16) 0.1455(4) 0.88534(17)
O16 O 0.39566(18) -0.0420(4) 0.97168(18)
H11 H 0.4251 -0.0676 1.0162
H12 H 0.3898 -0.1564 0.9530
O17 O 0.28361(17) 0.3111(5) 0.9531(2)
H13 H 0.2358 0.3132 0.9261
H14 H 0.2806 0.2465 0.9929
Dy1A Dy 0.126468(11) 0.72312(3) 0.123055(13)
Dy2_2 Dy 0.375404(11) 0.25247(3) -0.104141(13)
Dy2B Dy 0.624596(11) 0.74753(3) 0.104141(13)
Dy2A Dy 0.124596(11) 0.75247(3) 0.604141(13)
O1A O 0.24093(16) 0.0741(4) 0.34179(17)
O3_2 O 0.45986(18) 0.3153(4) 1.02526(18)
O4B O 0.42174(16) 0.5739(4) 0.89791(17)
O10A O 0.30699(17) -0.0103(4) 0.82318(17)
O18 O 0.21291(19) 0.6113(5) 0.4201(2)
H15 H 0.1738 0.5541 0.3943
H16 H 0.2389 0.5106 0.4367
loop_
_geom_bond_atom_site_label_1
_geom_bond_atom_site_label_2
_geom_bond_site_symmetry_1
_geom_bond_site_symmetry_2
Dy1 N1 1_555 1_555
Dy2 N2 1_555 1_555
N1 C1 1_555 1_555
C1 C2 1_555 1_555
C2 H1 1_555 1_555
C3 C2 1_555 1_555
C4 C3 1_555 1_555
H2 C4 1_555 1_555
C5 N1 1_555 1_555
C6 C1 1_555 1_555
O1 C6 1_555 1_555
O2 Dy1 1_555 1_555
C7 C3 1_555 1_555
O3 C7 1_555 1_555
O4 C7 1_555 1_555
C8 C5 1_555 1_555
O5 C8 1_555 1_555
O6 Dy1 1_555 1_555
O7 Dy1 1_555 1_555
H3 O7 1_555 1_555
H4 O7 1_555 1_555
O8 Dy1 1_555 1_555
H5 O8 1_555 1_555
H6 O8 1_555 1_555
O9 Dy1 1_555 1_555
H7 O9 1_555 1_555
H8 O9 1_555 1_555
N2 C9 1_555 1_555
C9 C10 1_555 1_555
C10 H9 1_555 1_555
C11 C10 1_555 1_555
C12 C11 1_555 1_555
H10 C12 1_555 1_555
C13 N2 1_555 1_555
C14 C9 1_555 1_555
O10 C14 1_555 1_555
O11 Dy2 1_555 1_555
C15 C11 1_555 1_555
O12 Dy1 1_555 1_555
O13 Dy1 1_555 1_555
C16 C13 1_555 1_555
O14 C16 1_555 1_555
O15 Dy2 1_555 1_555
O16 Dy2 1_555 1_555
H11 O16 1_555 1_555
H12 O16 1_555 1_555
O17 Dy2 1_555 1_555
H13 O17 1_555 1_555
H14 O17 1_555 1_555
O18 H15 1_555 1_555
H16 O18 1_555 1_555
Dy1A O1 1_555 1_555
Dy2_2 O3 1_555 1_555
Dy2B O4 1_555 1_555
Dy2A O10 1_555 1_555
O1A Dy1 1_555 1_555
O3_2 Dy2 1_555 1_555
O4B Dy2 1_555 1_555
O10A Dy2 1_555 1_555
C4 C5 1_555 1_555
C6 O2 1_555 1_555
C8 O6 1_555 1_555
C12 C13 1_555 1_555
C14 O11 1_555 1_555
C15 O12 1_555 1_555
C15 O13 1_555 1_555
C16 O15 1_555 1_555

#END
