
#######################################################################
#
#                 Cambridge Crystallographic Data Centre
#                                CCDC 
#
#######################################################################
#
# If this CIF has been generated from an entry in the Cambridge 
# Structural Database, then it will include bibliographic, chemical, 
# crystal, experimental, refinement or atomic coordinate data resulting 
# from the CCDC's data processing and validation procedures.
#
#######################################################################

data_ISUYUR
_symmetry_cell_setting           monoclinic
_symmetry_space_group_name_H-M   'P 21/c'
_symmetry_Int_Tables_number      14
_space_group_name_Hall           '-P 2ybc'
loop_
_symmetry_equiv_pos_site_id
_symmetry_equiv_pos_as_xyz
1 x,y,z
2 -x,1/2+y,1/2-z
3 -x,-y,-z
4 x,1/2-y,1/2+z
_cell_length_a                   10.858(2)
_cell_length_b                   20.659(4)
_cell_length_c                   14.283(3)
_cell_angle_alpha                90
_cell_angle_beta                 109.94(3)
_cell_angle_gamma                90
_cell_volume                     3011.82
loop_
_atom_site_label
_atom_site_type_symbol
_atom_site_fract_x
_atom_site_fract_y
_atom_site_fract_z
O1 O 0.6054(5) 0.0075(3) 0.9402(3)
H1 H 0.5733 -0.0219 0.8961
H2 H 0.5526 0.0391 0.9192
Ni1 Ni -0.23638(4) 0.12871(2) 0.34127(3)
O2 O -0.0561(2) 0.11439(13) 0.3241(2)
O3 O 0.0312(3) 0.20690(13) 0.2963(2)
O4 O 0.5934(2) 0.12411(12) 0.3768(2)
O5 O 0.4760(3) 0.04526(14) 0.2804(2)
O6 O 0.2556(3) -0.01435(13) 0.2383(2)
H3 H 0.3231 0.0071 0.2519
O7 O 0.0501(3) -0.00519(15) 0.1415(2)
O8 O 0.2473(3) 0.26536(14) 0.3313(2)
H4 H 0.1803 0.2435 0.3166
O9 O 0.4063(3) 0.28286(16) 0.2724(3)
O10 O -0.2686(3) 0.03531(13) 0.2935(2)
H5 H -0.3461 0.0263 0.2810
N1 N -0.1365(3) 0.11457(14) 0.4938(2)
N2 N -0.2059(3) 0.21951(14) 0.3912(2)
N3 N -0.3278(3) 0.18110(16) 0.2102(2)
C1 C 0.0385(3) 0.15021(18) 0.3297(3)
C2 C 0.4950(3) 0.08875(17) 0.3466(3)
C3 C 0.1565(4) 0.01947(19) 0.1791(3)
C4 C 0.3117(4) 0.25097(19) 0.2719(3)
C5 C 0.1733(3) 0.12390(16) 0.3848(3)
C6 C 0.2057(4) 0.10845(18) 0.4850(3)
H6 H 0.1426 0.1118 0.5152
C7 C 0.3311(4) 0.08812(19) 0.5403(3)
H7 H 0.3522 0.0783 0.6075
C8 C 0.4238(4) 0.08260(18) 0.4951(3)
H8 H 0.5080 0.0690 0.5321
C9 C 0.3932(3) 0.09713(17) 0.3944(3)
C10 C 0.2679(3) 0.11845(16) 0.3382(3)
C11 C 0.2361(3) 0.13453(17) 0.2299(3)
C12 C 0.1830(4) 0.08784(19) 0.1559(3)
C13 C 0.1562(4) 0.1031(2) 0.0564(3)
H9 H 0.1163 0.0725 0.0077
C14 C 0.1879(5) 0.1627(2) 0.0289(3)
H10 H 0.1728 0.1718 -0.0379
C15 C 0.2422(5) 0.2089(2) 0.1003(3)
H11 H 0.2651 0.2490 0.0816
C16 C 0.2632(4) 0.19629(18) 0.2002(3)
C17 C -0.1022(4) 0.05781(19) 0.5404(3)
H12 H -0.1253 0.0200 0.5032
C18 C -0.0340(4) 0.0529(2) 0.6410(3)
H13 H -0.0099 0.0128 0.6711
C19 C -0.0028(5) 0.1092(2) 0.6956(3)
H14 H 0.0428 0.1075 0.7637
C20 C -0.0392(5) 0.1680(2) 0.6488(3)
H15 H -0.0198 0.2061 0.6854
C21 C -0.1046(4) 0.16989(18) 0.5474(3)
C22 C -0.1452(4) 0.22986(18) 0.4886(3)
C23 C -0.1245(5) 0.2926(2) 0.5256(4)
H16 H -0.0823 0.3003 0.5932
C24 C -0.1686(5) 0.3432(2) 0.4591(4)
H17 H -0.1558 0.3856 0.4823
C25 C -0.2309(5) 0.3318(2) 0.3593(4)
H18 H -0.2601 0.3659 0.3147
C26 C -0.2493(4) 0.26758(19) 0.3264(3)
C27 C -0.3171(4) 0.24612(19) 0.2226(3)
C28 C -0.3687(5) 0.2875(2) 0.1422(4)
H19 H -0.3592 0.3321 0.1510
C29 C -0.4335(5) 0.2623(3) 0.0500(4)
H20 H -0.4687 0.2896 -0.0044
C30 C -0.4463(5) 0.1969(3) 0.0381(4)
H21 H -0.4911 0.1791 -0.0240
C31 C -0.3912(4) 0.1577(2) 0.1201(3)
H22 H -0.3990 0.1131 0.1117
H23 H -0.255(4) 0.026(2) 0.240(3)
Ni1_2 Ni 0.76362(4) 0.12871(2) 0.34127(3)
O4_2 O -0.4066(2) 0.12411(12) 0.3768(2)
O11 O 0.7853(4) -0.0025(2) 0.1280(3)
H24 H 0.7465 0.0126 0.0699
H25 H 0.8595 0.0092 0.1257
O12 O 0.4115(4) 0.08813(18) 0.8278(3)
H26 H 0.4086 0.1279 0.8118
H27 H 0.3565 0.0838 0.8579
loop_
_geom_bond_atom_site_label_1
_geom_bond_atom_site_label_2
_geom_bond_site_symmetry_1
_geom_bond_site_symmetry_2
O1 H1 1_555 1_555
H2 O1 1_555 1_555
Ni1 O2 1_555 1_555
O2 C1 1_555 1_555
O3 C1 1_555 1_555
O4 C2 1_555 1_555
O5 C2 1_555 1_555
O6 H3 1_555 1_555
O7 C3 1_555 1_555
O8 H4 1_555 1_555
O9 C4 1_555 1_555
O10 Ni1 1_555 1_555
H5 O10 1_555 1_555
N1 Ni1 1_555 1_555
N2 Ni1 1_555 1_555
N3 Ni1 1_555 1_555
C1 C5 1_555 1_555
C2 C9 1_555 1_555
C3 O6 1_555 1_555
C4 O8 1_555 1_555
C5 C6 1_555 1_555
C6 H6 1_555 1_555
C7 C6 1_555 1_555
H7 C7 1_555 1_555
C8 C7 1_555 1_555
H8 C8 1_555 1_555
C9 C8 1_555 1_555
C10 C5 1_555 1_555
C11 C10 1_555 1_555
C12 C3 1_555 1_555
C13 C12 1_555 1_555
H9 C13 1_555 1_555
C14 C13 1_555 1_555
H10 C14 1_555 1_555
C15 C14 1_555 1_555
H11 C15 1_555 1_555
C16 C4 1_555 1_555
C17 N1 1_555 1_555
H12 C17 1_555 1_555
C18 C17 1_555 1_555
H13 C18 1_555 1_555
C19 C18 1_555 1_555
H14 C19 1_555 1_555
C20 C19 1_555 1_555
H15 C20 1_555 1_555
C21 N1 1_555 1_555
C22 N2 1_555 1_555
C23 C22 1_555 1_555
H16 C23 1_555 1_555
C24 C23 1_555 1_555
H17 C24 1_555 1_555
C25 C24 1_555 1_555
H18 C25 1_555 1_555
C26 N2 1_555 1_555
C27 N3 1_555 1_555
C28 C27 1_555 1_555
H19 C28 1_555 1_555
C29 C28 1_555 1_555
H20 C29 1_555 1_555
C30 C29 1_555 1_555
H21 C30 1_555 1_555
C31 N3 1_555 1_555
H22 C31 1_555 1_555
H23 O10 1_555 1_555
O11 H24 1_555 1_555
H25 O11 1_555 1_555
O12 H26 1_555 1_555
H27 O12 1_555 1_555
Ni1_2 O4 1_555 1_555
O4_2 Ni1 1_555 1_555
C9 C10 1_555 1_555
C11 C12 1_555 1_555
C11 C16 1_555 1_555
C15 C16 1_555 1_555
C20 C21 1_555 1_555
C21 C22 1_555 1_555
C25 C26 1_555 1_555
C26 C27 1_555 1_555
C30 C31 1_555 1_555

#END
