
#######################################################################
#
#                 Cambridge Crystallographic Data Centre
#                                CCDC 
#
#######################################################################
#
# If this CIF has been generated from an entry in the Cambridge 
# Structural Database, then it will include bibliographic, chemical, 
# crystal, experimental, refinement or atomic coordinate data resulting 
# from the CCDC's data processing and validation procedures.
#
#######################################################################

data_ISUYOL
_symmetry_cell_setting           monoclinic
_symmetry_space_group_name_H-M   'P 21/c'
_symmetry_Int_Tables_number      14
_space_group_name_Hall           '-P 2ybc'
loop_
_symmetry_equiv_pos_site_id
_symmetry_equiv_pos_as_xyz
1 x,y,z
2 -x,1/2+y,1/2-z
3 -x,-y,-z
4 x,1/2-y,1/2+z
_cell_length_a                   13.579(2)
_cell_length_b                   9.7831(15)
_cell_length_c                   19.958(3)
_cell_angle_alpha                90
_cell_angle_beta                 105.058(2)
_cell_angle_gamma                90
_cell_volume                     2560.28
loop_
_atom_site_label
_atom_site_type_symbol
_atom_site_fract_x
_atom_site_fract_y
_atom_site_fract_z
C1 C 0.6431(3) 0.2827(5) -0.0847(2)
H1 H 0.5745 0.2642 -0.0892
C2 C 0.6687(4) 0.3863(5) -0.1253(2)
H2 H 0.6180 0.4348 -0.1565
C3 C 0.7687(3) 0.4154(5) -0.1187(2)
H3 H 0.7869 0.4841 -0.1454
C4 C 0.8437(3) 0.3414(5) -0.0717(2)
C5 C 0.8131(3) 0.2395(5) -0.0325(2)
C6 C 0.8871(3) 0.1609(4) 0.0194(2)
C7 C 0.9193(4) -0.0019(4) 0.1055(2)
H4 H 0.8952 -0.0642 0.1327
C8 C 1.0221(4) 0.0120(5) 0.1165(2)
H5 H 1.0660 -0.0407 0.1502
C9 C 1.0613(3) 0.1034(5) 0.0781(2)
H6 H 1.1314 0.1132 0.0852
C10 C 0.9932(3) 0.1815(4) 0.0281(2)
C11 C 1.0213(3) 0.2839(4) -0.0153(2)
C12 C 0.9507(3) 0.3612(5) -0.0616(2)
C13 C 1.0977(3) 0.4323(5) -0.0692(2)
C14 C 1.1798(3) 0.5102(4) -0.0880(2)
C15 C 1.1577(3) 0.6145(4) -0.1414(2)
C16 C 1.2407(4) 0.6887(5) -0.1560(2)
C17 C 1.3412(4) 0.6580(5) -0.1199(2)
H7 H 1.3947 0.7065 -0.1296
C18 C 1.3614(4) 0.5582(5) -0.0709(3)
H8 H 1.4286 0.5388 -0.0474
C19 C 1.2808(4) 0.4837(5) -0.0554(2)
C20 C 1.2208(4) 0.7914(5) -0.2074(3)
H9 H 1.2751 0.8399 -0.2161
C21 C 1.1247(4) 0.8212(6) -0.2444(3)
H10 H 1.1133 0.8894 -0.2780
C22 C 1.0433(4) 0.7492(6) -0.2318(3)
H11 H 0.9773 0.7688 -0.2577
C23 C 1.0584(4) 0.6498(5) -0.1820(2)
H12 H 1.0023 0.6039 -0.1745
C24 C 0.6502(3) -0.2045(5) 0.1280(2)
C25 C 0.6272(3) -0.2763(5) 0.1894(2)
H13 H 0.5743 -0.3448 0.1715
C26 C 0.7193(3) -0.3493(5) 0.2355(2)
H14 H 0.7443 -0.4171 0.2085
H15 H 0.7735 -0.2837 0.2531
C27 C 0.6906(3) -0.4185(5) 0.2959(2)
H16 H 0.7498 -0.4646 0.3247
H17 H 0.6384 -0.4866 0.2783
C28 C 0.6510(3) -0.3131(5) 0.3395(2)
H18 H 0.7049 -0.2449 0.3553
C29 C 0.5843(4) -0.1722(5) 0.2319(2)
H19 H 0.5232 -0.1311 0.2026
H20 H 0.6340 -0.1000 0.2476
C30 C 0.5588(3) -0.2393(5) 0.2950(2)
H21 H 0.5366 -0.1697 0.3225
H22 H 0.5033 -0.3037 0.2793
C31 C 0.6330(4) -0.3813(4) 0.4040(2)
N1 N 0.7126(3) 0.2096(4) -0.04003(17)
N2 N 0.8518(3) 0.0686(4) 0.05820(17)
N3 N 1.1145(3) 0.3291(4) -0.02009(17)
H23 H 1.1729 0.2989 0.0031
N4 N 0.9985(3) 0.4545(4) -0.09464(19)
O1 O 0.5885(2) -0.2194(3) 0.06826(14)
O2 O 0.7267(3) -0.1288(4) 0.13759(17)
O3 O 0.5495(2) -0.4289(4) 0.40500(16)
O4 O 0.7115(2) -0.3902(3) 0.45616(14)
O5 O 1.3074(3) 0.3855(4) -0.00471(17)
Pb1 Pb 0.658404(13) 0.026295(19) 0.034731(8)
H24 H 1.343(4) 0.332(6) -0.020(3)
O4C O 0.7115(2) -0.1098(3) -0.04384(14)
Pb1C Pb 0.658404(13) -0.526295(19) 0.534731(8)
loop_
_geom_bond_atom_site_label_1
_geom_bond_atom_site_label_2
_geom_bond_site_symmetry_1
_geom_bond_site_symmetry_2
C1 H1 1_555 1_555
C2 C1 1_555 1_555
H2 C2 1_555 1_555
C3 C2 1_555 1_555
H3 C3 1_555 1_555
C4 C3 1_555 1_555
C5 C4 1_555 1_555
C6 C5 1_555 1_555
C7 H4 1_555 1_555
C8 C7 1_555 1_555
H5 C8 1_555 1_555
C9 C8 1_555 1_555
H6 C9 1_555 1_555
C10 C6 1_555 1_555
C11 C10 1_555 1_555
C12 C4 1_555 1_555
C13 C14 1_555 1_555
C14 C15 1_555 1_555
C15 C16 1_555 1_555
C16 C17 1_555 1_555
C17 H7 1_555 1_555
C18 C17 1_555 1_555
H8 C18 1_555 1_555
C19 C14 1_555 1_555
C20 C16 1_555 1_555
H9 C20 1_555 1_555
C21 C20 1_555 1_555
H10 C21 1_555 1_555
C22 C21 1_555 1_555
H11 C22 1_555 1_555
C23 C15 1_555 1_555
H12 C23 1_555 1_555
C24 C25 1_555 1_555
C25 H13 1_555 1_555
C26 C25 1_555 1_555
H14 C26 1_555 1_555
H15 C26 1_555 1_555
C27 C26 1_555 1_555
H16 C27 1_555 1_555
H17 C27 1_555 1_555
C28 C27 1_555 1_555
H18 C28 1_555 1_555
C29 C25 1_555 1_555
H19 C29 1_555 1_555
H20 C29 1_555 1_555
C30 C28 1_555 1_555
H21 C30 1_555 1_555
H22 C30 1_555 1_555
C31 C28 1_555 1_555
N1 C1 1_555 1_555
N2 C6 1_555 1_555
N3 C11 1_555 1_555
H23 N3 1_555 1_555
N4 C12 1_555 1_555
O1 C24 1_555 1_555
O2 C24 1_555 1_555
O3 C31 1_555 1_555
O4 C31 1_555 1_555
O5 C19 1_555 1_555
Pb1 N1 1_555 1_555
H24 O5 1_555 1_555
O4C Pb1 1_555 1_555
Pb1C O4 1_555 1_555
C5 N1 1_555 1_555
C7 N2 1_555 1_555
C9 C10 1_555 1_555
C11 C12 1_555 1_555
C13 N3 1_555 1_555
C13 N4 1_555 1_555
C18 C19 1_555 1_555
C22 C23 1_555 1_555
C29 C30 1_555 1_555
N2 Pb1 1_555 1_555
O1 Pb1 1_555 1_555
O2 Pb1 1_555 1_555

#END
