
#######################################################################
#
#                 Cambridge Crystallographic Data Centre
#                                CCDC 
#
#######################################################################
#
# If this CIF has been generated from an entry in the Cambridge 
# Structural Database, then it will include bibliographic, chemical, 
# crystal, experimental, refinement or atomic coordinate data resulting 
# from the CCDC's data processing and validation procedures.
#
#######################################################################

data_ITAHUH
_symmetry_cell_setting           triclinic
_symmetry_space_group_name_H-M   'P -1'
_symmetry_Int_Tables_number      2
_space_group_name_Hall           '-P 1'
loop_
_symmetry_equiv_pos_site_id
_symmetry_equiv_pos_as_xyz
1 x,y,z
2 -x,-y,-z
_cell_length_a                   9.4751(4)
_cell_length_b                   13.5774(5)
_cell_length_c                   14.8274(6)
_cell_angle_alpha                94.650(2)
_cell_angle_beta                 90.727(3)
_cell_angle_gamma                109.247(2)
_cell_volume                     1793.38
loop_
_atom_site_label
_atom_site_type_symbol
_atom_site_fract_x
_atom_site_fract_y
_atom_site_fract_z
C1 C 0.9127(3) 0.3070(2) -0.04388(19)
C2 C 0.9447(3) 0.2080(2) -0.0690(2)
C3 C 1.0839(3) 0.2014(2) -0.0493(2)
H1 H 1.1571 0.2587 -0.0193
C4 C 1.1163(4) 0.1113(2) -0.0735(2)
H2 H 1.2103 0.1081 -0.0588
C5 C 1.0101(4) 0.0255(2) -0.1193(2)
C6 C 0.8688(4) 0.0304(2) -0.1391(2)
H3 H 0.7956 -0.0270 -0.1691
C7 C 0.8378(4) 0.1214(2) -0.1140(2)
H4 H 0.7434 0.1244 -0.1275
C8 C 0.9713(4) -0.1622(2) -0.1680(2)
C9 C 1.0616(4) -0.2332(3) -0.1881(3)
H5 H 1.0625 -0.2721 -0.1370
H6 H 1.1623 -0.1920 -0.2000
H7 H 1.0178 -0.2808 -0.2403
C10 C 0.6833(3) 0.3832(2) 0.1475(2)
C11 C 0.6551(3) 0.3417(2) 0.2374(2)
C12 C 0.5257(4) 0.2608(3) 0.2513(2)
H8 H 0.4512 0.2364 0.2056
C13 C 0.5061(4) 0.2155(3) 0.3329(3)
H9 H 0.4189 0.1606 0.3415
C14 C 0.6156(4) 0.2517(3) 0.4012(2)
C15 C 0.7416(4) 0.3372(3) 0.3903(2)
H10 H 0.8123 0.3651 0.4377
C16 C 0.7614(4) 0.3808(3) 0.3084(2)
H11 H 0.8472 0.4370 0.3006
C17 C 0.7006(5) 0.1855(3) 0.5346(3)
C18 C 0.6466(6) 0.1209(4) 0.6127(3)
H12 H 0.7047 0.0756 0.6192
H13 H 0.5432 0.0794 0.6017
H14 H 0.6574 0.1664 0.6673
C19 C 0.5853(3) 0.6256(2) 0.12515(19)
C20 C 0.6769(3) 0.6884(2) 0.20657(19)
C21 C 0.6383(4) 0.7683(2) 0.2516(2)
H15 H 0.5592 0.7863 0.2287
C22 C 0.7153(4) 0.8222(3) 0.3305(2)
H16 H 0.6904 0.8774 0.3591
C23 C 0.8305(4) 0.7928(2) 0.3664(2)
C24 C 0.8745(4) 0.7164(2) 0.3188(2)
H17 H 0.9547 0.6991 0.3409
C25 C 0.7997(4) 0.6660(2) 0.2387(2)
H18 H 0.8321 0.6165 0.2061
C26 C 0.8534(4) 0.8827(3) 0.5210(2)
C27 C 0.9492(5) 0.9053(3) 0.6073(2)
H19 H 0.9606 0.9746 0.6337
H20 H 1.0458 0.9006 0.5939
H21 H 0.9022 0.8552 0.6491
Eu1 Eu 0.751229(16) 0.477151(10) -0.022703(9)
N1 N 1.0560(3) -0.06109(18) -0.14447(19)
H26 H 1.1512 -0.0480 -0.1450
N2 N 0.5931(4) 0.1998(3) 0.4817(2)
H27 H 0.5025 0.1751 0.4984
N3 N 0.9054(3) 0.8366(2) 0.45083(17)
H28 H 0.9939 0.8335 0.4584
O1 O 0.7800(2) 0.30658(15) -0.04902(15)
O2 O 1.0193(2) 0.38939(14) -0.01740(14)
O3 O 0.8344(3) -0.19383(17) -0.17380(18)
O4 O 0.5789(2) 0.35835(16) 0.08687(14)
O5 O 0.8130(2) 0.44209(16) 0.13073(14)
O6 O 0.8333(3) 0.2219(3) 0.5194(2)
O7 O 0.6420(2) 0.57408(16) 0.07186(14)
O8 O 0.4542(2) 0.62700(16) 0.11540(14)
O9 O 0.7375(3) 0.9033(2) 0.51686(17)
O10 O 0.8861(2) 0.48829(17) -0.16189(14)
H29 H 0.9798 0.5060 -0.1552
H30 H 0.8480 0.4986 -0.2105
O11 O 0.6891(2) 0.60452(16) -0.11344(15)
H31 H 0.6070 0.6156 -0.1046
H32 H 0.7205 0.6497 -0.1509
C1A C 1.0873(3) 0.6930(2) 0.04388(19)
C2A C 1.0553(3) 0.7920(2) 0.0690(2)
C3A C 0.9161(3) 0.7986(2) 0.0493(2)
H1A H 0.8429 0.7413 0.0193
C4A C 0.8837(4) 0.8887(2) 0.0735(2)
H2A H 0.7897 0.8919 0.0588
C5A C 0.9899(4) 0.9745(2) 0.1193(2)
C6A C 1.1312(4) 0.9696(2) 0.1391(2)
H3A H 1.2044 1.0270 0.1691
C7A C 1.1622(4) 0.8786(2) 0.1140(2)
H4A H 1.2566 0.8756 0.1275
C8A C 1.0287(4) 1.1622(2) 0.1680(2)
C9A C 0.9384(4) 1.2332(3) 0.1881(3)
H5A H 0.9375 1.2721 0.1370
H6A H 0.8377 1.1920 0.2000
H7A H 0.9822 1.2808 0.2403
C10A C 1.3167(3) 0.6168(2) -0.1475(2)
C11A C 1.3449(3) 0.6583(2) -0.2374(2)
C12A C 1.4743(4) 0.7392(3) -0.2513(2)
H8A H 1.5488 0.7636 -0.2056
C13A C 1.4939(4) 0.7845(3) -0.3329(3)
H9A H 1.5811 0.8394 -0.3415
C14A C 1.3844(4) 0.7483(3) -0.4012(2)
C15A C 1.2584(4) 0.6628(3) -0.3903(2)
H10A H 1.1877 0.6349 -0.4377
C16A C 1.2386(4) 0.6192(3) -0.3084(2)
H11A H 1.1528 0.5630 -0.3006
C17A C 1.2994(5) 0.8145(3) -0.5346(3)
C18A C 1.3534(6) 0.8791(4) -0.6127(3)
H12A H 1.2953 0.9244 -0.6192
H13A H 1.4568 0.9206 -0.6017
H14A H 1.3426 0.8336 -0.6673
C19A C 0.4147(3) 0.3744(2) -0.12515(19)
C20A C 0.3231(3) 0.3116(2) -0.20657(19)
C21A C 0.3617(4) 0.2317(2) -0.2516(2)
H15A H 0.4408 0.2137 -0.2287
C22A C 0.2847(4) 0.1778(3) -0.3305(2)
H16A H 0.3096 0.1226 -0.3591
C23A C 0.1695(4) 0.2072(2) -0.3664(2)
C24A C 0.1255(4) 0.2836(2) -0.3188(2)
H17A H 0.0453 0.3009 -0.3409
C25A C 0.2003(4) 0.3340(2) -0.2387(2)
H18A H 0.1679 0.3835 -0.2061
C26A C 0.1466(4) 0.1173(3) -0.5210(2)
C27A C 0.0508(5) 0.0947(3) -0.6073(2)
H19A H 0.0394 0.0254 -0.6337
H20A H -0.0458 0.0994 -0.5939
H21A H 0.0978 0.1448 -0.6491
Eu1A Eu 1.248771(16) 0.522849(10) 0.022703(9)
Eu1A_2 Eu 0.248771(16) 0.522849(10) 0.022703(9)
N1A N 0.9440(3) 1.06109(18) 0.14447(19)
H26A H 0.8488 1.0480 0.1450
N2A N 1.4069(4) 0.8002(3) -0.4817(2)
H27A H 1.4975 0.8249 -0.4984
N3A N 0.0946(3) 0.1634(2) -0.45083(17)
H28A H 0.0061 0.1665 -0.4584
O1A O 1.2200(2) 0.69342(15) 0.04902(15)
O2A O 0.9807(2) 0.61061(14) 0.01740(14)
O3A O 1.1656(3) 1.19383(17) 0.17380(18)
O4A O 1.4211(2) 0.64165(16) -0.08687(14)
O5A O 1.1870(2) 0.55791(16) -0.13073(14)
O6A O 1.1667(3) 0.7781(3) -0.5194(2)
O7A O 0.3580(2) 0.42592(16) -0.07186(14)
O7A_2 O 1.3580(2) 0.42592(16) -0.07186(14)
O8A O 0.5458(2) 0.37300(16) -0.11540(14)
O8_2 O 1.4542(2) 0.62700(16) 0.11540(14)
O9A O 0.2625(3) 0.0967(2) -0.51686(17)
O10A O 1.1139(2) 0.51171(17) 0.16189(14)
H29A H 1.0202 0.4940 0.1552
H30A H 1.1520 0.5014 0.2105
O11A O 1.3109(2) 0.39548(16) 0.11344(15)
H31A H 1.3930 0.3844 0.1046
H32A H 1.2795 0.3503 0.1509
C28 C 0.1953(6) 0.4198(4) 0.3960(4)
H22 H 0.0998 0.3714 0.3982
C29 C 0.2990(5) 0.4263(3) 0.4646(3)
H23 H 0.2715 0.3834 0.5116
C30 C 0.4424(5) 0.4955(3) 0.4639(3)
C31 C 0.4682(5) 0.5574(4) 0.3951(3)
H24 H 0.5615 0.6081 0.3914
C32 C 0.3573(6) 0.5463(5) 0.3301(3)
H25 H 0.3800 0.5912 0.2842
N4 N 0.2248(4) 0.4785(3) 0.3280(2)
C28A C 0.8047(6) 0.5802(4) 0.6040(4)
H22A H 0.9002 0.6286 0.6018
C29A C 0.7010(5) 0.5737(3) 0.5354(3)
H23A H 0.7285 0.6166 0.4884
C30A C 0.5576(5) 0.5045(3) 0.5361(3)
C31A C 0.5318(5) 0.4426(4) 0.6049(3)
H24A H 0.4385 0.3919 0.6086
C32A C 0.6427(6) 0.4537(5) 0.6699(3)
H25A H 0.6200 0.4088 0.7158
N4A N 0.7752(4) 0.5215(3) 0.6720(2)
O12 O 0.6223(3) 0.0238(2) 0.1178(2)
H33 H 0.5897 -0.0357 0.0880
H34 H 0.5826 0.0581 0.0864
O13 O 0.5224(4) 0.1546(2) -0.0004(2)
H35 H 0.5629 0.2090 -0.0303
H36 H 0.4719 0.1743 0.0405
loop_
_geom_bond_atom_site_label_1
_geom_bond_atom_site_label_2
_geom_bond_site_symmetry_1
_geom_bond_site_symmetry_2
C1 C2 1_555 1_555
C2 C3 1_555 1_555
C3 H1 1_555 1_555
C4 C3 1_555 1_555
H2 C4 1_555 1_555
C5 C4 1_555 1_555
C6 C5 1_555 1_555
H3 C6 1_555 1_555
C7 C2 1_555 1_555
H4 C7 1_555 1_555
C8 C9 1_555 1_555
C9 H5 1_555 1_555
H6 C9 1_555 1_555
H7 C9 1_555 1_555
C10 C11 1_555 1_555
C11 C12 1_555 1_555
C12 H8 1_555 1_555
C13 C12 1_555 1_555
H9 C13 1_555 1_555
C14 C13 1_555 1_555
C15 C14 1_555 1_555
H10 C15 1_555 1_555
C16 C11 1_555 1_555
H11 C16 1_555 1_555
C17 C18 1_555 1_555
C18 H12 1_555 1_555
H13 C18 1_555 1_555
H14 C18 1_555 1_555
C19 C20 1_555 1_555
C20 C21 1_555 1_555
C21 H15 1_555 1_555
C22 C21 1_555 1_555
H16 C22 1_555 1_555
C23 C22 1_555 1_555
C24 C23 1_555 1_555
H17 C24 1_555 1_555
C25 C20 1_555 1_555
H18 C25 1_555 1_555
C26 C27 1_555 1_555
C27 H19 1_555 1_555
H20 C27 1_555 1_555
H21 C27 1_555 1_555
C28 H22 1_555 1_555
C29 C28 1_555 1_555
H23 C29 1_555 1_555
C30 C29 1_555 1_555
C31 C30 1_555 1_555
H24 C31 1_555 1_555
C32 C31 1_555 1_555
H25 C32 1_555 1_555
Eu1 O1 1_555 1_555
N1 C5 1_555 1_555
H26 N1 1_555 1_555
N2 C14 1_555 1_555
H27 N2 1_555 1_555
N3 C23 1_555 1_555
H28 N3 1_555 1_555
N4 C28 1_555 1_555
O1 C1 1_555 1_555
O2 C1 1_555 1_555
O3 C8 1_555 1_555
O4 C10 1_555 1_555
O5 C10 1_555 1_555
O6 C17 1_555 1_555
O7 C19 1_555 1_555
O8 C19 1_555 1_555
O9 C26 1_555 1_555
O10 Eu1 1_555 1_555
H29 O10 1_555 1_555
H30 O10 1_555 1_555
O11 Eu1 1_555 1_555
H31 O11 1_555 1_555
H32 O11 1_555 1_555
O12 H33 1_555 1_555
H34 O12 1_555 1_555
O13 H35 1_555 1_555
H36 O13 1_555 1_555
C1A C2A 1_555 1_555
C2A C3A 1_555 1_555
C3A H1A 1_555 1_555
C4A C3A 1_555 1_555
H2A C4A 1_555 1_555
C5A C4A 1_555 1_555
C6A C5A 1_555 1_555
H3A C6A 1_555 1_555
C7A C2A 1_555 1_555
H4A C7A 1_555 1_555
C8A C9A 1_555 1_555
C9A H5A 1_555 1_555
H6A C9A 1_555 1_555
H7A C9A 1_555 1_555
C10A C11A 1_555 1_555
C11A C12A 1_555 1_555
C12A H8A 1_555 1_555
C13A C12A 1_555 1_555
H9A C13A 1_555 1_555
C14A C13A 1_555 1_555
C15A C14A 1_555 1_555
H10A C15A 1_555 1_555
C16A C11A 1_555 1_555
H11A C16A 1_555 1_555
C17A C18A 1_555 1_555
C18A H12A 1_555 1_555
H13A C18A 1_555 1_555
H14A C18A 1_555 1_555
C19A C20A 1_555 1_555
C20A C21A 1_555 1_555
C21A H15A 1_555 1_555
C22A C21A 1_555 1_555
H16A C22A 1_555 1_555
C23A C22A 1_555 1_555
C24A C23A 1_555 1_555
H17A C24A 1_555 1_555
C25A C20A 1_555 1_555
H18A C25A 1_555 1_555
C26A C27A 1_555 1_555
C27A H19A 1_555 1_555
H20A C27A 1_555 1_555
H21A C27A 1_555 1_555
C28A H22A 1_555 1_555
C29A C28A 1_555 1_555
H23A C29A 1_555 1_555
C30A C30 1_555 1_555
C31A C30A 1_555 1_555
H24A C31A 1_555 1_555
C32A C31A 1_555 1_555
H25A C32A 1_555 1_555
Eu1A O2 1_555 1_555
Eu1A_2 O8 1_555 1_555
N1A C5A 1_555 1_555
H26A N1A 1_555 1_555
N2A C14A 1_555 1_555
H27A N2A 1_555 1_555
N3A C23A 1_555 1_555
H28A N3A 1_555 1_555
N4A C28A 1_555 1_555
O1A C1A 1_555 1_555
O2A Eu1 1_555 1_555
O3A C8A 1_555 1_555
O4A C10A 1_555 1_555
O5A C10A 1_555 1_555
O6A C17A 1_555 1_555
O7A C19A 1_555 1_555
O7A_2 Eu1A 1_555 1_555
O8A Eu1 1_555 1_555
O8_2 Eu1A 1_555 1_555
O9A C26A 1_555 1_555
O10A Eu1A 1_555 1_555
H29A O10A 1_555 1_555
H30A O10A 1_555 1_555
O11A Eu1A 1_555 1_555
H31A O11A 1_555 1_555
H32A O11A 1_555 1_555
C6 C7 1_555 1_555
C8 N1 1_555 1_555
C15 C16 1_555 1_555
C17 N2 1_555 1_555
C24 C25 1_555 1_555
C26 N3 1_555 1_555
C32 N4 1_555 1_555
Eu1 O4 1_555 1_555
Eu1 O5 1_555 1_555
Eu1 O7 1_555 1_555
C1A O2A 1_555 1_555
C6A C7A 1_555 1_555
C8A N1A 1_555 1_555
C15A C16A 1_555 1_555
C17A N2A 1_555 1_555
C19A O8A 1_555 1_555
C24A C25A 1_555 1_555
C26A N3A 1_555 1_555
C29A C30A 1_555 1_555
C32A N4A 1_555 1_555
Eu1A O1A 1_555 1_555
Eu1A O4A 1_555 1_555
Eu1A O5A 1_555 1_555
Eu1A_2 O7A 1_555 1_555

#END
