
#######################################################################
#
#                 Cambridge Crystallographic Data Centre
#                                CCDC 
#
#######################################################################
#
# If this CIF has been generated from an entry in the Cambridge 
# Structural Database, then it will include bibliographic, chemical, 
# crystal, experimental, refinement or atomic coordinate data resulting 
# from the CCDC's data processing and validation procedures.
#
#######################################################################

data_ITAHOB
_symmetry_cell_setting           monoclinic
_symmetry_space_group_name_H-M   'C 2/c'
_symmetry_Int_Tables_number      15
_space_group_name_Hall           '-C 2yn'
loop_
_symmetry_equiv_pos_site_id
_symmetry_equiv_pos_as_xyz
1 x,y,z
2 -x,y,1/2-z
3 1/2+x,1/2+y,z
4 1/2-x,1/2+y,1/2-z
5 -x,-y,-z
6 x,-y,1/2+z
7 1/2-x,1/2-y,-z
8 1/2+x,1/2-y,1/2+z
_cell_length_a                   26.800(5)
_cell_length_b                   10.2651(19)
_cell_length_c                   9.6873(17)
_cell_angle_alpha                90
_cell_angle_beta                 99.821(2)
_cell_angle_gamma                90
_cell_volume                     2625.97
loop_
_atom_site_label
_atom_site_type_symbol
_atom_site_fract_x
_atom_site_fract_y
_atom_site_fract_z
C1 C 0.0817(2) 0.0956(6) 0.0202(7)
C2 C 0.1241(2) 0.1841(6) 0.0027(6)
C3 C 0.1496(2) 0.2527(6) 0.1158(6)
H1 H 0.1403 0.2405 0.2032
C4 C 0.1879(2) 0.3382(6) 0.1042(7)
H2 H 0.2049 0.3812 0.1828
C5 C 0.2009(2) 0.3597(6) -0.0253(7)
C6 C 0.1768(2) 0.2905(6) -0.1393(7)
H3 H 0.1864 0.3025 -0.2262
C7 C 0.1387(2) 0.2040(6) -0.1263(7)
H4 H 0.1226 0.1587 -0.2045
C8 C 0.2646(2) 0.5359(6) 0.0391(7)
C9 C 0.3034(2) 0.6142(6) -0.0185(7)
H5 H 0.2939 0.7045 -0.0215
H6 H 0.3054 0.5847 -0.1114
H7 H 0.3358 0.6038 0.0404
C10 C -0.0554(5) 0.3534(11) 0.1167(11)
H8 H -0.0296 0.4130 0.1615
H9 H -0.0768 0.3360 0.1858
C11 C -0.0844(5) 0.4260(10) 0.0199(12)
H10 H -0.0650 0.4523 -0.0501
H11 H -0.0958 0.5018 0.0635
H12 H -0.1131 0.3760 -0.0233
Eu1 Eu 0.0000 0.05333(4) 0.2500
N1 N 0.23934(17) 0.4472(5) -0.0488(5)
H13 H 0.2478 0.4432 -0.1305
N2 N 0.0000 -0.2370(9) 0.2500
O1 O 0.06421(17) 0.0998(4) 0.1303(5)
O2 O 0.06543(17) 0.0177(4) -0.0796(5)
O3 O 0.25622(18) 0.5560(5) 0.1571(5)
O4 O -0.02274(17) -0.1701(5) 0.3322(5)
O5 O 0.0000 -0.3538(8) 0.2500
O6 O -0.0312(2) 0.2439(4) 0.1075(5)
H14 H -0.0261 0.2342 0.0393
C1D C -0.0817(2) -0.0956(6) -0.0202(7)
C2D C -0.1241(2) -0.1841(6) -0.0027(6)
C3D C -0.1496(2) -0.2527(6) -0.1158(6)
H1D H -0.1403 -0.2405 -0.2032
C4D C -0.1879(2) -0.3382(6) -0.1042(7)
H2D H -0.2049 -0.3812 -0.1828
C5D C -0.2009(2) -0.3597(6) 0.0253(7)
C6D C -0.1768(2) -0.2905(6) 0.1393(7)
H3D H -0.1864 -0.3025 0.2262
C7D C -0.1387(2) -0.2040(6) 0.1263(7)
H4D H -0.1226 -0.1587 0.2045
C8D C -0.2646(2) -0.5359(6) -0.0391(7)
C9D C -0.3034(2) -0.6142(6) 0.0185(7)
H5D H -0.2939 -0.7045 0.0215
H6D H -0.3054 -0.5847 0.1114
H7D H -0.3358 -0.6038 -0.0404
C10A C 0.0554(5) 0.3534(11) 0.3833(11)
H8A H 0.0296 0.4130 0.3385
H9A H 0.0768 0.3360 0.3142
C11A C 0.0844(5) 0.4260(10) 0.4801(12)
H10A H 0.0650 0.4523 0.5501
H11A H 0.0958 0.5018 0.4365
H12A H 0.1131 0.3760 0.5233
Eu1D Eu 0.0000 -0.05333(4) -0.2500
N1D N -0.23934(17) -0.4472(5) 0.0488(5)
H13D H -0.2478 -0.4432 0.1305
O1D O -0.06421(17) -0.0998(4) -0.1303(5)
O1A O -0.06421(17) 0.0998(4) 0.3697(5)
O2D O -0.06543(17) -0.0177(4) 0.0796(5)
O2E O 0.06543(17) -0.0177(4) 0.4204(5)
O3D O -0.25622(18) -0.5560(5) -0.1571(5)
O4A O 0.02274(17) -0.1701(5) 0.1678(5)
O6A O 0.0312(2) 0.2439(4) 0.3925(5)
H14A H 0.0261 0.2342 0.4607
loop_
_geom_bond_atom_site_label_1
_geom_bond_atom_site_label_2
_geom_bond_site_symmetry_1
_geom_bond_site_symmetry_2
C1 C2 1_555 1_555
C2 C3 1_555 1_555
C3 H1 1_555 1_555
C4 C3 1_555 1_555
H2 C4 1_555 1_555
C5 C4 1_555 1_555
C6 C5 1_555 1_555
H3 C6 1_555 1_555
C7 C2 1_555 1_555
H4 C7 1_555 1_555
C8 C9 1_555 1_555
C9 H5 1_555 1_555
H6 C9 1_555 1_555
H7 C9 1_555 1_555
C10 H8 1_555 1_555
H9 C10 1_555 1_555
C11 C10 1_555 1_555
H10 C11 1_555 1_555
H11 C11 1_555 1_555
H12 C11 1_555 1_555
Eu1 O1 1_555 1_555
N1 C5 1_555 1_555
H13 N1 1_555 1_555
N2 O4 1_555 1_555
O1 C1 1_555 1_555
O2 C1 1_555 1_555
O3 C8 1_555 1_555
O4 Eu1 1_555 1_555
O5 N2 1_555 1_555
O6 C10 1_555 1_555
H14 O6 1_555 1_555
C1D C2D 1_555 1_555
C2D C3D 1_555 1_555
C3D H1D 1_555 1_555
C4D C3D 1_555 1_555
H2D C4D 1_555 1_555
C5D C4D 1_555 1_555
C6D C5D 1_555 1_555
H3D C6D 1_555 1_555
C7D C2D 1_555 1_555
H4D C7D 1_555 1_555
C8D C9D 1_555 1_555
C9D H5D 1_555 1_555
H6D C9D 1_555 1_555
H7D C9D 1_555 1_555
C10A H8A 1_555 1_555
H9A C10A 1_555 1_555
C11A C10A 1_555 1_555
H10A C11A 1_555 1_555
H11A C11A 1_555 1_555
H12A C11A 1_555 1_555
Eu1D O2 1_555 1_555
N1D C5D 1_555 1_555
H13D N1D 1_555 1_555
O1D C1D 1_555 1_555
O1A Eu1 1_555 1_555
O2D Eu1 1_555 1_555
O2E Eu1 1_555 1_555
O3D C8D 1_555 1_555
O4A Eu1 1_555 1_555
O6A Eu1 1_555 1_555
H14A O6A 1_555 1_555
C6 C7 1_555 1_555
C8 N1 1_555 1_555
Eu1 O6 1_555 1_555
N2 O4A 1_555 1_555
C1D O2D 1_555 1_555
C6D C7D 1_555 1_555
C8D N1D 1_555 1_555
C10A O6A 1_555 1_555
Eu1D O1D 1_555 1_555

#END
