
#######################################################################
#
#                 Cambridge Crystallographic Data Centre
#                                CCDC 
#
#######################################################################
#
# If this CIF has been generated from an entry in the Cambridge 
# Structural Database, then it will include bibliographic, chemical, 
# crystal, experimental, refinement or atomic coordinate data resulting 
# from the CCDC's data processing and validation procedures.
#
#######################################################################

data_ITASIF
_symmetry_cell_setting           orthorhombic
_symmetry_space_group_name_H-M   'P b c a'
_symmetry_Int_Tables_number      61
_space_group_name_Hall           '-P 2ac 2ab'
loop_
_symmetry_equiv_pos_site_id
_symmetry_equiv_pos_as_xyz
1 x,y,z
2 1/2+x,y,1/2-z
3 x,1/2-y,1/2+z
4 1/2-x,1/2+y,z
5 -x,-y,-z
6 1/2-x,-y,1/2+z
7 -x,1/2+y,1/2-z
8 1/2+x,1/2-y,-z
_cell_length_a                   7.082(1)
_cell_length_b                   10.285(1)
_cell_length_c                   17.911(3)
_cell_angle_alpha                90
_cell_angle_beta                 90
_cell_angle_gamma                90
_cell_volume                     1304.61
loop_
_atom_site_label
_atom_site_type_symbol
_atom_site_fract_x
_atom_site_fract_y
_atom_site_fract_z
Cu1 Cu 0.5000 0.5000 0.5000
O1 O 0.4889(2) 0.36405(15) 0.57876(9)
O2 O 0.7349(3) 0.59707(17) 0.57989(10)
N1 N 0.3513(3) 0.19464(17) 0.64575(10)
C1 C 0.2339(3) 0.0969(2) 0.62686(12)
N2 N 0.2871(3) 0.20624(17) 0.52941(10)
C2 C 0.3844(3) 0.26563(19) 0.58324(11)
N4 N 0.1918(3) 0.10035(17) 0.55694(10)
H1 H 0.295(6) 0.216(4) 0.481(2)
H2 H 0.389(4) 0.207(2) 0.6936(15)
H3 H 0.188(4) 0.037(2) 0.6558(15)
H4 H 0.690(4) 0.632(2) 0.6164(11)
H5 H 0.815(3) 0.543(2) 0.5883(18)
O1D O 0.5111(2) 0.63595(15) 0.42124(9)
N1D N 0.6487(3) 0.80536(17) 0.35425(10)
C1D C 0.7661(3) 0.9031(2) 0.37314(12)
N2D N 0.7129(3) 0.79376(17) 0.47059(10)
C2D C 0.6156(3) 0.73437(19) 0.41676(11)
N4D N 0.8082(3) 0.89965(17) 0.44306(10)
H1D H 0.705(6) 0.784(4) 0.519(2)
H2D H 0.611(4) 0.793(2) 0.3064(15)
H3D H 0.812(4) 0.963(2) 0.3442(15)
O2D O 0.2651(3) 0.40293(17) 0.42011(10)
H4D H 0.310(4) 0.368(2) 0.3836(11)
H5D H 0.185(3) 0.457(2) 0.4117(18)
N4C N 0.3082(3) 0.60035(17) 0.55694(10)
N4G N 0.6918(3) 0.39965(17) 0.44306(10)
Cu1C Cu 0.0000 0.0000 0.5000
Cu1C_2 Cu 1.0000 1.0000 0.5000
O3 O 0.9118(3) 0.23292(17) 0.70535(9)
O4 O 0.9509(3) 0.37315(18) 0.61674(10)
O5 O 0.9196(5) 0.4364(2) 0.73021(12)
N3 N 0.9263(3) 0.3495(2) 0.68452(11)
loop_
_geom_bond_atom_site_label_1
_geom_bond_atom_site_label_2
_geom_bond_site_symmetry_1
_geom_bond_site_symmetry_2
Cu1 O1 1_555 1_555
O1 C2 1_555 1_555
O2 Cu1 1_555 1_555
O3 N3 1_555 1_555
O4 N3 1_555 1_555
O5 N3 1_555 1_555
N1 C1 1_555 1_555
C1 N4 1_555 1_555
N2 C2 1_555 1_555
C2 N1 1_555 1_555
N4 N2 1_555 1_555
H1 N2 1_555 1_555
H2 N1 1_555 1_555
H3 C1 1_555 1_555
H4 O2 1_555 1_555
H5 O2 1_555 1_555
O1D Cu1 1_555 1_555
N1D C1D 1_555 1_555
C1D N4D 1_555 1_555
N2D C2D 1_555 1_555
C2D O1D 1_555 1_555
N4D N2D 1_555 1_555
H1D N2D 1_555 1_555
H2D N1D 1_555 1_555
H3D C1D 1_555 1_555
O2D Cu1 1_555 1_555
H4D O2D 1_555 1_555
H5D O2D 1_555 1_555
N4C Cu1 1_555 1_555
N4G Cu1 1_555 1_555
Cu1C N4 1_555 1_555
Cu1C_2 N4D 1_555 1_555
N1D C2D 1_555 1_555

#END
