
#######################################################################
#
#                 Cambridge Crystallographic Data Centre
#                                CCDC 
#
#######################################################################
#
# If this CIF has been generated from an entry in the Cambridge 
# Structural Database, then it will include bibliographic, chemical, 
# crystal, experimental, refinement or atomic coordinate data resulting 
# from the CCDC's data processing and validation procedures.
#
#######################################################################

data_ITEBEP
_symmetry_cell_setting           orthorhombic
_symmetry_space_group_name_H-M   'P b c n'
_symmetry_Int_Tables_number      60
_space_group_name_Hall           '-P 2n 2ab'
loop_
_symmetry_equiv_pos_site_id
_symmetry_equiv_pos_as_xyz
1 x,y,z
2 1/2-x,1/2-y,1/2+z
3 -x,y,1/2-z
4 1/2+x,1/2-y,-z
5 -x,-y,-z
6 1/2+x,1/2+y,1/2-z
7 x,-y,1/2+z
8 1/2-x,1/2+y,z
_cell_length_a                   11.9240(4)
_cell_length_b                   15.6212(5)
_cell_length_c                   22.9159(7)
_cell_angle_alpha                90
_cell_angle_beta                 90
_cell_angle_gamma                90
_cell_volume                     4268.48
loop_
_atom_site_label
_atom_site_type_symbol
_atom_site_fract_x
_atom_site_fract_y
_atom_site_fract_z
Mn1 Mn 0.48263(4) 0.21846(3) 0.52086(3)
N1 N 0.3066(3) 0.1709(2) 0.52885(16)
N2 N 0.2270(2) 0.1965(2) 0.50422(14)
N3 N 0.1507(2) 0.2206(2) 0.47767(16)
N4 N 0.4556(2) 0.28830(19) 0.59315(15)
N5 N 0.4316(2) 0.31263(19) 0.46457(15)
O1 O 0.5144(2) 0.14542(16) 0.45703(11)
O2 O 0.53416(19) 0.12638(15) 0.56720(11)
C1 C 0.6020(3) 0.1058(3) 0.36900(19)
C2 C 0.6354(3) 0.1259(3) 0.31280(19)
H1 H 0.6714 0.0849 0.2901
C3 C 0.6154(4) 0.2068(3) 0.2902(2)
H2 H 0.6382 0.2198 0.2525
C4 C 0.5626(4) 0.2675(3) 0.3230(2)
H3 H 0.5497 0.3215 0.3072
C5 C 0.5272(3) 0.2495(2) 0.38043(19)
C6 C 0.5470(3) 0.1679(2) 0.40394(18)
C7 C 0.4634(3) 0.3137(3) 0.4108(2)
H4 H 0.4426 0.3615 0.3892
C8 C 0.3587(3) 0.3837(2) 0.48370(19)
H5 H 0.2820 0.3632 0.4862
H6 H 0.3609 0.4288 0.4546
C9 C 0.3929(3) 0.4204(3) 0.54217(19)
H7 H 0.3508 0.4725 0.5491
H8 H 0.4718 0.4354 0.5407
C10 C 0.3737(3) 0.3593(3) 0.5930(2)
H9 H 0.3796 0.3908 0.6293
H10 H 0.2984 0.3360 0.5905
C11 C 0.5080(3) 0.2740(2) 0.64151(18)
H11 H 0.4958 0.3126 0.6717
C12 C 0.5839(3) 0.2038(2) 0.65331(17)
C13 C 0.6455(3) 0.2055(3) 0.70612(18)
H12 H 0.6405 0.2528 0.7306
C14 C 0.7123(3) 0.1382(3) 0.72135(19)
H13 H 0.7538 0.1402 0.7557
C15 C 0.7181(3) 0.0663(2) 0.68530(18)
H14 H 0.7635 0.0205 0.6960
C16 C 0.6577(3) 0.0623(2) 0.63414(17)
C17 C 0.5907(3) 0.1327(2) 0.61692(17)
O3 O 0.6204(2) 0.02911(16) 0.39581(11)
O4 O 0.65744(19) -0.00560(16) 0.59690(11)
C18 C 0.7123(3) -0.0821(2) 0.61759(19)
H15 H 0.7916 -0.0722 0.6200
H16 H 0.6978 -0.1283 0.5910
H17 H 0.6839 -0.0965 0.6555
C19 C 0.6662(3) -0.0371(2) 0.35930(18)
H18 H 0.6173 -0.0465 0.3266
H19 H 0.6730 -0.0890 0.3814
H20 H 0.7388 -0.0199 0.3455
Na1 Na 0.5000 0.0000 0.5000
Mn1D Mn 0.51737(4) -0.21846(3) 0.47914(3)
Mn1C Mn -0.01737(4) 0.28154(3) 0.47914(3)
Mn1C_2 Mn 0.98263(4) 0.28154(3) 0.47914(3)
N1C N 0.8066(3) 0.3291(2) 0.47115(16)
N1D N 0.6934(3) -0.1709(2) 0.47115(16)
N2C N 0.7270(2) 0.3035(2) 0.49578(14)
N3C N 0.6507(2) 0.2794(2) 0.52233(16)
N3G N 0.3493(2) -0.2794(2) 0.47767(16)
N4D N 0.5444(2) -0.28830(19) 0.40685(15)
N5D N 0.5684(2) -0.31263(19) 0.53543(15)
O1D O 0.4856(2) -0.14542(16) 0.54297(11)
O2D O 0.46584(19) -0.12638(15) 0.43280(11)
C1D C 0.3980(3) -0.1058(3) 0.63100(19)
C2D C 0.3646(3) -0.1259(3) 0.68720(19)
H1D H 0.3286 -0.0849 0.7099
C3D C 0.3846(4) -0.2068(3) 0.7098(2)
H2D H 0.3618 -0.2198 0.7475
C4D C 0.4374(4) -0.2675(3) 0.6770(2)
H3D H 0.4503 -0.3215 0.6928
C5D C 0.4728(3) -0.2495(2) 0.61957(19)
C6D C 0.4530(3) -0.1679(2) 0.59606(18)
C7D C 0.5366(3) -0.3137(3) 0.5892(2)
H4D H 0.5574 -0.3615 0.6108
C8D C 0.6413(3) -0.3837(2) 0.51630(19)
H5D H 0.7180 -0.3632 0.5138
H6D H 0.6391 -0.4288 0.5454
C9D C 0.6071(3) -0.4204(3) 0.45783(19)
H7D H 0.6492 -0.4725 0.4509
H8D H 0.5282 -0.4354 0.4593
C10D C 0.6263(3) -0.3593(3) 0.4070(2)
H9D H 0.6204 -0.3908 0.3707
H10D H 0.7016 -0.3360 0.4095
C11D C 0.4920(3) -0.2740(2) 0.35849(18)
H11D H 0.5042 -0.3126 0.3283
C12D C 0.4161(3) -0.2038(2) 0.34669(17)
C13D C 0.3545(3) -0.2055(3) 0.29388(18)
H12D H 0.3595 -0.2528 0.2694
C14D C 0.2877(3) -0.1382(3) 0.27865(19)
H13D H 0.2462 -0.1402 0.2443
C15D C 0.2819(3) -0.0663(2) 0.31470(18)
H14D H 0.2365 -0.0205 0.3040
C16D C 0.3423(3) -0.0623(2) 0.36586(17)
C17D C 0.4093(3) -0.1327(2) 0.38308(17)
O3D O 0.3796(2) -0.02911(16) 0.60419(11)
O4D O 0.34256(19) 0.00560(16) 0.40310(11)
C18D C 0.2877(3) 0.0821(2) 0.38241(19)
H15D H 0.2084 0.0722 0.3800
H16D H 0.3022 0.1283 0.4090
H17D H 0.3161 0.0965 0.3445
C19D C 0.3338(3) 0.0371(2) 0.64070(18)
H18D H 0.3827 0.0465 0.6734
H19D H 0.3270 0.0890 0.6186
H20D H 0.2612 0.0199 0.6545
Cl1 Cl 0.0000 1.02810(9) 0.2500
O5 O 0.0982(2) 1.08048(16) 0.25025(13)
O6 O -0.0013(3) 0.9775(3) 0.3008(3)
O5B O -0.0982(2) 1.08048(16) 0.24975(13)
O6B O 0.0013(3) 0.9775(3) 0.1992(3)
loop_
_geom_bond_atom_site_label_1
_geom_bond_atom_site_label_2
_geom_bond_site_symmetry_1
_geom_bond_site_symmetry_2
Mn1 N1 1_555 1_555
N1 N2 1_555 1_555
N2 N3 1_555 1_555
N3 Mn1C 1_555 1_555
N4 Mn1 1_555 1_555
N5 Mn1 1_555 1_555
O1 Mn1 1_555 1_555
O2 Mn1 1_555 1_555
C1 C2 1_555 1_555
C2 H1 1_555 1_555
C3 C2 1_555 1_555
H2 C3 1_555 1_555
C4 C3 1_555 1_555
H3 C4 1_555 1_555
C5 C4 1_555 1_555
C6 O1 1_555 1_555
C7 N5 1_555 1_555
H4 C7 1_555 1_555
C8 N5 1_555 1_555
H5 C8 1_555 1_555
H6 C8 1_555 1_555
C9 C8 1_555 1_555
H7 C9 1_555 1_555
H8 C9 1_555 1_555
C10 N4 1_555 1_555
H9 C10 1_555 1_555
H10 C10 1_555 1_555
C11 N4 1_555 1_555
H11 C11 1_555 1_555
C12 C11 1_555 1_555
C13 C12 1_555 1_555
H12 C13 1_555 1_555
C14 C13 1_555 1_555
H13 C14 1_555 1_555
C15 C14 1_555 1_555
H14 C15 1_555 1_555
C16 C15 1_555 1_555
C17 O2 1_555 1_555
O3 C1 1_555 1_555
O4 C16 1_555 1_555
C18 O4 1_555 1_555
H15 C18 1_555 1_555
H16 C18 1_555 1_555
H17 C18 1_555 1_555
C19 O3 1_555 1_555
H18 C19 1_555 1_555
H19 C19 1_555 1_555
H20 C19 1_555 1_555
Cl1 O5 1_555 1_555
O6 Cl1 1_555 1_555
Na1 O1 1_555 1_555
Mn1D N1D 1_555 1_555
Mn1C_2 N1C 1_555 1_555
N1C N2C 1_555 1_555
N2C N3C 1_555 1_555
N3C Mn1 1_555 1_555
N3G Mn1D 1_555 1_555
N4D Mn1D 1_555 1_555
N5D Mn1D 1_555 1_555
O1D Na1 1_555 1_555
O2D Na1 1_555 1_555
C1D C2D 1_555 1_555
C2D H1D 1_555 1_555
C3D C2D 1_555 1_555
H2D C3D 1_555 1_555
C4D C3D 1_555 1_555
H3D C4D 1_555 1_555
C5D C4D 1_555 1_555
C6D O1D 1_555 1_555
C7D N5D 1_555 1_555
H4D C7D 1_555 1_555
C8D N5D 1_555 1_555
H5D C8D 1_555 1_555
H6D C8D 1_555 1_555
C9D C8D 1_555 1_555
H7D C9D 1_555 1_555
H8D C9D 1_555 1_555
C10D N4D 1_555 1_555
H9D C10D 1_555 1_555
H10D C10D 1_555 1_555
C11D N4D 1_555 1_555
H11D C11D 1_555 1_555
C12D C11D 1_555 1_555
C13D C12D 1_555 1_555
H12D C13D 1_555 1_555
C14D C13D 1_555 1_555
H13D C14D 1_555 1_555
C15D C14D 1_555 1_555
H14D C15D 1_555 1_555
C16D C15D 1_555 1_555
C17D O2D 1_555 1_555
O3D Na1 1_555 1_555
O4D Na1 1_555 1_555
C18D O4D 1_555 1_555
H15D C18D 1_555 1_555
H16D C18D 1_555 1_555
H17D C18D 1_555 1_555
C19D O3D 1_555 1_555
H18D C19D 1_555 1_555
H19D C19D 1_555 1_555
H20D C19D 1_555 1_555
O5B Cl1 1_555 1_555
O6B Cl1 1_555 1_555
O2 Na1 1_555 1_555
C1 C6 1_555 1_555
C5 C6 1_555 1_555
C5 C7 1_555 1_555
C9 C10 1_555 1_555
C12 C17 1_555 1_555
C16 C17 1_555 1_555
O3 Na1 1_555 1_555
O4 Na1 1_555 1_555
Mn1D O1D 1_555 1_555
Mn1D O2D 1_555 1_555
C1D C6D 1_555 1_555
C1D O3D 1_555 1_555
C5D C6D 1_555 1_555
C5D C7D 1_555 1_555
C9D C10D 1_555 1_555
C12D C17D 1_555 1_555
C16D C17D 1_555 1_555
C16D O4D 1_555 1_555

#END
