
#######################################################################
#
#                 Cambridge Crystallographic Data Centre
#                                CCDC 
#
#######################################################################
#
# If this CIF has been generated from an entry in the Cambridge 
# Structural Database, then it will include bibliographic, chemical, 
# crystal, experimental, refinement or atomic coordinate data resulting 
# from the CCDC's data processing and validation procedures.
#
#######################################################################

data_ITEBUF
_symmetry_cell_setting           monoclinic
_symmetry_space_group_name_H-M   'C 2/c'
_symmetry_Int_Tables_number      15
_space_group_name_Hall           '-C 2yn'
loop_
_symmetry_equiv_pos_site_id
_symmetry_equiv_pos_as_xyz
1 x,y,z
2 -x,y,1/2-z
3 1/2+x,1/2+y,z
4 1/2-x,1/2+y,1/2-z
5 -x,-y,-z
6 x,-y,1/2+z
7 1/2-x,1/2-y,-z
8 1/2+x,1/2-y,1/2+z
_cell_length_a                   19.3049(9)
_cell_length_b                   10.4688(5)
_cell_length_c                   18.1473(5)
_cell_angle_alpha                90
_cell_angle_beta                 109.352(3)
_cell_angle_gamma                90
_cell_volume                     3460.34
loop_
_atom_site_label
_atom_site_type_symbol
_atom_site_fract_x
_atom_site_fract_y
_atom_site_fract_z
Au1 Au 0.469379(15) 0.46658(2) 0.160981(13)
Hg1 Hg 0.50000 0.50000 0.00000
P1 P 0.38697(10) 0.30242(15) 0.14159(9)
C1 C 0.3933(4) 0.2094(6) 0.2280(3)
H1 H 0.3533 0.1498 0.2159
H2 H 0.391 0.2655 0.2689
H3 H 0.439 0.1636 0.2447
C2 C 0.3919(4) 0.1839(6) 0.0708(4)
H4 H 0.3564 0.118 0.0674
H5 H 0.4402 0.1471 0.0868
H6 H 0.3818 0.2236 0.0206
C3 C 0.2922(4) 0.3543(6) 0.1054(3)
H7 H 0.2827 0.396 0.0559
H8 H 0.2833 0.4129 0.1419
H9 H 0.2605 0.2816 0.0992
C4 C 0.5392(4) 0.6230(6) 0.1757(3)
C5 C 0.5120(4) 0.7468(6) 0.1640(3)
C6 C 0.5552(4) 0.8535(6) 0.1760(4)
C7 C 0.6299(4) 0.8407(6) 0.2020(3)
C8 C 0.6603(4) 0.7185(6) 0.2162(3)
C9 C 0.6143(4) 0.6146(6) 0.2017(3)
F1 F 0.4379(2) 0.7664(3) 0.13836(19)
F2 F 0.5260(2) 0.9712(3) 0.1625(2)
F3 F 0.6744(2) 0.9429(3) 0.2153(2)
F4 F 0.7342(2) 0.7051(3) 0.24305(19)
F5 F 0.6480(2) 0.4980(3) 0.2175(2)
C10 C 0.4049(4) 0.6111(6) -0.0363(3)
C11 C 0.3368(4) 0.5587(6) -0.0606(4)
C12 C 0.2725(4) 0.6300(6) -0.0825(3)
C13 C 0.2781(4) 0.7618(6) -0.0807(3)
C14 C 0.3461(4) 0.8190(6) -0.0567(3)
C15 C 0.4084(4) 0.7432(6) -0.0345(3)
F6 F 0.3284(2) 0.4298(3) -0.0638(2)
F7 F 0.2063(2) 0.5752(4) -0.1065(2)
F8 F 0.2171(2) 0.8334(4) -0.1017(2)
F9 F 0.3512(2) 0.9468(3) -0.0532(2)
F10 F 0.4737(2) 0.8030(3) -0.0106(2)
Au1D Au 0.530621(15) 0.53342(2) -0.160981(13)
Au1A Au 0.530621(15) 0.46658(2) 0.339019(13)
Au1E Au 0.469379(15) 0.53342(2) -0.339019(13)
P1D P 0.61303(10) 0.69758(15) -0.14159(9)
C1D C 0.6067(4) 0.7906(6) -0.2280(3)
H1D H 0.6467 0.8502 -0.2159
H2D H 0.609 0.7345 -0.2689
H3D H 0.561 0.8364 -0.2447
C2D C 0.6081(4) 0.8161(6) -0.0708(4)
H4D H 0.6436 0.882 -0.0674
H5D H 0.5598 0.8529 -0.0868
H6D H 0.6182 0.7764 -0.0206
C3D C 0.7078(4) 0.6457(6) -0.1054(3)
H7D H 0.7173 0.604 -0.0559
H8D H 0.7167 0.5871 -0.1419
H9D H 0.7395 0.7184 -0.0992
C4D C 0.4608(4) 0.3770(6) -0.1757(3)
C5D C 0.4880(4) 0.2532(6) -0.1640(3)
C6D C 0.4448(4) 0.1465(6) -0.1760(4)
C7D C 0.3701(4) 0.1593(6) -0.2020(3)
C8D C 0.3397(4) 0.2815(6) -0.2162(3)
C9D C 0.3857(4) 0.3854(6) -0.2017(3)
F1D F 0.5621(2) 0.2336(3) -0.13836(19)
F2D F 0.4740(2) 0.0288(3) -0.1625(2)
F3D F 0.3256(2) 0.0571(3) -0.2153(2)
F4D F 0.2658(2) 0.2949(3) -0.24305(19)
F5D F 0.3520(2) 0.5020(3) -0.2175(2)
C10D C 0.5951(4) 0.3889(6) 0.0363(3)
C11D C 0.6632(4) 0.4413(6) 0.0606(4)
C12D C 0.7275(4) 0.3700(6) 0.0825(3)
C13D C 0.7219(4) 0.2382(6) 0.0807(3)
C14D C 0.6539(4) 0.1810(6) 0.0567(3)
C15D C 0.5916(4) 0.2568(6) 0.0345(3)
F6D F 0.6716(2) 0.5702(3) 0.0638(2)
F7D F 0.7937(2) 0.4248(4) 0.1065(2)
F8D F 0.7829(2) 0.1666(4) 0.1017(2)
F9D F 0.6488(2) 0.0532(3) 0.0532(2)
F10D F 0.5263(2) 0.1970(3) 0.0106(2)
loop_
_geom_bond_atom_site_label_1
_geom_bond_atom_site_label_2
_geom_bond_site_symmetry_1
_geom_bond_site_symmetry_2
Au1 Hg1 1_555 1_555
Hg1 C10 1_555 1_555
P1 Au1 1_555 1_555
C1 P1 1_555 1_555
H1 C1 1_555 1_555
H2 C1 1_555 1_555
H3 C1 1_555 1_555
C2 P1 1_555 1_555
H4 C2 1_555 1_555
H5 C2 1_555 1_555
H6 C2 1_555 1_555
C3 P1 1_555 1_555
H7 C3 1_555 1_555
H8 C3 1_555 1_555
H9 C3 1_555 1_555
C4 Au1 1_555 1_555
C5 C4 1_555 1_555
C6 C5 1_555 1_555
C7 C6 1_555 1_555
C8 C7 1_555 1_555
C9 C4 1_555 1_555
F1 C5 1_555 1_555
F2 C6 1_555 1_555
F3 C7 1_555 1_555
F4 C8 1_555 1_555
F5 C9 1_555 1_555
C10 C11 1_555 1_555
C11 C12 1_555 1_555
C12 C13 1_555 1_555
C13 C14 1_555 1_555
C14 C15 1_555 1_555
C15 C10 1_555 1_555
F6 C11 1_555 1_555
F7 C12 1_555 1_555
F8 C13 1_555 1_555
F9 C14 1_555 1_555
F10 C15 1_555 1_555
Au1D Hg1 1_555 1_555
Au1A Au1 1_555 1_555
Au1E Au1D 1_555 1_555
P1D Au1D 1_555 1_555
C1D P1D 1_555 1_555
H1D C1D 1_555 1_555
H2D C1D 1_555 1_555
H3D C1D 1_555 1_555
C2D P1D 1_555 1_555
H4D C2D 1_555 1_555
H5D C2D 1_555 1_555
H6D C2D 1_555 1_555
C3D P1D 1_555 1_555
H7D C3D 1_555 1_555
H8D C3D 1_555 1_555
H9D C3D 1_555 1_555
C4D Au1D 1_555 1_555
C5D C4D 1_555 1_555
C6D C5D 1_555 1_555
C7D C6D 1_555 1_555
C8D C7D 1_555 1_555
C9D C4D 1_555 1_555
F1D C5D 1_555 1_555
F2D C6D 1_555 1_555
F3D C7D 1_555 1_555
F4D C8D 1_555 1_555
F5D C9D 1_555 1_555
C10D Hg1 1_555 1_555
C11D C10D 1_555 1_555
C12D C11D 1_555 1_555
C13D C12D 1_555 1_555
C14D C13D 1_555 1_555
C15D C10D 1_555 1_555
F6D C11D 1_555 1_555
F7D C12D 1_555 1_555
F8D C13D 1_555 1_555
F9D C14D 1_555 1_555
F10D C15D 1_555 1_555
C8 C9 1_555 1_555
C8D C9D 1_555 1_555
C14D C15D 1_555 1_555

#END
