
#######################################################################
#
#                 Cambridge Crystallographic Data Centre
#                                CCDC 
#
#######################################################################
#
# If this CIF has been generated from an entry in the Cambridge 
# Structural Database, then it will include bibliographic, chemical, 
# crystal, experimental, refinement or atomic coordinate data resulting 
# from the CCDC's data processing and validation procedures.
#
#######################################################################

data_ITEFOD01
_symmetry_cell_setting           orthorhombic
_symmetry_space_group_name_H-M   'P b c n'
_symmetry_Int_Tables_number      60
_space_group_name_Hall           '-P 2n 2ab'
loop_
_symmetry_equiv_pos_site_id
_symmetry_equiv_pos_as_xyz
1 x,y,z
2 1/2-x,1/2-y,1/2+z
3 -x,y,1/2-z
4 1/2+x,1/2-y,-z
5 -x,-y,-z
6 1/2+x,1/2+y,1/2-z
7 x,-y,1/2+z
8 1/2-x,1/2+y,z
_cell_length_a                   34.687(3)
_cell_length_b                   10.2092(8)
_cell_length_c                   8.5888(7)
_cell_angle_alpha                90
_cell_angle_beta                 90
_cell_angle_gamma                90
_cell_volume                     3041.52
loop_
_atom_site_label
_atom_site_type_symbol
_atom_site_fract_x
_atom_site_fract_y
_atom_site_fract_z
Cu1 Cu 0.5000 0.68863(3) 1.2500
Cu2 Cu 0.5000 0.5000 1.0000
O1 O 0.45285(3) 0.71684(13) 1.15773(15)
O2 O 0.45431(4) 0.58472(12) 0.94969(15)
C1 C 0.43950(5) 0.67412(16) 1.0311(2)
C2 C 0.40299(5) 0.73582(16) 0.9716(2)
C3 C 0.36854(5) 0.72283(17) 1.0565(2)
C4 C 0.33503(5) 0.77600(17) 0.9927(2)
H1 H 0.3114 0.7664 1.0478
C5 C 0.33490(5) 0.84263(17) 0.8514(2)
C6 C 0.36974(5) 0.85881(17) 0.77353(19)
H2 H 0.3702 0.9070 0.6789
C7 C 0.40412(5) 0.80593(16) 0.8310(2)
C8 C 0.36640(5) 0.65258(19) 1.2132(2)
H3 H 0.3933 0.6328 1.2476
C9 C 0.34780(7) 0.7406(2) 1.3355(2)
H4 H 0.3612 0.8251 1.3381
H5 H 0.3496 0.6987 1.4378
H6 H 0.3206 0.7547 1.3090
C10 C 0.34464(8) 0.5232(2) 1.1988(3)
H7 H 0.3434 0.4806 1.3010
H8 H 0.3581 0.4659 1.1251
H9 H 0.3184 0.5401 1.1613
C11 C 0.29791(5) 0.89312(18) 0.7777(2)
H10 H 0.3053 0.9559 0.6934
C12 C 0.27176(5) 0.9660(2) 0.8912(2)
H11 H 0.2645 0.9073 0.9767
H12 H 0.2485 0.9952 0.8367
H13 H 0.2855 1.0421 0.9331
C13 C 0.27595(6) 0.7800(2) 0.7017(3)
H14 H 0.2929 0.7345 0.6282
H15 H 0.2535 0.8145 0.6459
H16 H 0.2674 0.7186 0.7822
C14 C 0.44134(5) 0.82782(18) 0.7405(2)
H17 H 0.4633 0.8013 0.8090
C15 C 0.44244(7) 0.7418(2) 0.5960(3)
H18 H 0.4388 0.6500 0.6261
H19 H 0.4674 0.7518 0.5441
H20 H 0.4218 0.7682 0.5246
C16 C 0.44701(6) 0.9715(2) 0.6972(3)
H21 H 0.4722 0.9826 0.6471
H22 H 0.4459 1.0254 0.7916
H23 H 0.4266 0.9988 0.6253
Cu2B Cu 0.5000 0.5000 1.5000
O1B O 0.54715(3) 0.71684(13) 1.34227(15)
O2B O 0.54569(4) 0.58472(12) 1.55031(15)
O2D O 0.54569(4) 0.41528(12) 1.05031(15)
C1B C 0.56050(5) 0.67412(16) 1.4689(2)
C2B C 0.59701(5) 0.73582(16) 1.5284(2)
C3B C 0.63146(5) 0.72283(17) 1.4435(2)
C4B C 0.66497(5) 0.77600(17) 1.5073(2)
H1B H 0.6886 0.7664 1.4522
C5B C 0.66510(5) 0.84263(17) 1.6486(2)
C6B C 0.63026(5) 0.85881(17) 1.72647(19)
H2B H 0.6298 0.9070 1.8211
C7B C 0.59588(5) 0.80593(16) 1.6690(2)
C8B C 0.63360(5) 0.65258(19) 1.2868(2)
H3B H 0.6067 0.6328 1.2524
C9B C 0.65220(7) 0.7406(2) 1.1645(2)
H4B H 0.6388 0.8251 1.1619
H5B H 0.6504 0.6987 1.0622
H6B H 0.6794 0.7547 1.1910
C10B C 0.65536(8) 0.5232(2) 1.3012(3)
H7B H 0.6566 0.4806 1.1990
H8B H 0.6419 0.4659 1.3749
H9B H 0.6816 0.5401 1.3387
C11B C 0.70209(5) 0.89312(18) 1.7223(2)
H10B H 0.6947 0.9559 1.8066
C12B C 0.72824(5) 0.9660(2) 1.6088(2)
H11B H 0.7355 0.9073 1.5233
H12B H 0.7515 0.9952 1.6633
H13B H 0.7145 1.0421 1.5669
C13B C 0.72405(6) 0.7800(2) 1.7983(3)
H14B H 0.7071 0.7345 1.8718
H15B H 0.7465 0.8145 1.8541
H16B H 0.7326 0.7186 1.7178
C14B C 0.55866(5) 0.82782(18) 1.7595(2)
H17B H 0.5367 0.8013 1.6910
C15B C 0.55756(7) 0.7418(2) 1.9040(3)
H18B H 0.5612 0.6500 1.8739
H19B H 0.5326 0.7518 1.9559
H20B H 0.5782 0.7682 1.9754
C16B C 0.55299(6) 0.9715(2) 1.8028(3)
H21B H 0.5278 0.9826 1.8529
H22B H 0.5541 1.0254 1.7084
H23B H 0.5734 0.9988 1.8747
loop_
_geom_bond_atom_site_label_1
_geom_bond_atom_site_label_2
_geom_bond_site_symmetry_1
_geom_bond_site_symmetry_2
Cu1 O1 1_555 1_555
Cu2 O2 1_555 1_555
O1 C1 1_555 1_555
O2 C1 1_555 1_555
C1 C2 1_555 1_555
C2 C3 1_555 1_555
C3 C4 1_555 1_555
C4 H1 1_555 1_555
C5 C4 1_555 1_555
C6 C5 1_555 1_555
H2 C6 1_555 1_555
C7 C2 1_555 1_555
C8 C3 1_555 1_555
H3 C8 1_555 1_555
C9 C8 1_555 1_555
H4 C9 1_555 1_555
H5 C9 1_555 1_555
H6 C9 1_555 1_555
C10 C8 1_555 1_555
H7 C10 1_555 1_555
H8 C10 1_555 1_555
H9 C10 1_555 1_555
C11 C5 1_555 1_555
H10 C11 1_555 1_555
C12 C11 1_555 1_555
H11 C12 1_555 1_555
H12 C12 1_555 1_555
H13 C12 1_555 1_555
C13 C11 1_555 1_555
H14 C13 1_555 1_555
H15 C13 1_555 1_555
H16 C13 1_555 1_555
C14 C7 1_555 1_555
H17 C14 1_555 1_555
C15 C14 1_555 1_555
H18 C15 1_555 1_555
H19 C15 1_555 1_555
H20 C15 1_555 1_555
C16 C14 1_555 1_555
H21 C16 1_555 1_555
H22 C16 1_555 1_555
H23 C16 1_555 1_555
Cu2B O2B 1_555 1_555
O1B Cu1 1_555 1_555
O2B C1B 1_555 1_555
O2D Cu2 1_555 1_555
C1B O1B 1_555 1_555
C2B C1B 1_555 1_555
C3B C2B 1_555 1_555
C4B C3B 1_555 1_555
H1B C4B 1_555 1_555
C5B C4B 1_555 1_555
C6B C5B 1_555 1_555
H2B C6B 1_555 1_555
C7B C2B 1_555 1_555
C8B C3B 1_555 1_555
H3B C8B 1_555 1_555
C9B C8B 1_555 1_555
H4B C9B 1_555 1_555
H5B C9B 1_555 1_555
H6B C9B 1_555 1_555
C10B C8B 1_555 1_555
H7B C10B 1_555 1_555
H8B C10B 1_555 1_555
H9B C10B 1_555 1_555
C11B C5B 1_555 1_555
H10B C11B 1_555 1_555
C12B C11B 1_555 1_555
H11B C12B 1_555 1_555
H12B C12B 1_555 1_555
H13B C12B 1_555 1_555
C13B C11B 1_555 1_555
H14B C13B 1_555 1_555
H15B C13B 1_555 1_555
H16B C13B 1_555 1_555
C14B C7B 1_555 1_555
H17B C14B 1_555 1_555
C15B C14B 1_555 1_555
H18B C15B 1_555 1_555
H19B C15B 1_555 1_555
H20B C15B 1_555 1_555
C16B C14B 1_555 1_555
H21B C16B 1_555 1_555
H22B C16B 1_555 1_555
H23B C16B 1_555 1_555
C6 C7 1_555 1_555
C6B C7B 1_555 1_555

#END
