
#######################################################################
#
#                 Cambridge Crystallographic Data Centre
#                                CCDC 
#
#######################################################################
#
# If this CIF has been generated from an entry in the Cambridge 
# Structural Database, then it will include bibliographic, chemical, 
# crystal, experimental, refinement or atomic coordinate data resulting 
# from the CCDC's data processing and validation procedures.
#
#######################################################################

data_ITENUR
_symmetry_cell_setting           triclinic
_symmetry_space_group_name_H-M   'P -1'
_symmetry_Int_Tables_number      2
_space_group_name_Hall           '-P 1'
loop_
_symmetry_equiv_pos_site_id
_symmetry_equiv_pos_as_xyz
1 x,y,z
2 -x,-y,-z
_cell_length_a                   9.7029(6)
_cell_length_b                   10.1842(6)
_cell_length_c                   11.1003(7)
_cell_angle_alpha                107.2920(10)
_cell_angle_beta                 91.1910(10)
_cell_angle_gamma                109.5120(10)
_cell_volume                     978.343
loop_
_atom_site_label
_atom_site_type_symbol
_atom_site_fract_x
_atom_site_fract_y
_atom_site_fract_z
Cu1 Cu 0.27972(9) 0.83364(8) 0.64778(8)
Cu2 Cu 0.44893(10) 1.41679(9) 0.56854(9)
Cu3 Cu -0.08230(10) 0.94299(11) 0.70368(9)
C1 C 0.7724(8) 1.3889(9) 0.8380(8)
H1 H 0.8584 1.4483 0.8938
N1 N 0.0258(5) 0.8605(5) 0.7927(5)
N2 N 0.3007(5) 0.9942(5) 0.5780(4)
C2 C 0.1966(6) 0.9760(6) 0.4861(5)
N3 N 0.3332(5) 1.2007(5) 0.5321(5)
N4 N 0.1542(5) 0.8346(6) 0.7916(5)
N5 N 0.2120(5) 1.0975(5) 0.4565(5)
C3 C -0.0367(6) 0.8191(6) 0.8882(5)
N6 N -0.2339(5) 0.8884(6) 0.8408(5)
C4 C 0.3844(6) 1.1363(6) 0.6037(5)
N7 N 0.5800(6) 1.3640(6) 0.6894(5)
N8 N 0.1654(5) 0.7802(6) 0.8836(5)
N9 N 0.0473(6) 0.7677(6) 0.9454(5)
N10 N 0.5844(6) 1.1563(6) 0.7493(5)
C5 C -0.1820(6) 0.8262(6) 0.9129(5)
N11 N -0.2522(6) 0.7659(7) 0.9959(6)
C6 C -0.3702(7) 0.8863(7) 0.8532(6)
H2 H -0.4113 0.9267 0.8037
C7 C 0.5231(7) 1.2201(7) 0.6854(6)
C8 C -0.4524(8) 0.8280(9) 0.9346(7)
H3 H -0.5474 0.8285 0.9425
C9 C 0.7048(9) 1.4452(9) 0.7645(8)
H4 H 0.7492 1.5430 0.7686
C10 C -0.3873(8) 0.7676(10) 1.0054(8)
H5 H -0.4409 0.7265 1.0620
N12 N 0.0090(5) 0.8417(6) 0.3117(5)
N13 N 0.0626(5) 0.7203(6) 0.4498(5)
C11 C 0.0819(6) 0.8380(6) 0.4135(5)
C12 C -0.0410(7) 0.5946(8) 0.3763(7)
H6 H -0.0579 0.5094 0.3977
C13 C -0.0967(7) 0.7142(8) 0.2402(6)
H7 H -0.1519 0.7128 0.1700
C14 C -0.1237(7) 0.5873(8) 0.2696(7)
H8 H -0.1951 0.4992 0.2197
C15 C 0.7087(7) 1.2447(9) 0.8254(7)
H9 H 0.7545 1.2054 0.8725
N14 N 0.3622(5) 0.6845(6) 0.6178(5)
C16 C 0.4006(7) 0.5871(7) 0.5966(6)
Cu2_2 Cu 0.44893(10) 0.41679(9) 0.56854(9)
Cu3A Cu 0.08230(10) 1.05701(11) 0.29632(9)
N5A N -0.2120(5) 0.9025(5) 0.5435(5)
N12A N -0.0090(5) 1.1583(6) 0.6883(5)
C16_2 C 0.4006(7) 1.5871(7) 0.5966(6)
loop_
_geom_bond_atom_site_label_1
_geom_bond_atom_site_label_2
_geom_bond_site_symmetry_1
_geom_bond_site_symmetry_2
Cu1 N2 1_555 1_555
Cu2 N3 1_555 1_555
Cu3 N1 1_555 1_555
C1 H1 1_555 1_555
N1 N4 1_555 1_555
N2 C2 1_555 1_555
C2 N5 1_555 1_555
N3 N5 1_555 1_555
N4 Cu1 1_555 1_555
N5 Cu3A 1_555 1_555
C3 N1 1_555 1_555
N6 Cu3 1_555 1_555
C4 N2 1_555 1_555
N7 Cu2 1_555 1_555
N8 N4 1_555 1_555
N9 C3 1_555 1_555
N10 C7 1_555 1_555
C5 C3 1_555 1_555
N11 C5 1_555 1_555
C6 N6 1_555 1_555
H2 C6 1_555 1_555
C7 C4 1_555 1_555
C8 C6 1_555 1_555
H3 C8 1_555 1_555
C9 C1 1_555 1_555
H4 C9 1_555 1_555
C10 N11 1_555 1_555
H5 C10 1_555 1_555
N12 C11 1_555 1_555
N13 C11 1_555 1_555
C11 C2 1_555 1_555
C12 N13 1_555 1_555
H6 C12 1_555 1_555
C13 N12 1_555 1_555
H7 C13 1_555 1_555
C14 C12 1_555 1_555
H8 C14 1_555 1_555
C15 C1 1_555 1_555
H9 C15 1_555 1_555
N14 Cu1 1_555 1_555
C16 N14 1_555 1_555
Cu2_2 C16 1_555 1_555
Cu3A N12 1_555 1_555
N5A Cu3 1_555 1_555
N12A Cu3 1_555 1_555
C16_2 Cu2 1_555 1_555
N3 C4 1_555 1_555
N6 C5 1_555 1_555
N7 C7 1_555 1_555
N7 C9 1_555 1_555
N8 N9 1_555 1_555
N10 C15 1_555 1_555
C8 C10 1_555 1_555
C13 C14 1_555 1_555

#END
