
#######################################################################
#
#                 Cambridge Crystallographic Data Centre
#                                CCDC 
#
#######################################################################
#
# If this CIF has been generated from an entry in the Cambridge 
# Structural Database, then it will include bibliographic, chemical, 
# crystal, experimental, refinement or atomic coordinate data resulting 
# from the CCDC's data processing and validation procedures.
#
#######################################################################

data_ITENOL
_symmetry_cell_setting           monoclinic
_symmetry_space_group_name_H-M   'P 21'
_symmetry_Int_Tables_number      4
_space_group_name_Hall           'P 2yb'
loop_
_symmetry_equiv_pos_site_id
_symmetry_equiv_pos_as_xyz
1 x,y,z
2 -x,1/2+y,-z
_cell_length_a                   6.5291(13)
_cell_length_b                   21.749(4)
_cell_length_c                   12.586(3)
_cell_angle_alpha                90
_cell_angle_beta                 99.83(3)
_cell_angle_gamma                90
_cell_volume                     1760.99
loop_
_atom_site_label
_atom_site_type_symbol
_atom_site_fract_x
_atom_site_fract_y
_atom_site_fract_z
Co1 Co 0.89381(5) 1.495667(15) 1.14363(3)
Co2 Co 0.41662(5) 1.470535(16) 1.21311(3)
S1 S 0.81156(17) 1.09401(4) 1.17023(6)
O1 O 0.5277(4) 1.38667(10) 1.22395(19)
O2 O 0.8351(4) 1.40265(9) 1.17367(19)
O3 O 0.9894(3) 1.01106(11) 1.69128(17)
O4 O 0.6512(3) 0.99066(13) 1.64742(15)
O5 O 0.6273(6) 1.07004(12) 1.10449(18)
O6 O 1.0123(5) 1.08465(11) 1.1396(2)
O7 O 1.1682(3) 1.46927(10) 1.10272(14)
O8 O 1.3373(4) 1.42892(15) 0.9823(2)
O9 O 0.6151(3) 1.52876(9) 1.17028(16)
O10 O 0.3945(3) 1.60697(10) 1.1569(2)
N1 N 0.4279(6) 1.3336(2) 0.7448(4)
H1 H 0.3029 1.3196 0.7358
N2 N 0.8025(4) 1.47655(11) 0.97321(17)
H2 H 0.6848 1.4542 0.9626
H3 H 0.7770 1.5121 0.9369
N3 N 1.1007(5) 1.73859(14) 1.3707(3)
H4 H 1.2192 1.7529 1.4009
N4 N 0.9283(4) 1.59217(11) 1.1196(2)
H5 H 1.0056 1.6088 1.1787
H6 H 0.9950 1.5983 1.0635
C1 C 0.9387(5) 1.21380(15) 1.1647(3)
H7 H 1.0625 1.1978 1.1494
C2 C 0.9127(5) 1.27709(14) 1.1712(3)
H8 H 1.0195 1.3035 1.1610
C3 C 0.7286(5) 1.30036(12) 1.1930(2)
C4 C 0.5701(6) 1.26049(15) 1.2098(3)
H9 H 0.4463 1.2763 1.2255
C5 C 0.5960(6) 1.19768(15) 1.2034(3)
H10 H 0.4900 1.1710 1.2141
C6 C 0.7813(5) 1.17507(13) 1.1808(2)
C7 C 0.8207(5) 1.06619(13) 1.3026(2)
C8 C 1.0007(6) 1.07102(15) 1.3775(3)
H11 H 1.1207 1.0868 1.3572
C9 C 1.0030(5) 1.05233(15) 1.4829(2)
H12 H 1.1236 1.0559 1.5339
C10 C 0.8231(5) 1.02818(12) 1.5114(2)
C11 C 0.6460(5) 1.02155(16) 1.4347(3)
H13 H 0.5274 1.0043 1.4541
C12 C 0.6430(6) 1.04019(17) 1.3301(3)
H14 H 0.5237 1.0354 1.2786
C13 C 0.6947(5) 1.36929(13) 1.1968(2)
C14 C 0.8249(4) 1.00810(12) 1.6269(2)
C15 C 0.5253(9) 1.35219(18) 0.6649(4)
C16 C 0.4703(11) 1.3509(3) 0.5566(5)
H15 H 0.3401 1.3369 0.5240
C17 C 0.6125(12) 1.3709(2) 0.4966(4)
H16 H 0.5735 1.3702 0.4220
C18 C 0.8147(12) 1.3926(2) 0.5387(4)
H17 H 0.9035 1.4061 0.4931
C19 C 0.8784(8) 1.39331(17) 0.6534(3)
H18 H 1.0097 1.4067 0.6857
C20 C 0.7342(6) 1.37307(14) 0.7127(3)
C21 C 0.7380(5) 1.36363(13) 0.8262(3)
C22 C 0.5510(7) 1.33975(18) 0.8396(4)
H19 H 0.5150 1.3293 0.9057
C23 C 0.9174(6) 1.37434(14) 0.9136(2)
H20 H 1.0383 1.3534 0.8959
H21 H 0.8871 1.3567 0.9801
C24 C 0.9679(5) 1.44249(13) 0.9316(2)
H22 H 0.9849 1.4606 0.8623
C25 C 1.1758(5) 1.44678(14) 1.0083(2)
C26 C 0.9429(5) 1.72201(15) 1.4239(3)
C27 C 0.9302(6) 1.72664(18) 1.5313(3)
H23 H 1.0396 1.7421 1.5811
C28 C 0.7485(7) 1.7074(2) 1.5617(3)
H24 H 0.7339 1.7104 1.6338
C29 C 0.5844(6) 1.6832(2) 1.4869(3)
H25 H 0.4646 1.6697 1.5104
C30 C 0.5977(5) 1.67915(17) 1.3797(3)
H26 H 0.4874 1.6635 1.3305
C31 C 0.7803(5) 1.69889(13) 1.3450(3)
C32 C 0.8459(5) 1.70477(12) 1.2416(3)
C33 C 1.0414(5) 1.72898(15) 1.2615(3)
H27 H 1.1223 1.7377 1.2093
C34 C 0.7274(5) 1.69075(13) 1.1305(3)
H28 H 0.7886 1.7141 1.0782
H29 H 0.5854 1.7049 1.1265
C35 C 0.7227(4) 1.62267(13) 1.0980(2)
H30 H 0.6778 1.6216 1.0196
C36 C 0.5623(4) 1.58558(13) 1.1463(2)
Co1A Co 1.10619(5) 0.995667(15) 1.85637(3)
Co2A Co 0.58338(5) 0.970535(16) 1.78689(3)
Co2_2 Co 1.41662(5) 1.470535(16) 1.21311(3)
O3A O 1.0106(3) 1.51106(11) 1.30872(17)
O4A O 0.3488(3) 1.49066(13) 1.35258(15)
O7_2 O 0.1682(3) 1.46927(10) 1.10272(14)
loop_
_geom_bond_atom_site_label_1
_geom_bond_atom_site_label_2
_geom_bond_site_symmetry_1
_geom_bond_site_symmetry_2
Co1 O2 1_555 1_555
Co2 O1 1_555 1_555
S1 O5 1_555 1_555
O1 C13 1_555 1_555
O2 C13 1_555 1_555
O3 C14 1_555 1_555
O4 C14 1_555 1_555
O6 S1 1_555 1_555
O7 Co1 1_555 1_555
O8 C25 1_555 1_555
O9 Co1 1_555 1_555
O10 C36 1_555 1_555
N1 H1 1_555 1_555
N2 Co1 1_555 1_555
H2 N2 1_555 1_555
H3 N2 1_555 1_555
N3 H4 1_555 1_555
N4 Co1 1_555 1_555
H5 N4 1_555 1_555
H6 N4 1_555 1_555
C1 H7 1_555 1_555
C2 C1 1_555 1_555
H8 C2 1_555 1_555
C3 C2 1_555 1_555
C4 C3 1_555 1_555
H9 C4 1_555 1_555
C5 C4 1_555 1_555
H10 C5 1_555 1_555
C6 S1 1_555 1_555
C7 S1 1_555 1_555
C8 C7 1_555 1_555
H11 C8 1_555 1_555
C9 C8 1_555 1_555
H12 C9 1_555 1_555
C10 C9 1_555 1_555
C11 C10 1_555 1_555
H13 C11 1_555 1_555
C12 C7 1_555 1_555
H14 C12 1_555 1_555
C13 C3 1_555 1_555
C14 C10 1_555 1_555
C15 N1 1_555 1_555
C16 C15 1_555 1_555
H15 C16 1_555 1_555
C17 C16 1_555 1_555
H16 C17 1_555 1_555
C18 C17 1_555 1_555
H17 C18 1_555 1_555
C19 C18 1_555 1_555
H18 C19 1_555 1_555
C20 C15 1_555 1_555
C21 C20 1_555 1_555
C22 N1 1_555 1_555
H19 C22 1_555 1_555
C23 C21 1_555 1_555
H20 C23 1_555 1_555
H21 C23 1_555 1_555
C24 N2 1_555 1_555
H22 C24 1_555 1_555
C25 O7 1_555 1_555
C26 N3 1_555 1_555
C27 C26 1_555 1_555
H23 C27 1_555 1_555
C28 C27 1_555 1_555
H24 C28 1_555 1_555
C29 C28 1_555 1_555
H25 C29 1_555 1_555
C30 C29 1_555 1_555
H26 C30 1_555 1_555
C31 C26 1_555 1_555
C32 C31 1_555 1_555
C33 N3 1_555 1_555
H27 C33 1_555 1_555
C34 C32 1_555 1_555
H28 C34 1_555 1_555
H29 C34 1_555 1_555
C35 N4 1_555 1_555
H30 C35 1_555 1_555
C36 O9 1_555 1_555
Co1A O3 1_555 1_555
Co2A O4 1_555 1_555
Co2_2 O7 1_555 1_555
O3A Co1 1_555 1_555
O4A Co2 1_555 1_555
O7_2 Co2 1_555 1_555
Co2 O9 1_555 1_555
C1 C6 1_555 1_555
C5 C6 1_555 1_555
C11 C12 1_555 1_555
C19 C20 1_555 1_555
C21 C22 1_555 1_555
C23 C24 1_555 1_555
C24 C25 1_555 1_555
C30 C31 1_555 1_555
C32 C33 1_555 1_555
C34 C35 1_555 1_555
C35 C36 1_555 1_555

#END
