
#######################################################################
#
#                 Cambridge Crystallographic Data Centre
#                                CCDC 
#
#######################################################################
#
# If this CIF has been generated from an entry in the Cambridge 
# Structural Database, then it will include bibliographic, chemical, 
# crystal, experimental, refinement or atomic coordinate data resulting 
# from the CCDC's data processing and validation procedures.
#
#######################################################################

data_ITENIF
_symmetry_cell_setting           monoclinic
_symmetry_space_group_name_H-M   'P 21'
_symmetry_Int_Tables_number      4
_space_group_name_Hall           'P 2yb'
loop_
_symmetry_equiv_pos_site_id
_symmetry_equiv_pos_as_xyz
1 x,y,z
2 -x,1/2+y,-z
_cell_length_a                   6.5182(13)
_cell_length_b                   21.728(4)
_cell_length_c                   12.575(3)
_cell_angle_alpha                90
_cell_angle_beta                 99.77(3)
_cell_angle_gamma                90
_cell_volume                     1755.14
loop_
_atom_site_label
_atom_site_type_symbol
_atom_site_fract_x
_atom_site_fract_y
_atom_site_fract_z
Co1 Co -0.39326(6) 0.242672(19) -0.14328(3)
Co2 Co 0.08401(6) 0.26786(2) -0.21282(3)
S1 S -0.3126(2) 0.64438(5) -0.17049(7)
O1 O -0.0262(4) 0.35176(12) -0.2235(2)
O2 O -0.3335(4) 0.33555(12) -0.1731(2)
O3 O -0.4897(4) 0.72734(14) -0.6917(2)
O4 O -0.1525(4) 0.74794(15) -0.64754(19)
O5 O -0.1279(6) 0.66853(15) -0.1045(2)
O6 O -0.5123(6) 0.65357(14) -0.1398(2)
O7 O -0.6678(3) 0.26893(12) -0.10262(16)
O8 O -0.8367(5) 0.30972(17) 0.0177(3)
O9 O -0.1138(3) 0.20958(11) -0.16987(19)
O10 O 0.1062(4) 0.13140(13) -0.1571(2)
N1 N 0.0720(7) 0.4046(2) 0.2563(5)
H1 H 0.1976 0.4183 0.2654
N2 N -0.3024(4) 0.26160(13) 0.0269(2)
H2 H -0.2779 0.2259 0.0633
H3 H -0.1841 0.2838 0.0377
N3 N -0.5998(5) -0.00023(18) -0.3709(3)
H4 H -0.7185 -0.0146 -0.4011
N4 N -0.4273(4) 0.14608(13) -0.1189(3)
H5 H -0.4936 0.1399 -0.0625
H6 H -0.5051 0.1294 -0.1778
C1 C -0.4378(6) 0.52437(19) -0.1646(3)
H7 H -0.5616 0.5403 -0.1489
C2 C -0.4135(6) 0.46114(18) -0.1710(3)
H8 H -0.5209 0.4348 -0.1608
C3 C -0.2276(6) 0.43785(16) -0.1928(3)
C4 C -0.0699(7) 0.47805(18) -0.2088(4)
H9 H 0.0553 0.4624 -0.2231
C5 C -0.0964(7) 0.54077(19) -0.2038(4)
H10 H 0.0092 0.5674 -0.2155
C6 C -0.2818(6) 0.56363(17) -0.1810(3)
C7 C -0.3221(6) 0.67215(17) -0.3031(3)
C8 C -0.5017(7) 0.66714(19) -0.3778(3)
H11 H -0.6216 0.6511 -0.3575
C9 C -0.5038(6) 0.68586(18) -0.4828(3)
H12 H -0.6247 0.6822 -0.5336
C10 C -0.3254(5) 0.71003(16) -0.5119(3)
C11 C -0.1477(6) 0.7169(2) -0.4352(3)
H13 H -0.0296 0.7346 -0.4548
C12 C -0.1432(7) 0.6978(2) -0.3308(3)
H14 H -0.0230 0.7021 -0.2796
C13 C -0.1948(6) 0.36923(17) -0.1969(3)
C14 C -0.3252(5) 0.73021(16) -0.6268(3)
C15 C -0.0274(11) 0.3858(2) 0.3370(5)
C16 C 0.0261(13) 0.3872(4) 0.4446(6)
H15 H 0.1560 0.4014 0.4775
C17 C -0.1168(14) 0.3672(3) 0.5038(5)
H16 H -0.0785 0.3675 0.5785
C18 C -0.3191(14) 0.3458(3) 0.4610(6)
H17 H -0.4095 0.3327 0.5062
C19 C -0.3809(10) 0.3450(2) 0.3457(4)
H18 H -0.5117 0.3315 0.3127
C20 C -0.2344(7) 0.36543(18) 0.2875(3)
C21 C -0.2367(6) 0.37469(17) 0.1740(3)
C22 C -0.0510(9) 0.3990(2) 0.1617(5)
H19 H -0.0150 0.4102 0.0959
C23 C -0.4160(7) 0.36391(18) 0.0870(3)
H20 H -0.3856 0.3816 0.0205
H21 H -0.5367 0.3851 0.1048
C24 C -0.4690(6) 0.29617(17) 0.0683(3)
H22 H -0.4867 0.2780 0.1374
C25 C -0.6760(6) 0.29144(18) -0.0086(3)
C26 C -0.4433(6) 0.01643(18) -0.4244(3)
C27 C -0.4290(8) 0.0114(2) -0.5312(3)
H23 H -0.5375 -0.0046 -0.5813
C28 C -0.2462(8) 0.0311(3) -0.5610(4)
H24 H -0.2312 0.0282 -0.6331
C29 C -0.0837(7) 0.0550(2) -0.4871(4)
H25 H 0.0363 0.0684 -0.5108
C30 C -0.0973(6) 0.0593(2) -0.3795(3)
H26 H 0.0128 0.0752 -0.3304
C31 C -0.2789(6) 0.03941(16) -0.3449(3)
C32 C -0.3447(6) 0.03367(16) -0.2414(3)
C33 C -0.5407(6) 0.00915(19) -0.2615(3)
H27 H -0.6218 0.0002 -0.2094
C34 C -0.2276(6) 0.04784(17) -0.1305(3)
H28 H -0.0854 0.0336 -0.1263
H29 H -0.2896 0.0245 -0.0784
C35 C -0.2223(5) 0.11562(16) -0.0979(3)
H30 H -0.1772 0.1165 -0.0195
C36 C -0.0613(5) 0.15266(16) -0.1460(3)
Co1A Co -0.60674(6) 0.742672(19) -0.85672(3)
Co2A Co -0.08401(6) 0.76786(2) -0.78718(3)
Co2_2 Co -0.91599(6) 0.26786(2) -0.21282(3)
O3A O -0.5103(4) 0.22734(14) -0.3083(2)
O4A O 0.1525(4) 0.24794(15) -0.35246(19)
O7_2 O 0.3322(3) 0.26893(12) -0.10262(16)
loop_
_geom_bond_atom_site_label_1
_geom_bond_atom_site_label_2
_geom_bond_site_symmetry_1
_geom_bond_site_symmetry_2
Co1 O2 1_555 1_555
Co2 O1 1_555 1_555
S1 O5 1_555 1_555
O1 C13 1_555 1_555
O2 C13 1_555 1_555
O3 C14 1_555 1_555
O4 C14 1_555 1_555
O6 S1 1_555 1_555
O7 Co1 1_555 1_555
O8 C25 1_555 1_555
O9 Co1 1_555 1_555
O10 C36 1_555 1_555
N1 H1 1_555 1_555
N2 Co1 1_555 1_555
H2 N2 1_555 1_555
H3 N2 1_555 1_555
N3 H4 1_555 1_555
N4 Co1 1_555 1_555
H5 N4 1_555 1_555
H6 N4 1_555 1_555
C1 H7 1_555 1_555
C2 C1 1_555 1_555
H8 C2 1_555 1_555
C3 C2 1_555 1_555
C4 C3 1_555 1_555
H9 C4 1_555 1_555
C5 C4 1_555 1_555
H10 C5 1_555 1_555
C6 S1 1_555 1_555
C7 S1 1_555 1_555
C8 C7 1_555 1_555
H11 C8 1_555 1_555
C9 C8 1_555 1_555
H12 C9 1_555 1_555
C10 C9 1_555 1_555
C11 C10 1_555 1_555
H13 C11 1_555 1_555
C12 C7 1_555 1_555
H14 C12 1_555 1_555
C13 C3 1_555 1_555
C14 C10 1_555 1_555
C15 N1 1_555 1_555
C16 C15 1_555 1_555
H15 C16 1_555 1_555
C17 C16 1_555 1_555
H16 C17 1_555 1_555
C18 C17 1_555 1_555
H17 C18 1_555 1_555
C19 C18 1_555 1_555
H18 C19 1_555 1_555
C20 C15 1_555 1_555
C21 C20 1_555 1_555
C22 N1 1_555 1_555
H19 C22 1_555 1_555
C23 C21 1_555 1_555
H20 C23 1_555 1_555
H21 C23 1_555 1_555
C24 N2 1_555 1_555
H22 C24 1_555 1_555
C25 O7 1_555 1_555
C26 N3 1_555 1_555
C27 C26 1_555 1_555
H23 C27 1_555 1_555
C28 C27 1_555 1_555
H24 C28 1_555 1_555
C29 C28 1_555 1_555
H25 C29 1_555 1_555
C30 C29 1_555 1_555
H26 C30 1_555 1_555
C31 C26 1_555 1_555
C32 C31 1_555 1_555
C33 N3 1_555 1_555
H27 C33 1_555 1_555
C34 C32 1_555 1_555
H28 C34 1_555 1_555
H29 C34 1_555 1_555
C35 N4 1_555 1_555
H30 C35 1_555 1_555
C36 O9 1_555 1_555
Co1A O3 1_555 1_555
Co2A O4 1_555 1_555
Co2_2 O7 1_555 1_555
O3A Co1 1_555 1_555
O4A Co2 1_555 1_555
O7_2 Co2 1_555 1_555
Co2 O9 1_555 1_555
C1 C6 1_555 1_555
C5 C6 1_555 1_555
C11 C12 1_555 1_555
C19 C20 1_555 1_555
C21 C22 1_555 1_555
C23 C24 1_555 1_555
C24 C25 1_555 1_555
C30 C31 1_555 1_555
C32 C33 1_555 1_555
C34 C35 1_555 1_555
C35 C36 1_555 1_555

#END
