
#######################################################################
#
#                 Cambridge Crystallographic Data Centre
#                                CCDC 
#
#######################################################################
#
# If this CIF has been generated from an entry in the Cambridge 
# Structural Database, then it will include bibliographic, chemical, 
# crystal, experimental, refinement or atomic coordinate data resulting 
# from the CCDC's data processing and validation procedures.
#
#######################################################################

data_ITEPED
_symmetry_cell_setting           triclinic
_symmetry_space_group_name_H-M   'P -1'
_symmetry_Int_Tables_number      2
_space_group_name_Hall           '-P 1'
loop_
_symmetry_equiv_pos_site_id
_symmetry_equiv_pos_as_xyz
1 x,y,z
2 -x,-y,-z
_cell_length_a                   8.3754(15)
_cell_length_b                   10.891(2)
_cell_length_c                   14.418(3)
_cell_angle_alpha                96.696(3)
_cell_angle_beta                 101.866(3)
_cell_angle_gamma                96.275(3)
_cell_volume                     1266.2
loop_
_atom_site_label
_atom_site_type_symbol
_atom_site_fract_x
_atom_site_fract_y
_atom_site_fract_z
Cu1 Cu 0.24732(7) 0.10103(5) 0.66302(4)
Cu2 Cu 0.79562(7) 0.31488(5) 0.66491(5)
Cu3 Cu 0.30902(9) -0.23725(6) 0.95392(5)
Cu4 Cu 0.14778(9) 0.25285(5) 0.93383(6)
C1 C 1.2664(5) 0.5186(3) 1.0007(3)
N1 N 0.3153(4) -0.0842(3) 0.9025(2)
N2 N 1.3485(4) 0.6332(3) 1.0356(2)
N3 N 1.2894(5) 0.4154(3) 1.0392(3)
N4 N 1.0556(4) 0.3933(3) 0.8730(2)
N5 N 0.2853(5) 0.0639(3) 0.8085(2)
N6 N 1.1266(4) 0.5931(3) 0.8543(3)
N7 N 0.3420(4) -0.0724(3) 0.6548(2)
N8 N 0.2436(4) 0.1057(3) 0.8919(2)
C2 C 0.3266(5) -0.0493(4) 0.8174(3)
N9 N 0.9681(4) 0.4122(3) 0.7860(3)
C3 C 0.3771(5) -0.1193(4) 0.7381(3)
N10 N 0.1486(5) 0.1263(3) 1.0621(3)
C4 C 0.2633(5) 0.0155(3) 0.9461(3)
N11 N 0.8546(5) 0.4928(4) 0.6192(3)
N12 N 0.2507(5) -0.0657(4) 1.0916(3)
C5 C 1.1462(5) 0.5039(4) 0.9103(3)
N13 N 0.4552(5) -0.2178(3) 0.7527(3)
C6 C 0.2196(5) 0.0254(4) 1.0397(3)
C7 C 0.3939(6) -0.1290(4) 0.5813(3)
H1 H 0.3725 -0.0989 0.5229
N14 N 1.0074(5) 0.6946(4) 0.6775(3)
N15 N 0.4420(5) 0.2104(4) 0.6522(3)
N16 N 0.0265(6) 0.1394(5) 0.6220(3)
C8 C 1.0160(5) 0.5311(4) 0.7773(3)
C9 C 0.5710(6) 0.2588(4) 0.6565(3)
C10 C 1.4041(6) 0.4272(4) 1.1202(3)
H2 H 1.4273 0.3563 1.1478
C11 C -0.0835(5) 0.1896(4) 0.6145(3)
C12 C 0.5039(7) -0.2714(5) 0.6774(4)
H3 H 0.5587 -0.3407 0.6844
C13 C 1.4569(6) 0.6434(4) 1.1189(3)
H4 H 1.5124 0.7217 1.1473
C14 C 0.9556(5) 0.5777(4) 0.6867(3)
C15 C 1.4890(6) 0.5416(4) 1.1640(3)
H5 H 1.5652 0.5496 1.2219
C16 C 0.9523(7) 0.7291(5) 0.5914(4)
H6 H 0.9844 0.8102 0.5817
C17 C 0.1071(6) 0.1352(5) 1.1466(4)
H7 H 0.0593 0.2041 1.1662
C18 C 0.2056(7) -0.0532(6) 1.1763(4)
H8 H 0.2249 -0.1140 1.2160
C19 C 0.4774(7) -0.2296(5) 0.5895(3)
H9 H 0.5145 -0.2679 0.5384
C20 C 0.8029(6) 0.5306(5) 0.5343(4)
H10 H 0.7328 0.4746 0.4854
C21 C 0.1326(7) 0.0460(5) 1.2059(4)
H11 H 0.1011 0.0528 1.2643
C22 C 0.8496(7) 0.6483(5) 0.5170(4)
H12 H 0.8136 0.6730 0.4574
Cu2_2 Cu -0.20438(7) 0.31488(5) 0.66491(5)
Cu3_2 Cu 1.30902(9) 0.76275(6) 0.95392(5)
Cu4_2 Cu 1.14778(9) 0.25285(5) 0.93383(6)
N2_2 N 0.3485(4) -0.3668(3) 1.0356(2)
N3_2 N 0.2894(5) 0.4154(3) 1.0392(3)
N4_2 N 0.0556(4) 0.3933(3) 0.8730(2)
N6_2 N 0.1266(4) -0.4069(3) 0.8543(3)
C11_2 C 0.9165(5) 0.1896(4) 0.6145(3)
loop_
_geom_bond_atom_site_label_1
_geom_bond_atom_site_label_2
_geom_bond_site_symmetry_1
_geom_bond_site_symmetry_2
Cu1 N5 1_555 1_555
Cu2 N9 1_555 1_555
Cu3 N1 1_555 1_555
Cu4 N8 1_555 1_555
C1 N2 1_555 1_555
N1 C2 1_555 1_555
N2 C13 1_555 1_555
N3 C1 1_555 1_555
N4 N9 1_555 1_555
N5 N8 1_555 1_555
N6 C5 1_555 1_555
N7 Cu1 1_555 1_555
N8 C4 1_555 1_555
C2 N5 1_555 1_555
N9 C8 1_555 1_555
C3 N7 1_555 1_555
N10 C6 1_555 1_555
C4 N1 1_555 1_555
N11 Cu2 1_555 1_555
N12 C6 1_555 1_555
C5 C1 1_555 1_555
N13 C3 1_555 1_555
C6 C4 1_555 1_555
C7 N7 1_555 1_555
H1 C7 1_555 1_555
N14 C14 1_555 1_555
N15 Cu1 1_555 1_555
N16 Cu1 1_555 1_555
C8 N6 1_555 1_555
C9 Cu2 1_555 1_555
C10 N3 1_555 1_555
H2 C10 1_555 1_555
C11 N16 1_555 1_555
C12 N13 1_555 1_555
H3 C12 1_555 1_555
C13 H4 1_555 1_555
C14 N11 1_555 1_555
C15 C10 1_555 1_555
H5 C15 1_555 1_555
C16 N14 1_555 1_555
H6 C16 1_555 1_555
C17 N10 1_555 1_555
H7 C17 1_555 1_555
C18 N12 1_555 1_555
H8 C18 1_555 1_555
C19 C7 1_555 1_555
H9 C19 1_555 1_555
C20 N11 1_555 1_555
H10 C20 1_555 1_555
C21 C17 1_555 1_555
H11 C21 1_555 1_555
C22 C16 1_555 1_555
H12 C22 1_555 1_555
Cu2_2 C11 1_555 1_555
Cu3_2 N2 1_555 1_555
Cu4_2 N3 1_555 1_555
N2_2 Cu3 1_555 1_555
N3_2 Cu4 1_555 1_555
N4_2 Cu4 1_555 1_555
N6_2 Cu3 1_555 1_555
C11_2 Cu2 1_555 1_555
N4 C5 1_555 1_555
N4 Cu4_2 1_555 1_555
N6 Cu3_2 1_555 1_555
C2 C3 1_555 1_555
N15 C9 1_555 1_555
C8 C14 1_555 1_555
C12 C19 1_555 1_555
C13 C15 1_555 1_555
C18 C21 1_555 1_555
C20 C22 1_555 1_555

#END
