
#######################################################################
#
#                 Cambridge Crystallographic Data Centre
#                                CCDC 
#
#######################################################################
#
# If this CIF has been generated from an entry in the Cambridge 
# Structural Database, then it will include bibliographic, chemical, 
# crystal, experimental, refinement or atomic coordinate data resulting 
# from the CCDC's data processing and validation procedures.
#
#######################################################################

data_ITEVUY01
_symmetry_cell_setting           triclinic
_symmetry_space_group_name_H-M   'P -1'
_symmetry_Int_Tables_number      2
_space_group_name_Hall           '-P 1'
loop_
_symmetry_equiv_pos_site_id
_symmetry_equiv_pos_as_xyz
1 x,y,z
2 -x,-y,-z
_cell_length_a                   9.573(3)
_cell_length_b                   10.381(3)
_cell_length_c                   10.597(3)
_cell_angle_alpha                74.165(5)
_cell_angle_beta                 64.346(6)
_cell_angle_gamma                63.723(6)
_cell_volume                     846.89
loop_
_atom_site_label
_atom_site_type_symbol
_atom_site_fract_x
_atom_site_fract_y
_atom_site_fract_z
C1 C 0.6739(7) 0.2428(6) 0.4170(6)
C2 C 0.7735(6) 0.0908(5) 0.3792(6)
C3 C 0.9437(7) 0.0285(5) 0.3580(6)
H1 H 0.9964 0.0827 0.3670
C4 C 1.0356(7) -0.1127(6) 0.3238(6)
H2 H 1.1514 -0.1552 0.3092
C5 C 0.9589(7) -0.1913(6) 0.3108(7)
H3 H 1.0229 -0.2873 0.2855
C6 C 0.7900(7) -0.1320(5) 0.3343(7)
H4 H 0.7378 -0.1877 0.3270
C7 C 0.6966(7) 0.0096(5) 0.3686(6)
H5 H 0.5805 0.0507 0.3847
C8 C 0.4493(7) 0.3722(5) 0.7561(6)
C9 C 0.4290(7) 0.2909(6) 0.9002(6)
C10 C 0.5211(8) 0.2860(6) 0.9740(6)
H6 H 0.5973 0.3343 0.9332
C11 C 0.5025(8) 0.2113(7) 1.1068(7)
H7 H 0.5639 0.2095 1.1581
C12 C 0.3936(9) 0.1396(7) 1.1633(7)
H8 H 0.3825 0.0861 1.2531
C13 C 0.3012(9) 0.1440(7) 1.0923(7)
H9 H 0.2259 0.0948 1.1336
C14 C 0.3172(8) 0.2207(7) 0.9586(6)
H10 H 0.2529 0.2247 0.9091
C15 C 0.8500(7) 0.5706(6) 0.5923(6)
H11 H 0.7454 0.6210 0.6590
C16 C 0.9961(7) 0.5628(5) 0.5959(6)
H12 H 0.9897 0.6089 0.6654
N1 N 0.8554(6) 0.5069(5) 0.4946(6)
O1 O 0.7515(4) 0.3089(4) 0.4280(4)
O2 O 0.5200(5) 0.2941(4) 0.4313(4)
O3 O 0.5745(5) 0.4106(4) 0.6976(4)
O4 O 0.3444(5) 0.3957(4) 0.7025(4)
Rh1 Rh 0.62252(7) 0.50694(5) 0.49734(6)
N1A N 1.1446(6) 0.4931(5) 0.5054(6)
C15A C 1.1500(7) 0.4294(6) 0.4077(6)
H11A H 1.2546 0.3790 0.3410
C16A C 1.0039(7) 0.4372(5) 0.4041(6)
H12A H 1.0103 0.3911 0.3346
C1A C 0.3261(7) 0.7572(6) 0.5830(6)
C2A C 0.2265(6) 0.9092(5) 0.6208(6)
C3A C 0.0563(7) 0.9715(5) 0.6420(6)
H1A H 0.0036 0.9173 0.6330
C4A C -0.0356(7) 1.1127(6) 0.6762(6)
H2A H -0.1514 1.1552 0.6908
C5A C 0.0411(7) 1.1913(6) 0.6892(7)
H3A H -0.0229 1.2873 0.7145
C6A C 0.2100(7) 1.1320(5) 0.6657(7)
H4A H 0.2622 1.1877 0.6730
C7A C 0.3034(7) 0.9904(5) 0.6314(6)
H5A H 0.4195 0.9493 0.6153
O1A O 0.2485(4) 0.6911(4) 0.5720(4)
O2A O 0.4800(5) 0.7059(4) 0.5687(4)
C8A C 0.5507(7) 0.6278(5) 0.2439(6)
C9A C 0.5710(7) 0.7091(6) 0.0998(6)
C10A C 0.4789(8) 0.7140(6) 0.0260(6)
H6A H 0.4027 0.6657 0.0668
C11A C 0.4975(8) 0.7887(7) -0.1068(7)
H7A H 0.4361 0.7905 -0.1581
C12A C 0.6064(9) 0.8604(7) -0.1633(7)
H8A H 0.6175 0.9139 -0.2531
C13A C 0.6988(9) 0.8560(7) -0.0923(7)
H9A H 0.7741 0.9052 -0.1336
C14A C 0.6828(8) 0.7793(7) 0.0414(6)
H10A H 0.7471 0.7753 0.0909
O3A O 0.4255(5) 0.5894(4) 0.3024(4)
O4A O 0.6556(5) 0.6043(4) 0.2975(4)
Rh1A Rh 1.37748(7) 0.49306(5) 0.50266(6)
Rh1A_2 Rh 0.37748(7) 0.49306(5) 0.50266(6)
O1A_2 O 1.2485(4) 0.6911(4) 0.5720(4)
O2_2 O 1.5200(5) 0.2941(4) 0.4313(4)
O3A_2 O 1.4255(5) 0.5894(4) 0.3024(4)
O4_2 O 1.3444(5) 0.3957(4) 0.7025(4)
Rh1_2 Rh 1.62252(7) 0.50694(5) 0.49734(6)
O5 O 0.9428(9) 0.0063(16) 0.0053(11)
O5A O 1.0572(9) -0.0063(16) -0.0053(11)
O6 O 0.8844(19) 0.3922(15) -0.0167(15)
O7 O 0.842(3) 0.3526(16) 0.0785(12)
loop_
_geom_bond_atom_site_label_1
_geom_bond_atom_site_label_2
_geom_bond_site_symmetry_1
_geom_bond_site_symmetry_2
C1 C2 1_555 1_555
C2 C3 1_555 1_555
C3 H1 1_555 1_555
C4 C3 1_555 1_555
H2 C4 1_555 1_555
C5 C4 1_555 1_555
H3 C5 1_555 1_555
C6 C5 1_555 1_555
H4 C6 1_555 1_555
C7 C2 1_555 1_555
H5 C7 1_555 1_555
C8 C9 1_555 1_555
C9 C10 1_555 1_555
C10 H6 1_555 1_555
C11 C10 1_555 1_555
H7 C11 1_555 1_555
C12 C11 1_555 1_555
H8 C12 1_555 1_555
C13 C12 1_555 1_555
H9 C13 1_555 1_555
C14 C9 1_555 1_555
H10 C14 1_555 1_555
C15 H11 1_555 1_555
C16 C15 1_555 1_555
H12 C16 1_555 1_555
N1 C15 1_555 1_555
O1 C1 1_555 1_555
O2 C1 1_555 1_555
O3 C8 1_555 1_555
O4 C8 1_555 1_555
O5 O5A 1_555 1_555
O6 O7 1_555 1_555
Rh1 N1 1_555 1_555
N1A C16 1_555 1_555
C15A N1A 1_555 1_555
H11A C15A 1_555 1_555
C16A N1 1_555 1_555
H12A C16A 1_555 1_555
C1A C2A 1_555 1_555
C2A C3A 1_555 1_555
C3A H1A 1_555 1_555
C4A C3A 1_555 1_555
H2A C4A 1_555 1_555
C5A C4A 1_555 1_555
H3A C5A 1_555 1_555
C6A C5A 1_555 1_555
H4A C6A 1_555 1_555
C7A C2A 1_555 1_555
H5A C7A 1_555 1_555
O1A C1A 1_555 1_555
O2A Rh1 1_555 1_555
C8A C9A 1_555 1_555
C9A C10A 1_555 1_555
C10A H6A 1_555 1_555
C11A C10A 1_555 1_555
H7A C11A 1_555 1_555
C12A C11A 1_555 1_555
H8A C12A 1_555 1_555
C13A C12A 1_555 1_555
H9A C13A 1_555 1_555
C14A C9A 1_555 1_555
H10A C14A 1_555 1_555
O3A C8A 1_555 1_555
O4A Rh1 1_555 1_555
Rh1A N1A 1_555 1_555
Rh1A_2 O2 1_555 1_555
O1A_2 Rh1A 1_555 1_555
O2_2 Rh1A 1_555 1_555
O3A_2 Rh1A 1_555 1_555
O4_2 Rh1A 1_555 1_555
Rh1_2 Rh1A 1_555 1_555
C6 C7 1_555 1_555
C13 C14 1_555 1_555
O1 Rh1 1_555 1_555
O3 Rh1 1_555 1_555
O4 Rh1A_2 1_555 1_555
Rh1 Rh1A_2 1_555 1_555
C15A C16A 1_555 1_555
C1A O2A 1_555 1_555
C6A C7A 1_555 1_555
O1A Rh1A_2 1_555 1_555
C8A O4A 1_555 1_555
C13A C14A 1_555 1_555
O3A Rh1A_2 1_555 1_555

#END
