
#######################################################################
#
#                 Cambridge Crystallographic Data Centre
#                                CCDC 
#
#######################################################################
#
# If this CIF has been generated from an entry in the Cambridge 
# Structural Database, then it will include bibliographic, chemical, 
# crystal, experimental, refinement or atomic coordinate data resulting 
# from the CCDC's data processing and validation procedures.
#
#######################################################################

data_ITEVUY04
_symmetry_cell_setting           triclinic
_symmetry_space_group_name_H-M   'P -1'
_symmetry_Int_Tables_number      2
_space_group_name_Hall           '-P 1'
loop_
_symmetry_equiv_pos_site_id
_symmetry_equiv_pos_as_xyz
1 x,y,z
2 -x,-y,-z
_cell_length_a                   9.590(4)
_cell_length_b                   10.400(4)
_cell_length_c                   10.662(4)
_cell_angle_alpha                73.683(8)
_cell_angle_beta                 64.414(8)
_cell_angle_gamma                63.524(7)
_cell_volume                     853.354
loop_
_atom_site_label
_atom_site_type_symbol
_atom_site_fract_x
_atom_site_fract_y
_atom_site_fract_z
C1 C 0.6748(11) 0.2416(9) 0.4167(10)
C2 C 0.7728(11) 0.0913(10) 0.3799(10)
C3 C 0.9434(12) 0.0277(10) 0.3576(10)
H1 H 0.9968 0.0809 0.3667
C4 C 1.0347(13) -0.1125(11) 0.3224(11)
H2 H 1.1505 -0.1551 0.3073
C5 C 0.9578(13) -0.1909(11) 0.3092(11)
H3 H 1.0217 -0.2867 0.2843
C6 C 0.7917(13) -0.1321(10) 0.3316(11)
H4 H 0.7405 -0.1876 0.3230
C7 C 0.6955(12) 0.0097(10) 0.3673(10)
H5 H 0.5796 0.0505 0.3829
C8 C 0.4508(12) 0.3718(10) 0.7555(10)
C9 C 0.4286(13) 0.2906(11) 0.9003(11)
C10 C 0.5211(14) 0.2867(12) 0.9738(12)
H6 H 0.5978 0.3344 0.9328
C11 C 0.5004(15) 0.2132(13) 1.1067(13)
H7 H 0.5603 0.2125 1.1585
C12 C 0.3939(16) 0.1420(13) 1.1627(13)
H8 H 0.3823 0.0905 1.2534
C13 C 0.3032(15) 0.1420(13) 1.0935(13)
H9 H 0.2294 0.0914 1.1350
C14 C 0.3208(14) 0.2184(12) 0.9590(12)
H10 H 0.2584 0.2200 0.9091
C15 C 0.8509(11) 0.5707(10) 0.5904(10)
H11 H 0.7466 0.6253 0.6536
C16 C 0.9951(11) 0.5645(9) 0.5935(10)
H12 H 0.9883 0.6082 0.6642
N1 N 0.8542(9) 0.5011(9) 0.4998(9)
O1 O 0.7515(7) 0.3084(6) 0.4289(7)
O2 O 0.5203(7) 0.2936(6) 0.4331(7)
O3 O 0.5740(8) 0.4103(7) 0.6987(7)
O4 O 0.3439(8) 0.3938(7) 0.7027(7)
Rh1 Rh 0.62258(9) 0.50656(7) 0.49749(8)
C1A C 0.3252(11) 0.7584(9) 0.5833(10)
C2A C 0.2272(11) 0.9087(10) 0.6201(10)
C3A C 0.0566(12) 0.9723(10) 0.6424(10)
H1A H 0.0032 0.9191 0.6333
C4A C -0.0347(13) 1.1125(11) 0.6776(11)
H2A H -0.1505 1.1551 0.6927
C5A C 0.0422(13) 1.1909(11) 0.6908(11)
H3A H -0.0217 1.2867 0.7157
C6A C 0.2083(13) 1.1321(10) 0.6684(11)
H4A H 0.2595 1.1876 0.6770
C7A C 0.3045(12) 0.9903(10) 0.6327(10)
H5A H 0.4204 0.9495 0.6171
C8A C 0.5492(12) 0.6282(10) 0.2445(10)
C9A C 0.5714(13) 0.7094(11) 0.0997(11)
C10A C 0.4789(14) 0.7133(12) 0.0262(12)
H6A H 0.4022 0.6656 0.0672
C11A C 0.4996(15) 0.7868(13) -0.1067(13)
H7A H 0.4397 0.7875 -0.1585
C12A C 0.6061(16) 0.8580(13) -0.1627(13)
H8A H 0.6177 0.9095 -0.2534
C13A C 0.6968(15) 0.8580(13) -0.0935(13)
H9A H 0.7706 0.9086 -0.1350
C14A C 0.6792(14) 0.7816(12) 0.0410(12)
H10A H 0.7416 0.7800 0.0909
C15A C 1.1491(11) 0.4293(10) 0.4096(10)
H11A H 1.2534 0.3747 0.3464
C16A C 1.0049(11) 0.4355(9) 0.4065(10)
H12A H 1.0117 0.3918 0.3358
N1A N 1.1458(9) 0.4989(9) 0.5002(9)
N1A_2 N 0.1458(9) 0.4989(9) 0.5002(9)
O1A O 0.2485(7) 0.6916(6) 0.5711(7)
O2A O 0.4797(7) 0.7064(6) 0.5669(7)
O3A O 0.4260(8) 0.5897(7) 0.3013(7)
O4A O 0.6561(8) 0.6062(7) 0.2973(7)
Rh1A Rh 1.37742(9) 0.49344(7) 0.50251(8)
Rh1A_2 Rh 0.37742(9) 0.49344(7) 0.50251(8)
O5 O 0.9362(14) 0.0017(2) 0.0073(2)
O5A O 1.0638(14) -0.0017(2) -0.0073(2)
O6 O 0.906(3) 0.401(2) -0.019(2)
O7 O 0.824(3) 0.344(2) 0.069(2)
loop_
_geom_bond_atom_site_label_1
_geom_bond_atom_site_label_2
_geom_bond_site_symmetry_1
_geom_bond_site_symmetry_2
C1 C2 1_555 1_555
C2 C3 1_555 1_555
C3 H1 1_555 1_555
C4 C3 1_555 1_555
H2 C4 1_555 1_555
C5 C4 1_555 1_555
H3 C5 1_555 1_555
C6 C5 1_555 1_555
H4 C6 1_555 1_555
C7 C2 1_555 1_555
H5 C7 1_555 1_555
C8 C9 1_555 1_555
C9 C10 1_555 1_555
C10 H6 1_555 1_555
C11 C10 1_555 1_555
H7 C11 1_555 1_555
C12 C11 1_555 1_555
H8 C12 1_555 1_555
C13 C12 1_555 1_555
H9 C13 1_555 1_555
C14 C9 1_555 1_555
H10 C14 1_555 1_555
C15 H11 1_555 1_555
C16 C15 1_555 1_555
H12 C16 1_555 1_555
N1 C15 1_555 1_555
O1 C1 1_555 1_555
O2 C1 1_555 1_555
O3 C8 1_555 1_555
O4 C8 1_555 1_555
O5 O5A 1_555 1_555
O6 O7 1_555 1_555
Rh1 N1 1_555 1_555
C1A C2A 1_555 1_555
C2A C3A 1_555 1_555
C3A H1A 1_555 1_555
C4A C3A 1_555 1_555
H2A C4A 1_555 1_555
C5A C4A 1_555 1_555
H3A C5A 1_555 1_555
C6A C5A 1_555 1_555
H4A C6A 1_555 1_555
C7A C2A 1_555 1_555
H5A C7A 1_555 1_555
C8A C9A 1_555 1_555
C9A C10A 1_555 1_555
C10A H6A 1_555 1_555
C11A C10A 1_555 1_555
H7A C11A 1_555 1_555
C12A C11A 1_555 1_555
H8A C12A 1_555 1_555
C13A C12A 1_555 1_555
H9A C13A 1_555 1_555
C14A C9A 1_555 1_555
H10A C14A 1_555 1_555
C15A H11A 1_555 1_555
C16A N1 1_555 1_555
H12A C16A 1_555 1_555
N1A C16 1_555 1_555
N1A_2 Rh1A_2 1_555 1_555
O1A C1A 1_555 1_555
O2A Rh1 1_555 1_555
O3A C8A 1_555 1_555
O4A Rh1 1_555 1_555
Rh1A N1A 1_555 1_555
Rh1A_2 O2 1_555 1_555
C6 C7 1_555 1_555
C13 C14 1_555 1_555
O1 Rh1 1_555 1_555
O3 Rh1 1_555 1_555
O4 Rh1A_2 1_555 1_555
Rh1 Rh1A_2 1_555 1_555
C1A O2A 1_555 1_555
C6A C7A 1_555 1_555
C8A O4A 1_555 1_555
C13A C14A 1_555 1_555
C15A C16A 1_555 1_555
C15A N1A 1_555 1_555
O1A Rh1A_2 1_555 1_555
O3A Rh1A_2 1_555 1_555

#END
