
#######################################################################
#
#                 Cambridge Crystallographic Data Centre
#                                CCDC 
#
#######################################################################
#
# If this CIF has been generated from an entry in the Cambridge 
# Structural Database, then it will include bibliographic, chemical, 
# crystal, experimental, refinement or atomic coordinate data resulting 
# from the CCDC's data processing and validation procedures.
#
#######################################################################

data_ITEVUY
_symmetry_cell_setting           triclinic
_symmetry_space_group_name_H-M   'P -1'
_symmetry_Int_Tables_number      2
_space_group_name_Hall           '-P 1'
loop_
_symmetry_equiv_pos_site_id
_symmetry_equiv_pos_as_xyz
1 x,y,z
2 -x,-y,-z
_cell_length_a                   9.571(3)
_cell_length_b                   10.288(3)
_cell_length_c                   10.531(3)
_cell_angle_alpha                74.379(6)
_cell_angle_beta                 64.127(5)
_cell_angle_gamma                63.558(5)
_cell_volume                     831.78
loop_
_atom_site_label
_atom_site_type_symbol
_atom_site_fract_x
_atom_site_fract_y
_atom_site_fract_z
C1 C 0.4498(8) 0.3744(8) 0.2598(8)
C2 C 0.4302(9) 0.2930(8) 0.4020(8)
C3 C 0.3203(9) 0.2175(8) 0.4617(9)
H1 H 0.2574 0.2191 0.4117
C4 C 0.3051(10) 0.1407(9) 0.5946(9)
H2 H 0.2307 0.0903 0.6360
C5 C 0.3971(10) 0.1373(9) 0.6664(9)
H3 H 0.3868 0.0835 0.7566
C6 C 0.5043(9) 0.2113(9) 0.6088(9)
H4 H 0.5659 0.2100 0.6598
C7 C 0.5216(9) 0.2884(8) 0.4746(9)
H5 H 0.5971 0.3377 0.4337
C8 C 0.6752(8) 0.2382(8) -0.0834(8)
C9 C 0.7769(9) 0.0855(8) -0.1224(8)
C10 C 0.7006(9) 0.0019(8) -0.1350(8)
H6 H 0.5840 0.0423 -0.1180
C11 C 0.7971(10) -0.1393(8) -0.1722(9)
H7 H 0.7470 -0.1963 -0.1812
C12 C 0.9669(10) -0.1975(8) -0.1964(9)
H8 H 1.0329 -0.2941 -0.2231
C13 C 1.0411(9) -0.1177(8) -0.1824(9)
H9 H 1.1574 -0.1595 -0.1982
C14 C 0.9466(8) 0.0239(8) -0.1452(8)
H10 H 0.9983 0.0789 -0.1353
C15 C -0.0072(9) 0.5677(8) 0.0958(8)
H11 H -0.0164 0.6158 0.1661
C16 C -0.1500(9) 0.5748(8) 0.0889(8)
H12 H -0.2558 0.6304 0.1530
N1 N 0.1456(8) 0.4943(8) 0.0057(8)
O1 O 0.3411(6) 0.3979(6) 0.2064(6)
O2 O 0.5735(6) 0.4133(5) 0.1989(6)
O3 O 0.5217(6) 0.2892(5) -0.0660(6)
O4 O 0.7532(6) 0.3061(5) -0.0713(5)
Rh1 Rh 0.37690(8) 0.49269(7) 0.00344(7)
N1A N -0.1456(8) 0.5057(8) -0.0057(8)
C15A C 0.0072(9) 0.4323(8) -0.0958(8)
H11A H 0.0164 0.3842 -0.1661
C16A C 0.1500(9) 0.4252(8) -0.0889(8)
H12A H 0.2558 0.3696 -0.1530
C1A C 0.5502(8) 0.6256(8) -0.2598(8)
C2A C 0.5698(9) 0.7070(8) -0.4020(8)
C3A C 0.6797(9) 0.7825(8) -0.4617(9)
H1A H 0.7426 0.7809 -0.4117
C4A C 0.6949(10) 0.8593(9) -0.5946(9)
H2A H 0.7693 0.9097 -0.6360
C5A C 0.6029(10) 0.8627(9) -0.6664(9)
H3A H 0.6132 0.9165 -0.7566
C6A C 0.4957(9) 0.7887(9) -0.6088(9)
H4A H 0.4341 0.7900 -0.6598
C7A C 0.4784(9) 0.7116(8) -0.4746(9)
H5A H 0.4029 0.6623 -0.4337
O1A O 0.6589(6) 0.6021(6) -0.2064(6)
O2A O 0.4265(6) 0.5867(5) -0.1989(6)
C8A C 0.3248(8) 0.7618(8) 0.0834(8)
C9A C 0.2231(9) 0.9145(8) 0.1224(8)
C10A C 0.2994(9) 0.9981(8) 0.1350(8)
H6A H 0.4160 0.9577 0.1180
C11A C 0.2029(10) 1.1393(8) 0.1722(9)
H7A H 0.2530 1.1963 0.1812
C12A C 0.0331(10) 1.1975(8) 0.1964(9)
H8A H -0.0329 1.2941 0.2231
C13A C -0.0411(9) 1.1177(8) 0.1824(9)
H9A H -0.1574 1.1595 0.1982
C14A C 0.0534(8) 0.9761(8) 0.1452(8)
H10A H 0.0017 0.9211 0.1353
O3A O 0.4783(6) 0.7108(5) 0.0660(6)
O4A O 0.2468(6) 0.6939(5) 0.0713(5)
Rh1A Rh -0.37690(8) 0.50731(7) -0.00344(7)
Rh1A_2 Rh 0.62310(8) 0.50731(7) -0.00344(7)
O1A_2 O -0.3411(6) 0.6021(6) -0.2064(6)
O2_2 O -0.4265(6) 0.4133(5) 0.1989(6)
O3A_2 O -0.5217(6) 0.7108(5) 0.0660(6)
O4_2 O -0.2468(6) 0.3061(5) -0.0713(5)
Rh1_2 Rh -0.62310(8) 0.49269(7) 0.00344(7)
O5 O 0.9098(16) 0.3914(14) 0.5000(17)
O6 O 0.8149(16) 0.3398(15) 0.5747(17)
O7 O 0.075(8) 0.983(5) 0.491(8)
O7A O -0.075(8) 1.017(5) 0.509(8)
O8? O -0.047(8) 0.981(6) 0.497(8)
loop_
_geom_bond_atom_site_label_1
_geom_bond_atom_site_label_2
_geom_bond_site_symmetry_1
_geom_bond_site_symmetry_2
C1 C2 1_555 1_555
C2 C3 1_555 1_555
C3 H1 1_555 1_555
C4 C3 1_555 1_555
H2 C4 1_555 1_555
C5 C4 1_555 1_555
H3 C5 1_555 1_555
C6 C5 1_555 1_555
H4 C6 1_555 1_555
C7 C2 1_555 1_555
H5 C7 1_555 1_555
C8 C9 1_555 1_555
C9 C10 1_555 1_555
C10 H6 1_555 1_555
C11 C10 1_555 1_555
H7 C11 1_555 1_555
C12 C11 1_555 1_555
H8 C12 1_555 1_555
C13 C12 1_555 1_555
H9 C13 1_555 1_555
C14 C9 1_555 1_555
H10 C14 1_555 1_555
C15 H11 1_555 1_555
C16 C15 1_555 1_555
H12 C16 1_555 1_555
N1 C15 1_555 1_555
O1 C1 1_555 1_555
O2 C1 1_555 1_555
O3 C8 1_555 1_555
O4 C8 1_555 1_555
O5 O6 1_555 1_555
O7 O7A 1_555 1_555
Rh1 N1 1_555 1_555
N1A C16 1_555 1_555
C15A N1A 1_555 1_555
H11A C15A 1_555 1_555
C16A N1 1_555 1_555
H12A C16A 1_555 1_555
C1A C2A 1_555 1_555
C2A C3A 1_555 1_555
C3A H1A 1_555 1_555
C4A C3A 1_555 1_555
H2A C4A 1_555 1_555
C5A C4A 1_555 1_555
H3A C5A 1_555 1_555
C6A C5A 1_555 1_555
H4A C6A 1_555 1_555
C7A C2A 1_555 1_555
H5A C7A 1_555 1_555
O1A C1A 1_555 1_555
O2A Rh1 1_555 1_555
C8A C9A 1_555 1_555
C9A C10A 1_555 1_555
C10A H6A 1_555 1_555
C11A C10A 1_555 1_555
H7A C11A 1_555 1_555
C12A C11A 1_555 1_555
H8A C12A 1_555 1_555
C13A C12A 1_555 1_555
H9A C13A 1_555 1_555
C14A C9A 1_555 1_555
H10A C14A 1_555 1_555
O3A C8A 1_555 1_555
O4A Rh1 1_555 1_555
Rh1A N1A 1_555 1_555
Rh1A_2 O2 1_555 1_555
O1A_2 Rh1A 1_555 1_555
O2_2 Rh1A 1_555 1_555
O3A_2 Rh1A 1_555 1_555
O4_2 Rh1A 1_555 1_555
Rh1_2 Rh1A 1_555 1_555
C6 C7 1_555 1_555
C13 C14 1_555 1_555
O1 Rh1 1_555 1_555
O3 Rh1 1_555 1_555
O4 Rh1A_2 1_555 1_555
Rh1 Rh1A_2 1_555 1_555
C15A C16A 1_555 1_555
C1A O2A 1_555 1_555
C6A C7A 1_555 1_555
O1A Rh1A_2 1_555 1_555
C8A O4A 1_555 1_555
C13A C14A 1_555 1_555
O3A Rh1A_2 1_555 1_555

#END
