
#######################################################################
#
#                 Cambridge Crystallographic Data Centre
#                                CCDC 
#
#######################################################################
#
# If this CIF has been generated from an entry in the Cambridge 
# Structural Database, then it will include bibliographic, chemical, 
# crystal, experimental, refinement or atomic coordinate data resulting 
# from the CCDC's data processing and validation procedures.
#
#######################################################################

data_ITEVUY06
_symmetry_cell_setting           triclinic
_symmetry_space_group_name_H-M   'P -1'
_symmetry_Int_Tables_number      2
_space_group_name_Hall           '-P 1'
loop_
_symmetry_equiv_pos_site_id
_symmetry_equiv_pos_as_xyz
1 x,y,z
2 -x,-y,-z
_cell_length_a                   9.526(4)
_cell_length_b                   10.303(4)
_cell_length_c                   10.582(4)
_cell_angle_alpha                73.816(9)
_cell_angle_beta                 64.365(7)
_cell_angle_gamma                63.509(7)
_cell_volume                     833.298
loop_
_atom_site_label
_atom_site_type_symbol
_atom_site_fract_x
_atom_site_fract_y
_atom_site_fract_z
C1 C 0.6747(19) 0.2401(17) 0.4173(16)
C2 C 0.774(2) 0.0897(19) 0.3779(17)
C3 C 0.943(2) 0.0262(19) 0.3588(18)
H1 H 0.9958 0.0791 0.3713
C4 C 1.037(2) -0.116(2) 0.3212(19)
H2 H 1.1534 -0.1589 0.3062
C5 C 0.962(2) -0.192(2) 0.3062(18)
H3 H 1.0276 -0.2881 0.2788
C6 C 0.797(2) -0.136(2) 0.3292(18)
H4 H 0.7463 -0.1921 0.3195
C7 C 0.698(2) 0.006(2) 0.3673(18)
H5 H 0.5811 0.0453 0.3858
C8 C 0.453(2) 0.3719(19) 0.7543(18)
C9 C 0.430(2) 0.291(2) 0.9005(19)
C10 C 0.525(2) 0.287(2) 0.9742(19)
H6 H 0.6031 0.3332 0.9326
C11 C 0.502(2) 0.213(2) 1.108(2)
H7 H 0.5602 0.2131 1.1614
C12 C 0.398(2) 0.142(2) 1.163(2)
H8 H 0.3902 0.0871 1.2526
C13 C 0.301(2) 0.142(2) 1.097(2)
H9 H 0.2251 0.0932 1.1406
C14 C 0.322(2) 0.221(2) 0.958(2)
H10 H 0.2592 0.2228 0.9070
C15 C 0.851(2) 0.5734(19) 0.5908(18)
H11 H 0.7461 0.6293 0.6542
C16 C 0.993(2) 0.5659(18) 0.5960(17)
H12 H 0.9846 0.6105 0.6675
N1 N 0.8523(17) 0.5030(16) 0.4970(16)
O1 O 0.7521(12) 0.3077(12) 0.4296(11)
O2 O 0.5214(12) 0.2918(12) 0.4339(11)
O3 O 0.5736(13) 0.4103(12) 0.6975(11)
O4 O 0.3431(13) 0.3959(12) 0.7044(11)
Rh1 Rh 0.62304(17) 0.50655(16) 0.49704(16)
C1A C 0.3253(19) 0.7599(17) 0.5827(16)
C2A C 0.226(2) 0.9103(19) 0.6221(17)
C3A C 0.057(2) 0.9738(19) 0.6412(18)
H1A H 0.0042 0.9209 0.6287
C4A C -0.037(2) 1.116(2) 0.6788(19)
H2A H -0.1534 1.1589 0.6938
C5A C 0.038(2) 1.192(2) 0.6938(18)
H3A H -0.0276 1.2881 0.7212
C6A C 0.203(2) 1.136(2) 0.6708(18)
H4A H 0.2537 1.1921 0.6805
C7A C 0.302(2) 0.994(2) 0.6327(18)
H5A H 0.4189 0.9547 0.6142
C8A C 0.547(2) 0.6281(19) 0.2457(18)
C9A C 0.570(2) 0.709(2) 0.0995(19)
C10A C 0.475(2) 0.713(2) 0.0258(19)
H6A H 0.3969 0.6668 0.0674
C11A C 0.498(2) 0.787(2) -0.108(2)
H7A H 0.4398 0.7869 -0.1614
C12A C 0.602(2) 0.858(2) -0.163(2)
H8A H 0.6098 0.9129 -0.2526
C13A C 0.699(2) 0.858(2) -0.097(2)
H9A H 0.7749 0.9068 -0.1406
C14A C 0.678(2) 0.779(2) 0.042(2)
H10A H 0.7408 0.7772 0.0930
C15A C 1.149(2) 0.4266(19) 0.4092(18)
H11A H 1.2539 0.3707 0.3458
C16A C 1.007(2) 0.4341(18) 0.4040(17)
H12A H 1.0154 0.3895 0.3325
N1A N 1.1477(17) 0.4970(16) 0.5030(16)
N1A_2 N 0.1477(17) 0.4970(16) 0.5030(16)
O1A O 0.2479(12) 0.6923(12) 0.5704(11)
O2A O 0.4786(12) 0.7082(12) 0.5661(11)
O3A O 0.4264(13) 0.5897(12) 0.3025(11)
O4A O 0.6569(13) 0.6041(12) 0.2956(11)
Rh1A Rh 1.37696(17) 0.49345(16) 0.50296(16)
Rh1A_2 Rh 0.37696(17) 0.49345(16) 0.50296(16)
O5 O 1.060(2) 0.005(3) -0.005(3)
O5A O 0.940(2) -0.005(3) 0.005(3)
O6 O 0.900(4) 0.405(4) -0.021(4)
O7 O 0.834(4) 0.341(4) 0.076(4)
loop_
_geom_bond_atom_site_label_1
_geom_bond_atom_site_label_2
_geom_bond_site_symmetry_1
_geom_bond_site_symmetry_2
C1 C2 1_555 1_555
C2 C3 1_555 1_555
C3 H1 1_555 1_555
C4 C3 1_555 1_555
H2 C4 1_555 1_555
C5 C4 1_555 1_555
H3 C5 1_555 1_555
C6 C5 1_555 1_555
H4 C6 1_555 1_555
C7 C2 1_555 1_555
H5 C7 1_555 1_555
C8 C9 1_555 1_555
C9 C10 1_555 1_555
C10 H6 1_555 1_555
C11 C10 1_555 1_555
H7 C11 1_555 1_555
C12 C11 1_555 1_555
H8 C12 1_555 1_555
C13 C12 1_555 1_555
H9 C13 1_555 1_555
C14 C9 1_555 1_555
H10 C14 1_555 1_555
C15 H11 1_555 1_555
C16 C15 1_555 1_555
H12 C16 1_555 1_555
N1 C15 1_555 1_555
O1 C1 1_555 1_555
O2 C1 1_555 1_555
O3 C8 1_555 1_555
O4 C8 1_555 1_555
O5 O5A 1_555 1_555
O6 O7 1_555 1_555
Rh1 N1 1_555 1_555
C1A C2A 1_555 1_555
C2A C3A 1_555 1_555
C3A H1A 1_555 1_555
C4A C3A 1_555 1_555
H2A C4A 1_555 1_555
C5A C4A 1_555 1_555
H3A C5A 1_555 1_555
C6A C5A 1_555 1_555
H4A C6A 1_555 1_555
C7A C2A 1_555 1_555
H5A C7A 1_555 1_555
C8A C9A 1_555 1_555
C9A C10A 1_555 1_555
C10A H6A 1_555 1_555
C11A C10A 1_555 1_555
H7A C11A 1_555 1_555
C12A C11A 1_555 1_555
H8A C12A 1_555 1_555
C13A C12A 1_555 1_555
H9A C13A 1_555 1_555
C14A C9A 1_555 1_555
H10A C14A 1_555 1_555
C15A H11A 1_555 1_555
C16A N1 1_555 1_555
H12A C16A 1_555 1_555
N1A C16 1_555 1_555
N1A_2 Rh1A_2 1_555 1_555
O1A C1A 1_555 1_555
O2A Rh1 1_555 1_555
O3A C8A 1_555 1_555
O4A Rh1 1_555 1_555
Rh1A N1A 1_555 1_555
Rh1A_2 O2 1_555 1_555
C6 C7 1_555 1_555
C13 C14 1_555 1_555
O1 Rh1 1_555 1_555
O3 Rh1 1_555 1_555
O4 Rh1A_2 1_555 1_555
Rh1 Rh1A_2 1_555 1_555
C1A O2A 1_555 1_555
C6A C7A 1_555 1_555
C8A O4A 1_555 1_555
C13A C14A 1_555 1_555
C15A C16A 1_555 1_555
C15A N1A 1_555 1_555
O1A Rh1A_2 1_555 1_555
O3A Rh1A_2 1_555 1_555

#END
