
#######################################################################
#
#                 Cambridge Crystallographic Data Centre
#                                CCDC 
#
#######################################################################
#
# If this CIF has been generated from an entry in the Cambridge 
# Structural Database, then it will include bibliographic, chemical, 
# crystal, experimental, refinement or atomic coordinate data resulting 
# from the CCDC's data processing and validation procedures.
#
#######################################################################

data_ITEVUY02
_symmetry_cell_setting           triclinic
_symmetry_space_group_name_H-M   'P -1'
_symmetry_Int_Tables_number      2
_space_group_name_Hall           '-P 1'
loop_
_symmetry_equiv_pos_site_id
_symmetry_equiv_pos_as_xyz
1 x,y,z
2 -x,-y,-z
_cell_length_a                   9.577(5)
_cell_length_b                   10.375(5)
_cell_length_c                   10.732(5)
_cell_angle_alpha                72.994(10)
_cell_angle_beta                 64.540(10)
_cell_angle_gamma                63.238(9)
_cell_volume                     853.165
loop_
_atom_site_label
_atom_site_type_symbol
_atom_site_fract_x
_atom_site_fract_y
_atom_site_fract_z
C1 C 0.6728(15) 0.2415(13) 0.4183(13)
C2 C 0.7699(15) 0.0919(13) 0.3818(13)
C3 C 0.9387(16) 0.0284(14) 0.3590(14)
H1 H 0.9925 0.0806 0.3691
C4 C 1.0314(18) -0.1127(15) 0.3211(15)
H2 H 1.1476 -0.1570 0.3059
C5 C 0.9522(18) -0.1846(15) 0.3067(15)
H3 H 1.0154 -0.2792 0.2784
C6 C 0.7870(17) -0.1267(14) 0.3310(15)
H4 H 0.7348 -0.1817 0.3235
C7 C 0.6926(17) 0.0143(14) 0.3673(14)
H5 H 0.5767 0.0567 0.3819
C8 C 0.4494(16) 0.3717(14) 0.7525(14)
C9 C 0.4275(18) 0.2905(15) 0.8997(16)
C10 C 0.5188(19) 0.2875(17) 0.9706(17)
H6 H 0.5945 0.3364 0.9292
C11 C 0.499(2) 0.2113(18) 1.1058(18)
H7 H 0.5610 0.2075 1.1571
C12 C 0.393(2) 0.1458(18) 1.1579(19)
H8 H 0.3823 0.0944 1.2487
C13 C 0.299(2) 0.1442(18) 1.0960(18)
H9 H 0.2235 0.0950 1.1401
C14 C 0.3196(19) 0.2217(16) 0.9585(17)
H10 H 0.2567 0.2245 0.9085
C15 C 0.8532(15) 0.5715(12) 0.5889(13)
H11 H 0.7484 0.6287 0.6485
C16 C 1.0037(15) 0.4354(12) 0.4091(14)
H12 H 1.0094 0.3947 0.3376
N1 N 0.8611(14) 0.4941(13) 0.4986(13)
O1 O 0.7515(9) 0.3083(8) 0.4309(9)
O2 O 0.5185(10) 0.2948(8) 0.4347(9)
O3 O 0.5742(10) 0.4093(9) 0.6977(9)
O4 O 0.6602(11) 0.6032(9) 0.2969(9)
Rh1 Rh 0.62250(15) 0.50580(12) 0.49772(14)
C1A C 0.3272(15) 0.7585(13) 0.5817(13)
C2A C 0.2301(15) 0.9081(13) 0.6182(13)
C3A C 0.0613(16) 0.9716(14) 0.6410(14)
H1A H 0.0075 0.9194 0.6309
C4A C -0.0314(18) 1.1127(15) 0.6789(15)
H2A H -0.1476 1.1570 0.6941
C5A C 0.0478(18) 1.1846(15) 0.6933(15)
H3A H -0.0154 1.2792 0.7216
C6A C 0.2130(17) 1.1267(14) 0.6690(15)
H4A H 0.2652 1.1817 0.6765
C7A C 0.3074(17) 0.9857(14) 0.6327(14)
H5A H 0.4233 0.9433 0.6181
C8A C 0.5506(16) 0.6283(14) 0.2475(14)
C9A C 0.5725(18) 0.7095(15) 0.1003(16)
C10A C 0.4812(19) 0.7125(17) 0.0294(17)
H6A H 0.4055 0.6636 0.0708
C11A C 0.501(2) 0.7887(18) -0.1058(18)
H7A H 0.4390 0.7925 -0.1571
C12A C 0.607(2) 0.8542(18) -0.1579(19)
H8A H 0.6177 0.9056 -0.2487
C13A C 0.701(2) 0.8558(18) -0.0960(18)
H9A H 0.7765 0.9050 -0.1401
C14A C 0.6804(19) 0.7783(16) 0.0415(17)
H10A H 0.7433 0.7755 0.0915
C15A C 1.1468(15) 0.4285(12) 0.4111(13)
H11A H 1.2516 0.3713 0.3515
C16A C 0.9963(15) 0.5646(12) 0.5909(14)
H12A H 0.9906 0.6053 0.6624
N1A N 1.1389(14) 0.5059(13) 0.5014(13)
N1A_2 N 0.1389(14) 0.5059(13) 0.5014(13)
O1A O 0.2485(9) 0.6917(8) 0.5691(9)
O2A O 0.4815(10) 0.7052(8) 0.5653(9)
O3A O 0.4258(10) 0.5907(9) 0.3023(9)
O4A O 0.3398(11) 0.3968(9) 0.7031(9)
Rh1A Rh 0.37750(15) 0.49420(12) 0.50228(14)
Rh1A_2 Rh 1.37750(15) 0.49420(12) 0.50228(14)
O5 O 0.931(2) 0.031(9) 0.006(7)
O5A O 1.069(2) -0.031(9) -0.006(7)
O6 O 0.894(5) 0.392(4) -0.024(3)
O7 O 0.831(5) 0.338(4) 0.082(3)
loop_
_geom_bond_atom_site_label_1
_geom_bond_atom_site_label_2
_geom_bond_site_symmetry_1
_geom_bond_site_symmetry_2
C1 C2 1_555 1_555
C2 C3 1_555 1_555
C3 H1 1_555 1_555
C4 C3 1_555 1_555
H2 C4 1_555 1_555
C5 C4 1_555 1_555
H3 C5 1_555 1_555
C6 C5 1_555 1_555
H4 C6 1_555 1_555
C7 C2 1_555 1_555
H5 C7 1_555 1_555
C8 C9 1_555 1_555
C9 C10 1_555 1_555
C10 H6 1_555 1_555
C11 C10 1_555 1_555
H7 C11 1_555 1_555
C12 C11 1_555 1_555
H8 C12 1_555 1_555
C13 C12 1_555 1_555
H9 C13 1_555 1_555
C14 C9 1_555 1_555
H10 C14 1_555 1_555
C15 H11 1_555 1_555
C16 H12 1_555 1_555
N1 C15 1_555 1_555
O1 C1 1_555 1_555
O2 C1 1_555 1_555
O3 C8 1_555 1_555
O4 Rh1 1_555 1_555
O5 O5A 1_555 1_555
O6 O7 1_555 1_555
Rh1 N1 1_555 1_555
C1A C2A 1_555 1_555
C2A C3A 1_555 1_555
C3A H1A 1_555 1_555
C4A C3A 1_555 1_555
H2A C4A 1_555 1_555
C5A C4A 1_555 1_555
H3A C5A 1_555 1_555
C6A C5A 1_555 1_555
H4A C6A 1_555 1_555
C7A C2A 1_555 1_555
H5A C7A 1_555 1_555
C8A O4 1_555 1_555
C9A C8A 1_555 1_555
C10A C9A 1_555 1_555
H6A C10A 1_555 1_555
C11A C10A 1_555 1_555
H7A C11A 1_555 1_555
C12A C11A 1_555 1_555
H8A C12A 1_555 1_555
C13A C12A 1_555 1_555
H9A C13A 1_555 1_555
C14A C9A 1_555 1_555
H10A C14A 1_555 1_555
C15A C16 1_555 1_555
H11A C15A 1_555 1_555
C16A C15 1_555 1_555
H12A C16A 1_555 1_555
N1A C15A 1_555 1_555
N1A_2 Rh1A 1_555 1_555
O1A C1A 1_555 1_555
O2A Rh1 1_555 1_555
O3A C8A 1_555 1_555
O4A C8 1_555 1_555
Rh1A O2 1_555 1_555
Rh1A_2 N1A 1_555 1_555
C6 C7 1_555 1_555
C13 C14 1_555 1_555
C16 N1 1_555 1_555
O1 Rh1 1_555 1_555
O3 Rh1 1_555 1_555
Rh1 Rh1A 1_555 1_555
C1A O2A 1_555 1_555
C6A C7A 1_555 1_555
C13A C14A 1_555 1_555
C16A N1A 1_555 1_555
O1A Rh1A 1_555 1_555
O3A Rh1A 1_555 1_555
O4A Rh1A 1_555 1_555

#END
