
#######################################################################
#
#                 Cambridge Crystallographic Data Centre
#                                CCDC 
#
#######################################################################
#
# If this CIF has been generated from an entry in the Cambridge 
# Structural Database, then it will include bibliographic, chemical, 
# crystal, experimental, refinement or atomic coordinate data resulting 
# from the CCDC's data processing and validation procedures.
#
#######################################################################

data_ITEVUY07
_symmetry_cell_setting           triclinic
_symmetry_space_group_name_H-M   'P -1'
_symmetry_Int_Tables_number      2
_space_group_name_Hall           '-P 1'
loop_
_symmetry_equiv_pos_site_id
_symmetry_equiv_pos_as_xyz
1 x,y,z
2 -x,-y,-z
_cell_length_a                   9.563(2)
_cell_length_b                   10.323(2)
_cell_length_c                   10.508(2)
_cell_angle_alpha                74.815(4)
_cell_angle_beta                 64.134(4)
_cell_angle_gamma                63.786(4)
_cell_volume                     834.328
loop_
_atom_site_label
_atom_site_type_symbol
_atom_site_fract_x
_atom_site_fract_y
_atom_site_fract_z
C1 C 0.6767(6) 0.2401(6) 0.4145(6)
C2 C 0.7767(7) 0.0869(6) 0.3777(6)
C3 C 0.9487(7) 0.0252(6) 0.3549(6)
H1 H 1.0005 0.0811 0.3633
C4 C 1.0430(7) -0.1172(6) 0.3202(6)
H2 H 1.1588 -0.1595 0.3062
C5 C 0.9665(7) -0.1972(6) 0.3061(6)
H3 H 1.0316 -0.2934 0.2789
C6 C 0.7952(8) -0.1379(6) 0.3315(6)
H4 H 0.7432 -0.1947 0.3250
C7 C 0.7012(7) 0.0044(6) 0.3662(6)
H5 H 0.5849 0.0456 0.3821
C8 C 0.4495(7) 0.3741(6) 0.7592(6)
C9 C 0.4290(7) 0.2928(6) 0.9016(6)
C10 C 0.5215(7) 0.2882(6) 0.9768(6)
H6 H 0.5953 0.3390 0.9384
C11 C 0.5043(7) 0.2090(6) 1.1078(6)
H7 H 0.5677 0.2047 1.1587
C12 C 0.3955(8) 0.1359(6) 1.1652(7)
H8 H 0.3840 0.0823 1.2553
C13 C 0.3041(8) 0.1414(7) 1.0911(7)
H9 H 0.2309 0.0901 1.1299
C14 C 0.3178(7) 0.2207(6) 0.9609(6)
H10 H 0.2518 0.2261 0.9120
C15 C 0.8490(7) 0.5753(5) 0.5904(6)
H11 H 0.7433 0.6289 0.6563
C16 C 0.9955(6) 0.5650(6) 0.5977(6)
H12 H 0.9886 0.6126 0.6675
N1 N 0.8545(6) 0.5111(5) 0.4924(5)
O1 O 0.7538(4) 0.3064(4) 0.4265(4)
O2 O 0.5212(5) 0.2904(4) 0.4339(4)
O3 O 0.5742(5) 0.4139(4) 0.6987(4)
O4 O 0.3425(5) 0.3969(4) 0.7063(4)
Rh1 Rh 0.62301(6) 0.50763(5) 0.49628(5)
C1A C 0.3233(6) 0.7599(6) 0.5855(6)
C2A C 0.2233(7) 0.9131(6) 0.6223(6)
C3A C 0.0513(7) 0.9748(6) 0.6451(6)
H1A H -0.0005 0.9189 0.6367
C4A C -0.0430(7) 1.1172(6) 0.6798(6)
H2A H -0.1588 1.1595 0.6938
C5A C 0.0335(7) 1.1972(6) 0.6939(6)
H3A H -0.0316 1.2934 0.7211
C6A C 0.2048(8) 1.1379(6) 0.6685(6)
H4A H 0.2568 1.1947 0.6750
C7A C 0.2988(7) 0.9956(6) 0.6338(6)
H5A H 0.4151 0.9544 0.6179
C8A C 0.5505(7) 0.6259(6) 0.2408(6)
C9A C 0.5710(7) 0.7072(6) 0.0984(6)
C10A C 0.4785(7) 0.7118(6) 0.0232(6)
H6A H 0.4047 0.6610 0.0616
C11A C 0.4957(7) 0.7910(6) -0.1078(6)
H7A H 0.4323 0.7953 -0.1587
C12A C 0.6045(8) 0.8641(6) -0.1652(7)
H8A H 0.6160 0.9177 -0.2553
C13A C 0.6959(8) 0.8586(7) -0.0911(7)
H9A H 0.7691 0.9099 -0.1299
C14A C 0.6822(7) 0.7793(6) 0.0391(6)
H10A H 0.7482 0.7739 0.0880
C15A C 1.1510(7) 0.4247(5) 0.4096(6)
H11A H 1.2567 0.3711 0.3437
C16A C 1.0045(6) 0.4350(6) 0.4023(6)
H12A H 1.0114 0.3874 0.3325
N1A N 1.1455(6) 0.4889(5) 0.5076(5)
N1A_2 N 0.1455(6) 0.4889(5) 0.5076(5)
O1A O 0.2462(4) 0.6936(4) 0.5735(4)
O2A O 0.4788(5) 0.7096(4) 0.5661(4)
O3A O 0.4258(5) 0.5861(4) 0.3013(4)
O4A O 0.6575(5) 0.6031(4) 0.2937(4)
Rh1A Rh 1.37699(6) 0.49237(5) 0.50372(5)
Rh1A_2 Rh 0.37699(6) 0.49237(5) 0.50372(5)
O5 O 0.9368(5) 0.0018(8) 0.0057(7)
O5A O 1.0632(5) -0.0018(8) -0.0057(7)
O6 O 0.9015(11) 0.3983(8) -0.0174(9)
O7 O 0.8290(11) 0.3397(8) 0.0796(9)
loop_
_geom_bond_atom_site_label_1
_geom_bond_atom_site_label_2
_geom_bond_site_symmetry_1
_geom_bond_site_symmetry_2
C1 C2 1_555 1_555
C2 C3 1_555 1_555
C3 H1 1_555 1_555
C4 C3 1_555 1_555
H2 C4 1_555 1_555
C5 C4 1_555 1_555
H3 C5 1_555 1_555
C6 C5 1_555 1_555
H4 C6 1_555 1_555
C7 C2 1_555 1_555
H5 C7 1_555 1_555
C8 C9 1_555 1_555
C9 C10 1_555 1_555
C10 H6 1_555 1_555
C11 C10 1_555 1_555
H7 C11 1_555 1_555
C12 C11 1_555 1_555
H8 C12 1_555 1_555
C13 C12 1_555 1_555
H9 C13 1_555 1_555
C14 C9 1_555 1_555
H10 C14 1_555 1_555
C15 H11 1_555 1_555
C16 C15 1_555 1_555
H12 C16 1_555 1_555
N1 C15 1_555 1_555
O1 C1 1_555 1_555
O2 C1 1_555 1_555
O3 C8 1_555 1_555
O4 C8 1_555 1_555
O5 O5A 1_555 1_555
O6 O7 1_555 1_555
Rh1 N1 1_555 1_555
C1A C2A 1_555 1_555
C2A C3A 1_555 1_555
C3A H1A 1_555 1_555
C4A C3A 1_555 1_555
H2A C4A 1_555 1_555
C5A C4A 1_555 1_555
H3A C5A 1_555 1_555
C6A C5A 1_555 1_555
H4A C6A 1_555 1_555
C7A C2A 1_555 1_555
H5A C7A 1_555 1_555
C8A C9A 1_555 1_555
C9A C10A 1_555 1_555
C10A H6A 1_555 1_555
C11A C10A 1_555 1_555
H7A C11A 1_555 1_555
C12A C11A 1_555 1_555
H8A C12A 1_555 1_555
C13A C12A 1_555 1_555
H9A C13A 1_555 1_555
C14A C9A 1_555 1_555
H10A C14A 1_555 1_555
C15A H11A 1_555 1_555
C16A N1 1_555 1_555
H12A C16A 1_555 1_555
N1A C16 1_555 1_555
N1A_2 Rh1A_2 1_555 1_555
O1A C1A 1_555 1_555
O2A Rh1 1_555 1_555
O3A C8A 1_555 1_555
O4A Rh1 1_555 1_555
Rh1A N1A 1_555 1_555
Rh1A_2 O2 1_555 1_555
C6 C7 1_555 1_555
C13 C14 1_555 1_555
O1 Rh1 1_555 1_555
O3 Rh1 1_555 1_555
O4 Rh1A_2 1_555 1_555
Rh1 Rh1A_2 1_555 1_555
C1A O2A 1_555 1_555
C6A C7A 1_555 1_555
C8A O4A 1_555 1_555
C13A C14A 1_555 1_555
C15A C16A 1_555 1_555
C15A N1A 1_555 1_555
O1A Rh1A_2 1_555 1_555
O3A Rh1A_2 1_555 1_555

#END
