
#######################################################################
#
#                 Cambridge Crystallographic Data Centre
#                                CCDC 
#
#######################################################################
#
# If this CIF has been generated from an entry in the Cambridge 
# Structural Database, then it will include bibliographic, chemical, 
# crystal, experimental, refinement or atomic coordinate data resulting 
# from the CCDC's data processing and validation procedures.
#
#######################################################################

data_ITEVUY05
_symmetry_cell_setting           triclinic
_symmetry_space_group_name_H-M   'P -1'
_symmetry_Int_Tables_number      2
_space_group_name_Hall           '-P 1'
loop_
_symmetry_equiv_pos_site_id
_symmetry_equiv_pos_as_xyz
1 x,y,z
2 -x,-y,-z
_cell_length_a                   9.572(4)
_cell_length_b                   10.344(4)
_cell_length_c                   10.624(4)
_cell_angle_alpha                73.647(8)
_cell_angle_beta                 64.336(9)
_cell_angle_gamma                63.412(7)
_cell_volume                     842.837
loop_
_atom_site_label
_atom_site_type_symbol
_atom_site_fract_x
_atom_site_fract_y
_atom_site_fract_z
C1 C 0.6748(13) 0.2381(11) 0.4174(11)
C2 C 0.7743(13) 0.0885(11) 0.3789(11)
C3 C 0.9436(14) 0.0264(12) 0.3571(12)
H1 H 0.9963 0.0799 0.3673
C4 C 1.0353(15) -0.1139(13) 0.3203(13)
H2 H 1.1513 -0.1570 0.3056
C5 C 0.9605(15) -0.1908(13) 0.3049(13)
H3 H 1.0263 -0.2860 0.2768
C6 C 0.7924(14) -0.1342(12) 0.3290(12)
H4 H 0.7417 -0.1904 0.3203
C7 C 0.6965(14) 0.0078(12) 0.3665(12)
H5 H 0.5799 0.0491 0.3834
C8 C 0.4494(14) 0.3727(12) 0.7555(12)
C9 C 0.4292(15) 0.2915(13) 0.9008(13)
C10 C 0.5208(16) 0.2860(14) 0.9765(14)
H6 H 0.5967 0.3347 0.9362
C11 C 0.5025(17) 0.2114(15) 1.1082(15)
H7 H 0.5630 0.2099 1.1600
C12 C 0.3951(17) 0.1391(15) 1.1633(15)
H8 H 0.3845 0.0856 1.2536
C13 C 0.3036(17) 0.1407(15) 1.0948(15)
H9 H 0.2294 0.0902 1.1367
C14 C 0.3199(16) 0.2184(14) 0.9605(14)
H10 H 0.2566 0.2209 0.9108
C15 C 0.8508(13) 0.5730(12) 0.5885(12)
H11 H 0.7459 0.6324 0.6480
C16 C 0.9957(13) 0.5660(11) 0.5927(12)
H12 H 0.9886 0.6078 0.6653
N1 N 0.8546(11) 0.4973(10) 0.5015(11)
O1 O 0.7529(8) 0.3068(7) 0.4291(8)
O2 O 0.5215(8) 0.2914(7) 0.4334(7)
O3 O 0.5720(9) 0.4114(8) 0.6992(8)
O4 O 0.3432(9) 0.3943(8) 0.7040(8)
Rh1 Rh 0.62255(11) 0.50669(9) 0.49742(10)
C1A C 0.3252(13) 0.7619(11) 0.5826(11)
C2A C 0.2257(13) 0.9115(11) 0.6211(11)
C3A C 0.0564(14) 0.9736(12) 0.6429(12)
H1A H 0.0037 0.9201 0.6327
C4A C -0.0353(15) 1.1139(13) 0.6797(13)
H2A H -0.1513 1.1570 0.6944
C5A C 0.0395(15) 1.1908(13) 0.6951(13)
H3A H -0.0263 1.2860 0.7232
C6A C 0.2076(14) 1.1342(12) 0.6710(12)
H4A H 0.2583 1.1904 0.6797
C7A C 0.3035(14) 0.9922(12) 0.6335(12)
H5A H 0.4201 0.9509 0.6166
C8A C 0.5506(14) 0.6273(12) 0.2445(12)
C9A C 0.5708(15) 0.7085(13) 0.0992(13)
C10A C 0.4792(16) 0.7140(14) 0.0235(14)
H6A H 0.4033 0.6653 0.0638
C11A C 0.4975(17) 0.7886(15) -0.1082(15)
H7A H 0.4370 0.7901 -0.1600
C12A C 0.6049(17) 0.8609(15) -0.1633(15)
H8A H 0.6155 0.9144 -0.2536
C13A C 0.6964(17) 0.8593(15) -0.0948(15)
H9A H 0.7706 0.9098 -0.1367
C14A C 0.6801(16) 0.7816(14) 0.0395(14)
H10A H 0.7434 0.7791 0.0892
C15A C 1.1492(13) 0.4270(12) 0.4115(12)
H11A H 1.2541 0.3676 0.3520
C16A C 1.0043(13) 0.4340(11) 0.4073(12)
H12A H 1.0114 0.3922 0.3347
N1A N 1.1454(11) 0.5027(10) 0.4985(11)
N1A_2 N 0.1454(11) 0.5027(10) 0.4985(11)
O1A O 0.2471(8) 0.6932(7) 0.5709(8)
O2A O 0.4785(8) 0.7086(7) 0.5666(7)
O3A O 0.4280(9) 0.5886(8) 0.3008(8)
O4A O 0.6568(9) 0.6057(8) 0.2960(8)
Rh1A Rh 1.37745(11) 0.49331(9) 0.50258(10)
Rh1A_2 Rh 0.37745(11) 0.49331(9) 0.50258(10)
O5 O 0.93600(17) 0.002(3) 0.0071(3)
O5A O 1.06400(17) -0.002(3) -0.0071(3)
O6 O 0.836(4) 0.336(3) 0.079(2)
O7 O 0.896(4) 0.398(3) -0.023(2)
loop_
_geom_bond_atom_site_label_1
_geom_bond_atom_site_label_2
_geom_bond_site_symmetry_1
_geom_bond_site_symmetry_2
C1 C2 1_555 1_555
C2 C3 1_555 1_555
C3 H1 1_555 1_555
C4 C3 1_555 1_555
H2 C4 1_555 1_555
C5 C4 1_555 1_555
H3 C5 1_555 1_555
C6 C5 1_555 1_555
H4 C6 1_555 1_555
C7 C2 1_555 1_555
H5 C7 1_555 1_555
C8 C9 1_555 1_555
C9 C10 1_555 1_555
C10 H6 1_555 1_555
C11 C10 1_555 1_555
H7 C11 1_555 1_555
C12 C11 1_555 1_555
H8 C12 1_555 1_555
C13 C12 1_555 1_555
H9 C13 1_555 1_555
C14 C9 1_555 1_555
H10 C14 1_555 1_555
C15 H11 1_555 1_555
C16 C15 1_555 1_555
H12 C16 1_555 1_555
N1 C15 1_555 1_555
O1 C1 1_555 1_555
O2 C1 1_555 1_555
O3 C8 1_555 1_555
O4 C8 1_555 1_555
O5 O5A 1_555 1_555
O6 O7 1_555 1_555
Rh1 N1 1_555 1_555
C1A C2A 1_555 1_555
C2A C3A 1_555 1_555
C3A H1A 1_555 1_555
C4A C3A 1_555 1_555
H2A C4A 1_555 1_555
C5A C4A 1_555 1_555
H3A C5A 1_555 1_555
C6A C5A 1_555 1_555
H4A C6A 1_555 1_555
C7A C2A 1_555 1_555
H5A C7A 1_555 1_555
C8A C9A 1_555 1_555
C9A C10A 1_555 1_555
C10A H6A 1_555 1_555
C11A C10A 1_555 1_555
H7A C11A 1_555 1_555
C12A C11A 1_555 1_555
H8A C12A 1_555 1_555
C13A C12A 1_555 1_555
H9A C13A 1_555 1_555
C14A C9A 1_555 1_555
H10A C14A 1_555 1_555
C15A H11A 1_555 1_555
C16A N1 1_555 1_555
H12A C16A 1_555 1_555
N1A C16 1_555 1_555
N1A_2 Rh1A_2 1_555 1_555
O1A C1A 1_555 1_555
O2A Rh1 1_555 1_555
O3A C8A 1_555 1_555
O4A Rh1 1_555 1_555
Rh1A N1A 1_555 1_555
Rh1A_2 O2 1_555 1_555
C6 C7 1_555 1_555
C13 C14 1_555 1_555
O1 Rh1 1_555 1_555
O3 Rh1 1_555 1_555
O4 Rh1A_2 1_555 1_555
Rh1 Rh1A_2 1_555 1_555
C1A O2A 1_555 1_555
C6A C7A 1_555 1_555
C8A O4A 1_555 1_555
C13A C14A 1_555 1_555
C15A C16A 1_555 1_555
C15A N1A 1_555 1_555
O1A Rh1A_2 1_555 1_555
O3A Rh1A_2 1_555 1_555

#END
