
#######################################################################
#
#                 Cambridge Crystallographic Data Centre
#                                CCDC 
#
#######################################################################
#
# If this CIF has been generated from an entry in the Cambridge 
# Structural Database, then it will include bibliographic, chemical, 
# crystal, experimental, refinement or atomic coordinate data resulting 
# from the CCDC's data processing and validation procedures.
#
#######################################################################

data_ITEVUY08
_symmetry_cell_setting           triclinic
_symmetry_space_group_name_H-M   'P -1'
_symmetry_Int_Tables_number      2
_space_group_name_Hall           '-P 1'
loop_
_symmetry_equiv_pos_site_id
_symmetry_equiv_pos_as_xyz
1 x,y,z
2 -x,-y,-z
_cell_length_a                   9.5572(19)
_cell_length_b                   10.297(2)
_cell_length_c                   10.488(2)
_cell_angle_alpha                74.913(4)
_cell_angle_beta                 64.108(4)
_cell_angle_gamma                63.757(4)
_cell_volume                     829.924
loop_
_atom_site_label
_atom_site_type_symbol
_atom_site_fract_x
_atom_site_fract_y
_atom_site_fract_z
C1 C 0.6768(8) 0.2385(7) 0.4158(7)
C2 C 0.7795(8) 0.0858(7) 0.3768(7)
C3 C 0.9491(8) 0.0233(7) 0.3545(7)
H1 H 1.0015 0.0788 0.3628
C4 C 1.0435(9) -0.1201(7) 0.3201(7)
H2 H 1.1591 -0.1635 0.3072
C5 C 0.9664(8) -0.1980(7) 0.3050(7)
H3 H 1.0312 -0.2943 0.2770
C6 C 0.7971(8) -0.1388(7) 0.3299(7)
H4 H 0.7462 -0.1957 0.3217
C7 C 0.7005(9) 0.0026(7) 0.3666(7)
H5 H 0.5836 0.0430 0.3847
C8 C 0.4504(8) 0.3743(7) 0.7582(7)
C9 C 0.4291(8) 0.2939(7) 0.9010(7)
C10 C 0.5219(8) 0.2875(7) 0.9764(7)
H6 H 0.5971 0.3369 0.9377
C11 C 0.5041(9) 0.2089(7) 1.1076(7)
H7 H 0.5682 0.2044 1.1581
C12 C 0.3928(9) 0.1359(7) 1.1674(8)
H8 H 0.3803 0.0827 1.2578
C13 C 0.3032(9) 0.1433(7) 1.0924(7)
H9 H 0.2282 0.0936 1.1319
C14 C 0.3175(8) 0.2206(7) 0.9610(7)
H10 H 0.2526 0.2243 0.9117
C15 C 0.8503(8) 0.5757(6) 0.5904(7)
H11 H 0.7438 0.6265 0.6577
C16 C 0.9942(7) 0.5681(6) 0.5970(7)
H12 H 0.9883 0.6199 0.6633
N1 N 0.8591(7) 0.5126(6) 0.4908(6)
O1 O 0.7538(5) 0.3056(5) 0.4271(5)
O2 O 0.5208(5) 0.2898(5) 0.4338(5)
O3 O 0.5742(5) 0.4136(5) 0.6997(5)
O4 O 0.3417(5) 0.3981(5) 0.7062(5)
Rh1 Rh 0.62286(7) 0.50764(6) 0.49629(7)
C1A C 0.3232(8) 0.7615(7) 0.5842(7)
C2A C 0.2205(8) 0.9142(7) 0.6232(7)
C3A C 0.0509(8) 0.9767(7) 0.6455(7)
H1A H -0.0015 0.9212 0.6372
C4A C -0.0435(9) 1.1201(7) 0.6799(7)
H2A H -0.1591 1.1635 0.6928
C5A C 0.0336(8) 1.1980(7) 0.6950(7)
H3A H -0.0312 1.2943 0.7230
C6A C 0.2029(8) 1.1388(7) 0.6701(7)
H4A H 0.2538 1.1957 0.6783
C7A C 0.2995(9) 0.9974(7) 0.6334(7)
H5A H 0.4164 0.9570 0.6153
C8A C 0.5496(8) 0.6257(7) 0.2418(7)
C9A C 0.5709(8) 0.7061(7) 0.0990(7)
C10A C 0.4781(8) 0.7125(7) 0.0236(7)
H6A H 0.4029 0.6631 0.0623
C11A C 0.4959(9) 0.7911(7) -0.1076(7)
H7A H 0.4318 0.7956 -0.1581
C12A C 0.6072(9) 0.8641(7) -0.1674(8)
H8A H 0.6197 0.9173 -0.2578
C13A C 0.6968(9) 0.8567(7) -0.0924(7)
H9A H 0.7718 0.9064 -0.1319
C14A C 0.6825(8) 0.7794(7) 0.0390(7)
H10A H 0.7474 0.7757 0.0883
C15A C 1.1497(8) 0.4243(6) 0.4096(7)
H11A H 1.2562 0.3735 0.3423
C16A C 1.0058(7) 0.4319(6) 0.4030(7)
H12A H 1.0117 0.3801 0.3367
N1A N 1.1409(7) 0.4874(6) 0.5092(6)
N1A_2 N 0.1409(7) 0.4874(6) 0.5092(6)
O1A O 0.2462(5) 0.6944(5) 0.5729(5)
O2A O 0.4792(5) 0.7102(5) 0.5662(5)
O3A O 0.4258(5) 0.5864(5) 0.3003(5)
O4A O 0.6583(5) 0.6019(5) 0.2938(5)
Rh1A Rh 1.37714(7) 0.49236(6) 0.50371(7)
Rh1A_2 Rh 0.37714(7) 0.49236(6) 0.50371(7)
O5 O 0.9359(5) 0.0038(8) 0.0057(7)
O5A O 1.0641(5) -0.0038(8) -0.0057(7)
O6 O 0.9046(12) 0.3905(9) -0.0068(10)
O7 O 0.8171(12) 0.3372(9) 0.0797(10)
loop_
_geom_bond_atom_site_label_1
_geom_bond_atom_site_label_2
_geom_bond_site_symmetry_1
_geom_bond_site_symmetry_2
C1 C2 1_555 1_555
C2 C3 1_555 1_555
C3 H1 1_555 1_555
C4 C3 1_555 1_555
H2 C4 1_555 1_555
C5 C4 1_555 1_555
H3 C5 1_555 1_555
C6 C5 1_555 1_555
H4 C6 1_555 1_555
C7 C2 1_555 1_555
H5 C7 1_555 1_555
C8 C9 1_555 1_555
C9 C10 1_555 1_555
C10 H6 1_555 1_555
C11 C10 1_555 1_555
H7 C11 1_555 1_555
C12 C11 1_555 1_555
H8 C12 1_555 1_555
C13 C12 1_555 1_555
H9 C13 1_555 1_555
C14 C9 1_555 1_555
H10 C14 1_555 1_555
C15 H11 1_555 1_555
C16 C15 1_555 1_555
H12 C16 1_555 1_555
N1 C15 1_555 1_555
O1 C1 1_555 1_555
O2 C1 1_555 1_555
O3 C8 1_555 1_555
O4 C8 1_555 1_555
O5 O5A 1_555 1_555
O6 O7 1_555 1_555
Rh1 N1 1_555 1_555
C1A C2A 1_555 1_555
C2A C3A 1_555 1_555
C3A H1A 1_555 1_555
C4A C3A 1_555 1_555
H2A C4A 1_555 1_555
C5A C4A 1_555 1_555
H3A C5A 1_555 1_555
C6A C5A 1_555 1_555
H4A C6A 1_555 1_555
C7A C2A 1_555 1_555
H5A C7A 1_555 1_555
C8A C9A 1_555 1_555
C9A C10A 1_555 1_555
C10A H6A 1_555 1_555
C11A C10A 1_555 1_555
H7A C11A 1_555 1_555
C12A C11A 1_555 1_555
H8A C12A 1_555 1_555
C13A C12A 1_555 1_555
H9A C13A 1_555 1_555
C14A C9A 1_555 1_555
H10A C14A 1_555 1_555
C15A H11A 1_555 1_555
C16A N1 1_555 1_555
H12A C16A 1_555 1_555
N1A C16 1_555 1_555
N1A_2 Rh1A_2 1_555 1_555
O1A C1A 1_555 1_555
O2A Rh1 1_555 1_555
O3A C8A 1_555 1_555
O4A Rh1 1_555 1_555
Rh1A N1A 1_555 1_555
Rh1A_2 O2 1_555 1_555
C6 C7 1_555 1_555
C13 C14 1_555 1_555
O1 Rh1 1_555 1_555
O3 Rh1 1_555 1_555
O4 Rh1A_2 1_555 1_555
Rh1 Rh1A_2 1_555 1_555
C1A O2A 1_555 1_555
C6A C7A 1_555 1_555
C8A O4A 1_555 1_555
C13A C14A 1_555 1_555
C15A C16A 1_555 1_555
C15A N1A 1_555 1_555
O1A Rh1A_2 1_555 1_555
O3A Rh1A_2 1_555 1_555

#END
