
#######################################################################
#
#                 Cambridge Crystallographic Data Centre
#                                CCDC 
#
#######################################################################
#
# If this CIF has been generated from an entry in the Cambridge 
# Structural Database, then it will include bibliographic, chemical, 
# crystal, experimental, refinement or atomic coordinate data resulting 
# from the CCDC's data processing and validation procedures.
#
#######################################################################

data_ITEVOS
_symmetry_cell_setting           triclinic
_symmetry_space_group_name_H-M   'P -1'
_symmetry_Int_Tables_number      2
_space_group_name_Hall           '-P 1'
loop_
_symmetry_equiv_pos_site_id
_symmetry_equiv_pos_as_xyz
1 x,y,z
2 -x,-y,-z
_cell_length_a                   9.474(8)
_cell_length_b                   10.222(13)
_cell_length_c                   10.715(13)
_cell_angle_alpha                72.09(2)
_cell_angle_beta                 64.933(13)
_cell_angle_gamma                62.737(14)
_cell_volume                     827.19
loop_
_atom_site_label
_atom_site_type_symbol
_atom_site_fract_x
_atom_site_fract_y
_atom_site_fract_z
C1 C 0.674(3) 0.739(3) 0.421(2)
C2 C 0.769(2) 0.589(2) 0.381(2)
C3 C 0.939(2) 0.523(2) 0.356(2)
H1 H 0.9938 0.5708 0.3686
C4 C 1.028(2) 0.386(2) 0.313(3)
H2 H 1.1432 0.3404 0.2971
C5 C 0.947(3) 0.316(2) 0.293(3)
H3 H 1.0085 0.2246 0.2601
C6 C 0.777(2) 0.380(2) 0.322(3)
H4 H 0.7215 0.3309 0.3121
C7 C 0.688(2) 0.517(2) 0.365(3)
H5 H 0.5718 0.5619 0.3824
C8 C 0.556(5) 1.128(4) 0.248(4)
C9 C 0.588(4) 1.202(3) 0.097(3)
C10 C 0.700(3) 1.271(3) 0.036(3)
H6 H 0.7658 1.2646 0.0831
C11 C 0.714(4) 1.349(3) -0.095(3)
H7 H 0.7881 1.3988 -0.1360
C12 C 0.621(4) 1.354(3) -0.165(3)
H8 H 0.6315 1.4058 -0.2543
C13 C 0.512(4) 1.283(4) -0.104(3)
H9 H 0.4529 1.2819 -0.1546
C14 C 0.487(4) 1.215(3) 0.030(3)
H10 H 0.4027 1.1770 0.0749
C15 C 1.005(3) 0.935(3) 0.409(3)
H11 H 1.0078 0.8902 0.3437
C16 C 1.148(4) 0.931(3) 0.408(3)
H12 H 1.2511 0.8821 0.3452
N1 N 0.861(3) 1.001(3) 0.501(3)
O1 O 0.749(2) 0.8007(15) 0.4386(17)
O2 O 0.513(2) 0.7968(19) 0.4380(19)
O3 O 0.663(3) 1.101(2) 0.2995(16)
O4 O 0.429(2) 1.0920(18) 0.2998(14)
Rh1 Rh 0.6228(3) 1.0029(3) 0.4997(4)
N1A N 1.139(3) 0.999(3) 0.499(3)
C15A C 0.995(3) 1.065(3) 0.591(3)
H11A H 0.9922 1.1098 0.6563
C16A C 0.852(4) 1.069(3) 0.592(3)
H12A H 0.7489 1.1179 0.6548
C1A C 0.326(3) 1.261(3) 0.579(2)
C2A C 0.231(2) 1.411(2) 0.619(2)
C3A C 0.061(2) 1.477(2) 0.644(2)
H1A H 0.0062 1.4292 0.6314
C4A C -0.028(2) 1.614(2) 0.687(3)
H2A H -0.1432 1.6596 0.7029
C5A C 0.053(3) 1.684(2) 0.707(3)
H3A H -0.0085 1.7754 0.7399
C6A C 0.223(2) 1.620(2) 0.678(3)
H4A H 0.2785 1.6691 0.6879
C7A C 0.312(2) 1.483(2) 0.635(3)
H5A H 0.4282 1.4381 0.6176
O1A O 0.251(2) 1.1993(15) 0.5614(17)
O2A O 0.487(2) 1.2032(19) 0.5620(19)
C8A C 0.444(5) 0.872(4) 0.752(4)
C9A C 0.412(4) 0.798(3) 0.903(3)
C10A C 0.300(3) 0.729(3) 0.964(3)
H6A H 0.2342 0.7354 0.9169
C11A C 0.286(4) 0.651(3) 1.095(3)
H7A H 0.2119 0.6012 1.1360
C12A C 0.379(4) 0.646(3) 1.165(3)
H8A H 0.3685 0.5942 1.2543
C13A C 0.488(4) 0.717(4) 1.104(3)
H9A H 0.5471 0.7181 1.1546
C14A C 0.513(4) 0.785(3) 0.970(3)
H10A H 0.5973 0.8230 0.9251
O3A O 0.337(3) 0.899(2) 0.7005(16)
O4A O 0.571(2) 0.9080(18) 0.7002(14)
Rh1A Rh 1.3772(3) 0.9971(3) 0.5003(4)
Rh1A_2 Rh 0.3772(3) 0.9971(3) 0.5003(4)
O1A_2 O 1.251(2) 1.1993(15) 0.5614(17)
O2_2 O 1.513(2) 0.7968(19) 0.4380(19)
O3A_2 O 1.337(3) 0.899(2) 0.7005(16)
O4_2 O 1.429(2) 1.0920(18) 0.2998(14)
Rh1_2 Rh 1.6228(3) 1.0029(3) 0.4997(4)
loop_
_geom_bond_atom_site_label_1
_geom_bond_atom_site_label_2
_geom_bond_site_symmetry_1
_geom_bond_site_symmetry_2
C1 C2 1_555 1_555
C2 C3 1_555 1_555
C3 H1 1_555 1_555
C4 C3 1_555 1_555
H2 C4 1_555 1_555
C5 C4 1_555 1_555
H3 C5 1_555 1_555
C6 C5 1_555 1_555
H4 C6 1_555 1_555
C7 C2 1_555 1_555
H5 C7 1_555 1_555
C8 C9 1_555 1_555
C9 C10 1_555 1_555
C10 H6 1_555 1_555
C11 C10 1_555 1_555
H7 C11 1_555 1_555
C12 C11 1_555 1_555
H8 C12 1_555 1_555
C13 C12 1_555 1_555
H9 C13 1_555 1_555
C14 C9 1_555 1_555
H10 C14 1_555 1_555
C15 H11 1_555 1_555
C16 C15 1_555 1_555
H12 C16 1_555 1_555
N1 C15 1_555 1_555
O1 C1 1_555 1_555
O2 C1 1_555 1_555
O3 C8 1_555 1_555
O4 C8 1_555 1_555
Rh1 N1 1_555 1_555
N1A C16 1_555 1_555
C15A N1A 1_555 1_555
H11A C15A 1_555 1_555
C16A N1 1_555 1_555
H12A C16A 1_555 1_555
C1A C2A 1_555 1_555
C2A C3A 1_555 1_555
C3A H1A 1_555 1_555
C4A C3A 1_555 1_555
H2A C4A 1_555 1_555
C5A C4A 1_555 1_555
H3A C5A 1_555 1_555
C6A C5A 1_555 1_555
H4A C6A 1_555 1_555
C7A C2A 1_555 1_555
H5A C7A 1_555 1_555
O1A C1A 1_555 1_555
O2A Rh1 1_555 1_555
C8A C9A 1_555 1_555
C9A C10A 1_555 1_555
C10A H6A 1_555 1_555
C11A C10A 1_555 1_555
H7A C11A 1_555 1_555
C12A C11A 1_555 1_555
H8A C12A 1_555 1_555
C13A C12A 1_555 1_555
H9A C13A 1_555 1_555
C14A C9A 1_555 1_555
H10A C14A 1_555 1_555
O3A C8A 1_555 1_555
O4A Rh1 1_555 1_555
Rh1A N1A 1_555 1_555
Rh1A_2 O2 1_555 1_555
O1A_2 Rh1A 1_555 1_555
O2_2 Rh1A 1_555 1_555
O3A_2 Rh1A 1_555 1_555
O4_2 Rh1A 1_555 1_555
Rh1_2 Rh1A 1_555 1_555
C6 C7 1_555 1_555
C13 C14 1_555 1_555
O1 Rh1 1_555 1_555
O3 Rh1 1_555 1_555
O4 Rh1A_2 1_555 1_555
Rh1 Rh1A_2 1_555 1_555
C15A C16A 1_555 1_555
C1A O2A 1_555 1_555
C6A C7A 1_555 1_555
O1A Rh1A_2 1_555 1_555
C8A O4A 1_555 1_555
C13A C14A 1_555 1_555
O3A Rh1A_2 1_555 1_555

#END
