
#######################################################################
#
#                 Cambridge Crystallographic Data Centre
#                                CCDC 
#
#######################################################################
#
# If this CIF has been generated from an entry in the Cambridge 
# Structural Database, then it will include bibliographic, chemical, 
# crystal, experimental, refinement or atomic coordinate data resulting 
# from the CCDC's data processing and validation procedures.
#
#######################################################################

data_ITEVUY03
_symmetry_cell_setting           triclinic
_symmetry_space_group_name_H-M   'P -1'
_symmetry_Int_Tables_number      2
_space_group_name_Hall           '-P 1'
loop_
_symmetry_equiv_pos_site_id
_symmetry_equiv_pos_as_xyz
1 x,y,z
2 -x,-y,-z
_cell_length_a                   9.592(8)
_cell_length_b                   10.367(9)
_cell_length_c                   10.719(10)
_cell_angle_alpha                73.593(19)
_cell_angle_beta                 64.801(16)
_cell_angle_gamma                63.501(16)
_cell_volume                     857.49
loop_
_atom_site_label
_atom_site_type_symbol
_atom_site_fract_x
_atom_site_fract_y
_atom_site_fract_z
C1 C 0.6750(9) 0.2406(8) 0.4164(8)
C2 C 0.7734(9) 0.0917(8) 0.3799(8)
C3 C 0.9441(10) 0.0306(9) 0.3561(9)
H1 H 0.9964 0.0857 0.3639
C4 C 1.0371(11) -0.1093(10) 0.3211(10)
H2 H 1.1527 -0.1517 0.3067
C5 C 0.9591(11) -0.1872(9) 0.3074(10)
H3 H 1.0230 -0.2824 0.2805
C6 C 0.7908(11) -0.1289(9) 0.3322(10)
H4 H 0.7389 -0.1843 0.3244
C7 C 0.6979(10) 0.0104(9) 0.3684(9)
H5 H 0.5818 0.0508 0.3856
C8 C 0.4523(9) 0.3710(8) 0.7544(8)
C9 C 0.4298(10) 0.2922(9) 0.8997(9)
C10 C 0.5236(11) 0.2856(10) 0.9724(10)
H6 H 0.6020 0.3313 0.9311
C11 C 0.5023(12) 0.2116(11) 1.1064(11)
H7 H 0.5631 0.2103 1.1575
C12 C 0.3940(12) 0.1411(11) 1.1637(11)
H8 H 0.3802 0.0902 1.2543
C13 C 0.3049(12) 0.1440(11) 1.0900(11)
H9 H 0.2318 0.0930 1.1295
C14 C 0.3203(11) 0.2205(10) 0.9587(10)
H10 H 0.2563 0.2236 0.9097
C15 C 0.8534(9) 0.5696(8) 0.5887(8)
H11 H 0.7501 0.6198 0.6545
C16 C 0.9975(9) 0.5615(8) 0.5958(9)
H12 H 0.9912 0.6070 0.6646
N1 N 0.8527(7) 0.5104(6) 0.4943(7)
O1 O 0.7508(6) 0.3088(6) 0.4298(6)
O2 O 0.5197(6) 0.2943(6) 0.4364(6)
O3 O 0.5765(6) 0.4112(6) 0.6968(6)
O4 O 0.3466(6) 0.3941(6) 0.7029(6)
Rh1 Rh 0.62280(8) 0.50713(7) 0.49697(8)
C1A C 0.3250(9) 0.7594(8) 0.5836(8)
C2A C 0.2266(9) 0.9083(8) 0.6201(8)
C3A C 0.0559(10) 0.9694(9) 0.6439(9)
H1A H 0.0036 0.9143 0.6361
C4A C -0.0371(11) 1.1093(10) 0.6789(10)
H2A H -0.1527 1.1517 0.6933
C5A C 0.0409(11) 1.1872(9) 0.6926(10)
H3A H -0.0230 1.2824 0.7195
C6A C 0.2092(11) 1.1289(9) 0.6678(10)
H4A H 0.2611 1.1843 0.6756
C7A C 0.3021(10) 0.9896(9) 0.6316(9)
H5A H 0.4182 0.9492 0.6144
C8A C 0.5477(9) 0.6290(8) 0.2456(8)
C9A C 0.5702(10) 0.7078(9) 0.1003(9)
C10A C 0.4764(11) 0.7144(10) 0.0276(10)
H6A H 0.3980 0.6687 0.0689
C11A C 0.4977(12) 0.7884(11) -0.1064(11)
H7A H 0.4369 0.7897 -0.1575
C12A C 0.6060(12) 0.8589(11) -0.1637(11)
H8A H 0.6198 0.9098 -0.2543
C13A C 0.6951(12) 0.8560(11) -0.0900(11)
H9A H 0.7682 0.9070 -0.1295
C14A C 0.6797(11) 0.7795(10) 0.0413(10)
H10A H 0.7437 0.7764 0.0903
C15A C 1.1466(9) 0.4304(8) 0.4113(8)
H11A H 1.2499 0.3802 0.3455
C16A C 1.0025(9) 0.4385(8) 0.4042(9)
H12A H 1.0088 0.3930 0.3354
N1A N 1.1473(7) 0.4896(6) 0.5057(7)
N1A_2 N 0.1473(7) 0.4896(6) 0.5057(7)
O1A O 0.2492(6) 0.6912(6) 0.5702(6)
O2A O 0.4803(6) 0.7057(6) 0.5636(6)
O3A O 0.4235(6) 0.5888(6) 0.3032(6)
O4A O 0.6534(6) 0.6059(6) 0.2971(6)
Rh1A Rh 1.37720(8) 0.49287(7) 0.50303(8)
Rh1A_2 Rh 0.37720(8) 0.49287(7) 0.50303(8)
O5 O 0.9407(18) -0.0049(3) 0.0044(3)
O5A O 1.0593(18) 0.0049(3) -0.0044(3)
O6 O 0.894(3) 0.402(2) -0.023(2)
O7 O 0.845(3) 0.334(2) 0.078(2)
loop_
_geom_bond_atom_site_label_1
_geom_bond_atom_site_label_2
_geom_bond_site_symmetry_1
_geom_bond_site_symmetry_2
C1 C2 1_555 1_555
C2 C3 1_555 1_555
C3 H1 1_555 1_555
C4 C3 1_555 1_555
H2 C4 1_555 1_555
C5 C4 1_555 1_555
H3 C5 1_555 1_555
C6 C5 1_555 1_555
H4 C6 1_555 1_555
C7 C2 1_555 1_555
H5 C7 1_555 1_555
C8 C9 1_555 1_555
C9 C10 1_555 1_555
C10 H6 1_555 1_555
C11 C10 1_555 1_555
H7 C11 1_555 1_555
C12 C11 1_555 1_555
H8 C12 1_555 1_555
C13 C12 1_555 1_555
H9 C13 1_555 1_555
C14 C9 1_555 1_555
H10 C14 1_555 1_555
C15 H11 1_555 1_555
C16 C15 1_555 1_555
H12 C16 1_555 1_555
N1 C15 1_555 1_555
O1 C1 1_555 1_555
O2 C1 1_555 1_555
O3 C8 1_555 1_555
O4 C8 1_555 1_555
O5 O5A 1_555 1_555
O6 O7 1_555 1_555
Rh1 N1 1_555 1_555
C1A C2A 1_555 1_555
C2A C3A 1_555 1_555
C3A H1A 1_555 1_555
C4A C3A 1_555 1_555
H2A C4A 1_555 1_555
C5A C4A 1_555 1_555
H3A C5A 1_555 1_555
C6A C5A 1_555 1_555
H4A C6A 1_555 1_555
C7A C2A 1_555 1_555
H5A C7A 1_555 1_555
C8A C9A 1_555 1_555
C9A C10A 1_555 1_555
C10A H6A 1_555 1_555
C11A C10A 1_555 1_555
H7A C11A 1_555 1_555
C12A C11A 1_555 1_555
H8A C12A 1_555 1_555
C13A C12A 1_555 1_555
H9A C13A 1_555 1_555
C14A C9A 1_555 1_555
H10A C14A 1_555 1_555
C15A H11A 1_555 1_555
C16A N1 1_555 1_555
H12A C16A 1_555 1_555
N1A C16 1_555 1_555
N1A_2 Rh1A_2 1_555 1_555
O1A C1A 1_555 1_555
O2A Rh1 1_555 1_555
O3A C8A 1_555 1_555
O4A Rh1 1_555 1_555
Rh1A N1A 1_555 1_555
Rh1A_2 O2 1_555 1_555
C6 C7 1_555 1_555
C13 C14 1_555 1_555
O1 Rh1 1_555 1_555
O3 Rh1 1_555 1_555
O4 Rh1A_2 1_555 1_555
Rh1 Rh1A_2 1_555 1_555
C1A O2A 1_555 1_555
C6A C7A 1_555 1_555
C8A O4A 1_555 1_555
C13A C14A 1_555 1_555
C15A C16A 1_555 1_555
C15A N1A 1_555 1_555
O1A Rh1A_2 1_555 1_555
O3A Rh1A_2 1_555 1_555

#END
