
#######################################################################
#
#                 Cambridge Crystallographic Data Centre
#                                CCDC 
#
#######################################################################
#
# If this CIF has been generated from an entry in the Cambridge 
# Structural Database, then it will include bibliographic, chemical, 
# crystal, experimental, refinement or atomic coordinate data resulting 
# from the CCDC's data processing and validation procedures.
#
#######################################################################

data_ITIBET
_symmetry_cell_setting           monoclinic
_symmetry_space_group_name_H-M   'P 21/c'
_symmetry_Int_Tables_number      14
_space_group_name_Hall           '-P 2ybc'
loop_
_symmetry_equiv_pos_site_id
_symmetry_equiv_pos_as_xyz
1 x,y,z
2 -x,1/2+y,1/2-z
3 -x,-y,-z
4 x,1/2-y,1/2+z
_cell_length_a                   15.455(4)
_cell_length_b                   13.200(3)
_cell_length_c                   9.315(1)
_cell_angle_alpha                90
_cell_angle_beta                 106.816(5)
_cell_angle_gamma                90
_cell_volume                     1819.06
loop_
_atom_site_label
_atom_site_type_symbol
_atom_site_fract_x
_atom_site_fract_y
_atom_site_fract_z
Cd1 Cd -0.11081(2) 0.12624(2) 0.42853(4)
Cd2 Cd -0.43875(2) 0.60126(2) 0.35584(4)
Cd3 Cd -0.25685(2) 0.41597(2) 0.25501(4)
Cl1 Cl -0.32989(9) 0.59867(9) 0.19458(16)
C1 C 0.0208(3) 0.1079(3) 0.2177(5)
O1 O -0.2252(2) 0.2540(2) 0.3695(4)
C2 C -0.4063(3) 0.2938(3) 0.5488(5)
C3 C -0.0376(3) 0.1968(3) 0.1592(5)
N1 N 0.1196(2) -0.0164(3) 0.2617(4)
O2 O -0.2507(2) 0.1425(2) 0.5276(3)
O3 O 0.0860(3) 0.1499(3) -0.0551(4)
N2 N 0.0786(2) -0.0143(3) 0.3693(4)
C4 C 0.1165(3) 0.0732(4) 0.0322(5)
O4 O -0.0218(2) 0.2443(3) 0.0503(4)
O5 O -0.4207(2) 0.1226(2) 0.6107(4)
O6 O -0.0964(2) 0.2209(3) 0.2189(4)
N3 N 0.0167(3) 0.0604(3) 0.3434(4)
O7 O 0.1693(2) 0.0125(3) 0.0045(4)
N4 N -0.4010(2) 0.4435(3) 0.4595(4)
N5 N -0.3355(3) 0.3912(3) 0.4295(4)
C5 C -0.2671(3) 0.2254(3) 0.4605(5)
C6 C -0.3361(3) 0.2968(3) 0.4845(5)
C7 C 0.0847(3) 0.0596(3) 0.1649(5)
N6 N -0.4447(3) 0.3858(3) 0.5313(4)
C8 C -0.4481(3) 0.2115(3) 0.6184(5)
O8 O -0.5074(2) 0.2368(3) 0.6784(4)
O9 O -0.5455(3) 0.5145(3) 0.1622(4)
O10 O -0.1999(3) 0.0144(3) 0.2708(4)
O11 O -0.3184(3) 0.6779(4) 0.5391(6)
H1 H -0.570(5) 0.554(5) 0.091(6)
H2 H -0.514(4) 0.473(5) 0.131(7)
Cd1B Cd 0.11081(2) -0.12624(2) 0.57147(4)
Cd1C Cd -0.11081(2) 0.37376(2) -0.07147(4)
Cd2B Cd -0.56125(2) 0.39874(2) 0.64416(4)
Cd3C Cd -0.25685(2) 0.08403(2) 0.75501(4)
Cd3A Cd 0.25685(2) -0.08403(2) 0.24499(4)
N1A N -0.1196(2) 0.4836(3) 0.2383(4)
O2C O -0.2507(2) 0.3575(2) 0.0276(3)
N2B N -0.0786(2) 0.0143(3) 0.6307(4)
O4C O -0.0218(2) 0.2557(3) 0.5503(4)
O5C O -0.4207(2) 0.3774(2) 0.1107(4)
O7A O -0.1693(2) 0.5125(3) 0.4955(4)
N6B N -0.5553(3) 0.6142(3) 0.4687(4)
O8B O -0.4926(2) 0.7632(3) 0.3216(4)
O12 O -0.3100(4) -0.1284(5) 0.3342(7)
loop_
_geom_bond_atom_site_label_1
_geom_bond_atom_site_label_2
_geom_bond_site_symmetry_1
_geom_bond_site_symmetry_2
Cd1 O1 1_555 1_555
Cd2 Cl1 1_555 1_555
Cd3 Cl1 1_555 1_555
C1 C3 1_555 1_555
O1 Cd3 1_555 1_555
C2 C6 1_555 1_555
C3 O4 1_555 1_555
N1 N2 1_555 1_555
O2 Cd1 1_555 1_555
O3 C4 1_555 1_555
N2 N3 1_555 1_555
C4 O7 1_555 1_555
O4 Cd1C 1_555 1_555
O5 C8 1_555 1_555
O6 Cd1 1_555 1_555
N3 Cd1 1_555 1_555
O7 Cd3A 1_555 1_555
N4 Cd2 1_555 1_555
N5 Cd3 1_555 1_555
C5 O1 1_555 1_555
C6 N5 1_555 1_555
C7 C1 1_555 1_555
N6 C2 1_555 1_555
C8 C2 1_555 1_555
O8 C8 1_555 1_555
O9 Cd2 1_555 1_555
O10 Cd1 1_555 1_555
O11 Cd2 1_555 1_555
H1 O9 1_555 1_555
H2 O9 1_555 1_555
Cd1B N2 1_555 1_555
Cd1C O2C 1_555 1_555
Cd2B N6 1_555 1_555
Cd3C O2 1_555 1_555
Cd3A N1 1_555 1_555
N1A Cd3 1_555 1_555
O2C Cd3 1_555 1_555
N2B Cd1 1_555 1_555
O4C Cd1 1_555 1_555
O5C Cd3 1_555 1_555
O7A Cd3 1_555 1_555
N6B Cd2 1_555 1_555
O8B Cd2 1_555 1_555
C1 N3 1_555 1_555
C3 O6 1_555 1_555
N1 C7 1_555 1_555
O2 C5 1_555 1_555
C4 C7 1_555 1_555
O5 Cd3C 1_555 1_555
N4 N5 1_555 1_555
N4 N6 1_555 1_555
C5 C6 1_555 1_555
O8 Cd2B 1_555 1_555

#END
