
#######################################################################
#
#                 Cambridge Crystallographic Data Centre
#                                CCDC 
#
#######################################################################
#
# If this CIF has been generated from an entry in the Cambridge 
# Structural Database, then it will include bibliographic, chemical, 
# crystal, experimental, refinement or atomic coordinate data resulting 
# from the CCDC's data processing and validation procedures.
#
#######################################################################

data_ITICIY
_symmetry_cell_setting           monoclinic
_symmetry_space_group_name_H-M   'C 2/c'
_symmetry_Int_Tables_number      15
_space_group_name_Hall           '-C 2yn'
loop_
_symmetry_equiv_pos_site_id
_symmetry_equiv_pos_as_xyz
1 x,y,z
2 -x,y,1/2-z
3 1/2+x,1/2+y,z
4 1/2-x,1/2+y,1/2-z
5 -x,-y,-z
6 x,-y,1/2+z
7 1/2-x,1/2-y,-z
8 1/2+x,1/2-y,1/2+z
_cell_length_a                   17.025(4)
_cell_length_b                   9.5761(14)
_cell_length_c                   9.6939(18)
_cell_angle_alpha                90
_cell_angle_beta                 99.64(2)
_cell_angle_gamma                90
_cell_volume                     1558.11
loop_
_atom_site_label
_atom_site_type_symbol
_atom_site_fract_x
_atom_site_fract_y
_atom_site_fract_z
Mn1 Mn 1.0000 0.22178(8) 0.2500
O1 O 1.09757(13) 0.3788(3) 0.2960(2)
O2 O 0.91436(14) 0.4206(3) 0.4940(2)
O3 O 0.98921(13) 0.2340(3) 0.46619(17)
O4 O 0.91006(14) 0.0601(3) 0.2106(2)
N1 N 0.83290(16) -0.1116(3) 0.2712(3)
C1 C 0.96133(18) 0.3251(3) 0.5365(3)
C2 C 0.8906(2) -0.0210(4) 0.2970(3)
H1 H 0.9191 -0.0175 0.3875
C3 C 0.98887(19) 0.3169(3) 0.6883(3)
C4 C 0.7890(3) -0.1264(5) 0.1300(4)
H2 H 0.7488 -0.1969 0.1287
H3 H 0.8250 -0.1530 0.0681
H4 H 0.7643 -0.0391 0.0997
C5 C 0.8149(3) -0.2113(5) 0.3762(5)
H5 H 0.7705 -0.2684 0.3363
H6 H 0.8019 -0.1615 0.4553
H7 H 0.8606 -0.2695 0.4058
H8 H 1.094(2) 0.451(3) 0.360(4)
H9 H 1.107(2) 0.438(4) 0.225(3)
Mn1_2 Mn 1.0000 0.22178(8) 1.2500
O1A O 0.90243(13) 0.3788(3) 0.2040(2)
O2A O 1.08564(14) 0.4206(3) 1.0060(2)
O3A O 1.01079(13) 0.2340(3) 1.03381(17)
O3A_2 O 1.01079(13) 0.2340(3) 0.03381(17)
O4A O 1.08994(14) 0.0601(3) 0.2894(2)
N1A N 1.16710(16) -0.1116(3) 0.2288(3)
C1A C 1.03867(18) 0.3251(3) 0.9635(3)
C2A C 1.1094(2) -0.0210(4) 0.2030(3)
H1A H 1.0809 -0.0175 0.1125
C3A C 1.01113(19) 0.3169(3) 0.8117(3)
C4A C 1.2110(3) -0.1264(5) 0.3700(4)
H2A H 1.2512 -0.1969 0.3713
H3A H 1.1750 -0.1530 0.4319
H4A H 1.2357 -0.0391 0.4003
C5A C 1.1851(3) -0.2113(5) 0.1238(5)
H5A H 1.2295 -0.2684 0.1637
H6A H 1.1981 -0.1615 0.0447
H7A H 1.1394 -0.2695 0.0942
H8A H 0.906(2) 0.451(3) 0.140(4)
H9A H 0.893(2) 0.438(4) 0.275(3)
loop_
_geom_bond_atom_site_label_1
_geom_bond_atom_site_label_2
_geom_bond_site_symmetry_1
_geom_bond_site_symmetry_2
Mn1 O1 1_555 1_555
O1 H8 1_555 1_555
O2 C1 1_555 1_555
O3 Mn1 1_555 1_555
O4 Mn1 1_555 1_555
N1 C2 1_555 1_555
C1 O3 1_555 1_555
C2 O4 1_555 1_555
H1 C2 1_555 1_555
C3 C1 1_555 1_555
C4 N1 1_555 1_555
H2 C4 1_555 1_555
H3 C4 1_555 1_555
H4 C4 1_555 1_555
C5 N1 1_555 1_555
H5 C5 1_555 1_555
H6 C5 1_555 1_555
H7 C5 1_555 1_555
H9 O1 1_555 1_555
Mn1_2 O3A 1_555 1_555
O1A Mn1 1_555 1_555
O2A C1A 1_555 1_555
O3A C1A 1_555 1_555
O3A_2 Mn1 1_555 1_555
O4A Mn1 1_555 1_555
N1A C2A 1_555 1_555
C1A C3A 1_555 1_555
C2A O4A 1_555 1_555
H1A C2A 1_555 1_555
C3A C3 1_555 1_555
C4A N1A 1_555 1_555
H2A C4A 1_555 1_555
H3A C4A 1_555 1_555
H4A C4A 1_555 1_555
C5A N1A 1_555 1_555
H5A C5A 1_555 1_555
H6A C5A 1_555 1_555
H7A C5A 1_555 1_555
H8A O1A 1_555 1_555
H9A O1A 1_555 1_555

#END
