
#######################################################################
#
#                 Cambridge Crystallographic Data Centre
#                                CCDC 
#
#######################################################################
#
# If this CIF has been generated from an entry in the Cambridge 
# Structural Database, then it will include bibliographic, chemical, 
# crystal, experimental, refinement or atomic coordinate data resulting 
# from the CCDC's data processing and validation procedures.
#
#######################################################################

data_ITICEU
_symmetry_cell_setting           monoclinic
_symmetry_space_group_name_H-M   'C 2/c'
_symmetry_Int_Tables_number      15
_space_group_name_Hall           '-C 2yn'
loop_
_symmetry_equiv_pos_site_id
_symmetry_equiv_pos_as_xyz
1 x,y,z
2 -x,y,1/2-z
3 1/2+x,1/2+y,z
4 1/2-x,1/2+y,1/2-z
5 -x,-y,-z
6 x,-y,1/2+z
7 1/2-x,1/2-y,-z
8 1/2+x,1/2-y,1/2+z
_cell_length_a                   16.8260(18)
_cell_length_b                   9.4516(13)
_cell_length_c                   9.6062(9)
_cell_angle_alpha                90
_cell_angle_beta                 99.137(12)
_cell_angle_gamma                90
_cell_volume                     1508.31
loop_
_atom_site_label
_atom_site_type_symbol
_atom_site_fract_x
_atom_site_fract_y
_atom_site_fract_z
Co1 Co 1.0000 0.22459(5) 0.2500
O1 O 0.91575(10) 0.42032(18) 0.49240(18)
O2 O 1.09339(10) 0.37627(18) 0.29407(18)
O3 O 0.98994(11) 0.22848(18) 0.46294(16)
O4 O 0.91244(11) 0.06781(18) 0.20699(18)
N1 N 0.83354(12) -0.1056(2) 0.2689(2)
C1 C 0.96227(13) 0.3213(2) 0.5346(2)
C2 C 0.98883(14) 0.3123(2) 0.6876(2)
C3 C 0.89324(14) -0.0149(3) 0.2956(3)
H1 H 0.9227 -0.0129 0.3861
C4 C 0.8154(2) -0.2060(4) 0.3752(4)
H2 H 0.7700 -0.2629 0.3362
H3 H 0.8031 -0.1552 0.4556
H4 H 0.8612 -0.2659 0.4035
C5 C 0.7889(2) -0.1180(4) 0.1274(4)
H5 H 0.7477 -0.1884 0.1261
H6 H 0.8249 -0.1454 0.0639
H7 H 0.7647 -0.0286 0.0984
H8 H 1.094(2) 0.417(4) 0.208(2)
H9 H 1.091(2) 0.441(3) 0.363(3)
Co1_2 Co 1.0000 0.22459(5) 1.2500
O1A O 1.08425(10) 0.42032(18) 1.00760(18)
O2A O 0.90661(10) 0.37627(18) 0.20593(18)
O3A O 1.01006(11) 0.22848(18) 1.03706(16)
O3A_2 O 1.01006(11) 0.22848(18) 0.03706(16)
O4A O 1.08756(11) 0.06781(18) 0.29301(18)
N1A N 1.16646(12) -0.1056(2) 0.2311(2)
C1A C 1.03773(13) 0.3213(2) 0.9654(2)
C2A C 1.01117(14) 0.3123(2) 0.8124(2)
C3A C 1.10676(14) -0.0149(3) 0.2044(3)
H1A H 1.0773 -0.0129 0.1139
C4A C 1.1846(2) -0.2060(4) 0.1248(4)
H2A H 1.2300 -0.2629 0.1638
H3A H 1.1969 -0.1552 0.0444
H4A H 1.1388 -0.2659 0.0965
C5A C 1.2111(2) -0.1180(4) 0.3726(4)
H5A H 1.2523 -0.1884 0.3739
H6A H 1.1751 -0.1454 0.4361
H7A H 1.2353 -0.0286 0.4016
H8A H 0.906(2) 0.417(4) 0.292(2)
H9A H 0.909(2) 0.441(3) 0.137(3)
loop_
_geom_bond_atom_site_label_1
_geom_bond_atom_site_label_2
_geom_bond_site_symmetry_1
_geom_bond_site_symmetry_2
Co1 O2 1_555 1_555
O1 C1 1_555 1_555
O2 H8 1_555 1_555
O3 Co1 1_555 1_555
O4 Co1 1_555 1_555
N1 C3 1_555 1_555
C1 O3 1_555 1_555
C2 C1 1_555 1_555
C3 O4 1_555 1_555
H1 C3 1_555 1_555
C4 N1 1_555 1_555
H2 C4 1_555 1_555
H3 C4 1_555 1_555
H4 C4 1_555 1_555
C5 N1 1_555 1_555
H5 C5 1_555 1_555
H6 C5 1_555 1_555
H7 C5 1_555 1_555
H9 O2 1_555 1_555
Co1_2 O3A 1_555 1_555
O1A C1A 1_555 1_555
O2A Co1 1_555 1_555
O3A C1A 1_555 1_555
O3A_2 Co1 1_555 1_555
O4A Co1 1_555 1_555
N1A C3A 1_555 1_555
C1A C2A 1_555 1_555
C2A C2 1_555 1_555
C3A O4A 1_555 1_555
H1A C3A 1_555 1_555
C4A N1A 1_555 1_555
H2A C4A 1_555 1_555
H3A C4A 1_555 1_555
H4A C4A 1_555 1_555
C5A N1A 1_555 1_555
H5A C5A 1_555 1_555
H6A C5A 1_555 1_555
H7A C5A 1_555 1_555
H8A O2A 1_555 1_555
H9A O2A 1_555 1_555

#END
