
#######################################################################
#
#                 Cambridge Crystallographic Data Centre
#                                CCDC 
#
#######################################################################
#
# If this CIF has been generated from an entry in the Cambridge 
# Structural Database, then it will include bibliographic, chemical, 
# crystal, experimental, refinement or atomic coordinate data resulting 
# from the CCDC's data processing and validation procedures.
#
#######################################################################

data_ITIHID
_symmetry_cell_setting           monoclinic
_symmetry_space_group_name_H-M   'C 2/c'
_symmetry_Int_Tables_number      15
_space_group_name_Hall           '-C 2yn'
loop_
_symmetry_equiv_pos_site_id
_symmetry_equiv_pos_as_xyz
1 x,y,z
2 -x,y,1/2-z
3 1/2+x,1/2+y,z
4 1/2-x,1/2+y,1/2-z
5 -x,-y,-z
6 x,-y,1/2+z
7 1/2-x,1/2-y,-z
8 1/2+x,1/2-y,1/2+z
_cell_length_a                   19.7325(10)
_cell_length_b                   9.7062(4)
_cell_length_c                   16.4383(7)
_cell_angle_alpha                90
_cell_angle_beta                 96.432(4)
_cell_angle_gamma                90
_cell_volume                     3128.57
loop_
_atom_site_label
_atom_site_type_symbol
_atom_site_fract_x
_atom_site_fract_y
_atom_site_fract_z
Fe1 Fe 0.5000 0.03524(4) 0.7500
C1 C 0.61601(14) -0.3176(2) 0.87549(14)
H1 H 0.6438 -0.3877 0.8594
C2 C 0.58573(14) -0.2273(2) 0.81868(15)
H2 H 0.5941 -0.2382 0.7645
C3 C 0.53566(14) -0.1103(2) 0.91595(14)
H3 H 0.5077 -0.0395 0.9307
C4 C 0.56502(14) -0.1943(2) 0.97632(14)
H4 H 0.5580 -0.1776 1.0305
C5 C 0.60520(13) -0.3045(2) 0.95767(14)
C6 C 0.63587(13) -0.3956(2) 1.02261(15)
C7 C 0.67902(19) -0.4139(3) 1.16644(18)
H5 H 0.6409 -0.4539 1.1905
H6 H 0.7048 -0.3574 1.2076
C8 C 0.72377(18) -0.5267(3) 1.13932(18)
H7 H 0.7645 -0.4866 1.1212
H8 H 0.7376 -0.5872 1.1852
C9 C 0.64532(13) -0.5340(3) 1.01512(14)
C10 C 0.61217(13) -0.6209(2) 0.94917(14)
C11 C 0.64549(14) -0.7363(2) 0.92268(15)
H9 H 0.6901 -0.7557 0.9443
C12 C 0.61208(14) -0.8214(2) 0.86450(16)
H10 H 0.6359 -0.8967 0.8472
C13 C 0.51613(13) -0.6920(2) 0.85639(14)
H11 H 0.4716 -0.6754 0.8336
C14 C 0.54549(13) -0.6014(2) 0.91375(14)
H12 H 0.5206 -0.5262 0.9291
N1 N 0.54453(11) -0.12354(18) 0.83661(11)
N2 N 0.65422(13) -0.3303(2) 1.09715(13)
H13 H 0.6508 -0.2424 1.1017
N3 N 0.54821(11) -0.80351(18) 0.83124(11)
N4 N 0.68835(12) -0.6047(2) 1.07405(13)
H14 H 0.6934 -0.6925 1.0712
S1 S 0.70830(4) -0.02888(8) 0.62077(5)
C15 C 0.63872(15) 0.0035(2) 0.66179(14)
N5 N 0.58891(12) 0.02813(19) 0.68990(12)
Fe1_2 Fe 0.5000 -0.96476(4) 0.7500
C1A C 0.38399(14) -0.3176(2) 0.62451(14)
H1A H 0.3562 -0.3877 0.6406
C2A C 0.41427(14) -0.2273(2) 0.68132(15)
H2A H 0.4059 -0.2382 0.7355
C3A C 0.46434(14) -0.1103(2) 0.58405(14)
H3A H 0.4923 -0.0395 0.5693
C4A C 0.43498(14) -0.1943(2) 0.52368(14)
H4A H 0.4420 -0.1776 0.4695
C5A C 0.39480(13) -0.3045(2) 0.54233(14)
C6A C 0.36413(13) -0.3956(2) 0.47739(15)
C7A C 0.32098(19) -0.4139(3) 0.33356(18)
H5A H 0.3591 -0.4539 0.3095
H6A H 0.2952 -0.3574 0.2924
C8A C 0.27623(18) -0.5267(3) 0.36068(18)
H7A H 0.2355 -0.4866 0.3788
H8A H 0.2624 -0.5872 0.3148
C9A C 0.35468(13) -0.5340(3) 0.48488(14)
C10A C 0.38783(13) -0.6209(2) 0.55083(14)
C11A C 0.35451(14) -0.7363(2) 0.57732(15)
H9A H 0.3099 -0.7557 0.5557
C12A C 0.38792(14) -0.8214(2) 0.63550(16)
H10A H 0.3641 -0.8967 0.6528
C13A C 0.48387(13) -0.6920(2) 0.64361(14)
H11A H 0.5284 -0.6754 0.6664
C14A C 0.45451(13) -0.6014(2) 0.58625(14)
H12A H 0.4794 -0.5262 0.5709
N1A N 0.45547(11) -0.12354(18) 0.66339(11)
N2A N 0.34578(13) -0.3303(2) 0.40285(13)
H13A H 0.3492 -0.2424 0.3983
N3A N 0.45179(11) -0.80351(18) 0.66876(11)
N3_2 N 0.54821(11) 0.19649(18) 0.83124(11)
N3A_2 N 0.45179(11) 0.19649(18) 0.66876(11)
N4A N 0.31165(12) -0.6047(2) 0.42595(13)
H14A H 0.3066 -0.6925 0.4288
S1A S 0.29170(4) -0.02888(8) 0.87923(5)
C15A C 0.36128(15) 0.0035(2) 0.83821(14)
N5A N 0.41109(12) 0.02813(19) 0.81010(12)
loop_
_geom_bond_atom_site_label_1
_geom_bond_atom_site_label_2
_geom_bond_site_symmetry_1
_geom_bond_site_symmetry_2
Fe1 N1 1_555 1_555
C1 H1 1_555 1_555
C2 C1 1_555 1_555
H2 C2 1_555 1_555
C3 H3 1_555 1_555
C4 C3 1_555 1_555
H4 C4 1_555 1_555
C5 C1 1_555 1_555
C6 C5 1_555 1_555
C7 H5 1_555 1_555
H6 C7 1_555 1_555
C8 C7 1_555 1_555
H7 C8 1_555 1_555
H8 C8 1_555 1_555
C9 C6 1_555 1_555
C10 C9 1_555 1_555
C11 C10 1_555 1_555
H9 C11 1_555 1_555
C12 C11 1_555 1_555
H10 C12 1_555 1_555
C13 H11 1_555 1_555
C14 C10 1_555 1_555
H12 C14 1_555 1_555
N1 C2 1_555 1_555
N2 C6 1_555 1_555
H13 N2 1_555 1_555
N3 C12 1_555 1_555
N4 C8 1_555 1_555
H14 N4 1_555 1_555
S1 C15 1_555 1_555
C15 N5 1_555 1_555
N5 Fe1 1_555 1_555
Fe1_2 N3 1_555 1_555
C1A H1A 1_555 1_555
C2A C1A 1_555 1_555
H2A C2A 1_555 1_555
C3A H3A 1_555 1_555
C4A C3A 1_555 1_555
H4A C4A 1_555 1_555
C5A C1A 1_555 1_555
C6A C5A 1_555 1_555
C7A H5A 1_555 1_555
H6A C7A 1_555 1_555
C8A C7A 1_555 1_555
H7A C8A 1_555 1_555
H8A C8A 1_555 1_555
C9A C6A 1_555 1_555
C10A C9A 1_555 1_555
C11A C10A 1_555 1_555
H9A C11A 1_555 1_555
C12A C11A 1_555 1_555
H10A C12A 1_555 1_555
C13A H11A 1_555 1_555
C14A C10A 1_555 1_555
H12A C14A 1_555 1_555
N1A Fe1 1_555 1_555
N2A C6A 1_555 1_555
H13A N2A 1_555 1_555
N3A Fe1_2 1_555 1_555
N3_2 Fe1 1_555 1_555
N3A_2 Fe1 1_555 1_555
N4A C8A 1_555 1_555
H14A N4A 1_555 1_555
S1A C15A 1_555 1_555
C15A N5A 1_555 1_555
N5A Fe1 1_555 1_555
C3 N1 1_555 1_555
C4 C5 1_555 1_555
C7 N2 1_555 1_555
C9 N4 1_555 1_555
C13 C14 1_555 1_555
C13 N3 1_555 1_555
C2A N1A 1_555 1_555
C3A N1A 1_555 1_555
C4A C5A 1_555 1_555
C7A N2A 1_555 1_555
C9A N4A 1_555 1_555
C12A N3A 1_555 1_555
C13A C14A 1_555 1_555
C13A N3A 1_555 1_555

#END
