
#######################################################################
#
#                 Cambridge Crystallographic Data Centre
#                                CCDC 
#
#######################################################################
#
# If this CIF has been generated from an entry in the Cambridge 
# Structural Database, then it will include bibliographic, chemical, 
# crystal, experimental, refinement or atomic coordinate data resulting 
# from the CCDC's data processing and validation procedures.
#
#######################################################################

data_ITIHID01
_symmetry_cell_setting           monoclinic
_symmetry_space_group_name_H-M   'C 2/c'
_symmetry_Int_Tables_number      15
_space_group_name_Hall           '-C 2yn'
loop_
_symmetry_equiv_pos_site_id
_symmetry_equiv_pos_as_xyz
1 x,y,z
2 -x,y,1/2-z
3 1/2+x,1/2+y,z
4 1/2-x,1/2+y,1/2-z
5 -x,-y,-z
6 x,-y,1/2+z
7 1/2-x,1/2-y,-z
8 1/2+x,1/2-y,1/2+z
_cell_length_a                   19.5642(9)
_cell_length_b                   9.5630(5)
_cell_length_c                   16.0572(8)
_cell_angle_alpha                90
_cell_angle_beta                 96.356(4)
_cell_angle_gamma                90
_cell_volume                     2985.71
loop_
_atom_site_label
_atom_site_type_symbol
_atom_site_fract_x
_atom_site_fract_y
_atom_site_fract_z
Fe1 Fe 0.5000 0.02912(4) 0.7500
C1 C 0.45895(12) 0.3861(2) 0.59151(14)
H1 H 0.4843 0.4622 0.5759
C2 C 0.48895(12) 0.2907(2) 0.64837(14)
H2 H 0.5344 0.3048 0.6703
C3 C 0.38973(12) 0.1637(2) 0.64219(15)
H3 H 0.3652 0.0884 0.6602
C4 C 0.35594(12) 0.2536(2) 0.58481(15)
H4 H 0.3102 0.2375 0.5645
C5 C 0.39092(12) 0.3695(2) 0.55717(14)
C6 C 0.35715(12) 0.4590(2) 0.49018(14)
C7 C 0.27725(14) 0.4668(3) 0.36305(17)
H5 H 0.2366 0.5094 0.3816
H6 H 0.2627 0.4052 0.3164
C8 C 0.32426(15) 0.5798(3) 0.33481(17)
H7 H 0.3629 0.5371 0.3115
H8 H 0.2993 0.6366 0.2916
C9 C 0.36693(12) 0.5994(2) 0.48209(15)
C10 C 0.39805(12) 0.6923(2) 0.54864(14)
C11 C 0.39010(12) 0.6778(2) 0.63353(15)
H9 H 0.3643 0.6042 0.6514
C12 C 0.42062(12) 0.7729(2) 0.69117(15)
H10 H 0.4146 0.7608 0.7474
C13 C 0.46513(12) 0.8965(2) 0.58799(14)
H11 H 0.4913 0.9709 0.5717
C14 C 0.43581(12) 0.8091(2) 0.52713(15)
H12 H 0.4409 0.8269 0.4712
N1 N 0.45571(10) 0.17752(19) 0.67387(12)
N2 N 0.31302(10) 0.3873(2) 0.43062(13)
H13 H 0.3073 0.2984 0.4341
N3 N 0.45862(10) 0.88203(18) 0.66992(12)
N4 N 0.34895(11) 0.6667(2) 0.40538(13)
H14 H 0.3524 0.7559 0.4005
S1 S 0.29500(3) -0.02096(7) 0.87969(4)
C15 C 0.36677(13) 0.0052(2) 0.83715(14)
N5 N 0.41742(10) 0.02492(19) 0.80809(12)
Fe1_2 Fe 0.5000 1.02912(4) 0.7500
C1A C 0.54105(12) 0.3861(2) 0.90849(14)
H1A H 0.5157 0.4622 0.9241
C2A C 0.51105(12) 0.2907(2) 0.85163(14)
H2A H 0.4656 0.3048 0.8297
C3A C 0.61027(12) 0.1637(2) 0.85781(15)
H3A H 0.6348 0.0884 0.8398
C4A C 0.64406(12) 0.2536(2) 0.91519(15)
H4A H 0.6898 0.2375 0.9355
C5A C 0.60908(12) 0.3695(2) 0.94283(14)
C6A C 0.64285(12) 0.4590(2) 1.00982(14)
C7A C 0.72275(14) 0.4668(3) 1.13695(17)
H5A H 0.7634 0.5094 1.1184
H6A H 0.7373 0.4052 1.1836
C8A C 0.67574(15) 0.5798(3) 1.16519(17)
H7A H 0.6371 0.5371 1.1885
H8A H 0.7007 0.6366 1.2084
C9A C 0.63307(12) 0.5994(2) 1.01791(15)
C10A C 0.60195(12) 0.6923(2) 0.95136(14)
C11A C 0.60990(12) 0.6778(2) 0.86647(15)
H9A H 0.6357 0.6042 0.8486
C12A C 0.57938(12) 0.7729(2) 0.80883(15)
H10A H 0.5854 0.7608 0.7526
C13A C 0.53487(12) 0.8965(2) 0.91201(14)
H11A H 0.5087 0.9709 0.9283
C14A C 0.56419(12) 0.8091(2) 0.97287(15)
H12A H 0.5591 0.8269 1.0288
N1A N 0.54429(10) 0.17752(19) 0.82613(12)
N2A N 0.68698(10) 0.3873(2) 1.06938(13)
H13A H 0.6927 0.2984 1.0659
N3A N 0.54138(10) 0.88203(18) 0.83008(12)
N3_2 N 0.45862(10) -0.11797(18) 0.66992(12)
N3A_2 N 0.54138(10) -0.11797(18) 0.83008(12)
N4A N 0.65105(11) 0.6667(2) 1.09462(13)
H14A H 0.6476 0.7559 1.0995
S1A S 0.70500(3) -0.02096(7) 0.62031(4)
C15A C 0.63323(13) 0.0052(2) 0.66285(14)
N5A N 0.58258(10) 0.02492(19) 0.69191(12)
loop_
_geom_bond_atom_site_label_1
_geom_bond_atom_site_label_2
_geom_bond_site_symmetry_1
_geom_bond_site_symmetry_2
Fe1 N1 1_555 1_555
C1 H1 1_555 1_555
C2 C1 1_555 1_555
H2 C2 1_555 1_555
C3 H3 1_555 1_555
C4 C3 1_555 1_555
H4 C4 1_555 1_555
C5 C1 1_555 1_555
C6 C5 1_555 1_555
C7 H5 1_555 1_555
H6 C7 1_555 1_555
C8 C7 1_555 1_555
H7 C8 1_555 1_555
H8 C8 1_555 1_555
C9 C6 1_555 1_555
C10 C9 1_555 1_555
C11 C10 1_555 1_555
H9 C11 1_555 1_555
C12 C11 1_555 1_555
H10 C12 1_555 1_555
C13 H11 1_555 1_555
C14 C10 1_555 1_555
H12 C14 1_555 1_555
N1 C2 1_555 1_555
N2 C6 1_555 1_555
H13 N2 1_555 1_555
N3 C12 1_555 1_555
N4 C8 1_555 1_555
H14 N4 1_555 1_555
S1 C15 1_555 1_555
C15 N5 1_555 1_555
N5 Fe1 1_555 1_555
Fe1_2 N3 1_555 1_555
C1A H1A 1_555 1_555
C2A C1A 1_555 1_555
H2A C2A 1_555 1_555
C3A H3A 1_555 1_555
C4A C3A 1_555 1_555
H4A C4A 1_555 1_555
C5A C1A 1_555 1_555
C6A C5A 1_555 1_555
C7A H5A 1_555 1_555
H6A C7A 1_555 1_555
C8A C7A 1_555 1_555
H7A C8A 1_555 1_555
H8A C8A 1_555 1_555
C9A C6A 1_555 1_555
C10A C9A 1_555 1_555
C11A C10A 1_555 1_555
H9A C11A 1_555 1_555
C12A C11A 1_555 1_555
H10A C12A 1_555 1_555
C13A H11A 1_555 1_555
C14A C10A 1_555 1_555
H12A C14A 1_555 1_555
N1A Fe1 1_555 1_555
N2A C6A 1_555 1_555
H13A N2A 1_555 1_555
N3A Fe1_2 1_555 1_555
N3_2 Fe1 1_555 1_555
N3A_2 Fe1 1_555 1_555
N4A C8A 1_555 1_555
H14A N4A 1_555 1_555
S1A C15A 1_555 1_555
C15A N5A 1_555 1_555
N5A Fe1 1_555 1_555
C3 N1 1_555 1_555
C4 C5 1_555 1_555
C7 N2 1_555 1_555
C9 N4 1_555 1_555
C13 C14 1_555 1_555
C13 N3 1_555 1_555
C2A N1A 1_555 1_555
C3A N1A 1_555 1_555
C4A C5A 1_555 1_555
C7A N2A 1_555 1_555
C9A N4A 1_555 1_555
C12A N3A 1_555 1_555
C13A C14A 1_555 1_555
C13A N3A 1_555 1_555

#END
