
#######################################################################
#
#                 Cambridge Crystallographic Data Centre
#                                CCDC 
#
#######################################################################
#
# If this CIF has been generated from an entry in the Cambridge 
# Structural Database, then it will include bibliographic, chemical, 
# crystal, experimental, refinement or atomic coordinate data resulting 
# from the CCDC's data processing and validation procedures.
#
#######################################################################

data_ITIJAX
_symmetry_cell_setting           monoclinic
_symmetry_space_group_name_H-M   'C 2/c'
_symmetry_Int_Tables_number      15
_space_group_name_Hall           '-C 2yn'
loop_
_symmetry_equiv_pos_site_id
_symmetry_equiv_pos_as_xyz
1 x,y,z
2 -x,y,1/2-z
3 1/2+x,1/2+y,z
4 1/2-x,1/2+y,1/2-z
5 -x,-y,-z
6 x,-y,1/2+z
7 1/2-x,1/2-y,-z
8 1/2+x,1/2-y,1/2+z
_cell_length_a                   24.799(4)
_cell_length_b                   9.6101(3)
_cell_length_c                   16.1899(13)
_cell_angle_alpha                90
_cell_angle_beta                 126.901(10)
_cell_angle_gamma                90
_cell_volume                     3085.46
loop_
_atom_site_label
_atom_site_type_symbol
_atom_site_fract_x
_atom_site_fract_y
_atom_site_fract_z
Zn1 Zn -0.5000 1.01963(3) -0.2500
C1 C -0.41543(11) 0.75784(19) -0.22714(16)
H1 H -0.4103 0.7438 -0.1659
C2 C -0.38474(11) 0.6659(2) -0.25205(16)
H2 H -0.3596 0.5921 -0.2082
C3 C -0.39140(10) 0.68363(19) -0.34368(16)
C4 C -0.42710(11) 0.8004(2) -0.40175(16)
H3 H -0.4308 0.8208 -0.4611
C5 C -0.45700(12) 0.8859(2) -0.37213(17)
H4 H -0.4819 0.9614 -0.4140
C6 C -0.36097(11) 0.5908(2) -0.37674(16)
C7 C -0.27215(15) 0.4515(2) -0.3975(3)
H5 H -0.2577 0.3890 -0.4278
H6 H -0.2323 0.4900 -0.3347
C8 C -0.31485(15) 0.5683(2) -0.4729(2)
H7 H -0.2876 0.6241 -0.4851
H8 H -0.3519 0.5291 -0.5384
C9 C -0.35275(11) 0.45071(19) -0.35927(18)
C10 C -0.38591(11) 0.36513(19) -0.32633(16)
C11 C -0.35184(11) 0.2559(2) -0.25794(18)
H9 H -0.3066 0.2405 -0.2285
C12 C -0.38462(11) 0.1705(2) -0.23355(18)
H10 H -0.3602 0.0991 -0.1863
C13 C -0.48276(10) 0.29010(19) -0.33929(16)
H11 H -0.5280 0.3023 -0.3678
C14 C -0.45345(11) 0.3816(2) -0.36636(16)
H12 H -0.4785 0.4546 -0.4113
N1 N -0.45229(9) 0.86640(16) -0.28627(13)
N2 N -0.34089(10) 0.65473(17) -0.43130(15)
H13 H -0.3439 0.7434 -0.4400
N3 N -0.31137(11) 0.37655(18) -0.37385(19)
H14 H -0.3092 0.2873 -0.3689
N4 N -0.44962(9) 0.18416(15) -0.27393(13)
S1 S -0.71067(4) 0.98203(7) -0.59728(6)
C15 C -0.63686(12) 1.00020(18) -0.48532(18)
N5 N -0.58484(10) 1.01524(18) -0.40799(14)
Zn1_2 Zn -0.5000 0.01963(3) -0.2500
C1A C -0.58457(11) 0.75784(19) -0.27286(16)
H1A H -0.5897 0.7438 -0.3341
C2A C -0.61526(11) 0.6659(2) -0.24795(16)
H2A H -0.6404 0.5921 -0.2918
C3A C -0.60860(10) 0.68363(19) -0.15632(16)
C4A C -0.57290(11) 0.8004(2) -0.09825(16)
H3A H -0.5692 0.8208 -0.0389
C5A C -0.54300(12) 0.8859(2) -0.12787(17)
H4A H -0.5181 0.9614 -0.0860
C6A C -0.63903(11) 0.5908(2) -0.12326(16)
C7A C -0.72785(15) 0.4515(2) -0.1025(3)
H5A H -0.7423 0.3890 -0.0722
H6A H -0.7677 0.4900 -0.1653
C8A C -0.68515(15) 0.5683(2) -0.0271(2)
H7A H -0.7124 0.6241 -0.0149
H8A H -0.6481 0.5291 0.0384
C9A C -0.64725(11) 0.45071(19) -0.14073(18)
C10A C -0.61409(11) 0.36513(19) -0.17367(16)
C11A C -0.64816(11) 0.2559(2) -0.24206(18)
H9A H -0.6934 0.2405 -0.2715
C12A C -0.61538(11) 0.1705(2) -0.26645(18)
H10A H -0.6398 0.0991 -0.3137
C13A C -0.51724(10) 0.29010(19) -0.16071(16)
H11A H -0.4720 0.3023 -0.1322
C14A C -0.54655(11) 0.3816(2) -0.13364(16)
H12A H -0.5215 0.4546 -0.0887
N1A N -0.54771(9) 0.86640(16) -0.21373(13)
N2A N -0.65911(10) 0.65473(17) -0.06870(15)
H13A H -0.6561 0.7434 -0.0600
N3A N -0.68863(11) 0.37655(18) -0.12615(19)
H14A H -0.6908 0.2873 -0.1311
N4A N -0.55038(9) 0.18416(15) -0.22607(13)
N4_2 N -0.44962(9) 1.18416(15) -0.27393(13)
N4A_2 N -0.55038(9) 1.18416(15) -0.22607(13)
S1A S -0.28933(4) 0.98203(7) 0.09728(6)
C15A C -0.36314(12) 1.00020(18) -0.01468(18)
N5A N -0.41516(10) 1.01524(18) -0.09201(14)
loop_
_geom_bond_atom_site_label_1
_geom_bond_atom_site_label_2
_geom_bond_site_symmetry_1
_geom_bond_site_symmetry_2
Zn1 N1 1_555 1_555
C1 H1 1_555 1_555
C2 C1 1_555 1_555
H2 C2 1_555 1_555
C3 C2 1_555 1_555
C4 C3 1_555 1_555
H3 C4 1_555 1_555
C5 C4 1_555 1_555
H4 C5 1_555 1_555
C6 C3 1_555 1_555
C7 H5 1_555 1_555
H6 C7 1_555 1_555
C8 C7 1_555 1_555
H7 C8 1_555 1_555
H8 C8 1_555 1_555
C9 C6 1_555 1_555
C10 C9 1_555 1_555
C11 C10 1_555 1_555
H9 C11 1_555 1_555
C12 C11 1_555 1_555
H10 C12 1_555 1_555
C13 H11 1_555 1_555
C14 C10 1_555 1_555
H12 C14 1_555 1_555
N1 C1 1_555 1_555
N2 C6 1_555 1_555
H13 N2 1_555 1_555
N3 C7 1_555 1_555
H14 N3 1_555 1_555
N4 C12 1_555 1_555
S1 C15 1_555 1_555
C15 N5 1_555 1_555
N5 Zn1 1_555 1_555
Zn1_2 N4 1_555 1_555
C1A H1A 1_555 1_555
C2A C1A 1_555 1_555
H2A C2A 1_555 1_555
C3A C2A 1_555 1_555
C4A C3A 1_555 1_555
H3A C4A 1_555 1_555
C5A C4A 1_555 1_555
H4A C5A 1_555 1_555
C6A C3A 1_555 1_555
C7A H5A 1_555 1_555
H6A C7A 1_555 1_555
C8A C7A 1_555 1_555
H7A C8A 1_555 1_555
H8A C8A 1_555 1_555
C9A C6A 1_555 1_555
C10A C9A 1_555 1_555
C11A C10A 1_555 1_555
H9A C11A 1_555 1_555
C12A C11A 1_555 1_555
H10A C12A 1_555 1_555
C13A H11A 1_555 1_555
C14A C10A 1_555 1_555
H12A C14A 1_555 1_555
N1A Zn1 1_555 1_555
N2A C6A 1_555 1_555
H13A N2A 1_555 1_555
N3A C7A 1_555 1_555
H14A N3A 1_555 1_555
N4A Zn1_2 1_555 1_555
N4_2 Zn1 1_555 1_555
N4A_2 Zn1 1_555 1_555
S1A C15A 1_555 1_555
C15A N5A 1_555 1_555
N5A Zn1 1_555 1_555
C5 N1 1_555 1_555
C8 N2 1_555 1_555
C9 N3 1_555 1_555
C13 C14 1_555 1_555
C13 N4 1_555 1_555
C1A N1A 1_555 1_555
C5A N1A 1_555 1_555
C8A N2A 1_555 1_555
C9A N3A 1_555 1_555
C12A N4A 1_555 1_555
C13A C14A 1_555 1_555
C13A N4A 1_555 1_555

#END
