
#######################################################################
#
#                 Cambridge Crystallographic Data Centre
#                                CCDC 
#
#######################################################################
#
# If this CIF has been generated from an entry in the Cambridge 
# Structural Database, then it will include bibliographic, chemical, 
# crystal, experimental, refinement or atomic coordinate data resulting 
# from the CCDC's data processing and validation procedures.
#
#######################################################################

data_ITIJEB
_symmetry_cell_setting           orthorhombic
_symmetry_space_group_name_H-M   'I b a 2'
_symmetry_Int_Tables_number      45
_space_group_name_Hall           'I 2 -2c'
loop_
_symmetry_equiv_pos_site_id
_symmetry_equiv_pos_as_xyz
1 x,y,z
2 -x,-y,z
3 1/2+x,1/2-y,z
4 1/2-x,1/2+y,z
5 1/2+x,1/2+y,1/2+z
6 1/2-x,1/2-y,1/2+z
7 x,-y,1/2+z
8 -x,y,1/2+z
_cell_length_a                   29.549(2)
_cell_length_b                   12.5168(8)
_cell_length_c                   18.6829(11)
_cell_angle_alpha                90
_cell_angle_beta                 90
_cell_angle_gamma                90
_cell_volume                     6910.04
loop_
_atom_site_label
_atom_site_type_symbol
_atom_site_fract_x
_atom_site_fract_y
_atom_site_fract_z
Fe1 Fe 0.14086(2) 0.66156(6) 0.29024(4)
C1 C 0.07791(19) 0.7045(5) 0.4245(3)
H1 H 0.1051 0.7269 0.4444
C2 C 0.0392(2) 0.7139(4) 0.4657(3)
H2 H 0.0406 0.7412 0.5119
C3 C -0.00156(19) 0.6818(4) 0.4367(3)
C4 C -0.00029(18) 0.6365(4) 0.3684(3)
H3 H -0.0267 0.6103 0.3479
C5 C 0.03924(18) 0.6304(4) 0.3318(3)
H4 H 0.0390 0.6006 0.2862
C6 C -0.0444(2) 0.6916(4) 0.4780(3)
H5 H -0.0442 0.7302 0.5205
C7 C -0.12059(19) 0.6686(5) 0.5029(2)
H6 H -0.1141 0.7246 0.5372
H7 H -0.1276 0.6039 0.5293
C8 C -0.16085(19) 0.7003(4) 0.4583(3)
H8 H -0.1671 0.6448 0.4234
H9 H -0.1872 0.7074 0.4889
C9 C -0.18304(19) 0.8706(4) 0.4215(3)
H10 H -0.2106 0.8573 0.4437
C10 C -0.17524(19) 0.9746(4) 0.3865(3)
C11 C -0.13541(19) 0.9959(4) 0.3506(3)
H11 H -0.1134 0.9433 0.3458
C12 C -0.12872(19) 1.0952(4) 0.3221(3)
H12 H -0.1015 1.1084 0.2989
C13 C -0.2073(2) 1.0539(4) 0.3899(3)
H13 H -0.2351 1.0422 0.4120
C14 C -0.19693(17) 1.1531(4) 0.3592(3)
H14 H -0.2184 1.2071 0.3628
N1 N 0.07873(15) 0.6655(4) 0.3582(2)
N2 N -0.08051(15) 0.6501(3) 0.4577(2)
N3 N -0.15284(15) 0.7998(4) 0.4218(2)
N4 N -0.15908(15) 1.1752(4) 0.3256(2)
S1 S 0.20372(5) 0.56812(13) 0.52049(8)
C15 C 0.18732(18) 0.5857(4) 0.4381(3)
N5 N 0.17616(16) 0.5991(4) 0.3793(3)
C16 C 0.2308(2) 0.5650(5) 0.2344(3)
H15 H 0.2258 0.5212 0.2738
C17 C 0.2665(2) 0.5404(5) 0.1910(3)
H16 H 0.2839 0.4796 0.1990
C18 C 0.2761(2) 0.6094(5) 0.1341(3)
C19 C 0.2484(2) 0.6958(4) 0.1253(3)
H17 H 0.2539 0.7434 0.0881
C20 C 0.21236(19) 0.7138(4) 0.1706(3)
H18 H 0.1945 0.7739 0.1635
C21 C 0.3151(2) 0.5911(5) 0.0863(3)
H19 H 0.3210 0.6391 0.0495
C22 C 0.3822(2) 0.5120(6) 0.0496(4)
H20 H 0.3886 0.4403 0.0327
H21 H 0.3780 0.5580 0.0084
C23 C 0.4204(2) 0.5515(5) 0.0940(3)
H22 H 0.4485 0.5451 0.0677
H23 H 0.4228 0.5093 0.1374
C24 C 0.40566(17) 0.6876(4) 0.1763(3)
H24 H 0.4075 0.6331 0.2100
C25 C 0.39572(18) 0.7955(4) 0.2007(3)
C26 C 0.3867(2) 0.8790(4) 0.1536(3)
H25 H 0.3871 0.8670 0.1045
C27 C 0.37738(18) 0.9788(5) 0.1796(3)
H26 H 0.3705 1.0330 0.1473
C28 C 0.38589(16) 0.9219(4) 0.2947(3)
H27 H 0.3860 0.9372 0.3434
C29 C 0.39418(17) 0.8192(4) 0.2739(3)
H28 H 0.3987 0.7659 0.3078
N6 N 0.20225(15) 0.6477(4) 0.2245(2)
N7 N 0.34029(17) 0.5116(4) 0.0946(3)
N8 N 0.41181(15) 0.6655(4) 0.1124(2)
N9 N 0.37764(15) 1.0016(4) 0.2494(2)
S2 S 0.01987(5) 0.80887(14) 0.16447(8)
C30 C 0.0688(2) 0.7638(4) 0.1872(3)
N10 N 0.10467(17) 0.7284(4) 0.2049(2)
Fe1A Fe -0.14086(2) 1.33844(6) 0.29024(4)
Fe1C Fe 0.35914(2) 1.16156(6) 0.29024(4)
Fe1C_2 Fe 0.35914(2) 0.16156(6) 0.29024(4)
C1A C -0.07791(19) 1.2955(5) 0.4245(3)
H1A H -0.1051 1.2731 0.4444
C2A C -0.0392(2) 1.2861(4) 0.4657(3)
H2A H -0.0406 1.2588 0.5119
C3A C 0.00156(19) 1.3182(4) 0.4367(3)
C4A C 0.00029(18) 1.3635(4) 0.3684(3)
H3A H 0.0267 1.3897 0.3479
C5A C -0.03924(18) 1.3696(4) 0.3318(3)
H4A H -0.0390 1.3994 0.2862
C6A C 0.0444(2) 1.3084(4) 0.4780(3)
H5A H 0.0442 1.2698 0.5205
C7A C 0.12059(19) 1.3314(5) 0.5029(2)
H6A H 0.1141 1.2754 0.5372
H7A H 0.1276 1.3961 0.5293
C8A C 0.16085(19) 1.2997(4) 0.4583(3)
H8A H 0.1671 1.3552 0.4234
H9A H 0.1872 1.2926 0.4889
C9A C 0.18304(19) 1.1294(4) 0.4215(3)
H10A H 0.2106 1.1427 0.4437
C10A C 0.17524(19) 1.0254(4) 0.3865(3)
C11A C 0.13541(19) 1.0041(4) 0.3506(3)
H11A H 0.1134 1.0567 0.3458
C12A C 0.12872(19) 0.9048(4) 0.3221(3)
H12A H 0.1015 0.8916 0.2989
C13A C 0.2073(2) 0.9461(4) 0.3899(3)
H13A H 0.2351 0.9578 0.4120
C14A C 0.19693(17) 0.8469(4) 0.3592(3)
H14A H 0.2184 0.7929 0.3628
N1A N -0.07873(15) 1.3345(4) 0.3582(2)
N2A N 0.08051(15) 1.3499(3) 0.4577(2)
N3A N 0.15284(15) 1.2002(4) 0.4218(2)
N4A N 0.15908(15) 0.8248(4) 0.3256(2)
S1A S -0.20372(5) 1.43188(13) 0.52049(8)
C15A C -0.18732(18) 1.4143(4) 0.4381(3)
N5A N -0.17616(16) 1.4009(4) 0.3793(3)
C16C C 0.2692(2) 0.0650(5) 0.2344(3)
H15C H 0.2742 0.0212 0.2738
C17C C 0.2335(2) 0.0404(5) 0.1910(3)
H16C H 0.2161 -0.0204 0.1990
C18C C 0.2239(2) 0.1094(5) 0.1341(3)
C19C C 0.2516(2) 0.1958(4) 0.1253(3)
H17C H 0.2461 0.2434 0.0881
C20C C 0.28764(19) 0.2138(4) 0.1706(3)
H18C H 0.3055 0.2739 0.1635
C21C C 0.1849(2) 0.0911(5) 0.0863(3)
H19C H 0.1790 0.1391 0.0495
C22C C 0.1178(2) 0.0120(6) 0.0496(4)
H20C H 0.1114 -0.0597 0.0327
H21C H 0.1220 0.0580 0.0084
C23C C 0.0796(2) 0.0515(5) 0.0940(3)
H22C H 0.0515 0.0451 0.0677
H23C H 0.0772 0.0093 0.1374
C24C C 0.09434(17) 0.1876(4) 0.1763(3)
H24C H 0.0925 0.1331 0.2100
C25C C 0.10428(18) 0.2955(4) 0.2007(3)
C26C C 0.1133(2) 0.3790(4) 0.1536(3)
H25C H 0.1129 0.3670 0.1045
C27C C 0.12262(18) 0.4788(5) 0.1796(3)
H26C H 0.1295 0.5330 0.1473
C28C C 0.11411(16) 0.4219(4) 0.2947(3)
H27C H 0.1140 0.4372 0.3434
C29C C 0.10582(17) 0.3192(4) 0.2739(3)
H28C H 0.1013 0.2659 0.3078
N6C N 0.29775(15) 0.1477(4) 0.2245(2)
N6A N -0.20225(15) 1.3523(4) 0.2245(2)
N7C N 0.15971(17) 0.0116(4) 0.0946(3)
N8C N 0.08819(15) 0.1655(4) 0.1124(2)
N9C N 0.12236(15) 0.5016(4) 0.2494(2)
N9B N -0.12236(15) 1.4984(4) 0.2494(2)
S2A S -0.01987(5) 1.19113(14) 0.16447(8)
C30A C -0.0688(2) 1.2362(4) 0.1872(3)
N10A N -0.10467(17) 1.2716(4) 0.2049(2)
O1 O 0.5000 1.0000 0.1853(6)
O2 O 0.0000 1.0000 0.3350(11)
O3? O 0.5000 1.0000 0.1166(6)
loop_
_geom_bond_atom_site_label_1
_geom_bond_atom_site_label_2
_geom_bond_site_symmetry_1
_geom_bond_site_symmetry_2
Fe1 N1 1_555 1_555
C1 H1 1_555 1_555
C2 C1 1_555 1_555
H2 C2 1_555 1_555
C3 C2 1_555 1_555
C4 C3 1_555 1_555
H3 C4 1_555 1_555
C5 C4 1_555 1_555
H4 C5 1_555 1_555
C6 C3 1_555 1_555
H5 C6 1_555 1_555
C7 H6 1_555 1_555
H7 C7 1_555 1_555
C8 C7 1_555 1_555
H8 C8 1_555 1_555
H9 C8 1_555 1_555
C9 H10 1_555 1_555
C10 C9 1_555 1_555
C11 C10 1_555 1_555
H11 C11 1_555 1_555
C12 C11 1_555 1_555
H12 C12 1_555 1_555
C13 C10 1_555 1_555
H13 C13 1_555 1_555
C14 C13 1_555 1_555
H14 C14 1_555 1_555
N1 C1 1_555 1_555
N2 C6 1_555 1_555
N3 C8 1_555 1_555
N4 C12 1_555 1_555
S1 C15 1_555 1_555
C15 N5 1_555 1_555
N5 Fe1 1_555 1_555
C16 H15 1_555 1_555
C17 C16 1_555 1_555
H16 C17 1_555 1_555
C18 C17 1_555 1_555
C19 C18 1_555 1_555
H17 C19 1_555 1_555
C20 C19 1_555 1_555
H18 C20 1_555 1_555
C21 C18 1_555 1_555
H19 C21 1_555 1_555
C22 H20 1_555 1_555
H21 C22 1_555 1_555
C23 C22 1_555 1_555
H22 C23 1_555 1_555
H23 C23 1_555 1_555
C24 H24 1_555 1_555
C25 C24 1_555 1_555
C26 C25 1_555 1_555
H25 C26 1_555 1_555
C27 C26 1_555 1_555
H26 C27 1_555 1_555
C28 H27 1_555 1_555
C29 C25 1_555 1_555
H28 C29 1_555 1_555
N6 Fe1 1_555 1_555
N7 C21 1_555 1_555
N8 C23 1_555 1_555
N9 C27 1_555 1_555
S2 C30 1_555 1_555
C30 N10 1_555 1_555
N10 Fe1 1_555 1_555
Fe1A N4 1_555 1_555
Fe1C N9 1_555 1_555
Fe1C_2 N6C 1_555 1_555
C1A H1A 1_555 1_555
C2A C1A 1_555 1_555
H2A C2A 1_555 1_555
C3A C2A 1_555 1_555
C4A C3A 1_555 1_555
H3A C4A 1_555 1_555
C5A C4A 1_555 1_555
H4A C5A 1_555 1_555
C6A C3A 1_555 1_555
H5A C6A 1_555 1_555
C7A H6A 1_555 1_555
H7A C7A 1_555 1_555
C8A C7A 1_555 1_555
H8A C8A 1_555 1_555
H9A C8A 1_555 1_555
C9A H10A 1_555 1_555
C10A C9A 1_555 1_555
C11A C10A 1_555 1_555
H11A C11A 1_555 1_555
C12A C11A 1_555 1_555
H12A C12A 1_555 1_555
C13A C10A 1_555 1_555
H13A C13A 1_555 1_555
C14A C13A 1_555 1_555
H14A C14A 1_555 1_555
N1A Fe1A 1_555 1_555
N2A C6A 1_555 1_555
N3A C8A 1_555 1_555
N4A Fe1 1_555 1_555
S1A C15A 1_555 1_555
C15A N5A 1_555 1_555
N5A Fe1A 1_555 1_555
C16C H15C 1_555 1_555
C17C C16C 1_555 1_555
H16C C17C 1_555 1_555
C18C C17C 1_555 1_555
C19C C18C 1_555 1_555
H17C C19C 1_555 1_555
C20C C19C 1_555 1_555
H18C C20C 1_555 1_555
C21C C18C 1_555 1_555
H19C C21C 1_555 1_555
C22C H20C 1_555 1_555
H21C C22C 1_555 1_555
C23C C22C 1_555 1_555
H22C C23C 1_555 1_555
H23C C23C 1_555 1_555
C24C H24C 1_555 1_555
C25C C24C 1_555 1_555
C26C C25C 1_555 1_555
H25C C26C 1_555 1_555
C27C C26C 1_555 1_555
H26C C27C 1_555 1_555
C28C H27C 1_555 1_555
C29C C25C 1_555 1_555
H28C C29C 1_555 1_555
N6C C16C 1_555 1_555
N6A Fe1A 1_555 1_555
N7C C21C 1_555 1_555
N8C C23C 1_555 1_555
N9C Fe1 1_555 1_555
N9B Fe1A 1_555 1_555
S2A C30A 1_555 1_555
C30A N10A 1_555 1_555
N10A Fe1A 1_555 1_555
C5 N1 1_555 1_555
C7 N2 1_555 1_555
C9 N3 1_555 1_555
C14 N4 1_555 1_555
C16 N6 1_555 1_555
C20 N6 1_555 1_555
C22 N7 1_555 1_555
C24 N8 1_555 1_555
C28 C29 1_555 1_555
C28 N9 1_555 1_555
C1A N1A 1_555 1_555
C5A N1A 1_555 1_555
C7A N2A 1_555 1_555
C9A N3A 1_555 1_555
C12A N4A 1_555 1_555
C14A N4A 1_555 1_555
C20C N6C 1_555 1_555
C22C N7C 1_555 1_555
C24C N8C 1_555 1_555
C27C N9C 1_555 1_555
C28C C29C 1_555 1_555
C28C N9C 1_555 1_555

#END
