
#######################################################################
#
#                 Cambridge Crystallographic Data Centre
#                                CCDC 
#
#######################################################################
#
# If this CIF has been generated from an entry in the Cambridge 
# Structural Database, then it will include bibliographic, chemical, 
# crystal, experimental, refinement or atomic coordinate data resulting 
# from the CCDC's data processing and validation procedures.
#
#######################################################################

data_ITIJIF
_symmetry_cell_setting           monoclinic
_symmetry_space_group_name_H-M   'P 21/c'
_symmetry_Int_Tables_number      14
_space_group_name_Hall           '-P 2ybc'
loop_
_symmetry_equiv_pos_site_id
_symmetry_equiv_pos_as_xyz
1 x,y,z
2 -x,1/2+y,1/2-z
3 -x,-y,-z
4 x,1/2-y,1/2+z
_cell_length_a                   11.4533(8)
_cell_length_b                   20.5026(15)
_cell_length_c                   9.3339(6)
_cell_angle_alpha                90
_cell_angle_beta                 93.353(6)
_cell_angle_gamma                90
_cell_volume                     2188.06
loop_
_atom_site_label
_atom_site_type_symbol
_atom_site_fract_x
_atom_site_fract_y
_atom_site_fract_z
Fe1 Fe -1.0000 0.0000 0.0000
C1 C -0.8131(4) -0.0848(2) -0.1599(5)
H1 H -0.8309 -0.0560 -0.2348
C2 C -0.7400(4) -0.1364(2) -0.1840(5)
H2 H -0.7104 -0.1417 -0.2739
C3 C -0.7103(4) -0.1801(2) -0.0757(5)
C4 C -0.7565(4) -0.1689(2) 0.0569(5)
H3 H -0.7383 -0.1966 0.1339
C5 C -0.8297(4) -0.1162(2) 0.0722(5)
H4 H -0.8600 -0.1093 0.1613
C6 C -0.6367(4) -0.2381(2) -0.1011(5)
H5 H -0.6022 -0.2419 -0.1885
C7 C -0.5493(4) -0.3383(2) -0.0451(5)
H6 H -0.5291 -0.3350 -0.1443
H7 H -0.5950 -0.3777 -0.0353
C8 C -0.4387(4) -0.3429(2) 0.0507(5)
H8 H -0.4576 -0.3402 0.1505
H9 H -0.4006 -0.3844 0.0359
C9 C -0.3367(4) -0.2474(2) 0.1136(5)
H10 H -0.3700 -0.2516 0.2017
C10 C -0.2583(4) -0.1917(2) 0.0909(5)
C11 C -0.2394(4) -0.1442(2) 0.1946(5)
H11 H -0.2753 -0.1472 0.2812
C12 C -0.1665(4) -0.0922(2) 0.1688(5)
H12 H -0.1544 -0.0609 0.2403
C13 C -0.1318(4) -0.1315(2) -0.0530(5)
H13 H -0.0956 -0.1271 -0.1392
C14 C -0.2010(4) -0.1853(2) -0.0360(5)
H14 H -0.2094 -0.2168 -0.1076
N1 N -0.8598(3) -0.07423(18) -0.0346(4)
N2 N -0.6194(3) -0.28200(19) -0.0091(4)
N3 N -0.3604(3) -0.28965(18) 0.0173(4)
N4 N -0.1127(3) -0.08437(17) 0.0472(4)
S1 S -1.19765(14) -0.00088(11) -0.47121(15)
C15 C -1.1116(4) -0.0047(2) -0.3245(5)
N5 N -1.0546(3) -0.00519(18) -0.2191(4)
Fe1_2 Fe 0.0000 0.0000 0.0000
Fe1_3 Fe -2.0000 0.0000 0.0000
C1_2 C -1.8131(4) -0.0848(2) -0.1599(5)
H1_2 H -1.8309 -0.0560 -0.2348
C2_2 C -1.7400(4) -0.1364(2) -0.1840(5)
H2_2 H -1.7104 -0.1417 -0.2739
C3_2 C -1.7103(4) -0.1801(2) -0.0757(5)
C4_2 C -1.7565(4) -0.1689(2) 0.0569(5)
H3_2 H -1.7383 -0.1966 0.1339
C5_2 C -1.8297(4) -0.1162(2) 0.0722(5)
H4_2 H -1.8600 -0.1093 0.1613
C6_2 C -1.6367(4) -0.2381(2) -0.1011(5)
H5_2 H -1.6022 -0.2419 -0.1885
C7_2 C -1.5493(4) -0.3383(2) -0.0451(5)
H6_2 H -1.5291 -0.3350 -0.1443
H7_2 H -1.5950 -0.3777 -0.0353
C8_2 C -1.4387(4) -0.3429(2) 0.0507(5)
H8_2 H -1.4576 -0.3402 0.1505
H9_2 H -1.4006 -0.3844 0.0359
C9_2 C -1.3367(4) -0.2474(2) 0.1136(5)
H10_2 H -1.3700 -0.2516 0.2017
C10_2 C -1.2583(4) -0.1917(2) 0.0909(5)
C11_2 C -1.2394(4) -0.1442(2) 0.1946(5)
H11_2 H -1.2753 -0.1472 0.2812
C12_2 C -1.1665(4) -0.0922(2) 0.1688(5)
H12_2 H -1.1544 -0.0609 0.2403
C13_2 C -1.1318(4) -0.1315(2) -0.0530(5)
H13_2 H -1.0956 -0.1271 -0.1392
C14_2 C -1.2010(4) -0.1853(2) -0.0360(5)
H14_2 H -1.2094 -0.2168 -0.1076
N1_2 N -1.8598(3) -0.07423(18) -0.0346(4)
N1B N -1.1402(3) 0.07423(18) 0.0346(4)
N2_2 N -1.6194(3) -0.28200(19) -0.0091(4)
N3_2 N -1.3604(3) -0.28965(18) 0.0173(4)
N4_2 N -1.1127(3) -0.08437(17) 0.0472(4)
N4B N -0.8873(3) 0.08437(17) -0.0472(4)
S1B S -0.80235(14) 0.00088(11) 0.47121(15)
C15B C -0.8884(4) 0.0047(2) 0.3245(5)
N5B N -0.9454(3) 0.00519(18) 0.2191(4)
Cl1 Cl -0.4195(2) -0.06645(12) -0.0869(2)
Cl2 Cl -0.55117(15) 0.00511(7) -0.30737(18)
C16 C -0.4225(6) 0.0021(3) -0.1970(8)
H15 H -0.3556 0.0012 -0.2562
H16 H -0.4167 0.0411 -0.1381
O1 O -0.9625(3) -0.2865(2) -0.1652(5)
C17 C -0.8978(14) -0.3283(5) -0.0503(11)
O2 O 0.0079(4) -0.2103(3) -0.3460(6)
C18 C -0.0634(12) -0.1604(4) -0.4541(8)
loop_
_geom_bond_atom_site_label_1
_geom_bond_atom_site_label_2
_geom_bond_site_symmetry_1
_geom_bond_site_symmetry_2
Fe1 N1 1_555 1_555
C1 H1 1_555 1_555
C2 C1 1_555 1_555
H2 C2 1_555 1_555
C3 C2 1_555 1_555
C4 C3 1_555 1_555
H3 C4 1_555 1_555
C5 C4 1_555 1_555
H4 C5 1_555 1_555
C6 C3 1_555 1_555
H5 C6 1_555 1_555
C7 H6 1_555 1_555
H7 C7 1_555 1_555
C8 C7 1_555 1_555
H8 C8 1_555 1_555
H9 C8 1_555 1_555
C9 H10 1_555 1_555
C10 C9 1_555 1_555
C11 C10 1_555 1_555
H11 C11 1_555 1_555
C12 C11 1_555 1_555
H12 C12 1_555 1_555
C13 H13 1_555 1_555
C14 C10 1_555 1_555
H14 C14 1_555 1_555
N1 C1 1_555 1_555
N2 C6 1_555 1_555
N3 C8 1_555 1_555
N4 C12 1_555 1_555
S1 C15 1_555 1_555
C15 N5 1_555 1_555
N5 Fe1 1_555 1_555
Cl1 C16 1_555 1_555
Cl2 C16 1_555 1_555
C16 H15 1_555 1_555
H16 C16 1_555 1_555
O1 C17 1_555 1_555
O2 C18 1_555 1_555
Fe1_2 N4 1_555 1_555
Fe1_3 N1_2 1_555 1_555
C1_2 H1_2 1_555 1_555
C2_2 C1_2 1_555 1_555
H2_2 C2_2 1_555 1_555
C3_2 C2_2 1_555 1_555
C4_2 C3_2 1_555 1_555
H3_2 C4_2 1_555 1_555
C5_2 C4_2 1_555 1_555
H4_2 C5_2 1_555 1_555
C6_2 C3_2 1_555 1_555
H5_2 C6_2 1_555 1_555
C7_2 H6_2 1_555 1_555
H7_2 C7_2 1_555 1_555
C8_2 C7_2 1_555 1_555
H8_2 C8_2 1_555 1_555
H9_2 C8_2 1_555 1_555
C9_2 H10_2 1_555 1_555
C10_2 C9_2 1_555 1_555
C11_2 C10_2 1_555 1_555
H11_2 C11_2 1_555 1_555
C12_2 C11_2 1_555 1_555
H12_2 C12_2 1_555 1_555
C13_2 H13_2 1_555 1_555
C14_2 C10_2 1_555 1_555
H14_2 C14_2 1_555 1_555
N1_2 C1_2 1_555 1_555
N1B Fe1 1_555 1_555
N2_2 C6_2 1_555 1_555
N3_2 C8_2 1_555 1_555
N4_2 Fe1 1_555 1_555
N4B Fe1 1_555 1_555
S1B C15B 1_555 1_555
C15B N5B 1_555 1_555
N5B Fe1 1_555 1_555
C5 N1 1_555 1_555
C7 N2 1_555 1_555
C9 N3 1_555 1_555
C13 C14 1_555 1_555
C13 N4 1_555 1_555
C5_2 N1_2 1_555 1_555
C7_2 N2_2 1_555 1_555
C9_2 N3_2 1_555 1_555
C12_2 N4_2 1_555 1_555
C13_2 C14_2 1_555 1_555
C13_2 N4_2 1_555 1_555

#END
