
#######################################################################
#
#                 Cambridge Crystallographic Data Centre
#                                CCDC 
#
#######################################################################
#
# If this CIF has been generated from an entry in the Cambridge 
# Structural Database, then it will include bibliographic, chemical, 
# crystal, experimental, refinement or atomic coordinate data resulting 
# from the CCDC's data processing and validation procedures.
#
#######################################################################

data_ITILAZ
_symmetry_cell_setting           monoclinic
_symmetry_space_group_name_H-M   'C 2/c'
_symmetry_Int_Tables_number      15
_space_group_name_Hall           '-C 2yn'
loop_
_symmetry_equiv_pos_site_id
_symmetry_equiv_pos_as_xyz
1 x,y,z
2 -x,y,1/2-z
3 1/2+x,1/2+y,z
4 1/2-x,1/2+y,1/2-z
5 -x,-y,-z
6 x,-y,1/2+z
7 1/2-x,1/2-y,-z
8 1/2+x,1/2-y,1/2+z
_cell_length_a                   20.618(4)
_cell_length_b                   10.3393(19)
_cell_length_c                   23.857(4)
_cell_angle_alpha                90
_cell_angle_beta                 92.033(6)
_cell_angle_gamma                90
_cell_volume                     5082.53
loop_
_atom_site_label
_atom_site_type_symbol
_atom_site_fract_x
_atom_site_fract_y
_atom_site_fract_z
C1 C 0.1026(2) 0.2108(4) 0.15970(18)
C2 C 0.1117(2) 0.1180(5) 0.11696(18)
C3 C 0.0615(2) 0.0338(5) 0.10202(19)
H1 H 0.0671 -0.0274 0.0740
C4 C 0.0035(3) 0.0413(5) 0.12891(19)
H2 H -0.0300 -0.0154 0.1191
C5 C -0.0050(3) 0.1332(5) 0.1706(2)
H3 H -0.0443 0.1374 0.1884
C6 C 0.0438(2) 0.2178(5) 0.18573(19)
H4 H 0.0374 0.2795 0.2134
C7 C 0.2036(2) 0.4521(4) 0.22460(17)
C8 C 0.1911(2) 0.5317(5) 0.27454(18)
C9 C 0.1148(3) 0.5738(5) 0.34472(19)
H5 H 0.1174 0.6665 0.3392
H6 H 0.1438 0.5499 0.3759
C10 C 0.0467(3) 0.5347(6) 0.3561(2)
H7 H 0.0184 0.5605 0.3252
H8 H 0.0332 0.5759 0.3898
H9 H 0.0446 0.4425 0.3605
C11 C 0.2628(2) 0.4648(4) 0.19525(17)
C12 C 0.3129(2) 0.5640(5) 0.21032(19)
H10 H 0.3338 0.5420 0.2456
H11 H 0.2926 0.6472 0.2132
H12 H 0.3447 0.5668 0.1818
C13 C 0.3424(2) 0.0981(4) -0.00648(16)
C14 C 0.3326(2) 0.1943(5) 0.03466(17)
C15 C 0.3814(2) 0.2847(4) 0.04629(18)
H13 H 0.3751 0.3498 0.0725
C16 C 0.4389(3) 0.2770(5) 0.01877(19)
H14 H 0.4715 0.3371 0.0267
C17 C 0.4489(3) 0.1799(5) -0.02087(19)
H15 H 0.4882 0.1756 -0.0387
C18 C 0.4012(2) 0.0909(5) -0.03360(19)
H16 H 0.4079 0.0266 -0.0600
C19 C 0.2450(2) -0.1589(4) -0.06275(17)
C20 C 0.2622(2) -0.2587(5) -0.10443(18)
C21 C 0.3330(2) -0.3099(5) -0.1776(2)
H17 H 0.3033 -0.3105 -0.2100
H18 H 0.3350 -0.3966 -0.1620
C22 C 0.3991(3) -0.2673(5) -0.1941(2)
H19 H 0.3973 -0.1787 -0.2061
H20 H 0.4133 -0.3205 -0.2243
H21 H 0.4290 -0.2754 -0.1626
C23 C 0.1825(2) -0.1583(5) -0.03880(18)
C24 C 0.1294(2) -0.2460(5) -0.0586(2)
H22 H 0.1314 -0.3250 -0.0375
H23 H 0.1341 -0.2649 -0.0977
H24 H 0.0882 -0.2049 -0.0536
N1 N 0.15407(19) 0.3711(4) 0.21099(14)
N2 N 0.29393(19) -0.0745(4) -0.05256(14)
N3 N 0.15735(19) 0.2909(4) 0.17023(14)
N4 N 0.28893(19) 0.0150(4) -0.01492(14)
O1 O 0.27693(15) 0.3940(3) 0.15363(11)
O2 O 0.22793(17) 0.6104(3) 0.29630(12)
O3 O 0.13213(16) 0.5055(3) 0.29415(13)
O4 O 0.16726(15) -0.0814(3) 0.00015(12)
O5 O 0.23683(18) -0.3645(3) -0.10936(14)
O6 O 0.31092(17) -0.2200(3) -0.13626(12)
O7 O 0.17033(16) 0.1186(3) 0.09385(12)
O8 O 0.27555(15) 0.1916(3) 0.06023(12)
Cu1 Cu 0.22822(3) 0.25159(6) 0.12474(2)
Cu2 Cu 0.22026(3) 0.04840(6) 0.03395(2)
O2C O 0.27207(17) 0.1104(3) 0.20370(12)
O5F O 0.26317(18) -0.1355(3) 0.10936(14)
Cu1C Cu 0.27178(3) 0.75159(6) 0.37526(2)
Cu2F Cu 0.27974(3) -0.54840(6) -0.03395(2)
loop_
_geom_bond_atom_site_label_1
_geom_bond_atom_site_label_2
_geom_bond_site_symmetry_1
_geom_bond_site_symmetry_2
C1 C2 1_555 1_555
C2 C3 1_555 1_555
C3 H1 1_555 1_555
C4 C3 1_555 1_555
H2 C4 1_555 1_555
C5 C4 1_555 1_555
H3 C5 1_555 1_555
C6 C1 1_555 1_555
H4 C6 1_555 1_555
C7 C8 1_555 1_555
C8 O2 1_555 1_555
C9 H5 1_555 1_555
H6 C9 1_555 1_555
C10 C9 1_555 1_555
H7 C10 1_555 1_555
H8 C10 1_555 1_555
H9 C10 1_555 1_555
C11 C7 1_555 1_555
C12 C11 1_555 1_555
H10 C12 1_555 1_555
H11 C12 1_555 1_555
H12 C12 1_555 1_555
C13 C14 1_555 1_555
C14 C15 1_555 1_555
C15 H13 1_555 1_555
C16 C15 1_555 1_555
H14 C16 1_555 1_555
C17 C16 1_555 1_555
H15 C17 1_555 1_555
C18 C13 1_555 1_555
H16 C18 1_555 1_555
C19 C20 1_555 1_555
C20 O5 1_555 1_555
C21 H17 1_555 1_555
H18 C21 1_555 1_555
C22 C21 1_555 1_555
H19 C22 1_555 1_555
H20 C22 1_555 1_555
H21 C22 1_555 1_555
C23 C19 1_555 1_555
C24 C23 1_555 1_555
H22 C24 1_555 1_555
H23 C24 1_555 1_555
H24 C24 1_555 1_555
N1 C7 1_555 1_555
N2 C19 1_555 1_555
N3 C1 1_555 1_555
N4 C13 1_555 1_555
O1 C11 1_555 1_555
O2 Cu1C 1_555 1_555
O3 C8 1_555 1_555
O4 C23 1_555 1_555
O5 Cu2F 1_555 1_555
O6 C20 1_555 1_555
O7 C2 1_555 1_555
O8 C14 1_555 1_555
Cu1 N3 1_555 1_555
Cu2 N4 1_555 1_555
O2C Cu1 1_555 1_555
O5F Cu2 1_555 1_555
C5 C6 1_555 1_555
C9 O3 1_555 1_555
C17 C18 1_555 1_555
C21 O6 1_555 1_555
N1 N3 1_555 1_555
N2 N4 1_555 1_555
O1 Cu1 1_555 1_555
O4 Cu2 1_555 1_555
O7 Cu1 1_555 1_555
O7 Cu2 1_555 1_555
O8 Cu1 1_555 1_555
O8 Cu2 1_555 1_555

#END
