
#######################################################################
#
#                 Cambridge Crystallographic Data Centre
#                                CCDC 
#
#######################################################################
#
# If this CIF has been generated from an entry in the Cambridge 
# Structural Database, then it will include bibliographic, chemical, 
# crystal, experimental, refinement or atomic coordinate data resulting 
# from the CCDC's data processing and validation procedures.
#
#######################################################################

data_ITILUT
_symmetry_cell_setting           monoclinic
_symmetry_space_group_name_H-M   'P 21/c'
_symmetry_Int_Tables_number      14
_space_group_name_Hall           '-P 2ybc'
loop_
_symmetry_equiv_pos_site_id
_symmetry_equiv_pos_as_xyz
1 x,y,z
2 -x,1/2+y,1/2-z
3 -x,-y,-z
4 x,1/2-y,1/2+z
_cell_length_a                   9.8153(18)
_cell_length_b                   15.232(3)
_cell_length_c                   9.3858(16)
_cell_angle_alpha                90
_cell_angle_beta                 90.938(6)
_cell_angle_gamma                90
_cell_volume                     1403.05
loop_
_atom_site_label
_atom_site_type_symbol
_atom_site_fract_x
_atom_site_fract_y
_atom_site_fract_z
C1 C 1.0069(4) 0.8179(3) 0.8189(4)
C2 C 0.9534(4) 0.7359(2) 0.8685(4)
C3 C 1.0013(4) 0.6568(2) 0.8141(4)
H1 H 0.9661 0.6040 0.8472
C4 C 1.1006(4) 0.6559(3) 0.7118(4)
H2 H 1.1330 0.6032 0.6756
C5 C 1.1508(4) 0.7353(3) 0.6642(4)
C6 C 1.1047(4) 0.8163(3) 0.7146(4)
H3 H 1.1394 0.8684 0.6784
C7 C 0.5219(4) 0.7453(3) 1.2804(4)
H4 H 0.5522 0.7465 1.3781
H5 H 0.4789 0.6900 1.2602
H6 H 0.4578 0.7920 1.2638
C8 C 0.6420(4) 0.7571(2) 1.1849(4)
C9 C 0.7102(4) 0.6793(3) 1.1295(4)
C10 C 0.6822(4) 0.5905(3) 1.1894(4)
C11 C 0.7128(5) 0.5118(3) 1.1004(5)
H7 H 0.8097 0.5059 1.0912
H8 H 0.6715 0.5187 1.0077
H9 H 0.6770 0.4602 1.1451
C12 C 0.7096(4) 0.9904(3) 1.2021(5)
H10 H 0.6608 1.0454 1.2109
H11 H 0.7690 0.9838 1.2850
C13 C 0.6091(4) 0.9148(3) 1.1950(5)
H12 H 0.5706 0.9049 1.2882
H13 H 0.5353 0.9286 1.1287
N1 N 0.8542(3) 0.7467(2) 0.9713(4)
N2 N 0.8021(3) 0.6756(2) 1.0266(3)
N3 N 1.2587(3) 0.7363(2) 0.5589(4)
N4 N 0.7918(4) 0.9914(2) 1.0712(4)
H14 H 0.8717 1.0189 1.0878
H15 H 0.7468 1.0199 1.0008
N5 N 0.6817(3) 0.8356(2) 1.1475(3)
O1 O 0.6391(3) 0.57968(18) 1.3094(3)
O2 O 1.3095(3) 0.6655(2) 0.5237(3)
O3 O 1.2983(3) 0.8076(2) 0.5130(3)
O4 O 0.9624(3) 0.89229(17) 0.8764(3)
Cu1 Cu 0.82396(5) 0.86707(3) 1.01619(5)
O1C O 0.6391(3) 0.92032(18) 0.8094(3)
Cu1C Cu 0.82396(5) 0.63293(3) 1.51619(5)
loop_
_geom_bond_atom_site_label_1
_geom_bond_atom_site_label_2
_geom_bond_site_symmetry_1
_geom_bond_site_symmetry_2
C1 C2 1_555 1_555
C2 C3 1_555 1_555
C3 H1 1_555 1_555
C4 C3 1_555 1_555
H2 C4 1_555 1_555
C5 C4 1_555 1_555
C6 C1 1_555 1_555
H3 C6 1_555 1_555
C7 H4 1_555 1_555
H5 C7 1_555 1_555
H6 C7 1_555 1_555
C8 C7 1_555 1_555
C9 C8 1_555 1_555
C10 C9 1_555 1_555
C11 C10 1_555 1_555
H7 C11 1_555 1_555
H8 C11 1_555 1_555
H9 C11 1_555 1_555
C12 H10 1_555 1_555
H11 C12 1_555 1_555
C13 C12 1_555 1_555
H12 C13 1_555 1_555
H13 C13 1_555 1_555
N1 C2 1_555 1_555
N2 C9 1_555 1_555
N3 C5 1_555 1_555
N4 C12 1_555 1_555
H14 N4 1_555 1_555
H15 N4 1_555 1_555
N5 C8 1_555 1_555
O1 C10 1_555 1_555
O2 N3 1_555 1_555
O3 N3 1_555 1_555
O4 C1 1_555 1_555
Cu1 N1 1_555 1_555
O1C Cu1 1_555 1_555
Cu1C O1 1_555 1_555
C5 C6 1_555 1_555
C13 N5 1_555 1_555
N1 N2 1_555 1_555
N4 Cu1 1_555 1_555
N5 Cu1 1_555 1_555
O4 Cu1 1_555 1_555

#END
