
#######################################################################
#
#                 Cambridge Crystallographic Data Centre
#                                CCDC 
#
#######################################################################
#
# If this CIF has been generated from an entry in the Cambridge 
# Structural Database, then it will include bibliographic, chemical, 
# crystal, experimental, refinement or atomic coordinate data resulting 
# from the CCDC's data processing and validation procedures.
#
#######################################################################

data_ITISUA
_symmetry_cell_setting           triclinic
_symmetry_space_group_name_H-M   'P -1'
_symmetry_Int_Tables_number      2
_space_group_name_Hall           '-P 1'
loop_
_symmetry_equiv_pos_site_id
_symmetry_equiv_pos_as_xyz
1 x,y,z
2 -x,-y,-z
_cell_length_a                   8.0268(5)
_cell_length_b                   8.9535(6)
_cell_length_c                   16.5775(15)
_cell_angle_alpha                95.856(3)
_cell_angle_beta                 97.077(4)
_cell_angle_gamma                112.650(4)
_cell_volume                     1076.5
loop_
_atom_site_label
_atom_site_type_symbol
_atom_site_fract_x
_atom_site_fract_y
_atom_site_fract_z
Co1 Co 0.798(2) 0.808(2) 0.8411(11)
Co2 Co 0.50000 0.50000 0.50000
Se1 Se 1.187(2) 0.890(3) 0.8968(8)
C1 C 1.201(2) 0.985(3) 0.9949(8)
N1 N 1.201(2) 1.045(3) 1.0565(8)
Se2 Se 0.8290(20) 0.551(3) 0.5559(6)
C2 C 0.8191(20) 0.624(3) 0.6538(6)
N2 N 0.8132(20) 0.669(3) 0.7163(6)
Se3 Se 0.454(2) 0.780(3) 0.7656(8)
C3 C 0.453(2) 0.672(3) 0.6735(8)
N3 N 0.449(2) 0.603(3) 0.6150(8)
N4 N 0.701(4) 0.581(3) 0.898(2)
C4 C 0.563(4) 0.447(3) 0.858(2)
C5 C 0.497(4) 0.306(3) 0.888(2)
C6 C 0.578(4) 0.311(3) 0.965(2)
C7 C 0.717(4) 0.442(3) 1.004(2)
C8 C 0.773(4) 0.575(3) 0.967(2)
N5 N 0.879(5) 1.046(4) 0.790(3)
C9 C 0.845(5) 1.173(4) 0.814(3)
C10 C 0.897(5) 1.314(4) 0.787(3)
C11 C 1.006(5) 1.325(4) 0.729(3)
C12 C 1.037(5) 1.200(4) 0.701(3)
C13 C 0.978(5) 1.065(4) 0.733(3)
N6 N 0.599(4) 0.752(4) 0.473(3)
C14 C 0.730(4) 0.882(4) 0.518(3)
C15 C 0.774(4) 1.035(4) 0.499(3)
C16 C 0.702(4) 1.044(4) 0.425(3)
C17 C 0.565(4) 0.914(4) 0.380(3)
C18 C 0.525(4) 0.767(4) 0.403(3)
Co1A Co 0.202(2) 0.192(2) 0.1589(11)
Co1A_2 Co 1.202(2) 1.192(2) 1.1589(11)
Co1_2 Co -0.202(2) -0.192(2) -0.1589(11)
Se1A Se -0.187(2) 0.110(3) 0.1032(8)
C1A C -0.201(2) 0.015(3) 0.0051(8)
N1A N 0.799(2) 0.955(3) 0.9435(8)
N1_2 N 0.201(2) 0.045(3) 0.0565(8)
N1A_2 N -0.201(2) -0.045(3) -0.0565(8)
Se2A Se 0.1710(20) 0.449(3) 0.4441(6)
C2A C 0.1809(20) 0.376(3) 0.3462(6)
N2A N 0.1868(20) 0.331(3) 0.2837(6)
Se3A Se 0.546(2) 0.220(3) 0.2344(8)
C3A C 0.547(2) 0.328(3) 0.3265(8)
N3A N 0.551(2) 0.397(3) 0.3850(8)
N4A N 0.299(4) 0.419(3) 0.102(2)
C4A C 0.437(4) 0.553(3) 0.142(2)
C5A C 0.503(4) 0.694(3) 0.112(2)
C6A C 0.422(4) 0.689(3) 0.035(2)
C7A C 0.283(4) 0.558(3) -0.004(2)
C8A C 0.227(4) 0.425(3) 0.033(2)
N5A N 0.121(5) -0.046(4) 0.210(3)
C9A C 0.155(5) -0.173(4) 0.186(3)
C10A C 0.103(5) -0.314(4) 0.213(3)
C11A C -0.006(5) -0.325(4) 0.271(3)
C12A C -0.037(5) -0.200(4) 0.299(3)
C13A C 0.022(5) -0.065(4) 0.267(3)
N6A N 0.401(4) 0.248(4) 0.527(3)
C14A C 0.270(4) 0.118(4) 0.482(3)
C15A C 0.226(4) -0.035(4) 0.501(3)
C16A C 0.298(4) -0.044(4) 0.575(3)
C17A C 0.435(4) 0.086(4) 0.620(3)
C18A C 0.475(4) 0.233(4) 0.597(3)
loop_
_geom_bond_atom_site_label_1
_geom_bond_atom_site_label_2
_geom_bond_site_symmetry_1
_geom_bond_site_symmetry_2
Co1 Se1 1_555 1_555
Co2 Se2 1_555 1_555
Se1 C1 1_555 1_555
C1 N1 1_555 1_555
N1 Co1A_2 1_555 1_555
Se2 C2 1_555 1_555
C2 N2 1_555 1_555
N2 Co1 1_555 1_555
Se3 Co1 1_555 1_555
C3 Se3 1_555 1_555
N3 Co2 1_555 1_555
N4 Co1 1_555 1_555
C4 N4 1_555 1_555
C5 C4 1_555 1_555
C6 C5 1_555 1_555
C7 C6 1_555 1_555
C8 N4 1_555 1_555
N5 Co1 1_555 1_555
C9 N5 1_555 1_555
C10 C9 1_555 1_555
C11 C10 1_555 1_555
C12 C11 1_555 1_555
C13 N5 1_555 1_555
N6 Co2 1_555 1_555
C14 N6 1_555 1_555
C15 C14 1_555 1_555
C16 C15 1_555 1_555
C17 C16 1_555 1_555
C18 N6 1_555 1_555
Co1A Se1A 1_555 1_555
Co1_2 N1A_2 1_555 1_555
Se1A C1A 1_555 1_555
C1A N1A_2 1_555 1_555
N1A Co1 1_555 1_555
N1_2 Co1A 1_555 1_555
Se2A Co2 1_555 1_555
C2A Se2A 1_555 1_555
N2A Co1A 1_555 1_555
Se3A Co1A 1_555 1_555
C3A Se3A 1_555 1_555
N3A Co2 1_555 1_555
N4A Co1A 1_555 1_555
C4A N4A 1_555 1_555
C5A C4A 1_555 1_555
C6A C5A 1_555 1_555
C7A C6A 1_555 1_555
C8A N4A 1_555 1_555
N5A Co1A 1_555 1_555
C9A N5A 1_555 1_555
C10A C9A 1_555 1_555
C11A C10A 1_555 1_555
C12A C11A 1_555 1_555
C13A N5A 1_555 1_555
N6A Co2 1_555 1_555
C14A N6A 1_555 1_555
C15A C14A 1_555 1_555
C16A C15A 1_555 1_555
C17A C16A 1_555 1_555
C18A N6A 1_555 1_555
C3 N3 1_555 1_555
C7 C8 1_555 1_555
C12 C13 1_555 1_555
C17 C18 1_555 1_555
C2A N2A 1_555 1_555
C3A N3A 1_555 1_555
C7A C8A 1_555 1_555
C12A C13A 1_555 1_555
C17A C18A 1_555 1_555

#END
