
#######################################################################
#
#                 Cambridge Crystallographic Data Centre
#                                CCDC 
#
#######################################################################
#
# If this CIF has been generated from an entry in the Cambridge 
# Structural Database, then it will include bibliographic, chemical, 
# crystal, experimental, refinement or atomic coordinate data resulting 
# from the CCDC's data processing and validation procedures.
#
#######################################################################

data_ITIWUE
_symmetry_cell_setting           tetragonal
_symmetry_space_group_name_H-M   'P 43 21 2'
_symmetry_Int_Tables_number      96
_space_group_name_Hall           'P 4nw 2abw'
loop_
_symmetry_equiv_pos_site_id
_symmetry_equiv_pos_as_xyz
1 x,y,z
2 -x,-y,1/2+z
3 1/2-y,1/2+x,3/4+z
4 1/2+y,1/2-x,1/4+z
5 1/2-x,1/2+y,3/4-z
6 1/2+x,1/2-y,1/4-z
7 y,x,-z
8 -y,-x,1/2-z
_cell_length_a                   15.8774(10)
_cell_length_b                   15.8774(10)
_cell_length_c                   21.542(3)
_cell_angle_alpha                90
_cell_angle_beta                 90
_cell_angle_gamma                90
_cell_volume                     5430.56
loop_
_atom_site_label
_atom_site_type_symbol
_atom_site_fract_x
_atom_site_fract_y
_atom_site_fract_z
Cl1 Cl 0.11877(16) 0.11877(16) 0.0000
O4 O 0.1815(12) 0.1119(13) -0.0388(10)
O5 O 0.0575(13) 0.144(2) -0.0356(7)
O4F O 0.1119(13) 0.1815(12) 0.0388(10)
O5F O 0.144(2) 0.0575(13) 0.0356(7)
C1 C -0.3599(4) 0.5884(4) 0.3596(3)
H1 H -0.3891 0.5384 0.3485
C2 C -0.2980(4) 0.6182(4) 0.3192(3)
H2 H -0.2861 0.5887 0.2818
C3 C -0.2538(4) 0.6912(4) 0.3338(3)
C4 C -0.2803(4) 0.7345(4) 0.3873(3)
H3 H -0.2562 0.7873 0.3979
C5 C -0.3420(4) 0.6990(4) 0.4244(3)
H4 H -0.3583 0.7285 0.4608
C6 C -0.1822(4) 0.7226(4) 0.2972(3)
C7 C -0.1651(5) 0.6937(4) 0.2357(3)
H5 H -0.2017 0.6537 0.2170
C8 C -0.0979(5) 0.7221(5) 0.2038(3)
H6 H -0.0881 0.7016 0.1630
C9 C -0.0421(5) 0.7810(4) 0.2292(3)
H7 H 0.0054 0.8002 0.2065
C10 C -0.0583(4) 0.8108(3) 0.2891(3)
C11 C -0.1277(4) 0.7815(4) 0.3221(3)
H8 H -0.1378 0.8024 0.3627
C12 C -0.0030(4) 0.8739(4) 0.3195(3)
C13 C 0.0924(4) 0.9249(3) 0.3817(3)
C14 C 0.1630(4) 0.9333(4) 0.4259(3)
C15 C 0.1653(5) 1.0049(5) 0.4626(3)
H9 H 0.1219 1.0458 0.4595
C16 C 0.2304(5) 1.0166(5) 0.5033(4)
H10 H 0.2329 1.0669 0.5272
C17 C 0.2929(5) 0.9560(4) 0.5101(4)
H11 H 0.3355 0.9627 0.5408
C18 C 0.2927(4) 0.8859(4) 0.4720(3)
C19 C 0.2258(4) 0.8741(4) 0.4305(3)
H12 H 0.2238 0.8249 0.4054
C20 C 0.3586(4) 0.8196(4) 0.4783(3)
C21 C 0.4016(4) 0.8076(4) 0.5332(3)
H13 H 0.3932 0.8446 0.5673
C22 C 0.4583(4) 0.7395(4) 0.5379(3)
H14 H 0.4866 0.7313 0.5763
C23 C 0.4343(4) 0.7003(4) 0.4387(3)
H15 H 0.4463 0.6633 0.4052
C24 C 0.3773(5) 0.7637(4) 0.4287(3)
H16 H 0.3509 0.7702 0.3894
Cd1 Cd -0.05884(2) 1.05884(2) 0.2500
N1 N -0.0071(3) 0.9565(3) 0.3169(2)
N2 N 0.0539(4) 0.9886(3) 0.3554(2)
N3 N 0.0583(4) 0.8525(3) 0.3600(2)
N4 N 0.0784(4) 0.7709(4) 0.3796(3)
H17 H 0.0916 0.7386 0.3461
H18 H 0.0333 0.7481 0.3995
N5 N -0.3803(3) 0.6256(4) 0.4122(3)
N6 N 0.4742(3) 0.6871(3) 0.4928(3)
C1G C 0.4116(4) 1.3599(4) 0.1404(3)
H1G H 0.4616 1.3891 0.1515
C2G C 0.3818(4) 1.2980(4) 0.1808(3)
H2G H 0.4113 1.2861 0.2182
C3G C 0.3088(4) 1.2538(4) 0.1662(3)
C4G C 0.2655(4) 1.2803(4) 0.1127(3)
H3G H 0.2127 1.2562 0.1021
C5G C 0.3010(4) 1.3420(4) 0.0756(3)
H4G H 0.2715 1.3583 0.0392
C6G C 0.2774(4) 1.1822(4) 0.2028(3)
C7G C 0.3063(4) 1.1651(5) 0.2643(3)
H5G H 0.3463 1.2017 0.2830
C8G C 0.2779(5) 1.0979(5) 0.2962(3)
H6G H 0.2984 1.0881 0.3370
C9G C 0.2190(4) 1.0421(5) 0.2708(3)
H7G H 0.1998 0.9946 0.2935
C10G C 0.1892(3) 1.0583(4) 0.2109(3)
C11G C 0.2185(4) 1.1277(4) 0.1779(3)
H8G H 0.1976 1.1378 0.1373
C12G C 0.1261(4) 1.0030(4) 0.1805(3)
C13G C 0.0751(3) 0.9076(4) 0.1183(3)
C14G C 0.0667(4) 0.8370(4) 0.0741(3)
C15G C -0.0049(5) 0.8347(5) 0.0374(3)
H9G H -0.0458 0.8781 0.0405
C16G C -0.0166(5) 0.7696(5) -0.0033(4)
H10G H -0.0669 0.7671 -0.0272
C17G C 0.0440(4) 0.7071(5) -0.0101(4)
H11G H 0.0373 0.6645 -0.0408
C18G C 0.1141(4) 0.7073(4) 0.0280(3)
C19G C 0.1259(4) 0.7742(4) 0.0695(3)
H12G H 0.1751 0.7762 0.0946
C20G C 0.1804(4) 0.6414(4) 0.0217(3)
C21G C 0.1924(4) 0.5984(4) -0.0332(3)
H13G H 0.1554 0.6068 -0.0673
C22G C 0.2605(4) 0.5417(4) -0.0379(3)
H14G H 0.2687 0.5134 -0.0763
C23G C 0.2997(4) 0.5657(4) 0.0613(3)
H15G H 0.3367 0.5537 0.0948
C24G C 0.2363(4) 0.6227(5) 0.0713(3)
H16G H 0.2298 0.6491 0.1106
Cd1C Cd -0.44116(2) 0.55884(2) 0.5000
Cd1C_2 Cd 0.55884(2) 0.55884(2) 0.5000
Cd1B Cd 0.44116(2) 1.44116(2) 0.0000
Cd1B_2 Cd 0.44116(2) 0.44116(2) 0.0000
N1G N 0.0435(3) 1.0071(3) 0.1831(2)
N2G N 0.0114(3) 0.9461(4) 0.1446(2)
N3G N 0.1475(3) 0.9417(4) 0.1400(2)
N4G N 0.2291(4) 0.9216(4) 0.1204(3)
H17G H 0.2614 0.9084 0.1539
H18G H 0.2519 0.9667 0.1005
N5G N 0.3744(4) 1.3803(3) 0.0878(3)
N5B N -0.1256(4) 1.1197(3) 0.1622(3)
N5D N -0.1197(3) 1.1256(4) 0.3378(3)
N6G N 0.3129(3) 0.5258(3) 0.0072(3)
N6B N -0.1871(3) 0.9742(3) 0.2428(3)
N6D N 0.0258(3) 1.1871(3) 0.2572(3)
I1 I 0.04842(18) 0.36829(18) 0.03223(14)
I2 I -0.0402(3) 0.5102(3) 0.0400(2)
Cl2? Cl 0.7463(3) 0.7180(3) 0.0030(5)
O1? O 0.7654(6) 0.7673(7) -0.0528(3)
O2? O 0.6764(7) 0.6764(7) 0.0000
O3? O 0.7953(17) 0.6480(13) 0.0035(15)
I3? I -0.0133(10) 0.4994(9) 0.0965(6)
loop_
_geom_bond_atom_site_label_1
_geom_bond_atom_site_label_2
_geom_bond_site_symmetry_1
_geom_bond_site_symmetry_2
Cl1 O4 1_555 1_555
C1 H1 1_555 1_555
C2 C1 1_555 1_555
H2 C2 1_555 1_555
C3 C2 1_555 1_555
C4 C3 1_555 1_555
H3 C4 1_555 1_555
C5 C4 1_555 1_555
H4 C5 1_555 1_555
C6 C3 1_555 1_555
C7 C6 1_555 1_555
H5 C7 1_555 1_555
C8 C7 1_555 1_555
H6 C8 1_555 1_555
C9 C8 1_555 1_555
H7 C9 1_555 1_555
C10 C9 1_555 1_555
C11 C6 1_555 1_555
H8 C11 1_555 1_555
C12 C10 1_555 1_555
C13 C14 1_555 1_555
C14 C15 1_555 1_555
C15 H9 1_555 1_555
C16 C15 1_555 1_555
H10 C16 1_555 1_555
C17 C16 1_555 1_555
H11 C17 1_555 1_555
C18 C17 1_555 1_555
C19 C14 1_555 1_555
H12 C19 1_555 1_555
C20 C18 1_555 1_555
C21 C20 1_555 1_555
H13 C21 1_555 1_555
C22 C21 1_555 1_555
H14 C22 1_555 1_555
C23 H15 1_555 1_555
C24 C20 1_555 1_555
H16 C24 1_555 1_555
Cd1 N1 1_555 1_555
I1 I2 1_555 1_555
N1 C12 1_555 1_555
N2 C13 1_555 1_555
N3 C12 1_555 1_555
N4 N3 1_555 1_555
H17 N4 1_555 1_555
H18 N4 1_555 1_555
N5 C1 1_555 1_555
N6 C22 1_555 1_555
O5 Cl1 1_555 1_555
C1G H1G 1_555 1_555
C2G C1G 1_555 1_555
H2G C2G 1_555 1_555
C3G C2G 1_555 1_555
C4G C3G 1_555 1_555
H3G C4G 1_555 1_555
C5G C4G 1_555 1_555
H4G C5G 1_555 1_555
C6G C3G 1_555 1_555
C7G C6G 1_555 1_555
H5G C7G 1_555 1_555
C8G C7G 1_555 1_555
H6G C8G 1_555 1_555
C9G C8G 1_555 1_555
H7G C9G 1_555 1_555
C10G C9G 1_555 1_555
C11G C6G 1_555 1_555
H8G C11G 1_555 1_555
C12G C10G 1_555 1_555
C13G C14G 1_555 1_555
C14G C15G 1_555 1_555
C15G H9G 1_555 1_555
C16G C15G 1_555 1_555
H10G C16G 1_555 1_555
C17G C16G 1_555 1_555
H11G C17G 1_555 1_555
C18G C17G 1_555 1_555
C19G C14G 1_555 1_555
H12G C19G 1_555 1_555
C20G C18G 1_555 1_555
C21G C20G 1_555 1_555
H13G C21G 1_555 1_555
C22G C21G 1_555 1_555
H14G C22G 1_555 1_555
C23G H15G 1_555 1_555
C24G C20G 1_555 1_555
H16G C24G 1_555 1_555
Cd1C N5 1_555 1_555
Cd1C_2 N6 1_555 1_555
Cd1B N5G 1_555 1_555
Cd1B_2 N6G 1_555 1_555
N1G Cd1 1_555 1_555
N2G C13G 1_555 1_555
N3G C12G 1_555 1_555
N4G N3G 1_555 1_555
H17G N4G 1_555 1_555
H18G N4G 1_555 1_555
N5G C1G 1_555 1_555
N5B Cd1 1_555 1_555
N5D Cd1 1_555 1_555
N6G C22G 1_555 1_555
N6B Cd1 1_555 1_555
N6D Cd1 1_555 1_555
O4F Cl1 1_555 1_555
O5F Cl1 1_555 1_555
C5 N5 1_555 1_555
C10 C11 1_555 1_555
C13 N3 1_555 1_555
C18 C19 1_555 1_555
C23 C24 1_555 1_555
C23 N6 1_555 1_555
N1 N2 1_555 1_555
C5G N5G 1_555 1_555
C10G C11G 1_555 1_555
C12G N1G 1_555 1_555
C13G N3G 1_555 1_555
C18G C19G 1_555 1_555
C23G C24G 1_555 1_555
C23G N6G 1_555 1_555
N1G N2G 1_555 1_555

#END
