
#######################################################################
#
#                 Cambridge Crystallographic Data Centre
#                                CCDC 
#
#######################################################################
#
# If this CIF has been generated from an entry in the Cambridge 
# Structural Database, then it will include bibliographic, chemical, 
# crystal, experimental, refinement or atomic coordinate data resulting 
# from the CCDC's data processing and validation procedures.
#
#######################################################################

data_ITIZUH
_symmetry_cell_setting           orthorhombic
_symmetry_space_group_name_H-M   'P b c n'
_symmetry_Int_Tables_number      60
_space_group_name_Hall           '-P 2n 2ab'
loop_
_symmetry_equiv_pos_site_id
_symmetry_equiv_pos_as_xyz
1 x,y,z
2 1/2-x,1/2-y,1/2+z
3 -x,y,1/2-z
4 1/2+x,1/2-y,-z
5 -x,-y,-z
6 1/2+x,1/2+y,1/2-z
7 x,-y,1/2+z
8 1/2-x,1/2+y,z
_cell_length_a                   32.2839(13)
_cell_length_b                   12.9498(5)
_cell_length_c                   17.7145(6)
_cell_angle_alpha                90
_cell_angle_beta                 90
_cell_angle_gamma                90
_cell_volume                     7405.9
loop_
_atom_site_label
_atom_site_type_symbol
_atom_site_fract_x
_atom_site_fract_y
_atom_site_fract_z
C1 C 0.2508(5) -0.3361(12) 0.4168(11)
C2 C 0.2521(7) -0.239(3) 0.4017(9)
O1 O 0.0989(2) -0.1228(7) -0.0416(5)
O2 O 0.23887(19) 0.5156(7) 0.1868(5)
Zn1 Zn 0.10736(2) 0.24546(6) 0.38104(4)
Zn2 Zn -0.03387(2) 0.41321(5) 0.12729(4)
Zn3 Zn -0.00612(2) 0.19330(6) 0.04738(5)
Zn4 Zn 0.0000 -0.00408(9) 0.2500
O3 O 0.02612(14) 0.4183(4) 0.1205(3)
O4 O 0.04045(13) 0.2595(3) 0.3754(2)
O5 O 0.05917(16) 0.5336(4) -0.0311(2)
O6 O 0.00994(14) 0.0333(4) 0.1391(3)
O7 O 0.05818(15) 0.4597(4) 0.2779(2)
C3 C 0.09057(19) 0.5015(5) 0.1270(4)
C4 C 0.0439(2) 0.5056(6) 0.1284(4)
O8 O 0.02674(15) 0.5907(4) 0.1306(3)
C5 C 0.1121(2) 0.5378(5) 0.0645(4)
C6 C 0.1131(2) 0.4671(5) 0.1900(4)
C7 C 0.0967(2) -0.2630(6) 0.3479(5)
C8 C 0.0935(2) 0.4261(6) 0.2613(4)
O9 O 0.01429(16) 0.3105(4) -0.0192(3)
H1 H 0.0247 0.3555 0.0072
O10 O 0.04845(16) 0.1211(4) 0.2588(3)
C9 C 0.0837(2) 0.0016(5) 0.1344(4)
C10 C 0.1038(2) 0.0283(5) 0.2012(4)
C11 C 0.1013(2) -0.0733(6) 0.0851(5)
C12 C 0.0620(2) -0.1034(6) 0.3554(4)
H2 H 0.0566 -0.0431 0.3823
N1 N 0.32771(19) -0.2709(5) 0.3921(3)
O11 O 0.04869(14) 0.1290(4) 0.0624(3)
O12 O 0.1064(2) 0.6562(7) -0.0317(4)
O13 O 0.04040(16) -0.1151(4) 0.0213(3)
C13 C 0.1370(2) -0.1208(6) 0.1050(5)
H3 H 0.1485 -0.1706 0.0735
C14 C 0.1405(2) -0.0225(6) 0.2187(5)
H4 H 0.1544 -0.0059 0.2631
C15 C 0.1564(2) 0.4733(6) 0.1898(4)
H5 H 0.1715 0.4510 0.2313
C16 C 0.1760(2) 0.5122(6) 0.1281(5)
C17 C 0.0442(2) 0.0581(6) 0.1112(4)
C18 C 0.0877(3) -0.1723(6) 0.3865(5)
H6 H 0.0995 -0.1595 0.4334
N2 N 0.04307(18) -0.1149(4) 0.2878(3)
O14 O 0.11421(17) 0.3685(5) 0.3015(4)
O15 O 0.11300(18) 0.1475(6) 0.2958(4)
C19 C 0.0864(3) 0.1038(6) 0.2559(4)
C20 C 0.1252(2) -0.3449(6) 0.3838(5)
C21 C 0.1546(2) 0.5430(6) 0.0643(4)
H7 H 0.1687 0.5668 0.0220
C22 C 0.1565(2) -0.0955(6) 0.1724(5)
N3 N 0.2214(2) 0.5203(6) 0.1277(5)
C23 C 0.0785(3) -0.1071(6) 0.0161(5)
O16 O 0.2088(2) -0.1333(8) 0.2559(5)
O17 O 0.23872(19) 0.5351(7) 0.0670(4)
C24 C 0.0784(3) -0.2764(6) 0.2791(5)
H8 H 0.0834 -0.3358 0.2511
O18 O 0.2073(3) -0.2168(7) 0.1499(6)
N4 N 0.1941(3) -0.1529(7) 0.1939(7)
C25 C 0.0525(3) -0.2011(6) 0.2518(5)
H9 H 0.0407 -0.2115 0.2045
C26 C 0.1712(3) -0.3060(10) 0.3726(7)
C27 C 0.2000(4) -0.3724(15) 0.4121(10)
C28 C 0.0905(2) 0.5770(6) -0.0053(4)
C29 C 0.3034(4) -0.217(2) 0.4095(17)
C30 C 0.3138(5) -0.3761(15) 0.4085(10)
C31 C 0.2712(6) -0.397(3) 0.397(2)
C1B C -0.2508(5) -0.3361(12) 0.0832(11)
C2B C -0.2521(7) -0.239(3) 0.0983(9)
O1B O -0.0989(2) -0.1228(7) 0.5416(5)
O1F O 0.0989(2) 0.1228(7) 0.4584(5)
O1D O -0.0989(2) 0.1228(7) 0.0416(5)
O2F O 0.23887(19) 0.4844(7) 0.6868(5)
Zn1B Zn -0.10736(2) 0.24546(6) 0.11896(4)
Zn1F Zn 0.10736(2) -0.24546(6) -0.11896(4)
Zn1G Zn 0.39264(2) -0.25454(6) 0.38104(4)
Zn1F_2 Zn 0.10736(2) 0.75454(6) -0.11896(4)
Zn1D Zn -0.10736(2) -0.24546(6) 0.61896(4)
Zn1E Zn -0.39264(2) -0.25454(6) 0.11896(4)
Zn1F_3 Zn 0.10736(2) 0.75454(6) 0.88104(4)
Zn2F Zn -0.03387(2) 0.58679(5) 0.62729(4)
Zn2B Zn 0.03387(2) 0.41321(5) 0.37271(4)
Zn2D Zn 0.03387(2) 0.58679(5) -0.12729(4)
Zn2D_2 Zn 0.03387(2) 0.58679(5) 0.87271(4)
Zn3B Zn 0.00612(2) 0.19330(6) 0.45262(5)
Zn3D Zn 0.00612(2) -0.19330(6) -0.04738(5)
Zn3F Zn -0.00612(2) -0.19330(6) 0.54738(5)
O3F O 0.02612(14) 0.5817(4) 0.6205(3)
O4B O -0.04045(13) 0.2595(3) 0.1246(2)
O4D O -0.04045(13) 0.7405(3) 0.6246(2)
O5F O 0.05917(16) 0.4664(4) 0.4689(2)
O5D O -0.05917(16) 0.4664(4) 0.0311(2)
O5B O -0.05917(16) 0.5336(4) 0.5311(2)
O6B O -0.00994(14) 0.0333(4) 0.3609(3)
O7F O 0.05818(15) 0.5403(4) 0.7779(2)
O7B O -0.05818(15) 0.4597(4) 0.2221(2)
O7D O -0.05818(15) 0.5403(4) 0.7221(2)
C3F C 0.09057(19) 0.4985(5) 0.6270(4)
C4F C 0.0439(2) 0.4944(6) 0.6284(4)
O8F O 0.02674(15) 0.4093(4) 0.6306(3)
C5F C 0.1121(2) 0.4622(5) 0.5645(4)
C6F C 0.1131(2) 0.5329(5) 0.6900(4)
C7B C -0.0967(2) -0.2630(6) 0.1521(5)
C8F C 0.0935(2) 0.5739(6) 0.7613(4)
O9B O -0.01429(16) 0.3105(4) 0.5192(3)
H1B H -0.0247 0.3555 0.4928
O10B O -0.04845(16) 0.1211(4) 0.2412(3)
C9B C -0.0837(2) 0.0016(5) 0.3656(4)
C10B C -0.1038(2) 0.0283(5) 0.2988(4)
C11B C -0.1013(2) -0.0733(6) 0.4149(5)
C12B C -0.0620(2) -0.1034(6) 0.1446(4)
H2B H -0.0566 -0.0431 0.1177
N1B N -0.32771(19) -0.2709(5) 0.1079(3)
N1G N 0.17229(19) 0.2291(5) 0.3921(3)
N1E N -0.17229(19) 0.2291(5) 0.1079(3)
O11B O -0.04869(14) 0.1290(4) 0.4376(3)
O12F O 0.1064(2) 0.3438(7) 0.4683(4)
O12D O -0.1064(2) 0.3438(7) 0.0317(4)
O13B O -0.04040(16) -0.1151(4) 0.4787(3)
O13D O -0.04040(16) 0.1151(4) -0.0213(3)
O13F O 0.04040(16) 0.1151(4) 0.5213(3)
C13B C -0.1370(2) -0.1208(6) 0.3950(5)
H3B H -0.1485 -0.1706 0.4265
C14B C -0.1405(2) -0.0225(6) 0.2813(5)
H4B H -0.1544 -0.0059 0.2369
C15F C 0.1564(2) 0.5267(6) 0.6898(4)
H5F H 0.1715 0.5490 0.7313
C16F C 0.1760(2) 0.4878(6) 0.6281(5)
C17B C -0.0442(2) 0.0581(6) 0.3888(4)
C18B C -0.0877(3) -0.1723(6) 0.1135(5)
H6B H -0.0995 -0.1595 0.0666
N2B N -0.04307(18) -0.1149(4) 0.2122(3)
O14F O 0.11421(17) 0.6315(5) 0.8015(4)
O14B O -0.11421(17) 0.3685(5) 0.1985(4)
O15B O -0.11300(18) 0.1475(6) 0.2042(4)
C19B C -0.0864(3) 0.1038(6) 0.2441(4)
C20B C -0.1252(2) -0.3449(6) 0.1162(5)
C21F C 0.1546(2) 0.4570(6) 0.5643(4)
H7F H 0.1687 0.4332 0.5220
C22B C -0.1565(2) -0.0955(6) 0.3276(5)
N3F N 0.2214(2) 0.4797(6) 0.6277(5)
C23B C -0.0785(3) -0.1071(6) 0.4839(5)
O16B O -0.2088(2) -0.1333(8) 0.2441(5)
O17F O 0.23872(19) 0.4649(7) 0.5670(4)
C24B C -0.0784(3) -0.2764(6) 0.2209(5)
H8B H -0.0834 -0.3358 0.2489
O18B O -0.2073(3) -0.2168(7) 0.3501(6)
N4B N -0.1941(3) -0.1529(7) 0.3061(7)
C25B C -0.0525(3) -0.2011(6) 0.2482(5)
H9B H -0.0407 -0.2115 0.2955
C26B C -0.1712(3) -0.3060(10) 0.1274(7)
C27B C -0.2000(4) -0.3724(15) 0.0879(10)
C28F C 0.0905(2) 0.4230(6) 0.4947(4)
C29B C -0.3034(4) -0.217(2) 0.0905(17)
C30B C -0.3138(5) -0.3761(15) 0.0915(10)
C31B C -0.2712(6) -0.397(3) 0.103(2)
loop_
_geom_bond_atom_site_label_1
_geom_bond_atom_site_label_2
_geom_bond_site_symmetry_1
_geom_bond_site_symmetry_2
C1 C2 1_555 1_555
C2 C29 1_555 1_555
O1 C23 1_555 1_555
O2 N3 1_555 1_555
Zn1 O4 1_555 1_555
Zn2 O3 1_555 1_555
Zn3 O9 1_555 1_555
Zn4 O6 1_555 1_555
O3 C4 1_555 1_555
O4 Zn2B 1_555 1_555
O5 C28 1_555 1_555
O6 C17 1_555 1_555
O7 C8 1_555 1_555
C3 C4 1_555 1_555
C4 O8 1_555 1_555
C5 C3 1_555 1_555
C6 C3 1_555 1_555
C7 C18 1_555 1_555
C8 C6 1_555 1_555
O9 H1 1_555 1_555
O10 Zn4 1_555 1_555
C9 C10 1_555 1_555
C10 C14 1_555 1_555
C11 C9 1_555 1_555
C12 H2 1_555 1_555
N1 C29 1_555 1_555
O11 Zn3 1_555 1_555
O12 C28 1_555 1_555
O13 C23 1_555 1_555
C13 C11 1_555 1_555
H3 C13 1_555 1_555
C14 H4 1_555 1_555
C15 C6 1_555 1_555
H5 C15 1_555 1_555
C16 C15 1_555 1_555
C17 C9 1_555 1_555
C18 C12 1_555 1_555
H6 C18 1_555 1_555
N2 Zn4 1_555 1_555
O14 Zn1 1_555 1_555
O15 Zn1 1_555 1_555
C19 O10 1_555 1_555
C20 C7 1_555 1_555
C21 C5 1_555 1_555
H7 C21 1_555 1_555
C22 C13 1_555 1_555
N3 C16 1_555 1_555
C23 C11 1_555 1_555
O16 N4 1_555 1_555
O17 N3 1_555 1_555
C24 C7 1_555 1_555
H8 C24 1_555 1_555
O18 N4 1_555 1_555
N4 C22 1_555 1_555
C25 N2 1_555 1_555
H9 C25 1_555 1_555
C26 C20 1_555 1_555
C27 C1 1_555 1_555
C28 C5 1_555 1_555
C30 N1 1_555 1_555
C31 C1 1_555 1_555
C1B C2B 1_555 1_555
C2B C29B 1_555 1_555
O1B Zn1D 1_555 1_555
O1F Zn1 1_555 1_555
O1D Zn1B 1_555 1_555
O2F N3F 1_555 1_555
Zn1B O4B 1_555 1_555
Zn1F O1 1_555 1_555
Zn1G N1 1_555 1_555
Zn1F_2 O12 1_555 1_555
Zn1E N1B 1_555 1_555
Zn1F_3 O14F 1_555 1_555
Zn2F O3F 1_555 1_555
Zn2B O7 1_555 1_555
Zn2D O5 1_555 1_555
Zn2D_2 O7F 1_555 1_555
Zn3B O4 1_555 1_555
Zn3D O13 1_555 1_555
Zn3F O13B 1_555 1_555
O3F C4F 1_555 1_555
O4B Zn2 1_555 1_555
O4D Zn2F 1_555 1_555
O5F Zn2B 1_555 1_555
O5D Zn2 1_555 1_555
O5B Zn2F 1_555 1_555
O6B Zn4 1_555 1_555
O7F C8F 1_555 1_555
O7B Zn2 1_555 1_555
O7D Zn2F 1_555 1_555
C3F C4F 1_555 1_555
C4F O8F 1_555 1_555
C5F C3F 1_555 1_555
C6F C3F 1_555 1_555
C7B C18B 1_555 1_555
C8F C6F 1_555 1_555
O9B Zn3B 1_555 1_555
H1B O9B 1_555 1_555
O10B Zn4 1_555 1_555
C9B C10B 1_555 1_555
C10B C14B 1_555 1_555
C11B C9B 1_555 1_555
C12B H2B 1_555 1_555
N1B C29B 1_555 1_555
N1G Zn1 1_555 1_555
N1E Zn1B 1_555 1_555
O11B Zn3B 1_555 1_555
O12F Zn1 1_555 1_555
O12D Zn1B 1_555 1_555
O13B C23B 1_555 1_555
O13D Zn3 1_555 1_555
O13F Zn3B 1_555 1_555
C13B C11B 1_555 1_555
H3B C13B 1_555 1_555
C14B H4B 1_555 1_555
C15F C6F 1_555 1_555
H5F C15F 1_555 1_555
C16F C15F 1_555 1_555
C17B O6B 1_555 1_555
C18B C12B 1_555 1_555
H6B C18B 1_555 1_555
N2B Zn4 1_555 1_555
O14F C8F 1_555 1_555
O14B Zn1B 1_555 1_555
O15B Zn1B 1_555 1_555
C19B O10B 1_555 1_555
C20B C7B 1_555 1_555
C21F C5F 1_555 1_555
H7F C21F 1_555 1_555
C22B C13B 1_555 1_555
N3F C16F 1_555 1_555
C23B O1B 1_555 1_555
O16B N4B 1_555 1_555
O17F N3F 1_555 1_555
C24B C7B 1_555 1_555
H8B C24B 1_555 1_555
O18B N4B 1_555 1_555
N4B C22B 1_555 1_555
C25B N2B 1_555 1_555
H9B C25B 1_555 1_555
C26B C20B 1_555 1_555
C27B C1B 1_555 1_555
C28F O5F 1_555 1_555
C30B N1B 1_555 1_555
C31B C1B 1_555 1_555
Zn3 O4B 1_555 1_555
C8 O14 1_555 1_555
C10 C19 1_555 1_555
C12 N2 1_555 1_555
O11 C17 1_555 1_555
C14 C22 1_555 1_555
C16 C21 1_555 1_555
O15 C19 1_555 1_555
C24 C25 1_555 1_555
C26 C27 1_555 1_555
C30 C31 1_555 1_555
C5F C28F 1_555 1_555
C9B C17B 1_555 1_555
C10B C19B 1_555 1_555
C11B C23B 1_555 1_555
C12B N2B 1_555 1_555
O11B C17B 1_555 1_555
O12F C28F 1_555 1_555
C14B C22B 1_555 1_555
C16F C21F 1_555 1_555
O15B C19B 1_555 1_555
C24B C25B 1_555 1_555
C26B C27B 1_555 1_555
C30B C31B 1_555 1_555

#END
