
#######################################################################
#
#                 Cambridge Crystallographic Data Centre
#                                CCDC 
#
#######################################################################
#
# If this CIF has been generated from an entry in the Cambridge 
# Structural Database, then it will include bibliographic, chemical, 
# crystal, experimental, refinement or atomic coordinate data resulting 
# from the CCDC's data processing and validation procedures.
#
#######################################################################

data_ITOBAV
_symmetry_cell_setting           monoclinic
_symmetry_space_group_name_H-M   'P 21/c'
_symmetry_Int_Tables_number      14
_space_group_name_Hall           '-P 2ybc'
loop_
_symmetry_equiv_pos_site_id
_symmetry_equiv_pos_as_xyz
1 x,y,z
2 -x,1/2+y,1/2-z
3 -x,-y,-z
4 x,1/2-y,1/2+z
_cell_length_a                   15.5637(4)
_cell_length_b                   11.7879(3)
_cell_length_c                   7.4161(2)
_cell_angle_alpha                90
_cell_angle_beta                 94.692(3)
_cell_angle_gamma                90
_cell_volume                     1356.02
loop_
_atom_site_label
_atom_site_type_symbol
_atom_site_fract_x
_atom_site_fract_y
_atom_site_fract_z
Cd1 Cd 0.253572(13) 0.299627(16) 0.25242(3)
O1 O 0.21787(12) 0.37149(17) -0.0218(3)
O2 O 0.12536(14) 0.28810(17) -0.2204(3)
O3 O 0.13895(13) 0.46944(17) 0.2570(3)
O4 O 0.29032(12) 0.35117(16) 0.5385(3)
O5 O 0.38910(14) 0.27851(17) 0.7320(3)
O6 O 0.34742(12) 0.48522(16) 0.2774(3)
C1 C 0.14216(19) 0.3577(2) -0.0962(4)
C2 C 0.06980(19) 0.4318(2) -0.0377(4)
C3 C 0.07015(18) 0.4859(2) 0.1299(4)
C4 C -0.00051(18) 0.4463(2) -0.1632(4)
H1 H -0.0009 0.4091 -0.2738
C5 C 0.1320(2) 0.5104(3) 0.4376(5)
H2 H 0.1696 0.4659 0.5211
H3 H 0.0733 0.4998 0.4692
C6 C 0.1553(3) 0.6317(5) 0.4584(7)
H4 H 0.2080 0.6515 0.4166
C7 C 0.1158(6) 0.7103(6) 0.5223(12)
H5 H 0.0625 0.6971 0.5669
H6 H 0.1391 0.7830 0.5261
C8 C 0.36831(19) 0.3454(2) 0.6051(4)
C9 C 0.43497(18) 0.4240(2) 0.5404(4)
C10 C 0.42288(18) 0.4938(2) 0.3876(4)
C11 C 0.51207(18) 0.4312(2) 0.6482(4)
H7 H 0.5204 0.3837 0.7484
C12 C 0.3287(2) 0.5726(2) 0.1424(4)
H8 H 0.3431 0.6457 0.1967
H9 H 0.2672 0.5723 0.1079
C13 C 0.3749(2) 0.5604(3) -0.0222(5)
H10 H 0.3773 0.4888 -0.0742
C14 C 0.4126(3) 0.6441(3) -0.0995(5)
H11 H 0.4113 0.7167 -0.0507
H12 H 0.4408 0.6312 -0.2035
Cd1B Cd -0.253572(13) 0.700373(16) -0.25242(3)
Cd1C Cd 0.253572(13) 0.200373(16) -0.24758(3)
Cd1C_2 Cd 0.253572(13) 0.200373(16) 0.75242(3)
Cd1A Cd -0.253572(13) 0.799627(16) 0.24758(3)
Cd1B_2 Cd 0.746428(13) 0.700373(16) 0.74758(3)
Cd1A_2 Cd 0.746428(13) 0.799627(16) 0.24758(3)
O1B O -0.21787(12) 0.62851(17) 0.0218(3)
O2B O -0.12536(14) 0.71190(17) 0.2204(3)
O2C O 0.12536(14) 0.21190(17) 0.2796(3)
O2A O -0.12536(14) 0.78810(17) -0.2796(3)
O3B O -0.13895(13) 0.53056(17) -0.2570(3)
O4B O 0.70968(12) 0.64883(16) 0.4615(3)
O4C O 0.29032(12) 0.14883(16) 0.0385(3)
O4B_2 O -0.29032(12) 0.64883(16) -0.5385(3)
O4A O -0.29032(12) 0.85117(16) -0.0385(3)
O5B O 0.61090(14) 0.72149(17) 0.2680(3)
O5C O 0.38910(14) 0.22149(17) 0.2320(3)
O5A O -0.38910(14) 0.77851(17) -0.2320(3)
O6B O 0.65258(12) 0.51478(16) 0.7226(3)
O6B_2 O -0.34742(12) 0.51478(16) -0.2774(3)
C1B C -0.14216(19) 0.6423(2) 0.0962(4)
C2B C -0.06980(19) 0.5682(2) 0.0377(4)
C3B C -0.07015(18) 0.5141(2) -0.1299(4)
C4B C 0.00051(18) 0.5537(2) 0.1632(4)
H1B H 0.0009 0.5909 0.2738
C5B C -0.1320(2) 0.4896(3) -0.4376(5)
H2B H -0.1696 0.5341 -0.5211
H3B H -0.0733 0.5002 -0.4692
C6B C -0.1553(3) 0.3683(5) -0.4584(7)
H4B H -0.2080 0.3485 -0.4166
C7B C -0.1158(6) 0.2897(6) -0.5223(12)
H5B H -0.0625 0.3029 -0.5669
H6B H -0.1391 0.2170 -0.5261
C8B C 0.63169(19) 0.6546(2) 0.3949(4)
C9B C 0.56503(18) 0.5760(2) 0.4596(4)
C10B C 0.57712(18) 0.5062(2) 0.6124(4)
C11B C 0.48793(18) 0.5688(2) 0.3518(4)
H7B H 0.4796 0.6163 0.2516
C12B C 0.6713(2) 0.4274(2) 0.8576(4)
H8B H 0.6569 0.3543 0.8033
H9B H 0.7328 0.4277 0.8921
C13B C 0.6251(2) 0.4396(3) 1.0222(5)
H10B H 0.6227 0.5112 1.0742
C14B C 0.5874(3) 0.3559(3) 1.0995(5)
H11B H 0.5887 0.2833 1.0507
H12B H 0.5592 0.3688 1.2035
loop_
_geom_bond_atom_site_label_1
_geom_bond_atom_site_label_2
_geom_bond_site_symmetry_1
_geom_bond_site_symmetry_2
Cd1 O1 1_555 1_555
O1 C1 1_555 1_555
O2 C1 1_555 1_555
O3 C3 1_555 1_555
O4 Cd1 1_555 1_555
O5 C8 1_555 1_555
O6 Cd1 1_555 1_555
C1 C2 1_555 1_555
C2 C3 1_555 1_555
C3 C4B 1_555 1_555
C4 C2 1_555 1_555
H1 C4 1_555 1_555
C5 O3 1_555 1_555
H2 C5 1_555 1_555
H3 C5 1_555 1_555
C6 C5 1_555 1_555
H4 C6 1_555 1_555
C7 C6 1_555 1_555
H5 C7 1_555 1_555
H6 C7 1_555 1_555
C8 O4 1_555 1_555
C9 C8 1_555 1_555
C10 O6 1_555 1_555
C11 C9 1_555 1_555
H7 C11 1_555 1_555
C12 O6 1_555 1_555
H8 C12 1_555 1_555
H9 C12 1_555 1_555
C13 C12 1_555 1_555
H10 C13 1_555 1_555
C14 C13 1_555 1_555
H11 C14 1_555 1_555
H12 C14 1_555 1_555
Cd1B O1B 1_555 1_555
Cd1C O2 1_555 1_555
Cd1C_2 O4 1_555 1_555
Cd1A O2B 1_555 1_555
Cd1B_2 O4B 1_555 1_555
Cd1A_2 O4B 1_555 1_555
O1B C1B 1_555 1_555
O2B C1B 1_555 1_555
O2C Cd1 1_555 1_555
O2A Cd1B 1_555 1_555
O3B C3B 1_555 1_555
O4B C8B 1_555 1_555
O4C Cd1 1_555 1_555
O4B_2 Cd1B 1_555 1_555
O4A Cd1B 1_555 1_555
O5B Cd1A_2 1_555 1_555
O5C Cd1 1_555 1_555
O5A Cd1B 1_555 1_555
O6B Cd1B_2 1_555 1_555
O6B_2 Cd1B 1_555 1_555
C1B C2B 1_555 1_555
C2B C3B 1_555 1_555
C3B C4 1_555 1_555
C4B C2B 1_555 1_555
H1B C4B 1_555 1_555
C5B O3B 1_555 1_555
H2B C5B 1_555 1_555
H3B C5B 1_555 1_555
C6B C5B 1_555 1_555
H4B C6B 1_555 1_555
C7B C6B 1_555 1_555
H5B C7B 1_555 1_555
H6B C7B 1_555 1_555
C8B O5B 1_555 1_555
C9B C8B 1_555 1_555
C10B C11 1_555 1_555
C11B C10 1_555 1_555
H7B C11B 1_555 1_555
C12B O6B 1_555 1_555
H8B C12B 1_555 1_555
H9B C12B 1_555 1_555
C13B C12B 1_555 1_555
H10B C13B 1_555 1_555
C14B C13B 1_555 1_555
H11B C14B 1_555 1_555
H12B C14B 1_555 1_555
O5 Cd1C_2 1_555 1_555
C9 C10 1_555 1_555
Cd1C O4C 1_555 1_555
Cd1A O4A 1_555 1_555
O6B C10B 1_555 1_555
C9B C10B 1_555 1_555
C9B C11B 1_555 1_555

#END
