
#######################################################################
#
#                 Cambridge Crystallographic Data Centre
#                                CCDC 
#
#######################################################################
#
# If this CIF has been generated from an entry in the Cambridge 
# Structural Database, then it will include bibliographic, chemical, 
# crystal, experimental, refinement or atomic coordinate data resulting 
# from the CCDC's data processing and validation procedures.
#
#######################################################################

data_ITOBEZ
_symmetry_cell_setting           monoclinic
_symmetry_space_group_name_H-M   'P 21/c'
_symmetry_Int_Tables_number      14
_space_group_name_Hall           '-P 2ybc'
loop_
_symmetry_equiv_pos_site_id
_symmetry_equiv_pos_as_xyz
1 x,y,z
2 -x,1/2+y,1/2-z
3 -x,-y,-z
4 x,1/2-y,1/2+z
_cell_length_a                   15.7040(4)
_cell_length_b                   11.1287(4)
_cell_length_c                   8.7497(2)
_cell_angle_alpha                90
_cell_angle_beta                 91.608(3)
_cell_angle_gamma                90
_cell_volume                     1528.54
loop_
_atom_site_label
_atom_site_type_symbol
_atom_site_fract_x
_atom_site_fract_y
_atom_site_fract_z
Zn1 Zn 0.274724(19) 0.28992(3) 0.79932(3)
O1 O 0.11349(14) 0.4304(3) 0.8573(2)
O2 O 0.19451(11) 0.37508(18) 0.66598(19)
O3 O 0.12186(13) 0.6528(2) 0.6233(3)
O4 O 0.30248(11) 0.31107(18) 1.01749(19)
O5 O 0.37778(11) 0.2959(2) 1.2297(2)
O6 O 0.35569(11) 0.47506(19) 0.8112(2)
O7 O 0.20245(13) 0.1460(2) 0.8511(2)
H1 H 0.1834 0.1353 0.9468
H2 H 0.1885 0.0903 0.7786
C1 C 0.12703(17) 0.4209(3) 0.7215(3)
C2 C 0.00250(17) 0.3804(3) 0.5462(3)
H5 H 0.0044 0.3005 0.5772
C3 C 0.06151(16) 0.4619(3) 0.6050(3)
C4 C 0.05943(16) 0.5816(3) 0.5588(3)
C5 C 0.1173(2) 0.7792(3) 0.5968(4)
H6 H 0.0636 0.8107 0.6315
H7 H 0.1214 0.7961 0.4885
C6 C 0.1894(2) 0.8359(3) 0.6833(4)
H8 H 0.1914 0.8253 0.7888
C7 C 0.2478(3) 0.8966(4) 0.6268(5)
H9 H 0.2483 0.9095 0.5218
H10 H 0.2906 0.9289 0.6899
C8 C 0.36744(16) 0.3372(3) 1.0961(3)
C9 C 0.43453(15) 0.4209(2) 1.0400(3)
C10 C 0.42755(16) 0.4869(3) 0.9034(3)
C11 C 0.49348(16) 0.5639(3) 0.8673(3)
H11 H 0.4891 0.6073 0.7766
C12 C 0.33652(18) 0.5713(3) 0.7023(4)
H12 H 0.3564 0.6470 0.7451
H13 H 0.2753 0.5771 0.6864
C13 C 0.3765(2) 0.5519(4) 0.5533(4)
H14 H 0.3725 0.4760 0.5093
C14 C 0.4169(3) 0.6351(5) 0.4804(5)
H15 H 0.4219 0.7118 0.5217
H16 H 0.4409 0.6179 0.3869
Zn1B Zn -0.274724(19) 0.71008(3) 0.20068(3)
Zn1A Zn 0.725276(19) 0.78992(3) 0.70068(3)
Zn1B_2 Zn 0.725276(19) 0.71008(3) 1.20068(3)
Zn1C Zn 0.274724(19) 0.21008(3) 1.29932(3)
O1B O -0.11349(14) 0.5696(3) 0.1427(2)
O2B O -0.19451(11) 0.62492(18) 0.33402(19)
O3B O -0.12186(13) 0.3472(2) 0.3767(3)
O4B O 0.69752(11) 0.68893(18) 0.98251(19)
O4B_2 O -0.30248(11) 0.68893(18) -0.01749(19)
O5B O 0.62222(11) 0.7041(2) 0.7703(2)
O5A O -0.37778(11) 0.7959(2) 0.2703(2)
O5C O 0.37778(11) 0.2041(2) 0.7297(2)
O6B O 0.64431(11) 0.52494(19) 1.1888(2)
O6B_2 O -0.35569(11) 0.52494(19) 0.1888(2)
O7B O -0.20245(13) 0.8540(2) 0.1489(2)
H1B H -0.1834 0.8647 0.0532
H2B H -0.1885 0.9097 0.2214
C1B C -0.12703(17) 0.5791(3) 0.2785(3)
C2B C -0.00250(17) 0.6196(3) 0.4538(3)
H5B H -0.0044 0.6995 0.4228
C3B C -0.06151(16) 0.5381(3) 0.3950(3)
C4B C -0.05943(16) 0.4184(3) 0.4412(3)
C5B C -0.1173(2) 0.2208(3) 0.4032(4)
H6B H -0.0636 0.1893 0.3685
H7B H -0.1214 0.2039 0.5115
C6B C -0.1894(2) 0.1641(3) 0.3167(4)
H8B H -0.1914 0.1747 0.2112
C7B C -0.2478(3) 0.1034(4) 0.3732(5)
H9B H -0.2483 0.0905 0.4782
H10B H -0.2906 0.0711 0.3101
C8B C 0.63256(16) 0.6628(3) 0.9039(3)
C9B C 0.56547(15) 0.5791(2) 0.9600(3)
C10B C 0.57245(16) 0.5131(3) 1.0966(3)
C11B C 0.50652(16) 0.4361(3) 1.1327(3)
H11B H 0.5109 0.3927 1.2234
C12B C 0.66348(18) 0.4287(3) 1.2977(4)
H12B H 0.6436 0.3530 1.2549
H13B H 0.7247 0.4229 1.3136
C13B C 0.6235(2) 0.4481(4) 1.4467(4)
H14B H 0.6275 0.5240 1.4907
C14B C 0.5831(3) 0.3649(5) 1.5196(5)
H15B H 0.5781 0.2882 1.4783
H16B H 0.5591 0.3821 1.6131
O8 O 0.06582(13) 0.1023(2) 0.6561(2)
H3 H 0.0857 0.0874 0.5626
H4 H 0.0244 0.0467 0.6544
loop_
_geom_bond_atom_site_label_1
_geom_bond_atom_site_label_2
_geom_bond_site_symmetry_1
_geom_bond_site_symmetry_2
Zn1 O2 1_555 1_555
O1 C1 1_555 1_555
O2 C1 1_555 1_555
O3 C4 1_555 1_555
O4 Zn1 1_555 1_555
O5 C8 1_555 1_555
O6 Zn1 1_555 1_555
O7 Zn1 1_555 1_555
H1 O7 1_555 1_555
H2 O7 1_555 1_555
O8 H3 1_555 1_555
H4 O8 1_555 1_555
C1 C3 1_555 1_555
C2 H5 1_555 1_555
C3 C2 1_555 1_555
C4 C3 1_555 1_555
C5 O3 1_555 1_555
H6 C5 1_555 1_555
H7 C5 1_555 1_555
C6 C5 1_555 1_555
H8 C6 1_555 1_555
C7 C6 1_555 1_555
H9 C7 1_555 1_555
H10 C7 1_555 1_555
C8 O4 1_555 1_555
C9 C8 1_555 1_555
C10 O6 1_555 1_555
C11 C10 1_555 1_555
H11 C11 1_555 1_555
C12 O6 1_555 1_555
H12 C12 1_555 1_555
H13 C12 1_555 1_555
C13 C12 1_555 1_555
H14 C13 1_555 1_555
C14 C13 1_555 1_555
H15 C14 1_555 1_555
H16 C14 1_555 1_555
Zn1B O2B 1_555 1_555
Zn1A O5B 1_555 1_555
Zn1B_2 O4B 1_555 1_555
Zn1C O5 1_555 1_555
O1B C1B 1_555 1_555
O2B C1B 1_555 1_555
O3B C4B 1_555 1_555
O4B C8B 1_555 1_555
O4B_2 Zn1B 1_555 1_555
O5B C8B 1_555 1_555
O5A Zn1B 1_555 1_555
O5C Zn1 1_555 1_555
O6B Zn1B_2 1_555 1_555
O6B_2 Zn1B 1_555 1_555
O7B Zn1B 1_555 1_555
H1B O7B 1_555 1_555
H2B O7B 1_555 1_555
C1B C3B 1_555 1_555
C2B C4 1_555 1_555
H5B C2B 1_555 1_555
C3B C2B 1_555 1_555
C4B C2 1_555 1_555
C5B O3B 1_555 1_555
H6B C5B 1_555 1_555
H7B C5B 1_555 1_555
C6B C5B 1_555 1_555
H8B C6B 1_555 1_555
C7B C6B 1_555 1_555
H9B C7B 1_555 1_555
H10B C7B 1_555 1_555
C8B C9B 1_555 1_555
C9B C11 1_555 1_555
C10B O6B 1_555 1_555
C11B C9 1_555 1_555
H11B C11B 1_555 1_555
C12B O6B 1_555 1_555
H12B C12B 1_555 1_555
H13B C12B 1_555 1_555
C13B C12B 1_555 1_555
H14B C13B 1_555 1_555
C14B C13B 1_555 1_555
H15B C14B 1_555 1_555
H16B C14B 1_555 1_555
C9 C10 1_555 1_555
C3B C4B 1_555 1_555
C9B C10B 1_555 1_555
C10B C11B 1_555 1_555

#END
