
#######################################################################
#
#                 Cambridge Crystallographic Data Centre
#                                CCDC 
#
#######################################################################
#
# If this CIF has been generated from an entry in the Cambridge 
# Structural Database, then it will include bibliographic, chemical, 
# crystal, experimental, refinement or atomic coordinate data resulting 
# from the CCDC's data processing and validation procedures.
#
#######################################################################

data_ITOBID
_symmetry_cell_setting           triclinic
_symmetry_space_group_name_H-M   'P -1'
_symmetry_Int_Tables_number      2
_space_group_name_Hall           '-P 1'
loop_
_symmetry_equiv_pos_site_id
_symmetry_equiv_pos_as_xyz
1 x,y,z
2 -x,-y,-z
_cell_length_a                   6.5116(4)
_cell_length_b                   11.4309(8)
_cell_length_c                   11.6381(7)
_cell_angle_alpha                94.647(5)
_cell_angle_beta                 91.625(5)
_cell_angle_gamma                94.130(5)
_cell_volume                     860.665
loop_
_atom_site_label
_atom_site_type_symbol
_atom_site_fract_x
_atom_site_fract_y
_atom_site_fract_z
Co1 Co 1.0000 0.5000 0.0000
Co2 Co 1.46802(10) 0.43214(6) 0.10636(5)
O1 O 1.3698(6) 0.6069(4) 0.4358(3)
O2 O 1.0011(5) 0.5260(3) 0.1876(3)
O3 O 1.2693(5) 0.4267(3) 0.2397(3)
O4 O 0.6280(6) 0.9335(3) -0.1194(4)
O5 O 0.9922(5) 0.6823(3) -0.0189(3)
O6 O 0.6626(5) 0.7244(3) -0.0209(3)
O7 O 1.6591(6) 0.3003(3) 0.1719(3)
H1 H 1.7567 0.3223 0.2269
H2 H 1.6382 0.2248 0.1439
O8 O 1.6084(5) 0.5783(3) 0.2130(3)
H3 H 1.7108 0.5697 0.2618
H4 H 1.5621 0.6514 0.2057
O9 O 1.3098(4) 0.5455(3) 0.0150(2)
H5 H 1.3214 0.6197 0.0640
C1 C 0.8520(8) 0.7525(4) -0.0193(4)
C2 C 0.8898(8) 1.0841(5) -0.0457(5)
H6 H 0.8149 1.1412 -0.0764
C3 C 0.9234(8) 0.8814(4) -0.0120(4)
C4 C 0.8111(8) 0.9679(4) -0.0593(5)
C5 C 0.5388(12) 1.0230(6) -0.1824(8)
H7 H 0.4838 1.0816 -0.1291
H8 H 0.6431 1.0621 -0.2267
C6 C 0.387(4) 0.9699(14) -0.2534(15)
H9 H 0.4217 0.8927 -0.2679
C7 C 0.240(4) 0.975(2) -0.303(2)
H10 H 0.1765 1.0455 -0.3006
H11 H 0.1802 0.9088 -0.3463
C8 C 1.1138(8) 0.4823(5) 0.2606(4)
C9 C 1.1326(8) 0.5575(5) 0.5845(4)
H12 H 1.2215 0.5960 0.6416
C10 C 1.0554(7) 0.4949(5) 0.3861(4)
C11 C 1.1881(8) 0.5528(5) 0.4706(4)
C12 C 1.4809(9) 0.6897(6) 0.5199(5)
H13 H 1.5383 0.6480 0.5811
H14 H 1.3874 0.7441 0.5537
C13 C 1.6479(15) 0.7554(7) 0.4638(7)
H15 H 1.6168 0.7757 0.3899
C14 C 1.8248(16) 0.7870(10) 0.5024(12)
H16 H 1.8656 0.7695 0.5758
H17 H 1.9163 0.8284 0.4578
Co1_2 Co 1.0000 0.5000 1.0000
Co1_3 Co 1.0000 1.5000 0.0000
Co2A Co 0.53198(10) 0.56786(6) 0.89364(5)
Co2A_2 Co 0.53198(10) 0.56786(6) -0.10636(5)
Co2A_3 Co 1.53198(10) 0.56786(6) -0.10636(5)
Co2_2 Co 1.46802(10) 1.43214(6) 0.10636(5)
Co2_3 Co 0.46802(10) 0.43214(6) 0.10636(5)
O1A O 0.6302(6) 0.3931(4) 0.5642(3)
O2A O 0.9989(5) 0.4740(3) 0.8124(3)
O2A_2 O 0.9989(5) 0.4740(3) -0.1876(3)
O3A O 0.7307(5) 0.5733(3) 0.7603(3)
O4A O 1.3720(6) 1.0665(3) 0.1194(4)
O5A O 1.0078(5) 1.3177(3) 0.0189(3)
O5A_2 O 1.0078(5) 0.3177(3) 0.0189(3)
O6A O 1.3374(5) 1.2756(3) 0.0209(3)
O6A_2 O 1.3374(5) 0.2756(3) 0.0209(3)
O6_2 O 0.6626(5) 0.7244(3) 0.9791(3)
O7A O 0.3409(6) 0.6997(3) 0.8281(3)
H1A H 0.2433 0.6777 0.7731
H2A H 0.3618 0.7752 0.8561
O8A O 0.3916(5) 0.4217(3) 0.7870(3)
H3A H 0.2892 0.4303 0.7382
H4A H 0.4379 0.3486 0.7943
O9A O 0.6902(4) 0.4545(3) -0.0150(2)
O9A_2 O 1.6902(4) 0.4545(3) -0.0150(2)
O9_2 O 0.3098(4) 0.5455(3) 1.0150(2)
O9A_3 O 0.6902(4) 0.4545(3) 0.9850(2)
H5A H 0.6786 0.3803 -0.0640
H5A_2 H 1.6786 0.3803 -0.0640
H5_2 H 0.3214 0.6197 1.0640
H5A_3 H 0.6786 0.3803 0.9360
C1A C 1.1480(8) 1.2475(4) 0.0193(4)
C2A C 1.1102(8) 0.9159(5) 0.0457(5)
H6A H 1.1851 0.8588 0.0764
C3A C 1.0766(8) 1.1186(4) 0.0120(4)
C4A C 1.1889(8) 1.0321(4) 0.0593(5)
C5A C 1.4612(12) 0.9770(6) 0.1824(8)
H7A H 1.5162 0.9184 0.1291
H8A H 1.3569 0.9379 0.2267
C6A C 1.613(4) 1.0301(14) 0.2534(15)
H9A H 1.5783 1.1073 0.2679
C7A C 1.760(4) 1.025(2) 0.303(2)
H10A H 1.8235 0.9545 0.3006
H11A H 1.8198 1.0912 0.3463
C8A C 0.8862(8) 0.5177(5) 0.7394(4)
C9A C 0.8674(8) 0.4425(5) 0.4155(4)
H12A H 0.7785 0.4040 0.3584
C10A C 0.9446(7) 0.5051(5) 0.6139(4)
C11A C 0.8119(8) 0.4472(5) 0.5294(4)
C12A C 0.5191(9) 0.3103(6) 0.4801(5)
H13A H 0.4617 0.3520 0.4189
H14A H 0.6126 0.2559 0.4463
C13A C 0.3521(15) 0.2446(7) 0.5362(7)
H15A H 0.3832 0.2243 0.6101
C14A C 0.1752(16) 0.2130(10) 0.4976(12)
H16A H 0.1344 0.2305 0.4242
H17A H 0.0837 0.1716 0.5422
loop_
_geom_bond_atom_site_label_1
_geom_bond_atom_site_label_2
_geom_bond_site_symmetry_1
_geom_bond_site_symmetry_2
Co1 O2 1_555 1_555
Co2 O3 1_555 1_555
O1 C11 1_555 1_555
O2 C8 1_555 1_555
O3 C8 1_555 1_555
O4 C4 1_555 1_555
O5 Co1 1_555 1_555
O6 C1 1_555 1_555
O7 Co2 1_555 1_555
H1 O7 1_555 1_555
H2 O7 1_555 1_555
O8 Co2 1_555 1_555
H3 O8 1_555 1_555
H4 O8 1_555 1_555
O9 Co1 1_555 1_555
H5 O9 1_555 1_555
C1 O5 1_555 1_555
C2 H6 1_555 1_555
C3 C1 1_555 1_555
C4 C2 1_555 1_555
C5 O4 1_555 1_555
H7 C5 1_555 1_555
H8 C5 1_555 1_555
C6 C5 1_555 1_555
H9 C6 1_555 1_555
C7 C6 1_555 1_555
H10 C7 1_555 1_555
H11 C7 1_555 1_555
C8 C10 1_555 1_555
C9 H12 1_555 1_555
C10 C11 1_555 1_555
C11 C9 1_555 1_555
C12 O1 1_555 1_555
H13 C12 1_555 1_555
H14 C12 1_555 1_555
C13 C12 1_555 1_555
H15 C13 1_555 1_555
C14 C13 1_555 1_555
H16 C14 1_555 1_555
H17 C14 1_555 1_555
Co1_2 O2A 1_555 1_555
Co1_3 O5A 1_555 1_555
Co2A O3A 1_555 1_555
Co2A_2 O6 1_555 1_555
Co2A_3 O9 1_555 1_555
Co2_2 O6A 1_555 1_555
Co2_3 O9A 1_555 1_555
O1A C11A 1_555 1_555
O2A C8A 1_555 1_555
O2A_2 Co1 1_555 1_555
O3A C8A 1_555 1_555
O4A C4A 1_555 1_555
O5A C1A 1_555 1_555
O5A_2 Co1 1_555 1_555
O6A C1A 1_555 1_555
O6A_2 Co2 1_555 1_555
O6_2 Co2A 1_555 1_555
O7A Co2A 1_555 1_555
H1A O7A 1_555 1_555
H2A O7A 1_555 1_555
O8A Co2A 1_555 1_555
H3A O8A 1_555 1_555
H4A O8A 1_555 1_555
O9A Co1 1_555 1_555
O9A_2 Co2 1_555 1_555
O9_2 Co2A 1_555 1_555
O9A_3 Co1_2 1_555 1_555
H5A O9A 1_555 1_555
H5A_2 O9A_2 1_555 1_555
H5_2 O9_2 1_555 1_555
H5A_3 O9A_3 1_555 1_555
C1A C3A 1_555 1_555
C2A C3 1_555 1_555
H6A C2A 1_555 1_555
C3A C2 1_555 1_555
C4A C2A 1_555 1_555
C5A O4A 1_555 1_555
H7A C5A 1_555 1_555
H8A C5A 1_555 1_555
C6A C5A 1_555 1_555
H9A C6A 1_555 1_555
C7A C6A 1_555 1_555
H10A C7A 1_555 1_555
H11A C7A 1_555 1_555
C8A C10A 1_555 1_555
C9A C10 1_555 1_555
H12A C9A 1_555 1_555
C10A C9 1_555 1_555
C11A C9A 1_555 1_555
C12A O1A 1_555 1_555
H13A C12A 1_555 1_555
H14A C12A 1_555 1_555
C13A C12A 1_555 1_555
H15A C13A 1_555 1_555
C14A C13A 1_555 1_555
H16A C14A 1_555 1_555
H17A C14A 1_555 1_555
Co2 O9 1_555 1_555
C3 C4 1_555 1_555
Co2A O9A_3 1_555 1_555
Co2A_2 O9A 1_555 1_555
Co2A_3 O9A_2 1_555 1_555
C3A C4A 1_555 1_555
C10A C11A 1_555 1_555

#END
