
#######################################################################
#
#                 Cambridge Crystallographic Data Centre
#                                CCDC 
#
#######################################################################
#
# If this CIF has been generated from an entry in the Cambridge 
# Structural Database, then it will include bibliographic, chemical, 
# crystal, experimental, refinement or atomic coordinate data resulting 
# from the CCDC's data processing and validation procedures.
#
#######################################################################

data_ITOTAN
_symmetry_cell_setting           triclinic
_symmetry_space_group_name_H-M   'P -1'
_symmetry_Int_Tables_number      2
_space_group_name_Hall           '-P 1'
loop_
_symmetry_equiv_pos_site_id
_symmetry_equiv_pos_as_xyz
1 x,y,z
2 -x,-y,-z
_cell_length_a                   10.4612(2)
_cell_length_b                   11.6733(2)
_cell_length_c                   15.4745(2)
_cell_angle_alpha                80.696(1)
_cell_angle_beta                 70.225(1)
_cell_angle_gamma                83.182(1)
_cell_volume                     1750.69
loop_
_atom_site_label
_atom_site_type_symbol
_atom_site_fract_x
_atom_site_fract_y
_atom_site_fract_z
C1 C 0.7429(4) 0.5555(3) 0.0654(2)
H1 H 0.6871 0.4910 0.0973
H2 H 0.8374 0.5282 0.0554
C2 C 0.8147(4) 0.7330(3) -0.0847(2)
H3 H 0.9112 0.7112 -0.0983
H4 H 0.8002 0.7745 -0.1406
C3 C 0.5449(4) 0.6673(3) -0.0098(3)
H5 H 0.5226 0.7074 -0.0634
H6 H 0.4821 0.6068 0.0197
C4 C 0.5612(4) 0.6939(3) 0.1394(2)
H7 H 0.5052 0.6282 0.1656
H8 H 0.5350 0.7484 0.1845
C5 C 0.6221(4) 0.8453(3) 0.0120(2)
H9 H 0.6001 0.9047 0.0530
H10 H 0.6051 0.8801 -0.0447
C6 C 0.7930(4) 0.7511(3) 0.0746(2)
H11 H 0.7779 0.8086 0.1164
H12 H 0.8879 0.7226 0.0588
C7 C 0.8022(4) 0.2222(3) -0.0709(3)
H13 H 0.7374 0.2392 -0.1045
H14 H 0.7523 0.2184 -0.0052
C8 C 0.8808(4) 0.1089(4) -0.0918(3)
H15 H 0.8212 0.0466 -0.0660
H16 H 0.9526 0.0977 -0.0650
H17 H 0.9192 0.1094 -0.1576
C9 C 0.7956(4) 0.4596(3) -0.3075(2)
H18 H 0.8578 0.5194 -0.3408
H19 H 0.7080 0.4970 -0.2757
C10 C 0.7808(5) 0.3851(4) -0.3732(3)
H20 H 0.7345 0.4302 -0.4127
H21 H 0.7292 0.3202 -0.3389
H22 H 0.8694 0.3573 -0.4103
C11 C 0.4117(4) 0.3085(3) 0.5828(2)
H23 H 0.4357 0.3870 0.5550
H24 H 0.4745 0.2761 0.6158
C12 C 0.3578(4) 0.0879(3) 0.5613(2)
H25 H 0.4185 0.0495 0.5943
H26 H 0.3488 0.0353 0.5215
C13 C 0.2876(4) 0.2861(3) 0.4520(2)
H27 H 0.2758 0.2401 0.4087
H28 H 0.3077 0.3639 0.4204
C14 C 0.2317(4) 0.1918(3) 0.6928(2)
H29 H 0.1444 0.1967 0.7415
H30 H 0.2986 0.1559 0.7213
C15 C 0.1268(4) 0.1736(3) 0.5812(3)
H31 H 0.1239 0.1252 0.5366
H32 H 0.0365 0.1790 0.6265
C16 C 0.1729(4) 0.3619(3) 0.5993(2)
H33 H 0.2011 0.4376 0.5667
H34 H 0.0834 0.3736 0.6445
C17 C 0.7188(5) 0.1805(4) 0.2166(3)
H35 H 0.6851 0.2368 0.1745
H36 H 0.6440 0.1355 0.2571
C18 C 0.8305(5) 0.1022(4) 0.1632(3)
H37 H 0.8676 0.0506 0.2050
H38 H 0.9008 0.1481 0.1197
H39 H 0.7952 0.0576 0.1305
C19 C 0.9237(9) 0.2539(6) 0.3962(4)
H40 H 0.9783 0.2472 0.3323
H41 H 0.9748 0.2900 0.4251
C20 C 0.8841(9) 0.1523(8) 0.4423(4)
H42 H 0.9624 0.0996 0.4406
H43 H 0.8284 0.1216 0.4145
H44 H 0.8324 0.1616 0.5055
N1 N 0.7063(3) 0.6518(2) 0.12417(18)
N2 N 0.7672(3) 0.8078(3) -0.00973(19)
N3 N 0.5319(3) 0.7505(3) 0.0560(2)
N4 N 0.7356(3) 0.5031(3) -0.1081(2)
N5 N 0.2696(3) 0.3121(3) 0.64942(19)
N6 N 0.2226(3) 0.1169(3) 0.62828(19)
N7 N 0.1614(3) 0.2911(3) 0.5328(2)
N8 N 0.5744(3) 0.2027(3) 0.4209(2)
O1 O 0.8989(3) 0.3136(2) -0.09934(17)
O2 O 0.8485(3) 0.3836(2) -0.24144(16)
O3 O 0.7731(3) 0.2399(2) 0.27080(16)
O4 O 0.7782(3) 0.3251(2) 0.40352(18)
P1 P 0.71794(9) 0.60321(8) -0.04565(6)
P2 P 0.87444(9) 0.43229(8) -0.15926(6)
P3 P 0.67411(10) 0.29841(8) 0.35683(6)
P4 P 0.42723(10) 0.22061(8) 0.49242(6)
S1 S 1.03796(9) 0.52049(8) -0.19666(6)
S2 S 0.58036(9) 0.44732(8) 0.32099(6)
Cu1 Cu 0.74964(4) 0.57607(4) 0.25016(3)
N5A N 0.7304(3) 0.6879(3) 0.35058(19)
S1A S 0.96204(9) 0.47951(8) 0.19666(6)
Cu1A Cu 0.25036(4) 0.42393(4) 0.74984(3)
Cu1A_2 Cu 1.25036(4) 0.42393(4) -0.25016(3)
F1 F 0.3909(4) 0.0456(3) 0.3514(2)
F2 F 0.2089(5) 0.0140(7) 0.3169(5)
F3 F 0.3733(6) -0.1290(3) 0.3148(3)
F4 F 0.3436(4) -0.0425(3) 0.1825(2)
F5 F 0.3658(7) 0.1293(3) 0.2211(3)
F6 F 0.5216(4) -0.0163(4) 0.2192(3)
P5 P 0.36032(13) 0.00046(11) 0.26978(8)
loop_
_geom_bond_atom_site_label_1
_geom_bond_atom_site_label_2
_geom_bond_site_symmetry_1
_geom_bond_site_symmetry_2
C1 H1 1_555 1_555
H2 C1 1_555 1_555
C2 H3 1_555 1_555
H4 C2 1_555 1_555
C3 H5 1_555 1_555
H6 C3 1_555 1_555
C4 H7 1_555 1_555
H8 C4 1_555 1_555
C5 H9 1_555 1_555
H10 C5 1_555 1_555
C6 H11 1_555 1_555
H12 C6 1_555 1_555
C7 H13 1_555 1_555
H14 C7 1_555 1_555
C8 C7 1_555 1_555
H15 C8 1_555 1_555
H16 C8 1_555 1_555
H17 C8 1_555 1_555
C9 H18 1_555 1_555
H19 C9 1_555 1_555
C10 C9 1_555 1_555
H20 C10 1_555 1_555
H21 C10 1_555 1_555
H22 C10 1_555 1_555
C11 H23 1_555 1_555
H24 C11 1_555 1_555
C12 H25 1_555 1_555
H26 C12 1_555 1_555
C13 H27 1_555 1_555
H28 C13 1_555 1_555
C14 H29 1_555 1_555
H30 C14 1_555 1_555
C15 H31 1_555 1_555
H32 C15 1_555 1_555
C16 H33 1_555 1_555
H34 C16 1_555 1_555
C17 H35 1_555 1_555
H36 C17 1_555 1_555
C18 C17 1_555 1_555
H37 C18 1_555 1_555
H38 C18 1_555 1_555
H39 C18 1_555 1_555
C19 H40 1_555 1_555
H41 C19 1_555 1_555
C20 C19 1_555 1_555
H42 C20 1_555 1_555
H43 C20 1_555 1_555
H44 C20 1_555 1_555
N1 C1 1_555 1_555
N2 C2 1_555 1_555
N3 C3 1_555 1_555
N4 P1 1_555 1_555
N5 C11 1_555 1_555
N6 C12 1_555 1_555
N7 C13 1_555 1_555
N8 P3 1_555 1_555
O1 C7 1_555 1_555
O2 C9 1_555 1_555
O3 C17 1_555 1_555
O4 C19 1_555 1_555
F1 P5 1_555 1_555
F2 P5 1_555 1_555
F3 P5 1_555 1_555
F4 P5 1_555 1_555
F5 P5 1_555 1_555
F6 P5 1_555 1_555
P1 C1 1_555 1_555
P2 N4 1_555 1_555
P3 O3 1_555 1_555
P4 C11 1_555 1_555
S1 P2 1_555 1_555
S2 P3 1_555 1_555
Cu1 N1 1_555 1_555
N5A Cu1 1_555 1_555
S1A Cu1 1_555 1_555
Cu1A N5 1_555 1_555
Cu1A_2 S1 1_555 1_555
C2 P1 1_555 1_555
C3 P1 1_555 1_555
C4 N1 1_555 1_555
C4 N3 1_555 1_555
C5 N2 1_555 1_555
C5 N3 1_555 1_555
C6 N1 1_555 1_555
C6 N2 1_555 1_555
C12 P4 1_555 1_555
C13 P4 1_555 1_555
C14 N5 1_555 1_555
C14 N6 1_555 1_555
C15 N6 1_555 1_555
C15 N7 1_555 1_555
C16 N5 1_555 1_555
C16 N7 1_555 1_555
N8 P4 1_555 1_555
O1 P2 1_555 1_555
O2 P2 1_555 1_555
O4 P3 1_555 1_555
S2 Cu1 1_555 1_555

#END
