
#######################################################################
#
#                 Cambridge Crystallographic Data Centre
#                                CCDC 
#
#######################################################################
#
# If this CIF has been generated from an entry in the Cambridge 
# Structural Database, then it will include bibliographic, chemical, 
# crystal, experimental, refinement or atomic coordinate data resulting 
# from the CCDC's data processing and validation procedures.
#
#######################################################################

data_ITUTAS
_symmetry_cell_setting           triclinic
_symmetry_space_group_name_H-M   'P -1'
_symmetry_Int_Tables_number      2
_space_group_name_Hall           '-P 1'
loop_
_symmetry_equiv_pos_site_id
_symmetry_equiv_pos_as_xyz
1 x,y,z
2 -x,-y,-z
_cell_length_a                   7.251(4)
_cell_length_b                   8.329(3)
_cell_length_c                   9.058(4)
_cell_angle_alpha                67.17(3)
_cell_angle_beta                 67.95(4)
_cell_angle_gamma                71.54(4)
_cell_volume                     457.855
loop_
_atom_site_label
_atom_site_type_symbol
_atom_site_fract_x
_atom_site_fract_y
_atom_site_fract_z
K1 K -0.04975(5) 0.75051(4) 0.47380(4)
O1 O 0.2752(2) 0.8495(2) 0.1541(2)
O2 O 0.5328(2) 0.8281(2) -0.0837(1)
O3 O 0.9134(2) 0.1047(2) 0.2219(1)
O4 O 0.3272(2) 0.5070(2) 0.4233(1)
O5 O 1.0955(2) 0.1920(2) -0.0831(2)
O6 O 0.9966(2) 0.4534(2) -0.2454(2)
O7 O 0.4310(2) 0.1488(2) 0.5743(2)
O8 O 0.7531(2) 0.0845(2) 0.5378(1)
N1 N 0.4297(2) 0.7586(2) 0.0915(2)
N2 N 0.6966(2) 0.6987(2) -0.1309(2)
N3 N 0.9777(2) 0.3443(2) -0.1038(2)
N4 N 0.6029(2) 0.1712(2) 0.4900(1)
C1 C 0.8283(2) 0.3901(2) 0.0311(2)
C2 C 0.7949(2) 0.2638(2) 0.1957(2)
C3 C 0.6292(2) 0.3065(2) 0.3288(2)
C4 C 0.4820(2) 0.4696(2) 0.3132(2)
C5 C 0.5348(2) 0.5952(2) 0.1457(2)
C6 C 0.6968(2) 0.5616(2) 0.0062(2)
H1 H 0.996(3) 0.109(3) 0.129(3)
K1A K 0.04975(5) 0.24949(4) 0.52620(4)
O3_2 O -0.0866(2) 1.1047(2) 0.2219(1)
O4A O -0.3272(2) 0.4930(2) 0.5767(1)
O6_2 O -0.0034(2) 0.4534(2) 0.7546(2)
O6A O 0.0034(2) 0.5466(2) 0.2454(2)
O7A O -0.4310(2) 0.8512(2) 0.4257(2)
O8_2 O -0.2469(2) 1.0845(2) 0.5378(1)
O8A O 0.2469(2) 0.9155(2) 0.4622(1)
K1_2 K 0.95025(5) -0.24949(4) 0.47380(4)
K1_3 K 0.95025(5) 0.75051(4) -0.52620(4)
K1A_2 K 1.04975(5) 0.24949(4) -0.47380(4)
K1A_3 K 1.04975(5) 0.24949(4) 0.52620(4)
H1_2 H -0.004(3) 1.109(3) 0.129(3)
loop_
_geom_bond_atom_site_label_1
_geom_bond_atom_site_label_2
_geom_bond_site_symmetry_1
_geom_bond_site_symmetry_2
K1 O1 1_555 1_555
O1 N1 1_555 1_555
O2 N1 1_555 1_555
O3 C2 1_555 1_555
O4 K1 1_555 1_555
O5 N3 1_555 1_555
O6 N3 1_555 1_555
O7 N4 1_555 1_555
O8 N4 1_555 1_555
N1 C5 1_555 1_555
N2 O2 1_555 1_555
N3 C1 1_555 1_555
N4 C3 1_555 1_555
C1 C2 1_555 1_555
C2 C3 1_555 1_555
C3 C4 1_555 1_555
C4 O4 1_555 1_555
C5 C4 1_555 1_555
C6 N2 1_555 1_555
H1 O3 1_555 1_555
K1A O4 1_555 1_555
O3_2 K1 1_555 1_555
O4A K1 1_555 1_555
O6_2 K1 1_555 1_555
O6A K1 1_555 1_555
O7A K1 1_555 1_555
O8_2 K1 1_555 1_555
O8A K1 1_555 1_555
K1_2 O3 1_555 1_555
K1_3 O6 1_555 1_555
K1A_2 O6 1_555 1_555
K1A_3 O8 1_555 1_555
H1_2 O3_2 1_555 1_555
O7 K1A 1_555 1_555
O8 K1_2 1_555 1_555
C1 C6 1_555 1_555
C5 C6 1_555 1_555
K1A O4A 1_555 1_555
K1A O6_2 1_555 1_555
K1A O6A 1_555 1_555

#END
