
#######################################################################
#
#                 Cambridge Crystallographic Data Centre
#                                CCDC 
#
#######################################################################
#
# If this CIF has been generated from an entry in the Cambridge 
# Structural Database, then it will include bibliographic, chemical, 
# crystal, experimental, refinement or atomic coordinate data resulting 
# from the CCDC's data processing and validation procedures.
#
#######################################################################

data_IVAFUG
_symmetry_cell_setting           monoclinic
_symmetry_space_group_name_H-M   'P 21'
_symmetry_Int_Tables_number      4
_space_group_name_Hall           'P 2yb'
loop_
_symmetry_equiv_pos_site_id
_symmetry_equiv_pos_as_xyz
1 x,y,z
2 -x,1/2+y,-z
_cell_length_a                   5.477(1)
_cell_length_b                   15.655(1)
_cell_length_c                   10.439(1)
_cell_angle_alpha                90
_cell_angle_beta                 104.55(1)
_cell_angle_gamma                90
_cell_volume                     866.359
loop_
_atom_site_label
_atom_site_type_symbol
_atom_site_fract_x
_atom_site_fract_y
_atom_site_fract_z
Cu1 Cu 0.4042(4) -0.0079(1) 0.7001(2)
Cl1 Cl 0.6176(8) -0.0241(3) 0.5521(4)
O1 O 0.4190(30) -0.1451(8) 0.7475(14)
O2 O 0.2430(20) -0.2386(8) 0.8592(13)
S1 S -0.2110(7) 0.0509(3) 0.8968(4)
N1 N 0.2190(20) 0.1036(8) 0.6579(12)
N2 N 0.0560(20) 0.1161(7) 0.7406(12)
N3 N 0.1680(20) -0.0162(11) 0.8154(11)
C1 C 0.3500(30) 0.1872(13) 0.4840(15)
C2 C 0.2080(30) 0.1771(10) 0.5891(13)
C3 C 0.0630(30) 0.2363(10) 0.6334(14)
C4 C -0.0380(20) 0.1953(10) 0.7258(15)
C5 C -0.2070(30) 0.2489(10) 0.7822(15)
C6 C -0.1930(30) 0.3344(10) 0.7137(16)
C7 C -0.0350(30) 0.3264(10) 0.6169(15)
C8 C 0.0490(30) 0.3851(10) 0.7343(15)
C9 C 0.0140(40) 0.4798(13) 0.7053(17)
C10 C 0.2670(40) 0.3660(11) 0.8534(18)
C11 C 0.0200(20) 0.0453(11) 0.8142(14)
C12 C 0.1320(40) -0.0969(10) 0.8693(19)
C13 C 0.2810(30) -0.1627(10) 0.8185(18)
C14 C 0.3650(40) -0.3122(12) 0.8100(20)
C15 C 0.6150(50) -0.3316(19) 0.8890(30)
S1_2 S 0.7890(7) 0.0509(3) 0.8968(4)
Cu1_2 Cu -0.5958(4) -0.0079(1) 0.7001(2)
loop_
_geom_bond_atom_site_label_1
_geom_bond_atom_site_label_2
_geom_bond_site_symmetry_1
_geom_bond_site_symmetry_2
Cu1 Cl1 1_555 1_555
O1 Cu1 1_555 1_555
O2 C13 1_555 1_555
S1 C11 1_555 1_555
N1 Cu1 1_555 1_555
N2 N1 1_555 1_555
N3 Cu1 1_555 1_555
C1 C2 1_555 1_555
C2 N1 1_555 1_555
C3 C2 1_555 1_555
C4 N2 1_555 1_555
C5 C4 1_555 1_555
C6 C5 1_555 1_555
C7 C3 1_555 1_555
C8 C6 1_555 1_555
C9 C8 1_555 1_555
C10 C8 1_555 1_555
C11 N2 1_555 1_555
C12 N3 1_555 1_555
C13 O1 1_555 1_555
C14 O2 1_555 1_555
C15 C14 1_555 1_555
S1_2 Cu1 1_555 1_555
Cu1_2 S1 1_555 1_555
N3 C11 1_555 1_555
C3 C4 1_555 1_555
C6 C7 1_555 1_555
C7 C8 1_555 1_555
C12 C13 1_555 1_555

#END
