
#######################################################################
#
#                 Cambridge Crystallographic Data Centre
#                                CCDC 
#
#######################################################################
#
# If this CIF has been generated from an entry in the Cambridge 
# Structural Database, then it will include bibliographic, chemical, 
# crystal, experimental, refinement or atomic coordinate data resulting 
# from the CCDC's data processing and validation procedures.
#
#######################################################################

data_IVAHOC
_symmetry_cell_setting           monoclinic
_symmetry_space_group_name_H-M   'P 21/n'
_symmetry_Int_Tables_number      14
_space_group_name_Hall           '-P 2yn'
loop_
_symmetry_equiv_pos_site_id
_symmetry_equiv_pos_as_xyz
1 x,y,z
2 1/2+x,1/2-y,1/2+z
3 -x,-y,-z
4 1/2-x,1/2+y,1/2-z
_cell_length_a                   13.147(4)
_cell_length_b                   10.163(3)
_cell_length_c                   16.844(5)
_cell_angle_alpha                90
_cell_angle_beta                 105.095(5)
_cell_angle_gamma                90
_cell_volume                     2172.92
loop_
_atom_site_label
_atom_site_type_symbol
_atom_site_fract_x
_atom_site_fract_y
_atom_site_fract_z
Cd1 Cd 0.29511(3) 0.23867(3) 0.22987(2)
N1 N 0.3966(4) 0.5047(4) 0.2438(3)
N2 N 0.2619(4) 0.2542(4) 0.0519(3)
O1 O 0.3097(3) 0.2573(3) 0.36609(19)
O2 O 0.4241(2) 0.0781(3) 0.27167(17)
O3 O 0.4289(3) 0.3897(3) 0.2357(2)
O4 O 0.3070(3) 0.5214(3) 0.2547(2)
O5 O 0.4548(3) 0.5991(4) 0.2420(3)
O6 O 0.2916(4) 0.1632(3) 0.1012(2)
O7 O 0.2518(4) 0.3630(4) 0.0808(3)
O8 O 0.2459(5) 0.2388(4) -0.0208(2)
O9 O 0.1286(3) 0.3138(4) 0.2056(2)
S1 S 0.26045(10) 0.36644(12) 0.40447(7)
S2 S 0.53433(9) 0.11657(11) 0.31999(7)
C1 C 0.1826(4) 0.1542(5) 0.4702(4)
H1 H 0.2236 0.1028 0.4449
C2 C 0.1223(5) 0.0964(7) 0.5156(5)
H2 H 0.1214 0.0053 0.5206
C3 C 0.0626(5) 0.1737(9) 0.5544(4)
H3 H 0.0235 0.1348 0.5868
C4 C 0.0614(5) 0.3070(7) 0.5448(4)
H4 H 0.0200 0.3586 0.5697
C5 C 0.1206(5) 0.3653(6) 0.4989(4)
H5 H 0.1192 0.4562 0.4925
C6 C 0.1820(4) 0.2895(5) 0.4624(3)
C7 C 0.3651(4) 0.4188(5) 0.4906(3)
H6 H 0.3375 0.4818 0.5229
H7 H 0.3911 0.3435 0.5254
C8 C 0.4559(4) 0.4812(5) 0.4636(3)
H8 H 0.4818 0.4196 0.4294
H9 H 0.4308 0.5589 0.4309
C9 C 0.5834(4) -0.0458(5) 0.2043(3)
H10 H 0.5124 -0.0679 0.1881
C10 C 0.6539(6) -0.1005(7) 0.1651(4)
H11 H 0.6299 -0.1585 0.1215
C11 C 0.7577(6) -0.0695(7) 0.1902(4)
H12 H 0.8048 -0.1078 0.1645
C12 C 0.7931(5) 0.0164(7) 0.2524(4)
H13 H 0.8642 0.0383 0.2684
C13 C 0.7248(5) 0.0717(6) 0.2921(4)
H14 H 0.7497 0.1294 0.3357
C14 C 0.6200(4) 0.0416(5) 0.2673(3)
C15 C 0.5619(4) 0.0113(5) 0.4087(3)
H15 H 0.5501 -0.0797 0.3914
H16 H 0.6351 0.0207 0.4389
C16 C 0.4916(4) 0.0464(5) 0.4641(3)
H17 H 0.5067 0.1357 0.4841
H18 H 0.4185 0.0428 0.4327
C8B C 0.5441(4) 0.5188(5) 0.5364(3)
C7B C 0.6349(4) 0.5812(5) 0.5094(3)
S1B S 0.73955(10) 0.63356(12) 0.59553(7)
O1B O 0.6903(3) 0.7427(3) 0.63391(19)
C6B C 0.8180(4) 0.7105(5) 0.5376(3)
C1B C 0.8174(4) 0.8458(5) 0.5298(4)
H1B H 0.7764 0.8972 0.5551
C2B C 0.8777(5) 0.9036(7) 0.4844(5)
H2B H 0.8786 0.9947 0.4794
C3B C 0.9374(5) 0.8263(9) 0.4456(4)
H3B H 0.9765 0.8652 0.4132
C4B C 0.9386(5) 0.6930(7) 0.4552(4)
H4B H 0.9800 0.6414 0.4303
C5B C 0.8794(5) 0.6347(6) 0.5011(4)
H5B H 0.8808 0.5438 0.5075
H6B H 0.6625 0.5182 0.4771
H7B H 0.6089 0.6565 0.4746
H8B H 0.5182 0.5804 0.5706
H9B H 0.5692 0.4411 0.5691
C16B C 0.5084(4) -0.0464(5) 0.5359(3)
C15B C 0.4381(4) -0.0113(5) 0.5913(3)
S2B S 0.46567(9) -0.11657(11) 0.68001(7)
O2B O 0.5759(2) -0.0781(3) 0.72833(17)
C14B C 0.3800(4) -0.0416(5) 0.7327(3)
C9B C 0.4166(4) 0.0458(5) 0.7957(3)
H10B H 0.4876 0.0679 0.8119
C10B C 0.3461(6) 0.1005(7) 0.8349(4)
H11B H 0.3701 0.1585 0.8785
C11B C 0.2423(6) 0.0695(7) 0.8098(4)
H12B H 0.1952 0.1078 0.8355
C12B C 0.2069(5) -0.0164(7) 0.7476(4)
H13B H 0.1358 -0.0383 0.7316
C13B C 0.2752(5) -0.0717(6) 0.7079(4)
H14B H 0.2503 -0.1294 0.6643
H15B H 0.4499 0.0797 0.6086
H16B H 0.3649 -0.0207 0.5611
H17B H 0.4933 -0.1357 0.5159
H18B H 0.5815 -0.0428 0.5673
N1C N 0.1034(4) 0.0047(4) 0.2562(3)
O3C O 0.0711(3) -0.1103(3) 0.2643(2)
O4C O 0.1930(3) 0.0214(3) 0.2453(2)
O5C O 0.0452(3) 0.0991(4) 0.2580(3)
Cd1B Cd 0.70489(3) 0.76133(3) 0.77013(2)
N2B N 0.7381(4) 0.7458(4) 0.9481(3)
O6B O 0.7084(4) 0.8368(3) 0.8988(2)
O7B O 0.7482(4) 0.6370(4) 0.9192(3)
O8B O 0.7541(5) 0.7612(4) 1.0208(2)
O9B O 0.8714(3) 0.6862(4) 0.7944(2)
Cd1C Cd 0.20489(3) 0.73867(3) 0.27013(2)
Cd1B_2 Cd 0.70489(3) -0.23867(3) 0.77013(2)
Cd1C_2 Cd 0.20489(3) -0.26133(3) 0.27013(2)
O2B_2 O 0.5759(2) 0.9219(3) 0.72833(17)
O3B O 0.5711(3) 0.6103(3) 0.7643(2)
O4A O 0.8070(3) 0.9786(3) 0.7547(2)
loop_
_geom_bond_atom_site_label_1
_geom_bond_atom_site_label_2
_geom_bond_site_symmetry_1
_geom_bond_site_symmetry_2
Cd1 O1 1_555 1_555
N1 O3 1_555 1_555
N2 O6 1_555 1_555
O1 S1 1_555 1_555
O2 Cd1 1_555 1_555
O3 Cd1 1_555 1_555
O4 N1 1_555 1_555
O5 N1 1_555 1_555
O6 Cd1 1_555 1_555
O7 N2 1_555 1_555
O8 N2 1_555 1_555
O9 Cd1 1_555 1_555
S1 C6 1_555 1_555
S2 O2 1_555 1_555
C1 H1 1_555 1_555
C2 C1 1_555 1_555
H2 C2 1_555 1_555
C3 C2 1_555 1_555
H3 C3 1_555 1_555
C4 C3 1_555 1_555
H4 C4 1_555 1_555
C5 C4 1_555 1_555
H5 C5 1_555 1_555
C6 C1 1_555 1_555
C7 S1 1_555 1_555
H6 C7 1_555 1_555
H7 C7 1_555 1_555
C8 C7 1_555 1_555
H8 C8 1_555 1_555
H9 C8 1_555 1_555
C9 H10 1_555 1_555
C10 C9 1_555 1_555
H11 C10 1_555 1_555
C11 C10 1_555 1_555
H12 C11 1_555 1_555
C12 C11 1_555 1_555
H13 C12 1_555 1_555
C13 C12 1_555 1_555
H14 C13 1_555 1_555
C14 S2 1_555 1_555
C15 S2 1_555 1_555
H15 C15 1_555 1_555
H16 C15 1_555 1_555
C16 C15 1_555 1_555
H17 C16 1_555 1_555
H18 C16 1_555 1_555
C8B C8 1_555 1_555
C7B C8B 1_555 1_555
S1B C7B 1_555 1_555
O1B S1B 1_555 1_555
C6B S1B 1_555 1_555
C1B C6B 1_555 1_555
H1B C1B 1_555 1_555
C2B C1B 1_555 1_555
H2B C2B 1_555 1_555
C3B C2B 1_555 1_555
H3B C3B 1_555 1_555
C4B C3B 1_555 1_555
H4B C4B 1_555 1_555
C5B C6B 1_555 1_555
H5B C5B 1_555 1_555
H6B C7B 1_555 1_555
H7B C7B 1_555 1_555
H8B C8B 1_555 1_555
H9B C8B 1_555 1_555
C16B C16 1_555 1_555
C15B C16B 1_555 1_555
S2B C15B 1_555 1_555
O2B S2B 1_555 1_555
C14B S2B 1_555 1_555
C9B C14B 1_555 1_555
H10B C9B 1_555 1_555
C10B C9B 1_555 1_555
H11B C10B 1_555 1_555
C11B C10B 1_555 1_555
H12B C11B 1_555 1_555
C12B C11B 1_555 1_555
H13B C12B 1_555 1_555
C13B C14B 1_555 1_555
H14B C13B 1_555 1_555
H15B C15B 1_555 1_555
H16B C15B 1_555 1_555
H17B C16B 1_555 1_555
H18B C16B 1_555 1_555
N1C O3C 1_555 1_555
O3C Cd1C_2 1_555 1_555
O4C Cd1 1_555 1_555
O5C N1C 1_555 1_555
Cd1B O1B 1_555 1_555
N2B O6B 1_555 1_555
O6B Cd1B 1_555 1_555
O7B N2B 1_555 1_555
O8B N2B 1_555 1_555
O9B Cd1B 1_555 1_555
Cd1C O4 1_555 1_555
Cd1B_2 O2B 1_555 1_555
O2B_2 Cd1B 1_555 1_555
O3B Cd1B 1_555 1_555
O4A Cd1B 1_555 1_555
C5 C6 1_555 1_555
C9 C14 1_555 1_555
C13 C14 1_555 1_555
C4B C5B 1_555 1_555
C12B C13B 1_555 1_555
N1C O4C 1_555 1_555

#END
