
#######################################################################
#
#                 Cambridge Crystallographic Data Centre
#                                CCDC 
#
#######################################################################
#
# If this CIF has been generated from an entry in the Cambridge 
# Structural Database, then it will include bibliographic, chemical, 
# crystal, experimental, refinement or atomic coordinate data resulting 
# from the CCDC's data processing and validation procedures.
#
#######################################################################

data_IVAPAX
_symmetry_cell_setting           triclinic
_symmetry_space_group_name_H-M   'P -1'
_symmetry_Int_Tables_number      2
_space_group_name_Hall           '-P 1'
loop_
_symmetry_equiv_pos_site_id
_symmetry_equiv_pos_as_xyz
1 x,y,z
2 -x,-y,-z
_cell_length_a                   11.191(4)
_cell_length_b                   18.547(6)
_cell_length_c                   19.309(7)
_cell_angle_alpha                75.053(10)
_cell_angle_beta                 85.930(12)
_cell_angle_gamma                77.835(10)
_cell_volume                     3784.63
loop_
_atom_site_label
_atom_site_type_symbol
_atom_site_fract_x
_atom_site_fract_y
_atom_site_fract_z
Cu1 Cu 0.41090(11) 0.00795(7) 0.33373(7)
Cu2 Cu 0.29875(11) 0.35369(7) -0.05569(7)
Cu3 Cu 0.71112(11) 0.19486(8) 0.13863(8)
Cu4 Cu -0.01171(11) 0.20590(8) 0.16196(8)
Cl1 Cl 0.4534(2) -0.12243(15) 0.36288(17)
Cl2 Cl 0.2558(2) 0.48174(15) -0.10893(16)
Cl3 Cl 0.7975(2) 0.24109(19) 0.22198(17)
Cl4 Cl 0.9020(2) 0.16322(17) 0.07121(15)
S1 S 0.3356(2) 0.16305(16) 0.38140(17)
S2 S 0.5136(2) 0.15734(14) 0.26374(15)
S3 S 0.2587(2) 0.16127(15) 0.23842(17)
S4 S 0.3675(2) 0.18169(16) -0.06674(18)
S5 S 0.1971(2) 0.21607(14) 0.04602(15)
S6 S 0.4543(2) 0.21775(16) 0.05908(18)
N1 N 0.3716(7) 0.0132(4) 0.4385(4)
N2 N 0.2987(8) 0.0978(5) 0.5134(5)
N3 N 0.5403(7) 0.0143(4) 0.2517(4)
N4 N 0.6622(6) 0.0948(4) 0.1752(4)
N5 N 0.2294(7) 0.0192(5) 0.2937(5)
N6 N 0.0647(7) 0.1072(5) 0.2277(5)
N7 N 0.3303(6) 0.3232(4) -0.1495(4)
N8 N 0.3996(8) 0.2185(5) -0.2039(5)
N9 N 0.1783(7) 0.3646(4) 0.0297(4)
N10 N 0.0477(7) 0.3015(5) 0.1177(4)
N11 N 0.4753(7) 0.3562(5) -0.0162(5)
N12 N 0.6314(6) 0.2884(4) 0.0666(4)
C1 C 0.3774(8) 0.1241(5) 0.3059(5)
C2 C 0.3361(8) 0.0813(6) 0.4509(6)
C3 C 0.3704(9) -0.0449(6) 0.4958(6)
C4 C 0.3345(10) -0.0352(7) 0.5628(6)
C5 C 0.2993(10) 0.0371(7) 0.5710(7)
C6 C 0.5750(7) 0.0812(5) 0.2280(5)
C7 C 0.5915(10) -0.0425(6) 0.2211(5)
C8 C 0.6779(10) -0.0326(6) 0.1678(6)
C9 C 0.7133(9) 0.0357(6) 0.1466(6)
C10 C 0.1785(7) 0.0873(5) 0.2572(6)
C11 C 0.1637(10) -0.0357(6) 0.3080(7)
C12 C 0.0482(11) -0.0213(7) 0.2808(7)
C13 C 0.0004(11) 0.0499(7) 0.2422(7)
C14 C 0.3323(9) 0.2410(5) -0.0052(5)
C15 C 0.3658(9) 0.2496(6) -0.1489(6)
C16 C 0.3395(9) 0.3713(6) -0.2159(6)
C17 C 0.3783(11) 0.3472(7) -0.2763(6)
C18 C 0.4049(10) 0.2680(7) -0.2672(6)
C19 C 0.1373(9) 0.3022(5) 0.0657(5)
C20 C 0.1307(9) 0.4297(6) 0.0472(6)
C21 C 0.0427(9) 0.4331(6) 0.1017(6)
C22 C 0.0010(9) 0.3678(6) 0.1338(6)
C23 C 0.5218(8) 0.2963(5) 0.0329(5)
C24 C 0.6839(11) 0.3492(7) 0.0469(7)
C25 C 0.6402(12) 0.4123(7) -0.0044(8)
C26 C 0.5285(10) 0.4157(6) -0.0357(7)
H1 H 0.3954 -0.0953 0.4901
H2 H 0.3342 -0.0779 0.6025
H3 H 0.2752 0.0452 0.6170
H4 H 0.5671 -0.0903 0.2368
H5 H 0.7128 -0.0727 0.1459
H6 H 0.7755 0.0421 0.1107
H7 H 0.1970 -0.0847 0.3370
H8 H 0.0027 -0.0607 0.2890
H9 H -0.0802 0.0602 0.2247
H10 H 0.3176 0.4246 -0.2201
H11 H 0.3867 0.3817 -0.3214
H12 H 0.4279 0.2486 -0.3082
H13 H 0.1573 0.4749 0.0221
H14 H 0.0127 0.4790 0.1160
H15 H -0.0631 0.3698 0.1687
H16 H 0.7562 0.3479 0.0705
H17 H 0.6832 0.4529 -0.0190
H18 H 0.4920 0.4601 -0.0702
Cu4_2 Cu 0.98829(11) 0.20590(8) 0.16196(8)
Cl3_2 Cl -0.2025(2) 0.24109(19) 0.22198(17)
Cl4_2 Cl -0.0980(2) 0.16322(17) 0.07121(15)
Cu5 Cu 0.08029(11) 0.30078(7) 0.67013(7)
Cu6 Cu 0.36023(11) 0.50563(7) 0.48284(8)
Cl5 Cl 0.1321(2) 0.16960(16) 0.69157(18)
Cl6 Cl 0.5457(2) 0.48457(16) 0.41189(15)
S7 S 0.0144(2) 0.44936(18) 0.73105(16)
S8 S 0.1573(2) 0.45950(14) 0.59890(16)
S9 S -0.1027(2) 0.45652(15) 0.59680(17)
N13 N 0.0516(7) 0.2975(5) 0.7762(5)
N14 N -0.0175(8) 0.3727(6) 0.8610(5)
N15 N 0.2106(7) 0.3142(4) 0.5878(4)
N16 N 0.3149(6) 0.4040(4) 0.5105(4)
N17 N -0.0952(8) 0.3080(5) 0.6235(6)
N18 N -0.2691(7) 0.3930(4) 0.5633(5)
C27 C 0.0353(8) 0.4173(5) 0.6500(5)
C28 C 0.0158(9) 0.3629(6) 0.7957(6)
C29 C 0.0528(11) 0.2336(8) 0.8290(7)
C30 C 0.0153(11) 0.2388(9) 0.8984(6)
C31 C -0.0171(11) 0.3088(9) 0.9106(7)
C32 C 0.2324(8) 0.3861(5) 0.5630(5)
C33 C 0.2741(10) 0.2597(6) 0.5610(6)
C34 C 0.3591(10) 0.2733(6) 0.5071(6)
C35 C 0.3783(9) 0.3472(5) 0.4834(6)
C36 C -0.1593(8) 0.3758(5) 0.5965(6)
C37 C -0.1409(12) 0.2479(6) 0.6211(8)
C38 C -0.2532(12) 0.2576(7) 0.5890(8)
C39 C -0.3129(11) 0.3297(6) 0.5619(8)
H19 H 0.0790 0.1851 0.8190
H20 H 0.0127 0.1944 0.9359
H21 H -0.0411 0.3122 0.9580
H22 H 0.2609 0.2092 0.5795
H23 H 0.4031 0.2337 0.4868
H24 H 0.4381 0.3580 0.4469
H25 H -0.0968 0.1980 0.6415
H26 H -0.2862 0.2152 0.5864
H27 H -0.3898 0.3370 0.5405
Cu5A Cu -0.08029(11) 0.69922(7) 0.32987(7)
Cu6A Cu -0.36023(11) 0.49437(7) 0.51716(8)
Cu6A_2 Cu 0.63977(11) 0.49437(7) 0.51716(8)
Cl5A Cl -0.1321(2) 0.83040(16) 0.30843(18)
Cl6A Cl 0.4543(2) 0.51543(16) 0.58811(15)
Cl6A_2 Cl -0.5457(2) 0.51543(16) 0.58811(15)
Cl6_2 Cl -0.4543(2) 0.48457(16) 0.41189(15)
S7A S -0.0144(2) 0.55064(18) 0.26895(16)
S8A S -0.1573(2) 0.54050(14) 0.40110(16)
S9A S 0.1027(2) 0.54348(15) 0.40320(17)
N13A N -0.0516(7) 0.7025(5) 0.2238(5)
N14A N 0.0175(8) 0.6273(6) 0.1390(5)
N15A N -0.2106(7) 0.6858(4) 0.4122(4)
N16A N -0.3149(6) 0.5960(4) 0.4895(4)
N17A N 0.0952(8) 0.6920(5) 0.3765(6)
N18A N 0.2691(7) 0.6070(4) 0.4367(5)
C27A C -0.0353(8) 0.5827(5) 0.3500(5)
C28A C -0.0158(9) 0.6371(6) 0.2043(6)
C29A C -0.0528(11) 0.7664(8) 0.1710(7)
C30A C -0.0153(11) 0.7612(9) 0.1016(6)
C31A C 0.0171(11) 0.6912(9) 0.0894(7)
C32A C -0.2324(8) 0.6139(5) 0.4370(5)
C33A C -0.2741(10) 0.7403(6) 0.4390(6)
C34A C -0.3591(10) 0.7267(6) 0.4929(6)
C35A C -0.3783(9) 0.6528(5) 0.5166(6)
C36A C 0.1593(8) 0.6242(5) 0.4035(6)
C37A C 0.1409(12) 0.7521(6) 0.3789(8)
C38A C 0.2532(12) 0.7424(7) 0.4110(8)
C39A C 0.3129(11) 0.6703(6) 0.4381(8)
H19A H -0.0790 0.8149 0.1810
H20A H -0.0127 0.8056 0.0641
H21A H 0.0411 0.6878 0.0420
H22A H -0.2609 0.7908 0.4205
H23A H -0.4031 0.7663 0.5132
H24A H -0.4381 0.6420 0.5531
H25A H 0.0968 0.8020 0.3585
H26A H 0.2862 0.7848 0.4136
H27A H 0.3898 0.6630 0.4595
O1 O 0.0981(9) -0.0051(8) 0.4517(7)
C40 C 0.0522(16) -0.0724(11) 0.4890(10)
C41 C 0.0047(16) 0.0597(13) 0.4423(11)
H28 H 0.1199 -0.1175 0.4983
H29 H -0.0091 -0.0817 0.4595
H30 H -0.0591 0.0544 0.4120
H31 H 0.0384 0.1048 0.4166
O1A O -0.0981(9) 0.0051(8) 0.5483(7)
C40A C -0.0522(16) 0.0724(11) 0.5110(10)
C41A C -0.0047(16) -0.0597(13) 0.5577(11)
H28A H -0.1199 0.1175 0.5017
H29A H 0.0091 0.0817 0.5405
H30A H 0.0591 -0.0544 0.5880
H31A H -0.0384 -0.1048 0.5834
O2 O 0.9209(14) 0.2536(8) 0.4391(9)
O3 O 0.9900(10) 0.3883(6) 0.3598(7)
C42 C 1.0333(18) 0.2717(11) 0.4501(11)
C43 C 1.0245(19) 0.3489(11) 0.4319(15)
C44 C 0.876(2) 0.3679(11) 0.3474(15)
C45 C 0.886(4) 0.291(2) 0.3716(19)
H32 H 1.0559 0.2509 0.5010
H33 H 1.0981 0.2482 0.4205
H34 H 1.1045 0.3595 0.4404
H35 H 0.9641 0.3707 0.4648
H36 H 0.8077 0.3944 0.3730
H37 H 0.8582 0.3839 0.2956
H38 H 0.8050 0.2801 0.3653
H39 H 0.9437 0.2676 0.3388
O4 O 0.4144(16) 0.3328(8) 0.3087(7)
O5 O 0.384(2) 0.4397(9) 0.1783(7)
C46 C 0.310(2) 0.3831(13) 0.2913(18)
C47 C 0.292(2) 0.409(2) 0.2179(14)
C48 C 0.492(2) 0.3829(12) 0.1977(15)
C49 C 0.5109(17) 0.3658(14) 0.2702(14)
H40 H 0.3104 0.4272 0.3113
H41 H 0.2412 0.3594 0.3139
H42 H 0.2800 0.3660 0.1996
H43 H 0.2156 0.4481 0.2098
H44 H 0.4839 0.3362 0.1840
H45 H 0.5628 0.4013 0.1713
H46 H 0.5147 0.4128 0.2846
H47 H 0.5898 0.3298 0.2819
O6 O 0.3077(18) 0.7480(17) 0.1360(11)
O7 O 0.313(2) 0.626(2) 0.2529(14)
C50 C 0.269(2) 0.7561(16) 0.2114(14)
C51 C 0.3367(19) 0.6911(15) 0.2639(14)
C52 C 0.355(2) 0.6161(15) 0.1784(13)
C53 C 0.2784(19) 0.6741(14) 0.1235(15)
O8 O 0.2252(18) 0.9354(10) 0.1394(8)
O9 O 0.269(3) 1.0267(13) 0.0118(19)
C54 C 0.345(2) 0.970(3) 0.118(2)
C55 C 0.336(4) 0.970(3) 0.048(4)
C56 C 0.158(3) 1.014(2) 0.031(2)
C57 C 0.142(4) 0.968(3) 0.090(2)
H48 H 0.3371 1.0210 0.1258
H49 H 0.4195 0.9352 0.1407
H50 H 0.4192 0.9663 0.0261
H51 H 0.3057 0.9246 0.0460
H52 H 0.1039 1.0637 0.0317
H53 H 0.1277 0.9956 -0.0069
H54 H 0.1126 0.9265 0.0779
H55 H 0.0727 0.9955 0.1142
C58? C 0.411(2) 0.685(2) 0.1447(16)
C59? C 0.209(3) 0.694(4) 0.244(2)
loop_
_geom_bond_atom_site_label_1
_geom_bond_atom_site_label_2
_geom_bond_site_symmetry_1
_geom_bond_site_symmetry_2
Cu1 Cl1 1_555 1_555
Cu2 Cl2 1_555 1_555
Cu3 Cl3 1_555 1_555
Cu4 N6 1_555 1_555
Cu5 Cl5 1_555 1_555
Cu6 Cl6 1_555 1_555
Cl3 Cu4_2 1_555 1_555
Cl4 Cu3 1_555 1_555
Cl6 Cu6A_2 1_555 1_555
S1 C1 1_555 1_555
S2 C1 1_555 1_555
S3 C1 1_555 1_555
S4 C14 1_555 1_555
S5 C14 1_555 1_555
S6 C14 1_555 1_555
S7 C27 1_555 1_555
S8 C27 1_555 1_555
S9 C27 1_555 1_555
O1 C40 1_555 1_555
O2 C42 1_555 1_555
O3 C43 1_555 1_555
O4 C46 1_555 1_555
O5 C47 1_555 1_555
O6 C50 1_555 1_555
O7 C51 1_555 1_555
O8 C54 1_555 1_555
O9 C55 1_555 1_555
N1 Cu1 1_555 1_555
N2 C2 1_555 1_555
N3 Cu1 1_555 1_555
N4 Cu3 1_555 1_555
N5 Cu1 1_555 1_555
N6 C10 1_555 1_555
N7 Cu2 1_555 1_555
N8 C15 1_555 1_555
N9 Cu2 1_555 1_555
N10 Cu4 1_555 1_555
N11 Cu2 1_555 1_555
N12 Cu3 1_555 1_555
N13 Cu5 1_555 1_555
N14 C28 1_555 1_555
N15 Cu5 1_555 1_555
N16 Cu6 1_555 1_555
N17 Cu5 1_555 1_555
N18 C36 1_555 1_555
C1 Cu1 1_555 1_555
C2 S1 1_555 1_555
C3 N1 1_555 1_555
C4 C3 1_555 1_555
C5 N2 1_555 1_555
C6 S2 1_555 1_555
C7 N3 1_555 1_555
C8 C7 1_555 1_555
C9 N4 1_555 1_555
C10 S3 1_555 1_555
C11 N5 1_555 1_555
C12 C11 1_555 1_555
C13 N6 1_555 1_555
C14 Cu2 1_555 1_555
C15 S4 1_555 1_555
C16 N7 1_555 1_555
C17 C16 1_555 1_555
C18 N8 1_555 1_555
C19 S5 1_555 1_555
C20 N9 1_555 1_555
C21 C20 1_555 1_555
C22 N10 1_555 1_555
C23 S6 1_555 1_555
C24 N12 1_555 1_555
C25 C24 1_555 1_555
C26 N11 1_555 1_555
C27 Cu5 1_555 1_555
C28 S7 1_555 1_555
C29 N13 1_555 1_555
C30 C29 1_555 1_555
C31 N14 1_555 1_555
C32 S8 1_555 1_555
C33 N15 1_555 1_555
C34 C33 1_555 1_555
C35 N16 1_555 1_555
C36 S9 1_555 1_555
C37 N17 1_555 1_555
C38 C37 1_555 1_555
C39 N18 1_555 1_555
C40 H28 1_555 1_555
C41 O1 1_555 1_555
C42 C43 1_555 1_555
C43 H34 1_555 1_555
C44 O3 1_555 1_555
C45 O2 1_555 1_555
C46 C47 1_555 1_555
C47 H42 1_555 1_555
C48 O5 1_555 1_555
C49 O4 1_555 1_555
C50 C51 1_555 1_555
C52 O7 1_555 1_555
C53 O6 1_555 1_555
C54 C55 1_555 1_555
C55 H50 1_555 1_555
C56 O9 1_555 1_555
C57 O8 1_555 1_555
H1 C3 1_555 1_555
H2 C4 1_555 1_555
H3 C5 1_555 1_555
H4 C7 1_555 1_555
H5 C8 1_555 1_555
H6 C9 1_555 1_555
H7 C11 1_555 1_555
H8 C12 1_555 1_555
H9 C13 1_555 1_555
H10 C16 1_555 1_555
H11 C17 1_555 1_555
H12 C18 1_555 1_555
H13 C20 1_555 1_555
H14 C21 1_555 1_555
H15 C22 1_555 1_555
H16 C24 1_555 1_555
H17 C25 1_555 1_555
H18 C26 1_555 1_555
H19 C29 1_555 1_555
H20 C30 1_555 1_555
H21 C31 1_555 1_555
H22 C33 1_555 1_555
H23 C34 1_555 1_555
H24 C35 1_555 1_555
H25 C37 1_555 1_555
H26 C38 1_555 1_555
H27 C39 1_555 1_555
H29 C40 1_555 1_555
H30 C41 1_555 1_555
H31 C41 1_555 1_555
H32 C42 1_555 1_555
H33 C42 1_555 1_555
H35 C43 1_555 1_555
H36 C44 1_555 1_555
H37 C44 1_555 1_555
H38 C45 1_555 1_555
H39 C45 1_555 1_555
H40 C46 1_555 1_555
H41 C46 1_555 1_555
H43 C47 1_555 1_555
H44 C48 1_555 1_555
H45 C48 1_555 1_555
H46 C49 1_555 1_555
H47 C49 1_555 1_555
H48 C54 1_555 1_555
H49 C54 1_555 1_555
H51 C55 1_555 1_555
H52 C56 1_555 1_555
H53 C56 1_555 1_555
H54 C57 1_555 1_555
H55 C57 1_555 1_555
Cu4_2 Cl4 1_555 1_555
Cu5A Cl5A 1_555 1_555
Cu6A N18 1_555 1_555
Cu6A_2 Cl6A 1_555 1_555
Cl3_2 Cu4 1_555 1_555
Cl4_2 Cu4 1_555 1_555
Cl6A Cu6 1_555 1_555
Cl6A_2 Cu6A 1_555 1_555
Cl6_2 Cu6A 1_555 1_555
S7A C27A 1_555 1_555
S8A C27A 1_555 1_555
S9A C27A 1_555 1_555
O1A C40A 1_555 1_555
N13A Cu5A 1_555 1_555
N14A C28A 1_555 1_555
N15A Cu5A 1_555 1_555
N16A Cu6A 1_555 1_555
N17A Cu5A 1_555 1_555
N18A Cu6 1_555 1_555
C27A Cu5A 1_555 1_555
C28A S7A 1_555 1_555
C29A N13A 1_555 1_555
C30A C29A 1_555 1_555
C31A N14A 1_555 1_555
C32A S8A 1_555 1_555
C33A N15A 1_555 1_555
C34A C33A 1_555 1_555
C35A N16A 1_555 1_555
C36A S9A 1_555 1_555
C37A N17A 1_555 1_555
C38A C37A 1_555 1_555
C39A N18A 1_555 1_555
C40A C41 1_555 1_555
C41A C40 1_555 1_555
H19A C29A 1_555 1_555
H20A C30A 1_555 1_555
H21A C31A 1_555 1_555
H22A C33A 1_555 1_555
H23A C34A 1_555 1_555
H24A C35A 1_555 1_555
H25A C37A 1_555 1_555
H26A C38A 1_555 1_555
H27A C39A 1_555 1_555
H28A C40A 1_555 1_555
H29A C40A 1_555 1_555
H30A C41A 1_555 1_555
H31A C41A 1_555 1_555
N1 C2 1_555 1_555
N3 C6 1_555 1_555
N4 C6 1_555 1_555
N5 C10 1_555 1_555
N7 C15 1_555 1_555
N9 C19 1_555 1_555
N10 C19 1_555 1_555
N11 C23 1_555 1_555
N12 C23 1_555 1_555
N13 C28 1_555 1_555
N15 C32 1_555 1_555
N16 C32 1_555 1_555
N17 C36 1_555 1_555
C4 C5 1_555 1_555
C8 C9 1_555 1_555
C12 C13 1_555 1_555
C17 C18 1_555 1_555
C21 C22 1_555 1_555
C25 C26 1_555 1_555
C30 C31 1_555 1_555
C34 C35 1_555 1_555
C38 C39 1_555 1_555
C44 C45 1_555 1_555
C48 C49 1_555 1_555
C52 C53 1_555 1_555
C56 C57 1_555 1_555
O1A C41A 1_555 1_555
N13A C28A 1_555 1_555
N15A C32A 1_555 1_555
N16A C32A 1_555 1_555
N17A C36A 1_555 1_555
N18A C36A 1_555 1_555
C30A C31A 1_555 1_555
C34A C35A 1_555 1_555
C38A C39A 1_555 1_555

#END
