
#######################################################################
#
#                 Cambridge Crystallographic Data Centre
#                                CCDC 
#
#######################################################################
#
# If this CIF has been generated from an entry in the Cambridge 
# Structural Database, then it will include bibliographic, chemical, 
# crystal, experimental, refinement or atomic coordinate data resulting 
# from the CCDC's data processing and validation procedures.
#
#######################################################################

data_IVAPEB
_symmetry_cell_setting           triclinic
_symmetry_space_group_name_H-M   'P -1'
_symmetry_Int_Tables_number      2
_space_group_name_Hall           '-P 1'
loop_
_symmetry_equiv_pos_site_id
_symmetry_equiv_pos_as_xyz
1 x,y,z
2 -x,-y,-z
_cell_length_a                   11.354(5)
_cell_length_b                   12.779(5)
_cell_length_c                   12.983(4)
_cell_angle_alpha                69.44(3)
_cell_angle_beta                 78.87(4)
_cell_angle_gamma                81.47(4)
_cell_volume                     1723.92
loop_
_atom_site_label
_atom_site_type_symbol
_atom_site_fract_x
_atom_site_fract_y
_atom_site_fract_z
Cu1 Cu 0.99161(17) 0.16508(19) 0.1976(2)
Cu2 Cu 0.64172(17) 0.5053(2) -0.0200(2)
Cl1 Cl 1.0132(4) -0.0161(4) 0.1997(4)
Cl2 Cl 0.4982(3) 0.4822(3) 0.1463(4)
S1 S 0.9522(3) 0.3337(4) 0.3341(4)
S2 S 0.8240(3) 0.3900(3) 0.1471(4)
S3 S 1.0873(3) 0.4066(3) 0.1101(4)
N1 N 0.9123(11) 0.1235(12) 0.3617(15)
N2 N 0.8614(14) 0.1892(14) 0.5195(14)
N3 N 0.8948(11) 0.2193(10) 0.0623(11)
N4 N 0.7413(11) 0.3628(12) -0.0177(11)
N5 N 1.1736(10) 0.1966(11) 0.1385(12)
N6 N 1.3128(10) 0.3363(10) 0.0652(12)
C1 C 0.9631(14) 0.3245(15) 0.1995(13)
C2 C 0.9007(13) 0.2072(19) 0.4133(15)
C3 C 0.8774(14) 0.0226(15) 0.4367(14)
C4 C 0.8300(13) 0.0073(19) 0.5450(15)
C5 C 0.8275(16) 0.0933(17) 0.5857(18)
C6 C 0.8208(12) 0.3186(12) 0.0513(12)
C7 C 0.8864(14) 0.1692(16) -0.0081(16)
C8 C 0.8078(15) 0.2063(17) -0.085(2)
C9 C 0.7339(15) 0.3105(16) -0.0836(16)
C10 C 1.2008(12) 0.2999(13) 0.1078(13)
C11 C 1.2668(15) 0.1178(14) 0.1298(15)
C12 C 1.3837(13) 0.1422(14) 0.0873(17)
C13 C 1.4014(15) 0.2571(16) 0.0556(17)
H1 H 0.8869 -0.0399 0.4115
H2 H 0.7992 -0.0618 0.5917
H3 H 0.8008 0.0822 0.6624
H4 H 0.9379 0.1030 -0.0060
H5 H 0.8020 0.1679 -0.1344
H6 H 0.6776 0.3405 -0.1343
H7 H 1.2497 0.0415 0.1548
H8 H 1.4473 0.0867 0.0797
H9 H 1.4806 0.2794 0.0258
Cu1A Cu 0.00839(17) 0.83492(19) -0.1976(2)
Cu2A Cu 0.35828(17) 0.4947(2) 0.0200(2)
Cu2_2 Cu -0.35828(17) 0.5053(2) -0.0200(2)
Cu2A_2 Cu 1.35828(17) 0.4947(2) 0.0200(2)
Cl1A Cl -0.0132(4) 1.0161(4) -0.1997(4)
Cl2A Cl 0.5018(3) 0.5178(3) -0.1463(4)
S1A S 0.0478(3) 0.6663(4) -0.3341(4)
S2A S 0.1760(3) 0.6100(3) -0.1471(4)
S3A S -0.0873(3) 0.5934(3) -0.1101(4)
N1A N 0.0877(11) 0.8765(12) -0.3617(15)
N2A N 0.1386(14) 0.8108(14) -0.5195(14)
N3A N 0.1052(11) 0.7807(10) -0.0623(11)
N4A N 0.2587(11) 0.6372(12) 0.0177(11)
N5A N -0.1736(10) 0.8034(11) -0.1385(12)
N6A N -0.3128(10) 0.6637(10) -0.0652(12)
N6_2 N 0.3128(10) 0.3363(10) 0.0652(12)
N6A_2 N 0.6872(10) 0.6637(10) -0.0652(12)
C1A C 0.0369(14) 0.6755(15) -0.1995(13)
C2A C 0.0993(13) 0.7928(19) -0.4133(15)
C3A C 0.1226(14) 0.9774(15) -0.4367(14)
C4A C 0.1700(13) 0.9927(19) -0.5450(15)
C5A C 0.1725(16) 0.9067(17) -0.5857(18)
C6A C 0.1792(12) 0.6814(12) -0.0513(12)
C7A C 0.1136(14) 0.8308(16) 0.0081(16)
C8A C 0.1922(15) 0.7937(17) 0.085(2)
C9A C 0.2661(15) 0.6895(16) 0.0836(16)
C10A C -0.2008(12) 0.7001(13) -0.1078(13)
C11A C -0.2668(15) 0.8822(14) -0.1298(15)
C12A C -0.3837(13) 0.8578(14) -0.0873(17)
C13A C -0.4014(15) 0.7429(16) -0.0556(17)
H1A H 0.1131 1.0399 -0.4115
H2A H 0.2008 1.0618 -0.5917
H3A H 0.1992 0.9178 -0.6624
H4A H 0.0621 0.8970 0.0060
H5A H 0.1980 0.8321 0.1344
H6A H 0.3224 0.6595 0.1343
H7A H -0.2497 0.9585 -0.1548
H8A H -0.4473 0.9133 -0.0797
H9A H -0.4806 0.7206 -0.0258
Cu3 Cu 0.31312(19) 0.2216(2) 0.6191(2)
Cl3 Cl 0.2753(4) 0.2400(4) 0.4462(4)
S4 S 0.3159(4) 0.0679(4) 0.8672(4)
S5 S 0.5038(4) 0.2243(5) 0.7643(4)
S6 S 0.2551(4) 0.3090(4) 0.8228(4)
N7 N 0.3560(11) 0.0477(12) 0.6675(14)
N8 N 0.3652(13) -0.1181(14) 0.8229(15)
N9 N 0.4647(12) 0.3133(12) 0.5529(14)
N10 N 0.6409(11) 0.3568(14) 0.6010(15)
N11 N 0.1449(12) 0.2927(15) 0.6671(14)
N12 N 0.0384(13) 0.3990(13) 0.7811(13)
C14 C 0.3498(14) 0.1997(17) 0.7729(18)
C15 C 0.3521(12) -0.0111(17) 0.7759(17)
C16 C 0.3870(16) -0.0099(18) 0.5955(17)
C17 C 0.4074(16) -0.1257(18) 0.643(2)
C18 C 0.3976(14) -0.1760(17) 0.7512(19)
C19 C 0.5380(15) 0.3055(16) 0.6268(19)
C20 C 0.4953(15) 0.3748(16) 0.4480(16)
C21 C 0.6021(14) 0.4312(17) 0.4084(18)
C22 C 0.6700(15) 0.4095(16) 0.497(2)
C23 C 0.1343(13) 0.3282(14) 0.7468(16)
C24 C 0.0483(16) 0.3060(19) 0.616(2)
C25 C -0.0576(15) 0.372(2) 0.646(2)
C26 C -0.0526(17) 0.4186(18) 0.7248(17)
H10 H 0.3945 0.0264 0.5172
H11 H 0.4290 -0.1699 0.5952
H12 H 0.4138 -0.2552 0.7798
H13 H 0.4432 0.3817 0.3964
H14 H 0.6252 0.4770 0.3337
H15 H 0.7470 0.4378 0.4753
H16 H 0.0502 0.2719 0.5616
H17 H -0.1277 0.3830 0.6121
H18 H -0.1190 0.4684 0.7403
loop_
_geom_bond_atom_site_label_1
_geom_bond_atom_site_label_2
_geom_bond_site_symmetry_1
_geom_bond_site_symmetry_2
Cu1 Cl1 1_555 1_555
Cu2 Cl2 1_555 1_555
Cu3 Cl3 1_555 1_555
Cl2 Cu2A 1_555 1_555
S1 C1 1_555 1_555
S2 C1 1_555 1_555
S3 C1 1_555 1_555
S4 C14 1_555 1_555
S5 C14 1_555 1_555
S6 C14 1_555 1_555
N1 Cu1 1_555 1_555
N2 C2 1_555 1_555
N3 Cu1 1_555 1_555
N4 Cu2 1_555 1_555
N5 Cu1 1_555 1_555
N6 C10 1_555 1_555
N7 Cu3 1_555 1_555
N8 C15 1_555 1_555
N9 Cu3 1_555 1_555
N10 C19 1_555 1_555
N11 Cu3 1_555 1_555
N12 C23 1_555 1_555
C1 Cu1 1_555 1_555
C2 S1 1_555 1_555
C3 N1 1_555 1_555
C4 C3 1_555 1_555
C5 N2 1_555 1_555
C6 S2 1_555 1_555
C7 N3 1_555 1_555
C8 C7 1_555 1_555
C9 N4 1_555 1_555
C10 S3 1_555 1_555
C11 N5 1_555 1_555
C12 C11 1_555 1_555
C13 N6 1_555 1_555
C14 Cu3 1_555 1_555
C15 S4 1_555 1_555
C16 N7 1_555 1_555
C17 C16 1_555 1_555
C18 N8 1_555 1_555
C19 S5 1_555 1_555
C20 N9 1_555 1_555
C21 C20 1_555 1_555
C22 N10 1_555 1_555
C23 S6 1_555 1_555
C24 N11 1_555 1_555
C25 C24 1_555 1_555
C26 N12 1_555 1_555
H1 C3 1_555 1_555
H2 C4 1_555 1_555
H3 C5 1_555 1_555
H4 C7 1_555 1_555
H5 C8 1_555 1_555
H6 C9 1_555 1_555
H7 C11 1_555 1_555
H8 C12 1_555 1_555
H9 C13 1_555 1_555
H10 C16 1_555 1_555
H11 C17 1_555 1_555
H12 C18 1_555 1_555
H13 C20 1_555 1_555
H14 C21 1_555 1_555
H15 C22 1_555 1_555
H16 C24 1_555 1_555
H17 C25 1_555 1_555
H18 C26 1_555 1_555
Cu1A Cl1A 1_555 1_555
Cu2A Cl2A 1_555 1_555
Cu2_2 N6A 1_555 1_555
Cu2A_2 N6 1_555 1_555
Cl2A Cu2 1_555 1_555
S1A C1A 1_555 1_555
S2A C1A 1_555 1_555
S3A C1A 1_555 1_555
N1A Cu1A 1_555 1_555
N2A C2A 1_555 1_555
N3A Cu1A 1_555 1_555
N4A Cu2A 1_555 1_555
N5A Cu1A 1_555 1_555
N6A C10A 1_555 1_555
N6_2 Cu2A 1_555 1_555
N6A_2 Cu2 1_555 1_555
C1A Cu1A 1_555 1_555
C2A S1A 1_555 1_555
C3A N1A 1_555 1_555
C4A C3A 1_555 1_555
C5A N2A 1_555 1_555
C6A S2A 1_555 1_555
C7A N3A 1_555 1_555
C8A C7A 1_555 1_555
C9A N4A 1_555 1_555
C10A S3A 1_555 1_555
C11A N5A 1_555 1_555
C12A C11A 1_555 1_555
C13A N6A 1_555 1_555
H1A C3A 1_555 1_555
H2A C4A 1_555 1_555
H3A C5A 1_555 1_555
H4A C7A 1_555 1_555
H5A C8A 1_555 1_555
H6A C9A 1_555 1_555
H7A C11A 1_555 1_555
H8A C12A 1_555 1_555
H9A C13A 1_555 1_555
N1 C2 1_555 1_555
N3 C6 1_555 1_555
N4 C6 1_555 1_555
N5 C10 1_555 1_555
N7 C15 1_555 1_555
N9 C19 1_555 1_555
N11 C23 1_555 1_555
C4 C5 1_555 1_555
C8 C9 1_555 1_555
C12 C13 1_555 1_555
C17 C18 1_555 1_555
C21 C22 1_555 1_555
C25 C26 1_555 1_555
N1A C2A 1_555 1_555
N3A C6A 1_555 1_555
N4A C6A 1_555 1_555
N5A C10A 1_555 1_555
C4A C5A 1_555 1_555
C8A C9A 1_555 1_555
C12A C13A 1_555 1_555

#END
