
#######################################################################
#
#                 Cambridge Crystallographic Data Centre
#                                CCDC 
#
#######################################################################
#
# If this CIF has been generated from an entry in the Cambridge 
# Structural Database, then it will include bibliographic, chemical, 
# crystal, experimental, refinement or atomic coordinate data resulting 
# from the CCDC's data processing and validation procedures.
#
#######################################################################

data_IVAQUR
_symmetry_cell_setting           triclinic
_symmetry_space_group_name_H-M   'P -1'
_symmetry_Int_Tables_number      2
_space_group_name_Hall           '-P 1'
loop_
_symmetry_equiv_pos_site_id
_symmetry_equiv_pos_as_xyz
1 x,y,z
2 -x,-y,-z
_cell_length_a                   9.193(2)
_cell_length_b                   9.311(2)
_cell_length_c                   19.544(4)
_cell_angle_alpha                90.064(5)
_cell_angle_beta                 89.671(5)
_cell_angle_gamma                61.464(4)
_cell_volume                     1469.62
loop_
_atom_site_label
_atom_site_type_symbol
_atom_site_fract_x
_atom_site_fract_y
_atom_site_fract_z
Ag1 Ag 0.192149(14) 0.152328(15) 0.691443(6)
N1 N 0.3375(3) -0.1667(2) 0.67409(10)
C1 C 0.3603(3) -0.2819(2) 0.64752(10)
C2 C 0.3849(4) -0.4304(3) 0.61264(14)
C3 C 0.75822(19) 0.0196(2) 0.52354(8)
N2 N 0.58722(16) 0.09305(16) 0.54553(6)
N3 N 0.46633(17) 0.22957(18) 0.51498(7)
C4 C 0.3341(2) 0.2609(2) 0.55223(8)
N4 N 0.36327(17) 0.15377(18) 0.60475(7)
C5 C 0.5235(2) 0.0503(2) 0.59894(8)
N5 N 0.84255(15) 0.10119(16) 0.55444(6)
N6 N 0.82493(18) 0.24489(18) 0.52843(7)
C6 C 0.9136(2) 0.2805(2) 0.57110(8)
N7 N 0.98716(16) 0.16927(17) 0.62192(7)
C7 C 0.93859(18) 0.0585(2) 0.60989(8)
As1 As 0.246062(18) 0.181720(18) 0.813213(7)
C8 C 0.08059(18) 0.19475(19) 0.87924(8)
C9 C -0.0058(2) 0.1105(2) 0.86355(9)
C10 C -0.1248(2) 0.1125(2) 0.90815(11)
C11 C -0.1586(2) 0.2000(3) 0.96930(10)
C12 C -0.0747(2) 0.2859(2) 0.98490(9)
C13 C 0.0457(2) 0.2824(2) 0.94036(8)
C14 C 0.27875(19) 0.36697(18) 0.83617(7)
C15 C 0.1801(2) 0.5130(2) 0.80238(9)
C16 C 0.2026(3) 0.6484(2) 0.81332(10)
C17 C 0.3252(3) 0.6384(2) 0.85691(10)
C18 C 0.4233(2) 0.4932(2) 0.89102(9)
C19 C 0.4011(2) 0.3573(2) 0.88065(8)
C20 C 0.44701(18) -0.00091(18) 0.84765(7)
C21 C 0.5824(2) -0.0695(2) 0.80261(8)
C22 C 0.7304(2) -0.2024(2) 0.82292(10)
C23 C 0.7436(2) -0.2674(2) 0.88789(10)
C24 C 0.6088(2) -0.1988(2) 0.93251(9)
C25 C 0.4615(2) -0.0651(2) 0.91282(8)
H1 H 0.30292 -0.40459 0.57899
H2 H 0.49196 -0.48214 0.59115
H3 H 0.37959 -0.50396 0.64499
H4 H 0.76207 0.02770 0.47513
H5 H 0.81279 -0.09221 0.53634
H6 H 0.22778 0.35002 0.54329
H7 H 0.58411 -0.04024 0.62810
H8 H 0.92553 0.37604 0.56677
H9 H 0.96771 -0.03664 0.63650
H10 H 0.01700 0.05063 0.82197
H11 H -0.18298 0.05466 0.89695
H12 H -0.23913 0.20079 1.00020
H13 H -0.09942 0.34745 1.02620
H14 H 0.10413 0.33999 0.95166
H15 H 0.09708 0.52016 0.77162
H16 H 0.13342 0.74844 0.79086
H17 H 0.34194 0.73046 0.86348
H18 H 0.50646 0.48669 0.92156
H19 H 0.46896 0.25815 0.90382
H20 H 0.57335 -0.02523 0.75815
H21 H 0.82213 -0.24857 0.79221
H22 H 0.84427 -0.35805 0.90181
H23 H 0.61766 -0.24403 0.97686
H24 H 0.37079 -0.01759 0.94393
N7_2 N -0.01284(16) 0.16927(17) 0.62192(7)
Ag1_2 Ag 1.192149(14) 0.152328(15) 0.691443(6)
N8 N -0.0582(2) 0.63501(18) 0.63390(7)
O1 O -0.0062(2) 0.50405(18) 0.66417(8)
O2 O -0.0525(2) 0.6334(2) 0.57000(8)
O3 O -0.1097(2) 0.76628(18) 0.66551(8)
N9 N 0.6395(3) 0.2270(3) 0.72021(11)
C26 C 0.6733(3) 0.3236(3) 0.73718(10)
C27 C 0.7153(3) 0.4491(3) 0.75777(12)
H25 H 0.62262 0.55351 0.75197
H26 H 0.74649 0.43441 0.80486
H27 H 0.80554 0.44008 0.73092
loop_
_geom_bond_atom_site_label_1
_geom_bond_atom_site_label_2
_geom_bond_site_symmetry_1
_geom_bond_site_symmetry_2
Ag1 N1 1_555 1_555
N1 C1 1_555 1_555
C1 C2 1_555 1_555
C2 H1 1_555 1_555
C3 N2 1_555 1_555
N2 N3 1_555 1_555
N3 C4 1_555 1_555
C4 N4 1_555 1_555
N4 Ag1 1_555 1_555
C5 N2 1_555 1_555
N5 C3 1_555 1_555
N6 N5 1_555 1_555
C6 N6 1_555 1_555
N7 C6 1_555 1_555
C7 N5 1_555 1_555
As1 Ag1 1_555 1_555
C8 As1 1_555 1_555
C9 C8 1_555 1_555
C10 C9 1_555 1_555
C11 C10 1_555 1_555
C12 C11 1_555 1_555
C13 C8 1_555 1_555
C14 As1 1_555 1_555
C15 C14 1_555 1_555
C16 C15 1_555 1_555
C17 C16 1_555 1_555
C18 C17 1_555 1_555
C19 C14 1_555 1_555
C20 As1 1_555 1_555
C21 C20 1_555 1_555
C22 C21 1_555 1_555
C23 C22 1_555 1_555
C24 C23 1_555 1_555
C25 C20 1_555 1_555
H2 C2 1_555 1_555
H3 C2 1_555 1_555
H4 C3 1_555 1_555
H5 C3 1_555 1_555
H6 C4 1_555 1_555
H7 C5 1_555 1_555
H8 C6 1_555 1_555
H9 C7 1_555 1_555
H10 C9 1_555 1_555
H11 C10 1_555 1_555
H12 C11 1_555 1_555
H13 C12 1_555 1_555
H14 C13 1_555 1_555
H15 C15 1_555 1_555
H16 C16 1_555 1_555
H17 C17 1_555 1_555
H18 C18 1_555 1_555
H19 C19 1_555 1_555
H20 C21 1_555 1_555
H21 C22 1_555 1_555
H22 C23 1_555 1_555
H23 C24 1_555 1_555
H24 C25 1_555 1_555
N8 O1 1_555 1_555
O2 N8 1_555 1_555
O3 N8 1_555 1_555
N9 C26 1_555 1_555
C26 C27 1_555 1_555
C27 H25 1_555 1_555
H26 C27 1_555 1_555
H27 C27 1_555 1_555
N7_2 Ag1 1_555 1_555
Ag1_2 N7 1_555 1_555
N4 C5 1_555 1_555
N7 C7 1_555 1_555
C12 C13 1_555 1_555
C18 C19 1_555 1_555
C24 C25 1_555 1_555

#END
