
#######################################################################
#
#                 Cambridge Crystallographic Data Centre
#                                CCDC 
#
#######################################################################
#
# If this CIF has been generated from an entry in the Cambridge 
# Structural Database, then it will include bibliographic, chemical, 
# crystal, experimental, refinement or atomic coordinate data resulting 
# from the CCDC's data processing and validation procedures.
#
#######################################################################

data_IVAQOL
_symmetry_cell_setting           triclinic
_symmetry_space_group_name_H-M   'P 1'
_symmetry_Int_Tables_number      1
_space_group_name_Hall           'P 1'
loop_
_symmetry_equiv_pos_site_id
_symmetry_equiv_pos_as_xyz
1 x,y,z
_cell_length_a                   8.5328(8)
_cell_length_b                   8.9443(9)
_cell_length_c                   10.5620(10)
_cell_angle_alpha                75.501(2)
_cell_angle_beta                 66.906(2)
_cell_angle_gamma                65.620(2)
_cell_volume                     671.598
loop_
_atom_site_label
_atom_site_type_symbol
_atom_site_fract_x
_atom_site_fract_y
_atom_site_fract_z
Ag1 Ag 0.50000(2) 0.50000(2) 0.50000(2)
N1 N 0.7856(6) 0.6041(6) 0.4275(4)
C1 C 0.8455(6) 0.6581(5) 0.4775(4)
C2 C 0.9215(6) 0.7235(6) 0.5421(4)
C3 C 0.1548(4) 1.0509(4) 0.1622(3)
N2 N 0.2435(3) 0.8836(3) 0.2151(2)
N3 N 0.2316(4) 0.7526(3) 0.1804(3)
C4 C 0.3191(4) 0.6269(4) 0.2522(3)
N4 N 0.3862(3) 0.6690(3) 0.3312(3)
C5 C 0.3356(4) 0.8317(3) 0.3047(3)
N5 N -0.0330(3) 1.1189(3) 0.2491(3)
N6 N -0.1580(4) 1.0500(4) 0.2682(4)
C6 C -0.3073(5) 1.1493(5) 0.3484(5)
N7 N -0.2875(4) 1.2773(3) 0.3805(3)
C7 C -0.1120(4) 1.2521(3) 0.3178(3)
P1 P 0.42461(9) 0.51468(8) 0.73986(6)
C8 C 0.5751(3) 0.3399(3) 0.8194(3)
C9 C 0.7485(4) 0.2533(4) 0.7346(3)
C10 C 0.8662(4) 0.1160(4) 0.7898(4)
C11 C 0.8115(5) 0.0636(4) 0.9307(4)
C12 C 0.6398(5) 0.1494(4) 1.0159(3)
C13 C 0.5216(4) 0.2868(3) 0.9615(3)
C14 C 0.1983(3) 0.5218(3) 0.8556(3)
C15 C 0.1173(4) 0.4310(4) 0.8279(3)
C16 C -0.0496(4) 0.4220(4) 0.9205(4)
C17 C -0.1374(4) 0.5051(5) 1.0377(3)
C18 C -0.0583(4) 0.5975(4) 1.0647(3)
C19 C 0.1092(4) 0.6054(4) 0.9741(3)
C20 C 0.4467(3) 0.6958(3) 0.7699(2)
C21 C 0.3754(4) 0.8462(3) 0.6974(3)
C22 C 0.3869(5) 0.9899(4) 0.7163(3)
C23 C 0.4748(5) 0.9819(4) 0.8060(3)
C24 C 0.5479(4) 0.8322(4) 0.8772(3)
C25 C 0.5339(4) 0.6889(3) 0.8602(3)
H1 H 0.94162 0.82057 0.48797
H2 H 0.84010 0.74964 0.63215
H3 H 1.03516 0.64369 0.54905
H4 H 0.15954 1.05020 0.07121
H5 H 0.22028 1.11775 0.15889
H6 H 0.33574 0.51555 0.24996
H7 H 0.36233 0.90069 0.34336
H8 H -0.41914 1.13306 0.38095
H9 H -0.04939 1.31844 0.32117
H10 H 0.78781 0.28863 0.63839
H11 H 0.98528 0.05736 0.73143
H12 H 0.89278 -0.03014 0.96868
H13 H 0.60417 0.11373 1.11211
H14 H 0.40571 0.34458 1.02035
H15 H 0.17724 0.37584 0.74645
H16 H -0.10166 0.35780 0.90248
H17 H -0.24970 0.49875 1.09953
H18 H -0.11792 0.65509 1.14455
H19 H 0.16441 0.66782 0.99292
H20 H 0.31902 0.85151 0.63461
H21 H 0.33683 1.09247 0.66810
H22 H 0.48499 1.07948 0.81877
H23 H 0.61008 0.82656 0.93800
H24 H 0.58391 0.58692 0.90991
N7_2 N 0.7125(4) 0.2773(3) 0.3805(3)
Ag1_2 Ag -0.50000(2) 1.50000(2) 0.50000(2)
N8 N 0.2287(3) 0.2444(3) 0.4220(3)
O1 O 0.2397(5) 0.3337(3) 0.4900(3)
O2 O 0.2785(4) 0.2679(4) 0.2922(3)
O3 O 0.1682(5) 0.1303(4) 0.4820(3)
loop_
_geom_bond_atom_site_label_1
_geom_bond_atom_site_label_2
_geom_bond_site_symmetry_1
_geom_bond_site_symmetry_2
Ag1 N1 1_555 1_555
N1 C1 1_555 1_555
C1 C2 1_555 1_555
C2 H1 1_555 1_555
C3 N2 1_555 1_555
N2 N3 1_555 1_555
N3 C4 1_555 1_555
C4 N4 1_555 1_555
N4 Ag1 1_555 1_555
C5 N2 1_555 1_555
N5 C3 1_555 1_555
N6 N5 1_555 1_555
C6 N6 1_555 1_555
N7 C6 1_555 1_555
C7 N5 1_555 1_555
P1 Ag1 1_555 1_555
C8 P1 1_555 1_555
C9 C8 1_555 1_555
C10 C9 1_555 1_555
C11 C10 1_555 1_555
C12 C11 1_555 1_555
C13 C8 1_555 1_555
C14 P1 1_555 1_555
C15 C14 1_555 1_555
C16 C15 1_555 1_555
C17 C16 1_555 1_555
C18 C17 1_555 1_555
C19 C14 1_555 1_555
C20 P1 1_555 1_555
C21 C20 1_555 1_555
C22 C21 1_555 1_555
C23 C22 1_555 1_555
C24 C23 1_555 1_555
C25 C20 1_555 1_555
H2 C2 1_555 1_555
H3 C2 1_555 1_555
H4 C3 1_555 1_555
H5 C3 1_555 1_555
H6 C4 1_555 1_555
H7 C5 1_555 1_555
H8 C6 1_555 1_555
H9 C7 1_555 1_555
H10 C9 1_555 1_555
H11 C10 1_555 1_555
H12 C11 1_555 1_555
H13 C12 1_555 1_555
H14 C13 1_555 1_555
H15 C15 1_555 1_555
H16 C16 1_555 1_555
H17 C17 1_555 1_555
H18 C18 1_555 1_555
H19 C19 1_555 1_555
H20 C21 1_555 1_555
H21 C22 1_555 1_555
H22 C23 1_555 1_555
H23 C24 1_555 1_555
H24 C25 1_555 1_555
N8 O1 1_555 1_555
O2 N8 1_555 1_555
O3 N8 1_555 1_555
N7_2 Ag1 1_555 1_555
Ag1_2 N7 1_555 1_555
N4 C5 1_555 1_555
N7 C7 1_555 1_555
C12 C13 1_555 1_555
C18 C19 1_555 1_555
C24 C25 1_555 1_555

#END
