
#######################################################################
#
#                 Cambridge Crystallographic Data Centre
#                                CCDC 
#
#######################################################################
#
# If this CIF has been generated from an entry in the Cambridge 
# Structural Database, then it will include bibliographic, chemical, 
# crystal, experimental, refinement or atomic coordinate data resulting 
# from the CCDC's data processing and validation procedures.
#
#######################################################################

data_IVAQEC
_symmetry_cell_setting           triclinic
_symmetry_space_group_name_H-M   'P -1'
_symmetry_Int_Tables_number      2
_space_group_name_Hall           '-P 1'
loop_
_symmetry_equiv_pos_site_id
_symmetry_equiv_pos_as_xyz
1 x,y,z
2 -x,-y,-z
_cell_length_a                   8.437(2)
_cell_length_b                   11.226(3)
_cell_length_c                   13.491(3)
_cell_angle_alpha                67.040(16)
_cell_angle_beta                 80.20(2)
_cell_angle_gamma                84.43(2)
_cell_volume                     1158.72
loop_
_atom_site_label
_atom_site_type_symbol
_atom_site_fract_x
_atom_site_fract_y
_atom_site_fract_z
Cu1 Cu 0.71601(8) 0.15146(6) 0.17976(5)
Cu2 Cu 0.46722(9) -0.35452(7) 0.48404(6)
Cu3 Cu 1.09899(8) 0.36819(7) 0.03510(6)
Cl1 Cl 0.96739(15) 0.17403(13) 0.07368(11)
Cl2 Cl 0.3402(2) -0.49482(15) 0.42151(13)
Cl3 Cl 0.97132(16) 0.47705(13) 0.14231(11)
S1 S 0.48358(17) -0.03168(13) 0.37244(11)
S2 S 0.33983(16) 0.17233(14) 0.19250(11)
S3 S 0.48184(16) 0.24190(13) 0.34372(11)
N1 N 0.7015(5) -0.0448(4) 0.2077(3)
N2 N 0.6001(5) 0.2843(4) 0.0566(3)
N3 N 0.7947(5) 0.1856(4) 0.3063(3)
N4 N 0.6001(6) -0.2425(4) 0.3422(4)
N5 N 0.3428(5) 0.3546(4) -0.0019(3)
N6 N 0.7119(5) 0.2931(4) 0.4286(3)
C1 C 0.4992(6) 0.1316(5) 0.2743(4)
C2 C 0.6079(6) -0.1140(5) 0.2998(4)
C3 C 0.7882(6) -0.1105(5) 0.1525(4)
C4 C 0.7876(7) -0.2431(6) 0.1900(5)
C5 C 0.6939(7) -0.3061(5) 0.2873(5)
C6 C 0.4381(6) 0.2805(5) 0.0715(4)
C7 C 0.6706(7) 0.3661(5) -0.0385(4)
C8 C 0.5839(7) 0.4424(5) -0.1198(4)
C9 C 0.4179(7) 0.4339(5) -0.0982(4)
C10 C 0.6835(6) 0.2399(5) 0.3605(4)
C11 C 0.9457(6) 0.1801(6) 0.3248(4)
C12 C 0.9864(7) 0.2325(7) 0.3938(5)
C13 C 0.8667(7) 0.2934(6) 0.4416(5)
H1 H 0.8521 -0.0644 0.0853
H2 H 0.8497 -0.2894 0.1502
H3 H 0.6957 -0.3980 0.3167
H4 H 0.7843 0.3720 -0.0506
H5 H 0.6358 0.4988 -0.1881
H6 H 0.3552 0.4855 -0.1531
H7 H 1.0272 0.1392 0.2899
H8 H 1.0940 0.2267 0.4078
H9 H 0.8936 0.3364 0.4844
Cu2A Cu 0.53278(9) -0.64548(7) 0.51596(6)
Cu2A_2 Cu 0.53278(9) 0.35452(7) 0.51596(6)
Cu3A Cu 0.90101(8) 0.63181(7) -0.03510(6)
Cu3_2 Cu 0.09899(8) 0.36819(7) 0.03510(6)
Cl2A Cl 0.6598(2) -0.50518(15) 0.57849(13)
Cl3A Cl 1.02868(16) 0.52295(13) -0.14231(11)
N5_2 N 1.3428(5) 0.3546(4) -0.0019(3)
N6A N 0.2881(5) -0.2931(4) 0.5714(3)
Cl4 Cl 0.1041(3) 0.8655(2) 0.2922(2)
Cl5 Cl 0.3643(3) 0.8897(2) 0.1119(2)
C14 C 0.2117(11) 0.7936(9) 0.2084(9)
H10 H 0.1362 0.7727 0.1693
H11 H 0.2615 0.7111 0.2540
loop_
_geom_bond_atom_site_label_1
_geom_bond_atom_site_label_2
_geom_bond_site_symmetry_1
_geom_bond_site_symmetry_2
Cu1 Cl1 1_555 1_555
Cu2 Cl2 1_555 1_555
Cu3 Cl1 1_555 1_555
Cl2 Cu2A 1_555 1_555
Cl3 Cu3 1_555 1_555
Cl4 C14 1_555 1_555
Cl5 C14 1_555 1_555
S1 C1 1_555 1_555
S2 C1 1_555 1_555
S3 C1 1_555 1_555
N1 Cu1 1_555 1_555
N2 Cu1 1_555 1_555
N3 Cu1 1_555 1_555
N4 Cu2 1_555 1_555
N5 C6 1_555 1_555
N6 C10 1_555 1_555
C1 Cu1 1_555 1_555
C2 S1 1_555 1_555
C3 N1 1_555 1_555
C4 C3 1_555 1_555
C5 N4 1_555 1_555
C6 S2 1_555 1_555
C7 N2 1_555 1_555
C8 C7 1_555 1_555
C9 N5 1_555 1_555
C10 S3 1_555 1_555
C11 N3 1_555 1_555
C12 C11 1_555 1_555
C13 N6 1_555 1_555
C14 H10 1_555 1_555
H1 C3 1_555 1_555
H2 C4 1_555 1_555
H3 C5 1_555 1_555
H4 C7 1_555 1_555
H5 C8 1_555 1_555
H6 C9 1_555 1_555
H7 C11 1_555 1_555
H8 C12 1_555 1_555
H9 C13 1_555 1_555
H11 C14 1_555 1_555
Cu2A Cl2A 1_555 1_555
Cu2A_2 N6 1_555 1_555
Cu3A Cl3 1_555 1_555
Cu3_2 N5 1_555 1_555
Cl2A Cu2 1_555 1_555
Cl3A Cu3 1_555 1_555
N5_2 Cu3 1_555 1_555
N6A Cu2 1_555 1_555
N1 C2 1_555 1_555
N2 C6 1_555 1_555
N3 C10 1_555 1_555
N4 C2 1_555 1_555
C4 C5 1_555 1_555
C8 C9 1_555 1_555
C12 C13 1_555 1_555
Cu3A Cl3A 1_555 1_555

#END
