
#######################################################################
#
#                 Cambridge Crystallographic Data Centre
#                                CCDC 
#
#######################################################################
#
# If this CIF has been generated from an entry in the Cambridge 
# Structural Database, then it will include bibliographic, chemical, 
# crystal, experimental, refinement or atomic coordinate data resulting 
# from the CCDC's data processing and validation procedures.
#
#######################################################################

data_IVAQUS
_symmetry_cell_setting           triclinic
_symmetry_space_group_name_H-M   'P -1'
_symmetry_Int_Tables_number      2
_space_group_name_Hall           '-P 1'
loop_
_symmetry_equiv_pos_site_id
_symmetry_equiv_pos_as_xyz
1 x,y,z
2 -x,-y,-z
_cell_length_a                   10.2366(8)
_cell_length_b                   10.2805(11)
_cell_length_c                   10.9793(11)
_cell_angle_alpha                64.928(10)
_cell_angle_beta                 80.224(7)
_cell_angle_gamma                67.024(9)
_cell_volume                     963.524
loop_
_atom_site_label
_atom_site_type_symbol
_atom_site_fract_x
_atom_site_fract_y
_atom_site_fract_z
Cd1 Cd 0.40432(3) -0.02882(3) -0.20634(3)
C1 C 0.4862(4) 0.2222(4) -0.2882(4)
C2 C 0.5453(4) 0.3464(4) -0.3247(4)
C3 C 0.6663(5) 0.3445(5) -0.4036(4)
H1 H 0.7084 0.2684 -0.4376
C4 C 0.7246(5) 0.4546(5) -0.4322(5)
H2 H 0.8068 0.4515 -0.4841
C5 C 0.6618(5) 0.5688(5) -0.3843(5)
H3 H 0.7012 0.6434 -0.4050
C6 C 0.5401(4) 0.5739(4) -0.3051(4)
C7 C 0.4823(4) 0.4622(4) -0.2756(4)
H4 H 0.4009 0.4645 -0.2227
C8 C 0.4739(4) 0.7005(5) -0.2549(4)
C9 C 0.1605(4) 0.0894(5) -0.0073(4)
H5 H 0.1550 0.1902 -0.0586
C10 C 0.2168(4) -0.1497(5) 0.0688(4)
H6 H 0.2626 -0.2514 0.0783
C11 C -0.0280(4) 0.1408(5) 0.1627(4)
H7 H -0.1138 0.1186 0.1717
H8 H -0.0487 0.2483 0.1041
C12 C 0.0134(4) 0.1140(5) 0.3003(4)
H9 H -0.0673 0.1715 0.3402
H10 H 0.0379 0.0058 0.3580
C13 C 0.1378(4) 0.1619(5) 0.2935(4)
H11 H 0.2230 0.0936 0.2676
H12 H 0.1199 0.2655 0.2260
C14 C 0.2631(4) 0.0608(4) 0.5114(4)
H13 H 0.3416 -0.0174 0.4985
C15 C 0.1142(4) 0.2134(5) 0.5915(4)
H14 H 0.0694 0.2613 0.6504
N1 N 0.2473(4) -0.0312(4) -0.0321(4)
N2 N 0.0824(4) 0.0463(4) 0.1010(3)
N3 N 0.1169(4) -0.1084(4) 0.1520(4)
N4 N 0.1589(3) 0.1564(4) 0.4241(3)
N5 N 0.0615(4) 0.2568(4) 0.4741(4)
N6 N 0.2391(4) 0.0930(4) 0.6204(4)
O1 O 0.5470(3) 0.1184(3) -0.3309(3)
O2 O 0.3790(3) 0.2227(3) -0.2113(3)
O3 O 0.3727(3) 0.7007(4) -0.1736(4)
O4 O 0.5257(3) 0.8051(3) -0.3007(3)
O5 O 0.5891(3) -0.1811(3) -0.0521(3)
H15 H 0.5803 -0.1829 0.0267
H16 H 0.6214 -0.2688 -0.0552
Cd1_2 Cd 0.40432(3) -0.02882(3) -1.20634(3)
Cd1_3 Cd 0.40432(3) -0.02882(3) 0.79366(3)
Cd1_4 Cd 0.40432(3) 0.97118(3) -0.20634(3)
Cd1_5 Cd 0.40432(3) -1.02882(3) -0.20634(3)
C1_2 C 0.4862(4) -0.7778(4) -0.2882(4)
C2_2 C 0.5453(4) -0.6536(4) -0.3247(4)
C3_2 C 0.6663(5) -0.6555(5) -0.4036(4)
H1_2 H 0.7084 -0.7316 -0.4376
C4_2 C 0.7246(5) -0.5454(5) -0.4322(5)
H2_2 H 0.8068 -0.5485 -0.4841
C5_2 C 0.6618(5) -0.4312(5) -0.3843(5)
H3_2 H 0.7012 -0.3566 -0.4050
C6_2 C 0.5401(4) -0.4261(4) -0.3051(4)
C7_2 C 0.4823(4) -0.5378(4) -0.2756(4)
H4_2 H 0.4009 -0.5355 -0.2227
C8_2 C 0.4739(4) -0.2995(5) -0.2549(4)
C9_2 C 0.1605(4) 0.0894(5) -1.0073(4)
H5_2 H 0.1550 0.1902 -1.0586
C10_2 C 0.2168(4) -0.1497(5) -0.9312(4)
H6_2 H 0.2626 -0.2514 -0.9217
C11_2 C -0.0280(4) 0.1408(5) -0.8373(4)
H7_2 H -0.1138 0.1186 -0.8283
H8_2 H -0.0487 0.2483 -0.8959
C12_2 C 0.0134(4) 0.1140(5) -0.6997(4)
H9_2 H -0.0673 0.1715 -0.6598
H10_2 H 0.0379 0.0058 -0.6420
C13_2 C 0.1378(4) 0.1619(5) -0.7065(4)
H11_2 H 0.2230 0.0936 -0.7324
H12_2 H 0.1199 0.2655 -0.7740
C14_2 C 0.2631(4) 0.0608(4) -0.4886(4)
H13_2 H 0.3416 -0.0174 -0.5015
C15_2 C 0.1142(4) 0.2134(5) -0.4085(4)
H14_2 H 0.0694 0.2613 -0.3496
N1_2 N 0.2473(4) -0.0312(4) -1.0321(4)
N2_2 N 0.0824(4) 0.0463(4) -0.8990(3)
N3_2 N 0.1169(4) -0.1084(4) -0.8480(4)
N4_2 N 0.1589(3) 0.1564(4) -0.5759(3)
N5_2 N 0.0615(4) 0.2568(4) -0.5259(4)
N6_2 N 0.2391(4) 0.0930(4) -0.3796(4)
N6_3 N 0.2391(4) 0.0930(4) -1.3796(4)
O1_2 O 0.5470(3) -0.8816(3) -0.3309(3)
O1_3 O 0.5470(3) 0.1184(3) -1.3309(3)
O2_2 O 0.3790(3) -0.7773(3) -0.2113(3)
O2_3 O 0.3790(3) 0.2227(3) -1.2113(3)
O3_2 O 0.3727(3) -0.2993(4) -0.1736(4)
O4_2 O 0.5257(3) -0.1949(3) -0.3007(3)
O4_3 O 0.5257(3) -0.1949(3) -1.3007(3)
O5_2 O 0.5891(3) -0.1811(3) -1.0521(3)
H15_2 H 0.5803 -0.1829 -0.9733
H16_2 H 0.6214 -0.2688 -1.0552
O6 O 0.0930(15) 0.4458(16) 0.7549(14)
O7 O 0.2808(4) 0.4827(4) 1.0265(4)
H17 H 0.2291 0.4834 0.9721
H18 H 0.3214 0.5481 0.9841
O8 O 0.0000 0.5000 1.0000
H19 H 0.0830 0.5002 0.9998
H19A H -0.0830 0.4998 1.0002
O9? O 0.1271(15) 0.4646(17) 0.7787(17)
loop_
_geom_bond_atom_site_label_1
_geom_bond_atom_site_label_2
_geom_bond_site_symmetry_1
_geom_bond_site_symmetry_2
Cd1 N1 1_555 1_555
C1 C2 1_555 1_555
C2 C3 1_555 1_555
C3 H1 1_555 1_555
C4 C3 1_555 1_555
H2 C4 1_555 1_555
C5 C4 1_555 1_555
H3 C5 1_555 1_555
C6 C5 1_555 1_555
C7 C2 1_555 1_555
H4 C7 1_555 1_555
C8 C6 1_555 1_555
C9 H5 1_555 1_555
C10 H6 1_555 1_555
C11 H7 1_555 1_555
H8 C11 1_555 1_555
C12 C11 1_555 1_555
H9 C12 1_555 1_555
H10 C12 1_555 1_555
C13 C12 1_555 1_555
H11 C13 1_555 1_555
H12 C13 1_555 1_555
C14 H13 1_555 1_555
C15 H14 1_555 1_555
N1 C9 1_555 1_555
N2 C9 1_555 1_555
N3 C10 1_555 1_555
N4 C13 1_555 1_555
N5 C15 1_555 1_555
N6 C14 1_555 1_555
O1 Cd1 1_555 1_555
O2 Cd1 1_555 1_555
O3 C8 1_555 1_555
O4 C8 1_555 1_555
O5 Cd1 1_555 1_555
H15 O5 1_555 1_555
H16 O5 1_555 1_555
O7 H17 1_555 1_555
H18 O7 1_555 1_555
O8 H19 1_555 1_555
Cd1_2 N1_2 1_555 1_555
Cd1_3 N6 1_555 1_555
Cd1_4 O4 1_555 1_555
Cd1_5 O1_2 1_555 1_555
C1_2 C2_2 1_555 1_555
C2_2 C3_2 1_555 1_555
C3_2 H1_2 1_555 1_555
C4_2 C3_2 1_555 1_555
H2_2 C4_2 1_555 1_555
C5_2 C4_2 1_555 1_555
H3_2 C5_2 1_555 1_555
C6_2 C5_2 1_555 1_555
C7_2 C2_2 1_555 1_555
H4_2 C7_2 1_555 1_555
C8_2 C6_2 1_555 1_555
C9_2 H5_2 1_555 1_555
C10_2 H6_2 1_555 1_555
C11_2 H7_2 1_555 1_555
H8_2 C11_2 1_555 1_555
C12_2 C11_2 1_555 1_555
H9_2 C12_2 1_555 1_555
H10_2 C12_2 1_555 1_555
C13_2 C12_2 1_555 1_555
H11_2 C13_2 1_555 1_555
H12_2 C13_2 1_555 1_555
C14_2 H13_2 1_555 1_555
C15_2 H14_2 1_555 1_555
N1_2 C9_2 1_555 1_555
N2_2 C9_2 1_555 1_555
N3_2 C10_2 1_555 1_555
N4_2 C13_2 1_555 1_555
N5_2 C15_2 1_555 1_555
N6_2 Cd1 1_555 1_555
N6_3 Cd1_2 1_555 1_555
O1_2 C1_2 1_555 1_555
O1_3 Cd1_2 1_555 1_555
O2_2 Cd1_5 1_555 1_555
O2_3 Cd1_2 1_555 1_555
O3_2 C8_2 1_555 1_555
O4_2 Cd1 1_555 1_555
O4_3 Cd1_2 1_555 1_555
O5_2 Cd1_2 1_555 1_555
H15_2 O5_2 1_555 1_555
H16_2 O5_2 1_555 1_555
H19A O8 1_555 1_555
C1 O1 1_555 1_555
C1 O2 1_555 1_555
C6 C7 1_555 1_555
C10 N1 1_555 1_555
C11 N2 1_555 1_555
C14 N4 1_555 1_555
C15 N6 1_555 1_555
N2 N3 1_555 1_555
N4 N5 1_555 1_555
C1_2 O2_2 1_555 1_555
C6_2 C7_2 1_555 1_555
C8_2 O4_2 1_555 1_555
C10_2 N1_2 1_555 1_555
C11_2 N2_2 1_555 1_555
C14_2 N4_2 1_555 1_555
C14_2 N6_2 1_555 1_555
C15_2 N6_2 1_555 1_555
N2_2 N3_2 1_555 1_555
N4_2 N5_2 1_555 1_555

#END
