
#######################################################################
#
#                 Cambridge Crystallographic Data Centre
#                                CCDC 
#
#######################################################################
#
# If this CIF has been generated from an entry in the Cambridge 
# Structural Database, then it will include bibliographic, chemical, 
# crystal, experimental, refinement or atomic coordinate data resulting 
# from the CCDC's data processing and validation procedures.
#
#######################################################################

data_IVARED
_symmetry_cell_setting           triclinic
_symmetry_space_group_name_H-M   'P -1'
_symmetry_Int_Tables_number      2
_space_group_name_Hall           '-P 1'
loop_
_symmetry_equiv_pos_site_id
_symmetry_equiv_pos_as_xyz
1 x,y,z
2 -x,-y,-z
_cell_length_a                   10.116(2)
_cell_length_b                   10.152(2)
_cell_length_c                   10.330(2)
_cell_angle_alpha                77.12(3)
_cell_angle_beta                 67.01(3)
_cell_angle_gamma                88.36(3)
_cell_volume                     950.012
loop_
_atom_site_label
_atom_site_type_symbol
_atom_site_fract_x
_atom_site_fract_y
_atom_site_fract_z
Cd1 Cd -0.5000 0.5000 1.0000
C1 C -0.1670(3) 0.5634(3) 0.7750(3)
H1 H -0.1479 0.4810 0.8233
C2 C -0.2674(3) 0.7347(3) 0.7138(3)
H2 H -0.3375 0.7959 0.7136
C3 C 0.0805(3) 0.6222(3) 0.5750(3)
H3 H 0.0968 0.6239 0.4756
H4 H 0.1044 0.5344 0.6173
C4 C 0.1775(3) 0.7320(4) 0.5778(4)
H5 H 0.1582 0.8190 0.5290
H6 H 0.1553 0.7349 0.6773
C5 C 0.3357(3) 0.7085(4) 0.5054(4)
H7 H 0.3927 0.7768 0.5171
H8 H 0.3545 0.6207 0.5531
C6 C 0.4364(3) 0.7919(4) 0.1295(4)
H9 H 0.4537 0.8513 0.0410
C7 C 0.4211(3) 0.6153(4) 0.2840(4)
H10 H 0.4240 0.5260 0.3300
N1 N -0.2926(2) 0.6183(3) 0.8163(3)
N2 N -0.0721(2) 0.6414(2) 0.6555(2)
N3 N -0.1359(3) 0.7540(3) 0.6149(3)
N4 N 0.3812(3) 0.7137(3) 0.3505(3)
N5 N 0.4570(3) 0.6578(3) 0.1433(3)
N6 N 0.3895(3) 0.8307(3) 0.2527(3)
O1 O -0.3492(2) 0.4006(2) 1.1047(2)
H14 H -0.3638 0.3206 1.1548
H15 H -0.2979 0.4490 1.1282
Cd1_2 Cd -1.5000 0.5000 2.0000
Cd1_3 Cd 0.5000 0.5000 0.0000
C1A C -0.8330(3) 0.4366(3) 1.2250(3)
H1A H -0.8521 0.5190 1.1767
C2A C -0.7326(3) 0.2653(3) 1.2862(3)
H2A H -0.6625 0.2041 1.2864
C3A C -1.0805(3) 0.3778(3) 1.4250(3)
H3A H -1.0968 0.3761 1.5244
H4A H -1.1044 0.4656 1.3827
C4A C -1.1775(3) 0.2680(4) 1.4222(4)
H5A H -1.1582 0.1810 1.4710
H6A H -1.1553 0.2651 1.3227
C5A C -1.3357(3) 0.2915(4) 1.4946(4)
H7A H -1.3927 0.2232 1.4829
H8A H -1.3545 0.3793 1.4469
C6A C -1.4364(3) 0.2081(4) 1.8705(4)
H9A H -1.4537 0.1487 1.9590
C7A C -1.4211(3) 0.3847(4) 1.7160(4)
H10A H -1.4240 0.4740 1.6700
N1A N -0.7074(2) 0.3817(3) 1.1837(3)
N2A N -0.9279(2) 0.3586(2) 1.3445(2)
N3A N -0.8641(3) 0.2460(3) 1.3851(3)
N4A N -1.3812(3) 0.2863(3) 1.6495(3)
N5A N -1.4570(3) 0.3422(3) 1.8567(3)
N5_2 N -0.5430(3) 0.6578(3) 1.1433(3)
N5A_2 N -0.4570(3) 0.3422(3) 0.8567(3)
N6A N -1.3895(3) 0.1693(3) 1.7473(3)
O1A O -0.6508(2) 0.5994(2) 0.8953(2)
H14A H -0.6362 0.6794 0.8452
H15A H -0.7021 0.5510 0.8718
C8 C 0.1554(3) 0.1970(3) 0.9475(3)
C9 C 0.2460(3) 0.1475(3) 0.8321(3)
H11 H 0.2914 0.2069 0.7426
C10 C 0.2710(3) 0.0109(3) 0.8469(3)
C11 C 0.2038(3) -0.0768(3) 0.9808(3)
H12 H 0.2175 -0.1689 0.9912
C12 C 0.1160(3) -0.0282(3) 1.0995(3)
C13 C 0.0903(3) 0.1095(3) 1.0829(3)
H13 H 0.0302 0.1423 1.1617
C14 C 0.1274(3) 0.3455(3) 0.9250(3)
C15 C 0.3714(3) -0.0397(3) 0.7201(3)
C16 C 0.0483(3) -0.1258(3) 1.2418(3)
O2 O 0.2067(2) 0.4252(2) 0.8128(2)
O3 O 0.0195(2) 0.3789(2) 1.0253(2)
O4 O 0.4058(2) 0.0434(2) 0.5977(2)
H16 H 0.4532 0.0106 0.5256
O5 O 0.4173(2) -0.1529(2) 0.7370(2)
O6 O 0.0563(2) -0.2466(2) 1.2583(2)
O7 O -0.0202(2) -0.0653(2) 1.3485(2)
H17 H -0.0543 -0.1191 1.4316
O8 O 0.3308(8) 0.3664(8) 0.5276(7)
H18 H 0.3349 0.3360 0.4559
loop_
_geom_bond_atom_site_label_1
_geom_bond_atom_site_label_2
_geom_bond_site_symmetry_1
_geom_bond_site_symmetry_2
Cd1 N1 1_555 1_555
C1 H1 1_555 1_555
C2 H2 1_555 1_555
C3 H3 1_555 1_555
H4 C3 1_555 1_555
C4 C3 1_555 1_555
H5 C4 1_555 1_555
H6 C4 1_555 1_555
C5 C4 1_555 1_555
H7 C5 1_555 1_555
H8 C5 1_555 1_555
C6 H9 1_555 1_555
C7 H10 1_555 1_555
C8 C9 1_555 1_555
C9 H11 1_555 1_555
C10 C9 1_555 1_555
C11 C10 1_555 1_555
H12 C11 1_555 1_555
C12 C11 1_555 1_555
C13 C8 1_555 1_555
H13 C13 1_555 1_555
C14 C8 1_555 1_555
C15 C10 1_555 1_555
C16 C12 1_555 1_555
N1 C1 1_555 1_555
N2 C1 1_555 1_555
N3 C2 1_555 1_555
N4 C5 1_555 1_555
N5 C6 1_555 1_555
N6 C6 1_555 1_555
O1 Cd1 1_555 1_555
H14 O1 1_555 1_555
H15 O1 1_555 1_555
O2 C14 1_555 1_555
O3 C14 1_555 1_555
O4 C15 1_555 1_555
H16 O4 1_555 1_555
O5 C15 1_555 1_555
O6 C16 1_555 1_555
O7 C16 1_555 1_555
H17 O7 1_555 1_555
O8 H18 1_555 1_555
Cd1_2 N5A 1_555 1_555
Cd1_3 N5 1_555 1_555
C1A H1A 1_555 1_555
C2A H2A 1_555 1_555
C3A H3A 1_555 1_555
H4A C3A 1_555 1_555
C4A C3A 1_555 1_555
H5A C4A 1_555 1_555
H6A C4A 1_555 1_555
C5A C4A 1_555 1_555
H7A C5A 1_555 1_555
H8A C5A 1_555 1_555
C6A H9A 1_555 1_555
C7A H10A 1_555 1_555
N1A Cd1 1_555 1_555
N2A C1A 1_555 1_555
N3A C2A 1_555 1_555
N4A C5A 1_555 1_555
N5A C6A 1_555 1_555
N5_2 Cd1 1_555 1_555
N5A_2 Cd1 1_555 1_555
N6A C6A 1_555 1_555
O1A Cd1 1_555 1_555
H14A O1A 1_555 1_555
H15A O1A 1_555 1_555
C2 N1 1_555 1_555
C3 N2 1_555 1_555
C7 N4 1_555 1_555
C7 N5 1_555 1_555
C12 C13 1_555 1_555
N2 N3 1_555 1_555
N4 N6 1_555 1_555
C1A N1A 1_555 1_555
C2A N1A 1_555 1_555
C3A N2A 1_555 1_555
C7A N4A 1_555 1_555
C7A N5A 1_555 1_555
N2A N3A 1_555 1_555
N4A N6A 1_555 1_555

#END
