
#######################################################################
#
#                 Cambridge Crystallographic Data Centre
#                                CCDC 
#
#######################################################################
#
# If this CIF has been generated from an entry in the Cambridge 
# Structural Database, then it will include bibliographic, chemical, 
# crystal, experimental, refinement or atomic coordinate data resulting 
# from the CCDC's data processing and validation procedures.
#
#######################################################################

data_IVARON
_symmetry_cell_setting           triclinic
_symmetry_space_group_name_H-M   'P -1'
_symmetry_Int_Tables_number      2
_space_group_name_Hall           '-P 1'
loop_
_symmetry_equiv_pos_site_id
_symmetry_equiv_pos_as_xyz
1 x,y,z
2 -x,-y,-z
_cell_length_a                   9.430(4)
_cell_length_b                   11.398(3)
_cell_length_c                   15.385(4)
_cell_angle_alpha                75.768(4)
_cell_angle_beta                 82.849(4)
_cell_angle_gamma                73.921(4)
_cell_volume                     1537.35
loop_
_atom_site_label
_atom_site_type_symbol
_atom_site_fract_x
_atom_site_fract_y
_atom_site_fract_z
Cd1 Cd -0.27565(4) 0.51970(3) 0.28024(2)
O1 O -0.0546(4) 1.0989(3) 0.0989(2)
O4 O -0.0280(4) 0.3908(3) 0.2755(2)
O6 O -0.1274(4) 0.4238(3) 0.4069(2)
O8 O 0.5160(4) 0.9321(3) 0.3969(2)
O9 O -0.2930(4) 0.5373(3) 0.1210(2)
O10 O -0.4857(4) 0.6327(3) 0.1980(2)
O11 O -0.4237(4) 0.5983(3) 0.4002(2)
H7 H -0.510(3) 0.584(5) 0.410(3)
H8 H -0.375(5) 0.556(4) 0.446(2)
N1 N 0.3816(4) 1.0107(3) 0.2738(3)
N2 N 0.1147(4) 1.0142(3) 0.2046(3)
N3 N -0.1785(4) 0.6929(3) 0.2358(3)
N4 N 0.6388(4) 1.3403(3) 0.3005(3)
C1 C 0.1055(5) 0.2201(5) 0.4950(3)
H9 H 0.2023 0.1913 0.5223
H10 H 0.0358 0.2725 0.5325
C2 C -0.0946(5) 0.1169(5) 0.4797(3)
H11 H -0.1615 0.1974 0.4653
C3 C 0.1432(5) -0.0127(5) 0.5172(3)
H12 H 0.2428 -0.0231 0.5293
C4 C -0.1461(5) 0.8793(5) 0.2649(3)
H13 H -0.1661 0.9366 0.3032
C5 C -0.2066(5) 0.7775(4) 0.2865(3)
H14 H -0.2704 0.7674 0.3391
C6 C 0.5080(5) 1.1948(4) 0.3870(3)
H15 H 0.4582 1.1658 0.4423
C7 C -0.0908(5) 0.7105(5) 0.1602(3)
H16 H -0.0703 0.6505 0.1240
C8 C 0.0033(5) 1.0116(5) 0.1597(3)
C9 C -0.6216(5) 0.7813(4) 0.0368(3)
H17 H -0.6903 0.7945 -0.0105
H18 H -0.6808 0.7790 0.0947
C10 C 0.5252(5) 1.1342(4) 0.3168(3)
C11 C -0.0295(5) 0.8107(4) 0.1329(3)
H19 H 0.0297 0.8207 0.0783
C12 C -0.4160(5) 0.8852(5) 0.0418(3)
H20 H -0.3566 0.8068 0.0710
C13 C 0.1751(5) 0.9164(4) 0.2825(3)
H21 H 0.1505 0.8377 0.2817
H22 H 0.1293 0.9424 0.3386
C14 C 0.1232(5) 0.3013(5) 0.4007(3)
H23 H 0.1815 0.3600 0.4041
H24 H 0.1807 0.2463 0.3609
C15 C 0.0503(5) 0.1076(5) 0.4970(3)
C16 C 0.6048(5) 1.1774(4) 0.2392(3)
H25 H 0.6212 1.1373 0.1901
C17 C 0.3239(5) 1.1076(4) 0.1954(3)
H26 H 0.3722 1.0814 0.1399
H27 H 0.3478 1.1864 0.1969
C18 C -0.5557(5) 0.8922(4) 0.0178(3)
C19 C 0.1578(5) 1.1307(4) 0.1939(3)
H28 H 0.1085 1.1725 0.2430
H29 H 0.1242 1.1875 0.1363
C20 C 0.6597(6) 1.2792(5) 0.2342(3)
H30 H 0.7152 1.3073 0.1811
C21 C -0.0197(5) 0.3760(4) 0.3585(3)
C22 C 0.3407(5) 0.8937(4) 0.2812(3)
H31 H 0.3777 0.8337 0.3370
H32 H 0.3876 0.8563 0.2296
C23 C -0.0557(5) 0.8973(4) 0.1866(3)
C24 C 0.4725(5) 1.0174(4) 0.3319(3)
C25 C -0.6384(5) 1.0095(5) -0.0237(3)
H33 H -0.7350 1.0178 -0.0403
C26 C -0.5110(6) 0.6540(5) 0.0411(3)
H34 H -0.5651 0.5922 0.0379
H35 H -0.4408 0.6600 -0.0123
C27 C 0.5638(5) 1.2968(4) 0.3754(3)
H36 H 0.5483 1.3390 0.4233
C28 C -0.4234(6) 0.6055(4) 0.1250(3)
Cd1A Cd 0.27565(4) -0.51970(3) 0.71976(2)
Cd1_2 Cd 0.72435(4) 1.51970(3) 0.28024(2)
Cd1A_2 Cd -0.72435(4) 1.48030(3) -0.28024(2)
Cd1_3 Cd -1.27565(4) -0.48030(3) 0.28024(2)
O1_2 O -1.0546(4) 0.0989(3) 0.0989(2)
O4A O 0.0280(4) -0.3908(3) 0.7245(2)
O6A O 0.1274(4) -0.4238(3) 0.5931(2)
O8_2 O -0.4840(4) -0.0679(3) 0.3969(2)
O9A O -0.7070(4) 1.4627(3) -0.1210(2)
O9A_2 O 0.2930(4) -0.5373(3) 0.8790(2)
O10A O -0.5143(4) 1.3673(3) -0.1980(2)
O10A_2 O 0.4857(4) -0.6327(3) 0.8020(2)
O11A O 0.4237(4) -0.5983(3) 0.5998(2)
H7A H 0.510(3) -0.584(5) 0.590(3)
H8A H 0.375(5) -0.556(4) 0.554(2)
N1_2 N -0.6184(4) 0.0107(3) 0.2738(3)
N2_2 N -0.8853(4) 0.0142(3) 0.2046(3)
N3_2 N -1.1785(4) -0.3071(3) 0.2358(3)
N3A N 0.1785(4) -0.6929(3) 0.7642(3)
N4_2 N -0.3612(4) 0.3403(3) 0.3005(3)
N4A N 0.3612(4) -0.3403(3) 0.6995(3)
C1A C -0.1055(5) -0.2201(5) 0.5050(3)
H9A H -0.2023 -0.1913 0.4777
H10A H -0.0358 -0.2725 0.4675
C2A C 0.0946(5) -0.1169(5) 0.5203(3)
H11A H 0.1615 -0.1974 0.5347
C3A C -0.1432(5) 0.0127(5) 0.4828(3)
H12A H -0.2428 0.0231 0.4707
C4_2 C -1.1461(5) -0.1207(5) 0.2649(3)
H13_2 H -1.1661 -0.0634 0.3032
C5_2 C -1.2066(5) -0.2225(4) 0.2865(3)
H14_2 H -1.2704 -0.2326 0.3391
C6_2 C -0.4920(5) 0.1948(4) 0.3870(3)
H15_2 H -0.5418 0.1658 0.4423
C7_2 C -1.0908(5) -0.2895(5) 0.1602(3)
H16_2 H -1.0703 -0.3495 0.1240
C8_2 C -0.9967(5) 0.0116(5) 0.1597(3)
C9A C -0.3784(5) 1.2187(4) -0.0368(3)
H17A H -0.3097 1.2055 0.0105
H18A H -0.3192 1.2210 -0.0947
C10_2 C -0.4748(5) 0.1342(4) 0.3168(3)
C11_2 C -1.0295(5) -0.1893(4) 0.1329(3)
H19_2 H -0.9703 -0.1793 0.0783
C12A C -0.5840(5) 1.1148(5) -0.0418(3)
H20A H -0.6434 1.1932 -0.0710
C13_2 C -0.8249(5) -0.0836(4) 0.2825(3)
H21_2 H -0.8495 -0.1623 0.2817
H22_2 H -0.8707 -0.0576 0.3386
C14A C -0.1232(5) -0.3013(5) 0.5993(3)
H23A H -0.1815 -0.3600 0.5959
H24A H -0.1807 -0.2463 0.6391
C15A C -0.0503(5) -0.1076(5) 0.5030(3)
C16_2 C -0.3952(5) 0.1774(4) 0.2392(3)
H25_2 H -0.3788 0.1373 0.1901
C17_2 C -0.6761(5) 0.1076(4) 0.1954(3)
H26_2 H -0.6278 0.0814 0.1399
H27_2 H -0.6522 0.1864 0.1969
C18A C -0.4443(5) 1.1078(4) -0.0178(3)
C19_2 C -0.8422(5) 0.1307(4) 0.1939(3)
H28_2 H -0.8915 0.1725 0.2430
H29_2 H -0.8758 0.1875 0.1363
C20_2 C -0.3403(6) 0.2792(5) 0.2342(3)
H30_2 H -0.2848 0.3073 0.1811
C21A C 0.0197(5) -0.3760(4) 0.6415(3)
C22_2 C -0.6593(5) -0.1063(4) 0.2812(3)
H31_2 H -0.6223 -0.1663 0.3370
H32_2 H -0.6124 -0.1437 0.2296
C23_2 C -1.0557(5) -0.1027(4) 0.1866(3)
C24_2 C -0.5275(5) 0.0174(4) 0.3319(3)
C25A C -0.3616(5) 0.9905(5) 0.0237(3)
H33A H -0.2650 0.9822 0.0403
C26A C -0.4890(6) 1.3460(5) -0.0411(3)
H34A H -0.4349 1.4078 -0.0379
H35A H -0.5592 1.3400 0.0123
C27_2 C -0.4362(5) 0.2968(4) 0.3754(3)
H36_2 H -0.4517 0.3390 0.4233
C28A C -0.5766(6) 1.3945(4) -0.1250(3)
O2 O 0.2972(4) 0.5599(4) 0.4397(2)
H1 H 0.222(4) 0.587(5) 0.474(3)
H2 H 0.267(6) 0.572(6) 0.3875(19)
O3 O 0.2429(4) 0.5988(4) 0.2678(3)
H3 H 0.326(4) 0.612(5) 0.245(4)
H4 H 0.229(6) 0.543(4) 0.245(4)
O5 O 0.2160(5) 0.4328(5) 0.1659(3)
H5 H 0.147(5) 0.416(6) 0.203(3)
H6 H 0.186(7) 0.485(6) 0.118(3)
O7 O 0.1066(13) 0.5299(16) 0.0122(8)
O12? O 0.1205(10) 0.6192(7) -0.0147(5)
loop_
_geom_bond_atom_site_label_1
_geom_bond_atom_site_label_2
_geom_bond_site_symmetry_1
_geom_bond_site_symmetry_2
Cd1 O4 1_555 1_555
O1 C8 1_555 1_555
O2 H1 1_555 1_555
H2 O2 1_555 1_555
O3 H3 1_555 1_555
H4 O3 1_555 1_555
O4 C21 1_555 1_555
O5 H5 1_555 1_555
H6 O5 1_555 1_555
O6 Cd1 1_555 1_555
O8 C24 1_555 1_555
O9 Cd1 1_555 1_555
O10 Cd1 1_555 1_555
O11 Cd1 1_555 1_555
H7 O11 1_555 1_555
H8 O11 1_555 1_555
N1 C17 1_555 1_555
N2 C8 1_555 1_555
N3 Cd1 1_555 1_555
N4 C20 1_555 1_555
C1 H9 1_555 1_555
H10 C1 1_555 1_555
C2 H11 1_555 1_555
C3 H12 1_555 1_555
C4 H13 1_555 1_555
C5 N3 1_555 1_555
H14 C5 1_555 1_555
C6 H15 1_555 1_555
C7 N3 1_555 1_555
H16 C7 1_555 1_555
C8 C23 1_555 1_555
C9 H17 1_555 1_555
H18 C9 1_555 1_555
C10 C6 1_555 1_555
C11 C7 1_555 1_555
H19 C11 1_555 1_555
C12 H20 1_555 1_555
C13 N2 1_555 1_555
H21 C13 1_555 1_555
H22 C13 1_555 1_555
C14 C1 1_555 1_555
H23 C14 1_555 1_555
H24 C14 1_555 1_555
C15 C1 1_555 1_555
C16 C10 1_555 1_555
H25 C16 1_555 1_555
C17 H26 1_555 1_555
H27 C17 1_555 1_555
C18 C9 1_555 1_555
C19 N2 1_555 1_555
H28 C19 1_555 1_555
H29 C19 1_555 1_555
C20 C16 1_555 1_555
H30 C20 1_555 1_555
C21 O6 1_555 1_555
C22 N1 1_555 1_555
H31 C22 1_555 1_555
H32 C22 1_555 1_555
C23 C4 1_555 1_555
C24 N1 1_555 1_555
C25 C18 1_555 1_555
H33 C25 1_555 1_555
C26 C9 1_555 1_555
H34 C26 1_555 1_555
H35 C26 1_555 1_555
C27 N4 1_555 1_555
H36 C27 1_555 1_555
C28 O9 1_555 1_555
Cd1A O4A 1_555 1_555
Cd1_2 N4 1_555 1_555
Cd1A_2 O9A 1_555 1_555
Cd1_3 N3_2 1_555 1_555
O1_2 C8_2 1_555 1_555
O4A C21A 1_555 1_555
O6A Cd1A 1_555 1_555
O8_2 C24_2 1_555 1_555
O9A C28A 1_555 1_555
O9A_2 Cd1A 1_555 1_555
O10A Cd1A_2 1_555 1_555
O10A_2 Cd1A 1_555 1_555
O11A Cd1A 1_555 1_555
H7A O11A 1_555 1_555
H8A O11A 1_555 1_555
N1_2 C17_2 1_555 1_555
N2_2 C8_2 1_555 1_555
N3_2 C5_2 1_555 1_555
N3A Cd1A 1_555 1_555
N4_2 Cd1 1_555 1_555
N4A Cd1A 1_555 1_555
C1A H9A 1_555 1_555
H10A C1A 1_555 1_555
C2A C3 1_555 1_555
H11A C2A 1_555 1_555
C3A C2 1_555 1_555
H12A C3A 1_555 1_555
C4_2 H13_2 1_555 1_555
C5_2 C4_2 1_555 1_555
H14_2 C5_2 1_555 1_555
C6_2 H15_2 1_555 1_555
C7_2 N3_2 1_555 1_555
H16_2 C7_2 1_555 1_555
C8_2 C23_2 1_555 1_555
C9A H17A 1_555 1_555
H18A C9A 1_555 1_555
C10_2 C6_2 1_555 1_555
C11_2 C7_2 1_555 1_555
H19_2 C11_2 1_555 1_555
C12A C25 1_555 1_555
H20A C12A 1_555 1_555
C13_2 N2_2 1_555 1_555
H21_2 C13_2 1_555 1_555
H22_2 C13_2 1_555 1_555
C14A C1A 1_555 1_555
H23A C14A 1_555 1_555
H24A C14A 1_555 1_555
C15A C1A 1_555 1_555
C16_2 C10_2 1_555 1_555
H25_2 C16_2 1_555 1_555
C17_2 H26_2 1_555 1_555
H27_2 C17_2 1_555 1_555
C18A C9A 1_555 1_555
C19_2 N2_2 1_555 1_555
H28_2 C19_2 1_555 1_555
H29_2 C19_2 1_555 1_555
C20_2 N4_2 1_555 1_555
H30_2 C20_2 1_555 1_555
C21A O6A 1_555 1_555
C22_2 N1_2 1_555 1_555
H31_2 C22_2 1_555 1_555
H32_2 C22_2 1_555 1_555
C23_2 C4_2 1_555 1_555
C24_2 N1_2 1_555 1_555
C25A C12 1_555 1_555
H33A C25A 1_555 1_555
C26A C9A 1_555 1_555
H34A C26A 1_555 1_555
H35A C26A 1_555 1_555
C27_2 N4_2 1_555 1_555
H36_2 C27_2 1_555 1_555
C28A O10A 1_555 1_555
O10 C28 1_555 1_555
C2 C15 1_555 1_555
C3 C15 1_555 1_555
C4 C5 1_555 1_555
C6 C27 1_555 1_555
C10 C24 1_555 1_555
C11 C23 1_555 1_555
C12 C18 1_555 1_555
C13 C22 1_555 1_555
C14 C21 1_555 1_555
C17 C19 1_555 1_555
C26 C28 1_555 1_555
C2A C15A 1_555 1_555
C3A C15A 1_555 1_555
C6_2 C27_2 1_555 1_555
C10_2 C24_2 1_555 1_555
C11_2 C23_2 1_555 1_555
C12A C18A 1_555 1_555
C13_2 C22_2 1_555 1_555
C14A C21A 1_555 1_555
C16_2 C20_2 1_555 1_555
C17_2 C19_2 1_555 1_555
C18A C25A 1_555 1_555
C26A C28A 1_555 1_555

#END
