
#######################################################################
#
#                 Cambridge Crystallographic Data Centre
#                                CCDC 
#
#######################################################################
#
# If this CIF has been generated from an entry in the Cambridge 
# Structural Database, then it will include bibliographic, chemical, 
# crystal, experimental, refinement or atomic coordinate data resulting 
# from the CCDC's data processing and validation procedures.
#
#######################################################################

data_IVARAY
_symmetry_cell_setting           triclinic
_symmetry_space_group_name_H-M   'P -1'
_symmetry_Int_Tables_number      2
_space_group_name_Hall           '-P 1'
loop_
_symmetry_equiv_pos_site_id
_symmetry_equiv_pos_as_xyz
1 x,y,z
2 -x,-y,-z
_cell_length_a                   9.1565(8)
_cell_length_b                   9.2491(8)
_cell_length_c                   20.084(2)
_cell_angle_alpha                87.842(2)
_cell_angle_beta                 87.911(2)
_cell_angle_gamma                62.131(2)
_cell_volume                     1502.22
loop_
_atom_site_label
_atom_site_type_symbol
_atom_site_fract_x
_atom_site_fract_y
_atom_site_fract_z
Ag1 Ag 0.187924(18) 0.14544(2) 0.684703(7)
N1 N 0.3338(3) -0.1701(3) 0.66612(12)
C1 C 0.3565(3) -0.2864(3) 0.64167(12)
C2 C 0.3842(5) -0.4361(3) 0.61017(15)
C3 C 0.7589(2) 0.0194(2) 0.52262(10)
N2 N 0.5871(2) 0.0922(2) 0.54299(8)
N3 N 0.4702(2) 0.2297(2) 0.51216(9)
C4 C 0.3358(2) 0.2596(2) 0.54791(10)
N4 N 0.3598(2) 0.1519(2) 0.59959(9)
C5 C 0.5196(2) 0.0489(2) 0.59463(10)
N5 N 0.8419(2) 0.1003(2) 0.55277(8)
N6 N 0.8278(2) 0.2449(2) 0.52736(9)
C6 C 0.9133(2) 0.2799(2) 0.56930(11)
N7 N 0.9809(2) 0.1671(2) 0.61963(8)
C7 C 0.9328(2) 0.0565(2) 0.60777(10)
Sb1 Sb 0.243775(15) 0.179561(15) 0.807622(6)
C8 C 0.0662(2) 0.1898(2) 0.88220(10)
C9 C -0.0277(3) 0.1117(3) 0.86967(12)
C10 C -0.1445(3) 0.1143(3) 0.91592(14)
C11 C -0.1695(3) 0.1964(3) 0.97485(13)
C12 C -0.0789(3) 0.2760(3) 0.98767(12)
C13 C 0.0403(3) 0.2729(3) 0.94144(10)
C14 C 0.2799(2) 0.3819(2) 0.83272(9)
C15 C 0.1908(3) 0.5288(2) 0.79815(11)
C16 C 0.2170(3) 0.6622(3) 0.80989(13)
C17 C 0.3322(4) 0.6479(3) 0.85546(14)
C18 C 0.4214(3) 0.5020(3) 0.89011(12)
C19 C 0.3959(3) 0.3687(3) 0.87848(10)
C20 C 0.4623(2) -0.0152(2) 0.84755(9)
C21 C 0.5955(3) -0.0958(3) 0.80348(11)
C22 C 0.7392(3) -0.2277(3) 0.82551(13)
C23 C 0.7513(3) -0.2800(3) 0.89112(13)
C24 C 0.6193(3) -0.2005(3) 0.93496(12)
C25 C 0.4753(3) -0.0683(3) 0.91358(10)
H1 H 0.33314 -0.41090 0.56824
H2 H 0.49953 -0.50421 0.60485
H3 H 0.33795 -0.49108 0.63792
H4 H 0.76659 0.02865 0.47547
H5 H 0.81134 -0.09299 0.53585
H6 H 0.23060 0.34907 0.53827
H7 H 0.57755 -0.04259 0.62363
H8 H 0.92662 0.37576 0.56485
H9 H 0.95852 -0.03932 0.63416
H10 H -0.01157 0.05608 0.82910
H11 H -0.20726 0.05990 0.90724
H12 H -0.24990 0.19781 1.00660
H13 H -0.09714 0.33311 1.02805
H14 H 0.10316 0.32716 0.95028
H15 H 0.11176 0.53846 0.76660
H16 H 0.15581 0.76247 0.78650
H17 H 0.35002 0.73920 0.86299
H18 H 0.49981 0.49318 0.92178
H19 H 0.45783 0.26806 0.90190
H20 H 0.58750 -0.06001 0.75818
H21 H 0.82929 -0.28200 0.79544
H22 H 0.85012 -0.37027 0.90633
H23 H 0.62749 -0.23724 0.98007
H24 H 0.38585 -0.01405 0.94403
N7_2 N -0.0191(2) 0.1671(2) 0.61963(8)
Ag1_2 Ag 1.187924(18) 0.14544(2) 0.684703(7)
N8 N -0.0624(2) 0.6311(2) 0.63378(10)
O1 O 0.0011(3) 0.4986(2) 0.66420(10)
O2 O -0.0594(3) 0.6315(2) 0.57167(9)
O3 O -0.1225(3) 0.7614(2) 0.66366(10)
N9 N 0.6277(3) 0.2193(4) 0.71692(14)
C26 C 0.6634(3) 0.3145(4) 0.73291(13)
C27 C 0.7101(4) 0.4366(4) 0.75180(15)
H25 H 0.80045 0.42797 0.72419
H26 H 0.61902 0.54131 0.74642
H27 H 0.74292 0.41774 0.79703
loop_
_geom_bond_atom_site_label_1
_geom_bond_atom_site_label_2
_geom_bond_site_symmetry_1
_geom_bond_site_symmetry_2
Ag1 N1 1_555 1_555
N1 C1 1_555 1_555
C1 C2 1_555 1_555
C2 H1 1_555 1_555
C3 N2 1_555 1_555
N2 N3 1_555 1_555
N3 C4 1_555 1_555
C4 N4 1_555 1_555
N4 Ag1 1_555 1_555
C5 N2 1_555 1_555
N5 C3 1_555 1_555
N6 N5 1_555 1_555
C6 N6 1_555 1_555
N7 C6 1_555 1_555
C7 N5 1_555 1_555
Sb1 Ag1 1_555 1_555
C8 Sb1 1_555 1_555
C9 C8 1_555 1_555
C10 C9 1_555 1_555
C11 C10 1_555 1_555
C12 C11 1_555 1_555
C13 C8 1_555 1_555
C14 Sb1 1_555 1_555
C15 C14 1_555 1_555
C16 C15 1_555 1_555
C17 C16 1_555 1_555
C18 C17 1_555 1_555
C19 C14 1_555 1_555
C20 Sb1 1_555 1_555
C21 C20 1_555 1_555
C22 C21 1_555 1_555
C23 C22 1_555 1_555
C24 C23 1_555 1_555
C25 C20 1_555 1_555
H2 C2 1_555 1_555
H3 C2 1_555 1_555
H4 C3 1_555 1_555
H5 C3 1_555 1_555
H6 C4 1_555 1_555
H7 C5 1_555 1_555
H8 C6 1_555 1_555
H9 C7 1_555 1_555
H10 C9 1_555 1_555
H11 C10 1_555 1_555
H12 C11 1_555 1_555
H13 C12 1_555 1_555
H14 C13 1_555 1_555
H15 C15 1_555 1_555
H16 C16 1_555 1_555
H17 C17 1_555 1_555
H18 C18 1_555 1_555
H19 C19 1_555 1_555
H20 C21 1_555 1_555
H21 C22 1_555 1_555
H22 C23 1_555 1_555
H23 C24 1_555 1_555
H24 C25 1_555 1_555
N8 O1 1_555 1_555
O2 N8 1_555 1_555
O3 N8 1_555 1_555
N9 C26 1_555 1_555
C26 C27 1_555 1_555
C27 H25 1_555 1_555
H26 C27 1_555 1_555
H27 C27 1_555 1_555
N7_2 Ag1 1_555 1_555
Ag1_2 N7 1_555 1_555
N4 C5 1_555 1_555
N7 C7 1_555 1_555
C12 C13 1_555 1_555
C18 C19 1_555 1_555
C24 C25 1_555 1_555

#END
