
#######################################################################
#
#                 Cambridge Crystallographic Data Centre
#                                CCDC 
#
#######################################################################
#
# If this CIF has been generated from an entry in the Cambridge 
# Structural Database, then it will include bibliographic, chemical, 
# crystal, experimental, refinement or atomic coordinate data resulting 
# from the CCDC's data processing and validation procedures.
#
#######################################################################

data_IVAREC
_symmetry_cell_setting           triclinic
_symmetry_space_group_name_H-M   'P -1'
_symmetry_Int_Tables_number      2
_space_group_name_Hall           '-P 1'
loop_
_symmetry_equiv_pos_site_id
_symmetry_equiv_pos_as_xyz
1 x,y,z
2 -x,-y,-z
_cell_length_a                   9.321(3)
_cell_length_b                   9.590(3)
_cell_length_c                   19.689(6)
_cell_angle_alpha                80.139(7)
_cell_angle_beta                 78.830(7)
_cell_angle_gamma                61.248(7)
_cell_volume                     1507.5
loop_
_atom_site_label
_atom_site_type_symbol
_atom_site_fract_x
_atom_site_fract_y
_atom_site_fract_z
Ag1 Ag 0.60706(4) 0.57878(4) 0.191560(10)
P1 P 0.53837(11) 0.54550(11) 0.31359(4)
C1 C 0.5309(4) 0.3578(4) 0.34550(17)
C2 C 0.4570(4) 0.3065(4) 0.3078(2)
C3 C 0.4433(5) 0.1678(5) 0.3307(2)
C4 C 0.5056(5) 0.0791(5) 0.3899(2)
C5 C 0.5814(5) 0.1277(5) 0.4277(2)
C6 C 0.5953(5) 0.2664(4) 0.4057(2)
C7 C 0.6977(4) 0.5367(4) 0.35729(18)
C8 C 0.8601(5) 0.4454(5) 0.3287(2)
C9 C 0.9888(5) 0.4397(5) 0.3557(2)
C10 C 0.9583(6) 0.5253(6) 0.4104(3)
C11 C 0.7993(6) 0.6167(5) 0.4393(2)
C12 C 0.6686(5) 0.6214(4) 0.41299(19)
C13 C 0.3464(4) 0.6964(4) 0.35432(18)
C14 C 0.2692(5) 0.8449(5) 0.3173(2)
C15 C 0.1216(6) 0.9629(5) 0.3461(3)
C16 C 0.0511(5) 0.9337(5) 0.4114(3)
C17 C 0.1250(5) 0.7881(5) 0.4483(2)
C18 C 0.2715(4) 0.6695(4) 0.42038(19)
N1 N 1.0477(3) 0.5786(3) 0.05797(14)
N2 N 0.9345(3) 0.7238(4) 0.03200(16)
C19 C 0.7989(4) 0.7446(4) 0.0746(2)
N3 N 0.8191(3) 0.6218(3) 0.12475(14)
C20 C 0.9763(4) 0.5209(4) 0.11266(17)
N4 N 1.3097(3) 0.5766(3) 0.04737(14)
N5 N 1.2918(3) 0.7242(3) 0.02102(15)
C21 C 1.3889(4) 0.7414(4) 0.05518(19)
N6 N 1.4668(3) 0.6159(3) 0.10136(14)
C22 C 1.4134(4) 0.5143(4) 0.09523(17)
C23 C 1.2174(4) 0.5105(4) 0.02557(18)
N7 N 0.7918(5) 0.2830(5) 0.1674(2)
C24 C 0.8732(5) 0.1755(5) 0.1380(2)
C25 C 0.9798(7) 0.0362(5) 0.1000(2)
H1 H 0.41543 0.36802 0.26537
H2 H 0.38864 0.13374 0.30494
H3 H 0.49851 -0.01764 0.40464
H4 H 0.62520 0.06541 0.46953
H5 H 0.64900 0.29975 0.43185
H6 H 0.88207 0.38684 0.28960
H7 H 1.10185 0.37571 0.33598
H8 H 1.04807 0.52284 0.42923
H9 H 0.77654 0.67786 0.47816
H10 H 0.55643 0.68498 0.43357
H11 H 0.31933 0.86601 0.27161
H12 H 0.06832 1.06572 0.32029
H13 H -0.05134 1.01709 0.43140
H14 H 0.07377 0.76829 0.49386
H15 H 0.32449 0.56698 0.44672
H16 H 0.69408 0.83780 0.07039
H17 H 1.03119 0.41969 0.13910
H18 H 1.21929 0.53046 -0.02400
H19 H 1.26939 0.39739 0.03697
H20 H 1.40282 0.83664 0.04797
H21 H 1.44472 0.41156 0.12098
H22 H 0.92041 -0.00097 0.07970
H23 H 1.05390 -0.05160 0.12798
H24 H 1.04714 0.06175 0.06112
N6_2 N 0.4668(3) 0.6159(3) 0.10136(14)
Ag1_2 Ag 1.60706(4) 0.57878(4) 0.191560(10)
Cl1 Cl 0.38047(14) 1.09439(11) 0.14556(5)
O1 O 0.4541(7) 0.9301(5) 0.1659(3)
O2 O 0.3581(13) 1.1230(11) 0.0731(5)
O3 O 0.5083(8) 1.1447(7) 0.1495(3)
O4 O 0.2431(7) 1.1837(7) 0.1877(3)
N8 N 1.1227(5) 0.6528(5) 0.2133(2)
C26 C 0.9935(6) 0.7402(5) 0.2346(2)
C27 C 0.8277(6) 0.8518(5) 0.2616(2)
H25 H 0.83507 0.89418 0.30095
H26 H 0.76585 0.79484 0.27708
H27 H 0.77731 0.93841 0.22768
O5? O 0.4908(14) 0.9635(14) 0.1831(6)
O6? O 0.2178(12) 1.0735(13) 0.1624(5)
O7? O 0.3320(15) 1.2376(13) 0.1705(6)
O8? O 0.417(2) 1.101(2) 0.0752(11)
loop_
_geom_bond_atom_site_label_1
_geom_bond_atom_site_label_2
_geom_bond_site_symmetry_1
_geom_bond_site_symmetry_2
Ag1 P1 1_555 1_555
P1 C1 1_555 1_555
C1 C2 1_555 1_555
C2 C3 1_555 1_555
C3 C4 1_555 1_555
C4 C5 1_555 1_555
C5 C6 1_555 1_555
C6 C1 1_555 1_555
C7 P1 1_555 1_555
C8 C7 1_555 1_555
C9 C8 1_555 1_555
C10 C9 1_555 1_555
C11 C10 1_555 1_555
C12 C7 1_555 1_555
C13 P1 1_555 1_555
C14 C13 1_555 1_555
C15 C14 1_555 1_555
C16 C15 1_555 1_555
C17 C16 1_555 1_555
C18 C13 1_555 1_555
N1 N2 1_555 1_555
N2 C19 1_555 1_555
C19 N3 1_555 1_555
N3 Ag1 1_555 1_555
C20 N1 1_555 1_555
N4 N5 1_555 1_555
N5 C21 1_555 1_555
C21 N6 1_555 1_555
N6 C22 1_555 1_555
C22 N4 1_555 1_555
C23 N1 1_555 1_555
N7 Ag1 1_555 1_555
C24 N7 1_555 1_555
C25 C24 1_555 1_555
H1 C2 1_555 1_555
H2 C3 1_555 1_555
H3 C4 1_555 1_555
H4 C5 1_555 1_555
H5 C6 1_555 1_555
H6 C8 1_555 1_555
H7 C9 1_555 1_555
H8 C10 1_555 1_555
H9 C11 1_555 1_555
H10 C12 1_555 1_555
H11 C14 1_555 1_555
H12 C15 1_555 1_555
H13 C16 1_555 1_555
H14 C17 1_555 1_555
H15 C18 1_555 1_555
H16 C19 1_555 1_555
H17 C20 1_555 1_555
H18 C23 1_555 1_555
H19 C23 1_555 1_555
H20 C21 1_555 1_555
H21 C22 1_555 1_555
H22 C25 1_555 1_555
H23 C25 1_555 1_555
H24 C25 1_555 1_555
Cl1 O1 1_555 1_555
O2 Cl1 1_555 1_555
O3 Cl1 1_555 1_555
O4 Cl1 1_555 1_555
N8 C26 1_555 1_555
C26 C27 1_555 1_555
C27 H25 1_555 1_555
H26 C27 1_555 1_555
H27 C27 1_555 1_555
N6_2 Ag1 1_555 1_555
Ag1_2 N6 1_555 1_555
C11 C12 1_555 1_555
C17 C18 1_555 1_555
N3 C20 1_555 1_555
N4 C23 1_555 1_555

#END
