
#######################################################################
#
#                 Cambridge Crystallographic Data Centre
#                                CCDC 
#
#######################################################################
#
# If this CIF has been generated from an entry in the Cambridge 
# Structural Database, then it will include bibliographic, chemical, 
# crystal, experimental, refinement or atomic coordinate data resulting 
# from the CCDC's data processing and validation procedures.
#
#######################################################################

data_IVARIG
_symmetry_cell_setting           triclinic
_symmetry_space_group_name_H-M   'P -1'
_symmetry_Int_Tables_number      2
_space_group_name_Hall           '-P 1'
loop_
_symmetry_equiv_pos_site_id
_symmetry_equiv_pos_as_xyz
1 x,y,z
2 -x,-y,-z
_cell_length_a                   10.5051(7)
_cell_length_b                   11.3410(8)
_cell_length_c                   17.5390(10)
_cell_angle_alpha                76.802(2)
_cell_angle_beta                 77.954(2)
_cell_angle_gamma                62.5980(10)
_cell_volume                     1793.09
loop_
_atom_site_label
_atom_site_type_symbol
_atom_site_fract_x
_atom_site_fract_y
_atom_site_fract_z
Ag1 Ag 0.743578(18) 0.365842(16) 0.222694(9)
Ag2 Ag -0.308575(18) 0.959224(18) 0.401136(11)
C1 C 0.2887(2) 0.6895(2) 0.42358(12)
N1 N 0.39297(18) 0.65646(16) 0.35462(10)
N2 N 0.3993(2) 0.75060(17) 0.29201(11)
C2 C 0.5070(2) 0.6770(2) 0.24404(13)
N3 N 0.56850(19) 0.54352(17) 0.27199(10)
C3 C 0.4933(2) 0.5347(2) 0.34219(12)
N4 N 0.14533(18) 0.72702(17) 0.40474(10)
N5 N 0.1209(2) 0.64686(19) 0.36823(12)
C4 C -0.0195(2) 0.7088(2) 0.36732(13)
N6 N -0.0857(2) 0.82189(19) 0.40114(11)
C5 C 0.0219(2) 0.8301(2) 0.42419(13)
C6 C 1.1270(3) 0.3575(2) 0.39336(15)
N7 N 1.0719(2) 0.39176(18) 0.31801(11)
N8 N 1.1614(2) 0.3688(2) 0.24901(12)
C7 C 1.0694(3) 0.4054(3) 0.19820(14)
N9 N 0.9287(2) 0.4509(2) 0.22848(12)
C8 C 0.9356(2) 0.4414(2) 0.30401(14)
N10 N 1.2463(2) 0.22511(18) 0.39893(11)
N11 N 1.2314(2) 0.1126(2) 0.39689(13)
C9 C 1.3649(3) 0.0184(2) 0.39892(14)
N12 N 1.4627(2) 0.06371(19) 0.40198(11)
C10 C 1.3834(3) 0.1945(2) 0.40187(13)
P1 P 0.84116(5) 0.21081(5) 0.13041(3)
C11 C 1.0366(2) 0.15340(19) 0.10975(11)
C12 C 1.1226(2) 0.0960(2) 0.17226(13)
C13 C 1.0622(3) 0.0699(3) 0.25658(14)
C14 C 1.2702(2) 0.0620(2) 0.15525(15)
C15 C 1.3325(3) 0.0836(2) 0.07845(16)
C16 C 1.2491(3) 0.1382(2) 0.01689(15)
C17 C 1.1017(2) 0.1729(2) 0.03259(13)
C18 C 0.8160(2) 0.05639(19) 0.15917(11)
C19 C 0.6787(2) 0.0622(2) 0.19065(11)
C20 C 0.5464(2) 0.1934(2) 0.19795(15)
C21 C 0.6663(3) -0.0585(2) 0.21427(13)
C22 C 0.7841(3) -0.1820(2) 0.20624(13)
C23 C 0.9184(3) -0.1870(2) 0.17371(13)
C24 C 0.9335(2) -0.0679(2) 0.15105(12)
C25 C 0.7723(2) 0.2824(2) 0.03443(11)
C26 C 0.7478(2) 0.4149(2) -0.00046(12)
C27 C 0.7844(4) 0.5027(3) 0.03571(17)
C28 C 0.6894(3) 0.4657(2) -0.07172(14)
C29 C 0.6556(3) 0.3908(3) -0.10863(15)
C30 C 0.6800(3) 0.2602(3) -0.07489(14)
C31 C 0.7383(2) 0.2068(2) -0.00352(13)
N13 N 0.7602(2) 0.20139(18) 0.40165(11)
O1 O 0.6935(2) 0.20459(19) 0.35007(10)
O2 O 0.7940(2) 0.10314(16) 0.45733(10)
O3 O 0.7920(2) 0.2943(2) 0.40051(13)
H1 H 0.288(3) 0.765(3) 0.4410(16)
H2 H 0.314(3) 0.621(3) 0.4611(16)
H3 H 0.537(3) 0.712(3) 0.2004(17)
H4 H 0.507(3) 0.455(3) 0.3812(15)
H5 H -0.070(3) 0.677(3) 0.3471(17)
H6 H 0.020(3) 0.895(3) 0.4446(17)
H7 H 1.048(4) 0.362(3) 0.4291(19)
H8 H 1.167(3) 0.417(3) 0.4008(17)
H9 H 1.096(3) 0.403(3) 0.1457(17)
H10 H 0.864(4) 0.464(3) 0.339(2)
H11 H 1.394(3) -0.075(3) 0.3966(19)
H12 H 1.413(3) 0.260(3) 0.4002(17)
H13 H 0.997(5) 0.047(4) 0.261(2)
H14 H 1.125(4) 0.028(4) 0.290(2)
H15 H 1.013(5) 0.144(4) 0.279(2)
H16 H 1.326(3) 0.027(3) 0.1973(16)
H17 H 1.429(4) 0.070(4) 0.067(2)
H18 H 1.276(3) 0.155(3) -0.0359(18)
H19 H 1.047(3) 0.211(2) -0.0072(15)
H20 H 0.469(3) 0.176(3) 0.2172(18)
H21 H 0.552(4) 0.246(3) 0.228(2)
H22 H 0.528(3) 0.252(3) 0.1494(19)
H23 H 0.572(3) -0.054(3) 0.2386(15)
H24 H 0.773(3) -0.263(2) 0.2231(13)
H25 H 1.001(3) -0.273(3) 0.1688(16)
H26 H 1.019(3) -0.071(2) 0.1313(14)
H27 H 0.734(4) 0.522(4) 0.081(2)
H28 H 0.877(5) 0.459(4) 0.049(2)
H29 H 0.761(3) 0.589(3) 0.0030(18)
H30 H 0.671(3) 0.551(3) -0.0920(18)
H31 H 0.618(4) 0.424(4) -0.156(2)
H32 H 0.659(3) 0.205(3) -0.0996(17)
H33 H 0.758(3) 0.115(3) 0.0175(15)
N12_2 N -0.5373(2) 1.06371(19) 0.40198(11)
O1_2 O -0.3065(2) 1.20459(19) 0.35007(10)
O2_2 O -0.2060(2) 1.10314(16) 0.45733(10)
Ag2_2 Ag 1.691425(18) -0.040776(18) 0.401136(11)
Ag2_3 Ag 0.691425(18) -0.040776(18) 0.401136(11)
N14 N 0.6588(2) 0.64323(19) 0.44872(10)
O4 O 0.6567(2) 0.70826(19) 0.38089(10)
O5 O 0.5420(2) 0.6602(2) 0.49227(10)
O6 O 0.7762(2) 0.56157(18) 0.47360(10)
loop_
_geom_bond_atom_site_label_1
_geom_bond_atom_site_label_2
_geom_bond_site_symmetry_1
_geom_bond_site_symmetry_2
Ag1 N3 1_555 1_555
Ag2 N6 1_555 1_555
C1 N1 1_555 1_555
N1 N2 1_555 1_555
N2 C2 1_555 1_555
C2 N3 1_555 1_555
N3 C3 1_555 1_555
C3 N1 1_555 1_555
N4 C1 1_555 1_555
N5 N4 1_555 1_555
C4 N5 1_555 1_555
N6 C4 1_555 1_555
C5 N4 1_555 1_555
C6 N7 1_555 1_555
N7 N8 1_555 1_555
N8 C7 1_555 1_555
C7 N9 1_555 1_555
N9 Ag1 1_555 1_555
C8 N7 1_555 1_555
N10 C6 1_555 1_555
N11 N10 1_555 1_555
C9 N11 1_555 1_555
N12 C9 1_555 1_555
C10 N10 1_555 1_555
P1 Ag1 1_555 1_555
C11 P1 1_555 1_555
C12 C11 1_555 1_555
C13 C12 1_555 1_555
C14 C12 1_555 1_555
C15 C14 1_555 1_555
C16 C15 1_555 1_555
C17 C11 1_555 1_555
C18 P1 1_555 1_555
C19 C18 1_555 1_555
C20 C19 1_555 1_555
C21 C19 1_555 1_555
C22 C21 1_555 1_555
C23 C22 1_555 1_555
C24 C18 1_555 1_555
C25 P1 1_555 1_555
C26 C25 1_555 1_555
C27 C26 1_555 1_555
C28 C26 1_555 1_555
C29 C28 1_555 1_555
C30 C29 1_555 1_555
C31 C25 1_555 1_555
N13 O1 1_555 1_555
O1 Ag1 1_555 1_555
O2 N13 1_555 1_555
O3 N13 1_555 1_555
H1 C1 1_555 1_555
H2 C1 1_555 1_555
H3 C2 1_555 1_555
H4 C3 1_555 1_555
H5 C4 1_555 1_555
H6 C5 1_555 1_555
H7 C6 1_555 1_555
H8 C6 1_555 1_555
H9 C7 1_555 1_555
H10 C8 1_555 1_555
H11 C9 1_555 1_555
H12 C10 1_555 1_555
H13 C13 1_555 1_555
H14 C13 1_555 1_555
H15 C13 1_555 1_555
H16 C14 1_555 1_555
H17 C15 1_555 1_555
H18 C16 1_555 1_555
H19 C17 1_555 1_555
H20 C20 1_555 1_555
H21 C20 1_555 1_555
H22 C20 1_555 1_555
H23 C21 1_555 1_555
H24 C22 1_555 1_555
H25 C23 1_555 1_555
H26 C24 1_555 1_555
H27 C27 1_555 1_555
H28 C27 1_555 1_555
H29 C27 1_555 1_555
H30 C28 1_555 1_555
H31 C29 1_555 1_555
H32 C30 1_555 1_555
H33 C31 1_555 1_555
N14 O4 1_555 1_555
O5 N14 1_555 1_555
O6 N14 1_555 1_555
N12_2 Ag2 1_555 1_555
O1_2 Ag2 1_555 1_555
O2_2 Ag2 1_555 1_555
Ag2_2 N12 1_555 1_555
Ag2_3 O1 1_555 1_555
N6 C5 1_555 1_555
N9 C8 1_555 1_555
N12 C10 1_555 1_555
C16 C17 1_555 1_555
C23 C24 1_555 1_555
C30 C31 1_555 1_555
O2 Ag2_3 1_555 1_555

#END
