
#######################################################################
#
#                 Cambridge Crystallographic Data Centre
#                                CCDC 
#
#######################################################################
#
# If this CIF has been generated from an entry in the Cambridge 
# Structural Database, then it will include bibliographic, chemical, 
# crystal, experimental, refinement or atomic coordinate data resulting 
# from the CCDC's data processing and validation procedures.
#
#######################################################################

data_IVASUU
_symmetry_cell_setting           triclinic
_symmetry_space_group_name_H-M   'P -1'
_symmetry_Int_Tables_number      2
_space_group_name_Hall           '-P 1'
loop_
_symmetry_equiv_pos_site_id
_symmetry_equiv_pos_as_xyz
1 x,y,z
2 -x,-y,-z
_cell_length_a                   11.2978(6)
_cell_length_b                   13.1965(7)
_cell_length_c                   13.3446(12)
_cell_angle_alpha                114.002(4)
_cell_angle_beta                 99.792(4)
_cell_angle_gamma                106.937(3)
_cell_volume                     1641.17
loop_
_atom_site_label
_atom_site_type_symbol
_atom_site_fract_x
_atom_site_fract_y
_atom_site_fract_z
Ag1 Ag 0.623660(11) 0.805888(10) 0.066385(10)
P1 P 0.69300(4) 1.00545(3) 0.07891(3)
P2 P 0.67189(4) 0.62693(3) -0.00714(3)
S1 S 0.44802(4) 0.81539(4) 0.16645(3)
S2 S 0.69394(4) 0.83011(4) 0.44100(4)
N1 N 0.64608(14) 0.82090(13) 0.31248(12)
C1 C 0.55520(16) 0.84514(15) 0.47961(14)
C2 C 0.52998(15) 0.82582(14) 0.29107(13)
C3 C 0.47216(15) 0.84035(14) 0.38698(13)
C4 C 0.35398(16) 0.84949(15) 0.39191(14)
H1 H 0.2961 0.8463 0.329
C5 C 0.52575(18) 0.85951(16) 0.57994(15)
H2 H 0.5841 0.863 0.6428
C6 C 0.40704(18) 0.86851(16) 0.58455(15)
H3 H 0.3833 0.8782 0.6518
C7 C 0.32244(17) 0.86358(15) 0.49228(15)
H4 H 0.2418 0.8699 0.4975
C8 C 0.80000(15) 0.62143(14) 0.09139(14)
C9 C 0.86358(16) 0.71792(16) 0.20388(14)
H5 H 0.8374 0.7838 0.2292
C10 C 0.83845(17) 0.52372(16) 0.05502(16)
H6 H 0.7953 0.4572 -0.0215
C11 C 0.96542(17) 0.71837(18) 0.27944(15)
H7 H 1.0087 0.7846 0.3561
C12 C 1.00386(18) 0.62232(18) 0.24303(16)
H8 H 1.074 0.6232 0.2945
C13 C 0.93988(18) 0.52491(18) 0.13142(17)
H9 H 0.9656 0.4587 0.1071
C14 C 0.72215(15) 0.59077(14) -0.13586(13)
C15 C 0.80860(17) 0.54623(16) -0.32774(15)
H10 H 0.8376 0.5313 -0.3931
C16 C 0.83172(15) 0.67846(15) -0.13108(14)
H11 H 0.8774 0.7539 -0.0618
C17 C 0.65695(17) 0.48019(15) -0.23808(14)
H12 H 0.5824 0.4195 -0.2428
C18 C 0.70091(18) 0.45836(16) -0.33339(15)
H13 H 0.6565 0.3826 -0.4025
C19 C 0.87456(17) 0.65664(16) -0.22617(15)
H14 H 0.9489 0.7171 -0.222
C20 C 0.80452(14) 1.12560(14) 0.22241(13)
C21 C 0.81023(15) 1.24357(14) 0.27197(14)
H15 H 0.7556 1.2653 0.2293
C22 C 0.89564(16) 1.32913(15) 0.38355(14)
H16 H 0.8983 1.4089 0.4173
C23 C 0.97716(16) 1.29877(16) 0.44602(14)
H17 H 1.0361 1.3579 0.5219
C24 C 0.97262(16) 1.18192(17) 0.39759(15)
H18 H 1.0286 1.1611 0.44
C25 C 0.88589(16) 1.09584(16) 0.28697(14)
H19 H 0.8817 1.0156 0.2546
C26 C 0.76813(14) 1.03043(14) -0.02450(13)
C27 C 0.77578(17) 0.93104(16) -0.11221(15)
H20 H 0.7444 0.8545 -0.1152
C28 C 0.86715(17) 1.15380(17) -0.10531(15)
H21 H 0.8983 1.23 -0.1031
C29 C 0.81407(16) 1.14213(15) -0.02183(14)
H22 H 0.8091 1.2104 0.0372
C30 C 0.87469(17) 1.05432(17) -0.19183(15)
H23 H 0.9112 1.0626 -0.2486
C31 C 0.82926(19) 0.94349(17) -0.19545(16)
H24 H 0.8344 0.8755 -0.2547
C32 C 0.55278(14) 1.04752(14) 0.05847(13)
H25 H 0.5159 1.0541 0.122
H26 H 0.5824 1.1274 0.0614
O1 O 0.81123(12) 0.93714(13) 0.51580(11)
O2 O 0.69855(14) 0.71750(13) 0.42769(12)
C33 C 0.52677(14) 0.49127(14) -0.05055(13)
H27 H 0.4587 0.476 -0.1186
H28 H 0.5501 0.4203 -0.073
Ag1A Ag 0.376340(11) 1.194112(10) -0.066385(10)
Ag1A_2 Ag 0.376340(11) 0.194112(10) -0.066385(10)
P1A P 0.30700(4) 0.99455(3) -0.07891(3)
P2A P 0.32811(4) 0.37307(3) 0.00714(3)
P2A_2 P 0.32811(4) 1.37307(3) 0.00714(3)
S1A S 0.55198(4) 1.18461(4) -0.16645(3)
S2A S 0.30606(4) 1.16989(4) -0.44100(4)
N1A N 0.35392(14) 1.17910(13) -0.31248(12)
C1A C 0.44480(16) 1.15486(15) -0.47961(14)
C2A C 0.47002(15) 1.17418(14) -0.29107(13)
C3A C 0.52784(15) 1.15965(14) -0.38698(13)
C4A C 0.64602(16) 1.15051(15) -0.39191(14)
H1A H 0.7039 1.1537 -0.329
C5A C 0.47425(18) 1.14049(16) -0.57994(15)
H2A H 0.4159 1.137 -0.6428
C6A C 0.59296(18) 1.13149(16) -0.58455(15)
H3A H 0.6167 1.1218 -0.6518
C7A C 0.67756(17) 1.13642(15) -0.49228(15)
H4A H 0.7582 1.1301 -0.4975
C8A C 0.20000(15) 0.37857(14) -0.09139(14)
C9A C 0.13642(16) 0.28208(16) -0.20388(14)
H5A H 0.1626 0.2162 -0.2292
C10A C 0.16155(17) 0.47628(16) -0.05502(16)
H6A H 0.2047 0.5428 0.0215
C11A C 0.03458(17) 0.28163(18) -0.27944(15)
H7A H -0.0087 0.2154 -0.3561
C12A C -0.00386(18) 0.37768(18) -0.24303(16)
H8A H -0.074 0.3768 -0.2945
C13A C 0.06012(18) 0.47509(18) -0.13142(17)
H9A H 0.0344 0.5413 -0.1071
C14A C 0.27785(15) 0.40923(14) 0.13586(13)
C15A C 0.19140(17) 0.45377(16) 0.32774(15)
H10A H 0.1624 0.4687 0.3931
C16A C 0.16828(15) 0.32154(15) 0.13108(14)
H11A H 0.1226 0.2461 0.0618
C17A C 0.34305(17) 0.51981(15) 0.23808(14)
H12A H 0.4176 0.5805 0.2428
C18A C 0.29909(18) 0.54164(16) 0.33339(15)
H13A H 0.3435 0.6174 0.4025
C19A C 0.12544(17) 0.34336(16) 0.22617(15)
H14A H 0.0511 0.2829 0.222
C20A C 0.19548(14) 0.87440(14) -0.22241(13)
C21A C 0.18977(15) 0.75643(14) -0.27197(14)
H15A H 0.2444 0.7347 -0.2293
C22A C 0.10436(16) 0.67087(15) -0.38355(14)
H16A H 0.1017 0.5911 -0.4173
C23A C 0.02284(16) 0.70123(16) -0.44602(14)
H17A H -0.0361 0.6421 -0.5219
C24A C 0.02738(16) 0.81808(17) -0.39759(15)
H18A H -0.0286 0.8389 -0.44
C25A C 0.11411(16) 0.90416(16) -0.28697(14)
H19A H 0.1183 0.9844 -0.2546
C26A C 0.23187(14) 0.96957(14) 0.02450(13)
C27A C 0.22422(17) 1.06896(16) 0.11221(15)
H20A H 0.2556 1.1455 0.1152
C28A C 0.13285(17) 0.84620(17) 0.10531(15)
H21A H 0.1017 0.77 0.1031
C29A C 0.18593(16) 0.85787(15) 0.02183(14)
H22A H 0.1909 0.7896 -0.0372
C30A C 0.12531(17) 0.94568(17) 0.19183(15)
H23A H 0.0888 0.9374 0.2486
C31A C 0.17074(19) 1.05651(17) 0.19545(16)
H24A H 0.1656 1.1245 0.2547
C32A C 0.44722(14) 0.95248(14) -0.05847(13)
H25A H 0.4841 0.9459 -0.122
H26A H 0.4176 0.8726 -0.0614
O1A O 0.18877(12) 1.06286(13) -0.51580(11)
O2A O 0.30145(14) 1.28250(13) -0.42769(12)
C33A C 0.47323(14) 0.50873(14) 0.05055(13)
H27A H 0.5413 0.524 0.1186
H28A H 0.4499 0.5797 0.073
N2 N 0.42831(19) 0.65880(17) -0.16789(16)
C34 C 0.4336(2) 0.61751(18) -0.25935(18)
C35 C 0.4415(3) 0.5661(2) -0.3764(2)
H29 H 0.3958 0.5944 -0.4217
H30 H 0.4002 0.4776 -0.414
H31 H 0.5336 0.5918 -0.3721
loop_
_geom_bond_atom_site_label_1
_geom_bond_atom_site_label_2
_geom_bond_site_symmetry_1
_geom_bond_site_symmetry_2
Ag1 P1 1_555 1_555
P1 C20 1_555 1_555
P2 Ag1 1_555 1_555
S1 Ag1 1_555 1_555
S2 N1 1_555 1_555
N1 C2 1_555 1_555
C1 S2 1_555 1_555
C2 S1 1_555 1_555
C3 C1 1_555 1_555
C4 C3 1_555 1_555
H1 C4 1_555 1_555
C5 C1 1_555 1_555
H2 C5 1_555 1_555
C6 C5 1_555 1_555
H3 C6 1_555 1_555
C7 C4 1_555 1_555
H4 C7 1_555 1_555
C8 P2 1_555 1_555
C9 C8 1_555 1_555
H5 C9 1_555 1_555
C10 C8 1_555 1_555
H6 C10 1_555 1_555
C11 C9 1_555 1_555
H7 C11 1_555 1_555
C12 C11 1_555 1_555
H8 C12 1_555 1_555
C13 C10 1_555 1_555
H9 C13 1_555 1_555
C14 P2 1_555 1_555
C15 H10 1_555 1_555
C16 C14 1_555 1_555
H11 C16 1_555 1_555
C17 C14 1_555 1_555
H12 C17 1_555 1_555
C18 C15 1_555 1_555
H13 C18 1_555 1_555
C19 C15 1_555 1_555
H14 C19 1_555 1_555
C20 C21 1_555 1_555
C21 H15 1_555 1_555
C22 C21 1_555 1_555
H16 C22 1_555 1_555
C23 C22 1_555 1_555
H17 C23 1_555 1_555
C24 C23 1_555 1_555
H18 C24 1_555 1_555
C25 C20 1_555 1_555
H19 C25 1_555 1_555
C26 P1 1_555 1_555
C27 C26 1_555 1_555
H20 C27 1_555 1_555
C28 H21 1_555 1_555
C29 C26 1_555 1_555
H22 C29 1_555 1_555
C30 C28 1_555 1_555
H23 C30 1_555 1_555
C31 C27 1_555 1_555
H24 C31 1_555 1_555
C32 P1 1_555 1_555
H25 C32 1_555 1_555
H26 C32 1_555 1_555
O1 S2 1_555 1_555
O2 S2 1_555 1_555
C33 P2 1_555 1_555
H27 C33 1_555 1_555
H28 C33 1_555 1_555
N2 C34 1_555 1_555
C34 C35 1_555 1_555
C35 H29 1_555 1_555
H30 C35 1_555 1_555
H31 C35 1_555 1_555
Ag1A P1A 1_555 1_555
Ag1A_2 P2A 1_555 1_555
P1A C20A 1_555 1_555
P2A C8A 1_555 1_555
P2A_2 Ag1A 1_555 1_555
S1A Ag1A 1_555 1_555
S2A N1A 1_555 1_555
N1A C2A 1_555 1_555
C1A S2A 1_555 1_555
C2A S1A 1_555 1_555
C3A C1A 1_555 1_555
C4A C3A 1_555 1_555
H1A C4A 1_555 1_555
C5A C1A 1_555 1_555
H2A C5A 1_555 1_555
C6A C5A 1_555 1_555
H3A C6A 1_555 1_555
C7A C4A 1_555 1_555
H4A C7A 1_555 1_555
C8A C9A 1_555 1_555
C9A H5A 1_555 1_555
C10A C8A 1_555 1_555
H6A C10A 1_555 1_555
C11A C9A 1_555 1_555
H7A C11A 1_555 1_555
C12A C11A 1_555 1_555
H8A C12A 1_555 1_555
C13A C10A 1_555 1_555
H9A C13A 1_555 1_555
C14A P2A 1_555 1_555
C15A H10A 1_555 1_555
C16A C14A 1_555 1_555
H11A C16A 1_555 1_555
C17A C14A 1_555 1_555
H12A C17A 1_555 1_555
C18A C15A 1_555 1_555
H13A C18A 1_555 1_555
C19A C15A 1_555 1_555
H14A C19A 1_555 1_555
C20A C21A 1_555 1_555
C21A H15A 1_555 1_555
C22A C21A 1_555 1_555
H16A C22A 1_555 1_555
C23A C22A 1_555 1_555
H17A C23A 1_555 1_555
C24A C23A 1_555 1_555
H18A C24A 1_555 1_555
C25A C20A 1_555 1_555
H19A C25A 1_555 1_555
C26A P1A 1_555 1_555
C27A C26A 1_555 1_555
H20A C27A 1_555 1_555
C28A H21A 1_555 1_555
C29A C26A 1_555 1_555
H22A C29A 1_555 1_555
C30A C28A 1_555 1_555
H23A C30A 1_555 1_555
C31A C27A 1_555 1_555
H24A C31A 1_555 1_555
C32A C32 1_555 1_555
H25A C32A 1_555 1_555
H26A C32A 1_555 1_555
O1A S2A 1_555 1_555
O2A S2A 1_555 1_555
C33A C33 1_555 1_555
H27A C33A 1_555 1_555
H28A C33A 1_555 1_555
C2 C3 1_555 1_555
C6 C7 1_555 1_555
C12 C13 1_555 1_555
C16 C19 1_555 1_555
C17 C18 1_555 1_555
C24 C25 1_555 1_555
C28 C29 1_555 1_555
C30 C31 1_555 1_555
P1A C32A 1_555 1_555
P2A C33A 1_555 1_555
C2A C3A 1_555 1_555
C6A C7A 1_555 1_555
C12A C13A 1_555 1_555
C16A C19A 1_555 1_555
C17A C18A 1_555 1_555
C24A C25A 1_555 1_555
C28A C29A 1_555 1_555
C30A C31A 1_555 1_555

#END
