
#######################################################################
#
#                 Cambridge Crystallographic Data Centre
#                                CCDC 
#
#######################################################################
#
# If this CIF has been generated from an entry in the Cambridge 
# Structural Database, then it will include bibliographic, chemical, 
# crystal, experimental, refinement or atomic coordinate data resulting 
# from the CCDC's data processing and validation procedures.
#
#######################################################################

data_IVATEF
_symmetry_cell_setting           monoclinic
_symmetry_space_group_name_H-M   'P 21/c'
_symmetry_Int_Tables_number      14
_space_group_name_Hall           '-P 2ybc'
loop_
_symmetry_equiv_pos_site_id
_symmetry_equiv_pos_as_xyz
1 x,y,z
2 -x,1/2+y,1/2-z
3 -x,-y,-z
4 x,1/2-y,1/2+z
_cell_length_a                   5.9585(17)
_cell_length_b                   8.707(2)
_cell_length_c                   27.892(8)
_cell_angle_alpha                90
_cell_angle_beta                 94.487(5)
_cell_angle_gamma                90
_cell_volume                     1442.62
loop_
_atom_site_label
_atom_site_type_symbol
_atom_site_fract_x
_atom_site_fract_y
_atom_site_fract_z
Ag1 Ag 1.07927(8) -0.02885(5) 0.269153(16)
O1 O 1.0383(7) 0.0205(4) 0.18358(15)
O2 O 1.0731(6) 0.2317(4) 0.22792(12)
C1 C 1.0680(8) 0.1611(5) 0.18812(18)
C2 C 0.9407(9) 0.2498(6) 0.1047(2)
H1 H 0.8124 0.1894 0.1059
C3 C 1.2945(8) 0.3425(5) 0.14150(17)
N1 N 0.9617(8) 0.1595(5) 0.33362(16)
C4 C 1.0971(9) 0.2105(6) 0.3599(2)
C5 C 1.3231(9) 0.4266(6) 0.10002(19)
H2 H 1.4524 0.4854 0.0981
C6 C 1.1003(8) 0.2532(5) 0.14359(17)
C7 C 1.2748(9) 0.2725(5) 0.39131(18)
C8 C 1.1648(11) 0.4238(7) 0.0624(2)
H3 H 1.1858 0.4816 0.0350
C9 C 0.9725(10) 0.3360(7) 0.0643(2)
H4 H 0.8646 0.3351 0.0383
C10 C 1.4449(8) 0.3554(5) 0.37135(18)
C11 C 1.2822(10) 0.2451(6) 0.4405(2)
H5 H 1.1684 0.1886 0.4532
C12 C 1.4584(11) 0.3017(7) 0.4706(2)
H6 H 1.4615 0.2862 0.5037
N2 N 1.4433(7) 0.3823(5) 0.32223(16)
H7 H 1.4986 0.4769 0.3177
H8 H 1.2997 0.3811 0.3095
C13 C 1.4738(8) 0.3425(5) 0.18202(18)
C14 C 1.6233(9) 0.4085(7) 0.4027(2)
H9 H 1.7402 0.4633 0.3905
C15 C 1.6278(10) 0.3806(7) 0.4513(2)
H10 H 1.7486 0.4161 0.4714
O3 O 1.5322(6) 0.2149(4) 0.19992(13)
O4 O 1.5545(6) 0.4700(4) 0.19558(16)
Ag2 Ag 0.65746(8) 0.19928(5) 0.279030(15)
Ag1A Ag 0.92073(8) 0.47115(5) 0.230847(16)
Ag1A_2 Ag 1.92073(8) 0.47115(5) 0.230847(16)
O2A O 0.9269(6) -0.2683(4) 0.27208(12)
N2_2 N 0.4433(7) 0.3823(5) 0.32223(16)
H7_2 H 0.4986 0.4769 0.3177
H8_2 H 0.2997 0.3811 0.3095
O3_2 O 0.5322(6) 0.2149(4) 0.19992(13)
O4A O 1.4455(6) -0.0300(4) 0.30442(16)
O4A_2 O 0.4455(6) -0.0300(4) 0.30442(16)
Ag2_2 Ag 1.65746(8) 0.19928(5) 0.279030(15)
Ag2A Ag 1.34254(8) 0.69928(5) 0.220970(15)
loop_
_geom_bond_atom_site_label_1
_geom_bond_atom_site_label_2
_geom_bond_site_symmetry_1
_geom_bond_site_symmetry_2
Ag1 O1 1_555 1_555
O1 C1 1_555 1_555
O2 Ag1 1_555 1_555
C1 O2 1_555 1_555
C2 H1 1_555 1_555
C3 C5 1_555 1_555
N1 Ag1 1_555 1_555
C4 N1 1_555 1_555
C5 H2 1_555 1_555
C6 C1 1_555 1_555
C7 C4 1_555 1_555
C8 C5 1_555 1_555
H3 C8 1_555 1_555
C9 C2 1_555 1_555
H4 C9 1_555 1_555
C10 C7 1_555 1_555
C11 C7 1_555 1_555
H5 C11 1_555 1_555
C12 C11 1_555 1_555
H6 C12 1_555 1_555
N2 C10 1_555 1_555
H7 N2 1_555 1_555
H8 N2 1_555 1_555
C13 C3 1_555 1_555
C14 C10 1_555 1_555
H9 C14 1_555 1_555
C15 C12 1_555 1_555
H10 C15 1_555 1_555
O3 C13 1_555 1_555
O4 C13 1_555 1_555
Ag2 N1 1_555 1_555
Ag1A O2 1_555 1_555
Ag1A_2 O4 1_555 1_555
O2A Ag1 1_555 1_555
N2_2 Ag2 1_555 1_555
H7_2 N2_2 1_555 1_555
H8_2 N2_2 1_555 1_555
O3_2 Ag2 1_555 1_555
O4A Ag1 1_555 1_555
O4A_2 Ag2 1_555 1_555
Ag2_2 N2 1_555 1_555
Ag2A O4 1_555 1_555
C2 C6 1_555 1_555
C3 C6 1_555 1_555
C8 C9 1_555 1_555
C14 C15 1_555 1_555
O3 Ag2_2 1_555 1_555
O4A Ag2_2 1_555 1_555

#END
