
#######################################################################
#
#                 Cambridge Crystallographic Data Centre
#                                CCDC 
#
#######################################################################
#
# If this CIF has been generated from an entry in the Cambridge 
# Structural Database, then it will include bibliographic, chemical, 
# crystal, experimental, refinement or atomic coordinate data resulting 
# from the CCDC's data processing and validation procedures.
#
#######################################################################

data_IVAXAF
_symmetry_cell_setting           orthorhombic
_symmetry_space_group_name_H-M   'C m c a'
_symmetry_Int_Tables_number      64
_space_group_name_Hall           '-C 2ac 2'
loop_
_symmetry_equiv_pos_site_id
_symmetry_equiv_pos_as_xyz
1 x,y,z
2 -x,1/2-y,1/2+z
3 -x,1/2+y,1/2-z
4 x,-y,-z
5 1/2+x,1/2+y,z
6 1/2-x,-y,1/2+z
7 1/2-x,y,1/2-z
8 1/2+x,1/2-y,-z
9 -x,-y,-z
10 x,1/2+y,1/2-z
11 x,1/2-y,1/2+z
12 -x,y,z
13 1/2-x,1/2-y,-z
14 1/2+x,y,1/2-z
15 1/2+x,-y,1/2+z
16 1/2-x,1/2+y,z
_cell_length_a                   18.887(8)
_cell_length_b                   17.644(7)
_cell_length_c                   14.946(6)
_cell_angle_alpha                90
_cell_angle_beta                 90
_cell_angle_gamma                90
_cell_volume                     4980.64
loop_
_atom_site_label
_atom_site_type_symbol
_atom_site_fract_x
_atom_site_fract_y
_atom_site_fract_z
Cu1 Cu 0.22302(2) 0.78194(3) 0.14707(3)
Cu2 Cu 0.57140(8) 0.5000 0.5000
C1 C 0.0000 0.9989(4) -0.1976(5)
C2 C 0.2345(3) 0.9526(3) 0.1802(4)
H1 H 0.2218 0.9687 0.1231
C3 C 0.0000 0.9513(3) -0.1159(4)
C4 C 0.5000 0.6647(3) 0.3157(3)
C5 C 0.0635(2) 0.9280(2) -0.0777(3)
H2 H 0.1062 0.9432 -0.1030
C6 C 0.06360(18) 0.8826(2) -0.0024(2)
C7 C 0.36784(17) 0.7581(2) 0.1593(3)
C8 C 0.13322(19) 0.8585(2) 0.0360(3)
C9 C 0.43642(18) 0.6882(2) 0.2778(2)
H3 H 0.3938 0.6735 0.3036
C10 C 0.43616(16) 0.7333(2) 0.2018(2)
C11 C 0.0000 0.8586(3) 0.0352(3)
H4 H 0.0000 0.8269 0.0849
C12 C 0.5000 0.7552(3) 0.1638(3)
H5 H 0.5000 0.7848 0.1124
C13 C 0.5000 0.6106(4) 0.3945(4)
N1 N 0.2500 0.9985(3) 0.2500
N2 N 0.24001(19) 0.88228(19) 0.2056(2)
N3 N 0.2500 1.0792(4) 0.2500
O1 O -0.0599(3) 1.0162(3) -0.2300(3)
O2 O 0.20776(15) 0.68781(19) 0.0804(2)
H6 H 0.2454 0.6730 0.0593
H7 H 0.1885 0.6958 0.0299
O3 O 0.18946(15) 0.88330(19) 0.0014(2)
O4 O 0.5934(4) 0.4410(3) 0.3940(3)
H8 H 0.5786 0.4632 0.3496
H9 H 0.5991 0.3932 0.3962
O5 O 0.13166(14) 0.81430(17) 0.1031(2)
O7 O 0.31022(13) 0.74227(17) 0.2017(2)
O8 O 0.36816(15) 0.79204(17) 0.0866(2)
O9 O 0.5596(3) 0.5881(2) 0.4239(2)
Cu1K Cu 0.77698(2) 0.78194(3) 0.14707(3)
Cu1K_2 Cu -0.22302(2) 0.78194(3) 0.14707(3)
Cu1F Cu 0.27698(2) 0.78194(3) 0.35293(3)
Cu2H Cu 0.42860(8) 0.5000 0.5000
C2F C 0.2655(3) 0.9526(3) 0.3198(4)
H1F H 0.2782 0.9687 0.3769
C5K C -0.0635(2) 0.9280(2) -0.0777(3)
H2K H -0.1062 0.9432 -0.1030
C6K C -0.06360(18) 0.8826(2) -0.0024(2)
C7K C 0.63216(17) 0.7581(2) 0.1593(3)
C8K C -0.13322(19) 0.8585(2) 0.0360(3)
C9K C 0.56358(18) 0.6882(2) 0.2778(2)
H3K H 0.6062 0.6735 0.3036
C10K C 0.56384(16) 0.7333(2) 0.2018(2)
N2F N 0.25999(19) 0.88228(19) 0.2944(2)
N2K N 0.75999(19) 0.88228(19) 0.2056(2)
O1K O 0.0599(3) 1.0162(3) -0.2300(3)
O2K O 0.79224(15) 0.68781(19) 0.0804(2)
H6K H 0.7546 0.6730 0.0593
H7K H 0.8115 0.6958 0.0299
O3K O -0.18946(15) 0.88330(19) 0.0014(2)
O4C O 0.5934(4) 0.5590(3) 0.6060(3)
H8C H 0.5786 0.5368 0.6504
H9C H 0.5991 0.6068 0.6038
O5K O -0.13166(14) 0.81430(17) 0.1031(2)
O5K_2 O 0.86834(14) 0.81430(17) 0.1031(2)
O7K O 0.68978(13) 0.74227(17) 0.2017(2)
O8K O 0.63184(15) 0.79204(17) 0.0866(2)
O9K O 0.4404(3) 0.5881(2) 0.4239(2)
O9C O 0.5596(3) 0.4119(2) 0.5761(2)
O6 O 0.2043(13) 0.5000 0.0000
loop_
_geom_bond_atom_site_label_1
_geom_bond_atom_site_label_2
_geom_bond_site_symmetry_1
_geom_bond_site_symmetry_2
Cu1 N2 1_555 1_555
Cu2 O4 1_555 1_555
C1 C3 1_555 1_555
C2 H1 1_555 1_555
C3 C5 1_555 1_555
C4 C9 1_555 1_555
C5 H2 1_555 1_555
C6 C5 1_555 1_555
C7 C10 1_555 1_555
C8 C6 1_555 1_555
C9 H3 1_555 1_555
C10 C9 1_555 1_555
C11 C6 1_555 1_555
H4 C11 1_555 1_555
C12 C10 1_555 1_555
H5 C12 1_555 1_555
C13 C4 1_555 1_555
N1 C2 1_555 1_555
N2 C2 1_555 1_555
N3 N1 1_555 1_555
O1 C1 1_555 1_555
O2 Cu1 1_555 1_555
H6 O2 1_555 1_555
H7 O2 1_555 1_555
O3 C8 1_555 1_555
O4 H8 1_555 1_555
H9 O4 1_555 1_555
O5 Cu1 1_555 1_555
O7 Cu1 1_555 1_555
O8 C7 1_555 1_555
O9 Cu2 1_555 1_555
Cu1K N2K 1_555 1_555
Cu1K_2 O5K 1_555 1_555
Cu1F N2F 1_555 1_555
Cu2H Cu2 1_555 1_555
C2F N1 1_555 1_555
H1F C2F 1_555 1_555
C5K C3 1_555 1_555
H2K C5K 1_555 1_555
C6K C11 1_555 1_555
C7K C10K 1_555 1_555
C8K C6K 1_555 1_555
C9K C4 1_555 1_555
H3K C9K 1_555 1_555
C10K C12 1_555 1_555
N2F N2 1_555 1_555
O1K C1 1_555 1_555
O2K Cu1K 1_555 1_555
H6K O2K 1_555 1_555
H7K O2K 1_555 1_555
O3K C8K 1_555 1_555
O4C Cu2 1_555 1_555
H8C O4C 1_555 1_555
H9C O4C 1_555 1_555
O5K C8K 1_555 1_555
O5K_2 Cu1K 1_555 1_555
O7K Cu1K 1_555 1_555
O8K C7K 1_555 1_555
O9K C13 1_555 1_555
O9C Cu2 1_555 1_555
C7 O7 1_555 1_555
C8 O5 1_555 1_555
C13 O9 1_555 1_555
Cu2H O9K 1_555 1_555
C2F N2F 1_555 1_555
C5K C6K 1_555 1_555
C7K O7K 1_555 1_555
C9K C10K 1_555 1_555

#END
