
#######################################################################
#
#                 Cambridge Crystallographic Data Centre
#                                CCDC 
#
#######################################################################
#
# If this CIF has been generated from an entry in the Cambridge 
# Structural Database, then it will include bibliographic, chemical, 
# crystal, experimental, refinement or atomic coordinate data resulting 
# from the CCDC's data processing and validation procedures.
#
#######################################################################

data_IVAZUA01
_symmetry_cell_setting           orthorhombic
_symmetry_space_group_name_H-M   'P n a 21'
_symmetry_Int_Tables_number      33
_space_group_name_Hall           'P 2c -2n'
loop_
_symmetry_equiv_pos_site_id
_symmetry_equiv_pos_as_xyz
1 x,y,z
2 -x,-y,1/2+z
3 1/2+x,1/2-y,z
4 1/2-x,1/2+y,1/2+z
_cell_length_a                   8.4211(17)
_cell_length_b                   6.5750(13)
_cell_length_c                   12.913(3)
_cell_angle_alpha                90
_cell_angle_beta                 90
_cell_angle_gamma                90
_cell_volume                     714.976
loop_
_atom_site_label
_atom_site_type_symbol
_atom_site_fract_x
_atom_site_fract_y
_atom_site_fract_z
Zn1 Zn 0.33320(5) 0.94319(6) 0.24981(5)
C1 C 0.3210(5) 0.9926(8) 0.4777(4)
H1 H 0.2800 1.1195 0.4604
C2 C 0.3536(5) 0.9530(7) 0.5814(4)
C3 C 0.4141(5) 0.7592(7) 0.6061(4)
C4 C 0.4294(6) 0.6185(8) 0.5282(4)
H2 H 0.4630 0.4872 0.5435
C5 C 0.3949(6) 0.6715(8) 0.4274(4)
H3 H 0.4063 0.5741 0.3756
C6 C 0.3244(5) 1.1148(7) 0.6623(4)
C7 C 0.4675(5) 0.6970(7) 0.7141(4)
N1 N 0.3455(4) 0.8582(6) 0.4013(3)
O1 O 0.2070(4) 1.2333(5) 0.6440(3)
O2 O 0.4105(4) 1.1234(5) 0.7391(4)
O3 O 0.5970(3) 0.7679(4) 0.7469(5)
O4 O 0.3908(3) 0.5666(4) 0.7619(4)
Zn1C Zn 0.16680(5) 1.44319(6) 0.74981(5)
Zn1A Zn 0.66680(5) 1.05681(6) 0.74981(5)
Zn1C_2 Zn 0.16680(5) 0.44319(6) 0.74981(5)
O1C O 0.2930(4) 0.7333(5) 0.1440(3)
O2A O 0.5895(4) 0.8766(5) 0.2391(4)
O3A O 0.4030(3) 1.2321(4) 0.2469(5)
O4C O 0.1092(3) 1.0666(4) 0.2619(4)
loop_
_geom_bond_atom_site_label_1
_geom_bond_atom_site_label_2
_geom_bond_site_symmetry_1
_geom_bond_site_symmetry_2
Zn1 N1 1_555 1_555
C1 H1 1_555 1_555
C2 C1 1_555 1_555
C3 C2 1_555 1_555
C4 C3 1_555 1_555
H2 C4 1_555 1_555
C5 C4 1_555 1_555
H3 C5 1_555 1_555
C6 C2 1_555 1_555
C7 C3 1_555 1_555
N1 C1 1_555 1_555
O1 C6 1_555 1_555
O2 C6 1_555 1_555
O3 C7 1_555 1_555
O4 C7 1_555 1_555
Zn1C O1 1_555 1_555
Zn1A O2 1_555 1_555
Zn1C_2 O4 1_555 1_555
O1C Zn1 1_555 1_555
O2A Zn1 1_555 1_555
O3A Zn1 1_555 1_555
O4C Zn1 1_555 1_555
C5 N1 1_555 1_555
O3 Zn1A 1_555 1_555

#END
