
#######################################################################
#
#                 Cambridge Crystallographic Data Centre
#                                CCDC 
#
#######################################################################
#
# If this CIF has been generated from an entry in the Cambridge 
# Structural Database, then it will include bibliographic, chemical, 
# crystal, experimental, refinement or atomic coordinate data resulting 
# from the CCDC's data processing and validation procedures.
#
#######################################################################

data_IVAZOU
_symmetry_cell_setting           monoclinic
_symmetry_space_group_name_H-M   'C 2/c'
_symmetry_Int_Tables_number      15
_space_group_name_Hall           '-C 2yn'
loop_
_symmetry_equiv_pos_site_id
_symmetry_equiv_pos_as_xyz
1 x,y,z
2 1/2+x,1/2+y,z
3 -x,y,1/2-z
4 1/2-x,1/2+y,1/2-z
5 -x,-y,-z
6 1/2-x,1/2-y,-z
7 x,-y,1/2+z
8 1/2+x,1/2-y,1/2+z
_cell_length_a                   20.130(4)
_cell_length_b                   6.6921(13)
_cell_length_c                   13.081(3)
_cell_angle_alpha                90
_cell_angle_beta                 102.78(3)
_cell_angle_gamma                90
_cell_volume                     1718.51
loop_
_atom_site_label
_atom_site_type_symbol
_atom_site_fract_x
_atom_site_fract_y
_atom_site_fract_z
Cd1 Cd 0.080750(8) 0.57799(3) 0.041644(14)
Cd2 Cd 0.0000 0.35531(4) 0.2500
O1 O 0.01287(9) 0.3442(3) 0.08462(14)
N1 N -0.31204(12) 0.9402(3) 0.10196(18)
C1 C -0.24140(14) 0.6537(4) 0.1509(2)
H1 H -0.2382 0.5184 0.1673
O2 O 0.04443(12) 0.8860(4) 0.10851(18)
C2 C -0.25581(13) 1.0478(4) 0.1024(2)
H2 H -0.2607 1.1828 0.0857
C3 C -0.19054(13) 0.9675(4) 0.1267(2)
C4 C -0.30439(14) 0.7462(4) 0.1266(2)
H3 H -0.3430 0.6705 0.1274
C5 C -0.18316(12) 0.7637(4) 0.15051(19)
C6 C -0.11412(13) 0.6622(4) 0.1647(2)
O3 O -0.09574(11) 0.5539(4) 0.24367(17)
C7 C -0.13144(13) 1.1057(4) 0.1263(2)
O4 O -0.08063(10) 1.0920(3) 0.20143(16)
O5 O -0.13993(10) 1.2266(4) 0.05207(18)
O6 O -0.08218(10) 0.6927(3) 0.09460(16)
H4 H 0.0209(16) 0.235(6) 0.071(2)
H5 H 0.0646(18) 0.927(5) 0.165(3)
H6 H -0.001(3) 0.865(8) 0.109(4)
O1B O -0.01287(9) 0.3442(3) 0.41538(14)
H4B H -0.0209(16) 0.235(6) 0.429(2)
N1B N 0.31204(12) 0.9402(3) 0.39804(18)
C1B C 0.24140(14) 0.6537(4) 0.3491(2)
H1B H 0.2382 0.5184 0.3327
C2B C 0.25581(13) 1.0478(4) 0.3976(2)
H2B H 0.2607 1.1828 0.4143
C3B C 0.19054(13) 0.9675(4) 0.3733(2)
C4B C 0.30439(14) 0.7462(4) 0.3734(2)
H3B H 0.3430 0.6705 0.3726
C5B C 0.18316(12) 0.7637(4) 0.34949(19)
C6B C 0.11412(13) 0.6622(4) 0.3353(2)
O3B O 0.09574(11) 0.5539(4) 0.25633(17)
C7B C 0.13144(13) 1.1057(4) 0.3737(2)
O4B O 0.08063(10) 1.0920(3) 0.29857(16)
O5B O 0.13993(10) 1.2266(4) 0.44793(18)
O6B O 0.08218(10) 0.6927(3) 0.40540(16)
Cd1B Cd -0.080750(8) 0.57799(3) 0.458356(14)
O2B O -0.04443(12) 0.8860(4) 0.39149(18)
H5B H -0.0646(18) 0.927(5) 0.335(3)
H6B H 0.001(3) 0.865(8) 0.391(4)
O1D O -0.01287(9) 0.6558(3) -0.08462(14)
N1A N 0.18796(12) 0.4402(3) 0.10196(18)
O5D O 0.13993(10) 0.7734(4) -0.05207(18)
O6D O 0.08218(10) 0.3073(3) -0.09460(16)
O4_2 O -0.08063(10) 0.0920(3) 0.20143(16)
O4B_2 O 0.08063(10) 0.0920(3) 0.29857(16)
Cd1D Cd -0.080750(8) 0.42201(3) -0.041644(14)
Cd1A Cd -0.419250(8) 1.07799(3) 0.041644(14)
Cd2_2 Cd 0.0000 1.35531(4) 0.2500
Cd1D_2 Cd -0.080750(8) 1.42201(3) -0.041644(14)
Cd1F Cd 0.080750(8) 0.42201(3) 0.541644(14)
Cd1C Cd 0.419250(8) 1.07799(3) 0.458356(14)
Cd1F_2 Cd 0.080750(8) 1.42201(3) 0.541644(14)
O1F O 0.01287(9) 0.6558(3) 0.58462(14)
N1C N -0.18796(12) 0.4402(3) 0.39804(18)
O5F O -0.13993(10) 0.7734(4) 0.55207(18)
O6F O -0.08218(10) 0.3073(3) 0.59460(16)
H4D H -0.0209(16) 0.765(6) -0.071(2)
H4F H 0.0209(16) 0.765(6) 0.571(2)
loop_
_geom_bond_atom_site_label_1
_geom_bond_atom_site_label_2
_geom_bond_site_symmetry_1
_geom_bond_site_symmetry_2
Cd1 O1 1_555 1_555
Cd2 O1 1_555 1_555
O1 H4 1_555 1_555
N1 C2 1_555 1_555
C1 H1 1_555 1_555
O2 Cd1 1_555 1_555
C2 H2 1_555 1_555
C3 C2 1_555 1_555
C4 N1 1_555 1_555
H3 C4 1_555 1_555
C5 C1 1_555 1_555
C6 C5 1_555 1_555
O3 Cd2 1_555 1_555
C7 C3 1_555 1_555
O4 C7 1_555 1_555
O5 C7 1_555 1_555
O6 C6 1_555 1_555
H5 O2 1_555 1_555
H6 O2 1_555 1_555
O1B Cd2 1_555 1_555
H4B O1B 1_555 1_555
N1B C2B 1_555 1_555
C1B H1B 1_555 1_555
C2B H2B 1_555 1_555
C3B C2B 1_555 1_555
C4B N1B 1_555 1_555
H3B C4B 1_555 1_555
C5B C1B 1_555 1_555
C6B C5B 1_555 1_555
O3B Cd2 1_555 1_555
C7B C3B 1_555 1_555
O4B C7B 1_555 1_555
O5B C7B 1_555 1_555
O6B C6B 1_555 1_555
Cd1B O1B 1_555 1_555
O2B Cd1B 1_555 1_555
H5B O2B 1_555 1_555
H6B O2B 1_555 1_555
O1D Cd1 1_555 1_555
N1A Cd1 1_555 1_555
O5D Cd1 1_555 1_555
O6D Cd1 1_555 1_555
O4_2 Cd2 1_555 1_555
O4B_2 Cd2 1_555 1_555
Cd1D O1 1_555 1_555
Cd1A N1 1_555 1_555
Cd2_2 O4 1_555 1_555
Cd1D_2 O5 1_555 1_555
Cd1F O1B 1_555 1_555
Cd1C N1B 1_555 1_555
Cd1F_2 O5B 1_555 1_555
O1F Cd1B 1_555 1_555
N1C Cd1B 1_555 1_555
O5F Cd1B 1_555 1_555
O6F Cd1B 1_555 1_555
H4D O1D 1_555 1_555
H4F O1F 1_555 1_555
C1 C4 1_555 1_555
C3 C5 1_555 1_555
C6 O3 1_555 1_555
O6 Cd1D 1_555 1_555
C1B C4B 1_555 1_555
C3B C5B 1_555 1_555
C6B O3B 1_555 1_555
O4B Cd2_2 1_555 1_555
O6B Cd1F 1_555 1_555
O1D Cd1D 1_555 1_555
Cd1F O1F 1_555 1_555

#END
