
#######################################################################
#
#                 Cambridge Crystallographic Data Centre
#                                CCDC 
#
#######################################################################
#
# If this CIF has been generated from an entry in the Cambridge 
# Structural Database, then it will include bibliographic, chemical, 
# crystal, experimental, refinement or atomic coordinate data resulting 
# from the CCDC's data processing and validation procedures.
#
#######################################################################

data_IVEBOB
_symmetry_cell_setting           monoclinic
_symmetry_space_group_name_H-M   'C 2/c'
_symmetry_Int_Tables_number      15
_space_group_name_Hall           '-C 2yn'
loop_
_symmetry_equiv_pos_site_id
_symmetry_equiv_pos_as_xyz
1 x,y,z
2 -x,y,1/2-z
3 1/2+x,1/2+y,z
4 1/2-x,1/2+y,1/2-z
5 -x,-y,-z
6 x,-y,1/2+z
7 1/2-x,1/2-y,-z
8 1/2+x,1/2-y,1/2+z
_cell_length_a                   16.562(3)
_cell_length_b                   10.779(2)
_cell_length_c                   20.736(4)
_cell_angle_alpha                90
_cell_angle_beta                 94.13(3)
_cell_angle_gamma                90
_cell_volume                     3692.22
loop_
_atom_site_label
_atom_site_type_symbol
_atom_site_fract_x
_atom_site_fract_y
_atom_site_fract_z
Zn1 Zn -0.00644(4) 1.22411(6) -0.08059(3)
N1 N -0.0514(2) 1.0805(4) -0.1392(2)
C1 C -0.0520(4) 0.9622(5) -0.1194(3)
H1 H -0.0320 0.9444 -0.0773
C2 C -0.0805(4) 0.8660(5) -0.1580(3)
H2 H -0.0797 0.7855 -0.1417
C3 C -0.1103(3) 0.8884(5) -0.2206(3)
C4 C -0.1090(3) 1.0111(6) -0.2415(3)
H3 H -0.1276 1.0308 -0.2836
C5 C -0.0807(3) 1.1021(5) -0.2008(3)
H4 H -0.0814 1.1833 -0.2160
C6 C -0.1394(4) 0.7855(6) -0.2660(3)
H5 H -0.1390 0.7083 -0.2420
H6 H -0.1013 0.7768 -0.2992
C7 C -0.2233(4) 0.8047(6) -0.2987(3)
H7 H -0.2631 0.7964 -0.2669
H8 H -0.2273 0.8881 -0.3163
C8 C -0.2418(4) 0.7120(6) -0.3526(3)
H9 H -0.2364 0.6287 -0.3352
H10 H -0.2975 0.7227 -0.3696
C9 C -0.1871(3) 0.7260(5) -0.4068(3)
C10 C -0.1387(4) 0.6319(6) -0.4267(3)
H11 H -0.1404 0.5546 -0.4069
C11 C -0.0882(4) 0.6500(5) -0.4751(3)
H12 H -0.0554 0.5848 -0.4865
N2 N -0.0841(3) 0.7582(4) -0.5067(2)
C12 C -0.1322(3) 0.8500(5) -0.4885(3)
H13 H -0.1309 0.9257 -0.5099
C13 C -0.1832(3) 0.8370(6) -0.4396(3)
H14 H -0.2153 0.9033 -0.4285
O1 O 0.0938(2) 1.1430(4) -0.0460(2)
O2 O 0.1057(2) 1.3334(4) -0.0123(3)
C14 C 0.1346(3) 1.2291(5) -0.0183(3)
C15 C 0.2205(3) 1.2005(5) 0.0072(4)
H15 H 0.2216 1.1890 0.0537
H16 H 0.2372 1.1231 -0.0116
O3 O -0.0387(3) 1.3730(4) -0.12875(19)
O4 O 0.0647(3) 1.3260(5) -0.1838(2)
C16 C 0.0068(4) 1.3917(6) -0.1743(3)
C17 C -0.0185(5) 1.5002(6) -0.2181(3)
H17 H -0.0769 1.4992 -0.2259
H18 H -0.0038 1.5768 -0.1957
Zn1E Zn -0.00644(4) 0.77589(6) 0.41941(3)
Zn1E_2 Zn -0.00644(4) 0.77589(6) -0.58059(3)
Zn1F Zn 0.50644(4) 1.27589(6) 0.08059(3)
Zn1A Zn 0.00644(4) 1.22411(6) -0.41941(3)
N1E N -0.0514(2) 0.9195(4) 0.3608(2)
C1E C -0.0520(4) 1.0378(5) 0.3806(3)
H1E H -0.0320 1.0556 0.4227
C2E C -0.0805(4) 1.1340(5) 0.3420(3)
H2E H -0.0797 1.2145 0.3583
C3E C -0.1103(3) 1.1116(5) 0.2794(3)
C4E C -0.1090(3) 0.9889(6) 0.2585(3)
H3E H -0.1276 0.9692 0.2164
C5E C -0.0807(3) 0.8979(5) 0.2992(3)
H4E H -0.0814 0.8167 0.2840
C6E C -0.1394(4) 1.2145(6) 0.2340(3)
H5E H -0.1390 1.2917 0.2580
H6E H -0.1013 1.2232 0.2008
C7E C -0.2233(4) 1.1953(6) 0.2013(3)
H7E H -0.2631 1.2036 0.2331
H8E H -0.2273 1.1119 0.1837
C8E C -0.2418(4) 1.2880(6) 0.1474(3)
H9E H -0.2364 1.3713 0.1648
H10E H -0.2975 1.2773 0.1304
C9E C -0.1871(3) 1.2740(5) 0.0932(3)
C10E C -0.1387(4) 1.3681(6) 0.0733(3)
H11E H -0.1404 1.4454 0.0931
C11E C -0.0882(4) 1.3500(5) 0.0249(3)
H12E H -0.0554 1.4152 0.0135
N2E N -0.0841(3) 1.2418(4) -0.0067(2)
N2_2 N -0.0841(3) 0.7582(4) 0.4933(2)
C12E C -0.1322(3) 1.1500(5) 0.0115(3)
H13E H -0.1309 1.0743 -0.0099
C13E C -0.1832(3) 1.1630(6) 0.0604(3)
H14E H -0.2153 1.0967 0.0715
O1F O 0.4062(2) 1.3570(4) 0.0460(2)
O1E O 0.0938(2) 0.8570(4) 0.4540(2)
O2F O 0.3943(2) 1.1666(4) 0.0123(3)
C14F C 0.3654(3) 1.2709(5) 0.0183(3)
C15F C 0.2795(3) 1.2995(5) -0.0072(4)
H15F H 0.2784 1.3110 -0.0537
H16F H 0.2628 1.3769 0.0116
O3A O 0.0387(3) 1.3730(4) -0.37125(19)
O3E O -0.0387(3) 0.6270(4) 0.37125(19)
O4A O -0.0647(3) 1.3260(5) -0.3162(2)
C16A C -0.0068(4) 1.3917(6) -0.3257(3)
C17A C 0.0185(5) 1.5002(6) -0.2819(3)
H17A H 0.0769 1.4992 -0.2741
H18A H 0.0038 1.5768 -0.3043
O5 O -0.1609(3) 1.5461(6) -0.1057(3)
H19 H -0.1558 1.5819 -0.0712
H20 H -0.1175 1.5158 -0.1140
O6 O -0.2748(11) 1.700(3) -0.1666(9)
H21 H -0.2641 1.6501 -0.1400
H22 H -0.3210 1.7277 -0.1692
loop_
_geom_bond_atom_site_label_1
_geom_bond_atom_site_label_2
_geom_bond_site_symmetry_1
_geom_bond_site_symmetry_2
Zn1 N1 1_555 1_555
N1 C1 1_555 1_555
C1 H1 1_555 1_555
C2 C1 1_555 1_555
H2 C2 1_555 1_555
C3 C2 1_555 1_555
C4 C3 1_555 1_555
H3 C4 1_555 1_555
C5 N1 1_555 1_555
H4 C5 1_555 1_555
C6 C3 1_555 1_555
H5 C6 1_555 1_555
H6 C6 1_555 1_555
C7 C6 1_555 1_555
H7 C7 1_555 1_555
H8 C7 1_555 1_555
C8 C7 1_555 1_555
H9 C8 1_555 1_555
H10 C8 1_555 1_555
C9 C8 1_555 1_555
C10 C9 1_555 1_555
H11 C10 1_555 1_555
C11 C10 1_555 1_555
H12 C11 1_555 1_555
N2 C11 1_555 1_555
C12 N2 1_555 1_555
H13 C12 1_555 1_555
C13 C9 1_555 1_555
H14 C13 1_555 1_555
O1 Zn1 1_555 1_555
O2 C14 1_555 1_555
C14 O1 1_555 1_555
C15 C14 1_555 1_555
H15 C15 1_555 1_555
H16 C15 1_555 1_555
O3 Zn1 1_555 1_555
O4 C16 1_555 1_555
C16 O3 1_555 1_555
C17 C16 1_555 1_555
H17 C17 1_555 1_555
H18 C17 1_555 1_555
O5 H19 1_555 1_555
H20 O5 1_555 1_555
O6 H21 1_555 1_555
H22 O6 1_555 1_555
Zn1E N1E 1_555 1_555
Zn1E_2 N2 1_555 1_555
Zn1F O1F 1_555 1_555
Zn1A O3A 1_555 1_555
N1E C1E 1_555 1_555
C1E H1E 1_555 1_555
C2E C1E 1_555 1_555
H2E C2E 1_555 1_555
C3E C2E 1_555 1_555
C4E C3E 1_555 1_555
H3E C4E 1_555 1_555
C5E N1E 1_555 1_555
H4E C5E 1_555 1_555
C6E C3E 1_555 1_555
H5E C6E 1_555 1_555
H6E C6E 1_555 1_555
C7E C6E 1_555 1_555
H7E C7E 1_555 1_555
H8E C7E 1_555 1_555
C8E C7E 1_555 1_555
H9E C8E 1_555 1_555
H10E C8E 1_555 1_555
C9E C8E 1_555 1_555
C10E C9E 1_555 1_555
H11E C10E 1_555 1_555
C11E C10E 1_555 1_555
H12E C11E 1_555 1_555
N2E Zn1 1_555 1_555
N2_2 Zn1E 1_555 1_555
C12E N2E 1_555 1_555
H13E C12E 1_555 1_555
C13E C9E 1_555 1_555
H14E C13E 1_555 1_555
O1F C14F 1_555 1_555
O1E Zn1E 1_555 1_555
O2F C14F 1_555 1_555
C14F C15F 1_555 1_555
C15F C15 1_555 1_555
H15F C15F 1_555 1_555
H16F C15F 1_555 1_555
O3A C16A 1_555 1_555
O3E Zn1E 1_555 1_555
O4A C16A 1_555 1_555
C16A C17A 1_555 1_555
C17A C17 1_555 1_555
H17A C17A 1_555 1_555
H18A C17A 1_555 1_555
C4 C5 1_555 1_555
C12 C13 1_555 1_555
C4E C5E 1_555 1_555
C11E N2E 1_555 1_555
C12E C13E 1_555 1_555

#END
