
#######################################################################
#
#                 Cambridge Crystallographic Data Centre
#                                CCDC 
#
#######################################################################
#
# If this CIF has been generated from an entry in the Cambridge 
# Structural Database, then it will include bibliographic, chemical, 
# crystal, experimental, refinement or atomic coordinate data resulting 
# from the CCDC's data processing and validation procedures.
#
#######################################################################

data_IVEBUH
_symmetry_cell_setting           triclinic
_symmetry_space_group_name_H-M   'P -1'
_symmetry_Int_Tables_number      2
_space_group_name_Hall           '-P 1'
loop_
_symmetry_equiv_pos_site_id
_symmetry_equiv_pos_as_xyz
1 x,y,z
2 -x,-y,-z
_cell_length_a                   9.2531(19)
_cell_length_b                   9.4560(19)
_cell_length_c                   12.228(2)
_cell_angle_alpha                68.17(3)
_cell_angle_beta                 74.76(3)
_cell_angle_gamma                89.72(3)
_cell_volume                     953.103
loop_
_atom_site_label
_atom_site_type_symbol
_atom_site_fract_x
_atom_site_fract_y
_atom_site_fract_z
Cd1 Cd 0.5000 0.5000 0.5000
O1 O 0.25140(19) 0.3991(2) 0.59006(16)
H1 H 0.2120 0.3909 0.5470
H2 H 0.1941 0.3937 0.6481
N1 N 0.5494(2) 0.2908(2) 0.43880(18)
C1 C 0.4390(3) 0.2218(3) 0.4178(3)
H3 H 0.3402 0.2394 0.4479
C2 C 0.4640(3) 0.1265(3) 0.3543(3)
H4 H 0.3834 0.0816 0.3423
C3 C 0.6088(3) 0.0977(3) 0.3085(2)
C4 C 0.7226(3) 0.1651(3) 0.3323(2)
H5 H 0.8219 0.1470 0.3050
C5 C 0.6886(3) 0.2597(3) 0.3969(2)
H6 H 0.7672 0.3038 0.4117
C6 C 0.6412(4) -0.0035(3) 0.2355(2)
H7 H 0.5892 -0.1049 0.2861
H8 H 0.7484 -0.0133 0.2144
C7 C 0.5917(3) 0.0601(3) 0.1172(2)
H9 H 0.6094 -0.0115 0.0764
H10 H 0.4845 0.0698 0.1381
C8 C 0.6759(3) 0.2152(3) 0.0298(2)
H11 H 0.6538 0.2883 0.0688
H12 H 0.7834 0.2068 0.0122
C9 C 0.6330(3) 0.2732(3) -0.0890(2)
C10 C 0.5036(3) 0.3438(4) -0.0979(2)
H13 H 0.4405 0.3562 -0.0299
C11 C 0.4676(3) 0.3961(4) -0.2085(2)
H14 H 0.3794 0.4428 -0.2122
N2 N 0.5533(2) 0.3828(2) -0.30948(17)
C12 C 0.6758(3) 0.3118(3) -0.2999(2)
H15 H 0.7360 0.2985 -0.3687
C13 C 0.7188(3) 0.2562(3) -0.1925(2)
H16 H 0.8061 0.2073 -0.1906
Cd1_2 Cd 0.5000 0.5000 -0.5000
O1A O 0.74860(19) 0.6009(2) 0.40994(16)
H1A H 0.7880 0.6091 0.4530
H2A H 0.8059 0.6063 0.3519
N1A N 0.4506(2) 0.7092(2) 0.56120(18)
N1A_2 N 0.4506(2) 0.7092(2) -0.43880(18)
C1A C 0.5610(3) 0.7782(3) -0.4178(3)
H3A H 0.6598 0.7606 -0.4479
C2A C 0.5360(3) 0.8735(3) -0.3543(3)
H4A H 0.6166 0.9184 -0.3423
C3A C 0.3912(3) 0.9023(3) -0.3085(2)
C4A C 0.2774(3) 0.8349(3) -0.3323(2)
H5A H 0.1781 0.8530 -0.3050
C5A C 0.3114(3) 0.7403(3) -0.3969(2)
H6A H 0.2328 0.6962 -0.4117
C6A C 0.3588(4) 1.0035(3) -0.2355(2)
H7A H 0.4108 1.1049 -0.2861
H8A H 0.2516 1.0133 -0.2144
C7A C 0.4083(3) 0.9399(3) -0.1172(2)
H9A H 0.3906 1.0115 -0.0764
H10A H 0.5155 0.9302 -0.1381
C8A C 0.3241(3) 0.7848(3) -0.0298(2)
H11A H 0.3462 0.7117 -0.0688
H12A H 0.2166 0.7932 -0.0122
C9A C 0.3670(3) 0.7268(3) 0.0890(2)
C10A C 0.4964(3) 0.6562(4) 0.0979(2)
H13A H 0.5595 0.6438 0.0299
C11A C 0.5324(3) 0.6039(4) 0.2085(2)
H14A H 0.6206 0.5572 0.2122
N2_2 N 0.5533(2) 0.3828(2) 0.69052(17)
N2A N 0.4467(2) 0.6172(2) 0.30948(17)
C12A C 0.3242(3) 0.6882(3) 0.2999(2)
H15A H 0.2640 0.7015 0.3687
C13A C 0.2812(3) 0.7438(3) 0.1925(2)
H16A H 0.1939 0.7927 0.1906
O2 O 1.0570(3) 0.4112(3) 0.23440(19)
O3 O 0.9213(3) 0.6090(3) 0.19332(18)
C14 C 0.9924(3) 0.5074(3) 0.1686(2)
C15 C 0.9990(3) 0.5018(3) 0.0480(2)
O2A O 0.9430(3) 0.5888(3) -0.23440(19)
O3A O 1.0787(3) 0.3910(3) -0.19332(18)
C14A C 1.0076(3) 0.4926(3) -0.1686(2)
C15A C 1.0010(3) 0.4982(3) -0.0480(2)
O4 O 0.8986(4) 0.8828(3) 0.0080(3)
H17 H 0.8980 0.7993 0.0588
H18 H 0.8885 0.8719 -0.0501
O5 O 0.0498(2) 0.3777(3) 0.46675(18)
H19 H 0.0432 0.3974 0.4006
H20 H 0.0491 0.2905 0.4985
O6 O -0.045(6) 0.058(6) 0.577(6)
O7 O 0.8315(4) 0.8462(3) -0.1914(3)
H21 H 0.8484 0.9086 -0.2540
H22 H 0.8375 0.7628 -0.1834
O8? O -0.087(6) 0.080(6) 0.580(6)
loop_
_geom_bond_atom_site_label_1
_geom_bond_atom_site_label_2
_geom_bond_site_symmetry_1
_geom_bond_site_symmetry_2
Cd1 O1 1_555 1_555
O1 H1 1_555 1_555
H2 O1 1_555 1_555
N1 Cd1 1_555 1_555
C1 N1 1_555 1_555
H3 C1 1_555 1_555
C2 C1 1_555 1_555
H4 C2 1_555 1_555
C3 C2 1_555 1_555
C4 C3 1_555 1_555
H5 C4 1_555 1_555
C5 N1 1_555 1_555
H6 C5 1_555 1_555
C6 C3 1_555 1_555
H7 C6 1_555 1_555
H8 C6 1_555 1_555
C7 C6 1_555 1_555
H9 C7 1_555 1_555
H10 C7 1_555 1_555
C8 C7 1_555 1_555
H11 C8 1_555 1_555
H12 C8 1_555 1_555
C9 C8 1_555 1_555
C10 C9 1_555 1_555
H13 C10 1_555 1_555
C11 C10 1_555 1_555
H14 C11 1_555 1_555
N2 C11 1_555 1_555
C12 N2 1_555 1_555
H15 C12 1_555 1_555
C13 C9 1_555 1_555
H16 C13 1_555 1_555
O2 C14 1_555 1_555
O3 C14 1_555 1_555
C14 C15 1_555 1_555
C15 C15A 1_555 1_555
O4 H17 1_555 1_555
H18 O4 1_555 1_555
O5 H19 1_555 1_555
H20 O5 1_555 1_555
O7 H21 1_555 1_555
H22 O7 1_555 1_555
Cd1_2 N2 1_555 1_555
O1A Cd1 1_555 1_555
H1A O1A 1_555 1_555
H2A O1A 1_555 1_555
N1A Cd1 1_555 1_555
N1A_2 Cd1_2 1_555 1_555
C1A N1A_2 1_555 1_555
H3A C1A 1_555 1_555
C2A C1A 1_555 1_555
H4A C2A 1_555 1_555
C3A C2A 1_555 1_555
C4A C3A 1_555 1_555
H5A C4A 1_555 1_555
C5A N1A_2 1_555 1_555
H6A C5A 1_555 1_555
C6A C3A 1_555 1_555
H7A C6A 1_555 1_555
H8A C6A 1_555 1_555
C7A C6A 1_555 1_555
H9A C7A 1_555 1_555
H10A C7A 1_555 1_555
C8A C7A 1_555 1_555
H11A C8A 1_555 1_555
H12A C8A 1_555 1_555
C9A C8A 1_555 1_555
C10A C9A 1_555 1_555
H13A C10A 1_555 1_555
C11A C10A 1_555 1_555
H14A C11A 1_555 1_555
N2_2 Cd1 1_555 1_555
N2A Cd1 1_555 1_555
C12A N2A 1_555 1_555
H15A C12A 1_555 1_555
C13A C9A 1_555 1_555
H16A C13A 1_555 1_555
O2A C14A 1_555 1_555
O3A C14A 1_555 1_555
C14A C15A 1_555 1_555
C4 C5 1_555 1_555
C12 C13 1_555 1_555
C4A C5A 1_555 1_555
C11A N2A 1_555 1_555
C12A C13A 1_555 1_555

#END
