
#######################################################################
#
#                 Cambridge Crystallographic Data Centre
#                                CCDC 
#
#######################################################################
#
# If this CIF has been generated from an entry in the Cambridge 
# Structural Database, then it will include bibliographic, chemical, 
# crystal, experimental, refinement or atomic coordinate data resulting 
# from the CCDC's data processing and validation procedures.
#
#######################################################################

data_IVECAO
_symmetry_cell_setting           orthorhombic
_symmetry_space_group_name_H-M   'P n n a'
_symmetry_Int_Tables_number      52
_space_group_name_Hall           '-P 2a 2bc'
loop_
_symmetry_equiv_pos_site_id
_symmetry_equiv_pos_as_xyz
1 x,y,z
2 1/2-x,-y,z
3 x,1/2-y,1/2-z
4 1/2-x,1/2+y,1/2-z
5 -x,-y,-z
6 1/2+x,y,-z
7 -x,1/2+y,1/2+z
8 1/2+x,1/2-y,1/2+z
_cell_length_a                   16.4640(3)
_cell_length_b                   17.5064(3)
_cell_length_c                   10.3548(2)
_cell_angle_alpha                90
_cell_angle_beta                 90
_cell_angle_gamma                90
_cell_volume                     2984.52
loop_
_atom_site_label
_atom_site_type_symbol
_atom_site_fract_x
_atom_site_fract_y
_atom_site_fract_z
Cd1 Cd 0.5000 0.5000 0.5000
N1 N 0.59681(13) 0.55002(13) 0.3596(2)
C1 C 0.6678(2) 0.5744(3) 0.3960(3)
H1 H 0.6836 0.5672 0.4814
C2 C 0.7212(2) 0.6109(3) 0.3115(4)
H2 H 0.7704 0.6296 0.3425
C3 C 0.7025(2) 0.61949(17) 0.1861(3)
C4 C 0.6294(2) 0.5929(2) 0.1489(3)
H3 H 0.6131 0.5975 0.0633
C5 C 0.57941(17) 0.55916(19) 0.2371(3)
H4 H 0.5294 0.5414 0.2082
C6 C 0.7613(2) 0.6551(2) 0.0897(4)
H5 H 0.7337 0.6614 0.0076
H6 H 0.7766 0.7055 0.1203
C7 C 0.8342(2) 0.61057(18) 0.0694(4)
H7 H 0.8179 0.5588 0.0487
H8 H 0.8635 0.6086 0.1506
C8 C 0.8926(2) 0.63695(16) -0.0336(3)
H9 H 0.9417 0.6064 -0.0291
H10 H 0.8683 0.6288 -0.1179
C9 C 0.91454(18) 0.71965(16) -0.0196(2)
C10 C 0.97772(19) 0.74327(19) 0.0563(4)
H11 H 1.0095 0.7074 0.0990
C11 C 0.99445(16) 0.81944(18) 0.0697(3)
H12 H 1.0373 0.8335 0.1232
N2 N 0.95278(13) 0.87447(12) 0.01064(18)
C12 C 0.89056(16) 0.85141(16) -0.0624(3)
H13 H 0.8594 0.8881 -0.1043
C13 C 0.87069(17) 0.77601(17) -0.0782(3)
H14 H 0.8265 0.7630 -0.1297
O1 O 0.58804(11) 0.51790(10) 0.67055(19)
O2 O 0.62160(11) 0.60576(13) 0.81427(19)
C14 C 0.63516(14) 0.54935(15) 0.7468(2)
C15 C 0.71731(13) 0.51458(13) 0.7549(2)
Cd1C Cd 1.0000 1.0000 0.0000
Cd1A Cd 1.0000 0.5000 0.5000
Cd1C_2 Cd 0.0000 1.0000 1.0000
N1G N 0.09681(13) 0.94998(13) 0.8596(2)
N1D N 0.40319(13) 0.44998(13) 0.6404(2)
C1G C 0.1678(2) 0.9256(3) 0.8960(3)
H1G H 0.1836 0.9328 0.9814
C2G C 0.2212(2) 0.8891(3) 0.8115(4)
H2G H 0.2704 0.8704 0.8425
C3G C 0.2025(2) 0.88051(17) 0.6861(3)
C4G C 0.1294(2) 0.9071(2) 0.6489(3)
H3G H 0.1131 0.9025 0.5633
C5G C 0.07941(17) 0.94084(19) 0.7371(3)
H4G H 0.0294 0.9586 0.7082
C6G C 0.2613(2) 0.8449(2) 0.5897(4)
H5G H 0.2337 0.8386 0.5076
H6G H 0.2766 0.7945 0.6203
C7G C 0.3342(2) 0.88943(18) 0.5694(4)
H7G H 0.3179 0.9412 0.5487
H8G H 0.3635 0.8914 0.6506
C8G C 0.3926(2) 0.86305(16) 0.4664(3)
H9G H 0.4417 0.8936 0.4709
H10G H 0.3683 0.8712 0.3821
C9G C 0.41454(18) 0.78035(16) 0.4804(2)
C10G C 0.47772(19) 0.75673(19) 0.5563(4)
H11G H 0.5095 0.7926 0.5990
C11G C 0.49445(16) 0.68056(18) 0.5697(3)
H12G H 0.5373 0.6665 0.6232
N2G N 0.45278(13) 0.62553(12) 0.51064(18)
N2C N 0.54722(13) 0.37447(12) 0.48936(18)
C12G C 0.39056(16) 0.64859(16) 0.4376(3)
H13G H 0.3594 0.6119 0.3957
C13G C 0.37069(17) 0.72399(17) 0.4218(3)
H14G H 0.3265 0.7370 0.3703
O1A O 0.91196(11) 0.48210(10) 0.67055(19)
O1D O 0.41196(11) 0.48210(10) 0.32945(19)
O2A O 0.87840(11) 0.39424(13) 0.81427(19)
C14A C 0.86484(14) 0.45065(15) 0.7468(2)
C15A C 0.78269(13) 0.48542(13) 0.7549(2)
O3 O 0.6960(2) 0.7500 0.7500
H15 H 0.6669 0.7299 0.8111
H15B H 0.6669 0.7701 0.6889
H16? H 0.6706 0.7082 0.7676
loop_
_geom_bond_atom_site_label_1
_geom_bond_atom_site_label_2
_geom_bond_site_symmetry_1
_geom_bond_site_symmetry_2
Cd1 N1 1_555 1_555
N1 C1 1_555 1_555
C1 H1 1_555 1_555
C2 C1 1_555 1_555
H2 C2 1_555 1_555
C3 C2 1_555 1_555
C4 C3 1_555 1_555
H3 C4 1_555 1_555
C5 N1 1_555 1_555
H4 C5 1_555 1_555
C6 C3 1_555 1_555
H5 C6 1_555 1_555
H6 C6 1_555 1_555
C7 C6 1_555 1_555
H7 C7 1_555 1_555
H8 C7 1_555 1_555
C8 C7 1_555 1_555
H9 C8 1_555 1_555
H10 C8 1_555 1_555
C9 C8 1_555 1_555
C10 C9 1_555 1_555
H11 C10 1_555 1_555
C11 C10 1_555 1_555
H12 C11 1_555 1_555
N2 C11 1_555 1_555
C12 N2 1_555 1_555
H13 C12 1_555 1_555
C13 C9 1_555 1_555
H14 C13 1_555 1_555
O1 Cd1 1_555 1_555
O2 C14 1_555 1_555
C14 O1 1_555 1_555
C15 C14 1_555 1_555
O3 H15 1_555 1_555
Cd1C N2 1_555 1_555
Cd1A O1A 1_555 1_555
Cd1C_2 N1G 1_555 1_555
N1G C1G 1_555 1_555
N1D Cd1 1_555 1_555
C1G H1G 1_555 1_555
C2G C1G 1_555 1_555
H2G C2G 1_555 1_555
C3G C2G 1_555 1_555
C4G C3G 1_555 1_555
H3G C4G 1_555 1_555
C5G N1G 1_555 1_555
H4G C5G 1_555 1_555
C6G C3G 1_555 1_555
H5G C6G 1_555 1_555
H6G C6G 1_555 1_555
C7G C6G 1_555 1_555
H7G C7G 1_555 1_555
H8G C7G 1_555 1_555
C8G C7G 1_555 1_555
H9G C8G 1_555 1_555
H10G C8G 1_555 1_555
C9G C8G 1_555 1_555
C10G C9G 1_555 1_555
H11G C10G 1_555 1_555
C11G C10G 1_555 1_555
H12G C11G 1_555 1_555
N2G Cd1 1_555 1_555
N2C Cd1 1_555 1_555
C12G N2G 1_555 1_555
H13G C12G 1_555 1_555
C13G C9G 1_555 1_555
H14G C13G 1_555 1_555
O1A C14A 1_555 1_555
O1D Cd1 1_555 1_555
O2A C14A 1_555 1_555
C14A C15A 1_555 1_555
C15A C15 1_555 1_555
H15B O3 1_555 1_555
C4 C5 1_555 1_555
C12 C13 1_555 1_555
C4G C5G 1_555 1_555
C11G N2G 1_555 1_555
C12G C13G 1_555 1_555

#END
