
#######################################################################
#
#                 Cambridge Crystallographic Data Centre
#                                CCDC 
#
#######################################################################
#
# If this CIF has been generated from an entry in the Cambridge 
# Structural Database, then it will include bibliographic, chemical, 
# crystal, experimental, refinement or atomic coordinate data resulting 
# from the CCDC's data processing and validation procedures.
#
#######################################################################

data_IVEDAP
_symmetry_cell_setting           triclinic
_symmetry_space_group_name_H-M   'P -1'
_symmetry_Int_Tables_number      2
_space_group_name_Hall           '-P 1'
loop_
_symmetry_equiv_pos_site_id
_symmetry_equiv_pos_as_xyz
1 x,y,z
2 -x,-y,-z
_cell_length_a                   8.941(3)
_cell_length_b                   11.371(4)
_cell_length_c                   12.541(5)
_cell_angle_alpha                109.884(7)
_cell_angle_beta                 110.124(7)
_cell_angle_gamma                95.224(4)
_cell_volume                     1094.1
loop_
_atom_site_label
_atom_site_type_symbol
_atom_site_fract_x
_atom_site_fract_y
_atom_site_fract_z
Cd1 Cd 0.10886(9) 0.37476(8) 0.52848(7)
O1 O 0.3725(9) 0.5184(9) 0.6545(7)
O2 O 0.3471(10) 0.3356(9) 0.5057(7)
O3 O 0.8672(8) 0.3336(7) 1.0575(6)
O4 O 0.9971(8) 0.4551(7) 1.3852(6)
O5 O 0.9986(10) 0.2692(9) 1.2504(7)
N1 N 0.1718(10) 0.2769(9) 0.6741(8)
N2 N -0.1169(11) 0.2165(8) 0.4748(9)
C1 C 0.6899(11) 0.4306(14) 0.7535(9)
C2 C 0.7144(13) 0.3115(13) 0.7415(9)
H1 H 0.6937 0.2503 0.6634
C3 C 0.7702(11) 0.2790(11) 0.8438(9)
H2 H 0.7818 0.1960 0.8339
C4 C 0.8086(11) 0.3739(11) 0.9620(8)
C5 C 0.7894(13) 0.4955(10) 0.9753(9)
H3 H 0.8149 0.5590 1.0532
C6 C 0.7311(12) 0.5218(12) 0.8705(10)
H4 H 0.7194 0.6047 0.8796
C7 C 0.6212(12) 0.4633(13) 0.6408(9)
H5 H 0.6500 0.4103 0.5753
H6 H 0.6675 0.5528 0.6622
C8 C 0.4357(13) 0.4392(16) 0.5968(12)
C9 C 0.8942(12) 0.4244(11) 1.1757(8)
H7 H 0.7912 0.4445 1.1760
H8 H 0.9683 0.5032 1.1939
C10 C 0.9670(13) 0.3738(13) 1.2753(11)
C11 C 0.3106(14) 0.3065(12) 0.7726(10)
H9 H 0.3930 0.3755 0.7912
C12 C 0.3381(19) 0.2421(16) 0.8467(13)
H10 H 0.4374 0.2669 0.9147
C13 C 0.219(2) 0.1392(16) 0.8220(14)
H11 H 0.2384 0.0934 0.8724
C14 C 0.066(2) 0.1031(14) 0.7185(15)
C15 C 0.0511(15) 0.1794(11) 0.6492(10)
C16 C -0.1002(13) 0.1436(10) 0.5410(11)
C17 C -0.226(2) 0.0384(11) 0.5134(16)
C18 C -0.369(2) 0.0130(14) 0.4117(17)
H12 H -0.4527 -0.0575 0.3877
C19 C -0.3918(16) 0.0890(15) 0.3447(14)
H13 H -0.4909 0.0749 0.2796
C20 C -0.2562(16) 0.1899(13) 0.3806(13)
H14 H -0.2668 0.2400 0.3345
C21 C -0.071(3) -0.0035(16) 0.6820(19)
H15 H -0.0636 -0.0525 0.7290
C22 C -0.204(3) -0.0295(19) 0.583(2)
H16 H -0.2886 -0.0990 0.5608
Cd1A Cd 0.89114(9) 0.62524(8) 1.47152(7)
Cd1_2 Cd 1.10886(9) 0.37476(8) 1.52848(7)
O4A O 0.0029(8) 0.5449(7) 0.6148(6)
O4_2 O -0.0029(8) 0.4551(7) 0.3852(6)
O6 O 0.507(2) 0.7567(16) 0.8558(13)
O7 O 0.872(4) 0.8767(17) 0.916(2)
O8 O 0.343(3) 0.9276(18) 0.9844(18)
loop_
_geom_bond_atom_site_label_1
_geom_bond_atom_site_label_2
_geom_bond_site_symmetry_1
_geom_bond_site_symmetry_2
Cd1 O1 1_555 1_555
O1 C8 1_555 1_555
O2 Cd1 1_555 1_555
O3 C4 1_555 1_555
O4 C10 1_555 1_555
O5 C10 1_555 1_555
N1 Cd1 1_555 1_555
N2 Cd1 1_555 1_555
C1 C2 1_555 1_555
C2 H1 1_555 1_555
C3 C2 1_555 1_555
H2 C3 1_555 1_555
C4 C3 1_555 1_555
C5 C4 1_555 1_555
H3 C5 1_555 1_555
C6 C1 1_555 1_555
H4 C6 1_555 1_555
C7 C1 1_555 1_555
H5 C7 1_555 1_555
H6 C7 1_555 1_555
C8 O2 1_555 1_555
C9 O3 1_555 1_555
H7 C9 1_555 1_555
H8 C9 1_555 1_555
C10 C9 1_555 1_555
C11 N1 1_555 1_555
H9 C11 1_555 1_555
C12 C11 1_555 1_555
H10 C12 1_555 1_555
C13 C12 1_555 1_555
H11 C13 1_555 1_555
C14 C13 1_555 1_555
C15 N1 1_555 1_555
C16 N2 1_555 1_555
C17 C16 1_555 1_555
C18 C17 1_555 1_555
H12 C18 1_555 1_555
C19 C18 1_555 1_555
H13 C19 1_555 1_555
C20 N2 1_555 1_555
H14 C20 1_555 1_555
C21 C14 1_555 1_555
H15 C21 1_555 1_555
C22 C17 1_555 1_555
H16 C22 1_555 1_555
Cd1A O4 1_555 1_555
Cd1_2 O4 1_555 1_555
O4A Cd1 1_555 1_555
O4_2 Cd1 1_555 1_555
C5 C6 1_555 1_555
C7 C8 1_555 1_555
C14 C15 1_555 1_555
C15 C16 1_555 1_555
C19 C20 1_555 1_555
C21 C22 1_555 1_555

#END
