
#######################################################################
#
#                 Cambridge Crystallographic Data Centre
#                                CCDC 
#
#######################################################################
#
# If this CIF has been generated from an entry in the Cambridge 
# Structural Database, then it will include bibliographic, chemical, 
# crystal, experimental, refinement or atomic coordinate data resulting 
# from the CCDC's data processing and validation procedures.
#
#######################################################################

data_IVEDET01
_symmetry_cell_setting           monoclinic
_symmetry_space_group_name_H-M   'P 21/c'
_symmetry_Int_Tables_number      14
_space_group_name_Hall           '-P 2ybc'
loop_
_symmetry_equiv_pos_site_id
_symmetry_equiv_pos_as_xyz
1 x,y,z
2 -x,1/2+y,1/2-z
3 -x,-y,-z
4 x,1/2-y,1/2+z
_cell_length_a                   10.3887(2)
_cell_length_b                   7.10710(10)
_cell_length_c                   14.7212(2)
_cell_angle_alpha                90
_cell_angle_beta                 120.6940(10)
_cell_angle_gamma                90
_cell_volume                     934.647
loop_
_atom_site_label
_atom_site_type_symbol
_atom_site_fract_x
_atom_site_fract_y
_atom_site_fract_z
Cd1 Cd 1.057715(15) -0.987786(19) 0.397593(10)
O1 O 0.83540(15) -0.8995(2) 0.26659(10)
O2 O 0.94449(15) -0.6980(2) 0.21307(11)
O3 O 0.70042(14) -0.66642(19) 0.02303(9)
O4 O 0.19796(17) -0.7199(2) -0.51895(12)
O5 O 0.05326(19) -0.8209(2) -0.46414(12)
C1 C 0.8343(2) -0.7912(3) 0.19969(13)
C2 C 0.6853(2) -0.7777(3) 0.09781(14)
H1 H 0.6506 -0.9027 0.0693
H2 H 0.6118 -0.7210 0.1114
C3 C 0.57218(19) -0.6450(2) -0.07568(13)
C4 C 0.4306(2) -0.6950(3) -0.09692(14)
H3 H 0.4170 -0.7481 -0.0447
C5 C 0.3090(2) -0.6642(3) -0.19788(14)
H4 H 0.2138 -0.6987 -0.2129
C6 C 0.3263(2) -0.5836(3) -0.27657(13)
C7 C 0.4704(2) -0.5399(3) -0.25377(15)
H5 H 0.4845 -0.4892 -0.3063
C8 C 0.5931(2) -0.5708(3) -0.15402(14)
H6 H 0.6889 -0.5418 -0.1398
C9 C 0.1913(2) -0.5385(3) -0.38427(16)
H7 H 0.1078 -0.5041 -0.3756
H8 H 0.2145 -0.4312 -0.4141
C10 C 0.1457(2) -0.7021(3) -0.46016(13)
Cd1_2 Cd 0.057715(15) -0.987786(19) -0.602407(10)
Cd1A Cd 0.942285(15) -0.487786(19) 0.102407(10)
Cd1B Cd -0.057715(15) -1.012214(19) -0.397593(10)
O2A O 1.05551(15) -1.1980(2) 0.28693(11)
O3A O 1.29958(14) -1.16642(19) 0.47697(9)
O4_2 O 1.19796(17) -0.7199(2) 0.48105(12)
O5_2 O 1.05326(19) -0.8209(2) 0.53586(12)
O5B O 0.94674(19) -1.1791(2) 0.46414(12)
loop_
_geom_bond_atom_site_label_1
_geom_bond_atom_site_label_2
_geom_bond_site_symmetry_1
_geom_bond_site_symmetry_2
Cd1 O1 1_555 1_555
O1 C1 1_555 1_555
O2 C1 1_555 1_555
O3 C2 1_555 1_555
O4 C10 1_555 1_555
O5 C10 1_555 1_555
C1 C2 1_555 1_555
C2 H1 1_555 1_555
H2 C2 1_555 1_555
C3 O3 1_555 1_555
C4 C3 1_555 1_555
H3 C4 1_555 1_555
C5 C4 1_555 1_555
H4 C5 1_555 1_555
C6 C5 1_555 1_555
C7 C6 1_555 1_555
H5 C7 1_555 1_555
C8 C3 1_555 1_555
H6 C8 1_555 1_555
C9 C6 1_555 1_555
H7 C9 1_555 1_555
H8 C9 1_555 1_555
C10 C9 1_555 1_555
Cd1_2 O4 1_555 1_555
Cd1A O2 1_555 1_555
Cd1B O5 1_555 1_555
O2A Cd1 1_555 1_555
O3A Cd1 1_555 1_555
O4_2 Cd1 1_555 1_555
O5_2 Cd1 1_555 1_555
O5B Cd1 1_555 1_555
O3 Cd1A 1_555 1_555
O5 Cd1_2 1_555 1_555
C7 C8 1_555 1_555

#END
