
#######################################################################
#
#                 Cambridge Crystallographic Data Centre
#                                CCDC 
#
#######################################################################
#
# If this CIF has been generated from an entry in the Cambridge 
# Structural Database, then it will include bibliographic, chemical, 
# crystal, experimental, refinement or atomic coordinate data resulting 
# from the CCDC's data processing and validation procedures.
#
#######################################################################

data_IVEFOE
_symmetry_cell_setting           monoclinic
_symmetry_space_group_name_H-M   'P 21/c'
_symmetry_Int_Tables_number      14
_space_group_name_Hall           '-P 2ybc'
loop_
_symmetry_equiv_pos_site_id
_symmetry_equiv_pos_as_xyz
1 x,y,z
2 -x,1/2+y,1/2-z
3 -x,-y,-z
4 x,1/2-y,1/2+z
_cell_length_a                   5.4868(8)
_cell_length_b                   12.9116(18)
_cell_length_c                   15.251(2)
_cell_angle_alpha                90
_cell_angle_beta                 98.843(2)
_cell_angle_gamma                90
_cell_volume                     1067.59
loop_
_atom_site_label
_atom_site_type_symbol
_atom_site_fract_x
_atom_site_fract_y
_atom_site_fract_z
Co1 Co 1.10328(7) 0.46809(3) 0.40845(2)
P1 P 0.59522(13) 0.38220(6) 0.32365(5)
P2 P 0.60240(13) 0.60141(6) 0.38878(5)
O1 O 0.8212(3) 0.35888(15) 0.39142(13)
O2 O 0.3470(3) 0.36847(16) 0.35300(14)
O3 O 0.6195(4) 0.31924(19) 0.23983(15)
H1 H 0.528(6) 0.290(3) 0.205(2)
O4 O 0.8137(3) 0.56672(16) 0.45943(12)
O5 O 0.3440(3) 0.58914(16) 0.40936(13)
O6 O 0.6527(4) 0.71453(16) 0.36535(13)
O7 O 0.8940(4) 0.52337(17) 0.28239(14)
H2 H 0.899(6) 0.582(3) 0.258(2)
C1 C 0.6355(5) 0.5183(2) 0.29361(18)
C2 C 0.4658(5) 0.5475(3) 0.20846(18)
H3 H 0.4915 0.6188 0.1947
H4 H 0.2972 0.5375 0.2164
H5 H 0.5018 0.5046 0.1607
P1_2 P 1.59522(13) 0.38220(6) 0.32365(5)
P2_2 P 1.60240(13) 0.60141(6) 0.38878(5)
O1_2 O 1.8212(3) 0.35888(15) 0.39142(13)
O2_2 O 1.3470(3) 0.36847(16) 0.35300(14)
O3_2 O 1.6195(4) 0.31924(19) 0.23983(15)
H1_2 H 1.528(6) 0.290(3) 0.205(2)
O4_2 O 1.8137(3) 0.56672(16) 0.45943(12)
O5_2 O 1.3440(3) 0.58914(16) 0.40936(13)
O6_2 O 1.6527(4) 0.71453(16) 0.36535(13)
O7_2 O 1.8940(4) 0.52337(17) 0.28239(14)
H2_2 H 1.899(6) 0.582(3) 0.258(2)
C1_2 C 1.6355(5) 0.5183(2) 0.29361(18)
C2_2 C 1.4658(5) 0.5475(3) 0.20846(18)
H3_2 H 1.4915 0.6188 0.1947
H4_2 H 1.2972 0.5375 0.2164
H5_2 H 1.5018 0.5046 0.1607
Co1_2 Co 2.10328(7) 0.46809(3) 0.40845(2)
O4B O 1.1863(3) 0.43328(16) 0.54057(12)
Co1_3 Co 0.10328(7) 0.46809(3) 0.40845(2)
Co1B Co 0.89672(7) 0.53191(3) 0.59155(2)
Co1B_2 Co 1.89672(7) 0.53191(3) 0.59155(2)
O2_3 O 2.3470(3) 0.36847(16) 0.35300(14)
O4B_2 O 2.1863(3) 0.43328(16) 0.54057(12)
O5_3 O 2.3440(3) 0.58914(16) 0.40936(13)
O8 O 0.0473(5) 0.19719(19) 0.2974(2)
H6 H 0.1597 0.2464 0.3154
H7 H -0.0652 0.2398 0.2683
N1 N -0.1090(5) 0.2321(2) 0.5397(2)
H8 H -0.223(6) 0.267(3) 0.566(2)
H9 H 0.049(6) 0.239(3) 0.574(2)
H10 H -0.114(6) 0.258(3) 0.489(2)
C3 C -0.1640(7) 0.1196(3) 0.5392(3)
H11 H -0.321(7) 0.107(3) 0.505(2)
H12 H -0.169(6) 0.098(3) 0.598(2)
C4 C 0.0261(6) 0.0580(2) 0.5002(2)
H13 H 0.033(6) 0.079(3) 0.441(2)
H14 H 0.187(6) 0.070(3) 0.538(2)
C4B C -0.0261(6) -0.0580(2) 0.4998(2)
C3B C 0.1640(7) -0.1196(3) 0.4608(3)
N1B N 0.1090(5) -0.2321(2) 0.4603(2)
H8B H 0.223(6) -0.267(3) 0.434(2)
H9B H -0.049(6) -0.239(3) 0.426(2)
H10B H 0.114(6) -0.258(3) 0.511(2)
H11B H 0.321(7) -0.107(3) 0.495(2)
H12B H 0.169(6) -0.098(3) 0.402(2)
H13B H -0.033(6) -0.079(3) 0.559(2)
H14B H -0.187(6) -0.070(3) 0.462(2)
loop_
_geom_bond_atom_site_label_1
_geom_bond_atom_site_label_2
_geom_bond_site_symmetry_1
_geom_bond_site_symmetry_2
Co1 O1 1_555 1_555
P1 O1 1_555 1_555
P2 O4 1_555 1_555
O2 P1 1_555 1_555
O3 P1 1_555 1_555
H1 O3 1_555 1_555
O4 Co1 1_555 1_555
O5 P2 1_555 1_555
O6 P2 1_555 1_555
O7 Co1 1_555 1_555
H2 O7 1_555 1_555
C1 P1 1_555 1_555
C2 C1 1_555 1_555
H3 C2 1_555 1_555
H4 C2 1_555 1_555
H5 C2 1_555 1_555
O8 H6 1_555 1_555
H7 O8 1_555 1_555
N1 H8 1_555 1_555
H9 N1 1_555 1_555
H10 N1 1_555 1_555
C3 N1 1_555 1_555
H11 C3 1_555 1_555
H12 C3 1_555 1_555
C4 C3 1_555 1_555
H13 C4 1_555 1_555
H14 C4 1_555 1_555
P1_2 O1_2 1_555 1_555
P2_2 O4_2 1_555 1_555
O1_2 Co1_2 1_555 1_555
O2_2 Co1 1_555 1_555
O3_2 P1_2 1_555 1_555
H1_2 O3_2 1_555 1_555
O4_2 Co1_2 1_555 1_555
O5_2 Co1 1_555 1_555
O6_2 P2_2 1_555 1_555
O7_2 H2_2 1_555 1_555
C1_2 P1_2 1_555 1_555
C2_2 C1_2 1_555 1_555
H3_2 C2_2 1_555 1_555
H4_2 C2_2 1_555 1_555
H5_2 C2_2 1_555 1_555
Co1_2 O7_2 1_555 1_555
O4B Co1 1_555 1_555
Co1_3 O2 1_555 1_555
Co1B O4 1_555 1_555
Co1B_2 O4_2 1_555 1_555
O2_3 Co1_2 1_555 1_555
O4B_2 Co1_2 1_555 1_555
O5_3 Co1_2 1_555 1_555
C4B C4 1_555 1_555
C3B C4B 1_555 1_555
N1B C3B 1_555 1_555
H8B N1B 1_555 1_555
H9B N1B 1_555 1_555
H10B N1B 1_555 1_555
H11B C3B 1_555 1_555
H12B C3B 1_555 1_555
H13B C4B 1_555 1_555
H14B C4B 1_555 1_555
P2 C1 1_555 1_555
O5 Co1_3 1_555 1_555
O7 C1 1_555 1_555
P1_2 O2_2 1_555 1_555
P2_2 O5_2 1_555 1_555
P2_2 C1_2 1_555 1_555
O7_2 C1_2 1_555 1_555
O4B Co1B 1_555 1_555
Co1B_2 O4B_2 1_555 1_555

#END
