
#######################################################################
#
#                 Cambridge Crystallographic Data Centre
#                                CCDC 
#
#######################################################################
#
# If this CIF has been generated from an entry in the Cambridge 
# Structural Database, then it will include bibliographic, chemical, 
# crystal, experimental, refinement or atomic coordinate data resulting 
# from the CCDC's data processing and validation procedures.
#
#######################################################################

data_IVEGAR
_symmetry_cell_setting           monoclinic
_symmetry_space_group_name_H-M   'P 21/c'
_symmetry_Int_Tables_number      14
_space_group_name_Hall           '-P 2ybc'
loop_
_symmetry_equiv_pos_site_id
_symmetry_equiv_pos_as_xyz
1 x,y,z
2 -x,1/2+y,1/2-z
3 -x,-y,-z
4 x,1/2-y,1/2+z
_cell_length_a                   5.4757(7)
_cell_length_b                   12.7740(16)
_cell_length_c                   15.794(2)
_cell_angle_alpha                90
_cell_angle_beta                 98.797(2)
_cell_angle_gamma                90
_cell_volume                     1091.74
loop_
_atom_site_label
_atom_site_type_symbol
_atom_site_fract_x
_atom_site_fract_y
_atom_site_fract_z
N1 N 0.8829(7) 0.2431(3) 0.5654(3)
H3 H 0.8067 0.2892 0.5063
H4 H 0.8106 0.3051 0.5649
H5 H 1.0098 0.2596 0.5816
C1 C 0.747(2) 0.1500(9) 0.5603(9)
C2 C 0.854(3) 0.0503(9) 0.5412(10)
C3 C 0.962(3) 0.1339(11) 0.5645(10)
C4 C 0.806(2) 0.0669(7) 0.5000(7)
C5 C 0.903(3) -0.0447(9) 0.4945(9)
C2B C 1.146(3) -0.0503(9) 0.4588(10)
C1B C 1.253(2) -0.1500(9) 0.4397(9)
N1B N 1.1171(7) -0.2431(3) 0.4346(3)
H3B H 1.1933 -0.2892 0.4937
H4B H 1.1894 -0.3051 0.4351
H5B H 0.9902 -0.2596 0.4184
C3B C 1.038(3) -0.1339(11) 0.4355(10)
C4B C 1.194(2) -0.0669(7) 0.5000(7)
C5B C 1.097(3) 0.0447(9) 0.5055(9)
Co1 Co 1.10755(9) 0.45236(4) 0.41472(3)
P1 P 0.60267(18) 0.35752(8) 0.33972(6)
P2 P 0.60002(18) 0.58524(8) 0.38461(6)
O2 O 0.8297(5) 0.3422(2) 0.40627(18)
O3 O 0.3562(5) 0.3474(2) 0.3699(2)
O4 O 0.6262(5) 0.2836(2) 0.2647(2)
H6 H 0.508(6) 0.254(4) 0.226(2)
O5 O 0.8153(5) 0.5612(2) 0.45443(16)
O6 O 0.3449(5) 0.5734(2) 0.40701(18)
O7 O 0.6394(5) 0.6964(2) 0.35178(18)
O8 O 0.8926(5) 0.4965(2) 0.28754(18)
H7 H 0.879(9) 0.546(4) 0.262(3)
C6 C 0.6362(7) 0.4911(3) 0.3004(2)
C7 C 0.4615(7) 0.5117(4) 0.2169(2)
H8 H 0.4789 0.5829 0.1995
H9 H 0.2942 0.4995 0.2257
H10 H 0.5018 0.4655 0.1732
P1_2 P 1.60267(18) 0.35752(8) 0.33972(6)
P2_2 P 1.60002(18) 0.58524(8) 0.38461(6)
O2_2 O 1.8297(5) 0.3422(2) 0.40627(18)
O3_2 O 1.3562(5) 0.3474(2) 0.3699(2)
O4_2 O 1.6262(5) 0.2836(2) 0.2647(2)
H6_2 H 1.508(6) 0.254(4) 0.226(2)
O5_2 O 1.8153(5) 0.5612(2) 0.45443(16)
O6_2 O 1.3449(5) 0.5734(2) 0.40701(18)
O7_2 O 1.6394(5) 0.6964(2) 0.35178(18)
O8_2 O 1.8926(5) 0.4965(2) 0.28754(18)
H7_2 H 1.879(9) 0.546(4) 0.262(3)
C6_2 C 1.6362(7) 0.4911(3) 0.3004(2)
C7_2 C 1.4615(7) 0.5117(4) 0.2169(2)
H8_2 H 1.4789 0.5829 0.1995
H9_2 H 1.2942 0.4995 0.2257
H10_2 H 1.5018 0.4655 0.1732
Co1_2 Co 2.10755(9) 0.45236(4) 0.41472(3)
O5B O 1.1847(5) 0.4388(2) 0.54557(16)
Co1_3 Co 0.10755(9) 0.45236(4) 0.41472(3)
Co1B Co 0.89245(9) 0.54764(4) 0.58528(3)
Co1B_2 Co 1.89245(9) 0.54764(4) 0.58528(3)
O3_3 O 2.3562(5) 0.3474(2) 0.3699(2)
O5B_2 O 2.1847(5) 0.4388(2) 0.54557(16)
O6_3 O 2.3449(5) 0.5734(2) 0.40701(18)
O1 O 0.0605(7) 0.1685(3) 0.3050(3)
H1 H 0.1676 0.2218 0.3135
H2 H -0.0770 0.2071 0.2945
loop_
_geom_bond_atom_site_label_1
_geom_bond_atom_site_label_2
_geom_bond_site_symmetry_1
_geom_bond_site_symmetry_2
O1 H1 1_555 1_555
H2 O1 1_555 1_555
N1 H3 1_555 1_555
H4 N1 1_555 1_555
H5 N1 1_555 1_555
C1 N1 1_555 1_555
C2 C1 1_555 1_555
C3 N1 1_555 1_555
C4 C1 1_555 1_555
C5 C2 1_555 1_555
Co1 O2 1_555 1_555
P1 O2 1_555 1_555
P2 O5 1_555 1_555
O3 P1 1_555 1_555
O4 P1 1_555 1_555
H6 O4 1_555 1_555
O5 Co1 1_555 1_555
O6 P2 1_555 1_555
O7 P2 1_555 1_555
O8 Co1 1_555 1_555
H7 O8 1_555 1_555
C6 P1 1_555 1_555
C7 C6 1_555 1_555
H8 C7 1_555 1_555
H9 C7 1_555 1_555
H10 C7 1_555 1_555
C2B C5 1_555 1_555
C1B C2B 1_555 1_555
N1B C1B 1_555 1_555
H3B N1B 1_555 1_555
H4B N1B 1_555 1_555
H5B N1B 1_555 1_555
C3B C5 1_555 1_555
C4B C5 1_555 1_555
C5B C2 1_555 1_555
P1_2 O2_2 1_555 1_555
P2_2 O5_2 1_555 1_555
O2_2 Co1_2 1_555 1_555
O3_2 Co1 1_555 1_555
O4_2 P1_2 1_555 1_555
H6_2 O4_2 1_555 1_555
O5_2 Co1_2 1_555 1_555
O6_2 Co1 1_555 1_555
O7_2 P2_2 1_555 1_555
O8_2 H7_2 1_555 1_555
C6_2 P1_2 1_555 1_555
C7_2 C6_2 1_555 1_555
H8_2 C7_2 1_555 1_555
H9_2 C7_2 1_555 1_555
H10_2 C7_2 1_555 1_555
Co1_2 O8_2 1_555 1_555
O5B Co1 1_555 1_555
Co1_3 O3 1_555 1_555
Co1B O5 1_555 1_555
Co1B_2 O5_2 1_555 1_555
O3_3 Co1_2 1_555 1_555
O5B_2 Co1_2 1_555 1_555
O6_3 Co1_2 1_555 1_555
C1 C3 1_555 1_555
C2 C3 1_555 1_555
C2 C4 1_555 1_555
C3 C4 1_555 1_555
C3 C5B 1_555 1_555
C4 C5 1_555 1_555
C4 C5B 1_555 1_555
C5 C5B 1_555 1_555
P2 C6 1_555 1_555
O6 Co1_3 1_555 1_555
O8 C6 1_555 1_555
C2B C3B 1_555 1_555
C2B C4B 1_555 1_555
C2B C5B 1_555 1_555
C1B C3B 1_555 1_555
C1B C4B 1_555 1_555
N1B C3B 1_555 1_555
C3B C4B 1_555 1_555
C4B C5B 1_555 1_555
P1_2 O3_2 1_555 1_555
P2_2 O6_2 1_555 1_555
P2_2 C6_2 1_555 1_555
O8_2 C6_2 1_555 1_555
O5B Co1B 1_555 1_555
Co1B_2 O5B_2 1_555 1_555

#END
