
#######################################################################
#
#                 Cambridge Crystallographic Data Centre
#                                CCDC 
#
#######################################################################
#
# If this CIF has been generated from an entry in the Cambridge 
# Structural Database, then it will include bibliographic, chemical, 
# crystal, experimental, refinement or atomic coordinate data resulting 
# from the CCDC's data processing and validation procedures.
#
#######################################################################

data_IVEGEV
_symmetry_cell_setting           orthorhombic
_symmetry_space_group_name_H-M   'F d d d'
_symmetry_Int_Tables_number      70
_space_group_name_Hall           '-F 2uv 2vw'
loop_
_symmetry_equiv_pos_site_id
_symmetry_equiv_pos_as_xyz
1 x,y,z
2 x,1/2+y,1/2+z
3 x,1/4-y,1/4-z
4 1/2+x,y,1/2+z
5 1/4-x,y,1/4-z
6 1/2+x,1/2+y,z
7 1/4-x,1/4-y,z
8 3/4-x,3/4-y,z
9 3/4-x,y,3/4-z
10 x,3/4-y,3/4-z
11 3/4-x,1/4-y,1/2+z
12 3/4-x,1/2+y,1/4-z
13 1/4-x,3/4-y,1/2+z
14 1/2+x,3/4-y,1/4-z
15 1/4-x,1/2+y,3/4-z
16 1/2+x,1/4-y,3/4-z
17 -x,-y,-z
18 -x,1/2-y,1/2-z
19 -x,3/4+y,3/4+z
20 1/2-x,-y,1/2-z
21 3/4+x,-y,3/4+z
22 1/2-x,1/2-y,-z
23 3/4+x,3/4+y,-z
24 1/4+x,1/4+y,-z
25 1/4+x,-y,1/4+z
26 -x,1/4+y,1/4+z
27 1/4+x,3/4+y,1/2-z
28 1/4+x,1/2-y,3/4+z
29 3/4+x,1/4+y,1/2-z
30 1/2-x,1/4+y,3/4+z
31 3/4+x,1/2-y,1/4+z
32 1/2-x,3/4+y,1/4+z
_cell_length_a                   15.913(2)
_cell_length_b                   21.616(4)
_cell_length_c                   42.739(10)
_cell_angle_alpha                90
_cell_angle_beta                 90
_cell_angle_gamma                90
_cell_volume                     14701.2
loop_
_atom_site_label
_atom_site_type_symbol
_atom_site_fract_x
_atom_site_fract_y
_atom_site_fract_z
Cu1 Cu 0.28368(6) 0.36415(5) 0.54822(2)
Cu2 Cu 0.6250 0.6250 0.6250
N1 N 0.5232(6) 0.6038(4) 0.6614(2)
N2 N 0.1567(4) 0.3786(3) 0.55965(15)
O2 O 0.1636(4) 0.1951(3) 0.48517(13)
O3 O 0.0232(4) 0.1745(3) 0.48317(14)
O4 O 0.3231(4) 0.4356(3) 0.58209(13)
O5 O 0.4624(3) 0.4485(3) 0.57908(14)
C1 C 0.0861(6) 0.2030(4) 0.49308(18)
C2 C 0.0657(6) 0.2513(4) 0.5177(2)
H1 H 0.0097 0.2548 0.5237
C3 C 0.1185(6) 0.2880(4) 0.53121(19)
H2 H 0.1751 0.2828 0.5266
C4 C 0.0962(5) 0.3365(4) 0.55291(18)
C5 C 0.0176(6) 0.3412(5) 0.5670(2)
H3 H -0.0228 0.3107 0.5639
C6 C 0.0010(7) 0.3912(6) 0.5852(3)
H4 H -0.0517 0.3951 0.5944
C7 C 0.0593(6) 0.4351(5) 0.5902(3)
H5 H 0.0471 0.4701 0.6020
C8 C 0.1363(6) 0.4267(5) 0.5775(2)
H6 H 0.1774 0.4562 0.5815
C9 C 0.3899(5) 0.4592(4) 0.58994(18)
C10 C 0.3852(7) 0.5072(4) 0.6153(2)
H7 H 0.3328 0.5223 0.6211
C11 C 0.4539(7) 0.5294(4) 0.6298(2)
H8 H 0.5061 0.5153 0.6231
C12 C 0.3839(12) 0.5878(6) 0.6730(3)
H9 H 0.3337 0.5673 0.6690
C13 C 0.3886(13) 0.6319(7) 0.6967(3)
H10 H 0.3412 0.6426 0.7082
C14 C 0.4518(7) 0.5755(4) 0.6562(2)
C15 C 0.4646(11) 0.6592(5) 0.7027(3)
H11 H 0.4723 0.6870 0.7190
C16 C 0.5204(9) 0.6446(5) 0.6854(3)
H12 H 0.5709 0.6650 0.6892
N1B N 0.5232(6) 0.6462(4) 0.5886(2)
O4B O 0.3231(4) 0.8144(3) 0.66791(13)
O5B O 0.4624(3) 0.8015(3) 0.67092(14)
C9B C 0.3899(5) 0.7908(4) 0.66006(18)
C10B C 0.3852(7) 0.7428(4) 0.6347(2)
H7B H 0.3328 0.7277 0.6289
C11B C 0.4539(7) 0.7206(4) 0.6202(2)
H8B H 0.5061 0.7347 0.6269
C12B C 0.3839(12) 0.6622(6) 0.5770(3)
H9B H 0.3337 0.6827 0.5810
C13B C 0.3886(13) 0.6181(7) 0.5533(3)
H10B H 0.3412 0.6074 0.5418
C14B C 0.4518(7) 0.6745(4) 0.5938(2)
C15B C 0.4646(11) 0.5908(5) 0.5473(3)
H11B H 0.4723 0.5630 0.5310
C16B C 0.5204(9) 0.6054(5) 0.5646(3)
H12B H 0.5709 0.5850 0.5608
N1D N 0.7268(6) 0.6038(4) 0.5886(2)
O4D O 0.9269(4) 0.4356(3) 0.66791(13)
O5D O 0.7876(3) 0.4485(3) 0.67092(14)
C9D C 0.8601(5) 0.4592(4) 0.66006(18)
C10D C 0.8648(7) 0.5072(4) 0.6347(2)
H7D H 0.9172 0.5223 0.6289
C11D C 0.7961(7) 0.5294(4) 0.6202(2)
H8D H 0.7439 0.5153 0.6269
C12D C 0.8661(12) 0.5878(6) 0.5770(3)
H9D H 0.9163 0.5673 0.5810
C13D C 0.8614(13) 0.6319(7) 0.5533(3)
H10D H 0.9088 0.6426 0.5418
C14D C 0.7982(7) 0.5755(4) 0.5938(2)
C15D C 0.7854(11) 0.6592(5) 0.5473(3)
H11D H 0.7777 0.6870 0.5310
C16D C 0.7296(9) 0.6446(5) 0.5646(3)
H12D H 0.6791 0.6650 0.5608
N1F N 0.7268(6) 0.6462(4) 0.6614(2)
O4F O 0.9269(4) 0.8144(3) 0.58209(13)
O5F O 0.7876(3) 0.8015(3) 0.57908(14)
C9F C 0.8601(5) 0.7908(4) 0.58994(18)
C10F C 0.8648(7) 0.7428(4) 0.6153(2)
H7F H 0.9172 0.7277 0.6211
C11F C 0.7961(7) 0.7206(4) 0.6298(2)
H8F H 0.7439 0.7347 0.6231
C12F C 0.8661(12) 0.6622(6) 0.6730(3)
H9F H 0.9163 0.6827 0.6690
C13F C 0.8614(13) 0.6181(7) 0.6967(3)
H10F H 0.9088 0.6074 0.7082
C14F C 0.7982(7) 0.6745(4) 0.6562(2)
C15F C 0.7854(11) 0.5908(5) 0.7027(3)
H11F H 0.7777 0.5630 0.7190
C16F C 0.7296(9) 0.6054(5) 0.6854(3)
H12F H 0.6791 0.5850 0.6892
Cu1B Cu 0.28368(6) 0.88585(5) 0.70178(2)
Cu1D Cu 0.96632(6) 0.36415(5) 0.70178(2)
Cu1F Cu 0.96632(6) 0.88585(5) 0.54822(2)
N2U N 0.3433(4) 0.1214(3) 0.44035(15)
O2U O 0.3364(4) 0.3049(3) 0.51483(13)
O3U O 0.4768(4) 0.3255(3) 0.51683(14)
C1U C 0.4139(6) 0.2970(4) 0.50692(18)
C2U C 0.4343(6) 0.2487(4) 0.4823(2)
H1U H 0.4903 0.2452 0.4763
C3U C 0.3815(6) 0.2120(4) 0.46879(19)
H2U H 0.3249 0.2172 0.4734
C4U C 0.4038(5) 0.1635(4) 0.44709(18)
C5U C 0.4824(6) 0.1588(5) 0.4330(2)
H3U H 0.5228 0.1893 0.4361
C6U C 0.4990(7) 0.1088(6) 0.4148(3)
H4U H 0.5517 0.1049 0.4056
C7U C 0.4407(6) 0.0649(5) 0.4098(3)
H5U H 0.4529 0.0299 0.3980
C8U C 0.3637(6) 0.0733(5) 0.4225(2)
H6U H 0.3226 0.0438 0.4185
N2W N 0.4067(4) 0.6286(3) 0.44035(15)
O2W O 0.4136(4) 0.4451(3) 0.51483(13)
O3W O 0.2732(4) 0.4245(3) 0.51683(14)
C1W C 0.3361(6) 0.4530(4) 0.50692(18)
C2W C 0.3157(6) 0.5013(4) 0.4823(2)
H1W H 0.2597 0.5048 0.4763
C3W C 0.3685(6) 0.5380(4) 0.46879(19)
H2W H 0.4251 0.5328 0.4734
C4W C 0.3462(5) 0.5865(4) 0.44709(18)
C5W C 0.2676(6) 0.5912(5) 0.4330(2)
H3W H 0.2272 0.5607 0.4361
C6W C 0.2510(7) 0.6412(6) 0.4148(3)
H4W H 0.1983 0.6451 0.4056
C7W C 0.3093(6) 0.6851(5) 0.4098(3)
H5W H 0.2971 0.7201 0.3980
C8W C 0.3863(6) 0.6767(5) 0.4225(2)
H6W H 0.4274 0.7062 0.4185
N2B N 0.1567(4) 0.8714(3) 0.69035(15)
O2B O 0.1636(4) 1.0549(3) 0.76483(13)
O3B O 0.0232(4) 1.0755(3) 0.76683(14)
C1B C 0.0861(6) 1.0470(4) 0.75692(18)
C2B C 0.0657(6) 0.9987(4) 0.7323(2)
H1B H 0.0097 0.9952 0.7263
C3B C 0.1185(6) 0.9620(4) 0.71879(19)
H2B H 0.1751 0.9672 0.7234
C4B C 0.0962(5) 0.9135(4) 0.69709(18)
C5B C 0.0176(6) 0.9088(5) 0.6830(2)
H3B H -0.0228 0.9393 0.6861
C6B C 0.0010(7) 0.8588(6) 0.6648(3)
H4B H -0.0517 0.8549 0.6556
C7B C 0.0593(6) 0.8149(5) 0.6598(3)
H5B H 0.0471 0.7799 0.6480
C8B C 0.1363(6) 0.8233(5) 0.6725(2)
H6B H 0.1774 0.7938 0.6685
Cu1G Cu 0.46632(6) 0.38585(5) 0.54822(2)
O5G O 0.2876(3) 0.3015(3) 0.57908(14)
Cu1U Cu 0.21632(6) 0.13585(5) 0.45178(2)
Cu1V Cu 0.03368(6) 0.11415(5) 0.45178(2)
Cu1K Cu 0.46632(6) 0.86415(5) 0.70178(2)
Cu1M Cu 0.78368(6) 0.38585(5) 0.70178(2)
Cu1E Cu 0.78368(6) 0.86415(5) 0.54822(2)
O2EA O 0.3364(4) 0.9451(3) 0.73517(13)
O3X O 0.2732(4) 0.8255(3) 0.73317(14)
O5K O 0.2876(3) 0.9485(3) 0.67092(14)
N2D N 1.0933(4) 0.3786(3) 0.69035(15)
O2DA O 0.9136(4) 0.3049(3) 0.73517(13)
O3Y O 0.9768(4) 0.4245(3) 0.73317(14)
O5M O 0.9624(3) 0.3015(3) 0.67092(14)
N2F N 1.0933(4) 0.8714(3) 0.55965(15)
O2V O 0.9136(4) 0.9451(3) 0.51483(13)
O3P O 0.9768(4) 0.8255(3) 0.51683(14)
O5E O 0.9624(3) 0.9485(3) 0.57908(14)
Cu1W Cu 0.53368(6) 0.61415(5) 0.45178(2)
Cu1EA Cu 0.21632(6) 1.11415(5) 0.79822(2)
Cu1DA Cu 0.03368(6) 1.13585(5) 0.79822(2)
O1 O 0.6675(16) 0.1615(11) 0.6222(8)
O1B O 0.6675(16) 0.0885(11) 0.6278(8)
O1F O 0.5825(16) 0.0885(11) 0.6222(8)
O1D O 0.5825(16) 0.1615(11) 0.6278(8)
loop_
_geom_bond_atom_site_label_1
_geom_bond_atom_site_label_2
_geom_bond_site_symmetry_1
_geom_bond_site_symmetry_2
O1 O1B 1_555 1_555
Cu1 N2 1_555 1_555
Cu2 N1 1_555 1_555
N1 C14 1_555 1_555
N2 C4 1_555 1_555
O2 C1 1_555 1_555
O3 C1 1_555 1_555
O4 Cu1 1_555 1_555
O5 C9 1_555 1_555
C1 C2 1_555 1_555
C2 H1 1_555 1_555
C3 C2 1_555 1_555
H2 C3 1_555 1_555
C4 C3 1_555 1_555
C5 C4 1_555 1_555
H3 C5 1_555 1_555
C6 C5 1_555 1_555
H4 C6 1_555 1_555
C7 C6 1_555 1_555
H5 C7 1_555 1_555
C8 N2 1_555 1_555
H6 C8 1_555 1_555
C9 O4 1_555 1_555
C10 C9 1_555 1_555
H7 C10 1_555 1_555
C11 C10 1_555 1_555
H8 C11 1_555 1_555
C12 H9 1_555 1_555
C13 C12 1_555 1_555
H10 C13 1_555 1_555
C14 C11 1_555 1_555
C15 C13 1_555 1_555
H11 C15 1_555 1_555
C16 N1 1_555 1_555
H12 C16 1_555 1_555
O1B O1F 1_555 1_555
O1F O1D 1_555 1_555
O1D O1 1_555 1_555
N1B Cu2 1_555 1_555
O4B C9B 1_555 1_555
O5B C9B 1_555 1_555
C9B C10B 1_555 1_555
C10B H7B 1_555 1_555
C11B C10B 1_555 1_555
H8B C11B 1_555 1_555
C12B H9B 1_555 1_555
C13B C12B 1_555 1_555
H10B C13B 1_555 1_555
C14B N1B 1_555 1_555
C15B C13B 1_555 1_555
H11B C15B 1_555 1_555
C16B N1B 1_555 1_555
H12B C16B 1_555 1_555
N1D Cu2 1_555 1_555
O4D C9D 1_555 1_555
O5D C9D 1_555 1_555
C9D C10D 1_555 1_555
C10D H7D 1_555 1_555
C11D C10D 1_555 1_555
H8D C11D 1_555 1_555
C12D H9D 1_555 1_555
C13D C12D 1_555 1_555
H10D C13D 1_555 1_555
C14D N1D 1_555 1_555
C15D C13D 1_555 1_555
H11D C15D 1_555 1_555
C16D N1D 1_555 1_555
H12D C16D 1_555 1_555
N1F Cu2 1_555 1_555
O4F C9F 1_555 1_555
O5F C9F 1_555 1_555
C9F C10F 1_555 1_555
C10F H7F 1_555 1_555
C11F C10F 1_555 1_555
H8F C11F 1_555 1_555
C12F H9F 1_555 1_555
C13F C12F 1_555 1_555
H10F C13F 1_555 1_555
C14F N1F 1_555 1_555
C15F C13F 1_555 1_555
H11F C15F 1_555 1_555
C16F N1F 1_555 1_555
H12F C16F 1_555 1_555
Cu1B O4B 1_555 1_555
Cu1D O4D 1_555 1_555
Cu1F O4F 1_555 1_555
N2U C4U 1_555 1_555
O2U Cu1 1_555 1_555
O3U C1U 1_555 1_555
C1U O2U 1_555 1_555
C2U C1U 1_555 1_555
H1U C2U 1_555 1_555
C3U C2U 1_555 1_555
H2U C3U 1_555 1_555
C4U C3U 1_555 1_555
C5U C4U 1_555 1_555
H3U C5U 1_555 1_555
C6U C5U 1_555 1_555
H4U C6U 1_555 1_555
C7U C6U 1_555 1_555
H5U C7U 1_555 1_555
C8U N2U 1_555 1_555
H6U C8U 1_555 1_555
N2W C4W 1_555 1_555
O2W C1W 1_555 1_555
O3W Cu1 1_555 1_555
C1W O3W 1_555 1_555
C2W C1W 1_555 1_555
H1W C2W 1_555 1_555
C3W C2W 1_555 1_555
H2W C3W 1_555 1_555
C4W C3W 1_555 1_555
C5W C4W 1_555 1_555
H3W C5W 1_555 1_555
C6W C5W 1_555 1_555
H4W C6W 1_555 1_555
C7W C6W 1_555 1_555
H5W C7W 1_555 1_555
C8W N2W 1_555 1_555
H6W C8W 1_555 1_555
N2B Cu1B 1_555 1_555
O2B C1B 1_555 1_555
O3B C1B 1_555 1_555
C1B C2B 1_555 1_555
C2B H1B 1_555 1_555
C3B C2B 1_555 1_555
H2B C3B 1_555 1_555
C4B N2B 1_555 1_555
C5B C4B 1_555 1_555
H3B C5B 1_555 1_555
C6B C5B 1_555 1_555
H4B C6B 1_555 1_555
C7B C6B 1_555 1_555
H5B C7B 1_555 1_555
C8B N2B 1_555 1_555
H6B C8B 1_555 1_555
Cu1G Cu1 1_555 1_555
O5G Cu1 1_555 1_555
Cu1U O2 1_555 1_555
Cu1V O3 1_555 1_555
Cu1K O5B 1_555 1_555
Cu1M O5D 1_555 1_555
Cu1E O5F 1_555 1_555
O2EA Cu1B 1_555 1_555
O3X Cu1B 1_555 1_555
O5K Cu1B 1_555 1_555
N2D Cu1D 1_555 1_555
O2DA Cu1D 1_555 1_555
O3Y Cu1D 1_555 1_555
O5M Cu1D 1_555 1_555
N2F Cu1F 1_555 1_555
O2V Cu1F 1_555 1_555
O3P Cu1F 1_555 1_555
O5E Cu1F 1_555 1_555
Cu1W N2W 1_555 1_555
Cu1EA O2B 1_555 1_555
Cu1DA O3B 1_555 1_555
O5 Cu1G 1_555 1_555
C7 C8 1_555 1_555
C12 C14 1_555 1_555
C15 C16 1_555 1_555
C11B C14B 1_555 1_555
C12B C14B 1_555 1_555
C15B C16B 1_555 1_555
C11D C14D 1_555 1_555
C12D C14D 1_555 1_555
C15D C16D 1_555 1_555
C11F C14F 1_555 1_555
C12F C14F 1_555 1_555
C15F C16F 1_555 1_555
Cu1B Cu1K 1_555 1_555
Cu1D Cu1M 1_555 1_555
Cu1F Cu1E 1_555 1_555
N2U Cu1U 1_555 1_555
O3U Cu1G 1_555 1_555
C7U C8U 1_555 1_555
O2W Cu1G 1_555 1_555
C7W C8W 1_555 1_555
C3B C4B 1_555 1_555
C7B C8B 1_555 1_555
Cu1U Cu1V 1_555 1_555
Cu1EA Cu1DA 1_555 1_555

#END
