
#######################################################################
#
#                 Cambridge Crystallographic Data Centre
#                                CCDC 
#
#######################################################################
#
# If this CIF has been generated from an entry in the Cambridge 
# Structural Database, then it will include bibliographic, chemical, 
# crystal, experimental, refinement or atomic coordinate data resulting 
# from the CCDC's data processing and validation procedures.
#
#######################################################################

data_IVEMEC
_symmetry_cell_setting           monoclinic
_symmetry_space_group_name_H-M   'C 2/c'
_symmetry_Int_Tables_number      15
_space_group_name_Hall           '-C 2yn'
loop_
_symmetry_equiv_pos_site_id
_symmetry_equiv_pos_as_xyz
1 x,y,z
2 -x,y,1/2-z
3 1/2+x,1/2+y,z
4 1/2-x,1/2+y,1/2-z
5 -x,-y,-z
6 x,-y,1/2+z
7 1/2-x,1/2-y,-z
8 1/2+x,1/2-y,1/2+z
_cell_length_a                   12.180(3)
_cell_length_b                   8.223(2)
_cell_length_c                   10.777(3)
_cell_angle_alpha                90
_cell_angle_beta                 95.817(4)
_cell_angle_gamma                90
_cell_volume                     1073.82
loop_
_atom_site_label
_atom_site_type_symbol
_atom_site_fract_x
_atom_site_fract_y
_atom_site_fract_z
U1 U -0.28913(2) -0.02761(3) 0.20360(3)
O1 O -0.1203(5) -0.0369(6) 0.3554(7)
O2 O -0.2165(4) -0.2845(6) 0.1837(5)
O3 O -0.0569(4) -0.3582(6) 0.3915(5)
O4 O 0.0935(4) -0.3410(6) 0.5292(5)
O5 O -0.1280(4) -0.6049(7) 0.1850(5)
O6 O -0.2937(5) -0.4547(7) 0.4088(5)
C1 C 0.0106(6) -0.4116(10) 0.4780(7)
U1C U -0.21087(2) -0.52761(3) 0.29640(3)
U1_2 U -0.28913(2) -1.02761(3) 0.20360(3)
U1G U 0.21087(2) -0.47239(3) 0.70360(3)
O1C O -0.3797(5) -0.5369(6) 0.1446(7)
O2C O -0.2835(4) -0.7845(6) 0.3163(5)
O2C_2 O -0.2835(4) 0.2155(6) 0.3163(5)
O3D O 0.0569(4) -0.6418(6) 0.6085(5)
O3C O -0.4431(4) 0.1418(6) 0.1085(5)
O4G O -0.4065(4) -0.1590(6) 0.0292(5)
O4D O -0.0935(4) -0.6590(6) 0.4708(5)
O5C O -0.3720(4) -0.1049(7) 0.3150(5)
O6C O -0.2063(5) 0.0453(7) 0.0912(5)
C1D C -0.0106(6) -0.5884(10) 0.5220(7)
loop_
_geom_bond_atom_site_label_1
_geom_bond_atom_site_label_2
_geom_bond_site_symmetry_1
_geom_bond_site_symmetry_2
U1 O1 1_555 1_555
O2 U1 1_555 1_555
O3 C1 1_555 1_555
O4 C1 1_555 1_555
O5 U1C 1_555 1_555
O6 U1C 1_555 1_555
C1 C1D 1_555 1_555
U1C O2 1_555 1_555
U1_2 O2C 1_555 1_555
U1G O4 1_555 1_555
O1C U1C 1_555 1_555
O2C U1C 1_555 1_555
O2C_2 U1 1_555 1_555
O3D U1G 1_555 1_555
O3C U1 1_555 1_555
O4G U1 1_555 1_555
O4D U1C 1_555 1_555
O5C U1 1_555 1_555
O6C U1 1_555 1_555
C1D O3D 1_555 1_555
O3 U1C 1_555 1_555
O4D C1D 1_555 1_555

#END
