
#######################################################################
#
#                 Cambridge Crystallographic Data Centre
#                                CCDC 
#
#######################################################################
#
# If this CIF has been generated from an entry in the Cambridge 
# Structural Database, then it will include bibliographic, chemical, 
# crystal, experimental, refinement or atomic coordinate data resulting 
# from the CCDC's data processing and validation procedures.
#
#######################################################################

data_IVETIN
_symmetry_cell_setting           monoclinic
_symmetry_space_group_name_H-M   'C 2/c'
_symmetry_Int_Tables_number      15
_space_group_name_Hall           '-C 2yn'
loop_
_symmetry_equiv_pos_site_id
_symmetry_equiv_pos_as_xyz
1 x,y,z
2 -x,y,1/2-z
3 1/2+x,1/2+y,z
4 1/2-x,1/2+y,1/2-z
5 -x,-y,-z
6 x,-y,1/2+z
7 1/2-x,1/2-y,-z
8 1/2+x,1/2-y,1/2+z
_cell_length_a                   23.308(12)
_cell_length_b                   13.967(7)
_cell_length_c                   32.201(17)
_cell_angle_alpha                90
_cell_angle_beta                 106.519(9)
_cell_angle_gamma                90
_cell_volume                     10050.1
loop_
_atom_site_label
_atom_site_type_symbol
_atom_site_fract_x
_atom_site_fract_y
_atom_site_fract_z
Cu1 Cu -0.5000 0.49723(15) 1.2500
Cu2 Cu -0.32396(6) 0.50395(11) 1.17668(5)
Cl1 Cl -0.40337(11) 0.5024(2) 1.21736(9)
Cl2 Cl -0.29447(15) 0.6575(2) 1.16410(12)
Cl3 Cl -0.29808(15) 0.3501(2) 1.16021(11)
N1 N -0.7682(3) 1.0004(9) 0.7380(3)
C1 C -0.7634(7) 1.0834(10) 0.7592(5)
H1 H -0.7728 1.1397 0.7434
C2 C -0.7453(7) 1.0885(8) 0.8031(5)
H2 H -0.7405 1.1487 0.8160
C3 C -0.7331(4) 1.0057(9) 0.8305(4)
C4 C -0.7396(5) 0.9190(8) 0.8076(4)
H3 H -0.7343 0.8613 0.8227
C5 C -0.7538(6) 0.9188(10) 0.7632(5)
H4 H -0.7538 0.8605 0.7493
C6 C -0.7259(4) 1.0058(9) 0.8777(4)
C7 C -0.7075(6) 0.9224(8) 0.9027(5)
H5 H -0.6983 0.8667 0.8900
C8 C -0.7033(5) 0.9250(8) 0.9466(4)
H6 H -0.6877 0.8720 0.9636
C9 C -0.7215(4) 1.0035(9) 0.9665(3)
C10 C -0.7388(5) 1.0843(7) 0.9399(4)
H7 H -0.7490 1.1401 0.9519
C11 C -0.7412(5) 1.0834(8) 0.8976(4)
H8 H -0.7538 1.1385 0.8813
N2 N -0.5435(5) 0.5970(6) 1.2063(3)
C12 C -0.5149(5) 0.6766(7) 1.1952(4)
H9 H -0.4748 0.6869 1.2100
C13 C -0.5428(5) 0.7403(7) 1.1636(4)
H10 H -0.5221 0.7934 1.1578
C14 C -0.6028(6) 0.7253(9) 1.1398(5)
C15 C -0.6337(5) 0.6433(8) 1.1502(4)
H11 H -0.6730 0.6291 1.1348
C16 C -0.6015(6) 0.5863(8) 1.1847(4)
H12 H -0.6221 0.5366 1.1933
C17 C -0.6355(6) 0.7914(8) 1.1041(4)
C18 C -0.6968(6) 0.8057(8) 1.0979(3)
H13 H -0.7162 0.7710 1.1145
C19 C -0.7285(6) 0.8682(8) 1.0684(4)
H14 H -0.7685 0.8801 1.0663
C20 C -0.7009(5) 0.9148(7) 1.0412(4)
C21 C -0.6396(6) 0.9017(7) 1.0475(5)
H15 H -0.6202 0.9347 1.0303
C22 C -0.6077(6) 0.8400(7) 1.0791(4)
H16 H -0.5668 0.8317 1.0832
N3 N -1.1075(4) 0.9836(9) 0.8767(3)
C23 C -1.0880(7) 1.0514(10) 0.9065(5)
H17 H -1.1133 1.1030 0.9063
C24 C -1.0328(8) 1.0510(8) 0.9380(4)
H18 H -1.0235 1.0990 0.9588
C25 C -0.9918(7) 0.9792(9) 0.9382(4)
C26 C -1.0155(6) 0.9087(9) 0.9078(5)
H19 H -0.9915 0.8554 0.9078
C27 C -1.0687(6) 0.9095(9) 0.8789(5)
H20 H -1.0799 0.8585 0.8598
C28 C -0.9270(6) 0.9806(7) 0.9649(4)
C29 C -0.8918(6) 0.9003(8) 0.9673(4)
H21 H -0.9098 0.8420 0.9573
C30 C -0.8309(7) 0.9050(8) 0.9841(4)
H22 H -0.8083 0.8496 0.9854
C31 C -0.8014(5) 0.9919(9) 0.9997(3)
C32 C -0.8375(6) 1.0701(8) 0.9991(4)
H23 H -0.8206 1.1282 1.0104
C33 C -0.8983(6) 1.0628(8) 0.9818(4)
H24 H -0.9213 1.1172 0.9817
N4 N -0.5377(5) 1.3942(6) 1.2051(4)
C34 C -0.5790(6) 1.3311(7) 1.2124(4)
H25 H -0.5846 1.3264 1.2398
C35 C -0.6118(6) 1.2754(8) 1.1793(5)
H26 H -0.6392 1.2326 1.1851
C36 C -0.6064(6) 1.2792(7) 1.1366(4)
C37 C -0.5650(6) 1.3414(8) 1.1315(4)
H27 H -0.5583 1.3457 1.1045
C38 C -0.5327(6) 1.3981(9) 1.1637(5)
H28 H -0.5059 1.4414 1.1575
C39 C -0.6415(6) 1.2179(7) 1.1031(4)
C40 C -0.6245(6) 1.1969(7) 1.0657(4)
H29 H -0.5917 1.2283 1.0611
C41 C -0.6543(6) 1.1328(8) 1.0363(4)
H30 H -0.6403 1.1198 1.0125
C42 C -0.7065(6) 1.0838(8) 1.0397(5)
C43 C -0.7237(6) 1.1087(8) 1.0765(5)
H31 H -0.7590 1.0823 1.0794
C44 C -0.6912(5) 1.1718(8) 1.1100(4)
H32 H -0.7025 1.1816 1.1351
C45 C -0.7324(5) 0.9950(8) 1.0125(3)
Cu1_2 Cu -0.5000 1.49723(15) 1.2500
Cu2A Cu -0.67604(6) 0.50395(11) 1.32332(5)
Cu2G Cu -0.82396(6) 0.99605(11) 0.67668(5)
Cu2F Cu -1.17604(6) 0.99605(11) 0.82332(5)
Cu2F_2 Cu -0.17604(6) 0.99605(11) 1.82332(5)
Cu2G_2 Cu 0.17604(6) 0.99605(11) 1.67668(5)
Cl1A Cl -0.59663(11) 0.5024(2) 1.28264(9)
Cl2A Cl -0.70553(15) 0.6575(2) 1.33590(12)
Cl3A Cl -0.70192(15) 0.3501(2) 1.33979(11)
N1A N -0.2318(3) 1.0004(9) 1.7620(3)
N1G N -0.2682(3) 0.4996(9) 1.2380(3)
N1F N -0.7318(3) 0.4996(9) 1.2620(3)
C1A C -0.2366(7) 1.0834(10) 1.7408(5)
H1A H -0.2272 1.1397 1.7566
C2A C -0.2547(7) 1.0885(8) 1.6969(5)
H2A H -0.2595 1.1487 1.6840
C3A C -0.2669(4) 1.0057(9) 1.6695(4)
C4A C -0.2604(5) 0.9190(8) 1.6924(4)
H3A H -0.2657 0.8613 1.6773
C5A C -0.2462(6) 0.9188(10) 1.7368(5)
H4A H -0.2462 0.8605 1.7507
C6A C -0.2741(4) 1.0058(9) 1.6223(4)
C7A C -0.2925(6) 0.9224(8) 1.5973(5)
H5A H -0.3017 0.8667 1.6100
C8A C -0.2967(5) 0.9250(8) 1.5534(4)
H6A H -0.3123 0.8720 1.5364
C9A C -0.2785(4) 1.0035(9) 1.5335(3)
C10A C -0.2612(5) 1.0843(7) 1.5601(4)
H7A H -0.2510 1.1401 1.5481
C11A C -0.2588(5) 1.0834(8) 1.6024(4)
H8A H -0.2462 1.1385 1.6187
N2A N -0.4565(5) 0.5970(6) 1.2937(3)
C12A C -0.4851(5) 0.6766(7) 1.3048(4)
H9A H -0.5252 0.6869 1.2900
C13A C -0.4572(5) 0.7403(7) 1.3364(4)
H10A H -0.4779 0.7934 1.3422
C14A C -0.3972(6) 0.7253(9) 1.3602(5)
C15A C -0.3663(5) 0.6433(8) 1.3498(4)
H11A H -0.3270 0.6291 1.3652
C16A C -0.3985(6) 0.5863(8) 1.3153(4)
H12A H -0.3779 0.5366 1.3067
C17A C -0.3645(6) 0.7914(8) 1.3959(4)
C18A C -0.3032(6) 0.8057(8) 1.4021(3)
H13A H -0.2838 0.7710 1.3855
C19A C -0.2715(6) 0.8682(8) 1.4316(4)
H14A H -0.2315 0.8801 1.4337
C20A C -0.2991(5) 0.9148(7) 1.4588(4)
C21A C -0.3604(6) 0.9017(7) 1.4525(5)
H15A H -0.3798 0.9347 1.4697
C22A C -0.3923(6) 0.8400(7) 1.4209(4)
H16A H -0.4332 0.8317 1.4168
N3A N 0.1075(4) 0.9836(9) 1.6233(3)
N3F N -0.3925(4) 0.5164(9) 1.1233(3)
N3G N -0.6075(4) 0.5164(9) 1.3767(3)
C23A C 0.0880(7) 1.0514(10) 1.5935(5)
H17A H 0.1133 1.1030 1.5937
C24A C 0.0328(8) 1.0510(8) 1.5620(4)
H18A H 0.0235 1.0990 1.5412
C25A C -0.0082(7) 0.9792(9) 1.5618(4)
C26A C 0.0155(6) 0.9087(9) 1.5922(5)
H19A H -0.0085 0.8554 1.5922
C27A C 0.0687(6) 0.9095(9) 1.6211(5)
H20A H 0.0799 0.8585 1.6402
C28A C -0.0730(6) 0.9806(7) 1.5351(4)
C29A C -0.1082(6) 0.9003(8) 1.5327(4)
H21A H -0.0902 0.8420 1.5427
C30A C -0.1691(7) 0.9050(8) 1.5159(4)
H22A H -0.1917 0.8496 1.5146
C31A C -0.1986(5) 0.9919(9) 1.5003(3)
C32A C -0.1625(6) 1.0701(8) 1.5009(4)
H23A H -0.1794 1.1282 1.4896
C33A C -0.1017(6) 1.0628(8) 1.5182(4)
H24A H -0.0787 1.1172 1.5183
N4A N -0.4623(5) 1.3942(6) 1.2949(4)
N4_2 N -0.5377(5) 0.3942(6) 1.2051(4)
N4A_2 N -0.4623(5) 0.3942(6) 1.2949(4)
C34A C -0.4210(6) 1.3311(7) 1.2876(4)
H25A H -0.4154 1.3264 1.2602
C35A C -0.3882(6) 1.2754(8) 1.3207(5)
H26A H -0.3608 1.2326 1.3149
C36A C -0.3936(6) 1.2792(7) 1.3634(4)
C37A C -0.4350(6) 1.3414(8) 1.3685(4)
H27A H -0.4417 1.3457 1.3955
C38A C -0.4673(6) 1.3981(9) 1.3363(5)
H28A H -0.4941 1.4414 1.3425
C39A C -0.3585(6) 1.2179(7) 1.3969(4)
C40A C -0.3755(6) 1.1969(7) 1.4343(4)
H29A H -0.4083 1.2283 1.4389
C41A C -0.3457(6) 1.1328(8) 1.4637(4)
H30A H -0.3597 1.1198 1.4875
C42A C -0.2935(6) 1.0838(8) 1.4603(5)
C43A C -0.2763(6) 1.1087(8) 1.4235(5)
H31A H -0.2410 1.0823 1.4206
C44A C -0.3088(5) 1.1718(8) 1.3900(4)
H32A H -0.2975 1.1816 1.3649
C45A C -0.2676(5) 0.9950(8) 1.4875(3)
loop_
_geom_bond_atom_site_label_1
_geom_bond_atom_site_label_2
_geom_bond_site_symmetry_1
_geom_bond_site_symmetry_2
Cu1 Cl1 1_555 1_555
Cu2 Cl1 1_555 1_555
Cl2 Cu2 1_555 1_555
Cl3 Cu2 1_555 1_555
N1 C1 1_555 1_555
C1 H1 1_555 1_555
C2 C1 1_555 1_555
H2 C2 1_555 1_555
C3 C2 1_555 1_555
C4 C3 1_555 1_555
H3 C4 1_555 1_555
C5 N1 1_555 1_555
H4 C5 1_555 1_555
C6 C3 1_555 1_555
C7 C6 1_555 1_555
H5 C7 1_555 1_555
C8 C7 1_555 1_555
H6 C8 1_555 1_555
C9 C8 1_555 1_555
C10 C9 1_555 1_555
H7 C10 1_555 1_555
C11 C6 1_555 1_555
H8 C11 1_555 1_555
N2 Cu1 1_555 1_555
C12 N2 1_555 1_555
H9 C12 1_555 1_555
C13 C12 1_555 1_555
H10 C13 1_555 1_555
C14 C13 1_555 1_555
C15 C14 1_555 1_555
H11 C15 1_555 1_555
C16 N2 1_555 1_555
H12 C16 1_555 1_555
C17 C14 1_555 1_555
C18 C17 1_555 1_555
H13 C18 1_555 1_555
C19 C18 1_555 1_555
H14 C19 1_555 1_555
C20 C19 1_555 1_555
C21 C20 1_555 1_555
H15 C21 1_555 1_555
C22 C17 1_555 1_555
H16 C22 1_555 1_555
N3 C23 1_555 1_555
C23 H17 1_555 1_555
C24 C23 1_555 1_555
H18 C24 1_555 1_555
C25 C24 1_555 1_555
C26 C25 1_555 1_555
H19 C26 1_555 1_555
C27 N3 1_555 1_555
H20 C27 1_555 1_555
C28 C25 1_555 1_555
C29 C28 1_555 1_555
H21 C29 1_555 1_555
C30 C29 1_555 1_555
H22 C30 1_555 1_555
C31 C30 1_555 1_555
C32 C31 1_555 1_555
H23 C32 1_555 1_555
C33 C28 1_555 1_555
H24 C33 1_555 1_555
N4 C34 1_555 1_555
C34 H25 1_555 1_555
C35 C34 1_555 1_555
H26 C35 1_555 1_555
C36 C35 1_555 1_555
C37 C36 1_555 1_555
H27 C37 1_555 1_555
C38 N4 1_555 1_555
H28 C38 1_555 1_555
C39 C36 1_555 1_555
C40 C39 1_555 1_555
H29 C40 1_555 1_555
C41 C40 1_555 1_555
H30 C41 1_555 1_555
C42 C41 1_555 1_555
C43 C42 1_555 1_555
H31 C43 1_555 1_555
C44 C39 1_555 1_555
H32 C44 1_555 1_555
C45 C9 1_555 1_555
Cu1_2 N4 1_555 1_555
Cu2A Cl1A 1_555 1_555
Cu2G N1 1_555 1_555
Cu2F N3 1_555 1_555
Cu2F_2 N1A 1_555 1_555
Cu2G_2 N3A 1_555 1_555
Cl1A Cu1 1_555 1_555
Cl2A Cu2A 1_555 1_555
Cl3A Cu2A 1_555 1_555
N1A C1A 1_555 1_555
N1G Cu2 1_555 1_555
N1F Cu2A 1_555 1_555
C1A H1A 1_555 1_555
C2A C1A 1_555 1_555
H2A C2A 1_555 1_555
C3A C2A 1_555 1_555
C4A C3A 1_555 1_555
H3A C4A 1_555 1_555
C5A N1A 1_555 1_555
H4A C5A 1_555 1_555
C6A C3A 1_555 1_555
C7A C6A 1_555 1_555
H5A C7A 1_555 1_555
C8A C7A 1_555 1_555
H6A C8A 1_555 1_555
C9A C8A 1_555 1_555
C10A C9A 1_555 1_555
H7A C10A 1_555 1_555
C11A C6A 1_555 1_555
H8A C11A 1_555 1_555
N2A Cu1 1_555 1_555
C12A N2A 1_555 1_555
H9A C12A 1_555 1_555
C13A C12A 1_555 1_555
H10A C13A 1_555 1_555
C14A C13A 1_555 1_555
C15A C14A 1_555 1_555
H11A C15A 1_555 1_555
C16A N2A 1_555 1_555
H12A C16A 1_555 1_555
C17A C14A 1_555 1_555
C18A C17A 1_555 1_555
H13A C18A 1_555 1_555
C19A C18A 1_555 1_555
H14A C19A 1_555 1_555
C20A C19A 1_555 1_555
C21A C20A 1_555 1_555
H15A C21A 1_555 1_555
C22A C17A 1_555 1_555
H16A C22A 1_555 1_555
N3A C23A 1_555 1_555
N3F Cu2 1_555 1_555
N3G Cu2A 1_555 1_555
C23A H17A 1_555 1_555
C24A C23A 1_555 1_555
H18A C24A 1_555 1_555
C25A C24A 1_555 1_555
C26A C25A 1_555 1_555
H19A C26A 1_555 1_555
C27A N3A 1_555 1_555
H20A C27A 1_555 1_555
C28A C25A 1_555 1_555
C29A C28A 1_555 1_555
H21A C29A 1_555 1_555
C30A C29A 1_555 1_555
H22A C30A 1_555 1_555
C31A C30A 1_555 1_555
C32A C31A 1_555 1_555
H23A C32A 1_555 1_555
C33A C28A 1_555 1_555
H24A C33A 1_555 1_555
N4A Cu1_2 1_555 1_555
N4_2 Cu1 1_555 1_555
N4A_2 Cu1 1_555 1_555
C34A N4A 1_555 1_555
H25A C34A 1_555 1_555
C35A C34A 1_555 1_555
H26A C35A 1_555 1_555
C36A C35A 1_555 1_555
C37A C36A 1_555 1_555
H27A C37A 1_555 1_555
C38A N4A 1_555 1_555
H28A C38A 1_555 1_555
C39A C36A 1_555 1_555
C40A C39A 1_555 1_555
H29A C40A 1_555 1_555
C41A C40A 1_555 1_555
H30A C41A 1_555 1_555
C42A C41A 1_555 1_555
C43A C42A 1_555 1_555
H31A C43A 1_555 1_555
C44A C39A 1_555 1_555
H32A C44A 1_555 1_555
C45A C9A 1_555 1_555
C4 C5 1_555 1_555
C10 C11 1_555 1_555
C15 C16 1_555 1_555
C20 C45 1_555 1_555
C21 C22 1_555 1_555
C26 C27 1_555 1_555
C31 C45 1_555 1_555
C32 C33 1_555 1_555
C37 C38 1_555 1_555
C42 C45 1_555 1_555
C43 C44 1_555 1_555
C4A C5A 1_555 1_555
C10A C11A 1_555 1_555
C15A C16A 1_555 1_555
C20A C45A 1_555 1_555
C21A C22A 1_555 1_555
C26A C27A 1_555 1_555
C31A C45A 1_555 1_555
C32A C33A 1_555 1_555
C37A C38A 1_555 1_555
C42A C45A 1_555 1_555
C43A C44A 1_555 1_555

#END
