
#######################################################################
#
#                 Cambridge Crystallographic Data Centre
#                                CCDC 
#
#######################################################################
#
# If this CIF has been generated from an entry in the Cambridge 
# Structural Database, then it will include bibliographic, chemical, 
# crystal, experimental, refinement or atomic coordinate data resulting 
# from the CCDC's data processing and validation procedures.
#
#######################################################################

data_IVEWAI
_symmetry_cell_setting           monoclinic
_symmetry_space_group_name_H-M   'P 21/c'
_symmetry_Int_Tables_number      14
_space_group_name_Hall           '-P 2ybc'
loop_
_symmetry_equiv_pos_site_id
_symmetry_equiv_pos_as_xyz
1 x,y,z
2 -x,1/2+y,1/2-z
3 -x,-y,-z
4 x,1/2-y,1/2+z
_cell_length_a                   8.7599(10)
_cell_length_b                   18.610(2)
_cell_length_c                   14.6625(16)
_cell_angle_alpha                90
_cell_angle_beta                 98.280(2)
_cell_angle_gamma                90
_cell_volume                     2365.39
loop_
_atom_site_label
_atom_site_type_symbol
_atom_site_fract_x
_atom_site_fract_y
_atom_site_fract_z
Co1 Co 1.11093(6) 0.56332(3) 0.69561(3)
Co2 Co 0.10293(6) 0.55284(3) 0.44845(3)
Co3 Co 0.5000 0.5000 0.5000
Co4 Co 0.38844(6) 0.85601(3) 0.11058(4)
O1 O 1.0922(4) 0.47169(16) 0.7667(2)
O2 O 0.9295(3) 0.39462(15) 0.68549(19)
O3 O 0.8436(3) 0.16105(14) 0.86754(18)
O4 O 0.9853(3) 0.14939(15) 1.0067(2)
O5 O 0.3736(4) 0.75272(15) 0.0445(2)
O6 O 0.4474(3) 0.76078(15) 0.19285(19)
O7 O 0.5699(3) 0.53610(15) 0.37558(19)
O8 O 0.6262(3) 0.43979(14) 0.29557(19)
O9 O 0.3388(3) 0.58574(14) 0.49042(18)
H1 H 0.3648 0.6171 0.4412
O10 O 1.1038(3) 0.50376(14) 0.57801(17)
H2 H 1.1886 0.4690 0.5871
O11 O 1.1489(5) 0.6175(2) 0.8197(2)
H3 H 1.2183 0.6488 0.8362
H4 H 1.0898 0.6188 0.8608
N1 N 0.8696(4) 0.58515(18) 0.6706(2)
N2 N 0.8014(4) 0.54155(18) 0.6033(2)
N3 N 0.6616(4) 0.56241(17) 0.5775(2)
N4 N 0.6292(4) 0.62018(17) 0.6265(2)
N5 N 0.7740(4) 0.6842(2) 0.7499(3)
H5 H 0.6954 0.7153 0.7509
H6 H 0.8651 0.7021 0.7764
C1 C 0.7596(5) 0.6328(2) 0.6845(3)
C2 C 1.0616(5) 0.3608(2) 0.8351(3)
C3 C 0.9800(5) 0.2976(2) 0.8457(3)
H7 H 0.8946 0.2858 0.8031
C4 C 1.0266(5) 0.2524(2) 0.9202(3)
C5 C 1.1556(6) 0.2699(3) 0.9835(3)
H8 H 1.1864 0.2399 1.0335
C6 C 1.2376(7) 0.3317(3) 0.9721(4)
H9 H 1.3246 0.3430 1.0138
C7 C 1.1907(6) 0.3766(3) 0.8990(3)
H10 H 1.2463 0.4183 0.8921
C8 C 1.0221(5) 0.4128(2) 0.7556(3)
C9 C 0.9465(4) 0.1832(2) 0.9338(3)
C10 C 0.4111(5) 0.6432(2) 0.1296(3)
C11 C 0.4800(5) 0.6104(2) 0.2100(3)
H11 H 0.5192 0.6384 0.2606
C12 C 0.4908(5) 0.5360(2) 0.2153(3)
C13 C 0.4302(7) 0.4948(3) 0.1413(4)
H12 H 0.4385 0.4450 0.1442
C14 C 0.3570(9) 0.5276(4) 0.0627(5)
H13 H 0.3136 0.4996 0.0131
C15 C 0.3475(8) 0.6011(3) 0.0569(4)
H14 H 0.2978 0.6225 0.0034
C16 C 0.4108(5) 0.7230(2) 0.1218(3)
C17 C 0.5674(4) 0.5020(2) 0.3017(3)
Co1B Co -0.11093(6) 0.43668(3) 0.30439(3)
Co1A Co 0.88907(6) 0.06332(3) 0.80439(3)
Co1B_2 Co 0.88907(6) 0.43668(3) 0.30439(3)
Co1_2 Co 0.11093(6) 0.56332(3) 0.69561(3)
Co1A_2 Co 0.88907(6) 1.06332(3) 0.80439(3)
Co2B Co 0.89707(6) 0.44716(3) 0.55155(3)
Co2A Co 0.89707(6) 0.05284(3) 1.05155(3)
Co2_2 Co 1.10293(6) 0.55284(3) 0.44845(3)
Co2C Co 1.10293(6) 0.94716(3) 0.94845(3)
Co2B_2 Co -0.10293(6) 0.44716(3) 0.55155(3)
Co4B Co 0.61156(6) 0.14399(3) 0.88942(4)
Co4A Co 0.61156(6) 0.35601(3) 0.38942(4)
Co4C Co 0.38844(6) 0.64399(3) 0.61058(4)
Co4C_2 Co 1.38844(6) 0.64399(3) 0.61058(4)
O1A O 0.9078(4) 0.97169(16) 0.7333(2)
O1B O -0.0922(4) 0.52831(16) 0.2333(2)
O2A O 1.0705(3) 0.89462(15) 0.81451(19)
O2B O 0.0705(3) 0.60538(15) 0.31451(19)
O3A O 1.1564(3) 0.66105(14) 0.63246(18)
O3B O 0.1564(3) 0.83895(14) 0.13246(18)
O3C O -0.1564(3) 0.33895(14) 0.36754(18)
O4A O 1.0147(3) 0.64939(15) 0.4933(2)
O4A_2 O 0.0147(3) 0.64939(15) 0.4933(2)
O4C O 0.9853(3) 0.35061(15) 0.5067(2)
O5B O 0.6264(4) 0.24728(15) 0.9555(2)
O6B O 0.5526(3) 0.23922(15) 0.80715(19)
O7B O 0.4301(3) 0.46390(15) 0.62442(19)
O8B O 0.3738(3) 0.56021(14) 0.70443(19)
O8B_2 O 1.3738(3) 0.56021(14) 0.70443(19)
O8A O 0.3738(3) 0.93979(14) 0.20443(19)
O8_2 O -0.3738(3) 0.43979(14) 0.29557(19)
O8C O 0.6262(3) 0.06021(14) 0.79557(19)
O9B O 0.6612(3) 0.41426(14) 0.50958(18)
O9C O 0.3388(3) 0.91426(14) -0.00958(18)
O9A O 0.6612(3) 0.08574(14) 1.00958(18)
H1B H 0.6352 0.3829 0.5588
H1C H 0.3648 0.8829 -0.0588
H1A H 0.6352 0.1171 1.0588
O10_2 O 0.1038(3) 0.50376(14) 0.57801(17)
O10B O -0.1038(3) 0.49624(14) 0.42199(17)
O10B_2 O 0.8962(3) 0.49624(14) 0.42199(17)
H2_2 H 0.1886 0.4690 0.5871
H2B H -0.1886 0.5310 0.4129
H2B_2 H 0.8114 0.5310 0.4129
O11B O -0.1489(5) 0.3825(2) 0.1803(2)
H3B H -0.2183 0.3512 0.1638
H4B H -0.0898 0.3812 0.1392
N1B N 0.1304(4) 0.41485(18) 0.3294(2)
N2B N 0.1986(4) 0.45845(18) 0.3967(2)
N3B N 0.3384(4) 0.43759(17) 0.4225(2)
N4B N 0.3708(4) 0.37982(17) 0.3735(2)
N4C N 0.6292(4) 0.87982(17) 0.1265(2)
N4A N 0.3708(4) 0.12018(17) 0.8735(2)
N5B N 0.2260(4) 0.3158(2) 0.2501(3)
H5B H 0.3046 0.2847 0.2491
H6B H 0.1349 0.2979 0.2236
C1B C 0.2404(5) 0.3672(2) 0.3155(3)
C2A C 0.9384(5) 0.8608(2) 0.6649(3)
C3A C 1.0200(5) 0.7976(2) 0.6543(3)
H7A H 1.1054 0.7858 0.6969
C4A C 0.9734(5) 0.7524(2) 0.5798(3)
C5A C 0.8444(6) 0.7699(3) 0.5165(3)
H8A H 0.8136 0.7399 0.4665
C6A C 0.7624(7) 0.8317(3) 0.5279(4)
H9A H 0.6754 0.8430 0.4862
C7A C 0.8093(6) 0.8766(3) 0.6010(3)
H10A H 0.7537 0.9183 0.6079
C8A C 0.9779(5) 0.9128(2) 0.7444(3)
C9A C 1.0535(4) 0.6832(2) 0.5662(3)
C10B C 0.5889(5) 0.3568(2) 0.8704(3)
C11B C 0.5200(5) 0.3896(2) 0.7900(3)
H11B H 0.4808 0.3616 0.7394
C12B C 0.5092(5) 0.4640(2) 0.7847(3)
C13B C 0.5698(7) 0.5052(3) 0.8587(4)
H12B H 0.5615 0.5550 0.8558
C14B C 0.6430(9) 0.4724(4) 0.9373(5)
H13B H 0.6864 0.5004 0.9869
C15B C 0.6525(8) 0.3989(3) 0.9431(4)
H14B H 0.7022 0.3775 0.9966
C16B C 0.5892(5) 0.2770(2) 0.8782(3)
C17B C 0.4326(4) 0.4980(2) 0.6983(3)
O12 O 0.0671(15) 0.7464(4) 0.8597(6)
O13 O 0.4238(11) 0.6944(4) 0.8709(5)
H15 H 0.4221 0.6922 0.8128
H16 H 0.4618 0.7351 0.8875
O14 O 0.979(2) 0.5492(10) 0.9346(13)
O15? O 0.203(3) 0.7548(13) 0.8681(16)
loop_
_geom_bond_atom_site_label_1
_geom_bond_atom_site_label_2
_geom_bond_site_symmetry_1
_geom_bond_site_symmetry_2
Co1 O1 1_555 1_555
Co2 O9 1_555 1_555
Co3 O7 1_555 1_555
Co4 O5 1_555 1_555
O1 C8 1_555 1_555
O2 C8 1_555 1_555
O3 C9 1_555 1_555
O4 C9 1_555 1_555
O5 C16 1_555 1_555
O6 Co4 1_555 1_555
O7 C17 1_555 1_555
O8 C17 1_555 1_555
O9 Co3 1_555 1_555
H1 O9 1_555 1_555
O10 Co1 1_555 1_555
H2 O10 1_555 1_555
O11 Co1 1_555 1_555
H3 O11 1_555 1_555
H4 O11 1_555 1_555
N1 Co1 1_555 1_555
N2 N1 1_555 1_555
N3 Co3 1_555 1_555
N4 N3 1_555 1_555
N5 H5 1_555 1_555
H6 N5 1_555 1_555
C1 N1 1_555 1_555
C2 C3 1_555 1_555
C3 H7 1_555 1_555
C4 C3 1_555 1_555
C5 C4 1_555 1_555
H8 C5 1_555 1_555
C6 C5 1_555 1_555
H9 C6 1_555 1_555
C7 C2 1_555 1_555
H10 C7 1_555 1_555
C8 C2 1_555 1_555
C9 C4 1_555 1_555
C10 C11 1_555 1_555
C11 H11 1_555 1_555
C12 C11 1_555 1_555
C13 C12 1_555 1_555
H12 C13 1_555 1_555
C14 C13 1_555 1_555
H13 C14 1_555 1_555
C15 C10 1_555 1_555
H14 C15 1_555 1_555
C16 O6 1_555 1_555
C17 C12 1_555 1_555
O13 H15 1_555 1_555
H16 O13 1_555 1_555
Co1B O1B 1_555 1_555
Co1A O3 1_555 1_555
Co1B_2 O8 1_555 1_555
Co1_2 O8B 1_555 1_555
Co1A_2 O1A 1_555 1_555
Co2B O2 1_555 1_555
Co2A O4 1_555 1_555
Co2_2 O10 1_555 1_555
Co2C O2A 1_555 1_555
Co2B_2 O10_2 1_555 1_555
Co4B O3 1_555 1_555
Co4A O8 1_555 1_555
Co4C O9 1_555 1_555
Co4C_2 O3A 1_555 1_555
O1A C8A 1_555 1_555
O2A C8A 1_555 1_555
O2B Co2 1_555 1_555
O3A Co1 1_555 1_555
O3B Co4 1_555 1_555
O3C Co1B 1_555 1_555
O4A Co2_2 1_555 1_555
O4A_2 Co2 1_555 1_555
O4C Co2B 1_555 1_555
O5B Co4B 1_555 1_555
O6B Co4B 1_555 1_555
O7B Co3 1_555 1_555
O8B Co4C 1_555 1_555
O8B_2 Co1 1_555 1_555
O8A Co4 1_555 1_555
O8_2 Co1B 1_555 1_555
O8C Co1A 1_555 1_555
O9B Co3 1_555 1_555
O9C Co4 1_555 1_555
O9A Co2A 1_555 1_555
H1B O9B 1_555 1_555
H1C O9C 1_555 1_555
H1A O9A 1_555 1_555
O10_2 Co2 1_555 1_555
O10B Co2 1_555 1_555
O10B_2 Co1B_2 1_555 1_555
H2_2 O10_2 1_555 1_555
H2B O10B 1_555 1_555
H2B_2 O10B_2 1_555 1_555
O11B Co1B 1_555 1_555
H3B O11B 1_555 1_555
H4B O11B 1_555 1_555
N1B Co1B 1_555 1_555
N2B Co2 1_555 1_555
N3B Co3 1_555 1_555
N4B Co4A 1_555 1_555
N4C Co4 1_555 1_555
N4A Co4B 1_555 1_555
N5B H5B 1_555 1_555
H6B N5B 1_555 1_555
C1B N1B 1_555 1_555
C2A C3A 1_555 1_555
C3A H7A 1_555 1_555
C4A C3A 1_555 1_555
C5A C4A 1_555 1_555
H8A C5A 1_555 1_555
C6A C5A 1_555 1_555
H9A C6A 1_555 1_555
C7A C2A 1_555 1_555
H10A C7A 1_555 1_555
C8A C2A 1_555 1_555
C9A O3A 1_555 1_555
C10B C11B 1_555 1_555
C11B H11B 1_555 1_555
C12B C11B 1_555 1_555
C13B C12B 1_555 1_555
H12B C13B 1_555 1_555
C14B C13B 1_555 1_555
H13B C14B 1_555 1_555
C15B C10B 1_555 1_555
H14B C15B 1_555 1_555
C16B O5B 1_555 1_555
C17B O7B 1_555 1_555
O10 Co2B 1_555 1_555
N2 N3 1_555 1_555
N2 Co2B 1_555 1_555
N4 C1 1_555 1_555
N4 Co4C 1_555 1_555
N5 C1 1_555 1_555
C6 C7 1_555 1_555
C10 C16 1_555 1_555
C14 C15 1_555 1_555
Co1B O10B 1_555 1_555
Co1_2 O10_2 1_555 1_555
Co2B O9B 1_555 1_555
Co2B O10B_2 1_555 1_555
Co2_2 O10B_2 1_555 1_555
Co2B_2 O10B 1_555 1_555
Co4B O8C 1_555 1_555
Co4B O9A 1_555 1_555
Co4A O9B 1_555 1_555
Co4C_2 O8B_2 1_555 1_555
O4A C9A 1_555 1_555
O6B C16B 1_555 1_555
O8B C17B 1_555 1_555
N1B N2B 1_555 1_555
N2B N3B 1_555 1_555
N3B N4B 1_555 1_555
N4B C1B 1_555 1_555
N5B C1B 1_555 1_555
C4A C9A 1_555 1_555
C6A C7A 1_555 1_555
C10B C16B 1_555 1_555
C12B C17B 1_555 1_555
C14B C15B 1_555 1_555

#END
