
#######################################################################
#
#                 Cambridge Crystallographic Data Centre
#                                CCDC 
#
#######################################################################
#
# If this CIF has been generated from an entry in the Cambridge 
# Structural Database, then it will include bibliographic, chemical, 
# crystal, experimental, refinement or atomic coordinate data resulting 
# from the CCDC's data processing and validation procedures.
#
#######################################################################

data_IVIHIF
_symmetry_cell_setting           monoclinic
_symmetry_space_group_name_H-M   'C 2/c'
_symmetry_Int_Tables_number      15
_space_group_name_Hall           '-C 2yn'
loop_
_symmetry_equiv_pos_site_id
_symmetry_equiv_pos_as_xyz
1 x,y,z
2 -x,y,1/2-z
3 1/2+x,1/2+y,z
4 1/2-x,1/2+y,1/2-z
5 -x,-y,-z
6 x,-y,1/2+z
7 1/2-x,1/2-y,-z
8 1/2+x,1/2-y,1/2+z
_cell_length_a                   12.487(3)
_cell_length_b                   14.763(3)
_cell_length_c                   13.640(3)
_cell_angle_alpha                90
_cell_angle_beta                 96.37(3)
_cell_angle_gamma                90
_cell_volume                     2498.95
loop_
_atom_site_label
_atom_site_type_symbol
_atom_site_fract_x
_atom_site_fract_y
_atom_site_fract_z
Cu1 Cu 0.7500 0.2500 0.0000
N1 N 0.69449(19) 0.11348(15) 0.08451(18)
N2 N 0.7516(2) 0.03967(16) 0.08663(18)
N3 N 0.6869(2) -0.03097(15) 0.10531(17)
N4 N 0.77477(19) -0.13096(15) 0.22666(17)
N5 N 0.78369(18) -0.17805(14) 0.38002(16)
N6 N 0.89840(19) 0.22689(16) 0.06359(17)
C1 C 0.5910(2) 0.09171(19) 0.10288(19)
C2 C 0.5014(2) 0.1468(2) 0.1090(2)
H1 H 0.5051 0.2094 0.1019
C3 C 0.4075(3) 0.1045(3) 0.1260(2)
H2 H 0.3463 0.1391 0.1317
C4 C 0.4019(3) 0.0103(3) 0.1348(2)
H3 H 0.3362 -0.0160 0.1443
C5 C 0.4888(3) -0.0445(2) 0.1299(2)
H4 H 0.4841 -0.1070 0.1361
C6 C 0.5855(2) -0.00159(19) 0.11527(19)
C7 C 0.7360(3) -0.11881(19) 0.1223(2)
H5 H 0.7958 -0.1249 0.0831
H6 H 0.6837 -0.1656 0.1017
C8 C 0.8516(2) -0.0793(2) 0.2801(2)
H7 H 0.8922 -0.0331 0.2563
C9 C 0.8564(2) -0.10866(19) 0.3741(2)
H8 H 0.9019 -0.0856 0.4269
C10 C 0.7355(2) -0.18902(17) 0.28994(19)
H9 H 0.6815 -0.2312 0.2724
C11 C 0.9817(2) 0.19370(18) 0.0825(2)
S1 S 1.10037(7) 0.14829(7) 0.10667(8)
Cu1C Cu 0.7500 -0.2500 0.5000
Cu1C_2 Cu 0.7500 0.7500 -0.5000
N1F N 0.80551(19) 0.38652(15) -0.08451(18)
N2F N 0.7484(2) 0.46033(16) -0.08663(18)
N3F N 0.8131(2) 0.53097(15) -0.10531(17)
N4F N 0.72523(19) 0.63096(15) -0.22666(17)
N5F N 0.71631(18) 0.67805(14) -0.38002(16)
N5C N 0.71631(18) 0.32195(14) 0.11998(16)
N5E N 0.78369(18) 0.17805(14) -0.11998(16)
N6F N 0.60160(19) 0.27311(16) -0.06359(17)
C1F C 0.9090(2) 0.40829(19) -0.10288(19)
C2F C 0.9986(2) 0.3532(2) -0.1090(2)
H1F H 0.9949 0.2906 -0.1019
C3F C 1.0925(3) 0.3955(3) -0.1260(2)
H2F H 1.1537 0.3609 -0.1317
C4F C 1.0981(3) 0.4897(3) -0.1348(2)
H3F H 1.1638 0.5160 -0.1443
C5F C 1.0112(3) 0.5445(2) -0.1299(2)
H4F H 1.0159 0.6070 -0.1361
C6F C 0.9145(2) 0.50159(19) -0.11527(19)
C7F C 0.7640(3) 0.61881(19) -0.1223(2)
H5F H 0.7042 0.6249 -0.0831
H6F H 0.8163 0.6656 -0.1017
C8F C 0.6484(2) 0.5793(2) -0.2801(2)
H7F H 0.6078 0.5331 -0.2563
C9F C 0.6436(2) 0.60866(19) -0.3741(2)
H8F H 0.5981 0.5856 -0.4269
C10F C 0.7645(2) 0.68902(17) -0.28994(19)
H9F H 0.8185 0.7312 -0.2724
C11F C 0.5183(2) 0.30630(18) -0.0825(2)
S1F S 0.39963(7) 0.35171(7) -0.10667(8)
loop_
_geom_bond_atom_site_label_1
_geom_bond_atom_site_label_2
_geom_bond_site_symmetry_1
_geom_bond_site_symmetry_2
Cu1 N1 1_555 1_555
N1 N2 1_555 1_555
N2 N3 1_555 1_555
N3 C6 1_555 1_555
N4 C7 1_555 1_555
N5 C9 1_555 1_555
N6 Cu1 1_555 1_555
C1 N1 1_555 1_555
C2 C1 1_555 1_555
H1 C2 1_555 1_555
C3 C2 1_555 1_555
H2 C3 1_555 1_555
C4 C3 1_555 1_555
H3 C4 1_555 1_555
C5 C4 1_555 1_555
H4 C5 1_555 1_555
C6 C1 1_555 1_555
C7 N3 1_555 1_555
H5 C7 1_555 1_555
H6 C7 1_555 1_555
C8 N4 1_555 1_555
H7 C8 1_555 1_555
C9 C8 1_555 1_555
H8 C9 1_555 1_555
C10 N4 1_555 1_555
H9 C10 1_555 1_555
C11 N6 1_555 1_555
S1 C11 1_555 1_555
Cu1C N5 1_555 1_555
Cu1C_2 N5F 1_555 1_555
N1F Cu1 1_555 1_555
N2F N1F 1_555 1_555
N3F N2F 1_555 1_555
N4F C7F 1_555 1_555
N5F C9F 1_555 1_555
N5C Cu1 1_555 1_555
N5E Cu1 1_555 1_555
N6F Cu1 1_555 1_555
C1F N1F 1_555 1_555
C2F C1F 1_555 1_555
H1F C2F 1_555 1_555
C3F C2F 1_555 1_555
H2F C3F 1_555 1_555
C4F C3F 1_555 1_555
H3F C4F 1_555 1_555
C5F C4F 1_555 1_555
H4F C5F 1_555 1_555
C6F N3F 1_555 1_555
C7F N3F 1_555 1_555
H5F C7F 1_555 1_555
H6F C7F 1_555 1_555
C8F N4F 1_555 1_555
H7F C8F 1_555 1_555
C9F C8F 1_555 1_555
H8F C9F 1_555 1_555
C10F N4F 1_555 1_555
H9F C10F 1_555 1_555
C11F N6F 1_555 1_555
S1F C11F 1_555 1_555
N5 C10 1_555 1_555
C5 C6 1_555 1_555
N5F C10F 1_555 1_555
C1F C6F 1_555 1_555
C5F C6F 1_555 1_555

#END
