
#######################################################################
#
#                 Cambridge Crystallographic Data Centre
#                                CCDC 
#
#######################################################################
#
# If this CIF has been generated from an entry in the Cambridge 
# Structural Database, then it will include bibliographic, chemical, 
# crystal, experimental, refinement or atomic coordinate data resulting 
# from the CCDC's data processing and validation procedures.
#
#######################################################################

data_IVIHOL
_symmetry_cell_setting           triclinic
_symmetry_space_group_name_H-M   'P -1'
_symmetry_Int_Tables_number      2
_space_group_name_Hall           '-P 1'
loop_
_symmetry_equiv_pos_site_id
_symmetry_equiv_pos_as_xyz
1 x,y,z
2 -x,-y,-z
_cell_length_a                   9.163(2)
_cell_length_b                   11.297(2)
_cell_length_c                   13.960(3)
_cell_angle_alpha                84.96(3)
_cell_angle_beta                 80.94(3)
_cell_angle_gamma                84.15(3)
_cell_volume                     1415.8
loop_
_atom_site_label
_atom_site_type_symbol
_atom_site_fract_x
_atom_site_fract_y
_atom_site_fract_z
Cu1 Cu 1.0000 0.5000 1.0000
Cu2 Cu 0.5000 0.0000 1.5000
N1 N 0.7922(3) 0.4512(2) 1.05800(19)
N2 N 0.7723(3) 0.3380(3) 1.0708(2)
N3 N 0.6295(3) 0.3284(3) 1.1076(2)
N4 N 0.6188(4) 0.1600(3) 1.2251(2)
N5 N 0.5927(3) 0.0817(2) 1.3757(2)
N6 N 1.0184(3) 0.3860(2) 0.89599(19)
N7 N 1.0650(3) 0.3253(2) 0.74897(19)
N8 N 1.2531(3) 0.2895(2) 0.61164(19)
N9 N 1.2816(3) 0.1796(2) 0.5796(2)
N10 N 1.4247(3) 0.1617(2) 0.5532(2)
O10 O 1.1035(3) 0.3424(2) 1.10611(19)
H2 H 1.1476 0.2762 1.0983
H3 H 1.0656 0.3341 1.1633
C1 C 0.6607(4) 0.5181(3) 1.0877(2)
C2 C 0.6225(4) 0.6411(4) 1.0891(3)
H4 H 0.6927 0.6956 1.0688
C3 C 0.4774(5) 0.6780(5) 1.1216(3)
H5 H 0.4488 0.7593 1.1234
C4 C 0.3726(5) 0.5977(6) 1.1517(3)
H6 H 0.2754 0.6272 1.1727
C5 C 0.4049(4) 0.4780(6) 1.1521(3)
H7 H 0.3327 0.4252 1.1726
C6 C 0.5545(4) 0.4374(4) 1.1196(2)
C7 C 0.5803(6) 0.2089(4) 1.1314(3)
H8 H 0.4736 0.2124 1.1334
H9 H 0.6266 0.1570 1.0813
C8 C 0.7582(5) 0.1282(4) 1.2472(3)
H10 H 0.8472 0.1370 1.2061
C9 C 0.7419(4) 0.0820(4) 1.3397(3)
H11 H 0.8191 0.0544 1.3742
C10 C 0.5222(4) 0.1302(3) 1.3049(3)
H12 H 0.4195 0.1424 1.3092
C11 C 1.0110(4) 0.2641(3) 0.9015(3)
H13 H 0.9895 0.2158 0.9585
C12 C 1.0399(4) 0.2261(3) 0.8108(3)
H14 H 1.0423 0.1481 0.7937
C13 C 1.0510(4) 0.4194(3) 0.8033(2)
H15 H 1.0629 0.4976 0.7786
C14 C 1.1001(4) 0.3315(3) 0.6435(2)
H16 H 1.0355 0.2835 0.6178
H17 H 1.0818 0.4134 0.6179
C15 C 1.3800(4) 0.3440(3) 0.6074(2)
C16 C 1.4923(4) 0.2612(3) 0.5686(3)
C17 C 1.6398(4) 0.2864(4) 0.5509(3)
H18 H 1.7150 0.2320 0.5241
C18 C 1.6684(5) 0.3961(4) 0.5753(3)
H19 H 1.7659 0.4162 0.5651
C19 C 1.5546(5) 0.4792(4) 0.6154(3)
H20 H 1.5794 0.5522 0.6311
C20 C 1.4095(5) 0.4560(3) 0.6320(3)
H21 H 1.3345 0.5110 0.6580
Cu2_2 Cu 1.5000 0.0000 0.5000
Cu2_3 Cu 1.5000 1.0000 0.5000
Cu2_4 Cu 0.5000 1.0000 1.5000
N1A N 1.2078(3) 0.5488(2) 0.94200(19)
N2A N 1.2277(3) 0.6620(3) 0.9292(2)
N3A N 1.3705(3) 0.6716(3) 0.8924(2)
N4A N 1.3812(4) 0.8400(3) 0.7749(2)
N5A N 1.4073(3) 0.9183(2) 0.6243(2)
N5A_2 N 0.4073(3) -0.0817(2) 1.6243(2)
N6A N 0.9816(3) 0.6140(2) 1.10401(19)
N7A N 0.9350(3) 0.6747(2) 1.25103(19)
N8A N 0.7469(3) 0.7105(2) 1.38836(19)
N9A N 0.7184(3) 0.8204(2) 1.4204(2)
N10A N 0.5753(3) 0.8383(2) 1.4468(2)
N10_2 N 0.4247(3) 0.1617(2) 1.5532(2)
N10A_2 N 0.5753(3) -0.1617(2) 1.4468(2)
O10A O 0.8965(3) 0.6576(2) 0.89389(19)
H2A H 0.8524 0.7238 0.9017
H3A H 0.9344 0.6659 0.8367
C1A C 1.3393(4) 0.4819(3) 0.9123(2)
C2A C 1.3775(4) 0.3589(4) 0.9109(3)
H4A H 1.3073 0.3044 0.9312
C3A C 1.5226(5) 0.3220(5) 0.8784(3)
H5A H 1.5512 0.2407 0.8766
C4A C 1.6274(5) 0.4023(6) 0.8483(3)
H6A H 1.7246 0.3728 0.8273
C5A C 1.5951(4) 0.5220(6) 0.8479(3)
H7A H 1.6673 0.5748 0.8274
C6A C 1.4455(4) 0.5626(4) 0.8804(2)
C7A C 1.4197(6) 0.7911(4) 0.8686(3)
H8A H 1.5264 0.7876 0.8666
H9A H 1.3734 0.8430 0.9187
C8A C 1.2418(5) 0.8718(4) 0.7528(3)
H10A H 1.1528 0.8630 0.7939
C9A C 1.2581(4) 0.9180(4) 0.6603(3)
H11A H 1.1809 0.9456 0.6258
C10A C 1.4778(4) 0.8698(3) 0.6951(3)
H12A H 1.5805 0.8576 0.6908
C11A C 0.9890(4) 0.7359(3) 1.0985(3)
H13A H 1.0105 0.7842 1.0415
C12A C 0.9601(4) 0.7739(3) 1.1892(3)
H14A H 0.9577 0.8519 1.2063
C13A C 0.9490(4) 0.5806(3) 1.1967(2)
H15A H 0.9371 0.5024 1.2214
C14A C 0.8999(4) 0.6685(3) 1.3565(2)
H16A H 0.9645 0.7165 1.3822
H17A H 0.9182 0.5866 1.3821
C15A C 0.6200(4) 0.6560(3) 1.3926(2)
C16A C 0.5077(4) 0.7388(3) 1.4314(3)
C17A C 0.3602(4) 0.7136(4) 1.4491(3)
H18A H 0.2850 0.7680 1.4759
C18A C 0.3316(5) 0.6039(4) 1.4247(3)
H19A H 0.2341 0.5838 1.4349
C19A C 0.4454(5) 0.5208(4) 1.3846(3)
H20A H 0.4206 0.4478 1.3689
C20A C 0.5905(5) 0.5440(3) 1.3680(3)
H21A H 0.6655 0.4890 1.3420
O1 O 0.0200(3) 0.2055(3) 0.4482(2)
O2 O -0.0564(5) 0.3303(4) 0.3195(3)
O3 O 0.1894(5) 0.2768(4) 0.3210(4)
O4 O 0.0630(6) 0.4055(3) 0.4303(3)
Cl2 Cl 0.05507(10) 0.30410(8) 0.38011(6)
Cl1 Cl 0.2323(3) 0.0172(3) 0.1301(5)
O5 O 0.0811(12) 0.0445(17) 0.1727(16)
O6 O 0.2426(9) -0.0782(5) 0.0695(7)
O7 O 0.3227(19) -0.0177(14) 0.2035(11)
O8 O 0.2824(14) 0.1234(6) 0.0771(10)
O9 O 1.2624(3) 0.0042(3) 0.4320(2)
H1 H 1.2081 0.0610 0.4536
C21 C 1.2085(16) -0.0341(10) 0.3596(10)
H22 H 1.1118 -0.0600 0.3827
H23 H 1.2731 -0.0997 0.3335
H24 H 1.2013 0.0294 0.3096
Cl3? Cl 0.2264(4) 0.0281(2) 0.0684(4)
O11? O 0.0825(10) 0.0558(14) 0.1193(11)
O12? O 0.2151(18) -0.0042(16) -0.0270(9)
O13? O 0.3134(19) -0.0603(18) 0.1172(14)
O14? O 0.301(2) 0.1354(13) 0.0576(19)
loop_
_geom_bond_atom_site_label_1
_geom_bond_atom_site_label_2
_geom_bond_site_symmetry_1
_geom_bond_site_symmetry_2
Cu1 N1 1_555 1_555
Cu2 N5 1_555 1_555
N1 N2 1_555 1_555
N2 N3 1_555 1_555
N3 C6 1_555 1_555
N4 C7 1_555 1_555
N5 C9 1_555 1_555
N6 Cu1 1_555 1_555
N7 C12 1_555 1_555
N8 N9 1_555 1_555
N9 N10 1_555 1_555
N10 C16 1_555 1_555
O1 Cl2 1_555 1_555
O2 Cl2 1_555 1_555
O3 Cl2 1_555 1_555
O4 Cl2 1_555 1_555
Cl1 O5 1_555 1_555
O6 Cl1 1_555 1_555
O7 Cl1 1_555 1_555
O8 Cl1 1_555 1_555
O9 H1 1_555 1_555
O10 Cu1 1_555 1_555
H2 O10 1_555 1_555
H3 O10 1_555 1_555
C1 N1 1_555 1_555
C2 C1 1_555 1_555
H4 C2 1_555 1_555
C3 C2 1_555 1_555
H5 C3 1_555 1_555
C4 C3 1_555 1_555
H6 C4 1_555 1_555
C5 C4 1_555 1_555
H7 C5 1_555 1_555
C6 C1 1_555 1_555
C7 N3 1_555 1_555
H8 C7 1_555 1_555
H9 C7 1_555 1_555
C8 N4 1_555 1_555
H10 C8 1_555 1_555
C9 C8 1_555 1_555
H11 C9 1_555 1_555
C10 N4 1_555 1_555
H12 C10 1_555 1_555
C11 N6 1_555 1_555
H13 C11 1_555 1_555
C12 C11 1_555 1_555
H14 C12 1_555 1_555
C13 N6 1_555 1_555
H15 C13 1_555 1_555
C14 N7 1_555 1_555
H16 C14 1_555 1_555
H17 C14 1_555 1_555
C15 N8 1_555 1_555
C16 C15 1_555 1_555
C17 C16 1_555 1_555
H18 C17 1_555 1_555
C18 C17 1_555 1_555
H19 C18 1_555 1_555
C19 C18 1_555 1_555
H20 C19 1_555 1_555
C20 C15 1_555 1_555
H21 C20 1_555 1_555
C21 O9 1_555 1_555
H22 C21 1_555 1_555
H23 C21 1_555 1_555
H24 C21 1_555 1_555
Cu2_2 N10 1_555 1_555
Cu2_3 N5A 1_555 1_555
Cu2_4 N10A 1_555 1_555
N1A Cu1 1_555 1_555
N2A N1A 1_555 1_555
N3A N2A 1_555 1_555
N4A C7A 1_555 1_555
N5A C9A 1_555 1_555
N5A_2 Cu2 1_555 1_555
N6A Cu1 1_555 1_555
N7A C12A 1_555 1_555
N8A N9A 1_555 1_555
N9A N10A 1_555 1_555
N10A C16A 1_555 1_555
N10_2 Cu2 1_555 1_555
N10A_2 Cu2 1_555 1_555
O10A Cu1 1_555 1_555
H2A O10A 1_555 1_555
H3A O10A 1_555 1_555
C1A N1A 1_555 1_555
C2A C1A 1_555 1_555
H4A C2A 1_555 1_555
C3A C2A 1_555 1_555
H5A C3A 1_555 1_555
C4A C3A 1_555 1_555
H6A C4A 1_555 1_555
C5A C4A 1_555 1_555
H7A C5A 1_555 1_555
C6A N3A 1_555 1_555
C7A N3A 1_555 1_555
H8A C7A 1_555 1_555
H9A C7A 1_555 1_555
C8A N4A 1_555 1_555
H10A C8A 1_555 1_555
C9A C8A 1_555 1_555
H11A C9A 1_555 1_555
C10A N4A 1_555 1_555
H12A C10A 1_555 1_555
C11A N6A 1_555 1_555
H13A C11A 1_555 1_555
C12A C11A 1_555 1_555
H14A C12A 1_555 1_555
C13A N6A 1_555 1_555
H15A C13A 1_555 1_555
C14A N7A 1_555 1_555
H16A C14A 1_555 1_555
H17A C14A 1_555 1_555
C15A N8A 1_555 1_555
C16A C15A 1_555 1_555
C17A C16A 1_555 1_555
H18A C17A 1_555 1_555
C18A C17A 1_555 1_555
H19A C18A 1_555 1_555
C19A C18A 1_555 1_555
H20A C19A 1_555 1_555
C20A C15A 1_555 1_555
H21A C20A 1_555 1_555
N5 C10 1_555 1_555
N7 C13 1_555 1_555
N8 C14 1_555 1_555
C5 C6 1_555 1_555
C19 C20 1_555 1_555
N5A C10A 1_555 1_555
N7A C13A 1_555 1_555
N8A C14A 1_555 1_555
C1A C6A 1_555 1_555
C5A C6A 1_555 1_555
C19A C20A 1_555 1_555

#END
