
#######################################################################
#
#                 Cambridge Crystallographic Data Centre
#                                CCDC 
#
#######################################################################
#
# If this CIF has been generated from an entry in the Cambridge 
# Structural Database, then it will include bibliographic, chemical, 
# crystal, experimental, refinement or atomic coordinate data resulting 
# from the CCDC's data processing and validation procedures.
#
#######################################################################

data_IVIHAX
_symmetry_cell_setting           monoclinic
_symmetry_space_group_name_H-M   'C 2/c'
_symmetry_Int_Tables_number      15
_space_group_name_Hall           '-C 2yn'
loop_
_symmetry_equiv_pos_site_id
_symmetry_equiv_pos_as_xyz
1 x,y,z
2 -x,y,1/2-z
3 1/2+x,1/2+y,z
4 1/2-x,1/2+y,1/2-z
5 -x,-y,-z
6 x,-y,1/2+z
7 1/2-x,1/2-y,-z
8 1/2+x,1/2-y,1/2+z
_cell_length_a                   19.603(4)
_cell_length_b                   8.611(2)
_cell_length_c                   17.330(4)
_cell_angle_alpha                90
_cell_angle_beta                 121.85(3)
_cell_angle_gamma                90
_cell_volume                     2484.87
loop_
_atom_site_label
_atom_site_type_symbol
_atom_site_fract_x
_atom_site_fract_y
_atom_site_fract_z
Ag1 Ag -0.00180(5) 0.47589(8) 0.35276(5)
N1 N 0.0812(3) 0.6642(5) 0.3785(3)
N2 N 0.0937(3) 0.7111(5) 0.3149(3)
N3 N 0.1444(2) 0.8329(5) 0.3478(3)
N4 N 0.1059(3) 1.0203(5) 0.2297(3)
N5 N 0.0401(3) 1.2376(6) 0.1747(4)
N6 N -0.1350(4) 0.6268(7) 0.3966(5)
C1 C 0.1250(3) 0.7530(6) 0.4541(4)
C2 C 0.1321(4) 0.7484(7) 0.5383(4)
H1 H 0.1042 0.6763 0.5512
C3 C 0.1821(4) 0.8549(8) 0.6007(4)
H2 H 0.1890 0.8544 0.6581
C4 C 0.2234(4) 0.9658(8) 0.5809(5)
H3 H 0.2566 1.0366 0.6258
C5 C 0.2170(4) 0.9736(6) 0.4995(5)
H4 H 0.2447 1.0471 0.4871
C6 C 0.1661(3) 0.8647(6) 0.4351(4)
C7 C 0.1669(3) 0.9114(7) 0.2912(4)
H5 H 0.1758 0.8352 0.2563
H6 H 0.2169 0.9667 0.3294
C8 C 0.1039(4) 1.1740(7) 0.2446(4)
H7 H 0.1419 1.2269 0.2966
C9 C -0.0001(4) 1.1206(9) 0.1141(5)
H8 H -0.0481 1.1323 0.0586
C10 C 0.0399(4) 0.9861(8) 0.1465(5)
H9 H 0.0257 0.8896 0.1181
O1 O -0.0636(3) 0.6317(7) 0.4358(4)
O2 O -0.1715(6) 0.6579(9) 0.4317(9)
O3 O -0.1713(5) 0.5854(13) 0.3182(5)
Ag1A Ag 0.00180(5) 1.47589(8) 0.14724(5)
N5A N -0.0401(3) 0.2376(6) 0.3253(4)
loop_
_geom_bond_atom_site_label_1
_geom_bond_atom_site_label_2
_geom_bond_site_symmetry_1
_geom_bond_site_symmetry_2
Ag1 N1 1_555 1_555
N1 N2 1_555 1_555
N2 N3 1_555 1_555
N3 C6 1_555 1_555
N4 C7 1_555 1_555
N5 C8 1_555 1_555
N6 O1 1_555 1_555
C1 N1 1_555 1_555
C2 C1 1_555 1_555
H1 C2 1_555 1_555
C3 C2 1_555 1_555
H2 C3 1_555 1_555
C4 C3 1_555 1_555
H3 C4 1_555 1_555
C5 C4 1_555 1_555
H4 C5 1_555 1_555
C6 C1 1_555 1_555
C7 N3 1_555 1_555
H5 C7 1_555 1_555
H6 C7 1_555 1_555
C8 N4 1_555 1_555
H7 C8 1_555 1_555
C9 N5 1_555 1_555
H8 C9 1_555 1_555
C10 N4 1_555 1_555
H9 C10 1_555 1_555
O1 Ag1 1_555 1_555
O2 N6 1_555 1_555
O3 N6 1_555 1_555
Ag1A N5 1_555 1_555
N5A Ag1 1_555 1_555
C5 C6 1_555 1_555
C9 C10 1_555 1_555

#END
