
#######################################################################
#
#                 Cambridge Crystallographic Data Centre
#                                CCDC 
#
#######################################################################
#
# If this CIF has been generated from an entry in the Cambridge 
# Structural Database, then it will include bibliographic, chemical, 
# crystal, experimental, refinement or atomic coordinate data resulting 
# from the CCDC's data processing and validation procedures.
#
#######################################################################

data_IVIHEB
_symmetry_cell_setting           monoclinic
_symmetry_space_group_name_H-M   'P 21/c'
_symmetry_Int_Tables_number      14
_space_group_name_Hall           '-P 2ybc'
loop_
_symmetry_equiv_pos_site_id
_symmetry_equiv_pos_as_xyz
1 x,y,z
2 -x,1/2+y,1/2-z
3 -x,-y,-z
4 x,1/2-y,1/2+z
_cell_length_a                   9.734(2)
_cell_length_b                   10.230(2)
_cell_length_c                   14.517(4)
_cell_angle_alpha                90
_cell_angle_beta                 130.59(2)
_cell_angle_gamma                90
_cell_volume                     1097.76
loop_
_atom_site_label
_atom_site_type_symbol
_atom_site_fract_x
_atom_site_fract_y
_atom_site_fract_z
Co1 Co 0.0000 0.0000 -0.5000
N1 N -0.1926(2) -0.04002(15) -0.47786(14)
N2 N -0.27651(19) -0.05854(14) -0.36957(13)
N3 N -0.13057(19) -0.11756(13) -0.16470(13)
N4 N -0.1671(2) -0.23980(14) -0.15080(13)
N5 N -0.01612(19) -0.29285(13) -0.05638(13)
N6 N -0.2046(2) 0.04936(16) -0.68292(13)
N7 N -0.1927(2) 0.14026(15) -0.72812(14)
N8 N -0.1825(4) 0.2288(2) -0.7732(2)
C1 C -0.3254(2) -0.13417(18) -0.52880(16)
H1 H -0.3720 -0.1818 -0.5983
C2 C -0.3780(2) -0.14708(18) -0.46318(17)
H2 H -0.4650 -0.2041 -0.4781
C3 C -0.1676(3) 0.00291(17) -0.38274(17)
H3 H -0.0850 0.0677 -0.3308
C4 C -0.2721(2) -0.04002(18) -0.26874(16)
H4 H -0.3881 -0.0647 -0.2934
H5 H -0.2519 0.0517 -0.2463
C5 C 0.0497(2) -0.09076(16) -0.07822(15)
C6 C 0.1554(3) 0.01832(18) -0.05415(18)
H6 H 0.1057 0.0944 -0.1001
C7 C 0.3378(3) 0.00548(19) 0.0421(2)
H7 H 0.4140 0.0747 0.0605
C8 C 0.4137(3) -0.10801(19) 0.11363(18)
H8 H 0.5378 -0.1115 0.1781
C9 C 0.3087(2) -0.21379(18) 0.09039(17)
H9 H 0.3587 -0.2887 0.1380
C10 C 0.1225(2) -0.20407(16) -0.00841(15)
Co1A Co 0.0000 -0.5000 0.0000
Co1A_2 Co 0.0000 0.5000 -1.0000
N1B N 0.1926(2) 0.04002(15) -0.52214(14)
N2B N 0.27651(19) 0.05854(14) -0.63043(13)
N3B N 0.13057(19) 0.11756(13) -0.83530(13)
N4B N 0.1671(2) 0.23980(14) -0.84920(13)
N5B N 0.01612(19) 0.29285(13) -0.94362(13)
N5A N 0.01612(19) 0.20715(13) -0.44362(13)
N5C N -0.01612(19) -0.20715(13) -0.55638(13)
N6B N 0.2046(2) -0.04936(16) -0.31708(13)
N7B N 0.1927(2) -0.14026(15) -0.27188(14)
N8B N 0.1825(4) -0.2288(2) -0.2268(2)
C1B C 0.3254(2) 0.13417(18) -0.47120(16)
H1B H 0.3720 0.1818 -0.4017
C2B C 0.3780(2) 0.14708(18) -0.53682(17)
H2B H 0.4650 0.2041 -0.5219
C3B C 0.1676(3) -0.00291(17) -0.61726(17)
H3B H 0.0850 -0.0677 -0.6692
C4B C 0.2721(2) 0.04002(18) -0.73126(16)
H4B H 0.3881 0.0647 -0.7066
H5B H 0.2519 -0.0517 -0.7537
C5B C -0.0497(2) 0.09076(16) -0.92178(15)
C6B C -0.1554(3) -0.01832(18) -0.94585(18)
H6B H -0.1057 -0.0944 -0.8999
C7B C -0.3378(3) -0.00548(19) -1.0421(2)
H7B H -0.4140 -0.0747 -1.0605
C8B C -0.4137(3) 0.10801(19) -1.11363(18)
H8B H -0.5378 0.1115 -1.1781
C9B C -0.3087(2) 0.21379(18) -1.09039(17)
H9B H -0.3587 0.2887 -1.1380
C10B C -0.1225(2) 0.20407(16) -0.99159(15)
loop_
_geom_bond_atom_site_label_1
_geom_bond_atom_site_label_2
_geom_bond_site_symmetry_1
_geom_bond_site_symmetry_2
Co1 N1 1_555 1_555
N1 C1 1_555 1_555
N2 C2 1_555 1_555
N3 N4 1_555 1_555
N4 N5 1_555 1_555
N5 C10 1_555 1_555
N6 Co1 1_555 1_555
N7 N6 1_555 1_555
N8 N7 1_555 1_555
C1 H1 1_555 1_555
C2 C1 1_555 1_555
H2 C2 1_555 1_555
C3 N1 1_555 1_555
H3 C3 1_555 1_555
C4 N2 1_555 1_555
H4 C4 1_555 1_555
H5 C4 1_555 1_555
C5 N3 1_555 1_555
C6 C5 1_555 1_555
H6 C6 1_555 1_555
C7 C6 1_555 1_555
H7 C7 1_555 1_555
C8 C7 1_555 1_555
H8 C8 1_555 1_555
C9 C8 1_555 1_555
H9 C9 1_555 1_555
C10 C5 1_555 1_555
Co1A N5 1_555 1_555
Co1A_2 N5B 1_555 1_555
N1B Co1 1_555 1_555
N2B C2B 1_555 1_555
N3B N4B 1_555 1_555
N4B N5B 1_555 1_555
N5B C10B 1_555 1_555
N5A Co1 1_555 1_555
N5C Co1 1_555 1_555
N6B Co1 1_555 1_555
N7B N6B 1_555 1_555
N8B N7B 1_555 1_555
C1B N1B 1_555 1_555
H1B C1B 1_555 1_555
C2B C1B 1_555 1_555
H2B C2B 1_555 1_555
C3B N1B 1_555 1_555
H3B C3B 1_555 1_555
C4B N2B 1_555 1_555
H4B C4B 1_555 1_555
H5B C4B 1_555 1_555
C5B N3B 1_555 1_555
C6B C5B 1_555 1_555
H6B C6B 1_555 1_555
C7B C6B 1_555 1_555
H7B C7B 1_555 1_555
C8B C7B 1_555 1_555
H8B C8B 1_555 1_555
C9B C8B 1_555 1_555
H9B C9B 1_555 1_555
C10B C5B 1_555 1_555
N2 C3 1_555 1_555
N3 C4 1_555 1_555
C9 C10 1_555 1_555
N2B C3B 1_555 1_555
N3B C4B 1_555 1_555
C9B C10B 1_555 1_555

#END
