
#######################################################################
#
#                 Cambridge Crystallographic Data Centre
#                                CCDC 
#
#######################################################################
#
# If this CIF has been generated from an entry in the Cambridge 
# Structural Database, then it will include bibliographic, chemical, 
# crystal, experimental, refinement or atomic coordinate data resulting 
# from the CCDC's data processing and validation procedures.
#
#######################################################################

data_IVIJON
_symmetry_cell_setting           tetragonal
_symmetry_space_group_name_H-M   'P 41 21 2'
_symmetry_Int_Tables_number      92
_space_group_name_Hall           'P 4abw 2nw'
loop_
_symmetry_equiv_pos_site_id
_symmetry_equiv_pos_as_xyz
1 x,y,z
2 -x,-y,1/2+z
3 1/2-y,1/2+x,1/4+z
4 1/2+y,1/2-x,3/4+z
5 1/2-x,1/2+y,1/4-z
6 1/2+x,1/2-y,3/4-z
7 y,x,-z
8 -y,-x,1/2-z
_cell_length_a                   10.3296(5)
_cell_length_b                   10.3296(5)
_cell_length_c                   32.491(3)
_cell_angle_alpha                90
_cell_angle_beta                 90
_cell_angle_gamma                90
_cell_volume                     3466.81
loop_
_atom_site_label
_atom_site_type_symbol
_atom_site_fract_x
_atom_site_fract_y
_atom_site_fract_z
Cd1 Cd 0.74744(4) 0.19931(4) 0.072299(10)
O1 O 0.8476(4) 0.2500(4) 0.13195(10)
O2 O 0.9342(4) 0.0714(4) 0.10869(10)
O3 O 0.8106(4) -0.0634(5) 0.18573(13)
O4 O 0.9561(4) -0.2157(4) 0.18211(15)
O5 O 0.6437(6) 0.0264(5) 0.11587(16)
H1 H 0.608(9) -0.048(5) 0.117(2)
H2 H 0.710(5) -0.019(8) 0.112(3)
N1 N 0.7354(4) 0.0554(4) 0.01752(11)
N2 N 0.9174(4) 0.2416(5) 0.02507(11)
C1 C 0.9875(5) 0.1388(5) 0.17816(15)
H3 H 0.9246 0.1628 0.1994
C2 C 1.0338(5) 0.0010(5) 0.18746(14)
H4 H 1.0608 0.0017 0.2164
C3 C 1.1557(6) -0.0371(6) 0.16257(18)
H5 H 1.1898 -0.1177 0.1734
H6 H 1.1311 -0.0520 0.1342
C4 C 1.2609(7) 0.0640(7) 0.1638(2)
H7 H 1.3290 0.0399 0.1447
H8 H 1.2982 0.0663 0.1912
C5 C 1.2114(6) 0.1985(6) 0.15274(19)
H9 H 1.2812 0.2608 0.1555
H10 H 1.1826 0.1992 0.1243
C6 C 1.1009(6) 0.2366(6) 0.18046(16)
H11 H 1.0699 0.3217 0.1726
H12 H 1.1317 0.2417 0.2086
C7 C 0.9201(5) 0.1524(5) 0.13622(14)
C8 C 0.9266(6) -0.0995(6) 0.18464(14)
C9 C 0.8246(5) 0.0626(5) -0.01250(15)
C10 C 0.8233(6) -0.0261(5) -0.04506(15)
H13 H 0.8868 -0.0228 -0.0653
C11 C 0.7294(7) -0.1162(6) -0.04681(17)
H14 H 0.7266 -0.1734 -0.0689
C12 C 0.6372(7) -0.1247(6) -0.01628(18)
H15 H 0.5733 -0.1881 -0.0169
C13 C 0.6436(6) -0.0352(6) 0.01539(16)
H16 H 0.5812 -0.0384 0.0360
C14 C 0.9220(5) 0.1685(5) -0.00896(14)
C15 C 1.0148(6) 0.1878(6) -0.03940(16)
H17 H 1.0190 0.1340 -0.0623
C16 C 1.1003(7) 0.2892(7) -0.03457(18)
H18 H 1.1601 0.3073 -0.0552
C17 C 1.0976(6) 0.3642(6) 0.00072(17)
H19 H 1.1567 0.4310 0.0048
C18 C 1.0038(7) 0.3362(6) 0.02976(18)
H20 H 1.0010 0.3856 0.0537
Cd1D Cd 0.75256(4) -0.30069(4) 0.177701(10)
O3D O 0.6894(4) 0.4366(5) 0.06427(13)
O4D O 0.5439(4) 0.2843(4) 0.06789(15)
loop_
_geom_bond_atom_site_label_1
_geom_bond_atom_site_label_2
_geom_bond_site_symmetry_1
_geom_bond_site_symmetry_2
Cd1 O1 1_555 1_555
O1 C7 1_555 1_555
O2 Cd1 1_555 1_555
O3 C8 1_555 1_555
O4 C8 1_555 1_555
O5 Cd1 1_555 1_555
H1 O5 1_555 1_555
H2 O5 1_555 1_555
N1 Cd1 1_555 1_555
N2 Cd1 1_555 1_555
C1 H3 1_555 1_555
C2 C1 1_555 1_555
H4 C2 1_555 1_555
C3 C2 1_555 1_555
H5 C3 1_555 1_555
H6 C3 1_555 1_555
C4 C3 1_555 1_555
H7 C4 1_555 1_555
H8 C4 1_555 1_555
C5 C4 1_555 1_555
H9 C5 1_555 1_555
H10 C5 1_555 1_555
C6 C1 1_555 1_555
H11 C6 1_555 1_555
H12 C6 1_555 1_555
C7 O2 1_555 1_555
C8 C2 1_555 1_555
C9 N1 1_555 1_555
C10 C9 1_555 1_555
H13 C10 1_555 1_555
C11 C10 1_555 1_555
H14 C11 1_555 1_555
C12 C11 1_555 1_555
H15 C12 1_555 1_555
C13 N1 1_555 1_555
H16 C13 1_555 1_555
C14 N2 1_555 1_555
C15 C14 1_555 1_555
H17 C15 1_555 1_555
C16 C15 1_555 1_555
H18 C16 1_555 1_555
C17 C16 1_555 1_555
H19 C17 1_555 1_555
C18 N2 1_555 1_555
H20 C18 1_555 1_555
Cd1D O3 1_555 1_555
O3D Cd1 1_555 1_555
O4D Cd1 1_555 1_555
O4 Cd1D 1_555 1_555
C1 C7 1_555 1_555
C5 C6 1_555 1_555
C9 C14 1_555 1_555
C12 C13 1_555 1_555
C17 C18 1_555 1_555

#END
