
#######################################################################
#
#                 Cambridge Crystallographic Data Centre
#                                CCDC 
#
#######################################################################
#
# If this CIF has been generated from an entry in the Cambridge 
# Structural Database, then it will include bibliographic, chemical, 
# crystal, experimental, refinement or atomic coordinate data resulting 
# from the CCDC's data processing and validation procedures.
#
#######################################################################

data_IVIKEE
_symmetry_cell_setting           monoclinic
_symmetry_space_group_name_H-M   'C 2/c'
_symmetry_Int_Tables_number      15
_space_group_name_Hall           '-C 2yn'
loop_
_symmetry_equiv_pos_site_id
_symmetry_equiv_pos_as_xyz
1 x,y,z
2 -x,y,1/2-z
3 1/2+x,1/2+y,z
4 1/2-x,1/2+y,1/2-z
5 -x,-y,-z
6 x,-y,1/2+z
7 1/2-x,1/2-y,-z
8 1/2+x,1/2-y,1/2+z
_cell_length_a                   26.740(4)
_cell_length_b                   10.4638(15)
_cell_length_c                   21.003(3)
_cell_angle_alpha                90
_cell_angle_beta                 97.270(2)
_cell_angle_gamma                90
_cell_volume                     5829.44
loop_
_atom_site_label
_atom_site_type_symbol
_atom_site_fract_x
_atom_site_fract_y
_atom_site_fract_z
C1 C 0.34824(10) 1.0731(3) 0.24377(13)
C2 C 0.36600(9) 0.9713(3) 0.20068(12)
H1 H 0.3929 1.0116 0.1802
C3 C 0.32581(9) 0.9317(3) 0.14518(12)
H2 H 0.3185 1.0072 0.1180
C4 C 0.34656(11) 0.8291(3) 0.10360(13)
H3 H 0.3198 0.8003 0.0712
H4 H 0.3730 0.8660 0.0817
C5 C 0.36766(12) 0.7151(3) 0.14306(15)
H5 H 0.3411 0.6753 0.1635
H6 H 0.3804 0.6525 0.1151
C6 C 0.40986(12) 0.7575(3) 0.19390(16)
H7 H 0.4372 0.7933 0.1733
H8 H 0.4228 0.6841 0.2189
C7 C 0.39099(10) 0.8578(3) 0.23851(13)
H9 H 0.4192 0.8883 0.2683
H10 H 0.3669 0.8185 0.2633
C8 C 0.27568(10) 0.8849(3) 0.16394(12)
C9 C 0.09608(12) 0.7175(3) 0.05613(15)
H11 H 0.0963 0.6341 0.0714
C10 C 0.06058(11) 0.7510(3) 0.00419(15)
H12 H 0.0384 0.6899 -0.0153
C11 C 0.05850(9) 0.8755(3) -0.01819(12)
C12 C 0.09344(10) 0.9587(3) 0.01147(13)
H13 H 0.0941 1.0429 -0.0026
C13 C 0.12773(11) 0.9183(3) 0.06220(13)
H14 H 0.1508 0.9773 0.0817
C14 C 0.02066(10) 0.9164(3) -0.07296(12)
C15 C -0.02029(12) 0.8426(4) -0.09488(14)
H15 H -0.0247 0.7627 -0.0771
C16 C -0.05529(12) 0.8896(4) -0.14441(16)
H16 H -0.0826 0.8378 -0.1588
C17 C -0.01273(12) 1.0688(4) -0.15206(17)
H17 H -0.0088 1.1469 -0.1719
C18 C 0.02412(12) 1.0315(4) -0.10289(16)
H18 H 0.0513 1.0851 -0.0903
C19 C 0.24672(11) 0.4852(3) 0.15566(13)
H19 H 0.2403 0.4741 0.1978
C20 C 0.27647(10) 0.3971(3) 0.13039(12)
H20 H 0.2902 0.3294 0.1555
C21 C 0.28615(10) 0.4090(3) 0.06728(12)
C22 C 0.26392(10) 0.5127(3) 0.03277(13)
H21 H 0.2685 0.5247 -0.0100
C23 C 0.23514(10) 0.5969(3) 0.06261(12)
H22 H 0.2209 0.6658 0.0388
C24 C 0.31915(11) 0.3170(3) 0.03860(13)
C25 C 0.35845(12) 0.2531(3) 0.07605(16)
H23 H 0.3635 0.2647 0.1203
C26 C 0.38958(13) 0.1730(3) 0.04705(18)
H24 H 0.4159 0.1334 0.0729
C27 C 0.34647(13) 0.2094(3) -0.05155(18)
H25 H 0.3420 0.1952 -0.0956
C28 C 0.31394(11) 0.2913(3) -0.02666(15)
H26 H 0.2881 0.3300 -0.0538
Cd1 Cd 0.186924(7) 0.75346(2) 0.176520(8)
N1 N 0.12941(8) 0.7993(3) 0.08457(10)
N2 N -0.05252(10) 1.0008(3) -0.17196(12)
N3 N 0.22626(8) 0.5867(2) 0.12314(10)
N4 N 0.38435(11) 0.1486(3) -0.01601(15)
O1 O 0.15028(7) 0.9185(2) 0.22903(10)
H27 H 0.1185(5) 0.945(3) 0.2108(13)
H28 H 0.1658(10) 0.9913(17) 0.2154(14)
O2 O 0.37574(7) 1.1037(2) 0.29478(9)
O3 O 0.30614(7) 1.12713(18) 0.22863(8)
O4 O 0.23749(7) 0.9001(2) 0.12366(9)
O5 O 0.27306(6) 0.82534(19) 0.21555(8)
Cd1C Cd 0.313076(7) 1.25346(2) 0.323480(8)
O2C O 0.12426(7) 0.6037(2) 0.20522(9)
O3C O 0.19386(7) 0.62713(18) 0.27137(8)
O6 O 0.30272(8) 0.6381(2) 0.30569(11)
H29 H 0.2704(5) 0.623(3) 0.3157(14)
H30 H 0.2927(12) 0.7078(19) 0.2797(13)
O7 O 0.01758(12) 0.5898(4) 0.1832(2)
H31 H 0.0522(3) 0.578(5) 0.186(2)
H32 H 0.0224(19) 0.632(5) 0.2224(13)
O8 O 0.47501(12) 0.0346(3) 0.93965(19)
loop_
_geom_bond_atom_site_label_1
_geom_bond_atom_site_label_2
_geom_bond_site_symmetry_1
_geom_bond_site_symmetry_2
C1 C2 1_555 1_555
C2 H1 1_555 1_555
C3 C2 1_555 1_555
H2 C3 1_555 1_555
C4 C3 1_555 1_555
H3 C4 1_555 1_555
H4 C4 1_555 1_555
C5 C4 1_555 1_555
H5 C5 1_555 1_555
H6 C5 1_555 1_555
C6 C5 1_555 1_555
H7 C6 1_555 1_555
H8 C6 1_555 1_555
C7 C2 1_555 1_555
H9 C7 1_555 1_555
H10 C7 1_555 1_555
C8 C3 1_555 1_555
C9 H11 1_555 1_555
C10 C9 1_555 1_555
H12 C10 1_555 1_555
C11 C10 1_555 1_555
C12 C11 1_555 1_555
H13 C12 1_555 1_555
C13 C12 1_555 1_555
H14 C13 1_555 1_555
C14 C11 1_555 1_555
C15 C14 1_555 1_555
H15 C15 1_555 1_555
C16 C15 1_555 1_555
H16 C16 1_555 1_555
C17 H17 1_555 1_555
C18 C14 1_555 1_555
H18 C18 1_555 1_555
C19 H19 1_555 1_555
C20 C19 1_555 1_555
H20 C20 1_555 1_555
C21 C20 1_555 1_555
C22 C21 1_555 1_555
H21 C22 1_555 1_555
C23 C22 1_555 1_555
H22 C23 1_555 1_555
C24 C21 1_555 1_555
C25 C24 1_555 1_555
H23 C25 1_555 1_555
C26 C25 1_555 1_555
H24 C26 1_555 1_555
C27 H25 1_555 1_555
C28 C24 1_555 1_555
H26 C28 1_555 1_555
Cd1 N1 1_555 1_555
N1 C9 1_555 1_555
N2 C16 1_555 1_555
N3 C19 1_555 1_555
N4 C26 1_555 1_555
O1 Cd1 1_555 1_555
H27 O1 1_555 1_555
H28 O1 1_555 1_555
O2 C1 1_555 1_555
O3 C1 1_555 1_555
O4 C8 1_555 1_555
O5 C8 1_555 1_555
O6 H29 1_555 1_555
H30 O6 1_555 1_555
O7 H31 1_555 1_555
H32 O7 1_555 1_555
Cd1C O2 1_555 1_555
O2C Cd1 1_555 1_555
O3C Cd1 1_555 1_555
C6 C7 1_555 1_555
C13 N1 1_555 1_555
C17 C18 1_555 1_555
C17 N2 1_555 1_555
C23 N3 1_555 1_555
C27 C28 1_555 1_555
C27 N4 1_555 1_555
Cd1 N3 1_555 1_555
Cd1 O4 1_555 1_555
Cd1 O5 1_555 1_555
O3 Cd1C 1_555 1_555

#END
