
#######################################################################
#
#                 Cambridge Crystallographic Data Centre
#                                CCDC 
#
#######################################################################
#
# If this CIF has been generated from an entry in the Cambridge 
# Structural Database, then it will include bibliographic, chemical, 
# crystal, experimental, refinement or atomic coordinate data resulting 
# from the CCDC's data processing and validation procedures.
#
#######################################################################

data_IVIKAA
_symmetry_cell_setting           monoclinic
_symmetry_space_group_name_H-M   'C 2/c'
_symmetry_Int_Tables_number      15
_space_group_name_Hall           '-C 2yn'
loop_
_symmetry_equiv_pos_site_id
_symmetry_equiv_pos_as_xyz
1 x,y,z
2 -x,y,1/2-z
3 1/2+x,1/2+y,z
4 1/2-x,1/2+y,1/2-z
5 -x,-y,-z
6 x,-y,1/2+z
7 1/2-x,1/2-y,-z
8 1/2+x,1/2-y,1/2+z
_cell_length_a                   20.835(4)
_cell_length_b                   10.177(2)
_cell_length_c                   16.014(3)
_cell_angle_alpha                90
_cell_angle_beta                 106.12(3)
_cell_angle_gamma                90
_cell_volume                     3262.07
loop_
_atom_site_label
_atom_site_type_symbol
_atom_site_fract_x
_atom_site_fract_y
_atom_site_fract_z
Cd1 Cd 0.059605(18) 0.10735(4) 0.57743(2)
O1 O 0.05468(18) -0.0238(3) 0.6986(2)
O2 O 0.01197(17) 0.0905(3) 0.4260(2)
N1 N -0.0309(2) 0.2275(4) 0.5824(3)
N2 N 0.1525(2) 0.0012(4) 0.5636(3)
N3 N 0.1500(2) 0.3210(5) 0.6297(3)
O3 O 0.1423(2) 0.2348(4) 0.6821(2)
O4 O 0.11372(19) 0.3122(4) 0.5525(2)
O5 O 0.1910(2) 0.4102(4) 0.6526(3)
C1 C 0.0114(3) -0.1014(5) 0.6558(3)
C2 C -0.0099(3) -0.2131(6) 0.7015(4)
C3 C -0.0240(4) -0.3463(7) 0.6544(6)
C4 C 0.0489(4) -0.3946(11) 0.6818(5)
C5 C -0.0740(6) -0.4043(9) 0.7184(5)
C6 C -0.0801(4) -0.2727(9) 0.6694(7)
C7 C -0.0575(3) 0.3205(6) 0.5269(4)
H1 H -0.0326 0.3506 0.4891
C8 C -0.1184(3) 0.3777(5) 0.5193(4)
H2 H -0.1348 0.4431 0.4764
C9 C -0.1554(3) 0.3404(5) 0.5734(3)
C10 C -0.1288(3) 0.2417(7) 0.6317(4)
H3 H -0.1534 0.2084 0.6689
C11 C -0.0673(3) 0.1917(7) 0.6361(4)
H4 H -0.0491 0.1279 0.6795
C12 C -0.2224(2) 0.3981(5) 0.5688(3)
C13 C -0.2557(3) 0.4799(6) 0.5037(4)
H5 H -0.2364 0.5033 0.4585
C14 C 0.1830(3) 0.0283(7) 0.5038(4)
H6 H 0.1611 0.0852 0.4577
C15 C 0.1857(3) -0.0762(6) 0.6271(4)
H7 H 0.1657 -0.0959 0.6722
C16 C -0.2531(3) 0.3699(6) 0.6328(4)
H8 H -0.2321 0.3139 0.6800
Cd1D Cd -0.059605(18) -0.10735(4) 0.42257(2)
O2D O -0.01197(17) -0.0905(3) 0.5740(2)
C1D C -0.0114(3) 0.1014(5) 0.3442(3)
C2A C 0.0099(3) -0.2131(6) 0.7985(4)
C4A C -0.0489(4) -0.3946(11) 0.8182(5)
C5A C 0.0740(6) -0.4043(9) 0.7816(5)
C13B C 0.2443(3) -0.0201(6) 0.5037(4)
C14B C -0.3170(3) 0.5283(7) 0.5038(4)
C15B C -0.3143(3) 0.4238(6) 0.6271(4)
C16B C 0.2469(3) -0.1301(6) 0.6328(4)
loop_
_geom_bond_atom_site_label_1
_geom_bond_atom_site_label_2
_geom_bond_site_symmetry_1
_geom_bond_site_symmetry_2
Cd1 O1 1_555 1_555
O1 C1 1_555 1_555
O2 Cd1 1_555 1_555
N1 Cd1 1_555 1_555
N2 Cd1 1_555 1_555
N3 O3 1_555 1_555
O3 Cd1 1_555 1_555
O4 Cd1 1_555 1_555
O5 N3 1_555 1_555
C1 C2 1_555 1_555
C2 C3 1_555 1_555
C3 C4 1_555 1_555
C4 C5A 1_555 1_555
C5 C3 1_555 1_555
C6 C2 1_555 1_555
C7 N1 1_555 1_555
H1 C7 1_555 1_555
C8 C7 1_555 1_555
H2 C8 1_555 1_555
C9 C8 1_555 1_555
C10 C9 1_555 1_555
H3 C10 1_555 1_555
C11 N1 1_555 1_555
H4 C11 1_555 1_555
C12 C9 1_555 1_555
C13 C12 1_555 1_555
H5 C13 1_555 1_555
C14 N2 1_555 1_555
H6 C14 1_555 1_555
C15 N2 1_555 1_555
H7 C15 1_555 1_555
C16 C12 1_555 1_555
H8 C16 1_555 1_555
Cd1D O2 1_555 1_555
O2D Cd1 1_555 1_555
C1D O2 1_555 1_555
C2A C2 1_555 1_555
C4A C5 1_555 1_555
C13B C14 1_555 1_555
C14B C13 1_555 1_555
C15B C16 1_555 1_555
C16B C15 1_555 1_555
N3 O4 1_555 1_555
C1 O2D 1_555 1_555
C3 C6 1_555 1_555
C5 C6 1_555 1_555
C10 C11 1_555 1_555
Cd1D O2D 1_555 1_555

#END
