
#######################################################################
#
#                 Cambridge Crystallographic Data Centre
#                                CCDC 
#
#######################################################################
#
# If this CIF has been generated from an entry in the Cambridge 
# Structural Database, then it will include bibliographic, chemical, 
# crystal, experimental, refinement or atomic coordinate data resulting 
# from the CCDC's data processing and validation procedures.
#
#######################################################################

data_IVIYAN
_symmetry_cell_setting           triclinic
_symmetry_space_group_name_H-M   'P -1'
_symmetry_Int_Tables_number      2
_space_group_name_Hall           '-P 1'
loop_
_symmetry_equiv_pos_site_id
_symmetry_equiv_pos_as_xyz
1 x,y,z
2 -x,-y,-z
_cell_length_a                   8.6002(4)
_cell_length_b                   9.6688(3)
_cell_length_c                   7.8745(5)
_cell_angle_alpha                107.718(4)
_cell_angle_beta                 112.927(2)
_cell_angle_gamma                77.416(2)
_cell_volume                     570.767
loop_
_atom_site_label
_atom_site_type_symbol
_atom_site_fract_x
_atom_site_fract_y
_atom_site_fract_z
Co1 Co 0.0000 0.0000 0.0000
S1 S 0.03249(13) -0.37439(11) 0.29011(15)
N1 N -0.1860(3) 0.1555(2) 0.1011(3)
N2 N -0.3952(3) 0.2494(3) 0.2191(4)
N3 N -0.3023(3) 0.3564(2) 0.2426(3)
N4 N -0.3962(3) 0.8248(2) 0.4769(3)
N5 N -0.3336(3) 0.8979(3) 0.3995(3)
N6 N -0.1863(3) 0.9301(2) 0.7152(3)
N7 N -0.0568(3) -0.1648(2) 0.0824(3)
C1 C -0.3185(4) 0.1307(3) 0.1360(4)
H1 H -0.3522 0.0383 0.1041
C2 C -0.1803(3) 0.2984(3) 0.1719(4)
H2 H -0.1012 0.3503 0.1716
C3 C -0.3354(4) 0.5065(3) 0.3489(4)
H3 H -0.2350 0.5559 0.3923
H4 H -0.3559 0.5034 0.4603
C4 C -0.4848(4) 0.5936(3) 0.2339(4)
H5 H -0.5798 0.5358 0.1685
H6 H -0.4553 0.6155 0.1385
C5 C -0.5375(3) 0.7357(3) 0.3589(4)
H7 H -0.6274 0.7923 0.2788
H8 H -0.5829 0.7131 0.4413
C6 C -0.3083(3) 0.8447(3) 0.6626(4)
H9 H -0.3290 0.8048 0.7442
C7 C -0.2074(4) 0.9582(3) 0.5484(4)
H10 H -0.1385 1.0156 0.5392
C8 C -0.0234(4) -0.2540(3) 0.1661(4)
N1A N 0.1860(3) -0.1555(2) -0.1011(3)
N2A N 0.3952(3) -0.2494(3) -0.2191(4)
N3A N 0.3023(3) -0.3564(2) -0.2426(3)
N4A N 0.3962(3) -0.8248(2) -0.4769(3)
N5A N 0.3336(3) -0.8979(3) -0.3995(3)
N6A N 0.1863(3) -0.9301(2) -0.7152(3)
C1A C 0.3185(4) -0.1307(3) -0.1360(4)
H1A H 0.3522 -0.0383 -0.1041
C2A C 0.1803(3) -0.2984(3) -0.1719(4)
H2A H 0.1012 -0.3503 -0.1716
C3A C 0.3354(4) -0.5065(3) -0.3489(4)
H3A H 0.2350 -0.5559 -0.3923
H4A H 0.3559 -0.5034 -0.4603
C4A C 0.4848(4) -0.5936(3) -0.2339(4)
H5A H 0.5798 -0.5358 -0.1685
H6A H 0.4553 -0.6155 -0.1385
C5A C 0.5375(3) -0.7357(3) -0.3589(4)
H7A H 0.6274 -0.7923 -0.2788
H8A H 0.5829 -0.7131 -0.4413
C6A C 0.3083(3) -0.8447(3) -0.6626(4)
H9A H 0.3290 -0.8048 -0.7442
C7A C 0.2074(4) -0.9582(3) -0.5484(4)
H10A H 0.1385 -1.0156 -0.5392
S1A S -0.03249(13) 0.37439(11) -0.29011(15)
N7A N 0.0568(3) 0.1648(2) -0.0824(3)
C8A C 0.0234(4) 0.2540(3) -0.1661(4)
N6_2 N -0.1863(3) -0.0699(2) -0.2848(3)
N6A_2 N 0.1863(3) 0.0699(2) 0.2848(3)
Co1_2 Co 0.0000 1.0000 1.0000
Co1_3 Co 0.0000 -1.0000 -1.0000
loop_
_geom_bond_atom_site_label_1
_geom_bond_atom_site_label_2
_geom_bond_site_symmetry_1
_geom_bond_site_symmetry_2
Co1 N1 1_555 1_555
S1 C8 1_555 1_555
N1 C1 1_555 1_555
N2 N3 1_555 1_555
N3 C2 1_555 1_555
N4 N5 1_555 1_555
N5 C7 1_555 1_555
N6 C6 1_555 1_555
N7 Co1 1_555 1_555
C1 N2 1_555 1_555
H1 C1 1_555 1_555
C2 N1 1_555 1_555
H2 C2 1_555 1_555
C3 N3 1_555 1_555
H3 C3 1_555 1_555
H4 C3 1_555 1_555
C4 C3 1_555 1_555
H5 C4 1_555 1_555
H6 C4 1_555 1_555
C5 N4 1_555 1_555
H7 C5 1_555 1_555
H8 C5 1_555 1_555
C6 N4 1_555 1_555
H9 C6 1_555 1_555
C7 N6 1_555 1_555
H10 C7 1_555 1_555
C8 N7 1_555 1_555
N1A Co1 1_555 1_555
N2A N3A 1_555 1_555
N3A C2A 1_555 1_555
N4A N5A 1_555 1_555
N5A C7A 1_555 1_555
N6A C6A 1_555 1_555
C1A N1A 1_555 1_555
H1A C1A 1_555 1_555
C2A N1A 1_555 1_555
H2A C2A 1_555 1_555
C3A N3A 1_555 1_555
H3A C3A 1_555 1_555
H4A C3A 1_555 1_555
C4A C3A 1_555 1_555
H5A C4A 1_555 1_555
H6A C4A 1_555 1_555
C5A N4A 1_555 1_555
H7A C5A 1_555 1_555
H8A C5A 1_555 1_555
C6A N4A 1_555 1_555
H9A C6A 1_555 1_555
C7A N6A 1_555 1_555
H10A C7A 1_555 1_555
S1A C8A 1_555 1_555
N7A Co1 1_555 1_555
C8A N7A 1_555 1_555
N6_2 Co1 1_555 1_555
N6A_2 Co1 1_555 1_555
Co1_2 N6 1_555 1_555
Co1_3 N6A 1_555 1_555
C4 C5 1_555 1_555
N2A C1A 1_555 1_555
C4A C5A 1_555 1_555

#END
