
#######################################################################
#
#                 Cambridge Crystallographic Data Centre
#                                CCDC 
#
#######################################################################
#
# If this CIF has been generated from an entry in the Cambridge 
# Structural Database, then it will include bibliographic, chemical, 
# crystal, experimental, refinement or atomic coordinate data resulting 
# from the CCDC's data processing and validation procedures.
#
#######################################################################

data_IVIYUI
_symmetry_cell_setting           triclinic
_symmetry_space_group_name_H-M   'P -1'
_symmetry_Int_Tables_number      2
_space_group_name_Hall           '-P 1'
loop_
_symmetry_equiv_pos_site_id
_symmetry_equiv_pos_as_xyz
1 x,y,z
2 -x,-y,-z
_cell_length_a                   9.4058(8)
_cell_length_b                   12.2229(11)
_cell_length_c                   15.9291(14)
_cell_angle_alpha                96.1620(10)
_cell_angle_beta                 104.9680(10)
_cell_angle_gamma                96.3590(10)
_cell_volume                     1740.57
loop_
_atom_site_label
_atom_site_type_symbol
_atom_site_fract_x
_atom_site_fract_y
_atom_site_fract_z
C32 C 1.1334(11) -0.0558(14) 0.6022(10)
H50 H 1.2081 -0.0427 0.5718
H51 H 1.1796 -0.0688 0.6607
H52 H 1.0631 -0.1196 0.5716
C33 C 1.066(2) 0.0300(17) 0.6056(12)
H53 H 1.0878 0.0681 0.6622
C34 C 0.9758(16) 0.0753(9) 0.5501(9)
C35 C 1.112(2) -0.1269(17) 0.5132(18)
H54 H 1.1388 -0.1807 0.4894
C36 C 1.0424(12) -0.0151(14) 0.5354(11)
C32A C 0.8666(11) 0.0558(14) 0.3978(10)
H50A H 0.7919 0.0427 0.4282
H51A H 0.8204 0.0688 0.3393
H52A H 0.9369 0.1196 0.4284
C33A C 0.934(2) -0.0300(17) 0.3944(12)
H53A H 0.9122 -0.0681 0.3378
C34A C 1.0242(16) -0.0753(9) 0.4499(9)
C35A C 0.888(2) 0.1269(17) 0.4868(18)
H54A H 0.8612 0.1807 0.5106
C36A C 0.9576(12) 0.0151(14) 0.4646(11)
Li1 Li -0.0487(4) -0.3372(4) 0.2204(3)
B1 B -0.8385(3) -0.2694(2) 0.1825(2)
H1 H -0.850(4) -0.240(2) 0.2489(14)
H2 H -0.915(3) -0.214(3) 0.149(2)
H3 H -0.886(3) -0.3607(16) 0.173(2)
B2 B -0.2698(3) -0.2863(3) 0.1997(2)
H4 H -0.215(3) -0.279(2) 0.2719(11)
H5 H -0.273(3) -0.376(2) 0.1674(15)
H6 H -0.185(3) -0.234(2) 0.1745(18)
N1 N -0.62360(18) -0.15635(13) 0.13603(11)
N2 N -0.55464(17) -0.29364(13) 0.20067(10)
C1 C -0.6741(2) -0.24049(16) 0.17365(13)
C2 C -0.4753(2) -0.15883(17) 0.13992(14)
H7 H -0.4173 -0.1088 0.1179
C3 C -0.4277(2) -0.24422(17) 0.18010(14)
C4 C -0.5529(2) -0.38744(17) 0.24841(14)
C5 C -0.5078(3) -0.3664(2) 0.33990(15)
C6 C -0.5012(3) -0.4584(2) 0.38439(18)
H8 H -0.4713 -0.4475 0.4454
C7 C -0.5377(3) -0.5644(2) 0.34055(19)
H9 H -0.5333 -0.6244 0.3719
C8 C -0.5808(3) -0.5826(2) 0.25061(18)
H10 H -0.6052 -0.6552 0.2217
C9 C -0.5888(2) -0.49462(18) 0.20141(15)
C10 C -0.6337(3) -0.51779(19) 0.10233(16)
H11 H -0.6157 -0.4472 0.0802
C11 C -0.5423(3) -0.5980(2) 0.0680(2)
H12 H -0.5740 -0.6102 0.0050
H13 H -0.5563 -0.6675 0.0899
H14 H -0.4390 -0.5670 0.0875
C12 C -0.7988(3) -0.5629(3) 0.0657(2)
H15 H -0.8236 -0.5762 0.0028
H16 H -0.8566 -0.5096 0.0837
H17 H -0.8199 -0.6313 0.0876
C13 C -0.4653(4) -0.2500(2) 0.39011(17)
H18 H -0.4551 -0.1986 0.3482
C14 C -0.3183(4) -0.2353(3) 0.4607(2)
H19 H -0.2960 -0.1600 0.4899
H20 H -0.2407 -0.2515 0.4343
H21 H -0.3252 -0.2851 0.5026
C15 C -0.5871(5) -0.2179(4) 0.4315(3)
H22 H -0.5580 -0.1437 0.4626
H23 H -0.6016 -0.2686 0.4715
H24 H -0.6781 -0.2211 0.3862
C16 C -0.7050(2) -0.07413(16) 0.09426(14)
C17 C -0.7314(2) 0.01651(18) 0.14731(15)
C18 C -0.7956(3) 0.09908(19) 0.10352(18)
H25 H -0.8153 0.1604 0.1362
C19 C -0.8306(3) 0.0931(2) 0.01418(19)
H26 H -0.8711 0.1507 -0.0128
C20 C -0.8059(3) 0.00210(19) -0.03580(17)
H27 H -0.8323 -0.0021 -0.0966
C21 C -0.7417(2) -0.08421(17) 0.00324(15)
C22 C -0.7194(3) -0.18648(19) -0.05228(15)
H28 H -0.6430 -0.2214 -0.0145
C23 C -0.8597(4) -0.2699(3) -0.0804(2)
H29 H -0.8436 -0.3343 -0.1150
H30 H -0.9392 -0.2371 -0.1146
H31 H -0.8853 -0.2915 -0.0293
C24 C -0.6629(4) -0.1596(3) -0.1293(2)
H32 H -0.6506 -0.2272 -0.1616
H33 H -0.5691 -0.1120 -0.1083
H34 H -0.7332 -0.1225 -0.1669
C25 C -0.6930(3) 0.0249(2) 0.24606(17)
H35 H -0.6943 -0.0510 0.2608
C26 C -0.5383(4) 0.0868(3) 0.2891(2)
H36 H -0.5173 0.0901 0.3517
H37 H -0.5324 0.1609 0.2742
H38 H -0.4669 0.0486 0.2688
C27 C -0.8039(5) 0.0782(4) 0.2845(2)
H39 H -0.7745 0.0811 0.3472
H40 H -0.9006 0.0351 0.2609
H41 H -0.8070 0.1522 0.2699
O1 O -0.0343(2) -0.46048(19) 0.28825(17)
C28 C 0.0895(4) -0.5124(4) 0.3169(3)
H42 H 0.1703 -0.4590 0.3552
H43 H 0.1217 -0.5420 0.2670
C29 C 0.0543(6) -0.5988(5) 0.3624(4)
H44 H 0.1192 -0.5871 0.4217
H45 H 0.0664 -0.6695 0.3330
C30 C -0.1015(6) -0.5987(4) 0.3640(3)
H46 H -0.1620 -0.6679 0.3329
H47 H -0.1086 -0.5897 0.4239
C31 C -0.1487(4) -0.5086(4) 0.3222(4)
H48 H -0.1708 -0.4535 0.3638
H49 H -0.2385 -0.5337 0.2748
Li1_2 Li -1.0487(4) -0.3372(4) 0.2204(3)
B1_2 B 0.1615(3) -0.2694(2) 0.1825(2)
H1_2 H 0.150(4) -0.240(2) 0.2489(14)
H2_2 H 0.085(3) -0.214(3) 0.149(2)
H3_2 H 0.114(3) -0.3607(16) 0.173(2)
loop_
_geom_bond_atom_site_label_1
_geom_bond_atom_site_label_2
_geom_bond_site_symmetry_1
_geom_bond_site_symmetry_2
Li1 H4 1_555 1_555
B1 H1 1_555 1_555
H1 Li1_2 1_555 1_555
H2 B1 1_555 1_555
H3 B1 1_555 1_555
B2 H4 1_555 1_555
H5 Li1 1_555 1_555
H6 Li1 1_555 1_555
N1 C1 1_555 1_555
N2 C1 1_555 1_555
C1 B1 1_555 1_555
C2 N1 1_555 1_555
H7 C2 1_555 1_555
C3 B2 1_555 1_555
C4 N2 1_555 1_555
C5 C4 1_555 1_555
C6 C5 1_555 1_555
H8 C6 1_555 1_555
C7 C6 1_555 1_555
H9 C7 1_555 1_555
C8 C7 1_555 1_555
H10 C8 1_555 1_555
C9 C4 1_555 1_555
C10 C9 1_555 1_555
H11 C10 1_555 1_555
C11 C10 1_555 1_555
H12 C11 1_555 1_555
H13 C11 1_555 1_555
H14 C11 1_555 1_555
C12 C10 1_555 1_555
H15 C12 1_555 1_555
H16 C12 1_555 1_555
H17 C12 1_555 1_555
C13 C5 1_555 1_555
H18 C13 1_555 1_555
C14 C13 1_555 1_555
H19 C14 1_555 1_555
H20 C14 1_555 1_555
H21 C14 1_555 1_555
C15 C13 1_555 1_555
H22 C15 1_555 1_555
H23 C15 1_555 1_555
H24 C15 1_555 1_555
C16 N1 1_555 1_555
C17 C16 1_555 1_555
C18 C17 1_555 1_555
H25 C18 1_555 1_555
C19 C18 1_555 1_555
H26 C19 1_555 1_555
C20 C19 1_555 1_555
H27 C20 1_555 1_555
C21 C16 1_555 1_555
C22 C21 1_555 1_555
H28 C22 1_555 1_555
C23 C22 1_555 1_555
H29 C23 1_555 1_555
H30 C23 1_555 1_555
H31 C23 1_555 1_555
C24 C22 1_555 1_555
H32 C24 1_555 1_555
H33 C24 1_555 1_555
H34 C24 1_555 1_555
C25 C17 1_555 1_555
H35 C25 1_555 1_555
C26 C25 1_555 1_555
H36 C26 1_555 1_555
H37 C26 1_555 1_555
H38 C26 1_555 1_555
C27 C25 1_555 1_555
H39 C27 1_555 1_555
H40 C27 1_555 1_555
H41 C27 1_555 1_555
O1 Li1 1_555 1_555
C28 O1 1_555 1_555
H42 C28 1_555 1_555
H43 C28 1_555 1_555
C29 C28 1_555 1_555
H44 C29 1_555 1_555
H45 C29 1_555 1_555
C30 C29 1_555 1_555
H46 C30 1_555 1_555
H47 C30 1_555 1_555
C31 O1 1_555 1_555
H48 C31 1_555 1_555
H49 C31 1_555 1_555
C32 H50 1_555 1_555
H51 C32 1_555 1_555
H52 C32 1_555 1_555
C33 C32 1_555 1_555
H53 C33 1_555 1_555
C34 C33 1_555 1_555
C35 C32 1_555 1_555
H54 C35 1_555 1_555
C36 C32 1_555 1_555
Li1_2 H3 1_555 1_555
B1_2 H1_2 1_555 1_555
H1_2 Li1 1_555 1_555
H2_2 B1_2 1_555 1_555
H3_2 Li1 1_555 1_555
C32A H50A 1_555 1_555
H51A C32A 1_555 1_555
H52A C32A 1_555 1_555
C33A C32A 1_555 1_555
H53A C33A 1_555 1_555
C34A C35 1_555 1_555
C35A C34 1_555 1_555
H54A C35A 1_555 1_555
C36A C34 1_555 1_555
B2 H5 1_555 1_555
B2 H6 1_555 1_555
N2 C3 1_555 1_555
C2 C3 1_555 1_555
C8 C9 1_555 1_555
C20 C21 1_555 1_555
C30 C31 1_555 1_555
H52 C35 1_555 1_555
C33 C36 1_555 1_555
C34 C36 1_555 1_555
C35 C36 1_555 1_555
C36 C34A 1_555 1_555
C36 C36A 1_555 1_555
B1_2 H3_2 1_555 1_555
C32A C35A 1_555 1_555
C32A C36A 1_555 1_555
H52A C35A 1_555 1_555
C33A C34A 1_555 1_555
C33A C36A 1_555 1_555
C34A C36A 1_555 1_555
C35A C36A 1_555 1_555

#END
