
#######################################################################
#
#                 Cambridge Crystallographic Data Centre
#                                CCDC 
#
#######################################################################
#
# If this CIF has been generated from an entry in the Cambridge 
# Structural Database, then it will include bibliographic, chemical, 
# crystal, experimental, refinement or atomic coordinate data resulting 
# from the CCDC's data processing and validation procedures.
#
#######################################################################

data_IVODOM
_symmetry_cell_setting           orthorhombic
_symmetry_space_group_name_H-M   'P 21 21 21'
_symmetry_Int_Tables_number      19
_space_group_name_Hall           'P 2ac 2ab'
loop_
_symmetry_equiv_pos_site_id
_symmetry_equiv_pos_as_xyz
1 x,y,z
2 1/2+x,1/2-y,-z
3 -x,1/2+y,1/2-z
4 1/2-x,-y,1/2+z
_cell_length_a                   13.9323(12)
_cell_length_b                   14.6573(12)
_cell_length_c                   12.1926(11)
_cell_angle_alpha                90
_cell_angle_beta                 90
_cell_angle_gamma                90
_cell_volume                     2489.85
loop_
_atom_site_label
_atom_site_type_symbol
_atom_site_fract_x
_atom_site_fract_y
_atom_site_fract_z
Ni1 Ni 0.2247(11) 0.4260(13) 0.6415(14)
Ni2 Ni 0.1679(13) 0.5250(10) 0.4025(14)
Ni3 Ni 0.0670(11) 0.5609(12) 1.1631(13)
Ni4 Ni 0.3152(12) 0.6773(12) 0.9315(13)
O1 O 0.0463(22) 0.6559(27) 1.0467(28)
O2 O 0.4022(32) 0.6894(22) 0.8013(28)
O3 O 0.1506(24) 0.5062(21) 0.7356(28)
O4 O 0.2797(28) 0.5922(29) 0.4612(28)
O5 O 0.3196(17) 0.3957(21) 0.7624(16)
O6 O 0.1300(19) 0.4336(17) 0.5133(18)
O7 O 0.3278(18) 0.5202(16) 0.6102(31)
O8 O 0.2448(20) 0.5778(16) 0.8525(30)
O9 O 0.2123(19) 0.6783(25) 1.0566(20)
O10 O 0.4214(32) 0.5346(19) 0.7894(22)
O11 O 0.1371(32) 0.3142(28) 0.694(4)
O12 O 0.0840(32) 0.6434(29) 0.451(4)
O13 O -0.0564(29) 0.6228(31) 1.237(4)
O14 O 0.3742(32) 0.7917(27) 1.022(4)
N1 N 0.5250(24) 0.5362(20) 0.6091(28)
N2 N 0.2233(21) 0.7516(26) 0.8446(26)
C1 C 0.4425(20) 0.6178(17) 0.7570(17)
C2 C 0.1259(18) 0.6896(23) 1.0055(18)
C3 C 0.4897(18) 0.6289(19) 0.6444(19)
C4 C 0.1252(20) 0.7247(18) 0.8821(18)
C5 C 0.4106(28) 0.6629(20) 0.5633(30)
C6 C 0.0906(21) 0.6491(25) 0.8040(30)
C7 C 0.3316(27) 0.5881(22) 0.5453(27)
C8 C 0.1706(18) 0.5756(16) 0.7883(21)
O9C O 0.2877(19) 0.3217(25) 0.5566(20)
O5C O 0.1804(17) 0.6043(21) 0.2624(16)
O8C O 0.2552(20) 0.4222(16) 0.3525(30)
O10C O 0.0786(32) 0.4654(19) 0.2894(22)
O5C_2 O 0.1804(17) 0.6043(21) 1.2624(16)
O7C O 0.1722(18) 0.4798(16) 1.1102(31)
O10C_2 O 0.0786(32) 0.4654(19) 1.2894(22)
N1C N -0.0250(24) 0.4638(20) 1.1091(28)
O6C O 0.3700(19) 0.5664(17) 1.0133(18)
Ni2C Ni 0.3321(13) 0.4750(10) 0.9025(14)
Ni3C Ni 0.4330(11) 0.4391(12) 0.6631(13)
Ni4C Ni 0.1848(12) 0.3227(12) 0.4315(13)
Ni1C Ni 0.2753(11) 0.5740(13) 1.1415(14)
O15 O 0.730(4) 0.568(4) 0.737(4)
O16 O 0.996(4) 0.417(5) 0.834(4)
O17 O 0.521(4) 0.243(4) 0.126(4)
O18 O 0.183(4) 0.060(4) 0.104(4)
O19 O 0.697(4) 0.718(4) 0.414(4)
O20 O 0.918(4) 0.450(4) 0.581(4)
loop_
_geom_bond_atom_site_label_1
_geom_bond_atom_site_label_2
_geom_bond_site_symmetry_1
_geom_bond_site_symmetry_2
Ni1 O3 1_555 1_555
Ni2 O4 1_555 1_555
Ni3 O1 1_555 1_555
Ni4 O2 1_555 1_555
O1 C2 1_555 1_555
O2 C1 1_555 1_555
O3 C8 1_555 1_555
O4 C7 1_555 1_555
O5 Ni1 1_555 1_555
O6 Ni1 1_555 1_555
O7 Ni1 1_555 1_555
O8 Ni4 1_555 1_555
O9 Ni4 1_555 1_555
O10 C1 1_555 1_555
O11 Ni1 1_555 1_555
O12 Ni2 1_555 1_555
O13 Ni3 1_555 1_555
O14 Ni4 1_555 1_555
N1 C3 1_555 1_555
N2 Ni4 1_555 1_555
C1 C3 1_555 1_555
C2 O9 1_555 1_555
C3 C5 1_555 1_555
C4 N2 1_555 1_555
C5 C7 1_555 1_555
C6 C4 1_555 1_555
C7 O7 1_555 1_555
C8 O8 1_555 1_555
O9C Ni1 1_555 1_555
O5C Ni2 1_555 1_555
O8C Ni2 1_555 1_555
O10C Ni2 1_555 1_555
O5C_2 Ni3 1_555 1_555
O7C Ni3 1_555 1_555
O10C_2 Ni3 1_555 1_555
N1C Ni3 1_555 1_555
O6C Ni4 1_555 1_555
Ni2C O5 1_555 1_555
Ni3C O5 1_555 1_555
Ni4C O6 1_555 1_555
Ni1C O9 1_555 1_555
Ni2 O6 1_555 1_555
O7 Ni3C 1_555 1_555
O8 Ni2C 1_555 1_555
O10 Ni2C 1_555 1_555
O10 Ni3C 1_555 1_555
N1 Ni3C 1_555 1_555
C2 C4 1_555 1_555
C6 C8 1_555 1_555
O9C Ni4C 1_555 1_555
O8C Ni4C 1_555 1_555
O5C_2 Ni1C 1_555 1_555
O7C Ni1C 1_555 1_555
O6C Ni1C 1_555 1_555
O6C Ni2C 1_555 1_555

#END
