
#######################################################################
#
#                 Cambridge Crystallographic Data Centre
#                                CCDC 
#
#######################################################################
#
# If this CIF has been generated from an entry in the Cambridge 
# Structural Database, then it will include bibliographic, chemical, 
# crystal, experimental, refinement or atomic coordinate data resulting 
# from the CCDC's data processing and validation procedures.
#
#######################################################################

data_IVONUD
_symmetry_cell_setting           monoclinic
_symmetry_space_group_name_H-M   'P 21/m'
_symmetry_Int_Tables_number      11
_space_group_name_Hall           '-P 2yb'
loop_
_symmetry_equiv_pos_site_id
_symmetry_equiv_pos_as_xyz
1 x,y,z
2 -x,1/2+y,-z
3 -x,-y,-z
4 x,1/2-y,z
_cell_length_a                   4.2751(9)
_cell_length_b                   20.540(5)
_cell_length_c                   9.072(2)
_cell_angle_alpha                90
_cell_angle_beta                 93.893(6)
_cell_angle_gamma                90
_cell_volume                     794.779
loop_
_atom_site_label
_atom_site_type_symbol
_atom_site_fract_x
_atom_site_fract_y
_atom_site_fract_z
I1 I 0.45078(14) 0.7500 0.25133(7)
Br1 Br 0.29903(18) 0.52123(3) 0.81501(8)
Cu1 Cu -0.0226(3) 0.7500 0.41179(12)
N1 N -0.0081(11) 0.6764(2) 0.5721(5)
N2 N -0.1092(11) 0.6913(2) 0.7088(5)
C1 C 0.2805(17) 0.5871(3) 0.4617(7)
H1 H 0.2177 0.6099 0.3708
H2 H 0.2091 0.5424 0.4547
H3 H 0.5072 0.5880 0.4775
C2 C 0.1382(14) 0.6198(3) 0.5883(7)
C3 C 0.1278(14) 0.5991(3) 0.7347(7)
C4 C -0.0330(14) 0.6447(3) 0.8094(7)
C5 C -0.1172(16) 0.6472(3) 0.9661(7)
H4 H 0.0029 0.6813 1.0180
H5 H -0.0700 0.6057 1.0133
H6 H -0.3393 0.6564 0.9691
C6 C -0.291(2) 0.7500 0.7229(11)
H7 H -0.4651 0.7500 0.6468
H8 H -0.3808 0.7500 0.8195
I1_2 I -0.54922(14) 0.7500 0.25133(7)
Br1C Br 0.29903(18) 0.97877(3) 0.81501(8)
Cu1_2 Cu 0.9774(3) 0.7500 0.41179(12)
N1C N -0.0081(11) 0.8236(2) 0.5721(5)
N2C N -0.1092(11) 0.8087(2) 0.7088(5)
C1C C 0.2805(17) 0.9129(3) 0.4617(7)
H1C H 0.2177 0.8901 0.3708
H2C H 0.2091 0.9576 0.4547
H3C H 0.5072 0.9120 0.4775
C2C C 0.1382(14) 0.8802(3) 0.5883(7)
C3C C 0.1278(14) 0.9009(3) 0.7347(7)
C4C C -0.0330(14) 0.8553(3) 0.8094(7)
C5C C -0.1172(16) 0.8528(3) 0.9661(7)
H4C H 0.0029 0.8187 1.0180
H5C H -0.0700 0.8943 1.0133
H6C H -0.3393 0.8436 0.9691
loop_
_geom_bond_atom_site_label_1
_geom_bond_atom_site_label_2
_geom_bond_site_symmetry_1
_geom_bond_site_symmetry_2
I1 Cu1 1_555 1_555
Br1 C3 1_555 1_555
Cu1 N1 1_555 1_555
N1 N2 1_555 1_555
N2 C4 1_555 1_555
C1 H1 1_555 1_555
H2 C1 1_555 1_555
H3 C1 1_555 1_555
C2 N1 1_555 1_555
C3 C2 1_555 1_555
C4 C3 1_555 1_555
C5 C4 1_555 1_555
H4 C5 1_555 1_555
H5 C5 1_555 1_555
H6 C5 1_555 1_555
C6 N2 1_555 1_555
H7 C6 1_555 1_555
H8 C6 1_555 1_555
I1_2 Cu1 1_555 1_555
Br1C C3C 1_555 1_555
Cu1_2 I1 1_555 1_555
N1C Cu1 1_555 1_555
N2C C6 1_555 1_555
C1C H1C 1_555 1_555
H2C C1C 1_555 1_555
H3C C1C 1_555 1_555
C2C N1C 1_555 1_555
C3C C2C 1_555 1_555
C4C N2C 1_555 1_555
C5C C4C 1_555 1_555
H4C C5C 1_555 1_555
H5C C5C 1_555 1_555
H6C C5C 1_555 1_555
C1 C2 1_555 1_555
N1C N2C 1_555 1_555
C1C C2C 1_555 1_555
C3C C4C 1_555 1_555

#END
