
#######################################################################
#
#                 Cambridge Crystallographic Data Centre
#                                CCDC 
#
#######################################################################
#
# If this CIF has been generated from an entry in the Cambridge 
# Structural Database, then it will include bibliographic, chemical, 
# crystal, experimental, refinement or atomic coordinate data resulting 
# from the CCDC's data processing and validation procedures.
#
#######################################################################

data_IVONAJ
_symmetry_cell_setting           monoclinic
_symmetry_space_group_name_H-M   'C 2/c'
_symmetry_Int_Tables_number      15
_space_group_name_Hall           '-C 2yn'
loop_
_symmetry_equiv_pos_site_id
_symmetry_equiv_pos_as_xyz
1 x,y,z
2 -x,y,1/2-z
3 1/2+x,1/2+y,z
4 1/2-x,1/2+y,1/2-z
5 -x,-y,-z
6 x,-y,1/2+z
7 1/2-x,1/2-y,-z
8 1/2+x,1/2-y,1/2+z
_cell_length_a                   30.9303(4)
_cell_length_b                   10.9638(2)
_cell_length_c                   13.6514(2)
_cell_angle_alpha                90
_cell_angle_beta                 91.1250(10)
_cell_angle_gamma                90
_cell_volume                     4628.48
loop_
_atom_site_label
_atom_site_type_symbol
_atom_site_fract_x
_atom_site_fract_y
_atom_site_fract_z
Ag1 Ag 0.525183(8) 0.06321(3) 0.353087(18)
C1 C 0.60219(11) 0.2244(3) 0.3006(2)
H1 H 0.5810 0.2864 0.3074
C2 C 0.62043(10) 0.0215(3) 0.3022(2)
H2 H 0.6121 -0.0614 0.3089
C3 C 0.66320(10) 0.0476(3) 0.2826(2)
H3 H 0.6839 -0.0159 0.2769
C4 C 0.64383(11) 0.2582(3) 0.2795(2)
H4 H 0.6510 0.3417 0.2706
C5 C 0.67507(9) 0.1692(3) 0.27133(19)
C6 C 0.72069(9) 0.2061(3) 0.25115(18)
C7 C 0.79205(9) 0.1313(3) 0.2303(2)
H5 H 0.8130 0.0981 0.2792
H6 H 0.7981 0.2194 0.2219
C8 C 0.79656(9) 0.0656(2) 0.13356(19)
H7 H 0.8256 0.0826 0.1073
H8 H 0.7944 -0.0234 0.1448
C9 C 0.77102(8) 0.2231(2) 0.01980(18)
H9 H 0.7921 0.2174 -0.0336
H10 H 0.7833 0.2772 0.0713
C10 C 0.76057(9) 0.0099(2) -0.01681(18)
H11 H 0.7900 -0.0179 -0.0331
H12 H 0.7475 0.0475 -0.0763
C11 C 0.73410(9) -0.0977(2) 0.0119(2)
H13 H 0.7352 -0.1611 -0.0396
H14 H 0.7457 -0.1329 0.0738
C12 C 0.66204(9) -0.1464(2) 0.04439(19)
C13 C 0.61792(9) -0.0967(2) 0.06238(19)
C14 C 0.58588(10) -0.1748(3) 0.0947(2)
H15 H 0.5917 -0.2594 0.1021
C15 C 0.60758(10) 0.0255(3) 0.0484(2)
H16 H 0.6284 0.0812 0.0245
C16 C 0.56634(10) 0.0640(3) 0.0699(2)
H17 H 0.5592 0.1475 0.0603
C17 C 0.54607(11) -0.1294(3) 0.1156(2)
H18 H 0.5247 -0.1835 0.1394
C18 C 0.48352(14) 0.3789(4) 0.3816(3)
C19 C 0.45958(19) 0.4917(5) 0.3829(4)
H19 H 0.4342 0.4850 0.3390
H20 H 0.4781 0.5584 0.3608
H21 H 0.4501 0.5083 0.4496
N1 N 0.59028(8) 0.1088(3) 0.31206(18)
N2 N 0.76369(7) 0.10190(19) 0.06072(15)
N3 N 0.53600(9) -0.0112(3) 0.10372(17)
N4 N 0.50194(13) 0.2907(3) 0.3794(4)
O1 O 0.73036(7) 0.30906(18) 0.22924(15)
O2 O 0.74803(6) 0.11389(19) 0.26375(13)
O3 O 0.68988(6) -0.05814(15) 0.02469(15)
O4 O 0.67093(7) -0.25255(19) 0.0498(2)
Ag1F Ag 0.974817(8) 0.43679(3) -0.353087(18)
Ag1A Ag 0.474817(8) 0.06321(3) 0.146913(18)
Ag1G Ag 1.025183(8) 0.43679(3) -0.146913(18)
C1F C 0.89781(11) 0.2756(3) -0.3006(2)
H1F H 0.9190 0.2136 -0.3074
C2F C 0.87957(10) 0.4785(3) -0.3022(2)
H2F H 0.8879 0.5614 -0.3089
C3F C 0.83680(10) 0.4524(3) -0.2826(2)
H3F H 0.8161 0.5159 -0.2769
C4F C 0.85617(11) 0.2418(3) -0.2795(2)
H4F H 0.8490 0.1583 -0.2706
C5F C 0.82493(9) 0.3308(3) -0.27133(19)
C6F C 0.77931(9) 0.2939(3) -0.25115(18)
C7F C 0.70795(9) 0.3687(3) -0.2303(2)
H5F H 0.6870 0.4019 -0.2792
H6F H 0.7019 0.2806 -0.2219
C8F C 0.70344(9) 0.4344(2) -0.13356(19)
H7F H 0.6744 0.4174 -0.1073
H8F H 0.7056 0.5234 -0.1448
C9F C 0.72898(8) 0.2769(2) -0.01980(18)
H9F H 0.7079 0.2826 0.0336
H10F H 0.7167 0.2228 -0.0713
C10F C 0.73943(9) 0.4901(2) 0.01681(18)
H11F H 0.7100 0.5179 0.0331
H12F H 0.7525 0.4525 0.0763
C11F C 0.76590(9) 0.5977(2) -0.0119(2)
H13F H 0.7648 0.6611 0.0396
H14F H 0.7543 0.6329 -0.0738
C12F C 0.83796(9) 0.6464(2) -0.04439(19)
C13F C 0.88208(9) 0.5967(2) -0.06238(19)
C14F C 0.91412(10) 0.6748(3) -0.0947(2)
H15F H 0.9083 0.7594 -0.1021
C15F C 0.89242(10) 0.4745(3) -0.0484(2)
H16F H 0.8716 0.4188 -0.0245
C16F C 0.93366(10) 0.4360(3) -0.0699(2)
H17F H 0.9408 0.3525 -0.0603
C17F C 0.95393(11) 0.6294(3) -0.1156(2)
H18F H 0.9753 0.6835 -0.1394
C18F C 1.01648(14) 0.1211(4) -0.3816(3)
C19F C 1.04042(19) 0.0083(5) -0.3829(4)
H19F H 1.0658 0.0150 -0.3390
H20F H 1.0219 -0.0584 -0.3608
H21F H 1.0499 -0.0083 -0.4496
N1F N 0.90972(8) 0.3912(3) -0.31206(18)
N2F N 0.73631(7) 0.39810(19) -0.06072(15)
N3F N 0.96400(9) 0.5112(3) -0.10372(17)
N3A N 0.46400(9) -0.0112(3) 0.39628(17)
N3G N 1.03600(9) 0.5112(3) -0.39628(17)
N4F N 0.99806(13) 0.2093(3) -0.3794(4)
O1F O 0.76964(7) 0.19094(18) -0.22924(15)
O2F O 0.75197(6) 0.38611(19) -0.26375(13)
O3F O 0.81012(6) 0.55814(15) -0.02469(15)
O4F O 0.82907(7) 0.75255(19) -0.0498(2)
Cl1 Cl 0.91957(3) 0.17928(8) 0.13357(6)
O5 O 0.9380(3) 0.0664(5) 0.1367(5)
O6 O 0.89057(14) 0.1847(6) 0.2075(3)
O7 O 0.89941(12) 0.1907(3) 0.0404(2)
O8 O 0.94964(12) 0.2748(5) 0.1486(3)
loop_
_geom_bond_atom_site_label_1
_geom_bond_atom_site_label_2
_geom_bond_site_symmetry_1
_geom_bond_site_symmetry_2
Ag1 N1 1_555 1_555
C1 H1 1_555 1_555
C2 H2 1_555 1_555
C3 C2 1_555 1_555
H3 C3 1_555 1_555
C4 C1 1_555 1_555
H4 C4 1_555 1_555
C5 C3 1_555 1_555
C6 C5 1_555 1_555
C7 H5 1_555 1_555
H6 C7 1_555 1_555
C8 C7 1_555 1_555
H7 C8 1_555 1_555
H8 C8 1_555 1_555
C9 H9 1_555 1_555
H10 C9 1_555 1_555
C10 H11 1_555 1_555
H12 C10 1_555 1_555
C11 C10 1_555 1_555
H13 C11 1_555 1_555
H14 C11 1_555 1_555
C12 C13 1_555 1_555
C13 C14 1_555 1_555
C14 H15 1_555 1_555
C15 C13 1_555 1_555
H16 C15 1_555 1_555
C16 C15 1_555 1_555
H17 C16 1_555 1_555
C17 C14 1_555 1_555
H18 C17 1_555 1_555
C18 C19 1_555 1_555
C19 H19 1_555 1_555
H20 C19 1_555 1_555
H21 C19 1_555 1_555
Cl1 O5 1_555 1_555
N1 C1 1_555 1_555
N2 C8 1_555 1_555
N3 C16 1_555 1_555
N4 Ag1 1_555 1_555
O1 C6 1_555 1_555
O2 C6 1_555 1_555
O3 C11 1_555 1_555
O4 C12 1_555 1_555
O6 Cl1 1_555 1_555
O7 Cl1 1_555 1_555
O8 Cl1 1_555 1_555
Ag1F N1F 1_555 1_555
Ag1A N3 1_555 1_555
Ag1G N3F 1_555 1_555
C1F H1F 1_555 1_555
C2F H2F 1_555 1_555
C3F C2F 1_555 1_555
H3F C3F 1_555 1_555
C4F C1F 1_555 1_555
H4F C4F 1_555 1_555
C5F C3F 1_555 1_555
C6F C5F 1_555 1_555
C7F H5F 1_555 1_555
H6F C7F 1_555 1_555
C8F C7F 1_555 1_555
H7F C8F 1_555 1_555
H8F C8F 1_555 1_555
C9F C9 1_555 1_555
H9F C9F 1_555 1_555
H10F C9F 1_555 1_555
C10F H11F 1_555 1_555
H12F C10F 1_555 1_555
C11F C10F 1_555 1_555
H13F C11F 1_555 1_555
H14F C11F 1_555 1_555
C12F C13F 1_555 1_555
C13F C14F 1_555 1_555
C14F H15F 1_555 1_555
C15F C13F 1_555 1_555
H16F C15F 1_555 1_555
C16F C15F 1_555 1_555
H17F C16F 1_555 1_555
C17F C14F 1_555 1_555
H18F C17F 1_555 1_555
C18F C19F 1_555 1_555
C19F H19F 1_555 1_555
H20F C19F 1_555 1_555
H21F C19F 1_555 1_555
N1F C1F 1_555 1_555
N2F C8F 1_555 1_555
N3F C16F 1_555 1_555
N3A Ag1 1_555 1_555
N3G Ag1F 1_555 1_555
N4F Ag1F 1_555 1_555
O1F C6F 1_555 1_555
O2F C6F 1_555 1_555
O3F C11F 1_555 1_555
O4F C12F 1_555 1_555
C2 N1 1_555 1_555
C4 C5 1_555 1_555
C7 O2 1_555 1_555
C9 N2 1_555 1_555
C10 N2 1_555 1_555
C12 O3 1_555 1_555
C17 N3 1_555 1_555
C18 N4 1_555 1_555
C2F N1F 1_555 1_555
C4F C5F 1_555 1_555
C7F O2F 1_555 1_555
C9F N2F 1_555 1_555
C10F N2F 1_555 1_555
C12F O3F 1_555 1_555
C17F N3F 1_555 1_555
C18F N4F 1_555 1_555

#END
