
#######################################################################
#
#                 Cambridge Crystallographic Data Centre
#                                CCDC 
#
#######################################################################
#
# If this CIF has been generated from an entry in the Cambridge 
# Structural Database, then it will include bibliographic, chemical, 
# crystal, experimental, refinement or atomic coordinate data resulting 
# from the CCDC's data processing and validation procedures.
#
#######################################################################

data_IVONAI
_symmetry_cell_setting           monoclinic
_symmetry_space_group_name_H-M   'P 21/n'
_symmetry_Int_Tables_number      14
_space_group_name_Hall           '-P 2yn'
loop_
_symmetry_equiv_pos_site_id
_symmetry_equiv_pos_as_xyz
1 x,y,z
2 1/2+x,1/2-y,1/2+z
3 -x,-y,-z
4 1/2-x,1/2+y,1/2-z
_cell_length_a                   7.0594(14)
_cell_length_b                   33.156(7)
_cell_length_c                   10.979(2)
_cell_angle_alpha                90
_cell_angle_beta                 102.39(3)
_cell_angle_gamma                90
_cell_volume                     2509.91
loop_
_atom_site_label
_atom_site_type_symbol
_atom_site_fract_x
_atom_site_fract_y
_atom_site_fract_z
Mn1 Mn -0.61428(15) 0.05867(3) -0.16534(10)
V1 V -0.32399(17) 0.15314(4) -0.10135(12)
V2 V -0.91802(17) 0.09416(4) 0.04334(12)
V3 V -0.47430(17) 0.12947(4) 0.18834(11)
V4 V -0.25836(17) 0.04315(4) 0.12309(11)
O1 O -0.7361(7) 0.12009(18) 0.1443(5)
O2 O -0.8356(8) 0.07586(18) -0.0737(5)
O3 O -0.2609(8) 0.16032(18) -0.2319(5)
O4 O -0.4340(7) 0.15114(17) 0.3222(5)
O5 O -0.0065(7) 0.05523(18) 0.1235(5)
O6 O -0.3881(7) 0.03929(17) -0.0191(4)
O7 O -0.3504(7) 0.08215(16) 0.2049(5)
O8 O -0.4847(7) 0.11660(16) -0.1279(5)
O9 O -0.0991(7) 0.12718(18) -0.0087(5)
O10 O -0.7377(7) -0.00026(15) -0.1978(4)
O11 O -0.4003(7) 0.16024(16) 0.0905(5)
N1 N -0.7829(8) 0.08445(18) -0.3464(6)
N2 N -0.4444(8) 0.0459(2) -0.3084(6)
N3 N -0.1842(9) 0.2116(2) -0.0263(6)
N4 N -0.5425(9) 0.1983(2) -0.1428(6)
C1 C -0.7036(10) 0.0810(2) -0.4472(7)
C2 C -0.7913(12) 0.0962(3) -0.5618(8)
H1 H -0.7330 0.0933 -0.6296
C3 C -0.9656(13) 0.1156(3) -0.5749(9)
H2 H -1.0285 0.1255 -0.6523
C4 C -1.0465(13) 0.1204(3) -0.4734(9)
H3 H -1.1623 0.1345 -0.4798
C5 C -0.9539(11) 0.1042(2) -0.3627(8)
H4 H -1.0115 0.1069 -0.2945
C6 C -0.5152(10) 0.0584(2) -0.4260(7)
C7 C -0.4195(12) 0.0501(3) -0.5200(8)
H5 H -0.4672 0.0598 -0.6002
C8 C -0.2529(12) 0.0275(3) -0.4941(8)
H6 H -0.1887 0.0212 -0.5572
C9 C -0.1829(11) 0.0145(3) -0.3773(8)
H7 H -0.0713 -0.0012 -0.3591
C10 C -0.2797(11) 0.0248(3) -0.2843(7)
H8 H -0.2282 0.0168 -0.2028
C11 C -0.2901(12) 0.2450(3) -0.0620(7)
C12 C -0.2055(16) 0.2828(3) -0.0317(9)
H9 H -0.2761 0.3061 -0.0569
C13 C -0.0190(16) 0.2853(4) 0.0349(9)
H10 H 0.0381 0.3105 0.0534
C14 C 0.0829(15) 0.2516(4) 0.0741(9)
H11 H 0.2084 0.2529 0.1223
C15 C -0.0049(12) 0.2159(3) 0.0406(8)
H12 H 0.0656 0.1926 0.0662
C16 C -0.4908(12) 0.2376(3) -0.1259(8)
C17 C -0.6254(15) 0.2671(3) -0.1683(9)
H13 H -0.5893 0.2941 -0.1568
C18 C -0.8106(14) 0.2578(3) -0.2269(10)
H14 H -0.8992 0.2781 -0.2577
C19 C -0.8628(13) 0.2186(3) -0.2393(9)
H15 H -0.9893 0.2114 -0.2765
C20 C -0.7262(12) 0.1893(3) -0.1962(8)
H16 H -0.7630 0.1623 -0.2045
O9_2 O -1.0991(7) 0.12718(18) -0.0087(5)
O5_2 O -1.0065(7) 0.05523(18) 0.1235(5)
O10B O -0.2623(7) 0.00026(15) 0.1978(4)
V4_2 V -1.25836(17) 0.04315(4) 0.12309(11)
V2_2 V 0.08198(17) 0.09416(4) 0.04334(12)
V4B V -0.74164(17) -0.04315(4) -0.12309(11)
loop_
_geom_bond_atom_site_label_1
_geom_bond_atom_site_label_2
_geom_bond_site_symmetry_1
_geom_bond_site_symmetry_2
Mn1 O2 1_555 1_555
V1 O3 1_555 1_555
V2 O1 1_555 1_555
V3 O1 1_555 1_555
V4 O5 1_555 1_555
O2 V2 1_555 1_555
O4 V3 1_555 1_555
O5 V2_2 1_555 1_555
O6 Mn1 1_555 1_555
O7 V3 1_555 1_555
O8 Mn1 1_555 1_555
O9 V1 1_555 1_555
O10 Mn1 1_555 1_555
O11 V1 1_555 1_555
N1 Mn1 1_555 1_555
N2 Mn1 1_555 1_555
N3 V1 1_555 1_555
N4 V1 1_555 1_555
C1 N1 1_555 1_555
C2 C1 1_555 1_555
H1 C2 1_555 1_555
C3 C2 1_555 1_555
H2 C3 1_555 1_555
C4 C3 1_555 1_555
H3 C4 1_555 1_555
C5 N1 1_555 1_555
H4 C5 1_555 1_555
C6 N2 1_555 1_555
C7 C6 1_555 1_555
H5 C7 1_555 1_555
C8 C7 1_555 1_555
H6 C8 1_555 1_555
C9 C8 1_555 1_555
H7 C9 1_555 1_555
C10 N2 1_555 1_555
H8 C10 1_555 1_555
C11 N3 1_555 1_555
C12 C11 1_555 1_555
H9 C12 1_555 1_555
C13 C12 1_555 1_555
H10 C13 1_555 1_555
C14 C13 1_555 1_555
H11 C14 1_555 1_555
C15 N3 1_555 1_555
H12 C15 1_555 1_555
C16 N4 1_555 1_555
C17 C16 1_555 1_555
H13 C17 1_555 1_555
C18 C17 1_555 1_555
H14 C18 1_555 1_555
C19 C18 1_555 1_555
H15 C19 1_555 1_555
C20 N4 1_555 1_555
H16 C20 1_555 1_555
O9_2 V2 1_555 1_555
O5_2 V2 1_555 1_555
O10B V4 1_555 1_555
V4_2 O5_2 1_555 1_555
V2_2 O9 1_555 1_555
V4B O10 1_555 1_555
V1 O8 1_555 1_555
V3 O11 1_555 1_555
V4 O6 1_555 1_555
V4 O7 1_555 1_555
C1 C6 1_555 1_555
C4 C5 1_555 1_555
C9 C10 1_555 1_555
C11 C16 1_555 1_555
C14 C15 1_555 1_555
C19 C20 1_555 1_555

#END
