
#######################################################################
#
#                 Cambridge Crystallographic Data Centre
#                                CCDC 
#
#######################################################################
#
# If this CIF has been generated from an entry in the Cambridge 
# Structural Database, then it will include bibliographic, chemical, 
# crystal, experimental, refinement or atomic coordinate data resulting 
# from the CCDC's data processing and validation procedures.
#
#######################################################################

data_IVONEN
_symmetry_cell_setting           monoclinic
_symmetry_space_group_name_H-M   'C 2/c'
_symmetry_Int_Tables_number      15
_space_group_name_Hall           '-C 2yn'
loop_
_symmetry_equiv_pos_site_id
_symmetry_equiv_pos_as_xyz
1 x,y,z
2 -x,y,1/2-z
3 1/2+x,1/2+y,z
4 1/2-x,1/2+y,1/2-z
5 -x,-y,-z
6 x,-y,1/2+z
7 1/2-x,1/2-y,-z
8 1/2+x,1/2-y,1/2+z
_cell_length_a                   30.5018(4)
_cell_length_b                   10.9900(2)
_cell_length_c                   13.6994(2)
_cell_angle_alpha                90
_cell_angle_beta                 92.0820(10)
_cell_angle_gamma                90
_cell_volume                     4589.21
loop_
_atom_site_label
_atom_site_type_symbol
_atom_site_fract_x
_atom_site_fract_y
_atom_site_fract_z
Ag1 Ag 0.473234(11) 0.43079(4) 0.14815(3)
C1 C 0.61746(14) 0.5921(4) 0.0638(3)
C2 C 0.60678(14) 0.4718(4) 0.0475(3)
H1 H 0.6272 0.4181 0.0227
C3 C 0.56501(15) 0.4324(4) 0.0687(3)
H2 H 0.5577 0.3514 0.0569
C4 C 0.54532(16) 0.6229(5) 0.1205(4)
H3 H 0.5244 0.6746 0.1459
C5 C 0.58579(15) 0.6691(4) 0.0998(4)
H4 H 0.5919 0.7511 0.1099
C6 C 0.66197(14) 0.6434(4) 0.0463(3)
C7 C 0.73497(13) 0.5964(3) 0.0113(3)
H5 H 0.7471 0.6307 0.0716
H6 H 0.7354 0.6585 -0.0389
C8 C 0.76130(12) 0.4895(3) -0.0179(3)
H7 H 0.7476 0.4528 -0.0757
H8 H 0.7903 0.5167 -0.0346
C9 C 0.77200(11) 0.2761(3) 0.0186(3)
H9 H 0.7849 0.2230 0.0684
H10 H 0.7920 0.2807 -0.0348
C10 C 0.79983(13) 0.4325(3) 0.1308(3)
H11 H 0.7982 0.5196 0.1416
H12 H 0.8282 0.4150 0.1042
C11 C 0.79665(13) 0.3681(4) 0.2279(3)
H13 H 0.8029 0.2821 0.2203
H14 H 0.8178 0.4018 0.2750
C12 C 0.72465(14) 0.2920(4) 0.2502(3)
C13 C 0.67863(13) 0.3294(4) 0.2693(3)
C14 C 0.64694(15) 0.2399(4) 0.2752(3)
H15 H 0.6540 0.1587 0.2652
C15 C 0.60455(16) 0.2730(5) 0.2960(4)
H16 H 0.5834 0.2124 0.3001
C16 C 0.62305(16) 0.4749(5) 0.3024(3)
H17 H 0.6147 0.5555 0.3109
C17 C 0.66656(15) 0.4500(4) 0.2818(3)
H18 H 0.6869 0.5124 0.2766
C18 C 0.5143(2) 0.1165(7) 0.1200(5)
C19 C 0.5381(4) 0.0032(8) 0.1177(7)
H19 H 0.5474 -0.0117 0.0526
H20 H 0.5195 -0.0619 0.1376
H21 H 0.5634 0.0079 0.1616
N1 N 0.53491(12) 0.5054(4) 0.1052(3)
N2 N 0.59280(13) 0.3882(4) 0.3104(3)
N3 N 0.76554(10) 0.3975(3) 0.0593(2)
N4 N 0.4958(2) 0.2057(6) 0.1219(5)
O1 O 0.67084(11) 0.7497(3) 0.0522(3)
O2 O 0.69030(10) 0.5559(2) 0.0247(2)
O3 O 0.75242(9) 0.3846(3) 0.2618(2)
O4 O 0.73424(10) 0.1895(3) 0.2290(2)
Ag1F Ag 1.026766(11) 0.06921(4) -0.14815(3)
Ag1A Ag 0.526766(11) 0.43079(4) 0.35185(3)
Ag1G Ag 0.973234(11) 0.06921(4) -0.35185(3)
C1F C 0.88254(14) -0.0921(4) -0.0638(3)
C2F C 0.89322(14) 0.0282(4) -0.0475(3)
H1F H 0.8728 0.0819 -0.0227
C3F C 0.93499(15) 0.0676(4) -0.0687(3)
H2F H 0.9423 0.1486 -0.0569
C4F C 0.95468(16) -0.1229(5) -0.1205(4)
H3F H 0.9756 -0.1746 -0.1459
C5F C 0.91421(15) -0.1691(4) -0.0998(4)
H4F H 0.9081 -0.2511 -0.1099
C6F C 0.83803(14) -0.1434(4) -0.0463(3)
C7F C 0.76503(13) -0.0964(3) -0.0113(3)
H5F H 0.7529 -0.1307 -0.0716
H6F H 0.7646 -0.1585 0.0389
C8F C 0.73870(12) 0.0105(3) 0.0179(3)
H7F H 0.7524 0.0472 0.0757
H8F H 0.7097 -0.0167 0.0346
C9F C 0.72800(11) 0.2239(3) -0.0186(3)
H9F H 0.7151 0.2770 -0.0684
H10F H 0.7080 0.2193 0.0348
C10F C 0.70017(13) 0.0675(3) -0.1308(3)
H11F H 0.7018 -0.0196 -0.1416
H12F H 0.6718 0.0850 -0.1042
C11F C 0.70335(13) 0.1319(4) -0.2279(3)
H13F H 0.6971 0.2179 -0.2203
H14F H 0.6822 0.0982 -0.2750
C12F C 0.77535(14) 0.2080(4) -0.2502(3)
C13F C 0.82137(13) 0.1706(4) -0.2693(3)
C14F C 0.85306(15) 0.2601(4) -0.2752(3)
H15F H 0.8460 0.3413 -0.2652
C15F C 0.89545(16) 0.2270(5) -0.2960(4)
H16F H 0.9166 0.2876 -0.3001
C16F C 0.87695(16) 0.0251(5) -0.3024(3)
H17F H 0.8853 -0.0555 -0.3109
C17F C 0.83344(15) 0.0500(4) -0.2818(3)
H18F H 0.8131 -0.0124 -0.2766
C18F C 0.9857(2) 0.3835(7) -0.1200(5)
C19F C 0.9619(4) 0.4968(8) -0.1177(7)
H19F H 0.9526 0.5117 -0.0526
H20F H 0.9805 0.5619 -0.1376
H21F H 0.9366 0.4921 -0.1616
N1F N 0.96509(12) -0.0054(4) -0.1052(3)
N2F N 0.90720(13) 0.1118(4) -0.3104(3)
N2A N 0.40720(13) 0.3882(4) 0.1896(3)
N2G N 1.09280(13) 0.1118(4) -0.1896(3)
N3F N 0.73446(10) 0.1025(3) -0.0593(2)
N4F N 1.0042(2) 0.2943(6) -0.1219(5)
O1F O 0.82916(11) -0.2497(3) -0.0522(3)
O2F O 0.80970(10) -0.0559(2) -0.0247(2)
O3F O 0.74758(9) 0.1154(3) -0.2618(2)
O4F O 0.76576(10) 0.3105(3) -0.2290(2)
B1 B 0.4205(2) 0.8110(6) 0.1331(5)
F1 F 0.44973(18) 0.7214(7) 0.1539(5)
F2 F 0.3882(3) 0.7816(12) 0.1797(10)
F3 F 0.4065(3) 0.8137(7) 0.0438(4)
F4 F 0.4235(5) 0.9134(10) 0.1676(11)
loop_
_geom_bond_atom_site_label_1
_geom_bond_atom_site_label_2
_geom_bond_site_symmetry_1
_geom_bond_site_symmetry_2
Ag1 N1 1_555 1_555
B1 F1 1_555 1_555
C1 C2 1_555 1_555
C2 H1 1_555 1_555
C3 C2 1_555 1_555
H2 C3 1_555 1_555
C4 H3 1_555 1_555
C5 C1 1_555 1_555
H4 C5 1_555 1_555
C6 C1 1_555 1_555
C7 H5 1_555 1_555
H6 C7 1_555 1_555
C8 C7 1_555 1_555
H7 C8 1_555 1_555
H8 C8 1_555 1_555
C9 H9 1_555 1_555
H10 C9 1_555 1_555
C10 H11 1_555 1_555
H12 C10 1_555 1_555
C11 C10 1_555 1_555
H13 C11 1_555 1_555
H14 C11 1_555 1_555
C12 C13 1_555 1_555
C13 C14 1_555 1_555
C14 H15 1_555 1_555
C15 C14 1_555 1_555
H16 C15 1_555 1_555
C16 H17 1_555 1_555
C17 C13 1_555 1_555
H18 C17 1_555 1_555
C18 C19 1_555 1_555
C19 H19 1_555 1_555
H20 C19 1_555 1_555
H21 C19 1_555 1_555
F2 B1 1_555 1_555
F3 B1 1_555 1_555
F4 B1 1_555 1_555
N1 C3 1_555 1_555
N2 C15 1_555 1_555
N3 C8 1_555 1_555
N4 Ag1 1_555 1_555
O1 C6 1_555 1_555
O2 C6 1_555 1_555
O3 C11 1_555 1_555
O4 C12 1_555 1_555
Ag1F N1F 1_555 1_555
Ag1A N2 1_555 1_555
Ag1G N2F 1_555 1_555
C1F C2F 1_555 1_555
C2F H1F 1_555 1_555
C3F C2F 1_555 1_555
H2F C3F 1_555 1_555
C4F H3F 1_555 1_555
C5F C1F 1_555 1_555
H4F C5F 1_555 1_555
C6F C1F 1_555 1_555
C7F H5F 1_555 1_555
H6F C7F 1_555 1_555
C8F C7F 1_555 1_555
H7F C8F 1_555 1_555
H8F C8F 1_555 1_555
C9F C9 1_555 1_555
H9F C9F 1_555 1_555
H10F C9F 1_555 1_555
C10F H11F 1_555 1_555
H12F C10F 1_555 1_555
C11F C10F 1_555 1_555
H13F C11F 1_555 1_555
H14F C11F 1_555 1_555
C12F C13F 1_555 1_555
C13F C14F 1_555 1_555
C14F H15F 1_555 1_555
C15F C14F 1_555 1_555
H16F C15F 1_555 1_555
C16F H17F 1_555 1_555
C17F C13F 1_555 1_555
H18F C17F 1_555 1_555
C18F C19F 1_555 1_555
C19F H19F 1_555 1_555
H20F C19F 1_555 1_555
H21F C19F 1_555 1_555
N1F C3F 1_555 1_555
N2F C15F 1_555 1_555
N2A Ag1 1_555 1_555
N2G Ag1F 1_555 1_555
N3F C8F 1_555 1_555
N4F Ag1F 1_555 1_555
O1F C6F 1_555 1_555
O2F C6F 1_555 1_555
O3F C11F 1_555 1_555
O4F C12F 1_555 1_555
C4 C5 1_555 1_555
C4 N1 1_555 1_555
C7 O2 1_555 1_555
C9 N3 1_555 1_555
C10 N3 1_555 1_555
C12 O3 1_555 1_555
C16 C17 1_555 1_555
C16 N2 1_555 1_555
C18 N4 1_555 1_555
C4F C5F 1_555 1_555
C4F N1F 1_555 1_555
C7F O2F 1_555 1_555
C9F N3F 1_555 1_555
C10F N3F 1_555 1_555
C12F O3F 1_555 1_555
C16F C17F 1_555 1_555
C16F N2F 1_555 1_555
C18F N4F 1_555 1_555

#END
