
#######################################################################
#
#                 Cambridge Crystallographic Data Centre
#                                CCDC 
#
#######################################################################
#
# If this CIF has been generated from an entry in the Cambridge 
# Structural Database, then it will include bibliographic, chemical, 
# crystal, experimental, refinement or atomic coordinate data resulting 
# from the CCDC's data processing and validation procedures.
#
#######################################################################

data_IVONAI02
_symmetry_cell_setting           monoclinic
_symmetry_space_group_name_H-M   'P 21/n'
_symmetry_Int_Tables_number      14
_space_group_name_Hall           '-P 2yn'
loop_
_symmetry_equiv_pos_site_id
_symmetry_equiv_pos_as_xyz
1 x,y,z
2 1/2-x,1/2+y,1/2-z
3 -x,-y,-z
4 1/2+x,1/2-y,1/2+z
_cell_length_a                   7.0293(6)
_cell_length_b                   33.153(3)
_cell_length_c                   11.0041(9)
_cell_angle_alpha                90
_cell_angle_beta                 102.079(1)
_cell_angle_gamma                90
_cell_volume                     2507.65
loop_
_atom_site_label
_atom_site_type_symbol
_atom_site_fract_x
_atom_site_fract_y
_atom_site_fract_z
Mn1 Mn 0.38185(9) 0.059123(19) 0.83687(6)
V1 V 0.67850(10) 0.15303(2) 0.90105(7)
V2 V 0.07993(11) 0.09388(2) 1.04331(7)
V3 V 0.51896(11) 0.12875(2) 1.18834(7)
V4 V 0.74009(10) 0.04319(2) 1.12276(6)
O1 O 0.2574(5) 0.11875(12) 1.1435(3)
O2 O 0.1619(5) 0.07620(13) 0.9286(3)
O3 O 0.7439(5) 0.16010(11) 0.7708(3)
O4 O 0.5561(5) 0.15025(11) 1.3227(3)
O5 O -0.0103(5) 0.05563(11) 1.1202(4)
O6 O 0.6068(5) 0.03942(10) 0.9815(3)
O7 O 0.6475(5) 0.08122(10) 1.2061(3)
O8 O 0.5150(5) 0.11633(9) 0.8728(3)
O9 O 0.9017(5) 0.12625(11) 0.9947(4)
O10 O 0.2622(5) -0.00001(9) 0.8043(3)
O11 O 0.5961(5) 0.15944(10) 1.0926(3)
N1 N 0.2137(5) 0.08463(11) 0.6568(3)
N2 N 0.5547(5) 0.04566(11) 0.6947(3)
N3 N 0.8193(6) 0.21092(12) 0.9775(4)
N4 N 0.4604(5) 0.19872(11) 0.8611(3)
C1 C 0.2955(6) 0.08028(13) 0.5564(4)
C2 C 0.2054(8) 0.09538(16) 0.4400(5)
H1 H 0.2623 0.0921 0.3715
C3 C 0.0298(8) 0.11539(16) 0.4288(6)
H2 H -0.0338 0.1253 0.3520
C4 C -0.0495(7) 0.12046(15) 0.5303(6)
H3 H -0.1656 0.1345 0.5241
C5 C 0.0447(7) 0.10440(15) 0.6429(5)
H4 H -0.0117 0.1075 0.7116
C6 C 0.4831(6) 0.05807(13) 0.5777(4)
C7 C 0.5795(7) 0.04943(15) 0.4826(4)
H5 H 0.5307 0.0586 0.4022
C8 C 0.7479(8) 0.02708(17) 0.5090(5)
H6 H 0.8131 0.0207 0.4462
C9 C 0.8193(7) 0.01425(17) 0.6277(5)
H7 H 0.9331 -0.0009 0.6470
C10 C 0.7191(7) 0.02419(15) 0.7182(5)
H8 H 0.7678 0.0156 0.7992
C11 C 0.7151(8) 0.24450(14) 0.9431(5)
C12 C 0.7970(11) 0.28279(17) 0.9697(6)
H9 H 0.7261 0.3059 0.9417
C13 C 0.9852(12) 0.2857(2) 1.0384(6)
H10 H 1.0431 0.3107 1.0577
C14 C 1.0829(11) 0.2516(2) 1.0766(6)
H11 H 1.2076 0.2530 1.1259
C15 C 0.9997(9) 0.21432(19) 1.0435(5)
H12 H 1.0719 0.1911 1.0679
C16 C 0.5128(8) 0.23786(14) 0.8782(5)
C17 C 0.3759(9) 0.26793(16) 0.8353(6)
H13 H 0.4112 0.2949 0.8471
C18 C 0.1907(10) 0.25811(18) 0.7763(6)
H14 H 0.1013 0.2782 0.7450
C19 C 0.1389(8) 0.21824(19) 0.7640(6)
H15 H 0.0125 0.2108 0.7270
C20 C 0.2767(7) 0.18960(16) 0.8070(5)
H16 H 0.2411 0.1626 0.7984
V2_2 V 1.07993(11) 0.09388(2) 1.04331(7)
V4_2 V -0.25991(10) 0.04319(2) 1.12276(6)
V4B V 0.25991(10) -0.04319(2) 0.87724(6)
O5_2 O 0.9897(5) 0.05563(11) 1.1202(4)
O9_2 O -0.0983(5) 0.12625(11) 0.9947(4)
O10B O 0.7378(5) 0.00001(9) 1.1957(3)
loop_
_geom_bond_atom_site_label_1
_geom_bond_atom_site_label_2
_geom_bond_site_symmetry_1
_geom_bond_site_symmetry_2
Mn1 O2 1_555 1_555
V1 O3 1_555 1_555
V2 O1 1_555 1_555
V3 O1 1_555 1_555
V4 O6 1_555 1_555
O2 V2 1_555 1_555
O4 V3 1_555 1_555
O5 V2 1_555 1_555
O6 Mn1 1_555 1_555
O7 V3 1_555 1_555
O8 Mn1 1_555 1_555
O9 V1 1_555 1_555
O10 Mn1 1_555 1_555
O11 V1 1_555 1_555
N1 Mn1 1_555 1_555
N2 Mn1 1_555 1_555
N3 V1 1_555 1_555
N4 V1 1_555 1_555
C1 N1 1_555 1_555
C2 C1 1_555 1_555
H1 C2 1_555 1_555
C3 C2 1_555 1_555
H2 C3 1_555 1_555
C4 C3 1_555 1_555
H3 C4 1_555 1_555
C5 N1 1_555 1_555
H4 C5 1_555 1_555
C6 N2 1_555 1_555
C7 C6 1_555 1_555
H5 C7 1_555 1_555
C8 C7 1_555 1_555
H6 C8 1_555 1_555
C9 C8 1_555 1_555
H7 C9 1_555 1_555
C10 N2 1_555 1_555
H8 C10 1_555 1_555
C11 N3 1_555 1_555
C12 C11 1_555 1_555
H9 C12 1_555 1_555
C13 C12 1_555 1_555
H10 C13 1_555 1_555
C14 C13 1_555 1_555
H11 C14 1_555 1_555
C15 N3 1_555 1_555
H12 C15 1_555 1_555
C16 N4 1_555 1_555
C17 C16 1_555 1_555
H13 C17 1_555 1_555
C18 C17 1_555 1_555
H14 C18 1_555 1_555
C19 C18 1_555 1_555
H15 C19 1_555 1_555
C20 N4 1_555 1_555
H16 C20 1_555 1_555
V2_2 O9 1_555 1_555
V4_2 O5 1_555 1_555
V4B O10 1_555 1_555
O5_2 V4 1_555 1_555
O9_2 V2 1_555 1_555
O10B V4 1_555 1_555
V1 O8 1_555 1_555
V3 O11 1_555 1_555
V4 O7 1_555 1_555
C1 C6 1_555 1_555
C4 C5 1_555 1_555
C9 C10 1_555 1_555
C11 C16 1_555 1_555
C14 C15 1_555 1_555
C19 C20 1_555 1_555
V2_2 O5_2 1_555 1_555

#END
