
#######################################################################
#
#                 Cambridge Crystallographic Data Centre
#                                CCDC 
#
#######################################################################
#
# If this CIF has been generated from an entry in the Cambridge 
# Structural Database, then it will include bibliographic, chemical, 
# crystal, experimental, refinement or atomic coordinate data resulting 
# from the CCDC's data processing and validation procedures.
#
#######################################################################

data_IVOQUG
_symmetry_cell_setting           triclinic
_symmetry_space_group_name_H-M   'P -1'
_symmetry_Int_Tables_number      2
_space_group_name_Hall           '-P 1'
loop_
_symmetry_equiv_pos_site_id
_symmetry_equiv_pos_as_xyz
1 x,y,z
2 -x,-y,-z
_cell_length_a                   13.3797(13)
_cell_length_b                   14.0893(15)
_cell_length_c                   14.7212(16)
_cell_angle_alpha                99.4020(10)
_cell_angle_beta                 110.628(2)
_cell_angle_gamma                100.2600(10)
_cell_volume                     2477.43
loop_
_atom_site_label
_atom_site_type_symbol
_atom_site_fract_x
_atom_site_fract_y
_atom_site_fract_z
Cu1 Cu 0.89596(5) 0.53164(4) 0.41570(4)
Cu2 Cu 1.04325(5) 0.40769(4) 1.05067(4)
Cu3 Cu 0.44719(4) 0.04027(4) 0.55275(4)
N1 N 0.7970(3) 0.3977(3) 0.3672(3)
N2 N 0.9061(3) 0.3053(3) 0.9720(3)
N3 N 0.9911(3) 0.6742(3) 0.4524(3)
N4 N 1.1857(3) 0.5077(3) 1.1485(3)
N5 N 0.3630(3) 0.0934(3) 0.6432(3)
O1 O 1.0165(3) 0.4814(2) 0.4068(2)
O2 O 0.7780(3) 0.5909(3) 0.4061(3)
O3 O 0.6139(3) 0.6057(3) 0.3892(5)
O4 O 0.4889(3) 0.1604(2) 0.5084(2)
O5 O 0.5810(3) 0.0945(2) 0.4245(3)
O6 O 0.9645(3) 0.4984(3) 1.0841(3)
O7 O 1.1316(3) 0.3201(3) 1.0348(3)
O8 O 1.1773(3) 0.1862(3) 0.9806(3)
O9 O 0.5954(3) 0.0779(3) 0.6615(2)
O10 O 0.6832(3) 0.0078(3) 0.5744(2)
C1 C 0.8118(4) 0.3265(4) 0.3084(3)
H4 H 0.7532 0.2699 0.2768
C2 C 0.9080(4) 0.3258(4) 0.2872(4)
C3 C 1.0063(4) 0.4004(4) 0.3411(4)
C4 C 1.1054(4) 0.3904(4) 0.3287(4)
H5 H 1.1709 0.4394 0.3649
C5 C 1.1037(5) 0.3083(4) 0.2633(4)
H6 H 1.1692 0.3023 0.2569
C6 C 1.0061(5) 0.2321(4) 0.2051(4)
C7 C 0.9063(4) 0.2400(4) 0.2158(4)
C8 C 0.8106(5) 0.1640(4) 0.1548(4)
H7 H 0.7438 0.1669 0.1599
C9 C 0.8141(6) 0.0859(4) 0.0883(4)
H8 H 0.7496 0.0369 0.0484
C10 C 0.9135(5) 0.0788(5) 0.0792(4)
H9 H 0.9148 0.0252 0.0338
C11 C 1.0073(5) 0.1498(4) 0.1366(4)
H10 H 1.0734 0.1446 0.1310
C12 C 0.7018(3) 0.3759(3) 0.3908(3)
C13 C 0.6465(4) 0.4503(3) 0.4041(4)
C14 C 0.5535(4) 0.4248(4) 0.4256(4)
H11 H 0.5133 0.4716 0.4296
C15 C 0.5190(4) 0.3345(4) 0.4412(4)
H12 H 0.4575 0.3208 0.4572
C16 C 0.5770(4) 0.2621(3) 0.4327(3)
C17 C 0.6667(4) 0.2839(3) 0.4056(3)
H13 H 0.7036 0.2352 0.3972
C18 C 0.6801(4) 0.5556(4) 0.3984(4)
C19 C 0.5462(4) 0.1646(3) 0.4566(3)
C20 C 0.8161(4) 0.3038(4) 0.9895(4)
H14 H 0.7600 0.2453 0.9594
C21 C 0.7946(5) 0.3814(4) 1.0494(4)
C22 C 0.8694(5) 0.4758(4) 1.0926(4)
C23 C 0.8415(5) 0.5545(5) 1.1468(4)
H15 H 0.8913 0.6168 1.1764
C24 C 0.7434(6) 0.5372(5) 1.1542(5)
H16 H 0.7266 0.5885 1.1898
C25 C 0.6636(6) 0.4439(5) 1.1099(5)
C26 C 0.6876(5) 0.3639(5) 1.0578(5)
C27 C 0.6057(6) 0.2739(5) 1.0152(6)
H17 H 0.6198 0.2196 0.9813
C28 C 0.5053(7) 0.2641(7) 1.0226(7)
H18 H 0.4512 0.2044 0.9916
C29 C 0.4847(7) 0.3429(7) 1.0760(7)
H19 H 0.4173 0.3354 1.0826
C30 C 0.5600(7) 0.4291(6) 1.1180(6)
H20 H 0.5444 0.4812 1.1537
C31 C 0.8991(4) 0.2242(3) 0.8950(3)
C32 C 0.9940(4) 0.1909(3) 0.8975(3)
C33 C 0.9799(4) 0.1093(4) 0.8219(3)
H21 H 1.0408 0.0851 0.8241
C34 C 0.8799(4) 0.0636(4) 0.7445(4)
H22 H 0.8734 0.0096 0.6952
C35 C 0.7889(4) 0.0990(3) 0.7410(3)
C36 C 0.7987(4) 0.1787(3) 0.8165(3)
H23 H 0.7368 0.2013 0.8140
C37 C 1.1082(4) 0.2353(4) 0.9756(4)
C38 C 0.6796(4) 0.0576(3) 0.6524(3)
C39 C 0.9728(5) 0.7495(4) 0.5059(5)
H24 H 0.9179 0.7360 0.5304
C40 C 1.0317(6) 0.8472(5) 0.5269(5)
H25 H 1.0173 0.8975 0.5659
C41 C 1.1100(6) 0.8691(5) 0.4906(6)
H26 H 1.1505 0.9343 0.5039
C42 C 1.1282(5) 0.7916(5) 0.4328(5)
H27 H 1.1806 0.8038 0.4052
C43 C 1.0674(4) 0.6957(4) 0.4165(5)
H28 H 1.0810 0.6439 0.3784
C44 C 1.2817(5) 0.5117(5) 1.1397(5)
H29 H 1.2835 0.4682 1.0858
C45 C 1.3794(5) 0.5782(5) 1.2077(5)
H30 H 1.4450 0.5798 1.1986
C46 C 1.3786(5) 0.6401(5) 1.2867(5)
H31 H 1.4437 0.6843 1.3334
C47 C 1.2823(5) 0.6378(5) 1.2977(4)
H32 H 1.2808 0.6797 1.3528
C48 C 1.1861(4) 0.5729(4) 1.2267(4)
H33 H 1.1196 0.5741 1.2331
C49 C 0.3478(6) 0.0487(5) 0.7113(5)
H34 H 0.3771 -0.0056 0.7218
C50 C 0.2898(7) 0.0795(6) 0.7680(6)
H35 H 0.2765 0.0440 0.8124
C51 C 0.2532(7) 0.1624(6) 0.7567(6)
H36 H 0.2200 0.1879 0.7976
C52 C 0.2653(6) 0.2075(5) 0.6860(6)
H37 H 0.2366 0.2620 0.6748
C53 C 0.3209(6) 0.1718(4) 0.6303(5)
H38 H 0.3295 0.2035 0.5818
Cu3A Cu 0.55281(4) -0.04027(4) 0.44725(4)
O5A O 0.4190(3) -0.0945(2) 0.5755(3)
O10A O 0.3168(3) -0.0078(3) 0.4256(2)
O11 O 0.3273(13) 0.1141(10) 0.1072(11)
H1 H 0.2847 0.1332 0.0628
C54 C 0.3385(13) 0.1704(13) 0.2067(11)
H39 H 0.3943 0.1534 0.2587
H40 H 0.2693 0.1535 0.2137
H41 H 0.3591 0.2405 0.2118
O12 O 0.5944(13) 0.0398(14) 0.8612(10)
H2 H 0.5933 0.0522 0.8063
H3 H 0.6217 -0.0098 0.8691
loop_
_geom_bond_atom_site_label_1
_geom_bond_atom_site_label_2
_geom_bond_site_symmetry_1
_geom_bond_site_symmetry_2
Cu1 N1 1_555 1_555
Cu2 N2 1_555 1_555
Cu3 N5 1_555 1_555
N1 C1 1_555 1_555
N2 C20 1_555 1_555
N3 Cu1 1_555 1_555
N4 Cu2 1_555 1_555
N5 C49 1_555 1_555
O1 Cu1 1_555 1_555
O2 Cu1 1_555 1_555
O3 C18 1_555 1_555
O4 Cu3 1_555 1_555
O5 C19 1_555 1_555
O6 Cu2 1_555 1_555
O7 Cu2 1_555 1_555
O8 C37 1_555 1_555
O9 Cu3 1_555 1_555
O10 C38 1_555 1_555
O11 H1 1_555 1_555
O12 H2 1_555 1_555
H3 O12 1_555 1_555
C1 H4 1_555 1_555
C2 C1 1_555 1_555
C3 O1 1_555 1_555
C4 C3 1_555 1_555
H5 C4 1_555 1_555
C5 C4 1_555 1_555
H6 C5 1_555 1_555
C6 C5 1_555 1_555
C7 C2 1_555 1_555
C8 C7 1_555 1_555
H7 C8 1_555 1_555
C9 C8 1_555 1_555
H8 C9 1_555 1_555
C10 C9 1_555 1_555
H9 C10 1_555 1_555
C11 C6 1_555 1_555
H10 C11 1_555 1_555
C12 N1 1_555 1_555
C13 C12 1_555 1_555
C14 C13 1_555 1_555
H11 C14 1_555 1_555
C15 C14 1_555 1_555
H12 C15 1_555 1_555
C16 C15 1_555 1_555
C17 C12 1_555 1_555
H13 C17 1_555 1_555
C18 O2 1_555 1_555
C19 O4 1_555 1_555
C20 H14 1_555 1_555
C21 C20 1_555 1_555
C22 O6 1_555 1_555
C23 C22 1_555 1_555
H15 C23 1_555 1_555
C24 C23 1_555 1_555
H16 C24 1_555 1_555
C25 C24 1_555 1_555
C26 C21 1_555 1_555
C27 C26 1_555 1_555
H17 C27 1_555 1_555
C28 C27 1_555 1_555
H18 C28 1_555 1_555
C29 C28 1_555 1_555
H19 C29 1_555 1_555
C30 C25 1_555 1_555
H20 C30 1_555 1_555
C31 N2 1_555 1_555
C32 C31 1_555 1_555
C33 C32 1_555 1_555
H21 C33 1_555 1_555
C34 C33 1_555 1_555
H22 C34 1_555 1_555
C35 C34 1_555 1_555
C36 C31 1_555 1_555
H23 C36 1_555 1_555
C37 O7 1_555 1_555
C38 O9 1_555 1_555
C39 N3 1_555 1_555
H24 C39 1_555 1_555
C40 C39 1_555 1_555
H25 C40 1_555 1_555
C41 C40 1_555 1_555
H26 C41 1_555 1_555
C42 C41 1_555 1_555
H27 C42 1_555 1_555
C43 N3 1_555 1_555
H28 C43 1_555 1_555
C44 N4 1_555 1_555
H29 C44 1_555 1_555
C45 C44 1_555 1_555
H30 C45 1_555 1_555
C46 C45 1_555 1_555
H31 C46 1_555 1_555
C47 C46 1_555 1_555
H32 C47 1_555 1_555
C48 N4 1_555 1_555
H33 C48 1_555 1_555
C49 H34 1_555 1_555
C50 C49 1_555 1_555
H35 C50 1_555 1_555
C51 C50 1_555 1_555
H36 C51 1_555 1_555
C52 C51 1_555 1_555
H37 C52 1_555 1_555
C53 N5 1_555 1_555
H38 C53 1_555 1_555
C54 O11 1_555 1_555
H39 C54 1_555 1_555
H40 C54 1_555 1_555
H41 C54 1_555 1_555
Cu3A O5 1_555 1_555
O5A Cu3 1_555 1_555
O10A Cu3 1_555 1_555
O10 Cu3A 1_555 1_555
C2 C3 1_555 1_555
C6 C7 1_555 1_555
C10 C11 1_555 1_555
C13 C18 1_555 1_555
C16 C17 1_555 1_555
C16 C19 1_555 1_555
C21 C22 1_555 1_555
C25 C26 1_555 1_555
C29 C30 1_555 1_555
C32 C37 1_555 1_555
C35 C36 1_555 1_555
C35 C38 1_555 1_555
C42 C43 1_555 1_555
C47 C48 1_555 1_555
C52 C53 1_555 1_555

#END
