
#######################################################################
#
#                 Cambridge Crystallographic Data Centre
#                                CCDC 
#
#######################################################################
#
# If this CIF has been generated from an entry in the Cambridge 
# Structural Database, then it will include bibliographic, chemical, 
# crystal, experimental, refinement or atomic coordinate data resulting 
# from the CCDC's data processing and validation procedures.
#
#######################################################################

data_IVORAN
_symmetry_cell_setting           monoclinic
_symmetry_space_group_name_H-M   'C 2/c'
_symmetry_Int_Tables_number      15
_space_group_name_Hall           '-C 2yn'
loop_
_symmetry_equiv_pos_site_id
_symmetry_equiv_pos_as_xyz
1 x,y,z
2 -x,y,1/2-z
3 1/2+x,1/2+y,z
4 1/2-x,1/2+y,1/2-z
5 -x,-y,-z
6 x,-y,1/2+z
7 1/2-x,1/2-y,-z
8 1/2+x,1/2-y,1/2+z
_cell_length_a                   26.558(3)
_cell_length_b                   16.5646(18)
_cell_length_c                   15.0372(12)
_cell_angle_alpha                90
_cell_angle_beta                 106.236(2)
_cell_angle_gamma                90
_cell_volume                     6351.38
loop_
_atom_site_label
_atom_site_type_symbol
_atom_site_fract_x
_atom_site_fract_y
_atom_site_fract_z
Cu1 Cu 0.28304(3) 0.06532(5) 0.17723(5)
Cu2 Cu 0.0000 0.20096(7) -0.2500
N1 N 0.22471(19) 0.1301(3) 0.1058(3)
N2 N 0.3475(2) 0.0613(3) 0.2907(4)
N3 N 0.2761(2) -0.0589(3) 0.1118(4)
N4 N 0.0000 0.0787(5) -0.2500
N5 N 0.0000 0.3232(4) -0.2500
O1 O 0.32835(16) 0.1056(3) 0.1064(3)
O2 O 0.35100(17) 0.1616(3) -0.0093(3)
O3 O 0.06763(18) 0.1956(3) -0.1594(3)
O4 O 0.09331(19) 0.1855(3) -0.2874(3)
O5 O 0.24134(17) 0.0316(2) 0.2564(3)
C1 C 0.3169(2) 0.1386(3) 0.0268(4)
C2 C 0.2599(2) 0.1479(3) -0.0281(4)
C3 C 0.2175(2) 0.1447(3) 0.0100(4)
C4 C 0.1669(2) 0.1555(3) -0.0488(4)
H3 H 0.1384 0.1519 -0.0245
C5 C 0.1582(2) 0.1712(3) -0.1415(4)
C6 C 0.1993(3) 0.1739(4) -0.1788(4)
H4 H 0.1934 0.1835 -0.2418
C7 C 0.2498(3) 0.1625(3) -0.1227(4)
H5 H 0.2777 0.1645 -0.1488
C8 C 0.1025(3) 0.1841(4) -0.2019(4)
C9 C 0.1926(2) 0.1648(3) 0.1455(4)
H6 H 0.1717 0.2057 0.1119
C10 C 0.1857(2) 0.1478(3) 0.2334(4)
C11 C 0.2078(2) 0.0768(3) 0.2803(4)
C12 C 0.1899(3) 0.0505(4) 0.3573(4)
H7 H 0.2027 0.0023 0.3867
C13 C 0.1554(3) 0.0936(4) 0.3881(4)
H8 H 0.1443 0.0739 0.4374
C14 C 0.1352(2) 0.1691(4) 0.3473(4)
C15 C 0.1504(2) 0.1963(4) 0.2695(4)
C16 C 0.1299(3) 0.2707(4) 0.2322(5)
H9 H 0.1398 0.2912 0.1819
C17 C 0.0962(3) 0.3142(4) 0.2663(5)
H10 H 0.0829 0.3628 0.2386
C18 C 0.0816(3) 0.2860(5) 0.3434(5)
H11 H 0.0586 0.3158 0.3672
C19 C 0.1011(3) 0.2146(5) 0.3832(5)
H12 H 0.0917 0.1960 0.4347
C20 C 0.3613(3) -0.0028(4) 0.3458(5)
H13 H 0.3414 -0.0496 0.3314
C21 C 0.4040(3) -0.0025(5) 0.4231(5)
H14 H 0.4130 -0.0488 0.4591
C22 C 0.4329(3) 0.0663(5) 0.4462(5)
H15 H 0.4620 0.0676 0.4978
C23 C 0.4182(3) 0.1333(5) 0.3923(5)
H16 H 0.4363 0.1818 0.4072
C24 C 0.3757(3) 0.1271(4) 0.3150(5)
H17 H 0.3665 0.1724 0.2775
C25 C 0.3006(3) -0.0838(4) 0.0524(5)
H18 H 0.3253 -0.0494 0.0394
C26 C 0.2923(3) -0.1576(4) 0.0078(5)
H19 H 0.3114 -0.1717 -0.0331
C27 C 0.2556(3) -0.2104(4) 0.0241(4)
C28 C 0.2301(3) -0.1840(4) 0.0860(5)
H20 H 0.2052 -0.2171 0.1003
C29 C 0.2407(3) -0.1093(4) 0.1277(5)
H21 H 0.2221 -0.0935 0.1689
C30 C 0.0163(3) 0.0368(5) -0.1702(5)
H22 H 0.0273 0.0646 -0.1143
C31 C 0.0168(3) -0.0453(5) -0.1699(6)
H23 H 0.0288 -0.0726 -0.1139
C32 C 0.0000 -0.0880(7) -0.2500
H24 H 0.0000 -0.1442 -0.2500
C33 C 0.0391(3) 0.3656(4) -0.1936(5)
H25 H 0.0663 0.3374 -0.1531
C34 C 0.0411(3) 0.4484(4) -0.1925(5)
H26 H 0.0695 0.4757 -0.1538
C35 C 0.0000 0.4899(6) -0.2500
H27 H 0.0000 0.5460 -0.2500
Cu1A Cu -0.28304(3) 0.06532(5) -0.67723(5)
Cu1F Cu 0.21696(3) -0.56532(5) -0.17723(5)
N1A N -0.22471(19) 0.1301(3) -0.6058(3)
N2A N -0.3475(2) 0.0613(3) -0.7907(4)
N3F N 0.2239(2) -0.4411(3) -0.1118(4)
N3A N -0.2761(2) -0.0589(3) -0.6118(4)
O1A O -0.32835(16) 0.1056(3) -0.6064(3)
O2A O -0.35100(17) 0.1616(3) -0.4907(3)
O3A O -0.06763(18) 0.1956(3) -0.3406(3)
O4A O -0.09331(19) 0.1855(3) -0.2126(3)
O5A O -0.24134(17) 0.0316(2) -0.7564(3)
C1A C -0.3169(2) 0.1386(3) -0.5268(4)
C2A C -0.2599(2) 0.1479(3) -0.4719(4)
C3A C -0.2175(2) 0.1447(3) -0.5100(4)
C4A C -0.1669(2) 0.1555(3) -0.4512(4)
H3A H -0.1384 0.1519 -0.4755
C5A C -0.1582(2) 0.1712(3) -0.3585(4)
C6A C -0.1993(3) 0.1739(4) -0.3212(4)
H4A H -0.1934 0.1835 -0.2582
C7A C -0.2498(3) 0.1625(3) -0.3773(4)
H5A H -0.2777 0.1645 -0.3512
C8A C -0.1025(3) 0.1841(4) -0.2981(4)
C9A C -0.1926(2) 0.1648(3) -0.6455(4)
H6A H -0.1717 0.2057 -0.6119
C10A C -0.1857(2) 0.1478(3) -0.7334(4)
C11A C -0.2078(2) 0.0768(3) -0.7803(4)
C12A C -0.1899(3) 0.0505(4) -0.8573(4)
H7A H -0.2027 0.0023 -0.8867
C13A C -0.1554(3) 0.0936(4) -0.8881(4)
H8A H -0.1443 0.0739 -0.9374
C14A C -0.1352(2) 0.1691(4) -0.8473(4)
C15A C -0.1504(2) 0.1963(4) -0.7695(4)
C16A C -0.1299(3) 0.2707(4) -0.7322(5)
H9A H -0.1398 0.2912 -0.6819
C17A C -0.0962(3) 0.3142(4) -0.7663(5)
H10A H -0.0829 0.3628 -0.7386
C18A C -0.0816(3) 0.2860(5) -0.8434(5)
H11A H -0.0586 0.3158 -0.8672
C19A C -0.1011(3) 0.2146(5) -0.8832(5)
H12A H -0.0917 0.1960 -0.9347
C20A C -0.3613(3) -0.0028(4) -0.8458(5)
H13A H -0.3414 -0.0496 -0.8314
C21A C -0.4040(3) -0.0025(5) -0.9231(5)
H14A H -0.4130 -0.0488 -0.9591
C22A C -0.4329(3) 0.0663(5) -0.9462(5)
H15A H -0.4620 0.0676 -0.9978
C23A C -0.4182(3) 0.1333(5) -0.8923(5)
H16A H -0.4363 0.1818 -0.9072
C24A C -0.3757(3) 0.1271(4) -0.8150(5)
H17A H -0.3665 0.1724 -0.7775
C25F C 0.1994(3) -0.4162(4) -0.0524(5)
H18F H 0.1747 -0.4506 -0.0394
C26F C 0.2077(3) -0.3424(4) -0.0078(5)
H19F H 0.1886 -0.3283 0.0331
C27F C 0.2444(3) -0.2896(4) -0.0241(4)
C28F C 0.2699(3) -0.3160(4) -0.0860(5)
H20F H 0.2948 -0.2829 -0.1003
C29F C 0.2593(3) -0.3907(4) -0.1277(5)
H21F H 0.2779 -0.4065 -0.1689
C30A C -0.0163(3) 0.0368(5) -0.3298(5)
H22A H -0.0273 0.0646 -0.3857
C31A C -0.0168(3) -0.0453(5) -0.3301(6)
H23A H -0.0288 -0.0726 -0.3861
C33A C -0.0391(3) 0.3656(4) -0.3064(5)
H25A H -0.0663 0.3374 -0.3469
C34A C -0.0411(3) 0.4484(4) -0.3075(5)
H26A H -0.0695 0.4757 -0.3462
O6 O 0.0858(3) 0.0838(4) 0.5642(4)
H1 H 0.0960 0.1177 0.6051
C36 C 0.1040(4) 0.0101(6) 0.5972(7)
H28 H 0.1326 -0.0048 0.5732
H29 H 0.0764 -0.0290 0.5781
H30 H 0.1159 0.0119 0.6636
O7 O 0.4577(3) 0.1950(5) 0.9804(5)
H2 H 0.4446 0.1917 1.0236
C37 C 0.4715(4) 0.2751(6) 0.9703(7)
H31 H 0.4405 0.3063 0.9443
H32 H 0.4938 0.2774 0.9299
H33 H 0.4899 0.2967 1.0298
loop_
_geom_bond_atom_site_label_1
_geom_bond_atom_site_label_2
_geom_bond_site_symmetry_1
_geom_bond_site_symmetry_2
Cu1 N1 1_555 1_555
Cu2 N4 1_555 1_555
N1 C3 1_555 1_555
N2 Cu1 1_555 1_555
N3 Cu1 1_555 1_555
N4 C30 1_555 1_555
N5 Cu2 1_555 1_555
O1 Cu1 1_555 1_555
O2 C1 1_555 1_555
O3 Cu2 1_555 1_555
O4 Cu2 1_555 1_555
O5 Cu1 1_555 1_555
O6 H1 1_555 1_555
O7 H2 1_555 1_555
C1 O1 1_555 1_555
C2 C1 1_555 1_555
C3 C2 1_555 1_555
C4 C3 1_555 1_555
H3 C4 1_555 1_555
C5 C4 1_555 1_555
C6 C5 1_555 1_555
H4 C6 1_555 1_555
C7 C2 1_555 1_555
H5 C7 1_555 1_555
C8 O3 1_555 1_555
C9 N1 1_555 1_555
H6 C9 1_555 1_555
C10 C9 1_555 1_555
C11 O5 1_555 1_555
C12 C11 1_555 1_555
H7 C12 1_555 1_555
C13 C12 1_555 1_555
H8 C13 1_555 1_555
C14 C13 1_555 1_555
C15 C10 1_555 1_555
C16 C15 1_555 1_555
H9 C16 1_555 1_555
C17 C16 1_555 1_555
H10 C17 1_555 1_555
C18 C17 1_555 1_555
H11 C18 1_555 1_555
C19 C14 1_555 1_555
H12 C19 1_555 1_555
C20 N2 1_555 1_555
H13 C20 1_555 1_555
C21 C20 1_555 1_555
H14 C21 1_555 1_555
C22 C21 1_555 1_555
H15 C22 1_555 1_555
C23 C22 1_555 1_555
H16 C23 1_555 1_555
C24 N2 1_555 1_555
H17 C24 1_555 1_555
C25 N3 1_555 1_555
H18 C25 1_555 1_555
C26 C25 1_555 1_555
H19 C26 1_555 1_555
C27 C26 1_555 1_555
C28 C27 1_555 1_555
H20 C28 1_555 1_555
C29 N3 1_555 1_555
H21 C29 1_555 1_555
C30 H22 1_555 1_555
C31 C30 1_555 1_555
H23 C31 1_555 1_555
C32 C31 1_555 1_555
H24 C32 1_555 1_555
C33 N5 1_555 1_555
H25 C33 1_555 1_555
C34 C33 1_555 1_555
H26 C34 1_555 1_555
C35 C34 1_555 1_555
H27 C35 1_555 1_555
C36 O6 1_555 1_555
H28 C36 1_555 1_555
H29 C36 1_555 1_555
H30 C36 1_555 1_555
C37 O7 1_555 1_555
H31 C37 1_555 1_555
H32 C37 1_555 1_555
H33 C37 1_555 1_555
Cu1A N1A 1_555 1_555
Cu1F N3F 1_555 1_555
N1A C3A 1_555 1_555
N2A Cu1A 1_555 1_555
N3F C25F 1_555 1_555
N3A Cu1A 1_555 1_555
O1A Cu1A 1_555 1_555
O2A C1A 1_555 1_555
O3A Cu2 1_555 1_555
O4A Cu2 1_555 1_555
O5A Cu1A 1_555 1_555
C1A O1A 1_555 1_555
C2A C1A 1_555 1_555
C3A C2A 1_555 1_555
C4A C3A 1_555 1_555
H3A C4A 1_555 1_555
C5A C4A 1_555 1_555
C6A C5A 1_555 1_555
H4A C6A 1_555 1_555
C7A C2A 1_555 1_555
H5A C7A 1_555 1_555
C8A O3A 1_555 1_555
C9A N1A 1_555 1_555
H6A C9A 1_555 1_555
C10A C9A 1_555 1_555
C11A O5A 1_555 1_555
C12A C11A 1_555 1_555
H7A C12A 1_555 1_555
C13A C12A 1_555 1_555
H8A C13A 1_555 1_555
C14A C13A 1_555 1_555
C15A C10A 1_555 1_555
C16A C15A 1_555 1_555
H9A C16A 1_555 1_555
C17A C16A 1_555 1_555
H10A C17A 1_555 1_555
C18A C17A 1_555 1_555
H11A C18A 1_555 1_555
C19A C14A 1_555 1_555
H12A C19A 1_555 1_555
C20A N2A 1_555 1_555
H13A C20A 1_555 1_555
C21A C20A 1_555 1_555
H14A C21A 1_555 1_555
C22A C21A 1_555 1_555
H15A C22A 1_555 1_555
C23A C22A 1_555 1_555
H16A C23A 1_555 1_555
C24A N2A 1_555 1_555
H17A C24A 1_555 1_555
C25F H18F 1_555 1_555
C26F C25F 1_555 1_555
H19F C26F 1_555 1_555
C27F C27 1_555 1_555
C28F C27F 1_555 1_555
H20F C28F 1_555 1_555
C29F N3F 1_555 1_555
H21F C29F 1_555 1_555
C30A N4 1_555 1_555
H22A C30A 1_555 1_555
C31A C32 1_555 1_555
H23A C31A 1_555 1_555
C33A N5 1_555 1_555
H25A C33A 1_555 1_555
C34A C35 1_555 1_555
H26A C34A 1_555 1_555
O4 C8 1_555 1_555
C5 C8 1_555 1_555
C6 C7 1_555 1_555
C10 C11 1_555 1_555
C14 C15 1_555 1_555
C18 C19 1_555 1_555
C23 C24 1_555 1_555
C28 C29 1_555 1_555
O4A C8A 1_555 1_555
C5A C8A 1_555 1_555
C6A C7A 1_555 1_555
C10A C11A 1_555 1_555
C14A C15A 1_555 1_555
C18A C19A 1_555 1_555
C23A C24A 1_555 1_555
C26F C27F 1_555 1_555
C28F C29F 1_555 1_555
C30A C31A 1_555 1_555
C33A C34A 1_555 1_555

#END
