
#######################################################################
#
#                 Cambridge Crystallographic Data Centre
#                                CCDC 
#
#######################################################################
#
# If this CIF has been generated from an entry in the Cambridge 
# Structural Database, then it will include bibliographic, chemical, 
# crystal, experimental, refinement or atomic coordinate data resulting 
# from the CCDC's data processing and validation procedures.
#
#######################################################################

data_IVOVEU
_symmetry_cell_setting           monoclinic
_symmetry_space_group_name_H-M   'C 2/c'
_symmetry_Int_Tables_number      15
_space_group_name_Hall           '-C 2yn'
loop_
_symmetry_equiv_pos_site_id
_symmetry_equiv_pos_as_xyz
1 x,y,z
2 1/2+x,1/2+y,z
3 x,-y,1/2+z
4 1/2+x,1/2-y,1/2+z
5 -x,-y,-z
6 1/2-x,1/2-y,-z
7 -x,y,1/2-z
8 1/2-x,1/2+y,1/2-z
_cell_length_a                   9.680(3)
_cell_length_b                   24.168(12)
_cell_length_c                   8.579(3)
_cell_angle_alpha                90
_cell_angle_beta                 114.54(2)
_cell_angle_gamma                90
_cell_volume                     1825.73
loop_
_atom_site_label
_atom_site_type_symbol
_atom_site_fract_x
_atom_site_fract_y
_atom_site_fract_z
La1 La 0.5000 0.492575(12) 0.2500
Zn1 Zn 0.5000 0.33474(3) 0.2500
O1 O 0.5653(3) 0.40184(10) 0.1351(3)
N1 N 0.6208(4) 0.29082(14) 0.1296(4)
O2 O 0.6261(3) 0.41962(11) -0.0863(4)
C1 C 0.6047(4) 0.38792(16) 0.0165(4)
C2 C 0.6202(6) 0.32621(18) -0.0087(6)
C3 C 0.8161(5) 0.30920(17) 0.4263(5)
C4 C 0.7725(5) 0.2776(2) 0.2598(6)
O3 O 0.7108(3) 0.32916(12) 0.4600(3)
O4 O 0.9536(3) 0.31234(14) 0.5232(4)
O5 O 0.2089(3) 0.45628(12) 0.0402(3)
C5 C 0.2332(4) 0.45669(14) -0.0909(4)
N2 N 0.0000 0.3998(2) -0.2500
C6 C 0.1270(4) 0.43205(19) -0.2599(5)
O6 O 0.3525(3) 0.47773(11) -0.0935(3)
H1 H 0.182(7) 0.404(3) -0.294(8)
H2 H 0.085(7) 0.458(3) -0.354(8)
H3 H 0.581(7) 0.264(3) 0.092(9)
H4 H 0.841(7) 0.289(3) 0.217(8)
H5 H 0.027(7) 0.375(2) -0.162(5)
H6 H 0.532(7) 0.316(3) -0.104(8)
H7 H 0.772(7) 0.242(3) 0.278(8)
H8 H 0.706(7) 0.318(3) -0.033(8)
C6F C -0.1270(4) 0.43205(19) -0.2401(5)
C5F C -0.2332(4) 0.45669(14) -0.4091(4)
O5F O -0.2089(3) 0.45628(12) -0.5402(3)
O6F O -0.3525(3) 0.47773(11) -0.4065(3)
H1F H -0.182(7) 0.404(3) -0.206(8)
H2F H -0.085(7) 0.458(3) -0.146(8)
H5F H -0.027(7) 0.375(2) -0.338(5)
O1F O 0.4347(3) 0.40184(10) 0.3649(3)
N1F N 0.3792(4) 0.29082(14) 0.3704(4)
O2F O 0.3739(3) 0.41962(11) 0.5863(4)
C1F C 0.3953(4) 0.38792(16) 0.4835(4)
C2F C 0.3798(6) 0.32621(18) 0.5087(6)
C3F C 0.1839(5) 0.30920(17) 0.0737(5)
C4F C 0.2275(5) 0.2776(2) 0.2402(6)
O3F O 0.2892(3) 0.32916(12) 0.0400(3)
O4F O 0.0464(3) 0.31234(14) -0.0232(4)
H3F H 0.419(7) 0.264(3) 0.408(9)
H4F H 0.159(7) 0.289(3) 0.283(8)
H6F H 0.468(7) 0.316(3) 0.604(8)
H7F H 0.228(7) 0.242(3) 0.222(8)
H8F H 0.294(7) 0.318(3) 0.533(8)
O2B O 0.6261(3) 0.58038(11) 0.4137(4)
O2D O 0.3739(3) 0.58038(11) 0.0863(4)
O5F_2 O 0.7911(3) 0.45628(12) 0.4598(3)
O6B O 0.3525(3) 0.52227(11) 0.4065(3)
O6D O 0.6475(3) 0.52227(11) 0.0935(3)
O6F_2 O 0.6475(3) 0.47773(11) 0.5935(3)
La1B La 0.5000 0.507425(12) -0.2500
La1_2 La -0.5000 0.492575(12) -0.7500
La1B_2 La -0.5000 0.507425(12) -0.2500
La1B_3 La 0.5000 0.507425(12) 0.7500
O7 O 0.0000 0.4216(7) 0.2500
loop_
_geom_bond_atom_site_label_1
_geom_bond_atom_site_label_2
_geom_bond_site_symmetry_1
_geom_bond_site_symmetry_2
La1 O1 1_555 1_555
Zn1 O1 1_555 1_555
O1 C1 1_555 1_555
N1 Zn1 1_555 1_555
O2 C1 1_555 1_555
C1 C2 1_555 1_555
C2 N1 1_555 1_555
C3 C4 1_555 1_555
C4 N1 1_555 1_555
O3 Zn1 1_555 1_555
O4 C3 1_555 1_555
O5 La1 1_555 1_555
C5 O5 1_555 1_555
N2 C6 1_555 1_555
C6 C5 1_555 1_555
O6 La1 1_555 1_555
H1 C6 1_555 1_555
H2 C6 1_555 1_555
H3 N1 1_555 1_555
H4 C4 1_555 1_555
H5 N2 1_555 1_555
H6 C2 1_555 1_555
H7 C4 1_555 1_555
H8 C2 1_555 1_555
C6F N2 1_555 1_555
C5F C6F 1_555 1_555
O5F C5F 1_555 1_555
O6F C5F 1_555 1_555
H1F C6F 1_555 1_555
H2F C6F 1_555 1_555
H5F N2 1_555 1_555
O1F La1 1_555 1_555
N1F Zn1 1_555 1_555
O2F C1F 1_555 1_555
C1F O1F 1_555 1_555
C2F N1F 1_555 1_555
C3F C4F 1_555 1_555
C4F N1F 1_555 1_555
O3F Zn1 1_555 1_555
O4F C3F 1_555 1_555
H3F N1F 1_555 1_555
H4F C4F 1_555 1_555
H6F C2F 1_555 1_555
H7F C4F 1_555 1_555
H8F C2F 1_555 1_555
O2B La1 1_555 1_555
O2D La1 1_555 1_555
O5F_2 La1 1_555 1_555
O6B La1 1_555 1_555
O6D La1 1_555 1_555
O6F_2 La1 1_555 1_555
La1B O2 1_555 1_555
La1_2 O5F 1_555 1_555
La1B_2 O6F 1_555 1_555
La1B_3 O2F 1_555 1_555
Zn1 O1F 1_555 1_555
C3 O3 1_555 1_555
C5 O6 1_555 1_555
O6 La1B 1_555 1_555
O6F La1_2 1_555 1_555
C1F C2F 1_555 1_555
C3F O3F 1_555 1_555
O6B La1B_3 1_555 1_555
O6D La1B 1_555 1_555
O6F_2 La1B_3 1_555 1_555

#END
