
#######################################################################
#
#                 Cambridge Crystallographic Data Centre
#                                CCDC 
#
#######################################################################
#
# If this CIF has been generated from an entry in the Cambridge 
# Structural Database, then it will include bibliographic, chemical, 
# crystal, experimental, refinement or atomic coordinate data resulting 
# from the CCDC's data processing and validation procedures.
#
#######################################################################

data_IVOWOG
_symmetry_cell_setting           monoclinic
_symmetry_space_group_name_H-M   'P 21/n'
_symmetry_Int_Tables_number      14
_space_group_name_Hall           '-P 2yn'
loop_
_symmetry_equiv_pos_site_id
_symmetry_equiv_pos_as_xyz
1 x,y,z
2 1/2-x,1/2+y,1/2-z
3 -x,-y,-z
4 1/2+x,1/2-y,1/2+z
_cell_length_a                   11.6542(12)
_cell_length_b                   19.719(2)
_cell_length_c                   15.0898(15)
_cell_angle_alpha                90
_cell_angle_beta                 91.307(1)
_cell_angle_gamma                90
_cell_volume                     3466.87
loop_
_atom_site_label
_atom_site_type_symbol
_atom_site_fract_x
_atom_site_fract_y
_atom_site_fract_z
Cd1 Cd 0.536386(9) 0.252019(6) 0.290955(7)
O1 O 0.38856(10) 0.33652(6) 0.26475(8)
O3 O 0.43388(10) 0.27166(7) 0.15227(8)
O5 O 0.20067(12) 0.29614(8) -0.04667(8)
O7 O 0.04686(12) 0.23160(8) -0.06457(9)
N1 N 0.37500(12) 0.18112(7) 0.31573(10)
N2 N 0.03721(12) 0.05272(7) 0.44120(10)
N3 N 0.67804(12) 0.32667(7) 0.24774(9)
N4 N 0.95311(12) 0.47999(7) 0.08307(9)
N5 N 0.64024(12) 0.16477(7) 0.22581(9)
N6 N 0.88641(12) 0.00991(7) 0.03394(9)
C1 C 0.31248(15) 0.19176(9) 0.38845(12)
H9 H 0.3405 0.2229 0.4318
C2 C 0.20987(15) 0.15948(9) 0.40270(12)
H10 H 0.1684 0.1687 0.4548
C3 C 0.16713(15) 0.11346(9) 0.34098(12)
C4 C 0.23219(16) 0.10128(10) 0.26687(12)
H11 H 0.2071 0.0692 0.2237
C5 C 0.33415(16) 0.13623(9) 0.25621(12)
H12 H 0.3769 0.1280 0.2045
C6 C 0.05079(16) 0.08114(11) 0.35239(13)
H13 H -0.0096 0.1156 0.3412
H14 H 0.0402 0.0446 0.3079
C7 C -0.08445(14) 0.04115(9) 0.45838(12)
H15 H -0.1171 0.0096 0.4134
H16 H -0.1267 0.0846 0.4536
C8 C 0.09911(15) -0.01147(9) 0.44992(12)
H17 H 0.1817 -0.0039 0.4394
H18 H 0.0696 -0.0439 0.4048
C9 C 0.67912(15) 0.35632(9) 0.16755(11)
H19 H 0.6157 0.3490 0.1280
C10 C 0.76772(15) 0.39686(9) 0.13988(11)
H20 H 0.7647 0.4168 0.0826
C11 C 0.86151(14) 0.40833(8) 0.19647(11)
C12 C 0.86060(14) 0.37773(9) 0.27919(11)
H21 H 0.9232 0.3841 0.3198
C13 C 0.76853(14) 0.33805(9) 0.30230(11)
H22 H 0.7692 0.3178 0.3595
C14 C 0.95987(14) 0.45436(9) 0.17334(11)
H23 H 0.9614 0.4933 0.2148
H24 H 1.0328 0.4292 0.1818
C15 C 1.01783(15) 0.54311(8) 0.07393(11)
H25 H 1.1000 0.5348 0.0879
H26 H 0.9894 0.5772 0.1162
C16 C 0.99563(15) 0.43019(8) 0.01973(11)
H27 H 0.9522 0.3873 0.0254
H28 H 1.0776 0.4206 0.0330
C17 C 0.69808(14) 0.11797(9) 0.27322(11)
H29 H 0.7018 0.1224 0.3359
C18 C 0.75246(15) 0.06359(9) 0.23454(11)
H30 H 0.7919 0.0313 0.2707
C19 C 0.74968(14) 0.05590(9) 0.14337(11)
C20 C 0.69331(16) 0.10597(10) 0.09407(12)
H31 H 0.6916 0.1040 0.0312
C21 C 0.64011(16) 0.15828(10) 0.13703(12)
H32 H 0.6012 0.1916 0.1022
C22 C 0.80042(15) -0.00615(9) 0.10047(12)
H33 H 0.8365 -0.0349 0.1471
H34 H 0.7378 -0.0327 0.0718
C23 C 0.98895(15) 0.03959(9) 0.07738(12)
H35 H 1.0192 0.0080 0.1232
H36 H 0.9679 0.0825 0.1070
C24 C 0.91944(15) -0.05333(8) -0.01034(12)
H37 H 0.8513 -0.0735 -0.0405
H38 H 0.9487 -0.0862 0.0343
C25 C 0.36939(14) 0.31523(8) 0.18728(11)
C26 C 0.26451(14) 0.34032(8) 0.13488(11)
H39 H 0.2819 0.3412 0.0710
H40 H 0.2462 0.3872 0.1535
C27 C 0.16080(13) 0.29469(8) 0.14951(11)
C28 C 0.12618(15) 0.28817(9) 0.23743(11)
H41 H 0.1700 0.3100 0.2830
C29 C 0.03088(15) 0.25119(8) 0.26013(12)
H42 H 0.0098 0.2476 0.3204
C30 C -0.03388(15) 0.21925(9) 0.19425(12)
H43 H -0.1000 0.1938 0.2089
C31 C -0.00154(15) 0.22480(9) 0.10720(11)
H44 H -0.0465 0.2029 0.0623
C32 C 0.09582(14) 0.26174(8) 0.08277(11)
C33 C 0.11826(15) 0.26409(9) -0.01636(11)
Cd1C Cd 0.036386(9) 0.247981(6) -0.209045(7)
Cd1B Cd -0.536386(9) -0.252019(6) 0.709045(7)
Cd1B_2 Cd 1.463614(9) 0.747981(6) -0.290955(7)
Cd1B_3 Cd 1.463614(9) -0.252019(6) -0.290955(7)
Cd1A Cd -0.036386(9) -0.247981(6) 1.209045(7)
O1B O -0.38856(10) -0.33652(6) 0.73525(8)
O3B O -0.43388(10) -0.27166(7) 0.84773(8)
O5B O -0.20067(12) -0.29614(8) 1.04667(8)
O7C O 0.54686(12) 0.26840(8) 0.43543(9)
O7A O -0.54686(12) -0.26840(8) 0.56457(9)
O7B O -0.04686(12) -0.23160(8) 1.06457(9)
N1B N -0.37500(12) -0.18112(7) 0.68427(10)
N2B N -0.03721(12) -0.05272(7) 0.55880(10)
N3B N 1.32196(12) 0.67333(7) -0.24774(9)
N3B_2 N -0.67804(12) -0.32667(7) 0.75226(9)
N4B N 1.04689(12) 0.52001(7) -0.08307(9)
N5B N 1.35976(12) -0.16477(7) -0.22581(9)
N5B_2 N -0.64024(12) -0.16477(7) 0.77419(9)
N6B N 1.11359(12) -0.00991(7) -0.03394(9)
C1B C -0.31248(15) -0.19176(9) 0.61155(12)
H9B H -0.3405 -0.2229 0.5682
C2B C -0.20987(15) -0.15948(9) 0.59730(12)
H10B H -0.1684 -0.1687 0.5452
C3B C -0.16713(15) -0.11346(9) 0.65902(12)
C4B C -0.23219(16) -0.10128(10) 0.73313(12)
H11B H -0.2071 -0.0692 0.7763
C5B C -0.33415(16) -0.13623(9) 0.74379(12)
H12B H -0.3769 -0.1280 0.7955
C6B C -0.05079(16) -0.08114(11) 0.64761(13)
H13B H 0.0096 -0.1156 0.6588
H14B H -0.0402 -0.0446 0.6921
C7B C 0.08445(14) -0.04115(9) 0.54162(12)
H15B H 0.1171 -0.0096 0.5866
H16B H 0.1267 -0.0846 0.5464
C8B C -0.09911(15) 0.01147(9) 0.55008(12)
H17B H -0.1817 0.0039 0.5606
H18B H -0.0696 0.0439 0.5952
C9B C 1.32088(15) 0.64368(9) -0.16755(11)
H19B H 1.3843 0.6510 -0.1280
C10B C 1.23228(15) 0.60314(9) -0.13988(11)
H20B H 1.2353 0.5832 -0.0826
C11B C 1.13849(14) 0.59167(8) -0.19647(11)
C12B C 1.13940(14) 0.62227(9) -0.27919(11)
H21B H 1.0768 0.6159 -0.3198
C13B C 1.23147(14) 0.66195(9) -0.30230(11)
H22B H 1.2308 0.6822 -0.3595
C14B C 1.04013(14) 0.54564(9) -0.17334(11)
H23B H 1.0386 0.5067 -0.2148
H24B H 0.9672 0.5708 -0.1818
C15B C 0.98217(15) 0.45689(8) -0.07393(11)
H25B H 0.9000 0.4652 -0.0879
H26B H 1.0106 0.4228 -0.1162
C16B C 1.00437(15) 0.56981(8) -0.01973(11)
H27B H 1.0478 0.6127 -0.0254
H28B H 0.9224 0.5794 -0.0330
C17B C 1.30192(14) -0.11797(9) -0.27322(11)
H29B H 1.2982 -0.1224 -0.3359
C18B C 1.24754(15) -0.06359(9) -0.23454(11)
H30B H 1.2081 -0.0313 -0.2707
C19B C 1.25032(14) -0.05590(9) -0.14337(11)
C20B C 1.30669(16) -0.10597(10) -0.09407(12)
H31B H 1.3084 -0.1040 -0.0312
C21B C 1.35989(16) -0.15828(10) -0.13703(12)
H32B H 1.3988 -0.1916 -0.1022
C22B C 1.19958(15) 0.00615(9) -0.10047(12)
H33B H 1.1635 0.0349 -0.1471
H34B H 1.2622 0.0327 -0.0718
C23B C 1.01105(15) -0.03959(9) -0.07738(12)
H35B H 0.9808 -0.0080 -0.1232
H36B H 1.0321 -0.0825 -0.1070
C24B C 1.08056(15) 0.05333(8) 0.01034(12)
H37B H 1.1487 0.0735 0.0405
H38B H 1.0513 0.0862 -0.0343
C25B C -0.36939(14) -0.31523(8) 0.81272(11)
C26B C -0.26451(14) -0.34032(8) 0.86512(11)
H39B H -0.2819 -0.3412 0.9290
H40B H -0.2462 -0.3872 0.8465
C27B C -0.16080(13) -0.29469(8) 0.85049(11)
C28B C -0.12618(15) -0.28817(9) 0.76257(11)
H41B H -0.1700 -0.3100 0.7170
C29B C -0.03088(15) -0.25119(8) 0.73987(12)
H42B H -0.0098 -0.2476 0.6796
C30B C 0.03388(15) -0.21925(9) 0.80575(12)
H43B H 0.1000 -0.1938 0.7911
C31B C 0.00154(15) -0.22480(9) 0.89280(11)
H44B H 0.0465 -0.2029 0.9377
C32B C -0.09582(14) -0.26174(8) 0.91723(11)
C33B C -0.11826(15) -0.26409(9) 1.01636(11)
O2 O 0.42127(15) 0.23680(9) -0.02177(11)
H1 H 0.431(2) 0.2498(11) 0.0334(12)
H2 H 0.3573(18) 0.2558(12) -0.0395(17)
O4 O 0.42216(16) 0.09317(9) 0.00183(13)
H3 H 0.420(2) 0.1378(8) -0.0020(18)
H4 H 0.468(2) 0.0804(14) -0.0382(15)
O6 O 0.27724(14) 0.43134(10) 0.37173(12)
H5 H 0.316(2) 0.4001(12) 0.3428(16)
H6 H 0.316(2) 0.4365(14) 0.4199(13)
O8 O 1.05770(15) 0.48187(11) 0.38452(12)
H7 H 1.074(2) 0.5216(10) 0.4048(18)
H8 H 1.1279(16) 0.4663(13) 0.3781(18)
loop_
_geom_bond_atom_site_label_1
_geom_bond_atom_site_label_2
_geom_bond_site_symmetry_1
_geom_bond_site_symmetry_2
Cd1 O1 1_555 1_555
O1 C25 1_555 1_555
O2 H1 1_555 1_555
H2 O2 1_555 1_555
O3 Cd1 1_555 1_555
O4 H3 1_555 1_555
H4 O4 1_555 1_555
O5 C33 1_555 1_555
O6 H5 1_555 1_555
H6 O6 1_555 1_555
O7 C33 1_555 1_555
O8 H7 1_555 1_555
H8 O8 1_555 1_555
N1 Cd1 1_555 1_555
N2 C6 1_555 1_555
N3 Cd1 1_555 1_555
N4 C14 1_555 1_555
N5 Cd1 1_555 1_555
N6 C22 1_555 1_555
C1 N1 1_555 1_555
H9 C1 1_555 1_555
C2 C1 1_555 1_555
H10 C2 1_555 1_555
C3 C2 1_555 1_555
C4 C3 1_555 1_555
H11 C4 1_555 1_555
C5 N1 1_555 1_555
H12 C5 1_555 1_555
C6 C3 1_555 1_555
H13 C6 1_555 1_555
H14 C6 1_555 1_555
C7 N2 1_555 1_555
H15 C7 1_555 1_555
H16 C7 1_555 1_555
C8 N2 1_555 1_555
H17 C8 1_555 1_555
H18 C8 1_555 1_555
C9 N3 1_555 1_555
H19 C9 1_555 1_555
C10 C9 1_555 1_555
H20 C10 1_555 1_555
C11 C10 1_555 1_555
C12 C11 1_555 1_555
H21 C12 1_555 1_555
C13 N3 1_555 1_555
H22 C13 1_555 1_555
C14 C11 1_555 1_555
H23 C14 1_555 1_555
H24 C14 1_555 1_555
C15 N4 1_555 1_555
H25 C15 1_555 1_555
H26 C15 1_555 1_555
C16 N4 1_555 1_555
H27 C16 1_555 1_555
H28 C16 1_555 1_555
C17 N5 1_555 1_555
H29 C17 1_555 1_555
C18 C17 1_555 1_555
H30 C18 1_555 1_555
C19 C18 1_555 1_555
C20 C19 1_555 1_555
H31 C20 1_555 1_555
C21 N5 1_555 1_555
H32 C21 1_555 1_555
C22 C19 1_555 1_555
H33 C22 1_555 1_555
H34 C22 1_555 1_555
C23 N6 1_555 1_555
H35 C23 1_555 1_555
H36 C23 1_555 1_555
C24 N6 1_555 1_555
H37 C24 1_555 1_555
H38 C24 1_555 1_555
C25 O3 1_555 1_555
C26 C25 1_555 1_555
H39 C26 1_555 1_555
H40 C26 1_555 1_555
C27 C26 1_555 1_555
C28 C27 1_555 1_555
H41 C28 1_555 1_555
C29 C28 1_555 1_555
H42 C29 1_555 1_555
C30 C29 1_555 1_555
H43 C30 1_555 1_555
C31 C30 1_555 1_555
H44 C31 1_555 1_555
C32 C27 1_555 1_555
C33 C32 1_555 1_555
Cd1C O7 1_555 1_555
Cd1B O1B 1_555 1_555
Cd1B_2 N3B 1_555 1_555
Cd1B_3 N5B 1_555 1_555
Cd1A O7B 1_555 1_555
O1B C25B 1_555 1_555
O3B Cd1B 1_555 1_555
O5B C33B 1_555 1_555
O7C Cd1 1_555 1_555
O7A Cd1B 1_555 1_555
O7B C33B 1_555 1_555
N1B Cd1B 1_555 1_555
N2B C6B 1_555 1_555
N3B C9B 1_555 1_555
N3B_2 Cd1B 1_555 1_555
N4B C14B 1_555 1_555
N5B C17B 1_555 1_555
N5B_2 Cd1B 1_555 1_555
N6B C22B 1_555 1_555
C1B N1B 1_555 1_555
H9B C1B 1_555 1_555
C2B C1B 1_555 1_555
H10B C2B 1_555 1_555
C3B C2B 1_555 1_555
C4B C3B 1_555 1_555
H11B C4B 1_555 1_555
C5B N1B 1_555 1_555
H12B C5B 1_555 1_555
C6B C3B 1_555 1_555
H13B C6B 1_555 1_555
H14B C6B 1_555 1_555
C7B C8 1_555 1_555
H15B C7B 1_555 1_555
H16B C7B 1_555 1_555
C8B C7 1_555 1_555
H17B C8B 1_555 1_555
H18B C8B 1_555 1_555
C9B H19B 1_555 1_555
C10B C9B 1_555 1_555
H20B C10B 1_555 1_555
C11B C10B 1_555 1_555
C12B C11B 1_555 1_555
H21B C12B 1_555 1_555
C13B N3B 1_555 1_555
H22B C13B 1_555 1_555
C14B C11B 1_555 1_555
H23B C14B 1_555 1_555
H24B C14B 1_555 1_555
C15B C16 1_555 1_555
H25B C15B 1_555 1_555
H26B C15B 1_555 1_555
C16B C15 1_555 1_555
H27B C16B 1_555 1_555
H28B C16B 1_555 1_555
C17B H29B 1_555 1_555
C18B C17B 1_555 1_555
H30B C18B 1_555 1_555
C19B C18B 1_555 1_555
C20B C19B 1_555 1_555
H31B C20B 1_555 1_555
C21B N5B 1_555 1_555
H32B C21B 1_555 1_555
C22B C19B 1_555 1_555
H33B C22B 1_555 1_555
H34B C22B 1_555 1_555
C23B C24 1_555 1_555
H35B C23B 1_555 1_555
H36B C23B 1_555 1_555
C24B C23 1_555 1_555
H37B C24B 1_555 1_555
H38B C24B 1_555 1_555
C25B O3B 1_555 1_555
C26B C25B 1_555 1_555
H39B C26B 1_555 1_555
H40B C26B 1_555 1_555
C27B C26B 1_555 1_555
C28B C27B 1_555 1_555
H41B C28B 1_555 1_555
C29B C28B 1_555 1_555
H42B C29B 1_555 1_555
C30B C29B 1_555 1_555
H43B C30B 1_555 1_555
C31B C30B 1_555 1_555
H44B C31B 1_555 1_555
C32B C27B 1_555 1_555
C33B C32B 1_555 1_555
C4 C5 1_555 1_555
C12 C13 1_555 1_555
C20 C21 1_555 1_555
C31 C32 1_555 1_555
N2B C7B 1_555 1_555
N2B C8B 1_555 1_555
N4B C15B 1_555 1_555
N4B C16B 1_555 1_555
N6B C23B 1_555 1_555
N6B C24B 1_555 1_555
C4B C5B 1_555 1_555
C12B C13B 1_555 1_555
C20B C21B 1_555 1_555
C31B C32B 1_555 1_555

#END
