
#######################################################################
#
#                 Cambridge Crystallographic Data Centre
#                                CCDC 
#
#######################################################################
#
# If this CIF has been generated from an entry in the Cambridge 
# Structural Database, then it will include bibliographic, chemical, 
# crystal, experimental, refinement or atomic coordinate data resulting 
# from the CCDC's data processing and validation procedures.
#
#######################################################################

data_IVOXEX
_symmetry_cell_setting           monoclinic
_symmetry_space_group_name_H-M   'P 21/n'
_symmetry_Int_Tables_number      14
_space_group_name_Hall           '-P 2yn'
loop_
_symmetry_equiv_pos_site_id
_symmetry_equiv_pos_as_xyz
1 x,y,z
2 1/2-x,1/2+y,1/2-z
3 -x,-y,-z
4 1/2+x,1/2-y,1/2+z
_cell_length_a                   12.5782(16)
_cell_length_b                   6.8079(9)
_cell_length_c                   17.707(2)
_cell_angle_alpha                90
_cell_angle_beta                 91.975(2)
_cell_angle_gamma                90
_cell_volume                     1515.37
loop_
_atom_site_label
_atom_site_type_symbol
_atom_site_fract_x
_atom_site_fract_y
_atom_site_fract_z
Zn1 Zn 0.53720(2) 0.06254(4) 0.925230(14)
O1 O 0.56694(15) -0.8576(3) 1.11486(11)
O2 O 0.65338(17) 0.7294(3) 0.64012(11)
O3 O 0.59454(14) -0.2352(3) 1.05090(11)
O4 O 0.62181(15) -0.7726(3) 1.00118(11)
O5 O 0.64818(16) -0.1507(3) 0.93651(11)
N1 N 0.57519(15) 0.2195(3) 0.83181(11)
N2 N 0.56831(16) 0.5035(4) 0.56567(11)
C1 C 0.8385(2) -0.6306(4) 1.21823(15)
H1 H 0.8619 -0.6780 1.2664
C2 C 0.5443(2) 0.4088(4) 0.82916(16)
H2 H 0.5146 0.4650 0.8728
C3 C 0.4937(2) 0.3398(4) 0.55464(14)
H3 H 0.4685 0.2959 0.6042
H4 H 0.5304 0.2281 0.5310
C4 C 0.5538(2) 0.5241(4) 0.76609(16)
H5 H 0.5323 0.6578 0.7668
C5 C 0.71724(19) -0.6509(4) 1.10930(14)
C6 C 0.6322(2) 0.2512(4) 0.70471(14)
H6 H 0.6646 0.1935 0.6624
C7 C 0.6011(2) 0.5978(4) 0.49562(15)
H7 H 0.6457 0.5053 0.4674
H8 H 0.6449 0.7147 0.5084
C8 C 0.7390(2) -0.4094(4) 0.99809(15)
H9 H 0.7153 -0.5190 0.9649
H10 H 0.8039 -0.3531 0.9765
C9 C 0.8548(2) -0.4081(4) 1.11497(16)
H11 H 0.8907 -0.3003 1.0933
C10 C 0.65315(19) -0.2530(4) 0.99563(14)
C11 C 0.7525(2) -0.7159(4) 1.18009(14)
H12 H 0.7165 -0.8220 1.2030
C12 C 0.6075(2) 0.5728(4) 0.63288(17)
C13 C 0.8893(2) -0.4761(4) 1.18514(16)
H13 H 0.9484 -0.4158 1.2106
C14 C 0.62119(19) 0.1456(4) 0.77072(14)
H14 H 0.6474 0.0148 0.7729
C15 C 0.5951(2) 0.4437(4) 0.70139(15)
C16 C 0.62788(19) -0.7668(4) 1.07185(14)
C17 C 0.76875(18) -0.4929(4) 1.07487(13)
Zn1B Zn 0.46280(2) -1.06254(4) 1.074770(14)
Zn1B_2 Zn 0.46280(2) -0.06254(4) 1.074770(14)
Zn1_2 Zn 0.53720(2) -0.93746(4) 0.925230(14)
Zn1B_3 Zn 0.46280(2) 0.93746(4) 0.074770(14)
O1B O 0.43306(15) -0.1424(3) 0.88514(11)
O2B O 0.34662(17) 0.2706(3) 0.35988(11)
O3B O 0.40546(14) -0.7648(3) 0.94910(11)
O3B_2 O 0.40546(14) 0.2352(3) 0.94910(11)
O3_2 O 0.59454(14) -1.2352(3) 1.05090(11)
O4B O 0.37819(15) -0.2274(3) 0.99882(11)
O4_2 O 0.62181(15) 0.2274(3) 1.00118(11)
O4B_2 O 0.37819(15) -1.2274(3) 0.99882(11)
O5B O 0.35182(16) -0.8493(3) 1.06349(11)
N1B N 0.42481(15) 0.7805(3) 0.16819(11)
N1B_2 N 0.42481(15) -1.2195(3) 1.16819(11)
N2B N 0.43169(16) 0.4965(4) 0.43433(11)
C1B C 0.1615(2) -0.3694(4) 0.78177(15)
H1B H 0.1381 -0.3220 0.7336
C2B C 0.4557(2) 0.5912(4) 0.17084(16)
H2B H 0.4854 0.5350 0.1272
C3B C 0.5063(2) 0.6602(4) 0.44536(14)
H3B H 0.5315 0.7041 0.3958
H4B H 0.4696 0.7719 0.4690
C4B C 0.4462(2) 0.4759(4) 0.23391(16)
H5B H 0.4677 0.3422 0.2332
C5B C 0.28276(19) -0.3491(4) 0.89070(14)
C6B C 0.3678(2) 0.7488(4) 0.29529(14)
H6B H 0.3354 0.8065 0.3376
C7B C 0.3989(2) 0.4022(4) 0.50438(15)
H7B H 0.3543 0.4947 0.5326
H8B H 0.3551 0.2853 0.4916
C8B C 0.2610(2) -0.5906(4) 1.00191(15)
H9B H 0.2847 -0.4810 1.0351
H10B H 0.1961 -0.6469 1.0235
C9B C 0.1452(2) -0.5919(4) 0.88503(16)
H11B H 0.1093 -0.6997 0.9067
C10B C 0.34685(19) -0.7470(4) 1.00437(14)
C11B C 0.2475(2) -0.2841(4) 0.81991(14)
H12B H 0.2835 -0.1780 0.7970
C12B C 0.3925(2) 0.4272(4) 0.36712(17)
C13B C 0.1107(2) -0.5239(4) 0.81486(16)
H13B H 0.0516 -0.5842 0.7894
C14B C 0.37881(19) 0.8544(4) 0.22928(14)
H14B H 0.3526 0.9852 0.2271
C15B C 0.4049(2) 0.5563(4) 0.29861(15)
C16B C 0.37212(19) -0.2332(4) 0.92815(14)
C17B C 0.23125(18) -0.5071(4) 0.92513(13)
loop_
_geom_bond_atom_site_label_1
_geom_bond_atom_site_label_2
_geom_bond_site_symmetry_1
_geom_bond_site_symmetry_2
Zn1 O5 1_555 1_555
O1 C16 1_555 1_555
O2 C12 1_555 1_555
O3 C10 1_555 1_555
O4 C16 1_555 1_555
O5 C10 1_555 1_555
N1 Zn1 1_555 1_555
N2 C3 1_555 1_555
C1 H1 1_555 1_555
C2 N1 1_555 1_555
H2 C2 1_555 1_555
C3 H3 1_555 1_555
H4 C3 1_555 1_555
C4 C2 1_555 1_555
H5 C4 1_555 1_555
C5 C11 1_555 1_555
C6 H6 1_555 1_555
C7 N2 1_555 1_555
H7 C7 1_555 1_555
H8 C7 1_555 1_555
C8 H9 1_555 1_555
H10 C8 1_555 1_555
C9 H11 1_555 1_555
C10 C8 1_555 1_555
C11 C1 1_555 1_555
H12 C11 1_555 1_555
C12 N2 1_555 1_555
C13 C1 1_555 1_555
H13 C13 1_555 1_555
C14 N1 1_555 1_555
H14 C14 1_555 1_555
C15 C4 1_555 1_555
C16 C5 1_555 1_555
C17 C5 1_555 1_555
Zn1B O1 1_555 1_555
Zn1B_2 O3 1_555 1_555
Zn1_2 O4 1_555 1_555
Zn1B_3 N1B 1_555 1_555
O1B Zn1 1_555 1_555
O2B C12B 1_555 1_555
O3B Zn1_2 1_555 1_555
O3B_2 Zn1 1_555 1_555
O3_2 Zn1B 1_555 1_555
O4B Zn1B_2 1_555 1_555
O4_2 Zn1 1_555 1_555
O4B_2 Zn1B 1_555 1_555
O5B Zn1B 1_555 1_555
N1B C2B 1_555 1_555
N1B_2 Zn1B 1_555 1_555
N2B C3B 1_555 1_555
C1B H1B 1_555 1_555
C2B H2B 1_555 1_555
C3B C7 1_555 1_555
H3B C3B 1_555 1_555
H4B C3B 1_555 1_555
C4B C2B 1_555 1_555
H5B C4B 1_555 1_555
C5B C11B 1_555 1_555
C6B H6B 1_555 1_555
C7B C3 1_555 1_555
H7B C7B 1_555 1_555
H8B C7B 1_555 1_555
C8B H9B 1_555 1_555
H10B C8B 1_555 1_555
C9B H11B 1_555 1_555
C10B O3B 1_555 1_555
C11B C1B 1_555 1_555
H12B C11B 1_555 1_555
C12B N2B 1_555 1_555
C13B C1B 1_555 1_555
H13B C13B 1_555 1_555
C14B N1B 1_555 1_555
H14B C14B 1_555 1_555
C15B C4B 1_555 1_555
C16B O1B 1_555 1_555
C17B C5B 1_555 1_555
C6 C14 1_555 1_555
C6 C15 1_555 1_555
C8 C17 1_555 1_555
C9 C13 1_555 1_555
C9 C17 1_555 1_555
C12 C15 1_555 1_555
O4B C16B 1_555 1_555
O5B C10B 1_555 1_555
N2B C7B 1_555 1_555
C5B C16B 1_555 1_555
C6B C14B 1_555 1_555
C6B C15B 1_555 1_555
C8B C10B 1_555 1_555
C8B C17B 1_555 1_555
C9B C13B 1_555 1_555
C9B C17B 1_555 1_555
C12B C15B 1_555 1_555

#END
