
#######################################################################
#
#                 Cambridge Crystallographic Data Centre
#                                CCDC 
#
#######################################################################
#
# If this CIF has been generated from an entry in the Cambridge 
# Structural Database, then it will include bibliographic, chemical, 
# crystal, experimental, refinement or atomic coordinate data resulting 
# from the CCDC's data processing and validation procedures.
#
#######################################################################

data_IVOXAT
_symmetry_cell_setting           monoclinic
_symmetry_space_group_name_H-M   'P 21/c'
_symmetry_Int_Tables_number      14
_space_group_name_Hall           '-P 2ybc'
loop_
_symmetry_equiv_pos_site_id
_symmetry_equiv_pos_as_xyz
1 x,y,z
2 -x,1/2+y,1/2-z
3 -x,-y,-z
4 x,1/2-y,1/2+z
_cell_length_a                   7.3033(2)
_cell_length_b                   8.1317(2)
_cell_length_c                   30.5265(7)
_cell_angle_alpha                90
_cell_angle_beta                 95.2210(10)
_cell_angle_gamma                90
_cell_volume                     1805.39
loop_
_atom_site_label
_atom_site_type_symbol
_atom_site_fract_x
_atom_site_fract_y
_atom_site_fract_z
Zn1 Zn 0.37614(2) 0.06221(2) 0.213119(6)
O1 O 0.51840(16) 0.22654(16) 0.25438(4)
O2 O 0.67745(16) 0.33345(16) 0.31249(4)
O3 O 0.76933(16) -0.28090(15) 0.32679(4)
O4 O 0.98320(19) -0.20322(17) 0.28345(5)
O5 O 0.18259(18) 0.04808(17) 0.25822(4)
H1 H 0.120(3) -0.035(2) 0.2644(9)
H2 H 0.100(3) 0.116(3) 0.2474(8)
N1 N 0.60422(19) 0.05899(19) 0.17478(5)
N2 N 0.9997(2) 0.0305(2) 0.04615(5)
C1 C 0.7483(2) -0.0382(2) 0.18683(6)
H3 H 0.7533 -0.0910 0.2147
C2 C 0.8898(2) -0.0652(2) 0.16062(6)
H4 H 0.9881 -0.1367 0.1702
C3 C 0.8876(2) 0.0129(3) 0.12007(6)
C4 C 0.7399(3) 0.1160(3) 0.10801(6)
H5 H 0.7335 0.1732 0.0808
C5 C 0.6016(2) 0.1351(3) 0.13599(6)
H6 H 0.5010 0.2053 0.1271
C6 C 1.0463(3) -0.0095(3) 0.09236(6)
H7 H 1.1495 0.0613 0.1041
H8 H 1.0884 -0.1252 0.0947
C7 C 1.1669(2) 0.0499(3) 0.02359(6)
H9 H 1.2373 -0.0543 0.0252
H10 H 1.2453 0.1367 0.0383
C8 C 0.8827(3) -0.0958(3) 0.02403(6)
H11 H 0.7691 -0.1080 0.0391
H12 H 0.9481 -0.2026 0.0256
C9 C 0.5891(2) 0.2176(2) 0.29364(5)
C10 C 0.5501(3) 0.0635(2) 0.32000(7)
H13 H 0.4151 0.0517 0.3197
H14 H 0.5956 -0.0328 0.3044
C11 C 0.6304(3) 0.0559(2) 0.36691(6)
C12 C 0.5172(3) 0.0977(3) 0.39993(8)
H15 H 0.3962 0.1367 0.3919
C13 C 0.5783(4) 0.0834(3) 0.44392(8)
H16 H 0.4998 0.1131 0.4658
C14 C 0.7508(4) 0.0266(3) 0.45587(7)
H17 H 0.7924 0.0153 0.4861
C15 C 0.8651(3) -0.0143(3) 0.42419(7)
H18 H 0.9851 -0.0540 0.4330
C16 C 0.8099(2) 0.0007(2) 0.37955(6)
C17 C 0.9408(3) -0.0372(3) 0.34582(7)
H19 H 1.0643 -0.0547 0.3613
H20 H 0.9486 0.0608 0.3268
C18 C 0.8947(2) -0.1851(2) 0.31640(6)
Zn1B Zn 1.62386(2) -0.06221(2) -0.213119(6)
Zn1A Zn 0.62386(2) -0.43779(2) 0.286881(6)
Zn1A_2 Zn 0.62386(2) 0.56221(2) 0.286881(6)
Zn1C Zn 1.37614(2) -0.56221(2) -0.286881(6)
Zn1C_2 Zn 1.37614(2) 0.43779(2) -0.286881(6)
O1B O 1.48160(16) -0.22654(16) -0.25438(4)
O2B O 1.32255(16) -0.33345(16) -0.31249(4)
O2A O 0.32255(16) -0.16655(16) 0.18751(4)
O2C O 1.67745(16) 0.16655(16) -0.18751(4)
O3B O 1.23067(16) 0.28090(15) -0.32679(4)
O3A O 0.23067(16) 0.21910(15) 0.17321(4)
O3C O 1.76933(16) -0.21910(15) -0.17321(4)
O4B O 1.01680(19) 0.20322(17) -0.28345(5)
O5B O 1.81741(18) -0.04808(17) -0.25822(4)
H1B H 1.880(3) 0.035(2) -0.2644(9)
H2B H 1.900(3) -0.116(3) -0.2474(8)
N1B N 1.39578(19) -0.05899(19) -0.17478(5)
N2B N 1.0003(2) -0.0305(2) -0.04615(5)
C1B C 1.2517(2) 0.0382(2) -0.18683(6)
H3B H 1.2467 0.0910 -0.2147
C2B C 1.1102(2) 0.0652(2) -0.16062(6)
H4B H 1.0119 0.1367 -0.1702
C3B C 1.1124(2) -0.0129(3) -0.12007(6)
C4B C 1.2601(3) -0.1160(3) -0.10801(6)
H5B H 1.2665 -0.1732 -0.0808
C5B C 1.3984(2) -0.1351(3) -0.13599(6)
H6B H 1.4990 -0.2053 -0.1271
C6B C 0.9537(3) 0.0095(3) -0.09236(6)
H7B H 0.8505 -0.0613 -0.1041
H8B H 0.9116 0.1252 -0.0947
C7B C 0.8331(2) -0.0499(3) -0.02359(6)
H9B H 0.7627 0.0543 -0.0252
H10B H 0.7547 -0.1367 -0.0383
C8B C 1.1173(3) 0.0958(3) -0.02403(6)
H11B H 1.2309 0.1080 -0.0391
H12B H 1.0519 0.2026 -0.0256
C9B C 1.4109(2) -0.2176(2) -0.29364(5)
C10B C 1.4499(3) -0.0635(2) -0.32000(7)
H13B H 1.5849 -0.0517 -0.3197
H14B H 1.4044 0.0328 -0.3044
C11B C 1.3696(3) -0.0559(2) -0.36691(6)
C12B C 1.4828(3) -0.0977(3) -0.39993(8)
H15B H 1.6038 -0.1367 -0.3919
C13B C 1.4217(4) -0.0834(3) -0.44392(8)
H16B H 1.5002 -0.1131 -0.4658
C14B C 1.2492(4) -0.0266(3) -0.45587(7)
H17B H 1.2076 -0.0153 -0.4861
C15B C 1.1349(3) 0.0143(3) -0.42419(7)
H18B H 1.0149 0.0540 -0.4330
C16B C 1.1901(2) -0.0007(2) -0.37955(6)
C17B C 1.0592(3) 0.0372(3) -0.34582(7)
H19B H 0.9357 0.0547 -0.3613
H20B H 1.0514 -0.0608 -0.3268
C18B C 1.1053(2) 0.1851(2) -0.31640(6)
loop_
_geom_bond_atom_site_label_1
_geom_bond_atom_site_label_2
_geom_bond_site_symmetry_1
_geom_bond_site_symmetry_2
Zn1 O1 1_555 1_555
O1 C9 1_555 1_555
O2 C9 1_555 1_555
O3 C18 1_555 1_555
O4 C18 1_555 1_555
O5 Zn1 1_555 1_555
H1 O5 1_555 1_555
H2 O5 1_555 1_555
N1 Zn1 1_555 1_555
N2 C6 1_555 1_555
C1 N1 1_555 1_555
H3 C1 1_555 1_555
C2 C1 1_555 1_555
H4 C2 1_555 1_555
C3 C2 1_555 1_555
C4 C3 1_555 1_555
H5 C4 1_555 1_555
C5 N1 1_555 1_555
H6 C5 1_555 1_555
C6 C3 1_555 1_555
H7 C6 1_555 1_555
H8 C6 1_555 1_555
C7 N2 1_555 1_555
H9 C7 1_555 1_555
H10 C7 1_555 1_555
C8 N2 1_555 1_555
H11 C8 1_555 1_555
H12 C8 1_555 1_555
C9 C10 1_555 1_555
C10 H13 1_555 1_555
H14 C10 1_555 1_555
C11 C10 1_555 1_555
C12 C11 1_555 1_555
H15 C12 1_555 1_555
C13 C12 1_555 1_555
H16 C13 1_555 1_555
C14 C13 1_555 1_555
H17 C14 1_555 1_555
C15 C14 1_555 1_555
H18 C15 1_555 1_555
C16 C11 1_555 1_555
C17 C16 1_555 1_555
H19 C17 1_555 1_555
H20 C17 1_555 1_555
C18 C17 1_555 1_555
Zn1B O1B 1_555 1_555
Zn1A O3 1_555 1_555
Zn1A_2 O2 1_555 1_555
Zn1C O2B 1_555 1_555
Zn1C_2 O3B 1_555 1_555
O1B C9B 1_555 1_555
O2B C9B 1_555 1_555
O2A Zn1 1_555 1_555
O2C Zn1B 1_555 1_555
O3B C18B 1_555 1_555
O3A Zn1 1_555 1_555
O3C Zn1B 1_555 1_555
O4B C18B 1_555 1_555
O5B Zn1B 1_555 1_555
H1B O5B 1_555 1_555
H2B O5B 1_555 1_555
N1B Zn1B 1_555 1_555
N2B C6B 1_555 1_555
C1B N1B 1_555 1_555
H3B C1B 1_555 1_555
C2B C1B 1_555 1_555
H4B C2B 1_555 1_555
C3B C2B 1_555 1_555
C4B C3B 1_555 1_555
H5B C4B 1_555 1_555
C5B N1B 1_555 1_555
H6B C5B 1_555 1_555
C6B C3B 1_555 1_555
H7B C6B 1_555 1_555
H8B C6B 1_555 1_555
C7B C8 1_555 1_555
H9B C7B 1_555 1_555
H10B C7B 1_555 1_555
C8B C7 1_555 1_555
H11B C8B 1_555 1_555
H12B C8B 1_555 1_555
C9B C10B 1_555 1_555
C10B H13B 1_555 1_555
H14B C10B 1_555 1_555
C11B C10B 1_555 1_555
C12B C11B 1_555 1_555
H15B C12B 1_555 1_555
C13B C12B 1_555 1_555
H16B C13B 1_555 1_555
C14B C13B 1_555 1_555
H17B C14B 1_555 1_555
C15B C14B 1_555 1_555
H18B C15B 1_555 1_555
C16B C11B 1_555 1_555
C17B C16B 1_555 1_555
H19B C17B 1_555 1_555
H20B C17B 1_555 1_555
C18B C17B 1_555 1_555
C4 C5 1_555 1_555
C15 C16 1_555 1_555
N2B C7B 1_555 1_555
N2B C8B 1_555 1_555
C4B C5B 1_555 1_555
C15B C16B 1_555 1_555

#END
