
#######################################################################
#
#                 Cambridge Crystallographic Data Centre
#                                CCDC 
#
#######################################################################
#
# If this CIF has been generated from an entry in the Cambridge 
# Structural Database, then it will include bibliographic, chemical, 
# crystal, experimental, refinement or atomic coordinate data resulting 
# from the CCDC's data processing and validation procedures.
#
#######################################################################

data_IVUVOL
_symmetry_cell_setting           monoclinic
_symmetry_space_group_name_H-M   'P 21/c'
_symmetry_Int_Tables_number      14
_space_group_name_Hall           '-P 2ybc'
loop_
_symmetry_equiv_pos_site_id
_symmetry_equiv_pos_as_xyz
1 x,y,z
2 -x,1/2+y,1/2-z
3 -x,-y,-z
4 x,1/2-y,1/2+z
_cell_length_a                   11.95(3)
_cell_length_b                   10.3200(11)
_cell_length_c                   19.690(2)
_cell_angle_alpha                90
_cell_angle_beta                 102.640(2)
_cell_angle_gamma                90
_cell_volume                     2369.4
loop_
_atom_site_label
_atom_site_type_symbol
_atom_site_fract_x
_atom_site_fract_y
_atom_site_fract_z
Sn1 Sn 1.05518(5) 0.50034(7) 0.27387(4)
Fe1 Fe 0.61765(11) 0.40026(17) 0.13376(7)
O1 O 0.9345(5) 0.3118(8) 0.2143(4)
O2 O 0.8376(6) 0.1435(8) 0.1678(4)
C1 C 0.7750(8) 0.3417(12) 0.1219(5)
C2 C 0.8569(8) 0.2635(11) 0.1722(5)
C3 C 0.7667(9) 0.4784(12) 0.1184(6)
H1 H 0.8158 0.5394 0.1496
C4 C 0.6878(8) 0.2905(13) 0.0682(5)
H2 H 0.6726 0.1986 0.0575
C5 C 0.6261(9) 0.3985(13) 0.0320(6)
H3 H 0.5605 0.3929 -0.0077
C6 C 0.4513(9) 0.3823(15) 0.1400(7)
H4 H 0.3851 0.3665 0.1017
C7 C 0.6753(10) 0.5121(13) 0.0623(6)
H5 H 0.6499 0.6003 0.0482
C8 C 0.4940(11) 0.4998(14) 0.1657(8)
H6 H 0.4640 0.5842 0.1473
C9 C 1.1625(11) 0.3494(18) 0.3248(8)
H7 H 1.1769 0.3646 0.3746
H8 H 1.1210 0.2682 0.3156
C10 C 0.9055(10) 0.5402(14) 0.3101(6)
H9 H 0.8609 0.6031 0.2788
H10 H 0.8606 0.4612 0.3062
C11 C 1.0701(11) 0.5525(17) 0.1745(7)
H11 H 1.0526 0.4760 0.1455
H12 H 1.0099 0.6150 0.1573
C12 C 0.5997(10) 0.3502(15) 0.2290(6)
H13 H 0.6589 0.3072 0.2641
C13 C 1.1795(13) 0.608(2) 0.1613(7)
H14 H 1.2438 0.5540 0.1832
H15 H 1.1917 0.6942 0.1812
C14 C 0.5210(11) 0.2888(16) 0.1814(7)
H16 H 0.5122 0.1946 0.1765
C15 C 0.5861(12) 0.4821(15) 0.2222(7)
H17 H 0.6311 0.5494 0.2510
C16 C 0.7992(12) 0.602(2) 0.3987(9)
H18 H 0.7531 0.6605 0.3655
H19 H 0.7623 0.5176 0.3935
C17 C 0.9189(11) 0.5902(19) 0.3832(6)
H20 H 0.9563 0.6742 0.3876
H21 H 0.9656 0.5311 0.4159
C18 C 0.806(2) 0.652(3) 0.4716(10)
H22 H 0.7891 0.5823 0.5004
H23 H 0.7507 0.7199 0.4704
H24 H 0.8813 0.6843 0.4904
C19 C 1.4780(15) 0.401(2) 0.4047(10)
H25 H 1.4671 0.3934 0.4514
H26 H 1.5224 0.4776 0.4011
H27 H 1.5178 0.3265 0.3932
C20 C 1.2770(13) 0.334(3) 0.3043(11)
H28 H 1.2997 0.2437 0.3064
H29 H 1.2719 0.3653 0.2572
C21 C 1.3619(15) 0.412(3) 0.3545(12)
H30 H 1.3147 0.4466 0.3845
H31 H 1.3743 0.4847 0.3258
C22 C 1.0774(16) 0.696(2) 0.0378(10)
H32 H 1.0065 0.6807 0.0519
H33 H 1.0687 0.6719 -0.0102
H34 H 1.0974 0.7856 0.0436
C23 C 1.1715(15) 0.614(2) 0.0822(6)
H35 H 1.2443 0.6460 0.0750
H36 H 1.1628 0.5262 0.0645
Sn1A Sn 0.94482(5) 0.00034(7) 0.22613(4)
O2A O 1.1624(6) 0.6435(8) 0.3322(4)
loop_
_geom_bond_atom_site_label_1
_geom_bond_atom_site_label_2
_geom_bond_site_symmetry_1
_geom_bond_site_symmetry_2
Sn1 O1 1_555 1_555
Fe1 C1 1_555 1_555
O1 C2 1_555 1_555
O2 C2 1_555 1_555
C1 C2 1_555 1_555
C3 Fe1 1_555 1_555
H1 C3 1_555 1_555
C4 Fe1 1_555 1_555
H2 C4 1_555 1_555
C5 Fe1 1_555 1_555
H3 C5 1_555 1_555
C6 Fe1 1_555 1_555
H4 C6 1_555 1_555
C7 Fe1 1_555 1_555
H5 C7 1_555 1_555
C8 Fe1 1_555 1_555
H6 C8 1_555 1_555
C9 Sn1 1_555 1_555
H7 C9 1_555 1_555
H8 C9 1_555 1_555
C10 Sn1 1_555 1_555
H9 C10 1_555 1_555
H10 C10 1_555 1_555
C11 Sn1 1_555 1_555
H11 C11 1_555 1_555
H12 C11 1_555 1_555
C12 Fe1 1_555 1_555
H13 C12 1_555 1_555
C13 C11 1_555 1_555
H14 C13 1_555 1_555
H15 C13 1_555 1_555
C14 Fe1 1_555 1_555
H16 C14 1_555 1_555
C15 Fe1 1_555 1_555
H17 C15 1_555 1_555
C16 H18 1_555 1_555
H19 C16 1_555 1_555
C17 C10 1_555 1_555
H20 C17 1_555 1_555
H21 C17 1_555 1_555
C18 C16 1_555 1_555
H22 C18 1_555 1_555
H23 C18 1_555 1_555
H24 C18 1_555 1_555
C19 H25 1_555 1_555
H26 C19 1_555 1_555
H27 C19 1_555 1_555
C20 C9 1_555 1_555
H28 C20 1_555 1_555
H29 C20 1_555 1_555
C21 C19 1_555 1_555
H30 C21 1_555 1_555
H31 C21 1_555 1_555
C22 H32 1_555 1_555
H33 C22 1_555 1_555
H34 C22 1_555 1_555
C23 C13 1_555 1_555
H35 C23 1_555 1_555
H36 C23 1_555 1_555
Sn1A O2 1_555 1_555
O2A Sn1 1_555 1_555
C1 C3 1_555 1_555
C1 C4 1_555 1_555
C3 C7 1_555 1_555
C4 C5 1_555 1_555
C5 C7 1_555 1_555
C6 C8 1_555 1_555
C6 C14 1_555 1_555
C8 C15 1_555 1_555
C12 C14 1_555 1_555
C12 C15 1_555 1_555
C16 C17 1_555 1_555
C20 C21 1_555 1_555
C22 C23 1_555 1_555

#END
