
#######################################################################
#
#                 Cambridge Crystallographic Data Centre
#                                CCDC 
#
#######################################################################
#
# If this CIF has been generated from an entry in the Cambridge 
# Structural Database, then it will include bibliographic, chemical, 
# crystal, experimental, refinement or atomic coordinate data resulting 
# from the CCDC's data processing and validation procedures.
#
#######################################################################

data_IVUWUR
_symmetry_cell_setting           monoclinic
_symmetry_space_group_name_H-M   'C 2/c'
_symmetry_Int_Tables_number      15
_space_group_name_Hall           '-C 2yn'
loop_
_symmetry_equiv_pos_site_id
_symmetry_equiv_pos_as_xyz
1 x,y,z
2 1/2+x,1/2+y,z
3 x,-y,1/2+z
4 1/2+x,1/2-y,1/2+z
5 -x,-y,-z
6 1/2-x,1/2-y,-z
7 -x,y,1/2-z
8 1/2-x,1/2+y,1/2-z
_cell_length_a                   37.348(7)
_cell_length_b                   10.630(2)
_cell_length_c                   25.202(5)
_cell_angle_alpha                90
_cell_angle_beta                 104.083(4)
_cell_angle_gamma                90
_cell_volume                     9704.71
loop_
_atom_site_label
_atom_site_type_symbol
_atom_site_fract_x
_atom_site_fract_y
_atom_site_fract_z
In1 In 0.730454(13) 0.40086(4) 0.526357(19)
In2 In 0.7500 0.7500 0.5000
S1 S 0.73569(5) 0.26911(14) 0.61162(7)
S2 S 0.79645(5) 0.31391(14) 0.52915(7)
C1 C 0.78361(18) 0.2606(5) 0.6304(3)
C2 C 0.80748(18) 0.2770(5) 0.5988(3)
S3 S 0.80302(5) 0.23107(15) 0.69942(7)
S4 S 0.85423(5) 0.26999(15) 0.63252(8)
C3 C 0.84877(18) 0.2426(6) 0.6978(3)
S5 S 0.88285(6) 0.2293(2) 0.75246(9)
S6 S 0.66600(5) 0.48148(15) 0.52358(7)
S7 S 0.72586(5) 0.53656(14) 0.43958(7)
C4 C 0.65511(19) 0.5212(5) 0.4544(3)
C5 C 0.67766(19) 0.5429(5) 0.4208(3)
S8 S 0.60797(5) 0.53543(16) 0.42241(8)
S9 S 0.65717(6) 0.57681(15) 0.35265(7)
C6 C 0.6124(2) 0.5735(6) 0.3573(3)
S10 S 0.57682(7) 0.6067(2) 0.30591(9)
S11 S 0.81437(5) 0.66925(15) 0.50426(7)
S12 S 0.75439(5) 0.61054(14) 0.58669(7)
C7 C 0.82585(18) 0.6269(5) 0.5730(3)
C8 C 0.80219(18) 0.6048(5) 0.6056(3)
S13 S 0.87262(5) 0.61922(15) 0.60547(7)
S14 S 0.82309(5) 0.57445(15) 0.67441(7)
C9 C 0.86830(19) 0.5840(6) 0.6708(3)
S15 S 0.90360(6) 0.56282(18) 0.72385(8)
S6E S 0.83400(5) 1.01852(15) 0.47642(7)
S7E S 0.77414(5) 0.96344(14) 0.56042(7)
C4E C 0.84489(19) 0.9788(5) 0.5456(3)
C5E C 0.82234(19) 0.9571(5) 0.5792(3)
S8E S 0.89203(5) 0.96457(16) 0.57759(8)
S9E S 0.84283(6) 0.92319(15) 0.64735(7)
C6E C 0.8876(2) 0.9265(6) 0.6427(3)
S10E S 0.92318(7) 0.8933(2) 0.69409(9)
S11E S 0.68563(5) 0.83075(15) 0.49574(7)
S12E S 0.74561(5) 0.88946(14) 0.41331(7)
C7E C 0.67415(18) 0.8731(5) 0.4270(3)
C8E C 0.69781(18) 0.8952(5) 0.3944(3)
S13E S 0.62738(5) 0.88078(15) 0.39453(7)
S14E S 0.67691(5) 0.92555(15) 0.32559(7)
C9E C 0.63170(19) 0.9160(6) 0.3292(3)
S15E S 0.59640(6) 0.93718(18) 0.27615(8)
In1E In 0.769546(13) 1.09914(4) 0.473643(19)
S1E S 0.76431(5) 0.23089(14) 0.38838(7)
S2E S 0.70355(5) 0.18609(14) 0.47085(7)
C1E C 0.71639(18) 0.2394(5) 0.3696(3)
C2E C 0.69252(18) 0.2230(5) 0.4012(3)
S3E S 0.69698(5) 0.26893(15) 0.30058(7)
S4E S 0.64577(5) 0.23001(15) 0.36748(8)
C3E C 0.65123(18) 0.2574(6) 0.3022(3)
S5E S 0.61715(6) 0.2707(2) 0.24754(9)
In1E_2 In 0.769546(13) 0.09914(4) 0.473643(19)
S1E_2 S 0.76431(5) 1.23089(14) 0.38838(7)
S2_2 S 0.79645(5) 1.31391(14) 0.52915(7)
S2E_2 S 0.70355(5) 1.18609(14) 0.47085(7)
N1 N 0.6356(2) 0.0419(7) 0.6134(3)
C10 C 0.6292(3) 0.0948(9) 0.5559(3)
H1 H 0.6479 0.1604 0.5555
H2 H 0.6327 0.0267 0.5309
C11 C 0.5913(3) 0.1511(10) 0.5345(4)
H3 H 0.5725 0.0836 0.5301
H4 H 0.5864 0.2123 0.5615
C12 C 0.5880(3) 0.2151(14) 0.4813(4)
H5 H 0.5914 0.1522 0.4540
H6 H 0.6081 0.2778 0.4853
C13 C 0.5516(4) 0.2803(12) 0.4602(5)
H7 H 0.5510 0.3183 0.4245
H8 H 0.5486 0.3460 0.4860
H9 H 0.5316 0.2190 0.4562
C14 C 0.6294(2) 0.1441(9) 0.6530(3)
H10 H 0.6028 0.1646 0.6444
H11 H 0.6362 0.1096 0.6906
C15 C 0.6507(3) 0.2634(8) 0.6519(4)
H12 H 0.6774 0.2433 0.6602
H13 H 0.6437 0.2992 0.6145
C16 C 0.6443(3) 0.3604(10) 0.6916(4)
H14 H 0.6520 0.3259 0.7292
H15 H 0.6176 0.3796 0.6840
C17 C 0.6654(3) 0.4806(10) 0.6885(5)
H16 H 0.6605 0.5413 0.7152
H17 H 0.6575 0.5161 0.6516
H18 H 0.6919 0.4622 0.6967
C18 C 0.6759(3) -0.0019(9) 0.6286(4)
H19 H 0.6789 -0.0656 0.6014
H20 H 0.6915 0.0709 0.6246
C19 C 0.6908(3) -0.0567(18) 0.6844(6)
H21 H 0.6828 -0.1457 0.6832
H22 H 0.6787 -0.0125 0.7099
C20 C 0.7324(4) -0.0534(13) 0.7093(7)
H23 H 0.7441 0.0189 0.6955
H24 H 0.7381 -0.0501 0.7497
C21 C 0.7433(5) -0.1673(16) 0.6908(8)
H25 H 0.7701 -0.1765 0.7038
H26 H 0.7364 -0.1688 0.6507
H27 H 0.7310 -0.2368 0.7049
C22 C 0.6097(3) -0.0647(9) 0.6170(4)
H28 H 0.6154 -0.0951 0.6553
H29 H 0.5842 -0.0312 0.6084
C23 C 0.6108(4) -0.1748(10) 0.5802(5)
H30 H 0.6075 -0.1446 0.5422
H31 H 0.6353 -0.2157 0.5914
C24 C 0.5814(4) -0.2697(11) 0.5822(4)
H34 H 0.5889 -0.3134 0.6178
H35 H 0.5585 -0.2227 0.5821
C26 C 0.5720(4) -0.3657(14) 0.5400(6)
H39 H 0.5521 -0.4185 0.5467
H40 H 0.5938 -0.4180 0.5407
H41 H 0.5639 -0.3254 0.5041
N2 N 1.0000 0.2471(8) 0.7500
C27 C 0.9738(2) 0.1659(7) 0.7736(3)
H42 H 0.9578 0.2224 0.7890
H43 H 0.9577 0.1183 0.7433
C28 C 0.9918(2) 0.0750(10) 0.8168(5)
H44 H 1.0076 0.0173 0.8017
H45 H 1.0079 0.1217 0.8475
C29 C 0.9649(2) 0.0001(8) 0.8380(4)
H46 H 0.9495 0.0593 0.8531
H47 H 0.9484 -0.0430 0.8065
C30 C 0.9794(4) -0.0953(15) 0.8801(8)
H48 H 0.9588 -0.1386 0.8900
H49 H 0.9947 -0.0542 0.9126
H50 H 0.9943 -0.1564 0.8659
C31 C 0.9769(2) 0.3290(8) 0.7050(4)
H51 H 0.9615 0.2734 0.6770
H52 H 0.9600 0.3804 0.7209
C32 C 0.9981(3) 0.4153(9) 0.6770(4)
H53 H 1.0133 0.3645 0.6577
H54 H 1.0151 0.4671 0.7048
C33 C 0.9730(3) 0.5015(12) 0.6361(5)
H55 H 0.9536 0.4501 0.6119
H56 H 0.9607 0.5608 0.6562
C34 C 0.9932(5) 0.5759(13) 0.6013(7)
H57 H 0.9755 0.6279 0.5753
H58 H 1.0055 0.5179 0.5811
H59 H 1.0117 0.6300 0.6248
C27F C 1.0262(2) 0.1659(7) 0.7264(3)
H42F H 1.0422 0.2224 0.7110
H43F H 1.0423 0.1183 0.7567
C28F C 1.0082(2) 0.0750(10) 0.6832(5)
H44F H 0.9924 0.0173 0.6983
H45F H 0.9921 0.1217 0.6525
C29F C 1.0351(2) 0.0001(8) 0.6620(4)
H46F H 1.0505 0.0593 0.6469
H47F H 1.0516 -0.0430 0.6935
C30F C 1.0206(4) -0.0953(15) 0.6199(8)
H48F H 1.0412 -0.1386 0.6100
H49F H 1.0053 -0.0542 0.5874
H50F H 1.0057 -0.1564 0.6341
C31F C 1.0231(2) 0.3290(8) 0.7950(4)
H51F H 1.0385 0.2734 0.8230
H52F H 1.0400 0.3804 0.7791
C32F C 1.0019(3) 0.4153(9) 0.8230(4)
H53F H 0.9867 0.3645 0.8423
H54F H 0.9849 0.4671 0.7952
C33F C 1.0270(3) 0.5015(12) 0.8639(5)
H55F H 1.0464 0.4501 0.8881
H56F H 1.0393 0.5608 0.8438
C34F C 1.0068(5) 0.5759(13) 0.8987(7)
H57F H 1.0245 0.6279 0.9247
H58F H 0.9945 0.5179 0.9189
H59F H 0.9883 0.6300 0.8752
H32? H 0.5911 -0.3566 0.5836
H33? H 0.5708 -0.2554 0.6140
C25? C 0.5546(6) -0.246(3) 0.5315(8)
H36? H 0.5333 -0.3021 0.5289
H37? H 0.5657 -0.2626 0.5007
H38? H 0.5464 -0.1586 0.5304
loop_
_geom_bond_atom_site_label_1
_geom_bond_atom_site_label_2
_geom_bond_site_symmetry_1
_geom_bond_site_symmetry_2
In1 S1 1_555 1_555
In2 S7 1_555 1_555
S1 C1 1_555 1_555
S2 In1 1_555 1_555
C1 C2 1_555 1_555
C2 S2 1_555 1_555
S3 C1 1_555 1_555
S4 C2 1_555 1_555
C3 S3 1_555 1_555
S5 C3 1_555 1_555
S6 In1 1_555 1_555
S7 In1 1_555 1_555
C4 S6 1_555 1_555
C5 S7 1_555 1_555
S8 C4 1_555 1_555
S9 C5 1_555 1_555
C6 S8 1_555 1_555
S10 C6 1_555 1_555
S11 In2 1_555 1_555
S12 In1 1_555 1_555
C7 S11 1_555 1_555
C8 S12 1_555 1_555
S13 C7 1_555 1_555
S14 C8 1_555 1_555
C9 S13 1_555 1_555
S15 C9 1_555 1_555
N1 C10 1_555 1_555
C10 H1 1_555 1_555
H2 C10 1_555 1_555
C11 C10 1_555 1_555
H3 C11 1_555 1_555
H4 C11 1_555 1_555
C12 C11 1_555 1_555
H5 C12 1_555 1_555
H6 C12 1_555 1_555
C13 C12 1_555 1_555
H7 C13 1_555 1_555
H8 C13 1_555 1_555
H9 C13 1_555 1_555
C14 N1 1_555 1_555
H10 C14 1_555 1_555
H11 C14 1_555 1_555
C15 C14 1_555 1_555
H12 C15 1_555 1_555
H13 C15 1_555 1_555
C16 C15 1_555 1_555
H14 C16 1_555 1_555
H15 C16 1_555 1_555
C17 C16 1_555 1_555
H16 C17 1_555 1_555
H17 C17 1_555 1_555
H18 C17 1_555 1_555
C18 N1 1_555 1_555
H19 C18 1_555 1_555
H20 C18 1_555 1_555
C19 C18 1_555 1_555
H21 C19 1_555 1_555
H22 C19 1_555 1_555
C20 C19 1_555 1_555
H23 C20 1_555 1_555
H24 C20 1_555 1_555
C21 C20 1_555 1_555
H25 C21 1_555 1_555
H26 C21 1_555 1_555
H27 C21 1_555 1_555
C22 N1 1_555 1_555
H28 C22 1_555 1_555
H29 C22 1_555 1_555
C23 C22 1_555 1_555
H30 C23 1_555 1_555
H31 C23 1_555 1_555
C24 C23 1_555 1_555
H34 C24 1_555 1_555
H35 C24 1_555 1_555
C26 C24 1_555 1_555
H39 C26 1_555 1_555
H40 C26 1_555 1_555
H41 C26 1_555 1_555
N2 C27 1_555 1_555
C27 H42 1_555 1_555
H43 C27 1_555 1_555
C28 C27 1_555 1_555
H44 C28 1_555 1_555
H45 C28 1_555 1_555
C29 C28 1_555 1_555
H46 C29 1_555 1_555
H47 C29 1_555 1_555
C30 C29 1_555 1_555
H48 C30 1_555 1_555
H49 C30 1_555 1_555
H50 C30 1_555 1_555
C31 N2 1_555 1_555
H51 C31 1_555 1_555
H52 C31 1_555 1_555
C32 C31 1_555 1_555
H53 C32 1_555 1_555
H54 C32 1_555 1_555
C33 C32 1_555 1_555
H55 C33 1_555 1_555
H56 C33 1_555 1_555
C34 C33 1_555 1_555
H57 C34 1_555 1_555
H58 C34 1_555 1_555
H59 C34 1_555 1_555
C27F N2 1_555 1_555
H42F C27F 1_555 1_555
H43F C27F 1_555 1_555
C28F C27F 1_555 1_555
H44F C28F 1_555 1_555
H45F C28F 1_555 1_555
C29F C28F 1_555 1_555
H46F C29F 1_555 1_555
H47F C29F 1_555 1_555
C30F C29F 1_555 1_555
H48F C30F 1_555 1_555
H49F C30F 1_555 1_555
H50F C30F 1_555 1_555
C31F N2 1_555 1_555
H51F C31F 1_555 1_555
H52F C31F 1_555 1_555
C32F C31F 1_555 1_555
H53F C32F 1_555 1_555
H54F C32F 1_555 1_555
C33F C32F 1_555 1_555
H55F C33F 1_555 1_555
H56F C33F 1_555 1_555
C34F C33F 1_555 1_555
H57F C34F 1_555 1_555
H58F C34F 1_555 1_555
H59F C34F 1_555 1_555
S6E C4E 1_555 1_555
S7E In2 1_555 1_555
C4E C5E 1_555 1_555
C5E S7E 1_555 1_555
S8E C4E 1_555 1_555
S9E C5E 1_555 1_555
C6E S8E 1_555 1_555
S10E C6E 1_555 1_555
S11E In2 1_555 1_555
S12E In2 1_555 1_555
C7E S11E 1_555 1_555
C8E S12E 1_555 1_555
S13E C7E 1_555 1_555
S14E C8E 1_555 1_555
C9E S13E 1_555 1_555
S15E C9E 1_555 1_555
In1E S6E 1_555 1_555
S1E C1E 1_555 1_555
S2E In1 1_555 1_555
C1E C2E 1_555 1_555
C2E S2E 1_555 1_555
S3E C1E 1_555 1_555
S4E C2E 1_555 1_555
C3E S3E 1_555 1_555
S5E C3E 1_555 1_555
In1E_2 S2 1_555 1_555
S1E_2 In1E 1_555 1_555
S2_2 In1E 1_555 1_555
S2E_2 In1E 1_555 1_555
In2 S12 1_555 1_555
S4 C3 1_555 1_555
C4 C5 1_555 1_555
S9 C6 1_555 1_555
C7 C8 1_555 1_555
S14 C9 1_555 1_555
S7E In1E 1_555 1_555
S9E C6E 1_555 1_555
S12E In1E 1_555 1_555
C7E C8E 1_555 1_555
S14E C9E 1_555 1_555
S1E In1E_2 1_555 1_555
S2E In1E_2 1_555 1_555
S4E C3E 1_555 1_555

#END
