
#######################################################################
#
#                 Cambridge Crystallographic Data Centre
#                                CCDC 
#
#######################################################################
#
# If this CIF has been generated from an entry in the Cambridge 
# Structural Database, then it will include bibliographic, chemical, 
# crystal, experimental, refinement or atomic coordinate data resulting 
# from the CCDC's data processing and validation procedures.
#
#######################################################################

data_IVUXEC
_symmetry_cell_setting           monoclinic
_symmetry_space_group_name_H-M   'C 2/c'
_symmetry_Int_Tables_number      15
_space_group_name_Hall           '-C 2yn'
loop_
_symmetry_equiv_pos_site_id
_symmetry_equiv_pos_as_xyz
1 x,y,z
2 1/2+x,1/2+y,z
3 x,-y,1/2+z
4 1/2+x,1/2-y,1/2+z
5 -x,-y,-z
6 1/2-x,1/2-y,-z
7 -x,y,1/2-z
8 1/2-x,1/2+y,1/2-z
_cell_length_a                   15.183(3)
_cell_length_b                   16.508(3)
_cell_length_c                   14.874(3)
_cell_angle_alpha                90
_cell_angle_beta                 95.02(3)
_cell_angle_gamma                90
_cell_volume                     3713.73
loop_
_atom_site_label
_atom_site_type_symbol
_atom_site_fract_x
_atom_site_fract_y
_atom_site_fract_z
Cl2 Cl 0.5000 0.9098(2) 0.7500
O1 O 0.5000 1.0000 1.0000
C20 C 0.4457(10) 0.9946(12) 0.9141(11)
C20D C 0.5543(10) 1.0054(12) 1.0859(11)
Cd1 Cd 0.5000 0.70975(4) 0.7500
Cl1 Cl 0.5000 0.55707(13) 0.7500
N1 N 0.6343(3) 0.7296(3) 0.6813(3)
N2 N 0.7355(4) 0.8017(3) 0.6173(4)
N3 N 0.6510(3) 1.1882(2) 0.4952(3)
N4 N 0.5717(3) 1.2589(3) 0.3886(3)
C1 C 0.7133(3) 0.6855(3) 0.6836(3)
C2 C 0.7344(4) 0.6088(4) 0.7164(4)
H1 H 0.6927(4) 0.5766(4) 0.7416(4)
C3 C 0.8195(5) 0.5819(5) 0.7103(4)
H2 H 0.8346(5) 0.5306(5) 0.7323(4)
C4 C 0.8830(5) 0.6269(6) 0.6733(5)
H3 H 0.9396(5) 0.6058(6) 0.6715(5)
C5 C 0.8644(5) 0.7025(6) 0.6392(5)
H4 H 0.9071(5) 0.7335(6) 0.6141(5)
C6 C 0.7773(4) 0.7313(4) 0.6437(4)
C7 C 0.6513(5) 0.7970(4) 0.6409(4)
H5 H 0.6098(5) 0.8379(4) 0.6294(4)
C8 C 0.7745(9) 0.8708(5) 0.5710(8)
H6 H 0.8377(9) 0.8676(5) 0.5872(8)
H7 H 0.7660(9) 0.8584(5) 0.5070(8)
C9 C 0.7562(8) 0.9390(5) 0.5773(8)
H8 H 0.7621(8) 0.9520(5) 0.6411(8)
H9 H 0.6940(8) 0.9441(5) 0.5570(8)
C10 C 0.8055(5) 1.0055(4) 0.5289(6)
H10 H 0.8443(5) 1.0343(4) 0.5732(6)
H11 H 0.8421(5) 0.9800(4) 0.4867(6)
C11 C 0.7444(4) 1.0663(3) 0.4780(4)
H12 H 0.7768(4) 1.0950(3) 0.4346(4)
H13 H 0.6960(4) 1.0376(3) 0.4450(4)
C12 C 0.7077(4) 1.1261(3) 0.5409(4)
H14 H 0.6739(4) 1.0970(3) 0.5829(4)
H15 H 0.7565(4) 1.1526(3) 0.5757(4)
C13 C 0.6240(4) 1.1965(3) 0.4066(3)
H16 H 0.6409(4) 1.1613(3) 0.3625(3)
C14 C 0.6122(3) 1.2512(3) 0.5388(3)
C15 C 0.6175(4) 1.2737(3) 0.6292(3)
H17 H 0.6495(4) 1.2436(3) 0.6737(3)
C16 C 0.5727(4) 1.3430(4) 0.6493(3)
H18 H 0.5750(4) 1.3603(4) 0.7090(3)
C17 C 0.5239(4) 1.3882(3) 0.5830(3)
H19 H 0.4951(4) 1.4349(3) 0.5996(3)
C18 C 0.5174(3) 1.3654(3) 0.4933(3)
H20 H 0.4842(3) 1.3951(3) 0.4492(3)
C19 C 0.5632(3) 1.2954(3) 0.4720(3)
N1F N 0.3657(3) 0.7296(3) 0.8187(3)
N2F N 0.2645(4) 0.8017(3) 0.8827(4)
N3F N 0.3490(3) 1.1882(2) 1.0048(3)
N4F N 0.4283(3) 1.2589(3) 1.1114(3)
C1F C 0.2867(3) 0.6855(3) 0.8164(3)
C2F C 0.2656(4) 0.6088(4) 0.7836(4)
H1F H 0.3073(4) 0.5766(4) 0.7584(4)
C3F C 0.1805(5) 0.5819(5) 0.7897(4)
H2F H 0.1654(5) 0.5306(5) 0.7677(4)
C4F C 0.1170(5) 0.6269(6) 0.8267(5)
H3F H 0.0604(5) 0.6058(6) 0.8285(5)
C5F C 0.1356(5) 0.7025(6) 0.8608(5)
H4F H 0.0929(5) 0.7335(6) 0.8859(5)
C6F C 0.2227(4) 0.7313(4) 0.8563(4)
C7F C 0.3487(5) 0.7970(4) 0.8591(4)
H5F H 0.3902(5) 0.8379(4) 0.8706(4)
C8F C 0.2255(9) 0.8708(5) 0.9290(8)
H6F H 0.1623(9) 0.8676(5) 0.9128(8)
H7F H 0.2340(9) 0.8584(5) 0.9930(8)
C9F C 0.2438(8) 0.9390(5) 0.9227(8)
H8F H 0.2379(8) 0.9520(5) 0.8589(8)
H9F H 0.3060(8) 0.9441(5) 0.9430(8)
C10F C 0.1945(5) 1.0055(4) 0.9711(6)
H10F H 0.1557(5) 1.0343(4) 0.9268(6)
H11F H 0.1579(5) 0.9800(4) 1.0133(6)
C11F C 0.2556(4) 1.0663(3) 1.0220(4)
H12F H 0.2232(4) 1.0950(3) 1.0654(4)
H13F H 0.3040(4) 1.0376(3) 1.0550(4)
C12F C 0.2923(4) 1.1261(3) 0.9591(4)
H14F H 0.3261(4) 1.0970(3) 0.9171(4)
H15F H 0.2435(4) 1.1526(3) 0.9243(4)
C13F C 0.3760(4) 1.1965(3) 1.0934(3)
H16F H 0.3591(4) 1.1613(3) 1.1375(3)
C14F C 0.3878(3) 1.2512(3) 0.9612(3)
C15F C 0.3825(4) 1.2737(3) 0.8708(3)
H17F H 0.3505(4) 1.2436(3) 0.8263(3)
C16F C 0.4273(4) 1.3430(4) 0.8507(3)
H18F H 0.4250(4) 1.3603(4) 0.7910(3)
C17F C 0.4761(4) 1.3882(3) 0.9170(3)
H19F H 0.5049(4) 1.4349(3) 0.9004(3)
C18F C 0.4826(3) 1.3654(3) 1.0067(3)
H20F H 0.5158(3) 1.3951(3) 1.0508(3)
C19F C 0.4368(3) 1.2954(3) 1.0280(3)
N4B N 0.5717(3) 0.7411(3) 0.8886(3)
N4D N 0.4283(3) 0.7411(3) 0.6114(3)
Cd1B Cd 0.5000 1.29025(4) 0.2500
Cd1B_2 Cd 0.5000 1.29025(4) 1.2500
loop_
_geom_bond_atom_site_label_1
_geom_bond_atom_site_label_2
_geom_bond_site_symmetry_1
_geom_bond_site_symmetry_2
Cd1 Cl1 1_555 1_555
O1 C20 1_555 1_555
N1 Cd1 1_555 1_555
N2 C6 1_555 1_555
N3 C12 1_555 1_555
N4 C13 1_555 1_555
C1 N1 1_555 1_555
C2 C1 1_555 1_555
H1 C2 1_555 1_555
C3 C2 1_555 1_555
H2 C3 1_555 1_555
C4 C3 1_555 1_555
H3 C4 1_555 1_555
C5 C4 1_555 1_555
H4 C5 1_555 1_555
C6 C1 1_555 1_555
C7 N1 1_555 1_555
H5 C7 1_555 1_555
C8 N2 1_555 1_555
H6 C8 1_555 1_555
H7 C8 1_555 1_555
C9 C8 1_555 1_555
H8 C9 1_555 1_555
H9 C9 1_555 1_555
C10 C9 1_555 1_555
H10 C10 1_555 1_555
H11 C10 1_555 1_555
C11 C10 1_555 1_555
H12 C11 1_555 1_555
H13 C11 1_555 1_555
C12 C11 1_555 1_555
H14 C12 1_555 1_555
H15 C12 1_555 1_555
C13 N3 1_555 1_555
H16 C13 1_555 1_555
C14 N3 1_555 1_555
C15 C14 1_555 1_555
H17 C15 1_555 1_555
C16 C15 1_555 1_555
H18 C16 1_555 1_555
C17 C16 1_555 1_555
H19 C17 1_555 1_555
C18 C17 1_555 1_555
H20 C18 1_555 1_555
C19 N4 1_555 1_555
C20D O1 1_555 1_555
N1F Cd1 1_555 1_555
N2F C6F 1_555 1_555
N3F C12F 1_555 1_555
N4F C13F 1_555 1_555
C1F N1F 1_555 1_555
C2F C1F 1_555 1_555
H1F C2F 1_555 1_555
C3F C2F 1_555 1_555
H2F C3F 1_555 1_555
C4F C3F 1_555 1_555
H3F C4F 1_555 1_555
C5F C4F 1_555 1_555
H4F C5F 1_555 1_555
C6F C1F 1_555 1_555
C7F N1F 1_555 1_555
H5F C7F 1_555 1_555
C8F N2F 1_555 1_555
H6F C8F 1_555 1_555
H7F C8F 1_555 1_555
C9F C8F 1_555 1_555
H8F C9F 1_555 1_555
H9F C9F 1_555 1_555
C10F C9F 1_555 1_555
H10F C10F 1_555 1_555
H11F C10F 1_555 1_555
C11F C10F 1_555 1_555
H12F C11F 1_555 1_555
H13F C11F 1_555 1_555
C12F C11F 1_555 1_555
H14F C12F 1_555 1_555
H15F C12F 1_555 1_555
C13F N3F 1_555 1_555
H16F C13F 1_555 1_555
C14F N3F 1_555 1_555
C15F C14F 1_555 1_555
H17F C15F 1_555 1_555
C16F C15F 1_555 1_555
H18F C16F 1_555 1_555
C17F C16F 1_555 1_555
H19F C17F 1_555 1_555
C18F C17F 1_555 1_555
H20F C18F 1_555 1_555
C19F N4F 1_555 1_555
N4B Cd1 1_555 1_555
N4D Cd1 1_555 1_555
Cd1B N4 1_555 1_555
Cd1B_2 N4F 1_555 1_555
N2 C7 1_555 1_555
C5 C6 1_555 1_555
C14 C19 1_555 1_555
C18 C19 1_555 1_555
N2F C7F 1_555 1_555
C5F C6F 1_555 1_555
C14F C19F 1_555 1_555
C18F C19F 1_555 1_555

#END
