
#######################################################################
#
#                 Cambridge Crystallographic Data Centre
#                                CCDC 
#
#######################################################################
#
# If this CIF has been generated from an entry in the Cambridge 
# Structural Database, then it will include bibliographic, chemical, 
# crystal, experimental, refinement or atomic coordinate data resulting 
# from the CCDC's data processing and validation procedures.
#
#######################################################################

data_IVUXED
_symmetry_cell_setting           triclinic
_symmetry_space_group_name_H-M   'P -1'
_symmetry_Int_Tables_number      2
_space_group_name_Hall           '-P 1'
loop_
_symmetry_equiv_pos_site_id
_symmetry_equiv_pos_as_xyz
1 x,y,z
2 -x,-y,-z
_cell_length_a                   7.2204(7)
_cell_length_b                   10.3872(10)
_cell_length_c                   16.8942(17)
_cell_angle_alpha                72.9090(10)
_cell_angle_beta                 87.9440(10)
_cell_angle_gamma                88.4290(10)
_cell_volume                     1210.14
loop_
_atom_site_label
_atom_site_type_symbol
_atom_site_fract_x
_atom_site_fract_y
_atom_site_fract_z
La1 La 0.15054(2) 0.619267(13) 0.233785(8)
C1 C 0.7478(5) 0.0253(3) 0.4425(2)
C2 C 0.5752(5) 0.0504(3) 0.4013(2)
C3 C 0.4999(4) 0.1781(3) 0.37616(19)
C4 C 0.5892(4) 0.2884(3) 0.39072(19)
C5 C 0.7503(5) 0.2631(3) 0.4304(2)
C6 C 0.5096(4) 0.4284(3) 0.35994(17)
C7 C 0.1242(4) -0.0252(3) 0.16902(18)
C8 C 0.0519(5) -0.0010(3) 0.2429(2)
C9 C 0.0386(5) 0.1266(3) 0.2479(2)
C10 C 0.0988(4) 0.2369(3) 0.18151(19)
C11 C 0.1665(4) 0.2125(3) 0.11172(19)
C12 C 0.0918(4) 0.3754(3) 0.19028(18)
N1 N 0.8253(4) 0.1365(3) 0.4550(2)
N2 N 0.1755(4) 0.0846(2) 0.10643(16)
O2 O 0.0712(3) 0.5466(3) 0.38898(14)
O3 O 0.3619(3) 0.7501(2) 0.30761(14)
O4 O -0.1664(3) 0.6984(2) 0.27556(14)
O5 O -0.0626(3) 0.6842(2) 0.10463(13)
O6 O 0.4469(3) 0.6702(2) 0.14625(14)
O7 O 0.3761(3) 0.4445(2) 0.31221(14)
O8 O 0.5808(3) 0.5210(2) 0.38156(14)
O9 O 0.8302(3) -0.0858(2) 0.46537(17)
O10 O 0.1896(3) 0.46472(19) 0.14098(13)
O11 O -0.0065(3) 0.3982(2) 0.24819(14)
O12 O 0.1413(3) -0.13965(19) 0.15774(13)
H1 H -0.138(5) 0.619(3) 0.093(2)
H2 H -0.136(4) 0.764(2) 0.092(2)
H3 H -0.241(5) 0.763(3) 0.241(2)
H4 H -0.230(5) 0.628(3) 0.306(2)
H5 H 0.122(5) 0.478(3) 0.4332(18)
H6 H -0.030(4) 0.581(4) 0.414(2)
H7 H 0.512(5) 0.742(3) 0.149(2)
H8 H 0.520(5) 0.613(4) 0.124(3)
H9 H 0.014(5) -0.073(4) 0.287(2)
H10 H -0.011(5) 0.146(4) 0.295(2)
H11 H 0.201(4) 0.277(3) 0.069(2)
H15 H 0.375(4) 0.196(3) 0.3508(18)
H16 H 0.511(4) -0.028(3) 0.3954(18)
H17 H 0.812(5) 0.328(4) 0.445(2)
H20 H 0.430(5) 0.677(3) 0.339(2)
H21 H 0.443(5) 0.807(4) 0.269(2)
H22 H 0.216(4) 0.077(3) 0.062(2)
H23 H 0.909(5) 0.120(3) 0.474(2)
La1_2 La 0.15054(2) -0.380733(13) 0.233785(8)
O12_2 O 0.1413(3) 0.86035(19) 0.15774(13)
C13 C 0.6665(4) 0.3994(3) 0.08208(18)
C14 C 0.6005(5) 0.3065(3) 0.1569(2)
C15 C 0.6019(5) 0.1724(3) 0.16558(19)
C16 C 0.6677(4) 0.1195(3) 0.10161(18)
C17 C 0.7318(4) 0.2090(3) 0.03044(18)
C18 C 0.6731(4) -0.0288(3) 0.11158(18)
N3 N 0.7293(4) 0.3425(3) 0.02258(17)
O13 O 0.6722(3) 0.5251(2) 0.06771(13)
O14 O 0.6100(3) -0.1054(2) 0.17881(14)
O15 O 0.7423(4) -0.0706(2) 0.05451(14)
H12 H 0.777(4) 0.181(3) -0.017(2)
H13 H 0.564(4) 0.343(3) 0.194(2)
H14 H 0.550(4) 0.117(3) 0.212(2)
H24 H 0.758(5) 0.392(3) -0.018(2)
O1 O 0.2127(4) 0.3560(2) 0.52179(14)
H18 H 0.300(6) 0.385(4) 0.550(3)
H19 H 0.230(6) 0.264(2) 0.527(3)
loop_
_geom_bond_atom_site_label_1
_geom_bond_atom_site_label_2
_geom_bond_site_symmetry_1
_geom_bond_site_symmetry_2
La1 O2 1_555 1_555
C1 C2 1_555 1_555
C2 C3 1_555 1_555
C3 C4 1_555 1_555
C4 C5 1_555 1_555
C5 N1 1_555 1_555
C6 C4 1_555 1_555
C7 C8 1_555 1_555
C8 C9 1_555 1_555
C9 C10 1_555 1_555
C10 C11 1_555 1_555
C11 N2 1_555 1_555
C12 C10 1_555 1_555
C13 C14 1_555 1_555
C14 C15 1_555 1_555
C15 C16 1_555 1_555
C16 C17 1_555 1_555
C17 N3 1_555 1_555
C18 C16 1_555 1_555
N1 C1 1_555 1_555
N2 C7 1_555 1_555
N3 C13 1_555 1_555
O1 H18 1_555 1_555
O2 H5 1_555 1_555
O3 La1 1_555 1_555
O4 La1 1_555 1_555
O5 La1 1_555 1_555
O6 La1 1_555 1_555
O7 La1 1_555 1_555
O8 C6 1_555 1_555
O9 C1 1_555 1_555
O10 La1 1_555 1_555
O11 La1 1_555 1_555
O12 C7 1_555 1_555
O13 C13 1_555 1_555
O14 C18 1_555 1_555
O15 C18 1_555 1_555
H1 O5 1_555 1_555
H2 O5 1_555 1_555
H3 O4 1_555 1_555
H4 O4 1_555 1_555
H6 O2 1_555 1_555
H7 O6 1_555 1_555
H8 O6 1_555 1_555
H9 C8 1_555 1_555
H10 C9 1_555 1_555
H11 C11 1_555 1_555
H12 C17 1_555 1_555
H13 C14 1_555 1_555
H14 C15 1_555 1_555
H15 C3 1_555 1_555
H16 C2 1_555 1_555
H17 C5 1_555 1_555
H19 O1 1_555 1_555
H20 O3 1_555 1_555
H21 O3 1_555 1_555
H22 N2 1_555 1_555
H23 N1 1_555 1_555
H24 N3 1_555 1_555
La1_2 O12 1_555 1_555
O12_2 La1 1_555 1_555
C6 O7 1_555 1_555
C12 O10 1_555 1_555
C12 O11 1_555 1_555

#END
