
#######################################################################
#
#                 Cambridge Crystallographic Data Centre
#                                CCDC 
#
#######################################################################
#
# If this CIF has been generated from an entry in the Cambridge 
# Structural Database, then it will include bibliographic, chemical, 
# crystal, experimental, refinement or atomic coordinate data resulting 
# from the CCDC's data processing and validation procedures.
#
#######################################################################

data_IVUXUT
_symmetry_cell_setting           triclinic
_symmetry_space_group_name_H-M   'P -1'
_symmetry_Int_Tables_number      2
_space_group_name_Hall           '-P 1'
loop_
_symmetry_equiv_pos_site_id
_symmetry_equiv_pos_as_xyz
1 x,y,z
2 -x,-y,-z
_cell_length_a                   9.2182(6)
_cell_length_b                   10.6434(7)
_cell_length_c                   13.0519(9)
_cell_angle_alpha                66.3340(10)
_cell_angle_beta                 85.8200(10)
_cell_angle_gamma                78.5260(10)
_cell_volume                     1149.39
loop_
_atom_site_label
_atom_site_type_symbol
_atom_site_fract_x
_atom_site_fract_y
_atom_site_fract_z
La1 La 0.277830(12) 0.497789(11) 0.466054(9)
C1 C 0.0035(3) 0.4407(2) 0.33460(19)
C2 C -0.0512(3) 0.4053(3) 0.2460(2)
C3 C -0.1978(3) 0.4207(3) 0.2287(2)
H1 H -0.2653 0.4487 0.2754
C4 C -0.1598(3) 0.3543(4) 0.0717(3)
C5 C -0.0041(4) 0.3334(5) 0.0916(3)
H2 H 0.0627 0.3022 0.0462
C6 C 0.0479(3) 0.3580(4) 0.1747(3)
H3 H 0.1495 0.3439 0.1853
C7 C 0.2565(3) 0.1345(3) 0.5794(2)
C8 C 0.1673(3) 0.0828(3) 0.5263(3)
H4 H 0.0771 0.1368 0.4941
C9 C 0.2126(3) -0.0440(3) 0.5223(3)
H5 H 0.1528 -0.0764 0.4876
C10 C 0.3503(3) -0.1287(2) 0.5704(2)
C11 C 0.4334(3) -0.0789(2) 0.62159(19)
H6 H 0.5241 -0.1318 0.6535
C12 C 0.4080(3) -0.2626(2) 0.55468(19)
C13 C 0.4825(3) 0.6501(2) 0.27768(19)
C14 C 0.5614(3) 0.7305(3) 0.1753(2)
C15 C 0.6958(3) 0.7591(3) 0.1823(2)
H7 H 0.7421 0.7248 0.2518
C16 C 0.7052(3) 0.8917(3) -0.0160(2)
C17 C 0.5672(3) 0.8545(3) -0.0245(2)
H8 H 0.5245 0.8834 -0.0946
C18 C 0.4976(3) 0.7777(3) 0.0679(2)
H9 H 0.4072 0.7558 0.0605
N1 N 0.3855(2) 0.0479(2) 0.62690(17)
N2 N 0.7641(3) 0.8366(2) 0.09002(18)
N3 N -0.2485(3) 0.3963(3) 0.1451(2)
O3 O 0.0849(2) 0.7171(2) 0.35813(17)
O5 O 0.35390(19) 0.63670(19) 0.26722(14)
O6 O 0.54755(19) 0.59836(17) 0.37218(13)
O7 O 0.7747(2) 0.9676(2) -0.09502(15)
O8 O 0.13999(19) 0.42870(19) 0.34321(15)
O9 O -0.2160(3) 0.3409(3) -0.0066(2)
O10 O 0.2219(2) 0.25318(17) 0.58502(14)
O11 O 0.3218(2) -0.29969(17) 0.50609(15)
O12 O 0.53661(18) -0.32505(17) 0.58894(15)
O13 O -0.0919(2) 0.48213(19) 0.39466(14)
H13 H 0.090(4) 0.737(4) 0.296(3)
H14 H 0.008(4) 0.722(4) 0.378(3)
H16 H 0.452(4) 0.078(4) 0.664(3)
H17 H 0.840(3) 0.848(3) 0.096(2)
H18 H -0.325(4) 0.399(3) 0.138(2)
La1A La 0.722170(12) 0.502211(11) 0.533946(9)
La1_2 La 0.277830(12) -0.502211(11) 0.466054(9)
La1A_2 La 0.722170(12) -0.497789(11) 0.533946(9)
La1A_3 La -0.277830(12) 0.502211(11) 0.533946(9)
O6A O 0.45245(19) 0.40164(17) 0.62782(13)
O11_2 O 0.3218(2) 0.70031(17) 0.50609(15)
O12A O 0.46339(18) 0.32505(17) 0.41106(15)
O13A O 0.0919(2) 0.51787(19) 0.60534(14)
O1 O 0.0632(2) 0.8253(2) 0.12184(17)
H15 H 0.107(4) 0.891(3) 0.096(3)
H19 H 0.107(4) 0.774(4) 0.092(3)
O2 O 0.3547(3) 0.9324(2) 0.29775(18)
H11 H 0.309(4) 0.962(3) 0.235(3)
H12 H 0.308(4) 0.873(3) 0.341(3)
O4 O 0.4358(3) 0.4217(3) 0.1552(2)
H10 H 0.3734 0.4884 0.1271
H20 H 0.405(5) 0.409(5) 0.221(2)
loop_
_geom_bond_atom_site_label_1
_geom_bond_atom_site_label_2
_geom_bond_site_symmetry_1
_geom_bond_site_symmetry_2
La1 O3 1_555 1_555
C1 C2 1_555 1_555
C2 C3 1_555 1_555
C3 H1 1_555 1_555
C4 C5 1_555 1_555
C5 H2 1_555 1_555
C6 C2 1_555 1_555
H3 C6 1_555 1_555
C7 C8 1_555 1_555
C8 H4 1_555 1_555
C9 C8 1_555 1_555
H5 C9 1_555 1_555
C10 C9 1_555 1_555
C11 C10 1_555 1_555
H6 C11 1_555 1_555
C12 C10 1_555 1_555
C13 C14 1_555 1_555
C14 C15 1_555 1_555
C15 H7 1_555 1_555
C16 C17 1_555 1_555
C17 H8 1_555 1_555
C18 C14 1_555 1_555
H9 C18 1_555 1_555
N1 C7 1_555 1_555
N2 C15 1_555 1_555
N3 C3 1_555 1_555
O1 H15 1_555 1_555
O2 H11 1_555 1_555
O3 H13 1_555 1_555
O4 H10 1_555 1_555
O5 La1 1_555 1_555
O6 La1 1_555 1_555
O7 C16 1_555 1_555
O8 La1 1_555 1_555
O9 C4 1_555 1_555
O10 La1 1_555 1_555
O11 C12 1_555 1_555
O12 C12 1_555 1_555
O13 C1 1_555 1_555
H12 O2 1_555 1_555
H14 O3 1_555 1_555
H16 N1 1_555 1_555
H17 N2 1_555 1_555
H18 N3 1_555 1_555
H19 O1 1_555 1_555
H20 O4 1_555 1_555
La1A O6 1_555 1_555
La1_2 O11 1_555 1_555
La1A_2 O12 1_555 1_555
La1A_3 O13 1_555 1_555
O6A La1 1_555 1_555
O11_2 La1 1_555 1_555
O12A La1 1_555 1_555
O13A La1 1_555 1_555
C1 O8 1_555 1_555
C4 N3 1_555 1_555
C5 C6 1_555 1_555
C7 O10 1_555 1_555
C11 N1 1_555 1_555
C13 O5 1_555 1_555
C13 O6 1_555 1_555
C16 N2 1_555 1_555
C17 C18 1_555 1_555
La1A O6A 1_555 1_555

#END
