
#######################################################################
#
#                 Cambridge Crystallographic Data Centre
#                                CCDC 
#
#######################################################################
#
# If this CIF has been generated from an entry in the Cambridge 
# Structural Database, then it will include bibliographic, chemical, 
# crystal, experimental, refinement or atomic coordinate data resulting 
# from the CCDC's data processing and validation procedures.
#
#######################################################################

data_IVUXON
_symmetry_cell_setting           triclinic
_symmetry_space_group_name_H-M   'P -1'
_symmetry_Int_Tables_number      2
_space_group_name_Hall           '-P 1'
loop_
_symmetry_equiv_pos_site_id
_symmetry_equiv_pos_as_xyz
1 x,y,z
2 -x,-y,-z
_cell_length_a                   7.1183(6)
_cell_length_b                   10.2744(8)
_cell_length_c                   16.6950(13)
_cell_angle_alpha                73.6890(10)
_cell_angle_beta                 88.1250(10)
_cell_angle_gamma                88.1280(10)
_cell_volume                     1170.89
loop_
_atom_site_label
_atom_site_type_symbol
_atom_site_fract_x
_atom_site_fract_y
_atom_site_fract_z
Gd1 Gd 0.651023(17) 1.122516(12) 0.233916(8)
O1 O 0.6971(3) 0.9673(2) 0.14494(14)
O2 O 0.4459(3) 1.1812(2) 0.10868(14)
O3 O 0.9350(3) 1.1725(2) 0.14912(15)
O4 O 0.6369(3) 0.3574(2) 0.16296(14)
O5 O 1.0789(3) 1.0283(2) 0.37966(15)
O6 O 0.3432(3) 1.1998(2) 0.27493(15)
O7 O 0.8728(3) 0.9501(2) 0.30761(14)
O8 O 0.5786(4) 1.0528(3) 0.38430(15)
N1 N 0.6707(4) 0.5827(3) 0.11034(17)
C1 C 0.6212(4) 0.4728(3) 0.17391(19)
C2 C 0.5937(4) 0.8799(3) 0.19421(19)
O9 O 1.3268(4) 0.4141(2) 0.46548(18)
C3 C 1.0849(4) 0.7924(3) 0.3893(2)
N2 N 1.3223(4) 0.6388(3) 0.4558(2)
C4 C 1.2435(5) 0.5270(3) 0.4423(2)
C5 C 1.0696(5) 0.5528(3) 0.4001(2)
H1 H 1.0069 0.4814 0.3897
C6 C 1.0060(4) 0.9341(3) 0.35743(19)
C7 C 0.5513(5) 0.5008(3) 0.2487(2)
H2 H 0.5151 0.4299 0.2944
C8 C 0.6638(4) 0.7114(3) 0.11547(19)
H3 H 0.7051 0.7812 0.0703
O10 O 0.8527(3) 1.2502(2) 0.30609(15)
O11 O 0.4950(3) 0.9085(2) 0.25159(14)
C9 C 0.9945(5) 0.6806(3) 0.3750(2)
H4 H 0.8807 0.6950 0.3476
C10 C 1.2482(4) 0.7664(3) 0.4308(2)
H5 H 1.3104 0.8371 0.4423
C11 C 0.5971(4) 0.7399(3) 0.18601(19)
C12 C 0.5375(5) 0.6307(3) 0.2533(2)
H6 H 0.4878 0.6480 0.3016
H10 H 1.410(6) 0.624(4) 0.478(2)
H12 H 0.703(5) 0.566(4) 0.069(2)
H15 H 0.379(4) 1.265(2) 0.090(2)
H16 H 0.369(4) 1.117(3) 0.098(2)
H17 H 0.269(5) 1.131(3) 0.307(2)
H18 H 0.267(4) 1.264(3) 0.2380(19)
H19 H 0.627(5) 0.980(3) 0.428(2)
H20 H 0.482(6) 1.094(5) 0.410(3)
H21 H 0.926(5) 1.177(3) 0.337(2)
H22 H 0.933(5) 1.305(4) 0.265(2)
H23 H 1.008(4) 1.117(3) 0.125(2)
H24 H 1.005(5) 1.244(3) 0.154(2)
Gd1_2 Gd 0.651023(17) 0.122516(12) 0.233916(8)
O4_2 O 0.6369(3) 1.3574(2) 0.16296(14)
O12 O 0.1713(3) 1.0283(2) 0.06838(14)
C13 C 0.1748(4) 0.4703(3) 0.1103(2)
O13 O 0.2462(4) 0.4269(2) 0.05264(15)
O14 O 0.1105(3) 0.3939(2) 0.17792(14)
C14 C 0.1688(4) 0.6195(3) 0.10053(19)
N3 N 0.2290(4) 0.8442(3) 0.02120(17)
C15 C 0.2316(4) 0.7092(3) 0.0291(2)
H7 H 0.2768 0.6775 -0.0151
C16 C 0.1018(4) 0.6740(3) 0.1655(2)
H8 H 0.0571 0.6155 0.2151
C17 C 0.1009(4) 0.8092(3) 0.1573(2)
H9 H 0.0570 0.8415 0.2014
C18 C 0.1664(4) 0.9021(3) 0.0820(2)
H11 H 0.261(6) 0.900(5) -0.024(3)
O15 O 0.2906(4) 0.1422(2) 0.48027(15)
H13 H 0.265(6) 0.234(2) 0.470(3)
H14 H 0.203(6) 0.105(4) 0.453(3)
loop_
_geom_bond_atom_site_label_1
_geom_bond_atom_site_label_2
_geom_bond_site_symmetry_1
_geom_bond_site_symmetry_2
Gd1 O1 1_555 1_555
O1 C2 1_555 1_555
O2 Gd1 1_555 1_555
O3 Gd1 1_555 1_555
O4 C1 1_555 1_555
O5 C6 1_555 1_555
O6 Gd1 1_555 1_555
O7 Gd1 1_555 1_555
O8 Gd1 1_555 1_555
N1 C1 1_555 1_555
C1 C7 1_555 1_555
C2 O11 1_555 1_555
O9 C4 1_555 1_555
C3 C6 1_555 1_555
N2 C4 1_555 1_555
C4 C5 1_555 1_555
C5 H1 1_555 1_555
C6 O7 1_555 1_555
C7 H2 1_555 1_555
C8 N1 1_555 1_555
H3 C8 1_555 1_555
O10 Gd1 1_555 1_555
O11 Gd1 1_555 1_555
C9 C3 1_555 1_555
H4 C9 1_555 1_555
C10 C3 1_555 1_555
H5 C10 1_555 1_555
C11 C2 1_555 1_555
C12 C7 1_555 1_555
H6 C12 1_555 1_555
O12 C18 1_555 1_555
C13 O13 1_555 1_555
O14 C13 1_555 1_555
C14 C13 1_555 1_555
N3 C15 1_555 1_555
C15 C14 1_555 1_555
H7 C15 1_555 1_555
C16 C14 1_555 1_555
H8 C16 1_555 1_555
C17 C16 1_555 1_555
H9 C17 1_555 1_555
C18 N3 1_555 1_555
O15 H13 1_555 1_555
H10 N2 1_555 1_555
H11 N3 1_555 1_555
H12 N1 1_555 1_555
H14 O15 1_555 1_555
H15 O2 1_555 1_555
H16 O2 1_555 1_555
H17 O6 1_555 1_555
H18 O6 1_555 1_555
H19 O8 1_555 1_555
H20 O8 1_555 1_555
H21 O10 1_555 1_555
H22 O10 1_555 1_555
H23 O3 1_555 1_555
H24 O3 1_555 1_555
Gd1_2 O4 1_555 1_555
O4_2 Gd1 1_555 1_555
N2 C10 1_555 1_555
C5 C9 1_555 1_555
C8 C11 1_555 1_555
C11 C12 1_555 1_555
C17 C18 1_555 1_555

#END
