
#######################################################################
#
#                 Cambridge Crystallographic Data Centre
#                                CCDC 
#
#######################################################################
#
# If this CIF has been generated from an entry in the Cambridge 
# Structural Database, then it will include bibliographic, chemical, 
# crystal, experimental, refinement or atomic coordinate data resulting 
# from the CCDC's data processing and validation procedures.
#
#######################################################################

data_IVUYAA
_symmetry_cell_setting           triclinic
_symmetry_space_group_name_H-M   'P -1'
_symmetry_Int_Tables_number      2
_space_group_name_Hall           '-P 1'
loop_
_symmetry_equiv_pos_site_id
_symmetry_equiv_pos_as_xyz
1 x,y,z
2 -x,-y,-z
_cell_length_a                   9.1988(7)
_cell_length_b                   10.5667(7)
_cell_length_c                   13.0366(9)
_cell_angle_alpha                66.4440(10)
_cell_angle_beta                 85.9270(10)
_cell_angle_gamma                78.6460(10)
_cell_volume                     1138.8
loop_
_atom_site_label
_atom_site_type_symbol
_atom_site_fract_x
_atom_site_fract_y
_atom_site_fract_z
Pr1 Pr 0.277890(14) 0.497454(13) 0.466633(10)
O1 O 0.4491(2) 0.4023(2) 0.62573(15)
O2 O 0.6456(2) 0.3657(2) 0.72808(15)
O3 O 0.2265(2) 0.0337(3) 1.09424(17)
O4 O 0.1396(2) 0.4303(2) 0.34639(16)
O5 O -0.0928(2) 0.4829(2) 0.39703(16)
O6 O -0.2149(3) 0.3414(3) -0.0065(2)
O7 O 0.4613(2) 0.3261(2) 0.41311(16)
O8 O 0.6775(2) 0.3015(2) 0.49495(16)
O9 O 0.7781(2) -0.25445(19) 0.41661(16)
O10 O 0.0873(3) 0.7149(2) 0.3610(2)
N1 N 0.2359(3) 0.1641(3) 0.9092(2)
N2 N -0.2481(3) 0.3950(3) 0.1466(2)
N3 N 0.6149(3) -0.0477(3) 0.3741(2)
C1 C 0.5156(3) 0.3510(3) 0.7191(2)
C2 C 0.3030(3) 0.2413(3) 0.8164(2)
H1 H 0.2558 0.2749 0.7473
C3 C 0.4384(3) 0.2709(3) 0.8223(2)
C4 C 0.5030(3) 0.2236(3) 0.9302(2)
H2 H 0.5942 0.2450 0.9371
C5 C 0.4332(3) 0.1477(4) 1.0231(2)
H3 H 0.4758 0.1201 1.0931
C6 C 0.2952(3) 0.1097(3) 1.0150(2)
C7 C 0.0029(3) 0.4413(3) 0.3374(2)
C8 C -0.1984(3) 0.4200(3) 0.2304(2)
H4 H -0.2664 0.4479 0.2770
C9 C -0.0504(3) 0.4051(3) 0.2484(2)
C10 C 0.0480(4) 0.3578(4) 0.1775(3)
H5 H 0.1497 0.3431 0.1886
C11 C -0.0036(4) 0.3334(5) 0.0936(3)
H6 H 0.0638 0.3019 0.0485
C12 C -0.1580(4) 0.3545(4) 0.0725(3)
C13 C 0.5915(3) 0.2640(3) 0.4464(2)
C14 C 0.5665(3) 0.0792(3) 0.3790(2)
H7 H 0.4758 0.1321 0.3465
C15 C 0.6487(3) 0.1301(3) 0.4307(2)
C16 C 0.7865(3) 0.0452(3) 0.4790(3)
H8 H 0.8459 0.0776 0.5144
C17 C 0.8326(3) -0.0824(3) 0.4741(3)
H9 H 0.9236 -0.1356 0.5056
C18 C 0.7443(3) -0.1360(3) 0.4217(2)
H10 H 0.012(5) 0.714(4) 0.379(3)
H14 H 0.088(4) 0.736(4) 0.303(4)
H18 H 0.563(3) -0.070(3) 0.349(2)
H19 H -0.334(4) 0.405(3) 0.141(3)
H20 H 0.159(4) 0.153(4) 0.904(3)
Pr1A Pr 0.722110(14) 0.502546(13) 0.533367(10)
Pr1A_2 Pr -0.277890(14) 0.502546(13) 0.533367(10)
Pr1A_3 Pr 0.722110(14) -0.497454(13) 0.533367(10)
O1A O 0.5509(2) 0.5977(2) 0.37427(15)
O2A O 0.3544(2) 0.6343(2) 0.27192(15)
O5A O 0.0928(2) 0.5171(2) 0.60297(16)
O8A O 0.3225(2) 0.6985(2) 0.50505(16)
O9A O 0.2219(2) 0.25445(19) 0.58339(16)
O11 O 0.0639(3) 0.8242(3) 0.1228(2)
H11 H 0.103(5) 0.767(5) 0.088(4)
H15 H 0.097(5) 0.890(5) 0.108(3)
O12 O 0.4346(3) 0.4209(4) 0.1573(3)
H12 H 0.386(5) 0.493(5) 0.118(4)
H16 H 0.405(5) 0.425(5) 0.223(4)
O13 O 0.6468(3) 0.0663(3) 0.7026(2)
H13 H 0.698(6) 0.040(5) 0.767(5)
H17 H 0.687(5) 0.134(5) 0.666(4)
loop_
_geom_bond_atom_site_label_1
_geom_bond_atom_site_label_2
_geom_bond_site_symmetry_1
_geom_bond_site_symmetry_2
Pr1 O1 1_555 1_555
O1 C1 1_555 1_555
O2 C1 1_555 1_555
O3 C6 1_555 1_555
O4 Pr1 1_555 1_555
O5 C7 1_555 1_555
O6 C12 1_555 1_555
O7 Pr1 1_555 1_555
O8 C13 1_555 1_555
O9 C18 1_555 1_555
O10 Pr1 1_555 1_555
O11 H11 1_555 1_555
O12 H12 1_555 1_555
O13 H13 1_555 1_555
N1 C2 1_555 1_555
N2 C8 1_555 1_555
N3 C14 1_555 1_555
C1 C3 1_555 1_555
C2 H1 1_555 1_555
C3 C2 1_555 1_555
C4 C3 1_555 1_555
H2 C4 1_555 1_555
C5 C4 1_555 1_555
H3 C5 1_555 1_555
C6 N1 1_555 1_555
C7 O4 1_555 1_555
C8 H4 1_555 1_555
C9 C7 1_555 1_555
C10 C9 1_555 1_555
H5 C10 1_555 1_555
C11 C10 1_555 1_555
H6 C11 1_555 1_555
C12 N2 1_555 1_555
C13 O7 1_555 1_555
C14 H7 1_555 1_555
C15 C13 1_555 1_555
C16 C15 1_555 1_555
H8 C16 1_555 1_555
C17 C16 1_555 1_555
H9 C17 1_555 1_555
C18 N3 1_555 1_555
H10 O10 1_555 1_555
H14 O10 1_555 1_555
H15 O11 1_555 1_555
H16 O12 1_555 1_555
H17 O13 1_555 1_555
H18 N3 1_555 1_555
H19 N2 1_555 1_555
H20 N1 1_555 1_555
Pr1A O1 1_555 1_555
Pr1A_2 O5 1_555 1_555
Pr1A_3 O9 1_555 1_555
O1A Pr1 1_555 1_555
O2A Pr1 1_555 1_555
O5A Pr1 1_555 1_555
O8A Pr1 1_555 1_555
O9A Pr1 1_555 1_555
O2 Pr1A 1_555 1_555
O8 Pr1A 1_555 1_555
C5 C6 1_555 1_555
C8 C9 1_555 1_555
C11 C12 1_555 1_555
C14 C15 1_555 1_555
C17 C18 1_555 1_555
Pr1A O1A 1_555 1_555

#END
