
#######################################################################
#
#                 Cambridge Crystallographic Data Centre
#                                CCDC 
#
#######################################################################
#
# If this CIF has been generated from an entry in the Cambridge 
# Structural Database, then it will include bibliographic, chemical, 
# crystal, experimental, refinement or atomic coordinate data resulting 
# from the CCDC's data processing and validation procedures.
#
#######################################################################

data_IVUZOO
_symmetry_cell_setting           monoclinic
_symmetry_space_group_name_H-M   'P 21/c'
_symmetry_Int_Tables_number      14
_space_group_name_Hall           '-P 2ybc'
loop_
_symmetry_equiv_pos_site_id
_symmetry_equiv_pos_as_xyz
1 x,y,z
2 x,1/2-y,1/2+z
3 -x,-y,-z
4 -x,1/2+y,1/2-z
_cell_length_a                   9.2853(10)
_cell_length_b                   6.388(2)
_cell_length_c                   16.324(3)
_cell_angle_alpha                90
_cell_angle_beta                 121.595(10)
_cell_angle_gamma                90
_cell_volume                     824.729
loop_
_atom_site_label
_atom_site_type_symbol
_atom_site_fract_x
_atom_site_fract_y
_atom_site_fract_z
Zn1 Zn 0.35343(5) 0.32182(6) 0.33331(3)
Cl1 Cl 0.34420(10) 0.18462(15) 0.20385(6)
Cl2 Cl 0.59430(10) 0.25123(15) 0.47005(6)
N1 N 0.1480(3) 0.2353(4) 0.3403(2)
N2 N -0.0299(4) 0.2121(5) 0.1744(2)
N3 N -0.3152(4) 0.1454(5) 0.1932(2)
C1 C -0.0103(4) 0.2103(5) 0.2626(2)
C2 C -0.1495(4) 0.1898(5) 0.2750(2)
C3 C -0.1233(4) 0.1960(6) 0.3661(2)
C4 C 0.0404(5) 0.2200(6) 0.4451(2)
C5 C 0.1716(4) 0.2356(5) 0.4297(2)
H1 H -0.21610 0.18400 0.37510
H2 H 0.06070 0.22530 0.50850
H3 H 0.28350 0.24720 0.48380
H4 H 0.060(6) 0.188(7) 0.175(3)
H5 H -0.122(6) 0.185(7) 0.124(3)
H6 H -0.331(5) 0.210(7) 0.146(3)
H7 H -0.391(6) 0.181(7) 0.206(3)
N3C N 0.3152(4) 0.6454(5) 0.3068(2)
Zn1C Zn -0.35343(5) -0.17818(6) 0.16669(3)
H6C H 0.331(5) 0.710(7) 0.354(3)
H7C H 0.391(6) 0.681(7) 0.294(3)
loop_
_geom_bond_atom_site_label_1
_geom_bond_atom_site_label_2
_geom_bond_site_symmetry_1
_geom_bond_site_symmetry_2
Zn1 Cl1 1_555 1_555
Cl2 Zn1 1_555 1_555
N1 Zn1 1_555 1_555
N2 C1 1_555 1_555
N3 C2 1_555 1_555
C1 N1 1_555 1_555
C2 C1 1_555 1_555
C3 C2 1_555 1_555
C4 C3 1_555 1_555
C5 N1 1_555 1_555
H1 C3 1_555 1_555
H2 C4 1_555 1_555
H3 C5 1_555 1_555
H4 N2 1_555 1_555
H5 N2 1_555 1_555
H6 N3 1_555 1_555
H7 N3 1_555 1_555
N3C Zn1 1_555 1_555
Zn1C N3 1_555 1_555
H6C N3C 1_555 1_555
H7C N3C 1_555 1_555
C4 C5 1_555 1_555

#END
