
#######################################################################
#
#                 Cambridge Crystallographic Data Centre
#                                CCDC 
#
#######################################################################
#
# If this CIF has been generated from an entry in the Cambridge 
# Structural Database, then it will include bibliographic, chemical, 
# crystal, experimental, refinement or atomic coordinate data resulting 
# from the CCDC's data processing and validation procedures.
#
#######################################################################

data_IWAJAS
_symmetry_cell_setting           triclinic
_symmetry_space_group_name_H-M   'P -1'
_symmetry_Int_Tables_number      2
_space_group_name_Hall           '-P 1'
loop_
_symmetry_equiv_pos_site_id
_symmetry_equiv_pos_as_xyz
1 x,y,z
2 -x,-y,-z
_cell_length_a                   9.204(4)
_cell_length_b                   10.084(4)
_cell_length_c                   13.583(6)
_cell_angle_alpha                87.868(14)
_cell_angle_beta                 84.760(11)
_cell_angle_gamma                77.322(10)
_cell_volume                     1224.61
loop_
_atom_site_label
_atom_site_type_symbol
_atom_site_fract_x
_atom_site_fract_y
_atom_site_fract_z
Zn1 Zn 0.13935(4) 0.12283(3) 0.53114(3)
C1 C -0.4422(4) 0.5647(3) 0.3745(3)
H1 H -0.4989 0.6517 0.3604
O1 O -0.2473(2) 0.0701(2) 0.43648(17)
O2 O -0.1235(3) 0.6617(2) 0.46732(18)
O3 O -0.0503(3) 0.1576(2) 0.45515(18)
N1 N -0.7327(3) 0.1088(3) 1.39031(19)
N2 N 0.0033(3) 0.1300(3) 0.6706(2)
C2 C -0.1835(3) 0.1681(3) 0.4380(2)
O4 O -0.3134(3) 0.7894(2) 0.3995(2)
C3 C -0.3608(4) -0.0015(4) 1.0817(2)
H2 H -0.3555 -0.0841 1.1171
C4 C -0.2425(4) 0.6759(3) 0.4258(2)
C5 C -0.2742(4) 0.3079(3) 0.4155(2)
C6 C -0.2167(4) 0.4218(3) 0.4285(2)
H3 H -0.1212 0.4120 0.4509
C7 C -0.0376(4) 0.0415(4) 0.8341(3)
H4 H -0.0007 -0.0193 0.8848
C8 C -0.2750(4) 0.1222(4) 0.9408(2)
C9 C -0.3012(4) 0.5505(3) 0.4082(2)
C10 C -0.6908(4) 0.2045(4) 1.2293(3)
H5 H -0.7251 0.2705 1.1811
C11 C -0.5138(4) 0.0163(3) 1.2857(2)
H6 H -0.4245 -0.0499 1.2767
C12 C -0.5542(4) 0.1112(3) 1.2111(2)
C13 C -0.6034(3) 0.0182(3) 1.3730(2)
H7 H -0.5723 -0.0468 1.4225
C14 C -0.2713(4) 0.0014(4) 0.9948(3)
H8 H -0.2070 -0.0792 0.9716
C15 C -0.3729(4) 0.2392(4) 0.9777(3)
H9 H -0.3778 0.3221 0.9427
C16 C -0.7740(4) 0.1989(4) 1.3179(3)
H10 H -0.8654 0.2620 1.3282
C17 C -0.4588(4) 0.1152(4) 1.1181(2)
C18 C -0.1789(4) 0.1257(4) 0.8481(2)
C19 C -0.4152(4) 0.3222(3) 0.3827(3)
H11 H -0.4538 0.2448 0.3748
C20 C -0.2244(4) 0.2136(4) 0.7696(3)
H12 H -0.3183 0.2739 0.7751
C21 C -0.4624(4) 0.2357(4) 1.0643(3)
H13 H -0.5271 0.3161 1.0875
C22 C -0.4995(4) 0.4502(4) 0.3614(3)
H14 H -0.5946 0.4596 0.3384
C23 C -0.1318(4) 0.2120(4) 0.6842(3)
H15 H -0.1654 0.2721 0.6324
C24 C 0.0488(4) 0.0468(4) 0.7461(2)
H16 H 0.1443 -0.0109 0.7389
Zn1A Zn -0.13935(4) -0.12283(3) 0.46886(3)
Zn1_2 Zn -0.86065(4) 0.12283(3) 1.53114(3)
Zn1_3 Zn 0.13935(4) -0.87717(3) 0.53114(3)
Zn1A_2 Zn -0.13935(4) 0.87717(3) 0.46886(3)
Zn1A_3 Zn 0.86065(4) -0.12283(3) -0.53114(3)
C1A C 0.4422(4) -0.5647(3) 0.6255(3)
H1A H 0.4989 -0.6517 0.6396
O1A O 0.2473(2) -0.0701(2) 0.56352(17)
O2A O 0.1235(3) -0.6617(2) 0.53268(18)
O2_2 O -0.1235(3) -0.3383(2) 0.46732(18)
O2A_2 O 0.1235(3) 0.3383(2) 0.53268(18)
O3A O 0.0503(3) -0.1576(2) 0.54485(18)
N1A N 0.7327(3) -0.1088(3) -0.39031(19)
N1_2 N 0.2673(3) 0.1088(3) 0.39031(19)
N1A_2 N -0.2673(3) -0.1088(3) 0.60969(19)
N2A N -0.0033(3) -0.1300(3) 0.3294(2)
C2A C 0.1835(3) -0.1681(3) 0.5620(2)
O4A O 0.3134(3) -0.7894(2) 0.6005(2)
O4_2 O -0.3134(3) -0.2106(2) 0.3995(2)
O4A_2 O 0.3134(3) 0.2106(2) 0.6005(2)
C3A C 0.3608(4) 0.0015(4) -0.0817(2)
H2A H 0.3555 0.0841 -0.1171
C4A C 0.2425(4) -0.6759(3) 0.5742(2)
C4_2 C -0.2425(4) -0.3241(3) 0.4258(2)
C4A_2 C 0.2425(4) 0.3241(3) 0.5742(2)
C5A C 0.2742(4) -0.3079(3) 0.5845(2)
C6A C 0.2167(4) -0.4218(3) 0.5715(2)
H3A H 0.1212 -0.4120 0.5491
C7A C 0.0376(4) -0.0415(4) 0.1659(3)
H4A H 0.0007 0.0193 0.1152
C8A C 0.2750(4) -0.1222(4) 0.0592(2)
C9A C 0.3012(4) -0.5505(3) 0.5918(2)
C10A C 0.6908(4) -0.2045(4) -0.2293(3)
H5A H 0.7251 -0.2705 -0.1811
C11A C 0.5138(4) -0.0163(3) -0.2857(2)
H6A H 0.4245 0.0499 -0.2767
C12A C 0.5542(4) -0.1112(3) -0.2111(2)
C13A C 0.6034(3) -0.0182(3) -0.3730(2)
H7A H 0.5723 0.0468 -0.4225
C14A C 0.2713(4) -0.0014(4) 0.0052(3)
H8A H 0.2070 0.0792 0.0284
C15A C 0.3729(4) -0.2392(4) 0.0223(3)
H9A H 0.3778 -0.3221 0.0573
C16A C 0.7740(4) -0.1989(4) -0.3179(3)
H10A H 0.8654 -0.2620 -0.3282
C17A C 0.4588(4) -0.1152(4) -0.1181(2)
C18A C 0.1789(4) -0.1257(4) 0.1519(2)
C19A C 0.4152(4) -0.3222(3) 0.6173(3)
H11A H 0.4538 -0.2448 0.6252
C20A C 0.2244(4) -0.2136(4) 0.2304(3)
H12A H 0.3183 -0.2739 0.2249
C21A C 0.4624(4) -0.2357(4) -0.0643(3)
H13A H 0.5271 -0.3161 -0.0875
C22A C 0.4995(4) -0.4502(4) 0.6386(3)
H14A H 0.5946 -0.4596 0.6616
C23A C 0.1318(4) -0.2120(4) 0.3158(3)
H15A H 0.1654 -0.2721 0.3676
C24A C -0.0488(4) -0.0468(4) 0.2539(2)
H16A H -0.1443 0.0109 0.2611
N3 N 0.1150(8) 0.4901(7) 0.8743(5)
C25 C 0.1238(15) 0.6209(13) 0.8472(10)
H17 H 0.2045 0.6454 0.8786
H18 H 0.0302 0.6825 0.8680
H19 H 0.1428 0.6272 0.7760
C26 C 0.238(2) 0.4006(19) 0.8683(15)
H20 H 0.2832 0.3947 0.9306
H21 H 0.3058 0.4265 0.8159
H22 H 0.2185 0.3130 0.8540
O5 O -0.1764(14) 0.5192(12) 0.8987(9)
C27 C -0.040(2) 0.449(2) 0.8808(14)
H23 H -0.0335 0.3566 0.8698
C28? C 0.211(4) 0.470(3) 0.984(3)
C29? C 0.047(3) 0.656(3) 0.880(2)
C30? C 0.056(3) 0.415(2) 0.8235(17)
H24? H 0.1255 0.3797 0.7678
H25? H -0.0350 0.4692 0.7994
H26? H 0.0329 0.3408 0.8646
H27? H 0.0551 0.6964 0.8149
H28? H 0.1030 0.6952 0.9240
H29? H -0.0573 0.6725 0.9058
H30? H 0.2645 0.5236 1.0152
O6? O 0.180(3) 0.362(3) 1.004(2)
loop_
_geom_bond_atom_site_label_1
_geom_bond_atom_site_label_2
_geom_bond_site_symmetry_1
_geom_bond_site_symmetry_2
Zn1 O3 1_555 1_555
C1 H1 1_555 1_555
O1 C2 1_555 1_555
O2 C4 1_555 1_555
O3 C2 1_555 1_555
N1 C13 1_555 1_555
N2 Zn1 1_555 1_555
C2 C5 1_555 1_555
O4 C4 1_555 1_555
C3 H2 1_555 1_555
C4 C9 1_555 1_555
C5 C6 1_555 1_555
C6 H3 1_555 1_555
C7 H4 1_555 1_555
C8 C14 1_555 1_555
C9 C1 1_555 1_555
C10 H5 1_555 1_555
C11 H6 1_555 1_555
C12 C10 1_555 1_555
C13 C11 1_555 1_555
H7 C13 1_555 1_555
C14 C3 1_555 1_555
H8 C14 1_555 1_555
C15 C8 1_555 1_555
H9 C15 1_555 1_555
C16 N1 1_555 1_555
H10 C16 1_555 1_555
C17 C3 1_555 1_555
C18 C7 1_555 1_555
C19 C5 1_555 1_555
H11 C19 1_555 1_555
C20 C18 1_555 1_555
H12 C20 1_555 1_555
C21 C15 1_555 1_555
H13 C21 1_555 1_555
C22 C1 1_555 1_555
H14 C22 1_555 1_555
C23 N2 1_555 1_555
H15 C23 1_555 1_555
C24 N2 1_555 1_555
H16 C24 1_555 1_555
N3 C25 1_555 1_555
C25 H17 1_555 1_555
H18 C25 1_555 1_555
H19 C25 1_555 1_555
C26 N3 1_555 1_555
H20 C26 1_555 1_555
H21 C26 1_555 1_555
H22 C26 1_555 1_555
O5 C27 1_555 1_555
C27 N3 1_555 1_555
H23 C27 1_555 1_555
Zn1A O1 1_555 1_555
Zn1_2 N1 1_555 1_555
Zn1_3 O2A 1_555 1_555
Zn1A_2 O2 1_555 1_555
Zn1A_3 N1A 1_555 1_555
C1A H1A 1_555 1_555
O1A Zn1 1_555 1_555
O2A C4A 1_555 1_555
O2_2 Zn1A 1_555 1_555
O2A_2 Zn1 1_555 1_555
O3A Zn1A 1_555 1_555
N1A C13A 1_555 1_555
N1_2 Zn1 1_555 1_555
N1A_2 Zn1A 1_555 1_555
N2A Zn1A 1_555 1_555
C2A O1A 1_555 1_555
O4A Zn1_3 1_555 1_555
O4_2 Zn1A 1_555 1_555
O4A_2 Zn1 1_555 1_555
C3A H2A 1_555 1_555
C4A O4A 1_555 1_555
C4_2 O2_2 1_555 1_555
C4A_2 O2A_2 1_555 1_555
C5A C2A 1_555 1_555
C6A C5A 1_555 1_555
H3A C6A 1_555 1_555
C7A H4A 1_555 1_555
C8A C14A 1_555 1_555
C9A C1A 1_555 1_555
C10A H5A 1_555 1_555
C11A H6A 1_555 1_555
C12A C10A 1_555 1_555
C13A C11A 1_555 1_555
H7A C13A 1_555 1_555
C14A C3A 1_555 1_555
H8A C14A 1_555 1_555
C15A C8A 1_555 1_555
H9A C15A 1_555 1_555
C16A N1A 1_555 1_555
H10A C16A 1_555 1_555
C17A C3A 1_555 1_555
C18A C7A 1_555 1_555
C19A C5A 1_555 1_555
H11A C19A 1_555 1_555
C20A C18A 1_555 1_555
H12A C20A 1_555 1_555
C21A C15A 1_555 1_555
H13A C21A 1_555 1_555
C22A C1A 1_555 1_555
H14A C22A 1_555 1_555
C23A N2A 1_555 1_555
H15A C23A 1_555 1_555
C24A N2A 1_555 1_555
H16A C24A 1_555 1_555
O4 Zn1A_2 1_555 1_555
C6 C9 1_555 1_555
C7 C24 1_555 1_555
C8 C18 1_555 1_555
C10 C16 1_555 1_555
C11 C12 1_555 1_555
C12 C17 1_555 1_555
C17 C21 1_555 1_555
C19 C22 1_555 1_555
C20 C23 1_555 1_555
O3A C2A 1_555 1_555
O4_2 C4_2 1_555 1_555
O4A_2 C4A_2 1_555 1_555
C4A C9A 1_555 1_555
C6A C9A 1_555 1_555
C7A C24A 1_555 1_555
C8A C18A 1_555 1_555
C10A C16A 1_555 1_555
C11A C12A 1_555 1_555
C12A C17A 1_555 1_555
C17A C21A 1_555 1_555
C19A C22A 1_555 1_555
C20A C23A 1_555 1_555

#END
