
#######################################################################
#
#                 Cambridge Crystallographic Data Centre
#                                CCDC 
#
#######################################################################
#
# If this CIF has been generated from an entry in the Cambridge 
# Structural Database, then it will include bibliographic, chemical, 
# crystal, experimental, refinement or atomic coordinate data resulting 
# from the CCDC's data processing and validation procedures.
#
#######################################################################

data_IWAJIA
_symmetry_cell_setting           triclinic
_symmetry_space_group_name_H-M   'P -1'
_symmetry_Int_Tables_number      2
_space_group_name_Hall           '-P 1'
loop_
_symmetry_equiv_pos_site_id
_symmetry_equiv_pos_as_xyz
1 x,y,z
2 -x,-y,-z
_cell_length_a                   8.9178(18)
_cell_length_b                   10.089(2)
_cell_length_c                   12.285(3)
_cell_angle_alpha                85.463(7)
_cell_angle_beta                 80.761(7)
_cell_angle_gamma                77.769(5)
_cell_volume                     1065.03
loop_
_atom_site_label
_atom_site_type_symbol
_atom_site_fract_x
_atom_site_fract_y
_atom_site_fract_z
Zn1 Zn 0.63934(2) 0.122797(17) 0.038497(15)
O1 O 0.81309(16) 0.20997(12) 0.10899(12)
N1 N -0.22270(16) 0.11360(14) 0.87626(12)
N2 N 0.48434(17) 0.12877(15) 0.19598(12)
O2 O 0.62149(15) 0.33973(12) 0.03631(11)
C1 C 0.9994(2) 0.54732(19) 0.15363(18)
H1 H 1.0949 0.5371 0.1796
C2 C 0.71571(18) 0.57737(16) 0.07744(14)
H2 H 0.6198 0.5871 0.0520
C3 C 0.74150(19) 0.32509(16) 0.08076(14)
C4 C 0.77328(18) 0.69220(16) 0.09265(13)
C5 C -0.0929(2) 0.01936(17) 0.85291(15)
H3 H -0.0669 -0.0495 0.9068
C6 C 0.0044(2) 0.01874(19) 0.75312(15)
H4 H 0.0940 -0.0497 0.7398
C7 C 0.5027(3) 0.0304(2) 0.27448(16)
H5 H 0.5905 -0.0402 0.2637
C8 C -0.2582(2) 0.2108(2) 0.79809(16)
H6 H -0.3497 0.2768 0.8130
C9 C -0.0315(2) 0.1203(2) 0.67301(15)
C10 C 0.0712(2) 0.1256(2) 0.57100(17)
C11 C 0.80105(19) 0.44872(16) 0.10016(14)
C12 C 0.3599(2) 0.2296(2) 0.21448(17)
H7 H 0.3456 0.3005 0.1603
C13 C 0.9420(2) 0.43386(17) 0.13849(16)
H8 H 0.9988 0.3466 0.1542
C14 C -0.1671(2) 0.2184(2) 0.69723(16)
H9 H -0.1957 0.2889 0.6451
C15 C 0.9155(2) 0.67612(17) 0.13033(16)
H10 H 0.9550 0.7530 0.1401
C16 C 0.2708(2) 0.1307(2) 0.38934(16)
C17 C 0.2519(3) 0.2351(2) 0.30849(18)
H11 H 0.1667 0.3083 0.3179
C18 C 0.4003(3) 0.0266(2) 0.37053(17)
H12 H 0.4177 -0.0458 0.4230
C19 C 0.1606(3) 0.1294(2) 0.48810(17)
C20 C 0.68282(18) 0.83171(15) 0.06676(13)
O3 O 0.74606(13) 0.93054(11) 0.07529(10)
O4 O 0.55178(14) 0.84254(12) 0.04143(12)
Zn1A Zn 0.36066(2) 0.877203(17) -0.038497(15)
Zn1_2 Zn -0.36066(2) 0.122797(17) 1.038497(15)
Zn1_3 Zn 0.63934(2) 1.122797(17) 0.038497(15)
Zn1A_2 Zn 0.36066(2) -0.122797(17) -0.038497(15)
Zn1A_3 Zn 1.36066(2) 0.877203(17) -1.038497(15)
O1A O 0.18691(16) 0.79003(12) -0.10899(12)
N1A N 1.22270(16) 0.88640(14) -0.87626(12)
N1_2 N 0.77730(16) 0.11360(14) -0.12374(12)
N1A_2 N 0.22270(16) 0.88640(14) 0.12374(12)
N2A N 0.51566(17) 0.87123(15) -0.19598(12)
O2A O 0.37851(15) 0.66027(12) -0.03631(11)
C1A C 0.0006(2) 0.45268(19) -0.15363(18)
H1A H -0.0949 0.4629 -0.1796
C2A C 0.28429(18) 0.42263(16) -0.07744(14)
H2A H 0.3802 0.4129 -0.0520
C3A C 0.25850(19) 0.67491(16) -0.08076(14)
C4A C 0.22672(18) 0.30780(16) -0.09265(13)
C5A C 1.0929(2) 0.98064(17) -0.85291(15)
H3A H 1.0669 1.0495 -0.9068
C6A C 0.9956(2) 0.98126(19) -0.75312(15)
H4A H 0.9060 1.0497 -0.7398
C7A C 0.4973(3) 0.9696(2) -0.27448(16)
H5A H 0.4095 1.0402 -0.2637
C8A C 1.2582(2) 0.7892(2) -0.79809(16)
H6A H 1.3497 0.7232 -0.8130
C9A C 1.0315(2) 0.8797(2) -0.67301(15)
C10A C 0.9288(2) 0.8744(2) -0.57100(17)
C11A C 0.19895(19) 0.55128(16) -0.10016(14)
C12A C 0.6401(2) 0.7704(2) -0.21448(17)
H7A H 0.6544 0.6995 -0.1603
C13A C 0.0580(2) 0.56614(17) -0.13849(16)
H8A H 0.0012 0.6534 -0.1542
C14A C 1.1671(2) 0.7816(2) -0.69723(16)
H9A H 1.1957 0.7111 -0.6451
C15A C 0.0845(2) 0.32388(17) -0.13033(16)
H10A H 0.0450 0.2470 -0.1401
C16A C 0.7292(2) 0.8693(2) -0.38934(16)
C17A C 0.7481(3) 0.7649(2) -0.30849(18)
H11A H 0.8333 0.6917 -0.3179
C18A C 0.5997(3) 0.9734(2) -0.37053(17)
H12A H 0.5823 1.0458 -0.4230
C19A C 0.8394(3) 0.8706(2) -0.48810(17)
C20A C 0.31718(18) 0.16829(15) -0.06676(13)
O3A O 0.25394(13) 0.06946(11) -0.07529(10)
O3_2 O 0.74606(13) -0.06946(11) 0.07529(10)
O3A_2 O 0.25394(13) 1.06946(11) -0.07529(10)
O4A O 0.44822(14) 0.15746(12) -0.04143(12)
N3 N 0.3253(4) 0.5327(3) 0.6117(2)
C21 C 0.292(3) 0.6913(16) 0.6055(14)
H13 H 0.2760 0.7242 0.6794
H14 H 0.2004 0.7258 0.5710
H15 H 0.3803 0.7225 0.5621
C22 C 0.2103(11) 0.4802(9) 0.5705(7)
H16 H 0.2245 0.3850 0.5729
C23 C 0.4493(10) 0.4591(14) 0.6470(6)
H17 H 0.4347 0.4564 0.7271
H18 H 0.5385 0.4988 0.6182
H19 H 0.4665 0.3675 0.6220
O5 O 0.1171(14) 0.5307(11) 0.5395(9)
C24? C 0.244(2) 0.6503(16) 0.6023(8)
C25? C 0.4888(16) 0.5431(15) 0.6612(9)
C26? C 0.3513(16) 0.3921(11) 0.6151(8)
H20? H 0.1738 0.6712 0.6706
H21? H 0.1838 0.6544 0.5424
H22? H 0.3106 0.7159 0.5868
H23? H 0.4615 0.5791 0.7343
H24? H 0.5442 0.6027 0.6123
H25? H 0.5543 0.4534 0.6654
H26? H 0.2634 0.3601 0.6042
O6? O 0.4545(7) 0.3051(5) 0.6279(5)
loop_
_geom_bond_atom_site_label_1
_geom_bond_atom_site_label_2
_geom_bond_site_symmetry_1
_geom_bond_site_symmetry_2
Zn1 O1 1_555 1_555
O1 C3 1_555 1_555
N1 C5 1_555 1_555
N2 Zn1 1_555 1_555
O2 Zn1 1_555 1_555
C1 H1 1_555 1_555
C2 H2 1_555 1_555
C3 O2 1_555 1_555
C4 C2 1_555 1_555
C5 H3 1_555 1_555
C6 C5 1_555 1_555
H4 C6 1_555 1_555
C7 N2 1_555 1_555
H5 C7 1_555 1_555
C8 N1 1_555 1_555
H6 C8 1_555 1_555
C9 C6 1_555 1_555
C10 C9 1_555 1_555
C11 C2 1_555 1_555
C12 N2 1_555 1_555
H7 C12 1_555 1_555
C13 C1 1_555 1_555
H8 C13 1_555 1_555
C14 C8 1_555 1_555
H9 C14 1_555 1_555
C15 C1 1_555 1_555
H10 C15 1_555 1_555
C16 C17 1_555 1_555
C17 C12 1_555 1_555
H11 C17 1_555 1_555
C18 C7 1_555 1_555
H12 C18 1_555 1_555
C19 C10 1_555 1_555
C20 C4 1_555 1_555
O3 C20 1_555 1_555
O4 C20 1_555 1_555
N3 C21 1_555 1_555
C21 H13 1_555 1_555
H14 C21 1_555 1_555
H15 C21 1_555 1_555
C22 N3 1_555 1_555
H16 C22 1_555 1_555
C23 N3 1_555 1_555
H17 C23 1_555 1_555
H18 C23 1_555 1_555
H19 C23 1_555 1_555
O5 C22 1_555 1_555
Zn1A O4 1_555 1_555
Zn1_2 N1 1_555 1_555
Zn1_3 O3 1_555 1_555
Zn1A_2 O3A 1_555 1_555
Zn1A_3 N1A 1_555 1_555
O1A Zn1A 1_555 1_555
N1A C5A 1_555 1_555
N1_2 Zn1 1_555 1_555
N1A_2 Zn1A 1_555 1_555
N2A Zn1A 1_555 1_555
O2A Zn1A 1_555 1_555
C1A H1A 1_555 1_555
C2A H2A 1_555 1_555
C3A O1A 1_555 1_555
C4A C2A 1_555 1_555
C5A H3A 1_555 1_555
C6A C5A 1_555 1_555
H4A C6A 1_555 1_555
C7A N2A 1_555 1_555
H5A C7A 1_555 1_555
C8A N1A 1_555 1_555
H6A C8A 1_555 1_555
C9A C6A 1_555 1_555
C10A C9A 1_555 1_555
C11A C2A 1_555 1_555
C12A N2A 1_555 1_555
H7A C12A 1_555 1_555
C13A C1A 1_555 1_555
H8A C13A 1_555 1_555
C14A C8A 1_555 1_555
H9A C14A 1_555 1_555
C15A C1A 1_555 1_555
H10A C15A 1_555 1_555
C16A C17A 1_555 1_555
C17A C12A 1_555 1_555
H11A C17A 1_555 1_555
C18A C7A 1_555 1_555
H12A C18A 1_555 1_555
C19A C10A 1_555 1_555
C20A C4A 1_555 1_555
O3A C20A 1_555 1_555
O3_2 Zn1 1_555 1_555
O3A_2 Zn1A 1_555 1_555
O4A Zn1 1_555 1_555
C3 C11 1_555 1_555
C4 C15 1_555 1_555
C9 C14 1_555 1_555
C11 C13 1_555 1_555
C16 C18 1_555 1_555
C16 C19 1_555 1_555
O2A C3A 1_555 1_555
C3A C11A 1_555 1_555
C4A C15A 1_555 1_555
C9A C14A 1_555 1_555
C11A C13A 1_555 1_555
C16A C18A 1_555 1_555
C16A C19A 1_555 1_555
C20A O4A 1_555 1_555

#END
