
#######################################################################
#
#                 Cambridge Crystallographic Data Centre
#                                CCDC 
#
#######################################################################
#
# If this CIF has been generated from an entry in the Cambridge 
# Structural Database, then it will include bibliographic, chemical, 
# crystal, experimental, refinement or atomic coordinate data resulting 
# from the CCDC's data processing and validation procedures.
#
#######################################################################

data_IWAJEW
_symmetry_cell_setting           triclinic
_symmetry_space_group_name_H-M   'P -1'
_symmetry_Int_Tables_number      2
_space_group_name_Hall           '-P 1'
loop_
_symmetry_equiv_pos_site_id
_symmetry_equiv_pos_as_xyz
1 x,y,z
2 -x,-y,-z
_cell_length_a                   9.2188(17)
_cell_length_b                   10.0618(19)
_cell_length_c                   12.993(3)
_cell_angle_alpha                89.280(6)
_cell_angle_beta                 86.060(6)
_cell_angle_gamma                77.159(5)
_cell_volume                     1172.28
loop_
_atom_site_label
_atom_site_type_symbol
_atom_site_fract_x
_atom_site_fract_y
_atom_site_fract_z
Zn1 Zn 0.14041(4) 0.62346(3) 0.53275(3)
O1 O 0.2476(2) 0.4301(2) 0.56172(18)
O2 O 0.0477(2) 0.3435(2) 0.54907(18)
O3 O 0.1213(3) -0.1610(2) 0.5372(2)
N1 N 1.0068(3) 0.6335(3) -0.3217(2)
C1 C 0.2439(4) -0.1754(3) 0.5780(2)
N2 N 0.2685(3) 0.6089(3) 0.3848(2)
O4 O 0.3179(3) -0.2895(2) 0.6013(2)
C2 C 0.2167(3) 0.0780(3) 0.5752(2)
H1 H 0.1201 0.0870 0.5530
C3 C 1.0416(4) 0.5406(4) -0.2473(3)
H2 H 1.1332 0.4768 -0.2551
C4 C 0.1823(3) 0.3321(3) 0.5634(2)
C5 C 0.4842(4) 0.5113(3) 0.2753(3)
H3 H 0.5718 0.4429 0.2645
C6 C 0.4422(4) 0.6097(3) 0.2012(2)
C7 C 0.2278(4) 0.7032(4) 0.3118(3)
H4 H 0.1385 0.7690 0.3239
C8 C 0.3023(4) -0.0504(3) 0.5959(3)
C9 C 0.4179(4) 0.1784(3) 0.6200(3)
H5 H 0.4578 0.2558 0.6267
C10 C 0.8159(4) 0.6284(4) -0.1475(3)
C11 C 0.3110(4) 0.7078(4) 0.2202(3)
H6 H 0.2797 0.7761 0.1714
C12 C 0.8784(4) 0.7263(4) -0.3074(3)
H7 H 0.8542 0.7939 -0.3579
C13 C 0.5022(4) 0.0513(4) 0.6427(4)
H8 H 0.5982 0.0422 0.6661
C14 C 0.2741(3) 0.1936(3) 0.5871(2)
C15 C 0.5379(4) 0.6124(4) 0.1051(3)
N3 N 0.7459(4) 0.5127(4) 0.0055(3)
C16 C 0.4436(4) -0.0629(3) 0.6306(3)
H9 H 0.5003 -0.1497 0.6462
C17 C 0.3944(4) 0.5155(3) 0.3659(3)
H10 H 0.4239 0.4492 0.4164
C18 C 0.9498(4) 0.5342(4) -0.1602(3)
H11 H 0.9778 0.4667 -0.1102
C19 C 0.7117(4) 0.6212(4) -0.0560(3)
C20 C 0.7794(4) 0.7276(4) -0.2219(3)
H12 H 0.6899 0.7942 -0.2147
N4 N 0.6555(4) 0.5084(4) 0.0892(3)
N5 N 0.4981(4) 0.7147(4) 0.0397(3)
N6 N 0.5887(4) 0.7193(4) -0.0440(3)
Zn1A Zn -0.14041(4) 0.37654(3) 0.46725(3)
Zn1_2 Zn 0.14041(4) -0.37654(3) 0.53275(3)
Zn1_3 Zn 1.14041(4) 0.62346(3) -0.46725(3)
Zn1A_2 Zn -1.14041(4) 0.37654(3) 1.46725(3)
Zn1A_3 Zn -0.14041(4) 1.37654(3) 0.46725(3)
O1A O -0.2476(2) 0.5699(2) 0.43828(18)
O2A O -0.0477(2) 0.6565(2) 0.45093(18)
O3A O -0.1213(3) 1.1610(2) 0.4628(2)
O3_2 O 0.1213(3) 0.8390(2) 0.5372(2)
O3A_2 O -0.1213(3) 0.1610(2) 0.4628(2)
N1A N -1.0068(3) 0.3665(3) 1.3217(2)
N1_2 N 0.0068(3) 0.6335(3) 0.6783(2)
N1A_2 N -0.0068(3) 0.3665(3) 0.3217(2)
C1A C -0.2439(4) 1.1754(3) 0.4220(2)
C1_2 C 0.2439(4) 0.8246(3) 0.5780(2)
C1A_2 C -0.2439(4) 0.1754(3) 0.4220(2)
N2A N -0.2685(3) 0.3911(3) 0.6152(2)
O4A O -0.3179(3) 1.2895(2) 0.3987(2)
O4_2 O 0.3179(3) 0.7105(2) 0.6013(2)
O4A_2 O -0.3179(3) 0.2895(2) 0.3987(2)
C2A C -0.2167(3) 0.9220(3) 0.4248(2)
H1A H -0.1201 0.9130 0.4470
C3A C -1.0416(4) 0.4594(4) 1.2473(3)
H2A H -1.1332 0.5232 1.2551
C4A C -0.1823(3) 0.6679(3) 0.4366(2)
C5A C -0.4842(4) 0.4887(3) 0.7247(3)
H3A H -0.5718 0.5571 0.7355
C6A C -0.4422(4) 0.3903(3) 0.7988(2)
C7A C -0.2278(4) 0.2968(4) 0.6882(3)
H4A H -0.1385 0.2310 0.6761
C8A C -0.3023(4) 1.0504(3) 0.4041(3)
C9A C -0.4179(4) 0.8216(3) 0.3800(3)
H5A H -0.4578 0.7442 0.3733
C10A C -0.8159(4) 0.3716(4) 1.1475(3)
C11A C -0.3110(4) 0.2922(4) 0.7798(3)
H6A H -0.2797 0.2239 0.8286
C12A C -0.8784(4) 0.2737(4) 1.3074(3)
H7A H -0.8542 0.2061 1.3579
C13A C -0.5022(4) 0.9487(4) 0.3573(4)
H8A H -0.5982 0.9578 0.3339
C14A C -0.2741(3) 0.8064(3) 0.4129(2)
C15A C -0.5379(4) 0.3876(4) 0.8949(3)
N3A N -0.7459(4) 0.4873(4) 0.9945(3)
C16A C -0.4436(4) 1.0629(3) 0.3694(3)
H9A H -0.5003 1.1497 0.3538
C17A C -0.3944(4) 0.4845(3) 0.6341(3)
H10A H -0.4239 0.5508 0.5836
C18A C -0.9498(4) 0.4658(4) 1.1602(3)
H11A H -0.9778 0.5333 1.1102
C19A C -0.7117(4) 0.3788(4) 1.0560(3)
C20A C -0.7794(4) 0.2724(4) 1.2219(3)
H12A H -0.6899 0.2058 1.2147
N4A N -0.6555(4) 0.4916(4) 0.9108(3)
N5A N -0.4981(4) 0.2853(4) 0.9603(3)
N6A N -0.5887(4) 0.2807(4) 1.0440(3)
N7 N 0.8352(6) -0.0027(7) 0.1248(4)
C21 C 0.9833(11) -0.0325(14) 0.1585(8)
H13 H 1.0153 -0.1297 0.1700
H14 H 0.9850 0.0161 0.2222
H15 H 1.0501 -0.0040 0.1061
C22 C 0.7847(13) 0.1439(10) 0.1297(7)
H16 H 0.6826 0.1696 0.1103
H17 H 0.8479 0.1856 0.0827
H18 H 0.7899 0.1749 0.1995
O5 O 0.8117(8) -0.2236(7) 0.1118(5)
C23 C 0.764(2) -0.0795(19) 0.1049(12)
H19 H 0.6682 -0.0439 0.0828
loop_
_geom_bond_atom_site_label_1
_geom_bond_atom_site_label_2
_geom_bond_site_symmetry_1
_geom_bond_site_symmetry_2
Zn1 O1 1_555 1_555
O1 C4 1_555 1_555
O2 C4 1_555 1_555
O3 C1 1_555 1_555
N1 C3 1_555 1_555
C1 O4 1_555 1_555
N2 Zn1 1_555 1_555
O4 Zn1_2 1_555 1_555
C2 H1 1_555 1_555
C3 H2 1_555 1_555
C4 C14 1_555 1_555
C5 H3 1_555 1_555
C6 C5 1_555 1_555
C7 N2 1_555 1_555
H4 C7 1_555 1_555
C8 C1 1_555 1_555
C9 H5 1_555 1_555
C10 C18 1_555 1_555
C11 C6 1_555 1_555
H6 C11 1_555 1_555
C12 N1 1_555 1_555
H7 C12 1_555 1_555
C13 C9 1_555 1_555
H8 C13 1_555 1_555
C14 C2 1_555 1_555
C15 C6 1_555 1_555
N3 C19 1_555 1_555
C16 C8 1_555 1_555
H9 C16 1_555 1_555
C17 N2 1_555 1_555
H10 C17 1_555 1_555
C18 C3 1_555 1_555
H11 C18 1_555 1_555
C19 C10 1_555 1_555
C20 C10 1_555 1_555
H12 C20 1_555 1_555
N4 C15 1_555 1_555
N5 C15 1_555 1_555
N6 C19 1_555 1_555
N7 C21 1_555 1_555
C21 H13 1_555 1_555
H14 C21 1_555 1_555
H15 C21 1_555 1_555
C22 N7 1_555 1_555
H16 C22 1_555 1_555
H17 C22 1_555 1_555
H18 C22 1_555 1_555
O5 C23 1_555 1_555
C23 N7 1_555 1_555
H19 C23 1_555 1_555
Zn1A O2 1_555 1_555
Zn1_2 O3 1_555 1_555
Zn1_3 N1 1_555 1_555
Zn1A_2 N1A 1_555 1_555
Zn1A_3 O3A 1_555 1_555
O1A Zn1A 1_555 1_555
O2A Zn1 1_555 1_555
O3A C1A 1_555 1_555
O3_2 Zn1 1_555 1_555
O3A_2 Zn1A 1_555 1_555
N1A C3A 1_555 1_555
N1_2 Zn1 1_555 1_555
N1A_2 Zn1A 1_555 1_555
C1A O4A 1_555 1_555
C1_2 O3_2 1_555 1_555
C1A_2 O3A_2 1_555 1_555
N2A Zn1A 1_555 1_555
O4A Zn1A_3 1_555 1_555
O4_2 Zn1 1_555 1_555
O4A_2 Zn1A 1_555 1_555
C2A H1A 1_555 1_555
C3A H2A 1_555 1_555
C4A O1A 1_555 1_555
C5A H3A 1_555 1_555
C6A C5A 1_555 1_555
C7A N2A 1_555 1_555
H4A C7A 1_555 1_555
C8A C1A 1_555 1_555
C9A H5A 1_555 1_555
C10A C18A 1_555 1_555
C11A C6A 1_555 1_555
H6A C11A 1_555 1_555
C12A N1A 1_555 1_555
H7A C12A 1_555 1_555
C13A C9A 1_555 1_555
H8A C13A 1_555 1_555
C14A C2A 1_555 1_555
C15A C6A 1_555 1_555
N3A C19A 1_555 1_555
C16A C8A 1_555 1_555
H9A C16A 1_555 1_555
C17A N2A 1_555 1_555
H10A C17A 1_555 1_555
C18A C3A 1_555 1_555
H11A C18A 1_555 1_555
C19A C10A 1_555 1_555
C20A C10A 1_555 1_555
H12A C20A 1_555 1_555
N4A C15A 1_555 1_555
N5A C15A 1_555 1_555
N6A C19A 1_555 1_555
C2 C8 1_555 1_555
C5 C17 1_555 1_555
C7 C11 1_555 1_555
C9 C14 1_555 1_555
C12 C20 1_555 1_555
C13 C16 1_555 1_555
N3 N4 1_555 1_555
N5 N6 1_555 1_555
O2A C4A 1_555 1_555
C1_2 O4_2 1_555 1_555
C1A_2 O4A_2 1_555 1_555
C2A C8A 1_555 1_555
C4A C14A 1_555 1_555
C5A C17A 1_555 1_555
C7A C11A 1_555 1_555
C9A C14A 1_555 1_555
C12A C20A 1_555 1_555
C13A C16A 1_555 1_555
N3A N4A 1_555 1_555
N5A N6A 1_555 1_555

#END
