
#######################################################################
#
#                 Cambridge Crystallographic Data Centre
#                                CCDC 
#
#######################################################################
#
# If this CIF has been generated from an entry in the Cambridge 
# Structural Database, then it will include bibliographic, chemical, 
# crystal, experimental, refinement or atomic coordinate data resulting 
# from the CCDC's data processing and validation procedures.
#
#######################################################################

data_IWAJAR
_symmetry_cell_setting           monoclinic
_symmetry_space_group_name_H-M   'C c'
_symmetry_Int_Tables_number      9
_space_group_name_Hall           'C -2yc'
loop_
_symmetry_equiv_pos_site_id
_symmetry_equiv_pos_as_xyz
1 x,y,z
2 x,-y,1/2+z
3 1/2+x,1/2+y,z
4 1/2+x,1/2-y,1/2+z
_cell_length_a                   19.395(3)
_cell_length_b                   17.142(2)
_cell_length_c                   15.814(2)
_cell_angle_alpha                90
_cell_angle_beta                 118.908(2)
_cell_angle_gamma                90
_cell_volume                     4602.55
loop_
_atom_site_label
_atom_site_type_symbol
_atom_site_fract_x
_atom_site_fract_y
_atom_site_fract_z
Ho1 Ho 0.419601(15) 0.49866(3) 0.701592(17)
Ho2 Ho 0.372290(14) 0.50135(3) 0.923400(17)
O1 O 0.3901(9) 0.4245(4) 0.8113(10)
O2 O 0.3884(5) 0.3605(4) 0.6905(7)
C1 C 0.3794(7) 0.3579(6) 0.7608(9)
C2 C 0.3507(7) 0.2903(6) 0.7940(9)
H1 H 0.3352 0.2964 0.8408
C3 C 0.3478(9) 0.2207(6) 0.7548(11)
H2 H 0.3678 0.2149 0.7122
C4 C 0.3127(10) 0.1517(7) 0.7787(13)
H3 H 0.3149 0.1069 0.7436
H4 H 0.2589 0.1627 0.7609
H5 H 0.3419 0.1413 0.8467
O3 O 0.4039(5) 0.6374(4) 0.9329(7)
O4 O 0.4074(7) 0.5760(3) 0.8151(9)
C5 C 0.4164(7) 0.6358(6) 0.8596(8)
C6 C 0.4390(8) 0.7098(6) 0.8311(9)
H6 H 0.4484 0.7077 0.7788
C7 C 0.4470(9) 0.7785(5) 0.8729(10)
H7 H 0.4380 0.7803 0.9255
C8 C 0.4691(9) 0.8535(6) 0.8444(9)
H8 H 0.4701 0.8944 0.8865
H9 H 0.5202 0.8485 0.8495
H10 H 0.4311 0.8659 0.7790
O5 O 0.2736(6) 0.4959(4) 0.6259(9)
O6 O 0.3197(5) 0.4719(5) 0.5269(7)
C9 C 0.2632(5) 0.4724(7) 0.5505(8)
C10 C 0.1867(6) 0.4380(8) 0.4758(8)
H11 H 0.1862 0.4047 0.4291
C11 C 0.1203(7) 0.4542(10) 0.4753(10)
H12 H 0.1244 0.4877 0.5237
C12 C 0.0387(8) 0.4259(11) 0.4069(11)
H13 H 0.0021 0.4478 0.4250
H14 H 0.0373 0.3700 0.4098
H15 H 0.0246 0.4417 0.3424
O7 O 0.2425(7) 0.4433(7) 0.8298(9)
O8 O 0.2526(6) 0.5658(6) 0.8080(7)
C13 C 0.2118(5) 0.5037(5) 0.7912(10)
C14 C 0.1261(8) 0.5076(9) 0.7204(16)
H16 H 0.0981 0.4610 0.7049
C15 C 0.0870(7) 0.5709(8) 0.6782(10)
H17 H 0.1143 0.6169 0.6837
C16 C -0.0017(7) 0.5706(10) 0.6207(13)
H18 H -0.0200 0.6213 0.5932
H19 H -0.0185 0.5326 0.5699
H20 H -0.0231 0.5576 0.6624
O9 O 0.4728(6) 0.4686(5) 0.6019(7)
O10 O 0.5121(9) 0.4929(5) 0.4960(10)
C17 C 0.5266(6) 0.4693(7) 0.5830(8)
C18 C 0.6062(6) 0.4379(8) 0.6529(8)
H21 H 0.6101 0.4060 0.7026
C19 C 0.6706(6) 0.4524(7) 0.6484(10)
H22 H 0.6680 0.4824 0.5979
C20 C 0.7488(6) 0.4210(9) 0.7239(10)
H23 H 0.7893 0.4372 0.7094
H24 H 0.7467 0.3651 0.7244
H25 H 0.7602 0.4407 0.7862
O11 O 0.5390(6) 0.4319(5) 0.8142(8)
O12 O 0.5493(6) 0.5579(6) 0.7939(8)
C21 C 0.5796(9) 0.4864(10) 0.8364(15)
C22 C 0.6670(8) 0.4889(8) 0.8990(13)
H26 H 0.6947 0.5350 0.9068
C23 C 0.7038(8) 0.4249(9) 0.9425(11)
H27 H 0.6730 0.3801 0.9259
C24 C 0.7889(8) 0.4139(9) 1.0156(13)
H28 H 0.7986 0.3597 1.0328
H29 H 0.8011 0.4442 1.0721
H30 H 0.8213 0.4306 0.9886
O13 O 0.3943(6) 0.6207(6) 0.4883(8)
O14 O 0.4002(6) 0.6216(5) 0.6320(6)
C25 C 0.3952(10) 0.6545(3) 0.5639(13)
C26 C 0.3961(11) 0.7416(3) 0.5520(12)
H31 H 0.4142 0.7608 0.5113
C27 C 0.3732(7) 0.7917(4) 0.5947(7)
H32 H 0.3549 0.7742 0.6359
C28 C 0.3760(9) 0.8776(4) 0.5785(10)
H33 H 0.3566 0.9058 0.6152
H34 H 0.3438 0.8891 0.5111
H35 H 0.4294 0.8929 0.5989
O6A O 0.3197(5) 0.5281(5) 1.0269(7)
O9A O 0.4728(6) 0.5314(5) 1.1019(7)
O10A O 0.5121(9) 0.5071(5) 0.9960(10)
O13A O 0.3943(6) 0.3793(6) 0.9883(8)
Ho2A Ho 0.372290(14) 0.49865(3) 0.423400(17)
N1 N 0.6776(6) 0.7971(6) 0.8992(9)
H36 H 0.681(7) 0.817(7) 0.834(8)
N2 N 0.6163(7) 0.6958(7) 0.8080(7)
H37 H 0.587(7) 0.653(8) 0.803(7)
N3 N 0.6495(7) 0.7765(6) 0.7294(9)
C29 C 0.7077(8) 0.8446(8) 0.9856(10)
H38 H 0.7333 0.8916 0.9901
C30 C 0.6975(8) 0.8183(7) 1.0597(9)
H39 H 0.7106 0.8502 1.1129
C31 C 0.6676(9) 0.7439(7) 1.0568(11)
H40 H 0.6664 0.7237 1.1106
C32 C 0.6401(8) 0.7011(7) 0.9740(10)
H41 H 0.6172 0.6526 0.9699
C33 C 0.6458(8) 0.7274(7) 0.9020(10)
C34 C 0.6158(8) 0.7060(8) 0.7196(10)
C35 C 0.5890(8) 0.6608(8) 0.6493(10)
H42 H 0.5689 0.6129 0.6549
C36 C 0.5878(9) 0.6781(9) 0.5644(11)
H43 H 0.5638 0.6466 0.5098
C37 C 0.6257(9) 0.7472(9) 0.5675(13)
H44 H 0.6316 0.7608 0.5145
C38 C 0.6546(8) 0.7956(8) 0.6444(10)
H45 H 0.6782 0.8422 0.6421
O15 O 0.0687(7) 0.7695(5) 0.7901(9)
O16 O 0.8646(5) 0.7623(4) 0.5386(8)
O17 O 0.7221(12) 0.7595(9) 0.3065(14)
loop_
_geom_bond_atom_site_label_1
_geom_bond_atom_site_label_2
_geom_bond_site_symmetry_1
_geom_bond_site_symmetry_2
Ho1 O1 1_555 1_555
Ho2 O1 1_555 1_555
O1 C1 1_555 1_555
O2 Ho1 1_555 1_555
C1 O2 1_555 1_555
C2 C1 1_555 1_555
H1 C2 1_555 1_555
C3 C2 1_555 1_555
H2 C3 1_555 1_555
C4 C3 1_555 1_555
H3 C4 1_555 1_555
H4 C4 1_555 1_555
H5 C4 1_555 1_555
O3 Ho2 1_555 1_555
O4 Ho1 1_555 1_555
C5 O3 1_555 1_555
C6 C5 1_555 1_555
H6 C6 1_555 1_555
C7 C6 1_555 1_555
H7 C7 1_555 1_555
C8 C7 1_555 1_555
H8 C8 1_555 1_555
H9 C8 1_555 1_555
H10 C8 1_555 1_555
O5 Ho1 1_555 1_555
O6 Ho1 1_555 1_555
C9 O5 1_555 1_555
C10 C9 1_555 1_555
H11 C10 1_555 1_555
C11 C10 1_555 1_555
H12 C11 1_555 1_555
C12 C11 1_555 1_555
H13 C12 1_555 1_555
H14 C12 1_555 1_555
H15 C12 1_555 1_555
O7 Ho2 1_555 1_555
O8 Ho2 1_555 1_555
C13 O7 1_555 1_555
C14 C13 1_555 1_555
H16 C14 1_555 1_555
C15 C14 1_555 1_555
H17 C15 1_555 1_555
C16 C15 1_555 1_555
H18 C16 1_555 1_555
H19 C16 1_555 1_555
H20 C16 1_555 1_555
O9 Ho1 1_555 1_555
O10 C17 1_555 1_555
C17 O9 1_555 1_555
C18 C17 1_555 1_555
H21 C18 1_555 1_555
C19 C18 1_555 1_555
H22 C19 1_555 1_555
C20 C19 1_555 1_555
H23 C20 1_555 1_555
H24 C20 1_555 1_555
H25 C20 1_555 1_555
O11 Ho1 1_555 1_555
O12 Ho1 1_555 1_555
C21 O11 1_555 1_555
C22 C21 1_555 1_555
H26 C22 1_555 1_555
C23 C22 1_555 1_555
H27 C23 1_555 1_555
C24 C23 1_555 1_555
H28 C24 1_555 1_555
H29 C24 1_555 1_555
H30 C24 1_555 1_555
O13 C25 1_555 1_555
O14 Ho1 1_555 1_555
C25 O14 1_555 1_555
C26 C25 1_555 1_555
H31 C26 1_555 1_555
C27 C26 1_555 1_555
H32 C27 1_555 1_555
C28 C27 1_555 1_555
H33 C28 1_555 1_555
H34 C28 1_555 1_555
H35 C28 1_555 1_555
N1 H36 1_555 1_555
N2 H37 1_555 1_555
N3 C34 1_555 1_555
C29 N1 1_555 1_555
H38 C29 1_555 1_555
C30 C29 1_555 1_555
H39 C30 1_555 1_555
C31 C30 1_555 1_555
H40 C31 1_555 1_555
C32 C31 1_555 1_555
H41 C32 1_555 1_555
C33 N1 1_555 1_555
C34 N2 1_555 1_555
C35 C34 1_555 1_555
H42 C35 1_555 1_555
C36 C35 1_555 1_555
H43 C36 1_555 1_555
C37 C36 1_555 1_555
H44 C37 1_555 1_555
C38 N3 1_555 1_555
H45 C38 1_555 1_555
O6A Ho2 1_555 1_555
O9A Ho2 1_555 1_555
O10A Ho2 1_555 1_555
O13A Ho2 1_555 1_555
Ho2A O6 1_555 1_555
Ho2 O4 1_555 1_555
O4 C5 1_555 1_555
O6 C9 1_555 1_555
O8 C13 1_555 1_555
O9 Ho2A 1_555 1_555
O10 Ho2A 1_555 1_555
O12 C21 1_555 1_555
O13 Ho2A 1_555 1_555
N2 C33 1_555 1_555
C32 C33 1_555 1_555
C37 C38 1_555 1_555

#END
