
#######################################################################
#
#                 Cambridge Crystallographic Data Centre
#                                CCDC 
#
#######################################################################
#
# If this CIF has been generated from an entry in the Cambridge 
# Structural Database, then it will include bibliographic, chemical, 
# crystal, experimental, refinement or atomic coordinate data resulting 
# from the CCDC's data processing and validation procedures.
#
#######################################################################

data_IWAKOG
_symmetry_cell_setting           monoclinic
_symmetry_space_group_name_H-M   'C 2/c'
_symmetry_Int_Tables_number      15
_space_group_name_Hall           '-C 2yn'
loop_
_symmetry_equiv_pos_site_id
_symmetry_equiv_pos_as_xyz
1 x,y,z
2 1/2+x,1/2+y,z
3 x,-y,1/2+z
4 1/2+x,1/2-y,1/2+z
5 -x,-y,-z
6 1/2-x,1/2-y,-z
7 -x,y,1/2-z
8 1/2-x,1/2+y,1/2-z
_cell_length_a                   21.360(4)
_cell_length_b                   20.012(4)
_cell_length_c                   10.765(2)
_cell_angle_alpha                90.00
_cell_angle_beta                 112.73(3)
_cell_angle_gamma                90.00
_cell_volume                     4244.19
loop_
_atom_site_label
_atom_site_type_symbol
_atom_site_fract_x
_atom_site_fract_y
_atom_site_fract_z
Bi1 Bi 0.0000 0.052242(7) 0.2500
O1 O 0.06494(11) 0.02689(10) 0.4922(2)
O2 O 0.05948(11) 0.05530(10) 0.6889(2)
O3 O 0.19203(10) 0.15117(12) 0.3037(2)
O4 O 0.09507(10) 0.09408(10) 0.2180(2)
N1 N 0.04502(12) 0.15186(12) 0.3943(2)
C1 C 0.03619(14) 0.13944(14) 0.5221(3)
H8 H -0.0108 0.1473 0.5085
H9 H 0.0641 0.1706 0.5898
C2 C 0.05569(14) 0.06826(14) 0.5728(3)
C3 C 0.11828(14) 0.15785(15) 0.4196(3)
H10 H 0.1443 0.1328 0.5001
H11 H 0.1315 0.2044 0.4367
C4 C 0.13664(14) 0.13309(15) 0.3046(3)
C5 C 0.00638(15) 0.21194(14) 0.3250(3)
H12 H 0.0316 0.2518 0.3668
H13 H -0.0368 0.2131 0.3352
C5F C -0.00638(15) 0.21194(14) 0.1750(3)
N1F N -0.04502(12) 0.15186(12) 0.1057(2)
C1F C -0.03619(14) 0.13944(14) -0.0221(3)
H8F H 0.0108 0.1473 -0.0085
H9F H -0.0641 0.1706 -0.0898
C2F C -0.05569(14) 0.06826(14) -0.0728(3)
O1F O -0.06494(11) 0.02689(10) 0.0078(2)
O2F O -0.05948(11) 0.05530(10) -0.1889(2)
C3F C -0.11828(14) 0.15785(15) 0.0804(3)
H10F H -0.1443 0.1328 -0.0001
H11F H -0.1315 0.2044 0.0633
C4F C -0.13664(14) 0.13309(15) 0.1954(3)
O3F O -0.19203(10) 0.15117(12) 0.1963(2)
O4F O -0.09507(10) 0.09408(10) 0.2820(2)
H12F H -0.0316 0.2518 0.1332
H13F H 0.0368 0.2131 0.1648
O2B O 0.05948(11) -0.05530(10) 0.1889(2)
O2D O -0.05948(11) -0.05530(10) 0.3111(2)
Bi1B Bi 0.0000 -0.052242(7) 0.7500
Bi1B_2 Bi 0.0000 -0.052242(7) -0.2500
Co1 Co -0.2500 -0.2500 0.0000
O5 O -0.18278(11) -0.18791(12) 0.2581(2)
H1 H -0.1652 -0.2477 0.2612
O6 O -0.34390(11) -0.19152(11) -0.2417(2)
N2 N -0.22563(12) -0.18012(12) 0.1269(2)
N3 N -0.30340(12) -0.18141(12) -0.1133(2)
N4 N -0.32360(12) -0.27666(12) 0.0612(2)
H6 H -0.3055 -0.2927 0.1412
H7 H -0.3459 -0.3096 0.0145
C6 C -0.29796(15) -0.12292(15) -0.0574(3)
C7 C -0.3342(2) -0.06132(17) -0.1272(4)
H14 H -0.3814 -0.0635 -0.1382
H15 H -0.3327 -0.0584 -0.2159
C8 C -0.3012(3) 0.0004(2) -0.0454(5)
H16 H -0.2594 0.0093 -0.0581
H17 H -0.3311 0.0382 -0.0816
C9 C -0.2857(3) -0.0034(2) 0.0959(5)
H18 H -0.3280 -0.0078 0.1092
H19 H -0.2649 0.0384 0.1370
C10 C -0.23894(17) -0.06058(16) 0.1691(4)
H20 H -0.1921 -0.0469 0.1931
H21 H -0.2453 -0.0703 0.2517
C11 C -0.25207(15) -0.12232(15) 0.0853(3)
C12 C -0.37432(15) -0.22836(15) 0.0568(3)
C13 C -0.43246(15) -0.22082(16) -0.0597(3)
H22 H -0.4387 -0.2473 -0.1346
C14 C -0.48108(16) -0.17385(17) -0.0645(3)
H23 H -0.5199 -0.1694 -0.1427
C15 C -0.47269(16) -0.13324(16) 0.0458(3)
C16 C -0.52660(19) -0.08361(19) 0.0401(4)
H24 H -0.5459 -0.0644 -0.0483
H25 H -0.5068 -0.0489 0.1052
H26 H -0.5615 -0.1058 0.0599
C17 C -0.41440(16) -0.14184(16) 0.1621(3)
H27 H -0.4080 -0.1154 0.2372
C18 C -0.36591(15) -0.18903(16) 0.1679(3)
H28 H -0.3276 -0.1943 0.2467
O5E O -0.31722(11) -0.31209(12) -0.2581(2)
H1E H -0.3348 -0.2523 -0.2612
O6E O -0.15610(11) -0.30848(11) 0.2417(2)
N2E N -0.27437(12) -0.31988(12) -0.1269(2)
N3E N -0.19660(12) -0.31859(12) 0.1133(2)
C6E C -0.20204(15) -0.37708(15) 0.0574(3)
C7E C -0.1658(2) -0.43868(17) 0.1272(4)
H14E H -0.1186 -0.4365 0.1382
H15E H -0.1673 -0.4416 0.2159
C8E C -0.1988(3) -0.5004(2) 0.0454(5)
H16E H -0.2406 -0.5093 0.0581
H17E H -0.1689 -0.5382 0.0816
C9E C -0.2143(3) -0.4966(2) -0.0959(5)
H18E H -0.1720 -0.4922 -0.1092
H19E H -0.2351 -0.5384 -0.1370
C10E C -0.26106(17) -0.43942(16) -0.1691(4)
H20E H -0.3079 -0.4531 -0.1931
H21E H -0.2547 -0.4297 -0.2517
C11E C -0.24793(15) -0.37768(15) -0.0853(3)
N4E N -0.17640(12) -0.22334(12) -0.0612(2)
H6E H -0.1945 -0.2073 -0.1412
H7E H -0.1541 -0.1904 -0.0145
C12E C -0.12568(15) -0.27164(15) -0.0568(3)
C13E C -0.06754(15) -0.27918(16) 0.0597(3)
H22E H -0.0613 -0.2527 0.1346
C14E C -0.01892(16) -0.32615(17) 0.0645(3)
H23E H 0.0199 -0.3306 0.1427
C15E C -0.02731(16) -0.36676(16) -0.0458(3)
C16E C 0.02660(19) -0.41639(19) -0.0401(4)
H24E H 0.0459 -0.4356 0.0483
H25E H 0.0068 -0.4511 -0.1052
H26E H 0.0615 -0.3942 -0.0599
C17E C -0.08560(16) -0.35816(16) -0.1621(3)
H27E H -0.0920 -0.3846 -0.2372
C18E C -0.13409(15) -0.31097(16) -0.1679(3)
H28E H -0.1724 -0.3057 -0.2467
O7 O -0.32539(14) -0.17433(14) -0.4938(3)
H2 H -0.2802 -0.1729 -0.4602
H3 H -0.3382 -0.1759 -0.4236
O8 O -0.11412(12) -0.10427(11) 0.0519(2)
H4 H -0.0993 -0.1032 0.1365
H5 H -0.0993 -0.0671 0.0250
loop_
_geom_bond_atom_site_label_1
_geom_bond_atom_site_label_2
_geom_bond_site_symmetry_1
_geom_bond_site_symmetry_2
Bi1 O1 1_555 1_555
Co1 N2 1_555 1_555
O1 C2 1_555 1_555
O2 C2 1_555 1_555
O3 C4 1_555 1_555
O4 Bi1 1_555 1_555
O5 H1 1_555 1_555
O6 N3 1_555 1_555
O7 H2 1_555 1_555
H3 O7 1_555 1_555
O8 H4 1_555 1_555
H5 O8 1_555 1_555
N1 Bi1 1_555 1_555
N2 O5 1_555 1_555
N3 Co1 1_555 1_555
N4 Co1 1_555 1_555
H6 N4 1_555 1_555
H7 N4 1_555 1_555
C1 N1 1_555 1_555
H8 C1 1_555 1_555
H9 C1 1_555 1_555
C2 C1 1_555 1_555
C3 N1 1_555 1_555
H10 C3 1_555 1_555
H11 C3 1_555 1_555
C4 O4 1_555 1_555
C5 N1 1_555 1_555
H12 C5 1_555 1_555
H13 C5 1_555 1_555
C6 N3 1_555 1_555
C7 C6 1_555 1_555
H14 C7 1_555 1_555
H15 C7 1_555 1_555
C8 C7 1_555 1_555
H16 C8 1_555 1_555
H17 C8 1_555 1_555
C9 C8 1_555 1_555
H18 C9 1_555 1_555
H19 C9 1_555 1_555
C10 C9 1_555 1_555
H20 C10 1_555 1_555
H21 C10 1_555 1_555
C11 N2 1_555 1_555
C12 N4 1_555 1_555
C13 C12 1_555 1_555
H22 C13 1_555 1_555
C14 C13 1_555 1_555
H23 C14 1_555 1_555
C15 C14 1_555 1_555
C16 C15 1_555 1_555
H24 C16 1_555 1_555
H25 C16 1_555 1_555
H26 C16 1_555 1_555
C17 C15 1_555 1_555
H27 C17 1_555 1_555
C18 C12 1_555 1_555
H28 C18 1_555 1_555
C5F C5 1_555 1_555
N1F Bi1 1_555 1_555
C1F N1F 1_555 1_555
H8F C1F 1_555 1_555
H9F C1F 1_555 1_555
C2F C1F 1_555 1_555
O1F Bi1 1_555 1_555
O2F C2F 1_555 1_555
C3F N1F 1_555 1_555
H10F C3F 1_555 1_555
H11F C3F 1_555 1_555
C4F C3F 1_555 1_555
O3F C4F 1_555 1_555
O4F Bi1 1_555 1_555
H12F C5F 1_555 1_555
H13F C5F 1_555 1_555
O5E H1E 1_555 1_555
O6E N3E 1_555 1_555
N2E Co1 1_555 1_555
N3E Co1 1_555 1_555
C6E N3E 1_555 1_555
C7E C6E 1_555 1_555
H14E C7E 1_555 1_555
H15E C7E 1_555 1_555
C8E C7E 1_555 1_555
H16E C8E 1_555 1_555
H17E C8E 1_555 1_555
C9E C8E 1_555 1_555
H18E C9E 1_555 1_555
H19E C9E 1_555 1_555
C10E C9E 1_555 1_555
H20E C10E 1_555 1_555
H21E C10E 1_555 1_555
C11E N2E 1_555 1_555
N4E Co1 1_555 1_555
H6E N4E 1_555 1_555
H7E N4E 1_555 1_555
C12E N4E 1_555 1_555
C13E C12E 1_555 1_555
H22E C13E 1_555 1_555
C14E C13E 1_555 1_555
H23E C14E 1_555 1_555
C15E C14E 1_555 1_555
C16E C15E 1_555 1_555
H24E C16E 1_555 1_555
H25E C16E 1_555 1_555
H26E C16E 1_555 1_555
C17E C15E 1_555 1_555
H27E C17E 1_555 1_555
C18E C12E 1_555 1_555
H28E C18E 1_555 1_555
O2B Bi1 1_555 1_555
O2D Bi1 1_555 1_555
Bi1B O2 1_555 1_555
Bi1B_2 O2F 1_555 1_555
C3 C4 1_555 1_555
C6 C11 1_555 1_555
C10 C11 1_555 1_555
C17 C18 1_555 1_555
C5F N1F 1_555 1_555
C2F O1F 1_555 1_555
C4F O4F 1_555 1_555
O5E N2E 1_555 1_555
C6E C11E 1_555 1_555
C10E C11E 1_555 1_555
C17E C18E 1_555 1_555

#END
