
#######################################################################
#
#                 Cambridge Crystallographic Data Centre
#                                CCDC 
#
#######################################################################
#
# If this CIF has been generated from an entry in the Cambridge 
# Structural Database, then it will include bibliographic, chemical, 
# crystal, experimental, refinement or atomic coordinate data resulting 
# from the CCDC's data processing and validation procedures.
#
#######################################################################

data_IWATIK
_symmetry_cell_setting           monoclinic
_symmetry_space_group_name_H-M   'C 2/c'
_symmetry_Int_Tables_number      15
_space_group_name_Hall           '-C 2yn'
loop_
_symmetry_equiv_pos_site_id
_symmetry_equiv_pos_as_xyz
1 x,y,z
2 -x,y,1/2-z
3 1/2+x,1/2+y,z
4 1/2-x,1/2+y,1/2-z
5 -x,-y,-z
6 x,-y,1/2+z
7 1/2-x,1/2-y,-z
8 1/2+x,1/2-y,1/2+z
_cell_length_a                   10.897(11)
_cell_length_b                   14.158(14)
_cell_length_c                   16.389(17)
_cell_angle_alpha                90
_cell_angle_beta                 108.139(16)
_cell_angle_gamma                90
_cell_volume                     2402.83
loop_
_atom_site_label
_atom_site_type_symbol
_atom_site_fract_x
_atom_site_fract_y
_atom_site_fract_z
Ni1 Ni 0.5000 0.28195(3) 0.7500
O1 O 0.61707(17) 0.28895(13) 0.67514(12)
O2 O 0.78695(17) 0.20267(12) 0.74739(12)
O3 O 0.3899(2) 0.16841(14) 0.68001(12)
N1 N 0.6148(2) 0.62240(15) 0.33747(13)
C1 C 0.7321(3) 0.26103(19) 0.69023(18)
C2 C 0.8030(2) 0.30139(18) 0.63264(17)
C3 C 0.9239(3) 0.2670(2) 0.63519(19)
H1 H 0.9626 0.2190 0.6732
C4 C 0.9865(3) 0.3048(2) 0.58080(19)
H2 H 1.0675 0.2820 0.5830
C5 C 0.9307(3) 0.3752(2) 0.52380(19)
H3 H 0.9736 0.3992 0.4873
C6 C 0.8097(2) 0.41121(19) 0.52045(17)
C7 C 0.7485(2) 0.37367(18) 0.57602(17)
H4 H 0.6687 0.3978 0.5751
C8 C 0.7465(2) 0.48659(18) 0.45828(18)
C9 C 0.6909(3) 0.5658(2) 0.48238(18)
H5 H 0.6964 0.5749 0.5396
C10 C 0.6276(3) 0.6308(2) 0.42137(18)
H6 H 0.5917 0.6834 0.4392
C11 C 0.6703(3) 0.5473(2) 0.31491(18)
H7 H 0.6639 0.5399 0.2574
C12 C 0.7367(3) 0.48037(19) 0.37246(18)
H8 H 0.7755 0.4302 0.3533
C13 C 0.4590(3) 0.0819(2) 0.70379(18)
H9 H 0.5135 0.0720 0.6677
H10 H 0.3980 0.0300 0.6940
H11 H 0.324(3) 0.173(2) 0.699(2)
Ni1D Ni 0.5000 0.71805(3) 0.2500
Ni1D_2 Ni 0.5000 0.71805(3) 1.2500
O1A O 0.38293(17) 0.28895(13) 0.82486(12)
O2A O 0.21305(17) 0.20267(12) 0.75261(12)
O3A O 0.6101(2) 0.16841(14) 0.81999(12)
N1A N 0.3852(2) 0.62240(15) 1.16253(13)
N1D N 0.3852(2) 0.37760(15) 0.66253(13)
N1E N 0.6148(2) 0.37760(15) 0.83747(13)
C1A C 0.2679(3) 0.26103(19) 0.80977(18)
C2A C 0.1970(2) 0.30139(18) 0.86736(17)
C3A C 0.0761(3) 0.2670(2) 0.86481(19)
H1A H 0.0374 0.2190 0.8268
C4A C 0.0135(3) 0.3048(2) 0.91920(19)
H2A H -0.0675 0.2820 0.9170
C5A C 0.0693(3) 0.3752(2) 0.97620(19)
H3A H 0.0264 0.3992 1.0127
C6A C 0.1903(2) 0.41121(19) 0.97955(17)
C7A C 0.2515(2) 0.37367(18) 0.92398(17)
H4A H 0.3313 0.3978 0.9249
C8A C 0.2535(2) 0.48659(18) 1.04172(18)
C9A C 0.3091(3) 0.5658(2) 1.01762(18)
H5A H 0.3036 0.5749 0.9604
C10A C 0.3724(3) 0.6308(2) 1.07863(18)
H6A H 0.4083 0.6834 1.0608
C11A C 0.3297(3) 0.5473(2) 1.18509(18)
H7A H 0.3361 0.5399 1.2426
C12A C 0.2633(3) 0.48037(19) 1.12754(18)
H8A H 0.2245 0.4302 1.1467
C13A C 0.5410(3) 0.0819(2) 0.79621(18)
H9A H 0.4865 0.0720 0.8323
H10A H 0.6020 0.0300 0.8060
H11A H 0.676(3) 0.173(2) 0.801(2)
loop_
_geom_bond_atom_site_label_1
_geom_bond_atom_site_label_2
_geom_bond_site_symmetry_1
_geom_bond_site_symmetry_2
Ni1 O1 1_555 1_555
O1 C1 1_555 1_555
O2 C1 1_555 1_555
O3 Ni1 1_555 1_555
N1 C10 1_555 1_555
C1 C2 1_555 1_555
C2 C3 1_555 1_555
C3 H1 1_555 1_555
C4 C3 1_555 1_555
H2 C4 1_555 1_555
C5 C4 1_555 1_555
H3 C5 1_555 1_555
C6 C5 1_555 1_555
C7 C2 1_555 1_555
H4 C7 1_555 1_555
C8 C6 1_555 1_555
C9 C8 1_555 1_555
H5 C9 1_555 1_555
C10 C9 1_555 1_555
H6 C10 1_555 1_555
C11 N1 1_555 1_555
H7 C11 1_555 1_555
C12 C8 1_555 1_555
H8 C12 1_555 1_555
C13 O3 1_555 1_555
H9 C13 1_555 1_555
H10 C13 1_555 1_555
H11 O3 1_555 1_555
Ni1D N1 1_555 1_555
Ni1D_2 N1A 1_555 1_555
O1A Ni1 1_555 1_555
O2A C1A 1_555 1_555
O3A Ni1 1_555 1_555
N1A C10A 1_555 1_555
N1D Ni1 1_555 1_555
N1E Ni1 1_555 1_555
C1A O1A 1_555 1_555
C2A C1A 1_555 1_555
C3A C2A 1_555 1_555
H1A C3A 1_555 1_555
C4A C3A 1_555 1_555
H2A C4A 1_555 1_555
C5A C4A 1_555 1_555
H3A C5A 1_555 1_555
C6A C5A 1_555 1_555
C7A C2A 1_555 1_555
H4A C7A 1_555 1_555
C8A C6A 1_555 1_555
C9A C8A 1_555 1_555
H5A C9A 1_555 1_555
C10A C9A 1_555 1_555
H6A C10A 1_555 1_555
C11A N1A 1_555 1_555
H7A C11A 1_555 1_555
C12A C8A 1_555 1_555
H8A C12A 1_555 1_555
C13A C13 1_555 1_555
H9A C13A 1_555 1_555
H10A C13A 1_555 1_555
H11A O3A 1_555 1_555
C6 C7 1_555 1_555
C11 C12 1_555 1_555
O3A C13A 1_555 1_555
C6A C7A 1_555 1_555
C11A C12A 1_555 1_555

#END
