
#######################################################################
#
#                 Cambridge Crystallographic Data Centre
#                                CCDC 
#
#######################################################################
#
# If this CIF has been generated from an entry in the Cambridge 
# Structural Database, then it will include bibliographic, chemical, 
# crystal, experimental, refinement or atomic coordinate data resulting 
# from the CCDC's data processing and validation procedures.
#
#######################################################################

data_IWATOQ
_symmetry_cell_setting           triclinic
_symmetry_space_group_name_H-M   'P -1'
_symmetry_Int_Tables_number      2
_space_group_name_Hall           '-P 1'
loop_
_symmetry_equiv_pos_site_id
_symmetry_equiv_pos_as_xyz
1 x,y,z
2 -x,-y,-z
_cell_length_a                   7.1438(9)
_cell_length_b                   8.5011(11)
_cell_length_c                   10.9157(13)
_cell_angle_alpha                74.468(2)
_cell_angle_beta                 83.059(2)
_cell_angle_gamma                77.842(2)
_cell_volume                     622.914
loop_
_atom_site_label
_atom_site_type_symbol
_atom_site_fract_x
_atom_site_fract_y
_atom_site_fract_z
Cd1 Cd 0.5000 0.5000 0.0000
O1 O 0.6800(2) 0.32693(16) 0.16536(12)
N1 N 0.5830(2) 0.35181(19) 0.84360(14)
C1 C 0.7355(3) 0.1709(2) 0.19053(17)
O2 O 0.7806(2) 0.09139(17) 0.10755(13)
C2 C 0.7494(2) 0.0790(2) 0.32873(16)
O3 O 0.2573(3) 0.3478(2) 0.08410(18)
C3 C 0.8130(3) -0.0922(2) 0.36357(18)
C4 C 0.8275(3) -0.1747(2) 0.49078(19)
C5 C 0.7790(3) -0.0879(2) 0.58408(18)
C6 C 0.7008(3) 0.1654(2) 0.42336(17)
C7 C 0.7158(2) 0.0841(2) 0.55166(17)
C8 C 0.6685(3) 0.1774(2) 0.65140(17)
C9 C 0.6825(3) 0.3446(2) 0.62751(18)
C10 C 0.6393(3) 0.4253(2) 0.72393(18)
C11 C 0.5684(3) 0.1919(2) 0.86658(18)
C12 C 0.6089(3) 0.1023(2) 0.77578(18)
H1 H 0.849(3) -0.155(3) 0.301(2)
H2 H 0.660(3) 0.281(3) 0.3972(19)
H3 H 0.649(3) 0.543(3) 0.702(2)
H4 H 0.529(3) 0.137(3) 0.951(2)
H5 H 0.594(3) -0.009(3) 0.797(2)
H6 H 0.726(3) 0.398(3) 0.549(2)
H7 H 0.873(3) -0.295(3) 0.514(2)
H8 H 0.795(3) -0.145(3) 0.667(2)
H9 H 0.178(4) 0.387(3) 0.125(3)
H11 H 0.211(4) 0.316(3) 0.042(3)
Cd1_2 Cd 0.5000 0.5000 -1.0000
Cd1_3 Cd 0.5000 0.5000 1.0000
O1A O 0.3200(2) 0.67307(16) -0.16536(12)
N1A N 0.4170(2) 0.64819(19) -0.84360(14)
N1_2 N 0.5830(2) 0.35181(19) -0.15640(14)
N1A_2 N 0.4170(2) 0.64819(19) 0.15640(14)
C1A C 0.2645(3) 0.8291(2) -0.19053(17)
O2A O 0.2194(2) 0.90861(17) -0.10755(13)
C2A C 0.2506(2) 0.9210(2) -0.32873(16)
O3A O 0.7427(3) 0.6522(2) -0.08410(18)
C3A C 0.1870(3) 1.0922(2) -0.36357(18)
C4A C 0.1725(3) 1.1747(2) -0.49078(19)
C5A C 0.2210(3) 1.0879(2) -0.58408(18)
C6A C 0.2992(3) 0.8346(2) -0.42336(17)
C7A C 0.2842(2) 0.9159(2) -0.55166(17)
C8A C 0.3315(3) 0.8226(2) -0.65140(17)
C9A C 0.3175(3) 0.6554(2) -0.62751(18)
C10A C 0.3607(3) 0.5747(2) -0.72393(18)
C11A C 0.4316(3) 0.8081(2) -0.86658(18)
C12A C 0.3911(3) 0.8977(2) -0.77578(18)
H1A H 0.151(3) 1.155(3) -0.301(2)
H2A H 0.340(3) 0.719(3) -0.3972(19)
H3A H 0.351(3) 0.457(3) -0.702(2)
H4A H 0.471(3) 0.863(3) -0.951(2)
H5A H 0.406(3) 1.009(3) -0.797(2)
H6A H 0.274(3) 0.602(3) -0.549(2)
H7A H 0.127(3) 1.295(3) -0.514(2)
H8A H 0.205(3) 1.145(3) -0.667(2)
H9A H 0.822(4) 0.613(3) -0.125(3)
H11A H 0.789(4) 0.684(3) -0.042(3)
O4 O 0.9573(3) 0.4772(3) 0.23564(19)
H12 H 0.941(4) 0.574(4) 0.194(3)
H14 H 0.864(5) 0.447(4) 0.219(3)
O5 O 0.9261(3) 0.7884(2) 0.06218(17)
H10 H 1.026(4) 0.810(3) 0.022(3)
H13 H 0.880(5) 0.865(4) 0.078(3)
loop_
_geom_bond_atom_site_label_1
_geom_bond_atom_site_label_2
_geom_bond_site_symmetry_1
_geom_bond_site_symmetry_2
Cd1 O1 1_555 1_555
O1 C1 1_555 1_555
N1 C10 1_555 1_555
C1 O2 1_555 1_555
C2 C1 1_555 1_555
O3 Cd1 1_555 1_555
C3 C2 1_555 1_555
O4 H12 1_555 1_555
C4 C3 1_555 1_555
O5 H10 1_555 1_555
C5 C4 1_555 1_555
C6 C2 1_555 1_555
C7 C5 1_555 1_555
C8 C7 1_555 1_555
C9 C8 1_555 1_555
C10 C9 1_555 1_555
C11 N1 1_555 1_555
C12 C8 1_555 1_555
H1 C3 1_555 1_555
H2 C6 1_555 1_555
H3 C10 1_555 1_555
H4 C11 1_555 1_555
H5 C12 1_555 1_555
H6 C9 1_555 1_555
H7 C4 1_555 1_555
H8 C5 1_555 1_555
H9 O3 1_555 1_555
H11 O3 1_555 1_555
H13 O5 1_555 1_555
H14 O4 1_555 1_555
Cd1_2 N1A 1_555 1_555
Cd1_3 N1 1_555 1_555
O1A Cd1 1_555 1_555
N1A C10A 1_555 1_555
N1_2 Cd1 1_555 1_555
N1A_2 Cd1 1_555 1_555
C1A O1A 1_555 1_555
O2A C1A 1_555 1_555
C2A C1A 1_555 1_555
O3A Cd1 1_555 1_555
C3A C2A 1_555 1_555
C4A C3A 1_555 1_555
C5A C4A 1_555 1_555
C6A C2A 1_555 1_555
C7A C5A 1_555 1_555
C8A C7A 1_555 1_555
C9A C8A 1_555 1_555
C10A C9A 1_555 1_555
C11A N1A 1_555 1_555
C12A C8A 1_555 1_555
H1A C3A 1_555 1_555
H2A C6A 1_555 1_555
H3A C10A 1_555 1_555
H4A C11A 1_555 1_555
H5A C12A 1_555 1_555
H6A C9A 1_555 1_555
H7A C4A 1_555 1_555
H8A C5A 1_555 1_555
H9A O3A 1_555 1_555
H11A O3A 1_555 1_555
C6 C7 1_555 1_555
C11 C12 1_555 1_555
C6A C7A 1_555 1_555
C11A C12A 1_555 1_555

#END
