
#######################################################################
#
#                 Cambridge Crystallographic Data Centre
#                                CCDC 
#
#######################################################################
#
# If this CIF has been generated from an entry in the Cambridge 
# Structural Database, then it will include bibliographic, chemical, 
# crystal, experimental, refinement or atomic coordinate data resulting 
# from the CCDC's data processing and validation procedures.
#
#######################################################################

data_IWAVIM
_symmetry_cell_setting           monoclinic
_symmetry_space_group_name_H-M   'C 2/c'
_symmetry_Int_Tables_number      15
_space_group_name_Hall           '-C 2yn'
loop_
_symmetry_equiv_pos_site_id
_symmetry_equiv_pos_as_xyz
1 x,y,z
2 -x,y,1/2-z
3 1/2+x,1/2+y,z
4 1/2-x,1/2+y,1/2-z
5 -x,-y,-z
6 x,-y,1/2+z
7 1/2-x,1/2-y,-z
8 1/2+x,1/2-y,1/2+z
_cell_length_a                   20.426(14)
_cell_length_b                   11.454(8)
_cell_length_c                   20.893(15)
_cell_angle_alpha                90
_cell_angle_beta                 102.263(8)
_cell_angle_gamma                90
_cell_volume                     4776.58
loop_
_atom_site_label
_atom_site_type_symbol
_atom_site_fract_x
_atom_site_fract_y
_atom_site_fract_z
Cd1 Cd 0.07918(2) 0.70796(6) 1.02213(3)
O1 O 0.0635(2) 0.5393(5) 0.9432(3)
O2 O 0.1598(2) 0.5737(5) 1.0079(3)
O3 O 0.0479(2) 0.5887(5) 1.1014(3)
O4 O 0.0749(4) 0.8625(8) 1.1247(5)
O5 O 0.1601(4) 0.7924(7) 1.0928(3)
N1 N 0.4686(3) 0.2581(6) 0.9844(3)
N2 N 0.1114(3) 1.1840(6) 1.4379(3)
C1 C 0.1251(3) 0.5188(7) 0.9619(4)
C2 C 0.1580(3) 0.4263(7) 0.9303(4)
C3 C 0.1227(4) 0.3652(9) 0.8778(5)
H1 H 0.0770 0.3782 0.8630
C4 C 0.1551(5) 0.2854(11) 0.8473(6)
H2 H 0.1317 0.2477 0.8099
C5 C 0.2227(4) 0.2589(9) 0.8708(6)
H3 H 0.2420 0.1952 0.8543
C6 C 0.2605(3) 0.3283(7) 0.9189(4)
C7 C 0.2265(3) 0.4068(7) 0.9503(4)
H4 H 0.2503 0.4479 0.9862
C8 C 0.3327(3) 0.3059(7) 0.9413(4)
C9 C 0.3634(4) 0.2137(9) 0.9200(5)
H5 H 0.3381 0.1634 0.8894
C10 C 0.4291(4) 0.1922(9) 0.9414(5)
H6 H 0.4475 0.1274 0.9249
C11 C 0.4399(4) 0.3486(10) 1.0046(6)
H7 H 0.4658 0.4005 1.0336
C12 C 0.3736(4) 0.3689(10) 0.9847(6)
H8 H 0.3557 0.4321 1.0031
C13 C 0.1336(6) 0.8531(9) 1.1312(5)
C14 C 0.1769(5) 0.9205(8) 1.1873(4)
C15 C 0.2487(5) 0.9197(11) 1.1924(5)
H9 H 0.2678 0.8801 1.1620
C16 C 0.2863(5) 0.9770(12) 1.2416(5)
H10 H 0.3324 0.9804 1.2450
C17 C 0.2602(4) 1.0286(12) 1.2851(5)
H11 H 0.2891 1.0670 1.3190
C18 C 0.1908(4) 1.0313(9) 1.2853(4)
C19 C 0.1524(4) 0.9706(8) 1.2327(4)
H12 H 0.1064 0.9657 1.2300
C20 C 0.1643(4) 1.0863(8) 1.3368(4)
C21 C 0.2011(5) 1.1307(10) 1.3919(4)
H13 H 0.2475 1.1308 1.3977
C22 C 0.1732(4) 1.1755(11) 1.4394(5)
H14 H 0.2022 1.2028 1.4768
C23 C 0.0729(6) 1.1338(17) 1.3899(7)
H15 H 0.0281 1.1235 1.3914
C24 C 0.0942(8) 1.0951(17) 1.3375(9)
H16 H 0.0627 1.0733 1.3004
Cd1B Cd 0.57918(2) 0.20796(6) 1.02213(3)
Cd1E Cd 0.07918(2) 1.29204(6) 1.52213(3)
N1B N -0.0314(3) 0.7581(6) 0.9844(3)
N2E N 0.1114(3) 0.8160(6) 0.9379(3)
loop_
_geom_bond_atom_site_label_1
_geom_bond_atom_site_label_2
_geom_bond_site_symmetry_1
_geom_bond_site_symmetry_2
Cd1 O1 1_555 1_555
O1 C1 1_555 1_555
O2 Cd1 1_555 1_555
O3 Cd1 1_555 1_555
O4 C13 1_555 1_555
O5 Cd1 1_555 1_555
N1 C10 1_555 1_555
N2 C22 1_555 1_555
C1 O2 1_555 1_555
C2 C1 1_555 1_555
C3 C2 1_555 1_555
H1 C3 1_555 1_555
C4 C3 1_555 1_555
H2 C4 1_555 1_555
C5 C4 1_555 1_555
H3 C5 1_555 1_555
C6 C5 1_555 1_555
C7 C2 1_555 1_555
H4 C7 1_555 1_555
C8 C6 1_555 1_555
C9 C8 1_555 1_555
H5 C9 1_555 1_555
C10 C9 1_555 1_555
H6 C10 1_555 1_555
C11 N1 1_555 1_555
H7 C11 1_555 1_555
C12 C8 1_555 1_555
H8 C12 1_555 1_555
C13 O5 1_555 1_555
C14 C13 1_555 1_555
C15 C14 1_555 1_555
H9 C15 1_555 1_555
C16 C15 1_555 1_555
H10 C16 1_555 1_555
C17 C16 1_555 1_555
H11 C17 1_555 1_555
C18 C17 1_555 1_555
C19 C14 1_555 1_555
H12 C19 1_555 1_555
C20 C18 1_555 1_555
C21 C20 1_555 1_555
H13 C21 1_555 1_555
C22 C21 1_555 1_555
H14 C22 1_555 1_555
C23 N2 1_555 1_555
H15 C23 1_555 1_555
C24 C20 1_555 1_555
H16 C24 1_555 1_555
Cd1B N1 1_555 1_555
Cd1E N2 1_555 1_555
N1B Cd1 1_555 1_555
N2E Cd1 1_555 1_555
C6 C7 1_555 1_555
C11 C12 1_555 1_555
C18 C19 1_555 1_555
C23 C24 1_555 1_555

#END
