
#######################################################################
#
#                 Cambridge Crystallographic Data Centre
#                                CCDC 
#
#######################################################################
#
# If this CIF has been generated from an entry in the Cambridge 
# Structural Database, then it will include bibliographic, chemical, 
# crystal, experimental, refinement or atomic coordinate data resulting 
# from the CCDC's data processing and validation procedures.
#
#######################################################################

data_IWAVAE
_symmetry_cell_setting           monoclinic
_symmetry_space_group_name_H-M   'P 21/c'
_symmetry_Int_Tables_number      14
_space_group_name_Hall           '-P 2ybc'
loop_
_symmetry_equiv_pos_site_id
_symmetry_equiv_pos_as_xyz
1 x,y,z
2 -x,1/2+y,1/2-z
3 -x,-y,-z
4 x,1/2-y,1/2+z
_cell_length_a                   11.850(2)
_cell_length_b                   13.474(3)
_cell_length_c                   19.647(4)
_cell_angle_alpha                90
_cell_angle_beta                 98.72(3)
_cell_angle_gamma                90
_cell_volume                     3100.72
loop_
_atom_site_label
_atom_site_type_symbol
_atom_site_fract_x
_atom_site_fract_y
_atom_site_fract_z
Fe1 Fe 0.29855(4) 0.53084(4) 0.07237(2)
Fe2 Fe 0.50218(4) 0.37808(3) -0.00217(3)
O1 O 0.4576(2) 0.48687(16) 0.06335(12)
H1 H 0.5073 0.4842 0.1092
O2 O 0.3415(2) 0.1143(2) 0.43707(14)
O3 O 0.2111(2) 0.0714(2) 0.50215(13)
O4 O 0.4557(2) 0.72146(18) 0.07573(13)
O5 O 0.3692(2) 0.63728(18) 0.15090(13)
O6 O 0.3198(2) 0.63386(19) -0.05067(13)
O7 O 0.1971(2) 0.64047(19) 0.02430(13)
N1 N 0.2239(2) 0.4618(2) 0.15205(15)
N2 N 0.4745(2) 1.2508(2) 0.06326(16)
N3 N -0.2689(4) 1.0048(4) -0.0043(2)
C1 C 0.2417(3) 0.1110(3) 0.45005(18)
C2 C 0.0357(3) 0.1516(3) 0.40344(19)
H2 H 0.0113 0.1086 0.4367
C3 C -0.0435(3) 0.2048(3) 0.3591(2)
H3 H -0.1225 0.1975 0.3617
C4 C -0.0089(3) 0.2687(3) 0.31103(19)
H4 H -0.0643 0.3055 0.2812
C5 C 0.1067(3) 0.2793(3) 0.30611(18)
C6 C 0.1856(3) 0.2243(3) 0.35043(18)
H5 H 0.2644 0.2302 0.3471
C7 C 0.1519(3) 0.1611(3) 0.39932(17)
C8 C 0.1449(3) 0.3452(3) 0.25398(18)
C9 C 0.0820(3) 0.3564(3) 0.18894(19)
H6 H 0.0099 0.3249 0.1781
C10 C 0.1238(3) 0.4131(3) 0.14016(19)
H7 H 0.0795 0.4181 0.0957
C11 C 0.2826(3) 0.4541(3) 0.21583(19)
H8 H 0.3519 0.4901 0.2264
C12 C 0.2476(3) 0.3968(3) 0.26664(19)
H9 H 0.2936 0.3925 0.3105
C13 C 0.4141(3) 0.7143(2) 0.13060(18)
C14 C 0.4135(3) 0.8072(3) 0.17316(18)
C15 C 0.3779(3) 0.8066(3) 0.23728(18)
H10 H 0.3592 0.7456 0.2571
C16 C 0.3695(4) 0.8950(3) 0.2725(2)
H11 H 0.3462 0.8941 0.3167
C17 C 0.3948(4) 0.9844(3) 0.2436(2)
H12 H 0.3877 1.0446 0.2678
C18 C 0.4306(3) 0.9867(2) 0.17931(18)
C19 C 0.4417(3) 0.8972(3) 0.14551(18)
H13 H 0.4692 0.8976 0.1025
C20 C 0.4509(3) 1.0805(3) 0.14356(18)
C21 C 0.3897(3) 1.1670(3) 0.1506(2)
H14 H 0.3388 1.1700 0.1835
C22 C 0.4025(3) 1.2484(3) 0.1100(2)
H15 H 0.3582 1.3058 0.1153
C23 C 0.5365(3) 1.1685(3) 0.05841(19)
H16 H 0.5897 1.1686 0.0268
C24 C 0.5277(3) 1.0842(3) 0.09642(19)
H17 H 0.5740 1.0282 0.0906
C25 C 0.2313(3) 0.6675(3) -0.03068(18)
C26 C 0.1626(3) 0.7457(3) -0.07319(17)
C27 C 0.0675(3) 0.7870(3) -0.05121(18)
H18 H 0.0426 0.7622 -0.0107
C28 C 0.0073(3) 0.8644(3) -0.0874(2)
C29 C 0.0441(4) 0.8988(3) -0.1470(2)
H19 H 0.0043 0.9515 -0.1724
C30 C 0.1380(4) 0.8570(3) -0.1698(2)
H20 H 0.1616 0.8801 -0.2111
C31 C 0.1980(3) 0.7814(3) -0.13267(19)
H21 H 0.2635 0.7539 -0.1480
C32 C -0.0903(3) 0.9117(3) -0.0599(2)
C33 C -0.1541(3) 0.8607(4) -0.0182(2)
H22 H -0.1389 0.7927 -0.0078
C34 C -0.2411(4) 0.9099(5) 0.0085(3)
H23 H -0.2832 0.8737 0.0376
C35 C -0.2080(4) 1.0517(4) -0.0455(3)
H24 H -0.2266 1.1190 -0.0562
C36 C -0.1199(4) 1.0105(3) -0.0740(3)
H25 H -0.0796 1.0489 -0.1030
Fe1C Fe 0.29855(4) -0.03084(4) 0.57237(2)
Fe2B Fe 0.49782(4) 0.62192(3) 0.00217(3)
Fe2C Fe 0.50218(4) 0.12192(3) 0.49783(3)
Fe2_2 Fe 0.50218(4) 1.37808(3) -0.00217(3)
O1B O 0.5424(2) 0.51313(16) -0.06335(12)
H1B H 0.4927 0.5158 -0.1092
O2C O 0.3415(2) 0.3857(2) -0.06293(14)
O3C O 0.2111(2) 0.4286(2) 0.00215(13)
O4B O 0.5443(2) 0.27854(18) -0.07573(13)
O6B O 0.6802(2) 0.36614(19) 0.05067(13)
N2_2 N 0.4745(2) 0.2508(2) 0.06326(16)
loop_
_geom_bond_atom_site_label_1
_geom_bond_atom_site_label_2
_geom_bond_site_symmetry_1
_geom_bond_site_symmetry_2
Fe1 O1 1_555 1_555
Fe2 O1 1_555 1_555
O1 H1 1_555 1_555
O2 C1 1_555 1_555
O3 C1 1_555 1_555
O4 C13 1_555 1_555
O5 Fe1 1_555 1_555
O6 C25 1_555 1_555
O7 Fe1 1_555 1_555
N1 Fe1 1_555 1_555
N2 C22 1_555 1_555
N3 C34 1_555 1_555
C1 C7 1_555 1_555
C2 H2 1_555 1_555
C3 C2 1_555 1_555
H3 C3 1_555 1_555
C4 C3 1_555 1_555
H4 C4 1_555 1_555
C5 C4 1_555 1_555
C6 C5 1_555 1_555
H5 C6 1_555 1_555
C7 C2 1_555 1_555
C8 C5 1_555 1_555
C9 C8 1_555 1_555
H6 C9 1_555 1_555
C10 N1 1_555 1_555
H7 C10 1_555 1_555
C11 N1 1_555 1_555
H8 C11 1_555 1_555
C12 C8 1_555 1_555
H9 C12 1_555 1_555
C13 O5 1_555 1_555
C14 C13 1_555 1_555
C15 C14 1_555 1_555
H10 C15 1_555 1_555
C16 C15 1_555 1_555
H11 C16 1_555 1_555
C17 C16 1_555 1_555
H12 C17 1_555 1_555
C18 C17 1_555 1_555
C19 C14 1_555 1_555
H13 C19 1_555 1_555
C20 C18 1_555 1_555
C21 C20 1_555 1_555
H14 C21 1_555 1_555
C22 C21 1_555 1_555
H15 C22 1_555 1_555
C23 N2 1_555 1_555
H16 C23 1_555 1_555
C24 C20 1_555 1_555
H17 C24 1_555 1_555
C25 O7 1_555 1_555
C26 C25 1_555 1_555
C27 C26 1_555 1_555
H18 C27 1_555 1_555
C28 C27 1_555 1_555
C29 C28 1_555 1_555
H19 C29 1_555 1_555
C30 C29 1_555 1_555
H20 C30 1_555 1_555
C31 C26 1_555 1_555
H21 C31 1_555 1_555
C32 C28 1_555 1_555
C33 C32 1_555 1_555
H22 C33 1_555 1_555
C34 C33 1_555 1_555
H23 C34 1_555 1_555
C35 N3 1_555 1_555
H24 C35 1_555 1_555
C36 C32 1_555 1_555
H25 C36 1_555 1_555
Fe1C O3 1_555 1_555
Fe2B O1 1_555 1_555
Fe2C O2 1_555 1_555
Fe2_2 N2 1_555 1_555
O1B Fe2 1_555 1_555
H1B O1B 1_555 1_555
O2C Fe2 1_555 1_555
O3C Fe1 1_555 1_555
O4B Fe2 1_555 1_555
O6B Fe2 1_555 1_555
N2_2 Fe2 1_555 1_555
O4 Fe2B 1_555 1_555
O6 Fe2B 1_555 1_555
C6 C7 1_555 1_555
C9 C10 1_555 1_555
C11 C12 1_555 1_555
C18 C19 1_555 1_555
C23 C24 1_555 1_555
C30 C31 1_555 1_555
C35 C36 1_555 1_555
Fe2B O1B 1_555 1_555

#END
