
#######################################################################
#
#                 Cambridge Crystallographic Data Centre
#                                CCDC 
#
#######################################################################
#
# If this CIF has been generated from an entry in the Cambridge 
# Structural Database, then it will include bibliographic, chemical, 
# crystal, experimental, refinement or atomic coordinate data resulting 
# from the CCDC's data processing and validation procedures.
#
#######################################################################

data_IWAVOS
_symmetry_cell_setting           monoclinic
_symmetry_space_group_name_H-M   'C 2/c'
_symmetry_Int_Tables_number      15
_space_group_name_Hall           '-C 2yn'
loop_
_symmetry_equiv_pos_site_id
_symmetry_equiv_pos_as_xyz
1 x,y,z
2 -x,y,1/2-z
3 1/2+x,1/2+y,z
4 1/2-x,1/2+y,1/2-z
5 -x,-y,-z
6 x,-y,1/2+z
7 1/2-x,1/2-y,-z
8 1/2+x,1/2-y,1/2+z
_cell_length_a                   21.916(3)
_cell_length_b                   11.9560(14)
_cell_length_c                   19.004(2)
_cell_angle_alpha                90
_cell_angle_beta                 124.110(3)
_cell_angle_gamma                90
_cell_volume                     4122.9
loop_
_atom_site_label
_atom_site_type_symbol
_atom_site_fract_x
_atom_site_fract_y
_atom_site_fract_z
Cu1 Cu 0.005696(18) 0.02599(3) 0.335612(19)
Cu2 Cu 0.113662(18) 0.19338(3) 0.50105(2)
Cu3 Cu 0.0000 0.0000 0.5000
N1 N 0.0000 0.1293(3) 0.2500
N2 N 0.0000 0.2313(3) 0.2500
N3 N 0.0000 0.3268(3) 0.2500
N4 N 0.0000 -0.0771(3) 0.2500
N5 N 0.0000 -0.1793(3) 0.2500
N6 N 0.0000 -0.2745(4) 0.2500
N7 N 0.01699(13) -0.0840(2) 0.41991(14)
N8 N 0.05048(14) -0.1728(2) 0.43859(15)
N9 N 0.07960(17) -0.2575(3) 0.4553(2)
N10 N -0.02185(14) 0.1398(2) 0.39357(14)
N11 N -0.06741(17) 0.1968(2) 0.35596(18)
N12 N -0.11867(17) 0.2603(2) 0.31546(18)
N13 N 0.10429(13) 0.0625(2) 0.56248(14)
N14 N 0.15233(14) -0.0087(2) 0.58891(15)
N15 N 0.19760(14) -0.0747(2) 0.61542(17)
N16 N 0.12905(12) 0.3236(2) 0.45190(14)
N17 N 0.10451(13) 0.3070(2) 0.57003(15)
O1 O 0.13404(10) 0.08992(17) 0.44033(12)
C1 C 0.16699(14) 0.1148(3) 0.40240(16)
C2 C 0.17949(15) 0.2222(3) 0.38712(16)
H1 H 0.2046 0.2298 0.3597
C3 C 0.15866(15) 0.3228(3) 0.40819(16)
C4 C 0.10875(17) 0.4291(3) 0.47118(18)
H2 H 0.1020 0.4977 0.4424
C5 C 0.10000(15) 0.4136(3) 0.54362(17)
C6 C 0.09090(17) 0.5023(3) 0.58347(19)
H3 H 0.0866 0.5765 0.5633
C7 C 0.08810(18) 0.4814(3) 0.6534(2)
H4 H 0.0807 0.5412 0.6808
C8 C 0.09608(18) 0.3733(3) 0.6829(2)
H5 H 0.0965 0.3580 0.7323
C9 C 0.10343(17) 0.2879(3) 0.63945(18)
H6 H 0.1079 0.2132 0.6589
C10 C 0.18961(15) 0.0163(3) 0.37481(17)
C11 C 0.19429(16) -0.0885(3) 0.41037(17)
H7 H 0.1809 -0.0958 0.4498
C12 C 0.21801(18) -0.1811(3) 0.3891(2)
H8 H 0.2211 -0.2515 0.4142
C13 C 0.23741(17) -0.1723(3) 0.33147(19)
H9 H 0.2545 -0.2360 0.3176
C14 C 0.23172(16) -0.0698(3) 0.29409(18)
H10 H 0.2444 -0.0636 0.2539
C15 C 0.20763(16) 0.0236(3) 0.31507(18)
H11 H 0.2033 0.0933 0.2886
C16 C 0.17156(17) 0.4301(3) 0.37781(18)
H12 H 0.1259 0.4739 0.3475
H13 H 0.1869 0.4137 0.3394
H14 H 0.2103 0.4730 0.4266
Cu1D Cu -0.005696(18) -0.02599(3) 0.664388(19)
Cu1A Cu -0.005696(18) 0.02599(3) 0.164388(19)
Cu2D Cu -0.113662(18) -0.19338(3) 0.49895(2)
N1D N 0.0000 -0.1293(3) 0.7500
N4D N 0.0000 0.0771(3) 0.7500
N7D N -0.01699(13) 0.0840(2) 0.58009(14)
N8D N -0.05048(14) 0.1728(2) 0.56141(15)
N9D N -0.07960(17) 0.2575(3) 0.5447(2)
N10D N 0.02185(14) -0.1398(2) 0.60643(14)
N11D N 0.06741(17) -0.1968(2) 0.64404(18)
N12D N 0.11867(17) -0.2603(2) 0.68454(18)
N13D N -0.10429(13) -0.0625(2) 0.43752(14)
N14D N -0.15233(14) 0.0087(2) 0.41109(15)
N15D N -0.19760(14) 0.0747(2) 0.38458(17)
N16D N -0.12905(12) -0.3236(2) 0.54810(14)
N17D N -0.10451(13) -0.3070(2) 0.42997(15)
O1D O -0.13404(10) -0.08992(17) 0.55967(12)
C1D C -0.16699(14) -0.1148(3) 0.59760(16)
C2D C -0.17949(15) -0.2222(3) 0.61288(16)
H1D H -0.2046 -0.2298 0.6403
C3D C -0.15866(15) -0.3228(3) 0.59181(16)
C4D C -0.10875(17) -0.4291(3) 0.52882(18)
H2D H -0.1020 -0.4977 0.5576
C5D C -0.10000(15) -0.4136(3) 0.45638(17)
C6D C -0.09090(17) -0.5023(3) 0.41653(19)
H3D H -0.0866 -0.5765 0.4367
C7D C -0.08810(18) -0.4814(3) 0.3466(2)
H4D H -0.0807 -0.5412 0.3192
C8D C -0.09608(18) -0.3733(3) 0.3171(2)
H5D H -0.0965 -0.3580 0.2677
C9D C -0.10343(17) -0.2879(3) 0.36055(18)
H6D H -0.1079 -0.2132 0.3411
C10D C -0.18961(15) -0.0163(3) 0.62519(17)
C11D C -0.19429(16) 0.0885(3) 0.58963(17)
H7D H -0.1809 0.0958 0.5502
C12D C -0.21801(18) 0.1811(3) 0.6109(2)
H8D H -0.2211 0.2515 0.5858
C13D C -0.23741(17) 0.1723(3) 0.66853(19)
H9D H -0.2545 0.2360 0.6824
C14D C -0.23172(16) 0.0698(3) 0.70591(18)
H10D H -0.2444 0.0636 0.7461
C15D C -0.20763(16) -0.0236(3) 0.68493(18)
H11D H -0.2033 -0.0933 0.7114
C16D C -0.17156(17) -0.4301(3) 0.62219(18)
H12D H -0.1259 -0.4739 0.6525
H13D H -0.1869 -0.4137 0.6606
H14D H -0.2103 -0.4730 0.5734
loop_
_geom_bond_atom_site_label_1
_geom_bond_atom_site_label_2
_geom_bond_site_symmetry_1
_geom_bond_site_symmetry_2
Cu1 N1 1_555 1_555
Cu2 N13 1_555 1_555
Cu3 N7 1_555 1_555
N1 N2 1_555 1_555
N2 N3 1_555 1_555
N4 Cu1 1_555 1_555
N5 N4 1_555 1_555
N6 N5 1_555 1_555
N7 Cu1 1_555 1_555
N8 N7 1_555 1_555
N9 N8 1_555 1_555
N10 Cu1 1_555 1_555
N11 N10 1_555 1_555
N12 N11 1_555 1_555
N13 Cu3 1_555 1_555
N14 N13 1_555 1_555
N15 N14 1_555 1_555
N16 Cu2 1_555 1_555
N17 Cu2 1_555 1_555
O1 Cu2 1_555 1_555
C1 O1 1_555 1_555
C2 C1 1_555 1_555
H1 C2 1_555 1_555
C3 N16 1_555 1_555
C4 N16 1_555 1_555
H2 C4 1_555 1_555
C5 N17 1_555 1_555
C6 C5 1_555 1_555
H3 C6 1_555 1_555
C7 C6 1_555 1_555
H4 C7 1_555 1_555
C8 C7 1_555 1_555
H5 C8 1_555 1_555
C9 N17 1_555 1_555
H6 C9 1_555 1_555
C10 C1 1_555 1_555
C11 C10 1_555 1_555
H7 C11 1_555 1_555
C12 C11 1_555 1_555
H8 C12 1_555 1_555
C13 C12 1_555 1_555
H9 C13 1_555 1_555
C14 C13 1_555 1_555
H10 C14 1_555 1_555
C15 C10 1_555 1_555
H11 C15 1_555 1_555
C16 C3 1_555 1_555
H12 C16 1_555 1_555
H13 C16 1_555 1_555
H14 C16 1_555 1_555
Cu1D N1D 1_555 1_555
Cu1A N1 1_555 1_555
Cu2D N13D 1_555 1_555
N4D Cu1D 1_555 1_555
N7D Cu3 1_555 1_555
N8D N7D 1_555 1_555
N9D N8D 1_555 1_555
N10D Cu3 1_555 1_555
N11D N10D 1_555 1_555
N12D N11D 1_555 1_555
N13D Cu3 1_555 1_555
N14D N13D 1_555 1_555
N15D N14D 1_555 1_555
N16D Cu2D 1_555 1_555
N17D Cu2D 1_555 1_555
O1D Cu2D 1_555 1_555
C1D O1D 1_555 1_555
C2D C1D 1_555 1_555
H1D C2D 1_555 1_555
C3D N16D 1_555 1_555
C4D N16D 1_555 1_555
H2D C4D 1_555 1_555
C5D N17D 1_555 1_555
C6D C5D 1_555 1_555
H3D C6D 1_555 1_555
C7D C6D 1_555 1_555
H4D C7D 1_555 1_555
C8D C7D 1_555 1_555
H5D C8D 1_555 1_555
C9D N17D 1_555 1_555
H6D C9D 1_555 1_555
C10D C1D 1_555 1_555
C11D C10D 1_555 1_555
H7D C11D 1_555 1_555
C12D C11D 1_555 1_555
H8D C12D 1_555 1_555
C13D C12D 1_555 1_555
H9D C13D 1_555 1_555
C14D C13D 1_555 1_555
H10D C14D 1_555 1_555
C15D C10D 1_555 1_555
H11D C15D 1_555 1_555
C16D C3D 1_555 1_555
H12D C16D 1_555 1_555
H13D C16D 1_555 1_555
H14D C16D 1_555 1_555
Cu3 N10 1_555 1_555
N4 Cu1A 1_555 1_555
C2 C3 1_555 1_555
C4 C5 1_555 1_555
C8 C9 1_555 1_555
C14 C15 1_555 1_555
Cu1D N7D 1_555 1_555
Cu1D N10D 1_555 1_555
C2D C3D 1_555 1_555
C4D C5D 1_555 1_555
C8D C9D 1_555 1_555
C14D C15D 1_555 1_555

#END
