
#######################################################################
#
#                 Cambridge Crystallographic Data Centre
#                                CCDC 
#
#######################################################################
#
# If this CIF has been generated from an entry in the Cambridge 
# Structural Database, then it will include bibliographic, chemical, 
# crystal, experimental, refinement or atomic coordinate data resulting 
# from the CCDC's data processing and validation procedures.
#
#######################################################################

data_IWAWUZ
_symmetry_cell_setting           orthorhombic
_symmetry_space_group_name_H-M   'P n m a'
_symmetry_Int_Tables_number      62
_space_group_name_Hall           '-P 2ac 2n'
loop_
_symmetry_equiv_pos_site_id
_symmetry_equiv_pos_as_xyz
1 x,y,z
2 1/2-x,-y,1/2+z
3 -x,1/2+y,-z
4 1/2+x,1/2-y,1/2-z
5 -x,-y,-z
6 1/2+x,y,1/2-z
7 x,1/2-y,z
8 1/2-x,1/2+y,1/2+z
_cell_length_a                   9.3585(2)
_cell_length_b                   14.5643(4)
_cell_length_c                   18.3849(4)
_cell_angle_alpha                90
_cell_angle_beta                 90
_cell_angle_gamma                90
_cell_volume                     2505.86
loop_
_atom_site_label
_atom_site_type_symbol
_atom_site_fract_x
_atom_site_fract_y
_atom_site_fract_z
Cu1 Cu 0.49353(3) 0.25000 0.809312(14)
Cu2 Cu 0.58720(3) 0.25000 0.566330(15)
N1 N 0.49551(14) 0.11141(9) 0.81324(7)
C1 C 0.60127(17) 0.06646(11) 0.84771(9)
H1 H 0.6752 0.1012 0.87
C2 C 0.60663(18) -0.02810(11) 0.85202(9)
H2 H 0.6824 -0.0577 0.8772
C3 C 0.49966(19) -0.07926(12) 0.81909(9)
H3 H 0.5016 -0.1444 0.8205
C4 C 0.38997(19) -0.03325(12) 0.78411(9)
H4 H 0.3146 -0.0664 0.7616
C5 C 0.39158(18) 0.06145(11) 0.78232(9)
H5 H 0.316 0.0925 0.7582
N2 N 0.61762(14) 0.11174(9) 0.57009(7)
C6 C 0.52050(19) 0.05755(12) 0.60215(9)
H6 H 0.4387 0.0851 0.6236
C7 C 0.5347(2) -0.03685(12) 0.60526(9)
H7 H 0.4638 -0.0732 0.6284
C8 C 0.6530(2) -0.07751(12) 0.57435(9)
H8 H 0.6644 -0.1423 0.5753
C9 C 0.7549(2) -0.02193(12) 0.54188(9)
H9 H 0.838 -0.048 0.5206
C10 C 0.73395(19) 0.07204(12) 0.54094(9)
H10 H 0.8043 0.1099 0.5189
N3 N 0.3524(2) 0.25000 0.55116(10)
C11 C 0.2300(3) 0.25000 0.54110(12)
S1 S 0.05606(7) 0.25000 0.52695(4)
N4 N 0.6463(2) 0.25000 0.46337(11)
C12 C 0.6654(3) 0.25000 0.40077(13)
S2 S 0.69258(7) 0.25000 0.31299(3)
C13 C 0.6831(2) 0.25000 0.70363(12)
O1 O 0.69246(16) 0.25000 0.77394(8)
O2 O 0.55933(16) 0.25000 0.67348(8)
O3 O 0.79494(16) 0.25000 0.66283(8)
Cu1C Cu 0.99353(3) 0.25000 0.690688(14)
N1F N 0.49551(14) 0.38859(9) 0.81324(7)
C1F C 0.60127(17) 0.43354(11) 0.84771(9)
H1F H 0.6752 0.3988 0.87
C2F C 0.60663(18) 0.52810(11) 0.85202(9)
H2F H 0.6824 0.5577 0.8772
C3F C 0.49966(19) 0.57926(12) 0.81909(9)
H3F H 0.5016 0.6444 0.8205
C4F C 0.38997(19) 0.53325(12) 0.78411(9)
H4F H 0.3146 0.5664 0.7616
C5F C 0.39158(18) 0.43855(11) 0.78232(9)
H5F H 0.316 0.4075 0.7582
N2F N 0.61762(14) 0.38826(9) 0.57009(7)
C6F C 0.52050(19) 0.44245(12) 0.60215(9)
H6F H 0.4387 0.4149 0.6236
C7F C 0.5347(2) 0.53685(12) 0.60526(9)
H7F H 0.4638 0.5732 0.6284
C8F C 0.6530(2) 0.57751(12) 0.57435(9)
H8F H 0.6644 0.6423 0.5753
C9F C 0.7549(2) 0.52193(12) 0.54188(9)
H9F H 0.838 0.548 0.5206
C10F C 0.73395(19) 0.42796(12) 0.54094(9)
H10F H 0.8043 0.3901 0.5189
O3C O 0.29494(16) 0.25000 0.83717(8)
loop_
_geom_bond_atom_site_label_1
_geom_bond_atom_site_label_2
_geom_bond_site_symmetry_1
_geom_bond_site_symmetry_2
Cu1 N1 1_555 1_555
Cu2 N2 1_555 1_555
N1 C1 1_555 1_555
C1 H1 1_555 1_555
C2 C1 1_555 1_555
H2 C2 1_555 1_555
C3 C2 1_555 1_555
H3 C3 1_555 1_555
C4 C3 1_555 1_555
H4 C4 1_555 1_555
C5 N1 1_555 1_555
H5 C5 1_555 1_555
N2 C6 1_555 1_555
C6 H6 1_555 1_555
C7 C6 1_555 1_555
H7 C7 1_555 1_555
C8 C7 1_555 1_555
H8 C8 1_555 1_555
C9 C8 1_555 1_555
H9 C9 1_555 1_555
C10 N2 1_555 1_555
H10 C10 1_555 1_555
N3 Cu2 1_555 1_555
C11 N3 1_555 1_555
S1 C11 1_555 1_555
N4 Cu2 1_555 1_555
C12 N4 1_555 1_555
S2 C12 1_555 1_555
C13 O1 1_555 1_555
O1 Cu1 1_555 1_555
O2 Cu2 1_555 1_555
O3 C13 1_555 1_555
Cu1C O3 1_555 1_555
N1F Cu1 1_555 1_555
C1F N1F 1_555 1_555
H1F C1F 1_555 1_555
C2F C1F 1_555 1_555
H2F C2F 1_555 1_555
C3F C2F 1_555 1_555
H3F C3F 1_555 1_555
C4F C3F 1_555 1_555
H4F C4F 1_555 1_555
C5F N1F 1_555 1_555
H5F C5F 1_555 1_555
N2F Cu2 1_555 1_555
C6F N2F 1_555 1_555
H6F C6F 1_555 1_555
C7F C6F 1_555 1_555
H7F C7F 1_555 1_555
C8F C7F 1_555 1_555
H8F C8F 1_555 1_555
C9F C8F 1_555 1_555
H9F C9F 1_555 1_555
C10F N2F 1_555 1_555
H10F C10F 1_555 1_555
O3C Cu1 1_555 1_555
C4 C5 1_555 1_555
C9 C10 1_555 1_555
C13 O2 1_555 1_555
C4F C5F 1_555 1_555
C9F C10F 1_555 1_555

#END
