
#######################################################################
#
#                 Cambridge Crystallographic Data Centre
#                                CCDC 
#
#######################################################################
#
# If this CIF has been generated from an entry in the Cambridge 
# Structural Database, then it will include bibliographic, chemical, 
# crystal, experimental, refinement or atomic coordinate data resulting 
# from the CCDC's data processing and validation procedures.
#
#######################################################################

data_IWAXUA
_symmetry_cell_setting           triclinic
_symmetry_space_group_name_H-M   'P 1'
_symmetry_Int_Tables_number      1
_space_group_name_Hall           'P 1'
loop_
_symmetry_equiv_pos_site_id
_symmetry_equiv_pos_as_xyz
1 x,y,z
_cell_length_a                   6.2705(9)
_cell_length_b                   11.9708(16)
_cell_length_c                   12.8551(17)
_cell_angle_alpha                109.291(2)
_cell_angle_beta                 101.464(2)
_cell_angle_gamma                96.621(2)
_cell_volume                     875.346
loop_
_atom_site_label
_atom_site_type_symbol
_atom_site_fract_x
_atom_site_fract_y
_atom_site_fract_z
Cd1 Cd -0.17792(11) 0.40681(7) -0.55858(6)
Br1 Br 0.2774(3) -0.17173(13) -0.32633(12)
Br2 Br 0.3552(3) 1.00525(15) -0.76140(16)
O1 O -0.2347(15) 0.2369(8) -0.4949(8)
O2 O 0.0824(12) 0.2756(6) -0.5416(6)
O3 O 0.1254(12) 0.5227(7) -0.5971(6)
O4 O -0.1951(14) 0.5817(8) -0.6105(7)
O5 O -0.5378(10) 0.4127(8) -0.5440(6)
N1 N -0.2953(17) 0.2889(9) -0.7483(8)
N2 N -0.0691(17) -0.4611(9) -1.3696(8)
N3 N -0.111(2) -0.3321(10) -1.2101(9)
N4 N -0.274(2) 0.1539(10) -0.9125(8)
C1 C -0.470(2) 0.2838(11) -0.8356(10)
C2 C 0.104(2) -0.4587(11) -1.2786(9)
C3 C -0.636(2) 0.3517(12) -0.8315(11)
H1 H -0.6498 0.4041 -0.7623
C4 C 0.273(3) -0.5199(12) -1.2767(11)
H2 H 0.2905 -0.5735 -1.3442
C5 C -0.190(2) -0.3872(12) -1.3250(10)
H3 H -0.3161 -0.3733 -1.3668
C6 C -0.455(2) 0.2022(11) -0.9389(10)
C7 C 0.421(2) -0.5022(12) -1.1728(10)
C8 C -0.189(2) 0.2087(13) -0.8003(12)
H4 H -0.0635 0.1911 -0.7617
C9 C -0.781(2) 0.3395(11) -0.9324(9)
C10 C 0.593(3) -0.5752(14) -1.1736(12)
H5 H 0.5850 -0.6246 -1.2506
H6 H 0.5696 -0.6258 -1.1308
H7 H 0.7359 -0.5231 -1.1398
C11 C 0.220(2) -0.3573(12) -1.0765(10)
H8 H 0.2037 -0.3010 -1.0101
C12 C 0.385(2) -0.4206(12) -1.0709(10)
C13 C -0.771(2) 0.2552(11) -1.0383(10)
C14 C 0.0366(16) 0.1201(9) -0.4643(7)
C15 C 0.331(2) 0.0346(13) -0.3898(10)
H9 H 0.4811 0.0377 -0.3628
C16 C -0.0448(17) 0.2172(9) -0.5050(8)
C17 C -0.606(3) 0.1913(12) -1.0409(11)
H10 H -0.5912 0.1401 -1.1103
C18 C 0.548(4) -0.4038(18) -0.9568(14)
H11 H 0.5177 -0.3406 -0.8960
H12 H 0.6976 -0.3828 -0.9613
H13 H 0.5302 -0.4777 -0.9426
C19 C -0.1134(17) 0.0312(9) -0.4565(8)
H14 H -0.2646 0.0295 -0.4787
C20 C 0.2645(18) 0.1200(10) -0.4346(9)
H15 H 0.3680 0.1753 -0.4446
C21 C 0.1807(18) -0.0524(10) -0.3850(8)
C22 C -0.0433(19) -0.0543(10) -0.4167(9)
H16 H -0.1458 -0.1133 -0.4110
C23 C -0.964(2) 0.4151(14) -0.9294(10)
H17 H -0.9508 0.4667 -0.8522
H18 H -1.1072 0.3622 -0.9590
H19 H -0.9496 0.4634 -0.9750
C24 C 0.080(2) -0.3752(12) -1.1777(9)
C25 C 0.3195(19) 0.7255(10) -0.6444(10)
H20 H 0.4222 0.6861 -0.6157
C26 C -0.0473(17) 0.7539(10) -0.6970(8)
H21 H -0.1985 0.7332 -0.7040
C27 C 0.0945(15) 0.6903(8) -0.6546(8)
C28 C -0.259(5) -0.0466(19) -1.0168(16)
H22 H -0.4140 -0.0639 -1.0575
H23 H -0.2482 -0.0665 -0.9489
C29 C -0.214(3) -0.2467(14) -1.1329(14)
H24 H -0.3691 -0.2576 -1.1706
H25 H -0.2078 -0.2670 -1.0654
C30 C -0.114(3) -0.1232(12) -1.0983(13)
H26 H -0.1189 -0.0999 -1.1640
H27 H 0.0392 -0.1085 -1.0563
C31 C -0.166(3) 0.0732(16) -0.9888(13)
H28 H -0.1799 0.0912 -1.0578
H29 H -0.0096 0.0874 -0.9522
C32 C 0.0038(19) 0.5935(9) -0.6177(8)
C33 C 0.388(2) 0.8185(13) -0.6769(13)
H30 H 0.5392 0.8413 -0.6693
C34 C 0.248(2) 0.8782(10) -0.7195(9)
C35 C 0.028(2) 0.8471(11) -0.7294(10)
H31 H -0.0719 0.8883 -0.7577
C36 C -0.927(3) 0.2446(14) -1.1483(11)
H32 H -0.8948 0.1842 -1.2107
H33 H -0.9074 0.3208 -1.1583
H34 H -1.0772 0.2221 -1.1459
H35 H -0.650(7) 0.441(5) -0.567(5)
H36 H -0.616(17) 0.350(6) -0.542(10)
Cd1_2 Cd -0.17792(11) -0.59319(7) -1.55858(6)
N2_2 N -0.0691(17) 0.5389(9) -0.3696(8)
loop_
_geom_bond_atom_site_label_1
_geom_bond_atom_site_label_2
_geom_bond_site_symmetry_1
_geom_bond_site_symmetry_2
Cd1 O1 1_555 1_555
Br1 C21 1_555 1_555
Br2 C34 1_555 1_555
O1 C16 1_555 1_555
O2 Cd1 1_555 1_555
O3 Cd1 1_555 1_555
O4 Cd1 1_555 1_555
O5 Cd1 1_555 1_555
N1 Cd1 1_555 1_555
N2 C2 1_555 1_555
N3 C5 1_555 1_555
N4 C6 1_555 1_555
C1 N1 1_555 1_555
C2 C4 1_555 1_555
C3 C1 1_555 1_555
H1 C3 1_555 1_555
C4 H2 1_555 1_555
C5 N2 1_555 1_555
H3 C5 1_555 1_555
C6 C1 1_555 1_555
C7 C4 1_555 1_555
C8 N1 1_555 1_555
H4 C8 1_555 1_555
C9 C3 1_555 1_555
C10 C7 1_555 1_555
H5 C10 1_555 1_555
H6 C10 1_555 1_555
H7 C10 1_555 1_555
C11 H8 1_555 1_555
C12 C7 1_555 1_555
C13 C9 1_555 1_555
C14 C16 1_555 1_555
C15 H9 1_555 1_555
C16 O2 1_555 1_555
C17 C6 1_555 1_555
H10 C17 1_555 1_555
C18 C12 1_555 1_555
H11 C18 1_555 1_555
H12 C18 1_555 1_555
H13 C18 1_555 1_555
C19 C14 1_555 1_555
H14 C19 1_555 1_555
C20 C14 1_555 1_555
H15 C20 1_555 1_555
C21 C15 1_555 1_555
C22 C19 1_555 1_555
H16 C22 1_555 1_555
C23 C9 1_555 1_555
H17 C23 1_555 1_555
H18 C23 1_555 1_555
H19 C23 1_555 1_555
C24 N3 1_555 1_555
C25 H20 1_555 1_555
C26 H21 1_555 1_555
C27 C25 1_555 1_555
C28 H22 1_555 1_555
H23 C28 1_555 1_555
C29 N3 1_555 1_555
H24 C29 1_555 1_555
H25 C29 1_555 1_555
C30 C28 1_555 1_555
H26 C30 1_555 1_555
H27 C30 1_555 1_555
C31 N4 1_555 1_555
H28 C31 1_555 1_555
H29 C31 1_555 1_555
C32 O3 1_555 1_555
C33 C25 1_555 1_555
H30 C33 1_555 1_555
C34 C33 1_555 1_555
C35 C26 1_555 1_555
H31 C35 1_555 1_555
C36 C13 1_555 1_555
H32 C36 1_555 1_555
H33 C36 1_555 1_555
H34 C36 1_555 1_555
H35 O5 1_555 1_555
H36 O5 1_555 1_555
Cd1_2 N2 1_555 1_555
N2_2 Cd1 1_555 1_555
O4 C32 1_555 1_555
N4 C8 1_555 1_555
C2 C24 1_555 1_555
C11 C12 1_555 1_555
C11 C24 1_555 1_555
C13 C17 1_555 1_555
C15 C20 1_555 1_555
C21 C22 1_555 1_555
C26 C27 1_555 1_555
C27 C32 1_555 1_555
C28 C31 1_555 1_555
C29 C30 1_555 1_555
C34 C35 1_555 1_555

#END
