
#######################################################################
#
#                 Cambridge Crystallographic Data Centre
#                                CCDC 
#
#######################################################################
#
# If this CIF has been generated from an entry in the Cambridge 
# Structural Database, then it will include bibliographic, chemical, 
# crystal, experimental, refinement or atomic coordinate data resulting 
# from the CCDC's data processing and validation procedures.
#
#######################################################################

data_IWAYAH
_symmetry_cell_setting           monoclinic
_symmetry_space_group_name_H-M   'P 21/n'
_symmetry_Int_Tables_number      14
_space_group_name_Hall           '-P 2yn'
loop_
_symmetry_equiv_pos_site_id
_symmetry_equiv_pos_as_xyz
1 x,y,z
2 1/2-x,1/2+y,1/2-z
3 -x,-y,-z
4 1/2+x,1/2-y,1/2+z
_cell_length_a                   9.174(5)
_cell_length_b                   14.072(5)
_cell_length_c                   17.537(5)
_cell_angle_alpha                90
_cell_angle_beta                 96.689(5)
_cell_angle_gamma                90
_cell_volume                     2248.56
loop_
_atom_site_label
_atom_site_type_symbol
_atom_site_fract_x
_atom_site_fract_y
_atom_site_fract_z
Cd1 Cd -0.302698(14) 0.602070(10) 0.791937(7)
Cl1 Cl -0.33511(7) 0.72059(5) 0.88709(4)
Cl2 Cl -0.51950(6) 0.51601(5) 0.73643(3)
C1 C 0.69440(19) 0.12941(13) 0.87557(10)
C2 C 0.3108(2) 0.31212(14) 0.88802(11)
H1 H 0.2581 0.3595 0.9142
H2 H 0.3030 0.2521 0.9145
N1 N 0.56555(16) 0.26292(11) 0.87172(8)
N2 N -0.01223(16) 0.35381(12) 0.83120(9)
N3 N -0.14934(18) 0.48406(12) 0.83396(9)
C3 C 0.7604(2) 0.04728(13) 0.90799(11)
H3 H 0.8173 0.0089 0.8800
C4 C 0.61048(18) 0.18627(12) 0.91835(10)
C5 C -0.14281(19) 0.43926(13) 0.90533(11)
N4 N 0.69959(16) 0.17135(11) 0.80373(8)
C6 C -0.2096(2) 0.46185(14) 0.97020(11)
H4 H -0.2668 0.5163 0.9713
C7 C -0.0710(2) 0.42988(15) 0.79259(11)
H5 H -0.0578 0.4430 0.7419
C8 C 0.7396(2) 0.02399(13) 0.98242(11)
C9 C -0.0989(2) 0.32052(14) 1.03200(11)
C10 C -0.0330(2) 0.29811(14) 0.96760(11)
H6 H 0.0260 0.2445 0.9666
C11 C 0.0755(2) 0.27897(15) 0.79999(12)
H7 H 0.0393 0.2690 0.7464
H8 H 0.0623 0.2201 0.8272
C12 C 0.6221(2) 0.25011(13) 0.80505(10)
H9 H 0.6079 0.2924 0.7641
C13 C 0.2389(2) 0.30224(16) 0.80638(11)
H10 H 0.2517 0.3612 0.7792
H11 H 0.2886 0.2525 0.7812
C14 C 0.58676(19) 0.16341(14) 0.99302(10)
H12 H 0.5293 0.2019 1.0206
C15 C 0.6513(2) 0.08174(14) 1.02480(11)
C16 C 0.4717(2) 0.34047(13) 0.89330(11)
H13 H 0.4816 0.3944 0.8598
H14 H 0.5048 0.3601 0.9455
C17 C -0.1895(2) 0.40207(14) 1.03292(12)
C18 C 0.6276(2) 0.05523(17) 1.10583(11)
H15 H 0.5653 0.1016 1.1258
H16 H 0.7204 0.0534 1.1374
H17 H 0.5819 -0.0061 1.1058
C19 C -0.0743(3) 0.25770(18) 1.10181(13)
H18 H -0.0099 0.2064 1.0920
H19 H -0.1665 0.2324 1.1131
H20 H -0.0307 0.2942 1.1448
C20 C -0.05696(19) 0.35780(13) 0.90405(11)
C21 C 0.8117(3) -0.06428(16) 1.01810(14)
H21 H 0.8673 -0.0947 0.9819
H22 H 0.7378 -0.1071 1.0320
H23 H 0.8760 -0.0472 1.0632
C22 C -0.2669(3) 0.42256(18) 1.10265(14)
H24 H -0.3243 0.4794 1.0941
H25 H -0.1955 0.4310 1.1467
H26 H -0.3300 0.3703 1.1115
Cd1A Cd 0.802698(14) 0.102070(10) 0.708063(7)
N4A N -0.19959(16) 0.67135(11) 0.69627(8)
loop_
_geom_bond_atom_site_label_1
_geom_bond_atom_site_label_2
_geom_bond_site_symmetry_1
_geom_bond_site_symmetry_2
Cd1 Cl1 1_555 1_555
Cl2 Cd1 1_555 1_555
C1 C3 1_555 1_555
C2 H1 1_555 1_555
H2 C2 1_555 1_555
N1 C4 1_555 1_555
N2 C7 1_555 1_555
N3 Cd1 1_555 1_555
C3 H3 1_555 1_555
C4 C1 1_555 1_555
C5 N3 1_555 1_555
N4 C1 1_555 1_555
C6 C5 1_555 1_555
H4 C6 1_555 1_555
C7 N3 1_555 1_555
H5 C7 1_555 1_555
C8 C3 1_555 1_555
C9 C10 1_555 1_555
C10 H6 1_555 1_555
C11 N2 1_555 1_555
H7 C11 1_555 1_555
H8 C11 1_555 1_555
C12 N1 1_555 1_555
H9 C12 1_555 1_555
C13 C2 1_555 1_555
H10 C13 1_555 1_555
H11 C13 1_555 1_555
C14 C4 1_555 1_555
H12 C14 1_555 1_555
C15 C8 1_555 1_555
C16 C2 1_555 1_555
H13 C16 1_555 1_555
H14 C16 1_555 1_555
C17 C6 1_555 1_555
C18 C15 1_555 1_555
H15 C18 1_555 1_555
H16 C18 1_555 1_555
H17 C18 1_555 1_555
C19 C9 1_555 1_555
H18 C19 1_555 1_555
H19 C19 1_555 1_555
H20 C19 1_555 1_555
C20 N2 1_555 1_555
C21 C8 1_555 1_555
H21 C21 1_555 1_555
H22 C21 1_555 1_555
H23 C21 1_555 1_555
C22 C17 1_555 1_555
H24 C22 1_555 1_555
H25 C22 1_555 1_555
H26 C22 1_555 1_555
Cd1A N4 1_555 1_555
N4A Cd1 1_555 1_555
N1 C16 1_555 1_555
C5 C20 1_555 1_555
N4 C12 1_555 1_555
C9 C17 1_555 1_555
C10 C20 1_555 1_555
C11 C13 1_555 1_555
C14 C15 1_555 1_555

#END
