
#######################################################################
#
#                 Cambridge Crystallographic Data Centre
#                                CCDC 
#
#######################################################################
#
# If this CIF has been generated from an entry in the Cambridge 
# Structural Database, then it will include bibliographic, chemical, 
# crystal, experimental, refinement or atomic coordinate data resulting 
# from the CCDC's data processing and validation procedures.
#
#######################################################################

data_IWEDIY
_symmetry_cell_setting           orthorhombic
_symmetry_space_group_name_H-M   'C 2 2 21'
_symmetry_Int_Tables_number      20
_space_group_name_Hall           'C 2n 2'
loop_
_symmetry_equiv_pos_site_id
_symmetry_equiv_pos_as_xyz
1 x,y,z
2 -x,-y,1/2+z
3 -x,y,1/2-z
4 x,-y,-z
5 1/2+x,1/2+y,z
6 1/2-x,1/2-y,1/2+z
7 1/2-x,1/2+y,1/2-z
8 1/2+x,1/2-y,-z
_cell_length_a                   11.188(3)
_cell_length_b                   35.056(10)
_cell_length_c                   16.275(5)
_cell_angle_alpha                90
_cell_angle_beta                 90
_cell_angle_gamma                90
_cell_volume                     6383.16
loop_
_atom_site_label
_atom_site_type_symbol
_atom_site_fract_x
_atom_site_fract_y
_atom_site_fract_z
Ca1 Ca 0.0000 0.88358(4) 0.2500
K1 K 0.0959(2) 1.0000 0.5000
K2 K 0.0000 0.76733(8) 0.2500
N1 N 0.0206(4) 0.90639(13) 0.3833(3)
N2 N -0.1373(4) 0.84715(13) 0.3210(3)
C1 C -0.1786(5) 0.87745(18) 0.3708(3)
C2 C -0.1051(5) 0.90524(18) 0.4007(3)
C3 C -0.0707(7) 0.7632(2) 0.4893(5)
H1 H -0.0074 0.7604 0.4499
H2 H -0.1149 0.7398 0.4930
H3 H -0.0373 0.7693 0.5421
C4 C -0.2623(5) 0.80436(16) 0.2413(4)
C5 C -0.2665(5) 0.83208(19) 0.1699(4)
H4 H -0.2371 0.8567 0.1901
C6 C -0.3139(5) 0.88049(18) 0.3812(4)
H5 H -0.3332 0.9042 0.4077
H6 H -0.3420 0.8596 0.4141
H7 H -0.3516 0.8796 0.3282
C7 C -0.2111(6) 0.7871(2) 0.3806(4)
C8 C -0.1859(6) 0.8200(2) 0.1000(4)
H8 H -0.2095 0.7953 0.0808
H9 H -0.1046 0.8191 0.1188
H10 H -0.1924 0.8381 0.0559
C9 C -0.3943(6) 0.8384(2) 0.1382(5)
H11 H -0.4251 0.8149 0.1167
H12 H -0.3935 0.8573 0.0956
H13 H -0.4442 0.8469 0.1826
C10 C -0.2046(5) 0.81362(17) 0.3147(4)
C11 C -0.1541(7) 0.7954(2) 0.4622(4)
H14 H -0.1066 0.8187 0.4568
C12 C -0.1551(6) 0.94218(18) 0.4372(4)
H15 H -0.2312 0.9371 0.4623
H16 H -0.1649 0.9607 0.3943
H17 H -0.1008 0.9518 0.4778
C13 C -0.2500(7) 0.8021(3) 0.5302(4)
H18 H -0.2915 0.7787 0.5410
H19 H -0.3059 0.8211 0.5119
H20 H -0.2115 0.8107 0.5796
C14 C -0.3209(6) 0.7693(2) 0.2332(5)
H21 H -0.3573 0.7628 0.1838
C15 C -0.3244(8) 0.7445(2) 0.2983(6)
H22 H -0.3647 0.7215 0.2930
C16 C -0.2696(8) 0.7533(2) 0.3703(6)
H23 H -0.2720 0.7359 0.4134
C17 C 0.1027(6) 0.91664(16) 0.4414(4)
C18 C 0.0905(7) 0.91024(19) 0.5302(4)
C19 C 0.1847(8) 0.9228(2) 0.5807(5)
H24 H 0.1755 0.9199 0.6403
C20 C 0.2869(8) 0.9401(2) 0.5522(7)
H25 H 0.3519 0.9470 0.5899
C21 C 0.2259(6) 0.9427(2) 0.3223(5)
H26 H 0.1945 0.9208 0.2916
C22 C 0.1492(7) 0.9776(2) 0.2988(4)
H27 H 0.1594 0.9830 0.2414
H28 H 0.1739 0.9993 0.3306
H29 H 0.0666 0.9722 0.3097
C23 C 0.3005(7) 0.9437(2) 0.4682(6)
H30 H 0.3763 0.9537 0.4471
C24 C -0.0071(8) 0.8882(2) 0.5711(4)
H31 H -0.0645 0.8803 0.5290
C25 C 0.3588(7) 0.9479(3) 0.2963(5)
H32 H 0.4020 0.9247 0.3070
H33 H 0.3937 0.9684 0.3271
H34 H 0.3627 0.9537 0.2387
C26 C 0.2113(6) 0.93384(19) 0.4119(5)
C27 C 0.0457(7) 0.8521(2) 0.6115(4)
H35 H 0.0951 0.8594 0.6572
H36 H 0.0930 0.8385 0.5720
H37 H -0.0180 0.8361 0.6305
O1 O 0.0000 0.6899(4) 0.2500
C28 C -0.0751(8) 0.9117(3) 0.6372(5)
H38 H -0.1183 0.9320 0.6111
H39 H -0.0190 0.9221 0.6757
H40 H -0.1302 0.8953 0.6656
C29 C -0.070(3) 0.6386(7) 0.237(2)
C30 C -0.067(3) 0.6664(5) 0.311(2)
K1A K -0.0959(2) 1.0000 0.0000
N1B N -0.0206(4) 0.90639(13) 0.1167(3)
N2B N 0.1373(4) 0.84715(13) 0.1790(3)
C1B C 0.1786(5) 0.87745(18) 0.1292(3)
C2B C 0.1051(5) 0.90524(18) 0.0993(3)
C3B C 0.0707(7) 0.7632(2) 0.0107(5)
H1B H 0.0074 0.7604 0.0501
H2B H 0.1149 0.7398 0.0070
H3B H 0.0373 0.7693 -0.0421
C4B C 0.2623(5) 0.80436(16) 0.2587(4)
C5B C 0.2665(5) 0.83208(19) 0.3301(4)
H4B H 0.2371 0.8567 0.3099
C6B C 0.3139(5) 0.88049(18) 0.1188(4)
H5B H 0.3332 0.9042 0.0923
H6B H 0.3420 0.8596 0.0859
H7B H 0.3516 0.8796 0.1718
C7B C 0.2111(6) 0.7871(2) 0.1194(4)
C8B C 0.1859(6) 0.8200(2) 0.4000(4)
H8B H 0.2095 0.7953 0.4192
H9B H 0.1046 0.8191 0.3812
H10B H 0.1924 0.8381 0.4441
C9B C 0.3943(6) 0.8384(2) 0.3618(5)
H11B H 0.4251 0.8149 0.3833
H12B H 0.3935 0.8573 0.4044
H13B H 0.4442 0.8469 0.3174
C10B C 0.2046(5) 0.81362(17) 0.1853(4)
C11B C 0.1541(7) 0.7954(2) 0.0378(4)
H14B H 0.1066 0.8187 0.0432
C12B C 0.1551(6) 0.94218(18) 0.0628(4)
H15B H 0.2312 0.9371 0.0377
H16B H 0.1649 0.9607 0.1057
H17B H 0.1008 0.9518 0.0222
C13B C 0.2500(7) 0.8021(3) -0.0302(4)
H18B H 0.2915 0.7787 -0.0410
H19B H 0.3059 0.8211 -0.0119
H20B H 0.2115 0.8107 -0.0796
C14B C 0.3209(6) 0.7693(2) 0.2668(5)
H21B H 0.3573 0.7628 0.3162
C15B C 0.3244(8) 0.7445(2) 0.2017(6)
H22B H 0.3647 0.7215 0.2070
C16B C 0.2696(8) 0.7533(2) 0.1297(6)
H23B H 0.2720 0.7359 0.0866
C17B C -0.1027(6) 0.91664(16) 0.0586(4)
C17C C 0.1027(6) 1.08336(16) 0.5586(4)
C18B C -0.0905(7) 0.91024(19) -0.0302(4)
C18C C 0.0905(7) 1.08976(19) 0.4698(4)
C19B C -0.1847(8) 0.9228(2) -0.0807(5)
C19C C 0.1847(8) 1.0772(2) 0.4193(5)
H24B H -0.1755 0.9199 -0.1403
H24C H 0.1755 1.0801 0.3597
C20B C -0.2869(8) 0.9401(2) -0.0522(7)
C20C C 0.2869(8) 1.0599(2) 0.4478(7)
H25B H -0.3519 0.9470 -0.0899
H25C H 0.3519 1.0530 0.4101
C21B C -0.2259(6) 0.9427(2) 0.1777(5)
H26B H -0.1945 0.9208 0.2084
C22B C -0.1492(7) 0.9776(2) 0.2012(4)
H27B H -0.1594 0.9830 0.2586
H28B H -0.1739 0.9993 0.1694
H29B H -0.0666 0.9722 0.1903
C23B C -0.3005(7) 0.9437(2) 0.0318(6)
C23C C 0.3005(7) 1.0563(2) 0.5318(6)
H30B H -0.3763 0.9537 0.0529
H30C H 0.3763 1.0463 0.5529
C24B C 0.0071(8) 0.8882(2) -0.0711(4)
H31B H 0.0645 0.8803 -0.0290
C25B C -0.3588(7) 0.9479(3) 0.2037(5)
H32B H -0.4020 0.9247 0.1930
H33B H -0.3937 0.9684 0.1729
H34B H -0.3627 0.9537 0.2613
C26B C -0.2113(6) 0.93384(19) 0.0881(5)
C26C C 0.2113(6) 1.06616(19) 0.5881(5)
C27B C -0.0457(7) 0.8521(2) -0.1115(4)
H35B H -0.0951 0.8594 -0.1572
H36B H -0.0930 0.8385 -0.0720
H37B H 0.0180 0.8361 -0.1305
C28B C 0.0751(8) 0.9117(3) -0.1372(5)
H38B H 0.1183 0.9320 -0.1111
H39B H 0.0190 0.9221 -0.1757
H40B H 0.1302 0.8953 -0.1656
C29B C 0.070(3) 0.6386(7) 0.263(2)
C30B C 0.067(3) 0.6664(5) 0.189(2)
loop_
_geom_bond_atom_site_label_1
_geom_bond_atom_site_label_2
_geom_bond_site_symmetry_1
_geom_bond_site_symmetry_2
Ca1 N1 1_555 1_555
K1 C17 1_555 1_555
K2 C4 1_555 1_555
N1 C2 1_555 1_555
N2 Ca1 1_555 1_555
C1 Ca1 1_555 1_555
C2 Ca1 1_555 1_555
C3 H1 1_555 1_555
H2 C3 1_555 1_555
H3 C3 1_555 1_555
C4 C5 1_555 1_555
C5 H4 1_555 1_555
C6 C1 1_555 1_555
H5 C6 1_555 1_555
H6 C6 1_555 1_555
H7 C6 1_555 1_555
C7 K2 1_555 1_555
C8 C5 1_555 1_555
H8 C8 1_555 1_555
H9 C8 1_555 1_555
H10 C8 1_555 1_555
C9 C5 1_555 1_555
H11 C9 1_555 1_555
H12 C9 1_555 1_555
H13 C9 1_555 1_555
C10 K2 1_555 1_555
C11 C3 1_555 1_555
H14 C11 1_555 1_555
C12 C2 1_555 1_555
H15 C12 1_555 1_555
H16 C12 1_555 1_555
H17 C12 1_555 1_555
C13 C11 1_555 1_555
H18 C13 1_555 1_555
H19 C13 1_555 1_555
H20 C13 1_555 1_555
C14 C4 1_555 1_555
H21 C14 1_555 1_555
C15 C14 1_555 1_555
H22 C15 1_555 1_555
C16 C7 1_555 1_555
H23 C16 1_555 1_555
C17 N1 1_555 1_555
C18 K1 1_555 1_555
C19 K1 1_555 1_555
H24 C19 1_555 1_555
C20 K1 1_555 1_555
H25 C20 1_555 1_555
C21 H26 1_555 1_555
C22 C21 1_555 1_555
H27 C22 1_555 1_555
H28 C22 1_555 1_555
H29 C22 1_555 1_555
C23 K1 1_555 1_555
H30 C23 1_555 1_555
C24 C18 1_555 1_555
H31 C24 1_555 1_555
C25 C21 1_555 1_555
H32 C25 1_555 1_555
H33 C25 1_555 1_555
H34 C25 1_555 1_555
C26 K1 1_555 1_555
C27 C24 1_555 1_555
H35 C27 1_555 1_555
H36 C27 1_555 1_555
H37 C27 1_555 1_555
O1 K2 1_555 1_555
C28 C24 1_555 1_555
H38 C28 1_555 1_555
H39 C28 1_555 1_555
H40 C28 1_555 1_555
C29 C30 1_555 1_555
C30 O1 1_555 1_555
K1A C17B 1_555 1_555
N1B Ca1 1_555 1_555
N2B Ca1 1_555 1_555
C1B Ca1 1_555 1_555
C2B Ca1 1_555 1_555
C3B H1B 1_555 1_555
H2B C3B 1_555 1_555
H3B C3B 1_555 1_555
C4B K2 1_555 1_555
C5B C4B 1_555 1_555
H4B C5B 1_555 1_555
C6B C1B 1_555 1_555
H5B C6B 1_555 1_555
H6B C6B 1_555 1_555
H7B C6B 1_555 1_555
C7B K2 1_555 1_555
C8B C5B 1_555 1_555
H8B C8B 1_555 1_555
H9B C8B 1_555 1_555
H10B C8B 1_555 1_555
C9B C5B 1_555 1_555
H11B C9B 1_555 1_555
H12B C9B 1_555 1_555
H13B C9B 1_555 1_555
C10B K2 1_555 1_555
C11B C3B 1_555 1_555
H14B C11B 1_555 1_555
C12B C2B 1_555 1_555
H15B C12B 1_555 1_555
H16B C12B 1_555 1_555
H17B C12B 1_555 1_555
C13B C11B 1_555 1_555
H18B C13B 1_555 1_555
H19B C13B 1_555 1_555
H20B C13B 1_555 1_555
C14B C4B 1_555 1_555
H21B C14B 1_555 1_555
C15B C14B 1_555 1_555
H22B C15B 1_555 1_555
C16B C7B 1_555 1_555
H23B C16B 1_555 1_555
C17B N1B 1_555 1_555
C17C K1 1_555 1_555
C18B K1A 1_555 1_555
C18C K1 1_555 1_555
C19B K1A 1_555 1_555
C19C K1 1_555 1_555
H24B C19B 1_555 1_555
H24C C19C 1_555 1_555
C20B K1A 1_555 1_555
C20C K1 1_555 1_555
H25B C20B 1_555 1_555
H25C C20C 1_555 1_555
C21B H26B 1_555 1_555
C22B C21B 1_555 1_555
H27B C22B 1_555 1_555
H28B C22B 1_555 1_555
H29B C22B 1_555 1_555
C23B K1A 1_555 1_555
C23C K1 1_555 1_555
H30B C23B 1_555 1_555
H30C C23C 1_555 1_555
C24B C18B 1_555 1_555
H31B C24B 1_555 1_555
C25B C21B 1_555 1_555
H32B C25B 1_555 1_555
H33B C25B 1_555 1_555
H34B C25B 1_555 1_555
C26B K1A 1_555 1_555
C26C K1 1_555 1_555
C27B C24B 1_555 1_555
H35B C27B 1_555 1_555
H36B C27B 1_555 1_555
H37B C27B 1_555 1_555
C28B C24B 1_555 1_555
H38B C28B 1_555 1_555
H39B C28B 1_555 1_555
H40B C28B 1_555 1_555
C29B C29 1_555 1_555
C30B O1 1_555 1_555
N2 C1 1_555 1_555
N2 C10 1_555 1_555
C1 C2 1_555 1_555
C4 C10 1_555 1_555
C7 C10 1_555 1_555
C7 C11 1_555 1_555
C15 C16 1_555 1_555
C17 C18 1_555 1_555
C17 C26 1_555 1_555
C18 C19 1_555 1_555
C19 C20 1_555 1_555
C20 C23 1_555 1_555
C21 C26 1_555 1_555
C23 C26 1_555 1_555
N1B C2B 1_555 1_555
N2B C1B 1_555 1_555
N2B C10B 1_555 1_555
C1B C2B 1_555 1_555
C4B C10B 1_555 1_555
C7B C10B 1_555 1_555
C7B C11B 1_555 1_555
C15B C16B 1_555 1_555
C17B C18B 1_555 1_555
C17B C26B 1_555 1_555
C17C C18C 1_555 1_555
C17C C26C 1_555 1_555
C18B C19B 1_555 1_555
C18C C19C 1_555 1_555
C19B C20B 1_555 1_555
C19C C20C 1_555 1_555
C20B C23B 1_555 1_555
C20C C23C 1_555 1_555
C21B C26B 1_555 1_555
C23B C26B 1_555 1_555
C23C C26C 1_555 1_555
C29B C30B 1_555 1_555

#END
