
#######################################################################
#
#                 Cambridge Crystallographic Data Centre
#                                CCDC 
#
#######################################################################
#
# If this CIF has been generated from an entry in the Cambridge 
# Structural Database, then it will include bibliographic, chemical, 
# crystal, experimental, refinement or atomic coordinate data resulting 
# from the CCDC's data processing and validation procedures.
#
#######################################################################

data_IWEMUT
_symmetry_cell_setting           triclinic
_symmetry_space_group_name_H-M   'P -1'
_symmetry_Int_Tables_number      2
_space_group_name_Hall           '-P 1'
loop_
_symmetry_equiv_pos_site_id
_symmetry_equiv_pos_as_xyz
1 x,y,z
2 -x,-y,-z
_cell_length_a                   11.019(2)
_cell_length_b                   12.405(3)
_cell_length_c                   12.645(3)
_cell_angle_alpha                66.04(3)
_cell_angle_beta                 75.42(3)
_cell_angle_gamma                69.48(3)
_cell_volume                     1467.16
loop_
_atom_site_label
_atom_site_type_symbol
_atom_site_fract_x
_atom_site_fract_y
_atom_site_fract_z
Zn1 Zn 0.34445(5) 0.35850(4) 0.55488(4)
O1 O 0.3421(3) 0.5025(3) 0.4097(3)
O2 O 0.1561(7) 0.6242(4) 0.4557(5)
O3 O 0.4455(6) 0.6918(5) 0.4214(5)
O4 O 0.5848(5) 0.7140(10) 0.2753(7)
O5 O 0.1581(4) 0.4126(3) 0.6216(3)
H1 H 0.1234 0.4826 0.5802
N1 N 0.3493(3) 0.2115(3) 0.5210(3)
N2 N 0.3020(3) 0.0453(3) 0.5370(3)
C1 C 0.2540(5) 0.6034(4) 0.3902(4)
C2 C 0.2688(4) 0.7042(4) 0.2756(3)
C3 C 0.3727(4) 0.7530(4) 0.2377(4)
C4 C 0.3814(6) 0.8405(5) 0.1262(5)
H2 H 0.4515 0.8742 0.0994
C5 C 0.2881(10) 0.8772(6) 0.0562(5)
H3 H 0.2963 0.9342 -0.0189
C6 C 0.1828(8) 0.8315(6) 0.0947(6)
H4 H 0.1183 0.8587 0.0470
C7 C 0.1726(5) 0.7456(5) 0.2038(5)
H5 H 0.1007 0.7145 0.2304
C8 C 0.4756(5) 0.7145(7) 0.3186(8)
C9 C 0.2253(5) 0.1146(5) 0.7104(4)
H6 H 0.2643 0.1491 0.7443
H7 H 0.2335 0.0298 0.7575
H8 H 0.1345 0.1588 0.7068
C10 C 0.2930(4) 0.1241(4) 0.5903(3)
C11 C 0.3982(3) 0.1879(3) 0.4163(3)
C12 C 0.4676(4) 0.2501(4) 0.3152(3)
H9 H 0.4916 0.3177 0.3083
C13 C 0.4987(4) 0.2038(5) 0.2251(4)
H10 H 0.5449 0.2424 0.1556
C14 C 0.4642(5) 0.1033(5) 0.2343(4)
H11 H 0.4861 0.0774 0.1708
C15 C 0.3982(4) 0.0409(4) 0.3352(4)
H12 H 0.3759 -0.0277 0.3424
C16 C 0.3667(3) 0.0855(3) 0.4260(3)
C17 C 0.2467(4) -0.0589(4) 0.5817(4)
H13 H 0.2322 -0.0868 0.6663
H14 H 0.3088 -0.1261 0.5591
C18 C 0.1195(3) -0.0258(3) 0.5363(3)
C19 C 0.0963(4) -0.1070(3) 0.5008(4)
H15 H 0.1610 -0.1793 0.5008
C20 C 0.0220(4) 0.0825(4) 0.5347(4)
H16 H 0.0367 0.1386 0.5578
H28 H 0.145(7) 0.405(3) 0.6934(12)
Zn1A Zn -0.34445(5) -0.35850(4) 0.44512(4)
Zn1_2 Zn -0.65555(5) -0.64150(4) 0.55488(4)
Zn1A_2 Zn 0.65555(5) 0.64150(4) 0.44512(4)
O1A O -0.3421(3) -0.5025(3) 0.5903(3)
O2A O -0.1561(7) -0.6242(4) 0.5443(5)
O3A O -0.4455(6) -0.6918(5) 0.5786(5)
O3_2 O -0.5545(6) -0.3082(5) 0.4214(5)
O3A_2 O 0.5545(6) 0.3082(5) 0.5786(5)
O4A O -0.5848(5) -0.7140(10) 0.7247(7)
O4_2 O -0.4152(5) -0.2860(10) 0.2753(7)
O4A_2 O 0.4152(5) 0.2860(10) 0.7247(7)
O5A O -0.1581(4) -0.4126(3) 0.3784(3)
H1A H -0.1234 -0.4826 0.4198
N1A N -0.3493(3) -0.2115(3) 0.4790(3)
N2A N -0.3020(3) -0.0453(3) 0.4630(3)
C1A C -0.2540(5) -0.6034(4) 0.6098(4)
C2A C -0.2688(4) -0.7042(4) 0.7244(3)
C3A C -0.3727(4) -0.7530(4) 0.7623(4)
C4A C -0.3814(6) -0.8405(5) 0.8738(5)
H2A H -0.4515 -0.8742 0.9006
C5A C -0.2881(10) -0.8772(6) 0.9438(5)
H3A H -0.2963 -0.9342 1.0189
C6A C -0.1828(8) -0.8315(6) 0.9053(6)
H4A H -0.1183 -0.8587 0.9530
C7A C -0.1726(5) -0.7456(5) 0.7962(5)
H5A H -0.1007 -0.7145 0.7696
C8A C -0.4756(5) -0.7145(7) 0.6814(8)
C8_2 C -0.5244(5) -0.2855(7) 0.3186(8)
C8A_2 C 0.5244(5) 0.2855(7) 0.6814(8)
C9A C -0.2253(5) -0.1146(5) 0.2896(4)
H6A H -0.2643 -0.1491 0.2557
H7A H -0.2335 -0.0298 0.2425
H8A H -0.1345 -0.1588 0.2932
C10A C -0.2930(4) -0.1241(4) 0.4097(3)
C11A C -0.3982(3) -0.1879(3) 0.5837(3)
C12A C -0.4676(4) -0.2501(4) 0.6848(3)
H9A H -0.4916 -0.3177 0.6917
C13A C -0.4987(4) -0.2038(5) 0.7749(4)
H10A H -0.5449 -0.2424 0.8444
C14A C -0.4642(5) -0.1033(5) 0.7657(4)
H11A H -0.4861 -0.0774 0.8292
C15A C -0.3982(4) -0.0409(4) 0.6648(4)
H12A H -0.3759 0.0277 0.6576
C16A C -0.3667(3) -0.0855(3) 0.5740(3)
C17A C -0.2467(4) 0.0589(4) 0.4183(4)
H13A H -0.2322 0.0868 0.3337
H14A H -0.3088 0.1261 0.4409
C18A C -0.1195(3) 0.0258(3) 0.4637(3)
C19A C -0.0963(4) 0.1070(3) 0.4992(4)
H15A H -0.1610 0.1793 0.4992
C20A C -0.0220(4) -0.0825(4) 0.4653(4)
H16A H -0.0367 -0.1386 0.4422
H28A H -0.145(7) -0.405(3) 0.3066(12)
N3 N -0.0356(3) 0.5817(3) 0.1687(3)
N4 N 0.1399(3) 0.5189(3) 0.0524(3)
C21 C 0.1213(5) 0.3847(5) 0.2651(5)
H17 H 0.1798 0.4001 0.2985
H18 H 0.1663 0.3156 0.2402
H19 H 0.0482 0.3671 0.3223
C22 C 0.0739(4) 0.4953(4) 0.1628(4)
C23 C -0.0431(4) 0.6678(4) 0.0567(4)
C24 C -0.1390(4) 0.7761(4) 0.0134(4)
H20 H -0.2129 0.8024 0.0615
C25 C -0.1206(6) 0.8433(5) -0.1035(5)
H21 H -0.1838 0.9160 -0.1350
C26 C -0.0108(7) 0.8054(6) -0.1753(5)
H22 H -0.0018 0.8539 -0.2538
C27 C 0.0860(5) 0.6982(5) -0.1348(4)
H23 H 0.1598 0.6730 -0.1835
C28 C 0.0668(4) 0.6302(4) -0.0170(4)
C29 C 0.2619(4) 0.4430(4) 0.0097(5)
H24 H 0.2550 0.4485 -0.0674
H25 H 0.2727 0.3579 0.0606
C30 C 0.3826(3) 0.4785(3) 0.0030(3)
C31 C 0.3959(4) 0.5242(4) 0.0817(4)
H26 H 0.3258 0.5410 0.1372
C32 C 0.4878(4) 0.4550(4) -0.0783(3)
H27 H 0.4805 0.4245 -0.1319
N3A N 1.0356(3) 0.4183(3) -0.1687(3)
N4A N 0.8601(3) 0.4811(3) -0.0524(3)
C21A C 0.8787(5) 0.6153(5) -0.2651(5)
H17A H 0.8202 0.5999 -0.2985
H18A H 0.8337 0.6844 -0.2402
H19A H 0.9518 0.6329 -0.3223
C22A C 0.9261(4) 0.5047(4) -0.1628(4)
C23A C 1.0431(4) 0.3322(4) -0.0567(4)
C24A C 1.1390(4) 0.2239(4) -0.0134(4)
H20A H 1.2129 0.1976 -0.0615
C25A C 1.1206(6) 0.1567(5) 0.1035(5)
H21A H 1.1838 0.0840 0.1350
C26A C 1.0108(7) 0.1946(6) 0.1753(5)
H22A H 1.0018 0.1461 0.2538
C27A C 0.9140(5) 0.3018(5) 0.1348(4)
H23A H 0.8402 0.3270 0.1835
C28A C 0.9332(4) 0.3698(4) 0.0170(4)
C29A C 0.7381(4) 0.5570(4) -0.0097(5)
H24A H 0.7450 0.5515 0.0674
H25A H 0.7273 0.6421 -0.0606
C30A C 0.6174(3) 0.5215(3) -0.0030(3)
C31A C 0.6041(4) 0.4758(4) -0.0817(4)
H26A H 0.6742 0.4590 -0.1372
C32A C 0.5122(4) 0.5450(4) 0.0783(3)
H27A H 0.5195 0.5755 0.1319
O6 O 0.6705(5) 0.4069(4) 0.3345(4)
loop_
_geom_bond_atom_site_label_1
_geom_bond_atom_site_label_2
_geom_bond_site_symmetry_1
_geom_bond_site_symmetry_2
Zn1 O1 1_555 1_555
O1 C1 1_555 1_555
O2 C1 1_555 1_555
O3 C8 1_555 1_555
O4 C8 1_555 1_555
O5 Zn1 1_555 1_555
H1 O5 1_555 1_555
N1 Zn1 1_555 1_555
N2 C10 1_555 1_555
C1 C2 1_555 1_555
C2 C3 1_555 1_555
C3 C4 1_555 1_555
C4 H2 1_555 1_555
C5 C4 1_555 1_555
H3 C5 1_555 1_555
C6 C5 1_555 1_555
H4 C6 1_555 1_555
C7 C2 1_555 1_555
H5 C7 1_555 1_555
C8 C3 1_555 1_555
C9 H6 1_555 1_555
H7 C9 1_555 1_555
H8 C9 1_555 1_555
C10 N1 1_555 1_555
C11 N1 1_555 1_555
C12 C11 1_555 1_555
H9 C12 1_555 1_555
C13 C12 1_555 1_555
H10 C13 1_555 1_555
C14 C13 1_555 1_555
H11 C14 1_555 1_555
C15 C14 1_555 1_555
H12 C15 1_555 1_555
C16 N2 1_555 1_555
C17 N2 1_555 1_555
H13 C17 1_555 1_555
H14 C17 1_555 1_555
C18 C17 1_555 1_555
C19 C18 1_555 1_555
H15 C19 1_555 1_555
C20 C18 1_555 1_555
H16 C20 1_555 1_555
N3 C22 1_555 1_555
N4 C22 1_555 1_555
C21 H17 1_555 1_555
H18 C21 1_555 1_555
H19 C21 1_555 1_555
C22 C21 1_555 1_555
C23 N3 1_555 1_555
C24 C23 1_555 1_555
H20 C24 1_555 1_555
C25 C24 1_555 1_555
H21 C25 1_555 1_555
C26 C25 1_555 1_555
H22 C26 1_555 1_555
C27 C26 1_555 1_555
H23 C27 1_555 1_555
C28 N4 1_555 1_555
C29 N4 1_555 1_555
H24 C29 1_555 1_555
H25 C29 1_555 1_555
C30 C29 1_555 1_555
C31 C30 1_555 1_555
H26 C31 1_555 1_555
C32 C30 1_555 1_555
H27 C32 1_555 1_555
H28 O5 1_555 1_555
Zn1A O1A 1_555 1_555
Zn1_2 O3A 1_555 1_555
Zn1A_2 O3 1_555 1_555
O1A C1A 1_555 1_555
O2A C1A 1_555 1_555
O3A C8A 1_555 1_555
O3_2 Zn1A 1_555 1_555
O3A_2 Zn1 1_555 1_555
O4A Zn1_2 1_555 1_555
O4_2 Zn1A 1_555 1_555
O4A_2 Zn1 1_555 1_555
O5A Zn1A 1_555 1_555
H1A O5A 1_555 1_555
N1A Zn1A 1_555 1_555
N2A C10A 1_555 1_555
C1A C2A 1_555 1_555
C2A C3A 1_555 1_555
C3A C4A 1_555 1_555
C4A H2A 1_555 1_555
C5A C4A 1_555 1_555
H3A C5A 1_555 1_555
C6A C5A 1_555 1_555
H4A C6A 1_555 1_555
C7A C2A 1_555 1_555
H5A C7A 1_555 1_555
C8A O4A 1_555 1_555
C8_2 O3_2 1_555 1_555
C8A_2 O3A_2 1_555 1_555
C9A H6A 1_555 1_555
H7A C9A 1_555 1_555
H8A C9A 1_555 1_555
C10A N1A 1_555 1_555
C11A N1A 1_555 1_555
C12A C11A 1_555 1_555
H9A C12A 1_555 1_555
C13A C12A 1_555 1_555
H10A C13A 1_555 1_555
C14A C13A 1_555 1_555
H11A C14A 1_555 1_555
C15A C14A 1_555 1_555
H12A C15A 1_555 1_555
C16A N2A 1_555 1_555
C17A N2A 1_555 1_555
H13A C17A 1_555 1_555
H14A C17A 1_555 1_555
C18A C17A 1_555 1_555
C19A C20 1_555 1_555
H15A C19A 1_555 1_555
C20A C19 1_555 1_555
H16A C20A 1_555 1_555
N3A C22A 1_555 1_555
N4A C22A 1_555 1_555
C21A H17A 1_555 1_555
H18A C21A 1_555 1_555
H19A C21A 1_555 1_555
C22A C21A 1_555 1_555
C23A N3A 1_555 1_555
C24A C23A 1_555 1_555
H20A C24A 1_555 1_555
C25A C24A 1_555 1_555
H21A C25A 1_555 1_555
C26A C25A 1_555 1_555
H22A C26A 1_555 1_555
C27A C26A 1_555 1_555
H23A C27A 1_555 1_555
C28A N4A 1_555 1_555
C29A N4A 1_555 1_555
H24A C29A 1_555 1_555
H25A C29A 1_555 1_555
C30A C29A 1_555 1_555
C31A C32 1_555 1_555
H26A C31A 1_555 1_555
C32A C31 1_555 1_555
H27A C32A 1_555 1_555
H28A O5A 1_555 1_555
O4 Zn1A_2 1_555 1_555
C6 C7 1_555 1_555
C9 C10 1_555 1_555
C11 C16 1_555 1_555
C15 C16 1_555 1_555
C23 C28 1_555 1_555
C27 C28 1_555 1_555
O4_2 C8_2 1_555 1_555
O4A_2 C8A_2 1_555 1_555
C3A C8A 1_555 1_555
C6A C7A 1_555 1_555
C9A C10A 1_555 1_555
C11A C16A 1_555 1_555
C15A C16A 1_555 1_555
C18A C19A 1_555 1_555
C18A C20A 1_555 1_555
C23A C28A 1_555 1_555
C27A C28A 1_555 1_555
C30A C31A 1_555 1_555
C30A C32A 1_555 1_555

#END
