
#######################################################################
#
#                 Cambridge Crystallographic Data Centre
#                                CCDC 
#
#######################################################################
#
# If this CIF has been generated from an entry in the Cambridge 
# Structural Database, then it will include bibliographic, chemical, 
# crystal, experimental, refinement or atomic coordinate data resulting 
# from the CCDC's data processing and validation procedures.
#
#######################################################################

data_IWENII
_symmetry_cell_setting           triclinic
_symmetry_space_group_name_H-M   'P -1'
_symmetry_Int_Tables_number      2
_space_group_name_Hall           '-P 1'
loop_
_symmetry_equiv_pos_site_id
_symmetry_equiv_pos_as_xyz
1 x,y,z
2 -x,-y,-z
_cell_length_a                   9.5601(19)
_cell_length_b                   10.616(2)
_cell_length_c                   10.931(2)
_cell_angle_alpha                108.47(3)
_cell_angle_beta                 110.01(3)
_cell_angle_gamma                103.74(3)
_cell_volume                     911.206
loop_
_atom_site_label
_atom_site_type_symbol
_atom_site_fract_x
_atom_site_fract_y
_atom_site_fract_z
H1 H 0.398(6) -0.068(5) 0.836(5)
C1 C 0.3744(4) 0.4541(3) 1.3653(3)
H2 H 0.2893 0.4227 1.2747
C2 C 0.0409(4) 0.4727(4) 0.6195(3)
H3 H 0.0689 0.4552 0.7010
C3 C 0.8546(4) 0.5156(3) 0.9731(4)
H4 H 0.7568 0.5265 0.9546
C4 C 1.0196(4) 0.3826(3) 1.0206(4)
H5 H 1.0331 0.3033 1.0342
O1 O 0.7587(3) 0.1821(2) 1.0094(3)
C5 C 0.8725(4) 0.3970(3) 0.9941(3)
C6 C 0.7375(4) 0.2852(3) 0.9892(3)
O2 O 0.6066(3) 0.3075(3) 0.9650(3)
O3 O 0.3467(3) -0.0226(2) 0.8750(2)
H6 H 0.3352 -0.0486 0.9353
Zn1 Zn 0.41071(4) 0.18853(4) 0.95105(4)
O4 O 0.3946(3) 0.2713(3) 1.1284(2)
N1 N 0.0631(3) 0.2002(3) 0.5992(3)
N2 N 0.2234(3) 0.1902(3) 0.7951(3)
O5 O 0.5527(3) 0.1982(3) 1.2689(3)
C7 C 0.2175(4) 0.2370(3) 0.6953(4)
C8 C 0.4793(4) 0.2770(3) 1.2507(4)
C9 C 0.4873(4) 0.3906(3) 1.3799(3)
C10 C 0.6119(4) 0.4369(3) 1.5159(3)
H7 H 0.6870 0.3942 1.5273
C11 C 0.0625(4) 0.1194(3) 0.7619(4)
C12 C -0.0334(4) 0.3958(3) 0.3695(3)
H8 H -0.0561 0.3258 0.2806
C13 C 0.0073(4) 0.3673(3) 0.4886(3)
C14 C -0.0380(4) 0.1259(3) 0.6392(4)
C15 C 0.0131(5) 0.2217(3) 0.4678(4)
H9 H -0.0933 0.1483 0.3978
H10 H 0.0869 0.2078 0.4272
C16 C -0.0009(4) 0.0472(4) 0.8289(4)
H11 H 0.0658 0.0397 0.9090
C17 C -0.2057(5) 0.0657(4) 0.5824(5)
H12 H -0.2731 0.0720 0.5018
C18 C 0.3593(4) 0.3226(4) 0.6894(4)
H13 H 0.3829 0.4233 0.7385
H14 H 0.3366 0.2978 0.5902
H15 H 0.4507 0.3023 0.7356
C19 C -0.1667(5) -0.0129(4) 0.7719(5)
H16 H -0.2129 -0.0610 0.8149
C20 C -0.2662(5) -0.0030(5) 0.6510(5)
H17 H -0.3776 -0.0445 0.6156
H1A H -0.398(6) 1.068(5) 0.164(5)
C1A C 0.6256(4) 0.5459(3) 1.6347(3)
H2A H 0.7107 0.5773 1.7253
C2A C -0.0409(4) 0.5273(4) 0.3805(3)
H3A H -0.0689 0.5448 0.2990
C3A C 1.1454(4) 0.4844(3) 1.0269(4)
H4A H 1.2432 0.4735 1.0454
C4A C 0.9804(4) 0.6174(3) 0.9794(4)
H5A H 0.9669 0.6967 0.9658
O1A O 1.2413(3) 0.8179(2) 0.9906(3)
C5A C 1.1275(4) 0.6030(3) 1.0059(3)
C6A C 1.2625(4) 0.7148(3) 1.0108(3)
O2A O 1.3934(3) 0.6925(3) 1.0350(3)
O2A_2 O -0.6066(3) 0.6925(3) 0.0350(3)
O3A O -0.3467(3) 1.0226(2) 0.1250(2)
H6A H -0.3352 1.0486 0.0647
Zn1A Zn -0.41071(4) 0.81147(4) 0.04895(4)
Zn1A_2 Zn 0.58929(4) 0.81147(4) 2.04895(4)
Zn1A_3 Zn 1.58929(4) 0.81147(4) 1.04895(4)
O4A O 0.6054(3) 0.7287(3) 1.8716(2)
O4A_2 O -0.3946(3) 0.7287(3) -0.1284(2)
N1A N -0.0631(3) 0.7998(3) 0.4008(3)
N2A N -0.2234(3) 0.8098(3) 0.2049(3)
O5A O 0.4473(3) 0.8018(3) 1.7311(3)
C7A C -0.2175(4) 0.7630(3) 0.3047(4)
C8A C 0.5207(4) 0.7230(3) 1.7493(4)
C9A C 0.5127(4) 0.6094(3) 1.6201(3)
C10A C 0.3881(4) 0.5631(3) 1.4841(3)
H7A H 0.3130 0.6058 1.4727
C11A C -0.0625(4) 0.8806(3) 0.2381(4)
C12A C 0.0334(4) 0.6042(3) 0.6305(3)
H8A H 0.0561 0.6742 0.7194
C13A C -0.0073(4) 0.6327(3) 0.5114(3)
C14A C 0.0380(4) 0.8741(3) 0.3608(4)
C15A C -0.0131(5) 0.7783(3) 0.5322(4)
H9A H 0.0933 0.8517 0.6022
H10A H -0.0869 0.7922 0.5728
C16A C 0.0009(4) 0.9528(4) 0.1711(4)
H11A H -0.0658 0.9603 0.0910
C17A C 0.2057(5) 0.9343(4) 0.4176(5)
H12A H 0.2731 0.9280 0.4982
C18A C -0.3593(4) 0.6774(4) 0.3106(4)
H13A H -0.3829 0.5767 0.2615
H14A H -0.3366 0.7022 0.4098
H15A H -0.4507 0.6977 0.2644
C19A C 0.1667(5) 1.0129(4) 0.2281(5)
H16A H 0.2129 1.0610 0.1851
C20A C 0.2662(5) 1.0030(5) 0.3490(5)
H17A H 0.3776 1.0445 0.3844
loop_
_geom_bond_atom_site_label_1
_geom_bond_atom_site_label_2
_geom_bond_site_symmetry_1
_geom_bond_site_symmetry_2
H1 O3 1_555 1_555
C1 H2 1_555 1_555
C2 H3 1_555 1_555
C3 H4 1_555 1_555
C4 H5 1_555 1_555
O1 C6 1_555 1_555
C5 C3 1_555 1_555
C6 C5 1_555 1_555
O2 C6 1_555 1_555
O3 H6 1_555 1_555
Zn1 O2 1_555 1_555
O4 Zn1 1_555 1_555
N1 C7 1_555 1_555
N2 Zn1 1_555 1_555
O5 C8 1_555 1_555
C7 N2 1_555 1_555
C8 O4 1_555 1_555
C9 C1 1_555 1_555
C10 C9 1_555 1_555
H7 C10 1_555 1_555
C11 N2 1_555 1_555
C12 H8 1_555 1_555
C13 C2 1_555 1_555
C14 N1 1_555 1_555
C15 N1 1_555 1_555
H9 C15 1_555 1_555
H10 C15 1_555 1_555
C16 C11 1_555 1_555
H11 C16 1_555 1_555
C17 C14 1_555 1_555
H12 C17 1_555 1_555
C18 C7 1_555 1_555
H13 C18 1_555 1_555
H14 C18 1_555 1_555
H15 C18 1_555 1_555
C19 C16 1_555 1_555
H16 C19 1_555 1_555
C20 C17 1_555 1_555
H17 C20 1_555 1_555
H1A O3A 1_555 1_555
C1A C10 1_555 1_555
H2A C1A 1_555 1_555
C2A C12 1_555 1_555
H3A C2A 1_555 1_555
C3A C4 1_555 1_555
H4A C3A 1_555 1_555
C4A C3 1_555 1_555
H5A C4A 1_555 1_555
O1A C6A 1_555 1_555
C5A C3A 1_555 1_555
C6A C5A 1_555 1_555
O2A C6A 1_555 1_555
O2A_2 Zn1A 1_555 1_555
O3A H6A 1_555 1_555
Zn1A O3A 1_555 1_555
Zn1A_2 O4A 1_555 1_555
Zn1A_3 O2A 1_555 1_555
O4A C8A 1_555 1_555
O4A_2 Zn1A 1_555 1_555
N1A C7A 1_555 1_555
N2A Zn1A 1_555 1_555
O5A C8A 1_555 1_555
C7A N2A 1_555 1_555
C8A C9A 1_555 1_555
C9A C1A 1_555 1_555
C10A C1 1_555 1_555
H7A C10A 1_555 1_555
C11A N2A 1_555 1_555
C12A C2 1_555 1_555
H8A C12A 1_555 1_555
C13A C2A 1_555 1_555
C14A N1A 1_555 1_555
C15A N1A 1_555 1_555
H9A C15A 1_555 1_555
H10A C15A 1_555 1_555
C16A C11A 1_555 1_555
H11A C16A 1_555 1_555
C17A C14A 1_555 1_555
H12A C17A 1_555 1_555
C18A C7A 1_555 1_555
H13A C18A 1_555 1_555
H14A C18A 1_555 1_555
H15A C18A 1_555 1_555
C19A C16A 1_555 1_555
H16A C19A 1_555 1_555
C20A C17A 1_555 1_555
H17A C20A 1_555 1_555
C4 C5 1_555 1_555
O3 Zn1 1_555 1_555
C8 C9 1_555 1_555
C11 C14 1_555 1_555
C12 C13 1_555 1_555
C13 C15 1_555 1_555
C19 C20 1_555 1_555
C4A C5A 1_555 1_555
C9A C10A 1_555 1_555
C11A C14A 1_555 1_555
C12A C13A 1_555 1_555
C13A C15A 1_555 1_555
C19A C20A 1_555 1_555

#END
