
#######################################################################
#
#                 Cambridge Crystallographic Data Centre
#                                CCDC 
#
#######################################################################
#
# If this CIF has been generated from an entry in the Cambridge 
# Structural Database, then it will include bibliographic, chemical, 
# crystal, experimental, refinement or atomic coordinate data resulting 
# from the CCDC's data processing and validation procedures.
#
#######################################################################

data_IWENOO
_symmetry_cell_setting           monoclinic
_symmetry_space_group_name_H-M   'C 2/c'
_symmetry_Int_Tables_number      15
_space_group_name_Hall           '-C 2yn'
loop_
_symmetry_equiv_pos_site_id
_symmetry_equiv_pos_as_xyz
1 x,y,z
2 -x,y,1/2-z
3 1/2+x,1/2+y,z
4 1/2-x,1/2+y,1/2-z
5 -x,-y,-z
6 x,-y,1/2+z
7 1/2-x,1/2-y,-z
8 1/2+x,1/2-y,1/2+z
_cell_length_a                   20.821(4)
_cell_length_b                   10.684(2)
_cell_length_c                   15.656(3)
_cell_angle_alpha                90
_cell_angle_beta                 127.10(3)
_cell_angle_gamma                90
_cell_volume                     2777.75
loop_
_atom_site_label
_atom_site_type_symbol
_atom_site_fract_x
_atom_site_fract_y
_atom_site_fract_z
Zn1 Zn 0.5000 0.18815(3) 0.2500
O1 O 0.47511(11) 0.11176(17) 0.12002(13)
O2 O 0.57053(18) -0.0202(3) 0.22550(18)
N1 N 0.39999(13) 0.29936(19) 0.18096(17)
N2 N 0.29097(13) 0.40648(19) 0.05545(16)
C1 C 0.3955(2) 0.3751(3) 0.0267(3)
H1 H 0.4516 0.3535 0.0713
H2 H 0.3892 0.4607 0.0042
H3 H 0.3668 0.3217 -0.0351
C2 C 0.36277(16) 0.3590(2) 0.0880(2)
C3 C 0.34964(16) 0.3108(2) 0.2115(2)
C4 C 0.3583(2) 0.2678(3) 0.3019(2)
H4 H 0.4036 0.2228 0.3550
C5 C 0.2969(2) 0.2948(4) 0.3095(3)
H5 H 0.3010 0.2670 0.3689
C6 C 0.2288(2) 0.3628(4) 0.2300(3)
H6 H 0.1886 0.3787 0.2376
C7 C 0.21990(18) 0.4065(3) 0.1416(3)
H7 H 0.1750 0.4529 0.0894
C8 C 0.28143(15) 0.3783(2) 0.1333(2)
C9 C 0.23359(17) 0.4816(2) -0.03942(19)
H8 H 0.1793 0.4564 -0.0679
H9 H 0.2411 0.4650 -0.0938
C10 C 0.24273(15) 0.6205(2) -0.01630(18)
C11 C 0.31601(17) 0.6743(2) 0.0630(2)
H10 H 0.3610 0.6236 0.1063
C12 C 0.17686(16) 0.6972(2) -0.0788(2)
H11 H 0.1270 0.6626 -0.1321
C13 C 0.51867(15) 0.0195(3) 0.13635(18)
C14 C 0.51231(15) -0.0331(2) 0.04280(18)
H12 H 0.5264 -0.1163 0.0454
Zn1D Zn 0.5000 -0.18815(3) -0.2500
Zn1F Zn 0.0000 1.31185(3) -0.2500
O1D O 0.52489(11) -0.11176(17) -0.12002(13)
O1A O 0.52489(11) 0.11176(17) 0.37998(13)
O2D O 0.42947(18) 0.0202(3) -0.22550(18)
N1F N 0.10001(13) 1.20064(19) -0.18096(17)
N1A N 0.60001(13) 0.29936(19) 0.31904(17)
N2F N 0.20903(13) 1.09352(19) -0.05545(16)
C1F C 0.1045(2) 1.1249(3) -0.0267(3)
H1F H 0.0484 1.1465 -0.0713
H2F H 0.1108 1.0393 -0.0042
H3F H 0.1332 1.1783 0.0351
C2F C 0.13723(16) 1.1410(2) -0.0880(2)
C3F C 0.15036(16) 1.1892(2) -0.2115(2)
C4F C 0.1417(2) 1.2322(3) -0.3019(2)
H4F H 0.0964 1.2772 -0.3550
C5F C 0.2031(2) 1.2052(4) -0.3095(3)
H5F H 0.1990 1.2330 -0.3689
C6F C 0.2712(2) 1.1372(4) -0.2300(3)
H6F H 0.3114 1.1213 -0.2376
C7F C 0.28010(18) 1.0935(3) -0.1416(3)
H7F H 0.3250 1.0471 -0.0894
C8F C 0.21857(15) 1.1217(2) -0.1333(2)
C9F C 0.26641(17) 1.0184(2) 0.03942(19)
H8F H 0.3207 1.0436 0.0679
H9F H 0.2589 1.0350 0.0938
C10F C 0.25727(15) 0.8795(2) 0.01630(18)
C11F C 0.18399(17) 0.8257(2) -0.0630(2)
H10F H 0.1390 0.8764 -0.1063
C12F C 0.32314(16) 0.8028(2) 0.0788(2)
H11F H 0.3730 0.8374 0.1321
C13D C 0.48133(15) -0.0195(3) -0.13635(18)
C14D C 0.48769(15) 0.0331(2) -0.04280(18)
H12D H 0.4736 0.1163 -0.0454
loop_
_geom_bond_atom_site_label_1
_geom_bond_atom_site_label_2
_geom_bond_site_symmetry_1
_geom_bond_site_symmetry_2
Zn1 O1 1_555 1_555
O1 C13 1_555 1_555
O2 C13 1_555 1_555
N1 Zn1 1_555 1_555
N2 C2 1_555 1_555
C1 H1 1_555 1_555
H2 C1 1_555 1_555
H3 C1 1_555 1_555
C2 N1 1_555 1_555
C3 N1 1_555 1_555
C4 C3 1_555 1_555
H4 C4 1_555 1_555
C5 C4 1_555 1_555
H5 C5 1_555 1_555
C6 C5 1_555 1_555
H6 C6 1_555 1_555
C7 C6 1_555 1_555
H7 C7 1_555 1_555
C8 N2 1_555 1_555
C9 N2 1_555 1_555
H8 C9 1_555 1_555
H9 C9 1_555 1_555
C10 C9 1_555 1_555
C11 C10 1_555 1_555
H10 C11 1_555 1_555
C12 C10 1_555 1_555
H11 C12 1_555 1_555
C13 C14 1_555 1_555
C14 H12 1_555 1_555
Zn1D O1D 1_555 1_555
Zn1F N1F 1_555 1_555
O1D C13D 1_555 1_555
O1A Zn1 1_555 1_555
O2D C13D 1_555 1_555
N1F C2F 1_555 1_555
N1A Zn1 1_555 1_555
N2F C2F 1_555 1_555
C1F H1F 1_555 1_555
H2F C1F 1_555 1_555
H3F C1F 1_555 1_555
C2F C1F 1_555 1_555
C3F N1F 1_555 1_555
C4F C3F 1_555 1_555
H4F C4F 1_555 1_555
C5F C4F 1_555 1_555
H5F C5F 1_555 1_555
C6F C5F 1_555 1_555
H6F C6F 1_555 1_555
C7F C6F 1_555 1_555
H7F C7F 1_555 1_555
C8F N2F 1_555 1_555
C9F N2F 1_555 1_555
H8F C9F 1_555 1_555
H9F C9F 1_555 1_555
C10F C9F 1_555 1_555
C11F C12 1_555 1_555
H10F C11F 1_555 1_555
C12F C11 1_555 1_555
H11F C12F 1_555 1_555
C13D C14D 1_555 1_555
C14D C14 1_555 1_555
H12D C14D 1_555 1_555
C1 C2 1_555 1_555
C3 C8 1_555 1_555
C7 C8 1_555 1_555
C3F C8F 1_555 1_555
C7F C8F 1_555 1_555
C10F C11F 1_555 1_555
C10F C12F 1_555 1_555

#END
