
#######################################################################
#
#                 Cambridge Crystallographic Data Centre
#                                CCDC 
#
#######################################################################
#
# If this CIF has been generated from an entry in the Cambridge 
# Structural Database, then it will include bibliographic, chemical, 
# crystal, experimental, refinement or atomic coordinate data resulting 
# from the CCDC's data processing and validation procedures.
#
#######################################################################

data_IWENUU
_symmetry_cell_setting           monoclinic
_symmetry_space_group_name_H-M   'C 2/c'
_symmetry_Int_Tables_number      15
_space_group_name_Hall           '-C 2yn'
loop_
_symmetry_equiv_pos_site_id
_symmetry_equiv_pos_as_xyz
1 x,y,z
2 -x,y,1/2-z
3 1/2+x,1/2+y,z
4 1/2-x,1/2+y,1/2-z
5 -x,-y,-z
6 x,-y,1/2+z
7 1/2-x,1/2-y,-z
8 1/2+x,1/2-y,1/2+z
_cell_length_a                   29.464(6)
_cell_length_b                   10.887(2)
_cell_length_c                   21.025(4)
_cell_angle_alpha                90
_cell_angle_beta                 129.66(3)
_cell_angle_gamma                90
_cell_volume                     5192.06
loop_
_atom_site_label
_atom_site_type_symbol
_atom_site_fract_x
_atom_site_fract_y
_atom_site_fract_z
O1 O 0.3243(6) 0.1770(6) 0.4880(7)
O2 O 0.31787(8) 0.64720(17) 0.20952(11)
C1 C 0.33043(11) 0.7074(2) 0.27189(16)
O4 O 0.30572(11) 0.9770(2) 0.39872(15)
C2 C 0.34141(13) 0.8433(2) 0.27389(18)
H1 H 0.3754 0.8544 0.2769
H2 H 0.3077 0.8795 0.2224
C3 C -0.00317(12) 0.5835(3) 0.04662(16)
H3 H -0.0052 0.6391 0.0783
Zn1 Zn 0.188241(12) 0.97074(3) 0.276237(17)
N1 N 0.10672(9) 0.9218(2) 0.16853(13)
C4 C 0.05371(12) 0.9578(2) 0.14952(16)
N2 N 0.18451(9) 0.8668(2) 0.35529(13)
N3 N 0.03315(10) 0.8371(2) 0.04896(13)
N4 N 0.15725(9) 0.7207(2) 0.39898(13)
C5 C 0.00621(12) 0.5413(2) -0.05610(16)
H4 H 0.0105 0.5687 -0.0939
C6 C 0.04290(13) 1.0336(3) 0.19144(17)
H5 H 0.0736 1.0690 0.2418
C7 C 0.19711(11) 0.9065(3) 0.42821(15)
C8 C 0.09287(12) 0.8506(2) 0.10736(16)
C9 C 0.16154(11) 0.7556(2) 0.34086(16)
C10 C 0.22242(14) 1.0147(3) 0.47191(18)
H6 H 0.2334 1.0762 0.4534
C11 C 0.14390(14) 0.6736(3) 0.27200(18)
H7 H 0.1029 0.6857 0.2259
H8 H 0.1504 0.5896 0.2899
H9 H 0.1670 0.6924 0.2557
C12 C 0.13447(13) 0.7931(3) 0.10017(18)
H10 H 0.1741 0.8088 0.1494
H11 H 0.1288 0.8268 0.0534
H12 H 0.1277 0.7061 0.0930
C13 C -0.06154(13) 1.0007(3) 0.07990(19)
H13 H -0.1002 1.0163 0.0576
C14 C 0.00289(11) 0.6261(2) -0.00977(15)
C15 C 0.00692(11) 0.9044(2) 0.07387(15)
C16 C 0.23075(15) 1.0280(3) 0.5445(2)
H14 H 0.2477 1.0999 0.5751
C17 C -0.05157(13) 0.9253(3) 0.03773(18)
H15 H -0.0824 0.8900 -0.0125
C18 C 0.18050(11) 0.8156(3) 0.45653(16)
C19 C 0.12557(13) 0.6125(3) 0.39386(19)
H16 H 0.1300 0.6074 0.4436
H17 H 0.1431 0.5394 0.3911
C20 C 0.18928(12) 0.8282(3) 0.52980(17)
H18 H 0.1787 0.7666 0.5487
C21 C 0.00244(13) 0.7618(3) -0.02580(16)
H19 H 0.0209 0.7740 -0.0505
H20 H -0.0381 0.7894 -0.0652
C22 C 0.21432(14) 0.9360(4) 0.57242(18)
H21 H 0.2205 0.9480 0.6212
C23 C -0.01566(14) 1.0547(3) 0.15512(19)
H22 H -0.0244 1.1058 0.1815
O5 O 0.24835(8) 0.9133(2) 0.26986(12)
O6 O 0.33517(12) 0.6584(2) 0.32843(14)
C24 C 0.29871(12) 0.9354(2) 0.33825(17)
C25 C 0.06042(12) 0.6158(3) 0.31923(16)
C26 C 0.35191(12) 0.9117(3) 0.34423(18)
H23 H 0.3696 0.9902 0.3496
H24 H 0.3805 0.8659 0.3946
C27 C 0.03005(14) 0.5066(3) 0.2838(2)
H25 H 0.0500 0.4323 0.3054
C28 C 0.02973(12) 0.7251(3) 0.28432(19)
H26 H 0.0493 0.7994 0.3073
O2A O -0.31787(8) 0.64720(17) 0.29048(11)
O2B O -0.18213(8) 1.14720(17) 0.20952(11)
O2C O 0.18213(8) 1.14720(17) 0.29048(11)
C1A C -0.33043(11) 0.7074(2) 0.22811(16)
O4A O -0.30572(11) 0.9770(2) 0.10128(15)
C2A C -0.34141(13) 0.8433(2) 0.22611(18)
H1A H -0.3754 0.8544 0.2231
H2A H -0.3077 0.8795 0.2776
C3D C 0.00317(12) 0.4165(3) -0.04662(16)
H3D H 0.0052 0.3609 -0.0783
Zn1A Zn -0.188241(12) 0.97074(3) 0.223763(17)
Zn1B Zn -0.311759(12) 0.47074(3) 0.276237(17)
Zn1C Zn 0.311759(12) 0.47074(3) 0.223763(17)
Zn1D Zn -0.188241(12) 0.02926(3) -0.276237(17)
N1D N -0.10672(9) 0.0782(2) -0.16853(13)
N1A N -0.10672(9) 0.9218(2) 0.33147(13)
C4D C -0.05371(12) 0.0422(2) -0.14952(16)
N2A N -0.18451(9) 0.8668(2) 0.14471(13)
N3D N -0.03315(10) 0.1629(2) -0.04896(13)
N4A N -0.15725(9) 0.7207(2) 0.10102(13)
C5D C -0.00621(12) 0.4587(2) 0.05610(16)
H4D H -0.0105 0.4313 0.0939
C6D C -0.04290(13) -0.0336(3) -0.19144(17)
H5D H -0.0736 -0.0690 -0.2418
C7A C -0.19711(11) 0.9065(3) 0.07179(15)
C8D C -0.09287(12) 0.1494(2) -0.10736(16)
C9A C -0.16154(11) 0.7556(2) 0.15914(16)
C10A C -0.22242(14) 1.0147(3) 0.02809(18)
H6A H -0.2334 1.0762 0.0466
C11A C -0.14390(14) 0.6736(3) 0.22800(18)
H7A H -0.1029 0.6857 0.2741
H8A H -0.1504 0.5896 0.2101
H9A H -0.1670 0.6924 0.2443
C12D C -0.13447(13) 0.2069(3) -0.10017(18)
H10D H -0.1741 0.1912 -0.1494
H11D H -0.1288 0.1732 -0.0534
H12D H -0.1277 0.2939 -0.0930
C13D C 0.06154(13) -0.0007(3) -0.07990(19)
H13D H 0.1002 -0.0163 -0.0576
C14D C -0.00289(11) 0.3739(2) 0.00977(15)
C15D C -0.00692(11) 0.0956(2) -0.07387(15)
C16A C -0.23075(15) 1.0280(3) -0.0445(2)
H14A H -0.2477 1.0999 -0.0751
C17D C 0.05157(13) 0.0747(3) -0.03773(18)
H15D H 0.0824 0.1100 0.0125
C18A C -0.18050(11) 0.8156(3) 0.04347(16)
C19A C -0.12557(13) 0.6125(3) 0.10614(19)
H16A H -0.1300 0.6074 0.0564
H17A H -0.1431 0.5394 0.1089
C20A C -0.18928(12) 0.8282(3) -0.02980(17)
H18A H -0.1787 0.7666 -0.0487
C21D C -0.00244(13) 0.2382(3) 0.02580(16)
H19D H -0.0209 0.2260 0.0505
H20D H 0.0381 0.2106 0.0652
C22A C -0.21432(14) 0.9360(4) -0.07242(18)
H21A H -0.2205 0.9480 -0.1212
C23D C 0.01566(14) -0.0547(3) -0.15512(19)
H22D H 0.0244 -0.1058 -0.1815
O5A O -0.24835(8) 0.9133(2) 0.23014(12)
O6A O -0.33517(12) 0.6584(2) 0.17157(14)
C24A C -0.29871(12) 0.9354(2) 0.16175(17)
C25A C -0.06042(12) 0.6158(3) 0.18077(16)
C26A C -0.35191(12) 0.9117(3) 0.15577(18)
H23A H -0.3696 0.9902 0.1504
H24A H -0.3805 0.8659 0.1054
C27A C -0.03005(14) 0.5066(3) 0.2162(2)
H25A H -0.0500 0.4323 0.1946
C28A C -0.02973(12) 0.7251(3) 0.21568(19)
H26A H -0.0493 0.7994 0.1927
O3 O 0.1285(2) 0.2604(5) 0.3570(3)
loop_
_geom_bond_atom_site_label_1
_geom_bond_atom_site_label_2
_geom_bond_site_symmetry_1
_geom_bond_site_symmetry_2
O2 C1 1_555 1_555
C1 C2 1_555 1_555
O4 C24 1_555 1_555
C2 H1 1_555 1_555
H2 C2 1_555 1_555
C3 H3 1_555 1_555
Zn1 N1 1_555 1_555
N1 C4 1_555 1_555
C4 C6 1_555 1_555
N2 Zn1 1_555 1_555
N3 C8 1_555 1_555
N4 C9 1_555 1_555
C5 H4 1_555 1_555
C6 H5 1_555 1_555
C7 N2 1_555 1_555
C8 N1 1_555 1_555
C9 N2 1_555 1_555
C10 C7 1_555 1_555
H6 C10 1_555 1_555
C11 C9 1_555 1_555
H7 C11 1_555 1_555
H8 C11 1_555 1_555
H9 C11 1_555 1_555
C12 C8 1_555 1_555
H10 C12 1_555 1_555
H11 C12 1_555 1_555
H12 C12 1_555 1_555
C13 H13 1_555 1_555
C14 C3 1_555 1_555
C15 C4 1_555 1_555
C16 C10 1_555 1_555
H14 C16 1_555 1_555
C17 C13 1_555 1_555
H15 C17 1_555 1_555
C18 N4 1_555 1_555
C19 N4 1_555 1_555
H16 C19 1_555 1_555
H17 C19 1_555 1_555
C20 C18 1_555 1_555
H18 C20 1_555 1_555
C21 N3 1_555 1_555
H19 C21 1_555 1_555
H20 C21 1_555 1_555
C22 C16 1_555 1_555
H21 C22 1_555 1_555
C23 C6 1_555 1_555
H22 C23 1_555 1_555
O5 Zn1 1_555 1_555
O6 C1 1_555 1_555
C24 O5 1_555 1_555
C25 C19 1_555 1_555
C26 C2 1_555 1_555
H23 C26 1_555 1_555
H24 C26 1_555 1_555
C27 C25 1_555 1_555
H25 C27 1_555 1_555
C28 C25 1_555 1_555
H26 C28 1_555 1_555
O2A C1A 1_555 1_555
O2B Zn1A 1_555 1_555
O2C Zn1 1_555 1_555
C1A C2A 1_555 1_555
O4A C24A 1_555 1_555
C2A H1A 1_555 1_555
H2A C2A 1_555 1_555
C3D C5 1_555 1_555
H3D C3D 1_555 1_555
Zn1A N1A 1_555 1_555
Zn1B O2A 1_555 1_555
Zn1C O2 1_555 1_555
Zn1D N1D 1_555 1_555
N1D C4D 1_555 1_555
C4D C6D 1_555 1_555
N2A Zn1A 1_555 1_555
N3D C8D 1_555 1_555
N4A C9A 1_555 1_555
C5D C3 1_555 1_555
H4D C5D 1_555 1_555
C6D H5D 1_555 1_555
C7A N2A 1_555 1_555
C8D N1D 1_555 1_555
C9A N2A 1_555 1_555
C10A C7A 1_555 1_555
H6A C10A 1_555 1_555
C11A C9A 1_555 1_555
H7A C11A 1_555 1_555
H8A C11A 1_555 1_555
H9A C11A 1_555 1_555
C12D C8D 1_555 1_555
H10D C12D 1_555 1_555
H11D C12D 1_555 1_555
H12D C12D 1_555 1_555
C13D H13D 1_555 1_555
C14D C3D 1_555 1_555
C15D C4D 1_555 1_555
C16A C10A 1_555 1_555
H14A C16A 1_555 1_555
C17D C13D 1_555 1_555
H15D C17D 1_555 1_555
C18A N4A 1_555 1_555
C19A N4A 1_555 1_555
H16A C19A 1_555 1_555
H17A C19A 1_555 1_555
C20A C18A 1_555 1_555
H18A C20A 1_555 1_555
C21D N3D 1_555 1_555
H19D C21D 1_555 1_555
H20D C21D 1_555 1_555
C22A C16A 1_555 1_555
H21A C22A 1_555 1_555
C23D C6D 1_555 1_555
H22D C23D 1_555 1_555
O5A Zn1A 1_555 1_555
O6A C1A 1_555 1_555
C24A O5A 1_555 1_555
C25A C19A 1_555 1_555
C26A C2A 1_555 1_555
H23A C26A 1_555 1_555
H24A C26A 1_555 1_555
C27A C27 1_555 1_555
H25A C27A 1_555 1_555
C28A C28 1_555 1_555
H26A C28A 1_555 1_555
N3 C15 1_555 1_555
C5 C14 1_555 1_555
C7 C18 1_555 1_555
C13 C23 1_555 1_555
C14 C21 1_555 1_555
C15 C17 1_555 1_555
C20 C22 1_555 1_555
C24 C26 1_555 1_555
N3D C15D 1_555 1_555
C5D C14D 1_555 1_555
C7A C18A 1_555 1_555
C13D C23D 1_555 1_555
C14D C21D 1_555 1_555
C15D C17D 1_555 1_555
C20A C22A 1_555 1_555
C24A C26A 1_555 1_555
C25A C27A 1_555 1_555
C25A C28A 1_555 1_555

#END
