
#######################################################################
#
#                 Cambridge Crystallographic Data Centre
#                                CCDC 
#
#######################################################################
#
# If this CIF has been generated from an entry in the Cambridge 
# Structural Database, then it will include bibliographic, chemical, 
# crystal, experimental, refinement or atomic coordinate data resulting 
# from the CCDC's data processing and validation procedures.
#
#######################################################################

data_IWENAA
_symmetry_cell_setting           monoclinic
_symmetry_space_group_name_H-M   'C 2/c'
_symmetry_Int_Tables_number      15
_space_group_name_Hall           '-C 2yn'
loop_
_symmetry_equiv_pos_site_id
_symmetry_equiv_pos_as_xyz
1 x,y,z
2 -x,y,1/2-z
3 1/2+x,1/2+y,z
4 1/2-x,1/2+y,1/2-z
5 -x,-y,-z
6 x,-y,1/2+z
7 1/2-x,1/2-y,-z
8 1/2+x,1/2-y,1/2+z
_cell_length_a                   18.611(4)
_cell_length_b                   11.410(2)
_cell_length_c                   15.455(3)
_cell_angle_alpha                90
_cell_angle_beta                 114.84(3)
_cell_angle_gamma                90
_cell_volume                     2978.27
loop_
_atom_site_label
_atom_site_type_symbol
_atom_site_fract_x
_atom_site_fract_y
_atom_site_fract_z
Zn1 Zn 0.5000 0.30902(3) 0.2500
O1 O 0.38371(10) 0.26407(14) 0.24955(13)
O2 O 0.30865(10) 0.10784(16) 0.24149(15)
N1 N 0.46502(10) 0.41622(15) 0.13689(13)
N2 N 0.39239(10) 0.52197(16) 0.01032(13)
N3 N 0.5000 0.1335(2) 0.2500
C1 C 0.33405(15) 0.3314(2) 0.02880(19)
H1 H 0.3574 0.2559 0.0508
H2 H 0.3070 0.3308 -0.0395
H3 H 0.2970 0.3487 0.0554
C2 C 0.39723(12) 0.42246(18) 0.05947(15)
C3 C 0.50707(12) 0.51790(17) 0.13794(15)
C4 C 0.58180(12) 0.5562(2) 0.20099(16)
H4 H 0.6129 0.5125 0.2544
C5 C 0.60793(14) 0.6620(2) 0.18107(19)
H5 H 0.6580 0.6891 0.2216
C6 C 0.56134(15) 0.7289(2) 0.10209(19)
H6 H 0.5808 0.8000 0.0917
C7 C 0.48650(15) 0.69244(18) 0.03834(19)
H7 H 0.4552 0.7367 -0.0147
C8 C 0.46133(11) 0.58521(17) 0.05908(15)
C9 C 0.32344(13) 0.5706(2) -0.06980(16)
H8 H 0.2859 0.5084 -0.1011
H9 H 0.3401 0.6046 -0.1160
C10 C 0.28424(13) 0.6633(2) -0.03458(16)
C11 C 0.25897(16) 0.6383(2) 0.0363(2)
H10 H 0.2648 0.5627 0.0609
C12 C 0.27462(16) 0.7759(2) -0.07054(19)
H11 H 0.2909 0.7940 -0.1182
C13 C 0.37000(13) 0.1547(2) 0.24625(16)
C14 C 0.43648(13) 0.07668(18) 0.24751(16)
C15 C 0.43435(17) -0.0451(2) 0.2464(2)
H12 H 0.3898 -0.0851 0.2434
C16 C 0.5000 -0.1054(3) 0.2500
H13 H 0.5000 -0.1869 0.2500
Zn1F Zn 0.0000 1.19098(3) -0.2500
O1A O 0.61629(10) 0.26407(14) 0.25045(13)
O2A O 0.69135(10) 0.10784(16) 0.25851(15)
N1F N 0.03498(10) 1.08378(15) -0.13689(13)
N1A N 0.53498(10) 0.41622(15) 0.36311(13)
N2F N 0.10761(10) 0.97803(16) -0.01032(13)
C1F C 0.16595(15) 1.1686(2) -0.02880(19)
H1F H 0.1426 1.2441 -0.0508
H2F H 0.1930 1.1692 0.0395
H3F H 0.2030 1.1513 -0.0554
C2F C 0.10277(12) 1.07754(18) -0.05947(15)
C3F C -0.00707(12) 0.98210(17) -0.13794(15)
C4F C -0.08180(12) 0.9438(2) -0.20099(16)
H4F H -0.1129 0.9875 -0.2544
C5F C -0.10793(14) 0.8380(2) -0.18107(19)
H5F H -0.1580 0.8109 -0.2216
C6F C -0.06134(15) 0.7711(2) -0.10209(19)
H6F H -0.0808 0.7000 -0.0917
C7F C 0.01350(15) 0.80756(18) -0.03834(19)
H7F H 0.0448 0.7633 0.0147
C8F C 0.03867(11) 0.91479(17) -0.05908(15)
C9F C 0.17656(13) 0.9294(2) 0.06980(16)
H8F H 0.2141 0.9916 0.1011
H9F H 0.1599 0.8954 0.1160
C10F C 0.21576(13) 0.8367(2) 0.03458(16)
C11F C 0.24103(16) 0.8617(2) -0.0363(2)
H10F H 0.2352 0.9373 -0.0609
C12F C 0.22538(16) 0.7241(2) 0.07054(19)
H11F H 0.2091 0.7060 0.1182
C13A C 0.63000(13) 0.1547(2) 0.25375(16)
C14A C 0.56352(13) 0.07668(18) 0.25249(16)
C15A C 0.56565(17) -0.0451(2) 0.2536(2)
H12A H 0.6102 -0.0851 0.2566
O3 O 0.22948(14) 0.4027(2) 0.17007(17)
loop_
_geom_bond_atom_site_label_1
_geom_bond_atom_site_label_2
_geom_bond_site_symmetry_1
_geom_bond_site_symmetry_2
Zn1 O1 1_555 1_555
O1 C13 1_555 1_555
O2 C13 1_555 1_555
N1 Zn1 1_555 1_555
N2 C2 1_555 1_555
N3 Zn1 1_555 1_555
C1 H1 1_555 1_555
H2 C1 1_555 1_555
H3 C1 1_555 1_555
C2 N1 1_555 1_555
C3 N1 1_555 1_555
C4 C3 1_555 1_555
H4 C4 1_555 1_555
C5 C4 1_555 1_555
H5 C5 1_555 1_555
C6 C5 1_555 1_555
H6 C6 1_555 1_555
C7 C6 1_555 1_555
H7 C7 1_555 1_555
C8 N2 1_555 1_555
C9 N2 1_555 1_555
H8 C9 1_555 1_555
H9 C9 1_555 1_555
C10 C9 1_555 1_555
C11 C10 1_555 1_555
H10 C11 1_555 1_555
C12 C10 1_555 1_555
H11 C12 1_555 1_555
C13 C14 1_555 1_555
C14 N3 1_555 1_555
C15 C14 1_555 1_555
H12 C15 1_555 1_555
C16 C15 1_555 1_555
H13 C16 1_555 1_555
Zn1F N1F 1_555 1_555
O1A Zn1 1_555 1_555
O2A C13A 1_555 1_555
N1F C2F 1_555 1_555
N1A Zn1 1_555 1_555
N2F C2F 1_555 1_555
C1F H1F 1_555 1_555
H2F C1F 1_555 1_555
H3F C1F 1_555 1_555
C2F C1F 1_555 1_555
C3F N1F 1_555 1_555
C4F C3F 1_555 1_555
H4F C4F 1_555 1_555
C5F C4F 1_555 1_555
H5F C5F 1_555 1_555
C6F C5F 1_555 1_555
H6F C6F 1_555 1_555
C7F C6F 1_555 1_555
H7F C7F 1_555 1_555
C8F N2F 1_555 1_555
C9F N2F 1_555 1_555
H8F C9F 1_555 1_555
H9F C9F 1_555 1_555
C10F C9F 1_555 1_555
C11F C12 1_555 1_555
H10F C11F 1_555 1_555
C12F C11 1_555 1_555
H11F C12F 1_555 1_555
C13A O1A 1_555 1_555
C14A N3 1_555 1_555
C15A C16 1_555 1_555
H12A C15A 1_555 1_555
C1 C2 1_555 1_555
C3 C8 1_555 1_555
C7 C8 1_555 1_555
C3F C8F 1_555 1_555
C7F C8F 1_555 1_555
C10F C11F 1_555 1_555
C10F C12F 1_555 1_555
C13A C14A 1_555 1_555
C14A C15A 1_555 1_555

#END
