
#######################################################################
#
#                 Cambridge Crystallographic Data Centre
#                                CCDC 
#
#######################################################################
#
# If this CIF has been generated from an entry in the Cambridge 
# Structural Database, then it will include bibliographic, chemical, 
# crystal, experimental, refinement or atomic coordinate data resulting 
# from the CCDC's data processing and validation procedures.
#
#######################################################################

data_IWENIH
_symmetry_cell_setting           monoclinic
_symmetry_space_group_name_H-M   'P 21/c'
_symmetry_Int_Tables_number      14
_space_group_name_Hall           '-P 2ybc'
loop_
_symmetry_equiv_pos_site_id
_symmetry_equiv_pos_as_xyz
1 x,y,z
2 x,1/2-y,1/2+z
3 -x,-y,-z
4 -x,1/2+y,1/2-z
_cell_length_a                   11.8234(7)
_cell_length_b                   5.9112(4)
_cell_length_c                   14.1916(9)
_cell_angle_alpha                90
_cell_angle_beta                 102.875(1)
_cell_angle_gamma                90
_cell_volume                     966.921
loop_
_atom_site_label
_atom_site_type_symbol
_atom_site_fract_x
_atom_site_fract_y
_atom_site_fract_z
Cd1 Cd 0.5000 0.0000 0.5000
S1 S 0.46644(17) 0.2528(3) 0.65207(12)
O1 O 0.3057(4) 0.0546(7) 0.4234(4)
O2 O 0.0223(10) 0.915(2) 0.4055(10)
O3 O 0.0765(7) 0.9696(11) 0.2712(7)
N1 N 0.2602(4) 0.2548(9) 0.4015(4)
N2 N 0.0770(7) 0.8676(17) 0.3395(10)
N3 N 0.4490(5) 0.6858(8) 0.5715(4)
C1 C 0.2685(6) 0.3601(13) 0.3205(6)
H1 H 0.3115 0.2968 0.2797
C2 C 0.2095(7) 0.5761(15) 0.2964(6)
C3 C 0.1475(6) 0.6475(15) 0.3648(8)
C4 C 0.1438(8) 0.5449(16) 0.4457(9)
H2 H 0.1037 0.6049 0.4894
C5 C 0.2007(6) 0.3499(15) 0.4617(7)
H3 H 0.1992 0.2735 0.5187
C6 C 0.2221(10) 0.677(2) 0.2064(8)
H4 H 0.1908 0.8278 0.2015
H5 H 0.1811 0.5880 0.1532
H6 H 0.3029 0.6833 0.2049
C7 C 0.4561(5) 0.5088(10) 0.6041(4)
S1B S 0.53356(17) -0.2528(3) 0.34793(12)
N3B N 0.5510(5) -0.6858(8) 0.4285(4)
C7B C 0.5439(5) -0.5088(10) 0.3959(4)
O1B O 0.6943(4) -0.0546(7) 0.5766(4)
O2B O 0.9777(10) -0.915(2) 0.5945(10)
O3B O 0.9235(7) -0.9696(11) 0.7288(7)
N1B N 0.7398(4) -0.2548(9) 0.5985(4)
N2B N 0.9230(7) -0.8676(17) 0.6605(10)
C1B C 0.7315(6) -0.3601(13) 0.6795(6)
H1B H 0.6885 -0.2968 0.7203
C2B C 0.7905(7) -0.5761(15) 0.7036(6)
C3B C 0.8525(6) -0.6475(15) 0.6352(8)
C4B C 0.8562(8) -0.5449(16) 0.5543(9)
H2B H 0.8963 -0.6049 0.5106
C5B C 0.7993(6) -0.3499(15) 0.5383(7)
H3B H 0.8008 -0.2735 0.4813
C6B C 0.7779(10) -0.677(2) 0.7936(8)
H4B H 0.8092 -0.8278 0.7985
H5B H 0.8189 -0.5880 0.8468
H6B H 0.6971 -0.6833 0.7951
N3_2 N 0.4490(5) -0.3142(8) 0.5715(4)
N3B_2 N 0.5510(5) 0.3142(8) 0.4285(4)
Cd1_2 Cd 0.5000 1.0000 0.5000
Cd1_3 Cd 0.5000 -1.0000 0.5000
loop_
_geom_bond_atom_site_label_1
_geom_bond_atom_site_label_2
_geom_bond_site_symmetry_1
_geom_bond_site_symmetry_2
Cd1 S1 1_555 1_555
S1 C7 1_555 1_555
O1 Cd1 1_555 1_555
O2 N2 1_555 1_555
O3 N2 1_555 1_555
N1 O1 1_555 1_555
N2 C3 1_555 1_555
N3 C7 1_555 1_555
C1 N1 1_555 1_555
H1 C1 1_555 1_555
C2 C1 1_555 1_555
C3 C2 1_555 1_555
C4 C3 1_555 1_555
H2 C4 1_555 1_555
C5 N1 1_555 1_555
H3 C5 1_555 1_555
C6 C2 1_555 1_555
H4 C6 1_555 1_555
H5 C6 1_555 1_555
H6 C6 1_555 1_555
S1B Cd1 1_555 1_555
N3B C7B 1_555 1_555
C7B S1B 1_555 1_555
O1B Cd1 1_555 1_555
O2B N2B 1_555 1_555
O3B N2B 1_555 1_555
N1B O1B 1_555 1_555
N2B C3B 1_555 1_555
C1B N1B 1_555 1_555
H1B C1B 1_555 1_555
C2B C1B 1_555 1_555
C3B C2B 1_555 1_555
C4B C3B 1_555 1_555
H2B C4B 1_555 1_555
C5B N1B 1_555 1_555
H3B C5B 1_555 1_555
C6B C2B 1_555 1_555
H4B C6B 1_555 1_555
H5B C6B 1_555 1_555
H6B C6B 1_555 1_555
N3_2 Cd1 1_555 1_555
N3B_2 Cd1 1_555 1_555
Cd1_2 N3 1_555 1_555
Cd1_3 N3B 1_555 1_555
C4 C5 1_555 1_555
C4B C5B 1_555 1_555

#END
