
#######################################################################
#
#                 Cambridge Crystallographic Data Centre
#                                CCDC 
#
#######################################################################
#
# If this CIF has been generated from an entry in the Cambridge 
# Structural Database, then it will include bibliographic, chemical, 
# crystal, experimental, refinement or atomic coordinate data resulting 
# from the CCDC's data processing and validation procedures.
#
#######################################################################

data_IWEPEF
_symmetry_cell_setting           triclinic
_symmetry_space_group_name_H-M   'P -1'
_symmetry_Int_Tables_number      2
_space_group_name_Hall           '-P 1'
loop_
_symmetry_equiv_pos_site_id
_symmetry_equiv_pos_as_xyz
1 x,y,z
2 -x,-y,-z
_cell_length_a                   11.0197(2)
_cell_length_b                   14.2975(3)
_cell_length_c                   7.6586(1)
_cell_angle_alpha                95.9760(9)
_cell_angle_beta                 108.026(1)
_cell_angle_gamma                91.373(1)
_cell_volume                     1139.17
loop_
_atom_site_label
_atom_site_type_symbol
_atom_site_fract_x
_atom_site_fract_y
_atom_site_fract_z
Zn1 Zn 1.10367(34) -0.25027(22) 0.5385(4)
O1 O 1.1883(13) -0.3335(9) 0.4080(18)
O2 O 1.1947(12) -0.2160(8) 0.2078(17)
O3 O 0.9523(12) -0.1696(8) 0.4974(18)
O4 O 0.8316(11) -0.2863(8) 0.2883(17)
N1 N 1.2535(15) -0.1620(10) 0.7146(21)
N2 N 1.0499(17) -0.3479(11) 0.6939(21)
C1 C 1.3139(17) -0.3520(12) 0.2103(27)
C2 C 1.3557(19) -0.3196(9) 0.0717(27)
C3 C 1.4287(18) -0.3756(13) -0.0103(22)
C4 C 1.4629(20) -0.4650(12) 0.0472(29)
C5 C 1.4095(18) -0.4986(8) 0.1769(28)
C6 C 1.3475(19) -0.4386(14) 0.2708(20)
C7 C 1.2229(18) -0.2907(11) 0.2893(24)
C8 C 0.7645(15) -0.1405(12) 0.4607(26)
C9 C 0.6362(18) -0.1650(10) 0.3437(22)
C10 C 0.5350(11) -0.1092(14) 0.3636(24)
C11 C 0.5587(13) -0.0258(14) 0.4872(33)
C12 C 0.6878(18) 0.0003(10) 0.5913(21)
C13 C 0.7874(10) -0.0491(13) 0.5591(25)
C14 C 0.8504(13) -0.2118(11) 0.3966(28)
C15 C 1.3756(19) -0.1778(10) 0.7209(24)
C16 C 1.4728(11) -0.1165(14) 0.8379(28)
C17 C 1.4458(15) -0.0379(11) 0.9441(26)
C18 C 1.3154(19) -0.0259(10) 0.9332(23)
C19 C 1.2191(10) -0.0835(14) 0.8001(27)
C20 C 0.9899(20) -0.3137(8) 0.8103(29)
C21 C 0.9651(17) -0.3769(14) 0.9256(24)
C22 C 1.0149(20) -0.4660(12) 0.9364(24)
C23 C 1.0793(18) -0.4976(8) 0.8098(27)
C24 C 1.0934(18) -0.4369(13) 0.6863(22)
C4A C 1.5371(20) -0.5350(12) -0.0472(29)
C3A C 1.5713(18) -0.6244(13) 0.0103(22)
C2A C 1.6443(19) -0.6804(9) -0.0717(27)
C1A C 1.6861(17) -0.6480(12) -0.2103(27)
C6A C 1.6525(19) -0.5614(14) -0.2708(20)
C5A C 1.5905(18) -0.5014(8) -0.1769(28)
C7A C 1.7771(18) -0.7093(11) -0.2893(24)
O1A O 1.8117(13) -0.6665(9) -0.4080(18)
O2A O 1.8053(12) -0.7840(8) -0.2078(17)
C11A C 0.4413(13) 0.0258(14) 0.5128(33)
C10A C 0.4650(11) 0.1092(14) 0.6364(24)
C9A C 0.3638(18) 0.1650(10) 0.6563(22)
C8A C 0.2355(15) 0.1405(12) 0.5393(26)
C13A C 0.2126(10) 0.0491(13) 0.4409(25)
C12A C 0.3122(18) -0.0003(10) 0.4087(21)
C14A C 0.1496(13) 0.2118(11) 0.6034(28)
O3A O 0.0477(12) 0.1696(8) 0.5026(18)
O4A O 0.1684(11) 0.2863(8) 0.7117(17)
C17A C 1.5542(15) 0.0379(11) 1.0559(26)
C16A C 1.5272(11) 0.1165(14) 1.1621(28)
C15A C 1.6244(19) 0.1778(10) 1.2791(24)
N1A N 1.7465(15) 0.1620(10) 1.2854(21)
C19A C 1.7809(10) 0.0835(14) 1.1999(27)
C18A C 1.6846(19) 0.0259(10) 1.0668(23)
C22A C 0.9851(20) -0.5340(12) 1.0636(24)
C21A C 1.0349(17) -0.6231(14) 1.0744(24)
C20A C 1.0101(20) -0.6863(8) 1.1897(29)
N2A N 0.9501(17) -0.6521(11) 1.3061(21)
C24A C 0.9066(18) -0.5631(13) 1.3137(22)
C23A C 0.9207(18) -0.5024(8) 1.1902(27)
Zn1A Zn 1.89633(34) -0.74973(22) -0.5385(4)
Zn1A_2 Zn -0.10367(34) 0.25027(22) 0.4615(4)
Zn1A_3 Zn 1.89633(34) 0.25027(22) 1.4615(4)
Zn1A_4 Zn 0.89633(34) -0.74973(22) 1.4615(4)
O3A_2 O 2.0477(12) -0.8304(8) -0.4974(18)
N1A_2 N 1.7465(15) -0.8380(10) -0.7146(21)
N2A_2 N 1.9501(17) -0.6521(11) -0.6939(21)
O5 O 0.0154(17) 0.0911(10) 0.9438(22)
O6 O 0.2254(15) 0.1983(11) 0.0293(21)
O7 O 0.3918(16) 0.3269(11) 0.3721(23)
loop_
_geom_bond_atom_site_label_1
_geom_bond_atom_site_label_2
_geom_bond_site_symmetry_1
_geom_bond_site_symmetry_2
Zn1 O1 1_555 1_555
O1 C7 1_555 1_555
O2 C7 1_555 1_555
O3 Zn1 1_555 1_555
O4 C14 1_555 1_555
N1 Zn1 1_555 1_555
N2 Zn1 1_555 1_555
C1 C2 1_555 1_555
C2 C3 1_555 1_555
C3 C4 1_555 1_555
C4 C5 1_555 1_555
C5 C6 1_555 1_555
C6 C1 1_555 1_555
C7 C1 1_555 1_555
C8 C9 1_555 1_555
C9 C10 1_555 1_555
C10 C11 1_555 1_555
C11 C12 1_555 1_555
C12 C13 1_555 1_555
C13 C8 1_555 1_555
C14 O3 1_555 1_555
C15 N1 1_555 1_555
C16 C15 1_555 1_555
C17 C16 1_555 1_555
C18 C17 1_555 1_555
C19 N1 1_555 1_555
C20 N2 1_555 1_555
C21 C20 1_555 1_555
C22 C21 1_555 1_555
C23 C22 1_555 1_555
C24 N2 1_555 1_555
C4A C4 1_555 1_555
C3A C4A 1_555 1_555
C2A C3A 1_555 1_555
C1A C2A 1_555 1_555
C6A C1A 1_555 1_555
C5A C4A 1_555 1_555
C7A C1A 1_555 1_555
O1A C7A 1_555 1_555
O2A C7A 1_555 1_555
C11A C11 1_555 1_555
C10A C11A 1_555 1_555
C9A C10A 1_555 1_555
C8A C9A 1_555 1_555
C13A C8A 1_555 1_555
C12A C11A 1_555 1_555
C14A C8A 1_555 1_555
O3A C14A 1_555 1_555
O4A C14A 1_555 1_555
C17A C17 1_555 1_555
C16A C17A 1_555 1_555
C15A C16A 1_555 1_555
N1A C15A 1_555 1_555
C19A N1A 1_555 1_555
C18A C17A 1_555 1_555
C22A C22 1_555 1_555
C21A C22A 1_555 1_555
C20A C21A 1_555 1_555
N2A C20A 1_555 1_555
C24A N2A 1_555 1_555
C23A C22A 1_555 1_555
Zn1A O1A 1_555 1_555
Zn1A_2 O3A 1_555 1_555
Zn1A_3 N1A 1_555 1_555
Zn1A_4 N2A 1_555 1_555
O3A_2 Zn1A 1_555 1_555
N1A_2 Zn1A 1_555 1_555
N2A_2 Zn1A 1_555 1_555
C8 C14 1_555 1_555
C18 C19 1_555 1_555
C23 C24 1_555 1_555
C6A C5A 1_555 1_555
C13A C12A 1_555 1_555
C19A C18A 1_555 1_555
C24A C23A 1_555 1_555

#END
