
#######################################################################
#
#                 Cambridge Crystallographic Data Centre
#                                CCDC 
#
#######################################################################
#
# If this CIF has been generated from an entry in the Cambridge 
# Structural Database, then it will include bibliographic, chemical, 
# crystal, experimental, refinement or atomic coordinate data resulting 
# from the CCDC's data processing and validation procedures.
#
#######################################################################

data_IWEPUV
_symmetry_cell_setting           triclinic
_symmetry_space_group_name_H-M   'P -1'
_symmetry_Int_Tables_number      2
_space_group_name_Hall           '-P 1'
loop_
_symmetry_equiv_pos_site_id
_symmetry_equiv_pos_as_xyz
1 x,y,z
2 -x,-y,-z
_cell_length_a                   7.6595(8)
_cell_length_b                   10.101(1)
_cell_length_c                   11.260(1)
_cell_angle_alpha                107.555(2)
_cell_angle_beta                 105.174(2)
_cell_angle_gamma                98.975(2)
_cell_volume                     775.068
loop_
_atom_site_label
_atom_site_type_symbol
_atom_site_fract_x
_atom_site_fract_y
_atom_site_fract_z
Fe1 Fe 0.19246(8) 0.56538(6) 0.48827(6)
Fe2 Fe -0.34968(8) 0.90558(6) 0.35380(6)
P1 P 0.0486(2) 0.8073(1) 0.3831(1)
P2 P 0.5494(2) 0.8359(1) 0.5947(1)
F1 F 0.0253(3) 0.6066(2) 0.5957(2)
F2 F 0.3136(3) 0.4693(2) 0.3736(2)
O1 O 0.0865(4) 0.6623(3) 0.3753(3)
O2 O -0.1605(4) 0.7916(3) 0.3596(3)
O3 O 0.1720(4) 0.9253(3) 0.5107(3)
O4 O 0.0881(4) 0.8424(3) 0.2642(3)
O5 O 0.3935(4) 0.7303(3) 0.6039(3)
O6 O 0.5383(4) 0.8100(3) 0.4528(3)
O7 O 0.5581(4) 0.9918(3) 0.6692(3)
O8 O 0.7391(4) 0.8126(3) 0.6703(3)
O9 O 0.3169(4) 0.4677(3) 0.6157(3)
N1 N -0.5314(5) 0.7321(4) 0.1738(4)
N2 N -0.2890(5) 0.9590(4) 0.1956(4)
C1 C -0.6558(6) 0.6205(5) 0.1703(5)
C2 C -0.7655(7) 0.5109(5) 0.0546(5)
C3 C -0.7487(8) 0.5181(6) -0.0627(6)
C4 C -0.6250(7) 0.6327(5) -0.0615(5)
C5 C -0.5154(6) 0.7377(5) 0.0584(4)
C6 C -0.3778(6) 0.8662(5) 0.0716(4)
C7 C -0.3446(7) 0.8929(6) -0.0345(5)
C8 C -0.2205(7) 1.0190(6) -0.0136(5)
C9 C -0.1330(7) 1.1134(6) 0.1121(5)
C10 C -0.1676(6) 1.0809(5) 0.2165(5)
F1A F -0.0253(3) 0.3934(2) 0.4043(2)
O3A O -0.1720(4) 1.0747(3) 0.4893(3)
O6_2 O -0.4617(4) 0.8100(3) 0.4528(3)
O7A O -0.5581(4) 1.0082(3) 0.3308(3)
Fe1A Fe -0.19246(8) 0.43462(6) 0.51173(6)
Fe2A Fe 0.34968(8) 1.09442(6) 0.64620(6)
Fe2_2 Fe 0.65032(8) 0.90558(6) 0.35380(6)
loop_
_geom_bond_atom_site_label_1
_geom_bond_atom_site_label_2
_geom_bond_site_symmetry_1
_geom_bond_site_symmetry_2
Fe1 F1 1_555 1_555
Fe2 O2 1_555 1_555
P1 O1 1_555 1_555
P2 O5 1_555 1_555
F1 Fe1A 1_555 1_555
F2 Fe1 1_555 1_555
O1 Fe1 1_555 1_555
O2 P1 1_555 1_555
O3 P1 1_555 1_555
O4 P1 1_555 1_555
O5 Fe1 1_555 1_555
O6 P2 1_555 1_555
O7 P2 1_555 1_555
O8 P2 1_555 1_555
O9 Fe1 1_555 1_555
N1 Fe2 1_555 1_555
N2 Fe2 1_555 1_555
C1 N1 1_555 1_555
C2 C1 1_555 1_555
C3 C2 1_555 1_555
C4 C3 1_555 1_555
C5 N1 1_555 1_555
C6 N2 1_555 1_555
C7 C6 1_555 1_555
C8 C7 1_555 1_555
C9 C8 1_555 1_555
C10 N2 1_555 1_555
F1A Fe1 1_555 1_555
O3A Fe2 1_555 1_555
O6_2 Fe2 1_555 1_555
O7A Fe2 1_555 1_555
Fe1A F1A 1_555 1_555
Fe2A O3 1_555 1_555
Fe2_2 O6 1_555 1_555
O7 Fe2A 1_555 1_555
C4 C5 1_555 1_555
C5 C6 1_555 1_555
C9 C10 1_555 1_555

#END
