
#######################################################################
#
#                 Cambridge Crystallographic Data Centre
#                                CCDC 
#
#######################################################################
#
# If this CIF has been generated from an entry in the Cambridge 
# Structural Database, then it will include bibliographic, chemical, 
# crystal, experimental, refinement or atomic coordinate data resulting 
# from the CCDC's data processing and validation procedures.
#
#######################################################################

data_IWEPIJ
_symmetry_cell_setting           triclinic
_symmetry_space_group_name_H-M   'P -1'
_symmetry_Int_Tables_number      2
_space_group_name_Hall           '-P 1'
loop_
_symmetry_equiv_pos_site_id
_symmetry_equiv_pos_as_xyz
1 x,y,z
2 -x,-y,-z
_cell_length_a                   11.1844(6)
_cell_length_b                   14.0497(7)
_cell_length_c                   7.7198(3)
_cell_angle_alpha                96.917(2)
_cell_angle_beta                 109.527(2)
_cell_angle_gamma                89.115(3)
_cell_volume                     1134.58
loop_
_atom_site_label
_atom_site_type_symbol
_atom_site_fract_x
_atom_site_fract_y
_atom_site_fract_z
Zn1 Zn 1.1070(5) -0.2553(4) 0.5404(7)
O1 O 1.1992(18) -0.3586(12) 0.4361(26)
O2 O 1.1936(16) -0.2264(10) 0.2685(23)
O3 O 0.9628(18) -0.1716(11) 0.5209(21)
O4 O 0.8436(16) -0.2808(11) 0.3259(22)
N1 N 1.2567(20) -0.1662(16) 0.7248(32)
N2 N 1.0784(23) -0.3574(15) 0.7117(28)
C1 C 1.3061(24) -0.3616(20) 0.218(4)
C2 C 1.3306(24) -0.3315(12) 0.065(4)
C3 C 1.4298(25) -0.3731(20) 0.0158(29)
C4 C 1.4677(25) -0.4663(19) 0.057(4)
C5 C 1.4263(30) -0.5046(12) 0.191(4)
C6 C 1.3396(26) -0.4544(22) 0.2593(32)
C7 C 1.2217(29) -0.3100(14) 0.321(4)
C8 C 0.7545(21) -0.1304(20) 0.442(4)
C9 C 0.6342(30) -0.1746(10) 0.3705(32)
C10 C 0.5306(16) -0.1248(20) 0.3904(35)
C11 C 0.5512(20) -0.0317(20) 0.483(4)
C12 C 0.6727(30) 0.0070(13) 0.5785(33)
C13 C 0.7766(14) -0.0476(21) 0.570(4)
C14 C 0.8559(16) -0.1937(13) 0.3982(29)
C15 C 1.3776(27) -0.1835(15) 0.7283(35)
C16 C 1.4763(13) -0.1221(20) 0.845(4)
C17 C 1.4489(23) -0.0382(19) 0.942(4)
C18 C 1.3209(29) -0.0207(13) 0.9219(35)
C19 C 1.2240(13) -0.0819(22) 0.801(4)
C20 C 1.0004(26) -0.3164(10) 0.802(4)
C21 C 0.9753(22) -0.3655(16) 0.9335(33)
C22 C 0.9969(27) -0.4622(16) 0.938(4)
C23 C 1.0807(25) -0.5032(10) 0.8420(34)
C24 C 1.1009(22) -0.4536(16) 0.7056(27)
C4A C 1.5323(25) -0.5337(19) -0.057(4)
C3A C 1.5702(25) -0.6269(20) -0.0158(29)
C2A C 1.6694(24) -0.6685(12) -0.065(4)
C1A C 1.6939(24) -0.6384(20) -0.218(4)
C6A C 1.6604(26) -0.5456(22) -0.2593(32)
C5A C 1.5737(30) -0.4954(12) -0.191(4)
C7A C 1.7783(29) -0.6900(14) -0.321(4)
O1A O 1.8008(18) -0.6414(12) -0.4361(26)
O2A O 1.8064(16) -0.7736(10) -0.2685(23)
C11A C 0.4488(20) 0.0317(20) 0.517(4)
C10A C 0.4694(16) 0.1248(20) 0.6096(35)
C9A C 0.3658(30) 0.1746(10) 0.6295(32)
C8A C 0.2455(21) 0.1304(20) 0.558(4)
C13A C 0.2234(14) 0.0476(21) 0.430(4)
C12A C 0.3273(30) -0.0070(13) 0.4215(33)
C14A C 0.1441(16) 0.1937(13) 0.6018(29)
O3A O 0.0372(18) 0.1716(11) 0.4791(21)
O4A O 0.1564(16) 0.2808(11) 0.6741(22)
C17A C 1.5511(23) 0.0382(19) 1.058(4)
C16A C 1.5237(13) 0.1221(20) 1.155(4)
C15A C 1.6224(27) 0.1835(15) 1.2717(35)
N1A N 1.7433(20) 0.1662(16) 1.2752(32)
C19A C 1.7760(13) 0.0819(22) 1.199(4)
C18A C 1.6791(29) 0.0207(13) 1.0781(35)
C22A C 1.0031(27) -0.5378(16) 1.062(4)
C21A C 1.0247(22) -0.6345(16) 1.0665(33)
C20A C 0.9996(26) -0.6836(10) 1.198(4)
N2A N 0.9216(23) -0.6426(15) 1.2883(28)
C24A C 0.8991(22) -0.5464(16) 1.2944(27)
C23A C 0.9193(25) -0.4968(10) 1.1580(34)
Zn1A Zn 1.8930(5) -0.7447(4) -0.5404(7)
Zn1A_2 Zn -0.1070(5) 0.2553(4) 0.4596(7)
Zn1A_3 Zn 1.8930(5) 0.2553(4) 1.4596(7)
Zn1A_4 Zn 0.8930(5) -0.7447(4) 1.4596(7)
O3A_2 O 2.0372(18) -0.8284(11) -0.5209(21)
N1A_2 N 1.7433(20) -0.8338(16) -0.7248(32)
N2A_2 N 1.9216(23) -0.6426(15) -0.7117(28)
loop_
_geom_bond_atom_site_label_1
_geom_bond_atom_site_label_2
_geom_bond_site_symmetry_1
_geom_bond_site_symmetry_2
Zn1 O1 1_555 1_555
O1 C7 1_555 1_555
O2 C7 1_555 1_555
O3 Zn1 1_555 1_555
O4 C14 1_555 1_555
N1 Zn1 1_555 1_555
N2 Zn1 1_555 1_555
C1 C2 1_555 1_555
C2 C3 1_555 1_555
C3 C4 1_555 1_555
C4 C5 1_555 1_555
C5 C6 1_555 1_555
C6 C1 1_555 1_555
C7 C1 1_555 1_555
C8 C9 1_555 1_555
C9 C10 1_555 1_555
C10 C11 1_555 1_555
C11 C12 1_555 1_555
C12 C13 1_555 1_555
C13 C8 1_555 1_555
C14 O3 1_555 1_555
C15 N1 1_555 1_555
C16 C15 1_555 1_555
C17 C16 1_555 1_555
C18 C17 1_555 1_555
C19 N1 1_555 1_555
C20 N2 1_555 1_555
C21 C20 1_555 1_555
C22 C21 1_555 1_555
C23 C22 1_555 1_555
C24 N2 1_555 1_555
C4A C4 1_555 1_555
C3A C4A 1_555 1_555
C2A C3A 1_555 1_555
C1A C2A 1_555 1_555
C6A C1A 1_555 1_555
C5A C4A 1_555 1_555
C7A C1A 1_555 1_555
O1A C7A 1_555 1_555
O2A C7A 1_555 1_555
C11A C11 1_555 1_555
C10A C11A 1_555 1_555
C9A C10A 1_555 1_555
C8A C9A 1_555 1_555
C13A C8A 1_555 1_555
C12A C11A 1_555 1_555
C14A C8A 1_555 1_555
O3A C14A 1_555 1_555
O4A C14A 1_555 1_555
C17A C17 1_555 1_555
C16A C17A 1_555 1_555
C15A C16A 1_555 1_555
N1A C15A 1_555 1_555
C19A N1A 1_555 1_555
C18A C17A 1_555 1_555
C22A C22 1_555 1_555
C21A C22A 1_555 1_555
C20A C21A 1_555 1_555
N2A C20A 1_555 1_555
C24A N2A 1_555 1_555
C23A C22A 1_555 1_555
Zn1A O1A 1_555 1_555
Zn1A_2 O3A 1_555 1_555
Zn1A_3 N1A 1_555 1_555
Zn1A_4 N2A 1_555 1_555
O3A_2 Zn1A 1_555 1_555
N1A_2 Zn1A 1_555 1_555
N2A_2 Zn1A 1_555 1_555
C8 C14 1_555 1_555
C18 C19 1_555 1_555
C23 C24 1_555 1_555
C6A C5A 1_555 1_555
C13A C12A 1_555 1_555
C19A C18A 1_555 1_555
C24A C23A 1_555 1_555

#END
