
#######################################################################
#
#                 Cambridge Crystallographic Data Centre
#                                CCDC 
#
#######################################################################
#
# If this CIF has been generated from an entry in the Cambridge 
# Structural Database, then it will include bibliographic, chemical, 
# crystal, experimental, refinement or atomic coordinate data resulting 
# from the CCDC's data processing and validation procedures.
#
#######################################################################

data_IWEPEG
_symmetry_cell_setting           triclinic
_symmetry_space_group_name_H-M   'P -1'
_symmetry_Int_Tables_number      2
_space_group_name_Hall           '-P 1'
loop_
_symmetry_equiv_pos_site_id
_symmetry_equiv_pos_as_xyz
1 x,y,z
2 -x,-y,-z
_cell_length_a                   6.709(2)
_cell_length_b                   11.932(5)
_cell_length_c                   12.869(4)
_cell_angle_alpha                107.062(13)
_cell_angle_beta                 95.121(12)
_cell_angle_gamma                100.054(14)
_cell_volume                     958.862
loop_
_atom_site_label
_atom_site_type_symbol
_atom_site_fract_x
_atom_site_fract_y
_atom_site_fract_z
Cu1 Cu 1.03750(3) -0.511860(17) 0.379540(16)
Cu2 Cu 1.5000 0.5000 0.5000
O1 O 1.4998(2) 0.43249(12) 0.65480(11)
O2 O 1.7022(2) 0.56356(12) 0.80147(11)
O3 O 1.3386(2) 0.01387(13) 0.61739(11)
H1 H 1.296(4) -0.061(3) 0.580(2)
O4 O 1.3940(2) -0.05293(12) 0.76052(12)
O5 O 1.0353(2) -0.35998(11) 0.34784(11)
O6 O 1.2010(2) -0.20592(12) 0.49281(11)
O7 O 0.8677(2) -0.33512(12) -0.00630(11)
H2 H 0.811(4) -0.369(2) -0.075(2)
O8 O 0.9048(3) -0.16156(14) -0.04246(13)
O9 O 1.23166(19) 0.55161(11) 0.51159(10)
H3 H 1.254(4) 0.618(2) 0.527(2)
N1 N 1.6587(2) 0.32802(13) 1.08280(12)
N2 N 1.8271(2) 0.40723(13) 1.24848(12)
N3 N 1.6800(2) 0.31056(14) 1.24908(13)
N4 N 1.1747(2) 0.14916(13) 0.33491(12)
N5 N 1.3213(2) 0.33616(13) 0.41932(12)
N6 N 1.1291(2) 0.33181(13) 0.36845(12)
C1 C 1.5999(3) 0.30119(16) 0.96694(14)
C2 C 1.6201(3) 0.39350(16) 0.92063(14)
H4 H 1.6737 0.4741 0.9654
C3 C 1.5609(3) 0.36665(15) 0.80755(14)
C4 C 1.4813(3) 0.24884(16) 0.74347(14)
H5 H 1.4359 0.2307 0.6672
C5 C 1.4673(3) 0.15687(15) 0.79038(14)
C6 C 1.5281(3) 0.18291(16) 0.90306(14)
H6 H 1.5202 0.1204 0.9352
C7 C 1.8120(3) 0.41688(15) 1.14968(14)
H7 H 1.8952 0.4766 1.1280
C8 C 1.5820(3) 0.26516(16) 1.14930(15)
H8 H 1.4717 0.1973 1.1256
C9 C 1.5879(3) 0.46183(16) 0.75037(14)
C10 C 1.3963(3) 0.02873(16) 0.72271(15)
C11 C 1.1289(3) 0.02003(15) 0.29247(15)
C12 C 1.1469(3) -0.04595(15) 0.36469(15)
H9 H 1.1962 -0.0066 0.4406
C13 C 1.0911(3) -0.17082(15) 0.32354(14)
C14 C 1.0152(3) -0.22546(15) 0.21219(15)
H10 H 0.9726 -0.3103 0.1844
C15 C 1.0007(3) -0.15831(15) 0.14111(14)
C16 C 1.0589(3) -0.03351(15) 0.18109(15)
H11 H 1.0508 0.0135 0.1333
C17 C 1.3454(3) 0.22604(15) 0.39846(15)
H12 H 1.4644 0.2030 0.4239
C18 C 1.0443(3) 0.21952(15) 0.31832(15)
H13 H 0.9113 0.1911 0.2765
C19 C 1.1113(3) -0.25062(15) 0.39531(14)
C20 C 0.9204(3) -0.21838(16) 0.02101(15)
Cu1A Cu 1.96250(3) 1.511860(17) 0.620460(16)
Cu1_2 Cu 1.03750(3) 0.488140(17) 0.379540(16)
Cu1_3 Cu 2.03750(3) 0.488140(17) 1.379540(16)
Cu1A_2 Cu 0.96250(3) 0.511860(17) -0.379540(16)
Cu1A_3 Cu 1.96250(3) 0.511860(17) 0.620460(16)
O1A O 1.5002(2) 0.56751(12) 0.34520(11)
O2A O 1.2978(2) 0.43644(12) 0.19853(11)
O3A O 1.6614(2) 0.98613(13) 0.38261(11)
H1A H 1.704(4) 1.061(3) 0.420(2)
O4A O 1.6060(2) 1.05293(12) 0.23948(12)
O5A O 1.9647(2) 1.35998(11) 0.65216(11)
O6A O 1.7990(2) 1.20592(12) 0.50719(11)
O7A O 2.1323(2) 1.33512(12) 1.00630(11)
H2A H 2.189(4) 1.369(2) 1.075(2)
O8A O 2.0952(3) 1.16156(14) 1.04246(13)
O9A O 1.76834(19) 0.44839(11) 0.48841(10)
O9_2 O 1.23166(19) -0.44839(11) 0.51159(10)
O9A_2 O 1.76834(19) 1.44839(11) 0.48841(10)
H3A H 1.746(4) 0.382(2) 0.473(2)
H3_2 H 1.254(4) -0.382(2) 0.527(2)
H3A_2 H 1.746(4) 1.382(2) 0.473(2)
N1A N 1.3413(2) 0.67198(13) -0.08280(12)
N2A N 1.1729(2) 0.59277(13) -0.24848(12)
N2_2 N 0.8271(2) -0.59277(13) 0.24848(12)
N2A_2 N 2.1729(2) 1.59277(13) 0.75152(12)
N3A N 1.3200(2) 0.68944(14) -0.24908(13)
N4A N 1.8253(2) 0.85084(13) 0.66509(12)
N5A N 1.6787(2) 0.66384(13) 0.58068(12)
N6A N 1.8709(2) 0.66819(13) 0.63155(12)
N6_2 N 1.1291(2) -0.66819(13) 0.36845(12)
N6A_2 N 1.8709(2) 1.66819(13) 0.63155(12)
C1A C 1.4001(3) 0.69881(16) 0.03306(14)
C2A C 1.3799(3) 0.60650(16) 0.07937(14)
H4A H 1.3263 0.5259 0.0346
C3A C 1.4391(3) 0.63335(15) 0.19245(14)
C4A C 1.5187(3) 0.75116(16) 0.25653(14)
H5A H 1.5641 0.7693 0.3328
C5A C 1.5327(3) 0.84313(15) 0.20962(14)
C6A C 1.4719(3) 0.81709(16) 0.09694(14)
H6A H 1.4798 0.8796 0.0648
C7A C 1.1880(3) 0.58312(15) -0.14968(14)
H7A H 1.1048 0.5234 -0.1280
C8A C 1.4180(3) 0.73484(16) -0.14930(15)
H8A H 1.5283 0.8027 -0.1256
C9A C 1.4121(3) 0.53817(16) 0.24963(14)
C10A C 1.6037(3) 0.97127(16) 0.27729(15)
C11A C 1.8711(3) 0.97997(15) 0.70753(15)
C12A C 1.8531(3) 1.04595(15) 0.63531(15)
H9A H 1.8038 1.0066 0.5594
C13A C 1.9089(3) 1.17082(15) 0.67646(14)
C14A C 1.9848(3) 1.22546(15) 0.78781(15)
H10A H 2.0274 1.3103 0.8156
C15A C 1.9993(3) 1.15831(15) 0.85889(14)
C16A C 1.9411(3) 1.03351(15) 0.81891(15)
H11A H 1.9492 0.9865 0.8667
C17A C 1.6546(3) 0.77396(15) 0.60154(15)
H12A H 1.5356 0.7970 0.5761
C18A C 1.9557(3) 0.78048(15) 0.68168(15)
H13A H 2.0887 0.8089 0.7235
C19A C 1.8887(3) 1.25062(15) 0.60469(14)
C20A C 2.0796(3) 1.21838(16) 0.97899(15)
loop_
_geom_bond_atom_site_label_1
_geom_bond_atom_site_label_2
_geom_bond_site_symmetry_1
_geom_bond_site_symmetry_2
Cu1 O5 1_555 1_555
Cu2 O1 1_555 1_555
O1 C9 1_555 1_555
O2 C9 1_555 1_555
O3 H1 1_555 1_555
O4 C10 1_555 1_555
O5 C19 1_555 1_555
O6 C19 1_555 1_555
O7 H2 1_555 1_555
O8 C20 1_555 1_555
O9 Cu2 1_555 1_555
H3 O9 1_555 1_555
N1 C1 1_555 1_555
N2 N3 1_555 1_555
N3 C8 1_555 1_555
N4 C11 1_555 1_555
N5 Cu2 1_555 1_555
N6 N5 1_555 1_555
C1 C2 1_555 1_555
C2 H4 1_555 1_555
C3 C2 1_555 1_555
C4 C3 1_555 1_555
H5 C4 1_555 1_555
C5 C4 1_555 1_555
C6 C1 1_555 1_555
H6 C6 1_555 1_555
C7 N1 1_555 1_555
H7 C7 1_555 1_555
C8 N1 1_555 1_555
H8 C8 1_555 1_555
C9 C3 1_555 1_555
C10 O3 1_555 1_555
C11 C12 1_555 1_555
C12 H9 1_555 1_555
C13 C12 1_555 1_555
C14 C13 1_555 1_555
H10 C14 1_555 1_555
C15 C14 1_555 1_555
C16 C11 1_555 1_555
H11 C16 1_555 1_555
C17 N4 1_555 1_555
H12 C17 1_555 1_555
C18 N4 1_555 1_555
H13 C18 1_555 1_555
C19 C13 1_555 1_555
C20 O7 1_555 1_555
Cu1A O5A 1_555 1_555
Cu1_2 O9 1_555 1_555
Cu1_3 N2 1_555 1_555
Cu1A_2 N2A 1_555 1_555
Cu1A_3 O9A 1_555 1_555
O1A Cu2 1_555 1_555
O2A C9A 1_555 1_555
O3A H1A 1_555 1_555
O4A C10A 1_555 1_555
O5A C19A 1_555 1_555
O6A C19A 1_555 1_555
O7A H2A 1_555 1_555
O8A C20A 1_555 1_555
O9A Cu2 1_555 1_555
O9_2 Cu1 1_555 1_555
O9A_2 Cu1A 1_555 1_555
H3A O9A 1_555 1_555
H3_2 O9_2 1_555 1_555
H3A_2 O9A_2 1_555 1_555
N1A C1A 1_555 1_555
N2A N3A 1_555 1_555
N2_2 Cu1 1_555 1_555
N2A_2 Cu1A 1_555 1_555
N3A C8A 1_555 1_555
N4A C11A 1_555 1_555
N5A Cu2 1_555 1_555
N6A Cu1A_3 1_555 1_555
N6_2 Cu1 1_555 1_555
N6A_2 Cu1A 1_555 1_555
C1A C2A 1_555 1_555
C2A H4A 1_555 1_555
C3A C2A 1_555 1_555
C4A C3A 1_555 1_555
H5A C4A 1_555 1_555
C5A C4A 1_555 1_555
C6A C1A 1_555 1_555
H6A C6A 1_555 1_555
C7A N1A 1_555 1_555
H7A C7A 1_555 1_555
C8A N1A 1_555 1_555
H8A C8A 1_555 1_555
C9A O1A 1_555 1_555
C10A O3A 1_555 1_555
C11A C12A 1_555 1_555
C12A H9A 1_555 1_555
C13A C12A 1_555 1_555
C14A C13A 1_555 1_555
H10A C14A 1_555 1_555
C15A C14A 1_555 1_555
C16A C11A 1_555 1_555
H11A C16A 1_555 1_555
C17A N4A 1_555 1_555
H12A C17A 1_555 1_555
C18A N4A 1_555 1_555
H13A C18A 1_555 1_555
C19A C13A 1_555 1_555
C20A O7A 1_555 1_555
N2 C7 1_555 1_555
N5 C17 1_555 1_555
N6 C18 1_555 1_555
N6 Cu1_2 1_555 1_555
C5 C6 1_555 1_555
C5 C10 1_555 1_555
C15 C16 1_555 1_555
C15 C20 1_555 1_555
N2A C7A 1_555 1_555
N5A N6A 1_555 1_555
N5A C17A 1_555 1_555
N6A C18A 1_555 1_555
C3A C9A 1_555 1_555
C5A C6A 1_555 1_555
C5A C10A 1_555 1_555
C15A C16A 1_555 1_555
C15A C20A 1_555 1_555

#END
