
#######################################################################
#
#                 Cambridge Crystallographic Data Centre
#                                CCDC 
#
#######################################################################
#
# If this CIF has been generated from an entry in the Cambridge 
# Structural Database, then it will include bibliographic, chemical, 
# crystal, experimental, refinement or atomic coordinate data resulting 
# from the CCDC's data processing and validation procedures.
#
#######################################################################

data_IWEQOR
_symmetry_cell_setting           orthorhombic
_symmetry_space_group_name_H-M   'P b c n'
_symmetry_Int_Tables_number      60
_space_group_name_Hall           '-P 2n 2ab'
loop_
_symmetry_equiv_pos_site_id
_symmetry_equiv_pos_as_xyz
1 x,y,z
2 1/2-x,1/2-y,1/2+z
3 1/2+x,1/2-y,-z
4 -x,y,1/2-z
5 -x,-y,-z
6 1/2+x,1/2+y,1/2-z
7 1/2-x,1/2+y,z
8 x,-y,1/2+z
_cell_length_a                   10.531(3)
_cell_length_b                   14.549(6)
_cell_length_c                   7.681(3)
_cell_angle_alpha                90
_cell_angle_beta                 90
_cell_angle_gamma                90
_cell_volume                     1176.85
loop_
_atom_site_label
_atom_site_type_symbol
_atom_site_fract_x
_atom_site_fract_y
_atom_site_fract_z
Mn1 Mn 0.5000 1.0000 0.5000
O1 O 0.69940(10) 0.98871(6) 0.53209(15)
O2 O 0.78622(9) 0.85255(6) 0.59678(13)
O3 O 0.5000 1.08217(10) 0.7500
H1 H 0.5614(17) 1.1187(13) 0.761(2)
N1 N 1.0000 1.22993(11) 0.7500
N2 N 0.97882(10) 1.37236(7) 0.83525(15)
C1 C 1.0000 1.13061(13) 0.7500
C2 C 0.89841(11) 1.08436(9) 0.67556(17)
H4 H 0.8303 1.1175 0.6243
C3 C 0.89761(11) 0.98872(8) 0.67694(18)
C4 C 1.0000 0.94104(13) 0.7500
H5 H 1.0000 0.8757 0.7500
C5 C 0.96702(12) 1.28656(9) 0.88302(17)
H6 H 0.9394 1.2667 0.9946
C6 C 0.78571(11) 0.93885(9) 0.59706(16)
Mn1C Mn 0.5000 1.0000 1.0000
Mn1A Mn 1.0000 1.5000 1.0000
Mn1B Mn 1.0000 1.5000 0.5000
Mn1C_2 Mn 1.5000 1.0000 1.0000
O1C O 1.30060(10) 0.98871(6) 0.96791(15)
O1D O 0.30060(10) 1.01129(6) 0.46791(15)
O2C O 1.21378(9) 0.85255(6) 0.90322(13)
O3D O 0.5000 0.91783(10) 0.2500
H1C H 0.4386(17) 1.1187(13) 0.739(2)
H1G H 0.5614(17) 0.8813(13) 0.261(2)
H1D H 0.4386(17) 0.8813(13) 0.239(2)
N2C N 1.02118(10) 1.37236(7) 0.66475(15)
N2A N 0.52118(10) 1.12764(7) 0.33525(15)
N2E N 0.47882(10) 0.87236(7) 0.66475(15)
C2C C 1.10159(11) 1.08436(9) 0.82444(17)
H4C H 1.1697 1.1175 0.8757
C3C C 1.10239(11) 0.98872(8) 0.82306(18)
C5C C 1.03298(12) 1.28656(9) 0.61698(17)
H6C H 1.0606 1.2667 0.5054
C6C C 1.21429(11) 0.93885(9) 0.90294(16)
O4 O 0.34279(11) 0.21483(8) 0.68101(16)
H2 H 0.317(2) 0.2611(14) 0.734(3)
H3 H 0.2964(19) 0.2048(14) 0.599(3)
loop_
_geom_bond_atom_site_label_1
_geom_bond_atom_site_label_2
_geom_bond_site_symmetry_1
_geom_bond_site_symmetry_2
Mn1 O1 1_555 1_555
O1 C6 1_555 1_555
O2 C6 1_555 1_555
O3 Mn1 1_555 1_555
H1 O3 1_555 1_555
O4 H2 1_555 1_555
H3 O4 1_555 1_555
N1 C1 1_555 1_555
N2 C5 1_555 1_555
C1 C2 1_555 1_555
C2 H4 1_555 1_555
C3 C2 1_555 1_555
C4 C3 1_555 1_555
H5 C4 1_555 1_555
C5 N1 1_555 1_555
H6 C5 1_555 1_555
C6 C3 1_555 1_555
Mn1C O3 1_555 1_555
Mn1A N2 1_555 1_555
Mn1B N2C 1_555 1_555
Mn1C_2 O1C 1_555 1_555
O1C C6C 1_555 1_555
O1D Mn1 1_555 1_555
O2C C6C 1_555 1_555
O3D Mn1 1_555 1_555
H1C O3 1_555 1_555
H1G O3D 1_555 1_555
H1D O3D 1_555 1_555
N2C N2 1_555 1_555
N2A Mn1 1_555 1_555
N2E Mn1 1_555 1_555
C2C C1 1_555 1_555
H4C C2C 1_555 1_555
C3C C4 1_555 1_555
C5C N1 1_555 1_555
H6C C5C 1_555 1_555
C6C C3C 1_555 1_555
N2C C5C 1_555 1_555
C2C C3C 1_555 1_555

#END
