
#######################################################################
#
#                 Cambridge Crystallographic Data Centre
#                                CCDC 
#
#######################################################################
#
# If this CIF has been generated from an entry in the Cambridge 
# Structural Database, then it will include bibliographic, chemical, 
# crystal, experimental, refinement or atomic coordinate data resulting 
# from the CCDC's data processing and validation procedures.
#
#######################################################################

data_IWEQIK
_symmetry_cell_setting           triclinic
_symmetry_space_group_name_H-M   'P -1'
_symmetry_Int_Tables_number      2
_space_group_name_Hall           '-P 1'
loop_
_symmetry_equiv_pos_site_id
_symmetry_equiv_pos_as_xyz
1 x,y,z
2 -x,-y,-z
_cell_length_a                   5.1111(7)
_cell_length_b                   5.9327(8)
_cell_length_c                   11.788(2)
_cell_angle_alpha                79.497(2)
_cell_angle_beta                 88.870(2)
_cell_angle_gamma                88.784(2)
_cell_volume                     351.329
loop_
_atom_site_label
_atom_site_type_symbol
_atom_site_fract_x
_atom_site_fract_y
_atom_site_fract_z
Ga1 Ga 0.66357(6) 0.79160(5) 0.89350(3)
As1 As 1.14855(6) 0.72316(5) 1.07450(2)
O1 O 0.8346(4) 0.7074(4) 1.0400(2)
O2 O 1.3278(4) 0.7882(4) 0.9536(2)
O3 O 1.1800(4) 0.9268(4) 1.1563(2)
O4 O 1.2412(4) 0.4763(4) 1.1609(2)
N1 N 0.4490(5) 0.8747(4) 0.7305(2)
C1 C 0.2856(7) 0.7174(6) 0.7082(3)
C2 C 0.1075(7) 0.7593(6) 0.6199(3)
C3 C 0.0938(6) 0.9753(6) 0.5482(3)
C4 C 0.2633(8) 1.1390(6) 0.5736(4)
C5 C 0.4374(8) 1.0832(6) 0.6640(3)
H1 H 0.278(7) 0.583(6) 0.761(4)
H2 H 0.279(9) 1.286(7) 0.519(4)
H3 H 0.003(8) 0.645(7) 0.604(4)
H4 H 0.57(1) 1.19(1) 0.672(6)
C3A C -0.0938(6) 1.0247(6) 0.4518(3)
C2A C -0.1075(7) 1.2407(6) 0.3801(3)
C1A C -0.2856(7) 1.2826(6) 0.2918(3)
N1A N -0.4490(5) 1.1253(4) 0.2695(2)
C5A C -0.4374(8) 0.9168(6) 0.3360(3)
C4A C -0.2633(8) 0.8610(6) 0.4264(4)
H2A H -0.279(9) 0.714(7) 0.481(4)
H4A H -0.57(1) 0.81(1) 0.328(6)
H1A H -0.278(7) 1.417(6) 0.239(4)
H3A H -0.003(8) 1.355(7) 0.396(4)
As1_2 As 0.14855(6) 0.72316(5) 1.07450(2)
O1_2 O -0.1654(4) 0.7074(4) 1.0400(2)
O2_2 O 0.3278(4) 0.7882(4) 0.9536(2)
O3_2 O 0.1800(4) 0.9268(4) 1.1563(2)
O4_2 O 0.2412(4) 0.4763(4) 1.1609(2)
Ga1_2 Ga -0.33643(6) 0.79160(5) 0.89350(3)
O3A O 0.8200(4) 1.0732(4) 0.8437(2)
O4A O 0.7588(4) 0.5237(4) 0.8391(2)
Ga1_3 Ga 1.66357(6) 0.79160(5) 0.89350(3)
Ga1A Ga 1.33643(6) 1.20840(5) 1.10650(3)
Ga1A_2 Ga 1.33643(6) 0.20840(5) 1.10650(3)
Ga1A_3 Ga -0.66357(6) 1.20840(5) 0.10650(3)
Ga1A_4 Ga 0.33643(6) 1.20840(5) 1.10650(3)
Ga1A_5 Ga 0.33643(6) 0.20840(5) 1.10650(3)
O2_3 O -0.6722(4) 0.7882(4) 0.9536(2)
O3A_2 O -0.1800(4) 1.0732(4) 0.8437(2)
O4A_2 O -0.2412(4) 0.5237(4) 0.8391(2)
N1_2 N -0.5510(5) 0.8747(4) 0.7305(2)
loop_
_geom_bond_atom_site_label_1
_geom_bond_atom_site_label_2
_geom_bond_site_symmetry_1
_geom_bond_site_symmetry_2
Ga1 O1 1_555 1_555
As1 O1 1_555 1_555
O2 As1 1_555 1_555
O3 As1 1_555 1_555
O4 As1 1_555 1_555
N1 Ga1 1_555 1_555
C1 N1 1_555 1_555
C2 C1 1_555 1_555
C3 C2 1_555 1_555
C4 C3 1_555 1_555
C5 N1 1_555 1_555
H1 C1 1_555 1_555
H2 C4 1_555 1_555
H3 C2 1_555 1_555
H4 C5 1_555 1_555
C3A C3 1_555 1_555
C2A C3A 1_555 1_555
C1A C2A 1_555 1_555
N1A C1A 1_555 1_555
C5A N1A 1_555 1_555
C4A C3A 1_555 1_555
H2A C4A 1_555 1_555
H4A C5A 1_555 1_555
H1A C1A 1_555 1_555
H3A C2A 1_555 1_555
As1_2 O1_2 1_555 1_555
O1_2 Ga1_2 1_555 1_555
O2_2 Ga1 1_555 1_555
O3_2 As1_2 1_555 1_555
O4_2 As1_2 1_555 1_555
Ga1_2 O2_3 1_555 1_555
O3A Ga1 1_555 1_555
O4A Ga1 1_555 1_555
Ga1_3 O2 1_555 1_555
Ga1A O3 1_555 1_555
Ga1A_2 O4 1_555 1_555
Ga1A_3 N1A 1_555 1_555
Ga1A_4 O3_2 1_555 1_555
Ga1A_5 O4_2 1_555 1_555
O3A_2 Ga1_2 1_555 1_555
O4A_2 Ga1_2 1_555 1_555
N1_2 Ga1_2 1_555 1_555
C4 C5 1_555 1_555
C5A C4A 1_555 1_555
As1_2 O2_2 1_555 1_555

#END
