
#######################################################################
#
#                 Cambridge Crystallographic Data Centre
#                                CCDC 
#
#######################################################################
#
# If this CIF has been generated from an entry in the Cambridge 
# Structural Database, then it will include bibliographic, chemical, 
# crystal, experimental, refinement or atomic coordinate data resulting 
# from the CCDC's data processing and validation procedures.
#
#######################################################################

data_IWEQAC
_symmetry_cell_setting           triclinic
_symmetry_space_group_name_H-M   'P -1'
_symmetry_Int_Tables_number      2
_space_group_name_Hall           '-P 1'
loop_
_symmetry_equiv_pos_site_id
_symmetry_equiv_pos_as_xyz
1 x,y,z
2 -x,-y,-z
_cell_length_a                   7.5816(6)
_cell_length_b                   9.9943(7)
_cell_length_c                   11.1742(8)
_cell_angle_alpha                107.333(1)
_cell_angle_beta                 105.014(1)
_cell_angle_gamma                99.261(1)
_cell_volume                     754.177
loop_
_atom_site_label
_atom_site_type_symbol
_atom_site_fract_x
_atom_site_fract_y
_atom_site_fract_z
Ga1 Ga 0.19266(4) 0.56596(3) 0.49080(3)
Ga2 Ga -0.35071(4) 0.90286(3) 0.35070(3)
P1 P 0.0489(1) 0.80734(7) 0.38601(7)
P2 P 0.5469(1) 0.83722(8) 0.59427(7)
F1 F 0.0238(2) 0.6050(2) 0.5952(2)
F2 F 0.3142(2) 0.4724(2) 0.3777(2)
O1 O 0.0848(3) 0.6592(2) 0.3767(2)
O2 O -0.1628(3) 0.7898(2) 0.3631(2)
O3 O 0.1738(3) 0.9271(2) 0.5127(2)
O4 O 0.0867(3) 0.8417(2) 0.2647(2)
O5 O 0.3910(3) 0.7310(2) 0.6055(2)
O6 O 0.5357(3) 0.8115(2) 0.4510(2)
O7 O 0.5566(3) 0.9951(2) 0.6713(2)
O8 O 0.7393(3) 0.8140(2) 0.6700(2)
O9 O 0.3133(3) 0.4695(2) 0.6154(2)
N1 N -0.5300(3) 0.7312(2) 0.1771(2)
N2 N -0.2840(3) 0.9602(3) 0.2004(2)
C1 C -0.6565(4) 0.6178(3) 0.1742(3)
C2 C -0.7672(5) 0.5077(4) 0.0572(3)
C3 C -0.7527(5) 0.5150(4) -0.0614(3)
C4 C -0.6250(5) 0.6321(4) -0.0591(3)
C5 C -0.5138(4) 0.7375(3) 0.0619(3)
C6 C -0.3738(4) 0.8672(3) 0.0751(3)
C7 C -0.3403(5) 0.8953(4) -0.0323(3)
C8 C -0.2149(5) 1.0245(4) -0.0099(3)
C9 C -0.1261(5) 1.1197(4) 0.1182(3)
C10 C -0.1618(4) 1.0836(3) 0.2213(3)
F1A F -0.0238(2) 0.3950(2) 0.4048(2)
O3A O -0.1738(3) 1.0729(2) 0.4873(2)
O6_2 O -0.4643(3) 0.8115(2) 0.4510(2)
O7A O -0.5566(3) 1.0049(2) 0.3287(2)
Ga1A Ga -0.19266(4) 0.43404(3) 0.50920(3)
Ga2A Ga 0.35071(4) 1.09714(3) 0.64930(3)
Ga2_2 Ga 0.64929(4) 0.90286(3) 0.35070(3)
loop_
_geom_bond_atom_site_label_1
_geom_bond_atom_site_label_2
_geom_bond_site_symmetry_1
_geom_bond_site_symmetry_2
Ga1 F1 1_555 1_555
Ga2 O2 1_555 1_555
P1 O1 1_555 1_555
P2 O5 1_555 1_555
F1 Ga1A 1_555 1_555
F2 Ga1 1_555 1_555
O1 Ga1 1_555 1_555
O2 P1 1_555 1_555
O3 P1 1_555 1_555
O4 P1 1_555 1_555
O5 Ga1 1_555 1_555
O6 P2 1_555 1_555
O7 P2 1_555 1_555
O8 P2 1_555 1_555
O9 Ga1 1_555 1_555
N1 Ga2 1_555 1_555
N2 Ga2 1_555 1_555
C1 N1 1_555 1_555
C2 C1 1_555 1_555
C3 C2 1_555 1_555
C4 C3 1_555 1_555
C5 N1 1_555 1_555
C6 N2 1_555 1_555
C7 C6 1_555 1_555
C8 C7 1_555 1_555
C9 C8 1_555 1_555
C10 N2 1_555 1_555
F1A Ga1 1_555 1_555
O3A Ga2 1_555 1_555
O6_2 Ga2 1_555 1_555
O7A Ga2 1_555 1_555
Ga1A F1A 1_555 1_555
Ga2A O3 1_555 1_555
Ga2_2 O6 1_555 1_555
O7 Ga2A 1_555 1_555
C4 C5 1_555 1_555
C5 C6 1_555 1_555
C9 C10 1_555 1_555

#END
