
#######################################################################
#
#                 Cambridge Crystallographic Data Centre
#                                CCDC 
#
#######################################################################
#
# If this CIF has been generated from an entry in the Cambridge 
# Structural Database, then it will include bibliographic, chemical, 
# crystal, experimental, refinement or atomic coordinate data resulting 
# from the CCDC's data processing and validation procedures.
#
#######################################################################

data_IWEQEH
_symmetry_cell_setting           monoclinic
_symmetry_space_group_name_H-M   'C 2/c'
_symmetry_Int_Tables_number      15
_space_group_name_Hall           '-C 2yn'
loop_
_symmetry_equiv_pos_site_id
_symmetry_equiv_pos_as_xyz
1 x,y,z
2 -x,y,1/2-z
3 1/2+x,1/2+y,z
4 1/2-x,1/2+y,1/2-z
5 -x,-y,-z
6 x,-y,1/2+z
7 1/2-x,1/2-y,-z
8 1/2+x,1/2-y,1/2+z
_cell_length_a                   20.555(3)
_cell_length_b                   7.4526(10)
_cell_length_c                   17.229(3)
_cell_angle_alpha                90
_cell_angle_beta                 123.504(5)
_cell_angle_gamma                90
_cell_volume                     2200.76
loop_
_atom_site_label
_atom_site_type_symbol
_atom_site_fract_x
_atom_site_fract_y
_atom_site_fract_z
Co1 Co 0.50833(2) 1.23292(5) 0.49719(3)
C1 C 0.73601(17) 0.9833(4) 0.4537(2)
H1 H 0.7023 0.9802 0.3892
C2 C 0.71033(16) 1.0531(4) 0.5069(2)
C3 C 0.76086(17) 1.0596(4) 0.6028(2)
H2 H 0.7447 1.1080 0.6393
C4 C 0.83505(17) 0.9936(4) 0.6431(2)
C5 C 0.86191(17) 0.9237(4) 0.5921(2)
H3 H 0.9127 0.8809 0.6213
C6 C 0.81127(16) 0.9183(4) 0.49537(19)
C7 C 0.89139(18) 0.8678(4) 0.8022(2)
H4 H 0.8634 0.7610 0.7836
C8 C 0.93555(17) 1.1252(4) 0.7990(2)
H5 H 0.9445 1.2313 0.7779
C9 C 0.62786(17) 1.1160(4) 0.4633(2)
C10 C 0.83958(17) 0.8362(4) 0.4393(2)
N1 N 0.88618(14) 0.9947(3) 0.74357(17)
N2 N 0.94077(14) 0.9143(3) 0.88803(17)
N3 N 0.96890(14) 1.0815(3) 0.88621(16)
O1 O 0.58026(13) 1.0948(4) 0.37874(15)
O2 O 0.61223(12) 1.1827(3) 0.51856(15)
O3 O 0.79686(12) 0.8444(3) 0.35266(14)
O4 O 0.90521(13) 0.7594(3) 0.48558(15)
O5 O 0.46427(12) 0.9955(3) 0.40568(15)
H6 H 0.4895 0.9941 0.3844
H7 H 0.4176 1.0086 0.3616
Co1D Co 0.49167(2) 0.76708(5) 0.50281(3)
Co1B Co 1.00833(2) 0.73292(5) 0.49719(3)
Co1C Co -0.00833(2) 0.73292(5) 0.00281(3)
Co1C_2 Co 0.99167(2) 0.73292(5) 1.00281(3)
Co1F Co -0.00833(2) 1.26708(5) 0.50281(3)
Co1G Co 0.00833(2) 1.26708(5) -0.00281(3)
Co1G_2 Co 1.00833(2) 1.26708(5) 0.99719(3)
C1D C 0.26399(17) 1.0167(4) 0.5463(2)
H1D H 0.2977 1.0198 0.6108
C2D C 0.28967(16) 0.9469(4) 0.4931(2)
C3D C 0.23914(17) 0.9404(4) 0.3972(2)
H2D H 0.2553 0.8920 0.3607
C4D C 0.16495(17) 1.0064(4) 0.3569(2)
C5D C 0.13809(17) 1.0763(4) 0.4079(2)
H3D H 0.0873 1.1191 0.3787
C6D C 0.18873(16) 1.0817(4) 0.50463(19)
C7D C 0.10861(18) 1.1322(4) 0.1978(2)
H4D H 0.1366 1.2390 0.2164
C8D C 0.06445(17) 0.8748(4) 0.2010(2)
H5D H 0.0555 0.7687 0.2221
C9D C 0.37214(17) 0.8840(4) 0.5367(2)
C10D C 0.16042(17) 1.1638(4) 0.5607(2)
N1D N 0.11382(14) 1.0053(3) 0.25643(17)
N2D N 0.05923(14) 1.0857(3) 0.11197(17)
N2C N 0.55923(14) 1.4143(3) 0.61197(17)
N2G N 0.44077(14) 0.5857(3) 0.38803(17)
N3D N 0.03110(14) 0.9185(3) 0.11379(16)
N3C N 0.53110(14) 0.5815(3) 0.61379(16)
N3G N 0.46890(14) 1.4185(3) 0.38621(16)
O1D O 0.41974(13) 0.9052(4) 0.62126(15)
O2D O 0.38777(12) 0.8173(3) 0.48144(15)
O3D O 0.20314(12) 1.1556(3) 0.64734(14)
O4D O 0.09479(13) 1.2406(3) 0.51442(15)
O4B O 0.40521(13) 1.2594(3) 0.48558(15)
O4F O 0.59479(13) 0.7406(3) 0.51442(15)
O5D O 0.53573(12) 1.0045(3) 0.59432(15)
H6D H 0.5105 1.0059 0.6156
H7D H 0.5824 0.9914 0.6384
O6 O 0.82137(13) 0.5700(3) 0.26967(15)
H8 H 0.7853 0.5222 0.2356
H9 H 0.8095 0.6572 0.2914
O7 O 0.5000 0.8325(7) 0.2500
H10 H 0.5291 0.8995 0.2966
H10A H 0.4709 0.8995 0.2034
loop_
_geom_bond_atom_site_label_1
_geom_bond_atom_site_label_2
_geom_bond_site_symmetry_1
_geom_bond_site_symmetry_2
Co1 O2 1_555 1_555
C1 H1 1_555 1_555
C2 C1 1_555 1_555
C3 C2 1_555 1_555
H2 C3 1_555 1_555
C4 C3 1_555 1_555
C5 C4 1_555 1_555
H3 C5 1_555 1_555
C6 C1 1_555 1_555
C7 H4 1_555 1_555
C8 H5 1_555 1_555
C9 C2 1_555 1_555
C10 C6 1_555 1_555
N1 C4 1_555 1_555
N2 C7 1_555 1_555
N3 C8 1_555 1_555
O1 C9 1_555 1_555
O2 C9 1_555 1_555
O3 C10 1_555 1_555
O4 C10 1_555 1_555
O5 Co1 1_555 1_555
H6 O5 1_555 1_555
H7 O5 1_555 1_555
O6 H8 1_555 1_555
H9 O6 1_555 1_555
O7 H10 1_555 1_555
Co1D O5 1_555 1_555
Co1B O4 1_555 1_555
Co1C N3D 1_555 1_555
Co1C_2 N2 1_555 1_555
Co1F O4D 1_555 1_555
Co1G N2D 1_555 1_555
Co1G_2 N3 1_555 1_555
C1D H1D 1_555 1_555
C2D C1D 1_555 1_555
C3D C2D 1_555 1_555
H2D C3D 1_555 1_555
C4D C3D 1_555 1_555
C5D C4D 1_555 1_555
H3D C5D 1_555 1_555
C6D C1D 1_555 1_555
C7D H4D 1_555 1_555
C8D H5D 1_555 1_555
C9D C2D 1_555 1_555
C10D C6D 1_555 1_555
N1D C4D 1_555 1_555
N2D C7D 1_555 1_555
N2C Co1 1_555 1_555
N2G Co1D 1_555 1_555
N3D C8D 1_555 1_555
N3C Co1D 1_555 1_555
N3G Co1 1_555 1_555
O1D C9D 1_555 1_555
O2D Co1D 1_555 1_555
O3D C10D 1_555 1_555
O4D C10D 1_555 1_555
O4B Co1 1_555 1_555
O4F Co1D 1_555 1_555
O5D Co1 1_555 1_555
H6D O5D 1_555 1_555
H7D O5D 1_555 1_555
H10A O7 1_555 1_555
C5 C6 1_555 1_555
C7 N1 1_555 1_555
C8 N1 1_555 1_555
N2 N3 1_555 1_555
Co1D O5D 1_555 1_555
C5D C6D 1_555 1_555
C7D N1D 1_555 1_555
C8D N1D 1_555 1_555
C9D O2D 1_555 1_555
N2D N3D 1_555 1_555

#END
