
#######################################################################
#
#                 Cambridge Crystallographic Data Centre
#                                CCDC 
#
#######################################################################
#
# If this CIF has been generated from an entry in the Cambridge 
# Structural Database, then it will include bibliographic, chemical, 
# crystal, experimental, refinement or atomic coordinate data resulting 
# from the CCDC's data processing and validation procedures.
#
#######################################################################

data_IWEQIL
_symmetry_cell_setting           monoclinic
_symmetry_space_group_name_H-M   'C 2/c'
_symmetry_Int_Tables_number      15
_space_group_name_Hall           '-C 2yn'
loop_
_symmetry_equiv_pos_site_id
_symmetry_equiv_pos_as_xyz
1 x,y,z
2 -x,y,1/2-z
3 1/2+x,1/2+y,z
4 1/2-x,1/2+y,1/2-z
5 -x,-y,-z
6 x,-y,1/2+z
7 1/2-x,1/2-y,-z
8 1/2+x,1/2-y,1/2+z
_cell_length_a                   20.625(4)
_cell_length_b                   7.3923(15)
_cell_length_c                   17.250(3)
_cell_angle_alpha                90
_cell_angle_beta                 123.574(3)
_cell_angle_gamma                90
_cell_volume                     2191.28
loop_
_atom_site_label
_atom_site_type_symbol
_atom_site_fract_x
_atom_site_fract_y
_atom_site_fract_z
Ni1 Ni 1.00862(2) 0.23387(5) 0.49662(2)
C1 C 0.73577(17) 0.4837(4) 0.4538(2)
H1 H 0.7020 0.4800 0.3894
C2 C 0.81162(16) 0.4199(4) 0.49600(19)
C3 C 0.86175(17) 0.4249(4) 0.5921(2)
H2 H 0.9125 0.3826 0.6211
C4 C 0.83522(18) 0.4936(4) 0.6438(2)
C5 C 0.76078(17) 0.5580(4) 0.6034(2)
H3 H 0.7445 0.6045 0.6401
C6 C 0.71021(16) 0.5530(4) 0.5077(2)
C7 C 0.89145(18) 0.3657(4) 0.8031(2)
H4 H 0.8634 0.2581 0.7846
C8 C 0.93611(16) 0.6252(4) 0.79943(19)
H5 H 0.9453 0.7316 0.7782
C9 C 0.84024(17) 0.3385(4) 0.4396(2)
C10 C 0.62764(17) 0.6152(4) 0.4646(2)
N1 N 0.88638(14) 0.4944(3) 0.74446(17)
N2 N 0.94112(14) 0.4131(4) 0.88922(17)
N3 N 0.96968(14) 0.5812(4) 0.88700(16)
O1 O 0.79774(12) 0.3480(3) 0.35266(14)
O2 O 0.90574(14) 0.2618(3) 0.48596(17)
O3 O 0.57952(12) 0.5936(3) 0.37984(15)
O4 O 0.61284(12) 0.6821(3) 0.52035(15)
O5 O 0.96515(13) -0.0046(3) 0.40706(15)
H6 H 0.9163 0.0038 0.3618
H7 H 0.9918 -0.0004 0.3825
Ni1A Ni 0.99138(2) 0.23387(5) 1.00338(2)
Ni1B Ni 0.50862(2) 0.73387(5) 0.49662(2)
Ni1C Ni 1.49138(2) 0.73387(5) 1.00338(2)
Ni1D Ni 0.99138(2) -0.23387(5) 0.50338(2)
Ni1D_2 Ni 0.99138(2) 0.76613(5) 0.50338(2)
Ni1E Ni 1.00862(2) -0.23387(5) 0.99662(2)
Ni1E_2 Ni 1.00862(2) 0.76613(5) 0.99662(2)
C1A C 1.26423(17) 0.4837(4) 1.0462(2)
H1A H 1.2980 0.4800 1.1106
C2A C 1.18838(16) 0.4199(4) 1.00400(19)
C3A C 1.13825(17) 0.4249(4) 0.9079(2)
H2A H 1.0875 0.3826 0.8789
C4A C 1.16478(18) 0.4936(4) 0.8562(2)
C5A C 1.23922(17) 0.5580(4) 0.8966(2)
H3A H 1.2555 0.6045 0.8599
C6A C 1.28979(16) 0.5530(4) 0.9923(2)
C7A C 1.10855(18) 0.3657(4) 0.6969(2)
H4A H 1.1366 0.2581 0.7154
C8A C 1.06389(16) 0.6252(4) 0.70057(19)
H5A H 1.0547 0.7316 0.7218
C9A C 1.15976(17) 0.3385(4) 1.0604(2)
C10A C 1.37236(17) 0.6152(4) 1.0354(2)
N1A N 1.11362(14) 0.4944(3) 0.75554(17)
N2A N 1.05888(14) 0.4131(4) 0.61078(17)
N3A N 1.03032(14) 0.5812(4) 0.61300(16)
N3D N 1.03032(14) 0.4188(4) 1.11300(16)
N3E N 0.96968(14) 0.4188(4) 0.38700(16)
O1A O 1.20226(12) 0.3480(3) 1.14734(14)
O2A O 1.09426(14) 0.2618(3) 1.01404(17)
O3A O 1.42048(12) 0.5936(3) 1.12016(15)
O4A O 1.38716(12) 0.6821(3) 0.97965(15)
O4B O 1.11284(12) 0.1821(3) 0.52035(15)
O4C O 0.88716(12) 0.1821(3) 0.97965(15)
O5A O 1.03485(13) -0.0046(3) 1.09294(15)
O5D O 1.03485(13) 0.0046(3) 0.59294(15)
O5E O 0.96515(13) 0.0046(3) 0.90706(15)
H6A H 1.0837 0.0038 1.1382
H7A H 1.0082 -0.0004 1.1175
O6 O 0.82209(12) 0.0706(3) 0.27013(15)
H8 H 0.7818 0.0084 0.2331
H9 H 0.8094 0.1546 0.2929
O7 O 0.5000 0.3301(7) 0.2500
H10 H 0.4728 0.4038 0.2056
H10A H 0.5272 0.4038 0.2944
loop_
_geom_bond_atom_site_label_1
_geom_bond_atom_site_label_2
_geom_bond_site_symmetry_1
_geom_bond_site_symmetry_2
Ni1 O2 1_555 1_555
C1 H1 1_555 1_555
C2 C1 1_555 1_555
C3 C2 1_555 1_555
H2 C3 1_555 1_555
C4 C3 1_555 1_555
C5 C4 1_555 1_555
H3 C5 1_555 1_555
C6 C1 1_555 1_555
C7 H4 1_555 1_555
C8 H5 1_555 1_555
C9 C2 1_555 1_555
C10 C6 1_555 1_555
N1 C4 1_555 1_555
N2 C7 1_555 1_555
N3 C8 1_555 1_555
O1 C9 1_555 1_555
O2 C9 1_555 1_555
O3 C10 1_555 1_555
O4 C10 1_555 1_555
O5 Ni1 1_555 1_555
H6 O5 1_555 1_555
H7 O5 1_555 1_555
O6 H8 1_555 1_555
H9 O6 1_555 1_555
O7 H10 1_555 1_555
Ni1A N2 1_555 1_555
Ni1B O4 1_555 1_555
Ni1C O4A 1_555 1_555
Ni1D O5 1_555 1_555
Ni1D_2 N3A 1_555 1_555
Ni1E O5A 1_555 1_555
Ni1E_2 N3 1_555 1_555
C1A H1A 1_555 1_555
C2A C1A 1_555 1_555
C3A C2A 1_555 1_555
H2A C3A 1_555 1_555
C4A C3A 1_555 1_555
C5A C4A 1_555 1_555
H3A C5A 1_555 1_555
C6A C1A 1_555 1_555
C7A H4A 1_555 1_555
C8A H5A 1_555 1_555
C9A C2A 1_555 1_555
C10A C6A 1_555 1_555
N1A C4A 1_555 1_555
N2A Ni1 1_555 1_555
N3A C8A 1_555 1_555
N3D Ni1A 1_555 1_555
N3E Ni1 1_555 1_555
O1A C9A 1_555 1_555
O2A Ni1A 1_555 1_555
O3A C10A 1_555 1_555
O4A C10A 1_555 1_555
O4B Ni1 1_555 1_555
O4C Ni1A 1_555 1_555
O5A Ni1A 1_555 1_555
O5D Ni1 1_555 1_555
O5E Ni1A 1_555 1_555
H6A O5A 1_555 1_555
H7A O5A 1_555 1_555
H10A O7 1_555 1_555
C5 C6 1_555 1_555
C7 N1 1_555 1_555
C8 N1 1_555 1_555
N2 N3 1_555 1_555
Ni1D O5D 1_555 1_555
Ni1E O5E 1_555 1_555
C5A C6A 1_555 1_555
C7A N1A 1_555 1_555
C7A N2A 1_555 1_555
C8A N1A 1_555 1_555
C9A O2A 1_555 1_555
N2A N3A 1_555 1_555

#END
