
#######################################################################
#
#                 Cambridge Crystallographic Data Centre
#                                CCDC 
#
#######################################################################
#
# If this CIF has been generated from an entry in the Cambridge 
# Structural Database, then it will include bibliographic, chemical, 
# crystal, experimental, refinement or atomic coordinate data resulting 
# from the CCDC's data processing and validation procedures.
#
#######################################################################

data_IWEQEG
_symmetry_cell_setting           triclinic
_symmetry_space_group_name_H-M   'P -1'
_symmetry_Int_Tables_number      2
_space_group_name_Hall           '-P 1'
loop_
_symmetry_equiv_pos_site_id
_symmetry_equiv_pos_as_xyz
1 x,y,z
2 -x,-y,-z
_cell_length_a                   4.9723(9)
_cell_length_b                   5.770(1)
_cell_length_c                   11.812(2)
_cell_angle_alpha                78.268(3)
_cell_angle_beta                 89.159(3)
_cell_angle_gamma                88.344(3)
_cell_volume                     331.657
loop_
_atom_site_label
_atom_site_type_symbol
_atom_site_fract_x
_atom_site_fract_y
_atom_site_fract_z
Ga1 Ga 0.66596(9) 0.79543(8) 0.90025(4)
P1 P 1.1546(2) 0.7204(2) 1.07442(9)
O1 O 0.8598(6) 0.7192(5) 1.0419(2)
O2 O 1.3280(6) 0.7739(5) 0.9655(2)
O3 O 1.1964(6) 0.9059(5) 1.1494(2)
O4 O 1.2339(6) 0.4797(5) 1.1505(2)
N1 N 0.4446(7) 0.8806(6) 0.7383(3)
C1 C 0.2793(9) 0.7189(9) 0.7175(4)
C2 C 0.103(1) 0.7584(9) 0.6253(4)
C3 C 0.0921(9) 0.9755(8) 0.5502(4)
C4 C 0.264(1) 1.1446(9) 0.5738(5)
C5 C 0.433(1) 1.0908(9) 0.6673(4)
H1 H 0.30(1) 0.56(1) 0.761(6)
H2 H -0.04(1) 0.63(1) 0.613(5)
H3 H 0.56(1) 1.203(9) 0.693(4)
H4 H 0.25(1) 1.29(1) 0.528(5)
C3A C -0.0921(9) 1.0245(8) 0.4498(4)
C2A C -0.103(1) 1.2416(9) 0.3747(4)
C1A C -0.2793(9) 1.2811(9) 0.2825(4)
N1A N -0.4446(7) 1.1194(6) 0.2617(3)
C5A C -0.433(1) 0.9092(9) 0.3327(4)
C4A C -0.264(1) 0.8554(9) 0.4262(5)
H4A H -0.25(1) 0.71(1) 0.472(5)
H3A H -0.56(1) 0.797(9) 0.307(4)
H1A H -0.30(1) 1.44(1) 0.239(6)
H2A H 0.04(1) 1.37(1) 0.387(5)
P1_2 P 0.1546(2) 0.7204(2) 1.07442(9)
O1_2 O -0.1402(6) 0.7192(5) 1.0419(2)
O2_2 O 0.3280(6) 0.7739(5) 0.9655(2)
O3_2 O 0.1964(6) 0.9059(5) 1.1494(2)
O4_2 O 0.2339(6) 0.4797(5) 1.1505(2)
Ga1_2 Ga -0.33404(9) 0.79543(8) 0.90025(4)
O3A O 0.8036(6) 1.0941(5) 0.8506(2)
O4A O 0.7661(6) 0.5203(5) 0.8495(2)
Ga1_3 Ga 1.66596(9) 0.79543(8) 0.90025(4)
Ga1A Ga 1.33404(9) 1.20457(8) 1.09975(4)
Ga1A_2 Ga 1.33404(9) 0.20457(8) 1.09975(4)
Ga1A_3 Ga -0.66596(9) 1.20457(8) 0.09975(4)
Ga1A_4 Ga 0.33404(9) 1.20457(8) 1.09975(4)
Ga1A_5 Ga 0.33404(9) 0.20457(8) 1.09975(4)
O2_3 O -0.6720(6) 0.7739(5) 0.9655(2)
O3A_2 O -0.1964(6) 1.0941(5) 0.8506(2)
O4A_2 O -0.2339(6) 0.5203(5) 0.8495(2)
N1_2 N -0.5554(7) 0.8806(6) 0.7383(3)
loop_
_geom_bond_atom_site_label_1
_geom_bond_atom_site_label_2
_geom_bond_site_symmetry_1
_geom_bond_site_symmetry_2
Ga1 O1 1_555 1_555
P1 O1 1_555 1_555
O2 P1 1_555 1_555
O3 P1 1_555 1_555
O4 P1 1_555 1_555
N1 Ga1 1_555 1_555
C1 N1 1_555 1_555
C2 C1 1_555 1_555
C3 C2 1_555 1_555
C4 C3 1_555 1_555
C5 N1 1_555 1_555
H1 C1 1_555 1_555
H2 C2 1_555 1_555
H3 C5 1_555 1_555
H4 C4 1_555 1_555
C3A C3 1_555 1_555
C2A C3A 1_555 1_555
C1A C2A 1_555 1_555
N1A C1A 1_555 1_555
C5A N1A 1_555 1_555
C4A C3A 1_555 1_555
H4A C4A 1_555 1_555
H3A C5A 1_555 1_555
H1A C1A 1_555 1_555
H2A C2A 1_555 1_555
P1_2 O1_2 1_555 1_555
O1_2 Ga1_2 1_555 1_555
O2_2 Ga1 1_555 1_555
O3_2 P1_2 1_555 1_555
O4_2 P1_2 1_555 1_555
Ga1_2 O2_3 1_555 1_555
O3A Ga1 1_555 1_555
O4A Ga1 1_555 1_555
Ga1_3 O2 1_555 1_555
Ga1A O3 1_555 1_555
Ga1A_2 O4 1_555 1_555
Ga1A_3 N1A 1_555 1_555
Ga1A_4 O3_2 1_555 1_555
Ga1A_5 O4_2 1_555 1_555
O3A_2 Ga1_2 1_555 1_555
O4A_2 Ga1_2 1_555 1_555
N1_2 Ga1_2 1_555 1_555
C4 C5 1_555 1_555
C5A C4A 1_555 1_555
P1_2 O2_2 1_555 1_555

#END
