
#######################################################################
#
#                 Cambridge Crystallographic Data Centre
#                                CCDC 
#
#######################################################################
#
# If this CIF has been generated from an entry in the Cambridge 
# Structural Database, then it will include bibliographic, chemical, 
# crystal, experimental, refinement or atomic coordinate data resulting 
# from the CCDC's data processing and validation procedures.
#
#######################################################################

data_IWEQAD
_symmetry_cell_setting           monoclinic
_symmetry_space_group_name_H-M   'C 2/c'
_symmetry_Int_Tables_number      15
_space_group_name_Hall           '-C 2yn'
loop_
_symmetry_equiv_pos_site_id
_symmetry_equiv_pos_as_xyz
1 x,y,z
2 -x,y,1/2-z
3 1/2+x,1/2+y,z
4 1/2-x,1/2+y,1/2-z
5 -x,-y,-z
6 x,-y,1/2+z
7 1/2-x,1/2-y,-z
8 1/2+x,1/2-y,1/2+z
_cell_length_a                   20.064(5)
_cell_length_b                   7.7666(19)
_cell_length_c                   17.110(4)
_cell_angle_alpha                90
_cell_angle_beta                 122.820(4)
_cell_angle_gamma                90
_cell_volume                     2240.64
loop_
_atom_site_label
_atom_site_type_symbol
_atom_site_fract_x
_atom_site_fract_y
_atom_site_fract_z
Cu1 Cu 0.99401(3) 0.23587(5) 0.50772(3)
C1 C 0.7346(2) 0.4792(4) -0.0485(2)
H1 H 0.7003 0.4673 -0.1125
C2 C 0.7083(2) 0.5602(5) 0.0028(2)
C3 C 0.7601(2) 0.5795(5) 0.0977(2)
H2 H 0.7439 0.6360 0.1327
C4 C 0.8353(2) 0.5146(5) 0.1398(2)
C5 C 0.8624(2) 0.4330(5) 0.0907(2)
H3 H 0.9138 0.3900 0.1210
C6 C 0.8113(2) 0.4162(5) -0.0051(2)
C7 C 0.8917(2) 0.3998(5) 0.2995(2)
H4 H 0.8658 0.2942 0.2812
C8 C 0.9317(2) 0.6530(5) 0.2946(2)
H5 H 0.9393 0.7565 0.2732
C9 C 0.6242(2) 0.6208(5) -0.0424(2)
C10 C 0.8406(2) 0.3245(5) -0.0591(3)
N1 N 0.88626(18) 0.5220(4) 0.24038(19)
N2 N 0.93795(19) 0.4485(4) 0.3855(2)
N3 N 0.96358(17) 0.6121(4) 0.38238(19)
O1 O 0.57598(16) 0.5933(4) -0.12593(17)
O2 O 0.60872(14) 0.6943(3) 0.01238(16)
O3 O 0.79698(15) 0.3189(3) -0.14569(16)
O4 O 0.90798(14) 0.2551(3) -0.01013(16)
O5 O 0.96203(15) 0.0595(3) 0.40699(16)
H6 H 0.9981 0.0467 0.3983
H7 H 0.9179 0.0242 0.3620
Cu1D Cu 1.00599(3) 0.76413(5) 0.49228(3)
Cu1C Cu 0.50599(3) 0.73587(5) -0.00772(3)
Cu1A Cu 1.00599(3) 0.23587(5) -0.00772(3)
Cu1G Cu 1.49401(3) 0.26413(5) 1.00772(3)
Cu1E Cu 0.99401(3) 0.76413(5) 1.00772(3)
C1D C 1.2654(2) 0.5208(4) 1.0485(2)
H1D H 1.2997 0.5327 1.1125
C2D C 1.2917(2) 0.4398(5) 0.9972(2)
C3D C 1.2399(2) 0.4205(5) 0.9023(2)
H2D H 1.2561 0.3640 0.8673
C4D C 1.1647(2) 0.4854(5) 0.8602(2)
C5D C 1.1376(2) 0.5670(5) 0.9093(2)
H3D H 1.0862 0.6100 0.8790
C6D C 1.1887(2) 0.5838(5) 1.0051(2)
C7D C 1.1083(2) 0.6002(5) 0.7005(2)
H4D H 1.1342 0.7058 0.7188
C8D C 1.0683(2) 0.3470(5) 0.7054(2)
H5D H 1.0607 0.2435 0.7268
C9D C 1.3758(2) 0.3792(5) 1.0424(2)
C10D C 1.1594(2) 0.6755(5) 1.0591(3)
N1D N 1.11374(18) 0.4780(4) 0.75962(19)
N2D N 1.06205(19) 0.5515(4) 0.6145(2)
N3D N 1.03642(17) 0.3879(4) 0.61762(19)
O1D O 1.42402(16) 0.4067(4) 1.12593(17)
O2D O 1.39128(14) 0.3057(3) 0.98762(16)
O2C O 0.89128(14) 0.1943(3) 0.48762(16)
O2G O 1.10872(14) 0.8057(3) 0.51238(16)
O3D O 1.20302(15) 0.6811(3) 1.14569(16)
O4D O 1.09202(14) 0.7449(3) 1.01013(16)
O4A O 1.09202(14) 0.2551(3) 0.51013(16)
O4E O 0.90798(14) 0.7449(3) 0.48987(16)
O5D O 1.03797(15) 0.9405(3) 0.59301(16)
H6D H 1.0019 0.9533 0.6017
H7D H 1.0821 0.9758 0.6380
O6 O 0.82005(16) 0.0410(3) 0.77329(17)
H8 H 0.7794 -0.0177 0.7350
H9 H 0.8056 0.1231 0.7936
O7 O 0.5000 0.6646(7) 0.2500
H10 H 0.5287 0.6002 0.2968
H10A H 0.4713 0.6002 0.2032
loop_
_geom_bond_atom_site_label_1
_geom_bond_atom_site_label_2
_geom_bond_site_symmetry_1
_geom_bond_site_symmetry_2
Cu1 N2 1_555 1_555
C1 H1 1_555 1_555
C2 C1 1_555 1_555
C3 C2 1_555 1_555
H2 C3 1_555 1_555
C4 C3 1_555 1_555
C5 C4 1_555 1_555
H3 C5 1_555 1_555
C6 C1 1_555 1_555
C7 H4 1_555 1_555
C8 H5 1_555 1_555
C9 C2 1_555 1_555
C10 C6 1_555 1_555
N1 C4 1_555 1_555
N2 C7 1_555 1_555
N3 C8 1_555 1_555
O1 C9 1_555 1_555
O2 C9 1_555 1_555
O3 C10 1_555 1_555
O4 C10 1_555 1_555
O5 Cu1 1_555 1_555
H6 O5 1_555 1_555
H7 O5 1_555 1_555
O6 H8 1_555 1_555
H9 O6 1_555 1_555
O7 H10 1_555 1_555
Cu1D N3 1_555 1_555
Cu1C O2 1_555 1_555
Cu1A O4 1_555 1_555
Cu1G O2D 1_555 1_555
Cu1E O4D 1_555 1_555
C1D H1D 1_555 1_555
C2D C1D 1_555 1_555
C3D C2D 1_555 1_555
H2D C3D 1_555 1_555
C4D C3D 1_555 1_555
C5D C4D 1_555 1_555
H3D C5D 1_555 1_555
C6D C1D 1_555 1_555
C7D H4D 1_555 1_555
C8D H5D 1_555 1_555
C9D C2D 1_555 1_555
C10D C6D 1_555 1_555
N1D C4D 1_555 1_555
N2D Cu1D 1_555 1_555
N3D Cu1 1_555 1_555
O1D C9D 1_555 1_555
O2D C9D 1_555 1_555
O2C Cu1 1_555 1_555
O2G Cu1D 1_555 1_555
O3D C10D 1_555 1_555
O4D C10D 1_555 1_555
O4A Cu1 1_555 1_555
O4E Cu1D 1_555 1_555
O5D Cu1D 1_555 1_555
H6D O5D 1_555 1_555
H7D O5D 1_555 1_555
H10A O7 1_555 1_555
C5 C6 1_555 1_555
C7 N1 1_555 1_555
C8 N1 1_555 1_555
N2 N3 1_555 1_555
C5D C6D 1_555 1_555
C7D N1D 1_555 1_555
C7D N2D 1_555 1_555
C8D N1D 1_555 1_555
C8D N3D 1_555 1_555
N2D N3D 1_555 1_555

#END
