
#######################################################################
#
#                 Cambridge Crystallographic Data Centre
#                                CCDC 
#
#######################################################################
#
# If this CIF has been generated from an entry in the Cambridge 
# Structural Database, then it will include bibliographic, chemical, 
# crystal, experimental, refinement or atomic coordinate data resulting 
# from the CCDC's data processing and validation procedures.
#
#######################################################################

data_IWERAD
_symmetry_cell_setting           monoclinic
_symmetry_space_group_name_H-M   'P 21/c'
_symmetry_Int_Tables_number      14
_space_group_name_Hall           '-P 2ybc'
loop_
_symmetry_equiv_pos_site_id
_symmetry_equiv_pos_as_xyz
1 x,y,z
2 -x,1/2+y,1/2-z
3 -x,-y,-z
4 x,1/2-y,1/2+z
_cell_length_a                   4.6784(2)
_cell_length_b                   20.0798(9)
_cell_length_c                   6.3910(2)
_cell_angle_alpha                90
_cell_angle_beta                 101.020(3)
_cell_angle_gamma                90
_cell_volume                     589.308
loop_
_atom_site_label
_atom_site_type_symbol
_atom_site_fract_x
_atom_site_fract_y
_atom_site_fract_z
Pb1 Pb 0.8135(4) 0.3075(1) 0.1720(3)
P1 P 1.265(3) 0.1728(6) 0.266(2)
O1 O 1.060(5) 0.208(1) 0.106(4)
O2 O 1.173(5) 0.151(1) 0.479(4)
O3 O 1.518(5) 0.221(1) 0.339(4)
C1 C 1.462(8) 0.106(2) 0.138(6)
C2 C 1.241(9) 0.057(2) 0.082(6)
C3 C 1.113(9) 0.010(2) 0.210(6)
C4 C 1.106(9) 0.040(2) -0.144(7)
C4B C 0.894(9) -0.040(2) 0.144(7)
C2B C 0.759(9) -0.057(2) -0.082(6)
C1B C 0.538(8) -0.106(2) -0.138(6)
P1B P 0.735(3) -0.1728(6) -0.266(2)
O1B O 0.940(5) -0.208(1) -0.106(4)
O2B O 0.827(5) -0.151(1) -0.479(4)
O3B O 0.482(5) -0.221(1) -0.339(4)
C3B C 0.887(9) -0.010(2) -0.210(6)
Pb1B Pb 1.1865(4) -0.3075(1) -0.1720(3)
O2C O 1.173(5) 0.349(1) -0.021(4)
O3_2 O 0.518(5) 0.221(1) 0.339(4)
O3C O 0.518(5) 0.279(1) -0.161(4)
Pb1C Pb 0.8135(4) 0.1925(1) 0.6720(3)
Pb1_2 Pb 1.8135(4) 0.3075(1) 0.1720(3)
Pb1C_2 Pb 1.8135(4) 0.1925(1) 0.6720(3)
Pb1A Pb 1.1865(4) -0.1925(1) -0.6720(3)
Pb1A_2 Pb 0.1865(4) -0.1925(1) -0.6720(3)
Pb1B_2 Pb 0.1865(4) -0.3075(1) -0.1720(3)
O2A O 0.827(5) -0.349(1) 0.021(4)
O3A O 1.482(5) -0.279(1) 0.161(4)
O3B_2 O 1.482(5) -0.221(1) -0.339(4)
loop_
_geom_bond_atom_site_label_1
_geom_bond_atom_site_label_2
_geom_bond_site_symmetry_1
_geom_bond_site_symmetry_2
Pb1 O1 1_555 1_555
P1 O1 1_555 1_555
O2 P1 1_555 1_555
O3 P1 1_555 1_555
C1 P1 1_555 1_555
C2 C1 1_555 1_555
C3 C2 1_555 1_555
C4 C2 1_555 1_555
C4B C3 1_555 1_555
C2B C4B 1_555 1_555
C1B C2B 1_555 1_555
P1B C1B 1_555 1_555
O1B P1B 1_555 1_555
O2B P1B 1_555 1_555
O3B P1B 1_555 1_555
C3B C4 1_555 1_555
Pb1B O1B 1_555 1_555
O2C Pb1 1_555 1_555
O3_2 Pb1 1_555 1_555
O3C Pb1 1_555 1_555
Pb1C O2 1_555 1_555
Pb1_2 O3 1_555 1_555
Pb1C_2 O3 1_555 1_555
Pb1A O2B 1_555 1_555
Pb1A_2 O3B 1_555 1_555
Pb1B_2 O3B 1_555 1_555
O2A Pb1B 1_555 1_555
O3A Pb1B 1_555 1_555
O3B_2 Pb1B 1_555 1_555
C2B C3B 1_555 1_555
O3_2 Pb1C 1_555 1_555
Pb1A O3B_2 1_555 1_555

#END
