
#######################################################################
#
#                 Cambridge Crystallographic Data Centre
#                                CCDC 
#
#######################################################################
#
# If this CIF has been generated from an entry in the Cambridge 
# Structural Database, then it will include bibliographic, chemical, 
# crystal, experimental, refinement or atomic coordinate data resulting 
# from the CCDC's data processing and validation procedures.
#
#######################################################################

data_IWESUZ
_symmetry_cell_setting           monoclinic
_symmetry_space_group_name_H-M   'P 2'
_symmetry_Int_Tables_number      3
_space_group_name_Hall           'P 2y'
loop_
_symmetry_equiv_pos_site_id
_symmetry_equiv_pos_as_xyz
1 x,y,z
2 -x,y,-z
_cell_length_a                   3.6333(6)
_cell_length_b                   7.7301(10)
_cell_length_c                   12.7965(16)
_cell_angle_alpha                90
_cell_angle_beta                 95.651(12)
_cell_angle_gamma                90
_cell_volume                     357.653
loop_
_atom_site_label
_atom_site_type_symbol
_atom_site_fract_x
_atom_site_fract_y
_atom_site_fract_z
Ag1 Ag 0.5000 0.36481(16) 0.0000
Ag2 Ag 0.0000 0.10050(13) 0.5000
N1 N 0.455(3) 0.2872(12) 0.1626(6)
N2 N 0.267(3) 0.1724(12) 0.3567(7)
C1 C 0.496(3) 0.3931(13) 0.2461(7)
C2 C 0.388(3) 0.3292(15) 0.3428(7)
H1 H 0.4039 0.4041 0.4000
C3 C 0.241(4) 0.0670(12) 0.2728(8)
H2 H 0.1533 -0.0451 0.2789
C4 C 0.345(4) 0.1234(14) 0.1779(9)
H3 H 0.3393 0.0456 0.1223
N3 N 0.619(3) 0.5533(12) 0.2373(7)
N4 N 0.0000 0.7409(16) 0.0000
O1 O 0.0000 0.584(2) 0.0000
O2 O -0.138(4) 0.809(2) 0.0709(10)
N5 N 0.0000 -0.2798(18) 0.5000
O3 O 0.166(3) -0.2030(11) 0.5750(6)
O4 O 0.0000 -0.4438(14) 0.5000
Ag1_2 Ag -0.5000 0.36481(16) 0.0000
Ag2_2 Ag 1.0000 0.10050(13) -0.5000
N1A N 0.545(3) 0.2872(12) -0.1626(6)
N2A N 0.733(3) 0.1724(12) -0.3567(7)
N2A_2 N -0.267(3) 0.1724(12) 0.6433(7)
C1A C 0.504(3) 0.3931(13) -0.2461(7)
C2A C 0.612(3) 0.3292(15) -0.3428(7)
H1A H 0.5961 0.4041 -0.4000
C3A C 0.759(4) 0.0670(12) -0.2728(8)
H2A H 0.8467 -0.0451 -0.2789
C4A C 0.655(4) 0.1234(14) -0.1779(9)
H3A H 0.6607 0.0456 -0.1223
N3A N 0.381(3) 0.5533(12) -0.2373(7)
O1_2 O 1.0000 0.584(2) 0.0000
O2A O 0.138(4) 0.809(2) -0.0709(10)
O3A O -0.166(3) -0.2030(11) 0.4250(6)
loop_
_geom_bond_atom_site_label_1
_geom_bond_atom_site_label_2
_geom_bond_site_symmetry_1
_geom_bond_site_symmetry_2
Ag1 N1 1_555 1_555
Ag2 N2 1_555 1_555
N1 C1 1_555 1_555
N2 C2 1_555 1_555
C1 C2 1_555 1_555
C2 H1 1_555 1_555
C3 N2 1_555 1_555
H2 C3 1_555 1_555
C4 N1 1_555 1_555
H3 C4 1_555 1_555
N3 C1 1_555 1_555
N4 O1 1_555 1_555
O1 Ag1 1_555 1_555
O2 N4 1_555 1_555
N5 O3 1_555 1_555
O3 Ag2 1_555 1_555
O4 N5 1_555 1_555
Ag1_2 O1 1_555 1_555
Ag2_2 N2A 1_555 1_555
N1A Ag1 1_555 1_555
N2A C2A 1_555 1_555
N2A_2 Ag2 1_555 1_555
C1A N1A 1_555 1_555
C2A C1A 1_555 1_555
H1A C2A 1_555 1_555
C3A N2A 1_555 1_555
H2A C3A 1_555 1_555
C4A N1A 1_555 1_555
H3A C4A 1_555 1_555
N3A C1A 1_555 1_555
O1_2 Ag1 1_555 1_555
O2A N4 1_555 1_555
O3A Ag2 1_555 1_555
C3 C4 1_555 1_555
N5 O3A 1_555 1_555
C3A C4A 1_555 1_555

#END
