
#######################################################################
#
#                 Cambridge Crystallographic Data Centre
#                                CCDC 
#
#######################################################################
#
# If this CIF has been generated from an entry in the Cambridge 
# Structural Database, then it will include bibliographic, chemical, 
# crystal, experimental, refinement or atomic coordinate data resulting 
# from the CCDC's data processing and validation procedures.
#
#######################################################################

data_IWETAF
_symmetry_cell_setting           monoclinic
_symmetry_space_group_name_H-M   'P 21'
_symmetry_Int_Tables_number      4
_space_group_name_Hall           'P 2yb'
loop_
_symmetry_equiv_pos_site_id
_symmetry_equiv_pos_as_xyz
1 x,y,z
2 -x,1/2+y,-z
_cell_length_a                   6.6460(3)
_cell_length_b                   8.3795(3)
_cell_length_c                   8.2707(4)
_cell_angle_alpha                90
_cell_angle_beta                 112.640(2)
_cell_angle_gamma                90
_cell_volume                     425.104
loop_
_atom_site_label
_atom_site_type_symbol
_atom_site_fract_x
_atom_site_fract_y
_atom_site_fract_z
Ca1 Ca -0.10981(4) 0.362(2) 0.18659(3)
O1 O 0.0526(2) 0.42226(17) 0.49949(17)
O2 O 0.3751(2) 0.40946(18) 0.72374(19)
O3 O 0.1209(2) 0.14631(14) 0.36109(18)
O4 O 0.5710(2) 0.3822(2) 0.2209(2)
O5 O 0.24278(19) 0.42477(18) 0.21511(9)
O6 O -0.1783(2) 0.38260(19) -0.12841(16)
O7 O -0.1541(3) 0.64727(18) 0.1359(3)
O8 O -0.2791(4) 0.1185(2) 0.0546(2)
C1 C 0.2374(2) 0.3610(2) 0.58002(17)
C2 C 0.3029(3) 0.21347(18) 0.5017(2)
C3 C 0.4828(2) 0.2484(2) 0.4355(2)
C4 C 0.4268(2) 0.3596(2) 0.27973(17)
H1 H 0.349(3) 0.145(2) 0.598(2)
H2 H 0.054(3) 0.083(2) 0.426(2)
H3 H 0.611(3) 0.294(2) 0.539(2)
H4 H 0.526(3) 0.151(2) 0.399(2)
H5 H -0.153(3) 0.461(2) -0.175(2)
H6 H -0.297(3) 0.370(2) -0.182(2)
H7 H -0.143(3) 0.709(2) 0.077(2)
H8 H -0.276(3) 0.680(2) 0.113(2)
H9 H -0.284(3) 0.051(2) -0.044(2)
H10 H -0.307(3) 0.064(2) 0.117(2)
O4_2 O -0.4290(2) 0.3822(2) 0.2209(2)
Ca1_2 Ca 0.89019(4) 0.362(2) 0.18659(3)
loop_
_geom_bond_atom_site_label_1
_geom_bond_atom_site_label_2
_geom_bond_site_symmetry_1
_geom_bond_site_symmetry_2
Ca1 O1 1_555 1_555
O1 C1 1_555 1_555
O2 C1 1_555 1_555
O3 Ca1 1_555 1_555
O4 C4 1_555 1_555
O5 Ca1 1_555 1_555
O6 Ca1 1_555 1_555
O7 Ca1 1_555 1_555
O8 Ca1 1_555 1_555
C1 C2 1_555 1_555
C2 O3 1_555 1_555
C3 C2 1_555 1_555
C4 O5 1_555 1_555
H1 C2 1_555 1_555
H2 O3 1_555 1_555
H3 C3 1_555 1_555
H4 C3 1_555 1_555
H5 O6 1_555 1_555
H6 O6 1_555 1_555
H7 O7 1_555 1_555
H8 O7 1_555 1_555
H9 O8 1_555 1_555
H10 O8 1_555 1_555
O4_2 Ca1 1_555 1_555
Ca1_2 O4 1_555 1_555
C3 C4 1_555 1_555

#END
