
#######################################################################
#
#                 Cambridge Crystallographic Data Centre
#                                CCDC 
#
#######################################################################
#
# If this CIF has been generated from an entry in the Cambridge 
# Structural Database, then it will include bibliographic, chemical, 
# crystal, experimental, refinement or atomic coordinate data resulting 
# from the CCDC's data processing and validation procedures.
#
#######################################################################

data_IWETUZ
_symmetry_cell_setting           monoclinic
_symmetry_space_group_name_H-M   'P 21/c'
_symmetry_Int_Tables_number      14
_space_group_name_Hall           '-P 2ybc'
loop_
_symmetry_equiv_pos_site_id
_symmetry_equiv_pos_as_xyz
1 x,y,z
2 -x,1/2+y,1/2-z
3 -x,-y,-z
4 x,1/2-y,1/2+z
_cell_length_a                   8.472(1)
_cell_length_b                   13.051(1)
_cell_length_c                   19.063(2)
_cell_angle_alpha                90
_cell_angle_beta                 109.96(1)
_cell_angle_gamma                90
_cell_volume                     1981.15
loop_
_atom_site_label
_atom_site_type_symbol
_atom_site_fract_x
_atom_site_fract_y
_atom_site_fract_z
Ag1 Ag 0.1485(2) 0.9260(1) 0.0128(1)
O1 O 0.2998(15) 0.9059(8) 0.1557(6)
O2 O 0.0946(13) 1.0201(9) 0.1393(6)
N1 N -0.3809(15) 0.4749(10) -0.0634(7)
N2 N -0.2790(15) 0.3449(10) 0.0577(7)
N3 N 0.0142(15) 0.7824(10) 0.0062(7)
N4 N -0.6905(15) 0.0576(10) -0.0019(7)
C1 C -0.2483(15) 0.4991(10) -0.0017(7)
C2 C -0.1972(15) 0.4384(11) 0.0590(7)
C3 C -0.4096(15) 0.3206(11) -0.0033(7)
C4 C -0.4614(15) 0.3875(10) -0.0644(7)
C5 C -0.1600(16) 0.5994(10) 0.0014(7)
C6 C -0.1996(16) 0.6645(10) -0.0607(8)
C7 C -0.1115(16) 0.7541(11) -0.0546(8)
C8 C 0.0557(16) 0.7189(11) 0.0641(7)
C9 C -0.0292(16) 0.6250(11) 0.0633(7)
C10 C -0.7304(17) 0.1059(11) -0.0632(8)
C11 C -0.6330(17) 0.1949(11) -0.0684(8)
C12 C -0.5028(18) 0.2246(12) -0.0059(8)
C13 C -0.4694(18) 0.1662(11) 0.0585(8)
C14 C -0.5727(17) 0.0905(11) 0.0621(8)
C15 C 0.2050(20) 0.9680(13) 0.1801(8)
C16 C 0.2480(30) 0.9676(18) 0.2628(10)
Ag1B Ag -0.1485(2) 1.0740(1) -0.0128(1)
N4_2 N 0.3095(15) 1.0576(10) -0.0019(7)
Ag1_2 Ag -0.8515(2) -0.0740(1) 0.0128(1)
loop_
_geom_bond_atom_site_label_1
_geom_bond_atom_site_label_2
_geom_bond_site_symmetry_1
_geom_bond_site_symmetry_2
Ag1 O1 1_555 1_555
O1 C15 1_555 1_555
O2 C15 1_555 1_555
N1 C1 1_555 1_555
N2 C2 1_555 1_555
N3 Ag1 1_555 1_555
N4 C10 1_555 1_555
C1 C2 1_555 1_555
C3 N2 1_555 1_555
C4 N1 1_555 1_555
C5 C1 1_555 1_555
C6 C5 1_555 1_555
C7 N3 1_555 1_555
C8 N3 1_555 1_555
C9 C5 1_555 1_555
C10 C11 1_555 1_555
C11 C12 1_555 1_555
C12 C3 1_555 1_555
C13 C12 1_555 1_555
C14 N4 1_555 1_555
C15 C16 1_555 1_555
Ag1B Ag1 1_555 1_555
N4_2 Ag1 1_555 1_555
Ag1_2 N4 1_555 1_555
C3 C4 1_555 1_555
C6 C7 1_555 1_555
C8 C9 1_555 1_555
C13 C14 1_555 1_555

#END
