
#######################################################################
#
#                 Cambridge Crystallographic Data Centre
#                                CCDC 
#
#######################################################################
#
# If this CIF has been generated from an entry in the Cambridge 
# Structural Database, then it will include bibliographic, chemical, 
# crystal, experimental, refinement or atomic coordinate data resulting 
# from the CCDC's data processing and validation procedures.
#
#######################################################################

data_IWEWUD
_symmetry_cell_setting           monoclinic
_symmetry_space_group_name_H-M   'C 2/c'
_symmetry_Int_Tables_number      15
_space_group_name_Hall           '-C 2yn'
loop_
_symmetry_equiv_pos_site_id
_symmetry_equiv_pos_as_xyz
1 x,y,z
2 -x,y,1/2-z
3 1/2+x,1/2+y,z
4 1/2-x,1/2+y,1/2-z
5 -x,-y,-z
6 x,-y,1/2+z
7 1/2-x,1/2-y,-z
8 1/2+x,1/2-y,1/2+z
_cell_length_a                   19.6187(19)
_cell_length_b                   21.361(2)
_cell_length_c                   15.321(2)
_cell_angle_alpha                90
_cell_angle_beta                 126.5300(10)
_cell_angle_gamma                90
_cell_volume                     5159.28
loop_
_atom_site_label
_atom_site_type_symbol
_atom_site_fract_x
_atom_site_fract_y
_atom_site_fract_z
Co1 Co 0.7500 0.2500 1.0000
S1 S 0.59841(7) 0.22021(5) 0.62867(7)
O1 O 1.07034(15) 0.02568(10) 1.1409(3)
C1 C 0.80154(18) 0.11899(13) 0.9672(2)
H1 H 0.7420 0.1156 0.9134
O2 O 1.00768(13) -0.33991(9) 1.13624(17)
N1 N 0.96778(15) -0.04166(10) 1.1068(2)
H2 H 0.9149 -0.0438 1.0845
C2 C 0.85006(18) 0.06544(13) 0.9948(2)
H3 H 0.8240 0.0264 0.9622
O3 O 0.68879(14) -0.02374(9) 1.2199(2)
N2 N 0.96238(14) -0.14758(10) 1.11443(18)
C3 C 0.93648(18) 0.06974(13) 1.0702(2)
N3 N 0.93528(14) -0.25078(10) 1.10861(18)
H4 H 0.8861 -0.2368 1.0901
C4 C 0.97092(18) 0.12814(13) 1.1113(3)
H5 H 1.0307 0.1334 1.1595
N4 N 0.72024(17) -0.42200(12) 1.0002(2)
C5 C 0.91781(18) 0.17874(13) 1.0817(2)
H6 H 0.9427 0.2183 1.1130
N5 N 0.71213(14) 0.17669(10) 1.06619(18)
C6 C 0.9972(2) 0.01582(14) 1.1090(3)
N6 N 0.58055(14) 0.03588(10) 1.18961(19)
H7 H 0.5570 0.0730 1.1661
C7 C 1.01276(18) -0.09864(13) 1.1366(2)
N7 N 0.5000 0.02808(13) 1.2500
C8 C 1.09787(18) -0.10470(14) 1.1813(2)
H8 H 1.1328 -0.0690 1.1991
N8 N 0.65543(15) 0.22269(10) 0.8432(2)
N9 N 0.83359(14) 0.17559(10) 1.01185(18)
C9 C 1.12987(19) -0.16443(14) 1.1990(2)
H9 H 1.1880 -0.1702 1.2290
C10 C 1.07900(18) -0.21608(13) 1.1739(2)
H10 H 1.1001 -0.2575 1.1834
C11 C 0.99545(17) -0.20453(13) 1.1340(2)
C12 C 0.94224(18) -0.31381(13) 1.1086(2)
C13 C 0.86311(18) -0.34981(12) 1.0694(2)
C14 C 0.8448(2) -0.40353(14) 1.0095(3)
H11 H 0.8808 -0.4170 0.9909
C15 C 0.7736(2) -0.43737(15) 0.9769(3)
H12 H 0.7617 -0.4741 0.9350
C16 C 0.73855(19) -0.37016(16) 1.0585(3)
H13 H 0.7021 -0.3583 1.0773
C17 C 0.80763(18) -0.33277(14) 1.0930(2)
H14 H 0.8171 -0.2955 1.1328
C18 C 0.77107(18) 0.14342(13) 1.1539(2)
H15 H 0.8289 0.1547 1.1902
C19 C 0.75268(17) 0.09367(13) 1.1945(2)
H16 H 0.7969 0.0707 1.2557
C20 C 0.66873(17) 0.07806(12) 1.1444(2)
C21 C 0.60739(18) 0.11213(13) 1.0545(2)
H17 H 0.5490 0.1029 1.0180
C22 C 0.63244(18) 0.16008(13) 1.0183(2)
H18 H 0.5896 0.1824 0.9551
C23 C 0.64777(18) 0.02453(13) 1.1884(2)
C24 C 0.54333(16) -0.00400(12) 1.2235(2)
C25 C 0.54768(17) -0.06874(12) 1.2244(2)
H19 H 0.5814 -0.0903 1.2085
C26 C 0.5000 -0.10021(18) 1.2500
H20 H 0.5000 -0.1447 1.2500
C27 C 0.63209(17) 0.22132(12) 0.7536(2)
Co1A Co 0.2500 0.2500 1.5000
S1F S 0.90159(7) 0.27979(5) 1.37133(7)
O1F O 0.42966(15) 0.47432(10) 0.8591(3)
C1F C 0.69846(18) 0.38101(13) 1.0328(2)
H1F H 0.7580 0.3844 1.0866
O2F O 0.49232(13) 0.83991(9) 0.86376(17)
N1F N 0.53222(15) 0.54166(10) 0.8932(2)
H2F H 0.5851 0.5438 0.9155
C2F C 0.64994(18) 0.43456(13) 1.0052(2)
H3F H 0.6760 0.4736 1.0378
O3A O 0.31121(14) -0.02374(9) 1.2801(2)
N2F N 0.53762(14) 0.64758(10) 0.88557(18)
C3F C 0.56352(18) 0.43026(13) 0.9298(2)
N3F N 0.56472(14) 0.75078(10) 0.89139(18)
H4F H 0.6139 0.7368 0.9099
C4F C 0.52908(18) 0.37186(13) 0.8887(3)
H5F H 0.4693 0.3666 0.8405
N4F N 0.77976(17) 0.92200(12) 0.9998(2)
C5F C 0.58219(18) 0.32126(13) 0.9183(2)
H6F H 0.5573 0.2817 0.8870
N5A N 0.28787(14) 0.17669(10) 1.43381(18)
N5F N 0.78787(14) 0.32331(10) 0.93381(18)
C6F C 0.5028(2) 0.48418(14) 0.8910(3)
N6A N 0.41945(14) 0.03588(10) 1.31039(19)
H7A H 0.4430 0.0730 1.3339
C7F C 0.48724(18) 0.59864(13) 0.8634(2)
C8F C 0.40213(18) 0.60470(14) 0.8187(2)
H8F H 0.3672 0.5690 0.8009
N8F N 0.84457(15) 0.27731(10) 1.1568(2)
N9F N 0.66641(14) 0.32441(10) 0.98815(18)
C9F C 0.37013(19) 0.66443(14) 0.8010(2)
H9F H 0.3120 0.6702 0.7710
C10F C 0.42100(18) 0.71608(13) 0.8261(2)
H10F H 0.3999 0.7575 0.8166
C11F C 0.50455(17) 0.70453(13) 0.8660(2)
C12F C 0.55776(18) 0.81381(13) 0.8914(2)
C13F C 0.63689(18) 0.84981(12) 0.9306(2)
C14F C 0.6552(2) 0.90353(14) 0.9905(3)
H11F H 0.6192 0.9170 1.0091
C15F C 0.7264(2) 0.93737(15) 1.0231(3)
H12F H 0.7383 0.9741 1.0650
C16F C 0.76145(19) 0.87016(16) 0.9415(3)
H13F H 0.7979 0.8583 0.9227
C17F C 0.69237(18) 0.83277(14) 0.9070(2)
H14F H 0.6829 0.7955 0.8672
C18A C 0.22893(18) 0.14342(13) 1.3461(2)
H15A H 0.1711 0.1547 1.3098
C19A C 0.24732(17) 0.09367(13) 1.3055(2)
H16A H 0.2031 0.0707 1.2443
C20A C 0.33127(17) 0.07806(12) 1.3556(2)
C21A C 0.39261(18) 0.11213(13) 1.4455(2)
H17A H 0.4510 0.1029 1.4820
C22A C 0.36756(18) 0.16008(13) 1.4817(2)
H18A H 0.4104 0.1824 1.5449
C23A C 0.35223(18) 0.02453(13) 1.3116(2)
C24A C 0.45667(16) -0.00400(12) 1.2765(2)
C25A C 0.45232(17) -0.06874(12) 1.2756(2)
H19A H 0.4186 -0.0903 1.2915
C27F C 0.86791(17) 0.27868(12) 1.2464(2)
loop_
_geom_bond_atom_site_label_1
_geom_bond_atom_site_label_2
_geom_bond_site_symmetry_1
_geom_bond_site_symmetry_2
Co1 N5 1_555 1_555
S1 C27 1_555 1_555
O1 C6 1_555 1_555
C1 H1 1_555 1_555
O2 C12 1_555 1_555
N1 H2 1_555 1_555
C2 C1 1_555 1_555
H3 C2 1_555 1_555
O3 C23 1_555 1_555
N2 C7 1_555 1_555
C3 C2 1_555 1_555
N3 H4 1_555 1_555
C4 C3 1_555 1_555
H5 C4 1_555 1_555
N4 C15 1_555 1_555
C5 C4 1_555 1_555
H6 C5 1_555 1_555
N5 C18 1_555 1_555
C6 N1 1_555 1_555
N6 H7 1_555 1_555
C7 N1 1_555 1_555
N7 C24 1_555 1_555
C8 C7 1_555 1_555
H8 C8 1_555 1_555
N8 Co1 1_555 1_555
N9 Co1 1_555 1_555
C9 C8 1_555 1_555
H9 C9 1_555 1_555
C10 C9 1_555 1_555
H10 C10 1_555 1_555
C11 N2 1_555 1_555
C12 N3 1_555 1_555
C13 C12 1_555 1_555
C14 C13 1_555 1_555
H11 C14 1_555 1_555
C15 C14 1_555 1_555
H12 C15 1_555 1_555
C16 N4 1_555 1_555
H13 C16 1_555 1_555
C17 C13 1_555 1_555
H14 C17 1_555 1_555
C18 H15 1_555 1_555
C19 C18 1_555 1_555
H16 C19 1_555 1_555
C20 C19 1_555 1_555
C21 C20 1_555 1_555
H17 C21 1_555 1_555
C22 N5 1_555 1_555
H18 C22 1_555 1_555
C23 N6 1_555 1_555
C24 N6 1_555 1_555
C25 C24 1_555 1_555
H19 C25 1_555 1_555
C26 C25 1_555 1_555
H20 C26 1_555 1_555
C27 N8 1_555 1_555
Co1A N5A 1_555 1_555
S1F C27F 1_555 1_555
O1F C6F 1_555 1_555
C1F H1F 1_555 1_555
O2F C12F 1_555 1_555
N1F H2F 1_555 1_555
C2F C1F 1_555 1_555
H3F C2F 1_555 1_555
O3A C23A 1_555 1_555
N2F C7F 1_555 1_555
C3F C2F 1_555 1_555
N3F H4F 1_555 1_555
C4F C3F 1_555 1_555
H5F C4F 1_555 1_555
N4F C15F 1_555 1_555
C5F C4F 1_555 1_555
H6F C5F 1_555 1_555
N5A C18A 1_555 1_555
N5F Co1 1_555 1_555
C6F N1F 1_555 1_555
N6A H7A 1_555 1_555
C7F N1F 1_555 1_555
C8F C7F 1_555 1_555
H8F C8F 1_555 1_555
N8F Co1 1_555 1_555
N9F Co1 1_555 1_555
C9F C8F 1_555 1_555
H9F C9F 1_555 1_555
C10F C9F 1_555 1_555
H10F C10F 1_555 1_555
C11F N2F 1_555 1_555
C12F N3F 1_555 1_555
C13F C12F 1_555 1_555
C14F C13F 1_555 1_555
H11F C14F 1_555 1_555
C15F C14F 1_555 1_555
H12F C15F 1_555 1_555
C16F N4F 1_555 1_555
H13F C16F 1_555 1_555
C17F C13F 1_555 1_555
H14F C17F 1_555 1_555
C18A H15A 1_555 1_555
C19A C18A 1_555 1_555
H16A C19A 1_555 1_555
C20A C19A 1_555 1_555
C21A C20A 1_555 1_555
H17A C21A 1_555 1_555
C22A N5A 1_555 1_555
H18A C22A 1_555 1_555
C23A N6A 1_555 1_555
C24A N7 1_555 1_555
C25A C26 1_555 1_555
H19A C25A 1_555 1_555
C27F N8F 1_555 1_555
C1 N9 1_555 1_555
C3 C6 1_555 1_555
N3 C11 1_555 1_555
C5 N9 1_555 1_555
C10 C11 1_555 1_555
C16 C17 1_555 1_555
C20 C23 1_555 1_555
C21 C22 1_555 1_555
C1F N9F 1_555 1_555
C3F C6F 1_555 1_555
N3F C11F 1_555 1_555
C5F N9F 1_555 1_555
N6A C24A 1_555 1_555
C10F C11F 1_555 1_555
C16F C17F 1_555 1_555
C20A C23A 1_555 1_555
C21A C22A 1_555 1_555
C24A C25A 1_555 1_555

#END
