
#######################################################################
#
#                 Cambridge Crystallographic Data Centre
#                                CCDC 
#
#######################################################################
#
# If this CIF has been generated from an entry in the Cambridge 
# Structural Database, then it will include bibliographic, chemical, 
# crystal, experimental, refinement or atomic coordinate data resulting 
# from the CCDC's data processing and validation procedures.
#
#######################################################################

data_IWEXAK
_symmetry_cell_setting           monoclinic
_symmetry_space_group_name_H-M   'C 2/c'
_symmetry_Int_Tables_number      15
_space_group_name_Hall           '-C 2yn'
loop_
_symmetry_equiv_pos_site_id
_symmetry_equiv_pos_as_xyz
1 x,y,z
2 -x,y,1/2-z
3 1/2+x,1/2+y,z
4 1/2-x,1/2+y,1/2-z
5 -x,-y,-z
6 x,-y,1/2+z
7 1/2-x,1/2-y,-z
8 1/2+x,1/2-y,1/2+z
_cell_length_a                   19.745(4)
_cell_length_b                   21.497(4)
_cell_length_c                   15.445(3)
_cell_angle_alpha                90
_cell_angle_beta                 127.23(3)
_cell_angle_gamma                90
_cell_volume                     5219.78
loop_
_atom_site_label
_atom_site_type_symbol
_atom_site_fract_x
_atom_site_fract_y
_atom_site_fract_z
Mn1 Mn 0.7500 0.2500 1.0000
S1 S 0.89822(8) 0.22296(6) 1.37235(8)
O1 O 0.42834(15) 0.02236(10) 0.8580(3)
O2 O 0.49237(13) -0.34114(8) 0.86220(18)
O3 O 0.81400(14) -0.02552(9) 0.7827(2)
N1 N 0.66396(14) 0.17197(10) 0.98927(18)
N2 N 0.53113(14) -0.04390(10) 0.8931(2)
H1 H 0.5841 -0.0458 0.9159
N3 N 0.53595(13) -0.14944(10) 0.88425(18)
H2 H 0.5894 -0.1440 0.9105
N4 N 0.56446(14) -0.25211(10) 0.89083(18)
H3 H 0.6134 -0.2380 0.9093
N5 N 0.77959(17) -0.42101(12) 1.0004(2)
H4 H 0.8245 -0.4437 1.0226
N6 N 0.78942(14) 0.17392(10) 0.93170(18)
N7 N 0.92078(14) 0.03459(10) 0.81042(19)
H5 H 0.9437 0.0718 0.8325
N8 N 1.0000 0.02668(13) 0.7500
N9 N 0.85170(16) 0.22307(11) 1.1638(2)
C1 C 0.57972(18) 0.17511(13) 0.9185(3)
H6 H 0.5545 0.2143 0.8870
C2 C 0.52747(19) 0.12470(14) 0.8886(3)
H7 H 0.4675 0.1297 0.8397
C3 C 0.56204(17) 0.06647(12) 0.9296(2)
C4 C 0.64865(18) 0.06252(13) 1.0055(2)
H8 H 0.6751 0.0237 1.0381
C5 C 0.69683(18) 0.11593(13) 1.0338(2)
H9 H 0.7566 0.1128 1.0879
C6 C 0.50122(19) 0.01272(13) 0.8901(3)
C7 C 0.48655(17) -0.10071(12) 0.8633(2)
C8 C 0.40146(18) -0.10722(14) 0.8186(3)
H10 H 0.3661 -0.0720 0.8006
C9 C 0.37013(18) -0.16688(14) 0.8013(2)
H11 H 0.3122 -0.1729 0.7718
C10 C 0.42098(18) -0.21783(13) 0.8260(2)
H12 H 0.4001 -0.2590 0.8165
C11 C 0.50384(17) -0.20633(12) 0.8652(2)
C12 C 0.55775(17) -0.31482(12) 0.8909(2)
C13 C 0.63695(17) -0.35028(12) 0.9302(2)
C14 C 0.69203(18) -0.33298(14) 0.9067(2)
H13 H 0.6818 -0.2961 0.8665
C15 C 0.76153(18) -0.36974(15) 0.9420(2)
H14 H 0.7980 -0.3580 0.9240
C16 C 0.7276(2) -0.43666(15) 1.0238(3)
H15 H 0.7402 -0.4731 1.0660
C17 C 0.6568(2) -0.40345(13) 0.9908(3)
H16 H 0.6214 -0.4170 1.0096
C18 C 0.73067(18) 0.13993(13) 0.8456(2)
H17 H 0.6726 0.1504 0.8094
C19 C 0.74902(17) 0.09052(13) 0.8057(2)
H18 H 0.7047 0.0671 0.7453
C20 C 0.83332(17) 0.07598(12) 0.8556(2)
C21 C 0.89472(17) 0.11089(13) 0.9439(2)
H19 H 0.9533 0.1023 0.9800
C22 C 0.87010(18) 0.15879(13) 0.9798(2)
H20 H 0.9132 0.1819 1.0419
C23 C 0.85462(17) 0.02276(12) 0.8131(2)
C24 C 0.95739(16) -0.00527(11) 0.7767(2)
C25 C 0.95289(17) -0.06929(12) 0.7749(2)
H21 H 0.9190 -0.0906 0.7901
C26 C 1.0000 -0.10103(17) 0.7500
H22 H 1.0000 -0.1452 0.7500
C27 C 0.87025(18) 0.22262(13) 1.2500(3)
Mn1A Mn 1.2500 0.2500 0.5000
S1F S 0.60178(8) 0.27704(6) 0.62765(8)
O1F O 1.07166(15) 0.47764(10) 1.1420(3)
O2F O 1.00763(13) 0.84114(8) 1.13780(18)
O3A O 1.18600(14) -0.02552(9) 0.7173(2)
N1F N 0.83604(14) 0.32803(10) 1.01073(18)
N2F N 0.96887(14) 0.54390(10) 1.1069(2)
H1F H 0.9159 0.5458 1.0841
N3F N 0.96405(13) 0.64944(10) 1.11575(18)
H2F H 0.9106 0.6440 1.0895
N4F N 0.93554(14) 0.75211(10) 1.10917(18)
H3F H 0.8866 0.7380 1.0907
N5F N 0.72041(17) 0.92101(12) 0.9996(2)
H4F H 0.6755 0.9437 0.9774
N6A N 1.21058(14) 0.17392(10) 0.56830(18)
N6F N 0.71058(14) 0.32608(10) 1.06830(18)
N7A N 1.07922(14) 0.03459(10) 0.68958(19)
H5A H 1.0563 0.0718 0.6675
N9F N 0.64830(16) 0.27693(11) 0.8362(2)
C1F C 0.92028(18) 0.32489(13) 1.0815(3)
H6F H 0.9455 0.2857 1.1130
C2F C 0.97253(19) 0.37530(14) 1.1114(3)
H7F H 1.0325 0.3703 1.1603
C3F C 0.93796(17) 0.43353(12) 1.0704(2)
C4F C 0.85135(18) 0.43748(13) 0.9945(2)
H8F H 0.8249 0.4763 0.9619
C5F C 0.80317(18) 0.38407(13) 0.9662(2)
H9F H 0.7434 0.3872 0.9121
C6F C 0.99878(19) 0.48728(13) 1.1099(3)
C7F C 1.01345(17) 0.60071(12) 1.1367(2)
C8F C 1.09854(18) 0.60722(14) 1.1814(3)
H10F H 1.1339 0.5720 1.1994
C9F C 1.12987(18) 0.66688(14) 1.1987(2)
H11F H 1.1878 0.6729 1.2282
C10F C 1.07902(18) 0.71783(13) 1.1740(2)
H12F H 1.0999 0.7590 1.1835
C11F C 0.99616(17) 0.70633(12) 1.1348(2)
C12F C 0.94225(17) 0.81482(12) 1.1091(2)
C13F C 0.86305(17) 0.85028(12) 1.0698(2)
C14F C 0.80797(18) 0.83298(14) 1.0933(2)
H13F H 0.8182 0.7961 1.1335
C15F C 0.73847(18) 0.86974(15) 1.0580(2)
H14F H 0.7020 0.8580 1.0760
C16F C 0.7724(2) 0.93666(15) 0.9762(3)
H15F H 0.7598 0.9731 0.9340
C17F C 0.8432(2) 0.90345(13) 1.0092(3)
H16F H 0.8786 0.9170 0.9904
C18A C 1.26933(18) 0.13993(13) 0.6544(2)
H17A H 1.3274 0.1504 0.6906
C19A C 1.25098(17) 0.09052(13) 0.6943(2)
H18A H 1.2953 0.0671 0.7547
C20A C 1.16668(17) 0.07598(12) 0.6444(2)
C21A C 1.10528(17) 0.11089(13) 0.5561(2)
H19A H 1.0467 0.1023 0.5200
C22A C 1.12990(18) 0.15879(13) 0.5202(2)
H20A H 1.0868 0.1819 0.4581
C23A C 1.14538(17) 0.02276(12) 0.6869(2)
C24A C 1.04261(16) -0.00527(11) 0.7233(2)
C25A C 1.04711(17) -0.06929(12) 0.7251(2)
H21A H 1.0810 -0.0906 0.7099
C27F C 0.62975(18) 0.27738(13) 0.7500(3)
loop_
_geom_bond_atom_site_label_1
_geom_bond_atom_site_label_2
_geom_bond_site_symmetry_1
_geom_bond_site_symmetry_2
Mn1 N1 1_555 1_555
S1 C27 1_555 1_555
O1 C6 1_555 1_555
O2 C12 1_555 1_555
O3 C23 1_555 1_555
N1 C1 1_555 1_555
N2 H1 1_555 1_555
N3 H2 1_555 1_555
N4 H3 1_555 1_555
N5 H4 1_555 1_555
N6 Mn1 1_555 1_555
N7 H5 1_555 1_555
N8 C24 1_555 1_555
N9 Mn1 1_555 1_555
C1 H6 1_555 1_555
C2 C1 1_555 1_555
H7 C2 1_555 1_555
C3 C2 1_555 1_555
C4 C3 1_555 1_555
H8 C4 1_555 1_555
C5 N1 1_555 1_555
H9 C5 1_555 1_555
C6 N2 1_555 1_555
C7 N2 1_555 1_555
C8 C7 1_555 1_555
H10 C8 1_555 1_555
C9 C8 1_555 1_555
H11 C9 1_555 1_555
C10 C9 1_555 1_555
H12 C10 1_555 1_555
C11 N3 1_555 1_555
C12 N4 1_555 1_555
C13 C12 1_555 1_555
C14 C13 1_555 1_555
H13 C14 1_555 1_555
C15 N5 1_555 1_555
H14 C15 1_555 1_555
C16 N5 1_555 1_555
H15 C16 1_555 1_555
C17 C13 1_555 1_555
H16 C17 1_555 1_555
C18 N6 1_555 1_555
H17 C18 1_555 1_555
C19 C18 1_555 1_555
H18 C19 1_555 1_555
C20 C19 1_555 1_555
C21 C20 1_555 1_555
H19 C21 1_555 1_555
C22 N6 1_555 1_555
H20 C22 1_555 1_555
C23 N7 1_555 1_555
C24 N7 1_555 1_555
C25 C24 1_555 1_555
H21 C25 1_555 1_555
C26 C25 1_555 1_555
H22 C26 1_555 1_555
C27 N9 1_555 1_555
Mn1A N6A 1_555 1_555
S1F C27F 1_555 1_555
O1F C6F 1_555 1_555
O2F C12F 1_555 1_555
O3A C23A 1_555 1_555
N1F Mn1 1_555 1_555
N2F H1F 1_555 1_555
N3F H2F 1_555 1_555
N4F H3F 1_555 1_555
N5F H4F 1_555 1_555
N6A C18A 1_555 1_555
N6F Mn1 1_555 1_555
N7A H5A 1_555 1_555
N9F Mn1 1_555 1_555
C1F N1F 1_555 1_555
H6F C1F 1_555 1_555
C2F C1F 1_555 1_555
H7F C2F 1_555 1_555
C3F C2F 1_555 1_555
C4F C3F 1_555 1_555
H8F C4F 1_555 1_555
C5F N1F 1_555 1_555
H9F C5F 1_555 1_555
C6F N2F 1_555 1_555
C7F N2F 1_555 1_555
C8F C7F 1_555 1_555
H10F C8F 1_555 1_555
C9F C8F 1_555 1_555
H11F C9F 1_555 1_555
C10F C9F 1_555 1_555
H12F C10F 1_555 1_555
C11F N3F 1_555 1_555
C12F N4F 1_555 1_555
C13F C12F 1_555 1_555
C14F C13F 1_555 1_555
H13F C14F 1_555 1_555
C15F N5F 1_555 1_555
H14F C15F 1_555 1_555
C16F N5F 1_555 1_555
H15F C16F 1_555 1_555
C17F C13F 1_555 1_555
H16F C17F 1_555 1_555
C18A H17A 1_555 1_555
C19A C18A 1_555 1_555
H18A C19A 1_555 1_555
C20A C19A 1_555 1_555
C21A C20A 1_555 1_555
H19A C21A 1_555 1_555
C22A N6A 1_555 1_555
H20A C22A 1_555 1_555
C23A N7A 1_555 1_555
C24A N8 1_555 1_555
C25A C26 1_555 1_555
H21A C25A 1_555 1_555
C27F N9F 1_555 1_555
N3 C7 1_555 1_555
N4 C11 1_555 1_555
C3 C6 1_555 1_555
C4 C5 1_555 1_555
C10 C11 1_555 1_555
C14 C15 1_555 1_555
C16 C17 1_555 1_555
C20 C23 1_555 1_555
C21 C22 1_555 1_555
N3F C7F 1_555 1_555
N4F C11F 1_555 1_555
N7A C24A 1_555 1_555
C3F C6F 1_555 1_555
C4F C5F 1_555 1_555
C10F C11F 1_555 1_555
C14F C15F 1_555 1_555
C16F C17F 1_555 1_555
C20A C23A 1_555 1_555
C21A C22A 1_555 1_555
C24A C25A 1_555 1_555

#END
