
#######################################################################
#
#                 Cambridge Crystallographic Data Centre
#                                CCDC 
#
#######################################################################
#
# If this CIF has been generated from an entry in the Cambridge 
# Structural Database, then it will include bibliographic, chemical, 
# crystal, experimental, refinement or atomic coordinate data resulting 
# from the CCDC's data processing and validation procedures.
#
#######################################################################

data_IWEXIS
_symmetry_cell_setting           triclinic
_symmetry_space_group_name_H-M   'P -1'
_symmetry_Int_Tables_number      2
_space_group_name_Hall           '-P 1'
loop_
_symmetry_equiv_pos_site_id
_symmetry_equiv_pos_as_xyz
1 x,y,z
2 -x,-y,-z
_cell_length_a                   6.4690(7)
_cell_length_b                   8.0071(8)
_cell_length_c                   11.6101(12)
_cell_angle_alpha                74.8020(10)
_cell_angle_beta                 86.198(2)
_cell_angle_gamma                84.880(2)
_cell_volume                     577.454
loop_
_atom_site_label
_atom_site_type_symbol
_atom_site_fract_x
_atom_site_fract_y
_atom_site_fract_z
Cu1 Cu 0.5000 0.5000 0.5000
N1 N 0.7062(4) 0.6258(3) 0.5555(2)
N2 N 0.9966(5) 0.7528(4) 0.6671(3)
O1 O 0.6867(4) 0.2990(3) 0.5682(2)
O2 O 0.9668(4) 0.2195(3) 0.6775(3)
O3 O 1.1025(4) 0.4089(4) 0.8632(2)
O4 O 1.3427(4) 0.4569(4) 0.7121(2)
C1 C 0.8378(5) 0.3279(4) 0.6238(3)
C2 C 1.1627(5) 0.4706(4) 0.7557(3)
C3 C 0.8517(5) 0.5185(4) 0.6202(3)
C4 C 0.9973(5) 0.5828(4) 0.6754(3)
C5 C 0.8526(6) 0.8575(5) 0.6012(3)
H4 H 0.8509 0.9764 0.5925
C6 C 0.7056(6) 0.7951(4) 0.5453(3)
H5 H 0.6064 0.8716 0.5005
Cu1_2 Cu 1.5000 0.5000 0.5000
Cu1_3 Cu -0.5000 0.5000 0.5000
N1A N 0.2938(4) 0.3742(3) 0.4445(2)
N2A N 0.0034(5) 0.2472(4) 0.3329(3)
O1A O 0.3133(4) 0.7010(3) 0.4318(2)
O2A O 0.0332(4) 0.7805(3) 0.3225(3)
O3A O -0.1025(4) 0.5911(4) 0.1368(2)
O4A O -0.3427(4) 0.5431(4) 0.2879(2)
O4_2 O 0.3427(4) 0.4569(4) 0.7121(2)
O4A_2 O 0.6573(4) 0.5431(4) 0.2879(2)
C1A C 0.1622(5) 0.6721(4) 0.3762(3)
C2A C -0.1627(5) 0.5294(4) 0.2443(3)
C3A C 0.1483(5) 0.4815(4) 0.3798(3)
C4A C 0.0027(5) 0.4172(4) 0.3246(3)
C5A C 0.1474(6) 0.1425(5) 0.3988(3)
H4A H 0.1491 0.0236 0.4075
C6A C 0.2944(6) 0.2049(4) 0.4547(3)
H5A H 0.3936 0.1284 0.4995
N3 N 0.6000(5) 0.7764(4) 0.9866(3)
H1 H 0.6919 0.7263 1.0371
N4 N 0.3595(5) 0.5994(5) 1.1015(3)
H2 H 0.4339 0.5802 1.1630
H3 H 0.2321 0.5783 1.1209
C7 C 0.4060(5) 0.7234(4) 1.0046(3)
C8 C 0.2612(6) 0.8004(5) 0.9156(3)
H6 H 0.1288 0.7610 0.9223
C9 C 0.3151(7) 0.9307(5) 0.8213(3)
H7 H 0.2181 0.9831 0.7646
C10 C 0.5174(7) 0.9879(5) 0.8081(4)
H8 H 0.5550 1.0788 0.7442
C11 C 0.6554(6) 0.9067(5) 0.8912(3)
H9 H 0.7906 0.9405 0.8830
loop_
_geom_bond_atom_site_label_1
_geom_bond_atom_site_label_2
_geom_bond_site_symmetry_1
_geom_bond_site_symmetry_2
Cu1 N1 1_555 1_555
N1 C3 1_555 1_555
N2 C4 1_555 1_555
N3 H1 1_555 1_555
N4 H2 1_555 1_555
H3 N4 1_555 1_555
O1 Cu1 1_555 1_555
O2 C1 1_555 1_555
O3 C2 1_555 1_555
O4 C2 1_555 1_555
C1 O1 1_555 1_555
C2 C4 1_555 1_555
C3 C1 1_555 1_555
C4 C3 1_555 1_555
C5 N2 1_555 1_555
H4 C5 1_555 1_555
C6 N1 1_555 1_555
H5 C6 1_555 1_555
C7 N3 1_555 1_555
C8 C7 1_555 1_555
H6 C8 1_555 1_555
C9 C8 1_555 1_555
H7 C9 1_555 1_555
C10 C9 1_555 1_555
H8 C10 1_555 1_555
C11 N3 1_555 1_555
H9 C11 1_555 1_555
Cu1_2 O4 1_555 1_555
Cu1_3 O4A 1_555 1_555
N1A Cu1 1_555 1_555
N2A C4A 1_555 1_555
O1A Cu1 1_555 1_555
O2A C1A 1_555 1_555
O3A C2A 1_555 1_555
O4A C2A 1_555 1_555
O4_2 Cu1 1_555 1_555
O4A_2 Cu1 1_555 1_555
C1A O1A 1_555 1_555
C2A C4A 1_555 1_555
C3A N1A 1_555 1_555
C4A C3A 1_555 1_555
C5A N2A 1_555 1_555
H4A C5A 1_555 1_555
C6A N1A 1_555 1_555
H5A C6A 1_555 1_555
N4 C7 1_555 1_555
C5 C6 1_555 1_555
C10 C11 1_555 1_555
C1A C3A 1_555 1_555
C5A C6A 1_555 1_555

#END
