
#######################################################################
#
#                 Cambridge Crystallographic Data Centre
#                                CCDC 
#
#######################################################################
#
# If this CIF has been generated from an entry in the Cambridge 
# Structural Database, then it will include bibliographic, chemical, 
# crystal, experimental, refinement or atomic coordinate data resulting 
# from the CCDC's data processing and validation procedures.
#
#######################################################################

data_IWEXIS01
_symmetry_cell_setting           triclinic
_symmetry_space_group_name_H-M   'P -1'
_symmetry_Int_Tables_number      2
_space_group_name_Hall           '-P 1'
loop_
_symmetry_equiv_pos_site_id
_symmetry_equiv_pos_as_xyz
1 x,y,z
2 -x,-y,-z
_cell_length_a                   6.4108(5)
_cell_length_b                   7.9773(6)
_cell_length_c                   11.4761(9)
_cell_angle_alpha                75.183(1)
_cell_angle_beta                 85.610(1)
_cell_angle_gamma                84.775(1)
_cell_volume                     564.159
loop_
_atom_site_label
_atom_site_type_symbol
_atom_site_fract_x
_atom_site_fract_y
_atom_site_fract_z
Cu1 Cu 0.5000 0.5000 0.5000
O1 O 0.3125(2) 0.70175(19) 0.43267(14)
O2 O 0.0320(3) 0.7799(2) 0.32119(15)
O3 O -0.1013(2) 0.5882(2) 0.13516(14)
O4 O -0.3460(2) 0.5415(2) 0.28819(14)
N1 N 0.2930(3) 0.3724(2) 0.44512(16)
N2 N 0.0015(3) 0.2434(2) 0.33188(17)
C1 C 0.1608(3) 0.6714(3) 0.37567(19)
C2 C 0.1471(3) 0.4807(3) 0.38035(19)
C3 C 0.2927(3) 0.2025(3) 0.4565(2)
H1 H 0.3925 0.1244 0.5040
C4 C 0.1456(4) 0.1389(3) 0.3985(2)
H2 H 0.1482 0.0171 0.4068
C5 C 0.0003(3) 0.4149(3) 0.32351(19)
C6 C -0.1636(3) 0.5277(3) 0.2428(2)
Cu1_2 Cu -0.5000 0.5000 0.5000
O1A O 0.6875(2) 0.29825(19) 0.56733(14)
O1A_2 O -0.3125(2) 0.29825(19) 0.56733(14)
O2A O -0.0320(3) 0.2201(2) 0.67881(15)
O3A O 0.1013(2) 0.4118(2) 0.86484(14)
O4_2 O 0.6540(2) 0.5415(2) 0.28819(14)
O4A O 0.3460(2) 0.4585(2) 0.71181(14)
N1A N 0.7070(3) 0.6276(2) 0.55488(16)
N1A_2 N -0.2930(3) 0.6276(2) 0.55488(16)
N2A N -0.0015(3) 0.7566(2) 0.66812(17)
C1A C -0.1608(3) 0.3286(3) 0.62433(19)
C2A C -0.1471(3) 0.5193(3) 0.61965(19)
C3A C -0.2927(3) 0.7975(3) 0.5435(2)
H1A H -0.3925 0.8756 0.4960
C4A C -0.1456(4) 0.8611(3) 0.6015(2)
H2A H -0.1482 0.9829 0.5932
C5A C -0.0003(3) 0.5851(3) 0.67649(19)
C6A C 0.1636(3) 0.4723(3) 0.7572(2)
N3 N 0.3965(3) 0.2220(2) 0.01429(17)
H3 H 0.2970 0.2728 -0.0300
N4 N 0.6408(3) 0.4019(3) -0.10070(17)
H4 H 0.5593 0.4172 -0.1619
H5 H 0.7791 0.4170 -0.1162
C7 C 0.3402(4) 0.0902(3) 0.1093(2)
H6 H 0.2011 0.0551 0.1175
C8 C 0.4793(4) 0.0077(3) 0.1930(2)
H7 H 0.4406 -0.0869 0.2577
C9 C 0.6831(4) 0.0669(3) 0.1807(2)
H8 H 0.7825 0.0133 0.2388
C10 C 0.7376(3) 0.2004(3) 0.0859(2)
H9 H 0.8733 0.2420 0.0795
C11 C 0.5926(3) 0.2775(3) -0.0030(2)
loop_
_geom_bond_atom_site_label_1
_geom_bond_atom_site_label_2
_geom_bond_site_symmetry_1
_geom_bond_site_symmetry_2
Cu1 O1 1_555 1_555
O1 C1 1_555 1_555
O2 C1 1_555 1_555
O3 C6 1_555 1_555
O4 C6 1_555 1_555
N1 Cu1 1_555 1_555
N2 C4 1_555 1_555
C1 C2 1_555 1_555
C2 N1 1_555 1_555
C3 N1 1_555 1_555
H1 C3 1_555 1_555
C4 C3 1_555 1_555
H2 C4 1_555 1_555
C5 N2 1_555 1_555
C6 C5 1_555 1_555
N3 H3 1_555 1_555
N4 H4 1_555 1_555
H5 N4 1_555 1_555
C7 N3 1_555 1_555
H6 C7 1_555 1_555
C8 C7 1_555 1_555
H7 C8 1_555 1_555
C9 C8 1_555 1_555
H8 C9 1_555 1_555
C10 C9 1_555 1_555
H9 C10 1_555 1_555
C11 N3 1_555 1_555
Cu1_2 O4 1_555 1_555
O1A Cu1 1_555 1_555
O1A_2 Cu1_2 1_555 1_555
O2A C1A 1_555 1_555
O3A C6A 1_555 1_555
O4_2 Cu1 1_555 1_555
O4A Cu1 1_555 1_555
N1A Cu1 1_555 1_555
N1A_2 Cu1_2 1_555 1_555
N2A C4A 1_555 1_555
C1A O1A_2 1_555 1_555
C2A N1A_2 1_555 1_555
C3A N1A_2 1_555 1_555
H1A C3A 1_555 1_555
C4A C3A 1_555 1_555
H2A C4A 1_555 1_555
C5A N2A 1_555 1_555
C6A O4A 1_555 1_555
C2 C5 1_555 1_555
N4 C11 1_555 1_555
C10 C11 1_555 1_555
C1A C2A 1_555 1_555
C2A C5A 1_555 1_555
C5A C6A 1_555 1_555

#END
