
#######################################################################
#
#                 Cambridge Crystallographic Data Centre
#                                CCDC 
#
#######################################################################
#
# If this CIF has been generated from an entry in the Cambridge 
# Structural Database, then it will include bibliographic, chemical, 
# crystal, experimental, refinement or atomic coordinate data resulting 
# from the CCDC's data processing and validation procedures.
#
#######################################################################

data_IWEYIT
_symmetry_cell_setting           triclinic
_symmetry_space_group_name_H-M   'P -1'
_symmetry_Int_Tables_number      2
_space_group_name_Hall           '-P 1'
loop_
_symmetry_equiv_pos_site_id
_symmetry_equiv_pos_as_xyz
1 x,y,z
2 -x,-y,-z
_cell_length_a                   10.0989(6)
_cell_length_b                   10.1872(19)
_cell_length_c                   10.7561(16)
_cell_angle_alpha                80.51(3)
_cell_angle_beta                 65.67(2)
_cell_angle_gamma                68.58(2)
_cell_volume                     938.523
loop_
_atom_site_label
_atom_site_type_symbol
_atom_site_fract_x
_atom_site_fract_y
_atom_site_fract_z
Zn1 Zn -0.02654(6) 0.39836(6) 0.29691(5)
O1 O 0.1156(4) 0.5440(4) 0.1521(4)
O2 O 0.1905(5) 0.3937(5) 0.2983(4)
O3 O 0.8013(4) 0.4945(4) 0.2319(4)
O4 O 0.6781(5) 0.3457(5) 0.3494(5)
O5 O -0.1513(5) 0.5738(4) 0.4384(4)
N1 N 0.0409(5) 0.0940(4) 0.5972(4)
N2 N -0.1146(5) 0.1261(5) 0.6496(4)
N3 N -0.0382(5) 0.2546(4) 0.4594(4)
N4 N 0.1484(5) 0.1710(4) 0.9360(4)
N5 N 0.2507(5) 0.0754(5) 0.9848(4)
N6 N 0.0878(5) 0.2481(4) 1.1345(4)
C1 C 0.1373(7) -0.0126(5) 0.6613(5)
H1 H 0.2446 -0.0257 0.6044
H2 H 0.1206 -0.1015 0.6657
C2 C 0.1059(7) 0.0248(5) 0.8038(5)
H3 H 0.1629 -0.0554 0.8448
H4 H -0.0029 0.0451 0.8594
C3 C 0.1522(6) 0.1529(5) 0.8019(5)
H5 H 0.2551 0.1402 0.7336
H6 H 0.0821 0.2370 0.7774
C4 C -0.1569(6) 0.2230(6) 0.5627(5)
H7 H -0.2590 0.2658 0.5716
C5 C 0.0839(6) 0.1694(5) 0.4865(5)
H8 H 0.1853 0.1645 0.4339
C6 C 0.2096(6) 0.1283(6) 1.1041(5)
H9 H 0.2607 0.0863 1.1627
C7 C 0.0527(6) 0.2706(5) 1.0255(5)
H10 H -0.0280 0.3459 1.0137
C8 C 0.3394(5) 0.5408(5) 0.1788(5)
C9 C 0.4494(5) 0.4732(5) 0.2358(5)
H11 H 0.4428 0.3934 0.2910
C10 C 0.5688(5) 0.5238(5) 0.2111(5)
C11 C 0.5750(6) 0.6445(5) 0.1312(5)
H12 H 0.6533 0.6802 0.1153
C12 C 0.4667(6) 0.7120(6) 0.0752(6)
H13 H 0.4724 0.7927 0.0214
C13 C 0.3484(6) 0.6599(5) 0.0987(5)
H14 H 0.2755 0.7056 0.0603
C14 C 0.2086(6) 0.4893(6) 0.2094(5)
C15 C 0.6902(5) 0.4475(5) 0.2704(5)
H15 H -0.246(5) 0.627(5) 0.436(5)
H16 H -0.154(6) 0.562(5) 0.525(4)
Zn1_2 Zn 0.97346(6) 0.39836(6) 0.29691(5)
Zn1_3 Zn -0.02654(6) 0.39836(6) 1.29691(5)
O3_2 O -0.1987(4) 0.4945(4) 0.2319(4)
N6_2 N 0.0878(5) 0.2481(4) 0.1345(4)
O6 O 0.5378(6) 0.7706(7) 0.4877(7)
O7 O 0.4644(9) 0.0298(11) 0.3042(12)
loop_
_geom_bond_atom_site_label_1
_geom_bond_atom_site_label_2
_geom_bond_site_symmetry_1
_geom_bond_site_symmetry_2
Zn1 O1 1_555 1_555
O1 C14 1_555 1_555
O2 Zn1 1_555 1_555
O3 C15 1_555 1_555
O4 C15 1_555 1_555
O5 Zn1 1_555 1_555
N1 N2 1_555 1_555
N2 C4 1_555 1_555
N3 Zn1 1_555 1_555
N4 N5 1_555 1_555
N5 C6 1_555 1_555
N6 C6 1_555 1_555
C1 N1 1_555 1_555
H1 C1 1_555 1_555
H2 C1 1_555 1_555
C2 C1 1_555 1_555
H3 C2 1_555 1_555
H4 C2 1_555 1_555
C3 N4 1_555 1_555
H5 C3 1_555 1_555
H6 C3 1_555 1_555
C4 N3 1_555 1_555
H7 C4 1_555 1_555
C5 N1 1_555 1_555
H8 C5 1_555 1_555
C6 H9 1_555 1_555
C7 N4 1_555 1_555
H10 C7 1_555 1_555
C8 C9 1_555 1_555
C9 H11 1_555 1_555
C10 C9 1_555 1_555
C11 C10 1_555 1_555
H12 C11 1_555 1_555
C12 C11 1_555 1_555
H13 C12 1_555 1_555
C13 C8 1_555 1_555
H14 C13 1_555 1_555
C14 O2 1_555 1_555
C15 C10 1_555 1_555
H15 O5 1_555 1_555
H16 O5 1_555 1_555
Zn1_2 O3 1_555 1_555
Zn1_3 N6 1_555 1_555
O3_2 Zn1 1_555 1_555
N6_2 Zn1 1_555 1_555
N3 C5 1_555 1_555
N6 C7 1_555 1_555
C2 C3 1_555 1_555
C8 C14 1_555 1_555
C12 C13 1_555 1_555

#END
