
#######################################################################
#
#                 Cambridge Crystallographic Data Centre
#                                CCDC 
#
#######################################################################
#
# If this CIF has been generated from an entry in the Cambridge 
# Structural Database, then it will include bibliographic, chemical, 
# crystal, experimental, refinement or atomic coordinate data resulting 
# from the CCDC's data processing and validation procedures.
#
#######################################################################

data_IWEYOZ
_symmetry_cell_setting           triclinic
_symmetry_space_group_name_H-M   'P -1'
_symmetry_Int_Tables_number      2
_space_group_name_Hall           '-P 1'
loop_
_symmetry_equiv_pos_site_id
_symmetry_equiv_pos_as_xyz
1 x,y,z
2 -x,-y,-z
_cell_length_a                   10.1193(15)
_cell_length_b                   10.1803(12)
_cell_length_c                   10.9269(16)
_cell_angle_alpha                71.717(14)
_cell_angle_beta                 81.262(17)
_cell_angle_gamma                68.148(13)
_cell_volume                     991.25
loop_
_atom_site_label
_atom_site_type_symbol
_atom_site_fract_x
_atom_site_fract_y
_atom_site_fract_z
Zn1 Zn 0.40895(6) 0.95185(6) 0.29926(5)
O1 O 0.4122(4) 1.1647(4) 0.3292(3)
O2 O 0.5412(4) 1.0815(4) 0.1714(3)
O3 O 0.4960(4) 1.7813(4) 0.2202(3)
O4 O 0.3745(5) 1.6551(4) 0.3634(4)
O5 O 0.8320(5) 1.5530(5) -0.0881(4)
O6 O 0.7998(4) 1.3781(4) -0.1355(4)
O7 O 0.5825(4) 0.8328(4) 0.4253(4)
H1 H 0.576(6) 0.831(7) 0.503(2)
H2 H 0.626(5) 0.745(3) 0.425(6)
N1 N 0.1690(4) 1.1442(5) -0.0354(4)
N2 N 0.0615(5) 1.2104(5) 0.0402(4)
N3 N 0.2548(4) 1.0669(4) 0.1552(4)
N4 N 0.1100(4) 1.0385(4) -0.3973(4)
N5 N 0.1402(5) 0.8905(5) -0.3597(4)
N6 N 0.2612(4) 0.9574(4) -0.5444(4)
N7 N 0.7793(4) 1.4571(5) -0.0663(4)
C1 C 0.1475(6) 1.1687(6) -0.1712(5)
H7 H 0.2387 1.1305 -0.2144
H8 H 0.1072 1.2737 -0.2123
C2 C 0.0494(6) 1.0940(6) -0.1849(5)
H9 H -0.0362 1.1224 -0.1315
H10 H 0.0958 0.9882 -0.1530
C3 C 0.0072(5) 1.1315(6) -0.3234(5)
H11 H -0.0847 1.1214 -0.3218
H12 H -0.0031 1.2336 -0.3666
C4 C 0.1191(5) 1.1607(6) 0.1520(5)
H13 H 0.0702 1.1880 0.2244
C5 C 0.2817(5) 1.0594(6) 0.0347(5)
H14 H 0.3676 1.0026 0.0037
C6 C 0.2320(6) 0.8469(6) -0.4508(5)
H15 H 0.2732 0.7485 -0.4508
C7 C 0.1813(5) 1.0754(6) -0.5061(5)
H16 H 0.1763 1.1714 -0.5501
C8 C 0.5463(5) 1.3064(5) 0.1907(4)
C9 C 0.4926(5) 1.4177(5) 0.2519(5)
H17 H 0.4293 1.4079 0.3225
C10 C 0.5305(5) 1.5426(5) 0.2110(4)
C11 C 0.6314(5) 1.5525(5) 0.1080(5)
H18 H 0.6625 1.6327 0.0802
C12 C 0.6831(5) 1.4408(5) 0.0491(5)
C13 C 0.6421(5) 1.3190(5) 0.0870(4)
H19 H 0.6780 1.2466 0.0438
C14 C 0.4974(5) 1.1758(5) 0.2339(5)
C15 C 0.4605(6) 1.6676(6) 0.2725(5)
Zn1_2 Zn 0.40895(6) 1.95185(6) 0.29926(5)
Zn1_3 Zn 0.40895(6) 0.95185(6) -0.70074(5)
O3_2 O 0.4960(4) 0.7813(4) 0.2202(3)
N6_2 N 0.2612(4) 0.9574(4) 0.4556(4)
O8 O 0.2320(5) 1.4676(5) 0.5114(5)
H3 H 0.296(6) 1.512(8) 0.475(7)
H4 H 0.175(7) 1.533(7) 0.551(7)
O9 O -0.0424(6) 1.5680(6) 0.6373(5)
H5 H -0.098(6) 1.545(9) 0.709(4)
H6 H 0.030(6) 1.576(9) 0.675(6)
loop_
_geom_bond_atom_site_label_1
_geom_bond_atom_site_label_2
_geom_bond_site_symmetry_1
_geom_bond_site_symmetry_2
Zn1 O1 1_555 1_555
O1 C14 1_555 1_555
O2 Zn1 1_555 1_555
O3 C15 1_555 1_555
O4 C15 1_555 1_555
O5 N7 1_555 1_555
O6 N7 1_555 1_555
O7 Zn1 1_555 1_555
H1 O7 1_555 1_555
H2 O7 1_555 1_555
O8 H3 1_555 1_555
H4 O8 1_555 1_555
O9 H5 1_555 1_555
H6 O9 1_555 1_555
N1 N2 1_555 1_555
N2 C4 1_555 1_555
N3 Zn1 1_555 1_555
N4 N5 1_555 1_555
N5 C6 1_555 1_555
N6 C6 1_555 1_555
N7 C12 1_555 1_555
C1 N1 1_555 1_555
H7 C1 1_555 1_555
H8 C1 1_555 1_555
C2 C1 1_555 1_555
H9 C2 1_555 1_555
H10 C2 1_555 1_555
C3 N4 1_555 1_555
H11 C3 1_555 1_555
H12 C3 1_555 1_555
C4 N3 1_555 1_555
H13 C4 1_555 1_555
C5 N1 1_555 1_555
H14 C5 1_555 1_555
C6 H15 1_555 1_555
C7 N4 1_555 1_555
H16 C7 1_555 1_555
C8 C9 1_555 1_555
C9 H17 1_555 1_555
C10 C9 1_555 1_555
C11 C10 1_555 1_555
H18 C11 1_555 1_555
C12 C11 1_555 1_555
C13 C8 1_555 1_555
H19 C13 1_555 1_555
C14 O2 1_555 1_555
C15 C10 1_555 1_555
Zn1_2 O3 1_555 1_555
Zn1_3 N6 1_555 1_555
O3_2 Zn1 1_555 1_555
N6_2 Zn1 1_555 1_555
N3 C5 1_555 1_555
N6 C7 1_555 1_555
C2 C3 1_555 1_555
C8 C14 1_555 1_555
C12 C13 1_555 1_555

#END
