
#######################################################################
#
#                 Cambridge Crystallographic Data Centre
#                                CCDC 
#
#######################################################################
#
# If this CIF has been generated from an entry in the Cambridge 
# Structural Database, then it will include bibliographic, chemical, 
# crystal, experimental, refinement or atomic coordinate data resulting 
# from the CCDC's data processing and validation procedures.
#
#######################################################################

data_IWIMOR
_symmetry_cell_setting           triclinic
_symmetry_space_group_name_H-M   'P -1'
_symmetry_Int_Tables_number      2
_space_group_name_Hall           '-P 1'
loop_
_symmetry_equiv_pos_site_id
_symmetry_equiv_pos_as_xyz
1 x,y,z
2 -x,-y,-z
_cell_length_a                   5.4254(13)
_cell_length_b                   10.219(2)
_cell_length_c                   14.537(3)
_cell_angle_alpha                103.584(4)
_cell_angle_beta                 99.853(4)
_cell_angle_gamma                95.790(4)
_cell_volume                     763.442
loop_
_atom_site_label
_atom_site_type_symbol
_atom_site_fract_x
_atom_site_fract_y
_atom_site_fract_z
C1 C 0.5808(14) 0.4490(7) 0.7483(5)
C2 C 0.7537(15) 0.3698(8) 0.7129(5)
H1 H 0.8471 0.3241 0.7516
C3 C 0.7848(15) 0.3601(8) 0.6193(5)
H2 H 0.8993 0.3067 0.5946
C4 C 0.6464(14) 0.4294(7) 0.5617(5)
C5 C 0.4717(14) 0.5069(7) 0.5977(5)
C6 C 0.4417(13) 0.5168(7) 0.6924(5)
H3 H 0.3270 0.5696 0.7176
C7 C 0.6827(15) 0.4183(8) 0.4608(5)
C8 C 0.6293(13) 0.9201(7) 0.7411(5)
C9 C 0.7955(14) 0.8492(8) 0.6955(5)
H4 H 0.8988 0.7994 0.7272
C10 C 0.8071(15) 0.8528(8) 0.6014(5)
H5 H 0.9199 0.8050 0.5706
C11 C 0.6569(13) 0.9249(7) 0.5529(5)
C12 C 0.4850(14) 0.9956(7) 0.5989(5)
C13 C 0.4734(13) 0.9942(7) 0.6940(5)
H6 H 0.3624 1.0426 0.7255
C14 C 0.6748(14) 0.9241(8) 0.4513(5)
H7 H -0.247(9) 0.760(7) 1.114(6)
H8 H -0.17(3) 0.899(9) 1.121(11)
O1 O -0.0905(11) 0.8149(6) 1.1102(4)
O2 O 0.3195(9) 0.5234(5) 0.8803(3)
O3 O 0.5598(9) 0.3378(4) 0.8900(3)
O4 O 0.7772(9) 0.5663(5) 0.9265(3)
O5 O 0.8377(12) 0.3540(6) 0.4281(4)
O6 O 0.3943(9) 0.8154(5) 0.8545(3)
O7 O 0.8493(10) 0.8772(5) 0.9003(4)
O8 O 0.5750(9) 1.0508(5) 0.9100(3)
O9 O 0.8265(11) 0.8622(6) 0.4124(4)
S1 S 0.5566(3) 0.47148(18) 0.87106(13)
S2 S 0.6102(3) 0.91470(18) 0.86152(13)
Sr1 Sr 0.16032(13) 0.73691(7) 0.97561(5)
C1A C 0.4192(14) 0.5510(7) 0.2517(5)
C2A C 0.2463(15) 0.6302(8) 0.2871(5)
H1A H 0.1529 0.6759 0.2484
C3A C 0.2152(15) 0.6399(8) 0.3807(5)
H2A H 0.1007 0.6933 0.4054
C4A C 0.3536(14) 0.5706(7) 0.4383(5)
C5A C 0.5283(14) 0.4931(7) 0.4023(5)
C6A C 0.5583(13) 0.4832(7) 0.3076(5)
H3A H 0.6730 0.4304 0.2824
C7A C 0.3173(15) 0.5817(8) 0.5392(5)
C8A C 0.3707(13) 1.0799(7) 0.2589(5)
C9A C 0.2045(14) 1.1508(8) 0.3045(5)
H4A H 0.1012 1.2006 0.2728
C10A C 0.1929(15) 1.1472(8) 0.3986(5)
H5A H 0.0801 1.1950 0.4294
C11A C 0.3431(13) 1.0751(7) 0.4471(5)
C12A C 0.5150(14) 1.0044(7) 0.4011(5)
C13A C 0.5266(13) 1.0058(7) 0.3060(5)
H6A H 0.6376 0.9574 0.2745
C14A C 0.3252(14) 1.0759(8) 0.5487(5)
H7A H 1.247(9) 0.240(7) -0.114(6)
H8A H 1.17(3) 0.101(9) -0.121(11)
O1A O 1.0905(11) 0.1851(6) -0.1102(4)
O2A O 0.6805(9) 0.4766(5) 0.1197(3)
O3A O 0.4402(9) 0.6622(4) 0.1100(3)
O3A_2 O 0.4402(9) 0.6622(4) 1.1100(3)
O3_2 O 0.5598(9) 0.3378(4) -0.1100(3)
O4A O 0.2228(9) 0.4337(5) 0.0735(3)
O4_2 O -0.2228(9) 0.5663(5) 0.9265(3)
O4A_2 O 1.2228(9) 0.4337(5) 0.0735(3)
O5A O 0.1623(12) 0.6460(6) 0.5719(4)
O6A O 0.6057(9) 1.1846(5) 0.1455(3)
O6A_2 O 0.6057(9) 0.1846(5) 0.1455(3)
O7A O 0.1507(10) 1.1228(5) 0.0997(4)
O7_2 O -0.1507(10) 0.8772(5) 0.9003(4)
O7A_2 O 1.1507(10) 0.1228(5) 0.0997(4)
O8A O 0.4250(9) 0.9492(5) 0.0900(3)
O8A_2 O 0.4250(9) 0.9492(5) 1.0900(3)
O8_2 O 0.5750(9) 0.0508(5) -0.0900(3)
O9A O 0.1735(11) 1.1378(6) 0.5876(4)
S1A S 0.4434(3) 0.52852(18) 0.12894(13)
S2A S 0.3898(3) 1.08530(18) 0.13848(13)
Sr1A Sr 0.83968(13) 0.26309(7) 0.02439(5)
Sr1A_2 Sr 0.83968(13) 0.26309(7) 1.02439(5)
Sr1_2 Sr 1.16032(13) 0.73691(7) 0.97561(5)
Sr1A_3 Sr 0.83968(13) 1.26309(7) 1.02439(5)
Sr1_3 Sr 0.16032(13) 0.73691(7) -0.02439(5)
Sr1A_4 Sr -0.16032(13) 0.26309(7) 0.02439(5)
Sr1A_5 Sr 0.83968(13) 1.26309(7) 0.02439(5)
Sr1A_6 Sr -0.16032(13) 1.26309(7) 0.02439(5)
loop_
_geom_bond_atom_site_label_1
_geom_bond_atom_site_label_2
_geom_bond_site_symmetry_1
_geom_bond_site_symmetry_2
C1 C2 1_555 1_555
C2 H1 1_555 1_555
C3 C2 1_555 1_555
H2 C3 1_555 1_555
C4 C3 1_555 1_555
C5 C4 1_555 1_555
C6 C1 1_555 1_555
H3 C6 1_555 1_555
C7 C4 1_555 1_555
C8 C9 1_555 1_555
C9 H4 1_555 1_555
C10 C9 1_555 1_555
H5 C10 1_555 1_555
C11 C10 1_555 1_555
C12 C11 1_555 1_555
C13 C8 1_555 1_555
H6 C13 1_555 1_555
C14 C11 1_555 1_555
H7 O1 1_555 1_555
H8 O1 1_555 1_555
O1 Sr1 1_555 1_555
O2 S1 1_555 1_555
O3 S1 1_555 1_555
O4 S1 1_555 1_555
O5 C7 1_555 1_555
O6 S2 1_555 1_555
O7 S2 1_555 1_555
O8 S2 1_555 1_555
O9 C14 1_555 1_555
S1 C1 1_555 1_555
S2 C8 1_555 1_555
Sr1 O2 1_555 1_555
C1A C2A 1_555 1_555
C2A H1A 1_555 1_555
C3A C2A 1_555 1_555
H2A C3A 1_555 1_555
C4A C3A 1_555 1_555
C5A C7 1_555 1_555
C6A C1A 1_555 1_555
H3A C6A 1_555 1_555
C7A C5 1_555 1_555
C8A C9A 1_555 1_555
C9A H4A 1_555 1_555
C10A C9A 1_555 1_555
H5A C10A 1_555 1_555
C11A C10A 1_555 1_555
C12A C14 1_555 1_555
C13A C8A 1_555 1_555
H6A C13A 1_555 1_555
C14A C12 1_555 1_555
H7A O1A 1_555 1_555
H8A O1A 1_555 1_555
O1A Sr1A 1_555 1_555
O2A S1A 1_555 1_555
O3A S1A 1_555 1_555
O3A_2 Sr1 1_555 1_555
O3_2 Sr1A 1_555 1_555
O4A S1A 1_555 1_555
O4_2 Sr1 1_555 1_555
O4A_2 Sr1A 1_555 1_555
O5A C7A 1_555 1_555
O6A S2A 1_555 1_555
O6A_2 Sr1A 1_555 1_555
O7A S2A 1_555 1_555
O7_2 Sr1 1_555 1_555
O7A_2 Sr1A 1_555 1_555
O8A S2A 1_555 1_555
O8A_2 Sr1 1_555 1_555
O8_2 Sr1A 1_555 1_555
O9A C14A 1_555 1_555
S1A C1A 1_555 1_555
S2A C8A 1_555 1_555
Sr1A O2A 1_555 1_555
Sr1A_2 O3 1_555 1_555
Sr1_2 O4 1_555 1_555
Sr1A_3 O8 1_555 1_555
Sr1_3 O3A 1_555 1_555
Sr1A_4 O4A 1_555 1_555
Sr1A_5 O6A 1_555 1_555
Sr1A_6 O7A 1_555 1_555
C5 C6 1_555 1_555
C12 C13 1_555 1_555
O6 Sr1 1_555 1_555
O7 Sr1_2 1_555 1_555
C4A C5A 1_555 1_555
C4A C7A 1_555 1_555
C5A C6A 1_555 1_555
C11A C12A 1_555 1_555
C11A C14A 1_555 1_555
C12A C13A 1_555 1_555
O8A Sr1_3 1_555 1_555

#END
