
#######################################################################
#
#                 Cambridge Crystallographic Data Centre
#                                CCDC 
#
#######################################################################
#
# If this CIF has been generated from an entry in the Cambridge 
# Structural Database, then it will include bibliographic, chemical, 
# crystal, experimental, refinement or atomic coordinate data resulting 
# from the CCDC's data processing and validation procedures.
#
#######################################################################

data_IWIMUX
_symmetry_cell_setting           orthorhombic
_symmetry_space_group_name_H-M   'P n m a'
_symmetry_Int_Tables_number      62
_space_group_name_Hall           '-P 2ac 2n'
loop_
_symmetry_equiv_pos_site_id
_symmetry_equiv_pos_as_xyz
1 x,y,z
2 1/2-x,-y,1/2+z
3 -x,1/2+y,-z
4 1/2+x,1/2-y,1/2-z
5 -x,-y,-z
6 1/2+x,y,1/2-z
7 x,1/2-y,z
8 1/2-x,1/2+y,1/2+z
_cell_length_a                   29.1296(11)
_cell_length_b                   6.3329(3)
_cell_length_c                   7.8329(3)
_cell_angle_alpha                90
_cell_angle_beta                 90
_cell_angle_gamma                90
_cell_volume                     1444.97
loop_
_atom_site_label
_atom_site_type_symbol
_atom_site_fract_x
_atom_site_fract_y
_atom_site_fract_z
Ba1 Ba 1.261070(8) 0.2500 0.20343(3)
C1 C 1.10425(13) 0.2500 0.5521(5)
C2 C 1.08116(13) 0.2500 0.3965(5)
H1 H 1.0975 0.2500 0.2945
C3 C 1.03358(13) 0.2500 0.3951(5)
H2 H 1.0180 0.2500 0.2914
C4 C 1.00892(12) 0.2500 0.5470(5)
C5 C 1.03231(13) 0.2500 0.7035(5)
C6 C 1.08032(13) 0.2500 0.7044(5)
H3 H 1.0961 0.2500 0.8075
C7 C 0.95751(13) 0.2500 0.5417(5)
C8 C 1.00685(14) 0.2500 0.8665(5)
C9 C 0.93227(13) 0.2500 0.7059(5)
C10 C 0.95578(13) 0.2500 0.8613(5)
C11 C 0.93129(15) 0.2500 1.0127(6)
H4 H 0.9469 0.2500 1.1163
C12 C 0.88403(14) 0.2500 1.0116(5)
H5 H 0.8678 0.2500 1.1138
C13 C 0.86049(13) 0.2500 0.8556(5)
C14 C 0.88418(13) 0.2500 0.7040(5)
H6 H 0.8684 0.2500 0.6008
O1 O 1.18070(10) 0.2500 0.3827(4)
O2 O 1.17732(7) 0.0587(4) 0.6500(3)
O3 O 0.93701(9) 0.2500 0.4057(4)
O4 O 1.02732(11) 0.2500 1.0029(4)
O5 O 0.78302(11) 0.2500 0.6879(4)
O6 O 0.78700(7) 0.0619(3) 0.9595(3)
S1 S 1.16509(3) 0.2500 0.55860(13)
S2 S 0.79983(3) 0.2500 0.86163(13)
Ba1A Ba 1.238930(8) -0.2500 0.70343(3)
Ba1C Ba 0.761070(8) 0.2500 0.29657(3)
Ba1B Ba 0.738930(8) -0.2500 0.79657(3)
Ba1C_2 Ba 0.761070(8) 0.2500 1.29657(3)
Ba1B_2 Ba 0.738930(8) 0.7500 0.79657(3)
Ba1A_2 Ba 1.238930(8) 0.7500 0.70343(3)
O2F O 1.17732(7) 0.4413(4) 0.6500(3)
O2A O 1.32268(7) -0.0587(4) 0.1500(3)
O2G O 1.32268(7) 0.5587(4) 0.1500(3)
O5C O 1.28302(11) 0.2500 -0.1879(4)
O6F O 0.78700(7) 0.4381(3) 0.9595(3)
O6B O 1.21300(7) 0.5619(3) 0.0405(3)
O6E O 1.28700(7) 0.0619(3) 0.5405(3)
O6D O 1.21300(7) -0.0619(3) 0.0405(3)
O6C O 1.28700(7) 0.4381(3) 0.5405(3)
loop_
_geom_bond_atom_site_label_1
_geom_bond_atom_site_label_2
_geom_bond_site_symmetry_1
_geom_bond_site_symmetry_2
Ba1 O1 1_555 1_555
C1 C2 1_555 1_555
C2 H1 1_555 1_555
C3 C2 1_555 1_555
H2 C3 1_555 1_555
C4 C3 1_555 1_555
C5 C4 1_555 1_555
C6 C1 1_555 1_555
H3 C6 1_555 1_555
C7 C4 1_555 1_555
C8 C5 1_555 1_555
C9 C7 1_555 1_555
C10 C8 1_555 1_555
C11 C10 1_555 1_555
H4 C11 1_555 1_555
C12 C11 1_555 1_555
H5 C12 1_555 1_555
C13 C12 1_555 1_555
C14 C9 1_555 1_555
H6 C14 1_555 1_555
O1 S1 1_555 1_555
O2 S1 1_555 1_555
O3 C7 1_555 1_555
O4 C8 1_555 1_555
O5 S2 1_555 1_555
O6 S2 1_555 1_555
S1 C1 1_555 1_555
S2 C13 1_555 1_555
Ba1A O2 1_555 1_555
Ba1C O5 1_555 1_555
Ba1B O6 1_555 1_555
Ba1C_2 O6 1_555 1_555
Ba1B_2 O6F 1_555 1_555
Ba1A_2 O2F 1_555 1_555
O2F S1 1_555 1_555
O2A Ba1 1_555 1_555
O2G Ba1 1_555 1_555
O5C Ba1 1_555 1_555
O6F S2 1_555 1_555
O6B Ba1 1_555 1_555
O6E Ba1 1_555 1_555
O6D Ba1 1_555 1_555
O6C Ba1 1_555 1_555
C5 C6 1_555 1_555
C9 C10 1_555 1_555
C13 C14 1_555 1_555
Ba1A O6E 1_555 1_555
Ba1C_2 O6F 1_555 1_555
Ba1A_2 O6C 1_555 1_555

#END
