
#######################################################################
#
#                 Cambridge Crystallographic Data Centre
#                                CCDC 
#
#######################################################################
#
# If this CIF has been generated from an entry in the Cambridge 
# Structural Database, then it will include bibliographic, chemical, 
# crystal, experimental, refinement or atomic coordinate data resulting 
# from the CCDC's data processing and validation procedures.
#
#######################################################################

data_IWIMEH
_symmetry_cell_setting           triclinic
_symmetry_space_group_name_H-M   'P -1'
_symmetry_Int_Tables_number      2
_space_group_name_Hall           '-P 1'
loop_
_symmetry_equiv_pos_site_id
_symmetry_equiv_pos_as_xyz
1 x,y,z
2 -x,-y,-z
_cell_length_a                   4.8682(5)
_cell_length_b                   5.7700(6)
_cell_length_c                   13.4652(15)
_cell_angle_alpha                94.500(2)
_cell_angle_beta                 90.517(2)
_cell_angle_gamma                95.403(2)
_cell_volume                     375.338
loop_
_atom_site_label
_atom_site_type_symbol
_atom_site_fract_x
_atom_site_fract_y
_atom_site_fract_z
C1 C 0.3868(4) 0.5701(4) 0.74305(15)
C2 C 0.4816(5) 0.3647(4) 0.70167(16)
H1 H 0.6081 0.2895 0.7365
C3 C 0.3862(5) 0.2731(4) 0.60837(17)
H2 H 0.4485 0.1355 0.5804
C4 C 0.1975(4) 0.3862(4) 0.55620(16)
C5 C 0.1013(4) 0.5917(4) 0.59864(15)
C6 C 0.1964(4) 0.6838(4) 0.69261(16)
H3 H 0.1329 0.8202 0.7213
C7 C 0.1040(4) 0.2859(4) 0.45473(16)
H4 H 0.258(6) 0.128(7) 0.913(3)
H5 H -0.048(6) 0.102(5) 0.893(3)
Mg1 Mg 0.0000 0.5000 1.0000
O1 O 0.1010(3) 0.2095(3) 0.91438(13)
O2 O 0.2749(3) 0.7158(3) 0.92422(11)
O3 O 0.6455(4) 0.9235(3) 0.84472(13)
O4 O 0.6964(3) 0.5342(3) 0.89538(11)
O5 O 0.1927(4) 0.1113(3) 0.41628(12)
S1 S 0.51306(10) 0.69597(9) 0.86071(4)
C1A C -0.3868(4) 0.4299(4) 0.25695(15)
C2A C -0.4816(5) 0.6353(4) 0.29833(16)
H1A H -0.6081 0.7105 0.2635
C3A C -0.3862(5) 0.7269(4) 0.39163(17)
H2A H -0.4485 0.8645 0.4196
C4A C -0.1975(4) 0.6138(4) 0.44380(16)
C5A C -0.1013(4) 0.4083(4) 0.40136(15)
C6A C -0.1964(4) 0.3162(4) 0.30739(16)
H3A H -0.1329 0.1798 0.2787
C7A C -0.1040(4) 0.7141(4) 0.54527(16)
H4A H -0.258(6) 0.872(7) 1.087(3)
H5A H 0.048(6) 0.898(5) 1.107(3)
Mg1_2 Mg 1.0000 0.5000 1.0000
Mg1_3 Mg 0.0000 0.5000 0.0000
Mg1_4 Mg -1.0000 0.5000 0.0000
O1A O -0.1010(3) 0.7905(3) 1.08562(13)
O2A O -0.2749(3) 0.2842(3) 0.07578(11)
O2A_2 O -0.2749(3) 0.2842(3) 1.07578(11)
O3A O -0.6455(4) 0.0765(3) 0.15528(13)
O4A O -0.6964(3) 0.4658(3) 0.10462(11)
O4A_2 O 0.3036(3) 0.4658(3) 1.10462(11)
O4_2 O -0.3036(3) 0.5342(3) 0.89538(11)
O5A O -0.1927(4) 0.8887(3) 0.58372(12)
S1A S -0.51306(10) 0.30403(9) 0.13929(4)
loop_
_geom_bond_atom_site_label_1
_geom_bond_atom_site_label_2
_geom_bond_site_symmetry_1
_geom_bond_site_symmetry_2
C1 C2 1_555 1_555
C2 H1 1_555 1_555
C3 C2 1_555 1_555
H2 C3 1_555 1_555
C4 C3 1_555 1_555
C5 C4 1_555 1_555
C6 C1 1_555 1_555
H3 C6 1_555 1_555
C7 C4 1_555 1_555
H4 O1 1_555 1_555
H5 O1 1_555 1_555
Mg1 O1 1_555 1_555
O2 Mg1 1_555 1_555
O3 S1 1_555 1_555
O4 S1 1_555 1_555
O5 C7 1_555 1_555
S1 C1 1_555 1_555
C1A C2A 1_555 1_555
C2A H1A 1_555 1_555
C3A C2A 1_555 1_555
H2A C3A 1_555 1_555
C4A C3A 1_555 1_555
C5A C7 1_555 1_555
C6A C1A 1_555 1_555
H3A C6A 1_555 1_555
C7A C5 1_555 1_555
H4A O1A 1_555 1_555
H5A O1A 1_555 1_555
Mg1_2 O4 1_555 1_555
Mg1_3 O2A 1_555 1_555
Mg1_4 O4A 1_555 1_555
O1A Mg1 1_555 1_555
O2A S1A 1_555 1_555
O2A_2 Mg1 1_555 1_555
O3A S1A 1_555 1_555
O4A S1A 1_555 1_555
O4A_2 Mg1 1_555 1_555
O4_2 Mg1 1_555 1_555
O5A C7A 1_555 1_555
S1A C1A 1_555 1_555
C5 C6 1_555 1_555
O2 S1 1_555 1_555
C4A C5A 1_555 1_555
C4A C7A 1_555 1_555
C5A C6A 1_555 1_555

#END
