
#######################################################################
#
#                 Cambridge Crystallographic Data Centre
#                                CCDC 
#
#######################################################################
#
# If this CIF has been generated from an entry in the Cambridge 
# Structural Database, then it will include bibliographic, chemical, 
# crystal, experimental, refinement or atomic coordinate data resulting 
# from the CCDC's data processing and validation procedures.
#
#######################################################################

data_IWINOS
_symmetry_cell_setting           monoclinic
_symmetry_space_group_name_H-M   'P 21/n'
_symmetry_Int_Tables_number      14
_space_group_name_Hall           '-P 2yn'
loop_
_symmetry_equiv_pos_site_id
_symmetry_equiv_pos_as_xyz
1 x,y,z
2 1/2-x,1/2+y,1/2-z
3 -x,-y,-z
4 1/2+x,1/2-y,1/2+z
_cell_length_a                   12.9036(5)
_cell_length_b                   11.9095(3)
_cell_length_c                   22.3016(10)
_cell_angle_alpha                90
_cell_angle_beta                 91.791(4)
_cell_angle_gamma                90
_cell_volume                     3425.53
loop_
_atom_site_label
_atom_site_type_symbol
_atom_site_fract_x
_atom_site_fract_y
_atom_site_fract_z
Cu1 Cu 0.7698(3) 0.5199(3) 1.05743(19)
Cu2 Cu 0.3561(2) 0.4959(2) 1.22546(13)
C1 C 0.560(2) 0.508(2) 1.0864(12)
H1 H 0.5491 0.4921 1.0459
C2 C 0.482(2) 0.5090(18) 1.1249(13)
H2 H 0.4163 0.4930 1.1084
C3 C 0.5779(18) 0.5579(17) 1.2043(10)
C4 C 0.583(2) 0.593(3) 1.2704(12)
H3 H 0.6016 0.6704 1.2735
H4 H 0.6342 0.5479 1.2916
H5 H 0.5166 0.5810 1.2876
C5 C 0.6652(18) 0.5529(18) 1.1697(14)
C6 C 0.773(2) 0.576(2) 1.1934(15)
H6 H 0.8121 0.6126 1.1626
H7 H 0.7702 0.6257 1.2276
C7 C 0.823(4) 0.475(4) 1.211(2)
H8 H 0.7811 0.4359 1.2388
H9 H 0.8892 0.4919 1.2290
H10 H 0.8318 0.4289 1.1759
C8 C 0.2845(18) 0.6822(17) 1.3006(10)
H11 H 0.3255 0.6492 1.3308
C9 C 0.2004(16) 0.6734(17) 1.2071(10)
C10 C 0.2444(18) 0.7842(16) 1.3108(12)
H12 H 0.2603 0.8209 1.3467
C11 C 0.1569(16) 0.7783(18) 1.2189(11)
C12 C 0.078(2) 0.831(2) 1.1731(14)
H13 H 0.0918 0.9102 1.1693
H14 H 0.0087 0.8210 1.1869
H15 H 0.0841 0.7957 1.1348
C13 C 0.180(2) 0.603(2) 1.1514(12)
H16 H 0.2375 0.5519 1.1453
H17 H 0.1719 0.6505 1.1163
C14 C 0.080(3) 0.535(3) 1.1603(16)
H18 H 0.0846 0.4969 1.1982
H19 H 0.0711 0.4813 1.1286
H20 H 0.0217 0.5854 1.1599
C15 C 0.9501(19) 0.407(2) 1.0205(11)
C16 C 1.0469(18) 0.399(2) 0.9937(10)
C17 C 0.901(4) 0.303(4) 1.049(2)
H21 H 0.8437 0.3328 1.0709
H22 H 0.8703 0.2624 1.0152
C18 C 0.947(6) 0.213(5) 1.089(3)
H23 H 1.0124 0.2387 1.1059
H24 H 0.9573 0.1464 1.0662
H25 H 0.9006 0.1981 1.1208
C19 C 1.092(5) 0.281(4) 0.974(3)
H26 H 1.1293 0.2895 0.9383
H27 H 1.1371 0.2528 1.0058
H28 H 1.0354 0.2294 0.9675
N1 N 0.6573(15) 0.5312(14) 1.1098(11)
N2 N 0.4858(13) 0.5296(11) 1.1827(9)
N3 N 0.2679(13) 0.6248(12) 1.2485(9)
N4 N 0.1800(16) 0.8351(14) 1.2685(9)
N5 N 0.9044(14) 0.5096(18) 1.0273(9)
Cu1B Cu 1.2302(3) 0.4801(3) 0.94257(19)
Cu2B Cu 1.6439(2) 0.5041(2) 0.77454(13)
Cu2A Cu 0.1439(2) 0.9959(2) 1.27454(13)
Cu2A_2 Cu 0.1439(2) -0.0041(2) 1.27454(13)
C1B C 1.440(2) 0.492(2) 0.9136(12)
H1B H 1.4509 0.5079 0.9541
C2B C 1.518(2) 0.4910(18) 0.8751(13)
H2B H 1.5837 0.5070 0.8916
C3B C 1.4221(18) 0.4421(17) 0.7957(10)
C4B C 1.417(2) 0.407(3) 0.7296(12)
H3B H 1.3984 0.3296 0.7265
H4B H 1.3658 0.4521 0.7084
H5B H 1.4834 0.4190 0.7124
C5B C 1.3348(18) 0.4471(18) 0.8303(14)
C6B C 1.227(2) 0.424(2) 0.8066(15)
H6B H 1.1879 0.3874 0.8374
H7B H 1.2298 0.3743 0.7724
C7B C 1.177(4) 0.525(4) 0.789(2)
H8B H 1.2189 0.5641 0.7612
H9B H 1.1108 0.5081 0.7710
H10B H 1.1682 0.5711 0.8241
C8A C 0.2155(18) 0.1822(17) 1.1994(10)
H11A H 0.1745 0.1492 1.1692
C9A C 0.2996(16) 0.1734(17) 1.2929(10)
C10A C 0.2556(18) 0.2842(16) 1.1892(12)
H12A H 0.2397 0.3209 1.1533
C11A C 0.3431(16) 0.2783(18) 1.2811(11)
C12A C 0.422(2) 0.331(2) 1.3269(14)
H13A H 0.4082 0.4102 1.3307
H14A H 0.4913 0.3210 1.3131
H15A H 0.4159 0.2957 1.3652
C13A C 0.320(2) 0.103(2) 1.3486(12)
H16A H 0.2625 0.0519 1.3547
H17A H 0.3281 0.1505 1.3837
C14A C 0.420(3) 0.035(3) 1.3397(16)
H18A H 0.4154 -0.0031 1.3018
H19A H 0.4289 -0.0187 1.3714
H20A H 0.4783 0.0854 1.3401
C15B C 1.0499(19) 0.593(2) 0.9795(11)
C16B C 0.9531(18) 0.601(2) 1.0063(10)
C17B C 1.099(4) 0.697(4) 0.951(2)
H21B H 1.1563 0.6672 0.9291
H22B H 1.1297 0.7376 0.9848
C18B C 1.053(6) 0.787(5) 0.911(3)
H23B H 0.9876 0.7613 0.8941
H24B H 1.0427 0.8536 0.9338
H25B H 1.0994 0.8019 0.8792
C19B C 0.908(5) 0.719(4) 1.026(3)
H26B H 0.8707 0.7105 1.0617
H27B H 0.8629 0.7472 0.9942
H28B H 0.9646 0.7706 1.0325
N1B N 1.3427(15) 0.4688(14) 0.8902(11)
N2B N 1.5142(13) 0.4704(11) 0.8173(9)
N3A N 0.2321(13) 0.1248(12) 1.2515(9)
N3B N 1.7321(13) 0.3752(12) 0.7515(9)
N4A N 0.3200(16) 0.3351(14) 1.2315(9)
N4C N 1.6800(16) 0.6649(14) 0.7685(9)
N5B N 1.0956(14) 0.4904(18) 0.9727(9)
W1 W 0.56729(8) 0.09752(7) 0.85672(5)
W2 W 0.30518(9) 0.09253(7) 0.89699(5)
W3 W 0.43724(9) -0.16086(7) 0.87025(5)
W4 W 0.76254(9) 0.00145(8) 0.95824(6)
W5 W 0.63274(8) 0.25397(7) 0.98512(7)
W6 W 0.36918(10) 0.25292(7) 1.02523(6)
O1 O 0.4757(18) 0.0078(17) 0.9357(10)
O2 O 0.5757(16) 0.0679(15) 0.9535(10)
O3 O 0.3794(17) 0.0664(16) 0.9838(10)
O4 O 0.479(2) -0.1265(17) 0.9652(12)
O5 O 0.6941(15) 0.0387(15) 0.8778(10)
O6 O 0.8852(14) -0.0006(14) 0.9384(8)
O7 O 0.5982(16) 0.1452(17) 0.7882(10)
O8 O 0.4294(11) 0.1389(10) 0.8594(6)
O9 O 0.3273(11) -0.0553(10) 0.8677(7)
O10 O 0.2109(15) 0.1380(14) 0.8473(12)
O11 O 0.5229(10) -0.0526(10) 0.8388(6)
O12 O 0.481(2) 0.276(2) 0.9780(13)
O14 O 0.3051(11) 0.3755(10) 1.0363(7)
O15 O 0.7440(13) 0.1541(13) 0.9790(12)
O16 O 0.5980(14) 0.2251(15) 0.8978(9)
O17 O 0.4052(15) -0.2400(16) 0.8087(10)
O18 O 0.6954(14) 0.3763(10) 0.9791(8)
O19 O 0.5601(16) -0.2318(17) 0.9011(10)
Si1 Si 0.5000 0.0000 1.0000
O20 O 0.377(2) -0.209(2) 0.9478(14)
O21 O 0.695(2) -0.1411(18) 0.9351(12)
O22 O 0.195(2) 0.040(2) 0.9457(13)
O23 O 0.286(2) 0.2303(17) 0.9363(11)
W1B W 0.43271(8) -0.09752(7) 1.14328(5)
W2B W 0.69482(9) -0.09253(7) 1.10301(5)
W3B W 0.56276(9) 0.16086(7) 1.12975(5)
W4B W 0.23746(9) -0.00145(8) 1.04176(6)
W5B W 0.36726(8) -0.25397(7) 1.01488(7)
W6B W 0.63082(10) -0.25292(7) 0.97477(6)
O1B O 0.5243(18) -0.0078(17) 1.0643(10)
O2B O 0.4243(16) -0.0679(15) 1.0465(10)
O3B O 0.6206(17) -0.0664(16) 1.0162(10)
O4B O 0.521(2) 0.1265(17) 1.0348(12)
O5B O 0.3059(15) -0.0387(15) 1.1222(10)
O6B O 0.1148(14) 0.0006(14) 1.0616(8)
O7B O 0.4018(16) -0.1452(17) 1.2118(10)
O8B O 0.5706(11) -0.1389(10) 1.1406(6)
O9B O 0.6727(11) 0.0553(10) 1.1323(7)
O10B O 0.7891(15) -0.1380(14) 1.1527(12)
O11B O 0.4771(10) 0.0526(10) 1.1612(6)
O12B O 0.519(2) -0.276(2) 1.0220(13)
O14B O 0.6949(11) -0.3755(10) 0.9637(7)
O15B O 0.2560(13) -0.1541(13) 1.0210(12)
O16B O 0.4020(14) -0.2251(15) 1.1022(9)
O17B O 0.5948(15) 0.2400(16) 1.1913(10)
O18B O 0.3046(14) -0.3763(10) 1.0209(8)
O19B O 0.4399(16) 0.2318(17) 1.0989(10)
O20B O 0.623(2) 0.209(2) 1.0522(14)
O21B O 0.305(2) 0.1411(18) 1.0649(12)
O22B O 0.805(2) -0.040(2) 1.0543(13)
O23B O 0.714(2) -0.2303(17) 1.0637(11)
O13? O 0.5113(19) 0.333(2) 1.0088(12)
O24? O 0.654(2) 0.263(2) 1.0865(13)
O25? O 0.236(2) 0.1617(19) 1.0447(12)
O26? O 0.738(2) -0.0152(18) 1.0254(12)
O27? O 0.643(3) -0.207(2) 1.0462(15)
loop_
_geom_bond_atom_site_label_1
_geom_bond_atom_site_label_2
_geom_bond_site_symmetry_1
_geom_bond_site_symmetry_2
Cu1 N1 1_555 1_555
Cu2 N2 1_555 1_555
W1 O1 1_555 1_555
W2 O1 1_555 1_555
W3 O1 1_555 1_555
W4 O2 1_555 1_555
W5 O2 1_555 1_555
W6 O3 1_555 1_555
C1 H1 1_555 1_555
C2 C1 1_555 1_555
H2 C2 1_555 1_555
C3 C4 1_555 1_555
C4 H3 1_555 1_555
H4 C4 1_555 1_555
H5 C4 1_555 1_555
C5 C3 1_555 1_555
C6 C5 1_555 1_555
H6 C6 1_555 1_555
H7 C6 1_555 1_555
C7 C6 1_555 1_555
H8 C7 1_555 1_555
H9 C7 1_555 1_555
H10 C7 1_555 1_555
C8 H11 1_555 1_555
C9 C11 1_555 1_555
C10 C8 1_555 1_555
H12 C10 1_555 1_555
C11 C12 1_555 1_555
C12 H13 1_555 1_555
H14 C12 1_555 1_555
H15 C12 1_555 1_555
C13 C9 1_555 1_555
H16 C13 1_555 1_555
H17 C13 1_555 1_555
C14 C13 1_555 1_555
H18 C14 1_555 1_555
H19 C14 1_555 1_555
H20 C14 1_555 1_555
C15 C16 1_555 1_555
C16 C19 1_555 1_555
C17 C15 1_555 1_555
H21 C17 1_555 1_555
H22 C17 1_555 1_555
C18 C17 1_555 1_555
H23 C18 1_555 1_555
H24 C18 1_555 1_555
H25 C18 1_555 1_555
C19 H26 1_555 1_555
H27 C19 1_555 1_555
H28 C19 1_555 1_555
N1 C1 1_555 1_555
N2 C2 1_555 1_555
N3 Cu2 1_555 1_555
N4 C10 1_555 1_555
N5 Cu1 1_555 1_555
O1 O2 1_555 1_555
O2 W1 1_555 1_555
O3 W2 1_555 1_555
O4 W3 1_555 1_555
O5 W1 1_555 1_555
O6 W4 1_555 1_555
O7 W1 1_555 1_555
O8 W1 1_555 1_555
O9 W2 1_555 1_555
O10 W2 1_555 1_555
O11 W1 1_555 1_555
O12 W5 1_555 1_555
O14 W6 1_555 1_555
O15 W4 1_555 1_555
O16 W1 1_555 1_555
O17 W3 1_555 1_555
O18 W5 1_555 1_555
O19 W3 1_555 1_555
Si1 O1 1_555 1_555
O20 W3 1_555 1_555
O21 W4 1_555 1_555
O22 W2 1_555 1_555
O23 W2 1_555 1_555
Cu1B N1B 1_555 1_555
Cu2B N2B 1_555 1_555
Cu2A N4 1_555 1_555
Cu2A_2 N3A 1_555 1_555
W1B O1B 1_555 1_555
W2B O1B 1_555 1_555
W3B O1B 1_555 1_555
W4B O3 1_555 1_555
W5B O4 1_555 1_555
W6B O4 1_555 1_555
C1B H1B 1_555 1_555
C2B C1B 1_555 1_555
H2B C2B 1_555 1_555
C3B C4B 1_555 1_555
C4B H3B 1_555 1_555
H4B C4B 1_555 1_555
H5B C4B 1_555 1_555
C5B C3B 1_555 1_555
C6B C5B 1_555 1_555
H6B C6B 1_555 1_555
H7B C6B 1_555 1_555
C7B C6B 1_555 1_555
H8B C7B 1_555 1_555
H9B C7B 1_555 1_555
H10B C7B 1_555 1_555
C8A H11A 1_555 1_555
C9A C11A 1_555 1_555
C10A C8A 1_555 1_555
H12A C10A 1_555 1_555
C11A C12A 1_555 1_555
C12A H13A 1_555 1_555
H14A C12A 1_555 1_555
H15A C12A 1_555 1_555
C13A C9A 1_555 1_555
H16A C13A 1_555 1_555
H17A C13A 1_555 1_555
C14A C13A 1_555 1_555
H18A C14A 1_555 1_555
H19A C14A 1_555 1_555
H20A C14A 1_555 1_555
C15B C16B 1_555 1_555
C16B N5 1_555 1_555
C17B C15B 1_555 1_555
H21B C17B 1_555 1_555
H22B C17B 1_555 1_555
C18B C17B 1_555 1_555
H23B C18B 1_555 1_555
H24B C18B 1_555 1_555
H25B C18B 1_555 1_555
C19B C16B 1_555 1_555
H26B C19B 1_555 1_555
H27B C19B 1_555 1_555
H28B C19B 1_555 1_555
N1B C1B 1_555 1_555
N2B C2B 1_555 1_555
N3A C8A 1_555 1_555
N3B Cu2B 1_555 1_555
N4A Cu2 1_555 1_555
N4C Cu2B 1_555 1_555
N5B C16 1_555 1_555
O1B Si1 1_555 1_555
O2B Si1 1_555 1_555
O3B W4 1_555 1_555
O4B W5 1_555 1_555
O5B W1B 1_555 1_555
O6B W4B 1_555 1_555
O7B W1B 1_555 1_555
O8B W1B 1_555 1_555
O9B W2B 1_555 1_555
O10B W2B 1_555 1_555
O11B W1B 1_555 1_555
O12B W5B 1_555 1_555
O14B W6B 1_555 1_555
O15B W4B 1_555 1_555
O16B W1B 1_555 1_555
O17B W3B 1_555 1_555
O18B W5B 1_555 1_555
O19B W6 1_555 1_555
O20B W5 1_555 1_555
O21B W6 1_555 1_555
O22B W4 1_555 1_555
O23B W2B 1_555 1_555
W2 O8 1_555 1_555
W3 O9 1_555 1_555
W3 O11 1_555 1_555
W4 O5 1_555 1_555
W5 O15 1_555 1_555
W5 O16 1_555 1_555
W6 O12 1_555 1_555
W6 O23 1_555 1_555
W6 O4B 1_555 1_555
C3 N2 1_555 1_555
C5 N1 1_555 1_555
C8 N3 1_555 1_555
C9 N3 1_555 1_555
C11 N4 1_555 1_555
C15 N5 1_555 1_555
O1 O3 1_555 1_555
O1 O4 1_555 1_555
O2 Si1 1_555 1_555
O3 Si1 1_555 1_555
O4 Si1 1_555 1_555
O4 O20 1_555 1_555
O19 W6B 1_555 1_555
Si1 O3B 1_555 1_555
Si1 O4B 1_555 1_555
O20 W5B 1_555 1_555
O21 W6B 1_555 1_555
O22 W4B 1_555 1_555
Cu1B N5B 1_555 1_555
W1B O2B 1_555 1_555
W2B O3B 1_555 1_555
W2B O8B 1_555 1_555
W2B O22B 1_555 1_555
W3B O4B 1_555 1_555
W3B O9B 1_555 1_555
W3B O11B 1_555 1_555
W3B O19B 1_555 1_555
W3B O20B 1_555 1_555
W4B O2B 1_555 1_555
W4B O5B 1_555 1_555
W4B O21B 1_555 1_555
W5B O2B 1_555 1_555
W5B O15B 1_555 1_555
W5B O16B 1_555 1_555
W6B O3B 1_555 1_555
W6B O12B 1_555 1_555
W6B O23B 1_555 1_555
C3B N2B 1_555 1_555
C5B N1B 1_555 1_555
C9A N3A 1_555 1_555
C10A N4A 1_555 1_555
C11A N4A 1_555 1_555
C15B N5B 1_555 1_555
O1B O2B 1_555 1_555
O1B O3B 1_555 1_555
O1B O4B 1_555 1_555
O4B O20B 1_555 1_555

#END
