
#######################################################################
#
#                 Cambridge Crystallographic Data Centre
#                                CCDC 
#
#######################################################################
#
# If this CIF has been generated from an entry in the Cambridge 
# Structural Database, then it will include bibliographic, chemical, 
# crystal, experimental, refinement or atomic coordinate data resulting 
# from the CCDC's data processing and validation procedures.
#
#######################################################################

data_IWINEH
_symmetry_cell_setting           triclinic
_symmetry_space_group_name_H-M   'P -1'
_symmetry_Int_Tables_number      2
_space_group_name_Hall           '-P 1'
loop_
_symmetry_equiv_pos_site_id
_symmetry_equiv_pos_as_xyz
1 x,y,z
2 -x,-y,-z
_cell_length_a                   7.3710(9)
_cell_length_b                   12.710(2)
_cell_length_c                   13.204(2)
_cell_angle_alpha                111.397(3)
_cell_angle_beta                 97.088(3)
_cell_angle_gamma                97.937(3)
_cell_volume                     1120.29
loop_
_atom_site_label
_atom_site_type_symbol
_atom_site_fract_x
_atom_site_fract_y
_atom_site_fract_z
Cu1 Cu 0.86466(3) 0.65337(2) 0.94169(2)
Cu2 Cu -0.23990(3) 0.45098(2) 0.62326(2)
O1 O 0.7816(2) 0.48764(10) 0.91939(10)
O2 O -0.2621(2) 0.56738(11) 0.55323(11)
O3 O -0.0140(2) 0.54526(11) 0.72493(11)
O4 O 0.1285(2) 0.42358(12) 0.77726(11)
O5 O 0.7157(2) 0.70148(14) 1.10529(13)
O6 O -0.0613(2) 0.34337(14) 0.50388(12)
N1 N 0.9095(2) 0.35979(13) 0.97934(12)
N2 N 0.9883(2) 0.18154(14) 1.01543(14)
H1 H 1.0027(2) 0.16183(14) 1.07442(14)
H2 H 1.0328(2) 0.13158(14) 0.96101(14)
N3 N -0.5031(2) 0.60720(13) 0.44918(12)
N4 N 0.6381(2) 0.65547(13) 0.84608(12)
N5 N -0.7118(2) 0.67871(14) 0.32469(13)
H3 H -0.8146(2) 0.70885(14) 0.32036(13)
H4 H -0.6812(2) 0.65284(14) 0.25716(13)
C1 C 0.9088(2) 0.45650(15) 0.97011(14)
C2 C 0.7604(3) 0.2583(2) 0.9282(2)
H5 H 0.6426(3) 0.2807(2) 0.9380(2)
H6 H 0.7591(3) 0.2223(2) 0.8502(2)
C3 C 0.7912(4) 0.1759(2) 0.9781(3)
H7 H 0.7468(4) 0.2054(2) 1.0464(3)
C4 C 0.6740(4) 0.0581(2) 0.9210(2)
H8 H 0.7016(4) 0.0103(2) 0.9605(2)
H9 H 0.7025(4) 0.0260(2) 0.8482(2)
H10 H 0.5441(4) 0.0617(2) 0.9151(2)
C5 C -0.4300(2) 0.5502(2) 0.50142(15)
C6 C -0.4070(3) 0.7087(2) 0.4369(2)
H11 H -0.3238(3) 0.7588(2) 0.5046(2)
H12 H -0.3363(3) 0.6865(2) 0.3789(2)
C7 C -0.5562(3) 0.7683(2) 0.4066(2)
H13 H -0.6043(3) 0.8048(2) 0.4723(2)
C8 C -0.4825(4) 0.8612(2) 0.3700(2)
H14 H -0.5802(4) 0.8979(2) 0.3523(2)
H15 H -0.4304(4) 0.8267(2) 0.3054(2)
H16 H -0.3869(4) 0.9174(2) 0.4278(2)
C9 C 0.3177(3) 0.6709(2) 0.7248(2)
H17 H 0.2057(3) 0.6773(2) 0.6839(2)
C10 C 0.4856(3) 0.7395(2) 0.7334(2)
H18 H 0.4924(3) 0.7943(2) 0.6990(2)
C11 C 0.6432(3) 0.7280(2) 0.7930(2)
H19 H 0.7614(3) 0.7737(2) 0.7977(2)
C12 C 0.4735(2) 0.5868(2) 0.83458(15)
H20 H 0.4700(2) 0.5329(2) 0.87003(15)
C13 C 0.3111(2) 0.5913(2) 0.77380(14)
C14 C 0.1292(3) 0.5112(2) 0.75829(14)
H21 H 0.0447 0.3665 0.5002
H22 H -0.0367 0.3009 0.5200
H23 H 0.7364 0.6568 1.1371
H24 H 0.7525 0.7677 1.1572
C1A C 1.0912(2) 0.54350(15) 1.02989(14)
O1A O 1.2184(2) 0.51236(10) 1.08061(10)
N1A N 1.0905(2) 0.64021(13) 1.02066(12)
C2A C 1.2396(3) 0.7417(2) 1.0718(2)
H5A H 1.3574(3) 0.7193(2) 1.0620(2)
H6A H 1.2409(3) 0.7777(2) 1.1498(2)
C3A C 1.2088(4) 0.8241(2) 1.0219(3)
N2A N 1.0117(2) 0.81846(14) 0.98457(14)
H1A H 0.9973(2) 0.83817(14) 0.92558(14)
H2A H 0.9672(2) 0.86842(14) 1.03899(14)
H7A H 1.2532(4) 0.7946(2) 0.9536(3)
C4A C 1.3260(4) 0.9419(2) 1.0790(2)
H8A H 1.2984(4) 0.9897(2) 1.0395(2)
H9A H 1.2975(4) 0.9740(2) 1.1518(2)
H10A H 1.4559(4) 0.9383(2) 1.0849(2)
C5A C -0.5700(2) 0.4498(2) 0.49858(15)
O2A O -0.7379(2) 0.43262(11) 0.44677(11)
N3A N -0.4969(2) 0.39280(13) 0.55082(12)
C6A C -0.5930(3) 0.2913(2) 0.5631(2)
H11A H -0.6762(3) 0.2412(2) 0.4954(2)
H12A H -0.6637(3) 0.3135(2) 0.6211(2)
C7A C -0.4438(3) 0.2317(2) 0.5934(2)
N5A N -0.2882(2) 0.32129(14) 0.67531(13)
H3A H -0.1854(2) 0.29115(14) 0.67964(13)
H4A H -0.3188(2) 0.34716(14) 0.74284(13)
H13A H -0.3957(3) 0.1952(2) 0.5277(2)
C8A C -0.5175(4) 0.1388(2) 0.6300(2)
H14A H -0.4198(4) 0.1021(2) 0.6477(2)
H15A H -0.5696(4) 0.1733(2) 0.6946(2)
H16A H -0.6131(4) 0.0826(2) 0.5722(2)
Cu1A Cu 1.13534(3) 0.34663(2) 1.05831(2)
O5A O 1.2843(2) 0.29852(14) 0.89471(13)
H23A H 1.2636 0.3432 0.8629
H24A H 1.2475 0.2323 0.8428
O3A O 2.0140(2) 0.45474(11) 1.27507(11)
O4A O 1.8715(2) 0.57642(12) 1.22274(11)
N4A N 1.3619(2) 0.34453(13) 1.15392(12)
C9A C 1.6823(3) 0.3291(2) 1.2752(2)
H17A H 1.7943(3) 0.3227(2) 1.3161(2)
C10A C 1.5144(3) 0.2605(2) 1.2666(2)
H18A H 1.5076(3) 0.2057(2) 1.3010(2)
C11A C 1.3568(3) 0.2720(2) 1.2070(2)
H19A H 1.2386(3) 0.2263(2) 1.2023(2)
C12A C 1.5265(2) 0.4132(2) 1.16542(15)
H20A H 1.5300(2) 0.4671(2) 1.12997(15)
C13A C 1.6889(2) 0.4087(2) 1.22620(14)
C14A C 1.8708(3) 0.4888(2) 1.24171(14)
Cu2A Cu -0.76010(3) 0.54902(2) 0.37674(2)
O6A O -0.9387(2) 0.65663(14) 0.49612(12)
H21A H -1.0447 0.6335 0.4998
H22A H -0.9633 0.6991 0.4800
Cu2A_2 Cu 2.23990(3) 0.54902(2) 1.37674(2)
O3A_2 O -0.9860(2) 0.45474(11) 0.27507(11)
Cl1 Cl 0.91348(10) 1.04479(5) 1.26513(5)
O7 O 0.7736(6) 1.0829(4) 1.3183(4)
O8 O 1.0975(7) 1.1133(5) 1.3148(4)
O9 O 0.9288(8) 0.9301(3) 1.2503(4)
O10 O 0.8888(8) 1.0443(4) 1.1596(3)
O11 O 0.9441(7) 1.1423(4) 1.5783(5)
H25 H 0.9952 1.1427 1.5400
O12? O 0.7953(9) 1.0858(5) 1.3457(4)
O13? O 0.8144(9) 0.9462(5) 1.1747(5)
O14? O 0.9662(9) 1.1280(4) 1.2243(4)
O15? O 1.0485(9) 1.0185(6) 1.3170(6)
loop_
_geom_bond_atom_site_label_1
_geom_bond_atom_site_label_2
_geom_bond_site_symmetry_1
_geom_bond_site_symmetry_2
Cu1 O1 1_555 1_555
Cu2 O2 1_555 1_555
O1 C1 1_555 1_555
O2 C5 1_555 1_555
O3 Cu2 1_555 1_555
O4 C14 1_555 1_555
O5 Cu1 1_555 1_555
O6 Cu2 1_555 1_555
N1 C1 1_555 1_555
N2 H1 1_555 1_555
H2 N2 1_555 1_555
N3 C5 1_555 1_555
N4 Cu1 1_555 1_555
N5 H3 1_555 1_555
H4 N5 1_555 1_555
C1 C1A 1_555 1_555
C2 N1 1_555 1_555
H5 C2 1_555 1_555
H6 C2 1_555 1_555
C3 N2 1_555 1_555
H7 C3 1_555 1_555
C4 C3 1_555 1_555
H8 C4 1_555 1_555
H9 C4 1_555 1_555
H10 C4 1_555 1_555
C5 C5A 1_555 1_555
C6 N3 1_555 1_555
H11 C6 1_555 1_555
H12 C6 1_555 1_555
C7 N5 1_555 1_555
H13 C7 1_555 1_555
C8 C7 1_555 1_555
H14 C8 1_555 1_555
H15 C8 1_555 1_555
H16 C8 1_555 1_555
C9 H17 1_555 1_555
C10 C9 1_555 1_555
H18 C10 1_555 1_555
C11 N4 1_555 1_555
H19 C11 1_555 1_555
C12 N4 1_555 1_555
H20 C12 1_555 1_555
C13 C9 1_555 1_555
C14 O3 1_555 1_555
H21 O6 1_555 1_555
H22 O6 1_555 1_555
H23 O5 1_555 1_555
H24 O5 1_555 1_555
Cl1 O7 1_555 1_555
O8 Cl1 1_555 1_555
O9 Cl1 1_555 1_555
O10 Cl1 1_555 1_555
O11 H25 1_555 1_555
C1A O1A 1_555 1_555
O1A Cu1A 1_555 1_555
N1A Cu1 1_555 1_555
C2A N1A 1_555 1_555
H5A C2A 1_555 1_555
H6A C2A 1_555 1_555
C3A C2A 1_555 1_555
N2A Cu1 1_555 1_555
H1A N2A 1_555 1_555
H2A N2A 1_555 1_555
H7A C3A 1_555 1_555
C4A C3A 1_555 1_555
H8A C4A 1_555 1_555
H9A C4A 1_555 1_555
H10A C4A 1_555 1_555
C5A O2A 1_555 1_555
O2A Cu2A 1_555 1_555
N3A Cu2 1_555 1_555
C6A N3A 1_555 1_555
H11A C6A 1_555 1_555
H12A C6A 1_555 1_555
C7A C6A 1_555 1_555
N5A Cu2 1_555 1_555
H3A N5A 1_555 1_555
H4A N5A 1_555 1_555
H13A C7A 1_555 1_555
C8A C7A 1_555 1_555
H14A C8A 1_555 1_555
H15A C8A 1_555 1_555
H16A C8A 1_555 1_555
Cu1A N1 1_555 1_555
O5A Cu1A 1_555 1_555
H23A O5A 1_555 1_555
H24A O5A 1_555 1_555
O3A C14A 1_555 1_555
O4A C14A 1_555 1_555
N4A Cu1A 1_555 1_555
C9A H17A 1_555 1_555
C10A C9A 1_555 1_555
H18A C10A 1_555 1_555
C11A N4A 1_555 1_555
H19A C11A 1_555 1_555
C12A N4A 1_555 1_555
H20A C12A 1_555 1_555
C13A C9A 1_555 1_555
C14A C13A 1_555 1_555
Cu2A N3 1_555 1_555
O6A Cu2A 1_555 1_555
H21A O6A 1_555 1_555
H22A O6A 1_555 1_555
Cu2A_2 O3A 1_555 1_555
O3A_2 Cu2A 1_555 1_555
N2 Cu1A 1_555 1_555
N5 Cu2A 1_555 1_555
C2 C3 1_555 1_555
C6 C7 1_555 1_555
C10 C11 1_555 1_555
C12 C13 1_555 1_555
C13 C14 1_555 1_555
C1A N1A 1_555 1_555
C3A N2A 1_555 1_555
C5A N3A 1_555 1_555
C7A N5A 1_555 1_555
C10A C11A 1_555 1_555
C12A C13A 1_555 1_555

#END
