
#######################################################################
#
#                 Cambridge Crystallographic Data Centre
#                                CCDC 
#
#######################################################################
#
# If this CIF has been generated from an entry in the Cambridge 
# Structural Database, then it will include bibliographic, chemical, 
# crystal, experimental, refinement or atomic coordinate data resulting 
# from the CCDC's data processing and validation procedures.
#
#######################################################################

data_IWIPEJ
_symmetry_cell_setting           triclinic
_symmetry_space_group_name_H-M   'P -1'
_symmetry_Int_Tables_number      2
_space_group_name_Hall           '-P 1'
loop_
_symmetry_equiv_pos_site_id
_symmetry_equiv_pos_as_xyz
1 x,y,z
2 -x,-y,-z
_cell_length_a                   7.5132(3)
_cell_length_b                   8.3575(4)
_cell_length_c                   13.9439(6)
_cell_angle_alpha                106.836(2)
_cell_angle_beta                 95.865(2)
_cell_angle_gamma                94.138(2)
_cell_volume                     828.87
loop_
_atom_site_label
_atom_site_type_symbol
_atom_site_fract_x
_atom_site_fract_y
_atom_site_fract_z
Ag1 Ag 0.32632(2) -0.02720(2) 0.546371(12)
N1 N 0.3454(3) -0.3842(3) 0.39478(16)
O1 O 0.3069(3) -0.4881(3) 0.30928(15)
O2 O 0.2206(3) -0.3393(2) 0.44773(16)
O3 O 0.5012(3) -0.3172(4) 0.4279(2)
O4 O 0.7949(3) 0.6888(2) 0.97701(15)
N2 N 0.4875(3) -0.0089(3) 0.68831(15)
N3 N 1.1544(3) 1.0519(3) 1.43657(16)
C1 C 0.7964(3) 0.6104(3) 1.03885(18)
C2 C 0.7067(3) 0.4486(3) 1.18613(17)
C3 C 0.5363(3) -0.1437(3) 0.71577(19)
C4 C 0.6343(4) -0.1279(3) 0.80836(19)
C5 C 0.6871(3) 0.0314(3) 0.87545(18)
C6 C 0.6426(3) 0.1742(3) 0.84778(17)
C7 C 0.5409(3) 0.1449(3) 0.75322(18)
C8 C 0.6984(3) 0.3511(3) 0.90537(18)
C9 C 0.7437(3) 0.4225(3) 1.00556(17)
C10 C 0.7406(4) 0.3321(3) 1.08432(18)
C11 C 1.1272(3) 1.2149(3) 1.45244(19)
C12 C 1.0275(4) 1.2705(3) 1.38111(19)
C13 C 0.9545(4) 1.1546(3) 1.29088(19)
C14 C 0.9763(3) 0.9838(3) 1.27344(18)
C15 C 1.0782(3) 0.9389(3) 1.34902(17)
C16 C 0.9034(3) 0.8647(3) 1.17423(18)
C17 C 0.8559(3) 0.6978(3) 1.14950(17)
C18 C 0.8530(3) 0.5969(3) 1.22338(18)
H1 H 0.698(4) 0.385(4) 1.237(2)
H2 H 0.588(4) 0.493(4) 1.177(2)
H3 H 0.499(4) -0.259(4) 0.664(2)
H4 H 0.672(4) -0.225(4) 0.826(2)
H5 H 0.761(4) 0.043(3) 0.934(2)
H6 H 0.504(4) 0.236(4) 0.740(2)
H7 H 0.716(4) 0.423(4) 0.867(2)
H8 H 0.644(5) 0.237(5) 1.064(3)
H9 H 0.856(5) 0.286(4) 1.092(3)
H10 H 1.179(4) 1.286(4) 1.515(2)
H11 H 1.010(4) 1.385(4) 1.392(2)
H12 H 0.889(4) 1.193(4) 1.243(2)
H13 H 1.100(4) 0.829(4) 1.341(2)
H14 H 0.892(5) 0.910(4) 1.119(3)
H15 H 0.956(5) 0.558(4) 1.233(3)
H16 H 0.826(4) 0.671(4) 1.288(2)
N3_2 N 0.1544(3) 0.0519(3) 0.43657(16)
Ag1_2 Ag 1.32632(2) 0.97280(2) 1.546371(12)
loop_
_geom_bond_atom_site_label_1
_geom_bond_atom_site_label_2
_geom_bond_site_symmetry_1
_geom_bond_site_symmetry_2
Ag1 O2 1_555 1_555
N1 O1 1_555 1_555
O2 N1 1_555 1_555
O3 N1 1_555 1_555
O4 C1 1_555 1_555
N2 Ag1 1_555 1_555
N3 C11 1_555 1_555
C1 C9 1_555 1_555
C2 C10 1_555 1_555
C3 N2 1_555 1_555
C4 C3 1_555 1_555
C5 C4 1_555 1_555
C6 C5 1_555 1_555
C7 N2 1_555 1_555
C8 C6 1_555 1_555
C9 C8 1_555 1_555
C10 C9 1_555 1_555
C11 C12 1_555 1_555
C12 C13 1_555 1_555
C13 C14 1_555 1_555
C14 C15 1_555 1_555
C15 N3 1_555 1_555
C16 C14 1_555 1_555
C17 C1 1_555 1_555
C18 C2 1_555 1_555
H1 C2 1_555 1_555
H2 C2 1_555 1_555
H3 C3 1_555 1_555
H4 C4 1_555 1_555
H5 C5 1_555 1_555
H6 C7 1_555 1_555
H7 C8 1_555 1_555
H8 C10 1_555 1_555
H9 C10 1_555 1_555
H10 C11 1_555 1_555
H11 C12 1_555 1_555
H12 C13 1_555 1_555
H13 C15 1_555 1_555
H14 C16 1_555 1_555
H15 C18 1_555 1_555
H16 C18 1_555 1_555
N3_2 Ag1 1_555 1_555
Ag1_2 N3 1_555 1_555
C6 C7 1_555 1_555
C16 C17 1_555 1_555
C17 C18 1_555 1_555

#END
