
#######################################################################
#
#                 Cambridge Crystallographic Data Centre
#                                CCDC 
#
#######################################################################
#
# If this CIF has been generated from an entry in the Cambridge 
# Structural Database, then it will include bibliographic, chemical, 
# crystal, experimental, refinement or atomic coordinate data resulting 
# from the CCDC's data processing and validation procedures.
#
#######################################################################

data_IWIPAG
_symmetry_cell_setting           monoclinic
_symmetry_space_group_name_H-M   'C 2/c'
_symmetry_Int_Tables_number      15
_space_group_name_Hall           '-C 2yn'
loop_
_symmetry_equiv_pos_site_id
_symmetry_equiv_pos_as_xyz
1 x,y,z
2 -x,y,1/2-z
3 1/2+x,1/2+y,z
4 1/2-x,1/2+y,1/2-z
5 -x,-y,-z
6 x,-y,1/2+z
7 1/2-x,1/2-y,-z
8 1/2+x,1/2-y,1/2+z
_cell_length_a                   24.800(5)
_cell_length_b                   11.392(5)
_cell_length_c                   25.025(5)
_cell_angle_alpha                90
_cell_angle_beta                 116.474(5)
_cell_angle_gamma                90
_cell_volume                     6328.71
loop_
_atom_site_label
_atom_site_type_symbol
_atom_site_fract_x
_atom_site_fract_y
_atom_site_fract_z
W1 W 0.115430(16) 0.61872(4) -0.014932(17)
W2 W 0.172130(17) 0.86937(4) 0.075350(18)
W3 W 0.311560(18) 0.99035(4) 0.097640(18)
W4 W 0.25311(2) 0.46858(4) 0.058405(19)
W5 W 0.111309(16) 0.89485(5) -0.080897(19)
W6 W 0.306960(19) 0.71084(5) 0.155560(17)
O1 O 0.2559(5) 0.8149(12) 0.0610(5)
O2 O 0.1873(5) 0.7684(12) -0.0023(5)
O3 O 0.2118(5) 0.6324(12) -0.0110(5)
O4 O 0.2115(4) 0.8424(11) -0.0544(5)
O5 O 0.0468(4) 0.9658(9) -0.1178(4)
O6 O 0.0844(4) 0.7481(8) -0.0688(3)
O7 O 0.3332(5) 0.4801(11) 0.0722(6)
O8 O 0.1288(4) 0.7257(7) 0.0467(3)
O9 O 0.1349(4) 0.9235(9) 0.1112(4)
O10 O 0.1284(4) 0.9313(8) -0.0007(3)
O11 O 0.2321(4) 0.9865(10) 0.0935(5)
O12 O 0.2716(4) 1.0671(9) 0.0217(3)
O13 O 0.2522(3) 0.3348(8) 0.0863(3)
O14 O 0.1726(4) 0.5152(10) 0.0386(3)
O15 O 0.0513(4) 0.5565(11) -0.0222(4)
O16 O 0.1260(4) 0.5446(10) -0.0779(3)
O17 O 0.3399(3) 1.1046(8) 0.1433(3)
O18 O 0.3345(3) 0.6958(7) 0.2294(3)
O20 O 0.2320(7) 0.7599(18) 0.1235(7)
O21 O 0.1367(6) 0.8128(16) -0.1301(6)
O23 O 0.3337(3) 0.8647(9) 0.1516(5)
O24 O 0.2729(5) 0.5673(11) 0.1274(5)
Si1 Si 0.2500 0.7500 0.0000
W1F W 0.384570(16) 0.88128(4) 0.014932(17)
W2F W 0.327870(17) 0.63063(4) -0.075350(18)
W3F W 0.188440(18) 0.50965(4) -0.097640(18)
W4F W 0.24689(2) 1.03142(4) -0.058405(19)
W5F W 0.388691(16) 0.60515(5) 0.080897(19)
W6F W 0.193040(19) 0.78916(5) -0.155560(17)
O1F O 0.2441(5) 0.6851(12) -0.0610(5)
O2F O 0.3127(5) 0.7316(12) 0.0023(5)
O3F O 0.2882(5) 0.8676(12) 0.0110(5)
O4F O 0.2885(4) 0.6576(11) 0.0544(5)
O5F O 0.4532(4) 0.5342(9) 0.1178(4)
O6F O 0.4156(4) 0.7519(8) 0.0688(3)
O7F O 0.1668(5) 1.0199(11) -0.0722(6)
O8F O 0.3712(4) 0.7743(7) -0.0467(3)
O9F O 0.3651(4) 0.5765(9) -0.1112(4)
O10F O 0.3716(4) 0.5687(8) 0.0007(3)
O11F O 0.2679(4) 0.5135(10) -0.0935(5)
O12F O 0.2284(4) 0.4329(9) -0.0217(3)
O13F O 0.2478(3) 1.1652(8) -0.0863(3)
O14F O 0.3274(4) 0.9848(10) -0.0386(3)
O15F O 0.4487(4) 0.9435(11) 0.0222(4)
O16F O 0.3740(4) 0.9554(10) 0.0779(3)
O17F O 0.1601(3) 0.3954(8) -0.1433(3)
O18F O 0.1655(3) 0.8042(7) -0.2294(3)
O20F O 0.2680(7) 0.7401(18) -0.1235(7)
O21F O 0.3633(6) 0.6872(16) 0.1301(6)
O23F O 0.1663(3) 0.6353(9) -0.1516(5)
O24F O 0.2271(5) 0.9327(11) -0.1274(5)
Cu1 Cu 0.54885(7) 0.2357(2) 0.10716(7)
Cu2 Cu 0.29031(5) 0.30532(15) -0.13264(5)
C1 C 0.4230(5) 0.2707(11) 0.0427(4)
C2 C 0.3685(4) 0.2877(10) -0.0097(4)
H1 H 0.3324 0.2907 -0.0069
C3 C 0.4199(4) 0.3012(12) -0.0655(4)
C4 C 0.4739(5) 0.2907(12) -0.0140(5)
H2 H 0.5100 0.2942 -0.0168
C5 C 0.6829(4) 0.2906(11) 0.2799(4)
H3 H 0.6910 0.3448 0.3104
C6 C 0.6309(4) 0.3068(11) 0.2272(5)
C7 C 0.6584(5) 0.1410(12) 0.1926(4)
H4 H 0.6513 0.0884 0.1618
C8 C 0.7098(4) 0.1259(10) 0.2470(4)
C9 C 0.4220(6) 0.2534(13) 0.1012(5)
H5 H 0.4425 0.3175 0.1273
H6 H 0.3810 0.2505 0.0953
H7 H 0.4419 0.1811 0.1187
C10 C 0.4182(5) 0.3094(16) -0.1253(5)
H8 H 0.3770 0.3135 -0.1553
H9 H 0.4392 0.3787 -0.1274
H10 H 0.4371 0.2414 -0.1322
C11 C 0.5874(5) 0.4001(13) 0.2186(6)
H11 H 0.5492 0.3661 0.2109
H12 H 0.6015 0.4477 0.2539
H13 H 0.5830 0.4479 0.1852
C12 C 0.7484(5) 0.0221(12) 0.2559(5)
H14 H 0.7366 -0.0389 0.2750
H15 H 0.7442 -0.0053 0.2180
H16 H 0.7897 0.0429 0.2807
N1 N 0.4750(4) 0.2756(10) 0.0391(4)
N2 N 0.3676(3) 0.2995(8) -0.0633(3)
N3 N 0.6188(3) 0.2294(9) 0.1833(3)
N4 N 0.7216(3) 0.2045(9) 0.2903(3)
O25 O 0.5507(7) 0.0306(15) 0.1071(7)
Cu1G Cu 1.04885(7) 0.2643(2) 0.60716(7)
Cu1G_2 Cu 0.04885(7) 0.2643(2) -0.39284(7)
Cu2G Cu 0.79031(5) 0.19468(15) 0.36736(5)
C1G C 0.9230(5) 0.2293(11) 0.5427(4)
C2G C 0.8685(4) 0.2123(10) 0.4903(4)
H1G H 0.8324 0.2093 0.4931
C3G C 0.9199(4) 0.1988(12) 0.4345(4)
C4G C 0.9739(5) 0.2093(12) 0.4860(5)
H2G H 1.0100 0.2058 0.4832
C5G C 0.1829(4) 0.2094(11) -0.2201(4)
H3G H 0.1910 0.1552 -0.1896
C6G C 0.1309(4) 0.1932(11) -0.2728(5)
C7G C 0.1584(5) 0.3590(12) -0.3074(4)
H4G H 0.1513 0.4116 -0.3382
C8G C 0.2098(4) 0.3741(10) -0.2530(4)
C9G C 0.9220(6) 0.2466(13) 0.6012(5)
H5G H 0.9425 0.1825 0.6273
H6G H 0.8810 0.2495 0.5953
H7G H 0.9419 0.3189 0.6187
C10G C 0.9182(5) 0.1906(16) 0.3747(5)
H8G H 0.8770 0.1865 0.3447
H9G H 0.9392 0.1213 0.3726
H10G H 0.9371 0.2586 0.3678
C11G C 0.0874(5) 0.0999(13) -0.2814(6)
H11G H 0.0492 0.1339 -0.2891
H12G H 0.1015 0.0523 -0.2461
H13G H 0.0830 0.0521 -0.3148
C12G C 0.2484(5) 0.4779(12) -0.2441(5)
H14G H 0.2366 0.5389 -0.2250
H15G H 0.2442 0.5053 -0.2820
H16G H 0.2897 0.4571 -0.2193
N1G N 0.9750(4) 0.2244(10) 0.5391(4)
N2G N 0.8676(3) 0.2005(8) 0.4367(3)
N3G N 0.1188(3) 0.2706(9) -0.3167(3)
N3G_2 N 1.1188(3) 0.2706(9) 0.6833(3)
N4G N 0.2216(3) 0.2955(9) -0.2097(3)
O25G O 1.0507(7) 0.4694(15) 0.6071(7)
O19? O 0.2697(8) 0.7109(17) -0.1493(7)
O22? O 0.1156(7) 0.8585(16) -0.1550(6)
loop_
_geom_bond_atom_site_label_1
_geom_bond_atom_site_label_2
_geom_bond_site_symmetry_1
_geom_bond_site_symmetry_2
Cu1 N1 1_555 1_555
Cu2 N2 1_555 1_555
W1 O2 1_555 1_555
W2 O1 1_555 1_555
W3 O1 1_555 1_555
W4 O3 1_555 1_555
W5 O2 1_555 1_555
W6 O1 1_555 1_555
C1 C2 1_555 1_555
C2 H1 1_555 1_555
C3 C4 1_555 1_555
C4 H2 1_555 1_555
C5 H3 1_555 1_555
C6 C5 1_555 1_555
C7 H4 1_555 1_555
C8 C7 1_555 1_555
C9 C1 1_555 1_555
H5 C9 1_555 1_555
H6 C9 1_555 1_555
H7 C9 1_555 1_555
C10 C3 1_555 1_555
H8 C10 1_555 1_555
H9 C10 1_555 1_555
H10 C10 1_555 1_555
C11 C6 1_555 1_555
H11 C11 1_555 1_555
H12 C11 1_555 1_555
H13 C11 1_555 1_555
C12 C8 1_555 1_555
H14 C12 1_555 1_555
H15 C12 1_555 1_555
H16 C12 1_555 1_555
N1 C1 1_555 1_555
N2 C2 1_555 1_555
N3 Cu1 1_555 1_555
N4 C5 1_555 1_555
O1 Si1 1_555 1_555
O2 W2 1_555 1_555
O3 W1 1_555 1_555
O4 W5 1_555 1_555
O5 W5 1_555 1_555
O6 W1 1_555 1_555
O7 W4 1_555 1_555
O8 W1 1_555 1_555
O9 W2 1_555 1_555
O10 W2 1_555 1_555
O11 W2 1_555 1_555
O12 W3 1_555 1_555
O13 W4 1_555 1_555
O14 W1 1_555 1_555
O15 W1 1_555 1_555
O16 W1 1_555 1_555
O17 W3 1_555 1_555
O18 W6 1_555 1_555
O20 W2 1_555 1_555
O21 W5 1_555 1_555
O23 W3 1_555 1_555
O24 W4 1_555 1_555
Si1 O2 1_555 1_555
O25 Cu1 1_555 1_555
Cu1G N1G 1_555 1_555
Cu1G_2 N3G 1_555 1_555
Cu2G N4 1_555 1_555
W1F O2F 1_555 1_555
W2F O1F 1_555 1_555
W3F O3 1_555 1_555
W4F O4 1_555 1_555
W5F O7 1_555 1_555
W6F O4 1_555 1_555
C1G C2G 1_555 1_555
C2G H1G 1_555 1_555
C3G C4G 1_555 1_555
C4G H2G 1_555 1_555
C5G H3G 1_555 1_555
C6G C5G 1_555 1_555
C7G H4G 1_555 1_555
C8G C7G 1_555 1_555
C9G C1G 1_555 1_555
H5G C9G 1_555 1_555
H6G C9G 1_555 1_555
H7G C9G 1_555 1_555
C10G C3G 1_555 1_555
H8G C10G 1_555 1_555
H9G C10G 1_555 1_555
H10G C10G 1_555 1_555
C11G C6G 1_555 1_555
H11G C11G 1_555 1_555
H12G C11G 1_555 1_555
H13G C11G 1_555 1_555
C12G C8G 1_555 1_555
H14G C12G 1_555 1_555
H15G C12G 1_555 1_555
H16G C12G 1_555 1_555
N1G C1G 1_555 1_555
N2G Cu2G 1_555 1_555
N3G C6G 1_555 1_555
N3G_2 Cu1G 1_555 1_555
N4G Cu2 1_555 1_555
O1F Si1 1_555 1_555
O2F Si1 1_555 1_555
O3F W3 1_555 1_555
O4F W4 1_555 1_555
O5F W5F 1_555 1_555
O6F W1F 1_555 1_555
O7F W5 1_555 1_555
O8F W1F 1_555 1_555
O9F W2F 1_555 1_555
O10F W2F 1_555 1_555
O11F W2F 1_555 1_555
O12F W4 1_555 1_555
O13F W4F 1_555 1_555
O14F W1F 1_555 1_555
O15F W1F 1_555 1_555
O16F W3 1_555 1_555
O17F W3F 1_555 1_555
O18F W6F 1_555 1_555
O20F W2F 1_555 1_555
O21F W6 1_555 1_555
O23F W3F 1_555 1_555
O24F W4F 1_555 1_555
O25G Cu1G 1_555 1_555
W2 O8 1_555 1_555
W3 O11 1_555 1_555
W4 O14 1_555 1_555
W5 O6 1_555 1_555
W5 O10 1_555 1_555
W6 O20 1_555 1_555
W6 O23 1_555 1_555
W6 O24 1_555 1_555
W6 O4F 1_555 1_555
C3 N2 1_555 1_555
C4 N1 1_555 1_555
C6 N3 1_555 1_555
C7 N3 1_555 1_555
C8 N4 1_555 1_555
O2 O3 1_555 1_555
O3 Si1 1_555 1_555
O4 Si1 1_555 1_555
O12 W4F 1_555 1_555
O16 W3F 1_555 1_555
O21 W6F 1_555 1_555
Si1 O3F 1_555 1_555
Si1 O4F 1_555 1_555
W1F O3F 1_555 1_555
W1F O16F 1_555 1_555
W2F O2F 1_555 1_555
W2F O8F 1_555 1_555
W3F O1F 1_555 1_555
W3F O11F 1_555 1_555
W3F O12F 1_555 1_555
W4F O3F 1_555 1_555
W4F O7F 1_555 1_555
W4F O14F 1_555 1_555
W5F O2F 1_555 1_555
W5F O4F 1_555 1_555
W5F O6F 1_555 1_555
W5F O10F 1_555 1_555
W5F O21F 1_555 1_555
W6F O1F 1_555 1_555
W6F O20F 1_555 1_555
W6F O23F 1_555 1_555
W6F O24F 1_555 1_555
C2G N2G 1_555 1_555
C3G N2G 1_555 1_555
C4G N1G 1_555 1_555
C5G N4G 1_555 1_555
C7G N3G 1_555 1_555
C8G N4G 1_555 1_555
O2F O3F 1_555 1_555

#END
